
###############################################################################
#
# This file contains modified crystal structure data generated from the
# MOF subset of the Cambridge Structural Database (CSD) v543 
# hosted by the Cambridge Crystallographic Data Centre (CCDC).
#
# This work is licensed under the Creative Commons
# Attribution-NonCommercial-ShareAlike 4.0 International License.
# To view a copy of this license, visit
# http://creativecommons.org/licenses/by-nc-sa/4.0/
# or send a letter to
# Creative Commons, PO Box 1866, Mountain View, CA 94042, USA.
#
# CIF created using the CSD Python API on 29 September 2022
# The structure has been converted into the P1 space group
# The structure has a 3D framework
# The original CSD entry BAGRIN is in the monoclinic crystal system
# The framework has been calculated to contain at least 10.0% void space
# The void calculation uses a probe of radius 1.32A, grid spacing 0.4
# H atom positions have been added when not included in the experimental data
#
###############################################################################

data_BAGRIN
_chemical_formula_moiety         '(C352 H528 Cu16 N128 O328 Si8 W96)n'
_symmetry_cell_setting           triclinic
_symmetry_space_group_name_H-M   'P 1'
_symmetry_Int_Tables_number      1
_space_group_name_Hall           'P 1'
loop_
_symmetry_equiv_pos_site_id
_symmetry_equiv_pos_as_xyz
1 x,y,z
_cell_length_a                   35.318(5)
_cell_length_b                   23.532(5)
_cell_length_c                   23.250(5)
_cell_angle_alpha                90
_cell_angle_beta                 117.176(5)
_cell_angle_gamma                90
_cell_volume                     17190
loop_
_atom_site_label
_atom_site_type_symbol
_atom_site_fract_x
_atom_site_fract_y
_atom_site_fract_z
W1 W 0.11994(2) 0.30312(2) 0.45926(3)
Si1 Si 0.13890(11) 0.28741(15) 0.62095(17)
O1 O 0.1560(3) 0.2422(4) 0.6804(4)
O2 O 0.1695(3) 0.3433(4) 0.6420(4)
W2 W 0.18018(2) 0.40180(2) 0.72925(3)
O3 O 0.1406(3) 0.2571(4) 0.5595(4)
W3 W 0.20206(2) 0.22213(3) 0.55782(3)
O4 O 0.0906(3) 0.3057(4) 0.6029(4)
W4 W 0.16080(2) 0.26245(2) 0.78293(3)
W5 W 0.04915(2) 0.36914(2) 0.51877(3)
O5 O 0.0723(3) 0.1968(4) 0.6371(5)
W6 W 0.12499(2) 0.15374(2) 0.67831(3)
O6 O 0.1207(3) 0.3955(4) 0.6968(4)
W7 W 0.06999(2) 0.35217(2) 0.67370(3)
O7 O 0.1009(3) 0.4134(4) 0.5517(5)
W8 W 0.15891(2) 0.42280(2) 0.57539(3)
O8 O 0.2438(3) 0.2756(4) 0.7217(5)
W9 W 0.03380(2) 0.24287(2) 0.57060(3)
O9 O 0.0302(3) 0.2905(4) 0.6333(5)
W10 W 0.10214(2) 0.17619(2) 0.50785(3)
O10 O 0.2279(3) 0.2905(4) 0.6027(5)
W11 W 0.24271(2) 0.34243(3) 0.67289(3)
O11 O 0.1700(3) 0.4526(4) 0.6574(5)
W12 W 0.22419(2) 0.20224(3) 0.72804(3)
O12 O 0.1582(3) 0.1650(4) 0.5184(5)
O13 O 0.1200(3) 0.1475(4) 0.5923(5)
O14 O 0.0424(3) 0.3916(4) 0.5928(4)
O15 O 0.0137(3) 0.3049(4) 0.5109(4)
O16 O 0.0937(3) 0.2291(4) 0.4407(4)
O17 O 0.1067(3) 0.2976(4) 0.7358(4)
O18 O 0.2136(3) 0.2269(4) 0.7978(5)
O19 O 0.1835(3) 0.1408(4) 0.7137(5)
O20 O 0.1502(3) 0.3665(4) 0.5108(4)
O21 O 0.2191(3) 0.4029(4) 0.6127(5)
O22 O 0.0566(3) 0.2113(4) 0.5173(4)
O23 O 0.1730(3) 0.2658(4) 0.4805(5)
O24 O 0.0730(3) 0.3300(4) 0.4709(4)
O25 O 0.1340(3) 0.1900(4) 0.7577(5)
O26 O 0.2356(3) 0.3877(4) 0.7354(5)
O27 O 0.2146(3) 0.1923(4) 0.6411(5)
O28 O 0.1837(3) 0.3322(4) 0.7722(4)
O29 O 0.0771(3) 0.1187(4) 0.4611(5)
O31 O 0.0130(3) 0.4126(4) 0.4616(5)
O32 O 0.1071(3) 0.3281(4) 0.3830(5)
O33 O 0.1680(3) 0.2682(4) 0.8596(5)
O34 O 0.1075(3) 0.0896(4) 0.6890(5)
O35 O 0.1597(3) 0.4839(4) 0.5354(5)
O36 O 0.2957(3) 0.3532(4) 0.6967(6)
O37 O 0.2416(3) 0.1914(5) 0.5463(5)
O38 O 0.2699(3) 0.1650(5) 0.7679(5)
O39 O 0.0475(3) 0.3852(4) 0.7161(5)
O40 O 0.1919(3) 0.4508(4) 0.7897(5)
Cu3 Cu 0.20441(6) 0.51643(8) 0.88353(9)
Cu2 Cu 0.91422(5) 0.22386(7) 0.49023(9)
N5 N 0.7210(5) 0.0390(6) 0.5046(7)
N6 N 0.7306(4) 0.0417(5) 0.4548(6)
N7 N 0.5723(4) 0.1981(5) 0.4681(6)
N8 N 0.5694(4) 0.1514(5) 0.5023(7)
C12 C 0.8663(8) 0.0930(8) 0.6378(10)
H15 H 0.8393 0.0863 0.6373
H16 H 0.8760 0.0586 0.6267
H17 H 0.8866 0.1051 0.6802
C13 C 0.8616(6) 0.1372(8) 0.5910(9)
N13 N 0.9397(4) 0.1058(5) 0.5068(7)
N14 N 0.9117(4) 0.1420(5) 0.4624(6)
C14 C 0.8261(5) 0.1727(7) 0.5534(8)
N15 N 0.8824(4) 0.1999(5) 0.5375(6)
C15 C 0.8420(5) 0.2098(6) 0.5222(7)
N16 N 0.8946(4) 0.1555(6) 0.5812(7)
C16 C 0.8191(5) 0.2562(8) 0.4765(10)
H18 H 0.7904 0.2580 0.4705
H19 H 0.8331 0.2917 0.4937
H20 H 0.8189 0.2490 0.4358
C17 C 0.7832(6) 0.1701(8) 0.5488(9)
H21 H 0.7666 0.2016 0.5224
H22 H 0.7855 0.1752 0.5917
C18 C 0.7592(5) 0.1159(7) 0.5207(8)
C19 C 0.7536(4) 0.0884(6) 0.4632(7)
C20 C 0.7370(6) 0.0835(7) 0.5438(8)
C21 C 0.7303(8) 0.0940(10) 0.6032(11)
H23 H 0.7445 0.1284 0.6241
H24 H 0.7004 0.0975 0.5902
H25 H 0.7417 0.0627 0.6326
C22 C 0.7691(5) 0.1082(6) 0.4160(7)
H26 H 0.7850 0.1427 0.4315
H27 H 0.7870 0.0795 0.4117
H28 H 0.7452 0.1149 0.3747
C23 C 0.5650(4) 0.1774(6) 0.4102(7)
C24 C 0.5592(5) 0.1186(6) 0.4081(7)
C25 C 0.5622(5) 0.1045(6) 0.4688(8)
C26 C 0.5562(6) 0.0477(7) 0.4925(9)
H29 H 0.5513 0.0195 0.4601
H30 H 0.5812 0.0381 0.5314
H31 H 0.5321 0.0493 0.5011
C27 C 0.5498(5) 0.0783(6) 0.3537(8)
H32 H 0.5438 0.1002 0.3152
H33 H 0.5242 0.0573 0.3456
C28 C 0.5625(6) 0.2143(7) 0.3567(9)
H34 H 0.5570 0.1914 0.3196
H35 H 0.5399 0.2414 0.3458
H36 H 0.5890 0.2341 0.3702
C29 C 0.6261(4) 0.0475(6) 0.3754(7)
O30 O 0.9870(3) 0.2054(4) 0.5466(5)
C30 C 0.5848(4) 0.0362(6) 0.3646(7)
C33 C 0.6441(5) 0.1048(6) 0.3780(9)
H40 H 0.6229 0.1330 0.3715
H41 H 0.6682 0.1104 0.4195
H42 H 0.6529 0.1082 0.3447
C34 C 0.8819(5) 0.1093(6) 0.4181(8)
C35 C 0.8902(5) 0.0524(7) 0.4353(9)
C36 C 0.9279(6) 0.0511(7) 0.4929(11)
C37 C 0.8461(5) 0.1352(8) 0.3610(8)
H43 H 0.8278 0.1057 0.3341
H44 H 0.8304 0.1598 0.3751
H45 H 0.8571 0.1567 0.3368
C39 C 0.9564(8) 0.0051(8) 0.5350(14)
H49 H 0.9835 0.0072 0.5347
H50 H 0.9604 0.0100 0.5784
H53 H 0.8346 0.0117 0.5044
H54 H 0.8189 0.0015 0.2596
H56 H 0.7711 0.0203 0.2273
N17 N 0.9180(4) 0.2475(5) 0.4102(6)
Cu5 Cu 0.58578(5) 0.27614(7) 0.50977(9)
N18 N 0.9277(4) 0.3019(5) 0.5319(6)
O42 O 0.6919(3) 0.0492(4) 0.2897(5)
H60 H 0.703898 0.00735026 0.511323
H62 H 0.572497 0.153412 0.547856
H63 H 0.924365 0.138779 0.603092
H64 H 0.966522 0.118493 0.546074
Cu1 Cu 0.70441(6) 0.98357(8) 0.38353(9)
C1 C 0.5457(5) 0.7515(7) 0.1470(7)
N1 N 0.5820(4) 0.7475(5) 0.0898(6)
C2 C 0.5749(4) 0.7962(6) 0.1672(7)
N2 N 0.5503(4) 0.7248(5) 0.1000(6)
C3 C 0.5981(4) 0.7910(7) 0.1321(7)
N3 N 0.6895(4) 0.8692(5) 0.3349(6)
N4 N 0.6758(4) 0.9240(5) 0.3144(6)
C4 C 0.5125(7) 0.7353(10) 0.1668(10)
H1 H 0.5146 0.7596 0.2013
H2 H 0.4848 0.7393 0.1306
H3 H 0.5167 0.6965 0.1813
C5 C 0.6356(6) 0.8262(9) 0.1381(9)
H4 H 0.6419 0.8547 0.1707
H5 H 0.6599 0.8020 0.1499
H6 H 0.6287 0.8441 0.0974
C6 C 0.5793(5) 0.8391(7) 0.2184(9)
H7 H 0.5610 0.8712 0.1971
H8 H 0.5689 0.8219 0.2464
C7 C 0.6577(5) 0.8310(6) 0.3034(7)
C8 C 0.6231(5) 0.8612(6) 0.2597(7)
N9 N 0.6197(4) 0.9566(5) 0.3760(6)
C9 C 0.6350(4) 0.9194(6) 0.2682(7)
N10 N 0.6475(4) 0.9992(5) 0.3827(6)
C10 C 0.6639(6) 0.7693(7) 0.3166(10)
H9 H 0.6379 0.7495 0.2898
H10 H 0.6862 0.7559 0.3073
H11 H 0.6715 0.7623 0.3612
C11 C 0.6097(5) 0.9687(7) 0.2322(8)
H12 H 0.5817 0.9563 0.2019
H13 H 0.6075 0.9953 0.2619
H14 H 0.6233 0.9867 0.2095
N11 N 0.7560(5) 0.9689(7) 0.3193(7)
N12 N 0.7616(4) 0.9651(6) 0.3830(6)
C31 C 0.5818(4) 0.9781(6) 0.3648(7)
C32 C 0.5447(5) 0.9383(6) 0.3517(8)
H37 H 0.5200 0.9603 0.3447
H38 H 0.5386 0.9158 0.3141
H39 H 0.5520 0.9138 0.3883
C38 C 0.8678(6) 0.9991(8) 0.3995(13)
H46 H 0.8697 0.9984 0.3592
H47 H 0.8841 0.9670 0.4248
H48 H 0.9436 0.9688 0.5189
C40 C 0.7897(6) 0.9831(9) 0.3148(11)
C41 C 0.8232(5) 0.9888(7) 0.3837(10)
C42 C 0.8027(5) 0.9781(8) 0.4183(10)
C43 C 0.8217(6) 0.9757(8) 0.4868(9)
H51 H 0.8003 0.9673 0.5001
H52 H 0.8430 0.9465 0.5021
C44 C 0.7907(9) 0.9909(12) 0.2518(12)
H55 H 0.7828 0.9560 0.2278
O41 O 0.7183(4) 0.9082(5) 0.4728(6)
Cu4 Cu 0.58578(5) 0.72386(7) 0.00977(9)
H57 H 0.719272 0.858848 0.368875
H58 H 0.53217 0.691356 0.0747811
H59 H 0.626681 0.914523 0.379052
H61 H 0.727721 0.961091 0.280111
H65 H 0.736171 0.877111 0.469362
H66 H 0.733293 0.92634 0.516012
Cu2_2 Cu 0.08578(5) 0.22386(7) 0.00977(9)
N6_2 N 0.2694(4) 0.0417(5) 0.0452(6)
N7_2 N 0.4277(4) 0.1981(5) 0.0319(6)
N14_2 N 0.0883(4) 0.1420(5) 0.0376(6)
C16_2 C 0.1809(5) 0.2562(8) 0.0235(10)
H18_2 H 0.2096 0.2580 0.0295
H19_2 H 0.1669 0.2917 0.0063
H20_2 H 0.1811 0.2490 0.0642
C19_2 C 0.2464(4) 0.0884(6) 0.0368(7)
C22_2 C 0.2309(5) 0.1082(6) 0.0840(7)
H26_2 H 0.2150 0.1427 0.0685
H27_2 H 0.2130 0.0795 0.0883
H28_2 H 0.2548 0.1149 0.1253
C23_2 C 0.4350(4) 0.1774(6) 0.0898(7)
C24_2 C 0.4408(5) 0.1186(6) 0.0919(7)
C25_2 C 0.4378(5) 0.1045(6) 0.0312(8)
C26_2 C 0.4438(6) 0.0477(7) 0.0075(9)
H29_2 H 0.4487 0.0195 0.0399
C27_2 C 0.4502(5) 0.0783(6) 0.1463(8)
H32_2 H 0.4562 0.1002 0.1848
H33_2 H 0.4758 0.0573 0.1544
C28_2 C 0.4375(6) 0.2143(7) 0.1433(9)
H34_2 H 0.4430 0.1914 0.1804
H35_2 H 0.4601 0.2414 0.1542
H36_2 H 0.4110 0.2341 0.1298
C29_2 C 0.3739(4) 0.0475(6) 0.1246(7)
C30_2 C 0.4152(4) 0.0362(6) 0.1354(7)
C33_2 C 0.3559(5) 0.1048(6) 0.1220(9)
H40_2 H 0.3771 0.1330 0.1285
H41_2 H 0.3318 0.1104 0.0805
H42_2 H 0.3471 0.1082 0.1553
C34_2 C 0.1181(5) 0.1093(6) 0.0819(8)
C35_2 C 0.1098(5) 0.0524(7) 0.0647(9)
C36_2 C 0.0721(6) 0.0511(7) 0.0071(11)
C37_2 C 0.1539(5) 0.1352(8) 0.1390(8)
H43_2 H 0.1722 0.1057 0.1659
H44_2 H 0.1696 0.1598 0.1249
H45_2 H 0.1429 0.1567 0.1632
H54_2 H 0.1811 0.0015 0.2404
H56_2 H 0.2289 0.0203 0.2727
N17_2 N 0.0820(4) 0.2475(5) 0.0898(6)
O42_2 O 0.3081(3) 0.0492(4) 0.2103(5)
N5_2 N 0.2790(5) 0.0390(6) 0.9954(7)
N8_2 N 0.4306(4) 0.1514(5) 0.9977(7)
C12_2 C 0.1337(8) 0.0930(8) 0.8622(10)
H15_2 H 0.1607 0.0863 0.8627
H16_2 H 0.1240 0.0586 0.8733
H17_2 H 0.1134 0.1051 0.8198
C13_2 C 0.1384(6) 0.1372(8) 0.9090(9)
N13_2 N 0.0603(4) 0.1058(5) 0.9932(7)
C14_2 C 0.1739(5) 0.1727(7) 0.9466(8)
N15_2 N 0.1176(4) 0.1999(5) 0.9625(6)
C15_2 C 0.1580(5) 0.2098(6) 0.9778(7)
N16_2 N 0.1054(4) 0.1555(6) 0.9188(7)
C17_2 C 0.2168(6) 0.1701(8) 0.9512(9)
H21_2 H 0.2334 0.2016 0.9776
H22_2 H 0.2145 0.1752 0.9083
C18_2 C 0.2408(5) 0.1159(7) 0.9793(8)
C20_2 C 0.2630(6) 0.0835(7) 0.9562(8)
C21_2 C 0.2697(8) 0.0940(10) 0.8968(11)
H23_2 H 0.2555 0.1284 0.8759
H24_2 H 0.2996 0.0975 0.9098
H25_2 H 0.2583 0.0627 0.8674
H30_2 H 0.4188 0.0381 0.9686
H31_2 H 0.4679 0.0493 0.9989
O30_2 O 0.0130(3) 0.2054(4) 0.9534(5)
C39_2 C 0.0436(8) 0.0051(8) 0.9650(14)
H49_2 H 0.0165 0.0072 0.9653
H50_2 H 0.0396 0.0100 0.9216
H53_2 H 0.1654 0.0117 0.9956
Cu5_2 Cu 0.41422(5) 0.27614(7) 0.99023(9)
N18_2 N 0.0723(4) 0.3019(5) 0.9681(6)
H60_2 H 0.296102 0.00735026 0.988677
H62_2 H 0.427503 0.153412 0.952144
H63_2 H 0.0756351 0.138779 0.896908
H64_2 H 0.0334783 0.118493 0.953926
Cu1_2 Cu 0.29559(6) 0.98357(8) 0.11647(9)
C1_2 C 0.4543(5) 0.7515(7) 0.3530(7)
N1_2 N 0.4180(4) 0.7475(5) 0.4102(6)
C2_2 C 0.4251(4) 0.7962(6) 0.3328(7)
N2_2 N 0.4497(4) 0.7248(5) 0.4000(6)
C3_2 C 0.4019(4) 0.7910(7) 0.3679(7)
N3_2 N 0.3105(4) 0.8692(5) 0.1651(6)
N4_2 N 0.3242(4) 0.9240(5) 0.1856(6)
C4_2 C 0.4875(7) 0.7353(10) 0.3332(10)
H1_2 H 0.4854 0.7596 0.2987
H2_2 H 0.5152 0.7393 0.3694
H3_2 H 0.4833 0.6965 0.3187
C5_2 C 0.3644(6) 0.8262(9) 0.3619(9)
H4_2 H 0.3581 0.8547 0.3293
H5_2 H 0.3401 0.8020 0.3501
H6_2 H 0.3713 0.8441 0.4026
C6_2 C 0.4207(5) 0.8391(7) 0.2816(9)
H7_2 H 0.4390 0.8712 0.3029
H8_2 H 0.4311 0.8219 0.2536
C7_2 C 0.3423(5) 0.8310(6) 0.1966(7)
C8_2 C 0.3769(5) 0.8612(6) 0.2403(7)
N9_2 N 0.3803(4) 0.9566(5) 0.1240(6)
C9_2 C 0.3650(4) 0.9194(6) 0.2318(7)
N10_2 N 0.3525(4) 0.9992(5) 0.1173(6)
C10_2 C 0.3361(6) 0.7693(7) 0.1834(10)
H9_2 H 0.3621 0.7495 0.2102
H10_2 H 0.3138 0.7559 0.1927
H11_2 H 0.3285 0.7623 0.1388
C11_2 C 0.3903(5) 0.9687(7) 0.2678(8)
H12_2 H 0.4183 0.9563 0.2981
H13_2 H 0.3925 0.9953 0.2381
H14_2 H 0.3767 0.9867 0.2905
N11_2 N 0.2440(5) 0.9689(7) 0.1807(7)
N12_2 N 0.2384(4) 0.9651(6) 0.1170(6)
C31_2 C 0.4182(4) 0.9781(6) 0.1352(7)
C32_2 C 0.4553(5) 0.9383(6) 0.1483(8)
H37_2 H 0.4800 0.9603 0.1553
H38_2 H 0.4614 0.9158 0.1859
H39_2 H 0.4480 0.9138 0.1117
C38_2 C 0.1322(6) 0.9991(8) 0.1005(13)
H46_2 H 0.1303 0.9984 0.1408
H47_2 H 0.1159 0.9670 0.0752
C40_2 C 0.2103(6) 0.9831(9) 0.1852(11)
C41_2 C 0.1768(5) 0.9888(7) 0.1163(10)
C42_2 C 0.1973(5) 0.9781(8) 0.0817(10)
C43_2 C 0.1783(6) 0.9757(8) 0.0132(9)
C44_2 C 0.2093(9) 0.9909(12) 0.2482(12)
H55_2 H 0.2172 0.9560 0.2722
O41_2 O 0.2817(4) 0.9082(5) 0.0272(6)
Cu4_2 Cu 0.41422(5) 0.72386(7) 0.49023(9)
H57_2 H 0.280728 0.858848 0.131125
H58_2 H 0.46783 0.691356 0.425219
H59_2 H 0.373319 0.914523 0.120948
H61_2 H 0.272279 0.961091 0.219889
H65_2 H 0.263829 0.877111 0.0306383
Si1_2 Si 0.86110(11) 0.28741(15) 0.87905(17)
O1_2 O 0.8440(3) 0.2422(4) 0.8196(4)
O2_2 O 0.8305(3) 0.3433(4) 0.8580(4)
W2_2 W 0.81982(2) 0.40180(2) 0.77075(3)
O3_2 O 0.8594(3) 0.2571(4) 0.9405(4)
W3_2 W 0.79794(2) 0.22213(3) 0.94218(3)
O4_2 O 0.9094(3) 0.3057(4) 0.8971(4)
W4_2 W 0.83920(2) 0.26245(2) 0.71707(3)
W5_2 W 0.95085(2) 0.36914(2) 0.98123(3)
O5_2 O 0.9277(3) 0.1968(4) 0.8629(5)
W6_2 W 0.87501(2) 0.15374(2) 0.82169(3)
O6_2 O 0.8793(3) 0.3955(4) 0.8032(4)
W7_2 W 0.93001(2) 0.35217(2) 0.82630(3)
O7_2 O 0.8991(3) 0.4134(4) 0.9483(5)
W8_2 W 0.84109(2) 0.42280(2) 0.92461(3)
O8_2 O 0.7562(3) 0.2756(4) 0.7783(5)
W9_2 W 0.96620(2) 0.24287(2) 0.92940(3)
O9_2 O 0.9698(3) 0.2905(4) 0.8667(5)
W10_2 W 0.89786(2) 0.17619(2) 0.99215(3)
O10_2 O 0.7721(3) 0.2905(4) 0.8973(5)
W11_2 W 0.75729(2) 0.34243(3) 0.82711(3)
O11_2 O 0.8300(3) 0.4526(4) 0.8426(5)
W12_2 W 0.77581(2) 0.20224(3) 0.77196(3)
O12_2 O 0.8418(3) 0.1650(4) 0.9816(5)
O13_2 O 0.8800(3) 0.1475(4) 0.9077(5)
O14_2 O 0.9576(3) 0.3916(4) 0.9072(4)
O15_2 O 0.9863(3) 0.3049(4) 0.9891(4)
O17_2 O 0.8933(3) 0.2976(4) 0.7642(4)
O18_2 O 0.7864(3) 0.2269(4) 0.7022(5)
O19_2 O 0.8165(3) 0.1408(4) 0.7863(5)
O20_2 O 0.8498(3) 0.3665(4) 0.9892(4)
O21_2 O 0.7809(3) 0.4029(4) 0.8873(5)
O22_2 O 0.9434(3) 0.2113(4) 0.9827(4)
O25_2 O 0.8660(3) 0.1900(4) 0.7423(5)
O26_2 O 0.7644(3) 0.3877(4) 0.7646(5)
O27_2 O 0.7854(3) 0.1923(4) 0.8589(5)
O28_2 O 0.8163(3) 0.3322(4) 0.7278(4)
O33_2 O 0.8320(3) 0.2682(4) 0.6404(5)
O34_2 O 0.8925(3) 0.0896(4) 0.8110(5)
O35_2 O 0.8403(3) 0.4839(4) 0.9646(5)
O36_2 O 0.7043(3) 0.3532(4) 0.8033(6)
O37_2 O 0.7584(3) 0.1914(5) 0.9537(5)
O38_2 O 0.7301(3) 0.1650(5) 0.7321(5)
O39_2 O 0.9525(3) 0.3852(4) 0.7839(5)
O40_2 O 0.8081(3) 0.4508(4) 0.7103(5)
Cu3_2 Cu 0.79559(6) 0.51643(8) 0.61647(9)
Cu3_3 Cu 0.70441(6) 0.01643(8) 0.88353(9)
W1_2 W 0.61994(2) 0.80312(2) 0.45926(3)
Cu1_3 Cu 0.20441(6) 0.48357(8) 0.38353(9)
Si1_3 Si 0.63890(11) 0.78741(15) 0.62095(17)
O1_3 O 0.6560(3) 0.7422(4) 0.6804(4)
C1_3 C 0.0457(5) 0.2515(7) 0.1470(7)
O2_3 O 0.6695(3) 0.8433(4) 0.6420(4)
W2_3 W 0.68018(2) 0.90180(2) 0.72925(3)
C2_3 C 0.0749(4) 0.2962(6) 0.1672(7)
N2_3 N 0.0503(4) 0.2248(5) 0.1000(6)
O3_3 O 0.6406(3) 0.7571(4) 0.5595(4)
W3_3 W 0.70206(2) 0.72213(3) 0.55782(3)
C3_3 C 0.0981(4) 0.2910(7) 0.1321(7)
N3_3 N 0.1895(4) 0.3692(5) 0.3349(6)
N4_3 N 0.1758(4) 0.4240(5) 0.3144(6)
O4_3 O 0.5906(3) 0.8057(4) 0.6029(4)
W4_3 W 0.66080(2) 0.76245(2) 0.78293(3)
C4_3 C 0.0125(7) 0.2353(10) 0.1668(10)
H1_3 H 0.0146 0.2596 0.2013
H3_3 H 0.0167 0.1965 0.1813
W5_3 W 0.54915(2) 0.86914(2) 0.51877(3)
C5_3 C 0.1356(6) 0.3262(9) 0.1381(9)
H4_3 H 0.1419 0.3547 0.1707
H5_3 H 0.1599 0.3020 0.1499
H6_3 H 0.1287 0.3441 0.0974
N5_3 N 0.2210(5) 0.5390(6) 0.5046(7)
O5_3 O 0.5723(3) 0.6968(4) 0.6371(5)
N6_3 N 0.2306(4) 0.5417(5) 0.4548(6)
W6_3 W 0.62499(2) 0.65374(2) 0.67831(3)
C6_3 C 0.0793(5) 0.3391(7) 0.2184(9)
H7_3 H 0.0610 0.3712 0.1971
H8_3 H 0.0689 0.3219 0.2464
O6_3 O 0.6207(3) 0.8955(4) 0.6968(4)
W7_3 W 0.56999(2) 0.85217(2) 0.67370(3)
C7_3 C 0.1577(5) 0.3310(6) 0.3034(7)
N7_3 N 0.0723(4) 0.6981(5) 0.4681(6)
O7_3 O 0.6009(3) 0.9134(4) 0.5517(5)
W8_3 W 0.65891(2) 0.92280(2) 0.57539(3)
C8_3 C 0.1231(5) 0.3612(6) 0.2597(7)
N8_3 N 0.0694(4) 0.6514(5) 0.5023(7)
O8_3 O 0.7438(3) 0.7756(4) 0.7217(5)
N9_3 N 0.1197(4) 0.4566(5) 0.3760(6)
W9_3 W 0.53380(2) 0.74287(2) 0.57060(3)
C9_3 C 0.1350(4) 0.4194(6) 0.2682(7)
O9_3 O 0.5302(3) 0.7905(4) 0.6333(5)
N10_3 N 0.1475(4) 0.4992(5) 0.3827(6)
W10_3 W 0.60214(2) 0.67619(2) 0.50785(3)
C10_3 C 0.1639(6) 0.2693(7) 0.3166(10)
H9_3 H 0.1379 0.2495 0.2898
H10_3 H 0.1862 0.2559 0.3073
H11_3 H 0.1715 0.2623 0.3612
O10_3 O 0.7279(3) 0.7905(4) 0.6027(5)
W11_3 W 0.74271(2) 0.84243(3) 0.67289(3)
C11_3 C 0.1097(5) 0.4687(7) 0.2322(8)
H12_3 H 0.0817 0.4563 0.2019
H13_3 H 0.1075 0.4953 0.2619
H14_3 H 0.1233 0.4867 0.2095
N11_3 N 0.2560(5) 0.4689(7) 0.3193(7)
O11_3 O 0.6700(3) 0.9526(4) 0.6574(5)
N12_3 N 0.2616(4) 0.4651(6) 0.3830(6)
W12_3 W 0.72419(2) 0.70224(3) 0.72804(3)
C12_3 C 0.3663(8) 0.5930(8) 0.6378(10)
H15_3 H 0.3393 0.5863 0.6373
H16_3 H 0.3760 0.5586 0.6267
H17_3 H 0.3866 0.6051 0.6802
O12_3 O 0.6582(3) 0.6650(4) 0.5184(5)
C13_3 C 0.3616(6) 0.6372(8) 0.5910(9)
N13_3 N 0.4397(4) 0.6058(5) 0.5068(7)
O13_3 O 0.6200(3) 0.6475(4) 0.5923(5)
N14_3 N 0.4117(4) 0.6420(5) 0.4624(6)
C14_3 C 0.3261(5) 0.6727(7) 0.5534(8)
O14_3 O 0.5424(3) 0.8916(4) 0.5928(4)
N15_3 N 0.3824(4) 0.6999(5) 0.5375(6)
C15_3 C 0.3420(5) 0.7098(6) 0.5222(7)
O15_3 O 0.5137(3) 0.8049(4) 0.5109(4)
N16_3 N 0.3946(4) 0.6555(6) 0.5812(7)
C16_3 C 0.3191(5) 0.7562(8) 0.4765(10)
H18_3 H 0.2904 0.7580 0.4705
H19_3 H 0.3331 0.7917 0.4937
H20_3 H 0.3189 0.7490 0.4358
O16_2 O 0.5937(3) 0.7291(4) 0.4407(4)
C17_3 C 0.2832(6) 0.6701(8) 0.5488(9)
H21_3 H 0.2666 0.7016 0.5224
H22_3 H 0.2855 0.6752 0.5917
O17_3 O 0.6067(3) 0.7976(4) 0.7358(4)
C18_3 C 0.2592(5) 0.6159(7) 0.5207(8)
O18_3 O 0.7136(3) 0.7269(4) 0.7978(5)
C19_3 C 0.2536(4) 0.5884(6) 0.4632(7)
O19_3 O 0.6835(3) 0.6408(4) 0.7137(5)
C20_3 C 0.2370(6) 0.5835(7) 0.5438(8)
O20_3 O 0.6502(3) 0.8665(4) 0.5108(4)
C21_3 C 0.2303(8) 0.5940(10) 0.6032(11)
H23_3 H 0.2445 0.6284 0.6241
H24_3 H 0.2004 0.5975 0.5902
H25_3 H 0.2417 0.5627 0.6326
O21_3 O 0.7191(3) 0.9029(4) 0.6127(5)
C22_3 C 0.2691(5) 0.6082(6) 0.4160(7)
H26_3 H 0.2850 0.6427 0.4315
H27_3 H 0.2870 0.5795 0.4117
H28_3 H 0.2452 0.6149 0.3747
O22_3 O 0.5566(3) 0.7113(4) 0.5173(4)
C23_3 C 0.0650(4) 0.6774(6) 0.4102(7)
O23_2 O 0.6730(3) 0.7658(4) 0.4805(5)
C24_3 C 0.0592(5) 0.6186(6) 0.4081(7)
O24_2 O 0.5730(3) 0.8300(4) 0.4709(4)
C25_3 C 0.0622(5) 0.6045(6) 0.4688(8)
O25_3 O 0.6340(3) 0.6900(4) 0.7577(5)
C26_3 C 0.0562(6) 0.5477(7) 0.4925(9)
H29_3 H 0.0513 0.5195 0.4601
H30_3 H 0.0812 0.5381 0.5314
H31_3 H 0.0321 0.5493 0.5011
O26_3 O 0.7356(3) 0.8877(4) 0.7354(5)
O27_3 O 0.7146(3) 0.6923(4) 0.6411(5)
C27_3 C 0.0498(5) 0.5783(6) 0.3537(8)
H32_3 H 0.0438 0.6002 0.3152
H33_3 H 0.0242 0.5573 0.3456
O28_3 O 0.6837(3) 0.8322(4) 0.7722(4)
C28_3 C 0.0625(6) 0.7143(7) 0.3567(9)
H34_3 H 0.0570 0.6914 0.3196
H35_3 H 0.0399 0.7414 0.3458
H36_3 H 0.0890 0.7341 0.3702
O29_2 O 0.5771(3) 0.6187(4) 0.4611(5)
C29_3 C 0.1261(4) 0.5475(6) 0.3754(7)
O30_3 O 0.4870(3) 0.7054(4) 0.5466(5)
C30_3 C 0.0848(4) 0.5362(6) 0.3646(7)
O31_2 O 0.5130(3) 0.9126(4) 0.4616(5)
C31_3 C 0.0818(4) 0.4781(6) 0.3648(7)
O32_2 O 0.6071(3) 0.8281(4) 0.3830(5)
C32_3 C 0.0447(5) 0.4383(6) 0.3517(8)
H37_3 H 0.0200 0.4603 0.3447
H38_3 H 0.0386 0.4158 0.3141
H39_3 H 0.0520 0.4138 0.3883
O33_3 O 0.6680(3) 0.7682(4) 0.8596(5)
C33_3 C 0.1441(5) 0.6048(6) 0.3780(9)
H40_3 H 0.1229 0.6330 0.3715
H41_3 H 0.1682 0.6104 0.4195
H42_3 H 0.1529 0.6082 0.3447
O34_3 O 0.6075(3) 0.5896(4) 0.6890(5)
C34_3 C 0.3819(5) 0.6093(6) 0.4181(8)
C35_3 C 0.3902(5) 0.5524(7) 0.4353(9)
O35_3 O 0.6597(3) 0.9839(4) 0.5354(5)
C36_3 C 0.4279(6) 0.5511(7) 0.4929(11)
O36_3 O 0.7957(3) 0.8532(4) 0.6967(6)
C37_3 C 0.3461(5) 0.6352(8) 0.3610(8)
H43_3 H 0.3278 0.6057 0.3341
H44_3 H 0.3304 0.6598 0.3751
H45_3 H 0.3571 0.6567 0.3368
O37_3 O 0.7416(3) 0.6914(5) 0.5463(5)
C38_3 C 0.3678(6) 0.4991(8) 0.3995(13)
H46_3 H 0.3697 0.4984 0.3592
H47_3 H 0.3841 0.4670 0.4248
O38_3 O 0.7699(3) 0.6650(5) 0.7679(5)
C39_3 C 0.4564(8) 0.5051(8) 0.5350(14)
H48_2 H 0.4436 0.4688 0.5189
H49_3 H 0.4835 0.5072 0.5347
H50_3 H 0.4604 0.5100 0.5784
O39_3 O 0.5475(3) 0.8852(4) 0.7161(5)
C40_3 C 0.2897(6) 0.4831(9) 0.3148(11)
O40_3 O 0.6919(3) 0.9508(4) 0.7897(5)
C41_3 C 0.3232(5) 0.4888(7) 0.3837(10)
C42_3 C 0.3027(5) 0.4781(8) 0.4183(10)
C43_3 C 0.3217(6) 0.4757(8) 0.4868(9)
H51_2 H 0.3003 0.4673 0.5001
H52_2 H 0.3430 0.4465 0.5021
H53_3 H 0.3346 0.5117 0.5044
C44_3 C 0.2907(9) 0.4909(12) 0.2518(12)
H54_3 H 0.3189 0.5015 0.2596
H55_3 H 0.2828 0.4560 0.2278
H56_3 H 0.2711 0.5203 0.2273
O41_3 O 0.2183(4) 0.4082(5) 0.4728(6)
Cu5_3 Cu 0.08578(5) 0.77614(7) 0.50977(9)
N18_3 N 0.4277(4) 0.8019(5) 0.5319(6)
O42_3 O 0.1919(3) 0.5492(4) 0.2897(5)
H57_3 H 0.219272 0.358848 0.368875
H58_3 H 0.0321699 0.191356 0.0747811
H59_3 H 0.126681 0.414523 0.379052
H60_3 H 0.203898 0.50735 0.511323
H61_3 H 0.227721 0.461091 0.280111
H62_3 H 0.072497 0.653412 0.547856
H63_3 H 0.424365 0.638779 0.603092
H64_3 H 0.466522 0.618493 0.546074
H65_3 H 0.236171 0.377111 0.469362
H66_2 H 0.233293 0.42634 0.516012
Cu3_4 Cu 0.29559(6) 0.01643(8) 0.61647(9)
W1_3 W 0.38006(2) 0.80312(2) 0.04074(3)
Cu1_4 Cu 0.79559(6) 0.48357(8) 0.11647(9)
C1_4 C 0.9543(5) 0.2515(7) 0.3530(7)
C2_4 C 0.9251(4) 0.2962(6) 0.3328(7)
N2_4 N 0.9497(4) 0.2248(5) 0.4000(6)
C3_4 C 0.9019(4) 0.2910(7) 0.3679(7)
N3_4 N 0.8105(4) 0.3692(5) 0.1651(6)
N4_4 N 0.8242(4) 0.4240(5) 0.1856(6)
C4_4 C 0.9875(7) 0.2353(10) 0.3332(10)
H1_4 H 0.9854 0.2596 0.2987
H3_4 H 0.9833 0.1965 0.3187
C5_4 C 0.8644(6) 0.3262(9) 0.3619(9)
H4_4 H 0.8581 0.3547 0.3293
H5_4 H 0.8401 0.3020 0.3501
H6_4 H 0.8713 0.3441 0.4026
N6_4 N 0.7694(4) 0.5417(5) 0.0452(6)
C6_4 C 0.9207(5) 0.3391(7) 0.2816(9)
H7_4 H 0.9390 0.3712 0.3029
H8_4 H 0.9311 0.3219 0.2536
C7_4 C 0.8423(5) 0.3310(6) 0.1966(7)
N7_4 N 0.9277(4) 0.6981(5) 0.0319(6)
C8_4 C 0.8769(5) 0.3612(6) 0.2403(7)
N9_4 N 0.8803(4) 0.4566(5) 0.1240(6)
C9_4 C 0.8650(4) 0.4194(6) 0.2318(7)
N10_4 N 0.8525(4) 0.4992(5) 0.1173(6)
C10_4 C 0.8361(6) 0.2693(7) 0.1834(10)
H9_4 H 0.8621 0.2495 0.2102
H10_4 H 0.8138 0.2559 0.1927
H11_4 H 0.8285 0.2623 0.1388
C11_4 C 0.8903(5) 0.4687(7) 0.2678(8)
H12_4 H 0.9183 0.4563 0.2981
H13_4 H 0.8925 0.4953 0.2381
H14_4 H 0.8767 0.4867 0.2905
N11_4 N 0.7440(5) 0.4689(7) 0.1807(7)
N12_4 N 0.7384(4) 0.4651(6) 0.1170(6)
N14_4 N 0.5883(4) 0.6420(5) 0.0376(6)
C16_4 C 0.6809(5) 0.7562(8) 0.0235(10)
H18_4 H 0.7096 0.7580 0.0295
H19_4 H 0.6669 0.7917 0.0063
H20_4 H 0.6811 0.7490 0.0642
O16_3 O 0.4063(3) 0.7291(4) 0.0593(4)
C19_4 C 0.7464(4) 0.5884(6) 0.0368(7)
C22_4 C 0.7309(5) 0.6082(6) 0.0840(7)
H26_4 H 0.7150 0.6427 0.0685
H27_4 H 0.7130 0.5795 0.0883
H28_4 H 0.7548 0.6149 0.1253
C23_4 C 0.9350(4) 0.6774(6) 0.0898(7)
O23_3 O 0.3270(3) 0.7658(4) 0.0195(5)
C24_4 C 0.9408(5) 0.6186(6) 0.0919(7)
O24_3 O 0.4270(3) 0.8300(4) 0.0291(4)
C25_4 C 0.9378(5) 0.6045(6) 0.0312(8)
C26_4 C 0.9438(6) 0.5477(7) 0.0075(9)
H29_4 H 0.9487 0.5195 0.0399
C27_4 C 0.9502(5) 0.5783(6) 0.1463(8)
H32_4 H 0.9562 0.6002 0.1848
H33_4 H 0.9758 0.5573 0.1544
C28_4 C 0.9375(6) 0.7143(7) 0.1433(9)
H34_4 H 0.9430 0.6914 0.1804
H35_4 H 0.9601 0.7414 0.1542
H36_4 H 0.9110 0.7341 0.1298
O29_3 O 0.4229(3) 0.6187(4) 0.0389(5)
C29_4 C 0.8739(4) 0.5475(6) 0.1246(7)
C30_4 C 0.9152(4) 0.5362(6) 0.1354(7)
O31_3 O 0.4870(3) 0.9126(4) 0.0384(5)
C31_4 C 0.9182(4) 0.4781(6) 0.1352(7)
O32_3 O 0.3929(3) 0.8281(4) 0.1170(5)
C32_4 C 0.9553(5) 0.4383(6) 0.1483(8)
H37_4 H 0.9800 0.4603 0.1553
H38_4 H 0.9614 0.4158 0.1859
H39_4 H 0.9480 0.4138 0.1117
C33_4 C 0.8559(5) 0.6048(6) 0.1220(9)
H40_4 H 0.8771 0.6330 0.1285
H41_4 H 0.8318 0.6104 0.0805
H42_4 H 0.8471 0.6082 0.1553
C34_4 C 0.6181(5) 0.6093(6) 0.0819(8)
C35_4 C 0.6098(5) 0.5524(7) 0.0647(9)
C36_4 C 0.5721(6) 0.5511(7) 0.0071(11)
C37_4 C 0.6539(5) 0.6352(8) 0.1390(8)
H43_4 H 0.6722 0.6057 0.1659
H44_4 H 0.6696 0.6598 0.1249
H45_4 H 0.6429 0.6567 0.1632
C38_4 C 0.6322(6) 0.4991(8) 0.1005(13)
H46_4 H 0.6303 0.4984 0.1408
H47_4 H 0.6159 0.4670 0.0752
C40_4 C 0.7103(6) 0.4831(9) 0.1852(11)
C41_4 C 0.6768(5) 0.4888(7) 0.1163(10)
C42_4 C 0.6973(5) 0.4781(8) 0.0817(10)
C43_4 C 0.6783(6) 0.4757(8) 0.0132(9)
C44_4 C 0.7093(9) 0.4909(12) 0.2482(12)
H54_4 H 0.6811 0.5015 0.2404
H55_4 H 0.7172 0.4560 0.2722
H56_4 H 0.7289 0.5203 0.2727
O41_4 O 0.7817(4) 0.4082(5) 0.0272(6)
O42_4 O 0.8081(3) 0.5492(4) 0.2103(5)
H57_4 H 0.780728 0.358848 0.131125
H58_4 H 0.96783 0.191356 0.425219
H59_4 H 0.873319 0.414523 0.120948
H61_4 H 0.772279 0.461091 0.219889
H65_4 H 0.763829 0.377111 0.0306383
Si1_4 Si 0.36110(11) 0.78741(15) 0.87905(17)
O1_4 O 0.3440(3) 0.7422(4) 0.8196(4)
O2_4 O 0.3305(3) 0.8433(4) 0.8580(4)
W2_4 W 0.31982(2) 0.90180(2) 0.77075(3)
O3_4 O 0.3594(3) 0.7571(4) 0.9405(4)
W3_4 W 0.29794(2) 0.72213(3) 0.94218(3)
O4_4 O 0.4094(3) 0.8057(4) 0.8971(4)
W4_4 W 0.33920(2) 0.76245(2) 0.71707(3)
W5_4 W 0.45085(2) 0.86914(2) 0.98123(3)
N5_4 N 0.7790(5) 0.5390(6) 0.9954(7)
O5_4 O 0.4277(3) 0.6968(4) 0.8629(5)
W6_4 W 0.37501(2) 0.65374(2) 0.82169(3)
O6_4 O 0.3793(3) 0.8955(4) 0.8032(4)
W7_4 W 0.43001(2) 0.85217(2) 0.82630(3)
O7_4 O 0.3991(3) 0.9134(4) 0.9483(5)
W8_4 W 0.34109(2) 0.92280(2) 0.92461(3)
N8_4 N 0.9306(4) 0.6514(5) 0.9977(7)
O8_4 O 0.2562(3) 0.7756(4) 0.7783(5)
W9_4 W 0.46620(2) 0.74287(2) 0.92940(3)
O9_4 O 0.4698(3) 0.7905(4) 0.8667(5)
W10_4 W 0.39786(2) 0.67619(2) 0.99215(3)
O10_4 O 0.2721(3) 0.7905(4) 0.8973(5)
W11_4 W 0.25729(2) 0.84243(3) 0.82711(3)
O11_4 O 0.3300(3) 0.9526(4) 0.8426(5)
W12_4 W 0.27581(2) 0.70224(3) 0.77196(3)
C12_4 C 0.6337(8) 0.5930(8) 0.8622(10)
H15_4 H 0.6607 0.5863 0.8627
H16_4 H 0.6240 0.5586 0.8733
H17_4 H 0.6134 0.6051 0.8198
O12_4 O 0.3418(3) 0.6650(4) 0.9816(5)
C13_4 C 0.6384(6) 0.6372(8) 0.9090(9)
N13_4 N 0.5603(4) 0.6058(5) 0.9932(7)
O13_4 O 0.3800(3) 0.6475(4) 0.9077(5)
C14_4 C 0.6739(5) 0.6727(7) 0.9466(8)
O14_4 O 0.4576(3) 0.8916(4) 0.9072(4)
N15_4 N 0.6176(4) 0.6999(5) 0.9625(6)
C15_4 C 0.6580(5) 0.7098(6) 0.9778(7)
O15_4 O 0.4863(3) 0.8049(4) 0.9891(4)
N16_4 N 0.6054(4) 0.6555(6) 0.9188(7)
C17_4 C 0.7168(6) 0.6701(8) 0.9512(9)
H21_4 H 0.7334 0.7016 0.9776
H22_4 H 0.7145 0.6752 0.9083
O17_4 O 0.3933(3) 0.7976(4) 0.7642(4)
C18_4 C 0.7408(5) 0.6159(7) 0.9793(8)
O18_4 O 0.2864(3) 0.7269(4) 0.7022(5)
O19_4 O 0.3165(3) 0.6408(4) 0.7863(5)
C20_4 C 0.7630(6) 0.5835(7) 0.9562(8)
O20_4 O 0.3498(3) 0.8665(4) 0.9892(4)
C21_4 C 0.7697(8) 0.5940(10) 0.8968(11)
H23_4 H 0.7555 0.6284 0.8759
H24_4 H 0.7996 0.5975 0.9098
H25_4 H 0.7583 0.5627 0.8674
O21_4 O 0.2809(3) 0.9029(4) 0.8873(5)
O22_4 O 0.4434(3) 0.7113(4) 0.9827(4)
O25_4 O 0.3660(3) 0.6900(4) 0.7423(5)
H30_4 H 0.9188 0.5381 0.9686
H31_4 H 0.9679 0.5493 0.9989
O26_4 O 0.2644(3) 0.8877(4) 0.7646(5)
O27_4 O 0.2854(3) 0.6923(4) 0.8589(5)
O28_4 O 0.3163(3) 0.8322(4) 0.7278(4)
O30_4 O 0.5130(3) 0.7054(4) 0.9534(5)
O33_4 O 0.3320(3) 0.7682(4) 0.6404(5)
O34_4 O 0.3925(3) 0.5896(4) 0.8110(5)
O35_4 O 0.3403(3) 0.9839(4) 0.9646(5)
O36_4 O 0.2043(3) 0.8532(4) 0.8033(6)
O37_4 O 0.2584(3) 0.6914(5) 0.9537(5)
O38_4 O 0.2301(3) 0.6650(5) 0.7321(5)
C39_4 C 0.5436(8) 0.5051(8) 0.9650(14)
H48_3 H 0.5564 0.4688 0.9811
H49_4 H 0.5165 0.5072 0.9653
H50_4 H 0.5396 0.5100 0.9216
O39_4 O 0.4525(3) 0.8852(4) 0.7839(5)
O40_4 O 0.3081(3) 0.9508(4) 0.7103(5)
H51_3 H 0.6997 0.4673 0.9999
H52_3 H 0.6570 0.4465 0.9979
H53_4 H 0.6654 0.5117 0.9956
Cu5_4 Cu 0.91422(5) 0.77614(7) 0.99023(9)
N18_4 N 0.5723(4) 0.8019(5) 0.9681(6)
H60_4 H 0.796102 0.50735 0.988677
H62_4 H 0.927503 0.653412 0.952144
H63_4 H 0.575635 0.638779 0.896908
H64_4 H 0.533478 0.618493 0.953926
H66_3 H 0.766707 0.42634 0.983988
C1_5 C 0.4543(5) 0.2485(7) 0.8530(7)
N1_3 N 0.4180(4) 0.2525(5) 0.9102(6)
C2_5 C 0.4251(4) 0.2038(6) 0.8328(7)
N2_5 N 0.4497(4) 0.2752(5) 0.9000(6)
C3_5 C 0.4019(4) 0.2090(7) 0.8679(7)
N3_5 N 0.3105(4) 0.1308(5) 0.6651(6)
N4_5 N 0.3242(4) 0.0760(5) 0.6856(6)
C4_5 C 0.4875(7) 0.2647(10) 0.8332(10)
H1_5 H 0.4854 0.2404 0.7987
H2_3 H 0.5152 0.2607 0.8694
H3_5 H 0.4833 0.3035 0.8187
C5_5 C 0.3644(6) 0.1738(9) 0.8619(9)
H4_5 H 0.3581 0.1453 0.8293
H5_5 H 0.3401 0.1980 0.8501
H6_5 H 0.3713 0.1559 0.9026
C6_5 C 0.4207(5) 0.1609(7) 0.7816(9)
H7_5 H 0.4390 0.1288 0.8029
H8_5 H 0.4311 0.1781 0.7536
C7_5 C 0.3423(5) 0.1690(6) 0.6966(7)
C8_5 C 0.3769(5) 0.1388(6) 0.7403(7)
N9_5 N 0.3803(4) 0.0434(5) 0.6240(6)
C9_5 C 0.3650(4) 0.0806(6) 0.7318(7)
N10_5 N 0.3525(4) 0.0008(5) 0.6173(6)
C10_5 C 0.3361(6) 0.2307(7) 0.6834(10)
H9_5 H 0.3621 0.2505 0.7102
H10_5 H 0.3138 0.2441 0.6927
H11_5 H 0.3285 0.2377 0.6388
C11_5 C 0.3903(5) 0.0313(7) 0.7678(8)
H12_5 H 0.4183 0.0437 0.7981
H13_5 H 0.3925 0.0047 0.7381
H14_5 H 0.3767 0.0133 0.7905
N11_5 N 0.2440(5) 0.0311(7) 0.6807(7)
N12_5 N 0.2384(4) 0.0349(6) 0.6170(6)
C31_5 C 0.4182(4) 0.0219(6) 0.6352(7)
C32_5 C 0.4553(5) 0.0617(6) 0.6483(8)
H37_5 H 0.4800 0.0397 0.6553
H38_5 H 0.4614 0.0842 0.6859
H39_5 H 0.4480 0.0862 0.6117
C38_5 C 0.1322(6) 0.0009(8) 0.6005(13)
H46_5 H 0.1303 0.0016 0.6408
H47_5 H 0.1159 0.0330 0.5752
H48_4 H 0.0564 0.0312 0.4811
C40_5 C 0.2103(6) 0.0169(9) 0.6852(11)
C41_5 C 0.1768(5) 0.0112(7) 0.6163(10)
C42_5 C 0.1973(5) 0.0219(8) 0.5817(10)
C43_5 C 0.1783(6) 0.0243(8) 0.5132(9)
H51_4 H 0.1997 0.0327 0.4999
H52_4 H 0.1570 0.0535 0.4979
C44_5 C 0.2093(9) 0.0091(12) 0.7482(12)
H55_5 H 0.2172 0.0440 0.7722
O41_5 O 0.2817(4) 0.0918(5) 0.5272(6)
H57_5 H 0.280728 0.141152 0.631125
H58_5 H 0.46783 0.308644 0.925219
H59_5 H 0.373319 0.0854765 0.620948
H61_5 H 0.272279 0.0389093 0.719889
H65_5 H 0.263829 0.122889 0.530638
H66_4 H 0.266707 0.07366 0.483988
N5_5 N 0.2790(5) 0.9610(6) 0.4954(7)
N6_5 N 0.2694(4) 0.9583(5) 0.5452(6)
N8_5 N 0.4306(4) 0.8486(5) 0.4977(7)
C12_5 C 0.1337(8) 0.9070(8) 0.3622(10)
H15_5 H 0.1607 0.9137 0.3627
H16_5 H 0.1240 0.9414 0.3733
H17_5 H 0.1134 0.8949 0.3198
C13_5 C 0.1384(6) 0.8628(8) 0.4090(9)
N13_5 N 0.0603(4) 0.8942(5) 0.4932(7)
N14_5 N 0.0883(4) 0.8580(5) 0.5376(6)
C14_5 C 0.1739(5) 0.8273(7) 0.4466(8)
N15_5 N 0.1176(4) 0.8001(5) 0.4625(6)
C15_5 C 0.1580(5) 0.7902(6) 0.4778(7)
N16_5 N 0.1054(4) 0.8445(6) 0.4188(7)
C16_5 C 0.1809(5) 0.7438(8) 0.5235(10)
H18_5 H 0.2096 0.7420 0.5295
H19_5 H 0.1669 0.7083 0.5063
H20_5 H 0.1811 0.7510 0.5642
C17_5 C 0.2168(6) 0.8299(8) 0.4512(9)
H21_5 H 0.2334 0.7984 0.4776
H22_5 H 0.2145 0.8248 0.4083
C18_5 C 0.2408(5) 0.8841(7) 0.4793(8)
C19_5 C 0.2464(4) 0.9116(6) 0.5368(7)
C20_5 C 0.2630(6) 0.9165(7) 0.4562(8)
C21_5 C 0.2697(8) 0.9060(10) 0.3968(11)
H23_5 H 0.2555 0.8716 0.3759
H24_5 H 0.2996 0.9025 0.4098
H25_5 H 0.2583 0.9373 0.3674
C22_5 C 0.2309(5) 0.8918(6) 0.5840(7)
H26_5 H 0.2150 0.8573 0.5685
H27_5 H 0.2130 0.9205 0.5883
H28_5 H 0.2548 0.8851 0.6253
C23_5 C 0.4350(4) 0.8226(6) 0.5898(7)
C24_5 C 0.4408(5) 0.8814(6) 0.5919(7)
C25_5 C 0.4378(5) 0.8955(6) 0.5312(8)
C26_5 C 0.4438(6) 0.9523(7) 0.5075(9)
H29_5 H 0.4487 0.9805 0.5399
H30_5 H 0.4188 0.9619 0.4686
H31_5 H 0.4679 0.9507 0.4989
C27_5 C 0.4502(5) 0.9217(6) 0.6463(8)
H32_5 H 0.4562 0.8998 0.6848
H33_5 H 0.4758 0.9427 0.6544
C28_5 C 0.4375(6) 0.7857(7) 0.6433(9)
H34_5 H 0.4430 0.8086 0.6804
H35_5 H 0.4601 0.7586 0.6542
H36_5 H 0.4110 0.7659 0.6298
C29_5 C 0.3739(4) 0.9525(6) 0.6246(7)
O30_5 O 0.0130(3) 0.7946(4) 0.4534(5)
C30_5 C 0.4152(4) 0.9638(6) 0.6354(7)
C33_5 C 0.3559(5) 0.8952(6) 0.6220(9)
H40_5 H 0.3771 0.8670 0.6285
H41_5 H 0.3318 0.8896 0.5805
H42_5 H 0.3471 0.8918 0.6553
C34_5 C 0.1181(5) 0.8907(6) 0.5819(8)
C35_5 C 0.1098(5) 0.9476(7) 0.5647(9)
C36_5 C 0.0721(6) 0.9489(7) 0.5071(11)
C37_5 C 0.1539(5) 0.8648(8) 0.6390(8)
H43_5 H 0.1722 0.8943 0.6659
H44_5 H 0.1696 0.8402 0.6249
H45_5 H 0.1429 0.8433 0.6632
C39_5 C 0.0436(8) 0.9949(8) 0.4650(14)
H49_5 H 0.0165 0.9928 0.4653
H50_5 H 0.0396 0.9900 0.4216
H53_5 H 0.1654 0.9883 0.4956
H54_5 H 0.1811 0.9985 0.7404
H56_5 H 0.2289 0.9797 0.7727
N17_3 N 0.0820(4) 0.7525(5) 0.5898(6)
H60_5 H 0.296102 0.99265 0.488677
H62_5 H 0.427503 0.846588 0.452144
H63_5 H 0.0756351 0.861221 0.396908
H64_5 H 0.0334783 0.881507 0.453926
W1_4 W 0.88006(2) 0.69688(2) 0.54074(3)
Si1_5 Si 0.86110(11) 0.71259(15) 0.37905(17)
O1_5 O 0.8440(3) 0.7578(4) 0.3196(4)
O2_5 O 0.8305(3) 0.6567(4) 0.3580(4)
W2_5 W 0.81982(2) 0.59820(2) 0.27075(3)
O3_5 O 0.8594(3) 0.7429(4) 0.4405(4)
W3_5 W 0.79794(2) 0.77787(3) 0.44218(3)
O4_5 O 0.9094(3) 0.6943(4) 0.3971(4)
W4_5 W 0.83920(2) 0.73755(2) 0.21707(3)
W5_5 W 0.95085(2) 0.63086(2) 0.48123(3)
O5_5 O 0.9277(3) 0.8032(4) 0.3629(5)
W6_5 W 0.87501(2) 0.84626(2) 0.32169(3)
O6_5 O 0.8793(3) 0.6045(4) 0.3032(4)
W7_5 W 0.93001(2) 0.64783(2) 0.32630(3)
O7_5 O 0.8991(3) 0.5866(4) 0.4483(5)
W8_5 W 0.84109(2) 0.57720(2) 0.42461(3)
O8_5 O 0.7562(3) 0.7244(4) 0.2783(5)
W9_5 W 0.96620(2) 0.75713(2) 0.42940(3)
O9_5 O 0.9698(3) 0.7095(4) 0.3667(5)
W10_5 W 0.89786(2) 0.82381(2) 0.49215(3)
O10_5 O 0.7721(3) 0.7095(4) 0.3973(5)
W11_5 W 0.75729(2) 0.65757(3) 0.32711(3)
O11_5 O 0.8300(3) 0.5474(4) 0.3426(5)
W12_5 W 0.77581(2) 0.79776(3) 0.27196(3)
O12_5 O 0.8418(3) 0.8350(4) 0.4816(5)
O13_5 O 0.8800(3) 0.8525(4) 0.4077(5)
O14_5 O 0.9576(3) 0.6084(4) 0.4072(4)
O15_5 O 0.9863(3) 0.6951(4) 0.4891(4)
O16_4 O 0.9063(3) 0.7709(4) 0.5593(4)
O17_5 O 0.8933(3) 0.7024(4) 0.2642(4)
O18_5 O 0.7864(3) 0.7731(4) 0.2022(5)
O19_5 O 0.8165(3) 0.8592(4) 0.2863(5)
O20_5 O 0.8498(3) 0.6335(4) 0.4892(4)
O21_5 O 0.7809(3) 0.5971(4) 0.3873(5)
O22_5 O 0.9434(3) 0.7887(4) 0.4827(4)
O23_4 O 0.8270(3) 0.7342(4) 0.5195(5)
O24_4 O 0.9270(3) 0.6700(4) 0.5291(4)
O25_5 O 0.8660(3) 0.8100(4) 0.2423(5)
O26_5 O 0.7644(3) 0.6123(4) 0.2646(5)
O27_5 O 0.7854(3) 0.8077(4) 0.3589(5)
O28_5 O 0.8163(3) 0.6678(4) 0.2278(4)
O29_4 O 0.9229(3) 0.8813(4) 0.5389(5)
O31_4 O 0.9870(3) 0.5874(4) 0.5384(5)
O32_4 O 0.8929(3) 0.6719(4) 0.6170(5)
O33_5 O 0.8320(3) 0.7318(4) 0.1404(5)
O34_5 O 0.8925(3) 0.9104(4) 0.3110(5)
O35_5 O 0.8403(3) 0.5161(4) 0.4646(5)
O36_5 O 0.7043(3) 0.6468(4) 0.3033(6)
O37_5 O 0.7584(3) 0.8086(5) 0.4537(5)
O38_5 O 0.7301(3) 0.8350(5) 0.2321(5)
O39_5 O 0.9525(3) 0.6148(4) 0.2839(5)
Si1_6 Si 0.13890(11) 0.71259(15) 0.12095(17)
O1_6 O 0.1560(3) 0.7578(4) 0.1804(4)
O2_6 O 0.1695(3) 0.6567(4) 0.1420(4)
W2_6 W 0.18018(2) 0.59820(2) 0.22925(3)
O3_6 O 0.1406(3) 0.7429(4) 0.0595(4)
W3_6 W 0.20206(2) 0.77787(3) 0.05782(3)
O4_6 O 0.0906(3) 0.6943(4) 0.1029(4)
W4_6 W 0.16080(2) 0.73755(2) 0.28293(3)
W5_6 W 0.04915(2) 0.63086(2) 0.01877(3)
O5_6 O 0.0723(3) 0.8032(4) 0.1371(5)
W6_6 W 0.12499(2) 0.84626(2) 0.17831(3)
O6_6 O 0.1207(3) 0.6045(4) 0.1968(4)
W7_6 W 0.06999(2) 0.64783(2) 0.17370(3)
O7_6 O 0.1009(3) 0.5866(4) 0.0517(5)
W8_6 W 0.15891(2) 0.57720(2) 0.07539(3)
O8_6 O 0.2438(3) 0.7244(4) 0.2217(5)
W9_6 W 0.03380(2) 0.75713(2) 0.07060(3)
O9_6 O 0.0302(3) 0.7095(4) 0.1333(5)
W10_6 W 0.10214(2) 0.82381(2) 0.00785(3)
O10_6 O 0.2279(3) 0.7095(4) 0.1027(5)
W11_6 W 0.24271(2) 0.65757(3) 0.17289(3)
O11_6 O 0.1700(3) 0.5474(4) 0.1574(5)
W12_6 W 0.22419(2) 0.79776(3) 0.22804(3)
O12_6 O 0.1582(3) 0.8350(4) 0.0184(5)
O13_6 O 0.1200(3) 0.8525(4) 0.0923(5)
O14_6 O 0.0424(3) 0.6084(4) 0.0928(4)
O15_6 O 0.0137(3) 0.6951(4) 0.0109(4)
O17_6 O 0.1067(3) 0.7024(4) 0.2358(4)
O18_6 O 0.2136(3) 0.7731(4) 0.2978(5)
O19_6 O 0.1835(3) 0.8592(4) 0.2137(5)
O20_6 O 0.1502(3) 0.6335(4) 0.0108(4)
O21_6 O 0.2191(3) 0.5971(4) 0.1127(5)
O22_6 O 0.0566(3) 0.7887(4) 0.0173(4)
O25_6 O 0.1340(3) 0.8100(4) 0.2577(5)
O26_6 O 0.2356(3) 0.6123(4) 0.2354(5)
O27_6 O 0.2146(3) 0.8077(4) 0.1411(5)
O28_6 O 0.1837(3) 0.6678(4) 0.2722(4)
O33_6 O 0.1680(3) 0.7318(4) 0.3596(5)
O34_6 O 0.1075(3) 0.9104(4) 0.1890(5)
O35_6 O 0.1597(3) 0.5161(4) 0.0354(5)
O36_6 O 0.2957(3) 0.6468(4) 0.1967(6)
O37_6 O 0.2416(3) 0.8086(5) 0.0463(5)
O38_6 O 0.2699(3) 0.8350(5) 0.2679(5)
O39_6 O 0.0475(3) 0.6148(4) 0.2161(5)
C1_6 C 0.5457(5) 0.2485(7) 0.6470(7)
N1_4 N 0.5820(4) 0.2525(5) 0.5898(6)
C2_6 C 0.5749(4) 0.2038(6) 0.6672(7)
N2_6 N 0.5503(4) 0.2752(5) 0.6000(6)
C3_6 C 0.5981(4) 0.2090(7) 0.6321(7)
N3_6 N 0.6895(4) 0.1308(5) 0.8349(6)
N4_6 N 0.6758(4) 0.0760(5) 0.8144(6)
C4_6 C 0.5125(7) 0.2647(10) 0.6668(10)
H1_6 H 0.5146 0.2404 0.7013
H2_4 H 0.4848 0.2607 0.6306
H3_6 H 0.5167 0.3035 0.6813
C5_6 C 0.6356(6) 0.1738(9) 0.6381(9)
H4_6 H 0.6419 0.1453 0.6707
H5_6 H 0.6599 0.1980 0.6499
H6_6 H 0.6287 0.1559 0.5974
C6_6 C 0.5793(5) 0.1609(7) 0.7184(9)
H7_6 H 0.5610 0.1288 0.6971
H8_6 H 0.5689 0.1781 0.7464
C7_6 C 0.6577(5) 0.1690(6) 0.8034(7)
C8_6 C 0.6231(5) 0.1388(6) 0.7597(7)
N9_6 N 0.6197(4) 0.0434(5) 0.8760(6)
C9_6 C 0.6350(4) 0.0806(6) 0.7682(7)
N10_6 N 0.6475(4) 0.0008(5) 0.8827(6)
C10_6 C 0.6639(6) 0.2307(7) 0.8166(10)
H9_6 H 0.6379 0.2505 0.7898
H10_6 H 0.6862 0.2441 0.8073
H11_6 H 0.6715 0.2377 0.8612
C11_6 C 0.6097(5) 0.0313(7) 0.7322(8)
H12_6 H 0.5817 0.0437 0.7019
H13_6 H 0.6075 0.0047 0.7619
H14_6 H 0.6233 0.0133 0.7095
N11_6 N 0.7560(5) 0.0311(7) 0.8193(7)
N12_6 N 0.7616(4) 0.0349(6) 0.8830(6)
C31_6 C 0.5818(4) 0.0219(6) 0.8648(7)
C32_6 C 0.5447(5) 0.0617(6) 0.8517(8)
H37_6 H 0.5200 0.0397 0.8447
H38_6 H 0.5386 0.0842 0.8141
H39_6 H 0.5520 0.0862 0.8883
C38_6 C 0.8678(6) 0.0009(8) 0.8995(13)
H46_6 H 0.8697 0.0016 0.8592
H47_6 H 0.8841 0.0330 0.9248
C40_6 C 0.7897(6) 0.0169(9) 0.8148(11)
C41_6 C 0.8232(5) 0.0112(7) 0.8837(10)
C42_6 C 0.8027(5) 0.0219(8) 0.9183(10)
C43_6 C 0.8217(6) 0.0243(8) 0.9868(9)
C44_6 C 0.7907(9) 0.0091(12) 0.7518(12)
H55_6 H 0.7828 0.0440 0.7278
O41_6 O 0.7183(4) 0.0918(5) 0.9728(6)
H57_6 H 0.719272 0.141152 0.868875
H58_6 H 0.53217 0.308644 0.574781
H59_6 H 0.626681 0.0854765 0.879052
H61_6 H 0.727721 0.0389093 0.780111
H65_6 H 0.736171 0.122889 0.969362
N5_6 N 0.7210(5) 0.9610(6) 0.0046(7)
N8_6 N 0.5694(4) 0.8486(5) 0.0023(7)
C12_6 C 0.8663(8) 0.9070(8) 0.1378(10)
H15_6 H 0.8393 0.9137 0.1373
H16_6 H 0.8760 0.9414 0.1267
H17_6 H 0.8866 0.8949 0.1802
C13_6 C 0.8616(6) 0.8628(8) 0.0910(9)
N13_6 N 0.9397(4) 0.8942(5) 0.0068(7)
C14_6 C 0.8261(5) 0.8273(7) 0.0534(8)
N15_6 N 0.8824(4) 0.8001(5) 0.0375(6)
C15_6 C 0.8420(5) 0.7902(6) 0.0222(7)
N16_6 N 0.8946(4) 0.8445(6) 0.0812(7)
C17_6 C 0.7832(6) 0.8299(8) 0.0488(9)
H21_6 H 0.7666 0.7984 0.0224
H22_6 H 0.7855 0.8248 0.0917
C18_6 C 0.7592(5) 0.8841(7) 0.0207(8)
C20_6 C 0.7370(6) 0.9165(7) 0.0438(8)
C21_6 C 0.7303(8) 0.9060(10) 0.1032(11)
H23_6 H 0.7445 0.8716 0.1241
H24_6 H 0.7004 0.9025 0.0902
H25_6 H 0.7417 0.9373 0.1326
H30_6 H 0.5812 0.9619 0.0314
H31_6 H 0.5321 0.9507 0.0011
O30_6 O 0.9870(3) 0.7946(4) 0.0466(5)
C39_6 C 0.9564(8) 0.9949(8) 0.0350(14)
H49_6 H 0.9835 0.9928 0.0347
H50_6 H 0.9604 0.9900 0.0784
H53_6 H 0.8346 0.9883 0.0044
H60_6 H 0.703898 0.99265 0.0113234
H62_6 H 0.572497 0.846588 0.0478558
H63_6 H 0.924365 0.861221 0.103092
H64_6 H 0.966522 0.881507 0.0460736
N6_6 N 0.7306(4) 0.9583(5) 0.9548(6)
N14_6 N 0.9117(4) 0.8580(5) 0.9624(6)
C16_6 C 0.8191(5) 0.7438(8) 0.9765(10)
H18_6 H 0.7904 0.7420 0.9705
H19_6 H 0.8331 0.7083 0.9937
H20_6 H 0.8189 0.7510 0.9358
C19_6 C 0.7536(4) 0.9116(6) 0.9632(7)
C22_6 C 0.7691(5) 0.8918(6) 0.9160(7)
H26_6 H 0.7850 0.8573 0.9315
H27_6 H 0.7870 0.9205 0.9117
H28_6 H 0.7452 0.8851 0.8747
C23_6 C 0.5650(4) 0.8226(6) 0.9102(7)
C24_6 C 0.5592(5) 0.8814(6) 0.9081(7)
C25_6 C 0.5622(5) 0.8955(6) 0.9688(8)
C26_6 C 0.5562(6) 0.9523(7) 0.9925(9)
H29_6 H 0.5513 0.9805 0.9601
C27_6 C 0.5498(5) 0.9217(6) 0.8537(8)
H32_6 H 0.5438 0.8998 0.8152
H33_6 H 0.5242 0.9427 0.8456
C28_6 C 0.5625(6) 0.7857(7) 0.8567(9)
H34_6 H 0.5570 0.8086 0.8196
H35_6 H 0.5399 0.7586 0.8458
H36_6 H 0.5890 0.7659 0.8702
C29_6 C 0.6261(4) 0.9525(6) 0.8754(7)
C30_6 C 0.5848(4) 0.9638(6) 0.8646(7)
C33_6 C 0.6441(5) 0.8952(6) 0.8780(9)
H40_6 H 0.6229 0.8670 0.8715
H41_6 H 0.6682 0.8896 0.9195
H42_6 H 0.6529 0.8918 0.8447
C34_6 C 0.8819(5) 0.8907(6) 0.9181(8)
C35_6 C 0.8902(5) 0.9476(7) 0.9353(9)
C36_6 C 0.9279(6) 0.9489(7) 0.9929(11)
C37_6 C 0.8461(5) 0.8648(8) 0.8610(8)
H43_6 H 0.8278 0.8943 0.8341
H44_6 H 0.8304 0.8402 0.8751
H45_6 H 0.8571 0.8433 0.8368
H54_6 H 0.8189 0.9985 0.7596
H56_6 H 0.7711 0.9797 0.7273
N17_4 N 0.9180(4) 0.7525(5) 0.9102(6)
W1_5 W 0.38006(2) 0.19688(2) 0.54074(3)
Si1_7 Si 0.36110(11) 0.21259(15) 0.37905(17)
O1_7 O 0.3440(3) 0.2578(4) 0.3196(4)
C1_7 C 0.9543(5) 0.7485(7) 0.8530(7)
O2_7 O 0.3305(3) 0.1567(4) 0.3580(4)
W2_7 W 0.31982(2) 0.09820(2) 0.27075(3)
C2_7 C 0.9251(4) 0.7038(6) 0.8328(7)
N2_7 N 0.9497(4) 0.7752(5) 0.9000(6)
O3_7 O 0.3594(3) 0.2429(4) 0.4405(4)
W3_7 W 0.29794(2) 0.27787(3) 0.44218(3)
C3_7 C 0.9019(4) 0.7090(7) 0.8679(7)
N3_7 N 0.8105(4) 0.6308(5) 0.6651(6)
N4_7 N 0.8242(4) 0.5760(5) 0.6856(6)
O4_7 O 0.4094(3) 0.1943(4) 0.3971(4)
W4_7 W 0.33920(2) 0.23755(2) 0.21707(3)
C4_7 C 0.9875(7) 0.7647(10) 0.8332(10)
H1_7 H 0.9854 0.7404 0.7987
H3_7 H 0.9833 0.8035 0.8187
W5_7 W 0.45085(2) 0.13086(2) 0.48123(3)
C5_7 C 0.8644(6) 0.6738(9) 0.8619(9)
H4_7 H 0.8581 0.6453 0.8293
H5_7 H 0.8401 0.6980 0.8501
H6_7 H 0.8713 0.6559 0.9026
N5_7 N 0.7790(5) 0.4610(6) 0.4954(7)
O5_7 O 0.4277(3) 0.3032(4) 0.3629(5)
N6_7 N 0.7694(4) 0.4583(5) 0.5452(6)
W6_7 W 0.37501(2) 0.34626(2) 0.32169(3)
C6_7 C 0.9207(5) 0.6609(7) 0.7816(9)
H7_7 H 0.9390 0.6288 0.8029
H8_7 H 0.9311 0.6781 0.7536
O6_7 O 0.3793(3) 0.1045(4) 0.3032(4)
W7_7 W 0.43001(2) 0.14783(2) 0.32630(3)
C7_7 C 0.8423(5) 0.6690(6) 0.6966(7)
O7_7 O 0.3991(3) 0.0866(4) 0.4483(5)
W8_7 W 0.34109(2) 0.07720(2) 0.42461(3)
C8_7 C 0.8769(5) 0.6388(6) 0.7403(7)
N8_7 N 0.9306(4) 0.3486(5) 0.4977(7)
O8_7 O 0.2562(3) 0.2244(4) 0.2783(5)
N9_7 N 0.8803(4) 0.5434(5) 0.6240(6)
W9_7 W 0.46620(2) 0.25713(2) 0.42940(3)
C9_7 C 0.8650(4) 0.5806(6) 0.7318(7)
O9_7 O 0.4698(3) 0.2095(4) 0.3667(5)
N10_7 N 0.8525(4) 0.5008(5) 0.6173(6)
W10_7 W 0.39786(2) 0.32381(2) 0.49215(3)
C10_7 C 0.8361(6) 0.7307(7) 0.6834(10)
H9_7 H 0.8621 0.7505 0.7102
H10_7 H 0.8138 0.7441 0.6927
H11_7 H 0.8285 0.7377 0.6388
O10_7 O 0.2721(3) 0.2095(4) 0.3973(5)
W11_7 W 0.25729(2) 0.15757(3) 0.32711(3)
C11_7 C 0.8903(5) 0.5313(7) 0.7678(8)
H12_7 H 0.9183 0.5437 0.7981
H13_7 H 0.8925 0.5047 0.7381
H14_7 H 0.8767 0.5133 0.7905
N11_7 N 0.7440(5) 0.5311(7) 0.6807(7)
O11_7 O 0.3300(3) 0.0474(4) 0.3426(5)
N12_7 N 0.7384(4) 0.5349(6) 0.6170(6)
W12_7 W 0.27581(2) 0.29776(3) 0.27196(3)
C12_7 C 0.6337(8) 0.4070(8) 0.3622(10)
H15_7 H 0.6607 0.4137 0.3627
H16_7 H 0.6240 0.4414 0.3733
H17_7 H 0.6134 0.3949 0.3198
O12_7 O 0.3418(3) 0.3350(4) 0.4816(5)
C13_7 C 0.6384(6) 0.3628(8) 0.4090(9)
N13_7 N 0.5603(4) 0.3942(5) 0.4932(7)
O13_7 O 0.3800(3) 0.3525(4) 0.4077(5)
N14_7 N 0.5883(4) 0.3580(5) 0.5376(6)
C14_7 C 0.6739(5) 0.3273(7) 0.4466(8)
O14_7 O 0.4576(3) 0.1084(4) 0.4072(4)
N15_7 N 0.6176(4) 0.3001(5) 0.4625(6)
C15_7 C 0.6580(5) 0.2902(6) 0.4778(7)
O15_7 O 0.4863(3) 0.1951(4) 0.4891(4)
N16_7 N 0.6054(4) 0.3445(6) 0.4188(7)
C16_7 C 0.6809(5) 0.2438(8) 0.5235(10)
H18_7 H 0.7096 0.2420 0.5295
H19_7 H 0.6669 0.2083 0.5063
H20_7 H 0.6811 0.2510 0.5642
O16_5 O 0.4063(3) 0.2709(4) 0.5593(4)
C17_7 C 0.7168(6) 0.3299(8) 0.4512(9)
H21_7 H 0.7334 0.2984 0.4776
H22_7 H 0.7145 0.3248 0.4083
O17_7 O 0.3933(3) 0.2024(4) 0.2642(4)
C18_7 C 0.7408(5) 0.3841(7) 0.4793(8)
O18_7 O 0.2864(3) 0.2731(4) 0.2022(5)
C19_7 C 0.7464(4) 0.4116(6) 0.5368(7)
O19_7 O 0.3165(3) 0.3592(4) 0.2863(5)
C20_7 C 0.7630(6) 0.4165(7) 0.4562(8)
O20_7 O 0.3498(3) 0.1335(4) 0.4892(4)
C21_7 C 0.7697(8) 0.4060(10) 0.3968(11)
H23_7 H 0.7555 0.3716 0.3759
H24_7 H 0.7996 0.4025 0.4098
H25_7 H 0.7583 0.4373 0.3674
O21_7 O 0.2809(3) 0.0971(4) 0.3873(5)
C22_7 C 0.7309(5) 0.3918(6) 0.5840(7)
H26_7 H 0.7150 0.3573 0.5685
H27_7 H 0.7130 0.4205 0.5883
H28_7 H 0.7548 0.3851 0.6253
O22_7 O 0.4434(3) 0.2887(4) 0.4827(4)
C23_7 C 0.9350(4) 0.3226(6) 0.5898(7)
O23_5 O 0.3270(3) 0.2342(4) 0.5195(5)
C24_7 C 0.9408(5) 0.3814(6) 0.5919(7)
O24_5 O 0.4270(3) 0.1700(4) 0.5291(4)
C25_7 C 0.9378(5) 0.3955(6) 0.5312(8)
O25_7 O 0.3660(3) 0.3100(4) 0.2423(5)
C26_7 C 0.9438(6) 0.4523(7) 0.5075(9)
H29_7 H 0.9487 0.4805 0.5399
H30_7 H 0.9188 0.4619 0.4686
H31_7 H 0.9679 0.4507 0.4989
O26_7 O 0.2644(3) 0.1123(4) 0.2646(5)
O27_7 O 0.2854(3) 0.3077(4) 0.3589(5)
C27_7 C 0.9502(5) 0.4217(6) 0.6463(8)
H32_7 H 0.9562 0.3998 0.6848
H33_7 H 0.9758 0.4427 0.6544
O28_7 O 0.3163(3) 0.1678(4) 0.2278(4)
C28_7 C 0.9375(6) 0.2857(7) 0.6433(9)
H34_7 H 0.9430 0.3086 0.6804
H35_7 H 0.9601 0.2586 0.6542
H36_7 H 0.9110 0.2659 0.6298
O29_5 O 0.4229(3) 0.3813(4) 0.5389(5)
C29_7 C 0.8739(4) 0.4525(6) 0.6246(7)
O30_7 O 0.5130(3) 0.2946(4) 0.4534(5)
C30_7 C 0.9152(4) 0.4638(6) 0.6354(7)
O31_5 O 0.4870(3) 0.0874(4) 0.5384(5)
C31_7 C 0.9182(4) 0.5219(6) 0.6352(7)
O32_5 O 0.3929(3) 0.1719(4) 0.6170(5)
C32_7 C 0.9553(5) 0.5617(6) 0.6483(8)
H37_7 H 0.9800 0.5397 0.6553
H38_7 H 0.9614 0.5842 0.6859
H39_7 H 0.9480 0.5862 0.6117
O33_7 O 0.3320(3) 0.2318(4) 0.1404(5)
C33_7 C 0.8559(5) 0.3952(6) 0.6220(9)
H40_7 H 0.8771 0.3670 0.6285
H41_7 H 0.8318 0.3896 0.5805
H42_7 H 0.8471 0.3918 0.6553
O34_7 O 0.3925(3) 0.4104(4) 0.3110(5)
C34_7 C 0.6181(5) 0.3907(6) 0.5819(8)
C35_7 C 0.6098(5) 0.4476(7) 0.5647(9)
O35_7 O 0.3403(3) 0.0161(4) 0.4646(5)
C36_7 C 0.5721(6) 0.4489(7) 0.5071(11)
O36_7 O 0.2043(3) 0.1468(4) 0.3033(6)
C37_7 C 0.6539(5) 0.3648(8) 0.6390(8)
H43_7 H 0.6722 0.3943 0.6659
H44_7 H 0.6696 0.3402 0.6249
H45_7 H 0.6429 0.3433 0.6632
O37_7 O 0.2584(3) 0.3086(5) 0.4537(5)
C38_7 C 0.6322(6) 0.5009(8) 0.6005(13)
H46_7 H 0.6303 0.5016 0.6408
H47_7 H 0.6159 0.5330 0.5752
O38_7 O 0.2301(3) 0.3350(5) 0.2321(5)
C39_7 C 0.5436(8) 0.4949(8) 0.4650(14)
H48_5 H 0.5564 0.5312 0.4811
H49_7 H 0.5165 0.4928 0.4653
H50_7 H 0.5396 0.4900 0.4216
O39_7 O 0.4525(3) 0.1148(4) 0.2839(5)
C40_7 C 0.7103(6) 0.5169(9) 0.6852(11)
C41_7 C 0.6768(5) 0.5112(7) 0.6163(10)
C42_7 C 0.6973(5) 0.5219(8) 0.5817(10)
C43_7 C 0.6783(6) 0.5243(8) 0.5132(9)
H51_5 H 0.6997 0.5327 0.4999
H52_5 H 0.6570 0.5535 0.4979
H53_7 H 0.6654 0.4883 0.4956
C44_7 C 0.7093(9) 0.5091(12) 0.7482(12)
H54_7 H 0.6811 0.4985 0.7404
H55_7 H 0.7172 0.5440 0.7722
H56_7 H 0.7289 0.4797 0.7727
O41_7 O 0.7817(4) 0.5918(5) 0.5272(6)
H57_7 H 0.780728 0.641152 0.631125
H58_7 H 0.96783 0.808644 0.925219
H59_7 H 0.873319 0.585477 0.620948
H60_7 H 0.796102 0.49265 0.488677
H61_7 H 0.772279 0.538909 0.719889
H62_7 H 0.927503 0.346588 0.452144
H63_7 H 0.575635 0.361221 0.396908
H64_7 H 0.533478 0.381507 0.453926
H65_7 H 0.763829 0.622889 0.530638
H66_5 H 0.766707 0.57366 0.483988
Si1_8 Si 0.63890(11) 0.21259(15) 0.12095(17)
O1_8 O 0.6560(3) 0.2578(4) 0.1804(4)
O2_8 O 0.6695(3) 0.1567(4) 0.1420(4)
W2_8 W 0.68018(2) 0.09820(2) 0.22925(3)
O3_8 O 0.6406(3) 0.2429(4) 0.0595(4)
W3_8 W 0.70206(2) 0.27787(3) 0.05782(3)
O4_8 O 0.5906(3) 0.1943(4) 0.1029(4)
W4_8 W 0.66080(2) 0.23755(2) 0.28293(3)
W5_8 W 0.54915(2) 0.13086(2) 0.01877(3)
N5_8 N 0.2210(5) 0.4610(6) 0.0046(7)
O5_8 O 0.5723(3) 0.3032(4) 0.1371(5)
W6_8 W 0.62499(2) 0.34626(2) 0.17831(3)
O6_8 O 0.6207(3) 0.1045(4) 0.1968(4)
W7_8 W 0.56999(2) 0.14783(2) 0.17370(3)
O7_8 O 0.6009(3) 0.0866(4) 0.0517(5)
W8_8 W 0.65891(2) 0.07720(2) 0.07539(3)
N8_8 N 0.0694(4) 0.3486(5) 0.0023(7)
O8_8 O 0.7438(3) 0.2244(4) 0.2217(5)
W9_8 W 0.53380(2) 0.25713(2) 0.07060(3)
O9_8 O 0.5302(3) 0.2095(4) 0.1333(5)
W10_8 W 0.60214(2) 0.32381(2) 0.00785(3)
O10_8 O 0.7279(3) 0.2095(4) 0.1027(5)
W11_8 W 0.74271(2) 0.15757(3) 0.17289(3)
O11_8 O 0.6700(3) 0.0474(4) 0.1574(5)
W12_8 W 0.72419(2) 0.29776(3) 0.22804(3)
C12_8 C 0.3663(8) 0.4070(8) 0.1378(10)
H15_8 H 0.3393 0.4137 0.1373
H16_8 H 0.3760 0.4414 0.1267
H17_8 H 0.3866 0.3949 0.1802
O12_8 O 0.6582(3) 0.3350(4) 0.0184(5)
C13_8 C 0.3616(6) 0.3628(8) 0.0910(9)
N13_8 N 0.4397(4) 0.3942(5) 0.0068(7)
O13_8 O 0.6200(3) 0.3525(4) 0.0923(5)
C14_8 C 0.3261(5) 0.3273(7) 0.0534(8)
O14_8 O 0.5424(3) 0.1084(4) 0.0928(4)
N15_8 N 0.3824(4) 0.3001(5) 0.0375(6)
C15_8 C 0.3420(5) 0.2902(6) 0.0222(7)
O15_8 O 0.5137(3) 0.1951(4) 0.0109(4)
N16_8 N 0.3946(4) 0.3445(6) 0.0812(7)
C17_8 C 0.2832(6) 0.3299(8) 0.0488(9)
H21_8 H 0.2666 0.2984 0.0224
H22_8 H 0.2855 0.3248 0.0917
O17_8 O 0.6067(3) 0.2024(4) 0.2358(4)
C18_8 C 0.2592(5) 0.3841(7) 0.0207(8)
O18_8 O 0.7136(3) 0.2731(4) 0.2978(5)
O19_8 O 0.6835(3) 0.3592(4) 0.2137(5)
C20_8 C 0.2370(6) 0.4165(7) 0.0438(8)
O20_8 O 0.6502(3) 0.1335(4) 0.0108(4)
C21_8 C 0.2303(8) 0.4060(10) 0.1032(11)
H23_8 H 0.2445 0.3716 0.1241
H24_8 H 0.2004 0.4025 0.0902
H25_8 H 0.2417 0.4373 0.1326
O21_8 O 0.7191(3) 0.0971(4) 0.1127(5)
O22_8 O 0.5566(3) 0.2887(4) 0.0173(4)
O25_8 O 0.6340(3) 0.3100(4) 0.2577(5)
H30_8 H 0.0812 0.4619 0.0314
H31_8 H 0.0321 0.4507 0.0011
O26_8 O 0.7356(3) 0.1123(4) 0.2354(5)
O27_8 O 0.7146(3) 0.3077(4) 0.1411(5)
O28_8 O 0.6837(3) 0.1678(4) 0.2722(4)
O30_8 O 0.4870(3) 0.2946(4) 0.0466(5)
O33_8 O 0.6680(3) 0.2318(4) 0.3596(5)
O34_8 O 0.6075(3) 0.4104(4) 0.1890(5)
O35_8 O 0.6597(3) 0.0161(4) 0.0354(5)
O36_8 O 0.7957(3) 0.1468(4) 0.1967(6)
O37_8 O 0.7416(3) 0.3086(5) 0.0463(5)
O38_8 O 0.7699(3) 0.3350(5) 0.2679(5)
C39_8 C 0.4564(8) 0.4949(8) 0.0350(14)
H48_6 H 0.4436 0.5312 0.0189
H49_8 H 0.4835 0.4928 0.0347
H50_8 H 0.4604 0.4900 0.0784
O39_8 O 0.5475(3) 0.1148(4) 0.2161(5)
H51_6 H 0.3003 0.5327 0.0001
H52_6 H 0.3430 0.5535 0.0021
H53_8 H 0.3346 0.4883 0.0044
H60_8 H 0.203898 0.49265 0.0113234
H62_8 H 0.072497 0.346588 0.0478558
H63_8 H 0.424365 0.361221 0.103092
H64_8 H 0.466522 0.381507 0.0460736
H66_6 H 0.233293 0.57366 0.0160124
W1_6 W 0.61994(2) 0.19688(2) 0.95926(3)
C1_8 C 0.0457(5) 0.7485(7) 0.6470(7)
C2_8 C 0.0749(4) 0.7038(6) 0.6672(7)
N2_8 N 0.0503(4) 0.7752(5) 0.6000(6)
C3_8 C 0.0981(4) 0.7090(7) 0.6321(7)
N3_8 N 0.1895(4) 0.6308(5) 0.8349(6)
N4_8 N 0.1758(4) 0.5760(5) 0.8144(6)
C4_8 C 0.0125(7) 0.7647(10) 0.6668(10)
H1_8 H 0.0146 0.7404 0.7013
H3_8 H 0.0167 0.8035 0.6813
C5_8 C 0.1356(6) 0.6738(9) 0.6381(9)
H4_8 H 0.1419 0.6453 0.6707
H5_8 H 0.1599 0.6980 0.6499
H6_8 H 0.1287 0.6559 0.5974
N6_8 N 0.2306(4) 0.4583(5) 0.9548(6)
C6_8 C 0.0793(5) 0.6609(7) 0.7184(9)
H7_8 H 0.0610 0.6288 0.6971
H8_8 H 0.0689 0.6781 0.7464
C7_8 C 0.1577(5) 0.6690(6) 0.8034(7)
C8_8 C 0.1231(5) 0.6388(6) 0.7597(7)
N9_8 N 0.1197(4) 0.5434(5) 0.8760(6)
C9_8 C 0.1350(4) 0.5806(6) 0.7682(7)
N10_8 N 0.1475(4) 0.5008(5) 0.8827(6)
C10_8 C 0.1639(6) 0.7307(7) 0.8166(10)
H9_8 H 0.1379 0.7505 0.7898
H10_8 H 0.1862 0.7441 0.8073
H11_8 H 0.1715 0.7377 0.8612
C11_8 C 0.1097(5) 0.5313(7) 0.7322(8)
H12_8 H 0.0817 0.5437 0.7019
H13_8 H 0.1075 0.5047 0.7619
H14_8 H 0.1233 0.5133 0.7095
N11_8 N 0.2560(5) 0.5311(7) 0.8193(7)
N12_8 N 0.2616(4) 0.5349(6) 0.8830(6)
N14_8 N 0.4117(4) 0.3580(5) 0.9624(6)
C16_8 C 0.3191(5) 0.2438(8) 0.9765(10)
H18_8 H 0.2904 0.2420 0.9705
H19_8 H 0.3331 0.2083 0.9937
H20_8 H 0.3189 0.2510 0.9358
O16_6 O 0.5937(3) 0.2709(4) 0.9407(4)
C19_8 C 0.2536(4) 0.4116(6) 0.9632(7)
C22_8 C 0.2691(5) 0.3918(6) 0.9160(7)
H26_8 H 0.2850 0.3573 0.9315
H27_8 H 0.2870 0.4205 0.9117
H28_8 H 0.2452 0.3851 0.8747
C23_8 C 0.0650(4) 0.3226(6) 0.9102(7)
O23_6 O 0.6730(3) 0.2342(4) 0.9805(5)
C24_8 C 0.0592(5) 0.3814(6) 0.9081(7)
O24_6 O 0.5730(3) 0.1700(4) 0.9709(4)
C25_8 C 0.0622(5) 0.3955(6) 0.9688(8)
C26_8 C 0.0562(6) 0.4523(7) 0.9925(9)
H29_8 H 0.0513 0.4805 0.9601
C27_8 C 0.0498(5) 0.4217(6) 0.8537(8)
H32_8 H 0.0438 0.3998 0.8152
H33_8 H 0.0242 0.4427 0.8456
C28_8 C 0.0625(6) 0.2857(7) 0.8567(9)
H34_8 H 0.0570 0.3086 0.8196
H35_8 H 0.0399 0.2586 0.8458
H36_8 H 0.0890 0.2659 0.8702
O29_6 O 0.5771(3) 0.3813(4) 0.9611(5)
C29_8 C 0.1261(4) 0.4525(6) 0.8754(7)
C30_8 C 0.0848(4) 0.4638(6) 0.8646(7)
O31_6 O 0.5130(3) 0.0874(4) 0.9616(5)
C31_8 C 0.0818(4) 0.5219(6) 0.8648(7)
O32_6 O 0.6071(3) 0.1719(4) 0.8830(5)
C32_8 C 0.0447(5) 0.5617(6) 0.8517(8)
H37_8 H 0.0200 0.5397 0.8447
H38_8 H 0.0386 0.5842 0.8141
H39_8 H 0.0520 0.5862 0.8883
C33_8 C 0.1441(5) 0.3952(6) 0.8780(9)
H40_8 H 0.1229 0.3670 0.8715
H41_8 H 0.1682 0.3896 0.9195
H42_8 H 0.1529 0.3918 0.8447
C34_8 C 0.3819(5) 0.3907(6) 0.9181(8)
C35_8 C 0.3902(5) 0.4476(7) 0.9353(9)
C36_8 C 0.4279(6) 0.4489(7) 0.9929(11)
C37_8 C 0.3461(5) 0.3648(8) 0.8610(8)
H43_8 H 0.3278 0.3943 0.8341
H44_8 H 0.3304 0.3402 0.8751
H45_8 H 0.3571 0.3433 0.8368
C38_8 C 0.3678(6) 0.5009(8) 0.8995(13)
H46_8 H 0.3697 0.5016 0.8592
H47_8 H 0.3841 0.5330 0.9248
C40_8 C 0.2897(6) 0.5169(9) 0.8148(11)
C41_8 C 0.3232(5) 0.5112(7) 0.8837(10)
C42_8 C 0.3027(5) 0.5219(8) 0.9183(10)
C43_8 C 0.3217(6) 0.5243(8) 0.9868(9)
C44_8 C 0.2907(9) 0.5091(12) 0.7518(12)
H54_8 H 0.3189 0.4985 0.7596
H55_8 H 0.2828 0.5440 0.7278
H56_8 H 0.2711 0.4797 0.7273
O41_8 O 0.2183(4) 0.5918(5) 0.9728(6)
H57_8 H 0.219272 0.641152 0.868875
H58_8 H 0.0321699 0.808644 0.574781
H59_8 H 0.126681 0.585477 0.879052
H61_8 H 0.227721 0.538909 0.780111
H65_8 H 0.236171 0.622889 0.969362
H48_7 H 0.0564 0.9688 0.9811
H51_7 H 0.1997 0.9673 0.9999
H52_7 H 0.1570 0.9465 0.9979
H66_7 H 0.266707 0.92634 0.983988
W1_7 W 0.88006(2) 0.30312(2) 0.04074(3)
O16_7 O 0.9063(3) 0.2291(4) 0.0593(4)
O23_7 O 0.8270(3) 0.2658(4) 0.0195(5)
O24_7 O 0.9270(3) 0.3300(4) 0.0291(4)
O29_7 O 0.9229(3) 0.1187(4) 0.0389(5)
O31_7 O 0.9870(3) 0.4126(4) 0.0384(5)
O32_7 O 0.8929(3) 0.3281(4) 0.1170(5)
H2_5 H 0.9848 0.2393 0.1306
H2_6 H 0.0152 0.2393 0.3694
W1_8 W 0.11994(2) 0.69688(2) 0.95926(3)
O16_8 O 0.0937(3) 0.7709(4) 0.9407(4)
O23_8 O 0.1730(3) 0.7342(4) 0.9805(5)
O24_8 O 0.0730(3) 0.6700(4) 0.9709(4)
O29_8 O 0.0771(3) 0.8813(4) 0.9611(5)
O31_8 O 0.0130(3) 0.5874(4) 0.9616(5)
O32_8 O 0.1071(3) 0.6719(4) 0.8830(5)
H48_8 H 0.9436 0.0312 0.0189
H51_8 H 0.8003 0.0327 0.0001
H52_8 H 0.8430 0.0535 0.0021
H66_8 H 0.733293 0.07366 0.0160124
H2_7 H 0.0152 0.7607 0.8694
H2_8 H 0.9848 0.7607 0.6306
loop_
_geom_bond_atom_site_label_1
_geom_bond_atom_site_label_2
_geom_bond_site_symmetry_1
_geom_bond_site_symmetry_2
W1 O3 1_555 1_555
Si1 O1 1_555 1_555
O1 W4 1_555 1_555
O2 Si1 1_555 1_555
W2 O2 1_555 1_555
O3 Si1 1_555 1_555
W3 O3 1_555 1_555
O4 Si1 1_555 1_555
W4 O17 1_555 1_555
W5 O4 1_555 1_555
O5 W6 1_555 1_555
W6 O1 1_555 1_555
O6 W2 1_555 1_555
W7 O4 1_555 1_555
O7 W5 1_555 1_555
W8 O2 1_555 1_555
O8 W11 1_555 1_555
W9 O4 1_555 1_555
O9 W7 1_555 1_555
W10 O3 1_555 1_555
O10 W3 1_555 1_555
W11 O2 1_555 1_555
O11 W2 1_555 1_555
W12 O1 1_555 1_555
O12 W3 1_555 1_555
O13 W6 1_555 1_555
O14 W5 1_555 1_555
O15 W5 1_555 1_555
O16 W1 1_555 1_555
O17 W7 1_555 1_555
O18 W4 1_555 1_555
O19 W6 1_555 1_555
O20 W1 1_555 1_555
O21 W8 1_555 1_555
O22 W9 1_555 1_555
O23 W1 1_555 1_555
O24 W1 1_555 1_555
O25 W4 1_555 1_555
O26 W2 1_555 1_555
O27 W3 1_555 1_555
O28 W2 1_555 1_555
O29 W10 1_555 1_555
O31 W5 1_555 1_555
O32 W1 1_555 1_555
O33 W4 1_555 1_555
O34 W6 1_555 1_555
O35 W8 1_555 1_555
O36 W11 1_555 1_555
O37 W3 1_555 1_555
O38 W12 1_555 1_555
O39 W7 1_555 1_555
O40 W2 1_555 1_555
Cu3 O40 1_555 1_555
W3 O23 1_555 1_555
W4 O28 1_555 1_555
W5 O24 1_555 1_555
O5 W9 1_555 1_555
W6 O25 1_555 1_555
O6 W7 1_555 1_555
W7 O14 1_555 1_555
O7 W8 1_555 1_555
W8 O11 1_555 1_555
W8 O20 1_555 1_555
O8 W12 1_555 1_555
W9 O9 1_555 1_555
W9 O15 1_555 1_555
W10 O12 1_555 1_555
W10 O13 1_555 1_555
W10 O16 1_555 1_555
W10 O22 1_555 1_555
O10 W11 1_555 1_555
W11 O21 1_555 1_555
W11 O26 1_555 1_555
W12 O18 1_555 1_555
W12 O19 1_555 1_555
W12 O27 1_555 1_555
Cu2 N14 1_555 1_555
N5 N6 1_555 1_555
N7 N8 1_555 1_555
N8 C25 1_555 1_555
C12 H15 1_555 1_555
H16 C12 1_555 1_555
H17 C12 1_555 1_555
C13 C12 1_555 1_555
N13 N14 1_555 1_555
N14 C34 1_555 1_555
C14 C13 1_555 1_555
N15 Cu2 1_555 1_555
C15 C14 1_555 1_555
N16 C13 1_555 1_555
C16 C15 1_555 1_555
H18 C16 1_555 1_555
H19 C16 1_555 1_555
H20 C16 1_555 1_555
C17 C14 1_555 1_555
H21 C17 1_555 1_555
H22 C17 1_555 1_555
C18 C17 1_555 1_555
C19 N6 1_555 1_555
C20 N5 1_555 1_555
C21 C20 1_555 1_555
H23 C21 1_555 1_555
H24 C21 1_555 1_555
H25 C21 1_555 1_555
C22 C19 1_555 1_555
H26 C22 1_555 1_555
H27 C22 1_555 1_555
H28 C22 1_555 1_555
C23 N7 1_555 1_555
C24 C23 1_555 1_555
C25 C24 1_555 1_555
C26 C25 1_555 1_555
H29 C26 1_555 1_555
H30 C26 1_555 1_555
H31 C26 1_555 1_555
C27 C24 1_555 1_555
H32 C27 1_555 1_555
H33 C27 1_555 1_555
C28 C23 1_555 1_555
H34 C28 1_555 1_555
H35 C28 1_555 1_555
H36 C28 1_555 1_555
O30 Cu2 1_555 1_555
C30 C27 1_555 1_555
C33 C29 1_555 1_555
H40 C33 1_555 1_555
H41 C33 1_555 1_555
H42 C33 1_555 1_555
C34 C35 1_555 1_555
C35 C36 1_555 1_555
C36 N13 1_555 1_555
C37 C34 1_555 1_555
H43 C37 1_555 1_555
H44 C37 1_555 1_555
H45 C37 1_555 1_555
C39 C36 1_555 1_555
H49 C39 1_555 1_555
H50 C39 1_555 1_555
N17 Cu2 1_555 1_555
Cu5 N7 1_555 1_555
N18 Cu2 1_555 1_555
N15 C15 1_555 1_555
N15 N16 1_555 1_555
C18 C19 1_555 1_555
C18 C20 1_555 1_555
C29 C30 1_555 1_555
N5 H60 1_555 1_555
N8 H62 1_555 1_555
N16 H63 1_555 1_555
N13 H64 1_555 1_555
Cu1 N4 1_555 1_555
C1 C2 1_555 1_555
N1 N2 1_555 1_555
C2 C3 1_555 1_555
N2 C1 1_555 1_555
C3 N1 1_555 1_555
N3 N4 1_555 1_555
N4 C9 1_555 1_555
C4 C1 1_555 1_555
H1 C4 1_555 1_555
H2 C4 1_555 1_555
H3 C4 1_555 1_555
C5 C3 1_555 1_555
H4 C5 1_555 1_555
H5 C5 1_555 1_555
H6 C5 1_555 1_555
C6 C2 1_555 1_555
H7 C6 1_555 1_555
H8 C6 1_555 1_555
C7 N3 1_555 1_555
C8 C6 1_555 1_555
N9 N10 1_555 1_555
C9 C8 1_555 1_555
N10 Cu1 1_555 1_555
C10 C7 1_555 1_555
H9 C10 1_555 1_555
H10 C10 1_555 1_555
H11 C10 1_555 1_555
C11 C9 1_555 1_555
H12 C11 1_555 1_555
H13 C11 1_555 1_555
H14 C11 1_555 1_555
N11 N12 1_555 1_555
N12 Cu1 1_555 1_555
C31 N9 1_555 1_555
C32 C31 1_555 1_555
H37 C32 1_555 1_555
H38 C32 1_555 1_555
H39 C32 1_555 1_555
H46 C38 1_555 1_555
H47 C38 1_555 1_555
C40 N11 1_555 1_555
C41 C38 1_555 1_555
C42 N12 1_555 1_555
C43 C42 1_555 1_555
H51 C43 1_555 1_555
H52 C43 1_555 1_555
C44 C40 1_555 1_555
H55 C44 1_555 1_555
O41 Cu1 1_555 1_555
Cu4 N1 1_555 1_555
C7 C8 1_555 1_555
C40 C41 1_555 1_555
C41 C42 1_555 1_555
N3 H57 1_555 1_555
N2 H58 1_555 1_555
N9 H59 1_555 1_555
N11 H61 1_555 1_555
O41 H65 1_555 1_555
O41 H66 1_555 1_555
Cu2_2 N14_2 1_555 1_555
N14_2 C34_2 1_555 1_555
H18_2 C16_2 1_555 1_555
H19_2 C16_2 1_555 1_555
H20_2 C16_2 1_555 1_555
C19_2 N6_2 1_555 1_555
C22_2 C19_2 1_555 1_555
H26_2 C22_2 1_555 1_555
H27_2 C22_2 1_555 1_555
H28_2 C22_2 1_555 1_555
C23_2 N7_2 1_555 1_555
C24_2 C23_2 1_555 1_555
C25_2 C24_2 1_555 1_555
C26_2 C25_2 1_555 1_555
H29_2 C26_2 1_555 1_555
C27_2 C24_2 1_555 1_555
H32_2 C27_2 1_555 1_555
H33_2 C27_2 1_555 1_555
C28_2 C23_2 1_555 1_555
H34_2 C28_2 1_555 1_555
H35_2 C28_2 1_555 1_555
H36_2 C28_2 1_555 1_555
C30_2 C27_2 1_555 1_555
C33_2 C29_2 1_555 1_555
H40_2 C33_2 1_555 1_555
H41_2 C33_2 1_555 1_555
H42_2 C33_2 1_555 1_555
C34_2 C35_2 1_555 1_555
C35_2 C36_2 1_555 1_555
C37_2 C34_2 1_555 1_555
H43_2 C37_2 1_555 1_555
H44_2 C37_2 1_555 1_555
H45_2 C37_2 1_555 1_555
N17_2 Cu2_2 1_555 1_555
C29_2 C30_2 1_555 1_555
C12_2 H15_2 1_555 1_555
H16_2 C12_2 1_555 1_555
H17_2 C12_2 1_555 1_555
C13_2 C12_2 1_555 1_555
C14_2 C13_2 1_555 1_555
C15_2 C14_2 1_555 1_555
N16_2 C13_2 1_555 1_555
C17_2 C14_2 1_555 1_555
H21_2 C17_2 1_555 1_555
H22_2 C17_2 1_555 1_555
C18_2 C17_2 1_555 1_555
C20_2 N5_2 1_555 1_555
C21_2 C20_2 1_555 1_555
H23_2 C21_2 1_555 1_555
H24_2 C21_2 1_555 1_555
H25_2 C21_2 1_555 1_555
H49_2 C39_2 1_555 1_555
H50_2 C39_2 1_555 1_555
N15_2 C15_2 1_555 1_555
N15_2 N16_2 1_555 1_555
C18_2 C20_2 1_555 1_555
N5_2 H60_2 1_555 1_555
N8_2 H62_2 1_555 1_555
N16_2 H63_2 1_555 1_555
N13_2 H64_2 1_555 1_555
Cu1_2 N4_2 1_555 1_555
C1_2 C2_2 1_555 1_555
N1_2 N2_2 1_555 1_555
C2_2 C3_2 1_555 1_555
N2_2 C1_2 1_555 1_555
C3_2 N1_2 1_555 1_555
N3_2 N4_2 1_555 1_555
N4_2 C9_2 1_555 1_555
C4_2 C1_2 1_555 1_555
H1_2 C4_2 1_555 1_555
H2_2 C4_2 1_555 1_555
H3_2 C4_2 1_555 1_555
C5_2 C3_2 1_555 1_555
H4_2 C5_2 1_555 1_555
H5_2 C5_2 1_555 1_555
H6_2 C5_2 1_555 1_555
C6_2 C2_2 1_555 1_555
H7_2 C6_2 1_555 1_555
H8_2 C6_2 1_555 1_555
C7_2 N3_2 1_555 1_555
C8_2 C6_2 1_555 1_555
N9_2 N10_2 1_555 1_555
C9_2 C8_2 1_555 1_555
N10_2 Cu1_2 1_555 1_555
C10_2 C7_2 1_555 1_555
H9_2 C10_2 1_555 1_555
H10_2 C10_2 1_555 1_555
H11_2 C10_2 1_555 1_555
C11_2 C9_2 1_555 1_555
H12_2 C11_2 1_555 1_555
H13_2 C11_2 1_555 1_555
H14_2 C11_2 1_555 1_555
N11_2 N12_2 1_555 1_555
N12_2 Cu1_2 1_555 1_555
C31_2 N9_2 1_555 1_555
C32_2 C31_2 1_555 1_555
H37_2 C32_2 1_555 1_555
H38_2 C32_2 1_555 1_555
H39_2 C32_2 1_555 1_555
H46_2 C38_2 1_555 1_555
H47_2 C38_2 1_555 1_555
C40_2 N11_2 1_555 1_555
C41_2 C38_2 1_555 1_555
C42_2 N12_2 1_555 1_555
C43_2 C42_2 1_555 1_555
C44_2 C40_2 1_555 1_555
H55_2 C44_2 1_555 1_555
O41_2 Cu1_2 1_555 1_555
Cu4_2 N1_2 1_555 1_555
C7_2 C8_2 1_555 1_555
C40_2 C41_2 1_555 1_555
C41_2 C42_2 1_555 1_555
N3_2 H57_2 1_555 1_555
N2_2 H58_2 1_555 1_555
N9_2 H59_2 1_555 1_555
N11_2 H61_2 1_555 1_555
O41_2 H65_2 1_555 1_555
Si1_2 O1_2 1_555 1_555
O1_2 W4_2 1_555 1_555
O2_2 Si1_2 1_555 1_555
W2_2 O2_2 1_555 1_555
O3_2 Si1_2 1_555 1_555
W3_2 O3_2 1_555 1_555
O4_2 Si1_2 1_555 1_555
W4_2 O17_2 1_555 1_555
W5_2 O4_2 1_555 1_555
O5_2 W6_2 1_555 1_555
W6_2 O1_2 1_555 1_555
O6_2 W2_2 1_555 1_555
W7_2 O4_2 1_555 1_555
O7_2 W5_2 1_555 1_555
W8_2 O2_2 1_555 1_555
O8_2 W11_2 1_555 1_555
W9_2 O4_2 1_555 1_555
O9_2 W7_2 1_555 1_555
W10_2 O3_2 1_555 1_555
O10_2 W3_2 1_555 1_555
W11_2 O2_2 1_555 1_555
O11_2 W2_2 1_555 1_555
W12_2 O1_2 1_555 1_555
O12_2 W3_2 1_555 1_555
O13_2 W6_2 1_555 1_555
O14_2 W5_2 1_555 1_555
O15_2 W5_2 1_555 1_555
O17_2 W7_2 1_555 1_555
O18_2 W4_2 1_555 1_555
O19_2 W6_2 1_555 1_555
O21_2 W8_2 1_555 1_555
O22_2 W9_2 1_555 1_555
O25_2 W4_2 1_555 1_555
O26_2 W2_2 1_555 1_555
O27_2 W3_2 1_555 1_555
O28_2 W2_2 1_555 1_555
O33_2 W4_2 1_555 1_555
O34_2 W6_2 1_555 1_555
O35_2 W8_2 1_555 1_555
O36_2 W11_2 1_555 1_555
O37_2 W3_2 1_555 1_555
O38_2 W12_2 1_555 1_555
O39_2 W7_2 1_555 1_555
O40_2 W2_2 1_555 1_555
Cu3_2 O40_2 1_555 1_555
W4_2 O28_2 1_555 1_555
O5_2 W9_2 1_555 1_555
W6_2 O25_2 1_555 1_555
O6_2 W7_2 1_555 1_555
W7_2 O14_2 1_555 1_555
O7_2 W8_2 1_555 1_555
W8_2 O11_2 1_555 1_555
W8_2 O20_2 1_555 1_555
O8_2 W12_2 1_555 1_555
W9_2 O9_2 1_555 1_555
W9_2 O15_2 1_555 1_555
W10_2 O12_2 1_555 1_555
W10_2 O13_2 1_555 1_555
W10_2 O22_2 1_555 1_555
O10_2 W11_2 1_555 1_555
W11_2 O21_2 1_555 1_555
W11_2 O26_2 1_555 1_555
W12_2 O18_2 1_555 1_555
W12_2 O19_2 1_555 1_555
W12_2 O27_2 1_555 1_555
W1_2 O3_3 1_555 1_555
Cu1_3 N4_3 1_555 1_555
Si1_3 O1_3 1_555 1_555
O1_3 W4_3 1_555 1_555
C1_3 C2_3 1_555 1_555
N17_2 N2_3 1_555 1_555
O2_3 Si1_3 1_555 1_555
W2_3 O2_3 1_555 1_555
Cu4_2 N14_3 1_555 1_555
C2_3 C3_3 1_555 1_555
N2_3 C1_3 1_555 1_555
O3_3 Si1_3 1_555 1_555
W3_3 O3_3 1_555 1_555
C3_3 N17_2 1_555 1_555
N3_3 N4_3 1_555 1_555
N4_3 C9_3 1_555 1_555
O4_3 Si1_3 1_555 1_555
W4_3 O17_3 1_555 1_555
C4_3 C1_3 1_555 1_555
H1_3 C4_3 1_555 1_555
H3_3 C4_3 1_555 1_555
W5_3 O4_3 1_555 1_555
C5_3 C3_3 1_555 1_555
H4_3 C5_3 1_555 1_555
H5_3 C5_3 1_555 1_555
H6_3 C5_3 1_555 1_555
N5_3 N6_3 1_555 1_555
O5_3 W6_3 1_555 1_555
N6_3 Cu1_3 1_555 1_555
W6_3 O1_3 1_555 1_555
C6_3 C2_3 1_555 1_555
H7_3 C6_3 1_555 1_555
H8_3 C6_3 1_555 1_555
O6_3 W2_3 1_555 1_555
W7_3 O4_3 1_555 1_555
C7_3 N3_3 1_555 1_555
N7_3 N8_3 1_555 1_555
O7_3 W5_3 1_555 1_555
W8_3 O2_3 1_555 1_555
C8_3 C6_3 1_555 1_555
N8_3 C25_3 1_555 1_555
O8_3 W11_3 1_555 1_555
N9_3 N10_3 1_555 1_555
W9_3 O4_3 1_555 1_555
C9_3 C8_3 1_555 1_555
O9_3 W7_3 1_555 1_555
N10_3 Cu1_3 1_555 1_555
W10_3 O3_3 1_555 1_555
C10_3 C7_3 1_555 1_555
H9_3 C10_3 1_555 1_555
H10_3 C10_3 1_555 1_555
H11_3 C10_3 1_555 1_555
O10_3 W3_3 1_555 1_555
W11_3 O2_3 1_555 1_555
C11_3 C9_3 1_555 1_555
H12_3 C11_3 1_555 1_555
H13_3 C11_3 1_555 1_555
H14_3 C11_3 1_555 1_555
N11_3 N12_3 1_555 1_555
O11_3 W2_3 1_555 1_555
N12_3 Cu1_3 1_555 1_555
W12_3 O1_3 1_555 1_555
C12_3 H15_3 1_555 1_555
H16_3 C12_3 1_555 1_555
H17_3 C12_3 1_555 1_555
O12_3 W3_3 1_555 1_555
C13_3 C12_3 1_555 1_555
N13_3 N14_3 1_555 1_555
O13_3 W6_3 1_555 1_555
N14_3 C34_3 1_555 1_555
C14_3 C13_3 1_555 1_555
O14_3 W5_3 1_555 1_555
N15_3 Cu4_2 1_555 1_555
C15_3 C14_3 1_555 1_555
O15_3 W5_3 1_555 1_555
N16_3 C13_3 1_555 1_555
C16_3 C15_3 1_555 1_555
H18_3 C16_3 1_555 1_555
H19_3 C16_3 1_555 1_555
H20_3 C16_3 1_555 1_555
O16_2 W1_2 1_555 1_555
C17_3 C14_3 1_555 1_555
H21_3 C17_3 1_555 1_555
H22_3 C17_3 1_555 1_555
O17_3 W7_3 1_555 1_555
C18_3 C17_3 1_555 1_555
O18_3 W4_3 1_555 1_555
C19_3 N6_3 1_555 1_555
O19_3 W6_3 1_555 1_555
C20_3 N5_3 1_555 1_555
O20_3 W1_2 1_555 1_555
C21_3 C20_3 1_555 1_555
H23_3 C21_3 1_555 1_555
H24_3 C21_3 1_555 1_555
H25_3 C21_3 1_555 1_555
O21_3 W8_3 1_555 1_555
C22_3 C19_3 1_555 1_555
H26_3 C22_3 1_555 1_555
H27_3 C22_3 1_555 1_555
H28_3 C22_3 1_555 1_555
O22_3 W9_3 1_555 1_555
C23_3 N7_3 1_555 1_555
O23_2 W1_2 1_555 1_555
C24_3 C23_3 1_555 1_555
O24_2 W1_2 1_555 1_555
C25_3 C24_3 1_555 1_555
O25_3 W4_3 1_555 1_555
C26_3 C25_3 1_555 1_555
H29_3 C26_3 1_555 1_555
H30_3 C26_3 1_555 1_555
H31_3 C26_3 1_555 1_555
O26_3 W2_3 1_555 1_555
O27_3 W3_3 1_555 1_555
C27_3 C24_3 1_555 1_555
H32_3 C27_3 1_555 1_555
H33_3 C27_3 1_555 1_555
O28_3 W2_3 1_555 1_555
C28_3 C23_3 1_555 1_555
H34_3 C28_3 1_555 1_555
H35_3 C28_3 1_555 1_555
H36_3 C28_3 1_555 1_555
O29_2 W10_3 1_555 1_555
C29_3 N10_3 1_555 1_555
O30_3 Cu4_2 1_555 1_555
C30_3 C27_3 1_555 1_555
O31_2 W5_3 1_555 1_555
C31_3 N9_3 1_555 1_555
O32_2 W1_2 1_555 1_555
C32_3 C31_3 1_555 1_555
H37_3 C32_3 1_555 1_555
H38_3 C32_3 1_555 1_555
H39_3 C32_3 1_555 1_555
O33_3 W4_3 1_555 1_555
C33_3 C29_3 1_555 1_555
H40_3 C33_3 1_555 1_555
H41_3 C33_3 1_555 1_555
H42_3 C33_3 1_555 1_555
O34_3 W6_3 1_555 1_555
C34_3 C35_3 1_555 1_555
C35_3 C36_3 1_555 1_555
O35_3 W8_3 1_555 1_555
C36_3 N13_3 1_555 1_555
O36_3 W11_3 1_555 1_555
C37_3 C34_3 1_555 1_555
H43_3 C37_3 1_555 1_555
H44_3 C37_3 1_555 1_555
H45_3 C37_3 1_555 1_555
O37_3 W3_3 1_555 1_555
C38_3 C35_3 1_555 1_555
H46_3 C38_3 1_555 1_555
H47_3 C38_3 1_555 1_555
O38_3 W12_3 1_555 1_555
C39_3 C36_3 1_555 1_555
H48_2 C39_3 1_555 1_555
H49_3 C39_3 1_555 1_555
H50_3 C39_3 1_555 1_555
O39_3 W7_3 1_555 1_555
C40_3 N11_3 1_555 1_555
O40_3 W2_3 1_555 1_555
C41_3 C38_3 1_555 1_555
C42_3 N12_3 1_555 1_555
C43_3 C42_3 1_555 1_555
H51_2 C43_3 1_555 1_555
H52_2 C43_3 1_555 1_555
H53_3 C43_3 1_555 1_555
C44_3 C40_3 1_555 1_555
H54_3 C44_3 1_555 1_555
H55_3 C44_3 1_555 1_555
H56_3 C44_3 1_555 1_555
O41_3 Cu1_3 1_555 1_555
Cu5_3 N7_3 1_555 1_555
N18_3 Cu4_2 1_555 1_555
O42_3 Cu1_3 1_555 1_555
W3_3 O23_2 1_555 1_555
W4_3 O28_3 1_555 1_555
W5_3 O24_2 1_555 1_555
O5_3 W9_3 1_555 1_555
W6_3 O25_3 1_555 1_555
O6_3 W7_3 1_555 1_555
W7_3 O14_3 1_555 1_555
C7_3 C8_3 1_555 1_555
O7_3 W8_3 1_555 1_555
W8_3 O11_3 1_555 1_555
W8_3 O20_3 1_555 1_555
O8_3 W12_3 1_555 1_555
W9_3 O9_3 1_555 1_555
W9_3 O15_3 1_555 1_555
W9_3 O30_3 1_555 1_555
W10_3 O12_3 1_555 1_555
W10_3 O13_3 1_555 1_555
W10_3 O16_2 1_555 1_555
W10_3 O22_3 1_555 1_555
O10_3 W11_3 1_555 1_555
W11_3 O21_3 1_555 1_555
W11_3 O26_3 1_555 1_555
W12_3 O18_3 1_555 1_555
W12_3 O19_3 1_555 1_555
W12_3 O27_3 1_555 1_555
N15_3 C15_3 1_555 1_555
N15_3 N16_3 1_555 1_555
C18_3 C19_3 1_555 1_555
C18_3 C20_3 1_555 1_555
C29_3 C30_3 1_555 1_555
C30_3 C31_3 1_555 1_555
C40_3 C41_3 1_555 1_555
C41_3 C42_3 1_555 1_555
N3_3 H57_3 1_555 1_555
N2_3 H58_3 1_555 1_555
N9_3 H59_3 1_555 1_555
N5_3 H60_3 1_555 1_555
N11_3 H61_3 1_555 1_555
N8_3 H62_3 1_555 1_555
N16_3 H63_3 1_555 1_555
N13_3 H64_3 1_555 1_555
O41_3 H65_3 1_555 1_555
O41_3 H66_2 1_555 1_555
Cu1_4 N4_4 1_555 1_555
C1_4 C2_4 1_555 1_555
N17 N2_4 1_555 1_555
Cu4 N14_4 1_555 1_555
C2_4 C3_4 1_555 1_555
N2_4 C1_4 1_555 1_555
C3_4 N17 1_555 1_555
N3_4 N4_4 1_555 1_555
N4_4 C9_4 1_555 1_555
C4_4 C1_4 1_555 1_555
H1_4 C4_4 1_555 1_555
H3_4 C4_4 1_555 1_555
C5_4 C3_4 1_555 1_555
H4_4 C5_4 1_555 1_555
H5_4 C5_4 1_555 1_555
H6_4 C5_4 1_555 1_555
N6_4 Cu1_4 1_555 1_555
C6_4 C2_4 1_555 1_555
H7_4 C6_4 1_555 1_555
H8_4 C6_4 1_555 1_555
C7_4 N3_4 1_555 1_555
C8_4 C6_4 1_555 1_555
N9_4 N10_4 1_555 1_555
C9_4 C8_4 1_555 1_555
N10_4 Cu1_4 1_555 1_555
C10_4 C7_4 1_555 1_555
H9_4 C10_4 1_555 1_555
H10_4 C10_4 1_555 1_555
H11_4 C10_4 1_555 1_555
C11_4 C9_4 1_555 1_555
H12_4 C11_4 1_555 1_555
H13_4 C11_4 1_555 1_555
H14_4 C11_4 1_555 1_555
N11_4 N12_4 1_555 1_555
N12_4 Cu1_4 1_555 1_555
N14_4 C34_4 1_555 1_555
H18_4 C16_4 1_555 1_555
H19_4 C16_4 1_555 1_555
H20_4 C16_4 1_555 1_555
O16_3 W1_3 1_555 1_555
C19_4 N6_4 1_555 1_555
C22_4 C19_4 1_555 1_555
H26_4 C22_4 1_555 1_555
H27_4 C22_4 1_555 1_555
H28_4 C22_4 1_555 1_555
C23_4 N7_4 1_555 1_555
O23_3 W1_3 1_555 1_555
C24_4 C23_4 1_555 1_555
O24_3 W1_3 1_555 1_555
C25_4 C24_4 1_555 1_555
C26_4 C25_4 1_555 1_555
H29_4 C26_4 1_555 1_555
C27_4 C24_4 1_555 1_555
H32_4 C27_4 1_555 1_555
H33_4 C27_4 1_555 1_555
C28_4 C23_4 1_555 1_555
H34_4 C28_4 1_555 1_555
H35_4 C28_4 1_555 1_555
H36_4 C28_4 1_555 1_555
C29_4 N10_4 1_555 1_555
C30_4 C27_4 1_555 1_555
C31_4 N9_4 1_555 1_555
O32_3 W1_3 1_555 1_555
C32_4 C31_4 1_555 1_555
H37_4 C32_4 1_555 1_555
H38_4 C32_4 1_555 1_555
H39_4 C32_4 1_555 1_555
C33_4 C29_4 1_555 1_555
H40_4 C33_4 1_555 1_555
H41_4 C33_4 1_555 1_555
H42_4 C33_4 1_555 1_555
C34_4 C35_4 1_555 1_555
C35_4 C36_4 1_555 1_555
C37_4 C34_4 1_555 1_555
H43_4 C37_4 1_555 1_555
H44_4 C37_4 1_555 1_555
H45_4 C37_4 1_555 1_555
C38_4 C35_4 1_555 1_555
H46_4 C38_4 1_555 1_555
H47_4 C38_4 1_555 1_555
C40_4 N11_4 1_555 1_555
C41_4 C38_4 1_555 1_555
C42_4 N12_4 1_555 1_555
C43_4 C42_4 1_555 1_555
C44_4 C40_4 1_555 1_555
H54_4 C44_4 1_555 1_555
H55_4 C44_4 1_555 1_555
H56_4 C44_4 1_555 1_555
O41_4 Cu1_4 1_555 1_555
O42_4 Cu1_4 1_555 1_555
C7_4 C8_4 1_555 1_555
C29_4 C30_4 1_555 1_555
C30_4 C31_4 1_555 1_555
C40_4 C41_4 1_555 1_555
C41_4 C42_4 1_555 1_555
N3_4 H57_4 1_555 1_555
N2_4 H58_4 1_555 1_555
N9_4 H59_4 1_555 1_555
N11_4 H61_4 1_555 1_555
O41_4 H65_4 1_555 1_555
Si1_4 O1_4 1_555 1_555
O1_4 W4_4 1_555 1_555
O2_4 Si1_4 1_555 1_555
W2_4 O2_4 1_555 1_555
O3_4 Si1_4 1_555 1_555
W3_4 O3_4 1_555 1_555
O4_4 Si1_4 1_555 1_555
W4_4 O17_4 1_555 1_555
W5_4 O4_4 1_555 1_555
O5_4 W6_4 1_555 1_555
W6_4 O1_4 1_555 1_555
O6_4 W2_4 1_555 1_555
W7_4 O4_4 1_555 1_555
O7_4 W5_4 1_555 1_555
W8_4 O2_4 1_555 1_555
O8_4 W11_4 1_555 1_555
W9_4 O4_4 1_555 1_555
O9_4 W7_4 1_555 1_555
W10_4 O3_4 1_555 1_555
O10_4 W3_4 1_555 1_555
W11_4 O2_4 1_555 1_555
O11_4 W2_4 1_555 1_555
W12_4 O1_4 1_555 1_555
C12_4 H15_4 1_555 1_555
H16_4 C12_4 1_555 1_555
H17_4 C12_4 1_555 1_555
O12_4 W3_4 1_555 1_555
C13_4 C12_4 1_555 1_555
O13_4 W6_4 1_555 1_555
C14_4 C13_4 1_555 1_555
O14_4 W5_4 1_555 1_555
C15_4 C14_4 1_555 1_555
O15_4 W5_4 1_555 1_555
N16_4 C13_4 1_555 1_555
C17_4 C14_4 1_555 1_555
H21_4 C17_4 1_555 1_555
H22_4 C17_4 1_555 1_555
O17_4 W7_4 1_555 1_555
C18_4 C17_4 1_555 1_555
O18_4 W4_4 1_555 1_555
O19_4 W6_4 1_555 1_555
C20_4 N5_4 1_555 1_555
C21_4 C20_4 1_555 1_555
H23_4 C21_4 1_555 1_555
H24_4 C21_4 1_555 1_555
H25_4 C21_4 1_555 1_555
O21_4 W8_4 1_555 1_555
O22_4 W9_4 1_555 1_555
O25_4 W4_4 1_555 1_555
O26_4 W2_4 1_555 1_555
O27_4 W3_4 1_555 1_555
O28_4 W2_4 1_555 1_555
O33_4 W4_4 1_555 1_555
O34_4 W6_4 1_555 1_555
O35_4 W8_4 1_555 1_555
O36_4 W11_4 1_555 1_555
O37_4 W3_4 1_555 1_555
O38_4 W12_4 1_555 1_555
H48_3 C39_4 1_555 1_555
H49_4 C39_4 1_555 1_555
H50_4 C39_4 1_555 1_555
O39_4 W7_4 1_555 1_555
O40_4 W2_4 1_555 1_555
W4_4 O28_4 1_555 1_555
O5_4 W9_4 1_555 1_555
W6_4 O25_4 1_555 1_555
O6_4 W7_4 1_555 1_555
W7_4 O14_4 1_555 1_555
O7_4 W8_4 1_555 1_555
W8_4 O11_4 1_555 1_555
W8_4 O20_4 1_555 1_555
O8_4 W12_4 1_555 1_555
W9_4 O9_4 1_555 1_555
W9_4 O15_4 1_555 1_555
W9_4 O30_4 1_555 1_555
W10_4 O12_4 1_555 1_555
W10_4 O13_4 1_555 1_555
W10_4 O22_4 1_555 1_555
O10_4 W11_4 1_555 1_555
W11_4 O21_4 1_555 1_555
W11_4 O26_4 1_555 1_555
W12_4 O18_4 1_555 1_555
W12_4 O19_4 1_555 1_555
W12_4 O27_4 1_555 1_555
N15_4 C15_4 1_555 1_555
N15_4 N16_4 1_555 1_555
C18_4 C20_4 1_555 1_555
N5_4 H60_4 1_555 1_555
N8_4 H62_4 1_555 1_555
N16_4 H63_4 1_555 1_555
N13_4 H64_4 1_555 1_555
Cu3_4 N4_5 1_555 1_555
C1_5 C2_5 1_555 1_555
N1_3 N2_5 1_555 1_555
C2_5 C3_5 1_555 1_555
N2_5 C1_5 1_555 1_555
C3_5 N1_3 1_555 1_555
N3_5 N4_5 1_555 1_555
N4_5 C9_5 1_555 1_555
C4_5 C1_5 1_555 1_555
H1_5 C4_5 1_555 1_555
H2_3 C4_5 1_555 1_555
H3_5 C4_5 1_555 1_555
C5_5 C3_5 1_555 1_555
H4_5 C5_5 1_555 1_555
H5_5 C5_5 1_555 1_555
H6_5 C5_5 1_555 1_555
C6_5 C2_5 1_555 1_555
H7_5 C6_5 1_555 1_555
H8_5 C6_5 1_555 1_555
C7_5 N3_5 1_555 1_555
C8_5 C6_5 1_555 1_555
N9_5 N10_5 1_555 1_555
C9_5 C8_5 1_555 1_555
N10_5 Cu3_4 1_555 1_555
C10_5 C7_5 1_555 1_555
H9_5 C10_5 1_555 1_555
H10_5 C10_5 1_555 1_555
H11_5 C10_5 1_555 1_555
C11_5 C9_5 1_555 1_555
H12_5 C11_5 1_555 1_555
H13_5 C11_5 1_555 1_555
H14_5 C11_5 1_555 1_555
N11_5 N12_5 1_555 1_555
N12_5 Cu3_4 1_555 1_555
C31_5 N9_5 1_555 1_555
C32_5 C31_5 1_555 1_555
H37_5 C32_5 1_555 1_555
H38_5 C32_5 1_555 1_555
H39_5 C32_5 1_555 1_555
H46_5 C38_5 1_555 1_555
H47_5 C38_5 1_555 1_555
C40_5 N11_5 1_555 1_555
C41_5 C38_5 1_555 1_555
C42_5 N12_5 1_555 1_555
C43_5 C42_5 1_555 1_555
H51_4 C43_5 1_555 1_555
H52_4 C43_5 1_555 1_555
C44_5 C40_5 1_555 1_555
H55_5 C44_5 1_555 1_555
O41_5 Cu3_4 1_555 1_555
Cu5_2 N1_3 1_555 1_555
C7_5 C8_5 1_555 1_555
C40_5 C41_5 1_555 1_555
C41_5 C42_5 1_555 1_555
N3_5 H57_5 1_555 1_555
N2_5 H58_5 1_555 1_555
N9_5 H59_5 1_555 1_555
N11_5 H61_5 1_555 1_555
O41_5 H65_5 1_555 1_555
O41_5 H66_4 1_555 1_555
Cu5_3 N14_5 1_555 1_555
N5_5 N6_5 1_555 1_555
N18_3 N8_5 1_555 1_555
N8_5 C25_5 1_555 1_555
C12_5 H15_5 1_555 1_555
H16_5 C12_5 1_555 1_555
H17_5 C12_5 1_555 1_555
C13_5 C12_5 1_555 1_555
N13_5 N14_5 1_555 1_555
N14_5 C34_5 1_555 1_555
C14_5 C13_5 1_555 1_555
N15_5 Cu5_3 1_555 1_555
C15_5 C14_5 1_555 1_555
N16_5 C13_5 1_555 1_555
C16_5 C15_5 1_555 1_555
H18_5 C16_5 1_555 1_555
H19_5 C16_5 1_555 1_555
H20_5 C16_5 1_555 1_555
C17_5 C14_5 1_555 1_555
H21_5 C17_5 1_555 1_555
H22_5 C17_5 1_555 1_555
C18_5 C17_5 1_555 1_555
C19_5 N6_5 1_555 1_555
C20_5 N5_5 1_555 1_555
C21_5 C20_5 1_555 1_555
H23_5 C21_5 1_555 1_555
H24_5 C21_5 1_555 1_555
H25_5 C21_5 1_555 1_555
C22_5 C19_5 1_555 1_555
H26_5 C22_5 1_555 1_555
H27_5 C22_5 1_555 1_555
H28_5 C22_5 1_555 1_555
C23_5 N18_3 1_555 1_555
C24_5 C23_5 1_555 1_555
C25_5 C24_5 1_555 1_555
C26_5 C25_5 1_555 1_555
H29_5 C26_5 1_555 1_555
H30_5 C26_5 1_555 1_555
H31_5 C26_5 1_555 1_555
C27_5 C24_5 1_555 1_555
H32_5 C27_5 1_555 1_555
H33_5 C27_5 1_555 1_555
C28_5 C23_5 1_555 1_555
H34_5 C28_5 1_555 1_555
H35_5 C28_5 1_555 1_555
H36_5 C28_5 1_555 1_555
O30_5 Cu5_3 1_555 1_555
C30_5 C27_5 1_555 1_555
C33_5 C29_5 1_555 1_555
H40_5 C33_5 1_555 1_555
H41_5 C33_5 1_555 1_555
H42_5 C33_5 1_555 1_555
C34_5 C35_5 1_555 1_555
C35_5 C36_5 1_555 1_555
C36_5 N13_5 1_555 1_555
C37_5 C34_5 1_555 1_555
H43_5 C37_5 1_555 1_555
H44_5 C37_5 1_555 1_555
H45_5 C37_5 1_555 1_555
C39_5 C36_5 1_555 1_555
H49_5 C39_5 1_555 1_555
H50_5 C39_5 1_555 1_555
N17_3 Cu5_3 1_555 1_555
N15_5 C15_5 1_555 1_555
N15_5 N16_5 1_555 1_555
C18_5 C19_5 1_555 1_555
C18_5 C20_5 1_555 1_555
C29_5 C30_5 1_555 1_555
N5_5 H60_5 1_555 1_555
N8_5 H62_5 1_555 1_555
N16_5 H63_5 1_555 1_555
N13_5 H64_5 1_555 1_555
W1_4 O3_5 1_555 1_555
Si1_5 O1_5 1_555 1_555
O1_5 W4_5 1_555 1_555
O2_5 Si1_5 1_555 1_555
W2_5 O2_5 1_555 1_555
O3_5 Si1_5 1_555 1_555
W3_5 O3_5 1_555 1_555
O4_5 Si1_5 1_555 1_555
W4_5 O17_5 1_555 1_555
W5_5 O4_5 1_555 1_555
O5_5 W6_5 1_555 1_555
W6_5 O1_5 1_555 1_555
O6_5 W2_5 1_555 1_555
W7_5 O4_5 1_555 1_555
O7_5 W5_5 1_555 1_555
W8_5 O2_5 1_555 1_555
O8_5 W11_5 1_555 1_555
W9_5 O4_5 1_555 1_555
O9_5 W7_5 1_555 1_555
W10_5 O3_5 1_555 1_555
O10_5 W3_5 1_555 1_555
W11_5 O2_5 1_555 1_555
O11_5 W2_5 1_555 1_555
W12_5 O1_5 1_555 1_555
O12_5 W3_5 1_555 1_555
O13_5 W6_5 1_555 1_555
O14_5 W5_5 1_555 1_555
O15_5 W5_5 1_555 1_555
O16_4 W1_4 1_555 1_555
O17_5 W7_5 1_555 1_555
O18_5 W4_5 1_555 1_555
O19_5 W6_5 1_555 1_555
O20_5 W1_4 1_555 1_555
O21_5 W8_5 1_555 1_555
O22_5 W9_5 1_555 1_555
O23_4 W1_4 1_555 1_555
O24_4 W1_4 1_555 1_555
O25_5 W4_5 1_555 1_555
O26_5 W2_5 1_555 1_555
O27_5 W3_5 1_555 1_555
O28_5 W2_5 1_555 1_555
O29_4 W10_5 1_555 1_555
O31_4 W5_5 1_555 1_555
O32_4 W1_4 1_555 1_555
O33_5 W4_5 1_555 1_555
O34_5 W6_5 1_555 1_555
O35_5 W8_5 1_555 1_555
O36_5 W11_5 1_555 1_555
O37_5 W3_5 1_555 1_555
O38_5 W12_5 1_555 1_555
O39_5 W7_5 1_555 1_555
O42_4 W2_5 1_555 1_555
W3_5 O23_4 1_555 1_555
W4_5 O28_5 1_555 1_555
W5_5 O24_4 1_555 1_555
O5_5 W9_5 1_555 1_555
W6_5 O25_5 1_555 1_555
O6_5 W7_5 1_555 1_555
W7_5 O14_5 1_555 1_555
O7_5 W8_5 1_555 1_555
W8_5 O11_5 1_555 1_555
W8_5 O20_5 1_555 1_555
O8_5 W12_5 1_555 1_555
W9_5 O9_5 1_555 1_555
W9_5 O15_5 1_555 1_555
W10_5 O12_5 1_555 1_555
W10_5 O13_5 1_555 1_555
W10_5 O16_4 1_555 1_555
W10_5 O22_5 1_555 1_555
O10_5 W11_5 1_555 1_555
W11_5 O21_5 1_555 1_555
W11_5 O26_5 1_555 1_555
W12_5 O18_5 1_555 1_555
W12_5 O19_5 1_555 1_555
W12_5 O27_5 1_555 1_555
Si1_6 O1_6 1_555 1_555
O1_6 W4_6 1_555 1_555
O2_6 Si1_6 1_555 1_555
W2_6 O2_6 1_555 1_555
O3_6 Si1_6 1_555 1_555
W3_6 O3_6 1_555 1_555
O4_6 Si1_6 1_555 1_555
W4_6 O17_6 1_555 1_555
W5_6 O4_6 1_555 1_555
O5_6 W6_6 1_555 1_555
W6_6 O1_6 1_555 1_555
O6_6 W2_6 1_555 1_555
W7_6 O4_6 1_555 1_555
O7_6 W5_6 1_555 1_555
W8_6 O2_6 1_555 1_555
O8_6 W11_6 1_555 1_555
W9_6 O4_6 1_555 1_555
O9_6 W7_6 1_555 1_555
W10_6 O3_6 1_555 1_555
O10_6 W3_6 1_555 1_555
W11_6 O2_6 1_555 1_555
O11_6 W2_6 1_555 1_555
W12_6 O1_6 1_555 1_555
O12_6 W3_6 1_555 1_555
O13_6 W6_6 1_555 1_555
O14_6 W5_6 1_555 1_555
O15_6 W5_6 1_555 1_555
O17_6 W7_6 1_555 1_555
O18_6 W4_6 1_555 1_555
O19_6 W6_6 1_555 1_555
O21_6 W8_6 1_555 1_555
O22_6 W9_6 1_555 1_555
O25_6 W4_6 1_555 1_555
O26_6 W2_6 1_555 1_555
O27_6 W3_6 1_555 1_555
O28_6 W2_6 1_555 1_555
O33_6 W4_6 1_555 1_555
O34_6 W6_6 1_555 1_555
O35_6 W8_6 1_555 1_555
O36_6 W11_6 1_555 1_555
O37_6 W3_6 1_555 1_555
O38_6 W12_6 1_555 1_555
O39_6 W7_6 1_555 1_555
O42_3 W2_6 1_555 1_555
W4_6 O28_6 1_555 1_555
O5_6 W9_6 1_555 1_555
W6_6 O25_6 1_555 1_555
O6_6 W7_6 1_555 1_555
W7_6 O14_6 1_555 1_555
O7_6 W8_6 1_555 1_555
W8_6 O11_6 1_555 1_555
W8_6 O20_6 1_555 1_555
O8_6 W12_6 1_555 1_555
W9_6 O9_6 1_555 1_555
W9_6 O15_6 1_555 1_555
W10_6 O12_6 1_555 1_555
W10_6 O13_6 1_555 1_555
W10_6 O22_6 1_555 1_555
O10_6 W11_6 1_555 1_555
W11_6 O21_6 1_555 1_555
W11_6 O26_6 1_555 1_555
W12_6 O18_6 1_555 1_555
W12_6 O19_6 1_555 1_555
W12_6 O27_6 1_555 1_555
Cu3_3 N4_6 1_555 1_555
C1_6 C2_6 1_555 1_555
N1_4 N2_6 1_555 1_555
C2_6 C3_6 1_555 1_555
N2_6 C1_6 1_555 1_555
C3_6 N1_4 1_555 1_555
N3_6 N4_6 1_555 1_555
N4_6 C9_6 1_555 1_555
C4_6 C1_6 1_555 1_555
H1_6 C4_6 1_555 1_555
H2_4 C4_6 1_555 1_555
H3_6 C4_6 1_555 1_555
C5_6 C3_6 1_555 1_555
H4_6 C5_6 1_555 1_555
H5_6 C5_6 1_555 1_555
H6_6 C5_6 1_555 1_555
C6_6 C2_6 1_555 1_555
H7_6 C6_6 1_555 1_555
H8_6 C6_6 1_555 1_555
C7_6 N3_6 1_555 1_555
C8_6 C6_6 1_555 1_555
N9_6 N10_6 1_555 1_555
C9_6 C8_6 1_555 1_555
N10_6 Cu3_3 1_555 1_555
C10_6 C7_6 1_555 1_555
H9_6 C10_6 1_555 1_555
H10_6 C10_6 1_555 1_555
H11_6 C10_6 1_555 1_555
C11_6 C9_6 1_555 1_555
H12_6 C11_6 1_555 1_555
H13_6 C11_6 1_555 1_555
H14_6 C11_6 1_555 1_555
N11_6 N12_6 1_555 1_555
N12_6 Cu3_3 1_555 1_555
C31_6 N9_6 1_555 1_555
C32_6 C31_6 1_555 1_555
H37_6 C32_6 1_555 1_555
H38_6 C32_6 1_555 1_555
H39_6 C32_6 1_555 1_555
H46_6 C38_6 1_555 1_555
H47_6 C38_6 1_555 1_555
C40_6 N11_6 1_555 1_555
C41_6 C38_6 1_555 1_555
C42_6 N12_6 1_555 1_555
C43_6 C42_6 1_555 1_555
C44_6 C40_6 1_555 1_555
H55_6 C44_6 1_555 1_555
O41_6 Cu3_3 1_555 1_555
Cu5 N1_4 1_555 1_555
C7_6 C8_6 1_555 1_555
C40_6 C41_6 1_555 1_555
C41_6 C42_6 1_555 1_555
N3_6 H57_6 1_555 1_555
N2_6 H58_6 1_555 1_555
N9_6 H59_6 1_555 1_555
N11_6 H61_6 1_555 1_555
O41_6 H65_6 1_555 1_555
C12_6 H15_6 1_555 1_555
H16_6 C12_6 1_555 1_555
H17_6 C12_6 1_555 1_555
C13_6 C12_6 1_555 1_555
C14_6 C13_6 1_555 1_555
C15_6 C14_6 1_555 1_555
N16_6 C13_6 1_555 1_555
C17_6 C14_6 1_555 1_555
H21_6 C17_6 1_555 1_555
H22_6 C17_6 1_555 1_555
C18_6 C17_6 1_555 1_555
C20_6 N5_6 1_555 1_555
C21_6 C20_6 1_555 1_555
H23_6 C21_6 1_555 1_555
H24_6 C21_6 1_555 1_555
H25_6 C21_6 1_555 1_555
H49_6 C39_6 1_555 1_555
H50_6 C39_6 1_555 1_555
N15_6 C15_6 1_555 1_555
N15_6 N16_6 1_555 1_555
C18_6 C20_6 1_555 1_555
N5_6 H60_6 1_555 1_555
N8_6 H62_6 1_555 1_555
N16_6 H63_6 1_555 1_555
N13_6 H64_6 1_555 1_555
Cu5_4 N14_6 1_555 1_555
N14_6 C34_6 1_555 1_555
H18_6 C16_6 1_555 1_555
H19_6 C16_6 1_555 1_555
H20_6 C16_6 1_555 1_555
C19_6 N6_6 1_555 1_555
C22_6 C19_6 1_555 1_555
H26_6 C22_6 1_555 1_555
H27_6 C22_6 1_555 1_555
H28_6 C22_6 1_555 1_555
C23_6 N18_4 1_555 1_555
C24_6 C23_6 1_555 1_555
C25_6 C24_6 1_555 1_555
C26_6 C25_6 1_555 1_555
H29_6 C26_6 1_555 1_555
C27_6 C24_6 1_555 1_555
H32_6 C27_6 1_555 1_555
H33_6 C27_6 1_555 1_555
C28_6 C23_6 1_555 1_555
H34_6 C28_6 1_555 1_555
H35_6 C28_6 1_555 1_555
H36_6 C28_6 1_555 1_555
C30_6 C27_6 1_555 1_555
C33_6 C29_6 1_555 1_555
H40_6 C33_6 1_555 1_555
H41_6 C33_6 1_555 1_555
H42_6 C33_6 1_555 1_555
C34_6 C35_6 1_555 1_555
C35_6 C36_6 1_555 1_555
C37_6 C34_6 1_555 1_555
H43_6 C37_6 1_555 1_555
H44_6 C37_6 1_555 1_555
H45_6 C37_6 1_555 1_555
N17_4 Cu5_4 1_555 1_555
C29_6 C30_6 1_555 1_555
W1_5 O3_7 1_555 1_555
Cu3_2 N4_7 1_555 1_555
Si1_7 O1_7 1_555 1_555
O1_7 W4_7 1_555 1_555
C1_7 C2_7 1_555 1_555
N17_4 N2_7 1_555 1_555
O2_7 Si1_7 1_555 1_555
W2_7 O2_7 1_555 1_555
Cu5 N14_7 1_555 1_555
C2_7 C3_7 1_555 1_555
N2_7 C1_7 1_555 1_555
O3_7 Si1_7 1_555 1_555
W3_7 O3_7 1_555 1_555
C3_7 N17_4 1_555 1_555
N3_7 N4_7 1_555 1_555
N4_7 C9_7 1_555 1_555
O4_7 Si1_7 1_555 1_555
W4_7 O17_7 1_555 1_555
C4_7 C1_7 1_555 1_555
H1_7 C4_7 1_555 1_555
H3_7 C4_7 1_555 1_555
W5_7 O4_7 1_555 1_555
C5_7 C3_7 1_555 1_555
H4_7 C5_7 1_555 1_555
H5_7 C5_7 1_555 1_555
H6_7 C5_7 1_555 1_555
N5_7 N6_7 1_555 1_555
O5_7 W6_7 1_555 1_555
N6_7 Cu3_2 1_555 1_555
W6_7 O1_7 1_555 1_555
C6_7 C2_7 1_555 1_555
H7_7 C6_7 1_555 1_555
H8_7 C6_7 1_555 1_555
O6_7 W2_7 1_555 1_555
W7_7 O4_7 1_555 1_555
C7_7 N3_7 1_555 1_555
N18 N8_7 1_555 1_555
O7_7 W5_7 1_555 1_555
W8_7 O2_7 1_555 1_555
C8_7 C6_7 1_555 1_555
N8_7 C25_7 1_555 1_555
O8_7 W11_7 1_555 1_555
N9_7 N10_7 1_555 1_555
W9_7 O4_7 1_555 1_555
C9_7 C8_7 1_555 1_555
O9_7 W7_7 1_555 1_555
N10_7 Cu3_2 1_555 1_555
W10_7 O3_7 1_555 1_555
C10_7 C7_7 1_555 1_555
H9_7 C10_7 1_555 1_555
H10_7 C10_7 1_555 1_555
H11_7 C10_7 1_555 1_555
O10_7 W3_7 1_555 1_555
W11_7 O2_7 1_555 1_555
C11_7 C9_7 1_555 1_555
H12_7 C11_7 1_555 1_555
H13_7 C11_7 1_555 1_555
H14_7 C11_7 1_555 1_555
N11_7 N12_7 1_555 1_555
O11_7 W2_7 1_555 1_555
N12_7 Cu3_2 1_555 1_555
W12_7 O1_7 1_555 1_555
C12_7 H15_7 1_555 1_555
H16_7 C12_7 1_555 1_555
H17_7 C12_7 1_555 1_555
O12_7 W3_7 1_555 1_555
C13_7 C12_7 1_555 1_555
N13_7 N14_7 1_555 1_555
O13_7 W6_7 1_555 1_555
N14_7 C34_7 1_555 1_555
C14_7 C13_7 1_555 1_555
O14_7 W5_7 1_555 1_555
N15_7 Cu5 1_555 1_555
C15_7 C14_7 1_555 1_555
O15_7 W5_7 1_555 1_555
N16_7 C13_7 1_555 1_555
C16_7 C15_7 1_555 1_555
H18_7 C16_7 1_555 1_555
H19_7 C16_7 1_555 1_555
H20_7 C16_7 1_555 1_555
O16_5 W1_5 1_555 1_555
C17_7 C14_7 1_555 1_555
H21_7 C17_7 1_555 1_555
H22_7 C17_7 1_555 1_555
O17_7 W7_7 1_555 1_555
C18_7 C17_7 1_555 1_555
O18_7 W4_7 1_555 1_555
C19_7 N6_7 1_555 1_555
O19_7 W6_7 1_555 1_555
C20_7 N5_7 1_555 1_555
O20_7 W1_5 1_555 1_555
C21_7 C20_7 1_555 1_555
H23_7 C21_7 1_555 1_555
H24_7 C21_7 1_555 1_555
H25_7 C21_7 1_555 1_555
O21_7 W8_7 1_555 1_555
C22_7 C19_7 1_555 1_555
H26_7 C22_7 1_555 1_555
H27_7 C22_7 1_555 1_555
H28_7 C22_7 1_555 1_555
O22_7 W9_7 1_555 1_555
C23_7 N18 1_555 1_555
O23_5 W1_5 1_555 1_555
C24_7 C23_7 1_555 1_555
O24_5 W1_5 1_555 1_555
C25_7 C24_7 1_555 1_555
O25_7 W4_7 1_555 1_555
C26_7 C25_7 1_555 1_555
H29_7 C26_7 1_555 1_555
H30_7 C26_7 1_555 1_555
H31_7 C26_7 1_555 1_555
O26_7 W2_7 1_555 1_555
O27_7 W3_7 1_555 1_555
C27_7 C24_7 1_555 1_555
H32_7 C27_7 1_555 1_555
H33_7 C27_7 1_555 1_555
O28_7 W2_7 1_555 1_555
C28_7 C23_7 1_555 1_555
H34_7 C28_7 1_555 1_555
H35_7 C28_7 1_555 1_555
H36_7 C28_7 1_555 1_555
O29_5 W10_7 1_555 1_555
C29_7 N10_7 1_555 1_555
O30_7 Cu5 1_555 1_555
C30_7 C27_7 1_555 1_555
O31_5 W5_7 1_555 1_555
C31_7 N9_7 1_555 1_555
O32_5 W1_5 1_555 1_555
C32_7 C31_7 1_555 1_555
H37_7 C32_7 1_555 1_555
H38_7 C32_7 1_555 1_555
H39_7 C32_7 1_555 1_555
O33_7 W4_7 1_555 1_555
C33_7 C29_7 1_555 1_555
H40_7 C33_7 1_555 1_555
H41_7 C33_7 1_555 1_555
H42_7 C33_7 1_555 1_555
O34_7 W6_7 1_555 1_555
C34_7 C35_7 1_555 1_555
C35_7 C36_7 1_555 1_555
O35_7 W8_7 1_555 1_555
C36_7 N13_7 1_555 1_555
O36_7 W11_7 1_555 1_555
C37_7 C34_7 1_555 1_555
H43_7 C37_7 1_555 1_555
H44_7 C37_7 1_555 1_555
H45_7 C37_7 1_555 1_555
O37_7 W3_7 1_555 1_555
C38_7 C35_7 1_555 1_555
H46_7 C38_7 1_555 1_555
H47_7 C38_7 1_555 1_555
O38_7 W12_7 1_555 1_555
C39_7 C36_7 1_555 1_555
H48_5 C39_7 1_555 1_555
H49_7 C39_7 1_555 1_555
H50_7 C39_7 1_555 1_555
O39_7 W7_7 1_555 1_555
C40_7 N11_7 1_555 1_555
O42_2 W2_7 1_555 1_555
C41_7 C38_7 1_555 1_555
C42_7 N12_7 1_555 1_555
C43_7 C42_7 1_555 1_555
H51_5 C43_7 1_555 1_555
H52_5 C43_7 1_555 1_555
H53_7 C43_7 1_555 1_555
C44_7 C40_7 1_555 1_555
H54_7 C44_7 1_555 1_555
H55_7 C44_7 1_555 1_555
H56_7 C44_7 1_555 1_555
O41_7 Cu3_2 1_555 1_555
W3_7 O23_5 1_555 1_555
W4_7 O28_7 1_555 1_555
W5_7 O24_5 1_555 1_555
O5_7 W9_7 1_555 1_555
W6_7 O25_7 1_555 1_555
O6_7 W7_7 1_555 1_555
W7_7 O14_7 1_555 1_555
C7_7 C8_7 1_555 1_555
O7_7 W8_7 1_555 1_555
W8_7 O11_7 1_555 1_555
W8_7 O20_7 1_555 1_555
O8_7 W12_7 1_555 1_555
W9_7 O9_7 1_555 1_555
W9_7 O15_7 1_555 1_555
W9_7 O30_7 1_555 1_555
W10_7 O12_7 1_555 1_555
W10_7 O13_7 1_555 1_555
W10_7 O16_5 1_555 1_555
W10_7 O22_7 1_555 1_555
O10_7 W11_7 1_555 1_555
W11_7 O21_7 1_555 1_555
W11_7 O26_7 1_555 1_555
W12_7 O18_7 1_555 1_555
W12_7 O19_7 1_555 1_555
W12_7 O27_7 1_555 1_555
N15_7 C15_7 1_555 1_555
N15_7 N16_7 1_555 1_555
C18_7 C19_7 1_555 1_555
C18_7 C20_7 1_555 1_555
C29_7 C30_7 1_555 1_555
C30_7 C31_7 1_555 1_555
C40_7 C41_7 1_555 1_555
C41_7 C42_7 1_555 1_555
N3_7 H57_7 1_555 1_555
N2_7 H58_7 1_555 1_555
N9_7 H59_7 1_555 1_555
N5_7 H60_7 1_555 1_555
N11_7 H61_7 1_555 1_555
N8_7 H62_7 1_555 1_555
N16_7 H63_7 1_555 1_555
N13_7 H64_7 1_555 1_555
O41_7 H65_7 1_555 1_555
O41_7 H66_5 1_555 1_555
Si1_8 O1_8 1_555 1_555
O1_8 W4_8 1_555 1_555
O2_8 Si1_8 1_555 1_555
W2_8 O2_8 1_555 1_555
O3_8 Si1_8 1_555 1_555
W3_8 O3_8 1_555 1_555
O4_8 Si1_8 1_555 1_555
W4_8 O17_8 1_555 1_555
W5_8 O4_8 1_555 1_555
O5_8 W6_8 1_555 1_555
W6_8 O1_8 1_555 1_555
O6_8 W2_8 1_555 1_555
W7_8 O4_8 1_555 1_555
O7_8 W5_8 1_555 1_555
W8_8 O2_8 1_555 1_555
O8_8 W11_8 1_555 1_555
W9_8 O4_8 1_555 1_555
O9_8 W7_8 1_555 1_555
W10_8 O3_8 1_555 1_555
O10_8 W3_8 1_555 1_555
W11_8 O2_8 1_555 1_555
O11_8 W2_8 1_555 1_555
W12_8 O1_8 1_555 1_555
C12_8 H15_8 1_555 1_555
H16_8 C12_8 1_555 1_555
H17_8 C12_8 1_555 1_555
O12_8 W3_8 1_555 1_555
C13_8 C12_8 1_555 1_555
O13_8 W6_8 1_555 1_555
C14_8 C13_8 1_555 1_555
O14_8 W5_8 1_555 1_555
C15_8 C14_8 1_555 1_555
O15_8 W5_8 1_555 1_555
N16_8 C13_8 1_555 1_555
C17_8 C14_8 1_555 1_555
H21_8 C17_8 1_555 1_555
H22_8 C17_8 1_555 1_555
O17_8 W7_8 1_555 1_555
C18_8 C17_8 1_555 1_555
O18_8 W4_8 1_555 1_555
O19_8 W6_8 1_555 1_555
C20_8 N5_8 1_555 1_555
C21_8 C20_8 1_555 1_555
H23_8 C21_8 1_555 1_555
H24_8 C21_8 1_555 1_555
H25_8 C21_8 1_555 1_555
O21_8 W8_8 1_555 1_555
O22_8 W9_8 1_555 1_555
O25_8 W4_8 1_555 1_555
O26_8 W2_8 1_555 1_555
O27_8 W3_8 1_555 1_555
O28_8 W2_8 1_555 1_555
O33_8 W4_8 1_555 1_555
O34_8 W6_8 1_555 1_555
O35_8 W8_8 1_555 1_555
O36_8 W11_8 1_555 1_555
O37_8 W3_8 1_555 1_555
O38_8 W12_8 1_555 1_555
H48_6 C39_8 1_555 1_555
H49_8 C39_8 1_555 1_555
H50_8 C39_8 1_555 1_555
O39_8 W7_8 1_555 1_555
O42 W2_8 1_555 1_555
W4_8 O28_8 1_555 1_555
O5_8 W9_8 1_555 1_555
W6_8 O25_8 1_555 1_555
O6_8 W7_8 1_555 1_555
W7_8 O14_8 1_555 1_555
O7_8 W8_8 1_555 1_555
W8_8 O11_8 1_555 1_555
W8_8 O20_8 1_555 1_555
O8_8 W12_8 1_555 1_555
W9_8 O9_8 1_555 1_555
W9_8 O15_8 1_555 1_555
W9_8 O30_8 1_555 1_555
W10_8 O12_8 1_555 1_555
W10_8 O13_8 1_555 1_555
W10_8 O22_8 1_555 1_555
O10_8 W11_8 1_555 1_555
W11_8 O21_8 1_555 1_555
W11_8 O26_8 1_555 1_555
W12_8 O18_8 1_555 1_555
W12_8 O19_8 1_555 1_555
W12_8 O27_8 1_555 1_555
N15_8 C15_8 1_555 1_555
N15_8 N16_8 1_555 1_555
C18_8 C20_8 1_555 1_555
N5_8 H60_8 1_555 1_555
N8_8 H62_8 1_555 1_555
N16_8 H63_8 1_555 1_555
N13_8 H64_8 1_555 1_555
Cu3 N4_8 1_555 1_555
C1_8 C2_8 1_555 1_555
N17_3 N2_8 1_555 1_555
Cu5_2 N14_8 1_555 1_555
C2_8 C3_8 1_555 1_555
N2_8 C1_8 1_555 1_555
C3_8 N17_3 1_555 1_555
N3_8 N4_8 1_555 1_555
N4_8 C9_8 1_555 1_555
C4_8 C1_8 1_555 1_555
H1_8 C4_8 1_555 1_555
H3_8 C4_8 1_555 1_555
C5_8 C3_8 1_555 1_555
H4_8 C5_8 1_555 1_555
H5_8 C5_8 1_555 1_555
H6_8 C5_8 1_555 1_555
N6_8 Cu3 1_555 1_555
C6_8 C2_8 1_555 1_555
H7_8 C6_8 1_555 1_555
H8_8 C6_8 1_555 1_555
C7_8 N3_8 1_555 1_555
C8_8 C6_8 1_555 1_555
N9_8 N10_8 1_555 1_555
C9_8 C8_8 1_555 1_555
N10_8 Cu3 1_555 1_555
C10_8 C7_8 1_555 1_555
H9_8 C10_8 1_555 1_555
H10_8 C10_8 1_555 1_555
H11_8 C10_8 1_555 1_555
C11_8 C9_8 1_555 1_555
H12_8 C11_8 1_555 1_555
H13_8 C11_8 1_555 1_555
H14_8 C11_8 1_555 1_555
N11_8 N12_8 1_555 1_555
N12_8 Cu3 1_555 1_555
N14_8 C34_8 1_555 1_555
H18_8 C16_8 1_555 1_555
H19_8 C16_8 1_555 1_555
H20_8 C16_8 1_555 1_555
O16_6 W1_6 1_555 1_555
C19_8 N6_8 1_555 1_555
C22_8 C19_8 1_555 1_555
H26_8 C22_8 1_555 1_555
H27_8 C22_8 1_555 1_555
H28_8 C22_8 1_555 1_555
C23_8 N18_2 1_555 1_555
O23_6 W1_6 1_555 1_555
C24_8 C23_8 1_555 1_555
O24_6 W1_6 1_555 1_555
C25_8 C24_8 1_555 1_555
C26_8 C25_8 1_555 1_555
H29_8 C26_8 1_555 1_555
C27_8 C24_8 1_555 1_555
H32_8 C27_8 1_555 1_555
H33_8 C27_8 1_555 1_555
C28_8 C23_8 1_555 1_555
H34_8 C28_8 1_555 1_555
H35_8 C28_8 1_555 1_555
H36_8 C28_8 1_555 1_555
C29_8 N10_8 1_555 1_555
C30_8 C27_8 1_555 1_555
C31_8 N9_8 1_555 1_555
O32_6 W1_6 1_555 1_555
C32_8 C31_8 1_555 1_555
H37_8 C32_8 1_555 1_555
H38_8 C32_8 1_555 1_555
H39_8 C32_8 1_555 1_555
C33_8 C29_8 1_555 1_555
H40_8 C33_8 1_555 1_555
H41_8 C33_8 1_555 1_555
H42_8 C33_8 1_555 1_555
C34_8 C35_8 1_555 1_555
C35_8 C36_8 1_555 1_555
C37_8 C34_8 1_555 1_555
H43_8 C37_8 1_555 1_555
H44_8 C37_8 1_555 1_555
H45_8 C37_8 1_555 1_555
C38_8 C35_8 1_555 1_555
H46_8 C38_8 1_555 1_555
H47_8 C38_8 1_555 1_555
C40_8 N11_8 1_555 1_555
C41_8 C38_8 1_555 1_555
C42_8 N12_8 1_555 1_555
C43_8 C42_8 1_555 1_555
C44_8 C40_8 1_555 1_555
H54_8 C44_8 1_555 1_555
H55_8 C44_8 1_555 1_555
H56_8 C44_8 1_555 1_555
O41_8 Cu3 1_555 1_555
C7_8 C8_8 1_555 1_555
C29_8 C30_8 1_555 1_555
C30_8 C31_8 1_555 1_555
C40_8 C41_8 1_555 1_555
C41_8 C42_8 1_555 1_555
N3_8 H57_8 1_555 1_555
N2_8 H58_8 1_555 1_555
N9_8 H59_8 1_555 1_555
N11_8 H61_8 1_555 1_555
O41_8 H65_8 1_555 1_555
O16_7 W1_7 1_555 1_555
O23_7 W1_7 1_555 1_555
O24_7 W1_7 1_555 1_555
O32_7 W1_7 1_555 1_555
O16_8 W1_8 1_555 1_555
O23_8 W1_8 1_555 1_555
O24_8 W1_8 1_555 1_555
O32_8 W1_8 1_555 1_555

#END
