
###############################################################################
#
# This file contains modified crystal structure data generated from the
# MOF subset of the Cambridge Structural Database (CSD) v543 
# hosted by the Cambridge Crystallographic Data Centre (CCDC).
#
# This work is licensed under the Creative Commons
# Attribution-NonCommercial-ShareAlike 4.0 International License.
# To view a copy of this license, visit
# http://creativecommons.org/licenses/by-nc-sa/4.0/
# or send a letter to
# Creative Commons, PO Box 1866, Mountain View, CA 94042, USA.
#
# CIF created using the CSD Python API on 29 September 2022
# The structure has been converted into the P1 space group
# The structure has a 3D framework
# The original CSD entry BAHCIZ is in the monoclinic crystal system
# The original CSD entry BAHCIZ is in a Sohncke space group
# The framework has been calculated to contain at least 10.0% void space
# The void calculation uses a probe of radius 1.32A, grid spacing 0.4
#
###############################################################################

data_BAHCIZ
_chemical_formula_moiety         '(C530 H656 Cd25 Cu16 N48 O112)n'
_symmetry_cell_setting           triclinic
_symmetry_space_group_name_H-M   'P 1'
_symmetry_Int_Tables_number      1
_space_group_name_Hall           'P 1'
loop_
_symmetry_equiv_pos_site_id
_symmetry_equiv_pos_as_xyz
1 x,y,z
_cell_length_a                   14.525(7)
_cell_length_b                   40.69(2)
_cell_length_c                   30.898(15)
_cell_angle_alpha                90
_cell_angle_beta                 101.498(8)
_cell_angle_gamma                90
_cell_volume                     17894.9
loop_
_atom_site_label
_atom_site_type_symbol
_atom_site_fract_x
_atom_site_fract_y
_atom_site_fract_z
Cd3 Cd -0.0000 0.34022(8) 0.5000
Cd4 Cd -0.0000 0.25451(6) 0.5000
Cd5 Cd 0.24266(16) 0.27976(5) 0.50562(6)
O11 O 0.1823(13) 0.2942(6) 0.4387(5)
O12 O 0.0375(11) 0.2984(4) 0.4595(5)
O27 O 0.3811(14) 0.2698(6) 0.4825(6)
H31 H 0.0290 0.5870 0.2277
C39 C 0.0554(19) 0.3808(8) 0.1482(8)
H37 H 0.0637 0.4040 0.1525
H38 H 0.0342 0.3714 0.1730
H39 H 0.1141 0.3709 0.1456
H41 H 0.0410 0.3285 0.1043
C41 C 0.0265(19) 0.3893(7) 0.0685(7)
H44 H 0.0371 0.4124 0.0735
H45 H 0.0851 0.3786 0.0677
C52 C 0.0809(10) 0.3221(4) 0.3110(4)
C53 C 0.1142(8) 0.3122(4) 0.3543(5)
H58 H 0.1779 0.3080 0.3641
C54 C 0.0524(11) 0.3087(4) 0.3831(3)
C56 C 0.1518(16) 0.3300(6) 0.2788(7)
C57 C 0.152(2) 0.3667(7) 0.2665(9)
H60 H 0.0893 0.3738 0.2546
H61 H 0.1774 0.3794 0.2924
H62 H 0.1906 0.3699 0.2448
C58 C 0.123(2) 0.3096(7) 0.2359(8)
H63 H 0.0615 0.3164 0.2207
H64 H 0.1673 0.3132 0.2172
H65 H 0.1217 0.2867 0.2431
C59 C 0.2500(17) 0.3161(7) 0.2983(9)
H66 H 0.2446 0.2932 0.3052
H67 H 0.2898 0.3184 0.2771
H68 H 0.2766 0.3279 0.3247
C60 C 0.0937(16) 0.2991(6) 0.4296(8)
N11 N 0.4562(16) 0.2757(7) 0.4252(7)
C125 C 0.4089(17) 0.2889(7) 0.4568(8)
H145 H 0.3987 0.3114 0.4583
C126 C 0.463(4) 0.2414(7) 0.4228(15)
H146 H 0.4263 0.2314 0.4418
H147 H 0.4401 0.2344 0.3929
H148 H 0.5276 0.2349 0.4319
C127 C 0.502(2) 0.2973(7) 0.4013(10)
H149 H 0.4875 0.3196 0.4079
H150 H 0.5686 0.2939 0.4093
H151 H 0.4811 0.2934 0.3702
C236 C 0.0153(15) 0.4424(7) 0.2424(8)
H281 H 0.0825 0.4434 0.2536
H282 H 0.0032 0.4238 0.2224
H287 H 0.0204 0.4736 0.1938
H288 H 0.0038 0.4908 0.2370
O56 O 0.0515(17) 0.3840(6) 0.4604(9)
N24 N 0.1635(19) 0.3983(7) 0.4163(8)
C262 C 0.120(2) 0.3832(9) 0.4460(10)
H322 H 0.1586 0.3664 0.4598
C263 C 0.098(3) 0.4174(13) 0.3824(15)
H323 H 0.1325 0.4275 0.3624
H324 H 0.0512 0.4030 0.3662
H325 H 0.0680 0.4342 0.3965
C264 C 0.256(2) 0.3951(10) 0.4116(13)
H326 H 0.2669 0.4088 0.3877
H327 H 0.2976 0.4017 0.4384
H328 H 0.2687 0.3726 0.4053
O57 O 0.2117(14) 0.2258(5) 0.4798(7)
O59 O 0.0574(12) 0.2233(4) 0.4574(6)
O62 O 0.2918(12) 0.2642(5) 0.5747(5)
O64 O 0.1405(12) 0.2605(5) 0.5540(5)
O67 O 0.2755(16) 0.3332(5) 0.5236(6)
O69 O 0.1378(15) 0.3394(6) 0.5408(6)
Cd1 Cd 0.5000 0.54667(7) 0.0000
Cd2 Cd 0.74251(16) 0.52143(5) 0.00559(6)
Cd3_2 Cd 1.0000 0.34022(8) 0.5000
Cd4_2 Cd 1.0000 0.25451(6) 0.5000
Cd6 Cd 0.5000 0.46055(8) 0.0000
Cu1 Cu 0.6092(3) 0.60278(9) 0.28149(11)
Cu2 Cu 0.8309(3) 0.34984(9) 0.22648(11)
N1 N 0.5026(13) 0.6215(4) 0.3004(6)
N2 N 0.5152(11) 0.5835(4) 0.2365(5)
N3 N 0.7004(15) 0.3626(6) 0.1999(6)
N4 N 0.7779(14) 0.3417(5) 0.2760(6)
O1 O 0.7117(14) 0.7258(5) 0.4798(7)
O2 O 0.5574(12) 0.7233(4) 0.4574(6)
O3 O 0.6999(12) 0.6189(5) 0.3285(5)
O4 O 0.7144(11) 0.5898(5) 0.2553(5)
O5 O 0.6345(13) 0.5412(5) 0.0557(6)
O6 O 0.7920(14) 0.5403(5) 0.0739(6)
O7 O 0.6418(17) 0.4660(6) 0.0455(7)
O8 O 0.7854(16) 0.4690(5) 0.0285(6)
O9 O 0.8773(12) 0.3642(5) 0.1770(5)
O10 O 0.9557(13) 0.3420(5) 0.2576(5)
O25 O 0.4650(15) 0.4251(5) 0.0520(7)
C1 C 0.6463(15) 0.7127(5) 0.4594(7)
C2 C 0.6521(15) 0.6857(5) 0.4250(7)
C3 C 0.7383(16) 0.6718(6) 0.4249(7)
H1 H 0.7877 0.6793 0.4466
O28 O 0.9485(17) 0.3840(6) 0.5396(9)
C4 C 0.7612(15) 0.6479(6) 0.3967(8)
C5 C 0.6813(16) 0.6400(5) 0.3585(7)
C6 C 0.5887(14) 0.6507(5) 0.3642(7)
C7 C 0.5758(13) 0.6731(5) 0.3965(7)
H2 H 0.5154 0.6795 0.3986
C8 C 0.851(2) 0.5978(6) 0.4057(10)
H3 H 0.9114 0.5878 0.4067
H4 H 0.8317 0.5942 0.4333
H5 H 0.8060 0.5882 0.3822
C9 C 0.8580(19) 0.6354(6) 0.3976(8)
C10 C 0.894(2) 0.6456(9) 0.3572(9)
H6 H 0.9567 0.6371 0.3591
H7 H 0.8539 0.6371 0.3313
H8 H 0.8959 0.6691 0.3556
C11 C 0.9207(16) 0.6428(6) 0.4431(7)
H9 H 0.9831 0.6348 0.4437
H10 H 0.9228 0.6661 0.4481
H11 H 0.8952 0.6322 0.4658
C12 C 0.4921(15) 0.6394(5) 0.3376(6)
H12 H 0.4348 0.6440 0.3454
C13 C 0.4128(11) 0.6157(5) 0.2687(6)
H13 H 0.4076 0.6329 0.2462
C14 C 0.3212(18) 0.6174(8) 0.2881(9)
H14 H 0.3156 0.6388 0.3011
H15 H 0.3230 0.6008 0.3108
C15 C 0.2353(17) 0.6111(6) 0.2492(8)
H16 H 0.1779 0.6101 0.2607
H17 H 0.2297 0.6291 0.2283
C16 C 0.2482(14) 0.5797(6) 0.2264(8)
H18 H 0.1943 0.5765 0.2026
H19 H 0.2491 0.5618 0.2472
C17 C 0.3377(16) 0.5778(6) 0.2072(8)
H20 H 0.3363 0.5942 0.1843
H21 H 0.3434 0.5562 0.1945
C18 C 0.4213(11) 0.5842(5) 0.2461(6)
H22 H 0.4192 0.5668 0.2679
C19 C 0.5323(15) 0.5733(6) 0.1965(6)
H23 H 0.4817 0.5659 0.1755
C20 C 0.6228(8) 0.5735(4) 0.1854(5)
C21 C 0.7070(11) 0.5811(4) 0.2137(4)
C22 C 0.7915(8) 0.5773(4) 0.1997(5)
C23 C 0.7919(9) 0.5659(4) 0.1573(5)
H24 H 0.8485 0.5634 0.1480
C24 C 0.7077(11) 0.5583(4) 0.1290(4)
C25 C 0.6231(9) 0.5621(4) 0.1430(5)
H25 H 0.5668 0.5570 0.1240
C26 C 0.8876(14) 0.5857(6) 0.2302(7)
C27 C 0.903(2) 0.5668(6) 0.2748(8)
H26 H 0.9043 0.5436 0.2693
H27 H 0.9618 0.5734 0.2929
H28 H 0.8528 0.5718 0.2898
C28 C 0.9725(15) 0.5799(6) 0.2081(8)
H29 H 0.9771 0.5569 0.2018
H30 H 0.9644 0.5922 0.1811
C29 C 0.886(2) 0.6229(6) 0.2391(9)
H32 H 0.8339 0.6280 0.2529
H33 H 0.9434 0.6293 0.2582
H34 H 0.8789 0.6346 0.2116
C30 C 0.7118(18) 0.5464(7) 0.0831(9)
C31 C 0.725(2) 0.4567(7) 0.0482(10)
C32 C 0.7639(12) 0.4278(3) 0.0786(5)
C33 C 0.7103(9) 0.4165(4) 0.1081(6)
H35 H 0.6495 0.4242 0.1064
C34 C 0.7476(10) 0.3934(4) 0.1401(5)
C35 C 0.8384(11) 0.3818(3) 0.1426(4)
C36 C 0.8920(9) 0.3932(4) 0.1131(5)
C37 C 0.8548(11) 0.4162(4) 0.0811(5)
H36 H 0.8907 0.4238 0.0614
C38 C 0.9834(15) 0.3744(6) 0.1067(6)
C40 C 0.980(2) 0.3370(6) 0.1055(9)
H40 H 0.9355 0.3299 0.0800
H42 H 0.9611 0.3290 0.1317
H43 H 0.9839 0.3860 0.0408
C42 C 0.6820(16) 0.3845(5) 0.1635(6)
H46 H 0.6219 0.3933 0.1552
C43 C 0.6364(13) 0.3471(6) 0.2236(6)
H47 H 0.6342 0.3236 0.2170
C44 C 0.5394(19) 0.3602(7) 0.2141(9)
H48 H 0.5141 0.3579 0.1827
H49 H 0.5413 0.3834 0.2212
C45 C 0.4732(16) 0.3429(7) 0.2398(7)
H50 H 0.4644 0.3201 0.2307
H51 H 0.4124 0.3537 0.2344
C46 C 0.5206(16) 0.3451(7) 0.2902(8)
H52 H 0.5194 0.3678 0.2998
H53 H 0.4843 0.3322 0.3072
C47 C 0.6184(17) 0.3333(7) 0.2995(8)
H54 H 0.6198 0.3100 0.2931
H55 H 0.6455 0.3365 0.3306
C48 C 0.6748(13) 0.3517(5) 0.2720(6)
H56 H 0.6725 0.3752 0.2789
C49 C 0.8239(17) 0.3314(6) 0.3191(6)
H57 H 0.7917 0.3291 0.3421
C50 C 0.9239(8) 0.3249(4) 0.3250(5)
C51 C 0.9858(11) 0.3284(4) 0.2963(4)
C55 C 0.9573(10) 0.3150(4) 0.3684(5)
H59 H 0.9159 0.3126 0.3876
N9 N 0.3340(17) 0.3953(6) 0.0551(10)
C121 C 0.398(2) 0.4114(9) 0.0323(10)
H137 H 0.3858 0.4112 0.0016
N12 N 0.8365(19) 0.3983(7) 0.5837(8)
C128 C 0.880(2) 0.3832(9) 0.5540(10)
H152 H 0.8414 0.3664 0.5402
C129 C 0.902(3) 0.4174(13) 0.6176(15)
H153 H 0.8675 0.4275 0.6376
H154 H 0.9488 0.4030 0.6338
H155 H 0.9320 0.4342 0.6035
C130 C 0.744(2) 0.3951(10) 0.5884(13)
H156 H 0.7331 0.4088 0.6123
H157 H 0.7024 0.4017 0.5616
H158 H 0.7313 0.3726 0.5947
C131 C 0.356(3) 0.3949(14) 0.1007(10)
H159 H 0.4111 0.4080 0.1107
H160 H 0.3044 0.4038 0.1121
H161 H 0.3675 0.3727 0.1108
C132 C 0.258(3) 0.3789(13) 0.0294(12)
H163 H 0.2636 0.3557 0.0353
H164 H 0.2005 0.3868 0.0366
Cu7 Cu 0.3907(3) 0.69774(8) 0.21935(11)
Cu8 Cu 0.6687(3) 0.45067(9) 0.27237(11)
N17 N 0.4859(11) 0.7077(4) 0.2714(5)
N18 N 0.4990(14) 0.6875(5) 0.1956(6)
N19 N 0.7234(13) 0.4665(5) 0.2219(6)
N20 N 0.7878(14) 0.4352(5) 0.2936(6)
O41 O 0.2082(12) 0.7642(5) 0.4253(5)
O42 O 0.3595(12) 0.7605(5) 0.4460(5)
O43 O 0.2945(12) 0.7101(4) 0.2460(5)
O44 O 0.3070(12) 0.6826(4) 0.1667(5)
O45 O 0.4459(15) 0.5819(5) 0.0435(6)
O46 O 0.2842(14) 0.5744(5) 0.0230(6)
O47 O 0.4482(12) 0.5028(4) 0.0406(5)
O48 O 0.3182(14) 0.5074(6) 0.0622(6)
O49 O 0.5451(13) 0.4588(5) 0.2440(6)
O50 O 0.6244(13) 0.4392(5) 0.3251(6)
O51 O 0.7245(16) 0.3332(5) 0.4764(6)
O52 O 0.8622(15) 0.3394(6) 0.4592(6)
O54 O 0.1160(13) 0.5189(5) 0.0184(6)
C193 C 0.2853(17) 0.7572(7) 0.4168(8)
C194 C 0.2893(11) 0.7457(4) 0.3713(4)
C195 C 0.2052(9) 0.7419(4) 0.3412(5)
H233 H 0.1485 0.7467 0.3494
C196 C 0.2058(9) 0.7308(4) 0.2987(5)
C197 C 0.2905(12) 0.7236(4) 0.2863(4)
C198 C 0.3746(9) 0.7275(5) 0.3165(5)
C199 C 0.3740(9) 0.7385(4) 0.3590(5)
H234 H 0.4303 0.7411 0.3792
C200 C 0.1086(14) 0.7226(5) 0.2680(7)
C201 C 0.0278(15) 0.7362(5) 0.2887(8)
H235 H 0.0375 0.7592 0.2946
H237 H 0.0268 0.7248 0.3158
C202 C 0.0998(19) 0.6861(5) 0.2574(8)
H238 H 0.1033 0.6738 0.2842
H239 H 0.0406 0.6819 0.2380
H240 H 0.1500 0.6795 0.2432
C203 C 0.7550(14) 0.7051(7) 0.2877(7)
H241 H 0.7646 0.6827 0.2983
H242 H 0.8050 0.7185 0.3044
C204 C 0.103(2) 0.7422(6) 0.2248(7)
H243 H 0.1085 0.7652 0.2314
H244 H 0.1531 0.7355 0.2107
H245 H 0.0437 0.7380 0.2055
C205 C 0.4658(17) 0.7212(6) 0.3102(7)
H246 H 0.5158 0.7263 0.3331
C206 C 0.5829(12) 0.6991(5) 0.2666(6)
H247 H 0.5919 0.6759 0.2747
C207 C 0.6614(18) 0.7174(8) 0.2953(9)
H248 H 0.6579 0.7143 0.3261
H249 H 0.6555 0.7407 0.2887
C208 C 0.7595(12) 0.7064(6) 0.2360(6)
H250 H 0.7577 0.7290 0.2258
H251 H 0.8169 0.6962 0.2310
C209 C 0.6744(16) 0.6877(8) 0.2119(9)
H252 H 0.6768 0.6869 0.1807
H253 H 0.6781 0.6653 0.2228
C210 C 0.5860(12) 0.7013(6) 0.2164(6)
H254 H 0.5856 0.7246 0.2083
C211 C 0.4855(14) 0.6624(6) 0.1635(7)
H255 H 0.5400 0.6508 0.1621
C212 C 0.4093(9) 0.6518(4) 0.1345(5)
C213 C 0.3195(11) 0.6632(3) 0.1352(4)
C214 C 0.2424(9) 0.6500(4) 0.1066(5)
C215 C 0.2551(10) 0.6252(4) 0.0773(5)
H256 H 0.2036 0.6163 0.0582
C216 C 0.3450(13) 0.6138(3) 0.0767(5)
C217 C 0.4221(9) 0.6270(4) 0.1053(6)
H257 H 0.4822 0.6194 0.1048
C218 C 0.1421(17) 0.6659(6) 0.1022(8)
C219 C 0.1496(18) 0.7042(7) 0.1018(9)
H258 H 0.1755 0.7110 0.0770
H259 H 0.0882 0.7136 0.0995
H260 H 0.1896 0.7116 0.1286
C220 C 0.101(2) 0.6570(9) 0.1421(9)
H261 H 0.0949 0.6336 0.1437
H262 H 0.1415 0.6649 0.1684
H263 H 0.0401 0.6670 0.1393
C221 C 0.0666(16) 0.6491(6) 0.0650(8)
H264 H 0.0832 0.6526 0.0368
H265 H 0.0646 0.6259 0.0707
H266 H 0.0060 0.6585 0.0649
C222 C 0.4017(17) 0.5000(7) 0.0705(8)
C223 C 0.3671(18) 0.5860(6) 0.0490(6)
C224 C 0.4420(11) 0.4892(4) 0.1154(4)
C225 C 0.5385(11) 0.4860(4) 0.1297(5)
H267 H 0.5788 0.4905 0.1106
C226 C 0.5749(8) 0.4760(4) 0.1728(5)
C227 C 0.5148(12) 0.4693(4) 0.2015(4)
C228 C 0.4183(11) 0.4725(4) 0.1871(5)
C229 C 0.3819(8) 0.4825(4) 0.1441(6)
H268 H 0.3173 0.4846 0.1344
C230 C 0.2427(14) 0.4747(6) 0.1942(7)
H269 H 0.2293 0.4618 0.1678
H270 H 0.2014 0.4684 0.2134
H271 H 0.2336 0.4976 0.1868
C231 C 0.3458(15) 0.4690(6) 0.2179(7)
C232 C 0.346(2) 0.4317(6) 0.2266(9)
H272 H 0.3295 0.4202 0.1990
H273 H 0.4069 0.4250 0.2418
H274 H 0.3003 0.4267 0.2444
C233 C 0.3708(19) 0.4891(6) 0.2602(8)
H275 H 0.3699 0.5120 0.2530
H276 H 0.3258 0.4848 0.2784
H277 H 0.4324 0.4830 0.2758
C234 C 0.6764(16) 0.4758(6) 0.1851(7)
H278 H 0.7097 0.4830 0.1642
C235 C 0.8792(16) 0.4732(8) 0.1984(9)
H279 H 0.8623 0.4945 0.1849
H280 H 0.8623 0.4564 0.1760
C237 C 0.9639(19) 0.4360(8) 0.2831(9)
H283 H 0.9793 0.4532 0.3050
H284 H 0.9835 0.4151 0.2970
C238 C 0.8126(18) 0.4171(6) 0.3254(7)
H285 H 0.8730 0.4085 0.3287
C239 C 0.8264(11) 0.4674(5) 0.2364(6)
H286 H 0.8414 0.4858 0.2570
C240 C 0.9866(13) 0.4720(7) 0.2178(8)
C241 C 0.8531(12) 0.4357(5) 0.2627(6)
H289 H 0.8389 0.4170 0.2426
C242 C 0.7584(12) 0.4068(5) 0.3596(5)
C243 C 0.6696(13) 0.4199(4) 0.3584(5)
C244 C 0.6191(10) 0.4109(4) 0.3903(6)
C245 C 0.6574(12) 0.3888(4) 0.4233(5)
H290 H 0.6235 0.3828 0.4447
C246 C 0.7462(12) 0.3757(4) 0.4245(5)
C247 C 0.7967(10) 0.3847(4) 0.3926(5)
H291 H 0.8561 0.3760 0.3933
C248 C 0.443(2) 0.4132(8) 0.3559(9)
H292 H 0.4601 0.4160 0.3277
H293 H 0.4345 0.3902 0.3610
H294 H 0.3859 0.4248 0.3564
C249 C 0.5220(16) 0.4267(6) 0.3922(9)
C250 C 0.4939(19) 0.4220(7) 0.4369(8)
H295 H 0.5426 0.4304 0.4599
H296 H 0.4364 0.4336 0.4371
H297 H 0.4850 0.3990 0.4417
C251 C 0.540(2) 0.4646(6) 0.3902(9)
H298 H 0.5585 0.4698 0.3628
H299 H 0.4838 0.4763 0.3922
H300 H 0.5895 0.4708 0.4144
C252 C 0.7780(16) 0.3470(6) 0.4549(6)
N22 N 0.0514(12) 0.5217(6) 0.0789(6)
C254 C 0.1070(18) 0.5368(7) 0.0494(8)
H302 H 0.1328 0.5578 0.0537
C255 C 0.0220(19) 0.4878(6) 0.0795(10)
H305 H 0.0763 0.4738 0.0853
C256 C 0.029(3) 0.5488(8) 0.1072(11)
H306 H 0.0577 0.5688 0.0998
H308 H 0.0534 0.5435 0.1377
H319 H 0.7428 0.3828 0.0013
Cd12 Cd 0.5000 0.75451(6) 0.5000
Cd14 Cd 0.75734(16) 0.27976(5) 0.49438(6)
Cd16 Cd 0.74266(16) 0.77976(5) 0.50562(6)
Cd18 Cd 0.25734(16) 0.77976(5) 0.49438(6)
O60 O 0.9426(12) 0.2233(4) 0.5426(6)
O61 O 0.9625(11) 0.2984(4) 0.5405(5)
O66 O 0.8595(12) 0.2605(5) 0.4460(5)
Cd1_2 Cd 0.5000 0.54667(7) 1.0000
Cd6_2 Cd 0.5000 0.46055(8) 1.0000
Cu3 Cu 0.6093(3) 0.69774(8) 0.78065(11)
Cu4 Cu 0.3313(3) 0.45067(9) 0.72763(11)
N5 N 0.5141(11) 0.7077(4) 0.7286(5)
N6 N 0.5010(14) 0.6875(5) 0.8044(6)
N7 N 0.2766(13) 0.4665(5) 0.7781(6)
N8 N 0.2122(14) 0.4352(5) 0.7064(6)
O13 O 0.7918(12) 0.7642(5) 0.5747(5)
O14 O 0.6405(12) 0.7605(5) 0.5540(5)
O15 O 0.7055(12) 0.7101(4) 0.7540(5)
O16 O 0.6930(12) 0.6826(4) 0.8333(5)
O17 O 0.5541(15) 0.5819(5) 0.9565(6)
O18 O 0.7158(14) 0.5744(5) 0.9770(6)
O19 O 0.5518(12) 0.5028(4) 0.9594(5)
O20 O 0.6818(14) 0.5074(6) 0.9378(6)
O21 O 0.4549(13) 0.4588(5) 0.7560(6)
O22 O 0.3756(13) 0.4392(5) 0.6749(6)
O26 O 0.8840(13) 0.5189(5) 0.9816(6)
C61 C 0.7147(17) 0.7572(7) 0.5832(8)
C62 C 0.7107(11) 0.7457(4) 0.6287(4)
C63 C 0.7948(9) 0.7419(4) 0.6588(5)
H69 H 0.8515 0.7467 0.6506
C64 C 0.7942(9) 0.7308(4) 0.7013(5)
C65 C 0.7095(12) 0.7236(4) 0.7137(4)
C66 C 0.6254(9) 0.7275(5) 0.6835(5)
C67 C 0.6260(9) 0.7385(4) 0.6410(5)
H70 H 0.5697 0.7411 0.6208
C68 C 0.8914(14) 0.7226(5) 0.7320(7)
C69 C 0.9722(15) 0.7362(5) 0.7113(8)
H71 H 0.9625 0.7592 0.7054
H73 H 0.9732 0.7248 0.6842
C70 C 0.9002(19) 0.6861(5) 0.7426(8)
H74 H 0.8967 0.6738 0.7158
H75 H 0.9594 0.6819 0.7620
H76 H 0.8500 0.6795 0.7568
C71 C 0.2450(14) 0.7051(7) 0.7123(7)
H77 H 0.2354 0.6827 0.7017
H78 H 0.1950 0.7185 0.6956
C72 C 0.897(2) 0.7422(6) 0.7752(7)
H79 H 0.8915 0.7652 0.7686
H80 H 0.8469 0.7355 0.7893
H81 H 0.9563 0.7380 0.7945
C73 C 0.5342(17) 0.7212(6) 0.6898(7)
H82 H 0.4842 0.7263 0.6669
C74 C 0.4171(12) 0.6991(5) 0.7334(6)
H83 H 0.4081 0.6759 0.7253
C75 C 0.3386(18) 0.7174(8) 0.7047(9)
H84 H 0.3421 0.7143 0.6739
H85 H 0.3445 0.7407 0.7113
C76 C 0.2405(12) 0.7064(6) 0.7640(6)
H86 H 0.2423 0.7290 0.7742
H87 H 0.1831 0.6962 0.7690
C77 C 0.3256(16) 0.6877(8) 0.7881(9)
H88 H 0.3232 0.6869 0.8193
H89 H 0.3219 0.6653 0.7772
C78 C 0.4140(12) 0.7013(6) 0.7836(6)
H90 H 0.4144 0.7246 0.7917
C79 C 0.5145(14) 0.6624(6) 0.8365(7)
H91 H 0.4600 0.6508 0.8379
C80 C 0.5907(9) 0.6518(4) 0.8655(5)
C81 C 0.6805(11) 0.6632(3) 0.8648(4)
C82 C 0.7576(9) 0.6500(4) 0.8934(5)
C83 C 0.7449(10) 0.6252(4) 0.9227(5)
H92 H 0.7964 0.6163 0.9418
C84 C 0.6550(13) 0.6138(3) 0.9233(5)
C85 C 0.5779(9) 0.6270(4) 0.8947(6)
H93 H 0.5178 0.6194 0.8952
C86 C 0.8579(17) 0.6659(6) 0.8978(8)
C87 C 0.8504(18) 0.7042(7) 0.8982(9)
H94 H 0.8245 0.7110 0.9230
H95 H 0.9118 0.7136 0.9005
H96 H 0.8104 0.7116 0.8714
C88 C 0.899(2) 0.6570(9) 0.8579(9)
H97 H 0.9051 0.6336 0.8563
H98 H 0.8585 0.6649 0.8316
H99 H 0.9599 0.6670 0.8607
C89 C 0.9334(16) 0.6491(6) 0.9350(8)
H100 H 0.9168 0.6526 0.9632
H101 H 0.9354 0.6259 0.9293
H102 H 0.9940 0.6585 0.9351
C90 C 0.5983(17) 0.5000(7) 0.9295(8)
C91 C 0.6329(18) 0.5860(6) 0.9510(6)
C92 C 0.5580(11) 0.4892(4) 0.8846(4)
C93 C 0.4615(11) 0.4860(4) 0.8703(5)
H103 H 0.4212 0.4905 0.8894
C94 C 0.4251(8) 0.4760(4) 0.8272(5)
C95 C 0.4852(12) 0.4693(4) 0.7985(4)
C96 C 0.5817(11) 0.4725(4) 0.8129(5)
C97 C 0.6181(8) 0.4825(4) 0.8559(6)
H104 H 0.6827 0.4846 0.8656
C98 C 0.7573(14) 0.4747(6) 0.8058(7)
H105 H 0.7707 0.4618 0.8322
H106 H 0.7986 0.4684 0.7866
H107 H 0.7664 0.4976 0.8132
C99 C 0.6542(15) 0.4690(6) 0.7821(7)
C100 C 0.654(2) 0.4317(6) 0.7734(9)
H108 H 0.6705 0.4202 0.8010
H109 H 0.5931 0.4250 0.7582
H110 H 0.6997 0.4267 0.7556
C101 C 0.6292(19) 0.4891(6) 0.7398(8)
H111 H 0.6301 0.5120 0.7470
H112 H 0.6742 0.4848 0.7216
H113 H 0.5676 0.4830 0.7242
C102 C 0.3236(16) 0.4758(6) 0.8149(7)
H114 H 0.2903 0.4830 0.8358
C103 C 0.1208(16) 0.4732(8) 0.8016(9)
H115 H 0.1377 0.4945 0.8151
H116 H 0.1377 0.4564 0.8240
C105 C 0.0361(19) 0.4360(8) 0.7169(9)
H119 H 0.0207 0.4532 0.6950
H120 H 0.0165 0.4151 0.7030
C106 C 0.1874(18) 0.4171(6) 0.6746(7)
H121 H 0.1270 0.4085 0.6713
C107 C 0.1736(11) 0.4674(5) 0.7636(6)
H122 H 0.1586 0.4858 0.7430
C108 C 0.0134(13) 0.4720(7) 0.7822(8)
C109 C 0.1469(12) 0.4357(5) 0.7373(6)
H125 H 0.1611 0.4170 0.7574
C110 C 0.2416(12) 0.4068(5) 0.6404(5)
C111 C 0.3304(13) 0.4199(4) 0.6416(5)
C112 C 0.3809(10) 0.4109(4) 0.6097(6)
C113 C 0.3426(12) 0.3888(4) 0.5767(5)
H126 H 0.3765 0.3828 0.5553
C114 C 0.2538(12) 0.3757(4) 0.5755(5)
C115 C 0.2033(10) 0.3847(4) 0.6074(5)
H127 H 0.1439 0.3760 0.6067
C116 C 0.557(2) 0.4132(8) 0.6441(9)
H128 H 0.5399 0.4160 0.6723
H129 H 0.5655 0.3902 0.6390
H130 H 0.6141 0.4248 0.6436
C117 C 0.4780(16) 0.4267(6) 0.6078(9)
C118 C 0.5061(19) 0.4220(7) 0.5631(8)
H131 H 0.4574 0.4304 0.5401
H132 H 0.5636 0.4336 0.5629
H133 H 0.5150 0.3990 0.5583
C119 C 0.460(2) 0.4646(6) 0.6098(9)
H134 H 0.4415 0.4698 0.6372
H135 H 0.5162 0.4763 0.6078
H136 H 0.4105 0.4708 0.5856
C120 C 0.2220(16) 0.3470(6) 0.5451(6)
N10 N 0.9486(12) 0.5217(6) 0.9211(6)
C122 C 0.8930(18) 0.5368(7) 0.9506(8)
H138 H 0.8672 0.5578 0.9463
C123 C 0.9780(19) 0.4878(6) 0.9205(10)
H141 H 0.9237 0.4738 0.9147
C124 C 0.971(3) 0.5488(8) 0.8928(11)
H142 H 0.9423 0.5688 0.9002
H144 H 0.9466 0.5435 0.8623
H162 H 0.2572 0.3828 0.9987
Cd7 Cd 0.25749(16) 0.52143(5) 0.99441(6)
Cu5 Cu 0.3908(3) 0.60278(9) 0.71851(11)
Cu6 Cu 0.1691(3) 0.34984(9) 0.77352(11)
N13 N 0.4974(13) 0.6215(4) 0.6996(6)
N14 N 0.4848(11) 0.5835(4) 0.7635(5)
N15 N 0.2996(15) 0.3626(6) 0.8001(6)
N16 N 0.2221(14) 0.3417(5) 0.7240(6)
O29 O 0.2883(14) 0.7258(5) 0.5202(7)
O30 O 0.4426(12) 0.7233(4) 0.5426(6)
O31 O 0.3001(12) 0.6189(5) 0.6715(5)
O32 O 0.2856(11) 0.5898(5) 0.7447(5)
O33 O 0.3655(13) 0.5412(5) 0.9443(6)
O34 O 0.2080(14) 0.5403(5) 0.9261(6)
O35 O 0.3582(17) 0.4660(6) 0.9545(7)
O36 O 0.2146(16) 0.4690(5) 0.9715(6)
O37 O 0.1227(12) 0.3642(5) 0.8230(5)
O38 O 0.0443(13) 0.3420(5) 0.7424(5)
O53 O 0.5350(15) 0.4251(5) 0.9480(7)
C133 C 0.3537(15) 0.7127(5) 0.5406(7)
C134 C 0.3479(15) 0.6857(5) 0.5750(7)
C135 C 0.2617(16) 0.6718(6) 0.5751(7)
H165 H 0.2123 0.6793 0.5534
C136 C 0.2388(15) 0.6479(6) 0.6033(8)
C137 C 0.3187(16) 0.6400(5) 0.6415(7)
C138 C 0.4113(14) 0.6507(5) 0.6358(7)
C139 C 0.4242(13) 0.6731(5) 0.6035(7)
H166 H 0.4846 0.6795 0.6014
C140 C 0.149(2) 0.5978(6) 0.5943(10)
H167 H 0.0886 0.5878 0.5933
H168 H 0.1683 0.5942 0.5667
H169 H 0.1940 0.5882 0.6178
C141 C 0.1420(19) 0.6354(6) 0.6024(8)
C142 C 0.106(2) 0.6456(9) 0.6428(9)
H170 H 0.0433 0.6371 0.6409
H171 H 0.1461 0.6371 0.6687
H172 H 0.1041 0.6691 0.6444
C143 C 0.0793(16) 0.6428(6) 0.5569(7)
H173 H 0.0169 0.6348 0.5563
H174 H 0.0772 0.6661 0.5519
H175 H 0.1048 0.6322 0.5342
C144 C 0.5079(15) 0.6394(5) 0.6624(6)
H176 H 0.5652 0.6440 0.6546
C145 C 0.5872(11) 0.6157(5) 0.7313(6)
H177 H 0.5924 0.6329 0.7538
C146 C 0.6788(18) 0.6174(8) 0.7119(9)
H178 H 0.6844 0.6388 0.6989
H179 H 0.6770 0.6008 0.6892
C147 C 0.7647(17) 0.6111(6) 0.7508(8)
H180 H 0.8221 0.6101 0.7393
H181 H 0.7703 0.6291 0.7717
C148 C 0.7518(14) 0.5797(6) 0.7736(8)
H182 H 0.8057 0.5765 0.7974
H183 H 0.7509 0.5618 0.7528
C149 C 0.6623(16) 0.5778(6) 0.7928(8)
H184 H 0.6637 0.5942 0.8157
H185 H 0.6566 0.5562 0.8055
C150 C 0.5787(11) 0.5842(5) 0.7539(6)
H186 H 0.5808 0.5668 0.7321
C151 C 0.4677(15) 0.5733(6) 0.8035(6)
H187 H 0.5183 0.5659 0.8245
C152 C 0.3772(8) 0.5735(4) 0.8146(5)
C153 C 0.2930(11) 0.5811(4) 0.7863(4)
C154 C 0.2085(8) 0.5773(4) 0.8003(5)
C155 C 0.2081(9) 0.5659(4) 0.8427(5)
H188 H 0.1515 0.5634 0.8520
C156 C 0.2923(11) 0.5583(4) 0.8710(4)
C157 C 0.3769(9) 0.5621(4) 0.8570(5)
H189 H 0.4332 0.5570 0.8760
C158 C 0.1124(14) 0.5857(6) 0.7698(7)
C159 C 0.097(2) 0.5668(6) 0.7252(8)
H190 H 0.0957 0.5436 0.7307
H191 H 0.0382 0.5734 0.7071
H192 H 0.1472 0.5718 0.7102
C160 C 0.0275(15) 0.5799(6) 0.7919(8)
H193 H 0.0229 0.5569 0.7982
H194 H 0.0356 0.5922 0.8189
C161 C 0.114(2) 0.6229(6) 0.7609(9)
H196 H 0.1661 0.6280 0.7471
H197 H 0.0566 0.6293 0.7418
H198 H 0.1211 0.6346 0.7884
C162 C 0.2882(18) 0.5464(7) 0.9169(9)
C163 C 0.275(2) 0.4567(7) 0.9518(10)
C164 C 0.2361(12) 0.4278(3) 0.9214(5)
C165 C 0.2897(9) 0.4165(4) 0.8919(6)
H199 H 0.3505 0.4242 0.8936
C166 C 0.2524(10) 0.3934(4) 0.8599(5)
C167 C 0.1616(11) 0.3818(3) 0.8574(4)
C168 C 0.1080(9) 0.3932(4) 0.8869(5)
C169 C 0.1452(11) 0.4162(4) 0.9189(5)
H200 H 0.1093 0.4238 0.9386
C170 C 0.0166(15) 0.3744(6) 0.8933(6)
C172 C 0.020(2) 0.3370(6) 0.8945(9)
H204 H 0.0645 0.3299 0.9200
H206 H 0.0389 0.3290 0.8683
H207 H 0.0161 0.3860 0.9592
C174 C 0.3180(16) 0.3845(5) 0.8365(6)
H210 H 0.3781 0.3933 0.8448
C175 C 0.3636(13) 0.3471(6) 0.7764(6)
H211 H 0.3658 0.3236 0.7830
C176 C 0.4606(19) 0.3602(7) 0.7859(9)
H212 H 0.4859 0.3579 0.8173
H213 H 0.4587 0.3834 0.7788
C177 C 0.5268(16) 0.3429(7) 0.7602(7)
H214 H 0.5356 0.3201 0.7693
H215 H 0.5876 0.3537 0.7656
C178 C 0.4794(16) 0.3451(7) 0.7098(8)
H216 H 0.4806 0.3678 0.7002
H217 H 0.5157 0.3322 0.6928
C179 C 0.3816(17) 0.3333(7) 0.7005(8)
H218 H 0.3802 0.3100 0.7069
H219 H 0.3545 0.3365 0.6694
C180 C 0.3252(13) 0.3517(5) 0.7280(6)
H220 H 0.3275 0.3752 0.7211
C181 C 0.1761(17) 0.3314(6) 0.6809(6)
H221 H 0.2083 0.3291 0.6579
C182 C 0.0761(8) 0.3249(4) 0.6750(5)
C183 C 0.0142(11) 0.3284(4) 0.7037(4)
C187 C 0.0427(10) 0.3150(4) 0.6316(5)
H223 H 0.0841 0.3126 0.6124
N21 N 0.6660(17) 0.3953(6) 0.9449(10)
C253 C 0.602(2) 0.4114(9) 0.9677(10)
H301 H 0.6142 0.4112 0.9984
C260 C 0.644(3) 0.3949(14) 0.8993(10)
H316 H 0.5889 0.4080 0.8893
H317 H 0.6956 0.4038 0.8879
H318 H 0.6325 0.3727 0.8892
C261 C 0.742(3) 0.3789(13) 0.9706(12)
H320 H 0.7364 0.3557 0.9647
H321 H 0.7995 0.3868 0.9634
C104 C 0.9847(15) 0.4424(7) 0.7576(8)
H117 H 0.9175 0.4434 0.7464
H118 H 0.9968 0.4238 0.7776
H123 H 0.9796 0.4736 0.8062
H124 H 0.9962 0.4908 0.7630
O39 O 0.8177(13) 0.2942(6) 0.5613(5)
O55 O 0.6189(14) 0.2698(6) 0.5175(6)
H195 H 0.9710 0.5870 0.7723
C171 C 0.9446(19) 0.3808(8) 0.8518(8)
H201 H 0.9363 0.4040 0.8475
H202 H 0.9658 0.3714 0.8270
H203 H 0.8859 0.3709 0.8544
H205 H 0.9590 0.3285 0.8957
C173 C 0.9735(19) 0.3893(7) 0.9315(7)
H208 H 0.9629 0.4124 0.9265
H209 H 0.9149 0.3786 0.9323
C184 C 0.9191(10) 0.3221(4) 0.6890(4)
C185 C 0.8858(8) 0.3122(4) 0.6457(5)
H222 H 0.8221 0.3080 0.6359
C186 C 0.9476(11) 0.3087(4) 0.6169(3)
C188 C 0.8482(16) 0.3300(6) 0.7212(7)
C189 C 0.848(2) 0.3667(7) 0.7335(9)
H224 H 0.9107 0.3738 0.7454
H225 H 0.8226 0.3794 0.7076
H226 H 0.8094 0.3699 0.7552
C190 C 0.877(2) 0.3096(7) 0.7641(8)
H227 H 0.9385 0.3164 0.7793
H228 H 0.8327 0.3132 0.7828
H229 H 0.8783 0.2867 0.7569
C191 C 0.7500(17) 0.3161(7) 0.7017(9)
H230 H 0.7554 0.2932 0.6948
H231 H 0.7102 0.3184 0.7229
H232 H 0.7234 0.3279 0.6753
C192 C 0.9063(16) 0.2991(6) 0.5704(8)
N23 N 0.5438(16) 0.2757(7) 0.5748(7)
C257 C 0.5911(17) 0.2889(7) 0.5432(8)
H309 H 0.6013 0.3114 0.5417
C258 C 0.537(4) 0.2414(7) 0.5772(15)
H310 H 0.5737 0.2314 0.5582
H311 H 0.5599 0.2344 0.6071
H312 H 0.4724 0.2349 0.5681
C259 C 0.498(2) 0.2973(7) 0.5987(10)
H313 H 0.5125 0.3196 0.5921
H314 H 0.4314 0.2939 0.5907
H315 H 0.5189 0.2934 0.6298
O58 O 0.7883(14) 0.2258(5) 0.5202(7)
O63 O 0.7082(12) 0.2642(5) 0.4253(5)
Cd1_3 Cd -0.0000 0.04667(7) 0.0000
Cd2_2 Cd 0.24251(16) 0.02143(5) 0.00559(6)
Cu1_2 Cu 0.1092(3) 0.10278(9) 0.28149(11)
N1_2 N 0.0026(13) 0.1215(4) 0.3004(6)
N2_2 N 0.0152(11) 0.0835(4) 0.2365(5)
O3_2 O 0.1999(12) 0.1189(5) 0.3285(5)
O4_2 O 0.2144(11) 0.0898(5) 0.2553(5)
O5_2 O 0.1345(13) 0.0412(5) 0.0557(6)
O6_2 O 0.2920(14) 0.0403(5) 0.0739(6)
C1_2 C 0.1463(15) 0.2127(5) 0.4594(7)
C2_2 C 0.1521(15) 0.1857(5) 0.4250(7)
C3_2 C 0.2383(16) 0.1718(6) 0.4249(7)
H1_2 H 0.2877 0.1793 0.4466
C4_2 C 0.2612(15) 0.1479(6) 0.3967(8)
C5_2 C 0.1813(16) 0.1400(5) 0.3585(7)
C6_2 C 0.0887(14) 0.1507(5) 0.3642(7)
C7_2 C 0.0758(13) 0.1731(5) 0.3965(7)
H2_2 H 0.0154 0.1795 0.3986
C8_2 C 0.351(2) 0.0978(6) 0.4057(10)
H3_2 H 0.4114 0.0878 0.4067
H4_2 H 0.3317 0.0942 0.4333
H5_2 H 0.3060 0.0882 0.3822
C9_2 C 0.3580(19) 0.1354(6) 0.3976(8)
C10_2 C 0.394(2) 0.1456(9) 0.3572(9)
H6_2 H 0.4567 0.1371 0.3591
H7_2 H 0.3539 0.1371 0.3313
H8_2 H 0.3959 0.1691 0.3556
C11_2 C 0.4207(16) 0.1428(6) 0.4431(7)
H9_2 H 0.4831 0.1348 0.4437
H10_2 H 0.4228 0.1661 0.4481
H11_2 H 0.3952 0.1322 0.4658
C19_2 C 0.0323(15) 0.0733(6) 0.1965(6)
C20_2 C 0.1228(8) 0.0735(4) 0.1854(5)
C21_2 C 0.2070(11) 0.0811(4) 0.2137(4)
C22_2 C 0.2915(8) 0.0773(4) 0.1997(5)
C23_2 C 0.2919(9) 0.0659(4) 0.1573(5)
H24_2 H 0.3485 0.0634 0.1480
C24_2 C 0.2077(11) 0.0583(4) 0.1290(4)
C25_2 C 0.1231(9) 0.0621(4) 0.1430(5)
H25_2 H 0.0668 0.0570 0.1240
C26_2 C 0.3876(14) 0.0857(6) 0.2302(7)
C27_2 C 0.403(2) 0.0668(6) 0.2748(8)
H26_2 H 0.4043 0.0436 0.2693
H27_2 H 0.4618 0.0734 0.2929
H28_2 H 0.3528 0.0718 0.2898
C28_2 C 0.4725(15) 0.0799(6) 0.2081(8)
H29_2 H 0.4771 0.0569 0.2018
H30_2 H 0.4644 0.0922 0.1811
H31_2 H 0.5290 0.0870 0.2277
C29_2 C 0.386(2) 0.1229(6) 0.2391(9)
H32_2 H 0.3339 0.1280 0.2529
H33_2 H 0.4434 0.1293 0.2582
H34_2 H 0.3789 0.1346 0.2116
C30_2 C 0.2118(18) 0.0464(7) 0.0831(9)
C203_2 C 0.2550(14) 0.2051(7) 0.2877(7)
H241_2 H 0.2646 0.1827 0.2983
H242_2 H 0.3050 0.2185 0.3044
H246_2 H 0.0158 0.2263 0.3331
C206_2 C 0.0829(12) 0.1991(5) 0.2666(6)
H247_2 H 0.0919 0.1759 0.2747
C207_2 C 0.1614(18) 0.2174(8) 0.2953(9)
H248_2 H 0.1579 0.2143 0.3261
H249_2 H 0.1555 0.2407 0.2887
C208_2 C 0.2595(12) 0.2064(6) 0.2360(6)
H250_2 H 0.2577 0.2290 0.2258
H251_2 H 0.3169 0.1962 0.2310
C209_2 C 0.1744(16) 0.1877(8) 0.2119(9)
H252_2 H 0.1768 0.1869 0.1807
H253_2 H 0.1781 0.1653 0.2228
C210_2 C 0.0860(12) 0.2013(6) 0.2164(6)
H254_2 H 0.0856 0.2246 0.2083
H255_2 H 0.0400 0.1508 0.1621
Cd1_4 Cd 0.0000 0.04667(7) 1.0000
Cu3_2 Cu 0.1093(3) 0.19774(8) 0.78065(11)
N5_2 N 0.0141(11) 0.2077(4) 0.7286(5)
N6_2 N 0.0010(14) 0.1875(5) 0.8044(6)
O15_2 O 0.2055(12) 0.2101(4) 0.7540(5)
O16_2 O 0.1930(12) 0.1826(4) 0.8333(5)
O17_2 O 0.0541(15) 0.0819(5) 0.9565(6)
O18_2 O 0.2158(14) 0.0744(5) 0.9770(6)
O19_2 O 0.0518(12) 0.0028(4) 0.9594(5)
O20_2 O 0.1818(14) 0.0074(6) 0.9378(6)
O26_2 O 0.3840(13) 0.0189(5) 0.9816(6)
C61_2 C 0.2147(17) 0.2572(7) 0.5832(8)
C62_2 C 0.2107(11) 0.2457(4) 0.6287(4)
C63_2 C 0.2948(9) 0.2419(4) 0.6588(5)
H69_2 H 0.3515 0.2467 0.6506
C64_2 C 0.2942(9) 0.2308(4) 0.7013(5)
C65_2 C 0.2095(12) 0.2236(4) 0.7137(4)
C66_2 C 0.1254(9) 0.2275(5) 0.6835(5)
C67_2 C 0.1260(9) 0.2385(4) 0.6410(5)
H70_2 H 0.0697 0.2411 0.6208
C68_2 C 0.3914(14) 0.2226(5) 0.7320(7)
C69_2 C 0.4722(15) 0.2362(5) 0.7113(8)
H71_2 H 0.4625 0.2592 0.7054
H72 H 0.5310 0.2330 0.7314
H73_2 H 0.4732 0.2248 0.6842
C70_2 C 0.4002(19) 0.1861(5) 0.7426(8)
H74_2 H 0.3967 0.1738 0.7158
H75_2 H 0.4594 0.1819 0.7620
H76_2 H 0.3500 0.1795 0.7568
C72_2 C 0.397(2) 0.2422(6) 0.7752(7)
H79_2 H 0.3915 0.2652 0.7686
H80_2 H 0.3469 0.2355 0.7893
H81_2 H 0.4563 0.2380 0.7945
C73_2 C 0.0342(17) 0.2212(6) 0.6898(7)
C79_2 C 0.0145(14) 0.1624(6) 0.8365(7)
C80_2 C 0.0907(9) 0.1518(4) 0.8655(5)
C81_2 C 0.1805(11) 0.1632(3) 0.8648(4)
C82_2 C 0.2576(9) 0.1500(4) 0.8934(5)
C83_2 C 0.2449(10) 0.1252(4) 0.9227(5)
H92_2 H 0.2964 0.1163 0.9418
C84_2 C 0.1550(13) 0.1138(3) 0.9233(5)
C85_2 C 0.0779(9) 0.1270(4) 0.8947(6)
H93_2 H 0.0178 0.1194 0.8952
C86_2 C 0.3579(17) 0.1659(6) 0.8978(8)
C87_2 C 0.3504(18) 0.2042(7) 0.8982(9)
H94_2 H 0.3245 0.2110 0.9230
H95_2 H 0.4118 0.2136 0.9005
H96_2 H 0.3104 0.2116 0.8714
C88_2 C 0.399(2) 0.1570(9) 0.8579(9)
H97_2 H 0.4051 0.1336 0.8563
H98_2 H 0.3585 0.1649 0.8316
H99_2 H 0.4599 0.1670 0.8607
C89_2 C 0.4334(16) 0.1491(6) 0.9350(8)
H100_2 H 0.4168 0.1526 0.9632
H101_2 H 0.4354 0.1259 0.9293
H102_2 H 0.4940 0.1585 0.9351
C90_2 C 0.0983(17) 0.0000(7) 0.9295(8)
C91_2 C 0.1329(18) 0.0860(6) 0.9510(6)
H111_2 H 0.1301 0.0120 0.7470
N10_2 N 0.4486(12) 0.0217(6) 0.9211(6)
C122_2 C 0.3930(18) 0.0368(7) 0.9506(8)
H138_2 H 0.3672 0.0578 0.9463
C124_2 C 0.471(3) 0.0488(8) 0.8928(11)
H142_2 H 0.4423 0.0688 0.9002
H143 H 0.5376 0.0516 0.8974
H144_2 H 0.4466 0.0435 0.8623
C144_2 C 0.0079(15) 0.1394(5) 0.6624(6)
H176_2 H 0.0652 0.1440 0.6546
C145_2 C 0.0872(11) 0.1157(5) 0.7313(6)
H177_2 H 0.0924 0.1329 0.7538
C146_2 C 0.1788(18) 0.1174(8) 0.7119(9)
H178_2 H 0.1844 0.1388 0.6989
H179_2 H 0.1770 0.1008 0.6892
C147_2 C 0.2647(17) 0.1111(6) 0.7508(8)
H180_2 H 0.3221 0.1101 0.7393
H181_2 H 0.2703 0.1291 0.7717
C148_2 C 0.2518(14) 0.0797(6) 0.7736(8)
H182_2 H 0.3057 0.0765 0.7974
H183_2 H 0.2509 0.0618 0.7528
C149_2 C 0.1623(16) 0.0778(6) 0.7928(8)
H184_2 H 0.1637 0.0942 0.8157
H185_2 H 0.1566 0.0562 0.8055
C150_2 C 0.0787(11) 0.0842(5) 0.7539(6)
H186_2 H 0.0808 0.0668 0.7321
H187_2 H 0.0183 0.0659 0.8245
Cd3_3 Cd 0.5000 0.84022(8) 0.5000
Cd6_3 Cd -0.0000 0.96055(8) 0.0000
Cu2_2 Cu 0.3309(3) 0.84984(9) 0.22648(11)
N3_2 N 0.2004(15) 0.8626(6) 0.1999(6)
N4_2 N 0.2779(14) 0.8417(5) 0.2760(6)
O7_2 O 0.1418(17) 0.9660(6) 0.0455(7)
O8_2 O 0.2854(16) 0.9690(5) 0.0285(6)
O9_2 O 0.3773(12) 0.8642(5) 0.1770(5)
O10_2 O 0.4557(13) 0.8420(5) 0.2576(5)
O11_2 O 0.6823(13) 0.7942(6) 0.4387(5)
O12_2 O 0.5375(11) 0.7984(4) 0.4595(5)
O27_2 O 0.8811(14) 0.7698(6) 0.4825(6)
O28_2 O 0.4485(17) 0.8840(6) 0.5396(9)
C31_2 C 0.225(2) 0.9567(7) 0.0482(10)
C32_2 C 0.2639(12) 0.9278(3) 0.0786(5)
C33_2 C 0.2103(9) 0.9165(4) 0.1081(6)
H35_2 H 0.1495 0.9242 0.1064
C34_2 C 0.2476(10) 0.8934(4) 0.1401(5)
C35_2 C 0.3384(11) 0.8818(3) 0.1426(4)
C36_2 C 0.3920(9) 0.8932(4) 0.1131(5)
C37_2 C 0.3548(11) 0.9162(4) 0.0811(5)
H36_2 H 0.3907 0.9238 0.0614
C38_2 C 0.4834(15) 0.8744(6) 0.1067(6)
C39_2 C 0.5554(19) 0.8808(8) 0.1482(8)
H37_2 H 0.5637 0.9040 0.1525
H38_2 H 0.5342 0.8714 0.1730
H39_2 H 0.6141 0.8709 0.1456
C40_2 C 0.480(2) 0.8370(6) 0.1055(9)
H40_2 H 0.4355 0.8299 0.0800
H41_2 H 0.5410 0.8285 0.1043
H42_2 H 0.4611 0.8290 0.1317
C41_2 C 0.5265(19) 0.8893(7) 0.0685(7)
H43_2 H 0.4839 0.8860 0.0408
H44_2 H 0.5371 0.9124 0.0735
H45_2 H 0.5851 0.8786 0.0677
C42_2 C 0.1820(16) 0.8845(5) 0.1635(6)
H46_2 H 0.1219 0.8933 0.1552
C43_2 C 0.1364(13) 0.8471(6) 0.2236(6)
H47_2 H 0.1342 0.8236 0.2170
C44_2 C 0.0394(19) 0.8602(7) 0.2141(9)
H48_2 H 0.0141 0.8579 0.1827
H49_2 H 0.0413 0.8834 0.2212
C46_2 C 0.0206(16) 0.8451(7) 0.2902(8)
H52_2 H 0.0194 0.8678 0.2998
C47_2 C 0.1184(17) 0.8333(7) 0.2995(8)
H54_2 H 0.1198 0.8100 0.2931
H55_2 H 0.1455 0.8365 0.3306
C48_2 C 0.1748(13) 0.8517(5) 0.2720(6)
H56_2 H 0.1725 0.8752 0.2789
C49_2 C 0.3239(17) 0.8314(6) 0.3191(6)
H57_2 H 0.2917 0.8291 0.3421
C50_2 C 0.4239(8) 0.8249(4) 0.3250(5)
C51_2 C 0.4858(11) 0.8284(4) 0.2963(4)
C52_2 C 0.5809(10) 0.8221(4) 0.3110(4)
C53_2 C 0.6142(8) 0.8122(4) 0.3543(5)
H58_2 H 0.6779 0.8080 0.3641
C54_2 C 0.5524(11) 0.8087(4) 0.3831(3)
C55_2 C 0.4573(10) 0.8150(4) 0.3684(5)
H59_2 H 0.4159 0.8126 0.3876
C56_2 C 0.6518(16) 0.8300(6) 0.2788(7)
C57_2 C 0.652(2) 0.8667(7) 0.2665(9)
H60_2 H 0.5893 0.8738 0.2546
H61_2 H 0.6774 0.8794 0.2924
H62_2 H 0.6906 0.8699 0.2448
C58_2 C 0.623(2) 0.8096(7) 0.2359(8)
H63_2 H 0.5615 0.8164 0.2207
H64_2 H 0.6673 0.8132 0.2172
H65_2 H 0.6217 0.7867 0.2431
C59_2 C 0.7500(17) 0.8161(7) 0.2983(9)
H66_2 H 0.7446 0.7932 0.3052
H67_2 H 0.7898 0.8184 0.2771
H68_2 H 0.7766 0.8279 0.3247
C60_2 C 0.5937(16) 0.7991(6) 0.4296(8)
N11_2 N 0.9562(16) 0.7757(7) 0.4252(7)
C125_2 C 0.9089(17) 0.7889(7) 0.4568(8)
H145_2 H 0.8987 0.8114 0.4583
C126_2 C 0.963(4) 0.7414(7) 0.4228(15)
H146_2 H 0.9263 0.7314 0.4418
H147_2 H 0.9401 0.7344 0.3929
H149_2 H 0.9875 0.8196 0.4079
H151_2 H 0.9811 0.7934 0.3702
N12_2 N 0.3365(19) 0.8983(7) 0.5837(8)
C128_2 C 0.380(2) 0.8832(9) 0.5540(10)
H152_2 H 0.3414 0.8664 0.5402
C129_2 C 0.402(3) 0.9174(13) 0.6176(15)
H153_2 H 0.3675 0.9275 0.6376
H154_2 H 0.4488 0.9030 0.6338
H155_2 H 0.4320 0.9342 0.6035
C130_2 C 0.244(2) 0.8951(10) 0.5884(13)
H156_2 H 0.2331 0.9088 0.6123
H157_2 H 0.2024 0.9017 0.5616
H158_2 H 0.2313 0.8726 0.5947
Cu8_2 Cu 0.1687(3) 0.95067(9) 0.27237(11)
N19_2 N 0.2234(13) 0.9665(5) 0.2219(6)
N20_2 N 0.2878(14) 0.9352(5) 0.2936(6)
O49_2 O 0.0451(13) 0.9588(5) 0.2440(6)
O50_2 O 0.1244(13) 0.9392(5) 0.3251(6)
O51_2 O 0.2245(16) 0.8332(5) 0.4764(6)
O52_2 O 0.3622(15) 0.8394(6) 0.4592(6)
C225_2 C 0.0385(11) 0.9860(4) 0.1297(5)
H267_2 H 0.0788 0.9905 0.1106
C226_2 C 0.0749(8) 0.9760(4) 0.1728(5)
C227_2 C 0.0148(12) 0.9693(4) 0.2015(4)
C234_2 C 0.1764(16) 0.9758(6) 0.1851(7)
H278_2 H 0.2097 0.9830 0.1642
C235_2 C 0.3792(16) 0.9732(8) 0.1984(9)
H279_2 H 0.3623 0.9945 0.1849
H280_2 H 0.3623 0.9564 0.1760
C236_2 C 0.5153(15) 0.9424(7) 0.2424(8)
H281_2 H 0.5825 0.9434 0.2536
H282_2 H 0.5032 0.9238 0.2224
C237_2 C 0.4639(19) 0.9360(8) 0.2831(9)
H283_2 H 0.4793 0.9532 0.3050
H284_2 H 0.4835 0.9151 0.2970
C238_2 C 0.3126(18) 0.9171(6) 0.3254(7)
H285_2 H 0.3730 0.9085 0.3287
C239_2 C 0.3264(11) 0.9674(5) 0.2364(6)
H286_2 H 0.3414 0.9858 0.2570
C240_2 C 0.4866(13) 0.9720(7) 0.2178(8)
H287_2 H 0.5204 0.9736 0.1938
H288_2 H 0.5038 0.9908 0.2370
C241_2 C 0.3531(12) 0.9357(5) 0.2627(6)
H289_2 H 0.3389 0.9170 0.2426
C242_2 C 0.2584(12) 0.9068(5) 0.3596(5)
C243_2 C 0.1696(13) 0.9199(4) 0.3584(5)
C244_2 C 0.1191(10) 0.9109(4) 0.3903(6)
C245_2 C 0.1574(12) 0.8888(4) 0.4233(5)
H290_2 H 0.1235 0.8828 0.4447
C246_2 C 0.2462(12) 0.8757(4) 0.4245(5)
C247_2 C 0.2967(10) 0.8847(4) 0.3926(5)
H291_2 H 0.3561 0.8760 0.3933
C249_2 C 0.0220(16) 0.9267(6) 0.3922(9)
H295_2 H 0.0426 0.9304 0.4599
C251_2 C 0.040(2) 0.9646(6) 0.3902(9)
H298_2 H 0.0585 0.9698 0.3628
H300_2 H 0.0895 0.9708 0.4144
C252_2 C 0.2780(16) 0.8470(6) 0.4549(6)
H319_2 H 0.2428 0.8828 0.0013
O56_2 O 0.5515(17) 0.8840(6) 0.4604(9)
N24_2 N 0.6635(19) 0.8983(7) 0.4163(8)
C262_2 C 0.620(2) 0.8832(9) 0.4460(10)
H322_2 H 0.6586 0.8664 0.4598
C263_2 C 0.598(3) 0.9174(13) 0.3824(15)
H323_2 H 0.6325 0.9275 0.3624
H324_2 H 0.5512 0.9030 0.3662
H325_2 H 0.5680 0.9342 0.3965
C264_2 C 0.756(2) 0.8951(10) 0.4116(13)
H326_2 H 0.7669 0.9088 0.3877
H327_2 H 0.7976 0.9017 0.4384
H328_2 H 0.7687 0.8726 0.4053
O61_2 O 0.4625(11) 0.7984(4) 0.5405(5)
O67_2 O 0.7755(16) 0.8332(5) 0.5236(6)
O69_2 O 0.6378(15) 0.8394(6) 0.5408(6)
Cd1_5 Cd 1.0000 0.04667(7) 0.0000
C12_2 C 0.9921(15) 0.1394(5) 0.3376(6)
H12_2 H 0.9348 0.1440 0.3454
C13_2 C 0.9128(11) 0.1157(5) 0.2687(6)
H13_2 H 0.9076 0.1329 0.2462
C14_2 C 0.8212(18) 0.1174(8) 0.2881(9)
H14_2 H 0.8156 0.1388 0.3011
H15_2 H 0.8230 0.1008 0.3108
C15_2 C 0.7353(17) 0.1111(6) 0.2492(8)
H16_2 H 0.6779 0.1101 0.2607
H17_2 H 0.7297 0.1291 0.2283
C16_2 C 0.7482(14) 0.0797(6) 0.2264(8)
H18_2 H 0.6943 0.0765 0.2026
H19_2 H 0.7491 0.0618 0.2472
C17_2 C 0.8377(16) 0.0778(6) 0.2072(8)
H20_2 H 0.8363 0.0942 0.1843
H21_2 H 0.8434 0.0562 0.1945
C18_2 C 0.9213(11) 0.0842(5) 0.2461(6)
H22_2 H 0.9192 0.0668 0.2679
H23_2 H 0.9817 0.0659 0.1755
Cu7_2 Cu 0.8907(3) 0.19774(8) 0.21935(11)
N17_2 N 0.9859(11) 0.2077(4) 0.2714(5)
N18_2 N 0.9990(14) 0.1875(5) 0.1956(6)
O43_2 O 0.7945(12) 0.2101(4) 0.2460(5)
O44_2 O 0.8070(12) 0.1826(4) 0.1667(5)
O45_2 O 0.9459(15) 0.0819(5) 0.0435(6)
O46_2 O 0.7842(14) 0.0744(5) 0.0230(6)
O47_2 O 0.9482(12) 0.0028(4) 0.0406(5)
O48_2 O 0.8182(14) 0.0074(6) 0.0622(6)
O54_2 O 0.6160(13) 0.0189(5) 0.0184(6)
C193_2 C 0.7853(17) 0.2572(7) 0.4168(8)
C194_2 C 0.7893(11) 0.2457(4) 0.3713(4)
C195_2 C 0.7052(9) 0.2419(4) 0.3412(5)
H233_2 H 0.6485 0.2467 0.3494
C196_2 C 0.7058(9) 0.2308(4) 0.2987(5)
C197_2 C 0.7905(12) 0.2236(4) 0.2863(4)
C198_2 C 0.8746(9) 0.2275(5) 0.3165(5)
C199_2 C 0.8740(9) 0.2385(4) 0.3590(5)
H234_2 H 0.9303 0.2411 0.3792
C200_2 C 0.6086(14) 0.2226(5) 0.2680(7)
C201_2 C 0.5278(15) 0.2362(5) 0.2887(8)
H235_2 H 0.5375 0.2592 0.2946
H236 H 0.4690 0.2330 0.2686
H237_2 H 0.5268 0.2248 0.3158
C202_2 C 0.5998(19) 0.1861(5) 0.2574(8)
H238_2 H 0.6033 0.1738 0.2842
H239_2 H 0.5406 0.1819 0.2380
H240_2 H 0.6500 0.1795 0.2432
C204_2 C 0.603(2) 0.2422(6) 0.2248(7)
H243_2 H 0.6085 0.2652 0.2314
H244_2 H 0.6531 0.2355 0.2107
H245_2 H 0.5437 0.2380 0.2055
C205_2 C 0.9658(17) 0.2212(6) 0.3102(7)
C211_2 C 0.9855(14) 0.1624(6) 0.1635(7)
C212_2 C 0.9093(9) 0.1518(4) 0.1345(5)
C213_2 C 0.8195(11) 0.1632(3) 0.1352(4)
C214_2 C 0.7424(9) 0.1500(4) 0.1066(5)
C215_2 C 0.7551(10) 0.1252(4) 0.0773(5)
H256_2 H 0.7036 0.1163 0.0582
C216_2 C 0.8450(13) 0.1138(3) 0.0767(5)
C217_2 C 0.9221(9) 0.1270(4) 0.1053(6)
H257_2 H 0.9822 0.1194 0.1048
C218_2 C 0.6421(17) 0.1659(6) 0.1022(8)
C219_2 C 0.6496(18) 0.2042(7) 0.1018(9)
H258_2 H 0.6755 0.2110 0.0770
H259_2 H 0.5882 0.2136 0.0995
H260_2 H 0.6896 0.2116 0.1286
C220_2 C 0.601(2) 0.1570(9) 0.1421(9)
H261_2 H 0.5949 0.1336 0.1437
H262_2 H 0.6415 0.1649 0.1684
H263_2 H 0.5401 0.1670 0.1393
C221_2 C 0.5666(16) 0.1491(6) 0.0650(8)
H264_2 H 0.5832 0.1526 0.0368
H265_2 H 0.5646 0.1259 0.0707
H266_2 H 0.5060 0.1585 0.0649
C222_2 C 0.9017(17) 0.0000(7) 0.0705(8)
C223_2 C 0.8671(18) 0.0860(6) 0.0490(6)
H275_2 H 0.8699 0.0120 0.2530
N22_2 N 0.5514(12) 0.0217(6) 0.0789(6)
C254_2 C 0.6070(18) 0.0368(7) 0.0494(8)
H302_2 H 0.6328 0.0578 0.0537
C256_2 C 0.529(3) 0.0488(8) 0.1072(11)
H306_2 H 0.5577 0.0688 0.0998
H307 H 0.4624 0.0516 0.1026
H308_2 H 0.5534 0.0435 0.1377
Cd1_6 Cd 1.0000 0.04667(7) 1.0000
C71_2 C 0.7450(14) 0.2051(7) 0.7123(7)
H77_2 H 0.7354 0.1827 0.7017
H78_2 H 0.6950 0.2185 0.6956
H82_2 H 0.9842 0.2263 0.6669
C74_2 C 0.9171(12) 0.1991(5) 0.7334(6)
H83_2 H 0.9081 0.1759 0.7253
C75_2 C 0.8386(18) 0.2174(8) 0.7047(9)
H84_2 H 0.8421 0.2143 0.6739
H85_2 H 0.8445 0.2407 0.7113
C76_2 C 0.7405(12) 0.2064(6) 0.7640(6)
H86_2 H 0.7423 0.2290 0.7742
H87_2 H 0.6831 0.1962 0.7690
C77_2 C 0.8256(16) 0.1877(8) 0.7881(9)
H88_2 H 0.8232 0.1869 0.8193
H89_2 H 0.8219 0.1653 0.7772
C78_2 C 0.9140(12) 0.2013(6) 0.7836(6)
H90_2 H 0.9144 0.2246 0.7917
H91_2 H 0.9600 0.1508 0.8379
Cd7_2 Cd 0.75749(16) 0.02143(5) 0.99441(6)
Cu5_2 Cu 0.8908(3) 0.10278(9) 0.71851(11)
N13_2 N 0.9974(13) 0.1215(4) 0.6996(6)
N14_2 N 0.9848(11) 0.0835(4) 0.7635(5)
O31_2 O 0.8001(12) 0.1189(5) 0.6715(5)
O32_2 O 0.7856(11) 0.0898(5) 0.7447(5)
O33_2 O 0.8655(13) 0.0412(5) 0.9443(6)
O34_2 O 0.7080(14) 0.0403(5) 0.9261(6)
C133_2 C 0.8537(15) 0.2127(5) 0.5406(7)
C134_2 C 0.8479(15) 0.1857(5) 0.5750(7)
C135_2 C 0.7617(16) 0.1718(6) 0.5751(7)
H165_2 H 0.7123 0.1793 0.5534
C136_2 C 0.7388(15) 0.1479(6) 0.6033(8)
C137_2 C 0.8187(16) 0.1400(5) 0.6415(7)
C138_2 C 0.9113(14) 0.1507(5) 0.6358(7)
C139_2 C 0.9242(13) 0.1731(5) 0.6035(7)
H166_2 H 0.9846 0.1795 0.6014
C140_2 C 0.649(2) 0.0978(6) 0.5943(10)
H167_2 H 0.5886 0.0878 0.5933
H168_2 H 0.6683 0.0942 0.5667
H169_2 H 0.6940 0.0882 0.6178
C141_2 C 0.6420(19) 0.1354(6) 0.6024(8)
C142_2 C 0.606(2) 0.1456(9) 0.6428(9)
H170_2 H 0.5433 0.1371 0.6409
H171_2 H 0.6461 0.1371 0.6687
H172_2 H 0.6041 0.1691 0.6444
C143_2 C 0.5793(16) 0.1428(6) 0.5569(7)
H173_2 H 0.5169 0.1348 0.5563
H174_2 H 0.5772 0.1661 0.5519
H175_2 H 0.6048 0.1322 0.5342
C151_2 C 0.9677(15) 0.0733(6) 0.8035(6)
C152_2 C 0.8772(8) 0.0735(4) 0.8146(5)
C153_2 C 0.7930(11) 0.0811(4) 0.7863(4)
C154_2 C 0.7085(8) 0.0773(4) 0.8003(5)
C155_2 C 0.7081(9) 0.0659(4) 0.8427(5)
H188_2 H 0.6515 0.0634 0.8520
C156_2 C 0.7923(11) 0.0583(4) 0.8710(4)
C157_2 C 0.8769(9) 0.0621(4) 0.8570(5)
H189_2 H 0.9332 0.0570 0.8760
C158_2 C 0.6124(14) 0.0857(6) 0.7698(7)
C159_2 C 0.597(2) 0.0668(6) 0.7252(8)
H190_2 H 0.5957 0.0436 0.7307
H191_2 H 0.5382 0.0734 0.7071
H192_2 H 0.6472 0.0718 0.7102
C160_2 C 0.5275(15) 0.0799(6) 0.7919(8)
H193_2 H 0.5229 0.0569 0.7982
H194_2 H 0.5356 0.0922 0.8189
H195_2 H 0.4710 0.0870 0.7723
C161_2 C 0.614(2) 0.1229(6) 0.7609(9)
H196_2 H 0.6661 0.1280 0.7471
H197_2 H 0.5566 0.1293 0.7418
H198_2 H 0.6211 0.1346 0.7884
C162_2 C 0.7882(18) 0.0464(7) 0.9169(9)
Cd6_4 Cd 1.0000 0.96055(8) 1.0000
Cu4_2 Cu 0.8313(3) 0.95067(9) 0.72763(11)
N7_2 N 0.7766(13) 0.9665(5) 0.7781(6)
N8_2 N 0.7122(14) 0.9352(5) 0.7064(6)
O21_2 O 0.9549(13) 0.9588(5) 0.7560(6)
O22_2 O 0.8756(13) 0.9392(5) 0.6749(6)
C93_2 C 0.9615(11) 0.9860(4) 0.8703(5)
H103_2 H 0.9212 0.9905 0.8894
C94_2 C 0.9251(8) 0.9760(4) 0.8272(5)
C95_2 C 0.9852(12) 0.9693(4) 0.7985(4)
C102_2 C 0.8236(16) 0.9758(6) 0.8149(7)
H114_2 H 0.7903 0.9830 0.8358
C103_2 C 0.6208(16) 0.9732(8) 0.8016(9)
H115_2 H 0.6377 0.9945 0.8151
H116_2 H 0.6377 0.9564 0.8240
C104_2 C 0.4847(15) 0.9424(7) 0.7576(8)
H117_2 H 0.4175 0.9434 0.7464
H118_2 H 0.4968 0.9238 0.7776
C105_2 C 0.5361(19) 0.9360(8) 0.7169(9)
H119_2 H 0.5207 0.9532 0.6950
H120_2 H 0.5165 0.9151 0.7030
C106_2 C 0.6874(18) 0.9171(6) 0.6746(7)
H121_2 H 0.6270 0.9085 0.6713
C107_2 C 0.6736(11) 0.9674(5) 0.7636(6)
H122_2 H 0.6586 0.9858 0.7430
C108_2 C 0.5134(13) 0.9720(7) 0.7822(8)
H123_2 H 0.4796 0.9736 0.8062
H124_2 H 0.4962 0.9908 0.7630
C109_2 C 0.6469(12) 0.9357(5) 0.7373(6)
H125_2 H 0.6611 0.9170 0.7574
C110_2 C 0.7416(12) 0.9068(5) 0.6404(5)
C111_2 C 0.8304(13) 0.9199(4) 0.6416(5)
C112_2 C 0.8809(10) 0.9109(4) 0.6097(6)
C113_2 C 0.8426(12) 0.8888(4) 0.5767(5)
H126_2 H 0.8765 0.8828 0.5553
C114_2 C 0.7538(12) 0.8757(4) 0.5755(5)
C115_2 C 0.7033(10) 0.8847(4) 0.6074(5)
H127_2 H 0.6439 0.8760 0.6067
C117_2 C 0.9780(16) 0.9267(6) 0.6078(9)
H131_2 H 0.9574 0.9304 0.5401
C119_2 C 0.960(2) 0.9646(6) 0.6098(9)
H134_2 H 0.9415 0.9698 0.6372
H136_2 H 0.9105 0.9708 0.5856
C120_2 C 0.7220(16) 0.8470(6) 0.5451(6)
H162_2 H 0.7572 0.8828 0.9987
Cu6_2 Cu 0.6691(3) 0.84984(9) 0.77352(11)
N15_2 N 0.7996(15) 0.8626(6) 0.8001(6)
N16_2 N 0.7221(14) 0.8417(5) 0.7240(6)
O35_2 O 0.8582(17) 0.9660(6) 0.9545(7)
O36_2 O 0.7146(16) 0.9690(5) 0.9715(6)
O37_2 O 0.6227(12) 0.8642(5) 0.8230(5)
O38_2 O 0.5443(13) 0.8420(5) 0.7424(5)
O39_2 O 0.3177(13) 0.7942(6) 0.5613(5)
O55_2 O 0.1189(14) 0.7698(6) 0.5175(6)
C163_2 C 0.775(2) 0.9567(7) 0.9518(10)
C164_2 C 0.7361(12) 0.9278(3) 0.9214(5)
C165_2 C 0.7897(9) 0.9165(4) 0.8919(6)
H199_2 H 0.8505 0.9242 0.8936
C166_2 C 0.7524(10) 0.8934(4) 0.8599(5)
C167_2 C 0.6616(11) 0.8818(3) 0.8574(4)
C168_2 C 0.6080(9) 0.8932(4) 0.8869(5)
C169_2 C 0.6452(11) 0.9162(4) 0.9189(5)
H200_2 H 0.6093 0.9238 0.9386
C170_2 C 0.5166(15) 0.8744(6) 0.8933(6)
C171_2 C 0.4446(19) 0.8808(8) 0.8518(8)
H201_2 H 0.4363 0.9040 0.8475
H202_2 H 0.4658 0.8714 0.8270
H203_2 H 0.3859 0.8709 0.8544
C172_2 C 0.520(2) 0.8370(6) 0.8945(9)
H204_2 H 0.5645 0.8299 0.9200
H205_2 H 0.4590 0.8285 0.8957
H206_2 H 0.5389 0.8290 0.8683
C173_2 C 0.4735(19) 0.8893(7) 0.9315(7)
H207_2 H 0.5161 0.8860 0.9592
H208_2 H 0.4629 0.9124 0.9265
H209_2 H 0.4149 0.8786 0.9323
C174_2 C 0.8180(16) 0.8845(5) 0.8365(6)
H210_2 H 0.8781 0.8933 0.8448
C175_2 C 0.8636(13) 0.8471(6) 0.7764(6)
H211_2 H 0.8658 0.8236 0.7830
C176_2 C 0.9606(19) 0.8602(7) 0.7859(9)
H212_2 H 0.9859 0.8579 0.8173
H213_2 H 0.9587 0.8834 0.7788
C178_2 C 0.9794(16) 0.8451(7) 0.7098(8)
H216_2 H 0.9806 0.8678 0.7002
C179_2 C 0.8816(17) 0.8333(7) 0.7005(8)
H218_2 H 0.8802 0.8100 0.7069
H219_2 H 0.8545 0.8365 0.6694
C180_2 C 0.8252(13) 0.8517(5) 0.7280(6)
H220_2 H 0.8275 0.8752 0.7211
C181_2 C 0.6761(17) 0.8314(6) 0.6809(6)
H221_2 H 0.7083 0.8291 0.6579
C182_2 C 0.5761(8) 0.8249(4) 0.6750(5)
C183_2 C 0.5142(11) 0.8284(4) 0.7037(4)
C184_2 C 0.4191(10) 0.8221(4) 0.6890(4)
C185_2 C 0.3858(8) 0.8122(4) 0.6457(5)
H222_2 H 0.3221 0.8080 0.6359
C186_2 C 0.4476(11) 0.8087(4) 0.6169(3)
C187_2 C 0.5427(10) 0.8150(4) 0.6316(5)
H223_2 H 0.5841 0.8126 0.6124
C188_2 C 0.3482(16) 0.8300(6) 0.7212(7)
C189_2 C 0.348(2) 0.8667(7) 0.7335(9)
H224_2 H 0.4107 0.8738 0.7454
H225_2 H 0.3226 0.8794 0.7076
H226_2 H 0.3094 0.8699 0.7552
C190_2 C 0.377(2) 0.8096(7) 0.7641(8)
H227_2 H 0.4385 0.8164 0.7793
H228_2 H 0.3327 0.8132 0.7828
H229_2 H 0.3783 0.7867 0.7569
C191_2 C 0.2500(17) 0.8161(7) 0.7017(9)
H230_2 H 0.2554 0.7932 0.6948
H231_2 H 0.2102 0.8184 0.7229
H232_2 H 0.2234 0.8279 0.6753
C192_2 C 0.4063(16) 0.7991(6) 0.5704(8)
N23_2 N 0.0438(16) 0.7757(7) 0.5748(7)
C257_2 C 0.0911(17) 0.7889(7) 0.5432(8)
H309_2 H 0.1013 0.8114 0.5417
C258_2 C 0.037(4) 0.7414(7) 0.5772(15)
H310_2 H 0.0737 0.7314 0.5582
H311_2 H 0.0599 0.7344 0.6071
H313_2 H 0.0125 0.8196 0.5921
H315_2 H 0.0189 0.7934 0.6298
H72_2 H 0.0310 0.7330 0.7314
H139 H 0.0137 0.4848 0.8977
H140 H 0.0163 0.4822 0.9486
H143_2 H 0.0376 0.5516 0.8974
H236_2 H 0.9690 0.7330 0.2686
H303 H 0.9863 0.4848 0.1023
H304 H 0.9837 0.4822 0.0514
H307_2 H 0.9624 0.5516 0.1026
H148_2 H 0.0276 0.7349 0.4319
C127_2 C 0.002(2) 0.7973(7) 0.4013(10)
H150_2 H 0.0686 0.7939 0.4093
Cd6_5 Cd 0.0000 0.96055(8) 1.0000
C90_3 C 0.0983(17) 1.0000(7) 0.9295(8)
C92_2 C 0.0580(11) 0.9892(4) 0.8846(4)
C96_2 C 0.0817(11) 0.9725(4) 0.8129(5)
C97_2 C 0.1181(8) 0.9825(4) 0.8559(6)
H104_2 H 0.1827 0.9846 0.8656
C98_2 C 0.2573(14) 0.9747(6) 0.8058(7)
H105_2 H 0.2707 0.9618 0.8322
H106_2 H 0.2986 0.9684 0.7866
H107_2 H 0.2664 0.9976 0.8132
C99_2 C 0.1542(15) 0.9690(6) 0.7821(7)
C100_2 C 0.154(2) 0.9317(6) 0.7734(9)
H108_2 H 0.1705 0.9202 0.8010
H109_2 H 0.0931 0.9250 0.7582
H110_2 H 0.1997 0.9267 0.7556
C101_2 C 0.1292(19) 0.9891(6) 0.7398(8)
H112_2 H 0.1742 0.9848 0.7216
H113_2 H 0.0676 0.9830 0.7242
C116_2 C 0.057(2) 0.9132(8) 0.6441(9)
H128_2 H 0.0399 0.9160 0.6723
H129_2 H 0.0655 0.8902 0.6390
H130_2 H 0.1141 0.9248 0.6436
C118_2 C 0.0061(19) 0.9220(7) 0.5631(8)
H132_2 H 0.0636 0.9336 0.5629
H133_2 H 0.0150 0.8990 0.5583
H135_2 H 0.0162 0.9763 0.6078
C123_2 C 0.4780(19) 0.9878(6) 0.9205(10)
H139_2 H 0.5137 0.9848 0.8977
H140_2 H 0.5163 0.9822 0.9486
H141_2 H 0.4237 0.9738 0.9147
O53_2 O 0.0350(15) 0.9251(5) 0.9480(7)
C177_2 C 0.0268(16) 0.8429(7) 0.7602(7)
H214_2 H 0.0356 0.8201 0.7693
H215_2 H 0.0876 0.8537 0.7656
H217_2 H 0.0157 0.8322 0.6928
N21_2 N 0.1660(17) 0.8953(6) 0.9449(10)
C253_2 C 0.102(2) 0.9114(9) 0.9677(10)
H301_2 H 0.1142 0.9112 0.9984
C260_2 C 0.144(3) 0.8949(14) 0.8993(10)
H316_2 H 0.0889 0.9080 0.8893
H317_2 H 0.1956 0.9038 0.8879
H318_2 H 0.1325 0.8727 0.8892
C261_2 C 0.242(3) 0.8789(13) 0.9706(12)
H320_2 H 0.2364 0.8557 0.9647
H321_2 H 0.2995 0.8868 0.9634
Cd6_6 Cd 1.0000 0.96055(8) 0.0000
O25_2 O 0.9650(15) 0.9251(5) 0.0520(7)
C45_2 C 0.9732(16) 0.8429(7) 0.2398(7)
H50_2 H 0.9644 0.8201 0.2307
H51_2 H 0.9124 0.8537 0.2344
H53_2 H 0.9843 0.8322 0.3072
N9_2 N 0.8340(17) 0.8953(6) 0.0551(10)
C121_2 C 0.898(2) 0.9114(9) 0.0323(10)
H137_2 H 0.8858 0.9112 0.0016
C131_2 C 0.856(3) 0.8949(14) 0.1007(10)
H159_2 H 0.9111 0.9080 0.1107
H160_2 H 0.8044 0.9038 0.1121
H161_2 H 0.8675 0.8727 0.1108
C132_2 C 0.758(3) 0.8789(13) 0.0294(12)
H163_2 H 0.7636 0.8557 0.0353
H164_2 H 0.7005 0.8868 0.0366
C222_3 C 0.9017(17) 1.0000(7) 0.0705(8)
C224_2 C 0.9420(11) 0.9892(4) 0.1154(4)
C228_2 C 0.9183(11) 0.9725(4) 0.1871(5)
C229_2 C 0.8819(8) 0.9825(4) 0.1441(6)
H268_2 H 0.8173 0.9846 0.1344
C230_2 C 0.7427(14) 0.9747(6) 0.1942(7)
H269_2 H 0.7293 0.9618 0.1678
H270_2 H 0.7014 0.9684 0.2134
H271_2 H 0.7336 0.9976 0.1868
C231_2 C 0.8458(15) 0.9690(6) 0.2179(7)
C232_2 C 0.846(2) 0.9317(6) 0.2266(9)
H272_2 H 0.8295 0.9202 0.1990
H273_2 H 0.9069 0.9250 0.2418
H274_2 H 0.8003 0.9267 0.2444
C233_2 C 0.8708(19) 0.9891(6) 0.2602(8)
H276_2 H 0.8258 0.9848 0.2784
H277_2 H 0.9324 0.9830 0.2758
C248_2 C 0.943(2) 0.9132(8) 0.3559(9)
H292_2 H 0.9601 0.9160 0.3277
H293_2 H 0.9345 0.8902 0.3610
H294_2 H 0.8859 0.9248 0.3564
C250_2 C 0.9939(19) 0.9220(7) 0.4369(8)
H296_2 H 0.9364 0.9336 0.4371
H297_2 H 0.9850 0.8990 0.4417
H299_2 H 0.9838 0.9763 0.3922
C255_2 C 0.5220(19) 0.9878(6) 0.0795(10)
H303_2 H 0.4863 0.9848 0.1023
H304_2 H 0.4837 0.9822 0.0514
H305_2 H 0.5763 0.9738 0.0853
H312_2 H 0.9724 0.7349 0.5681
C259_2 C 0.998(2) 0.7973(7) 0.5987(10)
H314_2 H 0.9314 0.7939 0.5907
loop_
_geom_bond_atom_site_label_1
_geom_bond_atom_site_label_2
_geom_bond_site_symmetry_1
_geom_bond_site_symmetry_2
Cd3 O12 1_555 1_555
Cd4 O12 1_555 1_555
Cd5 O11 1_555 1_555
O11 C60 1_555 1_555
O12 C60 1_555 1_555
O27 Cd5 1_555 1_555
H37 C39 1_555 1_555
H38 C39 1_555 1_555
H39 C39 1_555 1_555
H44 C41 1_555 1_555
H45 C41 1_555 1_555
C53 C52 1_555 1_555
H58 C53 1_555 1_555
C54 C53 1_555 1_555
C56 C52 1_555 1_555
C57 C56 1_555 1_555
H60 C57 1_555 1_555
H61 C57 1_555 1_555
H62 C57 1_555 1_555
C58 C56 1_555 1_555
H63 C58 1_555 1_555
H64 C58 1_555 1_555
H65 C58 1_555 1_555
C59 C56 1_555 1_555
H66 C59 1_555 1_555
H67 C59 1_555 1_555
H68 C59 1_555 1_555
C60 C54 1_555 1_555
N11 C125 1_555 1_555
C125 O27 1_555 1_555
H145 C125 1_555 1_555
C126 N11 1_555 1_555
H146 C126 1_555 1_555
H147 C126 1_555 1_555
H148 C126 1_555 1_555
C127 N11 1_555 1_555
H149 C127 1_555 1_555
H150 C127 1_555 1_555
H151 C127 1_555 1_555
C236 H281 1_555 1_555
H282 C236 1_555 1_555
O56 Cd3 1_555 1_555
N24 C262 1_555 1_555
C262 O56 1_555 1_555
H322 C262 1_555 1_555
C263 N24 1_555 1_555
H323 C263 1_555 1_555
H324 C263 1_555 1_555
H325 C263 1_555 1_555
C264 N24 1_555 1_555
H326 C264 1_555 1_555
H327 C264 1_555 1_555
H328 C264 1_555 1_555
O57 Cd5 1_555 1_555
O59 Cd4 1_555 1_555
O62 Cd5 1_555 1_555
O64 Cd4 1_555 1_555
O67 Cd5 1_555 1_555
O69 Cd3 1_555 1_555
Cd5 O64 1_555 1_555
Cd1 O5 1_555 1_555
Cd2 O5 1_555 1_555
Cd6 O7 1_555 1_555
Cu1 N1 1_555 1_555
Cu2 N3 1_555 1_555
N1 C12 1_555 1_555
N2 Cu1 1_555 1_555
N3 C42 1_555 1_555
N4 Cu2 1_555 1_555
O1 C1 1_555 1_555
O2 C1 1_555 1_555
O3 Cu1 1_555 1_555
O4 Cu1 1_555 1_555
O5 C30 1_555 1_555
O6 Cd2 1_555 1_555
O7 C31 1_555 1_555
O8 Cd2 1_555 1_555
O9 Cu2 1_555 1_555
O10 Cu2 1_555 1_555
O25 Cd6 1_555 1_555
C1 C2 1_555 1_555
C2 C3 1_555 1_555
C3 H1 1_555 1_555
O28 Cd3_2 1_555 1_555
C4 C3 1_555 1_555
C5 O3 1_555 1_555
C6 C5 1_555 1_555
C7 C2 1_555 1_555
H2 C7 1_555 1_555
C8 H3 1_555 1_555
H4 C8 1_555 1_555
H5 C8 1_555 1_555
C9 C4 1_555 1_555
C10 C9 1_555 1_555
H6 C10 1_555 1_555
H7 C10 1_555 1_555
H8 C10 1_555 1_555
C11 C9 1_555 1_555
H9 C11 1_555 1_555
H10 C11 1_555 1_555
H11 C11 1_555 1_555
C12 C6 1_555 1_555
H12 C12 1_555 1_555
C13 N1 1_555 1_555
H13 C13 1_555 1_555
C14 C13 1_555 1_555
H14 C14 1_555 1_555
H15 C14 1_555 1_555
C15 C14 1_555 1_555
H16 C15 1_555 1_555
H17 C15 1_555 1_555
C16 C15 1_555 1_555
H18 C16 1_555 1_555
H19 C16 1_555 1_555
C17 C16 1_555 1_555
H20 C17 1_555 1_555
H21 C17 1_555 1_555
C18 N2 1_555 1_555
H22 C18 1_555 1_555
C19 N2 1_555 1_555
H23 C19 1_555 1_555
C20 C19 1_555 1_555
C21 O4 1_555 1_555
C22 C21 1_555 1_555
C23 C22 1_555 1_555
H24 C23 1_555 1_555
C24 C23 1_555 1_555
C25 C20 1_555 1_555
H25 C25 1_555 1_555
C26 C22 1_555 1_555
C27 C26 1_555 1_555
H26 C27 1_555 1_555
H27 C27 1_555 1_555
H28 C27 1_555 1_555
C28 C26 1_555 1_555
H29 C28 1_555 1_555
H30 C28 1_555 1_555
C29 C26 1_555 1_555
H32 C29 1_555 1_555
H33 C29 1_555 1_555
H34 C29 1_555 1_555
C30 O6 1_555 1_555
C31 O8 1_555 1_555
C32 C31 1_555 1_555
C33 C32 1_555 1_555
H35 C33 1_555 1_555
C34 C33 1_555 1_555
C35 O9 1_555 1_555
C36 C35 1_555 1_555
C37 C32 1_555 1_555
H36 C37 1_555 1_555
C38 C36 1_555 1_555
C40 C38 1_555 1_555
H40 C40 1_555 1_555
H42 C40 1_555 1_555
C42 C34 1_555 1_555
H46 C42 1_555 1_555
C43 N3 1_555 1_555
H47 C43 1_555 1_555
C44 C43 1_555 1_555
H48 C44 1_555 1_555
H49 C44 1_555 1_555
C45 C44 1_555 1_555
H50 C45 1_555 1_555
H51 C45 1_555 1_555
C46 C45 1_555 1_555
H52 C46 1_555 1_555
H53 C46 1_555 1_555
C47 C46 1_555 1_555
H54 C47 1_555 1_555
H55 C47 1_555 1_555
C48 N4 1_555 1_555
H56 C48 1_555 1_555
C49 N4 1_555 1_555
H57 C49 1_555 1_555
C50 C49 1_555 1_555
C51 O10 1_555 1_555
C55 C50 1_555 1_555
H59 C55 1_555 1_555
N9 C121 1_555 1_555
C121 O25 1_555 1_555
H137 C121 1_555 1_555
N12 C128 1_555 1_555
C128 O28 1_555 1_555
H152 C128 1_555 1_555
C129 N12 1_555 1_555
H153 C129 1_555 1_555
H154 C129 1_555 1_555
H155 C129 1_555 1_555
C130 N12 1_555 1_555
H156 C130 1_555 1_555
H157 C130 1_555 1_555
H158 C130 1_555 1_555
C131 N9 1_555 1_555
H159 C131 1_555 1_555
H160 C131 1_555 1_555
H161 C131 1_555 1_555
C132 N9 1_555 1_555
H163 C132 1_555 1_555
H164 C132 1_555 1_555
Cu7 N17 1_555 1_555
Cu8 N19 1_555 1_555
N17 C205 1_555 1_555
N18 Cu7 1_555 1_555
N19 C234 1_555 1_555
N20 Cu8 1_555 1_555
O41 C193 1_555 1_555
O42 C193 1_555 1_555
O43 Cu7 1_555 1_555
O44 Cu7 1_555 1_555
O45 Cd1 1_555 1_555
O47 Cd1 1_555 1_555
O49 Cu8 1_555 1_555
O50 Cu8 1_555 1_555
O51 C252 1_555 1_555
O52 Cd3_2 1_555 1_555
C193 C194 1_555 1_555
C194 C195 1_555 1_555
C195 H233 1_555 1_555
C196 C195 1_555 1_555
C197 O43 1_555 1_555
C198 C197 1_555 1_555
C199 C194 1_555 1_555
H234 C199 1_555 1_555
C200 C196 1_555 1_555
C201 C200 1_555 1_555
H235 C201 1_555 1_555
H237 C201 1_555 1_555
C202 C200 1_555 1_555
H238 C202 1_555 1_555
H239 C202 1_555 1_555
H240 C202 1_555 1_555
C203 H241 1_555 1_555
H242 C203 1_555 1_555
C204 C200 1_555 1_555
H243 C204 1_555 1_555
H244 C204 1_555 1_555
H245 C204 1_555 1_555
C205 C198 1_555 1_555
H246 C205 1_555 1_555
C206 N17 1_555 1_555
H247 C206 1_555 1_555
C207 C203 1_555 1_555
H248 C207 1_555 1_555
H249 C207 1_555 1_555
C208 C203 1_555 1_555
H250 C208 1_555 1_555
H251 C208 1_555 1_555
C209 C208 1_555 1_555
H252 C209 1_555 1_555
H253 C209 1_555 1_555
C210 N18 1_555 1_555
H254 C210 1_555 1_555
C211 N18 1_555 1_555
H255 C211 1_555 1_555
C212 C211 1_555 1_555
C213 O44 1_555 1_555
C214 C213 1_555 1_555
C215 C214 1_555 1_555
H256 C215 1_555 1_555
C216 C215 1_555 1_555
C217 C212 1_555 1_555
H257 C217 1_555 1_555
C218 C214 1_555 1_555
C219 C218 1_555 1_555
H258 C219 1_555 1_555
H259 C219 1_555 1_555
H260 C219 1_555 1_555
C220 C218 1_555 1_555
H261 C220 1_555 1_555
H262 C220 1_555 1_555
H263 C220 1_555 1_555
C221 C218 1_555 1_555
H264 C221 1_555 1_555
H265 C221 1_555 1_555
H266 C221 1_555 1_555
C222 O47 1_555 1_555
C223 O45 1_555 1_555
C224 C222 1_555 1_555
C225 C224 1_555 1_555
H267 C225 1_555 1_555
C226 C225 1_555 1_555
C227 O49 1_555 1_555
C228 C227 1_555 1_555
C229 C224 1_555 1_555
H268 C229 1_555 1_555
C230 H269 1_555 1_555
H270 C230 1_555 1_555
H271 C230 1_555 1_555
C231 C228 1_555 1_555
C232 C231 1_555 1_555
H272 C232 1_555 1_555
H273 C232 1_555 1_555
H274 C232 1_555 1_555
C233 C231 1_555 1_555
H275 C233 1_555 1_555
H276 C233 1_555 1_555
H277 C233 1_555 1_555
C234 C226 1_555 1_555
H278 C234 1_555 1_555
C235 H279 1_555 1_555
H280 C235 1_555 1_555
H283 C237 1_555 1_555
H284 C237 1_555 1_555
C238 N20 1_555 1_555
H285 C238 1_555 1_555
C239 N19 1_555 1_555
H286 C239 1_555 1_555
C240 C235 1_555 1_555
C241 N20 1_555 1_555
H289 C241 1_555 1_555
C242 C238 1_555 1_555
C243 O50 1_555 1_555
C244 C243 1_555 1_555
C245 C244 1_555 1_555
H290 C245 1_555 1_555
C246 C245 1_555 1_555
C247 C242 1_555 1_555
H291 C247 1_555 1_555
C248 H292 1_555 1_555
H293 C248 1_555 1_555
H294 C248 1_555 1_555
C249 C244 1_555 1_555
C250 C249 1_555 1_555
H295 C250 1_555 1_555
H296 C250 1_555 1_555
H297 C250 1_555 1_555
C251 C249 1_555 1_555
H298 C251 1_555 1_555
H299 C251 1_555 1_555
H300 C251 1_555 1_555
C252 O52 1_555 1_555
N22 C254 1_555 1_555
C254 O54 1_555 1_555
H302 C254 1_555 1_555
C255 N22 1_555 1_555
H305 C255 1_555 1_555
C256 N22 1_555 1_555
H306 C256 1_555 1_555
H308 C256 1_555 1_555
Cd12 O2 1_555 1_555
Cd14 O51 1_555 1_555
Cd16 O1 1_555 1_555
Cd18 O41 1_555 1_555
O60 Cd4_2 1_555 1_555
O61 Cd3_2 1_555 1_555
O66 Cd4_2 1_555 1_555
Cd4_2 O61 1_555 1_555
Cd6 O47 1_555 1_555
C4 C5 1_555 1_555
C6 C7 1_555 1_555
C8 C9 1_555 1_555
C13 C18 1_555 1_555
C17 C18 1_555 1_555
C20 C21 1_555 1_555
C24 C25 1_555 1_555
C24 C30 1_555 1_555
C34 C35 1_555 1_555
C36 C37 1_555 1_555
C43 C48 1_555 1_555
C47 C48 1_555 1_555
C50 C51 1_555 1_555
O42 Cd12 1_555 1_555
O42 Cd18 1_555 1_555
O46 C223 1_555 1_555
O48 C222 1_555 1_555
C196 C197 1_555 1_555
C198 C199 1_555 1_555
C206 C207 1_555 1_555
C206 C210 1_555 1_555
C209 C210 1_555 1_555
C212 C213 1_555 1_555
C216 C217 1_555 1_555
C216 C223 1_555 1_555
C226 C227 1_555 1_555
C228 C229 1_555 1_555
C230 C231 1_555 1_555
C235 C239 1_555 1_555
C237 C241 1_555 1_555
C239 C241 1_555 1_555
C242 C243 1_555 1_555
C246 C247 1_555 1_555
C246 C252 1_555 1_555
C248 C249 1_555 1_555
Cd14 O66 1_555 1_555
Cu3 N5 1_555 1_555
Cu4 N7 1_555 1_555
N5 C73 1_555 1_555
N6 Cu3 1_555 1_555
N7 C102 1_555 1_555
N8 Cu4 1_555 1_555
O13 C61 1_555 1_555
O14 C61 1_555 1_555
O15 Cu3 1_555 1_555
O16 Cu3 1_555 1_555
O17 Cd1_2 1_555 1_555
O19 Cd1_2 1_555 1_555
O21 Cu4 1_555 1_555
O22 Cu4 1_555 1_555
O67 C120 1_555 1_555
O69 C120 1_555 1_555
C61 C62 1_555 1_555
C62 C63 1_555 1_555
C63 H69 1_555 1_555
C64 C63 1_555 1_555
C65 O15 1_555 1_555
C66 C65 1_555 1_555
C67 C62 1_555 1_555
H70 C67 1_555 1_555
C68 C64 1_555 1_555
C69 C68 1_555 1_555
H71 C69 1_555 1_555
H73 C69 1_555 1_555
C70 C68 1_555 1_555
H74 C70 1_555 1_555
H75 C70 1_555 1_555
H76 C70 1_555 1_555
C71 H77 1_555 1_555
H78 C71 1_555 1_555
C72 C68 1_555 1_555
H79 C72 1_555 1_555
H80 C72 1_555 1_555
H81 C72 1_555 1_555
C73 C66 1_555 1_555
H82 C73 1_555 1_555
C74 N5 1_555 1_555
H83 C74 1_555 1_555
C75 C71 1_555 1_555
H84 C75 1_555 1_555
H85 C75 1_555 1_555
C76 C71 1_555 1_555
H86 C76 1_555 1_555
H87 C76 1_555 1_555
C77 C76 1_555 1_555
H88 C77 1_555 1_555
H89 C77 1_555 1_555
C78 N6 1_555 1_555
H90 C78 1_555 1_555
C79 N6 1_555 1_555
H91 C79 1_555 1_555
C80 C79 1_555 1_555
C81 O16 1_555 1_555
C82 C81 1_555 1_555
C83 C82 1_555 1_555
H92 C83 1_555 1_555
C84 C83 1_555 1_555
C85 C80 1_555 1_555
H93 C85 1_555 1_555
C86 C82 1_555 1_555
C87 C86 1_555 1_555
H94 C87 1_555 1_555
H95 C87 1_555 1_555
H96 C87 1_555 1_555
C88 C86 1_555 1_555
H97 C88 1_555 1_555
H98 C88 1_555 1_555
H99 C88 1_555 1_555
C89 C86 1_555 1_555
H100 C89 1_555 1_555
H101 C89 1_555 1_555
H102 C89 1_555 1_555
C90 O19 1_555 1_555
C91 O17 1_555 1_555
C92 C90 1_555 1_555
C93 C92 1_555 1_555
H103 C93 1_555 1_555
C94 C93 1_555 1_555
C95 O21 1_555 1_555
C96 C95 1_555 1_555
C97 C92 1_555 1_555
H104 C97 1_555 1_555
C98 H105 1_555 1_555
H106 C98 1_555 1_555
H107 C98 1_555 1_555
C99 C96 1_555 1_555
C100 C99 1_555 1_555
H108 C100 1_555 1_555
H109 C100 1_555 1_555
H110 C100 1_555 1_555
C101 C99 1_555 1_555
H111 C101 1_555 1_555
H112 C101 1_555 1_555
H113 C101 1_555 1_555
C102 C94 1_555 1_555
H114 C102 1_555 1_555
C103 H115 1_555 1_555
H116 C103 1_555 1_555
H119 C105 1_555 1_555
H120 C105 1_555 1_555
C106 N8 1_555 1_555
H121 C106 1_555 1_555
C107 N7 1_555 1_555
H122 C107 1_555 1_555
C108 C103 1_555 1_555
C109 N8 1_555 1_555
H125 C109 1_555 1_555
C110 C106 1_555 1_555
C111 O22 1_555 1_555
C112 C111 1_555 1_555
C113 C112 1_555 1_555
H126 C113 1_555 1_555
C114 C113 1_555 1_555
C115 C110 1_555 1_555
H127 C115 1_555 1_555
C116 H128 1_555 1_555
H129 C116 1_555 1_555
H130 C116 1_555 1_555
C117 C112 1_555 1_555
C118 C117 1_555 1_555
H131 C118 1_555 1_555
H132 C118 1_555 1_555
H133 C118 1_555 1_555
C119 C117 1_555 1_555
H134 C119 1_555 1_555
H135 C119 1_555 1_555
H136 C119 1_555 1_555
C120 C114 1_555 1_555
N10 C122 1_555 1_555
C122 O26 1_555 1_555
H138 C122 1_555 1_555
C123 N10 1_555 1_555
H141 C123 1_555 1_555
C124 N10 1_555 1_555
H142 C124 1_555 1_555
H144 C124 1_555 1_555
Cd7 O33 1_555 1_555
Cu5 N13 1_555 1_555
Cu6 N15 1_555 1_555
N13 C144 1_555 1_555
N14 Cu5 1_555 1_555
N15 C174 1_555 1_555
N16 Cu6 1_555 1_555
O29 C133 1_555 1_555
O30 C133 1_555 1_555
O31 Cu5 1_555 1_555
O32 Cu5 1_555 1_555
O33 Cd1_2 1_555 1_555
O34 Cd7 1_555 1_555
O35 Cd6_2 1_555 1_555
O36 Cd7 1_555 1_555
O37 Cu6 1_555 1_555
O38 Cu6 1_555 1_555
O53 Cd6_2 1_555 1_555
C133 C134 1_555 1_555
C134 C135 1_555 1_555
C135 H165 1_555 1_555
C136 C135 1_555 1_555
C137 O31 1_555 1_555
C138 C137 1_555 1_555
C139 C134 1_555 1_555
H166 C139 1_555 1_555
C140 H167 1_555 1_555
H168 C140 1_555 1_555
H169 C140 1_555 1_555
C141 C136 1_555 1_555
C142 C141 1_555 1_555
H170 C142 1_555 1_555
H171 C142 1_555 1_555
H172 C142 1_555 1_555
C143 C141 1_555 1_555
H173 C143 1_555 1_555
H174 C143 1_555 1_555
H175 C143 1_555 1_555
C144 C138 1_555 1_555
H176 C144 1_555 1_555
C145 N13 1_555 1_555
H177 C145 1_555 1_555
C146 C145 1_555 1_555
H178 C146 1_555 1_555
H179 C146 1_555 1_555
C147 C146 1_555 1_555
H180 C147 1_555 1_555
H181 C147 1_555 1_555
C148 C147 1_555 1_555
H182 C148 1_555 1_555
H183 C148 1_555 1_555
C149 C148 1_555 1_555
H184 C149 1_555 1_555
H185 C149 1_555 1_555
C150 N14 1_555 1_555
H186 C150 1_555 1_555
C151 N14 1_555 1_555
H187 C151 1_555 1_555
C152 C151 1_555 1_555
C153 O32 1_555 1_555
C154 C153 1_555 1_555
C155 C154 1_555 1_555
H188 C155 1_555 1_555
C156 C155 1_555 1_555
C157 C152 1_555 1_555
H189 C157 1_555 1_555
C158 C154 1_555 1_555
C159 C158 1_555 1_555
H190 C159 1_555 1_555
H191 C159 1_555 1_555
H192 C159 1_555 1_555
C160 C158 1_555 1_555
H193 C160 1_555 1_555
H194 C160 1_555 1_555
C161 C158 1_555 1_555
H196 C161 1_555 1_555
H197 C161 1_555 1_555
H198 C161 1_555 1_555
C162 O33 1_555 1_555
C163 O35 1_555 1_555
C164 C163 1_555 1_555
C165 C164 1_555 1_555
H199 C165 1_555 1_555
C166 C165 1_555 1_555
C167 O37 1_555 1_555
C168 C167 1_555 1_555
C169 C164 1_555 1_555
H200 C169 1_555 1_555
C170 C168 1_555 1_555
C172 C170 1_555 1_555
H204 C172 1_555 1_555
H206 C172 1_555 1_555
C174 C166 1_555 1_555
H210 C174 1_555 1_555
C175 N15 1_555 1_555
H211 C175 1_555 1_555
C176 C175 1_555 1_555
H212 C176 1_555 1_555
H213 C176 1_555 1_555
C177 C176 1_555 1_555
H214 C177 1_555 1_555
H215 C177 1_555 1_555
C178 C177 1_555 1_555
H216 C178 1_555 1_555
H217 C178 1_555 1_555
C179 C178 1_555 1_555
H218 C179 1_555 1_555
H219 C179 1_555 1_555
C180 N16 1_555 1_555
H220 C180 1_555 1_555
C181 N16 1_555 1_555
H221 C181 1_555 1_555
C182 C181 1_555 1_555
C183 O38 1_555 1_555
C187 C182 1_555 1_555
H223 C187 1_555 1_555
N21 C253 1_555 1_555
C253 O53 1_555 1_555
H301 C253 1_555 1_555
C260 N21 1_555 1_555
H316 C260 1_555 1_555
H317 C260 1_555 1_555
H318 C260 1_555 1_555
C261 N21 1_555 1_555
H320 C261 1_555 1_555
H321 C261 1_555 1_555
Cd12 O14 1_555 1_555
Cd16 O13 1_555 1_555
Cd18 O29 1_555 1_555
Cd6_2 O19 1_555 1_555
O14 Cd16 1_555 1_555
O18 C91 1_555 1_555
O20 C90 1_555 1_555
C64 C65 1_555 1_555
C66 C67 1_555 1_555
C74 C75 1_555 1_555
C74 C78 1_555 1_555
C77 C78 1_555 1_555
C80 C81 1_555 1_555
C84 C85 1_555 1_555
C84 C91 1_555 1_555
C94 C95 1_555 1_555
C96 C97 1_555 1_555
C98 C99 1_555 1_555
C103 C107 1_555 1_555
C105 C109 1_555 1_555
C107 C109 1_555 1_555
C110 C111 1_555 1_555
C114 C115 1_555 1_555
C116 C117 1_555 1_555
O30 Cd12 1_555 1_555
O34 C162 1_555 1_555
O36 C163 1_555 1_555
C136 C137 1_555 1_555
C138 C139 1_555 1_555
C140 C141 1_555 1_555
C145 C150 1_555 1_555
C149 C150 1_555 1_555
C152 C153 1_555 1_555
C156 C157 1_555 1_555
C156 C162 1_555 1_555
C166 C167 1_555 1_555
C168 C169 1_555 1_555
C175 C180 1_555 1_555
C179 C180 1_555 1_555
C182 C183 1_555 1_555
C104 H117 1_555 1_555
H118 C104 1_555 1_555
Cd14 O39 1_555 1_555
O39 C192 1_555 1_555
O61 C192 1_555 1_555
O55 Cd14 1_555 1_555
H201 C171 1_555 1_555
H202 C171 1_555 1_555
H203 C171 1_555 1_555
H208 C173 1_555 1_555
H209 C173 1_555 1_555
C185 C184 1_555 1_555
H222 C185 1_555 1_555
C186 C185 1_555 1_555
C188 C184 1_555 1_555
C189 C188 1_555 1_555
H224 C189 1_555 1_555
H225 C189 1_555 1_555
H226 C189 1_555 1_555
C190 C188 1_555 1_555
H227 C190 1_555 1_555
H228 C190 1_555 1_555
H229 C190 1_555 1_555
C191 C188 1_555 1_555
H230 C191 1_555 1_555
H231 C191 1_555 1_555
H232 C191 1_555 1_555
C192 C186 1_555 1_555
N23 C257 1_555 1_555
C257 O55 1_555 1_555
H309 C257 1_555 1_555
C258 N23 1_555 1_555
H310 C258 1_555 1_555
H311 C258 1_555 1_555
H312 C258 1_555 1_555
C259 N23 1_555 1_555
H313 C259 1_555 1_555
H314 C259 1_555 1_555
H315 C259 1_555 1_555
O58 Cd14 1_555 1_555
O63 Cd14 1_555 1_555
Cd1_3 O5_2 1_555 1_555
Cd2_2 O5_2 1_555 1_555
Cu1_2 N1_2 1_555 1_555
N2_2 Cu1_2 1_555 1_555
O57 C1_2 1_555 1_555
O59 C1_2 1_555 1_555
O3_2 Cu1_2 1_555 1_555
O4_2 Cu1_2 1_555 1_555
O5_2 C30_2 1_555 1_555
O6_2 Cd2_2 1_555 1_555
C1_2 C2_2 1_555 1_555
C2_2 C3_2 1_555 1_555
C3_2 H1_2 1_555 1_555
C4_2 C3_2 1_555 1_555
C5_2 O3_2 1_555 1_555
C6_2 C5_2 1_555 1_555
C7_2 C2_2 1_555 1_555
H2_2 C7_2 1_555 1_555
C8_2 H3_2 1_555 1_555
H4_2 C8_2 1_555 1_555
H5_2 C8_2 1_555 1_555
C9_2 C4_2 1_555 1_555
C10_2 C9_2 1_555 1_555
H6_2 C10_2 1_555 1_555
H7_2 C10_2 1_555 1_555
H8_2 C10_2 1_555 1_555
C11_2 C9_2 1_555 1_555
H9_2 C11_2 1_555 1_555
H10_2 C11_2 1_555 1_555
H11_2 C11_2 1_555 1_555
C19_2 N2_2 1_555 1_555
C20_2 C19_2 1_555 1_555
C21_2 O4_2 1_555 1_555
C22_2 C21_2 1_555 1_555
C23_2 C22_2 1_555 1_555
H24_2 C23_2 1_555 1_555
C24_2 C23_2 1_555 1_555
C25_2 C20_2 1_555 1_555
H25_2 C25_2 1_555 1_555
C26_2 C22_2 1_555 1_555
C27_2 C26_2 1_555 1_555
H26_2 C27_2 1_555 1_555
H27_2 C27_2 1_555 1_555
H28_2 C27_2 1_555 1_555
C28_2 C26_2 1_555 1_555
H29_2 C28_2 1_555 1_555
H30_2 C28_2 1_555 1_555
H31_2 C28_2 1_555 1_555
C29_2 C26_2 1_555 1_555
H32_2 C29_2 1_555 1_555
H33_2 C29_2 1_555 1_555
H34_2 C29_2 1_555 1_555
C30_2 O6_2 1_555 1_555
C203_2 H241_2 1_555 1_555
H242_2 C203_2 1_555 1_555
H247_2 C206_2 1_555 1_555
C207_2 C203_2 1_555 1_555
H248_2 C207_2 1_555 1_555
H249_2 C207_2 1_555 1_555
C208_2 C203_2 1_555 1_555
H250_2 C208_2 1_555 1_555
H251_2 C208_2 1_555 1_555
C209_2 C208_2 1_555 1_555
H252_2 C209_2 1_555 1_555
H253_2 C209_2 1_555 1_555
H254_2 C210_2 1_555 1_555
C4_2 C5_2 1_555 1_555
C6_2 C7_2 1_555 1_555
C8_2 C9_2 1_555 1_555
C20_2 C21_2 1_555 1_555
C24_2 C25_2 1_555 1_555
C24_2 C30_2 1_555 1_555
C206_2 C207_2 1_555 1_555
C206_2 C210_2 1_555 1_555
C209_2 C210_2 1_555 1_555
Cu3_2 N5_2 1_555 1_555
N5_2 C73_2 1_555 1_555
N6_2 Cu3_2 1_555 1_555
O62 C61_2 1_555 1_555
O64 C61_2 1_555 1_555
O15_2 Cu3_2 1_555 1_555
O16_2 Cu3_2 1_555 1_555
O17_2 Cd1_4 1_555 1_555
O19_2 Cd1_4 1_555 1_555
C61_2 C62_2 1_555 1_555
C62_2 C63_2 1_555 1_555
C63_2 H69_2 1_555 1_555
C64_2 C63_2 1_555 1_555
C65_2 O15_2 1_555 1_555
C66_2 C65_2 1_555 1_555
C67_2 C62_2 1_555 1_555
H70_2 C67_2 1_555 1_555
C68_2 C64_2 1_555 1_555
C69_2 C68_2 1_555 1_555
H71_2 C69_2 1_555 1_555
H72 C69_2 1_555 1_555
H73_2 C69_2 1_555 1_555
C70_2 C68_2 1_555 1_555
H74_2 C70_2 1_555 1_555
H75_2 C70_2 1_555 1_555
H76_2 C70_2 1_555 1_555
C72_2 C68_2 1_555 1_555
H79_2 C72_2 1_555 1_555
H80_2 C72_2 1_555 1_555
H81_2 C72_2 1_555 1_555
C73_2 C66_2 1_555 1_555
C79_2 N6_2 1_555 1_555
C80_2 C79_2 1_555 1_555
C81_2 O16_2 1_555 1_555
C82_2 C81_2 1_555 1_555
C83_2 C82_2 1_555 1_555
H92_2 C83_2 1_555 1_555
C84_2 C83_2 1_555 1_555
C85_2 C80_2 1_555 1_555
H93_2 C85_2 1_555 1_555
C86_2 C82_2 1_555 1_555
C87_2 C86_2 1_555 1_555
H94_2 C87_2 1_555 1_555
H95_2 C87_2 1_555 1_555
H96_2 C87_2 1_555 1_555
C88_2 C86_2 1_555 1_555
H97_2 C88_2 1_555 1_555
H98_2 C88_2 1_555 1_555
H99_2 C88_2 1_555 1_555
C89_2 C86_2 1_555 1_555
H100_2 C89_2 1_555 1_555
H101_2 C89_2 1_555 1_555
H102_2 C89_2 1_555 1_555
C90_2 O19_2 1_555 1_555
C91_2 O17_2 1_555 1_555
N10_2 C122_2 1_555 1_555
C122_2 O26_2 1_555 1_555
H138_2 C122_2 1_555 1_555
C124_2 N10_2 1_555 1_555
H142_2 C124_2 1_555 1_555
H143 C124_2 1_555 1_555
H144_2 C124_2 1_555 1_555
H176_2 C144_2 1_555 1_555
H177_2 C145_2 1_555 1_555
C146_2 C145_2 1_555 1_555
H178_2 C146_2 1_555 1_555
H179_2 C146_2 1_555 1_555
C147_2 C146_2 1_555 1_555
H180_2 C147_2 1_555 1_555
H181_2 C147_2 1_555 1_555
C148_2 C147_2 1_555 1_555
H182_2 C148_2 1_555 1_555
H183_2 C148_2 1_555 1_555
C149_2 C148_2 1_555 1_555
H184_2 C149_2 1_555 1_555
H185_2 C149_2 1_555 1_555
H186_2 C150_2 1_555 1_555
O18_2 C91_2 1_555 1_555
O20_2 C90_2 1_555 1_555
C64_2 C65_2 1_555 1_555
C66_2 C67_2 1_555 1_555
C80_2 C81_2 1_555 1_555
C84_2 C85_2 1_555 1_555
C84_2 C91_2 1_555 1_555
C145_2 C150_2 1_555 1_555
C149_2 C150_2 1_555 1_555
Cd3_3 O12_2 1_555 1_555
Cd12 O12_2 1_555 1_555
Cd16 O11_2 1_555 1_555
Cd6_3 O7_2 1_555 1_555
Cu2_2 N3_2 1_555 1_555
N3_2 C42_2 1_555 1_555
N4_2 Cu2_2 1_555 1_555
O7_2 C31_2 1_555 1_555
O9_2 Cu2_2 1_555 1_555
O10_2 Cu2_2 1_555 1_555
O11_2 C60_2 1_555 1_555
O12_2 C60_2 1_555 1_555
O27_2 Cd16 1_555 1_555
O28_2 Cd3_3 1_555 1_555
C31_2 O8_2 1_555 1_555
C32_2 C31_2 1_555 1_555
C33_2 C32_2 1_555 1_555
H35_2 C33_2 1_555 1_555
C34_2 C33_2 1_555 1_555
C35_2 O9_2 1_555 1_555
C36_2 C35_2 1_555 1_555
C37_2 C32_2 1_555 1_555
H36_2 C37_2 1_555 1_555
C38_2 C36_2 1_555 1_555
C39_2 C38_2 1_555 1_555
H37_2 C39_2 1_555 1_555
H38_2 C39_2 1_555 1_555
H39_2 C39_2 1_555 1_555
C40_2 C38_2 1_555 1_555
H40_2 C40_2 1_555 1_555
H41_2 C40_2 1_555 1_555
H42_2 C40_2 1_555 1_555
C41_2 C38_2 1_555 1_555
H43_2 C41_2 1_555 1_555
H44_2 C41_2 1_555 1_555
H45_2 C41_2 1_555 1_555
C42_2 C34_2 1_555 1_555
H46_2 C42_2 1_555 1_555
C43_2 N3_2 1_555 1_555
H47_2 C43_2 1_555 1_555
C44_2 C43_2 1_555 1_555
H48_2 C44_2 1_555 1_555
H49_2 C44_2 1_555 1_555
H52_2 C46_2 1_555 1_555
C47_2 C46_2 1_555 1_555
H54_2 C47_2 1_555 1_555
H55_2 C47_2 1_555 1_555
C48_2 N4_2 1_555 1_555
H56_2 C48_2 1_555 1_555
C49_2 N4_2 1_555 1_555
H57_2 C49_2 1_555 1_555
C50_2 C49_2 1_555 1_555
C51_2 O10_2 1_555 1_555
C52_2 C51_2 1_555 1_555
C53_2 C52_2 1_555 1_555
H58_2 C53_2 1_555 1_555
C54_2 C53_2 1_555 1_555
C55_2 C50_2 1_555 1_555
H59_2 C55_2 1_555 1_555
C56_2 C52_2 1_555 1_555
C57_2 C56_2 1_555 1_555
H60_2 C57_2 1_555 1_555
H61_2 C57_2 1_555 1_555
H62_2 C57_2 1_555 1_555
C58_2 C56_2 1_555 1_555
H63_2 C58_2 1_555 1_555
H64_2 C58_2 1_555 1_555
H65_2 C58_2 1_555 1_555
C59_2 C56_2 1_555 1_555
H66_2 C59_2 1_555 1_555
H67_2 C59_2 1_555 1_555
H68_2 C59_2 1_555 1_555
C60_2 C54_2 1_555 1_555
N11_2 C125_2 1_555 1_555
C125_2 O27_2 1_555 1_555
H145_2 C125_2 1_555 1_555
C126_2 N11_2 1_555 1_555
H146_2 C126_2 1_555 1_555
H147_2 C126_2 1_555 1_555
N12_2 C128_2 1_555 1_555
C128_2 O28_2 1_555 1_555
H152_2 C128_2 1_555 1_555
C129_2 N12_2 1_555 1_555
H153_2 C129_2 1_555 1_555
H154_2 C129_2 1_555 1_555
H155_2 C129_2 1_555 1_555
C130_2 N12_2 1_555 1_555
H156_2 C130_2 1_555 1_555
H157_2 C130_2 1_555 1_555
H158_2 C130_2 1_555 1_555
Cu8_2 N19_2 1_555 1_555
N19_2 C234_2 1_555 1_555
N20_2 Cu8_2 1_555 1_555
O49_2 Cu8_2 1_555 1_555
O50_2 Cu8_2 1_555 1_555
O51_2 C252_2 1_555 1_555
O52_2 Cd3_3 1_555 1_555
H267_2 C225_2 1_555 1_555
C226_2 C225_2 1_555 1_555
C227_2 O49_2 1_555 1_555
C234_2 C226_2 1_555 1_555
H278_2 C234_2 1_555 1_555
C235_2 H279_2 1_555 1_555
H280_2 C235_2 1_555 1_555
C236_2 H281_2 1_555 1_555
H282_2 C236_2 1_555 1_555
C237_2 C236_2 1_555 1_555
H283_2 C237_2 1_555 1_555
H284_2 C237_2 1_555 1_555
C238_2 N20_2 1_555 1_555
H285_2 C238_2 1_555 1_555
C239_2 N19_2 1_555 1_555
H286_2 C239_2 1_555 1_555
C240_2 C235_2 1_555 1_555
H287_2 C240_2 1_555 1_555
H288_2 C240_2 1_555 1_555
C241_2 N20_2 1_555 1_555
H289_2 C241_2 1_555 1_555
C242_2 C238_2 1_555 1_555
C243_2 O50_2 1_555 1_555
C244_2 C243_2 1_555 1_555
C245_2 C244_2 1_555 1_555
H290_2 C245_2 1_555 1_555
C246_2 C245_2 1_555 1_555
C247_2 C242_2 1_555 1_555
H291_2 C247_2 1_555 1_555
C249_2 C244_2 1_555 1_555
C251_2 C249_2 1_555 1_555
H298_2 C251_2 1_555 1_555
H300_2 C251_2 1_555 1_555
C252_2 O52_2 1_555 1_555
O56_2 Cd3_3 1_555 1_555
N24_2 C262_2 1_555 1_555
C262_2 O56_2 1_555 1_555
H322_2 C262_2 1_555 1_555
C263_2 N24_2 1_555 1_555
H323_2 C263_2 1_555 1_555
H324_2 C263_2 1_555 1_555
H325_2 C263_2 1_555 1_555
C264_2 N24_2 1_555 1_555
H326_2 C264_2 1_555 1_555
H327_2 C264_2 1_555 1_555
H328_2 C264_2 1_555 1_555
Cd18 O51_2 1_555 1_555
O61_2 Cd3_3 1_555 1_555
O67_2 Cd16 1_555 1_555
O69_2 Cd3_3 1_555 1_555
Cd12 O61_2 1_555 1_555
C34_2 C35_2 1_555 1_555
C36_2 C37_2 1_555 1_555
C43_2 C48_2 1_555 1_555
C47_2 C48_2 1_555 1_555
C50_2 C51_2 1_555 1_555
C54_2 C55_2 1_555 1_555
C226_2 C227_2 1_555 1_555
C235_2 C239_2 1_555 1_555
C236_2 C240_2 1_555 1_555
C237_2 C241_2 1_555 1_555
C239_2 C241_2 1_555 1_555
C242_2 C243_2 1_555 1_555
C246_2 C247_2 1_555 1_555
C246_2 C252_2 1_555 1_555
H12_2 C12_2 1_555 1_555
H13_2 C13_2 1_555 1_555
C14_2 C13_2 1_555 1_555
H14_2 C14_2 1_555 1_555
H15_2 C14_2 1_555 1_555
C15_2 C14_2 1_555 1_555
H16_2 C15_2 1_555 1_555
H17_2 C15_2 1_555 1_555
C16_2 C15_2 1_555 1_555
H18_2 C16_2 1_555 1_555
H19_2 C16_2 1_555 1_555
C17_2 C16_2 1_555 1_555
H20_2 C17_2 1_555 1_555
H21_2 C17_2 1_555 1_555
H22_2 C18_2 1_555 1_555
Cu7_2 N17_2 1_555 1_555
N17_2 C205_2 1_555 1_555
N18_2 Cu7_2 1_555 1_555
O63 C193_2 1_555 1_555
O66 C193_2 1_555 1_555
O43_2 Cu7_2 1_555 1_555
O44_2 Cu7_2 1_555 1_555
O45_2 Cd1_5 1_555 1_555
O47_2 Cd1_5 1_555 1_555
C193_2 C194_2 1_555 1_555
C194_2 C195_2 1_555 1_555
C195_2 H233_2 1_555 1_555
C196_2 C195_2 1_555 1_555
C197_2 O43_2 1_555 1_555
C198_2 C197_2 1_555 1_555
C199_2 C194_2 1_555 1_555
H234_2 C199_2 1_555 1_555
C200_2 C196_2 1_555 1_555
C201_2 C200_2 1_555 1_555
H235_2 C201_2 1_555 1_555
H236 C201_2 1_555 1_555
H237_2 C201_2 1_555 1_555
C202_2 C200_2 1_555 1_555
H238_2 C202_2 1_555 1_555
H239_2 C202_2 1_555 1_555
H240_2 C202_2 1_555 1_555
C204_2 C200_2 1_555 1_555
H243_2 C204_2 1_555 1_555
H244_2 C204_2 1_555 1_555
H245_2 C204_2 1_555 1_555
C205_2 C198_2 1_555 1_555
C211_2 N18_2 1_555 1_555
C212_2 C211_2 1_555 1_555
C213_2 O44_2 1_555 1_555
C214_2 C213_2 1_555 1_555
C215_2 C214_2 1_555 1_555
H256_2 C215_2 1_555 1_555
C216_2 C215_2 1_555 1_555
C217_2 C212_2 1_555 1_555
H257_2 C217_2 1_555 1_555
C218_2 C214_2 1_555 1_555
C219_2 C218_2 1_555 1_555
H258_2 C219_2 1_555 1_555
H259_2 C219_2 1_555 1_555
H260_2 C219_2 1_555 1_555
C220_2 C218_2 1_555 1_555
H261_2 C220_2 1_555 1_555
H262_2 C220_2 1_555 1_555
H263_2 C220_2 1_555 1_555
C221_2 C218_2 1_555 1_555
H264_2 C221_2 1_555 1_555
H265_2 C221_2 1_555 1_555
H266_2 C221_2 1_555 1_555
C222_2 O47_2 1_555 1_555
C223_2 O45_2 1_555 1_555
N22_2 C254_2 1_555 1_555
C254_2 O54_2 1_555 1_555
H302_2 C254_2 1_555 1_555
C256_2 N22_2 1_555 1_555
H306_2 C256_2 1_555 1_555
H307 C256_2 1_555 1_555
H308_2 C256_2 1_555 1_555
C13_2 C18_2 1_555 1_555
C17_2 C18_2 1_555 1_555
O46_2 C223_2 1_555 1_555
O48_2 C222_2 1_555 1_555
C196_2 C197_2 1_555 1_555
C198_2 C199_2 1_555 1_555
C212_2 C213_2 1_555 1_555
C216_2 C217_2 1_555 1_555
C216_2 C223_2 1_555 1_555
C71_2 H77_2 1_555 1_555
H78_2 C71_2 1_555 1_555
H83_2 C74_2 1_555 1_555
C75_2 C71_2 1_555 1_555
H84_2 C75_2 1_555 1_555
H85_2 C75_2 1_555 1_555
C76_2 C71_2 1_555 1_555
H86_2 C76_2 1_555 1_555
H87_2 C76_2 1_555 1_555
C77_2 C76_2 1_555 1_555
H88_2 C77_2 1_555 1_555
H89_2 C77_2 1_555 1_555
H90_2 C78_2 1_555 1_555
Cd7_2 O33_2 1_555 1_555
Cu5_2 N13_2 1_555 1_555
N14_2 Cu5_2 1_555 1_555
O58 C133_2 1_555 1_555
O60 C133_2 1_555 1_555
O31_2 Cu5_2 1_555 1_555
O32_2 Cu5_2 1_555 1_555
O33_2 Cd1_6 1_555 1_555
O34_2 Cd7_2 1_555 1_555
C133_2 C134_2 1_555 1_555
C134_2 C135_2 1_555 1_555
C135_2 H165_2 1_555 1_555
C136_2 C135_2 1_555 1_555
C137_2 O31_2 1_555 1_555
C138_2 C137_2 1_555 1_555
C139_2 C134_2 1_555 1_555
H166_2 C139_2 1_555 1_555
C140_2 H167_2 1_555 1_555
H168_2 C140_2 1_555 1_555
H169_2 C140_2 1_555 1_555
C141_2 C136_2 1_555 1_555
C142_2 C141_2 1_555 1_555
H170_2 C142_2 1_555 1_555
H171_2 C142_2 1_555 1_555
H172_2 C142_2 1_555 1_555
C143_2 C141_2 1_555 1_555
H173_2 C143_2 1_555 1_555
H174_2 C143_2 1_555 1_555
H175_2 C143_2 1_555 1_555
C151_2 N14_2 1_555 1_555
C152_2 C151_2 1_555 1_555
C153_2 O32_2 1_555 1_555
C154_2 C153_2 1_555 1_555
C155_2 C154_2 1_555 1_555
H188_2 C155_2 1_555 1_555
C156_2 C155_2 1_555 1_555
C157_2 C152_2 1_555 1_555
H189_2 C157_2 1_555 1_555
C158_2 C154_2 1_555 1_555
C159_2 C158_2 1_555 1_555
H190_2 C159_2 1_555 1_555
H191_2 C159_2 1_555 1_555
H192_2 C159_2 1_555 1_555
C160_2 C158_2 1_555 1_555
H193_2 C160_2 1_555 1_555
H194_2 C160_2 1_555 1_555
H195_2 C160_2 1_555 1_555
C161_2 C158_2 1_555 1_555
H196_2 C161_2 1_555 1_555
H197_2 C161_2 1_555 1_555
H198_2 C161_2 1_555 1_555
C162_2 O33_2 1_555 1_555
C74_2 C75_2 1_555 1_555
C74_2 C78_2 1_555 1_555
C77_2 C78_2 1_555 1_555
O34_2 C162_2 1_555 1_555
C136_2 C137_2 1_555 1_555
C138_2 C139_2 1_555 1_555
C140_2 C141_2 1_555 1_555
C152_2 C153_2 1_555 1_555
C156_2 C157_2 1_555 1_555
C156_2 C162_2 1_555 1_555
Cu4_2 N7_2 1_555 1_555
N7_2 C102_2 1_555 1_555
N8_2 Cu4_2 1_555 1_555
O21_2 Cu4_2 1_555 1_555
O22_2 Cu4_2 1_555 1_555
O67_2 C120_2 1_555 1_555
O69_2 C120_2 1_555 1_555
H103_2 C93_2 1_555 1_555
C94_2 C93_2 1_555 1_555
C95_2 O21_2 1_555 1_555
C102_2 C94_2 1_555 1_555
H114_2 C102_2 1_555 1_555
C103_2 H115_2 1_555 1_555
H116_2 C103_2 1_555 1_555
C104_2 H117_2 1_555 1_555
H118_2 C104_2 1_555 1_555
C105_2 C104_2 1_555 1_555
H119_2 C105_2 1_555 1_555
H120_2 C105_2 1_555 1_555
C106_2 N8_2 1_555 1_555
H121_2 C106_2 1_555 1_555
C107_2 N7_2 1_555 1_555
H122_2 C107_2 1_555 1_555
C108_2 C103_2 1_555 1_555
H123_2 C108_2 1_555 1_555
H124_2 C108_2 1_555 1_555
C109_2 N8_2 1_555 1_555
H125_2 C109_2 1_555 1_555
C110_2 C106_2 1_555 1_555
C111_2 O22_2 1_555 1_555
C112_2 C111_2 1_555 1_555
C113_2 C112_2 1_555 1_555
H126_2 C113_2 1_555 1_555
C114_2 C113_2 1_555 1_555
C115_2 C110_2 1_555 1_555
H127_2 C115_2 1_555 1_555
C117_2 C112_2 1_555 1_555
C119_2 C117_2 1_555 1_555
H134_2 C119_2 1_555 1_555
H136_2 C119_2 1_555 1_555
C120_2 C114_2 1_555 1_555
Cd18 O39_2 1_555 1_555
Cu6_2 N15_2 1_555 1_555
N15_2 C174_2 1_555 1_555
N16_2 Cu6_2 1_555 1_555
O35_2 Cd6_4 1_555 1_555
O37_2 Cu6_2 1_555 1_555
O38_2 Cu6_2 1_555 1_555
O39_2 C192_2 1_555 1_555
O61_2 C192_2 1_555 1_555
O55_2 Cd18 1_555 1_555
C163_2 O35_2 1_555 1_555
C164_2 C163_2 1_555 1_555
C165_2 C164_2 1_555 1_555
H199_2 C165_2 1_555 1_555
C166_2 C165_2 1_555 1_555
C167_2 O37_2 1_555 1_555
C168_2 C167_2 1_555 1_555
C169_2 C164_2 1_555 1_555
H200_2 C169_2 1_555 1_555
C170_2 C168_2 1_555 1_555
C171_2 C170_2 1_555 1_555
H201_2 C171_2 1_555 1_555
H202_2 C171_2 1_555 1_555
H203_2 C171_2 1_555 1_555
C172_2 C170_2 1_555 1_555
H204_2 C172_2 1_555 1_555
H205_2 C172_2 1_555 1_555
H206_2 C172_2 1_555 1_555
C173_2 C170_2 1_555 1_555
H207_2 C173_2 1_555 1_555
H208_2 C173_2 1_555 1_555
H209_2 C173_2 1_555 1_555
C174_2 C166_2 1_555 1_555
H210_2 C174_2 1_555 1_555
C175_2 N15_2 1_555 1_555
H211_2 C175_2 1_555 1_555
C176_2 C175_2 1_555 1_555
H212_2 C176_2 1_555 1_555
H213_2 C176_2 1_555 1_555
H216_2 C178_2 1_555 1_555
C179_2 C178_2 1_555 1_555
H218_2 C179_2 1_555 1_555
H219_2 C179_2 1_555 1_555
C180_2 N16_2 1_555 1_555
H220_2 C180_2 1_555 1_555
C181_2 N16_2 1_555 1_555
H221_2 C181_2 1_555 1_555
C182_2 C181_2 1_555 1_555
C183_2 O38_2 1_555 1_555
C184_2 C183_2 1_555 1_555
C185_2 C184_2 1_555 1_555
H222_2 C185_2 1_555 1_555
C186_2 C185_2 1_555 1_555
C187_2 C182_2 1_555 1_555
H223_2 C187_2 1_555 1_555
C188_2 C184_2 1_555 1_555
C189_2 C188_2 1_555 1_555
H224_2 C189_2 1_555 1_555
H225_2 C189_2 1_555 1_555
H226_2 C189_2 1_555 1_555
C190_2 C188_2 1_555 1_555
H227_2 C190_2 1_555 1_555
H228_2 C190_2 1_555 1_555
H229_2 C190_2 1_555 1_555
C191_2 C188_2 1_555 1_555
H230_2 C191_2 1_555 1_555
H231_2 C191_2 1_555 1_555
H232_2 C191_2 1_555 1_555
C192_2 C186_2 1_555 1_555
N23_2 C257_2 1_555 1_555
C257_2 O55_2 1_555 1_555
H309_2 C257_2 1_555 1_555
C258_2 N23_2 1_555 1_555
H310_2 C258_2 1_555 1_555
H311_2 C258_2 1_555 1_555
C94_2 C95_2 1_555 1_555
C103_2 C107_2 1_555 1_555
C104_2 C108_2 1_555 1_555
C105_2 C109_2 1_555 1_555
C107_2 C109_2 1_555 1_555
C110_2 C111_2 1_555 1_555
C114_2 C115_2 1_555 1_555
O36_2 C163_2 1_555 1_555
C166_2 C167_2 1_555 1_555
C168_2 C169_2 1_555 1_555
C175_2 C180_2 1_555 1_555
C179_2 C180_2 1_555 1_555
C182_2 C183_2 1_555 1_555
C186_2 C187_2 1_555 1_555
H150_2 C127_2 1_555 1_555
C92_2 C90_3 1_555 1_555
C97_2 C92_2 1_555 1_555
H104_2 C97_2 1_555 1_555
C98_2 H105_2 1_555 1_555
H106_2 C98_2 1_555 1_555
H107_2 C98_2 1_555 1_555
C99_2 C96_2 1_555 1_555
C100_2 C99_2 1_555 1_555
H108_2 C100_2 1_555 1_555
H109_2 C100_2 1_555 1_555
H110_2 C100_2 1_555 1_555
C101_2 C99_2 1_555 1_555
H112_2 C101_2 1_555 1_555
H113_2 C101_2 1_555 1_555
C116_2 H128_2 1_555 1_555
H129_2 C116_2 1_555 1_555
H130_2 C116_2 1_555 1_555
H132_2 C118_2 1_555 1_555
H133_2 C118_2 1_555 1_555
H139_2 C123_2 1_555 1_555
H140_2 C123_2 1_555 1_555
H141_2 C123_2 1_555 1_555
O53_2 Cd6_5 1_555 1_555
H214_2 C177_2 1_555 1_555
H215_2 C177_2 1_555 1_555
N21_2 C253_2 1_555 1_555
C253_2 O53_2 1_555 1_555
H301_2 C253_2 1_555 1_555
C260_2 N21_2 1_555 1_555
H316_2 C260_2 1_555 1_555
H317_2 C260_2 1_555 1_555
H318_2 C260_2 1_555 1_555
C261_2 N21_2 1_555 1_555
H320_2 C261_2 1_555 1_555
H321_2 C261_2 1_555 1_555
C96_2 C97_2 1_555 1_555
C98_2 C99_2 1_555 1_555
O25_2 Cd6_6 1_555 1_555
H50_2 C45_2 1_555 1_555
H51_2 C45_2 1_555 1_555
N9_2 C121_2 1_555 1_555
C121_2 O25_2 1_555 1_555
H137_2 C121_2 1_555 1_555
C131_2 N9_2 1_555 1_555
H159_2 C131_2 1_555 1_555
H160_2 C131_2 1_555 1_555
H161_2 C131_2 1_555 1_555
C132_2 N9_2 1_555 1_555
H163_2 C132_2 1_555 1_555
H164_2 C132_2 1_555 1_555
C224_2 C222_3 1_555 1_555
C229_2 C224_2 1_555 1_555
H268_2 C229_2 1_555 1_555
C230_2 H269_2 1_555 1_555
H270_2 C230_2 1_555 1_555
H271_2 C230_2 1_555 1_555
C231_2 C228_2 1_555 1_555
C232_2 C231_2 1_555 1_555
H272_2 C232_2 1_555 1_555
H273_2 C232_2 1_555 1_555
H274_2 C232_2 1_555 1_555
C233_2 C231_2 1_555 1_555
H276_2 C233_2 1_555 1_555
H277_2 C233_2 1_555 1_555
C248_2 H292_2 1_555 1_555
H293_2 C248_2 1_555 1_555
H294_2 C248_2 1_555 1_555
H296_2 C250_2 1_555 1_555
H297_2 C250_2 1_555 1_555
H303_2 C255_2 1_555 1_555
H304_2 C255_2 1_555 1_555
H305_2 C255_2 1_555 1_555
C228_2 C229_2 1_555 1_555
C230_2 C231_2 1_555 1_555
H314_2 C259_2 1_555 1_555

#END
