
###############################################################################
#
# This file contains modified crystal structure data generated from the
# MOF subset of the Cambridge Structural Database (CSD) v543 
# hosted by the Cambridge Crystallographic Data Centre (CCDC).
#
# This work is licensed under the Creative Commons
# Attribution-NonCommercial-ShareAlike 4.0 International License.
# To view a copy of this license, visit
# http://creativecommons.org/licenses/by-nc-sa/4.0/
# or send a letter to
# Creative Commons, PO Box 1866, Mountain View, CA 94042, USA.
#
# CIF created using the CSD Python API on 29 September 2022
# The structure has been converted into the P1 space group
# The structure has a 3D framework
# The original CSD entry BAHCOF is in the orthorhombic crystal system
# The original CSD entry BAHCOF is in a Sohncke space group
# The framework has been calculated to contain at least 10.0% void space
# The void calculation uses a probe of radius 1.32A, grid spacing 0.4
# H atom positions have been added when not included in the experimental data
#
###############################################################################

data_BAHCOF
_chemical_formula_moiety         '(C28 H56 Cu8 N48 O16)n'
_symmetry_cell_setting           triclinic
_symmetry_space_group_name_H-M   'P 1'
_symmetry_Int_Tables_number      1
_space_group_name_Hall           'P 1'
loop_
_symmetry_equiv_pos_site_id
_symmetry_equiv_pos_as_xyz
1 x,y,z
_cell_length_a                   8.3425(7)
_cell_length_b                   11.9337(15)
_cell_length_c                   21.6641(18)
_cell_angle_alpha                90
_cell_angle_beta                 90
_cell_angle_gamma                90
_cell_volume                     2156.81
loop_
_atom_site_label
_atom_site_type_symbol
_atom_site_fract_x
_atom_site_fract_y
_atom_site_fract_z
Cu1 Cu 0.52683(14) 0.35891(12) 0.50162(5)
C1 C 0.3039(9) 0.3344(7) 0.4993(5)
N9 N 0.1677(9) 0.3352(7) 0.4981(4)
C4 C 0.0218(12) 0.4623(13) 0.6601(4)
H1 H 0.075080 0.523772 0.638233
C6 C 0.1283(17) 0.3612(15) 0.6589(6)
H3 H 0.076823 0.300523 0.680198
H4 H 0.228032 0.378481 0.678895
H5 H 0.148448 0.339823 0.616898
H9 H 0.042451 0.560838 0.732274
H10 H 0.028138 0.445556 0.750266
Cu6 Cu 0.02683(14) 0.14109(12) 0.49838(5)
Cu8 Cu 0.44142(13) 0.14364(12) 0.50095(6)
N13 N 0.6537(9) 0.4082(9) 0.4267(3)
N15 N 0.6563(8) 0.4052(9) 0.5742(4)
N16 N 0.6677(9) 0.1648(7) 0.5019(4)
Cu5 Cu 0.97317(14) 0.64109(12) 0.00162(5)
Cu2 Cu 0.94142(13) 0.35636(12) 0.49905(6)
Cu3 Cu 0.7590(2) 0.52245(14) 0.74610(5)
N1 N 0.8221(9) 0.4066(9) 0.5751(4)
N2 N 0.8463(9) 0.5918(9) 0.9267(3)
N3 N 0.6842(8) 0.6004(8) 0.9225(3)
N5 N 0.7271(9) 0.4614(8) 0.6635(3)
N6 N 0.9094(10) 0.5690(9) 0.8729(3)
C2 C 0.6523(12) 0.5800(11) 0.8645(4)
N7 N 0.7861(10) 0.5604(8) 0.8334(3)
N8 N 0.6005(10) 0.4384(10) 0.6268(3)
C3 C 0.8608(12) 0.4418(9) 0.6312(4)
N10 N 0.5252(11) 0.5320(13) 0.7676(4)
C5 C 0.4980(13) 0.5763(14) 0.8310(4)
H2 H 0.457496 0.653081 0.827366
C7 C 0.3689(17) 0.5053(19) 0.8626(7)
H6 H 0.403298 0.428588 0.864240
H7 H 0.270735 0.510285 0.839638
H8 H 0.351695 0.532525 0.903781
N11 N 0.9891(12) 0.4976(11) 0.7250(4)
N12 N 0.730(3) 0.2464(11) 0.7866(8)
O1 O 0.764(3) 0.7146(11) 0.7093(6)
H11 H 0.669799 0.742232 0.711274
H12 H 0.795619 0.712822 0.672024
O2 O 0.738(2) 0.1486(11) 0.7896(8)
O3 O 0.604(3) 0.2935(16) 0.7817(10)
O4 O 0.843(3) 0.3111(18) 0.7889(10)
Cu7 Cu 0.55858(13) 0.64364(12) 0.99905(6)
N14 N 0.8158(8) 0.3996(8) 0.4225(3)
C8 C 0.8039(9) 0.1656(7) 0.5007(5)
H13 H 0.476695 0.454174 0.764713
H14 H 0.470248 0.583476 0.736888
Cu3_2 Cu 0.7410(2) 0.47755(14) 0.24610(5)
N1_2 N 0.6779(9) 0.5934(9) 0.0751(4)
N4 N 0.8437(8) 0.5948(9) 0.0742(4)
N5_2 N 0.7729(9) 0.5386(8) 0.1635(3)
N6_2 N 0.5906(10) 0.4310(9) 0.3729(3)
C2_2 C 0.8477(12) 0.4200(11) 0.3645(4)
N7_2 N 0.7139(10) 0.4396(8) 0.3334(3)
N8_2 N 0.8995(10) 0.5616(10) 0.1268(3)
C3_2 C 0.6392(12) 0.5582(9) 0.1312(4)
N10_2 N 0.9748(11) 0.4680(13) 0.2676(4)
C4_2 C 0.4782(12) 0.5377(13) 0.1601(4)
H1_2 H 0.424920 0.476228 0.138233
C6_2 C 0.3717(17) 0.6388(15) 0.1589(6)
H3_2 H 0.423177 0.699477 0.180198
H4_2 H 0.271968 0.621519 0.178895
H5_2 H 0.351552 0.660177 0.116898
N11_2 N 0.5109(12) 0.5024(11) 0.2250(4)
H9_2 H 0.457549 0.439162 0.232274
H10_2 H 0.471862 0.554444 0.250266
N12_2 N 0.770(3) 0.7536(11) 0.2866(8)
O1_2 O 0.736(3) 0.2854(11) 0.2093(6)
H11_2 H 0.830201 0.257768 0.211274
H12_2 H 0.704381 0.287178 0.172024
O2_2 O 0.762(2) 0.8514(11) 0.2896(8)
O3_2 O 0.896(3) 0.7065(16) 0.2817(10)
O4_2 O 0.657(3) 0.6889(18) 0.2889(10)
Cu8_2 Cu 0.05858(13) 0.85636(12) 0.00095(6)
C8_2 C 0.6961(9) 0.8344(7) 0.0007(5)
C1_2 C 0.1961(9) 0.6656(7) 0.9993(5)
N9_2 N 0.3323(9) 0.6648(7) 0.9981(4)
Cu6_2 Cu 0.47317(14) 0.85891(12) 0.99838(5)
N16_2 N 0.8323(9) 0.8352(7) 0.0019(4)
N13_2 N 0.1537(9) 0.0918(9) 0.5733(3)
N15_2 N 0.1563(8) 0.0948(9) 0.4258(4)
N1_3 N 0.3221(9) 0.0934(9) 0.4249(4)
N5_3 N 0.2271(9) 0.0386(8) 0.3365(3)
N8_3 N 0.1005(10) 0.0616(10) 0.3732(3)
C3_3 C 0.3608(12) 0.0582(9) 0.3688(4)
C4_3 C 0.5218(12) 0.0377(13) 0.3399(4)
C6_3 C 0.6283(17) 0.1388(15) 0.3411(6)
H3_3 H 0.576823 0.199477 0.319802
H4_3 H 0.728032 0.121519 0.321105
H5_3 H 0.648448 0.160177 0.383102
N11_3 N 0.4891(12) 0.0024(11) 0.2750(4)
H10_3 H 0.528138 0.054444 0.249734
N12_3 N 0.230(3) 0.2536(11) 0.2134(8)
O2_3 O 0.238(2) 0.3514(11) 0.2104(8)
O3_3 O 0.104(3) 0.2065(16) 0.2183(10)
O4_3 O 0.343(3) 0.1889(18) 0.2111(10)
N14_2 N 0.3158(8) 0.1004(8) 0.5775(3)
Cu3_3 Cu 0.2590(2) 0.97755(14) 0.25390(5)
N2_2 N 0.3463(9) 0.9082(9) 0.0733(3)
N3_2 N 0.1842(8) 0.8996(8) 0.0775(3)
N6_3 N 0.4094(10) 0.9310(9) 0.1271(3)
C2_3 C 0.1523(12) 0.9200(11) 0.1355(4)
N7_3 N 0.2861(10) 0.9396(8) 0.1666(3)
N10_3 N 0.0252(11) 0.9680(13) 0.2324(4)
H1_3 H 0.575080 0.976228 0.361767
H9_3 H 0.542451 0.939162 0.267726
O1_3 O 0.264(3) 0.7854(11) 0.2907(6)
H11_3 H 0.169799 0.757768 0.288726
H12_3 H 0.295619 0.787178 0.327976
Cu3_4 Cu 0.2410(2) 0.02245(14) 0.75390(5)
N6_4 N 0.0906(10) 0.0690(9) 0.6271(3)
C2_4 C 0.3477(12) 0.0800(11) 0.6355(4)
N7_4 N 0.2139(10) 0.0604(8) 0.6666(3)
N10_4 N 0.4748(11) 0.0320(13) 0.7324(4)
C5_2 C 0.5020(13) 0.0763(14) 0.6690(4)
H2_2 H 0.542504 0.153081 0.672634
C7_2 C 0.6311(17) 0.0053(19) 0.6374(7)
H7_2 H 0.729265 0.010285 0.660362
H8_2 H 0.648305 0.032525 0.596219
O1_4 O 0.236(3) 0.2146(11) 0.7907(6)
H11_4 H 0.330201 0.242232 0.788726
H12_4 H 0.204381 0.212822 0.827976
H14_2 H 0.529752 0.0834761 0.763112
N1_4 N 0.1779(9) 0.9066(9) 0.9249(4)
N4_2 N 0.3437(8) 0.9052(9) 0.9258(4)
N5_4 N 0.2729(9) 0.9614(8) 0.8365(3)
N8_4 N 0.3995(10) 0.9384(10) 0.8732(3)
C3_4 C 0.1392(12) 0.9418(9) 0.8688(4)
H6_2 H 0.596702 0.928588 0.635760
N11_4 N 0.0109(12) 0.9976(11) 0.7750(4)
N12_4 N 0.270(3) 0.7464(11) 0.7134(8)
O2_4 O 0.262(2) 0.6486(11) 0.7104(8)
O3_4 O 0.396(3) 0.7935(16) 0.7183(10)
O4_4 O 0.157(3) 0.8111(18) 0.7111(10)
H13_2 H 0.523305 0.954174 0.735287
C4_4 C 0.9782(12) 0.9623(13) 0.8399(4)
C6_4 C 0.8717(17) 0.8612(15) 0.8411(6)
H3_4 H 0.923177 0.800523 0.819802
H4_4 H 0.771968 0.878481 0.821105
H5_4 H 0.851552 0.839823 0.883102
H10_4 H 0.971862 0.945556 0.749734
C5_3 C 0.0020(13) 0.4237(14) 0.3310(4)
H2_3 H 0.042504 0.346919 0.327366
C7_3 C 0.1311(17) 0.4947(19) 0.3626(7)
H6_3 H 0.096702 0.571412 0.364240
H7_3 H 0.229265 0.489715 0.339638
H8_3 H 0.148305 0.467475 0.403781
H13_3 H 0.0233046 0.545826 0.264713
H14_3 H 0.0297524 0.416524 0.236888
H6_4 H 0.903298 0.071412 0.135760
H13_4 H 0.976695 0.0458256 0.235287
C5_4 C 0.9980(13) 0.9237(14) 0.1690(4)
H2_4 H 0.957496 0.846919 0.172634
C7_4 C 0.8689(17) 0.9947(19) 0.1374(7)
H7_4 H 0.770735 0.989715 0.160362
H8_4 H 0.851695 0.967475 0.096219
H14_4 H 0.970248 0.916524 0.263112
H1_4 H 0.924920 0.023772 0.861767
H9_4 H 0.957549 0.060838 0.767726
loop_
_geom_bond_atom_site_label_1
_geom_bond_atom_site_label_2
_geom_bond_site_symmetry_1
_geom_bond_site_symmetry_2
Cu1 C1 1_555 1_555
C1 N9 1_555 1_555
H1 C4 1_555 1_555
C6 C4 1_555 1_555
H3 C6 1_555 1_555
H4 C6 1_555 1_555
H5 C6 1_555 1_555
Cu6 N9 1_555 1_555
Cu8 C1 1_555 1_555
N13 Cu1 1_555 1_555
N15 Cu1 1_555 1_555
N16 Cu1 1_555 1_555
Cu8 N16 1_555 1_555
Cu2 N1 1_555 1_555
Cu3 N5 1_555 1_555
N1 N15 1_555 1_555
N2 N3 1_555 1_555
N3 C2 1_555 1_555
N15 N8 1_555 1_555
N5 N8 1_555 1_555
N6 N2 1_555 1_555
C2 N7 1_555 1_555
N7 Cu3 1_555 1_555
C3 N1 1_555 1_555
N10 Cu3 1_555 1_555
C5 C2 1_555 1_555
H2 C5 1_555 1_555
C7 C5 1_555 1_555
H6 C7 1_555 1_555
H7 C7 1_555 1_555
H8 C7 1_555 1_555
N11 Cu3 1_555 1_555
N12 O2 1_555 1_555
O1 Cu3 1_555 1_555
H11 O1 1_555 1_555
H12 O1 1_555 1_555
O3 N12 1_555 1_555
O4 Cu3 1_555 1_555
Cu7 N3 1_555 1_555
N14 Cu2 1_555 1_555
C8 Cu2 1_555 1_555
N5 C3 1_555 1_555
N6 N7 1_555 1_555
N10 C5 1_555 1_555
N12 O4 1_555 1_555
N10 H13 1_555 1_555
N10 H14 1_555 1_555
Cu3_2 N5_2 1_555 1_555
N1_2 N4 1_555 1_555
N13 N14 1_555 1_555
N14 C2_2 1_555 1_555
N4 N8_2 1_555 1_555
N5_2 N8_2 1_555 1_555
N6_2 N13 1_555 1_555
C2_2 N7_2 1_555 1_555
N7_2 Cu3_2 1_555 1_555
C3_2 N1_2 1_555 1_555
N10_2 Cu3_2 1_555 1_555
C4_2 C3_2 1_555 1_555
H1_2 C4_2 1_555 1_555
C6_2 C4_2 1_555 1_555
H3_2 C6_2 1_555 1_555
H4_2 C6_2 1_555 1_555
H5_2 C6_2 1_555 1_555
N11_2 Cu3_2 1_555 1_555
H9_2 N11_2 1_555 1_555
H10_2 N11_2 1_555 1_555
N12_2 O2_2 1_555 1_555
O1_2 Cu3_2 1_555 1_555
H11_2 O1_2 1_555 1_555
H12_2 O1_2 1_555 1_555
O3_2 N12_2 1_555 1_555
O4_2 Cu3_2 1_555 1_555
Cu5 N4 1_555 1_555
N5_2 C3_2 1_555 1_555
N6_2 N7_2 1_555 1_555
C4_2 N11_2 1_555 1_555
N12_2 O4_2 1_555 1_555
C1_2 N9_2 1_555 1_555
N9_2 Cu7 1_555 1_555
Cu6_2 N9_2 1_555 1_555
N16_2 Cu5 1_555 1_555
N13_2 Cu6 1_555 1_555
N15_2 Cu6 1_555 1_555
Cu8 N1_3 1_555 1_555
N1_3 N15_2 1_555 1_555
C8 N16 1_555 1_555
N15_2 N8_3 1_555 1_555
N5_3 N8_3 1_555 1_555
C3_3 N1_3 1_555 1_555
C4_3 C3_3 1_555 1_555
C6_3 C4_3 1_555 1_555
H3_3 C6_3 1_555 1_555
H4_3 C6_3 1_555 1_555
H5_3 C6_3 1_555 1_555
H10_3 N11_3 1_555 1_555
N12_3 O2_3 1_555 1_555
O3_3 N12_3 1_555 1_555
N14_2 Cu8 1_555 1_555
N5_3 C3_3 1_555 1_555
C4_3 N11_3 1_555 1_555
N12_3 O4_3 1_555 1_555
N2_2 N3_2 1_555 1_555
N3_2 C2_3 1_555 1_555
N6_3 N2_2 1_555 1_555
C2_3 N7_3 1_555 1_555
N7_3 Cu3_3 1_555 1_555
N10_3 Cu3_3 1_555 1_555
O1_3 Cu3_3 1_555 1_555
H11_3 O1_3 1_555 1_555
H12_3 O1_3 1_555 1_555
Cu8_2 N3_2 1_555 1_555
N6_3 N7_3 1_555 1_555
N13_2 N14_2 1_555 1_555
N14_2 C2_4 1_555 1_555
N6_4 N13_2 1_555 1_555
C2_4 N7_4 1_555 1_555
N7_4 Cu3_4 1_555 1_555
N10_4 Cu3_4 1_555 1_555
C5_2 C2_4 1_555 1_555
H2_2 C5_2 1_555 1_555
C7_2 C5_2 1_555 1_555
H7_2 C7_2 1_555 1_555
H8_2 C7_2 1_555 1_555
O1_4 Cu3_4 1_555 1_555
H11_4 O1_4 1_555 1_555
H12_4 O1_4 1_555 1_555
N6_4 N7_4 1_555 1_555
N10_4 C5_2 1_555 1_555
N10_4 H14_2 1_555 1_555
N1_4 N4_2 1_555 1_555
N4_2 N8_4 1_555 1_555
N5_4 N8_4 1_555 1_555
C3_4 N1_4 1_555 1_555
N12_4 O2_4 1_555 1_555
O3_4 N12_4 1_555 1_555
Cu6_2 N4_2 1_555 1_555
N5_4 C3_4 1_555 1_555
N12_4 O4_4 1_555 1_555
C8_2 N16_2 1_555 1_555
C6_4 C4_4 1_555 1_555
H3_4 C6_4 1_555 1_555
H4_4 C6_4 1_555 1_555
H5_4 C6_4 1_555 1_555
H2_3 C5_3 1_555 1_555
C7_3 C5_3 1_555 1_555
H6_3 C7_3 1_555 1_555
H7_3 C7_3 1_555 1_555
H8_3 C7_3 1_555 1_555
H2_4 C5_4 1_555 1_555
C7_4 C5_4 1_555 1_555
H7_4 C7_4 1_555 1_555
H8_4 C7_4 1_555 1_555

#END
