
###############################################################################
#
# This file contains modified crystal structure data generated from the
# MOF subset of the Cambridge Structural Database (CSD) v543 
# hosted by the Cambridge Crystallographic Data Centre (CCDC).
#
# This work is licensed under the Creative Commons
# Attribution-NonCommercial-ShareAlike 4.0 International License.
# To view a copy of this license, visit
# http://creativecommons.org/licenses/by-nc-sa/4.0/
# or send a letter to
# Creative Commons, PO Box 1866, Mountain View, CA 94042, USA.
#
# CIF created using the CSD Python API on 29 September 2022
# The structure has been converted into the P1 space group
# The structure has a 3D framework
# The original CSD entry BAHGUN01 is in the monoclinic crystal system
# The framework has been calculated to contain at least 10.0% void space
# The void calculation uses a probe of radius 1.32A, grid spacing 0.4
#
###############################################################################

data_BAHGUN01
_chemical_formula_moiety         '(C48 H34 Cu4 N8 O16)n'
_symmetry_cell_setting           triclinic
_symmetry_space_group_name_H-M   'P 1'
_symmetry_Int_Tables_number      1
_space_group_name_Hall           'P 1'
loop_
_symmetry_equiv_pos_site_id
_symmetry_equiv_pos_as_xyz
1 x,y,z
_cell_length_a                   4.9579(4)
_cell_length_b                   25.0785(20)
_cell_length_c                   10.9881(9)
_cell_angle_alpha                90
_cell_angle_beta                 98.068(1)
_cell_angle_gamma                90
_cell_volume                     1352.7
loop_
_atom_site_label
_atom_site_type_symbol
_atom_site_fract_x
_atom_site_fract_y
_atom_site_fract_z
H7 H 0.0031 0.0650 0.0781
H8 H 0.1748 -0.0000 0.2161
Cu2 Cu 0.05679(4) 0.113269(9) 0.78373(3)
C11 C 0.0154(6) 0.99280(10) 0.1615(3)
H8_2 H 0.1748 1.0000 0.2161
Cu4 Cu 0.05679(4) 0.886731(9) 0.28373(3)
O2 O 0.1884(5) 0.15860(8) 0.5551(2)
O3 O 0.2938(5) 0.06069(8) 0.87844(19)
O4 O 0.6945(4) 0.10303(7) 0.88772(19)
H3 H 0.1309 0.2277 0.3837
C12 C 0.5478(6) 0.06609(9) 0.9156(2)
N3 N 0.2072(6) 0.17471(12) 0.8915(3)
N2 N 0.8987(5) 0.94455(11) 0.1661(2)
C7 C 0.6668(6) 0.93559(10) 0.0902(3)
H5 H 0.5826 0.9021 0.0926
C8 C 0.5461(6) 0.97347(11) 0.0085(3)
O1 O 0.8721(5) 0.17062(10) 0.6785(2)
N1 N 0.7072(6) 0.32529(12) 0.3915(3)
C1 C 0.6048(7) 0.31016(13) 0.4929(3)
H1 H 0.4701 0.3315 0.5207
C2 C 0.6880(8) 0.26481(13) 0.5579(3)
H2 H 0.6112 0.2556 0.6285
C3 C 0.8872(7) 0.23276(13) 0.5178(3)
C4 C 0.9957(6) 0.24837(10) 0.4131(3)
C5 C 0.9023(6) 0.29469(10) 0.3528(2)
H4 H 0.9773 0.3052 0.2825
C6 C 0.9919(7) 0.18285(12) 0.5879(3)
N4 N 0.8987(5) 0.05545(11) 0.6661(2)
Cu3 Cu 0.55679(4) 0.386731(9) 0.28373(3)
C11_2 C 0.0154(6) 0.00720(10) 0.6615(3)
H8_3 H 0.1748 0.0000 0.7161
H7_2 H 0.0031 0.9350 0.5781
H8_4 H 0.1748 1.0000 0.7161
C7_2 C 0.6668(6) 0.06441(10) 0.5902(3)
H5_2 H 0.5826 0.0979 0.5926
C8_2 C 0.5461(6) 0.02653(11) 0.5085(3)
H6 H 0.3815 0.0342 0.4579
O2_2 O 0.1884(5) 0.84140(8) 0.0551(2)
O3_2 O 0.2938(5) 0.93931(8) 0.37844(19)
O4_2 O 0.6945(4) 0.89697(7) 0.38772(19)
C9 C 0.6705(6) 0.97703(10) 0.5019(3)
C10 C 0.9117(6) 0.96778(10) 0.5804(3)
C12_2 C 0.5478(6) 0.93391(9) 0.4156(2)
N3_2 N 0.2072(6) 0.82529(12) 0.3915(3)
O1_2 O 0.8721(5) 0.82938(10) 0.1785(2)
H1_2 H 0.4701 0.6685 0.0207
C2_2 C 0.6880(8) 0.73519(13) 0.0579(3)
H2_2 H 0.6112 0.7444 0.1285
C3_2 C 0.8872(7) 0.76724(13) 0.0178(3)
C6_2 C 0.9919(7) 0.81715(12) 0.0879(3)
N1_2 N 0.7072(6) 0.67471(12) 0.8915(3)
C1_2 C 0.6048(7) 0.68984(13) 0.9929(3)
C4_2 C 0.9957(6) 0.75163(10) 0.9131(3)
C5_2 C 0.9023(6) 0.70531(10) 0.8528(2)
H4_2 H 0.9773 0.6948 0.7825
Cu3_2 Cu 0.55679(4) 0.613269(9) 0.78373(3)
N2_2 N 0.3987(5) 0.44455(11) 0.1661(2)
C7_3 C 0.1668(6) 0.43559(10) 0.0902(3)
H5_3 H 0.0826 0.4021 0.0926
C8_3 C 0.0461(6) 0.47347(11) 0.0085(3)
C9_2 C 0.1705(6) 0.52297(10) 0.0019(3)
C10_2 C 0.4117(6) 0.53222(10) 0.0804(3)
H7_3 H 0.5031 0.5650 0.0781
C11_3 C 0.5154(6) 0.49280(10) 0.1615(3)
H8_5 H 0.6748 0.5000 0.2161
O4_3 O 0.1945(4) 0.60303(7) 0.88772(19)
C12_3 C 0.0478(6) 0.56609(9) 0.9156(2)
O1_3 O 0.3721(5) 0.67062(10) 0.6785(2)
O2_3 O 0.6884(5) 0.65860(8) 0.5551(2)
O3_3 O 0.7938(5) 0.56069(8) 0.87844(19)
C1_3 C 0.1048(7) 0.81016(13) 0.4929(3)
C2_3 C 0.1880(8) 0.76481(13) 0.5579(3)
H2_3 H 0.1112 0.7556 0.6285
C3_3 C 0.3872(7) 0.73276(13) 0.5178(3)
C4_3 C 0.4957(6) 0.74837(10) 0.4131(3)
H3_2 H 0.6309 0.7277 0.3837
C5_3 C 0.4023(6) 0.79469(10) 0.3528(2)
H4_3 H 0.4773 0.8052 0.2825
C6_3 C 0.4919(7) 0.68285(12) 0.5879(3)
H6_2 H 0.8815 0.4658 0.9579
N4_2 N 0.3987(5) 0.55545(11) 0.6661(2)
O4_4 O 0.1945(4) 0.39697(7) 0.38772(19)
C7_4 C 0.1668(6) 0.56441(10) 0.5902(3)
H5_4 H 0.0826 0.5979 0.5926
C8_4 C 0.0461(6) 0.52653(11) 0.5085(3)
C9_3 C 0.1705(6) 0.47703(10) 0.5019(3)
C10_3 C 0.4117(6) 0.46778(10) 0.5804(3)
H7_4 H 0.5031 0.4350 0.5781
C11_4 C 0.5154(6) 0.50720(10) 0.6615(3)
H8_6 H 0.6748 0.5000 0.7161
C12_4 C 0.0478(6) 0.43391(9) 0.4156(2)
O1_4 O 0.3721(5) 0.32938(10) 0.1785(2)
O2_4 O 0.6884(5) 0.34140(8) 0.0551(2)
O3_4 O 0.7938(5) 0.43931(8) 0.37844(19)
C2_4 C 0.1880(8) 0.23519(13) 0.0579(3)
H2_4 H 0.1112 0.2444 0.1285
C3_4 C 0.3872(7) 0.26724(13) 0.0178(3)
C6_4 C 0.4919(7) 0.31715(12) 0.0879(3)
H6_3 H 0.8815 0.5342 0.4579
C1_4 C 0.1048(7) 0.18984(13) 0.9929(3)
C4_4 C 0.4957(6) 0.25163(10) 0.9131(3)
H3_3 H 0.6309 0.2723 0.8837
C5_4 C 0.4023(6) 0.20531(10) 0.8528(2)
H4_4 H 0.4773 0.1948 0.7825
C9_4 C 0.6705(6) 0.02297(10) 0.0019(3)
C10_4 C 0.9117(6) 0.03222(10) 0.0804(3)
H6_4 H 0.3815 0.9658 0.9579
H3_4 H 0.1309 0.7723 0.8837
H1_3 H 0.9701 0.8315 0.5207
H1_4 H 0.9701 0.1685 0.0207
loop_
_geom_bond_atom_site_label_1
_geom_bond_atom_site_label_2
_geom_bond_site_symmetry_1
_geom_bond_site_symmetry_2
H8_2 C11 1_555 1_555
O3 Cu2 1_555 1_555
O4 C12 1_555 1_555
C12 O3 1_555 1_555
N3 Cu2 1_555 1_555
N2 C7 1_555 1_555
C7 H5 1_555 1_555
C8 C7 1_555 1_555
O1 C6 1_555 1_555
N1 C1 1_555 1_555
C1 H1 1_555 1_555
C2 C1 1_555 1_555
H2 C2 1_555 1_555
C3 C2 1_555 1_555
C4 C3 1_555 1_555
C5 N1 1_555 1_555
H4 C5 1_555 1_555
C6 C3 1_555 1_555
Cu3 N1 1_555 1_555
C4 C5 1_555 1_555
H8_3 C11_2 1_555 1_555
N4 C7_2 1_555 1_555
C7_2 H5_2 1_555 1_555
C8_2 C7_2 1_555 1_555
H6 C8_2 1_555 1_555
O3_2 Cu4 1_555 1_555
O4_2 C12_2 1_555 1_555
C10 C9 1_555 1_555
C12_2 O3_2 1_555 1_555
N3_2 Cu4 1_555 1_555
C9 C12_2 1_555 1_555
O1_2 C6_2 1_555 1_555
H2_2 C2_2 1_555 1_555
C3_2 C2_2 1_555 1_555
C6_2 C3_2 1_555 1_555
N1_2 C1_2 1_555 1_555
C5_2 N1_2 1_555 1_555
H4_2 C5_2 1_555 1_555
Cu3_2 N1_2 1_555 1_555
C4_2 C5_2 1_555 1_555
N2_2 C7_3 1_555 1_555
C7_3 H5_3 1_555 1_555
C8_3 C7_3 1_555 1_555
C9_2 C8_3 1_555 1_555
C10_2 C9_2 1_555 1_555
H7_3 C10_2 1_555 1_555
C11_3 N2_2 1_555 1_555
H8_5 C11_3 1_555 1_555
Cu3 N2_2 1_555 1_555
C10_2 C11_3 1_555 1_555
O4_3 C12_3 1_555 1_555
Cu3_2 O4_3 1_555 1_555
Cu3_2 O1_3 1_555 1_555
O1_3 C6_3 1_555 1_555
O2_3 C6_3 1_555 1_555
O3_3 Cu3_2 1_555 1_555
N3_2 C1_3 1_555 1_555
C2_3 C1_3 1_555 1_555
H2_3 C2_3 1_555 1_555
C3_3 C2_3 1_555 1_555
C4_3 C3_3 1_555 1_555
H3_2 C4_3 1_555 1_555
C5_3 N3_2 1_555 1_555
H4_3 C5_3 1_555 1_555
C6_3 C3_3 1_555 1_555
N4_2 Cu3_2 1_555 1_555
C4_3 C5_3 1_555 1_555
O4_4 C12_4 1_555 1_555
N4_2 C7_4 1_555 1_555
C7_4 H5_4 1_555 1_555
C8_4 C7_4 1_555 1_555
C9_3 C8_4 1_555 1_555
C10_3 C9_3 1_555 1_555
H7_4 C10_3 1_555 1_555
C11_4 N4_2 1_555 1_555
H8_6 C11_4 1_555 1_555
Cu3 O4_4 1_555 1_555
C9_3 C12_4 1_555 1_555
C10_3 C11_4 1_555 1_555
Cu3 O1_4 1_555 1_555
O1_4 C6_4 1_555 1_555
O2_4 C6_4 1_555 1_555
O3_4 Cu3 1_555 1_555
H2_4 C2_4 1_555 1_555
C3_4 C2_4 1_555 1_555
C6_4 C3_4 1_555 1_555
N3 C1_4 1_555 1_555
H3_3 C4_4 1_555 1_555
C5_4 N3 1_555 1_555
H4_4 C5_4 1_555 1_555
C4_4 C5_4 1_555 1_555
C10_4 C9_4 1_555 1_555

#END
