
###############################################################################
#
# This file contains modified crystal structure data generated from the
# MOF subset of the Cambridge Structural Database (CSD) v543 
# hosted by the Cambridge Crystallographic Data Centre (CCDC).
#
# This work is licensed under the Creative Commons
# Attribution-NonCommercial-ShareAlike 4.0 International License.
# To view a copy of this license, visit
# http://creativecommons.org/licenses/by-nc-sa/4.0/
# or send a letter to
# Creative Commons, PO Box 1866, Mountain View, CA 94042, USA.
#
# CIF created using the CSD Python API on 29 September 2022
# The structure has been converted into the P1 space group
# The structure has a 3D framework
# The original CSD entry BAHGUN is in the monoclinic crystal system
# The framework has been calculated to contain at least 10.0% void space
# The void calculation uses a probe of radius 1.32A, grid spacing 0.4
#
###############################################################################

data_BAHGUN
_chemical_formula_moiety         '(C48 H32 Cu4 N8 O12)n'
_symmetry_cell_setting           triclinic
_symmetry_space_group_name_H-M   'P 1'
_symmetry_Int_Tables_number      1
_space_group_name_Hall           'P 1'
loop_
_symmetry_equiv_pos_site_id
_symmetry_equiv_pos_as_xyz
1 x,y,z
_cell_length_a                   4.9967(5)
_cell_length_b                   24.971(2)
_cell_length_c                   11.1001(10)
_cell_angle_alpha                90
_cell_angle_beta                 98.862(10)
_cell_angle_gamma                90
_cell_volume                     1368.45
loop_
_atom_site_label
_atom_site_type_symbol
_atom_site_fract_x
_atom_site_fract_y
_atom_site_fract_z
O3 O 0.0253(4) 0.43925(8) 0.51016(19)
Cu3 Cu 0.26276(4) 0.386484(8) 0.60480(3)
Cu1 Cu 0.26276(4) 0.613516(8) 0.10480(3)
O1 O 0.4463(5) 0.67058(10) 0.2101(2)
N1 N 0.6112(6) 0.82477(11) 0.4973(2)
C1 C 0.7123(7) 0.80993(13) 0.3982(3)
H1 H 0.8468 0.8309 0.3726
O2 O 0.1370(5) 0.65788(9) 0.3312(2)
N2 N 0.4243(5) 0.55513(10) 0.2207(2)
C2 C 0.6259(8) 0.76477(13) 0.3320(3)
H2 H 0.698 0.7562 0.2621
C3 C 0.4322(7) 0.73255(13) 0.3703(3)
O4 O 0.6259(4) 0.39778(7) 0.50175(18)
C4 C 0.3245(5) 0.74784(10) 0.4731(2)
H3 H 0.1911 0.7273 0.5008
C5 C 0.4185(5) 0.79417(9) 0.5339(2)
H4 H 0.3455 0.8044 0.6026
C6 C 0.3284(6) 0.68252(12) 0.3004(3)
C7 C 0.3044(6) 0.50760(10) 0.2277(3)
H5 H 0.1436 0.5008 0.1757
C8 C 0.4102(6) 0.46798(10) 0.3093(3)
H6 H 0.319 0.4357 0.3125
C9 C 0.6511(5) 0.47687(9) 0.3856(2)
C10 C 0.7793(6) 0.52596(10) 0.3761(3)
H7 H 0.9448 0.5331 0.4242
C11 C 0.7737(5) 0.43400(9) 0.4733(2)
C12 C 0.6579(6) 0.56416(10) 0.2943(3)
H8 H 0.7423 0.5972 0.2906
O5 O 0.0253(4) 0.56075(8) 0.01016(19)
O6 O 0.6259(4) 0.60222(7) 0.00175(18)
Cu2 Cu 0.76276(4) 0.886484(8) 0.60480(3)
N3 N 0.1112(6) 0.67523(11) 0.9973(2)
H3_2 H 0.1911 0.2727 0.0008
C5_2 C 0.4185(5) 0.20583(9) 0.0339(2)
H4_2 H 0.3455 0.1956 0.1026
Cu2_2 Cu 0.76276(4) 0.113516(8) 0.10480(3)
O1_2 O 0.4463(5) 0.32942(10) 0.7101(2)
N1_2 N 0.6112(6) 0.17523(11) 0.9973(2)
C1_2 C 0.7123(7) 0.19007(13) 0.8982(3)
H1_2 H 0.8468 0.1691 0.8726
O2_2 O 0.1370(5) 0.34212(9) 0.8312(2)
N2_2 N 0.4243(5) 0.44487(10) 0.7207(2)
C2_2 C 0.6259(8) 0.23523(13) 0.8320(3)
H2_2 H 0.698 0.2438 0.7621
C3_2 C 0.4322(7) 0.26745(13) 0.8703(3)
C4_2 C 0.3245(5) 0.25216(10) 0.9731(2)
C6_2 C 0.3284(6) 0.31748(12) 0.8004(3)
C7_2 C 0.3044(6) 0.49240(10) 0.7277(3)
H5_2 H 0.1436 0.4992 0.6757
C8_2 C 0.4102(6) 0.53202(10) 0.8093(3)
H6_2 H 0.319 0.5643 0.8125
C9_2 C 0.6511(5) 0.52313(9) 0.8856(2)
C10_2 C 0.7793(6) 0.47404(10) 0.8761(3)
H7_2 H 0.9448 0.4669 0.9242
C11_2 C 0.7737(5) 0.56600(9) 0.9733(2)
C12_2 C 0.6579(6) 0.43584(10) 0.7943(3)
H8_2 H 0.7423 0.4028 0.7906
N3_2 N 0.1112(6) 0.32477(11) 0.4973(2)
C1_3 C 0.2123(7) 0.30993(13) 0.3982(3)
H1_3 H 0.3468 0.3309 0.3726
C2_3 C 0.1259(8) 0.26477(13) 0.3320(3)
H2_3 H 0.198 0.2562 0.2621
C10_3 C 0.2793(6) 0.02596(10) 0.3761(3)
H7_3 H 0.4448 0.0331 0.4242
C12_3 C 0.1579(6) 0.06416(10) 0.2943(3)
H8_3 H 0.2423 0.0972 0.2906
O6_2 O 0.1259(4) 0.10222(7) 0.00175(18)
O3_2 O 0.5253(4) 0.93925(8) 0.51016(19)
O4_2 O 0.1259(4) 0.89778(7) 0.50175(18)
C9_3 C 0.1511(5) 0.97687(9) 0.3856(2)
C11_3 C 0.2737(5) 0.93400(9) 0.4733(2)
O1_3 O 0.9463(5) 0.17058(10) 0.2101(2)
O2_3 O 0.6370(5) 0.15788(9) 0.3312(2)
N2_3 N 0.9243(5) 0.05513(10) 0.2207(2)
C3_3 C 0.9322(7) 0.23255(13) 0.3703(3)
C4_3 C 0.8245(5) 0.24784(10) 0.4731(2)
H3_3 H 0.6911 0.2273 0.5008
C5_3 C 0.9185(5) 0.29417(9) 0.5339(2)
H4_3 H 0.8455 0.3044 0.6026
C6_3 C 0.8284(6) 0.18252(12) 0.3004(3)
C7_3 C 0.8044(6) 0.00760(10) 0.2277(3)
H5_3 H 0.6436 0.0008 0.1757
O5_2 O 0.5253(4) 0.06075(8) 0.01016(19)
C8_3 C 0.9102(6) 0.96798(10) 0.3093(3)
H6_3 H 0.819 0.9357 0.3125
C1_4 C 0.2123(7) 0.69007(13) 0.8982(3)
H1_4 H 0.3468 0.6691 0.8726
C2_4 C 0.1259(8) 0.73523(13) 0.8320(3)
H2_4 H 0.198 0.7438 0.7621
C10_4 C 0.2793(6) 0.97404(10) 0.8761(3)
H7_4 H 0.4448 0.9669 0.9242
C12_4 C 0.1579(6) 0.93584(10) 0.7943(3)
H8_4 H 0.2423 0.9028 0.7906
O1_4 O 0.9463(5) 0.82942(10) 0.7101(2)
O2_4 O 0.6370(5) 0.84212(9) 0.8312(2)
N2_4 N 0.9243(5) 0.94487(10) 0.7207(2)
C3_4 C 0.9322(7) 0.76745(13) 0.8703(3)
C4_4 C 0.8245(5) 0.75216(10) 0.9731(2)
C6_4 C 0.8284(6) 0.81748(12) 0.8004(3)
C7_4 C 0.8044(6) 0.99240(10) 0.7277(3)
H5_4 H 0.6436 0.9992 0.6757
C9_4 C 0.1511(5) 0.02313(9) 0.8856(2)
C11_4 C 0.2737(5) 0.06600(9) 0.9733(2)
C8_4 C 0.9102(6) 0.03202(10) 0.8093(3)
H6_4 H 0.819 0.0643 0.8125
H3_4 H 0.6911 0.7727 0.0008
C5_4 C 0.9185(5) 0.70583(9) 0.0339(2)
H4_4 H 0.8455 0.6956 0.1026
loop_
_geom_bond_atom_site_label_1
_geom_bond_atom_site_label_2
_geom_bond_site_symmetry_1
_geom_bond_site_symmetry_2
Cu3 O3 1_555 1_555
Cu1 O1 1_555 1_555
O1 C6 1_555 1_555
N1 C1 1_555 1_555
C1 H1 1_555 1_555
O2 C6 1_555 1_555
N2 Cu1 1_555 1_555
C2 C1 1_555 1_555
H2 C2 1_555 1_555
C3 C2 1_555 1_555
O4 C11 1_555 1_555
C4 C3 1_555 1_555
H3 C4 1_555 1_555
C5 N1 1_555 1_555
H4 C5 1_555 1_555
C6 C3 1_555 1_555
C7 N2 1_555 1_555
H5 C7 1_555 1_555
C8 C7 1_555 1_555
H6 C8 1_555 1_555
C9 C8 1_555 1_555
C10 C9 1_555 1_555
H7 C10 1_555 1_555
C11 C9 1_555 1_555
C12 N2 1_555 1_555
H8 C12 1_555 1_555
O5 Cu1 1_555 1_555
O6 Cu1 1_555 1_555
Cu2 N1 1_555 1_555
Cu3 O4 1_555 1_555
C4 C5 1_555 1_555
C10 C12 1_555 1_555
H4_2 C5_2 1_555 1_555
Cu3 O1_2 1_555 1_555
O1_2 C6_2 1_555 1_555
N1_2 C1_2 1_555 1_555
C1_2 H1_2 1_555 1_555
O2_2 C6_2 1_555 1_555
N2_2 Cu3 1_555 1_555
C2_2 C1_2 1_555 1_555
H2_2 C2_2 1_555 1_555
C3_2 C2_2 1_555 1_555
C4_2 C3_2 1_555 1_555
C6_2 C3_2 1_555 1_555
C7_2 N2_2 1_555 1_555
H5_2 C7_2 1_555 1_555
C8_2 C7_2 1_555 1_555
H6_2 C8_2 1_555 1_555
C9_2 C8_2 1_555 1_555
C10_2 C9_2 1_555 1_555
H7_2 C10_2 1_555 1_555
C11_2 C9_2 1_555 1_555
C12_2 N2_2 1_555 1_555
H8_2 C12_2 1_555 1_555
N3_2 Cu3 1_555 1_555
C10_2 C12_2 1_555 1_555
N3_2 C1_3 1_555 1_555
C1_3 H1_3 1_555 1_555
C2_3 C1_3 1_555 1_555
H2_3 C2_3 1_555 1_555
H7_3 C10_3 1_555 1_555
H8_3 C12_3 1_555 1_555
C10_3 C12_3 1_555 1_555
O3_2 C11_3 1_555 1_555
O4_2 C11_3 1_555 1_555
C11_3 C9_3 1_555 1_555
Cu2 O3_2 1_555 1_555
Cu2_2 O1_3 1_555 1_555
O1_3 C6_3 1_555 1_555
O2_3 C6_3 1_555 1_555
N2_3 Cu2_2 1_555 1_555
C4_3 C3_3 1_555 1_555
H3_3 C4_3 1_555 1_555
H4_3 C5_3 1_555 1_555
C6_3 C3_3 1_555 1_555
C7_3 N2_3 1_555 1_555
H5_3 C7_3 1_555 1_555
O5_2 Cu2_2 1_555 1_555
C4_3 C5_3 1_555 1_555
H6_3 C8_3 1_555 1_555
N3 C1_4 1_555 1_555
C1_4 H1_4 1_555 1_555
C2_4 C1_4 1_555 1_555
H2_4 C2_4 1_555 1_555
H7_4 C10_4 1_555 1_555
H8_4 C12_4 1_555 1_555
C10_4 C12_4 1_555 1_555
Cu2 O1_4 1_555 1_555
O1_4 C6_4 1_555 1_555
O2_4 C6_4 1_555 1_555
N2_4 Cu2 1_555 1_555
C4_4 C3_4 1_555 1_555
C6_4 C3_4 1_555 1_555
C7_4 N2_4 1_555 1_555
H5_4 C7_4 1_555 1_555
C11_4 C9_4 1_555 1_555
H6_4 C8_4 1_555 1_555
H4_4 C5_4 1_555 1_555

#END
