
###############################################################################
#
# This file contains modified crystal structure data generated from the
# MOF subset of the Cambridge Structural Database (CSD) v543 
# hosted by the Cambridge Crystallographic Data Centre (CCDC).
#
# This work is licensed under the Creative Commons
# Attribution-NonCommercial-ShareAlike 4.0 International License.
# To view a copy of this license, visit
# http://creativecommons.org/licenses/by-nc-sa/4.0/
# or send a letter to
# Creative Commons, PO Box 1866, Mountain View, CA 94042, USA.
#
# CIF created using the CSD Python API on 29 September 2022
# The structure has been converted into the P1 space group
# The structure has a 3D framework
# The original CSD entry BAHGUN04 is in the monoclinic crystal system
# The framework has been calculated to contain at least 10.0% void space
# The void calculation uses a probe of radius 1.32A, grid spacing 0.4
#
###############################################################################

data_BAHGUN04
_chemical_formula_moiety         '(C48 H32 Cu4 N8 O14)n'
_symmetry_cell_setting           triclinic
_symmetry_space_group_name_H-M   'P 1'
_symmetry_Int_Tables_number      1
_space_group_name_Hall           'P 1'
loop_
_symmetry_equiv_pos_site_id
_symmetry_equiv_pos_as_xyz
1 x,y,z
_cell_length_a                   5.006(1)
_cell_length_b                   25.157(5)
_cell_length_c                   11.052(2)
_cell_angle_alpha                90
_cell_angle_beta                 98.66(1)
_cell_angle_gamma                90
_cell_volume                     1375.98
loop_
_atom_site_label
_atom_site_type_symbol
_atom_site_fract_x
_atom_site_fract_y
_atom_site_fract_z
O1 O 0.5493(6) 0.43903(11) 0.7099(2)
O2 O 0.1492(5) 0.39747(9) 0.7012(2)
C1 C 0.2961(7) 0.43428(12) 0.6728(3)
C2 C 0.1731(7) 0.47718(13) 0.5870(3)
C5 C 0.1782(8) 0.56405(13) 0.4978(4)
H3 H 0.2628 0.5968 0.4945
C6 C 0.2974(8) 0.52650(13) 0.5794(3)
H4 H 0.4599 0.534 0.6291
O6 O 0.1492(5) 0.60253(9) 0.2012(2)
Cu2 Cu 0.78737(4) 0.386625(11) 0.80453(3)
Cu1 Cu 0.78737(4) 0.613375(11) 0.30453(3)
N1 N 0.9454(7) 0.55543(13) 0.4227(3)
N2 N 0.6375(8) 0.67445(15) 0.1964(3)
O4 O 0.1586(6) 0.84116(10) 0.0305(3)
C3 C 0.9318(8) 0.46828(13) 0.5084(3)
H1 H 0.8415 0.4361 0.5104
C4 C 0.8284(8) 0.50755(13) 0.4279(3)
H2 H 0.6701 0.5006 0.3746
C8 C 0.4581(9) 0.76712(16) 0.0681(4)
C9 C 0.6550(10) 0.73492(16) 0.0297(4)
C10 C 0.7389(10) 0.68987(17) 0.0957(4)
H6 H 0.8725 0.669 0.0694
C11 C 0.4433(8) 0.70519(13) 0.2336(3)
H7 H 0.3696 0.6949 0.3024
C12 C 0.3497(7) 0.75150(13) 0.1730(3)
H8 H 0.2172 0.7719 0.2014
O5 O 0.5493(6) 0.56097(11) 0.2099(2)
O7 O 0.9741(7) 0.67082(12) 0.4095(3)
C1_2 C 0.2961(7) 0.56572(12) 0.1728(3)
C2_2 C 0.1731(7) 0.52282(13) 0.0870(3)
C6_2 C 0.2974(8) 0.47350(13) 0.0794(3)
H4_2 H 0.4599 0.466 0.1291
C5_2 C 0.1782(8) 0.43595(13) 0.9978(4)
H3_2 H 0.2628 0.4032 0.9945
C3_2 C 0.9318(8) 0.53172(13) 0.0084(3)
H1_2 H 0.8415 0.5639 0.0104
N1_2 N 0.9454(7) 0.44457(13) 0.9227(3)
N2_2 N 0.6375(8) 0.32555(15) 0.6964(3)
O3 O 0.4741(7) 0.17082(12) 0.4095(3)
O4_2 O 0.1586(6) 0.15884(10) 0.5305(3)
C4_2 C 0.8284(8) 0.49245(13) 0.9279(3)
H2_2 H 0.6701 0.4994 0.8746
C7 C 0.3546(9) 0.18287(15) 0.4988(4)
C8_2 C 0.4581(9) 0.23288(16) 0.5681(4)
C9_2 C 0.6550(10) 0.26508(16) 0.5297(4)
H5 H 0.7294 0.2563 0.4601
C10_2 C 0.7389(10) 0.31013(17) 0.5957(4)
H6_2 H 0.8725 0.331 0.5694
C11_2 C 0.4433(8) 0.29481(13) 0.7336(3)
H7_2 H 0.3696 0.3051 0.8024
C12_2 C 0.3497(7) 0.24850(13) 0.6730(3)
H8_2 H 0.2172 0.2281 0.7014
O7_2 O 0.9741(7) 0.32918(12) 0.9095(3)
Cu4 Cu 0.28737(4) 0.113375(11) 0.30453(3)
N1_3 N 0.4454(7) 0.05543(13) 0.4227(3)
N2_3 N 0.1375(8) 0.17445(15) 0.1964(3)
C4_3 C 0.3284(8) 0.00755(13) 0.4279(3)
H2_3 H 0.1701 0.0006 0.3746
C5_3 C 0.6782(8) 0.06405(13) 0.4978(4)
H3_3 H 0.7628 0.0968 0.4945
C6_3 C 0.7974(8) 0.02650(13) 0.5794(3)
H4_3 H 0.9599 0.034 0.6291
C9_3 C 0.1550(10) 0.23492(16) 0.0297(4)
C10_3 C 0.2389(10) 0.18987(17) 0.0957(4)
H6_3 H 0.3725 0.169 0.0694
O5_2 O 0.0493(6) 0.06097(11) 0.2099(2)
O6_2 O 0.6492(5) 0.10253(9) 0.2012(2)
C7_2 C 0.8546(9) 0.31713(15) 0.9988(4)
C1_3 C 0.7961(7) 0.06572(12) 0.1728(3)
C2_3 C 0.6731(7) 0.02282(13) 0.0870(3)
C3_3 C 0.4318(8) 0.03172(13) 0.0084(3)
H1_3 H 0.3415 0.0639 0.0104
O4_3 O 0.6586(6) 0.65884(10) 0.5305(3)
C7_3 C 0.8546(9) 0.68287(15) 0.4988(4)
C8_3 C 0.9581(9) 0.73288(16) 0.5681(4)
C11_3 C 0.9433(8) 0.79481(13) 0.7336(3)
H7_3 H 0.8696 0.8051 0.8024
C12_3 C 0.8497(7) 0.74850(13) 0.6730(3)
H8_3 H 0.7172 0.7281 0.7014
O3_2 O 0.4741(7) 0.82918(12) 0.9095(3)
C7_4 C 0.3546(9) 0.81713(15) 0.9988(4)
H5_2 H 0.7294 0.7437 0.9601
Cu4_2 Cu 0.28737(4) 0.886625(11) 0.80453(3)
O1_2 O 0.0493(6) 0.93903(11) 0.7099(2)
O2_2 O 0.6492(5) 0.89747(9) 0.7012(2)
C1_4 C 0.7961(7) 0.93428(12) 0.6728(3)
C2_4 C 0.6731(7) 0.97718(13) 0.5870(3)
C3_4 C 0.4318(8) 0.96828(13) 0.5084(3)
H1_4 H 0.3415 0.9361 0.5104
N1_4 N 0.4454(7) 0.94457(13) 0.9227(3)
N2_4 N 0.1375(8) 0.82555(15) 0.6964(3)
C4_4 C 0.3284(8) 0.99245(13) 0.9279(3)
H2_4 H 0.1701 0.9994 0.8746
C5_4 C 0.6782(8) 0.93595(13) 0.9978(4)
H3_4 H 0.7628 0.9032 0.9945
C9_4 C 0.1550(10) 0.76508(16) 0.5297(4)
H5_3 H 0.2294 0.7563 0.4601
C10_4 C 0.2389(10) 0.81013(17) 0.5957(4)
H6_4 H 0.3725 0.831 0.5694
H5_4 H 0.2294 0.2437 0.9601
O4_4 O 0.6586(6) 0.34116(10) 0.0305(3)
C8_4 C 0.9581(9) 0.26712(16) 0.0681(4)
C11_4 C 0.9433(8) 0.20519(13) 0.2336(3)
H7_4 H 0.8696 0.1949 0.3024
C12_4 C 0.8497(7) 0.25150(13) 0.1730(3)
H8_4 H 0.7172 0.2719 0.2014
C6_4 C 0.7974(8) 0.97350(13) 0.0794(3)
H4_4 H 0.9599 0.966 0.1291
loop_
_geom_bond_atom_site_label_1
_geom_bond_atom_site_label_2
_geom_bond_site_symmetry_1
_geom_bond_site_symmetry_2
O1 C1 1_555 1_555
O2 C1 1_555 1_555
C1 C2 1_555 1_555
H3 C5 1_555 1_555
C6 C2 1_555 1_555
H4 C6 1_555 1_555
Cu2 O1 1_555 1_555
C5 C6 1_555 1_555
Cu1 N1 1_555 1_555
N1 C4 1_555 1_555
N2 Cu1 1_555 1_555
C3 H1 1_555 1_555
C4 C3 1_555 1_555
H2 C4 1_555 1_555
C8 C9 1_555 1_555
C10 N2 1_555 1_555
H6 C10 1_555 1_555
C11 N2 1_555 1_555
H7 C11 1_555 1_555
C12 C8 1_555 1_555
H8 C12 1_555 1_555
O5 Cu1 1_555 1_555
O7 Cu1 1_555 1_555
C9 C10 1_555 1_555
C11 C12 1_555 1_555
O5 C1_2 1_555 1_555
O6 C1_2 1_555 1_555
C1_2 C2_2 1_555 1_555
C6_2 C2_2 1_555 1_555
H4_2 C6_2 1_555 1_555
H3_2 C5_2 1_555 1_555
C3_2 H1_2 1_555 1_555
Cu2 N1_2 1_555 1_555
N1_2 C4_2 1_555 1_555
N2_2 Cu2 1_555 1_555
O3 C7 1_555 1_555
O4_2 C7 1_555 1_555
H2_2 C4_2 1_555 1_555
C7 C8_2 1_555 1_555
C8_2 C9_2 1_555 1_555
C9_2 H5 1_555 1_555
C10_2 N2_2 1_555 1_555
H6_2 C10_2 1_555 1_555
C11_2 N2_2 1_555 1_555
H7_2 C11_2 1_555 1_555
C12_2 C8_2 1_555 1_555
H8_2 C12_2 1_555 1_555
O7_2 Cu2 1_555 1_555
Cu4 O3 1_555 1_555
C9_2 C10_2 1_555 1_555
C11_2 C12_2 1_555 1_555
Cu4 N1_3 1_555 1_555
N1_3 C4_3 1_555 1_555
N2_3 Cu4 1_555 1_555
H2_3 C4_3 1_555 1_555
C5_3 N1_3 1_555 1_555
H3_3 C5_3 1_555 1_555
H4_3 C6_3 1_555 1_555
C10_3 N2_3 1_555 1_555
H6_3 C10_3 1_555 1_555
O5_2 Cu4 1_555 1_555
O6_2 Cu4 1_555 1_555
C5_3 C6_3 1_555 1_555
C9_3 C10_3 1_555 1_555
O7_2 C7_2 1_555 1_555
O6_2 C1_3 1_555 1_555
C1_3 C2_3 1_555 1_555
C2_3 C3_3 1_555 1_555
C3_3 H1_3 1_555 1_555
O7 C7_3 1_555 1_555
O4_3 C7_3 1_555 1_555
C7_3 C8_3 1_555 1_555
H7_3 C11_3 1_555 1_555
C12_3 C8_3 1_555 1_555
H8_3 C12_3 1_555 1_555
C11_3 C12_3 1_555 1_555
O3_2 C7_4 1_555 1_555
Cu4_2 O3_2 1_555 1_555
Cu4_2 O1_2 1_555 1_555
O2_2 C1_4 1_555 1_555
C1_4 C2_4 1_555 1_555
C2_4 C3_4 1_555 1_555
C3_4 H1_4 1_555 1_555
Cu4_2 O2_2 1_555 1_555
Cu4_2 N1_4 1_555 1_555
N1_4 C4_4 1_555 1_555
N2_4 Cu4_2 1_555 1_555
H2_4 C4_4 1_555 1_555
C5_4 N1_4 1_555 1_555
H3_4 C5_4 1_555 1_555
C9_4 H5_3 1_555 1_555
C10_4 N2_4 1_555 1_555
H6_4 C10_4 1_555 1_555
C9_4 C10_4 1_555 1_555
H7_4 C11_4 1_555 1_555
C12_4 C8_4 1_555 1_555
H8_4 C12_4 1_555 1_555
C11_4 C12_4 1_555 1_555
H4_4 C6_4 1_555 1_555

#END
