
###############################################################################
#
# This file contains modified crystal structure data generated from the
# MOF subset of the Cambridge Structural Database (CSD) v543 
# hosted by the Cambridge Crystallographic Data Centre (CCDC).
#
# This work is licensed under the Creative Commons
# Attribution-NonCommercial-ShareAlike 4.0 International License.
# To view a copy of this license, visit
# http://creativecommons.org/licenses/by-nc-sa/4.0/
# or send a letter to
# Creative Commons, PO Box 1866, Mountain View, CA 94042, USA.
#
# CIF created using the CSD Python API on 29 September 2022
# The structure has been converted into the P1 space group
# The structure has a 3D framework
# The original CSD entry BAKJII is in the monoclinic crystal system
# The framework has been calculated to contain at least 10.0% void space
# The void calculation uses a probe of radius 1.32A, grid spacing 0.4
#
###############################################################################

data_BAKJII
_chemical_formula_moiety         '(C52 H28 Co4 N4 O10)n'
_symmetry_cell_setting           triclinic
_symmetry_space_group_name_H-M   'P 1'
_symmetry_Int_Tables_number      1
_space_group_name_Hall           'P 1'
loop_
_symmetry_equiv_pos_site_id
_symmetry_equiv_pos_as_xyz
1 x,y,z
_cell_length_a                   11.850(2)
_cell_length_b                   13.853(2)
_cell_length_c                   13.944(2)
_cell_angle_alpha                90
_cell_angle_beta                 114.793(3)
_cell_angle_gamma                90
_cell_volume                     2078.04
loop_
_atom_site_label
_atom_site_type_symbol
_atom_site_fract_x
_atom_site_fract_y
_atom_site_fract_z
O1 O 0.0393(3) 0.6333(3) 0.1386(3)
O3 O 0.0159(3) 0.8546(2) 0.4247(3)
H5 H 0.0008 0.7478 0.2628
Co2 Co 0.10650(5) 0.55813(4) 0.04996(5)
Co4 Co 0.10650(5) 0.94187(4) 0.54996(5)
Co5 Co 0.89350(5) 0.05813(4) 0.45004(5)
N1 N 0.2862(3) 0.6062(3) 0.0970(3)
O2 O 0.8736(3) 0.5385(2) 0.0573(3)
O4 O 0.8417(3) 0.9437(3) 0.3504(3)
C1 C 0.3758(5) 0.5404(4) 0.1120(4)
H1 H 0.3542 0.4739 0.1037
C2 C 0.4983(5) 0.5665(4) 0.1391(4)
H2 H 0.5590 0.5182 0.1486
C3 C 0.5325(4) 0.6637(4) 0.1524(4)
C4 C 0.4392(4) 0.7307(4) 0.1392(4)
H3 H 0.4584 0.7975 0.1494
C5 C 0.3192(4) 0.6995(4) 0.1112(4)
H4 H 0.2568 0.7464 0.1016
C6 C 0.9146(4) 0.7351(4) 0.2401(4)
C7 C 0.8449(4) 0.7901(3) 0.2796(4)
C8 C 0.7186(4) 0.7693(4) 0.2486(4)
H6 H 0.6704 0.8076 0.2738
C9 C 0.6639(4) 0.6920(4) 0.1803(4)
C10 C 0.7338(4) 0.6402(4) 0.1396(4)
H7 H 0.6961 0.5889 0.0916
C11 C 0.8590(4) 0.6622(3) 0.1680(4)
C12 C 0.9053(4) 0.8694(3) 0.3574(4)
C13 C 0.9292(4) 0.6065(4) 0.1181(4)
O8 O 0.1583(3) 0.4437(3) 0.1496(3)
Co3 Co 0.89350(5) 0.44187(4) 0.95004(5)
O6 O 0.1264(3) 0.4615(2) 0.9427(3)
O7 O 0.0159(3) 0.6454(2) 0.9247(3)
N1_2 N 0.7138(3) 0.1062(3) 0.4030(3)
O2_2 O 0.1264(3) 0.0385(2) 0.4427(3)
C1_2 C 0.6242(5) 0.0404(4) 0.3880(4)
C2_2 C 0.5017(5) 0.0665(4) 0.3609(4)
H2_2 H 0.4410 0.0182 0.3514
C3_2 C 0.4675(4) 0.1637(4) 0.3476(4)
C4_2 C 0.5608(4) 0.2307(4) 0.3608(4)
H3_2 H 0.5416 0.2975 0.3506
C5_2 C 0.6808(4) 0.1995(4) 0.3888(4)
H4_2 H 0.7432 0.2464 0.3984
C6_2 C 0.0854(4) 0.2351(4) 0.2599(4)
C7_2 C 0.1551(4) 0.2901(3) 0.2204(4)
C8_2 C 0.2814(4) 0.2693(4) 0.2514(4)
H6_2 H 0.3296 0.3076 0.2262
C9_2 C 0.3361(4) 0.1920(4) 0.3197(4)
C10_2 C 0.2662(4) 0.1402(4) 0.3604(4)
H7_2 H 0.3039 0.0889 0.4084
C11_2 C 0.1410(4) 0.1622(3) 0.3320(4)
C12_2 C 0.0947(4) 0.3694(3) 0.1426(4)
C13_2 C 0.0708(4) 0.1065(4) 0.3819(4)
O5 O 0.9607(3) 0.1333(3) 0.3614(3)
O7_2 O 0.9841(3) 0.1454(2) 0.5753(3)
H1_2 H 0.6458 0.9739 0.3963
O6_2 O 0.8736(3) 0.9615(2) 0.5573(3)
O3_2 O 0.9841(3) 0.3546(2) 0.0753(3)
H5_2 H 0.9992 0.2478 0.2372
N1_3 N 0.7138(3) 0.3938(3) 0.9030(3)
O4_2 O 0.1583(3) 0.0563(3) 0.6496(3)
C1_3 C 0.6242(5) 0.4596(4) 0.8880(4)
H1_3 H 0.6458 0.5261 0.8963
C2_3 C 0.5017(5) 0.4335(4) 0.8609(4)
H2_3 H 0.4410 0.4818 0.8514
C3_3 C 0.4675(4) 0.3363(4) 0.8476(4)
C4_3 C 0.5608(4) 0.2693(4) 0.8608(4)
H3_3 H 0.5416 0.2025 0.8506
C5_3 C 0.6808(4) 0.3005(4) 0.8888(4)
H4_3 H 0.7432 0.2536 0.8984
C6_3 C 0.0854(4) 0.2649(4) 0.7599(4)
C7_3 C 0.1551(4) 0.2099(3) 0.7204(4)
C8_3 C 0.2814(4) 0.2307(4) 0.7514(4)
H6_3 H 0.3296 0.1924 0.7262
C9_3 C 0.3361(4) 0.3080(4) 0.8197(4)
C10_3 C 0.2662(4) 0.3598(4) 0.8604(4)
H7_3 H 0.3039 0.4111 0.9084
C11_3 C 0.1410(4) 0.3378(3) 0.8320(4)
C12_3 C 0.0947(4) 0.1306(3) 0.6426(4)
C13_3 C 0.0708(4) 0.3935(4) 0.8819(4)
O5_2 O 0.9607(3) 0.3667(3) 0.8614(3)
O8_2 O 0.8417(3) 0.5563(3) 0.8504(3)
H5_3 H 0.9992 0.2522 0.7372
O1_2 O 0.0393(3) 0.8667(3) 0.6386(3)
H5_4 H 0.0008 0.7522 0.7628
H1_4 H 0.3542 0.0261 0.6037
N1_4 N 0.2862(3) 0.8938(3) 0.5970(3)
C1_4 C 0.3758(5) 0.9596(4) 0.6120(4)
C2_4 C 0.4983(5) 0.9335(4) 0.6391(4)
H2_4 H 0.5590 0.9818 0.6486
C3_4 C 0.5325(4) 0.8363(4) 0.6524(4)
C4_4 C 0.4392(4) 0.7693(4) 0.6392(4)
H3_4 H 0.4584 0.7025 0.6494
C5_4 C 0.3192(4) 0.8005(4) 0.6112(4)
H4_4 H 0.2568 0.7536 0.6016
C6_4 C 0.9146(4) 0.7649(4) 0.7401(4)
C7_4 C 0.8449(4) 0.7099(3) 0.7796(4)
C8_4 C 0.7186(4) 0.7307(4) 0.7486(4)
H6_4 H 0.6704 0.6924 0.7738
C9_4 C 0.6639(4) 0.8080(4) 0.6803(4)
C10_4 C 0.7338(4) 0.8598(4) 0.6396(4)
H7_4 H 0.6961 0.9111 0.5916
C11_4 C 0.8590(4) 0.8378(3) 0.6680(4)
C12_4 C 0.9053(4) 0.6306(3) 0.8574(4)
C13_4 C 0.9292(4) 0.8935(4) 0.6181(4)
loop_
_geom_bond_atom_site_label_1
_geom_bond_atom_site_label_2
_geom_bond_site_symmetry_1
_geom_bond_site_symmetry_2
Co2 O1 1_555 1_555
Co4 O3 1_555 1_555
Co2 N1 1_555 1_555
N1 C1 1_555 1_555
O2 C13 1_555 1_555
O4 C12 1_555 1_555
C1 H1 1_555 1_555
C2 C1 1_555 1_555
H2 C2 1_555 1_555
C3 C2 1_555 1_555
C4 C3 1_555 1_555
H3 C4 1_555 1_555
C5 N1 1_555 1_555
H4 C5 1_555 1_555
C7 C6 1_555 1_555
C8 C7 1_555 1_555
H6 C8 1_555 1_555
C9 C3 1_555 1_555
C10 C9 1_555 1_555
H7 C10 1_555 1_555
C11 C6 1_555 1_555
C12 C7 1_555 1_555
C13 C11 1_555 1_555
O8 Co2 1_555 1_555
C4 C5 1_555 1_555
C8 C9 1_555 1_555
C10 C11 1_555 1_555
Co5 N1_2 1_555 1_555
N1_2 C1_2 1_555 1_555
O2_2 C13_2 1_555 1_555
O8 C12_2 1_555 1_555
C2_2 C1_2 1_555 1_555
H2_2 C2_2 1_555 1_555
C3_2 C2_2 1_555 1_555
C4_2 C3_2 1_555 1_555
H3_2 C4_2 1_555 1_555
C5_2 N1_2 1_555 1_555
H4_2 C5_2 1_555 1_555
C7_2 C6_2 1_555 1_555
C8_2 C7_2 1_555 1_555
H6_2 C8_2 1_555 1_555
C9_2 C3_2 1_555 1_555
C10_2 C9_2 1_555 1_555
H7_2 C10_2 1_555 1_555
C11_2 C6_2 1_555 1_555
C12_2 C7_2 1_555 1_555
C13_2 C11_2 1_555 1_555
O5 Co5 1_555 1_555
O7_2 Co5 1_555 1_555
C4_2 C5_2 1_555 1_555
C8_2 C9_2 1_555 1_555
C10_2 C11_2 1_555 1_555
Co3 N1_3 1_555 1_555
N1_3 C1_3 1_555 1_555
O6 C13_3 1_555 1_555
O4_2 C12_3 1_555 1_555
C1_3 H1_3 1_555 1_555
C2_3 C1_3 1_555 1_555
H2_3 C2_3 1_555 1_555
C3_3 C2_3 1_555 1_555
C4_3 C3_3 1_555 1_555
H3_3 C4_3 1_555 1_555
C5_3 N1_3 1_555 1_555
H4_3 C5_3 1_555 1_555
C7_3 C6_3 1_555 1_555
C8_3 C7_3 1_555 1_555
H6_3 C8_3 1_555 1_555
C9_3 C3_3 1_555 1_555
C10_3 C9_3 1_555 1_555
H7_3 C10_3 1_555 1_555
C11_3 C6_3 1_555 1_555
C12_3 C7_3 1_555 1_555
C13_3 C11_3 1_555 1_555
O5_2 Co3 1_555 1_555
O8_2 Co3 1_555 1_555
C4_3 C5_3 1_555 1_555
C8_3 C9_3 1_555 1_555
C10_3 C11_3 1_555 1_555
Co4 O1_2 1_555 1_555
Co4 N1_4 1_555 1_555
N1_4 C1_4 1_555 1_555
O6_2 C13_4 1_555 1_555
O8_2 C12_4 1_555 1_555
C2_4 C1_4 1_555 1_555
H2_4 C2_4 1_555 1_555
C3_4 C2_4 1_555 1_555
C4_4 C3_4 1_555 1_555
H3_4 C4_4 1_555 1_555
C5_4 N1_4 1_555 1_555
H4_4 C5_4 1_555 1_555
C7_4 C6_4 1_555 1_555
C8_4 C7_4 1_555 1_555
H6_4 C8_4 1_555 1_555
C9_4 C3_4 1_555 1_555
C10_4 C9_4 1_555 1_555
H7_4 C10_4 1_555 1_555
C11_4 C6_4 1_555 1_555
C12_4 C7_4 1_555 1_555
C13_4 C11_4 1_555 1_555
C4_4 C5_4 1_555 1_555
C8_4 C9_4 1_555 1_555
C10_4 C11_4 1_555 1_555

#END
