
###############################################################################
#
# This file contains modified crystal structure data generated from the
# MOF subset of the Cambridge Structural Database (CSD) v543 
# hosted by the Cambridge Crystallographic Data Centre (CCDC).
#
# This work is licensed under the Creative Commons
# Attribution-NonCommercial-ShareAlike 4.0 International License.
# To view a copy of this license, visit
# http://creativecommons.org/licenses/by-nc-sa/4.0/
# or send a letter to
# Creative Commons, PO Box 1866, Mountain View, CA 94042, USA.
#
# CIF created using the CSD Python API on 29 September 2022
# The structure has been converted into the P1 space group
# The structure has a 3D framework
# The original CSD entry BAKJEE is in the monoclinic crystal system
# The framework has been calculated to contain at least 10.0% void space
# The void calculation uses a probe of radius 1.32A, grid spacing 0.4
# H atom positions have been added when not included in the experimental data
#
###############################################################################

data_BAKJEE
_chemical_formula_moiety         '(C116 H84 Co8 N12 O32)n'
_symmetry_cell_setting           triclinic
_symmetry_space_group_name_H-M   'P 1'
_symmetry_Int_Tables_number      1
_space_group_name_Hall           'P 1'
loop_
_symmetry_equiv_pos_site_id
_symmetry_equiv_pos_as_xyz
1 x,y,z
_cell_length_a                   9.287(1)
_cell_length_b                   28.242(3)
_cell_length_c                   16.667(2)
_cell_angle_alpha                90
_cell_angle_beta                 97.030(2)
_cell_angle_gamma                90
_cell_volume                     4338.61
loop_
_atom_site_label
_atom_site_type_symbol
_atom_site_fract_x
_atom_site_fract_y
_atom_site_fract_z
O8 O 0.0529(3) 0.41018(9) 0.31224(15)
Co4 Co 0.19278(5) 0.304782(17) 0.28021(3)
Co5 Co 0.24455(5) 0.424570(17) 0.26939(3)
O1 O 0.1946(3) 0.31206(9) 0.16126(15)
O2 O 0.1850(3) 0.39123(9) 0.15894(15)
O5 O 0.3245(3) 0.35999(8) 0.32608(14)
O6 O 0.4474(3) 0.29648(9) 0.30084(17)
O7 O 0.9942(3) 0.33351(9) 0.28716(15)
N2 N 0.7019(3) 0.53237(11) 0.62427(18)
H6 H 0.1916 0.2814 0.0191
C10 C 0.1357(5) 0.35037(14) 0.0365(2)
H7 H 0.0645 0.4185 0.0247
C13 C 0.1749(5) 0.35144(14) 0.1259(2)
C14 C 0.6301(4) 0.49117(14) 0.6287(2)
H8 H 0.5821 0.4855 0.6749
C15 C 0.6228(4) 0.45690(14) 0.5693(2)
H9 H 0.5698 0.4285 0.5748
C16 C 0.6934(4) 0.46410(13) 0.5016(2)
C17 C 0.7629(4) 0.50755(14) 0.4955(2)
H10 H 0.8095 0.5146 0.4492
C18 C 0.7634(4) 0.54004(14) 0.5570(2)
H11 H 0.8100 0.5696 0.5513
C19 C 0.6976(4) 0.42701(14) 0.4390(2)
C20 C 0.5760(4) 0.39906(14) 0.4144(2)
H12 H 0.4885 0.4043 0.4373
C21 C 0.5817(4) 0.36378(13) 0.3570(2)
C22 C 0.7099(4) 0.35449(13) 0.3255(2)
H13 H 0.7157 0.3288 0.2892
C23 C 0.8300(4) 0.38310(14) 0.3474(2)
C24 C 0.8228(4) 0.41952(13) 0.4026(2)
H14 H 0.9043 0.4396 0.4157
C25 C 0.4450(4) 0.33765(14) 0.3263(2)
C26 C 0.9715(4) 0.37499(14) 0.3127(2)
O9 O 0.4419(3) 0.44233(11) 0.23055(17)
N3 N 0.6404(7) 0.4362(2) 0.1657(4)
C27 C 0.7081(10) 0.4774(3) 0.2072(5)
C28 C 0.7220(12) 0.4073(4) 0.1108(7)
C29 C 0.5108(6) 0.4223(2) 0.1831(3)
H15 H 0.4693 0.3949 0.1567
Co7 Co 0.75545(5) 0.575430(17) 0.73061(3)
O10 O 0.1886(3) 0.27209(9) 0.39895(15)
O11 O 0.1355(3) 0.23331(9) 0.28561(15)
N4 N 0.1522(4) 0.48717(11) 0.21107(18)
N5 N 0.2981(3) 0.46763(11) 0.37573(18)
H16 H 0.736923 0.502896 0.162812
H17 H 0.63245 0.493644 0.244008
H18 H 0.805548 0.466467 0.24581
H19 H 0.819989 0.393128 0.144976
H20 H 0.653922 0.378222 0.0855655
H21 H 0.751364 0.429557 0.0619783
O3 O 0.1886(3) 0.22791(9) 0.89895(15)
O4 O 0.1355(3) 0.26669(9) 0.78561(15)
H2 H 0.0610 0.4242 0.7633
C6 C 0.0407(5) 0.39023(14) 0.9115(2)
C7 C 0.0676(5) 0.34947(14) 0.8688(2)
H5 H 0.0482 0.3494 0.8115
C8 C 0.1226(5) 0.30870(14) 0.9088(2)
C9 C 0.1553(5) 0.30923(13) 0.9918(2)
C11 C 0.0783(5) 0.39040(14) 0.9951(2)
C12 C 0.1511(5) 0.26528(14) 0.8620(2)
Co3 Co 0.19278(5) 0.195218(17) 0.78021(3)
N1 N 0.8478(4) 0.51283(11) 0.78893(18)
C1 C 0.9337(5) 0.48328(14) 0.7539(2)
H1 H 0.9507 0.4899 0.7000
C2 C 0.9997(5) 0.44356(14) 0.7910(2)
C3 C 0.9747(5) 0.43263(13) 0.8690(2)
C4 C 0.8858(6) 0.46314(15) 0.9055(2)
H3 H 0.8660 0.4572 0.9592
C5 C 0.8256(5) 0.50231(14) 0.8639(2)
H4 H 0.7653 0.5227 0.8906
N1_2 N 0.1522(4) 0.01283(11) 0.71107(18)
C5_2 C 0.1744(5) 0.00231(14) 0.6361(2)
H4_2 H 0.2347 0.0227 0.6094
Co6 Co 0.24455(5) 0.075430(17) 0.76939(3)
C1_2 C 0.0663(5) 0.98328(14) 0.7461(2)
H1_2 H 0.0493 0.9899 0.8000
C2_2 C 0.0003(5) 0.94356(14) 0.7090(2)
C3_2 C 0.0253(5) 0.93263(13) 0.6310(2)
C4_2 C 0.1142(6) 0.96314(15) 0.5945(2)
H3_2 H 0.1340 0.9572 0.5408
O12 O 0.0058(3) 0.83351(9) 0.21284(15)
N2_2 N 0.2981(3) 0.03237(11) 0.87573(18)
C18_2 C 0.2366(4) 0.04004(14) 0.9430(2)
H11_2 H 0.1900 0.0696 0.9487
Co1 Co 0.80722(5) 0.804782(17) 0.21979(3)
Co2 Co 0.75545(5) 0.924570(17) 0.23061(3)
O1_2 O 0.8054(3) 0.81206(9) 0.33874(15)
O2_2 O 0.8150(3) 0.89123(9) 0.34106(15)
O3_2 O 0.8114(3) 0.72791(9) 0.60105(15)
O4_2 O 0.8645(3) 0.76669(9) 0.71439(15)
O5_2 O 0.6755(3) 0.85999(8) 0.17392(14)
O6_2 O 0.5526(3) 0.79648(9) 0.19916(17)
H2_2 H 0.9390 0.9242 0.7367
C6_2 C 0.9593(5) 0.89023(14) 0.5885(2)
C7_2 C 0.9324(5) 0.84947(14) 0.6312(2)
H5_2 H 0.9518 0.8494 0.6885
C8_2 C 0.8774(5) 0.80870(14) 0.5912(2)
C9_2 C 0.8447(5) 0.80923(13) 0.5082(2)
H6_2 H 0.8084 0.7814 0.4809
C10_2 C 0.8643(5) 0.85037(14) 0.4635(2)
C11_2 C 0.9217(5) 0.89040(14) 0.5049(2)
H7_2 H 0.9355 0.9185 0.4753
C12_2 C 0.8489(5) 0.76528(14) 0.6380(2)
C13_2 C 0.8251(5) 0.85144(14) 0.3741(2)
C19_2 C 0.3024(4) 0.92701(14) 0.0610(2)
C20_2 C 0.4240(4) 0.89906(14) 0.0856(2)
H12_2 H 0.5115 0.9043 0.0627
C21_2 C 0.4183(4) 0.86378(13) 0.1430(2)
C22_2 C 0.2901(4) 0.85449(13) 0.1745(2)
H13_2 H 0.2843 0.8288 0.2108
C23_2 C 0.1700(4) 0.88310(14) 0.1526(2)
C24_2 C 0.1772(4) 0.91952(13) 0.0974(2)
H14_2 H 0.0957 0.9396 0.0843
C25_2 C 0.5550(4) 0.83765(14) 0.1737(2)
C26_2 C 0.0285(4) 0.87499(14) 0.1873(2)
O9_2 O 0.5581(3) 0.94233(11) 0.26945(17)
N3_2 N 0.3596(7) 0.9362(2) 0.3343(4)
C27_2 C 0.2919(10) 0.9774(3) 0.2928(5)
C28_2 C 0.2780(12) 0.9073(4) 0.3892(7)
C29_2 C 0.4892(6) 0.9223(2) 0.3169(3)
H15_2 H 0.5307 0.8949 0.3433
Co3_2 Co 0.80722(5) 0.695218(17) 0.71979(3)
O10_2 O 0.8114(3) 0.77209(9) 0.10105(15)
O11_2 O 0.8645(3) 0.73331(9) 0.21439(15)
O13 O 0.9471(3) 0.91018(9) 0.18776(15)
N4_2 N 0.8478(4) 0.98717(11) 0.28893(18)
N5_2 N 0.7019(3) 0.96763(11) 0.12427(18)
H17_2 H 0.36755 0.993644 0.255992
H18_2 H 0.194452 0.966467 0.25419
H19_2 H 0.180011 0.893128 0.355024
H20_2 H 0.346078 0.878222 0.414434
H21_2 H 0.248636 0.929557 0.438022
C1_3 C 0.0663(5) 0.51672(14) 0.2461(2)
H1_3 H 0.0493 0.5101 0.3000
C2_3 C 0.0003(5) 0.55644(14) 0.2090(2)
C3_3 C 0.0253(5) 0.56737(13) 0.1310(2)
C4_3 C 0.1142(6) 0.53686(15) 0.0945(2)
H3_3 H 0.1340 0.5428 0.0408
C5_3 C 0.1744(5) 0.49769(14) 0.1361(2)
H4_3 H 0.2347 0.4773 0.1094
O12_2 O 0.0058(3) 0.66649(9) 0.71284(15)
H2_3 H 0.9390 0.5758 0.2367
C6_3 C 0.9593(5) 0.60977(14) 0.0885(2)
C7_3 C 0.9324(5) 0.65053(14) 0.1312(2)
H5_3 H 0.9518 0.6506 0.1885
C8_3 C 0.8774(5) 0.69130(14) 0.0912(2)
C9_3 C 0.8447(5) 0.69077(13) 0.0082(2)
C11_3 C 0.9217(5) 0.60960(14) 0.0049(2)
C12_3 C 0.8489(5) 0.73472(14) 0.1380(2)
O1_3 O 0.8054(3) 0.68794(9) 0.83874(15)
O2_3 O 0.8150(3) 0.60877(9) 0.84106(15)
O5_3 O 0.6755(3) 0.64001(8) 0.67392(14)
O6_3 O 0.5526(3) 0.70352(9) 0.69916(17)
H6_3 H 0.8084 0.7186 0.9809
C10_3 C 0.8643(5) 0.64963(14) 0.9635(2)
H7_3 H 0.9355 0.5815 0.9753
C13_3 C 0.8251(5) 0.64856(14) 0.8741(2)
C14_2 C 0.3699(4) 0.50883(14) 0.3713(2)
H8_2 H 0.4179 0.5145 0.3251
C15_2 C 0.3772(4) 0.54310(14) 0.4307(2)
H9_2 H 0.4302 0.5715 0.4252
C16_2 C 0.3066(4) 0.53590(13) 0.4984(2)
C17_2 C 0.2371(4) 0.49245(14) 0.5045(2)
H10_2 H 0.1905 0.4854 0.5508
C18_3 C 0.2366(4) 0.45996(14) 0.4430(2)
H11_3 H 0.1900 0.4304 0.4487
C19_3 C 0.3024(4) 0.57299(14) 0.5610(2)
C20_3 C 0.4240(4) 0.60094(14) 0.5856(2)
H12_3 H 0.5115 0.5957 0.5627
C21_3 C 0.4183(4) 0.63622(13) 0.6430(2)
C22_3 C 0.2901(4) 0.64551(13) 0.6745(2)
H13_3 H 0.2843 0.6712 0.7108
C23_3 C 0.1700(4) 0.61690(14) 0.6526(2)
C24_3 C 0.1772(4) 0.58048(13) 0.5974(2)
H14_3 H 0.0957 0.5604 0.5843
C25_3 C 0.5550(4) 0.66235(14) 0.6737(2)
C26_3 C 0.0285(4) 0.62501(14) 0.6873(2)
O9_3 O 0.5581(3) 0.55767(11) 0.76945(17)
N3_3 N 0.3596(7) 0.5638(2) 0.8343(4)
C27_3 C 0.2919(10) 0.5226(3) 0.7928(5)
C28_3 C 0.2780(12) 0.5927(4) 0.8892(7)
C29_3 C 0.4892(6) 0.5777(2) 0.8169(3)
H15_3 H 0.5307 0.6051 0.8433
O13_2 O 0.9471(3) 0.58982(9) 0.68776(15)
H16_2 H 0.263077 0.497104 0.837188
H17_3 H 0.36755 0.506356 0.755992
H18_3 H 0.194452 0.533533 0.75419
H19_3 H 0.180011 0.606872 0.855024
H20_3 H 0.346078 0.621778 0.914434
H21_3 H 0.248636 0.570443 0.938022
O8_2 O 0.0529(3) 0.08982(9) 0.81224(15)
O1_4 O 0.1946(3) 0.18794(9) 0.66126(15)
O2_4 O 0.1850(3) 0.10877(9) 0.65894(15)
O5_4 O 0.3245(3) 0.14001(8) 0.82608(14)
O6_4 O 0.4474(3) 0.20352(9) 0.80084(17)
O7_2 O 0.9942(3) 0.16649(9) 0.78716(15)
H2_4 H 0.0610 0.0758 0.2633
C6_4 C 0.0407(5) 0.10977(14) 0.4115(2)
C7_4 C 0.0676(5) 0.15053(14) 0.3688(2)
H5_4 H 0.0482 0.1506 0.3115
C8_4 C 0.1226(5) 0.19130(14) 0.4088(2)
C9_4 C 0.1553(5) 0.19077(13) 0.4918(2)
H6_4 H 0.1916 0.2186 0.5191
C10_4 C 0.1357(5) 0.14963(14) 0.5365(2)
C11_4 C 0.0783(5) 0.10960(14) 0.4951(2)
H7_4 H 0.0645 0.0815 0.5247
C12_4 C 0.1511(5) 0.23472(14) 0.3620(2)
C13_4 C 0.1749(5) 0.14856(14) 0.6259(2)
C19_4 C 0.6976(4) 0.07299(14) 0.9390(2)
C20_4 C 0.5760(4) 0.10094(14) 0.9144(2)
H12_4 H 0.4885 0.0957 0.9373
C21_4 C 0.5817(4) 0.13622(13) 0.8570(2)
C22_4 C 0.7099(4) 0.14551(13) 0.8255(2)
H13_4 H 0.7157 0.1712 0.7892
C23_4 C 0.8300(4) 0.11690(14) 0.8474(2)
C24_4 C 0.8228(4) 0.08048(13) 0.9026(2)
H14_4 H 0.9043 0.0604 0.9157
C25_4 C 0.4450(4) 0.16235(14) 0.8263(2)
C26_4 C 0.9715(4) 0.12501(14) 0.8127(2)
O9_4 O 0.4419(3) 0.05767(11) 0.73055(17)
N3_4 N 0.6404(7) 0.0638(2) 0.6657(4)
C27_4 C 0.7081(10) 0.0226(3) 0.7072(5)
C28_4 C 0.7220(12) 0.0927(4) 0.6108(7)
C29_4 C 0.5108(6) 0.0777(2) 0.6831(3)
H15_4 H 0.4693 0.1051 0.6567
H17_4 H 0.63245 0.00635606 0.744008
H18_4 H 0.805548 0.0335335 0.74581
H19_4 H 0.819989 0.106872 0.644976
H20_4 H 0.653922 0.121778 0.585566
H21_4 H 0.751364 0.0704432 0.561978
C18_4 C 0.7634(4) 0.95996(14) 0.0570(2)
H11_4 H 0.8100 0.9304 0.0513
C1_4 C 0.9337(5) 0.01672(14) 0.2539(2)
H1_4 H 0.9507 0.0101 0.2000
C2_4 C 0.9997(5) 0.05644(14) 0.2910(2)
C3_4 C 0.9747(5) 0.06737(13) 0.3690(2)
C4_4 C 0.8858(6) 0.03686(15) 0.4055(2)
H3_4 H 0.8660 0.0428 0.4592
C5_4 C 0.8256(5) 0.99769(14) 0.3639(2)
H4_4 H 0.7653 0.9773 0.3906
C17_3 C 0.2371(4) 0.00755(14) 0.0045(2)
H10_3 H 0.1905 0.0146 0.0508
H16_3 H 0.263077 0.0028957 0.337188
C14_3 C 0.3699(4) 0.99117(14) 0.8713(2)
H8_3 H 0.4179 0.9855 0.8251
C15_3 C 0.3772(4) 0.95690(14) 0.9307(2)
H9_3 H 0.4302 0.9285 0.9252
C16_3 C 0.3066(4) 0.96410(13) 0.9984(2)
C14_4 C 0.6301(4) 0.00883(14) 0.1287(2)
H8_4 H 0.5821 0.0145 0.1749
C15_4 C 0.6228(4) 0.04310(14) 0.0693(2)
H9_4 H 0.5698 0.0715 0.0748
C16_4 C 0.6934(4) 0.03590(13) 0.0016(2)
C17_4 C 0.7629(4) 0.99245(14) 0.9955(2)
H10_4 H 0.8095 0.9854 0.9492
H16_4 H 0.736923 0.997104 0.662812
loop_
_geom_bond_atom_site_label_1
_geom_bond_atom_site_label_2
_geom_bond_site_symmetry_1
_geom_bond_site_symmetry_2
Co5 O8 1_555 1_555
Co4 O1 1_555 1_555
Co5 O2 1_555 1_555
O1 C13 1_555 1_555
O2 C13 1_555 1_555
O5 Co4 1_555 1_555
O6 Co4 1_555 1_555
O7 C26 1_555 1_555
N2 C14 1_555 1_555
C13 C10 1_555 1_555
C14 H8 1_555 1_555
C15 C14 1_555 1_555
H9 C15 1_555 1_555
C16 C15 1_555 1_555
C17 C16 1_555 1_555
H10 C17 1_555 1_555
C18 N2 1_555 1_555
H11 C18 1_555 1_555
C19 C16 1_555 1_555
C20 C19 1_555 1_555
H12 C20 1_555 1_555
C21 C20 1_555 1_555
C22 C21 1_555 1_555
H13 C22 1_555 1_555
C23 C22 1_555 1_555
C24 C19 1_555 1_555
H14 C24 1_555 1_555
C25 O5 1_555 1_555
C26 C23 1_555 1_555
O9 Co5 1_555 1_555
N3 C27 1_555 1_555
C28 N3 1_555 1_555
C29 O9 1_555 1_555
H15 C29 1_555 1_555
Co7 N2 1_555 1_555
O10 Co4 1_555 1_555
O11 Co4 1_555 1_555
N4 Co5 1_555 1_555
N5 Co5 1_555 1_555
Co5 O5 1_555 1_555
O6 C25 1_555 1_555
C17 C18 1_555 1_555
C21 C25 1_555 1_555
C23 C24 1_555 1_555
N3 C29 1_555 1_555
C27 H16 1_555 1_555
C27 H17 1_555 1_555
C27 H18 1_555 1_555
C28 H19 1_555 1_555
C28 H20 1_555 1_555
C28 H21 1_555 1_555
O3 C12 1_555 1_555
O4 C12 1_555 1_555
C7 C6 1_555 1_555
H5 C7 1_555 1_555
C8 C7 1_555 1_555
C9 C8 1_555 1_555
C11 C6 1_555 1_555
C12 C8 1_555 1_555
Co3 O3 1_555 1_555
O4 Co3 1_555 1_555
N1 C1 1_555 1_555
C1 H1 1_555 1_555
C2 C1 1_555 1_555
C3 C2 1_555 1_555
C4 C3 1_555 1_555
H3 C4 1_555 1_555
C5 N1 1_555 1_555
H4 C5 1_555 1_555
Co7 N1 1_555 1_555
C4 C5 1_555 1_555
C5_2 N1_2 1_555 1_555
H4_2 C5_2 1_555 1_555
Co6 N1_2 1_555 1_555
C1_2 H1_2 1_555 1_555
C2_2 C1_2 1_555 1_555
C3_2 C2_2 1_555 1_555
C4_2 C3_2 1_555 1_555
H3_2 C4_2 1_555 1_555
C18_2 N2_2 1_555 1_555
H11_2 C18_2 1_555 1_555
Co6 N2_2 1_555 1_555
Co1 O1_2 1_555 1_555
Co2 O2_2 1_555 1_555
O1_2 C13_2 1_555 1_555
O2_2 C13_2 1_555 1_555
O3_2 C12_2 1_555 1_555
O4_2 C12_2 1_555 1_555
O5_2 Co1 1_555 1_555
O6_2 Co1 1_555 1_555
O12 C26_2 1_555 1_555
C7_2 C6_2 1_555 1_555
H5_2 C7_2 1_555 1_555
C8_2 C7_2 1_555 1_555
C9_2 C8_2 1_555 1_555
H6_2 C9_2 1_555 1_555
C10_2 C9_2 1_555 1_555
C11_2 C6_2 1_555 1_555
H7_2 C11_2 1_555 1_555
C12_2 C8_2 1_555 1_555
C13_2 C10_2 1_555 1_555
C20_2 C19_2 1_555 1_555
H12_2 C20_2 1_555 1_555
C21_2 C20_2 1_555 1_555
C22_2 C21_2 1_555 1_555
H13_2 C22_2 1_555 1_555
C23_2 C22_2 1_555 1_555
C24_2 C19_2 1_555 1_555
H14_2 C24_2 1_555 1_555
C25_2 O5_2 1_555 1_555
C26_2 C23_2 1_555 1_555
O9_2 Co2 1_555 1_555
N3_2 C27_2 1_555 1_555
C28_2 N3_2 1_555 1_555
C29_2 O9_2 1_555 1_555
H15_2 C29_2 1_555 1_555
Co3_2 O3_2 1_555 1_555
O10_2 Co1 1_555 1_555
O11_2 Co1 1_555 1_555
O13 Co2 1_555 1_555
N4_2 Co2 1_555 1_555
N5_2 Co2 1_555 1_555
Co2 O5_2 1_555 1_555
O4_2 Co3_2 1_555 1_555
O6_2 C25_2 1_555 1_555
C10_2 C11_2 1_555 1_555
C21_2 C25_2 1_555 1_555
C23_2 C24_2 1_555 1_555
N3_2 C29_2 1_555 1_555
C27_2 H17_2 1_555 1_555
C27_2 H18_2 1_555 1_555
C28_2 H19_2 1_555 1_555
C28_2 H20_2 1_555 1_555
C28_2 H21_2 1_555 1_555
N4 C1_3 1_555 1_555
C1_3 H1_3 1_555 1_555
C2_3 C1_3 1_555 1_555
C3_3 C2_3 1_555 1_555
C4_3 C3_3 1_555 1_555
H3_3 C4_3 1_555 1_555
C5_3 N4 1_555 1_555
H4_3 C5_3 1_555 1_555
C4_3 C5_3 1_555 1_555
O10_2 C12_3 1_555 1_555
O11_2 C12_3 1_555 1_555
C7_3 C6_3 1_555 1_555
H5_3 C7_3 1_555 1_555
C8_3 C7_3 1_555 1_555
C9_3 C8_3 1_555 1_555
C11_3 C6_3 1_555 1_555
C12_3 C8_3 1_555 1_555
Co3_2 O1_3 1_555 1_555
Co7 O2_3 1_555 1_555
O1_3 C13_3 1_555 1_555
O2_3 C13_3 1_555 1_555
O5_3 Co3_2 1_555 1_555
O6_3 Co3_2 1_555 1_555
O12_2 C26_3 1_555 1_555
N5 C14_2 1_555 1_555
C13_3 C10_3 1_555 1_555
C14_2 H8_2 1_555 1_555
C15_2 C14_2 1_555 1_555
H9_2 C15_2 1_555 1_555
C16_2 C15_2 1_555 1_555
C17_2 C16_2 1_555 1_555
H10_2 C17_2 1_555 1_555
C18_3 N5 1_555 1_555
H11_3 C18_3 1_555 1_555
C19_3 C16_2 1_555 1_555
C20_3 C19_3 1_555 1_555
H12_3 C20_3 1_555 1_555
C21_3 C20_3 1_555 1_555
C22_3 C21_3 1_555 1_555
H13_3 C22_3 1_555 1_555
C23_3 C22_3 1_555 1_555
C24_3 C19_3 1_555 1_555
H14_3 C24_3 1_555 1_555
C25_3 O5_3 1_555 1_555
C26_3 C23_3 1_555 1_555
O9_3 Co7 1_555 1_555
N3_3 C27_3 1_555 1_555
C28_3 N3_3 1_555 1_555
C29_3 O9_3 1_555 1_555
H15_3 C29_3 1_555 1_555
O13_2 Co7 1_555 1_555
Co7 O5_3 1_555 1_555
O6_3 C25_3 1_555 1_555
C17_2 C18_3 1_555 1_555
C21_3 C25_3 1_555 1_555
C23_3 C24_3 1_555 1_555
N3_3 C29_3 1_555 1_555
C27_3 H16_2 1_555 1_555
C27_3 H17_3 1_555 1_555
C27_3 H18_3 1_555 1_555
C28_3 H19_3 1_555 1_555
C28_3 H20_3 1_555 1_555
C28_3 H21_3 1_555 1_555
Co6 O8_2 1_555 1_555
Co3 O1_4 1_555 1_555
Co6 O2_4 1_555 1_555
O1_4 C13_4 1_555 1_555
O2_4 C13_4 1_555 1_555
O10 C12_4 1_555 1_555
O11 C12_4 1_555 1_555
O5_4 Co3 1_555 1_555
O6_4 Co3 1_555 1_555
O7_2 C26_4 1_555 1_555
C7_4 C6_4 1_555 1_555
H5_4 C7_4 1_555 1_555
C8_4 C7_4 1_555 1_555
C9_4 C8_4 1_555 1_555
H6_4 C9_4 1_555 1_555
C10_4 C9_4 1_555 1_555
C11_4 C6_4 1_555 1_555
H7_4 C11_4 1_555 1_555
C12_4 C8_4 1_555 1_555
C13_4 C10_4 1_555 1_555
C20_4 C19_4 1_555 1_555
H12_4 C20_4 1_555 1_555
C21_4 C20_4 1_555 1_555
C22_4 C21_4 1_555 1_555
H13_4 C22_4 1_555 1_555
C23_4 C22_4 1_555 1_555
C24_4 C19_4 1_555 1_555
H14_4 C24_4 1_555 1_555
C25_4 O5_4 1_555 1_555
C26_4 C23_4 1_555 1_555
O9_4 Co6 1_555 1_555
N3_4 C27_4 1_555 1_555
C28_4 N3_4 1_555 1_555
C29_4 O9_4 1_555 1_555
H15_4 C29_4 1_555 1_555
Co6 O5_4 1_555 1_555
O6_4 C25_4 1_555 1_555
C10_4 C11_4 1_555 1_555
C21_4 C25_4 1_555 1_555
C23_4 C24_4 1_555 1_555
N3_4 C29_4 1_555 1_555
C27_4 H17_4 1_555 1_555
C27_4 H18_4 1_555 1_555
C28_4 H19_4 1_555 1_555
C28_4 H20_4 1_555 1_555
C28_4 H21_4 1_555 1_555
C18_4 N5_2 1_555 1_555
H11_4 C18_4 1_555 1_555
C1_4 H1_4 1_555 1_555
C2_4 C1_4 1_555 1_555
C3_4 C2_4 1_555 1_555
C4_4 C3_4 1_555 1_555
H3_4 C4_4 1_555 1_555
C5_4 N4_2 1_555 1_555
H4_4 C5_4 1_555 1_555
H10_3 C17_3 1_555 1_555
C14_3 H8_3 1_555 1_555
C15_3 C14_3 1_555 1_555
H9_3 C15_3 1_555 1_555
C16_3 C15_3 1_555 1_555
C14_4 H8_4 1_555 1_555
C15_4 C14_4 1_555 1_555
H9_4 C15_4 1_555 1_555
C16_4 C15_4 1_555 1_555
H10_4 C17_4 1_555 1_555

#END
