
###############################################################################
#
# This file contains modified crystal structure data generated from the
# MOF subset of the Cambridge Structural Database (CSD) v543 
# hosted by the Cambridge Crystallographic Data Centre (CCDC).
#
# This work is licensed under the Creative Commons
# Attribution-NonCommercial-ShareAlike 4.0 International License.
# To view a copy of this license, visit
# http://creativecommons.org/licenses/by-nc-sa/4.0/
# or send a letter to
# Creative Commons, PO Box 1866, Mountain View, CA 94042, USA.
#
# CIF created using the CSD Python API on 29 September 2022
# The structure has been converted into the P1 space group
# The structure has a 3D framework
# The original CSD entry BAKSIS is in the monoclinic crystal system
# The framework has been calculated to contain at least 10.0% void space
# The void calculation uses a probe of radius 1.32A, grid spacing 0.4
# H atom positions have been added when not included in the experimental data
# Generated hydrogen atom positions removed from atoms on special positions
#
###############################################################################

data_BAKSIS
_chemical_formula_moiety         '(C232 H184 Cu14 N16 O64)n'
_symmetry_cell_setting           triclinic
_symmetry_space_group_name_H-M   'P 1'
_symmetry_Int_Tables_number      1
_space_group_name_Hall           'P 1'
loop_
_symmetry_equiv_pos_site_id
_symmetry_equiv_pos_as_xyz
1 x,y,z
_cell_length_a                   21.738(2)
_cell_length_b                   38.788(4)
_cell_length_c                   15.7057(14)
_cell_angle_alpha                90
_cell_angle_beta                 121.086(2)
_cell_angle_gamma                90
_cell_volume                     11340.9
loop_
_atom_site_label
_atom_site_type_symbol
_atom_site_fract_x
_atom_site_fract_y
_atom_site_fract_z
Cu1 Cu 0.05048(3) 0.5000 0.09566(4)
O1 O 0.09448(12) 0.46436(6) 0.05609(17)
O2 O 0.26029(14) 0.36911(7) 0.0820(2)
C1 C 0.2496(2) 0.29163(9) 0.3761(3)
C5 C 0.24925(18) 0.31367(9) 0.2995(3)
C6 C 0.19058(19) 0.31465(10) 0.2032(3)
H2 H 0.1495 0.3022 0.1878
O4 O 0.1308(2) 0.5000 0.2520(3)
C7 C 0.2000(2) 0.38494(10) 0.0062(3)
C8 C 0.2522(2) 0.35161(10) 0.1522(3)
C9 C 0.1918(2) 0.33370(10) 0.1298(3)
H3 H 0.1518 0.3343 0.0657
C12 C 0.16579(19) 0.41049(9) 0.0263(3)
H6 H 0.1813 0.4166 0.0916
C16 C 0.3093(2) 0.33252(10) 0.3207(3)
H8 H 0.3488 0.3325 0.3851
C19 C 0.3118(2) 0.35149(10) 0.2477(3)
H10 H 0.3528 0.3639 0.2625
O5 O 0.30517(12) 0.29113(6) 0.46067(17)
O8 O 0.19381(12) 0.27420(7) 0.35100(16)
O18 O 0.09448(12) 0.53564(6) 0.05609(17)
Cu5 Cu 0.182597(19) 0.240498(11) 0.43484(3)
Cu9 Cu 0.317403(19) 0.259502(11) 0.56516(3)
O3 O 0.09330(18) 0.38547(10) 0.7353(2)
C2 C 0.10759(19) 0.42711(8) 0.9475(3)
C3 C 0.0853(2) 0.41866(10) 0.8513(3)
H1 H 0.0466 0.4301 0.7988
C4 C 0.0673(2) 0.45429(8) 0.9681(3)
C10 C 0.1125(2) 0.31829(11) 0.5936(3)
H4 H 0.0826 0.3022 0.5461
C11 C 0.1778(2) 0.37574(11) 0.9105(3)
H5 H 0.2008 0.3581 0.8976
C13 C 0.1208(2) 0.39307(12) 0.8334(3)
C14 C 0.1832(2) 0.32052(10) 0.6215(3)
C15 C 0.2254(2) 0.34474(11) 0.6903(3)
H7 H 0.2737 0.3465 0.7104
C17 C 0.1968(3) 0.36629(13) 0.7298(3)
H9 H 0.2258 0.3828 0.7761
C18 C 0.2124(2) 0.29602(9) 0.5781(3)
C20 C 0.1286(3) 0.36390(13) 0.7029(3)
C21 C 0.0860(3) 0.33988(14) 0.6361(3)
H11 H 0.0383 0.3380 0.6188
O6 O 0.27951(13) 0.29507(6) 0.61547(17)
O7 O 0.16794(12) 0.27790(7) 0.50711(18)
N1 N 0.06746(14) 0.23702(8) 0.3452(2)
C22 C 0.03075(19) 0.25591(12) 0.2649(3)
H12 H 0.0558 0.2663 0.2385
C25 C 0.0300(2) 0.22264(13) 0.3790(3)
H14 H 0.0541 0.2086 0.4348
O9 O 0.00960(13) 0.46492(6) 0.89488(17)
O19 O 0.19483(12) 0.20887(6) 0.53933(17)
O21 O 0.22049(13) 0.20493(6) 0.38453(17)
O12 O 0.90670(18) 0.38547(10) 0.2647(2)
C39 C 0.89241(19) 0.42711(8) 0.0525(3)
C40 C 0.9147(2) 0.41866(10) 0.1487(3)
H32 H 0.9534 0.4301 0.2012
C41 C 0.9327(2) 0.45429(8) 0.0319(3)
C47 C 0.8875(2) 0.31829(11) 0.4064(3)
H35 H 0.9174 0.3022 0.4539
C48 C 0.8222(2) 0.37574(11) 0.0895(3)
H36 H 0.7992 0.3581 0.1024
C50 C 0.8792(2) 0.39307(12) 0.1666(3)
C51 C 0.8168(2) 0.32052(10) 0.3785(3)
C52 C 0.7746(2) 0.34474(11) 0.3097(3)
H38 H 0.7263 0.3465 0.2896
C54 C 0.8032(3) 0.36629(13) 0.2702(3)
H40 H 0.7742 0.3828 0.2239
C55 C 0.7876(2) 0.29602(9) 0.4219(3)
C57 C 0.8714(3) 0.36390(13) 0.2971(3)
C58 C 0.9140(3) 0.33988(14) 0.3639(3)
H42 H 0.9617 0.3380 0.3812
O14 O 0.72049(13) 0.29507(6) 0.38453(17)
O15 O 0.83206(12) 0.27790(7) 0.49289(18)
Cu3 Cu 0.817403(19) 0.240498(11) 0.56516(3)
O17 O 0.99040(13) 0.46492(6) 0.10512(17)
O20 O 0.80517(12) 0.20887(6) 0.46067(17)
O22 O 0.77951(13) 0.20493(6) 0.61547(17)
Cu11 Cu 0.682597(19) 0.259502(11) 0.43484(3)
O24 O 0.80619(12) 0.27420(7) 0.64900(16)
N5 N 0.93254(14) 0.23702(8) 0.6548(2)
O25 O 0.99040(13) 0.53508(6) 0.10512(17)
C23 C 0.91991(19) 0.24676(11) 0.2541(3)
C24 C 0.9585(2) 0.26128(12) 0.2176(3)
H13 H 0.9357 0.2748 0.1606
C26 C 0.9567(2) 0.22688(14) 0.3372(3)
H15 H 0.9329 0.2164 0.3654
N2 N 0.80503(14) 0.25669(9) 0.0999(2)
C27 C 0.80285(18) 0.22498(11) 0.0504(3)
H16 H 0.7761 0.2078 0.0631
H17 H 0.8514 0.2164 0.0772
C28 C 0.73150(18) 0.26983(12) 0.0589(3)
H18 H 0.7328 0.2915 0.0905
H19 H 0.7036 0.2535 0.0721
C29 C 0.84035(19) 0.25251(14) 0.2069(3)
H20 H 0.8193 0.2330 0.2215
H21 H 0.8323 0.2730 0.2354
O10 O 0.90552(12) 0.46436(6) 0.94391(17)
O11 O 0.73971(14) 0.36911(7) 0.9180(2)
C38 C 0.7504(2) 0.29163(9) 0.6239(3)
C42 C 0.75075(18) 0.31367(9) 0.7005(3)
C43 C 0.80942(19) 0.31465(10) 0.7968(3)
H33 H 0.8505 0.3022 0.8122
C44 C 0.8000(2) 0.38494(10) 0.9938(3)
C45 C 0.7478(2) 0.35161(10) 0.8478(3)
C46 C 0.8082(2) 0.33370(10) 0.8702(3)
H34 H 0.8482 0.3343 0.9343
C49 C 0.83421(19) 0.41049(9) 0.9737(3)
H37 H 0.8187 0.4166 0.9084
C53 C 0.6907(2) 0.33252(10) 0.6793(3)
H39 H 0.6512 0.3325 0.6149
C56 C 0.6882(2) 0.35149(10) 0.7523(3)
H41 H 0.6472 0.3639 0.7375
O13 O 0.69483(12) 0.29113(6) 0.53933(17)
Cu4 Cu 0.94952(3) 0.5000 0.90434(4)
N3 N 0.43254(14) 0.26298(8) 0.6548(2)
C30 C 0.46925(19) 0.24409(12) 0.7351(3)
H22 H 0.4442 0.2337 0.7615
C31 C 0.58009(19) 0.25324(11) 0.7459(3)
C32 C 0.5415(2) 0.23872(12) 0.7824(3)
H23 H 0.5643 0.2252 0.8394
C33 C 0.4700(2) 0.27736(13) 0.6210(3)
H24 H 0.4459 0.2914 0.5652
C34 C 0.5433(2) 0.27312(14) 0.6628(3)
H25 H 0.5671 0.2836 0.6346
N4 N 0.69497(14) 0.24331(9) 0.9001(2)
C35 C 0.69715(18) 0.27502(11) 0.9496(3)
H26 H 0.7239 0.2922 0.9369
H27 H 0.6486 0.2836 0.9228
C36 C 0.76850(18) 0.23017(12) 0.9411(3)
H28 H 0.7672 0.2085 0.9095
H29 H 0.7964 0.2465 0.9279
C37 C 0.65965(19) 0.24749(14) 0.7931(3)
H30 H 0.6807 0.2670 0.7785
H31 H 0.6677 0.2270 0.7646
N3_2 N 0.56746(14) 0.26298(8) 0.3452(2)
C30_2 C 0.53075(19) 0.24409(12) 0.2649(3)
H22_2 H 0.5558 0.2337 0.2385
C31_2 C 0.41991(19) 0.25324(11) 0.2541(3)
C32_2 C 0.4585(2) 0.23872(12) 0.2176(3)
H23_2 H 0.4357 0.2252 0.1606
C33_2 C 0.5300(2) 0.27736(13) 0.3790(3)
H24_2 H 0.5541 0.2914 0.4348
C34_2 C 0.4567(2) 0.27312(14) 0.3372(3)
H25_2 H 0.4329 0.2836 0.3654
N4_2 N 0.30503(14) 0.24331(9) 0.0999(2)
C35_2 C 0.30285(18) 0.27502(11) 0.0504(3)
H26_2 H 0.2761 0.2922 0.0631
H27_2 H 0.3514 0.2836 0.0772
C36_2 C 0.23150(18) 0.23017(12) 0.0589(3)
H28_2 H 0.2328 0.2085 0.0905
H29_2 H 0.2036 0.2465 0.0721
C37_2 C 0.34035(19) 0.24749(14) 0.2069(3)
H30_2 H 0.3193 0.2670 0.2215
H31_2 H 0.3323 0.2270 0.2354
C23_2 C 0.08009(19) 0.24676(11) 0.7459(3)
C24_2 C 0.0415(2) 0.26128(12) 0.7824(3)
H13_2 H 0.0643 0.2748 0.8394
C26_2 C 0.0433(2) 0.22688(14) 0.6628(3)
H15_2 H 0.0671 0.2164 0.6346
N2_2 N 0.19497(14) 0.25669(9) 0.9001(2)
C27_2 C 0.19715(18) 0.22498(11) 0.9496(3)
H16_2 H 0.2239 0.2078 0.9369
H17_2 H 0.1486 0.2164 0.9228
C28_2 C 0.26850(18) 0.26983(12) 0.9411(3)
H18_2 H 0.2672 0.2915 0.9095
H19_2 H 0.2964 0.2535 0.9279
C29_2 C 0.15965(19) 0.25251(14) 0.7931(3)
H20_2 H 0.1807 0.2330 0.7785
H21_2 H 0.1677 0.2730 0.7646
O25_2 O 0.00960(13) 0.53508(6) 0.89488(17)
C22_2 C 0.96925(19) 0.25591(12) 0.7351(3)
H12_2 H 0.9442 0.2663 0.7615
C25_2 C 0.9700(2) 0.22264(13) 0.6210(3)
H14_2 H 0.9459 0.2086 0.5652
O4_2 O 0.8692(2) 0.5000 0.7480(3)
O18_2 O 0.90552(12) 0.53564(6) 0.94391(17)
Cu1_2 Cu 0.55048(3) -0.0000 0.09566(4)
O4_3 O 0.6308(2) -0.0000 0.2520(3)
O18_3 O 0.59448(12) 0.03564(6) 0.05609(17)
O25_3 O 0.49040(13) 0.03508(6) 0.10512(17)
H43 H 0.678195 0.00608698 0.261061
H44 H 0.617681 0.0171838 0.286835
Cu4_2 Cu 0.44952(3) -0.0000 0.90434(4)
Cu1_3 Cu 0.55048(3) 1.0000 0.09566(4)
O1_2 O 0.59448(12) 0.96436(6) 0.05609(17)
O2_2 O 0.76029(14) 0.86911(7) 0.0820(2)
C1_2 C 0.7496(2) 0.79163(9) 0.3761(3)
C5_2 C 0.74925(18) 0.81367(9) 0.2995(3)
C6_2 C 0.69058(19) 0.81465(10) 0.2032(3)
H2_2 H 0.6495 0.8022 0.1878
O4_4 O 0.6308(2) 1.0000 0.2520(3)
C7_2 C 0.7000(2) 0.88494(10) 0.0062(3)
C8_2 C 0.7522(2) 0.85161(10) 0.1522(3)
C9_2 C 0.6918(2) 0.83370(10) 0.1298(3)
H3_2 H 0.6518 0.8343 0.0657
C12_2 C 0.66579(19) 0.91049(9) 0.0263(3)
H6_2 H 0.6813 0.9166 0.0916
C16_2 C 0.8093(2) 0.83252(10) 0.3207(3)
H8_2 H 0.8488 0.8325 0.3851
C19_2 C 0.8118(2) 0.85149(10) 0.2477(3)
H10_2 H 0.8528 0.8639 0.2625
O5_2 O 0.80517(12) 0.79113(6) 0.46067(17)
O8_2 O 0.69381(12) 0.77420(7) 0.35100(16)
O12_2 O 0.40670(18) 0.88547(10) 0.2647(2)
C39_2 C 0.39241(19) 0.92711(8) 0.0525(3)
C40_2 C 0.4147(2) 0.91866(10) 0.1487(3)
H32_2 H 0.4534 0.9301 0.2012
C41_2 C 0.4327(2) 0.95429(8) 0.0319(3)
C47_2 C 0.3875(2) 0.81829(11) 0.4064(3)
H35_2 H 0.4174 0.8022 0.4539
C48_2 C 0.3222(2) 0.87574(11) 0.0895(3)
H36_2 H 0.2992 0.8581 0.1024
C50_2 C 0.3792(2) 0.89307(12) 0.1666(3)
C51_2 C 0.3168(2) 0.82052(10) 0.3785(3)
C52_2 C 0.2746(2) 0.84474(11) 0.3097(3)
H38_2 H 0.2263 0.8465 0.2896
C54_2 C 0.3032(3) 0.86629(13) 0.2702(3)
H40_2 H 0.2742 0.8828 0.2239
C55_2 C 0.2876(2) 0.79602(9) 0.4219(3)
C57_2 C 0.3714(3) 0.86390(13) 0.2971(3)
C58_2 C 0.4140(3) 0.83988(14) 0.3639(3)
H42_2 H 0.4617 0.8380 0.3812
O14_2 O 0.22049(13) 0.79507(6) 0.38453(17)
O15_2 O 0.33206(12) 0.77790(7) 0.49289(18)
Cu3_2 Cu 0.317403(19) 0.740498(11) 0.56516(3)
O17_2 O 0.49040(13) 0.96492(6) 0.10512(17)
O20_2 O 0.30517(12) 0.70887(6) 0.46067(17)
O22_2 O 0.27951(13) 0.70493(6) 0.61547(17)
Cu5_2 Cu 0.682597(19) 0.740498(11) 0.43484(3)
Cu9_2 Cu 0.817403(19) 0.759502(11) 0.56516(3)
Cu11_2 Cu 0.182597(19) 0.759502(11) 0.43484(3)
O24_2 O 0.30619(12) 0.77420(7) 0.64900(16)
N5_2 N 0.43254(14) 0.73702(8) 0.6548(2)
O3_2 O 0.59330(18) 0.88547(10) 0.7353(2)
C2_2 C 0.60759(19) 0.92711(8) 0.9475(3)
C3_2 C 0.5853(2) 0.91866(10) 0.8513(3)
H1_2 H 0.5466 0.9301 0.7988
C4_2 C 0.5673(2) 0.95429(8) 0.9681(3)
C10_2 C 0.6125(2) 0.81829(11) 0.5936(3)
H4_2 H 0.5826 0.8022 0.5461
C11_2 C 0.6778(2) 0.87574(11) 0.9105(3)
H5_2 H 0.7008 0.8581 0.8976
C13_2 C 0.6208(2) 0.89307(12) 0.8334(3)
C14_2 C 0.6832(2) 0.82052(10) 0.6215(3)
C15_2 C 0.7254(2) 0.84474(11) 0.6903(3)
H7_2 H 0.7737 0.8465 0.7104
C17_2 C 0.6968(3) 0.86629(13) 0.7298(3)
H9_2 H 0.7258 0.8828 0.7761
C18_2 C 0.7124(2) 0.79602(9) 0.5781(3)
C20_2 C 0.6286(3) 0.86390(13) 0.7029(3)
C21_2 C 0.5860(3) 0.83988(14) 0.6361(3)
H11_2 H 0.5383 0.8380 0.6188
O6_2 O 0.77951(13) 0.79507(6) 0.61547(17)
O7_2 O 0.66794(12) 0.77790(7) 0.50711(18)
N1_2 N 0.56746(14) 0.73702(8) 0.3452(2)
C22_3 C 0.53075(19) 0.75591(12) 0.2649(3)
H12_3 H 0.5558 0.7663 0.2385
C23_3 C 0.41991(19) 0.74676(11) 0.2541(3)
C24_3 C 0.4585(2) 0.76128(12) 0.2176(3)
H13_3 H 0.4357 0.7748 0.1606
C25_3 C 0.5300(2) 0.72264(13) 0.3790(3)
H14_3 H 0.5541 0.7086 0.4348
C26_3 C 0.4567(2) 0.72688(14) 0.3372(3)
H15_3 H 0.4329 0.7164 0.3654
N2_3 N 0.30503(14) 0.75669(9) 0.0999(2)
C27_3 C 0.30285(18) 0.72498(11) 0.0504(3)
H16_3 H 0.2761 0.7078 0.0631
H17_3 H 0.3514 0.7164 0.0772
C28_3 C 0.23150(18) 0.76983(12) 0.0589(3)
H18_3 H 0.2328 0.7915 0.0905
H19_3 H 0.2036 0.7535 0.0721
C29_3 C 0.34035(19) 0.75251(14) 0.2069(3)
H20_3 H 0.3193 0.7330 0.2215
H21_3 H 0.3323 0.7730 0.2354
O9_2 O 0.50960(13) 0.96492(6) 0.89488(17)
O10_2 O 0.40552(12) 0.96436(6) 0.94391(17)
O11_2 O 0.23971(14) 0.86911(7) 0.9180(2)
C38_2 C 0.2504(2) 0.79163(9) 0.6239(3)
C42_2 C 0.25075(18) 0.81367(9) 0.7005(3)
C43_2 C 0.30942(19) 0.81465(10) 0.7968(3)
H33_2 H 0.3505 0.8022 0.8122
C44_2 C 0.3000(2) 0.88494(10) 0.9938(3)
C45_2 C 0.2478(2) 0.85161(10) 0.8478(3)
C46_2 C 0.3082(2) 0.83370(10) 0.8702(3)
H34_2 H 0.3482 0.8343 0.9343
C49_2 C 0.33421(19) 0.91049(9) 0.9737(3)
H37_2 H 0.3187 0.9166 0.9084
C53_2 C 0.1907(2) 0.83252(10) 0.6793(3)
H39_2 H 0.1512 0.8325 0.6149
C56_2 C 0.1882(2) 0.85149(10) 0.7523(3)
H41_2 H 0.1472 0.8639 0.7375
O13_2 O 0.19483(12) 0.79113(6) 0.53933(17)
Cu4_3 Cu 0.44952(3) 1.0000 0.90434(4)
O19_2 O 0.69483(12) 0.70887(6) 0.53933(17)
O21_2 O 0.72049(13) 0.70493(6) 0.38453(17)
C31_3 C 0.08009(19) 0.75324(11) 0.7459(3)
C32_3 C 0.0415(2) 0.73872(12) 0.7824(3)
H23_3 H 0.0643 0.7252 0.8394
C34_3 C 0.0433(2) 0.77312(14) 0.6628(3)
H25_3 H 0.0671 0.7836 0.6346
N4_3 N 0.19497(14) 0.74331(9) 0.9001(2)
C35_3 C 0.19715(18) 0.77502(11) 0.9496(3)
H26_3 H 0.2239 0.7922 0.9369
H27_3 H 0.1486 0.7836 0.9228
C36_3 C 0.26850(18) 0.73017(12) 0.9411(3)
H28_3 H 0.2672 0.7085 0.9095
H29_3 H 0.2964 0.7465 0.9279
C37_3 C 0.15965(19) 0.74749(14) 0.7931(3)
H30_3 H 0.1807 0.7670 0.7785
H31_3 H 0.1677 0.7270 0.7646
N3_3 N 0.93254(14) 0.76298(8) 0.6548(2)
C30_3 C 0.96925(19) 0.74409(12) 0.7351(3)
H22_3 H 0.9442 0.7337 0.7615
C33_3 C 0.9700(2) 0.77736(13) 0.6210(3)
H24_3 H 0.9459 0.7914 0.5652
N3_4 N 0.06746(14) 0.76298(8) 0.3452(2)
C30_4 C 0.03075(19) 0.74409(12) 0.2649(3)
H22_4 H 0.0558 0.7337 0.2385
C33_4 C 0.0300(2) 0.77736(13) 0.3790(3)
H24_4 H 0.0541 0.7914 0.4348
O4_5 O 0.3692(2) -0.0000 0.7480(3)
O18_4 O 0.40552(12) 0.03564(6) 0.94391(17)
O25_4 O 0.50960(13) 0.03508(6) 0.89488(17)
H43_2 H 0.321805 0.00608698 0.738939
H44_2 H 0.382319 0.0171838 0.713165
C31_4 C 0.91991(19) 0.75324(11) 0.2541(3)
C32_4 C 0.9585(2) 0.73872(12) 0.2176(3)
H23_4 H 0.9357 0.7252 0.1606
C34_4 C 0.9567(2) 0.77312(14) 0.3372(3)
H25_4 H 0.9329 0.7836 0.3654
N4_4 N 0.80503(14) 0.74331(9) 0.0999(2)
C35_4 C 0.80285(18) 0.77502(11) 0.0504(3)
H26_4 H 0.7761 0.7922 0.0631
H27_4 H 0.8514 0.7836 0.0772
C36_4 C 0.73150(18) 0.73017(12) 0.0589(3)
H28_4 H 0.7328 0.7085 0.0905
H29_4 H 0.7036 0.7465 0.0721
C37_4 C 0.84035(19) 0.74749(14) 0.2069(3)
H30_4 H 0.8193 0.7670 0.2215
H31_4 H 0.8323 0.7270 0.2354
C22_4 C 0.46925(19) 0.75591(12) 0.7351(3)
H12_4 H 0.4442 0.7663 0.7615
C23_4 C 0.58009(19) 0.74676(11) 0.7459(3)
C24_4 C 0.5415(2) 0.76128(12) 0.7824(3)
H13_4 H 0.5643 0.7748 0.8394
C25_4 C 0.4700(2) 0.72264(13) 0.6210(3)
H14_4 H 0.4459 0.7086 0.5652
C26_4 C 0.5433(2) 0.72688(14) 0.6628(3)
H15_4 H 0.5671 0.7164 0.6346
N2_4 N 0.69497(14) 0.75669(9) 0.9001(2)
C27_4 C 0.69715(18) 0.72498(11) 0.9496(3)
H16_4 H 0.7239 0.7078 0.9369
H17_4 H 0.6486 0.7164 0.9228
C28_4 C 0.76850(18) 0.76983(12) 0.9411(3)
H18_4 H 0.7672 0.7915 0.9095
H19_4 H 0.7964 0.7535 0.9279
C29_4 C 0.65965(19) 0.75251(14) 0.7931(3)
H20_4 H 0.6807 0.7330 0.7785
H21_4 H 0.6677 0.7730 0.7646
O4_6 O 0.3692(2) 1.0000 0.7480(3)
O11_3 O 0.26029(14) 0.63089(7) 0.0820(2)
C38_3 C 0.2496(2) 0.70837(9) 0.3761(3)
C42_3 C 0.24925(18) 0.68633(9) 0.2995(3)
C43_3 C 0.19058(19) 0.68535(10) 0.2032(3)
H33_3 H 0.1495 0.6978 0.1878
C44_3 C 0.2000(2) 0.61506(10) 0.0062(3)
C45_3 C 0.2522(2) 0.64839(10) 0.1522(3)
C46_3 C 0.1918(2) 0.66630(10) 0.1298(3)
H34_3 H 0.1518 0.6657 0.0657
C49_3 C 0.16579(19) 0.58951(9) 0.0263(3)
H37_3 H 0.1813 0.5834 0.0916
C53_3 C 0.3093(2) 0.66748(10) 0.3207(3)
H39_3 H 0.3488 0.6675 0.3851
C56_3 C 0.3118(2) 0.64851(10) 0.2477(3)
H41_3 H 0.3528 0.6361 0.2625
O16 O 0.19381(12) 0.72580(7) 0.35100(16)
O12_3 O 0.09330(18) 0.61453(10) 0.7353(2)
C39_3 C 0.10759(19) 0.57289(8) 0.9475(3)
C40_3 C 0.0853(2) 0.58134(10) 0.8513(3)
H32_3 H 0.0466 0.5699 0.7988
C41_3 C 0.0673(2) 0.54571(8) 0.9681(3)
C47_3 C 0.1125(2) 0.68171(11) 0.5936(3)
H35_3 H 0.0826 0.6978 0.5461
C48_3 C 0.1778(2) 0.62426(11) 0.9105(3)
H36_3 H 0.2008 0.6419 0.8976
C50_3 C 0.1208(2) 0.60693(12) 0.8334(3)
C51_3 C 0.1832(2) 0.67948(10) 0.6215(3)
C52_3 C 0.2254(2) 0.65526(11) 0.6903(3)
H38_3 H 0.2737 0.6535 0.7104
C54_3 C 0.1968(3) 0.63371(13) 0.7298(3)
H40_3 H 0.2258 0.6172 0.7761
C55_3 C 0.2124(2) 0.70398(9) 0.5781(3)
C57_3 C 0.1286(3) 0.63610(13) 0.7029(3)
C58_3 C 0.0860(3) 0.66012(14) 0.6361(3)
H42_3 H 0.0383 0.6620 0.6188
O15_3 O 0.16794(12) 0.72210(7) 0.50711(18)
O3_3 O 0.90670(18) 0.61453(10) 0.2647(2)
C2_3 C 0.89241(19) 0.57289(8) 0.0525(3)
C3_3 C 0.9147(2) 0.58134(10) 0.1487(3)
H1_3 H 0.9534 0.5699 0.2012
C4_3 C 0.9327(2) 0.54571(8) 0.0319(3)
C10_3 C 0.8875(2) 0.68171(11) 0.4064(3)
H4_3 H 0.9174 0.6978 0.4539
C11_3 C 0.8222(2) 0.62426(11) 0.0895(3)
H5_3 H 0.7992 0.6419 0.1024
C13_3 C 0.8792(2) 0.60693(12) 0.1666(3)
C14_3 C 0.8168(2) 0.67948(10) 0.3785(3)
C15_3 C 0.7746(2) 0.65526(11) 0.3097(3)
H7_3 H 0.7263 0.6535 0.2896
C17_3 C 0.8032(3) 0.63371(13) 0.2702(3)
H9_3 H 0.7742 0.6172 0.2239
C18_3 C 0.7876(2) 0.70398(9) 0.4219(3)
C20_3 C 0.8714(3) 0.63610(13) 0.2971(3)
C21_3 C 0.9140(3) 0.66012(14) 0.3639(3)
H11_3 H 0.9617 0.6620 0.3812
O7_3 O 0.83206(12) 0.72210(7) 0.49289(18)
O23 O 0.80619(12) 0.72580(7) 0.64900(16)
O2_3 O 0.73971(14) 0.63089(7) 0.9180(2)
C1_3 C 0.7504(2) 0.70837(9) 0.6239(3)
C5_3 C 0.75075(18) 0.68633(9) 0.7005(3)
C6_3 C 0.80942(19) 0.68535(10) 0.7968(3)
H2_3 H 0.8505 0.6978 0.8122
C7_3 C 0.8000(2) 0.61506(10) 0.9938(3)
C8_3 C 0.7478(2) 0.64839(10) 0.8478(3)
C9_3 C 0.8082(2) 0.66630(10) 0.8702(3)
H3_3 H 0.8482 0.6657 0.9343
C12_3 C 0.83421(19) 0.58951(9) 0.9737(3)
H6_3 H 0.8187 0.5834 0.9084
C16_3 C 0.6907(2) 0.66748(10) 0.6793(3)
H8_3 H 0.6512 0.6675 0.6149
C19_3 C 0.6882(2) 0.64851(10) 0.7523(3)
H10_3 H 0.6472 0.6361 0.7375
O3_4 O 0.40670(18) 0.11453(10) 0.2647(2)
C2_4 C 0.39241(19) 0.07289(8) 0.0525(3)
C3_4 C 0.4147(2) 0.08134(10) 0.1487(3)
H1_4 H 0.4534 0.0699 0.2012
C4_4 C 0.4327(2) 0.04571(8) 0.0319(3)
C10_4 C 0.3875(2) 0.18171(11) 0.4064(3)
H4_4 H 0.4174 0.1978 0.4539
C11_4 C 0.3222(2) 0.12426(11) 0.0895(3)
H5_4 H 0.2992 0.1419 0.1024
C13_4 C 0.3792(2) 0.10693(12) 0.1666(3)
C14_4 C 0.3168(2) 0.17948(10) 0.3785(3)
C15_4 C 0.2746(2) 0.15526(11) 0.3097(3)
H7_4 H 0.2263 0.1535 0.2896
C17_4 C 0.3032(3) 0.13371(13) 0.2702(3)
H9_4 H 0.2742 0.1172 0.2239
C18_4 C 0.2876(2) 0.20398(9) 0.4219(3)
C20_4 C 0.3714(3) 0.13610(13) 0.2971(3)
C21_4 C 0.4140(3) 0.16012(14) 0.3639(3)
H11_4 H 0.4617 0.1620 0.3812
O7_4 O 0.33206(12) 0.22210(7) 0.49289(18)
O11_4 O 0.76029(14) 0.13089(7) 0.0820(2)
C38_4 C 0.7496(2) 0.20837(9) 0.3761(3)
C42_4 C 0.74925(18) 0.18633(9) 0.2995(3)
C43_4 C 0.69058(19) 0.18535(10) 0.2032(3)
H33_4 H 0.6495 0.1978 0.1878
C44_4 C 0.7000(2) 0.11506(10) 0.0062(3)
C45_4 C 0.7522(2) 0.14839(10) 0.1522(3)
C46_4 C 0.6918(2) 0.16630(10) 0.1298(3)
H34_4 H 0.6518 0.1657 0.0657
C49_4 C 0.66579(19) 0.08951(9) 0.0263(3)
H37_4 H 0.6813 0.0834 0.0916
C53_4 C 0.8093(2) 0.16748(10) 0.3207(3)
H39_4 H 0.8488 0.1675 0.3851
C56_4 C 0.8118(2) 0.14851(10) 0.2477(3)
H41_4 H 0.8528 0.1361 0.2625
O16_2 O 0.69381(12) 0.22580(7) 0.35100(16)
O23_2 O 0.30619(12) 0.22580(7) 0.64900(16)
O2_4 O 0.23971(14) 0.13089(7) 0.9180(2)
C1_4 C 0.2504(2) 0.20837(9) 0.6239(3)
C5_4 C 0.25075(18) 0.18633(9) 0.7005(3)
C6_4 C 0.30942(19) 0.18535(10) 0.7968(3)
H2_4 H 0.3505 0.1978 0.8122
C7_4 C 0.3000(2) 0.11506(10) 0.9938(3)
C8_4 C 0.2478(2) 0.14839(10) 0.8478(3)
C9_4 C 0.3082(2) 0.16630(10) 0.8702(3)
H3_4 H 0.3482 0.1657 0.9343
C12_4 C 0.33421(19) 0.08951(9) 0.9737(3)
H6_4 H 0.3187 0.0834 0.9084
C16_4 C 0.1907(2) 0.16748(10) 0.6793(3)
H8_4 H 0.1512 0.1675 0.6149
C19_4 C 0.1882(2) 0.14851(10) 0.7523(3)
H10_4 H 0.1472 0.1361 0.7375
O12_4 O 0.59330(18) 0.11453(10) 0.7353(2)
C39_4 C 0.60759(19) 0.07289(8) 0.9475(3)
C40_4 C 0.5853(2) 0.08134(10) 0.8513(3)
H32_4 H 0.5466 0.0699 0.7988
C41_4 C 0.5673(2) 0.04571(8) 0.9681(3)
C47_4 C 0.6125(2) 0.18171(11) 0.5936(3)
H35_4 H 0.5826 0.1978 0.5461
C48_4 C 0.6778(2) 0.12426(11) 0.9105(3)
H36_4 H 0.7008 0.1419 0.8976
C50_4 C 0.6208(2) 0.10693(12) 0.8334(3)
C51_4 C 0.6832(2) 0.17948(10) 0.6215(3)
C52_4 C 0.7254(2) 0.15526(11) 0.6903(3)
H38_4 H 0.7737 0.1535 0.7104
C54_4 C 0.6968(3) 0.13371(13) 0.7298(3)
H40_4 H 0.7258 0.1172 0.7761
C55_4 C 0.7124(2) 0.20398(9) 0.5781(3)
C57_4 C 0.6286(3) 0.13610(13) 0.7029(3)
C58_4 C 0.5860(3) 0.16012(14) 0.6361(3)
H42_4 H 0.5383 0.1620 0.6188
O15_4 O 0.66794(12) 0.22210(7) 0.50711(18)
H43_3 H 0.321805 0.993913 0.738939
H44_3 H 0.382319 0.982816 0.713165
H43_4 H 0.678195 0.993913 0.261061
H44_4 H 0.617681 0.982816 0.286835
loop_
_geom_bond_atom_site_label_1
_geom_bond_atom_site_label_2
_geom_bond_site_symmetry_1
_geom_bond_site_symmetry_2
Cu1 O1 1_555 1_555
O2 C7 1_555 1_555
C1 C5 1_555 1_555
C5 C6 1_555 1_555
C6 H2 1_555 1_555
O4 Cu1 1_555 1_555
C8 O2 1_555 1_555
C9 C6 1_555 1_555
H3 C9 1_555 1_555
H6 C12 1_555 1_555
C16 C5 1_555 1_555
H8 C16 1_555 1_555
C19 C8 1_555 1_555
H10 C19 1_555 1_555
O5 C1 1_555 1_555
O8 C1 1_555 1_555
O18 Cu1 1_555 1_555
Cu5 O8 1_555 1_555
Cu9 O5 1_555 1_555
C7 C12 1_555 1_555
C8 C9 1_555 1_555
C16 C19 1_555 1_555
Cu5 Cu9 1_555 1_555
O3 C13 1_555 1_555
C2 C3 1_555 1_555
C3 H1 1_555 1_555
C4 C2 1_555 1_555
C10 H4 1_555 1_555
C11 H5 1_555 1_555
C13 C3 1_555 1_555
C14 C10 1_555 1_555
C15 C14 1_555 1_555
H7 C15 1_555 1_555
C17 C15 1_555 1_555
H9 C17 1_555 1_555
C18 C14 1_555 1_555
C20 O3 1_555 1_555
C21 C10 1_555 1_555
H11 C21 1_555 1_555
O6 C18 1_555 1_555
O7 C18 1_555 1_555
Cu5 O7 1_555 1_555
N1 Cu5 1_555 1_555
C22 N1 1_555 1_555
H12 C22 1_555 1_555
C25 N1 1_555 1_555
H14 C25 1_555 1_555
O9 C4 1_555 1_555
O19 Cu5 1_555 1_555
O21 Cu5 1_555 1_555
Cu9 O6 1_555 1_555
C11 C13 1_555 1_555
C17 C20 1_555 1_555
C20 C21 1_555 1_555
O12 C50 1_555 1_555
C39 C40 1_555 1_555
C40 H32 1_555 1_555
C41 C39 1_555 1_555
C47 H35 1_555 1_555
C48 H36 1_555 1_555
C50 C40 1_555 1_555
C51 C47 1_555 1_555
C52 C51 1_555 1_555
H38 C52 1_555 1_555
C54 C52 1_555 1_555
H40 C54 1_555 1_555
C55 C51 1_555 1_555
C57 O12 1_555 1_555
C58 C47 1_555 1_555
H42 C58 1_555 1_555
O14 C55 1_555 1_555
O15 C55 1_555 1_555
Cu3 O15 1_555 1_555
O20 Cu3 1_555 1_555
O22 Cu3 1_555 1_555
Cu11 O14 1_555 1_555
O24 Cu3 1_555 1_555
N5 Cu3 1_555 1_555
C41 O17 1_555 1_555
C48 C50 1_555 1_555
C54 C57 1_555 1_555
C57 C58 1_555 1_555
Cu3 Cu11 1_555 1_555
C23 C24 1_555 1_555
H13 C24 1_555 1_555
C26 C23 1_555 1_555
H15 C26 1_555 1_555
N2 C27 1_555 1_555
C27 H16 1_555 1_555
H17 C27 1_555 1_555
C28 N2 1_555 1_555
H18 C28 1_555 1_555
H19 C28 1_555 1_555
C29 C23 1_555 1_555
H20 C29 1_555 1_555
H21 C29 1_555 1_555
O11 C44 1_555 1_555
C38 C42 1_555 1_555
C42 C43 1_555 1_555
C43 H33 1_555 1_555
C45 O11 1_555 1_555
C46 C43 1_555 1_555
H34 C46 1_555 1_555
H37 C49 1_555 1_555
C53 C42 1_555 1_555
H39 C53 1_555 1_555
C56 C45 1_555 1_555
H41 C56 1_555 1_555
O13 C38 1_555 1_555
O24 C38 1_555 1_555
Cu11 O13 1_555 1_555
N2 C29 1_555 1_555
O10 Cu4 1_555 1_555
C44 C49 1_555 1_555
C45 C46 1_555 1_555
C53 C56 1_555 1_555
N3 C30 1_555 1_555
C30 H22 1_555 1_555
C31 C32 1_555 1_555
C32 C30 1_555 1_555
H23 C32 1_555 1_555
C33 N3 1_555 1_555
H24 C33 1_555 1_555
C34 C31 1_555 1_555
H25 C34 1_555 1_555
N4 C35 1_555 1_555
H26 C35 1_555 1_555
H27 C35 1_555 1_555
H28 C36 1_555 1_555
H29 C36 1_555 1_555
C37 C31 1_555 1_555
H30 C37 1_555 1_555
H31 C37 1_555 1_555
Cu9 N3 1_555 1_555
C33 C34 1_555 1_555
N4 C36 1_555 1_555
N4 C37 1_555 1_555
N3_2 C30_2 1_555 1_555
C30_2 H22_2 1_555 1_555
C31_2 C32_2 1_555 1_555
C32_2 C30_2 1_555 1_555
H23_2 C32_2 1_555 1_555
C33_2 N3_2 1_555 1_555
H24_2 C33_2 1_555 1_555
C34_2 C31_2 1_555 1_555
H25_2 C34_2 1_555 1_555
N4_2 C35_2 1_555 1_555
H26_2 C35_2 1_555 1_555
H27_2 C35_2 1_555 1_555
H28_2 C36_2 1_555 1_555
H29_2 C36_2 1_555 1_555
C37_2 C31_2 1_555 1_555
H30_2 C37_2 1_555 1_555
H31_2 C37_2 1_555 1_555
Cu11 N3_2 1_555 1_555
C33_2 C34_2 1_555 1_555
N4_2 C36_2 1_555 1_555
N4_2 C37_2 1_555 1_555
C23_2 C24_2 1_555 1_555
H13_2 C24_2 1_555 1_555
C26_2 C23_2 1_555 1_555
H15_2 C26_2 1_555 1_555
N2_2 C27_2 1_555 1_555
C27_2 H16_2 1_555 1_555
H17_2 C27_2 1_555 1_555
C28_2 N2_2 1_555 1_555
H18_2 C28_2 1_555 1_555
H19_2 C28_2 1_555 1_555
C29_2 C23_2 1_555 1_555
H20_2 C29_2 1_555 1_555
H21_2 C29_2 1_555 1_555
N2_2 C29_2 1_555 1_555
C22_2 N5 1_555 1_555
H12_2 C22_2 1_555 1_555
C25_2 N5 1_555 1_555
H14_2 C25_2 1_555 1_555
O4_2 Cu4 1_555 1_555
O18_2 Cu4 1_555 1_555
O4_3 Cu1_2 1_555 1_555
O18_3 Cu1_2 1_555 1_555
O25_3 Cu1_2 1_555 1_555
O4_3 H43 1_555 1_555
O4_3 H44 1_555 1_555
Cu1_3 O1_2 1_555 1_555
O2_2 C7_2 1_555 1_555
C1_2 C5_2 1_555 1_555
C5_2 C6_2 1_555 1_555
C6_2 H2_2 1_555 1_555
O4_4 Cu1_3 1_555 1_555
C8_2 O2_2 1_555 1_555
C9_2 C6_2 1_555 1_555
H3_2 C9_2 1_555 1_555
H6_2 C12_2 1_555 1_555
C16_2 C5_2 1_555 1_555
H8_2 C16_2 1_555 1_555
C19_2 C8_2 1_555 1_555
H10_2 C19_2 1_555 1_555
O5_2 C1_2 1_555 1_555
O8_2 C1_2 1_555 1_555
O12_2 C50_2 1_555 1_555
C39_2 C40_2 1_555 1_555
C40_2 H32_2 1_555 1_555
C41_2 C39_2 1_555 1_555
C47_2 H35_2 1_555 1_555
C48_2 H36_2 1_555 1_555
C50_2 C40_2 1_555 1_555
C51_2 C47_2 1_555 1_555
C52_2 C51_2 1_555 1_555
H38_2 C52_2 1_555 1_555
C54_2 C52_2 1_555 1_555
H40_2 C54_2 1_555 1_555
C55_2 C51_2 1_555 1_555
C57_2 O12_2 1_555 1_555
C58_2 C47_2 1_555 1_555
H42_2 C58_2 1_555 1_555
O14_2 C55_2 1_555 1_555
O15_2 C55_2 1_555 1_555
Cu3_2 O15_2 1_555 1_555
O17_2 Cu1_3 1_555 1_555
O20_2 Cu3_2 1_555 1_555
O22_2 Cu3_2 1_555 1_555
Cu5_2 O8_2 1_555 1_555
Cu9_2 O5_2 1_555 1_555
Cu11_2 O14_2 1_555 1_555
O24_2 Cu3_2 1_555 1_555
N5_2 Cu3_2 1_555 1_555
C7_2 C12_2 1_555 1_555
C8_2 C9_2 1_555 1_555
C16_2 C19_2 1_555 1_555
C41_2 O17_2 1_555 1_555
C48_2 C50_2 1_555 1_555
C54_2 C57_2 1_555 1_555
C57_2 C58_2 1_555 1_555
Cu3_2 Cu11_2 1_555 1_555
Cu5_2 Cu9_2 1_555 1_555
O3_2 C13_2 1_555 1_555
C2_2 C3_2 1_555 1_555
C3_2 H1_2 1_555 1_555
C4_2 C2_2 1_555 1_555
C10_2 H4_2 1_555 1_555
C11_2 H5_2 1_555 1_555
C13_2 C3_2 1_555 1_555
C14_2 C10_2 1_555 1_555
C15_2 C14_2 1_555 1_555
H7_2 C15_2 1_555 1_555
C17_2 C15_2 1_555 1_555
H9_2 C17_2 1_555 1_555
C18_2 C14_2 1_555 1_555
C20_2 O3_2 1_555 1_555
C21_2 C10_2 1_555 1_555
H11_2 C21_2 1_555 1_555
O6_2 C18_2 1_555 1_555
O7_2 C18_2 1_555 1_555
Cu5_2 O7_2 1_555 1_555
N1_2 Cu5_2 1_555 1_555
C22_3 N1_2 1_555 1_555
H12_3 C22_3 1_555 1_555
C23_3 C24_3 1_555 1_555
C24_3 C22_3 1_555 1_555
H13_3 C24_3 1_555 1_555
C25_3 N1_2 1_555 1_555
H14_3 C25_3 1_555 1_555
C26_3 C23_3 1_555 1_555
H15_3 C26_3 1_555 1_555
N2_3 C27_3 1_555 1_555
C27_3 H16_3 1_555 1_555
H17_3 C27_3 1_555 1_555
C28_3 N2_3 1_555 1_555
H18_3 C28_3 1_555 1_555
H19_3 C28_3 1_555 1_555
C29_3 C23_3 1_555 1_555
H20_3 C29_3 1_555 1_555
H21_3 C29_3 1_555 1_555
O9_2 C4_2 1_555 1_555
O11_2 C44_2 1_555 1_555
C38_2 C42_2 1_555 1_555
C42_2 C43_2 1_555 1_555
C43_2 H33_2 1_555 1_555
C45_2 O11_2 1_555 1_555
C46_2 C43_2 1_555 1_555
H34_2 C46_2 1_555 1_555
H37_2 C49_2 1_555 1_555
C53_2 C42_2 1_555 1_555
H39_2 C53_2 1_555 1_555
C56_2 C45_2 1_555 1_555
H41_2 C56_2 1_555 1_555
O13_2 C38_2 1_555 1_555
O24_2 C38_2 1_555 1_555
O19_2 Cu5_2 1_555 1_555
O21_2 Cu5_2 1_555 1_555
Cu9_2 O6_2 1_555 1_555
Cu11_2 O13_2 1_555 1_555
C11_2 C13_2 1_555 1_555
C17_2 C20_2 1_555 1_555
C20_2 C21_2 1_555 1_555
C25_3 C26_3 1_555 1_555
N2_3 C29_3 1_555 1_555
O9_2 Cu4_3 1_555 1_555
O10_2 Cu4_3 1_555 1_555
C44_2 C49_2 1_555 1_555
C45_2 C46_2 1_555 1_555
C53_2 C56_2 1_555 1_555
C31_3 C32_3 1_555 1_555
H23_3 C32_3 1_555 1_555
C34_3 C31_3 1_555 1_555
H25_3 C34_3 1_555 1_555
N4_3 C35_3 1_555 1_555
H26_3 C35_3 1_555 1_555
H27_3 C35_3 1_555 1_555
H28_3 C36_3 1_555 1_555
H29_3 C36_3 1_555 1_555
C37_3 C31_3 1_555 1_555
H30_3 C37_3 1_555 1_555
H31_3 C37_3 1_555 1_555
N4_3 C36_3 1_555 1_555
N4_3 C37_3 1_555 1_555
N3_3 C30_3 1_555 1_555
C30_3 H22_3 1_555 1_555
C33_3 N3_3 1_555 1_555
H24_3 C33_3 1_555 1_555
Cu9_2 N3_3 1_555 1_555
N3_4 C30_4 1_555 1_555
C30_4 H22_4 1_555 1_555
C33_4 N3_4 1_555 1_555
H24_4 C33_4 1_555 1_555
Cu11_2 N3_4 1_555 1_555
O4_5 Cu4_2 1_555 1_555
O18_4 Cu4_2 1_555 1_555
O25_4 Cu4_2 1_555 1_555
O4_5 H43_2 1_555 1_555
O4_5 H44_2 1_555 1_555
C31_4 C32_4 1_555 1_555
H23_4 C32_4 1_555 1_555
C34_4 C31_4 1_555 1_555
H25_4 C34_4 1_555 1_555
N4_4 C35_4 1_555 1_555
H26_4 C35_4 1_555 1_555
H27_4 C35_4 1_555 1_555
H28_4 C36_4 1_555 1_555
H29_4 C36_4 1_555 1_555
C37_4 C31_4 1_555 1_555
H30_4 C37_4 1_555 1_555
H31_4 C37_4 1_555 1_555
N4_4 C36_4 1_555 1_555
N4_4 C37_4 1_555 1_555
C22_4 N5_2 1_555 1_555
H12_4 C22_4 1_555 1_555
C23_4 C24_4 1_555 1_555
C24_4 C22_4 1_555 1_555
H13_4 C24_4 1_555 1_555
C25_4 N5_2 1_555 1_555
H14_4 C25_4 1_555 1_555
C26_4 C23_4 1_555 1_555
H15_4 C26_4 1_555 1_555
N2_4 C27_4 1_555 1_555
C27_4 H16_4 1_555 1_555
H17_4 C27_4 1_555 1_555
C28_4 N2_4 1_555 1_555
H18_4 C28_4 1_555 1_555
H19_4 C28_4 1_555 1_555
C29_4 C23_4 1_555 1_555
H20_4 C29_4 1_555 1_555
H21_4 C29_4 1_555 1_555
C25_4 C26_4 1_555 1_555
N2_4 C29_4 1_555 1_555
O4_6 Cu4_3 1_555 1_555
O11_3 C44_3 1_555 1_555
C38_3 C42_3 1_555 1_555
C42_3 C43_3 1_555 1_555
C43_3 H33_3 1_555 1_555
C45_3 O11_3 1_555 1_555
C46_3 C43_3 1_555 1_555
H34_3 C46_3 1_555 1_555
H37_3 C49_3 1_555 1_555
C53_3 C42_3 1_555 1_555
H39_3 C53_3 1_555 1_555
C56_3 C45_3 1_555 1_555
H41_3 C56_3 1_555 1_555
O20_2 C38_3 1_555 1_555
O16 C38_3 1_555 1_555
Cu11_2 O16 1_555 1_555
C44_3 C49_3 1_555 1_555
C45_3 C46_3 1_555 1_555
C53_3 C56_3 1_555 1_555
O12_3 C50_3 1_555 1_555
C39_3 C40_3 1_555 1_555
C40_3 H32_3 1_555 1_555
C41_3 C39_3 1_555 1_555
C47_3 H35_3 1_555 1_555
C48_3 H36_3 1_555 1_555
C50_3 C40_3 1_555 1_555
C51_3 C47_3 1_555 1_555
C52_3 C51_3 1_555 1_555
H38_3 C52_3 1_555 1_555
C54_3 C52_3 1_555 1_555
H40_3 C54_3 1_555 1_555
C55_3 C51_3 1_555 1_555
C57_3 O12_3 1_555 1_555
C58_3 C47_3 1_555 1_555
H42_3 C58_3 1_555 1_555
O22_2 C55_3 1_555 1_555
O15_3 C55_3 1_555 1_555
Cu11_2 O15_3 1_555 1_555
C41_3 O25_2 1_555 1_555
C48_3 C50_3 1_555 1_555
C54_3 C57_3 1_555 1_555
C57_3 C58_3 1_555 1_555
O3_3 C13_3 1_555 1_555
C2_3 C3_3 1_555 1_555
C3_3 H1_3 1_555 1_555
C4_3 C2_3 1_555 1_555
C10_3 H4_3 1_555 1_555
C11_3 H5_3 1_555 1_555
C13_3 C3_3 1_555 1_555
C14_3 C10_3 1_555 1_555
C15_3 C14_3 1_555 1_555
H7_3 C15_3 1_555 1_555
C17_3 C15_3 1_555 1_555
H9_3 C17_3 1_555 1_555
C18_3 C14_3 1_555 1_555
C20_3 O3_3 1_555 1_555
C21_3 C10_3 1_555 1_555
H11_3 C21_3 1_555 1_555
O21_2 C18_3 1_555 1_555
O7_3 C18_3 1_555 1_555
Cu9_2 O7_3 1_555 1_555
O25 C4_3 1_555 1_555
O23 Cu9_2 1_555 1_555
C11_3 C13_3 1_555 1_555
C17_3 C20_3 1_555 1_555
C20_3 C21_3 1_555 1_555
O2_3 C7_3 1_555 1_555
C1_3 C5_3 1_555 1_555
C5_3 C6_3 1_555 1_555
C6_3 H2_3 1_555 1_555
C8_3 O2_3 1_555 1_555
C9_3 C6_3 1_555 1_555
H3_3 C9_3 1_555 1_555
H6_3 C12_3 1_555 1_555
C16_3 C5_3 1_555 1_555
H8_3 C16_3 1_555 1_555
C19_3 C8_3 1_555 1_555
H10_3 C19_3 1_555 1_555
O19_2 C1_3 1_555 1_555
O23 C1_3 1_555 1_555
C7_3 C12_3 1_555 1_555
C8_3 C9_3 1_555 1_555
C16_3 C19_3 1_555 1_555
O3_4 C13_4 1_555 1_555
C2_4 C3_4 1_555 1_555
C3_4 H1_4 1_555 1_555
C4_4 C2_4 1_555 1_555
C10_4 H4_4 1_555 1_555
C11_4 H5_4 1_555 1_555
C13_4 C3_4 1_555 1_555
C14_4 C10_4 1_555 1_555
C15_4 C14_4 1_555 1_555
H7_4 C15_4 1_555 1_555
C17_4 C15_4 1_555 1_555
H9_4 C17_4 1_555 1_555
C18_4 C14_4 1_555 1_555
C20_4 O3_4 1_555 1_555
C21_4 C10_4 1_555 1_555
H11_4 C21_4 1_555 1_555
O21 C18_4 1_555 1_555
O7_4 C18_4 1_555 1_555
Cu9 O7_4 1_555 1_555
O25_3 C4_4 1_555 1_555
O11_4 C44_4 1_555 1_555
C38_4 C42_4 1_555 1_555
C42_4 C43_4 1_555 1_555
C43_4 H33_4 1_555 1_555
C45_4 O11_4 1_555 1_555
C46_4 C43_4 1_555 1_555
H34_4 C46_4 1_555 1_555
H37_4 C49_4 1_555 1_555
C53_4 C42_4 1_555 1_555
H39_4 C53_4 1_555 1_555
C56_4 C45_4 1_555 1_555
H41_4 C56_4 1_555 1_555
O20 C38_4 1_555 1_555
O16_2 C38_4 1_555 1_555
Cu11 O16_2 1_555 1_555
O23_2 Cu9 1_555 1_555
C11_4 C13_4 1_555 1_555
C17_4 C20_4 1_555 1_555
C20_4 C21_4 1_555 1_555
C44_4 C49_4 1_555 1_555
C45_4 C46_4 1_555 1_555
C53_4 C56_4 1_555 1_555
O2_4 C7_4 1_555 1_555
C1_4 C5_4 1_555 1_555
C5_4 C6_4 1_555 1_555
C6_4 H2_4 1_555 1_555
C8_4 O2_4 1_555 1_555
C9_4 C6_4 1_555 1_555
H3_4 C9_4 1_555 1_555
H6_4 C12_4 1_555 1_555
C16_4 C5_4 1_555 1_555
H8_4 C16_4 1_555 1_555
C19_4 C8_4 1_555 1_555
H10_4 C19_4 1_555 1_555
O19 C1_4 1_555 1_555
O23_2 C1_4 1_555 1_555
O12_4 C50_4 1_555 1_555
C39_4 C40_4 1_555 1_555
C40_4 H32_4 1_555 1_555
C41_4 C39_4 1_555 1_555
C47_4 H35_4 1_555 1_555
C48_4 H36_4 1_555 1_555
C50_4 C40_4 1_555 1_555
C51_4 C47_4 1_555 1_555
C52_4 C51_4 1_555 1_555
H38_4 C52_4 1_555 1_555
C54_4 C52_4 1_555 1_555
H40_4 C54_4 1_555 1_555
C55_4 C51_4 1_555 1_555
C57_4 O12_4 1_555 1_555
C58_4 C47_4 1_555 1_555
H42_4 C58_4 1_555 1_555
O22 C55_4 1_555 1_555
O15_4 C55_4 1_555 1_555
Cu11 O15_4 1_555 1_555
C7_4 C12_4 1_555 1_555
C8_4 C9_4 1_555 1_555
C16_4 C19_4 1_555 1_555
C41_4 O25_4 1_555 1_555
C48_4 C50_4 1_555 1_555
C54_4 C57_4 1_555 1_555
C57_4 C58_4 1_555 1_555
O4_6 H43_3 1_555 1_555
O4_6 H44_3 1_555 1_555
O4_4 H43_4 1_555 1_555
O4_4 H44_4 1_555 1_555

#END
