
###############################################################################
#
# This file contains modified crystal structure data generated from the
# MOF subset of the Cambridge Structural Database (CSD) v543 
# hosted by the Cambridge Crystallographic Data Centre (CCDC).
#
# This work is licensed under the Creative Commons
# Attribution-NonCommercial-ShareAlike 4.0 International License.
# To view a copy of this license, visit
# http://creativecommons.org/licenses/by-nc-sa/4.0/
# or send a letter to
# Creative Commons, PO Box 1866, Mountain View, CA 94042, USA.
#
# CIF created using the CSD Python API on 29 September 2022
# The structure has been converted into the P1 space group
# The structure has a 3D framework
# The original CSD entry BALJOQ is in the monoclinic crystal system
# The framework has been calculated to contain at least 10.0% void space
# The void calculation uses a probe of radius 1.32A, grid spacing 0.4
# The framework is charged, counterions have been retained in the structure
#
###############################################################################

data_BALJOQ
_chemical_formula_moiety         '(C136 H112 N16 O62 Tb11 2+)n'
_symmetry_cell_setting           triclinic
_symmetry_space_group_name_H-M   'P 1'
_symmetry_Int_Tables_number      1
_space_group_name_Hall           'P 1'
loop_
_symmetry_equiv_pos_site_id
_symmetry_equiv_pos_as_xyz
1 x,y,z
_cell_length_a                   14.793(2)
_cell_length_b                   13.645(2)
_cell_length_c                   24.9689(19)
_cell_angle_alpha                90
_cell_angle_beta                 90.374(3)
_cell_angle_gamma                90
_cell_volume                     5039.88
loop_
_atom_site_label
_atom_site_type_symbol
_atom_site_fract_x
_atom_site_fract_y
_atom_site_fract_z
O11 O 0.2531(3) 0.3712(3) 0.00449(18)
O12 O 0.3929(4) 0.4113(4) 0.0133(2)
Tb2 Tb 0.0000 0.0000 0.0000
O34 O 0.0577(3) 0.5070(3) 0.05226(17)
O36 O 0.0034(3) 0.1263(3) 0.06420(17)
O38 O 0.0809(3) 0.2589(3) 0.07036(17)
C16 C 0.1212(5) 0.1788(5) 0.8612(3)
C17 C 0.1595(5) 0.2662(6) 0.8472(3)
H7 H 0.1532 0.3213 0.8688
C18 C 0.2081(5) 0.2705(5) 0.7997(3)
H8 H 0.2374 0.3285 0.7908
C19 C 0.2143(4) 0.1913(5) 0.7653(3)
C20 C 0.1721(5) 0.1046(5) 0.7806(3)
C21 C 0.1254(5) 0.0967(5) 0.8295(2)
H9 H 0.0985 0.0382 0.8399
C22 C 0.3295(5) 0.1084(5) 0.6186(3)
C23 C 0.3397(4) 0.2089(5) 0.6337(3)
H10 H 0.3701 0.2521 0.6113
C24 C 0.3037(5) 0.2425(5) 0.6824(3)
H11 H 0.3124 0.3073 0.6927
C25 C 0.2547(5) 0.1787(5) 0.7154(3)
C26 C 0.2439(5) 0.0822(5) 0.7000(3)
C27 C 0.2813(5) 0.0471(5) 0.6519(2)
C28 C 0.0754(5) 0.1655(5) 0.9140(3)
C29 C 0.3852(4) 0.0781(5) 0.5716(3)
C30 C 0.1932(5) 0.0339(5) 0.7385(3)
N1 N 0.3354(5) 0.3575(5) 0.9944(3)
O6 O 0.0954(3) 0.2200(4) 0.95236(18)
O7 O 0.0168(4) 0.1009(4) 0.9231(2)
O8 O 0.4177(3) 0.1368(3) 0.54230(19)
O13 O 0.3579(4) 0.2848(4) 0.9679(2)
Tb1 Tb 0.06459(2) 0.36797(2) 0.998872(13)
Tb2_2 Tb -0.0000 0.0000 1.0000
O32 O 0.1811(3) 0.0637(4) 0.99006(17)
O41 O 0.1080(3) 0.4894(3) 0.94047(17)
Tb11 Tb 0.56459(2) 0.13203(2) 0.498872(13)
Tb2_3 Tb 0.0000 1.0000 0.0000
C31 C 0.1421(5) 0.5722(5) 0.1300(3)
C32 C 0.1988(5) 0.4894(5) 0.1363(2)
H13 H 0.1991 0.4401 0.1106
C33 C 0.2540(5) 0.4830(5) 0.1815(3)
H14 H 0.2894 0.4277 0.1875
C34 C 0.2554(4) 0.5621(5) 0.2182(3)
C35 C 0.2008(5) 0.6410(4) 0.2116(3)
C36 C 0.1411(5) 0.6464(5) 0.1660(3)
H15 H 0.1026 0.6996 0.1614
C37 C 0.3878(4) 0.6415(5) 0.3625(2)
C38 C 0.4109(5) 0.5478(5) 0.3432(2)
H16 H 0.4532 0.5091 0.3609
C39 C 0.3681(5) 0.5150(5) 0.2964(3)
H17 H 0.3852 0.4555 0.2813
C40 C 0.2999(5) 0.5708(5) 0.2720(3)
C41 C 0.2791(4) 0.6606(5) 0.2915(3)
C42 C 0.3210(4) 0.6955(5) 0.3387(2)
H18 H 0.3033 0.7550 0.3535
C43 C 0.2168(4) 0.7101(5) 0.2539(3)
C44 C 0.0755(5) 0.5784(5) 0.0836(3)
C45 C 0.4368(5) 0.6781(5) 0.4114(2)
O17 O 0.0357(3) 0.6608(3) 0.07606(17)
O19 O 0.4966(3) 0.6263(3) 0.43580(17)
O20 O 0.4191(3) 0.7589(3) 0.42964(17)
O21 O 0.1737(3) 0.7899(3) 0.26017(17)
Tb7 Tb 0.43541(2) 0.86797(2) 0.501128(13)
Tb13 Tb 0.5000 0.5000 0.5000
H12 H 0.2734 0.9817 0.6424
O9 O 0.3920(3) 0.9894(3) 0.55953(17)
O10 O 0.1630(3) 0.9487(4) 0.73878(18)
Tb2_4 Tb -0.0000 1.0000 1.0000
N4 N 0.2086(4) 0.9995(5) 0.9599(2)
O30 O 0.1567(3) 0.9357(4) 0.94201(18)
O31 O 0.2907(3) 0.9919(3) 0.9516(2)
O39 O 0.0823(3) 0.6368(3) 0.95770(19)
N2 N 0.7914(4) 0.0005(5) 0.0401(2)
O14 O 0.8433(3) 0.0643(4) 0.05799(18)
O15 O 0.7093(3) 0.0081(3) 0.0484(2)
Tb2_5 Tb 1.0000 0.0000 0.0000
H24 H 0.7266 0.0183 0.3576
O25 O 0.6080(3) 0.0106(3) 0.44047(17)
O26 O 0.8370(3) 0.0513(4) 0.26122(18)
O40 O 0.9177(3) 0.3632(3) 0.04230(19)
Tb8 Tb 0.93541(2) 0.63203(2) 0.001128(13)
C1 C 0.8579(5) 0.4278(5) 0.8700(3)
C2 C 0.8012(5) 0.5106(5) 0.8637(2)
H1 H 0.8009 0.5599 0.8894
C3 C 0.7460(5) 0.5170(5) 0.8185(3)
H2 H 0.7106 0.5723 0.8125
C4 C 0.7446(4) 0.4379(5) 0.7818(3)
C5 C 0.7992(5) 0.3590(4) 0.7884(3)
C6 C 0.8589(5) 0.3536(5) 0.8340(3)
H3 H 0.8974 0.3004 0.8386
C7 C 0.6122(4) 0.3585(5) 0.6375(2)
C8 C 0.5891(5) 0.4522(5) 0.6568(2)
H4 H 0.5468 0.4909 0.6391
C9 C 0.6319(5) 0.4850(5) 0.7036(3)
H5 H 0.6148 0.5445 0.7187
C10 C 0.7001(5) 0.4292(5) 0.7280(3)
C11 C 0.7209(4) 0.3394(5) 0.7085(3)
C12 C 0.6790(4) 0.3045(5) 0.6613(2)
H6 H 0.6967 0.2450 0.6465
C13 C 0.7832(4) 0.2899(5) 0.7461(3)
C14 C 0.9245(5) 0.4216(5) 0.9164(3)
C15 C 0.5632(5) 0.3219(5) 0.5886(2)
O1 O 0.9643(3) 0.3392(3) 0.92394(17)
O2 O 0.9423(3) 0.4930(3) 0.94774(17)
O3 O 0.5034(3) 0.3737(3) 0.56420(17)
O4 O 0.5809(3) 0.2411(3) 0.57036(17)
O5 O 0.8263(3) 0.2101(3) 0.73983(17)
Tb2_6 Tb 1.0000 0.0000 1.0000
O16 O 0.8189(3) 0.9363(4) 0.00994(17)
Tb2_7 Tb 1.0000 1.0000 0.0000
C46 C 0.8788(5) 0.8212(5) 0.1388(3)
C47 C 0.8405(5) 0.7338(6) 0.1528(3)
H19 H 0.8468 0.6787 0.1312
C48 C 0.7919(5) 0.7295(5) 0.2003(3)
H20 H 0.7626 0.6715 0.2092
C49 C 0.7857(4) 0.8087(5) 0.2347(3)
C50 C 0.8279(5) 0.8954(5) 0.2194(3)
C51 C 0.8746(5) 0.9033(5) 0.1705(2)
H21 H 0.9015 0.9618 0.1601
C52 C 0.6705(5) 0.8916(5) 0.3814(3)
C53 C 0.6603(4) 0.7911(5) 0.3663(3)
H22 H 0.6299 0.7479 0.3887
C54 C 0.6963(5) 0.7575(5) 0.3176(3)
H23 H 0.6876 0.6927 0.3073
C55 C 0.7453(5) 0.8213(5) 0.2846(3)
C56 C 0.7561(5) 0.9178(5) 0.3000(3)
C57 C 0.7187(5) 0.9529(5) 0.3481(2)
C58 C 0.9246(5) 0.8345(5) 0.0860(3)
C59 C 0.6148(4) 0.9219(5) 0.4284(3)
C60 C 0.8068(5) 0.9661(5) 0.2615(3)
N3 N 0.6646(5) 0.6425(5) 0.0056(3)
O22 O 0.9046(3) 0.7800(4) 0.04764(18)
O23 O 0.9832(4) 0.8991(4) 0.0769(2)
O24 O 0.5823(3) 0.8632(3) 0.45770(19)
O29 O 0.6421(4) 0.7152(4) 0.0321(2)
O42 O 0.8920(3) 0.5106(3) 0.05953(17)
Tb2_8 Tb 1.0000 1.0000 1.0000
O27 O 0.7469(3) 0.6288(3) 0.99551(18)
O28 O 0.6071(4) 0.5887(4) 0.9867(2)
O35 O 0.9966(3) 0.8737(3) 0.93580(17)
O37 O 0.9191(3) 0.7411(3) 0.92964(17)
C2_2 C 0.6988(5) 0.0106(5) 0.6363(2)
H1_2 H 0.6991 0.0599 0.6106
C3_2 C 0.7540(5) 0.0170(5) 0.6815(3)
H2_2 H 0.7894 0.0723 0.6875
H5_2 H 0.8852 0.0445 0.7813
O34_2 O 0.4423(3) 0.0070(3) 0.44774(17)
C1_2 C 0.6421(5) 0.9278(5) 0.6300(3)
C4_2 C 0.7554(4) 0.9379(5) 0.7182(3)
C5_2 C 0.7008(5) 0.8590(4) 0.7116(3)
C6_2 C 0.6411(5) 0.8536(5) 0.6660(3)
H3_2 H 0.6026 0.8004 0.6614
C7_2 C 0.8878(4) 0.8585(5) 0.8625(2)
C8_2 C 0.9109(5) 0.9522(5) 0.8432(2)
H4_2 H 0.9532 0.9909 0.8609
C9_2 C 0.8681(5) 0.9850(5) 0.7964(3)
C10_2 C 0.7999(5) 0.9292(5) 0.7720(3)
C11_2 C 0.7791(4) 0.8394(5) 0.7915(3)
C12_2 C 0.8210(4) 0.8045(5) 0.8387(2)
H6_2 H 0.8033 0.7450 0.8535
C13_2 C 0.7168(4) 0.7899(5) 0.7539(3)
C14_2 C 0.5755(5) 0.9216(5) 0.5836(3)
C15_2 C 0.9368(5) 0.8219(5) 0.9114(2)
C16_2 C 0.3788(5) 0.6788(5) 0.6388(3)
C17_2 C 0.3405(5) 0.7662(6) 0.6528(3)
H7_2 H 0.3468 0.8213 0.6312
C18_2 C 0.2919(5) 0.7705(5) 0.7003(3)
H8_2 H 0.2626 0.8285 0.7092
C19_2 C 0.2857(4) 0.6913(5) 0.7347(3)
C20_2 C 0.3279(5) 0.6046(5) 0.7194(3)
C21_2 C 0.3746(5) 0.5967(5) 0.6705(2)
H9_2 H 0.4015 0.5382 0.6601
C22_2 C 0.1705(5) 0.6084(5) 0.8814(3)
C23_2 C 0.1603(4) 0.7089(5) 0.8663(3)
H10_2 H 0.1299 0.7521 0.8887
C24_2 C 0.1963(5) 0.7425(5) 0.8176(3)
H11_2 H 0.1876 0.8073 0.8073
C25_2 C 0.2453(5) 0.6787(5) 0.7846(3)
C26_2 C 0.2561(5) 0.5822(5) 0.8000(3)
C27_2 C 0.2187(5) 0.5471(5) 0.8481(2)
H12_2 H 0.2266 0.4817 0.8576
C28_2 C 0.4246(5) 0.6655(5) 0.5860(3)
C29_2 C 0.1148(4) 0.5781(5) 0.9284(3)
C30_2 C 0.3068(5) 0.5339(5) 0.7615(3)
N1_2 N 0.1646(5) 0.8575(5) 0.5056(3)
N2_2 N 0.7086(4) 0.5005(5) 0.4599(2)
O1_2 O 0.5357(3) 0.8392(3) 0.57606(17)
O2_2 O 0.5577(3) 0.9930(3) 0.55226(17)
O5_2 O 0.6737(3) 0.7101(3) 0.76017(17)
O6_2 O 0.4046(3) 0.7200(4) 0.54764(18)
O7_2 O 0.4832(4) 0.6009(4) 0.5769(2)
O10_2 O 0.3370(3) 0.4487(4) 0.76122(18)
O11_2 O 0.2469(3) 0.8712(3) 0.49551(18)
O12_2 O 0.1071(4) 0.9113(4) 0.4867(2)
O13_2 O 0.1421(4) 0.7848(4) 0.5321(2)
O14_2 O 0.6567(3) 0.5643(4) 0.44201(18)
O15_2 O 0.7907(3) 0.5081(3) 0.4516(2)
O16_2 O 0.6811(3) 0.4363(4) 0.49006(17)
C31_2 C 0.3579(5) 0.0722(5) 0.3700(3)
C34_2 C 0.2446(4) 0.0621(5) 0.2818(3)
C35_2 C 0.2992(5) 0.1410(4) 0.2884(3)
C36_2 C 0.3589(5) 0.1464(5) 0.3340(3)
H15_2 H 0.3974 0.1996 0.3386
C37_2 C 0.1122(4) 0.1415(5) 0.1375(2)
C38_2 C 0.0891(5) 0.0478(5) 0.1568(2)
H16_2 H 0.0468 0.0091 0.1391
C39_2 C 0.1319(5) 0.0150(5) 0.2036(3)
C40_2 C 0.2001(5) 0.0708(5) 0.2280(3)
C41_2 C 0.2209(4) 0.1606(5) 0.2085(3)
C42_2 C 0.1790(4) 0.1955(5) 0.1613(2)
H18_2 H 0.1967 0.2550 0.1465
C43_2 C 0.2832(4) 0.2101(5) 0.2461(3)
C44_2 C 0.4245(5) 0.0784(5) 0.4164(3)
C45_2 C 0.0632(5) 0.1781(5) 0.0886(2)
C46_2 C 0.6212(5) 0.3212(5) 0.3612(3)
C47_2 C 0.6595(5) 0.2338(6) 0.3472(3)
H19_2 H 0.6532 0.1787 0.3688
C48_2 C 0.7081(5) 0.2295(5) 0.2997(3)
H20_2 H 0.7374 0.1715 0.2908
C49_2 C 0.7143(4) 0.3087(5) 0.2653(3)
C50_2 C 0.6721(5) 0.3954(5) 0.2806(3)
C51_2 C 0.6254(5) 0.4033(5) 0.3295(2)
H21_2 H 0.5985 0.4618 0.3399
C52_2 C 0.8295(5) 0.3916(5) 0.1186(3)
C53_2 C 0.8397(4) 0.2911(5) 0.1337(3)
H22_2 H 0.8701 0.2479 0.1113
C54_2 C 0.8037(5) 0.2575(5) 0.1824(3)
H23_2 H 0.8124 0.1927 0.1927
C55_2 C 0.7547(5) 0.3213(5) 0.2154(3)
C56_2 C 0.7439(5) 0.4178(5) 0.2000(3)
C57_2 C 0.7813(5) 0.4529(5) 0.1519(2)
H24_2 H 0.7734 0.5183 0.1424
C58_2 C 0.5754(5) 0.3345(5) 0.4140(3)
C59_2 C 0.8852(4) 0.4219(5) 0.0716(3)
C60_2 C 0.6932(5) 0.4661(5) 0.2385(3)
N3_2 N 0.8354(5) 0.1425(5) 0.4944(3)
N4_2 N 0.2914(4) 0.4995(5) 0.5401(2)
O17_2 O 0.4643(3) 0.1608(3) 0.42394(17)
O21_2 O 0.3263(3) 0.2899(3) 0.23983(17)
O22_2 O 0.5954(3) 0.2800(4) 0.45236(18)
O23_2 O 0.5168(4) 0.3991(4) 0.4231(2)
O26_2 O 0.6630(3) 0.5513(4) 0.23878(18)
O27_2 O 0.7531(3) 0.1288(3) 0.50449(18)
O28_2 O 0.8929(4) 0.0887(4) 0.5133(2)
O29_2 O 0.8579(4) 0.2152(4) 0.4679(2)
O30_2 O 0.3433(3) 0.4357(4) 0.55799(18)
O31_2 O 0.2093(3) 0.4919(3) 0.5484(2)
O32_2 O 0.3189(3) 0.5637(4) 0.50994(17)
C32_2 C 0.3012(5) 0.9894(5) 0.3637(2)
H13_2 H 0.3009 0.9401 0.3894
C33_2 C 0.2460(5) 0.9830(5) 0.3185(3)
H14_2 H 0.2106 0.9277 0.3125
H17_2 H 0.1148 0.9555 0.2187
H25 H 0.0335 0.7690 0.3766
H32 H 0.0323 0.8569 0.4448
C61 C 0.9843(6) 0.8148(6) 0.3758(3)
H26 H 0.9941 0.8621 0.3480
H27 H 0.9288 0.7804 0.3690
C62 C 0.9067(5) 0.8415(6) 0.4683(3)
H28 H 0.8602 0.8034 0.4512
H29 H 0.8812 0.9010 0.4819
H30 H 0.9328 0.8045 0.4972
N5 N 0.9788(5) 0.8657(5) 0.4282(3)
H31 H 0.9741 0.9302 0.4212
C61_2 C 0.5157(6) 0.3148(6) 0.1242(3)
H25_2 H 0.4665 0.2690 0.1234
H26_2 H 0.5059 0.3621 0.1520
H27_2 H 0.5712 0.2804 0.1310
C62_2 C 0.5933(5) 0.3415(6) 0.0317(3)
H28_2 H 0.6398 0.3034 0.0488
H29_2 H 0.6188 0.4010 0.0181
H30_2 H 0.5672 0.3045 0.0028
N5_2 N 0.5212(5) 0.3657(5) 0.0718(3)
H31_2 H 0.5259 0.4302 0.0788
H32_2 H 0.4677 0.3569 0.0552
C61_3 C 0.0157(6) 0.1852(6) 0.6242(3)
H26_3 H 0.0059 0.1379 0.6520
H27_3 H 0.0712 0.2196 0.6310
C62_3 C 0.0933(5) 0.1585(6) 0.5317(3)
H28_3 H 0.1398 0.1966 0.5488
H29_3 H 0.1188 0.0990 0.5181
H30_3 H 0.0672 0.1955 0.5028
N5_3 N 0.0212(5) 0.1343(5) 0.5718(3)
H31_3 H 0.0259 0.0698 0.5788
H25_3 H 0.9665 0.2310 0.6234
H32_3 H 0.9677 0.1431 0.5552
C61_4 C 0.4843(6) 0.6852(6) 0.8758(3)
H25_4 H 0.5335 0.7310 0.8766
H26_4 H 0.4941 0.6379 0.8480
H27_4 H 0.4288 0.7196 0.8690
C62_4 C 0.4067(5) 0.6585(6) 0.9683(3)
H28_4 H 0.3602 0.6966 0.9512
H29_4 H 0.3812 0.5990 0.9819
H30_4 H 0.4328 0.6955 0.9972
N5_4 N 0.4788(5) 0.6343(5) 0.9282(3)
H31_4 H 0.4741 0.5698 0.9212
H32_4 H 0.5323 0.6431 0.9448
C63 C 0.5814(11) 0.1681(13) 0.7900(7)
H33 H 0.5510 0.1662 0.8238
H34 H 0.5544 0.2174 0.7676
H35 H 0.6441 0.1833 0.7956
H38 H 0.5687 0.0250 0.8401
N6 N 0.5732(8) 0.0697(8) 0.7630(5)
H39 H 0.5212 0.0663 0.7441
H40 H 0.6196 0.0604 0.7404
C64 C 0.5744(11) 0.9939(10) 0.8058(6)
H36 H 0.6304 0.9584 0.8045
H37 H 0.5249 0.9494 0.8004
C63_2 C 0.9186(11) 0.6681(13) 0.7100(7)
H33_2 H 0.9490 0.6662 0.6762
H34_2 H 0.9456 0.7174 0.7324
H35_2 H 0.8559 0.6833 0.7044
C64_2 C 0.9256(11) 0.4939(10) 0.6942(6)
H36_2 H 0.8696 0.4584 0.6955
H37_2 H 0.9751 0.4494 0.6996
H38_2 H 0.9313 0.5250 0.6599
N6_2 N 0.9268(8) 0.5697(8) 0.7370(5)
H39_2 H 0.9788 0.5663 0.7559
H40_2 H 0.8804 0.5604 0.7596
C64_3 C 0.4256(11) 0.0061(10) 0.1942(6)
H36_3 H 0.3696 0.0416 0.1955
H37_3 H 0.4751 0.0506 0.1996
C63_3 C 0.4186(11) 0.8319(13) 0.2100(7)
H33_3 H 0.4490 0.8338 0.1762
H34_3 H 0.4456 0.7826 0.2324
H35_3 H 0.3559 0.8167 0.2044
H38_3 H 0.4313 0.9750 0.1599
N6_3 N 0.4268(8) 0.9303(8) 0.2370(5)
H39_3 H 0.4788 0.9337 0.2559
H40_3 H 0.3804 0.9396 0.2596
C63_4 C 0.0814(11) 0.3319(13) 0.2900(7)
H33_4 H 0.0510 0.3338 0.3238
H34_4 H 0.0544 0.2826 0.2676
H35_4 H 0.1441 0.3167 0.2956
C64_4 C 0.0744(11) 0.5061(10) 0.3058(6)
H36_4 H 0.1304 0.5416 0.3045
H37_4 H 0.0249 0.5506 0.3004
H38_4 H 0.0687 0.4750 0.3401
N6_4 N 0.0732(8) 0.4303(8) 0.2630(5)
H39_4 H 0.0212 0.4337 0.2441
H40_4 H 0.1196 0.4396 0.2404
loop_
_geom_bond_atom_site_label_1
_geom_bond_atom_site_label_2
_geom_bond_site_symmetry_1
_geom_bond_site_symmetry_2
O36 Tb2 1_555 1_555
C16 C17 1_555 1_555
C17 H7 1_555 1_555
C18 C17 1_555 1_555
H8 C18 1_555 1_555
C19 C18 1_555 1_555
C20 C19 1_555 1_555
C21 C16 1_555 1_555
H9 C21 1_555 1_555
C22 C23 1_555 1_555
C23 H10 1_555 1_555
C24 C23 1_555 1_555
H11 C24 1_555 1_555
C25 C19 1_555 1_555
C26 C25 1_555 1_555
C27 C22 1_555 1_555
C28 C16 1_555 1_555
C29 C22 1_555 1_555
C30 C20 1_555 1_555
O6 C28 1_555 1_555
O7 C28 1_555 1_555
O8 C29 1_555 1_555
O13 N1 1_555 1_555
Tb2_2 O7 1_555 1_555
O32 Tb2_2 1_555 1_555
O41 Tb1 1_555 1_555
Tb11 O8 1_555 1_555
C20 C21 1_555 1_555
C24 C25 1_555 1_555
C26 C27 1_555 1_555
C26 C30 1_555 1_555
O6 Tb1 1_555 1_555
C31 C32 1_555 1_555
C32 H13 1_555 1_555
C33 C32 1_555 1_555
H14 C33 1_555 1_555
C34 C33 1_555 1_555
C35 C34 1_555 1_555
C36 C31 1_555 1_555
H15 C36 1_555 1_555
C37 C38 1_555 1_555
C38 H16 1_555 1_555
C39 C38 1_555 1_555
H17 C39 1_555 1_555
C40 C34 1_555 1_555
C41 C40 1_555 1_555
C42 C37 1_555 1_555
H18 C42 1_555 1_555
C43 C35 1_555 1_555
C44 C31 1_555 1_555
C45 C37 1_555 1_555
O17 C44 1_555 1_555
O34 C44 1_555 1_555
O19 C45 1_555 1_555
O20 C45 1_555 1_555
O21 C43 1_555 1_555
Tb7 O20 1_555 1_555
Tb13 O19 1_555 1_555
C35 C36 1_555 1_555
C39 C40 1_555 1_555
C41 C42 1_555 1_555
C41 C43 1_555 1_555
N4 O30 1_555 1_555
O30 Tb2_4 1_555 1_555
O31 N4 1_555 1_555
Tb7 O9 1_555 1_555
N2 O14 1_555 1_555
O14 Tb2_5 1_555 1_555
O15 N2 1_555 1_555
Tb11 O25 1_555 1_555
C1 C2 1_555 1_555
C2 H1 1_555 1_555
C3 C2 1_555 1_555
H2 C3 1_555 1_555
C4 C3 1_555 1_555
C5 C4 1_555 1_555
C6 C1 1_555 1_555
H3 C6 1_555 1_555
C7 C8 1_555 1_555
C8 H4 1_555 1_555
C9 C8 1_555 1_555
H5 C9 1_555 1_555
C10 C4 1_555 1_555
C11 C10 1_555 1_555
C12 C7 1_555 1_555
H6 C12 1_555 1_555
C13 C5 1_555 1_555
C14 C1 1_555 1_555
C15 C7 1_555 1_555
O1 C14 1_555 1_555
O2 C14 1_555 1_555
O3 C15 1_555 1_555
O4 C15 1_555 1_555
O5 C13 1_555 1_555
Tb11 O4 1_555 1_555
Tb13 O3 1_555 1_555
C5 C6 1_555 1_555
C9 C10 1_555 1_555
C11 C12 1_555 1_555
C11 C13 1_555 1_555
C46 C47 1_555 1_555
C47 H19 1_555 1_555
C48 C47 1_555 1_555
H20 C48 1_555 1_555
C49 C48 1_555 1_555
C50 C49 1_555 1_555
C51 C46 1_555 1_555
H21 C51 1_555 1_555
C52 C53 1_555 1_555
C53 H22 1_555 1_555
C54 C53 1_555 1_555
H23 C54 1_555 1_555
C55 C49 1_555 1_555
C56 C55 1_555 1_555
C57 C52 1_555 1_555
C58 C46 1_555 1_555
C59 C52 1_555 1_555
C60 C50 1_555 1_555
O22 C58 1_555 1_555
O23 Tb2_7 1_555 1_555
O24 C59 1_555 1_555
O29 N3 1_555 1_555
O42 Tb8 1_555 1_555
Tb7 O24 1_555 1_555
O16 Tb2_7 1_555 1_555
C50 C51 1_555 1_555
C54 C55 1_555 1_555
C56 C57 1_555 1_555
C56 C60 1_555 1_555
C58 O23 1_555 1_555
O22 Tb8 1_555 1_555
O35 Tb2_8 1_555 1_555
C2_2 H1_2 1_555 1_555
C3_2 C2_2 1_555 1_555
H2_2 C3_2 1_555 1_555
O34_2 Tb11 1_555 1_555
C5_2 C4_2 1_555 1_555
C6_2 C1_2 1_555 1_555
H3_2 C6_2 1_555 1_555
C7_2 C8_2 1_555 1_555
C8_2 H4_2 1_555 1_555
C9_2 C8_2 1_555 1_555
C10_2 C4_2 1_555 1_555
C11_2 C10_2 1_555 1_555
C12_2 C7_2 1_555 1_555
H6_2 C12_2 1_555 1_555
C13_2 C5_2 1_555 1_555
C14_2 C1_2 1_555 1_555
C15_2 C7_2 1_555 1_555
C16_2 C17_2 1_555 1_555
C17_2 H7_2 1_555 1_555
C18_2 C17_2 1_555 1_555
H8_2 C18_2 1_555 1_555
C19_2 C18_2 1_555 1_555
C20_2 C19_2 1_555 1_555
C21_2 C16_2 1_555 1_555
H9_2 C21_2 1_555 1_555
C22_2 C23_2 1_555 1_555
C23_2 H10_2 1_555 1_555
C24_2 C23_2 1_555 1_555
H11_2 C24_2 1_555 1_555
C25_2 C19_2 1_555 1_555
C26_2 C25_2 1_555 1_555
C27_2 C22_2 1_555 1_555
H12_2 C27_2 1_555 1_555
C28_2 C16_2 1_555 1_555
C29_2 C22_2 1_555 1_555
C30_2 C20_2 1_555 1_555
N1_2 O11_2 1_555 1_555
N2_2 O14_2 1_555 1_555
O1_2 C14_2 1_555 1_555
O2_2 C14_2 1_555 1_555
O35 C15_2 1_555 1_555
O37 C15_2 1_555 1_555
O5_2 C13_2 1_555 1_555
O6_2 C28_2 1_555 1_555
O7_2 C28_2 1_555 1_555
O39 C29_2 1_555 1_555
O41 C29_2 1_555 1_555
O10_2 C30_2 1_555 1_555
O11_2 Tb7 1_555 1_555
O12_2 N1_2 1_555 1_555
O13_2 N1_2 1_555 1_555
O14_2 Tb13 1_555 1_555
O15_2 N2_2 1_555 1_555
O16_2 N2_2 1_555 1_555
Tb7 O1_2 1_555 1_555
Tb13 O7_2 1_555 1_555
C35_2 C34_2 1_555 1_555
C36_2 C31_2 1_555 1_555
H15_2 C36_2 1_555 1_555
C37_2 C38_2 1_555 1_555
C38_2 H16_2 1_555 1_555
C39_2 C38_2 1_555 1_555
C40_2 C34_2 1_555 1_555
C41_2 C40_2 1_555 1_555
C42_2 C37_2 1_555 1_555
H18_2 C42_2 1_555 1_555
C43_2 C35_2 1_555 1_555
C44_2 C31_2 1_555 1_555
C45_2 C37_2 1_555 1_555
C46_2 C47_2 1_555 1_555
C47_2 H19_2 1_555 1_555
C48_2 C47_2 1_555 1_555
H20_2 C48_2 1_555 1_555
C49_2 C48_2 1_555 1_555
C50_2 C49_2 1_555 1_555
C51_2 C46_2 1_555 1_555
H21_2 C51_2 1_555 1_555
C52_2 C53_2 1_555 1_555
C53_2 H22_2 1_555 1_555
C54_2 C53_2 1_555 1_555
H23_2 C54_2 1_555 1_555
C55_2 C49_2 1_555 1_555
C56_2 C55_2 1_555 1_555
C57_2 C52_2 1_555 1_555
H24_2 C57_2 1_555 1_555
C58_2 C46_2 1_555 1_555
C59_2 C52_2 1_555 1_555
C60_2 C50_2 1_555 1_555
N3_2 O27_2 1_555 1_555
N4_2 O30_2 1_555 1_555
O17_2 C44_2 1_555 1_555
O34_2 C44_2 1_555 1_555
O36 C45_2 1_555 1_555
O38 C45_2 1_555 1_555
O21_2 C43_2 1_555 1_555
O22_2 C58_2 1_555 1_555
O23_2 Tb13 1_555 1_555
O40 C59_2 1_555 1_555
O42 C59_2 1_555 1_555
O26_2 C60_2 1_555 1_555
O27_2 Tb11 1_555 1_555
O28_2 N3_2 1_555 1_555
O29_2 N3_2 1_555 1_555
O30_2 Tb13 1_555 1_555
O31_2 N4_2 1_555 1_555
O32_2 Tb13 1_555 1_555
Tb11 O17_2 1_555 1_555
C5_2 C6_2 1_555 1_555
C9_2 C10_2 1_555 1_555
C11_2 C12_2 1_555 1_555
C11_2 C13_2 1_555 1_555
C20_2 C21_2 1_555 1_555
C24_2 C25_2 1_555 1_555
C26_2 C27_2 1_555 1_555
C26_2 C30_2 1_555 1_555
O2_2 Tb7 1_555 1_555
O6_2 Tb7 1_555 1_555
O16_2 Tb13 1_555 1_555
C35_2 C36_2 1_555 1_555
C39_2 C40_2 1_555 1_555
C41_2 C42_2 1_555 1_555
C41_2 C43_2 1_555 1_555
C50_2 C51_2 1_555 1_555
C54_2 C55_2 1_555 1_555
C56_2 C57_2 1_555 1_555
C56_2 C60_2 1_555 1_555
C58_2 O23_2 1_555 1_555
N4_2 O32_2 1_555 1_555
O22_2 Tb11 1_555 1_555
C32_2 H13_2 1_555 1_555
C33_2 C32_2 1_555 1_555
H14_2 C33_2 1_555 1_555
H26 C61 1_555 1_555
H27 C61 1_555 1_555
C62 H28 1_555 1_555
H29 C62 1_555 1_555
H30 C62 1_555 1_555
N5 C61 1_555 1_555
H31 N5 1_555 1_555
C62 N5 1_555 1_555
C61_2 H25_2 1_555 1_555
H26_2 C61_2 1_555 1_555
H27_2 C61_2 1_555 1_555
C62_2 H28_2 1_555 1_555
H29_2 C62_2 1_555 1_555
H30_2 C62_2 1_555 1_555
N5_2 C61_2 1_555 1_555
H31_2 N5_2 1_555 1_555
H32_2 N5_2 1_555 1_555
C62_2 N5_2 1_555 1_555
H26_3 C61_3 1_555 1_555
H27_3 C61_3 1_555 1_555
C62_3 H28_3 1_555 1_555
H29_3 C62_3 1_555 1_555
H30_3 C62_3 1_555 1_555
N5_3 C61_3 1_555 1_555
H31_3 N5_3 1_555 1_555
C62_3 N5_3 1_555 1_555
C61_4 H25_4 1_555 1_555
H26_4 C61_4 1_555 1_555
H27_4 C61_4 1_555 1_555
C62_4 H28_4 1_555 1_555
H29_4 C62_4 1_555 1_555
H30_4 C62_4 1_555 1_555
N5_4 C61_4 1_555 1_555
H31_4 N5_4 1_555 1_555
H32_4 N5_4 1_555 1_555
C62_4 N5_4 1_555 1_555
C63 H33 1_555 1_555
H34 C63 1_555 1_555
H35 C63 1_555 1_555
N6 C63 1_555 1_555
H39 N6 1_555 1_555
H40 N6 1_555 1_555
C64 H36 1_555 1_555
H37 C64 1_555 1_555
C63_2 H33_2 1_555 1_555
H34_2 C63_2 1_555 1_555
H35_2 C63_2 1_555 1_555
C64_2 H36_2 1_555 1_555
H37_2 C64_2 1_555 1_555
H38_2 C64_2 1_555 1_555
N6_2 C63_2 1_555 1_555
H39_2 N6_2 1_555 1_555
H40_2 N6_2 1_555 1_555
C64_2 N6_2 1_555 1_555
C64_3 H36_3 1_555 1_555
H37_3 C64_3 1_555 1_555
C63_3 H33_3 1_555 1_555
H34_3 C63_3 1_555 1_555
H35_3 C63_3 1_555 1_555
N6_3 C63_3 1_555 1_555
H39_3 N6_3 1_555 1_555
H40_3 N6_3 1_555 1_555
C63_4 H33_4 1_555 1_555
H34_4 C63_4 1_555 1_555
H35_4 C63_4 1_555 1_555
C64_4 H36_4 1_555 1_555
H37_4 C64_4 1_555 1_555
H38_4 C64_4 1_555 1_555
N6_4 C63_4 1_555 1_555
H39_4 N6_4 1_555 1_555
H40_4 N6_4 1_555 1_555
C64_4 N6_4 1_555 1_555

#END
