
###############################################################################
#
# This file contains modified crystal structure data generated from the
# MOF subset of the Cambridge Structural Database (CSD) v543 
# hosted by the Cambridge Crystallographic Data Centre (CCDC).
#
# This work is licensed under the Creative Commons
# Attribution-NonCommercial-ShareAlike 4.0 International License.
# To view a copy of this license, visit
# http://creativecommons.org/licenses/by-nc-sa/4.0/
# or send a letter to
# Creative Commons, PO Box 1866, Mountain View, CA 94042, USA.
#
# CIF created using the CSD Python API on 29 September 2022
# The structure has been converted into the P1 space group
# The structure has a 3D framework
# The original CSD entry BALWUK is in the tetragonal crystal system
# The framework has been calculated to contain at least 10.0% void space
# The void calculation uses a probe of radius 1.32A, grid spacing 0.4
#
###############################################################################

data_BALWUK
_chemical_formula_moiety         '(C288 H160 N32 Ni16 O64)n'
_symmetry_cell_setting           triclinic
_symmetry_space_group_name_H-M   'P 1'
_symmetry_Int_Tables_number      1
_space_group_name_Hall           'P 1'
loop_
_symmetry_equiv_pos_site_id
_symmetry_equiv_pos_as_xyz
1 x,y,z
_cell_length_a                   22.9846(9)
_cell_length_b                   22.9846(9)
_cell_length_c                   23.4908(12)
_cell_angle_alpha                90
_cell_angle_beta                 90
_cell_angle_gamma                90
_cell_volume                     12410
loop_
_atom_site_label
_atom_site_type_symbol
_atom_site_fract_x
_atom_site_fract_y
_atom_site_fract_z
Ni1 Ni 0.62071(4) 0.30920(4) 0.90401(4)
O1 O 0.3677(2) 0.3114(2) 0.4946(2)
O2 O 0.6373(3) 0.3121(3) 0.6208(2)
O3 O 0.5982(3) 0.3935(3) 0.5943(3)
O4 O 0.4497(2) 0.2826(3) 0.4536(2)
N1 N 0.2681(3) 0.1644(3) 0.5987(3)
N2 N 0.5851(3) 0.3004(3) 0.8246(3)
C1 C 0.5358(3) 0.2920(4) 0.7139(3)
C2 C 0.5032(4) 0.3140(4) 0.5577(4)
H1 H 0.5196 0.3310 0.5245
C3 C 0.3694(3) 0.2310(4) 0.6006(4)
C4 C 0.4532(3) 0.2677(4) 0.6524(4)
H2 H 0.4351 0.2516 0.6852
C5 C 0.5087(4) 0.2926(4) 0.6592(4)
C6 C 0.4245(3) 0.2648(4) 0.6042(4)
C7 C 0.4204(4) 0.2943(4) 0.4976(3)
C8 C 0.5344(4) 0.3150(5) 0.6089(4)
C9 C 0.4500(4) 0.2889(5) 0.5549(3)
C10 C 0.5936(4) 0.3411(4) 0.6075(3)
C11 C 0.2720(4) 0.2115(4) 0.6305(4)
H3 H 0.2393 0.2223 0.6528
C12 C 0.3213(4) 0.2465(5) 0.6334(5)
H4 H 0.3222 0.2800 0.6570
C13 C 0.3133(4) 0.1484(5) 0.5667(5)
H5 H 0.3106 0.1146 0.5436
C14 C 0.3647(5) 0.1810(5) 0.5669(5)
H6 H 0.3966 0.1691 0.5440
C15 C 0.5046(5) 0.3157(4) 0.7570(4)
H7 H 0.4663 0.3297 0.7508
C16 C 0.5928(4) 0.2705(4) 0.7237(4)
H8 H 0.6153 0.2534 0.6943
C17 C 0.5306(4) 0.3191(4) 0.8113(4)
H9 H 0.5081 0.3359 0.8411
C18 C 0.6141(4) 0.2761(4) 0.7804(4)
H10 H 0.6520 0.2615 0.7878
Ni2 Ni 0.37929(4) 0.30920(4) 0.40401(4)
Ni3 Ni 0.69080(4) 0.37929(4) 0.59599(4)
Ni4 Ni 0.19080(4) 0.12071(4) 0.59599(4)
O5 O 0.6323(2) 0.3114(2) 0.9946(2)
O6 O 0.6879(3) 0.3627(3) 0.8792(2)
O7 O 0.6065(3) 0.4018(3) 0.9057(3)
O8 O 0.5503(2) 0.2826(3) 0.9536(2)
N3 N 0.6644(3) 0.2319(3) 0.9013(3)
Ni1_2 Ni 0.37929(4) 0.69080(4) 0.90401(4)
O1_2 O 0.6323(2) 0.6886(2) 0.4946(2)
O2_2 O 0.3627(3) 0.6879(3) 0.6208(2)
O3_2 O 0.4018(3) 0.6065(3) 0.5943(3)
O4_2 O 0.5503(2) 0.7174(3) 0.4536(2)
N1_2 N 0.7319(3) 0.8356(3) 0.5987(3)
N2_2 N 0.4149(3) 0.6996(3) 0.8246(3)
C1_2 C 0.4642(3) 0.7080(4) 0.7139(3)
C2_2 C 0.4968(4) 0.6860(4) 0.5577(4)
H1_2 H 0.4804 0.6690 0.5245
C3_2 C 0.6306(3) 0.7690(4) 0.6006(4)
C4_2 C 0.5468(3) 0.7323(4) 0.6524(4)
H2_2 H 0.5649 0.7484 0.6852
C5_2 C 0.4913(4) 0.7074(4) 0.6592(4)
C6_2 C 0.5755(3) 0.7352(4) 0.6042(4)
C7_2 C 0.5796(4) 0.7057(4) 0.4976(3)
C8_2 C 0.4656(4) 0.6850(5) 0.6089(4)
C9_2 C 0.5500(4) 0.7111(5) 0.5549(3)
C10_2 C 0.4064(4) 0.6589(4) 0.6075(3)
C11_2 C 0.7280(4) 0.7885(4) 0.6305(4)
H3_2 H 0.7607 0.7777 0.6528
C12_2 C 0.6787(4) 0.7535(5) 0.6334(5)
H4_2 H 0.6778 0.7200 0.6570
C13_2 C 0.6867(4) 0.8516(5) 0.5667(5)
H5_2 H 0.6894 0.8854 0.5436
C14_2 C 0.6353(5) 0.8190(5) 0.5669(5)
H6_2 H 0.6034 0.8309 0.5440
C15_2 C 0.4954(5) 0.6843(4) 0.7570(4)
H7_2 H 0.5337 0.6703 0.7508
C16_2 C 0.4072(4) 0.7295(4) 0.7237(4)
H8_2 H 0.3847 0.7466 0.6943
C17_2 C 0.4694(4) 0.6809(4) 0.8113(4)
H9_2 H 0.4919 0.6641 0.8411
C18_2 C 0.3859(4) 0.7239(4) 0.7804(4)
H10_2 H 0.3480 0.7385 0.7878
Ni2_2 Ni 0.62071(4) 0.69080(4) 0.40401(4)
Ni3_2 Ni 0.30920(4) 0.62071(4) 0.59599(4)
Ni4_2 Ni 0.80920(4) 0.87929(4) 0.59599(4)
O5_2 O 0.3677(2) 0.6886(2) 0.9946(2)
O6_2 O 0.3121(3) 0.6373(3) 0.8792(2)
O7_2 O 0.3935(3) 0.5982(3) 0.9057(3)
O8_2 O 0.4497(2) 0.7174(3) 0.9536(2)
N3_2 N 0.3356(3) 0.7681(3) 0.9013(3)
Ni1_3 Ni 0.30920(4) 0.37929(4) 0.09599(4)
O1_3 O 0.3114(2) 0.6323(2) 0.5054(2)
O2_3 O 0.3121(3) 0.3627(3) 0.3792(2)
O3_3 O 0.3935(3) 0.4018(3) 0.4057(3)
O4_3 O 0.2826(3) 0.5503(2) 0.5464(2)
N1_3 N 0.1644(3) 0.7319(3) 0.4013(3)
N2_3 N 0.3004(3) 0.4149(3) 0.1754(3)
C1_3 C 0.2920(4) 0.4642(3) 0.2861(3)
C2_3 C 0.3140(4) 0.4968(4) 0.4423(4)
H1_3 H 0.3310 0.4804 0.4755
C3_3 C 0.2310(4) 0.6306(3) 0.3994(4)
C4_3 C 0.2677(4) 0.5468(3) 0.3476(4)
H2_3 H 0.2516 0.5649 0.3148
C5_3 C 0.2926(4) 0.4913(4) 0.3408(4)
C6_3 C 0.2648(4) 0.5755(3) 0.3958(4)
C7_3 C 0.2943(4) 0.5796(4) 0.5024(3)
C8_3 C 0.3150(5) 0.4656(4) 0.3911(4)
C9_3 C 0.2889(5) 0.5500(4) 0.4451(3)
C10_3 C 0.3411(4) 0.4064(4) 0.3925(3)
C11_3 C 0.2115(4) 0.7280(4) 0.3695(4)
H3_3 H 0.2223 0.7607 0.3472
C12_3 C 0.2465(5) 0.6787(4) 0.3666(5)
H4_3 H 0.2800 0.6778 0.3430
C13_3 C 0.1484(5) 0.6867(4) 0.4333(5)
H5_3 H 0.1146 0.6894 0.4564
C14_3 C 0.1810(5) 0.6353(5) 0.4331(5)
H6_3 H 0.1691 0.6034 0.4560
C15_3 C 0.3157(4) 0.4954(5) 0.2430(4)
H7_3 H 0.3297 0.5337 0.2492
C16_3 C 0.2705(4) 0.4072(4) 0.2763(4)
H8_3 H 0.2534 0.3847 0.3057
C17_3 C 0.3191(4) 0.4694(4) 0.1887(4)
H9_3 H 0.3359 0.4919 0.1589
C18_3 C 0.2761(4) 0.3859(4) 0.2196(4)
H10_3 H 0.2615 0.3480 0.2122
Ni4_3 Ni 0.12071(4) 0.80920(4) 0.40401(4)
O5_3 O 0.3114(2) 0.3677(2) 0.0054(2)
O6_3 O 0.3627(3) 0.3121(3) 0.1208(2)
O7_3 O 0.4018(3) 0.3935(3) 0.0943(3)
O8_3 O 0.2826(3) 0.4497(2) 0.0464(2)
N3_3 N 0.2319(3) 0.3356(3) 0.0987(3)
Ni1_4 Ni 0.69080(4) 0.62071(4) 0.09599(4)
O1_4 O 0.6886(2) 0.3677(2) 0.5054(2)
O2_4 O 0.6879(3) 0.6373(3) 0.3792(2)
O3_4 O 0.6065(3) 0.5982(3) 0.4057(3)
O4_4 O 0.7174(3) 0.4497(2) 0.5464(2)
N1_4 N 0.8356(3) 0.2681(3) 0.4013(3)
N2_4 N 0.6996(3) 0.5851(3) 0.1754(3)
C1_4 C 0.7080(4) 0.5358(3) 0.2861(3)
C2_4 C 0.6860(4) 0.5032(4) 0.4423(4)
H1_4 H 0.6690 0.5196 0.4755
C3_4 C 0.7690(4) 0.3694(3) 0.3994(4)
C4_4 C 0.7323(4) 0.4532(3) 0.3476(4)
H2_4 H 0.7484 0.4351 0.3148
C5_4 C 0.7074(4) 0.5087(4) 0.3408(4)
C6_4 C 0.7352(4) 0.4245(3) 0.3958(4)
C7_4 C 0.7057(4) 0.4204(4) 0.5024(3)
C8_4 C 0.6850(5) 0.5344(4) 0.3911(4)
C9_4 C 0.7111(5) 0.4500(4) 0.4451(3)
C10_4 C 0.6589(4) 0.5936(4) 0.3925(3)
C11_4 C 0.7885(4) 0.2720(4) 0.3695(4)
H3_4 H 0.7777 0.2393 0.3472
C12_4 C 0.7535(5) 0.3213(4) 0.3666(5)
H4_4 H 0.7200 0.3222 0.3430
C13_4 C 0.8516(5) 0.3133(4) 0.4333(5)
H5_4 H 0.8854 0.3106 0.4564
C14_4 C 0.8190(5) 0.3647(5) 0.4331(5)
H6_4 H 0.8309 0.3966 0.4560
C15_4 C 0.6843(4) 0.5046(5) 0.2430(4)
H7_4 H 0.6703 0.4663 0.2492
C16_4 C 0.7295(4) 0.5928(4) 0.2763(4)
H8_4 H 0.7466 0.6153 0.3057
C17_4 C 0.6809(4) 0.5306(4) 0.1887(4)
H9_4 H 0.6641 0.5081 0.1589
C18_4 C 0.7239(4) 0.6141(4) 0.2196(4)
H10_4 H 0.7385 0.6520 0.2122
Ni4_4 Ni 0.87929(4) 0.19080(4) 0.40401(4)
O5_4 O 0.6886(2) 0.6323(2) 0.0054(2)
O6_4 O 0.6373(3) 0.6879(3) 0.1208(2)
O7_4 O 0.5982(3) 0.6065(3) 0.0943(3)
O8_4 O 0.7174(3) 0.5503(2) 0.0464(2)
N3_4 N 0.7681(3) 0.6644(3) 0.0987(3)
N1_5 N 0.2681(3) 0.8356(3) 0.0987(3)
N2_5 N 0.5851(3) 0.6996(3) 0.3246(3)
C1_5 C 0.5358(3) 0.7080(4) 0.2139(3)
C2_5 C 0.5032(4) 0.6860(4) 0.0577(4)
H1_5 H 0.5196 0.6690 0.0245
C3_5 C 0.3694(3) 0.7690(4) 0.1006(4)
C4_5 C 0.4532(3) 0.7323(4) 0.1524(4)
H2_5 H 0.4351 0.7484 0.1852
C5_5 C 0.5087(4) 0.7074(4) 0.1592(4)
C6_5 C 0.4245(3) 0.7352(4) 0.1042(4)
C8_5 C 0.5344(4) 0.6850(5) 0.1089(4)
C9_5 C 0.4500(4) 0.7111(5) 0.0549(3)
C10_5 C 0.5936(4) 0.6589(4) 0.1075(3)
C11_5 C 0.2720(4) 0.7885(4) 0.1305(4)
H3_5 H 0.2393 0.7777 0.1528
C12_5 C 0.3213(4) 0.7535(5) 0.1334(5)
H4_5 H 0.3222 0.7200 0.1570
C13_5 C 0.3133(4) 0.8516(5) 0.0667(5)
H5_5 H 0.3106 0.8854 0.0436
C14_5 C 0.3647(5) 0.8190(5) 0.0669(5)
H6_5 H 0.3966 0.8309 0.0440
C15_5 C 0.5046(5) 0.6843(4) 0.2570(4)
H7_5 H 0.4663 0.6703 0.2508
C16_5 C 0.5928(4) 0.7295(4) 0.2237(4)
H8_5 H 0.6153 0.7466 0.1943
C17_5 C 0.5306(4) 0.6809(4) 0.3113(4)
H9_5 H 0.5081 0.6641 0.3411
C18_5 C 0.6141(4) 0.7239(4) 0.2804(4)
H10_5 H 0.6520 0.7385 0.2878
Ni4_5 Ni 0.19080(4) 0.87929(4) 0.09599(4)
N3_5 N 0.6644(3) 0.7681(3) 0.4013(3)
C7_5 C 0.4204(4) 0.7057(4) 0.9976(3)
N1_6 N 0.7319(3) 0.1644(3) 0.0987(3)
N2_6 N 0.4149(3) 0.3004(3) 0.3246(3)
C1_6 C 0.4642(3) 0.2920(4) 0.2139(3)
C2_6 C 0.4968(4) 0.3140(4) 0.0577(4)
H1_6 H 0.4804 0.3310 0.0245
C3_6 C 0.6306(3) 0.2310(4) 0.1006(4)
C4_6 C 0.5468(3) 0.2677(4) 0.1524(4)
H2_6 H 0.5649 0.2516 0.1852
C5_6 C 0.4913(4) 0.2926(4) 0.1592(4)
C6_6 C 0.5755(3) 0.2648(4) 0.1042(4)
C8_6 C 0.4656(4) 0.3150(5) 0.1089(4)
C9_6 C 0.5500(4) 0.2889(5) 0.0549(3)
C10_6 C 0.4064(4) 0.3411(4) 0.1075(3)
C11_6 C 0.7280(4) 0.2115(4) 0.1305(4)
H3_6 H 0.7607 0.2223 0.1528
C12_6 C 0.6787(4) 0.2465(5) 0.1334(5)
H4_6 H 0.6778 0.2800 0.1570
C13_6 C 0.6867(4) 0.1484(5) 0.0667(5)
H5_6 H 0.6894 0.1146 0.0436
C14_6 C 0.6353(5) 0.1810(5) 0.0669(5)
H6_6 H 0.6034 0.1691 0.0440
C15_6 C 0.4954(5) 0.3157(4) 0.2570(4)
H7_6 H 0.5337 0.3297 0.2508
C16_6 C 0.4072(4) 0.2705(4) 0.2237(4)
H8_6 H 0.3847 0.2534 0.1943
C17_6 C 0.4694(4) 0.3191(4) 0.3113(4)
H9_6 H 0.4919 0.3359 0.3411
C18_6 C 0.3859(4) 0.2761(4) 0.2804(4)
H10_6 H 0.3480 0.2615 0.2878
Ni4_6 Ni 0.80920(4) 0.12071(4) 0.09599(4)
N3_6 N 0.3356(3) 0.2319(3) 0.4013(3)
C7_6 C 0.5796(4) 0.2943(4) 0.9976(3)
C7_7 C 0.2943(4) 0.4204(4) 0.0024(3)
N1_7 N 0.1644(3) 0.2681(3) 0.9013(3)
N2_7 N 0.3004(3) 0.5851(3) 0.6754(3)
C1_7 C 0.2920(4) 0.5358(3) 0.7861(3)
C2_7 C 0.3140(4) 0.5032(4) 0.9423(4)
H1_7 H 0.3310 0.5196 0.9755
C3_7 C 0.2310(4) 0.3694(3) 0.8994(4)
C4_7 C 0.2677(4) 0.4532(3) 0.8476(4)
H2_7 H 0.2516 0.4351 0.8148
C5_7 C 0.2926(4) 0.5087(4) 0.8408(4)
C6_7 C 0.2648(4) 0.4245(3) 0.8958(4)
C8_7 C 0.3150(5) 0.5344(4) 0.8911(4)
C9_7 C 0.2889(5) 0.4500(4) 0.9451(3)
C10_7 C 0.3411(4) 0.5936(4) 0.8925(3)
C11_7 C 0.2115(4) 0.2720(4) 0.8695(4)
H3_7 H 0.2223 0.2393 0.8472
C12_7 C 0.2465(5) 0.3213(4) 0.8666(5)
H4_7 H 0.2800 0.3222 0.8430
C13_7 C 0.1484(5) 0.3133(4) 0.9333(5)
H5_7 H 0.1146 0.3106 0.9564
C14_7 C 0.1810(5) 0.3647(5) 0.9331(5)
H6_7 H 0.1691 0.3966 0.9560
C15_7 C 0.3157(4) 0.5046(5) 0.7430(4)
H7_7 H 0.3297 0.4663 0.7492
C16_7 C 0.2705(4) 0.5928(4) 0.7763(4)
H8_7 H 0.2534 0.6153 0.8057
C17_7 C 0.3191(4) 0.5306(4) 0.6887(4)
H9_7 H 0.3359 0.5081 0.6589
C18_7 C 0.2761(4) 0.6141(4) 0.7196(4)
H10_7 H 0.2615 0.6520 0.7122
Ni4_7 Ni 0.12071(4) 0.19080(4) 0.90401(4)
N3_7 N 0.2319(3) 0.6644(3) 0.5987(3)
C7_8 C 0.7057(4) 0.5796(4) 0.0024(3)
N1_8 N 0.8356(3) 0.7319(3) 0.9013(3)
N2_8 N 0.6996(3) 0.4149(3) 0.6754(3)
C1_8 C 0.7080(4) 0.4642(3) 0.7861(3)
C2_8 C 0.6860(4) 0.4968(4) 0.9423(4)
H1_8 H 0.6690 0.4804 0.9755
C3_8 C 0.7690(4) 0.6306(3) 0.8994(4)
C4_8 C 0.7323(4) 0.5468(3) 0.8476(4)
H2_8 H 0.7484 0.5649 0.8148
C5_8 C 0.7074(4) 0.4913(4) 0.8408(4)
C6_8 C 0.7352(4) 0.5755(3) 0.8958(4)
C8_8 C 0.6850(5) 0.4656(4) 0.8911(4)
C9_8 C 0.7111(5) 0.5500(4) 0.9451(3)
C10_8 C 0.6589(4) 0.4064(4) 0.8925(3)
C11_8 C 0.7885(4) 0.7280(4) 0.8695(4)
H3_8 H 0.7777 0.7607 0.8472
C12_8 C 0.7535(5) 0.6787(4) 0.8666(5)
H4_8 H 0.7200 0.6778 0.8430
C13_8 C 0.8516(5) 0.6867(4) 0.9333(5)
H5_8 H 0.8854 0.6894 0.9564
C14_8 C 0.8190(5) 0.6353(5) 0.9331(5)
H6_8 H 0.8309 0.6034 0.9560
C15_8 C 0.6843(4) 0.4954(5) 0.7430(4)
H7_8 H 0.6703 0.5337 0.7492
C16_8 C 0.7295(4) 0.4072(4) 0.7763(4)
H8_8 H 0.7466 0.3847 0.8057
C17_8 C 0.6809(4) 0.4694(4) 0.6887(4)
H9_8 H 0.6641 0.4919 0.6589
C18_8 C 0.7239(4) 0.3859(4) 0.7196(4)
H10_8 H 0.7385 0.3480 0.7122
Ni4_8 Ni 0.87929(4) 0.80920(4) 0.90401(4)
N3_8 N 0.7681(3) 0.3356(3) 0.5987(3)
O2_5 O 0.1373(3) 0.8121(3) 0.1208(2)
O3_5 O 0.0982(3) 0.8935(3) 0.0943(3)
N2_9 N 0.0851(3) 0.8004(3) 0.3246(3)
C1_9 C 0.0358(3) 0.7920(4) 0.2139(3)
C2_9 C 0.0032(4) 0.8140(4) 0.0577(4)
H1_9 H 0.0196 0.8310 0.0245
C5_9 C 0.0087(4) 0.7926(4) 0.1592(4)
C8_9 C 0.0344(4) 0.8150(5) 0.1089(4)
C10_9 C 0.0936(4) 0.8411(4) 0.1075(3)
C15_9 C 0.0046(5) 0.8157(4) 0.2570(4)
C16_9 C 0.0928(4) 0.7705(4) 0.2237(4)
H8_9 H 0.1153 0.7534 0.1943
C17_9 C 0.0306(4) 0.8191(4) 0.3113(4)
H9_9 H 0.0081 0.8359 0.3411
C18_9 C 0.1141(4) 0.7761(4) 0.2804(4)
H10_9 H 0.1520 0.7615 0.2878
O5_5 O 0.1323(2) 0.8114(2) 0.4946(2)
O6_5 O 0.1879(3) 0.8627(3) 0.3792(2)
O7_5 O 0.1065(3) 0.9018(3) 0.4057(3)
O8_5 O 0.0503(2) 0.7826(3) 0.4536(2)
C3_9 C 0.8694(3) 0.7310(4) 0.1006(4)
C4_9 C 0.9532(3) 0.7677(4) 0.1524(4)
H2_9 H 0.9351 0.7516 0.1852
C6_9 C 0.9245(3) 0.7648(4) 0.1042(4)
C9_9 C 0.9500(4) 0.7889(5) 0.0549(3)
C11_9 C 0.7720(4) 0.7115(4) 0.1305(4)
H3_9 H 0.7393 0.7223 0.1528
C12_9 C 0.8213(4) 0.7465(5) 0.1334(5)
H4_9 H 0.8222 0.7800 0.1570
C13_9 C 0.8133(4) 0.6484(5) 0.0667(5)
H5_9 H 0.8106 0.6146 0.0436
C14_9 C 0.8647(5) 0.6810(5) 0.0669(5)
H6_9 H 0.8966 0.6691 0.0440
H7_9 H 0.9663 0.8297 0.2508
O1_5 O 0.8677(2) 0.8114(2) 0.9946(2)
O4_5 O 0.9497(2) 0.7826(3) 0.9536(2)
C7_9 C 0.9204(4) 0.7943(4) 0.9976(3)
C3_10 C 0.1306(3) 0.2690(4) 0.1006(4)
C4_10 C 0.0468(3) 0.2323(4) 0.1524(4)
H2_10 H 0.0649 0.2484 0.1852
C6_10 C 0.0755(3) 0.2352(4) 0.1042(4)
C9_10 C 0.0500(4) 0.2111(5) 0.0549(3)
C11_10 C 0.2280(4) 0.2885(4) 0.1305(4)
H3_10 H 0.2607 0.2777 0.1528
C12_10 C 0.1787(4) 0.2535(5) 0.1334(5)
H4_10 H 0.1778 0.2200 0.1570
C13_10 C 0.1867(4) 0.3516(5) 0.0667(5)
H5_10 H 0.1894 0.3854 0.0436
C14_10 C 0.1353(5) 0.3190(5) 0.0669(5)
H6_10 H 0.1034 0.3309 0.0440
H7_10 H 0.0337 0.1703 0.2508
O1_6 O 0.1323(2) 0.1886(2) 0.9946(2)
O4_6 O 0.0503(2) 0.2174(3) 0.9536(2)
C7_10 C 0.0796(4) 0.2057(4) 0.9976(3)
O2_6 O 0.8627(3) 0.1879(3) 0.1208(2)
O3_6 O 0.9018(3) 0.1065(3) 0.0943(3)
N2_10 N 0.9149(3) 0.1996(3) 0.3246(3)
C1_10 C 0.9642(3) 0.2080(4) 0.2139(3)
C2_10 C 0.9968(4) 0.1860(4) 0.0577(4)
H1_10 H 0.9804 0.1690 0.0245
C5_10 C 0.9913(4) 0.2074(4) 0.1592(4)
C8_10 C 0.9656(4) 0.1850(5) 0.1089(4)
C10_10 C 0.9064(4) 0.1589(4) 0.1075(3)
C15_10 C 0.9954(5) 0.1843(4) 0.2570(4)
C16_10 C 0.9072(4) 0.2295(4) 0.2237(4)
H8_10 H 0.8847 0.2466 0.1943
C17_10 C 0.9694(4) 0.1809(4) 0.3113(4)
H9_10 H 0.9919 0.1641 0.3411
C18_10 C 0.8859(4) 0.2239(4) 0.2804(4)
H10_10 H 0.8480 0.2385 0.2878
O5_6 O 0.8677(2) 0.1886(2) 0.4946(2)
O6_6 O 0.8121(3) 0.1373(3) 0.3792(2)
O7_6 O 0.8935(3) 0.0982(3) 0.4057(3)
O8_6 O 0.9497(2) 0.2174(3) 0.4536(2)
O1_7 O 0.8114(2) 0.1323(2) 0.0054(2)
O4_7 O 0.7826(3) 0.0503(2) 0.0464(2)
C7_11 C 0.7943(4) 0.0796(4) 0.0024(3)
C3_11 C 0.7310(4) 0.1306(3) 0.8994(4)
C4_11 C 0.7677(4) 0.0468(3) 0.8476(4)
H2_11 H 0.7516 0.0649 0.8148
C6_11 C 0.7648(4) 0.0755(3) 0.8958(4)
C9_11 C 0.7889(5) 0.0500(4) 0.9451(3)
C11_11 C 0.7115(4) 0.2280(4) 0.8695(4)
H3_11 H 0.7223 0.2607 0.8472
C12_11 C 0.7465(5) 0.1787(4) 0.8666(5)
H4_11 H 0.7800 0.1778 0.8430
C13_11 C 0.6484(5) 0.1867(4) 0.9333(5)
H5_11 H 0.6146 0.1894 0.9564
C14_11 C 0.6810(5) 0.1353(5) 0.9331(5)
H6_11 H 0.6691 0.1034 0.9560
H7_11 H 0.8297 0.0337 0.7492
O2_7 O 0.8121(3) 0.8627(3) 0.8792(2)
O3_7 O 0.8935(3) 0.9018(3) 0.9057(3)
N2_11 N 0.8004(3) 0.9149(3) 0.6754(3)
C1_11 C 0.7920(4) 0.9642(3) 0.7861(3)
C2_11 C 0.8140(4) 0.9968(4) 0.9423(4)
H1_11 H 0.8310 0.9804 0.9755
C5_11 C 0.7926(4) 0.9913(4) 0.8408(4)
C8_11 C 0.8150(5) 0.9656(4) 0.8911(4)
C10_11 C 0.8411(4) 0.9064(4) 0.8925(3)
C15_11 C 0.8157(4) 0.9954(5) 0.7430(4)
C16_11 C 0.7705(4) 0.9072(4) 0.7763(4)
H8_11 H 0.7534 0.8847 0.8057
C17_11 C 0.8191(4) 0.9694(4) 0.6887(4)
H9_11 H 0.8359 0.9919 0.6589
C18_11 C 0.7761(4) 0.8859(4) 0.7196(4)
H10_11 H 0.7615 0.8480 0.7122
O5_7 O 0.8114(2) 0.8677(2) 0.5054(2)
O6_7 O 0.8627(3) 0.8121(3) 0.6208(2)
O7_7 O 0.9018(3) 0.8935(3) 0.5943(3)
O8_7 O 0.7826(3) 0.9497(2) 0.5464(2)
O2_8 O 0.1879(3) 0.1373(3) 0.8792(2)
O3_8 O 0.1065(3) 0.0982(3) 0.9057(3)
N2_12 N 0.1996(3) 0.0851(3) 0.6754(3)
C1_12 C 0.2080(4) 0.0358(3) 0.7861(3)
C2_12 C 0.1860(4) 0.0032(4) 0.9423(4)
H1_12 H 0.1690 0.0196 0.9755
C5_12 C 0.2074(4) 0.0087(4) 0.8408(4)
C8_12 C 0.1850(5) 0.0344(4) 0.8911(4)
C10_12 C 0.1589(4) 0.0936(4) 0.8925(3)
C15_12 C 0.1843(4) 0.0046(5) 0.7430(4)
C16_12 C 0.2295(4) 0.0928(4) 0.7763(4)
H8_12 H 0.2466 0.1153 0.8057
C17_12 C 0.1809(4) 0.0306(4) 0.6887(4)
H9_12 H 0.1641 0.0081 0.6589
C18_12 C 0.2239(4) 0.1141(4) 0.7196(4)
H10_12 H 0.2385 0.1520 0.7122
O5_8 O 0.1886(2) 0.1323(2) 0.5054(2)
O6_8 O 0.1373(3) 0.1879(3) 0.6208(2)
O7_8 O 0.0982(3) 0.1065(3) 0.5943(3)
O8_8 O 0.2174(3) 0.0503(2) 0.5464(2)
O1_8 O 0.1886(2) 0.8677(2) 0.0054(2)
O4_8 O 0.2174(3) 0.9497(2) 0.0464(2)
C7_12 C 0.2057(4) 0.9204(4) 0.0024(3)
C3_12 C 0.2690(4) 0.8694(3) 0.8994(4)
C4_12 C 0.2323(4) 0.9532(3) 0.8476(4)
H2_12 H 0.2484 0.9351 0.8148
C6_12 C 0.2352(4) 0.9245(3) 0.8958(4)
C9_12 C 0.2111(5) 0.9500(4) 0.9451(3)
C11_12 C 0.2885(4) 0.7720(4) 0.8695(4)
H3_12 H 0.2777 0.7393 0.8472
C12_12 C 0.2535(5) 0.8213(4) 0.8666(5)
H4_12 H 0.2200 0.8222 0.8430
C13_12 C 0.3516(5) 0.8133(4) 0.9333(5)
H5_12 H 0.3854 0.8106 0.9564
C14_12 C 0.3190(5) 0.8647(5) 0.9331(5)
H6_12 H 0.3309 0.8966 0.9560
H7_12 H 0.1703 0.9663 0.7492
N2_13 N 0.0851(3) 0.1996(3) 0.8246(3)
C1_13 C 0.0358(3) 0.2080(4) 0.7139(3)
C2_13 C 0.0032(4) 0.1860(4) 0.5577(4)
H1_13 H 0.0196 0.1690 0.5245
C5_13 C 0.0087(4) 0.2074(4) 0.6592(4)
C8_13 C 0.0344(4) 0.1850(5) 0.6089(4)
C10_13 C 0.0936(4) 0.1589(4) 0.6075(3)
C15_13 C 0.0046(5) 0.1843(4) 0.7570(4)
C16_13 C 0.0928(4) 0.2295(4) 0.7237(4)
H8_13 H 0.1153 0.2466 0.6943
C17_13 C 0.0306(4) 0.1809(4) 0.8113(4)
H9_13 H 0.0081 0.1641 0.8411
C18_13 C 0.1141(4) 0.2239(4) 0.7804(4)
H10_13 H 0.1520 0.2385 0.7878
C3_13 C 0.8694(3) 0.2690(4) 0.6006(4)
C4_13 C 0.9532(3) 0.2323(4) 0.6524(4)
H2_13 H 0.9351 0.2484 0.6852
C6_13 C 0.9245(3) 0.2352(4) 0.6042(4)
C7_13 C 0.9204(4) 0.2057(4) 0.4976(3)
C9_13 C 0.9500(4) 0.2111(5) 0.5549(3)
C11_13 C 0.7720(4) 0.2885(4) 0.6305(4)
H3_13 H 0.7393 0.2777 0.6528
C12_13 C 0.8213(4) 0.2535(5) 0.6334(5)
H4_13 H 0.8222 0.2200 0.6570
C13_13 C 0.8133(4) 0.3516(5) 0.5667(5)
H5_13 H 0.8106 0.3854 0.5436
C14_13 C 0.8647(5) 0.3190(5) 0.5669(5)
H6_13 H 0.8966 0.3309 0.5440
H7_13 H 0.9663 0.1703 0.7508
C3_14 C 0.1306(3) 0.7310(4) 0.6006(4)
C4_14 C 0.0468(3) 0.7677(4) 0.6524(4)
H2_14 H 0.0649 0.7516 0.6852
C6_14 C 0.0755(3) 0.7648(4) 0.6042(4)
C7_14 C 0.0796(4) 0.7943(4) 0.4976(3)
C9_14 C 0.0500(4) 0.7889(5) 0.5549(3)
C11_14 C 0.2280(4) 0.7115(4) 0.6305(4)
H3_14 H 0.2607 0.7223 0.6528
C12_14 C 0.1787(4) 0.7465(5) 0.6334(5)
H4_14 H 0.1778 0.7800 0.6570
C13_14 C 0.1867(4) 0.6484(5) 0.5667(5)
H5_14 H 0.1894 0.6146 0.5436
C14_14 C 0.1353(5) 0.6810(5) 0.5669(5)
H6_14 H 0.1034 0.6691 0.5440
H7_14 H 0.0337 0.8297 0.7508
N2_14 N 0.9149(3) 0.8004(3) 0.8246(3)
C1_14 C 0.9642(3) 0.7920(4) 0.7139(3)
C2_14 C 0.9968(4) 0.8140(4) 0.5577(4)
H1_14 H 0.9804 0.8310 0.5245
C5_14 C 0.9913(4) 0.7926(4) 0.6592(4)
C8_14 C 0.9656(4) 0.8150(5) 0.6089(4)
C10_14 C 0.9064(4) 0.8411(4) 0.6075(3)
C15_14 C 0.9954(5) 0.8157(4) 0.7570(4)
C16_14 C 0.9072(4) 0.7705(4) 0.7237(4)
H8_14 H 0.8847 0.7534 0.6943
C17_14 C 0.9694(4) 0.8191(4) 0.8113(4)
H9_14 H 0.9919 0.8359 0.8411
C18_14 C 0.8859(4) 0.7761(4) 0.7804(4)
H10_14 H 0.8480 0.7615 0.7878
N2_15 N 0.8004(3) 0.0851(3) 0.1754(3)
C1_15 C 0.7920(4) 0.0358(3) 0.2861(3)
C2_15 C 0.8140(4) 0.0032(4) 0.4423(4)
H1_15 H 0.8310 0.0196 0.4755
C5_15 C 0.7926(4) 0.0087(4) 0.3408(4)
C8_15 C 0.8150(5) 0.0344(4) 0.3911(4)
C10_15 C 0.8411(4) 0.0936(4) 0.3925(3)
C15_15 C 0.8157(4) 0.0046(5) 0.2430(4)
C16_15 C 0.7705(4) 0.0928(4) 0.2763(4)
H8_15 H 0.7534 0.1153 0.3057
C17_15 C 0.8191(4) 0.0306(4) 0.1887(4)
H9_15 H 0.8359 0.0081 0.1589
C18_15 C 0.7761(4) 0.1141(4) 0.2196(4)
H10_15 H 0.7615 0.1520 0.2122
C3_15 C 0.7310(4) 0.8694(3) 0.3994(4)
C4_15 C 0.7677(4) 0.9532(3) 0.3476(4)
H2_15 H 0.7516 0.9351 0.3148
C6_15 C 0.7648(4) 0.9245(3) 0.3958(4)
C7_15 C 0.7943(4) 0.9204(4) 0.5024(3)
C9_15 C 0.7889(5) 0.9500(4) 0.4451(3)
C11_15 C 0.7115(4) 0.7720(4) 0.3695(4)
H3_15 H 0.7223 0.7393 0.3472
C12_15 C 0.7465(5) 0.8213(4) 0.3666(5)
H4_15 H 0.7800 0.8222 0.3430
C13_15 C 0.6484(5) 0.8133(4) 0.4333(5)
H5_15 H 0.6146 0.8106 0.4564
C14_15 C 0.6810(5) 0.8647(5) 0.4331(5)
H6_15 H 0.6691 0.8966 0.4560
H7_15 H 0.8297 0.9663 0.2492
C3_16 C 0.2690(4) 0.1306(3) 0.3994(4)
C4_16 C 0.2323(4) 0.0468(3) 0.3476(4)
H2_16 H 0.2484 0.0649 0.3148
C6_16 C 0.2352(4) 0.0755(3) 0.3958(4)
C7_16 C 0.2057(4) 0.0796(4) 0.5024(3)
C9_16 C 0.2111(5) 0.0500(4) 0.4451(3)
C11_16 C 0.2885(4) 0.2280(4) 0.3695(4)
H3_16 H 0.2777 0.2607 0.3472
C12_16 C 0.2535(5) 0.1787(4) 0.3666(5)
H4_16 H 0.2200 0.1778 0.3430
C13_16 C 0.3516(5) 0.1867(4) 0.4333(5)
H5_16 H 0.3854 0.1894 0.4564
C14_16 C 0.3190(5) 0.1353(5) 0.4331(5)
H6_16 H 0.3309 0.1034 0.4560
H7_16 H 0.1703 0.0337 0.2492
N2_16 N 0.1996(3) 0.9149(3) 0.1754(3)
C1_16 C 0.2080(4) 0.9642(3) 0.2861(3)
C2_16 C 0.1860(4) 0.9968(4) 0.4423(4)
H1_16 H 0.1690 0.9804 0.4755
C5_16 C 0.2074(4) 0.9913(4) 0.3408(4)
C8_16 C 0.1850(5) 0.9656(4) 0.3911(4)
C10_16 C 0.1589(4) 0.9064(4) 0.3925(3)
C15_16 C 0.1843(4) 0.9954(5) 0.2430(4)
C16_16 C 0.2295(4) 0.9072(4) 0.2763(4)
H8_16 H 0.2466 0.8847 0.3057
C17_16 C 0.1809(4) 0.9694(4) 0.1887(4)
H9_16 H 0.1641 0.9919 0.1589
C18_16 C 0.2239(4) 0.8859(4) 0.2196(4)
H10_16 H 0.2385 0.8480 0.2122
loop_
_geom_bond_atom_site_label_1
_geom_bond_atom_site_label_2
_geom_bond_site_symmetry_1
_geom_bond_site_symmetry_2
Ni1 N2 1_555 1_555
O1 C7 1_555 1_555
O2 C10 1_555 1_555
O3 C10 1_555 1_555
O4 C7 1_555 1_555
N1 C11 1_555 1_555
N2 C17 1_555 1_555
C1 C5 1_555 1_555
C2 H1 1_555 1_555
C3 C6 1_555 1_555
C4 H2 1_555 1_555
C5 C4 1_555 1_555
C6 C4 1_555 1_555
C7 C9 1_555 1_555
C8 C2 1_555 1_555
C9 C2 1_555 1_555
C10 C8 1_555 1_555
C11 H3 1_555 1_555
C12 C3 1_555 1_555
H4 C12 1_555 1_555
C13 N1 1_555 1_555
H5 C13 1_555 1_555
C14 C3 1_555 1_555
H6 C14 1_555 1_555
C15 C1 1_555 1_555
H7 C15 1_555 1_555
C16 C1 1_555 1_555
H8 C16 1_555 1_555
C17 C15 1_555 1_555
H9 C17 1_555 1_555
C18 N2 1_555 1_555
H10 C18 1_555 1_555
Ni2 O1 1_555 1_555
Ni3 O2 1_555 1_555
Ni4 N1 1_555 1_555
O5 Ni1 1_555 1_555
O6 Ni1 1_555 1_555
O7 Ni1 1_555 1_555
O8 Ni1 1_555 1_555
N3 Ni1 1_555 1_555
O3 Ni3 1_555 1_555
O4 Ni2 1_555 1_555
C5 C8 1_555 1_555
C6 C9 1_555 1_555
C11 C12 1_555 1_555
C13 C14 1_555 1_555
C16 C18 1_555 1_555
Ni1_2 N2_2 1_555 1_555
O1_2 C7_2 1_555 1_555
O2_2 C10_2 1_555 1_555
O3_2 C10_2 1_555 1_555
O4_2 C7_2 1_555 1_555
N1_2 C11_2 1_555 1_555
N2_2 C17_2 1_555 1_555
C1_2 C5_2 1_555 1_555
C2_2 H1_2 1_555 1_555
C3_2 C6_2 1_555 1_555
C4_2 H2_2 1_555 1_555
C5_2 C4_2 1_555 1_555
C6_2 C4_2 1_555 1_555
C7_2 C9_2 1_555 1_555
C8_2 C2_2 1_555 1_555
C9_2 C2_2 1_555 1_555
C10_2 C8_2 1_555 1_555
C11_2 H3_2 1_555 1_555
C12_2 C3_2 1_555 1_555
H4_2 C12_2 1_555 1_555
C13_2 N1_2 1_555 1_555
H5_2 C13_2 1_555 1_555
C14_2 C3_2 1_555 1_555
H6_2 C14_2 1_555 1_555
C15_2 C1_2 1_555 1_555
H7_2 C15_2 1_555 1_555
C16_2 C1_2 1_555 1_555
H8_2 C16_2 1_555 1_555
C17_2 C15_2 1_555 1_555
H9_2 C17_2 1_555 1_555
C18_2 N2_2 1_555 1_555
H10_2 C18_2 1_555 1_555
Ni2_2 O1_2 1_555 1_555
Ni3_2 O2_2 1_555 1_555
Ni4_2 N1_2 1_555 1_555
O5_2 Ni1_2 1_555 1_555
O6_2 Ni1_2 1_555 1_555
O7_2 Ni1_2 1_555 1_555
O8_2 Ni1_2 1_555 1_555
N3_2 Ni1_2 1_555 1_555
O3_2 Ni3_2 1_555 1_555
O4_2 Ni2_2 1_555 1_555
C5_2 C8_2 1_555 1_555
C6_2 C9_2 1_555 1_555
C11_2 C12_2 1_555 1_555
C13_2 C14_2 1_555 1_555
C16_2 C18_2 1_555 1_555
Ni1_3 N2_3 1_555 1_555
O1_3 C7_3 1_555 1_555
O2_3 C10_3 1_555 1_555
O3_3 C10_3 1_555 1_555
O4_3 C7_3 1_555 1_555
N1_3 C11_3 1_555 1_555
N2_3 C17_3 1_555 1_555
C1_3 C5_3 1_555 1_555
C2_3 H1_3 1_555 1_555
C3_3 C6_3 1_555 1_555
C4_3 H2_3 1_555 1_555
C5_3 C4_3 1_555 1_555
C6_3 C4_3 1_555 1_555
C7_3 C9_3 1_555 1_555
C8_3 C2_3 1_555 1_555
C9_3 C2_3 1_555 1_555
C10_3 C8_3 1_555 1_555
C11_3 H3_3 1_555 1_555
C12_3 C3_3 1_555 1_555
H4_3 C12_3 1_555 1_555
C13_3 N1_3 1_555 1_555
H5_3 C13_3 1_555 1_555
C14_3 C3_3 1_555 1_555
H6_3 C14_3 1_555 1_555
C15_3 C1_3 1_555 1_555
H7_3 C15_3 1_555 1_555
C16_3 C1_3 1_555 1_555
H8_3 C16_3 1_555 1_555
C17_3 C15_3 1_555 1_555
H9_3 C17_3 1_555 1_555
C18_3 N2_3 1_555 1_555
H10_3 C18_3 1_555 1_555
Ni3_2 O1_3 1_555 1_555
Ni2 O2_3 1_555 1_555
Ni4_3 N1_3 1_555 1_555
O5_3 Ni1_3 1_555 1_555
O6_3 Ni1_3 1_555 1_555
O7_3 Ni1_3 1_555 1_555
O8_3 Ni1_3 1_555 1_555
N3_3 Ni1_3 1_555 1_555
O3_3 Ni2 1_555 1_555
O4_3 Ni3_2 1_555 1_555
C5_3 C8_3 1_555 1_555
C6_3 C9_3 1_555 1_555
C11_3 C12_3 1_555 1_555
C13_3 C14_3 1_555 1_555
C16_3 C18_3 1_555 1_555
Ni1_4 N2_4 1_555 1_555
O1_4 C7_4 1_555 1_555
O2_4 C10_4 1_555 1_555
O3_4 C10_4 1_555 1_555
O4_4 C7_4 1_555 1_555
N1_4 C11_4 1_555 1_555
N2_4 C17_4 1_555 1_555
C1_4 C5_4 1_555 1_555
C2_4 H1_4 1_555 1_555
C3_4 C6_4 1_555 1_555
C4_4 H2_4 1_555 1_555
C5_4 C4_4 1_555 1_555
C6_4 C4_4 1_555 1_555
C7_4 C9_4 1_555 1_555
C8_4 C2_4 1_555 1_555
C9_4 C2_4 1_555 1_555
C10_4 C8_4 1_555 1_555
C11_4 H3_4 1_555 1_555
C12_4 C3_4 1_555 1_555
H4_4 C12_4 1_555 1_555
C13_4 N1_4 1_555 1_555
H5_4 C13_4 1_555 1_555
C14_4 C3_4 1_555 1_555
H6_4 C14_4 1_555 1_555
C15_4 C1_4 1_555 1_555
H7_4 C15_4 1_555 1_555
C16_4 C1_4 1_555 1_555
H8_4 C16_4 1_555 1_555
C17_4 C15_4 1_555 1_555
H9_4 C17_4 1_555 1_555
C18_4 N2_4 1_555 1_555
H10_4 C18_4 1_555 1_555
Ni3 O1_4 1_555 1_555
Ni2_2 O2_4 1_555 1_555
Ni4_4 N1_4 1_555 1_555
O5_4 Ni1_4 1_555 1_555
O6_4 Ni1_4 1_555 1_555
O7_4 Ni1_4 1_555 1_555
O8_4 Ni1_4 1_555 1_555
N3_4 Ni1_4 1_555 1_555
O3_4 Ni2_2 1_555 1_555
O4_4 Ni3 1_555 1_555
C5_4 C8_4 1_555 1_555
C6_4 C9_4 1_555 1_555
C11_4 C12_4 1_555 1_555
C13_4 C14_4 1_555 1_555
C16_4 C18_4 1_555 1_555
Ni2_2 N2_5 1_555 1_555
O6_4 C10_5 1_555 1_555
O7_4 C10_5 1_555 1_555
N1_5 C11_5 1_555 1_555
N2_5 C17_5 1_555 1_555
C1_5 C5_5 1_555 1_555
C2_5 H1_5 1_555 1_555
C3_5 C6_5 1_555 1_555
C4_5 H2_5 1_555 1_555
C5_5 C4_5 1_555 1_555
C6_5 C4_5 1_555 1_555
C8_5 C2_5 1_555 1_555
C9_5 C2_5 1_555 1_555
C10_5 C8_5 1_555 1_555
C11_5 H3_5 1_555 1_555
C12_5 C3_5 1_555 1_555
H4_5 C12_5 1_555 1_555
C13_5 N1_5 1_555 1_555
H5_5 C13_5 1_555 1_555
C14_5 C3_5 1_555 1_555
H6_5 C14_5 1_555 1_555
C15_5 C1_5 1_555 1_555
H7_5 C15_5 1_555 1_555
C16_5 C1_5 1_555 1_555
H8_5 C16_5 1_555 1_555
C17_5 C15_5 1_555 1_555
H9_5 C17_5 1_555 1_555
C18_5 N2_5 1_555 1_555
H10_5 C18_5 1_555 1_555
Ni4_5 N1_5 1_555 1_555
N3_5 Ni2_2 1_555 1_555
C5_5 C8_5 1_555 1_555
C6_5 C9_5 1_555 1_555
C11_5 C12_5 1_555 1_555
C13_5 C14_5 1_555 1_555
C16_5 C18_5 1_555 1_555
O5_2 C7_5 1_555 1_555
O8_2 C7_5 1_555 1_555
Ni2 N2_6 1_555 1_555
O6_3 C10_6 1_555 1_555
O7_3 C10_6 1_555 1_555
N1_6 C11_6 1_555 1_555
N2_6 C17_6 1_555 1_555
C1_6 C5_6 1_555 1_555
C2_6 H1_6 1_555 1_555
C3_6 C6_6 1_555 1_555
C4_6 H2_6 1_555 1_555
C5_6 C4_6 1_555 1_555
C6_6 C4_6 1_555 1_555
C8_6 C2_6 1_555 1_555
C9_6 C2_6 1_555 1_555
C10_6 C8_6 1_555 1_555
C11_6 H3_6 1_555 1_555
C12_6 C3_6 1_555 1_555
H4_6 C12_6 1_555 1_555
C13_6 N1_6 1_555 1_555
H5_6 C13_6 1_555 1_555
C14_6 C3_6 1_555 1_555
H6_6 C14_6 1_555 1_555
C15_6 C1_6 1_555 1_555
H7_6 C15_6 1_555 1_555
C16_6 C1_6 1_555 1_555
H8_6 C16_6 1_555 1_555
C17_6 C15_6 1_555 1_555
H9_6 C17_6 1_555 1_555
C18_6 N2_6 1_555 1_555
H10_6 C18_6 1_555 1_555
Ni4_6 N1_6 1_555 1_555
N3_6 Ni2 1_555 1_555
C5_6 C8_6 1_555 1_555
C6_6 C9_6 1_555 1_555
C11_6 C12_6 1_555 1_555
C13_6 C14_6 1_555 1_555
C16_6 C18_6 1_555 1_555
O5 C7_6 1_555 1_555
O8 C7_6 1_555 1_555
O5_3 C7_7 1_555 1_555
O8_3 C7_7 1_555 1_555
Ni3_2 N2_7 1_555 1_555
O6_2 C10_7 1_555 1_555
O7_2 C10_7 1_555 1_555
N1_7 C11_7 1_555 1_555
N2_7 C17_7 1_555 1_555
C1_7 C5_7 1_555 1_555
C2_7 H1_7 1_555 1_555
C3_7 C6_7 1_555 1_555
C4_7 H2_7 1_555 1_555
C5_7 C4_7 1_555 1_555
C6_7 C4_7 1_555 1_555
C8_7 C2_7 1_555 1_555
C9_7 C2_7 1_555 1_555
C10_7 C8_7 1_555 1_555
C11_7 H3_7 1_555 1_555
C12_7 C3_7 1_555 1_555
H4_7 C12_7 1_555 1_555
C13_7 N1_7 1_555 1_555
H5_7 C13_7 1_555 1_555
C14_7 C3_7 1_555 1_555
H6_7 C14_7 1_555 1_555
C15_7 C1_7 1_555 1_555
H7_7 C15_7 1_555 1_555
C16_7 C1_7 1_555 1_555
H8_7 C16_7 1_555 1_555
C17_7 C15_7 1_555 1_555
H9_7 C17_7 1_555 1_555
C18_7 N2_7 1_555 1_555
H10_7 C18_7 1_555 1_555
Ni4_7 N1_7 1_555 1_555
N3_7 Ni3_2 1_555 1_555
C5_7 C8_7 1_555 1_555
C6_7 C9_7 1_555 1_555
C11_7 C12_7 1_555 1_555
C13_7 C14_7 1_555 1_555
C16_7 C18_7 1_555 1_555
O5_4 C7_8 1_555 1_555
O8_4 C7_8 1_555 1_555
Ni3 N2_8 1_555 1_555
O6 C10_8 1_555 1_555
O7 C10_8 1_555 1_555
N1_8 C11_8 1_555 1_555
N2_8 C17_8 1_555 1_555
C1_8 C5_8 1_555 1_555
C2_8 H1_8 1_555 1_555
C3_8 C6_8 1_555 1_555
C4_8 H2_8 1_555 1_555
C5_8 C4_8 1_555 1_555
C6_8 C4_8 1_555 1_555
C8_8 C2_8 1_555 1_555
C9_8 C2_8 1_555 1_555
C10_8 C8_8 1_555 1_555
C11_8 H3_8 1_555 1_555
C12_8 C3_8 1_555 1_555
H4_8 C12_8 1_555 1_555
C13_8 N1_8 1_555 1_555
H5_8 C13_8 1_555 1_555
C14_8 C3_8 1_555 1_555
H6_8 C14_8 1_555 1_555
C15_8 C1_8 1_555 1_555
H7_8 C15_8 1_555 1_555
C16_8 C1_8 1_555 1_555
H8_8 C16_8 1_555 1_555
C17_8 C15_8 1_555 1_555
H9_8 C17_8 1_555 1_555
C18_8 N2_8 1_555 1_555
H10_8 C18_8 1_555 1_555
Ni4_8 N1_8 1_555 1_555
N3_8 Ni3 1_555 1_555
C5_8 C8_8 1_555 1_555
C6_8 C9_8 1_555 1_555
C11_8 C12_8 1_555 1_555
C13_8 C14_8 1_555 1_555
C16_8 C18_8 1_555 1_555
Ni4_3 N2_9 1_555 1_555
O2_5 C10_9 1_555 1_555
O3_5 C10_9 1_555 1_555
N2_9 C17_9 1_555 1_555
C1_9 C5_9 1_555 1_555
C2_9 H1_9 1_555 1_555
C8_9 C2_9 1_555 1_555
C10_9 C8_9 1_555 1_555
C15_9 C1_9 1_555 1_555
C16_9 C1_9 1_555 1_555
H8_9 C16_9 1_555 1_555
C17_9 C15_9 1_555 1_555
H9_9 C17_9 1_555 1_555
C18_9 N2_9 1_555 1_555
H10_9 C18_9 1_555 1_555
Ni4_5 O2_5 1_555 1_555
O5_5 Ni4_3 1_555 1_555
O6_5 Ni4_3 1_555 1_555
O7_5 Ni4_3 1_555 1_555
O8_5 Ni4_3 1_555 1_555
O3_5 Ni4_5 1_555 1_555
C5_9 C8_9 1_555 1_555
C16_9 C18_9 1_555 1_555
N3_4 C11_9 1_555 1_555
C3_9 C6_9 1_555 1_555
C4_9 H2_9 1_555 1_555
C6_9 C4_9 1_555 1_555
C11_9 H3_9 1_555 1_555
C12_9 C3_9 1_555 1_555
H4_9 C12_9 1_555 1_555
C13_9 N3_4 1_555 1_555
H5_9 C13_9 1_555 1_555
C14_9 C3_9 1_555 1_555
H6_9 C14_9 1_555 1_555
C6_9 C9_9 1_555 1_555
C11_9 C12_9 1_555 1_555
C13_9 C14_9 1_555 1_555
O1_5 C7_9 1_555 1_555
O4_5 C7_9 1_555 1_555
Ni4_8 O1_5 1_555 1_555
O4_5 Ni4_8 1_555 1_555
N3_3 C11_10 1_555 1_555
C3_10 C6_10 1_555 1_555
C4_10 H2_10 1_555 1_555
C6_10 C4_10 1_555 1_555
C11_10 H3_10 1_555 1_555
C12_10 C3_10 1_555 1_555
H4_10 C12_10 1_555 1_555
C13_10 N3_3 1_555 1_555
H5_10 C13_10 1_555 1_555
C14_10 C3_10 1_555 1_555
H6_10 C14_10 1_555 1_555
C6_10 C9_10 1_555 1_555
C11_10 C12_10 1_555 1_555
C13_10 C14_10 1_555 1_555
O1_6 C7_10 1_555 1_555
O4_6 C7_10 1_555 1_555
Ni4_7 O1_6 1_555 1_555
O4_6 Ni4_7 1_555 1_555
Ni4_4 N2_10 1_555 1_555
O2_6 C10_10 1_555 1_555
O3_6 C10_10 1_555 1_555
N2_10 C17_10 1_555 1_555
C1_10 C5_10 1_555 1_555
C2_10 H1_10 1_555 1_555
C8_10 C2_10 1_555 1_555
C10_10 C8_10 1_555 1_555
C15_10 C1_10 1_555 1_555
C16_10 C1_10 1_555 1_555
H8_10 C16_10 1_555 1_555
C17_10 C15_10 1_555 1_555
H9_10 C17_10 1_555 1_555
C18_10 N2_10 1_555 1_555
H10_10 C18_10 1_555 1_555
Ni4_6 O2_6 1_555 1_555
O5_6 Ni4_4 1_555 1_555
O6_6 Ni4_4 1_555 1_555
O7_6 Ni4_4 1_555 1_555
O8_6 Ni4_4 1_555 1_555
O3_6 Ni4_6 1_555 1_555
C5_10 C8_10 1_555 1_555
C16_10 C18_10 1_555 1_555
O1_7 C7_11 1_555 1_555
O4_7 C7_11 1_555 1_555
Ni4_6 O1_7 1_555 1_555
O4_7 Ni4_6 1_555 1_555
N3 C11_11 1_555 1_555
C3_11 C6_11 1_555 1_555
C4_11 H2_11 1_555 1_555
C6_11 C4_11 1_555 1_555
C11_11 H3_11 1_555 1_555
C12_11 C3_11 1_555 1_555
H4_11 C12_11 1_555 1_555
C13_11 N3 1_555 1_555
H5_11 C13_11 1_555 1_555
C14_11 C3_11 1_555 1_555
H6_11 C14_11 1_555 1_555
C6_11 C9_11 1_555 1_555
C11_11 C12_11 1_555 1_555
C13_11 C14_11 1_555 1_555
Ni4_2 N2_11 1_555 1_555
O2_7 C10_11 1_555 1_555
O3_7 C10_11 1_555 1_555
N2_11 C17_11 1_555 1_555
C1_11 C5_11 1_555 1_555
C2_11 H1_11 1_555 1_555
C8_11 C2_11 1_555 1_555
C10_11 C8_11 1_555 1_555
C15_11 C1_11 1_555 1_555
C16_11 C1_11 1_555 1_555
H8_11 C16_11 1_555 1_555
C17_11 C15_11 1_555 1_555
H9_11 C17_11 1_555 1_555
C18_11 N2_11 1_555 1_555
H10_11 C18_11 1_555 1_555
Ni4_8 O2_7 1_555 1_555
O5_7 Ni4_2 1_555 1_555
O6_7 Ni4_2 1_555 1_555
O7_7 Ni4_2 1_555 1_555
O8_7 Ni4_2 1_555 1_555
O3_7 Ni4_8 1_555 1_555
C5_11 C8_11 1_555 1_555
C16_11 C18_11 1_555 1_555
Ni4 N2_12 1_555 1_555
O2_8 C10_12 1_555 1_555
O3_8 C10_12 1_555 1_555
N2_12 C17_12 1_555 1_555
C1_12 C5_12 1_555 1_555
C2_12 H1_12 1_555 1_555
C8_12 C2_12 1_555 1_555
C10_12 C8_12 1_555 1_555
C15_12 C1_12 1_555 1_555
C16_12 C1_12 1_555 1_555
H8_12 C16_12 1_555 1_555
C17_12 C15_12 1_555 1_555
H9_12 C17_12 1_555 1_555
C18_12 N2_12 1_555 1_555
H10_12 C18_12 1_555 1_555
Ni4_7 O2_8 1_555 1_555
O5_8 Ni4 1_555 1_555
O6_8 Ni4 1_555 1_555
O7_8 Ni4 1_555 1_555
O8_8 Ni4 1_555 1_555
O3_8 Ni4_7 1_555 1_555
C5_12 C8_12 1_555 1_555
C16_12 C18_12 1_555 1_555
O1_8 C7_12 1_555 1_555
O4_8 C7_12 1_555 1_555
Ni4_5 O1_8 1_555 1_555
O4_8 Ni4_5 1_555 1_555
N3_2 C11_12 1_555 1_555
C3_12 C6_12 1_555 1_555
C4_12 H2_12 1_555 1_555
C6_12 C4_12 1_555 1_555
C11_12 H3_12 1_555 1_555
C12_12 C3_12 1_555 1_555
H4_12 C12_12 1_555 1_555
C13_12 N3_2 1_555 1_555
H5_12 C13_12 1_555 1_555
C14_12 C3_12 1_555 1_555
H6_12 C14_12 1_555 1_555
C6_12 C9_12 1_555 1_555
C11_12 C12_12 1_555 1_555
C13_12 C14_12 1_555 1_555
Ni4_7 N2_13 1_555 1_555
O6_8 C10_13 1_555 1_555
O7_8 C10_13 1_555 1_555
N2_13 C17_13 1_555 1_555
C1_13 C5_13 1_555 1_555
C2_13 H1_13 1_555 1_555
C8_13 C2_13 1_555 1_555
C10_13 C8_13 1_555 1_555
C15_13 C1_13 1_555 1_555
C16_13 C1_13 1_555 1_555
H8_13 C16_13 1_555 1_555
C17_13 C15_13 1_555 1_555
H9_13 C17_13 1_555 1_555
C18_13 N2_13 1_555 1_555
H10_13 C18_13 1_555 1_555
C5_13 C8_13 1_555 1_555
C16_13 C18_13 1_555 1_555
O5_6 C7_13 1_555 1_555
O8_6 C7_13 1_555 1_555
N3_8 C11_13 1_555 1_555
C3_13 C6_13 1_555 1_555
C4_13 H2_13 1_555 1_555
C6_13 C4_13 1_555 1_555
C7_13 C9_13 1_555 1_555
C11_13 H3_13 1_555 1_555
C12_13 C3_13 1_555 1_555
H4_13 C12_13 1_555 1_555
C13_13 N3_8 1_555 1_555
H5_13 C13_13 1_555 1_555
C14_13 C3_13 1_555 1_555
H6_13 C14_13 1_555 1_555
C6_13 C9_13 1_555 1_555
C11_13 C12_13 1_555 1_555
C13_13 C14_13 1_555 1_555
O5_5 C7_14 1_555 1_555
O8_5 C7_14 1_555 1_555
N3_7 C11_14 1_555 1_555
C3_14 C6_14 1_555 1_555
C4_14 H2_14 1_555 1_555
C6_14 C4_14 1_555 1_555
C7_14 C9_14 1_555 1_555
C11_14 H3_14 1_555 1_555
C12_14 C3_14 1_555 1_555
H4_14 C12_14 1_555 1_555
C13_14 N3_7 1_555 1_555
H5_14 C13_14 1_555 1_555
C14_14 C3_14 1_555 1_555
H6_14 C14_14 1_555 1_555
C6_14 C9_14 1_555 1_555
C11_14 C12_14 1_555 1_555
C13_14 C14_14 1_555 1_555
Ni4_8 N2_14 1_555 1_555
O6_7 C10_14 1_555 1_555
O7_7 C10_14 1_555 1_555
N2_14 C17_14 1_555 1_555
C1_14 C5_14 1_555 1_555
C2_14 H1_14 1_555 1_555
C8_14 C2_14 1_555 1_555
C10_14 C8_14 1_555 1_555
C15_14 C1_14 1_555 1_555
C16_14 C1_14 1_555 1_555
H8_14 C16_14 1_555 1_555
C17_14 C15_14 1_555 1_555
H9_14 C17_14 1_555 1_555
C18_14 N2_14 1_555 1_555
H10_14 C18_14 1_555 1_555
C5_14 C8_14 1_555 1_555
C16_14 C18_14 1_555 1_555
Ni4_6 N2_15 1_555 1_555
O6_6 C10_15 1_555 1_555
O7_6 C10_15 1_555 1_555
N2_15 C17_15 1_555 1_555
C1_15 C5_15 1_555 1_555
C2_15 H1_15 1_555 1_555
C8_15 C2_15 1_555 1_555
C10_15 C8_15 1_555 1_555
C15_15 C1_15 1_555 1_555
C16_15 C1_15 1_555 1_555
H8_15 C16_15 1_555 1_555
C17_15 C15_15 1_555 1_555
H9_15 C17_15 1_555 1_555
C18_15 N2_15 1_555 1_555
H10_15 C18_15 1_555 1_555
C5_15 C8_15 1_555 1_555
C16_15 C18_15 1_555 1_555
O5_7 C7_15 1_555 1_555
O8_7 C7_15 1_555 1_555
N3_5 C11_15 1_555 1_555
C3_15 C6_15 1_555 1_555
C4_15 H2_15 1_555 1_555
C6_15 C4_15 1_555 1_555
C7_15 C9_15 1_555 1_555
C11_15 H3_15 1_555 1_555
C12_15 C3_15 1_555 1_555
H4_15 C12_15 1_555 1_555
C13_15 N3_5 1_555 1_555
H5_15 C13_15 1_555 1_555
C14_15 C3_15 1_555 1_555
H6_15 C14_15 1_555 1_555
C6_15 C9_15 1_555 1_555
C11_15 C12_15 1_555 1_555
C13_15 C14_15 1_555 1_555
O5_8 C7_16 1_555 1_555
O8_8 C7_16 1_555 1_555
N3_6 C11_16 1_555 1_555
C3_16 C6_16 1_555 1_555
C4_16 H2_16 1_555 1_555
C6_16 C4_16 1_555 1_555
C7_16 C9_16 1_555 1_555
C11_16 H3_16 1_555 1_555
C12_16 C3_16 1_555 1_555
H4_16 C12_16 1_555 1_555
C13_16 N3_6 1_555 1_555
H5_16 C13_16 1_555 1_555
C14_16 C3_16 1_555 1_555
H6_16 C14_16 1_555 1_555
C6_16 C9_16 1_555 1_555
C11_16 C12_16 1_555 1_555
C13_16 C14_16 1_555 1_555
Ni4_5 N2_16 1_555 1_555
O6_5 C10_16 1_555 1_555
O7_5 C10_16 1_555 1_555
N2_16 C17_16 1_555 1_555
C1_16 C5_16 1_555 1_555
C2_16 H1_16 1_555 1_555
C8_16 C2_16 1_555 1_555
C10_16 C8_16 1_555 1_555
C15_16 C1_16 1_555 1_555
C16_16 C1_16 1_555 1_555
H8_16 C16_16 1_555 1_555
C17_16 C15_16 1_555 1_555
H9_16 C17_16 1_555 1_555
C18_16 N2_16 1_555 1_555
H10_16 C18_16 1_555 1_555
C5_16 C8_16 1_555 1_555
C16_16 C18_16 1_555 1_555

#END
