
###############################################################################
#
# This file contains modified crystal structure data generated from the
# MOF subset of the Cambridge Structural Database (CSD) v543 
# hosted by the Cambridge Crystallographic Data Centre (CCDC).
#
# This work is licensed under the Creative Commons
# Attribution-NonCommercial-ShareAlike 4.0 International License.
# To view a copy of this license, visit
# http://creativecommons.org/licenses/by-nc-sa/4.0/
# or send a letter to
# Creative Commons, PO Box 1866, Mountain View, CA 94042, USA.
#
# CIF created using the CSD Python API on 29 September 2022
# The structure has been converted into the P1 space group
# The structure has a 3D framework
# The original CSD entry BAMKIM is in the monoclinic crystal system
# The framework has been calculated to contain at least 10.0% void space
# The void calculation uses a probe of radius 1.32A, grid spacing 0.4
# The framework is charged, counterions have been retained in the structure
#
###############################################################################

data_BAMKIM
_chemical_formula_moiety         '(C88 H84 Br4 Cu8 N24 O18)n'
_symmetry_cell_setting           triclinic
_symmetry_space_group_name_H-M   'P 1'
_symmetry_Int_Tables_number      1
_space_group_name_Hall           'P 1'
loop_
_symmetry_equiv_pos_site_id
_symmetry_equiv_pos_as_xyz
1 x,y,z
_cell_length_a                   9.6552(2)
_cell_length_b                   17.1958(5)
_cell_length_c                   20.8804(6)
_cell_angle_alpha                90
_cell_angle_beta                 94.231(2)
_cell_angle_gamma                90
_cell_volume                     3457.3
loop_
_atom_site_label
_atom_site_type_symbol
_atom_site_fract_x
_atom_site_fract_y
_atom_site_fract_z
Br1 Br 0.4043(3) 0.19710(13) 0.46669(11)
Br1_2 Br 0.5957(3) 0.69710(13) 0.03331(11)
Br1_3 Br 0.5957(3) 0.80290(13) 0.53331(11)
Br1_4 Br 0.4043(3) 0.30290(13) 0.96669(11)
Cu5 Cu 0.29918(6) 0.00659(4) 0.02393(3)
Cu1 Cu 0.29918(6) 0.49341(4) 0.52393(3)
Cu2 Cu 0.00104(6) 0.52158(4) 0.42825(3)
O1 O 0.3127(4) 0.4043(2) 0.5816(2)
O2 O 0.1072(4) 0.4027(3) 0.62553(19)
O3 O 0.0498(5) 0.0626(3) 0.8334(2)
O5 O 0.1230(4) 0.4598(2) 0.48512(18)
H1 H 0.132(7) 0.4111(13) 0.484(3)
N1 N 0.2778(5) 0.5902(3) 0.4681(2)
N2 N 0.1499(5) 0.6031(3) 0.4365(2)
N3 N 0.2845(5) 0.7015(3) 0.4188(2)
N4 N 0.5799(5) 0.9327(3) 0.0566(2)
N5 N 0.4557(5) 0.9601(3) 0.0778(2)
N6 N 0.5776(5) 0.9125(3) 0.1592(2)
C1 C 0.3559(6) 0.6505(4) 0.4569(3)
H2 H 0.4475 0.6569 0.4731
C2 C 0.1566(6) 0.6708(4) 0.4081(3)
H3 H 0.0835 0.6943 0.3839
C3 C 0.3321(7) 0.7751(4) 0.3925(3)
H4 H 0.4060 0.7961 0.4215
H5 H 0.2559 0.8120 0.3903
C4 C 0.3847(6) 0.7665(4) 0.3263(3)
C5 C 0.3518(7) 0.7044(4) 0.2857(3)
H6 H 0.2947 0.6649 0.2990
C6 C 0.4029(8) 0.7006(5) 0.2257(4)
H7 H 0.3800 0.6588 0.1987
C7 C 0.4885(7) 0.7593(4) 0.2057(3)
H8 H 0.5235 0.7564 0.1655
C8 C 0.5219(6) 0.8219(4) 0.2454(3)
C9 C 0.4686(6) 0.8263(4) 0.3054(3)
H9 H 0.4889 0.8690 0.3317
C10 C 0.6187(7) 0.8857(5) 0.2264(3)
H10 H 0.6147 0.9291 0.2559
H11 H 0.7134 0.8665 0.2288
C11 C 0.6492(6) 0.9053(4) 0.1070(3)
H12 H 0.7373 0.8833 0.1069
C12 C 0.4577(6) 0.9469(4) 0.1393(3)
H13 H 0.3868 0.9595 0.1653
C13 C 0.2262(6) 0.3767(4) 0.6178(3)
C14 C 0.2767(8) 0.3068(5) 0.6566(4)
H14 H 0.3565 0.3223 0.6846
H15 H 0.3079 0.2678 0.6273
C15 C 0.1713(7) 0.2698(5) 0.6971(4)
C16 C 0.1549(8) 0.2976(5) 0.7588(5)
H16 H 0.2075 0.3396 0.7749
C17 C 0.0598(9) 0.2625(5) 0.7960(4)
H17 H 0.0517 0.2808 0.8374
C20 C 0.0913(8) 0.2084(5) 0.6751(4)
H19 H 0.1006 0.1885 0.6342
O7 O 0.0498(5) 0.4374(3) 0.3334(2)
O8 O 0.1190(4) 0.5676(3) 0.6014(2)
N7 N 0.4201(5) 0.4327(3) 0.4434(2)
N8 N 0.4557(5) 0.5399(3) 0.5778(2)
Cu4 Cu 0.70082(6) 0.99341(4) 0.97607(3)
Cu7 Cu 0.00104(6) 0.97842(4) 0.92825(3)
O4 O 0.8810(4) 0.0676(3) 0.8986(2)
C18 C 0.9792(7) 0.2033(5) 0.7748(4)
C19 C 0.9952(8) 0.1755(5) 0.7143(5)
H18 H 0.9410 0.1338 0.6989
C21 C 0.8795(8) 0.1643(5) 0.8171(5)
H20 H 0.7967 0.1490 0.7911
H21 H 0.8522 0.2012 0.8490
C22 C 0.9426(7) 0.0929(4) 0.8511(3)
Cu6 Cu 0.99896(6) 0.47842(4) 0.57175(3)
O6 O 0.8928(4) 0.5973(3) 0.37447(19)
O9 O 0.8810(4) 0.4324(3) 0.3986(2)
O10 O 0.8770(4) 0.5402(2) 0.51488(18)
O6_2 O 0.1072(4) 0.0973(3) 0.12553(19)
O10_2 O 0.1230(4) 0.0402(2) 0.98512(18)
O9_2 O 0.1190(4) 0.9324(3) 0.1014(2)
C18_2 C 0.0208(7) 0.7033(5) 0.7252(4)
C19_2 C 0.0048(8) 0.6755(5) 0.7857(5)
H18_2 H 0.0590 0.6338 0.8011
C21_2 C 0.1205(8) 0.6643(5) 0.6829(5)
H20_2 H 0.2033 0.6490 0.7089
H21_2 H 0.1478 0.7012 0.6510
C22_2 C 0.0574(7) 0.5929(4) 0.6489(3)
Cu2_2 Cu 0.99896(6) 0.02158(4) 0.07175(3)
N1_2 N 0.7222(5) 0.0902(3) 0.0319(2)
N2_2 N 0.8501(5) 0.1031(3) 0.0635(2)
N3_2 N 0.7155(5) 0.2015(3) 0.0812(2)
N5_2 N 0.5443(5) 0.4601(3) 0.4222(2)
N6_2 N 0.4224(5) 0.4125(3) 0.3408(2)
C1_2 C 0.6441(6) 0.1505(4) 0.0431(3)
H2_2 H 0.5525 0.1569 0.0269
C2_2 C 0.8434(6) 0.1708(4) 0.0919(3)
H3_2 H 0.9165 0.1943 0.1161
C3_2 C 0.6679(7) 0.2751(4) 0.1075(3)
H4_2 H 0.5940 0.2961 0.0785
H5_2 H 0.7441 0.3120 0.1097
C4_2 C 0.6153(6) 0.2665(4) 0.1737(3)
C5_2 C 0.6482(7) 0.2044(4) 0.2143(3)
H6_2 H 0.7053 0.1649 0.2010
C6_2 C 0.5971(8) 0.2006(5) 0.2743(4)
H7_2 H 0.6200 0.1588 0.3013
C7_2 C 0.5115(7) 0.2593(4) 0.2943(3)
H8_2 H 0.4765 0.2564 0.3345
C8_2 C 0.4781(6) 0.3219(4) 0.2546(3)
C9_2 C 0.5314(6) 0.3263(4) 0.1946(3)
H9_2 H 0.5111 0.3690 0.1683
C10_2 C 0.3813(7) 0.3857(5) 0.2736(3)
H10_2 H 0.3853 0.4291 0.2441
H11_2 H 0.2866 0.3665 0.2712
C11_2 C 0.3508(6) 0.4053(4) 0.3930(3)
H12_2 H 0.2627 0.3833 0.3931
C12_2 C 0.5423(6) 0.4469(4) 0.3607(3)
H13_2 H 0.6132 0.4595 0.3347
Cu5_2 Cu 0.70082(6) 0.50659(4) 0.47607(3)
N8_2 N 0.5443(5) 0.0399(3) 0.9222(2)
O5_2 O 0.8770(4) 0.9598(2) 0.01488(18)
H1_2 H 0.868(7) 0.9111(13) 0.016(3)
O7_2 O 0.9502(5) 0.9374(3) 0.1666(2)
O1_2 O 0.6873(4) 0.9043(2) 0.9184(2)
O2_2 O 0.8928(4) 0.9027(3) 0.87447(19)
O3_2 O 0.9502(5) 0.5626(3) 0.6666(2)
C13_2 C 0.7738(6) 0.8767(4) 0.8822(3)
C14_2 C 0.7233(8) 0.8068(5) 0.8434(4)
H14_2 H 0.6435 0.8223 0.8154
H15_2 H 0.6921 0.7678 0.8727
C15_2 C 0.8287(7) 0.7698(5) 0.8029(4)
C16_2 C 0.8451(8) 0.7976(5) 0.7412(5)
H16_2 H 0.7925 0.8396 0.7251
C17_2 C 0.9402(9) 0.7625(5) 0.7040(4)
H17_2 H 0.9483 0.7808 0.6626
C20_2 C 0.9087(8) 0.7084(5) 0.8249(4)
H19_2 H 0.8994 0.6885 0.8658
C18_3 C 0.0208(7) 0.7967(5) 0.2252(4)
C19_3 C 0.0048(8) 0.8245(5) 0.2857(5)
H18_3 H 0.0590 0.8662 0.3011
C21_3 C 0.1205(8) 0.8357(5) 0.1829(5)
H20_3 H 0.2033 0.8510 0.2089
H21_3 H 0.1478 0.7988 0.1510
C22_3 C 0.0574(7) 0.9071(4) 0.1489(3)
O1_3 O 0.6873(4) 0.5957(2) 0.4184(2)
H1_3 H 0.868(7) 0.5889(13) 0.516(3)
N1_3 N 0.7222(5) 0.4098(3) 0.5319(2)
N2_3 N 0.8501(5) 0.3969(3) 0.5635(2)
N3_3 N 0.7155(5) 0.2985(3) 0.5812(2)
N4_2 N 0.4201(5) 0.0673(3) 0.9434(2)
N6_3 N 0.4224(5) 0.0875(3) 0.8408(2)
C1_3 C 0.6441(6) 0.3495(4) 0.5431(3)
H2_3 H 0.5525 0.3431 0.5269
C2_3 C 0.8434(6) 0.3292(4) 0.5919(3)
H3_3 H 0.9165 0.3057 0.6161
C3_3 C 0.6679(7) 0.2249(4) 0.6075(3)
H4_3 H 0.5940 0.2039 0.5785
H5_3 H 0.7441 0.1880 0.6097
C4_3 C 0.6153(6) 0.2335(4) 0.6737(3)
C5_3 C 0.6482(7) 0.2956(4) 0.7143(3)
H6_3 H 0.7053 0.3351 0.7010
C6_3 C 0.5971(8) 0.2994(5) 0.7743(4)
H7_3 H 0.6200 0.3412 0.8013
C7_3 C 0.5115(7) 0.2407(4) 0.7943(3)
H8_3 H 0.4765 0.2436 0.8345
C8_3 C 0.4781(6) 0.1781(4) 0.7546(3)
C9_3 C 0.5314(6) 0.1737(4) 0.6946(3)
H9_3 H 0.5111 0.1310 0.6683
C10_3 C 0.3813(7) 0.1143(5) 0.7736(3)
H10_3 H 0.3853 0.0709 0.7441
H11_3 H 0.2866 0.1335 0.7712
C11_3 C 0.3508(6) 0.0947(4) 0.8930(3)
H12_3 H 0.2627 0.1167 0.8931
C12_3 C 0.5423(6) 0.0531(4) 0.8607(3)
H13_3 H 0.6132 0.0405 0.8347
C13_3 C 0.7738(6) 0.6233(4) 0.3822(3)
C14_3 C 0.7233(8) 0.6932(5) 0.3434(4)
H14_3 H 0.6435 0.6777 0.3154
H15_3 H 0.6921 0.7322 0.3727
C15_3 C 0.8287(7) 0.7302(5) 0.3029(4)
C16_3 C 0.8451(8) 0.7024(5) 0.2412(5)
H16_3 H 0.7925 0.6604 0.2251
C17_3 C 0.9402(9) 0.7375(5) 0.2040(4)
H17_3 H 0.9483 0.7192 0.1626
C20_3 C 0.9087(8) 0.7916(5) 0.3249(4)
H19_3 H 0.8994 0.8115 0.3658
N7_2 N 0.5799(5) 0.5673(3) 0.5566(2)
O1_4 O 0.3127(4) 0.0957(2) 0.0816(2)
C13_4 C 0.2262(6) 0.1233(4) 0.1178(3)
C14_4 C 0.2767(8) 0.1932(5) 0.1566(4)
H14_4 H 0.3565 0.1777 0.1846
H15_4 H 0.3079 0.2322 0.1273
C15_4 C 0.1713(7) 0.2302(5) 0.1971(4)
C16_4 C 0.1549(8) 0.2024(5) 0.2588(5)
H16_4 H 0.2075 0.1604 0.2749
C17_4 C 0.0598(9) 0.2375(5) 0.2960(4)
H17_4 H 0.0517 0.2192 0.3374
C20_4 C 0.0913(8) 0.2916(5) 0.1751(4)
H19_4 H 0.1006 0.3115 0.1342
H1_4 H 0.132(7) 0.0889(13) 0.984(3)
N1_4 N 0.2778(5) 0.9098(3) 0.9681(2)
N2_4 N 0.1499(5) 0.8969(3) 0.9365(2)
N3_4 N 0.2845(5) 0.7985(3) 0.9188(2)
N6_4 N 0.5776(5) 0.5875(3) 0.6592(2)
C1_4 C 0.3559(6) 0.8495(4) 0.9569(3)
H2_4 H 0.4475 0.8431 0.9731
C2_4 C 0.1566(6) 0.8292(4) 0.9081(3)
H3_4 H 0.0835 0.8057 0.8839
C3_4 C 0.3321(7) 0.7249(4) 0.8925(3)
H4_4 H 0.4060 0.7039 0.9215
H5_4 H 0.2559 0.6880 0.8903
C4_4 C 0.3847(6) 0.7335(4) 0.8263(3)
C5_4 C 0.3518(7) 0.7956(4) 0.7857(3)
H6_4 H 0.2947 0.8351 0.7990
C6_4 C 0.4029(8) 0.7994(5) 0.7257(4)
H7_4 H 0.3800 0.8412 0.6987
C7_4 C 0.4885(7) 0.7407(4) 0.7057(3)
H8_4 H 0.5235 0.7436 0.6655
C8_4 C 0.5219(6) 0.6781(4) 0.7454(3)
C9_4 C 0.4686(6) 0.6737(4) 0.8054(3)
H9_4 H 0.4889 0.6310 0.8317
C10_4 C 0.6187(7) 0.6143(5) 0.7264(3)
H10_4 H 0.6147 0.5709 0.7559
H11_4 H 0.7134 0.6335 0.7288
C11_4 C 0.6492(6) 0.5947(4) 0.6070(3)
H12_4 H 0.7373 0.6167 0.6069
C12_4 C 0.4577(6) 0.5531(4) 0.6393(3)
H13_4 H 0.3868 0.5405 0.6653
C18_4 C 0.9792(7) 0.2967(5) 0.2748(4)
C19_4 C 0.9952(8) 0.3245(5) 0.2143(5)
H18_4 H 0.9410 0.3662 0.1989
C21_4 C 0.8795(8) 0.3357(5) 0.3171(5)
H20_4 H 0.7967 0.3510 0.2911
H21_4 H 0.8522 0.2988 0.3490
C22_4 C 0.9426(7) 0.4071(4) 0.3511(3)
loop_
_geom_bond_atom_site_label_1
_geom_bond_atom_site_label_2
_geom_bond_site_symmetry_1
_geom_bond_site_symmetry_2
Cu1 O1 1_555 1_555
Cu2 O5 1_555 1_555
O1 C13 1_555 1_555
O2 C13 1_555 1_555
O5 Cu1 1_555 1_555
H1 O5 1_555 1_555
N1 Cu1 1_555 1_555
N2 Cu2 1_555 1_555
N3 C1 1_555 1_555
N4 N5 1_555 1_555
N5 C12 1_555 1_555
N6 C10 1_555 1_555
C1 N1 1_555 1_555
H2 C1 1_555 1_555
C2 N2 1_555 1_555
H3 C2 1_555 1_555
C3 N3 1_555 1_555
H4 C3 1_555 1_555
H5 C3 1_555 1_555
C4 C3 1_555 1_555
C5 C4 1_555 1_555
H6 C5 1_555 1_555
C6 C5 1_555 1_555
H7 C6 1_555 1_555
C7 C6 1_555 1_555
H8 C7 1_555 1_555
C8 C7 1_555 1_555
C9 C4 1_555 1_555
H9 C9 1_555 1_555
C10 C8 1_555 1_555
H10 C10 1_555 1_555
H11 C10 1_555 1_555
C11 N4 1_555 1_555
H12 C11 1_555 1_555
C12 N6 1_555 1_555
H13 C12 1_555 1_555
C13 C14 1_555 1_555
C14 H14 1_555 1_555
H15 C14 1_555 1_555
C15 C14 1_555 1_555
C16 C15 1_555 1_555
H16 C16 1_555 1_555
C17 C16 1_555 1_555
H17 C17 1_555 1_555
C20 C15 1_555 1_555
H19 C20 1_555 1_555
O7 Cu2 1_555 1_555
O8 Cu1 1_555 1_555
N7 Cu1 1_555 1_555
N8 Cu1 1_555 1_555
N1 N2 1_555 1_555
N3 C2 1_555 1_555
N6 C11 1_555 1_555
C8 C9 1_555 1_555
O4 C22 1_555 1_555
C19 C18 1_555 1_555
H18 C19 1_555 1_555
C21 C18 1_555 1_555
H20 C21 1_555 1_555
H21 C21 1_555 1_555
C22 C21 1_555 1_555
Cu6 O10 1_555 1_555
O8 C22_2 1_555 1_555
C19_2 C18_2 1_555 1_555
H18_2 C19_2 1_555 1_555
C21_2 C18_2 1_555 1_555
H20_2 C21_2 1_555 1_555
H21_2 C21_2 1_555 1_555
C22_2 C21_2 1_555 1_555
N2_2 Cu2_2 1_555 1_555
N3_2 C1_2 1_555 1_555
N7 N5_2 1_555 1_555
N5_2 C12_2 1_555 1_555
N6_2 C10_2 1_555 1_555
C1_2 N1_2 1_555 1_555
H2_2 C1_2 1_555 1_555
C2_2 N2_2 1_555 1_555
H3_2 C2_2 1_555 1_555
C3_2 N3_2 1_555 1_555
H4_2 C3_2 1_555 1_555
H5_2 C3_2 1_555 1_555
C4_2 C3_2 1_555 1_555
C5_2 C4_2 1_555 1_555
H6_2 C5_2 1_555 1_555
C6_2 C5_2 1_555 1_555
H7_2 C6_2 1_555 1_555
C7_2 C6_2 1_555 1_555
H8_2 C7_2 1_555 1_555
C8_2 C7_2 1_555 1_555
C9_2 C4_2 1_555 1_555
H9_2 C9_2 1_555 1_555
C10_2 C8_2 1_555 1_555
H10_2 C10_2 1_555 1_555
H11_2 C10_2 1_555 1_555
C11_2 N7 1_555 1_555
H12_2 C11_2 1_555 1_555
C12_2 N6_2 1_555 1_555
H13_2 C12_2 1_555 1_555
Cu5_2 N5_2 1_555 1_555
N1_2 N2_2 1_555 1_555
N3_2 C2_2 1_555 1_555
N6_2 C11_2 1_555 1_555
C8_2 C9_2 1_555 1_555
H1_2 O5_2 1_555 1_555
Cu4 O1_2 1_555 1_555
O1_2 C13_2 1_555 1_555
O2_2 C13_2 1_555 1_555
C13_2 C14_2 1_555 1_555
C14_2 H14_2 1_555 1_555
H15_2 C14_2 1_555 1_555
C15_2 C14_2 1_555 1_555
C16_2 C15_2 1_555 1_555
H16_2 C16_2 1_555 1_555
C17_2 C16_2 1_555 1_555
H17_2 C17_2 1_555 1_555
C20_2 C15_2 1_555 1_555
H19_2 C20_2 1_555 1_555
Cu6 O3_2 1_555 1_555
O9_2 C22_3 1_555 1_555
C19_3 C18_3 1_555 1_555
H18_3 C19_3 1_555 1_555
C21_3 C18_3 1_555 1_555
H20_3 C21_3 1_555 1_555
H21_3 C21_3 1_555 1_555
C22_3 C21_3 1_555 1_555
Cu5_2 O1_3 1_555 1_555
O1_3 C13_3 1_555 1_555
O6 C13_3 1_555 1_555
O10 Cu5_2 1_555 1_555
H1_3 O10 1_555 1_555
N1_3 Cu5_2 1_555 1_555
N2_3 Cu6 1_555 1_555
N3_3 C1_3 1_555 1_555
N4_2 N8_2 1_555 1_555
N8_2 C12_3 1_555 1_555
N6_3 C10_3 1_555 1_555
C1_3 N1_3 1_555 1_555
H2_3 C1_3 1_555 1_555
C2_3 N2_3 1_555 1_555
H3_3 C2_3 1_555 1_555
C3_3 N3_3 1_555 1_555
H4_3 C3_3 1_555 1_555
H5_3 C3_3 1_555 1_555
C4_3 C3_3 1_555 1_555
C5_3 C4_3 1_555 1_555
H6_3 C5_3 1_555 1_555
C6_3 C5_3 1_555 1_555
H7_3 C6_3 1_555 1_555
C7_3 C6_3 1_555 1_555
H8_3 C7_3 1_555 1_555
C8_3 C7_3 1_555 1_555
C9_3 C4_3 1_555 1_555
H9_3 C9_3 1_555 1_555
C10_3 C8_3 1_555 1_555
H10_3 C10_3 1_555 1_555
H11_3 C10_3 1_555 1_555
C11_3 N4_2 1_555 1_555
H12_3 C11_3 1_555 1_555
C12_3 N6_3 1_555 1_555
H13_3 C12_3 1_555 1_555
C13_3 C14_3 1_555 1_555
C14_3 H14_3 1_555 1_555
H15_3 C14_3 1_555 1_555
C15_3 C14_3 1_555 1_555
C16_3 C15_3 1_555 1_555
H16_3 C16_3 1_555 1_555
C17_3 C16_3 1_555 1_555
H17_3 C17_3 1_555 1_555
C20_3 C15_3 1_555 1_555
H19_3 C20_3 1_555 1_555
O9 Cu5_2 1_555 1_555
N7_2 Cu5_2 1_555 1_555
N1_3 N2_3 1_555 1_555
N3_3 C2_3 1_555 1_555
N6_3 C11_3 1_555 1_555
C8_3 C9_3 1_555 1_555
Cu5 O1_4 1_555 1_555
O1_4 C13_4 1_555 1_555
O6_2 C13_4 1_555 1_555
C13_4 C14_4 1_555 1_555
C14_4 H14_4 1_555 1_555
H15_4 C14_4 1_555 1_555
C15_4 C14_4 1_555 1_555
C16_4 C15_4 1_555 1_555
H16_4 C16_4 1_555 1_555
C17_4 C16_4 1_555 1_555
H17_4 C17_4 1_555 1_555
C20_4 C15_4 1_555 1_555
H19_4 C20_4 1_555 1_555
H1_4 O10_2 1_555 1_555
N2_4 Cu7 1_555 1_555
N3_4 C1_4 1_555 1_555
N7_2 N8 1_555 1_555
N8 C12_4 1_555 1_555
N6_4 C10_4 1_555 1_555
C1_4 N1_4 1_555 1_555
H2_4 C1_4 1_555 1_555
C2_4 N2_4 1_555 1_555
H3_4 C2_4 1_555 1_555
C3_4 N3_4 1_555 1_555
H4_4 C3_4 1_555 1_555
H5_4 C3_4 1_555 1_555
C4_4 C3_4 1_555 1_555
C5_4 C4_4 1_555 1_555
H6_4 C5_4 1_555 1_555
C6_4 C5_4 1_555 1_555
H7_4 C6_4 1_555 1_555
C7_4 C6_4 1_555 1_555
H8_4 C7_4 1_555 1_555
C8_4 C7_4 1_555 1_555
C9_4 C4_4 1_555 1_555
H9_4 C9_4 1_555 1_555
C10_4 C8_4 1_555 1_555
H10_4 C10_4 1_555 1_555
H11_4 C10_4 1_555 1_555
C11_4 N7_2 1_555 1_555
H12_4 C11_4 1_555 1_555
C12_4 N6_4 1_555 1_555
H13_4 C12_4 1_555 1_555
N1_4 N2_4 1_555 1_555
N3_4 C2_4 1_555 1_555
N6_4 C11_4 1_555 1_555
C8_4 C9_4 1_555 1_555
O9 C22_4 1_555 1_555
C19_4 C18_4 1_555 1_555
H18_4 C19_4 1_555 1_555
C21_4 C18_4 1_555 1_555
H20_4 C21_4 1_555 1_555
H21_4 C21_4 1_555 1_555
C22_4 C21_4 1_555 1_555

#END
