
###############################################################################
#
# This file contains modified crystal structure data generated from the
# MOF subset of the Cambridge Structural Database (CSD) v543 
# hosted by the Cambridge Crystallographic Data Centre (CCDC).
#
# This work is licensed under the Creative Commons
# Attribution-NonCommercial-ShareAlike 4.0 International License.
# To view a copy of this license, visit
# http://creativecommons.org/licenses/by-nc-sa/4.0/
# or send a letter to
# Creative Commons, PO Box 1866, Mountain View, CA 94042, USA.
#
# CIF created using the CSD Python API on 29 September 2022
# The structure has been converted into the P1 space group
# The structure has a 3D framework
# The original CSD entry BAMMUA is in the hexagonal crystal system
# The original CSD entry BAMMUA is in a Sohncke space group
# The framework has been calculated to contain at least 10.0% void space
# The void calculation uses a probe of radius 1.32A, grid spacing 0.4
# The framework is charged, counterions have been retained in the structure
#
###############################################################################

data_BAMMUA
_chemical_formula_moiety         '(C72 H120 Cu20 N36 O24 4+)n'
_symmetry_cell_setting           triclinic
_symmetry_space_group_name_H-M   'P 1'
_symmetry_Int_Tables_number      1
_space_group_name_Hall           'P 1'
loop_
_symmetry_equiv_pos_site_id
_symmetry_equiv_pos_as_xyz
1 x,y,z
_cell_length_a                   19.613(3)
_cell_length_b                   19.613(3)
_cell_length_c                   13.849(3)
_cell_angle_alpha                90
_cell_angle_beta                 90
_cell_angle_gamma                120
_cell_volume                     4613.57
loop_
_atom_site_label
_atom_site_type_symbol
_atom_site_fract_x
_atom_site_fract_y
_atom_site_fract_z
Cu11 Cu -0.000000 0.53847(12) 0.000000
Cu5 Cu -0.000000 0.46153(12) 0.500000
Cu11_2 Cu -0.000000 0.53847(12) 1.000000
N21 N 0.0946(5) 0.5074(5) 0.4355(6)
C22 C 0.8321(10) 0.3659(10) 0.0258(8)
H32 H 0.777942 0.323415 0.014979
C24 C 0.8265(12) 0.3852(12) 0.1307(9)
H37 H 0.823403 0.343997 0.171260
H38 H 0.872331 0.434135 0.147547
H39 H 0.780277 0.389472 0.139596
O8 O 0.8723(11) 0.3226(10) 0.0222(10)
H40 H 0.915330 0.347956 0.048420
C28 C 0.6341(10) 0.4662(14) 0.0258(8)
H42 H 0.676585 0.454527 0.014979
C30 C 0.6148(12) 0.4413(17) 0.1307(9)
H47 H 0.656003 0.479406 0.171260
H48 H 0.565865 0.438196 0.147547
H49 H 0.610528 0.390805 0.139596
O10 O 0.6774(10) 0.5497(15) 0.0222(10)
H50 H 0.652044 0.567374 0.048420
C34 C 0.5338(14) 0.1679(10) 0.0258(8)
H52 H 0.545473 0.222058 0.014979
C36 C 0.5587(17) 0.1735(12) 0.1307(9)
H57 H 0.520594 0.176597 0.171260
H58 H 0.561804 0.127669 0.147547
H59 H 0.609195 0.219723 0.139596
O12 O 0.4503(15) 0.1277(11) 0.0222(10)
H60 H 0.432626 0.084670 0.048420
Cu9 Cu 0.53847(12) 0.000000 0.000000
Cu10 Cu 0.46153(12) 0.46153(12) 0.000000
Cu11_3 Cu 1.000000 0.53847(12) 0.000000
Cu1 Cu 0.666667 0.333333 0.60127(12)
Cu2 Cu 0.52268(9) 0.26134(4) 0.750000
Cu3 Cu 0.46153(12) 0.000000 0.500000
N1 N 0.5919(5) 0.2202(5) 0.6002(5)
N2 N 0.5258(5) 0.1920(4) 0.6607(5)
C1 C 0.5797(9) 0.1629(6) 0.5442(6)
N3 N 0.5074(5) 0.0946(5) 0.5645(6)
C2 C 0.4794(7) 0.1184(6) 0.6371(7)
C3 C 0.4010(9) 0.0602(9) 0.6724(11)
H1 H 0.373767 0.023820 0.619029
C4 C 0.6341(10) 0.1679(10) 0.4742(8)
H2 H 0.676585 0.222058 0.485021
O1 O 0.3973(9) 0.0139(10) 0.7532(13)
H3 H 0.430167 0.000054 0.747107
C5 C 0.3543(11) 0.1007(11) 0.696(2)
H4 H 0.303040 0.062461 0.719377
H5 H 0.381346 0.139769 0.745268
H6 H 0.348955 0.125558 0.639308
C6 C 0.6148(12) 0.1735(12) 0.3693(9)
H7 H 0.656003 0.176597 0.328740
H8 H 0.565865 0.127669 0.352453
H9 H 0.610528 0.219723 0.360404
O2 O 0.6774(10) 0.1277(11) 0.4778(10)
H10 H 0.652044 0.084670 0.451580
Cu4 Cu 0.73866(4) 0.26134(10) 0.750000
Cu5_2 Cu 1.000000 0.46153(12) 0.500000
N4 N 0.7798(5) 0.3717(7) 0.6002(5)
N5 N 0.8080(4) 0.3338(6) 0.6607(5)
C7 C 0.8371(6) 0.4168(11) 0.5442(6)
N6 N 0.9054(5) 0.4128(7) 0.5645(6)
C8 C 0.8816(6) 0.3610(9) 0.6371(7)
C9 C 0.9398(9) 0.3408(13) 0.6724(11)
H11 H 0.976180 0.349947 0.619029
C10 C 0.8321(10) 0.4662(14) 0.4742(8)
H12 H 0.777942 0.454527 0.485021
O3 O 0.9861(10) 0.3834(13) 0.7532(13)
H13 H 0.999946 0.430113 0.747107
C11 C 0.8993(11) 0.2536(16) 0.696(2)
H14 H 0.937539 0.240579 0.719377
H15 H 0.860231 0.241577 0.745268
H16 H 0.874442 0.223397 0.639308
C12 C 0.8265(12) 0.4413(17) 0.3693(9)
H17 H 0.823403 0.479406 0.328740
H18 H 0.872331 0.438196 0.352453
H19 H 0.780277 0.390805 0.360404
O4 O 0.8723(11) 0.5497(15) 0.4778(10)
H20 H 0.915330 0.567374 0.451580
Cu6 Cu 0.73866(10) 0.47732(9) 0.750000
Cu7 Cu 0.53847(12) 0.53847(12) 0.500000
N7 N 0.6283(7) 0.4081(5) 0.6002(5)
N8 N 0.6662(6) 0.4742(5) 0.6607(5)
C13 C 0.5832(11) 0.4203(9) 0.5442(6)
N9 N 0.5872(7) 0.4926(5) 0.5645(6)
C14 C 0.6390(9) 0.5206(7) 0.6371(7)
C15 C 0.6592(13) 0.5990(9) 0.6724(11)
H21 H 0.650053 0.626233 0.619029
C16 C 0.5338(14) 0.3659(10) 0.4742(8)
H22 H 0.545473 0.323415 0.485021
O5 O 0.6166(13) 0.6027(9) 0.7532(13)
H23 H 0.569887 0.569833 0.747107
C17 C 0.7464(16) 0.6457(11) 0.696(2)
H24 H 0.759421 0.696960 0.719377
H25 H 0.758423 0.618654 0.745268
H26 H 0.776603 0.651045 0.639308
C18 C 0.5587(17) 0.3852(12) 0.3693(9)
H27 H 0.520594 0.343997 0.328740
H28 H 0.561804 0.434135 0.352453
H29 H 0.609195 0.389472 0.360404
O6 O 0.4503(15) 0.3226(10) 0.4778(10)
H30 H 0.432626 0.347956 0.451580
Cu8 Cu 0.666667 0.333333 0.89873(12)
N10 N 0.7798(5) 0.4081(5) 0.8998(5)
N11 N 0.8080(4) 0.4742(5) 0.8393(5)
C19 C 0.8371(6) 0.4203(9) 0.9558(6)
N12 N 0.9054(5) 0.4926(5) 0.9355(6)
C20 C 0.8816(6) 0.5206(7) 0.8629(7)
C21 C 0.9398(9) 0.5990(9) 0.8276(11)
H31 H 0.976180 0.626233 0.880971
O7 O 0.9861(10) 0.6027(9) 0.7468(13)
H33 H 0.999946 0.569833 0.752893
C23 C 0.8993(11) 0.6457(11) 0.804(2)
H34 H 0.937539 0.696960 0.780623
H35 H 0.860231 0.618654 0.754732
H36 H 0.874442 0.651045 0.860692
N13 N 0.5919(5) 0.3717(7) 0.8998(5)
N14 N 0.5258(5) 0.3338(6) 0.8393(5)
C25 C 0.5797(9) 0.4168(11) 0.9558(6)
N15 N 0.5074(5) 0.4128(7) 0.9355(6)
C26 C 0.4794(7) 0.3610(9) 0.8629(7)
C27 C 0.4010(9) 0.3408(13) 0.8276(11)
H41 H 0.373767 0.349947 0.880971
O9 O 0.3973(9) 0.3834(13) 0.7468(13)
H43 H 0.430167 0.430113 0.752893
C29 C 0.3543(11) 0.2536(16) 0.804(2)
H44 H 0.303040 0.240579 0.780623
H45 H 0.381346 0.241577 0.754732
H46 H 0.348955 0.223397 0.860692
N16 N 0.6283(7) 0.2202(5) 0.8998(5)
N17 N 0.6662(6) 0.1920(4) 0.8393(5)
C31 C 0.5832(11) 0.1629(6) 0.9558(6)
N18 N 0.5872(7) 0.0946(5) 0.9355(6)
C32 C 0.6390(9) 0.1184(6) 0.8629(7)
C33 C 0.6592(13) 0.0602(9) 0.8276(11)
H51 H 0.650053 0.023820 0.880971
O11 O 0.6166(13) 0.0139(10) 0.7468(13)
H53 H 0.569887 0.000054 0.752893
C35 C 0.7464(16) 0.1007(11) 0.804(2)
H54 H 0.759421 0.062461 0.780623
H55 H 0.758423 0.139769 0.754732
H56 H 0.776603 0.125558 0.860692
Cu9_2 Cu 0.53847(12) 0.000000 1.000000
Cu10_2 Cu 0.46153(12) 0.46153(12) 1.000000
Cu11_4 Cu 1.000000 0.53847(12) 1.000000
N20 N 0.4926(5) 0.5872(7) 0.4355(6)
Cu9_3 Cu 0.53847(12) 1.000000 0.000000
Cu3_2 Cu 0.46153(12) 1.000000 0.500000
Cu9_4 Cu 0.53847(12) 1.000000 1.000000
N19 N 0.4128(7) 0.9054(5) 0.4355(6)
Cu1_2 Cu 0.333333 0.666667 0.10127(12)
Cu2_2 Cu 0.47732(9) 0.73866(4) 0.250000
N1_2 N 0.4081(5) 0.7798(5) 0.1002(5)
N2_2 N 0.4742(5) 0.8080(4) 0.1607(5)
C1_2 C 0.4203(9) 0.8371(6) 0.0442(6)
N3_2 N 0.4926(5) 0.9054(5) 0.0645(6)
C2_2 C 0.5206(7) 0.8816(6) 0.1371(7)
C3_2 C 0.5990(9) 0.9398(9) 0.1724(11)
H1_2 H 0.626233 0.976180 0.119029
O1_2 O 0.6027(9) 0.9861(10) 0.2532(13)
H3_2 H 0.569833 0.999946 0.247107
C5_2 C 0.6457(11) 0.8993(11) 0.196(2)
H4_2 H 0.696960 0.937539 0.219377
H5_2 H 0.618654 0.860231 0.245268
H6_2 H 0.651045 0.874442 0.139308
Cu4_2 Cu 0.26134(4) 0.73866(10) 0.250000
N4_2 N 0.2202(5) 0.6283(7) 0.1002(5)
N5_2 N 0.1920(4) 0.6662(6) 0.1607(5)
C7_2 C 0.1629(6) 0.5832(11) 0.0442(6)
N6_2 N 0.0946(5) 0.5872(7) 0.0645(6)
C8_2 C 0.1184(6) 0.6390(9) 0.1371(7)
C9_2 C 0.0602(9) 0.6592(13) 0.1724(11)
H11_2 H 0.023820 0.650053 0.119029
O3_2 O 0.0139(10) 0.6166(13) 0.2532(13)
H13_2 H 0.000054 0.569887 0.247107
C11_2 C 0.1007(11) 0.7464(16) 0.196(2)
H14_2 H 0.062461 0.759421 0.219377
H15_2 H 0.139769 0.758423 0.245268
H16_2 H 0.125558 0.776603 0.139308
Cu6_2 Cu 0.26134(10) 0.52268(9) 0.250000
N7_2 N 0.3717(7) 0.5919(5) 0.1002(5)
N8_2 N 0.3338(6) 0.5258(5) 0.1607(5)
C13_2 C 0.4168(11) 0.5797(9) 0.0442(6)
N9_2 N 0.4128(7) 0.5074(5) 0.0645(6)
C14_2 C 0.3610(9) 0.4794(7) 0.1371(7)
C15_2 C 0.3408(13) 0.4010(9) 0.1724(11)
H21_2 H 0.349947 0.373767 0.119029
O5_2 O 0.3834(13) 0.3973(9) 0.2532(13)
H23_2 H 0.430113 0.430167 0.247107
C17_2 C 0.2536(16) 0.3543(11) 0.196(2)
H24_2 H 0.240579 0.303040 0.219377
H25_2 H 0.241577 0.381346 0.245268
H26_2 H 0.223397 0.348955 0.139308
Cu8_2 Cu 0.333333 0.666667 0.39873(12)
N10_2 N 0.2202(5) 0.5919(5) 0.3998(5)
N11_2 N 0.1920(4) 0.5258(5) 0.3393(5)
C19_2 C 0.1629(6) 0.5797(9) 0.4558(6)
C20_2 C 0.1184(6) 0.4794(7) 0.3629(7)
C21_2 C 0.0602(9) 0.4010(9) 0.3276(11)
H31_2 H 0.023820 0.373767 0.380971
C22_2 C 0.1679(10) 0.6341(10) 0.5258(8)
H32_2 H 0.222058 0.676585 0.514979
O7_2 O 0.0139(10) 0.3973(9) 0.2468(13)
H33_2 H 0.000054 0.430167 0.252893
C23_2 C 0.1007(11) 0.3543(11) 0.304(2)
H34_2 H 0.062461 0.303040 0.280623
H35_2 H 0.139769 0.381346 0.254732
H36_2 H 0.125558 0.348955 0.360692
C24_2 C 0.1735(12) 0.6148(12) 0.6307(9)
H37_2 H 0.176597 0.656003 0.671260
H38_2 H 0.127669 0.565865 0.647547
H39_2 H 0.219723 0.610528 0.639596
O8_2 O 0.1277(11) 0.6774(10) 0.5222(10)
H40_2 H 0.084670 0.652044 0.548420
N13_2 N 0.4081(5) 0.6283(7) 0.3998(5)
N14_2 N 0.4742(5) 0.6662(6) 0.3393(5)
C25_2 C 0.4203(9) 0.5832(11) 0.4558(6)
C26_2 C 0.5206(7) 0.6390(9) 0.3629(7)
C27_2 C 0.5990(9) 0.6592(13) 0.3276(11)
H41_2 H 0.626233 0.650053 0.380971
C28_2 C 0.3659(10) 0.5338(14) 0.5258(8)
H42_2 H 0.323415 0.545473 0.514979
O9_2 O 0.6027(9) 0.6166(13) 0.2468(13)
H43_2 H 0.569833 0.569887 0.252893
C29_2 C 0.6457(11) 0.7464(16) 0.304(2)
H44_2 H 0.696960 0.759421 0.280623
H45_2 H 0.618654 0.758423 0.254732
H46_2 H 0.651045 0.776603 0.360692
C30_2 C 0.3852(12) 0.5587(17) 0.6307(9)
H47_2 H 0.343997 0.520594 0.671260
H48_2 H 0.434135 0.561804 0.647547
H49_2 H 0.389472 0.609195 0.639596
O10_2 O 0.3226(10) 0.4503(15) 0.5222(10)
H50_2 H 0.347956 0.432626 0.548420
N16_2 N 0.3717(7) 0.7798(5) 0.3998(5)
N17_2 N 0.3338(6) 0.8080(4) 0.3393(5)
C31_2 C 0.4168(11) 0.8371(6) 0.4558(6)
C32_2 C 0.3610(9) 0.8816(6) 0.3629(7)
C33_2 C 0.3408(13) 0.9398(9) 0.3276(11)
H51_2 H 0.349947 0.976180 0.380971
C34_2 C 0.4662(14) 0.8321(10) 0.5258(8)
H52_2 H 0.454527 0.777942 0.514979
O11_2 O 0.3834(13) 0.9861(10) 0.2468(13)
H53_2 H 0.430113 0.999946 0.252893
C35_2 C 0.2536(16) 0.8993(11) 0.304(2)
H54_2 H 0.240579 0.937539 0.280623
H55_2 H 0.241577 0.860231 0.254732
H56_2 H 0.223397 0.874442 0.360692
C36_2 C 0.4413(17) 0.8265(12) 0.6307(9)
H57_2 H 0.479406 0.823403 0.671260
H58_2 H 0.438196 0.872331 0.647547
H59_2 H 0.390805 0.780277 0.639596
O12_2 O 0.5497(15) 0.8723(11) 0.5222(10)
H60_2 H 0.567374 0.915330 0.548420
C4_2 C 0.3659(10) 0.8321(10) 0.9742(8)
H2_2 H 0.323415 0.777942 0.985021
C6_2 C 0.3852(12) 0.8265(12) 0.8693(9)
H7_2 H 0.343997 0.823403 0.828740
H8_2 H 0.434135 0.872331 0.852453
H9_2 H 0.389472 0.780277 0.860404
O2_2 O 0.3226(10) 0.8723(11) 0.9778(10)
H10_2 H 0.347956 0.915330 0.951580
C10_2 C 0.1679(10) 0.5338(14) 0.9742(8)
H12_2 H 0.222058 0.545473 0.985021
C12_2 C 0.1735(12) 0.5587(17) 0.8693(9)
H17_2 H 0.176597 0.520594 0.828740
H18_2 H 0.127669 0.561804 0.852453
H19_2 H 0.219723 0.609195 0.860404
O4_2 O 0.1277(11) 0.4503(15) 0.9778(10)
H20_2 H 0.084670 0.432626 0.951580
C16_2 C 0.4662(14) 0.6341(10) 0.9742(8)
H22_2 H 0.454527 0.676585 0.985021
C18_2 C 0.4413(17) 0.6148(12) 0.8693(9)
H27_2 H 0.479406 0.656003 0.828740
H28_2 H 0.438196 0.565865 0.852453
H29_2 H 0.390805 0.610528 0.860404
O6_2 O 0.5497(15) 0.6774(10) 0.9778(10)
H30_2 H 0.567374 0.652044 0.951580
loop_
_geom_bond_atom_site_label_1
_geom_bond_atom_site_label_2
_geom_bond_site_symmetry_1
_geom_bond_site_symmetry_2
N21 Cu5 1_555 1_555
H32 C22 1_555 1_555
C24 C22 1_555 1_555
H37 C24 1_555 1_555
H38 C24 1_555 1_555
H39 C24 1_555 1_555
O8 C22 1_555 1_555
H40 O8 1_555 1_555
H42 C28 1_555 1_555
C30 C28 1_555 1_555
H47 C30 1_555 1_555
H48 C30 1_555 1_555
H49 C30 1_555 1_555
O10 C28 1_555 1_555
H50 O10 1_555 1_555
H52 C34 1_555 1_555
C36 C34 1_555 1_555
H57 C36 1_555 1_555
H58 C36 1_555 1_555
H59 C36 1_555 1_555
O12 C34 1_555 1_555
H60 O12 1_555 1_555
Cu1 N1 1_555 1_555
Cu2 N2 1_555 1_555
Cu3 N3 1_555 1_555
N1 N2 1_555 1_555
N2 C2 1_555 1_555
C1 N1 1_555 1_555
N3 C1 1_555 1_555
C2 N3 1_555 1_555
C3 C2 1_555 1_555
H1 C3 1_555 1_555
C4 C1 1_555 1_555
H2 C4 1_555 1_555
O1 C3 1_555 1_555
H3 O1 1_555 1_555
C5 C3 1_555 1_555
H4 C5 1_555 1_555
H5 C5 1_555 1_555
H6 C5 1_555 1_555
C6 C4 1_555 1_555
H7 C6 1_555 1_555
H8 C6 1_555 1_555
H9 C6 1_555 1_555
O2 C4 1_555 1_555
H10 O2 1_555 1_555
Cu4 N5 1_555 1_555
Cu5_2 N6 1_555 1_555
N4 Cu1 1_555 1_555
N5 N4 1_555 1_555
C7 N4 1_555 1_555
N6 C7 1_555 1_555
C8 N5 1_555 1_555
C9 C8 1_555 1_555
H11 C9 1_555 1_555
C10 C7 1_555 1_555
H12 C10 1_555 1_555
O3 C9 1_555 1_555
H13 O3 1_555 1_555
C11 C9 1_555 1_555
H14 C11 1_555 1_555
H15 C11 1_555 1_555
H16 C11 1_555 1_555
C12 C10 1_555 1_555
H17 C12 1_555 1_555
H18 C12 1_555 1_555
H19 C12 1_555 1_555
O4 C10 1_555 1_555
H20 O4 1_555 1_555
Cu6 N8 1_555 1_555
Cu7 N9 1_555 1_555
N7 Cu1 1_555 1_555
N8 N7 1_555 1_555
C13 N7 1_555 1_555
N9 C13 1_555 1_555
C14 N8 1_555 1_555
C15 C14 1_555 1_555
H21 C15 1_555 1_555
C16 C13 1_555 1_555
H22 C16 1_555 1_555
O5 C15 1_555 1_555
H23 O5 1_555 1_555
C17 C15 1_555 1_555
H24 C17 1_555 1_555
H25 C17 1_555 1_555
H26 C17 1_555 1_555
C18 C16 1_555 1_555
H27 C18 1_555 1_555
H28 C18 1_555 1_555
H29 C18 1_555 1_555
O6 C16 1_555 1_555
H30 O6 1_555 1_555
Cu8 N10 1_555 1_555
N10 N11 1_555 1_555
N11 Cu6 1_555 1_555
C19 N10 1_555 1_555
N12 C19 1_555 1_555
C20 N11 1_555 1_555
C21 C20 1_555 1_555
H31 C21 1_555 1_555
O7 C21 1_555 1_555
H33 O7 1_555 1_555
C23 C21 1_555 1_555
H34 C23 1_555 1_555
H35 C23 1_555 1_555
H36 C23 1_555 1_555
N13 Cu8 1_555 1_555
N14 Cu2 1_555 1_555
C25 N13 1_555 1_555
N15 C25 1_555 1_555
C26 N14 1_555 1_555
C27 C26 1_555 1_555
H41 C27 1_555 1_555
O9 C27 1_555 1_555
H43 O9 1_555 1_555
C29 C27 1_555 1_555
H44 C29 1_555 1_555
H45 C29 1_555 1_555
H46 C29 1_555 1_555
N16 Cu8 1_555 1_555
N17 Cu4 1_555 1_555
C31 N16 1_555 1_555
N18 C31 1_555 1_555
C32 N17 1_555 1_555
C33 C32 1_555 1_555
H51 C33 1_555 1_555
O11 C33 1_555 1_555
H53 O11 1_555 1_555
C35 C33 1_555 1_555
H54 C35 1_555 1_555
H55 C35 1_555 1_555
H56 C35 1_555 1_555
Cu9_2 N18 1_555 1_555
Cu10_2 N15 1_555 1_555
Cu11_4 N12 1_555 1_555
N20 Cu7 1_555 1_555
N6 C8 1_555 1_555
N9 C14 1_555 1_555
N12 C20 1_555 1_555
N13 N14 1_555 1_555
N15 C26 1_555 1_555
N16 N17 1_555 1_555
N18 C32 1_555 1_555
N19 Cu3_2 1_555 1_555
Cu1_2 N1_2 1_555 1_555
Cu2_2 N2_2 1_555 1_555
Cu9_3 N3_2 1_555 1_555
N1_2 N2_2 1_555 1_555
N2_2 C2_2 1_555 1_555
C1_2 N1_2 1_555 1_555
N3_2 C1_2 1_555 1_555
C2_2 N3_2 1_555 1_555
C3_2 C2_2 1_555 1_555
H1_2 C3_2 1_555 1_555
O1_2 C3_2 1_555 1_555
H3_2 O1_2 1_555 1_555
C5_2 C3_2 1_555 1_555
H4_2 C5_2 1_555 1_555
H5_2 C5_2 1_555 1_555
H6_2 C5_2 1_555 1_555
Cu4_2 N5_2 1_555 1_555
Cu11 N6_2 1_555 1_555
N4_2 Cu1_2 1_555 1_555
N5_2 N4_2 1_555 1_555
C7_2 N4_2 1_555 1_555
N6_2 C7_2 1_555 1_555
C8_2 N5_2 1_555 1_555
C9_2 C8_2 1_555 1_555
H11_2 C9_2 1_555 1_555
O3_2 C9_2 1_555 1_555
H13_2 O3_2 1_555 1_555
C11_2 C9_2 1_555 1_555
H14_2 C11_2 1_555 1_555
H15_2 C11_2 1_555 1_555
H16_2 C11_2 1_555 1_555
Cu6_2 N8_2 1_555 1_555
Cu10 N9_2 1_555 1_555
N7_2 Cu1_2 1_555 1_555
N8_2 N7_2 1_555 1_555
C13_2 N7_2 1_555 1_555
N9_2 C13_2 1_555 1_555
C14_2 N8_2 1_555 1_555
C15_2 C14_2 1_555 1_555
H21_2 C15_2 1_555 1_555
O5_2 C15_2 1_555 1_555
H23_2 O5_2 1_555 1_555
C17_2 C15_2 1_555 1_555
H24_2 C17_2 1_555 1_555
H25_2 C17_2 1_555 1_555
H26_2 C17_2 1_555 1_555
Cu8_2 N10_2 1_555 1_555
N10_2 N11_2 1_555 1_555
N11_2 Cu6_2 1_555 1_555
C19_2 N10_2 1_555 1_555
N21 C19_2 1_555 1_555
C20_2 N11_2 1_555 1_555
C21_2 C20_2 1_555 1_555
H31_2 C21_2 1_555 1_555
C22_2 C19_2 1_555 1_555
H32_2 C22_2 1_555 1_555
O7_2 C21_2 1_555 1_555
H33_2 O7_2 1_555 1_555
C23_2 C21_2 1_555 1_555
H34_2 C23_2 1_555 1_555
H35_2 C23_2 1_555 1_555
H36_2 C23_2 1_555 1_555
C24_2 C22_2 1_555 1_555
H37_2 C24_2 1_555 1_555
H38_2 C24_2 1_555 1_555
H39_2 C24_2 1_555 1_555
O8_2 C22_2 1_555 1_555
H40_2 O8_2 1_555 1_555
N13_2 Cu8_2 1_555 1_555
N14_2 Cu2_2 1_555 1_555
C25_2 N13_2 1_555 1_555
N20 C25_2 1_555 1_555
C26_2 N14_2 1_555 1_555
C27_2 C26_2 1_555 1_555
H41_2 C27_2 1_555 1_555
C28_2 C25_2 1_555 1_555
H42_2 C28_2 1_555 1_555
O9_2 C27_2 1_555 1_555
H43_2 O9_2 1_555 1_555
C29_2 C27_2 1_555 1_555
H44_2 C29_2 1_555 1_555
H45_2 C29_2 1_555 1_555
H46_2 C29_2 1_555 1_555
C30_2 C28_2 1_555 1_555
H47_2 C30_2 1_555 1_555
H48_2 C30_2 1_555 1_555
H49_2 C30_2 1_555 1_555
O10_2 C28_2 1_555 1_555
H50_2 O10_2 1_555 1_555
N16_2 Cu8_2 1_555 1_555
N17_2 Cu4_2 1_555 1_555
C31_2 N16_2 1_555 1_555
N19 C31_2 1_555 1_555
C32_2 N17_2 1_555 1_555
C33_2 C32_2 1_555 1_555
H51_2 C33_2 1_555 1_555
C34_2 C31_2 1_555 1_555
H52_2 C34_2 1_555 1_555
O11_2 C33_2 1_555 1_555
H53_2 O11_2 1_555 1_555
C35_2 C33_2 1_555 1_555
H54_2 C35_2 1_555 1_555
H55_2 C35_2 1_555 1_555
H56_2 C35_2 1_555 1_555
C36_2 C34_2 1_555 1_555
H57_2 C36_2 1_555 1_555
H58_2 C36_2 1_555 1_555
H59_2 C36_2 1_555 1_555
O12_2 C34_2 1_555 1_555
H60_2 O12_2 1_555 1_555
N6_2 C8_2 1_555 1_555
N9_2 C14_2 1_555 1_555
N21 C20_2 1_555 1_555
N13_2 N14_2 1_555 1_555
N20 C26_2 1_555 1_555
N16_2 N17_2 1_555 1_555
N19 C32_2 1_555 1_555
H2_2 C4_2 1_555 1_555
C6_2 C4_2 1_555 1_555
H7_2 C6_2 1_555 1_555
H8_2 C6_2 1_555 1_555
H9_2 C6_2 1_555 1_555
O2_2 C4_2 1_555 1_555
H10_2 O2_2 1_555 1_555
H12_2 C10_2 1_555 1_555
C12_2 C10_2 1_555 1_555
H17_2 C12_2 1_555 1_555
H18_2 C12_2 1_555 1_555
H19_2 C12_2 1_555 1_555
O4_2 C10_2 1_555 1_555
H20_2 O4_2 1_555 1_555
H22_2 C16_2 1_555 1_555
C18_2 C16_2 1_555 1_555
H27_2 C18_2 1_555 1_555
H28_2 C18_2 1_555 1_555
H29_2 C18_2 1_555 1_555
O6_2 C16_2 1_555 1_555
H30_2 O6_2 1_555 1_555

#END
