
###############################################################################
#
# This file contains modified crystal structure data generated from the
# MOF subset of the Cambridge Structural Database (CSD) v543 
# hosted by the Cambridge Crystallographic Data Centre (CCDC).
#
# This work is licensed under the Creative Commons
# Attribution-NonCommercial-ShareAlike 4.0 International License.
# To view a copy of this license, visit
# http://creativecommons.org/licenses/by-nc-sa/4.0/
# or send a letter to
# Creative Commons, PO Box 1866, Mountain View, CA 94042, USA.
#
# CIF created using the CSD Python API on 29 September 2022
# The structure has been converted into the P1 space group
# The structure has a 3D framework
# The original CSD entry BAMNEL is in the hexagonal crystal system
# The original CSD entry BAMNEL is in a Sohncke space group
# The framework has been calculated to contain at least 10.0% void space
# The void calculation uses a probe of radius 1.32A, grid spacing 0.4
# The framework is charged, counterions have been retained in the structure
#
###############################################################################

data_BAMNEL
_chemical_formula_moiety         '(C96 H168 Cu20 N36 4+)n'
_symmetry_cell_setting           triclinic
_symmetry_space_group_name_H-M   'P 1'
_symmetry_Int_Tables_number      1
_space_group_name_Hall           'P 1'
loop_
_symmetry_equiv_pos_site_id
_symmetry_equiv_pos_as_xyz
1 x,y,z
_cell_length_a                   19.603(5)
_cell_length_b                   19.603(5)
_cell_length_c                   13.939(5)
_cell_angle_alpha                90
_cell_angle_beta                 90
_cell_angle_gamma                120
_cell_volume                     4638.82
loop_
_atom_site_label
_atom_site_type_symbol
_atom_site_fract_x
_atom_site_fract_y
_atom_site_fract_z
Cu9 Cu -0.000000 0.54042(9) 0.000000
Cu3 Cu -0.000000 0.45958(9) 0.500000
C6 C 0.0016(8) 0.3934(7) 0.7440(10)
H6 H 0.026150 0.367130 0.774042
H7 H 0.038232 0.432919 0.700750
C38 C 0.0016(8) 0.6082(11) 0.7560(10)
H62 H 0.026150 0.659020 0.725958
H63 H 0.038232 0.605313 0.799250
Cu9_2 Cu -0.000000 0.54042(9) 1.000000
N20 N 0.0967(4) 0.5057(6) 0.4359(5)
C28 C 0.5351(6) 0.1768(7) 0.0270(5)
H44 H 0.544193 0.230344 0.018110
C29 C 0.5572(7) 0.1682(8) 0.1289(7)
H45 H 0.612584 0.203117 0.138342
H46 H 0.528031 0.181205 0.173323
H47 H 0.544947 0.114858 0.139310
C31 C 0.4472(6) 0.1188(8) 0.0232(8)
H52 H 0.437692 0.066713 0.036334
H53 H 0.420776 0.133060 0.070348
C36 C 0.8232(7) 0.3583(9) 0.0270(5)
H58 H 0.769656 0.313849 0.018110
C37 C 0.8318(8) 0.3890(11) 0.1289(7)
H59 H 0.796883 0.409467 0.138342
H60 H 0.818795 0.346826 0.173323
H61 H 0.885142 0.430089 0.139310
C39 C 0.8812(8) 0.3284(10) 0.0232(8)
H66 H 0.933287 0.370979 0.036334
H67 H 0.866940 0.287716 0.070348
C44 C 0.6417(9) 0.4649(6) 0.0270(5)
H72 H 0.686151 0.455807 0.018110
C45 C 0.6110(11) 0.4428(7) 0.1289(7)
H73 H 0.590533 0.387416 0.138342
H74 H 0.653174 0.471969 0.173323
H75 H 0.569911 0.455053 0.139310
C47 C 0.6716(10) 0.5528(6) 0.0232(8)
H80 H 0.629021 0.562308 0.036334
H81 H 0.712284 0.579224 0.070348
Cu9_3 Cu 1.000000 0.54042(9) 0.000000
Cu10 Cu 0.540420(90) -0.000000 0.000000
Cu11 Cu 0.45958(9) 0.459580(90) 0.000000
Cu1 Cu 0.666667 0.333333 0.60138(9)
Cu2 Cu 0.73834(3) 0.26166(3) 0.750000
Cu3_2 Cu 1.000000 0.45958(9) 0.500000
N1 N 0.8075(3) 0.3328(4) 0.6611(4)
N2 N 0.7796(3) 0.3703(3) 0.6010(4)
N3 N 0.9033(4) 0.4090(4) 0.5641(5)
C1 C 0.8377(4) 0.4157(7) 0.5443(5)
C2 C 0.8816(5) 0.3567(5) 0.6366(5)
C3 C 0.9295(5) 0.3339(7) 0.6885(8)
H1 H 0.894626 0.295523 0.736116
C4 C 0.8232(7) 0.4649(6) 0.4730(5)
H2 H 0.769656 0.455807 0.481890
C5 C 0.8318(8) 0.4428(7) 0.3711(7)
H3 H 0.796883 0.387416 0.361658
H4 H 0.818795 0.471969 0.326677
H5 H 0.885142 0.455053 0.360690
H8 H 0.985979 0.417890 0.792155
C7 C 0.8812(8) 0.5528(6) 0.4768(8)
H9 H 0.879984 0.572558 0.539436
H10 H 0.933287 0.562308 0.463666
H11 H 0.866940 0.579224 0.429652
C8 C 0.9609(7) 0.2909(8) 0.6283(10)
H12 H 0.992518 0.277449 0.667790
H13 H 0.917534 0.243800 0.602372
H14 H 0.992350 0.324433 0.576866
Cu4 Cu 0.73834(3) 0.47668(4) 0.750000
Cu5 Cu 0.54042(9) 0.540420(90) 0.500000
N4 N 0.6672(4) 0.4747(5) 0.6611(4)
N5 N 0.6297(3) 0.4093(4) 0.6010(4)
N6 N 0.5910(4) 0.4943(6) 0.5641(5)
C9 C 0.5843(7) 0.4220(8) 0.5443(5)
C10 C 0.6433(5) 0.5249(7) 0.6366(5)
C11 C 0.6661(7) 0.5956(9) 0.6885(8)
H15 H 0.704477 0.599103 0.736116
C12 C 0.5351(6) 0.3583(9) 0.4730(5)
H16 H 0.544193 0.313849 0.481890
C13 C 0.5572(7) 0.3890(11) 0.3711(7)
H17 H 0.612584 0.409467 0.361658
H18 H 0.528031 0.346826 0.326677
H19 H 0.544947 0.430089 0.360690
C14 C 0.6066(7) 0.6082(11) 0.7440(10)
H20 H 0.632870 0.659020 0.774042
H21 H 0.567081 0.605313 0.700750
H22 H 0.582110 0.568089 0.792155
C15 C 0.4472(6) 0.3284(10) 0.4768(8)
H23 H 0.427442 0.307426 0.539436
H24 H 0.437692 0.370979 0.463666
H25 H 0.420776 0.287716 0.429652
C16 C 0.7091(8) 0.6700(11) 0.6283(10)
H26 H 0.722551 0.715069 0.667790
H27 H 0.756200 0.673734 0.602372
H28 H 0.675567 0.667917 0.576866
Cu6 Cu 0.52332(4) 0.26166(3) 0.750000
Cu7 Cu 0.459580(90) -0.000000 0.500000
N7 N 0.5253(5) 0.1925(3) 0.6611(4)
N8 N 0.5907(4) 0.2204(3) 0.6010(4)
N9 N 0.5057(6) 0.0967(4) 0.5641(5)
C17 C 0.5780(8) 0.1623(4) 0.5443(5)
C18 C 0.4751(7) 0.1184(5) 0.6366(5)
C19 C 0.4044(9) 0.0705(5) 0.6885(8)
H29 H 0.400897 0.105374 0.736116
C20 C 0.6417(9) 0.1768(7) 0.4730(5)
H30 H 0.686151 0.230344 0.481890
C21 C 0.6110(11) 0.1682(8) 0.3711(7)
H31 H 0.590533 0.203117 0.361658
H32 H 0.653174 0.181205 0.326677
H33 H 0.569911 0.114858 0.360690
H36 H 0.431911 0.014021 0.792155
C23 C 0.6716(10) 0.1188(8) 0.4768(8)
H37 H 0.692574 0.120016 0.539436
H38 H 0.629021 0.066713 0.463666
H39 H 0.712284 0.133060 0.429652
C24 C 0.3300(11) 0.0391(7) 0.6283(10)
H40 H 0.284931 0.007482 0.667790
H41 H 0.326266 0.082466 0.602372
H42 H 0.332083 0.007650 0.576866
Cu8 Cu 0.666667 0.333333 0.89862(9)
N10 N 0.6672(4) 0.1925(3) 0.8389(4)
N11 N 0.6297(3) 0.2204(3) 0.8990(4)
N12 N 0.5910(4) 0.0967(4) 0.9359(5)
C25 C 0.5843(7) 0.1623(4) 0.9557(5)
C26 C 0.6433(5) 0.1184(5) 0.8634(5)
C27 C 0.6661(7) 0.0705(5) 0.8115(8)
H43 H 0.704477 0.105374 0.763884
H50 H 0.582110 0.014021 0.707845
H51 H 0.427442 0.120016 0.960564
C32 C 0.7091(8) 0.0391(7) 0.8717(10)
H54 H 0.722551 0.007482 0.832210
H55 H 0.756200 0.082466 0.897628
H56 H 0.675567 0.007650 0.923134
N13 N 0.8075(3) 0.4747(5) 0.8389(4)
N14 N 0.7796(3) 0.4093(4) 0.8990(4)
N15 N 0.9033(4) 0.4943(6) 0.9359(5)
C33 C 0.8377(4) 0.4220(8) 0.9557(5)
C34 C 0.8816(5) 0.5249(7) 0.8634(5)
C35 C 0.9295(5) 0.5956(9) 0.8115(8)
H57 H 0.894626 0.599103 0.763884
H64 H 0.985979 0.568089 0.707845
H65 H 0.879984 0.307426 0.960564
C40 C 0.9609(7) 0.6700(11) 0.8717(10)
H68 H 0.992518 0.715069 0.832210
H69 H 0.917534 0.673734 0.897628
H70 H 0.992350 0.667917 0.923134
N16 N 0.5253(5) 0.3328(4) 0.8389(4)
N17 N 0.5907(4) 0.3703(3) 0.8990(4)
N18 N 0.5057(6) 0.4090(4) 0.9359(5)
C41 C 0.5780(8) 0.4157(7) 0.9557(5)
C42 C 0.4751(7) 0.3567(5) 0.8634(5)
C43 C 0.4044(9) 0.3339(7) 0.8115(8)
H71 H 0.400897 0.295523 0.763884
C46 C 0.3918(11) 0.3934(7) 0.7560(10)
H76 H 0.340980 0.367130 0.725958
H77 H 0.394687 0.432919 0.799250
H78 H 0.431911 0.417890 0.707845
H79 H 0.692574 0.572558 0.960564
C48 C 0.3300(11) 0.2909(8) 0.8717(10)
H82 H 0.284931 0.277449 0.832210
H83 H 0.326266 0.243800 0.897628
H84 H 0.332083 0.324433 0.923134
Cu9_4 Cu 1.000000 0.54042(9) 1.000000
Cu10_2 Cu 0.540420(90) -0.000000 1.000000
Cu11_2 Cu 0.45958(9) 0.459580(90) 1.000000
N19 N 0.4943(6) 0.5910(4) 0.4359(5)
Cu10_3 Cu 0.540420(90) 1.000000 0.000000
Cu7_2 Cu 0.459580(90) 1.000000 0.500000
C22 C 0.3918(11) 0.9984(8) 0.7440(10)
H34 H 0.340980 0.973850 0.774042
H35 H 0.394687 0.961768 0.700750
C30 C 0.6066(7) 0.9984(8) 0.7560(10)
H48 H 0.632870 0.973850 0.725958
H49 H 0.567081 0.961768 0.799250
Cu10_4 Cu 0.540420(90) 1.000000 1.000000
N21 N 0.4090(4) 0.9033(4) 0.4359(5)
C22_2 C 0.6082(11) 0.0016(8) 0.2440(10)
H34_2 H 0.659020 0.026150 0.274042
H35_2 H 0.605313 0.038232 0.200750
C30_2 C 0.3934(7) 0.0016(8) 0.2560(10)
H48_2 H 0.367130 0.026150 0.225958
H49_2 H 0.432919 0.038232 0.299250
Cu1_2 Cu 0.333333 0.666667 0.10138(9)
Cu2_2 Cu 0.26166(3) 0.73834(3) 0.250000
N1_2 N 0.1925(3) 0.6672(4) 0.1611(4)
N2_2 N 0.2204(3) 0.6297(3) 0.1010(4)
N3_2 N 0.0967(4) 0.5910(4) 0.0641(5)
C1_2 C 0.1623(4) 0.5843(7) 0.0443(5)
C2_2 C 0.1184(5) 0.6433(5) 0.1366(5)
C3_2 C 0.0705(5) 0.6661(7) 0.1885(8)
H1_2 H 0.105374 0.704477 0.236116
H8_2 H 0.014021 0.582110 0.292155
H9_2 H 0.120016 0.427442 0.039436
C8_2 C 0.0391(7) 0.7091(8) 0.1283(10)
H12_2 H 0.007482 0.722551 0.167790
H13_2 H 0.082466 0.756200 0.102372
H14_2 H 0.007650 0.675567 0.076866
Cu4_2 Cu 0.26166(3) 0.52332(4) 0.250000
N4_2 N 0.3328(4) 0.5253(5) 0.1611(4)
N5_2 N 0.3703(3) 0.5907(4) 0.1010(4)
N6_2 N 0.4090(4) 0.5057(6) 0.0641(5)
C9_2 C 0.4157(7) 0.5780(8) 0.0443(5)
C10_2 C 0.3567(5) 0.4751(7) 0.1366(5)
C11_2 C 0.3339(7) 0.4044(9) 0.1885(8)
H15_2 H 0.295523 0.400897 0.236116
C14_2 C 0.3934(7) 0.3918(11) 0.2440(10)
H20_2 H 0.367130 0.340980 0.274042
H21_2 H 0.432919 0.394687 0.200750
H22_2 H 0.417890 0.431911 0.292155
H23_2 H 0.572558 0.692574 0.039436
C16_2 C 0.2909(8) 0.3300(11) 0.1283(10)
H26_2 H 0.277449 0.284931 0.167790
H27_2 H 0.243800 0.326266 0.102372
H28_2 H 0.324433 0.332083 0.076866
Cu6_2 Cu 0.47668(4) 0.73834(3) 0.250000
N7_2 N 0.4747(5) 0.8075(3) 0.1611(4)
N8_2 N 0.4093(4) 0.7796(3) 0.1010(4)
N9_2 N 0.4943(6) 0.9033(4) 0.0641(5)
C17_2 C 0.4220(8) 0.8377(4) 0.0443(5)
C18_2 C 0.5249(7) 0.8816(5) 0.1366(5)
C19_2 C 0.5956(9) 0.9295(5) 0.1885(8)
H29_2 H 0.599103 0.894626 0.236116
H36_2 H 0.568089 0.985979 0.292155
H37_2 H 0.307426 0.879984 0.039436
C24_2 C 0.6700(11) 0.9609(7) 0.1283(10)
H40_2 H 0.715069 0.992518 0.167790
H41_2 H 0.673734 0.917534 0.102372
H42_2 H 0.667917 0.992350 0.076866
Cu8_2 Cu 0.333333 0.666667 0.39862(9)
N10_2 N 0.3328(4) 0.8075(3) 0.3389(4)
N11_2 N 0.3703(3) 0.7796(3) 0.3990(4)
C25_2 C 0.4157(7) 0.8377(4) 0.4557(5)
C26_2 C 0.3567(5) 0.8816(5) 0.3634(5)
C27_2 C 0.3339(7) 0.9295(5) 0.3115(8)
H43_2 H 0.295523 0.894626 0.263884
C28_2 C 0.4649(6) 0.8232(7) 0.5270(5)
H44_2 H 0.455807 0.769656 0.518110
C29_2 C 0.4428(7) 0.8318(8) 0.6289(7)
H45_2 H 0.387416 0.796883 0.638342
H46_2 H 0.471969 0.818795 0.673323
H47_2 H 0.455053 0.885142 0.639310
H50_2 H 0.417890 0.985979 0.207845
C31_2 C 0.5528(6) 0.8812(8) 0.5232(8)
H51_2 H 0.572558 0.879984 0.460564
H52_2 H 0.562308 0.933287 0.536334
H53_2 H 0.579224 0.866940 0.570348
C32_2 C 0.2909(8) 0.9609(7) 0.3717(10)
H54_2 H 0.277449 0.992518 0.332210
H55_2 H 0.243800 0.917534 0.397628
H56_2 H 0.324433 0.992350 0.423134
N13_2 N 0.1925(3) 0.5253(5) 0.3389(4)
N14_2 N 0.2204(3) 0.5907(4) 0.3990(4)
C33_2 C 0.1623(4) 0.5780(8) 0.4557(5)
C34_2 C 0.1184(5) 0.4751(7) 0.3634(5)
C35_2 C 0.0705(5) 0.4044(9) 0.3115(8)
H57_2 H 0.105374 0.400897 0.263884
C36_2 C 0.1768(7) 0.6417(9) 0.5270(5)
H58_2 H 0.230344 0.686151 0.518110
C37_2 C 0.1682(8) 0.6110(11) 0.6289(7)
H59_2 H 0.203117 0.590533 0.638342
H60_2 H 0.181205 0.653174 0.673323
H61_2 H 0.114858 0.569911 0.639310
H64_2 H 0.014021 0.431911 0.207845
C39_2 C 0.1188(8) 0.6716(10) 0.5232(8)
H65_2 H 0.120016 0.692574 0.460564
H66_2 H 0.066713 0.629021 0.536334
H67_2 H 0.133060 0.712284 0.570348
C40_2 C 0.0391(7) 0.3300(11) 0.3717(10)
H68_2 H 0.007482 0.284931 0.332210
H69_2 H 0.082466 0.326266 0.397628
H70_2 H 0.007650 0.332083 0.423134
N16_2 N 0.4747(5) 0.6672(4) 0.3389(4)
N17_2 N 0.4093(4) 0.6297(3) 0.3990(4)
C41_2 C 0.4220(8) 0.5843(7) 0.4557(5)
C42_2 C 0.5249(7) 0.6433(5) 0.3634(5)
C43_2 C 0.5956(9) 0.6661(7) 0.3115(8)
H71_2 H 0.599103 0.704477 0.263884
C44_2 C 0.3583(9) 0.5351(6) 0.5270(5)
H72_2 H 0.313849 0.544193 0.518110
C45_2 C 0.3890(11) 0.5572(7) 0.6289(7)
H73_2 H 0.409467 0.612584 0.638342
H74_2 H 0.346826 0.528031 0.673323
H75_2 H 0.430089 0.544947 0.639310
C46_2 C 0.6082(11) 0.6066(7) 0.2560(10)
H76_2 H 0.659020 0.632870 0.225958
H77_2 H 0.605313 0.567081 0.299250
H78_2 H 0.568089 0.582110 0.207845
C47_2 C 0.3284(10) 0.4472(6) 0.5232(8)
H79_2 H 0.307426 0.427442 0.460564
H80_2 H 0.370979 0.437692 0.536334
H81_2 H 0.287716 0.420776 0.570348
C48_2 C 0.6700(11) 0.7091(8) 0.3717(10)
H82_2 H 0.715069 0.722551 0.332210
H83_2 H 0.673734 0.756200 0.397628
H84_2 H 0.667917 0.675567 0.423134
C4_2 C 0.1768(7) 0.5351(6) 0.9730(5)
H2_2 H 0.230344 0.544193 0.981890
C5_2 C 0.1682(8) 0.5572(7) 0.8711(7)
H3_2 H 0.203117 0.612584 0.861658
H4_2 H 0.181205 0.528031 0.826677
H5_2 H 0.114858 0.544947 0.860690
C7_2 C 0.1188(8) 0.4472(6) 0.9768(8)
H10_2 H 0.066713 0.437692 0.963666
H11_2 H 0.133060 0.420776 0.929652
C12_2 C 0.4649(6) 0.6417(9) 0.9730(5)
H16_2 H 0.455807 0.686151 0.981890
C13_2 C 0.4428(7) 0.6110(11) 0.8711(7)
H17_2 H 0.387416 0.590533 0.861658
H18_2 H 0.471969 0.653174 0.826677
H19_2 H 0.455053 0.569911 0.860690
C15_2 C 0.5528(6) 0.6716(10) 0.9768(8)
H24_2 H 0.562308 0.629021 0.963666
H25_2 H 0.579224 0.712284 0.929652
C20_2 C 0.3583(9) 0.8232(7) 0.9730(5)
H30_2 H 0.313849 0.769656 0.981890
C21_2 C 0.3890(11) 0.8318(8) 0.8711(7)
H31_2 H 0.409467 0.796883 0.861658
H32_2 H 0.346826 0.818795 0.826677
H33_2 H 0.430089 0.885142 0.860690
C23_2 C 0.3284(10) 0.8812(8) 0.9768(8)
H38_2 H 0.370979 0.933287 0.963666
H39_2 H 0.287716 0.866940 0.929652
C6_2 C 0.9984(8) 0.6066(7) 0.2440(10)
H6_2 H 0.973850 0.632870 0.274042
H7_2 H 0.961768 0.567081 0.200750
C38_2 C 0.9984(8) 0.3918(11) 0.2560(10)
H62_2 H 0.973850 0.340980 0.225958
H63_2 H 0.961768 0.394687 0.299250
loop_
_geom_bond_atom_site_label_1
_geom_bond_atom_site_label_2
_geom_bond_site_symmetry_1
_geom_bond_site_symmetry_2
H6 C6 1_555 1_555
H7 C6 1_555 1_555
H62 C38 1_555 1_555
H63 C38 1_555 1_555
N20 Cu3 1_555 1_555
H44 C28 1_555 1_555
C29 C28 1_555 1_555
H45 C29 1_555 1_555
H46 C29 1_555 1_555
H47 C29 1_555 1_555
C31 C28 1_555 1_555
H52 C31 1_555 1_555
H53 C31 1_555 1_555
H58 C36 1_555 1_555
C37 C36 1_555 1_555
H59 C37 1_555 1_555
H60 C37 1_555 1_555
H61 C37 1_555 1_555
C39 C36 1_555 1_555
H66 C39 1_555 1_555
H67 C39 1_555 1_555
H72 C44 1_555 1_555
C45 C44 1_555 1_555
H73 C45 1_555 1_555
H74 C45 1_555 1_555
H75 C45 1_555 1_555
C47 C44 1_555 1_555
H80 C47 1_555 1_555
H81 C47 1_555 1_555
Cu1 N2 1_555 1_555
Cu2 N1 1_555 1_555
Cu3_2 N3 1_555 1_555
N1 N2 1_555 1_555
N2 C1 1_555 1_555
N3 C1 1_555 1_555
C1 C4 1_555 1_555
C2 N1 1_555 1_555
C3 C2 1_555 1_555
H1 C3 1_555 1_555
C4 H2 1_555 1_555
C5 C4 1_555 1_555
H3 C5 1_555 1_555
H4 C5 1_555 1_555
H5 C5 1_555 1_555
C7 C4 1_555 1_555
H9 C7 1_555 1_555
H10 C7 1_555 1_555
H11 C7 1_555 1_555
C8 C3 1_555 1_555
H12 C8 1_555 1_555
H13 C8 1_555 1_555
H14 C8 1_555 1_555
Cu4 N4 1_555 1_555
Cu5 N6 1_555 1_555
N4 N5 1_555 1_555
N5 Cu1 1_555 1_555
N6 C9 1_555 1_555
C9 N5 1_555 1_555
C10 N4 1_555 1_555
C11 C10 1_555 1_555
H15 C11 1_555 1_555
C12 C9 1_555 1_555
H16 C12 1_555 1_555
C13 C12 1_555 1_555
H17 C13 1_555 1_555
H18 C13 1_555 1_555
H19 C13 1_555 1_555
C14 C11 1_555 1_555
H20 C14 1_555 1_555
H21 C14 1_555 1_555
H22 C14 1_555 1_555
C15 C12 1_555 1_555
H23 C15 1_555 1_555
H24 C15 1_555 1_555
H25 C15 1_555 1_555
C16 C11 1_555 1_555
H26 C16 1_555 1_555
H27 C16 1_555 1_555
H28 C16 1_555 1_555
Cu6 N7 1_555 1_555
Cu7 N9 1_555 1_555
N7 N8 1_555 1_555
N8 Cu1 1_555 1_555
N9 C17 1_555 1_555
C17 N8 1_555 1_555
C18 N7 1_555 1_555
C19 C18 1_555 1_555
H29 C19 1_555 1_555
C20 C17 1_555 1_555
H30 C20 1_555 1_555
C21 C20 1_555 1_555
H31 C21 1_555 1_555
H32 C21 1_555 1_555
H33 C21 1_555 1_555
C23 C20 1_555 1_555
H37 C23 1_555 1_555
H38 C23 1_555 1_555
H39 C23 1_555 1_555
C24 C19 1_555 1_555
H40 C24 1_555 1_555
H41 C24 1_555 1_555
H42 C24 1_555 1_555
Cu8 N11 1_555 1_555
N10 Cu2 1_555 1_555
N11 N10 1_555 1_555
N12 C25 1_555 1_555
C25 N11 1_555 1_555
C26 N10 1_555 1_555
C27 C26 1_555 1_555
H43 C27 1_555 1_555
C32 C27 1_555 1_555
H54 C32 1_555 1_555
H55 C32 1_555 1_555
H56 C32 1_555 1_555
N13 Cu4 1_555 1_555
N14 Cu8 1_555 1_555
N15 C33 1_555 1_555
C33 N14 1_555 1_555
C34 N13 1_555 1_555
C35 C34 1_555 1_555
H57 C35 1_555 1_555
C40 C35 1_555 1_555
H68 C40 1_555 1_555
H69 C40 1_555 1_555
H70 C40 1_555 1_555
N16 Cu6 1_555 1_555
N17 Cu8 1_555 1_555
N18 C41 1_555 1_555
C41 N17 1_555 1_555
C42 N16 1_555 1_555
C43 C42 1_555 1_555
H71 C43 1_555 1_555
C46 C43 1_555 1_555
H76 C46 1_555 1_555
H77 C46 1_555 1_555
H78 C46 1_555 1_555
C48 C43 1_555 1_555
H82 C48 1_555 1_555
H83 C48 1_555 1_555
H84 C48 1_555 1_555
Cu9_4 N15 1_555 1_555
Cu10_2 N12 1_555 1_555
Cu11_2 N18 1_555 1_555
N19 Cu5 1_555 1_555
N3 C2 1_555 1_555
N6 C10 1_555 1_555
N9 C18 1_555 1_555
N12 C26 1_555 1_555
N13 N14 1_555 1_555
N15 C34 1_555 1_555
N16 N17 1_555 1_555
N18 C42 1_555 1_555
H34 C22 1_555 1_555
H35 C22 1_555 1_555
H48 C30 1_555 1_555
H49 C30 1_555 1_555
N21 Cu7_2 1_555 1_555
H34_2 C22_2 1_555 1_555
H35_2 C22_2 1_555 1_555
H48_2 C30_2 1_555 1_555
H49_2 C30_2 1_555 1_555
Cu1_2 N2_2 1_555 1_555
Cu2_2 N1_2 1_555 1_555
Cu9 N3_2 1_555 1_555
N1_2 N2_2 1_555 1_555
N2_2 C1_2 1_555 1_555
N3_2 C1_2 1_555 1_555
C2_2 N1_2 1_555 1_555
C3_2 C2_2 1_555 1_555
H1_2 C3_2 1_555 1_555
C8_2 C3_2 1_555 1_555
H12_2 C8_2 1_555 1_555
H13_2 C8_2 1_555 1_555
H14_2 C8_2 1_555 1_555
Cu4_2 N4_2 1_555 1_555
Cu11 N6_2 1_555 1_555
N4_2 N5_2 1_555 1_555
N5_2 Cu1_2 1_555 1_555
N6_2 C9_2 1_555 1_555
C9_2 N5_2 1_555 1_555
C10_2 N4_2 1_555 1_555
C11_2 C10_2 1_555 1_555
H15_2 C11_2 1_555 1_555
C14_2 C11_2 1_555 1_555
H20_2 C14_2 1_555 1_555
H21_2 C14_2 1_555 1_555
H22_2 C14_2 1_555 1_555
C16_2 C11_2 1_555 1_555
H26_2 C16_2 1_555 1_555
H27_2 C16_2 1_555 1_555
H28_2 C16_2 1_555 1_555
Cu6_2 N7_2 1_555 1_555
Cu10_3 N9_2 1_555 1_555
N7_2 N8_2 1_555 1_555
N8_2 Cu1_2 1_555 1_555
N9_2 C17_2 1_555 1_555
C17_2 N8_2 1_555 1_555
C18_2 N7_2 1_555 1_555
C19_2 C18_2 1_555 1_555
H29_2 C19_2 1_555 1_555
C24_2 C19_2 1_555 1_555
H40_2 C24_2 1_555 1_555
H41_2 C24_2 1_555 1_555
H42_2 C24_2 1_555 1_555
Cu8_2 N11_2 1_555 1_555
N10_2 Cu2_2 1_555 1_555
N11_2 N10_2 1_555 1_555
N21 C25_2 1_555 1_555
C25_2 N11_2 1_555 1_555
C26_2 N10_2 1_555 1_555
C27_2 C26_2 1_555 1_555
H43_2 C27_2 1_555 1_555
C28_2 C25_2 1_555 1_555
H44_2 C28_2 1_555 1_555
C29_2 C28_2 1_555 1_555
H45_2 C29_2 1_555 1_555
H46_2 C29_2 1_555 1_555
H47_2 C29_2 1_555 1_555
C31_2 C28_2 1_555 1_555
H51_2 C31_2 1_555 1_555
H52_2 C31_2 1_555 1_555
H53_2 C31_2 1_555 1_555
C32_2 C27_2 1_555 1_555
H54_2 C32_2 1_555 1_555
H55_2 C32_2 1_555 1_555
H56_2 C32_2 1_555 1_555
N13_2 Cu4_2 1_555 1_555
N14_2 Cu8_2 1_555 1_555
N20 C33_2 1_555 1_555
C33_2 N14_2 1_555 1_555
C34_2 N13_2 1_555 1_555
C35_2 C34_2 1_555 1_555
H57_2 C35_2 1_555 1_555
C36_2 C33_2 1_555 1_555
H58_2 C36_2 1_555 1_555
C37_2 C36_2 1_555 1_555
H59_2 C37_2 1_555 1_555
H60_2 C37_2 1_555 1_555
H61_2 C37_2 1_555 1_555
C39_2 C36_2 1_555 1_555
H65_2 C39_2 1_555 1_555
H66_2 C39_2 1_555 1_555
H67_2 C39_2 1_555 1_555
C40_2 C35_2 1_555 1_555
H68_2 C40_2 1_555 1_555
H69_2 C40_2 1_555 1_555
H70_2 C40_2 1_555 1_555
N16_2 Cu6_2 1_555 1_555
N17_2 Cu8_2 1_555 1_555
N19 C41_2 1_555 1_555
C41_2 N17_2 1_555 1_555
C42_2 N16_2 1_555 1_555
C43_2 C42_2 1_555 1_555
H71_2 C43_2 1_555 1_555
C44_2 C41_2 1_555 1_555
H72_2 C44_2 1_555 1_555
C45_2 C44_2 1_555 1_555
H73_2 C45_2 1_555 1_555
H74_2 C45_2 1_555 1_555
H75_2 C45_2 1_555 1_555
C46_2 C43_2 1_555 1_555
H76_2 C46_2 1_555 1_555
H77_2 C46_2 1_555 1_555
H78_2 C46_2 1_555 1_555
C47_2 C44_2 1_555 1_555
H79_2 C47_2 1_555 1_555
H80_2 C47_2 1_555 1_555
H81_2 C47_2 1_555 1_555
C48_2 C43_2 1_555 1_555
H82_2 C48_2 1_555 1_555
H83_2 C48_2 1_555 1_555
H84_2 C48_2 1_555 1_555
N3_2 C2_2 1_555 1_555
N6_2 C10_2 1_555 1_555
N9_2 C18_2 1_555 1_555
N21 C26_2 1_555 1_555
N13_2 N14_2 1_555 1_555
N20 C34_2 1_555 1_555
N16_2 N17_2 1_555 1_555
N19 C42_2 1_555 1_555
C4_2 H2_2 1_555 1_555
C5_2 C4_2 1_555 1_555
H3_2 C5_2 1_555 1_555
H4_2 C5_2 1_555 1_555
H5_2 C5_2 1_555 1_555
C7_2 C4_2 1_555 1_555
H10_2 C7_2 1_555 1_555
H11_2 C7_2 1_555 1_555
H16_2 C12_2 1_555 1_555
C13_2 C12_2 1_555 1_555
H17_2 C13_2 1_555 1_555
H18_2 C13_2 1_555 1_555
H19_2 C13_2 1_555 1_555
C15_2 C12_2 1_555 1_555
H24_2 C15_2 1_555 1_555
H25_2 C15_2 1_555 1_555
H30_2 C20_2 1_555 1_555
C21_2 C20_2 1_555 1_555
H31_2 C21_2 1_555 1_555
H32_2 C21_2 1_555 1_555
H33_2 C21_2 1_555 1_555
C23_2 C20_2 1_555 1_555
H38_2 C23_2 1_555 1_555
H39_2 C23_2 1_555 1_555
H6_2 C6_2 1_555 1_555
H7_2 C6_2 1_555 1_555
H62_2 C38_2 1_555 1_555
H63_2 C38_2 1_555 1_555

#END
