
###############################################################################
#
# This file contains modified crystal structure data generated from the
# MOF subset of the Cambridge Structural Database (CSD) v543 
# hosted by the Cambridge Crystallographic Data Centre (CCDC).
#
# This work is licensed under the Creative Commons
# Attribution-NonCommercial-ShareAlike 4.0 International License.
# To view a copy of this license, visit
# http://creativecommons.org/licenses/by-nc-sa/4.0/
# or send a letter to
# Creative Commons, PO Box 1866, Mountain View, CA 94042, USA.
#
# CIF created using the CSD Python API on 29 September 2022
# The structure has been converted into the P1 space group
# The structure has a 3D framework
# The original CSD entry BAMNAH is in the hexagonal crystal system
# The original CSD entry BAMNAH is in a Sohncke space group
# The framework has been calculated to contain at least 10.0% void space
# The void calculation uses a probe of radius 1.32A, grid spacing 0.4
# The framework is charged, counterions have been retained in the structure
#
###############################################################################

data_BAMNAH
_chemical_formula_moiety         '(C96 H168 Cu20 N36 4+)n'
_symmetry_cell_setting           triclinic
_symmetry_space_group_name_H-M   'P 1'
_symmetry_Int_Tables_number      1
_space_group_name_Hall           'P 1'
loop_
_symmetry_equiv_pos_site_id
_symmetry_equiv_pos_as_xyz
1 x,y,z
_cell_length_a                   19.593(4)
_cell_length_b                   19.593(4)
_cell_length_c                   13.927(3)
_cell_angle_alpha                90
_cell_angle_beta                 90
_cell_angle_gamma                120
_cell_volume                     4630.1
loop_
_atom_site_label
_atom_site_type_symbol
_atom_site_fract_x
_atom_site_fract_y
_atom_site_fract_z
Cu5 Cu 0.000000 0.540230(90) 0.000000
C13 C 0.0034(8) 0.6087(11) 0.2410(10)
H17 H 0.028273 0.659352 0.271789
H19 H 0.039200 0.606738 0.195517
C29 C 0.0034(8) 0.3947(7) 0.2590(10)
H45 H 0.028273 0.368921 0.228211
H47 H 0.039200 0.432462 0.304483
Cu11 Cu 0.000000 0.459770(90) 0.500000
Cu5_2 Cu 0.000000 0.540230(90) 1.000000
N21 N 0.0968(4) 0.5902(4) 0.9362(5)
Cu1 Cu 0.666667 0.333333 0.10146(9)
Cu2 Cu 0.73831(3) 0.26169(3) 0.250000
Cu3 Cu 0.54023(9) 0.000000 0.000000
N1 N 0.6292(4) 0.2198(3) 0.1013(4)
N2 N 0.6670(4) 0.1924(3) 0.1610(4)
C1 C 0.5841(7) 0.1618(4) 0.0448(5)
N3 N 0.5902(4) 0.0968(4) 0.0638(5)
C2 C 0.6424(5) 0.1186(5) 0.1372(5)
C3 C 0.6661(7) 0.0704(5) 0.1893(8)
H1 H 0.703829 0.104446 0.238117
H4 H 0.578838 0.010529 0.288446
H11 H 0.430000 0.126697 0.038436
C8 C 0.7093(8) 0.0406(7) 0.1268(10)
H12 H 0.723734 0.008903 0.164879
H13 H 0.675481 0.009360 0.075335
H14 H 0.755897 0.084566 0.100777
Cu4 Cu 0.73831(3) 0.47662(4) 0.250000
Cu5_3 Cu 1.000000 0.540230(90) 0.000000
N4 N 0.7802(3) 0.4094(5) 0.1013(4)
N5 N 0.8076(3) 0.4746(5) 0.1610(4)
C9 C 0.8382(4) 0.4223(8) 0.0448(5)
N6 N 0.9032(4) 0.4934(6) 0.0638(5)
C10 C 0.8814(5) 0.5238(7) 0.1372(5)
C11 C 0.9296(5) 0.5957(9) 0.1893(8)
H15 H 0.895554 0.599383 0.238117
H18 H 0.989471 0.568309 0.288446
H25 H 0.873303 0.303303 0.038436
C16 C 0.9594(7) 0.6687(11) 0.1268(10)
H26 H 0.991097 0.714831 0.164879
H27 H 0.990640 0.666121 0.075335
H28 H 0.915434 0.671331 0.100777
Cu6 Cu 0.52338(4) 0.26169(3) 0.250000
Cu7 Cu 0.459770(90) 0.45977(9) 0.000000
N7 N 0.5906(5) 0.3708(4) 0.1013(4)
N8 N 0.5254(5) 0.3330(4) 0.1610(4)
C17 C 0.5777(8) 0.4159(7) 0.0448(5)
N9 N 0.5066(6) 0.4098(4) 0.0638(5)
C18 C 0.4762(7) 0.3576(5) 0.1372(5)
C19 C 0.4043(9) 0.3339(7) 0.1893(8)
H29 H 0.400617 0.296171 0.238117
C21 C 0.3913(11) 0.3947(7) 0.2410(10)
H31 H 0.340648 0.368921 0.271789
H32 H 0.431691 0.421162 0.288446
H33 H 0.393262 0.432462 0.195517
H39 H 0.696697 0.570000 0.038436
C24 C 0.3313(11) 0.2907(8) 0.1268(10)
H40 H 0.285169 0.276266 0.164879
H41 H 0.333879 0.324519 0.075335
H42 H 0.328669 0.244103 0.100777
Cu8 Cu 0.666667 0.333333 0.39854(9)
N10 N 0.7802(3) 0.3708(4) 0.3987(4)
N11 N 0.8076(3) 0.3330(4) 0.3390(4)
C25 C 0.8382(4) 0.4159(7) 0.4552(5)
N12 N 0.9032(4) 0.4098(4) 0.4362(5)
C26 C 0.8814(5) 0.3576(5) 0.3628(5)
C27 C 0.9296(5) 0.3339(7) 0.3107(8)
H43 H 0.895554 0.296171 0.261883
C28 C 0.8230(7) 0.4622(6) 0.5277(6)
H44 H 0.768779 0.451330 0.519325
H46 H 0.989471 0.421162 0.211554
C30 C 0.8322(9) 0.4418(7) 0.6303(7)
H48 H 0.821702 0.473431 0.673876
H49 H 0.795722 0.387072 0.642025
H50 H 0.885049 0.452109 0.639888
C31 C 0.8778(9) 0.5508(6) 0.5233(8)
H51 H 0.863667 0.575711 0.572530
H52 H 0.931163 0.562630 0.532931
H53 H 0.873303 0.570000 0.461564
C32 C 0.9594(7) 0.2907(8) 0.3732(10)
H54 H 0.991097 0.276266 0.335121
H55 H 0.990640 0.324519 0.424665
H56 H 0.915434 0.244103 0.399223
N13 N 0.6292(4) 0.4094(5) 0.3987(4)
N14 N 0.6670(4) 0.4746(5) 0.3390(4)
C33 C 0.5841(7) 0.4223(8) 0.4552(5)
N15 N 0.5902(4) 0.4934(6) 0.4362(5)
C34 C 0.6424(5) 0.5238(7) 0.3628(5)
C35 C 0.6661(7) 0.5957(9) 0.3107(8)
H57 H 0.703829 0.599383 0.261883
C36 C 0.5378(6) 0.3608(9) 0.5277(6)
H58 H 0.548670 0.317449 0.519325
C37 C 0.6053(7) 0.6087(11) 0.2590(10)
H59 H 0.631079 0.659352 0.228211
H60 H 0.578838 0.568309 0.211554
H61 H 0.567538 0.606738 0.304483
C38 C 0.5582(7) 0.3904(11) 0.6303(7)
H62 H 0.526569 0.348271 0.673876
H63 H 0.612928 0.408650 0.642025
H64 H 0.547891 0.432940 0.639888
C39 C 0.4492(6) 0.3270(11) 0.5233(8)
H65 H 0.424289 0.287956 0.572530
H66 H 0.437370 0.368533 0.532931
H67 H 0.430000 0.303303 0.461564
C40 C 0.7093(8) 0.6687(11) 0.3732(10)
H68 H 0.723734 0.714831 0.335121
H69 H 0.675481 0.666121 0.424665
H70 H 0.755897 0.671331 0.399223
N16 N 0.5906(5) 0.2198(3) 0.3987(4)
N17 N 0.5254(5) 0.1924(3) 0.3390(4)
C41 C 0.5777(8) 0.1618(4) 0.4552(5)
N18 N 0.5066(6) 0.0968(4) 0.4362(5)
C42 C 0.4762(7) 0.1186(5) 0.3628(5)
C43 C 0.4043(9) 0.0704(5) 0.3107(8)
H71 H 0.400617 0.104446 0.261883
C44 C 0.6392(9) 0.1770(7) 0.5277(6)
H72 H 0.682551 0.231221 0.519325
H74 H 0.431691 0.010529 0.211554
C46 C 0.6096(11) 0.1678(9) 0.6303(7)
H76 H 0.651729 0.178298 0.673876
H77 H 0.591350 0.204278 0.642025
H78 H 0.567060 0.114951 0.639888
C47 C 0.6730(11) 0.1222(9) 0.5233(8)
H79 H 0.712044 0.136333 0.572530
H80 H 0.631467 0.068837 0.532931
H81 H 0.696697 0.126697 0.461564
C48 C 0.3313(11) 0.0406(7) 0.3732(10)
H82 H 0.285169 0.008903 0.335121
H83 H 0.333879 0.009360 0.424665
H84 H 0.328669 0.084566 0.399223
Cu9 Cu 0.45977(9) 0.000000 0.500000
Cu10 Cu 0.540230(90) 0.54023(9) 0.500000
Cu11_2 Cu 1.000000 0.459770(90) 0.500000
Cu3_2 Cu 0.54023(9) 0.000000 1.000000
C4 C 0.5378(6) 0.1770(7) 0.9723(6)
H2 H 0.548670 0.231221 0.980675
C6 C 0.5582(7) 0.1678(9) 0.8697(7)
H6 H 0.526569 0.178298 0.826124
H7 H 0.612928 0.204278 0.857975
H8 H 0.547891 0.114951 0.860112
C7 C 0.4492(6) 0.1222(9) 0.9767(8)
H9 H 0.424289 0.136333 0.927470
H10 H 0.437370 0.068837 0.967069
Cu5_4 Cu 1.000000 0.540230(90) 1.000000
C12 C 0.8230(7) 0.3608(9) 0.9723(6)
H16 H 0.768779 0.317449 0.980675
C14 C 0.8322(9) 0.3904(11) 0.8697(7)
H20 H 0.821702 0.348271 0.826124
H21 H 0.795722 0.408650 0.857975
H22 H 0.885049 0.432940 0.860112
C15 C 0.8778(9) 0.3270(11) 0.9767(8)
H23 H 0.863667 0.287956 0.927470
H24 H 0.931163 0.368533 0.967069
Cu7_2 Cu 0.459770(90) 0.45977(9) 1.000000
C20 C 0.6392(9) 0.4622(6) 0.9723(6)
H30 H 0.682551 0.451330 0.980675
C22 C 0.6096(11) 0.4418(7) 0.8697(7)
H34 H 0.651729 0.473431 0.826124
H35 H 0.591350 0.387072 0.857975
H36 H 0.567060 0.452109 0.860112
C23 C 0.6730(11) 0.5508(6) 0.9767(8)
H37 H 0.712044 0.575711 0.927470
H38 H 0.631467 0.562630 0.967069
N20 N 0.4098(4) 0.5066(6) 0.9362(5)
Cu3_3 Cu 0.54023(9) 1.000000 0.000000
C5 C 0.6053(7) 0.9966(8) 0.2410(10)
H3 H 0.631079 0.971727 0.271789
H5 H 0.567538 0.960800 0.195517
C45 C 0.3913(11) 0.9966(8) 0.2590(10)
H73 H 0.340648 0.971727 0.228211
H75 H 0.393262 0.960800 0.304483
Cu9_2 Cu 0.45977(9) 1.000000 0.500000
Cu3_4 Cu 0.54023(9) 1.000000 1.000000
N19 N 0.4934(6) 0.9032(4) 0.9362(5)
C5_2 C 0.3947(7) 0.0034(8) 0.7410(10)
H3_2 H 0.368921 0.028273 0.771789
H5_2 H 0.432462 0.039200 0.695517
C45_2 C 0.6087(11) 0.0034(8) 0.7590(10)
H73_2 H 0.659352 0.028273 0.728211
H75_2 H 0.606738 0.039200 0.804483
C28_2 C 0.1770(7) 0.5378(6) 0.0277(6)
H44_2 H 0.231221 0.548670 0.019325
C30_2 C 0.1678(9) 0.5582(7) 0.1303(7)
H48_2 H 0.178298 0.526569 0.173876
H49_2 H 0.204278 0.612928 0.142025
H50_2 H 0.114951 0.547891 0.139888
C31_2 C 0.1222(9) 0.4492(6) 0.0233(8)
H51_2 H 0.136333 0.424289 0.072530
H52_2 H 0.068837 0.437370 0.032931
C36_2 C 0.4622(6) 0.6392(9) 0.0277(6)
H58_2 H 0.451330 0.682551 0.019325
C38_2 C 0.4418(7) 0.6096(11) 0.1303(7)
H62_2 H 0.473431 0.651729 0.173876
H63_2 H 0.387072 0.591350 0.142025
H64_2 H 0.452109 0.567060 0.139888
C39_2 C 0.5508(6) 0.6730(11) 0.0233(8)
H65_2 H 0.575711 0.712044 0.072530
H66_2 H 0.562630 0.631467 0.032931
C44_2 C 0.3608(9) 0.8230(7) 0.0277(6)
H72_2 H 0.317449 0.768779 0.019325
C46_2 C 0.3904(11) 0.8322(9) 0.1303(7)
H76_2 H 0.348271 0.821702 0.173876
H77_2 H 0.408650 0.795722 0.142025
H78_2 H 0.432940 0.885049 0.139888
C47_2 C 0.3270(11) 0.8778(9) 0.0233(8)
H79_2 H 0.287956 0.863667 0.072530
H80_2 H 0.368533 0.931163 0.032931
Cu1_2 Cu 0.333333 0.666667 0.60146(9)
Cu2_2 Cu 0.26169(3) 0.73831(3) 0.750000
N1_2 N 0.3708(4) 0.7802(3) 0.6013(4)
N2_2 N 0.3330(4) 0.8076(3) 0.6610(4)
C1_2 C 0.4159(7) 0.8382(4) 0.5448(5)
N3_2 N 0.4098(4) 0.9032(4) 0.5638(5)
C2_2 C 0.3576(5) 0.8814(5) 0.6372(5)
C3_2 C 0.3339(7) 0.9296(5) 0.6893(8)
H1_2 H 0.296171 0.895554 0.738117
C4_2 C 0.4622(6) 0.8230(7) 0.4723(6)
H2_2 H 0.451330 0.768779 0.480675
H4_2 H 0.421162 0.989471 0.788446
C6_2 C 0.4418(7) 0.8322(9) 0.3697(7)
H6_2 H 0.473431 0.821702 0.326124
H7_2 H 0.387072 0.795722 0.357975
H8_2 H 0.452109 0.885049 0.360112
C7_2 C 0.5508(6) 0.8778(9) 0.4767(8)
H9_2 H 0.575711 0.863667 0.427470
H10_2 H 0.562630 0.931163 0.467069
H11_2 H 0.570000 0.873303 0.538436
C8_2 C 0.2907(8) 0.9594(7) 0.6268(10)
H12_2 H 0.276266 0.991097 0.664879
H13_2 H 0.324519 0.990640 0.575335
H14_2 H 0.244103 0.915434 0.600777
Cu4_2 Cu 0.26169(3) 0.52338(4) 0.750000
N4_2 N 0.2198(3) 0.5906(5) 0.6013(4)
N5_2 N 0.1924(3) 0.5254(5) 0.6610(4)
C9_2 C 0.1618(4) 0.5777(8) 0.5448(5)
N6_2 N 0.0968(4) 0.5066(6) 0.5638(5)
C10_2 C 0.1186(5) 0.4762(7) 0.6372(5)
C11_2 C 0.0704(5) 0.4043(9) 0.6893(8)
H15_2 H 0.104446 0.400617 0.738117
C12_2 C 0.1770(7) 0.6392(9) 0.4723(6)
H16_2 H 0.231221 0.682551 0.480675
H18_2 H 0.010529 0.431691 0.788446
C14_2 C 0.1678(9) 0.6096(11) 0.3697(7)
H20_2 H 0.178298 0.651729 0.326124
H21_2 H 0.204278 0.591350 0.357975
H22_2 H 0.114951 0.567060 0.360112
C15_2 C 0.1222(9) 0.6730(11) 0.4767(8)
H23_2 H 0.136333 0.712044 0.427470
H24_2 H 0.068837 0.631467 0.467069
H25_2 H 0.126697 0.696697 0.538436
C16_2 C 0.0406(7) 0.3313(11) 0.6268(10)
H26_2 H 0.008903 0.285169 0.664879
H27_2 H 0.009360 0.333879 0.575335
H28_2 H 0.084566 0.328669 0.600777
Cu6_2 Cu 0.47662(4) 0.73831(3) 0.750000
N7_2 N 0.4094(5) 0.6292(4) 0.6013(4)
N8_2 N 0.4746(5) 0.6670(4) 0.6610(4)
C17_2 C 0.4223(8) 0.5841(7) 0.5448(5)
N9_2 N 0.4934(6) 0.5902(4) 0.5638(5)
C18_2 C 0.5238(7) 0.6424(5) 0.6372(5)
C19_2 C 0.5957(9) 0.6661(7) 0.6893(8)
H29_2 H 0.599383 0.703829 0.738117
C20_2 C 0.3608(9) 0.5378(6) 0.4723(6)
H30_2 H 0.317449 0.548670 0.480675
C21_2 C 0.6087(11) 0.6053(7) 0.7410(10)
H31_2 H 0.659352 0.631079 0.771789
H32_2 H 0.568309 0.578838 0.788446
H33_2 H 0.606738 0.567538 0.695517
C22_2 C 0.3904(11) 0.5582(7) 0.3697(7)
H34_2 H 0.348271 0.526569 0.326124
H35_2 H 0.408650 0.612928 0.357975
H36_2 H 0.432940 0.547891 0.360112
C23_2 C 0.3270(11) 0.4492(6) 0.4767(8)
H37_2 H 0.287956 0.424289 0.427470
H38_2 H 0.368533 0.437370 0.467069
H39_2 H 0.303303 0.430000 0.538436
C24_2 C 0.6687(11) 0.7093(8) 0.6268(10)
H40_2 H 0.714831 0.723734 0.664879
H41_2 H 0.666121 0.675481 0.575335
H42_2 H 0.671331 0.755897 0.600777
Cu8_2 Cu 0.333333 0.666667 0.89854(9)
N10_2 N 0.2198(3) 0.6292(4) 0.8987(4)
N11_2 N 0.1924(3) 0.6670(4) 0.8390(4)
C25_2 C 0.1618(4) 0.5841(7) 0.9552(5)
C26_2 C 0.1186(5) 0.6424(5) 0.8628(5)
C27_2 C 0.0704(5) 0.6661(7) 0.8107(8)
H43_2 H 0.104446 0.703829 0.761883
H46_2 H 0.010529 0.578838 0.711554
H53_2 H 0.126697 0.430000 0.961564
C32_2 C 0.0406(7) 0.7093(8) 0.8732(10)
H54_2 H 0.008903 0.723734 0.835121
H55_2 H 0.009360 0.675481 0.924665
H56_2 H 0.084566 0.755897 0.899223
N13_2 N 0.3708(4) 0.5906(5) 0.8987(4)
N14_2 N 0.3330(4) 0.5254(5) 0.8390(4)
C33_2 C 0.4159(7) 0.5777(8) 0.9552(5)
C34_2 C 0.3576(5) 0.4762(7) 0.8628(5)
C35_2 C 0.3339(7) 0.4043(9) 0.8107(8)
H57_2 H 0.296171 0.400617 0.761883
C37_2 C 0.3947(7) 0.3913(11) 0.7590(10)
H59_2 H 0.368921 0.340648 0.728211
H60_2 H 0.421162 0.431691 0.711554
H61_2 H 0.432462 0.393262 0.804483
H67_2 H 0.570000 0.696697 0.961564
C40_2 C 0.2907(8) 0.3313(11) 0.8732(10)
H68_2 H 0.276266 0.285169 0.835121
H69_2 H 0.324519 0.333879 0.924665
H70_2 H 0.244103 0.328669 0.899223
N16_2 N 0.4094(5) 0.7802(3) 0.8987(4)
N17_2 N 0.4746(5) 0.8076(3) 0.8390(4)
C41_2 C 0.4223(8) 0.8382(4) 0.9552(5)
C42_2 C 0.5238(7) 0.8814(5) 0.8628(5)
C43_2 C 0.5957(9) 0.9296(5) 0.8107(8)
H71_2 H 0.599383 0.895554 0.761883
H74_2 H 0.568309 0.989471 0.711554
H81_2 H 0.303303 0.873303 0.961564
C48_2 C 0.6687(11) 0.9594(7) 0.8732(10)
H82_2 H 0.714831 0.991097 0.835121
H83_2 H 0.666121 0.990640 0.924665
H84_2 H 0.671331 0.915434 0.899223
C13_2 C 0.9966(8) 0.3913(11) 0.7410(10)
H17_2 H 0.971727 0.340648 0.771789
H19_2 H 0.960800 0.393262 0.695517
C29_2 C 0.9966(8) 0.6053(7) 0.7590(10)
H45_2 H 0.971727 0.631079 0.728211
H47_2 H 0.960800 0.567538 0.804483
loop_
_geom_bond_atom_site_label_1
_geom_bond_atom_site_label_2
_geom_bond_site_symmetry_1
_geom_bond_site_symmetry_2
H17 C13 1_555 1_555
H19 C13 1_555 1_555
H45 C29 1_555 1_555
H47 C29 1_555 1_555
N21 Cu5_2 1_555 1_555
Cu1 N1 1_555 1_555
Cu2 N2 1_555 1_555
Cu3 N3 1_555 1_555
N1 N2 1_555 1_555
N2 C2 1_555 1_555
C1 N1 1_555 1_555
N3 C1 1_555 1_555
C2 N3 1_555 1_555
C3 C2 1_555 1_555
H1 C3 1_555 1_555
C8 C3 1_555 1_555
H12 C8 1_555 1_555
H13 C8 1_555 1_555
H14 C8 1_555 1_555
Cu4 N5 1_555 1_555
Cu5_3 N6 1_555 1_555
N4 Cu1 1_555 1_555
N5 N4 1_555 1_555
C9 N4 1_555 1_555
N6 C9 1_555 1_555
C10 N5 1_555 1_555
C11 C10 1_555 1_555
H15 C11 1_555 1_555
C16 C11 1_555 1_555
H26 C16 1_555 1_555
H27 C16 1_555 1_555
H28 C16 1_555 1_555
Cu6 N8 1_555 1_555
Cu7 N9 1_555 1_555
N7 Cu1 1_555 1_555
N8 N7 1_555 1_555
C17 N7 1_555 1_555
N9 C17 1_555 1_555
C18 N8 1_555 1_555
C19 C18 1_555 1_555
H29 C19 1_555 1_555
C21 C19 1_555 1_555
H31 C21 1_555 1_555
H32 C21 1_555 1_555
H33 C21 1_555 1_555
C24 C19 1_555 1_555
H40 C24 1_555 1_555
H41 C24 1_555 1_555
H42 C24 1_555 1_555
Cu8 N10 1_555 1_555
N10 N11 1_555 1_555
N11 Cu2 1_555 1_555
C25 N10 1_555 1_555
N12 C25 1_555 1_555
C26 N11 1_555 1_555
C27 C26 1_555 1_555
H43 C27 1_555 1_555
C28 C25 1_555 1_555
H44 C28 1_555 1_555
C30 C28 1_555 1_555
H48 C30 1_555 1_555
H49 C30 1_555 1_555
H50 C30 1_555 1_555
C31 C28 1_555 1_555
H51 C31 1_555 1_555
H52 C31 1_555 1_555
H53 C31 1_555 1_555
C32 C27 1_555 1_555
H54 C32 1_555 1_555
H55 C32 1_555 1_555
H56 C32 1_555 1_555
N13 Cu8 1_555 1_555
N14 Cu4 1_555 1_555
C33 N13 1_555 1_555
N15 C33 1_555 1_555
C34 N14 1_555 1_555
C35 C34 1_555 1_555
H57 C35 1_555 1_555
C36 C33 1_555 1_555
H58 C36 1_555 1_555
C37 C35 1_555 1_555
H59 C37 1_555 1_555
H60 C37 1_555 1_555
H61 C37 1_555 1_555
C38 C36 1_555 1_555
H62 C38 1_555 1_555
H63 C38 1_555 1_555
H64 C38 1_555 1_555
C39 C36 1_555 1_555
H65 C39 1_555 1_555
H66 C39 1_555 1_555
H67 C39 1_555 1_555
C40 C35 1_555 1_555
H68 C40 1_555 1_555
H69 C40 1_555 1_555
H70 C40 1_555 1_555
N16 Cu8 1_555 1_555
N17 Cu6 1_555 1_555
C41 N16 1_555 1_555
N18 C41 1_555 1_555
C42 N17 1_555 1_555
C43 C42 1_555 1_555
H71 C43 1_555 1_555
C44 C41 1_555 1_555
H72 C44 1_555 1_555
C46 C44 1_555 1_555
H76 C46 1_555 1_555
H77 C46 1_555 1_555
H78 C46 1_555 1_555
C47 C44 1_555 1_555
H79 C47 1_555 1_555
H80 C47 1_555 1_555
H81 C47 1_555 1_555
C48 C43 1_555 1_555
H82 C48 1_555 1_555
H83 C48 1_555 1_555
H84 C48 1_555 1_555
Cu9 N18 1_555 1_555
Cu10 N15 1_555 1_555
Cu11_2 N12 1_555 1_555
N6 C10 1_555 1_555
N9 C18 1_555 1_555
N12 C26 1_555 1_555
N13 N14 1_555 1_555
N15 C34 1_555 1_555
N16 N17 1_555 1_555
N18 C42 1_555 1_555
H2 C4 1_555 1_555
C6 C4 1_555 1_555
H6 C6 1_555 1_555
H7 C6 1_555 1_555
H8 C6 1_555 1_555
C7 C4 1_555 1_555
H9 C7 1_555 1_555
H10 C7 1_555 1_555
H16 C12 1_555 1_555
C14 C12 1_555 1_555
H20 C14 1_555 1_555
H21 C14 1_555 1_555
H22 C14 1_555 1_555
C15 C12 1_555 1_555
H23 C15 1_555 1_555
H24 C15 1_555 1_555
H30 C20 1_555 1_555
C22 C20 1_555 1_555
H34 C22 1_555 1_555
H35 C22 1_555 1_555
H36 C22 1_555 1_555
C23 C20 1_555 1_555
H37 C23 1_555 1_555
H38 C23 1_555 1_555
N20 Cu7_2 1_555 1_555
H3 C5 1_555 1_555
H5 C5 1_555 1_555
H73 C45 1_555 1_555
H75 C45 1_555 1_555
N19 Cu3_4 1_555 1_555
H3_2 C5_2 1_555 1_555
H5_2 C5_2 1_555 1_555
H73_2 C45_2 1_555 1_555
H75_2 C45_2 1_555 1_555
H44_2 C28_2 1_555 1_555
C30_2 C28_2 1_555 1_555
H48_2 C30_2 1_555 1_555
H49_2 C30_2 1_555 1_555
H50_2 C30_2 1_555 1_555
C31_2 C28_2 1_555 1_555
H51_2 C31_2 1_555 1_555
H52_2 C31_2 1_555 1_555
H58_2 C36_2 1_555 1_555
C38_2 C36_2 1_555 1_555
H62_2 C38_2 1_555 1_555
H63_2 C38_2 1_555 1_555
H64_2 C38_2 1_555 1_555
C39_2 C36_2 1_555 1_555
H65_2 C39_2 1_555 1_555
H66_2 C39_2 1_555 1_555
H72_2 C44_2 1_555 1_555
C46_2 C44_2 1_555 1_555
H76_2 C46_2 1_555 1_555
H77_2 C46_2 1_555 1_555
H78_2 C46_2 1_555 1_555
C47_2 C44_2 1_555 1_555
H79_2 C47_2 1_555 1_555
H80_2 C47_2 1_555 1_555
Cu1_2 N1_2 1_555 1_555
Cu2_2 N2_2 1_555 1_555
Cu9_2 N3_2 1_555 1_555
N1_2 N2_2 1_555 1_555
N2_2 C2_2 1_555 1_555
C1_2 N1_2 1_555 1_555
N3_2 C1_2 1_555 1_555
C2_2 N3_2 1_555 1_555
C3_2 C2_2 1_555 1_555
H1_2 C3_2 1_555 1_555
C4_2 C1_2 1_555 1_555
H2_2 C4_2 1_555 1_555
C6_2 C4_2 1_555 1_555
H6_2 C6_2 1_555 1_555
H7_2 C6_2 1_555 1_555
H8_2 C6_2 1_555 1_555
C7_2 C4_2 1_555 1_555
H9_2 C7_2 1_555 1_555
H10_2 C7_2 1_555 1_555
H11_2 C7_2 1_555 1_555
C8_2 C3_2 1_555 1_555
H12_2 C8_2 1_555 1_555
H13_2 C8_2 1_555 1_555
H14_2 C8_2 1_555 1_555
Cu4_2 N5_2 1_555 1_555
Cu11 N6_2 1_555 1_555
N4_2 Cu1_2 1_555 1_555
N5_2 N4_2 1_555 1_555
C9_2 N4_2 1_555 1_555
N6_2 C9_2 1_555 1_555
C10_2 N5_2 1_555 1_555
C11_2 C10_2 1_555 1_555
H15_2 C11_2 1_555 1_555
C12_2 C9_2 1_555 1_555
H16_2 C12_2 1_555 1_555
C14_2 C12_2 1_555 1_555
H20_2 C14_2 1_555 1_555
H21_2 C14_2 1_555 1_555
H22_2 C14_2 1_555 1_555
C15_2 C12_2 1_555 1_555
H23_2 C15_2 1_555 1_555
H24_2 C15_2 1_555 1_555
H25_2 C15_2 1_555 1_555
C16_2 C11_2 1_555 1_555
H26_2 C16_2 1_555 1_555
H27_2 C16_2 1_555 1_555
H28_2 C16_2 1_555 1_555
Cu6_2 N8_2 1_555 1_555
Cu10 N9_2 1_555 1_555
N7_2 Cu1_2 1_555 1_555
N8_2 N7_2 1_555 1_555
C17_2 N7_2 1_555 1_555
N9_2 C17_2 1_555 1_555
C18_2 N8_2 1_555 1_555
C19_2 C18_2 1_555 1_555
H29_2 C19_2 1_555 1_555
C20_2 C17_2 1_555 1_555
H30_2 C20_2 1_555 1_555
C21_2 C19_2 1_555 1_555
H31_2 C21_2 1_555 1_555
H32_2 C21_2 1_555 1_555
H33_2 C21_2 1_555 1_555
C22_2 C20_2 1_555 1_555
H34_2 C22_2 1_555 1_555
H35_2 C22_2 1_555 1_555
H36_2 C22_2 1_555 1_555
C23_2 C20_2 1_555 1_555
H37_2 C23_2 1_555 1_555
H38_2 C23_2 1_555 1_555
H39_2 C23_2 1_555 1_555
C24_2 C19_2 1_555 1_555
H40_2 C24_2 1_555 1_555
H41_2 C24_2 1_555 1_555
H42_2 C24_2 1_555 1_555
Cu8_2 N10_2 1_555 1_555
N10_2 N11_2 1_555 1_555
N11_2 Cu2_2 1_555 1_555
C25_2 N10_2 1_555 1_555
N21 C25_2 1_555 1_555
C26_2 N11_2 1_555 1_555
C27_2 C26_2 1_555 1_555
H43_2 C27_2 1_555 1_555
C32_2 C27_2 1_555 1_555
H54_2 C32_2 1_555 1_555
H55_2 C32_2 1_555 1_555
H56_2 C32_2 1_555 1_555
N13_2 Cu8_2 1_555 1_555
N14_2 Cu4_2 1_555 1_555
C33_2 N13_2 1_555 1_555
N20 C33_2 1_555 1_555
C34_2 N14_2 1_555 1_555
C35_2 C34_2 1_555 1_555
H57_2 C35_2 1_555 1_555
C37_2 C35_2 1_555 1_555
H59_2 C37_2 1_555 1_555
H60_2 C37_2 1_555 1_555
H61_2 C37_2 1_555 1_555
C40_2 C35_2 1_555 1_555
H68_2 C40_2 1_555 1_555
H69_2 C40_2 1_555 1_555
H70_2 C40_2 1_555 1_555
N16_2 Cu8_2 1_555 1_555
N17_2 Cu6_2 1_555 1_555
C41_2 N16_2 1_555 1_555
N19 C41_2 1_555 1_555
C42_2 N17_2 1_555 1_555
C43_2 C42_2 1_555 1_555
H71_2 C43_2 1_555 1_555
C48_2 C43_2 1_555 1_555
H82_2 C48_2 1_555 1_555
H83_2 C48_2 1_555 1_555
H84_2 C48_2 1_555 1_555
N6_2 C10_2 1_555 1_555
N9_2 C18_2 1_555 1_555
N21 C26_2 1_555 1_555
N13_2 N14_2 1_555 1_555
N20 C34_2 1_555 1_555
N16_2 N17_2 1_555 1_555
N19 C42_2 1_555 1_555
H17_2 C13_2 1_555 1_555
H19_2 C13_2 1_555 1_555
H45_2 C29_2 1_555 1_555
H47_2 C29_2 1_555 1_555

#END
