
###############################################################################
#
# This file contains modified crystal structure data generated from the
# MOF subset of the Cambridge Structural Database (CSD) v543 
# hosted by the Cambridge Crystallographic Data Centre (CCDC).
#
# This work is licensed under the Creative Commons
# Attribution-NonCommercial-ShareAlike 4.0 International License.
# To view a copy of this license, visit
# http://creativecommons.org/licenses/by-nc-sa/4.0/
# or send a letter to
# Creative Commons, PO Box 1866, Mountain View, CA 94042, USA.
#
# CIF created using the CSD Python API on 29 September 2022
# The structure has been converted into the P1 space group
# The structure has a 3D framework
# The original CSD entry BANKIO is in the monoclinic crystal system
# The framework has been calculated to contain at least 10.0% void space
# The void calculation uses a probe of radius 1.32A, grid spacing 0.4
#
###############################################################################

data_BANKIO
_chemical_formula_moiety         '(C150 H132 Cl2 Cu2 Mn6 N24 O15)n'
_symmetry_cell_setting           triclinic
_symmetry_space_group_name_H-M   'P 1'
_symmetry_Int_Tables_number      1
_space_group_name_Hall           'P 1'
loop_
_symmetry_equiv_pos_site_id
_symmetry_equiv_pos_as_xyz
1 x,y,z
_cell_length_a                   12.3865(6)
_cell_length_b                   33.158(2)
_cell_length_c                   13.0706(6)
_cell_angle_alpha                90
_cell_angle_beta                 94.014(4)
_cell_angle_gamma                90
_cell_volume                     5355.08
loop_
_atom_site_label
_atom_site_type_symbol
_atom_site_fract_x
_atom_site_fract_y
_atom_site_fract_z
O3 O 0.0567(3) 0.11768(13) 0.6112(3)
O4 O 0.0288(3) 0.05209(14) 0.6094(3)
Mn6 Mn 0.19985(6) 0.06995(3) 0.60275(6)
Mn10 Mn -0.000000 0.000000 0.500000
Mn10_2 Mn -0.000000 1.000000 0.500000
H7 H 0.194773 0.175542 0.008012
C7 C 0.1771(5) 0.08600(19) 0.0559(4)
C8 C 0.0938(5) 0.0630(2) 0.0876(4)
H9 H 0.041050 0.052952 0.037849
C9 C 0.0844(5) 0.05403(19) 0.1891(4)
H10 H 0.026395 0.037552 0.208323
C10 C 0.1592(5) 0.0689(2) 0.2641(4)
C11 C 0.2424(6) 0.0931(3) 0.2335(5)
H11 H 0.293093 0.104363 0.283485
C12 C 0.2521(5) 0.1010(2) 0.1303(5)
H12 H 0.310828 0.116868 0.110256
C13 C 0.1489(5) 0.0588(2) 0.3747(5)
O1 O 0.0899(4) 0.02968(15) 0.3923(3)
O2 O 0.2018(3) 0.07927(16) 0.4415(3)
C1 C 0.2834(4) 0.15073(18) 0.7334(4)
H1 H 0.304680 0.176562 0.767006
H2 H 0.226114 0.156499 0.678679
N1 N 0.2414(4) 0.12408(14) 0.8075(3)
N2 N 0.2094(4) 0.08627(15) 0.7777(3)
C2 C 0.1780(5) 0.06834(18) 0.8620(4)
C3 C 0.1932(5) 0.09400(18) 0.9474(4)
C4 C 0.2315(5) 0.1301(2) 0.9080(4)
C5 C 0.1395(6) 0.0262(2) 0.8580(5)
H3 H 0.061469 0.025821 0.839229
H4 H 0.153825 0.013656 0.925455
H5 H 0.177431 0.011269 0.806786
C6 C 0.2464(7) 0.1718(2) 0.9553(5)
H6 H 0.320361 0.174423 0.986546
H8 H 0.233782 0.192357 0.901919
N3 N 0.3776(4) 0.13308(15) 0.6875(3)
N4 N 0.3572(4) 0.10353(16) 0.6148(3)
C14 C 0.4535(4) 0.08990(18) 0.5927(4)
C15 C 0.5367(4) 0.11053(18) 0.6495(4)
C16 C 0.4852(4) 0.13692(18) 0.7100(4)
C17 C 0.4633(5) 0.0564(2) 0.5147(5)
H13 H 0.457845 0.030200 0.548617
H14 H 0.533412 0.058440 0.484668
H15 H 0.404973 0.058960 0.460437
C18 C 0.5322(5) 0.1652(2) 0.7905(6)
H16 H 0.559999 0.189247 0.757621
H17 H 0.591456 0.151733 0.830771
H18 H 0.476014 0.173044 0.835704
C19 C 0.6545(4) 0.10540(19) 0.6459(4)
C20 C 0.7228(4) 0.13817(19) 0.6345(5)
H19 H 0.693520 0.164652 0.631882
C21 C 0.8342(5) 0.1327(2) 0.6267(5)
H20 H 0.879774 0.155416 0.618677
C22 C 0.8773(4) 0.09458(19) 0.6308(4)
C23 C 0.8112(4) 0.06156(19) 0.6452(4)
H21 H 0.841771 0.035297 0.650132
C24 C 0.7013(5) 0.0666(2) 0.6525(4)
H22 H 0.656858 0.043746 0.662008
C25 C 0.9939(5) 0.0883(2) 0.6159(4)
O5 O 0.2675(3) 0.01352(13) 0.6329(3)
Mn10_3 Mn 1.000000 0.000000 0.500000
Cl1 Cl 0.5973(3) 0.750000 0.1235(2)
Cu1 Cu 0.57499(12) 0.750000 0.95478(11)
C26 C 0.6588(12) 0.750000 0.7306(10)
H23 H 0.677024 0.750000 0.658059
H24 H 0.727075 0.750000 0.774756
N5 N 0.5927(6) 0.78698(19) 0.7523(5)
N6 N 0.5614(5) 0.79223(18) 0.8466(4)
C27 C 0.4992(6) 0.8257(3) 0.8415(5)
C28 C 0.4900(5) 0.84156(19) 0.7450(5)
C29 C 0.5476(7) 0.8171(2) 0.6871(6)
C30 C 0.4549(9) 0.8443(3) 0.9368(7)
H25 H 0.375670 0.842697 0.931219
H26 H 0.477284 0.872565 0.942666
H27 H 0.483178 0.829447 0.997783
C31 C 0.5655(9) 0.8175(3) 0.5729(7)
H28 H 0.499414 0.826764 0.534340
H29 H 0.583230 0.790213 0.550632
H30 H 0.625274 0.835781 0.560340
C32 C 0.4244(5) 0.87748(19) 0.7105(5)
C33 C 0.4474(5) 0.9151(2) 0.7518(5)
H31 H 0.505886 0.918389 0.802138
C34 C 0.3854(5) 0.9480(2) 0.7199(5)
H32 H 0.403561 0.973954 0.746339
C35 C 0.2979(5) 0.94362(19) 0.6505(5)
C36 C 0.2739(5) 0.9052(2) 0.6126(5)
H33 H 0.212104 0.901637 0.566243
C37 C 0.3365(5) 0.8725(2) 0.6398(5)
H34 H 0.320144 0.846777 0.610860
C38 C 0.2293(5) 0.9793(2) 0.6155(4)
O6 O 0.1381(3) 0.97139(14) 0.5709(3)
N7 N 0.5927(6) 0.71302(19) 0.7523(5)
N8 N 0.5614(5) 0.70777(18) 0.8466(4)
C39 C 0.4992(6) 0.6743(3) 0.8415(5)
C40 C 0.4900(5) 0.65844(19) 0.7450(5)
C41 C 0.5476(7) 0.6829(2) 0.6871(6)
C42 C 0.4549(9) 0.6557(3) 0.9368(7)
H35 H 0.375670 0.657303 0.931219
H36 H 0.477284 0.627435 0.942666
H37 H 0.483178 0.670553 0.997783
C43 C 0.5655(9) 0.6825(3) 0.5729(7)
H38 H 0.499414 0.673236 0.534340
H39 H 0.583230 0.709787 0.550632
H40 H 0.625274 0.664219 0.560340
C44 C 0.4244(5) 0.62252(19) 0.7105(5)
C45 C 0.4474(5) 0.5849(2) 0.7518(5)
H41 H 0.505886 0.581611 0.802138
C46 C 0.3854(5) 0.5520(2) 0.7199(5)
H42 H 0.403561 0.526046 0.746339
C47 C 0.2979(5) 0.55638(19) 0.6505(5)
C48 C 0.2739(5) 0.5948(2) 0.6126(5)
H43 H 0.212104 0.598363 0.566243
C49 C 0.3365(5) 0.6275(2) 0.6398(5)
H44 H 0.320144 0.653223 0.610860
C50 C 0.2293(5) 0.5207(2) 0.6155(4)
O7 O 0.2675(3) 0.48648(13) 0.6329(3)
O8 O 0.1381(3) 0.52861(14) 0.5709(3)
Mn7 Mn 0.19985(6) 0.43005(3) 0.60275(6)
Mn10_4 Mn 1.000000 1.000000 0.500000
Mn11 Mn 0.000000 0.500000 0.500000
O21 O 0.8619(3) 0.02861(14) 0.4291(3)
Mn11_2 Mn 1.000000 0.500000 0.500000
O13 O 0.9101(4) 0.97032(15) 0.6077(3)
O19 O 0.9712(3) 0.94791(14) 0.3906(3)
O13_2 O 0.0899(4) 0.47032(15) 0.3923(3)
O19_2 O 0.0288(3) 0.44791(14) 0.6094(3)
Mn3 Mn 0.80015(6) 0.56995(3) 0.39725(6)
C51 C 0.7166(4) 0.65073(18) 0.2666(4)
H45 H 0.695320 0.676562 0.232994
H46 H 0.773886 0.656499 0.321321
N9 N 0.7586(4) 0.62408(14) 0.1925(3)
N10 N 0.7906(4) 0.58627(15) 0.2223(3)
C52 C 0.8220(5) 0.56834(18) 0.1380(4)
C53 C 0.8068(5) 0.59400(18) 0.0526(4)
C54 C 0.7685(5) 0.6301(2) 0.0920(4)
C55 C 0.8605(6) 0.5262(2) 0.1420(5)
H47 H 0.938531 0.525821 0.160771
H48 H 0.846175 0.513656 0.074545
H49 H 0.822569 0.511269 0.193214
C56 C 0.7536(7) 0.6718(2) 0.0447(5)
H50 H 0.679639 0.674423 0.013454
H52 H 0.766218 0.692357 0.098081
N11 N 0.6224(4) 0.63308(15) 0.3125(3)
N12 N 0.6428(4) 0.60353(16) 0.3852(3)
C64 C 0.5465(4) 0.58990(18) 0.4073(4)
C65 C 0.4633(4) 0.61053(18) 0.3505(4)
C66 C 0.5148(4) 0.63692(18) 0.2900(4)
C67 C 0.5367(5) 0.5564(2) 0.4853(5)
H57 H 0.542155 0.530200 0.451383
H58 H 0.466588 0.558440 0.515332
H59 H 0.595027 0.558960 0.539563
C68 C 0.4678(5) 0.6652(2) 0.2095(6)
H60 H 0.440001 0.689247 0.242379
H61 H 0.408544 0.651733 0.169229
H62 H 0.523986 0.673044 0.164296
C69 C 0.3455(4) 0.60540(19) 0.3541(4)
C70 C 0.2772(4) 0.63817(19) 0.3655(5)
H63 H 0.306480 0.664652 0.368118
C71 C 0.1658(5) 0.6327(2) 0.3733(5)
H64 H 0.120226 0.655416 0.381323
C72 C 0.1227(4) 0.59458(19) 0.3692(4)
C73 C 0.1888(4) 0.56156(19) 0.3548(4)
H65 H 0.158229 0.535297 0.349868
C74 C 0.2987(5) 0.5666(2) 0.3475(4)
H66 H 0.343142 0.543746 0.337992
C75 C 0.0061(5) 0.5883(2) 0.3841(4)
O14 O 0.7982(3) 0.57927(16) 0.5585(3)
O15 O 0.9433(3) 0.61768(13) 0.3888(3)
O17 O 0.9712(3) 0.55209(14) 0.3906(3)
O20 O 0.7325(3) 0.51352(13) 0.3671(3)
Cu1_2 Cu 0.42501(12) 0.250000 0.04522(11)
C26_2 C 0.3412(12) 0.250000 0.2694(10)
H23_2 H 0.322976 0.250000 0.341941
H24_2 H 0.272925 0.250000 0.225244
N5_2 N 0.4073(6) 0.28698(19) 0.2477(5)
N6_2 N 0.4386(5) 0.29223(18) 0.1534(4)
C27_2 C 0.5008(6) 0.3257(3) 0.1585(5)
C28_2 C 0.5100(5) 0.34156(19) 0.2550(5)
C29_2 C 0.4524(7) 0.3171(2) 0.3129(6)
C30_2 C 0.5451(9) 0.3443(3) 0.0632(7)
H25_2 H 0.624330 0.342697 0.068781
H26_2 H 0.522716 0.372565 0.057334
H27_2 H 0.516822 0.329447 0.002217
C31_2 C 0.4345(9) 0.3175(3) 0.4271(7)
H28_2 H 0.500586 0.326764 0.465660
H29_2 H 0.416770 0.290213 0.449368
H30_2 H 0.374726 0.335781 0.439660
C32_2 C 0.5756(5) 0.37748(19) 0.2895(5)
C33_2 C 0.5526(5) 0.4151(2) 0.2482(5)
H31_2 H 0.494114 0.418389 0.197862
C34_2 C 0.6146(5) 0.4480(2) 0.2801(5)
H32_2 H 0.596439 0.473954 0.253661
C35_2 C 0.7021(5) 0.44362(19) 0.3495(5)
C36_2 C 0.7261(5) 0.4052(2) 0.3874(5)
H33_2 H 0.787896 0.401637 0.433757
C37_2 C 0.6635(5) 0.3725(2) 0.3602(5)
H34_2 H 0.679856 0.346777 0.389140
C38_2 C 0.7707(5) 0.4793(2) 0.3845(4)
O6_2 O 0.8619(3) 0.47139(14) 0.4291(3)
N7_2 N 0.4073(6) 0.21302(19) 0.2477(5)
N8_2 N 0.4386(5) 0.20777(18) 0.1534(4)
C39_2 C 0.5008(6) 0.1743(3) 0.1585(5)
C40_2 C 0.5100(5) 0.15844(19) 0.2550(5)
C41_2 C 0.4524(7) 0.1829(2) 0.3129(6)
C42_2 C 0.5451(9) 0.1557(3) 0.0632(7)
H35_2 H 0.624330 0.157303 0.068781
H36_2 H 0.522716 0.127435 0.057334
H37_2 H 0.516822 0.170553 0.002217
C43_2 C 0.4345(9) 0.1825(3) 0.4271(7)
H38_2 H 0.500586 0.173236 0.465660
H39_2 H 0.416770 0.209787 0.449368
H40_2 H 0.374726 0.164219 0.439660
C44_2 C 0.5756(5) 0.12252(19) 0.2895(5)
C45_2 C 0.5526(5) 0.0849(2) 0.2482(5)
H41_2 H 0.494114 0.081611 0.197862
C46_2 C 0.6146(5) 0.0520(2) 0.2801(5)
H42_2 H 0.596439 0.026046 0.253661
C47_2 C 0.7021(5) 0.05638(19) 0.3495(5)
C48_2 C 0.7261(5) 0.0948(2) 0.3874(5)
H43_2 H 0.787896 0.098363 0.433757
C49_2 C 0.6635(5) 0.1275(2) 0.3602(5)
H44_2 H 0.679856 0.153223 0.389140
C50_2 C 0.7707(5) 0.0207(2) 0.3845(4)
H51 H 0.805227 0.675542 0.991988
C57 C 0.8229(5) 0.58600(19) 0.9441(4)
C58 C 0.9062(5) 0.5630(2) 0.9124(4)
H53 H 0.958950 0.552952 0.962151
C59 C 0.9156(5) 0.55403(19) 0.8109(4)
H54 H 0.973605 0.537552 0.791677
C60 C 0.8408(5) 0.5689(2) 0.7359(4)
C61 C 0.7576(6) 0.5931(3) 0.7665(5)
H55 H 0.706907 0.604363 0.716515
C62 C 0.7479(5) 0.6010(2) 0.8697(5)
H56 H 0.689172 0.616868 0.889744
C63 C 0.8511(5) 0.5588(2) 0.6253(5)
O9 O 0.9101(4) 0.52968(15) 0.6077(3)
Cl1_2 Cl 0.4027(3) 0.250000 0.8765(2)
O7_2 O 0.7325(3) 0.98648(13) 0.3671(3)
Mn7_2 Mn 0.80015(6) 0.93005(3) 0.39725(6)
C51_2 C 0.7166(4) 0.84927(18) 0.2666(4)
H45_2 H 0.695320 0.823438 0.232994
H46_2 H 0.773886 0.843501 0.321321
N9_2 N 0.7586(4) 0.87592(14) 0.1925(3)
N10_2 N 0.7906(4) 0.91373(15) 0.2223(3)
C52_2 C 0.8220(5) 0.93166(18) 0.1380(4)
C53_2 C 0.8068(5) 0.90600(18) 0.0526(4)
C54_2 C 0.7685(5) 0.8699(2) 0.0920(4)
C55_2 C 0.8605(6) 0.9738(2) 0.1420(5)
H47_2 H 0.938531 0.974179 0.160771
H48_2 H 0.846175 0.986344 0.074545
H49_2 H 0.822569 0.988731 0.193214
C56_2 C 0.7536(7) 0.8282(2) 0.0447(5)
H50_2 H 0.679639 0.825577 0.013454
H52_2 H 0.766218 0.807643 0.098081
N11_2 N 0.6224(4) 0.86692(15) 0.3125(3)
N12_2 N 0.6428(4) 0.89647(16) 0.3852(3)
C64_2 C 0.5465(4) 0.91010(18) 0.4073(4)
C65_2 C 0.4633(4) 0.88947(18) 0.3505(4)
C66_2 C 0.5148(4) 0.86308(18) 0.2900(4)
C67_2 C 0.5367(5) 0.9436(2) 0.4853(5)
H57_2 H 0.542155 0.969800 0.451383
H58_2 H 0.466588 0.941560 0.515332
H59_2 H 0.595027 0.941040 0.539563
C68_2 C 0.4678(5) 0.8348(2) 0.2095(6)
H60_2 H 0.440001 0.810753 0.242379
H61_2 H 0.408544 0.848267 0.169229
H62_2 H 0.523986 0.826956 0.164296
C69_2 C 0.3455(4) 0.89460(19) 0.3541(4)
C70_2 C 0.2772(4) 0.86183(19) 0.3655(5)
H63_2 H 0.306480 0.835348 0.368118
C71_2 C 0.1658(5) 0.8673(2) 0.3733(5)
H64_2 H 0.120226 0.844584 0.381323
C72_2 C 0.1227(4) 0.90542(19) 0.3692(4)
C73_2 C 0.1888(4) 0.93844(19) 0.3548(4)
H65_2 H 0.158229 0.964703 0.349868
C74_2 C 0.2987(5) 0.9334(2) 0.3475(4)
H66_2 H 0.343142 0.956254 0.337992
C75_2 C 0.0061(5) 0.9117(2) 0.3841(4)
O14_2 O 0.7982(3) 0.92073(16) 0.5585(3)
O15_2 O 0.9433(3) 0.88232(13) 0.3888(3)
H51_2 H 0.805227 0.824458 0.991988
C57_2 C 0.8229(5) 0.91400(19) 0.9441(4)
C58_2 C 0.9062(5) 0.9370(2) 0.9124(4)
H53_2 H 0.958950 0.947048 0.962151
C59_2 C 0.9156(5) 0.94597(19) 0.8109(4)
H54_2 H 0.973605 0.962448 0.791677
C60_2 C 0.8408(5) 0.9311(2) 0.7359(4)
C61_2 C 0.7576(6) 0.9069(3) 0.7665(5)
H55_2 H 0.706907 0.895637 0.716515
C62_2 C 0.7479(5) 0.8990(2) 0.8697(5)
H56_2 H 0.689172 0.883132 0.889744
C63_2 C 0.8511(5) 0.9412(2) 0.6253(5)
O3_2 O 0.0567(3) 0.38232(13) 0.6112(3)
H7_2 H 0.194773 0.324458 0.008012
C7_2 C 0.1771(5) 0.41400(19) 0.0559(4)
C8_2 C 0.0938(5) 0.4370(2) 0.0876(4)
H9_2 H 0.041050 0.447048 0.037849
C9_2 C 0.0844(5) 0.44597(19) 0.1891(4)
H10_2 H 0.026395 0.462448 0.208323
C10_2 C 0.1592(5) 0.4311(2) 0.2641(4)
C11_2 C 0.2424(6) 0.4069(3) 0.2335(5)
H11_2 H 0.293093 0.395637 0.283485
C12_2 C 0.2521(5) 0.3990(2) 0.1303(5)
H12_2 H 0.310828 0.383132 0.110256
C13_2 C 0.1489(5) 0.4412(2) 0.3747(5)
O2_2 O 0.2018(3) 0.42073(16) 0.4415(3)
C1_2 C 0.2834(4) 0.34927(18) 0.7334(4)
H1_2 H 0.304680 0.323438 0.767006
H2_2 H 0.226114 0.343501 0.678679
N1_2 N 0.2414(4) 0.37592(14) 0.8075(3)
N2_2 N 0.2094(4) 0.41373(15) 0.7777(3)
C2_2 C 0.1780(5) 0.43166(18) 0.8620(4)
C3_2 C 0.1932(5) 0.40600(18) 0.9474(4)
C4_2 C 0.2315(5) 0.3699(2) 0.9080(4)
C5_2 C 0.1395(6) 0.4738(2) 0.8580(5)
H3_2 H 0.061469 0.474179 0.839229
H4_2 H 0.153825 0.486344 0.925455
H5_2 H 0.177431 0.488731 0.806786
C6_2 C 0.2464(7) 0.3282(2) 0.9553(5)
H6_2 H 0.320361 0.325577 0.986546
H8_2 H 0.233782 0.307643 0.901919
N3_2 N 0.3776(4) 0.36692(15) 0.6875(3)
N4_2 N 0.3572(4) 0.39647(16) 0.6148(3)
C14_2 C 0.4535(4) 0.41010(18) 0.5927(4)
C15_2 C 0.5367(4) 0.38947(18) 0.6495(4)
C16_2 C 0.4852(4) 0.36308(18) 0.7100(4)
C17_2 C 0.4633(5) 0.4436(2) 0.5147(5)
H13_2 H 0.457845 0.469800 0.548617
H14_2 H 0.533412 0.441560 0.484668
H15_2 H 0.404973 0.441040 0.460437
C18_2 C 0.5322(5) 0.3348(2) 0.7905(6)
H16_2 H 0.559999 0.310753 0.757621
H17_2 H 0.591456 0.348267 0.830771
H18_2 H 0.476014 0.326956 0.835704
C19_2 C 0.6545(4) 0.39460(19) 0.6459(4)
C20_2 C 0.7228(4) 0.36183(19) 0.6345(5)
H19_2 H 0.693520 0.335348 0.631882
C21_2 C 0.8342(5) 0.3673(2) 0.6267(5)
H20_2 H 0.879774 0.344584 0.618677
C22_2 C 0.8773(4) 0.40542(19) 0.6308(4)
C23_2 C 0.8112(4) 0.43844(19) 0.6452(4)
H21_2 H 0.841771 0.464703 0.650132
C24_2 C 0.7013(5) 0.4334(2) 0.6525(4)
H22_2 H 0.656858 0.456254 0.662008
C25_2 C 0.9939(5) 0.4117(2) 0.6159(4)
loop_
_geom_bond_atom_site_label_1
_geom_bond_atom_site_label_2
_geom_bond_site_symmetry_1
_geom_bond_site_symmetry_2
Mn6 O3 1_555 1_555
Mn10 O4 1_555 1_555
O4 Mn6 1_555 1_555
C8 C7 1_555 1_555
H9 C8 1_555 1_555
C9 C8 1_555 1_555
H10 C9 1_555 1_555
C10 C9 1_555 1_555
C11 C10 1_555 1_555
H11 C11 1_555 1_555
C12 C7 1_555 1_555
H12 C12 1_555 1_555
C13 C10 1_555 1_555
O1 C13 1_555 1_555
O2 C13 1_555 1_555
Mn6 O2 1_555 1_555
Mn10 O1 1_555 1_555
C11 C12 1_555 1_555
Mn6 N2 1_555 1_555
C1 H1 1_555 1_555
H2 C1 1_555 1_555
N1 C1 1_555 1_555
N2 N1 1_555 1_555
C2 N2 1_555 1_555
C3 C2 1_555 1_555
C4 N1 1_555 1_555
C5 C2 1_555 1_555
H3 C5 1_555 1_555
H4 C5 1_555 1_555
H5 C5 1_555 1_555
C6 C4 1_555 1_555
H6 C6 1_555 1_555
H8 C6 1_555 1_555
N3 C1 1_555 1_555
N4 Mn6 1_555 1_555
C14 N4 1_555 1_555
C15 C14 1_555 1_555
C16 N3 1_555 1_555
C17 C14 1_555 1_555
H13 C17 1_555 1_555
H14 C17 1_555 1_555
H15 C17 1_555 1_555
C18 C16 1_555 1_555
H16 C18 1_555 1_555
H17 C18 1_555 1_555
H18 C18 1_555 1_555
C19 C15 1_555 1_555
C20 C19 1_555 1_555
H19 C20 1_555 1_555
C21 C20 1_555 1_555
H20 C21 1_555 1_555
C22 C21 1_555 1_555
C23 C22 1_555 1_555
H21 C23 1_555 1_555
C24 C19 1_555 1_555
H22 C24 1_555 1_555
C25 C22 1_555 1_555
O5 Mn6 1_555 1_555
C3 C4 1_555 1_555
N3 N4 1_555 1_555
C15 C16 1_555 1_555
C23 C24 1_555 1_555
Mn10_2 O6 1_555 1_555
Cu1 N6 1_555 1_555
C26 H23 1_555 1_555
H24 C26 1_555 1_555
N5 C26 1_555 1_555
N6 N5 1_555 1_555
C27 N6 1_555 1_555
C28 C27 1_555 1_555
C29 N5 1_555 1_555
C30 C27 1_555 1_555
H25 C30 1_555 1_555
H26 C30 1_555 1_555
H27 C30 1_555 1_555
C31 C29 1_555 1_555
H28 C31 1_555 1_555
H29 C31 1_555 1_555
H30 C31 1_555 1_555
C32 C28 1_555 1_555
C33 C32 1_555 1_555
H31 C33 1_555 1_555
C34 C33 1_555 1_555
H32 C34 1_555 1_555
C35 C34 1_555 1_555
C36 C35 1_555 1_555
H33 C36 1_555 1_555
C37 C32 1_555 1_555
H34 C37 1_555 1_555
C38 C35 1_555 1_555
O6 C38 1_555 1_555
N7 C26 1_555 1_555
N8 Cu1 1_555 1_555
C39 N8 1_555 1_555
C40 C39 1_555 1_555
C41 N7 1_555 1_555
C42 C39 1_555 1_555
H35 C42 1_555 1_555
H36 C42 1_555 1_555
H37 C42 1_555 1_555
C43 C41 1_555 1_555
H38 C43 1_555 1_555
H39 C43 1_555 1_555
H40 C43 1_555 1_555
C44 C40 1_555 1_555
C45 C44 1_555 1_555
H41 C45 1_555 1_555
C46 C45 1_555 1_555
H42 C46 1_555 1_555
C47 C46 1_555 1_555
C48 C47 1_555 1_555
H43 C48 1_555 1_555
C49 C44 1_555 1_555
H44 C49 1_555 1_555
C50 C47 1_555 1_555
O7 C50 1_555 1_555
O8 C50 1_555 1_555
Mn7 O7 1_555 1_555
Mn11 O8 1_555 1_555
C28 C29 1_555 1_555
C36 C37 1_555 1_555
N7 N8 1_555 1_555
C40 C41 1_555 1_555
C48 C49 1_555 1_555
O21 Mn10_3 1_555 1_555
O13 Mn10_4 1_555 1_555
O19 Mn10_4 1_555 1_555
O13_2 Mn11 1_555 1_555
O19_2 Mn11 1_555 1_555
Mn3 N10 1_555 1_555
C51 H45 1_555 1_555
H46 C51 1_555 1_555
N9 C51 1_555 1_555
N10 N9 1_555 1_555
C52 N10 1_555 1_555
C53 C52 1_555 1_555
C54 N9 1_555 1_555
C55 C52 1_555 1_555
H47 C55 1_555 1_555
H48 C55 1_555 1_555
H49 C55 1_555 1_555
C56 C54 1_555 1_555
H50 C56 1_555 1_555
H52 C56 1_555 1_555
N11 C51 1_555 1_555
N12 Mn3 1_555 1_555
C64 N12 1_555 1_555
C65 C64 1_555 1_555
C66 N11 1_555 1_555
C67 C64 1_555 1_555
H57 C67 1_555 1_555
H58 C67 1_555 1_555
H59 C67 1_555 1_555
C68 C66 1_555 1_555
H60 C68 1_555 1_555
H61 C68 1_555 1_555
H62 C68 1_555 1_555
C69 C65 1_555 1_555
C70 C69 1_555 1_555
H63 C70 1_555 1_555
C71 C70 1_555 1_555
H64 C71 1_555 1_555
C72 C71 1_555 1_555
C73 C72 1_555 1_555
H65 C73 1_555 1_555
C74 C69 1_555 1_555
H66 C74 1_555 1_555
C75 C72 1_555 1_555
O14 Mn3 1_555 1_555
O15 Mn3 1_555 1_555
O17 Mn3 1_555 1_555
O20 Mn3 1_555 1_555
C53 C54 1_555 1_555
N11 N12 1_555 1_555
C65 C66 1_555 1_555
C73 C74 1_555 1_555
Mn11_2 O6_2 1_555 1_555
Cu1_2 N6_2 1_555 1_555
C26_2 H23_2 1_555 1_555
H24_2 C26_2 1_555 1_555
N5_2 C26_2 1_555 1_555
N6_2 N5_2 1_555 1_555
C27_2 N6_2 1_555 1_555
C28_2 C27_2 1_555 1_555
C29_2 N5_2 1_555 1_555
C30_2 C27_2 1_555 1_555
H25_2 C30_2 1_555 1_555
H26_2 C30_2 1_555 1_555
H27_2 C30_2 1_555 1_555
C31_2 C29_2 1_555 1_555
H28_2 C31_2 1_555 1_555
H29_2 C31_2 1_555 1_555
H30_2 C31_2 1_555 1_555
C32_2 C28_2 1_555 1_555
C33_2 C32_2 1_555 1_555
H31_2 C33_2 1_555 1_555
C34_2 C33_2 1_555 1_555
H32_2 C34_2 1_555 1_555
C35_2 C34_2 1_555 1_555
C36_2 C35_2 1_555 1_555
H33_2 C36_2 1_555 1_555
C37_2 C32_2 1_555 1_555
H34_2 C37_2 1_555 1_555
C38_2 C35_2 1_555 1_555
O6_2 C38_2 1_555 1_555
N7_2 C26_2 1_555 1_555
N8_2 Cu1_2 1_555 1_555
C39_2 N8_2 1_555 1_555
C40_2 C39_2 1_555 1_555
C41_2 N7_2 1_555 1_555
C42_2 C39_2 1_555 1_555
H35_2 C42_2 1_555 1_555
H36_2 C42_2 1_555 1_555
H37_2 C42_2 1_555 1_555
C43_2 C41_2 1_555 1_555
H38_2 C43_2 1_555 1_555
H39_2 C43_2 1_555 1_555
H40_2 C43_2 1_555 1_555
C44_2 C40_2 1_555 1_555
C45_2 C44_2 1_555 1_555
H41_2 C45_2 1_555 1_555
C46_2 C45_2 1_555 1_555
H42_2 C46_2 1_555 1_555
C47_2 C46_2 1_555 1_555
C48_2 C47_2 1_555 1_555
H43_2 C48_2 1_555 1_555
C49_2 C44_2 1_555 1_555
H44_2 C49_2 1_555 1_555
C50_2 C47_2 1_555 1_555
O21 C50_2 1_555 1_555
C58 C57 1_555 1_555
H53 C58 1_555 1_555
C59 C58 1_555 1_555
H54 C59 1_555 1_555
C60 C59 1_555 1_555
C61 C60 1_555 1_555
H55 C61 1_555 1_555
C62 C57 1_555 1_555
H56 C62 1_555 1_555
C63 C60 1_555 1_555
O9 Mn11_2 1_555 1_555
Mn11_2 O17 1_555 1_555
C28_2 C29_2 1_555 1_555
C36_2 C37_2 1_555 1_555
C38_2 O20 1_555 1_555
N7_2 N8_2 1_555 1_555
C40_2 C41_2 1_555 1_555
C48_2 C49_2 1_555 1_555
C61 C62 1_555 1_555
C63 O9 1_555 1_555
C63 O14 1_555 1_555
Mn7_2 O7_2 1_555 1_555
Mn7_2 N10_2 1_555 1_555
C51_2 H45_2 1_555 1_555
H46_2 C51_2 1_555 1_555
N9_2 C51_2 1_555 1_555
N10_2 N9_2 1_555 1_555
C52_2 N10_2 1_555 1_555
C53_2 C52_2 1_555 1_555
C54_2 N9_2 1_555 1_555
C55_2 C52_2 1_555 1_555
H47_2 C55_2 1_555 1_555
H48_2 C55_2 1_555 1_555
H49_2 C55_2 1_555 1_555
C56_2 C54_2 1_555 1_555
H50_2 C56_2 1_555 1_555
H52_2 C56_2 1_555 1_555
N11_2 C51_2 1_555 1_555
N12_2 Mn7_2 1_555 1_555
C64_2 N12_2 1_555 1_555
C65_2 C64_2 1_555 1_555
C66_2 N11_2 1_555 1_555
C67_2 C64_2 1_555 1_555
H57_2 C67_2 1_555 1_555
H58_2 C67_2 1_555 1_555
H59_2 C67_2 1_555 1_555
C68_2 C66_2 1_555 1_555
H60_2 C68_2 1_555 1_555
H61_2 C68_2 1_555 1_555
H62_2 C68_2 1_555 1_555
C69_2 C65_2 1_555 1_555
C70_2 C69_2 1_555 1_555
H63_2 C70_2 1_555 1_555
C71_2 C70_2 1_555 1_555
H64_2 C71_2 1_555 1_555
C72_2 C71_2 1_555 1_555
C73_2 C72_2 1_555 1_555
H65_2 C73_2 1_555 1_555
C74_2 C69_2 1_555 1_555
H66_2 C74_2 1_555 1_555
C75_2 C72_2 1_555 1_555
O14_2 Mn7_2 1_555 1_555
O15_2 Mn7_2 1_555 1_555
O19 Mn7_2 1_555 1_555
C53_2 C54_2 1_555 1_555
N11_2 N12_2 1_555 1_555
C65_2 C66_2 1_555 1_555
C73_2 C74_2 1_555 1_555
C58_2 C57_2 1_555 1_555
H53_2 C58_2 1_555 1_555
C59_2 C58_2 1_555 1_555
H54_2 C59_2 1_555 1_555
C60_2 C59_2 1_555 1_555
C61_2 C60_2 1_555 1_555
H55_2 C61_2 1_555 1_555
C62_2 C57_2 1_555 1_555
H56_2 C62_2 1_555 1_555
C63_2 C60_2 1_555 1_555
C61_2 C62_2 1_555 1_555
C63_2 O13 1_555 1_555
C63_2 O14_2 1_555 1_555
Mn7 O3_2 1_555 1_555
O19_2 Mn7 1_555 1_555
C8_2 C7_2 1_555 1_555
H9_2 C8_2 1_555 1_555
C9_2 C8_2 1_555 1_555
H10_2 C9_2 1_555 1_555
C10_2 C9_2 1_555 1_555
C11_2 C10_2 1_555 1_555
H11_2 C11_2 1_555 1_555
C12_2 C7_2 1_555 1_555
H12_2 C12_2 1_555 1_555
C13_2 C10_2 1_555 1_555
O13_2 C13_2 1_555 1_555
O2_2 C13_2 1_555 1_555
Mn7 O2_2 1_555 1_555
C11_2 C12_2 1_555 1_555
Mn7 N2_2 1_555 1_555
C1_2 H1_2 1_555 1_555
H2_2 C1_2 1_555 1_555
N1_2 C1_2 1_555 1_555
N2_2 N1_2 1_555 1_555
C2_2 N2_2 1_555 1_555
C3_2 C2_2 1_555 1_555
C4_2 N1_2 1_555 1_555
C5_2 C2_2 1_555 1_555
H3_2 C5_2 1_555 1_555
H4_2 C5_2 1_555 1_555
H5_2 C5_2 1_555 1_555
C6_2 C4_2 1_555 1_555
H6_2 C6_2 1_555 1_555
H8_2 C6_2 1_555 1_555
N3_2 C1_2 1_555 1_555
N4_2 Mn7 1_555 1_555
C14_2 N4_2 1_555 1_555
C15_2 C14_2 1_555 1_555
C16_2 N3_2 1_555 1_555
C17_2 C14_2 1_555 1_555
H13_2 C17_2 1_555 1_555
H14_2 C17_2 1_555 1_555
H15_2 C17_2 1_555 1_555
C18_2 C16_2 1_555 1_555
H16_2 C18_2 1_555 1_555
H17_2 C18_2 1_555 1_555
H18_2 C18_2 1_555 1_555
C19_2 C15_2 1_555 1_555
C20_2 C19_2 1_555 1_555
H19_2 C20_2 1_555 1_555
C21_2 C20_2 1_555 1_555
H20_2 C21_2 1_555 1_555
C22_2 C21_2 1_555 1_555
C23_2 C22_2 1_555 1_555
H21_2 C23_2 1_555 1_555
C24_2 C19_2 1_555 1_555
H22_2 C24_2 1_555 1_555
C25_2 C22_2 1_555 1_555
C3_2 C4_2 1_555 1_555
N3_2 N4_2 1_555 1_555
C15_2 C16_2 1_555 1_555
C23_2 C24_2 1_555 1_555

#END
