
###############################################################################
#
# This file contains modified crystal structure data generated from the
# MOF subset of the Cambridge Structural Database (CSD) v543 
# hosted by the Cambridge Crystallographic Data Centre (CCDC).
#
# This work is licensed under the Creative Commons
# Attribution-NonCommercial-ShareAlike 4.0 International License.
# To view a copy of this license, visit
# http://creativecommons.org/licenses/by-nc-sa/4.0/
# or send a letter to
# Creative Commons, PO Box 1866, Mountain View, CA 94042, USA.
#
# CIF created using the CSD Python API on 29 September 2022
# The structure has been converted into the P1 space group
# The structure has a 3D framework
# The original CSD entry BANKAG is in the monoclinic crystal system
# The framework has been calculated to contain at least 10.0% void space
# The void calculation uses a probe of radius 1.32A, grid spacing 0.4
#
###############################################################################

data_BANKAG
_chemical_formula_moiety         '(C150 H132 Br2 Cu2 Mn9 N24 O23)n'
_symmetry_cell_setting           triclinic
_symmetry_space_group_name_H-M   'P 1'
_symmetry_Int_Tables_number      1
_space_group_name_Hall           'P 1'
loop_
_symmetry_equiv_pos_site_id
_symmetry_equiv_pos_as_xyz
1 x,y,z
_cell_length_a                   12.335(3)
_cell_length_b                   33.732(7)
_cell_length_c                   13.089(3)
_cell_angle_alpha                90
_cell_angle_beta                 93.23(3)
_cell_angle_gamma                90
_cell_volume                     5437.47
loop_
_atom_site_label
_atom_site_type_symbol
_atom_site_fract_x
_atom_site_fract_y
_atom_site_fract_z
C25 C 0.0046(10) 0.4156(5) 0.6217(10)
O3 O 0.0285(6) 0.4497(3) 0.6121(6)
O4 O 0.0592(7) 0.3859(3) 0.6233(6)
Mn5 Mn 0.000000 0.500000 0.500000
Mn8 Mn 0.20102(16) 0.43310(5) 0.60722(14)
O7 O 0.2596(7) 0.0101(3) 0.6283(6)
Mn6 Mn 0.000000 0.000000 0.500000
Mn11 Mn 0.20102(16) 0.06690(5) 0.60722(14)
Cu1 Cu 0.5863(2) 0.750000 0.92994(18)
H6 H 0.197480 0.331800 0.016605
C7 C 0.1888(10) 0.4223(4) 0.0590(9)
C8 C 0.2605(10) 0.4018(3) 0.1347(10)
H9 H 0.315629 0.384430 0.113892
C9 C 0.2463(8) 0.4085(4) 0.2369(11)
H10 H 0.289063 0.393489 0.285690
C10 C 0.1744(12) 0.4353(4) 0.2722(10)
C11 C 0.1050(10) 0.4550(4) 0.1929(11)
H11 H 0.050338 0.472939 0.212152
C12 C 0.1179(12) 0.4481(4) 0.0946(11)
H12 H 0.073612 0.462584 0.045961
C13 C 0.1591(12) 0.4416(4) 0.3807(9)
O1 O 0.2084(7) 0.4222(3) 0.4509(7)
O2 O 0.1023(8) 0.4720(3) 0.4007(6)
C26 C 0.6405(14) 0.750000 0.7026(10)
H23 H 0.656920 0.749999 0.629428
H24 H 0.711035 0.750000 0.742617
N5 N 0.5897(10) 0.7144(3) 0.7219(9)
N6 N 0.5684(9) 0.7053(3) 0.8236(7)
C27 C 0.5052(11) 0.6723(4) 0.8225(10)
C28 C 0.4898(11) 0.6600(4) 0.7267(11)
C29 C 0.5396(12) 0.6864(4) 0.6612(11)
C30 C 0.4704(11) 0.6558(4) 0.9226(11)
H25 H 0.391050 0.653510 0.920164
H26 H 0.494536 0.673549 0.978586
H27 H 0.502847 0.629528 0.934111
C31 C 0.5404(15) 0.6880(4) 0.5458(10)
H28 H 0.531953 0.715578 0.522919
H29 H 0.480298 0.672078 0.515751
H30 H 0.609385 0.677497 0.523924
C32 C 0.4254(11) 0.6241(4) 0.6925(10)
C33 C 0.4512(10) 0.5883(4) 0.7286(10)
H31 H 0.515447 0.585019 0.771230
C34 C 0.3858(11) 0.5551(4) 0.7051(9)
H32 H 0.406920 0.529891 0.731433
C35 C 0.2896(11) 0.5587(4) 0.6434(8)
C36 C 0.2702(10) 0.5956(5) 0.6134(9)
H33 H 0.204244 0.598560 0.573012
C37 C 0.3208(12) 0.6274(4) 0.6272(10)
H34 H 0.295413 0.651857 0.598840
C38 C 0.2292(10) 0.5237(4) 0.6183(10)
O5 O 0.2596(7) 0.4899(3) 0.6283(6)
O6 O 0.1337(7) 0.5296(2) 0.5767(6)
N7 N 0.5897(10) 0.7856(3) 0.7219(9)
N8 N 0.5684(9) 0.7947(3) 0.8236(7)
C39 C 0.5052(11) 0.8277(4) 0.8225(10)
C40 C 0.4898(11) 0.8400(4) 0.7267(11)
C41 C 0.5396(12) 0.8136(4) 0.6612(11)
C42 C 0.4704(11) 0.8442(4) 0.9226(11)
H35 H 0.391050 0.846490 0.920164
H36 H 0.494536 0.826451 0.978586
H37 H 0.502847 0.870472 0.934111
C43 C 0.5404(15) 0.8120(4) 0.5458(10)
H38 H 0.531953 0.784422 0.522919
H39 H 0.480298 0.827922 0.515751
H40 H 0.609385 0.822503 0.523924
C44 C 0.4254(11) 0.8759(4) 0.6925(10)
C45 C 0.4512(10) 0.9117(4) 0.7286(10)
H41 H 0.515447 0.914981 0.771230
C46 C 0.3858(11) 0.9449(4) 0.7051(9)
H42 H 0.406920 0.970109 0.731433
C47 C 0.2896(11) 0.9413(4) 0.6434(8)
C48 C 0.2702(10) 0.9044(5) 0.6134(9)
H43 H 0.204244 0.901440 0.573012
C49 C 0.3208(12) 0.8726(4) 0.6272(10)
H44 H 0.295413 0.848143 0.598840
C50 C 0.2292(10) 0.9763(4) 0.6183(10)
O8 O 0.1337(7) 0.9704(2) 0.5767(6)
Mn6_2 Mn 0.000000 1.000000 0.500000
N13 N 0.2203(8) 0.4195(3) 0.7845(9)
N15 N 0.3596(9) 0.3989(3) 0.6211(8)
C1 C 0.2852(10) 0.3545(3) 0.7396(8)
H1 H 0.311545 0.330147 0.775413
H2 H 0.227267 0.346599 0.688221
N1 N 0.2395(8) 0.3810(3) 0.8135(8)
C2 C 0.1961(9) 0.4369(4) 0.8690(10)
C3 C 0.2044(10) 0.4117(4) 0.9492(10)
C4 C 0.2309(9) 0.3762(4) 0.9182(8)
C5 C 0.1726(11) 0.4811(4) 0.8694(10)
H3 H 0.217043 0.494388 0.819926
H4 H 0.190079 0.491813 0.937914
H5 H 0.095576 0.485587 0.850523
C6 C 0.2414(9) 0.3350(3) 0.9570(9)
H7 H 0.317691 0.329449 0.976956
H8 H 0.215992 0.316439 0.903228
N3 N 0.3699(8) 0.3711(3) 0.6898(8)
C14 C 0.4541(11) 0.4114(3) 0.5988(9)
C15 C 0.5368(12) 0.3926(3) 0.6585(10)
C16 C 0.4814(11) 0.3658(4) 0.7181(10)
C17 C 0.4719(9) 0.4445(3) 0.5274(9)
H13 H 0.415871 0.443917 0.471308
H14 H 0.543658 0.441868 0.499649
H15 H 0.467885 0.469762 0.564168
C18 C 0.5288(13) 0.3354(3) 0.7963(9)
H16 H 0.479533 0.332510 0.851999
H17 H 0.599757 0.344646 0.824108
H18 H 0.537170 0.309763 0.762480
C19 C 0.6526(12) 0.3972(4) 0.6541(8)
C20 C 0.6991(11) 0.4348(4) 0.6613(9)
H19 H 0.655374 0.457416 0.672682
C21 C 0.8074(12) 0.4388(4) 0.6519(9)
H20 H 0.835418 0.465046 0.656463
C22 C 0.8807(15) 0.4095(4) 0.6368(9)
C23 C 0.8336(12) 0.3699(4) 0.6356(10)
H21 H 0.879607 0.347605 0.628947
C24 C 0.7236(12) 0.3641(4) 0.6441(9)
H22 H 0.695006 0.337946 0.643153
Mn5_2 Mn 1.000000 0.500000 0.500000
Mn6_3 Mn 1.000000 0.000000 0.500000
C51 C 0.7148(10) 0.6455(3) 0.2604(8)
H45 H 0.688455 0.669853 0.224587
H46 H 0.772733 0.653401 0.311779
N9 N 0.7605(8) 0.6190(3) 0.1865(8)
N10 N 0.7797(8) 0.5805(3) 0.2155(9)
C52 C 0.8039(9) 0.5631(4) 0.1310(10)
C53 C 0.7956(10) 0.5883(4) 0.0508(10)
C54 C 0.7691(9) 0.6238(4) 0.0818(8)
C55 C 0.8274(11) 0.5189(4) 0.1306(10)
H47 H 0.782957 0.505612 0.180074
H48 H 0.809921 0.508187 0.062086
H49 H 0.904424 0.514413 0.149477
C56 C 0.7586(9) 0.6650(3) 0.0430(9)
H51 H 0.682309 0.670551 0.023044
H52 H 0.784008 0.683561 0.096772
N11 N 0.6301(8) 0.6289(3) 0.3102(8)
N12 N 0.6404(9) 0.6011(3) 0.3789(8)
C64 C 0.5459(11) 0.5886(3) 0.4012(9)
C65 C 0.4632(12) 0.6074(3) 0.3415(10)
C66 C 0.5186(11) 0.6342(4) 0.2819(10)
C67 C 0.5281(9) 0.5555(3) 0.4726(9)
H57 H 0.584129 0.556083 0.528692
H58 H 0.456342 0.558132 0.500351
H59 H 0.532115 0.530238 0.435832
C68 C 0.4712(13) 0.6646(3) 0.2037(9)
H60 H 0.520467 0.667490 0.148001
H61 H 0.400243 0.655354 0.175892
H62 H 0.462830 0.690237 0.237520
C69 C 0.3474(12) 0.6028(4) 0.3459(8)
C70 C 0.3009(11) 0.5652(4) 0.3387(9)
H63 H 0.344626 0.542584 0.327318
C71 C 0.1926(12) 0.5612(4) 0.3481(9)
H64 H 0.164582 0.534954 0.343537
C72 C 0.1193(15) 0.5905(4) 0.3632(9)
C73 C 0.1664(12) 0.6301(4) 0.3644(10)
H65 H 0.120393 0.652395 0.371053
C74 C 0.2764(12) 0.6359(4) 0.3559(9)
H66 H 0.304994 0.662054 0.356847
Mn10 Mn 0.79898(16) 0.56690(5) 0.39278(14)
H50 H 0.802520 0.668200 0.983395
C57 C 0.8112(10) 0.5777(4) 0.9410(9)
C58 C 0.7395(10) 0.5982(3) 0.8653(10)
H53 H 0.684371 0.615570 0.886108
C59 C 0.7537(8) 0.5915(4) 0.7631(11)
H54 H 0.710937 0.606511 0.714310
C60 C 0.8256(12) 0.5647(4) 0.7278(10)
C61 C 0.8950(10) 0.5450(4) 0.8071(11)
H55 H 0.949662 0.527061 0.787848
C62 C 0.8821(12) 0.5519(4) 0.9054(11)
H56 H 0.926388 0.537416 0.954039
C63 C 0.8409(12) 0.5584(4) 0.6193(9)
O9 O 0.7916(7) 0.5778(3) 0.5491(7)
O10 O 0.8977(8) 0.5280(3) 0.5993(6)
Mn6_4 Mn 1.000000 1.000000 0.500000
O14 O 0.9715(6) 0.5503(3) 0.3879(6)
O16 O 0.9408(7) 0.6141(3) 0.3767(6)
O17 O 0.7404(7) 0.5101(3) 0.3717(6)
O18 O 0.8663(7) 0.4704(2) 0.4233(6)
C75 C 0.9954(10) 0.5844(5) 0.3783(10)
C75_2 C 0.0046(10) 0.0844(5) 0.6217(10)
O11 O 0.0285(6) 0.0503(3) 0.6121(6)
O12 O 0.0592(7) 0.1141(3) 0.6233(6)
H50_2 H 0.197480 0.168200 0.016605
C57_2 C 0.1888(10) 0.0777(4) 0.0590(9)
C58_2 C 0.2605(10) 0.0982(3) 0.1347(10)
H53_2 H 0.315629 0.115570 0.113892
C59_2 C 0.2463(8) 0.0915(4) 0.2369(11)
H54_2 H 0.289063 0.106511 0.285690
C60_2 C 0.1744(12) 0.0647(4) 0.2722(10)
C61_2 C 0.1050(10) 0.0450(4) 0.1929(11)
H55_2 H 0.050338 0.027061 0.212152
C62_2 C 0.1179(12) 0.0519(4) 0.0946(11)
H56_2 H 0.073612 0.037416 0.045961
C63_2 C 0.1591(12) 0.0584(4) 0.3807(9)
O9_2 O 0.2084(7) 0.0778(3) 0.4509(7)
O10_2 O 0.1023(8) 0.0280(3) 0.4007(6)
N14 N 0.2203(8) 0.0805(3) 0.7845(9)
N16 N 0.3596(9) 0.1011(3) 0.6211(8)
C51_2 C 0.2852(10) 0.1455(3) 0.7396(8)
H45_2 H 0.311545 0.169853 0.775413
H46_2 H 0.227267 0.153401 0.688221
N9_2 N 0.2395(8) 0.1190(3) 0.8135(8)
C52_2 C 0.1961(9) 0.0631(4) 0.8690(10)
C53_2 C 0.2044(10) 0.0883(4) 0.9492(10)
C54_2 C 0.2309(9) 0.1238(4) 0.9182(8)
C55_2 C 0.1726(11) 0.0189(4) 0.8694(10)
H47_2 H 0.217043 0.005612 0.819926
H48_2 H 0.190079 0.008187 0.937914
H49_2 H 0.095576 0.014413 0.850523
C56_2 C 0.2414(9) 0.1650(3) 0.9570(9)
H51_2 H 0.317691 0.170551 0.976956
H52_2 H 0.215992 0.183561 0.903228
N11_2 N 0.3699(8) 0.1289(3) 0.6898(8)
C64_2 C 0.4541(11) 0.0886(3) 0.5988(9)
C65_2 C 0.5368(12) 0.1074(3) 0.6585(10)
C66_2 C 0.4814(11) 0.1342(4) 0.7181(10)
C67_2 C 0.4719(9) 0.0555(3) 0.5274(9)
H57_2 H 0.415871 0.056083 0.471308
H58_2 H 0.543658 0.058132 0.499649
H59_2 H 0.467885 0.030238 0.564168
C68_2 C 0.5288(13) 0.1646(3) 0.7963(9)
H60_2 H 0.479533 0.167490 0.851999
H61_2 H 0.599757 0.155354 0.824108
H62_2 H 0.537170 0.190237 0.762480
C69_2 C 0.6526(12) 0.1028(4) 0.6541(8)
C70_2 C 0.6991(11) 0.0652(4) 0.6613(9)
H63_2 H 0.655374 0.042584 0.672682
C71_2 C 0.8074(12) 0.0612(4) 0.6519(9)
H64_2 H 0.835418 0.034954 0.656463
C72_2 C 0.8807(15) 0.0905(4) 0.6368(9)
C73_2 C 0.8336(12) 0.1301(4) 0.6356(10)
H65_2 H 0.879607 0.152395 0.628947
C74_2 C 0.7236(12) 0.1359(4) 0.6441(9)
H66_2 H 0.695006 0.162054 0.643153
Cu1_2 Cu 0.4137(2) 0.250000 0.07006(18)
C26_2 C 0.3595(14) 0.250000 0.2974(10)
H23_2 H 0.343080 0.249999 0.370572
H24_2 H 0.288965 0.250000 0.257383
N5_2 N 0.4103(10) 0.2144(3) 0.2781(9)
N6_2 N 0.4316(9) 0.2053(3) 0.1764(7)
C27_2 C 0.4948(11) 0.1723(4) 0.1775(10)
C28_2 C 0.5102(11) 0.1600(4) 0.2733(11)
C29_2 C 0.4604(12) 0.1864(4) 0.3388(11)
C30_2 C 0.5296(11) 0.1558(4) 0.0774(11)
H25_2 H 0.608950 0.153510 0.079836
H26_2 H 0.505464 0.173549 0.021414
H27_2 H 0.497153 0.129528 0.065889
C31_2 C 0.4596(15) 0.1880(4) 0.4542(10)
H28_2 H 0.468047 0.215578 0.477081
H29_2 H 0.519702 0.172078 0.484249
H30_2 H 0.390615 0.177497 0.476076
C32_2 C 0.5746(11) 0.1241(4) 0.3075(10)
C33_2 C 0.5488(10) 0.0883(4) 0.2714(10)
H31_2 H 0.484553 0.085019 0.228770
C34_2 C 0.6142(11) 0.0551(4) 0.2949(9)
H32_2 H 0.593080 0.029891 0.268567
C35_2 C 0.7104(11) 0.0587(4) 0.3566(8)
C36_2 C 0.7298(10) 0.0956(5) 0.3866(9)
H33_2 H 0.795756 0.098560 0.426988
C37_2 C 0.6792(12) 0.1274(4) 0.3728(10)
H34_2 H 0.704587 0.151857 0.401160
C38_2 C 0.7708(10) 0.0237(4) 0.3817(10)
O6_2 O 0.8663(7) 0.0296(2) 0.4233(6)
N7_2 N 0.4103(10) 0.2856(3) 0.2781(9)
N8_2 N 0.4316(9) 0.2947(3) 0.1764(7)
C39_2 C 0.4948(11) 0.3277(4) 0.1775(10)
C40_2 C 0.5102(11) 0.3400(4) 0.2733(11)
C41_2 C 0.4604(12) 0.3136(4) 0.3388(11)
C42_2 C 0.5296(11) 0.3442(4) 0.0774(11)
H35_2 H 0.608950 0.346490 0.079836
H36_2 H 0.505464 0.326451 0.021414
H37_2 H 0.497153 0.370472 0.065889
C43_2 C 0.4596(15) 0.3120(4) 0.4542(10)
H38_2 H 0.468047 0.284422 0.477081
H39_2 H 0.519702 0.327922 0.484249
H40_2 H 0.390615 0.322503 0.476076
C44_2 C 0.5746(11) 0.3759(4) 0.3075(10)
C45_2 C 0.5488(10) 0.4117(4) 0.2714(10)
H41_2 H 0.484553 0.414981 0.228770
C46_2 C 0.6142(11) 0.4449(4) 0.2949(9)
H42_2 H 0.593080 0.470109 0.268567
C47_2 C 0.7104(11) 0.4413(4) 0.3566(8)
C48_2 C 0.7298(10) 0.4044(5) 0.3866(9)
H43_2 H 0.795756 0.401440 0.426988
C49_2 C 0.6792(12) 0.3726(4) 0.3728(10)
H44_2 H 0.704587 0.348143 0.401160
C50_2 C 0.7708(10) 0.4763(4) 0.3817(10)
C1_2 C 0.7148(10) 0.8545(3) 0.2604(8)
H1_2 H 0.688455 0.830147 0.224587
H2_2 H 0.772733 0.846599 0.311779
N1_2 N 0.7605(8) 0.8810(3) 0.1865(8)
N2 N 0.7797(8) 0.9195(3) 0.2155(9)
C2_2 C 0.8039(9) 0.9369(4) 0.1310(10)
C3_2 C 0.7956(10) 0.9117(4) 0.0508(10)
C4_2 C 0.7691(9) 0.8762(4) 0.0818(8)
C5_2 C 0.8274(11) 0.9811(4) 0.1306(10)
H3_2 H 0.782957 0.994388 0.180074
H4_2 H 0.809921 0.991813 0.062086
H5_2 H 0.904424 0.985587 0.149477
C6_2 C 0.7586(9) 0.8350(3) 0.0430(9)
H7_2 H 0.682309 0.829449 0.023044
H8_2 H 0.784008 0.816439 0.096772
N3_2 N 0.6301(8) 0.8711(3) 0.3102(8)
N4 N 0.6404(9) 0.8989(3) 0.3789(8)
C14_2 C 0.5459(11) 0.9114(3) 0.4012(9)
C15_2 C 0.4632(12) 0.8926(3) 0.3415(10)
C16_2 C 0.5186(11) 0.8658(4) 0.2819(10)
C17_2 C 0.5281(9) 0.9445(3) 0.4726(9)
H13_2 H 0.584129 0.943917 0.528692
H14_2 H 0.456342 0.941868 0.500351
H15_2 H 0.532115 0.969762 0.435832
C18_2 C 0.4712(13) 0.8354(3) 0.2037(9)
H16_2 H 0.520467 0.832510 0.148001
H17_2 H 0.400243 0.844646 0.175892
H18_2 H 0.462830 0.809763 0.237520
C19_2 C 0.3474(12) 0.8972(4) 0.3459(8)
C20_2 C 0.3009(11) 0.9348(4) 0.3387(9)
H19_2 H 0.344626 0.957416 0.327318
C21_2 C 0.1926(12) 0.9388(4) 0.3481(9)
H20_2 H 0.164582 0.965046 0.343537
C22_2 C 0.1193(15) 0.9095(4) 0.3632(9)
C23_2 C 0.1664(12) 0.8699(4) 0.3644(10)
H21_2 H 0.120393 0.847605 0.371053
C24_2 C 0.2764(12) 0.8641(4) 0.3559(9)
H22_2 H 0.304994 0.837946 0.356847
Mn7 Mn 0.79898(16) 0.93310(5) 0.39278(14)
H6_2 H 0.802520 0.831800 0.983395
C7_2 C 0.8112(10) 0.9223(4) 0.9410(9)
C8_2 C 0.7395(10) 0.9018(3) 0.8653(10)
H9_2 H 0.684371 0.884430 0.886108
C9_2 C 0.7537(8) 0.9085(4) 0.7631(11)
H10_2 H 0.710937 0.893489 0.714310
C10_2 C 0.8256(12) 0.9353(4) 0.7278(10)
C11_2 C 0.8950(10) 0.9550(4) 0.8071(11)
H11_2 H 0.949662 0.972939 0.787848
C12_2 C 0.8821(12) 0.9481(4) 0.9054(11)
H12_2 H 0.926388 0.962584 0.954039
C13_2 C 0.8409(12) 0.9416(4) 0.6193(9)
O1_2 O 0.7916(7) 0.9222(3) 0.5491(7)
O2_2 O 0.8977(8) 0.9720(3) 0.5993(6)
O5_2 O 0.7404(7) 0.9899(3) 0.3717(6)
O13 O 0.9715(6) 0.9497(3) 0.3879(6)
O15 O 0.9408(7) 0.8859(3) 0.3767(6)
C25_2 C 0.9954(10) 0.9156(5) 0.3783(10)
Br1 Br 0.60544(19) 0.750000 0.10333(16)
Br1_2 Br 0.39456(19) 0.250000 0.89667(16)
loop_
_geom_bond_atom_site_label_1
_geom_bond_atom_site_label_2
_geom_bond_site_symmetry_1
_geom_bond_site_symmetry_2
O3 C25 1_555 1_555
O4 C25 1_555 1_555
Mn5 O3 1_555 1_555
Mn8 O3 1_555 1_555
O4 Mn8 1_555 1_555
Mn11 O7 1_555 1_555
Mn5 O2 1_555 1_555
Mn8 O1 1_555 1_555
C8 C7 1_555 1_555
H9 C8 1_555 1_555
C9 C8 1_555 1_555
H10 C9 1_555 1_555
C10 C9 1_555 1_555
C11 C10 1_555 1_555
H11 C11 1_555 1_555
C12 C7 1_555 1_555
H12 C12 1_555 1_555
C13 C10 1_555 1_555
O1 C13 1_555 1_555
O2 C13 1_555 1_555
C26 H23 1_555 1_555
H24 C26 1_555 1_555
N5 C26 1_555 1_555
N6 Cu1 1_555 1_555
C27 N6 1_555 1_555
C28 C27 1_555 1_555
C29 N5 1_555 1_555
C30 C27 1_555 1_555
H25 C30 1_555 1_555
H26 C30 1_555 1_555
H27 C30 1_555 1_555
C31 C29 1_555 1_555
H28 C31 1_555 1_555
H29 C31 1_555 1_555
H30 C31 1_555 1_555
C32 C28 1_555 1_555
C33 C32 1_555 1_555
H31 C33 1_555 1_555
C34 C33 1_555 1_555
H32 C34 1_555 1_555
C35 C34 1_555 1_555
C36 C35 1_555 1_555
H33 C36 1_555 1_555
C37 C32 1_555 1_555
H34 C37 1_555 1_555
C38 C35 1_555 1_555
O5 Mn8 1_555 1_555
O6 Mn5 1_555 1_555
N7 C26 1_555 1_555
N8 Cu1 1_555 1_555
C39 N8 1_555 1_555
C40 C39 1_555 1_555
C41 N7 1_555 1_555
C42 C39 1_555 1_555
H35 C42 1_555 1_555
H36 C42 1_555 1_555
H37 C42 1_555 1_555
C43 C41 1_555 1_555
H38 C43 1_555 1_555
H39 C43 1_555 1_555
H40 C43 1_555 1_555
C44 C40 1_555 1_555
C45 C44 1_555 1_555
H41 C45 1_555 1_555
C46 C45 1_555 1_555
H42 C46 1_555 1_555
C47 C46 1_555 1_555
C48 C47 1_555 1_555
H43 C48 1_555 1_555
C49 C44 1_555 1_555
H44 C49 1_555 1_555
C50 C47 1_555 1_555
O8 C50 1_555 1_555
Mn6_2 O8 1_555 1_555
N13 Mn8 1_555 1_555
N15 Mn8 1_555 1_555
C11 C12 1_555 1_555
N5 N6 1_555 1_555
C28 C29 1_555 1_555
C36 C37 1_555 1_555
C38 O5 1_555 1_555
C38 O6 1_555 1_555
N7 N8 1_555 1_555
C40 C41 1_555 1_555
C48 C49 1_555 1_555
C1 H1 1_555 1_555
H2 C1 1_555 1_555
N1 C1 1_555 1_555
N13 N1 1_555 1_555
C2 N13 1_555 1_555
C3 C2 1_555 1_555
C4 N1 1_555 1_555
C5 C2 1_555 1_555
H3 C5 1_555 1_555
H4 C5 1_555 1_555
H5 C5 1_555 1_555
C6 C4 1_555 1_555
H7 C6 1_555 1_555
H8 C6 1_555 1_555
N3 C1 1_555 1_555
N15 N3 1_555 1_555
C14 N15 1_555 1_555
C15 C14 1_555 1_555
C16 N3 1_555 1_555
C17 C14 1_555 1_555
H13 C17 1_555 1_555
H14 C17 1_555 1_555
H15 C17 1_555 1_555
C18 C16 1_555 1_555
H16 C18 1_555 1_555
H17 C18 1_555 1_555
H18 C18 1_555 1_555
C19 C15 1_555 1_555
C20 C19 1_555 1_555
H19 C20 1_555 1_555
C21 C20 1_555 1_555
H20 C21 1_555 1_555
C22 C21 1_555 1_555
C23 C22 1_555 1_555
H21 C23 1_555 1_555
C24 C19 1_555 1_555
H22 C24 1_555 1_555
C3 C4 1_555 1_555
C15 C16 1_555 1_555
C23 C24 1_555 1_555
C51 H45 1_555 1_555
H46 C51 1_555 1_555
N9 C51 1_555 1_555
N10 N9 1_555 1_555
C52 N10 1_555 1_555
C53 C52 1_555 1_555
C54 N9 1_555 1_555
C55 C52 1_555 1_555
H47 C55 1_555 1_555
H48 C55 1_555 1_555
H49 C55 1_555 1_555
C56 C54 1_555 1_555
H51 C56 1_555 1_555
H52 C56 1_555 1_555
N11 C51 1_555 1_555
N12 N11 1_555 1_555
C64 N12 1_555 1_555
C65 C64 1_555 1_555
C66 N11 1_555 1_555
C67 C64 1_555 1_555
H57 C67 1_555 1_555
H58 C67 1_555 1_555
H59 C67 1_555 1_555
C68 C66 1_555 1_555
H60 C68 1_555 1_555
H61 C68 1_555 1_555
H62 C68 1_555 1_555
C69 C65 1_555 1_555
C70 C69 1_555 1_555
H63 C70 1_555 1_555
C71 C70 1_555 1_555
H64 C71 1_555 1_555
C72 C71 1_555 1_555
C73 C72 1_555 1_555
H65 C73 1_555 1_555
C74 C69 1_555 1_555
H66 C74 1_555 1_555
Mn10 N10 1_555 1_555
C53 C54 1_555 1_555
N12 Mn10 1_555 1_555
C65 C66 1_555 1_555
C73 C74 1_555 1_555
Mn10 O9 1_555 1_555
C58 C57 1_555 1_555
H53 C58 1_555 1_555
C59 C58 1_555 1_555
H54 C59 1_555 1_555
C60 C59 1_555 1_555
C61 C60 1_555 1_555
H55 C61 1_555 1_555
C62 C57 1_555 1_555
H56 C62 1_555 1_555
C63 C60 1_555 1_555
O9 C63 1_555 1_555
O10 Mn5_2 1_555 1_555
O14 Mn5_2 1_555 1_555
O16 Mn10 1_555 1_555
O17 Mn10 1_555 1_555
O18 Mn5_2 1_555 1_555
Mn10 O14 1_555 1_555
C61 C62 1_555 1_555
C63 O10 1_555 1_555
O14 C75 1_555 1_555
O16 C75 1_555 1_555
O11 C75_2 1_555 1_555
O12 C75_2 1_555 1_555
Mn6 O11 1_555 1_555
Mn11 O11 1_555 1_555
O12 Mn11 1_555 1_555
Mn11 O9_2 1_555 1_555
C58_2 C57_2 1_555 1_555
H53_2 C58_2 1_555 1_555
C59_2 C58_2 1_555 1_555
H54_2 C59_2 1_555 1_555
C60_2 C59_2 1_555 1_555
C61_2 C60_2 1_555 1_555
H55_2 C61_2 1_555 1_555
C62_2 C57_2 1_555 1_555
H56_2 C62_2 1_555 1_555
C63_2 C60_2 1_555 1_555
O9_2 C63_2 1_555 1_555
O10_2 Mn6 1_555 1_555
N14 Mn11 1_555 1_555
N16 Mn11 1_555 1_555
C61_2 C62_2 1_555 1_555
C63_2 O10_2 1_555 1_555
C51_2 H45_2 1_555 1_555
H46_2 C51_2 1_555 1_555
N9_2 C51_2 1_555 1_555
N14 N9_2 1_555 1_555
C52_2 N14 1_555 1_555
C53_2 C52_2 1_555 1_555
C54_2 N9_2 1_555 1_555
C55_2 C52_2 1_555 1_555
H47_2 C55_2 1_555 1_555
H48_2 C55_2 1_555 1_555
H49_2 C55_2 1_555 1_555
C56_2 C54_2 1_555 1_555
H51_2 C56_2 1_555 1_555
H52_2 C56_2 1_555 1_555
N11_2 C51_2 1_555 1_555
N16 N11_2 1_555 1_555
C64_2 N16 1_555 1_555
C65_2 C64_2 1_555 1_555
C66_2 N11_2 1_555 1_555
C67_2 C64_2 1_555 1_555
H57_2 C67_2 1_555 1_555
H58_2 C67_2 1_555 1_555
H59_2 C67_2 1_555 1_555
C68_2 C66_2 1_555 1_555
H60_2 C68_2 1_555 1_555
H61_2 C68_2 1_555 1_555
H62_2 C68_2 1_555 1_555
C69_2 C65_2 1_555 1_555
C70_2 C69_2 1_555 1_555
H63_2 C70_2 1_555 1_555
C71_2 C70_2 1_555 1_555
H64_2 C71_2 1_555 1_555
C72_2 C71_2 1_555 1_555
C73_2 C72_2 1_555 1_555
H65_2 C73_2 1_555 1_555
C74_2 C69_2 1_555 1_555
H66_2 C74_2 1_555 1_555
C53_2 C54_2 1_555 1_555
C65_2 C66_2 1_555 1_555
C73_2 C74_2 1_555 1_555
C26_2 H23_2 1_555 1_555
H24_2 C26_2 1_555 1_555
N5_2 C26_2 1_555 1_555
N6_2 Cu1_2 1_555 1_555
C27_2 N6_2 1_555 1_555
C28_2 C27_2 1_555 1_555
C29_2 N5_2 1_555 1_555
C30_2 C27_2 1_555 1_555
H25_2 C30_2 1_555 1_555
H26_2 C30_2 1_555 1_555
H27_2 C30_2 1_555 1_555
C31_2 C29_2 1_555 1_555
H28_2 C31_2 1_555 1_555
H29_2 C31_2 1_555 1_555
H30_2 C31_2 1_555 1_555
C32_2 C28_2 1_555 1_555
C33_2 C32_2 1_555 1_555
H31_2 C33_2 1_555 1_555
C34_2 C33_2 1_555 1_555
H32_2 C34_2 1_555 1_555
C35_2 C34_2 1_555 1_555
C36_2 C35_2 1_555 1_555
H33_2 C36_2 1_555 1_555
C37_2 C32_2 1_555 1_555
H34_2 C37_2 1_555 1_555
C38_2 C35_2 1_555 1_555
O6_2 Mn6_3 1_555 1_555
N7_2 C26_2 1_555 1_555
N8_2 Cu1_2 1_555 1_555
C39_2 N8_2 1_555 1_555
C40_2 C39_2 1_555 1_555
C41_2 N7_2 1_555 1_555
C42_2 C39_2 1_555 1_555
H35_2 C42_2 1_555 1_555
H36_2 C42_2 1_555 1_555
H37_2 C42_2 1_555 1_555
C43_2 C41_2 1_555 1_555
H38_2 C43_2 1_555 1_555
H39_2 C43_2 1_555 1_555
H40_2 C43_2 1_555 1_555
C44_2 C40_2 1_555 1_555
C45_2 C44_2 1_555 1_555
H41_2 C45_2 1_555 1_555
C46_2 C45_2 1_555 1_555
H42_2 C46_2 1_555 1_555
C47_2 C46_2 1_555 1_555
C48_2 C47_2 1_555 1_555
H43_2 C48_2 1_555 1_555
C49_2 C44_2 1_555 1_555
H44_2 C49_2 1_555 1_555
C50_2 C47_2 1_555 1_555
O17 C50_2 1_555 1_555
O18 C50_2 1_555 1_555
N5_2 N6_2 1_555 1_555
C28_2 C29_2 1_555 1_555
C36_2 C37_2 1_555 1_555
C38_2 O6_2 1_555 1_555
N7_2 N8_2 1_555 1_555
C40_2 C41_2 1_555 1_555
C48_2 C49_2 1_555 1_555
C1_2 H1_2 1_555 1_555
H2_2 C1_2 1_555 1_555
N1_2 C1_2 1_555 1_555
N2 N1_2 1_555 1_555
C2_2 N2 1_555 1_555
C3_2 C2_2 1_555 1_555
C4_2 N1_2 1_555 1_555
C5_2 C2_2 1_555 1_555
H3_2 C5_2 1_555 1_555
H4_2 C5_2 1_555 1_555
H5_2 C5_2 1_555 1_555
C6_2 C4_2 1_555 1_555
H7_2 C6_2 1_555 1_555
H8_2 C6_2 1_555 1_555
N3_2 C1_2 1_555 1_555
N4 N3_2 1_555 1_555
C14_2 N4 1_555 1_555
C15_2 C14_2 1_555 1_555
C16_2 N3_2 1_555 1_555
C17_2 C14_2 1_555 1_555
H13_2 C17_2 1_555 1_555
H14_2 C17_2 1_555 1_555
H15_2 C17_2 1_555 1_555
C18_2 C16_2 1_555 1_555
H16_2 C18_2 1_555 1_555
H17_2 C18_2 1_555 1_555
H18_2 C18_2 1_555 1_555
C19_2 C15_2 1_555 1_555
C20_2 C19_2 1_555 1_555
H19_2 C20_2 1_555 1_555
C21_2 C20_2 1_555 1_555
H20_2 C21_2 1_555 1_555
C22_2 C21_2 1_555 1_555
C23_2 C22_2 1_555 1_555
H21_2 C23_2 1_555 1_555
C24_2 C19_2 1_555 1_555
H22_2 C24_2 1_555 1_555
Mn7 N2 1_555 1_555
C3_2 C4_2 1_555 1_555
N4 Mn7 1_555 1_555
C15_2 C16_2 1_555 1_555
C23_2 C24_2 1_555 1_555
Mn6_4 O2_2 1_555 1_555
Mn7 O1_2 1_555 1_555
C8_2 C7_2 1_555 1_555
H9_2 C8_2 1_555 1_555
C9_2 C8_2 1_555 1_555
H10_2 C9_2 1_555 1_555
C10_2 C9_2 1_555 1_555
C11_2 C10_2 1_555 1_555
H11_2 C11_2 1_555 1_555
C12_2 C7_2 1_555 1_555
H12_2 C12_2 1_555 1_555
C13_2 C10_2 1_555 1_555
O1_2 C13_2 1_555 1_555
O2_2 C13_2 1_555 1_555
O5_2 Mn7 1_555 1_555
O13 Mn6_4 1_555 1_555
O15 Mn7 1_555 1_555
Mn7 O13 1_555 1_555
C11_2 C12_2 1_555 1_555
O13 C25_2 1_555 1_555
O15 C25_2 1_555 1_555

#END
