
###############################################################################
#
# This file contains modified crystal structure data generated from the
# MOF subset of the Cambridge Structural Database (CSD) v543 
# hosted by the Cambridge Crystallographic Data Centre (CCDC).
#
# This work is licensed under the Creative Commons
# Attribution-NonCommercial-ShareAlike 4.0 International License.
# To view a copy of this license, visit
# http://creativecommons.org/licenses/by-nc-sa/4.0/
# or send a letter to
# Creative Commons, PO Box 1866, Mountain View, CA 94042, USA.
#
# CIF created using the CSD Python API on 29 September 2022
# The structure has been converted into the P1 space group
# The structure has a 3D framework
# The original CSD entry BANMAG is in the hexagonal crystal system
# The framework has been calculated to contain at least 10.0% void space
# The void calculation uses a probe of radius 1.32A, grid spacing 0.4
#
###############################################################################

data_BANMAG
_chemical_formula_moiety         '(C48 H72 Co15 Nd4 O78)n'
_symmetry_cell_setting           triclinic
_symmetry_space_group_name_H-M   'P 1'
_symmetry_Int_Tables_number      1
_space_group_name_Hall           'P 1'
loop_
_symmetry_equiv_pos_site_id
_symmetry_equiv_pos_as_xyz
1 x,y,z
_cell_length_a                   15.0841(7)
_cell_length_b                   15.0841(7)
_cell_length_c                   15.4276(13)
_cell_angle_alpha                90
_cell_angle_beta                 90
_cell_angle_gamma                120
_cell_volume                     3039.96
loop_
_atom_site_label
_atom_site_type_symbol
_atom_site_fract_x
_atom_site_fract_y
_atom_site_fract_z
Co2 Co 0.0000 0.5000 0.5000
Co3 Co 0.0000 0.5000 0.0000
O25 O 0.0533(3) 0.6118(3) 0.4058(3)
O26 O 0.0533(3) 0.6118(3) 0.5942(3)
O39 O 0.1383(3) 0.4916(3) 0.5000
H25 H 0.1664 0.5252 0.5446
H26 H 0.1664 0.5252 0.4554
Co3_2 Co -0.0000 0.5000 1.0000
Nd1 Nd 0.6667 0.3333 0.2500
Co1 Co 0.5000 0.0000 0.0000
O1 O 0.6164(3) 0.1947(3) 0.1435(2)
O2 O 0.6118(3) 0.0533(3) 0.0942(3)
O3 O 0.76395(18) 0.23605(18) 0.2500
C1 C 0.6470(4) 0.1310(4) 0.1411(3)
C2 C 0.7348(5) 0.1497(5) 0.1987(5)
H1 H 0.7148 0.0906 0.2356
H2 H 0.7923 0.1595 0.1636
Co2_2 Co 1.0000 0.5000 0.5000
Co3_3 Co 1.0000 0.5000 0.0000
Co4 Co 0.5000 0.5000 0.5000
Co5 Co 0.5000 0.5000 0.0000
Co6 Co 0.5000 0.0000 0.5000
O5 O 0.8053(3) 0.3836(3) 0.3565(2)
O6 O 0.8053(3) 0.4217(4) 0.1435(2)
O7 O 0.6164(3) 0.4217(4) 0.3565(2)
O8 O 0.5783(4) 0.3836(3) 0.1435(2)
O9 O 0.5783(4) 0.1947(3) 0.3565(2)
O16 O 0.9467(3) 0.3882(3) 0.4058(3)
O17 O 0.9467(3) 0.5585(4) 0.0942(3)
O18 O 0.6118(3) 0.5585(4) 0.4058(3)
O19 O 0.4415(4) 0.3882(3) 0.0942(3)
O20 O 0.4415(4) 0.0533(3) 0.4058(3)
O27 O 0.9467(3) 0.3882(3) 0.5942(3)
O30 O 0.5585(4) 0.6118(3) 0.0942(3)
O33 O 0.76395(18) 0.52790(25) 0.2500
O34 O 0.47210(25) 0.23605(18) 0.2500
C3 C 0.8690(4) 0.3530(4) 0.3589(3)
C4 C 0.8690(4) 0.5160(6) 0.1411(3)
C5 C 0.6470(4) 0.5160(6) 0.3589(3)
C6 C 0.4840(6) 0.3530(4) 0.1411(3)
C7 C 0.4840(6) 0.1310(4) 0.3589(3)
C12 C 0.8503(5) 0.2652(5) 0.3013(5)
C13 C 0.8503(5) 0.5851(7) 0.1987(5)
C14 C 0.7348(5) 0.5851(7) 0.3013(5)
C15 C 0.4149(7) 0.2652(5) 0.1987(5)
C16 C 0.4149(7) 0.1497(5) 0.3013(5)
H4 H 0.9094 0.2852 0.2644
H5 H 0.9094 0.6242 0.2356
H6 H 0.7148 0.6242 0.2644
H7 H 0.3758 0.2852 0.2356
H8 H 0.3758 0.0906 0.2644
H13 H 0.8405 0.2077 0.3364
H14 H 0.8405 0.6328 0.1636
H15 H 0.7923 0.6328 0.3364
H16 H 0.3672 0.2077 0.1636
H17 H 0.3672 0.1595 0.3364
O38 O 0.4916(3) 0.1383(3) 0.0000
O40 O 0.8617(3) 0.5084(3) 0.5000
O41 O 0.3533(4) 0.4916(3) 0.0000
O42 O 0.6467(4) 0.5084(3) 0.0000
H24 H 0.5252 0.1664 0.0446
H27 H 0.8336 0.4748 0.5446
H28 H 0.8336 0.4748 0.4554
H30 H 0.3588 0.5252 0.0446
H32 H 0.6412 0.4748 0.0446
Co1_2 Co 0.5000 0.0000 1.0000
Nd2 Nd 0.6667 0.3333 0.7500
Co3_4 Co 1.0000 0.5000 1.0000
Co5_2 Co 0.5000 0.5000 1.0000
O10 O 0.6164(3) 0.1947(3) 0.8565(2)
O11 O 0.8053(3) 0.3836(3) 0.6435(2)
O12 O 0.8053(3) 0.4217(4) 0.8565(2)
O13 O 0.6164(3) 0.4217(4) 0.6435(2)
O14 O 0.5783(4) 0.3836(3) 0.8565(2)
O15 O 0.5783(4) 0.1947(3) 0.6435(2)
O23 O 0.6118(3) 0.0533(3) 0.9058(3)
O28 O 0.9467(3) 0.5585(4) 0.9058(3)
O29 O 0.6118(3) 0.5585(4) 0.5942(3)
O31 O 0.5585(4) 0.6118(3) 0.9058(3)
O32 O 0.4415(4) 0.3882(3) 0.9058(3)
O35 O 0.76395(18) 0.23605(18) 0.7500
O36 O 0.76395(18) 0.52790(25) 0.7500
O37 O 0.47210(25) 0.23605(18) 0.7500
C8 C 0.6470(4) 0.1310(4) 0.8589(3)
C9 C 0.8690(4) 0.3530(4) 0.6411(3)
C10 C 0.8690(4) 0.5160(6) 0.8589(3)
C11 C 0.6470(4) 0.5160(6) 0.6411(3)
C17 C 0.7348(5) 0.1497(5) 0.8013(5)
C18 C 0.8503(5) 0.2652(5) 0.6987(5)
C19 C 0.8503(5) 0.5851(7) 0.8013(5)
C20 C 0.7348(5) 0.5851(7) 0.6987(5)
H9 H 0.7148 0.0906 0.7644
H10 H 0.9094 0.2852 0.7356
H11 H 0.9094 0.6242 0.7644
H12 H 0.7148 0.6242 0.7356
H18 H 0.7923 0.1595 0.8364
H19 H 0.8405 0.2077 0.6636
H20 H 0.8405 0.6328 0.8364
H21 H 0.7923 0.6328 0.6636
O38_2 O 0.4916(3) 0.1383(3) 1.0000
O41_2 O 0.3533(4) 0.4916(3) 1.0000
O42_2 O 0.6467(4) 0.5084(3) 1.0000
H23 H 0.5252 0.1664 0.9554
H29 H 0.3588 0.5252 0.9554
H31 H 0.6412 0.4748 0.9554
Co1_3 Co 0.5000 1.0000 0.0000
O4 O 0.5084(3) 0.8617(3) 0.0000
Co6_2 Co 0.5000 1.0000 0.5000
O21 O 0.3882(3) 0.9467(3) 0.0942(3)
H22 H 0.4748 0.8336 0.0446
Co1_4 Co 0.5000 1.0000 1.0000
O4_2 O 0.5084(3) 0.8617(3) 1.0000
H3 H 0.4748 0.8336 0.9554
O22 O 0.3882(3) 0.9467(3) 0.9058(3)
O4_3 O 0.1383(3) 0.6467(4) 0.0000
O21_2 O 0.0533(3) 0.4415(4) 0.0942(3)
H22_2 H 0.1664 0.6412 0.0446
O4_4 O 0.1383(3) 0.6467(4) 1.0000
H3_2 H 0.1664 0.6412 0.9554
O22_2 O 0.0533(3) 0.4415(4) 0.9058(3)
O25_2 O 0.3882(3) 0.4415(4) 0.4058(3)
O26_2 O 0.3882(3) 0.4415(4) 0.5942(3)
O38_3 O 0.8617(3) 0.3533(4) 0.0000
O39_2 O 0.5084(3) 0.6467(4) 0.5000
O40_2 O 0.4916(3) 0.3533(4) 0.5000
H24_2 H 0.8336 0.3588 0.0446
H25_2 H 0.4748 0.6412 0.5446
H26_2 H 0.4748 0.6412 0.4554
H27_2 H 0.5252 0.3588 0.5446
H28_2 H 0.5252 0.3588 0.4554
O29_2 O 0.4415(4) 0.0533(5) 0.5942(3)
C10_2 C 0.4840(6) 0.3530(7) 0.8589(3)
C11_2 C 0.4840(6) 0.1310(7) 0.6411(3)
C19_2 C 0.4149(7) 0.2652(9) 0.8013(5)
C20_2 C 0.4149(7) 0.1497(9) 0.6987(5)
H11_2 H 0.3758 0.2852 0.7644
H12_2 H 0.3758 0.0906 0.7356
H20_2 H 0.3672 0.2077 0.8364
H21_2 H 0.3672 0.1595 0.6636
O38_4 O 0.8617(3) 0.3533(4) 1.0000
H23_2 H 0.8336 0.3588 0.9554
O40_3 O 0.6467(4) 0.1383(3) 0.5000
H27_3 H 0.6412 0.1664 0.5446
H28_3 H 0.6412 0.1664 0.4554
O25_3 O 0.5585(4) 0.9467(3) 0.4058(3)
O26_3 O 0.5585(4) 0.9467(3) 0.5942(3)
O39_3 O 0.3533(4) 0.8617(3) 0.5000
H25_3 H 0.3588 0.8336 0.5446
H26_3 H 0.3588 0.8336 0.4554
Nd1_2 Nd 0.3333 0.6667 0.2500
O1_2 O 0.3836(3) 0.8053(3) 0.1435(2)
O3_2 O 0.23605(18) 0.76395(18) 0.2500
C1_2 C 0.3530(4) 0.8690(4) 0.1411(3)
C2_2 C 0.2652(5) 0.8503(5) 0.1987(5)
H1_2 H 0.2852 0.9094 0.2356
H2_2 H 0.2077 0.8405 0.1636
O5_2 O 0.1947(3) 0.6164(3) 0.3565(2)
O6_2 O 0.1947(3) 0.5783(4) 0.1435(2)
O7_2 O 0.3836(3) 0.5783(4) 0.3565(2)
O8_2 O 0.4217(4) 0.6164(3) 0.1435(2)
O9_2 O 0.4217(4) 0.8053(3) 0.3565(2)
O33_2 O 0.23605(18) 0.47210(25) 0.2500
O34_2 O 0.52790(25) 0.76395(18) 0.2500
C3_2 C 0.1310(4) 0.6470(4) 0.3589(3)
C4_2 C 0.1310(4) 0.4840(6) 0.1411(3)
C5_2 C 0.3530(4) 0.4840(6) 0.3589(3)
C6_2 C 0.5160(6) 0.6470(4) 0.1411(3)
C7_2 C 0.5160(6) 0.8690(4) 0.3589(3)
C12_2 C 0.1497(5) 0.7348(5) 0.3013(5)
C13_2 C 0.1497(5) 0.4149(7) 0.1987(5)
C14_2 C 0.2652(5) 0.4149(7) 0.3013(5)
C15_2 C 0.5851(7) 0.7348(5) 0.1987(5)
C16_2 C 0.5851(7) 0.8503(5) 0.3013(5)
H4_2 H 0.0906 0.7148 0.2644
H5_2 H 0.0906 0.3758 0.2356
H6_2 H 0.2852 0.3758 0.2644
H7_2 H 0.6242 0.7148 0.2356
H8_2 H 0.6242 0.9094 0.2644
H13_2 H 0.1595 0.7923 0.3364
H14_2 H 0.1595 0.3672 0.1636
H15_2 H 0.2077 0.3672 0.3364
H16_2 H 0.6328 0.7923 0.1636
H17_2 H 0.6328 0.8405 0.3364
Nd2_2 Nd 0.3333 0.6667 0.7500
O10_2 O 0.3836(3) 0.8053(3) 0.8565(2)
O11_2 O 0.1947(3) 0.6164(3) 0.6435(2)
O12_2 O 0.1947(3) 0.5783(4) 0.8565(2)
O13_2 O 0.3836(3) 0.5783(4) 0.6435(2)
O14_2 O 0.4217(4) 0.6164(3) 0.8565(2)
O15_2 O 0.4217(4) 0.8053(3) 0.6435(2)
O35_2 O 0.23605(18) 0.76395(18) 0.7500
O36_2 O 0.23605(18) 0.47210(25) 0.7500
O37_2 O 0.52790(25) 0.76395(18) 0.7500
C8_2 C 0.3530(4) 0.8690(4) 0.8589(3)
C9_2 C 0.1310(4) 0.6470(4) 0.6411(3)
C10_3 C 0.1310(4) 0.4840(6) 0.8589(3)
C11_3 C 0.3530(4) 0.4840(6) 0.6411(3)
C17_2 C 0.2652(5) 0.8503(5) 0.8013(5)
C18_2 C 0.1497(5) 0.7348(5) 0.6987(5)
C19_3 C 0.1497(5) 0.4149(7) 0.8013(5)
C20_3 C 0.2652(5) 0.4149(7) 0.6987(5)
H9_2 H 0.2852 0.9094 0.7644
H10_2 H 0.0906 0.7148 0.7356
H11_3 H 0.0906 0.3758 0.7644
H12_3 H 0.2852 0.3758 0.7356
H18_2 H 0.2077 0.8405 0.8364
H19_2 H 0.1595 0.7923 0.6636
H20_3 H 0.1595 0.3672 0.8364
H21_3 H 0.2077 0.3672 0.6636
C10_4 C 0.5160(6) 0.6470(7) 0.8589(3)
C11_4 C 0.5160(6) 0.8690(7) 0.6411(3)
C19_4 C 0.5851(7) 0.7348(9) 0.8013(5)
C20_4 C 0.5851(7) 0.8503(9) 0.6987(5)
H11_4 H 0.6242 0.7148 0.7644
H12_4 H 0.6242 0.9094 0.7356
H20_4 H 0.6328 0.7923 0.8364
H21_4 H 0.6328 0.8405 0.6636
loop_
_geom_bond_atom_site_label_1
_geom_bond_atom_site_label_2
_geom_bond_site_symmetry_1
_geom_bond_site_symmetry_2
O25 Co2 1_555 1_555
O26 Co2 1_555 1_555
O39 Co2 1_555 1_555
H25 O39 1_555 1_555
H26 O39 1_555 1_555
Nd1 O1 1_555 1_555
Co1 O2 1_555 1_555
O1 C1 1_555 1_555
O2 C1 1_555 1_555
O3 Nd1 1_555 1_555
C1 C2 1_555 1_555
C2 O3 1_555 1_555
H1 C2 1_555 1_555
H2 C2 1_555 1_555
Co2_2 O16 1_555 1_555
Co3_3 O17 1_555 1_555
Co4 O18 1_555 1_555
Co5 O19 1_555 1_555
Co6 O20 1_555 1_555
O5 Nd1 1_555 1_555
O6 Nd1 1_555 1_555
O7 Nd1 1_555 1_555
O8 Nd1 1_555 1_555
O9 Nd1 1_555 1_555
O16 C3 1_555 1_555
O17 C4 1_555 1_555
O18 C5 1_555 1_555
O19 C6 1_555 1_555
O20 C7 1_555 1_555
O27 Co2_2 1_555 1_555
O30 Co5 1_555 1_555
O33 Nd1 1_555 1_555
O34 Nd1 1_555 1_555
C3 O5 1_555 1_555
C4 O6 1_555 1_555
C5 O7 1_555 1_555
C6 O8 1_555 1_555
C7 O9 1_555 1_555
C12 O3 1_555 1_555
C13 O33 1_555 1_555
C14 O33 1_555 1_555
C15 O34 1_555 1_555
C16 O34 1_555 1_555
H4 C12 1_555 1_555
H5 C13 1_555 1_555
H6 C14 1_555 1_555
H7 C15 1_555 1_555
H8 C16 1_555 1_555
H13 C12 1_555 1_555
H14 C13 1_555 1_555
H15 C14 1_555 1_555
H16 C15 1_555 1_555
H17 C16 1_555 1_555
O38 Co1 1_555 1_555
O40 Co2_2 1_555 1_555
O41 Co5 1_555 1_555
O42 Co5 1_555 1_555
H24 O38 1_555 1_555
H27 O40 1_555 1_555
H28 O40 1_555 1_555
H30 O41 1_555 1_555
H32 O42 1_555 1_555
C3 C12 1_555 1_555
C4 C13 1_555 1_555
C5 C14 1_555 1_555
C6 C15 1_555 1_555
C7 C16 1_555 1_555
Nd2 O10 1_555 1_555
Co4 O29 1_555 1_555
O10 C8 1_555 1_555
O11 Nd2 1_555 1_555
O12 Nd2 1_555 1_555
O13 Nd2 1_555 1_555
O14 Nd2 1_555 1_555
O15 Nd2 1_555 1_555
O23 Co1_2 1_555 1_555
O27 C9 1_555 1_555
O28 Co3_4 1_555 1_555
O29 C11 1_555 1_555
O31 Co5_2 1_555 1_555
O32 Co5_2 1_555 1_555
O35 Nd2 1_555 1_555
O36 Nd2 1_555 1_555
O37 Nd2 1_555 1_555
C8 O23 1_555 1_555
C9 O11 1_555 1_555
C10 O12 1_555 1_555
C11 O13 1_555 1_555
C17 O35 1_555 1_555
C18 O35 1_555 1_555
C19 O36 1_555 1_555
C20 O36 1_555 1_555
H9 C17 1_555 1_555
H10 C18 1_555 1_555
H11 C19 1_555 1_555
H12 C20 1_555 1_555
H18 C17 1_555 1_555
H19 C18 1_555 1_555
H20 C19 1_555 1_555
H21 C20 1_555 1_555
O38_2 Co1_2 1_555 1_555
O41_2 Co5_2 1_555 1_555
O42_2 Co5_2 1_555 1_555
H23 O38_2 1_555 1_555
H29 O41_2 1_555 1_555
H31 O42_2 1_555 1_555
O28 C10 1_555 1_555
C8 C17 1_555 1_555
C9 C18 1_555 1_555
C10 C19 1_555 1_555
C11 C20 1_555 1_555
O4 Co1_3 1_555 1_555
O21 Co1_3 1_555 1_555
H22 O4 1_555 1_555
O4_2 Co1_4 1_555 1_555
H3 O4_2 1_555 1_555
O22 Co1_4 1_555 1_555
O4_3 Co3 1_555 1_555
O21_2 Co3 1_555 1_555
H22_2 O4_3 1_555 1_555
O4_4 Co3_2 1_555 1_555
H3_2 O4_4 1_555 1_555
O22_2 Co3_2 1_555 1_555
O25_2 Co4 1_555 1_555
O26_2 Co4 1_555 1_555
O38_3 Co3_3 1_555 1_555
O39_2 Co4 1_555 1_555
O40_2 Co4 1_555 1_555
H24_2 O38_3 1_555 1_555
H25_2 O39_2 1_555 1_555
H26_2 O39_2 1_555 1_555
H27_2 O40_2 1_555 1_555
H28_2 O40_2 1_555 1_555
Co6 O29_2 1_555 1_555
O29_2 C11_2 1_555 1_555
C10_2 O14 1_555 1_555
C11_2 O15 1_555 1_555
C19_2 O37 1_555 1_555
C20_2 O37 1_555 1_555
H11_2 C19_2 1_555 1_555
H12_2 C20_2 1_555 1_555
H20_2 C19_2 1_555 1_555
H21_2 C20_2 1_555 1_555
O38_4 Co3_4 1_555 1_555
H23_2 O38_4 1_555 1_555
O32 C10_2 1_555 1_555
C10_2 C19_2 1_555 1_555
C11_2 C20_2 1_555 1_555
O40_3 Co6 1_555 1_555
H27_3 O40_3 1_555 1_555
H28_3 O40_3 1_555 1_555
O25_3 Co6_2 1_555 1_555
O26_3 Co6_2 1_555 1_555
O39_3 Co6_2 1_555 1_555
H25_3 O39_3 1_555 1_555
H26_3 O39_3 1_555 1_555
Nd1_2 O1_2 1_555 1_555
O1_2 C1_2 1_555 1_555
O21 C1_2 1_555 1_555
O3_2 Nd1_2 1_555 1_555
C1_2 C2_2 1_555 1_555
C2_2 O3_2 1_555 1_555
H1_2 C2_2 1_555 1_555
H2_2 C2_2 1_555 1_555
O5_2 Nd1_2 1_555 1_555
O6_2 Nd1_2 1_555 1_555
O7_2 Nd1_2 1_555 1_555
O8_2 Nd1_2 1_555 1_555
O9_2 Nd1_2 1_555 1_555
O25 C3_2 1_555 1_555
O21_2 C4_2 1_555 1_555
O25_2 C5_2 1_555 1_555
O30 C6_2 1_555 1_555
O25_3 C7_2 1_555 1_555
O33_2 Nd1_2 1_555 1_555
O34_2 Nd1_2 1_555 1_555
C3_2 O5_2 1_555 1_555
C4_2 O6_2 1_555 1_555
C5_2 O7_2 1_555 1_555
C6_2 O8_2 1_555 1_555
C7_2 O9_2 1_555 1_555
C12_2 O3_2 1_555 1_555
C13_2 O33_2 1_555 1_555
C14_2 O33_2 1_555 1_555
C15_2 O34_2 1_555 1_555
C16_2 O34_2 1_555 1_555
H4_2 C12_2 1_555 1_555
H5_2 C13_2 1_555 1_555
H6_2 C14_2 1_555 1_555
H7_2 C15_2 1_555 1_555
H8_2 C16_2 1_555 1_555
H13_2 C12_2 1_555 1_555
H14_2 C13_2 1_555 1_555
H15_2 C14_2 1_555 1_555
H16_2 C15_2 1_555 1_555
H17_2 C16_2 1_555 1_555
C3_2 C12_2 1_555 1_555
C4_2 C13_2 1_555 1_555
C5_2 C14_2 1_555 1_555
C6_2 C15_2 1_555 1_555
C7_2 C16_2 1_555 1_555
Nd2_2 O10_2 1_555 1_555
O10_2 C8_2 1_555 1_555
O11_2 Nd2_2 1_555 1_555
O12_2 Nd2_2 1_555 1_555
O13_2 Nd2_2 1_555 1_555
O14_2 Nd2_2 1_555 1_555
O15_2 Nd2_2 1_555 1_555
O26 C9_2 1_555 1_555
O26_2 C11_3 1_555 1_555
O35_2 Nd2_2 1_555 1_555
O36_2 Nd2_2 1_555 1_555
O37_2 Nd2_2 1_555 1_555
C8_2 O22 1_555 1_555
C9_2 O11_2 1_555 1_555
C10_3 O12_2 1_555 1_555
C11_3 O13_2 1_555 1_555
C17_2 O35_2 1_555 1_555
C18_2 O35_2 1_555 1_555
C19_3 O36_2 1_555 1_555
C20_3 O36_2 1_555 1_555
H9_2 C17_2 1_555 1_555
H10_2 C18_2 1_555 1_555
H11_3 C19_3 1_555 1_555
H12_3 C20_3 1_555 1_555
H18_2 C17_2 1_555 1_555
H19_2 C18_2 1_555 1_555
H20_3 C19_3 1_555 1_555
H21_3 C20_3 1_555 1_555
O22_2 C10_3 1_555 1_555
C8_2 C17_2 1_555 1_555
C9_2 C18_2 1_555 1_555
C10_3 C19_3 1_555 1_555
C11_3 C20_3 1_555 1_555
O26_3 C11_4 1_555 1_555
C10_4 O14_2 1_555 1_555
C11_4 O15_2 1_555 1_555
C19_4 O37_2 1_555 1_555
C20_4 O37_2 1_555 1_555
H11_4 C19_4 1_555 1_555
H12_4 C20_4 1_555 1_555
H20_4 C19_4 1_555 1_555
H21_4 C20_4 1_555 1_555
O31 C10_4 1_555 1_555
C10_4 C19_4 1_555 1_555
C11_4 C20_4 1_555 1_555

#END
