
###############################################################################
#
# This file contains modified crystal structure data generated from the
# MOF subset of the Cambridge Structural Database (CSD) v543 
# hosted by the Cambridge Crystallographic Data Centre (CCDC).
#
# This work is licensed under the Creative Commons
# Attribution-NonCommercial-ShareAlike 4.0 International License.
# To view a copy of this license, visit
# http://creativecommons.org/licenses/by-nc-sa/4.0/
# or send a letter to
# Creative Commons, PO Box 1866, Mountain View, CA 94042, USA.
#
# CIF created using the CSD Python API on 29 September 2022
# The structure has been converted into the P1 space group
# The structure has a 3D framework
# The original CSD entry BAQKUD is in the rhombohedral crystal system
# The framework has been calculated to contain at least 10.0% void space
# The void calculation uses a probe of radius 1.32A, grid spacing 0.4
#
###############################################################################

data_BAQKUD
_chemical_formula_moiety         '(C252 H216 Ag11 O72 S36)n'
_symmetry_cell_setting           triclinic
_symmetry_space_group_name_H-M   'P 1'
_symmetry_Int_Tables_number      1
_space_group_name_Hall           'P 1'
loop_
_symmetry_equiv_pos_site_id
_symmetry_equiv_pos_as_xyz
1 x,y,z
_cell_length_a                   32.609(5)
_cell_length_b                   32.609(5)
_cell_length_c                   8.0720(16)
_cell_angle_alpha                90
_cell_angle_beta                 90
_cell_angle_gamma                120
_cell_volume                     7433.39
loop_
_atom_site_label
_atom_site_type_symbol
_atom_site_fract_x
_atom_site_fract_y
_atom_site_fract_z
Ag1 Ag 0.3333 0.30287(2) 0.4167
C1 C 0.46688(18) 0.45228(18) 0.4663(7)
Ag2 Ag 0.3333 0.41749(2) 0.4167
C2 C 0.45329(17) 0.48038(17) 0.5563(7)
C3 C 0.48646(17) 0.52704(18) 0.5892(7)
H1 H 0.4771 0.5457 0.6518
C4 C 0.43424(19) 0.40024(18) 0.4226(7)
O1 O 0.45308(13) 0.37857(12) 0.3616(5)
O2 O 0.39071(13) 0.38310(13) 0.4528(5)
S1 S 0.39461(4) 0.45535(4) 0.63718(17)
C5 C 0.39205(18) 0.50395(18) 0.7385(7)
H2 H 0.3639 0.4907 0.8116
H3 H 0.4205 0.5215 0.8091
C6 C 0.3896(2) 0.5379(2) 0.6189(8)
H4 H 0.3647 0.5250 0.5395
C7 C 0.4186(2) 0.5836(2) 0.6145(9)
H5 H 0.4439 0.5979 0.6917
H6 H 0.4143 0.6024 0.5342
C8 C 0.53312(18) 0.54772(18) 0.5337(7)
C9 C 0.54671(17) 0.51962(17) 0.4437(7)
C10 C 0.51354(17) 0.47296(18) 0.4108(7)
H7 H 0.5229 0.4543 0.3482
C11 C 0.56576(19) 0.59976(18) 0.5774(7)
O3 O 0.54692(13) 0.62143(12) 0.6384(5)
O4 O 0.60929(13) 0.61690(13) 0.5472(5)
S2 S 0.60539(4) 0.54465(4) 0.36282(17)
C12 C 0.60795(18) 0.49605(18) 0.2615(7)
H8 H 0.6361 0.5093 0.1884
H9 H 0.5795 0.4785 0.1909
C13 C 0.6104(2) 0.4621(2) 0.3811(8)
H10 H 0.6353 0.4750 0.4605
C14 C 0.5814(2) 0.4164(2) 0.3855(9)
H11 H 0.5561 0.4021 0.3083
H12 H 0.5857 0.3976 0.4658
Ag3 Ag 0.30287(2) 0.3333 0.0833
Ag4 Ag 0.36380(2) 0.36376(2) 0.7500
Ag5 Ag 0.6667 0.69713(2) 0.5833
Ag6 Ag 0.63624(2) 0.63620(2) 0.2500
Ag7 Ag 0.41749(2) 0.3333 0.0833
Ag8 Ag 0.6667 0.58251(2) 0.5833
Ag9 Ag 0.58251(2) 0.6667 0.9167
O5 O 0.37857(12) 0.45308(13) 0.1384(5)
O6 O 0.28810(12) 0.40784(18) 0.6949(5)
O7 O 0.27596(13) 0.32572(18) 0.3805(5)
O8 O 0.32572(18) 0.27596(13) 0.1195(5)
O9 O 0.34094(18) 0.28357(13) 0.7139(5)
S3 S 0.27206(4) 0.39407(6) 0.19615(17)
S4 S 0.39407(6) 0.27206(4) 0.30385(17)
S5 S 0.27259(6) 0.21132(4) 0.52949(17)
Ag1_2 Ag 0.69713(2) 0.03043(2) 0.4167
C1_2 C 0.54772(18) 0.01460(25) 0.4663(7)
C4_2 C 0.59976(18) 0.03400(26) 0.4226(7)
O1_2 O 0.62143(12) 0.07451(18) 0.3616(5)
O2_2 O 0.61690(13) 0.00761(18) 0.4528(5)
C9_2 C 0.48038(17) 0.02709(24) 0.4437(7)
C10_2 C 0.52704(18) 0.04058(25) 0.4108(7)
H7_2 H 0.5457 0.0686 0.3482
S2_2 S 0.45535(4) 0.06074(6) 0.36282(17)
C12_2 C 0.50395(18) 0.11190(25) 0.2615(7)
H8_2 H 0.4907 0.1268 0.1884
H9_2 H 0.5215 0.1010 0.1909
C13_2 C 0.5379(2) 0.1483(3) 0.3811(8)
H10_2 H 0.5250 0.1603 0.4605
C14_2 C 0.5836(2) 0.1650(3) 0.3855(9)
H11_2 H 0.5979 0.1540 0.3083
H12_2 H 0.6024 0.1881 0.4658
Ag4_2 Ag 0.63624(2) 0.00003(3) 0.7500
Ag6_2 Ag 0.36380(2) 0.00003(3) 0.2500
Ag7_2 Ag 0.6667 0.08419(2) 0.0833
Ag8_2 Ag 0.41749(2) 0.08419(2) 0.5833
O8_2 O 0.72404(13) 0.04977(22) 0.1195(5)
O9_2 O 0.71643(13) 0.05738(22) 0.7139(5)
S4_2 S 0.72794(4) 0.12202(7) 0.30385(17)
S5_2 S 0.78868(4) 0.06128(7) 0.52949(17)
Ag2_2 Ag 0.58251(2) 0.91581(2) 0.4167
C2_2 C 0.51962(17) 0.97291(24) 0.5563(7)
C3_2 C 0.47296(18) 0.95942(25) 0.5892(7)
H1_2 H 0.4543 0.9314 0.6518
S1_2 S 0.54465(4) 0.93926(6) 0.63718(17)
C5_2 C 0.49605(18) 0.88810(25) 0.7385(7)
H2_2 H 0.5093 0.8732 0.8116
H3_2 H 0.4785 0.8990 0.8091
C6_2 C 0.4621(2) 0.8517(3) 0.6189(8)
H4_2 H 0.4750 0.8397 0.5395
C7_2 C 0.4164(2) 0.8350(3) 0.6145(9)
H5_2 H 0.4021 0.8460 0.6917
H6_2 H 0.3976 0.8119 0.5342
C8_2 C 0.45228(18) 0.98540(25) 0.5337(7)
C11_2 C 0.40024(18) 0.96600(26) 0.5774(7)
O3_2 O 0.37857(12) 0.92549(18) 0.6384(5)
O4_2 O 0.38310(13) 0.99239(18) 0.5472(5)
Ag3_2 Ag 0.6667 0.96957(2) 0.0833
Ag5_2 Ag 0.30287(2) 0.96957(2) 0.5833
Ag9_2 Ag 0.3333 0.91581(2) 0.9167
O5_2 O 0.54692(13) 0.92549(18) 0.1384(5)
O6_2 O 0.59216(18) 0.88025(22) 0.6949(5)
O7_2 O 0.67428(18) 0.95023(22) 0.3805(5)
S3_2 S 0.60593(6) 0.87798(7) 0.19615(17)
Ag2_3 Ag 0.08419(2) 0.6667 0.4167
C2_3 C 0.02709(24) 0.54671(17) 0.5563(7)
C3_3 C 0.04058(25) 0.51354(17) 0.5892(7)
H1_3 H 0.0686 0.5229 0.6518
S1_3 S 0.06074(6) 0.60539(4) 0.63718(17)
C5_3 C 0.11190(25) 0.60795(18) 0.7385(7)
H2_3 H 0.1268 0.6361 0.8116
H3_3 H 0.1010 0.5795 0.8091
C6_3 C 0.1483(3) 0.6104(2) 0.6189(8)
H4_3 H 0.1603 0.6353 0.5395
C7_3 C 0.1650(3) 0.5814(2) 0.6145(9)
H5_3 H 0.1540 0.5561 0.6917
H6_3 H 0.1881 0.5857 0.5342
C8_3 C 0.01460(25) 0.46688(18) 0.5337(7)
C11_3 C 0.03400(26) 0.43424(19) 0.5774(7)
O3_3 O 0.07451(18) 0.45308(13) 0.6384(5)
O4_3 O 0.00761(18) 0.39071(13) 0.5472(5)
Ag3_3 Ag 0.03043(2) 0.69713(2) 0.0833
Ag5_3 Ag 0.03043(2) 0.3333 0.5833
Ag9_3 Ag 0.08419(2) 0.41749(2) 0.9167
O5_3 O 0.07451(18) 0.62143(12) 0.1384(5)
O6_3 O 0.11975(22) 0.71190(12) 0.6949(5)
O7_3 O 0.04977(22) 0.72404(13) 0.3805(5)
S3_3 S 0.12202(7) 0.72794(4) 0.19615(17)
Ag1_3 Ag 0.96957(2) 0.6667 0.4167
C1_3 C 0.98540(25) 0.53312(18) 0.4663(7)
C4_3 C 0.96600(26) 0.56576(19) 0.4226(7)
O1_3 O 0.92549(18) 0.54692(13) 0.3616(5)
O2_3 O 0.99239(18) 0.60929(13) 0.4528(5)
C9_3 C 0.97291(24) 0.45329(17) 0.4437(7)
C10_3 C 0.95942(25) 0.48646(17) 0.4108(7)
H7_3 H 0.9314 0.4771 0.3482
S2_3 S 0.93926(6) 0.39461(4) 0.36282(17)
C12_3 C 0.88810(25) 0.39205(18) 0.2615(7)
H8_3 H 0.8732 0.3639 0.1884
H9_3 H 0.8990 0.4205 0.1909
C13_3 C 0.8517(3) 0.3896(2) 0.3811(8)
H10_3 H 0.8397 0.3647 0.4605
C14_3 C 0.8350(3) 0.4186(2) 0.3855(9)
H11_3 H 0.8460 0.4439 0.3083
H12_3 H 0.8119 0.4143 0.4658
Ag4_3 Ag 0.99997(3) 0.63620(2) 0.7500
Ag6_3 Ag 0.99997(3) 0.36376(2) 0.2500
Ag7_3 Ag 0.91581(2) 0.58251(2) 0.0833
Ag8_3 Ag 0.91581(2) 0.3333 0.5833
O8_3 O 0.95023(22) 0.67428(18) 0.1195(5)
O9_3 O 0.94262(22) 0.65906(18) 0.7139(5)
S4_3 S 0.87798(7) 0.60593(6) 0.30385(17)
S5_3 S 0.93872(7) 0.72741(6) 0.52949(17)
C1_4 C 0.01460(25) 0.54772(18) 0.0337(7)
C4_4 C 0.03400(26) 0.59976(18) 0.0774(7)
O2_4 O 0.00761(18) 0.61690(13) 0.0472(5)
C9_4 C 0.02709(24) 0.48038(17) 0.0563(7)
C10_4 C 0.04058(25) 0.52704(18) 0.0892(7)
H7_4 H 0.0686 0.5457 0.1518
S2_4 S 0.06074(6) 0.45535(4) 0.13718(17)
C12_4 C 0.11190(25) 0.50395(18) 0.2385(7)
H8_4 H 0.1268 0.4907 0.3116
H9_4 H 0.1010 0.5215 0.3091
C13_4 C 0.1483(3) 0.5379(2) 0.1189(8)
H10_4 H 0.1603 0.5250 0.0395
C14_4 C 0.1650(3) 0.5836(2) 0.1145(9)
H11_4 H 0.1540 0.5979 0.1917
H12_4 H 0.1881 0.6024 0.0342
Ag6_4 Ag 0.00003(3) 0.36380(2) 0.2500
Ag4_4 Ag 0.00003(3) 0.63624(2) 0.7500
O9_4 O 0.05738(22) 0.71643(13) 0.7861(5)
S5_4 S 0.06128(7) 0.78868(4) 0.97051(17)
C2_4 C 0.97291(24) 0.51962(17) 0.9437(7)
C3_4 C 0.95942(25) 0.47296(18) 0.9108(7)
H1_4 H 0.9314 0.4543 0.8482
S1_4 S 0.93926(6) 0.54465(4) 0.86282(17)
C5_4 C 0.88810(25) 0.49605(18) 0.7615(7)
H2_4 H 0.8732 0.5093 0.6884
H3_4 H 0.8990 0.4785 0.6909
C6_4 C 0.8517(3) 0.4621(2) 0.8811(8)
H4_4 H 0.8397 0.4750 0.9605
C7_4 C 0.8350(3) 0.4164(2) 0.8855(9)
H5_4 H 0.8460 0.4021 0.8083
H6_4 H 0.8119 0.3976 0.9658
C8_4 C 0.98540(25) 0.45228(18) 0.9663(7)
C11_4 C 0.96600(26) 0.40024(18) 0.9226(7)
O3_4 O 0.92549(18) 0.37857(12) 0.8616(5)
O4_4 O 0.99239(18) 0.38310(13) 0.9528(5)
Ag5_4 Ag 0.96957(2) 0.30287(2) 0.9167
O6_4 O 0.88025(22) 0.59216(18) 0.8051(5)
C2_5 C 0.54671(17) 0.02709(24) 0.9437(7)
C3_5 C 0.51354(17) 0.04058(25) 0.9108(7)
H1_5 H 0.5229 0.0686 0.8482
S1_5 S 0.60539(4) 0.06074(6) 0.86282(17)
C5_5 C 0.60795(18) 0.11190(25) 0.7615(7)
H2_5 H 0.6361 0.1268 0.6884
H3_5 H 0.5795 0.1010 0.6909
C6_5 C 0.6104(2) 0.1483(3) 0.8811(8)
H4_5 H 0.6353 0.1603 0.9605
C7_5 C 0.5814(2) 0.1650(3) 0.8855(9)
H5_5 H 0.5561 0.1540 0.8083
H6_5 H 0.5857 0.1881 0.9658
C8_5 C 0.46688(18) 0.01460(25) 0.9663(7)
C11_5 C 0.43424(19) 0.03400(26) 0.9226(7)
O3_5 O 0.45308(13) 0.07451(18) 0.8616(5)
O4_5 O 0.39071(13) 0.00761(18) 0.9528(5)
Ag5_5 Ag 0.3333 0.03043(2) 0.9167
O6_5 O 0.71190(12) 0.11975(22) 0.8051(5)
C1_5 C 0.53312(18) 0.98540(25) 0.0337(7)
C4_5 C 0.56576(19) 0.96600(26) 0.0774(7)
O2_5 O 0.60929(13) 0.99239(18) 0.0472(5)
C9_5 C 0.45329(17) 0.97291(24) 0.0563(7)
C10_5 C 0.48646(17) 0.95942(25) 0.0892(7)
H7_5 H 0.4771 0.9314 0.1518
S2_5 S 0.39461(4) 0.93926(6) 0.13718(17)
C12_5 C 0.39205(18) 0.88810(25) 0.2385(7)
H8_5 H 0.3639 0.8732 0.3116
H9_5 H 0.4205 0.8990 0.3091
C13_5 C 0.3896(2) 0.8517(3) 0.1189(8)
H10_5 H 0.3647 0.8397 0.0395
C14_5 C 0.4186(2) 0.8350(3) 0.1145(9)
H11_5 H 0.4439 0.8460 0.1917
H12_5 H 0.4143 0.8119 0.0342
Ag6_5 Ag 0.36376(2) 0.99997(3) 0.2500
Ag4_5 Ag 0.63620(2) 0.99997(3) 0.7500
O9_5 O 0.65906(18) 0.94262(22) 0.7861(5)
S5_5 S 0.72741(6) 0.93872(7) 0.97051(17)
C1_6 C 0.45228(18) 0.46688(18) 0.0337(7)
C4_6 C 0.40024(18) 0.43424(19) 0.0774(7)
O2_6 O 0.38310(13) 0.39071(13) 0.0472(5)
C9_6 C 0.51962(17) 0.54671(17) 0.0563(7)
C10_6 C 0.47296(18) 0.51354(17) 0.0892(7)
H7_6 H 0.4543 0.5229 0.1518
S2_6 S 0.54465(4) 0.60539(4) 0.13718(17)
C12_6 C 0.49605(18) 0.60795(18) 0.2385(7)
H8_6 H 0.5093 0.6361 0.3116
H9_6 H 0.4785 0.5795 0.3091
C13_6 C 0.4621(2) 0.6104(2) 0.1189(8)
H10_6 H 0.4750 0.6353 0.0395
C14_6 C 0.4164(2) 0.5814(2) 0.1145(9)
H11_6 H 0.4021 0.5561 0.1917
H12_6 H 0.3976 0.5857 0.0342
C2_6 C 0.48038(17) 0.45329(17) 0.9437(7)
C3_6 C 0.52704(18) 0.48646(17) 0.9108(7)
H1_6 H 0.5457 0.4771 0.8482
S1_6 S 0.45535(4) 0.39461(4) 0.86282(17)
C5_6 C 0.50395(18) 0.39205(18) 0.7615(7)
H2_6 H 0.4907 0.3639 0.6884
H3_6 H 0.5215 0.4205 0.6909
C6_6 C 0.5379(2) 0.3896(2) 0.8811(8)
H4_6 H 0.5250 0.3647 0.9605
C7_6 C 0.5836(2) 0.4186(2) 0.8855(9)
H5_6 H 0.5979 0.4439 0.8083
H6_6 H 0.6024 0.4143 0.9658
C8_6 C 0.54772(18) 0.53312(18) 0.9663(7)
C11_6 C 0.59976(18) 0.56576(19) 0.9226(7)
O3_6 O 0.62143(12) 0.54692(13) 0.8616(5)
O4_6 O 0.61690(13) 0.60929(13) 0.9528(5)
Ag5_6 Ag 0.69713(2) 0.6667 0.9167
O6_6 O 0.40784(18) 0.28810(12) 0.8051(5)
O9_6 O 0.28357(13) 0.34094(18) 0.7861(5)
S5_6 S 0.21132(4) 0.27259(6) 0.97051(17)
Ag9_4 Ag 0.24918(2) 0.0000 0.2500
C5_7 C 0.05872(18) 0.83728(18) 0.0718(7)
H2_7 H 0.0306 0.8240 0.1449
H3_7 H 0.0872 0.8548 0.1424
H5_7 H 0.1106 0.9312 0.0250
C1_7 C 0.13355(18) 0.78561(18) 0.7996(7)
C2_7 C 0.11996(17) 0.81371(17) 0.8896(7)
C3_7 C 0.15313(17) 0.86037(18) 0.9225(7)
H1_7 H 0.1438 0.8790 0.9851
C4_7 C 0.10091(19) 0.73357(18) 0.7559(7)
C6_7 C 0.0563(2) 0.8712(2) 0.9522(8)
H4_7 H 0.0314 0.8583 0.8728
C7_7 C 0.0853(2) 0.9169(2) 0.9478(9)
H6_7 H 0.0810 0.9357 0.8675
C8_7 C 0.19979(18) 0.88105(18) 0.8670(7)
C9_7 C 0.21338(17) 0.85295(17) 0.7770(7)
C10_7 C 0.18021(17) 0.80629(18) 0.7441(7)
H7_7 H 0.1896 0.7876 0.6815
C11_7 C 0.23243(19) 0.93309(18) 0.9107(7)
O3_7 O 0.21359(13) 0.95476(12) 0.9717(5)
O4_7 O 0.27596(13) 0.95023(13) 0.8805(5)
S2_7 S 0.27206(4) 0.87798(4) 0.69615(17)
C12_7 C 0.27462(18) 0.82938(18) 0.5948(7)
H8_7 H 0.3028 0.8426 0.5217
H9_7 H 0.2462 0.8118 0.5242
C13_7 C 0.2771(2) 0.7954(2) 0.7144(8)
H10_7 H 0.3020 0.8083 0.7938
C14_7 C 0.2481(2) 0.7497(2) 0.7188(9)
H11_7 H 0.2228 0.7354 0.6416
H12_7 H 0.2524 0.7309 0.7991
O5_4 O 0.04524(12) 0.78641(13) 0.4717(5)
O6_7 O 0.95476(12) 0.74118(18) 0.0283(5)
Ag2_4 Ag 1.0000 0.75082(2) 0.7500
C5_8 C 0.16272(18) 0.22143(25) 0.0718(7)
H2_8 H 0.1760 0.2065 0.1449
H3_8 H 0.1452 0.2323 0.1424
H5_8 H 0.0688 0.1793 0.0250
O6_8 O 0.25882(18) 0.21359(22) 0.0283(5)
C1_8 C 0.21439(18) 0.34793(25) 0.7996(7)
Ag2_5 Ag 0.24918(2) 0.24914(2) 0.7500
C2_8 C 0.18629(17) 0.30624(24) 0.8896(7)
C3_8 C 0.13963(18) 0.29275(25) 0.9225(7)
H1_8 H 0.1210 0.2647 0.9851
C4_8 C 0.26643(18) 0.36733(26) 0.7559(7)
C6_8 C 0.1288(2) 0.1850(3) 0.9522(8)
H4_8 H 0.1417 0.1730 0.8728
C7_8 C 0.0831(2) 0.1683(3) 0.9478(9)
H6_8 H 0.0643 0.1452 0.8675
C8_8 C 0.11895(18) 0.31873(25) 0.8670(7)
C9_8 C 0.14705(17) 0.36042(24) 0.7770(7)
C10_8 C 0.19371(18) 0.37391(25) 0.7441(7)
H7_8 H 0.2124 0.4019 0.6815
C11_8 C 0.06691(18) 0.29933(26) 0.9107(7)
O3_8 O 0.04524(12) 0.25882(18) 0.9717(5)
O4_8 O 0.04977(13) 0.32572(18) 0.8805(5)
S2_8 S 0.12202(4) 0.39407(6) 0.69615(17)
C12_8 C 0.17062(18) 0.44523(25) 0.5948(7)
H8_8 H 0.1574 0.4601 0.5217
H9_8 H 0.1882 0.4343 0.5242
C13_8 C 0.2046(2) 0.4816(3) 0.7144(8)
H10_8 H 0.1917 0.4936 0.7938
C14_8 C 0.2503(2) 0.4983(3) 0.7188(9)
H11_8 H 0.2646 0.4873 0.6416
H12_8 H 0.2691 0.5214 0.7991
O5_5 O 0.21359(13) 0.25882(18) 0.4717(5)
Ag9_5 Ag 1.0000 0.24914(2) 0.2500
O6_9 O 0.78641(22) 0.04524(12) 0.0283(5)
Ag2_6 Ag 0.75086(2) 0.0000 0.7500
C5_9 C 0.77857(25) 0.94128(18) 0.0718(7)
H2_9 H 0.7935 0.9694 0.1449
H3_9 H 0.7677 0.9128 0.1424
H5_9 H 0.8207 0.8894 0.0250
Ag9_6 Ag 0.75086(2) 0.75082(2) 0.2500
C1_9 C 0.65207(25) 0.86645(18) 0.7996(7)
C2_9 C 0.69376(24) 0.88004(17) 0.8896(7)
C3_9 C 0.70725(25) 0.84687(17) 0.9225(7)
H1_9 H 0.7353 0.8562 0.9851
C4_9 C 0.63267(26) 0.89909(19) 0.7559(7)
C6_9 C 0.8150(3) 0.9437(2) 0.9522(8)
H4_9 H 0.8270 0.9686 0.8728
C7_9 C 0.8317(3) 0.9147(2) 0.9478(9)
H6_9 H 0.8548 0.9190 0.8675
C8_9 C 0.68127(25) 0.80021(18) 0.8670(7)
C9_9 C 0.63958(24) 0.78662(17) 0.7770(7)
C10_9 C 0.62609(25) 0.81979(17) 0.7441(7)
H7_9 H 0.5981 0.8104 0.6815
C11_9 C 0.70067(26) 0.76757(19) 0.9107(7)
O3_9 O 0.74118(18) 0.78641(13) 0.9717(5)
O4_9 O 0.67428(18) 0.72404(13) 0.8805(5)
S2_9 S 0.60593(6) 0.72794(4) 0.69615(17)
C12_9 C 0.55477(25) 0.72538(18) 0.5948(7)
H8_9 H 0.5399 0.6972 0.5217
H9_9 H 0.5657 0.7538 0.5242
C13_9 C 0.5184(3) 0.7229(2) 0.7144(8)
H10_9 H 0.5064 0.6980 0.7938
C14_9 C 0.5017(3) 0.7519(2) 0.7188(9)
H11_9 H 0.5127 0.7772 0.6416
H12_9 H 0.4786 0.7476 0.7991
O5_6 O 0.74118(18) 0.95476(12) 0.4717(5)
C1_10 C 0.68127(25) 0.88105(18) 0.3670(7)
C2_10 C 0.63958(24) 0.85295(17) 0.2770(7)
C3_10 C 0.62609(25) 0.80629(18) 0.2441(7)
H1_10 H 0.5981 0.7876 0.1815
C4_10 C 0.70067(26) 0.93309(18) 0.4107(7)
C5_10 C 0.55477(25) 0.82938(18) 0.0948(7)
H2_10 H 0.5399 0.8426 0.0217
H3_10 H 0.5657 0.8118 0.0242
C6_10 C 0.5184(3) 0.7954(2) 0.2144(8)
H4_10 H 0.5064 0.8083 0.2938
C7_10 C 0.5017(3) 0.7497(2) 0.2188(9)
H5_10 H 0.5127 0.7354 0.1416
H6_10 H 0.4786 0.7309 0.2991
C8_10 C 0.65207(25) 0.78561(18) 0.2996(7)
C9_10 C 0.69376(24) 0.81371(17) 0.3896(7)
C10_10 C 0.70725(25) 0.86037(18) 0.4225(7)
H7_10 H 0.7353 0.8790 0.4851
C11_10 C 0.63267(26) 0.73357(18) 0.2559(7)
O3_10 O 0.59216(18) 0.71190(12) 0.1949(5)
O4_10 O 0.65906(18) 0.71643(13) 0.2861(5)
S2_10 S 0.72741(6) 0.78868(4) 0.47051(17)
C12_10 C 0.77857(25) 0.83728(18) 0.5718(7)
H8_10 H 0.7935 0.8240 0.6449
H9_10 H 0.7677 0.8548 0.6424
C13_10 C 0.8150(3) 0.8712(2) 0.4522(8)
H10_10 H 0.8270 0.8583 0.3728
C14_10 C 0.8317(3) 0.9169(2) 0.4478(9)
H11_10 H 0.8207 0.9312 0.5250
H12_10 H 0.8548 0.9357 0.3675
C1_11 C 0.19979(18) 0.31873(25) 0.3670(7)
C2_11 C 0.21338(17) 0.36042(24) 0.2770(7)
C3_11 C 0.18021(17) 0.37391(25) 0.2441(7)
H1_11 H 0.1896 0.4019 0.1815
C4_11 C 0.23243(19) 0.29933(26) 0.4107(7)
C5_11 C 0.27462(18) 0.44523(25) 0.0948(7)
H2_11 H 0.3028 0.4601 0.0217
H3_11 H 0.2462 0.4343 0.0242
C6_11 C 0.2771(2) 0.4816(3) 0.2144(8)
H4_11 H 0.3020 0.4936 0.2938
C7_11 C 0.2481(2) 0.4983(3) 0.2188(9)
H5_11 H 0.2228 0.4873 0.1416
H6_11 H 0.2524 0.5214 0.2991
C8_11 C 0.13355(18) 0.34793(25) 0.2996(7)
C9_11 C 0.11996(17) 0.30624(24) 0.3896(7)
C10_11 C 0.15313(17) 0.29275(25) 0.4225(7)
H7_11 H 0.1438 0.2647 0.4851
C11_11 C 0.10091(19) 0.36733(26) 0.2559(7)
O3_11 O 0.11975(13) 0.40784(18) 0.1949(5)
O4_11 O 0.05738(13) 0.34094(18) 0.2861(5)
S2_11 S 0.06128(4) 0.27259(6) 0.47051(17)
C12_11 C 0.05872(18) 0.22143(25) 0.5718(7)
H8_11 H 0.0306 0.2065 0.6449
H9_11 H 0.0872 0.2323 0.6424
C13_11 C 0.0563(2) 0.1850(3) 0.4522(8)
H10_11 H 0.0314 0.1730 0.3728
C14_11 C 0.0853(2) 0.1683(3) 0.4478(9)
H11_11 H 0.1106 0.1793 0.5250
H12_11 H 0.0810 0.1452 0.3675
C1_12 C 0.11895(18) 0.80021(18) 0.3670(7)
C2_12 C 0.14705(17) 0.78662(17) 0.2770(7)
C3_12 C 0.19371(18) 0.81979(17) 0.2441(7)
H1_12 H 0.2124 0.8104 0.1815
C4_12 C 0.06691(18) 0.76757(19) 0.4107(7)
C5_12 C 0.17062(18) 0.72538(18) 0.0948(7)
H2_12 H 0.1574 0.6972 0.0217
H3_12 H 0.1882 0.7538 0.0242
C6_12 C 0.2046(2) 0.7229(2) 0.2144(8)
H4_12 H 0.1917 0.6980 0.2938
C7_12 C 0.2503(2) 0.7519(2) 0.2188(9)
H5_12 H 0.2646 0.7772 0.1416
H6_12 H 0.2691 0.7476 0.2991
C8_12 C 0.21439(18) 0.86645(18) 0.2996(7)
C9_12 C 0.18629(17) 0.88004(17) 0.3896(7)
C10_12 C 0.13963(18) 0.84687(17) 0.4225(7)
H7_12 H 0.1210 0.8562 0.4851
C11_12 C 0.26643(18) 0.89909(19) 0.2559(7)
O3_12 O 0.28810(12) 0.88025(13) 0.1949(5)
O4_12 O 0.28357(13) 0.94262(13) 0.2861(5)
S2_12 S 0.21132(4) 0.93872(4) 0.47051(17)
C12_12 C 0.16272(18) 0.94128(18) 0.5718(7)
H8_12 H 0.1760 0.9694 0.6449
H9_12 H 0.1452 0.9128 0.6424
C13_12 C 0.1288(2) 0.9437(2) 0.4522(8)
H10_12 H 0.1417 0.9686 0.3728
C14_12 C 0.0831(2) 0.9147(2) 0.4478(9)
H11_12 H 0.0688 0.8894 0.5250
H12_12 H 0.0643 0.9190 0.3675
Ag8_4 Ag 0.0000 0.24918(2) 0.2500
C1_13 C 0.80021(18) 0.11895(18) 0.1330(7)
C2_13 C 0.78662(17) 0.14705(17) 0.2230(7)
C3_13 C 0.81979(17) 0.19371(18) 0.2559(7)
H1_13 H 0.8104 0.2124 0.3185
C4_13 C 0.76757(19) 0.06691(18) 0.0893(7)
C5_13 C 0.72538(18) 0.17062(18) 0.4052(7)
H2_13 H 0.6972 0.1574 0.4783
H3_13 H 0.7538 0.1882 0.4758
C6_13 C 0.7229(2) 0.2046(2) 0.2856(8)
H4_13 H 0.6980 0.1917 0.2062
C7_13 C 0.7519(2) 0.2503(2) 0.2812(9)
H5_13 H 0.7772 0.2646 0.3584
H6_13 H 0.7476 0.2691 0.2009
C8_13 C 0.86645(18) 0.21439(18) 0.2004(7)
C9_13 C 0.88004(17) 0.18629(17) 0.1104(7)
C10_13 C 0.84687(17) 0.13963(18) 0.0775(7)
H7_13 H 0.8562 0.1210 0.0149
C11_13 C 0.89909(19) 0.26643(18) 0.2441(7)
O3_13 O 0.88025(13) 0.28810(12) 0.3051(5)
O4_13 O 0.94262(13) 0.28357(13) 0.2139(5)
S2_13 S 0.93872(4) 0.21132(4) 0.02949(17)
C13_13 C 0.9437(2) 0.1288(2) 0.0478(8)
H10_13 H 0.9686 0.1417 0.1272
C14_13 C 0.9147(2) 0.0831(2) 0.0522(9)
H12_13 H 0.9190 0.0643 0.1325
C12_13 C 0.94128(18) 0.16272(18) 0.9282(7)
H8_13 H 0.9694 0.1760 0.8551
H9_13 H 0.9128 0.1452 0.8576
H11_13 H 0.8894 0.0688 0.9750
Ag7_4 Ag 0.75082(2) 1.0000 0.7500
Ag7_5 Ag 0.0000 0.75086(2) 0.7500
C1_14 C 0.88105(18) 0.68127(25) 0.1330(7)
C2_14 C 0.85295(17) 0.63958(24) 0.2230(7)
C3_14 C 0.80629(18) 0.62609(25) 0.2559(7)
H1_14 H 0.7876 0.5981 0.3185
C4_14 C 0.93309(18) 0.70067(26) 0.0893(7)
C5_14 C 0.82938(18) 0.55477(25) 0.4052(7)
H2_14 H 0.8426 0.5399 0.4783
H3_14 H 0.8118 0.5657 0.4758
C6_14 C 0.7954(2) 0.5184(3) 0.2856(8)
H4_14 H 0.8083 0.5064 0.2062
C7_14 C 0.7497(2) 0.5017(3) 0.2812(9)
H5_14 H 0.7354 0.5127 0.3584
H6_14 H 0.7309 0.4786 0.2009
C8_14 C 0.78561(18) 0.65207(25) 0.2004(7)
C9_14 C 0.81371(17) 0.69376(24) 0.1104(7)
C10_14 C 0.86037(18) 0.70725(25) 0.0775(7)
H7_14 H 0.8790 0.7353 0.0149
C11_14 C 0.73357(18) 0.63267(26) 0.2441(7)
O3_14 O 0.71190(12) 0.59216(18) 0.3051(5)
O4_14 O 0.71643(13) 0.65906(18) 0.2139(5)
S2_14 S 0.78868(4) 0.72741(6) 0.02949(17)
C13_14 C 0.8712(2) 0.8150(3) 0.0478(8)
H10_14 H 0.8583 0.8270 0.1272
C14_14 C 0.9169(2) 0.8317(3) 0.0522(9)
H12_14 H 0.9357 0.8548 0.1325
C12_14 C 0.83728(18) 0.77857(25) 0.9282(7)
H8_14 H 0.8240 0.7935 0.8551
H9_14 H 0.8548 0.7677 0.8576
H11_14 H 0.9312 0.8207 0.9750
C1_15 C 0.31873(25) 0.19979(18) 0.1330(7)
C2_15 C 0.36042(24) 0.21338(17) 0.2230(7)
C3_15 C 0.37391(25) 0.18021(17) 0.2559(7)
H1_15 H 0.4019 0.1896 0.3185
C4_15 C 0.29933(26) 0.23243(19) 0.0893(7)
C5_15 C 0.44523(25) 0.27462(18) 0.4052(7)
H2_15 H 0.4601 0.3028 0.4783
H3_15 H 0.4343 0.2462 0.4758
C6_15 C 0.4816(3) 0.2771(2) 0.2856(8)
H4_15 H 0.4936 0.3020 0.2062
C7_15 C 0.4983(3) 0.2481(2) 0.2812(9)
H5_15 H 0.4873 0.2228 0.3584
H6_15 H 0.5214 0.2524 0.2009
C8_15 C 0.34793(25) 0.13355(18) 0.2004(7)
C9_15 C 0.30624(24) 0.11996(17) 0.1104(7)
C10_15 C 0.29275(25) 0.15313(17) 0.0775(7)
H7_15 H 0.2647 0.1438 0.0149
C11_15 C 0.36733(26) 0.10091(19) 0.2441(7)
O3_15 O 0.40784(18) 0.11975(13) 0.3051(5)
O4_15 O 0.34094(18) 0.05738(13) 0.2139(5)
S2_15 S 0.27259(6) 0.06128(4) 0.02949(17)
C13_15 C 0.1850(3) 0.0563(2) 0.0478(8)
H10_15 H 0.1730 0.0314 0.1272
C14_15 C 0.1683(3) 0.0853(2) 0.0522(9)
H12_15 H 0.1452 0.0810 0.1325
C12_15 C 0.22143(25) 0.05872(18) 0.9282(7)
H8_15 H 0.2065 0.0306 0.8551
H9_15 H 0.2323 0.0872 0.8576
H11_15 H 0.1793 0.1106 0.9750
Ag8_5 Ag 0.24914(2) 1.0000 0.2500
C1_16 C 0.34793(25) 0.21439(18) 0.7004(7)
C2_16 C 0.30624(24) 0.18629(17) 0.6104(7)
C3_16 C 0.29275(25) 0.13963(18) 0.5775(7)
H1_16 H 0.2647 0.1210 0.5149
C4_16 C 0.36733(26) 0.26643(18) 0.7441(7)
C5_16 C 0.22143(25) 0.16272(18) 0.4282(7)
H2_16 H 0.2065 0.1760 0.3551
H3_16 H 0.2323 0.1452 0.3576
C6_16 C 0.1850(3) 0.1288(2) 0.5478(8)
H4_16 H 0.1730 0.1417 0.6272
C7_16 C 0.1683(3) 0.0831(2) 0.5522(9)
H5_16 H 0.1793 0.0688 0.4750
H6_16 H 0.1452 0.0643 0.6325
C8_16 C 0.31873(25) 0.11895(18) 0.6330(7)
C9_16 C 0.36042(24) 0.14705(17) 0.7230(7)
C10_16 C 0.37391(25) 0.19371(18) 0.7559(7)
H7_16 H 0.4019 0.2124 0.8185
C11_16 C 0.29933(26) 0.06691(18) 0.5893(7)
O3_16 O 0.25882(18) 0.04524(12) 0.5283(5)
O4_16 O 0.32572(18) 0.04977(13) 0.6195(5)
S2_16 S 0.39407(6) 0.12202(4) 0.80385(17)
C12_16 C 0.44523(25) 0.17062(18) 0.9052(7)
H8_16 H 0.4601 0.1574 0.9783
H9_16 H 0.4343 0.1882 0.9758
C13_16 C 0.4816(3) 0.2046(2) 0.7856(8)
H10_16 H 0.4936 0.1917 0.7062
C14_16 C 0.4983(3) 0.2503(2) 0.7812(9)
H11_16 H 0.4873 0.2646 0.8584
H12_16 H 0.5214 0.2691 0.7009
C1_17 C 0.86645(18) 0.65207(25) 0.7004(7)
C2_17 C 0.88004(17) 0.69376(24) 0.6104(7)
C3_17 C 0.84687(17) 0.70725(25) 0.5775(7)
H1_17 H 0.8562 0.7353 0.5149
C4_17 C 0.89909(19) 0.63267(26) 0.7441(7)
C5_17 C 0.94128(18) 0.77857(25) 0.4282(7)
H2_17 H 0.9694 0.7935 0.3551
H3_17 H 0.9128 0.7677 0.3576
C6_17 C 0.9437(2) 0.8150(3) 0.5478(8)
H4_17 H 0.9686 0.8270 0.6272
C7_17 C 0.9147(2) 0.8317(3) 0.5522(9)
H5_17 H 0.8894 0.8207 0.4750
H6_17 H 0.9190 0.8548 0.6325
C8_17 C 0.80021(18) 0.68127(25) 0.6330(7)
C9_17 C 0.78662(17) 0.63958(24) 0.7230(7)
C10_17 C 0.81979(17) 0.62609(25) 0.7559(7)
H7_17 H 0.8104 0.5981 0.8185
C11_17 C 0.76757(19) 0.70067(26) 0.5893(7)
O3_17 O 0.78641(13) 0.74118(18) 0.5283(5)
O4_17 O 0.72404(13) 0.67428(18) 0.6195(5)
S2_17 S 0.72794(4) 0.60593(6) 0.80385(17)
C12_17 C 0.72538(18) 0.55477(25) 0.9052(7)
H8_17 H 0.6972 0.5399 0.9783
H9_17 H 0.7538 0.5657 0.9758
C13_17 C 0.7229(2) 0.5184(3) 0.7856(8)
H10_17 H 0.6980 0.5064 0.7062
C14_17 C 0.7519(2) 0.5017(3) 0.7812(9)
H11_17 H 0.7772 0.5127 0.8584
H12_17 H 0.7476 0.4786 0.7009
C1_18 C 0.78561(18) 0.13355(18) 0.7004(7)
C2_18 C 0.81371(17) 0.11996(17) 0.6104(7)
C3_18 C 0.86037(18) 0.15313(17) 0.5775(7)
H1_18 H 0.8790 0.1438 0.5149
C4_18 C 0.73357(18) 0.10091(19) 0.7441(7)
C5_18 C 0.83728(18) 0.05872(18) 0.4282(7)
H2_18 H 0.8240 0.0306 0.3551
H3_18 H 0.8548 0.0872 0.3576
C6_18 C 0.8712(2) 0.0563(2) 0.5478(8)
H4_18 H 0.8583 0.0314 0.6272
C7_18 C 0.9169(2) 0.0853(2) 0.5522(9)
H5_18 H 0.9312 0.1106 0.4750
H6_18 H 0.9357 0.0810 0.6325
C8_18 C 0.88105(18) 0.19979(18) 0.6330(7)
C9_18 C 0.85295(17) 0.21338(17) 0.7230(7)
C10_18 C 0.80629(18) 0.18021(17) 0.7559(7)
H7_18 H 0.7876 0.1896 0.8185
C11_18 C 0.93309(18) 0.23243(19) 0.5893(7)
O3_18 O 0.95476(12) 0.21359(13) 0.5283(5)
O4_18 O 0.95023(13) 0.27596(13) 0.6195(5)
S2_18 S 0.87798(4) 0.27206(4) 0.80385(17)
C12_18 C 0.82938(18) 0.27462(18) 0.9052(7)
H8_18 H 0.8426 0.3028 0.9783
H9_18 H 0.8118 0.2462 0.9758
C13_18 C 0.7954(2) 0.2771(2) 0.7856(8)
H10_18 H 0.8083 0.3020 0.7062
C14_18 C 0.7497(2) 0.2481(2) 0.7812(9)
H11_18 H 0.7354 0.2228 0.8584
H12_18 H 0.7309 0.2524 0.7009
loop_
_geom_bond_atom_site_label_1
_geom_bond_atom_site_label_2
_geom_bond_site_symmetry_1
_geom_bond_site_symmetry_2
Ag1 O2 1_555 1_555
C1 C2 1_555 1_555
Ag2 O2 1_555 1_555
C2 C3 1_555 1_555
C3 H1 1_555 1_555
C4 C1 1_555 1_555
O1 C4 1_555 1_555
O2 C4 1_555 1_555
S1 Ag2 1_555 1_555
C5 S1 1_555 1_555
H2 C5 1_555 1_555
H3 C5 1_555 1_555
C6 C5 1_555 1_555
H4 C6 1_555 1_555
C7 C6 1_555 1_555
H5 C7 1_555 1_555
H6 C7 1_555 1_555
C8 C3 1_555 1_555
C9 C8 1_555 1_555
C10 C1 1_555 1_555
H7 C10 1_555 1_555
C11 C8 1_555 1_555
O3 C11 1_555 1_555
O4 C11 1_555 1_555
S2 C9 1_555 1_555
C12 S2 1_555 1_555
H8 C12 1_555 1_555
H9 C12 1_555 1_555
C13 C12 1_555 1_555
H10 C13 1_555 1_555
C14 C13 1_555 1_555
H11 C14 1_555 1_555
H12 C14 1_555 1_555
Ag3 Ag1 1_555 1_555
Ag4 Ag1 1_555 1_555
Ag5 O4 1_555 1_555
Ag6 O4 1_555 1_555
Ag7 O1 1_555 1_555
Ag8 O4 1_555 1_555
Ag9 O3 1_555 1_555
O5 Ag2 1_555 1_555
O6 Ag2 1_555 1_555
O7 Ag1 1_555 1_555
O8 Ag1 1_555 1_555
O9 Ag1 1_555 1_555
S3 Ag2 1_555 1_555
S4 Ag1 1_555 1_555
S5 Ag1 1_555 1_555
Ag2 O7 1_555 1_555
C2 S1 1_555 1_555
O2 Ag4 1_555 1_555
S1 Ag4 1_555 1_555
C9 C10 1_555 1_555
S2 Ag6 1_555 1_555
S2 Ag8 1_555 1_555
Ag3 O7 1_555 1_555
Ag3 O8 1_555 1_555
Ag3 S3 1_555 1_555
Ag4 O9 1_555 1_555
Ag5 Ag6 1_555 1_555
Ag7 O8 1_555 1_555
Ag7 S4 1_555 1_555
Ag1_2 O2_2 1_555 1_555
C4_2 C1_2 1_555 1_555
O1_2 C4_2 1_555 1_555
O2_2 C4_2 1_555 1_555
C10_2 C1_2 1_555 1_555
H7_2 C10_2 1_555 1_555
S2_2 C9_2 1_555 1_555
C12_2 S2_2 1_555 1_555
H8_2 C12_2 1_555 1_555
H9_2 C12_2 1_555 1_555
C13_2 C12_2 1_555 1_555
H10_2 C13_2 1_555 1_555
C14_2 C13_2 1_555 1_555
H11_2 C14_2 1_555 1_555
H12_2 C14_2 1_555 1_555
Ag4_2 Ag1_2 1_555 1_555
Ag7_2 O1_2 1_555 1_555
O8_2 Ag1_2 1_555 1_555
O9_2 Ag1_2 1_555 1_555
S4_2 Ag1_2 1_555 1_555
S5_2 Ag1_2 1_555 1_555
O2_2 Ag4_2 1_555 1_555
C9_2 C10_2 1_555 1_555
S2_2 Ag6_2 1_555 1_555
S2_2 Ag8_2 1_555 1_555
Ag4_2 O9_2 1_555 1_555
Ag7_2 O8_2 1_555 1_555
Ag7_2 S4_2 1_555 1_555
C2_2 C3_2 1_555 1_555
C3_2 H1_2 1_555 1_555
S1_2 Ag2_2 1_555 1_555
C5_2 S1_2 1_555 1_555
H2_2 C5_2 1_555 1_555
H3_2 C5_2 1_555 1_555
C6_2 C5_2 1_555 1_555
H4_2 C6_2 1_555 1_555
C7_2 C6_2 1_555 1_555
H5_2 C7_2 1_555 1_555
H6_2 C7_2 1_555 1_555
C8_2 C3_2 1_555 1_555
C11_2 C8_2 1_555 1_555
O3_2 C11_2 1_555 1_555
O4_2 C11_2 1_555 1_555
Ag5_2 O4_2 1_555 1_555
Ag9_2 O3_2 1_555 1_555
O5_2 Ag2_2 1_555 1_555
O6_2 Ag2_2 1_555 1_555
S3_2 Ag2_2 1_555 1_555
Ag2_2 O7_2 1_555 1_555
C2_2 S1_2 1_555 1_555
Ag3_2 O7_2 1_555 1_555
Ag3_2 S3_2 1_555 1_555
C2_3 C3_3 1_555 1_555
C3_3 H1_3 1_555 1_555
S1_3 Ag2_3 1_555 1_555
C5_3 S1_3 1_555 1_555
H2_3 C5_3 1_555 1_555
H3_3 C5_3 1_555 1_555
C6_3 C5_3 1_555 1_555
H4_3 C6_3 1_555 1_555
C7_3 C6_3 1_555 1_555
H5_3 C7_3 1_555 1_555
H6_3 C7_3 1_555 1_555
C8_3 C3_3 1_555 1_555
C11_3 C8_3 1_555 1_555
O3_3 C11_3 1_555 1_555
O4_3 C11_3 1_555 1_555
Ag5_3 O4_3 1_555 1_555
Ag9_3 O3_3 1_555 1_555
O5_3 Ag2_3 1_555 1_555
O6_3 Ag2_3 1_555 1_555
S3_3 Ag2_3 1_555 1_555
Ag2_3 O7_3 1_555 1_555
C2_3 S1_3 1_555 1_555
Ag3_3 O7_3 1_555 1_555
Ag3_3 S3_3 1_555 1_555
Ag1_3 O2_3 1_555 1_555
C4_3 C1_3 1_555 1_555
O1_3 C4_3 1_555 1_555
O2_3 C4_3 1_555 1_555
C10_3 C1_3 1_555 1_555
H7_3 C10_3 1_555 1_555
S2_3 C9_3 1_555 1_555
C12_3 S2_3 1_555 1_555
H8_3 C12_3 1_555 1_555
H9_3 C12_3 1_555 1_555
C13_3 C12_3 1_555 1_555
H10_3 C13_3 1_555 1_555
C14_3 C13_3 1_555 1_555
H11_3 C14_3 1_555 1_555
H12_3 C14_3 1_555 1_555
Ag4_3 Ag1_3 1_555 1_555
Ag7_3 O1_3 1_555 1_555
O8_3 Ag1_3 1_555 1_555
O9_3 Ag1_3 1_555 1_555
S4_3 Ag1_3 1_555 1_555
S5_3 Ag1_3 1_555 1_555
O2_3 Ag4_3 1_555 1_555
C9_3 C10_3 1_555 1_555
S2_3 Ag6_3 1_555 1_555
S2_3 Ag8_3 1_555 1_555
Ag4_3 O9_3 1_555 1_555
Ag7_3 O8_3 1_555 1_555
Ag7_3 S4_3 1_555 1_555
Ag3_3 O2_4 1_555 1_555
C4_4 C1_4 1_555 1_555
O5_3 C4_4 1_555 1_555
O2_4 C4_4 1_555 1_555
C10_4 C1_4 1_555 1_555
H7_4 C10_4 1_555 1_555
S2_4 C9_4 1_555 1_555
C12_4 S2_4 1_555 1_555
H8_4 C12_4 1_555 1_555
H9_4 C12_4 1_555 1_555
C13_4 C12_4 1_555 1_555
H10_4 C13_4 1_555 1_555
C14_4 C13_4 1_555 1_555
H11_4 C14_4 1_555 1_555
H12_4 C14_4 1_555 1_555
C9_4 C10_4 1_555 1_555
S2_4 Ag6_4 1_555 1_555
Ag4_4 O9_4 1_555 1_555
C2_4 C3_4 1_555 1_555
C3_4 H1_4 1_555 1_555
C5_4 S1_4 1_555 1_555
H2_4 C5_4 1_555 1_555
H3_4 C5_4 1_555 1_555
C6_4 C5_4 1_555 1_555
H4_4 C6_4 1_555 1_555
C7_4 C6_4 1_555 1_555
H5_4 C7_4 1_555 1_555
H6_4 C7_4 1_555 1_555
C8_4 C3_4 1_555 1_555
C11_4 C8_4 1_555 1_555
O3_4 C11_4 1_555 1_555
O4_4 C11_4 1_555 1_555
Ag5_4 O4_4 1_555 1_555
Ag8_3 O3_4 1_555 1_555
C2_4 S1_4 1_555 1_555
C2_5 C3_5 1_555 1_555
C3_5 H1_5 1_555 1_555
C5_5 S1_5 1_555 1_555
H2_5 C5_5 1_555 1_555
H3_5 C5_5 1_555 1_555
C6_5 C5_5 1_555 1_555
H4_5 C6_5 1_555 1_555
C7_5 C6_5 1_555 1_555
H5_5 C7_5 1_555 1_555
H6_5 C7_5 1_555 1_555
C8_5 C3_5 1_555 1_555
C11_5 C8_5 1_555 1_555
O3_5 C11_5 1_555 1_555
O4_5 C11_5 1_555 1_555
Ag5_5 O4_5 1_555 1_555
Ag8_2 O3_5 1_555 1_555
C2_5 S1_5 1_555 1_555
Ag3_2 O2_5 1_555 1_555
C4_5 C1_5 1_555 1_555
O5_2 C4_5 1_555 1_555
O2_5 C4_5 1_555 1_555
C10_5 C1_5 1_555 1_555
H7_5 C10_5 1_555 1_555
S2_5 C9_5 1_555 1_555
C12_5 S2_5 1_555 1_555
H8_5 C12_5 1_555 1_555
H9_5 C12_5 1_555 1_555
C13_5 C12_5 1_555 1_555
H10_5 C13_5 1_555 1_555
C14_5 C13_5 1_555 1_555
H11_5 C14_5 1_555 1_555
H12_5 C14_5 1_555 1_555
C9_5 C10_5 1_555 1_555
S2_5 Ag6_5 1_555 1_555
Ag4_5 O9_5 1_555 1_555
Ag3 O2_6 1_555 1_555
Ag7 O2_6 1_555 1_555
C4_6 C1_6 1_555 1_555
O5 C4_6 1_555 1_555
O2_6 C4_6 1_555 1_555
C10_6 C1_6 1_555 1_555
H7_6 C10_6 1_555 1_555
S2_6 C9_6 1_555 1_555
C12_6 S2_6 1_555 1_555
H8_6 C12_6 1_555 1_555
H9_6 C12_6 1_555 1_555
C13_6 C12_6 1_555 1_555
H10_6 C13_6 1_555 1_555
C14_6 C13_6 1_555 1_555
H11_6 C14_6 1_555 1_555
H12_6 C14_6 1_555 1_555
C9_6 C10_6 1_555 1_555
S2_6 Ag6 1_555 1_555
C2_6 C3_6 1_555 1_555
C3_6 H1_6 1_555 1_555
C5_6 S1_6 1_555 1_555
H2_6 C5_6 1_555 1_555
H3_6 C5_6 1_555 1_555
C6_6 C5_6 1_555 1_555
H4_6 C6_6 1_555 1_555
C7_6 C6_6 1_555 1_555
H5_6 C7_6 1_555 1_555
H6_6 C7_6 1_555 1_555
C8_6 C3_6 1_555 1_555
C11_6 C8_6 1_555 1_555
O3_6 C11_6 1_555 1_555
O4_6 C11_6 1_555 1_555
Ag5_6 O4_6 1_555 1_555
Ag9 O4_6 1_555 1_555
Ag8 O3_6 1_555 1_555
C2_6 S1_6 1_555 1_555
S1_6 Ag4 1_555 1_555
Ag4 O9_6 1_555 1_555
H2_7 C5_7 1_555 1_555
H3_7 C5_7 1_555 1_555
C1_7 C2_7 1_555 1_555
C2_7 C3_7 1_555 1_555
C3_7 H1_7 1_555 1_555
C4_7 C1_7 1_555 1_555
O6_3 C4_7 1_555 1_555
O9_4 C4_7 1_555 1_555
H4_7 C6_7 1_555 1_555
C7_7 C6_7 1_555 1_555
H6_7 C7_7 1_555 1_555
C8_7 C3_7 1_555 1_555
C9_7 C8_7 1_555 1_555
C10_7 C1_7 1_555 1_555
H7_7 C10_7 1_555 1_555
C11_7 C8_7 1_555 1_555
O3_7 C11_7 1_555 1_555
O4_7 C11_7 1_555 1_555
S2_7 C9_7 1_555 1_555
C12_7 S2_7 1_555 1_555
H8_7 C12_7 1_555 1_555
H9_7 C12_7 1_555 1_555
C13_7 C12_7 1_555 1_555
H10_7 C13_7 1_555 1_555
C14_7 C13_7 1_555 1_555
H11_7 C14_7 1_555 1_555
H12_7 C14_7 1_555 1_555
Ag5_2 O4_7 1_555 1_555
Ag9_2 O4_7 1_555 1_555
C2_7 S5_4 1_555 1_555
C9_7 C10_7 1_555 1_555
S2_7 Ag5_2 1_555 1_555
S2_7 Ag9_2 1_555 1_555
S5_3 Ag2_4 1_555 1_555
S1_4 Ag4_3 1_555 1_555
Ag2_4 O9_3 1_555 1_555
H2_8 C5_8 1_555 1_555
H3_8 C5_8 1_555 1_555
C1_8 C2_8 1_555 1_555
Ag2_5 O9_6 1_555 1_555
C2_8 C3_8 1_555 1_555
C3_8 H1_8 1_555 1_555
C4_8 C1_8 1_555 1_555
O6 C4_8 1_555 1_555
O9_6 C4_8 1_555 1_555
S5_6 Ag2_5 1_555 1_555
H4_8 C6_8 1_555 1_555
C7_8 C6_8 1_555 1_555
H6_8 C7_8 1_555 1_555
C8_8 C3_8 1_555 1_555
C9_8 C8_8 1_555 1_555
C10_8 C1_8 1_555 1_555
H7_8 C10_8 1_555 1_555
C11_8 C8_8 1_555 1_555
O3_8 C11_8 1_555 1_555
O4_8 C11_8 1_555 1_555
S2_8 C9_8 1_555 1_555
C12_8 S2_8 1_555 1_555
H8_8 C12_8 1_555 1_555
H9_8 C12_8 1_555 1_555
C13_8 C12_8 1_555 1_555
H10_8 C13_8 1_555 1_555
C14_8 C13_8 1_555 1_555
H11_8 C14_8 1_555 1_555
H12_8 C14_8 1_555 1_555
Ag5_3 O4_8 1_555 1_555
Ag9_3 O4_8 1_555 1_555
O5_5 Ag2_5 1_555 1_555
S5 Ag2_5 1_555 1_555
Ag2_5 O9 1_555 1_555
C2_8 S5_6 1_555 1_555
C9_8 C10_8 1_555 1_555
S2_8 Ag5_3 1_555 1_555
S2_8 Ag9_3 1_555 1_555
S5_2 Ag2_6 1_555 1_555
S1_5 Ag4_2 1_555 1_555
Ag2_6 O9_2 1_555 1_555
H2_9 C5_9 1_555 1_555
H3_9 C5_9 1_555 1_555
C1_9 C2_9 1_555 1_555
C2_9 C3_9 1_555 1_555
C3_9 H1_9 1_555 1_555
C4_9 C1_9 1_555 1_555
O6_2 C4_9 1_555 1_555
O9_5 C4_9 1_555 1_555
H4_9 C6_9 1_555 1_555
C7_9 C6_9 1_555 1_555
H6_9 C7_9 1_555 1_555
C8_9 C3_9 1_555 1_555
C9_9 C8_9 1_555 1_555
C10_9 C1_9 1_555 1_555
H7_9 C10_9 1_555 1_555
C11_9 C8_9 1_555 1_555
O3_9 C11_9 1_555 1_555
O4_9 C11_9 1_555 1_555
S2_9 C9_9 1_555 1_555
C12_9 S2_9 1_555 1_555
H8_9 C12_9 1_555 1_555
H9_9 C12_9 1_555 1_555
C13_9 C12_9 1_555 1_555
H10_9 C13_9 1_555 1_555
C14_9 C13_9 1_555 1_555
H11_9 C14_9 1_555 1_555
H12_9 C14_9 1_555 1_555
Ag5_6 O4_9 1_555 1_555
Ag5 O4_9 1_555 1_555
Ag9 O4_9 1_555 1_555
C2_9 S5_5 1_555 1_555
C9_9 C10_9 1_555 1_555
S2_9 Ag5 1_555 1_555
S2_9 Ag9 1_555 1_555
Ag5_6 Ag5 1_555 1_555
C1_10 C2_10 1_555 1_555
C2_10 C3_10 1_555 1_555
C3_10 H1_10 1_555 1_555
C4_10 C1_10 1_555 1_555
O5_6 C4_10 1_555 1_555
O7_2 C4_10 1_555 1_555
C5_10 S3_2 1_555 1_555
H2_10 C5_10 1_555 1_555
H3_10 C5_10 1_555 1_555
C6_10 C5_10 1_555 1_555
H4_10 C6_10 1_555 1_555
C7_10 C6_10 1_555 1_555
H5_10 C7_10 1_555 1_555
H6_10 C7_10 1_555 1_555
C8_10 C3_10 1_555 1_555
C9_10 C8_10 1_555 1_555
C10_10 C1_10 1_555 1_555
H7_10 C10_10 1_555 1_555
C11_10 C8_10 1_555 1_555
O3_10 C11_10 1_555 1_555
O4_10 C11_10 1_555 1_555
S2_10 C9_10 1_555 1_555
C12_10 S2_10 1_555 1_555
H8_10 C12_10 1_555 1_555
H9_10 C12_10 1_555 1_555
C13_10 C12_10 1_555 1_555
H10_10 C13_10 1_555 1_555
C14_10 C13_10 1_555 1_555
H11_10 C14_10 1_555 1_555
H12_10 C14_10 1_555 1_555
Ag6 O4_10 1_555 1_555
Ag5 O4_10 1_555 1_555
Ag9_6 O4_10 1_555 1_555
C2_10 S3_2 1_555 1_555
C9_10 C10_10 1_555 1_555
S2_10 Ag5 1_555 1_555
S2_10 Ag9_6 1_555 1_555
C1_11 C2_11 1_555 1_555
C2_11 C3_11 1_555 1_555
C3_11 H1_11 1_555 1_555
C4_11 C1_11 1_555 1_555
O5_5 C4_11 1_555 1_555
O7 C4_11 1_555 1_555
C5_11 S3 1_555 1_555
H2_11 C5_11 1_555 1_555
H3_11 C5_11 1_555 1_555
C6_11 C5_11 1_555 1_555
H4_11 C6_11 1_555 1_555
C7_11 C6_11 1_555 1_555
H5_11 C7_11 1_555 1_555
H6_11 C7_11 1_555 1_555
C8_11 C3_11 1_555 1_555
C9_11 C8_11 1_555 1_555
C10_11 C1_11 1_555 1_555
H7_11 C10_11 1_555 1_555
C11_11 C8_11 1_555 1_555
O3_11 C11_11 1_555 1_555
O4_11 C11_11 1_555 1_555
S2_11 C9_11 1_555 1_555
C12_11 S2_11 1_555 1_555
H8_11 C12_11 1_555 1_555
H9_11 C12_11 1_555 1_555
C13_11 C12_11 1_555 1_555
H10_11 C13_11 1_555 1_555
C14_11 C13_11 1_555 1_555
H11_11 C14_11 1_555 1_555
H12_11 C14_11 1_555 1_555
Ag5_3 O4_11 1_555 1_555
C2_11 S3 1_555 1_555
C9_11 C10_11 1_555 1_555
S2_11 Ag5_3 1_555 1_555
C1_12 C2_12 1_555 1_555
C2_12 C3_12 1_555 1_555
C3_12 H1_12 1_555 1_555
C4_12 C1_12 1_555 1_555
O5_4 C4_12 1_555 1_555
O7_3 C4_12 1_555 1_555
C5_12 S3_3 1_555 1_555
H2_12 C5_12 1_555 1_555
H3_12 C5_12 1_555 1_555
C6_12 C5_12 1_555 1_555
H4_12 C6_12 1_555 1_555
C7_12 C6_12 1_555 1_555
H5_12 C7_12 1_555 1_555
H6_12 C7_12 1_555 1_555
C8_12 C3_12 1_555 1_555
C9_12 C8_12 1_555 1_555
C10_12 C1_12 1_555 1_555
H7_12 C10_12 1_555 1_555
C11_12 C8_12 1_555 1_555
O3_12 C11_12 1_555 1_555
O4_12 C11_12 1_555 1_555
S2_12 C9_12 1_555 1_555
C12_12 S2_12 1_555 1_555
H8_12 C12_12 1_555 1_555
H9_12 C12_12 1_555 1_555
C13_12 C12_12 1_555 1_555
H10_12 C13_12 1_555 1_555
C14_12 C13_12 1_555 1_555
H11_12 C14_12 1_555 1_555
H12_12 C14_12 1_555 1_555
Ag5_2 O4_12 1_555 1_555
C2_12 S3_3 1_555 1_555
C9_12 C10_12 1_555 1_555
S2_12 Ag5_2 1_555 1_555
C1_13 C2_13 1_555 1_555
C2_13 C3_13 1_555 1_555
C3_13 H1_13 1_555 1_555
C4_13 C1_13 1_555 1_555
O6_9 C4_13 1_555 1_555
O8_2 C4_13 1_555 1_555
C5_13 S4_2 1_555 1_555
H2_13 C5_13 1_555 1_555
H3_13 C5_13 1_555 1_555
C6_13 C5_13 1_555 1_555
H4_13 C6_13 1_555 1_555
C7_13 C6_13 1_555 1_555
H5_13 C7_13 1_555 1_555
H6_13 C7_13 1_555 1_555
C8_13 C3_13 1_555 1_555
C9_13 C8_13 1_555 1_555
C10_13 C1_13 1_555 1_555
H7_13 C10_13 1_555 1_555
C11_13 C8_13 1_555 1_555
O3_13 C11_13 1_555 1_555
O4_13 C11_13 1_555 1_555
S2_13 C9_13 1_555 1_555
H10_13 C13_13 1_555 1_555
C14_13 C13_13 1_555 1_555
H12_13 C14_13 1_555 1_555
Ag8_3 O3_13 1_555 1_555
C2_13 S4_2 1_555 1_555
C9_13 C10_13 1_555 1_555
H8_13 C12_13 1_555 1_555
H9_13 C12_13 1_555 1_555
Ag7_4 O9_5 1_555 1_555
Ag7_4 S5_5 1_555 1_555
Ag7_5 O9_4 1_555 1_555
Ag7_5 S5_4 1_555 1_555
C1_14 C2_14 1_555 1_555
C2_14 C3_14 1_555 1_555
C3_14 H1_14 1_555 1_555
C4_14 C1_14 1_555 1_555
O6_7 C4_14 1_555 1_555
O8_3 C4_14 1_555 1_555
C5_14 S4_3 1_555 1_555
H2_14 C5_14 1_555 1_555
H3_14 C5_14 1_555 1_555
C6_14 C5_14 1_555 1_555
H4_14 C6_14 1_555 1_555
C7_14 C6_14 1_555 1_555
H5_14 C7_14 1_555 1_555
H6_14 C7_14 1_555 1_555
C8_14 C3_14 1_555 1_555
C9_14 C8_14 1_555 1_555
C10_14 C1_14 1_555 1_555
H7_14 C10_14 1_555 1_555
C11_14 C8_14 1_555 1_555
O3_14 C11_14 1_555 1_555
O4_14 C11_14 1_555 1_555
S2_14 C9_14 1_555 1_555
H10_14 C13_14 1_555 1_555
C14_14 C13_14 1_555 1_555
H12_14 C14_14 1_555 1_555
Ag6 O4_14 1_555 1_555
Ag9_6 O4_14 1_555 1_555
Ag8 O3_14 1_555 1_555
C2_14 S4_3 1_555 1_555
C9_14 C10_14 1_555 1_555
S2_14 Ag9_6 1_555 1_555
H8_14 C12_14 1_555 1_555
H9_14 C12_14 1_555 1_555
C1_15 C2_15 1_555 1_555
C2_15 C3_15 1_555 1_555
C3_15 H1_15 1_555 1_555
C4_15 C1_15 1_555 1_555
O6_8 C4_15 1_555 1_555
O8 C4_15 1_555 1_555
C5_15 S4 1_555 1_555
H2_15 C5_15 1_555 1_555
H3_15 C5_15 1_555 1_555
C6_15 C5_15 1_555 1_555
H4_15 C6_15 1_555 1_555
C7_15 C6_15 1_555 1_555
H5_15 C7_15 1_555 1_555
H6_15 C7_15 1_555 1_555
C8_15 C3_15 1_555 1_555
C9_15 C8_15 1_555 1_555
C10_15 C1_15 1_555 1_555
H7_15 C10_15 1_555 1_555
C11_15 C8_15 1_555 1_555
O3_15 C11_15 1_555 1_555
O4_15 C11_15 1_555 1_555
S2_15 C9_15 1_555 1_555
H10_15 C13_15 1_555 1_555
C14_15 C13_15 1_555 1_555
H12_15 C14_15 1_555 1_555
Ag8_2 O3_15 1_555 1_555
C2_15 S4 1_555 1_555
C9_15 C10_15 1_555 1_555
H8_15 C12_15 1_555 1_555
H9_15 C12_15 1_555 1_555
C1_16 C2_16 1_555 1_555
C2_16 C3_16 1_555 1_555
C3_16 H1_16 1_555 1_555
C4_16 C1_16 1_555 1_555
O6_6 C4_16 1_555 1_555
O9 C4_16 1_555 1_555
C5_16 S5 1_555 1_555
H2_16 C5_16 1_555 1_555
H3_16 C5_16 1_555 1_555
C6_16 C5_16 1_555 1_555
H4_16 C6_16 1_555 1_555
C7_16 C6_16 1_555 1_555
H5_16 C7_16 1_555 1_555
H6_16 C7_16 1_555 1_555
C8_16 C3_16 1_555 1_555
C9_16 C8_16 1_555 1_555
C10_16 C1_16 1_555 1_555
H7_16 C10_16 1_555 1_555
C11_16 C8_16 1_555 1_555
O3_16 C11_16 1_555 1_555
O4_16 C11_16 1_555 1_555
S2_16 C9_16 1_555 1_555
C12_16 S2_16 1_555 1_555
H8_16 C12_16 1_555 1_555
H9_16 C12_16 1_555 1_555
C13_16 C12_16 1_555 1_555
H10_16 C13_16 1_555 1_555
C14_16 C13_16 1_555 1_555
H11_16 C14_16 1_555 1_555
H12_16 C14_16 1_555 1_555
Ag5_5 O4_16 1_555 1_555
Ag8_2 O4_16 1_555 1_555
C2_16 S5 1_555 1_555
C9_16 C10_16 1_555 1_555
S2_16 Ag5_5 1_555 1_555
S2_16 Ag8_2 1_555 1_555
O5_4 Ag7_5 1_555 1_555
S1_3 Ag4_4 1_555 1_555
C1_17 C2_17 1_555 1_555
C2_17 C3_17 1_555 1_555
C3_17 H1_17 1_555 1_555
C4_17 C1_17 1_555 1_555
O6_4 C4_17 1_555 1_555
O9_3 C4_17 1_555 1_555
C5_17 S5_3 1_555 1_555
H2_17 C5_17 1_555 1_555
H3_17 C5_17 1_555 1_555
C6_17 C5_17 1_555 1_555
H4_17 C6_17 1_555 1_555
C7_17 C6_17 1_555 1_555
H5_17 C7_17 1_555 1_555
H6_17 C7_17 1_555 1_555
C8_17 C3_17 1_555 1_555
C9_17 C8_17 1_555 1_555
C10_17 C1_17 1_555 1_555
H7_17 C10_17 1_555 1_555
C11_17 C8_17 1_555 1_555
O3_17 C11_17 1_555 1_555
O4_17 C11_17 1_555 1_555
S2_17 C9_17 1_555 1_555
C12_17 S2_17 1_555 1_555
H8_17 C12_17 1_555 1_555
H9_17 C12_17 1_555 1_555
C13_17 C12_17 1_555 1_555
H10_17 C13_17 1_555 1_555
C14_17 C13_17 1_555 1_555
H11_17 C14_17 1_555 1_555
H12_17 C14_17 1_555 1_555
Ag5 O4_17 1_555 1_555
Ag5_6 O4_17 1_555 1_555
Ag8 O4_17 1_555 1_555
Ag9_6 O3_17 1_555 1_555
C2_17 S5_3 1_555 1_555
C9_17 C10_17 1_555 1_555
S2_17 Ag5_6 1_555 1_555
S2_17 Ag8 1_555 1_555
C1_18 C2_18 1_555 1_555
C2_18 C3_18 1_555 1_555
C3_18 H1_18 1_555 1_555
C4_18 C1_18 1_555 1_555
O6_5 C4_18 1_555 1_555
O9_2 C4_18 1_555 1_555
C5_18 S5_2 1_555 1_555
H2_18 C5_18 1_555 1_555
H3_18 C5_18 1_555 1_555
C6_18 C5_18 1_555 1_555
H4_18 C6_18 1_555 1_555
C7_18 C6_18 1_555 1_555
H5_18 C7_18 1_555 1_555
H6_18 C7_18 1_555 1_555
C8_18 C3_18 1_555 1_555
C9_18 C8_18 1_555 1_555
C10_18 C1_18 1_555 1_555
H7_18 C10_18 1_555 1_555
C11_18 C8_18 1_555 1_555
O3_18 C11_18 1_555 1_555
O4_18 C11_18 1_555 1_555
S2_18 C9_18 1_555 1_555
C12_18 S2_18 1_555 1_555
H8_18 C12_18 1_555 1_555
H9_18 C12_18 1_555 1_555
C13_18 C12_18 1_555 1_555
H10_18 C13_18 1_555 1_555
C14_18 C13_18 1_555 1_555
H11_18 C14_18 1_555 1_555
H12_18 C14_18 1_555 1_555
Ag5_4 O4_18 1_555 1_555
Ag8_3 O4_18 1_555 1_555
C2_18 S5_2 1_555 1_555
C9_18 C10_18 1_555 1_555
S2_18 Ag5_4 1_555 1_555
S2_18 Ag8_3 1_555 1_555
O5_6 Ag7_4 1_555 1_555
S1_2 Ag4_5 1_555 1_555
Ag6_5 Ag5_2 1_555 1_555
O4_2 Ag6_5 1_555 1_555
Ag6_5 O4_12 1_555 1_555
Ag6_4 Ag5_3 1_555 1_555
O4_3 Ag6_4 1_555 1_555
Ag6_4 O4_11 1_555 1_555
Ag6_3 O4_13 1_555 1_555
Ag6_2 O4_15 1_555 1_555
S2_11 Ag8_4 1_555 1_555
Ag8_4 O4_11 1_555 1_555
S2_12 Ag8_5 1_555 1_555
Ag8_5 O4_12 1_555 1_555
Ag9_4 O4_15 1_555 1_555
Ag9_4 S2_15 1_555 1_555
Ag9_5 O4_13 1_555 1_555
Ag9_5 S2_13 1_555 1_555
O3_18 Ag9_5 1_555 1_555
O3_16 Ag9_4 1_555 1_555

#END
