
###############################################################################
#
# This file contains modified crystal structure data generated from the
# MOF subset of the Cambridge Structural Database (CSD) v543 
# hosted by the Cambridge Crystallographic Data Centre (CCDC).
#
# This work is licensed under the Creative Commons
# Attribution-NonCommercial-ShareAlike 4.0 International License.
# To view a copy of this license, visit
# http://creativecommons.org/licenses/by-nc-sa/4.0/
# or send a letter to
# Creative Commons, PO Box 1866, Mountain View, CA 94042, USA.
#
# CIF created using the CSD Python API on 29 September 2022
# The structure has been converted into the P1 space group
# The structure has a 3D framework
# The original CSD entry BAQMUC is in the cubic crystal system
# The framework has been calculated to contain at least 10.0% void space
# The void calculation uses a probe of radius 1.32A, grid spacing 0.4
#
###############################################################################

data_BAQMUC
_chemical_formula_moiety         '(C96 H96 O144 Zn20)n'
_symmetry_cell_setting           triclinic
_symmetry_space_group_name_H-M   'P 1'
_symmetry_Int_Tables_number      1
_space_group_name_Hall           'P 1'
loop_
_symmetry_equiv_pos_site_id
_symmetry_equiv_pos_as_xyz
1 x,y,z
_cell_length_a                   16.256(3)
_cell_length_b                   16.256(3)
_cell_length_c                   16.256(3)
_cell_angle_alpha                90
_cell_angle_beta                 90
_cell_angle_gamma                90
_cell_volume                     4295.77
loop_
_atom_site_label
_atom_site_type_symbol
_atom_site_fract_x
_atom_site_fract_y
_atom_site_fract_z
Zn6 Zn 0.498139(18) 0.001861(18) 0.2500
Zn1 Zn 0.498139(18) 0.498139(18) 0.2500
O1 O 0.46149(15) 0.53699(14) 0.36320(13)
O2 O 0.38025(12) 0.48714(15) 0.19766(13)
O3 O 0.50391(15) 0.61897(13) 0.19982(13)
C1 C 0.30923(19) 0.48473(18) 0.22709(18)
C2 C 0.50090(19) 0.6906(2) 0.22808(19)
H1 H 0.466(4) 0.606(3) 0.380(3)
H2 H 0.417(2) 0.528(2) 0.373(2)
C3 C 0.27291(18) 0.48473(18) 0.30923(19)
O4 O 0.30234(13) 0.48714(15) 0.38025(12)
C4 C 0.19077(19) 0.48473(18) 0.27291(18)
O5 O 0.11975(12) 0.48714(15) 0.30234(13)
C5 C 0.22709(18) 0.48473(18) 0.19077(19)
O6 O 0.19766(13) 0.48714(15) 0.11975(12)
C6 C 0.49910(19) 0.72808(19) 0.3094(2)
O7 O 0.49609(15) 0.69982(13) 0.38103(13)
C7 C 0.50090(19) 0.8094(2) 0.27192(19)
O8 O 0.50391(15) 0.88103(13) 0.30018(13)
C8 C 0.49910(19) 0.77192(19) 0.1906(2)
O9 O 0.49609(15) 0.80018(13) 0.11897(13)
O10 O 0.53699(14) 0.46149(15) 0.13680(13)
H3 H 0.606(3) 0.466(4) 0.120(3)
H4 H 0.528(2) 0.417(2) 0.127(2)
Zn2 Zn 0.2500 0.498139(18) 0.498139(18)
O11 O 0.13680(13) 0.53699(14) 0.46149(15)
H5 H 0.120(3) 0.606(3) 0.466(4)
H6 H 0.127(2) 0.528(2) 0.417(2)
O12 O 0.36320(13) 0.46149(15) 0.53699(14)
H7 H 0.380(3) 0.466(4) 0.606(3)
H8 H 0.373(2) 0.417(2) 0.528(2)
O13 O 0.48714(15) 0.38025(12) 0.30234(13)
O14 O 0.61897(13) 0.50391(15) 0.30018(13)
Zn3 Zn 0.001861(18) 0.498139(18) 0.2500
Zn4 Zn 0.2500 0.498139(18) 0.001861(18)
Zn5 Zn 0.501861(18) 0.7500 0.501861(18)
O15 O 0.19766(13) 0.38025(12) 0.48714(15)
O16 O 0.19982(13) 0.50391(15) 0.61897(13)
O17 O 0.30018(13) 0.61897(13) 0.50391(15)
Zn7 Zn 0.501861(18) 0.7500 0.998139(18)
O2_2 O 0.01286(15) 0.38025(12) 0.19766(13)
C1_2 C 0.01527(18) 0.30923(19) 0.22709(18)
C3_2 C 0.01527(18) 0.27291(18) 0.30923(19)
O4_2 O 0.01286(15) 0.30234(13) 0.38025(12)
C4_2 C 0.01527(18) 0.19077(19) 0.27291(18)
O5_2 O 0.01286(15) 0.11975(12) 0.30234(13)
C5_2 C 0.01527(18) 0.22709(18) 0.19077(19)
O6_2 O 0.01286(15) 0.19766(13) 0.11975(12)
O10_2 O 0.03851(15) 0.53699(14) 0.13680(13)
H3_2 H 0.034(4) 0.606(3) 0.120(3)
H4_2 H 0.083(2) 0.528(2) 0.127(2)
Zn2_2 Zn 0.001861(18) 0.2500 0.498139(18)
O12_2 O 0.03851(15) 0.36320(13) 0.53699(14)
H7_2 H 0.034(4) 0.380(3) 0.606(3)
H8_2 H 0.083(2) 0.373(2) 0.528(2)
Zn3_2 Zn 0.001861(18) 0.001861(18) 0.2500
Zn4_2 Zn 0.001861(18) 0.2500 0.001861(18)
O15_2 O 0.11975(12) 0.19766(13) 0.48714(15)
O1_2 O 0.96301(14) 0.46149(15) 0.36320(13)
O3_2 O 0.88103(13) 0.50391(15) 0.19982(13)
C2_2 C 0.8094(2) 0.50090(19) 0.22808(19)
H1_2 H 0.894(3) 0.466(4) 0.380(3)
H2_2 H 0.972(2) 0.417(2) 0.373(2)
C6_2 C 0.77192(19) 0.49910(19) 0.3094(2)
O7_2 O 0.80018(13) 0.49609(15) 0.38103(13)
C7_2 C 0.6906(2) 0.50090(19) 0.27192(19)
C8_2 C 0.72808(19) 0.49910(19) 0.1906(2)
O9_2 O 0.69982(13) 0.49609(15) 0.11897(13)
O11_2 O 0.96301(14) 0.13680(13) 0.46149(15)
H5_2 H 0.894(3) 0.120(3) 0.466(4)
H6_2 H 0.972(2) 0.127(2) 0.417(2)
O14_2 O 0.99609(15) 0.61897(13) 0.30018(13)
Zn5_2 Zn 0.7500 0.501861(18) 0.501861(18)
O16_2 O 0.99609(15) 0.19982(13) 0.61897(13)
O17_2 O 0.88103(13) 0.30018(13) 0.50391(15)
Zn7_2 Zn 0.7500 0.501861(18) 0.998139(18)
O2_3 O 0.38025(12) 0.01286(15) 0.30234(13)
C1_3 C 0.30923(19) 0.01527(18) 0.27291(18)
C3_3 C 0.27291(18) 0.01527(18) 0.19077(19)
O4_3 O 0.30234(13) 0.01286(15) 0.11975(12)
C4_3 C 0.19077(19) 0.01527(18) 0.22709(18)
O5_3 O 0.11975(12) 0.01286(15) 0.19766(13)
C5_3 C 0.22709(18) 0.01527(18) 0.30923(19)
O6_3 O 0.19766(13) 0.01286(15) 0.38025(12)
O10_3 O 0.53699(14) 0.03851(15) 0.36320(13)
H3_3 H 0.606(3) 0.034(4) 0.380(3)
H4_3 H 0.528(2) 0.083(2) 0.373(2)
Zn2_3 Zn 0.2500 0.001861(18) 0.001861(18)
O13_2 O 0.48714(15) 0.11975(12) 0.19766(13)
Zn4_3 Zn 0.2500 0.001861(18) 0.498139(18)
O15_3 O 0.19766(13) 0.11975(12) 0.01286(15)
O12_3 O 0.36320(13) 0.03851(15) 0.96301(14)
H7_3 H 0.380(3) 0.034(4) 0.894(3)
H8_3 H 0.373(2) 0.083(2) 0.972(2)
O1_3 O 0.46149(15) 0.96301(14) 0.13680(13)
H1_3 H 0.466(4) 0.894(3) 0.120(3)
H2_3 H 0.417(2) 0.972(2) 0.127(2)
O11_3 O 0.13680(13) 0.96301(14) 0.03851(15)
H5_3 H 0.120(3) 0.894(3) 0.034(4)
H6_3 H 0.127(2) 0.972(2) 0.083(2)
O14_3 O 0.61897(13) 0.99609(15) 0.19982(13)
O16_3 O 0.19982(13) 0.99609(15) 0.88103(13)
O17_3 O 0.30018(13) 0.88103(13) 0.99609(15)
C1_4 C 0.22709(18) 0.30923(19) 0.48473(18)
C2_3 C 0.22808(19) 0.50090(19) 0.6906(2)
C3_4 C 0.30923(19) 0.27291(18) 0.48473(18)
O4_4 O 0.38025(12) 0.30234(13) 0.48714(15)
C4_4 C 0.27291(18) 0.19077(19) 0.48473(18)
O5_4 O 0.30234(13) 0.11975(12) 0.48714(15)
C5_4 C 0.19077(19) 0.22709(18) 0.48473(18)
C6_3 C 0.3094(2) 0.49910(19) 0.72808(19)
O7_3 O 0.38103(13) 0.49609(15) 0.69982(13)
C7_3 C 0.27192(19) 0.50090(19) 0.8094(2)
O8_2 O 0.30018(13) 0.50391(15) 0.88103(13)
C8_3 C 0.1906(2) 0.49910(19) 0.77192(19)
O9_3 O 0.11897(13) 0.49609(15) 0.80018(13)
Zn2_4 Zn 0.498139(18) 0.2500 0.498139(18)
O11_4 O 0.46149(15) 0.13680(13) 0.53699(14)
H5_4 H 0.466(4) 0.120(3) 0.606(3)
H6_4 H 0.417(2) 0.127(2) 0.528(2)
O12_4 O 0.53699(14) 0.36320(13) 0.46149(15)
H7_4 H 0.606(3) 0.380(3) 0.466(4)
H8_4 H 0.528(2) 0.373(2) 0.417(2)
Zn5_3 Zn 0.501861(18) 0.501861(18) 0.7500
O15_4 O 0.48714(15) 0.19766(13) 0.38025(12)
O16_4 O 0.61897(13) 0.19982(13) 0.50391(15)
O17_4 O 0.50391(15) 0.30018(13) 0.61897(13)
Zn7_3 Zn 0.998139(18) 0.501861(18) 0.7500
O12_5 O 0.13680(13) 0.03851(15) 0.53699(14)
H7_5 H 0.120(3) 0.034(4) 0.606(3)
H8_5 H 0.127(2) 0.083(2) 0.528(2)
O1_4 O 0.03851(15) 0.96301(14) 0.36320(13)
H1_4 H 0.034(4) 0.894(3) 0.380(3)
H2_4 H 0.083(2) 0.972(2) 0.373(2)
C6_4 C 0.00090(19) 0.77192(19) 0.3094(2)
O7_4 O 0.00391(15) 0.80018(13) 0.38103(13)
C8_4 C 0.00090(19) 0.72808(19) 0.1906(2)
O9_4 O 0.00391(15) 0.69982(13) 0.11897(13)
O11_5 O 0.36320(13) 0.96301(14) 0.46149(15)
H5_5 H 0.380(3) 0.894(3) 0.466(4)
H6_5 H 0.373(2) 0.972(2) 0.417(2)
O16_5 O 0.30018(13) 0.99609(15) 0.61897(13)
O17_5 O 0.19982(13) 0.88103(13) 0.50391(15)
O10_4 O 0.96301(14) 0.03851(15) 0.13680(13)
H3_4 H 0.894(3) 0.034(4) 0.120(3)
H4_4 H 0.972(2) 0.083(2) 0.127(2)
O3_3 O 0.99609(15) 0.88103(13) 0.19982(13)
C2_4 C 0.99910(19) 0.8094(2) 0.22808(19)
C7_4 C 0.99910(19) 0.6906(2) 0.27192(19)
O14_4 O 0.88103(13) 0.99609(15) 0.30018(13)
Zn5_4 Zn 0.998139(18) 0.7500 0.501861(18)
Zn7_4 Zn 0.998139(18) 0.7500 0.998139(18)
C1_5 C 0.48473(18) 0.30923(19) 0.27291(18)
C3_5 C 0.48473(18) 0.27291(18) 0.19077(19)
O4_5 O 0.48714(15) 0.30234(13) 0.11975(12)
C4_5 C 0.48473(18) 0.19077(19) 0.22709(18)
C5_5 C 0.48473(18) 0.22709(18) 0.30923(19)
Zn2_5 Zn 0.498139(18) 0.2500 0.001861(18)
O11_6 O 0.53699(14) 0.13680(13) 0.03851(15)
H5_6 H 0.606(3) 0.120(3) 0.034(4)
H6_6 H 0.528(2) 0.127(2) 0.083(2)
O15_5 O 0.38025(12) 0.19766(13) 0.01286(15)
O12_6 O 0.46149(15) 0.36320(13) 0.96301(14)
H7_6 H 0.466(4) 0.380(3) 0.894(3)
H8_6 H 0.417(2) 0.373(2) 0.972(2)
O16_6 O 0.50391(15) 0.19982(13) 0.88103(13)
O17_6 O 0.61897(13) 0.30018(13) 0.99609(15)
C6_5 C 0.00090(19) 0.3094(2) 0.72808(19)
O7_5 O 0.00391(15) 0.38103(13) 0.69982(13)
C8_5 C 0.00090(19) 0.1906(2) 0.77192(19)
O9_5 O 0.00391(15) 0.11897(13) 0.80018(13)
C2_5 C 0.99910(19) 0.22808(19) 0.6906(2)
C7_5 C 0.99910(19) 0.27192(19) 0.8094(2)
O8_3 O 0.99609(15) 0.30018(13) 0.88103(13)
Zn7_5 Zn 0.998139(18) 0.998139(18) 0.7500
C6_6 C 0.72808(19) 0.00090(19) 0.3094(2)
O7_6 O 0.69982(13) 0.00391(15) 0.38103(13)
C8_6 C 0.77192(19) 0.00090(19) 0.1906(2)
O9_6 O 0.80018(13) 0.00391(15) 0.11897(13)
C2_6 C 0.6906(2) 0.99910(19) 0.22808(19)
C7_6 C 0.8094(2) 0.99910(19) 0.27192(19)
Zn5_5 Zn 0.7500 0.998139(18) 0.501861(18)
Zn7_6 Zn 0.7500 0.998139(18) 0.998139(18)
O11_7 O 0.36320(13) 0.53699(14) 0.03851(15)
H5_7 H 0.380(3) 0.606(3) 0.034(4)
H6_7 H 0.373(2) 0.528(2) 0.083(2)
O15_6 O 0.30234(13) 0.38025(12) 0.01286(15)
O12_7 O 0.13680(13) 0.46149(15) 0.96301(14)
H7_7 H 0.120(3) 0.466(4) 0.894(3)
H8_7 H 0.127(2) 0.417(2) 0.972(2)
O17_7 O 0.19982(13) 0.61897(13) 0.99609(15)
C6_7 C 0.1906(2) 0.00090(19) 0.72808(19)
O7_7 O 0.11897(13) 0.00391(15) 0.69982(13)
C8_7 C 0.3094(2) 0.00090(19) 0.77192(19)
O9_7 O 0.38103(13) 0.00391(15) 0.80018(13)
C2_7 C 0.27192(19) 0.99910(19) 0.6906(2)
C7_7 C 0.22808(19) 0.99910(19) 0.8094(2)
Zn7_7 Zn 0.501861(18) 0.998139(18) 0.7500
O15_7 O 0.11975(12) 0.30234(13) 0.01286(15)
O12_8 O 0.03851(15) 0.13680(13) 0.96301(14)
H7_8 H 0.034(4) 0.120(3) 0.894(3)
H8_8 H 0.083(2) 0.127(2) 0.972(2)
O11_8 O 0.96301(14) 0.36320(13) 0.03851(15)
H5_8 H 0.894(3) 0.380(3) 0.034(4)
H6_8 H 0.972(2) 0.373(2) 0.083(2)
O17_8 O 0.88103(13) 0.19982(13) 0.99609(15)
C2_8 C 0.50090(19) 0.27192(19) 0.6906(2)
C6_8 C 0.49910(19) 0.1906(2) 0.72808(19)
O7_8 O 0.49609(15) 0.11897(13) 0.69982(13)
C7_8 C 0.50090(19) 0.22808(19) 0.8094(2)
C8_8 C 0.49910(19) 0.3094(2) 0.77192(19)
O9_8 O 0.49609(15) 0.38103(13) 0.80018(13)
C1_6 C 0.22709(18) 0.19077(19) 0.01527(18)
C3_6 C 0.30923(19) 0.22709(18) 0.01527(18)
C4_6 C 0.27291(18) 0.30923(19) 0.01527(18)
C5_6 C 0.19077(19) 0.27291(18) 0.01527(18)
C2_9 C 0.6906(2) 0.22808(19) 0.50090(19)
C6_9 C 0.72808(19) 0.3094(2) 0.49910(19)
O7_9 O 0.69982(13) 0.38103(13) 0.49609(15)
C7_9 C 0.8094(2) 0.27192(19) 0.50090(19)
C8_9 C 0.77192(19) 0.1906(2) 0.49910(19)
O9_9 O 0.80018(13) 0.11897(13) 0.49609(15)
C2_10 C 0.22808(19) 0.8094(2) 0.50090(19)
C6_10 C 0.3094(2) 0.77192(19) 0.49910(19)
O7_10 O 0.38103(13) 0.80018(13) 0.49609(15)
C7_10 C 0.27192(19) 0.6906(2) 0.50090(19)
C8_10 C 0.1906(2) 0.72808(19) 0.49910(19)
O9_10 O 0.11897(13) 0.69982(13) 0.49609(15)
C6_11 C 0.3094(2) 0.72808(19) 0.00090(19)
O7_11 O 0.38103(13) 0.69982(13) 0.00391(15)
C8_11 C 0.1906(2) 0.77192(19) 0.00090(19)
O9_11 O 0.11897(13) 0.80018(13) 0.00391(15)
C2_11 C 0.22808(19) 0.6906(2) 0.99910(19)
C7_11 C 0.27192(19) 0.8094(2) 0.99910(19)
C6_12 C 0.72808(19) 0.1906(2) 0.00090(19)
O7_12 O 0.69982(13) 0.11897(13) 0.00391(15)
C8_12 C 0.77192(19) 0.3094(2) 0.00090(19)
O9_12 O 0.80018(13) 0.38103(13) 0.00391(15)
C2_12 C 0.6906(2) 0.27192(19) 0.99910(19)
C7_12 C 0.8094(2) 0.22808(19) 0.99910(19)
O1_5 O 0.53851(15) 0.46301(14) 0.63680(13)
O2_4 O 0.61975(12) 0.51286(15) 0.80234(13)
C1_7 C 0.69077(19) 0.51527(18) 0.77291(18)
H1_5 H 0.534(4) 0.394(3) 0.620(3)
H2_5 H 0.583(2) 0.472(2) 0.627(2)
C3_7 C 0.72709(18) 0.51527(18) 0.69077(19)
O4_6 O 0.69766(13) 0.51286(15) 0.61975(12)
C4_7 C 0.80923(19) 0.51527(18) 0.72709(18)
O5_5 O 0.88025(12) 0.51286(15) 0.69766(13)
C5_7 C 0.77291(18) 0.51527(18) 0.80923(19)
O6_4 O 0.80234(13) 0.51286(15) 0.88025(12)
O10_5 O 0.46301(14) 0.53851(15) 0.86320(13)
H3_5 H 0.394(3) 0.534(4) 0.880(3)
H4_5 H 0.472(2) 0.583(2) 0.873(2)
O11_9 O 0.86320(13) 0.46301(14) 0.53851(15)
H5_9 H 0.880(3) 0.394(3) 0.534(4)
H6_9 H 0.873(2) 0.472(2) 0.583(2)
O12_9 O 0.63680(13) 0.53851(15) 0.46301(14)
H7_9 H 0.620(3) 0.534(4) 0.394(3)
H8_9 H 0.627(2) 0.583(2) 0.472(2)
O13_3 O 0.51286(15) 0.61975(12) 0.69766(13)
O15_8 O 0.80234(13) 0.61975(12) 0.51286(15)
O1_6 O 0.03699(14) 0.53851(15) 0.63680(13)
H1_6 H 0.106(3) 0.534(4) 0.620(3)
H2_6 H 0.028(2) 0.583(2) 0.627(2)
O11_10 O 0.03699(14) 0.86320(13) 0.53851(15)
H5_10 H 0.106(3) 0.880(3) 0.534(4)
H6_10 H 0.028(2) 0.873(2) 0.583(2)
O2_5 O 0.98714(15) 0.61975(12) 0.80234(13)
C1_8 C 0.98473(18) 0.69077(19) 0.77291(18)
C3_8 C 0.98473(18) 0.72709(18) 0.69077(19)
O4_7 O 0.98714(15) 0.69766(13) 0.61975(12)
C4_8 C 0.98473(18) 0.80923(19) 0.72709(18)
O5_6 O 0.98714(15) 0.88025(12) 0.69766(13)
C5_8 C 0.98473(18) 0.77291(18) 0.80923(19)
O6_5 O 0.98714(15) 0.80234(13) 0.88025(12)
O10_6 O 0.96149(15) 0.46301(14) 0.86320(13)
H3_6 H 0.966(4) 0.394(3) 0.880(3)
H4_6 H 0.917(2) 0.472(2) 0.873(2)
O12_10 O 0.96149(15) 0.63680(13) 0.46301(14)
H7_10 H 0.966(4) 0.620(3) 0.394(3)
H8_10 H 0.917(2) 0.627(2) 0.472(2)
O15_9 O 0.88025(12) 0.80234(13) 0.51286(15)
O1_7 O 0.53851(15) 0.03699(14) 0.86320(13)
H1_7 H 0.534(4) 0.106(3) 0.880(3)
H2_7 H 0.583(2) 0.028(2) 0.873(2)
O11_11 O 0.86320(13) 0.03699(14) 0.96149(15)
H5_11 H 0.880(3) 0.106(3) 0.966(4)
H6_11 H 0.873(2) 0.028(2) 0.917(2)
O12_11 O 0.63680(13) 0.96149(15) 0.03699(14)
H7_11 H 0.620(3) 0.966(4) 0.106(3)
H8_11 H 0.627(2) 0.917(2) 0.028(2)
O2_6 O 0.61975(12) 0.98714(15) 0.69766(13)
C1_9 C 0.69077(19) 0.98473(18) 0.72709(18)
C3_9 C 0.72709(18) 0.98473(18) 0.80923(19)
O4_8 O 0.69766(13) 0.98714(15) 0.88025(12)
C4_9 C 0.80923(19) 0.98473(18) 0.77291(18)
O5_7 O 0.88025(12) 0.98714(15) 0.80234(13)
C5_9 C 0.77291(18) 0.98473(18) 0.69077(19)
O6_6 O 0.80234(13) 0.98714(15) 0.61975(12)
O10_7 O 0.46301(14) 0.96149(15) 0.63680(13)
H3_7 H 0.394(3) 0.966(4) 0.620(3)
H4_7 H 0.472(2) 0.917(2) 0.627(2)
O13_4 O 0.51286(15) 0.88025(12) 0.80234(13)
O15_10 O 0.80234(13) 0.88025(12) 0.98714(15)
C1_10 C 0.77291(18) 0.69077(19) 0.51527(18)
C3_10 C 0.69077(19) 0.72709(18) 0.51527(18)
O4_9 O 0.61975(12) 0.69766(13) 0.51286(15)
C4_10 C 0.72709(18) 0.80923(19) 0.51527(18)
O5_8 O 0.69766(13) 0.88025(12) 0.51286(15)
C5_10 C 0.80923(19) 0.77291(18) 0.51527(18)
O11_12 O 0.53851(15) 0.86320(13) 0.46301(14)
H5_12 H 0.534(4) 0.880(3) 0.394(3)
H6_12 H 0.583(2) 0.873(2) 0.472(2)
O12_12 O 0.46301(14) 0.63680(13) 0.53851(15)
H7_12 H 0.394(3) 0.620(3) 0.534(4)
H8_12 H 0.472(2) 0.627(2) 0.583(2)
O15_11 O 0.51286(15) 0.80234(13) 0.61975(12)
O10_8 O 0.03699(14) 0.96149(15) 0.86320(13)
H3_8 H 0.106(3) 0.966(4) 0.880(3)
H4_8 H 0.028(2) 0.917(2) 0.873(2)
O1_8 O 0.96149(15) 0.03699(14) 0.63680(13)
H1_8 H 0.966(4) 0.106(3) 0.620(3)
H2_8 H 0.917(2) 0.028(2) 0.627(2)
O11_13 O 0.63680(13) 0.03699(14) 0.53851(15)
H5_13 H 0.620(3) 0.106(3) 0.534(4)
H6_13 H 0.627(2) 0.028(2) 0.583(2)
O12_13 O 0.86320(13) 0.96149(15) 0.46301(14)
H7_13 H 0.880(3) 0.966(4) 0.394(3)
H8_13 H 0.873(2) 0.917(2) 0.472(2)
O12_14 O 0.53851(15) 0.63680(13) 0.03699(14)
H7_14 H 0.534(4) 0.620(3) 0.106(3)
H8_14 H 0.583(2) 0.627(2) 0.028(2)
C1_11 C 0.51527(18) 0.69077(19) 0.72709(18)
C3_11 C 0.51527(18) 0.72709(18) 0.80923(19)
O4_10 O 0.51286(15) 0.69766(13) 0.88025(12)
C4_11 C 0.51527(18) 0.80923(19) 0.77291(18)
C5_11 C 0.51527(18) 0.77291(18) 0.69077(19)
O11_14 O 0.46301(14) 0.86320(13) 0.96149(15)
H5_14 H 0.394(3) 0.880(3) 0.966(4)
H6_14 H 0.472(2) 0.873(2) 0.917(2)
O15_12 O 0.61975(12) 0.80234(13) 0.98714(15)
O12_15 O 0.86320(13) 0.53851(15) 0.03699(14)
H7_15 H 0.880(3) 0.534(4) 0.106(3)
H8_15 H 0.873(2) 0.583(2) 0.028(2)
O11_15 O 0.63680(13) 0.46301(14) 0.96149(15)
H5_15 H 0.620(3) 0.394(3) 0.966(4)
H6_15 H 0.627(2) 0.472(2) 0.917(2)
O15_13 O 0.69766(13) 0.61975(12) 0.98714(15)
O11_16 O 0.03699(14) 0.63680(13) 0.96149(15)
H5_16 H 0.106(3) 0.620(3) 0.966(4)
H6_16 H 0.028(2) 0.627(2) 0.917(2)
O12_16 O 0.96149(15) 0.86320(13) 0.03699(14)
H7_16 H 0.966(4) 0.880(3) 0.106(3)
H8_16 H 0.917(2) 0.873(2) 0.028(2)
O15_14 O 0.88025(12) 0.69766(13) 0.98714(15)
C1_12 C 0.77291(18) 0.80923(19) 0.98473(18)
C3_12 C 0.69077(19) 0.77291(18) 0.98473(18)
C4_12 C 0.72709(18) 0.69077(19) 0.98473(18)
C5_12 C 0.80923(19) 0.72709(18) 0.98473(18)
loop_
_geom_bond_atom_site_label_1
_geom_bond_atom_site_label_2
_geom_bond_site_symmetry_1
_geom_bond_site_symmetry_2
Zn1 O1 1_555 1_555
O1 H1 1_555 1_555
O2 Zn1 1_555 1_555
O3 Zn1 1_555 1_555
C1 O2 1_555 1_555
C2 O3 1_555 1_555
H2 O1 1_555 1_555
C3 C1 1_555 1_555
O4 C3 1_555 1_555
C4 C3 1_555 1_555
O5 C4 1_555 1_555
C5 C1 1_555 1_555
O6 C5 1_555 1_555
C6 C2 1_555 1_555
O7 C6 1_555 1_555
C7 C6 1_555 1_555
O8 C7 1_555 1_555
C8 C2 1_555 1_555
O9 C8 1_555 1_555
O10 Zn1 1_555 1_555
H3 O10 1_555 1_555
H4 O10 1_555 1_555
Zn2 O4 1_555 1_555
O11 Zn2 1_555 1_555
H5 O11 1_555 1_555
H6 O11 1_555 1_555
O12 Zn2 1_555 1_555
H7 O12 1_555 1_555
H8 O12 1_555 1_555
O13 Zn1 1_555 1_555
O14 Zn1 1_555 1_555
Zn3 O5 1_555 1_555
Zn4 O6 1_555 1_555
Zn5 O7 1_555 1_555
O15 Zn2 1_555 1_555
O16 Zn2 1_555 1_555
O17 Zn2 1_555 1_555
C4 C5 1_555 1_555
C7 C8 1_555 1_555
O2_2 Zn3 1_555 1_555
C1_2 O2_2 1_555 1_555
C3_2 C1_2 1_555 1_555
O4_2 C3_2 1_555 1_555
C4_2 C3_2 1_555 1_555
O5_2 C4_2 1_555 1_555
C5_2 C1_2 1_555 1_555
O6_2 C5_2 1_555 1_555
O10_2 Zn3 1_555 1_555
H3_2 O10_2 1_555 1_555
H4_2 O10_2 1_555 1_555
Zn2_2 O4_2 1_555 1_555
O12_2 Zn2_2 1_555 1_555
H7_2 O12_2 1_555 1_555
H8_2 O12_2 1_555 1_555
Zn3_2 O5_2 1_555 1_555
Zn4_2 O6_2 1_555 1_555
O15_2 Zn2_2 1_555 1_555
C4_2 C5_2 1_555 1_555
O1_2 H1_2 1_555 1_555
C2_2 O3_2 1_555 1_555
H2_2 O1_2 1_555 1_555
C6_2 C2_2 1_555 1_555
O7_2 C6_2 1_555 1_555
C7_2 C6_2 1_555 1_555
O14 C7_2 1_555 1_555
C8_2 C2_2 1_555 1_555
O9_2 C8_2 1_555 1_555
H5_2 O11_2 1_555 1_555
H6_2 O11_2 1_555 1_555
Zn5_2 O7_2 1_555 1_555
C7_2 C8_2 1_555 1_555
O2_3 Zn6 1_555 1_555
C1_3 O2_3 1_555 1_555
C3_3 C1_3 1_555 1_555
O4_3 C3_3 1_555 1_555
C4_3 C3_3 1_555 1_555
O5_3 C4_3 1_555 1_555
C5_3 C1_3 1_555 1_555
O6_3 C5_3 1_555 1_555
O10_3 Zn6 1_555 1_555
H3_3 O10_3 1_555 1_555
H4_3 O10_3 1_555 1_555
Zn2_3 O4_3 1_555 1_555
O13_2 Zn6 1_555 1_555
Zn3_2 O5_3 1_555 1_555
Zn4_3 O6_3 1_555 1_555
O15_3 Zn2_3 1_555 1_555
C4_3 C5_3 1_555 1_555
H7_3 O12_3 1_555 1_555
H8_3 O12_3 1_555 1_555
O1_3 H1_3 1_555 1_555
H2_3 O1_3 1_555 1_555
H5_3 O11_3 1_555 1_555
H6_3 O11_3 1_555 1_555
C1_4 O15 1_555 1_555
C2_3 O16 1_555 1_555
C3_4 C1_4 1_555 1_555
O4_4 C3_4 1_555 1_555
C4_4 C3_4 1_555 1_555
O5_4 C4_4 1_555 1_555
C5_4 C1_4 1_555 1_555
O15_2 C5_4 1_555 1_555
C6_3 C2_3 1_555 1_555
O7_3 C6_3 1_555 1_555
C7_3 C6_3 1_555 1_555
O8_2 C7_3 1_555 1_555
C8_3 C2_3 1_555 1_555
O9_3 C8_3 1_555 1_555
Zn2_4 O4_4 1_555 1_555
O11_4 Zn2_4 1_555 1_555
H5_4 O11_4 1_555 1_555
H6_4 O11_4 1_555 1_555
O12_4 Zn2_4 1_555 1_555
H7_4 O12_4 1_555 1_555
H8_4 O12_4 1_555 1_555
Zn4_3 O5_4 1_555 1_555
Zn5_3 O7_3 1_555 1_555
O15_4 Zn2_4 1_555 1_555
O16_4 Zn2_4 1_555 1_555
O17_4 Zn2_4 1_555 1_555
C4_4 C5_4 1_555 1_555
C7_3 C8_3 1_555 1_555
O12_5 Zn4_3 1_555 1_555
H7_5 O12_5 1_555 1_555
H8_5 O12_5 1_555 1_555
O1_4 H1_4 1_555 1_555
H2_4 O1_4 1_555 1_555
O7_4 C6_4 1_555 1_555
O9_4 C8_4 1_555 1_555
H5_5 O11_5 1_555 1_555
H6_5 O11_5 1_555 1_555
H3_4 O10_4 1_555 1_555
H4_4 O10_4 1_555 1_555
C2_4 O3_3 1_555 1_555
O14_2 C7_4 1_555 1_555
C1_5 O13 1_555 1_555
C3_5 C1_5 1_555 1_555
O4_5 C3_5 1_555 1_555
C4_5 C3_5 1_555 1_555
O13_2 C4_5 1_555 1_555
C5_5 C1_5 1_555 1_555
O15_4 C5_5 1_555 1_555
Zn2_5 O4_5 1_555 1_555
O11_6 Zn2_5 1_555 1_555
H5_6 O11_6 1_555 1_555
H6_6 O11_6 1_555 1_555
O15_5 Zn2_5 1_555 1_555
C4_5 C5_5 1_555 1_555
H7_6 O12_6 1_555 1_555
H8_6 O12_6 1_555 1_555
O7_5 C6_5 1_555 1_555
O9_5 C8_5 1_555 1_555
C2_5 O16_2 1_555 1_555
O8_3 C7_5 1_555 1_555
O7_6 C6_6 1_555 1_555
O9_6 C8_6 1_555 1_555
C2_6 O14_3 1_555 1_555
O14_4 C7_6 1_555 1_555
O11_7 Zn4 1_555 1_555
H5_7 O11_7 1_555 1_555
H6_7 O11_7 1_555 1_555
O15_6 Zn4 1_555 1_555
H7_7 O12_7 1_555 1_555
H8_7 O12_7 1_555 1_555
O7_7 C6_7 1_555 1_555
O9_7 C8_7 1_555 1_555
C2_7 O16_5 1_555 1_555
O16_3 C7_7 1_555 1_555
O15_7 Zn4_2 1_555 1_555
H7_8 O12_8 1_555 1_555
H8_8 O12_8 1_555 1_555
H5_8 O11_8 1_555 1_555
H6_8 O11_8 1_555 1_555
C2_8 O17_4 1_555 1_555
C6_8 C2_8 1_555 1_555
O7_8 C6_8 1_555 1_555
C7_8 C6_8 1_555 1_555
O16_6 C7_8 1_555 1_555
C8_8 C2_8 1_555 1_555
O9_8 C8_8 1_555 1_555
Zn5_3 O9_8 1_555 1_555
C7_8 C8_8 1_555 1_555
C1_6 O15_3 1_555 1_555
C3_6 C1_6 1_555 1_555
O15_5 C3_6 1_555 1_555
C4_6 C3_6 1_555 1_555
O15_6 C4_6 1_555 1_555
C5_6 C1_6 1_555 1_555
O15_7 C5_6 1_555 1_555
C4_6 C5_6 1_555 1_555
C2_9 O16_4 1_555 1_555
C6_9 C2_9 1_555 1_555
O7_9 C6_9 1_555 1_555
C7_9 C6_9 1_555 1_555
O17_2 C7_9 1_555 1_555
C8_9 C2_9 1_555 1_555
O9_9 C8_9 1_555 1_555
Zn5_2 O7_9 1_555 1_555
C7_9 C8_9 1_555 1_555
C2_10 O17_5 1_555 1_555
C6_10 C2_10 1_555 1_555
O7_10 C6_10 1_555 1_555
C7_10 C6_10 1_555 1_555
O17 C7_10 1_555 1_555
C8_10 C2_10 1_555 1_555
O9_10 C8_10 1_555 1_555
Zn5 O7_10 1_555 1_555
C7_10 C8_10 1_555 1_555
O7_11 C6_11 1_555 1_555
O9_11 C8_11 1_555 1_555
C2_11 O17_7 1_555 1_555
O17_3 C7_11 1_555 1_555
O7_12 C6_12 1_555 1_555
O9_12 C8_12 1_555 1_555
C2_12 O17_6 1_555 1_555
O17_8 C7_12 1_555 1_555
Zn5_3 O1_5 1_555 1_555
O1_5 H1_5 1_555 1_555
O2_4 Zn5_3 1_555 1_555
C1_7 O2_4 1_555 1_555
H2_5 O1_5 1_555 1_555
C3_7 C1_7 1_555 1_555
O4_6 C3_7 1_555 1_555
C4_7 C3_7 1_555 1_555
O5_5 C4_7 1_555 1_555
C5_7 C1_7 1_555 1_555
O6_4 C5_7 1_555 1_555
O10_5 Zn5_3 1_555 1_555
H3_5 O10_5 1_555 1_555
H4_5 O10_5 1_555 1_555
Zn5_2 O4_6 1_555 1_555
O11_9 Zn5_2 1_555 1_555
H5_9 O11_9 1_555 1_555
H6_9 O11_9 1_555 1_555
O12_9 Zn5_2 1_555 1_555
H7_9 O12_9 1_555 1_555
H8_9 O12_9 1_555 1_555
O13_3 Zn5_3 1_555 1_555
Zn7_3 O5_5 1_555 1_555
Zn7_2 O6_4 1_555 1_555
O15_8 Zn5_2 1_555 1_555
C4_7 C5_7 1_555 1_555
O1_6 H1_6 1_555 1_555
H2_6 O1_6 1_555 1_555
H5_10 O11_10 1_555 1_555
H6_10 O11_10 1_555 1_555
O2_5 Zn7_3 1_555 1_555
C1_8 O2_5 1_555 1_555
C3_8 C1_8 1_555 1_555
O4_7 C3_8 1_555 1_555
C4_8 C3_8 1_555 1_555
O5_6 C4_8 1_555 1_555
C5_8 C1_8 1_555 1_555
O6_5 C5_8 1_555 1_555
O10_6 Zn7_3 1_555 1_555
H3_6 O10_6 1_555 1_555
H4_6 O10_6 1_555 1_555
Zn5_4 O4_7 1_555 1_555
O12_10 Zn5_4 1_555 1_555
H7_10 O12_10 1_555 1_555
H8_10 O12_10 1_555 1_555
Zn7_5 O5_6 1_555 1_555
Zn7_4 O6_5 1_555 1_555
O15_9 Zn5_4 1_555 1_555
C4_8 C5_8 1_555 1_555
O1_7 H1_7 1_555 1_555
H2_7 O1_7 1_555 1_555
H5_11 O11_11 1_555 1_555
H6_11 O11_11 1_555 1_555
H7_11 O12_11 1_555 1_555
H8_11 O12_11 1_555 1_555
O2_6 Zn7_7 1_555 1_555
C1_9 O2_6 1_555 1_555
C3_9 C1_9 1_555 1_555
O4_8 C3_9 1_555 1_555
C4_9 C3_9 1_555 1_555
O5_7 C4_9 1_555 1_555
C5_9 C1_9 1_555 1_555
O6_6 C5_9 1_555 1_555
O10_7 Zn7_7 1_555 1_555
H3_7 O10_7 1_555 1_555
H4_7 O10_7 1_555 1_555
Zn7_6 O4_8 1_555 1_555
O13_4 Zn7_7 1_555 1_555
Zn7_5 O5_7 1_555 1_555
Zn5_5 O6_6 1_555 1_555
O15_10 Zn7_6 1_555 1_555
C4_9 C5_9 1_555 1_555
C1_10 O15_8 1_555 1_555
C3_10 C1_10 1_555 1_555
O4_9 C3_10 1_555 1_555
C4_10 C3_10 1_555 1_555
O5_8 C4_10 1_555 1_555
C5_10 C1_10 1_555 1_555
O15_9 C5_10 1_555 1_555
Zn5 O4_9 1_555 1_555
O11_12 Zn5 1_555 1_555
H5_12 O11_12 1_555 1_555
H6_12 O11_12 1_555 1_555
O12_12 Zn5 1_555 1_555
H7_12 O12_12 1_555 1_555
H8_12 O12_12 1_555 1_555
Zn5_5 O5_8 1_555 1_555
O15_11 Zn5 1_555 1_555
C4_10 C5_10 1_555 1_555
H3_8 O10_8 1_555 1_555
H4_8 O10_8 1_555 1_555
O1_8 H1_8 1_555 1_555
H2_8 O1_8 1_555 1_555
H5_13 O11_13 1_555 1_555
H6_13 O11_13 1_555 1_555
O12_13 Zn5_5 1_555 1_555
H7_13 O12_13 1_555 1_555
H8_13 O12_13 1_555 1_555
H7_14 O12_14 1_555 1_555
H8_14 O12_14 1_555 1_555
C1_11 O13_3 1_555 1_555
C3_11 C1_11 1_555 1_555
O4_10 C3_11 1_555 1_555
C4_11 C3_11 1_555 1_555
O13_4 C4_11 1_555 1_555
C5_11 C1_11 1_555 1_555
O15_11 C5_11 1_555 1_555
Zn7 O4_10 1_555 1_555
O11_14 Zn7 1_555 1_555
H5_14 O11_14 1_555 1_555
H6_14 O11_14 1_555 1_555
O15_12 Zn7 1_555 1_555
C4_11 C5_11 1_555 1_555
H7_15 O12_15 1_555 1_555
H8_15 O12_15 1_555 1_555
O11_15 Zn7_2 1_555 1_555
H5_15 O11_15 1_555 1_555
H6_15 O11_15 1_555 1_555
O15_13 Zn7_2 1_555 1_555
H5_16 O11_16 1_555 1_555
H6_16 O11_16 1_555 1_555
H7_16 O12_16 1_555 1_555
H8_16 O12_16 1_555 1_555
O15_14 Zn7_4 1_555 1_555
C1_12 O15_10 1_555 1_555
C3_12 C1_12 1_555 1_555
O15_12 C3_12 1_555 1_555
C4_12 C3_12 1_555 1_555
O15_13 C4_12 1_555 1_555
C5_12 C1_12 1_555 1_555
O15_14 C5_12 1_555 1_555
C4_12 C5_12 1_555 1_555

#END
