
###############################################################################
#
# This file contains modified crystal structure data generated from the
# MOF subset of the Cambridge Structural Database (CSD) v543 
# hosted by the Cambridge Crystallographic Data Centre (CCDC).
#
# This work is licensed under the Creative Commons
# Attribution-NonCommercial-ShareAlike 4.0 International License.
# To view a copy of this license, visit
# http://creativecommons.org/licenses/by-nc-sa/4.0/
# or send a letter to
# Creative Commons, PO Box 1866, Mountain View, CA 94042, USA.
#
# CIF created using the CSD Python API on 29 September 2022
# The structure has been converted into the P1 space group
# The structure has a 3D framework
# The original CSD entry BARKUD is in the trigonal crystal system
# The original CSD entry BARKUD is in a Sohncke space group
# The framework has been calculated to contain at least 10.0% void space
# The void calculation uses a probe of radius 1.32A, grid spacing 0.4
# The framework is charged, counterions have been retained in the structure
#
###############################################################################

data_BARKUD
_chemical_formula_moiety         '(C54 H18 Cu6 N12 O24 6-)n'
_symmetry_cell_setting           triclinic
_symmetry_space_group_name_H-M   'P 1'
_symmetry_Int_Tables_number      1
_space_group_name_Hall           'P 1'
loop_
_symmetry_equiv_pos_site_id
_symmetry_equiv_pos_as_xyz
1 x,y,z
_cell_length_a                   17.7551(15)
_cell_length_b                   17.7551(15)
_cell_length_c                   9.6219(5)
_cell_angle_alpha                90
_cell_angle_beta                 90
_cell_angle_gamma                120
_cell_volume                     2626.86
loop_
_atom_site_label
_atom_site_type_symbol
_atom_site_fract_x
_atom_site_fract_y
_atom_site_fract_z
O1 O 0.1135(2) 0.5446(3) 0.6396(3)
O3 O 0.2073(3) 0.4974(3) 0.6561(3)
N1 N 0.2069(3) 0.5529(3) 0.0053(4)
N2 N 0.3173(3) 0.5577(3) 0.1301(4)
C1 C 0.2417(4) 0.5312(4) 0.3667(4)
H1 H 0.285821 0.531561 0.419332
C2 C 0.1846(4) 0.5423(4) 0.1460(5)
C3 C 0.1104(4) 0.5333(4) 0.2082(4)
H2 H 0.067644 0.535064 0.154748
C4 C 0.1000(4) 0.5217(4) 0.3508(5)
C5 C 0.1658(4) 0.5189(4) 0.4289(5)
C6 C 0.2860(4) 0.5621(4) 0.0067(5)
C7 C 0.1609(4) 0.5177(4) 0.5858(5)
C8 C 0.2500(4) 0.5430(4) 0.2218(4)
C9 C 0.0135(4) 0.5008(4) 0.4103(5)
Cu2 Cu 0.43823(7) 0.58810(5) 0.16951(5)
Cu4 Cu 0.14987(5) 0.56177(7) 0.83617(5)
H3 H 0.317767 0.571075 0.925442
Cu1 Cu 0.85013(5) 0.41190(5) 0.49716(5)
O2 O 0.9638(3) 0.4246(3) 0.4451(3)
O4 O 0.9931(3) 0.5587(3) 0.4092(3)
O5 O 0.8865(2) 0.4311(4) 0.6937(3)
O6 O 0.7927(3) 0.2901(4) 0.6772(3)
N3 N 0.7931(3) 0.3460(4) 0.3280(4)
N4 N 0.7596(4) 0.4423(3) 0.5366(4)
O5_2 O 0.5689(4) 0.4554(4) 0.0271(3)
O6_2 O 0.7099(4) 0.5026(5) 0.0106(3)
Cu1_2 Cu 0.58810(5) 0.43823(7) 0.83049(5)
O1_2 O 0.4554(3) 0.5689(4) 0.9729(3)
O2_2 O 0.5754(3) 0.5392(4) 0.7784(3)
O3_2 O 0.5026(3) 0.7099(4) 0.9894(3)
O4_2 O 0.4413(3) 0.4344(4) 0.7425(3)
N1_2 N 0.4471(3) 0.6540(4) 0.3386(4)
N2_2 N 0.4423(3) 0.7596(4) 0.4634(4)
C1_2 C 0.4688(4) 0.7105(6) 0.7000(4)
H1_2 H 0.468439 0.754260 0.752665
C2_2 C 0.4577(4) 0.6423(6) 0.4793(5)
C3_2 C 0.4667(4) 0.5771(6) 0.5415(4)
H2_2 H 0.464936 0.532580 0.488081
C4_2 C 0.4783(4) 0.5783(6) 0.6841(5)
C5_2 C 0.4811(4) 0.6469(6) 0.7622(5)
C6_2 C 0.4379(4) 0.7239(6) 0.3400(5)
H3_2 H 0.428925 0.746692 0.258775
C7_2 C 0.4823(4) 0.6432(6) 0.9191(5)
C8_2 C 0.4570(4) 0.7070(6) 0.5551(4)
C9_2 C 0.4992(4) 0.5127(6) 0.7436(5)
Cu2_2 Cu 0.41190(5) 0.85013(9) 0.50284(5)
N3_2 N 0.6540(4) 0.4471(5) 0.6614(4)
N4_2 N 0.5577(3) 0.3173(5) 0.8699(4)
Cu1_3 Cu 0.56177(7) 0.14987(5) 0.16383(5)
O2_3 O 0.4608(4) 0.0362(3) 0.1118(3)
O4_3 O 0.5656(4) 0.0069(3) 0.0759(3)
O5_3 O 0.5446(4) 0.1135(2) 0.3604(3)
O6_3 O 0.4974(5) 0.2073(3) 0.3439(3)
N4_3 N 0.6827(5) 0.2404(4) 0.2032(4)
N3_3 N 0.5529(5) 0.2069(3) 0.9947(4)
O1_3 O 0.4311(4) 0.8865(2) 0.3063(3)
O3_3 O 0.2901(4) 0.7927(3) 0.3228(3)
C1_3 C 0.2895(6) 0.7583(4) 0.0334(4)
H1_3 H 0.245740 0.714179 0.085999
C4_3 C 0.4217(6) 0.9000(4) 0.0175(5)
C5_3 C 0.3531(6) 0.8342(4) 0.0956(5)
C7_3 C 0.3568(6) 0.8391(4) 0.2525(5)
C9_3 C 0.4873(6) 0.9865(4) 0.0770(5)
N1_3 N 0.3460(4) 0.7931(3) 0.6720(4)
N2_3 N 0.2404(4) 0.6827(3) 0.7968(4)
C2_3 C 0.3577(6) 0.8154(4) 0.8127(5)
C3_3 C 0.4229(6) 0.8896(4) 0.8749(4)
H2_3 H 0.467420 0.932356 0.821415
C6_3 C 0.2761(6) 0.7140(4) 0.6734(5)
H3_3 H 0.253308 0.682233 0.592109
C8_3 C 0.2930(6) 0.7500(4) 0.8885(4)
H3_4 H 0.571075 0.317767 0.074558
C1_4 C 0.5312(4) 0.2417(4) 0.6333(4)
H1_4 H 0.531561 0.285821 0.580668
C2_4 C 0.5423(4) 0.1846(4) 0.8540(5)
C3_4 C 0.5333(4) 0.1104(4) 0.7918(4)
H2_4 H 0.535064 0.067644 0.845252
C4_4 C 0.5217(4) 0.1000(4) 0.6492(5)
C5_4 C 0.5189(4) 0.1658(4) 0.5711(5)
C6_4 C 0.5621(4) 0.2860(4) 0.9933(5)
C7_4 C 0.5177(4) 0.1609(4) 0.4142(5)
C8_4 C 0.5430(4) 0.2500(4) 0.7782(4)
C9_4 C 0.5008(4) 0.0135(4) 0.5897(5)
O2_4 O 0.4246(3) 0.9638(3) 0.5549(3)
O4_4 O 0.5587(3) 0.9931(3) 0.5908(3)
O2_5 O 0.5392(4) 0.5754(3) 0.2216(3)
O4_5 O 0.4344(4) 0.4413(3) 0.2575(3)
C1_5 C 0.7105(6) 0.4688(4) 0.3000(4)
H1_5 H 0.754260 0.468439 0.247335
C2_5 C 0.6423(6) 0.4577(4) 0.5207(5)
C3_5 C 0.5771(6) 0.4667(4) 0.4585(4)
H2_5 H 0.532580 0.464936 0.511919
C4_5 C 0.5783(6) 0.4783(4) 0.3159(5)
C5_5 C 0.6469(6) 0.4811(4) 0.2378(5)
C6_5 C 0.7239(6) 0.4379(4) 0.6600(5)
H3_5 H 0.746692 0.428925 0.741225
C7_5 C 0.6432(6) 0.4823(4) 0.0809(5)
C8_5 C 0.7070(6) 0.4570(4) 0.4449(4)
C9_5 C 0.5127(6) 0.4992(4) 0.2564(5)
O2_6 O 0.0362(3) 0.4608(4) 0.8882(3)
O4_6 O 0.0069(3) 0.5656(4) 0.9241(3)
C2_6 C 0.8154(4) 0.3577(6) 0.1873(5)
C3_6 C 0.8896(4) 0.4229(6) 0.1251(4)
H2_6 H 0.932356 0.467420 0.178585
C6_6 C 0.7140(4) 0.2761(6) 0.3266(5)
H3_6 H 0.682233 0.253308 0.407891
C8_6 C 0.7500(4) 0.2930(6) 0.1115(4)
C1_6 C 0.7583(4) 0.2895(6) 0.9666(4)
H1_6 H 0.714179 0.245740 0.914001
C4_6 C 0.9000(4) 0.4217(6) 0.9825(5)
C5_6 C 0.8342(4) 0.3531(6) 0.9044(5)
C7_6 C 0.8391(4) 0.3568(6) 0.7475(5)
C9_6 C 0.9865(4) 0.4873(6) 0.9230(5)
loop_
_geom_bond_atom_site_label_1
_geom_bond_atom_site_label_2
_geom_bond_site_symmetry_1
_geom_bond_site_symmetry_2
O1 C7 1_555 1_555
O3 C7 1_555 1_555
N1 C2 1_555 1_555
N2 C6 1_555 1_555
C1 H1 1_555 1_555
C2 C3 1_555 1_555
C3 H2 1_555 1_555
C4 C3 1_555 1_555
C5 C1 1_555 1_555
C6 N1 1_555 1_555
C7 C5 1_555 1_555
C8 N2 1_555 1_555
Cu2 N2 1_555 1_555
Cu4 O1 1_555 1_555
O3 Cu4 1_555 1_555
C1 C8 1_555 1_555
C2 C8 1_555 1_555
C4 C5 1_555 1_555
C4 C9 1_555 1_555
Cu1 O2 1_555 1_555
O4 Cu1 1_555 1_555
O5 Cu1 1_555 1_555
O6 Cu1 1_555 1_555
N3 Cu1 1_555 1_555
N4 Cu1 1_555 1_555
Cu1_2 O2_2 1_555 1_555
O1_2 C7_2 1_555 1_555
O2_2 C9_2 1_555 1_555
O3_2 C7_2 1_555 1_555
O4_2 Cu1_2 1_555 1_555
N1_2 C2_2 1_555 1_555
N2_2 C6_2 1_555 1_555
C1_2 H1_2 1_555 1_555
C2_2 C3_2 1_555 1_555
C3_2 H2_2 1_555 1_555
C4_2 C3_2 1_555 1_555
C5_2 C1_2 1_555 1_555
C6_2 N1_2 1_555 1_555
H3_2 C6_2 1_555 1_555
C7_2 C5_2 1_555 1_555
C8_2 N2_2 1_555 1_555
C9_2 O4_2 1_555 1_555
Cu2_2 N2_2 1_555 1_555
Cu2 N1_2 1_555 1_555
N3_2 Cu1_2 1_555 1_555
N4_2 Cu1_2 1_555 1_555
C1_2 C8_2 1_555 1_555
C2_2 C8_2 1_555 1_555
C4_2 C5_2 1_555 1_555
C4_2 C9_2 1_555 1_555
Cu1_3 O2_3 1_555 1_555
O4_3 Cu1_3 1_555 1_555
O5_3 Cu1_3 1_555 1_555
O6_3 Cu1_3 1_555 1_555
N4_3 Cu1_3 1_555 1_555
O1_3 C7_3 1_555 1_555
O3_3 C7_3 1_555 1_555
C1_3 H1_3 1_555 1_555
C5_3 C1_3 1_555 1_555
C7_3 C5_3 1_555 1_555
Cu2_2 O1_3 1_555 1_555
O3_3 Cu2_2 1_555 1_555
C4_3 C5_3 1_555 1_555
C4_3 C9_3 1_555 1_555
N1_3 C2_3 1_555 1_555
N2_3 C6_3 1_555 1_555
C2_3 C3_3 1_555 1_555
C3_3 H2_3 1_555 1_555
C6_3 N1_3 1_555 1_555
H3_3 C6_3 1_555 1_555
C8_3 N2_3 1_555 1_555
Cu4 N2_3 1_555 1_555
Cu2_2 N1_3 1_555 1_555
C2_3 C8_3 1_555 1_555
O5_3 C7_4 1_555 1_555
O6_3 C7_4 1_555 1_555
N3_3 C2_4 1_555 1_555
N4_2 C6_4 1_555 1_555
C1_4 H1_4 1_555 1_555
C2_4 C3_4 1_555 1_555
C3_4 H2_4 1_555 1_555
C4_4 C3_4 1_555 1_555
C5_4 C1_4 1_555 1_555
C6_4 N3_3 1_555 1_555
C7_4 C5_4 1_555 1_555
C8_4 N4_2 1_555 1_555
C1_4 C8_4 1_555 1_555
C2_4 C8_4 1_555 1_555
C4_4 C5_4 1_555 1_555
C4_4 C9_4 1_555 1_555
Cu2_2 O2_4 1_555 1_555
O4_4 Cu2_2 1_555 1_555
Cu2 O2_5 1_555 1_555
O5_2 C7_5 1_555 1_555
O2_5 C9_5 1_555 1_555
O6_2 C7_5 1_555 1_555
O4_5 Cu2 1_555 1_555
N3_2 C2_5 1_555 1_555
N4 C6_5 1_555 1_555
C1_5 H1_5 1_555 1_555
C2_5 C3_5 1_555 1_555
C3_5 H2_5 1_555 1_555
C4_5 C3_5 1_555 1_555
C5_5 C1_5 1_555 1_555
C6_5 N3_2 1_555 1_555
H3_5 C6_5 1_555 1_555
C7_5 C5_5 1_555 1_555
C8_5 N4 1_555 1_555
C9_5 O4_5 1_555 1_555
C1_5 C8_5 1_555 1_555
C2_5 C8_5 1_555 1_555
C4_5 C5_5 1_555 1_555
C4_5 C9_5 1_555 1_555
Cu4 O2_6 1_555 1_555
O4_6 Cu4 1_555 1_555
N3 C2_6 1_555 1_555
N4_3 C6_6 1_555 1_555
C2_6 C3_6 1_555 1_555
C3_6 H2_6 1_555 1_555
C6_6 N3 1_555 1_555
H3_6 C6_6 1_555 1_555
C8_6 N4_3 1_555 1_555
C2_6 C8_6 1_555 1_555
O5 C7_6 1_555 1_555
O6 C7_6 1_555 1_555
C1_6 H1_6 1_555 1_555
C5_6 C1_6 1_555 1_555
C7_6 C5_6 1_555 1_555
C4_6 C5_6 1_555 1_555
C4_6 C9_6 1_555 1_555

#END
