
###############################################################################
#
# This file contains modified crystal structure data generated from the
# MOF subset of the Cambridge Structural Database (CSD) v543 
# hosted by the Cambridge Crystallographic Data Centre (CCDC).
#
# This work is licensed under the Creative Commons
# Attribution-NonCommercial-ShareAlike 4.0 International License.
# To view a copy of this license, visit
# http://creativecommons.org/licenses/by-nc-sa/4.0/
# or send a letter to
# Creative Commons, PO Box 1866, Mountain View, CA 94042, USA.
#
# CIF created using the CSD Python API on 29 September 2022
# The structure has been converted into the P1 space group
# The structure has a 3D framework
# The original CSD entry BARLEO is in the tetragonal crystal system
# The framework has been calculated to contain at least 10.0% void space
# The void calculation uses a probe of radius 1.32A, grid spacing 0.4
# The framework is charged, counterions have been retained in the structure
#
###############################################################################

data_BARLEO
_chemical_formula_moiety         '(C220 H128 F72 O104 P40 Zr28 40-)n'
_symmetry_cell_setting           triclinic
_symmetry_space_group_name_H-M   'P 1'
_symmetry_Int_Tables_number      1
_space_group_name_Hall           'P 1'
loop_
_symmetry_equiv_pos_site_id
_symmetry_equiv_pos_as_xyz
1 x,y,z
_cell_length_a                   33.081(5)
_cell_length_b                   33.081(5)
_cell_length_c                   15.832(3)
_cell_angle_alpha                90
_cell_angle_beta                 90
_cell_angle_gamma                90
_cell_volume                     17325.8
loop_
_atom_site_label
_atom_site_type_symbol
_atom_site_fract_x
_atom_site_fract_y
_atom_site_fract_z
P1 P 0.19911(5) 0.42027(5) 0.28917(10)
P3 P 0.22065(6) 0.13383(5) 0.0000
O1 O 0.24421(15) 0.42320(16) 0.2905(3)
O2 O 0.18115(12) 0.40291(12) 0.3690(3)
O3 O 0.1806(2) 0.46137(13) 0.2717(3)
O6 O 0.26689(16) 0.13609(14) 0.0000
C1 C 0.16258(12) 0.33314(12) 0.0761(3)
C2 C 0.13627(16) 0.36163(16) 0.1067(4)
H1 H 0.1104 0.3631 0.0840
C3 C 0.14702(18) 0.38845(18) 0.1703(4)
H2 H 0.1284 0.4073 0.1899
C4 C 0.18555(16) 0.38693(15) 0.2045(3)
C5 C 0.21331(16) 0.35987(17) 0.1725(4)
H3 H 0.2398 0.3600 0.1921
C6 C 0.20137(14) 0.33212(17) 0.1099(3)
H4 H 0.2197 0.3128 0.0909
C7 C 0.02817(17) 0.26205(19) 0.0000
C10 C 0.10662(17) 0.29402(17) 0.0000
C11 C 0.2015(2) 0.18479(18) 0.0000
C14 C 0.17246(17) 0.26461(17) 0.0000
C15 C 0.15167(18) 0.30589(17) 0.0000
O12 O 0.20386(14) 0.11355(11) 0.0779(3)
C22 C 0.04745(14) 0.26980(18) 0.0751(3)
H13 H 0.0344 0.2645 0.1259
C23 C 0.08628(15) 0.28550(18) 0.0752(3)
H14 H 0.0991 0.2905 0.1265
C24 C 0.19425(17) 0.20478(14) 0.0752(3)
H15 H 0.1991 0.1917 0.1262
C25 C 0.17980(18) 0.24420(15) 0.0751(3)
H16 H 0.1750 0.2572 0.1262
Zr3 Zr 0.30433(2) 0.43132(2) 0.33077(3)
F6 F 0.3201(2) 0.38957(18) 0.2477(4)
F7 F 0.35989(11) 0.44077(14) 0.3679(3)
F8 F 0.30977(13) 0.47553(13) 0.2485(2)
Zr4 Zr 0.19567(2) 0.06868(2) 0.16923(3)
Zr8 Zr 0.31824(2) 0.10001(2) 0.0000
Zr10 Zr 0.18176(2) 0.39999(2) 0.5000
O16 O 0.28153(10) 0.47194(9) 0.4203(2)
O18 O 0.29614(14) 0.38645(11) 0.4221(3)
P3_2 P 0.22065(6) 0.13383(5) 1.0000
O6_2 O 0.26689(16) 0.13609(14) 1.0000
O7 O 0.20386(14) 0.11355(11) 0.9221(3)
C7_2 C 0.02817(17) 0.26205(19) 1.0000
C8 C 0.04745(14) 0.26980(18) 0.9249(3)
H5 H 0.0344 0.2645 0.8741
C9 C 0.08628(15) 0.28550(18) 0.9248(3)
H6 H 0.0991 0.2905 0.8735
C10_2 C 0.10662(17) 0.29402(17) 1.0000
C11_2 C 0.2015(2) 0.18479(18) 1.0000
C12 C 0.19425(17) 0.20478(14) 0.9248(3)
H7 H 0.1991 0.1917 0.8738
C13 C 0.17980(18) 0.24420(15) 0.9249(3)
H8 H 0.1750 0.2572 0.8738
C14_2 C 0.17246(17) 0.26461(17) 1.0000
C15_2 C 0.15167(18) 0.30589(17) 1.0000
P4 P 0.19911(5) 0.42027(5) 0.71083(10)
O8 O 0.24421(15) 0.42320(16) 0.7095(3)
O9 O 0.18115(12) 0.40291(12) 0.6310(3)
O10 O 0.1806(2) 0.46137(13) 0.7283(3)
C16 C 0.16258(12) 0.33314(12) 0.9239(3)
C17 C 0.13627(16) 0.36163(16) 0.8933(4)
H9 H 0.1104 0.3631 0.9160
C18 C 0.14702(18) 0.38845(18) 0.8297(4)
H10 H 0.1284 0.4073 0.8101
C19 C 0.18555(16) 0.38693(15) 0.7955(3)
C20 C 0.21331(16) 0.35987(17) 0.8275(4)
H11 H 0.2398 0.3600 0.8079
C21 C 0.20137(14) 0.33212(17) 0.8901(3)
H12 H 0.2197 0.3128 0.9091
Zr5 Zr 0.30433(2) 0.43132(2) 0.66923(3)
Zr6 Zr 0.19567(2) 0.06868(2) 0.83077(3)
Zr8_2 Zr 0.31824(2) 0.10001(2) 1.0000
Zr1 Zr 0.93132(2) 0.19567(2) 0.16923(3)
Zr2 Zr 0.89999(2) 0.31824(2) 0.0000
P2 P 0.97707(5) 0.24324(5) 0.0000
O4 O 0.94903(13) 0.27948(14) 0.0000
O5 O 0.97194(9) 0.21847(10) 0.0797(2)
F1 F 0.88957(18) 0.1799(2) 0.2523(4)
F2 F 0.94077(14) 0.14011(11) 0.1321(3)
F3 F 0.97553(13) 0.19023(13) 0.2515(2)
F4 F 0.85100(17) 0.35176(16) 0.0000
F5 F 0.93575(18) 0.36681(15) 0.0000
O13 O 0.92320(16) 0.25579(15) 0.2095(3)
O15 O 0.90291(12) 0.31885(12) 0.1310(3)
O17 O 0.86391(14) 0.26689(16) 0.0000
O19 O 0.88645(11) 0.20386(14) 0.0779(3)
Zr2_2 Zr 0.89999(2) 0.31824(2) 1.0000
P2_2 P 0.97707(5) 0.24324(5) 1.0000
O4_2 O 0.94903(13) 0.27948(14) 1.0000
F4_2 F 0.85100(17) 0.35176(16) 1.0000
F5_2 F 0.93575(18) 0.36681(15) 1.0000
O11 O 0.97194(9) 0.21847(10) 0.9203(2)
Zr7 Zr 0.93132(2) 0.19567(2) 0.83077(3)
O14 O 0.90291(12) 0.31885(12) 0.8690(3)
O17_2 O 0.86391(14) 0.26689(16) 1.0000
P1_2 P 0.57973(5) 0.19911(5) 0.28917(10)
P3_3 P 0.86617(5) 0.22065(6) 0.0000
O1_2 O 0.57680(16) 0.24421(15) 0.2905(3)
O2_2 O 0.59709(12) 0.18115(12) 0.3690(3)
O3_2 O 0.53863(13) 0.1806(2) 0.2717(3)
C1_2 C 0.66686(12) 0.16258(12) 0.0761(3)
C2_2 C 0.63837(16) 0.13627(16) 0.1067(4)
H1_2 H 0.6369 0.1104 0.0840
C3_2 C 0.61155(18) 0.14702(18) 0.1703(4)
H2_2 H 0.5927 0.1284 0.1899
C4_2 C 0.61307(15) 0.18555(16) 0.2045(3)
C5_2 C 0.64013(17) 0.21331(16) 0.1725(4)
H3_2 H 0.6400 0.2398 0.1921
C6_2 C 0.66788(17) 0.20137(14) 0.1099(3)
H4_2 H 0.6872 0.2197 0.0909
C7_3 C 0.73795(19) 0.02817(17) 0.0000
C10_3 C 0.70598(17) 0.10662(17) 0.0000
C11_3 C 0.81521(18) 0.2015(2) 0.0000
C14_3 C 0.73539(17) 0.17246(17) 0.0000
C15_3 C 0.69411(17) 0.15167(18) 0.0000
C22_2 C 0.73020(18) 0.04745(14) 0.0751(3)
H13_2 H 0.7355 0.0344 0.1259
C23_2 C 0.71450(18) 0.08628(15) 0.0752(3)
H14_2 H 0.7095 0.0991 0.1265
C24_2 C 0.79522(14) 0.19425(17) 0.0752(3)
H15_2 H 0.8083 0.1991 0.1262
C25_2 C 0.75580(15) 0.17980(18) 0.0751(3)
H16_2 H 0.7428 0.1750 0.1262
Zr3_2 Zr 0.56868(2) 0.30433(2) 0.33077(3)
F6_2 F 0.61043(18) 0.3201(2) 0.2477(4)
F7_2 F 0.55923(14) 0.35989(11) 0.3679(3)
F8_2 F 0.52447(13) 0.30977(13) 0.2485(2)
Zr10_2 Zr 0.60001(2) 0.18176(2) 0.5000
O16_2 O 0.52806(9) 0.28153(10) 0.4203(2)
O18_2 O 0.61355(11) 0.29614(14) 0.4221(3)
P3_4 P 0.86617(5) 0.22065(6) 1.0000
O7_2 O 0.88645(11) 0.20386(14) 0.9221(3)
C7_4 C 0.73795(19) 0.02817(17) 1.0000
C8_2 C 0.73020(18) 0.04745(14) 0.9249(3)
H5_2 H 0.7355 0.0344 0.8741
C9_2 C 0.71450(18) 0.08628(15) 0.9248(3)
H6_2 H 0.7095 0.0991 0.8735
C10_4 C 0.70598(17) 0.10662(17) 1.0000
C11_4 C 0.81521(18) 0.2015(2) 1.0000
C12_2 C 0.79522(14) 0.19425(17) 0.9248(3)
H7_2 H 0.8083 0.1991 0.8738
C13_2 C 0.75580(15) 0.17980(18) 0.9249(3)
H8_2 H 0.7428 0.1750 0.8738
C14_4 C 0.73539(17) 0.17246(17) 1.0000
C15_4 C 0.69411(17) 0.15167(18) 1.0000
P4_2 P 0.57973(5) 0.19911(5) 0.71083(10)
O8_2 O 0.57680(16) 0.24421(15) 0.7095(3)
O9_2 O 0.59709(12) 0.18115(12) 0.6310(3)
O10_2 O 0.53863(13) 0.1806(2) 0.7283(3)
C16_2 C 0.66686(12) 0.16258(12) 0.9239(3)
C17_2 C 0.63837(16) 0.13627(16) 0.8933(4)
H9_2 H 0.6369 0.1104 0.9160
C18_2 C 0.61155(18) 0.14702(18) 0.8297(4)
H10_2 H 0.5927 0.1284 0.8101
C19_2 C 0.61307(15) 0.18555(16) 0.7955(3)
C20_2 C 0.64013(17) 0.21331(16) 0.8275(4)
H11_2 H 0.6400 0.2398 0.8079
C21_2 C 0.66788(17) 0.20137(14) 0.8901(3)
H12_2 H 0.6872 0.2197 0.9091
Zr5_2 Zr 0.56868(2) 0.30433(2) 0.66923(3)
Zr1_2 Zr 0.80433(2) 0.93132(2) 0.16923(3)
Zr2_3 Zr 0.68176(2) 0.89999(2) 0.0000
P2_3 P 0.75676(5) 0.97707(5) 0.0000
O4_3 O 0.72052(14) 0.94903(13) 0.0000
O5_2 O 0.78153(10) 0.97194(9) 0.0797(2)
F1_2 F 0.8201(2) 0.88957(18) 0.2523(4)
F2_2 F 0.85989(11) 0.94077(14) 0.1321(3)
F3_2 F 0.80977(13) 0.97553(13) 0.2515(2)
F4_3 F 0.64824(16) 0.85100(17) 0.0000
F5_3 F 0.63319(15) 0.93575(18) 0.0000
O13_2 O 0.74421(15) 0.92320(16) 0.2095(3)
O15_2 O 0.68115(12) 0.90291(12) 0.1310(3)
O17_3 O 0.73311(16) 0.86391(14) 0.0000
O19_2 O 0.79614(14) 0.88645(11) 0.0779(3)
Zr2_4 Zr 0.68176(2) 0.89999(2) 1.0000
P2_4 P 0.75676(5) 0.97707(5) 1.0000
O4_4 O 0.72052(14) 0.94903(13) 1.0000
F4_4 F 0.64824(16) 0.85100(17) 1.0000
F5_4 F 0.63319(15) 0.93575(18) 1.0000
O11_2 O 0.78153(10) 0.97194(9) 0.9203(2)
Zr7_2 Zr 0.80433(2) 0.93132(2) 0.83077(3)
O14_2 O 0.68115(12) 0.90291(12) 0.8690(3)
O17_4 O 0.73311(16) 0.86391(14) 1.0000
P2_5 P 0.24324(5) 0.02293(5) 0.0000
O4_5 O 0.27948(14) 0.05097(13) 0.0000
O5_3 O 0.21847(10) 0.02806(9) 0.0797(2)
F1_3 F 0.1799(2) 0.11043(18) 0.2523(4)
F2_3 F 0.14011(11) 0.05923(14) 0.1321(3)
F3_3 F 0.19023(13) 0.02447(13) 0.2515(2)
F4_5 F 0.35176(16) 0.14900(17) 0.0000
F5_5 F 0.36681(15) 0.06425(18) 0.0000
O13_3 O 0.25579(15) 0.07680(16) 0.2095(3)
O15_3 O 0.31885(12) 0.09709(12) 0.1310(3)
P2_6 P 0.24324(5) 0.02293(5) 1.0000
O4_6 O 0.27948(14) 0.05097(13) 1.0000
F4_6 F 0.35176(16) 0.14900(17) 1.0000
F5_6 F 0.36681(15) 0.06425(18) 1.0000
O11_3 O 0.21847(10) 0.02806(9) 0.9203(2)
O14_3 O 0.31885(12) 0.09709(12) 0.8690(3)
P1_3 P 0.42027(5) 0.80089(5) 0.28917(10)
P3_5 P 0.13383(5) 0.77935(6) 0.0000
O1_3 O 0.42320(16) 0.75579(15) 0.2905(3)
O2_3 O 0.40291(12) 0.81885(12) 0.3690(3)
O3_3 O 0.46137(13) 0.8194(2) 0.2717(3)
O6_3 O 0.13609(14) 0.73311(16) 0.0000
C1_3 C 0.33314(12) 0.83742(12) 0.0761(3)
C2_3 C 0.36163(16) 0.86373(16) 0.1067(4)
H1_3 H 0.3631 0.8896 0.0840
C3_3 C 0.38845(18) 0.85298(18) 0.1703(4)
H2_3 H 0.4073 0.8716 0.1899
C4_3 C 0.38693(15) 0.81445(16) 0.2045(3)
C5_3 C 0.35987(17) 0.78669(16) 0.1725(4)
H3_3 H 0.3600 0.7602 0.1921
C6_3 C 0.33212(17) 0.79863(14) 0.1099(3)
H4_3 H 0.3128 0.7803 0.0909
C7_5 C 0.26205(19) 0.97183(17) 0.0000
C10_5 C 0.29402(17) 0.89338(17) 0.0000
C11_5 C 0.18479(18) 0.7985(2) 0.0000
C14_5 C 0.26461(17) 0.82754(17) 0.0000
C15_5 C 0.30589(17) 0.84833(18) 0.0000
O12_2 O 0.11355(11) 0.79614(14) 0.0779(3)
C22_3 C 0.26980(18) 0.95255(14) 0.0751(3)
H13_3 H 0.2645 0.9656 0.1259
C23_3 C 0.28550(18) 0.91372(15) 0.0752(3)
H14_3 H 0.2905 0.9009 0.1265
C24_3 C 0.20478(14) 0.80575(17) 0.0752(3)
H15_3 H 0.1917 0.8009 0.1262
C25_3 C 0.24420(15) 0.82020(18) 0.0751(3)
H16_3 H 0.2572 0.8250 0.1262
Zr3_3 Zr 0.43132(2) 0.69567(2) 0.33077(3)
F6_3 F 0.38957(18) 0.6799(2) 0.2477(4)
F7_3 F 0.44077(14) 0.64011(11) 0.3679(3)
F8_3 F 0.47553(13) 0.69023(13) 0.2485(2)
Zr4_2 Zr 0.06868(2) 0.80433(2) 0.16923(3)
Zr8_3 Zr 0.10001(2) 0.68176(2) 0.0000
Zr10_3 Zr 0.39999(2) 0.81824(2) 0.5000
O16_3 O 0.47194(9) 0.71847(10) 0.4203(2)
O18_3 O 0.38645(11) 0.70386(14) 0.4221(3)
P3_6 P 0.13383(5) 0.77935(6) 1.0000
O6_4 O 0.13609(14) 0.73311(16) 1.0000
O7_3 O 0.11355(11) 0.79614(14) 0.9221(3)
C7_6 C 0.26205(19) 0.97183(17) 1.0000
C8_3 C 0.26980(18) 0.95255(14) 0.9249(3)
H5_3 H 0.2645 0.9656 0.8741
C9_3 C 0.28550(18) 0.91372(15) 0.9248(3)
H6_3 H 0.2905 0.9009 0.8735
C10_6 C 0.29402(17) 0.89338(17) 1.0000
C11_6 C 0.18479(18) 0.7985(2) 1.0000
C12_3 C 0.20478(14) 0.80575(17) 0.9248(3)
H7_3 H 0.1917 0.8009 0.8738
C13_3 C 0.24420(15) 0.82020(18) 0.9249(3)
H8_3 H 0.2572 0.8250 0.8738
C14_6 C 0.26461(17) 0.82754(17) 1.0000
C15_6 C 0.30589(17) 0.84833(18) 1.0000
P4_3 P 0.42027(5) 0.80089(5) 0.71083(10)
O8_3 O 0.42320(16) 0.75579(15) 0.7095(3)
O9_3 O 0.40291(12) 0.81885(12) 0.6310(3)
O10_3 O 0.46137(13) 0.8194(2) 0.7283(3)
C16_3 C 0.33314(12) 0.83742(12) 0.9239(3)
C17_3 C 0.36163(16) 0.86373(16) 0.8933(4)
H9_3 H 0.3631 0.8896 0.9160
C18_3 C 0.38845(18) 0.85298(18) 0.8297(4)
H10_3 H 0.4073 0.8716 0.8101
C19_3 C 0.38693(15) 0.81445(16) 0.7955(3)
C20_3 C 0.35987(17) 0.78669(16) 0.8275(4)
H11_3 H 0.3600 0.7602 0.8079
C21_3 C 0.33212(17) 0.79863(14) 0.8901(3)
H12_3 H 0.3128 0.7803 0.9091
Zr5_3 Zr 0.43132(2) 0.69567(2) 0.66923(3)
Zr6_2 Zr 0.06868(2) 0.80433(2) 0.83077(3)
Zr8_4 Zr 0.10001(2) 0.68176(2) 1.0000
P2_7 P 0.02293(5) 0.75676(5) 0.0000
O4_7 O 0.05097(13) 0.72052(14) 0.0000
O5_4 O 0.02806(9) 0.78153(10) 0.0797(2)
F1_4 F 0.11043(18) 0.8201(2) 0.2523(4)
F2_4 F 0.05923(14) 0.85989(11) 0.1321(3)
F3_4 F 0.02447(13) 0.80977(13) 0.2515(2)
F4_7 F 0.14900(17) 0.64824(16) 0.0000
F5_7 F 0.06425(18) 0.63319(15) 0.0000
O13_4 O 0.07680(16) 0.74421(15) 0.2095(3)
O15_4 O 0.09709(12) 0.68115(12) 0.1310(3)
P2_8 P 0.02293(5) 0.75676(5) 1.0000
O4_8 O 0.05097(13) 0.72052(14) 1.0000
F4_8 F 0.14900(17) 0.64824(16) 1.0000
F5_8 F 0.06425(18) 0.63319(15) 1.0000
O11_4 O 0.02806(9) 0.78153(10) 0.9203(2)
O14_4 O 0.09709(12) 0.68115(12) 0.8690(3)
P1_4 P 0.80089(5) 0.57973(5) 0.28917(10)
P3_7 P 0.77935(6) 0.86617(5) 0.0000
O1_4 O 0.75579(15) 0.57680(16) 0.2905(3)
O2_4 O 0.81885(12) 0.59709(12) 0.3690(3)
O3_4 O 0.8194(2) 0.53863(13) 0.2717(3)
C1_4 C 0.83742(12) 0.66686(12) 0.0761(3)
C2_4 C 0.86373(16) 0.63837(16) 0.1067(4)
H1_4 H 0.8896 0.6369 0.0840
C3_4 C 0.85298(18) 0.61155(18) 0.1703(4)
H2_4 H 0.8716 0.5927 0.1899
C4_4 C 0.81445(16) 0.61307(15) 0.2045(3)
C5_4 C 0.78669(16) 0.64013(17) 0.1725(4)
H3_4 H 0.7602 0.6400 0.1921
C6_4 C 0.79863(14) 0.66788(17) 0.1099(3)
H4_4 H 0.7803 0.6872 0.0909
C7_7 C 0.97183(17) 0.73795(19) 0.0000
C10_7 C 0.89338(17) 0.70598(17) 0.0000
C11_7 C 0.7985(2) 0.81521(18) 0.0000
C14_7 C 0.82754(17) 0.73539(17) 0.0000
C15_7 C 0.84833(18) 0.69411(17) 0.0000
C22_4 C 0.95255(14) 0.73020(18) 0.0751(3)
H13_4 H 0.9656 0.7355 0.1259
C23_4 C 0.91372(15) 0.71450(18) 0.0752(3)
H14_4 H 0.9009 0.7095 0.1265
C24_4 C 0.80575(17) 0.79522(14) 0.0752(3)
H15_4 H 0.8009 0.8083 0.1262
C25_4 C 0.82020(18) 0.75580(15) 0.0751(3)
H16_4 H 0.8250 0.7428 0.1262
Zr3_4 Zr 0.69567(2) 0.56868(2) 0.33077(3)
F6_4 F 0.6799(2) 0.61043(18) 0.2477(4)
F7_4 F 0.64011(11) 0.55923(14) 0.3679(3)
F8_4 F 0.69023(13) 0.52447(13) 0.2485(2)
Zr10_4 Zr 0.81824(2) 0.60001(2) 0.5000
O16_4 O 0.71847(10) 0.52806(9) 0.4203(2)
O18_4 O 0.70386(14) 0.61355(11) 0.4221(3)
P3_8 P 0.77935(6) 0.86617(5) 1.0000
O7_4 O 0.79614(14) 0.88645(11) 0.9221(3)
C7_8 C 0.97183(17) 0.73795(19) 1.0000
C8_4 C 0.95255(14) 0.73020(18) 0.9249(3)
H5_4 H 0.9656 0.7355 0.8741
C9_4 C 0.91372(15) 0.71450(18) 0.9248(3)
H6_4 H 0.9009 0.7095 0.8735
C10_8 C 0.89338(17) 0.70598(17) 1.0000
C11_8 C 0.7985(2) 0.81521(18) 1.0000
C12_4 C 0.80575(17) 0.79522(14) 0.9248(3)
H7_4 H 0.8009 0.8083 0.8738
C13_4 C 0.82020(18) 0.75580(15) 0.9249(3)
H8_4 H 0.8250 0.7428 0.8738
C14_8 C 0.82754(17) 0.73539(17) 1.0000
C15_8 C 0.84833(18) 0.69411(17) 1.0000
P4_4 P 0.80089(5) 0.57973(5) 0.71083(10)
O8_4 O 0.75579(15) 0.57680(16) 0.7095(3)
O9_4 O 0.81885(12) 0.59709(12) 0.6310(3)
O10_4 O 0.8194(2) 0.53863(13) 0.7283(3)
C16_4 C 0.83742(12) 0.66686(12) 0.9239(3)
C17_4 C 0.86373(16) 0.63837(16) 0.8933(4)
H9_4 H 0.8896 0.6369 0.9160
C18_4 C 0.85298(18) 0.61155(18) 0.8297(4)
H10_4 H 0.8716 0.5927 0.8101
C19_4 C 0.81445(16) 0.61307(15) 0.7955(3)
C20_4 C 0.78669(16) 0.64013(17) 0.8275(4)
H11_4 H 0.7602 0.6400 0.8079
C21_4 C 0.79863(14) 0.66788(17) 0.8901(3)
H12_4 H 0.7803 0.6872 0.9091
Zr5_4 Zr 0.69567(2) 0.56868(2) 0.66923(3)
P1_5 P 0.69911(5) 0.92027(5) 0.78917(10)
P2_9 P 0.47707(5) 0.74324(5) 0.5000
P3_9 P 0.72065(6) 0.63383(5) 0.5000
O1_5 O 0.74421(15) 0.92320(16) 0.7905(3)
O3_5 O 0.6806(2) 0.96137(13) 0.7717(3)
O4_9 O 0.44903(13) 0.77948(14) 0.5000
O5_5 O 0.47194(9) 0.71847(10) 0.5797(2)
O6_5 O 0.76689(16) 0.63609(14) 0.5000
F1_5 F 0.38957(18) 0.6799(2) 0.7523(4)
F2_5 F 0.44077(14) 0.64011(11) 0.6321(3)
F3_5 F 0.47553(13) 0.69023(13) 0.7515(2)
F4_9 F 0.35100(17) 0.85176(16) 0.5000
F5_9 F 0.43575(18) 0.86681(15) 0.5000
C1_5 C 0.66258(12) 0.83314(12) 0.5761(3)
C2_5 C 0.63627(16) 0.86163(16) 0.6067(4)
H1_5 H 0.6104 0.8631 0.5840
C3_5 C 0.64702(18) 0.88845(18) 0.6703(4)
H2_5 H 0.6284 0.9073 0.6899
C4_5 C 0.68555(16) 0.88693(15) 0.7045(3)
C5_5 C 0.71331(16) 0.85987(17) 0.6725(4)
H3_5 H 0.7398 0.8600 0.6921
C6_5 C 0.70137(14) 0.83212(17) 0.6099(3)
H4_5 H 0.7197 0.8128 0.5909
C7_9 C 0.52817(17) 0.76205(19) 0.5000
C8_5 C 0.54745(14) 0.76980(18) 0.4249(3)
H5_5 H 0.5344 0.7645 0.3741
C9_5 C 0.58628(15) 0.78550(18) 0.4248(3)
H6_5 H 0.5991 0.7905 0.3735
C10_9 C 0.60662(17) 0.79402(17) 0.5000
C11_9 C 0.7015(2) 0.68479(18) 0.5000
C12_5 C 0.69425(17) 0.70478(14) 0.4248(3)
H7_5 H 0.6991 0.6917 0.3738
C13_5 C 0.67980(18) 0.74420(15) 0.4249(3)
H8_5 H 0.6750 0.7572 0.3738
C14_9 C 0.67246(17) 0.76461(17) 0.5000
C15_9 C 0.65167(18) 0.80589(17) 0.5000
P4_5 P 0.69911(5) 0.92027(5) 0.21083(10)
O10_5 O 0.6806(2) 0.96137(13) 0.2283(3)
O12_3 O 0.70386(14) 0.61355(11) 0.5779(3)
C16_5 C 0.66258(12) 0.83314(12) 0.4239(3)
C17_5 C 0.63627(16) 0.86163(16) 0.3933(4)
H9_5 H 0.6104 0.8631 0.4160
C18_5 C 0.64702(18) 0.88845(18) 0.3297(4)
H10_5 H 0.6284 0.9073 0.3101
C19_5 C 0.68555(16) 0.88693(15) 0.2955(3)
C20_5 C 0.71331(16) 0.85987(17) 0.3275(4)
H11_5 H 0.7398 0.8600 0.3079
C21_5 C 0.70137(14) 0.83212(17) 0.3901(3)
H12_5 H 0.7197 0.8128 0.4091
C22_5 C 0.54745(14) 0.76980(18) 0.5751(3)
H13_5 H 0.5344 0.7645 0.6259
C23_5 C 0.58628(15) 0.78550(18) 0.5752(3)
H14_5 H 0.5991 0.7905 0.6265
C24_5 C 0.69425(17) 0.70478(14) 0.5752(3)
H15_5 H 0.6991 0.6917 0.6262
C25_5 C 0.67980(18) 0.74420(15) 0.5751(3)
H16_5 H 0.6750 0.7572 0.6262
F6_5 F 0.8201(2) 0.88957(18) 0.7477(4)
F7_5 F 0.85989(11) 0.94077(14) 0.8679(3)
F8_5 F 0.80977(13) 0.97553(13) 0.7485(2)
O17_5 O 0.36391(14) 0.76689(16) 0.5000
O19_3 O 0.38645(11) 0.70386(14) 0.5779(3)
P1_6 P 0.07973(5) 0.69911(5) 0.78917(10)
P2_10 P 0.25676(5) 0.47707(5) 0.5000
P3_10 P 0.36617(5) 0.72065(6) 0.5000
O1_6 O 0.07680(16) 0.74421(15) 0.7905(3)
O3_6 O 0.03863(13) 0.6806(2) 0.7717(3)
O4_10 O 0.22052(14) 0.44903(13) 0.5000
O5_6 O 0.28153(10) 0.47194(9) 0.5797(2)
F1_6 F 0.3201(2) 0.38957(18) 0.7523(4)
F2_6 F 0.35989(11) 0.44077(14) 0.6321(3)
F3_6 F 0.30977(13) 0.47553(13) 0.7515(2)
F4_10 F 0.14824(16) 0.35100(17) 0.5000
F5_10 F 0.13319(15) 0.43575(18) 0.5000
C1_6 C 0.16686(12) 0.66258(12) 0.5761(3)
C2_6 C 0.13837(16) 0.63627(16) 0.6067(4)
H1_6 H 0.1369 0.6104 0.5840
C3_6 C 0.11155(18) 0.64702(18) 0.6703(4)
H2_6 H 0.0927 0.6284 0.6899
C4_6 C 0.11307(15) 0.68555(16) 0.7045(3)
C5_6 C 0.14013(17) 0.71331(16) 0.6725(4)
H3_6 H 0.1400 0.7398 0.6921
C6_6 C 0.16788(17) 0.70137(14) 0.6099(3)
H4_6 H 0.1872 0.7197 0.5909
C7_10 C 0.23795(19) 0.52817(17) 0.5000
C8_6 C 0.23020(18) 0.54745(14) 0.4249(3)
H5_6 H 0.2355 0.5344 0.3741
C9_6 C 0.21450(18) 0.58628(15) 0.4248(3)
H6_6 H 0.2095 0.5991 0.3735
C10_10 C 0.20598(17) 0.60662(17) 0.5000
C11_10 C 0.31521(18) 0.7015(2) 0.5000
C12_6 C 0.29522(14) 0.69425(17) 0.4248(3)
H7_6 H 0.3083 0.6991 0.3738
C13_6 C 0.25580(15) 0.67980(18) 0.4249(3)
H8_6 H 0.2428 0.6750 0.3738
C14_10 C 0.23539(17) 0.67246(17) 0.5000
C15_10 C 0.19411(17) 0.65167(18) 0.5000
P4_6 P 0.07973(5) 0.69911(5) 0.21083(10)
O10_6 O 0.03863(13) 0.6806(2) 0.2283(3)
C16_6 C 0.16686(12) 0.66258(12) 0.4239(3)
C17_6 C 0.13837(16) 0.63627(16) 0.3933(4)
H9_6 H 0.1369 0.6104 0.4160
C18_6 C 0.11155(18) 0.64702(18) 0.3297(4)
H10_6 H 0.0927 0.6284 0.3101
C19_6 C 0.11307(15) 0.68555(16) 0.2955(3)
C20_6 C 0.14013(17) 0.71331(16) 0.3275(4)
H11_6 H 0.1400 0.7398 0.3079
C21_6 C 0.16788(17) 0.70137(14) 0.3901(3)
H12_6 H 0.1872 0.7197 0.4091
C22_6 C 0.23020(18) 0.54745(14) 0.5751(3)
H13_6 H 0.2355 0.5344 0.6259
C23_6 C 0.21450(18) 0.58628(15) 0.5752(3)
H14_6 H 0.2095 0.5991 0.6265
C24_6 C 0.29522(14) 0.69425(17) 0.5752(3)
H15_6 H 0.3083 0.6991 0.6262
C25_6 C 0.25580(15) 0.67980(18) 0.5751(3)
H16_6 H 0.2428 0.6750 0.6262
F6_6 F 0.11043(18) 0.8201(2) 0.7477(4)
F7_6 F 0.05923(14) 0.85989(11) 0.8679(3)
F8_6 F 0.02447(13) 0.80977(13) 0.7485(2)
O17_6 O 0.23311(16) 0.36391(14) 0.5000
O19_4 O 0.29614(14) 0.38645(11) 0.5779(3)
P1_7 P 0.92027(5) 0.30089(5) 0.78917(10)
P2_11 P 0.74324(5) 0.52293(5) 0.5000
P3_11 P 0.63383(5) 0.27935(6) 0.5000
O1_7 O 0.92320(16) 0.25579(15) 0.7905(3)
O3_7 O 0.96137(13) 0.3194(2) 0.7717(3)
O4_11 O 0.77948(14) 0.55097(13) 0.5000
O5_7 O 0.71847(10) 0.52806(9) 0.5797(2)
O6_6 O 0.63609(14) 0.23311(16) 0.5000
F1_7 F 0.6799(2) 0.61043(18) 0.7523(4)
F2_7 F 0.64011(11) 0.55923(14) 0.6321(3)
F3_7 F 0.69023(13) 0.52447(13) 0.7515(2)
F4_11 F 0.85176(16) 0.64900(17) 0.5000
F5_11 F 0.86681(15) 0.56425(18) 0.5000
C1_7 C 0.83314(12) 0.33742(12) 0.5761(3)
C2_7 C 0.86163(16) 0.36373(16) 0.6067(4)
H1_7 H 0.8631 0.3896 0.5840
C3_7 C 0.88845(18) 0.35298(18) 0.6703(4)
H2_7 H 0.9073 0.3716 0.6899
C4_7 C 0.88693(15) 0.31445(16) 0.7045(3)
C5_7 C 0.85987(17) 0.28669(16) 0.6725(4)
H3_7 H 0.8600 0.2602 0.6921
C6_7 C 0.83212(17) 0.29863(14) 0.6099(3)
H4_7 H 0.8128 0.2803 0.5909
C7_11 C 0.76205(19) 0.47183(17) 0.5000
C8_7 C 0.76980(18) 0.45255(14) 0.4249(3)
H5_7 H 0.7645 0.4656 0.3741
C9_7 C 0.78550(18) 0.41372(15) 0.4248(3)
H6_7 H 0.7905 0.4009 0.3735
C10_11 C 0.79402(17) 0.39338(17) 0.5000
C11_11 C 0.68479(18) 0.2985(2) 0.5000
C12_7 C 0.70478(14) 0.30575(17) 0.4248(3)
H7_7 H 0.6917 0.3009 0.3738
C13_7 C 0.74420(15) 0.32020(18) 0.4249(3)
H8_7 H 0.7572 0.3250 0.3738
C14_11 C 0.76461(17) 0.32754(17) 0.5000
C15_11 C 0.80589(17) 0.34833(18) 0.5000
P4_7 P 0.92027(5) 0.30089(5) 0.21083(10)
O10_7 O 0.96137(13) 0.3194(2) 0.2283(3)
O12_4 O 0.61355(11) 0.29614(14) 0.5779(3)
C16_7 C 0.83314(12) 0.33742(12) 0.4239(3)
C17_7 C 0.86163(16) 0.36373(16) 0.3933(4)
H9_7 H 0.8631 0.3896 0.4160
C18_7 C 0.88845(18) 0.35298(18) 0.3297(4)
H10_7 H 0.9073 0.3716 0.3101
C19_7 C 0.88693(15) 0.31445(16) 0.2955(3)
C20_7 C 0.85987(17) 0.28669(16) 0.3275(4)
H11_7 H 0.8600 0.2602 0.3079
C21_7 C 0.83212(17) 0.29863(14) 0.3901(3)
H12_7 H 0.8128 0.2803 0.4091
C22_7 C 0.76980(18) 0.45255(14) 0.5751(3)
H13_7 H 0.7645 0.4656 0.6259
C23_7 C 0.78550(18) 0.41372(15) 0.5752(3)
H14_7 H 0.7905 0.4009 0.6265
C24_7 C 0.70478(14) 0.30575(17) 0.5752(3)
H15_7 H 0.6917 0.3009 0.6262
C25_7 C 0.74420(15) 0.32020(18) 0.5751(3)
H16_7 H 0.7572 0.3250 0.6262
F6_7 F 0.88957(18) 0.1799(2) 0.7477(4)
F7_7 F 0.94077(14) 0.14011(11) 0.8679(3)
F8_7 F 0.97553(13) 0.19023(13) 0.7485(2)
P1_8 P 0.30089(5) 0.07973(5) 0.78917(10)
P2_12 P 0.52293(5) 0.25676(5) 0.5000
P3_12 P 0.27935(6) 0.36617(5) 0.5000
O1_8 O 0.25579(15) 0.07680(16) 0.7905(3)
O3_8 O 0.3194(2) 0.03863(13) 0.7717(3)
O4_12 O 0.55097(13) 0.22052(14) 0.5000
O5_8 O 0.52806(9) 0.28153(10) 0.5797(2)
F1_8 F 0.61043(18) 0.3201(2) 0.7523(4)
F2_8 F 0.55923(14) 0.35989(11) 0.6321(3)
F3_8 F 0.52447(13) 0.30977(13) 0.7515(2)
F4_12 F 0.64900(17) 0.14824(16) 0.5000
F5_12 F 0.56425(18) 0.13319(15) 0.5000
C1_8 C 0.33742(12) 0.16686(12) 0.5761(3)
C2_8 C 0.36373(16) 0.13837(16) 0.6067(4)
H1_8 H 0.3896 0.1369 0.5840
C3_8 C 0.35298(18) 0.11155(18) 0.6703(4)
H2_8 H 0.3716 0.0927 0.6899
C4_8 C 0.31445(16) 0.11307(15) 0.7045(3)
C5_8 C 0.28669(16) 0.14013(17) 0.6725(4)
H3_8 H 0.2602 0.1400 0.6921
C6_8 C 0.29863(14) 0.16788(17) 0.6099(3)
H4_8 H 0.2803 0.1872 0.5909
C7_12 C 0.47183(17) 0.23795(19) 0.5000
C8_8 C 0.45255(14) 0.23020(18) 0.4249(3)
H5_8 H 0.4656 0.2355 0.3741
C9_8 C 0.41372(15) 0.21450(18) 0.4248(3)
H6_8 H 0.4009 0.2095 0.3735
C10_12 C 0.39338(17) 0.20598(17) 0.5000
C11_12 C 0.2985(2) 0.31521(18) 0.5000
C12_8 C 0.30575(17) 0.29522(14) 0.4248(3)
H7_8 H 0.3009 0.3083 0.3738
C13_8 C 0.32020(18) 0.25580(15) 0.4249(3)
H8_8 H 0.3250 0.2428 0.3738
C14_12 C 0.32754(17) 0.23539(17) 0.5000
C15_12 C 0.34833(18) 0.19411(17) 0.5000
P4_8 P 0.30089(5) 0.07973(5) 0.21083(10)
O10_8 O 0.3194(2) 0.03863(13) 0.2283(3)
C16_8 C 0.33742(12) 0.16686(12) 0.4239(3)
C17_8 C 0.36373(16) 0.13837(16) 0.3933(4)
H9_8 H 0.3896 0.1369 0.4160
C18_8 C 0.35298(18) 0.11155(18) 0.3297(4)
H10_8 H 0.3716 0.0927 0.3101
C19_8 C 0.31445(16) 0.11307(15) 0.2955(3)
C20_8 C 0.28669(16) 0.14013(17) 0.3275(4)
H11_8 H 0.2602 0.1400 0.3079
C21_8 C 0.29863(14) 0.16788(17) 0.3901(3)
H12_8 H 0.2803 0.1872 0.4091
C22_8 C 0.45255(14) 0.23020(18) 0.5751(3)
H13_8 H 0.4656 0.2355 0.6259
C23_8 C 0.41372(15) 0.21450(18) 0.5752(3)
H14_8 H 0.4009 0.2095 0.6265
C24_8 C 0.30575(17) 0.29522(14) 0.5752(3)
H15_8 H 0.3009 0.3083 0.6262
C25_8 C 0.32020(18) 0.25580(15) 0.5751(3)
H16_8 H 0.3250 0.2428 0.6262
F6_8 F 0.1799(2) 0.11043(18) 0.7477(4)
F7_8 F 0.14011(11) 0.05923(14) 0.8679(3)
F8_8 F 0.19023(13) 0.02447(13) 0.7485(2)
loop_
_geom_bond_atom_site_label_1
_geom_bond_atom_site_label_2
_geom_bond_site_symmetry_1
_geom_bond_site_symmetry_2
P1 O1 1_555 1_555
P3 O6 1_555 1_555
O1 Zr3 1_555 1_555
O2 P1 1_555 1_555
O3 P1 1_555 1_555
O6 Zr8 1_555 1_555
C1 C2 1_555 1_555
C2 H1 1_555 1_555
C3 C2 1_555 1_555
H2 C3 1_555 1_555
C4 P1 1_555 1_555
C5 C4 1_555 1_555
H3 C5 1_555 1_555
C6 C1 1_555 1_555
H4 C6 1_555 1_555
C11 P3 1_555 1_555
C15 C1 1_555 1_555
O12 P3 1_555 1_555
C22 C7 1_555 1_555
H13 C22 1_555 1_555
C23 C10 1_555 1_555
H14 C23 1_555 1_555
C24 C11 1_555 1_555
H15 C24 1_555 1_555
C25 C14 1_555 1_555
H16 C25 1_555 1_555
Zr3 F6 1_555 1_555
F7 Zr3 1_555 1_555
F8 Zr3 1_555 1_555
Zr4 O12 1_555 1_555
Zr10 O2 1_555 1_555
O16 Zr3 1_555 1_555
O18 Zr3 1_555 1_555
C3 C4 1_555 1_555
C5 C6 1_555 1_555
C10 C15 1_555 1_555
C14 C15 1_555 1_555
C22 C23 1_555 1_555
C24 C25 1_555 1_555
P3_2 O6_2 1_555 1_555
O6_2 Zr8_2 1_555 1_555
O7 P3_2 1_555 1_555
C8 C7_2 1_555 1_555
H5 C8 1_555 1_555
C9 C8 1_555 1_555
H6 C9 1_555 1_555
C10_2 C9 1_555 1_555
C11_2 P3_2 1_555 1_555
C12 C11_2 1_555 1_555
H7 C12 1_555 1_555
C13 C12 1_555 1_555
H8 C13 1_555 1_555
C14_2 C13 1_555 1_555
P4 O8 1_555 1_555
O8 Zr5 1_555 1_555
O9 P4 1_555 1_555
O10 P4 1_555 1_555
C16 C15_2 1_555 1_555
C17 C16 1_555 1_555
H9 C17 1_555 1_555
C18 C17 1_555 1_555
H10 C18 1_555 1_555
C19 P4 1_555 1_555
C20 C19 1_555 1_555
H11 C20 1_555 1_555
C21 C16 1_555 1_555
H12 C21 1_555 1_555
Zr6 O7 1_555 1_555
Zr10 O9 1_555 1_555
C10_2 C15_2 1_555 1_555
C14_2 C15_2 1_555 1_555
C18 C19 1_555 1_555
C20 C21 1_555 1_555
Zr1 O5 1_555 1_555
Zr2 O4 1_555 1_555
P2 O4 1_555 1_555
O5 P2 1_555 1_555
F1 Zr1 1_555 1_555
F2 Zr1 1_555 1_555
F3 Zr1 1_555 1_555
F4 Zr2 1_555 1_555
F5 Zr2 1_555 1_555
O13 Zr1 1_555 1_555
O15 Zr2 1_555 1_555
O17 Zr2 1_555 1_555
O19 Zr1 1_555 1_555
Zr2_2 O4_2 1_555 1_555
P2_2 O4_2 1_555 1_555
F4_2 Zr2_2 1_555 1_555
F5_2 Zr2_2 1_555 1_555
O11 P2_2 1_555 1_555
Zr7 O11 1_555 1_555
O14 Zr2_2 1_555 1_555
O17_2 Zr2_2 1_555 1_555
P1_2 O1_2 1_555 1_555
P3_3 O17 1_555 1_555
O1_2 Zr3_2 1_555 1_555
O2_2 P1_2 1_555 1_555
O3_2 P1_2 1_555 1_555
C1_2 C2_2 1_555 1_555
C2_2 H1_2 1_555 1_555
C3_2 C2_2 1_555 1_555
H2_2 C3_2 1_555 1_555
C4_2 P1_2 1_555 1_555
C5_2 C4_2 1_555 1_555
H3_2 C5_2 1_555 1_555
C6_2 C1_2 1_555 1_555
H4_2 C6_2 1_555 1_555
C11_3 P3_3 1_555 1_555
C15_3 C1_2 1_555 1_555
O19 P3_3 1_555 1_555
C22_2 C7_3 1_555 1_555
H13_2 C22_2 1_555 1_555
C23_2 C10_3 1_555 1_555
H14_2 C23_2 1_555 1_555
C24_2 C11_3 1_555 1_555
H15_2 C24_2 1_555 1_555
C25_2 C14_3 1_555 1_555
H16_2 C25_2 1_555 1_555
Zr3_2 F6_2 1_555 1_555
F7_2 Zr3_2 1_555 1_555
F8_2 Zr3_2 1_555 1_555
Zr10_2 O2_2 1_555 1_555
O16_2 Zr3_2 1_555 1_555
O18_2 Zr3_2 1_555 1_555
C3_2 C4_2 1_555 1_555
C5_2 C6_2 1_555 1_555
C10_3 C15_3 1_555 1_555
C14_3 C15_3 1_555 1_555
C22_2 C23_2 1_555 1_555
C24_2 C25_2 1_555 1_555
P3_4 O17_2 1_555 1_555
O7_2 P3_4 1_555 1_555
C8_2 C7_4 1_555 1_555
H5_2 C8_2 1_555 1_555
C9_2 C8_2 1_555 1_555
H6_2 C9_2 1_555 1_555
C10_4 C9_2 1_555 1_555
C11_4 P3_4 1_555 1_555
C12_2 C11_4 1_555 1_555
H7_2 C12_2 1_555 1_555
C13_2 C12_2 1_555 1_555
H8_2 C13_2 1_555 1_555
C14_4 C13_2 1_555 1_555
P4_2 O8_2 1_555 1_555
O8_2 Zr5_2 1_555 1_555
O9_2 P4_2 1_555 1_555
O10_2 P4_2 1_555 1_555
C16_2 C15_4 1_555 1_555
C17_2 C16_2 1_555 1_555
H9_2 C17_2 1_555 1_555
C18_2 C17_2 1_555 1_555
H10_2 C18_2 1_555 1_555
C19_2 P4_2 1_555 1_555
C20_2 C19_2 1_555 1_555
H11_2 C20_2 1_555 1_555
C21_2 C16_2 1_555 1_555
H12_2 C21_2 1_555 1_555
Zr7 O7_2 1_555 1_555
Zr10_2 O9_2 1_555 1_555
C10_4 C15_4 1_555 1_555
C14_4 C15_4 1_555 1_555
C18_2 C19_2 1_555 1_555
C20_2 C21_2 1_555 1_555
Zr1_2 O5_2 1_555 1_555
Zr2_3 O4_3 1_555 1_555
P2_3 O4_3 1_555 1_555
O5_2 P2_3 1_555 1_555
F1_2 Zr1_2 1_555 1_555
F2_2 Zr1_2 1_555 1_555
F3_2 Zr1_2 1_555 1_555
F4_3 Zr2_3 1_555 1_555
F5_3 Zr2_3 1_555 1_555
O13_2 Zr1_2 1_555 1_555
O15_2 Zr2_3 1_555 1_555
O17_3 Zr2_3 1_555 1_555
O19_2 Zr1_2 1_555 1_555
Zr2_4 O4_4 1_555 1_555
P2_4 O4_4 1_555 1_555
F4_4 Zr2_4 1_555 1_555
F5_4 Zr2_4 1_555 1_555
O11_2 P2_4 1_555 1_555
Zr7_2 O11_2 1_555 1_555
O14_2 Zr2_4 1_555 1_555
O17_4 Zr2_4 1_555 1_555
Zr4 O5_3 1_555 1_555
Zr8 O4_5 1_555 1_555
P2_5 O4_5 1_555 1_555
O5_3 P2_5 1_555 1_555
F1_3 Zr4 1_555 1_555
F2_3 Zr4 1_555 1_555
F3_3 Zr4 1_555 1_555
F4_5 Zr8 1_555 1_555
F5_5 Zr8 1_555 1_555
O13_3 Zr4 1_555 1_555
O15_3 Zr8 1_555 1_555
Zr8_2 O4_6 1_555 1_555
P2_6 O4_6 1_555 1_555
F4_6 Zr8_2 1_555 1_555
F5_6 Zr8_2 1_555 1_555
O11_3 P2_6 1_555 1_555
Zr6 O11_3 1_555 1_555
O14_3 Zr8_2 1_555 1_555
P1_3 O1_3 1_555 1_555
P3_5 O6_3 1_555 1_555
O1_3 Zr3_3 1_555 1_555
O2_3 P1_3 1_555 1_555
O3_3 P1_3 1_555 1_555
O6_3 Zr8_3 1_555 1_555
C1_3 C2_3 1_555 1_555
C2_3 H1_3 1_555 1_555
C3_3 C2_3 1_555 1_555
H2_3 C3_3 1_555 1_555
C4_3 P1_3 1_555 1_555
C5_3 C4_3 1_555 1_555
H3_3 C5_3 1_555 1_555
C6_3 C1_3 1_555 1_555
H4_3 C6_3 1_555 1_555
C11_5 P3_5 1_555 1_555
C15_5 C1_3 1_555 1_555
O12_2 P3_5 1_555 1_555
C22_3 C7_5 1_555 1_555
H13_3 C22_3 1_555 1_555
C23_3 C10_5 1_555 1_555
H14_3 C23_3 1_555 1_555
C24_3 C11_5 1_555 1_555
H15_3 C24_3 1_555 1_555
C25_3 C14_5 1_555 1_555
H16_3 C25_3 1_555 1_555
Zr3_3 F6_3 1_555 1_555
F7_3 Zr3_3 1_555 1_555
F8_3 Zr3_3 1_555 1_555
Zr4_2 O12_2 1_555 1_555
Zr10_3 O2_3 1_555 1_555
O16_3 Zr3_3 1_555 1_555
O18_3 Zr3_3 1_555 1_555
C3_3 C4_3 1_555 1_555
C5_3 C6_3 1_555 1_555
C10_5 C15_5 1_555 1_555
C14_5 C15_5 1_555 1_555
C22_3 C23_3 1_555 1_555
C24_3 C25_3 1_555 1_555
P3_6 O6_4 1_555 1_555
O6_4 Zr8_4 1_555 1_555
O7_3 P3_6 1_555 1_555
C8_3 C7_6 1_555 1_555
H5_3 C8_3 1_555 1_555
C9_3 C8_3 1_555 1_555
H6_3 C9_3 1_555 1_555
C10_6 C9_3 1_555 1_555
C11_6 P3_6 1_555 1_555
C12_3 C11_6 1_555 1_555
H7_3 C12_3 1_555 1_555
C13_3 C12_3 1_555 1_555
H8_3 C13_3 1_555 1_555
C14_6 C13_3 1_555 1_555
P4_3 O8_3 1_555 1_555
O8_3 Zr5_3 1_555 1_555
O9_3 P4_3 1_555 1_555
O10_3 P4_3 1_555 1_555
C16_3 C15_6 1_555 1_555
C17_3 C16_3 1_555 1_555
H9_3 C17_3 1_555 1_555
C18_3 C17_3 1_555 1_555
H10_3 C18_3 1_555 1_555
C19_3 P4_3 1_555 1_555
C20_3 C19_3 1_555 1_555
H11_3 C20_3 1_555 1_555
C21_3 C16_3 1_555 1_555
H12_3 C21_3 1_555 1_555
Zr6_2 O7_3 1_555 1_555
Zr10_3 O9_3 1_555 1_555
C10_6 C15_6 1_555 1_555
C14_6 C15_6 1_555 1_555
C18_3 C19_3 1_555 1_555
C20_3 C21_3 1_555 1_555
Zr4_2 O5_4 1_555 1_555
Zr8_3 O4_7 1_555 1_555
P2_7 O4_7 1_555 1_555
O5_4 P2_7 1_555 1_555
F1_4 Zr4_2 1_555 1_555
F2_4 Zr4_2 1_555 1_555
F3_4 Zr4_2 1_555 1_555
F4_7 Zr8_3 1_555 1_555
F5_7 Zr8_3 1_555 1_555
O13_4 Zr4_2 1_555 1_555
O15_4 Zr8_3 1_555 1_555
Zr8_4 O4_8 1_555 1_555
P2_8 O4_8 1_555 1_555
F4_8 Zr8_4 1_555 1_555
F5_8 Zr8_4 1_555 1_555
O11_4 P2_8 1_555 1_555
Zr6_2 O11_4 1_555 1_555
O14_4 Zr8_4 1_555 1_555
P1_4 O1_4 1_555 1_555
P3_7 O17_3 1_555 1_555
O1_4 Zr3_4 1_555 1_555
O2_4 P1_4 1_555 1_555
O3_4 P1_4 1_555 1_555
C1_4 C2_4 1_555 1_555
C2_4 H1_4 1_555 1_555
C3_4 C2_4 1_555 1_555
H2_4 C3_4 1_555 1_555
C4_4 P1_4 1_555 1_555
C5_4 C4_4 1_555 1_555
H3_4 C5_4 1_555 1_555
C6_4 C1_4 1_555 1_555
H4_4 C6_4 1_555 1_555
C11_7 P3_7 1_555 1_555
C15_7 C1_4 1_555 1_555
O19_2 P3_7 1_555 1_555
C22_4 C7_7 1_555 1_555
H13_4 C22_4 1_555 1_555
C23_4 C10_7 1_555 1_555
H14_4 C23_4 1_555 1_555
C24_4 C11_7 1_555 1_555
H15_4 C24_4 1_555 1_555
C25_4 C14_7 1_555 1_555
H16_4 C25_4 1_555 1_555
Zr3_4 F6_4 1_555 1_555
F7_4 Zr3_4 1_555 1_555
F8_4 Zr3_4 1_555 1_555
Zr10_4 O2_4 1_555 1_555
O16_4 Zr3_4 1_555 1_555
O18_4 Zr3_4 1_555 1_555
C3_4 C4_4 1_555 1_555
C5_4 C6_4 1_555 1_555
C10_7 C15_7 1_555 1_555
C14_7 C15_7 1_555 1_555
C22_4 C23_4 1_555 1_555
C24_4 C25_4 1_555 1_555
P3_8 O17_4 1_555 1_555
O7_4 P3_8 1_555 1_555
C8_4 C7_8 1_555 1_555
H5_4 C8_4 1_555 1_555
C9_4 C8_4 1_555 1_555
H6_4 C9_4 1_555 1_555
C10_8 C9_4 1_555 1_555
C11_8 P3_8 1_555 1_555
C12_4 C11_8 1_555 1_555
H7_4 C12_4 1_555 1_555
C13_4 C12_4 1_555 1_555
H8_4 C13_4 1_555 1_555
C14_8 C13_4 1_555 1_555
P4_4 O8_4 1_555 1_555
O8_4 Zr5_4 1_555 1_555
O9_4 P4_4 1_555 1_555
O10_4 P4_4 1_555 1_555
C16_4 C15_8 1_555 1_555
C17_4 C16_4 1_555 1_555
H9_4 C17_4 1_555 1_555
C18_4 C17_4 1_555 1_555
H10_4 C18_4 1_555 1_555
C19_4 P4_4 1_555 1_555
C20_4 C19_4 1_555 1_555
H11_4 C20_4 1_555 1_555
C21_4 C16_4 1_555 1_555
H12_4 C21_4 1_555 1_555
Zr7_2 O7_4 1_555 1_555
Zr10_4 O9_4 1_555 1_555
C10_8 C15_8 1_555 1_555
C14_8 C15_8 1_555 1_555
C18_4 C19_4 1_555 1_555
C20_4 C21_4 1_555 1_555
Zr5_3 O5_5 1_555 1_555
Zr10_3 O4_9 1_555 1_555
P1_5 O1_5 1_555 1_555
P2_9 O4_9 1_555 1_555
P3_9 O6_5 1_555 1_555
O1_5 Zr7_2 1_555 1_555
O14_2 P1_5 1_555 1_555
O3_5 P1_5 1_555 1_555
O5_5 P2_9 1_555 1_555
O6_5 Zr10_4 1_555 1_555
O18_4 P3_9 1_555 1_555
F1_5 Zr5_3 1_555 1_555
F2_5 Zr5_3 1_555 1_555
F3_5 Zr5_3 1_555 1_555
F4_9 Zr10_3 1_555 1_555
F5_9 Zr10_3 1_555 1_555
C1_5 C2_5 1_555 1_555
C2_5 H1_5 1_555 1_555
C3_5 C2_5 1_555 1_555
H2_5 C3_5 1_555 1_555
C4_5 P1_5 1_555 1_555
C5_5 C4_5 1_555 1_555
H3_5 C5_5 1_555 1_555
C6_5 C1_5 1_555 1_555
H4_5 C6_5 1_555 1_555
C7_9 P2_9 1_555 1_555
C8_5 C7_9 1_555 1_555
H5_5 C8_5 1_555 1_555
C9_5 C8_5 1_555 1_555
H6_5 C9_5 1_555 1_555
C10_9 C9_5 1_555 1_555
C11_9 P3_9 1_555 1_555
C12_5 C11_9 1_555 1_555
H7_5 C12_5 1_555 1_555
C13_5 C12_5 1_555 1_555
H8_5 C13_5 1_555 1_555
C14_9 C13_5 1_555 1_555
C15_9 C1_5 1_555 1_555
P4_5 O13_2 1_555 1_555
O15_2 P4_5 1_555 1_555
O10_5 P4_5 1_555 1_555
O16_3 P2_9 1_555 1_555
O12_3 P3_9 1_555 1_555
C16_5 C15_9 1_555 1_555
C17_5 C16_5 1_555 1_555
H9_5 C17_5 1_555 1_555
C18_5 C17_5 1_555 1_555
H10_5 C18_5 1_555 1_555
C19_5 P4_5 1_555 1_555
C20_5 C19_5 1_555 1_555
H11_5 C20_5 1_555 1_555
C21_5 C16_5 1_555 1_555
H12_5 C21_5 1_555 1_555
C22_5 C7_9 1_555 1_555
H13_5 C22_5 1_555 1_555
C23_5 C10_9 1_555 1_555
H14_5 C23_5 1_555 1_555
C24_5 C11_9 1_555 1_555
H15_5 C24_5 1_555 1_555
C25_5 C14_9 1_555 1_555
H16_5 C25_5 1_555 1_555
Zr7_2 F6_5 1_555 1_555
F7_5 Zr7_2 1_555 1_555
F8_5 Zr7_2 1_555 1_555
Zr5_4 O12_3 1_555 1_555
O17_5 Zr10_3 1_555 1_555
O19_3 Zr5_3 1_555 1_555
C3_5 C4_5 1_555 1_555
C5_5 C6_5 1_555 1_555
C10_9 C15_9 1_555 1_555
C14_9 C15_9 1_555 1_555
C18_5 C19_5 1_555 1_555
C20_5 C21_5 1_555 1_555
C22_5 C23_5 1_555 1_555
C24_5 C25_5 1_555 1_555
Zr5 O5_6 1_555 1_555
Zr10 O4_10 1_555 1_555
P1_6 O1_6 1_555 1_555
P2_10 O4_10 1_555 1_555
P3_10 O17_5 1_555 1_555
O1_6 Zr6_2 1_555 1_555
O14_4 P1_6 1_555 1_555
O3_6 P1_6 1_555 1_555
O5_6 P2_10 1_555 1_555
O18_3 P3_10 1_555 1_555
F1_6 Zr5 1_555 1_555
F2_6 Zr5 1_555 1_555
F3_6 Zr5 1_555 1_555
F4_10 Zr10 1_555 1_555
F5_10 Zr10 1_555 1_555
C1_6 C2_6 1_555 1_555
C2_6 H1_6 1_555 1_555
C3_6 C2_6 1_555 1_555
H2_6 C3_6 1_555 1_555
C4_6 P1_6 1_555 1_555
C5_6 C4_6 1_555 1_555
H3_6 C5_6 1_555 1_555
C6_6 C1_6 1_555 1_555
H4_6 C6_6 1_555 1_555
C7_10 P2_10 1_555 1_555
C8_6 C7_10 1_555 1_555
H5_6 C8_6 1_555 1_555
C9_6 C8_6 1_555 1_555
H6_6 C9_6 1_555 1_555
C10_10 C9_6 1_555 1_555
C11_10 P3_10 1_555 1_555
C12_6 C11_10 1_555 1_555
H7_6 C12_6 1_555 1_555
C13_6 C12_6 1_555 1_555
H8_6 C13_6 1_555 1_555
C14_10 C13_6 1_555 1_555
C15_10 C1_6 1_555 1_555
P4_6 O13_4 1_555 1_555
O15_4 P4_6 1_555 1_555
O10_6 P4_6 1_555 1_555
O16 P2_10 1_555 1_555
O19_3 P3_10 1_555 1_555
C16_6 C15_10 1_555 1_555
C17_6 C16_6 1_555 1_555
H9_6 C17_6 1_555 1_555
C18_6 C17_6 1_555 1_555
H10_6 C18_6 1_555 1_555
C19_6 P4_6 1_555 1_555
C20_6 C19_6 1_555 1_555
H11_6 C20_6 1_555 1_555
C21_6 C16_6 1_555 1_555
H12_6 C21_6 1_555 1_555
C22_6 C7_10 1_555 1_555
H13_6 C22_6 1_555 1_555
C23_6 C10_10 1_555 1_555
H14_6 C23_6 1_555 1_555
C24_6 C11_10 1_555 1_555
H15_6 C24_6 1_555 1_555
C25_6 C14_10 1_555 1_555
H16_6 C25_6 1_555 1_555
Zr6_2 F6_6 1_555 1_555
F7_6 Zr6_2 1_555 1_555
F8_6 Zr6_2 1_555 1_555
O17_6 Zr10 1_555 1_555
O19_4 Zr5 1_555 1_555
C3_6 C4_6 1_555 1_555
C5_6 C6_6 1_555 1_555
C10_10 C15_10 1_555 1_555
C14_10 C15_10 1_555 1_555
C18_6 C19_6 1_555 1_555
C20_6 C21_6 1_555 1_555
C22_6 C23_6 1_555 1_555
C24_6 C25_6 1_555 1_555
Zr5_4 O5_7 1_555 1_555
Zr10_4 O4_11 1_555 1_555
P1_7 O1_7 1_555 1_555
P2_11 O4_11 1_555 1_555
P3_11 O6_6 1_555 1_555
O1_7 Zr7 1_555 1_555
O14 P1_7 1_555 1_555
O3_7 P1_7 1_555 1_555
O5_7 P2_11 1_555 1_555
O6_6 Zr10_2 1_555 1_555
O18_2 P3_11 1_555 1_555
F1_7 Zr5_4 1_555 1_555
F2_7 Zr5_4 1_555 1_555
F3_7 Zr5_4 1_555 1_555
F4_11 Zr10_4 1_555 1_555
F5_11 Zr10_4 1_555 1_555
C1_7 C2_7 1_555 1_555
C2_7 H1_7 1_555 1_555
C3_7 C2_7 1_555 1_555
H2_7 C3_7 1_555 1_555
C4_7 P1_7 1_555 1_555
C5_7 C4_7 1_555 1_555
H3_7 C5_7 1_555 1_555
C6_7 C1_7 1_555 1_555
H4_7 C6_7 1_555 1_555
C7_11 P2_11 1_555 1_555
C8_7 C7_11 1_555 1_555
H5_7 C8_7 1_555 1_555
C9_7 C8_7 1_555 1_555
H6_7 C9_7 1_555 1_555
C10_11 C9_7 1_555 1_555
C11_11 P3_11 1_555 1_555
C12_7 C11_11 1_555 1_555
H7_7 C12_7 1_555 1_555
C13_7 C12_7 1_555 1_555
H8_7 C13_7 1_555 1_555
C14_11 C13_7 1_555 1_555
C15_11 C1_7 1_555 1_555
P4_7 O13 1_555 1_555
O15 P4_7 1_555 1_555
O10_7 P4_7 1_555 1_555
O16_4 P2_11 1_555 1_555
O12_4 P3_11 1_555 1_555
C16_7 C15_11 1_555 1_555
C17_7 C16_7 1_555 1_555
H9_7 C17_7 1_555 1_555
C18_7 C17_7 1_555 1_555
H10_7 C18_7 1_555 1_555
C19_7 P4_7 1_555 1_555
C20_7 C19_7 1_555 1_555
H11_7 C20_7 1_555 1_555
C21_7 C16_7 1_555 1_555
H12_7 C21_7 1_555 1_555
C22_7 C7_11 1_555 1_555
H13_7 C22_7 1_555 1_555
C23_7 C10_11 1_555 1_555
H14_7 C23_7 1_555 1_555
C24_7 C11_11 1_555 1_555
H15_7 C24_7 1_555 1_555
C25_7 C14_11 1_555 1_555
H16_7 C25_7 1_555 1_555
Zr7 F6_7 1_555 1_555
F7_7 Zr7 1_555 1_555
F8_7 Zr7 1_555 1_555
Zr5_2 O12_4 1_555 1_555
C3_7 C4_7 1_555 1_555
C5_7 C6_7 1_555 1_555
C10_11 C15_11 1_555 1_555
C14_11 C15_11 1_555 1_555
C18_7 C19_7 1_555 1_555
C20_7 C21_7 1_555 1_555
C22_7 C23_7 1_555 1_555
C24_7 C25_7 1_555 1_555
Zr5_2 O5_8 1_555 1_555
Zr10_2 O4_12 1_555 1_555
P1_8 O1_8 1_555 1_555
P2_12 O4_12 1_555 1_555
P3_12 O17_6 1_555 1_555
O1_8 Zr6 1_555 1_555
O14_3 P1_8 1_555 1_555
O3_8 P1_8 1_555 1_555
O5_8 P2_12 1_555 1_555
O18 P3_12 1_555 1_555
F1_8 Zr5_2 1_555 1_555
F2_8 Zr5_2 1_555 1_555
F3_8 Zr5_2 1_555 1_555
F4_12 Zr10_2 1_555 1_555
F5_12 Zr10_2 1_555 1_555
C1_8 C2_8 1_555 1_555
C2_8 H1_8 1_555 1_555
C3_8 C2_8 1_555 1_555
H2_8 C3_8 1_555 1_555
C4_8 P1_8 1_555 1_555
C5_8 C4_8 1_555 1_555
H3_8 C5_8 1_555 1_555
C6_8 C1_8 1_555 1_555
H4_8 C6_8 1_555 1_555
C7_12 P2_12 1_555 1_555
C8_8 C7_12 1_555 1_555
H5_8 C8_8 1_555 1_555
C9_8 C8_8 1_555 1_555
H6_8 C9_8 1_555 1_555
C10_12 C9_8 1_555 1_555
C11_12 P3_12 1_555 1_555
C12_8 C11_12 1_555 1_555
H7_8 C12_8 1_555 1_555
C13_8 C12_8 1_555 1_555
H8_8 C13_8 1_555 1_555
C14_12 C13_8 1_555 1_555
C15_12 C1_8 1_555 1_555
P4_8 O13_3 1_555 1_555
O15_3 P4_8 1_555 1_555
O10_8 P4_8 1_555 1_555
O16_2 P2_12 1_555 1_555
O19_4 P3_12 1_555 1_555
C16_8 C15_12 1_555 1_555
C17_8 C16_8 1_555 1_555
H9_8 C17_8 1_555 1_555
C18_8 C17_8 1_555 1_555
H10_8 C18_8 1_555 1_555
C19_8 P4_8 1_555 1_555
C20_8 C19_8 1_555 1_555
H11_8 C20_8 1_555 1_555
C21_8 C16_8 1_555 1_555
H12_8 C21_8 1_555 1_555
C22_8 C7_12 1_555 1_555
H13_8 C22_8 1_555 1_555
C23_8 C10_12 1_555 1_555
H14_8 C23_8 1_555 1_555
C24_8 C11_12 1_555 1_555
H15_8 C24_8 1_555 1_555
C25_8 C14_12 1_555 1_555
H16_8 C25_8 1_555 1_555
Zr6 F6_8 1_555 1_555
F7_8 Zr6 1_555 1_555
F8_8 Zr6 1_555 1_555
C3_8 C4_8 1_555 1_555
C5_8 C6_8 1_555 1_555
C10_12 C15_12 1_555 1_555
C14_12 C15_12 1_555 1_555
C18_8 C19_8 1_555 1_555
C20_8 C21_8 1_555 1_555
C22_8 C23_8 1_555 1_555
C24_8 C25_8 1_555 1_555

#END
