
###############################################################################
#
# This file contains modified crystal structure data generated from the
# MOF subset of the Cambridge Structural Database (CSD) v543 
# hosted by the Cambridge Crystallographic Data Centre (CCDC).
#
# This work is licensed under the Creative Commons
# Attribution-NonCommercial-ShareAlike 4.0 International License.
# To view a copy of this license, visit
# http://creativecommons.org/licenses/by-nc-sa/4.0/
# or send a letter to
# Creative Commons, PO Box 1866, Mountain View, CA 94042, USA.
#
# CIF created using the CSD Python API on 29 September 2022
# The structure has been converted into the P1 space group
# The structure has a 3D framework
# The original CSD entry BARMEP is in the monoclinic crystal system
# The framework has been calculated to contain at least 10.0% void space
# The void calculation uses a probe of radius 1.32A, grid spacing 0.4
# The framework is charged, counterions have been retained in the structure
# H atom positions have been added when not included in the experimental data
#
###############################################################################

data_BARMEP
_chemical_formula_moiety         '(C136 H112 F36 O46 P16 Zr16 6-)n'
_symmetry_cell_setting           triclinic
_symmetry_space_group_name_H-M   'P 1'
_symmetry_Int_Tables_number      1
_space_group_name_Hall           'P 1'
loop_
_symmetry_equiv_pos_site_id
_symmetry_equiv_pos_as_xyz
1 x,y,z
_cell_length_a                   16.9609(13)
_cell_length_b                   26.425(2)
_cell_length_c                   16.9629(13)
_cell_angle_alpha                90
_cell_angle_beta                 117.718(2)
_cell_angle_gamma                90
_cell_volume                     6730.21
loop_
_atom_site_label
_atom_site_type_symbol
_atom_site_fract_x
_atom_site_fract_y
_atom_site_fract_z
Zr21 Zr 0.000000 0.500000 0.000000
O39 O 0.1985(9) 0.4089(5) 0.0008(7)
Zr1 Zr 0.13100(15) 0.37522(8) 0.86915(15)
F1 F 0.0956(12) 0.3403(7) 0.7579(11)
F2 F 0.2420(11) 0.3404(7) 0.9035(13)
F3 F 0.0865(11) 0.3229(7) 0.9130(10)
O1 O 0.0002(8) 0.4084(5) 0.8043(10)
Zr13 Zr 0.00161(8) 0.55755(5) 0.69286(7)
Zr21_2 Zr -0.000000 0.500000 1.000000
O33 O 0.1716(6) 0.4417(4) 0.8290(6)
F7 F 0.4265(6) 0.5306(5) 0.0347(8)
F8 F 0.3553(8) 0.5929(6) 0.1111(7)
Zr21_3 Zr 1.000000 0.500000 0.000000
O37 O 0.2728(6) 0.4921(4) 0.0462(6)
Zr2 Zr 0.49839(8) 0.05755(5) 0.80714(7)
Zr3 Zr 0.30712(8) 0.55752(5) 0.99831(8)
P1 P 0.94267(19) 0.45497(12) 0.7854(2)
P2 P 0.4178(2) 0.09377(10) 0.58240(19)
P3 P 0.2009(2) 0.48873(12) 0.7991(2)
P4 P 0.2150(2) 0.45488(12) 0.05749(18)
F4 F 0.6106(7) 0.0931(6) 0.8546(8)
F5 F 0.4419(7) 0.1178(4) 0.8300(7)
F6 F 0.5349(8) 0.0304(5) 0.9265(6)
F9 F 0.3305(7) 0.6181(4) 0.9420(7)
O2 O 0.9619(5) 0.4757(3) 0.8740(5)
O3 O 0.9535(6) 0.4920(4) 0.7266(6)
O4 O 0.4617(7) 0.0813(3) 0.6797(6)
O5 O 0.3204(6) 0.0812(3) 0.5393(7)
O6 O 0.4656(5) 0.0684(2) 0.5347(5)
O7 O 0.2655(6) 0.5195(4) 0.8767(6)
O9 O 0.1232(6) 0.5197(4) 0.7344(6)
O10 O 0.1265(5) 0.4757(3) 0.0385(5)
C1 C 0.8276(7) 0.4353(4) 0.7304(7)
C2 C 0.7849(8) 0.4213(6) 0.7778(9)
H1 H 0.816022 0.419317 0.839563
C3 C 0.6945(8) 0.4100(6) 0.7334(8)
H2 H 0.665977 0.400828 0.766735
C4 C 0.6460(6) 0.4118(4) 0.6430(6)
C5 C 0.6907(8) 0.4301(5) 0.5978(8)
H3 H 0.659325 0.434856 0.536483
C6 C 0.7779(9) 0.4412(6) 0.6405(9)
H4 H 0.805380 0.453337 0.607844
C7 C 0.4266(6) 0.1602(3) 0.5737(6)
C8 C 0.3892(9) 0.1934(5) 0.6111(9)
H5 H 0.359937 0.179725 0.640839
C9 C 0.3931(8) 0.2422(4) 0.6066(8)
H6 H 0.366143 0.261824 0.632821
C10 C 0.4351(5) 0.2661(3) 0.5650(6)
C11 C 0.5392(6) 0.3397(3) 0.6045(5)
H7 H 0.570461 0.322556 0.576741
H8 H 0.566991 0.330176 0.666887
C12 C 0.4730(8) 0.2358(4) 0.5290(8)
H9 H 0.503551 0.250128 0.501063
C13 C 0.4678(9) 0.1823(5) 0.5326(9)
H10 H 0.493571 0.162309 0.505653
C14 C 0.2608(7) 0.4683(4) 0.7399(7)
C15 C 0.2169(10) 0.4595(7) 0.6511(10)
C16 C 0.2637(9) 0.4441(6) 0.6065(10)
C17 C 0.3932(10) 0.4433(6) 0.7365(9)
C18 C 0.3480(10) 0.4592(7) 0.7837(10)
C19 C 0.3509(6) 0.4326(4) 0.6492(6)
C20 C 0.2700(7) 0.4352(4) 0.1723(7)
C21 C 0.2235(9) 0.4217(6) 0.2147(8)
H11 H 0.161740 0.419617 0.183372
C22 C 0.2671(8) 0.4109(6) 0.3056(8)
H12 H 0.233090 0.402428 0.333750
C23 C 0.3559(6) 0.4123(4) 0.3541(6)
C24 C 0.4022(8) 0.4292(5) 0.3080(8)
H13 H 0.463914 0.431918 0.338111
C25 C 0.3588(9) 0.4413(6) 0.2225(9)
H14 H 0.391098 0.454681 0.195619
C26 C 0.4013(6) 0.4086(3) 0.5996(6)
C27 C 0.4042(6) 0.3987(3) 0.4534(6)
C28 C 0.5468(6) 0.3982(4) 0.5965(6)
C29 C 0.4406(6) 0.3231(3) 0.5591(6)
C30 C 0.3567(6) 0.4244(4) 0.5014(6)
H15 H 0.359630 0.460831 0.496946
H16 H 0.294463 0.414492 0.473220
C31 C 0.5023(6) 0.4133(4) 0.4983(6)
H17 H 0.507760 0.449580 0.493326
H18 H 0.531971 0.396586 0.468561
C32 C 0.3937(6) 0.3522(3) 0.6067(6)
H19 H 0.331302 0.342719 0.579640
H20 H 0.420913 0.342531 0.668976
C33 C 0.4988(6) 0.4242(4) 0.6437(6)
H21 H 0.526998 0.414538 0.706046
H22 H 0.503353 0.460652 0.640436
C34 C 0.3959(6) 0.3400(3) 0.4613(6)
H23 H 0.333448 0.330667 0.433314
H24 H 0.423607 0.322808 0.430036
Zr17 Zr 0.19288(8) 0.05752(5) 0.50169(8)
Zr21_4 Zr 1.000000 0.500000 1.000000
Zr23 Zr 0.500000 -0.000000 0.500000
O26 O 0.0381(5) 0.5243(3) 0.1260(5)
O29 O 0.1796(6) 0.5812(3) 0.9607(7)
O35 O 0.3768(6) 0.0197(4) 0.7656(6)
H49 H 0.384057 0.464051 0.855657
H50 H 0.144982 0.464499 0.614736
H51 H 0.228453 0.441223 0.534179
H52 H 0.465384 0.439522 0.77221
O31 O 0.0344(5) 0.5684(2) 0.9653(5)
Zr23_2 Zr 0.500000 1.000000 0.500000
O27 O 0.5465(6) 0.9920(4) 0.7734(6)
O28 O 0.4535(6) 0.0080(4) 0.2266(6)
Zr11 Zr 0.86900(15) 0.62478(8) 0.13085(15)
Zr18 Zr 0.69288(8) 0.44248(5) 0.00169(8)
O32 O 0.9656(5) 0.4316(2) 0.0347(5)
Zr6 Zr 0.50161(8) 0.94245(5) 0.19286(7)
P5 P 0.05733(19) 0.54503(12) 0.2146(2)
P6 P 0.5822(2) 0.90623(10) 0.41760(19)
P7 P 0.7991(2) 0.51127(12) 0.2009(2)
P8 P 0.7850(2) 0.54512(12) 0.94251(18)
F13 F 0.3894(7) 0.9069(6) 0.1454(8)
F14 F 0.5581(7) 0.8822(4) 0.1700(7)
F15 F 0.4651(8) 0.9696(5) 0.0735(6)
F18 F 0.6695(7) 0.3819(4) 0.0580(7)
O15 O 0.0465(6) 0.5080(4) 0.2734(6)
O16 O 0.5383(7) 0.9187(3) 0.3203(6)
O17 O 0.6796(6) 0.9188(3) 0.4607(7)
O18 O 0.5344(5) 0.9316(2) 0.4653(5)
O19 O 0.7345(6) 0.4805(4) 0.1233(6)
O20 O 0.8284(6) 0.5583(4) 0.1710(6)
O21 O 0.8768(6) 0.4803(4) 0.2656(6)
O22 O 0.8735(5) 0.5243(3) 0.9615(5)
O23 O 0.7272(6) 0.5079(4) 0.9538(6)
O24 O 0.8015(9) 0.5911(5) 0.9992(7)
C35 C 0.1724(7) 0.5647(4) 0.2696(7)
C36 C 0.2151(8) 0.5787(6) 0.2222(9)
H25 H 0.183978 0.580683 0.160437
C37 C 0.3055(8) 0.5900(6) 0.2666(8)
H26 H 0.334023 0.599172 0.233265
C38 C 0.3540(6) 0.5882(4) 0.3570(6)
C39 C 0.3093(8) 0.5699(5) 0.4022(8)
H27 H 0.340675 0.565144 0.463517
C40 C 0.2221(9) 0.5588(6) 0.3595(9)
H28 H 0.194620 0.546663 0.392156
C41 C 0.5734(6) 0.8398(3) 0.4263(6)
C42 C 0.6108(9) 0.8066(5) 0.3889(9)
H29 H 0.640063 0.820275 0.359161
C43 C 0.6069(8) 0.7578(4) 0.3934(8)
H30 H 0.633857 0.738176 0.367179
C44 C 0.5649(5) 0.7339(3) 0.4350(6)
C45 C 0.4608(6) 0.6603(3) 0.3955(5)
H31 H 0.429539 0.677444 0.423259
H32 H 0.433009 0.669824 0.333113
C46 C 0.5270(8) 0.7642(4) 0.4710(8)
H33 H 0.496449 0.749872 0.498937
C47 C 0.5322(9) 0.8177(5) 0.4674(9)
H34 H 0.506429 0.837691 0.494347
C48 C 0.7392(7) 0.5317(4) 0.2601(7)
C49 C 0.7831(10) 0.5405(7) 0.3489(10)
C50 C 0.7363(9) 0.5559(6) 0.3935(10)
C51 C 0.6068(10) 0.5567(6) 0.2635(9)
C52 C 0.6520(10) 0.5408(7) 0.2163(10)
C53 C 0.6491(6) 0.5674(4) 0.3508(6)
C54 C 0.7300(7) 0.5648(4) 0.8277(7)
C55 C 0.7765(9) 0.5783(6) 0.7853(8)
H35 H 0.838260 0.580383 0.816628
C56 C 0.7329(8) 0.5891(6) 0.6944(8)
H36 H 0.766910 0.597572 0.666250
C57 C 0.6441(6) 0.5877(4) 0.6459(6)
C58 C 0.5978(8) 0.5708(5) 0.6920(8)
H37 H 0.536086 0.568082 0.661889
C59 C 0.6412(9) 0.5587(6) 0.7775(9)
H38 H 0.608902 0.545319 0.804381
C60 C 0.5987(6) 0.5914(3) 0.4004(6)
C61 C 0.5958(6) 0.6013(3) 0.5466(6)
C62 C 0.4532(6) 0.6018(4) 0.4035(6)
C63 C 0.5594(6) 0.6769(3) 0.4409(6)
C64 C 0.6433(6) 0.5756(4) 0.4986(6)
H39 H 0.640370 0.539169 0.503054
H40 H 0.705537 0.585508 0.526780
C65 C 0.4977(6) 0.5867(4) 0.5017(6)
H41 H 0.492240 0.550420 0.506674
H42 H 0.468029 0.603414 0.531439
C66 C 0.6063(6) 0.6478(3) 0.3933(6)
H43 H 0.668698 0.657281 0.420360
H44 H 0.579087 0.657469 0.331024
C67 C 0.5012(6) 0.5758(4) 0.3563(6)
H45 H 0.473002 0.585462 0.293954
H46 H 0.496647 0.539348 0.359564
C68 C 0.6041(6) 0.6600(3) 0.5387(6)
H47 H 0.666552 0.669333 0.566686
H48 H 0.576393 0.677192 0.569964
Zr15 Zr 0.99839(8) 0.44245(5) 0.30714(7)
Zr19 Zr 0.80712(8) 0.94248(5) 0.49831(8)
O30 O 0.8204(6) 0.4188(3) 0.0393(7)
O36 O 0.6232(6) 0.9803(4) 0.2344(6)
H53 H 0.615943 0.535949 0.144343
H54 H 0.534616 0.560478 0.22779
H55 H 0.771547 0.558777 0.465821
H56 H 0.855018 0.535501 0.385264
F16 F 0.5735(6) 0.4694(5) 0.9653(8)
F17 F 0.6447(8) 0.4071(6) 0.8889(7)
F10 F 0.9044(12) 0.6597(7) 0.2421(11)
F11 F 0.7580(11) 0.6596(7) 0.0965(13)
F12 F 0.9135(11) 0.6771(7) 0.0870(10)
O13 O 0.9998(8) 0.5916(5) 0.1957(10)
Zr5 Zr 0.63100(15) 0.12478(8) 0.36915(15)
P5_2 P 0.44267(19) 0.04503(12) 0.2854(2)
F10_2 F 0.5956(12) 0.1597(7) 0.2579(11)
F11_2 F 0.7420(11) 0.1596(7) 0.4035(13)
F12_2 F 0.5865(11) 0.1771(7) 0.4130(10)
F13_2 F 0.1106(7) 0.4069(6) 0.3546(8)
F15_2 F 0.0349(8) 0.4696(5) 0.4265(6)
O13_2 O 0.5002(8) 0.0916(5) 0.3043(10)
O14 O 0.4619(5) 0.0243(3) 0.3740(5)
C35_2 C 0.3276(7) 0.0647(4) 0.2304(7)
C36_2 C 0.2849(8) 0.0787(6) 0.2778(9)
H25_2 H 0.316022 0.080683 0.339563
C37_2 C 0.1945(8) 0.0900(6) 0.2334(8)
H26_2 H 0.165977 0.099172 0.266735
C38_2 C 0.1460(6) 0.0882(4) 0.1430(6)
C39_2 C 0.1907(8) 0.0699(5) 0.0978(8)
H27_2 H 0.159325 0.065144 0.036483
C40_2 C 0.2779(9) 0.0588(6) 0.1405(9)
H28_2 H 0.305380 0.046663 0.107844
C45_2 C 0.0392(6) 0.1603(3) 0.1045(5)
H31_2 H 0.070461 0.177444 0.076741
H32_2 H 0.066991 0.169824 0.166887
H33_2 H 0.003551 0.249872 0.001063
C62_2 C 0.0468(6) 0.1018(4) 0.0965(6)
H45_2 H 0.026998 0.085462 0.206046
H46_2 H 0.003353 0.039348 0.140436
O34 O 0.6716(6) 0.0583(4) 0.3290(6)
O40 O 0.6985(9) 0.0911(5) 0.5008(7)
C65_2 C 0.0023(6) 0.0867(4) 0.9983(6)
H41_2 H 0.007760 0.050420 0.993326
H42_2 H 0.031971 0.103414 0.968561
P6_2 P 0.9178(2) 0.40623(10) 0.08240(19)
P7_2 P 0.7009(2) 0.01127(12) 0.2991(2)
F14_2 F 0.9419(7) 0.3822(4) 0.3300(7)
O16_2 O 0.9617(7) 0.4187(3) 0.1797(6)
C41_2 C 0.9266(6) 0.3398(3) 0.0737(6)
C42_2 C 0.8892(9) 0.3066(5) 0.1111(9)
H29_2 H 0.859937 0.320275 0.140839
C43_2 C 0.8931(8) 0.2578(4) 0.1066(8)
H30_2 H 0.866143 0.238176 0.132821
C44_2 C 0.9351(5) 0.2339(3) 0.0650(6)
C46_2 C 0.9730(8) 0.2642(4) 0.0290(8)
C47_2 C 0.9678(9) 0.3177(5) 0.0326(9)
H34_2 H 0.993571 0.337691 0.005653
C48_2 C 0.7608(7) 0.0317(4) 0.2399(7)
C49_2 C 0.7169(10) 0.0405(7) 0.1511(10)
C50_2 C 0.7637(9) 0.0559(6) 0.1065(10)
C51_2 C 0.8932(10) 0.0567(6) 0.2365(9)
C52_2 C 0.8480(10) 0.0408(7) 0.2837(10)
C53_2 C 0.8509(6) 0.0674(4) 0.1492(6)
C60_2 C 0.9013(6) 0.0914(3) 0.0996(6)
C63_2 C 0.9406(6) 0.1769(3) 0.0591(6)
C64_2 C 0.8567(6) 0.0756(4) 0.0014(6)
C66_2 C 0.8937(6) 0.1478(3) 0.1067(6)
H43_2 H 0.831302 0.157281 0.079640
H44_2 H 0.920913 0.157469 0.168976
C67_2 C 0.9988(6) 0.0758(4) 0.1437(6)
O38 O 0.7728(6) 0.0079(4) 0.5462(6)
H53_2 H 0.884057 0.0359487 0.355657
H54_2 H 0.965384 0.0604781 0.27221
H55_2 H 0.728453 0.0587773 0.0341788
H56_2 H 0.644982 0.0355009 0.114736
P8_2 P 0.7150(2) 0.04512(12) 0.55749(18)
O22_2 O 0.6265(5) 0.0243(3) 0.5385(5)
C54_2 C 0.7700(7) 0.0648(4) 0.6723(7)
C55_2 C 0.7235(9) 0.0783(6) 0.7147(8)
H35_2 H 0.661740 0.080383 0.683372
C56_2 C 0.7671(8) 0.0891(6) 0.8056(8)
H36_2 H 0.733090 0.097572 0.833750
C57_2 C 0.8559(6) 0.0877(4) 0.8541(6)
C58_2 C 0.9022(8) 0.0708(5) 0.8080(8)
H37_2 H 0.963914 0.068082 0.838111
C59_2 C 0.8588(9) 0.0587(6) 0.7225(9)
H38_2 H 0.891098 0.045319 0.695619
C61_2 C 0.9042(6) 0.1013(3) 0.9534(6)
H39_2 H 0.859630 0.039169 0.996946
H40_2 H 0.794463 0.085508 0.973220
C68_2 C 0.8959(6) 0.1600(3) 0.9613(6)
H47_2 H 0.833448 0.169333 0.933314
H48_2 H 0.923607 0.177192 0.930036
F7_2 F 0.0735(6) 0.0306(5) 0.4653(8)
F8_2 F 0.1447(8) 0.0929(6) 0.3889(7)
F9_2 F 0.1695(7) 0.1181(4) 0.5580(7)
O7_2 O 0.2345(6) 0.0195(4) 0.6233(6)
F16_2 F 0.9265(6) 0.9694(5) 0.5347(8)
F17_2 F 0.8553(8) 0.9071(6) 0.6111(7)
F18_2 F 0.8305(7) 0.8819(4) 0.4420(7)
O19_2 O 0.7655(6) 0.9805(4) 0.3767(6)
P4_2 P 0.2850(2) 0.95488(12) 0.44251(18)
O10_2 O 0.3735(5) 0.9757(3) 0.4615(5)
O11 O 0.2272(6) 0.9921(4) 0.4538(6)
O12 O 0.3015(9) 0.9089(5) 0.4992(7)
C20_2 C 0.2300(7) 0.9352(4) 0.3277(7)
C21_2 C 0.2765(9) 0.9217(6) 0.2853(8)
H11_2 H 0.338260 0.919617 0.316628
C22_2 C 0.2329(8) 0.9109(6) 0.1944(8)
H12_2 H 0.266910 0.902428 0.166250
C23_2 C 0.1441(6) 0.9123(4) 0.1459(6)
C24_2 C 0.0978(8) 0.9292(5) 0.1920(8)
H13_2 H 0.036086 0.931918 0.161889
C25_2 C 0.1412(9) 0.9413(6) 0.2775(9)
H14_2 H 0.108902 0.954681 0.304381
C27_2 C 0.0958(6) 0.8987(3) 0.0466(6)
H15_2 H 0.140370 0.960831 0.003054
H16_2 H 0.205537 0.914492 0.026780
C34_2 C 0.1041(6) 0.8400(3) 0.0387(6)
H23_2 H 0.166552 0.830667 0.066686
H24_2 H 0.076393 0.822808 0.069964
Zr8 Zr 0.36900(15) 0.87522(8) 0.63085(15)
O25 O 0.5381(5) 0.9757(3) 0.6260(5)
P2_2 P 0.0822(2) 0.59377(10) 0.91760(19)
P3_2 P 0.2991(2) 0.98873(12) 0.7009(2)
F5_2 F 0.0581(7) 0.6178(4) 0.6700(7)
O4_2 O 0.0383(7) 0.5813(3) 0.8203(6)
O8 O 0.3284(6) 0.9417(4) 0.6710(6)
C7_2 C 0.0734(6) 0.6602(3) 0.9263(6)
C8_2 C 0.1108(9) 0.6934(5) 0.8889(9)
H5_2 H 0.140063 0.679725 0.859161
C9_2 C 0.1069(8) 0.7422(4) 0.8934(8)
H6_2 H 0.133857 0.761824 0.867179
C10_2 C 0.0649(5) 0.7661(3) 0.9350(6)
C12_2 C 0.0270(8) 0.7358(4) 0.9710(8)
C13_2 C 0.0322(9) 0.6823(5) 0.9674(9)
H10_2 H 0.006429 0.662309 0.994347
C14_2 C 0.2392(7) 0.9683(4) 0.7601(7)
C15_2 C 0.2831(10) 0.9595(7) 0.8489(10)
C16_2 C 0.2363(9) 0.9441(6) 0.8935(10)
C17_2 C 0.1068(10) 0.9433(6) 0.7635(9)
C18_2 C 0.1520(10) 0.9592(7) 0.7163(10)
C19_2 C 0.1491(6) 0.9326(4) 0.8508(6)
C26_2 C 0.0987(6) 0.9086(3) 0.9004(6)
C29_2 C 0.0594(6) 0.8231(3) 0.9409(6)
C30_2 C 0.1433(6) 0.9244(4) 0.9986(6)
C32_2 C 0.1063(6) 0.8522(3) 0.8933(6)
H19_2 H 0.168698 0.842719 0.920360
H20_2 H 0.079087 0.842531 0.831024
C33_2 C 0.0012(6) 0.9242(4) 0.8563(6)
H49_2 H 0.115943 0.964051 0.644343
H50_2 H 0.355018 0.964499 0.885264
H51_2 H 0.271547 0.941223 0.965821
H52_2 H 0.0346165 0.939522 0.72779
C31_2 C 0.9977(6) 0.9133(4) 0.0017(6)
H17_2 H 0.992240 0.949580 0.006674
H18_2 H 0.968029 0.896586 0.031439
P1_2 P 0.55733(19) 0.95497(12) 0.7146(2)
F1_2 F 0.4044(12) 0.8403(7) 0.7421(11)
F2_2 F 0.2580(11) 0.8404(7) 0.5965(13)
F3_2 F 0.4135(11) 0.8229(7) 0.5870(10)
F4_2 F 0.8894(7) 0.5931(6) 0.6454(8)
F6_2 F 0.9651(8) 0.5304(5) 0.5735(6)
O1_2 O 0.4998(8) 0.9084(5) 0.6957(10)
C1_2 C 0.6724(7) 0.9353(4) 0.7696(7)
C2_2 C 0.7151(8) 0.9213(6) 0.7222(9)
H1_2 H 0.683978 0.919317 0.660437
C3_2 C 0.8055(8) 0.9100(6) 0.7666(8)
H2_2 H 0.834023 0.900828 0.733265
C4_2 C 0.8540(6) 0.9118(4) 0.8570(6)
C5_2 C 0.8093(8) 0.9301(5) 0.9022(8)
H3_2 H 0.840675 0.934856 0.963517
C6_2 C 0.7221(9) 0.9412(6) 0.8595(9)
H4_2 H 0.694620 0.953337 0.892156
C11_2 C 0.9608(6) 0.8397(3) 0.8955(5)
H7_2 H 0.929539 0.822556 0.923259
H8_2 H 0.933009 0.830176 0.833113
H9_2 H 0.996449 0.750128 0.998937
C28_2 C 0.9532(6) 0.8982(4) 0.9035(6)
H21_2 H 0.973002 0.914538 0.793954
H22_2 H 0.996647 0.960652 0.859564
loop_
_geom_bond_atom_site_label_1
_geom_bond_atom_site_label_2
_geom_bond_site_symmetry_1
_geom_bond_site_symmetry_2
Zr1 F1 1_555 1_555
F2 Zr1 1_555 1_555
F3 Zr1 1_555 1_555
O1 Zr1 1_555 1_555
O33 Zr1 1_555 1_555
Zr2 F4 1_555 1_555
Zr21 O10 1_555 1_555
P2 O4 1_555 1_555
P3 O7 1_555 1_555
P4 O10 1_555 1_555
F5 Zr2 1_555 1_555
F6 Zr2 1_555 1_555
F9 Zr3 1_555 1_555
O2 P1 1_555 1_555
O3 P1 1_555 1_555
O4 Zr2 1_555 1_555
O5 P2 1_555 1_555
O6 P2 1_555 1_555
O7 Zr3 1_555 1_555
O33 P3 1_555 1_555
O9 P3 1_555 1_555
O37 P4 1_555 1_555
O39 P4 1_555 1_555
C1 P1 1_555 1_555
C2 C1 1_555 1_555
H1 C2 1_555 1_555
C3 C2 1_555 1_555
H2 C3 1_555 1_555
C4 C3 1_555 1_555
C5 C4 1_555 1_555
H3 C5 1_555 1_555
C6 C1 1_555 1_555
H4 C6 1_555 1_555
C7 P2 1_555 1_555
C8 C7 1_555 1_555
H5 C8 1_555 1_555
C9 C8 1_555 1_555
H6 C9 1_555 1_555
C10 C9 1_555 1_555
C11 H7 1_555 1_555
H8 C11 1_555 1_555
C12 C10 1_555 1_555
H9 C12 1_555 1_555
C13 C7 1_555 1_555
H10 C13 1_555 1_555
C14 P3 1_555 1_555
C15 C14 1_555 1_555
C16 C15 1_555 1_555
C17 C18 1_555 1_555
C18 C14 1_555 1_555
C19 C16 1_555 1_555
C20 P4 1_555 1_555
C21 C20 1_555 1_555
H11 C21 1_555 1_555
C22 C21 1_555 1_555
H12 C22 1_555 1_555
C23 C22 1_555 1_555
C24 C23 1_555 1_555
H13 C24 1_555 1_555
C25 C20 1_555 1_555
H14 C25 1_555 1_555
C26 C19 1_555 1_555
C27 C23 1_555 1_555
C28 C4 1_555 1_555
C29 C10 1_555 1_555
C30 C26 1_555 1_555
H15 C30 1_555 1_555
H16 C30 1_555 1_555
C31 C27 1_555 1_555
H17 C31 1_555 1_555
H18 C31 1_555 1_555
C32 C26 1_555 1_555
H19 C32 1_555 1_555
H20 C32 1_555 1_555
C33 C26 1_555 1_555
H21 C33 1_555 1_555
H22 C33 1_555 1_555
C34 C27 1_555 1_555
H23 C34 1_555 1_555
H24 C34 1_555 1_555
Zr13 O9 1_555 1_555
Zr17 O5 1_555 1_555
Zr21_4 O2 1_555 1_555
Zr23 O6 1_555 1_555
O26 Zr21 1_555 1_555
O29 Zr3 1_555 1_555
O35 Zr2 1_555 1_555
C5 C6 1_555 1_555
C11 C28 1_555 1_555
C11 C29 1_555 1_555
C12 C13 1_555 1_555
C17 C19 1_555 1_555
C24 C25 1_555 1_555
C27 C30 1_555 1_555
C28 C31 1_555 1_555
C28 C33 1_555 1_555
C29 C32 1_555 1_555
C29 C34 1_555 1_555
C18 H49 1_555 1_555
C15 H50 1_555 1_555
C16 H51 1_555 1_555
C17 H52 1_555 1_555
O31 Zr21_2 1_555 1_555
O32 Zr21_3 1_555 1_555
Zr6 F13 1_555 1_555
P6 O16 1_555 1_555
P7 O19 1_555 1_555
P8 O22 1_555 1_555
F14 Zr6 1_555 1_555
F15 Zr6 1_555 1_555
F18 Zr18 1_555 1_555
O26 P5 1_555 1_555
O15 P5 1_555 1_555
O16 Zr6 1_555 1_555
O17 P6 1_555 1_555
O18 P6 1_555 1_555
O19 Zr18 1_555 1_555
O20 P7 1_555 1_555
O21 P7 1_555 1_555
O22 Zr21_4 1_555 1_555
O23 P8 1_555 1_555
O24 P8 1_555 1_555
C35 P5 1_555 1_555
C36 C35 1_555 1_555
H25 C36 1_555 1_555
C37 C36 1_555 1_555
H26 C37 1_555 1_555
C38 C37 1_555 1_555
C39 C38 1_555 1_555
H27 C39 1_555 1_555
C40 C35 1_555 1_555
H28 C40 1_555 1_555
C41 P6 1_555 1_555
C42 C41 1_555 1_555
H29 C42 1_555 1_555
C43 C42 1_555 1_555
H30 C43 1_555 1_555
C44 C43 1_555 1_555
C45 H31 1_555 1_555
H32 C45 1_555 1_555
C46 C44 1_555 1_555
H33 C46 1_555 1_555
C47 C41 1_555 1_555
H34 C47 1_555 1_555
C48 P7 1_555 1_555
C49 C48 1_555 1_555
C50 C49 1_555 1_555
C51 C52 1_555 1_555
C52 C48 1_555 1_555
C53 C50 1_555 1_555
C54 P8 1_555 1_555
C55 C54 1_555 1_555
H35 C55 1_555 1_555
C56 C55 1_555 1_555
H36 C56 1_555 1_555
C57 C56 1_555 1_555
C58 C57 1_555 1_555
H37 C58 1_555 1_555
C59 C54 1_555 1_555
H38 C59 1_555 1_555
C60 C53 1_555 1_555
C61 C57 1_555 1_555
C62 C38 1_555 1_555
C63 C44 1_555 1_555
C64 C60 1_555 1_555
H39 C64 1_555 1_555
H40 C64 1_555 1_555
C65 C61 1_555 1_555
H41 C65 1_555 1_555
H42 C65 1_555 1_555
C66 C60 1_555 1_555
H43 C66 1_555 1_555
H44 C66 1_555 1_555
C67 C60 1_555 1_555
H45 C67 1_555 1_555
H46 C67 1_555 1_555
C68 C61 1_555 1_555
H47 C68 1_555 1_555
H48 C68 1_555 1_555
Zr11 O20 1_555 1_555
Zr15 O21 1_555 1_555
Zr19 O17 1_555 1_555
Zr23_2 O18 1_555 1_555
O30 Zr18 1_555 1_555
O36 Zr6 1_555 1_555
C39 C40 1_555 1_555
C45 C62 1_555 1_555
C45 C63 1_555 1_555
C46 C47 1_555 1_555
C51 C53 1_555 1_555
C58 C59 1_555 1_555
C61 C64 1_555 1_555
C62 C65 1_555 1_555
C62 C67 1_555 1_555
C63 C66 1_555 1_555
C63 C68 1_555 1_555
C52 H53 1_555 1_555
C51 H54 1_555 1_555
C50 H55 1_555 1_555
C49 H56 1_555 1_555
Zr11 F10 1_555 1_555
F11 Zr11 1_555 1_555
F12 Zr11 1_555 1_555
O13 Zr11 1_555 1_555
Zr5 F10_2 1_555 1_555
P5_2 O13_2 1_555 1_555
F11_2 Zr5 1_555 1_555
F12_2 Zr5 1_555 1_555
O13_2 Zr5 1_555 1_555
O14 P5_2 1_555 1_555
O28 P5_2 1_555 1_555
C35_2 P5_2 1_555 1_555
C36_2 C35_2 1_555 1_555
H25_2 C36_2 1_555 1_555
C37_2 C36_2 1_555 1_555
H26_2 C37_2 1_555 1_555
C38_2 C37_2 1_555 1_555
C39_2 C38_2 1_555 1_555
H27_2 C39_2 1_555 1_555
C40_2 C35_2 1_555 1_555
H28_2 C40_2 1_555 1_555
C45_2 H31_2 1_555 1_555
H32_2 C45_2 1_555 1_555
C62_2 C38_2 1_555 1_555
Zr23 O14 1_555 1_555
O34 Zr5 1_555 1_555
O40 Zr5 1_555 1_555
C39_2 C40_2 1_555 1_555
C45_2 C62_2 1_555 1_555
H41_2 C65_2 1_555 1_555
H42_2 C65_2 1_555 1_555
P6_2 O16_2 1_555 1_555
F14_2 Zr15 1_555 1_555
O16_2 Zr15 1_555 1_555
O30 P6_2 1_555 1_555
O32 P6_2 1_555 1_555
O34 P7_2 1_555 1_555
C41_2 P6_2 1_555 1_555
C42_2 C41_2 1_555 1_555
H29_2 C42_2 1_555 1_555
C43_2 C42_2 1_555 1_555
H30_2 C43_2 1_555 1_555
C44_2 C43_2 1_555 1_555
C46_2 C44_2 1_555 1_555
C47_2 C41_2 1_555 1_555
H34_2 C47_2 1_555 1_555
C48_2 P7_2 1_555 1_555
C49_2 C48_2 1_555 1_555
C50_2 C49_2 1_555 1_555
C51_2 C52_2 1_555 1_555
C52_2 C48_2 1_555 1_555
C53_2 C50_2 1_555 1_555
C60_2 C53_2 1_555 1_555
C63_2 C44_2 1_555 1_555
C64_2 C60_2 1_555 1_555
C66_2 C60_2 1_555 1_555
H43_2 C66_2 1_555 1_555
H44_2 C66_2 1_555 1_555
C67_2 C60_2 1_555 1_555
C46_2 C47_2 1_555 1_555
C51_2 C53_2 1_555 1_555
C63_2 C66_2 1_555 1_555
C52_2 H53_2 1_555 1_555
C51_2 H54_2 1_555 1_555
C50_2 H55_2 1_555 1_555
C49_2 H56_2 1_555 1_555
P8_2 O22_2 1_555 1_555
O22_2 Zr23 1_555 1_555
O38 P8_2 1_555 1_555
O40 P8_2 1_555 1_555
C54_2 P8_2 1_555 1_555
C55_2 C54_2 1_555 1_555
H35_2 C55_2 1_555 1_555
C56_2 C55_2 1_555 1_555
H36_2 C56_2 1_555 1_555
C57_2 C56_2 1_555 1_555
C58_2 C57_2 1_555 1_555
H37_2 C58_2 1_555 1_555
C59_2 C54_2 1_555 1_555
H38_2 C59_2 1_555 1_555
C61_2 C57_2 1_555 1_555
C68_2 C61_2 1_555 1_555
H47_2 C68_2 1_555 1_555
H48_2 C68_2 1_555 1_555
C58_2 C59_2 1_555 1_555
Zr17 F7_2 1_555 1_555
F8_2 Zr17 1_555 1_555
F9_2 Zr17 1_555 1_555
O7_2 Zr17 1_555 1_555
Zr19 F16_2 1_555 1_555
F17_2 Zr19 1_555 1_555
F18_2 Zr19 1_555 1_555
O19_2 Zr19 1_555 1_555
Zr23_2 O10_2 1_555 1_555
P4_2 O10_2 1_555 1_555
O11 P4_2 1_555 1_555
O12 P4_2 1_555 1_555
C20_2 P4_2 1_555 1_555
C21_2 C20_2 1_555 1_555
H11_2 C21_2 1_555 1_555
C22_2 C21_2 1_555 1_555
H12_2 C22_2 1_555 1_555
C23_2 C22_2 1_555 1_555
C24_2 C23_2 1_555 1_555
H13_2 C24_2 1_555 1_555
C25_2 C20_2 1_555 1_555
H14_2 C25_2 1_555 1_555
C27_2 C23_2 1_555 1_555
C34_2 C27_2 1_555 1_555
H23_2 C34_2 1_555 1_555
H24_2 C34_2 1_555 1_555
Zr8 O12 1_555 1_555
O25 Zr23_2 1_555 1_555
C24_2 C25_2 1_555 1_555
P2_2 O4_2 1_555 1_555
F5_2 Zr13 1_555 1_555
O4_2 Zr13 1_555 1_555
O29 P2_2 1_555 1_555
O31 P2_2 1_555 1_555
O8 P3_2 1_555 1_555
C7_2 P2_2 1_555 1_555
C8_2 C7_2 1_555 1_555
H5_2 C8_2 1_555 1_555
C9_2 C8_2 1_555 1_555
H6_2 C9_2 1_555 1_555
C10_2 C9_2 1_555 1_555
C12_2 C10_2 1_555 1_555
C13_2 C7_2 1_555 1_555
H10_2 C13_2 1_555 1_555
C14_2 P3_2 1_555 1_555
C15_2 C14_2 1_555 1_555
C16_2 C15_2 1_555 1_555
C17_2 C18_2 1_555 1_555
C18_2 C14_2 1_555 1_555
C19_2 C16_2 1_555 1_555
C26_2 C19_2 1_555 1_555
C29_2 C10_2 1_555 1_555
C30_2 C26_2 1_555 1_555
C32_2 C26_2 1_555 1_555
H19_2 C32_2 1_555 1_555
H20_2 C32_2 1_555 1_555
C33_2 C26_2 1_555 1_555
Zr8 O8 1_555 1_555
C12_2 C13_2 1_555 1_555
C17_2 C19_2 1_555 1_555
C29_2 C32_2 1_555 1_555
C18_2 H49_2 1_555 1_555
C15_2 H50_2 1_555 1_555
C16_2 H51_2 1_555 1_555
C17_2 H52_2 1_555 1_555
H17_2 C31_2 1_555 1_555
H18_2 C31_2 1_555 1_555
Zr8 F1_2 1_555 1_555
P1_2 O1_2 1_555 1_555
F2_2 Zr8 1_555 1_555
F3_2 Zr8 1_555 1_555
O1_2 Zr8 1_555 1_555
O25 P1_2 1_555 1_555
O27 P1_2 1_555 1_555
C1_2 P1_2 1_555 1_555
C2_2 C1_2 1_555 1_555
H1_2 C2_2 1_555 1_555
C3_2 C2_2 1_555 1_555
H2_2 C3_2 1_555 1_555
C4_2 C3_2 1_555 1_555
C5_2 C4_2 1_555 1_555
H3_2 C5_2 1_555 1_555
C6_2 C1_2 1_555 1_555
H4_2 C6_2 1_555 1_555
C11_2 H7_2 1_555 1_555
H8_2 C11_2 1_555 1_555
C28_2 C4_2 1_555 1_555
C5_2 C6_2 1_555 1_555
C11_2 C28_2 1_555 1_555

#END
