
###############################################################################
#
# This file contains modified crystal structure data generated from the
# MOF subset of the Cambridge Structural Database (CSD) v543 
# hosted by the Cambridge Crystallographic Data Centre (CCDC).
#
# This work is licensed under the Creative Commons
# Attribution-NonCommercial-ShareAlike 4.0 International License.
# To view a copy of this license, visit
# http://creativecommons.org/licenses/by-nc-sa/4.0/
# or send a letter to
# Creative Commons, PO Box 1866, Mountain View, CA 94042, USA.
#
# CIF created using the CSD Python API on 29 September 2022
# The structure has been converted into the P1 space group
# The structure has a 3D framework
# The original CSD entry BARZIE is in the rhombohedral crystal system
# The framework has been calculated to contain at least 10.0% void space
# The void calculation uses a probe of radius 1.32A, grid spacing 0.4
#
###############################################################################

data_BARZIE
_chemical_formula_moiety         '(C628 H412 Co36 N36 O144)n'
_symmetry_cell_setting           triclinic
_symmetry_space_group_name_H-M   'P 1'
_symmetry_Int_Tables_number      1
_space_group_name_Hall           'P 1'
loop_
_symmetry_equiv_pos_site_id
_symmetry_equiv_pos_as_xyz
1 x,y,z
_cell_length_a                   30.3087(15)
_cell_length_b                   30.3087(15)
_cell_length_c                   18.3364(13)
_cell_angle_alpha                90
_cell_angle_beta                 90
_cell_angle_gamma                120.00
_cell_volume                     14587.4
loop_
_atom_site_label
_atom_site_type_symbol
_atom_site_fract_x
_atom_site_fract_y
_atom_site_fract_z
Co1 Co 0.306224(16) 0.188734(16) 0.13346(2)
N1 N 0.26346(10) 0.20331(10) 0.05834(14)
O1 O 0.31738(9) 0.14345(9) 0.05477(12)
O2 O 0.37697(8) 0.24265(8) 0.10374(13)
O3 O 0.35600(9) 0.10559(9) 0.10842(12)
O4 O 0.41948(8) 0.20932(8) 0.15963(12)
C1 C 0.20185(13) 0.19841(13) 0.14589(19)
H1 H 0.2217 0.1964 0.1845
C2 C 0.41711(12) 0.24335(12) 0.12336(17)
C4 C 0.46595(14) 0.3333 0.0833
H2 H 0.4346 0.3333 0.0833
C5 C 0.21832(12) 0.20259(12) 0.07315(18)
H3 H 0.3415 0.0308 0.0261
C8 C 0.33661(12) 0.11496(12) 0.05345(17)
C10 C 0.46644(12) 0.28973(11) 0.10287(17)
C11 C 0.18877(13) 0.20658(13) 0.0163(2)
C15 C 0.14286(13) 0.20543(14) 0.0345(2)
C16 C 0.15686(14) 0.19724(14) 0.1604(2)
H10 H 0.1457 0.1942 0.2095
C17 C 0.55694(16) 0.3333 0.0833
H11 H 0.5883 0.3333 0.0833
C18 C 0.51247(12) 0.29007(12) 0.10508(19)
H12 H 0.5135 0.2608 0.1214
C19 C 0.12713(14) 0.20042(15) 0.1047(2)
H13 H 0.0959 0.1991 0.1160
C23 C 0.51004(16) 0.37694(11) 0.06380(17)
C24 C 0.50709(17) 0.42332(12) 0.04331(17)
O7 O 0.46765(11) 0.42402(8) 0.06293(13)
O8 O 0.54349(11) 0.45735(8) 0.00704(12)
C25 C 0.55573(17) 0.37660(12) 0.06159(19)
H15 H 0.5860 0.4059 0.0453
Co3 Co 0.360443(16) 0.144599(16) 0.19987(2)
O9 O 0.31067(9) 0.22774(9) 0.22491(12)
O10 O 0.24719(8) 0.12401(8) 0.17370(12)
Co5 Co 0.450823(23) 0.477933(16) 0.03321(2)
C3 C 0.33603(11) 0.09007(11) 0.98256(17)
C6 C 0.33753(12) 0.04462(12) 0.98170(18)
C7 C 0.3333 0.11111(14) 0.9167
H4 H 0.3332 0.1424 0.9167
C9 C 0.3334 0.02001(14) 0.9167
C12 C 0.20724(14) 0.21294(14) 0.9448(2)
H6 H 0.1884 0.2162 0.9058
C13 C 0.25190(15) 0.21451(14) 0.93120(19)
H7 H 0.2649 0.2192 0.8830
C14 C 0.27854(13) 0.20909(12) 0.98986(18)
H8 H 0.3095 0.2096 0.9795
H9 H 0.1228 0.2082 0.9969
C20 C 0.32914(12) 0.04042(17) 0.85163(18)
C21 C 0.33064(11) 0.08737(16) 0.85077(17)
C22 C 0.33006(12) 0.11168(17) 0.77988(17)
O5 O 0.34929(9) 0.15940(13) 0.77856(12)
O6 O 0.31067(9) 0.08292(13) 0.72491(12)
H14 H 0.3252 0.0226 0.8072
Co2 Co 0.360443(16) 0.215843(23) 0.69987(2)
N2 N 0.40321(10) 0.27318(14) 0.77499(14)
C26 C 0.46482(13) 0.32989(18) 0.68744(19)
H16 H 0.4450 0.3080 0.6488
C27 C 0.44835(12) 0.31760(17) 0.76018(18)
C28 C 0.47790(13) 0.35114(18) 0.8170(2)
C29 C 0.45943(14) 0.33903(20) 0.8885(2)
H17 H 0.4783 0.3611 0.9275
C30 C 0.41477(15) 0.29594(21) 0.90213(19)
H18 H 0.4018 0.2876 0.9503
C31 C 0.38813(13) 0.26388(18) 0.84347(18)
H19 H 0.3572 0.2334 0.8538
C32 C 0.52381(13) 0.39590(19) 0.7988(2)
H20 H 0.5439 0.4187 0.8364
C33 C 0.50981(14) 0.37371(20) 0.6729(2)
H21 H 0.5210 0.3818 0.6238
C34 C 0.53954(14) 0.40662(21) 0.7286(2)
H22 H 0.5708 0.4365 0.7173
Co4 Co 0.306224(16) 0.117490(23) 0.63346(2)
Co6 Co 0.549177(23) 0.522067(16) 0.96679(2)
O11 O 0.28970(8) 0.19901(11) 0.72959(13)
O12 O 0.35600(9) 0.25041(13) 0.60842(12)
O13 O 0.41948(8) 0.21016(11) 0.65963(12)
Co1_2 Co 0.811266(16) 0.117490(23) 0.13346(2)
N1_2 N 0.79669(10) 0.06015(14) 0.05834(14)
O1_2 O 0.85655(9) 0.17393(13) 0.05477(12)
O2_2 O 0.75735(8) 0.13432(11) 0.10374(13)
O3_2 O 0.89441(9) 0.25041(13) 0.10842(12)
O4_2 O 0.79068(8) 0.21016(11) 0.15963(12)
C1_2 C 0.80159(13) 0.00344(18) 0.14589(19)
H1_2 H 0.8036 0.0253 0.1845
C2_2 C 0.75665(12) 0.17376(17) 0.12336(17)
C4_2 C 0.6667 0.13265(14) 0.0833
H2_2 H 0.6667 0.1013 0.0833
C5_2 C 0.79741(12) 0.01573(17) 0.07315(18)
H3_2 H 0.9692 0.3107 0.0261
C8_2 C 0.88504(12) 0.22165(17) 0.05345(17)
C10_2 C 0.71027(11) 0.17671(16) 0.10287(17)
C17_2 C 0.6667 0.22364(16) 0.0833
H11_2 H 0.6667 0.2550 0.0833
C18_2 C 0.70993(12) 0.22240(17) 0.10508(19)
H12_2 H 0.7392 0.2527 0.1214
C23_2 C 0.62306(11) 0.13311(19) 0.06380(17)
C24_2 C 0.57668(12) 0.08378(21) 0.04331(17)
O7_2 O 0.57598(8) 0.04364(14) 0.06293(13)
O8_2 O 0.54265(8) 0.08615(14) 0.00704(12)
C25_2 C 0.62340(12) 0.17914(21) 0.06159(19)
H15_2 H 0.5941 0.1802 0.0453
Co3_2 Co 0.855401(16) 0.215843(23) 0.19987(2)
O9_2 O 0.77226(9) 0.08292(13) 0.22491(12)
O10_2 O 0.87599(8) 0.12317(11) 0.17370(12)
C3_2 C 0.90993(11) 0.24596(16) 0.98256(17)
C6_2 C 0.95538(12) 0.29291(17) 0.98170(18)
C7_2 C 0.88889(14) 0.22219(14) 0.9167
H4_2 H 0.8576 0.1908 0.9167
C9_2 C 0.97999(14) 0.31339(14) 0.9167
C13_2 C 0.78549(14) 0.03739(21) 0.93120(19)
H7_2 H 0.7808 0.0457 0.8830
C14_2 C 0.79091(12) 0.06945(18) 0.98986(18)
H8_2 H 0.7904 0.0999 0.9795
C20_2 C 0.95958(17) 0.28871(21) 0.85163(18)
C21_2 C 0.91263(16) 0.24326(19) 0.85077(17)
C22_2 C 0.88832(17) 0.21837(21) 0.77988(17)
O5_2 O 0.84060(13) 0.18988(16) 0.77856(12)
O6_2 O 0.91708(13) 0.22774(16) 0.72491(12)
H14_2 H 0.9774 0.3025 0.8072
Co2_2 Co 0.784157(23) 0.144599(28) 0.69987(2)
N2_2 N 0.72682(14) 0.13002(17) 0.77499(14)
C26_2 C 0.67011(18) 0.13492(22) 0.68744(19)
H16_2 H 0.6920 0.1369 0.6488
C27_2 C 0.68240(17) 0.13074(21) 0.76018(18)
C28_2 C 0.64886(18) 0.12675(22) 0.8170(2)
C29_2 C 0.66097(20) 0.12039(24) 0.8885(2)
H17_2 H 0.6389 0.1171 0.9275
C30_2 C 0.70406(21) 0.11882(26) 0.90213(19)
H18_2 H 0.7124 0.1141 0.9503
C31_2 C 0.73612(18) 0.12424(22) 0.84347(18)
H19_2 H 0.7666 0.1237 0.8538
C32_2 C 0.60410(19) 0.12790(23) 0.7988(2)
H20_2 H 0.5813 0.1251 0.8364
C33_2 C 0.62629(20) 0.13609(24) 0.6729(2)
H21_2 H 0.6182 0.1391 0.6238
C34_2 C 0.59338(21) 0.13291(25) 0.7286(2)
H22_2 H 0.5635 0.1342 0.7173
Co4_2 Co 0.882510(23) 0.188734(28) 0.63346(2)
Co6_2 Co 0.477933(16) 0.027109(28) 0.96679(2)
O11_2 O 0.80099(11) 0.09068(14) 0.72959(13)
O12_2 O 0.74959(13) 0.10559(16) 0.60842(12)
O13_2 O 0.78984(11) 0.20932(14) 0.65963(12)
C11_2 C 0.79342(13) 0.98219(18) 0.0163(2)
C15_2 C 0.79457(14) 0.93743(19) 0.0345(2)
C16_2 C 0.80276(14) 0.95962(20) 0.1604(2)
H10_2 H 0.8058 0.9515 0.2095
C19_2 C 0.79958(15) 0.92671(21) 0.1047(2)
H13_2 H 0.8009 0.8968 0.1160
Co5_2 Co 0.522067(16) 0.972891(28) 0.03321(2)
C12_2 C 0.78706(14) 0.99430(20) 0.9448(2)
H6_2 H 0.7838 0.9722 0.9058
H9_2 H 0.7918 0.9146 0.9969
C11_3 C 0.01781(18) 0.81123(13) 0.0163(2)
C15_3 C 0.06257(19) 0.85714(13) 0.0345(2)
C16_3 C 0.04038(20) 0.84314(14) 0.1604(2)
H10_3 H 0.0485 0.8543 0.2095
C19_3 C 0.07329(21) 0.87287(14) 0.1047(2)
H13_3 H 0.1032 0.9041 0.1160
Co5_3 Co 0.027109(28) 0.549177(23) 0.03321(2)
C12_3 C 0.00570(20) 0.79276(14) 0.9448(2)
H6_3 H 0.0278 0.8116 0.9058
H9_3 H 0.0854 0.8772 0.9969
Co1_3 Co 0.882510(23) 0.693776(16) 0.13346(2)
N1_3 N 0.93985(14) 0.73654(10) 0.05834(14)
O1_3 O 0.82607(13) 0.68262(9) 0.05477(12)
O2_3 O 0.86568(11) 0.62303(8) 0.10374(13)
O3_3 O 0.74959(13) 0.64400(9) 0.10842(12)
O4_3 O 0.78984(11) 0.58052(8) 0.15963(12)
C1_3 C 0.99656(18) 0.79815(13) 0.14589(19)
H1_3 H 0.9747 0.7783 0.1845
C2_3 C 0.82624(17) 0.58289(12) 0.12336(17)
C4_3 C 0.86735(14) 0.53405(14) 0.0833
H2_3 H 0.8987 0.5654 0.0833
C5_3 C 0.98427(17) 0.78168(12) 0.07315(18)
H3_3 H 0.6893 0.6585 0.0261
C8_3 C 0.77835(17) 0.66339(12) 0.05345(17)
C10_3 C 0.82329(16) 0.53356(12) 0.10287(17)
C17_3 C 0.77636(16) 0.44306(16) 0.0833
H11_3 H 0.7450 0.4117 0.0833
C18_3 C 0.77760(17) 0.48753(12) 0.10508(19)
H12_3 H 0.7473 0.4865 0.1214
C23_3 C 0.86689(19) 0.48996(16) 0.06380(17)
C24_3 C 0.91622(21) 0.49291(17) 0.04331(17)
O7_3 O 0.95636(14) 0.53235(11) 0.06293(13)
O8_3 O 0.91385(14) 0.45651(11) 0.00704(12)
C25_3 C 0.82086(21) 0.44427(17) 0.06159(19)
H15_3 H 0.8198 0.4140 0.0453
Co3_3 Co 0.784157(23) 0.639557(16) 0.19987(2)
O9_3 O 0.91708(13) 0.68933(9) 0.22491(12)
O10_3 O 0.87683(11) 0.75281(8) 0.17370(12)
C3_3 C 0.75404(16) 0.66397(11) 0.98256(17)
C6_3 C 0.70709(17) 0.66247(12) 0.98170(18)
C7_3 C 0.77781(14) 0.6667 0.9167
H4_3 H 0.8092 0.6668 0.9167
C9_3 C 0.68661(14) 0.6666 0.9167
H5 H 0.6553 0.6666 0.9167
C13_3 C 0.96261(21) 0.74810(15) 0.93120(19)
H7_3 H 0.9543 0.7351 0.8830
C14_3 C 0.93055(18) 0.72146(13) 0.98986(18)
H8_3 H 0.9001 0.6905 0.9795
C20_3 C 0.71129(21) 0.67086(12) 0.85163(18)
C21_3 C 0.75674(19) 0.66936(11) 0.85077(17)
C22_3 C 0.78163(21) 0.66994(12) 0.77988(17)
O5_3 O 0.81012(16) 0.65071(9) 0.77856(12)
O6_3 O 0.77226(16) 0.68933(9) 0.72491(12)
H14_3 H 0.6975 0.6748 0.8072
Co2_3 Co 0.855401(28) 0.639557(16) 0.69987(2)
N2_3 N 0.86998(17) 0.59679(10) 0.77499(14)
C26_3 C 0.86508(22) 0.53518(13) 0.68744(19)
H16_3 H 0.8631 0.5550 0.6488
C27_3 C 0.86926(21) 0.55165(12) 0.76018(18)
C28_3 C 0.87325(22) 0.52210(13) 0.8170(2)
C29_3 C 0.87961(24) 0.54057(14) 0.8885(2)
H17_3 H 0.8829 0.5217 0.9275
C30_3 C 0.88118(26) 0.58523(15) 0.90213(19)
H18_3 H 0.8859 0.5982 0.9503
C31_3 C 0.87576(22) 0.61187(13) 0.84347(18)
H19_3 H 0.8763 0.6428 0.8538
C32_3 C 0.87210(23) 0.47619(13) 0.7988(2)
H20_3 H 0.8749 0.4561 0.8364
C33_3 C 0.86391(24) 0.49019(14) 0.6729(2)
H21_3 H 0.8609 0.4790 0.6238
C34_3 C 0.86709(25) 0.46046(14) 0.7286(2)
H22_3 H 0.8658 0.4292 0.7173
Co4_3 Co 0.811266(28) 0.693776(16) 0.63346(2)
Co6_3 Co 0.972891(28) 0.450823(23) 0.96679(2)
O11_3 O 0.90932(14) 0.71030(8) 0.72959(13)
O12_3 O 0.89441(16) 0.64400(9) 0.60842(12)
O13_3 O 0.79068(14) 0.58052(8) 0.65963(12)
Co1_4 Co 0.188734(16) 0.306224(16) 0.36654(2)
N1_4 N 0.20331(10) 0.26346(10) 0.44166(14)
O1_4 O 0.14345(9) 0.31738(9) 0.44523(12)
O2_4 O 0.24265(8) 0.37697(8) 0.39626(13)
O3_4 O 0.10559(9) 0.35600(9) 0.39158(12)
O4_4 O 0.20932(8) 0.41948(8) 0.34037(12)
C1_4 C 0.19841(13) 0.20185(13) 0.35411(19)
H1_4 H 0.1964 0.2217 0.3155
C2_4 C 0.24335(12) 0.41711(12) 0.37664(17)
C3_4 C 0.09007(11) 0.33603(11) 0.51744(17)
C4_4 C 0.3333 0.46595(14) 0.4167
H2_4 H 0.3333 0.4346 0.4167
C5_4 C 0.20259(12) 0.21832(12) 0.42685(18)
C6_4 C 0.04462(12) 0.33753(12) 0.51830(18)
H3_4 H 0.0308 0.3415 0.4739
C7_4 C 0.11111(14) 0.3333 0.5833
H4_4 H 0.1424 0.3332 0.5833
C8_4 C 0.11496(12) 0.33661(12) 0.44655(17)
C9_4 C 0.02001(14) 0.3334 0.5833
C10_4 C 0.28973(11) 0.46644(12) 0.39713(17)
C11_4 C 0.20658(13) 0.18877(13) 0.4837(2)
C12_4 C 0.21294(14) 0.20724(14) 0.5552(2)
H6_4 H 0.2162 0.1884 0.5942
C13_4 C 0.21451(14) 0.25190(15) 0.56880(19)
H7_4 H 0.2192 0.2649 0.6170
C14_4 C 0.20909(12) 0.27854(13) 0.51014(18)
H8_4 H 0.2096 0.3095 0.5205
C15_4 C 0.20543(14) 0.14286(13) 0.4655(2)
H9_4 H 0.2082 0.1228 0.5031
C16_4 C 0.19724(14) 0.15686(14) 0.3396(2)
H10_4 H 0.1942 0.1457 0.2905
C17_4 C 0.3333 0.55694(16) 0.4167
H11_4 H 0.3333 0.5883 0.4167
C18_4 C 0.29007(12) 0.51247(12) 0.39492(19)
H12_4 H 0.2608 0.5135 0.3786
C19_4 C 0.20042(15) 0.12713(14) 0.3953(2)
H13_4 H 0.1991 0.0959 0.3840
C20_4 C 0.04042(17) 0.32914(12) 0.64837(18)
C21_4 C 0.08737(16) 0.33064(11) 0.64923(17)
C22_4 C 0.11168(17) 0.33006(12) 0.72012(17)
O5_4 O 0.15940(13) 0.34929(9) 0.72144(12)
O6_4 O 0.08292(13) 0.31067(9) 0.77509(12)
H14_4 H 0.0226 0.3252 0.6928
C23_4 C 0.37694(11) 0.51004(16) 0.43620(17)
C24_4 C 0.42332(12) 0.50709(17) 0.45669(17)
O7_4 O 0.42402(8) 0.46765(11) 0.43707(13)
O8_4 O 0.45735(8) 0.54349(11) 0.49296(12)
C25_4 C 0.37660(12) 0.55573(17) 0.43841(19)
H15_4 H 0.4059 0.5860 0.4547
Co2_4 Co 0.215843(23) 0.360443(16) 0.80013(2)
N2_4 N 0.27318(14) 0.40321(10) 0.72501(14)
C26_4 C 0.32989(18) 0.46482(13) 0.81256(19)
H16_4 H 0.3080 0.4450 0.8512
C27_4 C 0.31760(17) 0.44835(12) 0.73982(18)
C28_4 C 0.35114(18) 0.47790(13) 0.6830(2)
C29_4 C 0.33903(20) 0.45943(14) 0.6115(2)
H17_4 H 0.3611 0.4783 0.5725
C30_4 C 0.29594(21) 0.41477(15) 0.59787(19)
H18_4 H 0.2876 0.4018 0.5497
C31_4 C 0.26388(18) 0.38813(13) 0.65653(18)
H19_4 H 0.2334 0.3572 0.6462
C32_4 C 0.39590(19) 0.52381(13) 0.7012(2)
H20_4 H 0.4187 0.5439 0.6636
C33_4 C 0.37371(20) 0.50981(14) 0.8271(2)
H21_4 H 0.3818 0.5210 0.8762
C34_4 C 0.40662(21) 0.53954(14) 0.7714(2)
H22_4 H 0.4365 0.5708 0.7827
Co3_4 Co 0.144599(16) 0.360443(16) 0.30013(2)
O9_4 O 0.22774(9) 0.31067(9) 0.27509(12)
O10_4 O 0.12401(8) 0.24719(8) 0.32630(12)
Co4_4 Co 0.117490(23) 0.306224(16) 0.86654(2)
Co5_4 Co 0.477933(16) 0.450823(23) 0.46679(2)
Co6_4 Co 0.522067(16) 0.549177(23) 0.53321(2)
O11_4 O 0.19901(11) 0.28970(8) 0.77041(13)
O12_4 O 0.25041(13) 0.35600(9) 0.89158(12)
O13_4 O 0.21016(11) 0.41948(8) 0.84037(12)
O2_5 O 0.04364(8) 0.57598(8) 0.43707(13)
O3_5 O 0.02267(9) 0.43892(9) 0.44175(12)
O4_5 O 0.08615(8) 0.54265(8) 0.49296(12)
C2_5 C 0.08378(12) 0.57668(12) 0.45669(17)
C3_5 C 0.00270(11) 0.42340(11) 0.31589(17)
C4_5 C 0.13262(14) 0.6666 0.4166
H2_5 H 0.1013 0.6666 0.4166
C6_5 C 0.00420(12) 0.37795(12) 0.31503(18)
H3_5 H 0.0082 0.3641 0.3594
C8_5 C 0.00328(12) 0.44829(12) 0.38678(17)
C9_5 C 0.0001 0.35334(14) 0.2500
H5_2 H 0.0001 0.3220 0.2500
C10_5 C 0.13311(12) 0.62306(11) 0.43620(17)
C17_5 C 0.22361(16) 0.6666 0.4166
H11_5 H 0.2550 0.6666 0.4166
C18_5 C 0.17914(12) 0.62340(12) 0.43841(19)
H12_5 H 0.1802 0.5941 0.4547
O5_5 O 0.01595(9) 0.49274(13) 0.11190(12)
C23_5 C 0.17671(16) 0.71027(11) 0.39713(17)
C24_5 C 0.17376(17) 0.75665(12) 0.37664(17)
O7_5 O 0.13432(11) 0.75735(8) 0.39626(13)
O8_5 O 0.21016(11) 0.79068(8) 0.34037(12)
C25_5 C 0.22240(17) 0.70993(12) 0.39492(19)
H15_5 H 0.2527 0.7392 0.3786
N2_5 N 0.06987(10) 0.60652(14) 0.10833(14)
C26_5 C 0.13148(13) 0.66323(18) 0.02078(19)
C27_5 C 0.11501(12) 0.65094(17) 0.09352(18)
C28_5 C 0.14456(13) 0.68448(18) 0.1504(2)
C29_5 C 0.12609(14) 0.67237(20) 0.2219(2)
H17_5 H 0.1449 0.6945 0.2609
C30_5 C 0.08143(15) 0.62928(21) 0.23547(19)
H18_5 H 0.0684 0.6210 0.2837
C31_5 C 0.05479(13) 0.59722(18) 0.17681(18)
H19_5 H 0.0238 0.5668 0.1872
C32_5 C 0.19047(13) 0.72924(19) 0.1322(2)
H20_5 H 0.2105 0.7521 0.1698
C33_5 C 0.17647(14) 0.70705(20) 0.0063(2)
C34_5 C 0.20620(14) 0.73996(21) 0.0620(2)
H22_5 H 0.2374 0.7699 0.0507
Co3_5 Co 0.027109(16) 0.477933(16) 0.53321(2)
Co5_5 Co 0.117490(23) 0.811266(16) 0.36654(2)
Co6_5 Co 0.215843(23) 0.855401(16) 0.30013(2)
H16_5 H 0.1116 0.6414 0.9822
H21_5 H 0.1876 0.7152 0.9572
O12_5 O 0.02267(9) 0.58374(13) 0.94175(12)
O13_5 O 0.08615(8) 0.54349(11) 0.99296(12)
Co1_5 Co 0.972891(16) 0.522067(16) 0.46679(2)
N1_5 N 0.93013(10) 0.53664(10) 0.39167(14)
O1_5 O 0.98405(9) 0.47678(9) 0.38810(12)
C1_5 C 0.86852(13) 0.53174(13) 0.47922(19)
H1_5 H 0.8884 0.5297 0.5178
C5_5 C 0.88499(12) 0.53592(12) 0.40648(18)
C7_5 C 1.0000 0.44444(14) 0.2500
H4_5 H 0.9999 0.4757 0.2500
C11_5 C 0.85544(13) 0.53991(13) 0.3496(2)
C12_5 C 0.87391(14) 0.54627(14) 0.2781(2)
H6_5 H 0.8551 0.5495 0.2391
C13_5 C 0.91857(15) 0.54784(14) 0.26453(19)
H7_5 H 0.9316 0.5525 0.2163
C14_5 C 0.94521(13) 0.54242(12) 0.32319(18)
H8_5 H 0.9762 0.5429 0.3128
C15_5 C 0.80953(13) 0.53876(14) 0.3678(2)
H9_5 H 0.7895 0.5415 0.3302
C16_5 C 0.82353(14) 0.53057(14) 0.4937(2)
H10_5 H 0.8124 0.5275 0.5428
C19_5 C 0.79380(14) 0.53375(15) 0.4380(2)
H13_5 H 0.7626 0.5324 0.4493
C20_5 C 0.99580(12) 0.37376(17) 0.18497(18)
C21_5 C 0.99730(11) 0.42071(16) 0.18411(17)
C22_5 C 0.99672(12) 0.44502(17) 0.11322(17)
O6_5 O 0.97733(9) 0.41626(13) 0.05825(12)
H14_5 H 0.9918 0.3560 0.1406
O9_5 O 0.97733(9) 0.56108(9) 0.55825(12)
O10_5 O 0.91385(8) 0.45735(8) 0.50704(12)
N1_6 N 0.46336(10) 0.39348(14) 0.39167(14)
O1_6 O 0.52322(9) 0.50726(13) 0.38810(12)
O3_6 O 0.56108(9) 0.58374(13) 0.44175(12)
C1_6 C 0.46826(13) 0.33677(18) 0.47922(19)
H1_6 H 0.4703 0.3586 0.5178
C3_6 C 0.57660(11) 0.57929(16) 0.31589(17)
C5_6 C 0.46408(12) 0.34906(17) 0.40648(18)
C6_6 C 0.62205(12) 0.62624(17) 0.31503(18)
H3_6 H 0.6359 0.6440 0.3594
C7_6 C 0.55556(14) 0.55552(14) 0.2500
H4_6 H 0.5243 0.5241 0.2500
C8_6 C 0.55171(12) 0.55498(17) 0.38678(17)
C9_6 C 0.64666(14) 0.64672(14) 0.2500
H5_3 H 0.6780 0.6780 0.2500
C11_6 C 0.46009(13) 0.31552(18) 0.3496(2)
C12_6 C 0.45373(14) 0.32763(20) 0.2781(2)
H6_6 H 0.4505 0.3055 0.2391
C13_6 C 0.45216(14) 0.37072(21) 0.26453(19)
H7_6 H 0.4475 0.3790 0.2163
C14_6 C 0.45758(12) 0.40278(18) 0.32319(18)
H8_6 H 0.4571 0.4332 0.3128
C15_6 C 0.46124(14) 0.27076(19) 0.3678(2)
H9_6 H 0.4585 0.2479 0.3302
C16_6 C 0.46943(14) 0.29295(20) 0.4937(2)
H10_6 H 0.4725 0.2848 0.5428
C19_6 C 0.46625(15) 0.26004(21) 0.4380(2)
H13_6 H 0.4676 0.2301 0.4493
C20_6 C 0.62624(17) 0.62205(21) 0.18497(18)
C21_6 C 0.57929(16) 0.57660(19) 0.18411(17)
C22_6 C 0.55498(17) 0.55171(21) 0.11322(17)
O5_6 O 0.50726(13) 0.52322(16) 0.11190(12)
O6_6 O 0.58374(13) 0.56108(16) 0.05825(12)
H14_6 H 0.6440 0.6359 0.1406
N2_6 N 0.39348(14) 0.46336(17) 0.10833(14)
C26_6 C 0.33677(18) 0.46826(22) 0.02078(19)
C27_6 C 0.34906(17) 0.46408(21) 0.09352(18)
C28_6 C 0.31552(18) 0.46009(22) 0.1504(2)
C29_6 C 0.32763(20) 0.45373(24) 0.2219(2)
H17_6 H 0.3055 0.4505 0.2609
C30_6 C 0.37072(21) 0.45216(26) 0.23547(19)
H18_6 H 0.3790 0.4475 0.2837
C31_6 C 0.40278(18) 0.45758(22) 0.17681(18)
H19_6 H 0.4332 0.4571 0.1872
C32_6 C 0.27076(19) 0.46124(23) 0.1322(2)
H20_6 H 0.2479 0.4585 0.1698
C33_6 C 0.29295(20) 0.46943(24) 0.0063(2)
C34_6 C 0.26004(21) 0.46625(25) 0.0620(2)
H22_6 H 0.2301 0.4676 0.0507
O9_6 O 0.43892(9) 0.41626(13) 0.55825(12)
O10_6 O 0.54265(8) 0.45651(11) 0.50704(12)
H16_6 H 0.3586 0.4703 0.9822
H21_6 H 0.2848 0.4725 0.9572
O12_6 O 0.41626(13) 0.43892(16) 0.94175(12)
O13_6 O 0.45651(11) 0.54265(14) 0.99296(12)
Co1_6 Co 0.549177(23) 0.027109(16) 0.46679(2)
N1_7 N 0.60652(14) 0.06987(10) 0.39167(14)
O1_7 O 0.49274(13) 0.01595(9) 0.38810(12)
C1_7 C 0.66323(18) 0.13148(13) 0.47922(19)
H1_7 H 0.6414 0.1116 0.5178
C5_7 C 0.65094(17) 0.11501(12) 0.40648(18)
C7_7 C 0.44448(14) 0.0000 0.2500
H4_7 H 0.4759 0.0001 0.2500
C11_7 C 0.68448(18) 0.14456(13) 0.3496(2)
C12_7 C 0.67237(20) 0.12609(14) 0.2781(2)
H6_7 H 0.6945 0.1449 0.2391
C13_7 C 0.62928(21) 0.08143(15) 0.26453(19)
H7_7 H 0.6210 0.0684 0.2163
C14_7 C 0.59722(18) 0.05479(13) 0.32319(18)
H8_7 H 0.5668 0.0238 0.3128
C15_7 C 0.72924(19) 0.19047(13) 0.3678(2)
H9_7 H 0.7521 0.2105 0.3302
C16_7 C 0.70705(20) 0.17647(14) 0.4937(2)
H10_7 H 0.7152 0.1876 0.5428
C19_7 C 0.73996(21) 0.20620(14) 0.4380(2)
H13_7 H 0.7699 0.2374 0.4493
C20_7 C 0.37795(21) 0.00420(12) 0.18497(18)
C21_7 C 0.42340(19) 0.00270(11) 0.18411(17)
C22_7 C 0.44829(21) 0.00328(12) 0.11322(17)
O6_7 O 0.43892(16) 0.02267(9) 0.05825(12)
H14_7 H 0.3641 0.0082 0.1406
O9_7 O 0.58374(13) 0.02267(9) 0.55825(12)
O10_7 O 0.54349(11) 0.08615(8) 0.50704(12)
O2_6 O 0.53235(11) 0.95636(8) 0.43707(13)
O3_7 O 0.41626(13) 0.97733(9) 0.44175(12)
O4_6 O 0.45651(11) 0.91385(8) 0.49296(12)
C2_6 C 0.49291(17) 0.91622(12) 0.45669(17)
C3_7 C 0.42071(16) 0.99730(11) 0.31589(17)
C4_6 C 0.53402(14) 0.86738(14) 0.4166
H2_6 H 0.5654 0.8987 0.4166
C6_7 C 0.37376(17) 0.99580(12) 0.31503(18)
H3_7 H 0.3560 0.9918 0.3594
C8_7 C 0.44502(17) 0.99672(12) 0.38678(17)
C9_7 C 0.35328(14) 0.9999 0.2500
H5_4 H 0.3220 0.9999 0.2500
C10_6 C 0.48996(16) 0.86689(12) 0.43620(17)
C17_6 C 0.44303(16) 0.77639(16) 0.4166
H11_6 H 0.4117 0.7450 0.4166
C18_6 C 0.44427(17) 0.82086(12) 0.43841(19)
H12_6 H 0.4140 0.8198 0.4547
O5_7 O 0.47678(16) 0.98405(9) 0.11190(12)
C23_6 C 0.53356(19) 0.82329(16) 0.39713(17)
C24_6 C 0.58289(21) 0.82624(17) 0.37664(17)
O7_6 O 0.62303(14) 0.86568(11) 0.39626(13)
O8_6 O 0.58052(14) 0.78984(11) 0.34037(12)
C25_6 C 0.48753(21) 0.77760(17) 0.39492(19)
H15_6 H 0.4865 0.7473 0.3786
N2_7 N 0.53664(17) 0.93013(10) 0.10833(14)
C26_7 C 0.53174(22) 0.86852(13) 0.02078(19)
C27_7 C 0.53592(21) 0.88499(12) 0.09352(18)
C28_7 C 0.53991(22) 0.85544(13) 0.1504(2)
C29_7 C 0.54627(24) 0.87391(14) 0.2219(2)
H17_7 H 0.5495 0.8551 0.2609
C30_7 C 0.54784(26) 0.91857(15) 0.23547(19)
H18_7 H 0.5525 0.9316 0.2837
C31_7 C 0.54242(22) 0.94521(13) 0.17681(18)
H19_7 H 0.5429 0.9762 0.1872
C32_7 C 0.53876(23) 0.80953(13) 0.1322(2)
H20_7 H 0.5415 0.7895 0.1698
C33_7 C 0.53057(24) 0.82353(14) 0.0063(2)
C34_7 C 0.53375(25) 0.79380(14) 0.0620(2)
H22_7 H 0.5324 0.7626 0.0507
Co3_6 Co 0.450823(23) 0.972891(16) 0.53321(2)
Co5_6 Co 0.693776(28) 0.882510(23) 0.36654(2)
Co6_6 Co 0.639557(28) 0.784157(23) 0.30013(2)
H16_7 H 0.5297 0.8884 0.9822
H21_7 H 0.5275 0.8124 0.9572
O12_7 O 0.56108(16) 0.97733(9) 0.94175(12)
O13_7 O 0.45735(14) 0.91385(8) 0.99296(12)
C23_7 C 0.04360(11) 0.84338(16) 0.76954(17)
C24_7 C 0.08998(12) 0.84043(17) 0.79003(17)
O7_7 O 0.09068(8) 0.80099(11) 0.77041(13)
O8_7 O 0.12401(8) 0.87683(11) 0.82630(12)
C25_7 C 0.04326(12) 0.88907(17) 0.77175(19)
H15_7 H 0.0725 0.9194 0.7881
Co5_7 Co 0.144599(16) 0.784157(23) 0.80013(2)
Co6_7 Co 0.188734(16) 0.882510(23) 0.86654(2)
O4_7 O 0.87599(8) 0.75281(8) 0.67370(12)
C2_7 C 0.91002(12) 0.75044(12) 0.70997(17)
C4_7 C 1.0000 0.79928(14) 0.7500
H2_7 H 1.0000 0.7679 0.7500
C10_7 C 0.95640(11) 0.79977(12) 0.73046(17)
C17_7 C 1.0000 0.89027(16) 0.7500
H11_7 H 1.0000 0.9216 0.7500
C18_7 C 0.95674(12) 0.84580(12) 0.72825(19)
H12_7 H 0.9275 0.8468 0.7119
C23_8 C 0.84338(16) 0.04360(11) 0.73046(17)
C24_8 C 0.84043(17) 0.08998(12) 0.70997(17)
O8_8 O 0.87683(11) 0.12401(8) 0.67370(12)
C25_8 C 0.88907(17) 0.04326(12) 0.72825(19)
H15_8 H 0.9194 0.0725 0.7119
C28_8 C 0.81123(13) 0.01781(18) 0.4837(2)
C29_8 C 0.79276(14) 0.00570(20) 0.5552(2)
H17_8 H 0.8116 0.0278 0.5942
C32_8 C 0.85714(13) 0.06257(19) 0.4655(2)
H20_8 H 0.8772 0.0854 0.5031
C33_8 C 0.84314(14) 0.04038(20) 0.3396(2)
H21_8 H 0.8543 0.0485 0.2905
C34_8 C 0.87287(14) 0.07329(21) 0.3953(2)
H22_8 H 0.9041 0.1032 0.3840
Co1_7 Co 0.639557(16) 0.855401(16) 0.80013(2)
N1_8 N 0.59679(10) 0.86998(10) 0.72501(14)
O1_8 O 0.65071(9) 0.81012(9) 0.72144(12)
O2_7 O 0.71030(8) 0.90932(8) 0.77041(13)
O3_8 O 0.68933(9) 0.77226(9) 0.77509(12)
O4_8 O 0.75281(8) 0.87599(8) 0.82630(12)
C1_8 C 0.53518(13) 0.86508(13) 0.81256(19)
H1_8 H 0.5550 0.8631 0.8512
C2_8 C 0.75044(12) 0.91002(12) 0.79003(17)
C3_8 C 0.66936(11) 0.75674(11) 0.64923(17)
C4_8 C 0.79928(14) 1.0000 0.7500
H2_8 H 0.7679 1.0000 0.7500
C5_8 C 0.55165(12) 0.86926(12) 0.73982(18)
C6_8 C 0.67086(12) 0.71129(12) 0.64837(18)
H3_8 H 0.6748 0.6975 0.6928
C7_8 C 0.6666 0.77778(14) 0.5834
H4_8 H 0.6665 0.8091 0.5834
C8_8 C 0.66994(12) 0.78163(12) 0.72012(17)
C9_8 C 0.6667 0.68668(14) 0.5834
H5_5 H 0.6667 0.6554 0.5834
C10_8 C 0.79977(12) 0.95640(11) 0.76954(17)
C11_8 C 0.52210(13) 0.87325(13) 0.6830(2)
C12_8 C 0.54057(14) 0.87961(14) 0.6115(2)
H6_8 H 0.5217 0.8829 0.5725
C13_8 C 0.58523(15) 0.88118(14) 0.59787(19)
H7_8 H 0.5982 0.8859 0.5497
C14_8 C 0.61187(13) 0.87576(12) 0.65653(18)
H8_8 H 0.6428 0.8763 0.6462
C15_8 C 0.47619(13) 0.87210(14) 0.7012(2)
H9_8 H 0.4561 0.8749 0.6636
C16_8 C 0.49019(14) 0.86391(14) 0.8271(2)
H10_8 H 0.4790 0.8609 0.8762
C17_8 C 0.89027(16) 1.0000 0.7500
H11_8 H 0.9216 1.0000 0.7500
C18_8 C 0.84580(12) 0.95674(12) 0.77175(19)
H12_8 H 0.8468 0.9275 0.7881
C19_8 C 0.46046(14) 0.86709(15) 0.7714(2)
H13_8 H 0.4292 0.8658 0.7827
C20_8 C 0.66247(12) 0.70709(17) 0.51830(18)
C21_8 C 0.66397(11) 0.75404(16) 0.51744(17)
C22_8 C 0.66339(12) 0.77835(17) 0.44655(17)
O5_8 O 0.68262(9) 0.82607(13) 0.44523(12)
O6_8 O 0.64400(9) 0.74959(13) 0.39158(12)
H14_8 H 0.6585 0.6893 0.4739
N2_8 N 0.73654(10) 0.93985(14) 0.44166(14)
C26_8 C 0.79815(13) 0.99656(18) 0.35411(19)
H16_8 H 0.7783 0.9747 0.3155
C27_8 C 0.78168(12) 0.98427(17) 0.42685(18)
C30_8 C 0.74810(15) 0.96261(21) 0.56880(19)
H18_8 H 0.7351 0.9543 0.6170
C31_8 C 0.72146(13) 0.93055(18) 0.51014(18)
H19_8 H 0.6905 0.9001 0.5205
Co3_7 Co 0.693776(16) 0.811266(16) 0.86654(2)
O9_8 O 0.64400(9) 0.89441(9) 0.89158(12)
O10_8 O 0.58052(8) 0.79068(8) 0.84037(12)
O12_8 O 0.68933(9) 0.91708(13) 0.27509(12)
O13_8 O 0.75281(8) 0.87683(11) 0.32630(12)
C9_9 C 0.35334(14) 0.0001 0.2500
H5_6 H 0.3220 0.0001 0.2500
C7_9 C 0.44444(14) 1.0000 0.2500
H4_9 H 0.4757 0.9999 0.2500
C11_9 C 0.01781(18) 0.20658(13) 0.5163(2)
C12_9 C 0.00570(20) 0.21294(14) 0.4448(2)
H6_9 H 0.0278 0.2162 0.4058
C15_9 C 0.06257(19) 0.20543(14) 0.5345(2)
H9_9 H 0.0854 0.2082 0.4969
C16_9 C 0.04038(20) 0.19724(14) 0.6604(2)
H10_9 H 0.0485 0.1942 0.7095
C19_9 C 0.07329(21) 0.20042(15) 0.6047(2)
H13_9 H 0.1032 0.1991 0.6160
N1_9 N 0.93985(14) 0.20331(10) 0.55834(14)
O1_9 O 0.82607(13) 0.14345(9) 0.55477(12)
O2_8 O 0.86568(11) 0.24265(8) 0.60374(13)
C1_9 C 0.99656(18) 0.19841(13) 0.64589(19)
H1_9 H 0.9747 0.1964 0.6845
C2_9 C 0.82624(17) 0.24335(12) 0.62336(17)
C3_9 C 0.75404(16) 0.09007(11) 0.48256(17)
C4_9 C 0.86735(14) 0.3333 0.5833
H2_9 H 0.8987 0.3333 0.5833
C5_9 C 0.98427(17) 0.20259(12) 0.57315(18)
C6_9 C 0.70709(17) 0.04462(12) 0.48170(18)
H3_9 H 0.6893 0.0308 0.5261
C7_10 C 0.77781(14) 0.11111(14) 0.4167
H4_10 H 0.8092 0.1424 0.4167
C8_9 C 0.77835(17) 0.11496(12) 0.55345(17)
C9_10 C 0.68661(14) 0.02001(14) 0.4167
C10_9 C 0.82329(16) 0.28973(11) 0.60287(17)
C13_9 C 0.96261(21) 0.21451(14) 0.43120(19)
H7_9 H 0.9543 0.2192 0.3830
C14_9 C 0.93055(18) 0.20909(12) 0.48986(18)
H8_9 H 0.9001 0.2096 0.4795
C17_9 C 0.77636(16) 0.3333 0.5833
H11_9 H 0.7450 0.3333 0.5833
C18_9 C 0.77760(17) 0.29007(12) 0.60508(19)
H12_9 H 0.7473 0.2608 0.6214
C20_9 C 0.71129(21) 0.04042(17) 0.35163(18)
C21_9 C 0.75674(19) 0.08737(16) 0.35077(17)
C22_9 C 0.78163(21) 0.11168(17) 0.27988(17)
O5_9 O 0.81012(16) 0.15940(13) 0.27856(12)
H14_9 H 0.6975 0.0226 0.3072
C23_9 C 0.86689(19) 0.37694(11) 0.56380(17)
C24_9 C 0.91622(21) 0.42332(12) 0.54331(17)
O7_8 O 0.95636(14) 0.42402(8) 0.56293(13)
C25_9 C 0.82086(21) 0.37660(12) 0.56159(19)
H15_9 H 0.8198 0.4059 0.5453
N2_9 N 0.86998(17) 0.27318(14) 0.27499(14)
C26_9 C 0.86508(22) 0.32989(18) 0.18744(19)
H16_9 H 0.8631 0.3080 0.1488
C27_9 C 0.86926(21) 0.31760(17) 0.26018(18)
C28_9 C 0.87325(22) 0.35114(18) 0.3170(2)
C29_9 C 0.87961(24) 0.33903(20) 0.3885(2)
H17_9 H 0.8829 0.3611 0.4275
C30_9 C 0.88118(26) 0.29594(21) 0.40213(19)
H18_9 H 0.8859 0.2876 0.4503
C31_9 C 0.87576(22) 0.26388(18) 0.34347(18)
H19_9 H 0.8763 0.2334 0.3538
C32_9 C 0.87210(23) 0.39590(19) 0.2988(2)
H20_9 H 0.8749 0.4187 0.3364
C33_9 C 0.86391(24) 0.37371(20) 0.1729(2)
H21_9 H 0.8609 0.3818 0.1238
C34_9 C 0.86709(25) 0.40662(21) 0.2286(2)
H22_9 H 0.8658 0.4365 0.2173
O11_5 O 0.90932(14) 0.19901(11) 0.22959(13)
N1_10 N 0.26346(10) 0.06015(14) 0.55834(14)
O1_10 O 0.31738(9) 0.17393(13) 0.55477(12)
O2_9 O 0.37697(8) 0.13432(11) 0.60374(13)
C1_10 C 0.20185(13) 0.00344(18) 0.64589(19)
H1_10 H 0.2217 0.0253 0.6845
C2_10 C 0.41711(12) 0.17376(17) 0.62336(17)
C3_10 C 0.33603(11) 0.24596(16) 0.48256(17)
C4_10 C 0.46595(14) 0.13265(14) 0.5833
H2_10 H 0.4346 0.1013 0.5833
C5_10 C 0.21832(12) 0.01573(17) 0.57315(18)
C6_10 C 0.33753(12) 0.29291(17) 0.48170(18)
H3_10 H 0.3415 0.3107 0.5261
C7_11 C 0.3333 0.22219(14) 0.4167
H4_11 H 0.3332 0.1908 0.4167
C8_10 C 0.33661(12) 0.22165(17) 0.55345(17)
C9_11 C 0.3334 0.31339(14) 0.4167
H5_7 H 0.3334 0.3447 0.4167
C10_10 C 0.46644(12) 0.17671(16) 0.60287(17)
C13_10 C 0.25190(15) 0.03739(21) 0.43120(19)
H7_10 H 0.2649 0.0457 0.3830
C14_10 C 0.27854(13) 0.06945(18) 0.48986(18)
H8_10 H 0.3095 0.0999 0.4795
C17_10 C 0.55694(16) 0.22364(16) 0.5833
H11_10 H 0.5883 0.2550 0.5833
C18_10 C 0.51247(12) 0.22240(17) 0.60508(19)
H12_10 H 0.5135 0.2527 0.6214
C20_10 C 0.32914(12) 0.28871(21) 0.35163(18)
C21_10 C 0.33064(11) 0.24326(19) 0.35077(17)
C22_10 C 0.33006(12) 0.21837(21) 0.27988(17)
O5_10 O 0.34929(9) 0.18988(16) 0.27856(12)
H14_10 H 0.3252 0.3025 0.3072
C23_10 C 0.51004(16) 0.13311(19) 0.56380(17)
C24_10 C 0.50709(17) 0.08378(21) 0.54331(17)
O7_9 O 0.46765(11) 0.04364(14) 0.56293(13)
C25_10 C 0.55573(17) 0.17914(21) 0.56159(19)
H15_10 H 0.5860 0.1802 0.5453
N2_10 N 0.40321(10) 0.13002(17) 0.27499(14)
C26_10 C 0.46482(13) 0.13492(22) 0.18744(19)
H16_10 H 0.4450 0.1369 0.1488
C27_10 C 0.44835(12) 0.13074(21) 0.26018(18)
C28_10 C 0.47790(13) 0.12675(22) 0.3170(2)
C29_10 C 0.45943(14) 0.12039(24) 0.3885(2)
H17_10 H 0.4783 0.1171 0.4275
C30_10 C 0.41477(15) 0.11882(26) 0.40213(19)
H18_10 H 0.4018 0.1141 0.4503
C31_10 C 0.38813(13) 0.12424(22) 0.34347(18)
H19_10 H 0.3572 0.1237 0.3538
C32_10 C 0.52381(13) 0.12790(23) 0.2988(2)
H20_10 H 0.5439 0.1251 0.3364
C33_10 C 0.50981(14) 0.13609(24) 0.1729(2)
H21_10 H 0.5210 0.1391 0.1238
C34_10 C 0.53954(14) 0.13291(25) 0.2286(2)
H22_10 H 0.5708 0.1342 0.2173
O10_9 O 0.24719(8) 0.12317(11) 0.67370(12)
O11_6 O 0.28970(8) 0.09068(14) 0.22959(13)
C11_10 C 0.18877(13) 0.98219(18) 0.5163(2)
C12_10 C 0.20724(14) 0.99430(20) 0.4448(2)
H6_10 H 0.1884 0.9722 0.4058
C15_10 C 0.14286(13) 0.93743(19) 0.5345(2)
H9_10 H 0.1228 0.9146 0.4969
C16_10 C 0.15686(14) 0.95962(20) 0.6604(2)
H10_10 H 0.1457 0.9515 0.7095
C19_10 C 0.12713(14) 0.92671(21) 0.6047(2)
H13_10 H 0.0959 0.8968 0.6160
C23_11 C 0.04360(11) 0.20023(19) 0.26954(17)
C24_11 C 0.08998(12) 0.24956(21) 0.29003(17)
O7_10 O 0.09068(8) 0.28970(14) 0.27041(13)
C25_11 C 0.04326(12) 0.15420(21) 0.27175(19)
H15_11 H 0.0725 0.1532 0.2881
C2_11 C 0.91002(12) 0.15957(17) 0.20997(17)
C4_11 C 1.0000 0.20068(14) 0.2500
H2_11 H 1.0000 0.2320 0.2500
C10_11 C 0.95640(11) 0.15662(16) 0.23046(17)
C17_11 C 1.0000 0.10969(16) 0.2500
H11_11 H 1.0000 0.0783 0.2500
C18_11 C 0.95674(12) 0.11093(17) 0.22825(19)
H12_11 H 0.9275 0.0806 0.2119
N1_11 N 0.72682(14) 0.59679(10) 0.27499(14)
O1_11 O 0.84060(13) 0.65071(9) 0.27856(12)
O2_10 O 0.80099(11) 0.71030(8) 0.22959(13)
C1_11 C 0.67011(18) 0.53518(13) 0.18744(19)
H1_11 H 0.6920 0.5550 0.1488
C2_12 C 0.84043(17) 0.75044(12) 0.20997(17)
C3_11 C 0.91263(16) 0.66936(11) 0.35077(17)
C4_12 C 0.79932(14) 0.79928(14) 0.2500
H2_12 H 0.7680 0.7679 0.2500
C5_11 C 0.68240(17) 0.55165(12) 0.26018(18)
C6_11 C 0.95958(17) 0.67086(12) 0.35163(18)
H3_11 H 0.9774 0.6748 0.3072
C7_12 C 0.88886(14) 0.6666 0.4166
H4_12 H 0.8575 0.6665 0.4166
C8_11 C 0.88832(17) 0.66994(12) 0.27988(17)
C9_12 C 0.98006(14) 0.6667 0.4166
C10_12 C 0.84338(16) 0.79977(12) 0.23046(17)
C11_11 C 0.64886(18) 0.52210(13) 0.3170(2)
C12_11 C 0.66097(20) 0.54057(14) 0.3885(2)
H6_11 H 0.6389 0.5217 0.4275
C13_11 C 0.70406(21) 0.58523(15) 0.40213(19)
H7_11 H 0.7124 0.5982 0.4503
C14_11 C 0.73612(18) 0.61187(13) 0.34347(18)
H8_11 H 0.7666 0.6428 0.3538
C15_11 C 0.60410(19) 0.47619(13) 0.2988(2)
H9_11 H 0.5813 0.4561 0.3364
C16_11 C 0.62629(20) 0.49019(14) 0.1729(2)
H10_11 H 0.6182 0.4790 0.1238
C17_12 C 0.89031(16) 0.89027(16) 0.2500
H11_12 H 0.9217 0.9216 0.2500
C18_12 C 0.88907(17) 0.84580(12) 0.22825(19)
H12_12 H 0.9194 0.8468 0.2119
C19_11 C 0.59338(21) 0.46046(14) 0.2286(2)
H13_11 H 0.5635 0.4292 0.2173
C20_11 C 0.95538(21) 0.66247(12) 0.48170(18)
C21_11 C 0.90993(19) 0.66397(11) 0.48256(17)
C22_11 C 0.88504(21) 0.66339(12) 0.55345(17)
O5_11 O 0.85655(16) 0.68262(9) 0.55477(12)
H14_11 H 0.9692 0.6585 0.5261
C23_12 C 0.79977(19) 0.84338(16) 0.26954(17)
C24_12 C 0.75044(21) 0.84043(17) 0.29003(17)
O7_11 O 0.71030(14) 0.80099(11) 0.27041(13)
C25_12 C 0.84580(21) 0.88907(17) 0.27175(19)
H15_12 H 0.8468 0.9194 0.2881
N2_11 N 0.79669(17) 0.73654(10) 0.55834(14)
C26_11 C 0.80159(22) 0.79815(13) 0.64589(19)
H16_11 H 0.8036 0.7783 0.6845
C27_11 C 0.79741(21) 0.78168(12) 0.57315(18)
C28_11 C 0.79342(22) 0.81123(13) 0.5163(2)
C29_11 C 0.78706(24) 0.79276(14) 0.4448(2)
H17_11 H 0.7838 0.8116 0.4058
C30_11 C 0.78549(26) 0.74810(15) 0.43120(19)
H18_11 H 0.7808 0.7351 0.3830
C31_11 C 0.79091(22) 0.72146(13) 0.48986(18)
H19_11 H 0.7904 0.6905 0.4795
C32_11 C 0.79457(23) 0.85714(13) 0.5345(2)
H20_11 H 0.7918 0.8772 0.4969
C33_11 C 0.80276(24) 0.84314(14) 0.6604(2)
H21_11 H 0.8058 0.8543 0.7095
C34_11 C 0.79958(25) 0.87287(14) 0.6047(2)
H22_11 H 0.8009 0.9041 0.6160
O11_7 O 0.75735(14) 0.62303(8) 0.60374(13)
H1_12 H 0.6414 0.5297 0.0178
H10_12 H 0.7152 0.5275 0.0428
N1_12 N 0.60652(14) 0.53664(10) 0.89167(14)
O1_12 O 0.49274(13) 0.47678(9) 0.88810(12)
O2_11 O 0.53235(11) 0.57598(8) 0.93707(13)
C1_12 C 0.66323(18) 0.53174(13) 0.97922(19)
C2_13 C 0.49291(17) 0.57668(12) 0.95669(17)
C3_12 C 0.42071(16) 0.42340(11) 0.81589(17)
C4_13 C 0.53402(14) 0.6666 0.9166
H2_13 H 0.5654 0.6666 0.9166
C5_12 C 0.65094(17) 0.53592(12) 0.90648(18)
C6_12 C 0.37376(17) 0.37795(12) 0.81503(18)
H3_12 H 0.3560 0.3641 0.8594
C7_13 C 0.44448(14) 0.44444(14) 0.7500
H4_13 H 0.4759 0.4757 0.7500
C8_12 C 0.44502(17) 0.44829(12) 0.88678(17)
C9_13 C 0.35328(14) 0.35334(14) 0.7500
H5_8 H 0.3220 0.3220 0.7500
C10_13 C 0.48996(16) 0.62306(11) 0.93620(17)
C11_12 C 0.68448(18) 0.53991(13) 0.8496(2)
C12_12 C 0.67237(20) 0.54627(14) 0.7781(2)
H6_12 H 0.6945 0.5495 0.7391
C13_12 C 0.62928(21) 0.54784(14) 0.76453(19)
H7_12 H 0.6210 0.5525 0.7163
C14_12 C 0.59722(18) 0.54242(12) 0.82319(18)
H8_12 H 0.5668 0.5429 0.8128
C15_12 C 0.72924(19) 0.53876(14) 0.8678(2)
H9_12 H 0.7521 0.5415 0.8302
C16_12 C 0.70705(20) 0.53057(14) 0.9937(2)
C17_13 C 0.44303(16) 0.6666 0.9166
H11_13 H 0.4117 0.6666 0.9166
C18_13 C 0.44427(17) 0.62340(12) 0.93841(19)
H12_13 H 0.4140 0.5941 0.9547
C19_12 C 0.73996(21) 0.53375(15) 0.9380(2)
H13_12 H 0.7699 0.5324 0.9493
C20_12 C 0.37795(21) 0.37376(17) 0.68497(18)
C21_12 C 0.42340(19) 0.42071(16) 0.68411(17)
C22_12 C 0.44829(21) 0.44502(17) 0.61322(17)
O5_12 O 0.47678(16) 0.49274(13) 0.61190(12)
H14_12 H 0.3641 0.3560 0.6406
C23_13 C 0.53356(19) 0.71027(11) 0.89713(17)
C24_13 C 0.58289(21) 0.75665(12) 0.87664(17)
O7_12 O 0.62303(14) 0.75735(8) 0.89626(13)
C25_13 C 0.48753(21) 0.70993(12) 0.89492(19)
H15_13 H 0.4865 0.7392 0.8786
N2_12 N 0.53664(17) 0.60652(14) 0.60833(14)
C26_12 C 0.53174(22) 0.66323(18) 0.52078(19)
H16_12 H 0.5297 0.6414 0.4822
C27_12 C 0.53592(21) 0.65094(17) 0.59352(18)
C28_12 C 0.53991(22) 0.68448(18) 0.6504(2)
C29_12 C 0.54627(24) 0.67237(20) 0.7219(2)
H17_12 H 0.5495 0.6945 0.7609
C30_12 C 0.54784(26) 0.62928(21) 0.73547(19)
H18_12 H 0.5525 0.6210 0.7837
C31_12 C 0.54242(22) 0.59722(18) 0.67681(18)
H19_12 H 0.5429 0.5668 0.6872
C32_12 C 0.53876(23) 0.72924(19) 0.6322(2)
H20_12 H 0.5415 0.7521 0.6698
C33_12 C 0.53057(24) 0.70705(20) 0.5063(2)
H21_12 H 0.5275 0.7152 0.4572
C34_12 C 0.53375(25) 0.73996(21) 0.5620(2)
H22_12 H 0.5324 0.7699 0.5507
O11_8 O 0.57598(14) 0.53235(11) 0.56293(13)
O2_12 O 0.04364(8) 0.46765(11) 0.93707(13)
C2_14 C 0.08378(12) 0.50709(17) 0.95669(17)
C3_13 C 0.00270(11) 0.57929(16) 0.81589(17)
C4_14 C 0.13262(14) 0.46598(14) 0.9166
H2_14 H 0.1013 0.4346 0.9166
C6_13 C 0.00420(12) 0.62624(17) 0.81503(18)
H3_13 H 0.0082 0.6440 0.8594
C8_13 C 0.00328(12) 0.55498(17) 0.88678(17)
C9_14 C 0.0001 0.64672(14) 0.7500
H5_9 H 0.0001 0.6780 0.7500
C10_14 C 0.13311(12) 0.51004(16) 0.93620(17)
C17_14 C 0.22361(16) 0.55697(16) 0.9166
H11_14 H 0.2550 0.5883 0.9166
C18_14 C 0.17914(12) 0.55573(17) 0.93841(19)
H12_14 H 0.1802 0.5860 0.9547
O5_13 O 0.01595(9) 0.52322(16) 0.61190(12)
C23_14 C 0.17671(16) 0.46644(19) 0.89713(17)
C24_14 C 0.17376(17) 0.41711(21) 0.87664(17)
O7_13 O 0.13432(11) 0.37697(14) 0.89626(13)
C25_14 C 0.22240(17) 0.51247(21) 0.89492(19)
H15_14 H 0.2527 0.5135 0.8786
N2_13 N 0.06987(10) 0.46336(17) 0.60833(14)
C26_13 C 0.13148(13) 0.46826(22) 0.52078(19)
H16_13 H 0.1116 0.4703 0.4822
C27_13 C 0.11501(12) 0.46408(21) 0.59352(18)
C28_13 C 0.14456(13) 0.46009(22) 0.6504(2)
C29_13 C 0.12609(14) 0.45373(24) 0.7219(2)
H17_13 H 0.1449 0.4505 0.7609
C30_13 C 0.08143(15) 0.45216(26) 0.73547(19)
H18_13 H 0.0684 0.4475 0.7837
C31_13 C 0.05479(13) 0.45758(22) 0.67681(18)
H19_13 H 0.0238 0.4571 0.6872
C32_13 C 0.19047(13) 0.46124(23) 0.6322(2)
H20_13 H 0.2105 0.4585 0.6698
C33_13 C 0.17647(14) 0.46943(24) 0.5063(2)
H21_13 H 0.1876 0.4725 0.4572
C34_13 C 0.20620(14) 0.46625(25) 0.5620(2)
H22_13 H 0.2374 0.4676 0.5507
H1_13 H 0.8884 0.3586 0.0178
H10_13 H 0.8124 0.2848 0.0428
N1_13 N 0.93013(10) 0.39348(14) 0.89167(14)
O1_13 O 0.98405(9) 0.50726(13) 0.88810(12)
C1_13 C 0.86852(13) 0.33677(18) 0.97922(19)
C5_13 C 0.88499(12) 0.34906(17) 0.90648(18)
C7_14 C 1.0000 0.55552(14) 0.7500
H4_14 H 0.9999 0.5241 0.7500
C11_13 C 0.85544(13) 0.31552(18) 0.8496(2)
C12_13 C 0.87391(14) 0.32763(20) 0.7781(2)
H6_13 H 0.8551 0.3055 0.7391
C13_13 C 0.91857(15) 0.37072(21) 0.76453(19)
H7_13 H 0.9316 0.3790 0.7163
C14_13 C 0.94521(13) 0.40278(18) 0.82319(18)
H8_13 H 0.9762 0.4332 0.8128
C15_13 C 0.80953(13) 0.27076(19) 0.8678(2)
H9_13 H 0.7895 0.2479 0.8302
C16_13 C 0.82353(14) 0.29295(20) 0.9937(2)
C19_13 C 0.79380(14) 0.26004(21) 0.9380(2)
H13_13 H 0.7626 0.2301 0.9493
C20_13 C 0.99580(12) 0.62205(21) 0.68497(18)
C21_13 C 0.99730(11) 0.57660(19) 0.68411(17)
C22_13 C 0.99672(12) 0.55171(21) 0.61322(17)
H14_13 H 0.9918 0.6359 0.6406
C23_15 C 0.20023(19) 0.04360(11) 0.23046(17)
C24_15 C 0.24956(21) 0.08998(12) 0.20997(17)
C25_15 C 0.15420(21) 0.04326(12) 0.22825(19)
H15_15 H 0.1532 0.0725 0.2119
C29_14 C 0.21294(24) 0.00570(20) 0.0552(2)
H17_14 H 0.2162 0.0278 0.0942
H20_14 H 0.2082 0.0854 0.0031
C28_14 C 0.20658(22) 0.01781(18) 0.9837(2)
C32_14 C 0.20543(23) 0.06257(19) 0.9655(2)
C33_14 C 0.19724(24) 0.04038(20) 0.8396(2)
H21_14 H 0.1942 0.0485 0.7905
C34_14 C 0.20042(25) 0.07329(21) 0.8953(2)
H22_14 H 0.1991 0.1032 0.8840
N1_14 N 0.27318(14) 0.86998(10) 0.22501(14)
O1_14 O 0.15940(13) 0.81012(9) 0.22144(12)
O2_13 O 0.19901(11) 0.90932(8) 0.27041(13)
O3_9 O 0.08292(13) 0.77226(9) 0.27509(12)
O4_9 O 0.12317(11) 0.87599(8) 0.32630(12)
C1_14 C 0.32989(18) 0.86508(13) 0.31256(19)
H1_14 H 0.3080 0.8631 0.3512
C2_15 C 0.15957(17) 0.91002(12) 0.29003(17)
C3_14 C 0.08737(16) 0.75674(11) 0.14923(17)
C4_15 C 0.20068(14) 1.0000 0.2500
H2_15 H 0.2320 1.0000 0.2500
C5_14 C 0.31760(17) 0.86926(12) 0.23982(18)
C6_14 C 0.04042(17) 0.71129(12) 0.14837(18)
H3_14 H 0.0226 0.6975 0.1928
C7_15 C 0.11114(14) 0.77778(14) 0.0834
H4_15 H 0.1425 0.8091 0.0834
C8_14 C 0.11168(17) 0.78163(12) 0.22012(17)
C9_15 C 0.01994(14) 0.68668(14) 0.0834
C10_15 C 0.15662(16) 0.95640(11) 0.26954(17)
C11_14 C 0.35114(18) 0.87325(13) 0.1830(2)
C12_14 C 0.33903(20) 0.87961(14) 0.1115(2)
H6_14 H 0.3611 0.8829 0.0725
C13_14 C 0.29594(21) 0.88118(14) 0.09787(19)
H7_14 H 0.2876 0.8859 0.0497
C14_14 C 0.26388(18) 0.87576(12) 0.15653(18)
H8_14 H 0.2334 0.8763 0.1462
C15_14 C 0.39590(19) 0.87210(14) 0.2012(2)
H9_14 H 0.4187 0.8749 0.1636
C16_14 C 0.37371(20) 0.86391(14) 0.3271(2)
H10_14 H 0.3818 0.8609 0.3762
C17_15 C 0.10969(16) 1.0000 0.2500
H11_15 H 0.0783 1.0000 0.2500
C18_15 C 0.11093(17) 0.95674(12) 0.27175(19)
H12_15 H 0.0806 0.9275 0.2881
C19_14 C 0.40662(21) 0.86709(15) 0.2714(2)
H13_14 H 0.4365 0.8658 0.2827
C20_14 C 0.04462(21) 0.70709(17) 0.01830(18)
C21_14 C 0.09007(19) 0.75404(16) 0.01744(17)
C30_14 C 0.21451(26) 0.96261(21) 0.06880(19)
H18_14 H 0.2192 0.9543 0.1170
C31_14 C 0.20909(22) 0.93055(18) 0.01014(18)
H19_14 H 0.2096 0.9001 0.0205
O9_9 O 0.25041(13) 0.89441(9) 0.39158(12)
C22_14 C 0.11496(21) 0.77835(17) 0.94655(17)
O5_14 O 0.14345(16) 0.82607(13) 0.94523(12)
O6_9 O 0.10559(16) 0.74959(13) 0.89158(12)
H14_14 H 0.0308 0.6893 0.9739
N2_14 N 0.20331(17) 0.93985(14) 0.94166(14)
C26_14 C 0.19841(22) 0.99656(18) 0.85411(19)
H16_14 H 0.1964 0.9747 0.8155
C27_14 C 0.20259(21) 0.98427(17) 0.92685(18)
O11_9 O 0.24265(14) 0.86568(11) 0.89626(13)
O12_9 O 0.22774(16) 0.91708(13) 0.77509(12)
N1_15 N 0.59679(10) 0.72682(14) 0.22501(14)
O1_15 O 0.65071(9) 0.84060(13) 0.22144(12)
C1_15 C 0.53518(13) 0.67011(18) 0.31256(19)
H1_15 H 0.5550 0.6920 0.3512
C3_15 C 0.66936(11) 0.91263(16) 0.14923(17)
C5_15 C 0.55165(12) 0.68240(17) 0.23982(18)
C6_15 C 0.67086(12) 0.95958(17) 0.14837(18)
H3_15 H 0.6748 0.9774 0.1928
C7_16 C 0.6666 0.88886(14) 0.0834
H4_16 H 0.6665 0.8575 0.0834
C8_15 C 0.66994(12) 0.88832(17) 0.22012(17)
C9_16 C 0.6667 0.98006(14) 0.0834
C11_15 C 0.52210(13) 0.64886(18) 0.1830(2)
C12_15 C 0.54057(14) 0.66097(20) 0.1115(2)
H6_15 H 0.5217 0.6389 0.0725
C13_15 C 0.58523(15) 0.70406(21) 0.09787(19)
H7_15 H 0.5982 0.7124 0.0497
C14_15 C 0.61187(13) 0.73612(18) 0.15653(18)
H8_15 H 0.6428 0.7666 0.1462
C15_15 C 0.47619(13) 0.60410(19) 0.2012(2)
H9_15 H 0.4561 0.5813 0.1636
C16_15 C 0.49019(14) 0.62629(20) 0.3271(2)
H10_15 H 0.4790 0.6182 0.3762
C19_15 C 0.46046(14) 0.59338(21) 0.2714(2)
H13_15 H 0.4292 0.5635 0.2827
C20_15 C 0.66247(12) 0.95538(21) 0.01830(18)
C21_15 C 0.66397(11) 0.90993(19) 0.01744(17)
C29_15 C 0.79276(14) 0.78706(24) 0.0552(2)
H17_15 H 0.8116 0.7838 0.0942
C30_15 C 0.74810(15) 0.78549(26) 0.06880(19)
H18_15 H 0.7351 0.7808 0.1170
C31_15 C 0.72146(13) 0.79091(22) 0.01014(18)
H19_15 H 0.6905 0.7904 0.0205
H20_15 H 0.8772 0.7918 0.0031
C22_15 C 0.66339(12) 0.88504(21) 0.94655(17)
O5_15 O 0.68262(9) 0.85655(16) 0.94523(12)
H14_15 H 0.6585 0.9692 0.9739
N2_15 N 0.73654(10) 0.79669(17) 0.94166(14)
C26_15 C 0.79815(13) 0.80159(22) 0.85411(19)
H16_15 H 0.7783 0.8036 0.8155
C27_15 C 0.78168(12) 0.79741(21) 0.92685(18)
C28_15 C 0.81123(13) 0.79342(22) 0.9837(2)
C32_15 C 0.85714(13) 0.79457(23) 0.9655(2)
C33_15 C 0.84314(14) 0.80276(24) 0.8396(2)
H21_15 H 0.8543 0.8058 0.7905
C34_15 C 0.87287(14) 0.79958(25) 0.8953(2)
H22_15 H 0.9041 0.8009 0.8840
O4_10 O 0.20932(8) 0.78984(11) 0.84037(12)
C2_16 C 0.24335(12) 0.82624(17) 0.87664(17)
C4_16 C 0.3333 0.86735(14) 0.9167
H2_16 H 0.3333 0.8987 0.9167
C10_16 C 0.28973(11) 0.82329(16) 0.89713(17)
C17_16 C 0.3333 0.77636(16) 0.9167
H11_16 H 0.3333 0.7450 0.9167
C18_16 C 0.29007(12) 0.77760(17) 0.89492(19)
H12_16 H 0.2608 0.7473 0.8786
C23_16 C 0.37694(11) 0.86689(19) 0.93620(17)
C24_16 C 0.42332(12) 0.91622(21) 0.95669(17)
O7_14 O 0.42402(8) 0.95636(14) 0.93707(13)
C25_16 C 0.37660(12) 0.82086(21) 0.93841(19)
H15_16 H 0.4059 0.8198 0.9547
C3_16 C 0.24596(16) 0.33603(11) 0.01744(17)
C6_16 C 0.29291(17) 0.33753(12) 0.01830(18)
C7_17 C 0.22219(14) 0.3333 0.0833
H4_17 H 0.1908 0.3332 0.0833
C9_17 C 0.31339(14) 0.3334 0.0833
H5_10 H 0.3447 0.3334 0.0833
C13_16 C 0.03739(21) 0.25190(15) 0.06880(19)
H7_16 H 0.0457 0.2649 0.1170
C14_16 C 0.06945(18) 0.27854(13) 0.01014(18)
H8_16 H 0.0999 0.3095 0.0205
C20_16 C 0.28871(21) 0.32914(12) 0.14837(18)
C21_16 C 0.24326(19) 0.33064(11) 0.14923(17)
C22_16 C 0.21837(21) 0.33006(12) 0.22012(17)
O5_16 O 0.18988(16) 0.34929(9) 0.22144(12)
H14_16 H 0.3025 0.3252 0.1928
N2_16 N 0.13002(17) 0.40321(10) 0.22501(14)
C26_16 C 0.13492(22) 0.46482(13) 0.31256(19)
H16_16 H 0.1369 0.4450 0.3512
C27_16 C 0.13074(21) 0.44835(12) 0.23982(18)
C28_16 C 0.12675(22) 0.47790(13) 0.1830(2)
C29_16 C 0.12039(24) 0.45943(14) 0.1115(2)
H17_16 H 0.1171 0.4783 0.0725
C30_16 C 0.11882(26) 0.41477(15) 0.09787(19)
H18_16 H 0.1141 0.4018 0.0497
C31_16 C 0.12424(22) 0.38813(13) 0.15653(18)
H19_16 H 0.1237 0.3572 0.1462
C32_16 C 0.12790(23) 0.52381(13) 0.2012(2)
H20_16 H 0.1251 0.5439 0.1636
C33_16 C 0.13609(24) 0.50981(14) 0.3271(2)
H21_16 H 0.1391 0.5210 0.3762
C34_16 C 0.13291(25) 0.53954(14) 0.2714(2)
H22_16 H 0.1342 0.5708 0.2827
N1_16 N 0.06015(14) 0.26346(10) 0.94166(14)
O1_16 O 0.17393(13) 0.31738(9) 0.94523(12)
C1_16 C 0.00344(18) 0.20185(13) 0.85411(19)
H1_16 H 0.0253 0.2217 0.8155
C5_16 C 0.01573(17) 0.21832(12) 0.92685(18)
H3_16 H 0.3107 0.3415 0.9739
C8_16 C 0.22165(17) 0.33661(12) 0.94655(17)
O10_10 O 0.12317(11) 0.24719(8) 0.82630(12)
C12_16 C 0.99430(20) 0.20724(14) 0.0552(2)
H6_16 H 0.9722 0.1884 0.0942
H9_16 H 0.9146 0.1228 0.0031
C11_16 C 0.98219(18) 0.18877(13) 0.9837(2)
C15_16 C 0.93743(19) 0.14286(13) 0.9655(2)
C16_16 C 0.95962(20) 0.15686(14) 0.8396(2)
H10_16 H 0.9515 0.1457 0.7905
C19_16 C 0.92671(21) 0.12713(14) 0.8953(2)
H13_16 H 0.8968 0.0959 0.8840
C2_17 C 0.75665(12) 0.58289(12) 0.62336(17)
C4_17 C 0.6667 0.53405(14) 0.5833
H2_17 H 0.6667 0.5654 0.5833
C10_17 C 0.71027(11) 0.53356(12) 0.60287(17)
C17_17 C 0.6667 0.44306(16) 0.5833
H11_17 H 0.6667 0.4117 0.5833
C18_17 C 0.70993(12) 0.48753(12) 0.60508(19)
H12_17 H 0.7392 0.4865 0.6214
C23_17 C 0.62306(11) 0.48996(16) 0.56380(17)
C24_17 C 0.57668(12) 0.49291(17) 0.54331(17)
C25_17 C 0.62340(12) 0.44427(17) 0.56159(19)
H15_17 H 0.5941 0.4140 0.5453
C7_18 C 0.0000 0.55556(14) 0.7500
H4_18 H 0.0001 0.5243 0.7500
C9_18 C 0.9999 0.64666(14) 0.7500
H5_11 H 0.9999 0.6780 0.7500
H16_17 H 0.4703 0.1116 0.0178
H21_17 H 0.4725 0.1876 0.0428
C3_17 C 0.57929(16) 0.00270(11) 0.68411(17)
C6_17 C 0.62624(17) 0.00420(12) 0.68497(18)
H3_17 H 0.6440 0.0082 0.6406
C8_17 C 0.55498(17) 0.00328(12) 0.61322(17)
C9_19 C 0.64672(14) 0.0001 0.7500
H5_12 H 0.6780 0.0001 0.7500
O5_17 O 0.52322(16) 0.01595(9) 0.88810(12)
N2_17 N 0.46336(17) 0.06987(10) 0.89167(14)
C26_17 C 0.46826(22) 0.13148(13) 0.97922(19)
C27_17 C 0.46408(21) 0.11501(12) 0.90648(18)
C28_17 C 0.46009(22) 0.14456(13) 0.8496(2)
C29_17 C 0.45373(24) 0.12609(14) 0.7781(2)
H17_17 H 0.4505 0.1449 0.7391
C30_17 C 0.45216(26) 0.08143(15) 0.76453(19)
H18_17 H 0.4475 0.0684 0.7163
C31_17 C 0.45758(22) 0.05479(13) 0.82319(18)
H19_17 H 0.4571 0.0238 0.8128
C32_17 C 0.46124(23) 0.19047(13) 0.8678(2)
H20_17 H 0.4585 0.2105 0.8302
C33_17 C 0.46943(24) 0.17647(14) 0.9937(2)
C34_17 C 0.46625(25) 0.20620(14) 0.9380(2)
H22_17 H 0.4676 0.2374 0.9493
N1_17 N 0.39348(14) 0.93013(10) 0.60833(14)
O1_17 O 0.50726(13) 0.98405(9) 0.61190(12)
C1_17 C 0.33677(18) 0.86852(13) 0.52078(19)
H1_17 H 0.3586 0.8884 0.4822
C5_17 C 0.34906(17) 0.88499(12) 0.59352(18)
C7_19 C 0.55552(14) 1.0000 0.7500
H4_19 H 0.5241 0.9999 0.7500
C11_17 C 0.31552(18) 0.85544(13) 0.6504(2)
C12_17 C 0.32763(20) 0.87391(14) 0.7219(2)
H6_17 H 0.3055 0.8551 0.7609
C13_17 C 0.37072(21) 0.91857(15) 0.73547(19)
H7_17 H 0.3790 0.9316 0.7837
C14_17 C 0.40278(18) 0.94521(13) 0.67681(18)
H8_17 H 0.4332 0.9762 0.6872
C15_17 C 0.27076(19) 0.80953(13) 0.6322(2)
H9_17 H 0.2479 0.7895 0.6698
C16_17 C 0.29295(20) 0.82353(14) 0.5063(2)
H10_17 H 0.2848 0.8124 0.4572
C19_17 C 0.26004(21) 0.79380(14) 0.5620(2)
H13_17 H 0.2301 0.7626 0.5507
C20_17 C 0.62205(21) 0.99580(12) 0.81503(18)
C21_17 C 0.57660(19) 0.99730(11) 0.81589(17)
C22_17 C 0.55171(21) 0.99672(12) 0.88678(17)
H14_17 H 0.6359 0.9918 0.8594
C4_18 C 0.0000 0.20072(14) 0.2500
H2_18 H 0.0000 0.2321 0.2500
C17_18 C 0.0000 0.10973(16) 0.2500
H11_18 H 0.0000 0.0784 0.2500
C4_19 C 0.20072(14) 0.0000 0.2500
H2_19 H 0.2321 0.0000 0.2500
C17_19 C 0.10973(16) 0.0000 0.2500
H11_19 H 0.0784 0.0000 0.2500
C7_20 C 0.55556(14) 0.0000 0.7500
H4_20 H 0.5243 0.0001 0.7500
C9_20 C 0.64666(14) 0.9999 0.7500
H5_13 H 0.6780 0.9999 0.7500
N1_18 N 0.06015(14) 0.79669(10) 0.44166(14)
O1_18 O 0.17393(13) 0.85655(9) 0.44523(12)
C1_18 C 0.00344(18) 0.80159(13) 0.35411(19)
H1_18 H 0.0253 0.8036 0.3155
C3_18 C 0.24596(16) 0.90993(11) 0.51744(17)
C5_18 C 0.01573(17) 0.79741(12) 0.42685(18)
C6_18 C 0.29291(17) 0.95538(12) 0.51830(18)
H3_18 H 0.3107 0.9692 0.4739
C7_21 C 0.22219(14) 0.88889(14) 0.5833
H4_21 H 0.1908 0.8576 0.5833
C8_18 C 0.22165(17) 0.88504(12) 0.44655(17)
C9_21 C 0.31339(14) 0.97999(14) 0.5833
C13_18 C 0.03739(21) 0.78549(14) 0.56880(19)
H7_18 H 0.0457 0.7808 0.6170
C14_18 C 0.06945(18) 0.79091(12) 0.51014(18)
H8_18 H 0.0999 0.7904 0.5205
C20_18 C 0.28871(21) 0.95958(17) 0.64837(18)
C21_18 C 0.24326(19) 0.91263(16) 0.64923(17)
C22_18 C 0.21837(21) 0.88832(17) 0.72012(17)
O5_18 O 0.18988(16) 0.84060(13) 0.72144(12)
H14_18 H 0.3025 0.9774 0.6928
N2_18 N 0.13002(17) 0.72682(14) 0.72501(14)
C26_18 C 0.13492(22) 0.67011(18) 0.81256(19)
H16_18 H 0.1369 0.6920 0.8512
C27_18 C 0.13074(21) 0.68240(17) 0.73982(18)
C28_18 C 0.12675(22) 0.64886(18) 0.6830(2)
C29_18 C 0.12039(24) 0.66097(20) 0.6115(2)
H17_18 H 0.1171 0.6389 0.5725
C30_18 C 0.11882(26) 0.70406(21) 0.59787(19)
H18_18 H 0.1141 0.7124 0.5497
C31_18 C 0.12424(22) 0.73612(18) 0.65653(18)
H19_18 H 0.1237 0.7666 0.6462
C32_18 C 0.12790(23) 0.60410(19) 0.7012(2)
H20_18 H 0.1251 0.5813 0.6636
C33_18 C 0.13609(24) 0.62629(20) 0.8271(2)
H21_18 H 0.1391 0.6182 0.8762
C34_18 C 0.13291(25) 0.59338(21) 0.7714(2)
H22_18 H 0.1342 0.5635 0.7827
C11_18 C 0.98219(18) 0.79342(13) 0.4837(2)
C12_18 C 0.99430(20) 0.78706(14) 0.5552(2)
H6_18 H 0.9722 0.7838 0.5942
C15_18 C 0.93743(19) 0.79457(14) 0.4655(2)
H9_18 H 0.9146 0.7918 0.5031
C16_18 C 0.95962(20) 0.80276(14) 0.3396(2)
H10_18 H 0.9515 0.8058 0.2905
C19_18 C 0.92671(21) 0.79958(15) 0.3953(2)
H13_18 H 0.8968 0.8009 0.3840
C4_20 C 0.0000 0.79932(14) 0.7500
H2_20 H 0.0000 0.7680 0.7500
C17_20 C 0.0000 0.89031(16) 0.7500
H11_20 H 0.0000 0.9217 0.7500
C2_18 C 0.15957(17) 0.24956(12) 0.79003(17)
C4_21 C 0.20068(14) 0.20072(14) 0.7500
H2_21 H 0.2320 0.2321 0.7500
C10_18 C 0.15662(16) 0.20023(12) 0.76954(17)
C17_21 C 0.10969(16) 0.10973(16) 0.7500
H11_21 H 0.0783 0.0784 0.7500
C18_18 C 0.11093(17) 0.15420(12) 0.77175(19)
H12_18 H 0.0806 0.1532 0.7881
C23_18 C 0.20023(19) 0.15662(16) 0.73046(17)
C24_18 C 0.24956(21) 0.15957(17) 0.70997(17)
C25_18 C 0.15420(21) 0.11093(17) 0.72825(19)
H15_18 H 0.1532 0.0806 0.7119
C7_22 C 0.0000 0.44448(14) 0.2500
H4_22 H 0.0001 0.4759 0.2500
C9_22 C 0.9999 0.35328(14) 0.2500
H5_14 H 0.9999 0.3220 0.2500
C4_22 C 0.79932(14) 0.0000 0.7500
H2_22 H 0.7680 0.0000 0.7500
C17_22 C 0.89031(16) 0.0000 0.7500
H11_22 H 0.9217 0.0000 0.7500
H5_15 H 0.3334 0.9887 0.9167
H5_16 H 0.0113 0.3447 0.9167
H5_17 H 0.9887 0.3334 0.5833
H5_18 H 0.6553 0.9887 0.4167
H5_19 H 0.0114 0.6667 0.4166
H5_20 H 0.9886 0.6554 0.0834
H5_21 H 0.6667 0.0114 0.0834
H5_22 H 0.3447 0.0113 0.5833
loop_
_geom_bond_atom_site_label_1
_geom_bond_atom_site_label_2
_geom_bond_site_symmetry_1
_geom_bond_site_symmetry_2
Co1 N1 1_555 1_555
N1 C5 1_555 1_555
O1 Co1 1_555 1_555
O2 Co1 1_555 1_555
O3 C8 1_555 1_555
O4 C2 1_555 1_555
C1 H1 1_555 1_555
C2 O2 1_555 1_555
C4 H2 1_555 1_555
C5 C1 1_555 1_555
C8 O1 1_555 1_555
C10 C2 1_555 1_555
C11 C5 1_555 1_555
C15 C11 1_555 1_555
C16 C1 1_555 1_555
H10 C16 1_555 1_555
C17 H11 1_555 1_555
C18 C10 1_555 1_555
H12 C18 1_555 1_555
C19 C15 1_555 1_555
H13 C19 1_555 1_555
C23 C4 1_555 1_555
C24 C23 1_555 1_555
O7 C24 1_555 1_555
O8 C24 1_555 1_555
C25 C17 1_555 1_555
H15 C25 1_555 1_555
Co3 Co1 1_555 1_555
O9 Co1 1_555 1_555
O10 Co1 1_555 1_555
Co5 O7 1_555 1_555
O3 Co3 1_555 1_555
O4 Co3 1_555 1_555
C4 C10 1_555 1_555
C16 C19 1_555 1_555
C17 C18 1_555 1_555
C23 C25 1_555 1_555
C3 C6 1_555 1_555
C7 C3 1_555 1_555
H4 C7 1_555 1_555
C9 C6 1_555 1_555
H6 C12 1_555 1_555
C13 C12 1_555 1_555
H7 C13 1_555 1_555
H8 C14 1_555 1_555
C20 C9 1_555 1_555
C21 C7 1_555 1_555
C22 C21 1_555 1_555
O5 C22 1_555 1_555
O6 C22 1_555 1_555
H14 C20 1_555 1_555
Co2 O5 1_555 1_555
N2 Co2 1_555 1_555
C26 H16 1_555 1_555
C27 N2 1_555 1_555
C28 C27 1_555 1_555
C29 C28 1_555 1_555
H17 C29 1_555 1_555
C30 C29 1_555 1_555
H18 C30 1_555 1_555
C31 N2 1_555 1_555
H19 C31 1_555 1_555
C32 C28 1_555 1_555
H20 C32 1_555 1_555
C33 C26 1_555 1_555
H21 C33 1_555 1_555
C34 C32 1_555 1_555
H22 C34 1_555 1_555
Co4 O6 1_555 1_555
O11 Co2 1_555 1_555
O12 Co2 1_555 1_555
O13 Co2 1_555 1_555
C13 C14 1_555 1_555
C20 C21 1_555 1_555
Co2 Co4 1_555 1_555
C26 C27 1_555 1_555
C30 C31 1_555 1_555
C33 C34 1_555 1_555
Co1_2 N1_2 1_555 1_555
N1_2 C5_2 1_555 1_555
O1_2 Co1_2 1_555 1_555
O2_2 Co1_2 1_555 1_555
O3_2 C8_2 1_555 1_555
O4_2 C2_2 1_555 1_555
C1_2 H1_2 1_555 1_555
C2_2 O2_2 1_555 1_555
C4_2 H2_2 1_555 1_555
C5_2 C1_2 1_555 1_555
C8_2 O1_2 1_555 1_555
C10_2 C2_2 1_555 1_555
C17_2 H11_2 1_555 1_555
C18_2 C10_2 1_555 1_555
H12_2 C18_2 1_555 1_555
C23_2 C4_2 1_555 1_555
C24_2 C23_2 1_555 1_555
O7_2 C24_2 1_555 1_555
O8_2 C24_2 1_555 1_555
C25_2 C17_2 1_555 1_555
H15_2 C25_2 1_555 1_555
Co3_2 Co1_2 1_555 1_555
O9_2 Co1_2 1_555 1_555
O10_2 Co1_2 1_555 1_555
O3_2 Co3_2 1_555 1_555
O4_2 Co3_2 1_555 1_555
C4_2 C10_2 1_555 1_555
C17_2 C18_2 1_555 1_555
C23_2 C25_2 1_555 1_555
C3_2 C6_2 1_555 1_555
C7_2 C3_2 1_555 1_555
H4_2 C7_2 1_555 1_555
C9_2 C6_2 1_555 1_555
H7_2 C13_2 1_555 1_555
H8_2 C14_2 1_555 1_555
C20_2 C9_2 1_555 1_555
C21_2 C7_2 1_555 1_555
C22_2 C21_2 1_555 1_555
O5_2 C22_2 1_555 1_555
O6_2 C22_2 1_555 1_555
H14_2 C20_2 1_555 1_555
Co2_2 O5_2 1_555 1_555
N2_2 Co2_2 1_555 1_555
C26_2 H16_2 1_555 1_555
C27_2 N2_2 1_555 1_555
C28_2 C27_2 1_555 1_555
C29_2 C28_2 1_555 1_555
H17_2 C29_2 1_555 1_555
C30_2 C29_2 1_555 1_555
H18_2 C30_2 1_555 1_555
C31_2 N2_2 1_555 1_555
H19_2 C31_2 1_555 1_555
C32_2 C28_2 1_555 1_555
H20_2 C32_2 1_555 1_555
C33_2 C26_2 1_555 1_555
H21_2 C33_2 1_555 1_555
C34_2 C32_2 1_555 1_555
H22_2 C34_2 1_555 1_555
Co4_2 O6_2 1_555 1_555
O11_2 Co2_2 1_555 1_555
O12_2 Co2_2 1_555 1_555
O13_2 Co2_2 1_555 1_555
C13_2 C14_2 1_555 1_555
C20_2 C21_2 1_555 1_555
Co2_2 Co4_2 1_555 1_555
C26_2 C27_2 1_555 1_555
C30_2 C31_2 1_555 1_555
C33_2 C34_2 1_555 1_555
C15_2 C11_2 1_555 1_555
H10_2 C16_2 1_555 1_555
C19_2 C15_2 1_555 1_555
H13_2 C19_2 1_555 1_555
C16_2 C19_2 1_555 1_555
H6_2 C12_2 1_555 1_555
C15_3 C11_3 1_555 1_555
H10_3 C16_3 1_555 1_555
C19_3 C15_3 1_555 1_555
H13_3 C19_3 1_555 1_555
C16_3 C19_3 1_555 1_555
H6_3 C12_3 1_555 1_555
Co1_3 N1_3 1_555 1_555
N1_3 C5_3 1_555 1_555
O1_3 Co1_3 1_555 1_555
O2_3 Co1_3 1_555 1_555
O3_3 C8_3 1_555 1_555
O4_3 C2_3 1_555 1_555
C1_3 H1_3 1_555 1_555
C2_3 O2_3 1_555 1_555
C4_3 H2_3 1_555 1_555
C5_3 C1_3 1_555 1_555
C8_3 O1_3 1_555 1_555
C10_3 C2_3 1_555 1_555
C17_3 H11_3 1_555 1_555
C18_3 C10_3 1_555 1_555
H12_3 C18_3 1_555 1_555
C23_3 C4_3 1_555 1_555
C24_3 C23_3 1_555 1_555
O7_3 C24_3 1_555 1_555
O8_3 C24_3 1_555 1_555
C25_3 C17_3 1_555 1_555
H15_3 C25_3 1_555 1_555
Co3_3 Co1_3 1_555 1_555
O9_3 Co1_3 1_555 1_555
O10_3 Co1_3 1_555 1_555
O3_3 Co3_3 1_555 1_555
O4_3 Co3_3 1_555 1_555
C4_3 C10_3 1_555 1_555
C17_3 C18_3 1_555 1_555
C23_3 C25_3 1_555 1_555
C3_3 C6_3 1_555 1_555
C7_3 C3_3 1_555 1_555
H4_3 C7_3 1_555 1_555
C9_3 C6_3 1_555 1_555
H5 C9_3 1_555 1_555
H7_3 C13_3 1_555 1_555
H8_3 C14_3 1_555 1_555
C20_3 C9_3 1_555 1_555
C21_3 C7_3 1_555 1_555
C22_3 C21_3 1_555 1_555
O5_3 C22_3 1_555 1_555
O6_3 C22_3 1_555 1_555
H14_3 C20_3 1_555 1_555
Co2_3 O5_3 1_555 1_555
N2_3 Co2_3 1_555 1_555
C26_3 H16_3 1_555 1_555
C27_3 N2_3 1_555 1_555
C28_3 C27_3 1_555 1_555
C29_3 C28_3 1_555 1_555
H17_3 C29_3 1_555 1_555
C30_3 C29_3 1_555 1_555
H18_3 C30_3 1_555 1_555
C31_3 N2_3 1_555 1_555
H19_3 C31_3 1_555 1_555
C32_3 C28_3 1_555 1_555
H20_3 C32_3 1_555 1_555
C33_3 C26_3 1_555 1_555
H21_3 C33_3 1_555 1_555
C34_3 C32_3 1_555 1_555
H22_3 C34_3 1_555 1_555
Co4_3 O6_3 1_555 1_555
O11_3 Co2_3 1_555 1_555
O12_3 Co2_3 1_555 1_555
O13_3 Co2_3 1_555 1_555
C13_3 C14_3 1_555 1_555
C20_3 C21_3 1_555 1_555
Co2_3 Co4_3 1_555 1_555
C26_3 C27_3 1_555 1_555
C30_3 C31_3 1_555 1_555
C33_3 C34_3 1_555 1_555
Co1_4 N1_4 1_555 1_555
N1_4 C5_4 1_555 1_555
O1_4 Co1_4 1_555 1_555
O2_4 Co1_4 1_555 1_555
O3_4 C8_4 1_555 1_555
O4_4 C2_4 1_555 1_555
C1_4 H1_4 1_555 1_555
C2_4 O2_4 1_555 1_555
C3_4 C6_4 1_555 1_555
C4_4 H2_4 1_555 1_555
C5_4 C1_4 1_555 1_555
C6_4 H3_4 1_555 1_555
C7_4 C3_4 1_555 1_555
H4_4 C7_4 1_555 1_555
C8_4 O1_4 1_555 1_555
C9_4 C6_4 1_555 1_555
C10_4 C2_4 1_555 1_555
C11_4 C5_4 1_555 1_555
C12_4 C11_4 1_555 1_555
H6_4 C12_4 1_555 1_555
C13_4 C12_4 1_555 1_555
H7_4 C13_4 1_555 1_555
C14_4 N1_4 1_555 1_555
H8_4 C14_4 1_555 1_555
C15_4 C11_4 1_555 1_555
H9_4 C15_4 1_555 1_555
C16_4 C1_4 1_555 1_555
H10_4 C16_4 1_555 1_555
C17_4 H11_4 1_555 1_555
C18_4 C10_4 1_555 1_555
H12_4 C18_4 1_555 1_555
C19_4 C15_4 1_555 1_555
H13_4 C19_4 1_555 1_555
C20_4 C9_4 1_555 1_555
C21_4 C7_4 1_555 1_555
C22_4 C21_4 1_555 1_555
O5_4 C22_4 1_555 1_555
O6_4 C22_4 1_555 1_555
H14_4 C20_4 1_555 1_555
C23_4 C4_4 1_555 1_555
C24_4 C23_4 1_555 1_555
O7_4 C24_4 1_555 1_555
O8_4 C24_4 1_555 1_555
C25_4 C17_4 1_555 1_555
H15_4 C25_4 1_555 1_555
Co2_4 O5_4 1_555 1_555
N2_4 Co2_4 1_555 1_555
C26_4 H16_4 1_555 1_555
C27_4 N2_4 1_555 1_555
C28_4 C27_4 1_555 1_555
C29_4 C28_4 1_555 1_555
H17_4 C29_4 1_555 1_555
C30_4 C29_4 1_555 1_555
H18_4 C30_4 1_555 1_555
C31_4 N2_4 1_555 1_555
H19_4 C31_4 1_555 1_555
C32_4 C28_4 1_555 1_555
H20_4 C32_4 1_555 1_555
C33_4 C26_4 1_555 1_555
H21_4 C33_4 1_555 1_555
C34_4 C32_4 1_555 1_555
H22_4 C34_4 1_555 1_555
Co3_4 Co1_4 1_555 1_555
O9_4 Co1_4 1_555 1_555
O10_4 Co1_4 1_555 1_555
Co4_4 O6_4 1_555 1_555
Co5_4 O7_4 1_555 1_555
Co6_4 O8_4 1_555 1_555
O11_4 Co2_4 1_555 1_555
O12_4 Co2_4 1_555 1_555
O13_4 Co2_4 1_555 1_555
O3_4 Co3_4 1_555 1_555
O4_4 Co3_4 1_555 1_555
C3_4 C8_4 1_555 1_555
C4_4 C10_4 1_555 1_555
C13_4 C14_4 1_555 1_555
C16_4 C19_4 1_555 1_555
C17_4 C18_4 1_555 1_555
C20_4 C21_4 1_555 1_555
C23_4 C25_4 1_555 1_555
Co2_4 Co4_4 1_555 1_555
C26_4 C27_4 1_555 1_555
C30_4 C31_4 1_555 1_555
C33_4 C34_4 1_555 1_555
Co5_4 Co6_4 1_555 1_555
O3_5 C8_5 1_555 1_555
O4_5 C2_5 1_555 1_555
C2_5 O2_5 1_555 1_555
C3_5 C6_5 1_555 1_555
C4_5 H2_5 1_555 1_555
C6_5 H3_5 1_555 1_555
C9_5 C6_5 1_555 1_555
H5_2 C9_5 1_555 1_555
C10_5 C2_5 1_555 1_555
C17_5 H11_5 1_555 1_555
C18_5 C10_5 1_555 1_555
H12_5 C18_5 1_555 1_555
C23_5 C4_5 1_555 1_555
C24_5 C23_5 1_555 1_555
O7_5 C24_5 1_555 1_555
O8_5 C24_5 1_555 1_555
C25_5 C17_5 1_555 1_555
H15_5 C25_5 1_555 1_555
Co5_3 O5_5 1_555 1_555
N2_5 Co5_3 1_555 1_555
C27_5 N2_5 1_555 1_555
C28_5 C27_5 1_555 1_555
C29_5 C28_5 1_555 1_555
H17_5 C29_5 1_555 1_555
C30_5 C29_5 1_555 1_555
H18_5 C30_5 1_555 1_555
C31_5 N2_5 1_555 1_555
H19_5 C31_5 1_555 1_555
C32_5 C28_5 1_555 1_555
H20_5 C32_5 1_555 1_555
C33_5 C26_5 1_555 1_555
C34_5 C32_5 1_555 1_555
H22_5 C34_5 1_555 1_555
Co5_5 O7_5 1_555 1_555
Co6_5 O8_5 1_555 1_555
O3_5 Co3_5 1_555 1_555
O4_5 Co3_5 1_555 1_555
C3_5 C8_5 1_555 1_555
C4_5 C10_5 1_555 1_555
C17_5 C18_5 1_555 1_555
C23_5 C25_5 1_555 1_555
C26_5 C27_5 1_555 1_555
C30_5 C31_5 1_555 1_555
C33_5 C34_5 1_555 1_555
Co5_5 Co6_5 1_555 1_555
Co1_5 N1_5 1_555 1_555
N1_5 C5_5 1_555 1_555
O1_5 Co1_5 1_555 1_555
C1_5 H1_5 1_555 1_555
C5_5 C1_5 1_555 1_555
H4_5 C7_5 1_555 1_555
C11_5 C5_5 1_555 1_555
C12_5 C11_5 1_555 1_555
H6_5 C12_5 1_555 1_555
C13_5 C12_5 1_555 1_555
H7_5 C13_5 1_555 1_555
C14_5 N1_5 1_555 1_555
H8_5 C14_5 1_555 1_555
C15_5 C11_5 1_555 1_555
H9_5 C15_5 1_555 1_555
C16_5 C1_5 1_555 1_555
H10_5 C16_5 1_555 1_555
C19_5 C15_5 1_555 1_555
H13_5 C19_5 1_555 1_555
C21_5 C7_5 1_555 1_555
C22_5 C21_5 1_555 1_555
O6_5 C22_5 1_555 1_555
H14_5 C20_5 1_555 1_555
O9_5 Co1_5 1_555 1_555
O10_5 Co1_5 1_555 1_555
C13_5 C14_5 1_555 1_555
C16_5 C19_5 1_555 1_555
C20_5 C21_5 1_555 1_555
Co5_4 N1_6 1_555 1_555
N1_6 C5_6 1_555 1_555
O1_6 Co5_4 1_555 1_555
O3_6 C8_6 1_555 1_555
C1_6 H1_6 1_555 1_555
C3_6 C6_6 1_555 1_555
C5_6 C1_6 1_555 1_555
C6_6 H3_6 1_555 1_555
C7_6 C3_6 1_555 1_555
H4_6 C7_6 1_555 1_555
C8_6 O1_6 1_555 1_555
C9_6 C6_6 1_555 1_555
H5_3 C9_6 1_555 1_555
C11_6 C5_6 1_555 1_555
C12_6 C11_6 1_555 1_555
H6_6 C12_6 1_555 1_555
C13_6 C12_6 1_555 1_555
H7_6 C13_6 1_555 1_555
C14_6 N1_6 1_555 1_555
H8_6 C14_6 1_555 1_555
C15_6 C11_6 1_555 1_555
H9_6 C15_6 1_555 1_555
C16_6 C1_6 1_555 1_555
H10_6 C16_6 1_555 1_555
C19_6 C15_6 1_555 1_555
H13_6 C19_6 1_555 1_555
C20_6 C9_6 1_555 1_555
C21_6 C7_6 1_555 1_555
C22_6 C21_6 1_555 1_555
O5_6 C22_6 1_555 1_555
O6_6 C22_6 1_555 1_555
H14_6 C20_6 1_555 1_555
Co5 O5_6 1_555 1_555
N2_6 Co5 1_555 1_555
C27_6 N2_6 1_555 1_555
C28_6 C27_6 1_555 1_555
C29_6 C28_6 1_555 1_555
H17_6 C29_6 1_555 1_555
C30_6 C29_6 1_555 1_555
H18_6 C30_6 1_555 1_555
C31_6 N2_6 1_555 1_555
H19_6 C31_6 1_555 1_555
C32_6 C28_6 1_555 1_555
H20_6 C32_6 1_555 1_555
C33_6 C26_6 1_555 1_555
C34_6 C32_6 1_555 1_555
H22_6 C34_6 1_555 1_555
O9_6 Co5_4 1_555 1_555
O10_6 Co5_4 1_555 1_555
O3_6 Co6_4 1_555 1_555
C3_6 C8_6 1_555 1_555
C13_6 C14_6 1_555 1_555
C16_6 C19_6 1_555 1_555
C20_6 C21_6 1_555 1_555
C26_6 C27_6 1_555 1_555
C30_6 C31_6 1_555 1_555
C33_6 C34_6 1_555 1_555
Co1_6 N1_7 1_555 1_555
N1_7 C5_7 1_555 1_555
O1_7 Co1_6 1_555 1_555
C1_7 H1_7 1_555 1_555
C5_7 C1_7 1_555 1_555
H4_7 C7_7 1_555 1_555
C11_7 C5_7 1_555 1_555
C12_7 C11_7 1_555 1_555
H6_7 C12_7 1_555 1_555
C13_7 C12_7 1_555 1_555
H7_7 C13_7 1_555 1_555
C14_7 N1_7 1_555 1_555
H8_7 C14_7 1_555 1_555
C15_7 C11_7 1_555 1_555
H9_7 C15_7 1_555 1_555
C16_7 C1_7 1_555 1_555
H10_7 C16_7 1_555 1_555
C19_7 C15_7 1_555 1_555
H13_7 C19_7 1_555 1_555
C21_7 C7_7 1_555 1_555
C22_7 C21_7 1_555 1_555
O6_7 C22_7 1_555 1_555
H14_7 C20_7 1_555 1_555
O9_7 Co1_6 1_555 1_555
O10_7 Co1_6 1_555 1_555
C13_7 C14_7 1_555 1_555
C16_7 C19_7 1_555 1_555
C20_7 C21_7 1_555 1_555
O3_7 C8_7 1_555 1_555
O4_6 C2_6 1_555 1_555
C2_6 O2_6 1_555 1_555
C3_7 C6_7 1_555 1_555
C4_6 H2_6 1_555 1_555
C6_7 H3_7 1_555 1_555
C9_7 C6_7 1_555 1_555
H5_4 C9_7 1_555 1_555
C10_6 C2_6 1_555 1_555
C17_6 H11_6 1_555 1_555
C18_6 C10_6 1_555 1_555
H12_6 C18_6 1_555 1_555
C23_6 C4_6 1_555 1_555
C24_6 C23_6 1_555 1_555
O7_6 C24_6 1_555 1_555
O8_6 C24_6 1_555 1_555
C25_6 C17_6 1_555 1_555
H15_6 C25_6 1_555 1_555
Co5_2 O5_7 1_555 1_555
N2_7 Co5_2 1_555 1_555
C27_7 N2_7 1_555 1_555
C28_7 C27_7 1_555 1_555
C29_7 C28_7 1_555 1_555
H17_7 C29_7 1_555 1_555
C30_7 C29_7 1_555 1_555
H18_7 C30_7 1_555 1_555
C31_7 N2_7 1_555 1_555
H19_7 C31_7 1_555 1_555
C32_7 C28_7 1_555 1_555
H20_7 C32_7 1_555 1_555
C33_7 C26_7 1_555 1_555
C34_7 C32_7 1_555 1_555
H22_7 C34_7 1_555 1_555
Co5_6 O7_6 1_555 1_555
Co6_6 O8_6 1_555 1_555
O3_7 Co3_6 1_555 1_555
O4_6 Co3_6 1_555 1_555
C3_7 C8_7 1_555 1_555
C4_6 C10_6 1_555 1_555
C17_6 C18_6 1_555 1_555
C23_6 C25_6 1_555 1_555
C26_7 C27_7 1_555 1_555
C30_7 C31_7 1_555 1_555
C33_7 C34_7 1_555 1_555
Co5_6 Co6_6 1_555 1_555
C24_7 C23_7 1_555 1_555
O7_7 C24_7 1_555 1_555
O8_7 C24_7 1_555 1_555
H15_7 C25_7 1_555 1_555
Co5_7 O7_7 1_555 1_555
Co6_7 O8_7 1_555 1_555
C23_7 C25_7 1_555 1_555
Co5_7 Co6_7 1_555 1_555
O4_7 C2_7 1_555 1_555
C2_7 O11_3 1_555 1_555
C4_7 H2_7 1_555 1_555
C10_7 C2_7 1_555 1_555
C17_7 H11_7 1_555 1_555
C18_7 C10_7 1_555 1_555
H12_7 C18_7 1_555 1_555
O4_7 Co4_3 1_555 1_555
C4_7 C10_7 1_555 1_555
C17_7 C18_7 1_555 1_555
C24_8 C23_8 1_555 1_555
O11_2 C24_8 1_555 1_555
O8_8 C24_8 1_555 1_555
H15_8 C25_8 1_555 1_555
C29_8 C28_8 1_555 1_555
H17_8 C29_8 1_555 1_555
C32_8 C28_8 1_555 1_555
H20_8 C32_8 1_555 1_555
H21_8 C33_8 1_555 1_555
C34_8 C32_8 1_555 1_555
H22_8 C34_8 1_555 1_555
Co4_2 O8_8 1_555 1_555
C23_8 C25_8 1_555 1_555
C33_8 C34_8 1_555 1_555
Co1_7 N1_8 1_555 1_555
N1_8 C5_8 1_555 1_555
O1_8 Co1_7 1_555 1_555
O2_7 Co1_7 1_555 1_555
O3_8 C8_8 1_555 1_555
O4_8 C2_8 1_555 1_555
C1_8 H1_8 1_555 1_555
C2_8 O2_7 1_555 1_555
C3_8 C6_8 1_555 1_555
C4_8 H2_8 1_555 1_555
C5_8 C1_8 1_555 1_555
C6_8 H3_8 1_555 1_555
C7_8 C3_8 1_555 1_555
H4_8 C7_8 1_555 1_555
C8_8 O1_8 1_555 1_555
C9_8 C6_8 1_555 1_555
H5_5 C9_8 1_555 1_555
C10_8 C2_8 1_555 1_555
C11_8 C5_8 1_555 1_555
C12_8 C11_8 1_555 1_555
H6_8 C12_8 1_555 1_555
C13_8 C12_8 1_555 1_555
H7_8 C13_8 1_555 1_555
C14_8 N1_8 1_555 1_555
H8_8 C14_8 1_555 1_555
C15_8 C11_8 1_555 1_555
H9_8 C15_8 1_555 1_555
C16_8 C1_8 1_555 1_555
H10_8 C16_8 1_555 1_555
C17_8 H11_8 1_555 1_555
C18_8 C10_8 1_555 1_555
H12_8 C18_8 1_555 1_555
C19_8 C15_8 1_555 1_555
H13_8 C19_8 1_555 1_555
C20_8 C9_8 1_555 1_555
C21_8 C7_8 1_555 1_555
C22_8 C21_8 1_555 1_555
O5_8 C22_8 1_555 1_555
O6_8 C22_8 1_555 1_555
H14_8 C20_8 1_555 1_555
Co5_6 O5_8 1_555 1_555
N2_8 Co5_6 1_555 1_555
C26_8 H16_8 1_555 1_555
C27_8 N2_8 1_555 1_555
H18_8 C30_8 1_555 1_555
C31_8 N2_8 1_555 1_555
H19_8 C31_8 1_555 1_555
Co3_7 Co1_7 1_555 1_555
O9_8 Co1_7 1_555 1_555
O10_8 Co1_7 1_555 1_555
Co6_6 O6_8 1_555 1_555
O12_8 Co5_6 1_555 1_555
O13_8 Co5_6 1_555 1_555
O3_8 Co3_7 1_555 1_555
O4_8 Co3_7 1_555 1_555
C3_8 C8_8 1_555 1_555
C4_8 C10_8 1_555 1_555
C13_8 C14_8 1_555 1_555
C16_8 C19_8 1_555 1_555
C17_8 C18_8 1_555 1_555
C20_8 C21_8 1_555 1_555
C26_8 C27_8 1_555 1_555
C30_8 C31_8 1_555 1_555
C9_9 C20_7 1_555 1_555
H5_6 C9_9 1_555 1_555
H4_9 C7_9 1_555 1_555
C3_7 C7_9 1_555 1_555
C12_9 C11_9 1_555 1_555
H6_9 C12_9 1_555 1_555
C15_9 C11_9 1_555 1_555
H9_9 C15_9 1_555 1_555
H10_9 C16_9 1_555 1_555
C19_9 C15_9 1_555 1_555
H13_9 C19_9 1_555 1_555
C16_9 C19_9 1_555 1_555
Co4_2 N1_9 1_555 1_555
N1_9 C5_9 1_555 1_555
O1_9 Co4_2 1_555 1_555
O2_8 Co4_2 1_555 1_555
O12_2 C8_9 1_555 1_555
O13_2 C2_9 1_555 1_555
C1_9 H1_9 1_555 1_555
C2_9 O2_8 1_555 1_555
C3_9 C6_9 1_555 1_555
C4_9 H2_9 1_555 1_555
C5_9 C1_9 1_555 1_555
C6_9 H3_9 1_555 1_555
C7_10 C3_9 1_555 1_555
H4_10 C7_10 1_555 1_555
C8_9 O1_9 1_555 1_555
C9_10 C6_9 1_555 1_555
C10_9 C2_9 1_555 1_555
H7_9 C13_9 1_555 1_555
C14_9 N1_9 1_555 1_555
H8_9 C14_9 1_555 1_555
C17_9 H11_9 1_555 1_555
C18_9 C10_9 1_555 1_555
H12_9 C18_9 1_555 1_555
C20_9 C9_10 1_555 1_555
C21_9 C7_10 1_555 1_555
C22_9 C21_9 1_555 1_555
O5_9 C22_9 1_555 1_555
O9_2 C22_9 1_555 1_555
H14_9 C20_9 1_555 1_555
C23_9 C4_9 1_555 1_555
C24_9 C23_9 1_555 1_555
O7_8 C24_9 1_555 1_555
O10_5 C24_9 1_555 1_555
C25_9 C17_9 1_555 1_555
H15_9 C25_9 1_555 1_555
Co3_2 O5_9 1_555 1_555
N2_9 Co3_2 1_555 1_555
C26_9 H16_9 1_555 1_555
C27_9 N2_9 1_555 1_555
C28_9 C27_9 1_555 1_555
C29_9 C28_9 1_555 1_555
H17_9 C29_9 1_555 1_555
C30_9 C29_9 1_555 1_555
H18_9 C30_9 1_555 1_555
C31_9 N2_9 1_555 1_555
H19_9 C31_9 1_555 1_555
C32_9 C28_9 1_555 1_555
H20_9 C32_9 1_555 1_555
C33_9 C26_9 1_555 1_555
H21_9 C33_9 1_555 1_555
C34_9 C32_9 1_555 1_555
H22_9 C34_9 1_555 1_555
O11_5 Co3_2 1_555 1_555
C3_9 C8_9 1_555 1_555
C4_9 C10_9 1_555 1_555
C13_9 C14_9 1_555 1_555
C17_9 C18_9 1_555 1_555
C20_9 C21_9 1_555 1_555
C23_9 C25_9 1_555 1_555
C26_9 C27_9 1_555 1_555
C30_9 C31_9 1_555 1_555
C33_9 C34_9 1_555 1_555
Co4 N1_10 1_555 1_555
N1_10 C5_10 1_555 1_555
O1_10 Co4 1_555 1_555
O2_9 Co4 1_555 1_555
O12 C8_10 1_555 1_555
O13 C2_10 1_555 1_555
C1_10 H1_10 1_555 1_555
C2_10 O2_9 1_555 1_555
C3_10 C6_10 1_555 1_555
C4_10 H2_10 1_555 1_555
C5_10 C1_10 1_555 1_555
C6_10 H3_10 1_555 1_555
C7_11 C3_10 1_555 1_555
H4_11 C7_11 1_555 1_555
C8_10 O1_10 1_555 1_555
C9_11 C6_10 1_555 1_555
H5_7 C9_11 1_555 1_555
C10_10 C2_10 1_555 1_555
H7_10 C13_10 1_555 1_555
C14_10 N1_10 1_555 1_555
H8_10 C14_10 1_555 1_555
C17_10 H11_10 1_555 1_555
C18_10 C10_10 1_555 1_555
H12_10 C18_10 1_555 1_555
C20_10 C9_11 1_555 1_555
C21_10 C7_11 1_555 1_555
C22_10 C21_10 1_555 1_555
O5_10 C22_10 1_555 1_555
O9 C22_10 1_555 1_555
H14_10 C20_10 1_555 1_555
C23_10 C4_10 1_555 1_555
C24_10 C23_10 1_555 1_555
O7_9 C24_10 1_555 1_555
O10_7 C24_10 1_555 1_555
C25_10 C17_10 1_555 1_555
H15_10 C25_10 1_555 1_555
Co3 O5_10 1_555 1_555
N2_10 Co3 1_555 1_555
C26_10 H16_10 1_555 1_555
C27_10 N2_10 1_555 1_555
C28_10 C27_10 1_555 1_555
C29_10 C28_10 1_555 1_555
H17_10 C29_10 1_555 1_555
C30_10 C29_10 1_555 1_555
H18_10 C30_10 1_555 1_555
C31_10 N2_10 1_555 1_555
H19_10 C31_10 1_555 1_555
C32_10 C28_10 1_555 1_555
H20_10 C32_10 1_555 1_555
C33_10 C26_10 1_555 1_555
H21_10 C33_10 1_555 1_555
C34_10 C32_10 1_555 1_555
H22_10 C34_10 1_555 1_555
O10_9 Co4 1_555 1_555
O11_6 Co3 1_555 1_555
C3_10 C8_10 1_555 1_555
C4_10 C10_10 1_555 1_555
C13_10 C14_10 1_555 1_555
C17_10 C18_10 1_555 1_555
C20_10 C21_10 1_555 1_555
C23_10 C25_10 1_555 1_555
C26_10 C27_10 1_555 1_555
C30_10 C31_10 1_555 1_555
C33_10 C34_10 1_555 1_555
C12_10 C11_10 1_555 1_555
H6_10 C12_10 1_555 1_555
C15_10 C11_10 1_555 1_555
H9_10 C15_10 1_555 1_555
H10_10 C16_10 1_555 1_555
C19_10 C15_10 1_555 1_555
H13_10 C19_10 1_555 1_555
C16_10 C19_10 1_555 1_555
C24_11 C23_11 1_555 1_555
O7_10 C24_11 1_555 1_555
O10_4 C24_11 1_555 1_555
H15_11 C25_11 1_555 1_555
Co3_4 O7_10 1_555 1_555
C23_11 C25_11 1_555 1_555
O10_2 C2_11 1_555 1_555
C2_11 O11_5 1_555 1_555
C4_11 H2_11 1_555 1_555
C10_11 C2_11 1_555 1_555
C17_11 H11_11 1_555 1_555
C18_11 C10_11 1_555 1_555
H12_11 C18_11 1_555 1_555
C4_11 C10_11 1_555 1_555
C17_11 C18_11 1_555 1_555
Co3_3 N1_11 1_555 1_555
N1_11 C5_11 1_555 1_555
O1_11 Co3_3 1_555 1_555
O2_10 Co3_3 1_555 1_555
O9_3 C8_11 1_555 1_555
O10_3 C2_12 1_555 1_555
C1_11 H1_11 1_555 1_555
C2_12 O2_10 1_555 1_555
C3_11 C6_11 1_555 1_555
C4_12 H2_12 1_555 1_555
C5_11 C1_11 1_555 1_555
C6_11 H3_11 1_555 1_555
C7_12 C3_11 1_555 1_555
H4_12 C7_12 1_555 1_555
C8_11 O1_11 1_555 1_555
C9_12 C6_11 1_555 1_555
C10_12 C2_12 1_555 1_555
C11_11 C5_11 1_555 1_555
C12_11 C11_11 1_555 1_555
H6_11 C12_11 1_555 1_555
C13_11 C12_11 1_555 1_555
H7_11 C13_11 1_555 1_555
C14_11 N1_11 1_555 1_555
H8_11 C14_11 1_555 1_555
C15_11 C11_11 1_555 1_555
H9_11 C15_11 1_555 1_555
C16_11 C1_11 1_555 1_555
H10_11 C16_11 1_555 1_555
C17_12 H11_12 1_555 1_555
C18_12 C10_12 1_555 1_555
H12_12 C18_12 1_555 1_555
C19_11 C15_11 1_555 1_555
H13_11 C19_11 1_555 1_555
C20_11 C9_12 1_555 1_555
C21_11 C7_12 1_555 1_555
C22_11 C21_11 1_555 1_555
O5_11 C22_11 1_555 1_555
O12_3 C22_11 1_555 1_555
H14_11 C20_11 1_555 1_555
C23_12 C4_12 1_555 1_555
C24_12 C23_12 1_555 1_555
O7_11 C24_12 1_555 1_555
O13_8 C24_12 1_555 1_555
C25_12 C17_12 1_555 1_555
H15_12 C25_12 1_555 1_555
Co4_3 O5_11 1_555 1_555
N2_11 Co4_3 1_555 1_555
C26_11 H16_11 1_555 1_555
C27_11 N2_11 1_555 1_555
C28_11 C27_11 1_555 1_555
C29_11 C28_11 1_555 1_555
H17_11 C29_11 1_555 1_555
C30_11 C29_11 1_555 1_555
H18_11 C30_11 1_555 1_555
C31_11 N2_11 1_555 1_555
H19_11 C31_11 1_555 1_555
C32_11 C28_11 1_555 1_555
H20_11 C32_11 1_555 1_555
C33_11 C26_11 1_555 1_555
H21_11 C33_11 1_555 1_555
C34_11 C32_11 1_555 1_555
H22_11 C34_11 1_555 1_555
Co6_6 O7_11 1_555 1_555
O11_7 Co4_3 1_555 1_555
C3_11 C8_11 1_555 1_555
C4_12 C10_12 1_555 1_555
C13_11 C14_11 1_555 1_555
C16_11 C19_11 1_555 1_555
C17_12 C18_12 1_555 1_555
C20_11 C21_11 1_555 1_555
C23_12 C25_12 1_555 1_555
C26_11 C27_11 1_555 1_555
C30_11 C31_11 1_555 1_555
C33_11 C34_11 1_555 1_555
Co6 N1_12 1_555 1_555
N1_12 C5_12 1_555 1_555
O1_12 Co6 1_555 1_555
O2_11 Co6 1_555 1_555
O12_6 C8_12 1_555 1_555
O13_6 C2_13 1_555 1_555
C2_13 O2_11 1_555 1_555
C3_12 C6_12 1_555 1_555
C4_13 H2_13 1_555 1_555
C5_12 C1_12 1_555 1_555
C6_12 H3_12 1_555 1_555
C7_13 C3_12 1_555 1_555
H4_13 C7_13 1_555 1_555
C8_12 O1_12 1_555 1_555
C9_13 C6_12 1_555 1_555
H5_8 C9_13 1_555 1_555
C10_13 C2_13 1_555 1_555
C11_12 C5_12 1_555 1_555
C12_12 C11_12 1_555 1_555
H6_12 C12_12 1_555 1_555
C13_12 C12_12 1_555 1_555
H7_12 C13_12 1_555 1_555
C14_12 N1_12 1_555 1_555
H8_12 C14_12 1_555 1_555
C15_12 C11_12 1_555 1_555
H9_12 C15_12 1_555 1_555
C16_12 C1_12 1_555 1_555
C17_13 H11_13 1_555 1_555
C18_13 C10_13 1_555 1_555
H12_13 C18_13 1_555 1_555
C19_12 C15_12 1_555 1_555
H13_12 C19_12 1_555 1_555
C20_12 C9_13 1_555 1_555
C21_12 C7_13 1_555 1_555
C22_12 C21_12 1_555 1_555
O5_12 C22_12 1_555 1_555
O9_6 C22_12 1_555 1_555
H14_12 C20_12 1_555 1_555
C23_13 C4_13 1_555 1_555
C24_13 C23_13 1_555 1_555
O7_12 C24_13 1_555 1_555
O10_8 C24_13 1_555 1_555
C25_13 C17_13 1_555 1_555
H15_13 C25_13 1_555 1_555
Co6_4 O5_12 1_555 1_555
N2_12 Co6_4 1_555 1_555
C26_12 H16_12 1_555 1_555
C27_12 N2_12 1_555 1_555
C28_12 C27_12 1_555 1_555
C29_12 C28_12 1_555 1_555
H17_12 C29_12 1_555 1_555
C30_12 C29_12 1_555 1_555
H18_12 C30_12 1_555 1_555
C31_12 N2_12 1_555 1_555
H19_12 C31_12 1_555 1_555
C32_12 C28_12 1_555 1_555
H20_12 C32_12 1_555 1_555
C33_12 C26_12 1_555 1_555
H21_12 C33_12 1_555 1_555
C34_12 C32_12 1_555 1_555
H22_12 C34_12 1_555 1_555
Co3_7 O7_12 1_555 1_555
O11_8 Co6_4 1_555 1_555
C3_12 C8_12 1_555 1_555
C4_13 C10_13 1_555 1_555
C13_12 C14_12 1_555 1_555
C16_12 C19_12 1_555 1_555
C17_13 C18_13 1_555 1_555
C20_12 C21_12 1_555 1_555
C23_13 C25_13 1_555 1_555
C26_12 C27_12 1_555 1_555
C30_12 C31_12 1_555 1_555
C33_12 C34_12 1_555 1_555
O12_5 C8_13 1_555 1_555
O13_5 C2_14 1_555 1_555
C2_14 O2_12 1_555 1_555
C3_13 C6_13 1_555 1_555
C4_14 H2_14 1_555 1_555
C6_13 H3_13 1_555 1_555
C9_14 C6_13 1_555 1_555
H5_9 C9_14 1_555 1_555
C10_14 C2_14 1_555 1_555
C17_14 H11_14 1_555 1_555
C18_14 C10_14 1_555 1_555
H12_14 C18_14 1_555 1_555
C23_14 C4_14 1_555 1_555
C24_14 C23_14 1_555 1_555
O7_13 C24_14 1_555 1_555
O13_4 C24_14 1_555 1_555
C25_14 C17_14 1_555 1_555
H15_14 C25_14 1_555 1_555
Co3_5 O5_13 1_555 1_555
N2_13 Co3_5 1_555 1_555
C26_13 H16_13 1_555 1_555
C27_13 N2_13 1_555 1_555
C28_13 C27_13 1_555 1_555
C29_13 C28_13 1_555 1_555
H17_13 C29_13 1_555 1_555
C30_13 C29_13 1_555 1_555
H18_13 C30_13 1_555 1_555
C31_13 N2_13 1_555 1_555
H19_13 C31_13 1_555 1_555
C32_13 C28_13 1_555 1_555
H20_13 C32_13 1_555 1_555
C33_13 C26_13 1_555 1_555
H21_13 C33_13 1_555 1_555
C34_13 C32_13 1_555 1_555
H22_13 C34_13 1_555 1_555
Co4_4 O7_13 1_555 1_555
C3_13 C8_13 1_555 1_555
C4_14 C10_14 1_555 1_555
C17_14 C18_14 1_555 1_555
C23_14 C25_14 1_555 1_555
C26_13 C27_13 1_555 1_555
C30_13 C31_13 1_555 1_555
C33_13 C34_13 1_555 1_555
Co6_3 N1_13 1_555 1_555
N1_13 C5_13 1_555 1_555
O1_13 Co6_3 1_555 1_555
C5_13 C1_13 1_555 1_555
H4_14 C7_14 1_555 1_555
C11_13 C5_13 1_555 1_555
C12_13 C11_13 1_555 1_555
H6_13 C12_13 1_555 1_555
C13_13 C12_13 1_555 1_555
H7_13 C13_13 1_555 1_555
C14_13 N1_13 1_555 1_555
H8_13 C14_13 1_555 1_555
C15_13 C11_13 1_555 1_555
H9_13 C15_13 1_555 1_555
C16_13 C1_13 1_555 1_555
C19_13 C15_13 1_555 1_555
H13_13 C19_13 1_555 1_555
C21_13 C7_14 1_555 1_555
C22_13 C21_13 1_555 1_555
O9_5 C22_13 1_555 1_555
H14_13 C20_13 1_555 1_555
C13_13 C14_13 1_555 1_555
C16_13 C19_13 1_555 1_555
C20_13 C21_13 1_555 1_555
C24_15 C23_15 1_555 1_555
O11_6 C24_15 1_555 1_555
O10 C24_15 1_555 1_555
H15_15 C25_15 1_555 1_555
H17_14 C29_14 1_555 1_555
C23_15 C25_15 1_555 1_555
C32_14 C28_14 1_555 1_555
H21_14 C33_14 1_555 1_555
C34_14 C32_14 1_555 1_555
H22_14 C34_14 1_555 1_555
C33_14 C34_14 1_555 1_555
Co6_5 N1_14 1_555 1_555
N1_14 C5_14 1_555 1_555
O1_14 Co6_5 1_555 1_555
O2_13 Co6_5 1_555 1_555
O3_9 C8_14 1_555 1_555
O4_9 C2_15 1_555 1_555
C1_14 H1_14 1_555 1_555
C2_15 O2_13 1_555 1_555
C3_14 C6_14 1_555 1_555
C4_15 H2_15 1_555 1_555
C5_14 C1_14 1_555 1_555
C6_14 H3_14 1_555 1_555
C7_15 C3_14 1_555 1_555
H4_15 C7_15 1_555 1_555
C8_14 O1_14 1_555 1_555
C9_15 C6_14 1_555 1_555
C10_15 C2_15 1_555 1_555
C11_14 C5_14 1_555 1_555
C12_14 C11_14 1_555 1_555
H6_14 C12_14 1_555 1_555
C13_14 C12_14 1_555 1_555
H7_14 C13_14 1_555 1_555
C14_14 N1_14 1_555 1_555
H8_14 C14_14 1_555 1_555
C15_14 C11_14 1_555 1_555
H9_14 C15_14 1_555 1_555
C16_14 C1_14 1_555 1_555
H10_14 C16_14 1_555 1_555
C17_15 H11_15 1_555 1_555
C18_15 C10_15 1_555 1_555
H12_15 C18_15 1_555 1_555
C19_14 C15_14 1_555 1_555
H13_14 C19_14 1_555 1_555
C20_14 C9_15 1_555 1_555
C21_14 C7_15 1_555 1_555
H18_14 C30_14 1_555 1_555
H19_14 C31_14 1_555 1_555
O9_9 Co6_5 1_555 1_555
O3_9 Co5_5 1_555 1_555
O4_9 Co5_5 1_555 1_555
C3_14 C8_14 1_555 1_555
C4_15 C10_15 1_555 1_555
C13_14 C14_14 1_555 1_555
C16_14 C19_14 1_555 1_555
C17_15 C18_15 1_555 1_555
C20_14 C21_14 1_555 1_555
C30_14 C31_14 1_555 1_555
O5_14 C22_14 1_555 1_555
O6_9 C22_14 1_555 1_555
Co6_7 O5_14 1_555 1_555
N2_14 Co6_7 1_555 1_555
C26_14 H16_14 1_555 1_555
C27_14 N2_14 1_555 1_555
Co5_7 O6_9 1_555 1_555
O11_9 Co6_7 1_555 1_555
O12_9 Co6_7 1_555 1_555
C26_14 C27_14 1_555 1_555
Co6_6 N1_15 1_555 1_555
N1_15 C5_15 1_555 1_555
O1_15 Co6_6 1_555 1_555
O12_8 C8_15 1_555 1_555
C1_15 H1_15 1_555 1_555
C3_15 C6_15 1_555 1_555
C5_15 C1_15 1_555 1_555
C6_15 H3_15 1_555 1_555
C7_16 C3_15 1_555 1_555
H4_16 C7_16 1_555 1_555
C8_15 O1_15 1_555 1_555
C9_16 C6_15 1_555 1_555
C11_15 C5_15 1_555 1_555
C12_15 C11_15 1_555 1_555
H6_15 C12_15 1_555 1_555
C13_15 C12_15 1_555 1_555
H7_15 C13_15 1_555 1_555
C14_15 N1_15 1_555 1_555
H8_15 C14_15 1_555 1_555
C15_15 C11_15 1_555 1_555
H9_15 C15_15 1_555 1_555
C16_15 C1_15 1_555 1_555
H10_15 C16_15 1_555 1_555
C19_15 C15_15 1_555 1_555
H13_15 C19_15 1_555 1_555
C20_15 C9_16 1_555 1_555
C21_15 C7_16 1_555 1_555
H17_15 C29_15 1_555 1_555
C30_15 C29_15 1_555 1_555
H18_15 C30_15 1_555 1_555
H19_15 C31_15 1_555 1_555
C3_15 C8_15 1_555 1_555
C13_15 C14_15 1_555 1_555
C16_15 C19_15 1_555 1_555
C20_15 C21_15 1_555 1_555
C30_15 C31_15 1_555 1_555
O5_15 C22_15 1_555 1_555
O9_8 C22_15 1_555 1_555
Co3_7 O5_15 1_555 1_555
N2_15 Co3_7 1_555 1_555
C26_15 H16_15 1_555 1_555
C27_15 N2_15 1_555 1_555
C28_15 C27_15 1_555 1_555
C32_15 C28_15 1_555 1_555
C33_15 C26_15 1_555 1_555
H21_15 C33_15 1_555 1_555
C34_15 C32_15 1_555 1_555
H22_15 C34_15 1_555 1_555
C26_15 C27_15 1_555 1_555
C33_15 C34_15 1_555 1_555
O4_10 C2_16 1_555 1_555
C2_16 O11_9 1_555 1_555
C4_16 H2_16 1_555 1_555
C10_16 C2_16 1_555 1_555
C17_16 H11_16 1_555 1_555
C18_16 C10_16 1_555 1_555
H12_16 C18_16 1_555 1_555
C23_16 C4_16 1_555 1_555
C24_16 C23_16 1_555 1_555
O7_14 C24_16 1_555 1_555
O13_7 C24_16 1_555 1_555
C25_16 C17_16 1_555 1_555
H15_16 C25_16 1_555 1_555
O4_10 Co5_7 1_555 1_555
C4_16 C10_16 1_555 1_555
C17_16 C18_16 1_555 1_555
C23_16 C25_16 1_555 1_555
C3_16 C6_16 1_555 1_555
C7_17 C3_16 1_555 1_555
H4_17 C7_17 1_555 1_555
C9_17 C6_16 1_555 1_555
H5_10 C9_17 1_555 1_555
H7_16 C13_16 1_555 1_555
H8_16 C14_16 1_555 1_555
C20_16 C9_17 1_555 1_555
C21_16 C7_17 1_555 1_555
C22_16 C21_16 1_555 1_555
O5_16 C22_16 1_555 1_555
O9_4 C22_16 1_555 1_555
H14_16 C20_16 1_555 1_555
Co3_4 O5_16 1_555 1_555
N2_16 Co3_4 1_555 1_555
C26_16 H16_16 1_555 1_555
C27_16 N2_16 1_555 1_555
C28_16 C27_16 1_555 1_555
C29_16 C28_16 1_555 1_555
H17_16 C29_16 1_555 1_555
C30_16 C29_16 1_555 1_555
H18_16 C30_16 1_555 1_555
C31_16 N2_16 1_555 1_555
H19_16 C31_16 1_555 1_555
C32_16 C28_16 1_555 1_555
H20_16 C32_16 1_555 1_555
C33_16 C26_16 1_555 1_555
H21_16 C33_16 1_555 1_555
C34_16 C32_16 1_555 1_555
H22_16 C34_16 1_555 1_555
C13_16 C14_16 1_555 1_555
C20_16 C21_16 1_555 1_555
C26_16 C27_16 1_555 1_555
C30_16 C31_16 1_555 1_555
C33_16 C34_16 1_555 1_555
Co4_4 N1_16 1_555 1_555
N1_16 C5_16 1_555 1_555
O1_16 Co4_4 1_555 1_555
O12_4 C8_16 1_555 1_555
C1_16 H1_16 1_555 1_555
C5_16 C1_16 1_555 1_555
C8_16 O1_16 1_555 1_555
O10_10 Co4_4 1_555 1_555
H6_16 C12_16 1_555 1_555
C15_16 C11_16 1_555 1_555
H10_16 C16_16 1_555 1_555
C19_16 C15_16 1_555 1_555
H13_16 C19_16 1_555 1_555
C16_16 C19_16 1_555 1_555
O13_3 C2_17 1_555 1_555
C2_17 O11_7 1_555 1_555
C4_17 H2_17 1_555 1_555
C10_17 C2_17 1_555 1_555
C17_17 H11_17 1_555 1_555
C18_17 C10_17 1_555 1_555
H12_17 C18_17 1_555 1_555
C23_17 C4_17 1_555 1_555
C24_17 C23_17 1_555 1_555
O11_8 C24_17 1_555 1_555
O10_6 C24_17 1_555 1_555
C25_17 C17_17 1_555 1_555
H15_17 C25_17 1_555 1_555
C4_17 C10_17 1_555 1_555
C17_17 C18_17 1_555 1_555
C23_17 C25_17 1_555 1_555
H4_18 C7_18 1_555 1_555
C3_13 C7_18 1_555 1_555
C9_18 C20_13 1_555 1_555
H5_11 C9_18 1_555 1_555
O9_7 C8_17 1_555 1_555
C3_17 C6_17 1_555 1_555
C6_17 H3_17 1_555 1_555
C9_19 C6_17 1_555 1_555
H5_12 C9_19 1_555 1_555
Co6_2 O5_17 1_555 1_555
N2_17 Co6_2 1_555 1_555
C27_17 N2_17 1_555 1_555
C28_17 C27_17 1_555 1_555
C29_17 C28_17 1_555 1_555
H17_17 C29_17 1_555 1_555
C30_17 C29_17 1_555 1_555
H18_17 C30_17 1_555 1_555
C31_17 N2_17 1_555 1_555
H19_17 C31_17 1_555 1_555
C32_17 C28_17 1_555 1_555
H20_17 C32_17 1_555 1_555
C33_17 C26_17 1_555 1_555
C34_17 C32_17 1_555 1_555
H22_17 C34_17 1_555 1_555
C3_17 C8_17 1_555 1_555
C26_17 C27_17 1_555 1_555
C30_17 C31_17 1_555 1_555
C33_17 C34_17 1_555 1_555
Co3_6 N1_17 1_555 1_555
N1_17 C5_17 1_555 1_555
O1_17 Co3_6 1_555 1_555
C1_17 H1_17 1_555 1_555
C5_17 C1_17 1_555 1_555
H4_19 C7_19 1_555 1_555
C11_17 C5_17 1_555 1_555
C12_17 C11_17 1_555 1_555
H6_17 C12_17 1_555 1_555
C13_17 C12_17 1_555 1_555
H7_17 C13_17 1_555 1_555
C14_17 N1_17 1_555 1_555
H8_17 C14_17 1_555 1_555
C15_17 C11_17 1_555 1_555
H9_17 C15_17 1_555 1_555
C16_17 C1_17 1_555 1_555
H10_17 C16_17 1_555 1_555
C19_17 C15_17 1_555 1_555
H13_17 C19_17 1_555 1_555
C21_17 C7_19 1_555 1_555
C22_17 C21_17 1_555 1_555
O12_7 C22_17 1_555 1_555
H14_17 C20_17 1_555 1_555
C13_17 C14_17 1_555 1_555
C16_17 C19_17 1_555 1_555
C20_17 C21_17 1_555 1_555
C4_18 H2_18 1_555 1_555
C17_18 H11_18 1_555 1_555
C4_18 C23_11 1_555 1_555
C17_18 C25_11 1_555 1_555
C4_19 H2_19 1_555 1_555
C17_19 H11_19 1_555 1_555
C4_19 C23_15 1_555 1_555
C17_19 C25_15 1_555 1_555
H4_20 C7_20 1_555 1_555
C3_17 C7_20 1_555 1_555
C9_20 C20_17 1_555 1_555
H5_13 C9_20 1_555 1_555
Co5_5 N1_18 1_555 1_555
N1_18 C5_18 1_555 1_555
O1_18 Co5_5 1_555 1_555
O9_9 C8_18 1_555 1_555
C1_18 H1_18 1_555 1_555
C3_18 C6_18 1_555 1_555
C5_18 C1_18 1_555 1_555
C6_18 H3_18 1_555 1_555
C7_21 C3_18 1_555 1_555
H4_21 C7_21 1_555 1_555
C8_18 O1_18 1_555 1_555
C9_21 C6_18 1_555 1_555
H7_18 C13_18 1_555 1_555
C14_18 N1_18 1_555 1_555
H8_18 C14_18 1_555 1_555
C20_18 C9_21 1_555 1_555
C21_18 C7_21 1_555 1_555
C22_18 C21_18 1_555 1_555
O5_18 C22_18 1_555 1_555
O12_9 C22_18 1_555 1_555
H14_18 C20_18 1_555 1_555
Co5_7 O5_18 1_555 1_555
N2_18 Co5_7 1_555 1_555
C26_18 H16_18 1_555 1_555
C27_18 N2_18 1_555 1_555
C28_18 C27_18 1_555 1_555
C29_18 C28_18 1_555 1_555
H17_18 C29_18 1_555 1_555
C30_18 C29_18 1_555 1_555
H18_18 C30_18 1_555 1_555
C31_18 N2_18 1_555 1_555
H19_18 C31_18 1_555 1_555
C32_18 C28_18 1_555 1_555
H20_18 C32_18 1_555 1_555
C33_18 C26_18 1_555 1_555
H21_18 C33_18 1_555 1_555
C34_18 C32_18 1_555 1_555
H22_18 C34_18 1_555 1_555
C3_18 C8_18 1_555 1_555
C13_18 C14_18 1_555 1_555
C20_18 C21_18 1_555 1_555
C26_18 C27_18 1_555 1_555
C30_18 C31_18 1_555 1_555
C33_18 C34_18 1_555 1_555
C12_18 C11_18 1_555 1_555
H6_18 C12_18 1_555 1_555
C15_18 C11_18 1_555 1_555
H9_18 C15_18 1_555 1_555
H10_18 C16_18 1_555 1_555
C19_18 C15_18 1_555 1_555
H13_18 C19_18 1_555 1_555
C16_18 C19_18 1_555 1_555
C4_20 H2_20 1_555 1_555
C17_20 H11_20 1_555 1_555
C4_20 C23_7 1_555 1_555
C17_20 C25_7 1_555 1_555
O10_10 C2_18 1_555 1_555
C2_18 O11_4 1_555 1_555
C4_21 H2_21 1_555 1_555
C10_18 C2_18 1_555 1_555
C17_21 H11_21 1_555 1_555
C18_18 C10_18 1_555 1_555
H12_18 C18_18 1_555 1_555
C23_18 C4_21 1_555 1_555
C24_18 C23_18 1_555 1_555
O11 C24_18 1_555 1_555
O10_9 C24_18 1_555 1_555
C25_18 C17_21 1_555 1_555
H15_18 C25_18 1_555 1_555
C4_21 C10_18 1_555 1_555
C17_21 C18_18 1_555 1_555
C23_18 C25_18 1_555 1_555
H4_22 C7_22 1_555 1_555
C3_5 C7_22 1_555 1_555
C9_22 C20_5 1_555 1_555
H5_14 C9_22 1_555 1_555
C4_22 H2_22 1_555 1_555
C17_22 H11_22 1_555 1_555
C4_22 C23_8 1_555 1_555
C17_22 C25_8 1_555 1_555

#END
