
###############################################################################
#
# This file contains modified crystal structure data generated from the
# MOF subset of the Cambridge Structural Database (CSD) v543 
# hosted by the Cambridge Crystallographic Data Centre (CCDC).
#
# This work is licensed under the Creative Commons
# Attribution-NonCommercial-ShareAlike 4.0 International License.
# To view a copy of this license, visit
# http://creativecommons.org/licenses/by-nc-sa/4.0/
# or send a letter to
# Creative Commons, PO Box 1866, Mountain View, CA 94042, USA.
#
# CIF created using the CSD Python API on 29 September 2022
# The structure has been converted into the P1 space group
# The structure has a 3D framework
# The original CSD entry BASJUB is in the tetragonal crystal system
# The framework has been calculated to contain at least 10.0% void space
# The void calculation uses a probe of radius 1.32A, grid spacing 0.4
#
###############################################################################

data_BASJUB
_chemical_formula_moiety         '(C116 H96 Cl8 Co4 N16 O32)n'
_symmetry_cell_setting           triclinic
_symmetry_space_group_name_H-M   'P 1'
_symmetry_Int_Tables_number      1
_space_group_name_Hall           'P 1'
loop_
_symmetry_equiv_pos_site_id
_symmetry_equiv_pos_as_xyz
1 x,y,z
_cell_length_a                   13.0678(9)
_cell_length_b                   13.0678(9)
_cell_length_c                   25.914(1)
_cell_angle_alpha                90
_cell_angle_beta                 90
_cell_angle_gamma                90
_cell_volume                     4425.27
loop_
_atom_site_label
_atom_site_type_symbol
_atom_site_fract_x
_atom_site_fract_y
_atom_site_fract_z
Co1 Co 0.2500 0.2500 0.6187(1)
Cl1 Cl 0.3278(3) 0.0824(3) 0.6190(2)
N1 N 0.143(1) 0.200(1) 0.5590(4)
C1 C 0.171(1) 0.141(2) 0.5198(6)
C2 C 0.107(1) 0.115(1) 0.4779(6)
C3 C 0.006(1) 0.153(1) 0.4801(5)
C5 C 0.048(1) 0.232(1) 0.5595(6)
H1 H 0.2389 0.1147 0.5200
H2 H 0.1303 0.0750 0.4499
H4 H 0.0272 0.2735 0.5878
Cl2 Cl 0.1722(3) 0.4176(3) 0.6190(2)
N5 N 0.357(1) 0.300(1) 0.5590(4)
N6 N 0.133(1) 0.202(1) 0.6744(4)
N7 N 0.367(1) 0.298(1) 0.6744(4)
C4 C 0.975(1) 0.210(1) 0.5211(6)
C6 C 0.937(1) 0.131(1) 0.4349(5)
O1 O 0.963(1) 0.080(1) 0.3989(5)
O2 O 0.8459(8) 0.1745(8) 0.4421(4)
C7 C 0.768(1) 0.154(1) 0.4028(6)
C8 C 0.7500 0.2500 0.3694(8)
C9 C 0.656(1) 0.232(1) 0.3362(5)
O3 O 0.6829(9) 0.1491(9) 0.3023(4)
C10 C 0.610(1) 0.115(2) 0.2691(7)
C11 C 0.641(1) 0.031(1) 0.2365(5)
O4 O 0.526(1) 0.155(1) 0.2677(6)
H3 H 0.9065 0.2343 0.5238
H5 H 0.7056 0.1358 0.4193
H6 H 0.7900 0.0996 0.3814
H7 H 0.6407 0.2919 0.3168
H8 H 0.5993 0.2142 0.3570
H9 H 0.7860 0.0180 0.2644
H12 H 0.5095 0.0171 0.1956
C16 C 0.732(1) 0.346(1) 0.4028(6)
O5 O 0.6541(8) 0.3255(8) 0.4421(4)
C17 C 0.563(1) 0.369(1) 0.4349(5)
C18 C 0.494(1) 0.347(1) 0.4801(5)
C19 C 0.393(1) 0.385(1) 0.4779(6)
C20 C 0.329(1) 0.359(2) 0.5198(6)
C21 C 0.452(1) 0.268(1) 0.5595(6)
C22 C 0.525(1) 0.290(1) 0.5211(6)
H13 H 0.5935 0.2657 0.5238
H14 H 0.4728 0.2265 0.5878
H15 H 0.2611 0.3853 0.5200
H16 H 0.3697 0.4250 0.4499
O6 O 0.537(1) 0.420(1) 0.3989(5)
H17 H 0.7944 0.3642 0.4193
H18 H 0.7100 0.4004 0.3814
C23 C 0.844(1) 0.268(1) 0.3362(5)
O7 O 0.8171(9) 0.3509(9) 0.3023(4)
C24 C 0.890(1) 0.385(2) 0.2691(7)
C25 C 0.859(1) 0.469(1) 0.2365(5)
C26 C 0.762(1) 0.510(1) 0.2405(5)
C27 C 0.735(1) 0.591(1) 0.2090(5)
N4 N 0.798(1) 0.633(1) 0.1744(4)
C28 C 0.892(1) 0.591(1) 0.1704(5)
C29 C 0.924(1) 0.510(1) 0.2000(6)
H19 H 0.9905 0.4829 0.1956
H20 H 0.9389 0.6181 0.1459
H21 H 0.6677 0.6192 0.2122
H22 H 0.7140 0.4820 0.2644
O8 O 0.974(1) 0.345(1) 0.2677(6)
H23 H 0.8593 0.2081 0.3168
H24 H 0.9007 0.2858 0.3570
Co4 Co 0.7500 0.7500 0.1187(1)
C12 C 0.738(1) 0.990(1) 0.2405(5)
C13 C 0.765(1) 0.909(1) 0.2090(5)
N2 N 0.702(1) 0.867(1) 0.1744(4)
C14 C 0.608(1) 0.909(1) 0.1704(5)
C15 C 0.576(1) 0.990(1) 0.2000(6)
H10 H 0.8323 0.8808 0.2122
H11 H 0.5611 0.8819 0.1459
C12_2 C 0.010(1) 0.238(1) 0.7405(5)
C13_2 C 0.091(1) 0.265(1) 0.7090(5)
C14_2 C 0.091(1) 0.108(1) 0.6704(5)
C15_2 C 0.010(1) 0.076(1) 0.7000(6)
H10_2 H 0.1192 0.3323 0.7122
H11_2 H 0.1181 0.0611 0.6459
Cl1_2 Cl 0.9176(3) 0.8278(3) 0.1190(2)
N1_2 N 0.800(1) 0.643(1) 0.0590(4)
C1_2 C 0.859(2) 0.671(1) 0.0198(6)
C4_2 C 0.790(1) 0.475(1) 0.0211(6)
C5_2 C 0.768(1) 0.548(1) 0.0595(6)
H1_2 H 0.8853 0.7389 0.0200
H3_2 H 0.7657 0.4065 0.0238
H4_2 H 0.7265 0.5272 0.0878
C22_2 C 0.710(1) 0.025(1) 0.0211(6)
H13_2 H 0.7343 0.0935 0.0238
Cl2_2 Cl 0.5824(3) 0.6722(3) 0.1190(2)
N5_2 N 0.700(1) 0.857(1) 0.0590(4)
C2_2 C 0.885(1) 0.607(1) 0.9779(6)
C3_2 C 0.847(1) 0.506(1) 0.9801(5)
C6_2 C 0.869(1) 0.437(1) 0.9349(5)
O1_2 O 0.920(1) 0.463(1) 0.8989(5)
O2_2 O 0.8255(8) 0.3459(8) 0.9421(4)
C7_2 C 0.846(1) 0.268(1) 0.9028(6)
C8_2 C 0.7500 0.2500 0.8694(8)
C9_2 C 0.768(1) 0.156(1) 0.8362(5)
O3_2 O 0.8509(9) 0.1829(9) 0.8023(4)
C10_2 C 0.885(2) 0.110(1) 0.7691(7)
C11_2 C 0.969(1) 0.141(1) 0.7365(5)
O4_2 O 0.845(1) 0.026(1) 0.7677(6)
H2_2 H 0.9250 0.6303 0.9499
H5_2 H 0.8642 0.2056 0.9193
H6_2 H 0.9004 0.2900 0.8814
H7_2 H 0.7081 0.1407 0.8168
H8_2 H 0.7858 0.0993 0.8570
H9_2 H 0.9820 0.2860 0.7644
H12_2 H 0.9829 0.0095 0.6956
C16_2 C 0.654(1) 0.232(1) 0.9028(6)
O5_2 O 0.6745(8) 0.1541(8) 0.9421(4)
C17_2 C 0.631(1) 0.063(1) 0.9349(5)
O6_2 O 0.580(1) 0.037(1) 0.8989(5)
H17_2 H 0.6358 0.2944 0.9193
H18_2 H 0.5996 0.2100 0.8814
C23_2 C 0.732(1) 0.344(1) 0.8362(5)
O7_2 O 0.6491(9) 0.3171(9) 0.8023(4)
C24_2 C 0.615(2) 0.390(1) 0.7691(7)
C25_2 C 0.531(1) 0.359(1) 0.7365(5)
C26_2 C 0.490(1) 0.262(1) 0.7405(5)
C27_2 C 0.409(1) 0.235(1) 0.7090(5)
C28_2 C 0.409(1) 0.392(1) 0.6704(5)
C29_2 C 0.490(1) 0.424(1) 0.7000(6)
H19_2 H 0.5171 0.4905 0.6956
H20_2 H 0.3819 0.4389 0.6459
H21_2 H 0.3808 0.1677 0.7122
H22_2 H 0.5180 0.2140 0.7644
O8_2 O 0.655(1) 0.474(1) 0.7677(6)
H23_2 H 0.7919 0.3593 0.8168
H24_2 H 0.7142 0.4007 0.8570
C20_2 C 0.641(2) 0.829(1) 0.0198(6)
C21_2 C 0.732(1) 0.952(1) 0.0595(6)
H14_2 H 0.7735 0.9728 0.0878
H15_2 H 0.6147 0.7611 0.0200
C18_2 C 0.653(1) 0.994(1) 0.9801(5)
C19_2 C 0.615(1) 0.893(1) 0.9779(6)
H16_2 H 0.5750 0.8697 0.9499
C26_3 C 0.262(1) 0.010(1) 0.7595(5)
C27_3 C 0.235(1) 0.091(1) 0.7910(5)
N4_2 N 0.298(1) 0.133(1) 0.8256(4)
C28_3 C 0.392(1) 0.091(1) 0.8296(5)
C29_3 C 0.424(1) 0.010(1) 0.8000(6)
H20_3 H 0.4389 0.1181 0.8541
H21_3 H 0.1677 0.1192 0.7878
Co4_2 Co 0.2500 0.2500 0.8813(1)
Co1_2 Co 0.7500 0.7500 0.3813(1)
Cl1_3 Cl 0.8278(3) 0.5824(3) 0.3810(2)
N1_3 N 0.643(1) 0.700(1) 0.4410(4)
C1_3 C 0.671(1) 0.641(2) 0.4802(6)
C2_3 C 0.607(1) 0.615(1) 0.5221(6)
C3_3 C 0.506(1) 0.653(1) 0.5199(5)
C4_3 C 0.475(1) 0.710(1) 0.4789(6)
C5_3 C 0.548(1) 0.732(1) 0.4405(6)
C6_3 C 0.437(1) 0.631(1) 0.5651(5)
O1_3 O 0.463(1) 0.580(1) 0.6011(5)
O2_3 O 0.3459(8) 0.6745(8) 0.5579(4)
C7_3 C 0.268(1) 0.654(1) 0.5972(6)
C8_3 C 0.2500 0.7500 0.6306(8)
C9_3 C 0.156(1) 0.732(1) 0.6638(5)
O3_3 O 0.1829(9) 0.6491(9) 0.6977(4)
C10_3 C 0.110(1) 0.615(2) 0.7309(7)
C11_3 C 0.141(1) 0.531(1) 0.7635(5)
C12_3 C 0.238(1) 0.490(1) 0.7595(5)
C13_3 C 0.265(1) 0.409(1) 0.7910(5)
N2_2 N 0.202(1) 0.367(1) 0.8256(4)
C14_3 C 0.108(1) 0.409(1) 0.8296(5)
C15_3 C 0.076(1) 0.490(1) 0.8000(6)
O4_3 O 0.026(1) 0.655(1) 0.7323(6)
H1_3 H 0.7389 0.6147 0.4800
H2_3 H 0.6303 0.5750 0.5501
H3_3 H 0.4065 0.7343 0.4762
H4_3 H 0.5272 0.7735 0.4122
H5_3 H 0.2056 0.6358 0.5807
H6_3 H 0.2900 0.5996 0.6186
H7_3 H 0.1407 0.7919 0.6832
H8_3 H 0.0993 0.7142 0.6430
H9_3 H 0.2860 0.5180 0.7356
H10_3 H 0.3323 0.3808 0.7878
H11_3 H 0.0611 0.3819 0.8541
H12_3 H 0.0095 0.5171 0.8044
C16_3 C 0.232(1) 0.846(1) 0.5972(6)
O5_3 O 0.1541(8) 0.8255(8) 0.5579(4)
C17_3 C 0.063(1) 0.869(1) 0.5651(5)
C22_3 C 0.025(1) 0.790(1) 0.4789(6)
H13_3 H 0.0935 0.7657 0.4762
O6_3 O 0.037(1) 0.920(1) 0.6011(5)
H17_3 H 0.2944 0.8642 0.5807
H18_3 H 0.2100 0.9004 0.6186
C23_3 C 0.344(1) 0.768(1) 0.6638(5)
O7_3 O 0.3171(9) 0.8509(9) 0.6977(4)
C24_3 C 0.390(1) 0.885(2) 0.7309(7)
C25_3 C 0.359(1) 0.969(1) 0.7635(5)
H19_3 H 0.4905 0.9829 0.8044
H22_3 H 0.2140 0.9820 0.7356
O8_3 O 0.474(1) 0.845(1) 0.7323(6)
H23_3 H 0.3593 0.7081 0.6832
H24_3 H 0.4007 0.7858 0.6430
Cl2_3 Cl 0.6722(3) 0.9176(3) 0.3810(2)
N5_3 N 0.857(1) 0.800(1) 0.4410(4)
N6_2 N 0.633(1) 0.702(1) 0.3256(4)
N7_2 N 0.867(1) 0.798(1) 0.3256(4)
C18_3 C 0.994(1) 0.847(1) 0.5199(5)
C19_3 C 0.893(1) 0.885(1) 0.5221(6)
C20_3 C 0.829(1) 0.859(2) 0.4802(6)
C21_3 C 0.952(1) 0.768(1) 0.4405(6)
H14_3 H 0.9728 0.7265 0.4122
H15_3 H 0.7611 0.8853 0.4800
H16_3 H 0.8697 0.9250 0.5501
C20_4 C 0.359(2) 0.171(1) 0.9802(6)
N3 N 0.300(1) 0.143(1) 0.9410(4)
C21_4 C 0.268(1) 0.048(1) 0.9405(6)
H14_4 H 0.2265 0.0272 0.9122
H15_4 H 0.3853 0.2389 0.9800
C2_4 C 0.115(1) 0.393(1) 0.0221(6)
C3_4 C 0.153(1) 0.494(1) 0.0199(5)
C6_4 C 0.131(1) 0.563(1) 0.0651(5)
O1_4 O 0.080(1) 0.537(1) 0.1011(5)
O2_4 O 0.1745(8) 0.6541(8) 0.0579(4)
C7_4 C 0.154(1) 0.732(1) 0.0972(6)
C8_4 C 0.2500 0.7500 0.1306(8)
C9_4 C 0.232(1) 0.844(1) 0.1638(5)
O3_4 O 0.1491(9) 0.8171(9) 0.1977(4)
C10_4 C 0.115(2) 0.890(1) 0.2309(7)
C11_4 C 0.031(1) 0.859(1) 0.2635(5)
O4_4 O 0.155(1) 0.974(1) 0.2323(6)
H2_4 H 0.0750 0.3697 0.0501
H5_4 H 0.1358 0.7944 0.0807
H6_4 H 0.0996 0.7100 0.1186
H7_4 H 0.2919 0.8593 0.1832
H8_4 H 0.2142 0.9007 0.1430
H9_4 H 0.0180 0.7140 0.2356
H12_4 H 0.0171 0.9905 0.3044
C16_4 C 0.346(1) 0.768(1) 0.0972(6)
O5_4 O 0.3255(8) 0.8459(8) 0.0579(4)
C17_4 C 0.369(1) 0.937(1) 0.0651(5)
O6_4 O 0.420(1) 0.963(1) 0.1011(5)
H17_4 H 0.3642 0.7056 0.0807
H18_4 H 0.4004 0.7900 0.1186
C23_4 C 0.268(1) 0.656(1) 0.1638(5)
O7_4 O 0.3509(9) 0.6829(9) 0.1977(4)
C24_4 C 0.385(2) 0.610(1) 0.2309(7)
C25_4 C 0.469(1) 0.641(1) 0.2635(5)
C26_4 C 0.510(1) 0.738(1) 0.2595(5)
C27_4 C 0.591(1) 0.765(1) 0.2910(5)
C28_4 C 0.591(1) 0.608(1) 0.3296(5)
C29_4 C 0.510(1) 0.576(1) 0.3000(6)
H19_4 H 0.4829 0.5095 0.3044
H20_4 H 0.6181 0.5611 0.3541
H21_4 H 0.6192 0.8323 0.2878
H22_4 H 0.4820 0.7860 0.2356
O8_4 O 0.345(1) 0.526(1) 0.2323(6)
H23_4 H 0.2081 0.6407 0.1832
H24_4 H 0.2858 0.5993 0.1430
Cl1_4 Cl 0.0824(3) 0.1722(3) 0.8810(2)
N1_4 N 0.200(1) 0.357(1) 0.9410(4)
C1_4 C 0.141(2) 0.329(1) 0.9802(6)
C4_4 C 0.210(1) 0.525(1) 0.9789(6)
C5_4 C 0.232(1) 0.452(1) 0.9405(6)
H1_4 H 0.1147 0.2611 0.9800
H3_4 H 0.2343 0.5935 0.9762
H4_4 H 0.2735 0.4728 0.9122
C22_4 C 0.290(1) 0.975(1) 0.9789(6)
H13_4 H 0.2657 0.9065 0.9762
Cl2_4 Cl 0.4176(3) 0.3278(3) 0.8810(2)
C12_4 C 0.990(1) 0.762(1) 0.2595(5)
C13_4 C 0.909(1) 0.735(1) 0.2910(5)
C14_4 C 0.909(1) 0.892(1) 0.3296(5)
C15_4 C 0.990(1) 0.924(1) 0.3000(6)
H10_4 H 0.8808 0.6677 0.2878
H11_4 H 0.8819 0.9389 0.3541
C18_4 C 0.347(1) 0.006(1) 0.0199(5)
C19_4 C 0.385(1) 0.107(1) 0.0221(6)
H16_4 H 0.4250 0.1303 0.0501
loop_
_geom_bond_atom_site_label_1
_geom_bond_atom_site_label_2
_geom_bond_site_symmetry_1
_geom_bond_site_symmetry_2
Co1 Cl1 1_555 1_555
N1 Co1 1_555 1_555
C1 N1 1_555 1_555
C2 C1 1_555 1_555
C3 C2 1_555 1_555
C5 N1 1_555 1_555
H1 C1 1_555 1_555
H2 C2 1_555 1_555
H4 C5 1_555 1_555
Cl2 Co1 1_555 1_555
N5 Co1 1_555 1_555
N6 Co1 1_555 1_555
N7 Co1 1_555 1_555
O1 C6 1_555 1_555
O2 C6 1_555 1_555
C7 O2 1_555 1_555
C8 C7 1_555 1_555
C9 C8 1_555 1_555
O3 C9 1_555 1_555
C10 O3 1_555 1_555
C11 C10 1_555 1_555
O4 C10 1_555 1_555
H3 C4 1_555 1_555
H5 C7 1_555 1_555
H6 C7 1_555 1_555
H7 C9 1_555 1_555
H8 C9 1_555 1_555
C16 C8 1_555 1_555
O5 C16 1_555 1_555
C17 O5 1_555 1_555
C18 C17 1_555 1_555
C19 C18 1_555 1_555
C20 C19 1_555 1_555
N5 C20 1_555 1_555
C21 N5 1_555 1_555
C22 C18 1_555 1_555
H13 C22 1_555 1_555
H14 C21 1_555 1_555
H15 C20 1_555 1_555
H16 C19 1_555 1_555
O6 C17 1_555 1_555
H17 C16 1_555 1_555
H18 C16 1_555 1_555
C23 C8 1_555 1_555
O7 C23 1_555 1_555
C24 O7 1_555 1_555
C25 C24 1_555 1_555
C26 C25 1_555 1_555
C27 C26 1_555 1_555
N4 C27 1_555 1_555
C28 N4 1_555 1_555
C29 C25 1_555 1_555
H19 C29 1_555 1_555
H20 C28 1_555 1_555
H21 C27 1_555 1_555
H22 C26 1_555 1_555
O8 C24 1_555 1_555
H23 C23 1_555 1_555
H24 C23 1_555 1_555
Co4 N4 1_555 1_555
C21 C22 1_555 1_555
C28 C29 1_555 1_555
C13 C12 1_555 1_555
N2 C13 1_555 1_555
C14 N2 1_555 1_555
H10 C13 1_555 1_555
H11 C14 1_555 1_555
Co4 N2 1_555 1_555
C14 C15 1_555 1_555
C13_2 C12_2 1_555 1_555
N6 C13_2 1_555 1_555
C14_2 N6 1_555 1_555
H10_2 C13_2 1_555 1_555
H11_2 C14_2 1_555 1_555
C14_2 C15_2 1_555 1_555
Co4 Cl1_2 1_555 1_555
N1_2 Co4 1_555 1_555
C1_2 N1_2 1_555 1_555
C5_2 N1_2 1_555 1_555
H1_2 C1_2 1_555 1_555
H3_2 C4_2 1_555 1_555
H4_2 C5_2 1_555 1_555
H13_2 C22_2 1_555 1_555
Cl2_2 Co4 1_555 1_555
N5_2 Co4 1_555 1_555
C4_2 C5_2 1_555 1_555
C3_2 C2_2 1_555 1_555
C6_2 C3_2 1_555 1_555
O1_2 C6_2 1_555 1_555
O2_2 C6_2 1_555 1_555
C7_2 O2_2 1_555 1_555
C8_2 C7_2 1_555 1_555
C9_2 C8_2 1_555 1_555
O3_2 C9_2 1_555 1_555
C10_2 O3_2 1_555 1_555
C11_2 C10_2 1_555 1_555
O4_2 C10_2 1_555 1_555
H2_2 C2_2 1_555 1_555
H5_2 C7_2 1_555 1_555
H6_2 C7_2 1_555 1_555
H7_2 C9_2 1_555 1_555
H8_2 C9_2 1_555 1_555
C16_2 C8_2 1_555 1_555
O5_2 C16_2 1_555 1_555
C17_2 O5_2 1_555 1_555
O6_2 C17_2 1_555 1_555
H17_2 C16_2 1_555 1_555
H18_2 C16_2 1_555 1_555
C23_2 C8_2 1_555 1_555
O7_2 C23_2 1_555 1_555
C24_2 O7_2 1_555 1_555
C25_2 C24_2 1_555 1_555
C26_2 C25_2 1_555 1_555
C27_2 C26_2 1_555 1_555
N7 C27_2 1_555 1_555
C28_2 N7 1_555 1_555
C29_2 C25_2 1_555 1_555
H19_2 C29_2 1_555 1_555
H20_2 C28_2 1_555 1_555
H21_2 C27_2 1_555 1_555
H22_2 C26_2 1_555 1_555
O8_2 C24_2 1_555 1_555
H23_2 C23_2 1_555 1_555
H24_2 C23_2 1_555 1_555
C28_2 C29_2 1_555 1_555
N5_2 C20_2 1_555 1_555
C21_2 N5_2 1_555 1_555
H14_2 C21_2 1_555 1_555
H15_2 C20_2 1_555 1_555
C19_2 C18_2 1_555 1_555
H16_2 C19_2 1_555 1_555
C27_3 C26_3 1_555 1_555
N4_2 C27_3 1_555 1_555
C28_3 N4_2 1_555 1_555
H20_3 C28_3 1_555 1_555
H21_3 C27_3 1_555 1_555
Co4_2 N4_2 1_555 1_555
C28_3 C29_3 1_555 1_555
Co1_2 Cl1_3 1_555 1_555
N1_3 Co1_2 1_555 1_555
C1_3 N1_3 1_555 1_555
C2_3 C1_3 1_555 1_555
C3_3 C2_3 1_555 1_555
C4_3 C3_3 1_555 1_555
C5_3 N1_3 1_555 1_555
C6_3 C3_3 1_555 1_555
O1_3 C6_3 1_555 1_555
O2_3 C6_3 1_555 1_555
C7_3 O2_3 1_555 1_555
C8_3 C7_3 1_555 1_555
C9_3 C8_3 1_555 1_555
O3_3 C9_3 1_555 1_555
C10_3 O3_3 1_555 1_555
C11_3 C10_3 1_555 1_555
C12_3 C11_3 1_555 1_555
C13_3 C12_3 1_555 1_555
N2_2 C13_3 1_555 1_555
C14_3 N2_2 1_555 1_555
C15_3 C11_3 1_555 1_555
O4_3 C10_3 1_555 1_555
H1_3 C1_3 1_555 1_555
H2_3 C2_3 1_555 1_555
H3_3 C4_3 1_555 1_555
H4_3 C5_3 1_555 1_555
H5_3 C7_3 1_555 1_555
H6_3 C7_3 1_555 1_555
H7_3 C9_3 1_555 1_555
H8_3 C9_3 1_555 1_555
H9_3 C12_3 1_555 1_555
H10_3 C13_3 1_555 1_555
H11_3 C14_3 1_555 1_555
H12_3 C15_3 1_555 1_555
C16_3 C8_3 1_555 1_555
O5_3 C16_3 1_555 1_555
C17_3 O5_3 1_555 1_555
H13_3 C22_3 1_555 1_555
O6_3 C17_3 1_555 1_555
H17_3 C16_3 1_555 1_555
H18_3 C16_3 1_555 1_555
C23_3 C8_3 1_555 1_555
O7_3 C23_3 1_555 1_555
C24_3 O7_3 1_555 1_555
C25_3 C24_3 1_555 1_555
O8_3 C24_3 1_555 1_555
H23_3 C23_3 1_555 1_555
H24_3 C23_3 1_555 1_555
Cl2_3 Co1_2 1_555 1_555
N5_3 Co1_2 1_555 1_555
N6_2 Co1_2 1_555 1_555
N7_2 Co1_2 1_555 1_555
Co4_2 N2_2 1_555 1_555
C4_3 C5_3 1_555 1_555
C14_3 C15_3 1_555 1_555
C19_3 C18_3 1_555 1_555
C20_3 C19_3 1_555 1_555
N5_3 C20_3 1_555 1_555
C21_3 N5_3 1_555 1_555
H14_3 C21_3 1_555 1_555
H15_3 C20_3 1_555 1_555
H16_3 C19_3 1_555 1_555
N3 C20_4 1_555 1_555
C21_4 N3 1_555 1_555
H14_4 C21_4 1_555 1_555
H15_4 C20_4 1_555 1_555
Co4_2 N3 1_555 1_555
C3_4 C2_4 1_555 1_555
C6_4 C3_4 1_555 1_555
O1_4 C6_4 1_555 1_555
O2_4 C6_4 1_555 1_555
C7_4 O2_4 1_555 1_555
C8_4 C7_4 1_555 1_555
C9_4 C8_4 1_555 1_555
O3_4 C9_4 1_555 1_555
C10_4 O3_4 1_555 1_555
C11_4 C10_4 1_555 1_555
O4_4 C10_4 1_555 1_555
H2_4 C2_4 1_555 1_555
H5_4 C7_4 1_555 1_555
H6_4 C7_4 1_555 1_555
H7_4 C9_4 1_555 1_555
H8_4 C9_4 1_555 1_555
C16_4 C8_4 1_555 1_555
O5_4 C16_4 1_555 1_555
C17_4 O5_4 1_555 1_555
O6_4 C17_4 1_555 1_555
H17_4 C16_4 1_555 1_555
H18_4 C16_4 1_555 1_555
C23_4 C8_4 1_555 1_555
O7_4 C23_4 1_555 1_555
C24_4 O7_4 1_555 1_555
C25_4 C24_4 1_555 1_555
C26_4 C25_4 1_555 1_555
C27_4 C26_4 1_555 1_555
N6_2 C27_4 1_555 1_555
C28_4 N6_2 1_555 1_555
C29_4 C25_4 1_555 1_555
H19_4 C29_4 1_555 1_555
H20_4 C28_4 1_555 1_555
H21_4 C27_4 1_555 1_555
H22_4 C26_4 1_555 1_555
O8_4 C24_4 1_555 1_555
H23_4 C23_4 1_555 1_555
H24_4 C23_4 1_555 1_555
C28_4 C29_4 1_555 1_555
Co4_2 Cl1_4 1_555 1_555
N1_4 Co4_2 1_555 1_555
C1_4 N1_4 1_555 1_555
C5_4 N1_4 1_555 1_555
H1_4 C1_4 1_555 1_555
H3_4 C4_4 1_555 1_555
H4_4 C5_4 1_555 1_555
H13_4 C22_4 1_555 1_555
Cl2_4 Co4_2 1_555 1_555
C4_4 C5_4 1_555 1_555
C13_4 C12_4 1_555 1_555
N7_2 C13_4 1_555 1_555
C14_4 N7_2 1_555 1_555
H10_4 C13_4 1_555 1_555
H11_4 C14_4 1_555 1_555
C14_4 C15_4 1_555 1_555
C19_4 C18_4 1_555 1_555
H16_4 C19_4 1_555 1_555

#END
