
###############################################################################
#
# This file contains modified crystal structure data generated from the
# MOF subset of the Cambridge Structural Database (CSD) v543 
# hosted by the Cambridge Crystallographic Data Centre (CCDC).
#
# This work is licensed under the Creative Commons
# Attribution-NonCommercial-ShareAlike 4.0 International License.
# To view a copy of this license, visit
# http://creativecommons.org/licenses/by-nc-sa/4.0/
# or send a letter to
# Creative Commons, PO Box 1866, Mountain View, CA 94042, USA.
#
# CIF created using the CSD Python API on 29 September 2022
# The structure has been converted into the P1 space group
# The structure has a 3D framework
# The original CSD entry BASMAM is in the rhombohedral crystal system
# The original CSD entry BASMAM is in a Sohncke space group
# The framework has been calculated to contain at least 10.0% void space
# The void calculation uses a probe of radius 1.32A, grid spacing 0.4
# The framework is charged, counterions have been retained in the structure
#
###############################################################################

data_BASMAM
_chemical_formula_moiety         '(C162 H108 O86 Tb16 9-)n'
_symmetry_cell_setting           triclinic
_symmetry_space_group_name_H-M   'P 1'
_symmetry_Int_Tables_number      1
_space_group_name_Hall           'P 1'
loop_
_symmetry_equiv_pos_site_id
_symmetry_equiv_pos_as_xyz
1 x,y,z
_cell_length_a                   12.6214(15)
_cell_length_b                   12.6214(15)
_cell_length_c                   45.452(9)
_cell_angle_alpha                90
_cell_angle_beta                 90
_cell_angle_gamma                120
_cell_volume                     6270.45
loop_
_atom_site_label
_atom_site_type_symbol
_atom_site_fract_x
_atom_site_fract_y
_atom_site_fract_z
Tb1 Tb 0.48850(5) 0.48850(5) 0.0000
O1 O 0.2929(10) 0.2929(10) 0.0000
O3 O 0.4539(11) 0.4347(8) 0.05299(18)
O4 O 0.4824(7) 0.6175(8) 0.04082(16)
H1 H 0.1281 0.2485 0.0121
C3 C 0.4944(12) 0.5776(12) 0.0914(2)
C4 C 0.481(2) 0.4945(15) 0.1133(3)
H3 H 0.4557 0.4141 0.1081
C5 C 0.504(2) 0.5294(17) 0.1429(3)
H4 H 0.5001 0.4741 0.1570
C6 C 0.5331(14) 0.6479(14) 0.1513(3)
C7 C 0.5419(18) 0.7264(16) 0.1296(3)
H5 H 0.5586 0.8043 0.1350
C8 C 0.5271(17) 0.6965(14) 0.0995(3)
H6 H 0.5388 0.7547 0.0854
C9 C 0.4727(13) 0.5406(15) 0.0601(2)
O6 O 0.5000(8) 0.3068(8) 0.00604(19)
O7 O 0.4215(9) 0.1113(9) 0.01866(17)
C10 C 0.2845(15) 0.1806(15) 0.0049(5)
H8 H 0.2326 0.1411 0.0218
C11 C 0.4113(12) 0.2002(13) 0.0105(2)
O8 O 0.6859(14) 0.8986(8) 0.28034(18)
O9 O 0.5316(11) 0.7158(8) 0.29251(16)
C12 C 0.5835(17) 0.7557(12) 0.2419(2)
C13 C 0.6532(25) 0.8388(15) 0.2200(3)
H9 H 0.7083 0.9192 0.2252
C14 C 0.6413(26) 0.8039(17) 0.1904(3)
H10 H 0.6927 0.8592 0.1763
C15 C 0.5519(20) 0.6854(14) 0.1820(3)
C16 C 0.4822(24) 0.6069(16) 0.2037(3)
H11 H 0.4210 0.5290 0.1983
C17 C 0.4973(22) 0.6368(14) 0.2338(3)
H12 H 0.4508 0.5786 0.2479
C18 C 0.5988(20) 0.7927(15) 0.2732(2)
Tb2 Tb 0.51150(5) 0.00000(7) 0.0000
Tb3 Tb 0.00000(7) 0.51150(5) 0.0000
Tb4 Tb 0.66667(7) 0.84483(5) 0.3333
O13 O 0.6898(13) 0.5785(9) 0.01866(17)
Tb1_2 Tb 0.48850(5) 0.48850(5) 1.0000
O1_2 O 0.2929(10) 0.2929(10) 1.0000
O2 O 0.3068(8) 0.5000(8) 0.99396(19)
O5 O 0.1113(9) 0.4215(9) 0.98134(17)
C1 C 0.1806(15) 0.2845(15) 0.9951(5)
H2 H 0.1411 0.2326 0.9782
C2 C 0.2002(13) 0.4113(12) 0.9895(2)
H7 H 0.2485 0.1281 0.9879
Tb2_2 Tb 0.51150(5) 0.00000(7) 1.0000
Tb3_2 Tb -0.00000(7) 0.51150(5) 1.0000
O10 O 0.4347(8) 0.4539(11) 0.94701(18)
O11 O 0.6175(8) 0.4824(7) 0.95918(16)
O12 O 0.5785(9) 0.6898(13) 0.98134(17)
Tb2_3 Tb 0.51150(5) 1.00000(7) 0.0000
Tb2_4 Tb 0.51150(5) 1.00000(7) 1.0000
Tb3_3 Tb 1.00000(7) 0.51150(5) 0.0000
Tb3_4 Tb 1.00000(7) 0.51150(5) 1.0000
O1_3 O 0.7071(10) -0.0000(14) 0.0000
O3_2 O 0.5653(8) 0.0192(14) 0.05299(18)
H3_2 H 0.5859 0.0416 0.1081
H4_2 H 0.5259 0.0260 0.1570
O6_2 O 0.6932(8) 0.1932(11) 0.00604(19)
O7_2 O 0.8887(9) 0.3102(13) 0.01866(17)
C10_2 C 0.8194(15) 0.1039(21) 0.0049(5)
H8_2 H 0.8589 0.0915 0.0218
C11_2 C 0.7998(13) 0.2111(18) 0.0105(2)
O1_4 O 0.7071(10) -0.0000(14) 1.0000
H7_2 H 0.8719 0.1204 0.9879
O11_2 O 0.5176(7) 0.1351(11) 0.95918(16)
O1_5 O 0.7071(10) 1.0000(14) 0.0000
O4_2 O 0.3825(8) 0.8649(11) 0.04082(16)
H1_2 H 0.7515 0.8796 0.0121
C3_2 C 0.4224(12) 0.9168(17) 0.0914(2)
C4_2 C 0.5055(15) 0.9865(25) 0.1133(3)
C5_2 C 0.4706(17) 0.9746(26) 0.1429(3)
C6_2 C 0.3521(14) 0.8852(20) 0.1513(3)
C7_2 C 0.2736(16) 0.8155(24) 0.1296(3)
H5_2 H 0.1957 0.7543 0.1350
C8_2 C 0.3035(14) 0.8306(22) 0.0995(3)
H6_2 H 0.2453 0.7841 0.0854
C9_2 C 0.4594(15) 0.9321(20) 0.0601(2)
O8_2 O 0.1014(8) 0.7872(16) 0.28034(18)
O9_2 O 0.2842(8) 0.8157(14) 0.29251(16)
C12_2 C 0.2443(12) 0.8277(21) 0.2419(2)
C13_2 C 0.1612(15) 0.8143(29) 0.2200(3)
H9_2 H 0.0808 0.7890 0.2252
C14_2 C 0.1961(17) 0.8373(31) 0.1904(3)
H10_2 H 0.1408 0.8334 0.1763
C15_2 C 0.3146(14) 0.8664(24) 0.1820(3)
C16_2 C 0.3931(16) 0.8752(29) 0.2037(3)
H11_2 H 0.4710 0.8919 0.1983
C17_2 C 0.3632(14) 0.8604(26) 0.2338(3)
H12_2 H 0.4214 0.8721 0.2479
C18_2 C 0.2073(15) 0.8060(25) 0.2732(2)
Tb4_2 Tb 0.15517(5) 0.82183(9) 0.3333
O1_6 O 0.7071(10) 1.0000(14) 1.0000
O2_2 O 0.5000(8) 0.8068(11) 0.99396(19)
C1_2 C 0.7155(15) 0.8961(21) 0.9951(5)
H2_2 H 0.7674 0.9085 0.9782
C2_2 C 0.5887(12) 0.7889(18) 0.9895(2)
O10_2 O 0.5461(11) 0.9808(14) 0.94701(18)
O12_2 O 0.3102(13) 0.8887(16) 0.98134(17)
O1_7 O 0.0000(14) 0.7071(10) 0.0000
O4_3 O 0.1351(11) 0.5176(7) 0.04082(16)
H1_3 H 0.1204 0.8719 0.0121
C3_3 C 0.0832(17) 0.5056(12) 0.0914(2)
C4_3 C 0.0135(25) 0.519(2) 0.1133(3)
C5_3 C 0.0254(26) 0.496(2) 0.1429(3)
C6_3 C 0.1148(20) 0.4669(14) 0.1513(3)
C7_3 C 0.1845(24) 0.4581(18) 0.1296(3)
H5_3 H 0.2457 0.4414 0.1350
C8_3 C 0.1694(22) 0.4729(17) 0.0995(3)
H6_3 H 0.2159 0.4612 0.0854
C9_3 C 0.0679(20) 0.5273(13) 0.0601(2)
O8_3 O 0.2128(16) 0.3141(14) 0.28034(18)
O9_3 O 0.1843(14) 0.4684(11) 0.29251(16)
C12_3 C 0.1723(21) 0.4165(17) 0.2419(2)
C13_3 C 0.1857(29) 0.3468(25) 0.2200(3)
H9_3 H 0.2110 0.2917 0.2252
C14_3 C 0.1627(31) 0.3587(26) 0.1904(3)
H10_3 H 0.1666 0.3073 0.1763
C15_3 C 0.1336(24) 0.4481(20) 0.1820(3)
C16_3 C 0.1248(29) 0.5178(24) 0.2037(3)
H11_3 H 0.1081 0.5790 0.1983
C17_3 C 0.1396(26) 0.5027(22) 0.2338(3)
H12_3 H 0.1279 0.5492 0.2479
C18_3 C 0.1940(25) 0.4012(20) 0.2732(2)
Tb4_3 Tb 0.17817(9) 0.33333(7) 0.3333
O1_8 O 0.0000(14) 0.7071(10) 1.0000
O2_3 O 0.1932(11) 0.6932(8) 0.99396(19)
C1_3 C 0.1039(21) 0.8194(15) 0.9951(5)
H2_3 H 0.0915 0.8589 0.9782
C2_3 C 0.2111(18) 0.7998(13) 0.9895(2)
O10_3 O 0.0192(14) 0.5653(8) 0.94701(18)
O1_9 O 1.0000(14) 0.7071(10) 0.0000
O3_3 O 0.9808(14) 0.5461(11) 0.05299(18)
H3_3 H 0.9584 0.5443 0.1081
H4_3 H 0.9740 0.4999 0.1570
O6_3 O 0.8068(11) 0.5000(8) 0.00604(19)
C10_3 C 0.8961(21) 0.7155(15) 0.0049(5)
H8_3 H 0.9085 0.7674 0.0218
C11_3 C 0.7889(18) 0.5887(12) 0.0105(2)
O1_10 O 1.0000(14) 0.7071(10) 1.0000
H7_3 H 0.8796 0.7515 0.9879
O11_3 O 0.8649(11) 0.3825(8) 0.95918(16)
C3_4 C 0.5776(12) 0.4944(12) 0.9086(2)
C4_4 C 0.4945(15) 0.481(2) 0.8867(3)
H3_4 H 0.4141 0.4557 0.8919
C5_4 C 0.5294(17) 0.504(2) 0.8571(3)
H4_4 H 0.4741 0.5001 0.8430
C6_4 C 0.6479(14) 0.5331(14) 0.8487(3)
C7_4 C 0.7264(16) 0.5419(18) 0.8704(3)
H5_4 H 0.8043 0.5586 0.8650
C8_4 C 0.6965(14) 0.5271(17) 0.9005(3)
H6_4 H 0.7547 0.5388 0.9146
C9_4 C 0.5406(15) 0.4727(13) 0.9399(2)
O8_4 O 0.8986(8) 0.6859(14) 0.71966(18)
O9_4 O 0.7158(8) 0.5316(11) 0.70749(16)
C12_4 C 0.7557(12) 0.5835(17) 0.7581(2)
C13_4 C 0.8388(15) 0.6532(25) 0.7800(3)
H9_4 H 0.9192 0.7083 0.7748
C14_4 C 0.8039(17) 0.6413(26) 0.8096(3)
H10_4 H 0.8592 0.6927 0.8237
C15_4 C 0.6854(14) 0.5519(20) 0.8180(3)
C16_4 C 0.6069(16) 0.4822(24) 0.7963(3)
H11_4 H 0.5290 0.4210 0.8017
C17_4 C 0.6368(14) 0.4973(22) 0.7662(3)
H12_4 H 0.5786 0.4508 0.7521
C18_4 C 0.7927(15) 0.5988(20) 0.7268(2)
Tb4_4 Tb 0.84483(5) 0.66667(7) 0.6667
C3_5 C 0.5056(12) 0.0832(17) 0.9086(2)
C4_5 C 0.519(2) 0.0135(25) 0.8867(3)
C5_5 C 0.496(2) 0.0254(26) 0.8571(3)
C6_5 C 0.4669(14) 0.1148(20) 0.8487(3)
C7_5 C 0.4581(18) 0.1845(24) 0.8704(3)
H5_5 H 0.4414 0.2457 0.8650
C8_5 C 0.4729(17) 0.1694(22) 0.9005(3)
H6_5 H 0.4612 0.2159 0.9146
C9_5 C 0.5273(13) 0.0679(20) 0.9399(2)
O8_5 O 0.3141(14) 0.2128(16) 0.71966(18)
O9_5 O 0.4684(11) 0.1843(14) 0.70749(16)
C12_5 C 0.4165(17) 0.1723(21) 0.7581(2)
C13_5 C 0.3468(25) 0.1857(29) 0.7800(3)
H9_5 H 0.2917 0.2110 0.7748
C14_5 C 0.3587(26) 0.1627(31) 0.8096(3)
H10_5 H 0.3073 0.1666 0.8237
C15_5 C 0.4481(20) 0.1336(24) 0.8180(3)
C16_5 C 0.5178(24) 0.1248(29) 0.7963(3)
H11_5 H 0.5790 0.1081 0.8017
C17_5 C 0.5027(22) 0.1396(26) 0.7662(3)
H12_5 H 0.5492 0.1279 0.7521
C18_5 C 0.4012(20) 0.1940(25) 0.7268(2)
Tb4_5 Tb 0.33333(7) 0.17817(9) 0.6667
H3_5 H 0.5443 0.9584 0.8919
H4_5 H 0.4999 0.9740 0.8430
H3_6 H 0.0416 0.5859 0.8919
H4_6 H 0.0260 0.5259 0.8430
C3_6 C 0.9168(17) 0.4224(12) 0.9086(2)
C4_6 C 0.9865(25) 0.5055(15) 0.8867(3)
C5_6 C 0.9746(26) 0.4706(17) 0.8571(3)
C6_6 C 0.8852(20) 0.3521(14) 0.8487(3)
C7_6 C 0.8155(24) 0.2736(16) 0.8704(3)
H5_6 H 0.7543 0.1957 0.8650
C8_6 C 0.8306(22) 0.3035(14) 0.9005(3)
H6_6 H 0.7841 0.2453 0.9146
C9_6 C 0.9321(20) 0.4594(15) 0.9399(2)
O8_6 O 0.7872(16) 0.1014(8) 0.71966(18)
O9_6 O 0.8157(14) 0.2842(8) 0.70749(16)
C12_6 C 0.8277(21) 0.2443(12) 0.7581(2)
C13_6 C 0.8143(29) 0.1612(15) 0.7800(3)
H9_6 H 0.7890 0.0808 0.7748
C14_6 C 0.8373(31) 0.1961(17) 0.8096(3)
H10_6 H 0.8334 0.1408 0.8237
C15_6 C 0.8664(24) 0.3146(14) 0.8180(3)
C16_6 C 0.8752(29) 0.3931(16) 0.7963(3)
H11_6 H 0.8919 0.4710 0.8017
C17_6 C 0.8604(26) 0.3632(14) 0.7662(3)
H12_6 H 0.8721 0.4214 0.7521
C18_6 C 0.8060(25) 0.2073(15) 0.7268(2)
Tb4_6 Tb 0.82183(9) 0.15517(5) 0.6667
C7_7 C 0.2086(18) 0.0597(16) 0.4629(3)
H5_7 H 0.2253 0.1376 0.4683
C8_7 C 0.1938(17) 0.0298(14) 0.4328(3)
H6_7 H 0.2055 0.0880 0.4187
O8_7 O 0.3525(14) 0.2320(8) 0.61368(18)
O9_7 O 0.1982(11) 0.0492(8) 0.62585(16)
C12_7 C 0.2501(17) 0.0891(12) 0.5753(2)
C13_7 C 0.3198(25) 0.1722(15) 0.5534(3)
H9_7 H 0.3749 0.2526 0.5586
C14_7 C 0.3079(26) 0.1373(17) 0.5238(3)
H10_7 H 0.3593 0.1926 0.5097
C15_7 C 0.2185(20) 0.0188(14) 0.5154(3)
C18_7 C 0.2654(20) 0.1261(15) 0.6066(2)
O12_3 O 0.2452(9) 0.0231(13) 0.31467(17)
O3_4 O 0.1206(11) 0.7680(8) 0.38632(18)
O4_4 O 0.1491(7) 0.9508(8) 0.37415(16)
C3_7 C 0.1611(12) 0.9109(12) 0.4247(2)
C4_7 C 0.148(2) 0.8278(15) 0.4466(3)
H3_7 H 0.1224 0.7474 0.4414
C5_7 C 0.171(2) 0.8627(17) 0.4762(3)
H4_7 H 0.1668 0.8074 0.4903
C6_7 C 0.1998(14) 0.9812(14) 0.4846(3)
C9_7 C 0.1394(13) 0.8739(15) 0.3934(2)
O6_4 O 0.1667(8) 0.6401(8) 0.33937(19)
O7_3 O 0.0882(9) 0.4446(9) 0.35199(17)
C11_4 C 0.0780(12) 0.5335(13) 0.3438(2)
C16_7 C 0.1488(24) 0.9403(16) 0.5371(3)
H11_7 H 0.0876 0.8624 0.5317
C17_7 C 0.1639(22) 0.9702(14) 0.5672(3)
H12_7 H 0.1174 0.9120 0.5813
O13_2 O 0.3565(13) 0.9118(9) 0.35199(17)
O1_11 O 0.9596(10) 0.6262(10) 0.3333
O2_4 O 0.9735(8) 0.8333(8) 0.32729(19)
O5_2 O 0.7780(9) 0.7548(9) 0.31467(17)
C1_4 C 0.8473(15) 0.6178(15) 0.3284(5)
H1_4 H 0.7948 0.5818 0.3454
H2_4 H 0.8078 0.5659 0.3115
C2_4 C 0.8669(13) 0.7446(12) 0.3228(2)
C10_4 C 0.9512(15) 0.5139(15) 0.3382(5)
H7_4 H 0.9152 0.4614 0.3212
H8_4 H 0.8993 0.4744 0.3551
O1_12 O 0.3738(10) 0.3333(14) 0.3333
O2_5 O 0.1667(8) 0.1401(11) 0.32729(19)
O3_5 O 0.2320(8) 0.3525(14) 0.38632(18)
O4_5 O 0.0492(8) 0.1982(11) 0.37415(16)
C1_5 C 0.3822(15) 0.2294(21) 0.3284(5)
H1_5 H 0.4182 0.2129 0.3454
H2_5 H 0.4341 0.2418 0.3115
C2_5 C 0.2554(12) 0.1222(18) 0.3228(2)
C3_8 C 0.0891(12) 0.2501(17) 0.4247(2)
C4_8 C 0.1722(15) 0.3198(25) 0.4466(3)
H3_8 H 0.2526 0.3749 0.4414
C5_8 C 0.1373(17) 0.3079(26) 0.4762(3)
H4_8 H 0.1926 0.3593 0.4903
C6_8 C 0.0188(14) 0.2185(20) 0.4846(3)
C9_8 C 0.1261(15) 0.2654(20) 0.3934(2)
O6_5 O 0.3599(8) 0.5265(11) 0.33937(19)
O7_4 O 0.5554(9) 0.6435(13) 0.35199(17)
C10_5 C 0.4861(15) 0.4372(21) 0.3382(5)
H7_5 H 0.5386 0.4537 0.3212
H8_5 H 0.5256 0.4248 0.3551
C11_5 C 0.4665(13) 0.5444(18) 0.3438(2)
C16_8 C 0.0597(16) 0.2086(29) 0.5371(3)
H11_8 H 0.1376 0.2253 0.5317
C17_8 C 0.0298(14) 0.1938(26) 0.5672(3)
H12_8 H 0.0880 0.2055 0.5813
C7_8 C 0.9403(16) 0.1488(24) 0.4629(3)
H5_8 H 0.8624 0.0876 0.4683
C8_8 C 0.9702(14) 0.1639(22) 0.4328(3)
H6_8 H 0.9120 0.1174 0.4187
O8_8 O 0.7680(8) 0.1206(16) 0.61368(18)
O9_8 O 0.9508(8) 0.1491(14) 0.62585(16)
C12_8 C 0.9109(12) 0.1611(21) 0.5753(2)
C13_8 C 0.8278(15) 0.1477(29) 0.5534(3)
H9_8 H 0.7474 0.1224 0.5586
C14_8 C 0.8627(17) 0.1707(31) 0.5238(3)
H10_8 H 0.8074 0.1668 0.5097
C15_8 C 0.9812(14) 0.1998(24) 0.5154(3)
C18_8 C 0.8739(15) 0.1394(25) 0.6066(2)
O12_4 O 0.9769(13) 0.2220(16) 0.31467(17)
O1_13 O 0.6667(14) 0.0404(10) 0.3333
O2_6 O 0.8599(11) 0.0265(8) 0.32729(19)
C1_6 C 0.7706(21) 0.1527(15) 0.3284(5)
H1_6 H 0.7871 0.2052 0.3454
H2_6 H 0.7582 0.1922 0.3115
C2_6 C 0.8778(18) 0.1331(13) 0.3228(2)
C10_6 C 0.5628(21) 0.0488(15) 0.3382(5)
H7_6 H 0.5463 0.0848 0.3212
H8_6 H 0.5752 0.1007 0.3551
O3_6 O 0.6475(14) 0.8794(11) 0.38632(18)
O4_6 O 0.8018(11) 0.8509(7) 0.37415(16)
C3_9 C 0.7499(17) 0.8389(12) 0.4247(2)
C4_9 C 0.6802(25) 0.852(2) 0.4466(3)
H3_9 H 0.6251 0.8776 0.4414
C5_9 C 0.6921(26) 0.829(2) 0.4762(3)
H4_9 H 0.6407 0.8332 0.4903
C6_9 C 0.7815(20) 0.8002(14) 0.4846(3)
C7_9 C 0.8512(24) 0.7914(18) 0.4629(3)
H5_9 H 0.9124 0.7747 0.4683
C8_9 C 0.8361(22) 0.8062(17) 0.4328(3)
H6_9 H 0.8826 0.7945 0.4187
C9_9 C 0.7346(20) 0.8606(13) 0.3934(2)
O6_6 O 0.4735(11) 0.8333(8) 0.33937(19)
C11_6 C 0.4556(18) 0.9220(12) 0.3438(2)
O8_9 O 0.8794(16) 0.6475(14) 0.61368(18)
O9_9 O 0.8509(14) 0.8018(11) 0.62585(16)
C12_9 C 0.8389(21) 0.7499(17) 0.5753(2)
C13_9 C 0.8523(29) 0.6802(25) 0.5534(3)
H9_9 H 0.8776 0.6251 0.5586
C14_9 C 0.8293(31) 0.6921(26) 0.5238(3)
H10_9 H 0.8332 0.6407 0.5097
C15_9 C 0.8002(24) 0.7815(20) 0.5154(3)
C16_9 C 0.7914(29) 0.8512(24) 0.5371(3)
H11_9 H 0.7747 0.9124 0.5317
C17_9 C 0.8062(26) 0.8361(22) 0.5672(3)
H12_9 H 0.7945 0.8826 0.5813
C18_9 C 0.8606(25) 0.7346(20) 0.6066(2)
O13_3 O 0.0231(13) 0.2452(9) 0.68533(17)
O2_7 O 0.6401(8) 0.1667(8) 0.66063(19)
O5_3 O 0.4446(9) 0.0882(9) 0.64801(17)
C2_7 C 0.5335(13) 0.0780(12) 0.6562(2)
O12_5 O 0.9118(9) 0.3565(13) 0.64801(17)
O1_14 O 0.6262(10) 0.9596(10) 0.6667
C1_7 C 0.5139(15) 0.9512(15) 0.6618(5)
H1_7 H 0.4614 0.9152 0.6788
H2_7 H 0.4744 0.8993 0.6449
O6_7 O 0.8333(8) 0.9735(8) 0.67271(19)
O7_5 O 0.7548(9) 0.7780(9) 0.68533(17)
C10_7 C 0.6178(15) 0.8473(15) 0.6716(5)
H7_7 H 0.5818 0.7948 0.6546
H8_7 H 0.5659 0.8078 0.6885
C11_7 C 0.7446(12) 0.8669(13) 0.6772(2)
O1_15 O 0.0404(10) 0.6667(14) 0.6667
C1_8 C 0.0488(15) 0.5628(21) 0.6618(5)
H1_8 H 0.0848 0.5463 0.6788
H2_8 H 0.1007 0.5752 0.6449
O6_8 O 0.0265(8) 0.8599(11) 0.67271(19)
O7_6 O 0.2220(9) 0.9769(13) 0.68533(17)
C10_8 C 0.1527(15) 0.7706(21) 0.6716(5)
H7_8 H 0.2052 0.7871 0.6546
H8_8 H 0.1922 0.7582 0.6885
C11_8 C 0.1331(13) 0.8778(18) 0.6772(2)
O2_8 O 0.8333(8) 0.4735(11) 0.66063(19)
C2_8 C 0.9220(12) 0.4556(18) 0.6562(2)
O12_6 O 0.6435(13) 0.5554(16) 0.64801(17)
O1_16 O 0.3333(14) 0.3738(10) 0.6667
O2_9 O 0.5265(11) 0.3599(8) 0.66063(19)
C1_9 C 0.4372(21) 0.4861(15) 0.6618(5)
H1_9 H 0.4537 0.5386 0.6788
H2_9 H 0.4248 0.5256 0.6449
C2_9 C 0.5444(18) 0.4665(13) 0.6562(2)
O6_9 O 0.1401(11) 0.1667(8) 0.67271(19)
C10_9 C 0.2294(21) 0.3822(15) 0.6716(5)
H7_9 H 0.2129 0.4182 0.6546
H8_9 H 0.2418 0.4341 0.6885
C11_9 C 0.1222(18) 0.2554(12) 0.6772(2)
loop_
_geom_bond_atom_site_label_1
_geom_bond_atom_site_label_2
_geom_bond_site_symmetry_1
_geom_bond_site_symmetry_2
Tb1 O1 1_555 1_555
O3 Tb1 1_555 1_555
O4 Tb1 1_555 1_555
C3 C4 1_555 1_555
C4 H3 1_555 1_555
C5 C4 1_555 1_555
H4 C5 1_555 1_555
C6 C5 1_555 1_555
C7 C6 1_555 1_555
H5 C7 1_555 1_555
C8 C3 1_555 1_555
H6 C8 1_555 1_555
C9 O3 1_555 1_555
O6 Tb1 1_555 1_555
O7 C11 1_555 1_555
C10 O1 1_555 1_555
H8 C10 1_555 1_555
C11 O6 1_555 1_555
O8 C18 1_555 1_555
O9 C18 1_555 1_555
C12 C13 1_555 1_555
C13 H9 1_555 1_555
C14 C13 1_555 1_555
H10 C14 1_555 1_555
C15 C6 1_555 1_555
C16 C15 1_555 1_555
H11 C16 1_555 1_555
C17 C12 1_555 1_555
H12 C17 1_555 1_555
C18 C12 1_555 1_555
Tb2 O7 1_555 1_555
Tb4 O8 1_555 1_555
O13 Tb1 1_555 1_555
O4 C9 1_555 1_555
C3 C9 1_555 1_555
C7 C8 1_555 1_555
C10 C11 1_555 1_555
O9 Tb4 1_555 1_555
C14 C15 1_555 1_555
C16 C17 1_555 1_555
Tb1_2 O1_2 1_555 1_555
O1_2 C1 1_555 1_555
O2 Tb1_2 1_555 1_555
O5 C2 1_555 1_555
H2 C1 1_555 1_555
C2 O2 1_555 1_555
Tb3_2 O5 1_555 1_555
O10 Tb1_2 1_555 1_555
O11 Tb1_2 1_555 1_555
O12 Tb1_2 1_555 1_555
C1 C2 1_555 1_555
Tb2 O1_3 1_555 1_555
O3_2 Tb2 1_555 1_555
O6_2 Tb2 1_555 1_555
O7_2 C11_2 1_555 1_555
C10_2 O1_3 1_555 1_555
H8_2 C10_2 1_555 1_555
C11_2 O6_2 1_555 1_555
Tb3_3 O7_2 1_555 1_555
C10_2 C11_2 1_555 1_555
Tb2_2 O1_4 1_555 1_555
O11_2 Tb2_2 1_555 1_555
Tb2_3 O1_5 1_555 1_555
O4_2 Tb2_3 1_555 1_555
C3_2 C4_2 1_555 1_555
C5_2 C4_2 1_555 1_555
C6_2 C5_2 1_555 1_555
C7_2 C6_2 1_555 1_555
H5_2 C7_2 1_555 1_555
C8_2 C3_2 1_555 1_555
H6_2 C8_2 1_555 1_555
O8_2 C18_2 1_555 1_555
O9_2 C18_2 1_555 1_555
C12_2 C13_2 1_555 1_555
C13_2 H9_2 1_555 1_555
C14_2 C13_2 1_555 1_555
H10_2 C14_2 1_555 1_555
C15_2 C6_2 1_555 1_555
C16_2 C15_2 1_555 1_555
H11_2 C16_2 1_555 1_555
C17_2 C12_2 1_555 1_555
H12_2 C17_2 1_555 1_555
C18_2 C12_2 1_555 1_555
Tb4_2 O8_2 1_555 1_555
O4_2 C9_2 1_555 1_555
C3_2 C9_2 1_555 1_555
C7_2 C8_2 1_555 1_555
O9_2 Tb4_2 1_555 1_555
C14_2 C15_2 1_555 1_555
C16_2 C17_2 1_555 1_555
Tb2_4 O1_6 1_555 1_555
O1_6 C1_2 1_555 1_555
O2_2 Tb2_4 1_555 1_555
O12 C2_2 1_555 1_555
H2_2 C1_2 1_555 1_555
C2_2 O2_2 1_555 1_555
O10_2 Tb2_4 1_555 1_555
O12_2 Tb2_4 1_555 1_555
C1_2 C2_2 1_555 1_555
Tb3 O1_7 1_555 1_555
O4_3 Tb3 1_555 1_555
C3_3 C4_3 1_555 1_555
C5_3 C4_3 1_555 1_555
C6_3 C5_3 1_555 1_555
C7_3 C6_3 1_555 1_555
H5_3 C7_3 1_555 1_555
C8_3 C3_3 1_555 1_555
H6_3 C8_3 1_555 1_555
O8_3 C18_3 1_555 1_555
O9_3 C18_3 1_555 1_555
C12_3 C13_3 1_555 1_555
C13_3 H9_3 1_555 1_555
C14_3 C13_3 1_555 1_555
H10_3 C14_3 1_555 1_555
C15_3 C6_3 1_555 1_555
C16_3 C15_3 1_555 1_555
H11_3 C16_3 1_555 1_555
C17_3 C12_3 1_555 1_555
H12_3 C17_3 1_555 1_555
C18_3 C12_3 1_555 1_555
Tb4_3 O8_3 1_555 1_555
O4_3 C9_3 1_555 1_555
C3_3 C9_3 1_555 1_555
C7_3 C8_3 1_555 1_555
O9_3 Tb4_3 1_555 1_555
C14_3 C15_3 1_555 1_555
C16_3 C17_3 1_555 1_555
Tb3_2 O1_8 1_555 1_555
O1_8 C1_3 1_555 1_555
O2_3 Tb3_2 1_555 1_555
O12_2 C2_3 1_555 1_555
H2_3 C1_3 1_555 1_555
C2_3 O2_3 1_555 1_555
O10_3 Tb3_2 1_555 1_555
C1_3 C2_3 1_555 1_555
Tb3_3 O1_9 1_555 1_555
O3_3 Tb3_3 1_555 1_555
O6_3 Tb3_3 1_555 1_555
O13 C11_3 1_555 1_555
C10_3 O1_9 1_555 1_555
H8_3 C10_3 1_555 1_555
C11_3 O6_3 1_555 1_555
C10_3 C11_3 1_555 1_555
Tb3_4 O1_10 1_555 1_555
O11_3 Tb3_4 1_555 1_555
C3_4 C4_4 1_555 1_555
C4_4 H3_4 1_555 1_555
C5_4 C4_4 1_555 1_555
H4_4 C5_4 1_555 1_555
C6_4 C5_4 1_555 1_555
C7_4 C6_4 1_555 1_555
H5_4 C7_4 1_555 1_555
C8_4 C3_4 1_555 1_555
H6_4 C8_4 1_555 1_555
C9_4 O10 1_555 1_555
O8_4 C18_4 1_555 1_555
O9_4 C18_4 1_555 1_555
C12_4 C13_4 1_555 1_555
C13_4 H9_4 1_555 1_555
C14_4 C13_4 1_555 1_555
H10_4 C14_4 1_555 1_555
C15_4 C6_4 1_555 1_555
C16_4 C15_4 1_555 1_555
H11_4 C16_4 1_555 1_555
C17_4 C12_4 1_555 1_555
H12_4 C17_4 1_555 1_555
C18_4 C12_4 1_555 1_555
Tb4_4 O8_4 1_555 1_555
O11 C9_4 1_555 1_555
C3_4 C9_4 1_555 1_555
C7_4 C8_4 1_555 1_555
O9_4 Tb4_4 1_555 1_555
C14_4 C15_4 1_555 1_555
C16_4 C17_4 1_555 1_555
C3_5 C4_5 1_555 1_555
C5_5 C4_5 1_555 1_555
C6_5 C5_5 1_555 1_555
C7_5 C6_5 1_555 1_555
H5_5 C7_5 1_555 1_555
C8_5 C3_5 1_555 1_555
H6_5 C8_5 1_555 1_555
O8_5 C18_5 1_555 1_555
O9_5 C18_5 1_555 1_555
C12_5 C13_5 1_555 1_555
C13_5 H9_5 1_555 1_555
C14_5 C13_5 1_555 1_555
H10_5 C14_5 1_555 1_555
C15_5 C6_5 1_555 1_555
C16_5 C15_5 1_555 1_555
H11_5 C16_5 1_555 1_555
C17_5 C12_5 1_555 1_555
H12_5 C17_5 1_555 1_555
C18_5 C12_5 1_555 1_555
Tb4_5 O8_5 1_555 1_555
O11_2 C9_5 1_555 1_555
C3_5 C9_5 1_555 1_555
C7_5 C8_5 1_555 1_555
O9_5 Tb4_5 1_555 1_555
C14_5 C15_5 1_555 1_555
C16_5 C17_5 1_555 1_555
C3_6 C4_6 1_555 1_555
C5_6 C4_6 1_555 1_555
C6_6 C5_6 1_555 1_555
C7_6 C6_6 1_555 1_555
H5_6 C7_6 1_555 1_555
C8_6 C3_6 1_555 1_555
H6_6 C8_6 1_555 1_555
O8_6 C18_6 1_555 1_555
O9_6 C18_6 1_555 1_555
C12_6 C13_6 1_555 1_555
C13_6 H9_6 1_555 1_555
C14_6 C13_6 1_555 1_555
H10_6 C14_6 1_555 1_555
C15_6 C6_6 1_555 1_555
C16_6 C15_6 1_555 1_555
H11_6 C16_6 1_555 1_555
C17_6 C12_6 1_555 1_555
H12_6 C17_6 1_555 1_555
C18_6 C12_6 1_555 1_555
Tb4_6 O8_6 1_555 1_555
O11_3 C9_6 1_555 1_555
C3_6 C9_6 1_555 1_555
C7_6 C8_6 1_555 1_555
O9_6 Tb4_6 1_555 1_555
C14_6 C15_6 1_555 1_555
C16_6 C17_6 1_555 1_555
H5_7 C7_7 1_555 1_555
H6_7 C8_7 1_555 1_555
O8_7 C18_7 1_555 1_555
O9_7 C18_7 1_555 1_555
C12_7 C13_7 1_555 1_555
C13_7 H9_7 1_555 1_555
C14_7 C13_7 1_555 1_555
H10_7 C14_7 1_555 1_555
C18_7 C12_7 1_555 1_555
Tb4_5 O8_7 1_555 1_555
C7_7 C8_7 1_555 1_555
O9_7 Tb4_5 1_555 1_555
C14_7 C15_7 1_555 1_555
O3_4 Tb4_2 1_555 1_555
O4_4 Tb4_2 1_555 1_555
C3_7 C4_7 1_555 1_555
C4_7 H3_7 1_555 1_555
C5_7 C4_7 1_555 1_555
H4_7 C5_7 1_555 1_555
C6_7 C5_7 1_555 1_555
C9_7 O3_4 1_555 1_555
O6_4 Tb4_2 1_555 1_555
O7_3 C11_4 1_555 1_555
C11_4 O6_4 1_555 1_555
H11_7 C16_7 1_555 1_555
H12_7 C17_7 1_555 1_555
Tb4_3 O7_3 1_555 1_555
O13_2 Tb4_2 1_555 1_555
O4_4 C9_7 1_555 1_555
C3_7 C9_7 1_555 1_555
C16_7 C17_7 1_555 1_555
O1_11 C1_4 1_555 1_555
O5_2 C2_4 1_555 1_555
C1_4 H1_4 1_555 1_555
H2_4 C1_4 1_555 1_555
C2_4 O2_4 1_555 1_555
C10_4 O1_11 1_555 1_555
H7_4 C10_4 1_555 1_555
H8_4 C10_4 1_555 1_555
Tb4 O5_2 1_555 1_555
C1_4 C2_4 1_555 1_555
Tb4_3 O1_12 1_555 1_555
O1_12 C1_5 1_555 1_555
O2_5 Tb4_3 1_555 1_555
O3_5 Tb4_3 1_555 1_555
O4_5 Tb4_3 1_555 1_555
O12_3 C2_5 1_555 1_555
C1_5 H1_5 1_555 1_555
H2_5 C1_5 1_555 1_555
C2_5 O2_5 1_555 1_555
C3_8 C4_8 1_555 1_555
C4_8 H3_8 1_555 1_555
C5_8 C4_8 1_555 1_555
H4_8 C5_8 1_555 1_555
C6_8 C5_8 1_555 1_555
C9_8 O3_5 1_555 1_555
O6_5 Tb4_3 1_555 1_555
O7_4 C11_5 1_555 1_555
C10_5 O1_12 1_555 1_555
H7_5 C10_5 1_555 1_555
H8_5 C10_5 1_555 1_555
C11_5 O6_5 1_555 1_555
H11_8 C16_8 1_555 1_555
H12_8 C17_8 1_555 1_555
Tb4 O7_4 1_555 1_555
O4_5 C9_8 1_555 1_555
C1_5 C2_5 1_555 1_555
C3_8 C9_8 1_555 1_555
C10_5 C11_5 1_555 1_555
C16_8 C17_8 1_555 1_555
H5_8 C7_8 1_555 1_555
H6_8 C8_8 1_555 1_555
O8_8 C18_8 1_555 1_555
O9_8 C18_8 1_555 1_555
C12_8 C13_8 1_555 1_555
C13_8 H9_8 1_555 1_555
C14_8 C13_8 1_555 1_555
H10_8 C14_8 1_555 1_555
C18_8 C12_8 1_555 1_555
Tb4_6 O8_8 1_555 1_555
C7_8 C8_8 1_555 1_555
O9_8 Tb4_6 1_555 1_555
C14_8 C15_8 1_555 1_555
O1_13 C1_6 1_555 1_555
O12_4 C2_6 1_555 1_555
C1_6 H1_6 1_555 1_555
H2_6 C1_6 1_555 1_555
C2_6 O2_6 1_555 1_555
C10_6 O1_13 1_555 1_555
H7_6 C10_6 1_555 1_555
H8_6 C10_6 1_555 1_555
C1_6 C2_6 1_555 1_555
O3_6 Tb4 1_555 1_555
O4_6 Tb4 1_555 1_555
C3_9 C4_9 1_555 1_555
C4_9 H3_9 1_555 1_555
C5_9 C4_9 1_555 1_555
H4_9 C5_9 1_555 1_555
C6_9 C5_9 1_555 1_555
C7_9 C6_9 1_555 1_555
H5_9 C7_9 1_555 1_555
C8_9 C3_9 1_555 1_555
H6_9 C8_9 1_555 1_555
C9_9 O3_6 1_555 1_555
O6_6 Tb4 1_555 1_555
O13_2 C11_6 1_555 1_555
C11_6 O6_6 1_555 1_555
O8_9 C18_9 1_555 1_555
O9_9 C18_9 1_555 1_555
C12_9 C13_9 1_555 1_555
C13_9 H9_9 1_555 1_555
C14_9 C13_9 1_555 1_555
H10_9 C14_9 1_555 1_555
C15_9 C6_9 1_555 1_555
C16_9 C15_9 1_555 1_555
H11_9 C16_9 1_555 1_555
C17_9 C12_9 1_555 1_555
H12_9 C17_9 1_555 1_555
C18_9 C12_9 1_555 1_555
Tb4_4 O8_9 1_555 1_555
O4_6 C9_9 1_555 1_555
C3_9 C9_9 1_555 1_555
C7_9 C8_9 1_555 1_555
O9_9 Tb4_4 1_555 1_555
C14_9 C15_9 1_555 1_555
C16_9 C17_9 1_555 1_555
O2_7 Tb4_6 1_555 1_555
O5_3 C2_7 1_555 1_555
C2_7 O2_7 1_555 1_555
Tb4_5 O5_3 1_555 1_555
O12_5 Tb4_6 1_555 1_555
O1_14 C1_7 1_555 1_555
C1_7 H1_7 1_555 1_555
H2_7 C1_7 1_555 1_555
O7_5 C11_7 1_555 1_555
C10_7 O1_14 1_555 1_555
H7_7 C10_7 1_555 1_555
H8_7 C10_7 1_555 1_555
C11_7 O6_7 1_555 1_555
Tb4_4 O7_5 1_555 1_555
C10_7 C11_7 1_555 1_555
O1_15 C1_8 1_555 1_555
C1_8 H1_8 1_555 1_555
H2_8 C1_8 1_555 1_555
O7_6 C11_8 1_555 1_555
C10_8 O1_15 1_555 1_555
H7_8 C10_8 1_555 1_555
H8_8 C10_8 1_555 1_555
C11_8 O6_8 1_555 1_555
C10_8 C11_8 1_555 1_555
O2_8 Tb4_4 1_555 1_555
O12_5 C2_8 1_555 1_555
C2_8 O2_8 1_555 1_555
O12_6 Tb4_4 1_555 1_555
Tb4_5 O1_16 1_555 1_555
O1_16 C1_9 1_555 1_555
O2_9 Tb4_5 1_555 1_555
O12_6 C2_9 1_555 1_555
C1_9 H1_9 1_555 1_555
H2_9 C1_9 1_555 1_555
C2_9 O2_9 1_555 1_555
O6_9 Tb4_5 1_555 1_555
O13_3 C11_9 1_555 1_555
C10_9 O1_16 1_555 1_555
H7_9 C10_9 1_555 1_555
H8_9 C10_9 1_555 1_555
C11_9 O6_9 1_555 1_555
C1_9 C2_9 1_555 1_555
C10_9 C11_9 1_555 1_555

#END
