
###############################################################################
#
# This file contains modified crystal structure data generated from the
# MOF subset of the Cambridge Structural Database (CSD) v543 
# hosted by the Cambridge Crystallographic Data Centre (CCDC).
#
# This work is licensed under the Creative Commons
# Attribution-NonCommercial-ShareAlike 4.0 International License.
# To view a copy of this license, visit
# http://creativecommons.org/licenses/by-nc-sa/4.0/
# or send a letter to
# Creative Commons, PO Box 1866, Mountain View, CA 94042, USA.
#
# CIF created using the CSD Python API on 29 September 2022
# The structure has been converted into the P1 space group
# The structure has a 3D framework
# The original CSD entry BASSOF is in the orthorhombic crystal system
# The framework has been calculated to contain at least 10.0% void space
# The void calculation uses a probe of radius 1.32A, grid spacing 0.4
#
###############################################################################

data_BASSOF
_chemical_formula_moiety         '(C144 H64 Ag4 Dy8 N32 O60)n'
_symmetry_cell_setting           triclinic
_symmetry_space_group_name_H-M   'P 1'
_symmetry_Int_Tables_number      1
_space_group_name_Hall           'P 1'
loop_
_symmetry_equiv_pos_site_id
_symmetry_equiv_pos_as_xyz
1 x,y,z
_cell_length_a                   25.326(5)
_cell_length_b                   8.4517(17)
_cell_length_c                   17.748(4)
_cell_angle_alpha                90
_cell_angle_beta                 90
_cell_angle_gamma                90
_cell_volume                     3798.92
loop_
_atom_site_label
_atom_site_type_symbol
_atom_site_fract_x
_atom_site_fract_y
_atom_site_fract_z
Ag2 Ag 0.227323(11) 0.03797(3) 0.050029(16)
O16 O 0.41927(10) 0.0421(3) 0.30714(14)
O20 O 0.53026(9) 0.0878(3) 0.28892(12)
N8 N 0.15979(12) 0.1835(3) 0.06603(16)
Dy1 Dy 0.523842(6) 0.334562(18) 0.217695(9)
Ag1 Ag 0.772677(11) 0.53797(3) 0.449971(16)
O1 O 0.52428(9) 0.1353(3) 0.12883(14)
O5 O 0.61050(10) 0.2502(3) 0.21445(12)
O6 O 0.66074(11) 0.0399(3) 0.23494(15)
N3 N 0.70785(12) 0.4023(4) 0.48946(16)
N4 N 0.64623(13) 0.3060(3) 0.56505(16)
H2 H 0.6290 0.2871 0.6058
C10 C 0.63437(15) 0.1507(4) 0.2579(2)
C11 C 0.63226(14) 0.1884(4) 0.3410(2)
C12 C 0.67430(14) 0.2746(4) 0.37065(19)
H6 H 0.7019 0.3083 0.3400
C13 C 0.67396(14) 0.3087(4) 0.4471(2)
C14 C 0.68887(14) 0.3948(4) 0.5591(2)
H7 H 0.7042 0.4470 0.5997
C15 C 0.63430(14) 0.2494(4) 0.4948(2)
C16 C 0.59208(15) 0.1593(4) 0.4657(2)
H8 H 0.5658 0.1195 0.4971
C17 C 0.59110(14) 0.1323(4) 0.3886(2)
C18 C 0.54570(14) 0.0478(4) 0.3552(2)
Dy2 Dy 0.476158(6) 0.834562(18) 0.282305(9)
Ag4 Ag 0.272677(11) 0.03797(3) 0.550029(16)
O9 O 0.47572(9) 0.6353(3) 0.37117(14)
O10 O 0.52186(9) 0.4225(3) 0.33891(13)
O11 O 0.47814(9) 0.9225(3) 0.16109(13)
O12 O 0.44061(10) 0.2774(3) 0.25981(13)
O13 O 0.55939(10) 0.7774(3) 0.24019(13)
O15 O 0.58073(10) 0.5421(3) 0.19286(14)
O17 O 0.38950(10) 0.7502(3) 0.28555(12)
O18 O 0.33926(11) 0.5399(3) 0.26506(15)
O19 O 0.46974(9) 0.5878(3) 0.21108(12)
O21 O 0.47635(10) 0.4365(3) 0.11143(14)
O22 O 0.52365(10) 0.9365(3) 0.38857(14)
N5 N 0.39066(12) 0.3746(3) 0.61113(16)
H9 H 0.4040 0.4410 0.6425
N6 N 0.34021(12) 0.1835(3) 0.56603(16)
N7 N 0.84021(12) 0.6835(3) 0.43397(16)
N9 N 0.29215(12) 0.9023(4) 0.01054(16)
C19 C 0.48246(14) 0.4897(4) 0.37069(19)
C20 C 0.44443(14) 0.3943(4) 0.41661(19)
C21 C 0.43753(14) 0.4464(4) 0.49017(18)
H11 H 0.4551 0.5356 0.5079
C22 C 0.40364(15) 0.3612(4) 0.5363(2)
C23 C 0.35368(14) 0.2666(4) 0.6268(2)
H12 H 0.3391 0.2514 0.6744
C24 C 0.37280(14) 0.2379(4) 0.5085(2)
C25 C 0.38033(15) 0.1829(4) 0.4360(2)
H13 H 0.3611 0.0973 0.4178
C26 C 0.41723(14) 0.2583(4) 0.39108(19)
C27 C 0.42622(13) 0.1902(4) 0.3135(2)
C28 C 0.36563(15) 0.6507(4) 0.2421(2)
C29 C 0.36774(14) 0.6884(4) 0.1590(2)
C30 C 0.32570(14) 0.7746(4) 0.12935(19)
H14 H 0.2981 0.8083 0.1600
C31 C 0.32604(14) 0.8087(4) 0.0529(2)
C33 C 0.36570(14) 0.7494(4) 0.0052(2)
C34 C 0.40792(15) 0.6593(4) 0.0343(2)
H16 H 0.4342 0.6195 0.0029
C35 C 0.40890(14) 0.6323(4) 0.1114(2)
C36 C 0.45430(14) 0.5478(4) 0.1448(2)
H3 H 0.5449 0.0356 0.9921
N10 N 0.35377(13) 0.8060(3) 0.93495(16)
H10 H 0.3710 0.7871 0.8942
C32 C 0.31113(14) 0.8948(4) 0.9409(2)
H15 H 0.2958 0.9470 0.9003
C1 C 0.51754(14) 0.9897(4) 0.12931(19)
C2 C 0.55557(14) 0.8943(4) 0.08339(19)
C3 C 0.56247(14) 0.9464(4) 0.00983(18)
C7 C 0.61967(15) 0.6829(4) 0.0640(2)
H5 H 0.6389 0.5973 0.0822
C8 C 0.58277(14) 0.7583(4) 0.10892(19)
C9 C 0.57378(13) 0.6902(4) 0.1865(2)
N1 N 0.60934(12) 0.8746(3) 0.88887(16)
H1 H 0.5960 0.9410 0.8575
N2 N 0.65979(12) 0.6835(3) 0.93397(16)
C4 C 0.59636(15) 0.8612(4) 0.9637(2)
C5 C 0.64632(14) 0.7666(4) 0.8732(2)
H4 H 0.6609 0.7514 0.8256
C6 C 0.62720(14) 0.7379(4) 0.9915(2)
Ag3 Ag 0.727323(11) 0.53797(3) 0.949971(16)
O13_2 O 0.05939(10) 0.2774(3) 0.75981(13)
O15_2 O 0.08073(10) 0.0421(3) 0.80714(14)
O20_2 O 0.03026(9) 0.5878(3) 0.71108(12)
O22_2 O 0.02365(10) 0.4365(3) 0.61143(14)
N1_2 N 0.10934(12) 0.3746(3) 0.11113(16)
H1_2 H 0.0960 0.4410 0.1425
H3_2 H 0.0449 0.5356 0.0079
C4_2 C 0.09636(15) 0.3612(4) 0.0363(2)
C5_2 C 0.14632(14) 0.2666(4) 0.1268(2)
H4_2 H 0.1609 0.2514 0.1744
C6_2 C 0.12720(14) 0.2379(4) 0.0085(2)
Dy1_2 Dy 0.023842(6) 0.834562(18) 0.782305(9)
O1_2 O 0.02428(9) 0.6353(3) 0.87117(14)
O5_2 O 0.11050(10) 0.7502(3) 0.78555(12)
O6_2 O 0.16074(11) 0.5399(3) 0.76506(15)
N3_2 N 0.20785(12) 0.9023(4) 0.51054(16)
N4_2 N 0.14623(13) 0.8060(3) 0.43495(16)
H2_2 H 0.1290 0.7871 0.3942
C1_2 C 0.01754(14) 0.4897(4) 0.87069(19)
C2_2 C 0.05557(14) 0.3943(4) 0.91661(19)
C3_2 C 0.06247(14) 0.4464(4) 0.99017(18)
C7_2 C 0.11967(15) 0.1829(4) 0.9360(2)
H5_2 H 0.1389 0.0973 0.9178
C8_2 C 0.08277(14) 0.2583(4) 0.89108(19)
C9_2 C 0.07378(13) 0.1902(4) 0.8135(2)
C10_2 C 0.13437(15) 0.6507(4) 0.7421(2)
C11_2 C 0.13226(14) 0.6884(4) 0.6590(2)
C12_2 C 0.17430(14) 0.7746(4) 0.62935(19)
H6_2 H 0.2019 0.8083 0.6600
C13_2 C 0.17396(14) 0.8087(4) 0.5529(2)
C14_2 C 0.18887(14) 0.8948(4) 0.4409(2)
H7_2 H 0.2042 0.9470 0.4003
C15_2 C 0.13430(14) 0.7494(4) 0.5052(2)
C16_2 C 0.09208(15) 0.6593(4) 0.5343(2)
H8_2 H 0.0658 0.6195 0.5029
C17_2 C 0.09110(14) 0.6323(4) 0.6114(2)
C18_2 C 0.04570(14) 0.5478(4) 0.6448(2)
O10_2 O 0.02186(9) 0.9225(3) 0.66109(13)
Dy2_2 Dy 0.976158(6) 0.334562(18) 0.717695(9)
O9_2 O 0.97572(9) 0.1353(3) 0.62883(14)
O11_2 O 0.97814(9) 0.4225(3) 0.83891(13)
O16_2 O 0.91927(10) 0.5421(3) 0.69286(14)
O17_2 O 0.88950(10) 0.2502(3) 0.71445(12)
O18_2 O 0.83926(11) 0.0399(3) 0.73494(15)
O19_2 O 0.96974(9) 0.0878(3) 0.78892(12)
N9_2 N 0.79215(12) 0.4023(4) 0.98946(16)
H11_2 H 0.9551 0.0356 0.4921
C28_2 C 0.86563(15) 0.1507(4) 0.7579(2)
C29_2 C 0.86774(14) 0.1884(4) 0.8410(2)
C30_2 C 0.82570(14) 0.2746(4) 0.87065(19)
H14_2 H 0.7981 0.3083 0.8400
C31_2 C 0.82604(14) 0.3087(4) 0.9471(2)
C33_2 C 0.86570(14) 0.2494(4) 0.9948(2)
C34_2 C 0.90792(15) 0.1593(4) 0.9657(2)
H16_2 H 0.9342 0.1195 0.9971
C35_2 C 0.90890(14) 0.1323(4) 0.8886(2)
C36_2 C 0.95430(14) 0.0478(4) 0.8552(2)
O12_2 O 0.94061(10) 0.7774(3) 0.74019(13)
O21_2 O 0.97635(10) 0.9365(3) 0.88857(14)
N5_2 N 0.89066(12) 0.8746(3) 0.38887(16)
H9_2 H 0.9040 0.9410 0.3575
C19_2 C 0.98246(14) 0.9897(4) 0.62931(19)
C20_2 C 0.94443(14) 0.8943(4) 0.58339(19)
C21_2 C 0.93753(14) 0.9464(4) 0.50983(18)
C22_2 C 0.90364(15) 0.8612(4) 0.4637(2)
C23_2 C 0.85368(14) 0.7666(4) 0.3732(2)
H12_2 H 0.8391 0.7514 0.3256
C24_2 C 0.87280(14) 0.7379(4) 0.4915(2)
C25_2 C 0.88033(15) 0.6829(4) 0.5640(2)
H13_2 H 0.8611 0.5973 0.5822
C26_2 C 0.91723(14) 0.7583(4) 0.60892(19)
C27_2 C 0.92622(13) 0.6902(4) 0.6865(2)
O2 O 0.02186(9) 0.5775(3) 0.16109(13)
Dy3 Dy 0.023842(6) 0.665438(18) 0.282305(9)
Ag4_2 Ag 0.227323(11) 0.46203(3) 0.550029(16)
O12_3 O 0.05939(10) 0.2226(3) 0.25981(13)
O14 O 0.08073(10) 0.4579(3) 0.30714(14)
O21_3 O 0.02365(10) 0.0635(3) 0.11143(14)
N5_3 N 0.10934(12) 0.1254(3) 0.61113(16)
H9_3 H 0.0960 0.0590 0.6425
N6_2 N 0.15979(12) 0.3165(3) 0.56603(16)
C19_3 C 0.01754(14) 0.0103(4) 0.37069(19)
C20_3 C 0.05557(14) 0.1057(4) 0.41661(19)
C21_3 C 0.06247(14) 0.0536(4) 0.49017(18)
C22_3 C 0.09636(15) 0.1388(4) 0.5363(2)
C23_3 C 0.14632(14) 0.2334(4) 0.6268(2)
H12_3 H 0.1609 0.2486 0.6744
C24_3 C 0.12720(14) 0.2621(4) 0.5085(2)
C25_3 C 0.11967(15) 0.3171(4) 0.4360(2)
H13_3 H 0.1389 0.4027 0.4178
C26_3 C 0.08277(14) 0.2417(4) 0.39108(19)
C27_3 C 0.07378(13) 0.3098(4) 0.3135(2)
Ag2_2 Ag 0.272677(11) 0.46203(3) 0.050029(16)
O9_3 O 0.02428(9) 0.8647(3) 0.37117(14)
O17_3 O 0.11050(10) 0.7498(3) 0.28555(12)
O18_3 O 0.16074(11) 0.9601(3) 0.26506(15)
O19_3 O 0.03026(9) 0.9122(3) 0.21108(12)
N8_2 N 0.34021(12) 0.3165(3) 0.06603(16)
N9_3 N 0.20785(12) 0.5977(4) 0.01054(16)
H11_3 H 0.0449 0.9644 0.5079
C28_3 C 0.13437(15) 0.8493(4) 0.2421(2)
C29_3 C 0.13226(14) 0.8116(4) 0.1590(2)
C30_3 C 0.17430(14) 0.7254(4) 0.12935(19)
H14_3 H 0.2019 0.6917 0.1600
C31_3 C 0.17396(14) 0.6913(4) 0.0529(2)
C33_3 C 0.13430(14) 0.7506(4) 0.0052(2)
C34_3 C 0.09208(15) 0.8407(4) 0.0343(2)
H16_3 H 0.0658 0.8805 0.0029
C35_3 C 0.09110(14) 0.8677(4) 0.1114(2)
C36_3 C 0.04570(14) 0.9522(4) 0.1448(2)
Dy4 Dy 0.976158(6) 0.165438(18) 0.217695(9)
O1_3 O 0.97572(9) 0.3647(3) 0.12883(14)
O3 O 0.94061(10) 0.7226(3) 0.24019(13)
O4 O 0.91927(10) 0.9579(3) 0.19286(14)
O5_3 O 0.88950(10) 0.2498(3) 0.21445(12)
O6_3 O 0.83926(11) 0.4601(3) 0.23494(15)
O7 O 0.96974(9) 0.4122(3) 0.28892(12)
O8 O 0.97635(10) 0.5635(3) 0.38857(14)
N3_3 N 0.79215(12) 0.0977(4) 0.48946(16)
N4_3 N 0.85377(13) 0.1940(3) 0.56505(16)
H2_3 H 0.8710 0.2129 0.6058
C1_3 C 0.98246(14) 0.5103(4) 0.12931(19)
C2_3 C 0.94443(14) 0.6057(4) 0.08339(19)
C3_3 C 0.93753(14) 0.5536(4) 0.00983(18)
C7_3 C 0.88033(15) 0.8171(4) 0.0640(2)
H5_3 H 0.8611 0.9027 0.0822
C8_3 C 0.91723(14) 0.7417(4) 0.10892(19)
C9_3 C 0.92622(13) 0.8098(4) 0.1865(2)
C10_3 C 0.86563(15) 0.3493(4) 0.2579(2)
C11_3 C 0.86774(14) 0.3116(4) 0.3410(2)
C12_3 C 0.82570(14) 0.2254(4) 0.37065(19)
H6_3 H 0.7981 0.1917 0.3400
C13_3 C 0.82604(14) 0.1913(4) 0.4471(2)
C14_3 C 0.81113(14) 0.1052(4) 0.5591(2)
H7_3 H 0.7958 0.0530 0.5997
C15_3 C 0.86570(14) 0.2506(4) 0.4948(2)
C16_3 C 0.90792(15) 0.3407(4) 0.4657(2)
H8_3 H 0.9342 0.3805 0.4971
C17_3 C 0.90890(14) 0.3677(4) 0.3886(2)
C18_3 C 0.95430(14) 0.4522(4) 0.3552(2)
O10_3 O 0.97814(9) 0.0775(3) 0.33891(13)
N1_3 N 0.89066(12) 0.6254(3) 0.88887(16)
H1_3 H 0.9040 0.5590 0.8575
N2_2 N 0.84021(12) 0.8165(3) 0.93397(16)
H3_3 H 0.9551 0.4644 0.9921
C4_3 C 0.90364(15) 0.6388(4) 0.9637(2)
C5_3 C 0.85368(14) 0.7334(4) 0.8732(2)
H4_3 H 0.8391 0.7486 0.8256
C6_3 C 0.87280(14) 0.7621(4) 0.9915(2)
Ag3_2 Ag 0.772677(11) 0.96203(3) 0.949971(16)
Ag1_2 Ag 0.727323(11) 0.96203(3) 0.449971(16)
N7_2 N 0.65979(12) 0.8165(3) 0.43397(16)
N1_4 N 0.39066(12) 0.1254(3) 0.11113(16)
H1_4 H 0.4040 0.0590 0.1425
C4_4 C 0.40364(15) 0.1388(4) 0.0363(2)
C5_4 C 0.35368(14) 0.2334(4) 0.1268(2)
H4_4 H 0.3391 0.2486 0.1744
C6_4 C 0.37280(14) 0.2621(4) 0.0085(2)
O2_2 O 0.52186(9) 0.0775(3) 0.83891(13)
O3_2 O 0.44061(10) 0.2226(3) 0.75981(13)
O4_2 O 0.41927(10) 0.4579(3) 0.80714(14)
O8_2 O 0.47635(10) 0.0635(3) 0.61143(14)
C1_4 C 0.48246(14) 0.0103(4) 0.87069(19)
C2_4 C 0.44443(14) 0.1057(4) 0.91661(19)
C3_4 C 0.43753(14) 0.0536(4) 0.99017(18)
C7_4 C 0.38033(15) 0.3171(4) 0.9360(2)
H5_4 H 0.3611 0.4027 0.9178
C8_4 C 0.41723(14) 0.2417(4) 0.89108(19)
C9_4 C 0.42622(13) 0.3098(4) 0.8135(2)
Dy3_2 Dy 0.523842(6) 0.165438(18) 0.717695(9)
Dy4_2 Dy 0.476158(6) 0.665438(18) 0.782305(9)
H3_4 H 0.4551 0.9644 0.0079
N10_2 N 0.64623(13) 0.1940(3) 0.06505(16)
H10_2 H 0.6290 0.2129 0.1058
C32_2 C 0.68887(14) 0.1052(4) 0.0591(2)
H15_2 H 0.7042 0.0530 0.0997
O1_4 O 0.47572(9) 0.8647(3) 0.87117(14)
O5_4 O 0.38950(10) 0.7498(3) 0.78555(12)
O6_4 O 0.33926(11) 0.9601(3) 0.76506(15)
O7_2 O 0.46974(9) 0.9122(3) 0.71108(12)
N3_4 N 0.29215(12) 0.5977(4) 0.51054(16)
N4_4 N 0.35377(13) 0.6940(3) 0.43495(16)
H2_4 H 0.3710 0.7129 0.3942
C10_4 C 0.36563(15) 0.8493(4) 0.7421(2)
C11_4 C 0.36774(14) 0.8116(4) 0.6590(2)
C12_4 C 0.32570(14) 0.7254(4) 0.62935(19)
H6_4 H 0.2981 0.6917 0.6600
C13_4 C 0.32604(14) 0.6913(4) 0.5529(2)
C14_4 C 0.31113(14) 0.6052(4) 0.4409(2)
H7_4 H 0.2958 0.5530 0.4003
C15_4 C 0.36570(14) 0.7506(4) 0.5052(2)
C16_4 C 0.40792(15) 0.8407(4) 0.5343(2)
H8_4 H 0.4342 0.8805 0.5029
C17_4 C 0.40890(14) 0.8677(4) 0.6114(2)
C18_4 C 0.45430(14) 0.9522(4) 0.6448(2)
O9_4 O 0.52428(9) 0.3647(3) 0.62883(14)
O10_4 O 0.47814(9) 0.5775(3) 0.66109(13)
O12_4 O 0.55939(10) 0.7226(3) 0.74019(13)
O14_2 O 0.58073(10) 0.9579(3) 0.69286(14)
O17_4 O 0.61050(10) 0.2498(3) 0.71445(12)
O18_4 O 0.66074(11) 0.4601(3) 0.73494(15)
O19_4 O 0.53026(9) 0.4122(3) 0.78892(12)
O21_4 O 0.52365(10) 0.5635(3) 0.88857(14)
N5_4 N 0.60934(12) 0.6254(3) 0.38887(16)
H9_4 H 0.5960 0.5590 0.3575
N9_4 N 0.70785(12) 0.0977(4) 0.98946(16)
C19_4 C 0.51754(14) 0.5103(4) 0.62931(19)
C20_4 C 0.55557(14) 0.6057(4) 0.58339(19)
C21_4 C 0.56247(14) 0.5536(4) 0.50983(18)
H11_4 H 0.5449 0.4644 0.4921
C22_4 C 0.59636(15) 0.6388(4) 0.4637(2)
C23_4 C 0.64632(14) 0.7334(4) 0.3732(2)
H12_4 H 0.6609 0.7486 0.3256
C24_4 C 0.62720(14) 0.7621(4) 0.4915(2)
C25_4 C 0.61967(15) 0.8171(4) 0.5640(2)
H13_4 H 0.6389 0.9027 0.5822
C26_4 C 0.58277(14) 0.7417(4) 0.60892(19)
C27_4 C 0.57378(13) 0.8098(4) 0.6865(2)
C28_4 C 0.63437(15) 0.3493(4) 0.7579(2)
C29_4 C 0.63226(14) 0.3116(4) 0.8410(2)
C30_4 C 0.67430(14) 0.2254(4) 0.87065(19)
H14_4 H 0.7019 0.1917 0.8400
C31_4 C 0.67396(14) 0.1913(4) 0.9471(2)
C33_4 C 0.63430(14) 0.2506(4) 0.9948(2)
C34_4 C 0.59208(15) 0.3407(4) 0.9657(2)
H16_4 H 0.5658 0.3805 0.9971
C35_4 C 0.59110(14) 0.3677(4) 0.8886(2)
C36_4 C 0.54570(14) 0.4522(4) 0.8552(2)
N10_3 N 0.14623(13) 0.6940(3) 0.93495(16)
H10_3 H 0.1290 0.7129 0.8942
C32_3 C 0.18887(14) 0.6052(4) 0.9409(2)
H15_3 H 0.2042 0.5530 0.9003
N10_4 N 0.85377(13) 0.3060(3) 0.06505(16)
H10_4 H 0.8710 0.2871 0.1058
C32_4 C 0.81113(14) 0.3948(4) 0.0591(2)
H15_4 H 0.7958 0.4470 0.0997
loop_
_geom_bond_atom_site_label_1
_geom_bond_atom_site_label_2
_geom_bond_site_symmetry_1
_geom_bond_site_symmetry_2
Ag2 N8 1_555 1_555
Dy1 O1 1_555 1_555
Ag1 N3 1_555 1_555
O5 Dy1 1_555 1_555
O6 C10 1_555 1_555
O20 Dy1 1_555 1_555
N3 C13 1_555 1_555
N4 H2 1_555 1_555
C10 O5 1_555 1_555
C11 C10 1_555 1_555
C12 C11 1_555 1_555
H6 C12 1_555 1_555
C13 C12 1_555 1_555
C14 N3 1_555 1_555
H7 C14 1_555 1_555
C15 N4 1_555 1_555
C16 C15 1_555 1_555
H8 C16 1_555 1_555
C17 C11 1_555 1_555
C18 O20 1_555 1_555
Dy2 O9 1_555 1_555
Ag4 N6 1_555 1_555
O9 C19 1_555 1_555
O10 Dy1 1_555 1_555
O11 Dy2 1_555 1_555
O12 Dy1 1_555 1_555
O13 Dy2 1_555 1_555
O15 Dy1 1_555 1_555
O17 Dy2 1_555 1_555
O18 C28 1_555 1_555
O19 Dy1 1_555 1_555
O21 Dy1 1_555 1_555
O22 Dy2 1_555 1_555
N5 H9 1_555 1_555
N6 C23 1_555 1_555
N7 Ag1 1_555 1_555
C19 O10 1_555 1_555
C20 C19 1_555 1_555
C21 C20 1_555 1_555
H11 C21 1_555 1_555
C22 N5 1_555 1_555
C23 N5 1_555 1_555
H12 C23 1_555 1_555
C24 N6 1_555 1_555
C25 C24 1_555 1_555
H13 C25 1_555 1_555
C26 C20 1_555 1_555
C27 O12 1_555 1_555
C28 O17 1_555 1_555
C29 C28 1_555 1_555
C30 C29 1_555 1_555
H14 C30 1_555 1_555
C31 N9 1_555 1_555
C34 C33 1_555 1_555
H16 C34 1_555 1_555
C35 C29 1_555 1_555
C36 O19 1_555 1_555
N4 C14 1_555 1_555
C13 C15 1_555 1_555
C16 C17 1_555 1_555
C17 C18 1_555 1_555
Dy2 O19 1_555 1_555
O16 C27 1_555 1_555
O21 C36 1_555 1_555
C21 C22 1_555 1_555
C22 C24 1_555 1_555
C25 C26 1_555 1_555
C26 C27 1_555 1_555
C30 C31 1_555 1_555
C31 C33 1_555 1_555
C34 C35 1_555 1_555
C35 C36 1_555 1_555
N10 H10 1_555 1_555
H15 C32 1_555 1_555
N10 C32 1_555 1_555
O11 C1 1_555 1_555
O13 C9 1_555 1_555
O15 C9 1_555 1_555
C1 C2 1_555 1_555
C2 C3 1_555 1_555
H5 C7 1_555 1_555
C8 C2 1_555 1_555
C9 C8 1_555 1_555
C7 C8 1_555 1_555
N1 H1 1_555 1_555
N2 C5 1_555 1_555
C4 N1 1_555 1_555
C5 N1 1_555 1_555
H4 C5 1_555 1_555
C6 N2 1_555 1_555
Ag3 N2 1_555 1_555
C4 C6 1_555 1_555
N1_2 H1_2 1_555 1_555
N8 C5_2 1_555 1_555
C4_2 N1_2 1_555 1_555
C5_2 N1_2 1_555 1_555
H4_2 C5_2 1_555 1_555
C6_2 N8 1_555 1_555
C4_2 C6_2 1_555 1_555
Dy1_2 O1_2 1_555 1_555
O1_2 C1_2 1_555 1_555
O13_2 C9_2 1_555 1_555
O15_2 C9_2 1_555 1_555
O5_2 Dy1_2 1_555 1_555
O6_2 C10_2 1_555 1_555
O20_2 Dy1_2 1_555 1_555
O22_2 C18_2 1_555 1_555
N3_2 C13_2 1_555 1_555
N4_2 H2_2 1_555 1_555
C1_2 C2_2 1_555 1_555
C2_2 C3_2 1_555 1_555
H5_2 C7_2 1_555 1_555
C8_2 C2_2 1_555 1_555
C9_2 C8_2 1_555 1_555
C10_2 O5_2 1_555 1_555
C11_2 C10_2 1_555 1_555
C12_2 C11_2 1_555 1_555
H6_2 C12_2 1_555 1_555
C13_2 C12_2 1_555 1_555
C14_2 N3_2 1_555 1_555
H7_2 C14_2 1_555 1_555
C15_2 N4_2 1_555 1_555
C16_2 C15_2 1_555 1_555
H8_2 C16_2 1_555 1_555
C17_2 C11_2 1_555 1_555
C18_2 O20_2 1_555 1_555
O10_2 Dy1_2 1_555 1_555
N4_2 C14_2 1_555 1_555
C7_2 C8_2 1_555 1_555
C13_2 C15_2 1_555 1_555
C16_2 C17_2 1_555 1_555
C17_2 C18_2 1_555 1_555
Dy2_2 O9_2 1_555 1_555
O11_2 Dy2_2 1_555 1_555
O16_2 Dy2_2 1_555 1_555
O17_2 Dy2_2 1_555 1_555
O18_2 C28_2 1_555 1_555
N9_2 Ag3 1_555 1_555
C28_2 O17_2 1_555 1_555
C29_2 C28_2 1_555 1_555
C30_2 C29_2 1_555 1_555
H14_2 C30_2 1_555 1_555
C31_2 N9_2 1_555 1_555
C34_2 C33_2 1_555 1_555
H16_2 C34_2 1_555 1_555
C35_2 C29_2 1_555 1_555
C36_2 O19_2 1_555 1_555
Dy2_2 O19_2 1_555 1_555
C30_2 C31_2 1_555 1_555
C31_2 C33_2 1_555 1_555
C34_2 C35_2 1_555 1_555
C35_2 C36_2 1_555 1_555
N5_2 H9_2 1_555 1_555
N7 C23_2 1_555 1_555
C20_2 C19_2 1_555 1_555
C21_2 C20_2 1_555 1_555
C22_2 N5_2 1_555 1_555
C23_2 N5_2 1_555 1_555
H12_2 C23_2 1_555 1_555
C24_2 N7 1_555 1_555
C25_2 C24_2 1_555 1_555
H13_2 C25_2 1_555 1_555
C26_2 C20_2 1_555 1_555
C27_2 O12_2 1_555 1_555
O16_2 C27_2 1_555 1_555
C21_2 C22_2 1_555 1_555
C22_2 C24_2 1_555 1_555
C25_2 C26_2 1_555 1_555
C26_2 C27_2 1_555 1_555
Dy3 O2 1_555 1_555
Ag4_2 N6_2 1_555 1_555
O14 Dy3 1_555 1_555
N5_3 H9_3 1_555 1_555
N6_2 C23_3 1_555 1_555
C20_3 C19_3 1_555 1_555
C21_3 C20_3 1_555 1_555
C22_3 N5_3 1_555 1_555
C23_3 N5_3 1_555 1_555
H12_3 C23_3 1_555 1_555
C24_3 N6_2 1_555 1_555
C25_3 C24_3 1_555 1_555
H13_3 C25_3 1_555 1_555
C26_3 C20_3 1_555 1_555
C27_3 O12_3 1_555 1_555
O14 C27_3 1_555 1_555
C21_3 C22_3 1_555 1_555
C22_3 C24_3 1_555 1_555
C25_3 C26_3 1_555 1_555
C26_3 C27_3 1_555 1_555
Dy3 O9_3 1_555 1_555
Ag2_2 N8_2 1_555 1_555
O17_3 Dy3 1_555 1_555
O18_3 C28_3 1_555 1_555
N9_3 Ag2_2 1_555 1_555
C28_3 O17_3 1_555 1_555
C29_3 C28_3 1_555 1_555
C30_3 C29_3 1_555 1_555
H14_3 C30_3 1_555 1_555
C31_3 N9_3 1_555 1_555
C34_3 C33_3 1_555 1_555
H16_3 C34_3 1_555 1_555
C35_3 C29_3 1_555 1_555
C36_3 O19_3 1_555 1_555
Dy3 O19_3 1_555 1_555
C30_3 C31_3 1_555 1_555
C31_3 C33_3 1_555 1_555
C34_3 C35_3 1_555 1_555
C35_3 C36_3 1_555 1_555
Dy4 O1_3 1_555 1_555
O1_3 C1_3 1_555 1_555
O3 C9_3 1_555 1_555
O4 C9_3 1_555 1_555
O5_3 Dy4 1_555 1_555
O6_3 C10_3 1_555 1_555
O7 Dy4 1_555 1_555
O8 C18_3 1_555 1_555
N3_3 C13_3 1_555 1_555
N4_3 H2_3 1_555 1_555
C1_3 C2_3 1_555 1_555
C2_3 C3_3 1_555 1_555
H5_3 C7_3 1_555 1_555
C8_3 C2_3 1_555 1_555
C9_3 C8_3 1_555 1_555
C10_3 O5_3 1_555 1_555
C11_3 C10_3 1_555 1_555
C12_3 C11_3 1_555 1_555
H6_3 C12_3 1_555 1_555
C13_3 C12_3 1_555 1_555
C14_3 N3_3 1_555 1_555
H7_3 C14_3 1_555 1_555
C15_3 N4_3 1_555 1_555
C16_3 C15_3 1_555 1_555
H8_3 C16_3 1_555 1_555
C17_3 C11_3 1_555 1_555
C18_3 O7 1_555 1_555
O10_3 Dy4 1_555 1_555
N4_3 C14_3 1_555 1_555
C7_3 C8_3 1_555 1_555
C13_3 C15_3 1_555 1_555
C16_3 C17_3 1_555 1_555
C17_3 C18_3 1_555 1_555
N1_3 H1_3 1_555 1_555
N2_2 C5_3 1_555 1_555
C4_3 N1_3 1_555 1_555
C5_3 N1_3 1_555 1_555
H4_3 C5_3 1_555 1_555
C6_3 N2_2 1_555 1_555
Ag3_2 N2_2 1_555 1_555
C4_3 C6_3 1_555 1_555
N7_2 Ag1_2 1_555 1_555
N1_4 H1_4 1_555 1_555
N8_2 C5_4 1_555 1_555
C4_4 N1_4 1_555 1_555
C5_4 N1_4 1_555 1_555
H4_4 C5_4 1_555 1_555
C6_4 N8_2 1_555 1_555
C4_4 C6_4 1_555 1_555
O2_2 C1_4 1_555 1_555
O3_2 C9_4 1_555 1_555
O4_2 C9_4 1_555 1_555
C1_4 C2_4 1_555 1_555
C2_4 C3_4 1_555 1_555
H5_4 C7_4 1_555 1_555
C8_4 C2_4 1_555 1_555
C9_4 C8_4 1_555 1_555
Dy3_2 O2_2 1_555 1_555
Dy4_2 O4_2 1_555 1_555
O3_2 Dy3_2 1_555 1_555
O8_2 Dy3_2 1_555 1_555
C7_4 C8_4 1_555 1_555
N10_2 H10_2 1_555 1_555
H15_2 C32_2 1_555 1_555
N10_2 C32_2 1_555 1_555
Dy4_2 O1_4 1_555 1_555
Ag4_2 N3_4 1_555 1_555
O5_4 Dy4_2 1_555 1_555
O6_4 C10_4 1_555 1_555
O7_2 Dy4_2 1_555 1_555
N3_4 C13_4 1_555 1_555
N4_4 H2_4 1_555 1_555
C10_4 O5_4 1_555 1_555
C11_4 C10_4 1_555 1_555
C12_4 C11_4 1_555 1_555
H6_4 C12_4 1_555 1_555
C13_4 C12_4 1_555 1_555
C14_4 N3_4 1_555 1_555
H7_4 C14_4 1_555 1_555
C15_4 N4_4 1_555 1_555
C16_4 C15_4 1_555 1_555
H8_4 C16_4 1_555 1_555
C17_4 C11_4 1_555 1_555
C18_4 O7_2 1_555 1_555
Dy3_2 O9_4 1_555 1_555
O9_4 C19_4 1_555 1_555
O10_4 Dy4_2 1_555 1_555
O12_4 Dy4_2 1_555 1_555
O17_4 Dy3_2 1_555 1_555
O18_4 C28_4 1_555 1_555
O19_4 Dy4_2 1_555 1_555
O21_4 Dy4_2 1_555 1_555
N5_4 H9_4 1_555 1_555
N7_2 C23_4 1_555 1_555
C19_4 O10_4 1_555 1_555
C20_4 C19_4 1_555 1_555
C21_4 C20_4 1_555 1_555
H11_4 C21_4 1_555 1_555
C22_4 N5_4 1_555 1_555
C23_4 N5_4 1_555 1_555
H12_4 C23_4 1_555 1_555
C24_4 N7_2 1_555 1_555
C25_4 C24_4 1_555 1_555
H13_4 C25_4 1_555 1_555
C26_4 C20_4 1_555 1_555
C27_4 O12_4 1_555 1_555
C28_4 O17_4 1_555 1_555
C29_4 C28_4 1_555 1_555
C30_4 C29_4 1_555 1_555
H14_4 C30_4 1_555 1_555
C31_4 N9_4 1_555 1_555
C34_4 C33_4 1_555 1_555
H16_4 C34_4 1_555 1_555
C35_4 C29_4 1_555 1_555
C36_4 O19_4 1_555 1_555
N4_4 C14_4 1_555 1_555
C13_4 C15_4 1_555 1_555
C16_4 C17_4 1_555 1_555
C17_4 C18_4 1_555 1_555
Dy3_2 O19_4 1_555 1_555
O14_2 C27_4 1_555 1_555
O21_4 C36_4 1_555 1_555
C21_4 C22_4 1_555 1_555
C22_4 C24_4 1_555 1_555
C25_4 C26_4 1_555 1_555
C26_4 C27_4 1_555 1_555
C30_4 C31_4 1_555 1_555
C31_4 C33_4 1_555 1_555
C34_4 C35_4 1_555 1_555
C35_4 C36_4 1_555 1_555
N10_3 H10_3 1_555 1_555
H15_3 C32_3 1_555 1_555
N10_3 C32_3 1_555 1_555
N10_4 H10_4 1_555 1_555
H15_4 C32_4 1_555 1_555
N10_4 C32_4 1_555 1_555

#END
