
###############################################################################
#
# This file contains modified crystal structure data generated from the
# MOF subset of the Cambridge Structural Database (CSD) v543 
# hosted by the Cambridge Crystallographic Data Centre (CCDC).
#
# This work is licensed under the Creative Commons
# Attribution-NonCommercial-ShareAlike 4.0 International License.
# To view a copy of this license, visit
# http://creativecommons.org/licenses/by-nc-sa/4.0/
# or send a letter to
# Creative Commons, PO Box 1866, Mountain View, CA 94042, USA.
#
# CIF created using the CSD Python API on 29 September 2022
# The structure has been converted into the P1 space group
# The structure has a 3D framework
# The original CSD entry BASTUM is in the orthorhombic crystal system
# The framework has been calculated to contain at least 10.0% void space
# The void calculation uses a probe of radius 1.32A, grid spacing 0.4
#
###############################################################################

data_BASTUM
_chemical_formula_moiety         '(C144 H64 Ag4 Ho8 N32 O60)n'
_symmetry_cell_setting           triclinic
_symmetry_space_group_name_H-M   'P 1'
_symmetry_Int_Tables_number      1
_space_group_name_Hall           'P 1'
loop_
_symmetry_equiv_pos_site_id
_symmetry_equiv_pos_as_xyz
1 x,y,z
_cell_length_a                   25.370(5)
_cell_length_b                   8.4884(17)
_cell_length_c                   17.806(4)
_cell_angle_alpha                90
_cell_angle_beta                 90
_cell_angle_gamma                90
_cell_volume                     3834.53
loop_
_atom_site_label
_atom_site_type_symbol
_atom_site_fract_x
_atom_site_fract_y
_atom_site_fract_z
Ag1 Ag 0.272690(13) 0.53837(5) 0.04826(2)
O2 O 0.02401(11) 0.1361(3) 0.37118(16)
O6 O 0.03099(10) 0.0881(3) 0.21145(14)
O7 O 0.11021(11) 0.2522(4) 0.28540(14)
O8 O 0.16337(15) 0.0503(5) 0.26565(19)
N3 N 0.20822(13) 0.4005(5) 0.00945(19)
H3 H 0.0451 0.0353 0.5074
C10 C 0.04665(16) 0.0480(5) 0.1460(2)
C11 C 0.09230(15) 0.1340(5) 0.1121(2)
C12 C 0.09316(16) 0.1583(5) 0.0344(2)
H6 H 0.0671 0.1172 0.0033
C13 C 0.13486(15) 0.2469(5) 0.0057(2)
C15 C 0.17414(16) 0.3086(5) 0.0524(2)
C16 C 0.17455(16) 0.2766(5) 0.1291(2)
H8 H 0.2019 0.3121 0.1595
C17 C 0.13330(16) 0.1910(5) 0.1591(2)
C18 C 0.13527(16) 0.1573(5) 0.2422(2)
Ho3 Ho 0.023360(7) 0.33426(2) 0.282490(9)
O10 O 0.02106(10) 0.4221(3) 0.16116(15)
O16 O 0.07975(12) 0.5422(3) 0.30828(18)
N7 N 0.33955(14) 0.6854(4) 0.06548(19)
O3 O 0.05985(10) 0.7756(3) 0.25989(15)
O5 O 0.02522(11) 0.9354(4) 0.11239(16)
N1 N 0.10972(13) 0.8749(4) 0.61071(18)
H1 H 0.0963 0.9402 0.6423
N2 N 0.16045(14) 0.6854(4) 0.56548(19)
C1 C 0.01728(15) 0.9898(5) 0.3707(2)
C2 C 0.05565(15) 0.8946(5) 0.4168(2)
C3 C 0.06259(15) 0.9465(5) 0.4897(2)
C4 C 0.09666(16) 0.8617(5) 0.5358(2)
C5 C 0.14719(16) 0.7677(5) 0.6256(2)
H4 H 0.1621 0.7531 0.6728
C6 C 0.12750(15) 0.7393(5) 0.5079(2)
C7 C 0.12001(17) 0.6843(5) 0.4355(2)
H5 H 0.1393 0.5989 0.4176
C8 C 0.08310(15) 0.7589(5) 0.3900(2)
C9 C 0.07337(15) 0.6892(5) 0.3141(2)
Ag3 Ag 0.227310(13) 0.53837(5) 0.54826(2)
Ag4 Ag 0.727310(13) 0.03837(5) 0.45174(2)
O13 O 0.94015(10) 0.2756(3) 0.24011(15)
O15 O 0.92025(12) 0.0422(3) 0.19172(18)
O18 O 0.97478(11) 0.4354(4) 0.38761(16)
O20 O 0.96901(10) 0.5881(3) 0.28855(14)
N8 N 0.66045(14) 0.1854(4) 0.43452(19)
Ho1 Ho 0.976640(7) 0.83426(2) 0.217510(9)
O1 O 0.97894(10) 0.9221(3) 0.33884(15)
O11 O 0.97599(11) 0.6361(3) 0.12882(16)
O21 O 0.88979(11) 0.7522(4) 0.21460(14)
O22 O 0.83663(15) 0.5503(5) 0.23435(19)
N9 N 0.79178(13) 0.9005(5) 0.49055(19)
N10 N 0.85255(14) 0.8008(4) 0.56521(19)
H10 H 0.8693 0.7792 0.6059
C19 C 0.98272(15) 0.4898(5) 0.1293(2)
C20 C 0.94435(15) 0.3946(5) 0.0832(2)
C21 C 0.93741(15) 0.4465(5) 0.0103(2)
C25 C 0.87999(17) 0.1843(5) 0.0645(2)
H13 H 0.8607 0.0989 0.0824
C26 C 0.91690(15) 0.2589(5) 0.1100(2)
C27 C 0.92663(15) 0.1892(5) 0.1859(2)
C28 C 0.95335(16) 0.5480(5) 0.3540(2)
C29 C 0.90770(15) 0.6340(5) 0.3879(2)
C30 C 0.90684(16) 0.6583(5) 0.4656(2)
H14 H 0.9329 0.6172 0.4967
C31 C 0.86514(15) 0.7469(5) 0.4943(2)
C32 C 0.81011(17) 0.8917(6) 0.5598(2)
H15 H 0.7949 0.9435 0.6004
C33 C 0.82586(16) 0.8086(5) 0.4476(2)
C34 C 0.82545(16) 0.7766(5) 0.3709(2)
H16 H 0.7981 0.8121 0.3405
C35 C 0.86670(16) 0.6910(5) 0.3409(2)
C36 C 0.86473(16) 0.6573(5) 0.2578(2)
Ag2 Ag 0.772690(13) 0.03837(5) 0.95174(2)
N5 N 0.89028(13) 0.3749(4) 0.88929(18)
H9 H 0.9037 0.4402 0.8577
N6 N 0.83955(14) 0.1854(4) 0.93452(19)
H11 H 0.9549 0.5353 0.9926
C22 C 0.90334(16) 0.3617(5) 0.9642(2)
C23 C 0.85281(16) 0.2677(5) 0.8744(2)
H12 H 0.8379 0.2531 0.8272
C24 C 0.87250(15) 0.2393(5) 0.9921(2)
O16_2 O 0.57975(12) 0.0422(3) 0.69172(18)
O20_2 O 0.46901(10) 0.0881(3) 0.71145(14)
N4 N 0.64745(14) 0.8008(4) 0.06521(19)
H2 H 0.6307 0.7792 0.1059
C14 C 0.68989(17) 0.8917(6) 0.0598(2)
H7 H 0.7051 0.9435 0.1004
H11_2 H 0.4549 0.0353 0.0074
Ho1_2 Ho 0.476640(7) 0.33426(2) 0.782490(9)
O1_2 O 0.47894(10) 0.4221(3) 0.66116(15)
O2_2 O 0.52401(11) 0.6361(3) 0.62882(16)
O3_2 O 0.55985(10) 0.2756(3) 0.74011(15)
O5_2 O 0.52522(11) 0.4354(4) 0.88761(16)
O6_2 O 0.53099(10) 0.5881(3) 0.78855(14)
O7_2 O 0.61021(11) 0.7522(4) 0.71460(14)
O8_2 O 0.66337(15) 0.5503(5) 0.73435(19)
N1_2 N 0.60972(13) 0.3749(4) 0.38929(18)
H1_2 H 0.5963 0.4402 0.3577
N3_2 N 0.70822(13) 0.9005(5) 0.99055(19)
C1_2 C 0.51728(15) 0.4898(5) 0.6293(2)
C2_2 C 0.55565(15) 0.3946(5) 0.5832(2)
C3_2 C 0.56259(15) 0.4465(5) 0.5103(2)
H3_2 H 0.5451 0.5353 0.4926
C4_2 C 0.59666(16) 0.3617(5) 0.4642(2)
C5_2 C 0.64719(16) 0.2677(5) 0.3744(2)
H4_2 H 0.6621 0.2531 0.3272
C6_2 C 0.62750(15) 0.2393(5) 0.4921(2)
C7_2 C 0.62001(17) 0.1843(5) 0.5645(2)
H5_2 H 0.6393 0.0989 0.5824
C8_2 C 0.58310(15) 0.2589(5) 0.6100(2)
C9_2 C 0.57337(15) 0.1892(5) 0.6859(2)
C10_2 C 0.54665(16) 0.5480(5) 0.8540(2)
C11_2 C 0.59230(15) 0.6340(5) 0.8879(2)
C12_2 C 0.59316(16) 0.6583(5) 0.9656(2)
H6_2 H 0.5671 0.6172 0.9967
C13_2 C 0.63486(15) 0.7469(5) 0.9943(2)
C15_2 C 0.67414(16) 0.8086(5) 0.9476(2)
C16_2 C 0.67455(16) 0.7766(5) 0.8709(2)
H8_2 H 0.7019 0.8121 0.8405
C17_2 C 0.63330(16) 0.6910(5) 0.8409(2)
C18_2 C 0.63527(16) 0.6573(5) 0.7578(2)
Ho3_2 Ho 0.523360(7) 0.83426(2) 0.717510(9)
O10_2 O 0.52106(10) 0.9221(3) 0.83884(15)
O11_2 O 0.47599(11) 0.1361(3) 0.87118(16)
O13_2 O 0.44015(10) 0.7756(3) 0.75989(15)
O15_2 O 0.42025(12) 0.5422(3) 0.80828(18)
O18_2 O 0.47478(11) 0.9354(4) 0.61239(16)
O21_2 O 0.38979(11) 0.2522(4) 0.78540(14)
O22_2 O 0.33663(15) 0.0503(5) 0.76565(19)
N9_2 N 0.29178(13) 0.4005(5) 0.50945(19)
N10_2 N 0.35255(14) 0.3008(4) 0.43479(19)
H10_2 H 0.3693 0.2792 0.3941
C28_2 C 0.45335(16) 0.0480(5) 0.6460(2)
C29_2 C 0.40770(15) 0.1340(5) 0.6121(2)
C30_2 C 0.40684(16) 0.1583(5) 0.5344(2)
H14_2 H 0.4329 0.1172 0.5033
C31_2 C 0.36514(15) 0.2469(5) 0.5057(2)
C32_2 C 0.31011(17) 0.3917(6) 0.4402(2)
H15_2 H 0.2949 0.4435 0.3996
C33_2 C 0.32586(16) 0.3086(5) 0.5524(2)
C34_2 C 0.32545(16) 0.2766(5) 0.6291(2)
H16_2 H 0.2981 0.3121 0.6595
C35_2 C 0.36670(16) 0.1910(5) 0.6591(2)
C36_2 C 0.36473(16) 0.1573(5) 0.7422(2)
N5_2 N 0.39028(13) 0.8749(4) 0.11071(18)
H9_2 H 0.4037 0.9402 0.1423
C22_2 C 0.40334(16) 0.8617(5) 0.0358(2)
C23_2 C 0.35281(16) 0.7677(5) 0.1256(2)
H12_2 H 0.3379 0.7531 0.1728
C24_2 C 0.37250(15) 0.7393(5) 0.0079(2)
C19_2 C 0.48272(15) 0.9898(5) 0.8707(2)
C20_2 C 0.44435(15) 0.8946(5) 0.9168(2)
C21_2 C 0.43741(15) 0.9465(5) 0.9897(2)
C25_2 C 0.37999(17) 0.6843(5) 0.9355(2)
H13_2 H 0.3607 0.5989 0.9176
C26_2 C 0.41690(15) 0.7589(5) 0.8900(2)
C27_2 C 0.42663(15) 0.6892(5) 0.8141(2)
N4_2 N 0.14745(14) 0.3008(4) 0.93479(19)
H2_2 H 0.1307 0.2792 0.8941
C14_2 C 0.18989(17) 0.3917(6) 0.9402(2)
H7_2 H 0.2051 0.4435 0.8996
Ho2 Ho 0.476640(7) 0.16574(2) 0.282490(9)
Ho4 Ho 0.523360(7) 0.66574(2) 0.217510(9)
O9 O 0.47894(10) 0.0779(3) 0.16116(15)
O12 O 0.55985(10) 0.2244(3) 0.24011(15)
O14 O 0.57975(12) 0.4578(3) 0.19172(18)
O17 O 0.52522(11) 0.0646(4) 0.38761(16)
C19_3 C 0.51728(15) 0.0102(5) 0.1293(2)
C20_3 C 0.55565(15) 0.1054(5) 0.0832(2)
C21_3 C 0.56259(15) 0.0535(5) 0.0103(2)
C25_3 C 0.62001(17) 0.3157(5) 0.0645(2)
H13_3 H 0.6393 0.4011 0.0824
C26_3 C 0.58310(15) 0.2411(5) 0.1100(2)
C27_3 C 0.57337(15) 0.3108(5) 0.1859(2)
Ag2_2 Ag 0.727310(13) 0.46163(5) 0.95174(2)
N5_3 N 0.60972(13) 0.1251(4) 0.88929(18)
H9_3 H 0.5963 0.0598 0.8577
N6_2 N 0.66045(14) 0.3146(4) 0.93452(19)
C22_3 C 0.59666(16) 0.1383(5) 0.9642(2)
C23_3 C 0.64719(16) 0.2323(5) 0.8744(2)
H12_3 H 0.6621 0.2469 0.8272
C24_3 C 0.62750(15) 0.2607(5) 0.9921(2)
O1_3 O 0.52106(10) 0.5779(3) 0.33884(15)
O2_3 O 0.47599(11) 0.3639(3) 0.37118(16)
O3_3 O 0.44015(10) 0.7244(3) 0.25989(15)
O4 O 0.42025(12) 0.9578(3) 0.30828(18)
O5_3 O 0.47478(11) 0.5646(4) 0.11239(16)
O6_3 O 0.46901(10) 0.4119(3) 0.21145(14)
O7_3 O 0.38979(11) 0.2478(4) 0.28540(14)
O8_3 O 0.33663(15) 0.4497(5) 0.26565(19)
N1_3 N 0.39028(13) 0.6251(4) 0.61071(18)
H1_3 H 0.4037 0.5598 0.6423
N2_2 N 0.33955(14) 0.8146(4) 0.56548(19)
N3_3 N 0.29178(13) 0.0995(5) 0.00945(19)
C1_3 C 0.48272(15) 0.5102(5) 0.3707(2)
C2_3 C 0.44435(15) 0.6054(5) 0.4168(2)
C3_3 C 0.43741(15) 0.5535(5) 0.4897(2)
H3_3 H 0.4549 0.4647 0.5074
C4_3 C 0.40334(16) 0.6383(5) 0.5358(2)
C5_3 C 0.35281(16) 0.7323(5) 0.6256(2)
H4_3 H 0.3379 0.7469 0.6728
C6_3 C 0.37250(15) 0.7607(5) 0.5079(2)
C7_3 C 0.37999(17) 0.8157(5) 0.4355(2)
H5_3 H 0.3607 0.9011 0.4176
C8_3 C 0.41690(15) 0.7411(5) 0.3900(2)
C9_3 C 0.42663(15) 0.8108(5) 0.3141(2)
C10_3 C 0.45335(16) 0.4520(5) 0.1460(2)
C11_3 C 0.40770(15) 0.3660(5) 0.1121(2)
C12_3 C 0.40684(16) 0.3417(5) 0.0344(2)
H6_3 H 0.4329 0.3828 0.0033
C13_3 C 0.36514(15) 0.2531(5) 0.0057(2)
C15_3 C 0.32586(16) 0.1914(5) 0.0524(2)
C16_3 C 0.32545(16) 0.2234(5) 0.1291(2)
H8_3 H 0.2981 0.1879 0.1595
C17_3 C 0.36670(16) 0.3090(5) 0.1591(2)
C18_3 C 0.36473(16) 0.3427(5) 0.2422(2)
Ag3_2 Ag 0.272690(13) 0.96163(5) 0.54826(2)
Ag4_2 Ag 0.772690(13) 0.46163(5) 0.45174(2)
O11_3 O 0.52401(11) 0.8639(3) 0.12882(16)
O19 O 0.53099(10) 0.9119(3) 0.28855(14)
O21_3 O 0.61021(11) 0.7478(4) 0.21460(14)
O22_3 O 0.66337(15) 0.9497(5) 0.23435(19)
N8_2 N 0.83955(14) 0.3146(4) 0.43452(19)
N9_3 N 0.70822(13) 0.5995(5) 0.49055(19)
N10_3 N 0.64745(14) 0.6992(4) 0.56521(19)
H10_3 H 0.6307 0.7208 0.6059
C28_3 C 0.54665(16) 0.9520(5) 0.3540(2)
C29_3 C 0.59230(15) 0.8660(5) 0.3879(2)
C30_3 C 0.59316(16) 0.8417(5) 0.4656(2)
H14_3 H 0.5671 0.8828 0.4967
C31_3 C 0.63486(15) 0.7531(5) 0.4943(2)
C32_3 C 0.68989(17) 0.6083(6) 0.5598(2)
H15_3 H 0.7051 0.5565 0.6004
C33_3 C 0.67414(16) 0.6914(5) 0.4476(2)
C34_3 C 0.67455(16) 0.7234(5) 0.3709(2)
H16_3 H 0.7019 0.6879 0.3405
C35_3 C 0.63330(16) 0.8090(5) 0.3409(2)
C36_3 C 0.63527(16) 0.8427(5) 0.2578(2)
N4_3 N 0.35255(14) 0.1992(4) 0.93479(19)
H2_3 H 0.3693 0.2208 0.8941
C14_3 C 0.31011(17) 0.1083(6) 0.9402(2)
H7_3 H 0.2949 0.0565 0.8996
H11_3 H 0.5451 0.9647 0.9926
Ag1_2 Ag 0.227310(13) 0.96163(5) 0.04826(2)
N7_2 N 0.16045(14) 0.8146(4) 0.06548(19)
Ho4_2 Ho 0.023360(7) 0.16574(2) 0.782490(9)
N5_4 N 0.10972(13) 0.6251(4) 0.11071(18)
H9_4 H 0.0963 0.5598 0.1423
H11_4 H 0.0451 0.4647 0.0074
C22_4 C 0.09666(16) 0.6383(5) 0.0358(2)
C23_4 C 0.14719(16) 0.7323(5) 0.1256(2)
H12_4 H 0.1621 0.7469 0.1728
C24_4 C 0.12750(15) 0.7607(5) 0.0079(2)
O1_4 O 0.02106(10) 0.0779(3) 0.66116(15)
O11_4 O 0.02401(11) 0.3639(3) 0.87118(16)
O12_2 O 0.05985(10) 0.7244(3) 0.75989(15)
O14_2 O 0.07975(12) 0.9578(3) 0.80828(18)
O17_2 O 0.02522(11) 0.5646(4) 0.61239(16)
O19_2 O 0.03099(10) 0.4119(3) 0.71145(14)
O21_4 O 0.11021(11) 0.2478(4) 0.78540(14)
O22_4 O 0.16337(15) 0.4497(5) 0.76565(19)
N9_4 N 0.20822(13) 0.0995(5) 0.50945(19)
N10_4 N 0.14745(14) 0.1992(4) 0.43479(19)
H10_4 H 0.1307 0.2208 0.3941
C19_4 C 0.01728(15) 0.5102(5) 0.8707(2)
C20_4 C 0.05565(15) 0.6054(5) 0.9168(2)
C21_4 C 0.06259(15) 0.5535(5) 0.9897(2)
C25_4 C 0.12001(17) 0.8157(5) 0.9355(2)
H13_4 H 0.1393 0.9011 0.9176
C26_4 C 0.08310(15) 0.7411(5) 0.8900(2)
C27_4 C 0.07337(15) 0.8108(5) 0.8141(2)
C28_4 C 0.04665(16) 0.4520(5) 0.6460(2)
C29_4 C 0.09230(15) 0.3660(5) 0.6121(2)
C30_4 C 0.09316(16) 0.3417(5) 0.5344(2)
H14_4 H 0.0671 0.3828 0.5033
C31_4 C 0.13486(15) 0.2531(5) 0.5057(2)
C32_4 C 0.18989(17) 0.1083(6) 0.4402(2)
H15_4 H 0.2051 0.0565 0.3996
C33_4 C 0.17414(16) 0.1914(5) 0.5524(2)
C34_4 C 0.17455(16) 0.2234(5) 0.6291(2)
H16_4 H 0.2019 0.1879 0.6595
C35_4 C 0.13330(16) 0.3090(5) 0.6591(2)
C36_4 C 0.13527(16) 0.3427(5) 0.7422(2)
O3_4 O 0.94015(10) 0.2244(3) 0.74011(15)
O4_2 O 0.92025(12) 0.4578(3) 0.69172(18)
O5_4 O 0.97478(11) 0.0646(4) 0.88761(16)
N1_4 N 0.89028(13) 0.1251(4) 0.38929(18)
H1_4 H 0.9037 0.0598 0.3577
C1_4 C 0.98272(15) 0.0102(5) 0.6293(2)
C2_4 C 0.94435(15) 0.1054(5) 0.5832(2)
C3_4 C 0.93741(15) 0.0535(5) 0.5103(2)
C4_4 C 0.90334(16) 0.1383(5) 0.4642(2)
C5_4 C 0.85281(16) 0.2323(5) 0.3744(2)
H4_4 H 0.8379 0.2469 0.3272
C6_4 C 0.87250(15) 0.2607(5) 0.4921(2)
C7_4 C 0.87999(17) 0.3157(5) 0.5645(2)
H5_4 H 0.8607 0.4011 0.5824
C8_4 C 0.91690(15) 0.2411(5) 0.6100(2)
C9_4 C 0.92663(15) 0.3108(5) 0.6859(2)
Ho2_2 Ho 0.976640(7) 0.66574(2) 0.717510(9)
O9_2 O 0.97894(10) 0.5779(3) 0.83884(15)
O2_4 O 0.97599(11) 0.8639(3) 0.62882(16)
O6_4 O 0.96901(10) 0.9119(3) 0.78855(14)
O7_4 O 0.88979(11) 0.7478(4) 0.71460(14)
O8_4 O 0.83663(15) 0.9497(5) 0.73435(19)
N3_4 N 0.79178(13) 0.5995(5) 0.99055(19)
H3_4 H 0.9549 0.9647 0.4926
C10_4 C 0.95335(16) 0.9520(5) 0.8540(2)
C11_4 C 0.90770(15) 0.8660(5) 0.8879(2)
C12_4 C 0.90684(16) 0.8417(5) 0.9656(2)
H6_4 H 0.9329 0.8828 0.9967
C13_4 C 0.86514(15) 0.7531(5) 0.9943(2)
C15_4 C 0.82586(16) 0.6914(5) 0.9476(2)
C16_4 C 0.82545(16) 0.7234(5) 0.8709(2)
H8_4 H 0.7981 0.6879 0.8405
C17_4 C 0.86670(16) 0.8090(5) 0.8409(2)
C18_4 C 0.86473(16) 0.8427(5) 0.7578(2)
N4_4 N 0.85255(14) 0.6992(4) 0.06521(19)
H2_4 H 0.8693 0.7208 0.1059
C14_4 C 0.81011(17) 0.6083(6) 0.0598(2)
H7_4 H 0.7949 0.5565 0.1004
loop_
_geom_bond_atom_site_label_1
_geom_bond_atom_site_label_2
_geom_bond_site_symmetry_1
_geom_bond_site_symmetry_2
Ag1 N3 1_555 1_555
O7 C18 1_555 1_555
O8 C18 1_555 1_555
C11 C10 1_555 1_555
C12 C11 1_555 1_555
H6 C12 1_555 1_555
C15 N3 1_555 1_555
C16 C15 1_555 1_555
H8 C16 1_555 1_555
C17 C11 1_555 1_555
C18 C17 1_555 1_555
Ho3 O2 1_555 1_555
O10 Ho3 1_555 1_555
O16 Ho3 1_555 1_555
N7 Ag1 1_555 1_555
O6 C10 1_555 1_555
O6 Ho3 1_555 1_555
O7 Ho3 1_555 1_555
C12 C13 1_555 1_555
C13 C15 1_555 1_555
C16 C17 1_555 1_555
O16 C9 1_555 1_555
N1 H1 1_555 1_555
N2 C5 1_555 1_555
C1 C2 1_555 1_555
C2 C3 1_555 1_555
C4 N1 1_555 1_555
C5 N1 1_555 1_555
H4 C5 1_555 1_555
C6 N2 1_555 1_555
C7 C6 1_555 1_555
H5 C7 1_555 1_555
C8 C2 1_555 1_555
C9 O3 1_555 1_555
Ag3 N2 1_555 1_555
C3 C4 1_555 1_555
C4 C6 1_555 1_555
C7 C8 1_555 1_555
C8 C9 1_555 1_555
Ag4 N8 1_555 1_555
Ho1 O1 1_555 1_555
O11 Ho1 1_555 1_555
O15 C27 1_555 1_555
O20 Ho1 1_555 1_555
O21 Ho1 1_555 1_555
O22 C36 1_555 1_555
N10 H10 1_555 1_555
C20 C19 1_555 1_555
C21 C20 1_555 1_555
H13 C25 1_555 1_555
C26 C20 1_555 1_555
C27 O13 1_555 1_555
C28 O18 1_555 1_555
C29 C28 1_555 1_555
C30 C29 1_555 1_555
H14 C30 1_555 1_555
C31 N10 1_555 1_555
C32 N9 1_555 1_555
H15 C32 1_555 1_555
C33 N9 1_555 1_555
C34 C33 1_555 1_555
H16 C34 1_555 1_555
C35 C29 1_555 1_555
C36 O21 1_555 1_555
O11 C19 1_555 1_555
O20 C28 1_555 1_555
N10 C32 1_555 1_555
C25 C26 1_555 1_555
C26 C27 1_555 1_555
C30 C31 1_555 1_555
C31 C33 1_555 1_555
C34 C35 1_555 1_555
C35 C36 1_555 1_555
Ag2 N6 1_555 1_555
N5 H9 1_555 1_555
N6 C23 1_555 1_555
C22 N5 1_555 1_555
C23 N5 1_555 1_555
H12 C23 1_555 1_555
C24 N6 1_555 1_555
C22 C24 1_555 1_555
N4 H2 1_555 1_555
C14 N4 1_555 1_555
H7 C14 1_555 1_555
Ho1_2 O1_2 1_555 1_555
O1_2 C1_2 1_555 1_555
O2_2 C1_2 1_555 1_555
O3_2 Ho1_2 1_555 1_555
O16_2 C9_2 1_555 1_555
O5_2 Ho1_2 1_555 1_555
O6_2 Ho1_2 1_555 1_555
O7_2 C18_2 1_555 1_555
O8_2 C18_2 1_555 1_555
N1_2 H1_2 1_555 1_555
N8 C5_2 1_555 1_555
C1_2 C2_2 1_555 1_555
C2_2 C3_2 1_555 1_555
C3_2 H3_2 1_555 1_555
C4_2 N1_2 1_555 1_555
C5_2 N1_2 1_555 1_555
H4_2 C5_2 1_555 1_555
C6_2 N8 1_555 1_555
C7_2 C6_2 1_555 1_555
H5_2 C7_2 1_555 1_555
C8_2 C2_2 1_555 1_555
C9_2 O3_2 1_555 1_555
C10_2 O5_2 1_555 1_555
C11_2 C10_2 1_555 1_555
C12_2 C11_2 1_555 1_555
H6_2 C12_2 1_555 1_555
C15_2 N3_2 1_555 1_555
C16_2 C15_2 1_555 1_555
H8_2 C16_2 1_555 1_555
C17_2 C11_2 1_555 1_555
C18_2 C17_2 1_555 1_555
Ho3_2 O2_2 1_555 1_555
O10_2 Ho3_2 1_555 1_555
O11_2 Ho1_2 1_555 1_555
O13_2 Ho3_2 1_555 1_555
O15_2 Ho1_2 1_555 1_555
O18_2 Ho3_2 1_555 1_555
O20_2 Ho1_2 1_555 1_555
O21_2 Ho1_2 1_555 1_555
O22_2 C36_2 1_555 1_555
N9_2 Ag3 1_555 1_555
N10_2 H10_2 1_555 1_555
C29_2 C28_2 1_555 1_555
C30_2 C29_2 1_555 1_555
H14_2 C30_2 1_555 1_555
C31_2 N10_2 1_555 1_555
C32_2 N9_2 1_555 1_555
H15_2 C32_2 1_555 1_555
C33_2 N9_2 1_555 1_555
C34_2 C33_2 1_555 1_555
H16_2 C34_2 1_555 1_555
C35_2 C29_2 1_555 1_555
C36_2 O21_2 1_555 1_555
O6_2 C10_2 1_555 1_555
O6_2 Ho3_2 1_555 1_555
O7_2 Ho3_2 1_555 1_555
C3_2 C4_2 1_555 1_555
C4_2 C6_2 1_555 1_555
C7_2 C8_2 1_555 1_555
C8_2 C9_2 1_555 1_555
C12_2 C13_2 1_555 1_555
C13_2 C15_2 1_555 1_555
C16_2 C17_2 1_555 1_555
O20_2 C28_2 1_555 1_555
N10_2 C32_2 1_555 1_555
C30_2 C31_2 1_555 1_555
C31_2 C33_2 1_555 1_555
C34_2 C35_2 1_555 1_555
C35_2 C36_2 1_555 1_555
N5_2 H9_2 1_555 1_555
N7 C23_2 1_555 1_555
C22_2 N5_2 1_555 1_555
C23_2 N5_2 1_555 1_555
H12_2 C23_2 1_555 1_555
C24_2 N7 1_555 1_555
C22_2 C24_2 1_555 1_555
O15_2 C27_2 1_555 1_555
C19_2 O10_2 1_555 1_555
C20_2 C19_2 1_555 1_555
C21_2 C20_2 1_555 1_555
H13_2 C25_2 1_555 1_555
C26_2 C20_2 1_555 1_555
C27_2 O13_2 1_555 1_555
C25_2 C26_2 1_555 1_555
C26_2 C27_2 1_555 1_555
N4_2 H2_2 1_555 1_555
C14_2 N4_2 1_555 1_555
H7_2 C14_2 1_555 1_555
Ho4 O14 1_555 1_555
O9 Ho2 1_555 1_555
O12 Ho2 1_555 1_555
O14 C27_3 1_555 1_555
O17 Ho2 1_555 1_555
C19_3 O9 1_555 1_555
C20_3 C19_3 1_555 1_555
C21_3 C20_3 1_555 1_555
H13_3 C25_3 1_555 1_555
C26_3 C20_3 1_555 1_555
C27_3 O12 1_555 1_555
C25_3 C26_3 1_555 1_555
C26_3 C27_3 1_555 1_555
Ag2_2 N6_2 1_555 1_555
N5_3 H9_3 1_555 1_555
N6_2 C23_3 1_555 1_555
C22_3 N5_3 1_555 1_555
C23_3 N5_3 1_555 1_555
H12_3 C23_3 1_555 1_555
C24_3 N6_2 1_555 1_555
C22_3 C24_3 1_555 1_555
Ho4 O1_3 1_555 1_555
O1_3 C1_3 1_555 1_555
O2_3 C1_3 1_555 1_555
O3_3 Ho4 1_555 1_555
O4 C9_3 1_555 1_555
O5_3 Ho4 1_555 1_555
O6_3 Ho4 1_555 1_555
O7_3 C18_3 1_555 1_555
O8_3 C18_3 1_555 1_555
N1_3 H1_3 1_555 1_555
N2_2 C5_3 1_555 1_555
C1_3 C2_3 1_555 1_555
C2_3 C3_3 1_555 1_555
C3_3 H3_3 1_555 1_555
C4_3 N1_3 1_555 1_555
C5_3 N1_3 1_555 1_555
H4_3 C5_3 1_555 1_555
C6_3 N2_2 1_555 1_555
C7_3 C6_3 1_555 1_555
H5_3 C7_3 1_555 1_555
C8_3 C2_3 1_555 1_555
C9_3 O3_3 1_555 1_555
C10_3 O5_3 1_555 1_555
C11_3 C10_3 1_555 1_555
C12_3 C11_3 1_555 1_555
H6_3 C12_3 1_555 1_555
C15_3 N3_3 1_555 1_555
C16_3 C15_3 1_555 1_555
H8_3 C16_3 1_555 1_555
C17_3 C11_3 1_555 1_555
C18_3 C17_3 1_555 1_555
Ho2 O2_3 1_555 1_555
Ag3_2 N2_2 1_555 1_555
Ag4_2 N8_2 1_555 1_555
O11_3 Ho4 1_555 1_555
O19 Ho4 1_555 1_555
O21_3 Ho4 1_555 1_555
O22_3 C36_3 1_555 1_555
N9_3 Ag4_2 1_555 1_555
N10_3 H10_3 1_555 1_555
C29_3 C28_3 1_555 1_555
C30_3 C29_3 1_555 1_555
H14_3 C30_3 1_555 1_555
C31_3 N10_3 1_555 1_555
C32_3 N9_3 1_555 1_555
H15_3 C32_3 1_555 1_555
C33_3 N9_3 1_555 1_555
C34_3 C33_3 1_555 1_555
H16_3 C34_3 1_555 1_555
C35_3 C29_3 1_555 1_555
C36_3 O21_3 1_555 1_555
O6_3 C10_3 1_555 1_555
O6_3 Ho2 1_555 1_555
O7_3 Ho2 1_555 1_555
C3_3 C4_3 1_555 1_555
C4_3 C6_3 1_555 1_555
C7_3 C8_3 1_555 1_555
C8_3 C9_3 1_555 1_555
C12_3 C13_3 1_555 1_555
C13_3 C15_3 1_555 1_555
C16_3 C17_3 1_555 1_555
O19 C28_3 1_555 1_555
N10_3 C32_3 1_555 1_555
C30_3 C31_3 1_555 1_555
C31_3 C33_3 1_555 1_555
C34_3 C35_3 1_555 1_555
C35_3 C36_3 1_555 1_555
N4_3 H2_3 1_555 1_555
C14_3 N4_3 1_555 1_555
H7_3 C14_3 1_555 1_555
N7_2 Ag1_2 1_555 1_555
N5_4 H9_4 1_555 1_555
N7_2 C23_4 1_555 1_555
C22_4 N5_4 1_555 1_555
C23_4 N5_4 1_555 1_555
H12_4 C23_4 1_555 1_555
C24_4 N7_2 1_555 1_555
C22_4 C24_4 1_555 1_555
Ho4_2 O1_4 1_555 1_555
O11_4 Ho4_2 1_555 1_555
O14_2 C27_4 1_555 1_555
O19_2 Ho4_2 1_555 1_555
O21_4 Ho4_2 1_555 1_555
O22_4 C36_4 1_555 1_555
N10_4 H10_4 1_555 1_555
C20_4 C19_4 1_555 1_555
C21_4 C20_4 1_555 1_555
H13_4 C25_4 1_555 1_555
C26_4 C20_4 1_555 1_555
C27_4 O12_2 1_555 1_555
C28_4 O17_2 1_555 1_555
C29_4 C28_4 1_555 1_555
C30_4 C29_4 1_555 1_555
H14_4 C30_4 1_555 1_555
C31_4 N10_4 1_555 1_555
C32_4 N9_4 1_555 1_555
H15_4 C32_4 1_555 1_555
C33_4 N9_4 1_555 1_555
C34_4 C33_4 1_555 1_555
H16_4 C34_4 1_555 1_555
C35_4 C29_4 1_555 1_555
C36_4 O21_4 1_555 1_555
O11_4 C19_4 1_555 1_555
O19_2 C28_4 1_555 1_555
N10_4 C32_4 1_555 1_555
C25_4 C26_4 1_555 1_555
C26_4 C27_4 1_555 1_555
C30_4 C31_4 1_555 1_555
C31_4 C33_4 1_555 1_555
C34_4 C35_4 1_555 1_555
C35_4 C36_4 1_555 1_555
O4_2 C9_4 1_555 1_555
N1_4 H1_4 1_555 1_555
N8_2 C5_4 1_555 1_555
C1_4 C2_4 1_555 1_555
C2_4 C3_4 1_555 1_555
C4_4 N1_4 1_555 1_555
C5_4 N1_4 1_555 1_555
H4_4 C5_4 1_555 1_555
C6_4 N8_2 1_555 1_555
C7_4 C6_4 1_555 1_555
H5_4 C7_4 1_555 1_555
C8_4 C2_4 1_555 1_555
C9_4 O3_4 1_555 1_555
Ho2_2 O4_2 1_555 1_555
O9_2 Ho2_2 1_555 1_555
C3_4 C4_4 1_555 1_555
C4_4 C6_4 1_555 1_555
C7_4 C8_4 1_555 1_555
C8_4 C9_4 1_555 1_555
Ag2_2 N3_4 1_555 1_555
O7_4 C18_4 1_555 1_555
O8_4 C18_4 1_555 1_555
C11_4 C10_4 1_555 1_555
C12_4 C11_4 1_555 1_555
H6_4 C12_4 1_555 1_555
C15_4 N3_4 1_555 1_555
C16_4 C15_4 1_555 1_555
H8_4 C16_4 1_555 1_555
C17_4 C11_4 1_555 1_555
C18_4 C17_4 1_555 1_555
Ho2_2 O2_4 1_555 1_555
O6_4 C10_4 1_555 1_555
O6_4 Ho2_2 1_555 1_555
O7_4 Ho2_2 1_555 1_555
C12_4 C13_4 1_555 1_555
C13_4 C15_4 1_555 1_555
C16_4 C17_4 1_555 1_555
N4_4 H2_4 1_555 1_555
C14_4 N4_4 1_555 1_555
H7_4 C14_4 1_555 1_555

#END
