
###############################################################################
#
# This file contains modified crystal structure data generated from the
# MOF subset of the Cambridge Structural Database (CSD) v543 
# hosted by the Cambridge Crystallographic Data Centre (CCDC).
#
# This work is licensed under the Creative Commons
# Attribution-NonCommercial-ShareAlike 4.0 International License.
# To view a copy of this license, visit
# http://creativecommons.org/licenses/by-nc-sa/4.0/
# or send a letter to
# Creative Commons, PO Box 1866, Mountain View, CA 94042, USA.
#
# CIF created using the CSD Python API on 29 September 2022
# The structure has been converted into the P1 space group
# The structure has a 3D framework
# The original CSD entry BASTIA is in the orthorhombic crystal system
# The framework has been calculated to contain at least 10.0% void space
# The void calculation uses a probe of radius 1.32A, grid spacing 0.4
#
###############################################################################

data_BASTIA
_chemical_formula_moiety         '(C144 H64 Ag4 N32 O62 Tb8)n'
_symmetry_cell_setting           triclinic
_symmetry_space_group_name_H-M   'P 1'
_symmetry_Int_Tables_number      1
_space_group_name_Hall           'P 1'
loop_
_symmetry_equiv_pos_site_id
_symmetry_equiv_pos_as_xyz
1 x,y,z
_cell_length_a                   25.339(5)
_cell_length_b                   8.5112(17)
_cell_length_c                   17.774(4)
_cell_angle_alpha                90
_cell_angle_beta                 90
_cell_angle_gamma                90
_cell_volume                     3833.23
loop_
_atom_site_label
_atom_site_type_symbol
_atom_site_fract_x
_atom_site_fract_y
_atom_site_fract_z
Tb2 Tb 0.024069(8) 0.16462(2) 0.282873(11)
O15 O 0.02137(11) 0.0774(3) 0.16016(17)
O1 O 0.08131(12) 0.9560(3) 0.30652(18)
O2 O 0.05988(11) 0.7212(3) 0.26019(16)
O4 O 0.02456(12) 0.3646(4) 0.37169(17)
O5 O 0.02440(12) 0.5622(4) 0.11039(18)
O6 O 0.03071(11) 0.4127(3) 0.21063(16)
O7 O 0.11164(11) 0.2487(4) 0.28579(16)
O8 O 0.16041(14) 0.4609(4) 0.26468(19)
N1 N 0.15963(15) 0.8156(4) 0.5670(2)
N2 N 0.10897(14) 0.6259(4) 0.6117(2)
H1 H 0.0954 0.5606 0.6431
N3 N 0.20818(14) 0.0968(4) 0.0108(2)
C1 C 0.07410(17) 0.8088(5) 0.3137(3)
C2 C 0.08310(17) 0.7416(5) 0.3907(2)
C3 C 0.11966(18) 0.8165(5) 0.4363(3)
H3 H 0.1389 0.9018 0.4185
C4 C 0.12707(16) 0.7619(5) 0.5091(2)
C5 C 0.14654(16) 0.7331(5) 0.6271(2)
H4 H 0.1615 0.7472 0.6744
C6 C 0.09618(17) 0.6395(5) 0.5367(2)
C7 C 0.06244(16) 0.5547(5) 0.4903(2)
H5 H 0.0450 0.4659 0.5079
C8 C 0.05558(16) 0.6059(5) 0.4172(2)
C9 C 0.01749(16) 0.5106(5) 0.3712(2)
C10 C 0.04626(17) 0.4517(5) 0.1448(2)
C11 C 0.09203(17) 0.3670(5) 0.1110(2)
C12 C 0.09298(18) 0.3397(5) 0.0338(3)
H6 H 0.0670 0.3796 0.0023
C13 C 0.13484(17) 0.2495(5) 0.0058(2)
C15 C 0.17424(18) 0.1901(5) 0.0532(3)
C16 C 0.17462(17) 0.2244(5) 0.1299(2)
H8 H 0.2020 0.1902 0.1607
C17 C 0.13301(17) 0.3108(5) 0.1588(2)
C18 C 0.13484(17) 0.3481(5) 0.2418(3)
Ag2 Ag 0.226996(13) 0.96162(4) 0.55040(2)
Ag1 Ag 0.273004(13) 0.96162(4) 0.05040(2)
N5 N 0.34037(15) 0.8156(4) 0.0670(2)
Tb4 Tb 0.975931(8) 0.66462(2) 0.217127(11)
O11 O 0.91869(12) 0.4560(3) 0.19348(18)
O13 O 0.94012(11) 0.2212(3) 0.23981(16)
O17 O 0.97560(12) 0.0622(4) 0.38961(18)
C19 C 0.92590(17) 0.3088(5) 0.1863(3)
C20 C 0.91690(17) 0.2416(5) 0.1093(2)
C21 C 0.88034(18) 0.3165(5) 0.0637(3)
H11 H 0.8611 0.4018 0.0815
C25 C 0.93756(16) 0.0547(5) 0.0097(2)
C26 C 0.94442(16) 0.1059(5) 0.0828(2)
C27 C 0.98251(16) 0.0106(5) 0.1288(2)
Ag4 Ag 0.773004(13) 0.46162(4) 0.94960(2)
N7 N 0.84037(15) 0.3156(4) 0.9330(2)
N8 N 0.89103(14) 0.1259(4) 0.8883(2)
H9 H 0.9046 0.0606 0.8569
C22 C 0.87293(16) 0.2619(5) 0.9909(2)
C23 C 0.85346(16) 0.2331(5) 0.8729(2)
H12 H 0.8385 0.2472 0.8256
C24 C 0.90382(17) 0.1395(5) 0.9633(2)
O3 O 0.97863(11) 0.5774(3) 0.33984(17)
Ag3 Ag 0.726996(13) 0.46162(4) 0.44960(2)
O16 O 0.97544(12) 0.8646(4) 0.12831(17)
O19 O 0.96929(11) 0.9127(3) 0.28937(16)
O21 O 0.88836(11) 0.7487(4) 0.21421(16)
O22 O 0.83959(14) 0.9609(4) 0.23532(19)
N6 N 0.65963(15) 0.3156(4) 0.4330(2)
N9 N 0.79182(14) 0.5968(4) 0.4892(2)
N10 N 0.85310(15) 0.6926(4) 0.5648(2)
H10 H 0.8703 0.7115 0.6055
C28 C 0.95374(17) 0.9517(5) 0.3552(2)
C29 C 0.90797(17) 0.8670(5) 0.3890(2)
C30 C 0.90702(18) 0.8397(5) 0.4662(3)
H14 H 0.9330 0.8796 0.4977
C31 C 0.86516(17) 0.7495(5) 0.4942(2)
C32 C 0.81018(18) 0.6034(5) 0.5588(3)
H15 H 0.7947 0.5513 0.5992
C33 C 0.82576(18) 0.6901(5) 0.4468(3)
C34 C 0.82538(17) 0.7244(5) 0.3701(2)
H16 H 0.7980 0.6902 0.3393
C35 C 0.86699(17) 0.8108(5) 0.3412(2)
C36 C 0.86516(17) 0.8481(5) 0.2582(3)
Tb4_2 Tb 0.475931(8) 0.16462(2) 0.782873(11)
N8_2 N 0.39103(14) 0.6259(4) 0.1117(2)
H9_2 H 0.4046 0.5606 0.1431
C22_2 C 0.37293(16) 0.7619(5) 0.0091(2)
C23_2 C 0.35346(16) 0.7331(5) 0.1271(2)
H12_2 H 0.3385 0.7472 0.1744
C24_2 C 0.40382(17) 0.6395(5) 0.0367(2)
H13 H 0.4550 0.4659 0.0079
O1_2 O 0.58131(12) 0.4560(3) 0.69348(18)
O2_2 O 0.55988(11) 0.2212(3) 0.73981(16)
O3_2 O 0.47863(11) 0.0774(3) 0.66016(17)
O5_2 O 0.52440(12) 0.0622(4) 0.88961(18)
N2_2 N 0.60897(14) 0.1259(4) 0.3883(2)
H1_2 H 0.5954 0.0606 0.3569
C1_2 C 0.57410(17) 0.3088(5) 0.6863(3)
C2_2 C 0.58310(17) 0.2416(5) 0.6093(2)
C3_2 C 0.61966(18) 0.3165(5) 0.5637(3)
H3_2 H 0.6389 0.4018 0.5815
C4_2 C 0.62707(16) 0.2619(5) 0.4909(2)
C5_2 C 0.64654(16) 0.2331(5) 0.3729(2)
H4_2 H 0.6615 0.2472 0.3256
C6_2 C 0.59618(17) 0.1395(5) 0.4633(2)
C7_2 C 0.56244(16) 0.0547(5) 0.5097(2)
C8_2 C 0.55558(16) 0.1059(5) 0.5828(2)
C9_2 C 0.51749(16) 0.0106(5) 0.6288(2)
Tb2_2 Tb 0.524069(8) 0.66462(2) 0.717127(11)
O11_2 O 0.41869(12) 0.9560(3) 0.80652(18)
O13_2 O 0.44012(11) 0.7212(3) 0.76019(16)
O15_2 O 0.52137(11) 0.5774(3) 0.83984(17)
O16_2 O 0.47544(12) 0.3646(4) 0.87169(17)
O17_2 O 0.47560(12) 0.5622(4) 0.61039(18)
O19_2 O 0.46929(11) 0.4127(3) 0.71063(16)
O21_2 O 0.38836(11) 0.2487(4) 0.78579(16)
O22_2 O 0.33959(14) 0.4609(4) 0.76468(19)
N9_2 N 0.29182(14) 0.0968(4) 0.5108(2)
N10_2 N 0.35310(15) 0.1926(4) 0.4352(2)
H10_2 H 0.3703 0.2115 0.3945
C19_2 C 0.42590(17) 0.8088(5) 0.8137(3)
C20_2 C 0.41690(17) 0.7416(5) 0.8907(2)
C21_2 C 0.38034(18) 0.8165(5) 0.9363(3)
H11_2 H 0.3611 0.9018 0.9185
C25_2 C 0.43756(16) 0.5547(5) 0.9903(2)
C26_2 C 0.44442(16) 0.6059(5) 0.9172(2)
C27_2 C 0.48251(16) 0.5106(5) 0.8712(2)
C28_2 C 0.45374(17) 0.4517(5) 0.6448(2)
C29_2 C 0.40797(17) 0.3670(5) 0.6110(2)
C30_2 C 0.40702(18) 0.3397(5) 0.5338(3)
H14_2 H 0.4330 0.3796 0.5023
C31_2 C 0.36516(17) 0.2495(5) 0.5058(2)
C32_2 C 0.31018(18) 0.1034(5) 0.4412(3)
H15_2 H 0.2947 0.0513 0.4008
C33_2 C 0.32576(18) 0.1901(5) 0.5532(3)
C34_2 C 0.32538(17) 0.2244(5) 0.6299(2)
H16_2 H 0.2980 0.1902 0.6607
C35_2 C 0.36699(17) 0.3108(5) 0.6588(2)
C36_2 C 0.36516(17) 0.3481(5) 0.7418(3)
N4 N 0.64690(15) 0.6926(4) 0.0648(2)
H2 H 0.6297 0.7115 0.1055
C14 C 0.68982(18) 0.6034(5) 0.0588(3)
H7 H 0.7053 0.5513 0.0992
O4_2 O 0.52456(12) 0.8646(4) 0.62831(17)
O6_2 O 0.53071(11) 0.9127(3) 0.78937(16)
O7_2 O 0.61164(11) 0.7487(4) 0.71421(16)
O8_2 O 0.66041(14) 0.9609(4) 0.73532(19)
N3_2 N 0.70818(14) 0.5968(4) 0.9892(2)
H5_2 H 0.5450 0.9659 0.4921
C10_2 C 0.54626(17) 0.9517(5) 0.8552(2)
C11_2 C 0.59203(17) 0.8670(5) 0.8890(2)
C12_2 C 0.59298(18) 0.8397(5) 0.9662(3)
H6_2 H 0.5670 0.8796 0.9977
C13_2 C 0.63484(17) 0.7495(5) 0.9942(2)
C15_2 C 0.67424(18) 0.6901(5) 0.9468(3)
C16_2 C 0.67462(17) 0.7244(5) 0.8701(2)
H8_2 H 0.7020 0.6902 0.8393
C17_2 C 0.63301(17) 0.8108(5) 0.8412(2)
C18_2 C 0.63484(17) 0.8481(5) 0.7582(3)
N4_2 N 0.14690(15) 0.1926(4) 0.9352(2)
H2_2 H 0.1297 0.2115 0.8945
C14_2 C 0.18982(18) 0.1034(5) 0.9412(3)
H7_2 H 0.2053 0.0513 0.9008
H13_2 H 0.9550 0.9659 0.9921
Ag1_2 Ag 0.226996(13) 0.53838(4) 0.05040(2)
O4_3 O 0.47544(12) 0.1354(4) 0.37169(17)
O6_3 O 0.46929(11) 0.0873(3) 0.21063(16)
O7_3 O 0.38836(11) 0.2513(4) 0.28579(16)
O8_3 O 0.33959(14) 0.0391(4) 0.26468(19)
N3_3 N 0.29182(14) 0.4032(4) 0.0108(2)
H5_3 H 0.4550 0.0341 0.5079
C10_3 C 0.45374(17) 0.0483(5) 0.1448(2)
C11_3 C 0.40797(17) 0.1330(5) 0.1110(2)
C12_3 C 0.40702(18) 0.1603(5) 0.0338(3)
H6_3 H 0.4330 0.1204 0.0023
C13_3 C 0.36516(17) 0.2505(5) 0.0058(2)
C15_3 C 0.32576(18) 0.3099(5) 0.0532(3)
C16_3 C 0.32538(17) 0.2756(5) 0.1299(2)
H8_3 H 0.2980 0.3098 0.1607
C17_3 C 0.36699(17) 0.1892(5) 0.1588(2)
C18_3 C 0.36516(17) 0.1519(5) 0.2418(3)
Tb3 Tb 0.475931(8) 0.33538(2) 0.282873(11)
Ag3_2 Ag 0.773004(13) 0.03838(4) 0.44960(2)
O9 O 0.58131(12) 0.0440(3) 0.19348(18)
O10 O 0.41869(12) 0.5440(3) 0.30652(18)
O12 O 0.55988(11) 0.2788(3) 0.23981(16)
O14 O 0.47863(11) 0.4226(3) 0.16016(17)
O18 O 0.52440(12) 0.4378(4) 0.38961(18)
O20 O 0.53071(11) 0.5873(3) 0.28937(16)
N5_2 N 0.15963(15) 0.6844(4) 0.0670(2)
N6_2 N 0.84037(15) 0.1844(4) 0.4330(2)
N4_3 N 0.35310(15) 0.3074(4) 0.9352(2)
H2_3 H 0.3703 0.2885 0.8945
C14_3 C 0.31018(18) 0.3966(5) 0.9412(3)
H7_3 H 0.2947 0.4487 0.9008
Tb1 Tb 0.524069(8) 0.83538(2) 0.217127(11)
O2_3 O 0.44012(11) 0.7788(3) 0.26019(16)
O3_3 O 0.52137(11) 0.9226(3) 0.33984(17)
O5_3 O 0.47560(12) 0.9378(4) 0.11039(18)
N1_2 N 0.34037(15) 0.6844(4) 0.5670(2)
N2_3 N 0.39103(14) 0.8741(4) 0.6117(2)
H1_3 H 0.4046 0.9394 0.6431
C1_3 C 0.42590(17) 0.6912(5) 0.3137(3)
C2_3 C 0.41690(17) 0.7584(5) 0.3907(2)
C3_3 C 0.38034(18) 0.6835(5) 0.4363(3)
H3_3 H 0.3611 0.5982 0.4185
C4_3 C 0.37293(16) 0.7381(5) 0.5091(2)
C5_3 C 0.35346(16) 0.7669(5) 0.6271(2)
H4_3 H 0.3385 0.7528 0.6744
C6_3 C 0.40382(17) 0.8605(5) 0.5367(2)
C7_3 C 0.43756(16) 0.9453(5) 0.4903(2)
C8_3 C 0.44442(16) 0.8941(5) 0.4172(2)
C9_3 C 0.48251(16) 0.9894(5) 0.3712(2)
Ag2_2 Ag 0.273004(13) 0.53838(4) 0.55040(2)
O16_3 O 0.52456(12) 0.6354(4) 0.12831(17)
O21_3 O 0.61164(11) 0.7513(4) 0.21421(16)
O22_3 O 0.66041(14) 0.5391(4) 0.23532(19)
N9_3 N 0.70818(14) 0.9032(4) 0.4892(2)
N10_3 N 0.64690(15) 0.8074(4) 0.5648(2)
H10_3 H 0.6297 0.7885 0.6055
C19_3 C 0.57410(17) 0.1912(5) 0.1863(3)
C20_3 C 0.58310(17) 0.2584(5) 0.1093(2)
C21_3 C 0.61966(18) 0.1835(5) 0.0637(3)
H11_3 H 0.6389 0.0982 0.0815
C25_3 C 0.56244(16) 0.4453(5) 0.0097(2)
C26_3 C 0.55558(16) 0.3941(5) 0.0828(2)
C27_3 C 0.51749(16) 0.4894(5) 0.1288(2)
C28_3 C 0.54626(17) 0.5483(5) 0.3552(2)
C29_3 C 0.59203(17) 0.6330(5) 0.3890(2)
C30_3 C 0.59298(18) 0.6603(5) 0.4662(3)
H14_3 H 0.5670 0.6204 0.4977
C31_3 C 0.63484(17) 0.7505(5) 0.4942(2)
C32_3 C 0.68982(18) 0.8966(5) 0.5588(3)
H15_3 H 0.7053 0.9487 0.5992
C33_3 C 0.67424(18) 0.8099(5) 0.4468(3)
C34_3 C 0.67462(17) 0.7756(5) 0.3701(2)
H16_3 H 0.7020 0.8098 0.3393
C35_3 C 0.63301(17) 0.6892(5) 0.3412(2)
C36_3 C 0.63484(17) 0.6519(5) 0.2582(3)
Ag4_2 Ag 0.726996(13) 0.03838(4) 0.94960(2)
N7_2 N 0.65963(15) 0.1844(4) 0.9330(2)
N8_3 N 0.60897(14) 0.3741(4) 0.8883(2)
H9_3 H 0.5954 0.4394 0.8569
C22_3 C 0.62707(16) 0.2381(5) 0.9909(2)
C23_3 C 0.64654(16) 0.2669(5) 0.8729(2)
H12_3 H 0.6615 0.2528 0.8256
C24_3 C 0.59618(17) 0.3605(5) 0.9633(2)
H13_3 H 0.5450 0.5341 0.9921
O20_2 O 0.03071(11) 0.0873(3) 0.71063(16)
Tb1_2 Tb 0.024069(8) 0.33538(2) 0.782873(11)
O3_4 O 0.02137(11) 0.4226(3) 0.66016(17)
O9_2 O 0.08131(12) 0.5440(3) 0.80652(18)
O12_2 O 0.05988(11) 0.7788(3) 0.76019(16)
O16_4 O 0.02456(12) 0.1354(4) 0.87169(17)
O18_2 O 0.02440(12) 0.9378(4) 0.61039(18)
O21_4 O 0.11164(11) 0.2513(4) 0.78579(16)
O22_4 O 0.16041(14) 0.0391(4) 0.76468(19)
N9_4 N 0.20818(14) 0.4032(4) 0.5108(2)
N10_4 N 0.14690(15) 0.3074(4) 0.4352(2)
H10_4 H 0.1297 0.2885 0.3945
C28_4 C 0.04626(17) 0.0483(5) 0.6448(2)
C29_4 C 0.09203(17) 0.1330(5) 0.6110(2)
C30_4 C 0.09298(18) 0.1603(5) 0.5338(3)
H14_4 H 0.0670 0.1204 0.5023
C31_4 C 0.13484(17) 0.2505(5) 0.5058(2)
C32_4 C 0.18982(18) 0.3966(5) 0.4412(3)
H15_4 H 0.2053 0.4487 0.4008
C33_4 C 0.17424(18) 0.3099(5) 0.5532(3)
C34_4 C 0.17462(17) 0.2756(5) 0.6299(2)
H16_4 H 0.2020 0.3098 0.6607
C35_4 C 0.13301(17) 0.1892(5) 0.6588(2)
C36_4 C 0.13484(17) 0.1519(5) 0.7418(3)
N8_4 N 0.10897(14) 0.8741(4) 0.1117(2)
H9_4 H 0.0954 0.9394 0.1431
C22_4 C 0.12707(16) 0.7381(5) 0.0091(2)
C23_4 C 0.14654(16) 0.7669(5) 0.1271(2)
H12_4 H 0.1615 0.7528 0.1744
C24_4 C 0.09618(17) 0.8605(5) 0.0367(2)
C19_4 C 0.07410(17) 0.6912(5) 0.8137(3)
C20_4 C 0.08310(17) 0.7584(5) 0.8907(2)
C21_4 C 0.11966(18) 0.6835(5) 0.9363(3)
H11_4 H 0.1389 0.5982 0.9185
C25_4 C 0.06244(16) 0.9453(5) 0.9903(2)
C26_4 C 0.05558(16) 0.8941(5) 0.9172(2)
C27_4 C 0.01749(16) 0.9894(5) 0.8712(2)
O10_2 O 0.91869(12) 0.0440(3) 0.69348(18)
O2_4 O 0.94012(11) 0.2788(3) 0.73981(16)
O4_4 O 0.97544(12) 0.6354(4) 0.62831(17)
O5_4 O 0.97560(12) 0.4378(4) 0.88961(18)
O6_4 O 0.96929(11) 0.5873(3) 0.78937(16)
O7_4 O 0.88836(11) 0.7513(4) 0.71421(16)
O8_4 O 0.83959(14) 0.5391(4) 0.73532(19)
N2_4 N 0.89103(14) 0.3741(4) 0.3883(2)
H1_4 H 0.9046 0.4394 0.3569
N3_4 N 0.79182(14) 0.9032(4) 0.9892(2)
C1_4 C 0.92590(17) 0.1912(5) 0.6863(3)
C2_4 C 0.91690(17) 0.2584(5) 0.6093(2)
C3_4 C 0.88034(18) 0.1835(5) 0.5637(3)
H3_4 H 0.8611 0.0982 0.5815
C4_4 C 0.87293(16) 0.2381(5) 0.4909(2)
C5_4 C 0.85346(16) 0.2669(5) 0.3729(2)
H4_4 H 0.8385 0.2528 0.3256
C6_4 C 0.90382(17) 0.3605(5) 0.4633(2)
C7_4 C 0.93756(16) 0.4453(5) 0.5097(2)
H5_4 H 0.9550 0.5341 0.4921
C8_4 C 0.94442(16) 0.3941(5) 0.5828(2)
C9_4 C 0.98251(16) 0.4894(5) 0.6288(2)
C10_4 C 0.95374(17) 0.5483(5) 0.8552(2)
C11_4 C 0.90797(17) 0.6330(5) 0.8890(2)
C12_4 C 0.90702(18) 0.6603(5) 0.9662(3)
H6_4 H 0.9330 0.6204 0.9977
C13_4 C 0.86516(17) 0.7505(5) 0.9942(2)
C15_4 C 0.82576(18) 0.8099(5) 0.9468(3)
C16_4 C 0.82538(17) 0.7756(5) 0.8701(2)
H8_4 H 0.7980 0.8098 0.8393
C17_4 C 0.86699(17) 0.6892(5) 0.8412(2)
C18_4 C 0.86516(17) 0.6519(5) 0.7582(3)
Tb3_2 Tb 0.975931(8) 0.83538(2) 0.717127(11)
O14_2 O 0.97863(11) 0.9226(3) 0.83984(17)
H13_4 H 0.0450 0.0341 0.0079
N4_4 N 0.85310(15) 0.8074(4) 0.0648(2)
H2_4 H 0.8703 0.7885 0.1055
C14_4 C 0.81018(18) 0.8966(5) 0.0588(3)
H7_4 H 0.7947 0.9487 0.0992
loop_
_geom_bond_atom_site_label_1
_geom_bond_atom_site_label_2
_geom_bond_site_symmetry_1
_geom_bond_site_symmetry_2
O15 Tb2 1_555 1_555
O1 C1 1_555 1_555
O2 C1 1_555 1_555
O4 C9 1_555 1_555
O7 C18 1_555 1_555
O8 C18 1_555 1_555
N1 C4 1_555 1_555
N2 H1 1_555 1_555
C1 C2 1_555 1_555
C2 C3 1_555 1_555
C3 H3 1_555 1_555
C4 C3 1_555 1_555
C5 N1 1_555 1_555
H4 C5 1_555 1_555
C6 N2 1_555 1_555
C7 C6 1_555 1_555
H5 C7 1_555 1_555
C8 C2 1_555 1_555
C10 O5 1_555 1_555
C11 C10 1_555 1_555
C12 C11 1_555 1_555
H6 C12 1_555 1_555
C15 N3 1_555 1_555
C16 C15 1_555 1_555
H8 C16 1_555 1_555
C17 C11 1_555 1_555
C18 C17 1_555 1_555
Tb2 O4 1_555 1_555
Ag2 N1 1_555 1_555
O6 C10 1_555 1_555
O6 Tb2 1_555 1_555
O7 Tb2 1_555 1_555
N2 C5 1_555 1_555
C4 C6 1_555 1_555
C7 C8 1_555 1_555
C8 C9 1_555 1_555
C12 C13 1_555 1_555
C13 C15 1_555 1_555
C16 C17 1_555 1_555
N5 Ag1 1_555 1_555
Tb4 O11 1_555 1_555
O11 C19 1_555 1_555
C19 O13 1_555 1_555
C20 C19 1_555 1_555
C21 C20 1_555 1_555
H11 C21 1_555 1_555
C26 C20 1_555 1_555
C25 C26 1_555 1_555
C26 C27 1_555 1_555
Ag4 N7 1_555 1_555
N7 C22 1_555 1_555
N8 H9 1_555 1_555
C23 N7 1_555 1_555
H12 C23 1_555 1_555
C24 N8 1_555 1_555
N8 C23 1_555 1_555
C22 C24 1_555 1_555
O3 Tb4 1_555 1_555
Ag3 N6 1_555 1_555
O16 Tb4 1_555 1_555
O19 Tb4 1_555 1_555
O21 Tb4 1_555 1_555
O22 C36 1_555 1_555
N9 Ag3 1_555 1_555
N10 H10 1_555 1_555
C29 C28 1_555 1_555
C30 C29 1_555 1_555
H14 C30 1_555 1_555
C31 N10 1_555 1_555
C32 N9 1_555 1_555
H15 C32 1_555 1_555
C33 N9 1_555 1_555
C34 C33 1_555 1_555
H16 C34 1_555 1_555
C35 C29 1_555 1_555
C36 O21 1_555 1_555
O19 C28 1_555 1_555
N10 C32 1_555 1_555
C30 C31 1_555 1_555
C31 C33 1_555 1_555
C34 C35 1_555 1_555
C35 C36 1_555 1_555
N5 C22_2 1_555 1_555
N8_2 H9_2 1_555 1_555
C23_2 N5 1_555 1_555
H12_2 C23_2 1_555 1_555
C24_2 N8_2 1_555 1_555
N8_2 C23_2 1_555 1_555
C22_2 C24_2 1_555 1_555
Tb4_2 O2_2 1_555 1_555
O1_2 C1_2 1_555 1_555
O2_2 C1_2 1_555 1_555
O3_2 Tb4_2 1_555 1_555
O5_2 Tb4_2 1_555 1_555
N6 C4_2 1_555 1_555
N2_2 H1_2 1_555 1_555
C1_2 C2_2 1_555 1_555
C2_2 C3_2 1_555 1_555
C3_2 H3_2 1_555 1_555
C4_2 C3_2 1_555 1_555
C5_2 N6 1_555 1_555
H4_2 C5_2 1_555 1_555
C6_2 N2_2 1_555 1_555
C7_2 C6_2 1_555 1_555
C8_2 C2_2 1_555 1_555
C9_2 O3_2 1_555 1_555
Tb2_2 O1_2 1_555 1_555
O11_2 C19_2 1_555 1_555
O13_2 Tb2_2 1_555 1_555
O15_2 Tb2_2 1_555 1_555
O16_2 Tb4_2 1_555 1_555
O17_2 Tb2_2 1_555 1_555
O19_2 Tb4_2 1_555 1_555
O21_2 Tb4_2 1_555 1_555
O22_2 C36_2 1_555 1_555
N10_2 H10_2 1_555 1_555
C19_2 O13_2 1_555 1_555
C20_2 C19_2 1_555 1_555
C21_2 C20_2 1_555 1_555
H11_2 C21_2 1_555 1_555
C26_2 C20_2 1_555 1_555
C27_2 O15_2 1_555 1_555
C28_2 O17_2 1_555 1_555
C29_2 C28_2 1_555 1_555
C30_2 C29_2 1_555 1_555
H14_2 C30_2 1_555 1_555
C31_2 N10_2 1_555 1_555
C32_2 N9_2 1_555 1_555
H15_2 C32_2 1_555 1_555
C33_2 N9_2 1_555 1_555
C34_2 C33_2 1_555 1_555
H16_2 C34_2 1_555 1_555
C35_2 C29_2 1_555 1_555
C36_2 O21_2 1_555 1_555
N2_2 C5_2 1_555 1_555
C4_2 C6_2 1_555 1_555
C7_2 C8_2 1_555 1_555
C8_2 C9_2 1_555 1_555
Tb2_2 O19_2 1_555 1_555
O16_2 C27_2 1_555 1_555
O19_2 C28_2 1_555 1_555
N10_2 C32_2 1_555 1_555
C25_2 C26_2 1_555 1_555
C26_2 C27_2 1_555 1_555
C30_2 C31_2 1_555 1_555
C31_2 C33_2 1_555 1_555
C34_2 C35_2 1_555 1_555
C35_2 C36_2 1_555 1_555
N4 H2 1_555 1_555
C14 N4 1_555 1_555
H7 C14 1_555 1_555
Ag4 N3_2 1_555 1_555
O7_2 C18_2 1_555 1_555
O8_2 C18_2 1_555 1_555
C11_2 C10_2 1_555 1_555
C12_2 C11_2 1_555 1_555
H6_2 C12_2 1_555 1_555
C15_2 N3_2 1_555 1_555
C16_2 C15_2 1_555 1_555
H8_2 C16_2 1_555 1_555
C17_2 C11_2 1_555 1_555
C18_2 C17_2 1_555 1_555
Tb2_2 O4_2 1_555 1_555
O6_2 C10_2 1_555 1_555
O6_2 Tb2_2 1_555 1_555
O7_2 Tb2_2 1_555 1_555
C12_2 C13_2 1_555 1_555
C13_2 C15_2 1_555 1_555
C16_2 C17_2 1_555 1_555
N4_2 H2_2 1_555 1_555
C14_2 N4_2 1_555 1_555
H7_2 C14_2 1_555 1_555
Ag1_2 N3_3 1_555 1_555
O7_3 C18_3 1_555 1_555
O8_3 C18_3 1_555 1_555
C11_3 C10_3 1_555 1_555
C12_3 C11_3 1_555 1_555
H6_3 C12_3 1_555 1_555
C15_3 N3_3 1_555 1_555
C16_3 C15_3 1_555 1_555
H8_3 C16_3 1_555 1_555
C17_3 C11_3 1_555 1_555
C18_3 C17_3 1_555 1_555
Tb3 O4_3 1_555 1_555
Ag3_2 N6_2 1_555 1_555
O10 Tb3 1_555 1_555
O12 Tb3 1_555 1_555
O14 Tb3 1_555 1_555
O18 Tb3 1_555 1_555
O20 Tb3 1_555 1_555
N5_2 Ag1_2 1_555 1_555
O6_3 C10_3 1_555 1_555
O6_3 Tb3 1_555 1_555
O7_3 Tb3 1_555 1_555
C12_3 C13_3 1_555 1_555
C13_3 C15_3 1_555 1_555
C16_3 C17_3 1_555 1_555
N4_3 H2_3 1_555 1_555
C14_3 N4_3 1_555 1_555
H7_3 C14_3 1_555 1_555
Tb1 O2_3 1_555 1_555
O10 C1_3 1_555 1_555
O2_3 C1_3 1_555 1_555
O3_3 Tb1 1_555 1_555
O5_3 Tb1 1_555 1_555
N1_2 C4_3 1_555 1_555
N2_3 H1_3 1_555 1_555
C1_3 C2_3 1_555 1_555
C2_3 C3_3 1_555 1_555
C3_3 H3_3 1_555 1_555
C4_3 C3_3 1_555 1_555
C5_3 N1_2 1_555 1_555
H4_3 C5_3 1_555 1_555
C6_3 N2_3 1_555 1_555
C7_3 C6_3 1_555 1_555
C8_3 C2_3 1_555 1_555
C9_3 O3_3 1_555 1_555
Ag2_2 N1_2 1_555 1_555
O9 C19_3 1_555 1_555
O16_3 Tb1 1_555 1_555
O20 Tb1 1_555 1_555
O21_3 Tb1 1_555 1_555
O22_3 C36_3 1_555 1_555
N10_3 H10_3 1_555 1_555
C19_3 O12 1_555 1_555
C20_3 C19_3 1_555 1_555
C21_3 C20_3 1_555 1_555
H11_3 C21_3 1_555 1_555
C26_3 C20_3 1_555 1_555
C27_3 O14 1_555 1_555
C28_3 O18 1_555 1_555
C29_3 C28_3 1_555 1_555
C30_3 C29_3 1_555 1_555
H14_3 C30_3 1_555 1_555
C31_3 N10_3 1_555 1_555
C32_3 N9_3 1_555 1_555
H15_3 C32_3 1_555 1_555
C33_3 N9_3 1_555 1_555
C34_3 C33_3 1_555 1_555
H16_3 C34_3 1_555 1_555
C35_3 C29_3 1_555 1_555
C36_3 O21_3 1_555 1_555
N2_3 C5_3 1_555 1_555
C4_3 C6_3 1_555 1_555
C7_3 C8_3 1_555 1_555
C8_3 C9_3 1_555 1_555
O16_3 C27_3 1_555 1_555
O20 C28_3 1_555 1_555
N10_3 C32_3 1_555 1_555
C25_3 C26_3 1_555 1_555
C26_3 C27_3 1_555 1_555
C30_3 C31_3 1_555 1_555
C31_3 C33_3 1_555 1_555
C34_3 C35_3 1_555 1_555
C35_3 C36_3 1_555 1_555
Ag4_2 N7_2 1_555 1_555
N7_2 C22_3 1_555 1_555
N8_3 H9_3 1_555 1_555
C23_3 N7_2 1_555 1_555
H12_3 C23_3 1_555 1_555
C24_3 N8_3 1_555 1_555
N8_3 C23_3 1_555 1_555
C22_3 C24_3 1_555 1_555
O3_4 Tb1_2 1_555 1_555
O9_2 Tb1_2 1_555 1_555
O16_4 Tb1_2 1_555 1_555
O20_2 Tb1_2 1_555 1_555
O21_4 Tb1_2 1_555 1_555
O22_4 C36_4 1_555 1_555
N9_4 Ag2_2 1_555 1_555
N10_4 H10_4 1_555 1_555
C29_4 C28_4 1_555 1_555
C30_4 C29_4 1_555 1_555
H14_4 C30_4 1_555 1_555
C31_4 N10_4 1_555 1_555
C32_4 N9_4 1_555 1_555
H15_4 C32_4 1_555 1_555
C33_4 N9_4 1_555 1_555
C34_4 C33_4 1_555 1_555
H16_4 C34_4 1_555 1_555
C35_4 C29_4 1_555 1_555
C36_4 O21_4 1_555 1_555
O20_2 C28_4 1_555 1_555
N10_4 C32_4 1_555 1_555
C30_4 C31_4 1_555 1_555
C31_4 C33_4 1_555 1_555
C34_4 C35_4 1_555 1_555
C35_4 C36_4 1_555 1_555
N5_2 C22_4 1_555 1_555
N8_4 H9_4 1_555 1_555
C23_4 N5_2 1_555 1_555
H12_4 C23_4 1_555 1_555
C24_4 N8_4 1_555 1_555
N8_4 C23_4 1_555 1_555
C22_4 C24_4 1_555 1_555
O9_2 C19_4 1_555 1_555
C19_4 O12_2 1_555 1_555
C20_4 C19_4 1_555 1_555
C21_4 C20_4 1_555 1_555
H11_4 C21_4 1_555 1_555
C26_4 C20_4 1_555 1_555
C25_4 C26_4 1_555 1_555
C26_4 C27_4 1_555 1_555
O10_2 C1_4 1_555 1_555
O2_4 C1_4 1_555 1_555
O4_4 C9_4 1_555 1_555
O7_4 C18_4 1_555 1_555
O8_4 C18_4 1_555 1_555
N6_2 C4_4 1_555 1_555
N2_4 H1_4 1_555 1_555
C1_4 C2_4 1_555 1_555
C2_4 C3_4 1_555 1_555
C3_4 H3_4 1_555 1_555
C4_4 C3_4 1_555 1_555
C5_4 N6_2 1_555 1_555
H4_4 C5_4 1_555 1_555
C6_4 N2_4 1_555 1_555
C7_4 C6_4 1_555 1_555
H5_4 C7_4 1_555 1_555
C8_4 C2_4 1_555 1_555
C10_4 O5_4 1_555 1_555
C11_4 C10_4 1_555 1_555
C12_4 C11_4 1_555 1_555
H6_4 C12_4 1_555 1_555
C15_4 N3_4 1_555 1_555
C16_4 C15_4 1_555 1_555
H8_4 C16_4 1_555 1_555
C17_4 C11_4 1_555 1_555
C18_4 C17_4 1_555 1_555
Tb3_2 O4_4 1_555 1_555
O14_2 Tb3_2 1_555 1_555
O6_4 C10_4 1_555 1_555
O6_4 Tb3_2 1_555 1_555
O7_4 Tb3_2 1_555 1_555
N2_4 C5_4 1_555 1_555
C4_4 C6_4 1_555 1_555
C7_4 C8_4 1_555 1_555
C8_4 C9_4 1_555 1_555
C12_4 C13_4 1_555 1_555
C13_4 C15_4 1_555 1_555
C16_4 C17_4 1_555 1_555
N4_4 H2_4 1_555 1_555
C14_4 N4_4 1_555 1_555
H7_4 C14_4 1_555 1_555

#END
