
###############################################################################
#
# This file contains modified crystal structure data generated from the
# MOF subset of the Cambridge Structural Database (CSD) v543 
# hosted by the Cambridge Crystallographic Data Centre (CCDC).
#
# This work is licensed under the Creative Commons
# Attribution-NonCommercial-ShareAlike 4.0 International License.
# To view a copy of this license, visit
# http://creativecommons.org/licenses/by-nc-sa/4.0/
# or send a letter to
# Creative Commons, PO Box 1866, Mountain View, CA 94042, USA.
#
# CIF created using the CSD Python API on 29 September 2022
# The structure has been converted into the P1 space group
# The structure has a 3D framework
# The original CSD entry BATTAV is in the rhombohedral crystal system
# The framework has been calculated to contain at least 10.0% void space
# The void calculation uses a probe of radius 1.32A, grid spacing 0.4
# The framework is charged, counterions have been retained in the structure
#
###############################################################################

data_BATTAV
_chemical_formula_moiety         '(C522 H540 Br54 Ce18 N54 O156 18-)n'
_symmetry_cell_setting           triclinic
_symmetry_space_group_name_H-M   'P 1'
_symmetry_Int_Tables_number      1
_space_group_name_Hall           'P 1'
loop_
_symmetry_equiv_pos_site_id
_symmetry_equiv_pos_as_xyz
1 x,y,z
_cell_length_a                   47.8756(7)
_cell_length_b                   47.8756(7)
_cell_length_c                   12.5311(2)
_cell_angle_alpha                90
_cell_angle_beta                 90
_cell_angle_gamma                120
_cell_volume                     24874.2
loop_
_atom_site_label
_atom_site_type_symbol
_atom_site_fract_x
_atom_site_fract_y
_atom_site_fract_z
N3 N 0.09022(13) 0.84232(13) 0.4303(4)
O5 O 0.12186(10) 0.82359(11) 0.7113(3)
O6 O 0.17325(11) 0.85224(11) 0.6538(4)
H4 H 0.007569 0.725633 0.629239
C13 C 0.14327(15) 0.83958(15) 0.6434(5)
C14 C 0.10033(16) 0.83725(15) 0.5256(5)
H9 H 0.085756 0.828531 0.583822
C15 C 0.13199(15) 0.84488(14) 0.5370(5)
C16 C 0.15314(17) 0.85740(17) 0.4511(5)
H10 H 0.174882 0.862267 0.457974
C17 C 0.14220(19) 0.86258(19) 0.3567(5)
H11 H 0.156388 0.871270 0.297513
C18 C 0.11053(19) 0.85519(19) 0.3474(6)
H12 H 0.103045 0.859220 0.282224
C19 C 0.01017(16) 0.71283(18) 0.4282(6)
H13 H 0.005635 0.695113 0.377845
H14 H 0.029221 0.716998 0.471170
C20 C 0.01165(15) 0.7643(2) 0.0810(6)
H15 H 0.009246 0.743877 0.053181
H16 H 0.029289 0.782477 0.041488
C21 C 0.05564(18) 0.83221(19) 0.4149(7)
H17 H 0.053717 0.848345 0.370953
H18 H 0.045355 0.830656 0.484877
C22 C 0.01797(15) 0.74226(18) 0.3663(6)
C23 C 0.01186(14) 0.74058(19) 0.2567(6)
H19 H 0.002424 0.720268 0.221700
C24 C 0.01916(15) 0.7674(2) 0.1995(6)
C25 C 0.03333(16) 0.7977(2) 0.2500(6)
H20 H 0.039015 0.816637 0.209818
C26 C 0.03895(16) 0.79963(19) 0.3596(6)
C27 C 0.03152(16) 0.77214(19) 0.4172(6)
H21 H 0.035653 0.773605 0.491724
Ce2 Ce 0.11756(3) 0.81561(2) 0.90677(3)
Ce3 Ce 0.21577(3) 0.85106(2) 0.75990(3)
N2 N 0.11778(21) 0.68636(13) 0.7344(4)
O1 O 0.16812(16) 0.79869(10) 0.7887(4)
O2 O 0.11821(16) 0.76682(11) 0.8408(4)
C7 C 0.14344(22) 0.77170(14) 0.8006(5)
C8 C 0.11767(22) 0.71343(14) 0.7653(5)
H5 H 0.098208 0.711862 0.790238
C9 C 0.14471(23) 0.74253(15) 0.7612(5)
C10 C 0.1734(3) 0.7444(2) 0.7243(7)
H6 H 0.192896 0.764431 0.720195
C11 C 0.1723(4) 0.7163(2) 0.6946(9)
H7 H 0.191522 0.716854 0.671216
C12 C 0.1445(3) 0.6878(2) 0.6979(7)
H8 H 0.144149 0.668724 0.674118
H11_2 H 0.048215 0.510279 0.964180
H12_2 H 0.089508 0.563622 0.948891
C20_2 C 0.08598(25) 0.65502(15) 0.7477(6)
H15_2 H 0.067964 0.657421 0.719848
H16_2 H 0.086521 0.637378 0.708155
C23_2 C 0.06205(24) 0.65481(14) 0.9234(6)
H19_2 H 0.051177 0.664243 0.888367
C24_2 C 0.08157(25) 0.64751(15) 0.8662(6)
C25_2 C 0.09770(26) 0.63334(16) 0.9167(6)
H20_2 H 0.110955 0.627652 0.876485
O7 O 0.09222(25) 0.84818(19) 0.8738(7)
C28 C 0.0697(6) 0.8515(4) 0.9081(12)
H22 H 0.051576 0.836555 0.861983
H23 H 0.075701 0.873298 0.882350
H24 H 0.036591 0.854362 0.993659
O9 O 0.06284(21) 0.77677(14) 0.8332(5)
H29 H 0.054141 0.758190 0.869092
H30 H 0.064379 0.770960 0.766580
O10 O 0.16521(16) 0.86798(10) 0.8780(4)
N1 N 0.27978(19) 0.98212(13) 0.4998(5)
N2_2 N 0.21555(21) 0.98031(13) 0.9323(4)
O2_2 O 0.21512(16) 0.89985(11) 0.8259(4)
O3 O 0.24649(16) 0.89052(10) 0.6175(3)
O4 O 0.22786(16) 0.86907(10) 0.4567(3)
C1 C 0.24115(22) 0.89178(15) 0.5202(5)
C2 C 0.26891(21) 0.95191(15) 0.5388(5)
H1 H 0.272868 0.949241 0.611377
C3 C 0.25232(21) 0.92520(15) 0.4752(5)
C4 C 0.24588(24) 0.92933(17) 0.3701(5)
H2 H 0.234001 0.911293 0.324651
C5 C 0.25744(27) 0.96096(19) 0.3328(6)
H3 H 0.253413 0.964371 0.261089
C6 C 0.27408(25) 0.98636(18) 0.3974(6)
C7_2 C 0.18989(22) 0.89497(14) 0.8661(5)
C8_2 C 0.21566(22) 0.95324(14) 0.9014(5)
H5_2 H 0.235125 0.954805 0.876429
C9_2 C 0.18862(23) 0.92414(15) 0.9055(5)
C10_2 C 0.1599(3) 0.9223(2) 0.9424(7)
H6_2 H 0.140437 0.902236 0.946472
C11_2 C 0.1610(4) 0.9504(2) 0.9721(9)
H7_2 H 0.141811 0.949813 0.995451
C12_2 C 0.1888(3) 0.9789(2) 0.9688(7)
H8_2 H 0.189184 0.997943 0.992549
O7_2 O 0.24111(25) 0.81849(19) 0.7929(7)
C28_2 C 0.2636(6) 0.8152(4) 0.7586(12)
H22_2 H 0.281757 0.830112 0.804684
H23_2 H 0.257632 0.793369 0.784317
C29 C 0.2794(4) 0.8171(3) 0.6605(12)
H24_2 H 0.296742 0.812305 0.673008
H25 H 0.288383 0.838833 0.630804
H26 H 0.263776 0.801356 0.610031
O8 O 0.20672(18) 0.81837(12) 0.5874(4)
H27 H 0.211502 0.831094 0.532337
H28 H 0.220472 0.811507 0.584654
O9_2 O 0.27049(21) 0.88990(14) 0.8335(5)
H29_2 H 0.279192 0.908477 0.797575
H30_2 H 0.268954 0.895707 0.900087
O11 O 0.21147(19) 0.84308(11) 0.9554(3)
H2_2 H 0.422040 0.989375 0.991318
C5_2 C 0.37237(19) 0.96315(19) 0.9995(6)
H3_2 H 0.368962 0.955709 0.927756
Ce1 Ce 0.85106(2) 0.63529(2) 0.24010(3)
N1_2 N 0.98212(13) 0.70234(14) 0.5002(5)
N2_3 N 0.98031(13) 0.76476(16) 0.0677(4)
O1_2 O 0.86798(10) 0.70277(13) 0.1220(4)
O2_3 O 0.89985(11) 0.68473(12) 0.1741(4)
O3_2 O 0.89052(10) 0.64403(12) 0.3825(3)
O4_2 O 0.86907(10) 0.64121(12) 0.5433(3)
C1_2 C 0.89178(15) 0.65063(16) 0.4798(5)
C2_2 C 0.95191(15) 0.68300(15) 0.4612(5)
H1_2 H 0.949241 0.676373 0.388623
C3_2 C 0.92520(15) 0.67288(15) 0.5248(5)
C4_2 C 0.92933(17) 0.68345(17) 0.6299(5)
H2_3 H 0.911293 0.677292 0.675349
C5_3 C 0.96096(19) 0.70352(19) 0.6672(6)
H3_3 H 0.964371 0.710958 0.738911
C6_2 C 0.98636(18) 0.71228(18) 0.6026(6)
C7_3 C 0.89497(14) 0.70508(17) 0.1339(5)
C8_3 C 0.95324(14) 0.73758(17) 0.0986(5)
H5_3 H 0.954805 0.719680 0.123571
C9_3 C 0.92414(15) 0.73552(17) 0.0945(5)
C10_3 C 0.9223(2) 0.7624(2) 0.0576(7)
H6_3 H 0.902236 0.761799 0.053528
C11_3 C 0.9504(2) 0.7894(3) 0.0279(9)
H7_3 H 0.949813 0.808002 0.004549
C12_3 C 0.9789(2) 0.7901(2) 0.0312(7)
H8_3 H 0.997943 0.808759 0.007451
O7_3 O 0.81849(19) 0.57738(17) 0.2071(7)
C28_3 C 0.8152(4) 0.5516(4) 0.2414(12)
H22_3 H 0.830112 0.548355 0.195316
H23_3 H 0.793369 0.535737 0.215683
C29_2 C 0.8171(3) 0.5377(3) 0.3395(12)
H24_3 H 0.812305 0.515563 0.326992
H25_2 H 0.838833 0.550450 0.369196
H26_2 H 0.801356 0.537580 0.389969
O8_2 O 0.81837(12) 0.61165(14) 0.4126(4)
H27_2 H 0.831094 0.619592 0.467663
H28_2 H 0.811507 0.591035 0.415346
O9_3 O 0.88990(14) 0.61941(16) 0.1665(5)
H29_3 H 0.908477 0.629285 0.202425
H30_3 H 0.895707 0.626753 0.099913
Ce4 Ce 0.81561(2) 0.69804(2) 0.09323(3)
O10_2 O 0.79869(10) 0.63056(13) 0.2113(4)
O11_2 O 0.84308(11) 0.63160(15) 0.0446(3)
O12 O 0.85224(11) 0.67899(16) 0.3462(4)
N3_2 N 0.75210(18) 0.90978(13) 0.4303(4)
O5_2 O 0.70173(15) 0.87814(10) 0.7113(3)
O6_2 O 0.67899(16) 0.82675(11) 0.6538(4)
H4_2 H 0.718064 0.992431 0.629239
C13_2 C 0.69631(21) 0.85673(15) 0.6434(5)
C14_2 C 0.73692(22) 0.89967(16) 0.5256(5)
H9_2 H 0.742775 0.914244 0.583822
C15_2 C 0.71289(21) 0.86801(15) 0.5370(5)
C16_2 C 0.70426(24) 0.84686(17) 0.4511(5)
H10_2 H 0.687385 0.825118 0.457974
C17_2 C 0.72038(27) 0.85780(19) 0.3567(5)
H11_3 H 0.714882 0.843612 0.297513
C18_2 C 0.74466(27) 0.88947(19) 0.3474(6)
H12_3 H 0.756175 0.896955 0.282224
C19_2 C 0.70266(24) 0.98983(16) 0.4282(6)
H13_2 H 0.689478 0.994365 0.377845
H14_2 H 0.687777 0.970779 0.471170
C20_3 C 0.75265(25) 0.98835(15) 0.0810(6)
H15_3 H 0.734631 0.990754 0.053181
H16_3 H 0.753188 0.970711 0.041488
C21_2 C 0.77657(26) 0.94436(18) 0.4149(7)
H17_2 H 0.794628 0.946283 0.370953
H18_2 H 0.785301 0.954645 0.484877
C22_2 C 0.72429(23) 0.98203(15) 0.3663(6)
C23_3 C 0.72872(24) 0.98814(14) 0.2567(6)
H19_3 H 0.717844 0.997576 0.221700
C24_3 C 0.74824(25) 0.98084(15) 0.1995(6)
C25_3 C 0.76437(26) 0.96667(16) 0.2500(6)
H20_3 H 0.777622 0.960985 0.209818
C26_2 C 0.76068(25) 0.96105(16) 0.3596(6)
C27_2 C 0.74062(25) 0.96848(16) 0.4172(6)
H21_2 H 0.737952 0.964347 0.491724
Ce2_2 Ce 0.69804(4) 0.88244(3) 0.90677(3)
Ce3_2 Ce 0.63529(4) 0.78423(3) 0.75990(3)
H2_4 H 0.989375 0.567334 0.008682
C5_4 C 0.96315(19) 0.59077(27) 0.0005(6)
H3_4 H 0.955709 0.586746 0.072244
N2_4 N 0.56857(16) 0.88222(21) 0.7344(4)
O1_3 O 0.63056(13) 0.83188(16) 0.7887(4)
O2_4 O 0.64860(12) 0.88179(16) 0.8408(4)
C7_4 C 0.62825(17) 0.85656(22) 0.8006(5)
C8_4 C 0.59575(17) 0.88233(22) 0.7653(5)
H5_4 H 0.613653 0.901792 0.790238
C9_4 C 0.59781(17) 0.85529(23) 0.7612(5)
C10_4 C 0.5709(2) 0.8266(3) 0.7243(7)
H6_4 H 0.571534 0.807104 0.720195
C11_4 C 0.5439(3) 0.8277(4) 0.6946(9)
H7_4 H 0.525331 0.808478 0.671216
C12_4 C 0.5432(2) 0.8555(3) 0.6979(7)
H8_4 H 0.524574 0.855851 0.674118
H11_4 H 0.462063 0.951785 0.964180
H12_4 H 0.474113 0.910492 0.948891
C20_4 C 0.5690(2) 0.91402(25) 0.7477(6)
H15_4 H 0.589456 0.932036 0.719848
H16_4 H 0.550856 0.913479 0.708155
C23_4 C 0.59275(19) 0.93795(24) 0.9234(6)
H19_4 H 0.613065 0.948823 0.888367
C24_4 C 0.5659(2) 0.91843(25) 0.8662(6)
C25_4 C 0.5356(2) 0.90230(26) 0.9167(6)
H20_4 H 0.516696 0.889045 0.876485
O7_4 O 0.75595(17) 0.90778(25) 0.8738(7)
C28_4 C 0.7817(4) 0.9303(6) 0.9081(12)
H22_4 H 0.784978 0.948424 0.861983
H23_4 H 0.797596 0.924299 0.882350
H24_4 H 0.817770 0.963409 0.993659
O9_4 O 0.71392(16) 0.93716(21) 0.8332(5)
H29_4 H 0.704048 0.945859 0.869092
H30_4 H 0.706580 0.935621 0.766580
O10_3 O 0.70277(13) 0.83479(16) 0.8780(4)
N1_3 N 0.70234(14) 0.72022(19) 0.4998(5)
N2_5 N 0.76476(16) 0.78445(21) 0.9323(4)
N3_3 N 0.84232(13) 0.75210(18) 0.5697(4)
O2_5 O 0.68473(12) 0.78488(16) 0.8259(4)
O3_3 O 0.64403(12) 0.75351(16) 0.6175(3)
O4_3 O 0.64121(12) 0.77214(16) 0.4567(3)
O5_3 O 0.82359(11) 0.70173(15) 0.2887(3)
C1_3 C 0.65063(16) 0.75885(22) 0.5202(5)
C2_3 C 0.68300(15) 0.73109(21) 0.5388(5)
H1_3 H 0.676373 0.727132 0.611377
C3_3 C 0.67288(15) 0.74768(21) 0.4752(5)
C4_3 C 0.68345(17) 0.75412(24) 0.3701(5)
H2_5 H 0.677292 0.765999 0.324651
C5_5 C 0.70352(19) 0.74256(27) 0.3328(6)
H3_5 H 0.710958 0.746587 0.261089
C6_3 C 0.71228(18) 0.72592(25) 0.3974(6)
H4_3 H 0.725633 0.718064 0.370761
C7_5 C 0.70508(17) 0.81011(22) 0.8661(5)
C8_5 C 0.73758(17) 0.78434(22) 0.9014(5)
H5_5 H 0.719680 0.764875 0.876429
C9_5 C 0.73552(17) 0.81138(23) 0.9055(5)
C10_5 C 0.7624(2) 0.8401(3) 0.9424(7)
H6_5 H 0.761799 0.859563 0.946472
C11_5 C 0.7894(3) 0.8390(4) 0.9721(9)
H7_5 H 0.808002 0.858189 0.995451
C12_5 C 0.7901(2) 0.8112(3) 0.9688(7)
H8_5 H 0.808759 0.810816 0.992549
C13_3 C 0.83958(15) 0.69631(21) 0.3566(5)
C14_3 C 0.83725(15) 0.73692(22) 0.4744(5)
H9_3 H 0.828531 0.742775 0.416178
C15_3 C 0.84488(14) 0.71289(21) 0.4630(5)
C16_3 C 0.85740(17) 0.70426(24) 0.5489(5)
H10_3 H 0.862267 0.687385 0.542026
C17_3 C 0.86258(19) 0.72038(27) 0.6433(5)
H11_5 H 0.871270 0.714882 0.702487
C18_3 C 0.85519(19) 0.74466(27) 0.6526(6)
H12_5 H 0.859220 0.756175 0.717776
C19_3 C 0.71283(18) 0.70266(24) 0.5718(6)
H13_3 H 0.695113 0.689478 0.622155
H14_3 H 0.716998 0.687777 0.528830
C20_5 C 0.7643(2) 0.75265(25) 0.9190(6)
H15_5 H 0.743877 0.734631 0.946819
H16_5 H 0.782477 0.753188 0.958512
C21_3 C 0.83221(19) 0.77657(26) 0.5851(7)
H17_3 H 0.848345 0.794628 0.629047
H18_3 H 0.830656 0.785301 0.515123
C22_3 C 0.74226(18) 0.72429(23) 0.6337(6)
C23_5 C 0.74058(19) 0.72872(24) 0.7433(6)
H19_5 H 0.720268 0.717844 0.778300
C24_5 C 0.7674(2) 0.74824(25) 0.8005(6)
C25_5 C 0.7977(2) 0.76437(26) 0.7500(6)
H20_5 H 0.816637 0.777622 0.790182
C26_3 C 0.79963(19) 0.76068(25) 0.6404(6)
C27_3 C 0.77214(19) 0.74062(25) 0.5828(6)
H21_3 H 0.773605 0.737952 0.508276
O7_5 O 0.57738(17) 0.75889(25) 0.7929(7)
C28_5 C 0.5516(4) 0.7364(6) 0.7586(12)
H22_5 H 0.548355 0.718243 0.804684
H23_5 H 0.535737 0.742368 0.784317
C29_3 C 0.5377(3) 0.7206(4) 0.6605(12)
H24_5 H 0.515563 0.703258 0.673008
H25_3 H 0.550450 0.711617 0.630804
H26_3 H 0.537580 0.736224 0.610031
O8_3 O 0.61165(14) 0.79328(18) 0.5874(4)
H27_3 H 0.619592 0.788498 0.532337
H28_3 H 0.591035 0.779528 0.584654
O9_5 O 0.61941(16) 0.72951(21) 0.8335(5)
H29_5 H 0.629285 0.720808 0.797575
H30_5 H 0.626753 0.731046 0.900087
O11_3 O 0.63160(15) 0.78853(19) 0.9554(3)
H2_6 H 0.567334 0.577960 0.991318
C5_6 C 0.59077(27) 0.62763(19) 0.9995(6)
H3_6 H 0.586746 0.631038 0.927756
N2_6 N 0.68636(13) 0.56857(16) 0.2656(4)
O2_6 O 0.76682(11) 0.64860(12) 0.1592(4)
C7_6 C 0.77170(14) 0.62825(17) 0.1994(5)
C8_6 C 0.71343(14) 0.59575(17) 0.2347(5)
H5_6 H 0.711862 0.613653 0.209762
C9_6 C 0.74253(15) 0.59781(17) 0.2388(5)
C10_6 C 0.7444(2) 0.5709(2) 0.2757(7)
H6_6 H 0.764431 0.571534 0.279805
C11_6 C 0.7163(2) 0.5439(3) 0.3054(9)
H7_6 H 0.716854 0.525331 0.328784
C12_6 C 0.6878(2) 0.5432(2) 0.3021(7)
H8_6 H 0.668724 0.524574 0.325882
H11_6 H 0.510279 0.462063 0.035820
H12_6 H 0.563622 0.474113 0.051109
C20_6 C 0.65502(15) 0.5690(2) 0.2523(6)
H15_6 H 0.657421 0.589456 0.280152
H16_6 H 0.637378 0.550856 0.291845
C23_6 C 0.65481(14) 0.59275(19) 0.0766(6)
H19_6 H 0.664243 0.613065 0.111633
C24_6 C 0.64751(15) 0.5659(2) 0.1338(6)
C25_6 C 0.63334(16) 0.5356(2) 0.0833(6)
H20_6 H 0.627652 0.516696 0.123515
O7_6 O 0.84818(19) 0.75595(17) 0.1262(7)
C28_6 C 0.8515(4) 0.7817(4) 0.0919(12)
H22_6 H 0.836555 0.784978 0.138017
H23_6 H 0.873298 0.797596 0.117650
H24_6 H 0.854362 0.817770 0.006341
O9_6 O 0.77677(14) 0.71392(16) 0.1668(5)
H29_6 H 0.758190 0.704048 0.130908
H30_6 H 0.770960 0.706580 0.233420
Ce1_2 Ce 0.36471(2) 0.21577(3) 0.24010(3)
N1_4 N 0.29766(14) 0.27978(19) 0.5002(5)
N2_7 N 0.23524(16) 0.21555(21) 0.0677(4)
N3_4 N 0.15768(13) 0.24790(18) 0.4303(4)
O1_4 O 0.29723(13) 0.16521(16) 0.1220(4)
O2_7 O 0.31527(12) 0.21512(16) 0.1741(4)
O3_4 O 0.35597(12) 0.24649(16) 0.3825(3)
O4_4 O 0.35879(12) 0.22786(16) 0.5433(3)
O5_4 O 0.17641(11) 0.29827(15) 0.7113(3)
O6_3 O 0.14776(11) 0.32101(16) 0.6538(4)
C1_4 C 0.34937(16) 0.24115(22) 0.4798(5)
C2_4 C 0.31700(15) 0.26891(21) 0.4612(5)
H1_4 H 0.323627 0.272868 0.388623
C3_4 C 0.32712(15) 0.25232(21) 0.5248(5)
C4_4 C 0.31655(17) 0.24588(24) 0.6299(5)
H2_7 H 0.322708 0.234001 0.675349
C5_7 C 0.29648(19) 0.25744(27) 0.6672(6)
H3_7 H 0.289042 0.253413 0.738911
C6_4 C 0.28772(18) 0.27408(25) 0.6026(6)
H4_4 H 0.274367 0.281936 0.629239
C7_7 C 0.29492(17) 0.18989(22) 0.1339(5)
C8_7 C 0.26242(17) 0.21566(22) 0.0986(5)
H5_7 H 0.280320 0.235125 0.123571
C9_7 C 0.26448(17) 0.18862(23) 0.0945(5)
C10_7 C 0.2376(2) 0.1599(3) 0.0576(7)
H6_7 H 0.238201 0.140437 0.053528
C11_7 C 0.2106(3) 0.1610(4) 0.0279(9)
H7_7 H 0.191998 0.141811 0.004549
C12_7 C 0.2099(2) 0.1888(3) 0.0312(7)
H8_7 H 0.191241 0.189184 0.007451
C13_4 C 0.16042(15) 0.30369(21) 0.6434(5)
C14_4 C 0.16275(15) 0.26308(22) 0.5256(5)
H9_4 H 0.171469 0.257225 0.583822
C15_4 C 0.15512(14) 0.28711(21) 0.5370(5)
C16_4 C 0.14260(17) 0.29574(24) 0.4511(5)
H10_4 H 0.137733 0.312615 0.457974
C17_4 C 0.13742(19) 0.27962(27) 0.3567(5)
H11_7 H 0.128730 0.285118 0.297513
C18_4 C 0.14481(19) 0.25534(27) 0.3474(6)
H12_7 H 0.140780 0.243825 0.282224
C19_4 C 0.28717(18) 0.29734(24) 0.4282(6)
H13_4 H 0.304887 0.310522 0.377845
H14_4 H 0.283002 0.312223 0.471170
C20_7 C 0.2357(2) 0.24735(25) 0.0810(6)
H15_7 H 0.256123 0.265369 0.053181
H16_7 H 0.217523 0.246812 0.041488
C21_4 C 0.16779(19) 0.22343(26) 0.4149(7)
H17_4 H 0.151655 0.205372 0.370953
H18_4 H 0.169344 0.214699 0.484877
C22_4 C 0.25774(18) 0.27571(23) 0.3663(6)
C23_7 C 0.25942(19) 0.27128(24) 0.2567(6)
H19_7 H 0.279732 0.282156 0.221700
C24_7 C 0.2326(2) 0.25176(25) 0.1995(6)
C25_7 C 0.2023(2) 0.23563(26) 0.2500(6)
H20_7 H 0.183363 0.222378 0.209818
C26_4 C 0.20037(19) 0.23932(25) 0.3596(6)
C27_4 C 0.22786(19) 0.25938(25) 0.4172(6)
H21_4 H 0.226395 0.262048 0.491724
O7_7 O 0.42262(17) 0.24111(25) 0.2071(7)
C28_7 C 0.4484(4) 0.2636(6) 0.2414(12)
H22_7 H 0.451645 0.281757 0.195316
H23_7 H 0.464263 0.257632 0.215683
C29_4 C 0.4623(3) 0.2794(4) 0.3395(12)
H24_7 H 0.484437 0.296742 0.326992
H25_4 H 0.449550 0.288383 0.369196
H26_4 H 0.462420 0.263776 0.389969
O8_4 O 0.38835(14) 0.20672(18) 0.4126(4)
H27_4 H 0.380408 0.211502 0.467663
H28_4 H 0.408965 0.220472 0.415346
O9_7 O 0.38059(16) 0.27049(21) 0.1665(5)
H29_7 H 0.370715 0.279192 0.202425
H30_7 H 0.373247 0.268954 0.099913
Ce2_3 Ce 0.18439(2) 0.30196(4) 0.90677(3)
Ce3_3 Ce 0.14894(2) 0.36471(4) 0.75990(3)
Ce4_2 Ce 0.30196(2) 0.11756(3) 0.09323(3)
O10_4 O 0.36944(13) 0.16812(16) 0.2113(4)
O11_4 O 0.36840(15) 0.21147(19) 0.0446(3)
O12_2 O 0.32101(16) 0.17325(19) 0.3462(4)
H2_8 H 0.432666 0.422040 0.008682
C5_8 C 0.40923(27) 0.37237(19) 0.0005(6)
H3_8 H 0.413254 0.368962 0.072244
N2_8 N 0.31364(13) 0.43143(16) 0.7344(4)
O1_5 O 0.20131(10) 0.36944(13) 0.7887(4)
O2_8 O 0.23318(11) 0.35140(12) 0.8408(4)
C7_8 C 0.22830(14) 0.37175(17) 0.8006(5)
C8_8 C 0.28657(14) 0.40425(17) 0.7653(5)
H5_8 H 0.288138 0.386347 0.790238
C9_8 C 0.25747(15) 0.40219(17) 0.7612(5)
C10_8 C 0.2556(2) 0.4291(2) 0.7243(7)
H6_8 H 0.235569 0.428466 0.720195
C11_8 C 0.2837(2) 0.4561(3) 0.6946(9)
H7_8 H 0.283146 0.474669 0.671216
C12_8 C 0.3122(2) 0.4568(2) 0.6979(7)
H8_8 H 0.331276 0.475426 0.674118
H11_8 H 0.489721 0.537937 0.964180
H12_8 H 0.436378 0.525887 0.948891
C20_8 C 0.34498(15) 0.4310(2) 0.7477(6)
H15_8 H 0.342579 0.410544 0.719848
H16_8 H 0.362622 0.449144 0.708155
C23_8 C 0.34519(14) 0.40725(19) 0.9234(6)
H19_8 H 0.335757 0.386935 0.888367
C24_8 C 0.35249(15) 0.4341(2) 0.8662(6)
C25_8 C 0.36666(16) 0.4644(2) 0.9167(6)
H20_8 H 0.372348 0.483304 0.876485
O7_8 O 0.15182(19) 0.24405(17) 0.8738(7)
C28_8 C 0.1485(4) 0.2183(4) 0.9081(12)
H22_8 H 0.163445 0.215022 0.861983
H23_8 H 0.126702 0.202404 0.882350
H24_8 H 0.145638 0.182230 0.993659
O9_8 O 0.22323(14) 0.28608(16) 0.8332(5)
H29_8 H 0.241810 0.295952 0.869092
H30_8 H 0.229040 0.293420 0.766580
O10_5 O 0.13202(10) 0.29723(13) 0.8780(4)
N1_5 N 0.01788(13) 0.29766(14) 0.4998(5)
N2_9 N 0.01969(13) 0.23524(16) 0.9323(4)
O2_9 O 0.10015(11) 0.31527(12) 0.8259(4)
O3_5 O 0.10948(10) 0.35597(12) 0.6175(3)
O4_5 O 0.13093(10) 0.35879(12) 0.4567(3)
C1_5 C 0.10822(15) 0.34937(16) 0.5202(5)
C2_5 C 0.04809(15) 0.31700(15) 0.5388(5)
H1_5 H 0.050759 0.323627 0.611377
C3_5 C 0.07480(15) 0.32712(15) 0.4752(5)
C4_5 C 0.07067(17) 0.31655(17) 0.3701(5)
H2_9 H 0.088707 0.322708 0.324651
C5_9 C 0.03904(19) 0.29648(19) 0.3328(6)
H3_9 H 0.035629 0.289042 0.261089
C6_5 C 0.01364(18) 0.28772(18) 0.3974(6)
C7_9 C 0.10503(14) 0.29492(17) 0.8661(5)
C8_9 C 0.04676(14) 0.26242(17) 0.9014(5)
H5_9 H 0.045195 0.280320 0.876429
C9_9 C 0.07586(15) 0.26448(17) 0.9055(5)
C10_9 C 0.0777(2) 0.2376(2) 0.9424(7)
H6_9 H 0.097764 0.238201 0.946472
C11_9 C 0.0496(2) 0.2106(3) 0.9721(9)
H7_9 H 0.050187 0.191998 0.995451
C12_9 C 0.0211(2) 0.2099(2) 0.9688(7)
H8_9 H 0.002057 0.191241 0.992549
O7_9 O 0.18151(19) 0.42262(17) 0.7929(7)
C28_9 C 0.1848(4) 0.4484(4) 0.7586(12)
H22_9 H 0.169888 0.451645 0.804684
H23_9 H 0.206631 0.464263 0.784317
C29_5 C 0.1829(3) 0.4623(3) 0.6605(12)
H24_9 H 0.187695 0.484437 0.673008
H25_5 H 0.161167 0.449550 0.630804
H26_5 H 0.198644 0.462420 0.610031
O8_5 O 0.18163(12) 0.38835(14) 0.5874(4)
H27_5 H 0.168906 0.380408 0.532337
H28_5 H 0.188493 0.408965 0.584654
O9_9 O 0.11010(14) 0.38059(16) 0.8335(5)
H29_9 H 0.091523 0.370715 0.797575
H30_9 H 0.104293 0.373247 0.900087
O11_5 O 0.15692(11) 0.36840(15) 0.9554(3)
N3_5 N 0.24790(18) 0.09022(13) 0.5697(4)
O5_5 O 0.29827(15) 0.12186(10) 0.2887(3)
H4_5 H 0.281936 0.007569 0.370761
C13_5 C 0.30369(21) 0.14327(15) 0.3566(5)
C14_5 C 0.26308(22) 0.10033(16) 0.4744(5)
H9_5 H 0.257225 0.085756 0.416178
C15_5 C 0.28711(21) 0.13199(15) 0.4630(5)
C16_5 C 0.29574(24) 0.15314(17) 0.5489(5)
H10_5 H 0.312615 0.174882 0.542026
C17_5 C 0.27962(27) 0.14220(19) 0.6433(5)
H11_9 H 0.285118 0.156388 0.702487
C18_5 C 0.25534(27) 0.11053(19) 0.6526(6)
H12_9 H 0.243825 0.103045 0.717776
C19_5 C 0.29734(24) 0.01017(16) 0.5718(6)
H13_5 H 0.310522 0.005635 0.622155
H14_5 H 0.312223 0.029221 0.528830
C20_9 C 0.24735(25) 0.01165(15) 0.9190(6)
H15_9 H 0.265369 0.009246 0.946819
H16_9 H 0.246812 0.029289 0.958512
C21_5 C 0.22343(26) 0.05564(18) 0.5851(7)
H17_5 H 0.205372 0.053717 0.629047
H18_5 H 0.214699 0.045355 0.515123
C22_5 C 0.27571(23) 0.01797(15) 0.6337(6)
C23_9 C 0.27128(24) 0.01186(14) 0.7433(6)
H19_9 H 0.282156 0.002424 0.778300
C24_9 C 0.25176(25) 0.01916(15) 0.8005(6)
C25_9 C 0.23563(26) 0.03333(16) 0.7500(6)
H20_9 H 0.222378 0.039015 0.790182
C26_5 C 0.23932(25) 0.03895(16) 0.6404(6)
C27_5 C 0.25938(25) 0.03152(16) 0.5828(6)
H21_5 H 0.262048 0.035653 0.508276
H2_10 H 0.010625 0.432666 0.991318
C5_10 C 0.03685(19) 0.40923(27) 0.9995(6)
H3_10 H 0.044291 0.413254 0.927756
N2_10 N 0.43143(16) 0.11778(21) 0.2656(4)
O2_10 O 0.35140(12) 0.11821(16) 0.1592(4)
C7_10 C 0.37175(17) 0.14344(22) 0.1994(5)
C8_10 C 0.40425(17) 0.11767(22) 0.2347(5)
H5_10 H 0.386347 0.098208 0.209762
C9_10 C 0.40219(17) 0.14471(23) 0.2388(5)
C10_10 C 0.4291(2) 0.1734(3) 0.2757(7)
H6_10 H 0.428466 0.192896 0.279805
C11_10 C 0.4561(3) 0.1723(4) 0.3054(9)
H7_10 H 0.474669 0.191522 0.328784
C12_10 C 0.4568(2) 0.1445(3) 0.3021(7)
H8_10 H 0.475426 0.144149 0.325882
H11_10 H 0.537937 0.048215 0.035820
H12_10 H 0.525887 0.089508 0.051109
C20_10 C 0.4310(2) 0.08598(25) 0.2523(6)
H15_10 H 0.410544 0.067964 0.280152
H16_10 H 0.449144 0.086521 0.291845
C23_10 C 0.40725(19) 0.06205(24) 0.0766(6)
H19_10 H 0.386935 0.051177 0.111633
C24_10 C 0.4341(2) 0.08157(25) 0.1338(6)
C25_10 C 0.4644(2) 0.09770(26) 0.0833(6)
H20_10 H 0.483304 0.110955 0.123515
O7_10 O 0.24405(17) 0.09222(25) 0.1262(7)
C28_10 C 0.2183(4) 0.0697(6) 0.0919(12)
H22_10 H 0.215022 0.051576 0.138017
H23_10 H 0.202404 0.075701 0.117650
H24_10 H 0.182230 0.036591 0.006341
O9_10 O 0.28608(16) 0.06284(21) 0.1668(5)
H29_10 H 0.295952 0.054141 0.130908
H30_10 H 0.293420 0.064379 0.233420
Ce1_3 Ce 0.78423(3) 0.14894(2) 0.24010(3)
N1_6 N 0.72022(19) 0.01788(13) 0.5002(5)
N2_11 N 0.78445(21) 0.01969(13) 0.0677(4)
O1_6 O 0.83479(16) 0.13202(10) 0.1220(4)
O2_11 O 0.78488(16) 0.10015(11) 0.1741(4)
O3_6 O 0.75351(16) 0.10948(10) 0.3825(3)
O4_6 O 0.77214(16) 0.13093(10) 0.5433(3)
C1_6 C 0.75885(22) 0.10822(15) 0.4798(5)
C2_6 C 0.73109(21) 0.04809(15) 0.4612(5)
H1_6 H 0.727132 0.050759 0.388623
C3_6 C 0.74768(21) 0.07480(15) 0.5248(5)
C4_6 C 0.75412(24) 0.07067(17) 0.6299(5)
H2_11 H 0.765999 0.088707 0.675349
C5_11 C 0.74256(27) 0.03904(19) 0.6672(6)
H3_11 H 0.746587 0.035629 0.738911
C6_6 C 0.72592(25) 0.01364(18) 0.6026(6)
C7_11 C 0.81011(22) 0.10503(14) 0.1339(5)
C8_11 C 0.78434(22) 0.04676(14) 0.0986(5)
H5_11 H 0.764875 0.045195 0.123571
C9_11 C 0.81138(23) 0.07586(15) 0.0945(5)
C10_11 C 0.8401(3) 0.0777(2) 0.0576(7)
H6_11 H 0.859563 0.097764 0.053528
C11_11 C 0.8390(4) 0.0496(2) 0.0279(9)
H7_11 H 0.858189 0.050187 0.004549
C12_11 C 0.8112(3) 0.0211(2) 0.0312(7)
H8_11 H 0.810816 0.002057 0.007451
O7_11 O 0.75889(25) 0.18151(19) 0.2071(7)
C28_11 C 0.7364(6) 0.1848(4) 0.2414(12)
H22_11 H 0.718243 0.169888 0.195316
H23_11 H 0.742368 0.206631 0.215683
C29_6 C 0.7206(4) 0.1829(3) 0.3395(12)
H24_11 H 0.703258 0.187695 0.326992
H25_6 H 0.711617 0.161167 0.369196
H26_6 H 0.736224 0.198644 0.389969
O8_6 O 0.79328(18) 0.18163(12) 0.4126(4)
H27_6 H 0.788498 0.168906 0.467663
H28_6 H 0.779528 0.188493 0.415346
O9_11 O 0.72951(21) 0.11010(14) 0.1665(5)
H29_11 H 0.720808 0.091523 0.202425
H30_11 H 0.731046 0.104293 0.099913
Ce4_3 Ce 0.88244(3) 0.18439(2) 0.09323(3)
O10_6 O 0.83188(16) 0.20131(10) 0.2113(4)
O11_6 O 0.78853(19) 0.15692(11) 0.0446(3)
O12_3 O 0.82675(19) 0.14776(11) 0.3462(4)
H2_12 H 0.577960 0.010625 0.008682
C5_12 C 0.62763(19) 0.03685(19) 0.0005(6)
H3_12 H 0.631038 0.044291 0.072244
N3_6 N 0.90978(13) 0.15768(13) 0.5697(4)
O5_6 O 0.87814(10) 0.17641(11) 0.2887(3)
H4_6 H 0.992431 0.274367 0.370761
C13_6 C 0.85673(15) 0.16042(15) 0.3566(5)
C14_6 C 0.89967(16) 0.16275(15) 0.4744(5)
H9_6 H 0.914244 0.171469 0.416178
C15_6 C 0.86801(15) 0.15512(14) 0.4630(5)
C16_6 C 0.84686(17) 0.14260(17) 0.5489(5)
H10_6 H 0.825118 0.137733 0.542026
C17_6 C 0.85780(19) 0.13742(19) 0.6433(5)
H11_11 H 0.843612 0.128730 0.702487
C18_6 C 0.88947(19) 0.14481(19) 0.6526(6)
H12_11 H 0.896955 0.140780 0.717776
C19_6 C 0.98983(16) 0.28717(18) 0.5718(6)
H13_6 H 0.994365 0.304887 0.622155
H14_6 H 0.970779 0.283002 0.528830
C20_11 C 0.98835(15) 0.2357(2) 0.9190(6)
H15_11 H 0.990754 0.256123 0.946819
H16_11 H 0.970711 0.217523 0.958512
C21_6 C 0.94436(18) 0.16779(19) 0.5851(7)
H17_6 H 0.946283 0.151655 0.629047
H18_6 H 0.954645 0.169344 0.515123
C22_6 C 0.98203(15) 0.25774(18) 0.6337(6)
C23_11 C 0.98814(14) 0.25942(19) 0.7433(6)
H19_11 H 0.997576 0.279732 0.778300
C24_11 C 0.98084(15) 0.2326(2) 0.8005(6)
C25_11 C 0.96667(16) 0.2023(2) 0.7500(6)
H20_11 H 0.960985 0.183363 0.790182
C26_6 C 0.96105(16) 0.20037(19) 0.6404(6)
C27_6 C 0.96848(16) 0.22786(19) 0.5828(6)
H21_6 H 0.964347 0.226395 0.508276
N2_12 N 0.88222(21) 0.31364(13) 0.2656(4)
O2_12 O 0.88179(16) 0.23318(11) 0.1592(4)
C7_12 C 0.85656(22) 0.22830(14) 0.1994(5)
C8_12 C 0.88233(22) 0.28657(14) 0.2347(5)
H5_12 H 0.901792 0.288138 0.209762
C9_12 C 0.85529(23) 0.25747(15) 0.2388(5)
C10_12 C 0.8266(3) 0.2556(2) 0.2757(7)
H6_12 H 0.807104 0.235569 0.279805
C11_12 C 0.8277(4) 0.2837(2) 0.3054(9)
H7_12 H 0.808478 0.283146 0.328784
C12_12 C 0.8555(3) 0.3122(2) 0.3021(7)
H8_12 H 0.855851 0.331276 0.325882
H11_12 H 0.951785 0.489721 0.035820
H12_12 H 0.910492 0.436378 0.051109
C20_12 C 0.91402(25) 0.34498(15) 0.2523(6)
H15_12 H 0.932036 0.342579 0.280152
H16_12 H 0.913479 0.362622 0.291845
C23_12 C 0.93795(24) 0.34519(14) 0.0766(6)
H19_12 H 0.948823 0.335757 0.111633
C24_12 C 0.91843(25) 0.35249(15) 0.1338(6)
C25_12 C 0.90230(26) 0.36666(16) 0.0833(6)
H20_12 H 0.889045 0.372348 0.123515
O7_12 O 0.90778(25) 0.15182(19) 0.1262(7)
C28_12 C 0.9303(6) 0.1485(4) 0.0919(12)
H22_12 H 0.948424 0.163445 0.138017
H23_12 H 0.924299 0.126702 0.117650
H24_12 H 0.963409 0.145638 0.006341
O9_12 O 0.93716(21) 0.22323(14) 0.1668(5)
H29_12 H 0.945859 0.241810 0.130908
H30_12 H 0.935621 0.229040 0.233420
N1_7 N 0.64879(13) 0.03567(14) 0.8335(5)
N2_13 N 0.64698(13) 0.09809(16) 0.4010(4)
N3_7 N 0.75689(13) 0.17565(13) 0.7636(4)
O1_7 O 0.53465(10) 0.03610(13) 0.4553(4)
O2_13 O 0.56652(11) 0.01806(12) 0.5074(4)
O6_4 O 0.83992(11) 0.18557(11) 0.9871(4)
C2_7 C 0.61858(15) 0.01633(15) 0.7945(5)
H1_7 H 0.615908 0.009706 0.721956
C3_7 C 0.59187(15) 0.00621(15) 0.8581(5)
C4_7 C 0.59600(17) 0.01678(17) 0.9632(5)
C6_7 C 0.65303(18) 0.04561(18) 0.9359(6)
H4_7 H 0.674236 0.058966 0.962572
C7_13 C 0.56164(14) 0.03841(17) 0.4672(5)
C8_13 C 0.61991(14) 0.07091(17) 0.4319(5)
H5_13 H 0.621472 0.053013 0.456904
C9_13 C 0.59081(15) 0.06885(17) 0.4278(5)
C10_13 C 0.5890(2) 0.0957(2) 0.3909(7)
H6_13 H 0.568903 0.095132 0.386861
C11_13 C 0.6171(2) 0.1227(3) 0.3612(9)
H7_13 H 0.616480 0.141335 0.337882
C12_13 C 0.6456(2) 0.1234(2) 0.3645(7)
H8_13 H 0.664610 0.142092 0.340784
C13_7 C 0.80994(15) 0.17291(15) 0.9767(5)
C14_7 C 0.76700(16) 0.17058(15) 0.8589(5)
H9_7 H 0.752423 0.161864 0.917155
C15_7 C 0.79866(15) 0.17821(14) 0.8703(5)
C16_7 C 0.81981(17) 0.19073(17) 0.7844(5)
H10_7 H 0.841549 0.195600 0.791307
C17_7 C 0.80887(19) 0.19591(19) 0.6900(5)
H11_13 H 0.823055 0.204603 0.630846
C18_7 C 0.77720(19) 0.18852(19) 0.6807(6)
H12_13 H 0.769712 0.192553 0.615557
C19_7 C 0.67684(16) 0.04616(18) 0.7615(6)
H13_7 H 0.672302 0.028446 0.711178
H14_7 H 0.695888 0.050331 0.804503
C20_13 C 0.67832(15) 0.0976(2) 0.4143(6)
H15_13 H 0.675913 0.077210 0.386514
H16_13 H 0.695956 0.115810 0.374821
C21_7 C 0.72231(18) 0.16554(19) 0.7482(7)
H17_7 H 0.720384 0.181678 0.704286
H18_7 H 0.712022 0.163989 0.818210
C22_7 C 0.68464(15) 0.07559(18) 0.6996(6)
C23_13 C 0.67853(14) 0.07391(19) 0.5900(6)
H19_13 H 0.669091 0.053601 0.555033
C24_13 C 0.68583(15) 0.1007(2) 0.5328(6)
C25_13 C 0.70000(16) 0.1310(2) 0.5833(6)
H20_13 H 0.705682 0.149970 0.543151
C26_7 C 0.70562(16) 0.13296(19) 0.6929(6)
C27_7 C 0.69819(16) 0.10547(19) 0.7505(6)
H21_7 H 0.702320 0.106938 0.825057
Ce4_4 Ce 0.48227(2) 0.03138(2) 0.42657(3)
O12_4 O 0.51891(11) 0.01232(16) 0.6795(4)
Ce1_4 Ce 0.51773(2) 0.96862(2) 0.57343(3)
O3_7 O 0.55719(10) 0.97736(12) 0.7158(3)
O4_7 O 0.53574(10) 0.97454(12) 0.8766(3)
C1_7 C 0.55845(15) 0.98396(16) 0.8131(5)
O7_13 O 0.48516(19) 0.91071(17) 0.5404(7)
C28_13 C 0.4819(4) 0.8849(4) 0.5747(12)
H22_13 H 0.496779 0.881688 0.528649
H23_13 H 0.460036 0.869070 0.549016
C29_7 C 0.4838(3) 0.8710(3) 0.6728(12)
H24_13 H 0.478972 0.848896 0.660325
H25_7 H 0.505500 0.883783 0.702529
H26_7 H 0.468023 0.870913 0.723302
O8_7 O 0.48504(12) 0.94498(14) 0.7459(4)
H27_7 H 0.497761 0.952925 0.800996
H28_7 H 0.478174 0.924368 0.748679
O9_13 O 0.55657(14) 0.95274(16) 0.4998(5)
H29_13 H 0.575144 0.962618 0.535758
H30_13 H 0.562374 0.960086 0.433246
O10_7 O 0.46535(10) 0.96390(13) 0.5447(4)
O11_7 O 0.50974(11) 0.96494(15) 0.3780(3)
Ce1_5 Ce 0.03138(2) 0.54910(3) 0.57343(3)
O3_8 O 0.02264(12) 0.57982(16) 0.7158(3)
O4_8 O 0.02546(12) 0.56119(16) 0.8766(3)
C1_8 C 0.01604(16) 0.57448(22) 0.8131(5)
O7_14 O 0.08929(17) 0.57444(25) 0.5404(7)
C28_14 C 0.1151(4) 0.5969(6) 0.5747(12)
H22_14 H 0.118312 0.615090 0.528649
H23_14 H 0.130930 0.590965 0.549016
C29_8 C 0.1290(3) 0.6127(4) 0.6728(12)
H24_14 H 0.151104 0.630075 0.660325
H25_8 H 0.116217 0.621716 0.702529
H26_8 H 0.129087 0.597109 0.723302
O8_8 O 0.05502(14) 0.54005(18) 0.7459(4)
H27_8 H 0.047075 0.544835 0.800996
H28_8 H 0.075632 0.553805 0.748679
O9_14 O 0.04726(16) 0.60382(21) 0.4998(5)
H29_14 H 0.037382 0.612525 0.535758
H30_14 H 0.039914 0.602287 0.433246
O10_8 O 0.03610(13) 0.50146(16) 0.5447(4)
O11_8 O 0.03506(15) 0.54481(19) 0.3780(3)
N1_8 N 0.96433(14) 0.61311(19) 0.8335(5)
N2_14 N 0.90191(16) 0.54888(21) 0.4010(4)
N3_8 N 0.82435(13) 0.58123(18) 0.7636(4)
O1_8 O 0.96390(13) 0.49854(16) 0.4553(4)
O2_14 O 0.98194(12) 0.54845(16) 0.5074(4)
O6_5 O 0.81443(11) 0.65434(16) 0.9871(4)
C2_8 C 0.98367(15) 0.60224(21) 0.7945(5)
H1_8 H 0.990294 0.606201 0.721956
C3_8 C 0.99379(15) 0.58565(21) 0.8581(5)
C4_8 C 0.98322(17) 0.57921(24) 0.9632(5)
C6_8 C 0.95439(18) 0.60741(25) 0.9359(6)
H4_8 H 0.941034 0.615269 0.962572
C7_14 C 0.96159(17) 0.52322(22) 0.4672(5)
C8_14 C 0.92909(17) 0.54899(22) 0.4319(5)
H5_14 H 0.946987 0.568458 0.456904
C9_14 C 0.93115(17) 0.52195(23) 0.4278(5)
C10_14 C 0.9043(2) 0.4932(3) 0.3909(7)
H6_14 H 0.904868 0.473770 0.386861
C11_14 C 0.8773(3) 0.4943(4) 0.3612(9)
H7_14 H 0.858665 0.475144 0.337882
C12_14 C 0.8766(2) 0.5221(3) 0.3645(7)
H8_14 H 0.857908 0.522517 0.340784
C13_8 C 0.82709(15) 0.63702(21) 0.9767(5)
C14_8 C 0.82942(15) 0.59641(22) 0.8589(5)
H9_8 H 0.838136 0.590558 0.917155
C15_8 C 0.82179(14) 0.62044(21) 0.8703(5)
C16_8 C 0.80927(17) 0.62907(24) 0.7844(5)
H10_8 H 0.804400 0.645948 0.791307
C17_8 C 0.80409(19) 0.61295(27) 0.6900(5)
H11_14 H 0.795397 0.618451 0.630846
C18_8 C 0.81148(19) 0.58867(27) 0.6807(6)
H12_14 H 0.807447 0.577158 0.615557
C19_8 C 0.95384(18) 0.63067(24) 0.7615(6)
H13_8 H 0.971554 0.643855 0.711178
H14_8 H 0.949669 0.645556 0.804503
C20_14 C 0.9024(2) 0.58068(25) 0.4143(6)
H15_14 H 0.922790 0.598702 0.386514
H16_14 H 0.884190 0.580145 0.374821
C21_8 C 0.83446(19) 0.55676(26) 0.7482(7)
H17_8 H 0.818322 0.538705 0.704286
H18_8 H 0.836011 0.548032 0.818210
C22_8 C 0.92441(18) 0.60904(23) 0.6996(6)
C23_14 C 0.92609(19) 0.60461(24) 0.5900(6)
H19_14 H 0.946399 0.615489 0.555033
C24_14 C 0.8993(2) 0.58509(25) 0.5328(6)
C25_14 C 0.8690(2) 0.56896(26) 0.5833(6)
H20_14 H 0.850030 0.555711 0.543151
C26_8 C 0.86704(19) 0.57265(25) 0.6929(6)
C27_8 C 0.89453(19) 0.59271(25) 0.7505(6)
H21_8 H 0.893062 0.595381 0.825057
Ce4_5 Ce 0.96862(2) 0.45090(3) 0.42657(3)
O12_5 O 0.98768(16) 0.50658(19) 0.6795(4)
Ce1_6 Ce 0.45090(3) 0.48227(2) 0.57343(3)
N1_9 N 0.38689(19) 0.35121(13) 0.8335(5)
N2_15 N 0.45112(21) 0.35302(13) 0.4010(4)
N3_9 N 0.41877(18) 0.24311(13) 0.7636(4)
O1_9 O 0.50146(16) 0.46535(10) 0.4553(4)
O2_15 O 0.45155(16) 0.43348(11) 0.5074(4)
O3_9 O 0.42018(16) 0.44281(10) 0.7158(3)
O4_9 O 0.43881(16) 0.46426(10) 0.8766(3)
O6_6 O 0.34566(16) 0.16008(11) 0.9871(4)
C1_9 C 0.42552(22) 0.44155(15) 0.8131(5)
C2_9 C 0.39776(21) 0.38142(15) 0.7945(5)
H1_9 H 0.393799 0.384092 0.721956
C3_9 C 0.41435(21) 0.40813(15) 0.8581(5)
C4_9 C 0.42079(24) 0.40400(17) 0.9632(5)
C6_9 C 0.39259(25) 0.34697(18) 0.9359(6)
H4_9 H 0.384731 0.325764 0.962572
C7_15 C 0.47678(22) 0.43836(14) 0.4672(5)
C8_15 C 0.45101(22) 0.38009(14) 0.4319(5)
H5_15 H 0.431542 0.378528 0.456904
C9_15 C 0.47805(23) 0.40919(15) 0.4278(5)
C10_15 C 0.5068(3) 0.4110(2) 0.3909(7)
H6_15 H 0.526230 0.431097 0.386861
C11_15 C 0.5057(4) 0.3829(2) 0.3612(9)
H7_15 H 0.524856 0.383520 0.337882
C12_15 C 0.4779(3) 0.3544(2) 0.3645(7)
H8_15 H 0.477483 0.335390 0.340784
C13_9 C 0.36298(21) 0.19006(15) 0.9767(5)
C14_9 C 0.40359(22) 0.23300(16) 0.8589(5)
H9_9 H 0.409442 0.247577 0.917155
C15_9 C 0.37956(21) 0.20134(15) 0.8703(5)
C16_9 C 0.37093(24) 0.18019(17) 0.7844(5)
H10_9 H 0.354052 0.158451 0.791307
C17_9 C 0.38705(27) 0.19113(19) 0.6900(5)
H11_15 H 0.381549 0.176945 0.630846
C18_9 C 0.41133(27) 0.22280(19) 0.6807(6)
H12_15 H 0.422842 0.230288 0.615557
C19_9 C 0.36933(24) 0.32316(16) 0.7615(6)
H13_9 H 0.356145 0.327698 0.711178
H14_9 H 0.354444 0.304112 0.804503
C20_15 C 0.41932(25) 0.32168(15) 0.4143(6)
H15_15 H 0.401298 0.324087 0.386514
H16_15 H 0.419855 0.304044 0.374821
C21_9 C 0.44324(26) 0.27769(18) 0.7482(7)
H17_9 H 0.461295 0.279616 0.704286
H18_9 H 0.451968 0.287978 0.818210
C22_9 C 0.39096(23) 0.31536(15) 0.6996(6)
C23_15 C 0.39539(24) 0.32147(14) 0.5900(6)
H19_15 H 0.384511 0.330909 0.555033
C24_15 C 0.41491(25) 0.31417(15) 0.5328(6)
C25_15 C 0.43104(26) 0.30000(16) 0.5833(6)
H20_15 H 0.444289 0.294318 0.543151
C26_9 C 0.42735(25) 0.29438(16) 0.6929(6)
C27_9 C 0.40729(25) 0.30181(16) 0.7505(6)
H21_9 H 0.404619 0.297680 0.825057
O7_15 O 0.42556(25) 0.51484(19) 0.5404(7)
C28_15 C 0.4031(6) 0.5181(4) 0.5747(12)
H22_15 H 0.384910 0.503221 0.528649
H23_15 H 0.409035 0.539964 0.549016
C29_9 C 0.3873(4) 0.5162(3) 0.6728(12)
H24_15 H 0.369925 0.521028 0.660325
H25_9 H 0.378284 0.494500 0.702529
H26_9 H 0.402891 0.531977 0.723302
O8_9 O 0.45995(18) 0.51496(12) 0.7459(4)
H27_9 H 0.455165 0.502239 0.800996
H28_9 H 0.446195 0.521826 0.748679
O9_15 O 0.39618(21) 0.44343(14) 0.4998(5)
H29_15 H 0.387475 0.424856 0.535758
H30_15 H 0.397713 0.437626 0.433246
Ce4_6 Ce 0.54910(3) 0.51773(2) 0.42657(3)
O10_9 O 0.49854(16) 0.53465(10) 0.5447(4)
O11_9 O 0.45519(19) 0.49026(11) 0.3780(3)
O12_6 O 0.49342(19) 0.48109(11) 0.6795(4)
N1_10 N 0.31545(13) 0.36901(14) 0.1669(5)
N3_10 N 0.42355(13) 0.50899(13) 0.0970(4)
O3_10 O 0.22385(10) 0.31070(12) 0.0492(3)
O4_10 O 0.20240(10) 0.30788(12) 0.2100(3)
O6_7 O 0.50658(11) 0.51891(11) 0.3205(4)
C1_10 C 0.22511(15) 0.31730(16) 0.1465(5)
C2_10 C 0.28524(15) 0.34967(15) 0.1279(5)
H1_10 H 0.282574 0.343040 0.055290
C3_10 C 0.25853(15) 0.33955(15) 0.1915(5)
C4_10 C 0.26266(17) 0.35012(17) 0.2966(5)
H2_13 H 0.244626 0.343959 0.342016
C5_13 C 0.29429(19) 0.37019(19) 0.3339(6)
H3_13 H 0.297704 0.377625 0.405578
C6_10 C 0.31969(18) 0.37895(18) 0.2693(6)
H4_10 H 0.340902 0.392300 0.295906
C13_10 C 0.47660(15) 0.50625(15) 0.3101(5)
C14_10 C 0.43366(16) 0.50392(15) 0.1923(5)
H9_10 H 0.419089 0.495198 0.250489
C15_10 C 0.46532(15) 0.51155(14) 0.2037(5)
C16_10 C 0.48647(17) 0.52407(17) 0.1178(5)
H10_10 H 0.508215 0.528934 0.124641
C17_10 C 0.47553(19) 0.52925(19) 0.0234(5)
C18_10 C 0.44386(19) 0.52186(19) 0.0141(6)
C19_10 C 0.34350(16) 0.37950(18) 0.0949(6)
H13_10 H 0.338968 0.361780 0.044512
H14_10 H 0.362554 0.383665 0.137837
C21_10 C 0.38897(18) 0.49888(19) 0.0816(7)
H17_10 H 0.387050 0.515012 0.037620
H18_10 H 0.378688 0.497323 0.151544
C22_10 C 0.35130(15) 0.40893(18) 0.0330(6)
C26_10 C 0.37228(16) 0.46630(19) 0.0263(6)
C27_10 C 0.36485(16) 0.43881(19) 0.0839(6)
H21_10 H 0.368986 0.440272 0.158391
C29_10 C 0.1504(3) 0.2044(3) 0.0062(12)
H25_10 H 0.172166 0.217117 0.035863
H26_10 H 0.134689 0.204247 0.056636
O8_10 O 0.15170(12) 0.27832(14) 0.0793(4)
H27_10 H 0.164427 0.286259 0.134330
H28_10 H 0.144840 0.257702 0.082013
O12_7 O 0.18557(11) 0.34566(16) 0.0129(4)
N1_11 N 0.63099(14) 0.94645(19) 0.1669(5)
N3_11 N 0.49101(13) 0.91457(18) 0.0970(4)
O3_11 O 0.68930(12) 0.91316(16) 0.0492(3)
O4_11 O 0.69212(12) 0.89453(16) 0.2100(3)
O6_8 O 0.48109(11) 0.98768(16) 0.3205(4)
C1_11 C 0.68270(16) 0.90782(22) 0.1465(5)
C2_11 C 0.65033(15) 0.93558(21) 0.1279(5)
H1_11 H 0.656960 0.939535 0.055290
C3_11 C 0.66045(15) 0.91899(21) 0.1915(5)
C4_11 C 0.64988(17) 0.91255(24) 0.2966(5)
H2_14 H 0.656041 0.900668 0.342016
C5_14 C 0.62981(19) 0.92411(27) 0.3339(6)
H3_14 H 0.622375 0.920080 0.405578
C6_11 C 0.62105(18) 0.94075(25) 0.2693(6)
H4_11 H 0.607700 0.948603 0.295906
C13_11 C 0.49375(15) 0.97036(21) 0.3101(5)
C14_11 C 0.49608(15) 0.92975(22) 0.1923(5)
H9_11 H 0.504802 0.923892 0.250489
C15_11 C 0.48845(14) 0.95378(21) 0.2037(5)
C16_11 C 0.47593(17) 0.96241(24) 0.1178(5)
H10_11 H 0.471066 0.979282 0.124641
C17_11 C 0.47075(19) 0.94629(27) 0.0234(5)
C18_11 C 0.47814(19) 0.92201(27) 0.0141(6)
C19_11 C 0.62050(18) 0.96401(24) 0.0949(6)
H13_11 H 0.638220 0.977189 0.044512
H14_11 H 0.616335 0.978890 0.137837
C21_11 C 0.50112(19) 0.89010(26) 0.0816(7)
H17_11 H 0.484988 0.872039 0.037620
H18_11 H 0.502677 0.881366 0.151544
C22_11 C 0.59107(18) 0.94238(23) 0.0330(6)
C26_11 C 0.53370(19) 0.90599(25) 0.0263(6)
C27_11 C 0.56119(19) 0.92605(25) 0.0839(6)
H21_11 H 0.559728 0.928715 0.158391
C29_11 C 0.7956(3) 0.9461(4) 0.0062(12)
H25_11 H 0.782883 0.955050 0.035863
H26_11 H 0.795753 0.930443 0.056636
O8_11 O 0.72168(14) 0.87339(18) 0.0793(4)
H27_11 H 0.713741 0.878169 0.134330
H28_11 H 0.742298 0.887139 0.082013
O12_8 O 0.65434(16) 0.83992(19) 0.0129(4)
N1_12 N 0.05355(19) 0.68455(13) 0.1669(5)
N3_12 N 0.08543(18) 0.57645(13) 0.0970(4)
O3_12 O 0.08684(16) 0.77615(10) 0.0492(3)
O4_12 O 0.10547(16) 0.79760(10) 0.2100(3)
O6_9 O 0.01232(16) 0.49342(11) 0.3205(4)
C1_12 C 0.09218(22) 0.77489(15) 0.1465(5)
C2_12 C 0.06442(21) 0.71476(15) 0.1279(5)
H1_12 H 0.060465 0.717426 0.055290
C3_12 C 0.08101(21) 0.74147(15) 0.1915(5)
C4_12 C 0.08745(24) 0.73734(17) 0.2966(5)
H2_15 H 0.099332 0.755374 0.342016
C5_15 C 0.07589(27) 0.70571(19) 0.3339(6)
H3_15 H 0.079920 0.702296 0.405578
C6_12 C 0.05925(25) 0.68031(18) 0.2693(6)
H4_12 H 0.051397 0.659098 0.295906
C13_12 C 0.02964(21) 0.52340(15) 0.3101(5)
C14_12 C 0.07025(22) 0.56634(16) 0.1923(5)
H9_12 H 0.076108 0.580911 0.250489
C15_12 C 0.04622(21) 0.53468(15) 0.2037(5)
C16_12 C 0.03759(24) 0.51353(17) 0.1178(5)
H10_12 H 0.020718 0.491785 0.124641
C17_12 C 0.05371(27) 0.52447(19) 0.0234(5)
C18_12 C 0.07799(27) 0.55614(19) 0.0141(6)
C19_12 C 0.03599(24) 0.65650(16) 0.0949(6)
H13_12 H 0.022811 0.661032 0.044512
H14_12 H 0.021110 0.637446 0.137837
C21_12 C 0.10990(26) 0.61103(18) 0.0816(7)
H17_12 H 0.127961 0.612950 0.037620
H18_12 H 0.118634 0.621312 0.151544
C22_12 C 0.05762(23) 0.64870(15) 0.0330(6)
C26_12 C 0.09401(25) 0.62772(16) 0.0263(6)
C27_12 C 0.07395(25) 0.63515(16) 0.0839(6)
H21_12 H 0.071285 0.631014 0.158391
C29_12 C 0.0539(4) 0.8496(3) 0.0062(12)
H25_12 H 0.044950 0.827834 0.035863
H26_12 H 0.069557 0.865311 0.056636
O8_12 O 0.12661(18) 0.84830(12) 0.0793(4)
H27_12 H 0.121831 0.835573 0.134330
H28_12 H 0.112861 0.855160 0.082013
O12_9 O 0.16008(19) 0.81443(11) 0.0129(4)
O3_13 O 0.44281(10) 0.02264(12) 0.2842(3)
O4_13 O 0.46426(10) 0.02546(12) 0.1234(3)
C1_13 C 0.44155(15) 0.01604(16) 0.1869(5)
O7_16 O 0.51484(19) 0.08929(17) 0.4596(7)
C28_16 C 0.5181(4) 0.1151(4) 0.4253(12)
H22_16 H 0.503221 0.118312 0.471351
H23_16 H 0.539964 0.130930 0.450984
C29_13 C 0.5162(3) 0.1290(3) 0.3272(12)
H24_16 H 0.521028 0.151104 0.339675
H25_13 H 0.494500 0.116217 0.297471
H26_13 H 0.531977 0.129087 0.276698
O8_13 O 0.51496(12) 0.05502(14) 0.2541(4)
H27_13 H 0.502239 0.047075 0.199004
H28_13 H 0.521826 0.075632 0.251321
O9_16 O 0.44343(14) 0.04726(16) 0.5002(5)
H29_16 H 0.424856 0.037382 0.464242
H30_16 H 0.437626 0.039914 0.566754
O11_10 O 0.49026(11) 0.03506(15) 0.6220(3)
N1_13 N 0.35121(13) 0.96433(14) 0.1665(5)
N2_16 N 0.35302(13) 0.90191(16) 0.5990(4)
N3_13 N 0.24311(13) 0.82435(13) 0.2364(4)
O2_16 O 0.43348(11) 0.98194(12) 0.4926(4)
C2_13 C 0.38142(15) 0.98367(15) 0.2055(5)
H1_13 H 0.384092 0.990294 0.278044
C3_13 C 0.40813(15) 0.99379(15) 0.1419(5)
C4_13 C 0.40400(17) 0.98322(17) 0.0368(5)
C6_13 C 0.34697(18) 0.95439(18) 0.0641(6)
H4_13 H 0.325764 0.941034 0.037428
C7_16 C 0.43836(14) 0.96159(17) 0.5328(5)
C8_16 C 0.38009(14) 0.92909(17) 0.5681(5)
H5_16 H 0.378528 0.946987 0.543096
C9_16 C 0.40919(15) 0.93115(17) 0.5722(5)
C10_16 C 0.4110(2) 0.9043(2) 0.6091(7)
H6_16 H 0.431097 0.904868 0.613139
C11_16 C 0.3829(2) 0.8773(3) 0.6388(9)
H7_16 H 0.383520 0.858665 0.662118
C12_16 C 0.3544(2) 0.8766(2) 0.6355(7)
H8_16 H 0.335390 0.857908 0.659216
C13_13 C 0.19006(15) 0.82709(15) 0.0233(5)
C14_13 C 0.23300(16) 0.82942(15) 0.1411(5)
H9_13 H 0.247577 0.838136 0.082845
C15_13 C 0.20134(15) 0.82179(14) 0.1297(5)
C16_13 C 0.18019(17) 0.80927(17) 0.2156(5)
H10_13 H 0.158451 0.804400 0.208693
C17_13 C 0.19113(19) 0.80409(19) 0.3100(5)
H11_16 H 0.176945 0.795397 0.369154
C18_13 C 0.22280(19) 0.81148(19) 0.3193(6)
H12_16 H 0.230288 0.807447 0.384443
C19_13 C 0.32316(16) 0.95384(18) 0.2385(6)
H13_13 H 0.327698 0.971554 0.288822
H14_13 H 0.304112 0.949669 0.195497
C20_16 C 0.32168(15) 0.9024(2) 0.5857(6)
H15_16 H 0.324087 0.922790 0.613486
H16_16 H 0.304044 0.884190 0.625179
C21_13 C 0.27769(18) 0.83446(19) 0.2518(7)
H17_13 H 0.279616 0.818322 0.295714
H18_13 H 0.287978 0.836011 0.181790
C22_13 C 0.31536(15) 0.92441(18) 0.3004(6)
C23_16 C 0.32147(14) 0.92609(19) 0.4100(6)
H19_16 H 0.330909 0.946399 0.444967
C24_16 C 0.31417(15) 0.8993(2) 0.4672(6)
C25_16 C 0.30000(16) 0.8690(2) 0.4167(6)
H20_16 H 0.294318 0.850030 0.456849
C26_13 C 0.29438(16) 0.86704(19) 0.3071(6)
C27_13 C 0.30181(16) 0.89453(19) 0.2495(6)
H21_13 H 0.297680 0.893062 0.174943
N1_14 N 0.03567(14) 0.38689(19) 0.1665(5)
N2_17 N 0.09809(16) 0.45112(21) 0.5990(4)
N3_14 N 0.17565(13) 0.41877(18) 0.2364(4)
O2_17 O 0.01806(12) 0.45155(16) 0.4926(4)
C2_14 C 0.01633(15) 0.39776(21) 0.2055(5)
H1_14 H 0.009706 0.393799 0.278044
C3_14 C 0.00621(15) 0.41435(21) 0.1419(5)
C4_14 C 0.01678(17) 0.42079(24) 0.0368(5)
C6_14 C 0.04561(18) 0.39259(25) 0.0641(6)
H4_14 H 0.058966 0.384731 0.037428
C7_17 C 0.03841(17) 0.47678(22) 0.5328(5)
C8_17 C 0.07091(17) 0.45101(22) 0.5681(5)
H5_17 H 0.053013 0.431542 0.543096
C9_17 C 0.06885(17) 0.47805(23) 0.5722(5)
C10_17 C 0.0957(2) 0.5068(3) 0.6091(7)
H6_17 H 0.095132 0.526230 0.613139
C11_17 C 0.1227(3) 0.5057(4) 0.6388(9)
H7_17 H 0.141335 0.524856 0.662118
C12_17 C 0.1234(2) 0.4779(3) 0.6355(7)
H8_17 H 0.142092 0.477483 0.659216
C13_14 C 0.17291(15) 0.36298(21) 0.0233(5)
C14_14 C 0.17058(15) 0.40359(22) 0.1411(5)
H9_14 H 0.161864 0.409442 0.082845
C15_14 C 0.17821(14) 0.37956(21) 0.1297(5)
C16_14 C 0.19073(17) 0.37093(24) 0.2156(5)
H10_14 H 0.195600 0.354052 0.208693
C17_14 C 0.19591(19) 0.38705(27) 0.3100(5)
H11_17 H 0.204603 0.381549 0.369154
C18_14 C 0.18852(19) 0.41133(27) 0.3193(6)
H12_17 H 0.192553 0.422842 0.384443
C19_14 C 0.04616(18) 0.36933(24) 0.2385(6)
H13_14 H 0.028446 0.356145 0.288822
H14_14 H 0.050331 0.354444 0.195497
C20_17 C 0.0976(2) 0.41932(25) 0.5857(6)
H15_17 H 0.077210 0.401298 0.613486
H16_17 H 0.115810 0.419855 0.625179
C21_14 C 0.16554(19) 0.44324(26) 0.2518(7)
H17_14 H 0.181678 0.461295 0.295714
H18_14 H 0.163989 0.451968 0.181790
C22_14 C 0.07559(18) 0.39096(23) 0.3004(6)
C23_17 C 0.07391(19) 0.39539(24) 0.4100(6)
H19_17 H 0.053601 0.384511 0.444967
C24_17 C 0.1007(2) 0.41491(25) 0.4672(6)
C25_17 C 0.1310(2) 0.43104(26) 0.4167(6)
H20_17 H 0.149970 0.444289 0.456849
C26_14 C 0.13296(19) 0.42735(25) 0.3071(6)
C27_14 C 0.10547(19) 0.40729(25) 0.2495(6)
H21_14 H 0.106938 0.404619 0.174943
O3_14 O 0.97736(12) 0.42018(16) 0.2842(3)
O4_14 O 0.97454(12) 0.43881(16) 0.1234(3)
C1_14 C 0.98396(16) 0.42552(22) 0.1869(5)
O7_17 O 0.91071(17) 0.42556(25) 0.4596(7)
C28_17 C 0.8849(4) 0.4031(6) 0.4253(12)
H22_17 H 0.881688 0.384910 0.471351
H23_17 H 0.869070 0.409035 0.450984
C29_14 C 0.8710(3) 0.3873(4) 0.3272(12)
H24_17 H 0.848896 0.369925 0.339675
H25_14 H 0.883783 0.378284 0.297471
H26_14 H 0.870913 0.402891 0.276698
O8_14 O 0.94498(14) 0.45995(18) 0.2541(4)
H27_14 H 0.952925 0.455165 0.199004
H28_14 H 0.924368 0.446195 0.251321
O9_17 O 0.95274(16) 0.39618(21) 0.5002(5)
H29_17 H 0.962618 0.387475 0.464242
H30_17 H 0.960086 0.397713 0.566754
O11_11 O 0.96494(15) 0.45519(19) 0.6220(3)
N1_15 N 0.61311(19) 0.64879(13) 0.1665(5)
N2_18 N 0.54888(21) 0.64698(13) 0.5990(4)
N3_15 N 0.58123(18) 0.75689(13) 0.2364(4)
O2_18 O 0.54845(16) 0.56652(11) 0.4926(4)
O3_15 O 0.57982(16) 0.55719(10) 0.2842(3)
O4_15 O 0.56119(16) 0.53574(10) 0.1234(3)
C1_15 C 0.57448(22) 0.55845(15) 0.1869(5)
C2_15 C 0.60224(21) 0.61858(15) 0.2055(5)
H1_15 H 0.606201 0.615908 0.278044
C3_15 C 0.58565(21) 0.59187(15) 0.1419(5)
C4_15 C 0.57921(24) 0.59600(17) 0.0368(5)
C6_15 C 0.60741(25) 0.65303(18) 0.0641(6)
H4_15 H 0.615269 0.674236 0.037428
C7_18 C 0.52322(22) 0.56164(14) 0.5328(5)
C8_18 C 0.54899(22) 0.61991(14) 0.5681(5)
H5_18 H 0.568458 0.621472 0.543096
C9_18 C 0.52195(23) 0.59081(15) 0.5722(5)
C10_18 C 0.4932(3) 0.5890(2) 0.6091(7)
H6_18 H 0.473770 0.568903 0.613139
C11_18 C 0.4943(4) 0.6171(2) 0.6388(9)
H7_18 H 0.475144 0.616480 0.662118
C12_18 C 0.5221(3) 0.6456(2) 0.6355(7)
H8_18 H 0.522517 0.664610 0.659216
C13_15 C 0.63702(21) 0.80994(15) 0.0233(5)
C14_15 C 0.59641(22) 0.76700(16) 0.1411(5)
H9_15 H 0.590558 0.752423 0.082845
C15_15 C 0.62044(21) 0.79866(15) 0.1297(5)
C16_15 C 0.62907(24) 0.81981(17) 0.2156(5)
H10_15 H 0.645948 0.841549 0.208693
C17_15 C 0.61295(27) 0.80887(19) 0.3100(5)
H11_18 H 0.618451 0.823055 0.369154
C18_15 C 0.58867(27) 0.77720(19) 0.3193(6)
H12_18 H 0.577158 0.769712 0.384443
C19_15 C 0.63067(24) 0.67684(16) 0.2385(6)
H13_15 H 0.643855 0.672302 0.288822
H14_15 H 0.645556 0.695888 0.195497
C20_18 C 0.58068(25) 0.67832(15) 0.5857(6)
H15_18 H 0.598702 0.675913 0.613486
H16_18 H 0.580145 0.695956 0.625179
C21_15 C 0.55676(26) 0.72231(18) 0.2518(7)
H17_15 H 0.538705 0.720384 0.295714
H18_15 H 0.548032 0.712022 0.181790
C22_15 C 0.60904(23) 0.68464(15) 0.3004(6)
C23_18 C 0.60461(24) 0.67853(14) 0.4100(6)
H19_18 H 0.615489 0.669091 0.444967
C24_18 C 0.58509(25) 0.68583(15) 0.4672(6)
C25_18 C 0.56896(26) 0.70000(16) 0.4167(6)
H20_18 H 0.555711 0.705682 0.456849
C26_15 C 0.57265(25) 0.70562(16) 0.3071(6)
C27_15 C 0.59271(25) 0.69819(16) 0.2495(6)
H21_15 H 0.595381 0.702320 0.174943
O7_18 O 0.57444(25) 0.48516(19) 0.4596(7)
C28_18 C 0.5969(6) 0.4819(4) 0.4253(12)
H22_18 H 0.615090 0.496779 0.471351
H23_18 H 0.590965 0.460036 0.450984
C29_15 C 0.6127(4) 0.4838(3) 0.3272(12)
H24_18 H 0.630075 0.478972 0.339675
H25_15 H 0.621716 0.505500 0.297471
H26_15 H 0.597109 0.468023 0.276698
O8_15 O 0.54005(18) 0.48504(12) 0.2541(4)
H27_15 H 0.544835 0.497761 0.199004
H28_15 H 0.553805 0.478174 0.251321
O9_18 O 0.60382(21) 0.55657(14) 0.5002(5)
H29_18 H 0.612525 0.575144 0.464242
H30_18 H 0.602287 0.562374 0.566754
O11_12 O 0.54481(19) 0.50974(11) 0.6220(3)
N1_16 N 0.68455(13) 0.63099(14) 0.8331(5)
N3_16 N 0.57645(13) 0.49101(13) 0.9030(4)
O3_16 O 0.77615(10) 0.68930(12) 0.9508(3)
O4_16 O 0.79760(10) 0.69212(12) 0.7900(3)
C1_16 C 0.77489(15) 0.68270(16) 0.8535(5)
C2_16 C 0.71476(15) 0.65033(15) 0.8721(5)
H1_16 H 0.717426 0.656960 0.944710
C3_16 C 0.74147(15) 0.66045(15) 0.8085(5)
C4_16 C 0.73734(17) 0.64988(17) 0.7034(5)
H2_16 H 0.755374 0.656041 0.657984
C5_16 C 0.70571(19) 0.62981(19) 0.6661(6)
H3_16 H 0.702296 0.622375 0.594422
C6_16 C 0.68031(18) 0.62105(18) 0.7307(6)
H4_16 H 0.659098 0.607700 0.704094
C13_16 C 0.52340(15) 0.49375(15) 0.6899(5)
C14_16 C 0.56634(16) 0.49608(15) 0.8077(5)
H9_16 H 0.580911 0.504802 0.749511
C15_16 C 0.53468(15) 0.48845(14) 0.7963(5)
C16_16 C 0.51353(17) 0.47593(17) 0.8822(5)
H10_16 H 0.491785 0.471066 0.875359
C17_16 C 0.52447(19) 0.47075(19) 0.9766(5)
C18_16 C 0.55614(19) 0.47814(19) 0.9859(6)
C19_16 C 0.65650(16) 0.62050(18) 0.9051(6)
H13_16 H 0.661032 0.638220 0.955488
H14_16 H 0.637446 0.616335 0.862163
C21_16 C 0.61103(18) 0.50112(19) 0.9184(7)
H17_16 H 0.612950 0.484988 0.962380
H18_16 H 0.621312 0.502677 0.848456
C22_16 C 0.64870(15) 0.59107(18) 0.9670(6)
C26_16 C 0.62772(16) 0.53370(19) 0.9737(6)
C27_16 C 0.63515(16) 0.56119(19) 0.9161(6)
H21_16 H 0.631014 0.559728 0.841609
C29_16 C 0.8496(3) 0.7956(3) 0.9938(12)
H25_16 H 0.827834 0.782883 0.964137
H26_16 H 0.865311 0.795753 0.943364
O8_16 O 0.84830(12) 0.72168(14) 0.9207(4)
H27_16 H 0.835573 0.713741 0.865670
H28_16 H 0.855160 0.742298 0.917987
N1_17 N 0.36901(14) 0.05355(19) 0.8331(5)
N3_17 N 0.50899(13) 0.08543(18) 0.9030(4)
O3_17 O 0.31070(12) 0.08684(16) 0.9508(3)
O4_17 O 0.30788(12) 0.10547(16) 0.7900(3)
C1_17 C 0.31730(16) 0.09218(22) 0.8535(5)
C2_17 C 0.34967(15) 0.06442(21) 0.8721(5)
H1_17 H 0.343040 0.060465 0.944710
C3_17 C 0.33955(15) 0.08101(21) 0.8085(5)
C4_17 C 0.35012(17) 0.08745(24) 0.7034(5)
H2_17 H 0.343959 0.099332 0.657984
C5_17 C 0.37019(19) 0.07589(27) 0.6661(6)
H3_17 H 0.377625 0.079920 0.594422
C6_17 C 0.37895(18) 0.05925(25) 0.7307(6)
H4_17 H 0.392300 0.051397 0.704094
C13_17 C 0.50625(15) 0.02964(21) 0.6899(5)
C14_17 C 0.50392(15) 0.07025(22) 0.8077(5)
H9_17 H 0.495198 0.076108 0.749511
C15_17 C 0.51155(14) 0.04622(21) 0.7963(5)
C16_17 C 0.52407(17) 0.03759(24) 0.8822(5)
H10_17 H 0.528934 0.020718 0.875359
C17_17 C 0.52925(19) 0.05371(27) 0.9766(5)
C18_17 C 0.52186(19) 0.07799(27) 0.9859(6)
C19_17 C 0.37950(18) 0.03599(24) 0.9051(6)
H13_17 H 0.361780 0.022811 0.955488
H14_17 H 0.383665 0.021110 0.862163
C21_17 C 0.49888(19) 0.10990(26) 0.9184(7)
H17_17 H 0.515012 0.127961 0.962380
H18_17 H 0.497323 0.118634 0.848456
C22_17 C 0.40893(18) 0.05762(23) 0.9670(6)
C26_17 C 0.46630(19) 0.09401(25) 0.9737(6)
C27_17 C 0.43881(19) 0.07395(25) 0.9161(6)
H21_17 H 0.440272 0.071285 0.841609
C29_17 C 0.2044(3) 0.0539(4) 0.9938(12)
H25_17 H 0.217117 0.044950 0.964137
H26_17 H 0.204247 0.069557 0.943364
O8_17 O 0.27832(14) 0.12661(18) 0.9207(4)
H27_17 H 0.286259 0.121831 0.865670
H28_17 H 0.257702 0.112861 0.917987
N1_18 N 0.94645(19) 0.31545(13) 0.8331(5)
N3_18 N 0.91457(18) 0.42355(13) 0.9030(4)
O3_18 O 0.91316(16) 0.22385(10) 0.9508(3)
O4_18 O 0.89453(16) 0.20240(10) 0.7900(3)
C1_18 C 0.90782(22) 0.22511(15) 0.8535(5)
C2_18 C 0.93558(21) 0.28524(15) 0.8721(5)
H1_18 H 0.939535 0.282574 0.944710
C3_18 C 0.91899(21) 0.25853(15) 0.8085(5)
C4_18 C 0.91255(24) 0.26266(17) 0.7034(5)
H2_18 H 0.900668 0.244626 0.657984
C5_18 C 0.92411(27) 0.29429(19) 0.6661(6)
H3_18 H 0.920080 0.297704 0.594422
C6_18 C 0.94075(25) 0.31969(18) 0.7307(6)
H4_18 H 0.948603 0.340902 0.704094
C13_18 C 0.97036(21) 0.47660(15) 0.6899(5)
C14_18 C 0.92975(22) 0.43366(16) 0.8077(5)
H9_18 H 0.923892 0.419089 0.749511
C15_18 C 0.95378(21) 0.46532(15) 0.7963(5)
C16_18 C 0.96241(24) 0.48647(17) 0.8822(5)
H10_18 H 0.979282 0.508215 0.875359
C17_18 C 0.94629(27) 0.47553(19) 0.9766(5)
C18_18 C 0.92201(27) 0.44386(19) 0.9859(6)
C19_18 C 0.96401(24) 0.34350(16) 0.9051(6)
H13_18 H 0.977189 0.338968 0.955488
H14_18 H 0.978890 0.362554 0.862163
C21_18 C 0.89010(26) 0.38897(18) 0.9184(7)
H17_18 H 0.872039 0.387050 0.962380
H18_18 H 0.881366 0.378688 0.848456
C22_18 C 0.94238(23) 0.35130(15) 0.9670(6)
C26_18 C 0.90599(25) 0.37228(16) 0.9737(6)
C27_18 C 0.92605(25) 0.36485(16) 0.9161(6)
H21_18 H 0.928715 0.368986 0.841609
C29_18 C 0.9461(4) 0.1504(3) 0.9938(12)
H25_18 H 0.955050 0.172166 0.964137
H26_18 H 0.930443 0.134689 0.943364
O8_18 O 0.87339(18) 0.15170(12) 0.9207(4)
H27_18 H 0.878169 0.164427 0.865670
H28_18 H 0.887139 0.144840 0.917987
Br1 Br 0.01264(6) 0.64533(6) 0.53575(19)
Br1_2 Br 0.35467(6) 0.36731(8) 0.53575(19)
Br1_3 Br 0.63269(8) 0.98736(6) 0.53575(19)
Br1_4 Br 0.67931(6) 0.97866(6) 0.86908(19)
Br1_5 Br 0.02134(6) 0.70064(8) 0.86908(19)
Br1_6 Br 0.29936(8) 0.32069(6) 0.86908(19)
Br1_7 Br 0.34597(6) 0.31200(6) 0.20242(19)
Br1_8 Br 0.68800(6) 0.03398(8) 0.20242(19)
Br1_9 Br 0.96602(8) 0.65403(6) 0.20242(19)
Br1_10 Br 0.98736(6) 0.35467(6) 0.46425(19)
Br1_11 Br 0.64533(6) 0.63269(8) 0.46425(19)
Br1_12 Br 0.36731(8) 0.01264(6) 0.46425(19)
Br1_13 Br 0.32069(6) 0.02134(6) 0.13092(19)
Br1_14 Br 0.97866(6) 0.29936(8) 0.13092(19)
Br1_15 Br 0.70064(8) 0.67931(6) 0.13092(19)
Br1_16 Br 0.65403(6) 0.68800(6) 0.79758(19)
Br1_17 Br 0.31200(6) 0.96602(8) 0.79758(19)
Br1_18 Br 0.03398(8) 0.34597(6) 0.79758(19)
Br2 Br 0.31454(15) 0.87061(12) 0.9709(4)
Br2_2 Br 0.12939(12) 0.44393(19) 0.9709(4)
Br2_3 Br 0.55607(19) 0.68546(15) 0.9709(4)
Br2_4 Br 0.98121(15) 0.20394(12) 0.3042(4)
Br2_5 Br 0.79606(12) 0.77726(19) 0.3042(4)
Br2_6 Br 0.22274(19) 0.01879(15) 0.3042(4)
Br2_7 Br 0.64787(15) 0.53728(12) 0.6376(4)
Br2_8 Br 0.46272(12) 0.11060(19) 0.6376(4)
Br2_9 Br 0.88940(19) 0.35213(15) 0.6376(4)
Br2_10 Br 0.68546(15) 0.12939(12) 0.0291(4)
Br2_11 Br 0.87061(12) 0.55607(19) 0.0291(4)
Br2_12 Br 0.44393(19) 0.31454(15) 0.0291(4)
Br2_13 Br 0.01879(15) 0.79606(12) 0.6958(4)
Br2_14 Br 0.20394(12) 0.22274(19) 0.6958(4)
Br2_15 Br 0.77726(19) 0.98121(15) 0.6958(4)
Br2_16 Br 0.35213(15) 0.46272(12) 0.3624(4)
Br2_17 Br 0.53728(12) 0.88940(19) 0.3624(4)
Br2_18 Br 0.11060(19) 0.64787(15) 0.3624(4)
Br3 Br 0.13591(8) 0.76908(9) 0.5245(2)
Br3_2 Br 0.23092(9) 0.36683(12) 0.5245(2)
Br3_3 Br 0.63317(12) 0.86409(8) 0.5245(2)
Br3_4 Br 0.80258(8) 0.10241(9) 0.8578(2)
Br3_5 Br 0.89759(9) 0.70016(12) 0.8578(2)
Br3_6 Br 0.29984(12) 0.19742(8) 0.8578(2)
Br3_7 Br 0.46924(8) 0.43575(9) 0.1912(2)
Br3_8 Br 0.56425(9) 0.03350(12) 0.1912(2)
Br3_9 Br 0.96650(12) 0.53076(8) 0.1912(2)
Br3_10 Br 0.86409(8) 0.23092(9) 0.4755(2)
Br3_11 Br 0.76908(9) 0.63317(12) 0.4755(2)
Br3_12 Br 0.36683(12) 0.13591(8) 0.4755(2)
Br3_13 Br 0.19742(8) 0.89759(9) 0.1422(2)
Br3_14 Br 0.10241(9) 0.29984(12) 0.1422(2)
Br3_15 Br 0.70016(12) 0.80258(8) 0.1422(2)
Br3_16 Br 0.53076(8) 0.56425(9) 0.8088(2)
Br3_17 Br 0.43575(9) 0.96650(12) 0.8088(2)
Br3_18 Br 0.03350(12) 0.46924(8) 0.8088(2)
loop_
_geom_bond_atom_site_label_1
_geom_bond_atom_site_label_2
_geom_bond_site_symmetry_1
_geom_bond_site_symmetry_2
N3 C14 1_555 1_555
O5 C13 1_555 1_555
O6 C13 1_555 1_555
C13 C15 1_555 1_555
C14 H9 1_555 1_555
C15 C14 1_555 1_555
C16 C15 1_555 1_555
H10 C16 1_555 1_555
C17 C16 1_555 1_555
H11 C17 1_555 1_555
C18 N3 1_555 1_555
H12 C18 1_555 1_555
H13 C19 1_555 1_555
H14 C19 1_555 1_555
H15 C20 1_555 1_555
H16 C20 1_555 1_555
C21 N3 1_555 1_555
H17 C21 1_555 1_555
H18 C21 1_555 1_555
C22 C19 1_555 1_555
C23 C22 1_555 1_555
H19 C23 1_555 1_555
C24 C20 1_555 1_555
C25 C24 1_555 1_555
H20 C25 1_555 1_555
C26 C21 1_555 1_555
C27 C22 1_555 1_555
H21 C27 1_555 1_555
Ce2 O5 1_555 1_555
Ce3 O6 1_555 1_555
C17 C18 1_555 1_555
C23 C24 1_555 1_555
C25 C26 1_555 1_555
C26 C27 1_555 1_555
Ce2 O2 1_555 1_555
N2 C8 1_555 1_555
O1 C7 1_555 1_555
O2 C7 1_555 1_555
C7 C9 1_555 1_555
C8 H5 1_555 1_555
C9 C8 1_555 1_555
C10 C9 1_555 1_555
H6 C10 1_555 1_555
C11 C10 1_555 1_555
H7 C11 1_555 1_555
C12 N2 1_555 1_555
H8 C12 1_555 1_555
C20_2 N2 1_555 1_555
H15_2 C20_2 1_555 1_555
H16_2 C20_2 1_555 1_555
H19_2 C23_2 1_555 1_555
C24_2 C20_2 1_555 1_555
C25_2 C24_2 1_555 1_555
H20_2 C25_2 1_555 1_555
O7 Ce2 1_555 1_555
C28 O7 1_555 1_555
H22 C28 1_555 1_555
H23 C28 1_555 1_555
O9 Ce2 1_555 1_555
H29 O9 1_555 1_555
H30 O9 1_555 1_555
Ce3 O1 1_555 1_555
O10 Ce2 1_555 1_555
C11 C12 1_555 1_555
C23_2 C24_2 1_555 1_555
Ce3 O2_2 1_555 1_555
N1 C2 1_555 1_555
N2_2 C8_2 1_555 1_555
O10 C7_2 1_555 1_555
O2_2 C7_2 1_555 1_555
O3 Ce3 1_555 1_555
O4 C1 1_555 1_555
C1 O3 1_555 1_555
C2 H1 1_555 1_555
C3 C1 1_555 1_555
C4 C3 1_555 1_555
H2 C4 1_555 1_555
C5 C4 1_555 1_555
H3 C5 1_555 1_555
C6 N1 1_555 1_555
C7_2 C9_2 1_555 1_555
C8_2 H5_2 1_555 1_555
C9_2 C8_2 1_555 1_555
C10_2 C9_2 1_555 1_555
H6_2 C10_2 1_555 1_555
C11_2 C10_2 1_555 1_555
H7_2 C11_2 1_555 1_555
C12_2 N2_2 1_555 1_555
H8_2 C12_2 1_555 1_555
O7_2 Ce3 1_555 1_555
C28_2 O7_2 1_555 1_555
H22_2 C28_2 1_555 1_555
H23_2 C28_2 1_555 1_555
C29 C28_2 1_555 1_555
H24_2 C29 1_555 1_555
H25 C29 1_555 1_555
H26 C29 1_555 1_555
O8 Ce3 1_555 1_555
H27 O8 1_555 1_555
H28 O8 1_555 1_555
O9_2 Ce3 1_555 1_555
H29_2 O9_2 1_555 1_555
H30_2 O9_2 1_555 1_555
O11 Ce3 1_555 1_555
C2 C3 1_555 1_555
C5 C6 1_555 1_555
C11_2 C12_2 1_555 1_555
H3_2 C5_2 1_555 1_555
Ce1 O2_3 1_555 1_555
N1_2 C2_2 1_555 1_555
N2_3 C8_3 1_555 1_555
O1_2 C7_3 1_555 1_555
O2_3 C7_3 1_555 1_555
O3_2 Ce1 1_555 1_555
O4_2 C1_2 1_555 1_555
C1_2 O3_2 1_555 1_555
C2_2 H1_2 1_555 1_555
C3_2 C1_2 1_555 1_555
C4_2 C3_2 1_555 1_555
H2_3 C4_2 1_555 1_555
C5_3 C4_2 1_555 1_555
H3_3 C5_3 1_555 1_555
C6_2 N1_2 1_555 1_555
C7_3 C9_3 1_555 1_555
C8_3 H5_3 1_555 1_555
C9_3 C8_3 1_555 1_555
C10_3 C9_3 1_555 1_555
H6_3 C10_3 1_555 1_555
C11_3 C10_3 1_555 1_555
H7_3 C11_3 1_555 1_555
C12_3 N2_3 1_555 1_555
H8_3 C12_3 1_555 1_555
O7_3 Ce1 1_555 1_555
C28_3 O7_3 1_555 1_555
H22_3 C28_3 1_555 1_555
H23_3 C28_3 1_555 1_555
C29_2 C28_3 1_555 1_555
H24_3 C29_2 1_555 1_555
H25_2 C29_2 1_555 1_555
H26_2 C29_2 1_555 1_555
O8_2 Ce1 1_555 1_555
H27_2 O8_2 1_555 1_555
H28_2 O8_2 1_555 1_555
O9_3 Ce1 1_555 1_555
H29_3 O9_3 1_555 1_555
H30_3 O9_3 1_555 1_555
Ce4 O1_2 1_555 1_555
O10_2 Ce1 1_555 1_555
O11_2 Ce1 1_555 1_555
O12 Ce1 1_555 1_555
C2_2 C3_2 1_555 1_555
C5_3 C6_2 1_555 1_555
C11_3 C12_3 1_555 1_555
N3_2 C14_2 1_555 1_555
O5_2 C13_2 1_555 1_555
O6_2 C13_2 1_555 1_555
C13_2 C15_2 1_555 1_555
C14_2 H9_2 1_555 1_555
C15_2 C14_2 1_555 1_555
C16_2 C15_2 1_555 1_555
H10_2 C16_2 1_555 1_555
C17_2 C16_2 1_555 1_555
H11_3 C17_2 1_555 1_555
C18_2 N3_2 1_555 1_555
H12_3 C18_2 1_555 1_555
H13_2 C19_2 1_555 1_555
H14_2 C19_2 1_555 1_555
H15_3 C20_3 1_555 1_555
H16_3 C20_3 1_555 1_555
C21_2 N3_2 1_555 1_555
H17_2 C21_2 1_555 1_555
H18_2 C21_2 1_555 1_555
C22_2 C19_2 1_555 1_555
C23_3 C22_2 1_555 1_555
H19_3 C23_3 1_555 1_555
C24_3 C20_3 1_555 1_555
C25_3 C24_3 1_555 1_555
H20_3 C25_3 1_555 1_555
C26_2 C21_2 1_555 1_555
C27_2 C22_2 1_555 1_555
H21_2 C27_2 1_555 1_555
Ce2_2 O5_2 1_555 1_555
Ce3_2 O6_2 1_555 1_555
C17_2 C18_2 1_555 1_555
C23_3 C24_3 1_555 1_555
C25_3 C26_2 1_555 1_555
C26_2 C27_2 1_555 1_555
H3_4 C5_4 1_555 1_555
Ce2_2 O2_4 1_555 1_555
N2_4 C8_4 1_555 1_555
O1_3 C7_4 1_555 1_555
O2_4 C7_4 1_555 1_555
C7_4 C9_4 1_555 1_555
C8_4 H5_4 1_555 1_555
C9_4 C8_4 1_555 1_555
C10_4 C9_4 1_555 1_555
H6_4 C10_4 1_555 1_555
C11_4 C10_4 1_555 1_555
H7_4 C11_4 1_555 1_555
C12_4 N2_4 1_555 1_555
H8_4 C12_4 1_555 1_555
C20_4 N2_4 1_555 1_555
H15_4 C20_4 1_555 1_555
H16_4 C20_4 1_555 1_555
H19_4 C23_4 1_555 1_555
C24_4 C20_4 1_555 1_555
C25_4 C24_4 1_555 1_555
H20_4 C25_4 1_555 1_555
O7_4 Ce2_2 1_555 1_555
C28_4 O7_4 1_555 1_555
H22_4 C28_4 1_555 1_555
H23_4 C28_4 1_555 1_555
O9_4 Ce2_2 1_555 1_555
H29_4 O9_4 1_555 1_555
H30_4 O9_4 1_555 1_555
Ce3_2 O1_3 1_555 1_555
O10_3 Ce2_2 1_555 1_555
C11_4 C12_4 1_555 1_555
C23_4 C24_4 1_555 1_555
Ce3_2 O2_5 1_555 1_555
N1_3 C2_3 1_555 1_555
N2_5 C8_5 1_555 1_555
N3_3 C14_3 1_555 1_555
O10_3 C7_5 1_555 1_555
O2_5 C7_5 1_555 1_555
O3_3 Ce3_2 1_555 1_555
O4_3 C1_3 1_555 1_555
O5_3 C13_3 1_555 1_555
O12 C13_3 1_555 1_555
C1_3 O3_3 1_555 1_555
C2_3 H1_3 1_555 1_555
C3_3 C1_3 1_555 1_555
C4_3 C3_3 1_555 1_555
H2_5 C4_3 1_555 1_555
C5_5 C4_3 1_555 1_555
H3_5 C5_5 1_555 1_555
C6_3 N1_3 1_555 1_555
H4_3 C6_3 1_555 1_555
C7_5 C9_5 1_555 1_555
C8_5 H5_5 1_555 1_555
C9_5 C8_5 1_555 1_555
C10_5 C9_5 1_555 1_555
H6_5 C10_5 1_555 1_555
C11_5 C10_5 1_555 1_555
H7_5 C11_5 1_555 1_555
C12_5 N2_5 1_555 1_555
H8_5 C12_5 1_555 1_555
C13_3 C15_3 1_555 1_555
C14_3 H9_3 1_555 1_555
C15_3 C14_3 1_555 1_555
C16_3 C15_3 1_555 1_555
H10_3 C16_3 1_555 1_555
C17_3 C16_3 1_555 1_555
H11_5 C17_3 1_555 1_555
C18_3 N3_3 1_555 1_555
H12_5 C18_3 1_555 1_555
C19_3 N1_3 1_555 1_555
H13_3 C19_3 1_555 1_555
H14_3 C19_3 1_555 1_555
C20_5 N2_5 1_555 1_555
H15_5 C20_5 1_555 1_555
H16_5 C20_5 1_555 1_555
C21_3 N3_3 1_555 1_555
H17_3 C21_3 1_555 1_555
H18_3 C21_3 1_555 1_555
C22_3 C19_3 1_555 1_555
C23_5 C22_3 1_555 1_555
H19_5 C23_5 1_555 1_555
C24_5 C20_5 1_555 1_555
C25_5 C24_5 1_555 1_555
H20_5 C25_5 1_555 1_555
C26_3 C21_3 1_555 1_555
C27_3 C22_3 1_555 1_555
H21_3 C27_3 1_555 1_555
O7_5 Ce3_2 1_555 1_555
C28_5 O7_5 1_555 1_555
H22_5 C28_5 1_555 1_555
H23_5 C28_5 1_555 1_555
C29_3 C28_5 1_555 1_555
H24_5 C29_3 1_555 1_555
H25_3 C29_3 1_555 1_555
H26_3 C29_3 1_555 1_555
O8_3 Ce3_2 1_555 1_555
H27_3 O8_3 1_555 1_555
H28_3 O8_3 1_555 1_555
O9_5 Ce3_2 1_555 1_555
H29_5 O9_5 1_555 1_555
H30_5 O9_5 1_555 1_555
Ce4 O5_3 1_555 1_555
O11_3 Ce3_2 1_555 1_555
C2_3 C3_3 1_555 1_555
C5_5 C6_3 1_555 1_555
C11_5 C12_5 1_555 1_555
C17_3 C18_3 1_555 1_555
C23_5 C24_5 1_555 1_555
C25_5 C26_3 1_555 1_555
C26_3 C27_3 1_555 1_555
H3_6 C5_6 1_555 1_555
Ce4 O2_6 1_555 1_555
N2_6 C8_6 1_555 1_555
O10_2 C7_6 1_555 1_555
O2_6 C7_6 1_555 1_555
C7_6 C9_6 1_555 1_555
C8_6 H5_6 1_555 1_555
C9_6 C8_6 1_555 1_555
C10_6 C9_6 1_555 1_555
H6_6 C10_6 1_555 1_555
C11_6 C10_6 1_555 1_555
H7_6 C11_6 1_555 1_555
C12_6 N2_6 1_555 1_555
H8_6 C12_6 1_555 1_555
C20_6 N2_6 1_555 1_555
H15_6 C20_6 1_555 1_555
H16_6 C20_6 1_555 1_555
H19_6 C23_6 1_555 1_555
C24_6 C20_6 1_555 1_555
C25_6 C24_6 1_555 1_555
H20_6 C25_6 1_555 1_555
O7_6 Ce4 1_555 1_555
C28_6 O7_6 1_555 1_555
H22_6 C28_6 1_555 1_555
H23_6 C28_6 1_555 1_555
O9_6 Ce4 1_555 1_555
H29_6 O9_6 1_555 1_555
H30_6 O9_6 1_555 1_555
C11_6 C12_6 1_555 1_555
C23_6 C24_6 1_555 1_555
Ce1_2 O2_7 1_555 1_555
N1_4 C2_4 1_555 1_555
N2_7 C8_7 1_555 1_555
N3_4 C14_4 1_555 1_555
O1_4 C7_7 1_555 1_555
O2_7 C7_7 1_555 1_555
O3_4 Ce1_2 1_555 1_555
O4_4 C1_4 1_555 1_555
O5_4 C13_4 1_555 1_555
O6_3 C13_4 1_555 1_555
C1_4 O3_4 1_555 1_555
C2_4 H1_4 1_555 1_555
C3_4 C1_4 1_555 1_555
C4_4 C3_4 1_555 1_555
H2_7 C4_4 1_555 1_555
C5_7 C4_4 1_555 1_555
H3_7 C5_7 1_555 1_555
C6_4 N1_4 1_555 1_555
H4_4 C6_4 1_555 1_555
C7_7 C9_7 1_555 1_555
C8_7 H5_7 1_555 1_555
C9_7 C8_7 1_555 1_555
C10_7 C9_7 1_555 1_555
H6_7 C10_7 1_555 1_555
C11_7 C10_7 1_555 1_555
H7_7 C11_7 1_555 1_555
C12_7 N2_7 1_555 1_555
H8_7 C12_7 1_555 1_555
C13_4 C15_4 1_555 1_555
C14_4 H9_4 1_555 1_555
C15_4 C14_4 1_555 1_555
C16_4 C15_4 1_555 1_555
H10_4 C16_4 1_555 1_555
C17_4 C16_4 1_555 1_555
H11_7 C17_4 1_555 1_555
C18_4 N3_4 1_555 1_555
H12_7 C18_4 1_555 1_555
C19_4 N1_4 1_555 1_555
H13_4 C19_4 1_555 1_555
H14_4 C19_4 1_555 1_555
C20_7 N2_7 1_555 1_555
H15_7 C20_7 1_555 1_555
H16_7 C20_7 1_555 1_555
C21_4 N3_4 1_555 1_555
H17_4 C21_4 1_555 1_555
H18_4 C21_4 1_555 1_555
C22_4 C19_4 1_555 1_555
C23_7 C22_4 1_555 1_555
H19_7 C23_7 1_555 1_555
C24_7 C20_7 1_555 1_555
C25_7 C24_7 1_555 1_555
H20_7 C25_7 1_555 1_555
C26_4 C21_4 1_555 1_555
C27_4 C22_4 1_555 1_555
H21_4 C27_4 1_555 1_555
O7_7 Ce1_2 1_555 1_555
C28_7 O7_7 1_555 1_555
H22_7 C28_7 1_555 1_555
H23_7 C28_7 1_555 1_555
C29_4 C28_7 1_555 1_555
H24_7 C29_4 1_555 1_555
H25_4 C29_4 1_555 1_555
H26_4 C29_4 1_555 1_555
O8_4 Ce1_2 1_555 1_555
H27_4 O8_4 1_555 1_555
H28_4 O8_4 1_555 1_555
O9_7 Ce1_2 1_555 1_555
H29_7 O9_7 1_555 1_555
H30_7 O9_7 1_555 1_555
Ce2_3 O5_4 1_555 1_555
Ce3_3 O6_3 1_555 1_555
Ce4_2 O1_4 1_555 1_555
O10_4 Ce1_2 1_555 1_555
O11_4 Ce1_2 1_555 1_555
O12_2 Ce1_2 1_555 1_555
C2_4 C3_4 1_555 1_555
C5_7 C6_4 1_555 1_555
C11_7 C12_7 1_555 1_555
C17_4 C18_4 1_555 1_555
C23_7 C24_7 1_555 1_555
C25_7 C26_4 1_555 1_555
C26_4 C27_4 1_555 1_555
H3_8 C5_8 1_555 1_555
Ce2_3 O2_8 1_555 1_555
N2_8 C8_8 1_555 1_555
O1_5 C7_8 1_555 1_555
O2_8 C7_8 1_555 1_555
C7_8 C9_8 1_555 1_555
C8_8 H5_8 1_555 1_555
C9_8 C8_8 1_555 1_555
C10_8 C9_8 1_555 1_555
H6_8 C10_8 1_555 1_555
C11_8 C10_8 1_555 1_555
H7_8 C11_8 1_555 1_555
C12_8 N2_8 1_555 1_555
H8_8 C12_8 1_555 1_555
C20_8 N2_8 1_555 1_555
H15_8 C20_8 1_555 1_555
H16_8 C20_8 1_555 1_555
H19_8 C23_8 1_555 1_555
C24_8 C20_8 1_555 1_555
C25_8 C24_8 1_555 1_555
H20_8 C25_8 1_555 1_555
O7_8 Ce2_3 1_555 1_555
C28_8 O7_8 1_555 1_555
H22_8 C28_8 1_555 1_555
H23_8 C28_8 1_555 1_555
O9_8 Ce2_3 1_555 1_555
H29_8 O9_8 1_555 1_555
H30_8 O9_8 1_555 1_555
Ce3_3 O1_5 1_555 1_555
O10_5 Ce2_3 1_555 1_555
C11_8 C12_8 1_555 1_555
C23_8 C24_8 1_555 1_555
Ce3_3 O2_9 1_555 1_555
N1_5 C2_5 1_555 1_555
N2_9 C8_9 1_555 1_555
O10_5 C7_9 1_555 1_555
O2_9 C7_9 1_555 1_555
O3_5 Ce3_3 1_555 1_555
O4_5 C1_5 1_555 1_555
C1_5 O3_5 1_555 1_555
C2_5 H1_5 1_555 1_555
C3_5 C1_5 1_555 1_555
C4_5 C3_5 1_555 1_555
H2_9 C4_5 1_555 1_555
C5_9 C4_5 1_555 1_555
H3_9 C5_9 1_555 1_555
C6_5 N1_5 1_555 1_555
C7_9 C9_9 1_555 1_555
C8_9 H5_9 1_555 1_555
C9_9 C8_9 1_555 1_555
C10_9 C9_9 1_555 1_555
H6_9 C10_9 1_555 1_555
C11_9 C10_9 1_555 1_555
H7_9 C11_9 1_555 1_555
C12_9 N2_9 1_555 1_555
H8_9 C12_9 1_555 1_555
O7_9 Ce3_3 1_555 1_555
C28_9 O7_9 1_555 1_555
H22_9 C28_9 1_555 1_555
H23_9 C28_9 1_555 1_555
C29_5 C28_9 1_555 1_555
H24_9 C29_5 1_555 1_555
H25_5 C29_5 1_555 1_555
H26_5 C29_5 1_555 1_555
O8_5 Ce3_3 1_555 1_555
H27_5 O8_5 1_555 1_555
H28_5 O8_5 1_555 1_555
O9_9 Ce3_3 1_555 1_555
H29_9 O9_9 1_555 1_555
H30_9 O9_9 1_555 1_555
O11_5 Ce3_3 1_555 1_555
C2_5 C3_5 1_555 1_555
C5_9 C6_5 1_555 1_555
C11_9 C12_9 1_555 1_555
N3_5 C14_5 1_555 1_555
O5_5 C13_5 1_555 1_555
O12_2 C13_5 1_555 1_555
C13_5 C15_5 1_555 1_555
C14_5 H9_5 1_555 1_555
C15_5 C14_5 1_555 1_555
C16_5 C15_5 1_555 1_555
H10_5 C16_5 1_555 1_555
C17_5 C16_5 1_555 1_555
H11_9 C17_5 1_555 1_555
C18_5 N3_5 1_555 1_555
H12_9 C18_5 1_555 1_555
H13_5 C19_5 1_555 1_555
H14_5 C19_5 1_555 1_555
H15_9 C20_9 1_555 1_555
H16_9 C20_9 1_555 1_555
C21_5 N3_5 1_555 1_555
H17_5 C21_5 1_555 1_555
H18_5 C21_5 1_555 1_555
C22_5 C19_5 1_555 1_555
C23_9 C22_5 1_555 1_555
H19_9 C23_9 1_555 1_555
C24_9 C20_9 1_555 1_555
C25_9 C24_9 1_555 1_555
H20_9 C25_9 1_555 1_555
C26_5 C21_5 1_555 1_555
C27_5 C22_5 1_555 1_555
H21_5 C27_5 1_555 1_555
Ce4_2 O5_5 1_555 1_555
C17_5 C18_5 1_555 1_555
C23_9 C24_9 1_555 1_555
C25_9 C26_5 1_555 1_555
C26_5 C27_5 1_555 1_555
H3_10 C5_10 1_555 1_555
Ce4_2 O2_10 1_555 1_555
N2_10 C8_10 1_555 1_555
O10_4 C7_10 1_555 1_555
O2_10 C7_10 1_555 1_555
C7_10 C9_10 1_555 1_555
C8_10 H5_10 1_555 1_555
C9_10 C8_10 1_555 1_555
C10_10 C9_10 1_555 1_555
H6_10 C10_10 1_555 1_555
C11_10 C10_10 1_555 1_555
H7_10 C11_10 1_555 1_555
C12_10 N2_10 1_555 1_555
H8_10 C12_10 1_555 1_555
C20_10 N2_10 1_555 1_555
H15_10 C20_10 1_555 1_555
H16_10 C20_10 1_555 1_555
H19_10 C23_10 1_555 1_555
C24_10 C20_10 1_555 1_555
C25_10 C24_10 1_555 1_555
H20_10 C25_10 1_555 1_555
O7_10 Ce4_2 1_555 1_555
C28_10 O7_10 1_555 1_555
H22_10 C28_10 1_555 1_555
H23_10 C28_10 1_555 1_555
O9_10 Ce4_2 1_555 1_555
H29_10 O9_10 1_555 1_555
H30_10 O9_10 1_555 1_555
C11_10 C12_10 1_555 1_555
C23_10 C24_10 1_555 1_555
Ce1_3 O2_11 1_555 1_555
N1_6 C2_6 1_555 1_555
N2_11 C8_11 1_555 1_555
O1_6 C7_11 1_555 1_555
O2_11 C7_11 1_555 1_555
O3_6 Ce1_3 1_555 1_555
O4_6 C1_6 1_555 1_555
C1_6 O3_6 1_555 1_555
C2_6 H1_6 1_555 1_555
C3_6 C1_6 1_555 1_555
C4_6 C3_6 1_555 1_555
H2_11 C4_6 1_555 1_555
C5_11 C4_6 1_555 1_555
H3_11 C5_11 1_555 1_555
C6_6 N1_6 1_555 1_555
C7_11 C9_11 1_555 1_555
C8_11 H5_11 1_555 1_555
C9_11 C8_11 1_555 1_555
C10_11 C9_11 1_555 1_555
H6_11 C10_11 1_555 1_555
C11_11 C10_11 1_555 1_555
H7_11 C11_11 1_555 1_555
C12_11 N2_11 1_555 1_555
H8_11 C12_11 1_555 1_555
O7_11 Ce1_3 1_555 1_555
C28_11 O7_11 1_555 1_555
H22_11 C28_11 1_555 1_555
H23_11 C28_11 1_555 1_555
C29_6 C28_11 1_555 1_555
H24_11 C29_6 1_555 1_555
H25_6 C29_6 1_555 1_555
H26_6 C29_6 1_555 1_555
O8_6 Ce1_3 1_555 1_555
H27_6 O8_6 1_555 1_555
H28_6 O8_6 1_555 1_555
O9_11 Ce1_3 1_555 1_555
H29_11 O9_11 1_555 1_555
H30_11 O9_11 1_555 1_555
Ce4_3 O1_6 1_555 1_555
O10_6 Ce1_3 1_555 1_555
O11_6 Ce1_3 1_555 1_555
O12_3 Ce1_3 1_555 1_555
C2_6 C3_6 1_555 1_555
C5_11 C6_6 1_555 1_555
C11_11 C12_11 1_555 1_555
H3_12 C5_12 1_555 1_555
N3_6 C14_6 1_555 1_555
O5_6 C13_6 1_555 1_555
O12_3 C13_6 1_555 1_555
C13_6 C15_6 1_555 1_555
C14_6 H9_6 1_555 1_555
C15_6 C14_6 1_555 1_555
C16_6 C15_6 1_555 1_555
H10_6 C16_6 1_555 1_555
C17_6 C16_6 1_555 1_555
H11_11 C17_6 1_555 1_555
C18_6 N3_6 1_555 1_555
H12_11 C18_6 1_555 1_555
H13_6 C19_6 1_555 1_555
H14_6 C19_6 1_555 1_555
H15_11 C20_11 1_555 1_555
H16_11 C20_11 1_555 1_555
C21_6 N3_6 1_555 1_555
H17_6 C21_6 1_555 1_555
H18_6 C21_6 1_555 1_555
C22_6 C19_6 1_555 1_555
C23_11 C22_6 1_555 1_555
H19_11 C23_11 1_555 1_555
C24_11 C20_11 1_555 1_555
C25_11 C24_11 1_555 1_555
H20_11 C25_11 1_555 1_555
C26_6 C21_6 1_555 1_555
C27_6 C22_6 1_555 1_555
H21_6 C27_6 1_555 1_555
Ce4_3 O5_6 1_555 1_555
C17_6 C18_6 1_555 1_555
C23_11 C24_11 1_555 1_555
C25_11 C26_6 1_555 1_555
C26_6 C27_6 1_555 1_555
Ce4_3 O2_12 1_555 1_555
N2_12 C8_12 1_555 1_555
O10_6 C7_12 1_555 1_555
O2_12 C7_12 1_555 1_555
C7_12 C9_12 1_555 1_555
C8_12 H5_12 1_555 1_555
C9_12 C8_12 1_555 1_555
C10_12 C9_12 1_555 1_555
H6_12 C10_12 1_555 1_555
C11_12 C10_12 1_555 1_555
H7_12 C11_12 1_555 1_555
C12_12 N2_12 1_555 1_555
H8_12 C12_12 1_555 1_555
C20_12 N2_12 1_555 1_555
H15_12 C20_12 1_555 1_555
H16_12 C20_12 1_555 1_555
H19_12 C23_12 1_555 1_555
C24_12 C20_12 1_555 1_555
C25_12 C24_12 1_555 1_555
H20_12 C25_12 1_555 1_555
O7_12 Ce4_3 1_555 1_555
C28_12 O7_12 1_555 1_555
H22_12 C28_12 1_555 1_555
H23_12 C28_12 1_555 1_555
O9_12 Ce4_3 1_555 1_555
H29_12 O9_12 1_555 1_555
H30_12 O9_12 1_555 1_555
C11_12 C12_12 1_555 1_555
C23_12 C24_12 1_555 1_555
N1_7 C2_7 1_555 1_555
N2_13 C8_13 1_555 1_555
N3_7 C14_7 1_555 1_555
O1_7 C7_13 1_555 1_555
O2_13 C7_13 1_555 1_555
O6_4 C13_7 1_555 1_555
C2_7 H1_7 1_555 1_555
C4_7 C3_7 1_555 1_555
C6_7 N1_7 1_555 1_555
H4_7 C6_7 1_555 1_555
C7_13 C9_13 1_555 1_555
C8_13 H5_13 1_555 1_555
C9_13 C8_13 1_555 1_555
C10_13 C9_13 1_555 1_555
H6_13 C10_13 1_555 1_555
C11_13 C10_13 1_555 1_555
H7_13 C11_13 1_555 1_555
C12_13 N2_13 1_555 1_555
H8_13 C12_13 1_555 1_555
C13_7 C15_7 1_555 1_555
C14_7 H9_7 1_555 1_555
C15_7 C14_7 1_555 1_555
C16_7 C15_7 1_555 1_555
H10_7 C16_7 1_555 1_555
C17_7 C16_7 1_555 1_555
H11_13 C17_7 1_555 1_555
C18_7 N3_7 1_555 1_555
H12_13 C18_7 1_555 1_555
C19_7 N1_7 1_555 1_555
H13_7 C19_7 1_555 1_555
H14_7 C19_7 1_555 1_555
C20_13 N2_13 1_555 1_555
H15_13 C20_13 1_555 1_555
H16_13 C20_13 1_555 1_555
C21_7 N3_7 1_555 1_555
H17_7 C21_7 1_555 1_555
H18_7 C21_7 1_555 1_555
C22_7 C19_7 1_555 1_555
C23_13 C22_7 1_555 1_555
H19_13 C23_13 1_555 1_555
C24_13 C20_13 1_555 1_555
C25_13 C24_13 1_555 1_555
H20_13 C25_13 1_555 1_555
C26_7 C21_7 1_555 1_555
C27_7 C22_7 1_555 1_555
H21_7 C27_7 1_555 1_555
Ce4_4 O1_7 1_555 1_555
C2_7 C3_7 1_555 1_555
C11_13 C12_13 1_555 1_555
C17_7 C18_7 1_555 1_555
C23_13 C24_13 1_555 1_555
C25_13 C26_7 1_555 1_555
C26_7 C27_7 1_555 1_555
O3_7 Ce1_4 1_555 1_555
O4_7 C1_7 1_555 1_555
C1_7 O3_7 1_555 1_555
O7_13 Ce1_4 1_555 1_555
C28_13 O7_13 1_555 1_555
H22_13 C28_13 1_555 1_555
H23_13 C28_13 1_555 1_555
C29_7 C28_13 1_555 1_555
H24_13 C29_7 1_555 1_555
H25_7 C29_7 1_555 1_555
H26_7 C29_7 1_555 1_555
O8_7 Ce1_4 1_555 1_555
H27_7 O8_7 1_555 1_555
H28_7 O8_7 1_555 1_555
O9_13 Ce1_4 1_555 1_555
H29_13 O9_13 1_555 1_555
H30_13 O9_13 1_555 1_555
O10_7 Ce1_4 1_555 1_555
O11_7 Ce1_4 1_555 1_555
O3_8 Ce1_5 1_555 1_555
O4_8 C1_8 1_555 1_555
C1_8 O3_8 1_555 1_555
O7_14 Ce1_5 1_555 1_555
C28_14 O7_14 1_555 1_555
H22_14 C28_14 1_555 1_555
H23_14 C28_14 1_555 1_555
C29_8 C28_14 1_555 1_555
H24_14 C29_8 1_555 1_555
H25_8 C29_8 1_555 1_555
H26_8 C29_8 1_555 1_555
O8_8 Ce1_5 1_555 1_555
H27_8 O8_8 1_555 1_555
H28_8 O8_8 1_555 1_555
O9_14 Ce1_5 1_555 1_555
H29_14 O9_14 1_555 1_555
H30_14 O9_14 1_555 1_555
O10_8 Ce1_5 1_555 1_555
O11_8 Ce1_5 1_555 1_555
N1_8 C2_8 1_555 1_555
N2_14 C8_14 1_555 1_555
N3_8 C14_8 1_555 1_555
O1_8 C7_14 1_555 1_555
O2_14 C7_14 1_555 1_555
O6_5 C13_8 1_555 1_555
C2_8 H1_8 1_555 1_555
C4_8 C3_8 1_555 1_555
C6_8 N1_8 1_555 1_555
H4_8 C6_8 1_555 1_555
C7_14 C9_14 1_555 1_555
C8_14 H5_14 1_555 1_555
C9_14 C8_14 1_555 1_555
C10_14 C9_14 1_555 1_555
H6_14 C10_14 1_555 1_555
C11_14 C10_14 1_555 1_555
H7_14 C11_14 1_555 1_555
C12_14 N2_14 1_555 1_555
H8_14 C12_14 1_555 1_555
C13_8 C15_8 1_555 1_555
C14_8 H9_8 1_555 1_555
C15_8 C14_8 1_555 1_555
C16_8 C15_8 1_555 1_555
H10_8 C16_8 1_555 1_555
C17_8 C16_8 1_555 1_555
H11_14 C17_8 1_555 1_555
C18_8 N3_8 1_555 1_555
H12_14 C18_8 1_555 1_555
C19_8 N1_8 1_555 1_555
H13_8 C19_8 1_555 1_555
H14_8 C19_8 1_555 1_555
C20_14 N2_14 1_555 1_555
H15_14 C20_14 1_555 1_555
H16_14 C20_14 1_555 1_555
C21_8 N3_8 1_555 1_555
H17_8 C21_8 1_555 1_555
H18_8 C21_8 1_555 1_555
C22_8 C19_8 1_555 1_555
C23_14 C22_8 1_555 1_555
H19_14 C23_14 1_555 1_555
C24_14 C20_14 1_555 1_555
C25_14 C24_14 1_555 1_555
H20_14 C25_14 1_555 1_555
C26_8 C21_8 1_555 1_555
C27_8 C22_8 1_555 1_555
H21_8 C27_8 1_555 1_555
Ce4_5 O1_8 1_555 1_555
C2_8 C3_8 1_555 1_555
C11_14 C12_14 1_555 1_555
C17_8 C18_8 1_555 1_555
C23_14 C24_14 1_555 1_555
C25_14 C26_8 1_555 1_555
C26_8 C27_8 1_555 1_555
Ce1_6 O2_15 1_555 1_555
N1_9 C2_9 1_555 1_555
N2_15 C8_15 1_555 1_555
N3_9 C14_9 1_555 1_555
O1_9 C7_15 1_555 1_555
O2_15 C7_15 1_555 1_555
O3_9 Ce1_6 1_555 1_555
O4_9 C1_9 1_555 1_555
O6_6 C13_9 1_555 1_555
C1_9 O3_9 1_555 1_555
C2_9 H1_9 1_555 1_555
C3_9 C1_9 1_555 1_555
C4_9 C3_9 1_555 1_555
C6_9 N1_9 1_555 1_555
H4_9 C6_9 1_555 1_555
C7_15 C9_15 1_555 1_555
C8_15 H5_15 1_555 1_555
C9_15 C8_15 1_555 1_555
C10_15 C9_15 1_555 1_555
H6_15 C10_15 1_555 1_555
C11_15 C10_15 1_555 1_555
H7_15 C11_15 1_555 1_555
C12_15 N2_15 1_555 1_555
H8_15 C12_15 1_555 1_555
C13_9 C15_9 1_555 1_555
C14_9 H9_9 1_555 1_555
C15_9 C14_9 1_555 1_555
C16_9 C15_9 1_555 1_555
H10_9 C16_9 1_555 1_555
C17_9 C16_9 1_555 1_555
H11_15 C17_9 1_555 1_555
C18_9 N3_9 1_555 1_555
H12_15 C18_9 1_555 1_555
C19_9 N1_9 1_555 1_555
H13_9 C19_9 1_555 1_555
H14_9 C19_9 1_555 1_555
C20_15 N2_15 1_555 1_555
H15_15 C20_15 1_555 1_555
H16_15 C20_15 1_555 1_555
C21_9 N3_9 1_555 1_555
H17_9 C21_9 1_555 1_555
H18_9 C21_9 1_555 1_555
C22_9 C19_9 1_555 1_555
C23_15 C22_9 1_555 1_555
H19_15 C23_15 1_555 1_555
C24_15 C20_15 1_555 1_555
C25_15 C24_15 1_555 1_555
H20_15 C25_15 1_555 1_555
C26_9 C21_9 1_555 1_555
C27_9 C22_9 1_555 1_555
H21_9 C27_9 1_555 1_555
O7_15 Ce1_6 1_555 1_555
C28_15 O7_15 1_555 1_555
H22_15 C28_15 1_555 1_555
H23_15 C28_15 1_555 1_555
C29_9 C28_15 1_555 1_555
H24_15 C29_9 1_555 1_555
H25_9 C29_9 1_555 1_555
H26_9 C29_9 1_555 1_555
O8_9 Ce1_6 1_555 1_555
H27_9 O8_9 1_555 1_555
H28_9 O8_9 1_555 1_555
O9_15 Ce1_6 1_555 1_555
H29_15 O9_15 1_555 1_555
H30_15 O9_15 1_555 1_555
Ce4_6 O1_9 1_555 1_555
O10_9 Ce1_6 1_555 1_555
O11_9 Ce1_6 1_555 1_555
O12_6 Ce1_6 1_555 1_555
C2_9 C3_9 1_555 1_555
C11_15 C12_15 1_555 1_555
C17_9 C18_9 1_555 1_555
C23_15 C24_15 1_555 1_555
C25_15 C26_9 1_555 1_555
C26_9 C27_9 1_555 1_555
N1_10 C2_10 1_555 1_555
N3_10 C14_10 1_555 1_555
O4_10 C1_10 1_555 1_555
O11_9 C13_10 1_555 1_555
O6_7 C13_10 1_555 1_555
C1_10 O3_10 1_555 1_555
C2_10 H1_10 1_555 1_555
C3_10 C1_10 1_555 1_555
C4_10 C3_10 1_555 1_555
H2_13 C4_10 1_555 1_555
C5_13 C4_10 1_555 1_555
H3_13 C5_13 1_555 1_555
C6_10 N1_10 1_555 1_555
H4_10 C6_10 1_555 1_555
C13_10 C15_10 1_555 1_555
C14_10 H9_10 1_555 1_555
C15_10 C14_10 1_555 1_555
C16_10 C15_10 1_555 1_555
H10_10 C16_10 1_555 1_555
C17_10 C16_10 1_555 1_555
C18_10 N3_10 1_555 1_555
C19_10 N1_10 1_555 1_555
H13_10 C19_10 1_555 1_555
H14_10 C19_10 1_555 1_555
C21_10 N3_10 1_555 1_555
H17_10 C21_10 1_555 1_555
H18_10 C21_10 1_555 1_555
C22_10 C19_10 1_555 1_555
C26_10 C21_10 1_555 1_555
C27_10 C22_10 1_555 1_555
H21_10 C27_10 1_555 1_555
H25_10 C29_10 1_555 1_555
H26_10 C29_10 1_555 1_555
H27_10 O8_10 1_555 1_555
H28_10 O8_10 1_555 1_555
Ce4_6 O6_7 1_555 1_555
C2_10 C3_10 1_555 1_555
C5_13 C6_10 1_555 1_555
C17_10 C18_10 1_555 1_555
C26_10 C27_10 1_555 1_555
N1_11 C2_11 1_555 1_555
N3_11 C14_11 1_555 1_555
O4_11 C1_11 1_555 1_555
O11_7 C13_11 1_555 1_555
O6_8 C13_11 1_555 1_555
C1_11 O3_11 1_555 1_555
C2_11 H1_11 1_555 1_555
C3_11 C1_11 1_555 1_555
C4_11 C3_11 1_555 1_555
H2_14 C4_11 1_555 1_555
C5_14 C4_11 1_555 1_555
H3_14 C5_14 1_555 1_555
C6_11 N1_11 1_555 1_555
H4_11 C6_11 1_555 1_555
C13_11 C15_11 1_555 1_555
C14_11 H9_11 1_555 1_555
C15_11 C14_11 1_555 1_555
C16_11 C15_11 1_555 1_555
H10_11 C16_11 1_555 1_555
C17_11 C16_11 1_555 1_555
C18_11 N3_11 1_555 1_555
C19_11 N1_11 1_555 1_555
H13_11 C19_11 1_555 1_555
H14_11 C19_11 1_555 1_555
C21_11 N3_11 1_555 1_555
H17_11 C21_11 1_555 1_555
H18_11 C21_11 1_555 1_555
C22_11 C19_11 1_555 1_555
C26_11 C21_11 1_555 1_555
C27_11 C22_11 1_555 1_555
H21_11 C27_11 1_555 1_555
H25_11 C29_11 1_555 1_555
H26_11 C29_11 1_555 1_555
H27_11 O8_11 1_555 1_555
H28_11 O8_11 1_555 1_555
C2_11 C3_11 1_555 1_555
C5_14 C6_11 1_555 1_555
C17_11 C18_11 1_555 1_555
C26_11 C27_11 1_555 1_555
N1_12 C2_12 1_555 1_555
N3_12 C14_12 1_555 1_555
O4_12 C1_12 1_555 1_555
O11_8 C13_12 1_555 1_555
O6_9 C13_12 1_555 1_555
C1_12 O3_12 1_555 1_555
C2_12 H1_12 1_555 1_555
C3_12 C1_12 1_555 1_555
C4_12 C3_12 1_555 1_555
H2_15 C4_12 1_555 1_555
C5_15 C4_12 1_555 1_555
H3_15 C5_15 1_555 1_555
C6_12 N1_12 1_555 1_555
H4_12 C6_12 1_555 1_555
C13_12 C15_12 1_555 1_555
C14_12 H9_12 1_555 1_555
C15_12 C14_12 1_555 1_555
C16_12 C15_12 1_555 1_555
H10_12 C16_12 1_555 1_555
C17_12 C16_12 1_555 1_555
C18_12 N3_12 1_555 1_555
C19_12 N1_12 1_555 1_555
H13_12 C19_12 1_555 1_555
H14_12 C19_12 1_555 1_555
C21_12 N3_12 1_555 1_555
H17_12 C21_12 1_555 1_555
H18_12 C21_12 1_555 1_555
C22_12 C19_12 1_555 1_555
C26_12 C21_12 1_555 1_555
C27_12 C22_12 1_555 1_555
H21_12 C27_12 1_555 1_555
H25_12 C29_12 1_555 1_555
H26_12 C29_12 1_555 1_555
H27_12 O8_12 1_555 1_555
H28_12 O8_12 1_555 1_555
C2_12 C3_12 1_555 1_555
C5_15 C6_12 1_555 1_555
C17_12 C18_12 1_555 1_555
C26_12 C27_12 1_555 1_555
O3_13 Ce4_4 1_555 1_555
O4_13 C1_13 1_555 1_555
C1_13 O3_13 1_555 1_555
O7_16 Ce4_4 1_555 1_555
C28_16 O7_16 1_555 1_555
H22_16 C28_16 1_555 1_555
H23_16 C28_16 1_555 1_555
C29_13 C28_16 1_555 1_555
H24_16 C29_13 1_555 1_555
H25_13 C29_13 1_555 1_555
H26_13 C29_13 1_555 1_555
O8_13 Ce4_4 1_555 1_555
H27_13 O8_13 1_555 1_555
H28_13 O8_13 1_555 1_555
O9_16 Ce4_4 1_555 1_555
H29_16 O9_16 1_555 1_555
H30_16 O9_16 1_555 1_555
O11_10 Ce4_4 1_555 1_555
N1_13 C2_13 1_555 1_555
N2_16 C8_16 1_555 1_555
N3_13 C14_13 1_555 1_555
O10_7 C7_16 1_555 1_555
O2_16 C7_16 1_555 1_555
O12_9 C13_13 1_555 1_555
C2_13 H1_13 1_555 1_555
C4_13 C3_13 1_555 1_555
C6_13 N1_13 1_555 1_555
H4_13 C6_13 1_555 1_555
C7_16 C9_16 1_555 1_555
C8_16 H5_16 1_555 1_555
C9_16 C8_16 1_555 1_555
C10_16 C9_16 1_555 1_555
H6_16 C10_16 1_555 1_555
C11_16 C10_16 1_555 1_555
H7_16 C11_16 1_555 1_555
C12_16 N2_16 1_555 1_555
H8_16 C12_16 1_555 1_555
C13_13 C15_13 1_555 1_555
C14_13 H9_13 1_555 1_555
C15_13 C14_13 1_555 1_555
C16_13 C15_13 1_555 1_555
H10_13 C16_13 1_555 1_555
C17_13 C16_13 1_555 1_555
H11_16 C17_13 1_555 1_555
C18_13 N3_13 1_555 1_555
H12_16 C18_13 1_555 1_555
C19_13 N1_13 1_555 1_555
H13_13 C19_13 1_555 1_555
H14_13 C19_13 1_555 1_555
C20_16 N2_16 1_555 1_555
H15_16 C20_16 1_555 1_555
H16_16 C20_16 1_555 1_555
C21_13 N3_13 1_555 1_555
H17_13 C21_13 1_555 1_555
H18_13 C21_13 1_555 1_555
C22_13 C19_13 1_555 1_555
C23_16 C22_13 1_555 1_555
H19_16 C23_16 1_555 1_555
C24_16 C20_16 1_555 1_555
C25_16 C24_16 1_555 1_555
H20_16 C25_16 1_555 1_555
C26_13 C21_13 1_555 1_555
C27_13 C22_13 1_555 1_555
H21_13 C27_13 1_555 1_555
C2_13 C3_13 1_555 1_555
C11_16 C12_16 1_555 1_555
C17_13 C18_13 1_555 1_555
C23_16 C24_16 1_555 1_555
C25_16 C26_13 1_555 1_555
C26_13 C27_13 1_555 1_555
N1_14 C2_14 1_555 1_555
N2_17 C8_17 1_555 1_555
N3_14 C14_14 1_555 1_555
O10_8 C7_17 1_555 1_555
O2_17 C7_17 1_555 1_555
O12_7 C13_14 1_555 1_555
C2_14 H1_14 1_555 1_555
C4_14 C3_14 1_555 1_555
C6_14 N1_14 1_555 1_555
H4_14 C6_14 1_555 1_555
C7_17 C9_17 1_555 1_555
C8_17 H5_17 1_555 1_555
C9_17 C8_17 1_555 1_555
C10_17 C9_17 1_555 1_555
H6_17 C10_17 1_555 1_555
C11_17 C10_17 1_555 1_555
H7_17 C11_17 1_555 1_555
C12_17 N2_17 1_555 1_555
H8_17 C12_17 1_555 1_555
C13_14 C15_14 1_555 1_555
C14_14 H9_14 1_555 1_555
C15_14 C14_14 1_555 1_555
C16_14 C15_14 1_555 1_555
H10_14 C16_14 1_555 1_555
C17_14 C16_14 1_555 1_555
H11_17 C17_14 1_555 1_555
C18_14 N3_14 1_555 1_555
H12_17 C18_14 1_555 1_555
C19_14 N1_14 1_555 1_555
H13_14 C19_14 1_555 1_555
H14_14 C19_14 1_555 1_555
C20_17 N2_17 1_555 1_555
H15_17 C20_17 1_555 1_555
H16_17 C20_17 1_555 1_555
C21_14 N3_14 1_555 1_555
H17_14 C21_14 1_555 1_555
H18_14 C21_14 1_555 1_555
C22_14 C19_14 1_555 1_555
C23_17 C22_14 1_555 1_555
H19_17 C23_17 1_555 1_555
C24_17 C20_17 1_555 1_555
C25_17 C24_17 1_555 1_555
H20_17 C25_17 1_555 1_555
C26_14 C21_14 1_555 1_555
C27_14 C22_14 1_555 1_555
H21_14 C27_14 1_555 1_555
C2_14 C3_14 1_555 1_555
C11_17 C12_17 1_555 1_555
C17_14 C18_14 1_555 1_555
C23_17 C24_17 1_555 1_555
C25_17 C26_14 1_555 1_555
C26_14 C27_14 1_555 1_555
O3_14 Ce4_5 1_555 1_555
O4_14 C1_14 1_555 1_555
C1_14 O3_14 1_555 1_555
O7_17 Ce4_5 1_555 1_555
C28_17 O7_17 1_555 1_555
H22_17 C28_17 1_555 1_555
H23_17 C28_17 1_555 1_555
C29_14 C28_17 1_555 1_555
H24_17 C29_14 1_555 1_555
H25_14 C29_14 1_555 1_555
H26_14 C29_14 1_555 1_555
O8_14 Ce4_5 1_555 1_555
H27_14 O8_14 1_555 1_555
H28_14 O8_14 1_555 1_555
O9_17 Ce4_5 1_555 1_555
H29_17 O9_17 1_555 1_555
H30_17 O9_17 1_555 1_555
O11_11 Ce4_5 1_555 1_555
Ce4_6 O2_18 1_555 1_555
N1_15 C2_15 1_555 1_555
N2_18 C8_18 1_555 1_555
N3_15 C14_15 1_555 1_555
O10_9 C7_18 1_555 1_555
O2_18 C7_18 1_555 1_555
O3_15 Ce4_6 1_555 1_555
O4_15 C1_15 1_555 1_555
O12_8 C13_15 1_555 1_555
C1_15 O3_15 1_555 1_555
C2_15 H1_15 1_555 1_555
C3_15 C1_15 1_555 1_555
C4_15 C3_15 1_555 1_555
C6_15 N1_15 1_555 1_555
H4_15 C6_15 1_555 1_555
C7_18 C9_18 1_555 1_555
C8_18 H5_18 1_555 1_555
C9_18 C8_18 1_555 1_555
C10_18 C9_18 1_555 1_555
H6_18 C10_18 1_555 1_555
C11_18 C10_18 1_555 1_555
H7_18 C11_18 1_555 1_555
C12_18 N2_18 1_555 1_555
H8_18 C12_18 1_555 1_555
C13_15 C15_15 1_555 1_555
C14_15 H9_15 1_555 1_555
C15_15 C14_15 1_555 1_555
C16_15 C15_15 1_555 1_555
H10_15 C16_15 1_555 1_555
C17_15 C16_15 1_555 1_555
H11_18 C17_15 1_555 1_555
C18_15 N3_15 1_555 1_555
H12_18 C18_15 1_555 1_555
C19_15 N1_15 1_555 1_555
H13_15 C19_15 1_555 1_555
H14_15 C19_15 1_555 1_555
C20_18 N2_18 1_555 1_555
H15_18 C20_18 1_555 1_555
H16_18 C20_18 1_555 1_555
C21_15 N3_15 1_555 1_555
H17_15 C21_15 1_555 1_555
H18_15 C21_15 1_555 1_555
C22_15 C19_15 1_555 1_555
C23_18 C22_15 1_555 1_555
H19_18 C23_18 1_555 1_555
C24_18 C20_18 1_555 1_555
C25_18 C24_18 1_555 1_555
H20_18 C25_18 1_555 1_555
C26_15 C21_15 1_555 1_555
C27_15 C22_15 1_555 1_555
H21_15 C27_15 1_555 1_555
O7_18 Ce4_6 1_555 1_555
C28_18 O7_18 1_555 1_555
H22_18 C28_18 1_555 1_555
H23_18 C28_18 1_555 1_555
C29_15 C28_18 1_555 1_555
H24_18 C29_15 1_555 1_555
H25_15 C29_15 1_555 1_555
H26_15 C29_15 1_555 1_555
O8_15 Ce4_6 1_555 1_555
H27_15 O8_15 1_555 1_555
H28_15 O8_15 1_555 1_555
O9_18 Ce4_6 1_555 1_555
H29_18 O9_18 1_555 1_555
H30_18 O9_18 1_555 1_555
O11_12 Ce4_6 1_555 1_555
C2_15 C3_15 1_555 1_555
C11_18 C12_18 1_555 1_555
C17_15 C18_15 1_555 1_555
C23_18 C24_18 1_555 1_555
C25_18 C26_15 1_555 1_555
C26_15 C27_15 1_555 1_555
N1_16 C2_16 1_555 1_555
N3_16 C14_16 1_555 1_555
O4_16 C1_16 1_555 1_555
O11_12 C13_16 1_555 1_555
O12_6 C13_16 1_555 1_555
C1_16 O3_16 1_555 1_555
C2_16 H1_16 1_555 1_555
C3_16 C1_16 1_555 1_555
C4_16 C3_16 1_555 1_555
H2_16 C4_16 1_555 1_555
C5_16 C4_16 1_555 1_555
H3_16 C5_16 1_555 1_555
C6_16 N1_16 1_555 1_555
H4_16 C6_16 1_555 1_555
C13_16 C15_16 1_555 1_555
C14_16 H9_16 1_555 1_555
C15_16 C14_16 1_555 1_555
C16_16 C15_16 1_555 1_555
H10_16 C16_16 1_555 1_555
C17_16 C16_16 1_555 1_555
C18_16 N3_16 1_555 1_555
C19_16 N1_16 1_555 1_555
H13_16 C19_16 1_555 1_555
H14_16 C19_16 1_555 1_555
C21_16 N3_16 1_555 1_555
H17_16 C21_16 1_555 1_555
H18_16 C21_16 1_555 1_555
C22_16 C19_16 1_555 1_555
C26_16 C21_16 1_555 1_555
C27_16 C22_16 1_555 1_555
H21_16 C27_16 1_555 1_555
H25_16 C29_16 1_555 1_555
H26_16 C29_16 1_555 1_555
H27_16 O8_16 1_555 1_555
H28_16 O8_16 1_555 1_555
C2_16 C3_16 1_555 1_555
C5_16 C6_16 1_555 1_555
C17_16 C18_16 1_555 1_555
C26_16 C27_16 1_555 1_555
N1_17 C2_17 1_555 1_555
N3_17 C14_17 1_555 1_555
O4_17 C1_17 1_555 1_555
O11_10 C13_17 1_555 1_555
O12_4 C13_17 1_555 1_555
C1_17 O3_17 1_555 1_555
C2_17 H1_17 1_555 1_555
C3_17 C1_17 1_555 1_555
C4_17 C3_17 1_555 1_555
H2_17 C4_17 1_555 1_555
C5_17 C4_17 1_555 1_555
H3_17 C5_17 1_555 1_555
C6_17 N1_17 1_555 1_555
H4_17 C6_17 1_555 1_555
C13_17 C15_17 1_555 1_555
C14_17 H9_17 1_555 1_555
C15_17 C14_17 1_555 1_555
C16_17 C15_17 1_555 1_555
H10_17 C16_17 1_555 1_555
C17_17 C16_17 1_555 1_555
C18_17 N3_17 1_555 1_555
C19_17 N1_17 1_555 1_555
H13_17 C19_17 1_555 1_555
H14_17 C19_17 1_555 1_555
C21_17 N3_17 1_555 1_555
H17_17 C21_17 1_555 1_555
H18_17 C21_17 1_555 1_555
C22_17 C19_17 1_555 1_555
C26_17 C21_17 1_555 1_555
C27_17 C22_17 1_555 1_555
H21_17 C27_17 1_555 1_555
H25_17 C29_17 1_555 1_555
H26_17 C29_17 1_555 1_555
H27_17 O8_17 1_555 1_555
H28_17 O8_17 1_555 1_555
C2_17 C3_17 1_555 1_555
C5_17 C6_17 1_555 1_555
C17_17 C18_17 1_555 1_555
C26_17 C27_17 1_555 1_555
N1_18 C2_18 1_555 1_555
N3_18 C14_18 1_555 1_555
O4_18 C1_18 1_555 1_555
O11_11 C13_18 1_555 1_555
O12_5 C13_18 1_555 1_555
C1_18 O3_18 1_555 1_555
C2_18 H1_18 1_555 1_555
C3_18 C1_18 1_555 1_555
C4_18 C3_18 1_555 1_555
H2_18 C4_18 1_555 1_555
C5_18 C4_18 1_555 1_555
H3_18 C5_18 1_555 1_555
C6_18 N1_18 1_555 1_555
H4_18 C6_18 1_555 1_555
C13_18 C15_18 1_555 1_555
C14_18 H9_18 1_555 1_555
C15_18 C14_18 1_555 1_555
C16_18 C15_18 1_555 1_555
H10_18 C16_18 1_555 1_555
C17_18 C16_18 1_555 1_555
C18_18 N3_18 1_555 1_555
C19_18 N1_18 1_555 1_555
H13_18 C19_18 1_555 1_555
H14_18 C19_18 1_555 1_555
C21_18 N3_18 1_555 1_555
H17_18 C21_18 1_555 1_555
H18_18 C21_18 1_555 1_555
C22_18 C19_18 1_555 1_555
C26_18 C21_18 1_555 1_555
C27_18 C22_18 1_555 1_555
H21_18 C27_18 1_555 1_555
H25_18 C29_18 1_555 1_555
H26_18 C29_18 1_555 1_555
H27_18 O8_18 1_555 1_555
H28_18 O8_18 1_555 1_555
C2_18 C3_18 1_555 1_555
C5_18 C6_18 1_555 1_555
C17_18 C18_18 1_555 1_555
C26_18 C27_18 1_555 1_555

#END
