
###############################################################################
#
# This file contains modified crystal structure data generated from the
# MOF subset of the Cambridge Structural Database (CSD) v543 
# hosted by the Cambridge Crystallographic Data Centre (CCDC).
#
# This work is licensed under the Creative Commons
# Attribution-NonCommercial-ShareAlike 4.0 International License.
# To view a copy of this license, visit
# http://creativecommons.org/licenses/by-nc-sa/4.0/
# or send a letter to
# Creative Commons, PO Box 1866, Mountain View, CA 94042, USA.
#
# CIF created using the CSD Python API on 29 September 2022
# The structure has been converted into the P1 space group
# The structure has a 3D framework
# The original CSD entry BATTEZ is in the rhombohedral crystal system
# The framework has been calculated to contain at least 10.0% void space
# The void calculation uses a probe of radius 1.32A, grid spacing 0.4
#
###############################################################################

data_BATTEZ
_chemical_formula_moiety         '(C522 H540 Br18 Eu18 N54 O160 18+)n'
_symmetry_cell_setting           triclinic
_symmetry_space_group_name_H-M   'P 1'
_symmetry_Int_Tables_number      1
_space_group_name_Hall           'P 1'
loop_
_symmetry_equiv_pos_site_id
_symmetry_equiv_pos_as_xyz
1 x,y,z
_cell_length_a                   47.4892(12)
_cell_length_b                   47.4892(12)
_cell_length_c                   12.3085(7)
_cell_angle_alpha                90
_cell_angle_beta                 90
_cell_angle_gamma                120
_cell_volume                     24039.5
loop_
_atom_site_label
_atom_site_type_symbol
_atom_site_fract_x
_atom_site_fract_y
_atom_site_fract_z
O8 O 0.44160(19) 0.0440(2) 0.0015(7)
H28 H 0.443725 0.046244 0.072659
O10 O 0.48933(17) 0.03400(18) 0.1200(5)
O8_2 O 0.9560(2) 0.39760(28) 0.0015(7)
H28_2 H 0.953756 0.397481 0.072659
O10_2 O 0.96600(18) 0.45533(25) 0.1200(5)
O8_3 O 0.60240(28) 0.55840(19) 0.0015(7)
H28_3 H 0.602519 0.556275 0.072659
Eu3 Eu 0.45080(3) 0.48122(2) 0.07258(4)
O10_3 O 0.54467(25) 0.51067(17) 0.1200(5)
N1 N 0.1553(2) 0.2459(2) 0.9316(7)
N2 N 0.2328(3) 0.2120(2) 0.5655(7)
N3 N 0.2961(2) 0.2789(2) 0.9994(7)
O3 O 0.2958(2) 0.16239(18) 0.6224(6)
O4 O 0.31433(19) 0.21288(17) 0.6741(6)
O5 O 0.35463(19) 0.24560(16) 0.8785(5)
C4 C 0.1425(3) 0.2962(4) 0.9502(8)
H2 H 0.138721 0.313972 0.956272
C5 C 0.1363(3) 0.2791(4) 0.8545(9)
H3 H 0.127421 0.284715 0.794415
C6 C 0.1427(3) 0.2541(4) 0.8456(9)
H4 H 0.138356 0.242512 0.779246
C7 C 0.2936(3) 0.1873(3) 0.6332(8)
C8 C 0.2609(3) 0.2134(3) 0.5959(7)
H5 H 0.279158 0.233542 0.616295
C9 C 0.2625(3) 0.1853(3) 0.5971(8)
C10 C 0.2348(3) 0.1558(3) 0.5668(12)
H6 H 0.235391 0.136177 0.568544
C11 C 0.2077(4) 0.1556(4) 0.5357(15)
H7 H 0.189187 0.135691 0.514820
C12 C 0.2064(3) 0.1846(3) 0.5337(12)
H8 H 0.187289 0.184703 0.510495
C13 C 0.3490(3) 0.2414(2) 0.9786(8)
C14 C 0.3154(2) 0.2679(2) 0.9597(8)
H9 H 0.321772 0.271480 0.885503
C19 C 0.1656(3) 0.2218(3) 0.9167(10)
H13 H 0.149043 0.203360 0.873420
H14 H 0.167415 0.213413 0.988276
C20 C 0.2315(3) 0.2432(3) 0.5763(9)
H15 H 0.251204 0.261663 0.544412
H16 H 0.212195 0.241132 0.537897
C21 C 0.2848(3) 0.2964(2) 0.9276(9)
H17 H 0.280095 0.310868 0.972711
H18 H 0.302555 0.310330 0.876851
C22 C 0.1974(3) 0.2368(3) 0.8598(9)
C23 C 0.2002(3) 0.2331(3) 0.7483(9)
H19 H 0.181135 0.219325 0.707774
C24 C 0.2295(3) 0.2489(3) 0.6960(8)
C25 C 0.2568(3) 0.2695(3) 0.7535(9)
H20 H 0.277075 0.280622 0.717046
C26 C 0.2554(3) 0.2744(2) 0.8640(8)
C27 C 0.2256(3) 0.2578(3) 0.9155(9)
H21 H 0.224375 0.260993 0.991216
Eu2 Eu 0.30291(2) 0.11747(3) 0.59409(4)
Eu4 Eu 0.36375(2) 0.21587(3) 0.73925(4)
N2_2 N 0.7880(2) 0.0207(4) 0.5655(7)
N3_2 N 0.7211(2) 0.0171(3) 0.9994(7)
O3_2 O 0.83761(18) 0.13337(27) 0.6224(6)
O4_2 O 0.78712(17) 0.10144(25) 0.6741(6)
O5_2 O 0.75440(16) 0.10902(25) 0.8785(5)
C7_2 C 0.8127(3) 0.1062(4) 0.6332(8)
C8_2 C 0.7866(3) 0.0474(4) 0.5959(7)
H5_2 H 0.766458 0.045615 0.616295
C9_2 C 0.8147(3) 0.0771(4) 0.5971(8)
C10_2 C 0.8442(3) 0.0789(4) 0.5668(12)
H6_2 H 0.863823 0.099213 0.568544
C11_2 C 0.8444(4) 0.0520(6) 0.5357(15)
H7_2 H 0.864309 0.053495 0.514820
C12_2 C 0.8154(3) 0.0217(4) 0.5337(12)
H8_2 H 0.815297 0.002585 0.510495
C13_2 C 0.7586(2) 0.1075(4) 0.9786(8)
C14_2 C 0.7321(2) 0.0474(3) 0.9597(8)
H9_2 H 0.728520 0.050291 0.885503
Eu2_2 Eu 0.88253(3) 0.18545(4) 0.59409(4)
Eu4_2 Eu 0.78413(3) 0.14789(4) 0.73925(4)
N2_3 N 0.9793(4) 0.7672(3) 0.5655(7)
N3_3 N 0.9829(3) 0.7039(2) 0.9994(7)
O3_3 O 0.86663(27) 0.7042(2) 0.6224(6)
O4_3 O 0.89856(25) 0.68567(19) 0.6741(6)
O5_3 O 0.89098(25) 0.64537(19) 0.8785(5)
C7_3 C 0.8938(4) 0.7064(3) 0.6332(8)
C8_3 C 0.9526(4) 0.7391(3) 0.5959(7)
H5_3 H 0.954385 0.720842 0.616295
C9_3 C 0.9229(4) 0.7375(3) 0.5971(8)
C10_3 C 0.9211(4) 0.7652(3) 0.5668(12)
H6_3 H 0.900787 0.764609 0.568544
C11_3 C 0.9480(6) 0.7923(4) 0.5357(15)
H7_3 H 0.946505 0.810813 0.514820
C12_3 C 0.9783(4) 0.7936(3) 0.5337(12)
H8_3 H 0.997415 0.812711 0.510495
C13_3 C 0.8925(4) 0.6510(3) 0.9786(8)
C14_3 C 0.9526(3) 0.6846(2) 0.9597(8)
H9_3 H 0.949709 0.678228 0.885503
Eu2_3 Eu 0.81455(4) 0.69709(2) 0.59409(4)
Eu4_3 Eu 0.85211(4) 0.63625(2) 0.73925(4)
N1_2 N 0.8219(2) 0.5793(2) 0.2650(7)
N3_4 N 0.9627(2) 0.6123(2) 0.3328(7)
O1 O 0.81532(17) 0.65559(19) 0.4891(5)
O2 O 0.84400(17) 0.63267(18) 0.5467(5)
O4_4 O 0.98099(19) 0.54622(17) 0.0075(6)
C1 C 0.8276(2) 0.6377(3) 0.4786(8)
C2 C 0.8284(2) 0.5958(3) 0.3602(7)
H1 H 0.837941 0.590391 0.418546
C3 C 0.8213(2) 0.6202(3) 0.3724(8)
C4_2 C 0.8091(3) 0.6296(4) 0.2836(8)
H2_2 H 0.805387 0.647306 0.289606
C5_2 C 0.8029(3) 0.6125(4) 0.1879(9)
H3_2 H 0.794087 0.618049 0.127749
C6_2 C 0.8093(3) 0.5875(4) 0.1790(9)
H4_2 H 0.805022 0.575846 0.112580
C14_4 C 0.9820(2) 0.6013(2) 0.2931(8)
H9_4 H 0.988438 0.604814 0.218837
C15 C 0.9925(2) 0.5852(2) 0.3579(7)
C16 C 0.9827(3) 0.5789(3) 0.4648(9)
H10 H 0.989664 0.567388 0.510430
C17 C 0.9624(3) 0.5898(3) 0.5039(9)
H11 H 0.955047 0.585568 0.576990
C18 C 0.9528(3) 0.6068(3) 0.4363(8)
H12 H 0.939310 0.614636 0.463373
C19_2 C 0.8322(3) 0.5552(3) 0.2501(10)
H13_2 H 0.815709 0.536694 0.206754
H14_2 H 0.834081 0.546747 0.321610
C21_2 C 0.9514(3) 0.6298(2) 0.2610(9)
H17_2 H 0.946761 0.644202 0.306045
H18_2 H 0.969221 0.643664 0.210185
C22_2 C 0.8640(3) 0.5702(3) 0.1932(9)
C23_2 C 0.8668(3) 0.5665(3) 0.0817(9)
H19_2 H 0.847801 0.552659 0.041108
C24_2 C 0.8961(3) 0.5823(3) 0.0294(8)
C25_2 C 0.9234(3) 0.6029(3) 0.0869(9)
H20_2 H 0.943741 0.613956 0.050380
C26_2 C 0.9220(3) 0.6078(2) 0.1974(8)
C27_2 C 0.8922(3) 0.5912(3) 0.2489(9)
H21_2 H 0.891041 0.594327 0.324550
O7 O 0.8427(3) 0.7551(2) 0.6237(9)
C28 C 0.8481(7) 0.7805(6) 0.5412(19)
H22 H 0.841087 0.793152 0.585909
H23 H 0.829114 0.767024 0.494424
C29 C 0.8689(5) 0.8075(4) 0.4566(17)
H24 H 0.855840 0.816178 0.425572
H25 H 0.888114 0.824960 0.492430
H26 H 0.875810 0.798111 0.398418
O8_4 O 0.77493(19) 0.7107(2) 0.6682(7)
H27 H 0.779426 0.729996 0.644959
H28_4 H 0.777058 0.712911 0.739326
O9 O 0.84624(18) 0.7237(2) 0.4279(6)
H29 H 0.837462 0.734381 0.389879
H30 H 0.845133 0.708716 0.376429
O10_4 O 0.82266(17) 0.70067(18) 0.7867(5)
O12 O 0.76811(25) 0.64766(19) 0.6592(6)
O13 O 0.77569(25) 0.68796(19) 0.4548(5)
N1_3 N 0.4207(2) 0.2427(3) 0.2650(7)
N3_5 N 0.3877(2) 0.3505(3) 0.3328(7)
O1_2 O 0.34441(19) 0.15974(25) 0.4891(5)
O2_2 O 0.36733(18) 0.21134(25) 0.5467(5)
O4_5 O 0.45378(17) 0.43478(25) 0.0075(6)
O5_4 O 0.42106(16) 0.44236(25) 0.2119(5)
O6 O 0.43747(18) 0.46351(27) 0.3772(6)
C1_2 C 0.3623(3) 0.1900(4) 0.4786(8)
C2_2 C 0.4042(3) 0.2327(4) 0.3602(7)
H1_2 H 0.409609 0.247551 0.418546
C3_2 C 0.3798(3) 0.2012(4) 0.3724(8)
C4_3 C 0.3704(4) 0.1796(5) 0.2836(8)
H2_3 H 0.352694 0.158082 0.289606
C5_3 C 0.3875(4) 0.1905(5) 0.1879(9)
H3_3 H 0.381951 0.176039 0.127749
C6_3 C 0.4125(4) 0.2219(5) 0.1790(9)
H4_3 H 0.424154 0.229177 0.112580
C13_4 C 0.4252(2) 0.4409(4) 0.3120(8)
C14_5 C 0.3987(2) 0.3808(3) 0.2931(8)
H9_5 H 0.395186 0.383625 0.218837
C15_2 C 0.4148(2) 0.4074(3) 0.3579(7)
C16_2 C 0.4211(3) 0.4039(4) 0.4648(9)
H10_2 H 0.432612 0.422277 0.510430
C17_2 C 0.4102(3) 0.3727(4) 0.5039(9)
H11_2 H 0.414432 0.369480 0.576990
C18_2 C 0.3932(3) 0.3461(4) 0.4363(8)
H12_2 H 0.385364 0.324675 0.463373
C19_3 C 0.4448(3) 0.2771(4) 0.2501(10)
H13_3 H 0.463306 0.279016 0.206754
H14_3 H 0.453253 0.287335 0.321610
C21_3 C 0.3702(2) 0.3217(4) 0.2610(9)
H17_3 H 0.355798 0.302560 0.306045
H18_3 H 0.356336 0.325558 0.210185
C22_3 C 0.4298(3) 0.2939(4) 0.1932(9)
C23_3 C 0.4335(3) 0.3004(4) 0.0817(9)
H19_3 H 0.447341 0.295143 0.041108
C24_3 C 0.4177(3) 0.3139(4) 0.0294(8)
C25_3 C 0.3971(3) 0.3206(4) 0.0869(9)
H20_3 H 0.386044 0.329786 0.050380
C26_3 C 0.3922(2) 0.3143(4) 0.1974(8)
C27_3 C 0.4088(3) 0.3011(4) 0.2489(9)
H21_3 H 0.405673 0.296715 0.324550
O7_2 O 0.2449(2) 0.0877(4) 0.6237(9)
C28_2 C 0.2195(6) 0.0677(9) 0.5412(19)
H22_2 H 0.206848 0.047936 0.585909
H23_2 H 0.232976 0.062091 0.494424
C29_2 C 0.1925(4) 0.0615(6) 0.4566(17)
H24_2 H 0.183822 0.039663 0.425572
H25_2 H 0.175040 0.063155 0.492430
H26_2 H 0.201889 0.077700 0.398418
O8_5 O 0.2893(2) 0.06427(28) 0.6682(7)
H27_2 H 0.270004 0.049431 0.644959
H28_5 H 0.287089 0.064148 0.739326
O9_2 O 0.2763(2) 0.12258(27) 0.4279(6)
H29_2 H 0.265619 0.103082 0.389879
H30_2 H 0.291284 0.136418 0.376429
O10_5 O 0.29933(18) 0.12200(25) 0.7867(5)
O12_2 O 0.35234(19) 0.12045(31) 0.6592(6)
O13_2 O 0.31204(19) 0.08773(31) 0.4548(5)
N1_4 N 0.7573(3) 0.1781(2) 0.2650(7)
N3_6 N 0.6495(3) 0.0373(2) 0.3328(7)
O1_3 O 0.84026(25) 0.18468(17) 0.4891(5)
O2_3 O 0.78866(25) 0.15600(17) 0.5467(5)
O4_6 O 0.56522(25) 0.01901(19) 0.0075(6)
C1_3 C 0.8100(4) 0.1724(2) 0.4786(8)
C2_3 C 0.7673(4) 0.1716(2) 0.3602(7)
H1_3 H 0.752449 0.162059 0.418546
C3_3 C 0.7988(4) 0.1787(2) 0.3724(8)
C4_4 C 0.8204(5) 0.1909(3) 0.2836(8)
H2_4 H 0.841918 0.194613 0.289606
C5_4 C 0.8095(5) 0.1971(3) 0.1879(9)
H3_4 H 0.823961 0.205913 0.127749
C6_4 C 0.7781(5) 0.1907(3) 0.1790(9)
H4_4 H 0.770823 0.194978 0.112580
C14_6 C 0.6192(3) 0.0180(2) 0.2931(8)
H9_6 H 0.616375 0.011562 0.218837
C15_3 C 0.5926(3) 0.0075(2) 0.3579(7)
C16_3 C 0.5961(4) 0.0173(3) 0.4648(9)
H10_3 H 0.577723 0.010336 0.510430
C17_3 C 0.6273(4) 0.0376(3) 0.5039(9)
H11_3 H 0.630520 0.044953 0.576990
C18_3 C 0.6539(4) 0.0472(3) 0.4363(8)
H12_3 H 0.675325 0.060690 0.463373
C19_4 C 0.7229(4) 0.1678(3) 0.2501(10)
H13_4 H 0.720984 0.184291 0.206754
H14_4 H 0.712665 0.165919 0.321610
C21_4 C 0.6783(4) 0.0486(3) 0.2610(9)
H17_4 H 0.697440 0.053239 0.306045
H18_4 H 0.674442 0.030779 0.210185
C22_4 C 0.7061(4) 0.1360(3) 0.1932(9)
C23_4 C 0.6996(4) 0.1332(3) 0.0817(9)
H19_4 H 0.704857 0.152199 0.041108
C24_4 C 0.6861(4) 0.1039(3) 0.0294(8)
C25_4 C 0.6794(4) 0.0766(3) 0.0869(9)
H20_4 H 0.670214 0.056259 0.050380
C26_4 C 0.6857(4) 0.0780(3) 0.1974(8)
C27_4 C 0.6989(4) 0.1078(3) 0.2489(9)
H21_4 H 0.703285 0.108959 0.324550
O7_3 O 0.9123(4) 0.1573(3) 0.6237(9)
C28_3 C 0.9323(9) 0.1519(7) 0.5412(19)
H22_3 H 0.952064 0.158913 0.585909
H23_3 H 0.937909 0.170886 0.494424
C29_3 C 0.9385(6) 0.1311(5) 0.4566(17)
H24_3 H 0.960337 0.144160 0.425572
H25_3 H 0.936845 0.111886 0.492430
H26_3 H 0.922300 0.124190 0.398418
O8_6 O 0.93573(28) 0.22507(19) 0.6682(7)
H27_3 H 0.950569 0.220574 0.644959
H28_6 H 0.935852 0.222942 0.739326
O9_3 O 0.87742(27) 0.15376(18) 0.4279(6)
H29_3 H 0.896918 0.162538 0.389879
H30_3 H 0.863582 0.154867 0.376429
O10_6 O 0.87800(25) 0.17734(17) 0.7867(5)
O12_3 O 0.87955(31) 0.23189(25) 0.6592(6)
O13_3 O 0.91227(31) 0.22431(25) 0.4548(5)
N1_5 N 0.5114(2) 0.0874(2) 0.4017(7)
N2_4 N 0.4339(3) 0.1213(2) 0.7678(7)
N3_7 N 0.3706(2) 0.0544(2) 0.3339(7)
O1_4 O 0.51801(17) 0.01108(19) 0.1776(5)
O3_4 O 0.3709(2) 0.17094(18) 0.7109(6)
O6_2 O 0.3073(2) 0.10414(18) 0.2895(6)
C1_4 C 0.5057(2) 0.0290(3) 0.1881(8)
C2_4 C 0.5049(2) 0.0709(3) 0.3065(7)
H1_4 H 0.495392 0.076276 0.248121
C3_4 C 0.5120(2) 0.0465(3) 0.2943(8)
C4_5 C 0.5242(3) 0.0371(4) 0.3831(8)
H2_5 H 0.527946 0.019361 0.377061
C5_5 C 0.5304(3) 0.0542(4) 0.4788(9)
H3_5 H 0.539246 0.048618 0.538918
C6_5 C 0.5240(3) 0.0792(4) 0.4877(9)
H4_5 H 0.528311 0.090821 0.554087
C7_4 C 0.3731(3) 0.1460(3) 0.7001(8)
C8_4 C 0.4058(3) 0.1199(3) 0.7374(7)
H5_4 H 0.387509 0.099791 0.717038
C9_4 C 0.4042(3) 0.1480(3) 0.7362(8)
C10_4 C 0.4319(3) 0.1775(3) 0.7665(12)
H6_4 H 0.431276 0.197156 0.764789
C11_4 C 0.4590(4) 0.1777(4) 0.7976(15)
H7_4 H 0.477480 0.197642 0.818513
C12_4 C 0.4603(3) 0.1487(3) 0.7996(12)
H8_4 H 0.479378 0.148630 0.822838
C13_5 C 0.3177(3) 0.0919(2) 0.3547(8)
C14_7 C 0.3513(2) 0.0654(2) 0.3736(8)
H9_7 H 0.344895 0.061853 0.447830
C15_4 C 0.3408(2) 0.0815(2) 0.3088(7)
C16_4 C 0.3506(3) 0.0878(3) 0.2019(9)
H10_4 H 0.343669 0.099279 0.156237
C17_4 C 0.3709(3) 0.0769(3) 0.1628(9)
H11_4 H 0.378286 0.081099 0.089677
C18_4 C 0.3805(3) 0.0599(3) 0.2304(8)
H12_4 H 0.394023 0.052031 0.203294
C19_5 C 0.5011(3) 0.1115(3) 0.4166(10)
H13_5 H 0.517624 0.129973 0.459913
H14_5 H 0.499252 0.119920 0.345057
C20_2 C 0.4352(3) 0.0901(3) 0.7570(9)
H15_2 H 0.415463 0.071670 0.788921
H16_2 H 0.454472 0.092201 0.795436
C21_5 C 0.3819(3) 0.0369(2) 0.4057(9)
H17_5 H 0.386572 0.022465 0.360622
H18_5 H 0.364112 0.023003 0.456482
C22_5 C 0.4693(3) 0.0965(3) 0.4735(9)
C23_5 C 0.4665(3) 0.1002(3) 0.5850(9)
H19_5 H 0.485532 0.114008 0.625559
C24_5 C 0.4372(3) 0.0844(3) 0.6373(8)
C25_5 C 0.4099(3) 0.0638(3) 0.5798(9)
H20_5 H 0.389592 0.052711 0.616287
C26_5 C 0.4113(3) 0.0589(2) 0.4693(8)
C27_5 C 0.4411(3) 0.0755(3) 0.4178(9)
H21_5 H 0.442292 0.072340 0.342117
N1_6 N 0.9126(2) 0.4240(3) 0.4017(7)
N2_5 N 0.8787(2) 0.3126(4) 0.7678(7)
N3_8 N 0.9456(2) 0.3162(3) 0.3339(7)
O1_5 O 0.98892(19) 0.50693(25) 0.1776(5)
O3_5 O 0.82906(18) 0.19996(27) 0.7109(6)
O6_3 O 0.89586(18) 0.20316(27) 0.2895(6)
C1_5 C 0.9710(3) 0.4767(4) 0.1881(8)
C2_5 C 0.9291(3) 0.4340(4) 0.3065(7)
H1_5 H 0.923724 0.419116 0.248121
C3_5 C 0.9535(3) 0.4655(4) 0.2943(8)
C4_6 C 0.9629(4) 0.4871(5) 0.3831(8)
H2_6 H 0.980639 0.508585 0.377061
C5_6 C 0.9458(4) 0.4762(5) 0.4788(9)
H3_6 H 0.951382 0.490628 0.538918
C6_6 C 0.9208(4) 0.4448(5) 0.4877(9)
H4_6 H 0.909179 0.437490 0.554087
C7_5 C 0.8540(3) 0.2271(4) 0.7001(8)
C8_5 C 0.8801(3) 0.2859(4) 0.7374(7)
H5_5 H 0.900209 0.287718 0.717038
C9_5 C 0.8520(3) 0.2562(4) 0.7362(8)
C10_5 C 0.8225(3) 0.2544(4) 0.7665(12)
H6_5 H 0.802844 0.234120 0.764789
C11_5 C 0.8223(4) 0.2813(6) 0.7976(15)
H7_5 H 0.802358 0.279838 0.818513
C12_5 C 0.8513(3) 0.3116(4) 0.7996(12)
H8_5 H 0.851370 0.330748 0.822838
C13_6 C 0.9081(2) 0.2258(4) 0.3547(8)
C14_8 C 0.9346(2) 0.2859(3) 0.3736(8)
H9_8 H 0.938147 0.283042 0.447830
C15_5 C 0.9185(2) 0.2593(3) 0.3088(7)
C16_5 C 0.9122(3) 0.2628(4) 0.2019(9)
H10_5 H 0.900721 0.244390 0.156237
C17_5 C 0.9231(3) 0.2940(4) 0.1628(9)
H11_5 H 0.918901 0.297187 0.089677
C18_5 C 0.9401(3) 0.3206(4) 0.2304(8)
H12_5 H 0.947969 0.341992 0.203294
C19_6 C 0.8885(3) 0.3896(4) 0.4166(10)
H13_6 H 0.870027 0.387651 0.459913
H14_6 H 0.880080 0.379332 0.345057
C20_3 C 0.9099(3) 0.3451(4) 0.7570(9)
H15_3 H 0.928330 0.343793 0.788921
H16_3 H 0.907799 0.362271 0.795436
C21_6 C 0.9631(2) 0.3450(4) 0.4057(9)
H17_6 H 0.977535 0.364107 0.360622
H18_6 H 0.976997 0.341109 0.456482
C22_6 C 0.9035(3) 0.3728(4) 0.4735(9)
C23_6 C 0.8998(3) 0.3663(4) 0.5850(9)
H19_6 H 0.885992 0.371524 0.625559
C24_6 C 0.9156(3) 0.3528(4) 0.6373(8)
C25_6 C 0.9362(3) 0.3461(4) 0.5798(9)
H20_6 H 0.947289 0.336881 0.616287
C26_6 C 0.9411(2) 0.3524(4) 0.4693(8)
C27_6 C 0.9245(3) 0.3656(4) 0.4178(9)
H21_6 H 0.927660 0.369952 0.342117
N1_7 N 0.5760(3) 0.4886(2) 0.4017(7)
N2_6 N 0.6874(4) 0.5661(3) 0.7678(7)
N3_9 N 0.6838(3) 0.6294(2) 0.3339(7)
O1_6 O 0.49307(25) 0.48199(17) 0.1776(5)
O3_6 O 0.80004(27) 0.6291(2) 0.7109(6)
O6_4 O 0.79684(27) 0.6927(2) 0.2895(6)
C1_6 C 0.5233(4) 0.4943(2) 0.1881(8)
C2_6 C 0.5660(4) 0.4951(2) 0.3065(7)
H1_6 H 0.580884 0.504608 0.248121
C3_6 C 0.5345(4) 0.4880(2) 0.2943(8)
C4_7 C 0.5129(5) 0.4758(3) 0.3831(8)
H2_7 H 0.491415 0.472054 0.377061
C5_7 C 0.5238(5) 0.4696(3) 0.4788(9)
H3_7 H 0.509372 0.460754 0.538918
C6_7 C 0.5552(5) 0.4760(3) 0.4877(9)
H4_7 H 0.562510 0.471689 0.554087
C7_6 C 0.7729(4) 0.6269(3) 0.7001(8)
C8_6 C 0.7141(4) 0.5942(3) 0.7374(7)
H5_6 H 0.712282 0.612491 0.717038
C9_6 C 0.7438(4) 0.5958(3) 0.7362(8)
C10_6 C 0.7456(4) 0.5681(3) 0.7665(12)
H6_6 H 0.765880 0.568724 0.764789
C11_6 C 0.7187(6) 0.5410(4) 0.7976(15)
H7_6 H 0.720162 0.522520 0.818513
C12_6 C 0.6884(4) 0.5397(3) 0.7996(12)
H8_6 H 0.669252 0.520622 0.822838
C13_7 C 0.7742(4) 0.6823(3) 0.3547(8)
C14_9 C 0.7141(3) 0.6487(2) 0.3736(8)
H9_9 H 0.716958 0.655105 0.447830
C15_6 C 0.7407(3) 0.6592(2) 0.3088(7)
C16_6 C 0.7372(4) 0.6494(3) 0.2019(9)
H10_6 H 0.755610 0.656331 0.156237
C17_6 C 0.7060(4) 0.6291(3) 0.1628(9)
H11_6 H 0.702813 0.621714 0.089677
C18_6 C 0.6794(4) 0.6195(3) 0.2304(8)
H12_6 H 0.658008 0.605977 0.203294
C19_7 C 0.6104(4) 0.4989(3) 0.4166(10)
H13_7 H 0.612349 0.482376 0.459913
H14_7 H 0.620668 0.500748 0.345057
C20_4 C 0.6549(4) 0.5648(3) 0.7570(9)
H15_4 H 0.656207 0.584537 0.788921
H16_4 H 0.637729 0.545528 0.795436
C21_7 C 0.6550(4) 0.6181(3) 0.4057(9)
H17_7 H 0.635893 0.613428 0.360622
H18_7 H 0.658891 0.635888 0.456482
C22_7 C 0.6272(4) 0.5307(3) 0.4735(9)
C23_7 C 0.6337(4) 0.5335(3) 0.5850(9)
H19_7 H 0.628476 0.514468 0.625559
C24_7 C 0.6472(4) 0.5628(3) 0.6373(8)
C25_7 C 0.6539(4) 0.5901(3) 0.5798(9)
H20_7 H 0.663119 0.610408 0.616287
C26_7 C 0.6476(4) 0.5887(3) 0.4693(8)
C27_7 C 0.6344(4) 0.5589(3) 0.4178(9)
H21_7 H 0.630048 0.557708 0.342117
O7_4 O 0.4210(4) 0.5094(3) 0.0430(9)
C28_4 C 0.4010(9) 0.5148(7) 0.1255(19)
H22_4 H 0.381269 0.507754 0.080758
H23_4 H 0.395424 0.495781 0.172243
C29_4 C 0.3948(6) 0.5356(5) 0.2101(17)
H24_4 H 0.372996 0.522507 0.241095
H25_4 H 0.396488 0.554781 0.174237
H26_4 H 0.411033 0.542477 0.268249
H27_4 H 0.382764 0.446093 0.021708
O9_4 O 0.45591(27) 0.51291(18) 0.2388(6)
H29_4 H 0.436415 0.504129 0.276788
H30_4 H 0.469751 0.511800 0.290238
O11 O 0.49573(34) 0.53329(27) 0.0442(6)
O1_7 O 0.85134(17) 0.67775(19) 0.8443(5)
O6_5 O 0.6406(2) 0.77081(18) 0.9562(6)
C1_7 C 0.8390(2) 0.6957(3) 0.8548(8)
C2_7 C 0.8382(2) 0.7376(3) 0.9732(7)
H1_7 H 0.828725 0.742943 0.914788
C3_7 C 0.8453(2) 0.7132(3) 0.9610(8)
C15_7 C 0.6741(2) 0.7482(2) 0.9755(7)
C16_7 C 0.6839(3) 0.7545(3) 0.8686(9)
H10_7 H 0.677002 0.765946 0.822904
C17_7 C 0.7042(3) 0.7436(3) 0.8295(9)
H11_7 H 0.711619 0.747766 0.756344
C18_7 C 0.7138(3) 0.7266(3) 0.8971(8)
H12_7 H 0.727356 0.718698 0.869961
O7_5 O 0.8239(3) 0.5783(2) 0.7097(9)
C28_5 C 0.8185(7) 0.5529(6) 0.7922(19)
H22_5 H 0.825579 0.540182 0.747425
H23_5 H 0.837552 0.566310 0.838910
C29_5 C 0.7977(5) 0.5259(4) 0.8768(17)
H24_5 H 0.810826 0.517156 0.907762
H25_5 H 0.778552 0.508374 0.840904
H26_5 H 0.790856 0.535223 0.934916
O8_7 O 0.89173(19) 0.6227(2) 0.6652(7)
H27_5 H 0.887240 0.603338 0.688375
H28_7 H 0.889608 0.620423 0.594008
O9_5 O 0.82042(18) 0.6097(2) 0.9055(6)
H29_5 H 0.829204 0.598953 0.943455
H30_5 H 0.821533 0.624618 0.956905
O1_8 O 0.32225(19) 0.17360(25) 0.8443(5)
C1_8 C 0.3043(3) 0.1434(4) 0.8548(8)
C2_8 C 0.2624(3) 0.1007(4) 0.9732(7)
H1_8 H 0.257057 0.085783 0.914788
C3_8 C 0.2868(3) 0.1322(4) 0.9610(8)
H12_8 H 0.281302 0.008659 0.869961
O7_6 O 0.4217(2) 0.2457(4) 0.7097(9)
C28_6 C 0.4471(6) 0.2657(9) 0.7922(19)
H22_6 H 0.459818 0.285398 0.747425
H23_6 H 0.433690 0.271243 0.838910
C29_6 C 0.4741(4) 0.2719(6) 0.8768(17)
H24_6 H 0.482844 0.293671 0.907762
H25_6 H 0.491626 0.270179 0.840904
H26_6 H 0.464777 0.255634 0.934916
O8_8 O 0.3773(2) 0.26907(28) 0.6652(7)
H27_6 H 0.396662 0.283903 0.688375
H28_8 H 0.379577 0.269186 0.594008
O9_6 O 0.3903(2) 0.21076(27) 0.9055(6)
H29_6 H 0.401047 0.230252 0.943455
H30_6 H 0.375382 0.196916 0.956905
O1_9 O 0.82640(25) 0.14866(17) 0.8443(5)
C1_9 C 0.8566(4) 0.1610(2) 0.8548(8)
C2_9 C 0.8993(4) 0.1618(2) 0.9732(7)
H1_9 H 0.914217 0.171275 0.914788
C3_9 C 0.8678(4) 0.1547(2) 0.9610(8)
H12_9 H 0.991341 0.272644 0.869961
O7_7 O 0.7543(4) 0.1761(3) 0.7097(9)
C28_7 C 0.7343(9) 0.1815(7) 0.7922(19)
H22_7 H 0.714602 0.174421 0.747425
H23_7 H 0.728757 0.162448 0.838910
C29_7 C 0.7281(6) 0.2023(5) 0.8768(17)
H24_7 H 0.706329 0.189174 0.907762
H25_7 H 0.729821 0.221448 0.840904
H26_7 H 0.744366 0.209144 0.934916
O8_9 O 0.73093(28) 0.10827(19) 0.6652(7)
H27_7 H 0.716097 0.112760 0.688375
H28_9 H 0.730814 0.110392 0.594008
O9_7 O 0.78924(27) 0.17958(18) 0.9055(6)
H29_7 H 0.769748 0.170796 0.943455
H30_7 H 0.803084 0.178467 0.956905
N2_7 N 0.5454(2) 0.6459(4) 0.1011(7)
C7_7 C 0.5207(3) 0.5604(4) 0.0334(8)
C8_7 C 0.5468(3) 0.6192(4) 0.0707(7)
H5_7 H 0.566876 0.621051 0.050371
C9_7 C 0.5187(3) 0.5895(4) 0.0695(8)
C10_7 C 0.4892(3) 0.5877(4) 0.0998(12)
H6_7 H 0.469511 0.567453 0.098122
C11_7 C 0.4890(4) 0.6146(6) 0.1309(15)
H7_7 H 0.469025 0.613171 0.151846
C12_7 C 0.5180(3) 0.6449(4) 0.1329(12)
H8_7 H 0.518037 0.664081 0.156171
C20_5 C 0.5766(3) 0.6784(4) 0.0903(9)
H15_5 H 0.594997 0.677126 0.122254
H16_5 H 0.574466 0.695604 0.128769
Eu1 Eu 0.48122(2) 0.03042(2) 0.92742(4)
O7_8 O 0.5094(3) 0.0884(2) 0.9570(9)
C28_8 C 0.5148(7) 0.1138(6) 0.8745(19)
H22_8 H 0.507754 0.126485 0.919242
H23_8 H 0.495781 0.100357 0.827757
C29_8 C 0.5356(5) 0.1408(4) 0.7899(17)
H24_8 H 0.522507 0.149511 0.758905
H25_8 H 0.554781 0.158293 0.825763
H26_8 H 0.542477 0.131444 0.731751
H27_8 H 0.446093 0.063329 0.978292
O9_8 O 0.51291(18) 0.0570(2) 0.7612(6)
H29_8 H 0.504129 0.067714 0.723212
H30_8 H 0.511800 0.042049 0.709762
O11_2 O 0.53329(27) 0.0376(2) 0.9558(6)
O13_4 O 0.44236(25) 0.02129(19) 0.7881(5)
N2_8 N 0.6459(4) 0.1006(3) 0.8989(7)
C7_8 C 0.5604(4) 0.0398(3) 0.9666(8)
C8_8 C 0.6192(4) 0.0725(3) 0.9293(7)
H5_8 H 0.621051 0.054176 0.949629
C9_8 C 0.5895(4) 0.0709(3) 0.9305(8)
C10_8 C 0.5877(4) 0.0986(3) 0.9002(12)
H6_8 H 0.567453 0.097943 0.901878
C11_8 C 0.6146(6) 0.1257(4) 0.8691(15)
H7_8 H 0.613171 0.144147 0.848154
C12_8 C 0.6449(4) 0.1270(3) 0.8671(12)
H8_8 H 0.664081 0.146045 0.843829
C20_6 C 0.6784(4) 0.1019(3) 0.9097(9)
H15_6 H 0.677126 0.082130 0.877746
H16_6 H 0.695604 0.121139 0.871231
O6_6 O 0.46351(27) 0.0260(2) 0.6228(6)
C13_8 C 0.4409(4) 0.0156(3) 0.6880(8)
Eu3_2 Eu 0.51878(2) 0.96958(2) 0.07258(4)
O5_5 O 0.55764(25) 0.97871(19) 0.2119(5)
O6_7 O 0.53649(27) 0.9740(2) 0.3772(6)
C13_9 C 0.5591(4) 0.9844(3) 0.3120(8)
O7_9 O 0.4906(3) 0.9116(2) 0.0430(9)
C28_9 C 0.4852(7) 0.8862(6) 0.1255(19)
H22_9 H 0.492246 0.873515 0.080758
H23_9 H 0.504219 0.899643 0.172243
C29_9 C 0.4644(5) 0.8592(4) 0.2101(17)
H24_9 H 0.477493 0.850489 0.241095
H25_9 H 0.445219 0.841707 0.174237
H26_9 H 0.457523 0.868556 0.268249
H27_9 H 0.553907 0.936671 0.021708
O9_9 O 0.48709(18) 0.9430(2) 0.2388(6)
H29_9 H 0.495871 0.932286 0.276788
H30_9 H 0.488200 0.957951 0.290238
O11_3 O 0.46671(27) 0.9624(2) 0.0442(6)
N2_9 N 0.3541(4) 0.8994(3) 0.1011(7)
C7_9 C 0.4396(4) 0.9602(3) 0.0334(8)
C8_9 C 0.3808(4) 0.9275(3) 0.0707(7)
H5_9 H 0.378949 0.945824 0.050371
C9_9 C 0.4105(4) 0.9291(3) 0.0695(8)
C10_9 C 0.4123(4) 0.9014(3) 0.0998(12)
H6_9 H 0.432547 0.902057 0.098122
C11_9 C 0.3854(6) 0.8743(4) 0.1309(15)
H7_9 H 0.386829 0.855853 0.151846
C12_9 C 0.3551(4) 0.8730(3) 0.1329(12)
H8_9 H 0.335919 0.853955 0.156171
C20_7 C 0.3216(4) 0.8981(3) 0.0903(9)
H15_7 H 0.322874 0.917870 0.122254
H16_7 H 0.304396 0.878861 0.128769
N1_8 N 0.4886(2) 0.9126(2) 0.5983(7)
N2_10 N 0.5661(3) 0.8787(2) 0.2322(7)
N3_10 N 0.6294(2) 0.9456(2) 0.6661(7)
O1_10 O 0.48199(17) 0.98892(19) 0.8224(5)
O2_4 O 0.51067(17) 0.96600(18) 0.8800(5)
O3_7 O 0.6291(2) 0.82906(18) 0.2891(6)
O4_7 O 0.64766(19) 0.87955(17) 0.3408(6)
O5_6 O 0.68796(19) 0.91227(16) 0.5452(5)
O6_8 O 0.6927(2) 0.89586(18) 0.7105(6)
C1_10 C 0.4943(2) 0.9710(3) 0.8119(8)
C2_10 C 0.4951(2) 0.9291(3) 0.6935(7)
H1_10 H 0.504608 0.923724 0.751879
C3_10 C 0.4880(2) 0.9535(3) 0.7057(8)
C4_8 C 0.4758(3) 0.9629(4) 0.6169(8)
H2_8 H 0.472054 0.980639 0.622939
C5_8 C 0.4696(3) 0.9458(4) 0.5212(9)
H3_8 H 0.460754 0.951382 0.461082
C6_8 C 0.4760(3) 0.9208(4) 0.5123(9)
H4_8 H 0.471689 0.909179 0.445913
C7_10 C 0.6269(3) 0.8540(3) 0.2999(8)
C8_10 C 0.5942(3) 0.8801(3) 0.2626(7)
H5_10 H 0.612491 0.900209 0.282962
C9_10 C 0.5958(3) 0.8520(3) 0.2638(8)
C10_10 C 0.5681(3) 0.8225(3) 0.2335(12)
H6_10 H 0.568724 0.802844 0.235211
C11_10 C 0.5410(4) 0.8223(4) 0.2024(15)
H7_10 H 0.522520 0.802358 0.181487
C12_10 C 0.5397(3) 0.8513(3) 0.2004(12)
H8_10 H 0.520622 0.851370 0.177162
C13_10 C 0.6823(3) 0.9081(2) 0.6453(8)
C14_10 C 0.6487(2) 0.9346(2) 0.6264(8)
H9_10 H 0.655105 0.938147 0.552170
C15_8 C 0.6592(2) 0.9185(2) 0.6912(7)
C16_8 C 0.6494(3) 0.9122(3) 0.7981(9)
H10_8 H 0.656331 0.900721 0.843763
C17_8 C 0.6291(3) 0.9231(3) 0.8372(9)
H11_8 H 0.621714 0.918901 0.910323
C18_8 C 0.6195(3) 0.9401(3) 0.7696(8)
H12_10 H 0.605977 0.947969 0.796706
C19_8 C 0.4989(3) 0.8885(3) 0.5834(10)
H13_8 H 0.482376 0.870027 0.540087
H14_8 H 0.500748 0.880080 0.654943
C20_8 C 0.5648(3) 0.9099(3) 0.2430(9)
H15_8 H 0.584537 0.928330 0.211079
H16_8 H 0.545528 0.907799 0.204564
C21_8 C 0.6181(3) 0.9631(2) 0.5943(9)
H17_8 H 0.613428 0.977535 0.639378
H18_8 H 0.635888 0.976997 0.543518
C22_8 C 0.5307(3) 0.9035(3) 0.5265(9)
C23_8 C 0.5335(3) 0.8998(3) 0.4150(9)
H19_8 H 0.514468 0.885992 0.374441
C24_8 C 0.5628(3) 0.9156(3) 0.3627(8)
C25_8 C 0.5901(3) 0.9362(3) 0.4202(9)
H20_8 H 0.610408 0.947289 0.383713
C26_8 C 0.5887(3) 0.9411(2) 0.5307(8)
C27_8 C 0.5589(3) 0.9245(3) 0.5822(9)
H21_8 H 0.557708 0.927660 0.657883
Eu2_4 Eu 0.63625(2) 0.78413(3) 0.26075(4)
Eu4_4 Eu 0.69709(2) 0.88253(3) 0.40591(4)
O12_4 O 0.43478(25) 0.98099(19) 0.9925(6)
N1_9 N 0.0874(2) 0.5760(3) 0.5983(7)
N2_11 N 0.1213(2) 0.6874(4) 0.2322(7)
N3_11 N 0.0544(2) 0.6838(3) 0.6661(7)
O1_11 O 0.01108(19) 0.49307(25) 0.8224(5)
O2_5 O 0.03400(18) 0.54467(25) 0.8800(5)
O3_8 O 0.17094(18) 0.80004(27) 0.2891(6)
O4_8 O 0.12045(17) 0.76811(25) 0.3408(6)
O5_7 O 0.08773(16) 0.77569(25) 0.5452(5)
O6_9 O 0.10414(18) 0.79684(27) 0.7105(6)
C1_11 C 0.0290(3) 0.5233(4) 0.8119(8)
C2_11 C 0.0709(3) 0.5660(4) 0.6935(7)
H1_11 H 0.076276 0.580884 0.751879
C3_11 C 0.0465(3) 0.5345(4) 0.7057(8)
C4_9 C 0.0371(4) 0.5129(5) 0.6169(8)
H2_9 H 0.019361 0.491415 0.622939
C5_9 C 0.0542(4) 0.5238(5) 0.5212(9)
H3_9 H 0.048618 0.509372 0.461082
C6_9 C 0.0792(4) 0.5552(5) 0.5123(9)
H4_9 H 0.090821 0.562510 0.445913
C7_11 C 0.1460(3) 0.7729(4) 0.2999(8)
C8_11 C 0.1199(3) 0.7141(4) 0.2626(7)
H5_11 H 0.099791 0.712282 0.282962
C9_11 C 0.1480(3) 0.7438(4) 0.2638(8)
C10_11 C 0.1775(3) 0.7456(4) 0.2335(12)
H6_11 H 0.197156 0.765880 0.235211
C11_11 C 0.1777(4) 0.7187(6) 0.2024(15)
H7_11 H 0.197642 0.720162 0.181487
C12_11 C 0.1487(3) 0.6884(4) 0.2004(12)
H8_11 H 0.148630 0.669252 0.177162
C13_11 C 0.0919(2) 0.7742(4) 0.6453(8)
C14_11 C 0.0654(2) 0.7141(3) 0.6264(8)
H9_11 H 0.061853 0.716958 0.552170
C15_9 C 0.0815(2) 0.7407(3) 0.6912(7)
C16_9 C 0.0878(3) 0.7372(4) 0.7981(9)
H10_9 H 0.099279 0.755610 0.843763
C17_9 C 0.0769(3) 0.7060(4) 0.8372(9)
H11_9 H 0.081099 0.702813 0.910323
C18_9 C 0.0599(3) 0.6794(4) 0.7696(8)
H12_11 H 0.052031 0.658008 0.796706
C19_9 C 0.1115(3) 0.6104(4) 0.5834(10)
H13_9 H 0.129973 0.612349 0.540087
H14_9 H 0.119920 0.620668 0.654943
C20_9 C 0.0901(3) 0.6549(4) 0.2430(9)
H15_9 H 0.071670 0.656207 0.211079
H16_9 H 0.092201 0.637729 0.204564
C21_9 C 0.0369(2) 0.6550(4) 0.5943(9)
H17_9 H 0.022465 0.635893 0.639378
H18_9 H 0.023003 0.658891 0.543518
C22_9 C 0.0965(3) 0.6272(4) 0.5265(9)
C23_9 C 0.1002(3) 0.6337(4) 0.4150(9)
H19_9 H 0.114008 0.628476 0.374441
C24_9 C 0.0844(3) 0.6472(4) 0.3627(8)
C25_9 C 0.0638(3) 0.6539(4) 0.4202(9)
H20_9 H 0.052711 0.663119 0.383713
C26_9 C 0.0589(2) 0.6476(4) 0.5307(8)
C27_9 C 0.0755(3) 0.6344(4) 0.5822(9)
H21_9 H 0.072340 0.630048 0.657883
Eu2_5 Eu 0.21587(3) 0.85211(4) 0.26075(4)
Eu4_5 Eu 0.11747(3) 0.81455(4) 0.40591(4)
O12_5 O 0.01901(19) 0.45378(31) 0.9925(6)
Eu1_2 Eu 0.54920(3) 0.51878(2) 0.92742(4)
N1_10 N 0.4240(3) 0.5114(2) 0.5983(7)
N2_12 N 0.3126(4) 0.4339(3) 0.2322(7)
N3_12 N 0.3162(3) 0.3706(2) 0.6661(7)
O1_12 O 0.50693(25) 0.51801(17) 0.8224(5)
O2_6 O 0.45533(25) 0.48933(17) 0.8800(5)
O3_9 O 0.19996(27) 0.3709(2) 0.2891(6)
O4_9 O 0.23189(25) 0.35234(19) 0.3408(6)
O5_8 O 0.22431(25) 0.31204(19) 0.5452(5)
O6_10 O 0.20316(27) 0.3073(2) 0.7105(6)
C1_12 C 0.4767(4) 0.5057(2) 0.8119(8)
C2_12 C 0.4340(4) 0.5049(2) 0.6935(7)
H1_12 H 0.419116 0.495392 0.751879
C3_12 C 0.4655(4) 0.5120(2) 0.7057(8)
C4_10 C 0.4871(5) 0.5242(3) 0.6169(8)
H2_10 H 0.508585 0.527946 0.622939
C5_10 C 0.4762(5) 0.5304(3) 0.5212(9)
H3_10 H 0.490628 0.539246 0.461082
C6_10 C 0.4448(5) 0.5240(3) 0.5123(9)
H4_10 H 0.437490 0.528311 0.445913
C7_12 C 0.2271(4) 0.3731(3) 0.2999(8)
C8_12 C 0.2859(4) 0.4058(3) 0.2626(7)
H5_12 H 0.287718 0.387509 0.282962
C9_12 C 0.2562(4) 0.4042(3) 0.2638(8)
C10_12 C 0.2544(4) 0.4319(3) 0.2335(12)
H6_12 H 0.234120 0.431276 0.235211
C11_12 C 0.2813(6) 0.4590(4) 0.2024(15)
H7_12 H 0.279838 0.477480 0.181487
C12_12 C 0.3116(4) 0.4603(3) 0.2004(12)
H8_12 H 0.330748 0.479378 0.177162
C13_12 C 0.2258(4) 0.3177(3) 0.6453(8)
C14_12 C 0.2859(3) 0.3513(2) 0.6264(8)
H9_12 H 0.283042 0.344895 0.552170
C15_10 C 0.2593(3) 0.3408(2) 0.6912(7)
C16_10 C 0.2628(4) 0.3506(3) 0.7981(9)
H10_10 H 0.244390 0.343669 0.843763
C17_10 C 0.2940(4) 0.3709(3) 0.8372(9)
H11_10 H 0.297187 0.378286 0.910323
C18_10 C 0.3206(4) 0.3805(3) 0.7696(8)
H12_12 H 0.341992 0.394023 0.796706
C19_10 C 0.3896(4) 0.5011(3) 0.5834(10)
H13_10 H 0.387651 0.517624 0.540087
H14_10 H 0.379332 0.499252 0.654943
C20_10 C 0.3451(4) 0.4352(3) 0.2430(9)
H15_10 H 0.343793 0.415463 0.211079
H16_10 H 0.362271 0.454472 0.204564
C21_10 C 0.3450(4) 0.3819(3) 0.5943(9)
H17_10 H 0.364107 0.386572 0.639378
H18_10 H 0.341109 0.364112 0.543518
C22_10 C 0.3728(4) 0.4693(3) 0.5265(9)
C23_10 C 0.3663(4) 0.4665(3) 0.4150(9)
H19_10 H 0.371524 0.485532 0.374441
C24_10 C 0.3528(4) 0.4372(3) 0.3627(8)
C25_10 C 0.3461(4) 0.4099(3) 0.4202(9)
H20_10 H 0.336881 0.389592 0.383713
C26_10 C 0.3524(4) 0.4113(3) 0.5307(8)
C27_10 C 0.3656(4) 0.4411(3) 0.5822(9)
H21_10 H 0.369952 0.442292 0.657883
O7_10 O 0.5790(4) 0.4906(3) 0.9570(9)
C28_10 C 0.5990(9) 0.4852(7) 0.8745(19)
H22_10 H 0.618731 0.492246 0.919242
H23_10 H 0.604576 0.504219 0.827757
C29_10 C 0.6052(6) 0.4644(5) 0.7899(17)
H24_10 H 0.627004 0.477493 0.758905
H25_10 H 0.603512 0.445219 0.825763
H26_10 H 0.588967 0.457523 0.731751
H27_10 H 0.617236 0.553907 0.978292
O9_10 O 0.54409(27) 0.48709(18) 0.7612(6)
H29_10 H 0.563585 0.495871 0.723212
H30_10 H 0.530249 0.488200 0.709762
Eu2_6 Eu 0.14789(4) 0.36375(2) 0.26075(4)
Eu4_6 Eu 0.18545(4) 0.30291(2) 0.40591(4)
O11_4 O 0.50427(34) 0.46671(27) 0.9558(6)
O12_6 O 0.54622(31) 0.56522(25) 0.9925(6)
O13_5 O 0.57894(31) 0.55764(25) 0.7881(5)
O1_13 O 0.14866(17) 0.32225(19) 0.1557(5)
O2_7 O 0.17734(17) 0.29933(18) 0.2133(5)
O6_11 O 0.3594(2) 0.22919(18) 0.0438(6)
C1_13 C 0.1610(2) 0.3043(3) 0.1452(8)
C2_13 C 0.1618(2) 0.2624(3) 0.0268(7)
H1_13 H 0.171275 0.257057 0.085212
C3_13 C 0.1547(2) 0.2868(3) 0.0390(8)
C15_11 C 0.3259(2) 0.2518(2) 0.0245(7)
C16_11 C 0.3161(3) 0.2455(3) 0.1314(9)
H10_11 H 0.322998 0.234054 0.177096
C17_11 C 0.2958(3) 0.2564(3) 0.1705(9)
H11_11 H 0.288381 0.252234 0.243656
C18_11 C 0.2862(3) 0.2734(3) 0.1029(8)
H12_13 H 0.272644 0.281302 0.130039
O7_11 O 0.1761(3) 0.4217(2) 0.2903(9)
C28_11 C 0.1815(7) 0.4471(6) 0.2078(19)
H22_11 H 0.174421 0.459818 0.252575
H23_11 H 0.162448 0.433690 0.161090
C29_11 C 0.2023(5) 0.4741(4) 0.1232(17)
H24_11 H 0.189174 0.482844 0.092238
H25_11 H 0.221448 0.491626 0.159096
H26_11 H 0.209144 0.464777 0.065084
O8_10 O 0.10827(19) 0.3773(2) 0.3348(7)
H27_11 H 0.112760 0.396662 0.311625
H28_10 H 0.110392 0.379577 0.405992
O9_11 O 0.17958(18) 0.3903(2) 0.0945(6)
H29_11 H 0.170796 0.401047 0.056545
H30_11 H 0.178467 0.375382 0.043095
O10_7 O 0.15600(17) 0.36733(18) 0.4533(5)
O12_7 O 0.10144(25) 0.31433(19) 0.3259(6)
O13_6 O 0.10902(25) 0.35463(19) 0.1215(5)
O1_14 O 0.67775(19) 0.82640(25) 0.1557(5)
O2_8 O 0.70067(18) 0.87800(25) 0.2133(5)
C1_14 C 0.6957(3) 0.8566(4) 0.1452(8)
C2_14 C 0.7376(3) 0.8993(4) 0.0268(7)
H1_14 H 0.742943 0.914217 0.085212
C3_14 C 0.7132(3) 0.8678(4) 0.0390(8)
H12_14 H 0.718698 0.991341 0.130039
O7_12 O 0.5783(2) 0.7543(4) 0.2903(9)
C28_12 C 0.5529(6) 0.7343(9) 0.2078(19)
H22_12 H 0.540182 0.714602 0.252575
H23_12 H 0.566310 0.728757 0.161090
C29_12 C 0.5259(4) 0.7281(6) 0.1232(17)
H24_12 H 0.517156 0.706329 0.092238
H25_12 H 0.508374 0.729821 0.159096
H26_12 H 0.535223 0.744366 0.065084
O8_11 O 0.6227(2) 0.73093(28) 0.3348(7)
H27_12 H 0.603338 0.716097 0.311625
H28_11 H 0.620423 0.730814 0.405992
O9_12 O 0.6097(2) 0.78924(27) 0.0945(6)
H29_12 H 0.598953 0.769748 0.056545
H30_12 H 0.624618 0.803084 0.043095
O10_8 O 0.63267(18) 0.78866(25) 0.4533(5)
O12_8 O 0.68567(19) 0.78712(31) 0.3259(6)
O13_7 O 0.64537(19) 0.75440(31) 0.1215(5)
O1_15 O 0.17360(25) 0.85134(17) 0.1557(5)
O2_9 O 0.12200(25) 0.82266(17) 0.2133(5)
C1_15 C 0.1434(4) 0.8390(2) 0.1452(8)
C2_15 C 0.1007(4) 0.8382(2) 0.0268(7)
H1_15 H 0.085783 0.828725 0.085212
C3_15 C 0.1322(4) 0.8453(2) 0.0390(8)
H12_15 H 0.008659 0.727356 0.130039
O7_13 O 0.2457(4) 0.8239(3) 0.2903(9)
C28_13 C 0.2657(9) 0.8185(7) 0.2078(19)
H22_13 H 0.285398 0.825579 0.252575
H23_13 H 0.271243 0.837552 0.161090
C29_13 C 0.2719(6) 0.7977(5) 0.1232(17)
H24_13 H 0.293671 0.810826 0.092238
H25_13 H 0.270179 0.778552 0.159096
H26_13 H 0.255634 0.790856 0.065084
O8_12 O 0.26907(28) 0.89173(19) 0.3348(7)
H27_13 H 0.283903 0.887240 0.311625
H28_12 H 0.269186 0.889608 0.405992
O9_13 O 0.21076(27) 0.82042(18) 0.0945(6)
H29_13 H 0.230252 0.829204 0.056545
H30_13 H 0.196916 0.821533 0.043095
O10_9 O 0.21134(25) 0.84400(17) 0.4533(5)
O12_9 O 0.21288(31) 0.89856(25) 0.3259(6)
O13_8 O 0.24560(31) 0.89098(25) 0.1215(5)
N2_13 N 0.4546(2) 0.3541(4) 0.8989(7)
C7_13 C 0.4793(3) 0.4396(4) 0.9666(8)
C8_13 C 0.4532(3) 0.3808(4) 0.9293(7)
H5_13 H 0.433124 0.378949 0.949629
C9_13 C 0.4813(3) 0.4105(4) 0.9305(8)
C10_13 C 0.5108(3) 0.4123(4) 0.9002(12)
H6_13 H 0.530489 0.432547 0.901878
C11_13 C 0.5110(4) 0.3854(6) 0.8691(15)
H7_13 H 0.530975 0.386829 0.848154
C12_13 C 0.4820(3) 0.3551(4) 0.8671(12)
H8_13 H 0.481963 0.335919 0.843829
C20_11 C 0.4234(3) 0.3216(4) 0.9097(9)
H15_11 H 0.405003 0.322874 0.877746
H16_11 H 0.425534 0.304396 0.871231
O8_13 O 0.55840(19) 0.9560(2) 0.9985(7)
H28_13 H 0.556275 0.953756 0.927341
O8_14 O 0.0440(2) 0.60240(28) 0.9985(7)
H28_14 H 0.046244 0.602519 0.927341
O8_15 O 0.39760(28) 0.44160(19) 0.9985(7)
H28_15 H 0.397481 0.443725 0.927341
N1_11 N 0.8447(2) 0.7541(2) 0.0684(7)
N2_14 N 0.7672(3) 0.7880(2) 0.4345(7)
N3_13 N 0.7039(2) 0.7211(2) 0.0006(7)
O3_10 O 0.7042(2) 0.83761(18) 0.3776(6)
C4_11 C 0.8575(3) 0.7038(4) 0.0498(8)
H2_11 H 0.861279 0.686028 0.043728
C5_11 C 0.8637(3) 0.7209(4) 0.1455(9)
H3_11 H 0.872579 0.715285 0.205585
C6_11 C 0.8573(3) 0.7459(4) 0.1544(9)
H4_11 H 0.861644 0.757488 0.220754
C7_14 C 0.7064(3) 0.8127(3) 0.3668(8)
C8_14 C 0.7391(3) 0.7866(3) 0.4041(7)
H5_14 H 0.720842 0.766458 0.383705
C9_14 C 0.7375(3) 0.8147(3) 0.4029(8)
C10_14 C 0.7652(3) 0.8442(3) 0.4332(12)
H6_14 H 0.764609 0.863823 0.431456
C11_14 C 0.7923(4) 0.8444(4) 0.4643(15)
H7_14 H 0.810813 0.864309 0.485180
C12_14 C 0.7936(3) 0.8154(3) 0.4663(12)
H8_14 H 0.812711 0.815297 0.489505
C13_13 C 0.6510(3) 0.7586(2) 0.0214(8)
C14_13 C 0.6846(2) 0.7321(2) 0.0403(8)
H9_13 H 0.678228 0.728520 0.114497
C19_11 C 0.8344(3) 0.7782(3) 0.0833(10)
H13_11 H 0.850957 0.796640 0.126580
H14_11 H 0.832585 0.786587 0.011724
C20_12 C 0.7685(3) 0.7568(3) 0.4237(9)
H15_12 H 0.748796 0.738337 0.455588
H16_12 H 0.787805 0.758868 0.462103
C21_11 C 0.7152(3) 0.7036(2) 0.0724(9)
H17_11 H 0.719905 0.689132 0.027289
H18_11 H 0.697445 0.689670 0.123149
C22_11 C 0.8026(3) 0.7632(3) 0.1402(9)
C23_11 C 0.7998(3) 0.7669(3) 0.2517(9)
H19_11 H 0.818865 0.780675 0.292226
C24_11 C 0.7705(3) 0.7511(3) 0.3040(8)
C25_11 C 0.7432(3) 0.7305(3) 0.2465(9)
H20_11 H 0.722925 0.719378 0.282954
C26_11 C 0.7446(3) 0.7256(2) 0.1360(8)
C27_11 C 0.7744(3) 0.7422(3) 0.0845(9)
H21_11 H 0.775625 0.739007 0.008784
N2_15 N 0.2120(2) 0.9793(4) 0.4345(7)
N3_14 N 0.2789(2) 0.9829(3) 0.0006(7)
O3_11 O 0.16239(18) 0.86663(27) 0.3776(6)
C7_15 C 0.1873(3) 0.8938(4) 0.3668(8)
C8_15 C 0.2134(3) 0.9526(4) 0.4041(7)
H5_15 H 0.233542 0.954385 0.383705
C9_15 C 0.1853(3) 0.9229(4) 0.4029(8)
C10_15 C 0.1558(3) 0.9211(4) 0.4332(12)
H6_15 H 0.136177 0.900787 0.431456
C11_15 C 0.1556(4) 0.9480(6) 0.4643(15)
H7_15 H 0.135691 0.946505 0.485180
C12_15 C 0.1846(3) 0.9783(4) 0.4663(12)
H8_15 H 0.184703 0.997415 0.489505
C13_14 C 0.2414(2) 0.8925(4) 0.0214(8)
C14_14 C 0.2679(2) 0.9526(3) 0.0403(8)
H9_14 H 0.271480 0.949709 0.114497
N2_16 N 0.0207(4) 0.2328(3) 0.4345(7)
N3_15 N 0.0171(3) 0.2961(2) 0.0006(7)
O3_12 O 0.13337(27) 0.2958(2) 0.3776(6)
C7_16 C 0.1062(4) 0.2936(3) 0.3668(8)
C8_16 C 0.0474(4) 0.2609(3) 0.4041(7)
H5_16 H 0.045615 0.279158 0.383705
C9_16 C 0.0771(4) 0.2625(3) 0.4029(8)
C10_16 C 0.0789(4) 0.2348(3) 0.4332(12)
H6_16 H 0.099213 0.235391 0.431456
C11_16 C 0.0520(6) 0.2077(4) 0.4643(15)
H7_16 H 0.053495 0.189187 0.485180
C12_16 C 0.0217(4) 0.2064(3) 0.4663(12)
H8_16 H 0.002585 0.187289 0.489505
C13_15 C 0.1075(4) 0.3490(3) 0.0214(8)
C14_15 C 0.0474(3) 0.3154(2) 0.0403(8)
H9_15 H 0.050291 0.321772 0.114497
N1_12 N 0.1781(2) 0.4207(2) 0.7350(7)
N3_16 N 0.0373(2) 0.3877(2) 0.6672(7)
O1_16 O 0.18468(17) 0.34441(19) 0.5109(5)
C1_16 C 0.1724(2) 0.3623(3) 0.5214(8)
C2_16 C 0.1716(2) 0.4042(3) 0.6398(7)
H1_16 H 0.162059 0.409609 0.581454
C3_16 C 0.1787(2) 0.3798(3) 0.6276(8)
C4_12 C 0.1909(3) 0.3704(4) 0.7164(8)
H2_12 H 0.194613 0.352694 0.710394
C5_12 C 0.1971(3) 0.3875(4) 0.8121(9)
H3_12 H 0.205913 0.381951 0.872251
C6_12 C 0.1907(3) 0.4125(4) 0.8210(9)
H4_12 H 0.194978 0.424154 0.887420
C14_16 C 0.0180(2) 0.3987(2) 0.7069(8)
H9_16 H 0.011562 0.395186 0.781163
C15_12 C 0.0075(2) 0.4148(2) 0.6421(7)
C16_12 C 0.0173(3) 0.4211(3) 0.5352(9)
H10_12 H 0.010336 0.432612 0.489570
C17_12 C 0.0376(3) 0.4102(3) 0.4961(9)
H11_12 H 0.044953 0.414432 0.423010
C18_12 C 0.0472(3) 0.3932(3) 0.5637(8)
H12_16 H 0.060690 0.385364 0.536627
C19_12 C 0.1678(3) 0.4448(3) 0.7499(10)
H13_12 H 0.184291 0.463306 0.793246
H14_12 H 0.165919 0.453253 0.678390
C21_12 C 0.0486(3) 0.3702(2) 0.7390(9)
H17_12 H 0.053239 0.355798 0.693955
H18_12 H 0.030779 0.356336 0.789815
C22_12 C 0.1360(3) 0.4298(3) 0.8068(9)
C23_12 C 0.1332(3) 0.4335(3) 0.9183(9)
H19_12 H 0.152199 0.447341 0.958892
C24_12 C 0.1039(3) 0.4177(3) 0.9706(8)
C25_12 C 0.0766(3) 0.3971(3) 0.9131(9)
H20_12 H 0.056259 0.386044 0.949620
C26_12 C 0.0780(3) 0.3922(2) 0.8026(8)
C27_12 C 0.1078(3) 0.4088(3) 0.7511(9)
H21_12 H 0.108959 0.405673 0.675450
O7_14 O 0.1573(3) 0.2449(2) 0.3763(9)
C28_14 C 0.1519(7) 0.2195(6) 0.4588(19)
H22_14 H 0.158913 0.206848 0.414091
H23_14 H 0.170886 0.232976 0.505576
C29_14 C 0.1311(5) 0.1925(4) 0.5434(17)
H24_14 H 0.144160 0.183822 0.574428
H25_14 H 0.111886 0.175040 0.507570
H26_14 H 0.124190 0.201889 0.601582
O8_16 O 0.22507(19) 0.2893(2) 0.3318(7)
H27_14 H 0.220574 0.270004 0.355041
H28_16 H 0.222942 0.287089 0.260674
O9_14 O 0.15376(18) 0.2763(2) 0.5721(6)
H29_14 H 0.162538 0.265619 0.610121
H30_14 H 0.154867 0.291284 0.623571
N1_13 N 0.5793(2) 0.7573(3) 0.7350(7)
N3_17 N 0.6123(2) 0.6495(3) 0.6672(7)
O1_17 O 0.65559(19) 0.84026(25) 0.5109(5)
O6_12 O 0.56253(18) 0.53649(27) 0.6228(6)
C1_17 C 0.6377(3) 0.8100(4) 0.5214(8)
C2_17 C 0.5958(3) 0.7673(4) 0.6398(7)
H1_17 H 0.590391 0.752449 0.581454
C3_17 C 0.6202(3) 0.7988(4) 0.6276(8)
C4_13 C 0.6296(4) 0.8204(5) 0.7164(8)
H2_13 H 0.647306 0.841918 0.710394
C5_13 C 0.6125(4) 0.8095(5) 0.8121(9)
H3_13 H 0.618049 0.823961 0.872251
C6_13 C 0.5875(4) 0.7781(5) 0.8210(9)
H4_13 H 0.575846 0.770823 0.887420
C13_16 C 0.5748(2) 0.5591(4) 0.6880(8)
C14_17 C 0.6013(2) 0.6192(3) 0.7069(8)
H9_17 H 0.604814 0.616375 0.781163
C15_13 C 0.5852(2) 0.5926(3) 0.6421(7)
C16_13 C 0.5789(3) 0.5961(4) 0.5352(9)
H10_13 H 0.567388 0.577723 0.489570
C17_13 C 0.5898(3) 0.6273(4) 0.4961(9)
H11_13 H 0.585568 0.630520 0.423010
C18_13 C 0.6068(3) 0.6539(4) 0.5637(8)
H12_17 H 0.614636 0.675325 0.536627
C19_13 C 0.5552(3) 0.7229(4) 0.7499(10)
H13_13 H 0.536694 0.720984 0.793246
H14_13 H 0.546747 0.712665 0.678390
C21_13 C 0.6298(2) 0.6783(4) 0.7390(9)
H17_13 H 0.644202 0.697440 0.693955
H18_13 H 0.643664 0.674442 0.789815
C22_13 C 0.5702(3) 0.7061(4) 0.8068(9)
C23_13 C 0.5665(3) 0.6996(4) 0.9183(9)
H19_13 H 0.552659 0.704857 0.958892
C24_13 C 0.5823(3) 0.6861(4) 0.9706(8)
C25_13 C 0.6029(3) 0.6794(4) 0.9131(9)
H20_13 H 0.613956 0.670214 0.949620
C26_13 C 0.6078(2) 0.6857(4) 0.8026(8)
C27_13 C 0.5912(3) 0.6989(4) 0.7511(9)
H21_13 H 0.594327 0.703285 0.675450
O7_15 O 0.7551(2) 0.9123(4) 0.3763(9)
C28_15 C 0.7805(6) 0.9323(9) 0.4588(19)
H22_15 H 0.793152 0.952064 0.414091
H23_15 H 0.767024 0.937909 0.505576
C29_15 C 0.8075(4) 0.9385(6) 0.5434(17)
H24_15 H 0.816178 0.960337 0.574428
H25_15 H 0.824960 0.936845 0.507570
H26_15 H 0.798111 0.922300 0.601582
O8_17 O 0.7107(2) 0.93573(28) 0.3318(7)
H27_15 H 0.729996 0.950569 0.355041
H28_17 H 0.712911 0.935852 0.260674
O9_15 O 0.7237(2) 0.87742(27) 0.5721(6)
H29_15 H 0.734381 0.896918 0.610121
H30_15 H 0.708716 0.863582 0.623571
N1_14 N 0.2427(3) 0.8219(2) 0.7350(7)
N3_18 N 0.3505(3) 0.9627(2) 0.6672(7)
O1_18 O 0.15974(25) 0.81532(17) 0.5109(5)
C1_18 C 0.1900(4) 0.8276(2) 0.5214(8)
C2_18 C 0.2327(4) 0.8284(2) 0.6398(7)
H1_18 H 0.247551 0.837941 0.581454
C3_18 C 0.2012(4) 0.8213(2) 0.6276(8)
C4_14 C 0.1796(5) 0.8091(3) 0.7164(8)
H2_14 H 0.158082 0.805387 0.710394
C5_14 C 0.1905(5) 0.8029(3) 0.8121(9)
H3_14 H 0.176039 0.794087 0.872251
C6_14 C 0.2219(5) 0.8093(3) 0.8210(9)
H4_14 H 0.229177 0.805022 0.887420
C14_18 C 0.3808(3) 0.9820(2) 0.7069(8)
H9_18 H 0.383625 0.988438 0.781163
C15_14 C 0.4074(3) 0.9925(2) 0.6421(7)
C16_14 C 0.4039(4) 0.9827(3) 0.5352(9)
H10_14 H 0.422277 0.989664 0.489570
C17_14 C 0.3727(4) 0.9624(3) 0.4961(9)
H11_14 H 0.369480 0.955047 0.423010
C18_14 C 0.3461(4) 0.9528(3) 0.5637(8)
H12_18 H 0.324675 0.939310 0.536627
C19_14 C 0.2771(4) 0.8322(3) 0.7499(10)
H13_14 H 0.279016 0.815709 0.793246
H14_14 H 0.287335 0.834081 0.678390
C21_14 C 0.3217(4) 0.9514(3) 0.7390(9)
H17_14 H 0.302560 0.946761 0.693955
H18_14 H 0.325558 0.969221 0.789815
C22_14 C 0.2939(4) 0.8640(3) 0.8068(9)
C23_14 C 0.3004(4) 0.8668(3) 0.9183(9)
H19_14 H 0.295143 0.847801 0.958892
C24_14 C 0.3139(4) 0.8961(3) 0.9706(8)
C25_14 C 0.3206(4) 0.9234(3) 0.9131(9)
H20_14 H 0.329786 0.943741 0.949620
C26_14 C 0.3143(4) 0.9220(3) 0.8026(8)
C27_14 C 0.3011(4) 0.8922(3) 0.7511(9)
H21_14 H 0.296715 0.891041 0.675450
O7_16 O 0.0877(4) 0.8427(3) 0.3763(9)
C28_16 C 0.0677(9) 0.8481(7) 0.4588(19)
H22_16 H 0.047936 0.841087 0.414091
H23_16 H 0.062091 0.829114 0.505576
C29_16 C 0.0615(6) 0.8689(5) 0.5434(17)
H24_16 H 0.039663 0.855840 0.574428
H25_16 H 0.063155 0.888114 0.507570
H26_16 H 0.077700 0.875810 0.601582
O8_18 O 0.06427(28) 0.77493(19) 0.3318(7)
H27_16 H 0.049431 0.779426 0.355041
H28_18 H 0.064148 0.777058 0.260674
O9_16 O 0.12258(27) 0.84624(18) 0.5721(6)
H29_16 H 0.103082 0.837462 0.610121
H30_16 H 0.136418 0.845133 0.623571
Eu3_3 Eu 0.03042(2) 0.54920(3) 0.07258(4)
O5_9 O 0.02129(19) 0.57894(16) 0.2119(5)
O6_13 O 0.0260(2) 0.56253(18) 0.3772(6)
C13_17 C 0.0156(3) 0.5748(2) 0.3120(8)
O7_17 O 0.0884(2) 0.5790(4) 0.0430(9)
C28_17 C 0.1138(6) 0.5990(9) 0.1255(19)
H22_17 H 0.126485 0.618731 0.080758
H23_17 H 0.100357 0.604576 0.172243
C29_17 C 0.1408(4) 0.6052(6) 0.2101(17)
H24_17 H 0.149511 0.627004 0.241095
H25_17 H 0.158293 0.603512 0.174237
H26_17 H 0.131444 0.588967 0.268249
H27_17 H 0.063329 0.617236 0.021708
O9_17 O 0.0570(2) 0.54409(27) 0.2388(6)
H29_17 H 0.067714 0.563585 0.276788
H30_17 H 0.042049 0.530249 0.290238
O11_5 O 0.0376(2) 0.50427(34) 0.0442(6)
N2_17 N 0.1006(3) 0.4546(2) 0.1011(7)
C7_17 C 0.0398(3) 0.4793(3) 0.0334(8)
C8_17 C 0.0725(3) 0.4532(3) 0.0707(7)
H5_17 H 0.054176 0.433124 0.050371
C9_17 C 0.0709(3) 0.4813(3) 0.0695(8)
C10_17 C 0.0986(3) 0.5108(3) 0.0998(12)
H6_17 H 0.097943 0.530489 0.098122
C11_17 C 0.1257(4) 0.5110(4) 0.1309(15)
H7_17 H 0.144147 0.530975 0.151846
C12_17 C 0.1270(3) 0.4820(3) 0.1329(12)
H8_17 H 0.146045 0.481963 0.156171
C20_13 C 0.1019(3) 0.4234(3) 0.0903(9)
H15_13 H 0.082130 0.405003 0.122254
H16_13 H 0.121139 0.425534 0.128769
Eu1_3 Eu 0.96958(2) 0.45080(3) 0.92742(4)
O7_18 O 0.9116(2) 0.4210(4) 0.9570(9)
C28_18 C 0.8862(6) 0.4010(9) 0.8745(19)
H22_18 H 0.873515 0.381269 0.919242
H23_18 H 0.899643 0.395424 0.827757
C29_18 C 0.8592(4) 0.3948(6) 0.7899(17)
H24_18 H 0.850489 0.372996 0.758905
H25_18 H 0.841707 0.396488 0.825763
H26_18 H 0.868556 0.411033 0.731751
H27_18 H 0.936671 0.382764 0.978292
O9_18 O 0.9430(2) 0.45591(27) 0.7612(6)
H29_18 H 0.932286 0.436415 0.723212
H30_18 H 0.957951 0.469751 0.709762
O11_6 O 0.9624(2) 0.49573(34) 0.9558(6)
O13_9 O 0.97871(19) 0.42106(31) 0.7881(5)
N2_18 N 0.8994(3) 0.5454(2) 0.8989(7)
C7_18 C 0.9602(3) 0.5207(3) 0.9666(8)
C8_18 C 0.9275(3) 0.5468(3) 0.9293(7)
H5_18 H 0.945824 0.566876 0.949629
C9_18 C 0.9291(3) 0.5187(3) 0.9305(8)
C10_18 C 0.9014(3) 0.4892(3) 0.9002(12)
H6_18 H 0.902057 0.469511 0.901878
C11_18 C 0.8743(4) 0.4890(4) 0.8691(15)
H7_18 H 0.855853 0.469025 0.848154
C12_18 C 0.8730(3) 0.5180(3) 0.8671(12)
H8_18 H 0.853955 0.518037 0.843829
C20_14 C 0.8981(3) 0.5766(3) 0.9097(9)
H15_14 H 0.917870 0.594997 0.877746
H16_14 H 0.878861 0.574466 0.871231
O6_14 O 0.9740(2) 0.43747(18) 0.6228(6)
C13_18 C 0.9844(3) 0.4252(2) 0.6880(8)
O6_15 O 0.77081(18) 0.13017(27) 0.0438(6)
C15_15 C 0.7482(2) 0.0740(3) 0.0245(7)
C16_15 C 0.7545(3) 0.0705(4) 0.1314(9)
H10_15 H 0.765946 0.088943 0.177096
C17_15 C 0.7436(3) 0.0393(4) 0.1705(9)
H11_15 H 0.747766 0.036146 0.243656
C18_15 C 0.7266(3) 0.0127(4) 0.1029(8)
N1_15 N 0.7541(2) 0.9093(3) 0.9316(7)
C4_15 C 0.7038(4) 0.8462(5) 0.9502(8)
H2_15 H 0.686028 0.824748 0.956272
C5_15 C 0.7209(4) 0.8571(5) 0.8545(9)
H3_15 H 0.715285 0.842705 0.794415
C6_15 C 0.7459(4) 0.8885(5) 0.8456(9)
H4_15 H 0.757488 0.895843 0.779246
C19_15 C 0.7782(3) 0.9437(4) 0.9167(10)
H13_15 H 0.796640 0.945682 0.873420
H14_15 H 0.786587 0.954001 0.988276
C20_15 C 0.7568(3) 0.9882(4) 0.5763(9)
H15_15 H 0.738337 0.989540 0.544412
H16_15 H 0.758868 0.971062 0.537897
C21_15 C 0.7036(2) 0.9883(4) 0.9276(9)
H17_15 H 0.689132 0.969226 0.972711
H18_15 H 0.689670 0.992224 0.876851
C22_15 C 0.7632(3) 0.9605(4) 0.8598(9)
C23_15 C 0.7669(3) 0.9670(4) 0.7483(9)
H19_15 H 0.780675 0.961809 0.707774
C24_15 C 0.7511(3) 0.9805(4) 0.6960(8)
C25_15 C 0.7305(3) 0.9872(4) 0.7535(9)
H20_15 H 0.719378 0.996452 0.717046
C26_15 C 0.7256(2) 0.9809(4) 0.8640(8)
C27_15 C 0.7422(3) 0.9677(4) 0.9155(9)
H21_15 H 0.739007 0.963381 0.991216
N1_16 N 0.0907(3) 0.8447(2) 0.9316(7)
C4_16 C 0.1538(5) 0.8575(3) 0.9502(8)
H2_16 H 0.175252 0.861279 0.956272
C5_16 C 0.1429(5) 0.8637(3) 0.8545(9)
H3_16 H 0.157295 0.872579 0.794415
C6_16 C 0.1115(5) 0.8573(3) 0.8456(9)
H4_16 H 0.104157 0.861644 0.779246
C19_16 C 0.0563(4) 0.8344(3) 0.9167(10)
H13_16 H 0.054318 0.850957 0.873420
H14_16 H 0.045999 0.832585 0.988276
C20_16 C 0.0118(4) 0.7685(3) 0.5763(9)
H15_16 H 0.010460 0.748796 0.544412
H16_16 H 0.028938 0.787805 0.537897
C21_16 C 0.0117(4) 0.7152(3) 0.9276(9)
H17_16 H 0.030774 0.719905 0.972711
H18_16 H 0.007776 0.697445 0.876851
C22_16 C 0.0395(4) 0.8026(3) 0.8598(9)
C23_16 C 0.0330(4) 0.7998(3) 0.7483(9)
H19_16 H 0.038191 0.818865 0.707774
C24_16 C 0.0195(4) 0.7705(3) 0.6960(8)
C25_16 C 0.0128(4) 0.7432(3) 0.7535(9)
H20_16 H 0.003548 0.722925 0.717046
C26_16 C 0.0191(4) 0.7446(3) 0.8640(8)
C27_16 C 0.0323(4) 0.7744(3) 0.9155(9)
H21_16 H 0.036619 0.775625 0.991216
O6_16 O 0.86983(27) 0.6406(2) 0.0438(6)
C15_16 C 0.9260(3) 0.6741(2) 0.0245(7)
C16_16 C 0.9295(4) 0.6839(3) 0.1314(9)
H10_16 H 0.911057 0.677002 0.177096
C17_16 C 0.9607(4) 0.7042(3) 0.1705(9)
H11_16 H 0.963854 0.711619 0.243656
C18_16 C 0.9873(4) 0.7138(3) 0.1029(8)
N1_17 N 0.2459(2) 0.0907(3) 0.0684(7)
C4_17 C 0.2962(4) 0.1538(5) 0.0498(8)
H2_17 H 0.313972 0.175252 0.043728
C5_17 C 0.2791(4) 0.1429(5) 0.1455(9)
H3_17 H 0.284715 0.157295 0.205585
C6_17 C 0.2541(4) 0.1115(5) 0.1544(9)
H4_17 H 0.242512 0.104157 0.220754
C19_17 C 0.2218(3) 0.0563(4) 0.0833(10)
H13_17 H 0.203360 0.054318 0.126580
H14_17 H 0.213413 0.045999 0.011724
C20_17 C 0.2432(3) 0.0118(4) 0.4237(9)
H15_17 H 0.261663 0.010460 0.455588
H16_17 H 0.241132 0.028938 0.462103
C21_17 C 0.2964(2) 0.0117(4) 0.0724(9)
H17_17 H 0.310868 0.030774 0.027289
H18_17 H 0.310330 0.007776 0.123149
C22_17 C 0.2368(3) 0.0395(4) 0.1402(9)
C23_17 C 0.2331(3) 0.0330(4) 0.2517(9)
H19_17 H 0.219325 0.038191 0.292226
C24_17 C 0.2489(3) 0.0195(4) 0.3040(8)
C25_17 C 0.2695(3) 0.0128(4) 0.2465(9)
H20_17 H 0.280622 0.003548 0.282954
C26_17 C 0.2744(2) 0.0191(4) 0.1360(8)
C27_17 C 0.2578(3) 0.0323(4) 0.0845(9)
H21_17 H 0.260993 0.036619 0.008784
O6_17 O 0.22919(18) 0.86983(27) 0.9562(6)
C15_17 C 0.2518(2) 0.9260(3) 0.9755(7)
C16_17 C 0.2455(3) 0.9295(4) 0.8686(9)
H10_17 H 0.234054 0.911057 0.822904
C17_17 C 0.2564(3) 0.9607(4) 0.8295(9)
H11_17 H 0.252234 0.963854 0.756344
C18_17 C 0.2734(3) 0.9873(4) 0.8971(8)
O6_18 O 0.13017(27) 0.3594(2) 0.9562(6)
C15_18 C 0.0740(3) 0.3259(2) 0.9755(7)
C16_18 C 0.0705(4) 0.3161(3) 0.8686(9)
H10_18 H 0.088943 0.322998 0.822904
C17_18 C 0.0393(4) 0.2958(3) 0.8295(9)
H11_18 H 0.036146 0.288381 0.756344
C18_18 C 0.0127(4) 0.2862(3) 0.8971(8)
N1_18 N 0.9093(3) 0.1553(2) 0.0684(7)
C4_18 C 0.8462(5) 0.1425(3) 0.0498(8)
H2_18 H 0.824748 0.138721 0.043728
C5_18 C 0.8571(5) 0.1363(3) 0.1455(9)
H3_18 H 0.842705 0.127421 0.205585
C6_18 C 0.8885(5) 0.1427(3) 0.1544(9)
H4_18 H 0.895843 0.138356 0.220754
C19_18 C 0.9437(4) 0.1656(3) 0.0833(10)
H13_18 H 0.945682 0.149043 0.126580
H14_18 H 0.954001 0.167415 0.011724
C20_18 C 0.9882(4) 0.2315(3) 0.4237(9)
H15_18 H 0.989540 0.251204 0.455588
H16_18 H 0.971062 0.212195 0.462103
C21_18 C 0.9883(4) 0.2848(3) 0.0724(9)
H17_18 H 0.969226 0.280095 0.027289
H18_18 H 0.992224 0.302555 0.123149
C22_18 C 0.9605(4) 0.1974(3) 0.1402(9)
C23_18 C 0.9670(4) 0.2002(3) 0.2517(9)
H19_18 H 0.961809 0.181135 0.292226
C24_18 C 0.9805(4) 0.2295(3) 0.3040(8)
C25_18 C 0.9872(4) 0.2568(3) 0.2465(9)
H20_18 H 0.996452 0.277075 0.282954
C26_18 C 0.9809(4) 0.2554(3) 0.1360(8)
C27_18 C 0.9677(4) 0.2256(3) 0.0845(9)
H21_18 H 0.963381 0.224375 0.008784
Br1 Br 0.56488(13) 0.03614(14) 0.6932(3)
Br1_2 Br 0.96386(14) 0.52874(19) 0.6932(3)
Br1_3 Br 0.47126(19) 0.43512(13) 0.6932(3)
Br1_4 Br 0.23155(13) 0.36947(14) 0.0265(3)
Br1_5 Br 0.63053(14) 0.86207(19) 0.0265(3)
Br1_6 Br 0.13793(19) 0.76845(13) 0.0265(3)
Br1_7 Br 0.89821(13) 0.70281(14) 0.3599(3)
Br1_8 Br 0.29719(14) 0.19541(19) 0.3599(3)
Br1_9 Br 0.80459(19) 0.10179(13) 0.3599(3)
Br1_10 Br 0.43512(13) 0.96386(14) 0.3068(3)
Br1_11 Br 0.03614(14) 0.47126(19) 0.3068(3)
Br1_12 Br 0.52874(19) 0.56488(13) 0.3068(3)
Br1_13 Br 0.76845(13) 0.63053(14) 0.9735(3)
Br1_14 Br 0.36947(14) 0.13793(19) 0.9735(3)
Br1_15 Br 0.86207(19) 0.23155(13) 0.9735(3)
Br1_16 Br 0.10179(13) 0.29719(14) 0.6401(3)
Br1_17 Br 0.70281(14) 0.80459(19) 0.6401(3)
Br1_18 Br 0.19541(19) 0.89821(13) 0.6401(3)
loop_
_geom_bond_atom_site_label_1
_geom_bond_atom_site_label_2
_geom_bond_site_symmetry_1
_geom_bond_site_symmetry_2
H28 O8 1_555 1_555
H28_2 O8_2 1_555 1_555
H28_3 O8_3 1_555 1_555
N2 C8 1_555 1_555
N3 C14 1_555 1_555
O3 C7 1_555 1_555
O4 C7 1_555 1_555
O5 C13 1_555 1_555
H2 C4 1_555 1_555
C5 C4 1_555 1_555
H3 C5 1_555 1_555
C6 N1 1_555 1_555
H4 C6 1_555 1_555
C7 C9 1_555 1_555
C8 H5 1_555 1_555
C9 C8 1_555 1_555
C10 C9 1_555 1_555
H6 C10 1_555 1_555
C11 C10 1_555 1_555
H7 C11 1_555 1_555
C12 N2 1_555 1_555
H8 C12 1_555 1_555
C14 H9 1_555 1_555
C19 N1 1_555 1_555
H13 C19 1_555 1_555
H14 C19 1_555 1_555
C20 N2 1_555 1_555
H15 C20 1_555 1_555
H16 C20 1_555 1_555
C21 N3 1_555 1_555
H17 C21 1_555 1_555
H18 C21 1_555 1_555
C22 C19 1_555 1_555
C23 C22 1_555 1_555
H19 C23 1_555 1_555
C24 C20 1_555 1_555
C25 C24 1_555 1_555
H20 C25 1_555 1_555
C26 C21 1_555 1_555
C27 C22 1_555 1_555
H21 C27 1_555 1_555
Eu2 O3 1_555 1_555
Eu4 O4 1_555 1_555
O5 Eu4 1_555 1_555
C5 C6 1_555 1_555
C11 C12 1_555 1_555
C23 C24 1_555 1_555
C25 C26 1_555 1_555
C26 C27 1_555 1_555
N2_2 C8_2 1_555 1_555
N3_2 C14_2 1_555 1_555
O3_2 C7_2 1_555 1_555
O4_2 C7_2 1_555 1_555
O5_2 C13_2 1_555 1_555
C7_2 C9_2 1_555 1_555
C8_2 H5_2 1_555 1_555
C9_2 C8_2 1_555 1_555
C10_2 C9_2 1_555 1_555
H6_2 C10_2 1_555 1_555
C11_2 C10_2 1_555 1_555
H7_2 C11_2 1_555 1_555
C12_2 N2_2 1_555 1_555
H8_2 C12_2 1_555 1_555
C14_2 H9_2 1_555 1_555
Eu2_2 O3_2 1_555 1_555
Eu4_2 O4_2 1_555 1_555
O5_2 Eu4_2 1_555 1_555
C11_2 C12_2 1_555 1_555
N2_3 C8_3 1_555 1_555
N3_3 C14_3 1_555 1_555
O3_3 C7_3 1_555 1_555
O4_3 C7_3 1_555 1_555
O5_3 C13_3 1_555 1_555
C7_3 C9_3 1_555 1_555
C8_3 H5_3 1_555 1_555
C9_3 C8_3 1_555 1_555
C10_3 C9_3 1_555 1_555
H6_3 C10_3 1_555 1_555
C11_3 C10_3 1_555 1_555
H7_3 C11_3 1_555 1_555
C12_3 N2_3 1_555 1_555
H8_3 C12_3 1_555 1_555
C14_3 H9_3 1_555 1_555
Eu2_3 O3_3 1_555 1_555
Eu4_3 O4_3 1_555 1_555
O5_3 Eu4_3 1_555 1_555
C11_3 C12_3 1_555 1_555
Eu2_3 O1 1_555 1_555
N1_2 C2 1_555 1_555
N3_4 C14_4 1_555 1_555
O1 C1 1_555 1_555
O2 C1 1_555 1_555
C1 C3 1_555 1_555
C2 H1 1_555 1_555
C3 C2 1_555 1_555
C4_2 C3 1_555 1_555
H2_2 C4_2 1_555 1_555
C5_2 C4_2 1_555 1_555
H3_2 C5_2 1_555 1_555
C6_2 N1_2 1_555 1_555
H4_2 C6_2 1_555 1_555
C14_4 H9_4 1_555 1_555
C15 C14_4 1_555 1_555
C16 C15 1_555 1_555
H10 C16 1_555 1_555
C17 C16 1_555 1_555
H11 C17 1_555 1_555
C18 N3_4 1_555 1_555
H12 C18 1_555 1_555
C19_2 N1_2 1_555 1_555
H13_2 C19_2 1_555 1_555
H14_2 C19_2 1_555 1_555
C21_2 N3_4 1_555 1_555
H17_2 C21_2 1_555 1_555
H18_2 C21_2 1_555 1_555
C22_2 C19_2 1_555 1_555
C23_2 C22_2 1_555 1_555
H19_2 C23_2 1_555 1_555
C25_2 C24_2 1_555 1_555
H20_2 C25_2 1_555 1_555
C26_2 C21_2 1_555 1_555
C27_2 C22_2 1_555 1_555
H21_2 C27_2 1_555 1_555
O7 Eu2_3 1_555 1_555
C28 O7 1_555 1_555
H22 C28 1_555 1_555
H23 C28 1_555 1_555
C29 C28 1_555 1_555
H24 C29 1_555 1_555
H25 C29 1_555 1_555
H26 C29 1_555 1_555
O8_4 Eu2_3 1_555 1_555
H27 O8_4 1_555 1_555
H28_4 O8_4 1_555 1_555
O9 Eu2_3 1_555 1_555
H29 O9 1_555 1_555
H30 O9 1_555 1_555
Eu4_3 O2 1_555 1_555
O10_4 Eu2_3 1_555 1_555
O12 Eu2_3 1_555 1_555
O13 Eu2_3 1_555 1_555
C5_2 C6_2 1_555 1_555
C17 C18 1_555 1_555
C23_2 C24_2 1_555 1_555
C25_2 C26_2 1_555 1_555
C26_2 C27_2 1_555 1_555
Eu2 O1_2 1_555 1_555
N1_3 C2_2 1_555 1_555
N3_5 C14_5 1_555 1_555
O1_2 C1_2 1_555 1_555
O2_2 C1_2 1_555 1_555
O5_4 C13_4 1_555 1_555
O6 C13_4 1_555 1_555
C1_2 C3_2 1_555 1_555
C2_2 H1_2 1_555 1_555
C3_2 C2_2 1_555 1_555
C4_3 C3_2 1_555 1_555
H2_3 C4_3 1_555 1_555
C5_3 C4_3 1_555 1_555
H3_3 C5_3 1_555 1_555
C6_3 N1_3 1_555 1_555
H4_3 C6_3 1_555 1_555
C13_4 C15_2 1_555 1_555
C14_5 H9_5 1_555 1_555
C15_2 C14_5 1_555 1_555
C16_2 C15_2 1_555 1_555
H10_2 C16_2 1_555 1_555
C17_2 C16_2 1_555 1_555
H11_2 C17_2 1_555 1_555
C18_2 N3_5 1_555 1_555
H12_2 C18_2 1_555 1_555
C19_3 N1_3 1_555 1_555
H13_3 C19_3 1_555 1_555
H14_3 C19_3 1_555 1_555
C21_3 N3_5 1_555 1_555
H17_3 C21_3 1_555 1_555
H18_3 C21_3 1_555 1_555
C22_3 C19_3 1_555 1_555
C23_3 C22_3 1_555 1_555
H19_3 C23_3 1_555 1_555
C25_3 C24_3 1_555 1_555
H20_3 C25_3 1_555 1_555
C26_3 C21_3 1_555 1_555
C27_3 C22_3 1_555 1_555
H21_3 C27_3 1_555 1_555
O7_2 Eu2 1_555 1_555
C28_2 O7_2 1_555 1_555
H22_2 C28_2 1_555 1_555
H23_2 C28_2 1_555 1_555
C29_2 C28_2 1_555 1_555
H24_2 C29_2 1_555 1_555
H25_2 C29_2 1_555 1_555
H26_2 C29_2 1_555 1_555
O8_5 Eu2 1_555 1_555
H27_2 O8_5 1_555 1_555
H28_5 O8_5 1_555 1_555
O9_2 Eu2 1_555 1_555
H29_2 O9_2 1_555 1_555
H30_2 O9_2 1_555 1_555
Eu4 O2_2 1_555 1_555
Eu3 O4_5 1_555 1_555
O10_5 Eu2 1_555 1_555
O12_2 Eu2 1_555 1_555
O13_2 Eu2 1_555 1_555
O5_4 Eu3 1_555 1_555
C5_3 C6_3 1_555 1_555
C17_2 C18_2 1_555 1_555
C23_3 C24_3 1_555 1_555
C25_3 C26_3 1_555 1_555
C26_3 C27_3 1_555 1_555
Eu2_2 O1_3 1_555 1_555
N1_4 C2_3 1_555 1_555
N3_6 C14_6 1_555 1_555
O1_3 C1_3 1_555 1_555
O2_3 C1_3 1_555 1_555
C1_3 C3_3 1_555 1_555
C2_3 H1_3 1_555 1_555
C3_3 C2_3 1_555 1_555
C4_4 C3_3 1_555 1_555
H2_4 C4_4 1_555 1_555
C5_4 C4_4 1_555 1_555
H3_4 C5_4 1_555 1_555
C6_4 N1_4 1_555 1_555
H4_4 C6_4 1_555 1_555
C14_6 H9_6 1_555 1_555
C15_3 C14_6 1_555 1_555
C16_3 C15_3 1_555 1_555
H10_3 C16_3 1_555 1_555
C17_3 C16_3 1_555 1_555
H11_3 C17_3 1_555 1_555
C18_3 N3_6 1_555 1_555
H12_3 C18_3 1_555 1_555
C19_4 N1_4 1_555 1_555
H13_4 C19_4 1_555 1_555
H14_4 C19_4 1_555 1_555
C21_4 N3_6 1_555 1_555
H17_4 C21_4 1_555 1_555
H18_4 C21_4 1_555 1_555
C22_4 C19_4 1_555 1_555
C23_4 C22_4 1_555 1_555
H19_4 C23_4 1_555 1_555
C25_4 C24_4 1_555 1_555
H20_4 C25_4 1_555 1_555
C26_4 C21_4 1_555 1_555
C27_4 C22_4 1_555 1_555
H21_4 C27_4 1_555 1_555
O7_3 Eu2_2 1_555 1_555
C28_3 O7_3 1_555 1_555
H22_3 C28_3 1_555 1_555
H23_3 C28_3 1_555 1_555
C29_3 C28_3 1_555 1_555
H24_3 C29_3 1_555 1_555
H25_3 C29_3 1_555 1_555
H26_3 C29_3 1_555 1_555
O8_6 Eu2_2 1_555 1_555
H27_3 O8_6 1_555 1_555
H28_6 O8_6 1_555 1_555
O9_3 Eu2_2 1_555 1_555
H29_3 O9_3 1_555 1_555
H30_3 O9_3 1_555 1_555
Eu4_2 O2_3 1_555 1_555
O10_6 Eu2_2 1_555 1_555
O12_3 Eu2_2 1_555 1_555
O13_3 Eu2_2 1_555 1_555
C5_4 C6_4 1_555 1_555
C17_3 C18_3 1_555 1_555
C23_4 C24_4 1_555 1_555
C25_4 C26_4 1_555 1_555
C26_4 C27_4 1_555 1_555
N1_5 C2_4 1_555 1_555
N2_4 C8_4 1_555 1_555
N3_7 C14_7 1_555 1_555
O1_4 C1_4 1_555 1_555
O10 C1_4 1_555 1_555
O3_4 C7_4 1_555 1_555
O12_2 C7_4 1_555 1_555
O13_2 C13_5 1_555 1_555
O6_2 C13_5 1_555 1_555
C1_4 C3_4 1_555 1_555
C2_4 H1_4 1_555 1_555
C3_4 C2_4 1_555 1_555
C4_5 C3_4 1_555 1_555
H2_5 C4_5 1_555 1_555
C5_5 C4_5 1_555 1_555
H3_5 C5_5 1_555 1_555
C6_5 N1_5 1_555 1_555
H4_5 C6_5 1_555 1_555
C7_4 C9_4 1_555 1_555
C8_4 H5_4 1_555 1_555
C9_4 C8_4 1_555 1_555
C10_4 C9_4 1_555 1_555
H6_4 C10_4 1_555 1_555
C11_4 C10_4 1_555 1_555
H7_4 C11_4 1_555 1_555
C12_4 N2_4 1_555 1_555
H8_4 C12_4 1_555 1_555
C13_5 C15_4 1_555 1_555
C14_7 H9_7 1_555 1_555
C15_4 C14_7 1_555 1_555
C16_4 C15_4 1_555 1_555
H10_4 C16_4 1_555 1_555
C17_4 C16_4 1_555 1_555
H11_4 C17_4 1_555 1_555
C18_4 N3_7 1_555 1_555
H12_4 C18_4 1_555 1_555
C19_5 N1_5 1_555 1_555
H13_5 C19_5 1_555 1_555
H14_5 C19_5 1_555 1_555
C20_2 N2_4 1_555 1_555
H15_2 C20_2 1_555 1_555
H16_2 C20_2 1_555 1_555
C21_5 N3_7 1_555 1_555
H17_5 C21_5 1_555 1_555
H18_5 C21_5 1_555 1_555
C22_5 C19_5 1_555 1_555
C23_5 C22_5 1_555 1_555
H19_5 C23_5 1_555 1_555
C24_5 C20_2 1_555 1_555
C25_5 C24_5 1_555 1_555
H20_5 C25_5 1_555 1_555
C26_5 C21_5 1_555 1_555
C27_5 C22_5 1_555 1_555
H21_5 C27_5 1_555 1_555
Eu4 O3_4 1_555 1_555
C5_5 C6_5 1_555 1_555
C11_4 C12_4 1_555 1_555
C17_4 C18_4 1_555 1_555
C23_5 C24_5 1_555 1_555
C25_5 C26_5 1_555 1_555
C26_5 C27_5 1_555 1_555
N1_6 C2_5 1_555 1_555
N2_5 C8_5 1_555 1_555
N3_8 C14_8 1_555 1_555
O1_5 C1_5 1_555 1_555
O10_2 C1_5 1_555 1_555
O3_5 C7_5 1_555 1_555
O12_3 C7_5 1_555 1_555
O13_3 C13_6 1_555 1_555
O6_3 C13_6 1_555 1_555
C1_5 C3_5 1_555 1_555
C2_5 H1_5 1_555 1_555
C3_5 C2_5 1_555 1_555
C4_6 C3_5 1_555 1_555
H2_6 C4_6 1_555 1_555
C5_6 C4_6 1_555 1_555
H3_6 C5_6 1_555 1_555
C6_6 N1_6 1_555 1_555
H4_6 C6_6 1_555 1_555
C7_5 C9_5 1_555 1_555
C8_5 H5_5 1_555 1_555
C9_5 C8_5 1_555 1_555
C10_5 C9_5 1_555 1_555
H6_5 C10_5 1_555 1_555
C11_5 C10_5 1_555 1_555
H7_5 C11_5 1_555 1_555
C12_5 N2_5 1_555 1_555
H8_5 C12_5 1_555 1_555
C13_6 C15_5 1_555 1_555
C14_8 H9_8 1_555 1_555
C15_5 C14_8 1_555 1_555
C16_5 C15_5 1_555 1_555
H10_5 C16_5 1_555 1_555
C17_5 C16_5 1_555 1_555
H11_5 C17_5 1_555 1_555
C18_5 N3_8 1_555 1_555
H12_5 C18_5 1_555 1_555
C19_6 N1_6 1_555 1_555
H13_6 C19_6 1_555 1_555
H14_6 C19_6 1_555 1_555
C20_3 N2_5 1_555 1_555
H15_3 C20_3 1_555 1_555
H16_3 C20_3 1_555 1_555
C21_6 N3_8 1_555 1_555
H17_6 C21_6 1_555 1_555
H18_6 C21_6 1_555 1_555
C22_6 C19_6 1_555 1_555
C23_6 C22_6 1_555 1_555
H19_6 C23_6 1_555 1_555
C24_6 C20_3 1_555 1_555
C25_6 C24_6 1_555 1_555
H20_6 C25_6 1_555 1_555
C26_6 C21_6 1_555 1_555
C27_6 C22_6 1_555 1_555
H21_6 C27_6 1_555 1_555
Eu4_2 O3_5 1_555 1_555
C5_6 C6_6 1_555 1_555
C11_5 C12_5 1_555 1_555
C17_5 C18_5 1_555 1_555
C23_6 C24_6 1_555 1_555
C25_6 C26_6 1_555 1_555
C26_6 C27_6 1_555 1_555
Eu3 O1_6 1_555 1_555
N1_7 C2_6 1_555 1_555
N2_6 C8_6 1_555 1_555
N3_9 C14_9 1_555 1_555
O1_6 C1_6 1_555 1_555
O10_3 C1_6 1_555 1_555
O3_6 C7_6 1_555 1_555
O12 C7_6 1_555 1_555
O13 C13_7 1_555 1_555
O6_4 C13_7 1_555 1_555
C1_6 C3_6 1_555 1_555
C2_6 H1_6 1_555 1_555
C3_6 C2_6 1_555 1_555
C4_7 C3_6 1_555 1_555
H2_7 C4_7 1_555 1_555
C5_7 C4_7 1_555 1_555
H3_7 C5_7 1_555 1_555
C6_7 N1_7 1_555 1_555
H4_7 C6_7 1_555 1_555
C7_6 C9_6 1_555 1_555
C8_6 H5_6 1_555 1_555
C9_6 C8_6 1_555 1_555
C10_6 C9_6 1_555 1_555
H6_6 C10_6 1_555 1_555
C11_6 C10_6 1_555 1_555
H7_6 C11_6 1_555 1_555
C12_6 N2_6 1_555 1_555
H8_6 C12_6 1_555 1_555
C13_7 C15_6 1_555 1_555
C14_9 H9_9 1_555 1_555
C15_6 C14_9 1_555 1_555
C16_6 C15_6 1_555 1_555
H10_6 C16_6 1_555 1_555
C17_6 C16_6 1_555 1_555
H11_6 C17_6 1_555 1_555
C18_6 N3_9 1_555 1_555
H12_6 C18_6 1_555 1_555
C19_7 N1_7 1_555 1_555
H13_7 C19_7 1_555 1_555
H14_7 C19_7 1_555 1_555
C20_4 N2_6 1_555 1_555
H15_4 C20_4 1_555 1_555
H16_4 C20_4 1_555 1_555
C21_7 N3_9 1_555 1_555
H17_7 C21_7 1_555 1_555
H18_7 C21_7 1_555 1_555
C22_7 C19_7 1_555 1_555
C23_7 C22_7 1_555 1_555
H19_7 C23_7 1_555 1_555
C24_7 C20_4 1_555 1_555
C25_7 C24_7 1_555 1_555
H20_7 C25_7 1_555 1_555
C26_7 C21_7 1_555 1_555
C27_7 C22_7 1_555 1_555
H21_7 C27_7 1_555 1_555
O7_4 Eu3 1_555 1_555
C28_4 O7_4 1_555 1_555
H22_4 C28_4 1_555 1_555
H23_4 C28_4 1_555 1_555
C29_4 C28_4 1_555 1_555
H24_4 C29_4 1_555 1_555
H25_4 C29_4 1_555 1_555
H26_4 C29_4 1_555 1_555
O9_4 Eu3 1_555 1_555
H29_4 O9_4 1_555 1_555
H30_4 O9_4 1_555 1_555
Eu4_3 O3_6 1_555 1_555
O11 Eu3 1_555 1_555
C5_7 C6_7 1_555 1_555
C11_6 C12_6 1_555 1_555
C17_6 C18_6 1_555 1_555
C23_7 C24_7 1_555 1_555
C25_7 C26_7 1_555 1_555
C26_7 C27_7 1_555 1_555
Eu4_3 O1_7 1_555 1_555
O1_7 C1_7 1_555 1_555
O10_4 C1_7 1_555 1_555
C1_7 C3_7 1_555 1_555
C2_7 H1_7 1_555 1_555
C3_7 C2_7 1_555 1_555
C16_7 C15_7 1_555 1_555
H10_7 C16_7 1_555 1_555
C17_7 C16_7 1_555 1_555
H11_7 C17_7 1_555 1_555
H12_7 C18_7 1_555 1_555
O7_5 Eu4_3 1_555 1_555
C28_5 O7_5 1_555 1_555
H22_5 C28_5 1_555 1_555
H23_5 C28_5 1_555 1_555
C29_5 C28_5 1_555 1_555
H24_5 C29_5 1_555 1_555
H25_5 C29_5 1_555 1_555
H26_5 C29_5 1_555 1_555
O8_7 Eu4_3 1_555 1_555
H27_5 O8_7 1_555 1_555
H28_7 O8_7 1_555 1_555
O9_5 Eu4_3 1_555 1_555
H29_5 O9_5 1_555 1_555
H30_5 O9_5 1_555 1_555
C17_7 C18_7 1_555 1_555
Eu4 O1_8 1_555 1_555
O1_8 C1_8 1_555 1_555
O10_5 C1_8 1_555 1_555
C1_8 C3_8 1_555 1_555
C2_8 H1_8 1_555 1_555
C3_8 C2_8 1_555 1_555
O7_6 Eu4 1_555 1_555
C28_6 O7_6 1_555 1_555
H22_6 C28_6 1_555 1_555
H23_6 C28_6 1_555 1_555
C29_6 C28_6 1_555 1_555
H24_6 C29_6 1_555 1_555
H25_6 C29_6 1_555 1_555
H26_6 C29_6 1_555 1_555
O8_8 Eu4 1_555 1_555
H27_6 O8_8 1_555 1_555
H28_8 O8_8 1_555 1_555
O9_6 Eu4 1_555 1_555
H29_6 O9_6 1_555 1_555
H30_6 O9_6 1_555 1_555
Eu4_2 O1_9 1_555 1_555
O1_9 C1_9 1_555 1_555
O10_6 C1_9 1_555 1_555
C1_9 C3_9 1_555 1_555
C2_9 H1_9 1_555 1_555
C3_9 C2_9 1_555 1_555
O7_7 Eu4_2 1_555 1_555
C28_7 O7_7 1_555 1_555
H22_7 C28_7 1_555 1_555
H23_7 C28_7 1_555 1_555
C29_7 C28_7 1_555 1_555
H24_7 C29_7 1_555 1_555
H25_7 C29_7 1_555 1_555
H26_7 C29_7 1_555 1_555
O8_9 Eu4_2 1_555 1_555
H27_7 O8_9 1_555 1_555
H28_9 O8_9 1_555 1_555
O9_7 Eu4_2 1_555 1_555
H29_7 O9_7 1_555 1_555
H30_7 O9_7 1_555 1_555
N2_7 C8_7 1_555 1_555
O11 C7_7 1_555 1_555
C7_7 C9_7 1_555 1_555
C8_7 H5_7 1_555 1_555
C9_7 C8_7 1_555 1_555
C10_7 C9_7 1_555 1_555
H6_7 C10_7 1_555 1_555
C11_7 C10_7 1_555 1_555
H7_7 C11_7 1_555 1_555
C12_7 N2_7 1_555 1_555
H8_7 C12_7 1_555 1_555
C20_5 N2_7 1_555 1_555
H15_5 C20_5 1_555 1_555
H16_5 C20_5 1_555 1_555
C11_7 C12_7 1_555 1_555
O7_8 Eu1 1_555 1_555
C28_8 O7_8 1_555 1_555
H22_8 C28_8 1_555 1_555
H23_8 C28_8 1_555 1_555
C29_8 C28_8 1_555 1_555
H24_8 C29_8 1_555 1_555
H25_8 C29_8 1_555 1_555
H26_8 C29_8 1_555 1_555
O9_8 Eu1 1_555 1_555
H29_8 O9_8 1_555 1_555
H30_8 O9_8 1_555 1_555
O11_2 Eu1 1_555 1_555
O13_4 Eu1 1_555 1_555
N2_8 C8_8 1_555 1_555
O11_2 C7_8 1_555 1_555
C7_8 C9_8 1_555 1_555
C8_8 H5_8 1_555 1_555
C9_8 C8_8 1_555 1_555
C10_8 C9_8 1_555 1_555
H6_8 C10_8 1_555 1_555
C11_8 C10_8 1_555 1_555
H7_8 C11_8 1_555 1_555
C12_8 N2_8 1_555 1_555
H8_8 C12_8 1_555 1_555
C20_6 N2_8 1_555 1_555
H15_6 C20_6 1_555 1_555
H16_6 C20_6 1_555 1_555
C11_8 C12_8 1_555 1_555
O13_4 C13_8 1_555 1_555
O6_6 C13_8 1_555 1_555
O5_5 C13_9 1_555 1_555
O6_7 C13_9 1_555 1_555
O5_5 Eu3_2 1_555 1_555
O7_9 Eu3_2 1_555 1_555
C28_9 O7_9 1_555 1_555
H22_9 C28_9 1_555 1_555
H23_9 C28_9 1_555 1_555
C29_9 C28_9 1_555 1_555
H24_9 C29_9 1_555 1_555
H25_9 C29_9 1_555 1_555
H26_9 C29_9 1_555 1_555
O9_9 Eu3_2 1_555 1_555
H29_9 O9_9 1_555 1_555
H30_9 O9_9 1_555 1_555
O11_3 Eu3_2 1_555 1_555
N2_9 C8_9 1_555 1_555
O11_3 C7_9 1_555 1_555
C7_9 C9_9 1_555 1_555
C8_9 H5_9 1_555 1_555
C9_9 C8_9 1_555 1_555
C10_9 C9_9 1_555 1_555
H6_9 C10_9 1_555 1_555
C11_9 C10_9 1_555 1_555
H7_9 C11_9 1_555 1_555
C12_9 N2_9 1_555 1_555
H8_9 C12_9 1_555 1_555
C20_7 N2_9 1_555 1_555
H15_7 C20_7 1_555 1_555
H16_7 C20_7 1_555 1_555
C11_9 C12_9 1_555 1_555
N1_8 C2_10 1_555 1_555
N2_10 C8_10 1_555 1_555
N3_10 C14_10 1_555 1_555
O1_10 C1_10 1_555 1_555
O2_4 C1_10 1_555 1_555
O3_7 C7_10 1_555 1_555
O4_7 C7_10 1_555 1_555
O5_6 C13_10 1_555 1_555
O6_8 C13_10 1_555 1_555
C1_10 C3_10 1_555 1_555
C2_10 H1_10 1_555 1_555
C3_10 C2_10 1_555 1_555
C4_8 C3_10 1_555 1_555
H2_8 C4_8 1_555 1_555
C5_8 C4_8 1_555 1_555
H3_8 C5_8 1_555 1_555
C6_8 N1_8 1_555 1_555
H4_8 C6_8 1_555 1_555
C7_10 C9_10 1_555 1_555
C8_10 H5_10 1_555 1_555
C9_10 C8_10 1_555 1_555
C10_10 C9_10 1_555 1_555
H6_10 C10_10 1_555 1_555
C11_10 C10_10 1_555 1_555
H7_10 C11_10 1_555 1_555
C12_10 N2_10 1_555 1_555
H8_10 C12_10 1_555 1_555
C13_10 C15_8 1_555 1_555
C14_10 H9_10 1_555 1_555
C15_8 C14_10 1_555 1_555
C16_8 C15_8 1_555 1_555
H10_8 C16_8 1_555 1_555
C17_8 C16_8 1_555 1_555
H11_8 C17_8 1_555 1_555
C18_8 N3_10 1_555 1_555
H12_10 C18_8 1_555 1_555
C19_8 N1_8 1_555 1_555
H13_8 C19_8 1_555 1_555
H14_8 C19_8 1_555 1_555
C20_8 N2_10 1_555 1_555
H15_8 C20_8 1_555 1_555
H16_8 C20_8 1_555 1_555
C21_8 N3_10 1_555 1_555
H17_8 C21_8 1_555 1_555
H18_8 C21_8 1_555 1_555
C22_8 C19_8 1_555 1_555
C23_8 C22_8 1_555 1_555
H19_8 C23_8 1_555 1_555
C24_8 C20_8 1_555 1_555
C25_8 C24_8 1_555 1_555
H20_8 C25_8 1_555 1_555
C26_8 C21_8 1_555 1_555
C27_8 C22_8 1_555 1_555
H21_8 C27_8 1_555 1_555
Eu2_4 O3_7 1_555 1_555
Eu4_4 O4_7 1_555 1_555
O5_6 Eu4_4 1_555 1_555
C5_8 C6_8 1_555 1_555
C11_10 C12_10 1_555 1_555
C17_8 C18_8 1_555 1_555
C23_8 C24_8 1_555 1_555
C25_8 C26_8 1_555 1_555
C26_8 C27_8 1_555 1_555
N1_9 C2_11 1_555 1_555
N2_11 C8_11 1_555 1_555
N3_11 C14_11 1_555 1_555
O1_11 C1_11 1_555 1_555
O2_5 C1_11 1_555 1_555
O3_8 C7_11 1_555 1_555
O4_8 C7_11 1_555 1_555
O5_7 C13_11 1_555 1_555
O6_9 C13_11 1_555 1_555
C1_11 C3_11 1_555 1_555
C2_11 H1_11 1_555 1_555
C3_11 C2_11 1_555 1_555
C4_9 C3_11 1_555 1_555
H2_9 C4_9 1_555 1_555
C5_9 C4_9 1_555 1_555
H3_9 C5_9 1_555 1_555
C6_9 N1_9 1_555 1_555
H4_9 C6_9 1_555 1_555
C7_11 C9_11 1_555 1_555
C8_11 H5_11 1_555 1_555
C9_11 C8_11 1_555 1_555
C10_11 C9_11 1_555 1_555
H6_11 C10_11 1_555 1_555
C11_11 C10_11 1_555 1_555
H7_11 C11_11 1_555 1_555
C12_11 N2_11 1_555 1_555
H8_11 C12_11 1_555 1_555
C13_11 C15_9 1_555 1_555
C14_11 H9_11 1_555 1_555
C15_9 C14_11 1_555 1_555
C16_9 C15_9 1_555 1_555
H10_9 C16_9 1_555 1_555
C17_9 C16_9 1_555 1_555
H11_9 C17_9 1_555 1_555
C18_9 N3_11 1_555 1_555
H12_11 C18_9 1_555 1_555
C19_9 N1_9 1_555 1_555
H13_9 C19_9 1_555 1_555
H14_9 C19_9 1_555 1_555
C20_9 N2_11 1_555 1_555
H15_9 C20_9 1_555 1_555
H16_9 C20_9 1_555 1_555
C21_9 N3_11 1_555 1_555
H17_9 C21_9 1_555 1_555
H18_9 C21_9 1_555 1_555
C22_9 C19_9 1_555 1_555
C23_9 C22_9 1_555 1_555
H19_9 C23_9 1_555 1_555
C24_9 C20_9 1_555 1_555
C25_9 C24_9 1_555 1_555
H20_9 C25_9 1_555 1_555
C26_9 C21_9 1_555 1_555
C27_9 C22_9 1_555 1_555
H21_9 C27_9 1_555 1_555
Eu2_5 O3_8 1_555 1_555
Eu4_5 O4_8 1_555 1_555
O5_7 Eu4_5 1_555 1_555
C5_9 C6_9 1_555 1_555
C11_11 C12_11 1_555 1_555
C17_9 C18_9 1_555 1_555
C23_9 C24_9 1_555 1_555
C25_9 C26_9 1_555 1_555
C26_9 C27_9 1_555 1_555
Eu1_2 O1_12 1_555 1_555
N1_10 C2_12 1_555 1_555
N2_12 C8_12 1_555 1_555
N3_12 C14_12 1_555 1_555
O1_12 C1_12 1_555 1_555
O2_6 C1_12 1_555 1_555
O3_9 C7_12 1_555 1_555
O4_9 C7_12 1_555 1_555
O5_8 C13_12 1_555 1_555
O6_10 C13_12 1_555 1_555
C1_12 C3_12 1_555 1_555
C2_12 H1_12 1_555 1_555
C3_12 C2_12 1_555 1_555
C4_10 C3_12 1_555 1_555
H2_10 C4_10 1_555 1_555
C5_10 C4_10 1_555 1_555
H3_10 C5_10 1_555 1_555
C6_10 N1_10 1_555 1_555
H4_10 C6_10 1_555 1_555
C7_12 C9_12 1_555 1_555
C8_12 H5_12 1_555 1_555
C9_12 C8_12 1_555 1_555
C10_12 C9_12 1_555 1_555
H6_12 C10_12 1_555 1_555
C11_12 C10_12 1_555 1_555
H7_12 C11_12 1_555 1_555
C12_12 N2_12 1_555 1_555
H8_12 C12_12 1_555 1_555
C13_12 C15_10 1_555 1_555
C14_12 H9_12 1_555 1_555
C15_10 C14_12 1_555 1_555
C16_10 C15_10 1_555 1_555
H10_10 C16_10 1_555 1_555
C17_10 C16_10 1_555 1_555
H11_10 C17_10 1_555 1_555
C18_10 N3_12 1_555 1_555
H12_12 C18_10 1_555 1_555
C19_10 N1_10 1_555 1_555
H13_10 C19_10 1_555 1_555
H14_10 C19_10 1_555 1_555
C20_10 N2_12 1_555 1_555
H15_10 C20_10 1_555 1_555
H16_10 C20_10 1_555 1_555
C21_10 N3_12 1_555 1_555
H17_10 C21_10 1_555 1_555
H18_10 C21_10 1_555 1_555
C22_10 C19_10 1_555 1_555
C23_10 C22_10 1_555 1_555
H19_10 C23_10 1_555 1_555
C24_10 C20_10 1_555 1_555
C25_10 C24_10 1_555 1_555
H20_10 C25_10 1_555 1_555
C26_10 C21_10 1_555 1_555
C27_10 C22_10 1_555 1_555
H21_10 C27_10 1_555 1_555
O7_10 Eu1_2 1_555 1_555
C28_10 O7_10 1_555 1_555
H22_10 C28_10 1_555 1_555
H23_10 C28_10 1_555 1_555
C29_10 C28_10 1_555 1_555
H24_10 C29_10 1_555 1_555
H25_10 C29_10 1_555 1_555
H26_10 C29_10 1_555 1_555
O9_10 Eu1_2 1_555 1_555
H29_10 O9_10 1_555 1_555
H30_10 O9_10 1_555 1_555
Eu2_6 O3_9 1_555 1_555
Eu4_6 O4_9 1_555 1_555
O11_4 Eu1_2 1_555 1_555
O12_6 Eu1_2 1_555 1_555
O13_5 Eu1_2 1_555 1_555
O5_8 Eu4_6 1_555 1_555
C5_10 C6_10 1_555 1_555
C11_12 C12_12 1_555 1_555
C17_10 C18_10 1_555 1_555
C23_10 C24_10 1_555 1_555
C25_10 C26_10 1_555 1_555
C26_10 C27_10 1_555 1_555
Eu2_6 O1_13 1_555 1_555
O1_13 C1_13 1_555 1_555
O2_7 C1_13 1_555 1_555
C1_13 C3_13 1_555 1_555
C2_13 H1_13 1_555 1_555
C3_13 C2_13 1_555 1_555
C16_11 C15_11 1_555 1_555
H10_11 C16_11 1_555 1_555
C17_11 C16_11 1_555 1_555
H11_11 C17_11 1_555 1_555
H12_13 C18_11 1_555 1_555
O7_11 Eu2_6 1_555 1_555
C28_11 O7_11 1_555 1_555
H22_11 C28_11 1_555 1_555
H23_11 C28_11 1_555 1_555
C29_11 C28_11 1_555 1_555
H24_11 C29_11 1_555 1_555
H25_11 C29_11 1_555 1_555
H26_11 C29_11 1_555 1_555
O8_10 Eu2_6 1_555 1_555
H27_11 O8_10 1_555 1_555
H28_10 O8_10 1_555 1_555
O9_11 Eu2_6 1_555 1_555
H29_11 O9_11 1_555 1_555
H30_11 O9_11 1_555 1_555
Eu4_6 O2_7 1_555 1_555
O10_7 Eu2_6 1_555 1_555
O12_7 Eu2_6 1_555 1_555
O13_6 Eu2_6 1_555 1_555
C17_11 C18_11 1_555 1_555
Eu2_4 O1_14 1_555 1_555
O1_14 C1_14 1_555 1_555
O2_8 C1_14 1_555 1_555
C1_14 C3_14 1_555 1_555
C2_14 H1_14 1_555 1_555
C3_14 C2_14 1_555 1_555
O7_12 Eu2_4 1_555 1_555
C28_12 O7_12 1_555 1_555
H22_12 C28_12 1_555 1_555
H23_12 C28_12 1_555 1_555
C29_12 C28_12 1_555 1_555
H24_12 C29_12 1_555 1_555
H25_12 C29_12 1_555 1_555
H26_12 C29_12 1_555 1_555
O8_11 Eu2_4 1_555 1_555
H27_12 O8_11 1_555 1_555
H28_11 O8_11 1_555 1_555
O9_12 Eu2_4 1_555 1_555
H29_12 O9_12 1_555 1_555
H30_12 O9_12 1_555 1_555
Eu4_4 O2_8 1_555 1_555
O10_8 Eu2_4 1_555 1_555
O12_8 Eu2_4 1_555 1_555
O13_7 Eu2_4 1_555 1_555
Eu2_5 O1_15 1_555 1_555
O1_15 C1_15 1_555 1_555
O2_9 C1_15 1_555 1_555
C1_15 C3_15 1_555 1_555
C2_15 H1_15 1_555 1_555
C3_15 C2_15 1_555 1_555
O7_13 Eu2_5 1_555 1_555
C28_13 O7_13 1_555 1_555
H22_13 C28_13 1_555 1_555
H23_13 C28_13 1_555 1_555
C29_13 C28_13 1_555 1_555
H24_13 C29_13 1_555 1_555
H25_13 C29_13 1_555 1_555
H26_13 C29_13 1_555 1_555
O8_12 Eu2_5 1_555 1_555
H27_13 O8_12 1_555 1_555
H28_12 O8_12 1_555 1_555
O9_13 Eu2_5 1_555 1_555
H29_13 O9_13 1_555 1_555
H30_13 O9_13 1_555 1_555
Eu4_5 O2_9 1_555 1_555
O10_9 Eu2_5 1_555 1_555
O12_9 Eu2_5 1_555 1_555
O13_8 Eu2_5 1_555 1_555
N2_13 C8_13 1_555 1_555
O11_4 C7_13 1_555 1_555
C7_13 C9_13 1_555 1_555
C8_13 H5_13 1_555 1_555
C9_13 C8_13 1_555 1_555
C10_13 C9_13 1_555 1_555
H6_13 C10_13 1_555 1_555
C11_13 C10_13 1_555 1_555
H7_13 C11_13 1_555 1_555
C12_13 N2_13 1_555 1_555
H8_13 C12_13 1_555 1_555
C20_11 N2_13 1_555 1_555
H15_11 C20_11 1_555 1_555
H16_11 C20_11 1_555 1_555
C11_13 C12_13 1_555 1_555
H28_13 O8_13 1_555 1_555
H28_14 O8_14 1_555 1_555
H28_15 O8_15 1_555 1_555
N2_14 C8_14 1_555 1_555
N3_13 C14_13 1_555 1_555
O3_10 C7_14 1_555 1_555
O12_8 C7_14 1_555 1_555
O13_7 C13_13 1_555 1_555
H2_11 C4_11 1_555 1_555
C5_11 C4_11 1_555 1_555
H3_11 C5_11 1_555 1_555
C6_11 N1_11 1_555 1_555
H4_11 C6_11 1_555 1_555
C7_14 C9_14 1_555 1_555
C8_14 H5_14 1_555 1_555
C9_14 C8_14 1_555 1_555
C10_14 C9_14 1_555 1_555
H6_14 C10_14 1_555 1_555
C11_14 C10_14 1_555 1_555
H7_14 C11_14 1_555 1_555
C12_14 N2_14 1_555 1_555
H8_14 C12_14 1_555 1_555
C14_13 H9_13 1_555 1_555
C19_11 N1_11 1_555 1_555
H13_11 C19_11 1_555 1_555
H14_11 C19_11 1_555 1_555
C20_12 N2_14 1_555 1_555
H15_12 C20_12 1_555 1_555
H16_12 C20_12 1_555 1_555
C21_11 N3_13 1_555 1_555
H17_11 C21_11 1_555 1_555
H18_11 C21_11 1_555 1_555
C22_11 C19_11 1_555 1_555
C23_11 C22_11 1_555 1_555
H19_11 C23_11 1_555 1_555
C24_11 C20_12 1_555 1_555
C25_11 C24_11 1_555 1_555
H20_11 C25_11 1_555 1_555
C26_11 C21_11 1_555 1_555
C27_11 C22_11 1_555 1_555
H21_11 C27_11 1_555 1_555
Eu4_4 O3_10 1_555 1_555
C5_11 C6_11 1_555 1_555
C11_14 C12_14 1_555 1_555
C23_11 C24_11 1_555 1_555
C25_11 C26_11 1_555 1_555
C26_11 C27_11 1_555 1_555
N2_15 C8_15 1_555 1_555
N3_14 C14_14 1_555 1_555
O3_11 C7_15 1_555 1_555
O12_9 C7_15 1_555 1_555
O13_8 C13_14 1_555 1_555
C7_15 C9_15 1_555 1_555
C8_15 H5_15 1_555 1_555
C9_15 C8_15 1_555 1_555
C10_15 C9_15 1_555 1_555
H6_15 C10_15 1_555 1_555
C11_15 C10_15 1_555 1_555
H7_15 C11_15 1_555 1_555
C12_15 N2_15 1_555 1_555
H8_15 C12_15 1_555 1_555
C14_14 H9_14 1_555 1_555
Eu4_5 O3_11 1_555 1_555
C11_15 C12_15 1_555 1_555
N2_16 C8_16 1_555 1_555
N3_15 C14_15 1_555 1_555
O3_12 C7_16 1_555 1_555
O12_7 C7_16 1_555 1_555
O13_6 C13_15 1_555 1_555
C7_16 C9_16 1_555 1_555
C8_16 H5_16 1_555 1_555
C9_16 C8_16 1_555 1_555
C10_16 C9_16 1_555 1_555
H6_16 C10_16 1_555 1_555
C11_16 C10_16 1_555 1_555
H7_16 C11_16 1_555 1_555
C12_16 N2_16 1_555 1_555
H8_16 C12_16 1_555 1_555
C14_15 H9_15 1_555 1_555
Eu4_6 O3_12 1_555 1_555
C11_16 C12_16 1_555 1_555
Eu4_6 O1_16 1_555 1_555
N1_12 C2_16 1_555 1_555
N3_16 C14_16 1_555 1_555
O1_16 C1_16 1_555 1_555
O10_7 C1_16 1_555 1_555
C1_16 C3_16 1_555 1_555
C2_16 H1_16 1_555 1_555
C3_16 C2_16 1_555 1_555
C4_12 C3_16 1_555 1_555
H2_12 C4_12 1_555 1_555
C5_12 C4_12 1_555 1_555
H3_12 C5_12 1_555 1_555
C6_12 N1_12 1_555 1_555
H4_12 C6_12 1_555 1_555
C14_16 H9_16 1_555 1_555
C15_12 C14_16 1_555 1_555
C16_12 C15_12 1_555 1_555
H10_12 C16_12 1_555 1_555
C17_12 C16_12 1_555 1_555
H11_12 C17_12 1_555 1_555
C18_12 N3_16 1_555 1_555
H12_16 C18_12 1_555 1_555
C19_12 N1_12 1_555 1_555
H13_12 C19_12 1_555 1_555
H14_12 C19_12 1_555 1_555
C21_12 N3_16 1_555 1_555
H17_12 C21_12 1_555 1_555
H18_12 C21_12 1_555 1_555
C22_12 C19_12 1_555 1_555
C23_12 C22_12 1_555 1_555
H19_12 C23_12 1_555 1_555
C25_12 C24_12 1_555 1_555
H20_12 C25_12 1_555 1_555
C26_12 C21_12 1_555 1_555
C27_12 C22_12 1_555 1_555
H21_12 C27_12 1_555 1_555
O7_14 Eu4_6 1_555 1_555
C28_14 O7_14 1_555 1_555
H22_14 C28_14 1_555 1_555
H23_14 C28_14 1_555 1_555
C29_14 C28_14 1_555 1_555
H24_14 C29_14 1_555 1_555
H25_14 C29_14 1_555 1_555
H26_14 C29_14 1_555 1_555
O8_16 Eu4_6 1_555 1_555
H27_14 O8_16 1_555 1_555
H28_16 O8_16 1_555 1_555
O9_14 Eu4_6 1_555 1_555
H29_14 O9_14 1_555 1_555
H30_14 O9_14 1_555 1_555
C5_12 C6_12 1_555 1_555
C17_12 C18_12 1_555 1_555
C23_12 C24_12 1_555 1_555
C25_12 C26_12 1_555 1_555
C26_12 C27_12 1_555 1_555
Eu4_4 O1_17 1_555 1_555
N1_13 C2_17 1_555 1_555
N3_17 C14_17 1_555 1_555
O1_17 C1_17 1_555 1_555
O10_8 C1_17 1_555 1_555
O13_5 C13_16 1_555 1_555
O6_12 C13_16 1_555 1_555
C1_17 C3_17 1_555 1_555
C2_17 H1_17 1_555 1_555
C3_17 C2_17 1_555 1_555
C4_13 C3_17 1_555 1_555
H2_13 C4_13 1_555 1_555
C5_13 C4_13 1_555 1_555
H3_13 C5_13 1_555 1_555
C6_13 N1_13 1_555 1_555
H4_13 C6_13 1_555 1_555
C13_16 C15_13 1_555 1_555
C14_17 H9_17 1_555 1_555
C15_13 C14_17 1_555 1_555
C16_13 C15_13 1_555 1_555
H10_13 C16_13 1_555 1_555
C17_13 C16_13 1_555 1_555
H11_13 C17_13 1_555 1_555
C18_13 N3_17 1_555 1_555
H12_17 C18_13 1_555 1_555
C19_13 N1_13 1_555 1_555
H13_13 C19_13 1_555 1_555
H14_13 C19_13 1_555 1_555
C21_13 N3_17 1_555 1_555
H17_13 C21_13 1_555 1_555
H18_13 C21_13 1_555 1_555
C22_13 C19_13 1_555 1_555
C23_13 C22_13 1_555 1_555
H19_13 C23_13 1_555 1_555
C25_13 C24_13 1_555 1_555
H20_13 C25_13 1_555 1_555
C26_13 C21_13 1_555 1_555
C27_13 C22_13 1_555 1_555
H21_13 C27_13 1_555 1_555
O7_15 Eu4_4 1_555 1_555
C28_15 O7_15 1_555 1_555
H22_15 C28_15 1_555 1_555
H23_15 C28_15 1_555 1_555
C29_15 C28_15 1_555 1_555
H24_15 C29_15 1_555 1_555
H25_15 C29_15 1_555 1_555
H26_15 C29_15 1_555 1_555
O8_17 Eu4_4 1_555 1_555
H27_15 O8_17 1_555 1_555
H28_17 O8_17 1_555 1_555
O9_15 Eu4_4 1_555 1_555
H29_15 O9_15 1_555 1_555
H30_15 O9_15 1_555 1_555
C5_13 C6_13 1_555 1_555
C17_13 C18_13 1_555 1_555
C23_13 C24_13 1_555 1_555
C25_13 C26_13 1_555 1_555
C26_13 C27_13 1_555 1_555
Eu4_5 O1_18 1_555 1_555
N1_14 C2_18 1_555 1_555
N3_18 C14_18 1_555 1_555
O1_18 C1_18 1_555 1_555
O10_9 C1_18 1_555 1_555
C1_18 C3_18 1_555 1_555
C2_18 H1_18 1_555 1_555
C3_18 C2_18 1_555 1_555
C4_14 C3_18 1_555 1_555
H2_14 C4_14 1_555 1_555
C5_14 C4_14 1_555 1_555
H3_14 C5_14 1_555 1_555
C6_14 N1_14 1_555 1_555
H4_14 C6_14 1_555 1_555
C14_18 H9_18 1_555 1_555
C15_14 C14_18 1_555 1_555
C16_14 C15_14 1_555 1_555
H10_14 C16_14 1_555 1_555
C17_14 C16_14 1_555 1_555
H11_14 C17_14 1_555 1_555
C18_14 N3_18 1_555 1_555
H12_18 C18_14 1_555 1_555
C19_14 N1_14 1_555 1_555
H13_14 C19_14 1_555 1_555
H14_14 C19_14 1_555 1_555
C21_14 N3_18 1_555 1_555
H17_14 C21_14 1_555 1_555
H18_14 C21_14 1_555 1_555
C22_14 C19_14 1_555 1_555
C23_14 C22_14 1_555 1_555
H19_14 C23_14 1_555 1_555
C25_14 C24_14 1_555 1_555
H20_14 C25_14 1_555 1_555
C26_14 C21_14 1_555 1_555
C27_14 C22_14 1_555 1_555
H21_14 C27_14 1_555 1_555
O7_16 Eu4_5 1_555 1_555
C28_16 O7_16 1_555 1_555
H22_16 C28_16 1_555 1_555
H23_16 C28_16 1_555 1_555
C29_16 C28_16 1_555 1_555
H24_16 C29_16 1_555 1_555
H25_16 C29_16 1_555 1_555
H26_16 C29_16 1_555 1_555
O8_18 Eu4_5 1_555 1_555
H27_16 O8_18 1_555 1_555
H28_18 O8_18 1_555 1_555
O9_16 Eu4_5 1_555 1_555
H29_16 O9_16 1_555 1_555
H30_16 O9_16 1_555 1_555
C5_14 C6_14 1_555 1_555
C17_14 C18_14 1_555 1_555
C23_14 C24_14 1_555 1_555
C25_14 C26_14 1_555 1_555
C26_14 C27_14 1_555 1_555
O5_9 C13_17 1_555 1_555
O6_13 C13_17 1_555 1_555
O5_9 Eu3_3 1_555 1_555
O7_17 Eu3_3 1_555 1_555
C28_17 O7_17 1_555 1_555
H22_17 C28_17 1_555 1_555
H23_17 C28_17 1_555 1_555
C29_17 C28_17 1_555 1_555
H24_17 C29_17 1_555 1_555
H25_17 C29_17 1_555 1_555
H26_17 C29_17 1_555 1_555
O9_17 Eu3_3 1_555 1_555
H29_17 O9_17 1_555 1_555
H30_17 O9_17 1_555 1_555
O11_5 Eu3_3 1_555 1_555
N2_17 C8_17 1_555 1_555
O11_5 C7_17 1_555 1_555
C7_17 C9_17 1_555 1_555
C8_17 H5_17 1_555 1_555
C9_17 C8_17 1_555 1_555
C10_17 C9_17 1_555 1_555
H6_17 C10_17 1_555 1_555
C11_17 C10_17 1_555 1_555
H7_17 C11_17 1_555 1_555
C12_17 N2_17 1_555 1_555
H8_17 C12_17 1_555 1_555
C20_13 N2_17 1_555 1_555
H15_13 C20_13 1_555 1_555
H16_13 C20_13 1_555 1_555
C11_17 C12_17 1_555 1_555
O7_18 Eu1_3 1_555 1_555
C28_18 O7_18 1_555 1_555
H22_18 C28_18 1_555 1_555
H23_18 C28_18 1_555 1_555
C29_18 C28_18 1_555 1_555
H24_18 C29_18 1_555 1_555
H25_18 C29_18 1_555 1_555
H26_18 C29_18 1_555 1_555
O9_18 Eu1_3 1_555 1_555
H29_18 O9_18 1_555 1_555
H30_18 O9_18 1_555 1_555
O11_6 Eu1_3 1_555 1_555
O13_9 Eu1_3 1_555 1_555
N2_18 C8_18 1_555 1_555
O11_6 C7_18 1_555 1_555
C7_18 C9_18 1_555 1_555
C8_18 H5_18 1_555 1_555
C9_18 C8_18 1_555 1_555
C10_18 C9_18 1_555 1_555
H6_18 C10_18 1_555 1_555
C11_18 C10_18 1_555 1_555
H7_18 C11_18 1_555 1_555
C12_18 N2_18 1_555 1_555
H8_18 C12_18 1_555 1_555
C20_14 N2_18 1_555 1_555
H15_14 C20_14 1_555 1_555
H16_14 C20_14 1_555 1_555
C11_18 C12_18 1_555 1_555
O13_9 C13_18 1_555 1_555
O6_14 C13_18 1_555 1_555
C16_15 C15_15 1_555 1_555
H10_15 C16_15 1_555 1_555
C17_15 C16_15 1_555 1_555
H11_15 C17_15 1_555 1_555
C17_15 C18_15 1_555 1_555
H2_15 C4_15 1_555 1_555
C5_15 C4_15 1_555 1_555
H3_15 C5_15 1_555 1_555
C6_15 N1_15 1_555 1_555
H4_15 C6_15 1_555 1_555
C19_15 N1_15 1_555 1_555
H13_15 C19_15 1_555 1_555
H14_15 C19_15 1_555 1_555
H15_15 C20_15 1_555 1_555
H16_15 C20_15 1_555 1_555
H17_15 C21_15 1_555 1_555
H18_15 C21_15 1_555 1_555
C22_15 C19_15 1_555 1_555
C23_15 C22_15 1_555 1_555
H19_15 C23_15 1_555 1_555
C24_15 C20_15 1_555 1_555
C25_15 C24_15 1_555 1_555
H20_15 C25_15 1_555 1_555
C26_15 C21_15 1_555 1_555
C27_15 C22_15 1_555 1_555
H21_15 C27_15 1_555 1_555
C5_15 C6_15 1_555 1_555
C23_15 C24_15 1_555 1_555
C25_15 C26_15 1_555 1_555
C26_15 C27_15 1_555 1_555
H2_16 C4_16 1_555 1_555
C5_16 C4_16 1_555 1_555
H3_16 C5_16 1_555 1_555
C6_16 N1_16 1_555 1_555
H4_16 C6_16 1_555 1_555
C19_16 N1_16 1_555 1_555
H13_16 C19_16 1_555 1_555
H14_16 C19_16 1_555 1_555
H15_16 C20_16 1_555 1_555
H16_16 C20_16 1_555 1_555
H17_16 C21_16 1_555 1_555
H18_16 C21_16 1_555 1_555
C22_16 C19_16 1_555 1_555
C23_16 C22_16 1_555 1_555
H19_16 C23_16 1_555 1_555
C24_16 C20_16 1_555 1_555
C25_16 C24_16 1_555 1_555
H20_16 C25_16 1_555 1_555
C26_16 C21_16 1_555 1_555
C27_16 C22_16 1_555 1_555
H21_16 C27_16 1_555 1_555
C5_16 C6_16 1_555 1_555
C23_16 C24_16 1_555 1_555
C25_16 C26_16 1_555 1_555
C26_16 C27_16 1_555 1_555
C16_16 C15_16 1_555 1_555
H10_16 C16_16 1_555 1_555
C17_16 C16_16 1_555 1_555
H11_16 C17_16 1_555 1_555
C17_16 C18_16 1_555 1_555
H2_17 C4_17 1_555 1_555
C5_17 C4_17 1_555 1_555
H3_17 C5_17 1_555 1_555
C6_17 N1_17 1_555 1_555
H4_17 C6_17 1_555 1_555
C19_17 N1_17 1_555 1_555
H13_17 C19_17 1_555 1_555
H14_17 C19_17 1_555 1_555
H15_17 C20_17 1_555 1_555
H16_17 C20_17 1_555 1_555
H17_17 C21_17 1_555 1_555
H18_17 C21_17 1_555 1_555
C22_17 C19_17 1_555 1_555
C23_17 C22_17 1_555 1_555
H19_17 C23_17 1_555 1_555
C24_17 C20_17 1_555 1_555
C25_17 C24_17 1_555 1_555
H20_17 C25_17 1_555 1_555
C26_17 C21_17 1_555 1_555
C27_17 C22_17 1_555 1_555
H21_17 C27_17 1_555 1_555
C5_17 C6_17 1_555 1_555
C23_17 C24_17 1_555 1_555
C25_17 C26_17 1_555 1_555
C26_17 C27_17 1_555 1_555
C16_17 C15_17 1_555 1_555
H10_17 C16_17 1_555 1_555
C17_17 C16_17 1_555 1_555
H11_17 C17_17 1_555 1_555
C17_17 C18_17 1_555 1_555
C16_18 C15_18 1_555 1_555
H10_18 C16_18 1_555 1_555
C17_18 C16_18 1_555 1_555
H11_18 C17_18 1_555 1_555
C17_18 C18_18 1_555 1_555
H2_18 C4_18 1_555 1_555
C5_18 C4_18 1_555 1_555
H3_18 C5_18 1_555 1_555
C6_18 N1_18 1_555 1_555
H4_18 C6_18 1_555 1_555
C19_18 N1_18 1_555 1_555
H13_18 C19_18 1_555 1_555
H14_18 C19_18 1_555 1_555
H15_18 C20_18 1_555 1_555
H16_18 C20_18 1_555 1_555
H17_18 C21_18 1_555 1_555
H18_18 C21_18 1_555 1_555
C22_18 C19_18 1_555 1_555
C23_18 C22_18 1_555 1_555
H19_18 C23_18 1_555 1_555
C24_18 C20_18 1_555 1_555
C25_18 C24_18 1_555 1_555
H20_18 C25_18 1_555 1_555
C26_18 C21_18 1_555 1_555
C27_18 C22_18 1_555 1_555
H21_18 C27_18 1_555 1_555
C5_18 C6_18 1_555 1_555
C23_18 C24_18 1_555 1_555
C25_18 C26_18 1_555 1_555
C26_18 C27_18 1_555 1_555

#END
