
###############################################################################
#
# This file contains modified crystal structure data generated from the
# MOF subset of the Cambridge Structural Database (CSD) v543 
# hosted by the Cambridge Crystallographic Data Centre (CCDC).
#
# This work is licensed under the Creative Commons
# Attribution-NonCommercial-ShareAlike 4.0 International License.
# To view a copy of this license, visit
# http://creativecommons.org/licenses/by-nc-sa/4.0/
# or send a letter to
# Creative Commons, PO Box 1866, Mountain View, CA 94042, USA.
#
# CIF created using the CSD Python API on 29 September 2022
# The structure has been converted into the P1 space group
# The structure has a 3D framework
# The original CSD entry BAWRUO is in the monoclinic crystal system
# The framework has been calculated to contain at least 10.0% void space
# The void calculation uses a probe of radius 1.32A, grid spacing 0.4
# The framework is charged, counterions have been retained in the structure
# H atom positions have been added when not included in the experimental data
# Generated hydrogen atom positions removed from atoms on special positions
#
###############################################################################

data_BAWRUO
_chemical_formula_moiety         '(C24 H104 O212 P48 U30 4-)n'
_symmetry_cell_setting           triclinic
_symmetry_space_group_name_H-M   'P 1'
_symmetry_Int_Tables_number      1
_space_group_name_Hall           'P 1'
loop_
_symmetry_equiv_pos_site_id
_symmetry_equiv_pos_as_xyz
1 x,y,z
_cell_length_a                   25.903(5)
_cell_length_b                   17.021(3)
_cell_length_c                   16.723(3)
_cell_angle_alpha                90
_cell_angle_beta                 103.415(2)
_cell_angle_gamma                90
_cell_volume                     7171.91
loop_
_atom_site_label
_atom_site_type_symbol
_atom_site_fract_x
_atom_site_fract_y
_atom_site_fract_z
U1 U 0.406891(16) 0.02303(2) 0.55190(2)
O1 O 0.4792(3) 0.1039(5) 0.5670(5)
O2 O 0.3678(3) 0.0877(5) 0.4781(5)
O5 O 0.3757(3) 0.0902(5) 0.6503(5)
P1 P 0.54007(11) 0.09858(17) 0.59454(17)
O7 O 0.5644(3) 0.1778(5) 0.5829(5)
C1 C 0.5555(4) 0.0787(7) 0.7036(6)
O10 O 0.3443(3) 0.0240(5) 0.7677(5)
U2 U 0.634890(15) 0.26241(2) 0.62610(2)
P3 P 0.62362(11) 0.09146(17) 0.75682(17)
H1 H 0.5338 0.1129 0.7289
H2 H 0.5452 0.0250 0.7117
O11 O 0.6434(3) 0.3381(5) 0.7442(5)
O12 O 0.6420(3) 0.1716(5) 0.7341(5)
O13 O 0.7322(3) 0.2712(5) 0.7010(5)
O14 O 0.5584(3) 0.3382(5) 0.6027(5)
O15 O 0.6036(4) 0.2748(5) 0.4700(5)
O16 O 0.6654(3) 0.3773(5) 0.5821(5)
O20 O 0.2405(3) 0.0979(5) 0.7288(5)
P5 P 0.63038(11) 0.41809(17) 0.77492(17)
P6 P 0.54008(11) 0.42200(18) 0.61701(18)
U4 U 0.101541(16) 0.02574(3) 0.46879(3)
O22 O 0.6311(3) 0.4129(5) 0.8671(5)
C3 C 0.5623(5) 0.4419(7) 0.7244(7)
O23 O 0.4795(3) 0.4260(5) 0.5965(5)
O24 O 0.5633(4) 0.4845(6) 0.5702(6)
O26 O 0.1152(4) 0.1147(5) 0.5257(5)
H5 H 0.5572 0.4975 0.7326
H6 H 0.5393 0.4137 0.7527
O27 O 0.5624(3) 0.0324(5) 0.5510(5)
U7 U 0.257086(16) 0.00151(2) 0.76944(3)
O28 O 0.6815(3) 0.1751(5) 0.5731(5)
O29 O 0.6557(3) 0.0240(5) 0.7323(5)
O30 O 0.6243(3) 0.0902(5) 0.8497(5)
O32 O 0.2731(3) 0.0433(5) 0.9019(5)
U8 U 0.742914(16) 0.00151(2) 0.73056(3)
U9 U 0.593109(16) 0.02303(2) 0.94810(2)
O33 O 0.6667(3) 0.4832(5) 0.7576(5)
O34 O 0.1311(3) 0.0871(5) 0.3671(5)
O35 O 0.0205(3) 0.0740(5) 0.4035(5)
U11 U 0.757086(16) 0.50151(2) 0.76944(3)
U12 U 0.601541(16) 0.47426(3) 0.96879(3)
U13 U 0.398459(16) 0.47426(3) 0.53121(3)
U14 U 0.601541(16) 0.52574(3) 0.46879(3)
H7 H 0.753873 0.238821 0.671728
H8 H 0.744061 0.326765 0.702429
H9 H 0.56598 0.292162 0.45558
H10 H 0.625916 0.313993 0.449663
O3 O 0.4460(3) 0.9606(5) 0.6283(5)
O4 O 0.3404(3) 0.9320(5) 0.5331(5)
O6 O 0.4376(3) 0.9676(5) 0.4490(5)
P2 P 0.29747(11) 0.89616(17) 0.46541(17)
O8 O 0.2731(3) 0.9567(5) 0.4019(5)
O9 O 0.3185(3) 0.8249(5) 0.4269(5)
C2 C 0.2456(4) 0.8592(7) 0.5097(6)
U3 U 0.257086(16) 0.99849(2) 0.26944(3)
P4 P 0.21201(11) 0.92392(17) 0.56484(17)
H3 H 0.2190 0.8360 0.4655
H4 H 0.2606 0.8169 0.5467
O17 O 0.2511(3) 0.9493(5) 0.6434(5)
O18 O 0.1908(3) 0.9951(5) 0.5121(5)
O19 O 0.2705(3) 0.9034(5) 0.8082(5)
O21 O 0.1667(3) 0.9832(5) 0.7576(5)
O25 O 0.0880(3) 0.9361(5) 0.4123(5)
U5 U 0.593109(16) 0.97697(2) 0.44810(2)
U6 U 0.365110(15) 0.73759(2) 0.37390(2)
O31 O 0.1654(3) 0.8773(5) 0.5821(5)
U10 U 0.134890(15) 0.76241(2) 0.62610(2)
O36 O 0.0633(4) 0.9845(6) 0.5702(6)
O2_2 O 0.6322(3) 0.0877(5) 0.0219(5)
O15_2 O 0.3964(4) 0.2748(5) 0.0300(5)
U4_2 U 0.898459(16) 0.02574(3) 0.03121(3)
O34_2 O 0.8689(3) 0.0871(5) 0.1329(5)
O35_2 O 0.9795(3) 0.0740(5) 0.0965(5)
U14_2 U 0.398459(16) 0.52574(3) 0.03121(3)
H9_2 H 0.43402 0.292162 0.0444195
H10_2 H 0.374084 0.313993 0.0503366
O1_2 O 0.5208(3) 0.1039(5) 0.9330(5)
P1_2 P 0.45993(11) 0.09858(17) 0.90546(17)
O7_2 O 0.4356(3) 0.1778(5) 0.9171(5)
C1_2 C 0.4445(4) 0.0787(7) 0.7964(6)
U2_2 U 0.365110(15) 0.26241(2) 0.87390(2)
P3_2 P 0.37638(11) 0.09146(17) 0.74318(17)
H1_2 H 0.4662 0.1129 0.7711
H2_2 H 0.4548 0.0250 0.7883
O11_2 O 0.3566(3) 0.3381(5) 0.7558(5)
O12_2 O 0.3580(3) 0.1716(5) 0.7659(5)
O13_2 O 0.2678(3) 0.2712(5) 0.7990(5)
O14_2 O 0.4416(3) 0.3382(5) 0.8973(5)
O16_2 O 0.3346(3) 0.3773(5) 0.9179(5)
O20_2 O 0.7595(3) 0.0979(5) 0.7712(5)
P5_2 P 0.36962(11) 0.41809(17) 0.72508(17)
P6_2 P 0.45992(11) 0.42200(18) 0.88299(18)
O22_2 O 0.3689(3) 0.4129(5) 0.6329(5)
C3_2 C 0.4377(5) 0.4419(7) 0.7756(7)
O23_2 O 0.5205(3) 0.4260(5) 0.9035(5)
O24_2 O 0.4367(4) 0.4845(6) 0.9298(6)
O26_2 O 0.8848(4) 0.1147(5) 0.9743(5)
H5_2 H 0.4428 0.4975 0.7674
H6_2 H 0.4607 0.4137 0.7473
O27_2 O 0.4376(3) 0.0324(5) 0.9490(5)
O28_2 O 0.3185(3) 0.1751(5) 0.9269(5)
O32_2 O 0.7269(3) 0.0433(5) 0.5981(5)
O33_2 O 0.3333(3) 0.4832(5) 0.7424(5)
U11_2 U 0.242914(16) 0.50151(2) 0.73056(3)
H7_2 H 0.246127 0.238821 0.828272
H8_2 H 0.255939 0.326765 0.797571
O6_2 O 0.5624(3) 0.9676(5) 0.0510(5)
P2_2 P 0.70253(11) 0.89616(17) 0.03459(17)
O8_2 O 0.7269(3) 0.9567(5) 0.0981(5)
O9_2 O 0.6815(3) 0.8249(5) 0.0731(5)
U3_2 U 0.742914(16) 0.99849(2) 0.23056(3)
H3_2 H 0.7810 0.8360 0.0345
O25_2 O 0.9120(3) 0.9361(5) 0.0877(5)
U5_2 U 0.406891(16) 0.97697(2) 0.05190(2)
U6_2 U 0.634890(15) 0.73759(2) 0.12610(2)
O3_2 O 0.5540(3) 0.9606(5) 0.8717(5)
O4_2 O 0.6596(3) 0.9320(5) 0.9669(5)
C2_2 C 0.7544(4) 0.8592(7) 0.9903(6)
P4_2 P 0.78799(11) 0.92392(17) 0.93516(17)
H4_2 H 0.7394 0.8169 0.9533
O17_2 O 0.7489(3) 0.9493(5) 0.8566(5)
O18_2 O 0.8092(3) 0.9951(5) 0.9879(5)
O19_2 O 0.7295(3) 0.9034(5) 0.6918(5)
O21_2 O 0.8333(3) 0.9832(5) 0.7424(5)
O31_2 O 0.8346(3) 0.8773(5) 0.9179(5)
U10_2 U 0.865110(15) 0.76241(2) 0.87390(2)
O36_2 O 0.9367(4) 0.9845(6) 0.9298(6)
P1_3 P 0.04007(11) 0.59858(17) 0.59454(17)
O7_3 O 0.0644(3) 0.6778(5) 0.5829(5)
C1_3 C 0.0555(4) 0.5787(7) 0.7036(6)
P3_3 P 0.12362(11) 0.59146(17) 0.75682(17)
H1_3 H 0.0338 0.6129 0.7289
H2_3 H 0.0452 0.5250 0.7117
O11_3 O 0.1434(3) 0.8381(5) 0.7442(5)
O12_3 O 0.1420(3) 0.6716(5) 0.7341(5)
O13_3 O 0.2322(3) 0.7712(5) 0.7010(5)
O14_3 O 0.0584(3) 0.8382(5) 0.6027(5)
O15_3 O 0.1036(4) 0.7748(5) 0.4700(5)
P5_3 P 0.13038(11) 0.91809(17) 0.77492(17)
P6_3 P 0.04008(11) 0.92200(18) 0.61701(18)
O22_3 O 0.1311(3) 0.9129(5) 0.8671(5)
C3_3 C 0.0623(5) 0.9419(7) 0.7244(7)
H5_3 H 0.0572 0.9975 0.7326
H6_3 H 0.0393 0.9137 0.7527
O27_3 O 0.0624(3) 0.5324(5) 0.5510(5)
U5_3 U 0.093109(16) 0.47697(2) 0.44810(2)
O28_3 O 0.1815(3) 0.6751(5) 0.5731(5)
O29_2 O 0.1557(3) 0.5240(5) 0.7323(5)
O30_2 O 0.1243(3) 0.5902(5) 0.8497(5)
U9_2 U 0.093109(16) 0.52303(2) 0.94810(2)
U12_2 U 0.101541(16) 0.97426(3) 0.96879(3)
H7_3 H 0.253873 0.738821 0.671728
H8_3 H 0.244061 0.826765 0.702429
H9_3 H 0.0659799 0.792162 0.45558
H10_3 H 0.125916 0.813993 0.449663
U1_2 U 0.906891(16) 0.52303(2) 0.55190(2)
O1_3 O 0.9792(3) 0.6039(5) 0.5670(5)
O2_3 O 0.8678(3) 0.5877(5) 0.4781(5)
O3_3 O 0.9460(3) 0.4606(5) 0.6283(5)
O4_3 O 0.8404(3) 0.4320(5) 0.5331(5)
O5_2 O 0.8757(3) 0.5902(5) 0.6503(5)
O6_3 O 0.9376(3) 0.4676(5) 0.4490(5)
P2_3 P 0.79747(11) 0.39616(17) 0.46541(17)
O8_3 O 0.7731(3) 0.4567(5) 0.4019(5)
O9_3 O 0.8185(3) 0.3249(5) 0.4269(5)
C2_3 C 0.7456(4) 0.3592(7) 0.5097(6)
O10_2 O 0.8443(3) 0.5240(5) 0.7677(5)
U3_3 U 0.757086(16) 0.49849(2) 0.26944(3)
P4_3 P 0.71201(11) 0.42392(17) 0.56484(17)
H3_3 H 0.7190 0.3360 0.4655
H4_3 H 0.7606 0.3169 0.5467
O17_3 O 0.7511(3) 0.4493(5) 0.6434(5)
O18_3 O 0.6908(3) 0.4951(5) 0.5121(5)
O19_3 O 0.7705(3) 0.4034(5) 0.8082(5)
O20_3 O 0.7405(3) 0.5979(5) 0.7288(5)
O23_3 O 0.9795(3) 0.9260(5) 0.5965(5)
O25_3 O 0.5880(3) 0.4361(5) 0.4123(5)
O26_3 O 0.6152(4) 0.6147(5) 0.5257(5)
U6_3 U 0.865110(15) 0.23759(2) 0.37390(2)
O32_3 O 0.7731(3) 0.5433(5) 0.9019(5)
O34_3 O 0.6311(3) 0.5871(5) 0.3671(5)
O35_3 O 0.5205(3) 0.5740(5) 0.4035(5)
U13_2 U 0.898459(16) 0.97426(3) 0.53121(3)
O2_4 O 0.1322(3) 0.5877(5) 0.0219(5)
O6_4 O 0.0624(3) 0.4676(5) 0.0510(5)
P2_4 P 0.20253(11) 0.39616(17) 0.03459(17)
O8_4 O 0.2269(3) 0.4567(5) 0.0981(5)
O9_4 O 0.1815(3) 0.3249(5) 0.0731(5)
U3_4 U 0.242914(16) 0.49849(2) 0.23056(3)
H3_4 H 0.2810 0.3360 0.0345
O25_4 O 0.4120(3) 0.4361(5) 0.0877(5)
U6_4 U 0.134890(15) 0.23759(2) 0.12610(2)
O34_4 O 0.3689(3) 0.5871(5) 0.1329(5)
O35_4 O 0.4795(3) 0.5740(5) 0.0965(5)
O1_4 O 0.0208(3) 0.6039(5) 0.9330(5)
O3_4 O 0.0540(3) 0.4606(5) 0.8717(5)
O4_4 O 0.1596(3) 0.4320(5) 0.9669(5)
C2_4 C 0.2544(4) 0.3592(7) 0.9903(6)
P4_4 P 0.28799(11) 0.42392(17) 0.93516(17)
H4_4 H 0.2394 0.3169 0.9533
O17_4 O 0.2489(3) 0.4493(5) 0.8566(5)
O18_4 O 0.3092(3) 0.4951(5) 0.9879(5)
O19_4 O 0.2295(3) 0.4034(5) 0.6918(5)
O20_4 O 0.2595(3) 0.5979(5) 0.7712(5)
O23_4 O 0.0205(3) 0.9260(5) 0.9035(5)
O26_4 O 0.3848(4) 0.6147(5) 0.9743(5)
O32_4 O 0.2269(3) 0.5433(5) 0.5981(5)
O15_4 O 0.8964(4) 0.7748(5) 0.0300(5)
U5_4 U 0.906891(16) 0.47697(2) 0.05190(2)
H9_4 H 0.93402 0.792162 0.0444195
H10_4 H 0.874084 0.813993 0.0503366
P1_4 P 0.95993(11) 0.59858(17) 0.90546(17)
O7_4 O 0.9356(3) 0.6778(5) 0.9171(5)
C1_4 C 0.9445(4) 0.5787(7) 0.7964(6)
P3_4 P 0.87638(11) 0.59146(17) 0.74318(17)
H1_4 H 0.9662 0.6129 0.7711
H2_4 H 0.9548 0.5250 0.7883
O11_4 O 0.8566(3) 0.8381(5) 0.7558(5)
O12_4 O 0.8580(3) 0.6716(5) 0.7659(5)
O13_4 O 0.7678(3) 0.7712(5) 0.7990(5)
O14_4 O 0.9416(3) 0.8382(5) 0.8973(5)
P5_4 P 0.86962(11) 0.91809(17) 0.72508(17)
P6_4 P 0.95992(11) 0.92200(18) 0.88299(18)
O22_4 O 0.8689(3) 0.9129(5) 0.6329(5)
C3_4 C 0.9377(5) 0.9419(7) 0.7756(7)
H5_4 H 0.9428 0.9975 0.7674
H6_4 H 0.9607 0.9137 0.7473
O27_4 O 0.9376(3) 0.5324(5) 0.9490(5)
O28_4 O 0.8185(3) 0.6751(5) 0.9269(5)
H7_4 H 0.746127 0.738821 0.828272
H8_4 H 0.755939 0.826765 0.797571
O3_5 O 0.5540(3) 0.0394(5) 0.3717(5)
O4_5 O 0.6596(3) 0.0680(5) 0.4669(5)
P2_5 P 0.70253(11) 0.10384(17) 0.53459(17)
C2_5 C 0.7544(4) 0.1408(7) 0.4903(6)
P4_5 P 0.78799(11) 0.07608(17) 0.43516(17)
H3_5 H 0.7810 0.1640 0.5345
H4_5 H 0.7394 0.1831 0.4533
O17_5 O 0.7489(3) 0.0507(5) 0.3566(5)
O18_5 O 0.8092(3) 0.0049(5) 0.4879(5)
O19_5 O 0.7295(3) 0.0966(5) 0.1918(5)
O21_3 O 0.8333(3) 0.0168(5) 0.2424(5)
O25_5 O 0.9120(3) 0.0639(5) 0.5877(5)
O31_3 O 0.8346(3) 0.1227(5) 0.4179(5)
O36_3 O 0.9367(4) 0.0155(6) 0.4298(6)
O1_5 O 0.5208(3) 0.8961(5) 0.4330(5)
O2_5 O 0.6322(3) 0.9123(5) 0.5219(5)
O5_3 O 0.6243(3) 0.9098(5) 0.3497(5)
P1_5 P 0.45993(11) 0.90142(17) 0.40546(17)
O7_5 O 0.4356(3) 0.8222(5) 0.4171(5)
C1_5 C 0.4445(4) 0.9213(7) 0.2964(6)
O10_3 O 0.6557(3) 0.9760(5) 0.2323(5)
P3_5 P 0.37638(11) 0.90854(17) 0.24318(17)
H1_5 H 0.4662 0.8871 0.2711
H2_5 H 0.4548 0.9750 0.2883
O11_5 O 0.3566(3) 0.6619(5) 0.2558(5)
O12_5 O 0.3580(3) 0.8284(5) 0.2659(5)
O13_5 O 0.2678(3) 0.7288(5) 0.2990(5)
O14_5 O 0.4416(3) 0.6618(5) 0.3973(5)
O15_5 O 0.3964(4) 0.7252(5) 0.5300(5)
O16_3 O 0.3346(3) 0.6227(5) 0.4179(5)
O20_5 O 0.7595(3) 0.9021(5) 0.2712(5)
P5_5 P 0.36962(11) 0.58191(17) 0.22508(17)
P6_5 P 0.45992(11) 0.57800(18) 0.38299(18)
C3_5 C 0.4377(5) 0.5581(7) 0.2756(7)
O24_3 O 0.4367(4) 0.5155(6) 0.4298(6)
O26_5 O 0.8848(4) 0.8853(5) 0.4743(5)
H5_5 H 0.4428 0.5025 0.2674
H6_5 H 0.4607 0.5863 0.2473
O29_3 O 0.3443(3) 0.9760(5) 0.2677(5)
O30_3 O 0.3757(3) 0.9098(5) 0.1503(5)
O33_3 O 0.3333(3) 0.5168(5) 0.2424(5)
H7_5 H 0.246127 0.761179 0.328272
H8_5 H 0.255939 0.673235 0.297571
H9_5 H 0.43402 0.707838 0.54442
H10_5 H 0.374084 0.686007 0.550337
O3_6 O 0.4460(3) 0.0394(5) 0.1283(5)
O4_6 O 0.3404(3) 0.0680(5) 0.0331(5)
C2_6 C 0.2456(4) 0.1408(7) 0.0097(6)
P4_6 P 0.21201(11) 0.07608(17) 0.06484(17)
H4_6 H 0.2606 0.1831 0.0467
O17_6 O 0.2511(3) 0.0507(5) 0.1434(5)
O18_6 O 0.1908(3) 0.0049(5) 0.0121(5)
O19_6 O 0.2705(3) 0.0966(5) 0.3082(5)
O21_4 O 0.1667(3) 0.0168(5) 0.2576(5)
O31_4 O 0.1654(3) 0.1227(5) 0.0821(5)
O36_4 O 0.0633(4) 0.0155(6) 0.0702(6)
P2_6 P 0.29747(11) 0.10384(17) 0.96541(17)
H3_6 H 0.2190 0.1640 0.9655
O25_6 O 0.0880(3) 0.0639(5) 0.9123(5)
O1_6 O 0.4792(3) 0.8961(5) 0.0670(5)
P1_6 P 0.54007(11) 0.90142(17) 0.09454(17)
O7_6 O 0.5644(3) 0.8222(5) 0.0829(5)
C1_6 C 0.5555(4) 0.9213(7) 0.2036(6)
P3_6 P 0.62362(11) 0.90854(17) 0.25682(17)
H1_6 H 0.5338 0.8871 0.2289
H2_6 H 0.5452 0.9750 0.2117
O11_6 O 0.6434(3) 0.6619(5) 0.2442(5)
O12_6 O 0.6420(3) 0.8284(5) 0.2341(5)
O13_6 O 0.7322(3) 0.7288(5) 0.2010(5)
O14_6 O 0.5584(3) 0.6618(5) 0.1027(5)
O16_4 O 0.6654(3) 0.6227(5) 0.0821(5)
O20_6 O 0.2405(3) 0.9021(5) 0.2288(5)
P5_6 P 0.63038(11) 0.58191(17) 0.27492(17)
P6_6 P 0.54008(11) 0.57800(18) 0.11701(18)
C3_6 C 0.5623(5) 0.5581(7) 0.2244(7)
O24_4 O 0.5633(4) 0.5155(6) 0.0702(6)
O26_6 O 0.1152(4) 0.8853(5) 0.0257(5)
H5_6 H 0.5572 0.5025 0.2326
H6_6 H 0.5393 0.5863 0.2527
O33_4 O 0.6667(3) 0.5168(5) 0.2576(5)
H7_6 H 0.753873 0.761179 0.171728
H8_6 H 0.744061 0.673235 0.202429
O2_6 O 0.3678(3) 0.9123(5) 0.9781(5)
O15_6 O 0.6036(4) 0.7252(5) 0.9700(5)
H9_6 H 0.56598 0.707838 0.95558
H10_6 H 0.625916 0.686007 0.949663
O1_7 O 0.0208(3) 0.3961(5) 0.4330(5)
O2_7 O 0.1322(3) 0.4123(5) 0.5219(5)
O3_7 O 0.0540(3) 0.5394(5) 0.3717(5)
O4_7 O 0.1596(3) 0.5680(5) 0.4669(5)
O5_4 O 0.1243(3) 0.4098(5) 0.3497(5)
P2_7 P 0.20253(11) 0.60384(17) 0.53459(17)
C2_7 C 0.2544(4) 0.6408(7) 0.4903(6)
O10_4 O 0.1557(3) 0.4760(5) 0.2323(5)
P4_7 P 0.28799(11) 0.57608(17) 0.43516(17)
H3_7 H 0.2810 0.6640 0.5345
H4_7 H 0.2394 0.6831 0.4533
O17_7 O 0.2489(3) 0.5507(5) 0.3566(5)
O18_7 O 0.3092(3) 0.5049(5) 0.4879(5)
O19_7 O 0.2295(3) 0.5966(5) 0.1918(5)
O20_7 O 0.2595(3) 0.4021(5) 0.2712(5)
O25_7 O 0.4120(3) 0.5639(5) 0.5877(5)
O26_7 O 0.3848(4) 0.3853(5) 0.4743(5)
P1_7 P 0.95993(11) 0.40142(17) 0.40546(17)
O7_7 O 0.9356(3) 0.3222(5) 0.4171(5)
C1_7 C 0.9445(4) 0.4213(7) 0.2964(6)
P3_7 P 0.87638(11) 0.40854(17) 0.24318(17)
H1_7 H 0.9662 0.3871 0.2711
H2_7 H 0.9548 0.4750 0.2883
O11_7 O 0.8566(3) 0.1619(5) 0.2558(5)
O12_7 O 0.8580(3) 0.3284(5) 0.2659(5)
O13_7 O 0.7678(3) 0.2288(5) 0.2990(5)
O14_7 O 0.9416(3) 0.1618(5) 0.3973(5)
O15_7 O 0.8964(4) 0.2252(5) 0.5300(5)
P5_7 P 0.86962(11) 0.08191(17) 0.22508(17)
P6_7 P 0.95992(11) 0.07800(18) 0.38299(18)
C3_7 C 0.9377(5) 0.0581(7) 0.2756(7)
H5_7 H 0.9428 0.0025 0.2674
H6_7 H 0.9607 0.0863 0.2473
O29_4 O 0.8443(3) 0.4760(5) 0.2677(5)
O30_4 O 0.8757(3) 0.4098(5) 0.1503(5)
H7_7 H 0.746127 0.261179 0.328272
H8_7 H 0.755939 0.173235 0.297571
H9_7 H 0.93402 0.207838 0.54442
H10_7 H 0.874084 0.186007 0.550337
P1_8 P 0.04007(11) 0.40142(17) 0.09454(17)
O7_8 O 0.0644(3) 0.3222(5) 0.0829(5)
C1_8 C 0.0555(4) 0.4213(7) 0.2036(6)
P3_8 P 0.12362(11) 0.40854(17) 0.25682(17)
H1_8 H 0.0338 0.3871 0.2289
H2_8 H 0.0452 0.4750 0.2117
O11_8 O 0.1434(3) 0.1619(5) 0.2442(5)
O12_8 O 0.1420(3) 0.3284(5) 0.2341(5)
O13_8 O 0.2322(3) 0.2288(5) 0.2010(5)
O14_8 O 0.0584(3) 0.1618(5) 0.1027(5)
P5_8 P 0.13038(11) 0.08191(17) 0.27492(17)
P6_8 P 0.04008(11) 0.07800(18) 0.11701(18)
C3_8 C 0.0623(5) 0.0581(7) 0.2244(7)
H5_8 H 0.0572 0.0025 0.2326
H6_8 H 0.0393 0.0863 0.2527
H7_8 H 0.253873 0.261179 0.171728
H8_8 H 0.244061 0.173235 0.202429
O15_8 O 0.1036(4) 0.2252(5) 0.9700(5)
H9_8 H 0.0659799 0.207838 0.95558
H10_8 H 0.125916 0.186007 0.949663
O1_8 O 0.9792(3) 0.3961(5) 0.0670(5)
O3_8 O 0.9460(3) 0.5394(5) 0.1283(5)
O4_8 O 0.8404(3) 0.5680(5) 0.0331(5)
C2_8 C 0.7456(4) 0.6408(7) 0.0097(6)
P4_8 P 0.71201(11) 0.57608(17) 0.06484(17)
H4_8 H 0.7606 0.6831 0.0467
O17_8 O 0.7511(3) 0.5507(5) 0.1434(5)
O18_8 O 0.6908(3) 0.5049(5) 0.0121(5)
O19_8 O 0.7705(3) 0.5966(5) 0.3082(5)
O20_8 O 0.7405(3) 0.4021(5) 0.2288(5)
O26_8 O 0.6152(4) 0.3853(5) 0.0257(5)
O2_8 O 0.8678(3) 0.4123(5) 0.9781(5)
P2_8 P 0.79747(11) 0.60384(17) 0.96541(17)
H3_8 H 0.7190 0.6640 0.9655
O25_8 O 0.5880(3) 0.5639(5) 0.9123(5)
O37 O 0.1190(8) 0.3623(10) 0.7241(16)
O37_2 O 0.8810(8) 0.3623(10) 0.7759(16)
O37_3 O 0.6190(8) 0.8623(10) 0.7241(16)
O37_4 O 0.3810(8) 0.8623(10) 0.7759(16)
O37_5 O 0.8810(8) 0.6377(10) 0.2759(16)
O37_6 O 0.1190(8) 0.6377(10) 0.2241(16)
O37_7 O 0.3810(8) 0.1377(10) 0.2759(16)
O37_8 O 0.6190(8) 0.1377(10) 0.2241(16)
loop_
_geom_bond_atom_site_label_1
_geom_bond_atom_site_label_2
_geom_bond_site_symmetry_1
_geom_bond_site_symmetry_2
U1 O1 1_555 1_555
O1 P1 1_555 1_555
O2 U1 1_555 1_555
O5 U1 1_555 1_555
P1 O7 1_555 1_555
O7 U2 1_555 1_555
C1 P1 1_555 1_555
O10 U7 1_555 1_555
U2 O11 1_555 1_555
P3 C1 1_555 1_555
H1 C1 1_555 1_555
H2 C1 1_555 1_555
O11 P5 1_555 1_555
O12 U2 1_555 1_555
O13 U2 1_555 1_555
O14 U2 1_555 1_555
O15 U2 1_555 1_555
O16 U2 1_555 1_555
O20 U7 1_555 1_555
P5 O22 1_555 1_555
P6 O14 1_555 1_555
O22 U12 1_555 1_555
C3 P5 1_555 1_555
O23 P6 1_555 1_555
O24 P6 1_555 1_555
O26 U4 1_555 1_555
H5 C3 1_555 1_555
H6 C3 1_555 1_555
O27 P1 1_555 1_555
O28 U2 1_555 1_555
O29 P3 1_555 1_555
O30 P3 1_555 1_555
O32 U7 1_555 1_555
U8 O29 1_555 1_555
U9 O30 1_555 1_555
O33 P5 1_555 1_555
O34 U4 1_555 1_555
O35 U4 1_555 1_555
U11 O33 1_555 1_555
U13 O23 1_555 1_555
U14 O24 1_555 1_555
P3 O12 1_555 1_555
P6 C3 1_555 1_555
O13 H7 1_555 1_555
O13 H8 1_555 1_555
O15 H9 1_555 1_555
O15 H10 1_555 1_555
P2 O4 1_555 1_555
O8 P2 1_555 1_555
O9 P2 1_555 1_555
C2 P2 1_555 1_555
U3 O8 1_555 1_555
P4 C2 1_555 1_555
H3 C2 1_555 1_555
H4 C2 1_555 1_555
O17 P4 1_555 1_555
O18 P4 1_555 1_555
U6 O9 1_555 1_555
O31 P4 1_555 1_555
U10 O31 1_555 1_555
O34_2 U4_2 1_555 1_555
O35_2 U4_2 1_555 1_555
O15_2 H9_2 1_555 1_555
O15_2 H10_2 1_555 1_555
U9 O1_2 1_555 1_555
O1_2 P1_2 1_555 1_555
P1_2 O7_2 1_555 1_555
O7_2 U2_2 1_555 1_555
C1_2 P1_2 1_555 1_555
U2_2 O11_2 1_555 1_555
P3_2 C1_2 1_555 1_555
H1_2 C1_2 1_555 1_555
H2_2 C1_2 1_555 1_555
O11_2 P5_2 1_555 1_555
O12_2 U2_2 1_555 1_555
O13_2 U2_2 1_555 1_555
O14_2 U2_2 1_555 1_555
O16_2 U2_2 1_555 1_555
O20_2 U8 1_555 1_555
P5_2 O22_2 1_555 1_555
P6_2 O14_2 1_555 1_555
O22_2 U13 1_555 1_555
C3_2 P5_2 1_555 1_555
O23_2 P6_2 1_555 1_555
O24_2 P6_2 1_555 1_555
H5_2 C3_2 1_555 1_555
H6_2 C3_2 1_555 1_555
O27_2 P1_2 1_555 1_555
O28_2 U2_2 1_555 1_555
O10 P3_2 1_555 1_555
O5 P3_2 1_555 1_555
O32_2 U8 1_555 1_555
O33_2 P5_2 1_555 1_555
U11_2 O33_2 1_555 1_555
U12 O23_2 1_555 1_555
P3_2 O12_2 1_555 1_555
P6_2 C3_2 1_555 1_555
O13_2 H7_2 1_555 1_555
O13_2 H8_2 1_555 1_555
O8_2 P2_2 1_555 1_555
O9_2 P2_2 1_555 1_555
U3_2 O8_2 1_555 1_555
U6_2 O9_2 1_555 1_555
P4_2 C2_2 1_555 1_555
H4_2 C2_2 1_555 1_555
O17_2 P4_2 1_555 1_555
O18_2 P4_2 1_555 1_555
O31_2 P4_2 1_555 1_555
U10_2 O31_2 1_555 1_555
P1_3 O7_3 1_555 1_555
O7_3 U10 1_555 1_555
C1_3 P1_3 1_555 1_555
U10 O11_3 1_555 1_555
P3_3 C1_3 1_555 1_555
H1_3 C1_3 1_555 1_555
H2_3 C1_3 1_555 1_555
O11_3 P5_3 1_555 1_555
O12_3 U10 1_555 1_555
O13_3 U10 1_555 1_555
O14_3 U10 1_555 1_555
O15_3 U10 1_555 1_555
P5_3 O22_3 1_555 1_555
P6_3 O14_3 1_555 1_555
O22_3 U12_2 1_555 1_555
C3_3 P5_3 1_555 1_555
O36 P6_3 1_555 1_555
H5_3 C3_3 1_555 1_555
H6_3 C3_3 1_555 1_555
O27_3 P1_3 1_555 1_555
U5_3 O27_3 1_555 1_555
O28_3 U10 1_555 1_555
O29_2 P3_3 1_555 1_555
O30_2 P3_3 1_555 1_555
U11_2 O29_2 1_555 1_555
U9_2 O30_2 1_555 1_555
O21 P5_3 1_555 1_555
P3_3 O12_3 1_555 1_555
P6_3 C3_3 1_555 1_555
O13_3 H7_3 1_555 1_555
O13_3 H8_3 1_555 1_555
O15_3 H9_3 1_555 1_555
O15_3 H10_3 1_555 1_555
U1_2 O1_3 1_555 1_555
O2_3 U1_2 1_555 1_555
O3_3 U1_2 1_555 1_555
O4_3 U1_2 1_555 1_555
O5_2 U1_2 1_555 1_555
O6_3 U1_2 1_555 1_555
P2_3 O4_3 1_555 1_555
O8_3 P2_3 1_555 1_555
O9_3 P2_3 1_555 1_555
C2_3 P2_3 1_555 1_555
O10_2 U11 1_555 1_555
U3_3 O8_3 1_555 1_555
P4_3 C2_3 1_555 1_555
H3_3 C2_3 1_555 1_555
H4_3 C2_3 1_555 1_555
O17_3 P4_3 1_555 1_555
O18_3 P4_3 1_555 1_555
O19_3 U11 1_555 1_555
O20_3 U11 1_555 1_555
U14 O18_3 1_555 1_555
O25_3 U14 1_555 1_555
O26_3 U14 1_555 1_555
U6_3 O9_3 1_555 1_555
U11 O17_3 1_555 1_555
O16 P4_3 1_555 1_555
O32_3 U11 1_555 1_555
O34_3 U14 1_555 1_555
O35_3 U14 1_555 1_555
U13_2 O23_3 1_555 1_555
O8_4 P2_4 1_555 1_555
O9_4 P2_4 1_555 1_555
U3_4 O8_4 1_555 1_555
O25_4 U14_2 1_555 1_555
U6_4 O9_4 1_555 1_555
O34_4 U14_2 1_555 1_555
O35_4 U14_2 1_555 1_555
U9_2 O1_4 1_555 1_555
O3_4 U9_2 1_555 1_555
O4_4 U9_2 1_555 1_555
P4_4 C2_4 1_555 1_555
H4_4 C2_4 1_555 1_555
O17_4 P4_4 1_555 1_555
O18_4 P4_4 1_555 1_555
O19_4 U11_2 1_555 1_555
O20_4 U11_2 1_555 1_555
U11_2 O17_4 1_555 1_555
O16_2 P4_4 1_555 1_555
O32_4 U11_2 1_555 1_555
U12_2 O23_4 1_555 1_555
O15_4 H9_4 1_555 1_555
O15_4 H10_4 1_555 1_555
P1_4 O7_4 1_555 1_555
O7_4 U10_2 1_555 1_555
C1_4 P1_4 1_555 1_555
U10_2 O11_4 1_555 1_555
P3_4 C1_4 1_555 1_555
H1_4 C1_4 1_555 1_555
H2_4 C1_4 1_555 1_555
O11_4 P5_4 1_555 1_555
O12_4 U10_2 1_555 1_555
O13_4 U10_2 1_555 1_555
O14_4 U10_2 1_555 1_555
P5_4 O22_4 1_555 1_555
P6_4 O14_4 1_555 1_555
O22_4 U13_2 1_555 1_555
C3_4 P5_4 1_555 1_555
O36_2 P6_4 1_555 1_555
H5_4 C3_4 1_555 1_555
H6_4 C3_4 1_555 1_555
O27_4 P1_4 1_555 1_555
O28_4 U10_2 1_555 1_555
O10_2 P3_4 1_555 1_555
O5_2 P3_4 1_555 1_555
O21_2 P5_4 1_555 1_555
P3_4 O12_4 1_555 1_555
P6_4 C3_4 1_555 1_555
O13_4 H7_4 1_555 1_555
O13_4 H8_4 1_555 1_555
P2_5 O4_5 1_555 1_555
O32_2 P2_5 1_555 1_555
O28 P2_5 1_555 1_555
C2_5 P2_5 1_555 1_555
P4_5 C2_5 1_555 1_555
H3_5 C2_5 1_555 1_555
H4_5 C2_5 1_555 1_555
O17_5 P4_5 1_555 1_555
O18_5 P4_5 1_555 1_555
O31_3 P4_5 1_555 1_555
U6_3 O31_3 1_555 1_555
U5 O1_5 1_555 1_555
O1_5 P1_5 1_555 1_555
O2_5 U5 1_555 1_555
O5_3 U5 1_555 1_555
P1_5 O7_5 1_555 1_555
O7_5 U6 1_555 1_555
C1_5 P1_5 1_555 1_555
O10_3 U3_2 1_555 1_555
U6 O11_5 1_555 1_555
P3_5 C1_5 1_555 1_555
H1_5 C1_5 1_555 1_555
H2_5 C1_5 1_555 1_555
O11_5 P5_5 1_555 1_555
O12_5 U6 1_555 1_555
O13_5 U6 1_555 1_555
O14_5 U6 1_555 1_555
O15_5 U6 1_555 1_555
O16_3 U6 1_555 1_555
O20_5 U3_2 1_555 1_555
P5_5 O34_4 1_555 1_555
P6_5 O14_5 1_555 1_555
C3_5 P5_5 1_555 1_555
O35_3 P6_5 1_555 1_555
O24_3 P6_5 1_555 1_555
O26_5 U13_2 1_555 1_555
H5_5 C3_5 1_555 1_555
H6_5 C3_5 1_555 1_555
O6 P1_5 1_555 1_555
O29_3 P3_5 1_555 1_555
O30_3 P3_5 1_555 1_555
U3 O29_3 1_555 1_555
U5_2 O30_3 1_555 1_555
O33_3 P5_5 1_555 1_555
U3_4 O33_3 1_555 1_555
U13 O24_3 1_555 1_555
P3_5 O12_5 1_555 1_555
P6_5 C3_5 1_555 1_555
O13_5 H7_5 1_555 1_555
O13_5 H8_5 1_555 1_555
O15_5 H9_5 1_555 1_555
O15_5 H10_5 1_555 1_555
P4_6 C2_6 1_555 1_555
H4_6 C2_6 1_555 1_555
O17_6 P4_6 1_555 1_555
O18_6 P4_6 1_555 1_555
O31_4 P4_6 1_555 1_555
U6_4 O31_4 1_555 1_555
O32 P2_6 1_555 1_555
O28_2 P2_6 1_555 1_555
U5_2 O1_6 1_555 1_555
O1_6 P1_6 1_555 1_555
P1_6 O7_6 1_555 1_555
O7_6 U6_2 1_555 1_555
C1_6 P1_6 1_555 1_555
U6_2 O11_6 1_555 1_555
P3_6 C1_6 1_555 1_555
H1_6 C1_6 1_555 1_555
H2_6 C1_6 1_555 1_555
O11_6 P5_6 1_555 1_555
O12_6 U6_2 1_555 1_555
O13_6 U6_2 1_555 1_555
O14_6 U6_2 1_555 1_555
O16_4 U6_2 1_555 1_555
O20_6 U3 1_555 1_555
P5_6 O34_3 1_555 1_555
P6_6 O14_6 1_555 1_555
C3_6 P5_6 1_555 1_555
O35_4 P6_6 1_555 1_555
O24_4 P6_6 1_555 1_555
H5_6 C3_6 1_555 1_555
H6_6 C3_6 1_555 1_555
O6_2 P1_6 1_555 1_555
O10_3 P3_6 1_555 1_555
O5_3 P3_6 1_555 1_555
O33_4 P5_6 1_555 1_555
U3_3 O33_4 1_555 1_555
P3_6 O12_6 1_555 1_555
P6_6 C3_6 1_555 1_555
O13_6 H7_6 1_555 1_555
O13_6 H8_6 1_555 1_555
O15_6 H9_6 1_555 1_555
O15_6 H10_6 1_555 1_555
U5_3 O1_7 1_555 1_555
O2_7 U5_3 1_555 1_555
O3_7 U5_3 1_555 1_555
O4_7 U5_3 1_555 1_555
O5_4 U5_3 1_555 1_555
P2_7 O4_7 1_555 1_555
O32_4 P2_7 1_555 1_555
O28_3 P2_7 1_555 1_555
C2_7 P2_7 1_555 1_555
O10_4 U3_4 1_555 1_555
P4_7 C2_7 1_555 1_555
H3_7 C2_7 1_555 1_555
H4_7 C2_7 1_555 1_555
O17_7 P4_7 1_555 1_555
O18_7 P4_7 1_555 1_555
O19_7 U3_4 1_555 1_555
O20_7 U3_4 1_555 1_555
U13 O18_7 1_555 1_555
O25_7 U13 1_555 1_555
O26_7 U13 1_555 1_555
U3_4 O17_7 1_555 1_555
O16_3 P4_7 1_555 1_555
P1_7 O7_7 1_555 1_555
O7_7 U6_3 1_555 1_555
C1_7 P1_7 1_555 1_555
U6_3 O11_7 1_555 1_555
P3_7 C1_7 1_555 1_555
H1_7 C1_7 1_555 1_555
H2_7 C1_7 1_555 1_555
O11_7 P5_7 1_555 1_555
O12_7 U6_3 1_555 1_555
O13_7 U6_3 1_555 1_555
O14_7 U6_3 1_555 1_555
O15_7 U6_3 1_555 1_555
P5_7 O34_2 1_555 1_555
P6_7 O14_7 1_555 1_555
C3_7 P5_7 1_555 1_555
O36_3 P6_7 1_555 1_555
H5_7 C3_7 1_555 1_555
H6_7 C3_7 1_555 1_555
O6_3 P1_7 1_555 1_555
O29_4 P3_7 1_555 1_555
O30_4 P3_7 1_555 1_555
U3_3 O29_4 1_555 1_555
U5_4 O30_4 1_555 1_555
O21_3 P5_7 1_555 1_555
P3_7 O12_7 1_555 1_555
P6_7 C3_7 1_555 1_555
O13_7 H7_7 1_555 1_555
O13_7 H8_7 1_555 1_555
O15_7 H9_7 1_555 1_555
O15_7 H10_7 1_555 1_555
P1_8 O7_8 1_555 1_555
O7_8 U6_4 1_555 1_555
C1_8 P1_8 1_555 1_555
U6_4 O11_8 1_555 1_555
P3_8 C1_8 1_555 1_555
H1_8 C1_8 1_555 1_555
H2_8 C1_8 1_555 1_555
O11_8 P5_8 1_555 1_555
O12_8 U6_4 1_555 1_555
O13_8 U6_4 1_555 1_555
O14_8 U6_4 1_555 1_555
P5_8 O34 1_555 1_555
P6_8 O14_8 1_555 1_555
C3_8 P5_8 1_555 1_555
O36_4 P6_8 1_555 1_555
H5_8 C3_8 1_555 1_555
H6_8 C3_8 1_555 1_555
O6_4 P1_8 1_555 1_555
O10_4 P3_8 1_555 1_555
O5_4 P3_8 1_555 1_555
O21_4 P5_8 1_555 1_555
P3_8 O12_8 1_555 1_555
P6_8 C3_8 1_555 1_555
O13_8 H7_8 1_555 1_555
O13_8 H8_8 1_555 1_555
O15_8 H9_8 1_555 1_555
O15_8 H10_8 1_555 1_555
U5_4 O1_8 1_555 1_555
O3_8 U5_4 1_555 1_555
O4_8 U5_4 1_555 1_555
P4_8 C2_8 1_555 1_555
H4_8 C2_8 1_555 1_555
O17_8 P4_8 1_555 1_555
O18_8 P4_8 1_555 1_555
O19_8 U3_3 1_555 1_555
O20_8 U3_3 1_555 1_555
U3_3 O17_8 1_555 1_555
O16_4 P4_8 1_555 1_555
O32_3 P2_8 1_555 1_555
O28_4 P2_8 1_555 1_555
O25_8 U12 1_555 1_555

#END
