
###############################################################################
#
# This file contains modified crystal structure data generated from the
# MOF subset of the Cambridge Structural Database (CSD) v543 
# hosted by the Cambridge Crystallographic Data Centre (CCDC).
#
# This work is licensed under the Creative Commons
# Attribution-NonCommercial-ShareAlike 4.0 International License.
# To view a copy of this license, visit
# http://creativecommons.org/licenses/by-nc-sa/4.0/
# or send a letter to
# Creative Commons, PO Box 1866, Mountain View, CA 94042, USA.
#
# CIF created using the CSD Python API on 29 September 2022
# The structure has been converted into the P1 space group
# The structure has a 3D framework
# The original CSD entry BAXREY is in the orthorhombic crystal system
# The framework has been calculated to contain at least 10.0% void space
# The void calculation uses a probe of radius 1.32A, grid spacing 0.4
# H atom positions have been added when not included in the experimental data
#
###############################################################################

data_BAXREY
_chemical_formula_moiety         '(C336 H600 Cu40 N136 O120 W14)n'
_symmetry_cell_setting           triclinic
_symmetry_space_group_name_H-M   'P 1'
_symmetry_Int_Tables_number      1
_space_group_name_Hall           'P 1'
loop_
_symmetry_equiv_pos_site_id
_symmetry_equiv_pos_as_xyz
1 x,y,z
_cell_length_a                   32.349(2)
_cell_length_b                   20.892(2)
_cell_length_c                   21.162(2)
_cell_angle_alpha                90
_cell_angle_beta                 90
_cell_angle_gamma                90
_cell_volume                     14302
loop_
_atom_site_label
_atom_site_type_symbol
_atom_site_fract_x
_atom_site_fract_y
_atom_site_fract_z
H64 H 0.4003 0.1222 0.0119
H68 H 0.3809 0.0188 0.0115
O16 O 0.53600(13) 0.0718(2) 0.1378(2)
H71 H 0.5273 0.0444 0.1128
C47 C 0.57957(19) 0.0648(3) 0.1423(3)
H73 H 0.5878 0.0780 0.1843
H74 H 0.5921 0.0944 0.1127
C48 C 0.5971(2) 0.0023(3) 0.1308(3)
H76 H 0.6270 0.0059 0.1301
C51 C 0.6016(2) 0.0089(3) 0.0139(3)
H81 H 0.6187 0.0426 0.0313
C59 C 0.6223(2) 0.3015(4) 0.0003(3)
H101 H 0.6461 0.2736 0.0039
H102 H 0.6086 0.3025 0.0411
H104 H 0.6592 0.3771 0.0111
H106 H 0.5441 0.2549 0.0043
H107 H 0.5530 0.3698 0.0189
W3 W 0.742090(8) 0.576270(12) 0.025790(11)
N26 N 0.74245(16) 0.6615(2) 0.1581(2)
C66 C 0.7423(2) 0.6315(3) 0.1147(3)
N28 N 0.79730(16) 0.4648(3) 0.0976(2)
C68 C 0.77954(19) 0.5054(3) 0.0742(3)
N29 N 0.67870(16) 0.4849(2) 0.1101(2)
C69 C 0.70208(18) 0.5197(3) 0.0828(3)
N30 N 0.65121(19) 0.6510(3) 0.0262(3)
C70 C 0.6831(2) 0.6249(3) 0.0288(3)
N31 N 0.83029(19) 0.6454(3) 0.0510(3)
C71 C 0.7998(2) 0.6205(4) 0.0412(3)
Cu9 Cu 0.73047(2) 0.72052(4) 0.22781(4)
O34 O 0.71904(14) 0.7753(2) 0.2999(2)
O35 O 0.78750(15) 0.7855(2) 0.1930(2)
O36 O 0.66530(15) 0.6784(2) 0.2234(2)
O37 O 0.75846(13) 0.67111(19) 0.2925(2)
N36 N 0.70057(19) 0.7901(3) 0.1776(3)
H142 H 0.8056 0.7623 0.1750
H143 H 0.6567 0.6701 0.2605
H147 H 0.800112 0.807183 0.230039
H148 H 0.6658 0.638373 0.198107
W1 W 0.257910(8) 0.576270(12) 0.474210(11)
W2 W 0.5000 0.17816(2) 0.7500
Cu1 Cu 0.26953(2) 0.72052(4) 0.27219(4)
Cu2 Cu 0.26126(3) 0.76130(4) 0.64430(4)
Cu3 Cu 0.34867(2) 0.44265(4) 0.63274(4)
Cu4 Cu 0.39623(2) 0.32413(4) 0.62904(4)
Cu5 Cu 0.47991(2) 0.02960(4) 0.94578(4)
O1 O 0.28096(14) 0.7753(2) 0.2001(2)
O2 O 0.21250(15) 0.7855(2) 0.3070(2)
H1 H 0.1944 0.7623 0.3250
O3 O 0.33470(15) 0.6784(2) 0.2766(2)
H2 H 0.3433 0.6701 0.2395
O4 O 0.24154(13) 0.67111(19) 0.2075(2)
O5 O 0.27498(14) 0.6809(2) 0.0683(2)
H3 H 0.2963 0.6632 0.0842
O6 O 0.17974(13) 0.7947(2) 0.1839(2)
H4 H 0.1806 0.7960 0.2240
O7 O 0.37782(14) 0.3855(2) 0.6906(2)
O8 O 0.28593(14) 0.4362(2) 0.6868(2)
H5 H 0.2814 0.3980 0.6988
O9 O 0.40473(16) 0.5057(2) 0.5924(2)
H6 H 0.4276 0.4778 0.5815
O10 O 0.35162(14) 0.3669(2) 0.5815(2)
O11 O 0.45841(17) 0.3857(2) 0.5737(2)
H7 H 0.4419 0.3732 0.5908
O12 O 0.35632(16) 0.2367(2) 0.6483(2)
H8 H 0.3314 0.2479 0.6549
O14 O 0.45745(13) 0.1329(2) 0.9794(2)
H10 H 0.4676 0.1609 0.9547
N1 N 0.25755(16) 0.6615(2) 0.3419(2)
N2 N 0.25881(15) 0.6918(2) 0.5810(2)
N3 N 0.31638(15) 0.4938(2) 0.5740(2)
N4 N 0.20270(16) 0.4648(3) 0.4024(2)
N5 N 0.32130(16) 0.4849(2) 0.3899(2)
N6 N 0.34879(19) 0.6510(3) 0.4738(3)
N7 N 0.16971(19) 0.6454(3) 0.4490(3)
N8 N 0.19662(16) 0.5243(3) 0.5857(3)
N9 N 0.43969(16) 0.2843(3) 0.6802(2)
N10 N 0.49853(15) 0.0762(3) 0.8651(2)
N11 N 0.45136(16) 0.2418(3) 0.8713(3)
N12 N 0.40617(17) 0.1086(3) 0.7401(3)
N13 N 0.29943(19) 0.7901(3) 0.3224(3)
N14 N 0.19182(17) 0.6871(3) 0.1085(3)
N15 N 0.35865(18) 0.5113(3) 0.7001(3)
N16 N 0.40737(18) 0.2737(3) 0.5484(3)
N17 N 0.41765(16) 0.0294(3) 0.9329(2)
C1 C 0.2577(2) 0.6315(3) 0.3853(3)
C2 C 0.25760(19) 0.6508(3) 0.5426(3)
C3 C 0.29555(19) 0.5222(3) 0.5400(3)
C4 C 0.22046(19) 0.5054(3) 0.4258(3)
C5 C 0.29792(18) 0.5197(3) 0.4172(3)
C6 C 0.3169(2) 0.6249(3) 0.4712(3)
C7 C 0.2002(2) 0.6205(4) 0.4588(3)
C8 C 0.2165(2) 0.5426(3) 0.5469(3)
C9 C 0.4627(2) 0.2454(3) 0.7065(3)
C10 C 0.50059(19) 0.1084(3) 0.8189(3)
C11 C 0.46680(19) 0.2201(3) 0.8248(3)
C12 C 0.4387(2) 0.1347(3) 0.7452(3)
C13 C 0.2685(2) 0.8126(4) 0.3756(3)
H11 H 0.2809 0.8479 0.3986
H12 H 0.2644 0.7777 0.4052
C14 C 0.2285(2) 0.8327(4) 0.3513(4)
H13 H 0.2093 0.8378 0.3861
H14 H 0.2313 0.8737 0.3303
C15 C 0.3349(2) 0.7640(4) 0.3498(3)
H15 H 0.3519 0.7984 0.3664
H16 H 0.3269 0.7369 0.3849
C16 C 0.3591(2) 0.7267(3) 0.3055(3)
H17 H 0.3821 0.7070 0.3275
H18 H 0.3703 0.7547 0.2732
C17 C 0.3081(2) 0.8446(4) 0.2798(3)
H19 H 0.3024 0.8847 0.3012
H20 H 0.3370 0.8444 0.2675
C18 C 0.2803(2) 0.8380(3) 0.2206(3)
H21 H 0.2903 0.8660 0.1874
H22 H 0.2523 0.8505 0.2309
C19 C 0.1825(2) 0.6332(3) 0.1510(3)
H23 H 0.1528 0.6279 0.1549
H24 H 0.1940 0.5939 0.1339
C20 C 0.2018(2) 0.6472(3) 0.2170(3)
H25 H 0.2029 0.6082 0.2419
H26 H 0.1851 0.6783 0.2396
C21 C 0.2043(2) 0.6613(3) 0.0454(3)
H27 H 0.2029 0.6953 0.0142
H28 H 0.1850 0.6280 0.0328
C22 C 0.2465(2) 0.6348(3) 0.0468(3)
H29 H 0.2542 0.6208 0.0047
H30 H 0.2472 0.5979 0.0745
C23 C 0.1538(2) 0.7286(3) 0.1029(3)
H31 H 0.1579 0.7598 0.0695
H32 H 0.1303 0.7022 0.0915
C24 C 0.1445(2) 0.7634(3) 0.1644(3)
H33 H 0.1359 0.7329 0.1964
H34 H 0.1223 0.7939 0.1581
C25 C 0.3834(2) 0.4823(3) 0.7512(4)
H35 H 0.4040 0.5127 0.7658
H36 H 0.3656 0.4717 0.7866
C26 C 0.4040(2) 0.4239(3) 0.7278(4)
H37 H 0.4137 0.3990 0.7636
H38 H 0.4280 0.4360 0.7030
C27 C 0.3771(2) 0.5658(4) 0.6660(4)
H39 H 0.3582 0.5793 0.6330
H40 H 0.3802 0.6013 0.6952
C28 C 0.4182(2) 0.5515(4) 0.6371(4)
H41 H 0.4375 0.5335 0.6674
H42 H 0.4304 0.5888 0.6171
C29 C 0.3157(2) 0.5299(3) 0.7215(4)
H43 H 0.3029 0.5554 0.6886
H44 H 0.3181 0.5567 0.7588
C30 C 0.2890(2) 0.4763(3) 0.7360(4)
H45 H 0.2617 0.4920 0.7471
H46 H 0.2999 0.4534 0.7722
C31 C 0.3777(2) 0.3015(4) 0.4997(3)
H47 H 0.3539 0.2736 0.4961
H48 H 0.3914 0.3025 0.4589
C32 C 0.3640(2) 0.3653(4) 0.5155(3)
H49 H 0.3861 0.3957 0.5083
H50 H 0.3408 0.3771 0.4889
C33 C 0.4500(2) 0.2824(4) 0.5315(3)
H51 H 0.4669 0.2676 0.5665
H52 H 0.4559 0.2549 0.4957
C34 C 0.4641(2) 0.3517(4) 0.5143(3)
H53 H 0.4470 0.3698 0.4811
H54 H 0.4928 0.3525 0.5010
C35 C 0.3993(2) 0.2058(4) 0.5631(3)
H55 H 0.3989 0.1812 0.5243
H56 H 0.4213 0.1893 0.5896
C36 C 0.3592(2) 0.1987(4) 0.5962(3)
H57 H 0.3557 0.1544 0.6088
H58 H 0.3370 0.2093 0.5673
H61 H 0.4103 0.0258 0.8344
C39 C 0.41293(19) 0.1337(3) 0.9719(3)
H63 H 0.4043 0.1769 0.9617
C40 C 0.3979(2) 0.0911(3) 0.9237(3)
H65 H 0.3681 0.0867 0.9270
H66 H 0.4045 0.1078 0.8822
N18 N 0.56031(16) 0.2843(3) 0.8198(2)
C43 C 0.5373(2) 0.2454(3) 0.7935(3)
N19 N 0.50147(15) 0.0762(3) 0.6349(2)
C44 C 0.49941(19) 0.1084(3) 0.6811(3)
N20 N 0.54864(16) 0.2418(3) 0.6287(3)
C45 C 0.53320(19) 0.2201(3) 0.6752(3)
N21 N 0.59383(17) 0.1086(3) 0.7599(3)
C46 C 0.5613(2) 0.1347(3) 0.7548(3)
Cu6 Cu 0.60377(2) 0.32413(4) 0.87096(4)
Cu7 Cu 0.52009(2) 0.02960(4) 0.55422(4)
O18 O 0.53353(13) 0.0057(2) 0.9663(2)
C52 C 0.56858(19) 0.0374(3) 0.9735(3)
H83 H 0.5619 0.0792 0.9907
H84 H 0.5802 0.0443 0.9318
O19 O 0.62218(14) 0.3855(2) 0.8094(2)
O20 O 0.71407(14) 0.4362(2) 0.8132(2)
H85 H 0.7186 0.3980 0.8012
O21 O 0.59527(16) 0.5057(2) 0.9076(2)
H86 H 0.5724 0.4778 0.9185
N23 N 0.64135(18) 0.5113(3) 0.7999(3)
C53 C 0.6166(2) 0.4823(3) 0.7488(4)
H87 H 0.5960 0.5127 0.7342
H88 H 0.6344 0.4717 0.7134
C54 C 0.5960(2) 0.4239(3) 0.7722(4)
H89 H 0.5863 0.3990 0.7364
H90 H 0.5720 0.4360 0.7970
C55 C 0.6229(2) 0.5658(4) 0.8340(4)
H91 H 0.6418 0.5793 0.8670
H92 H 0.6198 0.6013 0.8048
C56 C 0.5818(2) 0.5515(4) 0.8629(4)
H93 H 0.5625 0.5335 0.8326
H94 H 0.5696 0.5888 0.8829
C57 C 0.6843(2) 0.5299(3) 0.7785(4)
H95 H 0.6971 0.5554 0.8114
H96 H 0.6819 0.5567 0.7412
C58 C 0.7110(2) 0.4763(3) 0.7640(4)
H97 H 0.7383 0.4920 0.7529
H98 H 0.7001 0.4534 0.7278
O22 O 0.64838(14) 0.3669(2) 0.9185(2)
O23 O 0.54159(17) 0.3857(2) 0.9263(2)
H99 H 0.5581 0.3732 0.9092
O24 O 0.64368(16) 0.2367(2) 0.8517(2)
H100 H 0.6686 0.2479 0.8451
N24 N 0.59263(18) 0.2737(3) 0.9516(3)
C60 C 0.6360(2) 0.3653(4) 0.9845(3)
H103 H 0.6139 0.3957 0.9917
C61 C 0.5500(2) 0.2824(4) 0.9685(3)
H105 H 0.5331 0.2676 0.9335
C62 C 0.5359(2) 0.3517(4) 0.9857(3)
H108 H 0.5072 0.3525 0.9990
C63 C 0.6007(2) 0.2058(4) 0.9369(3)
H109 H 0.6011 0.1812 0.9757
H110 H 0.5787 0.1893 0.9104
C64 C 0.6408(2) 0.1987(4) 0.9038(3)
H111 H 0.6443 0.1544 0.8912
H112 H 0.6630 0.2093 0.9327
Cu8 Cu 0.65133(2) 0.44265(4) 0.86726(4)
N25 N 0.68362(15) 0.4938(2) 0.9260(2)
C65 C 0.70445(19) 0.5222(3) 0.9600(3)
N27 N 0.74119(15) 0.6918(2) 0.9190(2)
C67 C 0.74240(19) 0.6508(3) 0.9574(3)
N32 N 0.80338(16) 0.5243(3) 0.9143(3)
C72 C 0.7835(2) 0.5426(3) 0.9531(3)
Cu10 Cu 0.73874(3) 0.76130(4) 0.85570(4)
O25 O 0.21904(14) 0.7247(2) 0.7001(2)
O26 O 0.28750(15) 0.7145(2) 0.8070(2)
H113 H 0.3056 0.7377 0.8250
O27 O 0.16530(15) 0.8216(2) 0.7766(2)
H114 H 0.1567 0.8299 0.7395
N33 N 0.20057(19) 0.7099(3) 0.8224(3)
C73 C 0.2315(2) 0.6874(4) 0.8756(3)
H115 H 0.2191 0.6521 0.8986
H116 H 0.2356 0.7223 0.9052
C74 C 0.2715(2) 0.6673(4) 0.8513(4)
H117 H 0.2907 0.6622 0.8861
H118 H 0.2687 0.6263 0.8303
C75 C 0.1651(2) 0.7360(4) 0.8498(3)
H119 H 0.1481 0.7016 0.8664
H120 H 0.1731 0.7631 0.8849
C76 C 0.1409(2) 0.7733(3) 0.8055(3)
H121 H 0.1179 0.7930 0.8275
H122 H 0.1297 0.7453 0.7732
C77 C 0.1919(2) 0.6554(4) 0.7798(3)
H123 H 0.1976 0.6153 0.8012
H124 H 0.1630 0.6556 0.7675
C78 C 0.2197(2) 0.6620(3) 0.7206(3)
H125 H 0.2097 0.6340 0.6874
H126 H 0.2477 0.6495 0.7309
O28 O 0.25846(13) 0.82889(19) 0.7075(2)
O29 O 0.22502(14) 0.8191(2) 0.5683(2)
H127 H 0.2037 0.8368 0.5842
O30 O 0.32026(13) 0.7053(2) 0.6839(2)
H128 H 0.3194 0.7040 0.7240
N34 N 0.30818(17) 0.8129(3) 0.6085(3)
C79 C 0.3175(2) 0.8668(3) 0.6510(3)
H129 H 0.3472 0.8721 0.6549
H130 H 0.3060 0.9061 0.6339
C80 C 0.2982(2) 0.8528(3) 0.7170(3)
H131 H 0.2971 0.8918 0.7419
H132 H 0.3149 0.8217 0.7396
C81 C 0.2957(2) 0.8387(3) 0.5454(3)
H133 H 0.2971 0.8047 0.5142
H134 H 0.3150 0.8720 0.5328
C82 C 0.2535(2) 0.8652(3) 0.5468(3)
H135 H 0.2458 0.8792 0.5047
H136 H 0.2528 0.9021 0.5745
C83 C 0.3462(2) 0.7714(3) 0.6029(3)
H137 H 0.3421 0.7402 0.5695
H138 H 0.3697 0.7978 0.5915
C84 C 0.3555(2) 0.7366(3) 0.6644(3)
H139 H 0.3641 0.7671 0.6964
H140 H 0.3777 0.7061 0.6581
Cu11 Cu 0.23874(3) 0.73870(4) 0.14430(4)
O31 O 0.54255(13) 0.1329(2) 0.5206(2)
O32 O 0.46647(13) 0.0057(2) 0.5337(2)
N35 N 0.58235(16) 0.0294(3) 0.5671(2)
O38 O 0.78096(14) 0.7247(2) 0.7999(2)
O39 O 0.74154(13) 0.82889(19) 0.7925(2)
O40 O 0.77498(14) 0.8191(2) 0.9317(2)
O41 O 0.67974(13) 0.7053(2) 0.8161(2)
N37 N 0.69182(17) 0.8129(3) 0.8915(3)
Cu13 Cu 0.23047(2) 0.77948(4) 0.77219(4)
H141 H 0.5324 0.1609 0.5453
H144 H 0.7963 0.8368 0.9158
H145 H 0.6806 0.7040 0.7760
H146 H 0.532911 0.140958 0.476766
H149 H 0.783748 0.78961 0.965972
H150 H 0.65419 0.727761 0.829692
O13 O 0.46400(13) 0.0718(2) 0.3622(2)
H9 H 0.4727 0.0444 0.3872
C37 C 0.42043(19) 0.0648(3) 0.3577(3)
H59 H 0.4122 0.0780 0.3157
H60 H 0.4079 0.0944 0.3873
C38 C 0.4029(2) 0.0023(3) 0.3692(3)
H62 H 0.3730 0.0059 0.3699
C41 C 0.3984(2) 0.0089(3) 0.4861(3)
H67 H 0.3813 0.0426 0.4687
C42 C 0.43142(19) 0.0374(3) 0.5265(3)
H69 H 0.4381 0.0792 0.5093
H70 H 0.4198 0.0443 0.5682
H75 H 0.5897 0.0258 0.6656
C49 C 0.58707(19) 0.1337(3) 0.5281(3)
H77 H 0.5957 0.1769 0.5383
H78 H 0.5997 0.1222 0.4881
C50 C 0.6021(2) 0.0911(3) 0.5763(3)
H79 H 0.6319 0.0867 0.5730
H80 H 0.5955 0.1078 0.6178
H82 H 0.6191 0.0188 0.4885
O9_2 O 0.09527(16) 0.9943(2) 0.0924(2)
N2_2 N 0.24119(15) 0.8082(2) 0.0810(2)
N8_2 N 0.30338(16) 0.9757(3) 0.0857(3)
N15_2 N 0.14135(18) 0.9887(3) 0.2001(3)
C2_2 C 0.24240(19) 0.8492(3) 0.0426(3)
C3_2 C 0.20445(19) 0.9778(3) 0.0400(3)
C8_2 C 0.2835(2) 0.9574(3) 0.0469(3)
H35_2 H 0.0960 0.9873 0.2658
C27_2 C 0.1229(2) 0.9342(4) 0.1660(4)
H39_2 H 0.1418 0.9207 0.1330
H40_2 H 0.1198 0.8987 0.1952
C28_2 C 0.0818(2) 0.9485(4) 0.1371(4)
H41_2 H 0.0625 0.9665 0.1674
H42_2 H 0.0696 0.9112 0.1171
C29_2 C 0.1843(2) 0.9701(3) 0.2215(4)
H43_2 H 0.1971 0.9446 0.1886
H44_2 H 0.1819 0.9433 0.2588
W1_2 W 0.242090(8) 0.923730(12) 0.974210(11)
N1_2 N 0.24245(16) 0.8385(2) 0.8419(2)
N6_2 N 0.15121(19) 0.8490(3) 0.9738(3)
N7_2 N 0.33029(19) 0.8546(3) 0.9490(3)
C1_2 C 0.2423(2) 0.8685(3) 0.8853(3)
C4_2 C 0.27954(19) 0.9946(3) 0.9258(3)
C5_2 C 0.20208(18) 0.9803(3) 0.9172(3)
C6_2 C 0.1831(2) 0.8751(3) 0.9712(3)
C7_2 C 0.2998(2) 0.8795(4) 0.9588(3)
O21_2 O 0.90473(16) 0.9943(2) 0.4076(2)
N23_2 N 0.85865(18) 0.9887(3) 0.2999(3)
H87_2 H 0.9040 0.9873 0.2342
C55_2 C 0.8771(2) 0.9342(4) 0.3340(4)
H91_2 H 0.8582 0.9207 0.3670
H92_2 H 0.8802 0.8987 0.3048
C56_2 C 0.9182(2) 0.9485(4) 0.3629(4)
H93_2 H 0.9375 0.9665 0.3326
H94_2 H 0.9304 0.9112 0.3829
C57_2 C 0.8157(2) 0.9701(3) 0.2785(4)
H95_2 H 0.8029 0.9446 0.3114
H96_2 H 0.8181 0.9433 0.2412
C65_2 C 0.79555(19) 0.9778(3) 0.4600(3)
W3_2 W 0.757910(8) 0.923730(12) 0.525790(11)
N26_2 N 0.75755(16) 0.8385(2) 0.6581(2)
C66_2 C 0.7577(2) 0.8685(3) 0.6147(3)
N27_2 N 0.75881(15) 0.8082(2) 0.4190(2)
C67_2 C 0.75760(19) 0.8492(3) 0.4574(3)
C68_2 C 0.72046(19) 0.9946(3) 0.5742(3)
C69_2 C 0.79792(18) 0.9803(3) 0.5828(3)
N30_2 N 0.84879(19) 0.8490(3) 0.5262(3)
C70_2 C 0.8169(2) 0.8751(3) 0.5288(3)
N31_2 N 0.66971(19) 0.8546(3) 0.5510(3)
C71_2 C 0.7002(2) 0.8795(4) 0.5412(3)
N32_2 N 0.69662(16) 0.9757(3) 0.4143(3)
C72_2 C 0.7165(2) 0.9574(3) 0.4531(3)
Cu9_2 Cu 0.76953(2) 0.77948(4) 0.72781(4)
Cu10_2 Cu 0.76126(3) 0.73870(4) 0.35570(4)
O35_2 O 0.71250(15) 0.7145(2) 0.6930(2)
O36_2 O 0.83470(15) 0.8216(2) 0.7234(2)
N36_2 N 0.79943(19) 0.7099(3) 0.6776(3)
O40_2 O 0.72502(14) 0.6809(2) 0.4317(2)
O41_2 O 0.82026(13) 0.7947(2) 0.3161(2)
N37_2 N 0.80818(17) 0.6871(3) 0.3915(3)
H142_2 H 0.6944 0.7377 0.6750
H143_2 H 0.8433 0.8299 0.7605
H144_2 H 0.7037 0.6632 0.4158
H145_2 H 0.8194 0.7960 0.2760
H147_2 H 0.699888 0.692817 0.730039
H148_2 H 0.8342 0.861627 0.698107
H149_2 H 0.716252 0.71039 0.465972
H150_2 H 0.84581 0.772239 0.329692
H149_3 H 0.283748 0.71039 0.0340279
H150_3 H 0.15419 0.772239 0.170308
H147_3 H 0.300112 0.692817 0.769961
H148_3 H 0.1658 0.861627 0.801893
C13_2 C 0.7685(2) 0.6874(4) 0.6244(3)
H11_2 H 0.7809 0.6521 0.6014
H12_2 H 0.7644 0.7223 0.5948
C14_2 C 0.7285(2) 0.6673(4) 0.6487(4)
H13_2 H 0.7093 0.6622 0.6139
H14_2 H 0.7313 0.6263 0.6697
C15_2 C 0.8349(2) 0.7360(4) 0.6502(3)
H15_2 H 0.8519 0.7016 0.6336
H16_2 H 0.8269 0.7631 0.6151
C16_2 C 0.8591(2) 0.7733(3) 0.6945(3)
H17_2 H 0.8821 0.7930 0.6725
H18_2 H 0.8703 0.7453 0.7268
C17_2 C 0.8081(2) 0.6554(4) 0.7202(3)
H19_2 H 0.8024 0.6153 0.6988
H20_2 H 0.8370 0.6556 0.7325
C18_2 C 0.7803(2) 0.6620(3) 0.7794(3)
H21_2 H 0.7903 0.6340 0.8126
H22_2 H 0.7523 0.6495 0.7691
C19_2 C 0.6825(2) 0.8668(3) 0.8490(3)
H23_2 H 0.6528 0.8721 0.8451
H24_2 H 0.6940 0.9061 0.8661
C20_2 C 0.7018(2) 0.8528(3) 0.7830(3)
H25_2 H 0.7029 0.8918 0.7581
H26_2 H 0.6851 0.8217 0.7604
C21_2 C 0.7043(2) 0.8387(3) 0.9546(3)
H27_2 H 0.7029 0.8047 0.9858
H28_2 H 0.6850 0.8720 0.9672
C22_2 C 0.7465(2) 0.8652(3) 0.9532(3)
H29_2 H 0.7542 0.8792 0.9953
H30_2 H 0.7472 0.9021 0.9255
C23_2 C 0.6538(2) 0.7714(3) 0.8971(3)
H31_2 H 0.6579 0.7402 0.9305
H32_2 H 0.6303 0.7978 0.9085
C24_2 C 0.6445(2) 0.7366(3) 0.8356(3)
H33_2 H 0.6359 0.7671 0.8036
H34_2 H 0.6223 0.7061 0.8419
C73_2 C 0.7315(2) 0.8126(4) 0.1244(3)
H115_2 H 0.7191 0.8479 0.1014
H116_2 H 0.7356 0.7777 0.0948
C74_2 C 0.7715(2) 0.8327(4) 0.1487(4)
H117_2 H 0.7907 0.8378 0.1139
H118_2 H 0.7687 0.8737 0.1697
C75_2 C 0.6651(2) 0.7640(4) 0.1502(3)
H119_2 H 0.6481 0.7984 0.1336
H120_2 H 0.6731 0.7369 0.1151
C76_2 C 0.6409(2) 0.7267(3) 0.1945(3)
H121_2 H 0.6179 0.7070 0.1725
H122_2 H 0.6297 0.7547 0.2268
C77_2 C 0.6919(2) 0.8446(4) 0.2202(3)
H123_2 H 0.6976 0.8847 0.1988
H124_2 H 0.6630 0.8444 0.2325
C78_2 C 0.7197(2) 0.8380(3) 0.2794(3)
H125_2 H 0.7097 0.8660 0.3126
H126_2 H 0.7477 0.8505 0.2691
C79_2 C 0.8175(2) 0.6332(3) 0.3490(3)
H129_2 H 0.8472 0.6279 0.3451
H130_2 H 0.8060 0.5939 0.3661
C80_2 C 0.7982(2) 0.6472(3) 0.2830(3)
H131_2 H 0.7971 0.6082 0.2581
H132_2 H 0.8149 0.6783 0.2604
C81_2 C 0.7957(2) 0.6613(3) 0.4546(3)
H133_2 H 0.7971 0.6953 0.4858
H134_2 H 0.8150 0.6280 0.4672
C82_2 C 0.7535(2) 0.6348(3) 0.4532(3)
H135_2 H 0.7458 0.6208 0.4953
H136_2 H 0.7528 0.5979 0.4255
C83_2 C 0.8462(2) 0.7286(3) 0.3971(3)
H137_2 H 0.8421 0.7598 0.4305
H138_2 H 0.8697 0.7022 0.4085
C84_2 C 0.8555(2) 0.7634(3) 0.3356(3)
H139_2 H 0.8641 0.7329 0.3036
H140_2 H 0.8777 0.7939 0.3419
H146_2 H 0.467089 0.140958 0.0232342
H147_4 H 0.199888 0.807183 0.269961
H148_4 H 0.3342 0.638373 0.301893
H149_4 H 0.216252 0.78961 0.534028
H150_4 H 0.34581 0.727761 0.670308
O15 O 0.46647(13) 0.9943(2) 0.0337(2)
C42_2 C 0.43142(19) 0.9626(3) 0.0265(3)
H69_2 H 0.4381 0.9208 0.0093
H70_2 H 0.4198 0.9557 0.0682
O17 O 0.54255(13) 0.8671(2) 0.0206(2)
H72 H 0.5324 0.8391 0.0453
N22 N 0.58235(16) 0.9706(3) 0.0671(2)
H75_2 H 0.5897 0.9742 0.1656
C49_2 C 0.58707(19) 0.8663(3) 0.0281(3)
H77_2 H 0.5957 0.8231 0.0383
C50_2 C 0.6021(2) 0.9089(3) 0.0763(3)
H79_2 H 0.6319 0.9133 0.0730
H80_2 H 0.5955 0.8922 0.1178
Cu12 Cu 0.52009(2) 0.97040(4) 0.05422(4)
O13_2 O 0.46400(13) 0.9282(2) 0.8622(2)
H9_2 H 0.4727 0.9556 0.8872
C37_2 C 0.42043(19) 0.9352(3) 0.8577(3)
H59_2 H 0.4122 0.9220 0.8157
H60_2 H 0.4079 0.9056 0.8873
C38_2 C 0.4029(2) 0.9977(3) 0.8692(3)
H62_2 H 0.3730 0.9941 0.8699
C41_2 C 0.3984(2) 0.9911(3) 0.9861(3)
H67_2 H 0.3813 0.9574 0.9687
H78_2 H 0.5997 0.8778 0.9881
H82_2 H 0.6191 0.9812 0.9885
O33 O 0.53353(13) 0.9943(2) 0.4663(2)
O21_3 O 0.09527(16) 0.0057(2) 0.5924(2)
N23_3 N 0.14135(18) 0.0113(3) 0.7001(3)
H87_3 H 0.0960 0.0127 0.7658
C55_3 C 0.1229(2) 0.0658(4) 0.6660(4)
H91_3 H 0.1418 0.0793 0.6330
H92_3 H 0.1198 0.1013 0.6952
C56_3 C 0.0818(2) 0.0515(4) 0.6371(4)
H93_3 H 0.0625 0.0335 0.6674
H94_3 H 0.0696 0.0888 0.6171
C57_3 C 0.1843(2) 0.0299(3) 0.7215(4)
H95_3 H 0.1971 0.0554 0.6886
H96_3 H 0.1819 0.0567 0.7588
C65_3 C 0.20445(19) 0.0222(3) 0.5400(3)
W3_3 W 0.242090(8) 0.076270(12) 0.474210(11)
N26_3 N 0.24245(16) 0.1615(2) 0.3419(2)
C66_3 C 0.2423(2) 0.1315(3) 0.3853(3)
N27_3 N 0.24119(15) 0.1918(2) 0.5810(2)
C67_3 C 0.24240(19) 0.1508(3) 0.5426(3)
C68_3 C 0.27954(19) 0.0054(3) 0.4258(3)
C69_3 C 0.20208(18) 0.0197(3) 0.4172(3)
N30_3 N 0.15121(19) 0.1510(3) 0.4738(3)
C70_3 C 0.1831(2) 0.1249(3) 0.4712(3)
N31_3 N 0.33029(19) 0.1454(3) 0.4490(3)
C71_3 C 0.2998(2) 0.1205(4) 0.4588(3)
N32_3 N 0.30338(16) 0.0243(3) 0.5857(3)
C72_3 C 0.2835(2) 0.0426(3) 0.5469(3)
Cu9_3 Cu 0.23047(2) 0.22052(4) 0.27219(4)
Cu10_3 Cu 0.23874(3) 0.26130(4) 0.64430(4)
O34_2 O 0.21904(14) 0.2753(2) 0.2001(2)
O35_3 O 0.28750(15) 0.2855(2) 0.3070(2)
O36_3 O 0.16530(15) 0.1784(2) 0.2766(2)
O37_2 O 0.25846(13) 0.17111(19) 0.2075(2)
N36_3 N 0.20057(19) 0.2901(3) 0.3224(3)
O38_2 O 0.28096(14) 0.2247(2) 0.7001(2)
O39_2 O 0.24154(13) 0.32889(19) 0.7075(2)
O40_3 O 0.27498(14) 0.3191(2) 0.5683(2)
O41_3 O 0.17974(13) 0.2053(2) 0.6839(2)
N37_3 N 0.19182(17) 0.3129(3) 0.6085(3)
H142_3 H 0.3056 0.2623 0.3250
H143_3 H 0.1567 0.1701 0.2395
H144_3 H 0.2963 0.3368 0.5842
H145_3 H 0.1806 0.2040 0.7240
H147_5 H 0.300112 0.307183 0.269961
H148_5 H 0.1658 0.138373 0.301893
H149_5 H 0.283748 0.28961 0.534028
H150_5 H 0.15419 0.227761 0.670308
W1_3 W 0.757910(8) 0.076270(12) 0.025790(11)
Cu1_2 Cu 0.76953(2) 0.22052(4) 0.22781(4)
O1_2 O 0.78096(14) 0.2753(2) 0.2999(2)
O2_2 O 0.71250(15) 0.2855(2) 0.1930(2)
H1_2 H 0.6944 0.2623 0.1750
O3_2 O 0.83470(15) 0.1784(2) 0.2234(2)
H2_2 H 0.8433 0.1701 0.2605
O4_2 O 0.74154(13) 0.17111(19) 0.2925(2)
O5_2 O 0.77498(14) 0.1809(2) 0.4317(2)
H3_2 H 0.7963 0.1632 0.4158
O6_2 O 0.67974(13) 0.2947(2) 0.3161(2)
H4_2 H 0.6806 0.2960 0.2760
N1_3 N 0.75755(16) 0.1615(2) 0.1581(2)
N6_3 N 0.84879(19) 0.1510(3) 0.0262(3)
N7_3 N 0.66971(19) 0.1454(3) 0.0510(3)
N13_2 N 0.79943(19) 0.2901(3) 0.1776(3)
N14_2 N 0.69182(17) 0.1871(3) 0.3915(3)
C1_3 C 0.7577(2) 0.1315(3) 0.1147(3)
C4_3 C 0.72046(19) 0.0054(3) 0.0742(3)
C5_3 C 0.79792(18) 0.0197(3) 0.0828(3)
C6_3 C 0.8169(2) 0.1249(3) 0.0288(3)
C7_3 C 0.7002(2) 0.1205(4) 0.0412(3)
C13_3 C 0.7685(2) 0.3126(4) 0.1244(3)
H11_3 H 0.7809 0.3479 0.1014
H12_3 H 0.7644 0.2777 0.0948
C14_3 C 0.7285(2) 0.3327(4) 0.1487(4)
H13_3 H 0.7093 0.3378 0.1139
H14_3 H 0.7313 0.3737 0.1697
C15_3 C 0.8349(2) 0.2640(4) 0.1502(3)
H15_3 H 0.8519 0.2984 0.1336
H16_3 H 0.8269 0.2369 0.1151
C16_3 C 0.8591(2) 0.2267(3) 0.1945(3)
H17_3 H 0.8821 0.2070 0.1725
H18_3 H 0.8703 0.2547 0.2268
C17_3 C 0.8081(2) 0.3446(4) 0.2202(3)
H19_3 H 0.8024 0.3847 0.1988
H20_3 H 0.8370 0.3444 0.2325
C18_3 C 0.7803(2) 0.3380(3) 0.2794(3)
H21_3 H 0.7903 0.3660 0.3126
H22_3 H 0.7523 0.3505 0.2691
C19_3 C 0.6825(2) 0.1332(3) 0.3490(3)
H23_3 H 0.6528 0.1279 0.3451
H24_3 H 0.6940 0.0939 0.3661
C20_3 C 0.7018(2) 0.1472(3) 0.2830(3)
H25_3 H 0.7029 0.1082 0.2581
H26_3 H 0.6851 0.1783 0.2604
C21_3 C 0.7043(2) 0.1613(3) 0.4546(3)
H27_3 H 0.7029 0.1953 0.4858
H28_3 H 0.6850 0.1280 0.4672
C22_3 C 0.7465(2) 0.1348(3) 0.4532(3)
H29_3 H 0.7542 0.1208 0.4953
H30_3 H 0.7472 0.0979 0.4255
C23_3 C 0.6538(2) 0.2286(3) 0.3971(3)
H31_3 H 0.6579 0.2598 0.4305
H32_3 H 0.6303 0.2022 0.4085
C24_3 C 0.6445(2) 0.2634(3) 0.3356(3)
H33_3 H 0.6359 0.2329 0.3036
H34_3 H 0.6223 0.2939 0.3419
Cu11_2 Cu 0.73874(3) 0.23870(4) 0.35570(4)
Cu2_2 Cu 0.76126(3) 0.26130(4) 0.85570(4)
O9_3 O 0.90473(16) 0.0057(2) 0.9076(2)
N2_3 N 0.75881(15) 0.1918(2) 0.9190(2)
N8_3 N 0.69662(16) 0.0243(3) 0.9143(3)
N15_3 N 0.85865(18) 0.0113(3) 0.7999(3)
C2_3 C 0.75760(19) 0.1508(3) 0.9574(3)
C3_3 C 0.79555(19) 0.0222(3) 0.9600(3)
C8_3 C 0.7165(2) 0.0426(3) 0.9531(3)
H35_3 H 0.9040 0.0127 0.7342
C27_3 C 0.8771(2) 0.0658(4) 0.8340(4)
H39_3 H 0.8582 0.0793 0.8670
H40_3 H 0.8802 0.1013 0.8048
C28_3 C 0.9182(2) 0.0515(4) 0.8629(4)
H41_3 H 0.9375 0.0335 0.8326
H42_3 H 0.9304 0.0888 0.8829
C29_3 C 0.8157(2) 0.0299(3) 0.7785(4)
H43_3 H 0.8029 0.0554 0.8114
H44_3 H 0.8181 0.0567 0.7412
O25_2 O 0.71904(14) 0.2247(2) 0.7999(2)
O26_2 O 0.78750(15) 0.2145(2) 0.6930(2)
H113_2 H 0.8056 0.2377 0.6750
O27_2 O 0.66530(15) 0.3216(2) 0.7234(2)
H114_2 H 0.6567 0.3299 0.7605
N33_2 N 0.70057(19) 0.2099(3) 0.6776(3)
C73_3 C 0.7315(2) 0.1874(4) 0.6244(3)
H115_3 H 0.7191 0.1521 0.6014
H116_3 H 0.7356 0.2223 0.5948
C74_3 C 0.7715(2) 0.1673(4) 0.6487(4)
H117_3 H 0.7907 0.1622 0.6139
H118_3 H 0.7687 0.1263 0.6697
C75_3 C 0.6651(2) 0.2360(4) 0.6502(3)
H119_3 H 0.6481 0.2016 0.6336
H120_3 H 0.6731 0.2631 0.6151
C76_3 C 0.6409(2) 0.2733(3) 0.6945(3)
H121_3 H 0.6179 0.2930 0.6725
H122_3 H 0.6297 0.2453 0.7268
C77_3 C 0.6919(2) 0.1554(4) 0.7202(3)
H123_3 H 0.6976 0.1153 0.6988
H124_3 H 0.6630 0.1556 0.7325
C78_3 C 0.7197(2) 0.1620(3) 0.7794(3)
H125_3 H 0.7097 0.1340 0.8126
H126_3 H 0.7477 0.1495 0.7691
O28_2 O 0.75846(13) 0.32889(19) 0.7925(2)
O29_2 O 0.72502(14) 0.3191(2) 0.9317(2)
H127_2 H 0.7037 0.3368 0.9158
O30_2 O 0.82026(13) 0.2053(2) 0.8161(2)
H128_2 H 0.8194 0.2040 0.7760
N34_2 N 0.80818(17) 0.3129(3) 0.8915(3)
C79_3 C 0.8175(2) 0.3668(3) 0.8490(3)
H129_3 H 0.8472 0.3721 0.8451
H130_3 H 0.8060 0.4061 0.8661
C80_3 C 0.7982(2) 0.3528(3) 0.7830(3)
H131_3 H 0.7971 0.3918 0.7581
H132_3 H 0.8149 0.3217 0.7604
C81_3 C 0.7957(2) 0.3387(3) 0.9546(3)
H133_3 H 0.7971 0.3047 0.9858
H134_3 H 0.8150 0.3720 0.9672
C82_3 C 0.7535(2) 0.3652(3) 0.9532(3)
H135_3 H 0.7458 0.3792 0.9953
H136_3 H 0.7528 0.4021 0.9255
C83_3 C 0.8462(2) 0.2714(3) 0.8971(3)
H137_3 H 0.8421 0.2402 0.9305
H138_3 H 0.8697 0.2978 0.9085
C84_3 C 0.8555(2) 0.2366(3) 0.8356(3)
H139_3 H 0.8641 0.2671 0.8036
H140_3 H 0.8777 0.2061 0.8419
Cu13_2 Cu 0.73047(2) 0.27948(4) 0.72781(4)
O5_3 O 0.22502(14) 0.1809(2) 0.0683(2)
H3_3 H 0.2037 0.1632 0.0842
O6_3 O 0.32026(13) 0.2947(2) 0.1839(2)
H4_3 H 0.3194 0.2960 0.2240
N14_3 N 0.30818(17) 0.1871(3) 0.1085(3)
C13_4 C 0.2315(2) 0.3126(4) 0.3756(3)
H11_4 H 0.2191 0.3479 0.3986
H12_4 H 0.2356 0.2777 0.4052
C14_4 C 0.2715(2) 0.3327(4) 0.3513(4)
H13_4 H 0.2907 0.3378 0.3861
H14_4 H 0.2687 0.3737 0.3303
C15_4 C 0.1651(2) 0.2640(4) 0.3498(3)
H15_4 H 0.1481 0.2984 0.3664
H16_4 H 0.1731 0.2369 0.3849
C16_4 C 0.1409(2) 0.2267(3) 0.3055(3)
H17_4 H 0.1179 0.2070 0.3275
H18_4 H 0.1297 0.2547 0.2732
C17_4 C 0.1919(2) 0.3446(4) 0.2798(3)
H19_4 H 0.1976 0.3847 0.3012
H20_4 H 0.1630 0.3444 0.2675
C18_4 C 0.2197(2) 0.3380(3) 0.2206(3)
H21_4 H 0.2097 0.3660 0.1874
H22_4 H 0.2477 0.3505 0.2309
C19_4 C 0.3175(2) 0.1332(3) 0.1510(3)
H23_4 H 0.3472 0.1279 0.1549
H24_4 H 0.3060 0.0939 0.1339
C20_4 C 0.2982(2) 0.1472(3) 0.2170(3)
H25_4 H 0.2971 0.1082 0.2419
H26_4 H 0.3149 0.1783 0.2396
C21_4 C 0.2957(2) 0.1613(3) 0.0454(3)
H27_4 H 0.2971 0.1953 0.0142
H28_4 H 0.3150 0.1280 0.0328
C22_4 C 0.2535(2) 0.1348(3) 0.0468(3)
H29_4 H 0.2458 0.1208 0.0047
H30_4 H 0.2528 0.0979 0.0745
C23_4 C 0.3462(2) 0.2286(3) 0.1029(3)
H31_4 H 0.3421 0.2598 0.0695
H32_4 H 0.3697 0.2022 0.0915
C24_4 C 0.3555(2) 0.2634(3) 0.1644(3)
H33_4 H 0.3641 0.2329 0.1964
H34_4 H 0.3777 0.2939 0.1581
O26_3 O 0.21250(15) 0.2145(2) 0.8070(2)
H113_3 H 0.1944 0.2377 0.8250
O27_3 O 0.33470(15) 0.3216(2) 0.7766(2)
H114_3 H 0.3433 0.3299 0.7395
N33_3 N 0.29943(19) 0.2099(3) 0.8224(3)
C73_4 C 0.2685(2) 0.1874(4) 0.8756(3)
H115_4 H 0.2809 0.1521 0.8986
H116_4 H 0.2644 0.2223 0.9052
C74_4 C 0.2285(2) 0.1673(4) 0.8513(4)
H117_4 H 0.2093 0.1622 0.8861
H118_4 H 0.2313 0.1263 0.8303
C75_4 C 0.3349(2) 0.2360(4) 0.8498(3)
H119_4 H 0.3519 0.2016 0.8664
H120_4 H 0.3269 0.2631 0.8849
C76_4 C 0.3591(2) 0.2733(3) 0.8055(3)
H121_4 H 0.3821 0.2930 0.8275
H122_4 H 0.3703 0.2453 0.7732
C77_4 C 0.3081(2) 0.1554(4) 0.7798(3)
H123_4 H 0.3024 0.1153 0.8012
H124_4 H 0.3370 0.1556 0.7675
C78_4 C 0.2803(2) 0.1620(3) 0.7206(3)
H125_4 H 0.2903 0.1340 0.6874
H126_4 H 0.2523 0.1495 0.7309
C79_4 C 0.1825(2) 0.3668(3) 0.6510(3)
H129_4 H 0.1528 0.3721 0.6549
H130_4 H 0.1940 0.4061 0.6339
C80_4 C 0.2018(2) 0.3528(3) 0.7170(3)
H131_4 H 0.2029 0.3918 0.7419
H132_4 H 0.1851 0.3217 0.7396
C81_4 C 0.2043(2) 0.3387(3) 0.5454(3)
H133_4 H 0.2029 0.3047 0.5142
H134_4 H 0.1850 0.3720 0.5328
C82_4 C 0.2465(2) 0.3652(3) 0.5468(3)
H135_4 H 0.2542 0.3792 0.5047
H136_4 H 0.2472 0.4021 0.5745
C83_4 C 0.1538(2) 0.2714(3) 0.6029(3)
H137_4 H 0.1579 0.2402 0.5695
H138_4 H 0.1303 0.2978 0.5915
C84_4 C 0.1445(2) 0.2366(3) 0.6644(3)
H139_4 H 0.1359 0.2671 0.6964
H140_4 H 0.1223 0.2061 0.6581
Cu11_3 Cu 0.26126(3) 0.23870(4) 0.14430(4)
Cu13_3 Cu 0.26953(2) 0.27948(4) 0.77219(4)
H147_6 H 0.699888 0.307183 0.230039
H148_6 H 0.8342 0.138373 0.198107
H149_6 H 0.716252 0.28961 0.965972
H150_6 H 0.84581 0.227761 0.829692
W2_2 W 0.5000 0.82184(2) 0.2500
Cu3_2 Cu 0.34867(2) 0.55735(4) 0.13274(4)
Cu4_2 Cu 0.39623(2) 0.67587(4) 0.12904(4)
Cu5_2 Cu 0.47991(2) 0.97040(4) 0.44578(4)
O7_2 O 0.37782(14) 0.6145(2) 0.1906(2)
O8_2 O 0.28593(14) 0.5638(2) 0.1868(2)
H5_2 H 0.2814 0.6020 0.1988
O9_4 O 0.40473(16) 0.4943(2) 0.0924(2)
H6_2 H 0.4276 0.5222 0.0815
O10_2 O 0.35162(14) 0.6331(2) 0.0815(2)
O11_2 O 0.45841(17) 0.6143(2) 0.0737(2)
H7_2 H 0.4419 0.6268 0.0908
O12_2 O 0.35632(16) 0.7633(2) 0.1483(2)
H8_2 H 0.3314 0.7521 0.1549
O14_2 O 0.45745(13) 0.8671(2) 0.4794(2)
H10_2 H 0.4676 0.8391 0.4547
N2_4 N 0.25881(15) 0.3082(2) 0.0810(2)
N3_2 N 0.31638(15) 0.5062(2) 0.0740(2)
N8_4 N 0.19662(16) 0.4757(3) 0.0857(3)
N9_2 N 0.43969(16) 0.7157(3) 0.1802(2)
N10_2 N 0.49853(15) 0.9238(3) 0.3651(2)
N11_2 N 0.45136(16) 0.7582(3) 0.3713(3)
N12_2 N 0.40617(17) 0.8914(3) 0.2401(3)
N15_4 N 0.35865(18) 0.4887(3) 0.2001(3)
N16_2 N 0.40737(18) 0.7263(3) 0.0484(3)
N17_2 N 0.41765(16) 0.9706(3) 0.4329(2)
C2_4 C 0.25760(19) 0.3492(3) 0.0426(3)
C3_4 C 0.29555(19) 0.4778(3) 0.0400(3)
C8_4 C 0.2165(2) 0.4574(3) 0.0469(3)
C9_2 C 0.4627(2) 0.7546(3) 0.2065(3)
C10_2 C 0.50059(19) 0.8916(3) 0.3189(3)
C11_2 C 0.46680(19) 0.7799(3) 0.3248(3)
C12_2 C 0.4387(2) 0.8653(3) 0.2452(3)
C25_2 C 0.3834(2) 0.5177(3) 0.2512(4)
H35_4 H 0.4040 0.4873 0.2658
H36_2 H 0.3656 0.5283 0.2866
C26_2 C 0.4040(2) 0.5761(3) 0.2278(4)
H37_2 H 0.4137 0.6010 0.2636
H38_2 H 0.4280 0.5640 0.2030
C27_4 C 0.3771(2) 0.4342(4) 0.1660(4)
H39_4 H 0.3582 0.4207 0.1330
H40_4 H 0.3802 0.3987 0.1952
C28_4 C 0.4182(2) 0.4485(4) 0.1371(4)
H41_4 H 0.4375 0.4665 0.1674
H42_4 H 0.4304 0.4112 0.1171
C29_4 C 0.3157(2) 0.4701(3) 0.2215(4)
H43_4 H 0.3029 0.4446 0.1886
H44_4 H 0.3181 0.4433 0.2588
C30_2 C 0.2890(2) 0.5237(3) 0.2360(4)
H45_2 H 0.2617 0.5080 0.2471
H46_2 H 0.2999 0.5466 0.2722
C32_2 C 0.3640(2) 0.6347(4) 0.0155(3)
H49_2 H 0.3861 0.6043 0.0083
C33_2 C 0.4500(2) 0.7176(4) 0.0315(3)
H51_2 H 0.4669 0.7324 0.0665
C34_2 C 0.4641(2) 0.6483(4) 0.0143(3)
H54_2 H 0.4928 0.6475 0.0010
C35_2 C 0.3993(2) 0.7942(4) 0.0631(3)
H55_2 H 0.3989 0.8188 0.0243
H56_2 H 0.4213 0.8107 0.0896
C36_2 C 0.3592(2) 0.8013(4) 0.0962(3)
H57_2 H 0.3557 0.8456 0.1088
H58_2 H 0.3370 0.7907 0.0673
H61_2 H 0.4103 0.9742 0.3344
C39_2 C 0.41293(19) 0.8663(3) 0.4719(3)
H63_2 H 0.4043 0.8231 0.4617
H64_2 H 0.4003 0.8778 0.5119
C40_2 C 0.3979(2) 0.9089(3) 0.4237(3)
H65_2 H 0.3681 0.9133 0.4270
H66_2 H 0.4045 0.8922 0.3822
H68_2 H 0.3809 0.9812 0.5115
N18_2 N 0.56031(16) 0.7157(3) 0.3198(2)
C43_2 C 0.5373(2) 0.7546(3) 0.2935(3)
N19_2 N 0.50147(15) 0.9238(3) 0.1349(2)
C44_2 C 0.49941(19) 0.8916(3) 0.1811(3)
N20_2 N 0.54864(16) 0.7582(3) 0.1287(3)
C45_2 C 0.53320(19) 0.7799(3) 0.1752(3)
N21_2 N 0.59383(17) 0.8914(3) 0.2599(3)
C46_2 C 0.5613(2) 0.8653(3) 0.2548(3)
Cu6_2 Cu 0.60377(2) 0.67587(4) 0.37096(4)
O16_2 O 0.53600(13) 0.9282(2) 0.6378(2)
H71_2 H 0.5273 0.9556 0.6128
C47_2 C 0.57957(19) 0.9352(3) 0.6423(3)
H73_2 H 0.5878 0.9220 0.6843
H74_2 H 0.5921 0.9056 0.6127
C48_2 C 0.5971(2) 0.9977(3) 0.6308(3)
H76_2 H 0.6270 0.9941 0.6301
C51_2 C 0.6016(2) 0.9911(3) 0.5139(3)
H81_2 H 0.6187 0.9574 0.5313
C52_2 C 0.56858(19) 0.9626(3) 0.4735(3)
H83_2 H 0.5619 0.9208 0.4907
H84_2 H 0.5802 0.9557 0.4318
O19_2 O 0.62218(14) 0.6145(2) 0.3094(2)
O20_2 O 0.71407(14) 0.5638(2) 0.3132(2)
H85_2 H 0.7186 0.6020 0.3012
O21_4 O 0.59527(16) 0.4943(2) 0.4076(2)
H86_2 H 0.5724 0.5222 0.4185
N23_4 N 0.64135(18) 0.4887(3) 0.2999(3)
C53_2 C 0.6166(2) 0.5177(3) 0.2488(4)
H87_4 H 0.5960 0.4873 0.2342
H88_2 H 0.6344 0.5283 0.2134
C54_2 C 0.5960(2) 0.5761(3) 0.2722(4)
H89_2 H 0.5863 0.6010 0.2364
H90_2 H 0.5720 0.5640 0.2970
C55_4 C 0.6229(2) 0.4342(4) 0.3340(4)
H91_4 H 0.6418 0.4207 0.3670
H92_4 H 0.6198 0.3987 0.3048
C56_4 C 0.5818(2) 0.4485(4) 0.3629(4)
H93_4 H 0.5625 0.4665 0.3326
H94_4 H 0.5696 0.4112 0.3829
C57_4 C 0.6843(2) 0.4701(3) 0.2785(4)
H95_4 H 0.6971 0.4446 0.3114
H96_4 H 0.6819 0.4433 0.2412
C58_2 C 0.7110(2) 0.5237(3) 0.2640(4)
H97_2 H 0.7383 0.5080 0.2529
H98_2 H 0.7001 0.5466 0.2278
O22_2 O 0.64838(14) 0.6331(2) 0.4185(2)
O23_2 O 0.54159(17) 0.6143(2) 0.4263(2)
H99_2 H 0.5581 0.6268 0.4092
O24_2 O 0.64368(16) 0.7633(2) 0.3517(2)
H100_2 H 0.6686 0.7521 0.3451
N24_2 N 0.59263(18) 0.7263(3) 0.4516(3)
C59_2 C 0.6223(2) 0.6985(4) 0.5003(3)
H101_2 H 0.6461 0.7264 0.5039
H102_2 H 0.6086 0.6975 0.5411
C60_2 C 0.6360(2) 0.6347(4) 0.4845(3)
H103_2 H 0.6139 0.6043 0.4917
H104_2 H 0.6592 0.6229 0.5111
C61_2 C 0.5500(2) 0.7176(4) 0.4685(3)
H105_2 H 0.5331 0.7324 0.4335
H106_2 H 0.5441 0.7451 0.5043
C62_2 C 0.5359(2) 0.6483(4) 0.4857(3)
H107_2 H 0.5530 0.6302 0.5189
H108_2 H 0.5072 0.6475 0.4990
C63_2 C 0.6007(2) 0.7942(4) 0.4369(3)
H109_2 H 0.6011 0.8188 0.4757
H110_2 H 0.5787 0.8107 0.4104
C64_2 C 0.6408(2) 0.8013(4) 0.4038(3)
H111_2 H 0.6443 0.8456 0.3912
H112_2 H 0.6630 0.7907 0.4327
Cu8_2 Cu 0.65133(2) 0.55735(4) 0.36726(4)
N25_2 N 0.68362(15) 0.5062(2) 0.4260(2)
C65_4 C 0.70445(19) 0.4778(3) 0.4600(3)
W3_4 W 0.742090(8) 0.423730(12) 0.525790(11)
N26_4 N 0.74245(16) 0.3385(2) 0.6581(2)
C66_4 C 0.7423(2) 0.3685(3) 0.6147(3)
N27_4 N 0.74119(15) 0.3082(2) 0.4190(2)
C67_4 C 0.74240(19) 0.3492(3) 0.4574(3)
N28_2 N 0.79730(16) 0.5352(3) 0.5976(2)
C68_4 C 0.77954(19) 0.4946(3) 0.5742(3)
N29_2 N 0.67870(16) 0.5151(2) 0.6101(2)
C69_4 C 0.70208(18) 0.4803(3) 0.5828(3)
N30_4 N 0.65121(19) 0.3490(3) 0.5262(3)
C70_4 C 0.6831(2) 0.3751(3) 0.5288(3)
N31_4 N 0.83029(19) 0.3546(3) 0.5510(3)
C71_4 C 0.7998(2) 0.3795(4) 0.5412(3)
N32_4 N 0.80338(16) 0.4757(3) 0.4143(3)
C72_4 C 0.7835(2) 0.4574(3) 0.4531(3)
H147_7 H 0.800112 0.192817 0.730039
H148_7 H 0.6658 0.361627 0.698107
H149_7 H 0.783748 0.21039 0.465972
H150_7 H 0.65419 0.272239 0.329692
W1_4 W 0.257910(8) 0.423730(12) 0.974210(11)
N1_4 N 0.25755(16) 0.3385(2) 0.8419(2)
N4_2 N 0.20270(16) 0.5352(3) 0.9024(2)
N5_2 N 0.32130(16) 0.5151(2) 0.8899(2)
N6_4 N 0.34879(19) 0.3490(3) 0.9738(3)
N7_4 N 0.16971(19) 0.3546(3) 0.9490(3)
C1_4 C 0.2577(2) 0.3685(3) 0.8853(3)
C4_4 C 0.22046(19) 0.4946(3) 0.9258(3)
C5_4 C 0.29792(18) 0.4803(3) 0.9172(3)
C6_4 C 0.3169(2) 0.3751(3) 0.9712(3)
C7_4 C 0.2002(2) 0.3795(4) 0.9588(3)
C31_2 C 0.3777(2) 0.6985(4) 0.9997(3)
H47_2 H 0.3539 0.7264 0.9961
H48_2 H 0.3914 0.6975 0.9589
H50_2 H 0.3408 0.6229 0.9889
H52_2 H 0.4559 0.7451 0.9957
H53_2 H 0.4470 0.6302 0.9811
H146_3 H 0.532911 0.859042 0.976766
H146_4 H 0.467089 0.859042 0.523234
H149_8 H 0.216252 0.21039 0.0340279
H150_8 H 0.34581 0.272239 0.170308
H147_8 H 0.199888 0.192817 0.769961
H148_8 H 0.3342 0.361627 0.801893
O33_2 O 0.03353(13) 0.4943(2) 0.0337(2)
H146_5 H 0.0329107 0.640958 0.0232342
W2_3 W -0.0000 0.67816(2) 0.7500
C10_3 C 0.00059(19) 0.6084(3) 0.6811(3)
N18_3 N 0.06031(16) 0.7843(3) 0.6802(2)
C43_3 C 0.0373(2) 0.7454(3) 0.7065(3)
N19_3 N 0.00147(15) 0.5762(3) 0.8651(2)
N20_3 N 0.04864(16) 0.7418(3) 0.8713(3)
C45_3 C 0.03320(19) 0.7201(3) 0.8248(3)
N21_3 N 0.09383(17) 0.6086(3) 0.7401(3)
C46_3 C 0.0613(2) 0.6347(3) 0.7452(3)
Cu6_3 Cu 0.10377(2) 0.82413(4) 0.62904(4)
Cu7_2 Cu 0.02009(2) 0.52960(4) 0.94578(4)
O16_3 O 0.03600(13) 0.5718(2) 0.3622(2)
H71_3 H 0.0273 0.5444 0.3872
O17_2 O 0.04255(13) 0.3671(2) 0.4794(2)
H72_2 H 0.0324 0.3391 0.4547
O18_2 O 0.03353(13) 0.5057(2) 0.5337(2)
N22_2 N 0.08235(16) 0.4706(3) 0.4329(2)
C47_3 C 0.07957(19) 0.5648(3) 0.3577(3)
H73_3 H 0.0878 0.5780 0.3157
H74_3 H 0.0921 0.5944 0.3873
C48_3 C 0.0971(2) 0.5023(3) 0.3692(3)
H75_3 H 0.0897 0.4742 0.3344
H76_3 H 0.1270 0.5059 0.3699
C49_3 C 0.08707(19) 0.3663(3) 0.4719(3)
H77_3 H 0.0957 0.3231 0.4617
H78_3 H 0.0997 0.3778 0.5119
C50_3 C 0.1021(2) 0.4089(3) 0.4237(3)
H79_3 H 0.1319 0.4133 0.4270
H80_3 H 0.0955 0.3922 0.3822
C51_3 C 0.1016(2) 0.5089(3) 0.4861(3)
H81_3 H 0.1187 0.5426 0.4687
H82_3 H 0.1191 0.4812 0.5115
C52_3 C 0.06858(19) 0.5374(3) 0.5265(3)
H83_3 H 0.0619 0.5792 0.5093
H84_3 H 0.0802 0.5443 0.5682
O19_3 O 0.12218(14) 0.8855(2) 0.6906(2)
O20_3 O 0.21407(14) 0.9362(2) 0.6868(2)
H85_3 H 0.2186 0.8980 0.6988
H86_3 H 0.0724 0.9778 0.5815
C53_3 C 0.1166(2) 0.9823(3) 0.7512(4)
H88_3 H 0.1344 0.9717 0.7866
C54_3 C 0.0960(2) 0.9239(3) 0.7278(4)
H89_3 H 0.0863 0.8990 0.7636
H90_3 H 0.0720 0.9360 0.7030
C58_3 C 0.2110(2) 0.9763(3) 0.7360(4)
H97_3 H 0.2383 0.9920 0.7471
H98_3 H 0.2001 0.9534 0.7722
O22_3 O 0.14838(14) 0.8669(2) 0.5815(2)
O23_3 O 0.04159(17) 0.8857(2) 0.5737(2)
H99_3 H 0.0581 0.8732 0.5908
O24_3 O 0.14368(16) 0.7367(2) 0.6483(2)
H100_3 H 0.1686 0.7479 0.6549
N24_3 N 0.09263(18) 0.7737(3) 0.5484(3)
C59_3 C 0.1223(2) 0.8015(4) 0.4997(3)
H101_3 H 0.1461 0.7736 0.4961
H102_3 H 0.1086 0.8025 0.4589
C60_3 C 0.1360(2) 0.8653(4) 0.5155(3)
H103_3 H 0.1139 0.8957 0.5083
H104_3 H 0.1592 0.8771 0.4889
C61_3 C 0.0500(2) 0.7824(4) 0.5315(3)
H105_3 H 0.0331 0.7676 0.5665
H106_3 H 0.0441 0.7549 0.4957
C62_3 C 0.0359(2) 0.8517(4) 0.5143(3)
H107_3 H 0.0530 0.8698 0.4811
H108_3 H 0.0072 0.8525 0.5010
C63_3 C 0.1007(2) 0.7058(4) 0.5631(3)
H109_3 H 0.1011 0.6812 0.5243
H110_3 H 0.0787 0.6893 0.5896
C64_3 C 0.1408(2) 0.6987(4) 0.5962(3)
H111_3 H 0.1443 0.6544 0.6088
H112_3 H 0.1630 0.7093 0.5673
Cu8_3 Cu 0.15133(2) 0.94265(4) 0.63274(4)
N25_3 N 0.18362(15) 0.9938(2) 0.5740(2)
N28_3 N 0.29730(16) 0.9648(3) 0.4024(2)
N29_3 N 0.17870(16) 0.9849(2) 0.3899(2)
Cu12_2 Cu 0.02009(2) 0.47040(4) 0.44578(4)
O31_2 O 0.04255(13) 0.6329(2) 0.9794(2)
N35_2 N 0.08235(16) 0.5294(3) 0.9329(2)
H141_2 H 0.0324 0.6609 0.9547
H64_3 H 0.0997 0.6222 0.0119
H68_3 H 0.1191 0.5188 0.0115
C42_3 C 0.06858(19) 0.4626(3) 0.0265(3)
H69_3 H 0.0619 0.4208 0.0093
H70_3 H 0.0802 0.4557 0.0682
O13_3 O 0.03600(13) 0.4282(2) 0.8622(2)
H9_3 H 0.0273 0.4556 0.8872
C37_3 C 0.07957(19) 0.4352(3) 0.8577(3)
H59_3 H 0.0878 0.4220 0.8157
H60_3 H 0.0921 0.4056 0.8873
C38_3 C 0.0971(2) 0.4977(3) 0.8692(3)
H61_3 H 0.0897 0.5258 0.8344
H62_3 H 0.1270 0.4941 0.8699
C39_3 C 0.08707(19) 0.6337(3) 0.9719(3)
H63_3 H 0.0957 0.6769 0.9617
C40_3 C 0.1021(2) 0.5911(3) 0.9237(3)
H65_3 H 0.1319 0.5867 0.9270
H66_3 H 0.0955 0.6078 0.8822
C41_3 C 0.1016(2) 0.4911(3) 0.9861(3)
H67_3 H 0.1187 0.4574 0.9687
W2_4 W 0.0000 0.32184(2) 0.2500
Cu3_3 Cu 0.15133(2) 0.05735(4) 0.13274(4)
Cu4_3 Cu 0.10377(2) 0.17587(4) 0.12904(4)
O7_3 O 0.12218(14) 0.1145(2) 0.1906(2)
O8_3 O 0.21407(14) 0.0638(2) 0.1868(2)
H5_3 H 0.2186 0.1020 0.1988
H6_3 H 0.0724 0.0222 0.0815
O10_3 O 0.14838(14) 0.1331(2) 0.0815(2)
O11_3 O 0.04159(17) 0.1143(2) 0.0737(2)
H7_3 H 0.0581 0.1268 0.0908
O12_3 O 0.14368(16) 0.2633(2) 0.1483(2)
H8_3 H 0.1686 0.2521 0.1549
N3_3 N 0.18362(15) 0.0062(2) 0.0740(2)
N9_3 N 0.06031(16) 0.2157(3) 0.1802(2)
N10_3 N 0.00147(15) 0.4238(3) 0.3651(2)
N11_3 N 0.04864(16) 0.2582(3) 0.3713(3)
N12_3 N 0.09383(17) 0.3914(3) 0.2401(3)
N16_3 N 0.09263(18) 0.2263(3) 0.0484(3)
C9_3 C 0.0373(2) 0.2546(3) 0.2065(3)
C11_3 C 0.03320(19) 0.2799(3) 0.3248(3)
C12_3 C 0.0613(2) 0.3653(3) 0.2452(3)
C25_3 C 0.1166(2) 0.0177(3) 0.2512(4)
H36_3 H 0.1344 0.0283 0.2866
C26_3 C 0.0960(2) 0.0761(3) 0.2278(4)
H37_3 H 0.0863 0.1010 0.2636
H38_3 H 0.0720 0.0640 0.2030
C30_3 C 0.2110(2) 0.0237(3) 0.2360(4)
H45_3 H 0.2383 0.0080 0.2471
H46_3 H 0.2001 0.0466 0.2722
C32_3 C 0.1360(2) 0.1347(4) 0.0155(3)
H49_3 H 0.1139 0.1043 0.0083
C33_3 C 0.0500(2) 0.2176(4) 0.0315(3)
H51_3 H 0.0331 0.2324 0.0665
C34_3 C 0.0359(2) 0.1483(4) 0.0143(3)
H54_3 H 0.0072 0.1475 0.0010
C35_3 C 0.1007(2) 0.2942(4) 0.0631(3)
H55_3 H 0.1011 0.3188 0.0243
H56_3 H 0.0787 0.3107 0.0896
C36_3 C 0.1408(2) 0.3013(4) 0.0962(3)
H57_3 H 0.1443 0.3456 0.1088
H58_3 H 0.1630 0.2907 0.0673
C44_3 C 0.00059(19) 0.3916(3) 0.1811(3)
N4_3 N 0.29730(16) 0.0352(3) 0.9024(2)
N5_3 N 0.17870(16) 0.0151(2) 0.8899(2)
C31_3 C 0.1223(2) 0.1985(4) 0.9997(3)
H47_3 H 0.1461 0.2264 0.9961
H48_3 H 0.1086 0.1975 0.9589
H50_3 H 0.1592 0.1229 0.9889
H52_3 H 0.0441 0.2451 0.9957
H53_3 H 0.0530 0.1302 0.9811
H146_6 H 0.0329107 0.359042 0.523234
N4_4 N 0.70270(16) 0.9648(3) 0.0976(2)
N5_4 N 0.82130(16) 0.9849(2) 0.1101(2)
C31_4 C 0.8777(2) 0.8015(4) 0.0003(3)
H47_4 H 0.8539 0.7736 0.0039
H48_4 H 0.8914 0.8025 0.0411
H50_4 H 0.8408 0.8771 0.0111
H52_4 H 0.9559 0.7549 0.0043
H53_4 H 0.9470 0.8698 0.0189
W2_5 W 1.0000 0.67816(2) 0.7500
Cu3_4 Cu 0.84867(2) 0.94265(4) 0.86726(4)
Cu4_4 Cu 0.89623(2) 0.82413(4) 0.87096(4)
Cu5_3 Cu 0.97991(2) 0.52960(4) 0.55422(4)
O7_4 O 0.87782(14) 0.8855(2) 0.8094(2)
O8_4 O 0.78593(14) 0.9362(2) 0.8132(2)
H5_4 H 0.7814 0.8980 0.8012
H6_4 H 0.9276 0.9778 0.9185
O10_4 O 0.85162(14) 0.8669(2) 0.9185(2)
O11_4 O 0.95841(17) 0.8857(2) 0.9263(2)
H7_4 H 0.9419 0.8732 0.9092
O12_4 O 0.85632(16) 0.7367(2) 0.8517(2)
H8_4 H 0.8314 0.7479 0.8451
O13_4 O 0.96400(13) 0.4282(2) 0.6378(2)
H9_4 H 0.9727 0.4556 0.6128
O14_3 O 0.95745(13) 0.6329(2) 0.5206(2)
H10_3 H 0.9676 0.6609 0.5453
O15_2 O 0.96647(13) 0.4943(2) 0.4663(2)
N3_4 N 0.81638(15) 0.9938(2) 0.9260(2)
N9_4 N 0.93969(16) 0.7843(3) 0.8198(2)
N10_4 N 0.99853(15) 0.5762(3) 0.6349(2)
N11_4 N 0.95136(16) 0.7418(3) 0.6287(3)
N12_4 N 0.90617(17) 0.6086(3) 0.7599(3)
N16_4 N 0.90737(18) 0.7737(3) 0.9516(3)
N17_3 N 0.91765(16) 0.5294(3) 0.5671(2)
C9_4 C 0.9627(2) 0.7454(3) 0.7935(3)
C11_4 C 0.96680(19) 0.7201(3) 0.6752(3)
C12_4 C 0.9387(2) 0.6347(3) 0.7548(3)
C25_4 C 0.8834(2) 0.9823(3) 0.7488(4)
H36_4 H 0.8656 0.9717 0.7134
C26_4 C 0.9040(2) 0.9239(3) 0.7722(4)
H37_4 H 0.9137 0.8990 0.7364
H38_4 H 0.9280 0.9360 0.7970
C30_4 C 0.7890(2) 0.9763(3) 0.7640(4)
H45_4 H 0.7617 0.9920 0.7529
H46_4 H 0.7999 0.9534 0.7278
C32_4 C 0.8640(2) 0.8653(4) 0.9845(3)
H49_4 H 0.8861 0.8957 0.9917
C33_4 C 0.9500(2) 0.7824(4) 0.9685(3)
H51_4 H 0.9669 0.7676 0.9335
C34_4 C 0.9641(2) 0.8517(4) 0.9857(3)
H54_4 H 0.9928 0.8525 0.9990
C35_4 C 0.8993(2) 0.7058(4) 0.9369(3)
H55_4 H 0.8989 0.6812 0.9757
H56_4 H 0.9213 0.6893 0.9104
C36_4 C 0.8592(2) 0.6987(4) 0.9038(3)
H57_4 H 0.8557 0.6544 0.8912
H58_4 H 0.8370 0.7093 0.9327
C37_4 C 0.92043(19) 0.4352(3) 0.6423(3)
H59_4 H 0.9122 0.4220 0.6843
H60_4 H 0.9079 0.4056 0.6127
C38_4 C 0.9029(2) 0.4977(3) 0.6308(3)
H61_4 H 0.9103 0.5258 0.6656
H62_4 H 0.8730 0.4941 0.6301
C39_4 C 0.91293(19) 0.6337(3) 0.5281(3)
H63_4 H 0.9043 0.6769 0.5383
H64_4 H 0.9003 0.6222 0.4881
C40_4 C 0.8979(2) 0.5911(3) 0.5763(3)
H65_4 H 0.8681 0.5867 0.5730
H66_4 H 0.9045 0.6078 0.6178
C41_4 C 0.8984(2) 0.4911(3) 0.5139(3)
H67_4 H 0.8813 0.4574 0.5313
H68_4 H 0.8809 0.5188 0.4885
C42_4 C 0.93142(19) 0.4626(3) 0.4735(3)
H69_4 H 0.9381 0.4208 0.4907
H70_4 H 0.9198 0.4557 0.4318
C44_4 C 0.99941(19) 0.6084(3) 0.8189(3)
O32_2 O 0.96647(13) 0.5057(2) 0.9663(2)
O16_4 O 0.96400(13) 0.5718(2) 0.1378(2)
H71_4 H 0.9727 0.5444 0.1128
O17_3 O 0.95745(13) 0.3671(2) 0.0206(2)
H72_3 H 0.9676 0.3391 0.0453
N22_3 N 0.91765(16) 0.4706(3) 0.0671(2)
C47_4 C 0.92043(19) 0.5648(3) 0.1423(3)
H73_4 H 0.9122 0.5780 0.1843
H74_4 H 0.9079 0.5944 0.1127
C48_4 C 0.9029(2) 0.5023(3) 0.1308(3)
H75_4 H 0.9103 0.4742 0.1656
H76_4 H 0.8730 0.5059 0.1301
C49_4 C 0.91293(19) 0.3663(3) 0.0281(3)
H77_4 H 0.9043 0.3231 0.0383
C50_4 C 0.8979(2) 0.4089(3) 0.0763(3)
H79_4 H 0.8681 0.4133 0.0730
H80_4 H 0.9045 0.3922 0.1178
C51_4 C 0.8984(2) 0.5089(3) 0.0139(3)
H81_4 H 0.8813 0.5426 0.0313
Cu12_3 Cu 0.97991(2) 0.47040(4) 0.05422(4)
H78_4 H 0.9003 0.3778 0.9881
H82_4 H 0.8809 0.4812 0.9885
C52_4 C 0.93142(19) 0.5374(3) 0.9735(3)
H83_4 H 0.9381 0.5792 0.9907
H84_4 H 0.9198 0.5443 0.9318
H146_7 H 0.967089 0.640958 0.476766
W2_6 W 1.0000 0.32184(2) 0.2500
C10_4 C 0.99941(19) 0.3916(3) 0.3189(3)
N18_4 N 0.93969(16) 0.2157(3) 0.3198(2)
C43_4 C 0.9627(2) 0.2546(3) 0.2935(3)
N19_4 N 0.99853(15) 0.4238(3) 0.1349(2)
N20_4 N 0.95136(16) 0.2582(3) 0.1287(3)
C45_4 C 0.96680(19) 0.2799(3) 0.1752(3)
N21_4 N 0.90617(17) 0.3914(3) 0.2599(3)
C46_4 C 0.9387(2) 0.3653(3) 0.2548(3)
Cu6_4 Cu 0.89623(2) 0.17587(4) 0.37096(4)
O19_4 O 0.87782(14) 0.1145(2) 0.3094(2)
O20_4 O 0.78593(14) 0.0638(2) 0.3132(2)
H85_4 H 0.7814 0.1020 0.3012
H86_4 H 0.9276 0.0222 0.4185
C53_4 C 0.8834(2) 0.0177(3) 0.2488(4)
H88_4 H 0.8656 0.0283 0.2134
C54_4 C 0.9040(2) 0.0761(3) 0.2722(4)
H89_4 H 0.9137 0.1010 0.2364
H90_4 H 0.9280 0.0640 0.2970
C58_4 C 0.7890(2) 0.0237(3) 0.2640(4)
H97_4 H 0.7617 0.0080 0.2529
H98_4 H 0.7999 0.0466 0.2278
O22_4 O 0.85162(14) 0.1331(2) 0.4185(2)
O23_4 O 0.95841(17) 0.1143(2) 0.4263(2)
H99_4 H 0.9419 0.1268 0.4092
O24_4 O 0.85632(16) 0.2633(2) 0.3517(2)
H100_4 H 0.8314 0.2521 0.3451
N24_4 N 0.90737(18) 0.2263(3) 0.4516(3)
C59_4 C 0.8777(2) 0.1985(4) 0.5003(3)
H101_4 H 0.8539 0.2264 0.5039
H102_4 H 0.8914 0.1975 0.5411
C60_4 C 0.8640(2) 0.1347(4) 0.4845(3)
H103_4 H 0.8861 0.1043 0.4917
H104_4 H 0.8408 0.1229 0.5111
C61_4 C 0.9500(2) 0.2176(4) 0.4685(3)
H105_4 H 0.9669 0.2324 0.4335
H106_4 H 0.9559 0.2451 0.5043
C62_4 C 0.9641(2) 0.1483(4) 0.4857(3)
H107_4 H 0.9470 0.1302 0.5189
H108_4 H 0.9928 0.1475 0.4990
C63_4 C 0.8993(2) 0.2942(4) 0.4369(3)
H109_4 H 0.8989 0.3188 0.4757
H110_4 H 0.9213 0.3107 0.4104
C64_4 C 0.8592(2) 0.3013(4) 0.4038(3)
H111_4 H 0.8557 0.3456 0.3912
H112_4 H 0.8370 0.2907 0.4327
Cu8_4 Cu 0.84867(2) 0.05735(4) 0.36726(4)
N25_4 N 0.81638(15) 0.0062(2) 0.4260(2)
N28_4 N 0.70270(16) 0.0352(3) 0.5976(2)
N29_4 N 0.82130(16) 0.0151(2) 0.6101(2)
H146_8 H 0.967089 0.359042 0.976766
loop_
_geom_bond_atom_site_label_1
_geom_bond_atom_site_label_2
_geom_bond_site_symmetry_1
_geom_bond_site_symmetry_2
O16 H71 1_555 1_555
C47 O16 1_555 1_555
H73 C47 1_555 1_555
H74 C47 1_555 1_555
C48 C47 1_555 1_555
H76 C48 1_555 1_555
H81 C51 1_555 1_555
H101 C59 1_555 1_555
H102 C59 1_555 1_555
N26 C66 1_555 1_555
C66 W3 1_555 1_555
N28 C68 1_555 1_555
C68 W3 1_555 1_555
N29 C69 1_555 1_555
C69 W3 1_555 1_555
N30 C70 1_555 1_555
C70 W3 1_555 1_555
N31 C71 1_555 1_555
C71 W3 1_555 1_555
Cu9 N26 1_555 1_555
O34 Cu9 1_555 1_555
O35 Cu9 1_555 1_555
O36 Cu9 1_555 1_555
O37 Cu9 1_555 1_555
N36 Cu9 1_555 1_555
H142 O35 1_555 1_555
H143 O36 1_555 1_555
O35 H147 1_555 1_555
O36 H148 1_555 1_555
W1 C1 1_555 1_555
W2 C9 1_555 1_555
Cu1 O1 1_555 1_555
Cu2 N2 1_555 1_555
Cu3 O7 1_555 1_555
Cu4 O7 1_555 1_555
Cu5 O14 1_555 1_555
O1 C18 1_555 1_555
O2 Cu1 1_555 1_555
H1 O2 1_555 1_555
O3 Cu1 1_555 1_555
H2 O3 1_555 1_555
O4 Cu1 1_555 1_555
O5 H3 1_555 1_555
O6 H4 1_555 1_555
O7 C26 1_555 1_555
O8 Cu3 1_555 1_555
H5 O8 1_555 1_555
O9 Cu3 1_555 1_555
H6 O9 1_555 1_555
O10 Cu3 1_555 1_555
O11 H7 1_555 1_555
O12 Cu4 1_555 1_555
H8 O12 1_555 1_555
O14 H10 1_555 1_555
N1 Cu1 1_555 1_555
N2 C2 1_555 1_555
N3 Cu3 1_555 1_555
N4 C4 1_555 1_555
N5 C5 1_555 1_555
N6 C6 1_555 1_555
N7 C7 1_555 1_555
N8 C8 1_555 1_555
N9 Cu4 1_555 1_555
N10 Cu5 1_555 1_555
N11 C11 1_555 1_555
N12 C12 1_555 1_555
N13 Cu1 1_555 1_555
N14 C19 1_555 1_555
N15 Cu3 1_555 1_555
N16 Cu4 1_555 1_555
N17 Cu5 1_555 1_555
C1 N1 1_555 1_555
C2 W1 1_555 1_555
C3 W1 1_555 1_555
C4 W1 1_555 1_555
C5 W1 1_555 1_555
C6 W1 1_555 1_555
C7 W1 1_555 1_555
C8 W1 1_555 1_555
C9 N9 1_555 1_555
C10 W2 1_555 1_555
C11 W2 1_555 1_555
C12 W2 1_555 1_555
C13 N13 1_555 1_555
H11 C13 1_555 1_555
H12 C13 1_555 1_555
C14 O2 1_555 1_555
H13 C14 1_555 1_555
H14 C14 1_555 1_555
C15 N13 1_555 1_555
H15 C15 1_555 1_555
H16 C15 1_555 1_555
C16 O3 1_555 1_555
H17 C16 1_555 1_555
H18 C16 1_555 1_555
C17 N13 1_555 1_555
H19 C17 1_555 1_555
H20 C17 1_555 1_555
C18 C17 1_555 1_555
H21 C18 1_555 1_555
H22 C18 1_555 1_555
C19 H23 1_555 1_555
H24 C19 1_555 1_555
C20 O4 1_555 1_555
H25 C20 1_555 1_555
H26 C20 1_555 1_555
C21 N14 1_555 1_555
H27 C21 1_555 1_555
H28 C21 1_555 1_555
C22 O5 1_555 1_555
H29 C22 1_555 1_555
H30 C22 1_555 1_555
C23 N14 1_555 1_555
H31 C23 1_555 1_555
H32 C23 1_555 1_555
C24 O6 1_555 1_555
H33 C24 1_555 1_555
H34 C24 1_555 1_555
C25 N15 1_555 1_555
H35 C25 1_555 1_555
H36 C25 1_555 1_555
C26 C25 1_555 1_555
H37 C26 1_555 1_555
H38 C26 1_555 1_555
C27 N15 1_555 1_555
H39 C27 1_555 1_555
H40 C27 1_555 1_555
C28 O9 1_555 1_555
H41 C28 1_555 1_555
H42 C28 1_555 1_555
C29 N15 1_555 1_555
H43 C29 1_555 1_555
H44 C29 1_555 1_555
C30 O8 1_555 1_555
H45 C30 1_555 1_555
H46 C30 1_555 1_555
C31 N16 1_555 1_555
H47 C31 1_555 1_555
H48 C31 1_555 1_555
C32 O10 1_555 1_555
H49 C32 1_555 1_555
H50 C32 1_555 1_555
C33 N16 1_555 1_555
H51 C33 1_555 1_555
H52 C33 1_555 1_555
C34 O11 1_555 1_555
H53 C34 1_555 1_555
H54 C34 1_555 1_555
C35 N16 1_555 1_555
H55 C35 1_555 1_555
H56 C35 1_555 1_555
C36 O12 1_555 1_555
H57 C36 1_555 1_555
H58 C36 1_555 1_555
C39 O14 1_555 1_555
H63 C39 1_555 1_555
C40 N17 1_555 1_555
H65 C40 1_555 1_555
H66 C40 1_555 1_555
N18 C43 1_555 1_555
C43 W2 1_555 1_555
N19 C44 1_555 1_555
C44 W2 1_555 1_555
N20 C45 1_555 1_555
C45 W2 1_555 1_555
N21 C46 1_555 1_555
C46 W2 1_555 1_555
Cu6 N18 1_555 1_555
Cu7 N19 1_555 1_555
O18 Cu5 1_555 1_555
C52 O18 1_555 1_555
H83 C52 1_555 1_555
H84 C52 1_555 1_555
O19 Cu6 1_555 1_555
O20 H85 1_555 1_555
O21 H86 1_555 1_555
N23 C53 1_555 1_555
C53 H87 1_555 1_555
H88 C53 1_555 1_555
C54 O19 1_555 1_555
H89 C54 1_555 1_555
H90 C54 1_555 1_555
C55 N23 1_555 1_555
H91 C55 1_555 1_555
H92 C55 1_555 1_555
C56 O21 1_555 1_555
H93 C56 1_555 1_555
H94 C56 1_555 1_555
C57 N23 1_555 1_555
H95 C57 1_555 1_555
H96 C57 1_555 1_555
C58 O20 1_555 1_555
H97 C58 1_555 1_555
H98 C58 1_555 1_555
O22 Cu6 1_555 1_555
O23 H99 1_555 1_555
O24 Cu6 1_555 1_555
H100 O24 1_555 1_555
N24 Cu6 1_555 1_555
C60 O22 1_555 1_555
H103 C60 1_555 1_555
C61 N24 1_555 1_555
H105 C61 1_555 1_555
C62 O23 1_555 1_555
H108 C62 1_555 1_555
C63 N24 1_555 1_555
H109 C63 1_555 1_555
H110 C63 1_555 1_555
C64 O24 1_555 1_555
H111 C64 1_555 1_555
H112 C64 1_555 1_555
Cu8 O19 1_555 1_555
N25 Cu8 1_555 1_555
C65 N25 1_555 1_555
N27 C67 1_555 1_555
N32 C72 1_555 1_555
Cu10 N27 1_555 1_555
O25 Cu2 1_555 1_555
O26 H113 1_555 1_555
O27 H114 1_555 1_555
N33 C73 1_555 1_555
C73 H115 1_555 1_555
H116 C73 1_555 1_555
C74 O26 1_555 1_555
H117 C74 1_555 1_555
H118 C74 1_555 1_555
C75 N33 1_555 1_555
H119 C75 1_555 1_555
H120 C75 1_555 1_555
C76 O27 1_555 1_555
H121 C76 1_555 1_555
H122 C76 1_555 1_555
C77 N33 1_555 1_555
H123 C77 1_555 1_555
H124 C77 1_555 1_555
C78 O25 1_555 1_555
H125 C78 1_555 1_555
H126 C78 1_555 1_555
O28 Cu2 1_555 1_555
O29 Cu2 1_555 1_555
H127 O29 1_555 1_555
O30 Cu2 1_555 1_555
H128 O30 1_555 1_555
N34 Cu2 1_555 1_555
C79 N34 1_555 1_555
H129 C79 1_555 1_555
H130 C79 1_555 1_555
C80 O28 1_555 1_555
H131 C80 1_555 1_555
H132 C80 1_555 1_555
C81 N34 1_555 1_555
H133 C81 1_555 1_555
H134 C81 1_555 1_555
C82 O29 1_555 1_555
H135 C82 1_555 1_555
H136 C82 1_555 1_555
C83 N34 1_555 1_555
H137 C83 1_555 1_555
H138 C83 1_555 1_555
C84 O30 1_555 1_555
H139 C84 1_555 1_555
H140 C84 1_555 1_555
Cu11 O1 1_555 1_555
O31 Cu7 1_555 1_555
O32 Cu7 1_555 1_555
N35 Cu7 1_555 1_555
O38 Cu10 1_555 1_555
O39 Cu10 1_555 1_555
O40 Cu10 1_555 1_555
O41 Cu10 1_555 1_555
N37 Cu10 1_555 1_555
Cu13 O25 1_555 1_555
H141 O31 1_555 1_555
H144 O40 1_555 1_555
H145 O41 1_555 1_555
Cu4 O10 1_555 1_555
O4 Cu11 1_555 1_555
O5 Cu11 1_555 1_555
O6 Cu11 1_555 1_555
N3 C3 1_555 1_555
N10 C10 1_555 1_555
N14 Cu11 1_555 1_555
C13 C14 1_555 1_555
C15 C16 1_555 1_555
C19 C20 1_555 1_555
C21 C22 1_555 1_555
C23 C24 1_555 1_555
C27 C28 1_555 1_555
C29 C30 1_555 1_555
C31 C32 1_555 1_555
C33 C34 1_555 1_555
C35 C36 1_555 1_555
C39 C40 1_555 1_555
O20 Cu8 1_555 1_555
O21 Cu8 1_555 1_555
N23 Cu8 1_555 1_555
C53 C54 1_555 1_555
C55 C56 1_555 1_555
C57 C58 1_555 1_555
O22 Cu8 1_555 1_555
C61 C62 1_555 1_555
C63 C64 1_555 1_555
O26 Cu13 1_555 1_555
O27 Cu13 1_555 1_555
N33 Cu13 1_555 1_555
C73 C74 1_555 1_555
C75 C76 1_555 1_555
C77 C78 1_555 1_555
O28 Cu13 1_555 1_555
C79 C80 1_555 1_555
C81 C82 1_555 1_555
C83 C84 1_555 1_555
O31 H146 1_555 1_555
O40 H149 1_555 1_555
O41 H150 1_555 1_555
O13 H9 1_555 1_555
C37 O13 1_555 1_555
H59 C37 1_555 1_555
H60 C37 1_555 1_555
H62 C38 1_555 1_555
H67 C41 1_555 1_555
C42 O32 1_555 1_555
H69 C42 1_555 1_555
H70 C42 1_555 1_555
C49 O31 1_555 1_555
H77 C49 1_555 1_555
H78 C49 1_555 1_555
C50 N35 1_555 1_555
H79 C50 1_555 1_555
H80 C50 1_555 1_555
C37 C38 1_555 1_555
C41 C42 1_555 1_555
C49 C50 1_555 1_555
Cu11 N2_2 1_555 1_555
N2_2 C2_2 1_555 1_555
N8_2 C8_2 1_555 1_555
C27_2 N15_2 1_555 1_555
H39_2 C27_2 1_555 1_555
H40_2 C27_2 1_555 1_555
C28_2 O9_2 1_555 1_555
H41_2 C28_2 1_555 1_555
H42_2 C28_2 1_555 1_555
C29_2 N15_2 1_555 1_555
H43_2 C29_2 1_555 1_555
H44_2 C29_2 1_555 1_555
C27_2 C28_2 1_555 1_555
W1_2 C1_2 1_555 1_555
N1_2 Cu13 1_555 1_555
N6_2 C6_2 1_555 1_555
N7_2 C7_2 1_555 1_555
C1_2 N1_2 1_555 1_555
C4_2 W1_2 1_555 1_555
C5_2 W1_2 1_555 1_555
C6_2 W1_2 1_555 1_555
C7_2 W1_2 1_555 1_555
C55_2 N23_2 1_555 1_555
H91_2 C55_2 1_555 1_555
H92_2 C55_2 1_555 1_555
C56_2 O21_2 1_555 1_555
H93_2 C56_2 1_555 1_555
H94_2 C56_2 1_555 1_555
C57_2 N23_2 1_555 1_555
H95_2 C57_2 1_555 1_555
H96_2 C57_2 1_555 1_555
W3_2 C65_2 1_555 1_555
N26_2 C66_2 1_555 1_555
C66_2 W3_2 1_555 1_555
N27_2 C67_2 1_555 1_555
C67_2 W3_2 1_555 1_555
C68_2 W3_2 1_555 1_555
C69_2 W3_2 1_555 1_555
N30_2 C70_2 1_555 1_555
C70_2 W3_2 1_555 1_555
N31_2 C71_2 1_555 1_555
C71_2 W3_2 1_555 1_555
N32_2 C72_2 1_555 1_555
C72_2 W3_2 1_555 1_555
Cu9_2 N26_2 1_555 1_555
Cu10_2 N27_2 1_555 1_555
O38 Cu9_2 1_555 1_555
O35_2 Cu9_2 1_555 1_555
O36_2 Cu9_2 1_555 1_555
O39 Cu9_2 1_555 1_555
N36_2 Cu9_2 1_555 1_555
O34 Cu10_2 1_555 1_555
O37 Cu10_2 1_555 1_555
O40_2 Cu10_2 1_555 1_555
O41_2 Cu10_2 1_555 1_555
N37_2 Cu10_2 1_555 1_555
H142_2 O35_2 1_555 1_555
H143_2 O36_2 1_555 1_555
H144_2 O40_2 1_555 1_555
H145_2 O41_2 1_555 1_555
C55_2 C56_2 1_555 1_555
O35_2 H147_2 1_555 1_555
O36_2 H148_2 1_555 1_555
O40_2 H149_2 1_555 1_555
O41_2 H150_2 1_555 1_555
O5 H149_3 1_555 1_555
O6 H150_3 1_555 1_555
O26 H147_3 1_555 1_555
O27 H148_3 1_555 1_555
O38 C18_2 1_555 1_555
N37 C19_2 1_555 1_555
C13_2 N36_2 1_555 1_555
H11_2 C13_2 1_555 1_555
H12_2 C13_2 1_555 1_555
C14_2 O35_2 1_555 1_555
H13_2 C14_2 1_555 1_555
H14_2 C14_2 1_555 1_555
C15_2 N36_2 1_555 1_555
H15_2 C15_2 1_555 1_555
H16_2 C15_2 1_555 1_555
C16_2 O36_2 1_555 1_555
H17_2 C16_2 1_555 1_555
H18_2 C16_2 1_555 1_555
C17_2 N36_2 1_555 1_555
H19_2 C17_2 1_555 1_555
H20_2 C17_2 1_555 1_555
C18_2 C17_2 1_555 1_555
H21_2 C18_2 1_555 1_555
H22_2 C18_2 1_555 1_555
C19_2 H23_2 1_555 1_555
H24_2 C19_2 1_555 1_555
C20_2 O39 1_555 1_555
H25_2 C20_2 1_555 1_555
H26_2 C20_2 1_555 1_555
C21_2 N37 1_555 1_555
H27_2 C21_2 1_555 1_555
H28_2 C21_2 1_555 1_555
C22_2 O40 1_555 1_555
H29_2 C22_2 1_555 1_555
H30_2 C22_2 1_555 1_555
C23_2 N37 1_555 1_555
H31_2 C23_2 1_555 1_555
H32_2 C23_2 1_555 1_555
C24_2 O41 1_555 1_555
H33_2 C24_2 1_555 1_555
H34_2 C24_2 1_555 1_555
N36 C73_2 1_555 1_555
C73_2 H115_2 1_555 1_555
H116_2 C73_2 1_555 1_555
C74_2 O35 1_555 1_555
H117_2 C74_2 1_555 1_555
H118_2 C74_2 1_555 1_555
C75_2 N36 1_555 1_555
H119_2 C75_2 1_555 1_555
H120_2 C75_2 1_555 1_555
C76_2 O36 1_555 1_555
H121_2 C76_2 1_555 1_555
H122_2 C76_2 1_555 1_555
C77_2 N36 1_555 1_555
H123_2 C77_2 1_555 1_555
H124_2 C77_2 1_555 1_555
C78_2 O34 1_555 1_555
H125_2 C78_2 1_555 1_555
H126_2 C78_2 1_555 1_555
C79_2 N37_2 1_555 1_555
H129_2 C79_2 1_555 1_555
H130_2 C79_2 1_555 1_555
C80_2 O37 1_555 1_555
H131_2 C80_2 1_555 1_555
H132_2 C80_2 1_555 1_555
C81_2 N37_2 1_555 1_555
H133_2 C81_2 1_555 1_555
H134_2 C81_2 1_555 1_555
C82_2 O40_2 1_555 1_555
H135_2 C82_2 1_555 1_555
H136_2 C82_2 1_555 1_555
C83_2 N37_2 1_555 1_555
H137_2 C83_2 1_555 1_555
H138_2 C83_2 1_555 1_555
C84_2 O41_2 1_555 1_555
H139_2 C84_2 1_555 1_555
H140_2 C84_2 1_555 1_555
C13_2 C14_2 1_555 1_555
C15_2 C16_2 1_555 1_555
C19_2 C20_2 1_555 1_555
C21_2 C22_2 1_555 1_555
C23_2 C24_2 1_555 1_555
C73_2 C74_2 1_555 1_555
C75_2 C76_2 1_555 1_555
C77_2 C78_2 1_555 1_555
C79_2 C80_2 1_555 1_555
C81_2 C82_2 1_555 1_555
C83_2 C84_2 1_555 1_555
O2 H147_4 1_555 1_555
O3 H148_4 1_555 1_555
O29 H149_4 1_555 1_555
O30 H150_4 1_555 1_555
C42_2 O15 1_555 1_555
H69_2 C42_2 1_555 1_555
H70_2 C42_2 1_555 1_555
O17 H72 1_555 1_555
C49_2 O17 1_555 1_555
H77_2 C49_2 1_555 1_555
C50_2 N22 1_555 1_555
H79_2 C50_2 1_555 1_555
H80_2 C50_2 1_555 1_555
Cu12 O15 1_555 1_555
O17 Cu12 1_555 1_555
N22 Cu12 1_555 1_555
C49_2 C50_2 1_555 1_555
O13_2 H9_2 1_555 1_555
C37_2 O13_2 1_555 1_555
H59_2 C37_2 1_555 1_555
H60_2 C37_2 1_555 1_555
H62_2 C38_2 1_555 1_555
H67_2 C41_2 1_555 1_555
C37_2 C38_2 1_555 1_555
C55_3 N23_3 1_555 1_555
H91_3 C55_3 1_555 1_555
H92_3 C55_3 1_555 1_555
C56_3 O21_3 1_555 1_555
H93_3 C56_3 1_555 1_555
H94_3 C56_3 1_555 1_555
C57_3 N23_3 1_555 1_555
H95_3 C57_3 1_555 1_555
H96_3 C57_3 1_555 1_555
W3_3 C65_3 1_555 1_555
N26_3 C66_3 1_555 1_555
C66_3 W3_3 1_555 1_555
N27_3 C67_3 1_555 1_555
C67_3 W3_3 1_555 1_555
C68_3 W3_3 1_555 1_555
C69_3 W3_3 1_555 1_555
N30_3 C70_3 1_555 1_555
C70_3 W3_3 1_555 1_555
N31_3 C71_3 1_555 1_555
C71_3 W3_3 1_555 1_555
N32_3 C72_3 1_555 1_555
C72_3 W3_3 1_555 1_555
Cu9_3 N26_3 1_555 1_555
Cu10_3 N27_3 1_555 1_555
O34_2 Cu9_3 1_555 1_555
O35_3 Cu9_3 1_555 1_555
O36_3 Cu9_3 1_555 1_555
O37_2 Cu9_3 1_555 1_555
N36_3 Cu9_3 1_555 1_555
O38_2 Cu10_3 1_555 1_555
O39_2 Cu10_3 1_555 1_555
O40_3 Cu10_3 1_555 1_555
O41_3 Cu10_3 1_555 1_555
N37_3 Cu10_3 1_555 1_555
H142_3 O35_3 1_555 1_555
H143_3 O36_3 1_555 1_555
H144_3 O40_3 1_555 1_555
H145_3 O41_3 1_555 1_555
C55_3 C56_3 1_555 1_555
O35_3 H147_5 1_555 1_555
O36_3 H148_5 1_555 1_555
O40_3 H149_5 1_555 1_555
O41_3 H150_5 1_555 1_555
W1_3 C1_3 1_555 1_555
Cu1_2 O1_2 1_555 1_555
O1_2 C18_3 1_555 1_555
O2_2 Cu1_2 1_555 1_555
H1_2 O2_2 1_555 1_555
O3_2 Cu1_2 1_555 1_555
H2_2 O3_2 1_555 1_555
O4_2 Cu1_2 1_555 1_555
O5_2 H3_2 1_555 1_555
O6_2 H4_2 1_555 1_555
N1_3 Cu1_2 1_555 1_555
N6_3 C6_3 1_555 1_555
N7_3 C7_3 1_555 1_555
N13_2 Cu1_2 1_555 1_555
N14_2 C19_3 1_555 1_555
C1_3 N1_3 1_555 1_555
C4_3 W1_3 1_555 1_555
C5_3 W1_3 1_555 1_555
C6_3 W1_3 1_555 1_555
C7_3 W1_3 1_555 1_555
C13_3 N13_2 1_555 1_555
H11_3 C13_3 1_555 1_555
H12_3 C13_3 1_555 1_555
C14_3 O2_2 1_555 1_555
H13_3 C14_3 1_555 1_555
H14_3 C14_3 1_555 1_555
C15_3 N13_2 1_555 1_555
H15_3 C15_3 1_555 1_555
H16_3 C15_3 1_555 1_555
C16_3 O3_2 1_555 1_555
H17_3 C16_3 1_555 1_555
H18_3 C16_3 1_555 1_555
C17_3 N13_2 1_555 1_555
H19_3 C17_3 1_555 1_555
H20_3 C17_3 1_555 1_555
C18_3 C17_3 1_555 1_555
H21_3 C18_3 1_555 1_555
H22_3 C18_3 1_555 1_555
C19_3 H23_3 1_555 1_555
H24_3 C19_3 1_555 1_555
C20_3 O4_2 1_555 1_555
H25_3 C20_3 1_555 1_555
H26_3 C20_3 1_555 1_555
C21_3 N14_2 1_555 1_555
H27_3 C21_3 1_555 1_555
H28_3 C21_3 1_555 1_555
C22_3 O5_2 1_555 1_555
H29_3 C22_3 1_555 1_555
H30_3 C22_3 1_555 1_555
C23_3 N14_2 1_555 1_555
H31_3 C23_3 1_555 1_555
H32_3 C23_3 1_555 1_555
C24_3 O6_2 1_555 1_555
H33_3 C24_3 1_555 1_555
H34_3 C24_3 1_555 1_555
Cu11_2 O1_2 1_555 1_555
O4_2 Cu11_2 1_555 1_555
O5_2 Cu11_2 1_555 1_555
O6_2 Cu11_2 1_555 1_555
N14_2 Cu11_2 1_555 1_555
C13_3 C14_3 1_555 1_555
C15_3 C16_3 1_555 1_555
C19_3 C20_3 1_555 1_555
C21_3 C22_3 1_555 1_555
C23_3 C24_3 1_555 1_555
Cu2_2 N2_3 1_555 1_555
N2_3 C2_3 1_555 1_555
N8_3 C8_3 1_555 1_555
C27_3 N15_3 1_555 1_555
H39_3 C27_3 1_555 1_555
H40_3 C27_3 1_555 1_555
C28_3 O9_3 1_555 1_555
H41_3 C28_3 1_555 1_555
H42_3 C28_3 1_555 1_555
C29_3 N15_3 1_555 1_555
H43_3 C29_3 1_555 1_555
H44_3 C29_3 1_555 1_555
O25_2 Cu2_2 1_555 1_555
O26_2 H113_2 1_555 1_555
O27_2 H114_2 1_555 1_555
N33_2 C73_3 1_555 1_555
C73_3 H115_3 1_555 1_555
H116_3 C73_3 1_555 1_555
C74_3 O26_2 1_555 1_555
H117_3 C74_3 1_555 1_555
H118_3 C74_3 1_555 1_555
C75_3 N33_2 1_555 1_555
H119_3 C75_3 1_555 1_555
H120_3 C75_3 1_555 1_555
C76_3 O27_2 1_555 1_555
H121_3 C76_3 1_555 1_555
H122_3 C76_3 1_555 1_555
C77_3 N33_2 1_555 1_555
H123_3 C77_3 1_555 1_555
H124_3 C77_3 1_555 1_555
C78_3 O25_2 1_555 1_555
H125_3 C78_3 1_555 1_555
H126_3 C78_3 1_555 1_555
O28_2 Cu2_2 1_555 1_555
O29_2 Cu2_2 1_555 1_555
H127_2 O29_2 1_555 1_555
O30_2 Cu2_2 1_555 1_555
H128_2 O30_2 1_555 1_555
N34_2 Cu2_2 1_555 1_555
C79_3 N34_2 1_555 1_555
H129_3 C79_3 1_555 1_555
H130_3 C79_3 1_555 1_555
C80_3 O28_2 1_555 1_555
H131_3 C80_3 1_555 1_555
H132_3 C80_3 1_555 1_555
C81_3 N34_2 1_555 1_555
H133_3 C81_3 1_555 1_555
H134_3 C81_3 1_555 1_555
C82_3 O29_2 1_555 1_555
H135_3 C82_3 1_555 1_555
H136_3 C82_3 1_555 1_555
C83_3 N34_2 1_555 1_555
H137_3 C83_3 1_555 1_555
H138_3 C83_3 1_555 1_555
C84_3 O30_2 1_555 1_555
H139_3 C84_3 1_555 1_555
H140_3 C84_3 1_555 1_555
Cu13_2 O25_2 1_555 1_555
C27_3 C28_3 1_555 1_555
O26_2 Cu13_2 1_555 1_555
O27_2 Cu13_2 1_555 1_555
N33_2 Cu13_2 1_555 1_555
C73_3 C74_3 1_555 1_555
C75_3 C76_3 1_555 1_555
C77_3 C78_3 1_555 1_555
O28_2 Cu13_2 1_555 1_555
C79_3 C80_3 1_555 1_555
C81_3 C82_3 1_555 1_555
C83_3 C84_3 1_555 1_555
O34_2 C18_4 1_555 1_555
O5_3 H3_3 1_555 1_555
O6_3 H4_3 1_555 1_555
N14_3 C19_4 1_555 1_555
C13_4 N36_3 1_555 1_555
H11_4 C13_4 1_555 1_555
H12_4 C13_4 1_555 1_555
C14_4 O35_3 1_555 1_555
H13_4 C14_4 1_555 1_555
H14_4 C14_4 1_555 1_555
C15_4 N36_3 1_555 1_555
H15_4 C15_4 1_555 1_555
H16_4 C15_4 1_555 1_555
C16_4 O36_3 1_555 1_555
H17_4 C16_4 1_555 1_555
H18_4 C16_4 1_555 1_555
C17_4 N36_3 1_555 1_555
H19_4 C17_4 1_555 1_555
H20_4 C17_4 1_555 1_555
C18_4 C17_4 1_555 1_555
H21_4 C18_4 1_555 1_555
H22_4 C18_4 1_555 1_555
C19_4 H23_4 1_555 1_555
H24_4 C19_4 1_555 1_555
C20_4 O37_2 1_555 1_555
H25_4 C20_4 1_555 1_555
H26_4 C20_4 1_555 1_555
C21_4 N14_3 1_555 1_555
H27_4 C21_4 1_555 1_555
H28_4 C21_4 1_555 1_555
C22_4 O5_3 1_555 1_555
H29_4 C22_4 1_555 1_555
H30_4 C22_4 1_555 1_555
C23_4 N14_3 1_555 1_555
H31_4 C23_4 1_555 1_555
H32_4 C23_4 1_555 1_555
C24_4 O6_3 1_555 1_555
H33_4 C24_4 1_555 1_555
H34_4 C24_4 1_555 1_555
O26_3 H113_3 1_555 1_555
O27_3 H114_3 1_555 1_555
N33_3 C73_4 1_555 1_555
C73_4 H115_4 1_555 1_555
H116_4 C73_4 1_555 1_555
C74_4 O26_3 1_555 1_555
H117_4 C74_4 1_555 1_555
H118_4 C74_4 1_555 1_555
C75_4 N33_3 1_555 1_555
H119_4 C75_4 1_555 1_555
H120_4 C75_4 1_555 1_555
C76_4 O27_3 1_555 1_555
H121_4 C76_4 1_555 1_555
H122_4 C76_4 1_555 1_555
C77_4 N33_3 1_555 1_555
H123_4 C77_4 1_555 1_555
H124_4 C77_4 1_555 1_555
C78_4 O38_2 1_555 1_555
H125_4 C78_4 1_555 1_555
H126_4 C78_4 1_555 1_555
C79_4 N37_3 1_555 1_555
H129_4 C79_4 1_555 1_555
H130_4 C79_4 1_555 1_555
C80_4 O39_2 1_555 1_555
H131_4 C80_4 1_555 1_555
H132_4 C80_4 1_555 1_555
C81_4 N37_3 1_555 1_555
H133_4 C81_4 1_555 1_555
H134_4 C81_4 1_555 1_555
C82_4 O40_3 1_555 1_555
H135_4 C82_4 1_555 1_555
H136_4 C82_4 1_555 1_555
C83_4 N37_3 1_555 1_555
H137_4 C83_4 1_555 1_555
H138_4 C83_4 1_555 1_555
C84_4 O41_3 1_555 1_555
H139_4 C84_4 1_555 1_555
H140_4 C84_4 1_555 1_555
Cu11_3 O34_2 1_555 1_555
Cu13_3 O38_2 1_555 1_555
O37_2 Cu11_3 1_555 1_555
O5_3 Cu11_3 1_555 1_555
O6_3 Cu11_3 1_555 1_555
N14_3 Cu11_3 1_555 1_555
C13_4 C14_4 1_555 1_555
C15_4 C16_4 1_555 1_555
C19_4 C20_4 1_555 1_555
C21_4 C22_4 1_555 1_555
C23_4 C24_4 1_555 1_555
O26_3 Cu13_3 1_555 1_555
O27_3 Cu13_3 1_555 1_555
N33_3 Cu13_3 1_555 1_555
C73_4 C74_4 1_555 1_555
C75_4 C76_4 1_555 1_555
C77_4 C78_4 1_555 1_555
O39_2 Cu13_3 1_555 1_555
C79_4 C80_4 1_555 1_555
C81_4 C82_4 1_555 1_555
C83_4 C84_4 1_555 1_555
O2_2 H147_6 1_555 1_555
O3_2 H148_6 1_555 1_555
O29_2 H149_6 1_555 1_555
O30_2 H150_6 1_555 1_555
W2_2 C9_2 1_555 1_555
Cu11_3 N2_4 1_555 1_555
Cu3_2 O7_2 1_555 1_555
Cu4_2 O7_2 1_555 1_555
Cu5_2 O14_2 1_555 1_555
O7_2 C26_2 1_555 1_555
O8_2 Cu3_2 1_555 1_555
H5_2 O8_2 1_555 1_555
O9_4 Cu3_2 1_555 1_555
H6_2 O9_4 1_555 1_555
O10_2 Cu3_2 1_555 1_555
O11_2 H7_2 1_555 1_555
O12_2 Cu4_2 1_555 1_555
H8_2 O12_2 1_555 1_555
O14_2 H10_2 1_555 1_555
N2_4 C2_4 1_555 1_555
N3_2 Cu3_2 1_555 1_555
N8_4 C8_4 1_555 1_555
N9_2 Cu4_2 1_555 1_555
N10_2 Cu5_2 1_555 1_555
N11_2 C11_2 1_555 1_555
N12_2 C12_2 1_555 1_555
N15_4 Cu3_2 1_555 1_555
N16_2 Cu4_2 1_555 1_555
N17_2 Cu5_2 1_555 1_555
C9_2 N9_2 1_555 1_555
C10_2 W2_2 1_555 1_555
C11_2 W2_2 1_555 1_555
C12_2 W2_2 1_555 1_555
C25_2 N15_4 1_555 1_555
H35_4 C25_2 1_555 1_555
H36_2 C25_2 1_555 1_555
C26_2 C25_2 1_555 1_555
H37_2 C26_2 1_555 1_555
H38_2 C26_2 1_555 1_555
C27_4 N15_4 1_555 1_555
H39_4 C27_4 1_555 1_555
H40_4 C27_4 1_555 1_555
C28_4 O9_4 1_555 1_555
H41_4 C28_4 1_555 1_555
H42_4 C28_4 1_555 1_555
C29_4 N15_4 1_555 1_555
H43_4 C29_4 1_555 1_555
H44_4 C29_4 1_555 1_555
C30_2 O8_2 1_555 1_555
H45_2 C30_2 1_555 1_555
H46_2 C30_2 1_555 1_555
C32_2 O10_2 1_555 1_555
H49_2 C32_2 1_555 1_555
C33_2 N16_2 1_555 1_555
H51_2 C33_2 1_555 1_555
C34_2 O11_2 1_555 1_555
H54_2 C34_2 1_555 1_555
C35_2 N16_2 1_555 1_555
H55_2 C35_2 1_555 1_555
H56_2 C35_2 1_555 1_555
C36_2 O12_2 1_555 1_555
H57_2 C36_2 1_555 1_555
H58_2 C36_2 1_555 1_555
C39_2 O14_2 1_555 1_555
H63_2 C39_2 1_555 1_555
H64_2 C39_2 1_555 1_555
C40_2 N17_2 1_555 1_555
H65_2 C40_2 1_555 1_555
H66_2 C40_2 1_555 1_555
N18_2 C43_2 1_555 1_555
C43_2 W2_2 1_555 1_555
N19_2 C44_2 1_555 1_555
C44_2 W2_2 1_555 1_555
N20_2 C45_2 1_555 1_555
C45_2 W2_2 1_555 1_555
N21_2 C46_2 1_555 1_555
C46_2 W2_2 1_555 1_555
Cu6_2 N18_2 1_555 1_555
Cu12 N19_2 1_555 1_555
O16_2 H71_2 1_555 1_555
O33 Cu5_2 1_555 1_555
C47_2 O16_2 1_555 1_555
H73_2 C47_2 1_555 1_555
H74_2 C47_2 1_555 1_555
C48_2 C47_2 1_555 1_555
H76_2 C48_2 1_555 1_555
H81_2 C51_2 1_555 1_555
C52_2 O33 1_555 1_555
H83_2 C52_2 1_555 1_555
H84_2 C52_2 1_555 1_555
O19_2 Cu6_2 1_555 1_555
O20_2 H85_2 1_555 1_555
O21_4 H86_2 1_555 1_555
N23_4 C53_2 1_555 1_555
C53_2 H87_4 1_555 1_555
H88_2 C53_2 1_555 1_555
C54_2 O19_2 1_555 1_555
H89_2 C54_2 1_555 1_555
H90_2 C54_2 1_555 1_555
C55_4 N23_4 1_555 1_555
H91_4 C55_4 1_555 1_555
H92_4 C55_4 1_555 1_555
C56_4 O21_4 1_555 1_555
H93_4 C56_4 1_555 1_555
H94_4 C56_4 1_555 1_555
C57_4 N23_4 1_555 1_555
H95_4 C57_4 1_555 1_555
H96_4 C57_4 1_555 1_555
C58_2 O20_2 1_555 1_555
H97_2 C58_2 1_555 1_555
H98_2 C58_2 1_555 1_555
O22_2 Cu6_2 1_555 1_555
O23_2 H99_2 1_555 1_555
O24_2 Cu6_2 1_555 1_555
H100_2 O24_2 1_555 1_555
N24_2 Cu6_2 1_555 1_555
C59_2 N24_2 1_555 1_555
H101_2 C59_2 1_555 1_555
H102_2 C59_2 1_555 1_555
C60_2 O22_2 1_555 1_555
H103_2 C60_2 1_555 1_555
H104_2 C60_2 1_555 1_555
C61_2 N24_2 1_555 1_555
H105_2 C61_2 1_555 1_555
H106_2 C61_2 1_555 1_555
C62_2 O23_2 1_555 1_555
H107_2 C62_2 1_555 1_555
H108_2 C62_2 1_555 1_555
C63_2 N24_2 1_555 1_555
H109_2 C63_2 1_555 1_555
H110_2 C63_2 1_555 1_555
C64_2 O24_2 1_555 1_555
H111_2 C64_2 1_555 1_555
H112_2 C64_2 1_555 1_555
Cu8_2 O19_2 1_555 1_555
N25_2 Cu8_2 1_555 1_555
C65_4 N25_2 1_555 1_555
W3_4 C65_4 1_555 1_555
N26_4 C66_4 1_555 1_555
C66_4 W3_4 1_555 1_555
N27_4 C67_4 1_555 1_555
C67_4 W3_4 1_555 1_555
N28_2 C68_4 1_555 1_555
C68_4 W3_4 1_555 1_555
N29_2 C69_4 1_555 1_555
C69_4 W3_4 1_555 1_555
N30_4 C70_4 1_555 1_555
C70_4 W3_4 1_555 1_555
N31_4 C71_4 1_555 1_555
C71_4 W3_4 1_555 1_555
N32_4 C72_4 1_555 1_555
C72_4 W3_4 1_555 1_555
Cu13_2 N26_4 1_555 1_555
Cu11_2 N27_4 1_555 1_555
Cu4_2 O10_2 1_555 1_555
N3_2 C3_4 1_555 1_555
N10_2 C10_2 1_555 1_555
C27_4 C28_4 1_555 1_555
C29_4 C30_2 1_555 1_555
C33_2 C34_2 1_555 1_555
C35_2 C36_2 1_555 1_555
C39_2 C40_2 1_555 1_555
C51_2 C52_2 1_555 1_555
O20_2 Cu8_2 1_555 1_555
O21_4 Cu8_2 1_555 1_555
N23_4 Cu8_2 1_555 1_555
C53_2 C54_2 1_555 1_555
C55_4 C56_4 1_555 1_555
C57_4 C58_2 1_555 1_555
O22_2 Cu8_2 1_555 1_555
C59_2 C60_2 1_555 1_555
C61_2 C62_2 1_555 1_555
C63_2 C64_2 1_555 1_555
O26_2 H147_7 1_555 1_555
O27_2 H148_7 1_555 1_555
O5_2 H149_7 1_555 1_555
O6_2 H150_7 1_555 1_555
W1_4 C1_4 1_555 1_555
N1_4 Cu13_3 1_555 1_555
N4_2 C4_4 1_555 1_555
N5_2 C5_4 1_555 1_555
N6_4 C6_4 1_555 1_555
N7_4 C7_4 1_555 1_555
C1_4 N1_4 1_555 1_555
C4_4 W1_4 1_555 1_555
C5_4 W1_4 1_555 1_555
C6_4 W1_4 1_555 1_555
C7_4 W1_4 1_555 1_555
H47_2 C31_2 1_555 1_555
H48_2 C31_2 1_555 1_555
O14_2 H146_4 1_555 1_555
O5_3 H149_8 1_555 1_555
O6_3 H150_8 1_555 1_555
O26_3 H147_8 1_555 1_555
O27_3 H148_8 1_555 1_555
C10_3 W2_3 1_555 1_555
N18_3 C43_3 1_555 1_555
C43_3 W2_3 1_555 1_555
N20_3 C45_3 1_555 1_555
C45_3 W2_3 1_555 1_555
N21_3 C46_3 1_555 1_555
C46_3 W2_3 1_555 1_555
Cu6_3 N18_3 1_555 1_555
Cu7_2 N19_3 1_555 1_555
O16_3 H71_3 1_555 1_555
O17_2 H72_2 1_555 1_555
N22_2 C48_3 1_555 1_555
C47_3 O16_3 1_555 1_555
H73_3 C47_3 1_555 1_555
H74_3 C47_3 1_555 1_555
C48_3 C47_3 1_555 1_555
H75_3 C48_3 1_555 1_555
H76_3 C48_3 1_555 1_555
C49_3 O17_2 1_555 1_555
H77_3 C49_3 1_555 1_555
H78_3 C49_3 1_555 1_555
C50_3 N22_2 1_555 1_555
H79_3 C50_3 1_555 1_555
H80_3 C50_3 1_555 1_555
C51_3 N22_2 1_555 1_555
H81_3 C51_3 1_555 1_555
H82_3 C51_3 1_555 1_555
C52_3 O18_2 1_555 1_555
H83_3 C52_3 1_555 1_555
H84_3 C52_3 1_555 1_555
O19_3 Cu6_3 1_555 1_555
O20_3 H85_3 1_555 1_555
H88_3 C53_3 1_555 1_555
C54_3 O19_3 1_555 1_555
H89_3 C54_3 1_555 1_555
H90_3 C54_3 1_555 1_555
C58_3 O20_3 1_555 1_555
H97_3 C58_3 1_555 1_555
H98_3 C58_3 1_555 1_555
O22_3 Cu6_3 1_555 1_555
O23_3 H99_3 1_555 1_555
O24_3 Cu6_3 1_555 1_555
H100_3 O24_3 1_555 1_555
N24_3 Cu6_3 1_555 1_555
C59_3 N24_3 1_555 1_555
H101_3 C59_3 1_555 1_555
H102_3 C59_3 1_555 1_555
C60_3 O22_3 1_555 1_555
H103_3 C60_3 1_555 1_555
H104_3 C60_3 1_555 1_555
C61_3 N24_3 1_555 1_555
H105_3 C61_3 1_555 1_555
H106_3 C61_3 1_555 1_555
C62_3 O23_3 1_555 1_555
H107_3 C62_3 1_555 1_555
H108_3 C62_3 1_555 1_555
C63_3 N24_3 1_555 1_555
H109_3 C63_3 1_555 1_555
H110_3 C63_3 1_555 1_555
C64_3 O24_3 1_555 1_555
H111_3 C64_3 1_555 1_555
H112_3 C64_3 1_555 1_555
Cu8_3 O19_3 1_555 1_555
N25_3 Cu8_3 1_555 1_555
O31_2 Cu7_2 1_555 1_555
N35_2 Cu7_2 1_555 1_555
H141_2 O31_2 1_555 1_555
O17_2 Cu12_2 1_555 1_555
O18_2 Cu12_2 1_555 1_555
N22_2 Cu12_2 1_555 1_555
C49_3 C50_3 1_555 1_555
C51_3 C52_3 1_555 1_555
O20_3 Cu8_3 1_555 1_555
C53_3 C54_3 1_555 1_555
O22_3 Cu8_3 1_555 1_555
C59_3 C60_3 1_555 1_555
C61_3 C62_3 1_555 1_555
C63_3 C64_3 1_555 1_555
C42_3 O33_2 1_555 1_555
H69_3 C42_3 1_555 1_555
H70_3 C42_3 1_555 1_555
O13_3 H9_3 1_555 1_555
C37_3 O13_3 1_555 1_555
H59_3 C37_3 1_555 1_555
H60_3 C37_3 1_555 1_555
C38_3 N35_2 1_555 1_555
H61_3 C38_3 1_555 1_555
H62_3 C38_3 1_555 1_555
C39_3 O31_2 1_555 1_555
H63_3 C39_3 1_555 1_555
C40_3 N35_2 1_555 1_555
H65_3 C40_3 1_555 1_555
H66_3 C40_3 1_555 1_555
C41_3 N35_2 1_555 1_555
H67_3 C41_3 1_555 1_555
C37_3 C38_3 1_555 1_555
C39_3 C40_3 1_555 1_555
W2_4 C9_3 1_555 1_555
Cu3_3 O7_3 1_555 1_555
Cu4_3 O7_3 1_555 1_555
O7_3 C26_3 1_555 1_555
O8_3 Cu3_3 1_555 1_555
H5_3 O8_3 1_555 1_555
O10_3 Cu3_3 1_555 1_555
O11_3 H7_3 1_555 1_555
O12_3 Cu4_3 1_555 1_555
H8_3 O12_3 1_555 1_555
N3_3 Cu3_3 1_555 1_555
N9_3 Cu4_3 1_555 1_555
N10_3 Cu12_2 1_555 1_555
N11_3 C11_3 1_555 1_555
N12_3 C12_3 1_555 1_555
N16_3 Cu4_3 1_555 1_555
C9_3 N9_3 1_555 1_555
C11_3 W2_4 1_555 1_555
C12_3 W2_4 1_555 1_555
H36_3 C25_3 1_555 1_555
C26_3 C25_3 1_555 1_555
H37_3 C26_3 1_555 1_555
H38_3 C26_3 1_555 1_555
C30_3 O8_3 1_555 1_555
H45_3 C30_3 1_555 1_555
H46_3 C30_3 1_555 1_555
C32_3 O10_3 1_555 1_555
H49_3 C32_3 1_555 1_555
C33_3 N16_3 1_555 1_555
H51_3 C33_3 1_555 1_555
C34_3 O11_3 1_555 1_555
H54_3 C34_3 1_555 1_555
C35_3 N16_3 1_555 1_555
H55_3 C35_3 1_555 1_555
H56_3 C35_3 1_555 1_555
C36_3 O12_3 1_555 1_555
H57_3 C36_3 1_555 1_555
H58_3 C36_3 1_555 1_555
C44_3 W2_4 1_555 1_555
Cu4_3 O10_3 1_555 1_555
C33_3 C34_3 1_555 1_555
C35_3 C36_3 1_555 1_555
H47_3 C31_3 1_555 1_555
H48_3 C31_3 1_555 1_555
O17_2 H146_6 1_555 1_555
H47_4 C31_4 1_555 1_555
H48_4 C31_4 1_555 1_555
W2_5 C9_4 1_555 1_555
Cu3_4 O7_4 1_555 1_555
Cu4_4 O7_4 1_555 1_555
Cu5_3 O14_3 1_555 1_555
O7_4 C26_4 1_555 1_555
O8_4 Cu3_4 1_555 1_555
H5_4 O8_4 1_555 1_555
O10_4 Cu3_4 1_555 1_555
O11_4 H7_4 1_555 1_555
O12_4 Cu4_4 1_555 1_555
H8_4 O12_4 1_555 1_555
O13_4 H9_4 1_555 1_555
O14_3 H10_3 1_555 1_555
O15_2 Cu5_3 1_555 1_555
N3_4 Cu3_4 1_555 1_555
N9_4 Cu4_4 1_555 1_555
N10_4 Cu5_3 1_555 1_555
N11_4 C11_4 1_555 1_555
N12_4 C12_4 1_555 1_555
N16_4 Cu4_4 1_555 1_555
N17_3 Cu5_3 1_555 1_555
C9_4 N9_4 1_555 1_555
C11_4 W2_5 1_555 1_555
C12_4 W2_5 1_555 1_555
H36_4 C25_4 1_555 1_555
C26_4 C25_4 1_555 1_555
H37_4 C26_4 1_555 1_555
H38_4 C26_4 1_555 1_555
C30_4 O8_4 1_555 1_555
H45_4 C30_4 1_555 1_555
H46_4 C30_4 1_555 1_555
C32_4 O10_4 1_555 1_555
H49_4 C32_4 1_555 1_555
C33_4 N16_4 1_555 1_555
H51_4 C33_4 1_555 1_555
C34_4 O11_4 1_555 1_555
H54_4 C34_4 1_555 1_555
C35_4 N16_4 1_555 1_555
H55_4 C35_4 1_555 1_555
H56_4 C35_4 1_555 1_555
C36_4 O12_4 1_555 1_555
H57_4 C36_4 1_555 1_555
H58_4 C36_4 1_555 1_555
C37_4 O13_4 1_555 1_555
H59_4 C37_4 1_555 1_555
H60_4 C37_4 1_555 1_555
C38_4 N17_3 1_555 1_555
H61_4 C38_4 1_555 1_555
H62_4 C38_4 1_555 1_555
C39_4 O14_3 1_555 1_555
H63_4 C39_4 1_555 1_555
H64_4 C39_4 1_555 1_555
C40_4 N17_3 1_555 1_555
H65_4 C40_4 1_555 1_555
H66_4 C40_4 1_555 1_555
C41_4 N17_3 1_555 1_555
H67_4 C41_4 1_555 1_555
H68_4 C41_4 1_555 1_555
C42_4 O15_2 1_555 1_555
H69_4 C42_4 1_555 1_555
H70_4 C42_4 1_555 1_555
C44_4 W2_5 1_555 1_555
Cu4_4 O10_4 1_555 1_555
C33_4 C34_4 1_555 1_555
C35_4 C36_4 1_555 1_555
C37_4 C38_4 1_555 1_555
C39_4 C40_4 1_555 1_555
C41_4 C42_4 1_555 1_555
O16_4 H71_4 1_555 1_555
O17_3 H72_3 1_555 1_555
N22_3 C48_4 1_555 1_555
C47_4 O16_4 1_555 1_555
H73_4 C47_4 1_555 1_555
H74_4 C47_4 1_555 1_555
C48_4 C47_4 1_555 1_555
H75_4 C48_4 1_555 1_555
H76_4 C48_4 1_555 1_555
C49_4 O17_3 1_555 1_555
H77_4 C49_4 1_555 1_555
C50_4 N22_3 1_555 1_555
H79_4 C50_4 1_555 1_555
H80_4 C50_4 1_555 1_555
C51_4 N22_3 1_555 1_555
H81_4 C51_4 1_555 1_555
O17_3 Cu12_3 1_555 1_555
N22_3 Cu12_3 1_555 1_555
C49_4 C50_4 1_555 1_555
C52_4 O32_2 1_555 1_555
H83_4 C52_4 1_555 1_555
H84_4 C52_4 1_555 1_555
O14_3 H146_7 1_555 1_555
C10_4 W2_6 1_555 1_555
N18_4 C43_4 1_555 1_555
C43_4 W2_6 1_555 1_555
N20_4 C45_4 1_555 1_555
C45_4 W2_6 1_555 1_555
N21_4 C46_4 1_555 1_555
C46_4 W2_6 1_555 1_555
Cu6_4 N18_4 1_555 1_555
Cu12_3 N19_4 1_555 1_555
O19_4 Cu6_4 1_555 1_555
O20_4 H85_4 1_555 1_555
H88_4 C53_4 1_555 1_555
C54_4 O19_4 1_555 1_555
H89_4 C54_4 1_555 1_555
H90_4 C54_4 1_555 1_555
C58_4 O20_4 1_555 1_555
H97_4 C58_4 1_555 1_555
H98_4 C58_4 1_555 1_555
O22_4 Cu6_4 1_555 1_555
O23_4 H99_4 1_555 1_555
O24_4 Cu6_4 1_555 1_555
H100_4 O24_4 1_555 1_555
N24_4 Cu6_4 1_555 1_555
C59_4 N24_4 1_555 1_555
H101_4 C59_4 1_555 1_555
H102_4 C59_4 1_555 1_555
C60_4 O22_4 1_555 1_555
H103_4 C60_4 1_555 1_555
H104_4 C60_4 1_555 1_555
C61_4 N24_4 1_555 1_555
H105_4 C61_4 1_555 1_555
H106_4 C61_4 1_555 1_555
C62_4 O23_4 1_555 1_555
H107_4 C62_4 1_555 1_555
H108_4 C62_4 1_555 1_555
C63_4 N24_4 1_555 1_555
H109_4 C63_4 1_555 1_555
H110_4 C63_4 1_555 1_555
C64_4 O24_4 1_555 1_555
H111_4 C64_4 1_555 1_555
H112_4 C64_4 1_555 1_555
Cu8_4 O19_4 1_555 1_555
N25_4 Cu8_4 1_555 1_555
O20_4 Cu8_4 1_555 1_555
C53_4 C54_4 1_555 1_555
O22_4 Cu8_4 1_555 1_555
C59_4 C60_4 1_555 1_555
C61_4 C62_4 1_555 1_555
C63_4 C64_4 1_555 1_555

#END
