
###############################################################################
#
# This file contains modified crystal structure data generated from the
# MOF subset of the Cambridge Structural Database (CSD) v543 
# hosted by the Cambridge Crystallographic Data Centre (CCDC).
#
# This work is licensed under the Creative Commons
# Attribution-NonCommercial-ShareAlike 4.0 International License.
# To view a copy of this license, visit
# http://creativecommons.org/licenses/by-nc-sa/4.0/
# or send a letter to
# Creative Commons, PO Box 1866, Mountain View, CA 94042, USA.
#
# CIF created using the CSD Python API on 29 September 2022
# The structure has been converted into the P1 space group
# The structure has a 3D framework
# The original CSD entry BAXSIE is in the tetragonal crystal system
# The original CSD entry BAXSIE is in a Sohncke space group
# The framework has been calculated to contain at least 10.0% void space
# The void calculation uses a probe of radius 1.32A, grid spacing 0.4
#
###############################################################################

data_BAXSIE
_chemical_formula_moiety         '(C40 H30 Mg16 N16 O40)n'
_symmetry_cell_setting           triclinic
_symmetry_space_group_name_H-M   'P 1'
_symmetry_Int_Tables_number      1
_space_group_name_Hall           'P 1'
loop_
_symmetry_equiv_pos_site_id
_symmetry_equiv_pos_as_xyz
1 x,y,z
_cell_length_a                   15.2253(2)
_cell_length_b                   15.2253(2)
_cell_length_c                   8.3587(1)
_cell_angle_alpha                90
_cell_angle_beta                 90
_cell_angle_gamma                90
_cell_volume                     1937.63
loop_
_atom_site_label
_atom_site_type_symbol
_atom_site_fract_x
_atom_site_fract_y
_atom_site_fract_z
O2 O 0.01340(7) 0.90307(7) 0.12966(12)
H3 H 0.0370 0.8673 0.0773
Mg6 Mg 0.00055(3) 0.88943(3) 0.37003(6)
Mg7 Mg 0.11057(3) 0.99945(3) 0.12997(6)
O10 O 0.09693(7) 0.98660(7) 0.37034(12)
N5 N 0.09608(8) 0.80426(9) 0.48254(15)
H9 H 0.1327 0.9630 0.4227
Mg2 Mg 0.88943(3) 0.00055(3) 0.62997(6)
Mg8 Mg 0.99945(3) 0.11057(3) 0.87003(6)
O8 O 0.90307(7) 0.01340(7) 0.87034(12)
O9 O 0.98660(7) 0.09693(7) 0.62966(12)
N4 N 0.80426(9) 0.09608(8) 0.51746(15)
H7 H 0.8673 0.0370 0.9227
H8 H 0.9630 0.1327 0.5773
Mg1 Mg 0.90109(3) 0.90109(3) 0.0000
O5 O 0.67145(9) 0.84690(9) 0.12339(16)
H1 H 0.6342 0.8584 0.0798
H2 H 0.6981 0.9005 0.1295
Mg3 Mg 0.75252(3) 0.75252(3) 0.0000
Mg5 Mg 0.59891(3) 0.40109(3) 0.7500
Mg10 Mg 0.61057(3) 0.50055(3) 0.12003(6)
Mg12 Mg 0.49945(3) 0.38943(3) 0.37997(6)
O7 O 0.92352(7) 0.77458(7) 0.37182(14)
O11 O 0.85353(7) 0.79520(7) 0.14083(13)
O12 O 0.89601(7) 0.97424(7) 0.37757(13)
O13 O 0.60399(7) 0.47424(7) 0.37243(13)
O16 O 0.97424(7) 0.89601(7) 0.62243(13)
N3 N 0.69574(9) 0.59608(8) 0.23254(15)
C6 C 0.86468(10) 0.75578(10) 0.27454(17)
C7 C 0.66667(11) 0.50375(10) 0.45947(18)
C8 C 0.71869(10) 0.57477(10) 0.38467(19)
N6 N 0.74661(8) 0.66237(9) 0.18527(15)
C9 C 0.80245(11) 0.68323(11) 0.30642(19)
O18 O 0.81709(7) 0.97783(8) 0.15224(13)
O19 O 0.68291(7) 0.47783(8) 0.59776(13)
C10 C 0.78709(11) 0.62832(11) 0.43658(19)
H10 H 0.8129 0.6305 0.5416
Mg1_2 Mg 0.90109(3) 0.90109(3) 1.0000
O1 O 0.77458(7) 0.92352(7) 0.62818(14)
O3 O 0.79520(7) 0.85353(7) 0.85917(13)
O4 O 0.47424(7) 0.60399(7) 0.62757(13)
N1 N 0.59608(8) 0.69574(9) 0.76746(15)
C1 C 0.75578(10) 0.86468(10) 0.72546(17)
C2 C 0.50375(10) 0.66667(11) 0.54053(18)
C3 C 0.57477(10) 0.71869(10) 0.61533(19)
N2 N 0.66237(9) 0.74661(8) 0.81473(15)
C4 C 0.68323(11) 0.80245(11) 0.69358(19)
O6 O 0.47783(8) 0.68291(7) 0.40224(13)
C5 C 0.62832(11) 0.78709(11) 0.56342(19)
Mg3_2 Mg 0.75252(3) 0.75252(3) 1.0000
H4 H 0.6305 0.8129 0.4584
Mg4 Mg 0.40109(3) 0.59891(3) 0.2500
Mg9 Mg 0.50055(3) 0.61057(3) 0.87997(6)
Mg11 Mg 0.38943(3) 0.49945(3) 0.62003(6)
O17 O 0.84690(9) 0.67145(9) 0.87661(16)
H5 H 0.8584 0.6342 0.9202
H6 H 0.9005 0.6981 0.8705
O20 O 0.97783(8) 0.81709(7) 0.84776(13)
O16_2 O 0.02576(7) 0.10399(7) 0.12243(13)
O19_2 O 0.31709(7) 0.52217(8) 0.09776(13)
H10_2 H 0.1871 0.3695 0.0416
Mg1_3 Mg 0.09891(3) 0.09891(3) 0.5000
O1_2 O 0.22542(7) 0.07648(7) 0.12818(14)
O3_2 O 0.20480(7) 0.14647(7) 0.35917(13)
O4_2 O 0.52576(7) 0.39601(7) 0.12757(13)
N1_2 N 0.40392(8) 0.30426(9) 0.26746(15)
C1_2 C 0.24422(10) 0.13532(10) 0.22546(17)
C2_2 C 0.49625(10) 0.33333(11) 0.04053(18)
C3_2 C 0.42523(10) 0.28131(10) 0.11533(19)
N2_2 N 0.33763(9) 0.25339(8) 0.31473(15)
O5_2 O 0.32855(9) 0.15310(9) 0.62339(16)
H1_2 H 0.3658 0.1416 0.5798
H2_2 H 0.3019 0.0995 0.6295
C4_2 C 0.31677(11) 0.19755(11) 0.19358(19)
C5_2 C 0.37168(11) 0.21291(11) 0.06342(19)
Mg3_3 Mg 0.24748(3) 0.24748(3) 0.5000
O7_2 O 0.07648(7) 0.22542(7) 0.87182(14)
O11_2 O 0.14647(7) 0.20480(7) 0.64083(13)
O12_2 O 0.10399(7) 0.02576(7) 0.87757(13)
O13_2 O 0.39601(7) 0.52576(7) 0.87243(13)
N3_2 N 0.30426(9) 0.40392(8) 0.73254(15)
C6_2 C 0.13532(10) 0.24422(10) 0.77454(17)
C7_2 C 0.33333(11) 0.49625(10) 0.95947(18)
C8_2 C 0.28131(10) 0.42523(10) 0.88467(19)
N6_2 N 0.25339(8) 0.33763(9) 0.68527(15)
O17_2 O 0.15310(9) 0.32855(9) 0.37661(16)
H5_2 H 0.1416 0.3658 0.4202
H6_2 H 0.0995 0.3019 0.3705
C9_2 C 0.19755(11) 0.31677(11) 0.80642(19)
O18_2 O 0.18291(7) 0.02217(8) 0.65224(13)
O20_2 O 0.02217(8) 0.18291(7) 0.34776(13)
C10_2 C 0.21291(11) 0.37168(11) 0.93658(19)
O6_2 O 0.52217(8) 0.31709(7) 0.90224(13)
H4_2 H 0.3695 0.1871 0.9584
N4_2 N 0.19574(9) 0.90392(8) 0.01746(15)
N5_2 N 0.90392(8) 0.19574(9) 0.98254(15)
O7_3 O 0.72542(7) 0.42352(7) 0.12182(14)
O10_2 O 0.51340(7) 0.59693(7) 0.12034(12)
C6_3 C 0.74422(10) 0.36468(10) 0.02454(17)
C7_3 C 0.99625(10) 0.16667(11) 0.20947(18)
C8_3 C 0.92523(10) 0.21869(10) 0.13467(19)
C9_3 C 0.81677(11) 0.30245(11) 0.05642(19)
C10_3 C 0.87168(11) 0.28709(11) 0.18658(19)
H9_2 H 0.5370 0.6327 0.1727
H10_3 H 0.8695 0.3129 0.2916
O1_3 O 0.57648(7) 0.27458(7) 0.37818(14)
O2_2 O 0.59693(7) 0.51340(7) 0.87966(12)
O3_3 O 0.64647(7) 0.29520(7) 0.60917(13)
C1_3 C 0.63532(10) 0.25578(10) 0.47546(17)
C2_3 C 0.83333(11) 0.00375(10) 0.29053(18)
C3_3 C 0.78131(10) 0.07477(10) 0.36533(19)
N2_3 N 0.75339(8) 0.16237(9) 0.56473(15)
O5_3 O 0.65310(9) 0.17145(9) 0.87339(16)
H1_3 H 0.6416 0.1342 0.8298
H2_3 H 0.5995 0.1981 0.8795
C4_3 C 0.69755(11) 0.18323(11) 0.44358(19)
C5_3 C 0.71291(11) 0.12832(11) 0.31342(19)
Mg3_4 Mg 0.74748(3) 0.25252(3) 0.7500
H3_2 H 0.6327 0.5370 0.8273
H4_3 H 0.6871 0.1305 0.2084
O8_2 O 0.48660(7) 0.40307(7) 0.62034(12)
O9_2 O 0.40307(7) 0.48660(7) 0.37966(12)
O11_3 O 0.70480(7) 0.35353(7) 0.89083(13)
N6_3 N 0.83763(9) 0.24661(8) 0.93527(15)
O17_3 O 0.82855(9) 0.34690(9) 0.62661(16)
H5_3 H 0.8658 0.3584 0.6702
H6_3 H 0.8019 0.4005 0.6205
H7_2 H 0.4630 0.3673 0.6727
H8_2 H 0.3673 0.4630 0.3273
O3_4 O 0.35353(7) 0.70480(7) 0.10917(13)
N2_4 N 0.24661(8) 0.83763(9) 0.06473(15)
O5_4 O 0.34690(9) 0.82855(9) 0.37339(16)
H1_4 H 0.3584 0.8658 0.3298
H2_4 H 0.4005 0.8019 0.3795
Mg3_5 Mg 0.25252(3) 0.74748(3) 0.2500
O7_4 O 0.27458(7) 0.57648(7) 0.62182(14)
O11_4 O 0.29520(7) 0.64647(7) 0.39083(13)
C6_4 C 0.25578(10) 0.63532(10) 0.52454(17)
C7_4 C 0.00375(10) 0.83333(11) 0.70947(18)
C8_4 C 0.07477(10) 0.78131(10) 0.63467(19)
N6_4 N 0.16237(9) 0.75339(8) 0.43527(15)
O17_4 O 0.17145(9) 0.65310(9) 0.12661(16)
H5_4 H 0.1342 0.6416 0.1702
H6_4 H 0.1981 0.5995 0.1205
C9_4 C 0.18323(11) 0.69755(11) 0.55642(19)
C10_4 C 0.12832(11) 0.71291(11) 0.68658(19)
H10_4 H 0.1305 0.6871 0.7916
O1_4 O 0.42352(7) 0.72542(7) 0.87818(14)
C1_4 C 0.36468(10) 0.74422(10) 0.97546(17)
C2_4 C 0.16667(11) 0.99625(10) 0.79053(18)
C3_4 C 0.21869(10) 0.92523(10) 0.86533(19)
C4_4 C 0.30245(11) 0.81677(11) 0.94358(19)
C5_4 C 0.28709(11) 0.87168(11) 0.81342(19)
H4_4 H 0.3129 0.8695 0.7084
loop_
_geom_bond_atom_site_label_1
_geom_bond_atom_site_label_2
_geom_bond_site_symmetry_1
_geom_bond_site_symmetry_2
O2 H3 1_555 1_555
Mg6 O2 1_555 1_555
Mg7 O2 1_555 1_555
O10 Mg6 1_555 1_555
N5 Mg6 1_555 1_555
H9 O10 1_555 1_555
Mg7 O10 1_555 1_555
Mg8 O8 1_555 1_555
O9 Mg2 1_555 1_555
N4 Mg2 1_555 1_555
H7 O8 1_555 1_555
H8 O9 1_555 1_555
Mg2 O8 1_555 1_555
Mg8 O9 1_555 1_555
O5 H1 1_555 1_555
H2 O5 1_555 1_555
Mg5 O19 1_555 1_555
Mg10 O13 1_555 1_555
Mg12 O13 1_555 1_555
O11 Mg1 1_555 1_555
O13 C7 1_555 1_555
N3 Mg10 1_555 1_555
C6 O7 1_555 1_555
C7 C8 1_555 1_555
C8 N3 1_555 1_555
N6 Mg3 1_555 1_555
C9 C6 1_555 1_555
O18 Mg1 1_555 1_555
O19 C7 1_555 1_555
C10 C8 1_555 1_555
H10 C10 1_555 1_555
O5 Mg3 1_555 1_555
Mg3 O11 1_555 1_555
O11 C6 1_555 1_555
N3 N6 1_555 1_555
N6 C9 1_555 1_555
C9 C10 1_555 1_555
O1 C1 1_555 1_555
O3 Mg1_2 1_555 1_555
O4 C2 1_555 1_555
N1 C3 1_555 1_555
C1 O3 1_555 1_555
C2 C3 1_555 1_555
C3 C5 1_555 1_555
N2 N1 1_555 1_555
C4 C1 1_555 1_555
O6 C2 1_555 1_555
C5 C4 1_555 1_555
Mg3_2 O3 1_555 1_555
H4 C5 1_555 1_555
Mg4 O6 1_555 1_555
Mg9 O4 1_555 1_555
Mg11 O4 1_555 1_555
O17 Mg3_2 1_555 1_555
H5 O17 1_555 1_555
H6 O17 1_555 1_555
O20 Mg1_2 1_555 1_555
N1 Mg9 1_555 1_555
N2 C4 1_555 1_555
N2 Mg3_2 1_555 1_555
Mg4 O19_2 1_555 1_555
O1_2 C1_2 1_555 1_555
O3_2 Mg1_3 1_555 1_555
O4_2 C2_2 1_555 1_555
N1_2 C3_2 1_555 1_555
C1_2 O3_2 1_555 1_555
C2_2 C3_2 1_555 1_555
C3_2 C5_2 1_555 1_555
N2_2 N1_2 1_555 1_555
O5_2 H1_2 1_555 1_555
H2_2 O5_2 1_555 1_555
C4_2 C1_2 1_555 1_555
C5_2 C4_2 1_555 1_555
Mg3_3 O3_2 1_555 1_555
Mg12 O4_2 1_555 1_555
Mg11 O13_2 1_555 1_555
Mg10 O4_2 1_555 1_555
Mg9 O13_2 1_555 1_555
O11_2 Mg1_3 1_555 1_555
O13_2 C7_2 1_555 1_555
N3_2 Mg11 1_555 1_555
C6_2 O7_2 1_555 1_555
C7_2 C8_2 1_555 1_555
C8_2 N3_2 1_555 1_555
N6_2 Mg3_3 1_555 1_555
O17_2 Mg3_3 1_555 1_555
H5_2 O17_2 1_555 1_555
H6_2 O17_2 1_555 1_555
C9_2 C6_2 1_555 1_555
O18_2 Mg1_3 1_555 1_555
O20_2 Mg1_3 1_555 1_555
C10_2 C8_2 1_555 1_555
N1_2 Mg12 1_555 1_555
N2_2 C4_2 1_555 1_555
N2_2 Mg3_3 1_555 1_555
O5_2 Mg3_3 1_555 1_555
Mg3_3 O11_2 1_555 1_555
O11_2 C6_2 1_555 1_555
N3_2 N6_2 1_555 1_555
N6_2 C9_2 1_555 1_555
C9_2 C10_2 1_555 1_555
Mg5 O6_2 1_555 1_555
N4_2 Mg7 1_555 1_555
N5_2 Mg8 1_555 1_555
O7_3 Mg10 1_555 1_555
O10_2 Mg10 1_555 1_555
C6_3 O7_3 1_555 1_555
C7_3 C8_3 1_555 1_555
C9_3 C6_3 1_555 1_555
C10_3 C8_3 1_555 1_555
H9_2 O10_2 1_555 1_555
H10_3 C10_3 1_555 1_555
C9_3 C10_3 1_555 1_555
Mg5 O2_2 1_555 1_555
Mg12 O1_3 1_555 1_555
O1_3 C1_3 1_555 1_555
O2_2 H3_2 1_555 1_555
O3_3 Mg5 1_555 1_555
N4 C3_3 1_555 1_555
C1_3 O3_3 1_555 1_555
C2_3 C3_3 1_555 1_555
C3_3 C5_3 1_555 1_555
N2_3 N4 1_555 1_555
O5_3 H1_3 1_555 1_555
H2_3 O5_3 1_555 1_555
C4_3 C1_3 1_555 1_555
C5_3 C4_3 1_555 1_555
Mg3_4 O3_3 1_555 1_555
H4_3 C5_3 1_555 1_555
Mg9 O2_2 1_555 1_555
Mg11 O8_2 1_555 1_555
O8_2 Mg5 1_555 1_555
O9_2 Mg12 1_555 1_555
O11_3 Mg5 1_555 1_555
N6_3 Mg3_4 1_555 1_555
O17_3 Mg3_4 1_555 1_555
H5_3 O17_3 1_555 1_555
H6_3 O17_3 1_555 1_555
H7_2 O8_2 1_555 1_555
H8_2 O9_2 1_555 1_555
Mg12 O8_2 1_555 1_555
N2_3 C4_3 1_555 1_555
N2_3 Mg3_4 1_555 1_555
O5_3 Mg3_4 1_555 1_555
Mg3_4 O11_3 1_555 1_555
Mg11 O9_2 1_555 1_555
N5_2 N6_3 1_555 1_555
Mg4 O9_2 1_555 1_555
O3_4 Mg4 1_555 1_555
N2_4 N4_2 1_555 1_555
O5_4 H1_4 1_555 1_555
H2_4 O5_4 1_555 1_555
Mg3_5 O3_4 1_555 1_555
O7_4 Mg11 1_555 1_555
O10_2 Mg4 1_555 1_555
O11_4 Mg4 1_555 1_555
C6_4 O7_4 1_555 1_555
C7_4 C8_4 1_555 1_555
C8_4 N5 1_555 1_555
N6_4 Mg3_5 1_555 1_555
O17_4 Mg3_5 1_555 1_555
H5_4 O17_4 1_555 1_555
H6_4 O17_4 1_555 1_555
C9_4 C6_4 1_555 1_555
C10_4 C8_4 1_555 1_555
H10_4 C10_4 1_555 1_555
N2_4 Mg3_5 1_555 1_555
O5_4 Mg3_5 1_555 1_555
Mg3_5 O11_4 1_555 1_555
O11_4 C6_4 1_555 1_555
N5 N6_4 1_555 1_555
N6_4 C9_4 1_555 1_555
C9_4 C10_4 1_555 1_555
Mg9 O1_4 1_555 1_555
O1_4 C1_4 1_555 1_555
C2_4 C3_4 1_555 1_555
C3_4 C5_4 1_555 1_555
C4_4 C1_4 1_555 1_555
C5_4 C4_4 1_555 1_555
H4_4 C5_4 1_555 1_555

#END
