
###############################################################################
#
# This file contains modified crystal structure data generated from the
# MOF subset of the Cambridge Structural Database (CSD) v543 
# hosted by the Cambridge Crystallographic Data Centre (CCDC).
#
# This work is licensed under the Creative Commons
# Attribution-NonCommercial-ShareAlike 4.0 International License.
# To view a copy of this license, visit
# http://creativecommons.org/licenses/by-nc-sa/4.0/
# or send a letter to
# Creative Commons, PO Box 1866, Mountain View, CA 94042, USA.
#
# CIF created using the CSD Python API on 29 September 2022
# The structure has been converted into the P1 space group
# The structure has a 3D framework
# The original CSD entry BAXTUS is in the monoclinic crystal system
# The framework has been calculated to contain at least 10.0% void space
# The void calculation uses a probe of radius 1.32A, grid spacing 0.4
#
###############################################################################

data_BAXTUS
_chemical_formula_moiety         '(C296 H216 Co34 N36 O144)n'
_symmetry_cell_setting           triclinic
_symmetry_space_group_name_H-M   'P 1'
_symmetry_Int_Tables_number      1
_space_group_name_Hall           'P 1'
loop_
_symmetry_equiv_pos_site_id
_symmetry_equiv_pos_as_xyz
1 x,y,z
_cell_length_a                   35.717(6)
_cell_length_b                   11.148(2)
_cell_length_c                   22.117(4)
_cell_angle_alpha                90
_cell_angle_beta                 93.185(3)
_cell_angle_gamma                90
_cell_volume                     8792.79
loop_
_atom_site_label
_atom_site_type_symbol
_atom_site_fract_x
_atom_site_fract_y
_atom_site_fract_z
O2 O 0.16297(7) 0.3477(3) 0.01897(12)
O4 O 0.12137(7) 0.2129(3) 0.04676(13)
O5 O 0.30140(7) 0.2773(3) 0.08944(13)
O7 O 0.31223(7) 0.0799(2) 0.09564(12)
C1 C 0.15388(10) 0.2531(4) 0.04600(17)
C2 C 0.18470(10) 0.1807(4) 0.07800(17)
C3 C 0.17596(10) 0.0766(4) 0.10818(17)
H5 H 0.1510 0.0538 0.1103
C4 C 0.20408(10) 0.0058(4) 0.13527(17)
C5 C 0.24111(10) 0.0386(4) 0.13073(17)
C6 C 0.25005(10) 0.1432(4) 0.10072(17)
C7 C 0.22215(10) 0.2164(4) 0.07499(18)
H7 H 0.2282 0.2879 0.0561
C8 C 0.29073(11) 0.1715(4) 0.09459(17)
C11 C 0.00377(10) 0.1417(4) 0.12616(18)
C12 C 0.04064(10) 0.1743(4) 0.11983(17)
C13 C 0.06912(10) 0.1036(4) 0.14660(17)
H9 H 0.0940 0.1267 0.1442
N2 N 0.04927(9) 0.2765(3) 0.08434(14)
H23 H 0.0309 0.3378 0.0850
H24 H 0.0705 0.3237 0.1042
O27 O 0.06901(7) 0.0843(3) 0.33657(13)
C51 C 0.04514(10) 0.0007(4) 0.33983(17)
C52 C 0.00473(10) 0.0365(4) 0.34395(17)
H40 H 0.0155 0.1905 0.3897
Co15 Co 0.123485(13) 0.07120(5) 0.36300(2)
Co19 Co 0.360445(14) 0.12017(5) 0.06423(3)
O49 O 0.18484(7) 0.1053(2) 0.26374(13)
Co5 Co 0.071544(13) 0.25034(5) 0.99424(2)
Co21 Co 0.139555(14) 0.37983(5) 0.93577(3)
O44 O 0.10505(6) 0.2474(2) 0.91619(11)
O52 O 0.07276(7) 0.4368(2) 0.99681(13)
O54 O 0.06052(7) 0.0720(2) 0.99675(12)
N14 N 0.02017(8) 0.2654(3) 0.93590(14)
Co1 Co 0.172992(13) 0.92511(5) 0.25921(2)
Co2 Co 0.097917(13) 0.78320(5) 0.32171(2)
Co4 Co 0.139555(14) 0.62017(5) 0.43577(3)
O1 O 0.14286(6) 0.9118(2) 0.33614(11)
H1 H 0.1598 0.8755 0.3590
O3 O 0.10505(6) 0.7526(2) 0.41619(11)
H2 H 0.1142 0.8206 0.4271
O6 O 0.05760(8) 0.6388(3) 0.31455(16)
H3 H 0.0355 0.6658 0.2919
H4 H 0.0683 0.5722 0.2940
O10 O 0.12412(7) 0.9691(3) 0.20862(13)
O11 O 0.08321(7) 0.8275(3) 0.23242(12)
O12 O 0.13408(7) 0.6456(2) 0.30152(12)
O13 O 0.17939(7) 0.7415(2) 0.25531(13)
O15 O 0.13529(7) 0.1974(2) 0.29987(12)
O16 O 0.11119(7) 0.4665(2) 0.43794(13)
O17 O 0.07276(7) 0.5632(2) 0.49681(13)
O18 O 0.10709(7) 0.0070(2) 0.44748(11)
H6 H 0.2601 0.9904 0.1479
C14 C 0.06069(10) 0.9992(4) 0.17672(17)
C15 C 0.02357(10) 0.9640(4) 0.18030(17)
H10 H 0.0178 0.8920 0.1989
C16 C 0.09175(10) 0.9258(4) 0.20824(17)
C17 C 0.16357(10) 0.6487(3) 0.27292(17)
C18 C 0.18180(10) 0.5318(3) 0.25775(17)
C19 C 0.21534(10) 0.5316(3) 0.22827(17)
H11 H 0.2261 0.6041 0.2177
C20 C 0.23302(10) 0.4245(3) 0.21434(17)
C21 C 0.21656(10) 0.3172(4) 0.22888(17)
H12 H 0.2281 0.2453 0.2195
C22 C 0.18277(10) 0.3153(3) 0.25748(17)
C23 C 0.16546(10) 0.4231(3) 0.27224(17)
H13 H 0.1431 0.4221 0.2917
C24 C 0.16603(10) 0.1974(3) 0.27430(18)
C25 C 0.08442(10) 0.4692(4) 0.47306(18)
C26 C 0.06562(10) 0.3541(3) 0.48877(18)
C27 C 0.03267(10) 0.3595(3) 0.51918(18)
H14 H 0.0224 0.4337 0.5281
C28 C 0.01495(10) 0.2560(3) 0.53632(17)
C29 C 0.03043(10) 0.1454(3) 0.52384(17)
H15 H 0.0188 0.0755 0.5360
C30 C 0.06341(10) 0.1383(3) 0.49321(17)
C31 C 0.08093(10) 0.2436(3) 0.47528(17)
H16 H 0.1028 0.2395 0.4544
C32 C 0.07853(10) 0.0160(3) 0.47780(17)
C33 C 0.19390(12) 0.0643(4) 0.4474(2)
C34 C 0.22497(13) 0.1046(4) 0.4801(2)
H18 H 0.2407 0.0502 0.5008
C35 C 0.17863(12) 0.2546(4) 0.4173(2)
H19 H 0.1627 0.3071 0.3957
C36 C 0.20866(11) 0.3015(4) 0.4499(2)
H20 H 0.2127 0.3839 0.4503
C37 C 0.23326(11) 0.2262(4) 0.48247(19)
N1 N 0.19540(9) 0.9032(3) 0.16939(14)
H21 H 0.2133 0.8428 0.1750
H22 H 0.1790 0.8604 0.1527
N3 N 0.26832(8) 0.4261(3) 0.18683(15)
H25 H 0.2708 0.3732 0.1536
H26 H 0.2721 0.4851 0.1618
N5 N 0.17091(9) 0.1375(3) 0.41468(15)
C38 C 0.30610(12) 0.4357(4) 0.5526(2)
H29 H 0.3115 0.5173 0.5520
C39 C 0.27503(13) 0.3954(4) 0.5199(2)
H30 H 0.2593 0.4498 0.4992
C40 C 0.32137(12) 0.2454(4) 0.5827(2)
H31 H 0.3373 0.1929 0.6043
C41 C 0.29134(11) 0.1985(4) 0.5501(2)
H32 H 0.2873 0.1161 0.5497
C42 C 0.26674(11) 0.2738(4) 0.51753(19)
N6 N 0.32909(9) 0.3625(3) 0.58532(15)
O28 O 0.05226(7) 0.8910(3) 0.34091(13)
Co14 Co 0.327008(13) 0.42511(5) 0.24079(2)
Co17 Co 0.376515(13) 0.42880(5) 0.63700(2)
Co27 Co 0.071544(13) 0.74966(5) 0.49424(2)
O42 O 0.16297(7) 0.6523(3) 0.51897(12)
O46 O 0.18777(7) 0.5799(2) 0.40436(12)
N12 N 0.23168(8) 0.9261(3) 0.31317(15)
H55 H 0.0224 0.3274 0.9159
H56 H 0.0232 0.2088 0.9132
O19 O 0.06052(7) 0.9280(2) 0.49675(12)
H17 H 0.1885 0.9827 0.4480
O8 O 0.93099(7) 0.0843(3) 0.16343(13)
C9 C 0.95486(10) 0.0007(4) 0.16017(17)
C10 C 0.99527(10) 0.0365(4) 0.15605(17)
H8 H 0.9845 0.1905 0.1103
Co10 Co 0.928456(13) 0.25034(5) 0.50576(2)
O21 O 0.83703(7) 0.3477(3) 0.48103(12)
O23 O 0.87863(7) 0.2129(3) 0.45324(13)
O24 O 0.69860(7) 0.2773(3) 0.41056(13)
O26 O 0.68777(7) 0.0799(2) 0.40436(12)
C43 C 0.84612(10) 0.2531(4) 0.45400(17)
C44 C 0.81530(10) 0.1807(4) 0.42200(17)
C45 C 0.82404(10) 0.0766(4) 0.39182(17)
H37 H 0.8490 0.0538 0.3897
C46 C 0.79592(10) 0.0058(4) 0.36473(17)
C47 C 0.75889(10) 0.0386(4) 0.36927(17)
C48 C 0.74995(10) 0.1432(4) 0.39928(17)
C49 C 0.77785(10) 0.2164(4) 0.42501(18)
H39 H 0.7718 0.2879 0.4439
C50 C 0.70927(11) 0.1715(4) 0.40541(17)
C53 C 0.99623(10) 0.1417(4) 0.37384(18)
C54 C 0.95936(10) 0.1743(4) 0.38017(17)
C55 C 0.93088(10) 0.1036(4) 0.35340(17)
H41 H 0.9060 0.1267 0.3558
N8 N 0.95073(9) 0.2765(3) 0.41566(14)
H51 H 0.9691 0.3378 0.4150
H52 H 0.9295 0.3237 0.3958
Co16 Co 0.876515(13) 0.07120(5) 0.13700(2)
Co18 Co 0.639555(14) 0.12017(5) 0.43577(3)
Co20 Co 0.860445(14) 0.37983(5) 0.56423(3)
O43 O 0.89495(6) 0.2474(2) 0.58381(11)
O50 O 0.81516(7) 0.1053(2) 0.23626(13)
O51 O 0.92724(7) 0.4368(2) 0.50319(13)
O53 O 0.93948(7) 0.0720(2) 0.50325(12)
N13 N 0.97983(8) 0.2654(3) 0.56410(14)
O9 O 0.94774(7) 0.8910(3) 0.15909(13)
H27 H 0.9776 0.3274 0.5841
H28 H 0.9768 0.2088 0.5868
Co6 Co 0.827008(13) 0.92511(5) 0.24079(2)
Co7 Co 0.902083(13) 0.78320(5) 0.17829(2)
Co9 Co 0.860445(14) 0.62017(5) 0.06423(3)
O20 O 0.85714(6) 0.9118(2) 0.16386(11)
H33 H 0.8402 0.8755 0.1410
O22 O 0.89495(6) 0.7526(2) 0.08381(11)
H34 H 0.8858 0.8206 0.0729
O25 O 0.94240(8) 0.6388(3) 0.18545(16)
H35 H 0.9645 0.6658 0.2081
H36 H 0.9317 0.5722 0.2060
O29 O 0.87588(7) 0.9691(3) 0.29138(13)
O30 O 0.91679(7) 0.8275(3) 0.26758(12)
O31 O 0.86592(7) 0.6456(2) 0.19848(12)
O32 O 0.82061(7) 0.7415(2) 0.24469(13)
O34 O 0.86471(7) 0.1974(2) 0.20013(12)
O35 O 0.88881(7) 0.4665(2) 0.06206(13)
O36 O 0.92724(7) 0.5632(2) 0.00319(13)
O37 O 0.89291(7) 0.0070(2) 0.05252(11)
H38 H 0.7399 0.9904 0.3521
C56 C 0.93931(10) 0.9992(4) 0.32328(17)
C57 C 0.97643(10) 0.9640(4) 0.31970(17)
H42 H 0.9822 0.8920 0.3011
C58 C 0.90825(10) 0.9258(4) 0.29176(17)
C59 C 0.83643(10) 0.6487(3) 0.22708(17)
C60 C 0.81820(10) 0.5318(3) 0.24225(17)
C61 C 0.78466(10) 0.5316(3) 0.27173(17)
H43 H 0.7739 0.6041 0.2823
C62 C 0.76698(10) 0.4245(3) 0.28566(17)
C63 C 0.78344(10) 0.3172(4) 0.27112(17)
H44 H 0.7719 0.2453 0.2805
C64 C 0.81723(10) 0.3153(3) 0.24252(17)
C65 C 0.83454(10) 0.4231(3) 0.22776(17)
H45 H 0.8569 0.4221 0.2083
C66 C 0.83397(10) 0.1974(3) 0.22570(18)
C67 C 0.91558(10) 0.4692(4) 0.02694(18)
C68 C 0.93438(10) 0.3541(3) 0.01123(18)
C72 C 0.93659(10) 0.1383(3) 0.00679(17)
C73 C 0.91907(10) 0.2436(3) 0.02472(17)
H48 H 0.8972 0.2395 0.0456
C74 C 0.92147(10) 0.0160(3) 0.02220(17)
N7 N 0.80460(9) 0.9032(3) 0.33061(14)
H49 H 0.7867 0.8428 0.3250
H50 H 0.8210 0.8604 0.3473
N9 N 0.73168(8) 0.4261(3) 0.31317(15)
H53 H 0.7292 0.3732 0.3464
H54 H 0.7279 0.4851 0.3382
Co13 Co 0.672992(13) 0.42511(5) 0.25921(2)
Co25 Co 0.928456(13) 0.74966(5) 0.00576(2)
O45 O 0.81223(7) 0.5799(2) 0.09564(12)
N11 N 0.76832(8) 0.9261(3) 0.18683(15)
N15 N 0.82909(9) 0.1375(3) 0.08532(15)
C69 C 0.96733(10) 0.3595(3) 0.98082(18)
H46 H 0.9776 0.4337 0.9719
C70 C 0.98505(10) 0.2560(3) 0.96368(17)
C71 C 0.96957(10) 0.1454(3) 0.97616(17)
H47 H 0.9812 0.0755 0.9640
O41 O 0.83703(7) 0.6523(3) 0.98103(12)
O38 O 0.93948(7) 0.9280(2) 0.00325(12)
C33_2 C 0.80610(12) 0.0643(4) 0.0526(2)
C34_2 C 0.77503(13) 0.1046(4) 0.0199(2)
C35_2 C 0.82137(12) 0.2546(4) 0.0827(2)
H19_2 H 0.8373 0.3071 0.1043
C36_2 C 0.79134(11) 0.3015(4) 0.0501(2)
H20_2 H 0.7873 0.3839 0.0497
C37_2 C 0.76674(11) 0.2262(4) 0.01753(19)
H30_2 H 0.7407 0.4498 0.0008
H18_2 H 0.7593 0.0502 0.9992
C38_2 C 0.69390(12) 0.4357(4) 0.9474(2)
H29_2 H 0.6885 0.5173 0.9480
C39_2 C 0.72497(13) 0.3954(4) 0.9801(2)
C40_2 C 0.67863(12) 0.2454(4) 0.9173(2)
H31_2 H 0.6627 0.1929 0.8957
C41_2 C 0.70866(11) 0.1985(4) 0.9499(2)
H32_2 H 0.7127 0.1161 0.9503
C42_2 C 0.73326(11) 0.2738(4) 0.98247(19)
N6_2 N 0.67091(9) 0.3625(3) 0.91468(15)
Co17_2 Co 0.623485(13) 0.42880(5) 0.86300(2)
H17_2 H 0.8115 0.9827 0.0520
Co2_2 Co 0.597917(13) 0.28320(5) 0.32171(2)
O1_2 O 0.64286(6) 0.4118(2) 0.33614(11)
H1_2 H 0.6598 0.3755 0.3590
O2_2 O 0.66297(7) 0.8477(3) 0.01897(12)
O3_2 O 0.60505(6) 0.2526(2) 0.41619(11)
H2_2 H 0.6142 0.3206 0.4271
O4_2 O 0.62137(7) 0.7129(3) 0.04676(13)
O5_2 O 0.80140(7) 0.7773(3) 0.08944(13)
O6_2 O 0.55760(8) 0.1388(3) 0.31455(16)
H3_2 H 0.5355 0.1658 0.2919
H4_2 H 0.5683 0.0722 0.2940
O8_2 O 0.43099(7) 0.5843(3) 0.16343(13)
O9_2 O 0.44774(7) 0.3910(3) 0.15909(13)
O10_2 O 0.62412(7) 0.4691(3) 0.20862(13)
O11_2 O 0.58321(7) 0.3275(3) 0.23242(12)
O12_2 O 0.63408(7) 0.1456(2) 0.30152(12)
O13_2 O 0.67939(7) 0.2415(2) 0.25531(13)
O17_2 O 0.57276(7) 0.0632(2) 0.49681(13)
C1_2 C 0.65388(10) 0.7531(4) 0.04600(17)
C2_2 C 0.68470(10) 0.6807(4) 0.07800(17)
C3_2 C 0.67596(10) 0.5766(4) 0.10818(17)
H5_2 H 0.6510 0.5538 0.1103
C4_2 C 0.70408(10) 0.5058(4) 0.13527(17)
C5_2 C 0.74111(10) 0.5386(4) 0.13073(17)
H6_2 H 0.7601 0.4904 0.1479
C6_2 C 0.75005(10) 0.6432(4) 0.10072(17)
C7_2 C 0.72215(10) 0.7164(4) 0.07499(18)
H7_2 H 0.7282 0.7879 0.0561
C8_2 C 0.79073(11) 0.6715(4) 0.09459(17)
C9_2 C 0.45486(10) 0.5007(4) 0.16017(17)
C10_2 C 0.49527(10) 0.5365(4) 0.15605(17)
C11_2 C 0.50377(10) 0.6417(4) 0.12616(18)
H8_2 H 0.4845 0.6905 0.1103
C12_2 C 0.54064(10) 0.6743(4) 0.11983(17)
C13_2 C 0.56912(10) 0.6036(4) 0.14660(17)
H9_2 H 0.5940 0.6267 0.1442
C14_2 C 0.56069(10) 0.4992(4) 0.17672(17)
C15_2 C 0.52357(10) 0.4640(4) 0.18030(17)
H10_2 H 0.5178 0.3920 0.1989
C16_2 C 0.59175(10) 0.4258(4) 0.20824(17)
C17_2 C 0.66357(10) 0.1487(3) 0.27292(17)
C18_2 C 0.68180(10) 0.0318(3) 0.25775(17)
C19_2 C 0.71534(10) 0.0316(3) 0.22827(17)
H11_2 H 0.7261 0.1041 0.2177
N1_2 N 0.69540(9) 0.4032(3) 0.16939(14)
H21_2 H 0.7133 0.3428 0.1750
H22_2 H 0.6790 0.3604 0.1527
N2_2 N 0.54927(9) 0.7765(3) 0.08434(14)
H23_2 H 0.5309 0.8378 0.0850
H24_2 H 0.5705 0.8237 0.1042
H29_3 H 0.8115 0.0173 0.5520
Co7_2 Co 0.402083(13) 0.28320(5) 0.17829(2)
Co10_2 Co 0.428456(13) 0.75034(5) 0.50576(2)
O20_2 O 0.35714(6) 0.4118(2) 0.16386(11)
H33_2 H 0.3402 0.3755 0.1410
O21_2 O 0.33703(7) 0.8477(3) 0.48103(12)
O22_2 O 0.39495(6) 0.2526(2) 0.08381(11)
H34_2 H 0.3858 0.3206 0.0729
O23_2 O 0.37863(7) 0.7129(3) 0.45324(13)
O24_2 O 0.19860(7) 0.7773(3) 0.41056(13)
O25_2 O 0.44240(8) 0.1388(3) 0.18545(16)
H35_2 H 0.4645 0.1658 0.2081
H36_2 H 0.4317 0.0722 0.2060
O27_2 O 0.56901(7) 0.5843(3) 0.33657(13)
O28_2 O 0.55226(7) 0.3910(3) 0.34091(13)
O29_2 O 0.37588(7) 0.4691(3) 0.29138(13)
O30_2 O 0.41679(7) 0.3275(3) 0.26758(12)
O31_2 O 0.36592(7) 0.1456(2) 0.19848(12)
O32_2 O 0.32061(7) 0.2415(2) 0.24469(13)
O36_2 O 0.42724(7) 0.0632(2) 0.00319(13)
C43_2 C 0.34612(10) 0.7531(4) 0.45400(17)
C44_2 C 0.31530(10) 0.6807(4) 0.42200(17)
C45_2 C 0.32404(10) 0.5766(4) 0.39182(17)
H37_2 H 0.3490 0.5538 0.3897
C46_2 C 0.29592(10) 0.5058(4) 0.36473(17)
C47_2 C 0.25889(10) 0.5386(4) 0.36927(17)
H38_2 H 0.2399 0.4904 0.3521
C48_2 C 0.24995(10) 0.6432(4) 0.39928(17)
C49_2 C 0.27785(10) 0.7164(4) 0.42501(18)
H39_2 H 0.2718 0.7879 0.4439
C50_2 C 0.20927(11) 0.6715(4) 0.40541(17)
C51_2 C 0.54514(10) 0.5007(4) 0.33983(17)
C52_2 C 0.50473(10) 0.5365(4) 0.34395(17)
C53_2 C 0.49623(10) 0.6417(4) 0.37384(18)
H40_2 H 0.5155 0.6905 0.3897
C54_2 C 0.45936(10) 0.6743(4) 0.38017(17)
C55_2 C 0.43088(10) 0.6036(4) 0.35340(17)
H41_2 H 0.4060 0.6267 0.3558
C56_2 C 0.43931(10) 0.4992(4) 0.32328(17)
C57_2 C 0.47643(10) 0.4640(4) 0.31970(17)
H42_2 H 0.4822 0.3920 0.3011
C58_2 C 0.40825(10) 0.4258(4) 0.29176(17)
C59_2 C 0.33643(10) 0.1487(3) 0.22708(17)
C60_2 C 0.31820(10) 0.0318(3) 0.24225(17)
C61_2 C 0.28466(10) 0.0316(3) 0.27173(17)
H43_2 H 0.2739 0.1041 0.2823
N7_2 N 0.30460(9) 0.4032(3) 0.33061(14)
H49_2 H 0.2867 0.3428 0.3250
H50_2 H 0.3210 0.3604 0.3473
N8_2 N 0.45073(9) 0.7765(3) 0.41566(14)
H51_2 H 0.4691 0.8378 0.4150
H52_2 H 0.4295 0.8237 0.3958
Co15_2 Co 0.623485(13) 0.57120(5) 0.36300(2)
Co16_2 Co 0.376515(13) 0.57120(5) 0.13700(2)
Co20_2 Co 0.360445(14) 0.87983(5) 0.56423(3)
Co25_2 Co 0.428456(13) 0.24966(5) 0.00576(2)
Co27_2 Co 0.571544(13) 0.24966(5) 0.49424(2)
O42_2 O 0.66297(7) 0.1523(3) 0.51897(12)
O43_2 O 0.39495(6) 0.7474(2) 0.58381(11)
O49_2 O 0.68484(7) 0.6053(2) 0.26374(13)
O50_2 O 0.31516(7) 0.6053(2) 0.23626(13)
O51_2 O 0.42724(7) 0.9368(2) 0.50319(13)
O53_2 O 0.43948(7) 0.5720(2) 0.50325(12)
N13_2 N 0.47983(8) 0.7654(3) 0.56410(14)
Co5_2 Co 0.571544(13) 0.75034(5) 0.99424(2)
Co21_2 Co 0.639555(14) 0.87983(5) 0.93577(3)
O41_2 O 0.33703(7) 0.1523(3) 0.98103(12)
O44_2 O 0.60505(6) 0.7474(2) 0.91619(11)
O52_2 O 0.57276(7) 0.9368(2) 0.99681(13)
O54_2 O 0.56052(7) 0.5720(2) 0.99675(12)
N14_2 N 0.52017(8) 0.7654(3) 0.93590(14)
O15_2 O 0.63529(7) 0.6974(2) 0.29987(12)
O16_2 O 0.61119(7) 0.9665(2) 0.43794(13)
O18_2 O 0.60709(7) 0.5070(2) 0.44748(11)
O19_2 O 0.56052(7) 0.4280(2) 0.49675(12)
C20_2 C 0.73302(10) 0.9245(3) 0.21434(17)
C21_2 C 0.71656(10) 0.8172(4) 0.22888(17)
H12_2 H 0.7281 0.7453 0.2195
C22_2 C 0.68277(10) 0.8153(3) 0.25748(17)
C23_2 C 0.66546(10) 0.9231(3) 0.27224(17)
H13_2 H 0.6431 0.9221 0.2917
C24_2 C 0.66603(10) 0.6974(3) 0.27430(18)
C25_2 C 0.58442(10) 0.9692(4) 0.47306(18)
C26_2 C 0.56562(10) 0.8541(3) 0.48877(18)
C27_2 C 0.53267(10) 0.8595(3) 0.51918(18)
H14_2 H 0.5224 0.9337 0.5281
C28_2 C 0.51495(10) 0.7560(3) 0.53632(17)
C29_2 C 0.53043(10) 0.6454(3) 0.52384(17)
H15_2 H 0.5188 0.5755 0.5360
C30_2 C 0.56341(10) 0.6383(3) 0.49321(17)
C31_2 C 0.58093(10) 0.7436(3) 0.47528(17)
H16_2 H 0.6028 0.7395 0.4544
C32_2 C 0.57853(10) 0.5160(3) 0.47780(17)
C33_3 C 0.69390(12) 0.5643(4) 0.4474(2)
H17_3 H 0.6885 0.4827 0.4480
C34_3 C 0.72497(13) 0.6046(4) 0.4801(2)
H18_3 H 0.7407 0.5502 0.5008
C35_3 C 0.67863(12) 0.7546(4) 0.4173(2)
H19_3 H 0.6627 0.8071 0.3957
C36_3 C 0.70866(11) 0.8015(4) 0.4499(2)
H20_3 H 0.7127 0.8839 0.4503
C37_3 C 0.73326(11) 0.7262(4) 0.48247(19)
H25_2 H 0.7708 0.8732 0.1536
H26_2 H 0.7721 0.9851 0.1618
H27_2 H 0.4776 0.8274 0.5841
H28_2 H 0.4768 0.7088 0.5868
N5_2 N 0.67091(9) 0.6375(3) 0.41468(15)
C38_3 C 0.80610(12) 0.9357(4) 0.5526(2)
C39_3 C 0.77503(13) 0.8954(4) 0.5199(2)
H30_3 H 0.7593 0.9498 0.4992
C40_3 C 0.82137(12) 0.7454(4) 0.5827(2)
H31_3 H 0.8373 0.6929 0.6043
C41_3 C 0.79134(11) 0.6985(4) 0.5501(2)
H32_3 H 0.7873 0.6161 0.5497
C42_3 C 0.76674(11) 0.7738(4) 0.51753(19)
N6_3 N 0.82909(9) 0.8625(3) 0.58532(15)
O34_2 O 0.36471(7) 0.6974(2) 0.20013(12)
O35_2 O 0.38881(7) 0.9665(2) 0.06206(13)
O37_2 O 0.39291(7) 0.5070(2) 0.05252(11)
O38_2 O 0.43948(7) 0.4280(2) 0.00325(12)
C62_2 C 0.26698(10) 0.9245(3) 0.28566(17)
C63_2 C 0.28344(10) 0.8172(4) 0.27112(17)
H44_2 H 0.2719 0.7453 0.2805
C64_2 C 0.31723(10) 0.8153(3) 0.24252(17)
C65_2 C 0.33454(10) 0.9231(3) 0.22776(17)
H45_2 H 0.3569 0.9221 0.2083
C66_2 C 0.33397(10) 0.6974(3) 0.22570(18)
C67_2 C 0.41558(10) 0.9692(4) 0.02694(18)
C68_2 C 0.43438(10) 0.8541(3) 0.01123(18)
C72_2 C 0.43659(10) 0.6383(3) 0.00679(17)
C73_2 C 0.41907(10) 0.7436(3) 0.02472(17)
H48_2 H 0.3972 0.7395 0.0456
C74_2 C 0.42147(10) 0.5160(3) 0.02220(17)
H53_2 H 0.2292 0.8732 0.3464
H54_2 H 0.2279 0.9851 0.3382
Co17_3 Co 0.876515(13) 0.92880(5) 0.63700(2)
N15_2 N 0.32909(9) 0.6375(3) 0.08532(15)
C69_2 C 0.46733(10) 0.8595(3) 0.98082(18)
H46_2 H 0.4776 0.9337 0.9719
C70_2 C 0.48505(10) 0.7560(3) 0.96368(17)
C71_2 C 0.46957(10) 0.6454(3) 0.97616(17)
H47_2 H 0.4812 0.5755 0.9640
H55_2 H 0.5224 0.8274 0.9159
H56_2 H 0.5232 0.7088 0.9132
H29_4 H 0.1885 0.0173 0.9480
C33_4 C 0.30610(12) 0.5643(4) 0.0526(2)
H17_4 H 0.3115 0.4827 0.0520
C34_4 C 0.27503(13) 0.6046(4) 0.0199(2)
C35_4 C 0.32137(12) 0.7546(4) 0.0827(2)
H19_4 H 0.3373 0.8071 0.1043
C36_4 C 0.29134(11) 0.8015(4) 0.0501(2)
H20_4 H 0.2873 0.8839 0.0497
C37_4 C 0.26674(11) 0.7262(4) 0.01753(19)
H30_4 H 0.2407 0.9498 0.0008
H18_4 H 0.2593 0.5502 0.9992
C38_4 C 0.19390(12) 0.9357(4) 0.9474(2)
C39_4 C 0.22497(13) 0.8954(4) 0.9801(2)
C40_4 C 0.17863(12) 0.7454(4) 0.9173(2)
H31_4 H 0.1627 0.6929 0.8957
C41_4 C 0.20866(11) 0.6985(4) 0.9499(2)
H32_4 H 0.2127 0.6161 0.9503
C42_4 C 0.23326(11) 0.7738(4) 0.98247(19)
N6_4 N 0.17091(9) 0.8625(3) 0.91468(15)
Co17_4 Co 0.123485(13) 0.92880(5) 0.86300(2)
Co12 Co 0.172992(13) 0.07489(5) 0.75921(2)
O40 O 0.14286(6) 0.0882(2) 0.83614(11)
C69_3 C 0.03267(10) 0.6405(3) 0.01918(18)
H46_3 H 0.0224 0.5663 0.0281
C70_3 C 0.01495(10) 0.7440(3) 0.03632(17)
C71_3 C 0.03043(10) 0.8546(3) 0.02384(17)
H47_3 H 0.0188 0.9245 0.0360
O9_3 O 0.05226(7) 0.1090(3) 0.84091(13)
N4 N 0.02017(8) 0.7346(3) 0.43590(14)
H27_3 H 0.0224 0.6726 0.4159
H28_3 H 0.0232 0.7912 0.4132
Co7_3 Co 0.097917(13) 0.21680(5) 0.82171(2)
H33_3 H 0.1598 0.1245 0.8590
H34_3 H 0.1142 0.1794 0.9271
O25_3 O 0.05760(8) 0.3612(3) 0.81455(16)
H35_3 H 0.0355 0.3342 0.7919
H36_3 H 0.0683 0.4278 0.7940
O29_3 O 0.12412(7) 0.0309(3) 0.70862(13)
O30_3 O 0.08321(7) 0.1725(3) 0.73242(12)
O31_3 O 0.13408(7) 0.3544(2) 0.80152(12)
O32_3 O 0.17939(7) 0.2585(2) 0.75531(13)
O33 O 0.18484(7) 0.8947(2) 0.76374(13)
O34_3 O 0.13529(7) 0.8026(2) 0.79987(12)
O35_3 O 0.11119(7) 0.5335(2) 0.93794(13)
O37_3 O 0.10709(7) 0.9930(2) 0.94748(11)
H38_3 H 0.2601 0.0096 0.6479
C56_3 C 0.06069(10) 0.0008(4) 0.67672(17)
C57_3 C 0.02357(10) 0.0360(4) 0.68030(17)
H42_3 H 0.0178 0.1080 0.6989
C58_3 C 0.09175(10) 0.0742(4) 0.70824(17)
C59_3 C 0.16357(10) 0.3513(3) 0.77292(17)
C60_3 C 0.18180(10) 0.4682(3) 0.75775(17)
C61_3 C 0.21534(10) 0.4684(3) 0.72827(17)
H43_3 H 0.2261 0.3959 0.7177
C62_3 C 0.23302(10) 0.5755(3) 0.71434(17)
C63_3 C 0.21656(10) 0.6828(4) 0.72888(17)
H44_3 H 0.2281 0.7547 0.7195
C64_3 C 0.18277(10) 0.6847(3) 0.75748(17)
C65_3 C 0.16546(10) 0.5769(3) 0.77224(17)
H45_3 H 0.1431 0.5779 0.7917
C66_3 C 0.16603(10) 0.8026(3) 0.77430(18)
C67_3 C 0.08442(10) 0.5308(4) 0.97306(18)
C68_3 C 0.06562(10) 0.6459(3) 0.98877(18)
C72_3 C 0.06341(10) 0.8617(3) 0.99321(17)
C73_3 C 0.08093(10) 0.7564(3) 0.97528(17)
H48_3 H 0.1028 0.7605 0.9544
C74_3 C 0.07853(10) 0.9840(3) 0.97780(17)
N7_3 N 0.19540(9) 0.0968(3) 0.66939(14)
H49_3 H 0.2133 0.1572 0.6750
H50_3 H 0.1790 0.1396 0.6527
N9_2 N 0.26832(8) 0.5739(3) 0.68683(15)
H53_3 H 0.2708 0.6268 0.6536
H54_3 H 0.2721 0.5149 0.6618
Co13_2 Co 0.327008(13) 0.57489(5) 0.74079(2)
O45_2 O 0.18777(7) 0.4201(2) 0.90436(12)
O47 O 0.06901(7) 0.9157(3) 0.83657(13)
N11_2 N 0.23168(8) 0.0739(3) 0.81317(15)
C9_3 C 0.04514(10) 0.9993(4) 0.83983(17)
C10_3 C 0.00473(10) 0.9635(4) 0.84395(17)
H8_3 H 0.0155 0.8095 0.8897
O23_3 O 0.12137(7) 0.7871(3) 0.54676(13)
O24_3 O 0.30140(7) 0.7227(3) 0.58944(13)
O26_2 O 0.31223(7) 0.9201(2) 0.59564(12)
C43_3 C 0.15388(10) 0.7469(4) 0.54600(17)
C44_3 C 0.18470(10) 0.8193(4) 0.57800(17)
C45_3 C 0.17596(10) 0.9234(4) 0.60818(17)
H37_3 H 0.1510 0.9462 0.6103
C46_3 C 0.20408(10) 0.9942(4) 0.63527(17)
C47_3 C 0.24111(10) 0.9614(4) 0.63073(17)
C48_3 C 0.25005(10) 0.8568(4) 0.60072(17)
C49_3 C 0.22215(10) 0.7836(4) 0.57499(18)
H39_3 H 0.2282 0.7121 0.5561
C50_3 C 0.29073(11) 0.8285(4) 0.59459(17)
C53_3 C 0.00377(10) 0.8583(4) 0.62616(18)
C54_3 C 0.04064(10) 0.8257(4) 0.61983(17)
C55_3 C 0.06912(10) 0.8964(4) 0.64660(17)
H41_3 H 0.0940 0.8733 0.6442
N8_3 N 0.04927(9) 0.7235(3) 0.58434(14)
H51_3 H 0.0309 0.6622 0.5850
H52_3 H 0.0705 0.6763 0.6042
Co11 Co 0.827008(13) 0.07489(5) 0.74079(2)
O39 O 0.85714(6) 0.0882(2) 0.66386(11)
N10 N 0.97983(8) 0.7346(3) 0.06410(14)
H55_3 H 0.9776 0.6726 0.0841
H56_3 H 0.9768 0.7912 0.0868
Co2_3 Co 0.902083(13) 0.21680(5) 0.67829(2)
H1_3 H 0.8402 0.1245 0.6410
H2_3 H 0.8858 0.1794 0.5729
O6_3 O 0.94240(8) 0.3612(3) 0.68545(16)
H3_3 H 0.9645 0.3342 0.7081
H4_3 H 0.9317 0.4278 0.7060
O10_3 O 0.87588(7) 0.0309(3) 0.79138(13)
O11_3 O 0.91679(7) 0.1725(3) 0.76758(12)
O12_3 O 0.86592(7) 0.3544(2) 0.69848(12)
O13_3 O 0.82061(7) 0.2585(2) 0.74469(13)
O14 O 0.81516(7) 0.8947(2) 0.73626(13)
O15_3 O 0.86471(7) 0.8026(2) 0.70013(12)
O16_3 O 0.88881(7) 0.5335(2) 0.56206(13)
O18_3 O 0.89291(7) 0.9930(2) 0.55252(11)
H6_3 H 0.7399 0.0096 0.8521
C14_3 C 0.93931(10) 0.0008(4) 0.82328(17)
C15_3 C 0.97643(10) 0.0360(4) 0.81970(17)
H10_3 H 0.9822 0.1080 0.8011
C16_3 C 0.90825(10) 0.0742(4) 0.79176(17)
C17_3 C 0.83643(10) 0.3513(3) 0.72708(17)
C18_3 C 0.81820(10) 0.4682(3) 0.74225(17)
C19_3 C 0.78466(10) 0.4684(3) 0.77173(17)
H11_3 H 0.7739 0.3959 0.7823
C20_3 C 0.76698(10) 0.5755(3) 0.78566(17)
C21_3 C 0.78344(10) 0.6828(4) 0.77112(17)
H12_3 H 0.7719 0.7547 0.7805
C22_3 C 0.81723(10) 0.6847(3) 0.74252(17)
C23_3 C 0.83454(10) 0.5769(3) 0.72776(17)
H13_3 H 0.8569 0.5779 0.7083
C24_3 C 0.83397(10) 0.8026(3) 0.72570(18)
C25_3 C 0.91558(10) 0.5308(4) 0.52694(18)
C26_3 C 0.93438(10) 0.6459(3) 0.51123(18)
C27_3 C 0.96733(10) 0.6405(3) 0.48082(18)
H14_3 H 0.9776 0.5663 0.4719
C28_3 C 0.98505(10) 0.7440(3) 0.46368(17)
C29_3 C 0.96957(10) 0.8546(3) 0.47616(17)
H15_3 H 0.9812 0.9245 0.4640
C30_3 C 0.93659(10) 0.8617(3) 0.50679(17)
C31_3 C 0.91907(10) 0.7564(3) 0.52472(17)
H16_3 H 0.8972 0.7605 0.5456
C32_3 C 0.92147(10) 0.9840(3) 0.52220(17)
N1_3 N 0.80460(9) 0.0968(3) 0.83061(14)
H21_3 H 0.7867 0.1572 0.8250
H22_3 H 0.8210 0.1396 0.8473
N3_2 N 0.73168(8) 0.5739(3) 0.81317(15)
H25_3 H 0.7292 0.6268 0.8464
H26_3 H 0.7279 0.5149 0.8382
O28_3 O 0.94774(7) 0.1090(3) 0.65909(13)
Co14_2 Co 0.672992(13) 0.57489(5) 0.75921(2)
O46_2 O 0.81223(7) 0.4201(2) 0.59564(12)
O48 O 0.93099(7) 0.9157(3) 0.66343(13)
N12_2 N 0.76832(8) 0.0739(3) 0.68683(15)
O4_3 O 0.87863(7) 0.7871(3) 0.95324(13)
O5_3 O 0.69860(7) 0.7227(3) 0.91056(13)
O7_2 O 0.68777(7) 0.9201(2) 0.90436(12)
C1_3 C 0.84612(10) 0.7469(4) 0.95400(17)
C2_3 C 0.81530(10) 0.8193(4) 0.92200(17)
C3_3 C 0.82404(10) 0.9234(4) 0.89182(17)
H5_3 H 0.8490 0.9462 0.8897
C4_3 C 0.79592(10) 0.9942(4) 0.86473(17)
C5_3 C 0.75889(10) 0.9614(4) 0.86927(17)
C6_3 C 0.74995(10) 0.8568(4) 0.89928(17)
C7_3 C 0.77785(10) 0.7836(4) 0.92501(18)
H7_3 H 0.7718 0.7121 0.9439
C8_3 C 0.70927(11) 0.8285(4) 0.90541(17)
C11_3 C 0.99623(10) 0.8583(4) 0.87384(18)
C12_3 C 0.95936(10) 0.8257(4) 0.88017(17)
C13_3 C 0.93088(10) 0.8964(4) 0.85340(17)
H9_3 H 0.9060 0.8733 0.8558
N2_3 N 0.95073(9) 0.7235(3) 0.91566(14)
H23_3 H 0.9691 0.6622 0.9150
H24_3 H 0.9295 0.6763 0.8958
C51_3 C 0.95486(10) 0.9993(4) 0.66017(17)
C52_3 C 0.99527(10) 0.9635(4) 0.65605(17)
H40_3 H 0.9845 0.8095 0.6103
C69_4 C 0.53267(10) 0.1405(3) 0.01918(18)
H46_4 H 0.5224 0.0663 0.0281
C70_4 C 0.51495(10) 0.2440(3) 0.03632(17)
C71_4 C 0.53043(10) 0.3546(3) 0.02384(17)
H47_4 H 0.5188 0.4245 0.0360
N10_2 N 0.47983(8) 0.2346(3) 0.06410(14)
H55_4 H 0.4776 0.1726 0.0841
H56_4 H 0.4768 0.2912 0.0868
O14_2 O 0.31516(7) 0.3947(2) 0.73626(13)
O15_4 O 0.36471(7) 0.3026(2) 0.70013(12)
O16_4 O 0.38881(7) 0.0335(2) 0.56206(13)
O18_4 O 0.39291(7) 0.4930(2) 0.55252(11)
C20_4 C 0.26698(10) 0.0755(3) 0.78566(17)
C21_4 C 0.28344(10) 0.1828(4) 0.77112(17)
H12_4 H 0.2719 0.2547 0.7805
C22_4 C 0.31723(10) 0.1847(3) 0.74252(17)
C23_4 C 0.33454(10) 0.0769(3) 0.72776(17)
H13_4 H 0.3569 0.0779 0.7083
C24_4 C 0.33397(10) 0.3026(3) 0.72570(18)
C25_4 C 0.41558(10) 0.0308(4) 0.52694(18)
C26_4 C 0.43438(10) 0.1459(3) 0.51123(18)
C27_4 C 0.46733(10) 0.1405(3) 0.48082(18)
H14_4 H 0.4776 0.0663 0.4719
C28_4 C 0.48505(10) 0.2440(3) 0.46368(17)
C29_4 C 0.46957(10) 0.3546(3) 0.47616(17)
H15_4 H 0.4812 0.4245 0.4640
C30_4 C 0.43659(10) 0.3617(3) 0.50679(17)
C31_4 C 0.41907(10) 0.2564(3) 0.52472(17)
H16_4 H 0.3972 0.2605 0.5456
C32_4 C 0.42147(10) 0.4840(3) 0.52220(17)
H25_4 H 0.2292 0.1268 0.8464
H26_4 H 0.2279 0.0149 0.8382
N4_2 N 0.52017(8) 0.2346(3) 0.43590(14)
H27_4 H 0.5224 0.1726 0.4159
H28_4 H 0.5232 0.2912 0.4132
O33_2 O 0.68484(7) 0.3947(2) 0.76374(13)
O34_4 O 0.63529(7) 0.3026(2) 0.79987(12)
O35_4 O 0.61119(7) 0.0335(2) 0.93794(13)
O37_4 O 0.60709(7) 0.4930(2) 0.94748(11)
C62_4 C 0.73302(10) 0.0755(3) 0.71434(17)
C63_4 C 0.71656(10) 0.1828(4) 0.72888(17)
H44_4 H 0.7281 0.2547 0.7195
C64_4 C 0.68277(10) 0.1847(3) 0.75748(17)
C65_4 C 0.66546(10) 0.0769(3) 0.77224(17)
H45_4 H 0.6431 0.0779 0.7917
C66_4 C 0.66603(10) 0.3026(3) 0.77430(18)
C67_4 C 0.58442(10) 0.0308(4) 0.97306(18)
C68_4 C 0.56562(10) 0.1459(3) 0.98877(18)
C72_4 C 0.56341(10) 0.3617(3) 0.99321(17)
C73_4 C 0.58093(10) 0.2564(3) 0.97528(17)
H48_4 H 0.6028 0.2605 0.9544
C74_4 C 0.57853(10) 0.4840(3) 0.97780(17)
H53_4 H 0.7708 0.1268 0.6536
H54_4 H 0.7721 0.0149 0.6618
O39_2 O 0.35714(6) 0.5882(2) 0.66386(11)
O40_2 O 0.64286(6) 0.5882(2) 0.83614(11)
O47_2 O 0.56901(7) 0.4157(3) 0.83657(13)
O48_2 O 0.43099(7) 0.4157(3) 0.66343(13)
Co2_4 Co 0.402083(13) 0.71680(5) 0.67829(2)
H1_4 H 0.3402 0.6245 0.6410
H2_4 H 0.3858 0.6794 0.5729
O4_4 O 0.37863(7) 0.2871(3) 0.95324(13)
O5_4 O 0.19860(7) 0.2227(3) 0.91056(13)
O6_4 O 0.44240(8) 0.8612(3) 0.68545(16)
H3_4 H 0.4645 0.8342 0.7081
H4_4 H 0.4317 0.9278 0.7060
O9_4 O 0.55226(7) 0.6090(3) 0.84091(13)
O10_4 O 0.37588(7) 0.5309(3) 0.79138(13)
O11_4 O 0.41679(7) 0.6725(3) 0.76758(12)
O12_4 O 0.36592(7) 0.8544(2) 0.69848(12)
O13_4 O 0.32061(7) 0.7585(2) 0.74469(13)
C1_4 C 0.34612(10) 0.2469(4) 0.95400(17)
C2_4 C 0.31530(10) 0.3193(4) 0.92200(17)
C3_4 C 0.32404(10) 0.4234(4) 0.89182(17)
H5_4 H 0.3490 0.4462 0.8897
C4_4 C 0.29592(10) 0.4942(4) 0.86473(17)
C5_4 C 0.25889(10) 0.4614(4) 0.86927(17)
H6_4 H 0.2399 0.5096 0.8521
C6_4 C 0.24995(10) 0.3568(4) 0.89928(17)
C7_4 C 0.27785(10) 0.2836(4) 0.92501(18)
H7_4 H 0.2718 0.2121 0.9439
C8_4 C 0.20927(11) 0.3285(4) 0.90541(17)
C9_4 C 0.54514(10) 0.4993(4) 0.83983(17)
C10_4 C 0.50473(10) 0.4635(4) 0.84395(17)
C11_4 C 0.49623(10) 0.3583(4) 0.87384(18)
H8_4 H 0.5155 0.3095 0.8897
C12_4 C 0.45936(10) 0.3257(4) 0.88017(17)
C13_4 C 0.43088(10) 0.3964(4) 0.85340(17)
H9_4 H 0.4060 0.3733 0.8558
C14_4 C 0.43931(10) 0.5008(4) 0.82328(17)
C15_4 C 0.47643(10) 0.5360(4) 0.81970(17)
H10_4 H 0.4822 0.6080 0.8011
C16_4 C 0.40825(10) 0.5742(4) 0.79176(17)
C17_4 C 0.33643(10) 0.8513(3) 0.72708(17)
C18_4 C 0.31820(10) 0.9682(3) 0.74225(17)
C19_4 C 0.28466(10) 0.9684(3) 0.77173(17)
H11_4 H 0.2739 0.8959 0.7823
N1_4 N 0.30460(9) 0.5968(3) 0.83061(14)
H21_4 H 0.2867 0.6572 0.8250
H22_4 H 0.3210 0.6396 0.8473
N2_4 N 0.45073(9) 0.2235(3) 0.91566(14)
H23_4 H 0.4691 0.1622 0.9150
H24_4 H 0.4295 0.1763 0.8958
Co7_4 Co 0.597917(13) 0.71680(5) 0.82171(2)
H33_4 H 0.6598 0.6245 0.8590
H34_4 H 0.6142 0.6794 0.9271
O23_4 O 0.62137(7) 0.2871(3) 0.54676(13)
O24_4 O 0.80140(7) 0.2227(3) 0.58944(13)
O25_4 O 0.55760(8) 0.8612(3) 0.81455(16)
H35_4 H 0.5355 0.8342 0.7919
H36_4 H 0.5683 0.9278 0.7940
O28_4 O 0.44774(7) 0.6090(3) 0.65909(13)
O29_4 O 0.62412(7) 0.5309(3) 0.70862(13)
O30_4 O 0.58321(7) 0.6725(3) 0.73242(12)
O31_4 O 0.63408(7) 0.8544(2) 0.80152(12)
O32_4 O 0.67939(7) 0.7585(2) 0.75531(13)
C43_4 C 0.65388(10) 0.2469(4) 0.54600(17)
C44_4 C 0.68470(10) 0.3193(4) 0.57800(17)
C45_4 C 0.67596(10) 0.4234(4) 0.60818(17)
H37_4 H 0.6510 0.4462 0.6103
C46_4 C 0.70408(10) 0.4942(4) 0.63527(17)
C47_4 C 0.74111(10) 0.4614(4) 0.63073(17)
H38_4 H 0.7601 0.5096 0.6479
C48_4 C 0.75005(10) 0.3568(4) 0.60072(17)
C49_4 C 0.72215(10) 0.2836(4) 0.57499(18)
H39_4 H 0.7282 0.2121 0.5561
C50_4 C 0.79073(11) 0.3285(4) 0.59459(17)
C51_4 C 0.45486(10) 0.4993(4) 0.66017(17)
C52_4 C 0.49527(10) 0.4635(4) 0.65605(17)
C53_4 C 0.50377(10) 0.3583(4) 0.62616(18)
H40_4 H 0.4845 0.3095 0.6103
C54_4 C 0.54064(10) 0.3257(4) 0.61983(17)
C55_4 C 0.56912(10) 0.3964(4) 0.64660(17)
H41_4 H 0.5940 0.3733 0.6442
C56_4 C 0.56069(10) 0.5008(4) 0.67672(17)
C57_4 C 0.52357(10) 0.5360(4) 0.68030(17)
H42_4 H 0.5178 0.6080 0.6989
C58_4 C 0.59175(10) 0.5742(4) 0.70824(17)
C59_4 C 0.66357(10) 0.8513(3) 0.77292(17)
C60_4 C 0.68180(10) 0.9682(3) 0.75775(17)
C61_4 C 0.71534(10) 0.9684(3) 0.72827(17)
H43_4 H 0.7261 0.8959 0.7177
N7_4 N 0.69540(9) 0.5968(3) 0.66939(14)
H49_4 H 0.7133 0.6572 0.6750
H50_4 H 0.6790 0.6396 0.6527
N8_4 N 0.54927(9) 0.2235(3) 0.58434(14)
H51_4 H 0.5309 0.1622 0.5850
H52_4 H 0.5705 0.1763 0.6042
loop_
_geom_bond_atom_site_label_1
_geom_bond_atom_site_label_2
_geom_bond_site_symmetry_1
_geom_bond_site_symmetry_2
O2 C1 1_555 1_555
O4 C1 1_555 1_555
O5 C8 1_555 1_555
O7 C8 1_555 1_555
C1 C2 1_555 1_555
C2 C3 1_555 1_555
C3 H5 1_555 1_555
C4 C3 1_555 1_555
C5 C4 1_555 1_555
C6 C5 1_555 1_555
C7 C2 1_555 1_555
H7 C7 1_555 1_555
C8 C6 1_555 1_555
C12 C11 1_555 1_555
C13 C12 1_555 1_555
H9 C13 1_555 1_555
H23 N2 1_555 1_555
H24 N2 1_555 1_555
O27 C51 1_555 1_555
C52 C51 1_555 1_555
Co19 O7 1_555 1_555
C6 C7 1_555 1_555
C12 N2 1_555 1_555
O27 Co15 1_555 1_555
O44 Co5 1_555 1_555
O52 Co5 1_555 1_555
O54 Co5 1_555 1_555
N14 Co5 1_555 1_555
Co21 O44 1_555 1_555
Co1 O1 1_555 1_555
Co2 O1 1_555 1_555
Co15 O15 1_555 1_555
Co4 O3 1_555 1_555
O1 H1 1_555 1_555
O3 Co2 1_555 1_555
H2 O3 1_555 1_555
O6 Co2 1_555 1_555
H3 O6 1_555 1_555
H4 O6 1_555 1_555
O10 Co1 1_555 1_555
O11 Co2 1_555 1_555
O12 Co2 1_555 1_555
O13 Co1 1_555 1_555
O49 C24 1_555 1_555
O15 C24 1_555 1_555
O16 Co4 1_555 1_555
O17 C25 1_555 1_555
O18 Co15 1_555 1_555
H10 C15 1_555 1_555
C16 O10 1_555 1_555
C17 O12 1_555 1_555
C18 C17 1_555 1_555
C19 C18 1_555 1_555
H11 C19 1_555 1_555
C20 C19 1_555 1_555
C21 C20 1_555 1_555
H12 C21 1_555 1_555
C22 C21 1_555 1_555
C23 C18 1_555 1_555
H13 C23 1_555 1_555
C24 C22 1_555 1_555
C25 O16 1_555 1_555
C26 C25 1_555 1_555
C27 C26 1_555 1_555
H14 C27 1_555 1_555
C28 C27 1_555 1_555
C29 C28 1_555 1_555
H15 C29 1_555 1_555
C30 C29 1_555 1_555
C31 C26 1_555 1_555
H16 C31 1_555 1_555
C32 O18 1_555 1_555
C34 C33 1_555 1_555
H18 C34 1_555 1_555
C35 H19 1_555 1_555
C36 C35 1_555 1_555
H20 C36 1_555 1_555
C37 C34 1_555 1_555
N1 Co1 1_555 1_555
H21 N1 1_555 1_555
H22 N1 1_555 1_555
N3 C20 1_555 1_555
H25 N3 1_555 1_555
H26 N3 1_555 1_555
N5 Co15 1_555 1_555
C38 H29 1_555 1_555
C39 C38 1_555 1_555
H30 C39 1_555 1_555
C40 H31 1_555 1_555
C41 C40 1_555 1_555
H32 C41 1_555 1_555
C42 C37 1_555 1_555
N6 C38 1_555 1_555
O28 Co2 1_555 1_555
Co14 N3 1_555 1_555
Co17 N6 1_555 1_555
Co27 O3 1_555 1_555
O42 Co4 1_555 1_555
O46 Co4 1_555 1_555
N12 Co1 1_555 1_555
O11 C16 1_555 1_555
O13 C17 1_555 1_555
O17 Co27 1_555 1_555
C14 C15 1_555 1_555
C14 C16 1_555 1_555
C22 C23 1_555 1_555
C30 C31 1_555 1_555
C30 C32 1_555 1_555
C33 N5 1_555 1_555
C35 N5 1_555 1_555
C36 C37 1_555 1_555
C39 C42 1_555 1_555
C40 N6 1_555 1_555
C41 C42 1_555 1_555
H55 N14 1_555 1_555
H56 N14 1_555 1_555
Co27 O19 1_555 1_555
O8 C9 1_555 1_555
C9 C10 1_555 1_555
Co10 O23 1_555 1_555
O21 C43 1_555 1_555
O23 C43 1_555 1_555
O24 C50 1_555 1_555
O26 C50 1_555 1_555
C43 C44 1_555 1_555
C44 C45 1_555 1_555
C45 H37 1_555 1_555
C46 C45 1_555 1_555
C47 C46 1_555 1_555
C48 C47 1_555 1_555
C49 C44 1_555 1_555
H39 C49 1_555 1_555
C50 C48 1_555 1_555
C54 C53 1_555 1_555
C55 C54 1_555 1_555
H41 C55 1_555 1_555
N8 Co10 1_555 1_555
H51 N8 1_555 1_555
H52 N8 1_555 1_555
Co16 O8 1_555 1_555
Co18 O26 1_555 1_555
Co20 O21 1_555 1_555
O43 Co10 1_555 1_555
O51 Co10 1_555 1_555
O53 Co10 1_555 1_555
N13 Co10 1_555 1_555
C48 C49 1_555 1_555
C54 N8 1_555 1_555
Co20 O43 1_555 1_555
H27 N13 1_555 1_555
H28 N13 1_555 1_555
Co6 O20 1_555 1_555
Co7 O9 1_555 1_555
Co16 O34 1_555 1_555
Co9 O22 1_555 1_555
O20 Co7 1_555 1_555
H33 O20 1_555 1_555
O22 Co7 1_555 1_555
H34 O22 1_555 1_555
O25 Co7 1_555 1_555
H35 O25 1_555 1_555
H36 O25 1_555 1_555
O29 Co6 1_555 1_555
O30 Co7 1_555 1_555
O31 Co7 1_555 1_555
O32 Co6 1_555 1_555
O50 C66 1_555 1_555
O34 C66 1_555 1_555
O35 Co9 1_555 1_555
O36 C67 1_555 1_555
O37 Co16 1_555 1_555
H42 C57 1_555 1_555
C58 O29 1_555 1_555
C59 O31 1_555 1_555
C60 C59 1_555 1_555
C61 C60 1_555 1_555
H43 C61 1_555 1_555
C62 C61 1_555 1_555
C63 C62 1_555 1_555
H44 C63 1_555 1_555
C64 C63 1_555 1_555
C65 C60 1_555 1_555
H45 C65 1_555 1_555
C66 C64 1_555 1_555
C67 O35 1_555 1_555
C68 C67 1_555 1_555
C73 C68 1_555 1_555
H48 C73 1_555 1_555
C74 O37 1_555 1_555
N7 Co6 1_555 1_555
H49 N7 1_555 1_555
H50 N7 1_555 1_555
N9 C62 1_555 1_555
H53 N9 1_555 1_555
H54 N9 1_555 1_555
Co13 N9 1_555 1_555
Co25 O22 1_555 1_555
O45 Co9 1_555 1_555
N11 Co6 1_555 1_555
N15 Co16 1_555 1_555
O30 C58 1_555 1_555
O32 C59 1_555 1_555
O36 Co25 1_555 1_555
C56 C57 1_555 1_555
C56 C58 1_555 1_555
C64 C65 1_555 1_555
C72 C73 1_555 1_555
C72 C74 1_555 1_555
H46 C69 1_555 1_555
C70 C69 1_555 1_555
C71 C70 1_555 1_555
H47 C71 1_555 1_555
Co25 O38 1_555 1_555
C34_2 C33_2 1_555 1_555
C35_2 H19_2 1_555 1_555
C36_2 C35_2 1_555 1_555
H20_2 C36_2 1_555 1_555
C37_2 C34_2 1_555 1_555
C33_2 N15 1_555 1_555
C35_2 N15 1_555 1_555
C36_2 C37_2 1_555 1_555
C38_2 H29_2 1_555 1_555
C39_2 C38_2 1_555 1_555
C40_2 H31_2 1_555 1_555
C41_2 C40_2 1_555 1_555
H32_2 C41_2 1_555 1_555
N6_2 C38_2 1_555 1_555
Co17_2 N6_2 1_555 1_555
C39_2 C42_2 1_555 1_555
C40_2 N6_2 1_555 1_555
C41_2 C42_2 1_555 1_555
Co13 O1_2 1_555 1_555
Co2_2 O1_2 1_555 1_555
Co18 O3_2 1_555 1_555
O1_2 H1_2 1_555 1_555
O2_2 C1_2 1_555 1_555
O3_2 Co2_2 1_555 1_555
H2_2 O3_2 1_555 1_555
O4_2 C1_2 1_555 1_555
O5_2 C8_2 1_555 1_555
O6_2 Co2_2 1_555 1_555
H3_2 O6_2 1_555 1_555
H4_2 O6_2 1_555 1_555
O45 C8_2 1_555 1_555
O8_2 C9_2 1_555 1_555
O9_2 C9_2 1_555 1_555
O10_2 Co13 1_555 1_555
O11_2 Co2_2 1_555 1_555
O12_2 Co2_2 1_555 1_555
O13_2 Co13 1_555 1_555
C1_2 C2_2 1_555 1_555
C2_2 C3_2 1_555 1_555
C3_2 H5_2 1_555 1_555
C4_2 C3_2 1_555 1_555
C5_2 C4_2 1_555 1_555
H6_2 C5_2 1_555 1_555
C6_2 C5_2 1_555 1_555
C7_2 C2_2 1_555 1_555
H7_2 C7_2 1_555 1_555
C8_2 C6_2 1_555 1_555
C9_2 C10_2 1_555 1_555
C10_2 C11_2 1_555 1_555
C11_2 H8_2 1_555 1_555
C12_2 C11_2 1_555 1_555
C13_2 C12_2 1_555 1_555
H9_2 C13_2 1_555 1_555
C14_2 C13_2 1_555 1_555
C15_2 C10_2 1_555 1_555
H10_2 C15_2 1_555 1_555
C16_2 O10_2 1_555 1_555
C17_2 O12_2 1_555 1_555
C18_2 C17_2 1_555 1_555
C19_2 C18_2 1_555 1_555
H11_2 C19_2 1_555 1_555
N1_2 Co13 1_555 1_555
H21_2 N1_2 1_555 1_555
H22_2 N1_2 1_555 1_555
H23_2 N2_2 1_555 1_555
H24_2 N2_2 1_555 1_555
Co14 O20_2 1_555 1_555
Co7_2 O9_2 1_555 1_555
Co19 O22_2 1_555 1_555
Co10_2 O23_2 1_555 1_555
O20_2 Co7_2 1_555 1_555
H33_2 O20_2 1_555 1_555
O21_2 C43_2 1_555 1_555
O22_2 Co7_2 1_555 1_555
H34_2 O22_2 1_555 1_555
O23_2 C43_2 1_555 1_555
O24_2 C50_2 1_555 1_555
O25_2 Co7_2 1_555 1_555
H35_2 O25_2 1_555 1_555
H36_2 O25_2 1_555 1_555
O46 C50_2 1_555 1_555
O27_2 C51_2 1_555 1_555
O28_2 Co2_2 1_555 1_555
O29_2 Co14 1_555 1_555
O30_2 Co7_2 1_555 1_555
O31_2 Co7_2 1_555 1_555
O32_2 Co14 1_555 1_555
C43_2 C44_2 1_555 1_555
C44_2 C45_2 1_555 1_555
C45_2 H37_2 1_555 1_555
C46_2 C45_2 1_555 1_555
C47_2 C46_2 1_555 1_555
H38_2 C47_2 1_555 1_555
C48_2 C47_2 1_555 1_555
C49_2 C44_2 1_555 1_555
H39_2 C49_2 1_555 1_555
C50_2 C48_2 1_555 1_555
C51_2 O28_2 1_555 1_555
C52_2 C51_2 1_555 1_555
C53_2 C52_2 1_555 1_555
H40_2 C53_2 1_555 1_555
C54_2 C53_2 1_555 1_555
C55_2 C54_2 1_555 1_555
H41_2 C55_2 1_555 1_555
C56_2 C55_2 1_555 1_555
C57_2 C52_2 1_555 1_555
H42_2 C57_2 1_555 1_555
C58_2 O29_2 1_555 1_555
C59_2 O31_2 1_555 1_555
C60_2 C59_2 1_555 1_555
C61_2 C60_2 1_555 1_555
H43_2 C61_2 1_555 1_555
N7_2 Co14 1_555 1_555
H49_2 N7_2 1_555 1_555
H50_2 N7_2 1_555 1_555
N8_2 Co10_2 1_555 1_555
H51_2 N8_2 1_555 1_555
H52_2 N8_2 1_555 1_555
Co15_2 O1_2 1_555 1_555
Co16_2 O8_2 1_555 1_555
Co20_2 O21_2 1_555 1_555
Co25_2 O22_2 1_555 1_555
Co27_2 O3_2 1_555 1_555
O42_2 Co18 1_555 1_555
O43_2 Co10_2 1_555 1_555
O49_2 Co13 1_555 1_555
O50_2 Co14 1_555 1_555
O51_2 Co10_2 1_555 1_555
O53_2 Co10_2 1_555 1_555
N13_2 Co10_2 1_555 1_555
O11_2 C16_2 1_555 1_555
O13_2 C17_2 1_555 1_555
O17_2 Co27_2 1_555 1_555
C4_2 N1_2 1_555 1_555
C6_2 C7_2 1_555 1_555
C12_2 N2_2 1_555 1_555
C14_2 C15_2 1_555 1_555
C14_2 C16_2 1_555 1_555
O20_2 Co16_2 1_555 1_555
O27_2 Co15_2 1_555 1_555
O30_2 C58_2 1_555 1_555
O32_2 C59_2 1_555 1_555
O36_2 Co25_2 1_555 1_555
C46_2 N7_2 1_555 1_555
C48_2 C49_2 1_555 1_555
C54_2 N8_2 1_555 1_555
C56_2 C57_2 1_555 1_555
C56_2 C58_2 1_555 1_555
Co20_2 O43_2 1_555 1_555
O44_2 Co5_2 1_555 1_555
O52_2 Co5_2 1_555 1_555
O54_2 Co5_2 1_555 1_555
N14_2 Co5_2 1_555 1_555
Co21_2 O44_2 1_555 1_555
Co15_2 O15_2 1_555 1_555
O49_2 C24_2 1_555 1_555
O15_2 C24_2 1_555 1_555
O18_2 Co15_2 1_555 1_555
O19_2 C32_2 1_555 1_555
C21_2 C20_2 1_555 1_555
H12_2 C21_2 1_555 1_555
C22_2 C21_2 1_555 1_555
H13_2 C23_2 1_555 1_555
C24_2 C22_2 1_555 1_555
C25_2 O16_2 1_555 1_555
C26_2 C25_2 1_555 1_555
C27_2 C26_2 1_555 1_555
H14_2 C27_2 1_555 1_555
C28_2 C27_2 1_555 1_555
C29_2 C28_2 1_555 1_555
H15_2 C29_2 1_555 1_555
C30_2 C29_2 1_555 1_555
C31_2 C26_2 1_555 1_555
H16_2 C31_2 1_555 1_555
C32_2 O18_2 1_555 1_555
C33_3 H17_3 1_555 1_555
C34_3 C33_3 1_555 1_555
H18_3 C34_3 1_555 1_555
C35_3 H19_3 1_555 1_555
C36_3 C35_3 1_555 1_555
H20_3 C36_3 1_555 1_555
C37_3 C34_3 1_555 1_555
N11 C20_2 1_555 1_555
H25_2 N11 1_555 1_555
H26_2 N11 1_555 1_555
N13_2 C28_2 1_555 1_555
H27_2 N13_2 1_555 1_555
H28_2 N13_2 1_555 1_555
N5_2 Co15_2 1_555 1_555
C39_3 C38_3 1_555 1_555
H30_3 C39_3 1_555 1_555
C40_3 H31_3 1_555 1_555
C41_3 C40_3 1_555 1_555
H32_3 C41_3 1_555 1_555
C42_3 C37_3 1_555 1_555
N6_3 C38_3 1_555 1_555
Co16_2 O34_2 1_555 1_555
O50_2 C66_2 1_555 1_555
O34_2 C66_2 1_555 1_555
O37_2 Co16_2 1_555 1_555
O38_2 C74_2 1_555 1_555
C63_2 C62_2 1_555 1_555
H44_2 C63_2 1_555 1_555
C64_2 C63_2 1_555 1_555
H45_2 C65_2 1_555 1_555
C66_2 C64_2 1_555 1_555
C67_2 O35_2 1_555 1_555
C68_2 C67_2 1_555 1_555
C73_2 C68_2 1_555 1_555
H48_2 C73_2 1_555 1_555
C74_2 O37_2 1_555 1_555
N12 C62_2 1_555 1_555
H53_2 N12 1_555 1_555
H54_2 N12 1_555 1_555
Co17_3 N6_3 1_555 1_555
Co25_2 O38_2 1_555 1_555
Co27_2 O19_2 1_555 1_555
N15_2 Co16_2 1_555 1_555
C22_2 C23_2 1_555 1_555
C30_2 C31_2 1_555 1_555
C30_2 C32_2 1_555 1_555
C33_3 N5_2 1_555 1_555
C35_3 N5_2 1_555 1_555
C36_3 C37_3 1_555 1_555
C39_3 C42_3 1_555 1_555
C40_3 N6_3 1_555 1_555
C41_3 C42_3 1_555 1_555
C64_2 C65_2 1_555 1_555
C72_2 C73_2 1_555 1_555
C72_2 C74_2 1_555 1_555
H46_2 C69_2 1_555 1_555
C70_2 C69_2 1_555 1_555
C71_2 C70_2 1_555 1_555
H47_2 C71_2 1_555 1_555
N14_2 C70_2 1_555 1_555
H55_2 N14_2 1_555 1_555
H56_2 N14_2 1_555 1_555
C33_4 H17_4 1_555 1_555
C34_4 C33_4 1_555 1_555
C35_4 H19_4 1_555 1_555
C36_4 C35_4 1_555 1_555
H20_4 C36_4 1_555 1_555
C37_4 C34_4 1_555 1_555
C33_4 N15_2 1_555 1_555
C35_4 N15_2 1_555 1_555
C36_4 C37_4 1_555 1_555
C39_4 C38_4 1_555 1_555
C40_4 H31_4 1_555 1_555
C41_4 C40_4 1_555 1_555
H32_4 C41_4 1_555 1_555
N6_4 C38_4 1_555 1_555
Co17_4 N6_4 1_555 1_555
C39_4 C42_4 1_555 1_555
C40_4 N6_4 1_555 1_555
C41_4 C42_4 1_555 1_555
Co12 O40 1_555 1_555
H46_3 C69_3 1_555 1_555
C70_3 C69_3 1_555 1_555
C71_3 C70_3 1_555 1_555
H47_3 C71_3 1_555 1_555
H27_3 N4 1_555 1_555
H28_3 N4 1_555 1_555
Co7_3 O9_3 1_555 1_555
Co17_4 O34_3 1_555 1_555
O40 Co7_3 1_555 1_555
H33_3 O40 1_555 1_555
O44 Co7_3 1_555 1_555
H34_3 O44 1_555 1_555
O25_3 Co7_3 1_555 1_555
H35_3 O25_3 1_555 1_555
H36_3 O25_3 1_555 1_555
O29_3 Co12 1_555 1_555
O30_3 Co7_3 1_555 1_555
O31_3 Co7_3 1_555 1_555
O32_3 Co12 1_555 1_555
O33 C66_3 1_555 1_555
O34_3 C66_3 1_555 1_555
O35_3 Co21 1_555 1_555
O52 C67_3 1_555 1_555
O37_3 Co17_4 1_555 1_555
H42_3 C57_3 1_555 1_555
C58_3 O29_3 1_555 1_555
C59_3 O31_3 1_555 1_555
C60_3 C59_3 1_555 1_555
C61_3 C60_3 1_555 1_555
H43_3 C61_3 1_555 1_555
C62_3 C61_3 1_555 1_555
C63_3 C62_3 1_555 1_555
H44_3 C63_3 1_555 1_555
C64_3 C63_3 1_555 1_555
C65_3 C60_3 1_555 1_555
H45_3 C65_3 1_555 1_555
C66_3 C64_3 1_555 1_555
C67_3 O35_3 1_555 1_555
C68_3 C67_3 1_555 1_555
C73_3 C68_3 1_555 1_555
H48_3 C73_3 1_555 1_555
C74_3 O37_3 1_555 1_555
N7_3 Co12 1_555 1_555
H49_3 N7_3 1_555 1_555
H50_3 N7_3 1_555 1_555
N9_2 C62_3 1_555 1_555
H53_3 N9_2 1_555 1_555
H54_3 N9_2 1_555 1_555
Co13_2 N9_2 1_555 1_555
Co27 N4 1_555 1_555
O45_2 Co21 1_555 1_555
O47 Co17_4 1_555 1_555
N11_2 Co12 1_555 1_555
O30_3 C58_3 1_555 1_555
O32_3 C59_3 1_555 1_555
C56_3 C57_3 1_555 1_555
C56_3 C58_3 1_555 1_555
C64_3 C65_3 1_555 1_555
C72_3 C73_3 1_555 1_555
C72_3 C74_3 1_555 1_555
O47 C9_3 1_555 1_555
C9_3 C10_3 1_555 1_555
Co27 O23_3 1_555 1_555
O42 C43_3 1_555 1_555
O23_3 C43_3 1_555 1_555
O24_3 C50_3 1_555 1_555
O26_2 C50_3 1_555 1_555
C43_3 C44_3 1_555 1_555
C44_3 C45_3 1_555 1_555
C45_3 H37_3 1_555 1_555
C46_3 C45_3 1_555 1_555
C47_3 C46_3 1_555 1_555
C48_3 C47_3 1_555 1_555
C49_3 C44_3 1_555 1_555
H39_3 C49_3 1_555 1_555
C50_3 C48_3 1_555 1_555
C54_3 C53_3 1_555 1_555
C55_3 C54_3 1_555 1_555
H41_3 C55_3 1_555 1_555
N8_3 Co27 1_555 1_555
H51_3 N8_3 1_555 1_555
H52_3 N8_3 1_555 1_555
Co20_2 O26_2 1_555 1_555
C48_3 C49_3 1_555 1_555
C54_3 N8_3 1_555 1_555
Co11 O39 1_555 1_555
H55_3 N10 1_555 1_555
H56_3 N10 1_555 1_555
Co25 N10 1_555 1_555
Co2_3 O39 1_555 1_555
Co17_3 O15_3 1_555 1_555
O39 H1_3 1_555 1_555
O43 Co2_3 1_555 1_555
H2_3 O43 1_555 1_555
O6_3 Co2_3 1_555 1_555
H3_3 O6_3 1_555 1_555
H4_3 O6_3 1_555 1_555
O10_3 Co11 1_555 1_555
O11_3 Co2_3 1_555 1_555
O12_3 Co2_3 1_555 1_555
O13_3 Co11 1_555 1_555
O14 C24_3 1_555 1_555
O15_3 C24_3 1_555 1_555
O16_3 Co20 1_555 1_555
O51 C25_3 1_555 1_555
O18_3 Co17_3 1_555 1_555
H10_3 C15_3 1_555 1_555
C16_3 O10_3 1_555 1_555
C17_3 O12_3 1_555 1_555
C18_3 C17_3 1_555 1_555
C19_3 C18_3 1_555 1_555
H11_3 C19_3 1_555 1_555
C20_3 C19_3 1_555 1_555
C21_3 C20_3 1_555 1_555
H12_3 C21_3 1_555 1_555
C22_3 C21_3 1_555 1_555
C23_3 C18_3 1_555 1_555
H13_3 C23_3 1_555 1_555
C24_3 C22_3 1_555 1_555
C25_3 O16_3 1_555 1_555
C26_3 C25_3 1_555 1_555
C27_3 C26_3 1_555 1_555
H14_3 C27_3 1_555 1_555
C28_3 C27_3 1_555 1_555
C29_3 C28_3 1_555 1_555
H15_3 C29_3 1_555 1_555
C30_3 C29_3 1_555 1_555
C31_3 C26_3 1_555 1_555
H16_3 C31_3 1_555 1_555
C32_3 O18_3 1_555 1_555
N1_3 Co11 1_555 1_555
H21_3 N1_3 1_555 1_555
H22_3 N1_3 1_555 1_555
N3_2 C20_3 1_555 1_555
H25_3 N3_2 1_555 1_555
H26_3 N3_2 1_555 1_555
O28_3 Co2_3 1_555 1_555
Co14_2 N3_2 1_555 1_555
O46_2 Co20 1_555 1_555
O48 Co17_3 1_555 1_555
N12_2 Co11 1_555 1_555
O11_3 C16_3 1_555 1_555
O13_3 C17_3 1_555 1_555
C14_3 C15_3 1_555 1_555
C14_3 C16_3 1_555 1_555
C22_3 C23_3 1_555 1_555
C30_3 C31_3 1_555 1_555
C30_3 C32_3 1_555 1_555
O41 C1_3 1_555 1_555
O4_3 C1_3 1_555 1_555
O5_3 C8_3 1_555 1_555
O7_2 C8_3 1_555 1_555
C1_3 C2_3 1_555 1_555
C2_3 C3_3 1_555 1_555
C3_3 H5_3 1_555 1_555
C4_3 C3_3 1_555 1_555
C5_3 C4_3 1_555 1_555
C6_3 C5_3 1_555 1_555
C7_3 C2_3 1_555 1_555
H7_3 C7_3 1_555 1_555
C8_3 C6_3 1_555 1_555
C12_3 C11_3 1_555 1_555
C13_3 C12_3 1_555 1_555
H9_3 C13_3 1_555 1_555
H23_3 N2_3 1_555 1_555
H24_3 N2_3 1_555 1_555
O48 C51_3 1_555 1_555
C52_3 C51_3 1_555 1_555
Co21_2 O7_2 1_555 1_555
C6_3 C7_3 1_555 1_555
C12_3 N2_3 1_555 1_555
H46_4 C69_4 1_555 1_555
C70_4 C69_4 1_555 1_555
C71_4 C70_4 1_555 1_555
H47_4 C71_4 1_555 1_555
N10_2 C70_4 1_555 1_555
H55_4 N10_2 1_555 1_555
H56_4 N10_2 1_555 1_555
Co25_2 N10_2 1_555 1_555
Co17 O15_4 1_555 1_555
O14_2 C24_4 1_555 1_555
O15_4 C24_4 1_555 1_555
O18_4 Co17 1_555 1_555
O53_2 C32_4 1_555 1_555
C21_4 C20_4 1_555 1_555
H12_4 C21_4 1_555 1_555
C22_4 C21_4 1_555 1_555
H13_4 C23_4 1_555 1_555
C24_4 C22_4 1_555 1_555
C25_4 O16_4 1_555 1_555
C26_4 C25_4 1_555 1_555
C27_4 C26_4 1_555 1_555
H14_4 C27_4 1_555 1_555
C28_4 C27_4 1_555 1_555
C29_4 C28_4 1_555 1_555
H15_4 C29_4 1_555 1_555
C30_4 C29_4 1_555 1_555
C31_4 C26_4 1_555 1_555
H16_4 C31_4 1_555 1_555
C32_4 O18_4 1_555 1_555
N11_2 C20_4 1_555 1_555
H25_4 N11_2 1_555 1_555
H26_4 N11_2 1_555 1_555
N4_2 C28_4 1_555 1_555
H27_4 N4_2 1_555 1_555
H28_4 N4_2 1_555 1_555
Co17_2 O34_4 1_555 1_555
O33_2 C66_4 1_555 1_555
O34_4 C66_4 1_555 1_555
O37_4 Co17_2 1_555 1_555
O54_2 C74_4 1_555 1_555
C63_4 C62_4 1_555 1_555
H44_4 C63_4 1_555 1_555
C64_4 C63_4 1_555 1_555
H45_4 C65_4 1_555 1_555
C66_4 C64_4 1_555 1_555
C67_4 O35_4 1_555 1_555
C68_4 C67_4 1_555 1_555
C73_4 C68_4 1_555 1_555
H48_4 C73_4 1_555 1_555
C74_4 O37_4 1_555 1_555
N12_2 C62_4 1_555 1_555
H53_4 N12_2 1_555 1_555
H54_4 N12_2 1_555 1_555
Co13_2 O14_2 1_555 1_555
Co14_2 O33_2 1_555 1_555
Co27_2 N4_2 1_555 1_555
O39_2 Co17 1_555 1_555
O40_2 Co17_2 1_555 1_555
O47_2 Co17_2 1_555 1_555
O48_2 Co17 1_555 1_555
C22_4 C23_4 1_555 1_555
C30_4 C31_4 1_555 1_555
C30_4 C32_4 1_555 1_555
C64_4 C65_4 1_555 1_555
C72_4 C73_4 1_555 1_555
C72_4 C74_4 1_555 1_555
Co13_2 O39_2 1_555 1_555
Co14_2 O40_2 1_555 1_555
Co2_4 O39_2 1_555 1_555
O39_2 H1_4 1_555 1_555
O41_2 C1_4 1_555 1_555
O43_2 Co2_4 1_555 1_555
H2_4 O43_2 1_555 1_555
O4_4 C1_4 1_555 1_555
O5_4 C8_4 1_555 1_555
O6_4 Co2_4 1_555 1_555
H3_4 O6_4 1_555 1_555
H4_4 O6_4 1_555 1_555
O45_2 C8_4 1_555 1_555
O47_2 C9_4 1_555 1_555
O9_4 C9_4 1_555 1_555
O10_4 Co13_2 1_555 1_555
O11_4 Co2_4 1_555 1_555
O12_4 Co2_4 1_555 1_555
O13_4 Co13_2 1_555 1_555
C1_4 C2_4 1_555 1_555
C2_4 C3_4 1_555 1_555
C3_4 H5_4 1_555 1_555
C4_4 C3_4 1_555 1_555
C5_4 C4_4 1_555 1_555
H6_4 C5_4 1_555 1_555
C6_4 C5_4 1_555 1_555
C7_4 C2_4 1_555 1_555
H7_4 C7_4 1_555 1_555
C8_4 C6_4 1_555 1_555
C9_4 C10_4 1_555 1_555
C10_4 C11_4 1_555 1_555
C11_4 H8_4 1_555 1_555
C12_4 C11_4 1_555 1_555
C13_4 C12_4 1_555 1_555
H9_4 C13_4 1_555 1_555
C14_4 C13_4 1_555 1_555
C15_4 C10_4 1_555 1_555
H10_4 C15_4 1_555 1_555
C16_4 O10_4 1_555 1_555
C17_4 O12_4 1_555 1_555
C18_4 C17_4 1_555 1_555
C19_4 C18_4 1_555 1_555
H11_4 C19_4 1_555 1_555
N1_4 Co13_2 1_555 1_555
H21_4 N1_4 1_555 1_555
H22_4 N1_4 1_555 1_555
H23_4 N2_4 1_555 1_555
H24_4 N2_4 1_555 1_555
Co7_4 O9_4 1_555 1_555
Co27_2 O23_4 1_555 1_555
O40_2 Co7_4 1_555 1_555
H33_4 O40_2 1_555 1_555
O42_2 C43_4 1_555 1_555
O44_2 Co7_4 1_555 1_555
H34_4 O44_2 1_555 1_555
O23_4 C43_4 1_555 1_555
O24_4 C50_4 1_555 1_555
O25_4 Co7_4 1_555 1_555
H35_4 O25_4 1_555 1_555
H36_4 O25_4 1_555 1_555
O46_2 C50_4 1_555 1_555
O48_2 C51_4 1_555 1_555
O28_4 Co2_4 1_555 1_555
O29_4 Co14_2 1_555 1_555
O30_4 Co7_4 1_555 1_555
O31_4 Co7_4 1_555 1_555
O32_4 Co14_2 1_555 1_555
C43_4 C44_4 1_555 1_555
C44_4 C45_4 1_555 1_555
C45_4 H37_4 1_555 1_555
C46_4 C45_4 1_555 1_555
C47_4 C46_4 1_555 1_555
H38_4 C47_4 1_555 1_555
C48_4 C47_4 1_555 1_555
C49_4 C44_4 1_555 1_555
H39_4 C49_4 1_555 1_555
C50_4 C48_4 1_555 1_555
C51_4 O28_4 1_555 1_555
C52_4 C51_4 1_555 1_555
C53_4 C52_4 1_555 1_555
H40_4 C53_4 1_555 1_555
C54_4 C53_4 1_555 1_555
C55_4 C54_4 1_555 1_555
H41_4 C55_4 1_555 1_555
C56_4 C55_4 1_555 1_555
C57_4 C52_4 1_555 1_555
H42_4 C57_4 1_555 1_555
C58_4 O29_4 1_555 1_555
C59_4 O31_4 1_555 1_555
C60_4 C59_4 1_555 1_555
C61_4 C60_4 1_555 1_555
H43_4 C61_4 1_555 1_555
N7_4 Co14_2 1_555 1_555
H49_4 N7_4 1_555 1_555
H50_4 N7_4 1_555 1_555
N8_4 Co27_2 1_555 1_555
H51_4 N8_4 1_555 1_555
H52_4 N8_4 1_555 1_555
O11_4 C16_4 1_555 1_555
O13_4 C17_4 1_555 1_555
C4_4 N1_4 1_555 1_555
C6_4 C7_4 1_555 1_555
C12_4 N2_4 1_555 1_555
C14_4 C15_4 1_555 1_555
C14_4 C16_4 1_555 1_555
O30_4 C58_4 1_555 1_555
O32_4 C59_4 1_555 1_555
C46_4 N7_4 1_555 1_555
C48_4 C49_4 1_555 1_555
C54_4 N8_4 1_555 1_555
C56_4 C57_4 1_555 1_555
C56_4 C58_4 1_555 1_555

#END
