
###############################################################################
#
# This file contains modified crystal structure data generated from the
# MOF subset of the Cambridge Structural Database (CSD) v543 
# hosted by the Cambridge Crystallographic Data Centre (CCDC).
#
# This work is licensed under the Creative Commons
# Attribution-NonCommercial-ShareAlike 4.0 International License.
# To view a copy of this license, visit
# http://creativecommons.org/licenses/by-nc-sa/4.0/
# or send a letter to
# Creative Commons, PO Box 1866, Mountain View, CA 94042, USA.
#
# CIF created using the CSD Python API on 29 September 2022
# The structure has been converted into the P1 space group
# The structure has a 3D framework
# The original CSD entry BAZBOU is in the monoclinic crystal system
# The original CSD entry BAZBOU is in a Sohncke space group
# The framework has been calculated to contain at least 10.0% void space
# The void calculation uses a probe of radius 1.32A, grid spacing 0.4
#
###############################################################################

data_BAZBOU
_chemical_formula_moiety         '(C204 H120 Co10 N12 O46)n'
_symmetry_cell_setting           triclinic
_symmetry_space_group_name_H-M   'P 1'
_symmetry_Int_Tables_number      1
_space_group_name_Hall           'P 1'
loop_
_symmetry_equiv_pos_site_id
_symmetry_equiv_pos_as_xyz
1 x,y,z
_cell_length_a                   17.209(4)
_cell_length_b                   19.865(5)
_cell_length_c                   13.880(11)
_cell_angle_alpha                90
_cell_angle_beta                 95.81(4)
_cell_angle_gamma                90
_cell_volume                     4720.6
loop_
_atom_site_label
_atom_site_type_symbol
_atom_site_fract_x
_atom_site_fract_y
_atom_site_fract_z
Co7 Co 0.16470(9) 0.03969(9) 0.43317(12)
Co8 Co 0.17337(9) 0.03859(9) 0.23746(12)
O3 O 0.0833(7) 0.1136(5) 0.4022(10)
O4 O 0.0921(7) 0.1103(6) 0.2477(8)
O7 O 0.0795(6) 0.9711(5) 0.4033(8)
O8 O 0.0900(7) 0.9644(6) 0.2419(9)
C5 C 0.0116(11) 0.2362(11) 0.2311(15)
H3 H 0.0421 0.2240 0.1822
C6 C 0.0118(10) 0.1969(7) 0.3135(13)
C12 C 0.0656(8) 0.1354(8) 0.3190(11)
C17 C 0.0128(10) 0.8405(7) 0.2264(10)
H9 H 0.0434 0.8493 0.1763
C18 C 0.0126(9) 0.8860(8) 0.3068(13)
C24 C 0.0650(10) 0.9449(8) 0.3199(14)
O18 O 0.2537(7) 0.1132(6) 0.2704(9)
N5 N 0.1722(6) 0.0391(10) 0.0880(8)
O21 O 0.2471(7) 0.1120(6) 0.4256(8)
N6 N 0.1679(5) 0.0374(9) 0.5825(7)
C66 C 0.7291(9) 0.5625(10) 0.0429(11)
H38 H 0.7729 0.5793 0.0800
N4 N 0.6722(6) 0.5391(10) 0.0880(8)
C67 C 0.6192(9) 0.5023(10) 0.0347(9)
H39 H 0.5829 0.4785 0.0665
Co12 Co 0.67337(9) 0.53859(9) 0.23746(12)
Co2 Co 0.66470(9) 0.53969(9) 0.43317(12)
O1 O 0.7583(6) 0.4690(5) 0.2679(8)
O2 O 0.7473(7) 0.4654(5) 0.4290(9)
O5 O 0.7537(7) 0.6132(6) 0.2704(9)
O6 O 0.7471(7) 0.6120(6) 0.4256(8)
C1 C 0.8249(9) 0.3851(9) 0.3639(13)
C2 C 0.8731(12) 0.3688(9) 0.2885(13)
H1 H 0.8734 0.3962 0.2343
C3 C 0.9201(11) 0.3105(9) 0.2982(12)
C4 C 0.9668(12) 0.2928(12) 0.2217(14)
H2 H 0.9664 0.3195 0.1667
C7 C 0.9645(9) 0.2093(9) 0.3778(13)
H4 H 0.9604 0.1779 0.4267
C8 C 0.9191(11) 0.2676(10) 0.3774(14)
C9 C 0.8698(12) 0.2829(8) 0.4451(14)
H5 H 0.8665 0.2526 0.4956
C10 C 0.8243(11) 0.3404(9) 0.4440(11)
H6 H 0.7942 0.3497 0.4943
C11 C 0.7730(10) 0.4437(8) 0.3516(13)
C13 C 0.8255(9) 0.6971(7) 0.3587(11)
C14 C 0.8715(8) 0.7095(7) 0.2913(12)
H7 H 0.8736 0.6790 0.2409
C15 C 0.9179(11) 0.7679(8) 0.2933(13)
C16 C 0.9668(10) 0.7833(7) 0.2249(12)
H8 H 0.9694 0.7533 0.1739
C19 C 0.9626(11) 0.8713(8) 0.3810(11)
H10 H 0.9616 0.8997 0.4341
C20 C 0.9148(10) 0.8131(8) 0.3722(13)
C21 C 0.8679(11) 0.7954(11) 0.4484(13)
H11 H 0.8678 0.8222 0.5033
C22 C 0.8241(10) 0.7392(10) 0.4388(14)
H12 H 0.7922 0.7282 0.4867
C23 C 0.7736(8) 0.6348(8) 0.3520(11)
O9 O 0.2583(6) 0.9690(5) 0.2679(8)
O10 O 0.2473(7) 0.9654(5) 0.4290(9)
O11 O 0.5833(7) 0.6136(5) 0.4022(10)
O12 O 0.5921(7) 0.6103(6) 0.2477(8)
C35 C 0.3249(9) 0.8851(9) 0.3639(13)
C36 C 0.3731(12) 0.8688(9) 0.2885(13)
H21 H 0.3734 0.8962 0.2343
C37 C 0.4201(11) 0.8105(9) 0.2982(12)
C38 C 0.4668(12) 0.7928(12) 0.2217(14)
H22 H 0.4664 0.8195 0.1667
C39 C 0.5116(11) 0.7362(11) 0.2311(15)
H23 H 0.5421 0.7240 0.1822
C40 C 0.5118(10) 0.6969(7) 0.3135(13)
C41 C 0.4645(9) 0.7093(9) 0.3778(13)
H24 H 0.4604 0.6779 0.4267
C42 C 0.4191(11) 0.7676(10) 0.3774(14)
C43 C 0.3698(12) 0.7829(8) 0.4451(14)
H25 H 0.3665 0.7526 0.4956
C44 C 0.3243(11) 0.8404(9) 0.4440(11)
H26 H 0.2942 0.8497 0.4943
C45 C 0.2730(10) 0.9437(8) 0.3516(13)
C46 C 0.5656(8) 0.6354(8) 0.3190(11)
O15 O 0.5795(6) 0.4711(5) 0.4033(8)
O16 O 0.5900(7) 0.4644(6) 0.2419(9)
C47 C 0.3255(9) 0.1971(7) 0.3587(11)
C48 C 0.3715(8) 0.2095(7) 0.2913(12)
H27 H 0.3736 0.1790 0.2409
C49 C 0.4179(11) 0.2679(8) 0.2933(13)
C50 C 0.4668(10) 0.2833(7) 0.2249(12)
H28 H 0.4694 0.2533 0.1739
C51 C 0.5128(10) 0.3405(7) 0.2264(10)
H29 H 0.5434 0.3493 0.1763
C52 C 0.5126(9) 0.3860(8) 0.3068(13)
C53 C 0.4626(11) 0.3713(8) 0.3810(11)
H30 H 0.4616 0.3997 0.4341
C54 C 0.4148(10) 0.3131(8) 0.3722(13)
C55 C 0.3679(11) 0.2954(11) 0.4484(13)
H31 H 0.3678 0.3222 0.5033
C56 C 0.3241(10) 0.2392(10) 0.4388(14)
H32 H 0.2922 0.2282 0.4867
C57 C 0.2736(8) 0.1348(8) 0.3520(11)
C58 C 0.5650(10) 0.4449(8) 0.3199(14)
N3 N 0.6679(5) 0.5374(9) 0.5825(7)
C59 C 0.7329(7) 0.5276(12) 0.6385(10)
H33 H 0.7788 0.5208 0.6097
C60 C 0.7362(8) 0.5271(13) 0.7358(9)
H34 H 0.7840 0.5198 0.7718
C61 C 0.6701(8) 0.5370(12) 0.7838(8)
C62 C 0.6017(7) 0.5379(11) 0.7229(10)
H35 H 0.5540 0.5382 0.7490
C63 C 0.6030(7) 0.5384(11) 0.6249(10)
H36 H 0.5557 0.5396 0.5861
C64 C 0.6703(8) 0.5384(12) 0.8905(9)
C65 C 0.7288(10) 0.5641(11) 0.9459(12)
H37 H 0.7703 0.5835 0.9181
C68 C 0.6149(8) 0.4973(9) 0.9337(10)
H40 H 0.5791 0.4697 0.8979
C66_2 C 0.2291(9) 0.0625(10) 0.0429(11)
H38_2 H 0.2729 0.0793 0.0800
C67_2 C 0.1192(9) 0.0023(10) 0.0347(9)
C59_2 C 0.2329(7) 0.0276(12) 0.6385(10)
H33_2 H 0.2788 0.0208 0.6097
C60_2 C 0.2362(8) 0.0271(13) 0.7358(9)
H34_2 H 0.2840 0.0198 0.7718
C61_2 C 0.1701(8) 0.0370(12) 0.7838(8)
C62_2 C 0.1017(7) 0.0379(11) 0.7229(10)
H35_2 H 0.0540 0.0382 0.7490
C63_2 C 0.1030(7) 0.0384(11) 0.6249(10)
H36_2 H 0.0557 0.0396 0.5861
C64_2 C 0.1703(8) 0.0384(12) 0.8905(9)
C65_2 C 0.2288(10) 0.0641(11) 0.9459(12)
H37_2 H 0.2703 0.0835 0.9181
H39_2 H 0.0829 0.9785 0.0665
C68_2 C 0.1149(8) 0.9973(9) 0.9337(10)
H40_2 H 0.0791 0.9697 0.8979
Co3 Co 0.82663(9) 0.03859(9) 0.76254(12)
Co4 Co 0.83530(9) 0.03969(9) 0.56683(12)
O17 O 0.9079(7) 0.1103(6) 0.7523(8)
O18_2 O 0.7463(7) 0.1132(6) 0.7296(9)
N5_2 N 0.8278(6) 0.0391(10) 0.9120(8)
O20 O 0.9167(7) 0.1136(5) 0.5978(10)
O21_2 O 0.7529(7) 0.1120(6) 0.5744(8)
N6_2 N 0.8321(5) 0.0374(9) 0.4175(7)
N1 N 0.3321(5) 0.5374(9) 0.4175(7)
C25 C 0.2671(7) 0.5276(12) 0.3615(10)
H13 H 0.2212 0.5208 0.3903
C26 C 0.2638(8) 0.5271(13) 0.2642(9)
H14 H 0.2160 0.5198 0.2282
C27 C 0.3299(8) 0.5370(12) 0.2162(8)
C28 C 0.3983(7) 0.5379(11) 0.2771(10)
H15 H 0.4460 0.5382 0.2510
C29 C 0.3970(7) 0.5384(11) 0.3751(10)
H16 H 0.4443 0.5396 0.4139
C30 C 0.3297(8) 0.5384(12) 0.1095(9)
C31 C 0.2712(10) 0.5641(11) 0.0541(12)
H17 H 0.2297 0.5835 0.0819
C34 C 0.3851(8) 0.4973(9) 0.0663(10)
H20 H 0.4209 0.4697 0.1021
Co9 Co 0.33530(9) 0.53969(9) 0.56683(12)
Co1 Co 0.32663(9) 0.53859(9) 0.76254(12)
O1_2 O 0.2417(6) 0.4690(5) 0.7321(8)
O2_2 O 0.2527(7) 0.4654(5) 0.5710(9)
O5_2 O 0.2463(7) 0.6132(6) 0.7296(9)
O6_2 O 0.2529(7) 0.6120(6) 0.5744(8)
C1_2 C 0.1751(9) 0.3851(9) 0.6361(13)
C2_2 C 0.1269(12) 0.3688(9) 0.7115(13)
H1_2 H 0.1266 0.3962 0.7657
C3_2 C 0.0799(11) 0.3105(9) 0.7018(12)
C4_2 C 0.0332(12) 0.2928(12) 0.7783(14)
H2_2 H 0.0336 0.3195 0.8333
C7_2 C 0.0355(9) 0.2093(9) 0.6222(13)
H4_2 H 0.0396 0.1779 0.5733
C8_2 C 0.0809(11) 0.2676(10) 0.6226(14)
C9_2 C 0.1302(12) 0.2829(8) 0.5549(14)
H5_2 H 0.1335 0.2526 0.5044
C10_2 C 0.1757(11) 0.3404(9) 0.5560(11)
H6_2 H 0.2058 0.3497 0.5057
C11_2 C 0.2270(10) 0.4437(8) 0.6484(13)
C13_2 C 0.1745(9) 0.6971(7) 0.6413(11)
C14_2 C 0.1285(8) 0.7095(7) 0.7087(12)
H7_2 H 0.1264 0.6790 0.7591
C15_2 C 0.0821(11) 0.7679(8) 0.7067(13)
C16_2 C 0.0332(10) 0.7833(7) 0.7751(12)
H8_2 H 0.0306 0.7533 0.8261
C19_2 C 0.0374(11) 0.8713(8) 0.6190(11)
H10_2 H 0.0384 0.8997 0.5659
C20_2 C 0.0852(10) 0.8131(8) 0.6278(13)
C21_2 C 0.1321(11) 0.7954(11) 0.5516(13)
H11_2 H 0.1322 0.8222 0.4967
C22_2 C 0.1759(10) 0.7392(10) 0.5612(14)
H12_2 H 0.2078 0.7282 0.5133
C23_2 C 0.2264(8) 0.6348(8) 0.6480(11)
C32 C 0.2709(9) 0.5625(10) 0.9571(11)
H18 H 0.2271 0.5793 0.9200
N2 N 0.3278(6) 0.5391(10) 0.9120(8)
C33 C 0.3808(9) 0.5023(10) 0.9653(9)
H19 H 0.4171 0.4785 0.9335
O9_2 O 0.7417(6) 0.9690(5) 0.7321(8)
O10_2 O 0.7527(7) 0.9654(5) 0.5710(9)
O11_2 O 0.4167(7) 0.6136(5) 0.5978(10)
O12_2 O 0.4079(7) 0.6103(6) 0.7523(8)
C35_2 C 0.6751(9) 0.8851(9) 0.6361(13)
C36_2 C 0.6269(12) 0.8688(9) 0.7115(13)
H21_2 H 0.6266 0.8962 0.7657
C37_2 C 0.5799(11) 0.8105(9) 0.7018(12)
C38_2 C 0.5332(12) 0.7928(12) 0.7783(14)
H22_2 H 0.5336 0.8195 0.8333
C39_2 C 0.4884(11) 0.7362(11) 0.7689(15)
H23_2 H 0.4579 0.7240 0.8178
C40_2 C 0.4882(10) 0.6969(7) 0.6865(13)
C41_2 C 0.5355(9) 0.7093(9) 0.6222(13)
H24_2 H 0.5396 0.6779 0.5733
C42_2 C 0.5809(11) 0.7676(10) 0.6226(14)
C43_2 C 0.6302(12) 0.7829(8) 0.5549(14)
H25_2 H 0.6335 0.7526 0.5044
C44_2 C 0.6757(11) 0.8404(9) 0.5560(11)
H26_2 H 0.7058 0.8497 0.5057
C45_2 C 0.7270(10) 0.9437(8) 0.6484(13)
C46_2 C 0.4344(8) 0.6354(8) 0.6810(11)
O15_2 O 0.4205(6) 0.4711(5) 0.5967(8)
O16_2 O 0.4100(7) 0.4644(6) 0.7581(9)
C47_2 C 0.6745(9) 0.1971(7) 0.6413(11)
C48_2 C 0.6285(8) 0.2095(7) 0.7087(12)
H27_2 H 0.6264 0.1790 0.7591
C49_2 C 0.5821(11) 0.2679(8) 0.7067(13)
C50_2 C 0.5332(10) 0.2833(7) 0.7751(12)
H28_2 H 0.5306 0.2533 0.8261
C51_2 C 0.4872(10) 0.3405(7) 0.7736(10)
H29_2 H 0.4566 0.3493 0.8237
C52_2 C 0.4874(9) 0.3860(8) 0.6932(13)
C53_2 C 0.5374(11) 0.3713(8) 0.6190(11)
H30_2 H 0.5384 0.3997 0.5659
C54_2 C 0.5852(10) 0.3131(8) 0.6278(13)
C55_2 C 0.6321(11) 0.2954(11) 0.5516(13)
H31_2 H 0.6322 0.3222 0.4967
C56_2 C 0.6759(10) 0.2392(10) 0.5612(14)
H32_2 H 0.7078 0.2282 0.5133
C57_2 C 0.7264(8) 0.1348(8) 0.6480(11)
C58_2 C 0.4350(10) 0.4449(8) 0.6801(14)
O19 O 0.9100(7) 0.9644(6) 0.7581(9)
O22 O 0.9205(6) 0.9711(5) 0.5967(8)
C5_2 C 0.9884(11) 0.2362(11) 0.7689(15)
H3_2 H 0.9579 0.2240 0.8178
C6_2 C 0.9882(10) 0.1969(7) 0.6865(13)
C12_2 C 0.9344(8) 0.1354(8) 0.6810(11)
C17_2 C 0.9872(10) 0.8405(7) 0.7736(10)
H9_2 H 0.9566 0.8493 0.8237
C18_2 C 0.9874(9) 0.8860(8) 0.6932(13)
C24_2 C 0.9350(10) 0.9449(8) 0.6801(14)
C25_2 C 0.7671(7) 0.0276(12) 0.3615(10)
H13_2 H 0.7212 0.0208 0.3903
C26_2 C 0.7638(8) 0.0271(13) 0.2642(9)
H14_2 H 0.7160 0.0198 0.2282
C27_2 C 0.8299(8) 0.0370(12) 0.2162(8)
C28_2 C 0.8983(7) 0.0379(11) 0.2771(10)
H15_2 H 0.9460 0.0382 0.2510
C29_2 C 0.8970(7) 0.0384(11) 0.3751(10)
H16_2 H 0.9443 0.0396 0.4139
C30_2 C 0.8297(8) 0.0384(12) 0.1095(9)
C31_2 C 0.7712(10) 0.0641(11) 0.0541(12)
H17_2 H 0.7297 0.0835 0.0819
C32_2 C 0.7709(9) 0.0625(10) 0.9571(11)
H18_2 H 0.7271 0.0793 0.9200
C33_2 C 0.8808(9) 0.0023(10) 0.9653(9)
C34_2 C 0.8851(8) 0.9973(9) 0.0663(10)
H20_2 H 0.9209 0.9697 0.1021
H19_2 H 0.9171 0.9785 0.9335
Co19 Co 0.49608(10) 0.06803(7) 0.09753(12)
Co18 Co 0.50392(10) 0.06803(7) 0.90247(12)
O27 O 0.0750(7) 0.6432(6) 0.0887(8)
O30 O 0.4141(6) 0.9978(5) 0.0680(7)
C91 C 0.1589(9) 0.7244(6) 0.0220(10)
C92 C 0.1632(10) 0.7649(9) 0.1070(14)
H55 H 0.1344 0.7522 0.1571
C93 C 0.2066(10) 0.8200(8) 0.1174(10)
H56 H 0.2090 0.8451 0.1743
C94 C 0.2504(10) 0.8406(8) 0.0381(13)
C95 C 0.3000(10) 0.8977(8) 0.0459(10)
H57 H 0.3035 0.9234 0.1023
C101 C 0.1034(8) 0.6646(8) 0.0165(12)
O33 O 0.0814(7) 0.4968(5) 0.0983(9)
Co13 Co 0.00392(10) 0.56803(7) 0.90247(12)
N7 N 0.0034(6) 0.5710(8) 0.7545(7)
C81 C 0.0607(7) 0.5424(10) 0.7101(10)
H47 H 0.1001 0.5197 0.7477
C82 C 0.0638(7) 0.5450(11) 0.6115(11)
H48 H 0.1067 0.5277 0.5839
C83 C 0.0005(7) 0.5744(9) 0.5525(9)
C89 C 0.0564(9) 0.5975(10) 0.3047(11)
C90 C 0.0615(9) 0.5963(11) 0.4018(11)
H51 H 0.1071 0.6105 0.4379
H52 H 0.0969 0.6178 0.2759
O28 O 0.0870(7) 0.6414(5) 0.9324(9)
O29 O 0.4186(7) 0.9968(5) 0.9017(9)
C96 C 0.3441(9) 0.9165(8) 0.9702(12)
C97 C 0.3430(12) 0.8735(9) 0.8871(12)
H58 H 0.3729 0.8836 0.8368
C98 C 0.2966(13) 0.8169(9) 0.8835(13)
H59 H 0.2982 0.7879 0.8313
C99 C 0.2474(11) 0.8007(10) 0.9537(12)
C100 C 0.2007(9) 0.7424(8) 0.9529(14)
H60 H 0.1995 0.7146 0.8989
C102 C 0.3976(10) 0.9737(7) 0.9826(13)
O32 O 0.0859(6) 0.4978(5) 0.9320(7)
O24 O 0.9130(7) 0.6414(5) 0.0676(9)
O25 O 0.5814(7) 0.9968(5) 0.0983(9)
C74 C 0.6559(9) 0.9165(8) 0.0298(12)
C75 C 0.6570(12) 0.8735(9) 0.1129(12)
H44 H 0.6271 0.8836 0.1632
C76 C 0.7034(13) 0.8169(9) 0.1165(13)
H45 H 0.7018 0.7879 0.1687
C77 C 0.7526(11) 0.8007(10) 0.0463(12)
C78 C 0.7993(9) 0.7424(8) 0.0471(14)
H46 H 0.8005 0.7146 0.1011
C80 C 0.6024(10) 0.9737(7) 0.0174(13)
Co14 Co 0.99608(10) 0.56803(7) 0.09753(12)
O34 O 0.9141(6) 0.4978(5) 0.0680(7)
N9 N 0.9966(6) 0.5710(8) 0.2455(7)
O23 O 0.9250(7) 0.6432(6) 0.9113(8)
O26 O 0.5859(6) 0.9978(5) 0.9320(7)
C69 C 0.8411(9) 0.7244(6) 0.9780(10)
C70 C 0.8368(10) 0.7649(9) 0.8930(14)
H41 H 0.8656 0.7522 0.8429
C71 C 0.7934(10) 0.8200(8) 0.8826(10)
H42 H 0.7910 0.8451 0.8257
C72 C 0.7496(10) 0.8406(8) 0.9619(13)
C73 C 0.7000(10) 0.8977(8) 0.9541(10)
H43 H 0.6965 0.9234 0.8977
C79 C 0.8966(8) 0.6646(8) 0.9835(12)
C84 C 0.9385(9) 0.5963(11) 0.5982(11)
H49 H 0.8929 0.6105 0.5621
C85 C 0.9436(9) 0.5975(10) 0.6953(11)
H50 H 0.9031 0.6178 0.7241
C86 C 0.9995(7) 0.5744(9) 0.4475(9)
C87 C 0.9362(7) 0.5450(11) 0.3885(11)
C88 C 0.9393(7) 0.5424(10) 0.2899(10)
H53 H 0.8999 0.5197 0.2523
H54 H 0.8933 0.5277 0.4161
O31 O 0.9186(7) 0.4968(5) 0.9017(9)
O24_2 O 0.4130(7) 0.1414(5) 0.0676(9)
C74_2 C 0.1559(9) 0.4165(8) 0.0298(12)
C75_2 C 0.1570(12) 0.3735(9) 0.1129(12)
H44_2 H 0.1271 0.3836 0.1632
C76_2 C 0.2034(13) 0.3169(9) 0.1165(13)
H45_2 H 0.2018 0.2879 0.1687
C77_2 C 0.2526(11) 0.3007(10) 0.0463(12)
C78_2 C 0.2993(9) 0.2424(8) 0.0471(14)
H46_2 H 0.3005 0.2146 0.1011
C80_2 C 0.1024(10) 0.4737(7) 0.0174(13)
O27_2 O 0.5750(7) 0.1432(6) 0.0887(8)
C91_2 C 0.6589(9) 0.2244(6) 0.0220(10)
C92_2 C 0.6632(10) 0.2649(9) 0.1070(14)
H55_2 H 0.6344 0.2522 0.1571
C93_2 C 0.7066(10) 0.3200(8) 0.1174(10)
H56_2 H 0.7090 0.3451 0.1743
C94_2 C 0.7504(10) 0.3406(8) 0.0381(13)
C95_2 C 0.8000(10) 0.3977(8) 0.0459(10)
H57_2 H 0.8035 0.4234 0.1023
C101_2 C 0.6034(8) 0.1646(8) 0.0165(12)
N9_2 N 0.4966(6) 0.0710(8) 0.2455(7)
O23_2 O 0.4250(7) 0.1432(6) 0.9113(8)
C69_2 C 0.3411(9) 0.2244(6) 0.9780(10)
C70_2 C 0.3368(10) 0.2649(9) 0.8930(14)
H41_2 H 0.3656 0.2522 0.8429
C71_2 C 0.2934(10) 0.3200(8) 0.8826(10)
H42_2 H 0.2910 0.3451 0.8257
C72_2 C 0.2496(10) 0.3406(8) 0.9619(13)
C73_2 C 0.2000(10) 0.3977(8) 0.9541(10)
H43_2 H 0.1965 0.4234 0.8977
C79_2 C 0.3966(8) 0.1646(8) 0.9835(12)
N7_2 N 0.5034(6) 0.0710(8) 0.7545(7)
C81_2 C 0.5607(7) 0.0424(10) 0.7101(10)
H47_2 H 0.6001 0.0197 0.7477
C82_2 C 0.5638(7) 0.0450(11) 0.6115(11)
H48_2 H 0.6067 0.0277 0.5839
C83_2 C 0.5005(7) 0.0744(9) 0.5525(9)
C84_2 C 0.4385(9) 0.0963(11) 0.5982(11)
H49_2 H 0.3929 0.1105 0.5621
C85_2 C 0.4436(9) 0.0975(10) 0.6953(11)
H50_2 H 0.4031 0.1178 0.7241
C86_2 C 0.4995(7) 0.0744(9) 0.4475(9)
C87_2 C 0.4362(7) 0.0450(11) 0.3885(11)
C88_2 C 0.4393(7) 0.0424(10) 0.2899(10)
C89_2 C 0.5564(9) 0.0975(10) 0.3047(11)
C90_2 C 0.5615(9) 0.0963(11) 0.4018(11)
H51_2 H 0.6071 0.1105 0.4379
H52_2 H 0.5969 0.1178 0.2759
H53_2 H 0.3999 0.0197 0.2523
H54_2 H 0.3933 0.0277 0.4161
O28_2 O 0.5870(7) 0.1414(5) 0.9324(9)
C96_2 C 0.8441(9) 0.4165(8) 0.9702(12)
C97_2 C 0.8430(12) 0.3735(9) 0.8871(12)
H58_2 H 0.8729 0.3836 0.8368
C98_2 C 0.7966(13) 0.3169(9) 0.8835(13)
H59_2 H 0.7982 0.2879 0.8313
C99_2 C 0.7474(11) 0.3007(10) 0.9537(12)
C100_2 C 0.7007(9) 0.2424(8) 0.9529(14)
H60_2 H 0.6995 0.2146 0.8989
C102_2 C 0.8976(10) 0.4737(7) 0.9826(13)
loop_
_geom_bond_atom_site_label_1
_geom_bond_atom_site_label_2
_geom_bond_site_symmetry_1
_geom_bond_site_symmetry_2
Co7 Co8 1_555 1_555
O3 C12 1_555 1_555
O4 C12 1_555 1_555
O7 C24 1_555 1_555
O8 C24 1_555 1_555
H3 C5 1_555 1_555
C6 C5 1_555 1_555
C12 C6 1_555 1_555
H9 C17 1_555 1_555
C18 C17 1_555 1_555
C24 C18 1_555 1_555
Co7 O3 1_555 1_555
Co8 O4 1_555 1_555
O18 Co8 1_555 1_555
N5 Co8 1_555 1_555
O21 Co7 1_555 1_555
N6 Co7 1_555 1_555
H38 C66 1_555 1_555
N4 C66 1_555 1_555
C67 N4 1_555 1_555
H39 C67 1_555 1_555
Co12 N4 1_555 1_555
Co12 Co2 1_555 1_555
Co2 O2 1_555 1_555
O1 Co12 1_555 1_555
O2 C11 1_555 1_555
O5 Co12 1_555 1_555
O6 Co2 1_555 1_555
C1 C2 1_555 1_555
C2 H1 1_555 1_555
C3 C2 1_555 1_555
C4 C3 1_555 1_555
H2 C4 1_555 1_555
H4 C7 1_555 1_555
C8 C3 1_555 1_555
C9 C8 1_555 1_555
H5 C9 1_555 1_555
C10 C1 1_555 1_555
H6 C10 1_555 1_555
C11 O1 1_555 1_555
C13 C14 1_555 1_555
C14 H7 1_555 1_555
C15 C14 1_555 1_555
C16 C15 1_555 1_555
H8 C16 1_555 1_555
H10 C19 1_555 1_555
C20 C15 1_555 1_555
C21 C20 1_555 1_555
H11 C21 1_555 1_555
C22 C13 1_555 1_555
H12 C22 1_555 1_555
C23 O5 1_555 1_555
O9 C45 1_555 1_555
O10 C45 1_555 1_555
O11 Co2 1_555 1_555
O12 Co12 1_555 1_555
C35 C36 1_555 1_555
C36 H21 1_555 1_555
C37 C36 1_555 1_555
C38 C37 1_555 1_555
H22 C38 1_555 1_555
C39 C38 1_555 1_555
H23 C39 1_555 1_555
C40 C39 1_555 1_555
C41 C40 1_555 1_555
H24 C41 1_555 1_555
C42 C37 1_555 1_555
C43 C42 1_555 1_555
H25 C43 1_555 1_555
C44 C35 1_555 1_555
H26 C44 1_555 1_555
C45 C35 1_555 1_555
C46 O11 1_555 1_555
O18 C57 1_555 1_555
O21 C57 1_555 1_555
O15 Co2 1_555 1_555
O16 Co12 1_555 1_555
C47 C48 1_555 1_555
C48 H27 1_555 1_555
C49 C48 1_555 1_555
C50 C49 1_555 1_555
H28 C50 1_555 1_555
C51 C50 1_555 1_555
H29 C51 1_555 1_555
C52 C51 1_555 1_555
C53 C52 1_555 1_555
H30 C53 1_555 1_555
C54 C49 1_555 1_555
C55 C54 1_555 1_555
H31 C55 1_555 1_555
C56 C47 1_555 1_555
H32 C56 1_555 1_555
C57 C47 1_555 1_555
C58 O15 1_555 1_555
N3 Co2 1_555 1_555
C59 N3 1_555 1_555
H33 C59 1_555 1_555
C60 C59 1_555 1_555
H34 C60 1_555 1_555
C61 C60 1_555 1_555
C62 C61 1_555 1_555
H35 C62 1_555 1_555
C63 N3 1_555 1_555
H36 C63 1_555 1_555
C64 C61 1_555 1_555
C65 C64 1_555 1_555
H37 C65 1_555 1_555
C68 C64 1_555 1_555
H40 C68 1_555 1_555
O6 C23 1_555 1_555
C1 C11 1_555 1_555
C7 C8 1_555 1_555
C9 C10 1_555 1_555
C13 C23 1_555 1_555
C19 C20 1_555 1_555
C21 C22 1_555 1_555
O12 C46 1_555 1_555
C40 C46 1_555 1_555
C41 C42 1_555 1_555
C43 C44 1_555 1_555
O16 C58 1_555 1_555
C52 C58 1_555 1_555
C53 C54 1_555 1_555
C55 C56 1_555 1_555
C62 C63 1_555 1_555
H38_2 C66_2 1_555 1_555
N5 C66_2 1_555 1_555
C67_2 N5 1_555 1_555
C59_2 N6 1_555 1_555
H33_2 C59_2 1_555 1_555
C60_2 C59_2 1_555 1_555
H34_2 C60_2 1_555 1_555
C61_2 C60_2 1_555 1_555
C62_2 C61_2 1_555 1_555
H35_2 C62_2 1_555 1_555
C63_2 N6 1_555 1_555
H36_2 C63_2 1_555 1_555
C64_2 C61_2 1_555 1_555
C65_2 C64_2 1_555 1_555
H37_2 C65_2 1_555 1_555
C62_2 C63_2 1_555 1_555
H40_2 C68_2 1_555 1_555
O17 Co3 1_555 1_555
O18_2 Co3 1_555 1_555
N5_2 Co3 1_555 1_555
O20 Co4 1_555 1_555
O21_2 Co4 1_555 1_555
N6_2 Co4 1_555 1_555
Co3 Co4 1_555 1_555
N1 C25 1_555 1_555
C25 H13 1_555 1_555
C26 C25 1_555 1_555
H14 C26 1_555 1_555
C27 C26 1_555 1_555
C28 C27 1_555 1_555
H15 C28 1_555 1_555
C29 N1 1_555 1_555
H16 C29 1_555 1_555
C30 C27 1_555 1_555
C31 C30 1_555 1_555
H17 C31 1_555 1_555
C34 C30 1_555 1_555
H20 C34 1_555 1_555
Co9 N1 1_555 1_555
C28 C29 1_555 1_555
Co1 Co9 1_555 1_555
Co9 O2_2 1_555 1_555
O1_2 Co1 1_555 1_555
O2_2 C11_2 1_555 1_555
O5_2 Co1 1_555 1_555
O6_2 Co9 1_555 1_555
C1_2 C2_2 1_555 1_555
C2_2 H1_2 1_555 1_555
C3_2 C2_2 1_555 1_555
C4_2 C3_2 1_555 1_555
H2_2 C4_2 1_555 1_555
H4_2 C7_2 1_555 1_555
C8_2 C3_2 1_555 1_555
C9_2 C8_2 1_555 1_555
H5_2 C9_2 1_555 1_555
C10_2 C1_2 1_555 1_555
H6_2 C10_2 1_555 1_555
C11_2 O1_2 1_555 1_555
C13_2 C14_2 1_555 1_555
C14_2 H7_2 1_555 1_555
C15_2 C14_2 1_555 1_555
C16_2 C15_2 1_555 1_555
H8_2 C16_2 1_555 1_555
H10_2 C19_2 1_555 1_555
C20_2 C15_2 1_555 1_555
C21_2 C20_2 1_555 1_555
H11_2 C21_2 1_555 1_555
C22_2 C13_2 1_555 1_555
H12_2 C22_2 1_555 1_555
C23_2 O5_2 1_555 1_555
H18 C32 1_555 1_555
N2 Co1 1_555 1_555
C33 N2 1_555 1_555
H19 C33 1_555 1_555
O9_2 C45_2 1_555 1_555
O10_2 C45_2 1_555 1_555
O11_2 Co9 1_555 1_555
O12_2 Co1 1_555 1_555
C35_2 C36_2 1_555 1_555
C36_2 H21_2 1_555 1_555
C37_2 C36_2 1_555 1_555
C38_2 C37_2 1_555 1_555
H22_2 C38_2 1_555 1_555
C39_2 C38_2 1_555 1_555
H23_2 C39_2 1_555 1_555
C40_2 C39_2 1_555 1_555
C41_2 C40_2 1_555 1_555
H24_2 C41_2 1_555 1_555
C42_2 C37_2 1_555 1_555
C43_2 C42_2 1_555 1_555
H25_2 C43_2 1_555 1_555
C44_2 C35_2 1_555 1_555
H26_2 C44_2 1_555 1_555
C45_2 C35_2 1_555 1_555
C46_2 O11_2 1_555 1_555
O18_2 C57_2 1_555 1_555
O21_2 C57_2 1_555 1_555
O15_2 Co9 1_555 1_555
O16_2 Co1 1_555 1_555
C47_2 C48_2 1_555 1_555
C48_2 H27_2 1_555 1_555
C49_2 C48_2 1_555 1_555
C50_2 C49_2 1_555 1_555
H28_2 C50_2 1_555 1_555
C51_2 C50_2 1_555 1_555
H29_2 C51_2 1_555 1_555
C52_2 C51_2 1_555 1_555
C53_2 C52_2 1_555 1_555
H30_2 C53_2 1_555 1_555
C54_2 C49_2 1_555 1_555
C55_2 C54_2 1_555 1_555
H31_2 C55_2 1_555 1_555
C56_2 C47_2 1_555 1_555
H32_2 C56_2 1_555 1_555
C57_2 C47_2 1_555 1_555
C58_2 O15_2 1_555 1_555
O6_2 C23_2 1_555 1_555
C1_2 C11_2 1_555 1_555
C7_2 C8_2 1_555 1_555
C9_2 C10_2 1_555 1_555
C13_2 C23_2 1_555 1_555
C19_2 C20_2 1_555 1_555
C21_2 C22_2 1_555 1_555
C32 N2 1_555 1_555
O12_2 C46_2 1_555 1_555
C40_2 C46_2 1_555 1_555
C41_2 C42_2 1_555 1_555
C43_2 C44_2 1_555 1_555
O16_2 C58_2 1_555 1_555
C52_2 C58_2 1_555 1_555
C53_2 C54_2 1_555 1_555
C55_2 C56_2 1_555 1_555
O20 C12_2 1_555 1_555
O17 C12_2 1_555 1_555
O22 C24_2 1_555 1_555
O19 C24_2 1_555 1_555
H3_2 C5_2 1_555 1_555
C6_2 C5_2 1_555 1_555
C12_2 C6_2 1_555 1_555
H9_2 C17_2 1_555 1_555
C18_2 C17_2 1_555 1_555
C24_2 C18_2 1_555 1_555
N6_2 C25_2 1_555 1_555
C25_2 H13_2 1_555 1_555
C26_2 C25_2 1_555 1_555
H14_2 C26_2 1_555 1_555
C27_2 C26_2 1_555 1_555
C28_2 C27_2 1_555 1_555
H15_2 C28_2 1_555 1_555
C29_2 N6_2 1_555 1_555
H16_2 C29_2 1_555 1_555
C30_2 C27_2 1_555 1_555
C31_2 C30_2 1_555 1_555
H17_2 C31_2 1_555 1_555
C28_2 C29_2 1_555 1_555
H18_2 C32_2 1_555 1_555
C33_2 N5_2 1_555 1_555
C32_2 N5_2 1_555 1_555
H20_2 C34_2 1_555 1_555
O27 C101 1_555 1_555
C91 C92 1_555 1_555
C92 H55 1_555 1_555
C93 C92 1_555 1_555
H56 C93 1_555 1_555
C94 C93 1_555 1_555
C95 C94 1_555 1_555
H57 C95 1_555 1_555
C91 C101 1_555 1_555
N7 Co13 1_555 1_555
C81 N7 1_555 1_555
H47 C81 1_555 1_555
C82 C81 1_555 1_555
H48 C82 1_555 1_555
C83 C82 1_555 1_555
H51 C90 1_555 1_555
H52 C89 1_555 1_555
O28 Co13 1_555 1_555
O29 C102 1_555 1_555
C97 C96 1_555 1_555
H58 C97 1_555 1_555
C98 C97 1_555 1_555
H59 C98 1_555 1_555
H60 C100 1_555 1_555
C102 C96 1_555 1_555
O32 Co13 1_555 1_555
C89 C90 1_555 1_555
C98 C99 1_555 1_555
C99 C100 1_555 1_555
O25 C80 1_555 1_555
C75 C74 1_555 1_555
H44 C75 1_555 1_555
C76 C75 1_555 1_555
H45 C76 1_555 1_555
H46 C78 1_555 1_555
C80 C74 1_555 1_555
O34 Co14 1_555 1_555
N9 Co14 1_555 1_555
O24 Co14 1_555 1_555
C76 C77 1_555 1_555
C77 C78 1_555 1_555
O23 C79 1_555 1_555
C69 C70 1_555 1_555
C70 H41 1_555 1_555
C71 C70 1_555 1_555
H42 C71 1_555 1_555
C72 C71 1_555 1_555
C73 C72 1_555 1_555
H43 C73 1_555 1_555
C79 C69 1_555 1_555
H49 C84 1_555 1_555
H50 C85 1_555 1_555
C87 C86 1_555 1_555
C88 C87 1_555 1_555
N9 C88 1_555 1_555
H53 C88 1_555 1_555
H54 C87 1_555 1_555
C84 C85 1_555 1_555
O33 C80_2 1_555 1_555
C75_2 C74_2 1_555 1_555
H44_2 C75_2 1_555 1_555
C76_2 C75_2 1_555 1_555
H45_2 C76_2 1_555 1_555
H46_2 C78_2 1_555 1_555
C80_2 C74_2 1_555 1_555
O27_2 C101_2 1_555 1_555
C91_2 C92_2 1_555 1_555
C92_2 H55_2 1_555 1_555
C93_2 C92_2 1_555 1_555
H56_2 C93_2 1_555 1_555
C94_2 C93_2 1_555 1_555
C95_2 C94_2 1_555 1_555
H57_2 C95_2 1_555 1_555
N9_2 Co19 1_555 1_555
O24_2 Co19 1_555 1_555
C76_2 C77_2 1_555 1_555
C77_2 C78_2 1_555 1_555
O27_2 Co19 1_555 1_555
C91_2 C101_2 1_555 1_555
Co18 O23_2 1_555 1_555
O23_2 C79_2 1_555 1_555
C69_2 C70_2 1_555 1_555
C70_2 H41_2 1_555 1_555
C71_2 C70_2 1_555 1_555
H42_2 C71_2 1_555 1_555
C72_2 C71_2 1_555 1_555
C73_2 C72_2 1_555 1_555
H43_2 C73_2 1_555 1_555
C79_2 C69_2 1_555 1_555
N7_2 Co18 1_555 1_555
C81_2 N7_2 1_555 1_555
H47_2 C81_2 1_555 1_555
C82_2 C81_2 1_555 1_555
H48_2 C82_2 1_555 1_555
C83_2 C82_2 1_555 1_555
C84_2 C83_2 1_555 1_555
H49_2 C84_2 1_555 1_555
C85_2 N7_2 1_555 1_555
H50_2 C85_2 1_555 1_555
C86_2 C83_2 1_555 1_555
C87_2 C86_2 1_555 1_555
C88_2 C87_2 1_555 1_555
N9_2 C88_2 1_555 1_555
C89_2 N9_2 1_555 1_555
C90_2 C86_2 1_555 1_555
H51_2 C90_2 1_555 1_555
H52_2 C89_2 1_555 1_555
H53_2 C88_2 1_555 1_555
H54_2 C87_2 1_555 1_555
O28_2 Co18 1_555 1_555
O31 C102_2 1_555 1_555
C97_2 C96_2 1_555 1_555
H58_2 C97_2 1_555 1_555
C98_2 C97_2 1_555 1_555
H59_2 C98_2 1_555 1_555
H60_2 C100_2 1_555 1_555
C102_2 C96_2 1_555 1_555
C84_2 C85_2 1_555 1_555
C89_2 C90_2 1_555 1_555
C98_2 C99_2 1_555 1_555
C99_2 C100_2 1_555 1_555

#END
