
###############################################################################
#
# This file contains modified crystal structure data generated from the
# MOF subset of the Cambridge Structural Database (CSD) v543 
# hosted by the Cambridge Crystallographic Data Centre (CCDC).
#
# This work is licensed under the Creative Commons
# Attribution-NonCommercial-ShareAlike 4.0 International License.
# To view a copy of this license, visit
# http://creativecommons.org/licenses/by-nc-sa/4.0/
# or send a letter to
# Creative Commons, PO Box 1866, Mountain View, CA 94042, USA.
#
# CIF created using the CSD Python API on 29 September 2022
# The structure has been converted into the P1 space group
# The structure has a 3D framework
# The original CSD entry BAZBOW is in the cubic crystal system
# The framework has been calculated to contain at least 10.0% void space
# The void calculation uses a probe of radius 1.32A, grid spacing 0.4
#
###############################################################################

data_BAZBOW
_chemical_formula_moiety         '(C240 H216 Fe24 N24 O124 S24)n'
_symmetry_cell_setting           triclinic
_symmetry_space_group_name_H-M   'P 1'
_symmetry_Int_Tables_number      1
_space_group_name_Hall           'P 1'
loop_
_symmetry_equiv_pos_site_id
_symmetry_equiv_pos_as_xyz
1 x,y,z
_cell_length_a                   22.13350(10)
_cell_length_b                   22.13350(10)
_cell_length_c                   22.13350(10)
_cell_angle_alpha                90
_cell_angle_beta                 90
_cell_angle_gamma                90
_cell_volume                     10843
loop_
_atom_site_label
_atom_site_type_symbol
_atom_site_fract_x
_atom_site_fract_y
_atom_site_fract_z
C1 C 0.2965(6) 0.0774(4) 0.0174(3)
C2 C 0.2986(6) 0.1106(4) 0.0707(3)
H1 H 0.3028 0.0911 0.1077
C3 C 0.2943(4) 0.1739(3) 0.0679(3)
C4 C 0.2866(4) 0.2021(3) 0.0122(3)
H2 H 0.2831 0.2440 0.0105
C7 C 0.2951(4) 0.2080(3) 0.1260(3)
H6 H 0.3217 0.3721 0.0081
H8 H 0.2000 0.3423 0.0346
O2 O 0.3112(3) 0.1779(2) 0.1723(2)
O3 O 0.2796(3) 0.2616(2) 0.1253(2)
N1 N 0.2980(5) 0.0143(3) 0.0238(3)
C21 C 0.0174(3) 0.2965(6) 0.0774(4)
C22 C 0.0707(3) 0.2986(6) 0.1106(4)
H19 H 0.1077 0.3028 0.0911
C23 C 0.0679(3) 0.2943(4) 0.1739(3)
C24 C 0.0122(3) 0.2866(4) 0.2021(3)
H20 H 0.0105 0.2831 0.2440
C27 C 0.1260(3) 0.2951(4) 0.2080(3)
H24 H 0.0081 0.3217 0.3721
H26 H 0.0346 0.2000 0.3423
O13 O 0.1723(2) 0.3112(3) 0.1779(2)
O14 O 0.1253(2) 0.2796(3) 0.2616(2)
N3 N 0.0238(3) 0.2980(5) 0.0143(3)
Fe12 Fe 0.19460(5) 0.26242(4) 0.32210(5)
Fe16 Fe 0.26242(4) 0.32210(5) 0.19460(5)
Fe20 Fe 0.32210(5) 0.19460(5) 0.26242(4)
Fe1 Fe 0.23758(4) 0.30540(5) 0.82210(5)
O1 O 0.2405(2) 0.2405(2) 0.7595(2)
S1 S 0.2378(2) 0.3908(2) 0.9520(2)
C5 C 0.2839(4) 0.1681(3) 0.9580(3)
C6 C 0.2891(5) 0.1062(3) 0.9616(3)
H3 H 0.2876 0.0832 0.9264
C8 C 0.2773(3) 0.1969(3) 0.8971(3)
C9 C 0.3134(10) 0.3697(11) 0.9656(12)
H4 H 0.3399 0.3965 0.9441
H5 H 0.3197 0.3290 0.9519
C10 C 0.1910(6) 0.3399(7) 0.9922(7)
H7 H 0.1494 0.3504 0.9857
H9 H 0.1981 0.2995 0.9781
O4 O 0.2582(3) 0.2501(2) 0.8960(2)
O5 O 0.2899(3) 0.1639(2) 0.8533(2)
O6 O 0.2319(3) 0.3760(3) 0.8857(3)
C35 C 0.0420(3) 0.2839(4) 0.8319(3)
C36 C 0.0384(3) 0.2891(5) 0.8938(3)
H30 H 0.0736 0.2876 0.9168
C38 C 0.1029(3) 0.2773(3) 0.8031(3)
O20 O 0.1040(2) 0.2582(3) 0.7499(2)
O21 O 0.1467(2) 0.2899(3) 0.8361(2)
Fe6 Fe 0.17790(5) 0.23758(4) 0.69460(5)
S6 S 0.0480(2) 0.2378(2) 0.6092(2)
C59 C 0.0344(12) 0.3134(10) 0.6303(11)
H49 H 0.0559 0.3399 0.6035
H50 H 0.0481 0.3197 0.6710
C60 C 0.0078(7) 0.1910(6) 0.6601(7)
H52 H 0.0143 0.1494 0.6496
H54 H 0.0219 0.1981 0.7005
O32 O 0.1143(3) 0.2319(3) 0.6240(3)
Fe10 Fe 0.30540(5) 0.17790(5) 0.76242(4)
O37 O 0.1888(3) 0.3277(2) 0.6779(2)
O40 O 0.3277(2) 0.3221(2) 0.8112(3)
O42 O 0.2384(2) 0.2204(3) 0.6253(2)
O46 O 0.2204(3) 0.3747(2) 0.7616(2)
O49 O 0.1639(2) 0.1467(2) 0.7101(3)
C15 C 0.2839(4) 0.8319(3) 0.0420(3)
C16 C 0.2891(5) 0.8938(3) 0.0384(3)
H12 H 0.2876 0.9168 0.0736
C18 C 0.2773(3) 0.8031(3) 0.1029(3)
O9 O 0.2582(3) 0.7499(2) 0.1040(2)
O10 O 0.2899(3) 0.8361(2) 0.1467(2)
Fe2 Fe 0.23758(4) 0.69460(5) 0.17790(5)
O11 O 0.2405(2) 0.7595(2) 0.2405(2)
S2 S 0.2378(2) 0.6092(2) 0.0480(2)
C19 C 0.3134(10) 0.6303(11) 0.0344(12)
H13 H 0.3399 0.6035 0.0559
H14 H 0.3197 0.6710 0.0481
C20 C 0.1910(6) 0.6601(7) 0.0078(7)
H16 H 0.1494 0.6496 0.0143
H18 H 0.1981 0.7005 0.0219
O12 O 0.2319(3) 0.6240(3) 0.1143(3)
C53 C 0.0420(3) 0.7161(4) 0.1681(3)
C54 C 0.0384(3) 0.7109(5) 0.1062(3)
H42 H 0.0736 0.7124 0.0832
C56 C 0.1029(3) 0.7227(3) 0.1969(3)
O29 O 0.1040(2) 0.7418(3) 0.2501(2)
O30 O 0.1467(2) 0.7101(3) 0.1639(2)
Fe5 Fe 0.17790(5) 0.76242(4) 0.30540(5)
S5 S 0.0480(2) 0.7622(2) 0.3908(2)
C57 C 0.0344(12) 0.6866(10) 0.3697(11)
H43 H 0.0559 0.6601 0.3965
H44 H 0.0481 0.6803 0.3290
C58 C 0.0078(7) 0.8090(6) 0.3399(7)
H46 H 0.0143 0.8506 0.3504
H48 H 0.0219 0.8019 0.2995
O31 O 0.1143(3) 0.7681(3) 0.3760(3)
Fe9 Fe 0.30540(5) 0.82210(5) 0.23758(4)
O36 O 0.1888(3) 0.6723(2) 0.3221(2)
O39 O 0.3277(2) 0.6779(2) 0.1888(3)
O44 O 0.2384(2) 0.7796(3) 0.3747(2)
O45 O 0.2204(3) 0.6253(2) 0.2384(2)
O47 O 0.1639(2) 0.8533(2) 0.2899(3)
C11 C 0.2965(6) 0.9226(4) 0.9826(3)
C12 C 0.2986(6) 0.8894(4) 0.9293(3)
H10 H 0.3028 0.9089 0.8923
C13 C 0.2943(4) 0.8261(3) 0.9321(3)
C14 C 0.2866(4) 0.7979(3) 0.9878(3)
H11 H 0.2831 0.7560 0.9895
C17 C 0.2951(4) 0.7920(3) 0.8740(3)
O7 O 0.3112(3) 0.8221(2) 0.8277(2)
O8 O 0.2796(3) 0.7384(2) 0.8747(2)
N2 N 0.2980(5) 0.9857(3) 0.9762(3)
H15 H 0.3217 0.6279 0.9919
H17 H 0.2000 0.6577 0.9654
C39 C 0.0174(3) 0.7035(6) 0.9226(4)
C40 C 0.0707(3) 0.7014(6) 0.8894(4)
H31 H 0.1077 0.6972 0.9089
C41 C 0.0679(3) 0.7057(4) 0.8261(3)
C42 C 0.0122(3) 0.7134(4) 0.7979(3)
H32 H 0.0105 0.7169 0.7560
C45 C 0.1260(3) 0.7049(4) 0.7920(3)
H36 H 0.0081 0.6783 0.6279
H38 H 0.0346 0.8000 0.6577
O22 O 0.1723(2) 0.6888(3) 0.8221(2)
O23 O 0.1253(2) 0.7204(3) 0.7384(2)
N5 N 0.0238(3) 0.7020(5) 0.9857(3)
Fe14 Fe 0.19460(5) 0.73758(4) 0.67790(5)
Fe17 Fe 0.26242(4) 0.67790(5) 0.80540(5)
Fe19 Fe 0.32210(5) 0.80540(5) 0.73758(4)
Fe3 Fe 0.82210(5) 0.23758(4) 0.30540(5)
S3 S 0.9520(2) 0.2378(2) 0.3908(2)
C25 C 0.9580(3) 0.2839(4) 0.1681(3)
C26 C 0.9616(3) 0.2891(5) 0.1062(3)
H21 H 0.9264 0.2876 0.0832
C28 C 0.8971(3) 0.2773(3) 0.1969(3)
C29 C 0.9656(12) 0.3134(10) 0.3697(11)
H22 H 0.9441 0.3399 0.3965
H23 H 0.9519 0.3197 0.3290
C30 C 0.9922(7) 0.1910(6) 0.3399(7)
H25 H 0.9857 0.1494 0.3504
H27 H 0.9781 0.1981 0.2995
O15 O 0.8960(2) 0.2582(3) 0.2501(2)
O16 O 0.8533(2) 0.2899(3) 0.1639(2)
O17 O 0.8857(3) 0.2319(3) 0.3760(3)
Fe8 Fe 0.76242(4) 0.30540(5) 0.17790(5)
O34 O 0.7595(2) 0.2405(2) 0.2405(2)
O38 O 0.8112(3) 0.3277(2) 0.3221(2)
O43 O 0.7616(2) 0.2204(3) 0.3747(2)
O50 O 0.8361(2) 0.1467(2) 0.2899(3)
C31 C 0.9826(3) 0.2965(6) 0.9226(4)
C32 C 0.9293(3) 0.2986(6) 0.8894(4)
H28 H 0.8923 0.3028 0.9089
C33 C 0.9321(3) 0.2943(4) 0.8261(3)
C34 C 0.9878(3) 0.2866(4) 0.7979(3)
H29 H 0.9895 0.2831 0.7560
C37 C 0.8740(3) 0.2951(4) 0.7920(3)
O18 O 0.8277(2) 0.3112(3) 0.8221(2)
O19 O 0.8747(2) 0.2796(3) 0.7384(2)
N4 N 0.9762(3) 0.2980(5) 0.9857(3)
H51 H 0.9919 0.3217 0.6279
H53 H 0.9654 0.2000 0.6577
Fe13 Fe 0.80540(5) 0.26242(4) 0.67790(5)
Fe15 Fe 0.73758(4) 0.32210(5) 0.80540(5)
C49 C 0.9826(3) 0.7035(6) 0.0774(4)
C50 C 0.9293(3) 0.7014(6) 0.1106(4)
H40 H 0.8923 0.6972 0.0911
C51 C 0.9321(3) 0.7057(4) 0.1739(3)
C52 C 0.9878(3) 0.7134(4) 0.2021(3)
H41 H 0.9895 0.7169 0.2440
C55 C 0.8740(3) 0.7049(4) 0.2080(3)
O27 O 0.8277(2) 0.6888(3) 0.1779(2)
O28 O 0.8747(2) 0.7204(3) 0.2616(2)
N6 N 0.9762(3) 0.7020(5) 0.0143(3)
H45 H 0.9919 0.6783 0.3721
H47 H 0.9654 0.8000 0.3423
Fe11 Fe 0.80540(5) 0.73758(4) 0.32210(5)
Fe18 Fe 0.73758(4) 0.67790(5) 0.19460(5)
Fe4 Fe 0.82210(5) 0.76242(4) 0.69460(5)
S4 S 0.9520(2) 0.7622(2) 0.6092(2)
C43 C 0.9580(3) 0.7161(4) 0.8319(3)
C44 C 0.9616(3) 0.7109(5) 0.8938(3)
H33 H 0.9264 0.7124 0.9168
C46 C 0.8971(3) 0.7227(3) 0.8031(3)
C47 C 0.9656(12) 0.6866(10) 0.6303(11)
H34 H 0.9441 0.6601 0.6035
H35 H 0.9519 0.6803 0.6710
C48 C 0.9922(7) 0.8090(6) 0.6601(7)
H37 H 0.9857 0.8506 0.6496
H39 H 0.9781 0.8019 0.7005
O24 O 0.8960(2) 0.7418(3) 0.7499(2)
O25 O 0.8533(2) 0.7101(3) 0.8361(2)
O26 O 0.8857(3) 0.7681(3) 0.6240(3)
Fe7 Fe 0.76242(4) 0.69460(5) 0.82210(5)
O33 O 0.7595(2) 0.7595(2) 0.7595(2)
O35 O 0.8112(3) 0.6723(2) 0.6779(2)
O41 O 0.7616(2) 0.7796(3) 0.6253(2)
O48 O 0.8361(2) 0.8533(2) 0.7101(3)
C15_2 C 0.7161(4) 0.1681(3) 0.0420(3)
C16_2 C 0.7109(5) 0.1062(3) 0.0384(3)
H12_2 H 0.7124 0.0832 0.0736
C18_2 C 0.7227(3) 0.1969(3) 0.1029(3)
O9_2 O 0.7418(3) 0.2501(2) 0.1040(2)
O10_2 O 0.7101(3) 0.1639(2) 0.1467(2)
S2_2 S 0.7622(2) 0.3908(2) 0.0480(2)
C19_2 C 0.6866(10) 0.3697(11) 0.0344(12)
H13_2 H 0.6601 0.3965 0.0559
H14_2 H 0.6803 0.3290 0.0481
C20_2 C 0.8090(6) 0.3399(7) 0.0078(7)
H16_2 H 0.8506 0.3504 0.0143
H18_2 H 0.8019 0.2995 0.0219
O12_2 O 0.7681(3) 0.3760(3) 0.1143(3)
Fe9_2 Fe 0.69460(5) 0.17790(5) 0.23758(4)
O39_2 O 0.6723(2) 0.3221(2) 0.1888(3)
O45_2 O 0.7796(3) 0.3747(2) 0.2384(2)
C11_2 C 0.7035(6) 0.0774(4) 0.9826(3)
C12_2 C 0.7014(6) 0.1106(4) 0.9293(3)
H10_2 H 0.6972 0.0911 0.8923
C13_2 C 0.7057(4) 0.1739(3) 0.9321(3)
C14_2 C 0.7134(4) 0.2021(3) 0.9878(3)
H11_2 H 0.7169 0.2440 0.9895
C17_2 C 0.7049(4) 0.2080(3) 0.8740(3)
O7_2 O 0.6888(3) 0.1779(2) 0.8277(2)
O8_2 O 0.7204(3) 0.2616(2) 0.8747(2)
N2_2 N 0.7020(5) 0.0143(3) 0.9762(3)
H15_2 H 0.6783 0.3721 0.9919
H17_2 H 0.8000 0.3423 0.9654
Fe19_2 Fe 0.67790(5) 0.19460(5) 0.73758(4)
C1_2 C 0.7035(6) 0.9226(4) 0.0174(3)
C2_2 C 0.7014(6) 0.8894(4) 0.0707(3)
H1_2 H 0.6972 0.9089 0.1077
C3_2 C 0.7057(4) 0.8261(3) 0.0679(3)
C4_2 C 0.7134(4) 0.7979(3) 0.0122(3)
H2_2 H 0.7169 0.7560 0.0105
C7_2 C 0.7049(4) 0.7920(3) 0.1260(3)
H6_2 H 0.6783 0.6279 0.0081
H8_2 H 0.8000 0.6577 0.0346
O2_2 O 0.6888(3) 0.8221(2) 0.1723(2)
O3_2 O 0.7204(3) 0.7384(2) 0.1253(2)
N1_2 N 0.7020(5) 0.9857(3) 0.0238(3)
Fe20_2 Fe 0.67790(5) 0.80540(5) 0.26242(4)
S1_2 S 0.7622(2) 0.6092(2) 0.9520(2)
C5_2 C 0.7161(4) 0.8319(3) 0.9580(3)
C6_2 C 0.7109(5) 0.8938(3) 0.9616(3)
H3_2 H 0.7124 0.9168 0.9264
C8_2 C 0.7227(3) 0.8031(3) 0.8971(3)
C9_2 C 0.6866(10) 0.6303(11) 0.9656(12)
H4_2 H 0.6601 0.6035 0.9441
H5_2 H 0.6803 0.6710 0.9519
C10_2 C 0.8090(6) 0.6601(7) 0.9922(7)
H7_2 H 0.8506 0.6496 0.9857
H9_2 H 0.8019 0.7005 0.9781
O4_2 O 0.7418(3) 0.7499(2) 0.8960(2)
O5_2 O 0.7101(3) 0.8361(2) 0.8533(2)
O6_2 O 0.7681(3) 0.6240(3) 0.8857(3)
Fe10_2 Fe 0.69460(5) 0.82210(5) 0.76242(4)
O40_2 O 0.6723(2) 0.6779(2) 0.8112(3)
O46_2 O 0.7796(3) 0.6253(2) 0.7616(2)
C21_2 C 0.0774(4) 0.0174(3) 0.2965(6)
C22_2 C 0.1106(4) 0.0707(3) 0.2986(6)
H19_2 H 0.0911 0.1077 0.3028
C23_2 C 0.1739(3) 0.0679(3) 0.2943(4)
C24_2 C 0.2021(3) 0.0122(3) 0.2866(4)
H20_2 H 0.2440 0.0105 0.2831
C27_2 C 0.2080(3) 0.1260(3) 0.2951(4)
H24_2 H 0.3721 0.0081 0.3217
H26_2 H 0.3423 0.0346 0.2000
O13_2 O 0.1779(2) 0.1723(2) 0.3112(3)
O14_2 O 0.2616(2) 0.1253(2) 0.2796(3)
N3_2 N 0.0143(3) 0.0238(3) 0.2980(5)
C53_2 C 0.1681(3) 0.0420(3) 0.7161(4)
C54_2 C 0.1062(3) 0.0384(3) 0.7109(5)
H42_2 H 0.0832 0.0736 0.7124
C56_2 C 0.1969(3) 0.1029(3) 0.7227(3)
O29_2 O 0.2501(2) 0.1040(2) 0.7418(3)
S5_2 S 0.3908(2) 0.0480(2) 0.7622(2)
C57_2 C 0.3697(11) 0.0344(12) 0.6866(10)
H43_2 H 0.3965 0.0559 0.6601
H44_2 H 0.3290 0.0481 0.6803
C58_2 C 0.3399(7) 0.0078(7) 0.8090(6)
H46_2 H 0.3504 0.0143 0.8506
H48_2 H 0.2995 0.0219 0.8019
O31_2 O 0.3760(3) 0.1143(3) 0.7681(3)
O36_2 O 0.3221(2) 0.1888(3) 0.6723(2)
O44_2 O 0.3747(2) 0.2384(2) 0.7796(3)
S3_2 S 0.3908(2) 0.9520(2) 0.2378(2)
C25_2 C 0.1681(3) 0.9580(3) 0.2839(4)
C26_2 C 0.1062(3) 0.9616(3) 0.2891(5)
H21_2 H 0.0832 0.9264 0.2876
C28_2 C 0.1969(3) 0.8971(3) 0.2773(3)
C29_2 C 0.3697(11) 0.9656(12) 0.3134(10)
H22_2 H 0.3965 0.9441 0.3399
H23_2 H 0.3290 0.9519 0.3197
C30_2 C 0.3399(7) 0.9922(7) 0.1910(6)
H25_2 H 0.3504 0.9857 0.1494
H27_2 H 0.2995 0.9781 0.1981
O15_2 O 0.2501(2) 0.8960(2) 0.2582(3)
O17_2 O 0.3760(3) 0.8857(3) 0.2319(3)
O38_2 O 0.3221(2) 0.8112(3) 0.3277(2)
O43_2 O 0.3747(2) 0.7616(2) 0.2204(3)
C49_2 C 0.0774(4) 0.9826(3) 0.7035(6)
C50_2 C 0.1106(4) 0.9293(3) 0.7014(6)
H40_2 H 0.0911 0.8923 0.6972
C51_2 C 0.1739(3) 0.9321(3) 0.7057(4)
C52_2 C 0.2021(3) 0.9878(3) 0.7134(4)
H41_2 H 0.2440 0.9895 0.7169
C55_2 C 0.2080(3) 0.8740(3) 0.7049(4)
O27_2 O 0.1779(2) 0.8277(2) 0.6888(3)
O28_2 O 0.2616(2) 0.8747(2) 0.7204(3)
N6_2 N 0.0143(3) 0.9762(3) 0.7020(5)
H45_2 H 0.3721 0.9919 0.6783
H47_2 H 0.3423 0.9654 0.8000
C35_2 C 0.8319(3) 0.0420(3) 0.2839(4)
C36_2 C 0.8938(3) 0.0384(3) 0.2891(5)
H30_2 H 0.9168 0.0736 0.2876
C38_2 C 0.8031(3) 0.1029(3) 0.2773(3)
O20_2 O 0.7499(2) 0.1040(2) 0.2582(3)
S6_2 S 0.6092(2) 0.0480(2) 0.2378(2)
C59_2 C 0.6303(11) 0.0344(12) 0.3134(10)
H49_2 H 0.6035 0.0559 0.3399
H50_2 H 0.6710 0.0481 0.3197
C60_2 C 0.6601(7) 0.0078(7) 0.1910(6)
H52_2 H 0.6496 0.0143 0.1494
H54_2 H 0.7005 0.0219 0.1981
O32_2 O 0.6240(3) 0.1143(3) 0.2319(3)
O37_2 O 0.6779(2) 0.1888(3) 0.3277(2)
O42_2 O 0.6253(2) 0.2384(2) 0.2204(3)
C39_2 C 0.9226(4) 0.0174(3) 0.7035(6)
C40_2 C 0.8894(4) 0.0707(3) 0.7014(6)
H31_2 H 0.9089 0.1077 0.6972
C41_2 C 0.8261(3) 0.0679(3) 0.7057(4)
C42_2 C 0.7979(3) 0.0122(3) 0.7134(4)
H32_2 H 0.7560 0.0105 0.7169
C45_2 C 0.7920(3) 0.1260(3) 0.7049(4)
H36_2 H 0.6279 0.0081 0.6783
H38_2 H 0.6577 0.0346 0.8000
O22_2 O 0.8221(2) 0.1723(2) 0.6888(3)
O23_2 O 0.7384(2) 0.1253(2) 0.7204(3)
N5_2 N 0.9857(3) 0.0238(3) 0.7020(5)
C31_2 C 0.9226(4) 0.9826(3) 0.2965(6)
C32_2 C 0.8894(4) 0.9293(3) 0.2986(6)
H28_2 H 0.9089 0.8923 0.3028
C33_2 C 0.8261(3) 0.9321(3) 0.2943(4)
C34_2 C 0.7979(3) 0.9878(3) 0.2866(4)
H29_2 H 0.7560 0.9895 0.2831
C37_2 C 0.7920(3) 0.8740(3) 0.2951(4)
O18_2 O 0.8221(2) 0.8277(2) 0.3112(3)
O19_2 O 0.7384(2) 0.8747(2) 0.2796(3)
N4_2 N 0.9857(3) 0.9762(3) 0.2980(5)
H51_2 H 0.6279 0.9919 0.3217
H53_2 H 0.6577 0.9654 0.2000
S4_2 S 0.6092(2) 0.9520(2) 0.7622(2)
C43_2 C 0.8319(3) 0.9580(3) 0.7161(4)
C44_2 C 0.8938(3) 0.9616(3) 0.7109(5)
H33_2 H 0.9168 0.9264 0.7124
C46_2 C 0.8031(3) 0.8971(3) 0.7227(3)
C47_2 C 0.6303(11) 0.9656(12) 0.6866(10)
H34_2 H 0.6035 0.9441 0.6601
H35_2 H 0.6710 0.9519 0.6803
C48_2 C 0.6601(7) 0.9922(7) 0.8090(6)
H37_2 H 0.6496 0.9857 0.8506
H39_2 H 0.7005 0.9781 0.8019
O24_2 O 0.7499(2) 0.8960(2) 0.7418(3)
O26_2 O 0.6240(3) 0.8857(3) 0.7681(3)
O35_2 O 0.6779(2) 0.8112(3) 0.6723(2)
O41_2 O 0.6253(2) 0.7616(2) 0.7796(3)
O1_2 O 0.7405(2) 0.7405(2) 0.2595(2)
S1_3 S 0.8908(2) 0.7378(2) 0.4520(2)
C1_3 C 0.5774(4) 0.7965(6) 0.5174(3)
C2_3 C 0.6106(4) 0.7986(6) 0.5707(3)
H1_3 H 0.5911 0.8028 0.6077
C3_3 C 0.6739(3) 0.7943(4) 0.5679(3)
C4_3 C 0.7021(3) 0.7866(4) 0.5122(3)
H2_3 H 0.7440 0.7831 0.5105
C5_3 C 0.6681(3) 0.7839(4) 0.4580(3)
C6_3 C 0.6062(3) 0.7891(5) 0.4616(3)
H3_3 H 0.5832 0.7876 0.4264
C7_3 C 0.7080(3) 0.7951(4) 0.6260(3)
C8_3 C 0.6969(3) 0.7773(3) 0.3971(3)
C9_3 C 0.8697(11) 0.8134(10) 0.4656(12)
H4_3 H 0.8965 0.8399 0.4441
H5_3 H 0.8290 0.8197 0.4519
H6_3 H 0.8721 0.8217 0.5081
C10_3 C 0.8399(7) 0.6910(6) 0.4922(7)
H7_3 H 0.8504 0.6494 0.4857
H8_3 H 0.8423 0.7000 0.5346
H9_3 H 0.7995 0.6981 0.4781
O4_3 O 0.7501(2) 0.7582(3) 0.3960(2)
O5_3 O 0.6639(2) 0.7899(3) 0.3533(2)
O6_3 O 0.8760(3) 0.7319(3) 0.3857(3)
N1_3 N 0.5143(3) 0.7980(5) 0.5238(3)
C11_3 C 0.4226(4) 0.7965(6) 0.4826(3)
C12_3 C 0.3894(4) 0.7986(6) 0.4293(3)
H10_3 H 0.4089 0.8028 0.3923
C13_3 C 0.3261(3) 0.7943(4) 0.4321(3)
C14_3 C 0.2979(3) 0.7866(4) 0.4878(3)
H11_3 H 0.2560 0.7831 0.4895
C15_3 C 0.3319(3) 0.7839(4) 0.5420(3)
C16_3 C 0.3938(3) 0.7891(5) 0.5384(3)
H12_3 H 0.4168 0.7876 0.5736
C17_3 C 0.2920(3) 0.7951(4) 0.3740(3)
C18_3 C 0.3031(3) 0.7773(3) 0.6029(3)
O9_3 O 0.2499(2) 0.7582(3) 0.6040(2)
O10_3 O 0.3361(2) 0.7899(3) 0.6467(2)
N2_3 N 0.4857(3) 0.7980(5) 0.4762(3)
O11_2 O 0.2595(2) 0.7405(2) 0.7405(2)
S2_3 S 0.1092(2) 0.7378(2) 0.5480(2)
C19_3 C 0.1303(11) 0.8134(10) 0.5344(12)
H13_3 H 0.1035 0.8399 0.5559
H14_3 H 0.1710 0.8197 0.5481
H15_3 H 0.1279 0.8217 0.4919
C20_3 C 0.1601(7) 0.6910(6) 0.5078(7)
H16_3 H 0.1496 0.6494 0.5143
H17_3 H 0.1577 0.7000 0.4654
H18_3 H 0.2005 0.6981 0.5219
O12_3 O 0.1240(3) 0.7319(3) 0.6143(3)
S3_3 S 0.7378(2) 0.4520(2) 0.8908(2)
C21_3 C 0.7965(6) 0.5174(3) 0.5774(4)
C22_3 C 0.7986(6) 0.5707(3) 0.6106(4)
H19_3 H 0.8028 0.6077 0.5911
C23_3 C 0.7943(4) 0.5679(3) 0.6739(3)
C24_3 C 0.7866(4) 0.5122(3) 0.7021(3)
H20_3 H 0.7831 0.5105 0.7440
C25_3 C 0.7839(4) 0.4580(3) 0.6681(3)
C26_3 C 0.7891(5) 0.4616(3) 0.6062(3)
H21_3 H 0.7876 0.4264 0.5832
C27_3 C 0.7951(4) 0.6260(3) 0.7080(3)
C28_3 C 0.7773(3) 0.3971(3) 0.6969(3)
C29_3 C 0.8134(10) 0.4656(12) 0.8697(11)
H22_3 H 0.8399 0.4441 0.8965
H23_3 H 0.8197 0.4519 0.8290
H24_3 H 0.8217 0.5081 0.8721
C30_3 C 0.6910(6) 0.4922(7) 0.8399(7)
H25_3 H 0.6494 0.4857 0.8504
H26_3 H 0.7000 0.5346 0.8423
H27_3 H 0.6981 0.4781 0.7995
O15_3 O 0.7582(3) 0.3960(2) 0.7501(2)
O16_2 O 0.7899(3) 0.3533(2) 0.6639(2)
O17_3 O 0.7319(3) 0.3857(3) 0.8760(3)
N3_3 N 0.7980(5) 0.5238(3) 0.5143(3)
C31_3 C 0.7965(6) 0.4826(3) 0.4226(4)
C32_3 C 0.7986(6) 0.4293(3) 0.3894(4)
H28_3 H 0.8028 0.3923 0.4089
C33_3 C 0.7943(4) 0.4321(3) 0.3261(3)
C34_3 C 0.7866(4) 0.4878(3) 0.2979(3)
H29_3 H 0.7831 0.4895 0.2560
C35_3 C 0.7839(4) 0.5420(3) 0.3319(3)
C36_3 C 0.7891(5) 0.5384(3) 0.3938(3)
H30_3 H 0.7876 0.5736 0.4168
C37_3 C 0.7951(4) 0.3740(3) 0.2920(3)
C38_3 C 0.7773(3) 0.6029(3) 0.3031(3)
O20_3 O 0.7582(3) 0.6040(2) 0.2499(2)
O21_2 O 0.7899(3) 0.6467(2) 0.3361(2)
N4_3 N 0.7980(5) 0.4762(3) 0.4857(3)
S4_3 S 0.2622(2) 0.4520(2) 0.1092(2)
C39_3 C 0.2035(6) 0.5174(3) 0.4226(4)
C40_3 C 0.2014(6) 0.5707(3) 0.3894(4)
H31_3 H 0.1972 0.6077 0.4089
C41_3 C 0.2057(4) 0.5679(3) 0.3261(3)
C42_3 C 0.2134(4) 0.5122(3) 0.2979(3)
H32_3 H 0.2169 0.5105 0.2560
C43_3 C 0.2161(4) 0.4580(3) 0.3319(3)
C44_3 C 0.2109(5) 0.4616(3) 0.3938(3)
H33_3 H 0.2124 0.4264 0.4168
C45_3 C 0.2049(4) 0.6260(3) 0.2920(3)
C46_3 C 0.2227(3) 0.3971(3) 0.3031(3)
C47_3 C 0.1866(10) 0.4656(12) 0.1303(11)
H34_3 H 0.1601 0.4441 0.1035
H35_3 H 0.1803 0.4519 0.1710
H36_3 H 0.1783 0.5081 0.1279
C48_3 C 0.3090(6) 0.4922(7) 0.1601(7)
H37_3 H 0.3506 0.4857 0.1496
H38_3 H 0.3000 0.5346 0.1577
H39_3 H 0.3019 0.4781 0.2005
O24_3 O 0.2418(3) 0.3960(2) 0.2499(2)
O25_2 O 0.2101(3) 0.3533(2) 0.3361(2)
O26_3 O 0.2681(3) 0.3857(3) 0.1240(3)
N5_3 N 0.2020(5) 0.5238(3) 0.4857(3)
C49_3 C 0.2035(6) 0.4826(3) 0.5774(4)
C50_3 C 0.2014(6) 0.4293(3) 0.6106(4)
H40_3 H 0.1972 0.3923 0.5911
C51_3 C 0.2057(4) 0.4321(3) 0.6739(3)
C52_3 C 0.2134(4) 0.4878(3) 0.7021(3)
H41_3 H 0.2169 0.4895 0.7440
C53_3 C 0.2161(4) 0.5420(3) 0.6681(3)
C54_3 C 0.2109(5) 0.5384(3) 0.6062(3)
H42_3 H 0.2124 0.5736 0.5832
C55_3 C 0.2049(4) 0.3740(3) 0.7080(3)
C56_3 C 0.2227(3) 0.6029(3) 0.6969(3)
O29_3 O 0.2418(3) 0.6040(2) 0.7501(2)
O30_2 O 0.2101(3) 0.6467(2) 0.6639(2)
N6_3 N 0.2020(5) 0.4762(3) 0.5143(3)
S5_3 S 0.2622(2) 0.5480(2) 0.8908(2)
C57_3 C 0.1866(10) 0.5344(12) 0.8697(11)
H43_3 H 0.1601 0.5559 0.8965
H44_3 H 0.1803 0.5481 0.8290
H45_3 H 0.1783 0.4919 0.8721
C58_3 C 0.3090(6) 0.5078(7) 0.8399(7)
H46_3 H 0.3506 0.5143 0.8504
H47_3 H 0.3000 0.4654 0.8423
H48_3 H 0.3019 0.5219 0.7995
O31_3 O 0.2681(3) 0.6143(3) 0.8760(3)
S6_3 S 0.7378(2) 0.5480(2) 0.1092(2)
C59_3 C 0.8134(10) 0.5344(12) 0.1303(11)
H49_3 H 0.8399 0.5559 0.1035
H50_3 H 0.8197 0.5481 0.1710
H51_3 H 0.8217 0.4919 0.1279
C60_3 C 0.6910(6) 0.5078(7) 0.1601(7)
H52_3 H 0.6494 0.5143 0.1496
H53_3 H 0.7000 0.4654 0.1577
H54_3 H 0.6981 0.5219 0.2005
O32_3 O 0.7319(3) 0.6143(3) 0.1240(3)
O33_2 O 0.2595(2) 0.2595(2) 0.2595(2)
O34_2 O 0.7405(2) 0.2595(2) 0.7405(2)
O47_2 O 0.3533(2) 0.6639(2) 0.7899(3)
O48_2 O 0.3533(2) 0.3361(2) 0.2101(3)
O49_2 O 0.6467(2) 0.6639(2) 0.2101(3)
O50_2 O 0.6467(2) 0.3361(2) 0.7899(3)
S1_4 S 0.1092(2) 0.2622(2) 0.4520(2)
C1_4 C 0.4226(4) 0.2035(6) 0.5174(3)
C2_4 C 0.3894(4) 0.2014(6) 0.5707(3)
H1_4 H 0.4089 0.1972 0.6077
C3_4 C 0.3261(3) 0.2057(4) 0.5679(3)
C4_4 C 0.2979(3) 0.2134(4) 0.5122(3)
H2_4 H 0.2560 0.2169 0.5105
C5_4 C 0.3319(3) 0.2161(4) 0.4580(3)
C6_4 C 0.3938(3) 0.2109(5) 0.4616(3)
H3_4 H 0.4168 0.2124 0.4264
C7_4 C 0.2920(3) 0.2049(4) 0.6260(3)
C8_4 C 0.3031(3) 0.2227(3) 0.3971(3)
C9_4 C 0.1303(11) 0.1866(10) 0.4656(12)
H4_4 H 0.1035 0.1601 0.4441
H5_4 H 0.1710 0.1803 0.4519
H6_4 H 0.1279 0.1783 0.5081
C10_4 C 0.1601(7) 0.3090(6) 0.4922(7)
H7_4 H 0.1496 0.3506 0.4857
H8_4 H 0.1577 0.3000 0.5346
H9_4 H 0.2005 0.3019 0.4781
O4_4 O 0.2499(2) 0.2418(3) 0.3960(2)
O5_4 O 0.3361(2) 0.2101(3) 0.3533(2)
O6_4 O 0.1240(3) 0.2681(3) 0.3857(3)
N1_4 N 0.4857(3) 0.2020(5) 0.5238(3)
C11_4 C 0.5774(4) 0.2035(6) 0.4826(3)
C12_4 C 0.6106(4) 0.2014(6) 0.4293(3)
H10_4 H 0.5911 0.1972 0.3923
C13_4 C 0.6739(3) 0.2057(4) 0.4321(3)
C14_4 C 0.7021(3) 0.2134(4) 0.4878(3)
H11_4 H 0.7440 0.2169 0.4895
C15_4 C 0.6681(3) 0.2161(4) 0.5420(3)
C16_4 C 0.6062(3) 0.2109(5) 0.5384(3)
H12_4 H 0.5832 0.2124 0.5736
C17_4 C 0.7080(3) 0.2049(4) 0.3740(3)
C18_4 C 0.6969(3) 0.2227(3) 0.6029(3)
O9_4 O 0.7501(2) 0.2418(3) 0.6040(2)
O10_4 O 0.6639(2) 0.2101(3) 0.6467(2)
N2_4 N 0.5143(3) 0.2020(5) 0.4762(3)
S2_4 S 0.8908(2) 0.2622(2) 0.5480(2)
C19_4 C 0.8697(11) 0.1866(10) 0.5344(12)
H13_4 H 0.8965 0.1601 0.5559
H14_4 H 0.8290 0.1803 0.5481
H15_4 H 0.8721 0.1783 0.4919
C20_4 C 0.8399(7) 0.3090(6) 0.5078(7)
H16_4 H 0.8504 0.3506 0.5143
H17_4 H 0.8423 0.3000 0.4654
H18_4 H 0.7995 0.3019 0.5219
O12_4 O 0.8760(3) 0.2681(3) 0.6143(3)
S3_4 S 0.4520(2) 0.8908(2) 0.7378(2)
C21_4 C 0.5174(3) 0.5774(4) 0.7965(6)
C22_4 C 0.5707(3) 0.6106(4) 0.7986(6)
H19_4 H 0.6077 0.5911 0.8028
C23_4 C 0.5679(3) 0.6739(3) 0.7943(4)
C24_4 C 0.5122(3) 0.7021(3) 0.7866(4)
H20_4 H 0.5105 0.7440 0.7831
C25_4 C 0.4580(3) 0.6681(3) 0.7839(4)
C26_4 C 0.4616(3) 0.6062(3) 0.7891(5)
H21_4 H 0.4264 0.5832 0.7876
C27_4 C 0.6260(3) 0.7080(3) 0.7951(4)
C28_4 C 0.3971(3) 0.6969(3) 0.7773(3)
C29_4 C 0.4656(12) 0.8697(11) 0.8134(10)
H22_4 H 0.4441 0.8965 0.8399
H23_4 H 0.4519 0.8290 0.8197
H24_4 H 0.5081 0.8721 0.8217
C30_4 C 0.4922(7) 0.8399(7) 0.6910(6)
H25_4 H 0.4857 0.8504 0.6494
H26_4 H 0.5346 0.8423 0.7000
H27_4 H 0.4781 0.7995 0.6981
O15_4 O 0.3960(2) 0.7501(2) 0.7582(3)
O17_4 O 0.3857(3) 0.8760(3) 0.7319(3)
N3_4 N 0.5238(3) 0.5143(3) 0.7980(5)
C31_4 C 0.4826(3) 0.4226(4) 0.7965(6)
C32_4 C 0.4293(3) 0.3894(4) 0.7986(6)
H28_4 H 0.3923 0.4089 0.8028
C33_4 C 0.4321(3) 0.3261(3) 0.7943(4)
C34_4 C 0.4878(3) 0.2979(3) 0.7866(4)
H29_4 H 0.4895 0.2560 0.7831
C35_4 C 0.5420(3) 0.3319(3) 0.7839(4)
C36_4 C 0.5384(3) 0.3938(3) 0.7891(5)
H30_4 H 0.5736 0.4168 0.7876
C37_4 C 0.3740(3) 0.2920(3) 0.7951(4)
C38_4 C 0.6029(3) 0.3031(3) 0.7773(3)
O20_4 O 0.6040(2) 0.2499(2) 0.7582(3)
N4_4 N 0.4762(3) 0.4857(3) 0.7980(5)
S4_4 S 0.4520(2) 0.1092(2) 0.2622(2)
C39_4 C 0.5174(3) 0.4226(4) 0.2035(6)
C40_4 C 0.5707(3) 0.3894(4) 0.2014(6)
H31_4 H 0.6077 0.4089 0.1972
C41_4 C 0.5679(3) 0.3261(3) 0.2057(4)
C42_4 C 0.5122(3) 0.2979(3) 0.2134(4)
H32_4 H 0.5105 0.2560 0.2169
C43_4 C 0.4580(3) 0.3319(3) 0.2161(4)
C44_4 C 0.4616(3) 0.3938(3) 0.2109(5)
H33_4 H 0.4264 0.4168 0.2124
C45_4 C 0.6260(3) 0.2920(3) 0.2049(4)
C46_4 C 0.3971(3) 0.3031(3) 0.2227(3)
C47_4 C 0.4656(12) 0.1303(11) 0.1866(10)
H34_4 H 0.4441 0.1035 0.1601
H35_4 H 0.4519 0.1710 0.1803
H36_4 H 0.5081 0.1279 0.1783
C48_4 C 0.4922(7) 0.1601(7) 0.3090(6)
H37_4 H 0.4857 0.1496 0.3506
H38_4 H 0.5346 0.1577 0.3000
H39_4 H 0.4781 0.2005 0.3019
O24_4 O 0.3960(2) 0.2499(2) 0.2418(3)
O26_4 O 0.3857(3) 0.1240(3) 0.2681(3)
N5_4 N 0.5238(3) 0.4857(3) 0.2020(5)
C49_4 C 0.4826(3) 0.5774(4) 0.2035(6)
C50_4 C 0.4293(3) 0.6106(4) 0.2014(6)
H40_4 H 0.3923 0.5911 0.1972
C51_4 C 0.4321(3) 0.6739(3) 0.2057(4)
C52_4 C 0.4878(3) 0.7021(3) 0.2134(4)
H41_4 H 0.4895 0.7440 0.2169
C53_4 C 0.5420(3) 0.6681(3) 0.2161(4)
C54_4 C 0.5384(3) 0.6062(3) 0.2109(5)
H42_4 H 0.5736 0.5832 0.2124
C55_4 C 0.3740(3) 0.7080(3) 0.2049(4)
C56_4 C 0.6029(3) 0.6969(3) 0.2227(3)
O29_4 O 0.6040(2) 0.7501(2) 0.2418(3)
N6_4 N 0.4762(3) 0.5143(3) 0.2020(5)
S5_4 S 0.5480(2) 0.8908(2) 0.2622(2)
C57_4 C 0.5344(12) 0.8697(11) 0.1866(10)
H43_4 H 0.5559 0.8965 0.1601
H44_4 H 0.5481 0.8290 0.1803
H45_4 H 0.4919 0.8721 0.1783
C58_4 C 0.5078(7) 0.8399(7) 0.3090(6)
H46_4 H 0.5143 0.8504 0.3506
H47_4 H 0.4654 0.8423 0.3000
H48_4 H 0.5219 0.7995 0.3019
O31_4 O 0.6143(3) 0.8760(3) 0.2681(3)
S6_4 S 0.5480(2) 0.1092(2) 0.7378(2)
C59_4 C 0.5344(12) 0.1303(11) 0.8134(10)
H49_4 H 0.5559 0.1035 0.8399
H50_4 H 0.5481 0.1710 0.8197
H51_4 H 0.4919 0.1279 0.8217
C60_4 C 0.5078(7) 0.1601(7) 0.6910(6)
H52_4 H 0.5143 0.1496 0.6494
H53_4 H 0.4654 0.1577 0.7000
H54_4 H 0.5219 0.2005 0.6981
O32_4 O 0.6143(3) 0.1240(3) 0.7319(3)
loop_
_geom_bond_atom_site_label_1
_geom_bond_atom_site_label_2
_geom_bond_site_symmetry_1
_geom_bond_site_symmetry_2
C1 C2 1_555 1_555
C2 H1 1_555 1_555
C3 C2 1_555 1_555
C4 C3 1_555 1_555
H2 C4 1_555 1_555
C7 C3 1_555 1_555
O2 C7 1_555 1_555
O3 C7 1_555 1_555
N1 C1 1_555 1_555
C21 C22 1_555 1_555
C22 H19 1_555 1_555
C23 C22 1_555 1_555
C24 C23 1_555 1_555
H20 C24 1_555 1_555
C27 C23 1_555 1_555
O13 C27 1_555 1_555
O14 C27 1_555 1_555
N3 C21 1_555 1_555
Fe12 O14 1_555 1_555
Fe16 O3 1_555 1_555
Fe20 O2 1_555 1_555
O13 Fe16 1_555 1_555
Fe1 O1 1_555 1_555
O1 Fe6 1_555 1_555
S1 C9 1_555 1_555
H3 C6 1_555 1_555
C8 C5 1_555 1_555
C9 H4 1_555 1_555
H5 C9 1_555 1_555
C10 S1 1_555 1_555
H7 C10 1_555 1_555
H9 C10 1_555 1_555
O4 Fe1 1_555 1_555
O5 C8 1_555 1_555
O6 Fe1 1_555 1_555
H30 C36 1_555 1_555
C38 C35 1_555 1_555
O20 C38 1_555 1_555
O21 Fe1 1_555 1_555
Fe6 O20 1_555 1_555
S6 C59 1_555 1_555
C59 H49 1_555 1_555
H50 C59 1_555 1_555
C60 S6 1_555 1_555
H52 C60 1_555 1_555
H54 C60 1_555 1_555
O32 Fe6 1_555 1_555
Fe10 O1 1_555 1_555
O37 Fe6 1_555 1_555
O40 Fe1 1_555 1_555
O42 Fe6 1_555 1_555
O46 Fe1 1_555 1_555
O49 Fe6 1_555 1_555
S1 O6 1_555 1_555
C5 C6 1_555 1_555
C8 O4 1_555 1_555
O5 Fe10 1_555 1_555
C35 C36 1_555 1_555
C38 O21 1_555 1_555
S6 O32 1_555 1_555
H12 C16 1_555 1_555
C18 C15 1_555 1_555
O9 C18 1_555 1_555
O10 C18 1_555 1_555
Fe2 O9 1_555 1_555
O11 Fe2 1_555 1_555
S2 C19 1_555 1_555
C19 H13 1_555 1_555
H14 C19 1_555 1_555
C20 S2 1_555 1_555
H16 C20 1_555 1_555
H18 C20 1_555 1_555
O12 Fe2 1_555 1_555
H42 C54 1_555 1_555
C56 C53 1_555 1_555
O29 C56 1_555 1_555
O30 Fe2 1_555 1_555
Fe5 O11 1_555 1_555
S5 C57 1_555 1_555
C57 H43 1_555 1_555
H44 C57 1_555 1_555
C58 S5 1_555 1_555
H46 C58 1_555 1_555
H48 C58 1_555 1_555
O31 Fe5 1_555 1_555
Fe9 O10 1_555 1_555
O36 Fe5 1_555 1_555
O39 Fe2 1_555 1_555
O44 Fe5 1_555 1_555
O45 Fe2 1_555 1_555
O47 Fe5 1_555 1_555
C15 C16 1_555 1_555
O11 Fe9 1_555 1_555
S2 O12 1_555 1_555
C53 C54 1_555 1_555
C56 O30 1_555 1_555
O29 Fe5 1_555 1_555
S5 O31 1_555 1_555
C11 C12 1_555 1_555
C12 H10 1_555 1_555
C13 C12 1_555 1_555
C14 C13 1_555 1_555
H11 C14 1_555 1_555
C17 C13 1_555 1_555
O7 C17 1_555 1_555
O8 C17 1_555 1_555
C39 C40 1_555 1_555
C40 H31 1_555 1_555
C41 C40 1_555 1_555
C42 C41 1_555 1_555
H32 C42 1_555 1_555
C45 C41 1_555 1_555
O22 C45 1_555 1_555
O23 C45 1_555 1_555
N5 C39 1_555 1_555
Fe14 O23 1_555 1_555
Fe17 O8 1_555 1_555
Fe19 O7 1_555 1_555
C11 N2 1_555 1_555
O22 Fe17 1_555 1_555
Fe3 O15 1_555 1_555
S3 C29 1_555 1_555
H21 C26 1_555 1_555
C28 C25 1_555 1_555
C29 H22 1_555 1_555
H23 C29 1_555 1_555
C30 S3 1_555 1_555
H25 C30 1_555 1_555
H27 C30 1_555 1_555
O15 C28 1_555 1_555
O16 C28 1_555 1_555
O17 Fe3 1_555 1_555
Fe8 O16 1_555 1_555
O34 Fe3 1_555 1_555
O38 Fe3 1_555 1_555
O43 Fe3 1_555 1_555
O50 Fe3 1_555 1_555
S3 O17 1_555 1_555
C25 C26 1_555 1_555
Fe8 O34 1_555 1_555
C31 C32 1_555 1_555
C32 H28 1_555 1_555
C33 C32 1_555 1_555
C34 C33 1_555 1_555
H29 C34 1_555 1_555
C37 C33 1_555 1_555
O18 C37 1_555 1_555
O19 C37 1_555 1_555
Fe13 O19 1_555 1_555
Fe15 O18 1_555 1_555
C31 N4 1_555 1_555
C49 C50 1_555 1_555
C50 H40 1_555 1_555
C51 C50 1_555 1_555
C52 C51 1_555 1_555
H41 C52 1_555 1_555
C55 C51 1_555 1_555
O27 C55 1_555 1_555
O28 C55 1_555 1_555
Fe11 O28 1_555 1_555
Fe18 O27 1_555 1_555
C49 N6 1_555 1_555
Fe4 O24 1_555 1_555
S4 C47 1_555 1_555
H33 C44 1_555 1_555
C46 C43 1_555 1_555
C47 H34 1_555 1_555
H35 C47 1_555 1_555
C48 S4 1_555 1_555
H37 C48 1_555 1_555
H39 C48 1_555 1_555
O24 C46 1_555 1_555
O25 C46 1_555 1_555
O26 Fe4 1_555 1_555
Fe7 O25 1_555 1_555
O33 Fe4 1_555 1_555
O35 Fe4 1_555 1_555
O41 Fe4 1_555 1_555
O48 Fe4 1_555 1_555
S4 O26 1_555 1_555
C43 C44 1_555 1_555
Fe7 O33 1_555 1_555
H12_2 C16_2 1_555 1_555
C18_2 C15_2 1_555 1_555
O9_2 C18_2 1_555 1_555
O10_2 C18_2 1_555 1_555
Fe8 O9_2 1_555 1_555
S2_2 C19_2 1_555 1_555
C19_2 H13_2 1_555 1_555
H14_2 C19_2 1_555 1_555
C20_2 S2_2 1_555 1_555
H16_2 C20_2 1_555 1_555
H18_2 C20_2 1_555 1_555
O12_2 Fe8 1_555 1_555
Fe9_2 O10_2 1_555 1_555
O39_2 Fe8 1_555 1_555
O45_2 Fe8 1_555 1_555
C15_2 C16_2 1_555 1_555
O34 Fe9_2 1_555 1_555
S2_2 O12_2 1_555 1_555
C11_2 C12_2 1_555 1_555
C12_2 H10_2 1_555 1_555
C13_2 C12_2 1_555 1_555
C14_2 C13_2 1_555 1_555
H11_2 C14_2 1_555 1_555
C17_2 C13_2 1_555 1_555
O7_2 C17_2 1_555 1_555
O8_2 C17_2 1_555 1_555
Fe15 O8_2 1_555 1_555
Fe19_2 O7_2 1_555 1_555
C11_2 N2_2 1_555 1_555
C1_2 C2_2 1_555 1_555
C2_2 H1_2 1_555 1_555
C3_2 C2_2 1_555 1_555
C4_2 C3_2 1_555 1_555
H2_2 C4_2 1_555 1_555
C7_2 C3_2 1_555 1_555
O2_2 C7_2 1_555 1_555
O3_2 C7_2 1_555 1_555
N1_2 C1_2 1_555 1_555
Fe18 O3_2 1_555 1_555
Fe20_2 O2_2 1_555 1_555
S1_2 C9_2 1_555 1_555
H3_2 C6_2 1_555 1_555
C8_2 C5_2 1_555 1_555
C9_2 H4_2 1_555 1_555
H5_2 C9_2 1_555 1_555
C10_2 S1_2 1_555 1_555
H7_2 C10_2 1_555 1_555
H9_2 C10_2 1_555 1_555
O4_2 Fe7 1_555 1_555
O5_2 C8_2 1_555 1_555
O6_2 Fe7 1_555 1_555
Fe10_2 O33 1_555 1_555
O40_2 Fe7 1_555 1_555
O46_2 Fe7 1_555 1_555
S1_2 O6_2 1_555 1_555
C5_2 C6_2 1_555 1_555
C8_2 O4_2 1_555 1_555
O5_2 Fe10_2 1_555 1_555
C21_2 C22_2 1_555 1_555
C22_2 H19_2 1_555 1_555
C23_2 C22_2 1_555 1_555
C24_2 C23_2 1_555 1_555
H20_2 C24_2 1_555 1_555
C27_2 C23_2 1_555 1_555
O13_2 C27_2 1_555 1_555
O14_2 C27_2 1_555 1_555
N3_2 C21_2 1_555 1_555
Fe20 O14_2 1_555 1_555
O13_2 Fe12 1_555 1_555
H42_2 C54_2 1_555 1_555
C56_2 C53_2 1_555 1_555
O29_2 C56_2 1_555 1_555
S5_2 C57_2 1_555 1_555
C57_2 H43_2 1_555 1_555
H44_2 C57_2 1_555 1_555
C58_2 S5_2 1_555 1_555
H46_2 C58_2 1_555 1_555
H48_2 C58_2 1_555 1_555
O31_2 Fe10 1_555 1_555
O36_2 Fe10 1_555 1_555
O44_2 Fe10 1_555 1_555
C53_2 C54_2 1_555 1_555
C56_2 O49 1_555 1_555
O29_2 Fe10 1_555 1_555
S5_2 O31_2 1_555 1_555
Fe9 O15_2 1_555 1_555
S3_2 C29_2 1_555 1_555
H21_2 C26_2 1_555 1_555
C28_2 C25_2 1_555 1_555
C29_2 H22_2 1_555 1_555
H23_2 C29_2 1_555 1_555
C30_2 S3_2 1_555 1_555
H25_2 C30_2 1_555 1_555
H27_2 C30_2 1_555 1_555
O15_2 C28_2 1_555 1_555
O47 C28_2 1_555 1_555
O17_2 Fe9 1_555 1_555
O38_2 Fe9 1_555 1_555
O43_2 Fe9 1_555 1_555
S3_2 O17_2 1_555 1_555
C25_2 C26_2 1_555 1_555
C49_2 C50_2 1_555 1_555
C50_2 H40_2 1_555 1_555
C51_2 C50_2 1_555 1_555
C52_2 C51_2 1_555 1_555
H41_2 C52_2 1_555 1_555
C55_2 C51_2 1_555 1_555
O27_2 C55_2 1_555 1_555
O28_2 C55_2 1_555 1_555
Fe19 O28_2 1_555 1_555
Fe14 O27_2 1_555 1_555
C49_2 N6_2 1_555 1_555
H30_2 C36_2 1_555 1_555
C38_2 C35_2 1_555 1_555
O20_2 C38_2 1_555 1_555
Fe9_2 O20_2 1_555 1_555
S6_2 C59_2 1_555 1_555
C59_2 H49_2 1_555 1_555
H50_2 C59_2 1_555 1_555
C60_2 S6_2 1_555 1_555
H52_2 C60_2 1_555 1_555
H54_2 C60_2 1_555 1_555
O32_2 Fe9_2 1_555 1_555
O37_2 Fe9_2 1_555 1_555
O42_2 Fe9_2 1_555 1_555
C35_2 C36_2 1_555 1_555
C38_2 O50 1_555 1_555
S6_2 O32_2 1_555 1_555
C39_2 C40_2 1_555 1_555
C40_2 H31_2 1_555 1_555
C41_2 C40_2 1_555 1_555
C42_2 C41_2 1_555 1_555
H32_2 C42_2 1_555 1_555
C45_2 C41_2 1_555 1_555
O22_2 C45_2 1_555 1_555
O23_2 C45_2 1_555 1_555
N5_2 C39_2 1_555 1_555
Fe19_2 O23_2 1_555 1_555
O22_2 Fe13 1_555 1_555
C31_2 C32_2 1_555 1_555
C32_2 H28_2 1_555 1_555
C33_2 C32_2 1_555 1_555
C34_2 C33_2 1_555 1_555
H29_2 C34_2 1_555 1_555
C37_2 C33_2 1_555 1_555
O18_2 C37_2 1_555 1_555
O19_2 C37_2 1_555 1_555
Fe20_2 O19_2 1_555 1_555
Fe11 O18_2 1_555 1_555
C31_2 N4_2 1_555 1_555
Fe10_2 O24_2 1_555 1_555
S4_2 C47_2 1_555 1_555
H33_2 C44_2 1_555 1_555
C46_2 C43_2 1_555 1_555
C47_2 H34_2 1_555 1_555
H35_2 C47_2 1_555 1_555
C48_2 S4_2 1_555 1_555
H37_2 C48_2 1_555 1_555
H39_2 C48_2 1_555 1_555
O24_2 C46_2 1_555 1_555
O48 C46_2 1_555 1_555
O26_2 Fe10_2 1_555 1_555
O35_2 Fe10_2 1_555 1_555
O41_2 Fe10_2 1_555 1_555
S4_2 O26_2 1_555 1_555
C43_2 C44_2 1_555 1_555
Fe11 O1_2 1_555 1_555
O1_2 Fe18 1_555 1_555
S1_3 C9_3 1_555 1_555
C1_3 C2_3 1_555 1_555
C2_3 H1_3 1_555 1_555
C3_3 C2_3 1_555 1_555
C4_3 C3_3 1_555 1_555
H2_3 C4_3 1_555 1_555
C5_3 C4_3 1_555 1_555
C6_3 C1_3 1_555 1_555
H3_3 C6_3 1_555 1_555
C7_3 C3_3 1_555 1_555
C8_3 C5_3 1_555 1_555
C9_3 H4_3 1_555 1_555
H5_3 C9_3 1_555 1_555
H6_3 C9_3 1_555 1_555
C10_3 S1_3 1_555 1_555
H7_3 C10_3 1_555 1_555
H8_3 C10_3 1_555 1_555
H9_3 C10_3 1_555 1_555
O35_2 C7_3 1_555 1_555
O41 C7_3 1_555 1_555
O4_3 Fe11 1_555 1_555
O5_3 C8_3 1_555 1_555
O6_3 Fe11 1_555 1_555
N1_3 C1_3 1_555 1_555
C11_3 C12_3 1_555 1_555
C12_3 H10_3 1_555 1_555
C13_3 C12_3 1_555 1_555
C14_3 C13_3 1_555 1_555
H11_3 C14_3 1_555 1_555
C15_3 C14_3 1_555 1_555
C16_3 C11_3 1_555 1_555
H12_3 C16_3 1_555 1_555
C17_3 C13_3 1_555 1_555
C18_3 C15_3 1_555 1_555
O38_2 C17_3 1_555 1_555
O44 C17_3 1_555 1_555
O9_3 C18_3 1_555 1_555
O10_3 C18_3 1_555 1_555
N2_3 N1_3 1_555 1_555
Fe14 O9_3 1_555 1_555
O11_2 Fe14 1_555 1_555
S2_3 C19_3 1_555 1_555
C19_3 H13_3 1_555 1_555
H14_3 C19_3 1_555 1_555
H15_3 C19_3 1_555 1_555
C20_3 S2_3 1_555 1_555
H16_3 C20_3 1_555 1_555
H17_3 C20_3 1_555 1_555
H18_3 C20_3 1_555 1_555
O12_3 Fe14 1_555 1_555
Fe15 O15_3 1_555 1_555
S3_3 C29_3 1_555 1_555
C21_3 C22_3 1_555 1_555
C22_3 H19_3 1_555 1_555
C23_3 C22_3 1_555 1_555
C24_3 C23_3 1_555 1_555
H20_3 C24_3 1_555 1_555
C25_3 C24_3 1_555 1_555
C26_3 C21_3 1_555 1_555
H21_3 C26_3 1_555 1_555
C27_3 C23_3 1_555 1_555
C28_3 C25_3 1_555 1_555
C29_3 H22_3 1_555 1_555
H23_3 C29_3 1_555 1_555
H24_3 C29_3 1_555 1_555
C30_3 S3_3 1_555 1_555
H25_3 C30_3 1_555 1_555
H26_3 C30_3 1_555 1_555
H27_3 C30_3 1_555 1_555
O35 C27_3 1_555 1_555
O46_2 C27_3 1_555 1_555
O15_3 C28_3 1_555 1_555
O16_2 C28_3 1_555 1_555
O17_3 Fe15 1_555 1_555
N3_3 C21_3 1_555 1_555
C31_3 C32_3 1_555 1_555
C32_3 H28_3 1_555 1_555
C33_3 C32_3 1_555 1_555
C34_3 C33_3 1_555 1_555
H29_3 C34_3 1_555 1_555
C35_3 C34_3 1_555 1_555
C36_3 C31_3 1_555 1_555
H30_3 C36_3 1_555 1_555
C37_3 C33_3 1_555 1_555
C38_3 C35_3 1_555 1_555
O38 C37_3 1_555 1_555
O45_2 C37_3 1_555 1_555
O20_3 C38_3 1_555 1_555
O21_2 Fe11 1_555 1_555
N4_3 N3_3 1_555 1_555
Fe16 O24_3 1_555 1_555
S4_3 C47_3 1_555 1_555
C39_3 C40_3 1_555 1_555
C40_3 H31_3 1_555 1_555
C41_3 C40_3 1_555 1_555
C42_3 C41_3 1_555 1_555
H32_3 C42_3 1_555 1_555
C43_3 C42_3 1_555 1_555
C44_3 C39_3 1_555 1_555
H33_3 C44_3 1_555 1_555
C45_3 C41_3 1_555 1_555
C46_3 C43_3 1_555 1_555
C47_3 H34_3 1_555 1_555
H35_3 C47_3 1_555 1_555
H36_3 C47_3 1_555 1_555
C48_3 S4_3 1_555 1_555
H37_3 C48_3 1_555 1_555
H38_3 C48_3 1_555 1_555
H39_3 C48_3 1_555 1_555
O36 C45_3 1_555 1_555
O45 C45_3 1_555 1_555
O24_3 C46_3 1_555 1_555
O25_2 C46_3 1_555 1_555
O26_3 Fe16 1_555 1_555
N5_3 C39_3 1_555 1_555
C49_3 C50_3 1_555 1_555
C50_3 H40_3 1_555 1_555
C51_3 C50_3 1_555 1_555
C52_3 C51_3 1_555 1_555
H41_3 C52_3 1_555 1_555
C53_3 C52_3 1_555 1_555
C54_3 C49_3 1_555 1_555
H42_3 C54_3 1_555 1_555
C55_3 C51_3 1_555 1_555
C56_3 C53_3 1_555 1_555
O37 C55_3 1_555 1_555
O46 C55_3 1_555 1_555
O29_3 C56_3 1_555 1_555
O30_2 Fe14 1_555 1_555
N6_3 N5_3 1_555 1_555
Fe17 O11_2 1_555 1_555
S5_3 C57_3 1_555 1_555
C57_3 H43_3 1_555 1_555
H44_3 C57_3 1_555 1_555
H45_3 C57_3 1_555 1_555
C58_3 S5_3 1_555 1_555
H46_3 C58_3 1_555 1_555
H47_3 C58_3 1_555 1_555
H48_3 C58_3 1_555 1_555
O31_3 Fe17 1_555 1_555
Fe18 O20_3 1_555 1_555
S6_3 C59_3 1_555 1_555
C59_3 H49_3 1_555 1_555
H50_3 C59_3 1_555 1_555
H51_3 C59_3 1_555 1_555
C60_3 S6_3 1_555 1_555
H52_3 C60_3 1_555 1_555
H53_3 C60_3 1_555 1_555
H54_3 C60_3 1_555 1_555
O32_3 Fe18 1_555 1_555
Fe12 O25_2 1_555 1_555
Fe13 O16_2 1_555 1_555
Fe19 O10_3 1_555 1_555
Fe20_2 O1_2 1_555 1_555
O33_2 Fe16 1_555 1_555
O34_2 Fe15 1_555 1_555
O47_2 Fe17 1_555 1_555
O48_2 Fe16 1_555 1_555
O49_2 Fe18 1_555 1_555
O50_2 Fe15 1_555 1_555
S1_3 O6_3 1_555 1_555
C5_3 C6_3 1_555 1_555
C8_3 O4_3 1_555 1_555
O5_3 Fe20_2 1_555 1_555
C11_3 N2_3 1_555 1_555
C15_3 C16_3 1_555 1_555
O11_2 Fe19 1_555 1_555
S2_3 O12_3 1_555 1_555
S3_3 O17_3 1_555 1_555
C25_3 C26_3 1_555 1_555
C31_3 N4_3 1_555 1_555
C35_3 C36_3 1_555 1_555
C38_3 O21_2 1_555 1_555
S4_3 O26_3 1_555 1_555
C43_3 C44_3 1_555 1_555
C49_3 N6_3 1_555 1_555
C53_3 C54_3 1_555 1_555
C56_3 O30_2 1_555 1_555
O29_3 Fe17 1_555 1_555
S5_3 O31_3 1_555 1_555
S6_3 O32_3 1_555 1_555
Fe12 O33_2 1_555 1_555
Fe13 O34_2 1_555 1_555
S1_4 C9_4 1_555 1_555
C1_4 C2_4 1_555 1_555
C2_4 H1_4 1_555 1_555
C3_4 C2_4 1_555 1_555
C4_4 C3_4 1_555 1_555
H2_4 C4_4 1_555 1_555
C5_4 C4_4 1_555 1_555
C6_4 C1_4 1_555 1_555
H3_4 C6_4 1_555 1_555
C7_4 C3_4 1_555 1_555
C8_4 C5_4 1_555 1_555
C9_4 H4_4 1_555 1_555
H5_4 C9_4 1_555 1_555
H6_4 C9_4 1_555 1_555
C10_4 S1_4 1_555 1_555
H7_4 C10_4 1_555 1_555
H8_4 C10_4 1_555 1_555
H9_4 C10_4 1_555 1_555
O36_2 C7_4 1_555 1_555
O42 C7_4 1_555 1_555
O4_4 Fe12 1_555 1_555
O5_4 C8_4 1_555 1_555
O6_4 Fe12 1_555 1_555
N1_4 C1_4 1_555 1_555
C11_4 C12_4 1_555 1_555
C12_4 H10_4 1_555 1_555
C13_4 C12_4 1_555 1_555
C14_4 C13_4 1_555 1_555
H11_4 C14_4 1_555 1_555
C15_4 C14_4 1_555 1_555
C16_4 C11_4 1_555 1_555
H12_4 C16_4 1_555 1_555
C17_4 C13_4 1_555 1_555
C18_4 C15_4 1_555 1_555
O37_2 C17_4 1_555 1_555
O43 C17_4 1_555 1_555
O9_4 C18_4 1_555 1_555
O10_4 C18_4 1_555 1_555
N2_4 N1_4 1_555 1_555
Fe13 O9_4 1_555 1_555
S2_4 C19_4 1_555 1_555
C19_4 H13_4 1_555 1_555
H14_4 C19_4 1_555 1_555
H15_4 C19_4 1_555 1_555
C20_4 S2_4 1_555 1_555
H16_4 C20_4 1_555 1_555
H17_4 C20_4 1_555 1_555
H18_4 C20_4 1_555 1_555
O12_4 Fe13 1_555 1_555
Fe19_2 O10_4 1_555 1_555
Fe20 O33_2 1_555 1_555
S1_4 O6_4 1_555 1_555
C5_4 C6_4 1_555 1_555
C8_4 O4_4 1_555 1_555
O5_4 Fe20 1_555 1_555
C11_4 N2_4 1_555 1_555
C15_4 C16_4 1_555 1_555
O34_2 Fe19_2 1_555 1_555
S2_4 O12_4 1_555 1_555
Fe19 O15_4 1_555 1_555
S3_4 C29_4 1_555 1_555
C21_4 C22_4 1_555 1_555
C22_4 H19_4 1_555 1_555
C23_4 C22_4 1_555 1_555
C24_4 C23_4 1_555 1_555
H20_4 C24_4 1_555 1_555
C25_4 C24_4 1_555 1_555
C26_4 C21_4 1_555 1_555
H21_4 C26_4 1_555 1_555
C27_4 C23_4 1_555 1_555
C28_4 C25_4 1_555 1_555
C29_4 H22_4 1_555 1_555
H23_4 C29_4 1_555 1_555
H24_4 C29_4 1_555 1_555
C30_4 S3_4 1_555 1_555
H25_4 C30_4 1_555 1_555
H26_4 C30_4 1_555 1_555
H27_4 C30_4 1_555 1_555
O40_2 C27_4 1_555 1_555
O41_2 C27_4 1_555 1_555
O15_4 C28_4 1_555 1_555
O47_2 C28_4 1_555 1_555
O17_4 Fe19 1_555 1_555
N3_4 C21_4 1_555 1_555
C31_4 C32_4 1_555 1_555
C32_4 H28_4 1_555 1_555
C33_4 C32_4 1_555 1_555
C34_4 C33_4 1_555 1_555
H29_4 C34_4 1_555 1_555
C35_4 C34_4 1_555 1_555
C36_4 C31_4 1_555 1_555
H30_4 C36_4 1_555 1_555
C37_4 C33_4 1_555 1_555
C38_4 C35_4 1_555 1_555
O40 C37_4 1_555 1_555
O44_2 C37_4 1_555 1_555
O20_4 C38_4 1_555 1_555
N4_4 N3_4 1_555 1_555
Fe20 O24_4 1_555 1_555
S4_4 C47_4 1_555 1_555
C39_4 C40_4 1_555 1_555
C40_4 H31_4 1_555 1_555
C41_4 C40_4 1_555 1_555
C42_4 C41_4 1_555 1_555
H32_4 C42_4 1_555 1_555
C43_4 C42_4 1_555 1_555
C44_4 C39_4 1_555 1_555
H33_4 C44_4 1_555 1_555
C45_4 C41_4 1_555 1_555
C46_4 C43_4 1_555 1_555
C47_4 H34_4 1_555 1_555
H35_4 C47_4 1_555 1_555
H36_4 C47_4 1_555 1_555
C48_4 S4_4 1_555 1_555
H37_4 C48_4 1_555 1_555
H38_4 C48_4 1_555 1_555
H39_4 C48_4 1_555 1_555
O39_2 C45_4 1_555 1_555
O42_2 C45_4 1_555 1_555
O24_4 C46_4 1_555 1_555
O48_2 C46_4 1_555 1_555
O26_4 Fe20 1_555 1_555
N5_4 C39_4 1_555 1_555
C49_4 C50_4 1_555 1_555
C50_4 H40_4 1_555 1_555
C51_4 C50_4 1_555 1_555
C52_4 C51_4 1_555 1_555
H41_4 C52_4 1_555 1_555
C53_4 C52_4 1_555 1_555
C54_4 C49_4 1_555 1_555
H42_4 C54_4 1_555 1_555
C55_4 C51_4 1_555 1_555
C56_4 C53_4 1_555 1_555
O39 C55_4 1_555 1_555
O43_2 C55_4 1_555 1_555
O29_4 C56_4 1_555 1_555
N6_4 N5_4 1_555 1_555
S5_4 C57_4 1_555 1_555
C57_4 H43_4 1_555 1_555
H44_4 C57_4 1_555 1_555
H45_4 C57_4 1_555 1_555
C58_4 S5_4 1_555 1_555
H46_4 C58_4 1_555 1_555
H47_4 C58_4 1_555 1_555
H48_4 C58_4 1_555 1_555
O31_4 Fe20_2 1_555 1_555
Fe19_2 O20_4 1_555 1_555
S6_4 C59_4 1_555 1_555
C59_4 H49_4 1_555 1_555
H50_4 C59_4 1_555 1_555
H51_4 C59_4 1_555 1_555
C60_4 S6_4 1_555 1_555
H52_4 C60_4 1_555 1_555
H53_4 C60_4 1_555 1_555
H54_4 C60_4 1_555 1_555
O32_4 Fe19_2 1_555 1_555
S3_4 O17_4 1_555 1_555
C25_4 C26_4 1_555 1_555
C31_4 N4_4 1_555 1_555
C35_4 C36_4 1_555 1_555
C38_4 O50_2 1_555 1_555
S4_4 O26_4 1_555 1_555
C43_4 C44_4 1_555 1_555
C49_4 N6_4 1_555 1_555
C53_4 C54_4 1_555 1_555
C56_4 O49_2 1_555 1_555
O29_4 Fe20_2 1_555 1_555
S5_4 O31_4 1_555 1_555
S6_4 O32_4 1_555 1_555

#END
