
###############################################################################
#
# This file contains modified crystal structure data generated from the
# MOF subset of the Cambridge Structural Database (CSD) v543 
# hosted by the Cambridge Crystallographic Data Centre (CCDC).
#
# This work is licensed under the Creative Commons
# Attribution-NonCommercial-ShareAlike 4.0 International License.
# To view a copy of this license, visit
# http://creativecommons.org/licenses/by-nc-sa/4.0/
# or send a letter to
# Creative Commons, PO Box 1866, Mountain View, CA 94042, USA.
#
# CIF created using the CSD Python API on 29 September 2022
# The structure has been converted into the P1 space group
# The structure has a 3D framework
# The original CSD entry BAZBOU01 is in the monoclinic crystal system
# The original CSD entry BAZBOU01 is in a Sohncke space group
# The framework has been calculated to contain at least 10.0% void space
# The void calculation uses a probe of radius 1.32A, grid spacing 0.4
# H atom positions have been added when not included in the experimental data
#
###############################################################################

data_BAZBOU01
_chemical_formula_moiety         '(C204 H120 Co7 N12 O48)n'
_symmetry_cell_setting           triclinic
_symmetry_space_group_name_H-M   'P 1'
_symmetry_Int_Tables_number      1
_space_group_name_Hall           'P 1'
loop_
_symmetry_equiv_pos_site_id
_symmetry_equiv_pos_as_xyz
1 x,y,z
_cell_length_a                   17.285(11)
_cell_length_b                   19.965(13)
_cell_length_c                   13.994(9)
_cell_angle_alpha                90
_cell_angle_beta                 95.822(11)
_cell_angle_gamma                90
_cell_volume                     4804.35
loop_
_atom_site_label
_atom_site_type_symbol
_atom_site_fract_x
_atom_site_fract_y
_atom_site_fract_z
Co5 Co 0.0039(1) 0.1793(1) 0.4024(1)
C39 C 0.0008(5) 0.1814(5) 0.0545(3)
C43 C 0.0635(4) 0.1521(5) 0.2104(5)
N3 N 0.0022(4) 0.1804(5) 0.2533(3)
C66 C 0.0628(4) 0.1526(6) 0.1110(5)
H19 H 0.112073 0.129537 0.254658
H45 H 0.110831 0.130426 0.077374
O2 O 0.0812(7) 0.1090(5) 0.5898(9)
C5 C 0.1552(10) 0.0253(8) 0.5262(12)
C6 C 0.1013(9) 0.0849(7) 0.5150(12)
C7 C 0.0597(4) 0.2092(5) 0.8031(5)
O3 O 0.0765(6) 0.2552(5) 0.5935(7)
C15 C 0.2024(9) 0.0075(8) 0.4525(12)
C16 C 0.0605(4) 0.2097(5) 0.9025(5)
Co9 Co 0.5039(1) 0.6793(1) 0.4024(1)
Co10 Co 0.4961(1) 0.6793(1) 0.5976(1)
O5 O 0.0879(7) 0.2504(4) 0.4332(8)
O12 O 0.4188(7) 0.6090(5) 0.4102(9)
C18 C 0.1573(9) 0.3339(7) 0.5253(12)
C22 C 0.2027(8) 0.4366(7) 0.6145(10)
C25 C 0.2537(10) 0.4056(9) 0.4586(11)
C29 C 0.2910(8) 0.4317(7) 0.3789(10)
C32 C 0.3448(10) 0.5253(8) 0.4738(12)
C35 C 0.3987(9) 0.5849(7) 0.4850(12)
O20 O 0.0844(7) 0.1065(5) 0.4340(8)
O22 O 0.4156(7) 0.6065(5) 0.5660(8)
C45 C 0.1047(9) 0.2752(7) 0.5166(12)
C48 C 0.1568(8) 0.3788(7) 0.6040(10)
C53 C 0.2524(8) 0.4500(7) 0.5424(10)
C54 C 0.2021(9) 0.3516(8) 0.4514(12)
C59 C 0.3356(8) 0.4874(6) 0.3872(10)
C62 C 0.2976(9) 0.5075(8) 0.5475(12)
H3 H 0.203024 0.0400689 0.390159
H4 H 0.107677 0.231422 0.769423
H9 H 0.134779 0.00369293 0.673824
H10 H 0.109118 0.232247 0.946697
H11 H 0.196513 0.322085 0.385619
H13 H 0.118598 0.367629 0.659198
H18 H 0.283026 0.405826 0.310098
H28 H 0.365221 0.503693 0.326176
H31 H 0.296976 0.540069 0.609841
H34 H 0.20027 0.469939 0.675714
C14 C 0.1644(8) 0.9874(6) 0.6128(10)
O6 O 0.4121(7) 0.7504(4) 0.5668(8)
C19 C 0.3427(9) 0.8339(7) 0.4747(12)
C21 C 0.2973(8) 0.9366(7) 0.3855(10)
C24 C 0.2463(10) 0.9056(9) 0.5414(11)
C27 C 0.2090(8) 0.9317(7) 0.6211(10)
O16 O 0.4235(6) 0.7552(5) 0.4065(7)
C46 C 0.3953(9) 0.7752(7) 0.4834(12)
C49 C 0.3432(8) 0.8788(7) 0.3960(10)
C51 C 0.2476(8) 0.9500(7) 0.4576(10)
C55 C 0.2979(9) 0.8516(8) 0.5486(12)
H12 H 0.303487 0.822085 0.614381
H15 H 0.29973 0.969939 0.324286
H22 H 0.216974 0.905826 0.689902
H32 H 0.381402 0.867629 0.340802
C37 C 0.9403(4) 0.2092(5) 0.1969(5)
C63 C 0.9395(4) 0.2097(5) 0.0975(5)
H23 H 0.892323 0.231422 0.230577
H38 H 0.890882 0.232247 0.0533032
Co1 Co 0.9961(1) 0.1793(1) 0.5976(1)
O1 O 0.9121(7) 0.2504(4) 0.5668(8)
C1 C 0.8427(9) 0.3339(7) 0.4747(12)
C2 C 0.7973(8) 0.4366(7) 0.3855(10)
C3 C 0.7463(10) 0.4056(9) 0.5414(11)
C4 C 0.7090(8) 0.4317(7) 0.6211(10)
C8 C 0.9992(5) 0.1814(5) 0.9455(3)
C9 C 0.9365(4) 0.1521(5) 0.7896(5)
O4 O 0.9156(7) 0.1065(5) 0.5660(8)
C10 C 0.8953(9) 0.2752(7) 0.4834(12)
C11 C 0.8432(8) 0.3788(7) 0.3960(10)
C12 C 0.7476(8) 0.4500(7) 0.4576(10)
C13 C 0.7979(9) 0.3516(8) 0.5486(12)
N1 N 0.9978(4) 0.1804(5) 0.7467(3)
C17 C 0.9372(4) 0.1526(6) 0.8890(5)
O10 O 0.9188(7) 0.1090(5) 0.4102(9)
O11 O 0.5812(7) 0.6090(5) 0.5898(9)
C30 C 0.6552(10) 0.5253(8) 0.5262(12)
C31 C 0.8448(10) 0.0253(8) 0.4738(12)
C33 C 0.8987(9) 0.0849(7) 0.4850(12)
C34 C 0.6013(9) 0.5849(7) 0.5150(12)
O15 O 0.9235(6) 0.2552(5) 0.4065(7)
O21 O 0.5844(7) 0.6065(5) 0.4340(8)
C57 C 0.6644(8) 0.4874(6) 0.6128(10)
C60 C 0.7024(9) 0.5075(8) 0.4525(12)
C61 C 0.7976(9) 0.0075(8) 0.5475(12)
H1 H 0.79973 0.469939 0.324286
H2 H 0.803487 0.322085 0.614381
H5 H 0.716974 0.405826 0.689902
H6 H 0.889169 0.130426 0.922626
H7 H 0.887927 0.129537 0.745342
H8 H 0.881402 0.367629 0.340802
H26 H 0.634779 0.503693 0.673824
H27 H 0.865221 0.00369293 0.326176
H29 H 0.703024 0.540069 0.390159
H30 H 0.796976 0.0400689 0.609841
O7 O 0.5879(7) 0.7504(4) 0.4332(8)
C20 C 0.6573(9) 0.8339(7) 0.5253(12)
C23 C 0.7027(8) 0.9366(7) 0.6145(10)
C26 C 0.7537(10) 0.9056(9) 0.4586(11)
C28 C 0.7910(8) 0.9317(7) 0.3789(10)
O17 O 0.5765(6) 0.7552(5) 0.5935(7)
C47 C 0.6047(9) 0.7752(7) 0.5166(12)
C50 C 0.6568(8) 0.8788(7) 0.6040(10)
C52 C 0.7524(8) 0.9500(7) 0.5424(10)
C56 C 0.7021(9) 0.8516(8) 0.4514(12)
C58 C 0.8356(8) 0.9874(6) 0.3872(10)
H14 H 0.696513 0.822085 0.385619
H20 H 0.70027 0.969939 0.675714
H21 H 0.783026 0.905826 0.310098
H33 H 0.618598 0.867629 0.659198
C37_2 C 0.4403(4) 0.7092(5) 0.1969(5)
C39_2 C 0.5008(5) 0.6814(5) 0.0545(3)
C43_2 C 0.5635(4) 0.6521(5) 0.2104(5)
N3_2 N 0.5022(4) 0.6804(5) 0.2533(3)
C63_2 C 0.4395(4) 0.7097(5) 0.0975(5)
C66_2 C 0.5628(4) 0.6526(6) 0.1110(5)
H19_2 H 0.612073 0.629537 0.254658
H23_2 H 0.392323 0.731422 0.230577
H38_2 H 0.390882 0.732247 0.0533032
H45_2 H 0.610831 0.630426 0.077374
C7_2 C 0.5597(4) 0.7092(5) 0.8031(5)
C8_2 C 0.4992(5) 0.6814(5) 0.9455(3)
C9_2 C 0.4365(4) 0.6521(5) 0.7896(5)
N1_2 N 0.4978(4) 0.6804(5) 0.7467(3)
C16_2 C 0.5605(4) 0.7097(5) 0.9025(5)
C17_2 C 0.4372(4) 0.6526(6) 0.8890(5)
H4_2 H 0.607677 0.731422 0.769423
H6_2 H 0.389169 0.630426 0.922626
H7_2 H 0.387927 0.629537 0.745342
H10_2 H 0.609118 0.732247 0.946697
Co19 Co 0.3359(1) 0.1518(1) 0.0667(1)
O34 O 0.2532(7) 0.0804(6) 0.0753(9)
C103 C 0.2275(10) 0.0568(8) 0.1485(13)
Co25 Co 0.3278(1) 0.1506(1) 0.2626(1)
O42 O 0.2421(7) 0.0832(5) 0.2303(6)
H62 H 0.125911 0.0115213 0.273394
C84 C 0.0839(9) 0.3775(8) 0.2007(11)
C85 C 0.0388(9) 0.4834(8) 0.1201(12)
C86 C 0.1822(9) 0.3552(8) 0.0647(11)
C87 C 0.1312(9) 0.3203(8) 0.2076(12)
C93 C 0.0392(8) 0.4010(7) 0.2773(10)
C94 C 0.0828(9) 0.4220(9) 0.1222(12)
C95 C 0.1387(8) 0.4131(8) 0.0563(11)
C96 C 0.1759(9) 0.3067(8) 0.1392(12)
O39 O 0.2458(7) 0.2242(5) 0.2328(8)
C104 C 0.1269(10) 0.9784(8) 0.2117(13)
C105 C 0.0834(10) 0.8798(9) 0.1275(12)
C106 C 0.1672(9) 0.9577(8) 0.0528(12)
C108 C 0.0253(9) 0.9107(9) 0.2761(11)
O47 O 0.2531(6) 0.2249(5) 0.0686(7)
C110 C 0.1733(9) 0.9958(8) 0.1386(13)
C111 C 0.0818(10) 0.9198(9) 0.2079(12)
C112 C 0.1239(9) 0.9034(8) 0.0502(12)
C113 C 0.0350(9) 0.8197(9) 0.1242(13)
C131 C 0.2275(9) 0.2499(7) 0.1480(12)
H41 H 0.223363 0.345774 0.0122681
H44 H 0.0409983 0.370674 0.34217
H49 H 0.147015 0.450316 0.0013746
H54 H 0.131002 0.287161 0.269385
H60 H 0.0433059 0.519341 0.0623908
H63 H 0.0185042 0.94838 0.330892
H73 H 0.0377748 0.784508 0.0651897
O38 O 0.4215(8) 0.0822(6) 0.0977(9)
C109 C 0.4354(10) 0.0562(8) 0.1809(13)
O46 O 0.4114(7) 0.0777(5) 0.2536(8)
H80 H 0.543306 0.0193413 0.0623908
Co17 Co 0.8359(1) 0.6518(1) 0.0667(1)
O33 O 0.7532(7) 0.5804(6) 0.0753(9)
O36 O 0.9173(7) 0.7254(5) 0.0958(9)
O37 O 0.9215(8) 0.5822(6) 0.0977(9)
O40 O 0.7458(7) 0.7242(5) 0.2328(8)
Co23 Co 0.8278(1) 0.6506(1) 0.2626(1)
O41 O 0.7421(7) 0.5832(5) 0.2303(6)
O44 O 0.9092(7) 0.7240(6) 0.2589(8)
O45 O 0.9114(7) 0.5777(5) 0.2536(8)
O48 O 0.7531(6) 0.7249(5) 0.0686(7)
N8 N 0.8290(5) 0.6484(7) 0.4087(6)
C69 C 0.7275(10) 0.5568(8) 0.1485(13)
C70 C 0.6269(10) 0.4784(8) 0.2117(13)
C71 C 0.5834(10) 0.3798(9) 0.1275(12)
C72 C 0.6672(9) 0.4577(8) 0.0528(12)
C73 C 0.4860(10) 0.3062(9) 0.1934(13)
C74 C 0.5253(9) 0.4107(9) 0.2761(11)
C75 C 0.9354(10) 0.5562(8) 0.1809(13)
C76 C 0.6733(9) 0.4958(8) 0.1386(13)
C77 C 0.5818(10) 0.4198(9) 0.2079(12)
C78 C 0.6239(9) 0.4034(8) 0.0502(12)
C79 C 0.5350(9) 0.3197(9) 0.1242(13)
C80 C 0.4802(9) 0.3538(8) 0.2709(11)
C81 C 0.9360(9) 0.7480(8) 0.1837(13)
C82 C 0.9917(9) 0.4966(8) 0.1899(12)
C83 C 0.9958(8) 0.4574(7) 0.2740(11)
C88 C 0.7753(7) 0.6717(6) 0.4537(9)
C89 C 0.8295(7) 0.6472(8) 0.6130(7)
C90 C 0.8827(7) 0.6190(7) 0.4663(9)
C91 C 0.7614(3) 0.6392(6) 0.7619(5)
C92 C 0.9012(3) 0.6452(6) 0.7756(5)
C97 C 0.7275(9) 0.7499(7) 0.1480(12)
C98 C 0.7704(7) 0.6732(6) 0.5514(8)
C99 C 0.8858(7) 0.6146(7) 0.5663(8)
C100 C 0.8304(4) 0.6415(5) 0.7190(3)
O35 O 0.4173(7) 0.2254(5) 0.0958(9)
C107 C 0.9860(10) 0.8062(9) 0.1934(13)
O43 O 0.4092(7) 0.2240(6) 0.2589(8)
C114 C 0.9802(9) 0.8538(8) 0.2709(11)
C115 C 0.4360(9) 0.2480(8) 0.1837(13)
C116 C 0.4917(9) 0.9966(8) 0.1899(12)
C117 C 0.4958(8) 0.9574(7) 0.2740(11)
C118 C 0.5839(9) 0.8775(8) 0.2007(11)
C119 C 0.5388(9) 0.9834(8) 0.1201(12)
C120 C 0.6822(9) 0.8552(8) 0.0647(11)
C121 C 0.6312(9) 0.8203(8) 0.2076(12)
N10 N 0.8338(4) 0.6444(5) 0.9180(3)
C127 C 0.5392(8) 0.9010(7) 0.2773(10)
C128 C 0.5828(9) 0.9220(9) 0.1222(12)
C129 C 0.6387(8) 0.9131(8) 0.0563(11)
C130 C 0.6759(9) 0.8067(8) 0.1392(12)
C135 C 0.7631(3) 0.6407(6) 0.8614(5)
C136 C 0.9029(3) 0.6467(6) 0.8751(5)
H36 H 0.537775 0.284508 0.0651897
H40 H 0.440228 0.344444 0.324756
H42 H 0.964843 0.472155 0.334663
H43 H 0.930034 0.595437 0.432953
H46 H 0.518504 0.44838 0.330892
H47 H 0.726268 0.693546 0.409422
H48 H 0.625911 0.511521 0.273394
H50 H 0.705968 0.636221 0.717563
H53 H 0.955293 0.646922 0.741985
H55 H 0.719621 0.695022 0.579578
H56 H 0.931674 0.586038 0.606944
H64 H 0.958324 0.649675 0.919454
H67 H 0.723363 0.845774 0.0122681
H69 H 0.647015 0.950316 0.0013746
H70 H 0.631002 0.787161 0.269385
H72 H 0.540998 0.870674 0.34217
H74 H 0.940228 0.844444 0.324756
H75 H 0.464843 0.972155 0.334663
H78 H 0.708995 0.638974 0.89499
H52 H 0.697149 0.472743 0.991431
H58 H 0.618571 0.374274 0.984063
N8_2 N 0.3290(5) 0.1484(7) 0.4087(6)
C88_2 C 0.2753(7) 0.1717(6) 0.4537(9)
C89_2 C 0.3295(7) 0.1472(8) 0.6130(7)
C90_2 C 0.3827(7) 0.1190(7) 0.4663(9)
C91_2 C 0.2614(3) 0.1392(6) 0.7619(5)
C92_2 C 0.4012(3) 0.1452(6) 0.7756(5)
C98_2 C 0.2704(7) 0.1732(6) 0.5514(8)
C99_2 C 0.3858(7) 0.1146(7) 0.5663(8)
C100_2 C 0.3304(4) 0.1415(5) 0.7190(3)
N10_2 N 0.3338(4) 0.1444(5) 0.9180(3)
C135_2 C 0.2631(3) 0.1407(6) 0.8614(5)
C136_2 C 0.4029(3) 0.1467(6) 0.8751(5)
H43_2 H 0.430034 0.0954372 0.432953
H47_2 H 0.226268 0.193546 0.409422
H50_2 H 0.205968 0.136221 0.717563
H53_2 H 0.455293 0.146922 0.741985
H55_2 H 0.219621 0.195022 0.579578
H56_2 H 0.431674 0.0860382 0.606944
H64_2 H 0.458324 0.149675 0.919454
H78_2 H 0.208995 0.138974 0.89499
H61 H 0.197149 0.972743 0.991431
H79 H 0.118571 0.874274 0.984063
Co20 Co 0.6641(1) 0.1518(1) 0.9333(1)
O38_2 O 0.5785(8) 0.0822(6) 0.9023(9)
C109_2 C 0.5646(10) 0.0562(8) 0.8191(13)
Co26 Co 0.6722(1) 0.1506(1) 0.7374(1)
O46_2 O 0.5886(7) 0.0777(5) 0.7464(8)
H80_2 H 0.456694 0.0193413 0.937609
N7 N 0.1662(4) 0.6444(5) 0.0820(3)
C101 C 0.2369(3) 0.6407(6) 0.1386(5)
C102 C 0.0971(3) 0.6467(6) 0.1249(5)
Co24 Co 0.1722(1) 0.6506(1) 0.7374(1)
N9 N 0.1710(5) 0.6484(7) 0.5913(6)
C122 C 0.2247(7) 0.6717(6) 0.5463(9)
C123 C 0.1705(7) 0.6472(8) 0.3870(7)
C124 C 0.1173(7) 0.6190(7) 0.5337(9)
C125 C 0.2386(3) 0.6392(6) 0.2381(5)
C126 C 0.0988(3) 0.6452(6) 0.2244(5)
C132 C 0.2296(7) 0.6732(6) 0.4486(8)
C133 C 0.1142(7) 0.6146(7) 0.4337(8)
C134 C 0.1696(4) 0.6415(5) 0.2810(3)
H35 H 0.041676 0.649675 0.080546
H52_2 H 0.302851 0.472743 0.00856926
H57 H 0.291005 0.638974 0.10501
H58_2 H 0.381429 0.374274 0.015937
H65 H 0.294032 0.636221 0.282437
H66 H 0.273732 0.693546 0.590578
H68 H 0.0447068 0.646922 0.258015
H71 H 0.0699663 0.595437 0.567047
H76 H 0.280379 0.695022 0.420422
H77 H 0.0683255 0.586038 0.393056
Co14 Co 0.1641(1) 0.6518(1) 0.9333(1)
O25 O 0.2468(7) 0.5804(6) 0.9247(9)
O26 O 0.0827(7) 0.7254(5) 0.9042(9)
O27 O 0.0785(8) 0.5822(6) 0.9023(9)
O28 O 0.2542(7) 0.7242(5) 0.7672(8)
C69_2 C 0.2725(10) 0.5568(8) 0.8515(13)
C70_2 C 0.3731(10) 0.4784(8) 0.7883(13)
C71_2 C 0.4166(10) 0.3798(9) 0.8725(12)
C72_2 C 0.3328(9) 0.4577(8) 0.9472(12)
C73_2 C 0.5140(10) 0.3062(9) 0.8066(13)
C74_2 C 0.4747(9) 0.4107(9) 0.7239(11)
C75_2 C 0.0646(10) 0.5562(8) 0.8191(13)
O29 O 0.2579(7) 0.5832(5) 0.7697(6)
O30 O 0.0908(7) 0.7240(6) 0.7411(8)
O31 O 0.0886(7) 0.5777(5) 0.7464(8)
O32 O 0.2469(6) 0.7249(5) 0.9314(7)
C76_2 C 0.3267(9) 0.4958(8) 0.8614(13)
C77_2 C 0.4182(10) 0.4198(9) 0.7921(12)
C78_2 C 0.3761(9) 0.4034(8) 0.9498(12)
C79_2 C 0.4650(9) 0.3197(9) 0.8758(13)
C80_2 C 0.5198(9) 0.3538(8) 0.7291(11)
C81_2 C 0.0640(9) 0.7480(8) 0.8163(13)
C82_2 C 0.0083(9) 0.4966(8) 0.8101(12)
C83_2 C 0.0042(8) 0.4574(7) 0.7260(11)
C97_2 C 0.2725(9) 0.7499(7) 0.8520(12)
O35_2 O 0.5827(7) 0.2254(5) 0.9042(9)
C107_2 C 0.0140(10) 0.8062(9) 0.8066(13)
O43_2 O 0.5908(7) 0.2240(6) 0.7411(8)
C114_2 C 0.0198(9) 0.8538(8) 0.7291(11)
C115_2 C 0.5640(9) 0.2480(8) 0.8163(13)
C116_2 C 0.5083(9) 0.9966(8) 0.8101(12)
C117_2 C 0.5042(8) 0.9574(7) 0.7260(11)
C118_2 C 0.4161(9) 0.8775(8) 0.7993(11)
C119_2 C 0.4612(9) 0.9834(8) 0.8799(12)
C120_2 C 0.3178(9) 0.8552(8) 0.9353(11)
C121_2 C 0.3688(9) 0.8203(8) 0.7924(12)
C127_2 C 0.4608(8) 0.9010(7) 0.7227(10)
C128_2 C 0.4172(9) 0.9220(9) 0.8778(12)
C129_2 C 0.3613(8) 0.9131(8) 0.9437(11)
C130_2 C 0.3241(9) 0.8067(8) 0.8608(12)
H36_2 H 0.462225 0.284508 0.93481
H40_2 H 0.559772 0.344444 0.675244
H42_2 H 0.0351569 0.472155 0.665337
H46_2 H 0.481496 0.44838 0.669108
H48_2 H 0.374089 0.511521 0.726606
H67_2 H 0.276637 0.845774 0.987732
H69_2 H 0.352985 0.950316 0.998625
H70_2 H 0.368998 0.787161 0.730615
H72_2 H 0.459002 0.870674 0.65783
H74_2 H 0.0597724 0.844444 0.675244
H75_2 H 0.535157 0.972155 0.665337
O34_2 O 0.7468(7) 0.0804(6) 0.9247(9)
C103_2 C 0.7725(10) 0.0568(8) 0.8515(13)
O42_2 O 0.7579(7) 0.0832(5) 0.7697(6)
H62_2 H 0.874089 0.0115213 0.726606
C84_2 C 0.9161(9) 0.3775(8) 0.7993(11)
C85_2 C 0.9612(9) 0.4834(8) 0.8799(12)
C86_2 C 0.8178(9) 0.3552(8) 0.9353(11)
C87_2 C 0.8688(9) 0.3203(8) 0.7924(12)
C93_2 C 0.9608(8) 0.4010(7) 0.7227(10)
C94_2 C 0.9172(9) 0.4220(9) 0.8778(12)
C95_2 C 0.8613(8) 0.4131(8) 0.9437(11)
C96_2 C 0.8241(9) 0.3067(8) 0.8608(12)
O39_2 O 0.7542(7) 0.2242(5) 0.7672(8)
C104_2 C 0.8731(10) 0.9784(8) 0.7883(13)
C105_2 C 0.9166(10) 0.8798(9) 0.8725(12)
C106_2 C 0.8328(9) 0.9577(8) 0.9472(12)
C108_2 C 0.9747(9) 0.9107(9) 0.7239(11)
O47_2 O 0.7469(6) 0.2249(5) 0.9314(7)
C110_2 C 0.8267(9) 0.9958(8) 0.8614(13)
C111_2 C 0.9182(10) 0.9198(9) 0.7921(12)
C112_2 C 0.8761(9) 0.9034(8) 0.9498(12)
C113_2 C 0.9650(9) 0.8197(9) 0.8758(13)
C131_2 C 0.7725(9) 0.2499(7) 0.8520(12)
H41_2 H 0.776637 0.345774 0.987732
H44_2 H 0.959002 0.370674 0.65783
H49_2 H 0.852985 0.450316 0.998625
H54_2 H 0.868998 0.287161 0.730615
H60_2 H 0.956694 0.519341 0.937609
H63_2 H 0.981496 0.94838 0.669108
H73_2 H 0.962225 0.784508 0.93481
N7_2 N 0.6662(4) 0.1444(5) 0.0820(3)
C101_2 C 0.7369(3) 0.1407(6) 0.1386(5)
C102_2 C 0.5971(3) 0.1467(6) 0.1249(5)
N9_2 N 0.6710(5) 0.1484(7) 0.5913(6)
C122_2 C 0.7247(7) 0.1717(6) 0.5463(9)
C123_2 C 0.6705(7) 0.1472(8) 0.3870(7)
C124_2 C 0.6173(7) 0.1190(7) 0.5337(9)
C125_2 C 0.7386(3) 0.1392(6) 0.2381(5)
C126_2 C 0.5988(3) 0.1452(6) 0.2244(5)
C132_2 C 0.7296(7) 0.1732(6) 0.4486(8)
C133_2 C 0.6142(7) 0.1146(7) 0.4337(8)
C134_2 C 0.6696(4) 0.1415(5) 0.2810(3)
H35_2 H 0.541676 0.149675 0.080546
H57_2 H 0.791005 0.138974 0.10501
H65_2 H 0.794032 0.136221 0.282437
H66_2 H 0.773732 0.193546 0.590578
H68_2 H 0.544707 0.146922 0.258015
H71_2 H 0.569966 0.0954372 0.567047
H76_2 H 0.780379 0.195022 0.420422
H77_2 H 0.568326 0.0860382 0.393056
H61_2 H 0.802851 0.972743 0.00856926
H79_2 H 0.881429 0.874274 0.015937
loop_
_geom_bond_atom_site_label_1
_geom_bond_atom_site_label_2
_geom_bond_site_symmetry_1
_geom_bond_site_symmetry_2
Co5 N3 1_555 1_555
C43 N3 1_555 1_555
C66 C39 1_555 1_555
C43 C66 1_555 1_555
C43 H19 1_555 1_555
C66 H45 1_555 1_555
C5 C6 1_555 1_555
C6 O2 1_555 1_555
C15 C5 1_555 1_555
C16 C7 1_555 1_555
Co9 Co10 1_555 1_555
Co10 O22 1_555 1_555
O5 Co5 1_555 1_555
O12 Co9 1_555 1_555
C18 C45 1_555 1_555
C22 C48 1_555 1_555
C25 C29 1_555 1_555
C29 C59 1_555 1_555
C32 C35 1_555 1_555
C35 O12 1_555 1_555
O20 C6 1_555 1_555
O22 C35 1_555 1_555
C45 O3 1_555 1_555
C48 C18 1_555 1_555
C53 C22 1_555 1_555
C54 C18 1_555 1_555
C59 C32 1_555 1_555
C62 C32 1_555 1_555
Co5 O20 1_555 1_555
O5 C45 1_555 1_555
C25 C53 1_555 1_555
C25 C54 1_555 1_555
C53 C62 1_555 1_555
C15 H3 1_555 1_555
C7 H4 1_555 1_555
C16 H10 1_555 1_555
C54 H11 1_555 1_555
C48 H13 1_555 1_555
C29 H18 1_555 1_555
C59 H28 1_555 1_555
C62 H31 1_555 1_555
C22 H34 1_555 1_555
Co9 O16 1_555 1_555
O6 Co10 1_555 1_555
C19 C46 1_555 1_555
C21 C49 1_555 1_555
C24 C27 1_555 1_555
C27 C14 1_555 1_555
O16 C46 1_555 1_555
C46 O6 1_555 1_555
C49 C19 1_555 1_555
C55 C19 1_555 1_555
C21 C51 1_555 1_555
C24 C51 1_555 1_555
C24 C55 1_555 1_555
C55 H12 1_555 1_555
C21 H15 1_555 1_555
C27 H22 1_555 1_555
C49 H32 1_555 1_555
C63 C37 1_555 1_555
C37 H23 1_555 1_555
C63 H38 1_555 1_555
Co1 O1 1_555 1_555
O1 C10 1_555 1_555
C1 C10 1_555 1_555
C2 C11 1_555 1_555
C3 C4 1_555 1_555
C4 C57 1_555 1_555
C9 N1 1_555 1_555
O4 Co1 1_555 1_555
C10 O15 1_555 1_555
C11 C1 1_555 1_555
C12 C2 1_555 1_555
C13 C1 1_555 1_555
N1 Co1 1_555 1_555
C17 C8 1_555 1_555
Co9 O21 1_555 1_555
O11 Co10 1_555 1_555
C30 C34 1_555 1_555
C31 C33 1_555 1_555
C33 O4 1_555 1_555
C34 O11 1_555 1_555
O21 C34 1_555 1_555
C57 C30 1_555 1_555
C60 C12 1_555 1_555
C61 C31 1_555 1_555
C3 C12 1_555 1_555
C3 C13 1_555 1_555
C9 C17 1_555 1_555
O10 C33 1_555 1_555
C30 C60 1_555 1_555
C2 H1 1_555 1_555
C13 H2 1_555 1_555
C4 H5 1_555 1_555
C17 H6 1_555 1_555
C9 H7 1_555 1_555
C11 H8 1_555 1_555
C57 H26 1_555 1_555
C60 H29 1_555 1_555
C61 H30 1_555 1_555
Co10 O17 1_555 1_555
O7 Co9 1_555 1_555
C20 C47 1_555 1_555
C23 C50 1_555 1_555
C26 C28 1_555 1_555
C28 C58 1_555 1_555
O17 C47 1_555 1_555
C47 O7 1_555 1_555
C50 C20 1_555 1_555
C52 C23 1_555 1_555
C56 C20 1_555 1_555
C26 C52 1_555 1_555
C26 C56 1_555 1_555
C56 H14 1_555 1_555
C23 H20 1_555 1_555
C28 H21 1_555 1_555
C50 H33 1_555 1_555
Co9 N3_2 1_555 1_555
C37_2 N3_2 1_555 1_555
C43_2 N3_2 1_555 1_555
C63_2 C37_2 1_555 1_555
C66_2 C39_2 1_555 1_555
C39_2 C63_2 1_555 1_555
C43_2 C66_2 1_555 1_555
C43_2 H19_2 1_555 1_555
C37_2 H23_2 1_555 1_555
C63_2 H38_2 1_555 1_555
C66_2 H45_2 1_555 1_555
C7_2 N1_2 1_555 1_555
C8_2 C16_2 1_555 1_555
C9_2 N1_2 1_555 1_555
N1_2 Co10 1_555 1_555
C16_2 C7_2 1_555 1_555
C17_2 C8_2 1_555 1_555
C9_2 C17_2 1_555 1_555
C7_2 H4_2 1_555 1_555
C17_2 H6_2 1_555 1_555
C9_2 H7_2 1_555 1_555
C16_2 H10_2 1_555 1_555
Co19 O34 1_555 1_555
O34 C103 1_555 1_555
C103 O42 1_555 1_555
Co25 Co19 1_555 1_555
O42 Co25 1_555 1_555
C84 C87 1_555 1_555
C86 C95 1_555 1_555
C87 C96 1_555 1_555
C94 C84 1_555 1_555
C95 C94 1_555 1_555
C96 C86 1_555 1_555
O39 Co25 1_555 1_555
C104 C110 1_555 1_555
C105 C111 1_555 1_555
C106 C110 1_555 1_555
C108 C111 1_555 1_555
O47 Co19 1_555 1_555
C111 C104 1_555 1_555
C112 C105 1_555 1_555
C113 C105 1_555 1_555
C131 C96 1_555 1_555
C84 C93 1_555 1_555
C85 C94 1_555 1_555
O39 C131 1_555 1_555
C106 C112 1_555 1_555
O47 C131 1_555 1_555
C86 H41 1_555 1_555
C93 H44 1_555 1_555
C95 H49 1_555 1_555
C87 H54 1_555 1_555
C85 H60 1_555 1_555
C108 H63 1_555 1_555
C113 H73 1_555 1_555
Co19 O38 1_555 1_555
O38 C109 1_555 1_555
C109 O46 1_555 1_555
O46 Co25 1_555 1_555
Co17 O33 1_555 1_555
O36 Co17 1_555 1_555
O37 Co17 1_555 1_555
O40 Co23 1_555 1_555
Co23 Co17 1_555 1_555
O41 Co23 1_555 1_555
O44 Co23 1_555 1_555
O45 Co23 1_555 1_555
O48 Co17 1_555 1_555
N8 Co23 1_555 1_555
O33 C69 1_555 1_555
C69 O41 1_555 1_555
C70 C76 1_555 1_555
C71 C77 1_555 1_555
C72 C76 1_555 1_555
C73 C79 1_555 1_555
C74 C77 1_555 1_555
C75 O37 1_555 1_555
O45 C75 1_555 1_555
C76 C69 1_555 1_555
C77 C70 1_555 1_555
C78 C71 1_555 1_555
C79 C71 1_555 1_555
C80 C73 1_555 1_555
C81 O36 1_555 1_555
C82 C75 1_555 1_555
C83 C82 1_555 1_555
C88 N8 1_555 1_555
C89 C98 1_555 1_555
C90 N8 1_555 1_555
C91 C100 1_555 1_555
C92 C100 1_555 1_555
C97 O40 1_555 1_555
C98 C88 1_555 1_555
C99 C89 1_555 1_555
C100 C89 1_555 1_555
Co19 O35 1_555 1_555
O35 C115 1_555 1_555
C107 C81 1_555 1_555
O43 Co25 1_555 1_555
C114 C107 1_555 1_555
C115 C73 1_555 1_555
C117 C116 1_555 1_555
C118 C121 1_555 1_555
C119 C116 1_555 1_555
C120 C129 1_555 1_555
C121 C130 1_555 1_555
C127 C117 1_555 1_555
C128 C118 1_555 1_555
C129 C128 1_555 1_555
C130 C97 1_555 1_555
C135 C91 1_555 1_555
C136 C92 1_555 1_555
C72 C78 1_555 1_555
C74 C80 1_555 1_555
O44 C81 1_555 1_555
O48 C97 1_555 1_555
C90 C99 1_555 1_555
O43 C115 1_555 1_555
C118 C127 1_555 1_555
C119 C128 1_555 1_555
C120 C130 1_555 1_555
N10 C135 1_555 1_555
N10 C136 1_555 1_555
C79 H36 1_555 1_555
C80 H40 1_555 1_555
C83 H42 1_555 1_555
C90 H43 1_555 1_555
C74 H46 1_555 1_555
C88 H47 1_555 1_555
C70 H48 1_555 1_555
C91 H50 1_555 1_555
C92 H53 1_555 1_555
C98 H55 1_555 1_555
C99 H56 1_555 1_555
C136 H64 1_555 1_555
C120 H67 1_555 1_555
C129 H69 1_555 1_555
C121 H70 1_555 1_555
C127 H72 1_555 1_555
C114 H74 1_555 1_555
C117 H75 1_555 1_555
C135 H78 1_555 1_555
N8_2 Co25 1_555 1_555
C88_2 N8_2 1_555 1_555
C89_2 C98_2 1_555 1_555
C90_2 N8_2 1_555 1_555
C91_2 C100_2 1_555 1_555
C92_2 C100_2 1_555 1_555
C98_2 C88_2 1_555 1_555
C99_2 C89_2 1_555 1_555
C100_2 C89_2 1_555 1_555
C135_2 C91_2 1_555 1_555
C136_2 C92_2 1_555 1_555
C90_2 C99_2 1_555 1_555
N10_2 C135_2 1_555 1_555
N10_2 C136_2 1_555 1_555
C90_2 H43_2 1_555 1_555
C88_2 H47_2 1_555 1_555
C91_2 H50_2 1_555 1_555
C92_2 H53_2 1_555 1_555
C98_2 H55_2 1_555 1_555
C99_2 H56_2 1_555 1_555
C136_2 H64_2 1_555 1_555
C135_2 H78_2 1_555 1_555
Co20 O38_2 1_555 1_555
O38_2 C109_2 1_555 1_555
C109_2 O46_2 1_555 1_555
Co26 Co20 1_555 1_555
O46_2 Co26 1_555 1_555
C101 N7 1_555 1_555
C102 N7 1_555 1_555
Co24 N9 1_555 1_555
N9 C122 1_555 1_555
C122 C132 1_555 1_555
C123 C132 1_555 1_555
C124 N9 1_555 1_555
C125 C101 1_555 1_555
C126 C102 1_555 1_555
C133 C123 1_555 1_555
C134 C123 1_555 1_555
C124 C133 1_555 1_555
C125 C134 1_555 1_555
C126 C134 1_555 1_555
C102 H35 1_555 1_555
C101 H57 1_555 1_555
C125 H65 1_555 1_555
C122 H66 1_555 1_555
C126 H68 1_555 1_555
C124 H71 1_555 1_555
C132 H76 1_555 1_555
C133 H77 1_555 1_555
Co14 O25 1_555 1_555
O25 C69_2 1_555 1_555
O26 Co14 1_555 1_555
O27 Co14 1_555 1_555
O28 Co24 1_555 1_555
C69_2 O29 1_555 1_555
C70_2 C76_2 1_555 1_555
C71_2 C77_2 1_555 1_555
C72_2 C76_2 1_555 1_555
C73_2 C79_2 1_555 1_555
C74_2 C77_2 1_555 1_555
C75_2 O27 1_555 1_555
Co24 Co14 1_555 1_555
O29 Co24 1_555 1_555
O30 Co24 1_555 1_555
O31 C75_2 1_555 1_555
O32 Co14 1_555 1_555
C76_2 C69_2 1_555 1_555
C77_2 C70_2 1_555 1_555
C78_2 C71_2 1_555 1_555
C79_2 C71_2 1_555 1_555
C80_2 C73_2 1_555 1_555
C81_2 O26 1_555 1_555
C82_2 C75_2 1_555 1_555
C83_2 C82_2 1_555 1_555
C97_2 O28 1_555 1_555
Co20 O35_2 1_555 1_555
O35_2 C115_2 1_555 1_555
C107_2 C81_2 1_555 1_555
O43_2 Co26 1_555 1_555
C114_2 C107_2 1_555 1_555
C115_2 C73_2 1_555 1_555
C117_2 C116_2 1_555 1_555
C118_2 C121_2 1_555 1_555
C119_2 C116_2 1_555 1_555
C120_2 C129_2 1_555 1_555
C121_2 C130_2 1_555 1_555
C127_2 C117_2 1_555 1_555
C128_2 C118_2 1_555 1_555
C129_2 C128_2 1_555 1_555
C130_2 C97_2 1_555 1_555
C72_2 C78_2 1_555 1_555
C74_2 C80_2 1_555 1_555
Co24 O31 1_555 1_555
O30 C81_2 1_555 1_555
O32 C97_2 1_555 1_555
O43_2 C115_2 1_555 1_555
C118_2 C127_2 1_555 1_555
C119_2 C128_2 1_555 1_555
C120_2 C130_2 1_555 1_555
C79_2 H36_2 1_555 1_555
C80_2 H40_2 1_555 1_555
C83_2 H42_2 1_555 1_555
C74_2 H46_2 1_555 1_555
C70_2 H48_2 1_555 1_555
C120_2 H67_2 1_555 1_555
C129_2 H69_2 1_555 1_555
C121_2 H70_2 1_555 1_555
C127_2 H72_2 1_555 1_555
C114_2 H74_2 1_555 1_555
C117_2 H75_2 1_555 1_555
Co20 O34_2 1_555 1_555
O34_2 C103_2 1_555 1_555
C103_2 O42_2 1_555 1_555
O42_2 Co26 1_555 1_555
C84_2 C87_2 1_555 1_555
C86_2 C95_2 1_555 1_555
C87_2 C96_2 1_555 1_555
C94_2 C84_2 1_555 1_555
C95_2 C94_2 1_555 1_555
C96_2 C86_2 1_555 1_555
O39_2 Co26 1_555 1_555
C104_2 C110_2 1_555 1_555
C105_2 C111_2 1_555 1_555
C106_2 C110_2 1_555 1_555
C108_2 C111_2 1_555 1_555
O47_2 Co20 1_555 1_555
C111_2 C104_2 1_555 1_555
C112_2 C105_2 1_555 1_555
C113_2 C105_2 1_555 1_555
C131_2 C96_2 1_555 1_555
C84_2 C93_2 1_555 1_555
C85_2 C94_2 1_555 1_555
O39_2 C131_2 1_555 1_555
C106_2 C112_2 1_555 1_555
O47_2 C131_2 1_555 1_555
C86_2 H41_2 1_555 1_555
C93_2 H44_2 1_555 1_555
C95_2 H49_2 1_555 1_555
C87_2 H54_2 1_555 1_555
C85_2 H60_2 1_555 1_555
C108_2 H63_2 1_555 1_555
C113_2 H73_2 1_555 1_555
C101_2 N7_2 1_555 1_555
C102_2 N7_2 1_555 1_555
Co26 N9_2 1_555 1_555
N9_2 C122_2 1_555 1_555
C122_2 C132_2 1_555 1_555
C123_2 C132_2 1_555 1_555
C124_2 N9_2 1_555 1_555
C125_2 C101_2 1_555 1_555
C126_2 C102_2 1_555 1_555
C133_2 C123_2 1_555 1_555
C134_2 C123_2 1_555 1_555
C124_2 C133_2 1_555 1_555
C125_2 C134_2 1_555 1_555
C126_2 C134_2 1_555 1_555
C102_2 H35_2 1_555 1_555
C101_2 H57_2 1_555 1_555
C125_2 H65_2 1_555 1_555
C122_2 H66_2 1_555 1_555
C126_2 H68_2 1_555 1_555
C124_2 H71_2 1_555 1_555
C132_2 H76_2 1_555 1_555
C133_2 H77_2 1_555 1_555

#END
