
###############################################################################
#
# This file contains modified crystal structure data generated from the
# MOF subset of the Cambridge Structural Database (CSD) v543 
# hosted by the Cambridge Crystallographic Data Centre (CCDC).
#
# This work is licensed under the Creative Commons
# Attribution-NonCommercial-ShareAlike 4.0 International License.
# To view a copy of this license, visit
# http://creativecommons.org/licenses/by-nc-sa/4.0/
# or send a letter to
# Creative Commons, PO Box 1866, Mountain View, CA 94042, USA.
#
# CIF created using the CSD Python API on 29 September 2022
# The structure has been converted into the P1 space group
# The structure has a 3D framework
# The original CSD entry BAZBIO01 is in the monoclinic crystal system
# The original CSD entry BAZBIO01 is in a Sohncke space group
# The framework has been calculated to contain at least 10.0% void space
# The void calculation uses a probe of radius 1.32A, grid spacing 0.4
#
###############################################################################

data_BAZBIO01
_chemical_formula_moiety         '(C204 H120 N12 Ni12 O44)n'
_symmetry_cell_setting           triclinic
_symmetry_space_group_name_H-M   'P 1'
_symmetry_Int_Tables_number      1
_space_group_name_Hall           'P 1'
loop_
_symmetry_equiv_pos_site_id
_symmetry_equiv_pos_as_xyz
1 x,y,z
_cell_length_a                   17.1020(5)
_cell_length_b                   19.8425(7)
_cell_length_c                   13.7033(4)
_cell_angle_alpha                90
_cell_angle_beta                 96.070(2)
_cell_angle_gamma                90
_cell_volume                     4624.09
loop_
_atom_site_label
_atom_site_type_symbol
_atom_site_fract_x
_atom_site_fract_y
_atom_site_fract_z
Ni3 Ni 0.16434(5) 0.15583(5) 0.43080(6)
Ni8 Ni 0.17221(5) 0.15700(5) 0.23978(6)
O9 O 0.0883(4) 0.0848(4) 0.2408(5)
O10 O 0.0828(4) 0.0838(3) 0.4034(5)
O12 O 0.2564(4) 0.2266(3) 0.2652(5)
O14 O 0.2431(4) 0.2295(3) 0.4271(5)
O16 O 0.2542(4) 0.0842(3) 0.2689(5)
O18 O 0.2493(4) 0.0845(3) 0.4320(5)
O20 O 0.0923(4) 0.2300(4) 0.2443(5)
O22 O 0.0799(4) 0.2249(3) 0.4052(5)
N4 N 0.1705(3) 0.1570(6) 0.0931(4)
N6 N 0.1661(3) 0.1591(5) 0.5771(4)
C35 C 0.0657(5) 0.0607(5) 0.3192(8)
C36 C 0.0122(6) 0.0002(5) 0.3080(8)
C18 C 0.0109(6) 0.3559(5) 0.2283(7)
H9 H 0.0442 0.3473 0.1803
C19 C 0.0087(6) 0.3090(5) 0.3094(8)
C20 C 0.0630(6) 0.2504(5) 0.3196(7)
C37 C 0.0128(7) 0.9597(6) 0.2253(9)
H21 H 0.0403 0.9727 0.1734
H26 H 0.9612 0.0174 0.4299
C47 C 0.2716(5) 0.0607(5) 0.3526(7)
H27 H 0.3788 0.0175 0.2419
N1 N 0.6705(3) 0.6570(6) 0.0931(4)
C25 C 0.6158(5) 0.6918(6) 0.0370(5)
H13 H 0.5784 0.7156 0.0677
C29 C 0.7284(5) 0.6341(5) 0.0492(6)
H16 H 0.7716 0.6169 0.0882
Ni11 Ni 0.67221(5) 0.65700(5) 0.23978(6)
Ni1 Ni 0.66434(5) 0.65583(5) 0.43080(6)
O1 O 0.5883(4) 0.5848(4) 0.2408(5)
O2 O 0.5828(4) 0.5838(3) 0.4034(5)
O5 O 0.7542(4) 0.5842(3) 0.2689(5)
O6 O 0.7493(4) 0.5845(3) 0.4320(5)
N2 N 0.6661(3) 0.6591(5) 0.5771(4)
C1 C 0.5657(5) 0.5607(5) 0.3192(8)
C2 C 0.5122(6) 0.5002(5) 0.3080(8)
C3 C 0.5128(7) 0.4597(6) 0.2253(9)
H1 H 0.5403 0.4727 0.1734
C4 C 0.4734(7) 0.4021(7) 0.2222(7)
H2 H 0.4799 0.3719 0.1718
C5 C 0.4220(6) 0.3847(5) 0.2921(8)
C6 C 0.3717(5) 0.3256(5) 0.2885(8)
H3 H 0.3712 0.2968 0.2349
C7 C 0.3252(6) 0.3104(6) 0.3605(8)
C8 C 0.2721(5) 0.2515(5) 0.3513(7)
C9 C 0.3224(6) 0.3534(5) 0.4425(8)
H4 H 0.2899 0.3439 0.4910
C10 C 0.3705(6) 0.4108(6) 0.4480(8)
H5 H 0.3706 0.4381 0.5032
C11 C 0.4193(5) 0.4301(5) 0.3742(7)
C12 C 0.4638(6) 0.4871(6) 0.3785(8)
H6 H 0.4612 0.5174 0.4299
C13 C 0.7716(5) 0.5607(5) 0.3526(7)
C14 C 0.8233(6) 0.4996(4) 0.3623(7)
C15 C 0.8742(5) 0.4869(5) 0.2924(7)
H7 H 0.8788 0.5175 0.2419
C16 C 0.9176(5) 0.4289(5) 0.2985(7)
C17 C 0.9646(6) 0.4126(5) 0.2216(8)
H8 H 0.9638 0.4403 0.1669
C21 C 0.9624(5) 0.3242(5) 0.3814(7)
H10 H 0.9626 0.2952 0.4348
C22 C 0.9134(5) 0.3830(6) 0.3785(7)
C23 C 0.8645(6) 0.3970(6) 0.4477(7)
H11 H 0.8594 0.3666 0.4983
C24 C 0.8236(7) 0.4546(6) 0.4430(8)
H12 H 0.7944 0.4656 0.4942
C26 C 0.6119(5) 0.6944(6) 0.9355(5)
H14 H 0.5724 0.7185 0.8989
C27 C 0.6699(5) 0.6591(8) 0.8891(6)
C28 C 0.7309(5) 0.6335(6) 0.9492(6)
H15 H 0.7743 0.6155 0.9228
C30 C 0.6691(4) 0.6585(7) 0.7816(5)
C31 C 0.6014(4) 0.6599(6) 0.7211(5)
H17 H 0.5535 0.6622 0.7474
C32 C 0.6026(4) 0.6578(6) 0.6215(5)
H18 H 0.5546 0.6554 0.5828
C33 C 0.7325(4) 0.6715(6) 0.6343(5)
H19 H 0.7775 0.6818 0.6047
C34 C 0.7373(4) 0.6699(6) 0.7348(5)
H20 H 0.7855 0.6763 0.7719
O11 O 0.7564(4) 0.7266(3) 0.2652(5)
O13 O 0.7431(4) 0.7295(3) 0.4271(5)
O19 O 0.5923(4) 0.7300(4) 0.2443(5)
O21 O 0.5799(4) 0.7249(3) 0.4052(5)
C38 C 0.9734(7) 0.9021(7) 0.2222(7)
H22 H 0.9799 0.8719 0.1718
C39 C 0.9220(6) 0.8847(5) 0.2921(8)
C40 C 0.8717(5) 0.8256(5) 0.2885(8)
H23 H 0.8712 0.7968 0.2349
C41 C 0.8252(6) 0.8104(6) 0.3605(8)
C42 C 0.7721(5) 0.7515(5) 0.3513(7)
C43 C 0.8224(6) 0.8534(5) 0.4425(8)
H24 H 0.7899 0.8439 0.4910
C44 C 0.8705(6) 0.9108(6) 0.4480(8)
H25 H 0.8706 0.9381 0.5032
C45 C 0.9193(5) 0.9301(5) 0.3742(7)
C46 C 0.9638(6) 0.9871(6) 0.3785(8)
C48 C 0.3233(6) 0.9996(4) 0.3623(7)
C49 C 0.3742(5) 0.9869(5) 0.2924(7)
C50 C 0.4176(5) 0.9289(5) 0.2985(7)
C51 C 0.4646(6) 0.9126(5) 0.2216(8)
H28 H 0.4638 0.9403 0.1669
C52 C 0.5109(6) 0.8559(5) 0.2283(7)
H29 H 0.5442 0.8473 0.1803
C53 C 0.5087(6) 0.8090(5) 0.3094(8)
C54 C 0.5630(6) 0.7504(5) 0.3196(7)
C55 C 0.4624(5) 0.8242(5) 0.3814(7)
H30 H 0.4626 0.7952 0.4348
C56 C 0.4134(5) 0.8830(6) 0.3785(7)
C57 C 0.3645(6) 0.8970(6) 0.4477(7)
H31 H 0.3594 0.8666 0.4983
C58 C 0.3236(7) 0.9546(6) 0.4430(8)
H32 H 0.2944 0.9656 0.4942
C25_2 C 0.1158(5) 0.1918(6) 0.0370(5)
H13_2 H 0.0784 0.2156 0.0677
C29_2 C 0.2284(5) 0.1341(5) 0.0492(6)
H16_2 H 0.2716 0.1169 0.0882
C26_2 C 0.1119(5) 0.1944(6) 0.9355(5)
H14_2 H 0.0724 0.2185 0.8989
C27_2 C 0.1699(5) 0.1591(8) 0.8891(6)
C28_2 C 0.2309(5) 0.1335(6) 0.9492(6)
H15_2 H 0.2743 0.1155 0.9228
C30_2 C 0.1691(4) 0.1585(7) 0.7816(5)
C31_2 C 0.1014(4) 0.1599(6) 0.7211(5)
H17_2 H 0.0535 0.1622 0.7474
C32_2 C 0.1026(4) 0.1578(6) 0.6215(5)
H18_2 H 0.0546 0.1554 0.5828
C33_2 C 0.2325(4) 0.1715(6) 0.6343(5)
H19_2 H 0.2775 0.1818 0.6047
C34_2 C 0.2373(4) 0.1699(6) 0.7348(5)
H20_2 H 0.2855 0.1763 0.7719
Ni6 Ni 0.83566(5) 0.15583(5) 0.56920(6)
Ni12 Ni 0.82779(5) 0.15700(5) 0.76022(6)
O15 O 0.7458(4) 0.0842(3) 0.7311(5)
O17 O 0.7507(4) 0.0845(3) 0.5680(5)
H26_2 H 0.0388 0.0174 0.5701
C47_2 C 0.7284(5) 0.0607(5) 0.6474(7)
H27_2 H 0.6212 0.0175 0.7581
Ni7 Ni 0.33566(5) 0.65583(5) 0.56920(6)
N5 N 0.3339(3) 0.6591(5) 0.4229(4)
C60 C 0.3881(5) 0.6944(6) 0.0645(5)
H34 H 0.4276 0.7185 0.1011
C61 C 0.3301(5) 0.6591(8) 0.1109(6)
C62 C 0.2691(5) 0.6335(6) 0.0508(6)
H35 H 0.2257 0.6155 0.0772
C64 C 0.3309(4) 0.6585(7) 0.2184(5)
C65 C 0.3986(4) 0.6599(6) 0.2789(5)
H37 H 0.4465 0.6622 0.2526
C66 C 0.3974(4) 0.6578(6) 0.3785(5)
H38 H 0.4454 0.6554 0.4172
C67 C 0.2675(4) 0.6715(6) 0.3657(5)
H39 H 0.2225 0.6818 0.3953
C68 C 0.2627(4) 0.6699(6) 0.2652(5)
H40 H 0.2145 0.6763 0.2281
Ni2 Ni 0.32779(5) 0.65700(5) 0.76022(6)
O1_2 O 0.4117(4) 0.5848(4) 0.7592(5)
O2_2 O 0.4172(4) 0.5838(3) 0.5966(5)
O3 O 0.7436(4) 0.2266(3) 0.7348(5)
O4 O 0.7569(4) 0.2295(3) 0.5729(5)
O5_2 O 0.2458(4) 0.5842(3) 0.7311(5)
O6_2 O 0.2507(4) 0.5845(3) 0.5680(5)
C1_2 C 0.4343(5) 0.5607(5) 0.6808(8)
C2_2 C 0.4878(6) 0.5002(5) 0.6920(8)
C3_2 C 0.4872(7) 0.4597(6) 0.7747(9)
H1_2 H 0.4597 0.4727 0.8266
C4_2 C 0.5266(7) 0.4021(7) 0.7778(7)
H2_2 H 0.5201 0.3719 0.8282
C5_2 C 0.5780(6) 0.3847(5) 0.7079(8)
C6_2 C 0.6283(5) 0.3256(5) 0.7115(8)
H3_2 H 0.6288 0.2968 0.7651
C7_2 C 0.6748(6) 0.3104(6) 0.6395(8)
C8_2 C 0.7279(5) 0.2515(5) 0.6487(7)
C9_2 C 0.6776(6) 0.3534(5) 0.5575(8)
H4_2 H 0.7101 0.3439 0.5090
C10_2 C 0.6295(6) 0.4108(6) 0.5520(8)
H5_2 H 0.6294 0.4381 0.4968
C11_2 C 0.5807(5) 0.4301(5) 0.6258(7)
C12_2 C 0.5362(6) 0.4871(6) 0.6215(8)
H6_2 H 0.5388 0.5174 0.5701
C13_2 C 0.2284(5) 0.5607(5) 0.6474(7)
C14_2 C 0.1767(6) 0.4996(4) 0.6377(7)
C15_2 C 0.1258(5) 0.4869(5) 0.7076(7)
H7_2 H 0.1212 0.5175 0.7581
C16_2 C 0.0824(5) 0.4289(5) 0.7015(7)
C17_2 C 0.0354(6) 0.4126(5) 0.7784(8)
H8_2 H 0.0362 0.4403 0.8331
C21_2 C 0.0376(5) 0.3242(5) 0.6186(7)
H10_2 H 0.0374 0.2952 0.5652
C22_2 C 0.0866(5) 0.3830(6) 0.6215(7)
C23_2 C 0.1355(6) 0.3970(6) 0.5523(7)
H11_2 H 0.1406 0.3666 0.5017
C24_2 C 0.1764(7) 0.4546(6) 0.5570(8)
H12_2 H 0.2056 0.4656 0.5058
O11_2 O 0.2436(4) 0.7266(3) 0.7348(5)
O13_2 O 0.2569(4) 0.7295(3) 0.5729(5)
O19_2 O 0.4077(4) 0.7300(4) 0.7557(5)
O21_2 O 0.4201(4) 0.7249(3) 0.5948(5)
N3 N 0.3295(3) 0.6570(6) 0.9069(4)
C38_2 C 0.0266(7) 0.9021(7) 0.7778(7)
H22_2 H 0.0201 0.8719 0.8282
C39_2 C 0.0780(6) 0.8847(5) 0.7079(8)
C40_2 C 0.1283(5) 0.8256(5) 0.7115(8)
H23_2 H 0.1288 0.7968 0.7651
C41_2 C 0.1748(6) 0.8104(6) 0.6395(8)
C42_2 C 0.2279(5) 0.7515(5) 0.6487(7)
C43_2 C 0.1776(6) 0.8534(5) 0.5575(8)
H24_2 H 0.2101 0.8439 0.5090
C44_2 C 0.1295(6) 0.9108(6) 0.5520(8)
H25_2 H 0.1294 0.9381 0.4968
C45_2 C 0.0807(5) 0.9301(5) 0.6258(7)
C46_2 C 0.0362(6) 0.9871(6) 0.6215(8)
C48_2 C 0.6767(6) 0.9996(4) 0.6377(7)
C49_2 C 0.6258(5) 0.9869(5) 0.7076(7)
C50_2 C 0.5824(5) 0.9289(5) 0.7015(7)
C51_2 C 0.5354(6) 0.9126(5) 0.7784(8)
H28_2 H 0.5362 0.9403 0.8331
C52_2 C 0.4891(6) 0.8559(5) 0.7717(7)
H29_2 H 0.4558 0.8473 0.8197
C53_2 C 0.4913(6) 0.8090(5) 0.6906(8)
C54_2 C 0.4370(6) 0.7504(5) 0.6804(7)
C55_2 C 0.5376(5) 0.8242(5) 0.6186(7)
H30_2 H 0.5374 0.7952 0.5652
C56_2 C 0.5866(5) 0.8830(6) 0.6215(7)
C57_2 C 0.6355(6) 0.8970(6) 0.5523(7)
H31_2 H 0.6406 0.8666 0.5017
C58_2 C 0.6764(7) 0.9546(6) 0.5570(8)
H32_2 H 0.7056 0.9656 0.5058
C59 C 0.3842(5) 0.6918(6) 0.9630(5)
H33 H 0.4216 0.7156 0.9323
C63 C 0.2716(5) 0.6341(5) 0.9508(6)
H36 H 0.2284 0.6169 0.9118
O9_2 O 0.9117(4) 0.0848(4) 0.7592(5)
O10_2 O 0.9172(4) 0.0838(3) 0.5966(5)
O20_2 O 0.9077(4) 0.2300(4) 0.7557(5)
O22_2 O 0.9201(4) 0.2249(3) 0.5948(5)
N4_2 N 0.8295(3) 0.1570(6) 0.9069(4)
N6_2 N 0.8339(3) 0.1591(5) 0.4229(4)
C35_2 C 0.9343(5) 0.0607(5) 0.6808(8)
C36_2 C 0.9878(6) 0.0002(5) 0.6920(8)
C18_2 C 0.9891(6) 0.3559(5) 0.7717(7)
H9_2 H 0.9558 0.3473 0.8197
C19_2 C 0.9913(6) 0.3090(5) 0.6906(8)
C20_2 C 0.9370(6) 0.2504(5) 0.6804(7)
C37_2 C 0.9872(7) 0.9597(6) 0.7747(9)
H21_2 H 0.9597 0.9727 0.8266
C60_2 C 0.8881(5) 0.1944(6) 0.0645(5)
H34_2 H 0.9276 0.2185 0.1011
C61_2 C 0.8301(5) 0.1591(8) 0.1109(6)
C62_2 C 0.7691(5) 0.1335(6) 0.0508(6)
H35_2 H 0.7257 0.1155 0.0772
C64_2 C 0.8309(4) 0.1585(7) 0.2184(5)
C65_2 C 0.8986(4) 0.1599(6) 0.2789(5)
H37_2 H 0.9465 0.1622 0.2526
C66_2 C 0.8974(4) 0.1578(6) 0.3785(5)
H38_2 H 0.9454 0.1554 0.4172
C67_2 C 0.7675(4) 0.1715(6) 0.3657(5)
H39_2 H 0.7225 0.1818 0.3953
C68_2 C 0.7627(4) 0.1699(6) 0.2652(5)
H40_2 H 0.7145 0.1763 0.2281
C59_2 C 0.8842(5) 0.1918(6) 0.9630(5)
H33_2 H 0.9216 0.2156 0.9323
C63_2 C 0.7716(5) 0.1341(5) 0.9508(6)
H36_2 H 0.7284 0.1169 0.9118
O24 O 0.0745(4) 0.5510(3) 0.0910(5)
O25 O 0.4185(4) 0.2012(3) 0.0687(5)
C69 C 0.1030(5) 0.5323(5) 0.0145(7)
C70 C 0.1573(5) 0.4728(4) 0.0240(7)
C77 C 0.2988(5) 0.2982(5) 0.0442(7)
H44 H 0.3000 0.2708 0.0995
C78 C 0.2489(6) 0.3583(5) 0.0393(8)
C79 C 0.2016(6) 0.3759(5) 0.1139(6)
H45 H 0.1998 0.3477 0.1679
C80 C 0.1607(6) 0.4312(5) 0.1074(8)
H46 H 0.1330 0.4436 0.1594
O34 O 0.0815(4) 0.6955(3) 0.0958(5)
Ni15 Ni 0.49638(6) 0.12738(5) 0.09506(7)
O23 O 0.0905(4) 0.5593(3) 0.9319(5)
O26 O 0.4185(4) 0.1955(3) 0.9042(5)
N7 N 0.0031(3) 0.6249(5) 0.7566(4)
C71 C 0.2043(6) 0.4566(5) 0.9509(8)
H41 H 0.2058 0.4852 0.8974
C72 C 0.2482(6) 0.3998(5) 0.9566(7)
C73 C 0.2947(6) 0.3800(6) 0.8755(8)
H42 H 0.2913 0.4049 0.8177
C74 C 0.3429(6) 0.3242(6) 0.8867(8)
H43 H 0.3758 0.3146 0.8386
C75 C 0.3441(7) 0.2801(6) 0.9709(8)
C76 C 0.3970(5) 0.2218(5) 0.9809(7)
C81 C 0.0631(4) 0.6523(5) 0.7141(6)
H47 H 0.1044 0.6725 0.7530
C82 C 0.0639(5) 0.6509(6) 0.6152(6)
H48 H 0.1067 0.6686 0.5873
C83 C 0.0004(4) 0.6227(5) 0.5544(5)
Ni13 Ni 0.00362(6) 0.62738(5) 0.90494(7)
O30 O 0.0815(4) 0.7012(3) 0.9313(5)
C101 C 0.0617(5) 0.5996(6) 0.4015(6)
H59 H 0.1065 0.5840 0.4390
C102 C 0.0577(5) 0.5997(6) 0.3007(6)
H60 H 0.0993 0.5813 0.2712
Ni16 Ni 0.50362(6) 0.12738(5) 0.90494(7)
O27 O 0.9095(4) 0.5593(3) 0.0681(5)
O31 O 0.9185(4) 0.7012(3) 0.0687(5)
O32 O 0.5815(4) 0.1955(3) 0.0958(5)
N9 N 0.9969(3) 0.6249(5) 0.2434(4)
C88 C 0.7957(6) 0.4566(5) 0.0491(8)
H51 H 0.7942 0.4852 0.1026
C89 C 0.7518(6) 0.3998(5) 0.0434(7)
C90 C 0.7053(6) 0.3800(6) 0.1245(8)
H52 H 0.7087 0.4049 0.1823
C91 C 0.6571(6) 0.3242(6) 0.1133(8)
H53 H 0.6242 0.3146 0.1614
C92 C 0.6559(7) 0.2801(6) 0.0291(8)
C93 C 0.6030(5) 0.2218(5) 0.0191(7)
Ni14 Ni 0.99638(6) 0.62738(5) 0.09506(7)
C84 C 0.9383(5) 0.5996(6) 0.5985(6)
H49 H 0.8935 0.5840 0.5610
C85 C 0.9423(5) 0.5997(6) 0.6993(6)
H50 H 0.9007 0.5813 0.7288
O28 O 0.9255(4) 0.5510(3) 0.9090(5)
O29 O 0.5815(4) 0.2012(3) 0.9313(5)
O33 O 0.9185(4) 0.6955(3) 0.9042(5)
C86 C 0.8970(5) 0.5323(5) 0.9855(7)
C87 C 0.8427(5) 0.4728(4) 0.9760(7)
C94 C 0.7012(5) 0.2982(5) 0.9558(7)
H54 H 0.7000 0.2708 0.9005
C95 C 0.7511(6) 0.3583(5) 0.9607(8)
C96 C 0.7984(6) 0.3759(5) 0.8861(6)
H55 H 0.8002 0.3477 0.8321
C97 C 0.8393(6) 0.4312(5) 0.8926(8)
H56 H 0.8670 0.4436 0.8406
C98 C 0.9369(4) 0.6523(5) 0.2859(6)
H57 H 0.8956 0.6725 0.2470
C99 C 0.9361(5) 0.6509(6) 0.3848(6)
H58 H 0.8933 0.6686 0.4127
C100 C 0.9996(4) 0.6227(5) 0.4456(5)
O24_2 O 0.5745(4) 0.0510(3) 0.0910(5)
C69_2 C 0.6030(5) 0.0323(5) 0.0145(7)
O27_2 O 0.4095(4) 0.0593(3) 0.0681(5)
N9_2 N 0.4969(3) 0.1249(5) 0.2434(4)
O23_2 O 0.5905(4) 0.0593(3) 0.9319(5)
N7_2 N 0.5031(3) 0.1249(5) 0.7566(4)
C81_2 C 0.5631(4) 0.1523(5) 0.7141(6)
H47_2 H 0.6044 0.1725 0.7530
C82_2 C 0.5639(5) 0.1509(6) 0.6152(6)
H48_2 H 0.6067 0.1686 0.5873
C83_2 C 0.5004(4) 0.1227(5) 0.5544(5)
C84_2 C 0.4383(5) 0.0996(6) 0.5985(6)
H49_2 H 0.3935 0.0840 0.5610
C85_2 C 0.4423(5) 0.0997(6) 0.6993(6)
H50_2 H 0.4007 0.0813 0.7288
O28_2 O 0.4255(4) 0.0510(3) 0.9090(5)
C86_2 C 0.3970(5) 0.0323(5) 0.9855(7)
C98_2 C 0.4369(4) 0.1523(5) 0.2859(6)
H57_2 H 0.3956 0.1725 0.2470
C99_2 C 0.4361(5) 0.1509(6) 0.3848(6)
H58_2 H 0.3933 0.1686 0.4127
C100_2 C 0.4996(4) 0.1227(5) 0.4456(5)
C101_2 C 0.5617(5) 0.0996(6) 0.4015(6)
H59_2 H 0.6065 0.0840 0.4390
C102_2 C 0.5577(5) 0.0997(6) 0.3007(6)
H60_2 H 0.5993 0.0813 0.2712
C70_2 C 0.6573(5) 0.9728(4) 0.0240(7)
C77_2 C 0.7988(5) 0.7982(5) 0.0442(7)
H44_2 H 0.8000 0.7708 0.0995
C78_2 C 0.7489(6) 0.8583(5) 0.0393(8)
C79_2 C 0.7016(6) 0.8759(5) 0.1139(6)
H45_2 H 0.6998 0.8477 0.1679
C80_2 C 0.6607(6) 0.9312(5) 0.1074(8)
H46_2 H 0.6330 0.9436 0.1594
C88_2 C 0.2957(6) 0.9566(5) 0.0491(8)
H51_2 H 0.2942 0.9852 0.1026
C89_2 C 0.2518(6) 0.8998(5) 0.0434(7)
C90_2 C 0.2053(6) 0.8800(6) 0.1245(8)
H52_2 H 0.2087 0.9049 0.1823
C91_2 C 0.1571(6) 0.8242(6) 0.1133(8)
H53_2 H 0.1242 0.8146 0.1614
C92_2 C 0.1559(7) 0.7801(6) 0.0291(8)
C93_2 C 0.1030(5) 0.7218(5) 0.0191(7)
C71_2 C 0.7043(6) 0.9566(5) 0.9509(8)
H41_2 H 0.7058 0.9852 0.8974
C72_2 C 0.7482(6) 0.8998(5) 0.9566(7)
C73_2 C 0.7947(6) 0.8800(6) 0.8755(8)
H42_2 H 0.7913 0.9049 0.8177
C74_2 C 0.8429(6) 0.8242(6) 0.8867(8)
H43_2 H 0.8758 0.8146 0.8386
C75_2 C 0.8441(7) 0.7801(6) 0.9709(8)
C76_2 C 0.8970(5) 0.7218(5) 0.9809(7)
C87_2 C 0.3427(5) 0.9728(4) 0.9760(7)
C94_2 C 0.2012(5) 0.7982(5) 0.9558(7)
H54_2 H 0.2000 0.7708 0.9005
C95_2 C 0.2511(6) 0.8583(5) 0.9607(8)
C96_2 C 0.2984(6) 0.8759(5) 0.8861(6)
H55_2 H 0.3002 0.8477 0.8321
C97_2 C 0.3393(6) 0.9312(5) 0.8926(8)
H56_2 H 0.3670 0.9436 0.8406
loop_
_geom_bond_atom_site_label_1
_geom_bond_atom_site_label_2
_geom_bond_site_symmetry_1
_geom_bond_site_symmetry_2
Ni3 Ni8 1_555 1_555
Ni8 O9 1_555 1_555
O9 C35 1_555 1_555
O10 Ni3 1_555 1_555
O12 Ni8 1_555 1_555
O14 Ni3 1_555 1_555
O16 Ni8 1_555 1_555
O18 Ni3 1_555 1_555
O20 Ni8 1_555 1_555
O22 Ni3 1_555 1_555
N4 Ni8 1_555 1_555
N6 Ni3 1_555 1_555
C35 O10 1_555 1_555
C36 C35 1_555 1_555
O20 C20 1_555 1_555
O22 C20 1_555 1_555
H9 C18 1_555 1_555
C19 C18 1_555 1_555
C20 C19 1_555 1_555
H21 C37 1_555 1_555
O16 C47 1_555 1_555
C47 O18 1_555 1_555
N1 C25 1_555 1_555
C25 H13 1_555 1_555
C29 N1 1_555 1_555
H16 C29 1_555 1_555
Ni11 N1 1_555 1_555
Ni1 Ni11 1_555 1_555
Ni11 O1 1_555 1_555
O1 C1 1_555 1_555
O2 Ni1 1_555 1_555
O12 C8 1_555 1_555
O14 C8 1_555 1_555
O5 Ni11 1_555 1_555
O6 Ni1 1_555 1_555
N2 Ni1 1_555 1_555
C1 O2 1_555 1_555
C2 C1 1_555 1_555
C3 C2 1_555 1_555
H1 C3 1_555 1_555
C4 C3 1_555 1_555
H2 C4 1_555 1_555
C5 C4 1_555 1_555
C6 C5 1_555 1_555
H3 C6 1_555 1_555
C7 C6 1_555 1_555
C8 C7 1_555 1_555
C9 C7 1_555 1_555
H4 C9 1_555 1_555
C10 C9 1_555 1_555
H5 C10 1_555 1_555
C11 C5 1_555 1_555
C12 C2 1_555 1_555
H6 C12 1_555 1_555
C13 O5 1_555 1_555
C14 C13 1_555 1_555
C15 C14 1_555 1_555
H7 C15 1_555 1_555
C16 C15 1_555 1_555
C17 C16 1_555 1_555
H8 C17 1_555 1_555
H10 C21 1_555 1_555
C22 C16 1_555 1_555
C23 C22 1_555 1_555
H11 C23 1_555 1_555
C24 C14 1_555 1_555
H12 C24 1_555 1_555
H14 C26 1_555 1_555
C27 C26 1_555 1_555
C28 C27 1_555 1_555
H15 C28 1_555 1_555
C30 C27 1_555 1_555
C31 C30 1_555 1_555
H17 C31 1_555 1_555
C32 N2 1_555 1_555
H18 C32 1_555 1_555
C33 N2 1_555 1_555
H19 C33 1_555 1_555
C34 C30 1_555 1_555
H20 C34 1_555 1_555
O11 Ni11 1_555 1_555
O13 Ni1 1_555 1_555
O19 Ni11 1_555 1_555
O21 Ni1 1_555 1_555
H22 C38 1_555 1_555
C39 C38 1_555 1_555
C40 C39 1_555 1_555
H23 C40 1_555 1_555
C41 C40 1_555 1_555
C42 O11 1_555 1_555
C43 C41 1_555 1_555
H24 C43 1_555 1_555
C44 C43 1_555 1_555
H25 C44 1_555 1_555
C45 C39 1_555 1_555
C49 C48 1_555 1_555
C50 C49 1_555 1_555
C51 C50 1_555 1_555
H28 C51 1_555 1_555
C52 C51 1_555 1_555
H29 C52 1_555 1_555
C53 C52 1_555 1_555
C54 O19 1_555 1_555
C55 C53 1_555 1_555
H30 C55 1_555 1_555
C56 C50 1_555 1_555
C57 C56 1_555 1_555
H31 C57 1_555 1_555
C58 C48 1_555 1_555
H32 C58 1_555 1_555
O6 C13 1_555 1_555
C10 C11 1_555 1_555
C11 C12 1_555 1_555
C21 C22 1_555 1_555
C23 C24 1_555 1_555
C31 C32 1_555 1_555
C33 C34 1_555 1_555
O13 C42 1_555 1_555
O21 C54 1_555 1_555
C41 C42 1_555 1_555
C44 C45 1_555 1_555
C45 C46 1_555 1_555
C53 C54 1_555 1_555
C55 C56 1_555 1_555
C57 C58 1_555 1_555
N4 C25_2 1_555 1_555
C25_2 H13_2 1_555 1_555
C29_2 N4 1_555 1_555
H16_2 C29_2 1_555 1_555
H14_2 C26_2 1_555 1_555
C27_2 C26_2 1_555 1_555
C28_2 C27_2 1_555 1_555
H15_2 C28_2 1_555 1_555
C30_2 C27_2 1_555 1_555
C31_2 C30_2 1_555 1_555
H17_2 C31_2 1_555 1_555
C32_2 N6 1_555 1_555
H18_2 C32_2 1_555 1_555
C33_2 N6 1_555 1_555
H19_2 C33_2 1_555 1_555
C34_2 C30_2 1_555 1_555
H20_2 C34_2 1_555 1_555
C31_2 C32_2 1_555 1_555
C33_2 C34_2 1_555 1_555
Ni6 Ni12 1_555 1_555
Ni12 O15 1_555 1_555
O15 C47_2 1_555 1_555
O17 Ni6 1_555 1_555
C47_2 O17 1_555 1_555
Ni7 N5 1_555 1_555
N5 C66 1_555 1_555
H34 C60 1_555 1_555
C61 C60 1_555 1_555
C62 C61 1_555 1_555
H35 C62 1_555 1_555
C64 C61 1_555 1_555
C65 C64 1_555 1_555
H37 C65 1_555 1_555
C66 C65 1_555 1_555
H38 C66 1_555 1_555
C67 N5 1_555 1_555
H39 C67 1_555 1_555
C68 C64 1_555 1_555
H40 C68 1_555 1_555
C67 C68 1_555 1_555
Ni7 Ni2 1_555 1_555
Ni2 O1_2 1_555 1_555
O1_2 C1_2 1_555 1_555
O2_2 Ni7 1_555 1_555
O3 C8_2 1_555 1_555
O4 C8_2 1_555 1_555
O5_2 Ni2 1_555 1_555
O6_2 Ni7 1_555 1_555
C1_2 O2_2 1_555 1_555
C2_2 C1_2 1_555 1_555
C3_2 C2_2 1_555 1_555
H1_2 C3_2 1_555 1_555
C4_2 C3_2 1_555 1_555
H2_2 C4_2 1_555 1_555
C5_2 C4_2 1_555 1_555
C6_2 C5_2 1_555 1_555
H3_2 C6_2 1_555 1_555
C7_2 C6_2 1_555 1_555
C8_2 C7_2 1_555 1_555
C9_2 C7_2 1_555 1_555
H4_2 C9_2 1_555 1_555
C10_2 C9_2 1_555 1_555
H5_2 C10_2 1_555 1_555
C11_2 C5_2 1_555 1_555
C12_2 C2_2 1_555 1_555
H6_2 C12_2 1_555 1_555
C13_2 O5_2 1_555 1_555
C14_2 C13_2 1_555 1_555
C15_2 C14_2 1_555 1_555
H7_2 C15_2 1_555 1_555
C16_2 C15_2 1_555 1_555
C17_2 C16_2 1_555 1_555
H8_2 C17_2 1_555 1_555
H10_2 C21_2 1_555 1_555
C22_2 C16_2 1_555 1_555
C23_2 C22_2 1_555 1_555
H11_2 C23_2 1_555 1_555
C24_2 C14_2 1_555 1_555
H12_2 C24_2 1_555 1_555
Ni6 O4 1_555 1_555
Ni12 O3 1_555 1_555
O11_2 Ni2 1_555 1_555
O13_2 Ni7 1_555 1_555
O19_2 Ni2 1_555 1_555
O21_2 Ni7 1_555 1_555
N3 Ni2 1_555 1_555
H22_2 C38_2 1_555 1_555
C39_2 C38_2 1_555 1_555
C40_2 C39_2 1_555 1_555
H23_2 C40_2 1_555 1_555
C41_2 C40_2 1_555 1_555
C42_2 O11_2 1_555 1_555
C43_2 C41_2 1_555 1_555
H24_2 C43_2 1_555 1_555
C44_2 C43_2 1_555 1_555
H25_2 C44_2 1_555 1_555
C45_2 C39_2 1_555 1_555
C49_2 C48_2 1_555 1_555
C50_2 C49_2 1_555 1_555
C51_2 C50_2 1_555 1_555
H28_2 C51_2 1_555 1_555
C52_2 C51_2 1_555 1_555
H29_2 C52_2 1_555 1_555
C53_2 C52_2 1_555 1_555
C54_2 O19_2 1_555 1_555
C55_2 C53_2 1_555 1_555
H30_2 C55_2 1_555 1_555
C56_2 C50_2 1_555 1_555
C57_2 C56_2 1_555 1_555
H31_2 C57_2 1_555 1_555
C58_2 C48_2 1_555 1_555
H32_2 C58_2 1_555 1_555
C59 N3 1_555 1_555
H33 C59 1_555 1_555
C63 N3 1_555 1_555
H36 C63 1_555 1_555
O6_2 C13_2 1_555 1_555
C10_2 C11_2 1_555 1_555
C11_2 C12_2 1_555 1_555
C21_2 C22_2 1_555 1_555
C23_2 C24_2 1_555 1_555
O13_2 C42_2 1_555 1_555
O21_2 C54_2 1_555 1_555
C41_2 C42_2 1_555 1_555
C44_2 C45_2 1_555 1_555
C45_2 C46_2 1_555 1_555
C53_2 C54_2 1_555 1_555
C55_2 C56_2 1_555 1_555
C57_2 C58_2 1_555 1_555
Ni12 O9_2 1_555 1_555
O9_2 C35_2 1_555 1_555
O10_2 Ni6 1_555 1_555
O20_2 Ni12 1_555 1_555
O22_2 Ni6 1_555 1_555
N4_2 Ni12 1_555 1_555
N6_2 Ni6 1_555 1_555
C35_2 O10_2 1_555 1_555
C36_2 C35_2 1_555 1_555
O20_2 C20_2 1_555 1_555
O22_2 C20_2 1_555 1_555
H9_2 C18_2 1_555 1_555
C19_2 C18_2 1_555 1_555
C20_2 C19_2 1_555 1_555
H21_2 C37_2 1_555 1_555
N6_2 C66_2 1_555 1_555
H34_2 C60_2 1_555 1_555
C61_2 C60_2 1_555 1_555
C62_2 C61_2 1_555 1_555
H35_2 C62_2 1_555 1_555
C64_2 C61_2 1_555 1_555
C65_2 C64_2 1_555 1_555
H37_2 C65_2 1_555 1_555
C66_2 C65_2 1_555 1_555
H38_2 C66_2 1_555 1_555
C67_2 N6_2 1_555 1_555
H39_2 C67_2 1_555 1_555
C68_2 C64_2 1_555 1_555
H40_2 C68_2 1_555 1_555
C67_2 C68_2 1_555 1_555
C59_2 N4_2 1_555 1_555
H33_2 C59_2 1_555 1_555
C63_2 N4_2 1_555 1_555
H36_2 C63_2 1_555 1_555
O24 C69 1_555 1_555
C69 C70 1_555 1_555
H44 C77 1_555 1_555
C79 C78 1_555 1_555
H45 C79 1_555 1_555
C80 C70 1_555 1_555
H46 C80 1_555 1_555
Ni15 O25 1_555 1_555
C77 C78 1_555 1_555
C79 C80 1_555 1_555
O26 C76 1_555 1_555
N7 C81 1_555 1_555
C71 H41 1_555 1_555
C72 C71 1_555 1_555
C73 C72 1_555 1_555
H42 C73 1_555 1_555
C74 C73 1_555 1_555
H43 C74 1_555 1_555
C75 C74 1_555 1_555
C76 C75 1_555 1_555
C81 H47 1_555 1_555
C82 C81 1_555 1_555
H48 C82 1_555 1_555
C83 C82 1_555 1_555
Ni13 O23 1_555 1_555
O30 Ni13 1_555 1_555
H59 C101 1_555 1_555
H60 C102 1_555 1_555
Ni16 O26 1_555 1_555
N7 Ni13 1_555 1_555
C101 C102 1_555 1_555
O31 Ni14 1_555 1_555
O32 C93 1_555 1_555
N9 Ni14 1_555 1_555
H51 C88 1_555 1_555
C89 C88 1_555 1_555
C90 C89 1_555 1_555
H52 C90 1_555 1_555
C91 C90 1_555 1_555
H53 C91 1_555 1_555
C92 C91 1_555 1_555
C93 C92 1_555 1_555
Ni15 O32 1_555 1_555
O27 Ni14 1_555 1_555
H49 C84 1_555 1_555
H50 C85 1_555 1_555
N9 C98 1_555 1_555
C86 O28 1_555 1_555
C87 C86 1_555 1_555
H54 C94 1_555 1_555
C96 C95 1_555 1_555
H55 C96 1_555 1_555
C97 C87 1_555 1_555
H56 C97 1_555 1_555
C98 H57 1_555 1_555
C99 C98 1_555 1_555
H58 C99 1_555 1_555
Ni16 O29 1_555 1_555
C84 C85 1_555 1_555
C94 C95 1_555 1_555
C96 C97 1_555 1_555
C99 C100 1_555 1_555
O24_2 C69_2 1_555 1_555
N9_2 Ni15 1_555 1_555
Ni15 O24_2 1_555 1_555
O27_2 Ni15 1_555 1_555
N7_2 C81_2 1_555 1_555
C81_2 H47_2 1_555 1_555
C82_2 C81_2 1_555 1_555
H48_2 C82_2 1_555 1_555
C83_2 C82_2 1_555 1_555
C84_2 C83_2 1_555 1_555
H49_2 C84_2 1_555 1_555
C85_2 N7_2 1_555 1_555
H50_2 C85_2 1_555 1_555
Ni16 O23_2 1_555 1_555
O28_2 Ni16 1_555 1_555
N9_2 C98_2 1_555 1_555
C86_2 O28_2 1_555 1_555
C98_2 H57_2 1_555 1_555
C99_2 C98_2 1_555 1_555
H58_2 C99_2 1_555 1_555
C100_2 C83_2 1_555 1_555
C101_2 C100_2 1_555 1_555
H59_2 C101_2 1_555 1_555
C102_2 N9_2 1_555 1_555
H60_2 C102_2 1_555 1_555
N7_2 Ni16 1_555 1_555
C84_2 C85_2 1_555 1_555
C99_2 C100_2 1_555 1_555
C101_2 C102_2 1_555 1_555
H44_2 C77_2 1_555 1_555
C79_2 C78_2 1_555 1_555
H45_2 C79_2 1_555 1_555
C80_2 C70_2 1_555 1_555
H46_2 C80_2 1_555 1_555
O34 C93_2 1_555 1_555
H51_2 C88_2 1_555 1_555
C89_2 C88_2 1_555 1_555
C90_2 C89_2 1_555 1_555
H52_2 C90_2 1_555 1_555
C91_2 C90_2 1_555 1_555
H53_2 C91_2 1_555 1_555
C92_2 C91_2 1_555 1_555
C93_2 C92_2 1_555 1_555
C77_2 C78_2 1_555 1_555
C79_2 C80_2 1_555 1_555
O33 C76_2 1_555 1_555
C71_2 H41_2 1_555 1_555
C72_2 C71_2 1_555 1_555
C73_2 C72_2 1_555 1_555
H42_2 C73_2 1_555 1_555
C74_2 C73_2 1_555 1_555
H43_2 C74_2 1_555 1_555
C75_2 C74_2 1_555 1_555
C76_2 C75_2 1_555 1_555
H54_2 C94_2 1_555 1_555
C96_2 C95_2 1_555 1_555
H55_2 C96_2 1_555 1_555
C97_2 C87_2 1_555 1_555
H56_2 C97_2 1_555 1_555
C94_2 C95_2 1_555 1_555
C96_2 C97_2 1_555 1_555

#END
