
###############################################################################
#
# This file contains modified crystal structure data generated from the
# MOF subset of the Cambridge Structural Database (CSD) v543 
# hosted by the Cambridge Crystallographic Data Centre (CCDC).
#
# This work is licensed under the Creative Commons
# Attribution-NonCommercial-ShareAlike 4.0 International License.
# To view a copy of this license, visit
# http://creativecommons.org/licenses/by-nc-sa/4.0/
# or send a letter to
# Creative Commons, PO Box 1866, Mountain View, CA 94042, USA.
#
# CIF created using the CSD Python API on 29 September 2022
# The structure has been converted into the P1 space group
# The structure has a 3D framework
# The original CSD entry BAZBOU02 is in the monoclinic crystal system
# The original CSD entry BAZBOU02 is in a Sohncke space group
# The framework has been calculated to contain at least 10.0% void space
# The void calculation uses a probe of radius 1.32A, grid spacing 0.4
#
###############################################################################

data_BAZBOU02
_chemical_formula_moiety         '(C204 H120 Co11 N12 O40)n'
_symmetry_cell_setting           triclinic
_symmetry_space_group_name_H-M   'P 1'
_symmetry_Int_Tables_number      1
_space_group_name_Hall           'P 1'
loop_
_symmetry_equiv_pos_site_id
_symmetry_equiv_pos_as_xyz
1 x,y,z
_cell_length_a                   17.1134(11)
_cell_length_b                   19.9511(16)
_cell_length_c                   13.8844(13)
_cell_angle_alpha                90
_cell_angle_beta                 96.046(2)
_cell_angle_gamma                90
_cell_volume                     4714.2
loop_
_atom_site_label
_atom_site_type_symbol
_atom_site_fract_x
_atom_site_fract_y
_atom_site_fract_z
N1 N 0.1724(5) 0.4045(8) 0.0906(7)
C25 C 0.1180(7) 0.3690(8) 0.0333(10)
H13 H 0.0755 0.3480 0.0617
C29 C 0.2293(7) 0.4288(7) 0.0468(11)
H16 H 0.2737 0.4488 0.0840
Co11 Co 0.17310(7) 0.40479(8) 0.23869(11)
Co1 Co 0.16504(7) 0.40651(8) 0.43180(11)
O1 O 0.2559(5) 0.4770(4) 0.2686(7)
O2 O 0.2504(5) 0.4788(4) 0.4319(8)
O3 O 0.5924(5) 0.8312(5) 0.2459(7)
O4 O 0.5804(6) 0.8348(5) 0.4029(8)
O5 O 0.2591(5) 0.3347(4) 0.2691(8)
O6 O 0.2440(5) 0.3324(5) 0.4247(7)
N2 N 0.1665(4) 0.4047(7) 0.5807(7)
C1 C 0.2724(7) 0.5011(7) 0.3535(11)
C2 C 0.3254(8) 0.5623(6) 0.3643(12)
C3 C 0.3721(7) 0.5750(5) 0.2926(11)
H1 H 0.3753 0.5440 0.2403
C4 C 0.4187(7) 0.6345(6) 0.2926(12)
C5 C 0.4677(7) 0.6519(6) 0.2222(11)
H2 H 0.4752 0.6207 0.1714
C6 C 0.5073(8) 0.7071(7) 0.2275(13)
H3 H 0.5319 0.7209 0.1717
C7 C 0.5104(8) 0.7530(7) 0.3114(11)
C8 C 0.5630(7) 0.8108(6) 0.3214(11)
C9 C 0.4614(8) 0.7368(7) 0.3807(10)
H4 H 0.4621 0.7666 0.4350
C10 C 0.4163(7) 0.6799(8) 0.3725(10)
C11 C 0.3680(9) 0.6650(8) 0.4466(13)
H5 H 0.3684 0.6953 0.5004
C12 C 0.3211(8) 0.6075(7) 0.4394(11)
H6 H 0.2847 0.5999 0.4863
C13 C 0.2743(7) 0.3102(7) 0.3505(10)
C14 C 0.3267(7) 0.2500(8) 0.3614(13)
C15 C 0.3749(8) 0.2350(8) 0.2884(10)
H7 H 0.3718 0.2644 0.2333
C16 C 0.4214(7) 0.1791(8) 0.2963(10)
C17 C 0.4703(11) 0.1640(11) 0.2239(15)
H8 H 0.4734 0.1938 0.1702
C18 C 0.5160(9) 0.1038(7) 0.2310(11)
H9 H 0.5505 0.0946 0.1823
C19 C 0.5130(7) 0.0615(7) 0.3088(11)
C20 C 0.5657(8) 0.0024(8) 0.3175(13)
C21 C 0.4644(8) 0.0753(6) 0.3782(13)
H10 H 0.4594 0.0441 0.4300
C22 C 0.4171(8) 0.1343(6) 0.3762(13)
C23 C 0.3677(9) 0.1530(9) 0.4486(13)
H11 H 0.3638 0.1233 0.5023
C24 C 0.3274(10) 0.2083(8) 0.4443(13)
H12 H 0.3000 0.2217 0.4981
C26 C 0.1155(7) 0.3641(6) 0.9344(10)
H14 H 0.0774 0.3370 0.8966
C27 C 0.1718(6) 0.4051(10) 0.8881(10)
C28 C 0.2286(6) 0.4315(7) 0.9474(10)
H15 H 0.2705 0.4543 0.9200
C30 C 0.1700(6) 0.4041(10) 0.7829(9)
C31 C 0.1009(5) 0.4025(8) 0.7230(8)
H17 H 0.0520 0.4002 0.7511
C32 C 0.1023(6) 0.4034(8) 0.6232(8)
H18 H 0.0522 0.4047 0.5850
C33 C 0.2343(6) 0.3929(8) 0.6388(9)
H19 H 0.2827 0.3872 0.6104
C34 C 0.2387(6) 0.3955(11) 0.7374(10)
H20 H 0.2886 0.3916 0.7755
Co4 Co 0.66504(7) 0.90651(8) 0.43180(11)
Co9 Co 0.67310(7) 0.90479(8) 0.23869(11)
O11 O 0.0924(5) 0.3312(5) 0.2459(7)
O13 O 0.0804(6) 0.3348(5) 0.4029(8)
O19 O 0.0887(6) 0.4777(5) 0.2420(9)
O21 O 0.0813(5) 0.4781(4) 0.4042(8)
C40 C 0.0073(8) 0.2071(7) 0.2275(13)
H23 H 0.0319 0.2209 0.1717
C41 C 0.0104(8) 0.2530(7) 0.3114(11)
C42 C 0.0630(7) 0.3108(6) 0.3214(11)
C52 C 0.0160(9) 0.6038(7) 0.2310(11)
H29 H 0.0505 0.5946 0.1823
C53 C 0.0130(7) 0.5615(7) 0.3088(11)
C54 C 0.0657(8) 0.5024(8) 0.3175(13)
O7 O 0.5887(6) 0.9777(5) 0.2420(9)
O8 O 0.5813(5) 0.9781(4) 0.4042(8)
O15 O 0.7591(5) 0.8347(4) 0.2691(8)
O17 O 0.7440(5) 0.8324(5) 0.4247(7)
C35 C 0.7724(7) 0.0011(7) 0.3535(11)
C36 C 0.8254(8) 0.0623(6) 0.3643(12)
C37 C 0.8721(7) 0.0750(5) 0.2926(11)
H21 H 0.8753 0.0440 0.2403
C38 C 0.9187(7) 0.1345(6) 0.2926(12)
C39 C 0.9677(7) 0.1519(6) 0.2222(11)
H22 H 0.9752 0.1207 0.1714
C43 C 0.9614(8) 0.2368(7) 0.3807(10)
H24 H 0.9621 0.2666 0.4350
C44 C 0.9163(7) 0.1799(8) 0.3725(10)
C45 C 0.8680(9) 0.1650(8) 0.4466(13)
H25 H 0.8684 0.1953 0.5004
C46 C 0.8211(8) 0.1075(7) 0.4394(11)
H26 H 0.7847 0.0999 0.4863
C47 C 0.7743(7) 0.8102(7) 0.3505(10)
C48 C 0.8267(7) 0.7500(8) 0.3614(13)
C49 C 0.8749(8) 0.7350(8) 0.2884(10)
H27 H 0.8718 0.7644 0.2333
C50 C 0.9214(7) 0.6791(8) 0.2963(10)
C51 C 0.9703(11) 0.6640(11) 0.2239(15)
H28 H 0.9734 0.6938 0.1702
C55 C 0.9644(8) 0.5753(6) 0.3782(13)
H30 H 0.9594 0.5441 0.4300
C56 C 0.9171(8) 0.6343(6) 0.3762(13)
C57 C 0.8677(9) 0.6530(9) 0.4486(13)
H31 H 0.8638 0.6233 0.5023
C58 C 0.8274(10) 0.7083(8) 0.4443(13)
H32 H 0.8000 0.7217 0.4981
O9 O 0.7559(5) 0.9770(4) 0.2686(7)
O10 O 0.7504(5) 0.9788(4) 0.4319(8)
N4 N 0.6724(5) 0.9045(8) 0.0906(7)
N6 N 0.6665(4) 0.9047(7) 0.5807(7)
C25_2 C 0.6180(7) 0.8690(8) 0.0333(10)
H13_2 H 0.5755 0.8480 0.0617
C29_2 C 0.7293(7) 0.9288(7) 0.0468(11)
H16_2 H 0.7737 0.9488 0.0840
C26_2 C 0.6155(7) 0.8641(6) 0.9344(10)
H14_2 H 0.5774 0.8370 0.8966
C27_2 C 0.6718(6) 0.9051(10) 0.8881(10)
C28_2 C 0.7286(6) 0.9315(7) 0.9474(10)
H15_2 H 0.7705 0.9543 0.9200
C30_2 C 0.6700(6) 0.9041(10) 0.7829(9)
C31_2 C 0.6009(5) 0.9025(8) 0.7230(8)
H17_2 H 0.5520 0.9002 0.7511
C32_2 C 0.6023(6) 0.9034(8) 0.6232(8)
H18_2 H 0.5522 0.9047 0.5850
C33_2 C 0.7343(6) 0.8929(8) 0.6388(9)
H19_2 H 0.7827 0.8872 0.6104
C34_2 C 0.7387(6) 0.8955(11) 0.7374(10)
H20_2 H 0.7886 0.8916 0.7755
Co6 Co 0.33496(7) 0.90651(8) 0.56820(11)
Co12 Co 0.32690(7) 0.90479(8) 0.76131(11)
O15_2 O 0.2409(5) 0.8347(4) 0.7309(8)
O17_2 O 0.2560(5) 0.8324(5) 0.5753(7)
C35_2 C 0.2276(7) 0.0011(7) 0.6465(11)
C36_2 C 0.1746(8) 0.0623(6) 0.6357(12)
C37_2 C 0.1279(7) 0.0750(5) 0.7074(11)
H21_2 H 0.1247 0.0440 0.7597
C38_2 C 0.0813(7) 0.1345(6) 0.7074(12)
C39_2 C 0.0323(7) 0.1519(6) 0.7778(11)
H22_2 H 0.0248 0.1207 0.8286
C43_2 C 0.0386(8) 0.2368(7) 0.6193(10)
H24_2 H 0.0379 0.2666 0.5650
C44_2 C 0.0837(7) 0.1799(8) 0.6275(10)
C45_2 C 0.1320(9) 0.1650(8) 0.5534(13)
H25_2 H 0.1316 0.1953 0.4996
C46_2 C 0.1789(8) 0.1075(7) 0.5606(11)
H26_2 H 0.2153 0.0999 0.5137
C47_2 C 0.2257(7) 0.8102(7) 0.6495(10)
C48_2 C 0.1733(7) 0.7500(8) 0.6386(13)
C49_2 C 0.1251(8) 0.7350(8) 0.7116(10)
H27_2 H 0.1282 0.7644 0.7667
C50_2 C 0.0786(7) 0.6791(8) 0.7037(10)
C51_2 C 0.0297(11) 0.6640(11) 0.7761(15)
H28_2 H 0.0266 0.6938 0.8298
C55_2 C 0.0356(8) 0.5753(6) 0.6218(13)
H30_2 H 0.0406 0.5441 0.5700
C56_2 C 0.0829(8) 0.6343(6) 0.6238(13)
C57_2 C 0.1323(9) 0.6530(9) 0.5514(13)
H31_2 H 0.1362 0.6233 0.4977
C58_2 C 0.1726(10) 0.7083(8) 0.5557(13)
H32_2 H 0.2000 0.7217 0.5019
O9_2 O 0.2441(5) 0.9770(4) 0.7314(7)
O10_2 O 0.2496(5) 0.9788(4) 0.5681(8)
O12 O 0.4076(5) 0.8312(5) 0.7541(7)
O14 O 0.4196(6) 0.8348(5) 0.5971(8)
O20 O 0.4113(6) 0.9777(5) 0.7580(9)
O22 O 0.4187(5) 0.9781(4) 0.5958(8)
N4_2 N 0.3276(5) 0.9045(8) 0.9094(7)
N6_2 N 0.3335(4) 0.9047(7) 0.4193(7)
Co7 Co 0.83496(7) 0.40651(8) 0.56820(11)
N5 N 0.8335(4) 0.4047(7) 0.4193(7)
C60 C 0.8845(7) 0.3641(6) 0.0656(10)
H34 H 0.9226 0.3370 0.1034
C61 C 0.8282(6) 0.4051(10) 0.1119(10)
C62 C 0.7714(6) 0.4315(7) 0.0526(10)
H35 H 0.7295 0.4543 0.0800
C64 C 0.8300(6) 0.4041(10) 0.2171(9)
C65 C 0.8991(5) 0.4025(8) 0.2770(8)
H37 H 0.9480 0.4002 0.2489
C66 C 0.8977(6) 0.4034(8) 0.3768(8)
H38 H 0.9478 0.4047 0.4150
C67 C 0.7657(6) 0.3929(8) 0.3612(9)
H39 H 0.7173 0.3872 0.3896
C68 C 0.7613(6) 0.3955(11) 0.2626(10)
H40 H 0.7114 0.3916 0.2245
Co2 Co 0.82690(7) 0.40479(8) 0.76131(11)
O1_2 O 0.7441(5) 0.4770(4) 0.7314(7)
O2_2 O 0.7496(5) 0.4788(4) 0.5681(8)
O5_2 O 0.7409(5) 0.3347(4) 0.7309(8)
O6_2 O 0.7560(5) 0.3324(5) 0.5753(7)
C1_2 C 0.7276(7) 0.5011(7) 0.6465(11)
C2_2 C 0.6746(8) 0.5623(6) 0.6357(12)
C3_2 C 0.6279(7) 0.5750(5) 0.7074(11)
H1_2 H 0.6247 0.5440 0.7597
C4_2 C 0.5813(7) 0.6345(6) 0.7074(12)
C5_2 C 0.5323(7) 0.6519(6) 0.7778(11)
H2_2 H 0.5248 0.6207 0.8286
C6_2 C 0.4927(8) 0.7071(7) 0.7725(13)
H3_2 H 0.4681 0.7209 0.8283
C7_2 C 0.4896(8) 0.7530(7) 0.6886(11)
C8_2 C 0.4370(7) 0.8108(6) 0.6786(11)
C9_2 C 0.5386(8) 0.7368(7) 0.6193(10)
H4_2 H 0.5379 0.7666 0.5650
C10_2 C 0.5837(7) 0.6799(8) 0.6275(10)
C11_2 C 0.6320(9) 0.6650(8) 0.5534(13)
H5_2 H 0.6316 0.6953 0.4996
C12_2 C 0.6789(8) 0.6075(7) 0.5606(11)
H6_2 H 0.7153 0.5999 0.5137
C13_2 C 0.7257(7) 0.3102(7) 0.6495(10)
C14_2 C 0.6733(7) 0.2500(8) 0.6386(13)
C15_2 C 0.6251(8) 0.2350(8) 0.7116(10)
H7_2 H 0.6282 0.2644 0.7667
C16_2 C 0.5786(7) 0.1791(8) 0.7037(10)
C17_2 C 0.5297(11) 0.1640(11) 0.7761(15)
H8_2 H 0.5266 0.1938 0.8298
C18_2 C 0.4840(9) 0.1038(7) 0.7690(11)
H9_2 H 0.4495 0.0946 0.8177
C19_2 C 0.4870(7) 0.0615(7) 0.6912(11)
C20_2 C 0.4343(8) 0.0024(8) 0.6825(13)
C21_2 C 0.5356(8) 0.0753(6) 0.6218(13)
H10_2 H 0.5406 0.0441 0.5700
C22_2 C 0.5829(8) 0.1343(6) 0.6238(13)
C23_2 C 0.6323(9) 0.1530(9) 0.5514(13)
H11_2 H 0.6362 0.1233 0.4977
C24_2 C 0.6726(10) 0.2083(8) 0.5557(13)
H12_2 H 0.7000 0.2217 0.5019
O11_2 O 0.9076(5) 0.3312(5) 0.7541(7)
O13_2 O 0.9196(6) 0.3348(5) 0.5971(8)
O19_2 O 0.9113(6) 0.4777(5) 0.7580(9)
O21_2 O 0.9187(5) 0.4781(4) 0.5958(8)
N3 N 0.8276(5) 0.4045(8) 0.9094(7)
C40_2 C 0.9927(8) 0.2071(7) 0.7725(13)
H23_2 H 0.9681 0.2209 0.8283
C41_2 C 0.9896(8) 0.2530(7) 0.6886(11)
C42_2 C 0.9370(7) 0.3108(6) 0.6786(11)
C52_2 C 0.9840(9) 0.6038(7) 0.7690(11)
H29_2 H 0.9495 0.5946 0.8177
C53_2 C 0.9870(7) 0.5615(7) 0.6912(11)
C54_2 C 0.9343(8) 0.5024(8) 0.6825(13)
C59 C 0.8820(7) 0.3690(8) 0.9667(10)
H33 H 0.9245 0.3480 0.9383
C63 C 0.7707(7) 0.4288(7) 0.9532(11)
H36 H 0.7263 0.4488 0.9160
C60_2 C 0.3845(7) 0.8641(6) 0.0656(10)
H34_2 H 0.4226 0.8370 0.1034
C61_2 C 0.3282(6) 0.9051(10) 0.1119(10)
C62_2 C 0.2714(6) 0.9315(7) 0.0526(10)
H35_2 H 0.2295 0.9543 0.0800
C64_2 C 0.3300(6) 0.9041(10) 0.2171(9)
C65_2 C 0.3991(5) 0.9025(8) 0.2770(8)
H37_2 H 0.4480 0.9002 0.2489
C66_2 C 0.3977(6) 0.9034(8) 0.3768(8)
H38_2 H 0.4478 0.9047 0.4150
C67_2 C 0.2657(6) 0.8929(8) 0.3612(9)
H39_2 H 0.2173 0.8872 0.3896
C68_2 C 0.2613(6) 0.8955(11) 0.2626(10)
H40_2 H 0.2114 0.8916 0.2245
C59_2 C 0.3820(7) 0.8690(8) 0.9667(10)
H33_2 H 0.4245 0.8480 0.9383
C63_2 C 0.2707(7) 0.9288(7) 0.9532(11)
H36_2 H 0.2263 0.9488 0.9160
O23 O 0.0795(5) 0.0115(4) 0.0936(8)
O25 O 0.4172(5) 0.3619(4) 0.0681(7)
C69 C 0.1044(7) 0.0315(6) 0.0181(11)
C70 C 0.1578(7) 0.0904(6) 0.0269(10)
C77 C 0.3001(7) 0.2651(6) 0.0453(9)
H44 H 0.3024 0.2925 0.1024
C78 C 0.2522(7) 0.2069(6) 0.0372(9)
C79 C 0.2083(7) 0.1898(6) 0.1136(12)
H45 H 0.2110 0.2160 0.1719
C80 C 0.1599(8) 0.1324(6) 0.1081(11)
H46 H 0.1272 0.1229 0.1585
Co15 Co 0.49665(7) 0.43588(6) 0.09602(12)
O24 O 0.0903(5) 0.0044(4) 0.9323(7)
O26 O 0.4197(5) 0.3662(4) 0.9079(7)
C71 C 0.2009(7) 0.1066(6) 0.9533(13)
H41 H 0.2009 0.0777 0.8980
C72 C 0.2492(9) 0.1661(6) 0.9533(12)
C73 C 0.2949(9) 0.1851(7) 0.8812(12)
H42 H 0.2974 0.1560 0.8265
C74 C 0.3379(9) 0.2411(8) 0.8832(14)
H43 H 0.3609 0.2554 0.8265
C75 C 0.3447(8) 0.2814(7) 0.9724(12)
C76 C 0.3965(7) 0.3418(5) 0.9844(10)
Co16 Co 0.50335(7) 0.43588(6) 0.90398(12)
C81 C 0.0580(8) 0.9625(9) 0.3032(11)
H47 H 0.1010 0.9829 0.2751
C82 C 0.0618(7) 0.9629(7) 0.4015(8)
H48 H 0.1049 0.9828 0.4412
O33 O 0.0803(5) 0.8662(4) 0.0921(7)
N8 N 0.0024(4) 0.9385(6) 0.7534(7)
C100 C 0.0003(5) 0.9402(6) 0.5536(8)
C101 C 0.0639(6) 0.9131(7) 0.6148(10)
H59 H 0.1085 0.8957 0.5866
C102 C 0.0613(6) 0.9116(7) 0.7105(9)
H60 H 0.1057 0.8924 0.7489
Co17 Co 0.00335(7) 0.93588(6) 0.90398(12)
O31 O 0.0828(5) 0.8619(4) 0.9319(7)
O28 O 0.9097(5) 0.0044(4) 0.0677(7)
O32 O 0.5803(5) 0.3662(4) 0.0921(7)
C88 C 0.7991(7) 0.1066(6) 0.0467(13)
H51 H 0.7991 0.0777 0.1020
C89 C 0.7508(9) 0.1661(6) 0.0467(12)
C90 C 0.7051(9) 0.1851(7) 0.1188(12)
H52 H 0.7026 0.1560 0.1735
C91 C 0.6621(9) 0.2411(8) 0.1168(14)
H53 H 0.6391 0.2554 0.1735
C92 C 0.6553(8) 0.2814(7) 0.0276(12)
C93 C 0.6035(7) 0.3418(5) 0.0156(10)
O27 O 0.9205(5) 0.0115(4) 0.9064(8)
O29 O 0.5828(5) 0.3619(4) 0.9319(7)
C86 C 0.8956(7) 0.0315(6) 0.9819(11)
C87 C 0.8422(7) 0.0904(6) 0.9731(10)
C94 C 0.6999(7) 0.2651(6) 0.9547(9)
H54 H 0.6976 0.2925 0.8976
C95 C 0.7478(7) 0.2069(6) 0.9628(9)
C96 C 0.7917(7) 0.1898(6) 0.8864(12)
H55 H 0.7890 0.2160 0.8281
C97 C 0.8401(8) 0.1324(6) 0.8919(11)
H56 H 0.8728 0.1229 0.8415
N7 N 0.9976(4) 0.9385(6) 0.2466(7)
C83 C 0.9997(5) 0.9402(6) 0.4464(8)
C84 C 0.9361(6) 0.9131(7) 0.3852(10)
H49 H 0.8915 0.8957 0.4134
C85 C 0.9387(6) 0.9116(7) 0.2895(9)
H50 H 0.8943 0.8924 0.2511
Co13 Co 0.99665(7) 0.93588(6) 0.09602(12)
O30 O 0.9172(5) 0.8619(4) 0.0681(7)
C98 C 0.9420(8) 0.9625(9) 0.6968(11)
H57 H 0.8990 0.9829 0.7249
C99 C 0.9382(7) 0.9629(7) 0.5985(8)
H58 H 0.8951 0.9828 0.5588
O34 O 0.9197(5) 0.8662(4) 0.9079(7)
O23_2 O 0.5795(5) 0.5115(4) 0.0936(8)
N7_2 N 0.4976(4) 0.4385(6) 0.2466(7)
C69_2 C 0.6044(7) 0.5315(6) 0.0181(11)
C70_2 C 0.6578(7) 0.5904(6) 0.0269(10)
C77_2 C 0.8001(7) 0.7651(6) 0.0453(9)
H44_2 H 0.8024 0.7925 0.1024
C78_2 C 0.7522(7) 0.7069(6) 0.0372(9)
C79_2 C 0.7083(7) 0.6898(6) 0.1136(12)
H45_2 H 0.7110 0.7160 0.1719
C80_2 C 0.6599(8) 0.6324(6) 0.1081(11)
H46_2 H 0.6272 0.6229 0.1585
C81_2 C 0.5580(8) 0.4625(9) 0.3032(11)
H47_2 H 0.6010 0.4829 0.2751
C82_2 C 0.5618(7) 0.4629(7) 0.4015(8)
H48_2 H 0.6049 0.4828 0.4412
C83_2 C 0.4997(5) 0.4402(6) 0.4464(8)
C84_2 C 0.4361(6) 0.4131(7) 0.3852(10)
H49_2 H 0.3915 0.3957 0.4134
C85_2 C 0.4387(6) 0.4116(7) 0.2895(9)
H50_2 H 0.3943 0.3924 0.2511
O28_2 O 0.4097(5) 0.5044(4) 0.0677(7)
N8_2 N 0.5024(4) 0.4385(6) 0.7534(7)
C88_2 C 0.2991(7) 0.6066(6) 0.0467(13)
H51_2 H 0.2991 0.5777 0.1020
C89_2 C 0.2508(9) 0.6661(6) 0.0467(12)
C90_2 C 0.2051(9) 0.6851(7) 0.1188(12)
H52_2 H 0.2026 0.6560 0.1735
C91_2 C 0.1621(9) 0.7411(8) 0.1168(14)
H53_2 H 0.1391 0.7554 0.1735
C92_2 C 0.1553(8) 0.7814(7) 0.0276(12)
C93_2 C 0.1035(7) 0.8418(5) 0.0156(10)
C98_2 C 0.4420(8) 0.4625(9) 0.6968(11)
H57_2 H 0.3990 0.4829 0.7249
C99_2 C 0.4382(7) 0.4629(7) 0.5985(8)
H58_2 H 0.3951 0.4828 0.5588
C100_2 C 0.5003(5) 0.4402(6) 0.5536(8)
C101_2 C 0.5639(6) 0.4131(7) 0.6148(10)
H59_2 H 0.6085 0.3957 0.5866
C102_2 C 0.5613(6) 0.4116(7) 0.7105(9)
H60_2 H 0.6057 0.3924 0.7489
O24_2 O 0.5903(5) 0.5044(4) 0.9323(7)
C71_2 C 0.7009(7) 0.6066(6) 0.9533(13)
H41_2 H 0.7009 0.5777 0.8980
C72_2 C 0.7492(9) 0.6661(6) 0.9533(12)
C73_2 C 0.7949(9) 0.6851(7) 0.8812(12)
H42_2 H 0.7974 0.6560 0.8265
C74_2 C 0.8379(9) 0.7411(8) 0.8832(14)
H43_2 H 0.8609 0.7554 0.8265
C75_2 C 0.8447(8) 0.7814(7) 0.9724(12)
C76_2 C 0.8965(7) 0.8418(5) 0.9844(10)
O27_2 O 0.4205(5) 0.5115(4) 0.9064(8)
C86_2 C 0.3956(7) 0.5315(6) 0.9819(11)
C87_2 C 0.3422(7) 0.5904(6) 0.9731(10)
C94_2 C 0.1999(7) 0.7651(6) 0.9547(9)
H54_2 H 0.1976 0.7925 0.8976
C95_2 C 0.2478(7) 0.7069(6) 0.9628(9)
C96_2 C 0.2917(7) 0.6898(6) 0.8864(12)
H55_2 H 0.2890 0.7160 0.8281
C97_2 C 0.3401(8) 0.6324(6) 0.8919(11)
H56_2 H 0.3728 0.6229 0.8415
loop_
_geom_bond_atom_site_label_1
_geom_bond_atom_site_label_2
_geom_bond_site_symmetry_1
_geom_bond_site_symmetry_2
N1 C25 1_555 1_555
C25 H13 1_555 1_555
C29 N1 1_555 1_555
H16 C29 1_555 1_555
Co11 N1 1_555 1_555
Co1 Co11 1_555 1_555
Co11 O1 1_555 1_555
O1 C1 1_555 1_555
O2 Co1 1_555 1_555
O3 C8 1_555 1_555
O4 C8 1_555 1_555
O5 Co11 1_555 1_555
O6 Co1 1_555 1_555
N2 Co1 1_555 1_555
C1 O2 1_555 1_555
C2 C1 1_555 1_555
C3 C2 1_555 1_555
H1 C3 1_555 1_555
C4 C3 1_555 1_555
C5 C4 1_555 1_555
H2 C5 1_555 1_555
C6 C5 1_555 1_555
H3 C6 1_555 1_555
C7 C6 1_555 1_555
C8 C7 1_555 1_555
C9 C7 1_555 1_555
H4 C9 1_555 1_555
C10 C4 1_555 1_555
C11 C10 1_555 1_555
H5 C11 1_555 1_555
C12 C2 1_555 1_555
H6 C12 1_555 1_555
C13 O5 1_555 1_555
C14 C13 1_555 1_555
C15 C14 1_555 1_555
H7 C15 1_555 1_555
C16 C15 1_555 1_555
C17 C16 1_555 1_555
H8 C17 1_555 1_555
C18 C17 1_555 1_555
H9 C18 1_555 1_555
C19 C18 1_555 1_555
C20 C19 1_555 1_555
C21 C19 1_555 1_555
H10 C21 1_555 1_555
C22 C16 1_555 1_555
C23 C22 1_555 1_555
H11 C23 1_555 1_555
C24 C14 1_555 1_555
H12 C24 1_555 1_555
H14 C26 1_555 1_555
C27 C26 1_555 1_555
C28 C27 1_555 1_555
H15 C28 1_555 1_555
C30 C27 1_555 1_555
C31 C30 1_555 1_555
H17 C31 1_555 1_555
C32 N2 1_555 1_555
H18 C32 1_555 1_555
C33 N2 1_555 1_555
H19 C33 1_555 1_555
C34 C30 1_555 1_555
H20 C34 1_555 1_555
Co4 O4 1_555 1_555
Co9 O3 1_555 1_555
O11 Co11 1_555 1_555
O13 Co1 1_555 1_555
O19 Co11 1_555 1_555
O21 Co1 1_555 1_555
H23 C40 1_555 1_555
C41 C40 1_555 1_555
C42 O11 1_555 1_555
H29 C52 1_555 1_555
C53 C52 1_555 1_555
C54 O19 1_555 1_555
O6 C13 1_555 1_555
C9 C10 1_555 1_555
C11 C12 1_555 1_555
C21 C22 1_555 1_555
C23 C24 1_555 1_555
C31 C32 1_555 1_555
C33 C34 1_555 1_555
Co4 Co9 1_555 1_555
O13 C42 1_555 1_555
O21 C54 1_555 1_555
C41 C42 1_555 1_555
C53 C54 1_555 1_555
Co4 O8 1_555 1_555
Co9 O7 1_555 1_555
Co9 O15 1_555 1_555
O15 C47 1_555 1_555
O17 Co4 1_555 1_555
C36 C35 1_555 1_555
C37 C36 1_555 1_555
H21 C37 1_555 1_555
C38 C37 1_555 1_555
C39 C38 1_555 1_555
H22 C39 1_555 1_555
H24 C43 1_555 1_555
C44 C38 1_555 1_555
C45 C44 1_555 1_555
H25 C45 1_555 1_555
C46 C36 1_555 1_555
H26 C46 1_555 1_555
C47 O17 1_555 1_555
C48 C47 1_555 1_555
C49 C48 1_555 1_555
H27 C49 1_555 1_555
C50 C49 1_555 1_555
C51 C50 1_555 1_555
H28 C51 1_555 1_555
H30 C55 1_555 1_555
C56 C50 1_555 1_555
C57 C56 1_555 1_555
H31 C57 1_555 1_555
C58 C48 1_555 1_555
H32 C58 1_555 1_555
C43 C44 1_555 1_555
C45 C46 1_555 1_555
C55 C56 1_555 1_555
C57 C58 1_555 1_555
Co9 O9 1_555 1_555
O10 Co4 1_555 1_555
N4 Co9 1_555 1_555
N6 Co4 1_555 1_555
N4 C25_2 1_555 1_555
C25_2 H13_2 1_555 1_555
C29_2 N4 1_555 1_555
H16_2 C29_2 1_555 1_555
H14_2 C26_2 1_555 1_555
C27_2 C26_2 1_555 1_555
C28_2 C27_2 1_555 1_555
H15_2 C28_2 1_555 1_555
C30_2 C27_2 1_555 1_555
C31_2 C30_2 1_555 1_555
H17_2 C31_2 1_555 1_555
C32_2 N6 1_555 1_555
H18_2 C32_2 1_555 1_555
C33_2 N6 1_555 1_555
H19_2 C33_2 1_555 1_555
C34_2 C30_2 1_555 1_555
H20_2 C34_2 1_555 1_555
C31_2 C32_2 1_555 1_555
C33_2 C34_2 1_555 1_555
Co6 Co12 1_555 1_555
Co12 O15_2 1_555 1_555
O15_2 C47_2 1_555 1_555
O17_2 Co6 1_555 1_555
C36_2 C35_2 1_555 1_555
C37_2 C36_2 1_555 1_555
H21_2 C37_2 1_555 1_555
C38_2 C37_2 1_555 1_555
C39_2 C38_2 1_555 1_555
H22_2 C39_2 1_555 1_555
H24_2 C43_2 1_555 1_555
C44_2 C38_2 1_555 1_555
C45_2 C44_2 1_555 1_555
H25_2 C45_2 1_555 1_555
C46_2 C36_2 1_555 1_555
H26_2 C46_2 1_555 1_555
C47_2 O17_2 1_555 1_555
C48_2 C47_2 1_555 1_555
C49_2 C48_2 1_555 1_555
H27_2 C49_2 1_555 1_555
C50_2 C49_2 1_555 1_555
C51_2 C50_2 1_555 1_555
H28_2 C51_2 1_555 1_555
H30_2 C55_2 1_555 1_555
C56_2 C50_2 1_555 1_555
C57_2 C56_2 1_555 1_555
H31_2 C57_2 1_555 1_555
C58_2 C48_2 1_555 1_555
H32_2 C58_2 1_555 1_555
C43_2 C44_2 1_555 1_555
C45_2 C46_2 1_555 1_555
C55_2 C56_2 1_555 1_555
C57_2 C58_2 1_555 1_555
Co12 O9_2 1_555 1_555
O10_2 Co6 1_555 1_555
O12 Co12 1_555 1_555
O14 Co6 1_555 1_555
O20 Co12 1_555 1_555
O22 Co6 1_555 1_555
N4_2 Co12 1_555 1_555
N6_2 Co6 1_555 1_555
Co7 N5 1_555 1_555
N5 C66 1_555 1_555
H34 C60 1_555 1_555
C61 C60 1_555 1_555
C62 C61 1_555 1_555
H35 C62 1_555 1_555
C64 C61 1_555 1_555
C65 C64 1_555 1_555
H37 C65 1_555 1_555
C66 C65 1_555 1_555
H38 C66 1_555 1_555
C67 N5 1_555 1_555
H39 C67 1_555 1_555
C68 C64 1_555 1_555
H40 C68 1_555 1_555
C67 C68 1_555 1_555
Co7 Co2 1_555 1_555
Co2 O1_2 1_555 1_555
O1_2 C1_2 1_555 1_555
O2_2 Co7 1_555 1_555
O12 C8_2 1_555 1_555
O14 C8_2 1_555 1_555
O5_2 Co2 1_555 1_555
O6_2 Co7 1_555 1_555
C1_2 O2_2 1_555 1_555
C2_2 C1_2 1_555 1_555
C3_2 C2_2 1_555 1_555
H1_2 C3_2 1_555 1_555
C4_2 C3_2 1_555 1_555
C5_2 C4_2 1_555 1_555
H2_2 C5_2 1_555 1_555
C6_2 C5_2 1_555 1_555
H3_2 C6_2 1_555 1_555
C7_2 C6_2 1_555 1_555
C8_2 C7_2 1_555 1_555
C9_2 C7_2 1_555 1_555
H4_2 C9_2 1_555 1_555
C10_2 C4_2 1_555 1_555
C11_2 C10_2 1_555 1_555
H5_2 C11_2 1_555 1_555
C12_2 C2_2 1_555 1_555
H6_2 C12_2 1_555 1_555
C13_2 O5_2 1_555 1_555
C14_2 C13_2 1_555 1_555
C15_2 C14_2 1_555 1_555
H7_2 C15_2 1_555 1_555
C16_2 C15_2 1_555 1_555
C17_2 C16_2 1_555 1_555
H8_2 C17_2 1_555 1_555
C18_2 C17_2 1_555 1_555
H9_2 C18_2 1_555 1_555
C19_2 C18_2 1_555 1_555
C20_2 C19_2 1_555 1_555
C21_2 C19_2 1_555 1_555
H10_2 C21_2 1_555 1_555
C22_2 C16_2 1_555 1_555
C23_2 C22_2 1_555 1_555
H11_2 C23_2 1_555 1_555
C24_2 C14_2 1_555 1_555
H12_2 C24_2 1_555 1_555
O11_2 Co2 1_555 1_555
O13_2 Co7 1_555 1_555
O19_2 Co2 1_555 1_555
O21_2 Co7 1_555 1_555
N3 Co2 1_555 1_555
H23_2 C40_2 1_555 1_555
C41_2 C40_2 1_555 1_555
C42_2 O11_2 1_555 1_555
H29_2 C52_2 1_555 1_555
C53_2 C52_2 1_555 1_555
C54_2 O19_2 1_555 1_555
C59 N3 1_555 1_555
H33 C59 1_555 1_555
C63 N3 1_555 1_555
H36 C63 1_555 1_555
O6_2 C13_2 1_555 1_555
C9_2 C10_2 1_555 1_555
C11_2 C12_2 1_555 1_555
C21_2 C22_2 1_555 1_555
C23_2 C24_2 1_555 1_555
O13_2 C42_2 1_555 1_555
O21_2 C54_2 1_555 1_555
C41_2 C42_2 1_555 1_555
C53_2 C54_2 1_555 1_555
N6_2 C66_2 1_555 1_555
H34_2 C60_2 1_555 1_555
C61_2 C60_2 1_555 1_555
C62_2 C61_2 1_555 1_555
H35_2 C62_2 1_555 1_555
C64_2 C61_2 1_555 1_555
C65_2 C64_2 1_555 1_555
H37_2 C65_2 1_555 1_555
C66_2 C65_2 1_555 1_555
H38_2 C66_2 1_555 1_555
C67_2 N6_2 1_555 1_555
H39_2 C67_2 1_555 1_555
C68_2 C64_2 1_555 1_555
H40_2 C68_2 1_555 1_555
C67_2 C68_2 1_555 1_555
C59_2 N4_2 1_555 1_555
H33_2 C59_2 1_555 1_555
C63_2 N4_2 1_555 1_555
H36_2 C63_2 1_555 1_555
O23 C69 1_555 1_555
C69 C70 1_555 1_555
H44 C77 1_555 1_555
C79 C78 1_555 1_555
H45 C79 1_555 1_555
C80 C70 1_555 1_555
H46 C80 1_555 1_555
Co15 O25 1_555 1_555
C77 C78 1_555 1_555
C79 C80 1_555 1_555
O26 C76 1_555 1_555
C71 H41 1_555 1_555
C72 C71 1_555 1_555
C73 C72 1_555 1_555
H42 C73 1_555 1_555
C74 C73 1_555 1_555
H43 C74 1_555 1_555
C75 C74 1_555 1_555
C76 C75 1_555 1_555
Co16 O26 1_555 1_555
C81 H47 1_555 1_555
C82 C81 1_555 1_555
H48 C82 1_555 1_555
C101 C100 1_555 1_555
H59 C101 1_555 1_555
C102 N8 1_555 1_555
H60 C102 1_555 1_555
Co17 N8 1_555 1_555
C101 C102 1_555 1_555
O31 Co17 1_555 1_555
O32 C93 1_555 1_555
H51 C88 1_555 1_555
C89 C88 1_555 1_555
C90 C89 1_555 1_555
H52 C90 1_555 1_555
C91 C90 1_555 1_555
H53 C91 1_555 1_555
C92 C91 1_555 1_555
C93 C92 1_555 1_555
Co15 O32 1_555 1_555
O27 C86 1_555 1_555
C87 C86 1_555 1_555
H54 C94 1_555 1_555
C96 C95 1_555 1_555
H55 C96 1_555 1_555
C97 C87 1_555 1_555
H56 C97 1_555 1_555
Co16 O29 1_555 1_555
C94 C95 1_555 1_555
C96 C97 1_555 1_555
C84 C83 1_555 1_555
H49 C84 1_555 1_555
C85 N7 1_555 1_555
H50 C85 1_555 1_555
O30 Co13 1_555 1_555
C98 H57 1_555 1_555
C99 C98 1_555 1_555
H58 C99 1_555 1_555
N7 Co13 1_555 1_555
C84 C85 1_555 1_555
O23_2 C69_2 1_555 1_555
N7_2 C81_2 1_555 1_555
C69_2 C70_2 1_555 1_555
H44_2 C77_2 1_555 1_555
C79_2 C78_2 1_555 1_555
H45_2 C79_2 1_555 1_555
C80_2 C70_2 1_555 1_555
H46_2 C80_2 1_555 1_555
C81_2 H47_2 1_555 1_555
C82_2 C81_2 1_555 1_555
H48_2 C82_2 1_555 1_555
C83_2 C82_2 1_555 1_555
C84_2 C83_2 1_555 1_555
H49_2 C84_2 1_555 1_555
C85_2 N7_2 1_555 1_555
H50_2 C85_2 1_555 1_555
Co15 O23_2 1_555 1_555
O28_2 Co15 1_555 1_555
O33 C93_2 1_555 1_555
N8_2 C98_2 1_555 1_555
H51_2 C88_2 1_555 1_555
C89_2 C88_2 1_555 1_555
C90_2 C89_2 1_555 1_555
H52_2 C90_2 1_555 1_555
C91_2 C90_2 1_555 1_555
H53_2 C91_2 1_555 1_555
C92_2 C91_2 1_555 1_555
C93_2 C92_2 1_555 1_555
C98_2 H57_2 1_555 1_555
C99_2 C98_2 1_555 1_555
H58_2 C99_2 1_555 1_555
C100_2 C83_2 1_555 1_555
C101_2 C100_2 1_555 1_555
H59_2 C101_2 1_555 1_555
C102_2 N8_2 1_555 1_555
H60_2 C102_2 1_555 1_555
Co16 N8_2 1_555 1_555
N7_2 Co15 1_555 1_555
C77_2 C78_2 1_555 1_555
C79_2 C80_2 1_555 1_555
C84_2 C85_2 1_555 1_555
C99_2 C100_2 1_555 1_555
C101_2 C102_2 1_555 1_555
O34 C76_2 1_555 1_555
C71_2 H41_2 1_555 1_555
C72_2 C71_2 1_555 1_555
C73_2 C72_2 1_555 1_555
H42_2 C73_2 1_555 1_555
C74_2 C73_2 1_555 1_555
H43_2 C74_2 1_555 1_555
C75_2 C74_2 1_555 1_555
C76_2 C75_2 1_555 1_555
O27_2 C86_2 1_555 1_555
C87_2 C86_2 1_555 1_555
H54_2 C94_2 1_555 1_555
C96_2 C95_2 1_555 1_555
H55_2 C96_2 1_555 1_555
C97_2 C87_2 1_555 1_555
H56_2 C97_2 1_555 1_555
Co16 O24_2 1_555 1_555
O27_2 Co16 1_555 1_555
C94_2 C95_2 1_555 1_555
C96_2 C97_2 1_555 1_555

#END
