
###############################################################################
#
# This file contains modified crystal structure data generated from the
# MOF subset of the Cambridge Structural Database (CSD) v543 
# hosted by the Cambridge Crystallographic Data Centre (CCDC).
#
# This work is licensed under the Creative Commons
# Attribution-NonCommercial-ShareAlike 4.0 International License.
# To view a copy of this license, visit
# http://creativecommons.org/licenses/by-nc-sa/4.0/
# or send a letter to
# Creative Commons, PO Box 1866, Mountain View, CA 94042, USA.
#
# CIF created using the CSD Python API on 29 September 2022
# The structure has been converted into the P1 space group
# The structure has a 3D framework
# The original CSD entry BAZBIO is in the monoclinic crystal system
# The original CSD entry BAZBIO is in a Sohncke space group
# The framework has been calculated to contain at least 10.0% void space
# The void calculation uses a probe of radius 1.32A, grid spacing 0.4
#
###############################################################################

data_BAZBIO
_chemical_formula_moiety         '(C204 H120 N12 Ni10 O46)n'
_symmetry_cell_setting           triclinic
_symmetry_space_group_name_H-M   'P 1'
_symmetry_Int_Tables_number      1
_space_group_name_Hall           'P 1'
loop_
_symmetry_equiv_pos_site_id
_symmetry_equiv_pos_as_xyz
1 x,y,z
_cell_length_a                   17.159(4)
_cell_length_b                   19.747(5)
_cell_length_c                   13.709(4)
_cell_angle_alpha                90
_cell_angle_beta                 95.935(4)
_cell_angle_gamma                90
_cell_volume                     4620.24
loop_
_atom_site_label
_atom_site_type_symbol
_atom_site_fract_x
_atom_site_fract_y
_atom_site_fract_z
Ni7 Ni 0.16432(8) 0.04004(6) 0.43086(11)
Ni8 Ni 0.17215(7) 0.03913(6) 0.23855(11)
O3 O 0.0857(6) 0.1131(4) 0.4042(7)
O4 O 0.0911(6) 0.1118(4) 0.2409(7)
O7 O 0.0790(5) 0.9718(4) 0.4014(7)
O8 O 0.0916(6) 0.9663(4) 0.2430(7)
C5 C 0.0100(9) 0.2340(7) 0.2295(12)
H3 H 0.0387 0.2208 0.1788
C6 C 0.0123(8) 0.1963(6) 0.3088(11)
C12 C 0.0649(7) 0.1350(5) 0.3196(10)
C17 C 0.0118(8) 0.8389(5) 0.2243(9)
H9 H 0.0415 0.8486 0.1730
C18 C 0.0121(7) 0.8867(5) 0.3096(8)
C24 C 0.0644(6) 0.9448(5) 0.3172(8)
O18 O 0.2513(6) 0.1122(4) 0.2658(7)
N5 N 0.1713(5) 0.0380(7) 0.0922(7)
O21 O 0.2478(6) 0.1117(4) 0.4295(7)
N6 N 0.1674(4) 0.0378(7) 0.5791(6)
C66 C 0.7285(8) 0.5594(6) 0.0472(10)
H38 H 0.7726 0.5748 0.0859
N4 N 0.6713(5) 0.5380(7) 0.0922(7)
C67 C 0.6158(6) 0.5040(7) 0.0353(6)
H39 H 0.5774 0.4811 0.0654
Ni12 Ni 0.67215(7) 0.53913(6) 0.23855(11)
Ni2 Ni 0.66432(8) 0.54004(6) 0.43086(11)
O1 O 0.7580(5) 0.4703(4) 0.2669(7)
O2 O 0.7448(5) 0.4668(4) 0.4258(7)
O5 O 0.7513(6) 0.6122(4) 0.2658(7)
O6 O 0.7478(6) 0.6117(4) 0.4295(7)
C1 C 0.8249(7) 0.3858(6) 0.3598(10)
C2 C 0.8714(8) 0.3714(6) 0.2862(11)
H1 H 0.8722 0.4001 0.2326
C3 C 0.9187(7) 0.3109(6) 0.2940(10)
C4 C 0.9657(10) 0.2930(8) 0.2193(11)
H2 H 0.9670 0.3203 0.1642
C7 C 0.9644(8) 0.2111(7) 0.3761(11)
H4 H 0.9632 0.1809 0.4280
C8 C 0.9181(8) 0.2651(7) 0.3759(10)
C9 C 0.8650(8) 0.2832(7) 0.4447(11)
H5 H 0.8589 0.2524 0.4947
C10 C 0.8237(8) 0.3391(6) 0.4443(10)
H6 H 0.7944 0.3493 0.4958
C11 C 0.7714(7) 0.4438(5) 0.3524(9)
C13 C 0.8241(8) 0.6950(5) 0.3606(10)
C14 C 0.8721(7) 0.7101(6) 0.2922(10)
H7 H 0.8742 0.6800 0.2404
C15 C 0.9182(8) 0.7665(5) 0.2937(9)
C16 C 0.9691(7) 0.7829(5) 0.2221(9)
H8 H 0.9727 0.7527 0.1707
C19 C 0.9621(7) 0.8737(5) 0.3804(10)
H10 H 0.9586 0.9038 0.4320
C20 C 0.9145(6) 0.8112(5) 0.3726(9)
C21 C 0.8695(8) 0.7960(6) 0.4498(10)
H11 H 0.8694 0.8241 0.5043
C22 C 0.8249(8) 0.7366(7) 0.4404(11)
H12 H 0.7947 0.7250 0.4904
C23 C 0.7715(7) 0.6346(5) 0.3503(10)
O9 O 0.2580(5) 0.9703(4) 0.2669(7)
O10 O 0.2448(5) 0.9668(4) 0.4258(7)
O11 O 0.5857(6) 0.6131(4) 0.4042(7)
O12 O 0.5911(6) 0.6118(4) 0.2409(7)
C35 C 0.3249(7) 0.8858(6) 0.3598(10)
C36 C 0.3714(8) 0.8714(6) 0.2862(11)
H21 H 0.3722 0.9001 0.2326
C37 C 0.4187(7) 0.8109(6) 0.2940(10)
C38 C 0.4657(10) 0.7930(8) 0.2193(11)
H22 H 0.4670 0.8203 0.1642
C39 C 0.5100(9) 0.7340(7) 0.2295(12)
H23 H 0.5387 0.7208 0.1788
C40 C 0.5123(8) 0.6963(6) 0.3088(11)
C41 C 0.4644(8) 0.7111(7) 0.3761(11)
H24 H 0.4632 0.6809 0.4280
C42 C 0.4181(8) 0.7651(7) 0.3759(10)
C43 C 0.3650(8) 0.7832(7) 0.4447(11)
H25 H 0.3589 0.7524 0.4947
C44 C 0.3237(8) 0.8391(6) 0.4443(10)
H26 H 0.2944 0.8493 0.4958
C45 C 0.2714(7) 0.9438(5) 0.3524(9)
C46 C 0.5649(7) 0.6350(5) 0.3196(10)
O15 O 0.5790(5) 0.4718(4) 0.4014(7)
O16 O 0.5916(6) 0.4663(4) 0.2430(7)
C47 C 0.3241(8) 0.1950(5) 0.3606(10)
C48 C 0.3721(7) 0.2101(6) 0.2922(10)
H27 H 0.3742 0.1800 0.2404
C49 C 0.4182(8) 0.2665(5) 0.2937(9)
C50 C 0.4691(7) 0.2829(5) 0.2221(9)
H28 H 0.4727 0.2527 0.1707
C51 C 0.5118(8) 0.3389(5) 0.2243(9)
H29 H 0.5415 0.3486 0.1730
C52 C 0.5121(7) 0.3867(5) 0.3096(8)
C53 C 0.4621(7) 0.3737(5) 0.3804(10)
H30 H 0.4586 0.4038 0.4320
C54 C 0.4145(6) 0.3112(5) 0.3726(9)
C55 C 0.3695(8) 0.2960(6) 0.4498(10)
H31 H 0.3694 0.3241 0.5043
C56 C 0.3249(8) 0.2366(7) 0.4404(11)
H32 H 0.2947 0.2250 0.4904
C57 C 0.2715(7) 0.1346(5) 0.3503(10)
C58 C 0.5644(6) 0.4448(5) 0.3172(8)
N3 N 0.6674(4) 0.5378(7) 0.5791(6)
C59 C 0.7330(5) 0.5254(7) 0.6349(6)
H33 H 0.7782 0.5155 0.6055
C60 C 0.7364(5) 0.5267(7) 0.7351(7)
H34 H 0.7844 0.5209 0.7722
C61 C 0.6701(6) 0.5364(9) 0.7822(9)
C62 C 0.6026(7) 0.5356(7) 0.7222(9)
H35 H 0.5551 0.5343 0.7493
C63 C 0.6024(5) 0.5366(7) 0.6216(7)
H36 H 0.5547 0.5364 0.5827
C64 C 0.6715(6) 0.5382(9) 0.8896(8)
C65 C 0.7307(8) 0.5617(6) 0.9467(10)
H37 H 0.7740 0.5797 0.9202
C68 C 0.6133(6) 0.5016(7) 0.9345(7)
H40 H 0.5749 0.4769 0.8971
C66_2 C 0.2285(8) 0.0594(6) 0.0472(10)
H38_2 H 0.2726 0.0748 0.0859
C67_2 C 0.1158(6) 0.0040(7) 0.0353(6)
C59_2 C 0.2330(5) 0.0254(7) 0.6349(6)
H33_2 H 0.2782 0.0155 0.6055
C60_2 C 0.2364(5) 0.0267(7) 0.7351(7)
H34_2 H 0.2844 0.0209 0.7722
C61_2 C 0.1701(6) 0.0364(9) 0.7822(9)
C62_2 C 0.1026(7) 0.0356(7) 0.7222(9)
H35_2 H 0.0551 0.0343 0.7493
C63_2 C 0.1024(5) 0.0366(7) 0.6216(7)
H36_2 H 0.0547 0.0364 0.5827
C64_2 C 0.1715(6) 0.0382(9) 0.8896(8)
C65_2 C 0.2307(8) 0.0617(6) 0.9467(10)
H37_2 H 0.2740 0.0797 0.9202
C68_2 C 0.1133(6) 0.0016(7) 0.9345(7)
H39_2 H 0.0774 0.9811 0.0654
H40_2 H 0.0749 0.9769 0.8971
Ni3 Ni 0.82785(7) 0.03913(6) 0.76145(11)
Ni4 Ni 0.83568(8) 0.04004(6) 0.56914(11)
O17 O 0.9089(6) 0.1118(4) 0.7591(7)
O18_2 O 0.7487(6) 0.1122(4) 0.7342(7)
N5_2 N 0.8287(5) 0.0380(7) 0.9078(7)
O20 O 0.9143(6) 0.1131(4) 0.5958(7)
O21_2 O 0.7522(6) 0.1117(4) 0.5705(7)
N6_2 N 0.8326(4) 0.0378(7) 0.4209(6)
N1 N 0.3326(4) 0.5378(7) 0.4209(6)
C25 C 0.2670(5) 0.5254(7) 0.3651(6)
H13 H 0.2218 0.5155 0.3945
C26 C 0.2636(5) 0.5267(7) 0.2649(7)
H14 H 0.2156 0.5209 0.2278
C27 C 0.3299(6) 0.5364(9) 0.2178(9)
C28 C 0.3974(7) 0.5356(7) 0.2778(9)
H15 H 0.4449 0.5343 0.2507
C29 C 0.3976(5) 0.5366(7) 0.3784(7)
H16 H 0.4453 0.5364 0.4173
C30 C 0.3285(6) 0.5382(9) 0.1104(8)
C31 C 0.2693(8) 0.5617(6) 0.0533(10)
H17 H 0.2260 0.5797 0.0798
C34 C 0.3867(6) 0.5016(7) 0.0655(7)
H20 H 0.4251 0.4769 0.1029
Ni9 Ni 0.33568(8) 0.54004(6) 0.56914(11)
Ni1 Ni 0.32785(7) 0.53913(6) 0.76145(11)
O1_2 O 0.2420(5) 0.4703(4) 0.7331(7)
O2_2 O 0.2552(5) 0.4668(4) 0.5742(7)
O5_2 O 0.2487(6) 0.6122(4) 0.7342(7)
O6_2 O 0.2522(6) 0.6117(4) 0.5705(7)
C1_2 C 0.1751(7) 0.3858(6) 0.6402(10)
C2_2 C 0.1286(8) 0.3714(6) 0.7138(11)
H1_2 H 0.1278 0.4001 0.7674
C3_2 C 0.0813(7) 0.3109(6) 0.7060(10)
C4_2 C 0.0343(10) 0.2930(8) 0.7807(11)
H2_2 H 0.0330 0.3203 0.8358
C7_2 C 0.0356(8) 0.2111(7) 0.6239(11)
H4_2 H 0.0368 0.1809 0.5720
C8_2 C 0.0819(8) 0.2651(7) 0.6241(10)
C9_2 C 0.1350(8) 0.2832(7) 0.5553(11)
H5_2 H 0.1411 0.2524 0.5053
C10_2 C 0.1763(8) 0.3391(6) 0.5557(10)
H6_2 H 0.2056 0.3493 0.5042
C11_2 C 0.2286(7) 0.4438(5) 0.6476(9)
C13_2 C 0.1759(8) 0.6950(5) 0.6394(10)
C14_2 C 0.1279(7) 0.7101(6) 0.7078(10)
H7_2 H 0.1258 0.6800 0.7596
C15_2 C 0.0818(8) 0.7665(5) 0.7063(9)
C16_2 C 0.0309(7) 0.7829(5) 0.7779(9)
H8_2 H 0.0273 0.7527 0.8293
C19_2 C 0.0379(7) 0.8737(5) 0.6196(10)
H10_2 H 0.0414 0.9038 0.5680
C20_2 C 0.0855(6) 0.8112(5) 0.6274(9)
C21_2 C 0.1305(8) 0.7960(6) 0.5502(10)
H11_2 H 0.1306 0.8241 0.4957
C22_2 C 0.1751(8) 0.7366(7) 0.5596(11)
H12_2 H 0.2053 0.7250 0.5096
C23_2 C 0.2285(7) 0.6346(5) 0.6497(10)
C32 C 0.2715(8) 0.5594(6) 0.9528(10)
H18 H 0.2274 0.5748 0.9141
N2 N 0.3287(5) 0.5380(7) 0.9078(7)
C33 C 0.3842(6) 0.5040(7) 0.9647(6)
H19 H 0.4226 0.4811 0.9346
O9_2 O 0.7420(5) 0.9703(4) 0.7331(7)
O10_2 O 0.7552(5) 0.9668(4) 0.5742(7)
O11_2 O 0.4143(6) 0.6131(4) 0.5958(7)
O12_2 O 0.4089(6) 0.6118(4) 0.7591(7)
C35_2 C 0.6751(7) 0.8858(6) 0.6402(10)
C36_2 C 0.6286(8) 0.8714(6) 0.7138(11)
H21_2 H 0.6278 0.9001 0.7674
C37_2 C 0.5813(7) 0.8109(6) 0.7060(10)
C38_2 C 0.5343(10) 0.7930(8) 0.7807(11)
H22_2 H 0.5330 0.8203 0.8358
C39_2 C 0.4900(9) 0.7340(7) 0.7705(12)
H23_2 H 0.4613 0.7208 0.8212
C40_2 C 0.4877(8) 0.6963(6) 0.6912(11)
C41_2 C 0.5356(8) 0.7111(7) 0.6239(11)
H24_2 H 0.5368 0.6809 0.5720
C42_2 C 0.5819(8) 0.7651(7) 0.6241(10)
C43_2 C 0.6350(8) 0.7832(7) 0.5553(11)
H25_2 H 0.6411 0.7524 0.5053
C44_2 C 0.6763(8) 0.8391(6) 0.5557(10)
H26_2 H 0.7056 0.8493 0.5042
C45_2 C 0.7286(7) 0.9438(5) 0.6476(9)
C46_2 C 0.4351(7) 0.6350(5) 0.6804(10)
O15_2 O 0.4210(5) 0.4718(4) 0.5986(7)
O16_2 O 0.4084(6) 0.4663(4) 0.7570(7)
C47_2 C 0.6759(8) 0.1950(5) 0.6394(10)
C48_2 C 0.6279(7) 0.2101(6) 0.7078(10)
H27_2 H 0.6258 0.1800 0.7596
C49_2 C 0.5818(8) 0.2665(5) 0.7063(9)
C50_2 C 0.5309(7) 0.2829(5) 0.7779(9)
H28_2 H 0.5273 0.2527 0.8293
C51_2 C 0.4882(8) 0.3389(5) 0.7757(9)
H29_2 H 0.4585 0.3486 0.8270
C52_2 C 0.4879(7) 0.3867(5) 0.6904(8)
C53_2 C 0.5379(7) 0.3737(5) 0.6196(10)
H30_2 H 0.5414 0.4038 0.5680
C54_2 C 0.5855(6) 0.3112(5) 0.6274(9)
C55_2 C 0.6305(8) 0.2960(6) 0.5502(10)
H31_2 H 0.6306 0.3241 0.4957
C56_2 C 0.6751(8) 0.2366(7) 0.5596(11)
H32_2 H 0.7053 0.2250 0.5096
C57_2 C 0.7285(7) 0.1346(5) 0.6497(10)
C58_2 C 0.4356(6) 0.4448(5) 0.6828(8)
O19 O 0.9084(6) 0.9663(4) 0.7570(7)
O22 O 0.9210(5) 0.9718(4) 0.5986(7)
C5_2 C 0.9900(9) 0.2340(7) 0.7705(12)
H3_2 H 0.9613 0.2208 0.8212
C6_2 C 0.9877(8) 0.1963(6) 0.6912(11)
C12_2 C 0.9351(7) 0.1350(5) 0.6804(10)
C17_2 C 0.9882(8) 0.8389(5) 0.7757(9)
H9_2 H 0.9585 0.8486 0.8270
C18_2 C 0.9879(7) 0.8867(5) 0.6904(8)
C24_2 C 0.9356(6) 0.9448(5) 0.6828(8)
C25_2 C 0.7670(5) 0.0254(7) 0.3651(6)
H13_2 H 0.7218 0.0155 0.3945
C26_2 C 0.7636(5) 0.0267(7) 0.2649(7)
H14_2 H 0.7156 0.0209 0.2278
C27_2 C 0.8299(6) 0.0364(9) 0.2178(9)
C28_2 C 0.8974(7) 0.0356(7) 0.2778(9)
H15_2 H 0.9449 0.0343 0.2507
C29_2 C 0.8976(5) 0.0366(7) 0.3784(7)
H16_2 H 0.9453 0.0364 0.4173
C30_2 C 0.8285(6) 0.0382(9) 0.1104(8)
C31_2 C 0.7693(8) 0.0617(6) 0.0533(10)
H17_2 H 0.7260 0.0797 0.0798
C34_2 C 0.8867(6) 0.0016(7) 0.0655(7)
C32_2 C 0.7715(8) 0.0594(6) 0.9528(10)
H18_2 H 0.7274 0.0748 0.9141
C33_2 C 0.8842(6) 0.0040(7) 0.9647(6)
H20_2 H 0.9251 0.9769 0.1029
H19_2 H 0.9226 0.9811 0.9346
Ni19 Ni 0.49640(8) 0.06798(4) 0.09589(11)
Ni18 Ni 0.50360(8) 0.06798(4) 0.90411(11)
O27 O 0.0742(6) 0.6440(4) 0.0908(7)
O30 O 0.4159(5) 0.9949(4) 0.0674(7)
C91 C 0.1585(8) 0.7242(5) 0.0243(10)
C92 C 0.1605(7) 0.7606(5) 0.1024(10)
H55 H 0.1309 0.7473 0.1523
C93 C 0.2066(7) 0.8206(5) 0.1147(10)
H56 H 0.2080 0.8470 0.1710
C94 C 0.2502(7) 0.8376(5) 0.0357(10)
C95 C 0.2990(7) 0.8995(5) 0.0459(9)
H57 H 0.2990 0.9273 0.1007
C101 C 0.1024(7) 0.6631(5) 0.0118(10)
O33 O 0.0816(6) 0.4990(4) 0.0952(7)
Ni13 Ni 0.00360(8) 0.56798(4) 0.90411(11)
N7 N 0.0023(5) 0.5706(6) 0.7575(7)
C81 C 0.0624(6) 0.5397(7) 0.7164(8)
H47 H 0.1013 0.5160 0.7546
C82 C 0.0630(6) 0.5451(7) 0.6152(10)
H48 H 0.1070 0.5303 0.5870
C83 C 0.0001(6) 0.5719(7) 0.5543(8)
C89 C 0.0562(7) 0.5932(8) 0.2991(11)
C90 C 0.0624(7) 0.5949(7) 0.3998(9)
H51 H 0.1074 0.6112 0.4357
H52 H 0.0984 0.6099 0.2691
O28 O 0.0879(6) 0.6373(4) 0.9294(7)
O29 O 0.4184(6) 0.9990(4) 0.9048(7)
C96 C 0.3454(7) 0.9149(5) 0.9702(9)
C97 C 0.3453(8) 0.8678(6) 0.8863(9)
H58 H 0.3772 0.8764 0.8368
C98 C 0.2995(9) 0.8128(9) 0.8810(10)
H59 H 0.3006 0.7840 0.8275
C99 C 0.2497(8) 0.7968(6) 0.9531(9)
C100 C 0.2019(8) 0.7411(6) 0.9507(10)
H60 H 0.1991 0.7133 0.8957
C102 C 0.3977(7) 0.9733(5) 0.9801(9)
O32 O 0.0841(5) 0.4949(4) 0.9326(7)
O24 O 0.9121(6) 0.6373(4) 0.0706(7)
O25 O 0.5816(6) 0.9990(4) 0.0952(7)
C74 C 0.6546(7) 0.9149(5) 0.0298(9)
C75 C 0.6547(8) 0.8678(6) 0.1137(9)
H44 H 0.6228 0.8764 0.1632
C76 C 0.7005(9) 0.8128(9) 0.1190(10)
H45 H 0.6994 0.7840 0.1725
C77 C 0.7503(8) 0.7968(6) 0.0469(9)
C78 C 0.7981(8) 0.7411(6) 0.0493(10)
H46 H 0.8009 0.7133 0.1043
C80 C 0.6023(7) 0.9733(5) 0.0199(9)
Ni14 Ni 0.99640(8) 0.56798(4) 0.09589(11)
O34 O 0.9159(5) 0.4949(4) 0.0674(7)
N9 N 0.9977(5) 0.5706(6) 0.2425(7)
O23 O 0.9258(6) 0.6440(4) 0.9092(7)
O26 O 0.5841(5) 0.9949(4) 0.9326(7)
C69 C 0.8415(8) 0.7242(5) 0.9757(10)
C70 C 0.8395(7) 0.7606(5) 0.8976(10)
H41 H 0.8691 0.7473 0.8477
C71 C 0.7934(7) 0.8206(5) 0.8853(10)
H42 H 0.7920 0.8470 0.8290
C72 C 0.7498(7) 0.8376(5) 0.9643(10)
C73 C 0.7010(7) 0.8995(5) 0.9541(9)
H43 H 0.7010 0.9273 0.8993
C79 C 0.8976(7) 0.6631(5) 0.9882(10)
C84 C 0.9376(7) 0.5949(7) 0.6002(9)
H49 H 0.8926 0.6112 0.5643
C85 C 0.9438(7) 0.5932(8) 0.7009(11)
H50 H 0.9016 0.6099 0.7309
C86 C 0.9999(6) 0.5719(7) 0.4457(8)
C87 C 0.9370(6) 0.5451(7) 0.3848(10)
C88 C 0.9376(6) 0.5397(7) 0.2836(8)
H53 H 0.8987 0.5160 0.2454
H54 H 0.8930 0.5303 0.4130
O31 O 0.9184(6) 0.4990(4) 0.9048(7)
O24_2 O 0.4121(6) 0.1373(4) 0.0706(7)
C74_2 C 0.1546(7) 0.4149(5) 0.0298(9)
C75_2 C 0.1547(8) 0.3678(6) 0.1137(9)
H44_2 H 0.1228 0.3764 0.1632
C76_2 C 0.2005(9) 0.3128(9) 0.1190(10)
H45_2 H 0.1994 0.2840 0.1725
C77_2 C 0.2503(8) 0.2968(6) 0.0469(9)
C78_2 C 0.2981(8) 0.2411(6) 0.0493(10)
H46_2 H 0.3009 0.2133 0.1043
C80_2 C 0.1023(7) 0.4733(5) 0.0199(9)
O27_2 O 0.5742(6) 0.1440(4) 0.0908(7)
C91_2 C 0.6585(8) 0.2242(5) 0.0243(10)
C92_2 C 0.6605(7) 0.2606(5) 0.1024(10)
H55_2 H 0.6309 0.2473 0.1523
C93_2 C 0.7066(7) 0.3206(5) 0.1147(10)
H56_2 H 0.7080 0.3470 0.1710
C94_2 C 0.7502(7) 0.3376(5) 0.0357(10)
C95_2 C 0.7990(7) 0.3995(5) 0.0459(9)
H57_2 H 0.7990 0.4273 0.1007
C101_2 C 0.6024(7) 0.1631(5) 0.0118(10)
N9_2 N 0.4977(5) 0.0706(6) 0.2425(7)
O23_2 O 0.4258(6) 0.1440(4) 0.9092(7)
C69_2 C 0.3415(8) 0.2242(5) 0.9757(10)
C70_2 C 0.3395(7) 0.2606(5) 0.8976(10)
H41_2 H 0.3691 0.2473 0.8477
C71_2 C 0.2934(7) 0.3206(5) 0.8853(10)
H42_2 H 0.2920 0.3470 0.8290
C72_2 C 0.2498(7) 0.3376(5) 0.9643(10)
C73_2 C 0.2010(7) 0.3995(5) 0.9541(9)
H43_2 H 0.2010 0.4273 0.8993
C79_2 C 0.3976(7) 0.1631(5) 0.9882(10)
N7_2 N 0.5023(5) 0.0706(6) 0.7575(7)
C81_2 C 0.5624(6) 0.0397(7) 0.7164(8)
H47_2 H 0.6013 0.0160 0.7546
C82_2 C 0.5630(6) 0.0451(7) 0.6152(10)
H48_2 H 0.6070 0.0303 0.5870
C83_2 C 0.5001(6) 0.0719(7) 0.5543(8)
C84_2 C 0.4376(7) 0.0949(7) 0.6002(9)
H49_2 H 0.3926 0.1112 0.5643
C85_2 C 0.4438(7) 0.0932(8) 0.7009(11)
H50_2 H 0.4016 0.1099 0.7309
C86_2 C 0.4999(6) 0.0719(7) 0.4457(8)
C87_2 C 0.4370(6) 0.0451(7) 0.3848(10)
C88_2 C 0.4376(6) 0.0397(7) 0.2836(8)
C89_2 C 0.5562(7) 0.0932(8) 0.2991(11)
C90_2 C 0.5624(7) 0.0949(7) 0.3998(9)
H51_2 H 0.6074 0.1112 0.4357
H52_2 H 0.5984 0.1099 0.2691
H53_2 H 0.3987 0.0160 0.2454
H54_2 H 0.3930 0.0303 0.4130
O28_2 O 0.5879(6) 0.1373(4) 0.9294(7)
C96_2 C 0.8454(7) 0.4149(5) 0.9702(9)
C97_2 C 0.8453(8) 0.3678(6) 0.8863(9)
H58_2 H 0.8772 0.3764 0.8368
C98_2 C 0.7995(9) 0.3128(9) 0.8810(10)
H59_2 H 0.8006 0.2840 0.8275
C99_2 C 0.7497(8) 0.2968(6) 0.9531(9)
C100_2 C 0.7019(8) 0.2411(6) 0.9507(10)
H60_2 H 0.6991 0.2133 0.8957
C102_2 C 0.8977(7) 0.4733(5) 0.9801(9)
loop_
_geom_bond_atom_site_label_1
_geom_bond_atom_site_label_2
_geom_bond_site_symmetry_1
_geom_bond_site_symmetry_2
Ni7 Ni8 1_555 1_555
O3 C12 1_555 1_555
O4 C12 1_555 1_555
O7 C24 1_555 1_555
O8 C24 1_555 1_555
H3 C5 1_555 1_555
C6 C5 1_555 1_555
C12 C6 1_555 1_555
H9 C17 1_555 1_555
C18 C17 1_555 1_555
C24 C18 1_555 1_555
Ni7 O3 1_555 1_555
Ni8 O4 1_555 1_555
O18 Ni8 1_555 1_555
N5 Ni8 1_555 1_555
O21 Ni7 1_555 1_555
N6 Ni7 1_555 1_555
H38 C66 1_555 1_555
N4 C66 1_555 1_555
C67 N4 1_555 1_555
H39 C67 1_555 1_555
Ni12 N4 1_555 1_555
Ni12 Ni2 1_555 1_555
Ni2 O2 1_555 1_555
O1 Ni12 1_555 1_555
O2 C11 1_555 1_555
O5 Ni12 1_555 1_555
O6 Ni2 1_555 1_555
C1 C2 1_555 1_555
C2 H1 1_555 1_555
C3 C2 1_555 1_555
C4 C3 1_555 1_555
H2 C4 1_555 1_555
H4 C7 1_555 1_555
C8 C3 1_555 1_555
C9 C8 1_555 1_555
H5 C9 1_555 1_555
C10 C1 1_555 1_555
H6 C10 1_555 1_555
C11 O1 1_555 1_555
C13 C14 1_555 1_555
C14 H7 1_555 1_555
C15 C14 1_555 1_555
C16 C15 1_555 1_555
H8 C16 1_555 1_555
H10 C19 1_555 1_555
C20 C15 1_555 1_555
C21 C20 1_555 1_555
H11 C21 1_555 1_555
C22 C13 1_555 1_555
H12 C22 1_555 1_555
C23 O5 1_555 1_555
O9 C45 1_555 1_555
O10 C45 1_555 1_555
O11 Ni2 1_555 1_555
O12 Ni12 1_555 1_555
C35 C36 1_555 1_555
C36 H21 1_555 1_555
C37 C36 1_555 1_555
C38 C37 1_555 1_555
H22 C38 1_555 1_555
C39 C38 1_555 1_555
H23 C39 1_555 1_555
C40 C39 1_555 1_555
C41 C40 1_555 1_555
H24 C41 1_555 1_555
C42 C37 1_555 1_555
C43 C42 1_555 1_555
H25 C43 1_555 1_555
C44 C35 1_555 1_555
H26 C44 1_555 1_555
C45 C35 1_555 1_555
C46 O11 1_555 1_555
O18 C57 1_555 1_555
O21 C57 1_555 1_555
O15 Ni2 1_555 1_555
O16 Ni12 1_555 1_555
C47 C48 1_555 1_555
C48 H27 1_555 1_555
C49 C48 1_555 1_555
C50 C49 1_555 1_555
H28 C50 1_555 1_555
C51 C50 1_555 1_555
H29 C51 1_555 1_555
C52 C51 1_555 1_555
C53 C52 1_555 1_555
H30 C53 1_555 1_555
C54 C49 1_555 1_555
C55 C54 1_555 1_555
H31 C55 1_555 1_555
C56 C47 1_555 1_555
H32 C56 1_555 1_555
C57 C47 1_555 1_555
C58 O15 1_555 1_555
N3 Ni2 1_555 1_555
C59 N3 1_555 1_555
H33 C59 1_555 1_555
C60 C59 1_555 1_555
H34 C60 1_555 1_555
C61 C60 1_555 1_555
C62 C61 1_555 1_555
H35 C62 1_555 1_555
C63 N3 1_555 1_555
H36 C63 1_555 1_555
C64 C61 1_555 1_555
C65 C64 1_555 1_555
H37 C65 1_555 1_555
C68 C64 1_555 1_555
H40 C68 1_555 1_555
O6 C23 1_555 1_555
C1 C11 1_555 1_555
C7 C8 1_555 1_555
C9 C10 1_555 1_555
C13 C23 1_555 1_555
C19 C20 1_555 1_555
C21 C22 1_555 1_555
O12 C46 1_555 1_555
C40 C46 1_555 1_555
C41 C42 1_555 1_555
C43 C44 1_555 1_555
O16 C58 1_555 1_555
C52 C58 1_555 1_555
C53 C54 1_555 1_555
C55 C56 1_555 1_555
C62 C63 1_555 1_555
H38_2 C66_2 1_555 1_555
N5 C66_2 1_555 1_555
C67_2 N5 1_555 1_555
C59_2 N6 1_555 1_555
H33_2 C59_2 1_555 1_555
C60_2 C59_2 1_555 1_555
H34_2 C60_2 1_555 1_555
C61_2 C60_2 1_555 1_555
C62_2 C61_2 1_555 1_555
H35_2 C62_2 1_555 1_555
C63_2 N6 1_555 1_555
H36_2 C63_2 1_555 1_555
C64_2 C61_2 1_555 1_555
C65_2 C64_2 1_555 1_555
H37_2 C65_2 1_555 1_555
C68_2 C64_2 1_555 1_555
C62_2 C63_2 1_555 1_555
O17 Ni3 1_555 1_555
O18_2 Ni3 1_555 1_555
N5_2 Ni3 1_555 1_555
O20 Ni4 1_555 1_555
O21_2 Ni4 1_555 1_555
N6_2 Ni4 1_555 1_555
Ni3 Ni4 1_555 1_555
N1 C25 1_555 1_555
C25 H13 1_555 1_555
C26 C25 1_555 1_555
H14 C26 1_555 1_555
C27 C26 1_555 1_555
C28 C27 1_555 1_555
H15 C28 1_555 1_555
C29 N1 1_555 1_555
H16 C29 1_555 1_555
C30 C27 1_555 1_555
C31 C30 1_555 1_555
H17 C31 1_555 1_555
C34 C30 1_555 1_555
H20 C34 1_555 1_555
Ni9 N1 1_555 1_555
C28 C29 1_555 1_555
Ni1 Ni9 1_555 1_555
Ni9 O2_2 1_555 1_555
O1_2 Ni1 1_555 1_555
O2_2 C11_2 1_555 1_555
O5_2 Ni1 1_555 1_555
O6_2 Ni9 1_555 1_555
C1_2 C2_2 1_555 1_555
C2_2 H1_2 1_555 1_555
C3_2 C2_2 1_555 1_555
C4_2 C3_2 1_555 1_555
H2_2 C4_2 1_555 1_555
H4_2 C7_2 1_555 1_555
C8_2 C3_2 1_555 1_555
C9_2 C8_2 1_555 1_555
H5_2 C9_2 1_555 1_555
C10_2 C1_2 1_555 1_555
H6_2 C10_2 1_555 1_555
C11_2 O1_2 1_555 1_555
C13_2 C14_2 1_555 1_555
C14_2 H7_2 1_555 1_555
C15_2 C14_2 1_555 1_555
C16_2 C15_2 1_555 1_555
H8_2 C16_2 1_555 1_555
H10_2 C19_2 1_555 1_555
C20_2 C15_2 1_555 1_555
C21_2 C20_2 1_555 1_555
H11_2 C21_2 1_555 1_555
C22_2 C13_2 1_555 1_555
H12_2 C22_2 1_555 1_555
C23_2 O5_2 1_555 1_555
H18 C32 1_555 1_555
N2 Ni1 1_555 1_555
C33 N2 1_555 1_555
H19 C33 1_555 1_555
O9_2 C45_2 1_555 1_555
O10_2 C45_2 1_555 1_555
O11_2 Ni9 1_555 1_555
O12_2 Ni1 1_555 1_555
C35_2 C36_2 1_555 1_555
C36_2 H21_2 1_555 1_555
C37_2 C36_2 1_555 1_555
C38_2 C37_2 1_555 1_555
H22_2 C38_2 1_555 1_555
C39_2 C38_2 1_555 1_555
H23_2 C39_2 1_555 1_555
C40_2 C39_2 1_555 1_555
C41_2 C40_2 1_555 1_555
H24_2 C41_2 1_555 1_555
C42_2 C37_2 1_555 1_555
C43_2 C42_2 1_555 1_555
H25_2 C43_2 1_555 1_555
C44_2 C35_2 1_555 1_555
H26_2 C44_2 1_555 1_555
C45_2 C35_2 1_555 1_555
C46_2 O11_2 1_555 1_555
O18_2 C57_2 1_555 1_555
O21_2 C57_2 1_555 1_555
O15_2 Ni9 1_555 1_555
O16_2 Ni1 1_555 1_555
C47_2 C48_2 1_555 1_555
C48_2 H27_2 1_555 1_555
C49_2 C48_2 1_555 1_555
C50_2 C49_2 1_555 1_555
H28_2 C50_2 1_555 1_555
C51_2 C50_2 1_555 1_555
H29_2 C51_2 1_555 1_555
C52_2 C51_2 1_555 1_555
C53_2 C52_2 1_555 1_555
H30_2 C53_2 1_555 1_555
C54_2 C49_2 1_555 1_555
C55_2 C54_2 1_555 1_555
H31_2 C55_2 1_555 1_555
C56_2 C47_2 1_555 1_555
H32_2 C56_2 1_555 1_555
C57_2 C47_2 1_555 1_555
C58_2 O15_2 1_555 1_555
O6_2 C23_2 1_555 1_555
C1_2 C11_2 1_555 1_555
C7_2 C8_2 1_555 1_555
C9_2 C10_2 1_555 1_555
C13_2 C23_2 1_555 1_555
C19_2 C20_2 1_555 1_555
C21_2 C22_2 1_555 1_555
C32 N2 1_555 1_555
O12_2 C46_2 1_555 1_555
C40_2 C46_2 1_555 1_555
C41_2 C42_2 1_555 1_555
C43_2 C44_2 1_555 1_555
O16_2 C58_2 1_555 1_555
C52_2 C58_2 1_555 1_555
C53_2 C54_2 1_555 1_555
C55_2 C56_2 1_555 1_555
O20 C12_2 1_555 1_555
O17 C12_2 1_555 1_555
O22 C24_2 1_555 1_555
O19 C24_2 1_555 1_555
H3_2 C5_2 1_555 1_555
C6_2 C5_2 1_555 1_555
C12_2 C6_2 1_555 1_555
H9_2 C17_2 1_555 1_555
C18_2 C17_2 1_555 1_555
C24_2 C18_2 1_555 1_555
N6_2 C25_2 1_555 1_555
C25_2 H13_2 1_555 1_555
C26_2 C25_2 1_555 1_555
H14_2 C26_2 1_555 1_555
C27_2 C26_2 1_555 1_555
C28_2 C27_2 1_555 1_555
H15_2 C28_2 1_555 1_555
C29_2 N6_2 1_555 1_555
H16_2 C29_2 1_555 1_555
C30_2 C27_2 1_555 1_555
C31_2 C30_2 1_555 1_555
H17_2 C31_2 1_555 1_555
C34_2 C30_2 1_555 1_555
C28_2 C29_2 1_555 1_555
H18_2 C32_2 1_555 1_555
C33_2 N5_2 1_555 1_555
C32_2 N5_2 1_555 1_555
O27 C101 1_555 1_555
C91 C92 1_555 1_555
C92 H55 1_555 1_555
C93 C92 1_555 1_555
H56 C93 1_555 1_555
C94 C93 1_555 1_555
C95 C94 1_555 1_555
H57 C95 1_555 1_555
C91 C101 1_555 1_555
N7 Ni13 1_555 1_555
C81 N7 1_555 1_555
H47 C81 1_555 1_555
C82 C81 1_555 1_555
H48 C82 1_555 1_555
C83 C82 1_555 1_555
H51 C90 1_555 1_555
H52 C89 1_555 1_555
O28 Ni13 1_555 1_555
O29 C102 1_555 1_555
C97 C96 1_555 1_555
H58 C97 1_555 1_555
C98 C97 1_555 1_555
H59 C98 1_555 1_555
H60 C100 1_555 1_555
C102 C96 1_555 1_555
O32 Ni13 1_555 1_555
C89 C90 1_555 1_555
C98 C99 1_555 1_555
C99 C100 1_555 1_555
O25 C80 1_555 1_555
C75 C74 1_555 1_555
H44 C75 1_555 1_555
C76 C75 1_555 1_555
H45 C76 1_555 1_555
H46 C78 1_555 1_555
C80 C74 1_555 1_555
O34 Ni14 1_555 1_555
N9 Ni14 1_555 1_555
O24 Ni14 1_555 1_555
C76 C77 1_555 1_555
C77 C78 1_555 1_555
O23 C79 1_555 1_555
C69 C70 1_555 1_555
C70 H41 1_555 1_555
C71 C70 1_555 1_555
H42 C71 1_555 1_555
C72 C71 1_555 1_555
C73 C72 1_555 1_555
H43 C73 1_555 1_555
C79 C69 1_555 1_555
H49 C84 1_555 1_555
H50 C85 1_555 1_555
C87 C86 1_555 1_555
C88 C87 1_555 1_555
N9 C88 1_555 1_555
H53 C88 1_555 1_555
H54 C87 1_555 1_555
C84 C85 1_555 1_555
O33 C80_2 1_555 1_555
C75_2 C74_2 1_555 1_555
H44_2 C75_2 1_555 1_555
C76_2 C75_2 1_555 1_555
H45_2 C76_2 1_555 1_555
H46_2 C78_2 1_555 1_555
C80_2 C74_2 1_555 1_555
O27_2 C101_2 1_555 1_555
C91_2 C92_2 1_555 1_555
C92_2 H55_2 1_555 1_555
C93_2 C92_2 1_555 1_555
H56_2 C93_2 1_555 1_555
C94_2 C93_2 1_555 1_555
C95_2 C94_2 1_555 1_555
H57_2 C95_2 1_555 1_555
N9_2 Ni19 1_555 1_555
O24_2 Ni19 1_555 1_555
C76_2 C77_2 1_555 1_555
C77_2 C78_2 1_555 1_555
O27_2 Ni19 1_555 1_555
C91_2 C101_2 1_555 1_555
Ni18 O23_2 1_555 1_555
O23_2 C79_2 1_555 1_555
C69_2 C70_2 1_555 1_555
C70_2 H41_2 1_555 1_555
C71_2 C70_2 1_555 1_555
H42_2 C71_2 1_555 1_555
C72_2 C71_2 1_555 1_555
C73_2 C72_2 1_555 1_555
H43_2 C73_2 1_555 1_555
C79_2 C69_2 1_555 1_555
N7_2 Ni18 1_555 1_555
C81_2 N7_2 1_555 1_555
H47_2 C81_2 1_555 1_555
C82_2 C81_2 1_555 1_555
H48_2 C82_2 1_555 1_555
C83_2 C82_2 1_555 1_555
C84_2 C83_2 1_555 1_555
H49_2 C84_2 1_555 1_555
C85_2 N7_2 1_555 1_555
H50_2 C85_2 1_555 1_555
C86_2 C83_2 1_555 1_555
C87_2 C86_2 1_555 1_555
C88_2 C87_2 1_555 1_555
N9_2 C88_2 1_555 1_555
C89_2 N9_2 1_555 1_555
C90_2 C86_2 1_555 1_555
H51_2 C90_2 1_555 1_555
H52_2 C89_2 1_555 1_555
H53_2 C88_2 1_555 1_555
H54_2 C87_2 1_555 1_555
O28_2 Ni18 1_555 1_555
O31 C102_2 1_555 1_555
C97_2 C96_2 1_555 1_555
H58_2 C97_2 1_555 1_555
C98_2 C97_2 1_555 1_555
H59_2 C98_2 1_555 1_555
H60_2 C100_2 1_555 1_555
C102_2 C96_2 1_555 1_555
C84_2 C85_2 1_555 1_555
C89_2 C90_2 1_555 1_555
C98_2 C99_2 1_555 1_555
C99_2 C100_2 1_555 1_555

#END
