
###############################################################################
#
# This file contains modified crystal structure data generated from the
# MOF subset of the Cambridge Structural Database (CSD) v543 
# hosted by the Cambridge Crystallographic Data Centre (CCDC).
#
# This work is licensed under the Creative Commons
# Attribution-NonCommercial-ShareAlike 4.0 International License.
# To view a copy of this license, visit
# http://creativecommons.org/licenses/by-nc-sa/4.0/
# or send a letter to
# Creative Commons, PO Box 1866, Mountain View, CA 94042, USA.
#
# CIF created using the CSD Python API on 29 September 2022
# The structure has been converted into the P1 space group
# The structure has a 3D framework
# The original CSD entry BAZDAJ is in the orthorhombic crystal system
# The original CSD entry BAZDAJ is in a Sohncke space group
# The framework has been calculated to contain at least 10.0% void space
# The void calculation uses a probe of radius 1.32A, grid spacing 0.4
#
###############################################################################

data_BAZDAJ
_chemical_formula_moiety         '(C104 H88 Cl8 Cr4 Fe4 Mn4 N16 O54)n'
_symmetry_cell_setting           triclinic
_symmetry_space_group_name_H-M   'P 1'
_symmetry_Int_Tables_number      1
_space_group_name_Hall           'P 1'
loop_
_symmetry_equiv_pos_site_id
_symmetry_equiv_pos_as_xyz
1 x,y,z
_cell_length_a                   13.3082(3)
_cell_length_b                   15.6219(4)
_cell_length_c                   16.4727(5)
_cell_angle_alpha                90
_cell_angle_beta                 90
_cell_angle_gamma                90
_cell_volume                     3424.66
loop_
_atom_site_label
_atom_site_type_symbol
_atom_site_fract_x
_atom_site_fract_y
_atom_site_fract_z
C1 C 0.0356(3) 0.8242(3) 0.3787(3)
C2 C 0.0081(3) 0.8096(3) 0.2990(3)
H1 H 0.0152 0.7539 0.2767
C6 C 0.0260(3) 0.9088(3) 0.4097(3)
C7 C 0.0567(3) 0.9315(3) 0.4911(2)
H4 H 0.0507 0.9899 0.5064
C8 C 0.1171(3) 0.9128(2) 0.6254(2)
H5 H 0.0728 0.9615 0.6395
H6 H 0.1877 0.9328 0.6264
C9 C 0.1028(3) 0.8418(2) 0.6838(2)
H7 H 0.0302 0.8310 0.6921
H8 H 0.1330 0.8569 0.7368
C10 C 0.2635(3) 0.7645(3) 0.6557(2)
H9 H 0.2881 0.7066 0.6702
H10 H 0.2854 0.8048 0.6985
C11 C 0.3077(3) 0.7916(2) 0.5739(2)
H11 H 0.3012 0.8542 0.5664
H12 H 0.3797 0.7760 0.5707
C12 C 0.2813(3) 0.6535(2) 0.5018(3)
H13 H 0.2994 0.6292 0.5553
H14 H 0.3406 0.6497 0.4656
C13 C 0.1934(3) 0.6050(2) 0.4654(3)
H15 H 0.1827 0.6220 0.4082
H16 H 0.2056 0.5425 0.4675
C14 C 0.0390(3) 0.5726(2) 0.5329(3)
H17 H 0.0488 0.5160 0.5135
N1 N 0.0914(2) 0.87913(19) 0.54467(19)
N2 N 0.1520(2) 0.7639(2) 0.6506(2)
H21 H 0.1288 0.7171 0.6801
N3 N 0.2486(2) 0.7447(2) 0.51077(19)
H22 H 0.2600 0.7718 0.4614
N4 N 0.1061(2) 0.6279(2) 0.5152(2)
O1 O 0.0690(2) 0.75946(17) 0.42138(17)
Fe1 Fe 0.09951(4) 0.75243(3) 0.53407(3)
H3 H 0.9823 0.0302 0.3784
Cl1 Cl 0.91495(11) 0.03757(9) 0.21919(9)
C3 C 0.9703(3) 0.8750(3) 0.2510(3)
H2 H 0.9510 0.8634 0.1965
C4 C 0.9606(3) 0.9565(3) 0.2815(3)
C5 C 0.9883(3) 0.9734(3) 0.3583(3)
C15 C 0.9512(3) 0.5883(3) 0.5790(3)
C16 C 0.8894(4) 0.5187(3) 0.6037(4)
H18 H 0.9056 0.4617 0.5883
C17 C 0.8038(3) 0.5357(4) 0.6512(4)
C18 C 0.7814(4) 0.6147(4) 0.6748(3)
H19 H 0.7241 0.6238 0.7082
C19 C 0.8381(3) 0.6821(3) 0.6525(3)
H20 H 0.8200 0.7378 0.6704
C20 C 0.9230(3) 0.6720(3) 0.6037(3)
O2 O 0.96983(18) 0.74185(18) 0.57879(19)
Cl2 Cl 0.72803(10) 0.44740(12) 0.67456(17)
H4_2 H 0.4493 0.0101 0.0064
C8_2 C 0.3829(3) 0.0872(2) 0.1254(2)
H5_2 H 0.4272 0.0385 0.1395
H6_2 H 0.3123 0.0672 0.1264
C9_2 C 0.3972(3) 0.1582(2) 0.1838(2)
H7_2 H 0.4698 0.1690 0.1921
H8_2 H 0.3670 0.1431 0.2368
C10_2 C 0.2365(3) 0.2355(3) 0.1557(2)
H9_2 H 0.2119 0.2934 0.1702
H10_2 H 0.2146 0.1952 0.1985
C11_2 C 0.1923(3) 0.2084(2) 0.0739(2)
H11_2 H 0.1988 0.1458 0.0664
H12_2 H 0.1203 0.2240 0.0707
C12_2 C 0.2187(3) 0.3465(2) 0.0018(3)
H13_2 H 0.2006 0.3708 0.0553
C14_2 C 0.4610(3) 0.4274(2) 0.0329(3)
H17_2 H 0.4512 0.4840 0.0135
C15_2 C 0.5488(3) 0.4117(3) 0.0790(3)
C16_2 C 0.6106(4) 0.4813(3) 0.1037(4)
H18_2 H 0.5944 0.5383 0.0883
C17_2 C 0.6962(3) 0.4643(4) 0.1512(4)
C18_2 C 0.7186(4) 0.3853(4) 0.1748(3)
H19_2 H 0.7759 0.3762 0.2082
C19_2 C 0.6619(3) 0.3179(3) 0.1525(3)
H20_2 H 0.6800 0.2622 0.1704
C20_2 C 0.5770(3) 0.3280(3) 0.1037(3)
N1_2 N 0.4086(2) 0.12087(19) 0.04467(19)
N2_2 N 0.3480(2) 0.2361(2) 0.1506(2)
H21_2 H 0.3712 0.2829 0.1801
N3_2 N 0.2514(2) 0.2553(2) 0.01077(19)
N4_2 N 0.3939(2) 0.3721(2) 0.0152(2)
O2_2 O 0.53017(18) 0.25815(18) 0.07879(19)
Cl2_2 Cl 0.77197(10) 0.55260(12) 0.17456(17)
Fe1_2 Fe 0.40049(4) 0.24757(3) 0.03407(3)
C1_2 C 0.4644(3) 0.1758(3) 0.8787(3)
C2_2 C 0.4919(3) 0.1904(3) 0.7990(3)
H1_2 H 0.4848 0.2461 0.7767
C3_2 C 0.5297(3) 0.1250(3) 0.7510(3)
H2_2 H 0.5490 0.1366 0.6965
C4_2 C 0.5394(3) 0.0435(3) 0.7815(3)
C5_2 C 0.5117(3) 0.0266(3) 0.8583(3)
C6_2 C 0.4740(3) 0.0912(3) 0.9097(3)
C7_2 C 0.4433(3) 0.0685(3) 0.9911(2)
H14_2 H 0.1594 0.3503 0.9656
C13_2 C 0.3066(3) 0.3950(2) 0.9654(3)
H15_2 H 0.3173 0.3780 0.9082
H16_2 H 0.2944 0.4575 0.9675
H22_2 H 0.2400 0.2282 0.9614
O1_2 O 0.4310(2) 0.24054(17) 0.92138(17)
H3_2 H 0.5177 0.9698 0.8784
Cl1_2 Cl 0.58505(11) 0.96243(9) 0.71919(9)
H18_3 H 0.4056 0.0383 0.4117
Cl2_3 Cl 0.22803(10) 0.05260(12) 0.32544(17)
C1_3 C 0.5356(3) 0.6758(3) 0.6213(3)
C2_3 C 0.5081(3) 0.6904(3) 0.7010(3)
H1_3 H 0.5152 0.7461 0.7233
C3_3 C 0.4703(3) 0.6250(3) 0.7490(3)
H2_3 H 0.4510 0.6366 0.8035
C4_3 C 0.4606(3) 0.5435(3) 0.7185(3)
C5_3 C 0.4883(3) 0.5266(3) 0.6417(3)
H3_3 H 0.4823 0.4698 0.6216
C6_3 C 0.5260(3) 0.5912(3) 0.5903(3)
C7_3 C 0.5567(3) 0.5685(3) 0.5089(2)
H4_3 H 0.5507 0.5101 0.4936
C8_3 C 0.6171(3) 0.5872(2) 0.3746(2)
H5_3 H 0.5728 0.5385 0.3605
H6_3 H 0.6877 0.5672 0.3736
C9_3 C 0.6028(3) 0.6582(2) 0.3162(2)
H7_3 H 0.5302 0.6690 0.3079
H8_3 H 0.6330 0.6431 0.2632
C10_3 C 0.7635(3) 0.7355(3) 0.3443(2)
H9_3 H 0.7881 0.7934 0.3298
H10_3 H 0.7854 0.6952 0.3015
C11_3 C 0.8077(3) 0.7084(2) 0.4261(2)
H11_3 H 0.8012 0.6458 0.4336
H12_3 H 0.8797 0.7240 0.4293
C12_3 C 0.7813(3) 0.8465(2) 0.4982(3)
H13_3 H 0.7994 0.8708 0.4447
H14_3 H 0.8406 0.8503 0.5344
C13_3 C 0.6934(3) 0.8950(2) 0.5346(3)
H15_3 H 0.6827 0.8780 0.5918
H16_3 H 0.7056 0.9575 0.5325
C14_3 C 0.5390(3) 0.9274(2) 0.4671(3)
H17_3 H 0.5488 0.9840 0.4865
C15_3 C 0.4512(3) 0.9117(3) 0.4210(3)
C16_3 C 0.3894(4) 0.9813(3) 0.3963(4)
C17_3 C 0.3038(3) 0.9643(4) 0.3488(4)
C18_3 C 0.2814(4) 0.8853(4) 0.3252(3)
H19_3 H 0.2241 0.8762 0.2918
C19_3 C 0.3381(3) 0.8179(3) 0.3475(3)
H20_3 H 0.3200 0.7622 0.3296
C20_3 C 0.4230(3) 0.8280(3) 0.3963(3)
N1_3 N 0.5914(2) 0.62087(19) 0.45533(19)
N2_3 N 0.6520(2) 0.7361(2) 0.3494(2)
H21_3 H 0.6288 0.7829 0.3199
N3_3 N 0.7486(2) 0.7553(2) 0.48923(19)
H22_3 H 0.7600 0.7282 0.5386
N4_3 N 0.6061(2) 0.8721(2) 0.4848(2)
O1_3 O 0.5690(2) 0.74054(17) 0.57862(17)
O2_3 O 0.46983(18) 0.75815(18) 0.42121(19)
Cl1_3 Cl 0.41495(11) 0.46243(9) 0.78081(9)
Fe1_3 Fe 0.59951(4) 0.74757(3) 0.46593(3)
C3_4 C 0.0297(3) 0.3750(3) 0.2490(3)
H2_4 H 0.0490 0.3634 0.3035
C4_4 C 0.0394(3) 0.4565(3) 0.2185(3)
C5_4 C 0.0117(3) 0.4734(3) 0.1417(3)
H3_4 H 0.0177 0.5302 0.1216
Cl1_4 Cl 0.08505(11) 0.53757(9) 0.28081(9)
C15_4 C 0.0488(3) 0.0883(3) 0.9210(3)
C16_4 C 0.1106(4) 0.0187(3) 0.8963(4)
C17_4 C 0.1962(3) 0.0357(4) 0.8488(4)
C18_4 C 0.2186(4) 0.1147(4) 0.8252(3)
H19_4 H 0.2759 0.1238 0.7918
C19_4 C 0.1619(3) 0.1821(3) 0.8475(3)
H20_4 H 0.1800 0.2378 0.8296
C20_4 C 0.0770(3) 0.1720(3) 0.8963(3)
O2_4 O 0.03017(18) 0.24185(18) 0.92121(19)
H18_4 H 0.0944 0.9617 0.9117
Cl2_4 Cl 0.27197(10) 0.94740(12) 0.82544(17)
C1_4 C 0.9644(3) 0.3242(3) 0.1213(3)
C2_4 C 0.9919(3) 0.3096(3) 0.2010(3)
H1_4 H 0.9848 0.2539 0.2233
C6_4 C 0.9740(3) 0.4088(3) 0.0903(3)
C7_4 C 0.9433(3) 0.4315(3) 0.0089(2)
H14_4 H 0.6594 0.1497 0.0344
C13_4 C 0.8066(3) 0.1050(2) 0.0346(3)
H15_4 H 0.8173 0.1220 0.0918
H16_4 H 0.7944 0.0425 0.0325
H22_4 H 0.7400 0.2718 0.0386
O1_4 O 0.9310(2) 0.25946(17) 0.07862(17)
H4_4 H 0.9493 0.4899 0.9936
C8_4 C 0.8829(3) 0.4128(2) 0.8746(2)
H5_4 H 0.9272 0.4615 0.8605
H6_4 H 0.8123 0.4328 0.8736
C9_4 C 0.8972(3) 0.3418(2) 0.8162(2)
H7_4 H 0.9698 0.3310 0.8079
H8_4 H 0.8670 0.3569 0.7632
C10_4 C 0.7365(3) 0.2645(3) 0.8443(2)
H9_4 H 0.7119 0.2066 0.8298
H10_4 H 0.7146 0.3048 0.8015
C11_4 C 0.6923(3) 0.2916(2) 0.9261(2)
H11_4 H 0.6988 0.3542 0.9336
H12_4 H 0.6203 0.2760 0.9293
C12_4 C 0.7187(3) 0.1535(2) 0.9982(3)
H13_4 H 0.7006 0.1292 0.9447
C14_4 C 0.9610(3) 0.0726(2) 0.9671(3)
H17_4 H 0.9512 0.0160 0.9865
N1_4 N 0.9086(2) 0.37913(19) 0.95533(19)
N2_4 N 0.8480(2) 0.2639(2) 0.8494(2)
H21_4 H 0.8712 0.2171 0.8199
N3_4 N 0.7514(2) 0.2447(2) 0.98923(19)
N4_4 N 0.8939(2) 0.1279(2) 0.9848(2)
Fe1_4 Fe 0.90049(4) 0.25243(3) 0.96593(3)
C21 C 0.0137(3) 0.7681(2) 0.8555(2)
O3 O 0.10314(18) 0.74132(14) 0.85631(15)
Cr1 Cr 0.11215(4) 0.61551(3) 0.86353(4)
O15 O 0.25494(18) 0.62063(16) 0.89702(15)
O16 O 0.08785(18) 0.62046(15) 0.98209(15)
O17 O 0.11907(18) 0.48830(14) 0.86023(16)
O18 O 0.14515(19) 0.60360(15) 0.74629(15)
C26 C 0.8416(3) 0.0264(2) 0.7766(2)
O13 O 0.8217(2) 0.00137(14) 0.84530(16)
O14 O 0.85485(19) 0.10360(15) 0.75371(15)
Cr3 Cr 0.88785(4) 0.11551(3) 0.63647(4)
C23 C 0.7659(3) 0.8711(2) 0.0277(3)
O8 O 0.75494(18) 0.87937(16) 0.10298(15)
O10 O 0.58785(18) 0.87954(15) 0.01791(15)
Cr2 Cr 0.61215(4) 0.88449(3) 0.13647(4)
C21_2 C 0.4863(3) 0.2319(2) 0.3555(2)
C22 C 0.5679(3) 0.3024(2) 0.3492(2)
C23_2 C 0.7341(3) 0.1289(2) 0.5277(3)
C24 C 0.8325(3) 0.1304(2) 0.4776(2)
C25 C 0.6451(3) 0.0409(2) 0.2082(2)
O3_2 O 0.39686(18) 0.25868(14) 0.35631(15)
O4 O 0.53442(18) 0.37774(14) 0.34465(17)
O5 O 0.51233(18) 0.15532(14) 0.35804(18)
O6 O 0.65705(18) 0.27876(15) 0.34788(18)
O7 O 0.65333(19) 0.13118(17) 0.48980(17)
O8_2 O 0.74506(18) 0.12063(16) 0.60298(15)
O9 O 0.8272(2) 0.14088(16) 0.40303(16)
O10_2 O 0.91215(18) 0.12046(15) 0.51791(15)
O11 O 0.6604(2) 0.11704(16) 0.22581(16)
O12 O 0.61907(18) 0.01170(14) 0.13977(16)
Cr1_2 Cr 0.38785(4) 0.38449(3) 0.36353(4)
Mn1 Mn 0.67530(5) 0.13994(3) 0.35701(4)
O15_2 O 0.24506(18) 0.37937(16) 0.39702(15)
O16_2 O 0.41215(18) 0.37954(15) 0.48209(15)
O17_2 O 0.38093(18) 0.51170(14) 0.36023(16)
O18_2 O 0.35485(19) 0.39640(15) 0.24629(15)
C26_2 C 0.6584(3) 0.9736(2) 0.2766(2)
O13_2 O 0.6783(2) 0.99863(14) 0.34530(16)
O14_2 O 0.64515(19) 0.89640(15) 0.25371(15)
C21_3 C 0.5137(3) 0.7319(2) 0.1445(2)
C22_2 C 0.4321(3) 0.8024(2) 0.1508(2)
C24_2 C 0.1675(3) 0.6304(2) 0.0224(2)
C25_2 C 0.3549(3) 0.5409(2) 0.2918(2)
C26_3 C 0.3416(3) 0.4736(2) 0.2234(2)
O3_3 O 0.60314(18) 0.75868(14) 0.14369(15)
O4_2 O 0.46558(18) 0.87774(14) 0.15535(17)
O5_2 O 0.48767(18) 0.65532(14) 0.14196(18)
O6_2 O 0.34295(18) 0.77876(15) 0.15212(18)
O7_2 O 0.34667(19) 0.63118(17) 0.01020(17)
O9_2 O 0.1728(2) 0.64088(16) 0.09697(16)
O11_2 O 0.3396(2) 0.61704(16) 0.27419(16)
O13_3 O 0.3217(2) 0.49863(14) 0.15470(16)
Mn1_2 Mn 0.32470(5) 0.63994(3) 0.14299(4)
C23_3 C 0.2659(3) 0.6289(2) 0.9723(3)
C22_3 C 0.0679(3) 0.1976(2) 0.6508(2)
C23_4 C 0.2341(3) 0.3711(2) 0.4723(3)
C24_3 C 0.3325(3) 0.3696(2) 0.5224(2)
C25_3 C 0.1451(3) 0.4591(2) 0.7918(2)
C26_4 C 0.1584(3) 0.5264(2) 0.7234(2)
O4_3 O 0.03442(18) 0.12226(14) 0.65535(17)
O5_3 O 0.01233(18) 0.34468(14) 0.64196(18)
O6_3 O 0.15705(18) 0.22124(15) 0.65212(18)
O7_3 O 0.15333(19) 0.36882(17) 0.51020(17)
O9_3 O 0.3272(2) 0.35912(16) 0.59697(16)
O11_3 O 0.1604(2) 0.38296(16) 0.77419(16)
O13_4 O 0.1783(2) 0.50137(14) 0.65470(16)
Mn1_3 Mn 0.17530(5) 0.36006(3) 0.64299(4)
C21_4 C 0.9863(3) 0.2681(2) 0.6445(2)
O3_4 O 0.89686(18) 0.24132(14) 0.64369(15)
C22_4 C 0.9321(3) 0.6976(2) 0.8492(2)
C24_4 C 0.6675(3) 0.8696(2) 0.9776(2)
C25_4 C 0.8549(3) 0.9591(2) 0.7082(2)
O4_4 O 0.96558(18) 0.62226(14) 0.84465(17)
O5_4 O 0.98767(18) 0.84468(14) 0.85804(18)
O6_4 O 0.84295(18) 0.72124(15) 0.84788(18)
O7_4 O 0.84667(19) 0.86882(17) 0.98980(17)
O9_4 O 0.6728(2) 0.85912(16) 0.90303(16)
O11_4 O 0.8396(2) 0.88296(16) 0.72581(16)
O12_2 O 0.88093(18) 0.98830(14) 0.63977(16)
Mn1_4 Mn 0.82470(5) 0.86006(3) 0.85701(4)
loop_
_geom_bond_atom_site_label_1
_geom_bond_atom_site_label_2
_geom_bond_site_symmetry_1
_geom_bond_site_symmetry_2
C1 C2 1_555 1_555
C2 H1 1_555 1_555
C6 C1 1_555 1_555
C7 C6 1_555 1_555
H4 C7 1_555 1_555
C8 H5 1_555 1_555
H6 C8 1_555 1_555
C9 C8 1_555 1_555
H7 C9 1_555 1_555
H8 C9 1_555 1_555
C10 H9 1_555 1_555
H10 C10 1_555 1_555
C11 C10 1_555 1_555
H11 C11 1_555 1_555
H12 C11 1_555 1_555
C12 H13 1_555 1_555
H14 C12 1_555 1_555
C13 C12 1_555 1_555
H15 C13 1_555 1_555
H16 C13 1_555 1_555
C14 H17 1_555 1_555
N1 C7 1_555 1_555
N2 C9 1_555 1_555
H21 N2 1_555 1_555
N3 C11 1_555 1_555
H22 N3 1_555 1_555
N4 C13 1_555 1_555
O1 C1 1_555 1_555
Fe1 N1 1_555 1_555
C8 N1 1_555 1_555
C10 N2 1_555 1_555
C12 N3 1_555 1_555
C14 N4 1_555 1_555
N2 Fe1 1_555 1_555
N3 Fe1 1_555 1_555
N4 Fe1 1_555 1_555
O1 Fe1 1_555 1_555
H2 C3 1_555 1_555
C4 C3 1_555 1_555
C5 C4 1_555 1_555
C16 C15 1_555 1_555
H18 C16 1_555 1_555
C17 C16 1_555 1_555
C18 C17 1_555 1_555
H19 C18 1_555 1_555
C19 C18 1_555 1_555
H20 C19 1_555 1_555
C20 C15 1_555 1_555
O2 C20 1_555 1_555
Cl2 C17 1_555 1_555
C19 C20 1_555 1_555
C8_2 H5_2 1_555 1_555
H6_2 C8_2 1_555 1_555
C9_2 C8_2 1_555 1_555
H7_2 C9_2 1_555 1_555
H8_2 C9_2 1_555 1_555
C10_2 H9_2 1_555 1_555
H10_2 C10_2 1_555 1_555
C11_2 C10_2 1_555 1_555
H11_2 C11_2 1_555 1_555
H12_2 C11_2 1_555 1_555
C12_2 H13_2 1_555 1_555
C14_2 H17_2 1_555 1_555
C15_2 C14_2 1_555 1_555
C16_2 C15_2 1_555 1_555
H18_2 C16_2 1_555 1_555
C17_2 C16_2 1_555 1_555
C18_2 C17_2 1_555 1_555
H19_2 C18_2 1_555 1_555
C19_2 C18_2 1_555 1_555
H20_2 C19_2 1_555 1_555
C20_2 C15_2 1_555 1_555
N2_2 C9_2 1_555 1_555
H21_2 N2_2 1_555 1_555
N3_2 C11_2 1_555 1_555
O2_2 C20_2 1_555 1_555
Cl2_2 C17_2 1_555 1_555
Fe1_2 N1_2 1_555 1_555
C8_2 N1_2 1_555 1_555
C10_2 N2_2 1_555 1_555
C12_2 N3_2 1_555 1_555
C14_2 N4_2 1_555 1_555
C19_2 C20_2 1_555 1_555
N2_2 Fe1_2 1_555 1_555
N3_2 Fe1_2 1_555 1_555
N4_2 Fe1_2 1_555 1_555
O2_2 Fe1_2 1_555 1_555
C1_2 C2_2 1_555 1_555
C2_2 H1_2 1_555 1_555
C3_2 C2_2 1_555 1_555
H2_2 C3_2 1_555 1_555
C4_2 C3_2 1_555 1_555
C5_2 C4_2 1_555 1_555
C6_2 C1_2 1_555 1_555
C7_2 C6_2 1_555 1_555
H15_2 C13_2 1_555 1_555
H16_2 C13_2 1_555 1_555
O1_2 C1_2 1_555 1_555
C5_2 C6_2 1_555 1_555
C1_3 C2_3 1_555 1_555
C2_3 H1_3 1_555 1_555
C3_3 C2_3 1_555 1_555
H2_3 C3_3 1_555 1_555
C4_3 C3_3 1_555 1_555
C5_3 C4_3 1_555 1_555
H3_3 C5_3 1_555 1_555
C6_3 C1_3 1_555 1_555
C7_3 C6_3 1_555 1_555
H4_3 C7_3 1_555 1_555
C8_3 H5_3 1_555 1_555
H6_3 C8_3 1_555 1_555
C9_3 C8_3 1_555 1_555
H7_3 C9_3 1_555 1_555
H8_3 C9_3 1_555 1_555
C10_3 H9_3 1_555 1_555
H10_3 C10_3 1_555 1_555
C11_3 C10_3 1_555 1_555
H11_3 C11_3 1_555 1_555
H12_3 C11_3 1_555 1_555
C12_3 H13_3 1_555 1_555
H14_3 C12_3 1_555 1_555
C13_3 C12_3 1_555 1_555
H15_3 C13_3 1_555 1_555
H16_3 C13_3 1_555 1_555
C14_3 H17_3 1_555 1_555
C15_3 C14_3 1_555 1_555
C16_3 C15_3 1_555 1_555
C17_3 C16_3 1_555 1_555
C18_3 C17_3 1_555 1_555
H19_3 C18_3 1_555 1_555
C19_3 C18_3 1_555 1_555
H20_3 C19_3 1_555 1_555
C20_3 C15_3 1_555 1_555
N1_3 C7_3 1_555 1_555
N2_3 C9_3 1_555 1_555
H21_3 N2_3 1_555 1_555
N3_3 C11_3 1_555 1_555
H22_3 N3_3 1_555 1_555
N4_3 C13_3 1_555 1_555
O1_3 C1_3 1_555 1_555
O2_3 C20_3 1_555 1_555
Cl1_3 C4_3 1_555 1_555
Fe1_3 N1_3 1_555 1_555
C5_3 C6_3 1_555 1_555
C8_3 N1_3 1_555 1_555
C10_3 N2_3 1_555 1_555
C12_3 N3_3 1_555 1_555
C14_3 N4_3 1_555 1_555
C19_3 C20_3 1_555 1_555
N2_3 Fe1_3 1_555 1_555
N3_3 Fe1_3 1_555 1_555
N4_3 Fe1_3 1_555 1_555
O1_3 Fe1_3 1_555 1_555
O2_3 Fe1_3 1_555 1_555
H2_4 C3_4 1_555 1_555
C4_4 C3_4 1_555 1_555
C5_4 C4_4 1_555 1_555
H3_4 C5_4 1_555 1_555
Cl1_4 C4_4 1_555 1_555
C16_4 C15_4 1_555 1_555
C17_4 C16_4 1_555 1_555
C18_4 C17_4 1_555 1_555
H19_4 C18_4 1_555 1_555
C19_4 C18_4 1_555 1_555
H20_4 C19_4 1_555 1_555
C20_4 C15_4 1_555 1_555
O2_4 C20_4 1_555 1_555
C19_4 C20_4 1_555 1_555
C1_4 C2_4 1_555 1_555
C2_4 H1_4 1_555 1_555
C6_4 C1_4 1_555 1_555
C7_4 C6_4 1_555 1_555
H15_4 C13_4 1_555 1_555
H16_4 C13_4 1_555 1_555
O1_4 C1_4 1_555 1_555
C8_4 H5_4 1_555 1_555
H6_4 C8_4 1_555 1_555
C9_4 C8_4 1_555 1_555
H7_4 C9_4 1_555 1_555
H8_4 C9_4 1_555 1_555
C10_4 H9_4 1_555 1_555
H10_4 C10_4 1_555 1_555
C11_4 C10_4 1_555 1_555
H11_4 C11_4 1_555 1_555
H12_4 C11_4 1_555 1_555
C12_4 H13_4 1_555 1_555
C14_4 H17_4 1_555 1_555
N2_4 C9_4 1_555 1_555
H21_4 N2_4 1_555 1_555
N3_4 C11_4 1_555 1_555
Fe1_4 N1_4 1_555 1_555
C8_4 N1_4 1_555 1_555
C10_4 N2_4 1_555 1_555
C12_4 N3_4 1_555 1_555
C14_4 N4_4 1_555 1_555
N2_4 Fe1_4 1_555 1_555
N3_4 Fe1_4 1_555 1_555
N4_4 Fe1_4 1_555 1_555
O3 C21 1_555 1_555
Cr1 O3 1_555 1_555
O15 Cr1 1_555 1_555
O16 Cr1 1_555 1_555
O17 Cr1 1_555 1_555
O18 Cr1 1_555 1_555
C26 O13 1_555 1_555
O14 C26 1_555 1_555
O14 Cr3 1_555 1_555
O8 C23 1_555 1_555
Cr2 O8 1_555 1_555
O10 Cr2 1_555 1_555
C21_2 C22 1_555 1_555
C22 O4 1_555 1_555
C23_2 C24 1_555 1_555
C24 O9 1_555 1_555
O3_2 C21_2 1_555 1_555
O4 Cr1_2 1_555 1_555
O5 C21_2 1_555 1_555
O6 C22 1_555 1_555
O7 C23_2 1_555 1_555
O8_2 C23_2 1_555 1_555
O9 Mn1 1_555 1_555
O10_2 C24 1_555 1_555
O11 C25 1_555 1_555
O12 C25 1_555 1_555
Cr1_2 O3_2 1_555 1_555
Mn1 O5 1_555 1_555
O15_2 Cr1_2 1_555 1_555
O16_2 Cr1_2 1_555 1_555
O17_2 Cr1_2 1_555 1_555
O18_2 Cr1_2 1_555 1_555
Cr3 O8_2 1_555 1_555
O6 Mn1 1_555 1_555
O7 Mn1 1_555 1_555
O10_2 Cr3 1_555 1_555
O11 Mn1 1_555 1_555
C26_2 O13_2 1_555 1_555
O14_2 C26_2 1_555 1_555
O14_2 Cr2 1_555 1_555
C21_3 C22_2 1_555 1_555
C22_2 O4_2 1_555 1_555
C24_2 O9_2 1_555 1_555
C25_2 C26_3 1_555 1_555
C26_3 O13_3 1_555 1_555
O3_3 C21_3 1_555 1_555
O4_2 Cr2 1_555 1_555
O5_2 C21_3 1_555 1_555
O6_2 C22_2 1_555 1_555
O9_2 Mn1_2 1_555 1_555
O11_2 C25_2 1_555 1_555
O17_2 C25_2 1_555 1_555
O13_3 Mn1_2 1_555 1_555
O18_2 C26_3 1_555 1_555
Cr2 O3_3 1_555 1_555
Mn1_2 O5_2 1_555 1_555
O6_2 Mn1_2 1_555 1_555
O7_2 Mn1_2 1_555 1_555
O11_2 Mn1_2 1_555 1_555
O15 C23_3 1_555 1_555
C22_3 O4_3 1_555 1_555
C23_4 C24_3 1_555 1_555
C24_3 O9_3 1_555 1_555
C25_3 C26_4 1_555 1_555
C26_4 O13_4 1_555 1_555
O6_3 C22_3 1_555 1_555
O7_3 C23_4 1_555 1_555
O15_2 C23_4 1_555 1_555
O9_3 Mn1_3 1_555 1_555
O16_2 C24_3 1_555 1_555
O11_3 C25_3 1_555 1_555
O17 C25_3 1_555 1_555
O13_4 Mn1_3 1_555 1_555
O18 C26_4 1_555 1_555
Mn1_3 O5_3 1_555 1_555
O6_3 Mn1_3 1_555 1_555
O7_3 Mn1_3 1_555 1_555
O11_3 Mn1_3 1_555 1_555
O3_4 C21_4 1_555 1_555
Cr3 O3_4 1_555 1_555
C22_4 O4_4 1_555 1_555
C24_4 O9_4 1_555 1_555
O6_4 C22_4 1_555 1_555
O9_4 Mn1_4 1_555 1_555
O11_4 C25_4 1_555 1_555
O12_2 C25_4 1_555 1_555
Mn1_4 O5_4 1_555 1_555
O6_4 Mn1_4 1_555 1_555
O7_4 Mn1_4 1_555 1_555
O11_4 Mn1_4 1_555 1_555

#END
