
###############################################################################
#
# This file contains modified crystal structure data generated from the
# MOF subset of the Cambridge Structural Database (CSD) v543 
# hosted by the Cambridge Crystallographic Data Centre (CCDC).
#
# This work is licensed under the Creative Commons
# Attribution-NonCommercial-ShareAlike 4.0 International License.
# To view a copy of this license, visit
# http://creativecommons.org/licenses/by-nc-sa/4.0/
# or send a letter to
# Creative Commons, PO Box 1866, Mountain View, CA 94042, USA.
#
# CIF created using the CSD Python API on 29 September 2022
# The structure has been converted into the P1 space group
# The structure has a 3D framework
# The original CSD entry BAZFUF is in the cubic crystal system
# The framework has been calculated to contain at least 10.0% void space
# The void calculation uses a probe of radius 1.32A, grid spacing 0.4
# H atom positions have been added when not included in the experimental data
# Generated hydrogen atom positions removed from atoms on special positions
#
###############################################################################

data_BAZFUF
_chemical_formula_moiety         '(C216 H216 Cu24 O72)n'
_symmetry_cell_setting           triclinic
_symmetry_space_group_name_H-M   'P 1'
_symmetry_Int_Tables_number      1
_space_group_name_Hall           'P 1'
loop_
_symmetry_equiv_pos_site_id
_symmetry_equiv_pos_as_xyz
1 x,y,z
_cell_length_a                   27.4719(14)
_cell_length_b                   27.4719(14)
_cell_length_c                   27.4719(14)
_cell_angle_alpha                90
_cell_angle_beta                 90
_cell_angle_gamma                90
_cell_volume                     20733.2
loop_
_atom_site_label
_atom_site_type_symbol
_atom_site_fract_x
_atom_site_fract_y
_atom_site_fract_z
Cu5 Cu -0.0000 0.5000 0.20203(2)
Cu6 Cu -0.0000 0.5000 0.29797(2)
O32 O 0.05017(6) 0.44994(6) 0.20914(6)
O33 O 0.05017(6) 0.55006(6) 0.20914(6)
O35 O 0.05006(6) 0.44983(6) 0.29086(6)
O37 O 0.05006(6) 0.55017(6) 0.29086(6)
O41 O -0.0000 0.5000 0.12305(14)
O42 O -0.0000 0.5000 0.37695(14)
Cu13 Cu -0.0000 0.5000 0.79797(2)
Cu14 Cu -0.0000 0.5000 0.70203(2)
Cu3 Cu 0.79797(2) -0.0000 0.5000
Cu4 Cu 0.70203(2) -0.0000 0.5000
Cu15 Cu 0.20203(2) -0.0000 0.5000
Cu16 Cu 0.29797(2) -0.0000 0.5000
O26 O 0.79086(6) 0.05017(6) 0.55006(6)
O27 O 0.79086(6) 0.05017(6) 0.44994(6)
O29 O 0.70914(6) 0.05006(6) 0.55017(6)
O31 O 0.70914(6) 0.05006(6) 0.44983(6)
O39 O 0.87695(14) -0.0000 0.5000
O40 O 0.62305(14) -0.0000 0.5000
Cu1 Cu 0.5000 0.79797(2) 0.0000
O1 O 0.55006(6) 0.79086(6) 0.05017(6)
O2 O 0.5000 0.87695(14) 0.0000
C1 C 0.56441(9) 0.7500 0.06441(9)
C2 C 0.60355(9) 0.7500 0.10355(9)
C3 C 0.62110(11) 0.79280(10) 0.12188(11)
H1 H 0.6089 0.8221 0.1103
C4 C 0.65718(11) 0.79321(10) 0.15786(12)
H2 H 0.6688 0.8227 0.1698
C5 C 0.67564(9) 0.7500 0.17564(9)
C6 C 0.71407(9) 0.7500 0.21407(9)
C7 C 0.71420(10) 0.78580(10) 0.2500
H3 H 0.6903 0.8097 0.2500
Cu2 Cu 0.5000 0.70203(2) 0.0000
Cu3_2 Cu 0.79797(2) 1.0000 0.5000
Cu4_2 Cu 0.70203(2) 1.0000 0.5000
Cu5_2 Cu 1.0000 0.5000 0.20203(2)
Cu6_2 Cu 1.0000 0.5000 0.29797(2)
Cu15_2 Cu 0.20203(2) 1.0000 0.5000
Cu16_2 Cu 0.29797(2) 1.0000 0.5000
O3 O 0.55017(6) 0.70914(6) 0.05006(6)
O4 O 0.79086(6) 0.94983(6) 0.44994(6)
O5 O 0.70914(6) 0.94994(6) 0.44983(6)
O6 O 0.94983(6) 0.55006(6) 0.20914(6)
O7 O 0.94994(6) 0.55017(6) 0.29086(6)
O20 O 0.44994(6) 0.79086(6) 0.05017(6)
O21 O 0.44983(6) 0.70914(6) 0.05006(6)
O22 O 0.20914(6) 0.94983(6) 0.44994(6)
O23 O 0.29086(6) 0.94994(6) 0.44983(6)
O28 O 0.79086(6) 0.94983(6) 0.55006(6)
O30 O 0.70914(6) 0.94994(6) 0.55017(6)
O34 O 0.94983(6) 0.44994(6) 0.20914(6)
O36 O 0.94994(6) 0.44983(6) 0.29086(6)
O38 O 0.5000 0.62305(14) 0.0000
O39_2 O 0.87695(14) 1.0000 0.5000
O40_2 O 0.62305(14) 1.0000 0.5000
O41_2 O 1.0000 0.5000 0.12305(14)
O42_2 O 1.0000 0.5000 0.37695(14)
C8 C 0.7500 0.93559(9) 0.43559(9)
C9 C 0.93559(9) 0.56441(9) 0.2500
C16 C 0.43559(9) 0.7500 0.06441(9)
C17 C 0.2500 0.93559(9) 0.43559(9)
C18 C 0.06441(9) 0.56441(9) 0.2500
C19 C 0.7500 0.89645(9) 0.39645(9)
C20 C 0.89645(9) 0.60355(9) 0.2500
C27 C 0.39645(9) 0.7500 0.10355(9)
C28 C 0.2500 0.89645(9) 0.39645(9)
C29 C 0.10355(9) 0.60355(9) 0.2500
C30 C 0.62188(11) 0.70720(10) 0.12110(11)
C31 C 0.79280(10) 0.87812(11) 0.37890(11)
C32 C 0.70720(10) 0.87890(11) 0.37812(11)
C33 C 0.87812(11) 0.62110(11) 0.20720(10)
C34 C 0.87890(11) 0.62188(11) 0.29280(10)
C47 C 0.37890(11) 0.79280(10) 0.12188(11)
C48 C 0.37812(11) 0.70720(10) 0.12110(11)
C49 C 0.20720(10) 0.87812(11) 0.37890(11)
C50 C 0.29280(10) 0.87890(11) 0.37812(11)
C51 C 0.12188(11) 0.62110(11) 0.20720(10)
C52 C 0.12110(11) 0.62188(11) 0.29280(10)
H4 H 0.6103 0.6779 0.1089
H5 H 0.6779 0.8911 0.3897
H6 H 0.8221 0.8897 0.3911
H7 H 0.8911 0.6103 0.3221
H8 H 0.8897 0.6089 0.1779
H21 H 0.3911 0.8221 0.1103
H22 H 0.3897 0.6779 0.1089
H23 H 0.3221 0.8911 0.3897
H24 H 0.1779 0.8897 0.3911
H25 H 0.1089 0.6103 0.3221
H26 H 0.1103 0.6089 0.1779
C53 C 0.65786(12) 0.70679(10) 0.15718(11)
C54 C 0.79321(10) 0.84214(12) 0.34282(11)
C55 C 0.70679(10) 0.84282(11) 0.34214(12)
C56 C 0.84214(12) 0.65718(11) 0.20679(10)
C57 C 0.84282(11) 0.65786(12) 0.29321(10)
C70 C 0.34282(11) 0.79321(10) 0.15786(12)
C71 C 0.34214(12) 0.70679(10) 0.15718(11)
C72 C 0.20679(10) 0.84214(12) 0.34282(11)
C73 C 0.29321(10) 0.84282(11) 0.34214(12)
C74 C 0.15786(12) 0.65718(11) 0.20679(10)
C75 C 0.15718(11) 0.65786(12) 0.29321(10)
H27 H 0.6698 0.6773 0.1688
H28 H 0.6773 0.8312 0.3302
H29 H 0.8227 0.8302 0.3312
H30 H 0.8312 0.6698 0.3227
H31 H 0.8302 0.6688 0.1773
H44 H 0.3312 0.8227 0.1698
H45 H 0.3302 0.6773 0.1688
H46 H 0.3227 0.8312 0.3302
H47 H 0.1773 0.8302 0.3312
H48 H 0.1688 0.6698 0.3227
H49 H 0.1698 0.6688 0.1773
C76 C 0.7500 0.82436(9) 0.32436(9)
C77 C 0.82436(9) 0.67564(9) 0.2500
C84 C 0.32436(9) 0.7500 0.17564(9)
C85 C 0.2500 0.82436(9) 0.32436(9)
C86 C 0.17564(9) 0.67564(9) 0.2500
C87 C 0.7500 0.78593(9) 0.28593(9)
C88 C 0.78593(9) 0.71407(9) 0.2500
C95 C 0.28593(9) 0.7500 0.21407(9)
C96 C 0.2500 0.78593(9) 0.28593(9)
C97 C 0.21407(9) 0.71407(9) 0.2500
C98 C 0.78580(10) 0.7500 0.28580(10)
C99 C 0.7500 0.71420(10) 0.21420(10)
C106 C 0.28580(10) 0.78580(10) 0.2500
C107 C 0.21420(10) 0.7500 0.28580(10)
C108 C 0.2500 0.71420(10) 0.21420(10)
H50 H 0.7500 0.6903 0.1903
H51 H 0.8097 0.7500 0.3097
H58 H 0.3097 0.8097 0.2500
H59 H 0.2500 0.6903 0.1903
H60 H 0.1903 0.7500 0.3097
Cu1_2 Cu 0.5000 0.79797(2) 1.0000
O2_2 O 0.5000 0.87695(14) 1.0000
Cu2_2 Cu 0.5000 0.70203(2) 1.0000
Cu13_2 Cu 1.0000 0.5000 0.79797(2)
Cu14_2 Cu 1.0000 0.5000 0.70203(2)
O8 O 0.44994(6) 0.79086(6) 0.94983(6)
O9 O 0.44983(6) 0.70914(6) 0.94994(6)
O10 O 0.20914(6) 0.94983(6) 0.55006(6)
O11 O 0.29086(6) 0.94994(6) 0.55017(6)
O12 O 0.05017(6) 0.55006(6) 0.79086(6)
O13 O 0.05006(6) 0.55017(6) 0.70914(6)
O14 O 0.55006(6) 0.79086(6) 0.94983(6)
O15 O 0.55017(6) 0.70914(6) 0.94994(6)
O18 O 0.94983(6) 0.55006(6) 0.79086(6)
O19 O 0.94994(6) 0.55017(6) 0.70914(6)
O38_2 O 0.5000 0.62305(14) 1.0000
C10 C 0.43559(9) 0.7500 0.93559(9)
C11 C 0.2500 0.93559(9) 0.56441(9)
C12 C 0.06441(9) 0.56441(9) 0.7500
C13 C 0.56441(9) 0.7500 0.93559(9)
C14 C 0.7500 0.93559(9) 0.56441(9)
C15 C 0.93559(9) 0.56441(9) 0.7500
C21 C 0.39645(9) 0.7500 0.89645(9)
C22 C 0.2500 0.89645(9) 0.60355(9)
C23 C 0.10355(9) 0.60355(9) 0.7500
C24 C 0.60355(9) 0.7500 0.89645(9)
C25 C 0.7500 0.89645(9) 0.60355(9)
C26 C 0.89645(9) 0.60355(9) 0.7500
C35 C 0.37890(11) 0.79280(10) 0.87812(11)
C36 C 0.37812(11) 0.70720(10) 0.87890(11)
C37 C 0.20720(10) 0.87812(11) 0.62110(11)
C38 C 0.29280(10) 0.87890(11) 0.62188(11)
C39 C 0.12188(11) 0.62110(11) 0.79280(10)
C40 C 0.12110(11) 0.62188(11) 0.70720(10)
C41 C 0.62110(11) 0.79280(10) 0.87812(11)
C42 C 0.62188(11) 0.70720(10) 0.87890(11)
C43 C 0.79280(10) 0.87812(11) 0.62110(11)
C44 C 0.70720(10) 0.87890(11) 0.62188(11)
C45 C 0.87812(11) 0.62110(11) 0.79280(10)
C46 C 0.87890(11) 0.62188(11) 0.70720(10)
H9 H 0.3911 0.8221 0.8897
H10 H 0.3897 0.6779 0.8911
H11 H 0.3221 0.8911 0.6103
H12 H 0.1779 0.8897 0.6089
H13 H 0.1089 0.6103 0.6779
H14 H 0.1103 0.6089 0.8221
H15 H 0.6089 0.8221 0.8897
H16 H 0.6103 0.6779 0.8911
H17 H 0.6779 0.8911 0.6103
H18 H 0.8221 0.8897 0.6089
H19 H 0.8911 0.6103 0.6779
H20 H 0.8897 0.6089 0.8221
C58 C 0.34282(11) 0.79321(10) 0.84214(12)
C59 C 0.34214(12) 0.70679(10) 0.84282(11)
C60 C 0.20679(10) 0.84214(12) 0.65718(11)
C61 C 0.29321(10) 0.84282(11) 0.65786(12)
C62 C 0.15786(12) 0.65718(11) 0.79321(10)
C63 C 0.15718(11) 0.65786(12) 0.70679(10)
C64 C 0.65718(11) 0.79321(10) 0.84214(12)
C65 C 0.65786(12) 0.70679(10) 0.84282(11)
C66 C 0.79321(10) 0.84214(12) 0.65718(11)
C67 C 0.70679(10) 0.84282(11) 0.65786(12)
C68 C 0.84214(12) 0.65718(11) 0.79321(10)
C69 C 0.84282(11) 0.65786(12) 0.70679(10)
H32 H 0.3312 0.8227 0.8302
H33 H 0.3302 0.6773 0.8312
H34 H 0.3227 0.8312 0.6698
H35 H 0.1773 0.8302 0.6688
H36 H 0.1688 0.6698 0.6773
H37 H 0.1698 0.6688 0.8227
H38 H 0.6688 0.8227 0.8302
H39 H 0.6698 0.6773 0.8312
H40 H 0.6773 0.8312 0.6698
H41 H 0.8227 0.8302 0.6688
H42 H 0.8312 0.6698 0.6773
H43 H 0.8302 0.6688 0.8227
C78 C 0.32436(9) 0.7500 0.82436(9)
C79 C 0.2500 0.82436(9) 0.67564(9)
C80 C 0.17564(9) 0.67564(9) 0.7500
C81 C 0.67564(9) 0.7500 0.82436(9)
C82 C 0.7500 0.82436(9) 0.67564(9)
C83 C 0.82436(9) 0.67564(9) 0.7500
C89 C 0.28593(9) 0.7500 0.78593(9)
C90 C 0.2500 0.78593(9) 0.71407(9)
C91 C 0.21407(9) 0.71407(9) 0.7500
C92 C 0.71407(9) 0.7500 0.78593(9)
C93 C 0.7500 0.78593(9) 0.71407(9)
C94 C 0.78593(9) 0.71407(9) 0.7500
C100 C 0.28580(10) 0.78580(10) 0.7500
C101 C 0.21420(10) 0.7500 0.71420(10)
C102 C 0.2500 0.71420(10) 0.78580(10)
C103 C 0.71420(10) 0.78580(10) 0.7500
C104 C 0.78580(10) 0.7500 0.71420(10)
C105 C 0.7500 0.71420(10) 0.78580(10)
H52 H 0.3097 0.8097 0.7500
H53 H 0.2500 0.6903 0.8097
H54 H 0.1903 0.7500 0.6903
H55 H 0.6903 0.8097 0.7500
H56 H 0.7500 0.6903 0.8097
H57 H 0.8097 0.7500 0.6903
Cu1_3 Cu 0.5000 0.20203(2) 0.0000
O1_2 O 0.44994(6) 0.20914(6) 0.05017(6)
O2_3 O 0.5000 0.12305(14) 0.0000
C1_2 C 0.43559(9) 0.2500 0.06441(9)
C2_2 C 0.39645(9) 0.2500 0.10355(9)
C3_2 C 0.37890(11) 0.20720(10) 0.12188(11)
H1_2 H 0.3911 0.1779 0.1103
C4_2 C 0.34282(11) 0.20679(10) 0.15786(12)
H2_2 H 0.3312 0.1773 0.1698
C5_2 C 0.32436(9) 0.2500 0.17564(9)
C6_2 C 0.28593(9) 0.2500 0.21407(9)
C7_2 C 0.28580(10) 0.21420(10) 0.2500
H3_2 H 0.3097 0.1903 0.2500
Cu2_3 Cu 0.5000 0.29797(2) 0.0000
O3_2 O 0.44983(6) 0.29086(6) 0.05006(6)
O4_2 O 0.20914(6) 0.05017(6) 0.44994(6)
O5_2 O 0.29086(6) 0.05006(6) 0.44983(6)
O20_2 O 0.55006(6) 0.20914(6) 0.05017(6)
O21_2 O 0.55017(6) 0.29086(6) 0.05006(6)
O28_2 O 0.20914(6) 0.05017(6) 0.55006(6)
O30_2 O 0.29086(6) 0.05006(6) 0.55017(6)
O38_3 O 0.5000 0.37695(14) 0.0000
O39_3 O 0.12305(14) 0.0000 0.5000
O40_3 O 0.37695(14) 0.0000 0.5000
C8_2 C 0.2500 0.06441(9) 0.43559(9)
C9_2 C 0.06441(9) 0.43559(9) 0.2500
C16_2 C 0.56441(9) 0.2500 0.06441(9)
C17_2 C 0.7500 0.06441(9) 0.43559(9)
C18_2 C 0.93559(9) 0.43559(9) 0.2500
C19_2 C 0.2500 0.10355(9) 0.39645(9)
C20_2 C 0.10355(9) 0.39645(9) 0.2500
C27_2 C 0.60355(9) 0.2500 0.10355(9)
C28_2 C 0.7500 0.10355(9) 0.39645(9)
C29_2 C 0.89645(9) 0.39645(9) 0.2500
C30_2 C 0.37812(11) 0.29280(10) 0.12110(11)
C31_2 C 0.20720(10) 0.12188(11) 0.37890(11)
C32_2 C 0.29280(10) 0.12110(11) 0.37812(11)
C33_2 C 0.12188(11) 0.37890(11) 0.20720(10)
C34_2 C 0.12110(11) 0.37812(11) 0.29280(10)
C47_2 C 0.62110(11) 0.20720(10) 0.12188(11)
C48_2 C 0.62188(11) 0.29280(10) 0.12110(11)
C49_2 C 0.79280(10) 0.12188(11) 0.37890(11)
C50_2 C 0.70720(10) 0.12110(11) 0.37812(11)
C51_2 C 0.87812(11) 0.37890(11) 0.20720(10)
C52_2 C 0.87890(11) 0.37812(11) 0.29280(10)
H4_2 H 0.3897 0.3221 0.1089
H5_2 H 0.3221 0.1089 0.3897
H6_2 H 0.1779 0.1103 0.3911
H7_2 H 0.1089 0.3897 0.3221
H8_2 H 0.1103 0.3911 0.1779
H21_2 H 0.6089 0.1779 0.1103
H22_2 H 0.6103 0.3221 0.1089
H23_2 H 0.6779 0.1089 0.3897
H24_2 H 0.8221 0.1103 0.3911
H25_2 H 0.8911 0.3897 0.3221
H26_2 H 0.8897 0.3911 0.1779
C53_2 C 0.34214(12) 0.29321(10) 0.15718(11)
C54_2 C 0.20679(10) 0.15786(12) 0.34282(11)
C55_2 C 0.29321(10) 0.15718(11) 0.34214(12)
C56_2 C 0.15786(12) 0.34282(11) 0.20679(10)
C57_2 C 0.15718(11) 0.34214(12) 0.29321(10)
C70_2 C 0.65718(11) 0.20679(10) 0.15786(12)
C71_2 C 0.65786(12) 0.29321(10) 0.15718(11)
C72_2 C 0.79321(10) 0.15786(12) 0.34282(11)
C73_2 C 0.70679(10) 0.15718(11) 0.34214(12)
C74_2 C 0.84214(12) 0.34282(11) 0.20679(10)
C75_2 C 0.84282(11) 0.34214(12) 0.29321(10)
H27_2 H 0.3302 0.3227 0.1688
H28_2 H 0.3227 0.1688 0.3302
H29_2 H 0.1773 0.1698 0.3312
H30_2 H 0.1688 0.3302 0.3227
H31_2 H 0.1698 0.3312 0.1773
H44_2 H 0.6688 0.1773 0.1698
H45_2 H 0.6698 0.3227 0.1688
H46_2 H 0.6773 0.1688 0.3302
H47_2 H 0.8227 0.1698 0.3312
H48_2 H 0.8312 0.3302 0.3227
H49_2 H 0.8302 0.3312 0.1773
C76_2 C 0.2500 0.17564(9) 0.32436(9)
C77_2 C 0.17564(9) 0.32436(9) 0.2500
C84_2 C 0.67564(9) 0.2500 0.17564(9)
C85_2 C 0.7500 0.17564(9) 0.32436(9)
C86_2 C 0.82436(9) 0.32436(9) 0.2500
C87_2 C 0.2500 0.21407(9) 0.28593(9)
C88_2 C 0.21407(9) 0.28593(9) 0.2500
C95_2 C 0.71407(9) 0.2500 0.21407(9)
C96_2 C 0.7500 0.21407(9) 0.28593(9)
C97_2 C 0.78593(9) 0.28593(9) 0.2500
C98_2 C 0.21420(10) 0.2500 0.28580(10)
C99_2 C 0.2500 0.28580(10) 0.21420(10)
C106_2 C 0.71420(10) 0.21420(10) 0.2500
C107_2 C 0.78580(10) 0.2500 0.28580(10)
C108_2 C 0.7500 0.28580(10) 0.21420(10)
H50_2 H 0.2500 0.3097 0.1903
H51_2 H 0.1903 0.2500 0.3097
H58_2 H 0.6903 0.1903 0.2500
H59_2 H 0.7500 0.3097 0.1903
H60_2 H 0.8097 0.2500 0.3097
Cu1_4 Cu 0.5000 0.20203(2) 1.0000
O2_4 O 0.5000 0.12305(14) 1.0000
Cu2_4 Cu 0.5000 0.29797(2) 1.0000
O8_2 O 0.55006(6) 0.20914(6) 0.94983(6)
O9_2 O 0.55017(6) 0.29086(6) 0.94994(6)
O12_2 O 0.94983(6) 0.44994(6) 0.79086(6)
O13_2 O 0.94994(6) 0.44983(6) 0.70914(6)
O14_2 O 0.44994(6) 0.20914(6) 0.94983(6)
O15_2 O 0.44983(6) 0.29086(6) 0.94994(6)
O18_2 O 0.05017(6) 0.44994(6) 0.79086(6)
O19_2 O 0.05006(6) 0.44983(6) 0.70914(6)
O38_4 O 0.5000 0.37695(14) 1.0000
C10_2 C 0.56441(9) 0.2500 0.93559(9)
C11_2 C 0.7500 0.06441(9) 0.56441(9)
C12_2 C 0.93559(9) 0.43559(9) 0.7500
C13_2 C 0.43559(9) 0.2500 0.93559(9)
C14_2 C 0.2500 0.06441(9) 0.56441(9)
C15_2 C 0.06441(9) 0.43559(9) 0.7500
C21_2 C 0.60355(9) 0.2500 0.89645(9)
C22_2 C 0.7500 0.10355(9) 0.60355(9)
C23_2 C 0.89645(9) 0.39645(9) 0.7500
C24_2 C 0.39645(9) 0.2500 0.89645(9)
C25_2 C 0.2500 0.10355(9) 0.60355(9)
C26_2 C 0.10355(9) 0.39645(9) 0.7500
C35_2 C 0.62110(11) 0.20720(10) 0.87812(11)
C36_2 C 0.62188(11) 0.29280(10) 0.87890(11)
C37_2 C 0.79280(10) 0.12188(11) 0.62110(11)
C38_2 C 0.70720(10) 0.12110(11) 0.62188(11)
C39_2 C 0.87812(11) 0.37890(11) 0.79280(10)
C40_2 C 0.87890(11) 0.37812(11) 0.70720(10)
C41_2 C 0.37890(11) 0.20720(10) 0.87812(11)
C42_2 C 0.37812(11) 0.29280(10) 0.87890(11)
C43_2 C 0.20720(10) 0.12188(11) 0.62110(11)
C44_2 C 0.29280(10) 0.12110(11) 0.62188(11)
C45_2 C 0.12188(11) 0.37890(11) 0.79280(10)
C46_2 C 0.12110(11) 0.37812(11) 0.70720(10)
H9_2 H 0.6089 0.1779 0.8897
H10_2 H 0.6103 0.3221 0.8911
H11_2 H 0.6779 0.1089 0.6103
H12_2 H 0.8221 0.1103 0.6089
H13_2 H 0.8911 0.3897 0.6779
H14_2 H 0.8897 0.3911 0.8221
H15_2 H 0.3911 0.1779 0.8897
H16_2 H 0.3897 0.3221 0.8911
H17_2 H 0.3221 0.1089 0.6103
H18_2 H 0.1779 0.1103 0.6089
H19_2 H 0.1089 0.3897 0.6779
H20_2 H 0.1103 0.3911 0.8221
C58_2 C 0.65718(11) 0.20679(10) 0.84214(12)
C59_2 C 0.65786(12) 0.29321(10) 0.84282(11)
C60_2 C 0.79321(10) 0.15786(12) 0.65718(11)
C61_2 C 0.70679(10) 0.15718(11) 0.65786(12)
C62_2 C 0.84214(12) 0.34282(11) 0.79321(10)
C63_2 C 0.84282(11) 0.34214(12) 0.70679(10)
C64_2 C 0.34282(11) 0.20679(10) 0.84214(12)
C65_2 C 0.34214(12) 0.29321(10) 0.84282(11)
C66_2 C 0.20679(10) 0.15786(12) 0.65718(11)
C67_2 C 0.29321(10) 0.15718(11) 0.65786(12)
C68_2 C 0.15786(12) 0.34282(11) 0.79321(10)
C69_2 C 0.15718(11) 0.34214(12) 0.70679(10)
H32_2 H 0.6688 0.1773 0.8302
H33_2 H 0.6698 0.3227 0.8312
H34_2 H 0.6773 0.1688 0.6698
H35_2 H 0.8227 0.1698 0.6688
H36_2 H 0.8312 0.3302 0.6773
H37_2 H 0.8302 0.3312 0.8227
H38_2 H 0.3312 0.1773 0.8302
H39_2 H 0.3302 0.3227 0.8312
H40_2 H 0.3227 0.1688 0.6698
H41_2 H 0.1773 0.1698 0.6688
H42_2 H 0.1688 0.3302 0.6773
H43_2 H 0.1698 0.3312 0.8227
C78_2 C 0.67564(9) 0.2500 0.82436(9)
C79_2 C 0.7500 0.17564(9) 0.67564(9)
C80_2 C 0.82436(9) 0.32436(9) 0.7500
C81_2 C 0.32436(9) 0.2500 0.82436(9)
C82_2 C 0.2500 0.17564(9) 0.67564(9)
C83_2 C 0.17564(9) 0.32436(9) 0.7500
C89_2 C 0.71407(9) 0.2500 0.78593(9)
C90_2 C 0.7500 0.21407(9) 0.71407(9)
C91_2 C 0.78593(9) 0.28593(9) 0.7500
C92_2 C 0.28593(9) 0.2500 0.78593(9)
C93_2 C 0.2500 0.21407(9) 0.71407(9)
C94_2 C 0.21407(9) 0.28593(9) 0.7500
C100_2 C 0.71420(10) 0.21420(10) 0.7500
C101_2 C 0.78580(10) 0.2500 0.71420(10)
C102_2 C 0.7500 0.28580(10) 0.78580(10)
C103_2 C 0.28580(10) 0.21420(10) 0.7500
C104_2 C 0.21420(10) 0.2500 0.71420(10)
C105_2 C 0.2500 0.28580(10) 0.78580(10)
H52_2 H 0.6903 0.1903 0.7500
H53_2 H 0.7500 0.3097 0.8097
H54_2 H 0.8097 0.2500 0.6903
H55_2 H 0.3097 0.1903 0.7500
H56_2 H 0.2500 0.3097 0.8097
H57_2 H 0.1903 0.2500 0.6903
O39_4 O 0.12305(14) 1.0000 0.5000
O40_4 O 0.37695(14) 1.0000 0.5000
O41_3 O 0.0000 0.5000 0.87695(14)
O42_3 O 0.0000 0.5000 0.62305(14)
O41_4 O 1.0000 0.5000 0.87695(14)
O42_4 O 1.0000 0.5000 0.62305(14)
loop_
_geom_bond_atom_site_label_1
_geom_bond_atom_site_label_2
_geom_bond_site_symmetry_1
_geom_bond_site_symmetry_2
O32 Cu5 1_555 1_555
O33 Cu5 1_555 1_555
O35 Cu6 1_555 1_555
O37 Cu6 1_555 1_555
O41 Cu5 1_555 1_555
O42 Cu6 1_555 1_555
O26 Cu3 1_555 1_555
O27 Cu3 1_555 1_555
O29 Cu4 1_555 1_555
O31 Cu4 1_555 1_555
O39 Cu3 1_555 1_555
O40 Cu4 1_555 1_555
Cu1 O1 1_555 1_555
O1 C1 1_555 1_555
O2 Cu1 1_555 1_555
C1 C2 1_555 1_555
C2 C3 1_555 1_555
C3 H1 1_555 1_555
C4 C3 1_555 1_555
H2 C4 1_555 1_555
C5 C4 1_555 1_555
C6 C5 1_555 1_555
C7 C6 1_555 1_555
H3 C7 1_555 1_555
Cu2 O3 1_555 1_555
Cu3_2 O4 1_555 1_555
Cu4_2 O5 1_555 1_555
Cu5_2 O6 1_555 1_555
Cu6_2 O7 1_555 1_555
Cu15_2 O22 1_555 1_555
Cu16_2 O23 1_555 1_555
O3 C1 1_555 1_555
O4 C8 1_555 1_555
O5 C8 1_555 1_555
O6 C9 1_555 1_555
O7 C9 1_555 1_555
O20 Cu1 1_555 1_555
O21 Cu2 1_555 1_555
O22 C17 1_555 1_555
O23 C17 1_555 1_555
O33 C18 1_555 1_555
O37 C18 1_555 1_555
O28 Cu3_2 1_555 1_555
O30 Cu4_2 1_555 1_555
O34 Cu5_2 1_555 1_555
O36 Cu6_2 1_555 1_555
O38 Cu2 1_555 1_555
O39_2 Cu3_2 1_555 1_555
O40_2 Cu4_2 1_555 1_555
O41_2 Cu5_2 1_555 1_555
O42_2 Cu6_2 1_555 1_555
C8 C19 1_555 1_555
C9 C20 1_555 1_555
C16 O20 1_555 1_555
C17 C28 1_555 1_555
C18 C29 1_555 1_555
C19 C31 1_555 1_555
C20 C33 1_555 1_555
C27 C16 1_555 1_555
C28 C49 1_555 1_555
C29 C51 1_555 1_555
C30 C2 1_555 1_555
C31 H6 1_555 1_555
C32 C19 1_555 1_555
C33 H8 1_555 1_555
C34 C20 1_555 1_555
C47 C27 1_555 1_555
C48 C27 1_555 1_555
C49 H24 1_555 1_555
C50 C28 1_555 1_555
C51 H26 1_555 1_555
C52 C29 1_555 1_555
H4 C30 1_555 1_555
H5 C32 1_555 1_555
H7 C34 1_555 1_555
H21 C47 1_555 1_555
H22 C48 1_555 1_555
H23 C50 1_555 1_555
H25 C52 1_555 1_555
C53 C5 1_555 1_555
C54 C31 1_555 1_555
C55 C32 1_555 1_555
C56 C33 1_555 1_555
C57 C34 1_555 1_555
C70 C47 1_555 1_555
C71 C48 1_555 1_555
C72 C49 1_555 1_555
C73 C50 1_555 1_555
C74 C51 1_555 1_555
C75 C52 1_555 1_555
H27 C53 1_555 1_555
H28 C55 1_555 1_555
H29 C54 1_555 1_555
H30 C57 1_555 1_555
H31 C56 1_555 1_555
H44 C70 1_555 1_555
H45 C71 1_555 1_555
H46 C73 1_555 1_555
H47 C72 1_555 1_555
H48 C75 1_555 1_555
H49 C74 1_555 1_555
C76 C54 1_555 1_555
C77 C56 1_555 1_555
C84 C70 1_555 1_555
C85 C72 1_555 1_555
C86 C74 1_555 1_555
C87 C7 1_555 1_555
C88 C77 1_555 1_555
C95 C84 1_555 1_555
C96 C85 1_555 1_555
C97 C86 1_555 1_555
C98 C87 1_555 1_555
C99 C6 1_555 1_555
C106 C95 1_555 1_555
C107 C96 1_555 1_555
C108 C95 1_555 1_555
H50 C99 1_555 1_555
H51 C98 1_555 1_555
H58 C106 1_555 1_555
H59 C108 1_555 1_555
H60 C107 1_555 1_555
O21 C16 1_555 1_555
C30 C53 1_555 1_555
C55 C76 1_555 1_555
C57 C77 1_555 1_555
C71 C84 1_555 1_555
C73 C85 1_555 1_555
C75 C86 1_555 1_555
C76 C87 1_555 1_555
C88 C98 1_555 1_555
C88 C99 1_555 1_555
C96 C106 1_555 1_555
C97 C107 1_555 1_555
C97 C108 1_555 1_555
O2_2 Cu1_2 1_555 1_555
Cu15_2 O10 1_555 1_555
Cu16_2 O11 1_555 1_555
Cu13 O12 1_555 1_555
Cu14 O13 1_555 1_555
Cu13_2 O18 1_555 1_555
Cu14_2 O19 1_555 1_555
O8 Cu1_2 1_555 1_555
O9 Cu2_2 1_555 1_555
O10 C11 1_555 1_555
O11 C11 1_555 1_555
O12 C12 1_555 1_555
O13 C12 1_555 1_555
O14 Cu1_2 1_555 1_555
O15 Cu2_2 1_555 1_555
O28 C14 1_555 1_555
O30 C14 1_555 1_555
O18 C15 1_555 1_555
O19 C15 1_555 1_555
O38_2 Cu2_2 1_555 1_555
C10 O8 1_555 1_555
C11 C22 1_555 1_555
C12 C23 1_555 1_555
C13 O14 1_555 1_555
C14 C25 1_555 1_555
C15 C26 1_555 1_555
C21 C10 1_555 1_555
C22 C37 1_555 1_555
C23 C39 1_555 1_555
C24 C13 1_555 1_555
C25 C43 1_555 1_555
C26 C45 1_555 1_555
C35 C21 1_555 1_555
C36 C21 1_555 1_555
C37 H12 1_555 1_555
C38 C22 1_555 1_555
C39 H14 1_555 1_555
C40 C23 1_555 1_555
C41 C24 1_555 1_555
C42 C24 1_555 1_555
C43 H18 1_555 1_555
C44 C25 1_555 1_555
C45 H20 1_555 1_555
C46 C26 1_555 1_555
H9 C35 1_555 1_555
H10 C36 1_555 1_555
H11 C38 1_555 1_555
H13 C40 1_555 1_555
H15 C41 1_555 1_555
H16 C42 1_555 1_555
H17 C44 1_555 1_555
H19 C46 1_555 1_555
C58 C35 1_555 1_555
C59 C36 1_555 1_555
C60 C37 1_555 1_555
C61 C38 1_555 1_555
C62 C39 1_555 1_555
C63 C40 1_555 1_555
C64 C41 1_555 1_555
C65 C42 1_555 1_555
C66 C43 1_555 1_555
C67 C44 1_555 1_555
C68 C45 1_555 1_555
C69 C46 1_555 1_555
H32 C58 1_555 1_555
H33 C59 1_555 1_555
H34 C61 1_555 1_555
H35 C60 1_555 1_555
H36 C63 1_555 1_555
H37 C62 1_555 1_555
H38 C64 1_555 1_555
H39 C65 1_555 1_555
H40 C67 1_555 1_555
H41 C66 1_555 1_555
H42 C69 1_555 1_555
H43 C68 1_555 1_555
C78 C58 1_555 1_555
C79 C60 1_555 1_555
C80 C62 1_555 1_555
C81 C64 1_555 1_555
C82 C66 1_555 1_555
C83 C68 1_555 1_555
C89 C78 1_555 1_555
C90 C79 1_555 1_555
C91 C80 1_555 1_555
C92 C81 1_555 1_555
C93 C82 1_555 1_555
C94 C83 1_555 1_555
C100 C89 1_555 1_555
C101 C90 1_555 1_555
C102 C89 1_555 1_555
C103 C92 1_555 1_555
C104 C93 1_555 1_555
C105 C92 1_555 1_555
H52 C100 1_555 1_555
H53 C102 1_555 1_555
H54 C101 1_555 1_555
H55 C103 1_555 1_555
H56 C105 1_555 1_555
H57 C104 1_555 1_555
O9 C10 1_555 1_555
O15 C13 1_555 1_555
C59 C78 1_555 1_555
C61 C79 1_555 1_555
C63 C80 1_555 1_555
C65 C81 1_555 1_555
C67 C82 1_555 1_555
C69 C83 1_555 1_555
C90 C100 1_555 1_555
C91 C101 1_555 1_555
C91 C102 1_555 1_555
C93 C103 1_555 1_555
C94 C104 1_555 1_555
C94 C105 1_555 1_555
Cu1_3 O1_2 1_555 1_555
O1_2 C1_2 1_555 1_555
O2_3 Cu1_3 1_555 1_555
C1_2 C2_2 1_555 1_555
C2_2 C3_2 1_555 1_555
C3_2 H1_2 1_555 1_555
C4_2 C3_2 1_555 1_555
H2_2 C4_2 1_555 1_555
C5_2 C4_2 1_555 1_555
C6_2 C5_2 1_555 1_555
C7_2 C6_2 1_555 1_555
H3_2 C7_2 1_555 1_555
Cu2_3 O3_2 1_555 1_555
Cu15 O4_2 1_555 1_555
Cu16 O5_2 1_555 1_555
O3_2 C1_2 1_555 1_555
O4_2 C8_2 1_555 1_555
O5_2 C8_2 1_555 1_555
O32 C9_2 1_555 1_555
O35 C9_2 1_555 1_555
O20_2 Cu1_3 1_555 1_555
O21_2 Cu2_3 1_555 1_555
O27 C17_2 1_555 1_555
O31 C17_2 1_555 1_555
O34 C18_2 1_555 1_555
O36 C18_2 1_555 1_555
O28_2 Cu15 1_555 1_555
O30_2 Cu16 1_555 1_555
O38_3 Cu2_3 1_555 1_555
O39_3 Cu15 1_555 1_555
O40_3 Cu16 1_555 1_555
C8_2 C19_2 1_555 1_555
C9_2 C20_2 1_555 1_555
C16_2 O20_2 1_555 1_555
C17_2 C28_2 1_555 1_555
C18_2 C29_2 1_555 1_555
C19_2 C31_2 1_555 1_555
C20_2 C33_2 1_555 1_555
C27_2 C16_2 1_555 1_555
C28_2 C49_2 1_555 1_555
C29_2 C51_2 1_555 1_555
C30_2 C2_2 1_555 1_555
C31_2 H6_2 1_555 1_555
C32_2 C19_2 1_555 1_555
C33_2 H8_2 1_555 1_555
C34_2 C20_2 1_555 1_555
C47_2 C27_2 1_555 1_555
C48_2 C27_2 1_555 1_555
C49_2 H24_2 1_555 1_555
C50_2 C28_2 1_555 1_555
C51_2 H26_2 1_555 1_555
C52_2 C29_2 1_555 1_555
H4_2 C30_2 1_555 1_555
H5_2 C32_2 1_555 1_555
H7_2 C34_2 1_555 1_555
H21_2 C47_2 1_555 1_555
H22_2 C48_2 1_555 1_555
H23_2 C50_2 1_555 1_555
H25_2 C52_2 1_555 1_555
C53_2 C5_2 1_555 1_555
C54_2 C31_2 1_555 1_555
C55_2 C32_2 1_555 1_555
C56_2 C33_2 1_555 1_555
C57_2 C34_2 1_555 1_555
C70_2 C47_2 1_555 1_555
C71_2 C48_2 1_555 1_555
C72_2 C49_2 1_555 1_555
C73_2 C50_2 1_555 1_555
C74_2 C51_2 1_555 1_555
C75_2 C52_2 1_555 1_555
H27_2 C53_2 1_555 1_555
H28_2 C55_2 1_555 1_555
H29_2 C54_2 1_555 1_555
H30_2 C57_2 1_555 1_555
H31_2 C56_2 1_555 1_555
H44_2 C70_2 1_555 1_555
H45_2 C71_2 1_555 1_555
H46_2 C73_2 1_555 1_555
H47_2 C72_2 1_555 1_555
H48_2 C75_2 1_555 1_555
H49_2 C74_2 1_555 1_555
C76_2 C54_2 1_555 1_555
C77_2 C56_2 1_555 1_555
C84_2 C70_2 1_555 1_555
C85_2 C72_2 1_555 1_555
C86_2 C74_2 1_555 1_555
C87_2 C7_2 1_555 1_555
C88_2 C77_2 1_555 1_555
C95_2 C84_2 1_555 1_555
C96_2 C85_2 1_555 1_555
C97_2 C86_2 1_555 1_555
C98_2 C87_2 1_555 1_555
C99_2 C6_2 1_555 1_555
C106_2 C95_2 1_555 1_555
C107_2 C96_2 1_555 1_555
C108_2 C95_2 1_555 1_555
H50_2 C99_2 1_555 1_555
H51_2 C98_2 1_555 1_555
H58_2 C106_2 1_555 1_555
H59_2 C108_2 1_555 1_555
H60_2 C107_2 1_555 1_555
O21_2 C16_2 1_555 1_555
C30_2 C53_2 1_555 1_555
C55_2 C76_2 1_555 1_555
C57_2 C77_2 1_555 1_555
C71_2 C84_2 1_555 1_555
C73_2 C85_2 1_555 1_555
C75_2 C86_2 1_555 1_555
C76_2 C87_2 1_555 1_555
C88_2 C98_2 1_555 1_555
C88_2 C99_2 1_555 1_555
C96_2 C106_2 1_555 1_555
C97_2 C107_2 1_555 1_555
C97_2 C108_2 1_555 1_555
O2_4 Cu1_4 1_555 1_555
Cu13_2 O12_2 1_555 1_555
Cu14_2 O13_2 1_555 1_555
Cu13 O18_2 1_555 1_555
Cu14 O19_2 1_555 1_555
O8_2 Cu1_4 1_555 1_555
O9_2 Cu2_4 1_555 1_555
O26 C11_2 1_555 1_555
O29 C11_2 1_555 1_555
O12_2 C12_2 1_555 1_555
O13_2 C12_2 1_555 1_555
O14_2 Cu1_4 1_555 1_555
O15_2 Cu2_4 1_555 1_555
O28_2 C14_2 1_555 1_555
O30_2 C14_2 1_555 1_555
O18_2 C15_2 1_555 1_555
O19_2 C15_2 1_555 1_555
O38_4 Cu2_4 1_555 1_555
C10_2 O8_2 1_555 1_555
C11_2 C22_2 1_555 1_555
C12_2 C23_2 1_555 1_555
C13_2 O14_2 1_555 1_555
C14_2 C25_2 1_555 1_555
C15_2 C26_2 1_555 1_555
C21_2 C10_2 1_555 1_555
C22_2 C37_2 1_555 1_555
C23_2 C39_2 1_555 1_555
C24_2 C13_2 1_555 1_555
C25_2 C43_2 1_555 1_555
C26_2 C45_2 1_555 1_555
C35_2 C21_2 1_555 1_555
C36_2 C21_2 1_555 1_555
C37_2 H12_2 1_555 1_555
C38_2 C22_2 1_555 1_555
C39_2 H14_2 1_555 1_555
C40_2 C23_2 1_555 1_555
C41_2 C24_2 1_555 1_555
C42_2 C24_2 1_555 1_555
C43_2 H18_2 1_555 1_555
C44_2 C25_2 1_555 1_555
C45_2 H20_2 1_555 1_555
C46_2 C26_2 1_555 1_555
H9_2 C35_2 1_555 1_555
H10_2 C36_2 1_555 1_555
H11_2 C38_2 1_555 1_555
H13_2 C40_2 1_555 1_555
H15_2 C41_2 1_555 1_555
H16_2 C42_2 1_555 1_555
H17_2 C44_2 1_555 1_555
H19_2 C46_2 1_555 1_555
C58_2 C35_2 1_555 1_555
C59_2 C36_2 1_555 1_555
C60_2 C37_2 1_555 1_555
C61_2 C38_2 1_555 1_555
C62_2 C39_2 1_555 1_555
C63_2 C40_2 1_555 1_555
C64_2 C41_2 1_555 1_555
C65_2 C42_2 1_555 1_555
C66_2 C43_2 1_555 1_555
C67_2 C44_2 1_555 1_555
C68_2 C45_2 1_555 1_555
C69_2 C46_2 1_555 1_555
H32_2 C58_2 1_555 1_555
H33_2 C59_2 1_555 1_555
H34_2 C61_2 1_555 1_555
H35_2 C60_2 1_555 1_555
H36_2 C63_2 1_555 1_555
H37_2 C62_2 1_555 1_555
H38_2 C64_2 1_555 1_555
H39_2 C65_2 1_555 1_555
H40_2 C67_2 1_555 1_555
H41_2 C66_2 1_555 1_555
H42_2 C69_2 1_555 1_555
H43_2 C68_2 1_555 1_555
C78_2 C58_2 1_555 1_555
C79_2 C60_2 1_555 1_555
C80_2 C62_2 1_555 1_555
C81_2 C64_2 1_555 1_555
C82_2 C66_2 1_555 1_555
C83_2 C68_2 1_555 1_555
C89_2 C78_2 1_555 1_555
C90_2 C79_2 1_555 1_555
C91_2 C80_2 1_555 1_555
C92_2 C81_2 1_555 1_555
C93_2 C82_2 1_555 1_555
C94_2 C83_2 1_555 1_555
C100_2 C89_2 1_555 1_555
C101_2 C90_2 1_555 1_555
C102_2 C89_2 1_555 1_555
C103_2 C92_2 1_555 1_555
C104_2 C93_2 1_555 1_555
C105_2 C92_2 1_555 1_555
H52_2 C100_2 1_555 1_555
H53_2 C102_2 1_555 1_555
H54_2 C101_2 1_555 1_555
H55_2 C103_2 1_555 1_555
H56_2 C105_2 1_555 1_555
H57_2 C104_2 1_555 1_555
O9_2 C10_2 1_555 1_555
O15_2 C13_2 1_555 1_555
C59_2 C78_2 1_555 1_555
C61_2 C79_2 1_555 1_555
C63_2 C80_2 1_555 1_555
C65_2 C81_2 1_555 1_555
C67_2 C82_2 1_555 1_555
C69_2 C83_2 1_555 1_555
C90_2 C100_2 1_555 1_555
C91_2 C101_2 1_555 1_555
C91_2 C102_2 1_555 1_555
C93_2 C103_2 1_555 1_555
C94_2 C104_2 1_555 1_555
C94_2 C105_2 1_555 1_555
O39_4 Cu15_2 1_555 1_555
O40_4 Cu16_2 1_555 1_555
O41_3 Cu13 1_555 1_555
O42_3 Cu14 1_555 1_555
O41_4 Cu13_2 1_555 1_555
O42_4 Cu14_2 1_555 1_555

#END
