
###############################################################################
#
# This file contains modified crystal structure data generated from the
# MOF subset of the Cambridge Structural Database (CSD) v543 
# hosted by the Cambridge Crystallographic Data Centre (CCDC).
#
# This work is licensed under the Creative Commons
# Attribution-NonCommercial-ShareAlike 4.0 International License.
# To view a copy of this license, visit
# http://creativecommons.org/licenses/by-nc-sa/4.0/
# or send a letter to
# Creative Commons, PO Box 1866, Mountain View, CA 94042, USA.
#
# CIF created using the CSD Python API on 29 September 2022
# The structure has been converted into the P1 space group
# The structure has a 3D framework
# The original CSD entry BAZFUF01 is in the cubic crystal system
# The framework has been calculated to contain at least 10.0% void space
# The void calculation uses a probe of radius 1.32A, grid spacing 0.4
# H atom positions have been added when not included in the experimental data
# Generated hydrogen atom positions removed from atoms on special positions
#
###############################################################################

data_BAZFUF01
_chemical_formula_moiety         '(C216 H216 Cu24 O72)n'
_symmetry_cell_setting           triclinic
_symmetry_space_group_name_H-M   'P 1'
_symmetry_Int_Tables_number      1
_space_group_name_Hall           'P 1'
loop_
_symmetry_equiv_pos_site_id
_symmetry_equiv_pos_as_xyz
1 x,y,z
_cell_length_a                   27.418(3)
_cell_length_b                   27.418(3)
_cell_length_c                   27.418(3)
_cell_angle_alpha                90
_cell_angle_beta                 90
_cell_angle_gamma                90
_cell_volume                     20611.4
loop_
_atom_site_label
_atom_site_type_symbol
_atom_site_fract_x
_atom_site_fract_y
_atom_site_fract_z
Cu7 Cu 0.5000 0.0000 0.20178(4)
Cu8 Cu 0.5000 0.0000 0.29822(4)
Cu11 Cu 0.5000 -0.0000 0.79822(4)
Cu12 Cu 0.5000 -0.0000 0.70178(4)
Cu13 Cu 0.20178(4) 0.5000 0.0000
Cu14 Cu 0.29822(4) 0.5000 0.0000
Cu1 Cu -0.0000 0.79822(4) 0.5000
O2 O -0.0000 0.8768(3) 0.5000
Cu2 Cu -0.0000 0.70178(4) 0.5000
Cu7_2 Cu 0.5000 1.0000 0.20178(4)
Cu8_2 Cu 0.5000 1.0000 0.29822(4)
Cu11_2 Cu 0.5000 1.0000 0.79822(4)
Cu12_2 Cu 0.5000 1.0000 0.70178(4)
Cu13_2 Cu 0.20178(4) 0.5000 1.0000
Cu14_2 Cu 0.29822(4) 0.5000 1.0000
O8 O 0.04953(13) 0.79068(13) 0.45020(13)
O9 O 0.04980(13) 0.70932(13) 0.45047(13)
O10 O 0.45020(13) 0.95047(13) 0.20932(13)
O11 O 0.45047(13) 0.95020(13) 0.29068(13)
O12 O 0.20932(13) 0.54980(13) 0.04953(13)
O13 O 0.29068(13) 0.54953(13) 0.04980(13)
O14 O 0.04953(13) 0.79068(13) 0.54980(13)
O15 O 0.04980(13) 0.70932(13) 0.54953(13)
O16 O 0.45020(13) 0.95047(13) 0.79068(13)
O17 O 0.45047(13) 0.95020(13) 0.70932(13)
O18 O 0.20932(13) 0.54980(13) 0.95047(13)
O19 O 0.29068(13) 0.54953(13) 0.95020(13)
C13 C 0.1220(2) 0.7930(2) 0.3784(2)
C14 C 0.1216(2) 0.7070(2) 0.3780(2)
C15 C 0.3784(2) 0.8780(2) 0.2070(2)
C16 C 0.3780(2) 0.8784(2) 0.2930(2)
C17 C 0.2070(2) 0.6216(2) 0.1220(2)
C18 C 0.2930(2) 0.6220(2) 0.1216(2)
C19 C 0.1220(2) 0.7930(2) 0.6216(2)
C20 C 0.1216(2) 0.7070(2) 0.6220(2)
C21 C 0.3784(2) 0.8780(2) 0.7930(2)
C22 C 0.3780(2) 0.8784(2) 0.7070(2)
C23 C 0.2070(2) 0.6216(2) 0.8780(2)
C24 C 0.2930(2) 0.6220(2) 0.8784(2)
H9 H 0.1106 0.8224 0.3910
H10 H 0.1090 0.6776 0.3894
H11 H 0.3910 0.8894 0.1776
H12 H 0.3894 0.8910 0.3224
H13 H 0.1776 0.6090 0.1106
H14 H 0.3224 0.6106 0.1090
H15 H 0.1106 0.8224 0.6090
H16 H 0.1090 0.6776 0.6106
H17 H 0.3910 0.8894 0.8224
H18 H 0.3894 0.8910 0.6776
H19 H 0.1776 0.6090 0.8894
H20 H 0.3224 0.6106 0.8910
C36 C 0.1564(2) 0.7938(2) 0.3427(2)
C37 C 0.1573(2) 0.7062(2) 0.3436(2)
C38 C 0.3427(2) 0.8436(2) 0.2062(2)
C39 C 0.3436(2) 0.8427(2) 0.2938(2)
C40 C 0.2062(2) 0.6573(2) 0.1564(2)
C41 C 0.2938(2) 0.6564(2) 0.1573(2)
C42 C 0.1564(2) 0.7938(2) 0.6573(2)
C43 C 0.1573(2) 0.7062(2) 0.6564(2)
C44 C 0.3427(2) 0.8436(2) 0.7938(2)
C45 C 0.3436(2) 0.8427(2) 0.7062(2)
C46 C 0.2062(2) 0.6573(2) 0.8436(2)
C47 C 0.2938(2) 0.6564(2) 0.8427(2)
H32 H 0.1674 0.8234 0.3303
H33 H 0.1697 0.6766 0.3326
H34 H 0.3326 0.8303 0.3234
H35 H 0.3303 0.8326 0.1766
H36 H 0.3234 0.6674 0.1697
H37 H 0.1766 0.6697 0.1674
H38 H 0.1674 0.8234 0.6697
H39 H 0.1697 0.6766 0.6674
H40 H 0.3326 0.8303 0.6766
H41 H 0.3303 0.8326 0.8234
H42 H 0.3234 0.6674 0.8303
H43 H 0.1766 0.6697 0.8326
O38 O -0.0000 0.6232(3) 0.5000
C56 C 0.1035(2) 0.7500 0.3965(2)
C57 C 0.3965(2) 0.8965(2) 0.2500
C58 C 0.2500 0.6035(2) 0.1035(2)
C59 C 0.1035(2) 0.7500 0.6035(2)
C60 C 0.3965(2) 0.8965(2) 0.7500
C61 C 0.2500 0.6035(2) 0.8965(2)
C67 C 0.06525(16) 0.7500 0.43475(16)
C68 C 0.43475(16) 0.93475(16) 0.2500
C69 C 0.2500 0.56525(16) 0.06525(16)
C70 C 0.06525(16) 0.7500 0.56525(16)
C71 C 0.43475(16) 0.93475(16) 0.7500
C72 C 0.2500 0.56525(16) 0.93475(16)
C78 C 0.21518(17) 0.7500 0.28482(17)
C79 C 0.28482(17) 0.78482(17) 0.2500
C80 C 0.2500 0.71518(17) 0.21518(17)
C81 C 0.21518(17) 0.7500 0.71518(17)
C82 C 0.28482(17) 0.78482(17) 0.7500
C83 C 0.2500 0.71518(17) 0.78482(17)
C89 C 0.1754(2) 0.7500 0.3246(2)
C90 C 0.3246(2) 0.8246(2) 0.2500
C91 C 0.2500 0.6754(2) 0.1754(2)
C92 C 0.1754(2) 0.7500 0.6754(2)
C93 C 0.3246(2) 0.8246(2) 0.7500
C94 C 0.2500 0.6754(2) 0.8246(2)
C100 C 0.2500 0.7861(2) 0.2861(2)
C101 C 0.2861(2) 0.7500 0.2139(2)
C102 C 0.2139(2) 0.7139(2) 0.2500
C103 C 0.2500 0.7861(2) 0.7139(2)
C104 C 0.2861(2) 0.7500 0.7861(2)
C105 C 0.2139(2) 0.7139(2) 0.7500
H52 H 0.2500 0.8101 0.3101
H53 H 0.1899 0.6899 0.2500
H54 H 0.3101 0.7500 0.1899
H55 H 0.2500 0.8101 0.6899
H56 H 0.1899 0.6899 0.7500
H57 H 0.3101 0.7500 0.8101
O26 O 0.45020(13) 0.04953(13) 0.79068(13)
O27 O 0.54980(13) 0.04953(13) 0.79068(13)
O29 O 0.45047(13) 0.04980(13) 0.70932(13)
O31 O 0.54953(13) 0.04980(13) 0.70932(13)
O39 O 0.5000 0.0000 0.8768(3)
O40 O 0.5000 -0.0000 0.6232(3)
Cu5 Cu 0.79822(4) 0.5000 0.0000
Cu6 Cu 0.70178(4) 0.5000 0.0000
O32 O 0.79068(13) 0.45020(13) 0.04953(13)
O33 O 0.79068(13) 0.54980(13) 0.04953(13)
O35 O 0.70932(13) 0.45047(13) 0.04980(13)
O37 O 0.70932(13) 0.54953(13) 0.04980(13)
O41 O 0.8768(3) 0.5000 0.0000
O42 O 0.6232(3) 0.5000 0.0000
Cu1_2 Cu 1.0000 0.79822(4) 0.5000
O1 O 0.95047(13) 0.79068(13) 0.54980(13)
C1 C 0.8780(2) 0.7930(2) 0.6216(2)
H1 H 0.8894 0.8224 0.6090
C2 C 0.8436(2) 0.7938(2) 0.6573(2)
H2 H 0.8326 0.8234 0.6697
O2_2 O 1.0000 0.8768(3) 0.5000
C3 C 0.8965(2) 0.7500 0.6035(2)
C4 C 0.93475(16) 0.7500 0.56525(16)
C5 C 0.78482(17) 0.7500 0.71518(17)
C6 C 0.8246(2) 0.7500 0.6754(2)
C7 C 0.7500 0.7861(2) 0.7139(2)
H3 H 0.7500 0.8101 0.6899
Cu2_2 Cu 1.0000 0.70178(4) 0.5000
Cu5_2 Cu 0.79822(4) 0.5000 1.0000
Cu6_2 Cu 0.70178(4) 0.5000 1.0000
O3 O 0.95020(13) 0.70932(13) 0.54953(13)
O4 O 0.54980(13) 0.95047(13) 0.79068(13)
O5 O 0.54953(13) 0.95020(13) 0.70932(13)
O6 O 0.79068(13) 0.54980(13) 0.95047(13)
O7 O 0.70932(13) 0.54953(13) 0.95020(13)
O20 O 0.95047(13) 0.79068(13) 0.45020(13)
O21 O 0.95020(13) 0.70932(13) 0.45047(13)
O22 O 0.54980(13) 0.95047(13) 0.20932(13)
O23 O 0.54953(13) 0.95020(13) 0.29068(13)
O34 O 0.79068(13) 0.45020(13) 0.95047(13)
O36 O 0.70932(13) 0.45047(13) 0.95020(13)
C8 C 0.8784(2) 0.7070(2) 0.6220(2)
C9 C 0.6216(2) 0.8780(2) 0.7930(2)
C10 C 0.6220(2) 0.8784(2) 0.7070(2)
C11 C 0.7930(2) 0.6216(2) 0.8780(2)
C12 C 0.7070(2) 0.6220(2) 0.8784(2)
C25 C 0.8780(2) 0.7930(2) 0.3784(2)
C26 C 0.8784(2) 0.7070(2) 0.3780(2)
C27 C 0.6216(2) 0.8780(2) 0.2070(2)
C28 C 0.6220(2) 0.8784(2) 0.2930(2)
C29 C 0.7930(2) 0.6216(2) 0.1220(2)
C30 C 0.7070(2) 0.6220(2) 0.1216(2)
H4 H 0.8910 0.6776 0.6106
H5 H 0.6090 0.8894 0.8224
H6 H 0.6106 0.8910 0.6776
H7 H 0.8224 0.6090 0.8894
H8 H 0.6776 0.6106 0.8910
H21 H 0.8894 0.8224 0.3910
H22 H 0.8910 0.6776 0.3894
H23 H 0.6090 0.8894 0.1776
H24 H 0.6106 0.8910 0.3224
H25 H 0.8224 0.6090 0.1106
H26 H 0.6776 0.6106 0.1090
C31 C 0.8427(2) 0.7062(2) 0.6564(2)
C32 C 0.6573(2) 0.8436(2) 0.7938(2)
C33 C 0.6564(2) 0.8427(2) 0.7062(2)
C34 C 0.7938(2) 0.6573(2) 0.8436(2)
C35 C 0.7062(2) 0.6564(2) 0.8427(2)
C48 C 0.8436(2) 0.7938(2) 0.3427(2)
C49 C 0.8427(2) 0.7062(2) 0.3436(2)
C50 C 0.6573(2) 0.8436(2) 0.2062(2)
C51 C 0.6564(2) 0.8427(2) 0.2938(2)
C52 C 0.7938(2) 0.6573(2) 0.1564(2)
C53 C 0.7062(2) 0.6564(2) 0.1573(2)
H27 H 0.8303 0.6766 0.6674
H28 H 0.6674 0.8303 0.6766
H29 H 0.6697 0.8326 0.8234
H30 H 0.6766 0.6674 0.8303
H31 H 0.8234 0.6697 0.8326
H44 H 0.8326 0.8234 0.3303
H45 H 0.8303 0.6766 0.3326
H46 H 0.6674 0.8303 0.3234
H47 H 0.6697 0.8326 0.1766
H48 H 0.6766 0.6674 0.1697
H49 H 0.8234 0.6697 0.1674
O38_2 O 1.0000 0.6232(3) 0.5000
O39_2 O 0.5000 1.0000 0.8768(3)
O40_2 O 0.5000 1.0000 0.6232(3)
O41_2 O 0.8768(3) 0.5000 1.0000
O42_2 O 0.6232(3) 0.5000 1.0000
C54 C 0.6035(2) 0.8965(2) 0.7500
C55 C 0.7500 0.6035(2) 0.8965(2)
C62 C 0.8965(2) 0.7500 0.3965(2)
C63 C 0.6035(2) 0.8965(2) 0.2500
C64 C 0.7500 0.6035(2) 0.1035(2)
C65 C 0.56525(16) 0.93475(16) 0.7500
C66 C 0.7500 0.56525(16) 0.93475(16)
C73 C 0.93475(16) 0.7500 0.43475(16)
C74 C 0.56525(16) 0.93475(16) 0.2500
C75 C 0.7500 0.56525(16) 0.06525(16)
C76 C 0.71518(17) 0.78482(17) 0.7500
C77 C 0.7500 0.71518(17) 0.78482(17)
C84 C 0.78482(17) 0.7500 0.28482(17)
C85 C 0.71518(17) 0.78482(17) 0.2500
C86 C 0.7500 0.71518(17) 0.21518(17)
C87 C 0.6754(2) 0.8246(2) 0.7500
C88 C 0.7500 0.6754(2) 0.8246(2)
C95 C 0.8246(2) 0.7500 0.3246(2)
C96 C 0.6754(2) 0.8246(2) 0.2500
C97 C 0.7500 0.6754(2) 0.1754(2)
C98 C 0.7139(2) 0.7500 0.7861(2)
C99 C 0.7861(2) 0.7139(2) 0.7500
C106 C 0.7500 0.7861(2) 0.2861(2)
C107 C 0.7139(2) 0.7500 0.2139(2)
C108 C 0.7861(2) 0.7139(2) 0.2500
H50 H 0.8101 0.6899 0.7500
H51 H 0.6899 0.7500 0.8101
H58 H 0.7500 0.8101 0.3101
H59 H 0.8101 0.6899 0.2500
H60 H 0.6899 0.7500 0.1899
Cu1_3 Cu -0.0000 0.20178(4) 0.5000
O2_3 O -0.0000 0.1232(3) 0.5000
Cu2_3 Cu -0.0000 0.29822(4) 0.5000
O8_2 O 0.04953(13) 0.20932(13) 0.54980(13)
O9_2 O 0.04980(13) 0.29068(13) 0.54953(13)
O12_2 O 0.20932(13) 0.45020(13) 0.95047(13)
O13_2 O 0.29068(13) 0.45047(13) 0.95020(13)
O14_2 O 0.04953(13) 0.20932(13) 0.45020(13)
O15_2 O 0.04980(13) 0.29068(13) 0.45047(13)
O16_2 O 0.45020(13) 0.04953(13) 0.20932(13)
O17_2 O 0.45047(13) 0.04980(13) 0.29068(13)
O18_2 O 0.20932(13) 0.45020(13) 0.04953(13)
O19_2 O 0.29068(13) 0.45047(13) 0.04980(13)
C13_2 C 0.1220(2) 0.2070(2) 0.6216(2)
C14_2 C 0.1216(2) 0.2930(2) 0.6220(2)
C15_2 C 0.3784(2) 0.1220(2) 0.7930(2)
C16_2 C 0.3780(2) 0.1216(2) 0.7070(2)
C17_2 C 0.2070(2) 0.3784(2) 0.8780(2)
C18_2 C 0.2930(2) 0.3780(2) 0.8784(2)
C19_2 C 0.1220(2) 0.2070(2) 0.3784(2)
C20_2 C 0.1216(2) 0.2930(2) 0.3780(2)
C21_2 C 0.3784(2) 0.1220(2) 0.2070(2)
C22_2 C 0.3780(2) 0.1216(2) 0.2930(2)
C23_2 C 0.2070(2) 0.3784(2) 0.1220(2)
C24_2 C 0.2930(2) 0.3780(2) 0.1216(2)
H9_2 H 0.1106 0.1776 0.6090
H10_2 H 0.1090 0.3224 0.6106
H11_2 H 0.3910 0.1106 0.8224
H12_2 H 0.3894 0.1090 0.6776
H13_2 H 0.1776 0.3910 0.8894
H14_2 H 0.3224 0.3894 0.8910
H15_2 H 0.1106 0.1776 0.3910
H16_2 H 0.1090 0.3224 0.3894
H17_2 H 0.3910 0.1106 0.1776
H18_2 H 0.3894 0.1090 0.3224
H19_2 H 0.1776 0.3910 0.1106
H20_2 H 0.3224 0.3894 0.1090
C36_2 C 0.1564(2) 0.2062(2) 0.6573(2)
C37_2 C 0.1573(2) 0.2938(2) 0.6564(2)
C38_2 C 0.3427(2) 0.1564(2) 0.7938(2)
C39_2 C 0.3436(2) 0.1573(2) 0.7062(2)
C40_2 C 0.2062(2) 0.3427(2) 0.8436(2)
C41_2 C 0.2938(2) 0.3436(2) 0.8427(2)
C42_2 C 0.1564(2) 0.2062(2) 0.3427(2)
C43_2 C 0.1573(2) 0.2938(2) 0.3436(2)
C44_2 C 0.3427(2) 0.1564(2) 0.2062(2)
C45_2 C 0.3436(2) 0.1573(2) 0.2938(2)
C46_2 C 0.2062(2) 0.3427(2) 0.1564(2)
C47_2 C 0.2938(2) 0.3436(2) 0.1573(2)
H32_2 H 0.1674 0.1766 0.6697
H33_2 H 0.1697 0.3234 0.6674
H34_2 H 0.3326 0.1697 0.6766
H35_2 H 0.3303 0.1674 0.8234
H36_2 H 0.3234 0.3326 0.8303
H37_2 H 0.1766 0.3303 0.8326
H38_2 H 0.1674 0.1766 0.3303
H39_2 H 0.1697 0.3234 0.3326
H40_2 H 0.3326 0.1697 0.3234
H41_2 H 0.3303 0.1674 0.1766
H42_2 H 0.3234 0.3326 0.1697
H43_2 H 0.1766 0.3303 0.1674
O38_3 O -0.0000 0.3768(3) 0.5000
C56_2 C 0.1035(2) 0.2500 0.6035(2)
C57_2 C 0.3965(2) 0.1035(2) 0.7500
C58_2 C 0.2500 0.3965(2) 0.8965(2)
C59_2 C 0.1035(2) 0.2500 0.3965(2)
C60_2 C 0.3965(2) 0.1035(2) 0.2500
C61_2 C 0.2500 0.3965(2) 0.1035(2)
C67_2 C 0.06525(16) 0.2500 0.56525(16)
C68_2 C 0.43475(16) 0.06525(16) 0.7500
C69_2 C 0.2500 0.43475(16) 0.93475(16)
C70_2 C 0.06525(16) 0.2500 0.43475(16)
C71_2 C 0.43475(16) 0.06525(16) 0.2500
C72_2 C 0.2500 0.43475(16) 0.06525(16)
C78_2 C 0.21518(17) 0.2500 0.71518(17)
C79_2 C 0.28482(17) 0.21518(17) 0.7500
C80_2 C 0.2500 0.28482(17) 0.78482(17)
C81_2 C 0.21518(17) 0.2500 0.28482(17)
C82_2 C 0.28482(17) 0.21518(17) 0.2500
C83_2 C 0.2500 0.28482(17) 0.21518(17)
C89_2 C 0.1754(2) 0.2500 0.6754(2)
C90_2 C 0.3246(2) 0.1754(2) 0.7500
C91_2 C 0.2500 0.3246(2) 0.8246(2)
C92_2 C 0.1754(2) 0.2500 0.3246(2)
C93_2 C 0.3246(2) 0.1754(2) 0.2500
C94_2 C 0.2500 0.3246(2) 0.1754(2)
C100_2 C 0.2500 0.2139(2) 0.7139(2)
C101_2 C 0.2861(2) 0.2500 0.7861(2)
C102_2 C 0.2139(2) 0.2861(2) 0.7500
C103_2 C 0.2500 0.2139(2) 0.2861(2)
C104_2 C 0.2861(2) 0.2500 0.2139(2)
C105_2 C 0.2139(2) 0.2861(2) 0.2500
H52_2 H 0.2500 0.1899 0.6899
H53_2 H 0.1899 0.3101 0.7500
H54_2 H 0.3101 0.2500 0.8101
H55_2 H 0.2500 0.1899 0.3101
H56_2 H 0.1899 0.3101 0.2500
H57_2 H 0.3101 0.2500 0.1899
Cu1_4 Cu 1.0000 0.20178(4) 0.5000
O1_2 O 0.95047(13) 0.20932(13) 0.45020(13)
C1_2 C 0.8780(2) 0.2070(2) 0.3784(2)
H1_2 H 0.8894 0.1776 0.3910
C2_2 C 0.8436(2) 0.2062(2) 0.3427(2)
H2_2 H 0.8326 0.1766 0.3303
O2_4 O 1.0000 0.1232(3) 0.5000
C3_2 C 0.8965(2) 0.2500 0.3965(2)
C4_2 C 0.93475(16) 0.2500 0.43475(16)
C5_2 C 0.78482(17) 0.2500 0.28482(17)
C6_2 C 0.8246(2) 0.2500 0.3246(2)
C7_2 C 0.7500 0.2139(2) 0.2861(2)
H3_2 H 0.7500 0.1899 0.3101
Cu2_4 Cu 1.0000 0.29822(4) 0.5000
O3_2 O 0.95020(13) 0.29068(13) 0.45047(13)
O4_2 O 0.54980(13) 0.04953(13) 0.20932(13)
O5_2 O 0.54953(13) 0.04980(13) 0.29068(13)
O20_2 O 0.95047(13) 0.20932(13) 0.54980(13)
O21_2 O 0.95020(13) 0.29068(13) 0.54953(13)
C8_2 C 0.8784(2) 0.2930(2) 0.3780(2)
C9_2 C 0.6216(2) 0.1220(2) 0.2070(2)
C10_2 C 0.6220(2) 0.1216(2) 0.2930(2)
C11_2 C 0.7930(2) 0.3784(2) 0.1220(2)
C12_2 C 0.7070(2) 0.3780(2) 0.1216(2)
C25_2 C 0.8780(2) 0.2070(2) 0.6216(2)
C26_2 C 0.8784(2) 0.2930(2) 0.6220(2)
C27_2 C 0.6216(2) 0.1220(2) 0.7930(2)
C28_2 C 0.6220(2) 0.1216(2) 0.7070(2)
C29_2 C 0.7930(2) 0.3784(2) 0.8780(2)
C30_2 C 0.7070(2) 0.3780(2) 0.8784(2)
H4_2 H 0.8910 0.3224 0.3894
H5_2 H 0.6090 0.1106 0.1776
H6_2 H 0.6106 0.1090 0.3224
H7_2 H 0.8224 0.3910 0.1106
H8_2 H 0.6776 0.3894 0.1090
H21_2 H 0.8894 0.1776 0.6090
H22_2 H 0.8910 0.3224 0.6106
H23_2 H 0.6090 0.1106 0.8224
H24_2 H 0.6106 0.1090 0.6776
H25_2 H 0.8224 0.3910 0.8894
H26_2 H 0.6776 0.3894 0.8910
C31_2 C 0.8427(2) 0.2938(2) 0.3436(2)
C32_2 C 0.6573(2) 0.1564(2) 0.2062(2)
C33_2 C 0.6564(2) 0.1573(2) 0.2938(2)
C34_2 C 0.7938(2) 0.3427(2) 0.1564(2)
C35_2 C 0.7062(2) 0.3436(2) 0.1573(2)
C48_2 C 0.8436(2) 0.2062(2) 0.6573(2)
C49_2 C 0.8427(2) 0.2938(2) 0.6564(2)
C50_2 C 0.6573(2) 0.1564(2) 0.7938(2)
C51_2 C 0.6564(2) 0.1573(2) 0.7062(2)
C52_2 C 0.7938(2) 0.3427(2) 0.8436(2)
C53_2 C 0.7062(2) 0.3436(2) 0.8427(2)
H27_2 H 0.8303 0.3234 0.3326
H28_2 H 0.6674 0.1697 0.3234
H29_2 H 0.6697 0.1674 0.1766
H30_2 H 0.6766 0.3326 0.1697
H31_2 H 0.8234 0.3303 0.1674
H44_2 H 0.8326 0.1766 0.6697
H45_2 H 0.8303 0.3234 0.6674
H46_2 H 0.6674 0.1697 0.6766
H47_2 H 0.6697 0.1674 0.8234
H48_2 H 0.6766 0.3326 0.8303
H49_2 H 0.8234 0.3303 0.8326
O38_4 O 1.0000 0.3768(3) 0.5000
O39_3 O 0.5000 0.0000 0.1232(3)
O40_3 O 0.5000 0.0000 0.3768(3)
C54_2 C 0.6035(2) 0.1035(2) 0.2500
C55_2 C 0.7500 0.3965(2) 0.1035(2)
C62_2 C 0.8965(2) 0.2500 0.6035(2)
C63_2 C 0.6035(2) 0.1035(2) 0.7500
C64_2 C 0.7500 0.3965(2) 0.8965(2)
C65_2 C 0.56525(16) 0.06525(16) 0.2500
C66_2 C 0.7500 0.43475(16) 0.06525(16)
C73_2 C 0.93475(16) 0.2500 0.56525(16)
C74_2 C 0.56525(16) 0.06525(16) 0.7500
C75_2 C 0.7500 0.43475(16) 0.93475(16)
C76_2 C 0.71518(17) 0.21518(17) 0.2500
C77_2 C 0.7500 0.28482(17) 0.21518(17)
C84_2 C 0.78482(17) 0.2500 0.71518(17)
C85_2 C 0.71518(17) 0.21518(17) 0.7500
C86_2 C 0.7500 0.28482(17) 0.78482(17)
C87_2 C 0.6754(2) 0.1754(2) 0.2500
C88_2 C 0.7500 0.3246(2) 0.1754(2)
C95_2 C 0.8246(2) 0.2500 0.6754(2)
C96_2 C 0.6754(2) 0.1754(2) 0.7500
C97_2 C 0.7500 0.3246(2) 0.8246(2)
C98_2 C 0.7139(2) 0.2500 0.2139(2)
C99_2 C 0.7861(2) 0.2861(2) 0.2500
C106_2 C 0.7500 0.2139(2) 0.7139(2)
C107_2 C 0.7139(2) 0.2500 0.7861(2)
C108_2 C 0.7861(2) 0.2861(2) 0.7500
H50_2 H 0.8101 0.3101 0.2500
H51_2 H 0.6899 0.2500 0.1899
H58_2 H 0.7500 0.1899 0.6899
H59_2 H 0.8101 0.3101 0.7500
H60_2 H 0.6899 0.2500 0.8101
O39_4 O 0.5000 1.0000 0.1232(3)
O40_4 O 0.5000 1.0000 0.3768(3)
O41_3 O 0.1232(3) 0.5000 0.0000
O42_3 O 0.3768(3) 0.5000 0.0000
O41_4 O 0.1232(3) 0.5000 1.0000
O42_4 O 0.3768(3) 0.5000 1.0000
loop_
_geom_bond_atom_site_label_1
_geom_bond_atom_site_label_2
_geom_bond_site_symmetry_1
_geom_bond_site_symmetry_2
O2 Cu1 1_555 1_555
Cu7_2 O10 1_555 1_555
Cu8_2 O11 1_555 1_555
Cu13 O12 1_555 1_555
Cu14 O13 1_555 1_555
Cu11_2 O16 1_555 1_555
Cu12_2 O17 1_555 1_555
Cu13_2 O18 1_555 1_555
Cu14_2 O19 1_555 1_555
O8 Cu1 1_555 1_555
O9 Cu2 1_555 1_555
O10 C68 1_555 1_555
O11 C68 1_555 1_555
O12 C69 1_555 1_555
O13 C69 1_555 1_555
O14 Cu1 1_555 1_555
O15 Cu2 1_555 1_555
O16 C71 1_555 1_555
O17 C71 1_555 1_555
O18 C72 1_555 1_555
O19 C72 1_555 1_555
C13 H9 1_555 1_555
C14 H10 1_555 1_555
C15 H11 1_555 1_555
C16 H12 1_555 1_555
C17 H13 1_555 1_555
C18 H14 1_555 1_555
C19 H15 1_555 1_555
C20 H16 1_555 1_555
C21 H17 1_555 1_555
C22 H18 1_555 1_555
C23 H19 1_555 1_555
C24 H20 1_555 1_555
C36 C13 1_555 1_555
C37 C14 1_555 1_555
C38 C15 1_555 1_555
C39 C16 1_555 1_555
C40 C17 1_555 1_555
C41 C18 1_555 1_555
C42 C19 1_555 1_555
C43 C20 1_555 1_555
C44 C21 1_555 1_555
C45 C22 1_555 1_555
C46 C23 1_555 1_555
C47 C24 1_555 1_555
H32 C36 1_555 1_555
H33 C37 1_555 1_555
H34 C39 1_555 1_555
H35 C38 1_555 1_555
H36 C41 1_555 1_555
H37 C40 1_555 1_555
H38 C42 1_555 1_555
H39 C43 1_555 1_555
H40 C45 1_555 1_555
H41 C44 1_555 1_555
H42 C47 1_555 1_555
H43 C46 1_555 1_555
O38 Cu2 1_555 1_555
C56 C13 1_555 1_555
C57 C15 1_555 1_555
C58 C17 1_555 1_555
C59 C19 1_555 1_555
C60 C21 1_555 1_555
C61 C23 1_555 1_555
C67 O8 1_555 1_555
C68 C57 1_555 1_555
C69 C58 1_555 1_555
C70 O14 1_555 1_555
C71 C60 1_555 1_555
C72 C61 1_555 1_555
C78 C89 1_555 1_555
C79 C90 1_555 1_555
C80 C91 1_555 1_555
C81 C92 1_555 1_555
C82 C93 1_555 1_555
C83 C94 1_555 1_555
C89 C36 1_555 1_555
C90 C38 1_555 1_555
C91 C40 1_555 1_555
C92 C42 1_555 1_555
C93 C44 1_555 1_555
C94 C46 1_555 1_555
C100 C78 1_555 1_555
C101 C79 1_555 1_555
C102 C78 1_555 1_555
C103 C81 1_555 1_555
C104 C82 1_555 1_555
C105 C81 1_555 1_555
H52 C100 1_555 1_555
H53 C102 1_555 1_555
H54 C101 1_555 1_555
H55 C103 1_555 1_555
H56 C105 1_555 1_555
H57 C104 1_555 1_555
O9 C67 1_555 1_555
O15 C70 1_555 1_555
C14 C56 1_555 1_555
C16 C57 1_555 1_555
C18 C58 1_555 1_555
C20 C59 1_555 1_555
C22 C60 1_555 1_555
C24 C61 1_555 1_555
C37 C89 1_555 1_555
C39 C90 1_555 1_555
C41 C91 1_555 1_555
C43 C92 1_555 1_555
C45 C93 1_555 1_555
C47 C94 1_555 1_555
C56 C67 1_555 1_555
C59 C70 1_555 1_555
C79 C100 1_555 1_555
C80 C101 1_555 1_555
C80 C102 1_555 1_555
C82 C103 1_555 1_555
C83 C104 1_555 1_555
C83 C105 1_555 1_555
O26 Cu11 1_555 1_555
O27 Cu11 1_555 1_555
O29 Cu12 1_555 1_555
O31 Cu12 1_555 1_555
O39 Cu11 1_555 1_555
O40 Cu12 1_555 1_555
O32 Cu5 1_555 1_555
O33 Cu5 1_555 1_555
O35 Cu6 1_555 1_555
O37 Cu6 1_555 1_555
O41 Cu5 1_555 1_555
O42 Cu6 1_555 1_555
Cu1_2 O1 1_555 1_555
O1 C4 1_555 1_555
C1 H1 1_555 1_555
C2 C1 1_555 1_555
H2 C2 1_555 1_555
O2_2 Cu1_2 1_555 1_555
C3 C1 1_555 1_555
C4 C3 1_555 1_555
C5 C6 1_555 1_555
C6 C2 1_555 1_555
C7 C5 1_555 1_555
H3 C7 1_555 1_555
Cu2_2 O3 1_555 1_555
Cu11_2 O4 1_555 1_555
Cu12_2 O5 1_555 1_555
Cu5_2 O6 1_555 1_555
Cu6_2 O7 1_555 1_555
Cu7_2 O22 1_555 1_555
Cu8_2 O23 1_555 1_555
O3 C4 1_555 1_555
O4 C65 1_555 1_555
O5 C65 1_555 1_555
O6 C66 1_555 1_555
O7 C66 1_555 1_555
O20 Cu1_2 1_555 1_555
O21 Cu2_2 1_555 1_555
O22 C74 1_555 1_555
O23 C74 1_555 1_555
O33 C75 1_555 1_555
O37 C75 1_555 1_555
O34 Cu5_2 1_555 1_555
O36 Cu6_2 1_555 1_555
C8 C3 1_555 1_555
C9 H5 1_555 1_555
C10 H6 1_555 1_555
C11 H7 1_555 1_555
C12 H8 1_555 1_555
C25 H21 1_555 1_555
C26 H22 1_555 1_555
C27 H23 1_555 1_555
C28 H24 1_555 1_555
C29 H25 1_555 1_555
C30 H26 1_555 1_555
H4 C8 1_555 1_555
C31 C6 1_555 1_555
C32 C9 1_555 1_555
C33 C10 1_555 1_555
C34 C11 1_555 1_555
C35 C12 1_555 1_555
C48 C25 1_555 1_555
C49 C26 1_555 1_555
C50 C27 1_555 1_555
C51 C28 1_555 1_555
C52 C29 1_555 1_555
C53 C30 1_555 1_555
H27 C31 1_555 1_555
H28 C33 1_555 1_555
H29 C32 1_555 1_555
H30 C35 1_555 1_555
H31 C34 1_555 1_555
H44 C48 1_555 1_555
H45 C49 1_555 1_555
H46 C51 1_555 1_555
H47 C50 1_555 1_555
H48 C53 1_555 1_555
H49 C52 1_555 1_555
O38_2 Cu2_2 1_555 1_555
O39_2 Cu11_2 1_555 1_555
O40_2 Cu12_2 1_555 1_555
O41_2 Cu5_2 1_555 1_555
O42_2 Cu6_2 1_555 1_555
C54 C9 1_555 1_555
C55 C11 1_555 1_555
C62 C25 1_555 1_555
C63 C27 1_555 1_555
C64 C29 1_555 1_555
C65 C54 1_555 1_555
C66 C55 1_555 1_555
C73 O20 1_555 1_555
C74 C63 1_555 1_555
C75 C64 1_555 1_555
C76 C7 1_555 1_555
C77 C88 1_555 1_555
C84 C95 1_555 1_555
C85 C96 1_555 1_555
C86 C97 1_555 1_555
C87 C32 1_555 1_555
C88 C34 1_555 1_555
C95 C48 1_555 1_555
C96 C50 1_555 1_555
C97 C52 1_555 1_555
C98 C76 1_555 1_555
C99 C5 1_555 1_555
C106 C84 1_555 1_555
C107 C85 1_555 1_555
C108 C84 1_555 1_555
H50 C99 1_555 1_555
H51 C98 1_555 1_555
H58 C106 1_555 1_555
H59 C108 1_555 1_555
H60 C107 1_555 1_555
O21 C73 1_555 1_555
C8 C31 1_555 1_555
C10 C54 1_555 1_555
C12 C55 1_555 1_555
C26 C62 1_555 1_555
C28 C63 1_555 1_555
C30 C64 1_555 1_555
C33 C87 1_555 1_555
C35 C88 1_555 1_555
C49 C95 1_555 1_555
C51 C96 1_555 1_555
C53 C97 1_555 1_555
C62 C73 1_555 1_555
C76 C87 1_555 1_555
C77 C98 1_555 1_555
C77 C99 1_555 1_555
C85 C106 1_555 1_555
C86 C107 1_555 1_555
C86 C108 1_555 1_555
O2_3 Cu1_3 1_555 1_555
Cu13_2 O12_2 1_555 1_555
Cu14_2 O13_2 1_555 1_555
Cu7 O16_2 1_555 1_555
Cu8 O17_2 1_555 1_555
Cu13 O18_2 1_555 1_555
Cu14 O19_2 1_555 1_555
O8_2 Cu1_3 1_555 1_555
O9_2 Cu2_3 1_555 1_555
O26 C68_2 1_555 1_555
O29 C68_2 1_555 1_555
O12_2 C69_2 1_555 1_555
O13_2 C69_2 1_555 1_555
O14_2 Cu1_3 1_555 1_555
O15_2 Cu2_3 1_555 1_555
O16_2 C71_2 1_555 1_555
O17_2 C71_2 1_555 1_555
O18_2 C72_2 1_555 1_555
O19_2 C72_2 1_555 1_555
C13_2 H9_2 1_555 1_555
C14_2 H10_2 1_555 1_555
C15_2 H11_2 1_555 1_555
C16_2 H12_2 1_555 1_555
C17_2 H13_2 1_555 1_555
C18_2 H14_2 1_555 1_555
C19_2 H15_2 1_555 1_555
C20_2 H16_2 1_555 1_555
C21_2 H17_2 1_555 1_555
C22_2 H18_2 1_555 1_555
C23_2 H19_2 1_555 1_555
C24_2 H20_2 1_555 1_555
C36_2 C13_2 1_555 1_555
C37_2 C14_2 1_555 1_555
C38_2 C15_2 1_555 1_555
C39_2 C16_2 1_555 1_555
C40_2 C17_2 1_555 1_555
C41_2 C18_2 1_555 1_555
C42_2 C19_2 1_555 1_555
C43_2 C20_2 1_555 1_555
C44_2 C21_2 1_555 1_555
C45_2 C22_2 1_555 1_555
C46_2 C23_2 1_555 1_555
C47_2 C24_2 1_555 1_555
H32_2 C36_2 1_555 1_555
H33_2 C37_2 1_555 1_555
H34_2 C39_2 1_555 1_555
H35_2 C38_2 1_555 1_555
H36_2 C41_2 1_555 1_555
H37_2 C40_2 1_555 1_555
H38_2 C42_2 1_555 1_555
H39_2 C43_2 1_555 1_555
H40_2 C45_2 1_555 1_555
H41_2 C44_2 1_555 1_555
H42_2 C47_2 1_555 1_555
H43_2 C46_2 1_555 1_555
O38_3 Cu2_3 1_555 1_555
C56_2 C13_2 1_555 1_555
C57_2 C15_2 1_555 1_555
C58_2 C17_2 1_555 1_555
C59_2 C19_2 1_555 1_555
C60_2 C21_2 1_555 1_555
C61_2 C23_2 1_555 1_555
C67_2 O8_2 1_555 1_555
C68_2 C57_2 1_555 1_555
C69_2 C58_2 1_555 1_555
C70_2 O14_2 1_555 1_555
C71_2 C60_2 1_555 1_555
C72_2 C61_2 1_555 1_555
C78_2 C89_2 1_555 1_555
C79_2 C90_2 1_555 1_555
C80_2 C91_2 1_555 1_555
C81_2 C92_2 1_555 1_555
C82_2 C93_2 1_555 1_555
C83_2 C94_2 1_555 1_555
C89_2 C36_2 1_555 1_555
C90_2 C38_2 1_555 1_555
C91_2 C40_2 1_555 1_555
C92_2 C42_2 1_555 1_555
C93_2 C44_2 1_555 1_555
C94_2 C46_2 1_555 1_555
C100_2 C78_2 1_555 1_555
C101_2 C79_2 1_555 1_555
C102_2 C78_2 1_555 1_555
C103_2 C81_2 1_555 1_555
C104_2 C82_2 1_555 1_555
C105_2 C81_2 1_555 1_555
H52_2 C100_2 1_555 1_555
H53_2 C102_2 1_555 1_555
H54_2 C101_2 1_555 1_555
H55_2 C103_2 1_555 1_555
H56_2 C105_2 1_555 1_555
H57_2 C104_2 1_555 1_555
O9_2 C67_2 1_555 1_555
O15_2 C70_2 1_555 1_555
C14_2 C56_2 1_555 1_555
C16_2 C57_2 1_555 1_555
C18_2 C58_2 1_555 1_555
C20_2 C59_2 1_555 1_555
C22_2 C60_2 1_555 1_555
C24_2 C61_2 1_555 1_555
C37_2 C89_2 1_555 1_555
C39_2 C90_2 1_555 1_555
C41_2 C91_2 1_555 1_555
C43_2 C92_2 1_555 1_555
C45_2 C93_2 1_555 1_555
C47_2 C94_2 1_555 1_555
C56_2 C67_2 1_555 1_555
C59_2 C70_2 1_555 1_555
C79_2 C100_2 1_555 1_555
C80_2 C101_2 1_555 1_555
C80_2 C102_2 1_555 1_555
C82_2 C103_2 1_555 1_555
C83_2 C104_2 1_555 1_555
C83_2 C105_2 1_555 1_555
Cu1_4 O1_2 1_555 1_555
O1_2 C4_2 1_555 1_555
C1_2 H1_2 1_555 1_555
C2_2 C1_2 1_555 1_555
H2_2 C2_2 1_555 1_555
O2_4 Cu1_4 1_555 1_555
C3_2 C1_2 1_555 1_555
C4_2 C3_2 1_555 1_555
C5_2 C6_2 1_555 1_555
C6_2 C2_2 1_555 1_555
C7_2 C5_2 1_555 1_555
H3_2 C7_2 1_555 1_555
Cu2_4 O3_2 1_555 1_555
Cu7 O4_2 1_555 1_555
Cu8 O5_2 1_555 1_555
O3_2 C4_2 1_555 1_555
O4_2 C65_2 1_555 1_555
O5_2 C65_2 1_555 1_555
O32 C66_2 1_555 1_555
O35 C66_2 1_555 1_555
O20_2 Cu1_4 1_555 1_555
O21_2 Cu2_4 1_555 1_555
O27 C74_2 1_555 1_555
O31 C74_2 1_555 1_555
O34 C75_2 1_555 1_555
O36 C75_2 1_555 1_555
C8_2 C3_2 1_555 1_555
C9_2 H5_2 1_555 1_555
C10_2 H6_2 1_555 1_555
C11_2 H7_2 1_555 1_555
C12_2 H8_2 1_555 1_555
C25_2 H21_2 1_555 1_555
C26_2 H22_2 1_555 1_555
C27_2 H23_2 1_555 1_555
C28_2 H24_2 1_555 1_555
C29_2 H25_2 1_555 1_555
C30_2 H26_2 1_555 1_555
H4_2 C8_2 1_555 1_555
C31_2 C6_2 1_555 1_555
C32_2 C9_2 1_555 1_555
C33_2 C10_2 1_555 1_555
C34_2 C11_2 1_555 1_555
C35_2 C12_2 1_555 1_555
C48_2 C25_2 1_555 1_555
C49_2 C26_2 1_555 1_555
C50_2 C27_2 1_555 1_555
C51_2 C28_2 1_555 1_555
C52_2 C29_2 1_555 1_555
C53_2 C30_2 1_555 1_555
H27_2 C31_2 1_555 1_555
H28_2 C33_2 1_555 1_555
H29_2 C32_2 1_555 1_555
H30_2 C35_2 1_555 1_555
H31_2 C34_2 1_555 1_555
H44_2 C48_2 1_555 1_555
H45_2 C49_2 1_555 1_555
H46_2 C51_2 1_555 1_555
H47_2 C50_2 1_555 1_555
H48_2 C53_2 1_555 1_555
H49_2 C52_2 1_555 1_555
O38_4 Cu2_4 1_555 1_555
O39_3 Cu7 1_555 1_555
O40_3 Cu8 1_555 1_555
C54_2 C9_2 1_555 1_555
C55_2 C11_2 1_555 1_555
C62_2 C25_2 1_555 1_555
C63_2 C27_2 1_555 1_555
C64_2 C29_2 1_555 1_555
C65_2 C54_2 1_555 1_555
C66_2 C55_2 1_555 1_555
C73_2 O20_2 1_555 1_555
C74_2 C63_2 1_555 1_555
C75_2 C64_2 1_555 1_555
C76_2 C7_2 1_555 1_555
C77_2 C88_2 1_555 1_555
C84_2 C95_2 1_555 1_555
C85_2 C96_2 1_555 1_555
C86_2 C97_2 1_555 1_555
C87_2 C32_2 1_555 1_555
C88_2 C34_2 1_555 1_555
C95_2 C48_2 1_555 1_555
C96_2 C50_2 1_555 1_555
C97_2 C52_2 1_555 1_555
C98_2 C76_2 1_555 1_555
C99_2 C5_2 1_555 1_555
C106_2 C84_2 1_555 1_555
C107_2 C85_2 1_555 1_555
C108_2 C84_2 1_555 1_555
H50_2 C99_2 1_555 1_555
H51_2 C98_2 1_555 1_555
H58_2 C106_2 1_555 1_555
H59_2 C108_2 1_555 1_555
H60_2 C107_2 1_555 1_555
O21_2 C73_2 1_555 1_555
C8_2 C31_2 1_555 1_555
C10_2 C54_2 1_555 1_555
C12_2 C55_2 1_555 1_555
C26_2 C62_2 1_555 1_555
C28_2 C63_2 1_555 1_555
C30_2 C64_2 1_555 1_555
C33_2 C87_2 1_555 1_555
C35_2 C88_2 1_555 1_555
C49_2 C95_2 1_555 1_555
C51_2 C96_2 1_555 1_555
C53_2 C97_2 1_555 1_555
C62_2 C73_2 1_555 1_555
C76_2 C87_2 1_555 1_555
C77_2 C98_2 1_555 1_555
C77_2 C99_2 1_555 1_555
C85_2 C106_2 1_555 1_555
C86_2 C107_2 1_555 1_555
C86_2 C108_2 1_555 1_555
O39_4 Cu7_2 1_555 1_555
O40_4 Cu8_2 1_555 1_555
O41_3 Cu13 1_555 1_555
O42_3 Cu14 1_555 1_555
O41_4 Cu13_2 1_555 1_555
O42_4 Cu14_2 1_555 1_555

#END
