
###############################################################################
#
# This file contains modified crystal structure data generated from the
# MOF subset of the Cambridge Structural Database (CSD) v543 
# hosted by the Cambridge Crystallographic Data Centre (CCDC).
#
# This work is licensed under the Creative Commons
# Attribution-NonCommercial-ShareAlike 4.0 International License.
# To view a copy of this license, visit
# http://creativecommons.org/licenses/by-nc-sa/4.0/
# or send a letter to
# Creative Commons, PO Box 1866, Mountain View, CA 94042, USA.
#
# CIF created using the CSD Python API on 29 September 2022
# The structure has been converted into the P1 space group
# The structure has a 3D framework
# The original CSD entry BAZGAM is in the cubic crystal system
# The framework has been calculated to contain at least 10.0% void space
# The void calculation uses a probe of radius 1.32A, grid spacing 0.4
# H atom positions have been added when not included in the experimental data
# Generated hydrogen atom positions removed from atoms on special positions
#
###############################################################################

data_BAZGAM
_chemical_formula_moiety         '(C1440 H1440 Cu72 O264)n'
_symmetry_cell_setting           triclinic
_symmetry_space_group_name_H-M   'P 1'
_symmetry_Int_Tables_number      1
_space_group_name_Hall           'P 1'
loop_
_symmetry_equiv_pos_site_id
_symmetry_equiv_pos_as_xyz
1 x,y,z
_cell_length_a                   68.3112(6)
_cell_length_b                   68.3112(6)
_cell_length_c                   68.3112(6)
_cell_angle_alpha                90
_cell_angle_beta                 90
_cell_angle_gamma                90
_cell_volume                     318769
loop_
_atom_site_label
_atom_site_type_symbol
_atom_site_fract_x
_atom_site_fract_y
_atom_site_fract_z
Cu1 Cu -0.0000 0.26364(3) 0.23636(3)
O1 O 0.01944(9) 0.24768(9) 0.22427(10)
O2 O -0.0000 0.28846(9) 0.21154(9)
C1 C 0.14749(14) 0.17323(16) 0.14749(14)
H1 H 0.1420 0.1844 0.1420
C2 C 0.13880(16) 0.16460(15) 0.16460(15)
C3 C 0.1225(2) 0.17570(17) 0.17570(17)
C4 C 0.11476(18) 0.19329(15) 0.16750(16)
H2 H 0.1204 0.1987 0.1564
C5 C 0.0984(2) 0.20241(19) 0.17653(17)
H3 H 0.0935 0.2142 0.1719
C6 C 0.0897(2) 0.19295(18) 0.19295(18)
C7 C 0.07159(17) 0.20205(12) 0.20205(12)
C8 C 0.06450(16) 0.21978(12) 0.19384(13)
H4 H 0.0698 0.2248 0.1823
C9 C 0.04903(16) 0.22973(15) 0.20379(14)
H5 H 0.0444 0.2416 0.1991
C10 C 0.0408(2) 0.22109(15) 0.22109(15)
C11 C 0.0252(2) 0.23254(18) 0.23254(18)
Cu2 Cu -0.0000 0.23636(3) 0.26364(3)
Cu3 Cu 0.26364(3) 0.23636(3) 0.0000
Cu4 Cu 0.23636(3) 0.26364(3) 0.0000
Cu5 Cu 0.23636(3) -0.0000 0.26364(3)
Cu6 Cu 0.26364(3) -0.0000 0.23636(3)
Cu15 Cu 0.26364(3) 0.5000 0.26364(3)
Cu16 Cu 0.23636(3) 0.5000 0.23636(3)
Cu17 Cu 0.23636(3) 0.23636(3) 0.5000
Cu18 Cu 0.26364(3) 0.26364(3) 0.5000
O3 O 0.01944(9) 0.22427(10) 0.24768(9)
O4 O 0.24768(9) 0.22427(10) 0.01944(9)
O5 O 0.22427(10) 0.24768(9) 0.01944(9)
O6 O 0.22427(10) 0.01944(9) 0.24768(9)
O7 O 0.24768(9) 0.01944(9) 0.22427(10)
O20 O 0.01944(9) 0.27573(10) 0.25232(9)
O21 O 0.01944(9) 0.25232(9) 0.27573(10)
O22 O 0.24768(9) 0.48056(9) 0.27573(10)
O23 O 0.22427(10) 0.48056(9) 0.25232(9)
O24 O 0.22427(10) 0.25232(9) 0.48056(9)
O25 O 0.24768(9) 0.27573(10) 0.48056(9)
O28 O 0.27573(10) 0.25232(9) 0.01944(9)
O31 O 0.25232(9) 0.27573(10) 0.01944(9)
O34 O 0.25232(9) 0.01944(9) 0.27573(10)
O37 O 0.27573(10) 0.01944(9) 0.25232(9)
O38 O -0.0000 0.21154(9) 0.28846(9)
O39 O 0.28846(9) 0.21154(9) 0.0000
O40 O 0.21154(9) 0.28846(9) 0.0000
O41 O 0.21154(9) -0.0000 0.28846(9)
O42 O 0.28846(9) 0.0000 0.21154(9)
C12 C 0.17323(16) 0.14749(14) 0.14749(14)
C13 C 0.14749(14) 0.14749(14) 0.17323(16)
C20 C 0.14749(14) 0.35251(14) 0.32677(16)
C21 C 0.17323(16) 0.35251(14) 0.35251(14)
C22 C 0.14749(14) 0.32677(16) 0.35251(14)
H6 H 0.1844 0.1420 0.1420
H7 H 0.1420 0.1420 0.1844
H14 H 0.1420 0.3580 0.3156
H15 H 0.1844 0.3580 0.3580
H16 H 0.1420 0.3156 0.3580
C23 C 0.16460(15) 0.16460(15) 0.13880(16)
C24 C 0.16460(15) 0.13880(16) 0.16460(15)
C31 C 0.13880(16) 0.33540(15) 0.33540(15)
C32 C 0.16460(15) 0.36120(16) 0.33540(15)
C33 C 0.16460(15) 0.33540(15) 0.36120(16)
C34 C 0.17570(17) 0.17570(17) 0.1225(2)
C35 C 0.17570(17) 0.1225(2) 0.17570(17)
C42 C 0.1225(2) 0.32430(17) 0.32430(17)
C43 C 0.17570(17) 0.3775(2) 0.32430(17)
C44 C 0.17570(17) 0.32430(17) 0.3775(2)
C45 C 0.19329(15) 0.16750(16) 0.11476(18)
C46 C 0.16750(16) 0.19329(15) 0.11476(18)
C47 C 0.11476(18) 0.16750(16) 0.19329(15)
C48 C 0.16750(16) 0.11476(18) 0.19329(15)
C49 C 0.19329(15) 0.11476(18) 0.16750(16)
C62 C 0.11476(18) 0.33250(16) 0.30671(15)
C63 C 0.19329(15) 0.38524(18) 0.33250(16)
C64 C 0.16750(16) 0.38524(18) 0.30671(15)
C65 C 0.11476(18) 0.30671(15) 0.33250(16)
C66 C 0.16750(16) 0.30671(15) 0.38524(18)
C67 C 0.19329(15) 0.33250(16) 0.38524(18)
H17 H 0.1987 0.1564 0.1204
H18 H 0.1564 0.1987 0.1204
H19 H 0.1204 0.1564 0.1987
H20 H 0.1564 0.1204 0.1987
H21 H 0.1987 0.1204 0.1564
H34 H 0.1204 0.3436 0.3013
H35 H 0.1987 0.3796 0.3436
H36 H 0.1564 0.3796 0.3013
H37 H 0.1204 0.3013 0.3436
H38 H 0.1564 0.3013 0.3796
H39 H 0.1987 0.3436 0.3796
C68 C 0.20241(19) 0.17653(17) 0.0984(2)
C69 C 0.17653(17) 0.20241(19) 0.0984(2)
C70 C 0.0984(2) 0.17653(17) 0.20241(19)
C71 C 0.17653(17) 0.0984(2) 0.20241(19)
C72 C 0.20241(19) 0.0984(2) 0.17653(17)
C85 C 0.0984(2) 0.32347(17) 0.29759(19)
C86 C 0.20241(19) 0.4016(2) 0.32347(17)
C87 C 0.17653(17) 0.4016(2) 0.29759(19)
C88 C 0.0984(2) 0.29759(19) 0.32347(17)
C89 C 0.17653(17) 0.29759(19) 0.4016(2)
C90 C 0.20241(19) 0.32347(17) 0.4016(2)
H40 H 0.2142 0.1719 0.0935
H41 H 0.1719 0.2142 0.0935
H42 H 0.0935 0.1719 0.2142
H43 H 0.1719 0.0935 0.2142
H44 H 0.2142 0.0935 0.1719
H57 H 0.0935 0.3281 0.2858
H58 H 0.2142 0.4065 0.3281
H59 H 0.1719 0.4065 0.2858
H60 H 0.0935 0.2858 0.3281
H61 H 0.1719 0.2858 0.4065
H62 H 0.2142 0.3281 0.4065
C91 C 0.19295(18) 0.19295(18) 0.0897(2)
C92 C 0.19295(18) 0.0897(2) 0.19295(18)
C99 C 0.0897(2) 0.30705(18) 0.30705(18)
C100 C 0.19295(18) 0.4103(2) 0.30705(18)
C101 C 0.19295(18) 0.30705(18) 0.4103(2)
C102 C 0.20205(12) 0.20205(12) 0.07159(17)
C103 C 0.20205(12) 0.07159(17) 0.20205(12)
C110 C 0.07159(17) 0.29795(12) 0.29795(12)
C111 C 0.20205(12) 0.42841(17) 0.29795(12)
C112 C 0.20205(12) 0.29795(12) 0.42841(17)
C113 C 0.21978(12) 0.19384(13) 0.06450(16)
C114 C 0.19384(13) 0.21978(12) 0.06450(16)
C115 C 0.06450(16) 0.19384(13) 0.21978(12)
C116 C 0.19384(13) 0.06450(16) 0.21978(12)
C117 C 0.21978(12) 0.06450(16) 0.19384(13)
C130 C 0.06450(16) 0.30616(13) 0.28022(12)
C131 C 0.21978(12) 0.43550(16) 0.30616(13)
C132 C 0.19384(13) 0.43550(16) 0.28022(12)
C133 C 0.06450(16) 0.28022(12) 0.30616(13)
C134 C 0.19384(13) 0.28022(12) 0.43550(16)
C135 C 0.21978(12) 0.30616(13) 0.43550(16)
H63 H 0.2248 0.1823 0.0698
H64 H 0.1823 0.2248 0.0698
H65 H 0.0698 0.1823 0.2248
H66 H 0.1823 0.0698 0.2248
H67 H 0.2248 0.0698 0.1823
H80 H 0.0698 0.3177 0.2752
H81 H 0.2248 0.4302 0.3177
H82 H 0.1823 0.4302 0.2752
H83 H 0.0698 0.2752 0.3177
H84 H 0.1823 0.2752 0.4302
H85 H 0.2248 0.3177 0.4302
C136 C 0.22973(15) 0.20379(14) 0.04903(16)
C137 C 0.20379(14) 0.22973(15) 0.04903(16)
C138 C 0.04903(16) 0.20379(14) 0.22973(15)
C139 C 0.20379(14) 0.04903(16) 0.22973(15)
C140 C 0.22973(15) 0.04903(16) 0.20379(14)
C153 C 0.04903(16) 0.29621(14) 0.27027(15)
C154 C 0.22973(15) 0.45097(16) 0.29621(14)
C155 C 0.20379(14) 0.45097(16) 0.27027(15)
C156 C 0.04903(16) 0.27027(15) 0.29621(14)
C157 C 0.20379(14) 0.27027(15) 0.45097(16)
C158 C 0.22973(15) 0.29621(14) 0.45097(16)
H86 H 0.2416 0.1991 0.0444
H87 H 0.1991 0.2416 0.0444
H88 H 0.0444 0.1991 0.2416
H89 H 0.1991 0.0444 0.2416
H90 H 0.2416 0.0444 0.1991
H103 H 0.0444 0.3009 0.2584
H104 H 0.2416 0.4556 0.3009
H105 H 0.1991 0.4556 0.2584
H106 H 0.0444 0.2584 0.3009
H107 H 0.1991 0.2584 0.4556
H108 H 0.2416 0.3009 0.4556
C159 C 0.22109(15) 0.22109(15) 0.0408(2)
C160 C 0.22109(15) 0.0408(2) 0.22109(15)
C167 C 0.0408(2) 0.27891(15) 0.27891(15)
C168 C 0.22109(15) 0.4592(2) 0.27891(15)
C169 C 0.22109(15) 0.27891(15) 0.4592(2)
C170 C 0.23254(18) 0.23254(18) 0.0252(2)
C171 C 0.23254(18) 0.0252(2) 0.23254(18)
C178 C 0.0252(2) 0.26746(18) 0.26746(18)
C179 C 0.23254(18) 0.4748(2) 0.26746(18)
C180 C 0.23254(18) 0.26746(18) 0.4748(2)
Cu3_2 Cu 0.26364(3) 0.23636(3) 1.0000
Cu4_2 Cu 0.23636(3) 0.26364(3) 1.0000
O26 O 0.27573(10) 0.25232(9) 0.98056(9)
O27 O 0.24768(9) 0.22427(10) 0.98056(9)
O29 O 0.25232(9) 0.27573(10) 0.98056(9)
O30 O 0.22427(10) 0.24768(9) 0.98056(9)
O39_2 O 0.28846(9) 0.21154(9) 1.0000
O40_2 O 0.21154(9) 0.28846(9) 1.0000
Cu5_2 Cu 0.23636(3) 1.0000 0.26364(3)
Cu6_2 Cu 0.26364(3) 1.0000 0.23636(3)
O32 O 0.25232(9) 0.98056(9) 0.27573(10)
O33 O 0.22427(10) 0.98056(9) 0.24768(9)
O35 O 0.27573(10) 0.98056(9) 0.25232(9)
O36 O 0.24768(9) 0.98056(9) 0.22427(10)
O41_2 O 0.21154(9) 1.0000 0.28846(9)
O42_2 O 0.28846(9) 1.0000 0.21154(9)
Cu1_2 Cu 1.0000 0.26364(3) 0.23636(3)
O2_2 O 1.0000 0.28846(9) 0.21154(9)
Cu2_2 Cu 1.0000 0.23636(3) 0.26364(3)
Cu7 Cu 0.73636(3) 0.5000 0.26364(3)
Cu8 Cu 0.76364(3) 0.5000 0.23636(3)
Cu9 Cu 0.76364(3) 0.23636(3) 0.5000
Cu10 Cu 0.73636(3) 0.26364(3) 0.5000
Cu11 Cu 0.73636(3) 0.23636(3) 0.0000
Cu12 Cu 0.76364(3) 0.26364(3) 0.0000
Cu13 Cu 0.76364(3) -0.0000 0.26364(3)
Cu14 Cu 0.73636(3) -0.0000 0.23636(3)
O8 O 0.98056(9) 0.27573(10) 0.25232(9)
O9 O 0.98056(9) 0.25232(9) 0.27573(10)
O10 O 0.75232(9) 0.48056(9) 0.27573(10)
O11 O 0.77573(10) 0.48056(9) 0.25232(9)
O12 O 0.77573(10) 0.25232(9) 0.48056(9)
O13 O 0.75232(9) 0.27573(10) 0.48056(9)
O14 O 0.98056(9) 0.24768(9) 0.22427(10)
O15 O 0.98056(9) 0.22427(10) 0.24768(9)
O16 O 0.75232(9) 0.22427(10) 0.01944(9)
O17 O 0.77573(10) 0.24768(9) 0.01944(9)
O18 O 0.77573(10) 0.01944(9) 0.24768(9)
O19 O 0.75232(9) 0.01944(9) 0.22427(10)
O38_2 O 1.0000 0.21154(9) 0.28846(9)
C14 C 0.85251(14) 0.35251(14) 0.32677(16)
C15 C 0.82677(16) 0.35251(14) 0.35251(14)
C16 C 0.85251(14) 0.32677(16) 0.35251(14)
C17 C 0.85251(14) 0.17323(16) 0.14749(14)
C18 C 0.82677(16) 0.14749(14) 0.14749(14)
C19 C 0.85251(14) 0.14749(14) 0.17323(16)
H8 H 0.8580 0.3580 0.3156
H9 H 0.8156 0.3580 0.3580
H10 H 0.8580 0.3156 0.3580
H11 H 0.8580 0.1844 0.1420
H12 H 0.8156 0.1420 0.1420
H13 H 0.8580 0.1420 0.1844
C25 C 0.86120(16) 0.33540(15) 0.33540(15)
C26 C 0.83540(15) 0.36120(16) 0.33540(15)
C27 C 0.83540(15) 0.33540(15) 0.36120(16)
C28 C 0.86120(16) 0.16460(15) 0.16460(15)
C29 C 0.83540(15) 0.16460(15) 0.13880(16)
C30 C 0.83540(15) 0.13880(16) 0.16460(15)
C36 C 0.8775(2) 0.32430(17) 0.32430(17)
C37 C 0.82430(17) 0.3775(2) 0.32430(17)
C38 C 0.82430(17) 0.32430(17) 0.3775(2)
C39 C 0.8775(2) 0.17570(17) 0.17570(17)
C40 C 0.82430(17) 0.17570(17) 0.1225(2)
C41 C 0.82430(17) 0.1225(2) 0.17570(17)
C50 C 0.88524(18) 0.33250(16) 0.30671(15)
C51 C 0.80671(15) 0.38524(18) 0.33250(16)
C52 C 0.83250(16) 0.38524(18) 0.30671(15)
C53 C 0.88524(18) 0.30671(15) 0.33250(16)
C54 C 0.83250(16) 0.30671(15) 0.38524(18)
C55 C 0.80671(15) 0.33250(16) 0.38524(18)
C56 C 0.88524(18) 0.19329(15) 0.16750(16)
C57 C 0.80671(15) 0.16750(16) 0.11476(18)
C58 C 0.83250(16) 0.19329(15) 0.11476(18)
C59 C 0.88524(18) 0.16750(16) 0.19329(15)
C60 C 0.83250(16) 0.11476(18) 0.19329(15)
C61 C 0.80671(15) 0.11476(18) 0.16750(16)
H22 H 0.8796 0.3436 0.3013
H23 H 0.8013 0.3796 0.3436
H24 H 0.8436 0.3796 0.3013
H25 H 0.8796 0.3013 0.3436
H26 H 0.8436 0.3013 0.3796
H27 H 0.8013 0.3436 0.3796
H28 H 0.8796 0.1987 0.1564
H29 H 0.8013 0.1564 0.1204
H30 H 0.8436 0.1987 0.1204
H31 H 0.8796 0.1564 0.1987
H32 H 0.8436 0.1204 0.1987
H33 H 0.8013 0.1204 0.1564
C73 C 0.9016(2) 0.32347(17) 0.29759(19)
C74 C 0.79759(19) 0.4016(2) 0.32347(17)
C75 C 0.82347(17) 0.4016(2) 0.29759(19)
C76 C 0.9016(2) 0.29759(19) 0.32347(17)
C77 C 0.82347(17) 0.29759(19) 0.4016(2)
C78 C 0.79759(19) 0.32347(17) 0.4016(2)
C79 C 0.9016(2) 0.20241(19) 0.17653(17)
C80 C 0.79759(19) 0.17653(17) 0.0984(2)
C81 C 0.82347(17) 0.20241(19) 0.0984(2)
C82 C 0.9016(2) 0.17653(17) 0.20241(19)
C83 C 0.82347(17) 0.0984(2) 0.20241(19)
C84 C 0.79759(19) 0.0984(2) 0.17653(17)
H45 H 0.9065 0.3281 0.2858
H46 H 0.7858 0.4065 0.3281
H47 H 0.8281 0.4065 0.2858
H48 H 0.9065 0.2858 0.3281
H49 H 0.8281 0.2858 0.4065
H50 H 0.7858 0.3281 0.4065
H51 H 0.9065 0.2142 0.1719
H52 H 0.7858 0.1719 0.0935
H53 H 0.8281 0.2142 0.0935
H54 H 0.9065 0.1719 0.2142
H55 H 0.8281 0.0935 0.2142
H56 H 0.7858 0.0935 0.1719
C93 C 0.9103(2) 0.30705(18) 0.30705(18)
C94 C 0.80705(18) 0.4103(2) 0.30705(18)
C95 C 0.80705(18) 0.30705(18) 0.4103(2)
C96 C 0.9103(2) 0.19295(18) 0.19295(18)
C97 C 0.80705(18) 0.19295(18) 0.0897(2)
C98 C 0.80705(18) 0.0897(2) 0.19295(18)
C104 C 0.92841(17) 0.29795(12) 0.29795(12)
C105 C 0.79795(12) 0.42841(17) 0.29795(12)
C106 C 0.79795(12) 0.29795(12) 0.42841(17)
C107 C 0.92841(17) 0.20205(12) 0.20205(12)
C108 C 0.79795(12) 0.20205(12) 0.07159(17)
C109 C 0.79795(12) 0.07159(17) 0.20205(12)
C118 C 0.93550(16) 0.30616(13) 0.28022(12)
C119 C 0.78022(12) 0.43550(16) 0.30616(13)
C120 C 0.80616(13) 0.43550(16) 0.28022(12)
C121 C 0.93550(16) 0.28022(12) 0.30616(13)
C122 C 0.80616(13) 0.28022(12) 0.43550(16)
C123 C 0.78022(12) 0.30616(13) 0.43550(16)
C124 C 0.93550(16) 0.21978(12) 0.19384(13)
C125 C 0.78022(12) 0.19384(13) 0.06450(16)
C126 C 0.80616(13) 0.21978(12) 0.06450(16)
C127 C 0.93550(16) 0.19384(13) 0.21978(12)
C128 C 0.80616(13) 0.06450(16) 0.21978(12)
C129 C 0.78022(12) 0.06450(16) 0.19384(13)
H68 H 0.9302 0.3177 0.2752
H69 H 0.7752 0.4302 0.3177
H70 H 0.8177 0.4302 0.2752
H71 H 0.9302 0.2752 0.3177
H72 H 0.8177 0.2752 0.4302
H73 H 0.7752 0.3177 0.4302
H74 H 0.9302 0.2248 0.1823
H75 H 0.7752 0.1823 0.0698
H76 H 0.8177 0.2248 0.0698
H77 H 0.9302 0.1823 0.2248
H78 H 0.8177 0.0698 0.2248
H79 H 0.7752 0.0698 0.1823
C141 C 0.95097(16) 0.29621(14) 0.27027(15)
C142 C 0.77027(15) 0.45097(16) 0.29621(14)
C143 C 0.79621(14) 0.45097(16) 0.27027(15)
C144 C 0.95097(16) 0.27027(15) 0.29621(14)
C145 C 0.79621(14) 0.27027(15) 0.45097(16)
C146 C 0.77027(15) 0.29621(14) 0.45097(16)
C147 C 0.95097(16) 0.22973(15) 0.20379(14)
C148 C 0.77027(15) 0.20379(14) 0.04903(16)
C149 C 0.79621(14) 0.22973(15) 0.04903(16)
C150 C 0.95097(16) 0.20379(14) 0.22973(15)
C151 C 0.79621(14) 0.04903(16) 0.22973(15)
C152 C 0.77027(15) 0.04903(16) 0.20379(14)
H91 H 0.9556 0.3009 0.2584
H92 H 0.7584 0.4556 0.3009
H93 H 0.8009 0.4556 0.2584
H94 H 0.9556 0.2584 0.3009
H95 H 0.8009 0.2584 0.4556
H96 H 0.7584 0.3009 0.4556
H97 H 0.9556 0.2416 0.1991
H98 H 0.7584 0.1991 0.0444
H99 H 0.8009 0.2416 0.0444
H100 H 0.9556 0.1991 0.2416
H101 H 0.8009 0.0444 0.2416
H102 H 0.7584 0.0444 0.1991
C161 C 0.9592(2) 0.27891(15) 0.27891(15)
C162 C 0.77891(15) 0.4592(2) 0.27891(15)
C163 C 0.77891(15) 0.27891(15) 0.4592(2)
C164 C 0.9592(2) 0.22109(15) 0.22109(15)
C165 C 0.77891(15) 0.22109(15) 0.0408(2)
C166 C 0.77891(15) 0.0408(2) 0.22109(15)
C172 C 0.9748(2) 0.26746(18) 0.26746(18)
C173 C 0.76746(18) 0.4748(2) 0.26746(18)
C174 C 0.76746(18) 0.26746(18) 0.4748(2)
C175 C 0.9748(2) 0.23254(18) 0.23254(18)
C176 C 0.76746(18) 0.23254(18) 0.0252(2)
C177 C 0.76746(18) 0.0252(2) 0.23254(18)
Cu11_2 Cu 0.73636(3) 0.23636(3) 1.0000
Cu12_2 Cu 0.76364(3) 0.26364(3) 1.0000
Cu13_2 Cu 0.76364(3) 1.0000 0.26364(3)
Cu14_2 Cu 0.73636(3) 1.0000 0.23636(3)
Cu1_3 Cu -0.0000 0.73636(3) 0.23636(3)
O2_3 O 0.0000 0.71154(9) 0.21154(9)
Cu2_3 Cu 0.0000 0.76364(3) 0.26364(3)
Cu9_2 Cu 0.23636(3) 0.76364(3) 0.5000
Cu10_2 Cu 0.26364(3) 0.73636(3) 0.5000
Cu11_3 Cu 0.26364(3) 0.76364(3) 0.0000
Cu12_3 Cu 0.23636(3) 0.73636(3) 0.0000
O8_2 O 0.01944(9) 0.72427(10) 0.25232(9)
O9_2 O 0.01944(9) 0.74768(9) 0.27573(10)
O10_2 O 0.24768(9) 0.51944(9) 0.27573(10)
O11_2 O 0.22427(10) 0.51944(9) 0.25232(9)
O12_2 O 0.22427(10) 0.74768(9) 0.48056(9)
O13_2 O 0.24768(9) 0.72427(10) 0.48056(9)
O14_2 O 0.01944(9) 0.75232(9) 0.22427(10)
O15_2 O 0.01944(9) 0.77573(10) 0.24768(9)
O16_2 O 0.24768(9) 0.77573(10) 0.01944(9)
O17_2 O 0.22427(10) 0.75232(9) 0.01944(9)
O38_3 O 0.0000 0.78846(9) 0.28846(9)
C14_2 C 0.14749(14) 0.64749(14) 0.32677(16)
C15_2 C 0.17323(16) 0.64749(14) 0.35251(14)
C16_2 C 0.14749(14) 0.67323(16) 0.35251(14)
C17_2 C 0.14749(14) 0.82677(16) 0.14749(14)
C18_2 C 0.17323(16) 0.85251(14) 0.14749(14)
C19_2 C 0.14749(14) 0.85251(14) 0.17323(16)
H8_2 H 0.1420 0.6420 0.3156
H9_2 H 0.1844 0.6420 0.3580
H10_2 H 0.1420 0.6844 0.3580
H11_2 H 0.1420 0.8156 0.1420
H12_2 H 0.1844 0.8580 0.1420
H13_2 H 0.1420 0.8580 0.1844
C25_2 C 0.13880(16) 0.66460(15) 0.33540(15)
C26_2 C 0.16460(15) 0.63880(16) 0.33540(15)
C27_2 C 0.16460(15) 0.66460(15) 0.36120(16)
C28_2 C 0.13880(16) 0.83540(15) 0.16460(15)
C29_2 C 0.16460(15) 0.83540(15) 0.13880(16)
C30_2 C 0.16460(15) 0.86120(16) 0.16460(15)
C36_2 C 0.1225(2) 0.67570(17) 0.32430(17)
C37_2 C 0.17570(17) 0.6225(2) 0.32430(17)
C38_2 C 0.17570(17) 0.67570(17) 0.3775(2)
C39_2 C 0.1225(2) 0.82430(17) 0.17570(17)
C40_2 C 0.17570(17) 0.82430(17) 0.1225(2)
C41_2 C 0.17570(17) 0.8775(2) 0.17570(17)
C50_2 C 0.11476(18) 0.66750(16) 0.30671(15)
C51_2 C 0.19329(15) 0.61476(18) 0.33250(16)
C52_2 C 0.16750(16) 0.61476(18) 0.30671(15)
C53_2 C 0.11476(18) 0.69329(15) 0.33250(16)
C54_2 C 0.16750(16) 0.69329(15) 0.38524(18)
C55_2 C 0.19329(15) 0.66750(16) 0.38524(18)
C56_2 C 0.11476(18) 0.80671(15) 0.16750(16)
C57_2 C 0.19329(15) 0.83250(16) 0.11476(18)
C58_2 C 0.16750(16) 0.80671(15) 0.11476(18)
C59_2 C 0.11476(18) 0.83250(16) 0.19329(15)
C60_2 C 0.16750(16) 0.88524(18) 0.19329(15)
C61_2 C 0.19329(15) 0.88524(18) 0.16750(16)
H22_2 H 0.1204 0.6564 0.3013
H23_2 H 0.1987 0.6204 0.3436
H24_2 H 0.1564 0.6204 0.3013
H25_2 H 0.1204 0.6987 0.3436
H26_2 H 0.1564 0.6987 0.3796
H27_2 H 0.1987 0.6564 0.3796
H28_2 H 0.1204 0.8013 0.1564
H29_2 H 0.1987 0.8436 0.1204
H30_2 H 0.1564 0.8013 0.1204
H31_2 H 0.1204 0.8436 0.1987
H32_2 H 0.1564 0.8796 0.1987
H33_2 H 0.1987 0.8796 0.1564
C73_2 C 0.0984(2) 0.67653(17) 0.29759(19)
C74_2 C 0.20241(19) 0.5984(2) 0.32347(17)
C75_2 C 0.17653(17) 0.5984(2) 0.29759(19)
C76_2 C 0.0984(2) 0.70241(19) 0.32347(17)
C77_2 C 0.17653(17) 0.70241(19) 0.4016(2)
C78_2 C 0.20241(19) 0.67653(17) 0.4016(2)
C79_2 C 0.0984(2) 0.79759(19) 0.17653(17)
C80_2 C 0.20241(19) 0.82347(17) 0.0984(2)
C81_2 C 0.17653(17) 0.79759(19) 0.0984(2)
C82_2 C 0.0984(2) 0.82347(17) 0.20241(19)
C83_2 C 0.17653(17) 0.9016(2) 0.20241(19)
C84_2 C 0.20241(19) 0.9016(2) 0.17653(17)
H45_2 H 0.0935 0.6719 0.2858
H46_2 H 0.2142 0.5935 0.3281
H47_2 H 0.1719 0.5935 0.2858
H48_2 H 0.0935 0.7142 0.3281
H49_2 H 0.1719 0.7142 0.4065
H50_2 H 0.2142 0.6719 0.4065
H51_2 H 0.0935 0.7858 0.1719
H52_2 H 0.2142 0.8281 0.0935
H53_2 H 0.1719 0.7858 0.0935
H54_2 H 0.0935 0.8281 0.2142
H55_2 H 0.1719 0.9065 0.2142
H56_2 H 0.2142 0.9065 0.1719
C93_2 C 0.0897(2) 0.69295(18) 0.30705(18)
C94_2 C 0.19295(18) 0.5897(2) 0.30705(18)
C95_2 C 0.19295(18) 0.69295(18) 0.4103(2)
C96_2 C 0.0897(2) 0.80705(18) 0.19295(18)
C97_2 C 0.19295(18) 0.80705(18) 0.0897(2)
C98_2 C 0.19295(18) 0.9103(2) 0.19295(18)
C104_2 C 0.07159(17) 0.70205(12) 0.29795(12)
C105_2 C 0.20205(12) 0.57159(17) 0.29795(12)
C106_2 C 0.20205(12) 0.70205(12) 0.42841(17)
C107_2 C 0.07159(17) 0.79795(12) 0.20205(12)
C108_2 C 0.20205(12) 0.79795(12) 0.07159(17)
C109_2 C 0.20205(12) 0.92841(17) 0.20205(12)
C118_2 C 0.06450(16) 0.69384(13) 0.28022(12)
C119_2 C 0.21978(12) 0.56450(16) 0.30616(13)
C120_2 C 0.19384(13) 0.56450(16) 0.28022(12)
C121_2 C 0.06450(16) 0.71978(12) 0.30616(13)
C122_2 C 0.19384(13) 0.71978(12) 0.43550(16)
C123_2 C 0.21978(12) 0.69384(13) 0.43550(16)
C124_2 C 0.06450(16) 0.78022(12) 0.19384(13)
C125_2 C 0.21978(12) 0.80616(13) 0.06450(16)
C126_2 C 0.19384(13) 0.78022(12) 0.06450(16)
C127_2 C 0.06450(16) 0.80616(13) 0.21978(12)
C128_2 C 0.19384(13) 0.93550(16) 0.21978(12)
C129_2 C 0.21978(12) 0.93550(16) 0.19384(13)
H68_2 H 0.0698 0.6823 0.2752
H69_2 H 0.2248 0.5698 0.3177
H70_2 H 0.1823 0.5698 0.2752
H71_2 H 0.0698 0.7248 0.3177
H72_2 H 0.1823 0.7248 0.4302
H73_2 H 0.2248 0.6823 0.4302
H74_2 H 0.0698 0.7752 0.1823
H75_2 H 0.2248 0.8177 0.0698
H76_2 H 0.1823 0.7752 0.0698
H77_2 H 0.0698 0.8177 0.2248
H78_2 H 0.1823 0.9302 0.2248
H79_2 H 0.2248 0.9302 0.1823
C141_2 C 0.04903(16) 0.70379(14) 0.27027(15)
C142_2 C 0.22973(15) 0.54903(16) 0.29621(14)
C143_2 C 0.20379(14) 0.54903(16) 0.27027(15)
C144_2 C 0.04903(16) 0.72973(15) 0.29621(14)
C145_2 C 0.20379(14) 0.72973(15) 0.45097(16)
C146_2 C 0.22973(15) 0.70379(14) 0.45097(16)
C147_2 C 0.04903(16) 0.77027(15) 0.20379(14)
C148_2 C 0.22973(15) 0.79621(14) 0.04903(16)
C149_2 C 0.20379(14) 0.77027(15) 0.04903(16)
C150_2 C 0.04903(16) 0.79621(14) 0.22973(15)
C151_2 C 0.20379(14) 0.95097(16) 0.22973(15)
C152_2 C 0.22973(15) 0.95097(16) 0.20379(14)
H91_2 H 0.0444 0.6991 0.2584
H92_2 H 0.2416 0.5444 0.3009
H93_2 H 0.1991 0.5444 0.2584
H94_2 H 0.0444 0.7416 0.3009
H95_2 H 0.1991 0.7416 0.4556
H96_2 H 0.2416 0.6991 0.4556
H97_2 H 0.0444 0.7584 0.1991
H98_2 H 0.2416 0.8009 0.0444
H99_2 H 0.1991 0.7584 0.0444
H100_2 H 0.0444 0.8009 0.2416
H101_2 H 0.1991 0.9556 0.2416
H102_2 H 0.2416 0.9556 0.1991
C161_2 C 0.0408(2) 0.72109(15) 0.27891(15)
C162_2 C 0.22109(15) 0.5408(2) 0.27891(15)
C163_2 C 0.22109(15) 0.72109(15) 0.4592(2)
C164_2 C 0.0408(2) 0.77891(15) 0.22109(15)
C165_2 C 0.22109(15) 0.77891(15) 0.0408(2)
C166_2 C 0.22109(15) 0.9592(2) 0.22109(15)
C172_2 C 0.0252(2) 0.73254(18) 0.26746(18)
C173_2 C 0.23254(18) 0.5252(2) 0.26746(18)
C174_2 C 0.23254(18) 0.73254(18) 0.4748(2)
C175_2 C 0.0252(2) 0.76746(18) 0.23254(18)
C176_2 C 0.23254(18) 0.76746(18) 0.0252(2)
C177_2 C 0.23254(18) 0.9748(2) 0.23254(18)
Cu11_4 Cu 0.26364(3) 0.76364(3) 1.0000
Cu12_4 Cu 0.23636(3) 0.73636(3) 1.0000
O32_2 O 0.74768(9) 0.01944(9) 0.27573(10)
O35_2 O 0.72427(10) 0.01944(9) 0.25232(9)
O41_3 O 0.78846(9) 0.0000 0.28846(9)
O42_3 O 0.71154(9) 0.0000 0.21154(9)
Cu1_4 Cu 1.0000 0.73636(3) 0.23636(3)
O1_2 O 0.98056(9) 0.75232(9) 0.22427(10)
O2_4 O 1.0000 0.71154(9) 0.21154(9)
C1_2 C 0.85251(14) 0.82677(16) 0.14749(14)
H1_2 H 0.8580 0.8156 0.1420
C2_2 C 0.86120(16) 0.83540(15) 0.16460(15)
C3_2 C 0.8775(2) 0.82430(17) 0.17570(17)
C4_2 C 0.88524(18) 0.80671(15) 0.16750(16)
H2_2 H 0.8796 0.8013 0.1564
C5_2 C 0.9016(2) 0.79759(19) 0.17653(17)
H3_2 H 0.9065 0.7858 0.1719
C6_2 C 0.9103(2) 0.80705(18) 0.19295(18)
C7_2 C 0.92841(17) 0.79795(12) 0.20205(12)
C8_2 C 0.93550(16) 0.78022(12) 0.19384(13)
H4_2 H 0.9302 0.7752 0.1823
C9_2 C 0.95097(16) 0.77027(15) 0.20379(14)
H5_2 H 0.9556 0.7584 0.1991
C10_2 C 0.9592(2) 0.77891(15) 0.22109(15)
C11_2 C 0.9748(2) 0.76746(18) 0.23254(18)
Cu2_4 Cu 1.0000 0.76364(3) 0.26364(3)
Cu3_3 Cu 0.73636(3) 0.76364(3) 0.0000
Cu4_3 Cu 0.76364(3) 0.73636(3) 0.0000
Cu17_2 Cu 0.76364(3) 0.76364(3) 0.5000
Cu18_2 Cu 0.73636(3) 0.73636(3) 0.5000
O3_2 O 0.98056(9) 0.77573(10) 0.24768(9)
O4_2 O 0.75232(9) 0.77573(10) 0.01944(9)
O5_2 O 0.77573(10) 0.75232(9) 0.01944(9)
O6_2 O 0.77573(10) 0.98056(9) 0.24768(9)
O7_2 O 0.75232(9) 0.98056(9) 0.22427(10)
O20_2 O 0.98056(9) 0.72427(10) 0.25232(9)
O21_2 O 0.98056(9) 0.74768(9) 0.27573(10)
O22_2 O 0.75232(9) 0.51944(9) 0.27573(10)
O23_2 O 0.77573(10) 0.51944(9) 0.25232(9)
O24_2 O 0.77573(10) 0.74768(9) 0.48056(9)
O25_2 O 0.75232(9) 0.72427(10) 0.48056(9)
O28_2 O 0.72427(10) 0.74768(9) 0.01944(9)
O31_2 O 0.74768(9) 0.72427(10) 0.01944(9)
O34_2 O 0.74768(9) 0.98056(9) 0.27573(10)
O37_2 O 0.72427(10) 0.98056(9) 0.25232(9)
O38_4 O 1.0000 0.78846(9) 0.28846(9)
O39_3 O 0.71154(9) 0.78846(9) 0.0000
O40_3 O 0.78846(9) 0.71154(9) 0.0000
O41_4 O 0.78846(9) 1.0000 0.28846(9)
O42_4 O 0.71154(9) 1.0000 0.21154(9)
C12_2 C 0.82677(16) 0.85251(14) 0.14749(14)
C13_2 C 0.85251(14) 0.85251(14) 0.17323(16)
C20_2 C 0.85251(14) 0.64749(14) 0.32677(16)
C21_2 C 0.82677(16) 0.64749(14) 0.35251(14)
C22_2 C 0.85251(14) 0.67323(16) 0.35251(14)
H6_2 H 0.8156 0.8580 0.1420
H7_2 H 0.8580 0.8580 0.1844
H14_2 H 0.8580 0.6420 0.3156
H15_2 H 0.8156 0.6420 0.3580
H16_2 H 0.8580 0.6844 0.3580
C23_2 C 0.83540(15) 0.83540(15) 0.13880(16)
C24_2 C 0.83540(15) 0.86120(16) 0.16460(15)
C31_2 C 0.86120(16) 0.66460(15) 0.33540(15)
C32_2 C 0.83540(15) 0.63880(16) 0.33540(15)
C33_2 C 0.83540(15) 0.66460(15) 0.36120(16)
C34_2 C 0.82430(17) 0.82430(17) 0.1225(2)
C35_2 C 0.82430(17) 0.8775(2) 0.17570(17)
C42_2 C 0.8775(2) 0.67570(17) 0.32430(17)
C43_2 C 0.82430(17) 0.6225(2) 0.32430(17)
C44_2 C 0.82430(17) 0.67570(17) 0.3775(2)
C45_2 C 0.80671(15) 0.83250(16) 0.11476(18)
C46_2 C 0.83250(16) 0.80671(15) 0.11476(18)
C47_2 C 0.88524(18) 0.83250(16) 0.19329(15)
C48_2 C 0.83250(16) 0.88524(18) 0.19329(15)
C49_2 C 0.80671(15) 0.88524(18) 0.16750(16)
C62_2 C 0.88524(18) 0.66750(16) 0.30671(15)
C63_2 C 0.80671(15) 0.61476(18) 0.33250(16)
C64_2 C 0.83250(16) 0.61476(18) 0.30671(15)
C65_2 C 0.88524(18) 0.69329(15) 0.33250(16)
C66_2 C 0.83250(16) 0.69329(15) 0.38524(18)
C67_2 C 0.80671(15) 0.66750(16) 0.38524(18)
H17_2 H 0.8013 0.8436 0.1204
H18_2 H 0.8436 0.8013 0.1204
H19_2 H 0.8796 0.8436 0.1987
H20_2 H 0.8436 0.8796 0.1987
H21_2 H 0.8013 0.8796 0.1564
H34_2 H 0.8796 0.6564 0.3013
H35_2 H 0.8013 0.6204 0.3436
H36_2 H 0.8436 0.6204 0.3013
H37_2 H 0.8796 0.6987 0.3436
H38_2 H 0.8436 0.6987 0.3796
H39_2 H 0.8013 0.6564 0.3796
C68_2 C 0.79759(19) 0.82347(17) 0.0984(2)
C69_2 C 0.82347(17) 0.79759(19) 0.0984(2)
C70_2 C 0.9016(2) 0.82347(17) 0.20241(19)
C71_2 C 0.82347(17) 0.9016(2) 0.20241(19)
C72_2 C 0.79759(19) 0.9016(2) 0.17653(17)
C85_2 C 0.9016(2) 0.67653(17) 0.29759(19)
C86_2 C 0.79759(19) 0.5984(2) 0.32347(17)
C87_2 C 0.82347(17) 0.5984(2) 0.29759(19)
C88_2 C 0.9016(2) 0.70241(19) 0.32347(17)
C89_2 C 0.82347(17) 0.70241(19) 0.4016(2)
C90_2 C 0.79759(19) 0.67653(17) 0.4016(2)
H40_2 H 0.7858 0.8281 0.0935
H41_2 H 0.8281 0.7858 0.0935
H42_2 H 0.9065 0.8281 0.2142
H43_2 H 0.8281 0.9065 0.2142
H44_2 H 0.7858 0.9065 0.1719
H57_2 H 0.9065 0.6719 0.2858
H58_2 H 0.7858 0.5935 0.3281
H59_2 H 0.8281 0.5935 0.2858
H60_2 H 0.9065 0.7142 0.3281
H61_2 H 0.8281 0.7142 0.4065
H62_2 H 0.7858 0.6719 0.4065
C91_2 C 0.80705(18) 0.80705(18) 0.0897(2)
C92_2 C 0.80705(18) 0.9103(2) 0.19295(18)
C99_2 C 0.9103(2) 0.69295(18) 0.30705(18)
C100_2 C 0.80705(18) 0.5897(2) 0.30705(18)
C101_2 C 0.80705(18) 0.69295(18) 0.4103(2)
C102_2 C 0.79795(12) 0.79795(12) 0.07159(17)
C103_2 C 0.79795(12) 0.92841(17) 0.20205(12)
C110_2 C 0.92841(17) 0.70205(12) 0.29795(12)
C111_2 C 0.79795(12) 0.57159(17) 0.29795(12)
C112_2 C 0.79795(12) 0.70205(12) 0.42841(17)
C113_2 C 0.78022(12) 0.80616(13) 0.06450(16)
C114_2 C 0.80616(13) 0.78022(12) 0.06450(16)
C115_2 C 0.93550(16) 0.80616(13) 0.21978(12)
C116_2 C 0.80616(13) 0.93550(16) 0.21978(12)
C117_2 C 0.78022(12) 0.93550(16) 0.19384(13)
C130_2 C 0.93550(16) 0.69384(13) 0.28022(12)
C131_2 C 0.78022(12) 0.56450(16) 0.30616(13)
C132_2 C 0.80616(13) 0.56450(16) 0.28022(12)
C133_2 C 0.93550(16) 0.71978(12) 0.30616(13)
C134_2 C 0.80616(13) 0.71978(12) 0.43550(16)
C135_2 C 0.78022(12) 0.69384(13) 0.43550(16)
H63_2 H 0.7752 0.8177 0.0698
H64_2 H 0.8177 0.7752 0.0698
H65_2 H 0.9302 0.8177 0.2248
H66_2 H 0.8177 0.9302 0.2248
H67_2 H 0.7752 0.9302 0.1823
H80_2 H 0.9302 0.6823 0.2752
H81_2 H 0.7752 0.5698 0.3177
H82_2 H 0.8177 0.5698 0.2752
H83_2 H 0.9302 0.7248 0.3177
H84_2 H 0.8177 0.7248 0.4302
H85_2 H 0.7752 0.6823 0.4302
C136_2 C 0.77027(15) 0.79621(14) 0.04903(16)
C137_2 C 0.79621(14) 0.77027(15) 0.04903(16)
C138_2 C 0.95097(16) 0.79621(14) 0.22973(15)
C139_2 C 0.79621(14) 0.95097(16) 0.22973(15)
C140_2 C 0.77027(15) 0.95097(16) 0.20379(14)
C153_2 C 0.95097(16) 0.70379(14) 0.27027(15)
C154_2 C 0.77027(15) 0.54903(16) 0.29621(14)
C155_2 C 0.79621(14) 0.54903(16) 0.27027(15)
C156_2 C 0.95097(16) 0.72973(15) 0.29621(14)
C157_2 C 0.79621(14) 0.72973(15) 0.45097(16)
C158_2 C 0.77027(15) 0.70379(14) 0.45097(16)
H86_2 H 0.7584 0.8009 0.0444
H87_2 H 0.8009 0.7584 0.0444
H88_2 H 0.9556 0.8009 0.2416
H89_2 H 0.8009 0.9556 0.2416
H90_2 H 0.7584 0.9556 0.1991
H103_2 H 0.9556 0.6991 0.2584
H104_2 H 0.7584 0.5444 0.3009
H105_2 H 0.8009 0.5444 0.2584
H106_2 H 0.9556 0.7416 0.3009
H107_2 H 0.8009 0.7416 0.4556
H108_2 H 0.7584 0.6991 0.4556
C159_2 C 0.77891(15) 0.77891(15) 0.0408(2)
C160_2 C 0.77891(15) 0.9592(2) 0.22109(15)
C167_2 C 0.9592(2) 0.72109(15) 0.27891(15)
C168_2 C 0.77891(15) 0.5408(2) 0.27891(15)
C169_2 C 0.77891(15) 0.72109(15) 0.4592(2)
C170_2 C 0.76746(18) 0.76746(18) 0.0252(2)
C171_2 C 0.76746(18) 0.9748(2) 0.23254(18)
C178_2 C 0.9748(2) 0.73254(18) 0.26746(18)
C179_2 C 0.76746(18) 0.5252(2) 0.26746(18)
C180_2 C 0.76746(18) 0.73254(18) 0.4748(2)
Cu3_4 Cu 0.73636(3) 0.76364(3) 1.0000
Cu4_4 Cu 0.76364(3) 0.73636(3) 1.0000
O26_2 O 0.72427(10) 0.74768(9) 0.98056(9)
O27_2 O 0.75232(9) 0.77573(10) 0.98056(9)
O29_2 O 0.74768(9) 0.72427(10) 0.98056(9)
O30_2 O 0.77573(10) 0.75232(9) 0.98056(9)
O39_4 O 0.71154(9) 0.78846(9) 1.0000
O40_4 O 0.78846(9) 0.71154(9) 1.0000
Cu1_5 Cu 0.0000 0.26364(3) 0.76364(3)
O2_5 O -0.0000 0.28846(9) 0.78846(9)
Cu2_5 Cu -0.0000 0.23636(3) 0.73636(3)
Cu7_2 Cu 0.26364(3) 0.5000 0.73636(3)
Cu8_2 Cu 0.23636(3) 0.5000 0.76364(3)
Cu13_3 Cu 0.23636(3) -0.0000 0.73636(3)
Cu14_3 Cu 0.26364(3) -0.0000 0.76364(3)
O8_3 O 0.01944(9) 0.27573(10) 0.74768(9)
O9_3 O 0.01944(9) 0.25232(9) 0.72427(10)
O10_3 O 0.24768(9) 0.48056(9) 0.72427(10)
O11_3 O 0.22427(10) 0.48056(9) 0.74768(9)
O12_3 O 0.22427(10) 0.25232(9) 0.51944(9)
O13_3 O 0.24768(9) 0.27573(10) 0.51944(9)
O14_3 O 0.01944(9) 0.24768(9) 0.77573(10)
O15_3 O 0.01944(9) 0.22427(10) 0.75232(9)
O18_2 O 0.22427(10) 0.01944(9) 0.75232(9)
O19_2 O 0.24768(9) 0.01944(9) 0.77573(10)
O38_5 O 0.0000 0.21154(9) 0.71154(9)
C14_3 C 0.14749(14) 0.35251(14) 0.67323(16)
C15_3 C 0.17323(16) 0.35251(14) 0.64749(14)
C16_3 C 0.14749(14) 0.32677(16) 0.64749(14)
C17_3 C 0.14749(14) 0.17323(16) 0.85251(14)
C18_3 C 0.17323(16) 0.14749(14) 0.85251(14)
C19_3 C 0.14749(14) 0.14749(14) 0.82677(16)
H8_3 H 0.1420 0.3580 0.6844
H9_3 H 0.1844 0.3580 0.6420
H10_3 H 0.1420 0.3156 0.6420
H11_3 H 0.1420 0.1844 0.8580
H12_3 H 0.1844 0.1420 0.8580
H13_3 H 0.1420 0.1420 0.8156
C25_3 C 0.13880(16) 0.33540(15) 0.66460(15)
C26_3 C 0.16460(15) 0.36120(16) 0.66460(15)
C27_3 C 0.16460(15) 0.33540(15) 0.63880(16)
C28_3 C 0.13880(16) 0.16460(15) 0.83540(15)
C29_3 C 0.16460(15) 0.16460(15) 0.86120(16)
C30_3 C 0.16460(15) 0.13880(16) 0.83540(15)
C36_3 C 0.1225(2) 0.32430(17) 0.67570(17)
C37_3 C 0.17570(17) 0.3775(2) 0.67570(17)
C38_3 C 0.17570(17) 0.32430(17) 0.6225(2)
C39_3 C 0.1225(2) 0.17570(17) 0.82430(17)
C40_3 C 0.17570(17) 0.17570(17) 0.8775(2)
C41_3 C 0.17570(17) 0.1225(2) 0.82430(17)
C50_3 C 0.11476(18) 0.33250(16) 0.69329(15)
C51_3 C 0.19329(15) 0.38524(18) 0.66750(16)
C52_3 C 0.16750(16) 0.38524(18) 0.69329(15)
C53_3 C 0.11476(18) 0.30671(15) 0.66750(16)
C54_3 C 0.16750(16) 0.30671(15) 0.61476(18)
C55_3 C 0.19329(15) 0.33250(16) 0.61476(18)
C56_3 C 0.11476(18) 0.19329(15) 0.83250(16)
C57_3 C 0.19329(15) 0.16750(16) 0.88524(18)
C58_3 C 0.16750(16) 0.19329(15) 0.88524(18)
C59_3 C 0.11476(18) 0.16750(16) 0.80671(15)
C60_3 C 0.16750(16) 0.11476(18) 0.80671(15)
C61_3 C 0.19329(15) 0.11476(18) 0.83250(16)
H22_3 H 0.1204 0.3436 0.6987
H23_3 H 0.1987 0.3796 0.6564
H24_3 H 0.1564 0.3796 0.6987
H25_3 H 0.1204 0.3013 0.6564
H26_3 H 0.1564 0.3013 0.6204
H27_3 H 0.1987 0.3436 0.6204
H28_3 H 0.1204 0.1987 0.8436
H29_3 H 0.1987 0.1564 0.8796
H30_3 H 0.1564 0.1987 0.8796
H31_3 H 0.1204 0.1564 0.8013
H32_3 H 0.1564 0.1204 0.8013
H33_3 H 0.1987 0.1204 0.8436
C73_3 C 0.0984(2) 0.32347(17) 0.70241(19)
C74_3 C 0.20241(19) 0.4016(2) 0.67653(17)
C75_3 C 0.17653(17) 0.4016(2) 0.70241(19)
C76_3 C 0.0984(2) 0.29759(19) 0.67653(17)
C77_3 C 0.17653(17) 0.29759(19) 0.5984(2)
C78_3 C 0.20241(19) 0.32347(17) 0.5984(2)
C79_3 C 0.0984(2) 0.20241(19) 0.82347(17)
C80_3 C 0.20241(19) 0.17653(17) 0.9016(2)
C81_3 C 0.17653(17) 0.20241(19) 0.9016(2)
C82_3 C 0.0984(2) 0.17653(17) 0.79759(19)
C83_3 C 0.17653(17) 0.0984(2) 0.79759(19)
C84_3 C 0.20241(19) 0.0984(2) 0.82347(17)
H45_3 H 0.0935 0.3281 0.7142
H46_3 H 0.2142 0.4065 0.6719
H47_3 H 0.1719 0.4065 0.7142
H48_3 H 0.0935 0.2858 0.6719
H49_3 H 0.1719 0.2858 0.5935
H50_3 H 0.2142 0.3281 0.5935
H51_3 H 0.0935 0.2142 0.8281
H52_3 H 0.2142 0.1719 0.9065
H53_3 H 0.1719 0.2142 0.9065
H54_3 H 0.0935 0.1719 0.7858
H55_3 H 0.1719 0.0935 0.7858
H56_3 H 0.2142 0.0935 0.8281
C93_3 C 0.0897(2) 0.30705(18) 0.69295(18)
C94_3 C 0.19295(18) 0.4103(2) 0.69295(18)
C95_3 C 0.19295(18) 0.30705(18) 0.5897(2)
C96_3 C 0.0897(2) 0.19295(18) 0.80705(18)
C97_3 C 0.19295(18) 0.19295(18) 0.9103(2)
C98_3 C 0.19295(18) 0.0897(2) 0.80705(18)
C104_3 C 0.07159(17) 0.29795(12) 0.70205(12)
C105_3 C 0.20205(12) 0.42841(17) 0.70205(12)
C106_3 C 0.20205(12) 0.29795(12) 0.57159(17)
C107_3 C 0.07159(17) 0.20205(12) 0.79795(12)
C108_3 C 0.20205(12) 0.20205(12) 0.92841(17)
C109_3 C 0.20205(12) 0.07159(17) 0.79795(12)
C118_3 C 0.06450(16) 0.30616(13) 0.71978(12)
C119_3 C 0.21978(12) 0.43550(16) 0.69384(13)
C120_3 C 0.19384(13) 0.43550(16) 0.71978(12)
C121_3 C 0.06450(16) 0.28022(12) 0.69384(13)
C122_3 C 0.19384(13) 0.28022(12) 0.56450(16)
C123_3 C 0.21978(12) 0.30616(13) 0.56450(16)
C124_3 C 0.06450(16) 0.21978(12) 0.80616(13)
C125_3 C 0.21978(12) 0.19384(13) 0.93550(16)
C126_3 C 0.19384(13) 0.21978(12) 0.93550(16)
C127_3 C 0.06450(16) 0.19384(13) 0.78022(12)
C128_3 C 0.19384(13) 0.06450(16) 0.78022(12)
C129_3 C 0.21978(12) 0.06450(16) 0.80616(13)
H68_3 H 0.0698 0.3177 0.7248
H69_3 H 0.2248 0.4302 0.6823
H70_3 H 0.1823 0.4302 0.7248
H71_3 H 0.0698 0.2752 0.6823
H72_3 H 0.1823 0.2752 0.5698
H73_3 H 0.2248 0.3177 0.5698
H74_3 H 0.0698 0.2248 0.8177
H75_3 H 0.2248 0.1823 0.9302
H76_3 H 0.1823 0.2248 0.9302
H77_3 H 0.0698 0.1823 0.7752
H78_3 H 0.1823 0.0698 0.7752
H79_3 H 0.2248 0.0698 0.8177
C141_3 C 0.04903(16) 0.29621(14) 0.72973(15)
C142_3 C 0.22973(15) 0.45097(16) 0.70379(14)
C143_3 C 0.20379(14) 0.45097(16) 0.72973(15)
C144_3 C 0.04903(16) 0.27027(15) 0.70379(14)
C145_3 C 0.20379(14) 0.27027(15) 0.54903(16)
C146_3 C 0.22973(15) 0.29621(14) 0.54903(16)
C147_3 C 0.04903(16) 0.22973(15) 0.79621(14)
C148_3 C 0.22973(15) 0.20379(14) 0.95097(16)
C149_3 C 0.20379(14) 0.22973(15) 0.95097(16)
C150_3 C 0.04903(16) 0.20379(14) 0.77027(15)
C151_3 C 0.20379(14) 0.04903(16) 0.77027(15)
C152_3 C 0.22973(15) 0.04903(16) 0.79621(14)
H91_3 H 0.0444 0.3009 0.7416
H92_3 H 0.2416 0.4556 0.6991
H93_3 H 0.1991 0.4556 0.7416
H94_3 H 0.0444 0.2584 0.6991
H95_3 H 0.1991 0.2584 0.5444
H96_3 H 0.2416 0.3009 0.5444
H97_3 H 0.0444 0.2416 0.8009
H98_3 H 0.2416 0.1991 0.9556
H99_3 H 0.1991 0.2416 0.9556
H100_3 H 0.0444 0.1991 0.7584
H101_3 H 0.1991 0.0444 0.7584
H102_3 H 0.2416 0.0444 0.8009
C161_3 C 0.0408(2) 0.27891(15) 0.72109(15)
C162_3 C 0.22109(15) 0.4592(2) 0.72109(15)
C163_3 C 0.22109(15) 0.27891(15) 0.5408(2)
C164_3 C 0.0408(2) 0.22109(15) 0.77891(15)
C165_3 C 0.22109(15) 0.22109(15) 0.9592(2)
C166_3 C 0.22109(15) 0.0408(2) 0.77891(15)
C172_3 C 0.0252(2) 0.26746(18) 0.73254(18)
C173_3 C 0.23254(18) 0.4748(2) 0.73254(18)
C174_3 C 0.23254(18) 0.26746(18) 0.5252(2)
C175_3 C 0.0252(2) 0.23254(18) 0.76746(18)
C176_3 C 0.23254(18) 0.23254(18) 0.9748(2)
C177_3 C 0.23254(18) 0.0252(2) 0.76746(18)
Cu13_4 Cu 0.23636(3) 1.0000 0.73636(3)
Cu14_4 Cu 0.26364(3) 1.0000 0.76364(3)
O26_3 O 0.72427(10) 0.25232(9) 0.01944(9)
O29_3 O 0.74768(9) 0.27573(10) 0.01944(9)
O39_5 O 0.71154(9) 0.21154(9) 0.0000
O40_5 O 0.78846(9) 0.28846(9) 0.0000
Cu1_6 Cu 1.0000 0.26364(3) 0.76364(3)
O1_3 O 0.98056(9) 0.24768(9) 0.77573(10)
O2_6 O 1.0000 0.28846(9) 0.78846(9)
C1_3 C 0.85251(14) 0.17323(16) 0.85251(14)
H1_3 H 0.8580 0.1844 0.8580
C2_3 C 0.86120(16) 0.16460(15) 0.83540(15)
C3_3 C 0.8775(2) 0.17570(17) 0.82430(17)
C4_3 C 0.88524(18) 0.19329(15) 0.83250(16)
H2_3 H 0.8796 0.1987 0.8436
C5_3 C 0.9016(2) 0.20241(19) 0.82347(17)
H3_3 H 0.9065 0.2142 0.8281
C6_3 C 0.9103(2) 0.19295(18) 0.80705(18)
C7_3 C 0.92841(17) 0.20205(12) 0.79795(12)
C8_3 C 0.93550(16) 0.21978(12) 0.80616(13)
H4_3 H 0.9302 0.2248 0.8177
C9_3 C 0.95097(16) 0.22973(15) 0.79621(14)
H5_3 H 0.9556 0.2416 0.8009
C10_3 C 0.9592(2) 0.22109(15) 0.77891(15)
C11_3 C 0.9748(2) 0.23254(18) 0.76746(18)
Cu2_6 Cu 1.0000 0.23636(3) 0.73636(3)
Cu5_3 Cu 0.76364(3) -0.0000 0.73636(3)
Cu6_3 Cu 0.73636(3) -0.0000 0.76364(3)
Cu15_2 Cu 0.73636(3) 0.5000 0.73636(3)
Cu16_2 Cu 0.76364(3) 0.5000 0.76364(3)
O3_3 O 0.98056(9) 0.22427(10) 0.75232(9)
O4_3 O 0.75232(9) 0.22427(10) 0.98056(9)
O5_3 O 0.77573(10) 0.24768(9) 0.98056(9)
O6_3 O 0.77573(10) 0.01944(9) 0.75232(9)
O7_3 O 0.75232(9) 0.01944(9) 0.77573(10)
O20_3 O 0.98056(9) 0.27573(10) 0.74768(9)
O21_3 O 0.98056(9) 0.25232(9) 0.72427(10)
O22_3 O 0.75232(9) 0.48056(9) 0.72427(10)
O23_3 O 0.77573(10) 0.48056(9) 0.74768(9)
O24_3 O 0.77573(10) 0.25232(9) 0.51944(9)
O25_3 O 0.75232(9) 0.27573(10) 0.51944(9)
O28_3 O 0.72427(10) 0.25232(9) 0.98056(9)
O31_3 O 0.74768(9) 0.27573(10) 0.98056(9)
O34_3 O 0.74768(9) 0.01944(9) 0.72427(10)
O37_3 O 0.72427(10) 0.01944(9) 0.74768(9)
O38_6 O 1.0000 0.21154(9) 0.71154(9)
O39_6 O 0.71154(9) 0.21154(9) 1.0000
O40_6 O 0.78846(9) 0.28846(9) 1.0000
O41_5 O 0.78846(9) -0.0000 0.71154(9)
O42_5 O 0.71154(9) -0.0000 0.78846(9)
C12_3 C 0.82677(16) 0.14749(14) 0.85251(14)
C13_3 C 0.85251(14) 0.14749(14) 0.82677(16)
C20_3 C 0.85251(14) 0.35251(14) 0.67323(16)
C21_3 C 0.82677(16) 0.35251(14) 0.64749(14)
C22_3 C 0.85251(14) 0.32677(16) 0.64749(14)
H6_3 H 0.8156 0.1420 0.8580
H7_3 H 0.8580 0.1420 0.8156
H14_3 H 0.8580 0.3580 0.6844
H15_3 H 0.8156 0.3580 0.6420
H16_3 H 0.8580 0.3156 0.6420
C23_3 C 0.83540(15) 0.16460(15) 0.86120(16)
C24_3 C 0.83540(15) 0.13880(16) 0.83540(15)
C31_3 C 0.86120(16) 0.33540(15) 0.66460(15)
C32_3 C 0.83540(15) 0.36120(16) 0.66460(15)
C33_3 C 0.83540(15) 0.33540(15) 0.63880(16)
C34_3 C 0.82430(17) 0.17570(17) 0.8775(2)
C35_3 C 0.82430(17) 0.1225(2) 0.82430(17)
C42_3 C 0.8775(2) 0.32430(17) 0.67570(17)
C43_3 C 0.82430(17) 0.3775(2) 0.67570(17)
C44_3 C 0.82430(17) 0.32430(17) 0.6225(2)
C45_3 C 0.80671(15) 0.16750(16) 0.88524(18)
C46_3 C 0.83250(16) 0.19329(15) 0.88524(18)
C47_3 C 0.88524(18) 0.16750(16) 0.80671(15)
C48_3 C 0.83250(16) 0.11476(18) 0.80671(15)
C49_3 C 0.80671(15) 0.11476(18) 0.83250(16)
C62_3 C 0.88524(18) 0.33250(16) 0.69329(15)
C63_3 C 0.80671(15) 0.38524(18) 0.66750(16)
C64_3 C 0.83250(16) 0.38524(18) 0.69329(15)
C65_3 C 0.88524(18) 0.30671(15) 0.66750(16)
C66_3 C 0.83250(16) 0.30671(15) 0.61476(18)
C67_3 C 0.80671(15) 0.33250(16) 0.61476(18)
H17_3 H 0.8013 0.1564 0.8796
H18_3 H 0.8436 0.1987 0.8796
H19_3 H 0.8796 0.1564 0.8013
H20_3 H 0.8436 0.1204 0.8013
H21_3 H 0.8013 0.1204 0.8436
H34_3 H 0.8796 0.3436 0.6987
H35_3 H 0.8013 0.3796 0.6564
H36_3 H 0.8436 0.3796 0.6987
H37_3 H 0.8796 0.3013 0.6564
H38_3 H 0.8436 0.3013 0.6204
H39_3 H 0.8013 0.3436 0.6204
C68_3 C 0.79759(19) 0.17653(17) 0.9016(2)
C69_3 C 0.82347(17) 0.20241(19) 0.9016(2)
C70_3 C 0.9016(2) 0.17653(17) 0.79759(19)
C71_3 C 0.82347(17) 0.0984(2) 0.79759(19)
C72_3 C 0.79759(19) 0.0984(2) 0.82347(17)
C85_3 C 0.9016(2) 0.32347(17) 0.70241(19)
C86_3 C 0.79759(19) 0.4016(2) 0.67653(17)
C87_3 C 0.82347(17) 0.4016(2) 0.70241(19)
C88_3 C 0.9016(2) 0.29759(19) 0.67653(17)
C89_3 C 0.82347(17) 0.29759(19) 0.5984(2)
C90_3 C 0.79759(19) 0.32347(17) 0.5984(2)
H40_3 H 0.7858 0.1719 0.9065
H41_3 H 0.8281 0.2142 0.9065
H42_3 H 0.9065 0.1719 0.7858
H43_3 H 0.8281 0.0935 0.7858
H44_3 H 0.7858 0.0935 0.8281
H57_3 H 0.9065 0.3281 0.7142
H58_3 H 0.7858 0.4065 0.6719
H59_3 H 0.8281 0.4065 0.7142
H60_3 H 0.9065 0.2858 0.6719
H61_3 H 0.8281 0.2858 0.5935
H62_3 H 0.7858 0.3281 0.5935
C91_3 C 0.80705(18) 0.19295(18) 0.9103(2)
C92_3 C 0.80705(18) 0.0897(2) 0.80705(18)
C99_3 C 0.9103(2) 0.30705(18) 0.69295(18)
C100_3 C 0.80705(18) 0.4103(2) 0.69295(18)
C101_3 C 0.80705(18) 0.30705(18) 0.5897(2)
C102_3 C 0.79795(12) 0.20205(12) 0.92841(17)
C103_3 C 0.79795(12) 0.07159(17) 0.79795(12)
C110_3 C 0.92841(17) 0.29795(12) 0.70205(12)
C111_3 C 0.79795(12) 0.42841(17) 0.70205(12)
C112_3 C 0.79795(12) 0.29795(12) 0.57159(17)
C113_3 C 0.78022(12) 0.19384(13) 0.93550(16)
C114_3 C 0.80616(13) 0.21978(12) 0.93550(16)
C115_3 C 0.93550(16) 0.19384(13) 0.78022(12)
C116_3 C 0.80616(13) 0.06450(16) 0.78022(12)
C117_3 C 0.78022(12) 0.06450(16) 0.80616(13)
C130_3 C 0.93550(16) 0.30616(13) 0.71978(12)
C131_3 C 0.78022(12) 0.43550(16) 0.69384(13)
C132_3 C 0.80616(13) 0.43550(16) 0.71978(12)
C133_3 C 0.93550(16) 0.28022(12) 0.69384(13)
C134_3 C 0.80616(13) 0.28022(12) 0.56450(16)
C135_3 C 0.78022(12) 0.30616(13) 0.56450(16)
H63_3 H 0.7752 0.1823 0.9302
H64_3 H 0.8177 0.2248 0.9302
H65_3 H 0.9302 0.1823 0.7752
H66_3 H 0.8177 0.0698 0.7752
H67_3 H 0.7752 0.0698 0.8177
H80_3 H 0.9302 0.3177 0.7248
H81_3 H 0.7752 0.4302 0.6823
H82_3 H 0.8177 0.4302 0.7248
H83_3 H 0.9302 0.2752 0.6823
H84_3 H 0.8177 0.2752 0.5698
H85_3 H 0.7752 0.3177 0.5698
C136_3 C 0.77027(15) 0.20379(14) 0.95097(16)
C137_3 C 0.79621(14) 0.22973(15) 0.95097(16)
C138_3 C 0.95097(16) 0.20379(14) 0.77027(15)
C139_3 C 0.79621(14) 0.04903(16) 0.77027(15)
C140_3 C 0.77027(15) 0.04903(16) 0.79621(14)
C153_3 C 0.95097(16) 0.29621(14) 0.72973(15)
C154_3 C 0.77027(15) 0.45097(16) 0.70379(14)
C155_3 C 0.79621(14) 0.45097(16) 0.72973(15)
C156_3 C 0.95097(16) 0.27027(15) 0.70379(14)
C157_3 C 0.79621(14) 0.27027(15) 0.54903(16)
C158_3 C 0.77027(15) 0.29621(14) 0.54903(16)
H86_3 H 0.7584 0.1991 0.9556
H87_3 H 0.8009 0.2416 0.9556
H88_3 H 0.9556 0.1991 0.7584
H89_3 H 0.8009 0.0444 0.7584
H90_3 H 0.7584 0.0444 0.8009
H103_3 H 0.9556 0.3009 0.7416
H104_3 H 0.7584 0.4556 0.6991
H105_3 H 0.8009 0.4556 0.7416
H106_3 H 0.9556 0.2584 0.6991
H107_3 H 0.8009 0.2584 0.5444
H108_3 H 0.7584 0.3009 0.5444
C159_3 C 0.77891(15) 0.22109(15) 0.9592(2)
C160_3 C 0.77891(15) 0.0408(2) 0.77891(15)
C167_3 C 0.9592(2) 0.27891(15) 0.72109(15)
C168_3 C 0.77891(15) 0.4592(2) 0.72109(15)
C169_3 C 0.77891(15) 0.27891(15) 0.5408(2)
C170_3 C 0.76746(18) 0.23254(18) 0.9748(2)
C171_3 C 0.76746(18) 0.0252(2) 0.76746(18)
C178_3 C 0.9748(2) 0.26746(18) 0.73254(18)
C179_3 C 0.76746(18) 0.4748(2) 0.73254(18)
C180_3 C 0.76746(18) 0.26746(18) 0.5252(2)
Cu5_4 Cu 0.76364(3) 1.0000 0.73636(3)
Cu6_4 Cu 0.73636(3) 1.0000 0.76364(3)
O32_3 O 0.74768(9) 0.98056(9) 0.72427(10)
O33_2 O 0.77573(10) 0.98056(9) 0.75232(9)
O35_3 O 0.72427(10) 0.98056(9) 0.74768(9)
O36_2 O 0.75232(9) 0.98056(9) 0.77573(10)
O41_6 O 0.78846(9) 1.0000 0.71154(9)
O42_6 O 0.71154(9) 1.0000 0.78846(9)
O32_4 O 0.25232(9) 0.01944(9) 0.72427(10)
O35_4 O 0.27573(10) 0.01944(9) 0.74768(9)
O41_7 O 0.21154(9) 0.0000 0.71154(9)
O42_7 O 0.28846(9) -0.0000 0.78846(9)
O26_4 O 0.27573(10) 0.74768(9) 0.01944(9)
O29_4 O 0.25232(9) 0.72427(10) 0.01944(9)
O39_7 O 0.28846(9) 0.78846(9) 0.0000
O40_7 O 0.21154(9) 0.71154(9) 0.0000
Cu1_7 Cu -0.0000 0.73636(3) 0.76364(3)
O1_4 O 0.01944(9) 0.75232(9) 0.77573(10)
O2_7 O -0.0000 0.71154(9) 0.78846(9)
C1_4 C 0.14749(14) 0.82677(16) 0.85251(14)
H1_4 H 0.1420 0.8156 0.8580
C2_4 C 0.13880(16) 0.83540(15) 0.83540(15)
C3_4 C 0.1225(2) 0.82430(17) 0.82430(17)
C4_4 C 0.11476(18) 0.80671(15) 0.83250(16)
H2_4 H 0.1204 0.8013 0.8436
C5_4 C 0.0984(2) 0.79759(19) 0.82347(17)
H3_4 H 0.0935 0.7858 0.8281
C6_4 C 0.0897(2) 0.80705(18) 0.80705(18)
C7_4 C 0.07159(17) 0.79795(12) 0.79795(12)
C8_4 C 0.06450(16) 0.78022(12) 0.80616(13)
H4_4 H 0.0698 0.7752 0.8177
C9_4 C 0.04903(16) 0.77027(15) 0.79621(14)
H5_4 H 0.0444 0.7584 0.8009
C10_4 C 0.0408(2) 0.77891(15) 0.77891(15)
C11_4 C 0.0252(2) 0.76746(18) 0.76746(18)
Cu2_7 Cu -0.0000 0.76364(3) 0.73636(3)
O3_4 O 0.01944(9) 0.77573(10) 0.75232(9)
O4_4 O 0.24768(9) 0.77573(10) 0.98056(9)
O5_4 O 0.22427(10) 0.75232(9) 0.98056(9)
O6_4 O 0.22427(10) 0.98056(9) 0.75232(9)
O7_4 O 0.24768(9) 0.98056(9) 0.77573(10)
O20_4 O 0.01944(9) 0.72427(10) 0.74768(9)
O21_4 O 0.01944(9) 0.74768(9) 0.72427(10)
O22_4 O 0.24768(9) 0.51944(9) 0.72427(10)
O23_4 O 0.22427(10) 0.51944(9) 0.74768(9)
O24_4 O 0.22427(10) 0.74768(9) 0.51944(9)
O25_4 O 0.24768(9) 0.72427(10) 0.51944(9)
O28_4 O 0.27573(10) 0.74768(9) 0.98056(9)
O31_4 O 0.25232(9) 0.72427(10) 0.98056(9)
O34_4 O 0.25232(9) 0.98056(9) 0.72427(10)
O37_4 O 0.27573(10) 0.98056(9) 0.74768(9)
O38_7 O -0.0000 0.78846(9) 0.71154(9)
O39_8 O 0.28846(9) 0.78846(9) 1.0000
O40_8 O 0.21154(9) 0.71154(9) 1.0000
O41_8 O 0.21154(9) 1.0000 0.71154(9)
O42_8 O 0.28846(9) 1.0000 0.78846(9)
C12_4 C 0.17323(16) 0.85251(14) 0.85251(14)
C13_4 C 0.14749(14) 0.85251(14) 0.82677(16)
C20_4 C 0.14749(14) 0.64749(14) 0.67323(16)
C21_4 C 0.17323(16) 0.64749(14) 0.64749(14)
C22_4 C 0.14749(14) 0.67323(16) 0.64749(14)
H6_4 H 0.1844 0.8580 0.8580
H7_4 H 0.1420 0.8580 0.8156
H14_4 H 0.1420 0.6420 0.6844
H15_4 H 0.1844 0.6420 0.6420
H16_4 H 0.1420 0.6844 0.6420
C23_4 C 0.16460(15) 0.83540(15) 0.86120(16)
C24_4 C 0.16460(15) 0.86120(16) 0.83540(15)
C31_4 C 0.13880(16) 0.66460(15) 0.66460(15)
C32_4 C 0.16460(15) 0.63880(16) 0.66460(15)
C33_4 C 0.16460(15) 0.66460(15) 0.63880(16)
C34_4 C 0.17570(17) 0.82430(17) 0.8775(2)
C35_4 C 0.17570(17) 0.8775(2) 0.82430(17)
C42_4 C 0.1225(2) 0.67570(17) 0.67570(17)
C43_4 C 0.17570(17) 0.6225(2) 0.67570(17)
C44_4 C 0.17570(17) 0.67570(17) 0.6225(2)
C45_4 C 0.19329(15) 0.83250(16) 0.88524(18)
C46_4 C 0.16750(16) 0.80671(15) 0.88524(18)
C47_4 C 0.11476(18) 0.83250(16) 0.80671(15)
C48_4 C 0.16750(16) 0.88524(18) 0.80671(15)
C49_4 C 0.19329(15) 0.88524(18) 0.83250(16)
C62_4 C 0.11476(18) 0.66750(16) 0.69329(15)
C63_4 C 0.19329(15) 0.61476(18) 0.66750(16)
C64_4 C 0.16750(16) 0.61476(18) 0.69329(15)
C65_4 C 0.11476(18) 0.69329(15) 0.66750(16)
C66_4 C 0.16750(16) 0.69329(15) 0.61476(18)
C67_4 C 0.19329(15) 0.66750(16) 0.61476(18)
H17_4 H 0.1987 0.8436 0.8796
H18_4 H 0.1564 0.8013 0.8796
H19_4 H 0.1204 0.8436 0.8013
H20_4 H 0.1564 0.8796 0.8013
H21_4 H 0.1987 0.8796 0.8436
H34_4 H 0.1204 0.6564 0.6987
H35_4 H 0.1987 0.6204 0.6564
H36_4 H 0.1564 0.6204 0.6987
H37_4 H 0.1204 0.6987 0.6564
H38_4 H 0.1564 0.6987 0.6204
H39_4 H 0.1987 0.6564 0.6204
C68_4 C 0.20241(19) 0.82347(17) 0.9016(2)
C69_4 C 0.17653(17) 0.79759(19) 0.9016(2)
C70_4 C 0.0984(2) 0.82347(17) 0.79759(19)
C71_4 C 0.17653(17) 0.9016(2) 0.79759(19)
C72_4 C 0.20241(19) 0.9016(2) 0.82347(17)
C85_4 C 0.0984(2) 0.67653(17) 0.70241(19)
C86_4 C 0.20241(19) 0.5984(2) 0.67653(17)
C87_4 C 0.17653(17) 0.5984(2) 0.70241(19)
C88_4 C 0.0984(2) 0.70241(19) 0.67653(17)
C89_4 C 0.17653(17) 0.70241(19) 0.5984(2)
C90_4 C 0.20241(19) 0.67653(17) 0.5984(2)
H40_4 H 0.2142 0.8281 0.9065
H41_4 H 0.1719 0.7858 0.9065
H42_4 H 0.0935 0.8281 0.7858
H43_4 H 0.1719 0.9065 0.7858
H44_4 H 0.2142 0.9065 0.8281
H57_4 H 0.0935 0.6719 0.7142
H58_4 H 0.2142 0.5935 0.6719
H59_4 H 0.1719 0.5935 0.7142
H60_4 H 0.0935 0.7142 0.6719
H61_4 H 0.1719 0.7142 0.5935
H62_4 H 0.2142 0.6719 0.5935
C91_4 C 0.19295(18) 0.80705(18) 0.9103(2)
C92_4 C 0.19295(18) 0.9103(2) 0.80705(18)
C99_4 C 0.0897(2) 0.69295(18) 0.69295(18)
C100_4 C 0.19295(18) 0.5897(2) 0.69295(18)
C101_4 C 0.19295(18) 0.69295(18) 0.5897(2)
C102_4 C 0.20205(12) 0.79795(12) 0.92841(17)
C103_4 C 0.20205(12) 0.92841(17) 0.79795(12)
C110_4 C 0.07159(17) 0.70205(12) 0.70205(12)
C111_4 C 0.20205(12) 0.57159(17) 0.70205(12)
C112_4 C 0.20205(12) 0.70205(12) 0.57159(17)
C113_4 C 0.21978(12) 0.80616(13) 0.93550(16)
C114_4 C 0.19384(13) 0.78022(12) 0.93550(16)
C115_4 C 0.06450(16) 0.80616(13) 0.78022(12)
C116_4 C 0.19384(13) 0.93550(16) 0.78022(12)
C117_4 C 0.21978(12) 0.93550(16) 0.80616(13)
C130_4 C 0.06450(16) 0.69384(13) 0.71978(12)
C131_4 C 0.21978(12) 0.56450(16) 0.69384(13)
C132_4 C 0.19384(13) 0.56450(16) 0.71978(12)
C133_4 C 0.06450(16) 0.71978(12) 0.69384(13)
C134_4 C 0.19384(13) 0.71978(12) 0.56450(16)
C135_4 C 0.21978(12) 0.69384(13) 0.56450(16)
H63_4 H 0.2248 0.8177 0.9302
H64_4 H 0.1823 0.7752 0.9302
H65_4 H 0.0698 0.8177 0.7752
H66_4 H 0.1823 0.9302 0.7752
H67_4 H 0.2248 0.9302 0.8177
H80_4 H 0.0698 0.6823 0.7248
H81_4 H 0.2248 0.5698 0.6823
H82_4 H 0.1823 0.5698 0.7248
H83_4 H 0.0698 0.7248 0.6823
H84_4 H 0.1823 0.7248 0.5698
H85_4 H 0.2248 0.6823 0.5698
C136_4 C 0.22973(15) 0.79621(14) 0.95097(16)
C137_4 C 0.20379(14) 0.77027(15) 0.95097(16)
C138_4 C 0.04903(16) 0.79621(14) 0.77027(15)
C139_4 C 0.20379(14) 0.95097(16) 0.77027(15)
C140_4 C 0.22973(15) 0.95097(16) 0.79621(14)
C153_4 C 0.04903(16) 0.70379(14) 0.72973(15)
C154_4 C 0.22973(15) 0.54903(16) 0.70379(14)
C155_4 C 0.20379(14) 0.54903(16) 0.72973(15)
C156_4 C 0.04903(16) 0.72973(15) 0.70379(14)
C157_4 C 0.20379(14) 0.72973(15) 0.54903(16)
C158_4 C 0.22973(15) 0.70379(14) 0.54903(16)
H86_4 H 0.2416 0.8009 0.9556
H87_4 H 0.1991 0.7584 0.9556
H88_4 H 0.0444 0.8009 0.7584
H89_4 H 0.1991 0.9556 0.7584
H90_4 H 0.2416 0.9556 0.8009
H103_4 H 0.0444 0.6991 0.7416
H104_4 H 0.2416 0.5444 0.6991
H105_4 H 0.1991 0.5444 0.7416
H106_4 H 0.0444 0.7416 0.6991
H107_4 H 0.1991 0.7416 0.5444
H108_4 H 0.2416 0.6991 0.5444
C159_4 C 0.22109(15) 0.77891(15) 0.9592(2)
C160_4 C 0.22109(15) 0.9592(2) 0.77891(15)
C167_4 C 0.0408(2) 0.72109(15) 0.72109(15)
C168_4 C 0.22109(15) 0.5408(2) 0.72109(15)
C169_4 C 0.22109(15) 0.72109(15) 0.5408(2)
C170_4 C 0.23254(18) 0.76746(18) 0.9748(2)
C171_4 C 0.23254(18) 0.9748(2) 0.76746(18)
C178_4 C 0.0252(2) 0.73254(18) 0.73254(18)
C179_4 C 0.23254(18) 0.5252(2) 0.73254(18)
C180_4 C 0.23254(18) 0.73254(18) 0.5252(2)
Cu1_8 Cu 1.0000 0.73636(3) 0.76364(3)
O2_8 O 1.0000 0.71154(9) 0.78846(9)
Cu2_8 Cu 1.0000 0.76364(3) 0.73636(3)
O8_4 O 0.98056(9) 0.72427(10) 0.74768(9)
O9_4 O 0.98056(9) 0.74768(9) 0.72427(10)
O10_4 O 0.75232(9) 0.51944(9) 0.72427(10)
O11_4 O 0.77573(10) 0.51944(9) 0.74768(9)
O12_4 O 0.77573(10) 0.74768(9) 0.51944(9)
O13_4 O 0.75232(9) 0.72427(10) 0.51944(9)
O14_4 O 0.98056(9) 0.75232(9) 0.77573(10)
O15_4 O 0.98056(9) 0.77573(10) 0.75232(9)
O38_8 O 1.0000 0.78846(9) 0.71154(9)
C14_4 C 0.85251(14) 0.64749(14) 0.67323(16)
C15_4 C 0.82677(16) 0.64749(14) 0.64749(14)
C16_4 C 0.85251(14) 0.67323(16) 0.64749(14)
C17_4 C 0.85251(14) 0.82677(16) 0.85251(14)
C18_4 C 0.82677(16) 0.85251(14) 0.85251(14)
C19_4 C 0.85251(14) 0.85251(14) 0.82677(16)
H8_4 H 0.8580 0.6420 0.6844
H9_4 H 0.8156 0.6420 0.6420
H10_4 H 0.8580 0.6844 0.6420
H11_4 H 0.8580 0.8156 0.8580
H12_4 H 0.8156 0.8580 0.8580
H13_4 H 0.8580 0.8580 0.8156
C25_4 C 0.86120(16) 0.66460(15) 0.66460(15)
C26_4 C 0.83540(15) 0.63880(16) 0.66460(15)
C27_4 C 0.83540(15) 0.66460(15) 0.63880(16)
C28_4 C 0.86120(16) 0.83540(15) 0.83540(15)
C29_4 C 0.83540(15) 0.83540(15) 0.86120(16)
C30_4 C 0.83540(15) 0.86120(16) 0.83540(15)
C36_4 C 0.8775(2) 0.67570(17) 0.67570(17)
C37_4 C 0.82430(17) 0.6225(2) 0.67570(17)
C38_4 C 0.82430(17) 0.67570(17) 0.6225(2)
C39_4 C 0.8775(2) 0.82430(17) 0.82430(17)
C40_4 C 0.82430(17) 0.82430(17) 0.8775(2)
C41_4 C 0.82430(17) 0.8775(2) 0.82430(17)
C50_4 C 0.88524(18) 0.66750(16) 0.69329(15)
C51_4 C 0.80671(15) 0.61476(18) 0.66750(16)
C52_4 C 0.83250(16) 0.61476(18) 0.69329(15)
C53_4 C 0.88524(18) 0.69329(15) 0.66750(16)
C54_4 C 0.83250(16) 0.69329(15) 0.61476(18)
C55_4 C 0.80671(15) 0.66750(16) 0.61476(18)
C56_4 C 0.88524(18) 0.80671(15) 0.83250(16)
C57_4 C 0.80671(15) 0.83250(16) 0.88524(18)
C58_4 C 0.83250(16) 0.80671(15) 0.88524(18)
C59_4 C 0.88524(18) 0.83250(16) 0.80671(15)
C60_4 C 0.83250(16) 0.88524(18) 0.80671(15)
C61_4 C 0.80671(15) 0.88524(18) 0.83250(16)
H22_4 H 0.8796 0.6564 0.6987
H23_4 H 0.8013 0.6204 0.6564
H24_4 H 0.8436 0.6204 0.6987
H25_4 H 0.8796 0.6987 0.6564
H26_4 H 0.8436 0.6987 0.6204
H27_4 H 0.8013 0.6564 0.6204
H28_4 H 0.8796 0.8013 0.8436
H29_4 H 0.8013 0.8436 0.8796
H30_4 H 0.8436 0.8013 0.8796
H31_4 H 0.8796 0.8436 0.8013
H32_4 H 0.8436 0.8796 0.8013
H33_4 H 0.8013 0.8796 0.8436
C73_4 C 0.9016(2) 0.67653(17) 0.70241(19)
C74_4 C 0.79759(19) 0.5984(2) 0.67653(17)
C75_4 C 0.82347(17) 0.5984(2) 0.70241(19)
C76_4 C 0.9016(2) 0.70241(19) 0.67653(17)
C77_4 C 0.82347(17) 0.70241(19) 0.5984(2)
C78_4 C 0.79759(19) 0.67653(17) 0.5984(2)
C79_4 C 0.9016(2) 0.79759(19) 0.82347(17)
C80_4 C 0.79759(19) 0.82347(17) 0.9016(2)
C81_4 C 0.82347(17) 0.79759(19) 0.9016(2)
C82_4 C 0.9016(2) 0.82347(17) 0.79759(19)
C83_4 C 0.82347(17) 0.9016(2) 0.79759(19)
C84_4 C 0.79759(19) 0.9016(2) 0.82347(17)
H45_4 H 0.9065 0.6719 0.7142
H46_4 H 0.7858 0.5935 0.6719
H47_4 H 0.8281 0.5935 0.7142
H48_4 H 0.9065 0.7142 0.6719
H49_4 H 0.8281 0.7142 0.5935
H50_4 H 0.7858 0.6719 0.5935
H51_4 H 0.9065 0.7858 0.8281
H52_4 H 0.7858 0.8281 0.9065
H53_4 H 0.8281 0.7858 0.9065
H54_4 H 0.9065 0.8281 0.7858
H55_4 H 0.8281 0.9065 0.7858
H56_4 H 0.7858 0.9065 0.8281
C93_4 C 0.9103(2) 0.69295(18) 0.69295(18)
C94_4 C 0.80705(18) 0.5897(2) 0.69295(18)
C95_4 C 0.80705(18) 0.69295(18) 0.5897(2)
C96_4 C 0.9103(2) 0.80705(18) 0.80705(18)
C97_4 C 0.80705(18) 0.80705(18) 0.9103(2)
C98_4 C 0.80705(18) 0.9103(2) 0.80705(18)
C104_4 C 0.92841(17) 0.70205(12) 0.70205(12)
C105_4 C 0.79795(12) 0.57159(17) 0.70205(12)
C106_4 C 0.79795(12) 0.70205(12) 0.57159(17)
C107_4 C 0.92841(17) 0.79795(12) 0.79795(12)
C108_4 C 0.79795(12) 0.79795(12) 0.92841(17)
C109_4 C 0.79795(12) 0.92841(17) 0.79795(12)
C118_4 C 0.93550(16) 0.69384(13) 0.71978(12)
C119_4 C 0.78022(12) 0.56450(16) 0.69384(13)
C120_4 C 0.80616(13) 0.56450(16) 0.71978(12)
C121_4 C 0.93550(16) 0.71978(12) 0.69384(13)
C122_4 C 0.80616(13) 0.71978(12) 0.56450(16)
C123_4 C 0.78022(12) 0.69384(13) 0.56450(16)
C124_4 C 0.93550(16) 0.78022(12) 0.80616(13)
C125_4 C 0.78022(12) 0.80616(13) 0.93550(16)
C126_4 C 0.80616(13) 0.78022(12) 0.93550(16)
C127_4 C 0.93550(16) 0.80616(13) 0.78022(12)
C128_4 C 0.80616(13) 0.93550(16) 0.78022(12)
C129_4 C 0.78022(12) 0.93550(16) 0.80616(13)
H68_4 H 0.9302 0.6823 0.7248
H69_4 H 0.7752 0.5698 0.6823
H70_4 H 0.8177 0.5698 0.7248
H71_4 H 0.9302 0.7248 0.6823
H72_4 H 0.8177 0.7248 0.5698
H73_4 H 0.7752 0.6823 0.5698
H74_4 H 0.9302 0.7752 0.8177
H75_4 H 0.7752 0.8177 0.9302
H76_4 H 0.8177 0.7752 0.9302
H77_4 H 0.9302 0.8177 0.7752
H78_4 H 0.8177 0.9302 0.7752
H79_4 H 0.7752 0.9302 0.8177
C141_4 C 0.95097(16) 0.70379(14) 0.72973(15)
C142_4 C 0.77027(15) 0.54903(16) 0.70379(14)
C143_4 C 0.79621(14) 0.54903(16) 0.72973(15)
C144_4 C 0.95097(16) 0.72973(15) 0.70379(14)
C145_4 C 0.79621(14) 0.72973(15) 0.54903(16)
C146_4 C 0.77027(15) 0.70379(14) 0.54903(16)
C147_4 C 0.95097(16) 0.77027(15) 0.79621(14)
C148_4 C 0.77027(15) 0.79621(14) 0.95097(16)
C149_4 C 0.79621(14) 0.77027(15) 0.95097(16)
C150_4 C 0.95097(16) 0.79621(14) 0.77027(15)
C151_4 C 0.79621(14) 0.95097(16) 0.77027(15)
C152_4 C 0.77027(15) 0.95097(16) 0.79621(14)
H91_4 H 0.9556 0.6991 0.7416
H92_4 H 0.7584 0.5444 0.6991
H93_4 H 0.8009 0.5444 0.7416
H94_4 H 0.9556 0.7416 0.6991
H95_4 H 0.8009 0.7416 0.5444
H96_4 H 0.7584 0.6991 0.5444
H97_4 H 0.9556 0.7584 0.8009
H98_4 H 0.7584 0.8009 0.9556
H99_4 H 0.8009 0.7584 0.9556
H100_4 H 0.9556 0.8009 0.7584
H101_4 H 0.8009 0.9556 0.7584
H102_4 H 0.7584 0.9556 0.8009
C161_4 C 0.9592(2) 0.72109(15) 0.72109(15)
C162_4 C 0.77891(15) 0.5408(2) 0.72109(15)
C163_4 C 0.77891(15) 0.72109(15) 0.5408(2)
C164_4 C 0.9592(2) 0.77891(15) 0.77891(15)
C165_4 C 0.77891(15) 0.77891(15) 0.9592(2)
C166_4 C 0.77891(15) 0.9592(2) 0.77891(15)
C172_4 C 0.9748(2) 0.73254(18) 0.73254(18)
C173_4 C 0.76746(18) 0.5252(2) 0.73254(18)
C174_4 C 0.76746(18) 0.73254(18) 0.5252(2)
C175_4 C 0.9748(2) 0.76746(18) 0.76746(18)
C176_4 C 0.76746(18) 0.76746(18) 0.9748(2)
C177_4 C 0.76746(18) 0.9748(2) 0.76746(18)
Cu17_3 Cu 0.5000 0.23636(3) 0.23636(3)
Cu18_3 Cu 0.5000 0.26364(3) 0.26364(3)
O22_5 O 0.27573(10) 0.24768(9) 0.48056(9)
O23_5 O 0.25232(9) 0.22427(10) 0.48056(9)
O24_5 O 0.48056(9) 0.22427(10) 0.25232(9)
O25_5 O 0.48056(9) 0.24768(9) 0.27573(10)
C20_5 C 0.32677(16) 0.14749(14) 0.35251(14)
C21_5 C 0.35251(14) 0.17323(16) 0.35251(14)
C22_5 C 0.35251(14) 0.14749(14) 0.32677(16)
H14_5 H 0.3156 0.1420 0.3580
H15_5 H 0.3580 0.1844 0.3580
H16_5 H 0.3580 0.1420 0.3156
C31_5 C 0.33540(15) 0.13880(16) 0.33540(15)
C32_5 C 0.33540(15) 0.16460(15) 0.36120(16)
C33_5 C 0.36120(16) 0.16460(15) 0.33540(15)
C42_5 C 0.32430(17) 0.1225(2) 0.32430(17)
C43_5 C 0.32430(17) 0.17570(17) 0.3775(2)
C44_5 C 0.3775(2) 0.17570(17) 0.32430(17)
C62_5 C 0.30671(15) 0.11476(18) 0.33250(16)
C63_5 C 0.33250(16) 0.19329(15) 0.38524(18)
C64_5 C 0.30671(15) 0.16750(16) 0.38524(18)
C65_5 C 0.33250(16) 0.11476(18) 0.30671(15)
C66_5 C 0.38524(18) 0.16750(16) 0.30671(15)
C67_5 C 0.38524(18) 0.19329(15) 0.33250(16)
H34_5 H 0.3013 0.1204 0.3436
H35_5 H 0.3436 0.1987 0.3796
H36_5 H 0.3013 0.1564 0.3796
H37_5 H 0.3436 0.1204 0.3013
H38_5 H 0.3796 0.1564 0.3013
H39_5 H 0.3796 0.1987 0.3436
C85_5 C 0.29759(19) 0.0984(2) 0.32347(17)
C86_5 C 0.32347(17) 0.20241(19) 0.4016(2)
C87_5 C 0.29759(19) 0.17653(17) 0.4016(2)
C88_5 C 0.32347(17) 0.0984(2) 0.29759(19)
C89_5 C 0.4016(2) 0.17653(17) 0.29759(19)
C90_5 C 0.4016(2) 0.20241(19) 0.32347(17)
H57_5 H 0.2858 0.0935 0.3281
H58_5 H 0.3281 0.2142 0.4065
H59_5 H 0.2858 0.1719 0.4065
H60_5 H 0.3281 0.0935 0.2858
H61_5 H 0.4065 0.1719 0.2858
H62_5 H 0.4065 0.2142 0.3281
C99_5 C 0.30705(18) 0.0897(2) 0.30705(18)
C100_5 C 0.30705(18) 0.19295(18) 0.4103(2)
C101_5 C 0.4103(2) 0.19295(18) 0.30705(18)
C110_5 C 0.29795(12) 0.07159(17) 0.29795(12)
C111_5 C 0.29795(12) 0.20205(12) 0.42841(17)
C112_5 C 0.42841(17) 0.20205(12) 0.29795(12)
C130_5 C 0.28022(12) 0.06450(16) 0.30616(13)
C131_5 C 0.30616(13) 0.21978(12) 0.43550(16)
C132_5 C 0.28022(12) 0.19384(13) 0.43550(16)
C133_5 C 0.30616(13) 0.06450(16) 0.28022(12)
C134_5 C 0.43550(16) 0.19384(13) 0.28022(12)
C135_5 C 0.43550(16) 0.21978(12) 0.30616(13)
H80_5 H 0.2752 0.0698 0.3177
H81_5 H 0.3177 0.2248 0.4302
H82_5 H 0.2752 0.1823 0.4302
H83_5 H 0.3177 0.0698 0.2752
H84_5 H 0.4302 0.1823 0.2752
H85_5 H 0.4302 0.2248 0.3177
C153_5 C 0.27027(15) 0.04903(16) 0.29621(14)
C154_5 C 0.29621(14) 0.22973(15) 0.45097(16)
C155_5 C 0.27027(15) 0.20379(14) 0.45097(16)
C156_5 C 0.29621(14) 0.04903(16) 0.27027(15)
C157_5 C 0.45097(16) 0.20379(14) 0.27027(15)
C158_5 C 0.45097(16) 0.22973(15) 0.29621(14)
H103_5 H 0.2584 0.0444 0.3009
H104_5 H 0.3009 0.2416 0.4556
H105_5 H 0.2584 0.1991 0.4556
H106_5 H 0.3009 0.0444 0.2584
H107_5 H 0.4556 0.1991 0.2584
H108_5 H 0.4556 0.2416 0.3009
C167_5 C 0.27891(15) 0.0408(2) 0.27891(15)
C168_5 C 0.27891(15) 0.22109(15) 0.4592(2)
C169_5 C 0.4592(2) 0.22109(15) 0.27891(15)
C178_5 C 0.26746(18) 0.0252(2) 0.26746(18)
C179_5 C 0.26746(18) 0.23254(18) 0.4748(2)
C180_5 C 0.4748(2) 0.23254(18) 0.26746(18)
Cu9_3 Cu 0.5000 0.76364(3) 0.23636(3)
Cu10_3 Cu 0.5000 0.73636(3) 0.26364(3)
O10_5 O 0.27573(10) 0.75232(9) 0.48056(9)
O11_5 O 0.25232(9) 0.77573(10) 0.48056(9)
O12_5 O 0.48056(9) 0.77573(10) 0.25232(9)
O13_5 O 0.48056(9) 0.75232(9) 0.27573(10)
C14_5 C 0.32677(16) 0.85251(14) 0.35251(14)
C15_5 C 0.35251(14) 0.82677(16) 0.35251(14)
C16_5 C 0.35251(14) 0.85251(14) 0.32677(16)
H8_5 H 0.3156 0.8580 0.3580
H9_5 H 0.3580 0.8156 0.3580
H10_5 H 0.3580 0.8580 0.3156
C25_5 C 0.33540(15) 0.86120(16) 0.33540(15)
C26_5 C 0.33540(15) 0.83540(15) 0.36120(16)
C27_5 C 0.36120(16) 0.83540(15) 0.33540(15)
C36_5 C 0.32430(17) 0.8775(2) 0.32430(17)
C37_5 C 0.32430(17) 0.82430(17) 0.3775(2)
C38_5 C 0.3775(2) 0.82430(17) 0.32430(17)
C50_5 C 0.30671(15) 0.88524(18) 0.33250(16)
C51_5 C 0.33250(16) 0.80671(15) 0.38524(18)
C52_5 C 0.30671(15) 0.83250(16) 0.38524(18)
C53_5 C 0.33250(16) 0.88524(18) 0.30671(15)
C54_5 C 0.38524(18) 0.83250(16) 0.30671(15)
C55_5 C 0.38524(18) 0.80671(15) 0.33250(16)
H22_5 H 0.3013 0.8796 0.3436
H23_5 H 0.3436 0.8013 0.3796
H24_5 H 0.3013 0.8436 0.3796
H25_5 H 0.3436 0.8796 0.3013
H26_5 H 0.3796 0.8436 0.3013
H27_5 H 0.3796 0.8013 0.3436
C73_5 C 0.29759(19) 0.9016(2) 0.32347(17)
C74_5 C 0.32347(17) 0.79759(19) 0.4016(2)
C75_5 C 0.29759(19) 0.82347(17) 0.4016(2)
C76_5 C 0.32347(17) 0.9016(2) 0.29759(19)
C77_5 C 0.4016(2) 0.82347(17) 0.29759(19)
C78_5 C 0.4016(2) 0.79759(19) 0.32347(17)
H45_5 H 0.2858 0.9065 0.3281
H46_5 H 0.3281 0.7858 0.4065
H47_5 H 0.2858 0.8281 0.4065
H48_5 H 0.3281 0.9065 0.2858
H49_5 H 0.4065 0.8281 0.2858
H50_5 H 0.4065 0.7858 0.3281
C93_5 C 0.30705(18) 0.9103(2) 0.30705(18)
C94_5 C 0.30705(18) 0.80705(18) 0.4103(2)
C95_5 C 0.4103(2) 0.80705(18) 0.30705(18)
C104_5 C 0.29795(12) 0.92841(17) 0.29795(12)
C105_5 C 0.29795(12) 0.79795(12) 0.42841(17)
C106_5 C 0.42841(17) 0.79795(12) 0.29795(12)
C118_5 C 0.28022(12) 0.93550(16) 0.30616(13)
C119_5 C 0.30616(13) 0.78022(12) 0.43550(16)
C120_5 C 0.28022(12) 0.80616(13) 0.43550(16)
C121_5 C 0.30616(13) 0.93550(16) 0.28022(12)
C122_5 C 0.43550(16) 0.80616(13) 0.28022(12)
C123_5 C 0.43550(16) 0.78022(12) 0.30616(13)
H68_5 H 0.2752 0.9302 0.3177
H69_5 H 0.3177 0.7752 0.4302
H70_5 H 0.2752 0.8177 0.4302
H71_5 H 0.3177 0.9302 0.2752
H72_5 H 0.4302 0.8177 0.2752
H73_5 H 0.4302 0.7752 0.3177
C141_5 C 0.27027(15) 0.95097(16) 0.29621(14)
C142_5 C 0.29621(14) 0.77027(15) 0.45097(16)
C143_5 C 0.27027(15) 0.79621(14) 0.45097(16)
C144_5 C 0.29621(14) 0.95097(16) 0.27027(15)
C145_5 C 0.45097(16) 0.79621(14) 0.27027(15)
C146_5 C 0.45097(16) 0.77027(15) 0.29621(14)
H91_5 H 0.2584 0.9556 0.3009
H92_5 H 0.3009 0.7584 0.4556
H93_5 H 0.2584 0.8009 0.4556
H94_5 H 0.3009 0.9556 0.2584
H95_5 H 0.4556 0.8009 0.2584
H96_5 H 0.4556 0.7584 0.3009
C161_5 C 0.27891(15) 0.9592(2) 0.27891(15)
C162_5 C 0.27891(15) 0.77891(15) 0.4592(2)
C163_5 C 0.4592(2) 0.77891(15) 0.27891(15)
C172_5 C 0.26746(18) 0.9748(2) 0.26746(18)
C173_5 C 0.26746(18) 0.76746(18) 0.4748(2)
C174_5 C 0.4748(2) 0.76746(18) 0.26746(18)
Cu9_4 Cu 0.5000 0.23636(3) 0.76364(3)
Cu10_4 Cu 0.5000 0.26364(3) 0.73636(3)
O10_6 O 0.27573(10) 0.24768(9) 0.51944(9)
O11_6 O 0.25232(9) 0.22427(10) 0.51944(9)
O12_6 O 0.48056(9) 0.22427(10) 0.74768(9)
O13_6 O 0.48056(9) 0.24768(9) 0.72427(10)
C14_6 C 0.32677(16) 0.14749(14) 0.64749(14)
C15_6 C 0.35251(14) 0.17323(16) 0.64749(14)
C16_6 C 0.35251(14) 0.14749(14) 0.67323(16)
H8_6 H 0.3156 0.1420 0.6420
H9_6 H 0.3580 0.1844 0.6420
H10_6 H 0.3580 0.1420 0.6844
C25_6 C 0.33540(15) 0.13880(16) 0.66460(15)
C26_6 C 0.33540(15) 0.16460(15) 0.63880(16)
C27_6 C 0.36120(16) 0.16460(15) 0.66460(15)
C36_6 C 0.32430(17) 0.1225(2) 0.67570(17)
C37_6 C 0.32430(17) 0.17570(17) 0.6225(2)
C38_6 C 0.3775(2) 0.17570(17) 0.67570(17)
C50_6 C 0.30671(15) 0.11476(18) 0.66750(16)
C51_6 C 0.33250(16) 0.19329(15) 0.61476(18)
C52_6 C 0.30671(15) 0.16750(16) 0.61476(18)
C53_6 C 0.33250(16) 0.11476(18) 0.69329(15)
C54_6 C 0.38524(18) 0.16750(16) 0.69329(15)
C55_6 C 0.38524(18) 0.19329(15) 0.66750(16)
H22_6 H 0.3013 0.1204 0.6564
H23_6 H 0.3436 0.1987 0.6204
H24_6 H 0.3013 0.1564 0.6204
H25_6 H 0.3436 0.1204 0.6987
H26_6 H 0.3796 0.1564 0.6987
H27_6 H 0.3796 0.1987 0.6564
C73_6 C 0.29759(19) 0.0984(2) 0.67653(17)
C74_6 C 0.32347(17) 0.20241(19) 0.5984(2)
C75_6 C 0.29759(19) 0.17653(17) 0.5984(2)
C76_6 C 0.32347(17) 0.0984(2) 0.70241(19)
C77_6 C 0.4016(2) 0.17653(17) 0.70241(19)
C78_6 C 0.4016(2) 0.20241(19) 0.67653(17)
H45_6 H 0.2858 0.0935 0.6719
H46_6 H 0.3281 0.2142 0.5935
H47_6 H 0.2858 0.1719 0.5935
H48_6 H 0.3281 0.0935 0.7142
H49_6 H 0.4065 0.1719 0.7142
H50_6 H 0.4065 0.2142 0.6719
C93_6 C 0.30705(18) 0.0897(2) 0.69295(18)
C94_6 C 0.30705(18) 0.19295(18) 0.5897(2)
C95_6 C 0.4103(2) 0.19295(18) 0.69295(18)
C104_6 C 0.29795(12) 0.07159(17) 0.70205(12)
C105_6 C 0.29795(12) 0.20205(12) 0.57159(17)
C106_6 C 0.42841(17) 0.20205(12) 0.70205(12)
C118_6 C 0.28022(12) 0.06450(16) 0.69384(13)
C119_6 C 0.30616(13) 0.21978(12) 0.56450(16)
C120_6 C 0.28022(12) 0.19384(13) 0.56450(16)
C121_6 C 0.30616(13) 0.06450(16) 0.71978(12)
C122_6 C 0.43550(16) 0.19384(13) 0.71978(12)
C123_6 C 0.43550(16) 0.21978(12) 0.69384(13)
H68_6 H 0.2752 0.0698 0.6823
H69_6 H 0.3177 0.2248 0.5698
H70_6 H 0.2752 0.1823 0.5698
H71_6 H 0.3177 0.0698 0.7248
H72_6 H 0.4302 0.1823 0.7248
H73_6 H 0.4302 0.2248 0.6823
C141_6 C 0.27027(15) 0.04903(16) 0.70379(14)
C142_6 C 0.29621(14) 0.22973(15) 0.54903(16)
C143_6 C 0.27027(15) 0.20379(14) 0.54903(16)
C144_6 C 0.29621(14) 0.04903(16) 0.72973(15)
C145_6 C 0.45097(16) 0.20379(14) 0.72973(15)
C146_6 C 0.45097(16) 0.22973(15) 0.70379(14)
H91_6 H 0.2584 0.0444 0.6991
H92_6 H 0.3009 0.2416 0.5444
H93_6 H 0.2584 0.1991 0.5444
H94_6 H 0.3009 0.0444 0.7416
H95_6 H 0.4556 0.1991 0.7416
H96_6 H 0.4556 0.2416 0.6991
C161_6 C 0.27891(15) 0.0408(2) 0.72109(15)
C162_6 C 0.27891(15) 0.22109(15) 0.5408(2)
C163_6 C 0.4592(2) 0.22109(15) 0.72109(15)
C172_6 C 0.26746(18) 0.0252(2) 0.73254(18)
C173_6 C 0.26746(18) 0.23254(18) 0.5252(2)
C174_6 C 0.4748(2) 0.23254(18) 0.73254(18)
Cu17_4 Cu 0.5000 0.76364(3) 0.76364(3)
Cu18_4 Cu 0.5000 0.73636(3) 0.73636(3)
O22_6 O 0.27573(10) 0.75232(9) 0.51944(9)
O23_6 O 0.25232(9) 0.77573(10) 0.51944(9)
O24_6 O 0.48056(9) 0.77573(10) 0.74768(9)
O25_6 O 0.48056(9) 0.75232(9) 0.72427(10)
C20_6 C 0.32677(16) 0.85251(14) 0.64749(14)
C21_6 C 0.35251(14) 0.82677(16) 0.64749(14)
C22_6 C 0.35251(14) 0.85251(14) 0.67323(16)
H14_6 H 0.3156 0.8580 0.6420
H15_6 H 0.3580 0.8156 0.6420
H16_6 H 0.3580 0.8580 0.6844
C31_6 C 0.33540(15) 0.86120(16) 0.66460(15)
C32_6 C 0.33540(15) 0.83540(15) 0.63880(16)
C33_6 C 0.36120(16) 0.83540(15) 0.66460(15)
C42_6 C 0.32430(17) 0.8775(2) 0.67570(17)
C43_6 C 0.32430(17) 0.82430(17) 0.6225(2)
C44_6 C 0.3775(2) 0.82430(17) 0.67570(17)
C62_6 C 0.30671(15) 0.88524(18) 0.66750(16)
C63_6 C 0.33250(16) 0.80671(15) 0.61476(18)
C64_6 C 0.30671(15) 0.83250(16) 0.61476(18)
C65_6 C 0.33250(16) 0.88524(18) 0.69329(15)
C66_6 C 0.38524(18) 0.83250(16) 0.69329(15)
C67_6 C 0.38524(18) 0.80671(15) 0.66750(16)
H34_6 H 0.3013 0.8796 0.6564
H35_6 H 0.3436 0.8013 0.6204
H36_6 H 0.3013 0.8436 0.6204
H37_6 H 0.3436 0.8796 0.6987
H38_6 H 0.3796 0.8436 0.6987
H39_6 H 0.3796 0.8013 0.6564
C85_6 C 0.29759(19) 0.9016(2) 0.67653(17)
C86_6 C 0.32347(17) 0.79759(19) 0.5984(2)
C87_6 C 0.29759(19) 0.82347(17) 0.5984(2)
C88_6 C 0.32347(17) 0.9016(2) 0.70241(19)
C89_6 C 0.4016(2) 0.82347(17) 0.70241(19)
C90_6 C 0.4016(2) 0.79759(19) 0.67653(17)
H57_6 H 0.2858 0.9065 0.6719
H58_6 H 0.3281 0.7858 0.5935
H59_6 H 0.2858 0.8281 0.5935
H60_6 H 0.3281 0.9065 0.7142
H61_6 H 0.4065 0.8281 0.7142
H62_6 H 0.4065 0.7858 0.6719
C99_6 C 0.30705(18) 0.9103(2) 0.69295(18)
C100_6 C 0.30705(18) 0.80705(18) 0.5897(2)
C101_6 C 0.4103(2) 0.80705(18) 0.69295(18)
C110_6 C 0.29795(12) 0.92841(17) 0.70205(12)
C111_6 C 0.29795(12) 0.79795(12) 0.57159(17)
C112_6 C 0.42841(17) 0.79795(12) 0.70205(12)
C130_6 C 0.28022(12) 0.93550(16) 0.69384(13)
C131_6 C 0.30616(13) 0.78022(12) 0.56450(16)
C132_6 C 0.28022(12) 0.80616(13) 0.56450(16)
C133_6 C 0.30616(13) 0.93550(16) 0.71978(12)
C134_6 C 0.43550(16) 0.80616(13) 0.71978(12)
C135_6 C 0.43550(16) 0.78022(12) 0.69384(13)
H80_6 H 0.2752 0.9302 0.6823
H81_6 H 0.3177 0.7752 0.5698
H82_6 H 0.2752 0.8177 0.5698
H83_6 H 0.3177 0.9302 0.7248
H84_6 H 0.4302 0.8177 0.7248
H85_6 H 0.4302 0.7752 0.6823
C153_6 C 0.27027(15) 0.95097(16) 0.70379(14)
C154_6 C 0.29621(14) 0.77027(15) 0.54903(16)
C155_6 C 0.27027(15) 0.79621(14) 0.54903(16)
C156_6 C 0.29621(14) 0.95097(16) 0.72973(15)
C157_6 C 0.45097(16) 0.79621(14) 0.72973(15)
C158_6 C 0.45097(16) 0.77027(15) 0.70379(14)
H103_6 H 0.2584 0.9556 0.6991
H104_6 H 0.3009 0.7584 0.5444
H105_6 H 0.2584 0.8009 0.5444
H106_6 H 0.3009 0.9556 0.7416
H107_6 H 0.4556 0.8009 0.7416
H108_6 H 0.4556 0.7584 0.6991
C167_6 C 0.27891(15) 0.9592(2) 0.72109(15)
C168_6 C 0.27891(15) 0.77891(15) 0.5408(2)
C169_6 C 0.4592(2) 0.77891(15) 0.72109(15)
C178_6 C 0.26746(18) 0.9748(2) 0.73254(18)
C179_6 C 0.26746(18) 0.76746(18) 0.5252(2)
C180_6 C 0.4748(2) 0.76746(18) 0.73254(18)
O10_7 O 0.72427(10) 0.24768(9) 0.48056(9)
O11_7 O 0.74768(9) 0.22427(10) 0.48056(9)
O12_7 O 0.51944(9) 0.22427(10) 0.25232(9)
O13_7 O 0.51944(9) 0.24768(9) 0.27573(10)
C14_7 C 0.67323(16) 0.14749(14) 0.35251(14)
C15_7 C 0.64749(14) 0.17323(16) 0.35251(14)
C16_7 C 0.64749(14) 0.14749(14) 0.32677(16)
H8_7 H 0.6844 0.1420 0.3580
H9_7 H 0.6420 0.1844 0.3580
H10_7 H 0.6420 0.1420 0.3156
C25_7 C 0.66460(15) 0.13880(16) 0.33540(15)
C26_7 C 0.66460(15) 0.16460(15) 0.36120(16)
C27_7 C 0.63880(16) 0.16460(15) 0.33540(15)
C36_7 C 0.67570(17) 0.1225(2) 0.32430(17)
C37_7 C 0.67570(17) 0.17570(17) 0.3775(2)
C38_7 C 0.6225(2) 0.17570(17) 0.32430(17)
C50_7 C 0.69329(15) 0.11476(18) 0.33250(16)
C51_7 C 0.66750(16) 0.19329(15) 0.38524(18)
C52_7 C 0.69329(15) 0.16750(16) 0.38524(18)
C53_7 C 0.66750(16) 0.11476(18) 0.30671(15)
C54_7 C 0.61476(18) 0.16750(16) 0.30671(15)
C55_7 C 0.61476(18) 0.19329(15) 0.33250(16)
H22_7 H 0.6987 0.1204 0.3436
H23_7 H 0.6564 0.1987 0.3796
H24_7 H 0.6987 0.1564 0.3796
H25_7 H 0.6564 0.1204 0.3013
H26_7 H 0.6204 0.1564 0.3013
H27_7 H 0.6204 0.1987 0.3436
C73_7 C 0.70241(19) 0.0984(2) 0.32347(17)
C74_7 C 0.67653(17) 0.20241(19) 0.4016(2)
C75_7 C 0.70241(19) 0.17653(17) 0.4016(2)
C76_7 C 0.67653(17) 0.0984(2) 0.29759(19)
C77_7 C 0.5984(2) 0.17653(17) 0.29759(19)
C78_7 C 0.5984(2) 0.20241(19) 0.32347(17)
H45_7 H 0.7142 0.0935 0.3281
H46_7 H 0.6719 0.2142 0.4065
H47_7 H 0.7142 0.1719 0.4065
H48_7 H 0.6719 0.0935 0.2858
H49_7 H 0.5935 0.1719 0.2858
H50_7 H 0.5935 0.2142 0.3281
C93_7 C 0.69295(18) 0.0897(2) 0.30705(18)
C94_7 C 0.69295(18) 0.19295(18) 0.4103(2)
C95_7 C 0.5897(2) 0.19295(18) 0.30705(18)
C104_7 C 0.70205(12) 0.07159(17) 0.29795(12)
C105_7 C 0.70205(12) 0.20205(12) 0.42841(17)
C106_7 C 0.57159(17) 0.20205(12) 0.29795(12)
C118_7 C 0.71978(12) 0.06450(16) 0.30616(13)
C119_7 C 0.69384(13) 0.21978(12) 0.43550(16)
C120_7 C 0.71978(12) 0.19384(13) 0.43550(16)
C121_7 C 0.69384(13) 0.06450(16) 0.28022(12)
C122_7 C 0.56450(16) 0.19384(13) 0.28022(12)
C123_7 C 0.56450(16) 0.21978(12) 0.30616(13)
H68_7 H 0.7248 0.0698 0.3177
H69_7 H 0.6823 0.2248 0.4302
H70_7 H 0.7248 0.1823 0.4302
H71_7 H 0.6823 0.0698 0.2752
H72_7 H 0.5698 0.1823 0.2752
H73_7 H 0.5698 0.2248 0.3177
C141_7 C 0.72973(15) 0.04903(16) 0.29621(14)
C142_7 C 0.70379(14) 0.22973(15) 0.45097(16)
C143_7 C 0.72973(15) 0.20379(14) 0.45097(16)
C144_7 C 0.70379(14) 0.04903(16) 0.27027(15)
C145_7 C 0.54903(16) 0.20379(14) 0.27027(15)
C146_7 C 0.54903(16) 0.22973(15) 0.29621(14)
H91_7 H 0.7416 0.0444 0.3009
H92_7 H 0.6991 0.2416 0.4556
H93_7 H 0.7416 0.1991 0.4556
H94_7 H 0.6991 0.0444 0.2584
H95_7 H 0.5444 0.1991 0.2584
H96_7 H 0.5444 0.2416 0.3009
C161_7 C 0.72109(15) 0.0408(2) 0.27891(15)
C162_7 C 0.72109(15) 0.22109(15) 0.4592(2)
C163_7 C 0.5408(2) 0.22109(15) 0.27891(15)
C172_7 C 0.73254(18) 0.0252(2) 0.26746(18)
C173_7 C 0.73254(18) 0.23254(18) 0.4748(2)
C174_7 C 0.5252(2) 0.23254(18) 0.26746(18)
O22_7 O 0.72427(10) 0.75232(9) 0.48056(9)
O23_7 O 0.74768(9) 0.77573(10) 0.48056(9)
O24_7 O 0.51944(9) 0.77573(10) 0.25232(9)
O25_7 O 0.51944(9) 0.75232(9) 0.27573(10)
C20_7 C 0.67323(16) 0.85251(14) 0.35251(14)
C21_7 C 0.64749(14) 0.82677(16) 0.35251(14)
C22_7 C 0.64749(14) 0.85251(14) 0.32677(16)
H14_7 H 0.6844 0.8580 0.3580
H15_7 H 0.6420 0.8156 0.3580
H16_7 H 0.6420 0.8580 0.3156
C31_7 C 0.66460(15) 0.86120(16) 0.33540(15)
C32_7 C 0.66460(15) 0.83540(15) 0.36120(16)
C33_7 C 0.63880(16) 0.83540(15) 0.33540(15)
C42_7 C 0.67570(17) 0.8775(2) 0.32430(17)
C43_7 C 0.67570(17) 0.82430(17) 0.3775(2)
C44_7 C 0.6225(2) 0.82430(17) 0.32430(17)
C62_7 C 0.69329(15) 0.88524(18) 0.33250(16)
C63_7 C 0.66750(16) 0.80671(15) 0.38524(18)
C64_7 C 0.69329(15) 0.83250(16) 0.38524(18)
C65_7 C 0.66750(16) 0.88524(18) 0.30671(15)
C66_7 C 0.61476(18) 0.83250(16) 0.30671(15)
C67_7 C 0.61476(18) 0.80671(15) 0.33250(16)
H34_7 H 0.6987 0.8796 0.3436
H35_7 H 0.6564 0.8013 0.3796
H36_7 H 0.6987 0.8436 0.3796
H37_7 H 0.6564 0.8796 0.3013
H38_7 H 0.6204 0.8436 0.3013
H39_7 H 0.6204 0.8013 0.3436
C85_7 C 0.70241(19) 0.9016(2) 0.32347(17)
C86_7 C 0.67653(17) 0.79759(19) 0.4016(2)
C87_7 C 0.70241(19) 0.82347(17) 0.4016(2)
C88_7 C 0.67653(17) 0.9016(2) 0.29759(19)
C89_7 C 0.5984(2) 0.82347(17) 0.29759(19)
C90_7 C 0.5984(2) 0.79759(19) 0.32347(17)
H57_7 H 0.7142 0.9065 0.3281
H58_7 H 0.6719 0.7858 0.4065
H59_7 H 0.7142 0.8281 0.4065
H60_7 H 0.6719 0.9065 0.2858
H61_7 H 0.5935 0.8281 0.2858
H62_7 H 0.5935 0.7858 0.3281
C99_7 C 0.69295(18) 0.9103(2) 0.30705(18)
C100_7 C 0.69295(18) 0.80705(18) 0.4103(2)
C101_7 C 0.5897(2) 0.80705(18) 0.30705(18)
C110_7 C 0.70205(12) 0.92841(17) 0.29795(12)
C111_7 C 0.70205(12) 0.79795(12) 0.42841(17)
C112_7 C 0.57159(17) 0.79795(12) 0.29795(12)
C130_7 C 0.71978(12) 0.93550(16) 0.30616(13)
C131_7 C 0.69384(13) 0.78022(12) 0.43550(16)
C132_7 C 0.71978(12) 0.80616(13) 0.43550(16)
C133_7 C 0.69384(13) 0.93550(16) 0.28022(12)
C134_7 C 0.56450(16) 0.80616(13) 0.28022(12)
C135_7 C 0.56450(16) 0.78022(12) 0.30616(13)
H80_7 H 0.7248 0.9302 0.3177
H81_7 H 0.6823 0.7752 0.4302
H82_7 H 0.7248 0.8177 0.4302
H83_7 H 0.6823 0.9302 0.2752
H84_7 H 0.5698 0.8177 0.2752
H85_7 H 0.5698 0.7752 0.3177
C153_7 C 0.72973(15) 0.95097(16) 0.29621(14)
C154_7 C 0.70379(14) 0.77027(15) 0.45097(16)
C155_7 C 0.72973(15) 0.79621(14) 0.45097(16)
C156_7 C 0.70379(14) 0.95097(16) 0.27027(15)
C157_7 C 0.54903(16) 0.79621(14) 0.27027(15)
C158_7 C 0.54903(16) 0.77027(15) 0.29621(14)
H103_7 H 0.7416 0.9556 0.3009
H104_7 H 0.6991 0.7584 0.4556
H105_7 H 0.7416 0.8009 0.4556
H106_7 H 0.6991 0.9556 0.2584
H107_7 H 0.5444 0.8009 0.2584
H108_7 H 0.5444 0.7584 0.3009
C167_7 C 0.72109(15) 0.9592(2) 0.27891(15)
C168_7 C 0.72109(15) 0.77891(15) 0.4592(2)
C169_7 C 0.5408(2) 0.77891(15) 0.27891(15)
C178_7 C 0.73254(18) 0.9748(2) 0.26746(18)
C179_7 C 0.73254(18) 0.76746(18) 0.4748(2)
C180_7 C 0.5252(2) 0.76746(18) 0.26746(18)
O22_8 O 0.72427(10) 0.24768(9) 0.51944(9)
O23_8 O 0.74768(9) 0.22427(10) 0.51944(9)
O24_8 O 0.51944(9) 0.22427(10) 0.74768(9)
O25_8 O 0.51944(9) 0.24768(9) 0.72427(10)
C20_8 C 0.67323(16) 0.14749(14) 0.64749(14)
C21_8 C 0.64749(14) 0.17323(16) 0.64749(14)
C22_8 C 0.64749(14) 0.14749(14) 0.67323(16)
H14_8 H 0.6844 0.1420 0.6420
H15_8 H 0.6420 0.1844 0.6420
H16_8 H 0.6420 0.1420 0.6844
C31_8 C 0.66460(15) 0.13880(16) 0.66460(15)
C32_8 C 0.66460(15) 0.16460(15) 0.63880(16)
C33_8 C 0.63880(16) 0.16460(15) 0.66460(15)
C42_8 C 0.67570(17) 0.1225(2) 0.67570(17)
C43_8 C 0.67570(17) 0.17570(17) 0.6225(2)
C44_8 C 0.6225(2) 0.17570(17) 0.67570(17)
C62_8 C 0.69329(15) 0.11476(18) 0.66750(16)
C63_8 C 0.66750(16) 0.19329(15) 0.61476(18)
C64_8 C 0.69329(15) 0.16750(16) 0.61476(18)
C65_8 C 0.66750(16) 0.11476(18) 0.69329(15)
C66_8 C 0.61476(18) 0.16750(16) 0.69329(15)
C67_8 C 0.61476(18) 0.19329(15) 0.66750(16)
H34_8 H 0.6987 0.1204 0.6564
H35_8 H 0.6564 0.1987 0.6204
H36_8 H 0.6987 0.1564 0.6204
H37_8 H 0.6564 0.1204 0.6987
H38_8 H 0.6204 0.1564 0.6987
H39_8 H 0.6204 0.1987 0.6564
C85_8 C 0.70241(19) 0.0984(2) 0.67653(17)
C86_8 C 0.67653(17) 0.20241(19) 0.5984(2)
C87_8 C 0.70241(19) 0.17653(17) 0.5984(2)
C88_8 C 0.67653(17) 0.0984(2) 0.70241(19)
C89_8 C 0.5984(2) 0.17653(17) 0.70241(19)
C90_8 C 0.5984(2) 0.20241(19) 0.67653(17)
H57_8 H 0.7142 0.0935 0.6719
H58_8 H 0.6719 0.2142 0.5935
H59_8 H 0.7142 0.1719 0.5935
H60_8 H 0.6719 0.0935 0.7142
H61_8 H 0.5935 0.1719 0.7142
H62_8 H 0.5935 0.2142 0.6719
C99_8 C 0.69295(18) 0.0897(2) 0.69295(18)
C100_8 C 0.69295(18) 0.19295(18) 0.5897(2)
C101_8 C 0.5897(2) 0.19295(18) 0.69295(18)
C110_8 C 0.70205(12) 0.07159(17) 0.70205(12)
C111_8 C 0.70205(12) 0.20205(12) 0.57159(17)
C112_8 C 0.57159(17) 0.20205(12) 0.70205(12)
C130_8 C 0.71978(12) 0.06450(16) 0.69384(13)
C131_8 C 0.69384(13) 0.21978(12) 0.56450(16)
C132_8 C 0.71978(12) 0.19384(13) 0.56450(16)
C133_8 C 0.69384(13) 0.06450(16) 0.71978(12)
C134_8 C 0.56450(16) 0.19384(13) 0.71978(12)
C135_8 C 0.56450(16) 0.21978(12) 0.69384(13)
H80_8 H 0.7248 0.0698 0.6823
H81_8 H 0.6823 0.2248 0.5698
H82_8 H 0.7248 0.1823 0.5698
H83_8 H 0.6823 0.0698 0.7248
H84_8 H 0.5698 0.1823 0.7248
H85_8 H 0.5698 0.2248 0.6823
C153_8 C 0.72973(15) 0.04903(16) 0.70379(14)
C154_8 C 0.70379(14) 0.22973(15) 0.54903(16)
C155_8 C 0.72973(15) 0.20379(14) 0.54903(16)
C156_8 C 0.70379(14) 0.04903(16) 0.72973(15)
C157_8 C 0.54903(16) 0.20379(14) 0.72973(15)
C158_8 C 0.54903(16) 0.22973(15) 0.70379(14)
H103_8 H 0.7416 0.0444 0.6991
H104_8 H 0.6991 0.2416 0.5444
H105_8 H 0.7416 0.1991 0.5444
H106_8 H 0.6991 0.0444 0.7416
H107_8 H 0.5444 0.1991 0.7416
H108_8 H 0.5444 0.2416 0.6991
C167_8 C 0.72109(15) 0.0408(2) 0.72109(15)
C168_8 C 0.72109(15) 0.22109(15) 0.5408(2)
C169_8 C 0.5408(2) 0.22109(15) 0.72109(15)
C178_8 C 0.73254(18) 0.0252(2) 0.73254(18)
C179_8 C 0.73254(18) 0.23254(18) 0.5252(2)
C180_8 C 0.5252(2) 0.23254(18) 0.73254(18)
O10_8 O 0.72427(10) 0.75232(9) 0.51944(9)
O11_8 O 0.74768(9) 0.77573(10) 0.51944(9)
O12_8 O 0.51944(9) 0.77573(10) 0.74768(9)
O13_8 O 0.51944(9) 0.75232(9) 0.72427(10)
C14_8 C 0.67323(16) 0.85251(14) 0.64749(14)
C15_8 C 0.64749(14) 0.82677(16) 0.64749(14)
C16_8 C 0.64749(14) 0.85251(14) 0.67323(16)
H8_8 H 0.6844 0.8580 0.6420
H9_8 H 0.6420 0.8156 0.6420
H10_8 H 0.6420 0.8580 0.6844
C25_8 C 0.66460(15) 0.86120(16) 0.66460(15)
C26_8 C 0.66460(15) 0.83540(15) 0.63880(16)
C27_8 C 0.63880(16) 0.83540(15) 0.66460(15)
C36_8 C 0.67570(17) 0.8775(2) 0.67570(17)
C37_8 C 0.67570(17) 0.82430(17) 0.6225(2)
C38_8 C 0.6225(2) 0.82430(17) 0.67570(17)
C50_8 C 0.69329(15) 0.88524(18) 0.66750(16)
C51_8 C 0.66750(16) 0.80671(15) 0.61476(18)
C52_8 C 0.69329(15) 0.83250(16) 0.61476(18)
C53_8 C 0.66750(16) 0.88524(18) 0.69329(15)
C54_8 C 0.61476(18) 0.83250(16) 0.69329(15)
C55_8 C 0.61476(18) 0.80671(15) 0.66750(16)
H22_8 H 0.6987 0.8796 0.6564
H23_8 H 0.6564 0.8013 0.6204
H24_8 H 0.6987 0.8436 0.6204
H25_8 H 0.6564 0.8796 0.6987
H26_8 H 0.6204 0.8436 0.6987
H27_8 H 0.6204 0.8013 0.6564
C73_8 C 0.70241(19) 0.9016(2) 0.67653(17)
C74_8 C 0.67653(17) 0.79759(19) 0.5984(2)
C75_8 C 0.70241(19) 0.82347(17) 0.5984(2)
C76_8 C 0.67653(17) 0.9016(2) 0.70241(19)
C77_8 C 0.5984(2) 0.82347(17) 0.70241(19)
C78_8 C 0.5984(2) 0.79759(19) 0.67653(17)
H45_8 H 0.7142 0.9065 0.6719
H46_8 H 0.6719 0.7858 0.5935
H47_8 H 0.7142 0.8281 0.5935
H48_8 H 0.6719 0.9065 0.7142
H49_8 H 0.5935 0.8281 0.7142
H50_8 H 0.5935 0.7858 0.6719
C93_8 C 0.69295(18) 0.9103(2) 0.69295(18)
C94_8 C 0.69295(18) 0.80705(18) 0.5897(2)
C95_8 C 0.5897(2) 0.80705(18) 0.69295(18)
C104_8 C 0.70205(12) 0.92841(17) 0.70205(12)
C105_8 C 0.70205(12) 0.79795(12) 0.57159(17)
C106_8 C 0.57159(17) 0.79795(12) 0.70205(12)
C118_8 C 0.71978(12) 0.93550(16) 0.69384(13)
C119_8 C 0.69384(13) 0.78022(12) 0.56450(16)
C120_8 C 0.71978(12) 0.80616(13) 0.56450(16)
C121_8 C 0.69384(13) 0.93550(16) 0.71978(12)
C122_8 C 0.56450(16) 0.80616(13) 0.71978(12)
C123_8 C 0.56450(16) 0.78022(12) 0.69384(13)
H68_8 H 0.7248 0.9302 0.6823
H69_8 H 0.6823 0.7752 0.5698
H70_8 H 0.7248 0.8177 0.5698
H71_8 H 0.6823 0.9302 0.7248
H72_8 H 0.5698 0.8177 0.7248
H73_8 H 0.5698 0.7752 0.6823
C141_8 C 0.72973(15) 0.95097(16) 0.70379(14)
C142_8 C 0.70379(14) 0.77027(15) 0.54903(16)
C143_8 C 0.72973(15) 0.79621(14) 0.54903(16)
C144_8 C 0.70379(14) 0.95097(16) 0.72973(15)
C145_8 C 0.54903(16) 0.79621(14) 0.72973(15)
C146_8 C 0.54903(16) 0.77027(15) 0.70379(14)
H91_8 H 0.7416 0.9556 0.6991
H92_8 H 0.6991 0.7584 0.5444
H93_8 H 0.7416 0.8009 0.5444
H94_8 H 0.6991 0.9556 0.7416
H95_8 H 0.5444 0.8009 0.7416
H96_8 H 0.5444 0.7584 0.6991
C161_8 C 0.72109(15) 0.9592(2) 0.72109(15)
C162_8 C 0.72109(15) 0.77891(15) 0.5408(2)
C163_8 C 0.5408(2) 0.77891(15) 0.72109(15)
C172_8 C 0.73254(18) 0.9748(2) 0.73254(18)
C173_8 C 0.73254(18) 0.76746(18) 0.5252(2)
C174_8 C 0.5252(2) 0.76746(18) 0.73254(18)
O22_9 O 0.48056(9) 0.27573(10) 0.24768(9)
O23_9 O 0.48056(9) 0.25232(9) 0.22427(10)
O24_9 O 0.25232(9) 0.48056(9) 0.22427(10)
O25_9 O 0.27573(10) 0.48056(9) 0.24768(9)
C20_9 C 0.35251(14) 0.32677(16) 0.14749(14)
C21_9 C 0.35251(14) 0.35251(14) 0.17323(16)
C22_9 C 0.32677(16) 0.35251(14) 0.14749(14)
H14_9 H 0.3580 0.3156 0.1420
H15_9 H 0.3580 0.3580 0.1844
H16_9 H 0.3156 0.3580 0.1420
C31_9 C 0.33540(15) 0.33540(15) 0.13880(16)
C32_9 C 0.36120(16) 0.33540(15) 0.16460(15)
C33_9 C 0.33540(15) 0.36120(16) 0.16460(15)
C42_9 C 0.32430(17) 0.32430(17) 0.1225(2)
C43_9 C 0.3775(2) 0.32430(17) 0.17570(17)
C44_9 C 0.32430(17) 0.3775(2) 0.17570(17)
C62_9 C 0.33250(16) 0.30671(15) 0.11476(18)
C63_9 C 0.38524(18) 0.33250(16) 0.19329(15)
C64_9 C 0.38524(18) 0.30671(15) 0.16750(16)
C65_9 C 0.30671(15) 0.33250(16) 0.11476(18)
C66_9 C 0.30671(15) 0.38524(18) 0.16750(16)
C67_9 C 0.33250(16) 0.38524(18) 0.19329(15)
H34_9 H 0.3436 0.3013 0.1204
H35_9 H 0.3796 0.3436 0.1987
H36_9 H 0.3796 0.3013 0.1564
H37_9 H 0.3013 0.3436 0.1204
H38_9 H 0.3013 0.3796 0.1564
H39_9 H 0.3436 0.3796 0.1987
C85_9 C 0.32347(17) 0.29759(19) 0.0984(2)
C86_9 C 0.4016(2) 0.32347(17) 0.20241(19)
C87_9 C 0.4016(2) 0.29759(19) 0.17653(17)
C88_9 C 0.29759(19) 0.32347(17) 0.0984(2)
C89_9 C 0.29759(19) 0.4016(2) 0.17653(17)
C90_9 C 0.32347(17) 0.4016(2) 0.20241(19)
H57_9 H 0.3281 0.2858 0.0935
H58_9 H 0.4065 0.3281 0.2142
H59_9 H 0.4065 0.2858 0.1719
H60_9 H 0.2858 0.3281 0.0935
H61_9 H 0.2858 0.4065 0.1719
H62_9 H 0.3281 0.4065 0.2142
C99_9 C 0.30705(18) 0.30705(18) 0.0897(2)
C100_9 C 0.4103(2) 0.30705(18) 0.19295(18)
C101_9 C 0.30705(18) 0.4103(2) 0.19295(18)
C110_9 C 0.29795(12) 0.29795(12) 0.07159(17)
C111_9 C 0.42841(17) 0.29795(12) 0.20205(12)
C112_9 C 0.29795(12) 0.42841(17) 0.20205(12)
C130_9 C 0.30616(13) 0.28022(12) 0.06450(16)
C131_9 C 0.43550(16) 0.30616(13) 0.21978(12)
C132_9 C 0.43550(16) 0.28022(12) 0.19384(13)
C133_9 C 0.28022(12) 0.30616(13) 0.06450(16)
C134_9 C 0.28022(12) 0.43550(16) 0.19384(13)
C135_9 C 0.30616(13) 0.43550(16) 0.21978(12)
H80_9 H 0.3177 0.2752 0.0698
H81_9 H 0.4302 0.3177 0.2248
H82_9 H 0.4302 0.2752 0.1823
H83_9 H 0.2752 0.3177 0.0698
H84_9 H 0.2752 0.4302 0.1823
H85_9 H 0.3177 0.4302 0.2248
C153_9 C 0.29621(14) 0.27027(15) 0.04903(16)
C154_9 C 0.45097(16) 0.29621(14) 0.22973(15)
C155_9 C 0.45097(16) 0.27027(15) 0.20379(14)
C156_9 C 0.27027(15) 0.29621(14) 0.04903(16)
C157_9 C 0.27027(15) 0.45097(16) 0.20379(14)
C158_9 C 0.29621(14) 0.45097(16) 0.22973(15)
H103_9 H 0.3009 0.2584 0.0444
H104_9 H 0.4556 0.3009 0.2416
H105_9 H 0.4556 0.2584 0.1991
H106_9 H 0.2584 0.3009 0.0444
H107_9 H 0.2584 0.4556 0.1991
H108_9 H 0.3009 0.4556 0.2416
C167_9 C 0.27891(15) 0.27891(15) 0.0408(2)
C168_9 C 0.4592(2) 0.27891(15) 0.22109(15)
C169_9 C 0.27891(15) 0.4592(2) 0.22109(15)
C178_9 C 0.26746(18) 0.26746(18) 0.0252(2)
C179_9 C 0.4748(2) 0.26746(18) 0.23254(18)
C180_9 C 0.26746(18) 0.4748(2) 0.23254(18)
O10_9 O 0.48056(9) 0.27573(10) 0.75232(9)
O11_9 O 0.48056(9) 0.25232(9) 0.77573(10)
O12_9 O 0.25232(9) 0.48056(9) 0.77573(10)
O13_9 O 0.27573(10) 0.48056(9) 0.75232(9)
C14_9 C 0.35251(14) 0.32677(16) 0.85251(14)
C15_9 C 0.35251(14) 0.35251(14) 0.82677(16)
C16_9 C 0.32677(16) 0.35251(14) 0.85251(14)
H8_9 H 0.3580 0.3156 0.8580
H9_9 H 0.3580 0.3580 0.8156
H10_9 H 0.3156 0.3580 0.8580
C25_9 C 0.33540(15) 0.33540(15) 0.86120(16)
C26_9 C 0.36120(16) 0.33540(15) 0.83540(15)
C27_9 C 0.33540(15) 0.36120(16) 0.83540(15)
C36_9 C 0.32430(17) 0.32430(17) 0.8775(2)
C37_9 C 0.3775(2) 0.32430(17) 0.82430(17)
C38_9 C 0.32430(17) 0.3775(2) 0.82430(17)
C50_9 C 0.33250(16) 0.30671(15) 0.88524(18)
C51_9 C 0.38524(18) 0.33250(16) 0.80671(15)
C52_9 C 0.38524(18) 0.30671(15) 0.83250(16)
C53_9 C 0.30671(15) 0.33250(16) 0.88524(18)
C54_9 C 0.30671(15) 0.38524(18) 0.83250(16)
C55_9 C 0.33250(16) 0.38524(18) 0.80671(15)
H22_9 H 0.3436 0.3013 0.8796
H23_9 H 0.3796 0.3436 0.8013
H24_9 H 0.3796 0.3013 0.8436
H25_9 H 0.3013 0.3436 0.8796
H26_9 H 0.3013 0.3796 0.8436
H27_9 H 0.3436 0.3796 0.8013
C73_9 C 0.32347(17) 0.29759(19) 0.9016(2)
C74_9 C 0.4016(2) 0.32347(17) 0.79759(19)
C75_9 C 0.4016(2) 0.29759(19) 0.82347(17)
C76_9 C 0.29759(19) 0.32347(17) 0.9016(2)
C77_9 C 0.29759(19) 0.4016(2) 0.82347(17)
C78_9 C 0.32347(17) 0.4016(2) 0.79759(19)
H45_9 H 0.3281 0.2858 0.9065
H46_9 H 0.4065 0.3281 0.7858
H47_9 H 0.4065 0.2858 0.8281
H48_9 H 0.2858 0.3281 0.9065
H49_9 H 0.2858 0.4065 0.8281
H50_9 H 0.3281 0.4065 0.7858
C93_9 C 0.30705(18) 0.30705(18) 0.9103(2)
C94_9 C 0.4103(2) 0.30705(18) 0.80705(18)
C95_9 C 0.30705(18) 0.4103(2) 0.80705(18)
C104_9 C 0.29795(12) 0.29795(12) 0.92841(17)
C105_9 C 0.42841(17) 0.29795(12) 0.79795(12)
C106_9 C 0.29795(12) 0.42841(17) 0.79795(12)
C118_9 C 0.30616(13) 0.28022(12) 0.93550(16)
C119_9 C 0.43550(16) 0.30616(13) 0.78022(12)
C120_9 C 0.43550(16) 0.28022(12) 0.80616(13)
C121_9 C 0.28022(12) 0.30616(13) 0.93550(16)
C122_9 C 0.28022(12) 0.43550(16) 0.80616(13)
C123_9 C 0.30616(13) 0.43550(16) 0.78022(12)
H68_9 H 0.3177 0.2752 0.9302
H69_9 H 0.4302 0.3177 0.7752
H70_9 H 0.4302 0.2752 0.8177
H71_9 H 0.2752 0.3177 0.9302
H72_9 H 0.2752 0.4302 0.8177
H73_9 H 0.3177 0.4302 0.7752
C141_9 C 0.29621(14) 0.27027(15) 0.95097(16)
C142_9 C 0.45097(16) 0.29621(14) 0.77027(15)
C143_9 C 0.45097(16) 0.27027(15) 0.79621(14)
C144_9 C 0.27027(15) 0.29621(14) 0.95097(16)
C145_9 C 0.27027(15) 0.45097(16) 0.79621(14)
C146_9 C 0.29621(14) 0.45097(16) 0.77027(15)
H91_9 H 0.3009 0.2584 0.9556
H92_9 H 0.4556 0.3009 0.7584
H93_9 H 0.4556 0.2584 0.8009
H94_9 H 0.2584 0.3009 0.9556
H95_9 H 0.2584 0.4556 0.8009
H96_9 H 0.3009 0.4556 0.7584
C161_9 C 0.27891(15) 0.27891(15) 0.9592(2)
C162_9 C 0.4592(2) 0.27891(15) 0.77891(15)
C163_9 C 0.27891(15) 0.4592(2) 0.77891(15)
C172_9 C 0.26746(18) 0.26746(18) 0.9748(2)
C173_9 C 0.4748(2) 0.26746(18) 0.76746(18)
C174_9 C 0.26746(18) 0.4748(2) 0.76746(18)
O10_10 O 0.51944(9) 0.27573(10) 0.24768(9)
O11_10 O 0.51944(9) 0.25232(9) 0.22427(10)
O12_10 O 0.74768(9) 0.48056(9) 0.22427(10)
O13_10 O 0.72427(10) 0.48056(9) 0.24768(9)
C14_10 C 0.64749(14) 0.32677(16) 0.14749(14)
C15_10 C 0.64749(14) 0.35251(14) 0.17323(16)
C16_10 C 0.67323(16) 0.35251(14) 0.14749(14)
H8_10 H 0.6420 0.3156 0.1420
H9_10 H 0.6420 0.3580 0.1844
H10_10 H 0.6844 0.3580 0.1420
C25_10 C 0.66460(15) 0.33540(15) 0.13880(16)
C26_10 C 0.63880(16) 0.33540(15) 0.16460(15)
C27_10 C 0.66460(15) 0.36120(16) 0.16460(15)
C36_10 C 0.67570(17) 0.32430(17) 0.1225(2)
C37_10 C 0.6225(2) 0.32430(17) 0.17570(17)
C38_10 C 0.67570(17) 0.3775(2) 0.17570(17)
C50_10 C 0.66750(16) 0.30671(15) 0.11476(18)
C51_10 C 0.61476(18) 0.33250(16) 0.19329(15)
C52_10 C 0.61476(18) 0.30671(15) 0.16750(16)
C53_10 C 0.69329(15) 0.33250(16) 0.11476(18)
C54_10 C 0.69329(15) 0.38524(18) 0.16750(16)
C55_10 C 0.66750(16) 0.38524(18) 0.19329(15)
H22_10 H 0.6564 0.3013 0.1204
H23_10 H 0.6204 0.3436 0.1987
H24_10 H 0.6204 0.3013 0.1564
H25_10 H 0.6987 0.3436 0.1204
H26_10 H 0.6987 0.3796 0.1564
H27_10 H 0.6564 0.3796 0.1987
C73_10 C 0.67653(17) 0.29759(19) 0.0984(2)
C74_10 C 0.5984(2) 0.32347(17) 0.20241(19)
C75_10 C 0.5984(2) 0.29759(19) 0.17653(17)
C76_10 C 0.70241(19) 0.32347(17) 0.0984(2)
C77_10 C 0.70241(19) 0.4016(2) 0.17653(17)
C78_10 C 0.67653(17) 0.4016(2) 0.20241(19)
H45_10 H 0.6719 0.2858 0.0935
H46_10 H 0.5935 0.3281 0.2142
H47_10 H 0.5935 0.2858 0.1719
H48_10 H 0.7142 0.3281 0.0935
H49_10 H 0.7142 0.4065 0.1719
H50_10 H 0.6719 0.4065 0.2142
C93_10 C 0.69295(18) 0.30705(18) 0.0897(2)
C94_10 C 0.5897(2) 0.30705(18) 0.19295(18)
C95_10 C 0.69295(18) 0.4103(2) 0.19295(18)
C104_10 C 0.70205(12) 0.29795(12) 0.07159(17)
C105_10 C 0.57159(17) 0.29795(12) 0.20205(12)
C106_10 C 0.70205(12) 0.42841(17) 0.20205(12)
C118_10 C 0.69384(13) 0.28022(12) 0.06450(16)
C119_10 C 0.56450(16) 0.30616(13) 0.21978(12)
C120_10 C 0.56450(16) 0.28022(12) 0.19384(13)
C121_10 C 0.71978(12) 0.30616(13) 0.06450(16)
C122_10 C 0.71978(12) 0.43550(16) 0.19384(13)
C123_10 C 0.69384(13) 0.43550(16) 0.21978(12)
H68_10 H 0.6823 0.2752 0.0698
H69_10 H 0.5698 0.3177 0.2248
H70_10 H 0.5698 0.2752 0.1823
H71_10 H 0.7248 0.3177 0.0698
H72_10 H 0.7248 0.4302 0.1823
H73_10 H 0.6823 0.4302 0.2248
C141_10 C 0.70379(14) 0.27027(15) 0.04903(16)
C142_10 C 0.54903(16) 0.29621(14) 0.22973(15)
C143_10 C 0.54903(16) 0.27027(15) 0.20379(14)
C144_10 C 0.72973(15) 0.29621(14) 0.04903(16)
C145_10 C 0.72973(15) 0.45097(16) 0.20379(14)
C146_10 C 0.70379(14) 0.45097(16) 0.22973(15)
H91_10 H 0.6991 0.2584 0.0444
H92_10 H 0.5444 0.3009 0.2416
H93_10 H 0.5444 0.2584 0.1991
H94_10 H 0.7416 0.3009 0.0444
H95_10 H 0.7416 0.4556 0.1991
H96_10 H 0.6991 0.4556 0.2416
C161_10 C 0.72109(15) 0.27891(15) 0.0408(2)
C162_10 C 0.5408(2) 0.27891(15) 0.22109(15)
C163_10 C 0.72109(15) 0.4592(2) 0.22109(15)
C172_10 C 0.73254(18) 0.26746(18) 0.0252(2)
C173_10 C 0.5252(2) 0.26746(18) 0.23254(18)
C174_10 C 0.73254(18) 0.4748(2) 0.23254(18)
O22_10 O 0.51944(9) 0.27573(10) 0.75232(9)
O23_10 O 0.51944(9) 0.25232(9) 0.77573(10)
O24_10 O 0.74768(9) 0.48056(9) 0.77573(10)
O25_10 O 0.72427(10) 0.48056(9) 0.75232(9)
C20_10 C 0.64749(14) 0.32677(16) 0.85251(14)
C21_10 C 0.64749(14) 0.35251(14) 0.82677(16)
C22_10 C 0.67323(16) 0.35251(14) 0.85251(14)
H14_10 H 0.6420 0.3156 0.8580
H15_10 H 0.6420 0.3580 0.8156
H16_10 H 0.6844 0.3580 0.8580
C31_10 C 0.66460(15) 0.33540(15) 0.86120(16)
C32_10 C 0.63880(16) 0.33540(15) 0.83540(15)
C33_10 C 0.66460(15) 0.36120(16) 0.83540(15)
C42_10 C 0.67570(17) 0.32430(17) 0.8775(2)
C43_10 C 0.6225(2) 0.32430(17) 0.82430(17)
C44_10 C 0.67570(17) 0.3775(2) 0.82430(17)
C62_10 C 0.66750(16) 0.30671(15) 0.88524(18)
C63_10 C 0.61476(18) 0.33250(16) 0.80671(15)
C64_10 C 0.61476(18) 0.30671(15) 0.83250(16)
C65_10 C 0.69329(15) 0.33250(16) 0.88524(18)
C66_10 C 0.69329(15) 0.38524(18) 0.83250(16)
C67_10 C 0.66750(16) 0.38524(18) 0.80671(15)
H34_10 H 0.6564 0.3013 0.8796
H35_10 H 0.6204 0.3436 0.8013
H36_10 H 0.6204 0.3013 0.8436
H37_10 H 0.6987 0.3436 0.8796
H38_10 H 0.6987 0.3796 0.8436
H39_10 H 0.6564 0.3796 0.8013
C85_10 C 0.67653(17) 0.29759(19) 0.9016(2)
C86_10 C 0.5984(2) 0.32347(17) 0.79759(19)
C87_10 C 0.5984(2) 0.29759(19) 0.82347(17)
C88_10 C 0.70241(19) 0.32347(17) 0.9016(2)
C89_10 C 0.70241(19) 0.4016(2) 0.82347(17)
C90_10 C 0.67653(17) 0.4016(2) 0.79759(19)
H57_10 H 0.6719 0.2858 0.9065
H58_10 H 0.5935 0.3281 0.7858
H59_10 H 0.5935 0.2858 0.8281
H60_10 H 0.7142 0.3281 0.9065
H61_10 H 0.7142 0.4065 0.8281
H62_10 H 0.6719 0.4065 0.7858
C99_10 C 0.69295(18) 0.30705(18) 0.9103(2)
C100_10 C 0.5897(2) 0.30705(18) 0.80705(18)
C101_10 C 0.69295(18) 0.4103(2) 0.80705(18)
C110_10 C 0.70205(12) 0.29795(12) 0.92841(17)
C111_10 C 0.57159(17) 0.29795(12) 0.79795(12)
C112_10 C 0.70205(12) 0.42841(17) 0.79795(12)
C130_10 C 0.69384(13) 0.28022(12) 0.93550(16)
C131_10 C 0.56450(16) 0.30616(13) 0.78022(12)
C132_10 C 0.56450(16) 0.28022(12) 0.80616(13)
C133_10 C 0.71978(12) 0.30616(13) 0.93550(16)
C134_10 C 0.71978(12) 0.43550(16) 0.80616(13)
C135_10 C 0.69384(13) 0.43550(16) 0.78022(12)
H80_10 H 0.6823 0.2752 0.9302
H81_10 H 0.5698 0.3177 0.7752
H82_10 H 0.5698 0.2752 0.8177
H83_10 H 0.7248 0.3177 0.9302
H84_10 H 0.7248 0.4302 0.8177
H85_10 H 0.6823 0.4302 0.7752
C153_10 C 0.70379(14) 0.27027(15) 0.95097(16)
C154_10 C 0.54903(16) 0.29621(14) 0.77027(15)
C155_10 C 0.54903(16) 0.27027(15) 0.79621(14)
C156_10 C 0.72973(15) 0.29621(14) 0.95097(16)
C157_10 C 0.72973(15) 0.45097(16) 0.79621(14)
C158_10 C 0.70379(14) 0.45097(16) 0.77027(15)
H103_10 H 0.6991 0.2584 0.9556
H104_10 H 0.5444 0.3009 0.7584
H105_10 H 0.5444 0.2584 0.8009
H106_10 H 0.7416 0.3009 0.9556
H107_10 H 0.7416 0.4556 0.8009
H108_10 H 0.6991 0.4556 0.7584
C167_10 C 0.72109(15) 0.27891(15) 0.9592(2)
C168_10 C 0.5408(2) 0.27891(15) 0.77891(15)
C169_10 C 0.72109(15) 0.4592(2) 0.77891(15)
C178_10 C 0.73254(18) 0.26746(18) 0.9748(2)
C179_10 C 0.5252(2) 0.26746(18) 0.76746(18)
C180_10 C 0.73254(18) 0.4748(2) 0.76746(18)
O10_11 O 0.48056(9) 0.72427(10) 0.24768(9)
O11_11 O 0.48056(9) 0.74768(9) 0.22427(10)
O12_11 O 0.25232(9) 0.51944(9) 0.22427(10)
O13_11 O 0.27573(10) 0.51944(9) 0.24768(9)
C14_11 C 0.35251(14) 0.67323(16) 0.14749(14)
C15_11 C 0.35251(14) 0.64749(14) 0.17323(16)
C16_11 C 0.32677(16) 0.64749(14) 0.14749(14)
H8_11 H 0.3580 0.6844 0.1420
H9_11 H 0.3580 0.6420 0.1844
H10_11 H 0.3156 0.6420 0.1420
C25_11 C 0.33540(15) 0.66460(15) 0.13880(16)
C26_11 C 0.36120(16) 0.66460(15) 0.16460(15)
C27_11 C 0.33540(15) 0.63880(16) 0.16460(15)
C36_11 C 0.32430(17) 0.67570(17) 0.1225(2)
C37_11 C 0.3775(2) 0.67570(17) 0.17570(17)
C38_11 C 0.32430(17) 0.6225(2) 0.17570(17)
C50_11 C 0.33250(16) 0.69329(15) 0.11476(18)
C51_11 C 0.38524(18) 0.66750(16) 0.19329(15)
C52_11 C 0.38524(18) 0.69329(15) 0.16750(16)
C53_11 C 0.30671(15) 0.66750(16) 0.11476(18)
C54_11 C 0.30671(15) 0.61476(18) 0.16750(16)
C55_11 C 0.33250(16) 0.61476(18) 0.19329(15)
H22_11 H 0.3436 0.6987 0.1204
H23_11 H 0.3796 0.6564 0.1987
H24_11 H 0.3796 0.6987 0.1564
H25_11 H 0.3013 0.6564 0.1204
H26_11 H 0.3013 0.6204 0.1564
H27_11 H 0.3436 0.6204 0.1987
C73_11 C 0.32347(17) 0.70241(19) 0.0984(2)
C74_11 C 0.4016(2) 0.67653(17) 0.20241(19)
C75_11 C 0.4016(2) 0.70241(19) 0.17653(17)
C76_11 C 0.29759(19) 0.67653(17) 0.0984(2)
C77_11 C 0.29759(19) 0.5984(2) 0.17653(17)
C78_11 C 0.32347(17) 0.5984(2) 0.20241(19)
H45_11 H 0.3281 0.7142 0.0935
H46_11 H 0.4065 0.6719 0.2142
H47_11 H 0.4065 0.7142 0.1719
H48_11 H 0.2858 0.6719 0.0935
H49_11 H 0.2858 0.5935 0.1719
H50_11 H 0.3281 0.5935 0.2142
C93_11 C 0.30705(18) 0.69295(18) 0.0897(2)
C94_11 C 0.4103(2) 0.69295(18) 0.19295(18)
C95_11 C 0.30705(18) 0.5897(2) 0.19295(18)
C104_11 C 0.29795(12) 0.70205(12) 0.07159(17)
C105_11 C 0.42841(17) 0.70205(12) 0.20205(12)
C106_11 C 0.29795(12) 0.57159(17) 0.20205(12)
C118_11 C 0.30616(13) 0.71978(12) 0.06450(16)
C119_11 C 0.43550(16) 0.69384(13) 0.21978(12)
C120_11 C 0.43550(16) 0.71978(12) 0.19384(13)
C121_11 C 0.28022(12) 0.69384(13) 0.06450(16)
C122_11 C 0.28022(12) 0.56450(16) 0.19384(13)
C123_11 C 0.30616(13) 0.56450(16) 0.21978(12)
H68_11 H 0.3177 0.7248 0.0698
H69_11 H 0.4302 0.6823 0.2248
H70_11 H 0.4302 0.7248 0.1823
H71_11 H 0.2752 0.6823 0.0698
H72_11 H 0.2752 0.5698 0.1823
H73_11 H 0.3177 0.5698 0.2248
C141_11 C 0.29621(14) 0.72973(15) 0.04903(16)
C142_11 C 0.45097(16) 0.70379(14) 0.22973(15)
C143_11 C 0.45097(16) 0.72973(15) 0.20379(14)
C144_11 C 0.27027(15) 0.70379(14) 0.04903(16)
C145_11 C 0.27027(15) 0.54903(16) 0.20379(14)
C146_11 C 0.29621(14) 0.54903(16) 0.22973(15)
H91_11 H 0.3009 0.7416 0.0444
H92_11 H 0.4556 0.6991 0.2416
H93_11 H 0.4556 0.7416 0.1991
H94_11 H 0.2584 0.6991 0.0444
H95_11 H 0.2584 0.5444 0.1991
H96_11 H 0.3009 0.5444 0.2416
C161_11 C 0.27891(15) 0.72109(15) 0.0408(2)
C162_11 C 0.4592(2) 0.72109(15) 0.22109(15)
C163_11 C 0.27891(15) 0.5408(2) 0.22109(15)
C172_11 C 0.26746(18) 0.73254(18) 0.0252(2)
C173_11 C 0.4748(2) 0.73254(18) 0.23254(18)
C174_11 C 0.26746(18) 0.5252(2) 0.23254(18)
O22_11 O 0.48056(9) 0.72427(10) 0.75232(9)
O23_11 O 0.48056(9) 0.74768(9) 0.77573(10)
O24_11 O 0.25232(9) 0.51944(9) 0.77573(10)
O25_11 O 0.27573(10) 0.51944(9) 0.75232(9)
C20_11 C 0.35251(14) 0.67323(16) 0.85251(14)
C21_11 C 0.35251(14) 0.64749(14) 0.82677(16)
C22_11 C 0.32677(16) 0.64749(14) 0.85251(14)
H14_11 H 0.3580 0.6844 0.8580
H15_11 H 0.3580 0.6420 0.8156
H16_11 H 0.3156 0.6420 0.8580
C31_11 C 0.33540(15) 0.66460(15) 0.86120(16)
C32_11 C 0.36120(16) 0.66460(15) 0.83540(15)
C33_11 C 0.33540(15) 0.63880(16) 0.83540(15)
C42_11 C 0.32430(17) 0.67570(17) 0.8775(2)
C43_11 C 0.3775(2) 0.67570(17) 0.82430(17)
C44_11 C 0.32430(17) 0.6225(2) 0.82430(17)
C62_11 C 0.33250(16) 0.69329(15) 0.88524(18)
C63_11 C 0.38524(18) 0.66750(16) 0.80671(15)
C64_11 C 0.38524(18) 0.69329(15) 0.83250(16)
C65_11 C 0.30671(15) 0.66750(16) 0.88524(18)
C66_11 C 0.30671(15) 0.61476(18) 0.83250(16)
C67_11 C 0.33250(16) 0.61476(18) 0.80671(15)
H34_11 H 0.3436 0.6987 0.8796
H35_11 H 0.3796 0.6564 0.8013
H36_11 H 0.3796 0.6987 0.8436
H37_11 H 0.3013 0.6564 0.8796
H38_11 H 0.3013 0.6204 0.8436
H39_11 H 0.3436 0.6204 0.8013
C85_11 C 0.32347(17) 0.70241(19) 0.9016(2)
C86_11 C 0.4016(2) 0.67653(17) 0.79759(19)
C87_11 C 0.4016(2) 0.70241(19) 0.82347(17)
C88_11 C 0.29759(19) 0.67653(17) 0.9016(2)
C89_11 C 0.29759(19) 0.5984(2) 0.82347(17)
C90_11 C 0.32347(17) 0.5984(2) 0.79759(19)
H57_11 H 0.3281 0.7142 0.9065
H58_11 H 0.4065 0.6719 0.7858
H59_11 H 0.4065 0.7142 0.8281
H60_11 H 0.2858 0.6719 0.9065
H61_11 H 0.2858 0.5935 0.8281
H62_11 H 0.3281 0.5935 0.7858
C99_11 C 0.30705(18) 0.69295(18) 0.9103(2)
C100_11 C 0.4103(2) 0.69295(18) 0.80705(18)
C101_11 C 0.30705(18) 0.5897(2) 0.80705(18)
C110_11 C 0.29795(12) 0.70205(12) 0.92841(17)
C111_11 C 0.42841(17) 0.70205(12) 0.79795(12)
C112_11 C 0.29795(12) 0.57159(17) 0.79795(12)
C130_11 C 0.30616(13) 0.71978(12) 0.93550(16)
C131_11 C 0.43550(16) 0.69384(13) 0.78022(12)
C132_11 C 0.43550(16) 0.71978(12) 0.80616(13)
C133_11 C 0.28022(12) 0.69384(13) 0.93550(16)
C134_11 C 0.28022(12) 0.56450(16) 0.80616(13)
C135_11 C 0.30616(13) 0.56450(16) 0.78022(12)
H80_11 H 0.3177 0.7248 0.9302
H81_11 H 0.4302 0.6823 0.7752
H82_11 H 0.4302 0.7248 0.8177
H83_11 H 0.2752 0.6823 0.9302
H84_11 H 0.2752 0.5698 0.8177
H85_11 H 0.3177 0.5698 0.7752
C153_11 C 0.29621(14) 0.72973(15) 0.95097(16)
C154_11 C 0.45097(16) 0.70379(14) 0.77027(15)
C155_11 C 0.45097(16) 0.72973(15) 0.79621(14)
C156_11 C 0.27027(15) 0.70379(14) 0.95097(16)
C157_11 C 0.27027(15) 0.54903(16) 0.79621(14)
C158_11 C 0.29621(14) 0.54903(16) 0.77027(15)
H103_11 H 0.3009 0.7416 0.9556
H104_11 H 0.4556 0.6991 0.7584
H105_11 H 0.4556 0.7416 0.8009
H106_11 H 0.2584 0.6991 0.9556
H107_11 H 0.2584 0.5444 0.8009
H108_11 H 0.3009 0.5444 0.7584
C167_11 C 0.27891(15) 0.72109(15) 0.9592(2)
C168_11 C 0.4592(2) 0.72109(15) 0.77891(15)
C169_11 C 0.27891(15) 0.5408(2) 0.77891(15)
C178_11 C 0.26746(18) 0.73254(18) 0.9748(2)
C179_11 C 0.4748(2) 0.73254(18) 0.76746(18)
C180_11 C 0.26746(18) 0.5252(2) 0.76746(18)
O22_12 O 0.51944(9) 0.72427(10) 0.24768(9)
O23_12 O 0.51944(9) 0.74768(9) 0.22427(10)
O24_12 O 0.74768(9) 0.51944(9) 0.22427(10)
O25_12 O 0.72427(10) 0.51944(9) 0.24768(9)
C20_12 C 0.64749(14) 0.67323(16) 0.14749(14)
C21_12 C 0.64749(14) 0.64749(14) 0.17323(16)
C22_12 C 0.67323(16) 0.64749(14) 0.14749(14)
H14_12 H 0.6420 0.6844 0.1420
H15_12 H 0.6420 0.6420 0.1844
H16_12 H 0.6844 0.6420 0.1420
C31_12 C 0.66460(15) 0.66460(15) 0.13880(16)
C32_12 C 0.63880(16) 0.66460(15) 0.16460(15)
C33_12 C 0.66460(15) 0.63880(16) 0.16460(15)
C42_12 C 0.67570(17) 0.67570(17) 0.1225(2)
C43_12 C 0.6225(2) 0.67570(17) 0.17570(17)
C44_12 C 0.67570(17) 0.6225(2) 0.17570(17)
C62_12 C 0.66750(16) 0.69329(15) 0.11476(18)
C63_12 C 0.61476(18) 0.66750(16) 0.19329(15)
C64_12 C 0.61476(18) 0.69329(15) 0.16750(16)
C65_12 C 0.69329(15) 0.66750(16) 0.11476(18)
C66_12 C 0.69329(15) 0.61476(18) 0.16750(16)
C67_12 C 0.66750(16) 0.61476(18) 0.19329(15)
H34_12 H 0.6564 0.6987 0.1204
H35_12 H 0.6204 0.6564 0.1987
H36_12 H 0.6204 0.6987 0.1564
H37_12 H 0.6987 0.6564 0.1204
H38_12 H 0.6987 0.6204 0.1564
H39_12 H 0.6564 0.6204 0.1987
C85_12 C 0.67653(17) 0.70241(19) 0.0984(2)
C86_12 C 0.5984(2) 0.67653(17) 0.20241(19)
C87_12 C 0.5984(2) 0.70241(19) 0.17653(17)
C88_12 C 0.70241(19) 0.67653(17) 0.0984(2)
C89_12 C 0.70241(19) 0.5984(2) 0.17653(17)
C90_12 C 0.67653(17) 0.5984(2) 0.20241(19)
H57_12 H 0.6719 0.7142 0.0935
H58_12 H 0.5935 0.6719 0.2142
H59_12 H 0.5935 0.7142 0.1719
H60_12 H 0.7142 0.6719 0.0935
H61_12 H 0.7142 0.5935 0.1719
H62_12 H 0.6719 0.5935 0.2142
C99_12 C 0.69295(18) 0.69295(18) 0.0897(2)
C100_12 C 0.5897(2) 0.69295(18) 0.19295(18)
C101_12 C 0.69295(18) 0.5897(2) 0.19295(18)
C110_12 C 0.70205(12) 0.70205(12) 0.07159(17)
C111_12 C 0.57159(17) 0.70205(12) 0.20205(12)
C112_12 C 0.70205(12) 0.57159(17) 0.20205(12)
C130_12 C 0.69384(13) 0.71978(12) 0.06450(16)
C131_12 C 0.56450(16) 0.69384(13) 0.21978(12)
C132_12 C 0.56450(16) 0.71978(12) 0.19384(13)
C133_12 C 0.71978(12) 0.69384(13) 0.06450(16)
C134_12 C 0.71978(12) 0.56450(16) 0.19384(13)
C135_12 C 0.69384(13) 0.56450(16) 0.21978(12)
H80_12 H 0.6823 0.7248 0.0698
H81_12 H 0.5698 0.6823 0.2248
H82_12 H 0.5698 0.7248 0.1823
H83_12 H 0.7248 0.6823 0.0698
H84_12 H 0.7248 0.5698 0.1823
H85_12 H 0.6823 0.5698 0.2248
C153_12 C 0.70379(14) 0.72973(15) 0.04903(16)
C154_12 C 0.54903(16) 0.70379(14) 0.22973(15)
C155_12 C 0.54903(16) 0.72973(15) 0.20379(14)
C156_12 C 0.72973(15) 0.70379(14) 0.04903(16)
C157_12 C 0.72973(15) 0.54903(16) 0.20379(14)
C158_12 C 0.70379(14) 0.54903(16) 0.22973(15)
H103_12 H 0.6991 0.7416 0.0444
H104_12 H 0.5444 0.6991 0.2416
H105_12 H 0.5444 0.7416 0.1991
H106_12 H 0.7416 0.6991 0.0444
H107_12 H 0.7416 0.5444 0.1991
H108_12 H 0.6991 0.5444 0.2416
C167_12 C 0.72109(15) 0.72109(15) 0.0408(2)
C168_12 C 0.5408(2) 0.72109(15) 0.22109(15)
C169_12 C 0.72109(15) 0.5408(2) 0.22109(15)
C178_12 C 0.73254(18) 0.73254(18) 0.0252(2)
C179_12 C 0.5252(2) 0.73254(18) 0.23254(18)
C180_12 C 0.73254(18) 0.5252(2) 0.23254(18)
O10_12 O 0.51944(9) 0.72427(10) 0.75232(9)
O11_12 O 0.51944(9) 0.74768(9) 0.77573(10)
O12_12 O 0.74768(9) 0.51944(9) 0.77573(10)
O13_12 O 0.72427(10) 0.51944(9) 0.75232(9)
C14_12 C 0.64749(14) 0.67323(16) 0.85251(14)
C15_12 C 0.64749(14) 0.64749(14) 0.82677(16)
C16_12 C 0.67323(16) 0.64749(14) 0.85251(14)
H8_12 H 0.6420 0.6844 0.8580
H9_12 H 0.6420 0.6420 0.8156
H10_12 H 0.6844 0.6420 0.8580
C25_12 C 0.66460(15) 0.66460(15) 0.86120(16)
C26_12 C 0.63880(16) 0.66460(15) 0.83540(15)
C27_12 C 0.66460(15) 0.63880(16) 0.83540(15)
C36_12 C 0.67570(17) 0.67570(17) 0.8775(2)
C37_12 C 0.6225(2) 0.67570(17) 0.82430(17)
C38_12 C 0.67570(17) 0.6225(2) 0.82430(17)
C50_12 C 0.66750(16) 0.69329(15) 0.88524(18)
C51_12 C 0.61476(18) 0.66750(16) 0.80671(15)
C52_12 C 0.61476(18) 0.69329(15) 0.83250(16)
C53_12 C 0.69329(15) 0.66750(16) 0.88524(18)
C54_12 C 0.69329(15) 0.61476(18) 0.83250(16)
C55_12 C 0.66750(16) 0.61476(18) 0.80671(15)
H22_12 H 0.6564 0.6987 0.8796
H23_12 H 0.6204 0.6564 0.8013
H24_12 H 0.6204 0.6987 0.8436
H25_12 H 0.6987 0.6564 0.8796
H26_12 H 0.6987 0.6204 0.8436
H27_12 H 0.6564 0.6204 0.8013
C73_12 C 0.67653(17) 0.70241(19) 0.9016(2)
C74_12 C 0.5984(2) 0.67653(17) 0.79759(19)
C75_12 C 0.5984(2) 0.70241(19) 0.82347(17)
C76_12 C 0.70241(19) 0.67653(17) 0.9016(2)
C77_12 C 0.70241(19) 0.5984(2) 0.82347(17)
C78_12 C 0.67653(17) 0.5984(2) 0.79759(19)
H45_12 H 0.6719 0.7142 0.9065
H46_12 H 0.5935 0.6719 0.7858
H47_12 H 0.5935 0.7142 0.8281
H48_12 H 0.7142 0.6719 0.9065
H49_12 H 0.7142 0.5935 0.8281
H50_12 H 0.6719 0.5935 0.7858
C93_12 C 0.69295(18) 0.69295(18) 0.9103(2)
C94_12 C 0.5897(2) 0.69295(18) 0.80705(18)
C95_12 C 0.69295(18) 0.5897(2) 0.80705(18)
C104_12 C 0.70205(12) 0.70205(12) 0.92841(17)
C105_12 C 0.57159(17) 0.70205(12) 0.79795(12)
C106_12 C 0.70205(12) 0.57159(17) 0.79795(12)
C118_12 C 0.69384(13) 0.71978(12) 0.93550(16)
C119_12 C 0.56450(16) 0.69384(13) 0.78022(12)
C120_12 C 0.56450(16) 0.71978(12) 0.80616(13)
C121_12 C 0.71978(12) 0.69384(13) 0.93550(16)
C122_12 C 0.71978(12) 0.56450(16) 0.80616(13)
C123_12 C 0.69384(13) 0.56450(16) 0.78022(12)
H68_12 H 0.6823 0.7248 0.9302
H69_12 H 0.5698 0.6823 0.7752
H70_12 H 0.5698 0.7248 0.8177
H71_12 H 0.7248 0.6823 0.9302
H72_12 H 0.7248 0.5698 0.8177
H73_12 H 0.6823 0.5698 0.7752
C141_12 C 0.70379(14) 0.72973(15) 0.95097(16)
C142_12 C 0.54903(16) 0.70379(14) 0.77027(15)
C143_12 C 0.54903(16) 0.72973(15) 0.79621(14)
C144_12 C 0.72973(15) 0.70379(14) 0.95097(16)
C145_12 C 0.72973(15) 0.54903(16) 0.79621(14)
C146_12 C 0.70379(14) 0.54903(16) 0.77027(15)
H91_12 H 0.6991 0.7416 0.9556
H92_12 H 0.5444 0.6991 0.7584
H93_12 H 0.5444 0.7416 0.8009
H94_12 H 0.7416 0.6991 0.9556
H95_12 H 0.7416 0.5444 0.8009
H96_12 H 0.6991 0.5444 0.7584
C161_12 C 0.72109(15) 0.72109(15) 0.9592(2)
C162_12 C 0.5408(2) 0.72109(15) 0.77891(15)
C163_12 C 0.72109(15) 0.5408(2) 0.77891(15)
C172_12 C 0.73254(18) 0.73254(18) 0.9748(2)
C173_12 C 0.5252(2) 0.73254(18) 0.76746(18)
C174_12 C 0.73254(18) 0.5252(2) 0.76746(18)
O39_9 O 0.28846(9) 0.71154(9) 0.5000
O40_9 O 0.21154(9) 0.78846(9) 0.5000
O41_9 O 0.21154(9) 0.5000 0.78846(9)
O42_9 O 0.28846(9) 0.5000 0.71154(9)
O39_10 O 0.71154(9) 0.28846(9) 0.5000
O40_10 O 0.78846(9) 0.21154(9) 0.5000
O41_10 O 0.78846(9) 0.5000 0.78846(9)
O42_10 O 0.71154(9) 0.5000 0.71154(9)
O39_11 O 0.71154(9) 0.71154(9) 0.5000
O40_11 O 0.78846(9) 0.78846(9) 0.5000
O41_11 O 0.78846(9) 0.5000 0.21154(9)
O42_11 O 0.71154(9) 0.5000 0.28846(9)
O39_12 O 0.28846(9) 0.28846(9) 0.5000
O40_12 O 0.21154(9) 0.21154(9) 0.5000
O41_12 O 0.21154(9) 0.5000 0.21154(9)
O42_12 O 0.28846(9) 0.5000 0.28846(9)
O2_9 O 0.5000 0.28846(9) 0.71154(9)
O38_9 O 0.5000 0.21154(9) 0.78846(9)
O2_10 O 0.5000 0.71154(9) 0.71154(9)
O38_10 O 0.5000 0.78846(9) 0.78846(9)
O2_11 O 0.5000 0.28846(9) 0.28846(9)
O38_11 O 0.5000 0.21154(9) 0.21154(9)
O2_12 O 0.5000 0.71154(9) 0.28846(9)
O38_12 O 0.5000 0.78846(9) 0.21154(9)
loop_
_geom_bond_atom_site_label_1
_geom_bond_atom_site_label_2
_geom_bond_site_symmetry_1
_geom_bond_site_symmetry_2
Cu1 O1 1_555 1_555
O1 C11 1_555 1_555
O2 Cu1 1_555 1_555
C1 H1 1_555 1_555
C2 C1 1_555 1_555
C3 C2 1_555 1_555
C4 C3 1_555 1_555
H2 C4 1_555 1_555
C5 C4 1_555 1_555
H3 C5 1_555 1_555
C6 C5 1_555 1_555
C7 C6 1_555 1_555
C8 C7 1_555 1_555
H4 C8 1_555 1_555
C9 C8 1_555 1_555
H5 C9 1_555 1_555
C10 C9 1_555 1_555
C11 C10 1_555 1_555
Cu2 O3 1_555 1_555
Cu3 O4 1_555 1_555
Cu4 O5 1_555 1_555
Cu5 O6 1_555 1_555
Cu6 O7 1_555 1_555
Cu15 O22 1_555 1_555
Cu16 O23 1_555 1_555
Cu17 O24 1_555 1_555
Cu18 O25 1_555 1_555
O3 C11 1_555 1_555
O4 C170 1_555 1_555
O5 C170 1_555 1_555
O6 C171 1_555 1_555
O7 C171 1_555 1_555
O20 Cu1 1_555 1_555
O21 Cu2 1_555 1_555
O22 C179 1_555 1_555
O23 C179 1_555 1_555
O24 C180 1_555 1_555
O25 C180 1_555 1_555
O28 Cu3 1_555 1_555
O31 Cu4 1_555 1_555
O34 Cu5 1_555 1_555
O37 Cu6 1_555 1_555
O38 Cu2 1_555 1_555
O39 Cu3 1_555 1_555
O40 Cu4 1_555 1_555
O41 Cu5 1_555 1_555
O42 Cu6 1_555 1_555
C12 H6 1_555 1_555
C13 C2 1_555 1_555
C20 H14 1_555 1_555
C21 H15 1_555 1_555
C22 H16 1_555 1_555
H7 C13 1_555 1_555
C23 C1 1_555 1_555
C24 C12 1_555 1_555
C31 C20 1_555 1_555
C32 C20 1_555 1_555
C33 C21 1_555 1_555
C34 C23 1_555 1_555
C35 C24 1_555 1_555
C42 C31 1_555 1_555
C43 C32 1_555 1_555
C44 C33 1_555 1_555
C45 C34 1_555 1_555
C46 C34 1_555 1_555
C47 C3 1_555 1_555
C48 C35 1_555 1_555
C49 C35 1_555 1_555
C62 C42 1_555 1_555
C63 C43 1_555 1_555
C64 C43 1_555 1_555
C65 C42 1_555 1_555
C66 C44 1_555 1_555
C67 C44 1_555 1_555
H17 C45 1_555 1_555
H18 C46 1_555 1_555
H19 C47 1_555 1_555
H20 C48 1_555 1_555
H21 C49 1_555 1_555
H34 C62 1_555 1_555
H35 C63 1_555 1_555
H36 C64 1_555 1_555
H37 C65 1_555 1_555
H38 C66 1_555 1_555
H39 C67 1_555 1_555
C68 C45 1_555 1_555
C69 C46 1_555 1_555
C70 C6 1_555 1_555
C71 C48 1_555 1_555
C72 C49 1_555 1_555
C85 C62 1_555 1_555
C86 C63 1_555 1_555
C87 C64 1_555 1_555
C88 C65 1_555 1_555
C89 C66 1_555 1_555
C90 C67 1_555 1_555
H40 C68 1_555 1_555
H41 C69 1_555 1_555
H42 C70 1_555 1_555
H43 C71 1_555 1_555
H44 C72 1_555 1_555
H57 C85 1_555 1_555
H58 C86 1_555 1_555
H59 C87 1_555 1_555
H60 C88 1_555 1_555
H61 C89 1_555 1_555
H62 C90 1_555 1_555
C91 C68 1_555 1_555
C92 C71 1_555 1_555
C99 C85 1_555 1_555
C100 C86 1_555 1_555
C101 C89 1_555 1_555
C102 C91 1_555 1_555
C103 C92 1_555 1_555
C110 C99 1_555 1_555
C111 C100 1_555 1_555
C112 C101 1_555 1_555
C113 C102 1_555 1_555
C114 C102 1_555 1_555
C115 C7 1_555 1_555
C116 C103 1_555 1_555
C117 C103 1_555 1_555
C130 C110 1_555 1_555
C131 C111 1_555 1_555
C132 C111 1_555 1_555
C133 C110 1_555 1_555
C134 C112 1_555 1_555
C135 C112 1_555 1_555
H63 C113 1_555 1_555
H64 C114 1_555 1_555
H65 C115 1_555 1_555
H66 C116 1_555 1_555
H67 C117 1_555 1_555
H80 C130 1_555 1_555
H81 C131 1_555 1_555
H82 C132 1_555 1_555
H83 C133 1_555 1_555
H84 C134 1_555 1_555
H85 C135 1_555 1_555
C136 C113 1_555 1_555
C137 C114 1_555 1_555
C138 C10 1_555 1_555
C139 C116 1_555 1_555
C140 C117 1_555 1_555
C153 C130 1_555 1_555
C154 C131 1_555 1_555
C155 C132 1_555 1_555
C156 C133 1_555 1_555
C157 C134 1_555 1_555
C158 C135 1_555 1_555
H86 C136 1_555 1_555
H87 C137 1_555 1_555
H88 C138 1_555 1_555
H89 C139 1_555 1_555
H90 C140 1_555 1_555
H103 C153 1_555 1_555
H104 C154 1_555 1_555
H105 C155 1_555 1_555
H106 C156 1_555 1_555
H107 C157 1_555 1_555
H108 C158 1_555 1_555
C159 C136 1_555 1_555
C160 C139 1_555 1_555
C167 C153 1_555 1_555
C168 C154 1_555 1_555
C169 C157 1_555 1_555
C170 C159 1_555 1_555
C171 C160 1_555 1_555
C178 O20 1_555 1_555
C179 C168 1_555 1_555
C180 C169 1_555 1_555
O21 C178 1_555 1_555
C12 C23 1_555 1_555
C13 C24 1_555 1_555
C21 C32 1_555 1_555
C22 C31 1_555 1_555
C22 C33 1_555 1_555
C47 C70 1_555 1_555
C69 C91 1_555 1_555
C72 C92 1_555 1_555
C87 C100 1_555 1_555
C88 C99 1_555 1_555
C90 C101 1_555 1_555
C115 C138 1_555 1_555
C137 C159 1_555 1_555
C140 C160 1_555 1_555
C155 C168 1_555 1_555
C156 C167 1_555 1_555
C158 C169 1_555 1_555
C167 C178 1_555 1_555
O26 Cu3_2 1_555 1_555
O27 Cu3_2 1_555 1_555
O29 Cu4_2 1_555 1_555
O30 Cu4_2 1_555 1_555
O39_2 Cu3_2 1_555 1_555
O40_2 Cu4_2 1_555 1_555
O32 Cu5_2 1_555 1_555
O33 Cu5_2 1_555 1_555
O35 Cu6_2 1_555 1_555
O36 Cu6_2 1_555 1_555
O41_2 Cu5_2 1_555 1_555
O42_2 Cu6_2 1_555 1_555
O2_2 Cu1_2 1_555 1_555
Cu7 O10 1_555 1_555
Cu8 O11 1_555 1_555
Cu9 O12 1_555 1_555
Cu10 O13 1_555 1_555
Cu11 O16 1_555 1_555
Cu12 O17 1_555 1_555
Cu13 O18 1_555 1_555
Cu14 O19 1_555 1_555
O8 Cu1_2 1_555 1_555
O9 Cu2_2 1_555 1_555
O10 C173 1_555 1_555
O11 C173 1_555 1_555
O12 C174 1_555 1_555
O13 C174 1_555 1_555
O14 Cu1_2 1_555 1_555
O15 Cu2_2 1_555 1_555
O16 C176 1_555 1_555
O17 C176 1_555 1_555
O18 C177 1_555 1_555
O19 C177 1_555 1_555
O38_2 Cu2_2 1_555 1_555
C14 H8 1_555 1_555
C15 H9 1_555 1_555
C16 H10 1_555 1_555
C17 H11 1_555 1_555
C18 H12 1_555 1_555
C19 H13 1_555 1_555
C25 C14 1_555 1_555
C26 C14 1_555 1_555
C27 C15 1_555 1_555
C28 C17 1_555 1_555
C29 C17 1_555 1_555
C30 C18 1_555 1_555
C36 C25 1_555 1_555
C37 C26 1_555 1_555
C38 C27 1_555 1_555
C39 C28 1_555 1_555
C40 C29 1_555 1_555
C41 C30 1_555 1_555
C50 C36 1_555 1_555
C51 C37 1_555 1_555
C52 C37 1_555 1_555
C53 C36 1_555 1_555
C54 C38 1_555 1_555
C55 C38 1_555 1_555
C56 C39 1_555 1_555
C57 C40 1_555 1_555
C58 C40 1_555 1_555
C59 C39 1_555 1_555
C60 C41 1_555 1_555
C61 C41 1_555 1_555
H22 C50 1_555 1_555
H23 C51 1_555 1_555
H24 C52 1_555 1_555
H25 C53 1_555 1_555
H26 C54 1_555 1_555
H27 C55 1_555 1_555
H28 C56 1_555 1_555
H29 C57 1_555 1_555
H30 C58 1_555 1_555
H31 C59 1_555 1_555
H32 C60 1_555 1_555
H33 C61 1_555 1_555
C73 C50 1_555 1_555
C74 C51 1_555 1_555
C75 C52 1_555 1_555
C76 C53 1_555 1_555
C77 C54 1_555 1_555
C78 C55 1_555 1_555
C79 C56 1_555 1_555
C80 C57 1_555 1_555
C81 C58 1_555 1_555
C82 C59 1_555 1_555
C83 C60 1_555 1_555
C84 C61 1_555 1_555
H45 C73 1_555 1_555
H46 C74 1_555 1_555
H47 C75 1_555 1_555
H48 C76 1_555 1_555
H49 C77 1_555 1_555
H50 C78 1_555 1_555
H51 C79 1_555 1_555
H52 C80 1_555 1_555
H53 C81 1_555 1_555
H54 C82 1_555 1_555
H55 C83 1_555 1_555
H56 C84 1_555 1_555
C93 C73 1_555 1_555
C94 C74 1_555 1_555
C95 C77 1_555 1_555
C96 C79 1_555 1_555
C97 C80 1_555 1_555
C98 C83 1_555 1_555
C104 C93 1_555 1_555
C105 C94 1_555 1_555
C106 C95 1_555 1_555
C107 C96 1_555 1_555
C108 C97 1_555 1_555
C109 C98 1_555 1_555
C118 C104 1_555 1_555
C119 C105 1_555 1_555
C120 C105 1_555 1_555
C121 C104 1_555 1_555
C122 C106 1_555 1_555
C123 C106 1_555 1_555
C124 C107 1_555 1_555
C125 C108 1_555 1_555
C126 C108 1_555 1_555
C127 C107 1_555 1_555
C128 C109 1_555 1_555
C129 C109 1_555 1_555
H68 C118 1_555 1_555
H69 C119 1_555 1_555
H70 C120 1_555 1_555
H71 C121 1_555 1_555
H72 C122 1_555 1_555
H73 C123 1_555 1_555
H74 C124 1_555 1_555
H75 C125 1_555 1_555
H76 C126 1_555 1_555
H77 C127 1_555 1_555
H78 C128 1_555 1_555
H79 C129 1_555 1_555
C141 C118 1_555 1_555
C142 C119 1_555 1_555
C143 C120 1_555 1_555
C144 C121 1_555 1_555
C145 C122 1_555 1_555
C146 C123 1_555 1_555
C147 C124 1_555 1_555
C148 C125 1_555 1_555
C149 C126 1_555 1_555
C150 C127 1_555 1_555
C151 C128 1_555 1_555
C152 C129 1_555 1_555
H91 C141 1_555 1_555
H92 C142 1_555 1_555
H93 C143 1_555 1_555
H94 C144 1_555 1_555
H95 C145 1_555 1_555
H96 C146 1_555 1_555
H97 C147 1_555 1_555
H98 C148 1_555 1_555
H99 C149 1_555 1_555
H100 C150 1_555 1_555
H101 C151 1_555 1_555
H102 C152 1_555 1_555
C161 C141 1_555 1_555
C162 C142 1_555 1_555
C163 C145 1_555 1_555
C164 C147 1_555 1_555
C165 C148 1_555 1_555
C166 C151 1_555 1_555
C172 O8 1_555 1_555
C173 C162 1_555 1_555
C174 C163 1_555 1_555
C175 O14 1_555 1_555
C176 C165 1_555 1_555
C177 C166 1_555 1_555
O9 C172 1_555 1_555
O15 C175 1_555 1_555
C15 C26 1_555 1_555
C16 C25 1_555 1_555
C16 C27 1_555 1_555
C18 C29 1_555 1_555
C19 C28 1_555 1_555
C19 C30 1_555 1_555
C75 C94 1_555 1_555
C76 C93 1_555 1_555
C78 C95 1_555 1_555
C81 C97 1_555 1_555
C82 C96 1_555 1_555
C84 C98 1_555 1_555
C143 C162 1_555 1_555
C144 C161 1_555 1_555
C146 C163 1_555 1_555
C149 C165 1_555 1_555
C150 C164 1_555 1_555
C152 C166 1_555 1_555
C161 C172 1_555 1_555
C164 C175 1_555 1_555
O2_3 Cu1_3 1_555 1_555
Cu15 O10_2 1_555 1_555
Cu16 O11_2 1_555 1_555
Cu9_2 O12_2 1_555 1_555
Cu10_2 O13_2 1_555 1_555
Cu11_3 O16_2 1_555 1_555
Cu12_3 O17_2 1_555 1_555
O8_2 Cu1_3 1_555 1_555
O9_2 Cu2_3 1_555 1_555
O10_2 C173_2 1_555 1_555
O11_2 C173_2 1_555 1_555
O12_2 C174_2 1_555 1_555
O13_2 C174_2 1_555 1_555
O14_2 Cu1_3 1_555 1_555
O15_2 Cu2_3 1_555 1_555
O16_2 C176_2 1_555 1_555
O17_2 C176_2 1_555 1_555
O33 C177_2 1_555 1_555
O36 C177_2 1_555 1_555
O38_3 Cu2_3 1_555 1_555
C14_2 H8_2 1_555 1_555
C15_2 H9_2 1_555 1_555
C16_2 H10_2 1_555 1_555
C17_2 H11_2 1_555 1_555
C18_2 H12_2 1_555 1_555
C19_2 H13_2 1_555 1_555
C25_2 C14_2 1_555 1_555
C26_2 C14_2 1_555 1_555
C27_2 C15_2 1_555 1_555
C28_2 C17_2 1_555 1_555
C29_2 C17_2 1_555 1_555
C30_2 C18_2 1_555 1_555
C36_2 C25_2 1_555 1_555
C37_2 C26_2 1_555 1_555
C38_2 C27_2 1_555 1_555
C39_2 C28_2 1_555 1_555
C40_2 C29_2 1_555 1_555
C41_2 C30_2 1_555 1_555
C50_2 C36_2 1_555 1_555
C51_2 C37_2 1_555 1_555
C52_2 C37_2 1_555 1_555
C53_2 C36_2 1_555 1_555
C54_2 C38_2 1_555 1_555
C55_2 C38_2 1_555 1_555
C56_2 C39_2 1_555 1_555
C57_2 C40_2 1_555 1_555
C58_2 C40_2 1_555 1_555
C59_2 C39_2 1_555 1_555
C60_2 C41_2 1_555 1_555
C61_2 C41_2 1_555 1_555
H22_2 C50_2 1_555 1_555
H23_2 C51_2 1_555 1_555
H24_2 C52_2 1_555 1_555
H25_2 C53_2 1_555 1_555
H26_2 C54_2 1_555 1_555
H27_2 C55_2 1_555 1_555
H28_2 C56_2 1_555 1_555
H29_2 C57_2 1_555 1_555
H30_2 C58_2 1_555 1_555
H31_2 C59_2 1_555 1_555
H32_2 C60_2 1_555 1_555
H33_2 C61_2 1_555 1_555
C73_2 C50_2 1_555 1_555
C74_2 C51_2 1_555 1_555
C75_2 C52_2 1_555 1_555
C76_2 C53_2 1_555 1_555
C77_2 C54_2 1_555 1_555
C78_2 C55_2 1_555 1_555
C79_2 C56_2 1_555 1_555
C80_2 C57_2 1_555 1_555
C81_2 C58_2 1_555 1_555
C82_2 C59_2 1_555 1_555
C83_2 C60_2 1_555 1_555
C84_2 C61_2 1_555 1_555
H45_2 C73_2 1_555 1_555
H46_2 C74_2 1_555 1_555
H47_2 C75_2 1_555 1_555
H48_2 C76_2 1_555 1_555
H49_2 C77_2 1_555 1_555
H50_2 C78_2 1_555 1_555
H51_2 C79_2 1_555 1_555
H52_2 C80_2 1_555 1_555
H53_2 C81_2 1_555 1_555
H54_2 C82_2 1_555 1_555
H55_2 C83_2 1_555 1_555
H56_2 C84_2 1_555 1_555
C93_2 C73_2 1_555 1_555
C94_2 C74_2 1_555 1_555
C95_2 C77_2 1_555 1_555
C96_2 C79_2 1_555 1_555
C97_2 C80_2 1_555 1_555
C98_2 C83_2 1_555 1_555
C104_2 C93_2 1_555 1_555
C105_2 C94_2 1_555 1_555
C106_2 C95_2 1_555 1_555
C107_2 C96_2 1_555 1_555
C108_2 C97_2 1_555 1_555
C109_2 C98_2 1_555 1_555
C118_2 C104_2 1_555 1_555
C119_2 C105_2 1_555 1_555
C120_2 C105_2 1_555 1_555
C121_2 C104_2 1_555 1_555
C122_2 C106_2 1_555 1_555
C123_2 C106_2 1_555 1_555
C124_2 C107_2 1_555 1_555
C125_2 C108_2 1_555 1_555
C126_2 C108_2 1_555 1_555
C127_2 C107_2 1_555 1_555
C128_2 C109_2 1_555 1_555
C129_2 C109_2 1_555 1_555
H68_2 C118_2 1_555 1_555
H69_2 C119_2 1_555 1_555
H70_2 C120_2 1_555 1_555
H71_2 C121_2 1_555 1_555
H72_2 C122_2 1_555 1_555
H73_2 C123_2 1_555 1_555
H74_2 C124_2 1_555 1_555
H75_2 C125_2 1_555 1_555
H76_2 C126_2 1_555 1_555
H77_2 C127_2 1_555 1_555
H78_2 C128_2 1_555 1_555
H79_2 C129_2 1_555 1_555
C141_2 C118_2 1_555 1_555
C142_2 C119_2 1_555 1_555
C143_2 C120_2 1_555 1_555
C144_2 C121_2 1_555 1_555
C145_2 C122_2 1_555 1_555
C146_2 C123_2 1_555 1_555
C147_2 C124_2 1_555 1_555
C148_2 C125_2 1_555 1_555
C149_2 C126_2 1_555 1_555
C150_2 C127_2 1_555 1_555
C151_2 C128_2 1_555 1_555
C152_2 C129_2 1_555 1_555
H91_2 C141_2 1_555 1_555
H92_2 C142_2 1_555 1_555
H93_2 C143_2 1_555 1_555
H94_2 C144_2 1_555 1_555
H95_2 C145_2 1_555 1_555
H96_2 C146_2 1_555 1_555
H97_2 C147_2 1_555 1_555
H98_2 C148_2 1_555 1_555
H99_2 C149_2 1_555 1_555
H100_2 C150_2 1_555 1_555
H101_2 C151_2 1_555 1_555
H102_2 C152_2 1_555 1_555
C161_2 C141_2 1_555 1_555
C162_2 C142_2 1_555 1_555
C163_2 C145_2 1_555 1_555
C164_2 C147_2 1_555 1_555
C165_2 C148_2 1_555 1_555
C166_2 C151_2 1_555 1_555
C172_2 O8_2 1_555 1_555
C173_2 C162_2 1_555 1_555
C174_2 C163_2 1_555 1_555
C175_2 O14_2 1_555 1_555
C176_2 C165_2 1_555 1_555
C177_2 C166_2 1_555 1_555
O9_2 C172_2 1_555 1_555
O15_2 C175_2 1_555 1_555
C15_2 C26_2 1_555 1_555
C16_2 C25_2 1_555 1_555
C16_2 C27_2 1_555 1_555
C18_2 C29_2 1_555 1_555
C19_2 C28_2 1_555 1_555
C19_2 C30_2 1_555 1_555
C75_2 C94_2 1_555 1_555
C76_2 C93_2 1_555 1_555
C78_2 C95_2 1_555 1_555
C81_2 C97_2 1_555 1_555
C82_2 C96_2 1_555 1_555
C84_2 C98_2 1_555 1_555
C143_2 C162_2 1_555 1_555
C144_2 C161_2 1_555 1_555
C146_2 C163_2 1_555 1_555
C149_2 C165_2 1_555 1_555
C150_2 C164_2 1_555 1_555
C152_2 C166_2 1_555 1_555
C161_2 C172_2 1_555 1_555
C164_2 C175_2 1_555 1_555
O32_2 Cu13 1_555 1_555
O35_2 Cu14 1_555 1_555
O41_3 Cu13 1_555 1_555
O42_3 Cu14 1_555 1_555
Cu1_4 O1_2 1_555 1_555
O1_2 C11_2 1_555 1_555
O2_4 Cu1_4 1_555 1_555
C1_2 H1_2 1_555 1_555
C2_2 C1_2 1_555 1_555
C3_2 C2_2 1_555 1_555
C4_2 C3_2 1_555 1_555
H2_2 C4_2 1_555 1_555
C5_2 C4_2 1_555 1_555
H3_2 C5_2 1_555 1_555
C6_2 C5_2 1_555 1_555
C7_2 C6_2 1_555 1_555
C8_2 C7_2 1_555 1_555
H4_2 C8_2 1_555 1_555
C9_2 C8_2 1_555 1_555
H5_2 C9_2 1_555 1_555
C10_2 C9_2 1_555 1_555
C11_2 C10_2 1_555 1_555
Cu2_4 O3_2 1_555 1_555
Cu3_3 O4_2 1_555 1_555
Cu4_3 O5_2 1_555 1_555
Cu13_2 O6_2 1_555 1_555
Cu14_2 O7_2 1_555 1_555
Cu7 O22_2 1_555 1_555
Cu8 O23_2 1_555 1_555
Cu17_2 O24_2 1_555 1_555
Cu18_2 O25_2 1_555 1_555
O3_2 C11_2 1_555 1_555
O4_2 C170_2 1_555 1_555
O5_2 C170_2 1_555 1_555
O6_2 C171_2 1_555 1_555
O7_2 C171_2 1_555 1_555
O20_2 Cu1_4 1_555 1_555
O21_2 Cu2_4 1_555 1_555
O22_2 C179_2 1_555 1_555
O23_2 C179_2 1_555 1_555
O24_2 C180_2 1_555 1_555
O25_2 C180_2 1_555 1_555
O28_2 Cu3_3 1_555 1_555
O31_2 Cu4_3 1_555 1_555
O34_2 Cu13_2 1_555 1_555
O37_2 Cu14_2 1_555 1_555
O38_4 Cu2_4 1_555 1_555
O39_3 Cu3_3 1_555 1_555
O40_3 Cu4_3 1_555 1_555
O41_4 Cu13_2 1_555 1_555
O42_4 Cu14_2 1_555 1_555
C12_2 H6_2 1_555 1_555
C13_2 C2_2 1_555 1_555
C20_2 H14_2 1_555 1_555
C21_2 H15_2 1_555 1_555
C22_2 H16_2 1_555 1_555
H7_2 C13_2 1_555 1_555
C23_2 C1_2 1_555 1_555
C24_2 C12_2 1_555 1_555
C31_2 C20_2 1_555 1_555
C32_2 C20_2 1_555 1_555
C33_2 C21_2 1_555 1_555
C34_2 C23_2 1_555 1_555
C35_2 C24_2 1_555 1_555
C42_2 C31_2 1_555 1_555
C43_2 C32_2 1_555 1_555
C44_2 C33_2 1_555 1_555
C45_2 C34_2 1_555 1_555
C46_2 C34_2 1_555 1_555
C47_2 C3_2 1_555 1_555
C48_2 C35_2 1_555 1_555
C49_2 C35_2 1_555 1_555
C62_2 C42_2 1_555 1_555
C63_2 C43_2 1_555 1_555
C64_2 C43_2 1_555 1_555
C65_2 C42_2 1_555 1_555
C66_2 C44_2 1_555 1_555
C67_2 C44_2 1_555 1_555
H17_2 C45_2 1_555 1_555
H18_2 C46_2 1_555 1_555
H19_2 C47_2 1_555 1_555
H20_2 C48_2 1_555 1_555
H21_2 C49_2 1_555 1_555
H34_2 C62_2 1_555 1_555
H35_2 C63_2 1_555 1_555
H36_2 C64_2 1_555 1_555
H37_2 C65_2 1_555 1_555
H38_2 C66_2 1_555 1_555
H39_2 C67_2 1_555 1_555
C68_2 C45_2 1_555 1_555
C69_2 C46_2 1_555 1_555
C70_2 C6_2 1_555 1_555
C71_2 C48_2 1_555 1_555
C72_2 C49_2 1_555 1_555
C85_2 C62_2 1_555 1_555
C86_2 C63_2 1_555 1_555
C87_2 C64_2 1_555 1_555
C88_2 C65_2 1_555 1_555
C89_2 C66_2 1_555 1_555
C90_2 C67_2 1_555 1_555
H40_2 C68_2 1_555 1_555
H41_2 C69_2 1_555 1_555
H42_2 C70_2 1_555 1_555
H43_2 C71_2 1_555 1_555
H44_2 C72_2 1_555 1_555
H57_2 C85_2 1_555 1_555
H58_2 C86_2 1_555 1_555
H59_2 C87_2 1_555 1_555
H60_2 C88_2 1_555 1_555
H61_2 C89_2 1_555 1_555
H62_2 C90_2 1_555 1_555
C91_2 C68_2 1_555 1_555
C92_2 C71_2 1_555 1_555
C99_2 C85_2 1_555 1_555
C100_2 C86_2 1_555 1_555
C101_2 C89_2 1_555 1_555
C102_2 C91_2 1_555 1_555
C103_2 C92_2 1_555 1_555
C110_2 C99_2 1_555 1_555
C111_2 C100_2 1_555 1_555
C112_2 C101_2 1_555 1_555
C113_2 C102_2 1_555 1_555
C114_2 C102_2 1_555 1_555
C115_2 C7_2 1_555 1_555
C116_2 C103_2 1_555 1_555
C117_2 C103_2 1_555 1_555
C130_2 C110_2 1_555 1_555
C131_2 C111_2 1_555 1_555
C132_2 C111_2 1_555 1_555
C133_2 C110_2 1_555 1_555
C134_2 C112_2 1_555 1_555
C135_2 C112_2 1_555 1_555
H63_2 C113_2 1_555 1_555
H64_2 C114_2 1_555 1_555
H65_2 C115_2 1_555 1_555
H66_2 C116_2 1_555 1_555
H67_2 C117_2 1_555 1_555
H80_2 C130_2 1_555 1_555
H81_2 C131_2 1_555 1_555
H82_2 C132_2 1_555 1_555
H83_2 C133_2 1_555 1_555
H84_2 C134_2 1_555 1_555
H85_2 C135_2 1_555 1_555
C136_2 C113_2 1_555 1_555
C137_2 C114_2 1_555 1_555
C138_2 C10_2 1_555 1_555
C139_2 C116_2 1_555 1_555
C140_2 C117_2 1_555 1_555
C153_2 C130_2 1_555 1_555
C154_2 C131_2 1_555 1_555
C155_2 C132_2 1_555 1_555
C156_2 C133_2 1_555 1_555
C157_2 C134_2 1_555 1_555
C158_2 C135_2 1_555 1_555
H86_2 C136_2 1_555 1_555
H87_2 C137_2 1_555 1_555
H88_2 C138_2 1_555 1_555
H89_2 C139_2 1_555 1_555
H90_2 C140_2 1_555 1_555
H103_2 C153_2 1_555 1_555
H104_2 C154_2 1_555 1_555
H105_2 C155_2 1_555 1_555
H106_2 C156_2 1_555 1_555
H107_2 C157_2 1_555 1_555
H108_2 C158_2 1_555 1_555
C159_2 C136_2 1_555 1_555
C160_2 C139_2 1_555 1_555
C167_2 C153_2 1_555 1_555
C168_2 C154_2 1_555 1_555
C169_2 C157_2 1_555 1_555
C170_2 C159_2 1_555 1_555
C171_2 C160_2 1_555 1_555
C178_2 O20_2 1_555 1_555
C179_2 C168_2 1_555 1_555
C180_2 C169_2 1_555 1_555
O21_2 C178_2 1_555 1_555
C12_2 C23_2 1_555 1_555
C13_2 C24_2 1_555 1_555
C21_2 C32_2 1_555 1_555
C22_2 C31_2 1_555 1_555
C22_2 C33_2 1_555 1_555
C47_2 C70_2 1_555 1_555
C69_2 C91_2 1_555 1_555
C72_2 C92_2 1_555 1_555
C87_2 C100_2 1_555 1_555
C88_2 C99_2 1_555 1_555
C90_2 C101_2 1_555 1_555
C115_2 C138_2 1_555 1_555
C137_2 C159_2 1_555 1_555
C140_2 C160_2 1_555 1_555
C155_2 C168_2 1_555 1_555
C156_2 C167_2 1_555 1_555
C158_2 C169_2 1_555 1_555
C167_2 C178_2 1_555 1_555
O26_2 Cu3_4 1_555 1_555
O27_2 Cu3_4 1_555 1_555
O29_2 Cu4_4 1_555 1_555
O30_2 Cu4_4 1_555 1_555
O39_4 Cu3_4 1_555 1_555
O40_4 Cu4_4 1_555 1_555
O2_5 Cu1_5 1_555 1_555
Cu7_2 O10_3 1_555 1_555
Cu8_2 O11_3 1_555 1_555
Cu17 O12_3 1_555 1_555
Cu18 O13_3 1_555 1_555
Cu13_3 O18_2 1_555 1_555
Cu14_3 O19_2 1_555 1_555
O8_3 Cu1_5 1_555 1_555
O9_3 Cu2_5 1_555 1_555
O10_3 C173_3 1_555 1_555
O11_3 C173_3 1_555 1_555
O12_3 C174_3 1_555 1_555
O13_3 C174_3 1_555 1_555
O14_3 Cu1_5 1_555 1_555
O15_3 Cu2_5 1_555 1_555
O27 C176_3 1_555 1_555
O30 C176_3 1_555 1_555
O18_2 C177_3 1_555 1_555
O19_2 C177_3 1_555 1_555
O38_5 Cu2_5 1_555 1_555
C14_3 H8_3 1_555 1_555
C15_3 H9_3 1_555 1_555
C16_3 H10_3 1_555 1_555
C17_3 H11_3 1_555 1_555
C18_3 H12_3 1_555 1_555
C19_3 H13_3 1_555 1_555
C25_3 C14_3 1_555 1_555
C26_3 C14_3 1_555 1_555
C27_3 C15_3 1_555 1_555
C28_3 C17_3 1_555 1_555
C29_3 C17_3 1_555 1_555
C30_3 C18_3 1_555 1_555
C36_3 C25_3 1_555 1_555
C37_3 C26_3 1_555 1_555
C38_3 C27_3 1_555 1_555
C39_3 C28_3 1_555 1_555
C40_3 C29_3 1_555 1_555
C41_3 C30_3 1_555 1_555
C50_3 C36_3 1_555 1_555
C51_3 C37_3 1_555 1_555
C52_3 C37_3 1_555 1_555
C53_3 C36_3 1_555 1_555
C54_3 C38_3 1_555 1_555
C55_3 C38_3 1_555 1_555
C56_3 C39_3 1_555 1_555
C57_3 C40_3 1_555 1_555
C58_3 C40_3 1_555 1_555
C59_3 C39_3 1_555 1_555
C60_3 C41_3 1_555 1_555
C61_3 C41_3 1_555 1_555
H22_3 C50_3 1_555 1_555
H23_3 C51_3 1_555 1_555
H24_3 C52_3 1_555 1_555
H25_3 C53_3 1_555 1_555
H26_3 C54_3 1_555 1_555
H27_3 C55_3 1_555 1_555
H28_3 C56_3 1_555 1_555
H29_3 C57_3 1_555 1_555
H30_3 C58_3 1_555 1_555
H31_3 C59_3 1_555 1_555
H32_3 C60_3 1_555 1_555
H33_3 C61_3 1_555 1_555
C73_3 C50_3 1_555 1_555
C74_3 C51_3 1_555 1_555
C75_3 C52_3 1_555 1_555
C76_3 C53_3 1_555 1_555
C77_3 C54_3 1_555 1_555
C78_3 C55_3 1_555 1_555
C79_3 C56_3 1_555 1_555
C80_3 C57_3 1_555 1_555
C81_3 C58_3 1_555 1_555
C82_3 C59_3 1_555 1_555
C83_3 C60_3 1_555 1_555
C84_3 C61_3 1_555 1_555
H45_3 C73_3 1_555 1_555
H46_3 C74_3 1_555 1_555
H47_3 C75_3 1_555 1_555
H48_3 C76_3 1_555 1_555
H49_3 C77_3 1_555 1_555
H50_3 C78_3 1_555 1_555
H51_3 C79_3 1_555 1_555
H52_3 C80_3 1_555 1_555
H53_3 C81_3 1_555 1_555
H54_3 C82_3 1_555 1_555
H55_3 C83_3 1_555 1_555
H56_3 C84_3 1_555 1_555
C93_3 C73_3 1_555 1_555
C94_3 C74_3 1_555 1_555
C95_3 C77_3 1_555 1_555
C96_3 C79_3 1_555 1_555
C97_3 C80_3 1_555 1_555
C98_3 C83_3 1_555 1_555
C104_3 C93_3 1_555 1_555
C105_3 C94_3 1_555 1_555
C106_3 C95_3 1_555 1_555
C107_3 C96_3 1_555 1_555
C108_3 C97_3 1_555 1_555
C109_3 C98_3 1_555 1_555
C118_3 C104_3 1_555 1_555
C119_3 C105_3 1_555 1_555
C120_3 C105_3 1_555 1_555
C121_3 C104_3 1_555 1_555
C122_3 C106_3 1_555 1_555
C123_3 C106_3 1_555 1_555
C124_3 C107_3 1_555 1_555
C125_3 C108_3 1_555 1_555
C126_3 C108_3 1_555 1_555
C127_3 C107_3 1_555 1_555
C128_3 C109_3 1_555 1_555
C129_3 C109_3 1_555 1_555
H68_3 C118_3 1_555 1_555
H69_3 C119_3 1_555 1_555
H70_3 C120_3 1_555 1_555
H71_3 C121_3 1_555 1_555
H72_3 C122_3 1_555 1_555
H73_3 C123_3 1_555 1_555
H74_3 C124_3 1_555 1_555
H75_3 C125_3 1_555 1_555
H76_3 C126_3 1_555 1_555
H77_3 C127_3 1_555 1_555
H78_3 C128_3 1_555 1_555
H79_3 C129_3 1_555 1_555
C141_3 C118_3 1_555 1_555
C142_3 C119_3 1_555 1_555
C143_3 C120_3 1_555 1_555
C144_3 C121_3 1_555 1_555
C145_3 C122_3 1_555 1_555
C146_3 C123_3 1_555 1_555
C147_3 C124_3 1_555 1_555
C148_3 C125_3 1_555 1_555
C149_3 C126_3 1_555 1_555
C150_3 C127_3 1_555 1_555
C151_3 C128_3 1_555 1_555
C152_3 C129_3 1_555 1_555
H91_3 C141_3 1_555 1_555
H92_3 C142_3 1_555 1_555
H93_3 C143_3 1_555 1_555
H94_3 C144_3 1_555 1_555
H95_3 C145_3 1_555 1_555
H96_3 C146_3 1_555 1_555
H97_3 C147_3 1_555 1_555
H98_3 C148_3 1_555 1_555
H99_3 C149_3 1_555 1_555
H100_3 C150_3 1_555 1_555
H101_3 C151_3 1_555 1_555
H102_3 C152_3 1_555 1_555
C161_3 C141_3 1_555 1_555
C162_3 C142_3 1_555 1_555
C163_3 C145_3 1_555 1_555
C164_3 C147_3 1_555 1_555
C165_3 C148_3 1_555 1_555
C166_3 C151_3 1_555 1_555
C172_3 O8_3 1_555 1_555
C173_3 C162_3 1_555 1_555
C174_3 C163_3 1_555 1_555
C175_3 O14_3 1_555 1_555
C176_3 C165_3 1_555 1_555
C177_3 C166_3 1_555 1_555
O9_3 C172_3 1_555 1_555
O15_3 C175_3 1_555 1_555
C15_3 C26_3 1_555 1_555
C16_3 C25_3 1_555 1_555
C16_3 C27_3 1_555 1_555
C18_3 C29_3 1_555 1_555
C19_3 C28_3 1_555 1_555
C19_3 C30_3 1_555 1_555
C75_3 C94_3 1_555 1_555
C76_3 C93_3 1_555 1_555
C78_3 C95_3 1_555 1_555
C81_3 C97_3 1_555 1_555
C82_3 C96_3 1_555 1_555
C84_3 C98_3 1_555 1_555
C143_3 C162_3 1_555 1_555
C144_3 C161_3 1_555 1_555
C146_3 C163_3 1_555 1_555
C149_3 C165_3 1_555 1_555
C150_3 C164_3 1_555 1_555
C152_3 C166_3 1_555 1_555
C161_3 C172_3 1_555 1_555
C164_3 C175_3 1_555 1_555
O26_3 Cu11 1_555 1_555
O29_3 Cu12 1_555 1_555
O39_5 Cu11 1_555 1_555
O40_5 Cu12 1_555 1_555
Cu1_6 O1_3 1_555 1_555
O1_3 C11_3 1_555 1_555
O2_6 Cu1_6 1_555 1_555
C1_3 H1_3 1_555 1_555
C2_3 C1_3 1_555 1_555
C3_3 C2_3 1_555 1_555
C4_3 C3_3 1_555 1_555
H2_3 C4_3 1_555 1_555
C5_3 C4_3 1_555 1_555
H3_3 C5_3 1_555 1_555
C6_3 C5_3 1_555 1_555
C7_3 C6_3 1_555 1_555
C8_3 C7_3 1_555 1_555
H4_3 C8_3 1_555 1_555
C9_3 C8_3 1_555 1_555
H5_3 C9_3 1_555 1_555
C10_3 C9_3 1_555 1_555
C11_3 C10_3 1_555 1_555
Cu2_6 O3_3 1_555 1_555
Cu11_2 O4_3 1_555 1_555
Cu12_2 O5_3 1_555 1_555
Cu5_3 O6_3 1_555 1_555
Cu6_3 O7_3 1_555 1_555
Cu15_2 O22_3 1_555 1_555
Cu16_2 O23_3 1_555 1_555
Cu9 O24_3 1_555 1_555
Cu10 O25_3 1_555 1_555
O3_3 C11_3 1_555 1_555
O4_3 C170_3 1_555 1_555
O5_3 C170_3 1_555 1_555
O6_3 C171_3 1_555 1_555
O7_3 C171_3 1_555 1_555
O20_3 Cu1_6 1_555 1_555
O21_3 Cu2_6 1_555 1_555
O22_3 C179_3 1_555 1_555
O23_3 C179_3 1_555 1_555
O24_3 C180_3 1_555 1_555
O25_3 C180_3 1_555 1_555
O28_3 Cu11_2 1_555 1_555
O31_3 Cu12_2 1_555 1_555
O34_3 Cu5_3 1_555 1_555
O37_3 Cu6_3 1_555 1_555
O38_6 Cu2_6 1_555 1_555
O39_6 Cu11_2 1_555 1_555
O40_6 Cu12_2 1_555 1_555
O41_5 Cu5_3 1_555 1_555
O42_5 Cu6_3 1_555 1_555
C12_3 H6_3 1_555 1_555
C13_3 C2_3 1_555 1_555
C20_3 H14_3 1_555 1_555
C21_3 H15_3 1_555 1_555
C22_3 H16_3 1_555 1_555
H7_3 C13_3 1_555 1_555
C23_3 C1_3 1_555 1_555
C24_3 C12_3 1_555 1_555
C31_3 C20_3 1_555 1_555
C32_3 C20_3 1_555 1_555
C33_3 C21_3 1_555 1_555
C34_3 C23_3 1_555 1_555
C35_3 C24_3 1_555 1_555
C42_3 C31_3 1_555 1_555
C43_3 C32_3 1_555 1_555
C44_3 C33_3 1_555 1_555
C45_3 C34_3 1_555 1_555
C46_3 C34_3 1_555 1_555
C47_3 C3_3 1_555 1_555
C48_3 C35_3 1_555 1_555
C49_3 C35_3 1_555 1_555
C62_3 C42_3 1_555 1_555
C63_3 C43_3 1_555 1_555
C64_3 C43_3 1_555 1_555
C65_3 C42_3 1_555 1_555
C66_3 C44_3 1_555 1_555
C67_3 C44_3 1_555 1_555
H17_3 C45_3 1_555 1_555
H18_3 C46_3 1_555 1_555
H19_3 C47_3 1_555 1_555
H20_3 C48_3 1_555 1_555
H21_3 C49_3 1_555 1_555
H34_3 C62_3 1_555 1_555
H35_3 C63_3 1_555 1_555
H36_3 C64_3 1_555 1_555
H37_3 C65_3 1_555 1_555
H38_3 C66_3 1_555 1_555
H39_3 C67_3 1_555 1_555
C68_3 C45_3 1_555 1_555
C69_3 C46_3 1_555 1_555
C70_3 C6_3 1_555 1_555
C71_3 C48_3 1_555 1_555
C72_3 C49_3 1_555 1_555
C85_3 C62_3 1_555 1_555
C86_3 C63_3 1_555 1_555
C87_3 C64_3 1_555 1_555
C88_3 C65_3 1_555 1_555
C89_3 C66_3 1_555 1_555
C90_3 C67_3 1_555 1_555
H40_3 C68_3 1_555 1_555
H41_3 C69_3 1_555 1_555
H42_3 C70_3 1_555 1_555
H43_3 C71_3 1_555 1_555
H44_3 C72_3 1_555 1_555
H57_3 C85_3 1_555 1_555
H58_3 C86_3 1_555 1_555
H59_3 C87_3 1_555 1_555
H60_3 C88_3 1_555 1_555
H61_3 C89_3 1_555 1_555
H62_3 C90_3 1_555 1_555
C91_3 C68_3 1_555 1_555
C92_3 C71_3 1_555 1_555
C99_3 C85_3 1_555 1_555
C100_3 C86_3 1_555 1_555
C101_3 C89_3 1_555 1_555
C102_3 C91_3 1_555 1_555
C103_3 C92_3 1_555 1_555
C110_3 C99_3 1_555 1_555
C111_3 C100_3 1_555 1_555
C112_3 C101_3 1_555 1_555
C113_3 C102_3 1_555 1_555
C114_3 C102_3 1_555 1_555
C115_3 C7_3 1_555 1_555
C116_3 C103_3 1_555 1_555
C117_3 C103_3 1_555 1_555
C130_3 C110_3 1_555 1_555
C131_3 C111_3 1_555 1_555
C132_3 C111_3 1_555 1_555
C133_3 C110_3 1_555 1_555
C134_3 C112_3 1_555 1_555
C135_3 C112_3 1_555 1_555
H63_3 C113_3 1_555 1_555
H64_3 C114_3 1_555 1_555
H65_3 C115_3 1_555 1_555
H66_3 C116_3 1_555 1_555
H67_3 C117_3 1_555 1_555
H80_3 C130_3 1_555 1_555
H81_3 C131_3 1_555 1_555
H82_3 C132_3 1_555 1_555
H83_3 C133_3 1_555 1_555
H84_3 C134_3 1_555 1_555
H85_3 C135_3 1_555 1_555
C136_3 C113_3 1_555 1_555
C137_3 C114_3 1_555 1_555
C138_3 C10_3 1_555 1_555
C139_3 C116_3 1_555 1_555
C140_3 C117_3 1_555 1_555
C153_3 C130_3 1_555 1_555
C154_3 C131_3 1_555 1_555
C155_3 C132_3 1_555 1_555
C156_3 C133_3 1_555 1_555
C157_3 C134_3 1_555 1_555
C158_3 C135_3 1_555 1_555
H86_3 C136_3 1_555 1_555
H87_3 C137_3 1_555 1_555
H88_3 C138_3 1_555 1_555
H89_3 C139_3 1_555 1_555
H90_3 C140_3 1_555 1_555
H103_3 C153_3 1_555 1_555
H104_3 C154_3 1_555 1_555
H105_3 C155_3 1_555 1_555
H106_3 C156_3 1_555 1_555
H107_3 C157_3 1_555 1_555
H108_3 C158_3 1_555 1_555
C159_3 C136_3 1_555 1_555
C160_3 C139_3 1_555 1_555
C167_3 C153_3 1_555 1_555
C168_3 C154_3 1_555 1_555
C169_3 C157_3 1_555 1_555
C170_3 C159_3 1_555 1_555
C171_3 C160_3 1_555 1_555
C178_3 O20_3 1_555 1_555
C179_3 C168_3 1_555 1_555
C180_3 C169_3 1_555 1_555
O21_3 C178_3 1_555 1_555
C12_3 C23_3 1_555 1_555
C13_3 C24_3 1_555 1_555
C21_3 C32_3 1_555 1_555
C22_3 C31_3 1_555 1_555
C22_3 C33_3 1_555 1_555
C47_3 C70_3 1_555 1_555
C69_3 C91_3 1_555 1_555
C72_3 C92_3 1_555 1_555
C87_3 C100_3 1_555 1_555
C88_3 C99_3 1_555 1_555
C90_3 C101_3 1_555 1_555
C115_3 C138_3 1_555 1_555
C137_3 C159_3 1_555 1_555
C140_3 C160_3 1_555 1_555
C155_3 C168_3 1_555 1_555
C156_3 C167_3 1_555 1_555
C158_3 C169_3 1_555 1_555
C167_3 C178_3 1_555 1_555
O32_3 Cu5_4 1_555 1_555
O33_2 Cu5_4 1_555 1_555
O35_3 Cu6_4 1_555 1_555
O36_2 Cu6_4 1_555 1_555
O41_6 Cu5_4 1_555 1_555
O42_6 Cu6_4 1_555 1_555
O32_4 Cu13_3 1_555 1_555
O35_4 Cu14_3 1_555 1_555
O41_7 Cu13_3 1_555 1_555
O42_7 Cu14_3 1_555 1_555
O26_4 Cu11_3 1_555 1_555
O29_4 Cu12_3 1_555 1_555
O39_7 Cu11_3 1_555 1_555
O40_7 Cu12_3 1_555 1_555
Cu1_7 O1_4 1_555 1_555
O1_4 C11_4 1_555 1_555
O2_7 Cu1_7 1_555 1_555
C1_4 H1_4 1_555 1_555
C2_4 C1_4 1_555 1_555
C3_4 C2_4 1_555 1_555
C4_4 C3_4 1_555 1_555
H2_4 C4_4 1_555 1_555
C5_4 C4_4 1_555 1_555
H3_4 C5_4 1_555 1_555
C6_4 C5_4 1_555 1_555
C7_4 C6_4 1_555 1_555
C8_4 C7_4 1_555 1_555
H4_4 C8_4 1_555 1_555
C9_4 C8_4 1_555 1_555
H5_4 C9_4 1_555 1_555
C10_4 C9_4 1_555 1_555
C11_4 C10_4 1_555 1_555
Cu2_7 O3_4 1_555 1_555
Cu11_4 O4_4 1_555 1_555
Cu12_4 O5_4 1_555 1_555
Cu13_4 O6_4 1_555 1_555
Cu14_4 O7_4 1_555 1_555
Cu7_2 O22_4 1_555 1_555
Cu8_2 O23_4 1_555 1_555
Cu9_2 O24_4 1_555 1_555
Cu10_2 O25_4 1_555 1_555
O3_4 C11_4 1_555 1_555
O4_4 C170_4 1_555 1_555
O5_4 C170_4 1_555 1_555
O6_4 C171_4 1_555 1_555
O7_4 C171_4 1_555 1_555
O20_4 Cu1_7 1_555 1_555
O21_4 Cu2_7 1_555 1_555
O22_4 C179_4 1_555 1_555
O23_4 C179_4 1_555 1_555
O24_4 C180_4 1_555 1_555
O25_4 C180_4 1_555 1_555
O28_4 Cu11_4 1_555 1_555
O31_4 Cu12_4 1_555 1_555
O34_4 Cu13_4 1_555 1_555
O37_4 Cu14_4 1_555 1_555
O38_7 Cu2_7 1_555 1_555
O39_8 Cu11_4 1_555 1_555
O40_8 Cu12_4 1_555 1_555
O41_8 Cu13_4 1_555 1_555
O42_8 Cu14_4 1_555 1_555
C12_4 H6_4 1_555 1_555
C13_4 C2_4 1_555 1_555
C20_4 H14_4 1_555 1_555
C21_4 H15_4 1_555 1_555
C22_4 H16_4 1_555 1_555
H7_4 C13_4 1_555 1_555
C23_4 C1_4 1_555 1_555
C24_4 C12_4 1_555 1_555
C31_4 C20_4 1_555 1_555
C32_4 C20_4 1_555 1_555
C33_4 C21_4 1_555 1_555
C34_4 C23_4 1_555 1_555
C35_4 C24_4 1_555 1_555
C42_4 C31_4 1_555 1_555
C43_4 C32_4 1_555 1_555
C44_4 C33_4 1_555 1_555
C45_4 C34_4 1_555 1_555
C46_4 C34_4 1_555 1_555
C47_4 C3_4 1_555 1_555
C48_4 C35_4 1_555 1_555
C49_4 C35_4 1_555 1_555
C62_4 C42_4 1_555 1_555
C63_4 C43_4 1_555 1_555
C64_4 C43_4 1_555 1_555
C65_4 C42_4 1_555 1_555
C66_4 C44_4 1_555 1_555
C67_4 C44_4 1_555 1_555
H17_4 C45_4 1_555 1_555
H18_4 C46_4 1_555 1_555
H19_4 C47_4 1_555 1_555
H20_4 C48_4 1_555 1_555
H21_4 C49_4 1_555 1_555
H34_4 C62_4 1_555 1_555
H35_4 C63_4 1_555 1_555
H36_4 C64_4 1_555 1_555
H37_4 C65_4 1_555 1_555
H38_4 C66_4 1_555 1_555
H39_4 C67_4 1_555 1_555
C68_4 C45_4 1_555 1_555
C69_4 C46_4 1_555 1_555
C70_4 C6_4 1_555 1_555
C71_4 C48_4 1_555 1_555
C72_4 C49_4 1_555 1_555
C85_4 C62_4 1_555 1_555
C86_4 C63_4 1_555 1_555
C87_4 C64_4 1_555 1_555
C88_4 C65_4 1_555 1_555
C89_4 C66_4 1_555 1_555
C90_4 C67_4 1_555 1_555
H40_4 C68_4 1_555 1_555
H41_4 C69_4 1_555 1_555
H42_4 C70_4 1_555 1_555
H43_4 C71_4 1_555 1_555
H44_4 C72_4 1_555 1_555
H57_4 C85_4 1_555 1_555
H58_4 C86_4 1_555 1_555
H59_4 C87_4 1_555 1_555
H60_4 C88_4 1_555 1_555
H61_4 C89_4 1_555 1_555
H62_4 C90_4 1_555 1_555
C91_4 C68_4 1_555 1_555
C92_4 C71_4 1_555 1_555
C99_4 C85_4 1_555 1_555
C100_4 C86_4 1_555 1_555
C101_4 C89_4 1_555 1_555
C102_4 C91_4 1_555 1_555
C103_4 C92_4 1_555 1_555
C110_4 C99_4 1_555 1_555
C111_4 C100_4 1_555 1_555
C112_4 C101_4 1_555 1_555
C113_4 C102_4 1_555 1_555
C114_4 C102_4 1_555 1_555
C115_4 C7_4 1_555 1_555
C116_4 C103_4 1_555 1_555
C117_4 C103_4 1_555 1_555
C130_4 C110_4 1_555 1_555
C131_4 C111_4 1_555 1_555
C132_4 C111_4 1_555 1_555
C133_4 C110_4 1_555 1_555
C134_4 C112_4 1_555 1_555
C135_4 C112_4 1_555 1_555
H63_4 C113_4 1_555 1_555
H64_4 C114_4 1_555 1_555
H65_4 C115_4 1_555 1_555
H66_4 C116_4 1_555 1_555
H67_4 C117_4 1_555 1_555
H80_4 C130_4 1_555 1_555
H81_4 C131_4 1_555 1_555
H82_4 C132_4 1_555 1_555
H83_4 C133_4 1_555 1_555
H84_4 C134_4 1_555 1_555
H85_4 C135_4 1_555 1_555
C136_4 C113_4 1_555 1_555
C137_4 C114_4 1_555 1_555
C138_4 C10_4 1_555 1_555
C139_4 C116_4 1_555 1_555
C140_4 C117_4 1_555 1_555
C153_4 C130_4 1_555 1_555
C154_4 C131_4 1_555 1_555
C155_4 C132_4 1_555 1_555
C156_4 C133_4 1_555 1_555
C157_4 C134_4 1_555 1_555
C158_4 C135_4 1_555 1_555
H86_4 C136_4 1_555 1_555
H87_4 C137_4 1_555 1_555
H88_4 C138_4 1_555 1_555
H89_4 C139_4 1_555 1_555
H90_4 C140_4 1_555 1_555
H103_4 C153_4 1_555 1_555
H104_4 C154_4 1_555 1_555
H105_4 C155_4 1_555 1_555
H106_4 C156_4 1_555 1_555
H107_4 C157_4 1_555 1_555
H108_4 C158_4 1_555 1_555
C159_4 C136_4 1_555 1_555
C160_4 C139_4 1_555 1_555
C167_4 C153_4 1_555 1_555
C168_4 C154_4 1_555 1_555
C169_4 C157_4 1_555 1_555
C170_4 C159_4 1_555 1_555
C171_4 C160_4 1_555 1_555
C178_4 O20_4 1_555 1_555
C179_4 C168_4 1_555 1_555
C180_4 C169_4 1_555 1_555
O21_4 C178_4 1_555 1_555
C12_4 C23_4 1_555 1_555
C13_4 C24_4 1_555 1_555
C21_4 C32_4 1_555 1_555
C22_4 C31_4 1_555 1_555
C22_4 C33_4 1_555 1_555
C47_4 C70_4 1_555 1_555
C69_4 C91_4 1_555 1_555
C72_4 C92_4 1_555 1_555
C87_4 C100_4 1_555 1_555
C88_4 C99_4 1_555 1_555
C90_4 C101_4 1_555 1_555
C115_4 C138_4 1_555 1_555
C137_4 C159_4 1_555 1_555
C140_4 C160_4 1_555 1_555
C155_4 C168_4 1_555 1_555
C156_4 C167_4 1_555 1_555
C158_4 C169_4 1_555 1_555
C167_4 C178_4 1_555 1_555
O2_8 Cu1_8 1_555 1_555
Cu15_2 O10_4 1_555 1_555
Cu16_2 O11_4 1_555 1_555
Cu17_2 O12_4 1_555 1_555
Cu18_2 O13_4 1_555 1_555
O8_4 Cu1_8 1_555 1_555
O9_4 Cu2_8 1_555 1_555
O10_4 C173_4 1_555 1_555
O11_4 C173_4 1_555 1_555
O12_4 C174_4 1_555 1_555
O13_4 C174_4 1_555 1_555
O14_4 Cu1_8 1_555 1_555
O15_4 Cu2_8 1_555 1_555
O27_2 C176_4 1_555 1_555
O30_2 C176_4 1_555 1_555
O33_2 C177_4 1_555 1_555
O36_2 C177_4 1_555 1_555
O38_8 Cu2_8 1_555 1_555
C14_4 H8_4 1_555 1_555
C15_4 H9_4 1_555 1_555
C16_4 H10_4 1_555 1_555
C17_4 H11_4 1_555 1_555
C18_4 H12_4 1_555 1_555
C19_4 H13_4 1_555 1_555
C25_4 C14_4 1_555 1_555
C26_4 C14_4 1_555 1_555
C27_4 C15_4 1_555 1_555
C28_4 C17_4 1_555 1_555
C29_4 C17_4 1_555 1_555
C30_4 C18_4 1_555 1_555
C36_4 C25_4 1_555 1_555
C37_4 C26_4 1_555 1_555
C38_4 C27_4 1_555 1_555
C39_4 C28_4 1_555 1_555
C40_4 C29_4 1_555 1_555
C41_4 C30_4 1_555 1_555
C50_4 C36_4 1_555 1_555
C51_4 C37_4 1_555 1_555
C52_4 C37_4 1_555 1_555
C53_4 C36_4 1_555 1_555
C54_4 C38_4 1_555 1_555
C55_4 C38_4 1_555 1_555
C56_4 C39_4 1_555 1_555
C57_4 C40_4 1_555 1_555
C58_4 C40_4 1_555 1_555
C59_4 C39_4 1_555 1_555
C60_4 C41_4 1_555 1_555
C61_4 C41_4 1_555 1_555
H22_4 C50_4 1_555 1_555
H23_4 C51_4 1_555 1_555
H24_4 C52_4 1_555 1_555
H25_4 C53_4 1_555 1_555
H26_4 C54_4 1_555 1_555
H27_4 C55_4 1_555 1_555
H28_4 C56_4 1_555 1_555
H29_4 C57_4 1_555 1_555
H30_4 C58_4 1_555 1_555
H31_4 C59_4 1_555 1_555
H32_4 C60_4 1_555 1_555
H33_4 C61_4 1_555 1_555
C73_4 C50_4 1_555 1_555
C74_4 C51_4 1_555 1_555
C75_4 C52_4 1_555 1_555
C76_4 C53_4 1_555 1_555
C77_4 C54_4 1_555 1_555
C78_4 C55_4 1_555 1_555
C79_4 C56_4 1_555 1_555
C80_4 C57_4 1_555 1_555
C81_4 C58_4 1_555 1_555
C82_4 C59_4 1_555 1_555
C83_4 C60_4 1_555 1_555
C84_4 C61_4 1_555 1_555
H45_4 C73_4 1_555 1_555
H46_4 C74_4 1_555 1_555
H47_4 C75_4 1_555 1_555
H48_4 C76_4 1_555 1_555
H49_4 C77_4 1_555 1_555
H50_4 C78_4 1_555 1_555
H51_4 C79_4 1_555 1_555
H52_4 C80_4 1_555 1_555
H53_4 C81_4 1_555 1_555
H54_4 C82_4 1_555 1_555
H55_4 C83_4 1_555 1_555
H56_4 C84_4 1_555 1_555
C93_4 C73_4 1_555 1_555
C94_4 C74_4 1_555 1_555
C95_4 C77_4 1_555 1_555
C96_4 C79_4 1_555 1_555
C97_4 C80_4 1_555 1_555
C98_4 C83_4 1_555 1_555
C104_4 C93_4 1_555 1_555
C105_4 C94_4 1_555 1_555
C106_4 C95_4 1_555 1_555
C107_4 C96_4 1_555 1_555
C108_4 C97_4 1_555 1_555
C109_4 C98_4 1_555 1_555
C118_4 C104_4 1_555 1_555
C119_4 C105_4 1_555 1_555
C120_4 C105_4 1_555 1_555
C121_4 C104_4 1_555 1_555
C122_4 C106_4 1_555 1_555
C123_4 C106_4 1_555 1_555
C124_4 C107_4 1_555 1_555
C125_4 C108_4 1_555 1_555
C126_4 C108_4 1_555 1_555
C127_4 C107_4 1_555 1_555
C128_4 C109_4 1_555 1_555
C129_4 C109_4 1_555 1_555
H68_4 C118_4 1_555 1_555
H69_4 C119_4 1_555 1_555
H70_4 C120_4 1_555 1_555
H71_4 C121_4 1_555 1_555
H72_4 C122_4 1_555 1_555
H73_4 C123_4 1_555 1_555
H74_4 C124_4 1_555 1_555
H75_4 C125_4 1_555 1_555
H76_4 C126_4 1_555 1_555
H77_4 C127_4 1_555 1_555
H78_4 C128_4 1_555 1_555
H79_4 C129_4 1_555 1_555
C141_4 C118_4 1_555 1_555
C142_4 C119_4 1_555 1_555
C143_4 C120_4 1_555 1_555
C144_4 C121_4 1_555 1_555
C145_4 C122_4 1_555 1_555
C146_4 C123_4 1_555 1_555
C147_4 C124_4 1_555 1_555
C148_4 C125_4 1_555 1_555
C149_4 C126_4 1_555 1_555
C150_4 C127_4 1_555 1_555
C151_4 C128_4 1_555 1_555
C152_4 C129_4 1_555 1_555
H91_4 C141_4 1_555 1_555
H92_4 C142_4 1_555 1_555
H93_4 C143_4 1_555 1_555
H94_4 C144_4 1_555 1_555
H95_4 C145_4 1_555 1_555
H96_4 C146_4 1_555 1_555
H97_4 C147_4 1_555 1_555
H98_4 C148_4 1_555 1_555
H99_4 C149_4 1_555 1_555
H100_4 C150_4 1_555 1_555
H101_4 C151_4 1_555 1_555
H102_4 C152_4 1_555 1_555
C161_4 C141_4 1_555 1_555
C162_4 C142_4 1_555 1_555
C163_4 C145_4 1_555 1_555
C164_4 C147_4 1_555 1_555
C165_4 C148_4 1_555 1_555
C166_4 C151_4 1_555 1_555
C172_4 O8_4 1_555 1_555
C173_4 C162_4 1_555 1_555
C174_4 C163_4 1_555 1_555
C175_4 O14_4 1_555 1_555
C176_4 C165_4 1_555 1_555
C177_4 C166_4 1_555 1_555
O9_4 C172_4 1_555 1_555
O15_4 C175_4 1_555 1_555
C15_4 C26_4 1_555 1_555
C16_4 C25_4 1_555 1_555
C16_4 C27_4 1_555 1_555
C18_4 C29_4 1_555 1_555
C19_4 C28_4 1_555 1_555
C19_4 C30_4 1_555 1_555
C75_4 C94_4 1_555 1_555
C76_4 C93_4 1_555 1_555
C78_4 C95_4 1_555 1_555
C81_4 C97_4 1_555 1_555
C82_4 C96_4 1_555 1_555
C84_4 C98_4 1_555 1_555
C143_4 C162_4 1_555 1_555
C144_4 C161_4 1_555 1_555
C146_4 C163_4 1_555 1_555
C149_4 C165_4 1_555 1_555
C150_4 C164_4 1_555 1_555
C152_4 C166_4 1_555 1_555
C161_4 C172_4 1_555 1_555
C164_4 C175_4 1_555 1_555
Cu18 O22_5 1_555 1_555
Cu17 O23_5 1_555 1_555
Cu17_3 O24_5 1_555 1_555
Cu18_3 O25_5 1_555 1_555
O22_5 C179_5 1_555 1_555
O23_5 C179_5 1_555 1_555
O24_5 C180_5 1_555 1_555
O25_5 C180_5 1_555 1_555
C20_5 H14_5 1_555 1_555
C21_5 H15_5 1_555 1_555
C22_5 H16_5 1_555 1_555
C31_5 C20_5 1_555 1_555
C32_5 C20_5 1_555 1_555
C33_5 C21_5 1_555 1_555
C42_5 C31_5 1_555 1_555
C43_5 C32_5 1_555 1_555
C44_5 C33_5 1_555 1_555
C62_5 C42_5 1_555 1_555
C63_5 C43_5 1_555 1_555
C64_5 C43_5 1_555 1_555
C65_5 C42_5 1_555 1_555
C66_5 C44_5 1_555 1_555
C67_5 C44_5 1_555 1_555
H34_5 C62_5 1_555 1_555
H35_5 C63_5 1_555 1_555
H36_5 C64_5 1_555 1_555
H37_5 C65_5 1_555 1_555
H38_5 C66_5 1_555 1_555
H39_5 C67_5 1_555 1_555
C85_5 C62_5 1_555 1_555
C86_5 C63_5 1_555 1_555
C87_5 C64_5 1_555 1_555
C88_5 C65_5 1_555 1_555
C89_5 C66_5 1_555 1_555
C90_5 C67_5 1_555 1_555
H57_5 C85_5 1_555 1_555
H58_5 C86_5 1_555 1_555
H59_5 C87_5 1_555 1_555
H60_5 C88_5 1_555 1_555
H61_5 C89_5 1_555 1_555
H62_5 C90_5 1_555 1_555
C99_5 C85_5 1_555 1_555
C100_5 C86_5 1_555 1_555
C101_5 C89_5 1_555 1_555
C110_5 C99_5 1_555 1_555
C111_5 C100_5 1_555 1_555
C112_5 C101_5 1_555 1_555
C130_5 C110_5 1_555 1_555
C131_5 C111_5 1_555 1_555
C132_5 C111_5 1_555 1_555
C133_5 C110_5 1_555 1_555
C134_5 C112_5 1_555 1_555
C135_5 C112_5 1_555 1_555
H80_5 C130_5 1_555 1_555
H81_5 C131_5 1_555 1_555
H82_5 C132_5 1_555 1_555
H83_5 C133_5 1_555 1_555
H84_5 C134_5 1_555 1_555
H85_5 C135_5 1_555 1_555
C153_5 C130_5 1_555 1_555
C154_5 C131_5 1_555 1_555
C155_5 C132_5 1_555 1_555
C156_5 C133_5 1_555 1_555
C157_5 C134_5 1_555 1_555
C158_5 C135_5 1_555 1_555
H103_5 C153_5 1_555 1_555
H104_5 C154_5 1_555 1_555
H105_5 C155_5 1_555 1_555
H106_5 C156_5 1_555 1_555
H107_5 C157_5 1_555 1_555
H108_5 C158_5 1_555 1_555
C167_5 C153_5 1_555 1_555
C168_5 C154_5 1_555 1_555
C169_5 C157_5 1_555 1_555
C178_5 O34 1_555 1_555
C179_5 C168_5 1_555 1_555
C180_5 C169_5 1_555 1_555
O37 C178_5 1_555 1_555
C21_5 C32_5 1_555 1_555
C22_5 C31_5 1_555 1_555
C22_5 C33_5 1_555 1_555
C87_5 C100_5 1_555 1_555
C88_5 C99_5 1_555 1_555
C90_5 C101_5 1_555 1_555
C155_5 C168_5 1_555 1_555
C156_5 C167_5 1_555 1_555
C158_5 C169_5 1_555 1_555
C167_5 C178_5 1_555 1_555
Cu10_2 O10_5 1_555 1_555
Cu9_2 O11_5 1_555 1_555
Cu9_3 O12_5 1_555 1_555
Cu10_3 O13_5 1_555 1_555
O10_5 C173_5 1_555 1_555
O11_5 C173_5 1_555 1_555
O12_5 C174_5 1_555 1_555
O13_5 C174_5 1_555 1_555
C14_5 H8_5 1_555 1_555
C15_5 H9_5 1_555 1_555
C16_5 H10_5 1_555 1_555
C25_5 C14_5 1_555 1_555
C26_5 C14_5 1_555 1_555
C27_5 C15_5 1_555 1_555
C36_5 C25_5 1_555 1_555
C37_5 C26_5 1_555 1_555
C38_5 C27_5 1_555 1_555
C50_5 C36_5 1_555 1_555
C51_5 C37_5 1_555 1_555
C52_5 C37_5 1_555 1_555
C53_5 C36_5 1_555 1_555
C54_5 C38_5 1_555 1_555
C55_5 C38_5 1_555 1_555
H22_5 C50_5 1_555 1_555
H23_5 C51_5 1_555 1_555
H24_5 C52_5 1_555 1_555
H25_5 C53_5 1_555 1_555
H26_5 C54_5 1_555 1_555
H27_5 C55_5 1_555 1_555
C73_5 C50_5 1_555 1_555
C74_5 C51_5 1_555 1_555
C75_5 C52_5 1_555 1_555
C76_5 C53_5 1_555 1_555
C77_5 C54_5 1_555 1_555
C78_5 C55_5 1_555 1_555
H45_5 C73_5 1_555 1_555
H46_5 C74_5 1_555 1_555
H47_5 C75_5 1_555 1_555
H48_5 C76_5 1_555 1_555
H49_5 C77_5 1_555 1_555
H50_5 C78_5 1_555 1_555
C93_5 C73_5 1_555 1_555
C94_5 C74_5 1_555 1_555
C95_5 C77_5 1_555 1_555
C104_5 C93_5 1_555 1_555
C105_5 C94_5 1_555 1_555
C106_5 C95_5 1_555 1_555
C118_5 C104_5 1_555 1_555
C119_5 C105_5 1_555 1_555
C120_5 C105_5 1_555 1_555
C121_5 C104_5 1_555 1_555
C122_5 C106_5 1_555 1_555
C123_5 C106_5 1_555 1_555
H68_5 C118_5 1_555 1_555
H69_5 C119_5 1_555 1_555
H70_5 C120_5 1_555 1_555
H71_5 C121_5 1_555 1_555
H72_5 C122_5 1_555 1_555
H73_5 C123_5 1_555 1_555
C141_5 C118_5 1_555 1_555
C142_5 C119_5 1_555 1_555
C143_5 C120_5 1_555 1_555
C144_5 C121_5 1_555 1_555
C145_5 C122_5 1_555 1_555
C146_5 C123_5 1_555 1_555
H91_5 C141_5 1_555 1_555
H92_5 C142_5 1_555 1_555
H93_5 C143_5 1_555 1_555
H94_5 C144_5 1_555 1_555
H95_5 C145_5 1_555 1_555
H96_5 C146_5 1_555 1_555
C161_5 C141_5 1_555 1_555
C162_5 C142_5 1_555 1_555
C163_5 C145_5 1_555 1_555
C172_5 O32 1_555 1_555
C173_5 C162_5 1_555 1_555
C174_5 C163_5 1_555 1_555
O35 C172_5 1_555 1_555
C15_5 C26_5 1_555 1_555
C16_5 C25_5 1_555 1_555
C16_5 C27_5 1_555 1_555
C75_5 C94_5 1_555 1_555
C76_5 C93_5 1_555 1_555
C78_5 C95_5 1_555 1_555
C143_5 C162_5 1_555 1_555
C144_5 C161_5 1_555 1_555
C146_5 C163_5 1_555 1_555
C161_5 C172_5 1_555 1_555
Cu18 O10_6 1_555 1_555
Cu17 O11_6 1_555 1_555
Cu9_4 O12_6 1_555 1_555
Cu10_4 O13_6 1_555 1_555
O10_6 C173_6 1_555 1_555
O11_6 C173_6 1_555 1_555
O12_6 C174_6 1_555 1_555
O13_6 C174_6 1_555 1_555
C14_6 H8_6 1_555 1_555
C15_6 H9_6 1_555 1_555
C16_6 H10_6 1_555 1_555
C25_6 C14_6 1_555 1_555
C26_6 C14_6 1_555 1_555
C27_6 C15_6 1_555 1_555
C36_6 C25_6 1_555 1_555
C37_6 C26_6 1_555 1_555
C38_6 C27_6 1_555 1_555
C50_6 C36_6 1_555 1_555
C51_6 C37_6 1_555 1_555
C52_6 C37_6 1_555 1_555
C53_6 C36_6 1_555 1_555
C54_6 C38_6 1_555 1_555
C55_6 C38_6 1_555 1_555
H22_6 C50_6 1_555 1_555
H23_6 C51_6 1_555 1_555
H24_6 C52_6 1_555 1_555
H25_6 C53_6 1_555 1_555
H26_6 C54_6 1_555 1_555
H27_6 C55_6 1_555 1_555
C73_6 C50_6 1_555 1_555
C74_6 C51_6 1_555 1_555
C75_6 C52_6 1_555 1_555
C76_6 C53_6 1_555 1_555
C77_6 C54_6 1_555 1_555
C78_6 C55_6 1_555 1_555
H45_6 C73_6 1_555 1_555
H46_6 C74_6 1_555 1_555
H47_6 C75_6 1_555 1_555
H48_6 C76_6 1_555 1_555
H49_6 C77_6 1_555 1_555
H50_6 C78_6 1_555 1_555
C93_6 C73_6 1_555 1_555
C94_6 C74_6 1_555 1_555
C95_6 C77_6 1_555 1_555
C104_6 C93_6 1_555 1_555
C105_6 C94_6 1_555 1_555
C106_6 C95_6 1_555 1_555
C118_6 C104_6 1_555 1_555
C119_6 C105_6 1_555 1_555
C120_6 C105_6 1_555 1_555
C121_6 C104_6 1_555 1_555
C122_6 C106_6 1_555 1_555
C123_6 C106_6 1_555 1_555
H68_6 C118_6 1_555 1_555
H69_6 C119_6 1_555 1_555
H70_6 C120_6 1_555 1_555
H71_6 C121_6 1_555 1_555
H72_6 C122_6 1_555 1_555
H73_6 C123_6 1_555 1_555
C141_6 C118_6 1_555 1_555
C142_6 C119_6 1_555 1_555
C143_6 C120_6 1_555 1_555
C144_6 C121_6 1_555 1_555
C145_6 C122_6 1_555 1_555
C146_6 C123_6 1_555 1_555
H91_6 C141_6 1_555 1_555
H92_6 C142_6 1_555 1_555
H93_6 C143_6 1_555 1_555
H94_6 C144_6 1_555 1_555
H95_6 C145_6 1_555 1_555
H96_6 C146_6 1_555 1_555
C161_6 C141_6 1_555 1_555
C162_6 C142_6 1_555 1_555
C163_6 C145_6 1_555 1_555
C172_6 O32_4 1_555 1_555
C173_6 C162_6 1_555 1_555
C174_6 C163_6 1_555 1_555
O35_4 C172_6 1_555 1_555
C15_6 C26_6 1_555 1_555
C16_6 C25_6 1_555 1_555
C16_6 C27_6 1_555 1_555
C75_6 C94_6 1_555 1_555
C76_6 C93_6 1_555 1_555
C78_6 C95_6 1_555 1_555
C143_6 C162_6 1_555 1_555
C144_6 C161_6 1_555 1_555
C146_6 C163_6 1_555 1_555
C161_6 C172_6 1_555 1_555
Cu10_2 O22_6 1_555 1_555
Cu9_2 O23_6 1_555 1_555
Cu17_4 O24_6 1_555 1_555
Cu18_4 O25_6 1_555 1_555
O22_6 C179_6 1_555 1_555
O23_6 C179_6 1_555 1_555
O24_6 C180_6 1_555 1_555
O25_6 C180_6 1_555 1_555
C20_6 H14_6 1_555 1_555
C21_6 H15_6 1_555 1_555
C22_6 H16_6 1_555 1_555
C31_6 C20_6 1_555 1_555
C32_6 C20_6 1_555 1_555
C33_6 C21_6 1_555 1_555
C42_6 C31_6 1_555 1_555
C43_6 C32_6 1_555 1_555
C44_6 C33_6 1_555 1_555
C62_6 C42_6 1_555 1_555
C63_6 C43_6 1_555 1_555
C64_6 C43_6 1_555 1_555
C65_6 C42_6 1_555 1_555
C66_6 C44_6 1_555 1_555
C67_6 C44_6 1_555 1_555
H34_6 C62_6 1_555 1_555
H35_6 C63_6 1_555 1_555
H36_6 C64_6 1_555 1_555
H37_6 C65_6 1_555 1_555
H38_6 C66_6 1_555 1_555
H39_6 C67_6 1_555 1_555
C85_6 C62_6 1_555 1_555
C86_6 C63_6 1_555 1_555
C87_6 C64_6 1_555 1_555
C88_6 C65_6 1_555 1_555
C89_6 C66_6 1_555 1_555
C90_6 C67_6 1_555 1_555
H57_6 C85_6 1_555 1_555
H58_6 C86_6 1_555 1_555
H59_6 C87_6 1_555 1_555
H60_6 C88_6 1_555 1_555
H61_6 C89_6 1_555 1_555
H62_6 C90_6 1_555 1_555
C99_6 C85_6 1_555 1_555
C100_6 C86_6 1_555 1_555
C101_6 C89_6 1_555 1_555
C110_6 C99_6 1_555 1_555
C111_6 C100_6 1_555 1_555
C112_6 C101_6 1_555 1_555
C130_6 C110_6 1_555 1_555
C131_6 C111_6 1_555 1_555
C132_6 C111_6 1_555 1_555
C133_6 C110_6 1_555 1_555
C134_6 C112_6 1_555 1_555
C135_6 C112_6 1_555 1_555
H80_6 C130_6 1_555 1_555
H81_6 C131_6 1_555 1_555
H82_6 C132_6 1_555 1_555
H83_6 C133_6 1_555 1_555
H84_6 C134_6 1_555 1_555
H85_6 C135_6 1_555 1_555
C153_6 C130_6 1_555 1_555
C154_6 C131_6 1_555 1_555
C155_6 C132_6 1_555 1_555
C156_6 C133_6 1_555 1_555
C157_6 C134_6 1_555 1_555
C158_6 C135_6 1_555 1_555
H103_6 C153_6 1_555 1_555
H104_6 C154_6 1_555 1_555
H105_6 C155_6 1_555 1_555
H106_6 C156_6 1_555 1_555
H107_6 C157_6 1_555 1_555
H108_6 C158_6 1_555 1_555
C167_6 C153_6 1_555 1_555
C168_6 C154_6 1_555 1_555
C169_6 C157_6 1_555 1_555
C178_6 O34_4 1_555 1_555
C179_6 C168_6 1_555 1_555
C180_6 C169_6 1_555 1_555
O37_4 C178_6 1_555 1_555
C21_6 C32_6 1_555 1_555
C22_6 C31_6 1_555 1_555
C22_6 C33_6 1_555 1_555
C87_6 C100_6 1_555 1_555
C88_6 C99_6 1_555 1_555
C90_6 C101_6 1_555 1_555
C155_6 C168_6 1_555 1_555
C156_6 C167_6 1_555 1_555
C158_6 C169_6 1_555 1_555
C167_6 C178_6 1_555 1_555
Cu10 O10_7 1_555 1_555
Cu9 O11_7 1_555 1_555
Cu17_3 O12_7 1_555 1_555
Cu18_3 O13_7 1_555 1_555
O10_7 C173_7 1_555 1_555
O11_7 C173_7 1_555 1_555
O12_7 C174_7 1_555 1_555
O13_7 C174_7 1_555 1_555
C14_7 H8_7 1_555 1_555
C15_7 H9_7 1_555 1_555
C16_7 H10_7 1_555 1_555
C25_7 C14_7 1_555 1_555
C26_7 C14_7 1_555 1_555
C27_7 C15_7 1_555 1_555
C36_7 C25_7 1_555 1_555
C37_7 C26_7 1_555 1_555
C38_7 C27_7 1_555 1_555
C50_7 C36_7 1_555 1_555
C51_7 C37_7 1_555 1_555
C52_7 C37_7 1_555 1_555
C53_7 C36_7 1_555 1_555
C54_7 C38_7 1_555 1_555
C55_7 C38_7 1_555 1_555
H22_7 C50_7 1_555 1_555
H23_7 C51_7 1_555 1_555
H24_7 C52_7 1_555 1_555
H25_7 C53_7 1_555 1_555
H26_7 C54_7 1_555 1_555
H27_7 C55_7 1_555 1_555
C73_7 C50_7 1_555 1_555
C74_7 C51_7 1_555 1_555
C75_7 C52_7 1_555 1_555
C76_7 C53_7 1_555 1_555
C77_7 C54_7 1_555 1_555
C78_7 C55_7 1_555 1_555
H45_7 C73_7 1_555 1_555
H46_7 C74_7 1_555 1_555
H47_7 C75_7 1_555 1_555
H48_7 C76_7 1_555 1_555
H49_7 C77_7 1_555 1_555
H50_7 C78_7 1_555 1_555
C93_7 C73_7 1_555 1_555
C94_7 C74_7 1_555 1_555
C95_7 C77_7 1_555 1_555
C104_7 C93_7 1_555 1_555
C105_7 C94_7 1_555 1_555
C106_7 C95_7 1_555 1_555
C118_7 C104_7 1_555 1_555
C119_7 C105_7 1_555 1_555
C120_7 C105_7 1_555 1_555
C121_7 C104_7 1_555 1_555
C122_7 C106_7 1_555 1_555
C123_7 C106_7 1_555 1_555
H68_7 C118_7 1_555 1_555
H69_7 C119_7 1_555 1_555
H70_7 C120_7 1_555 1_555
H71_7 C121_7 1_555 1_555
H72_7 C122_7 1_555 1_555
H73_7 C123_7 1_555 1_555
C141_7 C118_7 1_555 1_555
C142_7 C119_7 1_555 1_555
C143_7 C120_7 1_555 1_555
C144_7 C121_7 1_555 1_555
C145_7 C122_7 1_555 1_555
C146_7 C123_7 1_555 1_555
H91_7 C141_7 1_555 1_555
H92_7 C142_7 1_555 1_555
H93_7 C143_7 1_555 1_555
H94_7 C144_7 1_555 1_555
H95_7 C145_7 1_555 1_555
H96_7 C146_7 1_555 1_555
C161_7 C141_7 1_555 1_555
C162_7 C142_7 1_555 1_555
C163_7 C145_7 1_555 1_555
C172_7 O32_2 1_555 1_555
C173_7 C162_7 1_555 1_555
C174_7 C163_7 1_555 1_555
O35_2 C172_7 1_555 1_555
C15_7 C26_7 1_555 1_555
C16_7 C25_7 1_555 1_555
C16_7 C27_7 1_555 1_555
C75_7 C94_7 1_555 1_555
C76_7 C93_7 1_555 1_555
C78_7 C95_7 1_555 1_555
C143_7 C162_7 1_555 1_555
C144_7 C161_7 1_555 1_555
C146_7 C163_7 1_555 1_555
C161_7 C172_7 1_555 1_555
Cu18_2 O22_7 1_555 1_555
Cu17_2 O23_7 1_555 1_555
Cu9_3 O24_7 1_555 1_555
Cu10_3 O25_7 1_555 1_555
O22_7 C179_7 1_555 1_555
O23_7 C179_7 1_555 1_555
O24_7 C180_7 1_555 1_555
O25_7 C180_7 1_555 1_555
C20_7 H14_7 1_555 1_555
C21_7 H15_7 1_555 1_555
C22_7 H16_7 1_555 1_555
C31_7 C20_7 1_555 1_555
C32_7 C20_7 1_555 1_555
C33_7 C21_7 1_555 1_555
C42_7 C31_7 1_555 1_555
C43_7 C32_7 1_555 1_555
C44_7 C33_7 1_555 1_555
C62_7 C42_7 1_555 1_555
C63_7 C43_7 1_555 1_555
C64_7 C43_7 1_555 1_555
C65_7 C42_7 1_555 1_555
C66_7 C44_7 1_555 1_555
C67_7 C44_7 1_555 1_555
H34_7 C62_7 1_555 1_555
H35_7 C63_7 1_555 1_555
H36_7 C64_7 1_555 1_555
H37_7 C65_7 1_555 1_555
H38_7 C66_7 1_555 1_555
H39_7 C67_7 1_555 1_555
C85_7 C62_7 1_555 1_555
C86_7 C63_7 1_555 1_555
C87_7 C64_7 1_555 1_555
C88_7 C65_7 1_555 1_555
C89_7 C66_7 1_555 1_555
C90_7 C67_7 1_555 1_555
H57_7 C85_7 1_555 1_555
H58_7 C86_7 1_555 1_555
H59_7 C87_7 1_555 1_555
H60_7 C88_7 1_555 1_555
H61_7 C89_7 1_555 1_555
H62_7 C90_7 1_555 1_555
C99_7 C85_7 1_555 1_555
C100_7 C86_7 1_555 1_555
C101_7 C89_7 1_555 1_555
C110_7 C99_7 1_555 1_555
C111_7 C100_7 1_555 1_555
C112_7 C101_7 1_555 1_555
C130_7 C110_7 1_555 1_555
C131_7 C111_7 1_555 1_555
C132_7 C111_7 1_555 1_555
C133_7 C110_7 1_555 1_555
C134_7 C112_7 1_555 1_555
C135_7 C112_7 1_555 1_555
H80_7 C130_7 1_555 1_555
H81_7 C131_7 1_555 1_555
H82_7 C132_7 1_555 1_555
H83_7 C133_7 1_555 1_555
H84_7 C134_7 1_555 1_555
H85_7 C135_7 1_555 1_555
C153_7 C130_7 1_555 1_555
C154_7 C131_7 1_555 1_555
C155_7 C132_7 1_555 1_555
C156_7 C133_7 1_555 1_555
C157_7 C134_7 1_555 1_555
C158_7 C135_7 1_555 1_555
H103_7 C153_7 1_555 1_555
H104_7 C154_7 1_555 1_555
H105_7 C155_7 1_555 1_555
H106_7 C156_7 1_555 1_555
H107_7 C157_7 1_555 1_555
H108_7 C158_7 1_555 1_555
C167_7 C153_7 1_555 1_555
C168_7 C154_7 1_555 1_555
C169_7 C157_7 1_555 1_555
C178_7 O34_2 1_555 1_555
C179_7 C168_7 1_555 1_555
C180_7 C169_7 1_555 1_555
O37_2 C178_7 1_555 1_555
C21_7 C32_7 1_555 1_555
C22_7 C31_7 1_555 1_555
C22_7 C33_7 1_555 1_555
C87_7 C100_7 1_555 1_555
C88_7 C99_7 1_555 1_555
C90_7 C101_7 1_555 1_555
C155_7 C168_7 1_555 1_555
C156_7 C167_7 1_555 1_555
C158_7 C169_7 1_555 1_555
C167_7 C178_7 1_555 1_555
Cu10 O22_8 1_555 1_555
Cu9 O23_8 1_555 1_555
Cu9_4 O24_8 1_555 1_555
Cu10_4 O25_8 1_555 1_555
O22_8 C179_8 1_555 1_555
O23_8 C179_8 1_555 1_555
O24_8 C180_8 1_555 1_555
O25_8 C180_8 1_555 1_555
C20_8 H14_8 1_555 1_555
C21_8 H15_8 1_555 1_555
C22_8 H16_8 1_555 1_555
C31_8 C20_8 1_555 1_555
C32_8 C20_8 1_555 1_555
C33_8 C21_8 1_555 1_555
C42_8 C31_8 1_555 1_555
C43_8 C32_8 1_555 1_555
C44_8 C33_8 1_555 1_555
C62_8 C42_8 1_555 1_555
C63_8 C43_8 1_555 1_555
C64_8 C43_8 1_555 1_555
C65_8 C42_8 1_555 1_555
C66_8 C44_8 1_555 1_555
C67_8 C44_8 1_555 1_555
H34_8 C62_8 1_555 1_555
H35_8 C63_8 1_555 1_555
H36_8 C64_8 1_555 1_555
H37_8 C65_8 1_555 1_555
H38_8 C66_8 1_555 1_555
H39_8 C67_8 1_555 1_555
C85_8 C62_8 1_555 1_555
C86_8 C63_8 1_555 1_555
C87_8 C64_8 1_555 1_555
C88_8 C65_8 1_555 1_555
C89_8 C66_8 1_555 1_555
C90_8 C67_8 1_555 1_555
H57_8 C85_8 1_555 1_555
H58_8 C86_8 1_555 1_555
H59_8 C87_8 1_555 1_555
H60_8 C88_8 1_555 1_555
H61_8 C89_8 1_555 1_555
H62_8 C90_8 1_555 1_555
C99_8 C85_8 1_555 1_555
C100_8 C86_8 1_555 1_555
C101_8 C89_8 1_555 1_555
C110_8 C99_8 1_555 1_555
C111_8 C100_8 1_555 1_555
C112_8 C101_8 1_555 1_555
C130_8 C110_8 1_555 1_555
C131_8 C111_8 1_555 1_555
C132_8 C111_8 1_555 1_555
C133_8 C110_8 1_555 1_555
C134_8 C112_8 1_555 1_555
C135_8 C112_8 1_555 1_555
H80_8 C130_8 1_555 1_555
H81_8 C131_8 1_555 1_555
H82_8 C132_8 1_555 1_555
H83_8 C133_8 1_555 1_555
H84_8 C134_8 1_555 1_555
H85_8 C135_8 1_555 1_555
C153_8 C130_8 1_555 1_555
C154_8 C131_8 1_555 1_555
C155_8 C132_8 1_555 1_555
C156_8 C133_8 1_555 1_555
C157_8 C134_8 1_555 1_555
C158_8 C135_8 1_555 1_555
H103_8 C153_8 1_555 1_555
H104_8 C154_8 1_555 1_555
H105_8 C155_8 1_555 1_555
H106_8 C156_8 1_555 1_555
H107_8 C157_8 1_555 1_555
H108_8 C158_8 1_555 1_555
C167_8 C153_8 1_555 1_555
C168_8 C154_8 1_555 1_555
C169_8 C157_8 1_555 1_555
C178_8 O34_3 1_555 1_555
C179_8 C168_8 1_555 1_555
C180_8 C169_8 1_555 1_555
O37_3 C178_8 1_555 1_555
C21_8 C32_8 1_555 1_555
C22_8 C31_8 1_555 1_555
C22_8 C33_8 1_555 1_555
C87_8 C100_8 1_555 1_555
C88_8 C99_8 1_555 1_555
C90_8 C101_8 1_555 1_555
C155_8 C168_8 1_555 1_555
C156_8 C167_8 1_555 1_555
C158_8 C169_8 1_555 1_555
C167_8 C178_8 1_555 1_555
Cu18_2 O10_8 1_555 1_555
Cu17_2 O11_8 1_555 1_555
Cu17_4 O12_8 1_555 1_555
Cu18_4 O13_8 1_555 1_555
O10_8 C173_8 1_555 1_555
O11_8 C173_8 1_555 1_555
O12_8 C174_8 1_555 1_555
O13_8 C174_8 1_555 1_555
C14_8 H8_8 1_555 1_555
C15_8 H9_8 1_555 1_555
C16_8 H10_8 1_555 1_555
C25_8 C14_8 1_555 1_555
C26_8 C14_8 1_555 1_555
C27_8 C15_8 1_555 1_555
C36_8 C25_8 1_555 1_555
C37_8 C26_8 1_555 1_555
C38_8 C27_8 1_555 1_555
C50_8 C36_8 1_555 1_555
C51_8 C37_8 1_555 1_555
C52_8 C37_8 1_555 1_555
C53_8 C36_8 1_555 1_555
C54_8 C38_8 1_555 1_555
C55_8 C38_8 1_555 1_555
H22_8 C50_8 1_555 1_555
H23_8 C51_8 1_555 1_555
H24_8 C52_8 1_555 1_555
H25_8 C53_8 1_555 1_555
H26_8 C54_8 1_555 1_555
H27_8 C55_8 1_555 1_555
C73_8 C50_8 1_555 1_555
C74_8 C51_8 1_555 1_555
C75_8 C52_8 1_555 1_555
C76_8 C53_8 1_555 1_555
C77_8 C54_8 1_555 1_555
C78_8 C55_8 1_555 1_555
H45_8 C73_8 1_555 1_555
H46_8 C74_8 1_555 1_555
H47_8 C75_8 1_555 1_555
H48_8 C76_8 1_555 1_555
H49_8 C77_8 1_555 1_555
H50_8 C78_8 1_555 1_555
C93_8 C73_8 1_555 1_555
C94_8 C74_8 1_555 1_555
C95_8 C77_8 1_555 1_555
C104_8 C93_8 1_555 1_555
C105_8 C94_8 1_555 1_555
C106_8 C95_8 1_555 1_555
C118_8 C104_8 1_555 1_555
C119_8 C105_8 1_555 1_555
C120_8 C105_8 1_555 1_555
C121_8 C104_8 1_555 1_555
C122_8 C106_8 1_555 1_555
C123_8 C106_8 1_555 1_555
H68_8 C118_8 1_555 1_555
H69_8 C119_8 1_555 1_555
H70_8 C120_8 1_555 1_555
H71_8 C121_8 1_555 1_555
H72_8 C122_8 1_555 1_555
H73_8 C123_8 1_555 1_555
C141_8 C118_8 1_555 1_555
C142_8 C119_8 1_555 1_555
C143_8 C120_8 1_555 1_555
C144_8 C121_8 1_555 1_555
C145_8 C122_8 1_555 1_555
C146_8 C123_8 1_555 1_555
H91_8 C141_8 1_555 1_555
H92_8 C142_8 1_555 1_555
H93_8 C143_8 1_555 1_555
H94_8 C144_8 1_555 1_555
H95_8 C145_8 1_555 1_555
H96_8 C146_8 1_555 1_555
C161_8 C141_8 1_555 1_555
C162_8 C142_8 1_555 1_555
C163_8 C145_8 1_555 1_555
C172_8 O32_3 1_555 1_555
C173_8 C162_8 1_555 1_555
C174_8 C163_8 1_555 1_555
O35_3 C172_8 1_555 1_555
C15_8 C26_8 1_555 1_555
C16_8 C25_8 1_555 1_555
C16_8 C27_8 1_555 1_555
C75_8 C94_8 1_555 1_555
C76_8 C93_8 1_555 1_555
C78_8 C95_8 1_555 1_555
C143_8 C162_8 1_555 1_555
C144_8 C161_8 1_555 1_555
C146_8 C163_8 1_555 1_555
C161_8 C172_8 1_555 1_555
Cu18_3 O22_9 1_555 1_555
Cu17_3 O23_9 1_555 1_555
Cu16 O24_9 1_555 1_555
Cu15 O25_9 1_555 1_555
O22_9 C179_9 1_555 1_555
O23_9 C179_9 1_555 1_555
O24_9 C180_9 1_555 1_555
O25_9 C180_9 1_555 1_555
C20_9 H14_9 1_555 1_555
C21_9 H15_9 1_555 1_555
C22_9 H16_9 1_555 1_555
C31_9 C20_9 1_555 1_555
C32_9 C20_9 1_555 1_555
C33_9 C21_9 1_555 1_555
C42_9 C31_9 1_555 1_555
C43_9 C32_9 1_555 1_555
C44_9 C33_9 1_555 1_555
C62_9 C42_9 1_555 1_555
C63_9 C43_9 1_555 1_555
C64_9 C43_9 1_555 1_555
C65_9 C42_9 1_555 1_555
C66_9 C44_9 1_555 1_555
C67_9 C44_9 1_555 1_555
H34_9 C62_9 1_555 1_555
H35_9 C63_9 1_555 1_555
H36_9 C64_9 1_555 1_555
H37_9 C65_9 1_555 1_555
H38_9 C66_9 1_555 1_555
H39_9 C67_9 1_555 1_555
C85_9 C62_9 1_555 1_555
C86_9 C63_9 1_555 1_555
C87_9 C64_9 1_555 1_555
C88_9 C65_9 1_555 1_555
C89_9 C66_9 1_555 1_555
C90_9 C67_9 1_555 1_555
H57_9 C85_9 1_555 1_555
H58_9 C86_9 1_555 1_555
H59_9 C87_9 1_555 1_555
H60_9 C88_9 1_555 1_555
H61_9 C89_9 1_555 1_555
H62_9 C90_9 1_555 1_555
C99_9 C85_9 1_555 1_555
C100_9 C86_9 1_555 1_555
C101_9 C89_9 1_555 1_555
C110_9 C99_9 1_555 1_555
C111_9 C100_9 1_555 1_555
C112_9 C101_9 1_555 1_555
C130_9 C110_9 1_555 1_555
C131_9 C111_9 1_555 1_555
C132_9 C111_9 1_555 1_555
C133_9 C110_9 1_555 1_555
C134_9 C112_9 1_555 1_555
C135_9 C112_9 1_555 1_555
H80_9 C130_9 1_555 1_555
H81_9 C131_9 1_555 1_555
H82_9 C132_9 1_555 1_555
H83_9 C133_9 1_555 1_555
H84_9 C134_9 1_555 1_555
H85_9 C135_9 1_555 1_555
C153_9 C130_9 1_555 1_555
C154_9 C131_9 1_555 1_555
C155_9 C132_9 1_555 1_555
C156_9 C133_9 1_555 1_555
C157_9 C134_9 1_555 1_555
C158_9 C135_9 1_555 1_555
H103_9 C153_9 1_555 1_555
H104_9 C154_9 1_555 1_555
H105_9 C155_9 1_555 1_555
H106_9 C156_9 1_555 1_555
H107_9 C157_9 1_555 1_555
H108_9 C158_9 1_555 1_555
C167_9 C153_9 1_555 1_555
C168_9 C154_9 1_555 1_555
C169_9 C157_9 1_555 1_555
C178_9 O28 1_555 1_555
C179_9 C168_9 1_555 1_555
C180_9 C169_9 1_555 1_555
O31 C178_9 1_555 1_555
C21_9 C32_9 1_555 1_555
C22_9 C31_9 1_555 1_555
C22_9 C33_9 1_555 1_555
C87_9 C100_9 1_555 1_555
C88_9 C99_9 1_555 1_555
C90_9 C101_9 1_555 1_555
C155_9 C168_9 1_555 1_555
C156_9 C167_9 1_555 1_555
C158_9 C169_9 1_555 1_555
C167_9 C178_9 1_555 1_555
Cu10_4 O10_9 1_555 1_555
Cu9_4 O11_9 1_555 1_555
Cu8_2 O12_9 1_555 1_555
Cu7_2 O13_9 1_555 1_555
O10_9 C173_9 1_555 1_555
O11_9 C173_9 1_555 1_555
O12_9 C174_9 1_555 1_555
O13_9 C174_9 1_555 1_555
C14_9 H8_9 1_555 1_555
C15_9 H9_9 1_555 1_555
C16_9 H10_9 1_555 1_555
C25_9 C14_9 1_555 1_555
C26_9 C14_9 1_555 1_555
C27_9 C15_9 1_555 1_555
C36_9 C25_9 1_555 1_555
C37_9 C26_9 1_555 1_555
C38_9 C27_9 1_555 1_555
C50_9 C36_9 1_555 1_555
C51_9 C37_9 1_555 1_555
C52_9 C37_9 1_555 1_555
C53_9 C36_9 1_555 1_555
C54_9 C38_9 1_555 1_555
C55_9 C38_9 1_555 1_555
H22_9 C50_9 1_555 1_555
H23_9 C51_9 1_555 1_555
H24_9 C52_9 1_555 1_555
H25_9 C53_9 1_555 1_555
H26_9 C54_9 1_555 1_555
H27_9 C55_9 1_555 1_555
C73_9 C50_9 1_555 1_555
C74_9 C51_9 1_555 1_555
C75_9 C52_9 1_555 1_555
C76_9 C53_9 1_555 1_555
C77_9 C54_9 1_555 1_555
C78_9 C55_9 1_555 1_555
H45_9 C73_9 1_555 1_555
H46_9 C74_9 1_555 1_555
H47_9 C75_9 1_555 1_555
H48_9 C76_9 1_555 1_555
H49_9 C77_9 1_555 1_555
H50_9 C78_9 1_555 1_555
C93_9 C73_9 1_555 1_555
C94_9 C74_9 1_555 1_555
C95_9 C77_9 1_555 1_555
C104_9 C93_9 1_555 1_555
C105_9 C94_9 1_555 1_555
C106_9 C95_9 1_555 1_555
C118_9 C104_9 1_555 1_555
C119_9 C105_9 1_555 1_555
C120_9 C105_9 1_555 1_555
C121_9 C104_9 1_555 1_555
C122_9 C106_9 1_555 1_555
C123_9 C106_9 1_555 1_555
H68_9 C118_9 1_555 1_555
H69_9 C119_9 1_555 1_555
H70_9 C120_9 1_555 1_555
H71_9 C121_9 1_555 1_555
H72_9 C122_9 1_555 1_555
H73_9 C123_9 1_555 1_555
C141_9 C118_9 1_555 1_555
C142_9 C119_9 1_555 1_555
C143_9 C120_9 1_555 1_555
C144_9 C121_9 1_555 1_555
C145_9 C122_9 1_555 1_555
C146_9 C123_9 1_555 1_555
H91_9 C141_9 1_555 1_555
H92_9 C142_9 1_555 1_555
H93_9 C143_9 1_555 1_555
H94_9 C144_9 1_555 1_555
H95_9 C145_9 1_555 1_555
H96_9 C146_9 1_555 1_555
C161_9 C141_9 1_555 1_555
C162_9 C142_9 1_555 1_555
C163_9 C145_9 1_555 1_555
C172_9 O26 1_555 1_555
C173_9 C162_9 1_555 1_555
C174_9 C163_9 1_555 1_555
O29 C172_9 1_555 1_555
C15_9 C26_9 1_555 1_555
C16_9 C25_9 1_555 1_555
C16_9 C27_9 1_555 1_555
C75_9 C94_9 1_555 1_555
C76_9 C93_9 1_555 1_555
C78_9 C95_9 1_555 1_555
C143_9 C162_9 1_555 1_555
C144_9 C161_9 1_555 1_555
C146_9 C163_9 1_555 1_555
C161_9 C172_9 1_555 1_555
Cu18_3 O10_10 1_555 1_555
Cu17_3 O11_10 1_555 1_555
Cu8 O12_10 1_555 1_555
Cu7 O13_10 1_555 1_555
O10_10 C173_10 1_555 1_555
O11_10 C173_10 1_555 1_555
O12_10 C174_10 1_555 1_555
O13_10 C174_10 1_555 1_555
C14_10 H8_10 1_555 1_555
C15_10 H9_10 1_555 1_555
C16_10 H10_10 1_555 1_555
C25_10 C14_10 1_555 1_555
C26_10 C14_10 1_555 1_555
C27_10 C15_10 1_555 1_555
C36_10 C25_10 1_555 1_555
C37_10 C26_10 1_555 1_555
C38_10 C27_10 1_555 1_555
C50_10 C36_10 1_555 1_555
C51_10 C37_10 1_555 1_555
C52_10 C37_10 1_555 1_555
C53_10 C36_10 1_555 1_555
C54_10 C38_10 1_555 1_555
C55_10 C38_10 1_555 1_555
H22_10 C50_10 1_555 1_555
H23_10 C51_10 1_555 1_555
H24_10 C52_10 1_555 1_555
H25_10 C53_10 1_555 1_555
H26_10 C54_10 1_555 1_555
H27_10 C55_10 1_555 1_555
C73_10 C50_10 1_555 1_555
C74_10 C51_10 1_555 1_555
C75_10 C52_10 1_555 1_555
C76_10 C53_10 1_555 1_555
C77_10 C54_10 1_555 1_555
C78_10 C55_10 1_555 1_555
H45_10 C73_10 1_555 1_555
H46_10 C74_10 1_555 1_555
H47_10 C75_10 1_555 1_555
H48_10 C76_10 1_555 1_555
H49_10 C77_10 1_555 1_555
H50_10 C78_10 1_555 1_555
C93_10 C73_10 1_555 1_555
C94_10 C74_10 1_555 1_555
C95_10 C77_10 1_555 1_555
C104_10 C93_10 1_555 1_555
C105_10 C94_10 1_555 1_555
C106_10 C95_10 1_555 1_555
C118_10 C104_10 1_555 1_555
C119_10 C105_10 1_555 1_555
C120_10 C105_10 1_555 1_555
C121_10 C104_10 1_555 1_555
C122_10 C106_10 1_555 1_555
C123_10 C106_10 1_555 1_555
H68_10 C118_10 1_555 1_555
H69_10 C119_10 1_555 1_555
H70_10 C120_10 1_555 1_555
H71_10 C121_10 1_555 1_555
H72_10 C122_10 1_555 1_555
H73_10 C123_10 1_555 1_555
C141_10 C118_10 1_555 1_555
C142_10 C119_10 1_555 1_555
C143_10 C120_10 1_555 1_555
C144_10 C121_10 1_555 1_555
C145_10 C122_10 1_555 1_555
C146_10 C123_10 1_555 1_555
H91_10 C141_10 1_555 1_555
H92_10 C142_10 1_555 1_555
H93_10 C143_10 1_555 1_555
H94_10 C144_10 1_555 1_555
H95_10 C145_10 1_555 1_555
H96_10 C146_10 1_555 1_555
C161_10 C141_10 1_555 1_555
C162_10 C142_10 1_555 1_555
C163_10 C145_10 1_555 1_555
C172_10 O26_3 1_555 1_555
C173_10 C162_10 1_555 1_555
C174_10 C163_10 1_555 1_555
O29_3 C172_10 1_555 1_555
C15_10 C26_10 1_555 1_555
C16_10 C25_10 1_555 1_555
C16_10 C27_10 1_555 1_555
C75_10 C94_10 1_555 1_555
C76_10 C93_10 1_555 1_555
C78_10 C95_10 1_555 1_555
C143_10 C162_10 1_555 1_555
C144_10 C161_10 1_555 1_555
C146_10 C163_10 1_555 1_555
C161_10 C172_10 1_555 1_555
Cu10_4 O22_10 1_555 1_555
Cu9_4 O23_10 1_555 1_555
Cu16_2 O24_10 1_555 1_555
Cu15_2 O25_10 1_555 1_555
O22_10 C179_10 1_555 1_555
O23_10 C179_10 1_555 1_555
O24_10 C180_10 1_555 1_555
O25_10 C180_10 1_555 1_555
C20_10 H14_10 1_555 1_555
C21_10 H15_10 1_555 1_555
C22_10 H16_10 1_555 1_555
C31_10 C20_10 1_555 1_555
C32_10 C20_10 1_555 1_555
C33_10 C21_10 1_555 1_555
C42_10 C31_10 1_555 1_555
C43_10 C32_10 1_555 1_555
C44_10 C33_10 1_555 1_555
C62_10 C42_10 1_555 1_555
C63_10 C43_10 1_555 1_555
C64_10 C43_10 1_555 1_555
C65_10 C42_10 1_555 1_555
C66_10 C44_10 1_555 1_555
C67_10 C44_10 1_555 1_555
H34_10 C62_10 1_555 1_555
H35_10 C63_10 1_555 1_555
H36_10 C64_10 1_555 1_555
H37_10 C65_10 1_555 1_555
H38_10 C66_10 1_555 1_555
H39_10 C67_10 1_555 1_555
C85_10 C62_10 1_555 1_555
C86_10 C63_10 1_555 1_555
C87_10 C64_10 1_555 1_555
C88_10 C65_10 1_555 1_555
C89_10 C66_10 1_555 1_555
C90_10 C67_10 1_555 1_555
H57_10 C85_10 1_555 1_555
H58_10 C86_10 1_555 1_555
H59_10 C87_10 1_555 1_555
H60_10 C88_10 1_555 1_555
H61_10 C89_10 1_555 1_555
H62_10 C90_10 1_555 1_555
C99_10 C85_10 1_555 1_555
C100_10 C86_10 1_555 1_555
C101_10 C89_10 1_555 1_555
C110_10 C99_10 1_555 1_555
C111_10 C100_10 1_555 1_555
C112_10 C101_10 1_555 1_555
C130_10 C110_10 1_555 1_555
C131_10 C111_10 1_555 1_555
C132_10 C111_10 1_555 1_555
C133_10 C110_10 1_555 1_555
C134_10 C112_10 1_555 1_555
C135_10 C112_10 1_555 1_555
H80_10 C130_10 1_555 1_555
H81_10 C131_10 1_555 1_555
H82_10 C132_10 1_555 1_555
H83_10 C133_10 1_555 1_555
H84_10 C134_10 1_555 1_555
H85_10 C135_10 1_555 1_555
C153_10 C130_10 1_555 1_555
C154_10 C131_10 1_555 1_555
C155_10 C132_10 1_555 1_555
C156_10 C133_10 1_555 1_555
C157_10 C134_10 1_555 1_555
C158_10 C135_10 1_555 1_555
H103_10 C153_10 1_555 1_555
H104_10 C154_10 1_555 1_555
H105_10 C155_10 1_555 1_555
H106_10 C156_10 1_555 1_555
H107_10 C157_10 1_555 1_555
H108_10 C158_10 1_555 1_555
C167_10 C153_10 1_555 1_555
C168_10 C154_10 1_555 1_555
C169_10 C157_10 1_555 1_555
C178_10 O28_3 1_555 1_555
C179_10 C168_10 1_555 1_555
C180_10 C169_10 1_555 1_555
O31_3 C178_10 1_555 1_555
C21_10 C32_10 1_555 1_555
C22_10 C31_10 1_555 1_555
C22_10 C33_10 1_555 1_555
C87_10 C100_10 1_555 1_555
C88_10 C99_10 1_555 1_555
C90_10 C101_10 1_555 1_555
C155_10 C168_10 1_555 1_555
C156_10 C167_10 1_555 1_555
C158_10 C169_10 1_555 1_555
C167_10 C178_10 1_555 1_555
Cu10_3 O10_11 1_555 1_555
Cu9_3 O11_11 1_555 1_555
Cu16 O12_11 1_555 1_555
Cu15 O13_11 1_555 1_555
O10_11 C173_11 1_555 1_555
O11_11 C173_11 1_555 1_555
O12_11 C174_11 1_555 1_555
O13_11 C174_11 1_555 1_555
C14_11 H8_11 1_555 1_555
C15_11 H9_11 1_555 1_555
C16_11 H10_11 1_555 1_555
C25_11 C14_11 1_555 1_555
C26_11 C14_11 1_555 1_555
C27_11 C15_11 1_555 1_555
C36_11 C25_11 1_555 1_555
C37_11 C26_11 1_555 1_555
C38_11 C27_11 1_555 1_555
C50_11 C36_11 1_555 1_555
C51_11 C37_11 1_555 1_555
C52_11 C37_11 1_555 1_555
C53_11 C36_11 1_555 1_555
C54_11 C38_11 1_555 1_555
C55_11 C38_11 1_555 1_555
H22_11 C50_11 1_555 1_555
H23_11 C51_11 1_555 1_555
H24_11 C52_11 1_555 1_555
H25_11 C53_11 1_555 1_555
H26_11 C54_11 1_555 1_555
H27_11 C55_11 1_555 1_555
C73_11 C50_11 1_555 1_555
C74_11 C51_11 1_555 1_555
C75_11 C52_11 1_555 1_555
C76_11 C53_11 1_555 1_555
C77_11 C54_11 1_555 1_555
C78_11 C55_11 1_555 1_555
H45_11 C73_11 1_555 1_555
H46_11 C74_11 1_555 1_555
H47_11 C75_11 1_555 1_555
H48_11 C76_11 1_555 1_555
H49_11 C77_11 1_555 1_555
H50_11 C78_11 1_555 1_555
C93_11 C73_11 1_555 1_555
C94_11 C74_11 1_555 1_555
C95_11 C77_11 1_555 1_555
C104_11 C93_11 1_555 1_555
C105_11 C94_11 1_555 1_555
C106_11 C95_11 1_555 1_555
C118_11 C104_11 1_555 1_555
C119_11 C105_11 1_555 1_555
C120_11 C105_11 1_555 1_555
C121_11 C104_11 1_555 1_555
C122_11 C106_11 1_555 1_555
C123_11 C106_11 1_555 1_555
H68_11 C118_11 1_555 1_555
H69_11 C119_11 1_555 1_555
H70_11 C120_11 1_555 1_555
H71_11 C121_11 1_555 1_555
H72_11 C122_11 1_555 1_555
H73_11 C123_11 1_555 1_555
C141_11 C118_11 1_555 1_555
C142_11 C119_11 1_555 1_555
C143_11 C120_11 1_555 1_555
C144_11 C121_11 1_555 1_555
C145_11 C122_11 1_555 1_555
C146_11 C123_11 1_555 1_555
H91_11 C141_11 1_555 1_555
H92_11 C142_11 1_555 1_555
H93_11 C143_11 1_555 1_555
H94_11 C144_11 1_555 1_555
H95_11 C145_11 1_555 1_555
H96_11 C146_11 1_555 1_555
C161_11 C141_11 1_555 1_555
C162_11 C142_11 1_555 1_555
C163_11 C145_11 1_555 1_555
C172_11 O26_4 1_555 1_555
C173_11 C162_11 1_555 1_555
C174_11 C163_11 1_555 1_555
O29_4 C172_11 1_555 1_555
C15_11 C26_11 1_555 1_555
C16_11 C25_11 1_555 1_555
C16_11 C27_11 1_555 1_555
C75_11 C94_11 1_555 1_555
C76_11 C93_11 1_555 1_555
C78_11 C95_11 1_555 1_555
C143_11 C162_11 1_555 1_555
C144_11 C161_11 1_555 1_555
C146_11 C163_11 1_555 1_555
C161_11 C172_11 1_555 1_555
Cu18_4 O22_11 1_555 1_555
Cu17_4 O23_11 1_555 1_555
Cu8_2 O24_11 1_555 1_555
Cu7_2 O25_11 1_555 1_555
O22_11 C179_11 1_555 1_555
O23_11 C179_11 1_555 1_555
O24_11 C180_11 1_555 1_555
O25_11 C180_11 1_555 1_555
C20_11 H14_11 1_555 1_555
C21_11 H15_11 1_555 1_555
C22_11 H16_11 1_555 1_555
C31_11 C20_11 1_555 1_555
C32_11 C20_11 1_555 1_555
C33_11 C21_11 1_555 1_555
C42_11 C31_11 1_555 1_555
C43_11 C32_11 1_555 1_555
C44_11 C33_11 1_555 1_555
C62_11 C42_11 1_555 1_555
C63_11 C43_11 1_555 1_555
C64_11 C43_11 1_555 1_555
C65_11 C42_11 1_555 1_555
C66_11 C44_11 1_555 1_555
C67_11 C44_11 1_555 1_555
H34_11 C62_11 1_555 1_555
H35_11 C63_11 1_555 1_555
H36_11 C64_11 1_555 1_555
H37_11 C65_11 1_555 1_555
H38_11 C66_11 1_555 1_555
H39_11 C67_11 1_555 1_555
C85_11 C62_11 1_555 1_555
C86_11 C63_11 1_555 1_555
C87_11 C64_11 1_555 1_555
C88_11 C65_11 1_555 1_555
C89_11 C66_11 1_555 1_555
C90_11 C67_11 1_555 1_555
H57_11 C85_11 1_555 1_555
H58_11 C86_11 1_555 1_555
H59_11 C87_11 1_555 1_555
H60_11 C88_11 1_555 1_555
H61_11 C89_11 1_555 1_555
H62_11 C90_11 1_555 1_555
C99_11 C85_11 1_555 1_555
C100_11 C86_11 1_555 1_555
C101_11 C89_11 1_555 1_555
C110_11 C99_11 1_555 1_555
C111_11 C100_11 1_555 1_555
C112_11 C101_11 1_555 1_555
C130_11 C110_11 1_555 1_555
C131_11 C111_11 1_555 1_555
C132_11 C111_11 1_555 1_555
C133_11 C110_11 1_555 1_555
C134_11 C112_11 1_555 1_555
C135_11 C112_11 1_555 1_555
H80_11 C130_11 1_555 1_555
H81_11 C131_11 1_555 1_555
H82_11 C132_11 1_555 1_555
H83_11 C133_11 1_555 1_555
H84_11 C134_11 1_555 1_555
H85_11 C135_11 1_555 1_555
C153_11 C130_11 1_555 1_555
C154_11 C131_11 1_555 1_555
C155_11 C132_11 1_555 1_555
C156_11 C133_11 1_555 1_555
C157_11 C134_11 1_555 1_555
C158_11 C135_11 1_555 1_555
H103_11 C153_11 1_555 1_555
H104_11 C154_11 1_555 1_555
H105_11 C155_11 1_555 1_555
H106_11 C156_11 1_555 1_555
H107_11 C157_11 1_555 1_555
H108_11 C158_11 1_555 1_555
C167_11 C153_11 1_555 1_555
C168_11 C154_11 1_555 1_555
C169_11 C157_11 1_555 1_555
C178_11 O28_4 1_555 1_555
C179_11 C168_11 1_555 1_555
C180_11 C169_11 1_555 1_555
O31_4 C178_11 1_555 1_555
C21_11 C32_11 1_555 1_555
C22_11 C31_11 1_555 1_555
C22_11 C33_11 1_555 1_555
C87_11 C100_11 1_555 1_555
C88_11 C99_11 1_555 1_555
C90_11 C101_11 1_555 1_555
C155_11 C168_11 1_555 1_555
C156_11 C167_11 1_555 1_555
C158_11 C169_11 1_555 1_555
C167_11 C178_11 1_555 1_555
Cu10_3 O22_12 1_555 1_555
Cu9_3 O23_12 1_555 1_555
Cu8 O24_12 1_555 1_555
Cu7 O25_12 1_555 1_555
O22_12 C179_12 1_555 1_555
O23_12 C179_12 1_555 1_555
O24_12 C180_12 1_555 1_555
O25_12 C180_12 1_555 1_555
C20_12 H14_12 1_555 1_555
C21_12 H15_12 1_555 1_555
C22_12 H16_12 1_555 1_555
C31_12 C20_12 1_555 1_555
C32_12 C20_12 1_555 1_555
C33_12 C21_12 1_555 1_555
C42_12 C31_12 1_555 1_555
C43_12 C32_12 1_555 1_555
C44_12 C33_12 1_555 1_555
C62_12 C42_12 1_555 1_555
C63_12 C43_12 1_555 1_555
C64_12 C43_12 1_555 1_555
C65_12 C42_12 1_555 1_555
C66_12 C44_12 1_555 1_555
C67_12 C44_12 1_555 1_555
H34_12 C62_12 1_555 1_555
H35_12 C63_12 1_555 1_555
H36_12 C64_12 1_555 1_555
H37_12 C65_12 1_555 1_555
H38_12 C66_12 1_555 1_555
H39_12 C67_12 1_555 1_555
C85_12 C62_12 1_555 1_555
C86_12 C63_12 1_555 1_555
C87_12 C64_12 1_555 1_555
C88_12 C65_12 1_555 1_555
C89_12 C66_12 1_555 1_555
C90_12 C67_12 1_555 1_555
H57_12 C85_12 1_555 1_555
H58_12 C86_12 1_555 1_555
H59_12 C87_12 1_555 1_555
H60_12 C88_12 1_555 1_555
H61_12 C89_12 1_555 1_555
H62_12 C90_12 1_555 1_555
C99_12 C85_12 1_555 1_555
C100_12 C86_12 1_555 1_555
C101_12 C89_12 1_555 1_555
C110_12 C99_12 1_555 1_555
C111_12 C100_12 1_555 1_555
C112_12 C101_12 1_555 1_555
C130_12 C110_12 1_555 1_555
C131_12 C111_12 1_555 1_555
C132_12 C111_12 1_555 1_555
C133_12 C110_12 1_555 1_555
C134_12 C112_12 1_555 1_555
C135_12 C112_12 1_555 1_555
H80_12 C130_12 1_555 1_555
H81_12 C131_12 1_555 1_555
H82_12 C132_12 1_555 1_555
H83_12 C133_12 1_555 1_555
H84_12 C134_12 1_555 1_555
H85_12 C135_12 1_555 1_555
C153_12 C130_12 1_555 1_555
C154_12 C131_12 1_555 1_555
C155_12 C132_12 1_555 1_555
C156_12 C133_12 1_555 1_555
C157_12 C134_12 1_555 1_555
C158_12 C135_12 1_555 1_555
H103_12 C153_12 1_555 1_555
H104_12 C154_12 1_555 1_555
H105_12 C155_12 1_555 1_555
H106_12 C156_12 1_555 1_555
H107_12 C157_12 1_555 1_555
H108_12 C158_12 1_555 1_555
C167_12 C153_12 1_555 1_555
C168_12 C154_12 1_555 1_555
C169_12 C157_12 1_555 1_555
C178_12 O28_2 1_555 1_555
C179_12 C168_12 1_555 1_555
C180_12 C169_12 1_555 1_555
O31_2 C178_12 1_555 1_555
C21_12 C32_12 1_555 1_555
C22_12 C31_12 1_555 1_555
C22_12 C33_12 1_555 1_555
C87_12 C100_12 1_555 1_555
C88_12 C99_12 1_555 1_555
C90_12 C101_12 1_555 1_555
C155_12 C168_12 1_555 1_555
C156_12 C167_12 1_555 1_555
C158_12 C169_12 1_555 1_555
C167_12 C178_12 1_555 1_555
Cu18_4 O10_12 1_555 1_555
Cu17_4 O11_12 1_555 1_555
Cu16_2 O12_12 1_555 1_555
Cu15_2 O13_12 1_555 1_555
O10_12 C173_12 1_555 1_555
O11_12 C173_12 1_555 1_555
O12_12 C174_12 1_555 1_555
O13_12 C174_12 1_555 1_555
C14_12 H8_12 1_555 1_555
C15_12 H9_12 1_555 1_555
C16_12 H10_12 1_555 1_555
C25_12 C14_12 1_555 1_555
C26_12 C14_12 1_555 1_555
C27_12 C15_12 1_555 1_555
C36_12 C25_12 1_555 1_555
C37_12 C26_12 1_555 1_555
C38_12 C27_12 1_555 1_555
C50_12 C36_12 1_555 1_555
C51_12 C37_12 1_555 1_555
C52_12 C37_12 1_555 1_555
C53_12 C36_12 1_555 1_555
C54_12 C38_12 1_555 1_555
C55_12 C38_12 1_555 1_555
H22_12 C50_12 1_555 1_555
H23_12 C51_12 1_555 1_555
H24_12 C52_12 1_555 1_555
H25_12 C53_12 1_555 1_555
H26_12 C54_12 1_555 1_555
H27_12 C55_12 1_555 1_555
C73_12 C50_12 1_555 1_555
C74_12 C51_12 1_555 1_555
C75_12 C52_12 1_555 1_555
C76_12 C53_12 1_555 1_555
C77_12 C54_12 1_555 1_555
C78_12 C55_12 1_555 1_555
H45_12 C73_12 1_555 1_555
H46_12 C74_12 1_555 1_555
H47_12 C75_12 1_555 1_555
H48_12 C76_12 1_555 1_555
H49_12 C77_12 1_555 1_555
H50_12 C78_12 1_555 1_555
C93_12 C73_12 1_555 1_555
C94_12 C74_12 1_555 1_555
C95_12 C77_12 1_555 1_555
C104_12 C93_12 1_555 1_555
C105_12 C94_12 1_555 1_555
C106_12 C95_12 1_555 1_555
C118_12 C104_12 1_555 1_555
C119_12 C105_12 1_555 1_555
C120_12 C105_12 1_555 1_555
C121_12 C104_12 1_555 1_555
C122_12 C106_12 1_555 1_555
C123_12 C106_12 1_555 1_555
H68_12 C118_12 1_555 1_555
H69_12 C119_12 1_555 1_555
H70_12 C120_12 1_555 1_555
H71_12 C121_12 1_555 1_555
H72_12 C122_12 1_555 1_555
H73_12 C123_12 1_555 1_555
C141_12 C118_12 1_555 1_555
C142_12 C119_12 1_555 1_555
C143_12 C120_12 1_555 1_555
C144_12 C121_12 1_555 1_555
C145_12 C122_12 1_555 1_555
C146_12 C123_12 1_555 1_555
H91_12 C141_12 1_555 1_555
H92_12 C142_12 1_555 1_555
H93_12 C143_12 1_555 1_555
H94_12 C144_12 1_555 1_555
H95_12 C145_12 1_555 1_555
H96_12 C146_12 1_555 1_555
C161_12 C141_12 1_555 1_555
C162_12 C142_12 1_555 1_555
C163_12 C145_12 1_555 1_555
C172_12 O26_2 1_555 1_555
C173_12 C162_12 1_555 1_555
C174_12 C163_12 1_555 1_555
O29_2 C172_12 1_555 1_555
C15_12 C26_12 1_555 1_555
C16_12 C25_12 1_555 1_555
C16_12 C27_12 1_555 1_555
C75_12 C94_12 1_555 1_555
C76_12 C93_12 1_555 1_555
C78_12 C95_12 1_555 1_555
C143_12 C162_12 1_555 1_555
C144_12 C161_12 1_555 1_555
C146_12 C163_12 1_555 1_555
C161_12 C172_12 1_555 1_555
O39_9 Cu10_2 1_555 1_555
O40_9 Cu9_2 1_555 1_555
O41_9 Cu8_2 1_555 1_555
O42_9 Cu7_2 1_555 1_555
O39_10 Cu10 1_555 1_555
O40_10 Cu9 1_555 1_555
O41_10 Cu16_2 1_555 1_555
O42_10 Cu15_2 1_555 1_555
O39_11 Cu18_2 1_555 1_555
O40_11 Cu17_2 1_555 1_555
O41_11 Cu8 1_555 1_555
O42_11 Cu7 1_555 1_555
O39_12 Cu18 1_555 1_555
O40_12 Cu17 1_555 1_555
O41_12 Cu16 1_555 1_555
O42_12 Cu15 1_555 1_555
O2_9 Cu10_4 1_555 1_555
O38_9 Cu9_4 1_555 1_555
O2_10 Cu18_4 1_555 1_555
O38_10 Cu17_4 1_555 1_555
O2_11 Cu18_3 1_555 1_555
O38_11 Cu17_3 1_555 1_555
O2_12 Cu10_3 1_555 1_555
O38_12 Cu9_3 1_555 1_555

#END
