
###############################################################################
#
# This file contains modified crystal structure data generated from the
# MOF subset of the Cambridge Structural Database (CSD) v543 
# hosted by the Cambridge Crystallographic Data Centre (CCDC).
#
# This work is licensed under the Creative Commons
# Attribution-NonCommercial-ShareAlike 4.0 International License.
# To view a copy of this license, visit
# http://creativecommons.org/licenses/by-nc-sa/4.0/
# or send a letter to
# Creative Commons, PO Box 1866, Mountain View, CA 94042, USA.
#
# CIF created using the CSD Python API on 29 September 2022
# The structure has been converted into the P1 space group
# The structure has a 3D framework
# The original CSD entry BAZGEQ is in the tetragonal crystal system
# The framework has been calculated to contain at least 10.0% void space
# The void calculation uses a probe of radius 1.32A, grid spacing 0.4
# H atom positions have been added when not included in the experimental data
# Generated hydrogen atom positions removed from atoms on special positions
#
###############################################################################

data_BAZGEQ
_chemical_formula_moiety         '(C672 H512 Cu24 N48 O108)n'
_symmetry_cell_setting           triclinic
_symmetry_space_group_name_H-M   'P 1'
_symmetry_Int_Tables_number      1
_space_group_name_Hall           'P 1'
loop_
_symmetry_equiv_pos_site_id
_symmetry_equiv_pos_as_xyz
1 x,y,z
_cell_length_a                   39.707(3)
_cell_length_b                   39.707(3)
_cell_length_c                   38.342(5)
_cell_angle_alpha                90
_cell_angle_beta                 90
_cell_angle_gamma                90
_cell_volume                     60451.8
loop_
_atom_site_label
_atom_site_type_symbol
_atom_site_fract_x
_atom_site_fract_y
_atom_site_fract_z
Cu14 Cu 0.25000(4) 0.0275 0.18154(4)
O27 O 0.21561(18) 0.01915(17) 0.14533(16)
C136 C 0.1010(4) 0.0174(3) 0.0043(4)
H76 H 0.1181 0.0334 0.0035
C151 C 0.1399(5) 0.0210(5) 0.0689(4)
H85 H 0.1311 0.0409 0.0598
C154 C 0.1661(5) 0.0215(3) 0.0936(5)
H88 H 0.1753 0.0423 0.0997
Cu12 Cu 0.0275 0.25000(4) 0.68154(4)
O22 O 0.02411(17) 0.21555(17) 0.71803(14)
O26 O 0.02411(17) 0.28445(17) 0.71803(14)
O32 O 0.01915(17) 0.28439(18) 0.64533(16)
O33 O 0.01915(17) 0.21561(18) 0.64533(16)
O42 O 0.0858 0.25000(18) 0.67604(19)
N10 N 0.0241(3) 0.0190(3) 0.9306(3)
C46 C 0.0007(3) 0.0198(3) 0.9054(3)
C91 C 0.0004(7) 0.0473(4) 0.8799(4)
C103 C 0.0245(3) 0.0949(5) 0.8583(5)
H55 H 0.0411 0.1113 0.8593
C106 C 0.0253(4) 0.0689(6) 0.8796(5)
H58 H 0.0436 0.0659 0.8945
C121 C 0.0267(4) 0.1643(4) 0.7675(4)
H67 H 0.0462 0.1733 0.7578
C124 C 0.0279(4) 0.1386(4) 0.7922(4)
H70 H 0.0487 0.1301 0.7990
C133 C 0.0746(4) 0.0167(3) 0.9794(3)
H73 H 0.0745 0.0327 0.9616
Cu7 Cu 0.25000(3) 0.9604 0.18378(4)
Cu11 Cu 0.25000(3) 0.5396 0.18378(4)
Cu18 Cu 0.25000(4) 0.4725 0.18154(4)
O29 O 0.21561(18) 0.48085(17) 0.14533(16)
O34 O 0.2155(2) 0.96514(19) 0.1478(2)
O36 O 0.2155(2) 0.53486(19) 0.1478(2)
C138 C 0.1010(4) 0.4826(3) 0.0043(4)
H78 H 0.1181 0.4666 0.0035
C139 C 0.0994(4) 0.9925(5) 0.0302(4)
C141 C 0.0994(4) 0.5075(5) 0.0302(4)
C142 C 0.0733(4) 0.9682(3) 0.0304(3)
C144 C 0.0733(4) 0.5318(3) 0.0304(3)
H79 H 0.0736 0.9516 0.0476
H81 H 0.0736 0.5484 0.0476
C145 C 0.0475(3) 0.9678(3) 0.0065(3)
C147 C 0.0475(3) 0.5322(3) 0.0065(3)
H82 H 0.0304 0.9519 0.0075
H84 H 0.0304 0.5481 0.0075
C148 C 0.1277(4) 0.9898(6) 0.0585(4)
C150 C 0.1277(4) 0.5102(6) 0.0585(4)
C153 C 0.1399(5) 0.4790(5) 0.0689(4)
H87 H 0.1311 0.4591 0.0598
C156 C 0.1661(5) 0.4785(3) 0.0936(5)
H90 H 0.1753 0.4577 0.0997
C157 C 0.1789(3) 0.9930(6) 0.1095(3)
C159 C 0.1789(3) 0.5070(6) 0.1095(3)
C160 C 0.1655(4) 0.9636(5) 0.0979(4)
C162 C 0.1655(4) 0.5364(5) 0.0979(4)
H91 H 0.1745 0.9440 0.1076
H93 H 0.1745 0.5560 0.1076
C163 C 0.1394(4) 0.9588(4) 0.0729(4)
C165 C 0.1394(4) 0.5412(4) 0.0729(4)
H94 H 0.1309 0.9378 0.0666
H96 H 0.1309 0.5622 0.0666
C166 C 0.2036(3) 0.9927(4) 0.1363(3)
C168 C 0.2036(3) 0.5073(4) 0.1363(3)
N4 N 0.0006(3) 0.9672(2) 0.9521(3)
N6 N 0.0006(3) 0.5328(2) 0.9521(3)
N12 N 0.0241(3) 0.4810(3) 0.9306(3)
C48 C 0.0007(3) 0.4802(3) 0.9054(3)
C49 C 0.0230(3) 0.9925(4) 0.9528(3)
C51 C 0.0230(3) 0.5075(4) 0.9528(3)
C93 C 0.0004(7) 0.4527(4) 0.8799(4)
C105 C 0.0245(3) 0.4051(5) 0.8583(5)
H57 H 0.0411 0.3887 0.8593
C108 C 0.0253(4) 0.4311(6) 0.8796(5)
H60 H 0.0436 0.4341 0.8945
C123 C 0.0267(4) 0.3357(4) 0.7675(4)
H69 H 0.0462 0.3267 0.7578
C126 C 0.0279(4) 0.3614(4) 0.7922(4)
H72 H 0.0487 0.3699 0.7990
C130 C 0.0483(4) 0.9925(4) 0.9807(4)
C132 C 0.0483(4) 0.5075(4) 0.9807(4)
C135 C 0.0746(4) 0.4833(3) 0.9794(3)
H75 H 0.0745 0.4673 0.9616
O28 O 0.28439(18) 0.01915(17) 0.14533(16)
C137 C 0.3990(4) 0.0174(3) 0.0043(4)
H77 H 0.3819 0.0334 0.0035
C152 C 0.3601(5) 0.0210(5) 0.0689(4)
H86 H 0.3689 0.0409 0.0598
C155 C 0.3339(5) 0.0215(3) 0.0936(5)
H89 H 0.3247 0.0423 0.0997
Cu5 Cu 0.9604 0.25000(3) 0.68378(4)
Cu8 Cu 0.5396 0.25000(3) 0.68378(4)
Cu15 Cu 0.4725 0.25000(4) 0.68154(4)
O17 O 0.96647(16) 0.21596(17) 0.71951(15)
O18 O 0.53353(16) 0.21596(17) 0.71951(15)
O21 O 0.96647(16) 0.28404(17) 0.71951(15)
O23 O 0.47589(17) 0.21555(17) 0.71803(14)
O39 O 0.96514(19) 0.2845(2) 0.6478(2)
O40 O 0.96514(19) 0.2155(2) 0.6478(2)
O41 O 0.9023 0.2500(2) 0.6877(2)
N11 N 0.4759(3) 0.0190(3) 0.9306(3)
C47 C 0.4993(3) 0.0198(3) 0.9054(3)
C92 C 0.4996(7) 0.0473(4) 0.8799(4)
C94 C 0.9732(3) 0.0506(5) 0.8566(6)
C95 C 0.5268(3) 0.0506(5) 0.8566(6)
H49 H 0.9556 0.0352 0.8577
H50 H 0.5444 0.0352 0.8577
C97 C 0.9722(4) 0.0758(6) 0.8328(4)
C98 C 0.5278(4) 0.0758(6) 0.8328(4)
H52 H 0.9549 0.0780 0.8166
H53 H 0.5451 0.0780 0.8166
C100 C 0.9983(8) 0.0971(4) 0.8344(5)
C101 C 0.5017(8) 0.0971(4) 0.8344(5)
C104 C 0.4755(3) 0.0949(5) 0.8583(5)
H56 H 0.4589 0.1113 0.8593
C107 C 0.4747(4) 0.0689(6) 0.8796(5)
H59 H 0.4564 0.0659 0.8945
C109 C 0.9986(5) 0.1250(4) 0.8072(4)
C110 C 0.5014(5) 0.1250(4) 0.8072(4)
C112 C 0.9680(4) 0.1374(3) 0.7979(4)
C113 C 0.5320(4) 0.1374(3) 0.7979(4)
H61 H 0.9487 0.1290 0.8085
H62 H 0.5513 0.1290 0.8085
C115 C 0.9652(3) 0.1622(5) 0.7733(4)
C116 C 0.5348(3) 0.1622(5) 0.7733(4)
H64 H 0.9440 0.1697 0.7666
H65 H 0.5560 0.1697 0.7666
C118 C 0.9940(6) 0.1762(3) 0.7579(3)
C119 C 0.5060(6) 0.1762(3) 0.7579(3)
C122 C 0.4733(4) 0.1643(4) 0.7675(4)
H68 H 0.4538 0.1733 0.7578
C125 C 0.4721(4) 0.1386(4) 0.7922(4)
H71 H 0.4513 0.1301 0.7990
C127 C 0.9946(3) 0.2068(3) 0.7284(3)
C128 C 0.5054(3) 0.2068(3) 0.7284(3)
C134 C 0.4254(4) 0.0167(3) 0.9794(3)
H74 H 0.4255 0.0327 0.9616
O5 O 0.28439(18) 0.48085(17) 0.14533(16)
O6 O 0.2845(2) 0.53486(19) 0.1478(2)
O7 O 0.7500 0.7500 0.0161(3)
C32 C 0.3990(4) 0.4826(3) 0.0043(4)
H18 H 0.3819 0.4666 0.0035
C33 C 0.4006(4) 0.5075(5) 0.0302(4)
C34 C 0.4267(4) 0.5318(3) 0.0304(3)
H19 H 0.4264 0.5484 0.0476
C35 C 0.4525(3) 0.5322(3) 0.0065(3)
H20 H 0.4696 0.5481 0.0075
C36 C 0.3723(4) 0.5102(6) 0.0585(4)
C37 C 0.3601(5) 0.4790(5) 0.0689(4)
H21 H 0.3689 0.4591 0.0598
C38 C 0.3339(5) 0.4785(3) 0.0936(5)
H22 H 0.3247 0.4577 0.0997
C39 C 0.3211(3) 0.5070(6) 0.1095(3)
C40 C 0.3345(4) 0.5364(5) 0.0979(4)
H23 H 0.3255 0.5560 0.1076
C41 C 0.3606(4) 0.5412(4) 0.0729(4)
H24 H 0.3691 0.5622 0.0666
C42 C 0.2964(3) 0.5073(4) 0.1363(3)
O35 O 0.2845(2) 0.96514(19) 0.1478(2)
C140 C 0.4006(4) 0.9925(5) 0.0302(4)
C143 C 0.4267(4) 0.9682(3) 0.0304(3)
H80 H 0.4264 0.9516 0.0476
C146 C 0.4525(3) 0.9678(3) 0.0065(3)
H83 H 0.4696 0.9519 0.0075
C149 C 0.3723(4) 0.9898(6) 0.0585(4)
C158 C 0.3211(3) 0.9930(6) 0.1095(3)
C161 C 0.3345(4) 0.9636(5) 0.0979(4)
H92 H 0.3255 0.9440 0.1076
C164 C 0.3606(4) 0.9588(4) 0.0729(4)
H95 H 0.3691 0.9378 0.0666
C167 C 0.2964(3) 0.9927(4) 0.1363(3)
Cu1 Cu 0.7500 0.7500 0.95322(5)
Cu2 Cu 0.7500 0.7500 0.88371(5)
O1 O 0.7158(2) 0.7151(2) 0.94823(17)
O2 O 0.71521(16) 0.71529(16) 0.89093(16)
O3 O 0.53353(16) 0.28404(17) 0.71951(15)
O4 O 0.47589(17) 0.28445(17) 0.71803(14)
O8 O 0.7500 0.7500 0.8239(3)
O9 O 0.5977 0.2500(2) 0.6877(2)
O10 O 0.4142 0.25000(18) 0.67604(19)
N1 N 0.4994(3) 0.5328(2) 0.9521(3)
N2 N 0.5229(3) 0.5048(3) 0.9027(2)
N3 N 0.4759(3) 0.4810(3) 0.9306(3)
C1 C 0.5218(3) 0.5304(3) 0.9258(4)
C2 C 0.4993(3) 0.4802(3) 0.9054(3)
C3 C 0.4770(3) 0.5075(4) 0.9528(3)
C4 C 0.5473(4) 0.5575(4) 0.9246(7)
C5 C 0.5508(5) 0.5784(6) 0.9529(4)
H1 H 0.5366 0.5764 0.9721
C6 C 0.5758(5) 0.6024(5) 0.9519(5)
H2 H 0.5803 0.6154 0.9715
C7 C 0.5939(4) 0.6069(4) 0.9219(7)
C8 C 0.5911(4) 0.5848(6) 0.8934(4)
H3 H 0.6054 0.5864 0.8742
C9 C 0.5667(5) 0.5610(4) 0.8947(4)
H4 H 0.5629 0.5471 0.8757
C10 C 0.6225(5) 0.6321(4) 0.9235(4)
C11 C 0.6419(4) 0.6433(4) 0.9532(4)
H5 H 0.6370 0.6343 0.9751
C12 C 0.6684(4) 0.6675(4) 0.9503(5)
H6 H 0.6800 0.6747 0.9701
C13 C 0.6765(3) 0.6802(3) 0.9180(5)
C14 C 0.6585(5) 0.6686(5) 0.8895(3)
H7 H 0.6637 0.6768 0.8674
C15 C 0.6324(4) 0.6446(4) 0.8928(5)
H8 H 0.6217 0.6371 0.8727
C16 C 0.7059(3) 0.7049(3) 0.9212(3)
C17 C 0.4996(7) 0.4527(4) 0.8799(4)
C18 C 0.5268(3) 0.4494(5) 0.8566(6)
H9 H 0.5444 0.4648 0.8577
C19 C 0.5278(4) 0.4242(6) 0.8328(4)
H10 H 0.5451 0.4220 0.8166
C20 C 0.5017(8) 0.4029(4) 0.8344(5)
C21 C 0.4755(3) 0.4051(5) 0.8583(5)
H11 H 0.4589 0.3887 0.8593
C22 C 0.4747(4) 0.4311(6) 0.8796(5)
H12 H 0.4564 0.4341 0.8945
C23 C 0.5014(5) 0.3750(4) 0.8072(4)
C24 C 0.5320(4) 0.3626(3) 0.7979(4)
H13 H 0.5513 0.3710 0.8085
C25 C 0.5348(3) 0.3378(5) 0.7733(4)
H14 H 0.5560 0.3303 0.7666
C26 C 0.5060(6) 0.3238(3) 0.7579(3)
C27 C 0.4733(4) 0.3357(4) 0.7675(4)
H15 H 0.4538 0.3267 0.7578
C28 C 0.4721(4) 0.3614(4) 0.7922(4)
H16 H 0.4513 0.3699 0.7990
C29 C 0.5054(3) 0.2932(3) 0.7284(3)
C30 C 0.4517(4) 0.5075(4) 0.9807(4)
C31 C 0.4254(4) 0.4833(3) 0.9794(3)
H17 H 0.4255 0.4673 0.9616
O11 O 0.7842(2) 0.7849(2) 0.94823(17)
O12 O 0.7158(2) 0.7849(2) 0.94823(17)
O13 O 0.7842(2) 0.7151(2) 0.94823(17)
O14 O 0.78479(16) 0.78471(16) 0.89093(16)
O15 O 0.71521(16) 0.78471(16) 0.89093(16)
O16 O 0.78479(16) 0.71529(16) 0.89093(16)
O30 O 0.48085(17) 0.21561(18) 0.64533(16)
O31 O 0.48085(17) 0.28439(18) 0.64533(16)
O37 O 0.53486(19) 0.2155(2) 0.6478(2)
O38 O 0.53486(19) 0.2845(2) 0.6478(2)
N5 N 0.4994(3) 0.9672(2) 0.9521(3)
N7 N 0.9771(3) 0.9952(3) 0.9027(2)
N8 N 0.5229(3) 0.9952(3) 0.9027(2)
N9 N 0.9771(3) 0.5048(3) 0.9027(2)
C43 C 0.9782(3) 0.9696(3) 0.9258(4)
C44 C 0.5218(3) 0.9696(3) 0.9258(4)
C45 C 0.9782(3) 0.5304(3) 0.9258(4)
C50 C 0.4770(3) 0.9925(4) 0.9528(3)
C52 C 0.9527(4) 0.9425(4) 0.9246(7)
C53 C 0.5473(4) 0.9425(4) 0.9246(7)
C54 C 0.9527(4) 0.5575(4) 0.9246(7)
C55 C 0.9492(5) 0.9216(6) 0.9529(4)
C56 C 0.5508(5) 0.9216(6) 0.9529(4)
C57 C 0.9492(5) 0.5784(6) 0.9529(4)
H25 H 0.9634 0.9236 0.9721
H26 H 0.5366 0.9236 0.9721
H27 H 0.9634 0.5764 0.9721
C58 C 0.9242(5) 0.8976(5) 0.9519(5)
C59 C 0.5758(5) 0.8976(5) 0.9519(5)
C60 C 0.9242(5) 0.6024(5) 0.9519(5)
H28 H 0.9197 0.8846 0.9715
H29 H 0.5803 0.8846 0.9715
H30 H 0.9197 0.6154 0.9715
C61 C 0.9061(4) 0.8931(4) 0.9219(7)
C62 C 0.5939(4) 0.8931(4) 0.9219(7)
C63 C 0.9061(4) 0.6069(4) 0.9219(7)
C64 C 0.9089(4) 0.9152(6) 0.8934(4)
C65 C 0.5911(4) 0.9152(6) 0.8934(4)
C66 C 0.9089(4) 0.5848(6) 0.8934(4)
H31 H 0.8946 0.9136 0.8742
H32 H 0.6054 0.9136 0.8742
H33 H 0.8946 0.5864 0.8742
C67 C 0.9333(5) 0.9390(4) 0.8947(4)
C68 C 0.5667(5) 0.9390(4) 0.8947(4)
C69 C 0.9333(5) 0.5610(4) 0.8947(4)
H34 H 0.9371 0.9529 0.8757
H35 H 0.5629 0.9529 0.8757
H36 H 0.9371 0.5471 0.8757
C70 C 0.8775(5) 0.8679(4) 0.9235(4)
C71 C 0.6225(5) 0.8679(4) 0.9235(4)
C72 C 0.8775(5) 0.6321(4) 0.9235(4)
C73 C 0.8581(4) 0.8567(4) 0.9532(4)
C74 C 0.6419(4) 0.8567(4) 0.9532(4)
C75 C 0.8581(4) 0.6433(4) 0.9532(4)
H37 H 0.8630 0.8657 0.9751
H38 H 0.6370 0.8657 0.9751
H39 H 0.8630 0.6343 0.9751
C76 C 0.8316(4) 0.8325(4) 0.9503(5)
C77 C 0.6684(4) 0.8325(4) 0.9503(5)
C78 C 0.8316(4) 0.6675(4) 0.9503(5)
H40 H 0.8200 0.8253 0.9701
H41 H 0.6800 0.8253 0.9701
H42 H 0.8200 0.6747 0.9701
C79 C 0.8235(3) 0.8198(3) 0.9180(5)
C80 C 0.6765(3) 0.8198(3) 0.9180(5)
C81 C 0.8235(3) 0.6802(3) 0.9180(5)
C82 C 0.8415(5) 0.8314(5) 0.8895(3)
C83 C 0.6585(5) 0.8314(5) 0.8895(3)
C84 C 0.8415(5) 0.6686(5) 0.8895(3)
H43 H 0.8363 0.8232 0.8674
H44 H 0.6637 0.8232 0.8674
H45 H 0.8363 0.6768 0.8674
C85 C 0.8676(4) 0.8554(4) 0.8928(5)
C86 C 0.6324(4) 0.8554(4) 0.8928(5)
C87 C 0.8676(4) 0.6446(4) 0.8928(5)
H46 H 0.8783 0.8629 0.8727
H47 H 0.6217 0.8629 0.8727
H48 H 0.8783 0.6371 0.8727
C88 C 0.7941(3) 0.7951(3) 0.9212(3)
C89 C 0.7059(3) 0.7951(3) 0.9212(3)
C90 C 0.7941(3) 0.7049(3) 0.9212(3)
C96 C 0.9732(3) 0.4494(5) 0.8566(6)
H51 H 0.9556 0.4648 0.8577
C99 C 0.9722(4) 0.4242(6) 0.8328(4)
H54 H 0.9549 0.4220 0.8166
C102 C 0.9983(8) 0.4029(4) 0.8344(5)
C111 C 0.9986(5) 0.3750(4) 0.8072(4)
C114 C 0.9680(4) 0.3626(3) 0.7979(4)
H63 H 0.9487 0.3710 0.8085
C117 C 0.9652(3) 0.3378(5) 0.7733(4)
H66 H 0.9440 0.3303 0.7666
C120 C 0.9940(6) 0.3238(3) 0.7579(3)
C129 C 0.9946(3) 0.2932(3) 0.7284(3)
C131 C 0.4517(4) 0.9925(4) 0.9807(4)
O24 O 0.21555(17) 0.02411(17) 0.21803(14)
N12_2 N 0.0190(3) 0.0241(3) 0.4306(3)
C48_2 C 0.0198(3) 0.0007(3) 0.4054(3)
C93_2 C 0.0473(4) 0.0004(7) 0.3799(4)
C105_2 C 0.0949(5) 0.0245(3) 0.3583(5)
H57_2 H 0.1113 0.0411 0.3593
C108_2 C 0.0689(6) 0.0253(4) 0.3796(5)
H60_2 H 0.0659 0.0436 0.3945
C123_2 C 0.1643(4) 0.0267(4) 0.2675(4)
H69_2 H 0.1733 0.0462 0.2578
C126_2 C 0.1386(4) 0.0279(4) 0.2922(4)
H72_2 H 0.1301 0.0487 0.2990
C135_2 C 0.0167(3) 0.0746(4) 0.4794(3)
H75_2 H 0.0327 0.0745 0.4616
C138_2 C 0.0174(3) 0.1010(4) 0.5043(4)
H78_2 H 0.0334 0.1181 0.5035
C153_2 C 0.0210(5) 0.1399(5) 0.5689(4)
H87_2 H 0.0409 0.1311 0.5598
C156_2 C 0.0215(3) 0.1661(5) 0.5936(5)
H90_2 H 0.0423 0.1753 0.5997
O3_2 O 0.21596(17) 0.53353(16) 0.21951(15)
O4_2 O 0.21555(17) 0.47589(17) 0.21803(14)
O9_2 O 0.2500(2) 0.5977 0.1877(2)
O10_2 O 0.25000(18) 0.4142 0.17604(19)
N3_2 N 0.0190(3) 0.4759(3) 0.4306(3)
C2_2 C 0.0198(3) 0.4993(3) 0.4054(3)
C17_2 C 0.0473(4) 0.4996(7) 0.3799(4)
C18_2 C 0.0506(5) 0.5268(3) 0.3566(6)
H9_2 H 0.0352 0.5444 0.3577
C19_2 C 0.0758(6) 0.5278(4) 0.3328(4)
H10_2 H 0.0780 0.5451 0.3166
C20_2 C 0.0971(4) 0.5017(8) 0.3344(5)
C21_2 C 0.0949(5) 0.4755(3) 0.3583(5)
H11_2 H 0.1113 0.4589 0.3593
C22_2 C 0.0689(6) 0.4747(4) 0.3796(5)
H12_2 H 0.0659 0.4564 0.3945
C23_2 C 0.1250(4) 0.5014(5) 0.3072(4)
C24_2 C 0.1374(3) 0.5320(4) 0.2979(4)
H13_2 H 0.1290 0.5513 0.3085
C25_2 C 0.1622(5) 0.5348(3) 0.2733(4)
H14_2 H 0.1697 0.5560 0.2666
C26_2 C 0.1762(3) 0.5060(6) 0.2579(3)
C27_2 C 0.1643(4) 0.4733(4) 0.2675(4)
H15_2 H 0.1733 0.4538 0.2578
C28_2 C 0.1386(4) 0.4721(4) 0.2922(4)
H16_2 H 0.1301 0.4513 0.2990
C29_2 C 0.2068(3) 0.5054(3) 0.2284(3)
C31_2 C 0.0167(3) 0.4254(4) 0.4794(3)
H17_2 H 0.0327 0.4255 0.4616
C32_2 C 0.0174(3) 0.3990(4) 0.5043(4)
H18_2 H 0.0334 0.3819 0.5035
C37_2 C 0.0210(5) 0.3601(5) 0.5689(4)
H21_2 H 0.0409 0.3689 0.5598
C38_2 C 0.0215(3) 0.3339(5) 0.5936(5)
H22_2 H 0.0423 0.3247 0.5997
O19 O 0.21596(17) 0.96647(16) 0.21951(15)
O20 O 0.28404(17) 0.53353(16) 0.21951(15)
O25 O 0.28445(17) 0.47589(17) 0.21803(14)
C96_2 C 0.0506(5) 0.9732(3) 0.3566(6)
H51_2 H 0.0352 0.9556 0.3577
C99_2 C 0.0758(6) 0.9722(4) 0.3328(4)
H54_2 H 0.0780 0.9549 0.3166
C102_2 C 0.0971(4) 0.9983(8) 0.3344(5)
C111_2 C 0.1250(4) 0.9986(5) 0.3072(4)
C114_2 C 0.1374(3) 0.9680(4) 0.2979(4)
H63_2 H 0.1290 0.9487 0.3085
C117_2 C 0.1622(5) 0.9652(3) 0.2733(4)
H66_2 H 0.1697 0.9440 0.2666
C120_2 C 0.1762(3) 0.9940(6) 0.2579(3)
C129_2 C 0.2068(3) 0.9946(3) 0.2284(3)
O22_2 O 0.28445(17) 0.02411(17) 0.21803(14)
O42_2 O 0.25000(18) 0.0858 0.17604(19)
N4_2 N 0.5328(2) 0.0006(3) 0.4521(3)
N6_2 N 0.9672(2) 0.0006(3) 0.4521(3)
N10_2 N 0.4810(3) 0.0241(3) 0.4306(3)
C46_2 C 0.4802(3) 0.0007(3) 0.4054(3)
C49_2 C 0.5075(4) 0.0230(3) 0.4528(3)
C51_2 C 0.9925(4) 0.0230(3) 0.4528(3)
C91_2 C 0.4527(4) 0.0004(7) 0.3799(4)
C103_2 C 0.4051(5) 0.0245(3) 0.3583(5)
H55_2 H 0.3887 0.0411 0.3593
C106_2 C 0.4311(6) 0.0253(4) 0.3796(5)
H58_2 H 0.4341 0.0436 0.3945
C121_2 C 0.3357(4) 0.0267(4) 0.2675(4)
H67_2 H 0.3267 0.0462 0.2578
C124_2 C 0.3614(4) 0.0279(4) 0.2922(4)
H70_2 H 0.3699 0.0487 0.2990
C130_2 C 0.5075(4) 0.0483(4) 0.4807(4)
C132_2 C 0.9925(4) 0.0483(4) 0.4807(4)
C133_2 C 0.4833(3) 0.0746(4) 0.4794(3)
H73_2 H 0.4673 0.0745 0.4616
C136_2 C 0.4826(3) 0.1010(4) 0.5043(4)
H76_2 H 0.4666 0.1181 0.5035
C139_2 C 0.5075(5) 0.0994(4) 0.5302(4)
C141_2 C 0.9925(5) 0.0994(4) 0.5302(4)
C142_2 C 0.5318(3) 0.0733(4) 0.5304(3)
C144_2 C 0.9682(3) 0.0733(4) 0.5304(3)
H79_2 H 0.5484 0.0736 0.5476
H81_2 H 0.9516 0.0736 0.5476
C145_2 C 0.5322(3) 0.0475(3) 0.5065(3)
C147_2 C 0.9678(3) 0.0475(3) 0.5065(3)
H82_2 H 0.5481 0.0304 0.5075
H84_2 H 0.9519 0.0304 0.5075
C148_2 C 0.5102(6) 0.1277(4) 0.5585(4)
C150_2 C 0.9898(6) 0.1277(4) 0.5585(4)
C151_2 C 0.4790(5) 0.1399(5) 0.5689(4)
H85_2 H 0.4591 0.1311 0.5598
C154_2 C 0.4785(3) 0.1661(5) 0.5936(5)
H88_2 H 0.4577 0.1753 0.5997
C157_2 C 0.5070(6) 0.1789(3) 0.6095(3)
C159_2 C 0.9930(6) 0.1789(3) 0.6095(3)
C160_2 C 0.5364(5) 0.1655(4) 0.5979(4)
C162_2 C 0.9636(5) 0.1655(4) 0.5979(4)
H91_2 H 0.5560 0.1745 0.6076
H93_2 H 0.9440 0.1745 0.6076
C163_2 C 0.5412(4) 0.1394(4) 0.5729(4)
C165_2 C 0.9588(4) 0.1394(4) 0.5729(4)
H94_2 H 0.5622 0.1309 0.5666
H96_2 H 0.9378 0.1309 0.5666
C166_2 C 0.5073(4) 0.2036(3) 0.6363(3)
C168_2 C 0.9927(4) 0.2036(3) 0.6363(3)
Cu1_2 Cu 0.7500 0.7500 0.45322(5)
Cu2_2 Cu 0.7500 0.7500 0.38371(5)
O1_2 O 0.7849(2) 0.7158(2) 0.44823(17)
O2_2 O 0.78471(16) 0.71521(16) 0.39093(16)
O7_2 O 0.7500 0.7500 0.5161(3)
O8_2 O 0.7500 0.7500 0.3239(3)
N1_2 N 0.9672(2) 0.4994(3) 0.4521(3)
N2_2 N 0.9952(3) 0.5229(3) 0.4027(2)
C1_2 C 0.9696(3) 0.5218(3) 0.4258(4)
C3_2 C 0.9925(4) 0.4770(3) 0.4528(3)
C4_2 C 0.9425(4) 0.5473(4) 0.4246(7)
C5_2 C 0.9216(6) 0.5508(5) 0.4529(4)
H1_2 H 0.9236 0.5366 0.4721
C6_2 C 0.8976(5) 0.5758(5) 0.4519(5)
H2_2 H 0.8846 0.5803 0.4715
C7_2 C 0.8931(4) 0.5939(4) 0.4219(7)
C8_2 C 0.9152(6) 0.5911(4) 0.3934(4)
H3_2 H 0.9136 0.6054 0.3742
C9_2 C 0.9390(4) 0.5667(5) 0.3947(4)
H4_2 H 0.9529 0.5629 0.3757
C10_2 C 0.8679(4) 0.6225(5) 0.4235(4)
C11_2 C 0.8567(4) 0.6419(4) 0.4532(4)
H5_2 H 0.8657 0.6370 0.4751
C12_2 C 0.8325(4) 0.6684(4) 0.4503(5)
H6_2 H 0.8253 0.6800 0.4701
C13_2 C 0.8198(3) 0.6765(3) 0.4180(5)
C14_2 C 0.8314(5) 0.6585(5) 0.3895(3)
H7_2 H 0.8232 0.6637 0.3674
C15_2 C 0.8554(4) 0.6324(4) 0.3928(5)
H8_2 H 0.8629 0.6217 0.3727
C16_2 C 0.7951(3) 0.7059(3) 0.4212(3)
C30_2 C 0.9925(4) 0.4517(4) 0.4807(4)
C33_2 C 0.9925(5) 0.4006(4) 0.5302(4)
C34_2 C 0.9682(3) 0.4267(4) 0.5304(3)
H19_2 H 0.9516 0.4264 0.5476
C35_2 C 0.9678(3) 0.4525(3) 0.5065(3)
H20_2 H 0.9519 0.4696 0.5075
C36_2 C 0.9898(6) 0.3723(4) 0.5585(4)
C39_2 C 0.9930(6) 0.3211(3) 0.6095(3)
C40_2 C 0.9636(5) 0.3345(4) 0.5979(4)
H23_2 H 0.9440 0.3255 0.6076
C41_2 C 0.9588(4) 0.3606(4) 0.5729(4)
H24_2 H 0.9378 0.3691 0.5666
C42_2 C 0.9927(4) 0.2964(3) 0.6363(3)
O11_2 O 0.7151(2) 0.7842(2) 0.44823(17)
O12_2 O 0.7151(2) 0.7158(2) 0.44823(17)
O13_2 O 0.7849(2) 0.7842(2) 0.44823(17)
O14_2 O 0.71529(16) 0.78479(16) 0.39093(16)
O15_2 O 0.71529(16) 0.71521(16) 0.39093(16)
O16_2 O 0.78471(16) 0.78479(16) 0.39093(16)
O17_2 O 0.28404(17) 0.96647(16) 0.21951(15)
O41_2 O 0.2500(2) 0.9023 0.1877(2)
N5_2 N 0.5328(2) 0.4994(3) 0.4521(3)
N7_2 N 0.5048(3) 0.9771(3) 0.4027(2)
N8_2 N 0.5048(3) 0.5229(3) 0.4027(2)
N9_2 N 0.9952(3) 0.9771(3) 0.4027(2)
N11_2 N 0.4810(3) 0.4759(3) 0.4306(3)
C43_2 C 0.5304(3) 0.9782(3) 0.4258(4)
C44_2 C 0.5304(3) 0.5218(3) 0.4258(4)
C45_2 C 0.9696(3) 0.9782(3) 0.4258(4)
C47_2 C 0.4802(3) 0.4993(3) 0.4054(3)
C50_2 C 0.5075(4) 0.4770(3) 0.4528(3)
C52_2 C 0.5575(4) 0.9527(4) 0.4246(7)
C53_2 C 0.5575(4) 0.5473(4) 0.4246(7)
C54_2 C 0.9425(4) 0.9527(4) 0.4246(7)
C55_2 C 0.5784(6) 0.9492(5) 0.4529(4)
C56_2 C 0.5784(6) 0.5508(5) 0.4529(4)
C57_2 C 0.9216(6) 0.9492(5) 0.4529(4)
H25_2 H 0.5764 0.9634 0.4721
H26_2 H 0.5764 0.5366 0.4721
H27_2 H 0.9236 0.9634 0.4721
C58_2 C 0.6024(5) 0.9242(5) 0.4519(5)
C59_2 C 0.6024(5) 0.5758(5) 0.4519(5)
C60_2 C 0.8976(5) 0.9242(5) 0.4519(5)
H28_2 H 0.6154 0.9197 0.4715
H29_2 H 0.6154 0.5803 0.4715
H30_2 H 0.8846 0.9197 0.4715
C61_2 C 0.6069(4) 0.9061(4) 0.4219(7)
C62_2 C 0.6069(4) 0.5939(4) 0.4219(7)
C63_2 C 0.8931(4) 0.9061(4) 0.4219(7)
C64_2 C 0.5848(6) 0.9089(4) 0.3934(4)
C65_2 C 0.5848(6) 0.5911(4) 0.3934(4)
C66_2 C 0.9152(6) 0.9089(4) 0.3934(4)
H31_2 H 0.5864 0.8946 0.3742
H32_2 H 0.5864 0.6054 0.3742
H33_2 H 0.9136 0.8946 0.3742
C67_2 C 0.5610(4) 0.9333(5) 0.3947(4)
C68_2 C 0.5610(4) 0.5667(5) 0.3947(4)
C69_2 C 0.9390(4) 0.9333(5) 0.3947(4)
H34_2 H 0.5471 0.9371 0.3757
H35_2 H 0.5471 0.5629 0.3757
H36_2 H 0.9529 0.9371 0.3757
C70_2 C 0.6321(4) 0.8775(5) 0.4235(4)
C71_2 C 0.6321(4) 0.6225(5) 0.4235(4)
C72_2 C 0.8679(4) 0.8775(5) 0.4235(4)
C73_2 C 0.6433(4) 0.8581(4) 0.4532(4)
C74_2 C 0.6433(4) 0.6419(4) 0.4532(4)
C75_2 C 0.8567(4) 0.8581(4) 0.4532(4)
H37_2 H 0.6343 0.8630 0.4751
H38_2 H 0.6343 0.6370 0.4751
H39_2 H 0.8657 0.8630 0.4751
C76_2 C 0.6675(4) 0.8316(4) 0.4503(5)
C77_2 C 0.6675(4) 0.6684(4) 0.4503(5)
C78_2 C 0.8325(4) 0.8316(4) 0.4503(5)
H40_2 H 0.6747 0.8200 0.4701
H41_2 H 0.6747 0.6800 0.4701
H42_2 H 0.8253 0.8200 0.4701
C79_2 C 0.6802(3) 0.8235(3) 0.4180(5)
C80_2 C 0.6802(3) 0.6765(3) 0.4180(5)
C81_2 C 0.8198(3) 0.8235(3) 0.4180(5)
C82_2 C 0.6686(5) 0.8415(5) 0.3895(3)
C83_2 C 0.6686(5) 0.6585(5) 0.3895(3)
C84_2 C 0.8314(5) 0.8415(5) 0.3895(3)
H43_2 H 0.6768 0.8363 0.3674
H44_2 H 0.6768 0.6637 0.3674
H45_2 H 0.8232 0.8363 0.3674
C85_2 C 0.6446(4) 0.8676(4) 0.3928(5)
C86_2 C 0.6446(4) 0.6324(4) 0.3928(5)
C87_2 C 0.8554(4) 0.8676(4) 0.3928(5)
H46_2 H 0.6371 0.8783 0.3727
H47_2 H 0.6371 0.6217 0.3727
H48_2 H 0.8629 0.8783 0.3727
C88_2 C 0.7049(3) 0.7941(3) 0.4212(3)
C89_2 C 0.7049(3) 0.7059(3) 0.4212(3)
C90_2 C 0.7951(3) 0.7941(3) 0.4212(3)
C92_2 C 0.4527(4) 0.4996(7) 0.3799(4)
C94_2 C 0.4494(5) 0.9732(3) 0.3566(6)
C95_2 C 0.4494(5) 0.5268(3) 0.3566(6)
H49_2 H 0.4648 0.9556 0.3577
H50_2 H 0.4648 0.5444 0.3577
C97_2 C 0.4242(6) 0.9722(4) 0.3328(4)
C98_2 C 0.4242(6) 0.5278(4) 0.3328(4)
H52_2 H 0.4220 0.9549 0.3166
H53_2 H 0.4220 0.5451 0.3166
C100_2 C 0.4029(4) 0.9983(8) 0.3344(5)
C101_2 C 0.4029(4) 0.5017(8) 0.3344(5)
C104_2 C 0.4051(5) 0.4755(3) 0.3583(5)
H56_2 H 0.3887 0.4589 0.3593
C107_2 C 0.4311(6) 0.4747(4) 0.3796(5)
H59_2 H 0.4341 0.4564 0.3945
C109_2 C 0.3750(4) 0.9986(5) 0.3072(4)
C110_2 C 0.3750(4) 0.5014(5) 0.3072(4)
C112_2 C 0.3626(3) 0.9680(4) 0.2979(4)
C113_2 C 0.3626(3) 0.5320(4) 0.2979(4)
H61_2 H 0.3710 0.9487 0.3085
H62_2 H 0.3710 0.5513 0.3085
C115_2 C 0.3378(5) 0.9652(3) 0.2733(4)
C116_2 C 0.3378(5) 0.5348(3) 0.2733(4)
H64_2 H 0.3303 0.9440 0.2666
H65_2 H 0.3303 0.5560 0.2666
C118_2 C 0.3238(3) 0.9940(6) 0.2579(3)
C119_2 C 0.3238(3) 0.5060(6) 0.2579(3)
C122_2 C 0.3357(4) 0.4733(4) 0.2675(4)
H68_2 H 0.3267 0.4538 0.2578
C125_2 C 0.3614(4) 0.4721(4) 0.2922(4)
H71_2 H 0.3699 0.4513 0.2990
C127_2 C 0.2932(3) 0.9946(3) 0.2284(3)
C128_2 C 0.2932(3) 0.5054(3) 0.2284(3)
C131_2 C 0.5075(4) 0.4517(4) 0.4807(4)
C134_2 C 0.4833(3) 0.4254(4) 0.4794(3)
H74_2 H 0.4673 0.4255 0.4616
C137_2 C 0.4826(3) 0.3990(4) 0.5043(4)
H77_2 H 0.4666 0.3819 0.5035
C140_2 C 0.5075(5) 0.4006(4) 0.5302(4)
C143_2 C 0.5318(3) 0.4267(4) 0.5304(3)
H80_2 H 0.5484 0.4264 0.5476
C146_2 C 0.5322(3) 0.4525(3) 0.5065(3)
H83_2 H 0.5481 0.4696 0.5075
C149_2 C 0.5102(6) 0.3723(4) 0.5585(4)
C152_2 C 0.4790(5) 0.3601(5) 0.5689(4)
H86_2 H 0.4591 0.3689 0.5598
C155_2 C 0.4785(3) 0.3339(5) 0.5936(5)
H89_2 H 0.4577 0.3247 0.5997
C158_2 C 0.5070(6) 0.3211(3) 0.6095(3)
C161_2 C 0.5364(5) 0.3345(4) 0.5979(4)
H92_2 H 0.5560 0.3255 0.6076
C164_2 C 0.5412(4) 0.3606(4) 0.5729(4)
H95_2 H 0.5622 0.3691 0.5666
C167_2 C 0.5073(4) 0.2964(3) 0.6363(3)
Cu1_3 Cu 0.2500 0.2500 0.04678(5)
Cu2_3 Cu 0.2500 0.2500 0.11629(5)
O1_3 O 0.2842(2) 0.2151(2) 0.05177(17)
O2_3 O 0.28479(16) 0.21529(16) 0.10907(16)
O8_3 O 0.2500 0.2500 0.1761(3)
N1_3 N 0.5006(3) 0.0328(2) 0.0479(3)
N2_3 N 0.4771(3) 0.0048(3) 0.0973(2)
C1_3 C 0.4782(3) 0.0304(3) 0.0742(4)
C3_3 C 0.5230(3) 0.0075(4) 0.0472(3)
C4_3 C 0.4527(4) 0.0575(4) 0.0754(7)
C5_3 C 0.4492(5) 0.0784(6) 0.0471(4)
H1_3 H 0.4634 0.0764 0.0279
C6_3 C 0.4242(5) 0.1024(5) 0.0481(5)
H2_3 H 0.4197 0.1154 0.0285
C7_3 C 0.4061(4) 0.1069(4) 0.0781(7)
C8_3 C 0.4089(4) 0.0848(6) 0.1066(4)
H3_3 H 0.3946 0.0864 0.1258
C9_3 C 0.4333(5) 0.0610(4) 0.1053(4)
H4_3 H 0.4371 0.0471 0.1243
C10_3 C 0.3775(5) 0.1321(4) 0.0765(4)
C11_3 C 0.3581(4) 0.1433(4) 0.0468(4)
H5_3 H 0.3630 0.1343 0.0249
C12_3 C 0.3316(4) 0.1675(4) 0.0497(5)
H6_3 H 0.3200 0.1747 0.0299
C13_3 C 0.3235(3) 0.1802(3) 0.0820(5)
C14_3 C 0.3415(5) 0.1686(5) 0.1105(3)
H7_3 H 0.3363 0.1768 0.1326
C15_3 C 0.3676(4) 0.1446(4) 0.1072(5)
H8_3 H 0.3783 0.1371 0.1273
C16_3 C 0.2941(3) 0.2049(3) 0.0788(3)
C30_3 C 0.5483(4) 0.0075(4) 0.0193(4)
Cu5_2 Cu 0.0396 0.75000(3) 0.31622(4)
Cu8_2 Cu 0.4604 0.75000(3) 0.31622(4)
Cu15_2 Cu 0.5275 0.75000(4) 0.31846(4)
O11_3 O 0.2158(2) 0.2849(2) 0.05177(17)
O12_3 O 0.2842(2) 0.2849(2) 0.05177(17)
O13_3 O 0.2158(2) 0.2151(2) 0.05177(17)
O14_3 O 0.21521(16) 0.28471(16) 0.10907(16)
O15_3 O 0.28479(16) 0.28471(16) 0.10907(16)
O16_3 O 0.21521(16) 0.21529(16) 0.10907(16)
O17_3 O 0.03353(16) 0.71596(17) 0.28049(15)
O18_2 O 0.46647(16) 0.71596(17) 0.28049(15)
O21_2 O 0.03353(16) 0.78404(17) 0.28049(15)
O23_2 O 0.52411(17) 0.71555(17) 0.28197(14)
O39_2 O 0.03486(19) 0.7845(2) 0.3522(2)
O40_2 O 0.03486(19) 0.7155(2) 0.3522(2)
O41_3 O 0.0977 0.7500(2) 0.3123(2)
N5_3 N 0.5006(3) 0.4672(2) 0.0479(3)
N7_3 N 0.0229(3) 0.4952(3) 0.0973(2)
N8_3 N 0.4771(3) 0.4952(3) 0.0973(2)
N9_3 N 0.0229(3) 0.0048(3) 0.0973(2)
N11_3 N 0.5241(3) 0.5190(3) 0.0694(3)
C43_3 C 0.0218(3) 0.4696(3) 0.0742(4)
C44_3 C 0.4782(3) 0.4696(3) 0.0742(4)
C45_3 C 0.0218(3) 0.0304(3) 0.0742(4)
C47_3 C 0.5007(3) 0.5198(3) 0.0946(3)
C50_3 C 0.5230(3) 0.4925(4) 0.0472(3)
C52_3 C 0.0473(4) 0.4425(4) 0.0754(7)
C53_3 C 0.4527(4) 0.4425(4) 0.0754(7)
C54_3 C 0.0473(4) 0.0575(4) 0.0754(7)
C55_3 C 0.0508(5) 0.4216(6) 0.0471(4)
C56_3 C 0.4492(5) 0.4216(6) 0.0471(4)
C57_3 C 0.0508(5) 0.0784(6) 0.0471(4)
H25_3 H 0.0366 0.4236 0.0279
H26_3 H 0.4634 0.4236 0.0279
H27_3 H 0.0366 0.0764 0.0279
C58_3 C 0.0758(5) 0.3976(5) 0.0481(5)
C59_3 C 0.4242(5) 0.3976(5) 0.0481(5)
C60_3 C 0.0758(5) 0.1024(5) 0.0481(5)
H28_3 H 0.0803 0.3846 0.0285
H29_3 H 0.4197 0.3846 0.0285
H30_3 H 0.0803 0.1154 0.0285
C61_3 C 0.0939(4) 0.3931(4) 0.0781(7)
C62_3 C 0.4061(4) 0.3931(4) 0.0781(7)
C63_3 C 0.0939(4) 0.1069(4) 0.0781(7)
C64_3 C 0.0911(4) 0.4152(6) 0.1066(4)
C65_3 C 0.4089(4) 0.4152(6) 0.1066(4)
C66_3 C 0.0911(4) 0.0848(6) 0.1066(4)
H31_3 H 0.1054 0.4136 0.1258
H32_3 H 0.3946 0.4136 0.1258
H33_3 H 0.1054 0.0864 0.1258
C67_3 C 0.0667(5) 0.4390(4) 0.1053(4)
C68_3 C 0.4333(5) 0.4390(4) 0.1053(4)
C69_3 C 0.0667(5) 0.0610(4) 0.1053(4)
H34_3 H 0.0629 0.4529 0.1243
H35_3 H 0.4371 0.4529 0.1243
H36_3 H 0.0629 0.0471 0.1243
C70_3 C 0.1225(5) 0.3679(4) 0.0765(4)
C71_3 C 0.3775(5) 0.3679(4) 0.0765(4)
C72_3 C 0.1225(5) 0.1321(4) 0.0765(4)
C73_3 C 0.1419(4) 0.3567(4) 0.0468(4)
C74_3 C 0.3581(4) 0.3567(4) 0.0468(4)
C75_3 C 0.1419(4) 0.1433(4) 0.0468(4)
H37_3 H 0.1370 0.3657 0.0249
H38_3 H 0.3630 0.3657 0.0249
H39_3 H 0.1370 0.1343 0.0249
C76_3 C 0.1684(4) 0.3325(4) 0.0497(5)
C77_3 C 0.3316(4) 0.3325(4) 0.0497(5)
C78_3 C 0.1684(4) 0.1675(4) 0.0497(5)
H40_3 H 0.1800 0.3253 0.0299
H41_3 H 0.3200 0.3253 0.0299
H42_3 H 0.1800 0.1747 0.0299
C79_3 C 0.1765(3) 0.3198(3) 0.0820(5)
C80_3 C 0.3235(3) 0.3198(3) 0.0820(5)
C81_3 C 0.1765(3) 0.1802(3) 0.0820(5)
C82_3 C 0.1585(5) 0.3314(5) 0.1105(3)
C83_3 C 0.3415(5) 0.3314(5) 0.1105(3)
C84_3 C 0.1585(5) 0.1686(5) 0.1105(3)
H43_3 H 0.1637 0.3232 0.1326
H44_3 H 0.3363 0.3232 0.1326
H45_3 H 0.1637 0.1768 0.1326
C85_3 C 0.1324(4) 0.3554(4) 0.1072(5)
C86_3 C 0.3676(4) 0.3554(4) 0.1072(5)
C87_3 C 0.1324(4) 0.1446(4) 0.1072(5)
H46_3 H 0.1217 0.3629 0.1273
H47_3 H 0.3783 0.3629 0.1273
H48_3 H 0.1217 0.1371 0.1273
C88_3 C 0.2059(3) 0.2951(3) 0.0788(3)
C89_3 C 0.2941(3) 0.2951(3) 0.0788(3)
C90_3 C 0.2059(3) 0.2049(3) 0.0788(3)
C92_3 C 0.5004(7) 0.5473(4) 0.1201(4)
C94_3 C 0.0268(3) 0.5506(5) 0.1434(6)
C95_3 C 0.4732(3) 0.5506(5) 0.1434(6)
H49_3 H 0.0444 0.5352 0.1423
H50_3 H 0.4556 0.5352 0.1423
C97_3 C 0.0278(4) 0.5758(6) 0.1672(4)
C98_3 C 0.4722(4) 0.5758(6) 0.1672(4)
H52_3 H 0.0451 0.5780 0.1834
H53_3 H 0.4549 0.5780 0.1834
C100_3 C 0.0017(8) 0.5971(4) 0.1656(5)
C101_3 C 0.4983(8) 0.5971(4) 0.1656(5)
C104_3 C 0.5245(3) 0.5949(5) 0.1417(5)
H56_3 H 0.5411 0.6113 0.1407
C107_3 C 0.5253(4) 0.5689(6) 0.1204(5)
H59_3 H 0.5436 0.5659 0.1055
C109_3 C 0.0014(5) 0.6250(4) 0.1928(4)
C110_3 C 0.4986(5) 0.6250(4) 0.1928(4)
C112_3 C 0.0320(4) 0.6374(3) 0.2021(4)
C113_3 C 0.4680(4) 0.6374(3) 0.2021(4)
H61_3 H 0.0513 0.6290 0.1915
H62_3 H 0.4487 0.6290 0.1915
C115_3 C 0.0348(3) 0.6622(5) 0.2267(4)
C116_3 C 0.4652(3) 0.6622(5) 0.2267(4)
H64_3 H 0.0560 0.6697 0.2334
H65_3 H 0.4440 0.6697 0.2334
C118_3 C 0.0060(6) 0.6762(3) 0.2421(3)
C119_3 C 0.4940(6) 0.6762(3) 0.2421(3)
C122_3 C 0.5267(4) 0.6643(4) 0.2325(4)
H68_3 H 0.5462 0.6733 0.2422
C125_3 C 0.5279(4) 0.6386(4) 0.2078(4)
H71_3 H 0.5487 0.6301 0.2010
C127_3 C 0.0054(3) 0.7068(3) 0.2716(3)
C128_3 C 0.4946(3) 0.7068(3) 0.2716(3)
C131_3 C 0.5483(4) 0.4925(4) 0.0193(4)
C134_3 C 0.5746(4) 0.5167(3) 0.0206(3)
H74_3 H 0.5745 0.5327 0.0384
O6_2 O 0.7155(2) 0.03486(19) 0.8522(2)
O7_3 O 0.2500 0.2500 0.9839(3)
C33_3 C 0.5994(4) 0.0075(5) 0.9698(4)
C34_3 C 0.5733(4) 0.0318(3) 0.9696(3)
H19_3 H 0.5736 0.0484 0.9524
C35_3 C 0.5475(3) 0.0322(3) 0.9935(3)
H20_3 H 0.5304 0.0481 0.9925
C36_3 C 0.6277(4) 0.0102(6) 0.9415(4)
C39_3 C 0.6789(3) 0.0070(6) 0.8905(3)
C40_3 C 0.6655(4) 0.0364(5) 0.9021(4)
H23_3 H 0.6745 0.0560 0.8924
C41_3 C 0.6394(4) 0.0412(4) 0.9271(4)
H24_3 H 0.6309 0.0622 0.9334
C42_3 C 0.7036(3) 0.0073(4) 0.8637(3)
Cu6 Cu 0.75000(3) 0.0396 0.81622(4)
Cu9 Cu 0.75000(3) 0.4604 0.81622(4)
Cu16 Cu 0.75000(4) 0.5275 0.81846(4)
O28_2 O 0.71561(18) 0.51915(17) 0.85467(16)
O35_2 O 0.7155(2) 0.46514(19) 0.8522(2)
C137_3 C 0.6010(4) 0.5174(3) 0.9957(4)
H77_3 H 0.6181 0.5334 0.9965
C140_3 C 0.5994(4) 0.4925(5) 0.9698(4)
C143_3 C 0.5733(4) 0.4682(3) 0.9696(3)
H80_3 H 0.5736 0.4516 0.9524
C146_3 C 0.5475(3) 0.4678(3) 0.9935(3)
H83_3 H 0.5304 0.4519 0.9925
C149_3 C 0.6277(4) 0.4898(6) 0.9415(4)
C152_3 C 0.6399(5) 0.5210(5) 0.9311(4)
H86_3 H 0.6311 0.5409 0.9402
C155_3 C 0.6661(5) 0.5215(3) 0.9064(5)
H89_3 H 0.6753 0.5423 0.9003
C158_3 C 0.6789(3) 0.4930(6) 0.8905(3)
C161_3 C 0.6655(4) 0.4636(5) 0.9021(4)
H92_3 H 0.6745 0.4440 0.8924
C164_3 C 0.6394(4) 0.4588(4) 0.9271(4)
H95_3 H 0.6309 0.4378 0.9334
C167_3 C 0.7036(3) 0.4927(4) 0.8637(3)
O3_3 O 0.46647(16) 0.78404(17) 0.28049(15)
O4_3 O 0.52411(17) 0.78445(17) 0.28197(14)
O9_3 O 0.4023 0.7500(2) 0.3123(2)
O10_3 O 0.5858 0.75000(18) 0.32396(19)
N3_3 N 0.5241(3) 0.9810(3) 0.0694(3)
C2_3 C 0.5007(3) 0.9802(3) 0.0946(3)
C17_3 C 0.5004(7) 0.9527(4) 0.1201(4)
C18_3 C 0.4732(3) 0.9494(5) 0.1434(6)
H9_3 H 0.4556 0.9648 0.1423
C19_3 C 0.4722(4) 0.9242(6) 0.1672(4)
H10_3 H 0.4549 0.9220 0.1834
C20_3 C 0.4983(8) 0.9029(4) 0.1656(5)
C21_3 C 0.5245(3) 0.9051(5) 0.1417(5)
H11_3 H 0.5411 0.8887 0.1407
C22_3 C 0.5253(4) 0.9311(6) 0.1204(5)
H12_3 H 0.5436 0.9341 0.1055
C23_3 C 0.4986(5) 0.8750(4) 0.1928(4)
C24_3 C 0.4680(4) 0.8626(3) 0.2021(4)
H13_3 H 0.4487 0.8710 0.1915
C25_3 C 0.4652(3) 0.8378(5) 0.2267(4)
H14_3 H 0.4440 0.8303 0.2334
C26_3 C 0.4940(6) 0.8238(3) 0.2421(3)
C27_3 C 0.5267(4) 0.8357(4) 0.2325(4)
H15_3 H 0.5462 0.8267 0.2422
C28_3 C 0.5279(4) 0.8614(4) 0.2078(4)
H16_3 H 0.5487 0.8699 0.2010
C29_3 C 0.4946(3) 0.7932(3) 0.2716(3)
C31_3 C 0.5746(4) 0.9833(3) 0.0206(3)
H17_3 H 0.5745 0.9673 0.0384
O30_2 O 0.51915(17) 0.71561(18) 0.35467(16)
O31_2 O 0.51915(17) 0.78439(18) 0.35467(16)
O37_2 O 0.46514(19) 0.7155(2) 0.3522(2)
O38_2 O 0.46514(19) 0.7845(2) 0.3522(2)
C96_3 C 0.0268(3) 0.9494(5) 0.1434(6)
H51_3 H 0.0444 0.9648 0.1423
C99_3 C 0.0278(4) 0.9242(6) 0.1672(4)
H54_3 H 0.0451 0.9220 0.1834
C102_3 C 0.0017(8) 0.9029(4) 0.1656(5)
C111_3 C 0.0014(5) 0.8750(4) 0.1928(4)
C114_3 C 0.0320(4) 0.8626(3) 0.2021(4)
H63_3 H 0.0513 0.8710 0.1915
C117_3 C 0.0348(3) 0.8378(5) 0.2267(4)
H66_3 H 0.0560 0.8303 0.2334
C120_3 C 0.0060(6) 0.8238(3) 0.2421(3)
C129_3 C 0.0054(3) 0.7932(3) 0.2716(3)
O5_2 O 0.71561(18) 0.98085(17) 0.85467(16)
C32_3 C 0.6010(4) 0.9826(3) 0.9957(4)
H18_3 H 0.6181 0.9666 0.9965
C37_3 C 0.6399(5) 0.9790(5) 0.9311(4)
H21_3 H 0.6311 0.9591 0.9402
C38_3 C 0.6661(5) 0.9785(3) 0.9064(5)
H22_3 H 0.6753 0.9577 0.9003
Cu13 Cu 0.75000(4) 0.9725 0.81846(4)
Cu12_2 Cu 0.9725 0.75000(4) 0.31846(4)
O22_3 O 0.97589(17) 0.71555(17) 0.28197(14)
O26_2 O 0.97589(17) 0.78445(17) 0.28197(14)
O32_2 O 0.98085(17) 0.78439(18) 0.35467(16)
O33_2 O 0.98085(17) 0.71561(18) 0.35467(16)
O42_3 O 0.9142 0.75000(18) 0.32396(19)
N4_3 N 0.9994(3) 0.4672(2) 0.0479(3)
N6_3 N 0.9994(3) 0.0328(2) 0.0479(3)
N10_3 N 0.9759(3) 0.5190(3) 0.0694(3)
C46_3 C 0.9993(3) 0.5198(3) 0.0946(3)
C49_3 C 0.9770(3) 0.4925(4) 0.0472(3)
C51_3 C 0.9770(3) 0.0075(4) 0.0472(3)
C91_3 C 0.9996(7) 0.5473(4) 0.1201(4)
C103_3 C 0.9755(3) 0.5949(5) 0.1417(5)
H55_3 H 0.9589 0.6113 0.1407
C106_3 C 0.9747(4) 0.5689(6) 0.1204(5)
H58_3 H 0.9564 0.5659 0.1055
C121_3 C 0.9733(4) 0.6643(4) 0.2325(4)
H67_3 H 0.9538 0.6733 0.2422
C124_3 C 0.9721(4) 0.6386(4) 0.2078(4)
H70_3 H 0.9513 0.6301 0.2010
C130_3 C 0.9517(4) 0.4925(4) 0.0193(4)
C132_3 C 0.9517(4) 0.0075(4) 0.0193(4)
C133_3 C 0.9254(4) 0.5167(3) 0.0206(3)
H73_3 H 0.9255 0.5327 0.0384
O27_2 O 0.78439(18) 0.51915(17) 0.85467(16)
O34_2 O 0.7845(2) 0.46514(19) 0.8522(2)
O36_2 O 0.7845(2) 0.03486(19) 0.8522(2)
C136_3 C 0.8990(4) 0.5174(3) 0.9957(4)
H76_3 H 0.8819 0.5334 0.9965
C139_3 C 0.9006(4) 0.4925(5) 0.9698(4)
C141_3 C 0.9006(4) 0.0075(5) 0.9698(4)
C142_3 C 0.9267(4) 0.4682(3) 0.9696(3)
C144_3 C 0.9267(4) 0.0318(3) 0.9696(3)
H79_3 H 0.9264 0.4516 0.9524
H81_3 H 0.9264 0.0484 0.9524
C145_3 C 0.9525(3) 0.4678(3) 0.9935(3)
C147_3 C 0.9525(3) 0.0322(3) 0.9935(3)
H82_3 H 0.9696 0.4519 0.9925
H84_3 H 0.9696 0.0481 0.9925
C148_3 C 0.8723(4) 0.4898(6) 0.9415(4)
C150_3 C 0.8723(4) 0.0102(6) 0.9415(4)
C151_3 C 0.8601(5) 0.5210(5) 0.9311(4)
H85_3 H 0.8689 0.5409 0.9402
C154_3 C 0.8339(5) 0.5215(3) 0.9064(5)
H88_3 H 0.8247 0.5423 0.9003
C157_3 C 0.8211(3) 0.4930(6) 0.8905(3)
C159_3 C 0.8211(3) 0.0070(6) 0.8905(3)
C160_3 C 0.8345(4) 0.4636(5) 0.9021(4)
C162_3 C 0.8345(4) 0.0364(5) 0.9021(4)
H91_3 H 0.8255 0.4440 0.8924
H93_3 H 0.8255 0.0560 0.8924
C163_3 C 0.8606(4) 0.4588(4) 0.9271(4)
C165_3 C 0.8606(4) 0.0412(4) 0.9271(4)
H94_3 H 0.8691 0.4378 0.9334
H96_3 H 0.8691 0.0622 0.9334
C166_3 C 0.7964(3) 0.4927(4) 0.8637(3)
C168_3 C 0.7964(3) 0.0073(4) 0.8637(3)
N12_3 N 0.9759(3) 0.9810(3) 0.0694(3)
C48_3 C 0.9993(3) 0.9802(3) 0.0946(3)
C93_3 C 0.9996(7) 0.9527(4) 0.1201(4)
C105_3 C 0.9755(3) 0.9051(5) 0.1417(5)
H57_3 H 0.9589 0.8887 0.1407
C108_3 C 0.9747(4) 0.9311(6) 0.1204(5)
H60_3 H 0.9564 0.9341 0.1055
C123_3 C 0.9733(4) 0.8357(4) 0.2325(4)
H69_3 H 0.9538 0.8267 0.2422
C126_3 C 0.9721(4) 0.8614(4) 0.2078(4)
H72_3 H 0.9513 0.8699 0.2010
C135_3 C 0.9254(4) 0.9833(3) 0.0206(3)
H75_3 H 0.9255 0.9673 0.0384
O29_2 O 0.78439(18) 0.98085(17) 0.85467(16)
C138_3 C 0.8990(4) 0.9826(3) 0.9957(4)
H78_3 H 0.8819 0.9666 0.9965
C153_3 C 0.8601(5) 0.9790(5) 0.9311(4)
H87_3 H 0.8689 0.9591 0.9402
C156_3 C 0.8339(5) 0.9785(3) 0.9064(5)
H90_3 H 0.8247 0.9577 0.9003
Cu1_4 Cu 0.2500 0.2500 0.54678(5)
Cu2_4 Cu 0.2500 0.2500 0.61629(5)
O1_4 O 0.2151(2) 0.2158(2) 0.55177(17)
O2_4 O 0.21529(16) 0.21521(16) 0.60907(16)
O7_4 O 0.2500 0.2500 0.4839(3)
O8_4 O 0.2500 0.2500 0.6761(3)
N2_4 N 0.0048(3) 0.0229(3) 0.5973(2)
C1_4 C 0.0304(3) 0.0218(3) 0.5742(4)
C4_4 C 0.0575(4) 0.0473(4) 0.5754(7)
C5_4 C 0.0784(6) 0.0508(5) 0.5471(4)
H1_4 H 0.0764 0.0366 0.5279
C6_4 C 0.1024(5) 0.0758(5) 0.5481(5)
H2_4 H 0.1154 0.0803 0.5285
C7_4 C 0.1069(4) 0.0939(4) 0.5781(7)
C8_4 C 0.0848(6) 0.0911(4) 0.6066(4)
H3_4 H 0.0864 0.1054 0.6258
C9_4 C 0.0610(4) 0.0667(5) 0.6053(4)
H4_4 H 0.0471 0.0629 0.6243
C10_4 C 0.1321(4) 0.1225(5) 0.5765(4)
C11_4 C 0.1433(4) 0.1419(4) 0.5468(4)
H5_4 H 0.1343 0.1370 0.5249
C12_4 C 0.1675(4) 0.1684(4) 0.5497(5)
H6_4 H 0.1747 0.1800 0.5299
C13_4 C 0.1802(3) 0.1765(3) 0.5820(5)
C14_4 C 0.1686(5) 0.1585(5) 0.6105(3)
H7_4 H 0.1768 0.1637 0.6326
C15_4 C 0.1446(4) 0.1324(4) 0.6072(5)
H8_4 H 0.1371 0.1217 0.6273
C16_4 C 0.2049(3) 0.2059(3) 0.5788(3)
O11_4 O 0.2849(2) 0.2842(2) 0.55177(17)
O12_4 O 0.2849(2) 0.2158(2) 0.55177(17)
O13_4 O 0.2151(2) 0.2842(2) 0.55177(17)
O14_4 O 0.28471(16) 0.28479(16) 0.60907(16)
O15_4 O 0.28471(16) 0.21521(16) 0.60907(16)
O16_4 O 0.21529(16) 0.28479(16) 0.60907(16)
O17_4 O 0.71596(17) 0.46647(16) 0.78049(15)
O18_3 O 0.71596(17) 0.03353(16) 0.78049(15)
O21_3 O 0.78404(17) 0.46647(16) 0.78049(15)
O22_4 O 0.71555(17) 0.52411(17) 0.78197(14)
O26_3 O 0.78445(17) 0.52411(17) 0.78197(14)
O41_4 O 0.7500(2) 0.4023 0.8123(2)
O42_4 O 0.75000(18) 0.5858 0.82396(19)
N4_4 N 0.4672(2) 0.5006(3) 0.5479(3)
N6_4 N 0.0328(2) 0.5006(3) 0.5479(3)
N7_4 N 0.4952(3) 0.4771(3) 0.5973(2)
N8_4 N 0.4952(3) 0.0229(3) 0.5973(2)
N9_4 N 0.0048(3) 0.4771(3) 0.5973(2)
N10_4 N 0.5190(3) 0.5241(3) 0.5694(3)
C43_4 C 0.4696(3) 0.4782(3) 0.5742(4)
C44_4 C 0.4696(3) 0.0218(3) 0.5742(4)
C45_4 C 0.0304(3) 0.4782(3) 0.5742(4)
C46_4 C 0.5198(3) 0.5007(3) 0.5946(3)
C49_4 C 0.4925(4) 0.5230(3) 0.5472(3)
C51_4 C 0.0075(4) 0.5230(3) 0.5472(3)
C52_4 C 0.4425(4) 0.4527(4) 0.5754(7)
C53_4 C 0.4425(4) 0.0473(4) 0.5754(7)
C54_4 C 0.0575(4) 0.4527(4) 0.5754(7)
C55_4 C 0.4216(6) 0.4492(5) 0.5471(4)
C56_4 C 0.4216(6) 0.0508(5) 0.5471(4)
C57_4 C 0.0784(6) 0.4492(5) 0.5471(4)
H25_4 H 0.4236 0.4634 0.5279
H26_4 H 0.4236 0.0366 0.5279
H27_4 H 0.0764 0.4634 0.5279
C58_4 C 0.3976(5) 0.4242(5) 0.5481(5)
C59_4 C 0.3976(5) 0.0758(5) 0.5481(5)
C60_4 C 0.1024(5) 0.4242(5) 0.5481(5)
H28_4 H 0.3846 0.4197 0.5285
H29_4 H 0.3846 0.0803 0.5285
H30_4 H 0.1154 0.4197 0.5285
C61_4 C 0.3931(4) 0.4061(4) 0.5781(7)
C62_4 C 0.3931(4) 0.0939(4) 0.5781(7)
C63_4 C 0.1069(4) 0.4061(4) 0.5781(7)
C64_4 C 0.4152(6) 0.4089(4) 0.6066(4)
C65_4 C 0.4152(6) 0.0911(4) 0.6066(4)
C66_4 C 0.0848(6) 0.4089(4) 0.6066(4)
H31_4 H 0.4136 0.3946 0.6258
H32_4 H 0.4136 0.1054 0.6258
H33_4 H 0.0864 0.3946 0.6258
C67_4 C 0.4390(4) 0.4333(5) 0.6053(4)
C68_4 C 0.4390(4) 0.0667(5) 0.6053(4)
C69_4 C 0.0610(4) 0.4333(5) 0.6053(4)
H34_4 H 0.4529 0.4371 0.6243
H35_4 H 0.4529 0.0629 0.6243
H36_4 H 0.0471 0.4371 0.6243
C70_4 C 0.3679(4) 0.3775(5) 0.5765(4)
C71_4 C 0.3679(4) 0.1225(5) 0.5765(4)
C72_4 C 0.1321(4) 0.3775(5) 0.5765(4)
C73_4 C 0.3567(4) 0.3581(4) 0.5468(4)
C74_4 C 0.3567(4) 0.1419(4) 0.5468(4)
C75_4 C 0.1433(4) 0.3581(4) 0.5468(4)
H37_4 H 0.3657 0.3630 0.5249
H38_4 H 0.3657 0.1370 0.5249
H39_4 H 0.1343 0.3630 0.5249
C76_4 C 0.3325(4) 0.3316(4) 0.5497(5)
C77_4 C 0.3325(4) 0.1684(4) 0.5497(5)
C78_4 C 0.1675(4) 0.3316(4) 0.5497(5)
H40_4 H 0.3253 0.3200 0.5299
H41_4 H 0.3253 0.1800 0.5299
H42_4 H 0.1747 0.3200 0.5299
C79_4 C 0.3198(3) 0.3235(3) 0.5820(5)
C80_4 C 0.3198(3) 0.1765(3) 0.5820(5)
C81_4 C 0.1802(3) 0.3235(3) 0.5820(5)
C82_4 C 0.3314(5) 0.3415(5) 0.6105(3)
C83_4 C 0.3314(5) 0.1585(5) 0.6105(3)
C84_4 C 0.1686(5) 0.3415(5) 0.6105(3)
H43_4 H 0.3232 0.3363 0.6326
H44_4 H 0.3232 0.1637 0.6326
H45_4 H 0.1768 0.3363 0.6326
C85_4 C 0.3554(4) 0.3676(4) 0.6072(5)
C86_4 C 0.3554(4) 0.1324(4) 0.6072(5)
C87_4 C 0.1446(4) 0.3676(4) 0.6072(5)
H46_4 H 0.3629 0.3783 0.6273
H47_4 H 0.3629 0.1217 0.6273
H48_4 H 0.1371 0.3783 0.6273
C88_4 C 0.2951(3) 0.2941(3) 0.5788(3)
C89_4 C 0.2951(3) 0.2059(3) 0.5788(3)
C90_4 C 0.2049(3) 0.2941(3) 0.5788(3)
C91_4 C 0.5473(4) 0.5004(7) 0.6201(4)
C94_4 C 0.5506(5) 0.4732(3) 0.6434(6)
C95_4 C 0.5506(5) 0.0268(3) 0.6434(6)
H49_4 H 0.5352 0.4556 0.6423
H50_4 H 0.5352 0.0444 0.6423
C97_4 C 0.5758(6) 0.4722(4) 0.6672(4)
C98_4 C 0.5758(6) 0.0278(4) 0.6672(4)
H52_4 H 0.5780 0.4549 0.6834
H53_4 H 0.5780 0.0451 0.6834
C100_4 C 0.5971(4) 0.4983(8) 0.6656(5)
C101_4 C 0.5971(4) 0.0017(8) 0.6656(5)
C103_4 C 0.5949(5) 0.5245(3) 0.6417(5)
H55_4 H 0.6113 0.5411 0.6407
C106_4 C 0.5689(6) 0.5253(4) 0.6204(5)
H58_4 H 0.5659 0.5436 0.6055
C109_4 C 0.6250(4) 0.4986(5) 0.6928(4)
C110_4 C 0.6250(4) 0.0014(5) 0.6928(4)
C112_4 C 0.6374(3) 0.4680(4) 0.7021(4)
C113_4 C 0.6374(3) 0.0320(4) 0.7021(4)
H61_4 H 0.6290 0.4487 0.6915
H62_4 H 0.6290 0.0513 0.6915
C115_4 C 0.6622(5) 0.4652(3) 0.7267(4)
C116_4 C 0.6622(5) 0.0348(3) 0.7267(4)
H64_4 H 0.6697 0.4440 0.7334
H65_4 H 0.6697 0.0560 0.7334
C118_4 C 0.6762(3) 0.4940(6) 0.7421(3)
C119_4 C 0.6762(3) 0.0060(6) 0.7421(3)
C121_4 C 0.6643(4) 0.5267(4) 0.7325(4)
H67_4 H 0.6733 0.5462 0.7422
C124_4 C 0.6386(4) 0.5279(4) 0.7078(4)
H70_4 H 0.6301 0.5487 0.7010
C127_4 C 0.7068(3) 0.4946(3) 0.7716(3)
C128_4 C 0.7068(3) 0.0054(3) 0.7716(3)
C130_4 C 0.4925(4) 0.5483(4) 0.5193(4)
C132_4 C 0.0075(4) 0.5483(4) 0.5193(4)
C133_4 C 0.5167(3) 0.5746(4) 0.5206(3)
H73_4 H 0.5327 0.5745 0.5384
C136_4 C 0.5174(3) 0.6010(4) 0.4957(4)
H76_4 H 0.5334 0.6181 0.4965
C139_4 C 0.4925(5) 0.5994(4) 0.4698(4)
C141_4 C 0.0075(5) 0.5994(4) 0.4698(4)
C142_4 C 0.4682(3) 0.5733(4) 0.4696(3)
C144_4 C 0.0318(3) 0.5733(4) 0.4696(3)
H79_4 H 0.4516 0.5736 0.4524
H81_4 H 0.0484 0.5736 0.4524
C145_4 C 0.4678(3) 0.5475(3) 0.4935(3)
C147_4 C 0.0322(3) 0.5475(3) 0.4935(3)
H82_4 H 0.4519 0.5304 0.4925
H84_4 H 0.0481 0.5304 0.4925
C148_4 C 0.4898(6) 0.6277(4) 0.4415(4)
C150_4 C 0.0102(6) 0.6277(4) 0.4415(4)
C151_4 C 0.5210(5) 0.6399(5) 0.4311(4)
H85_4 H 0.5409 0.6311 0.4402
C154_4 C 0.5215(3) 0.6661(5) 0.4064(5)
H88_4 H 0.5423 0.6753 0.4003
C157_4 C 0.4930(6) 0.6789(3) 0.3905(3)
C159_4 C 0.0070(6) 0.6789(3) 0.3905(3)
C160_4 C 0.4636(5) 0.6655(4) 0.4021(4)
C162_4 C 0.0364(5) 0.6655(4) 0.4021(4)
H91_4 H 0.4440 0.6745 0.3924
H93_4 H 0.0560 0.6745 0.3924
C163_4 C 0.4588(4) 0.6394(4) 0.4271(4)
C165_4 C 0.0412(4) 0.6394(4) 0.4271(4)
H94_4 H 0.4378 0.6309 0.4334
H96_4 H 0.0622 0.6309 0.4334
C166_4 C 0.4927(4) 0.7036(3) 0.3637(3)
C168_4 C 0.0073(4) 0.7036(3) 0.3637(3)
N1_4 N 0.0328(2) 0.9994(3) 0.5479(3)
C3_4 C 0.0075(4) 0.9770(3) 0.5472(3)
C30_4 C 0.0075(4) 0.9517(4) 0.5193(4)
C33_4 C 0.0075(5) 0.9006(4) 0.4698(4)
C34_4 C 0.0318(3) 0.9267(4) 0.4696(3)
H19_4 H 0.0484 0.9264 0.4524
C35_4 C 0.0322(3) 0.9525(3) 0.4935(3)
H20_4 H 0.0481 0.9696 0.4925
C36_4 C 0.0102(6) 0.8723(4) 0.4415(4)
C39_4 C 0.0070(6) 0.8211(3) 0.3905(3)
C40_4 C 0.0364(5) 0.8345(4) 0.4021(4)
H23_4 H 0.0560 0.8255 0.3924
C41_4 C 0.0412(4) 0.8606(4) 0.4271(4)
H24_4 H 0.0622 0.8691 0.4334
C42_4 C 0.0073(4) 0.7964(3) 0.3637(3)
O23_3 O 0.71555(17) 0.97589(17) 0.78197(14)
N5_4 N 0.4672(2) 0.9994(3) 0.5479(3)
N11_4 N 0.5190(3) 0.9759(3) 0.5694(3)
C47_4 C 0.5198(3) 0.9993(3) 0.5946(3)
C50_4 C 0.4925(4) 0.9770(3) 0.5472(3)
C92_4 C 0.5473(4) 0.9996(7) 0.6201(4)
C104_4 C 0.5949(5) 0.9755(3) 0.6417(5)
H56_4 H 0.6113 0.9589 0.6407
C107_4 C 0.5689(6) 0.9747(4) 0.6204(5)
H59_4 H 0.5659 0.9564 0.6055
C122_4 C 0.6643(4) 0.9733(4) 0.7325(4)
H68_4 H 0.6733 0.9538 0.7422
C125_4 C 0.6386(4) 0.9721(4) 0.7078(4)
H71_4 H 0.6301 0.9513 0.7010
C131_4 C 0.4925(4) 0.9517(4) 0.5193(4)
C134_4 C 0.5167(3) 0.9254(4) 0.5206(3)
H74_4 H 0.5327 0.9255 0.5384
C137_4 C 0.5174(3) 0.8990(4) 0.4957(4)
H77_4 H 0.5334 0.8819 0.4965
C140_4 C 0.4925(5) 0.9006(4) 0.4698(4)
C143_4 C 0.4682(3) 0.9267(4) 0.4696(3)
H80_4 H 0.4516 0.9264 0.4524
C146_4 C 0.4678(3) 0.9525(3) 0.4935(3)
H83_4 H 0.4519 0.9696 0.4925
C149_4 C 0.4898(6) 0.8723(4) 0.4415(4)
C152_4 C 0.5210(5) 0.8601(5) 0.4311(4)
H86_4 H 0.5409 0.8689 0.4402
C155_4 C 0.5215(3) 0.8339(5) 0.4064(5)
H89_4 H 0.5423 0.8247 0.4003
C158_4 C 0.4930(6) 0.8211(3) 0.3905(3)
C161_4 C 0.4636(5) 0.8345(4) 0.4021(4)
H92_4 H 0.4440 0.8255 0.3924
C164_4 C 0.4588(4) 0.8606(4) 0.4271(4)
H95_4 H 0.4378 0.8691 0.4334
C167_4 C 0.4927(4) 0.7964(3) 0.3637(3)
O3_4 O 0.78404(17) 0.03353(16) 0.78049(15)
O9_4 O 0.7500(2) 0.0977 0.8123(2)
C18_4 C 0.9494(5) 0.0268(3) 0.6434(6)
H9_4 H 0.9648 0.0444 0.6423
C19_4 C 0.9242(6) 0.0278(4) 0.6672(4)
H10_4 H 0.9220 0.0451 0.6834
C20_4 C 0.9029(4) 0.0017(8) 0.6656(5)
C23_4 C 0.8750(4) 0.0014(5) 0.6928(4)
C24_4 C 0.8626(3) 0.0320(4) 0.7021(4)
H13_4 H 0.8710 0.0513 0.6915
C25_4 C 0.8378(5) 0.0348(3) 0.7267(4)
H14_4 H 0.8303 0.0560 0.7334
C26_4 C 0.8238(3) 0.0060(6) 0.7421(3)
C29_4 C 0.7932(3) 0.0054(3) 0.7716(3)
N12_4 N 0.9810(3) 0.5241(3) 0.5694(3)
C48_4 C 0.9802(3) 0.5007(3) 0.5946(3)
C93_4 C 0.9527(4) 0.5004(7) 0.6201(4)
C96_4 C 0.9494(5) 0.4732(3) 0.6434(6)
H51_4 H 0.9648 0.4556 0.6423
C99_4 C 0.9242(6) 0.4722(4) 0.6672(4)
H54_4 H 0.9220 0.4549 0.6834
C102_4 C 0.9029(4) 0.4983(8) 0.6656(5)
C105_4 C 0.9051(5) 0.5245(3) 0.6417(5)
H57_4 H 0.8887 0.5411 0.6407
C108_4 C 0.9311(6) 0.5253(4) 0.6204(5)
H60_4 H 0.9341 0.5436 0.6055
C111_4 C 0.8750(4) 0.4986(5) 0.6928(4)
C114_4 C 0.8626(3) 0.4680(4) 0.7021(4)
H63_4 H 0.8710 0.4487 0.6915
C117_4 C 0.8378(5) 0.4652(3) 0.7267(4)
H66_4 H 0.8303 0.4440 0.7334
C120_4 C 0.8238(3) 0.4940(6) 0.7421(3)
C123_4 C 0.8357(4) 0.5267(4) 0.7325(4)
H69_4 H 0.8267 0.5462 0.7422
C126_4 C 0.8614(4) 0.5279(4) 0.7078(4)
H72_4 H 0.8699 0.5487 0.7010
C129_4 C 0.7932(3) 0.4946(3) 0.7716(3)
C135_4 C 0.9833(3) 0.5746(4) 0.5206(3)
H75_4 H 0.9673 0.5745 0.5384
C138_4 C 0.9826(3) 0.6010(4) 0.4957(4)
H78_4 H 0.9666 0.6181 0.4965
C153_4 C 0.9790(5) 0.6399(5) 0.4311(4)
H87_4 H 0.9591 0.6311 0.4402
C156_4 C 0.9785(3) 0.6661(5) 0.4064(5)
H90_4 H 0.9577 0.6753 0.4003
O4_4 O 0.78445(17) 0.97589(17) 0.78197(14)
O10_4 O 0.75000(18) 0.9142 0.82396(19)
N3_4 N 0.9810(3) 0.9759(3) 0.5694(3)
C2_4 C 0.9802(3) 0.9993(3) 0.5946(3)
C17_4 C 0.9527(4) 0.9996(7) 0.6201(4)
C21_4 C 0.9051(5) 0.9755(3) 0.6417(5)
H11_4 H 0.8887 0.9589 0.6407
C22_4 C 0.9311(6) 0.9747(4) 0.6204(5)
H12_4 H 0.9341 0.9564 0.6055
C27_4 C 0.8357(4) 0.9733(4) 0.7325(4)
H15_4 H 0.8267 0.9538 0.7422
C28_4 C 0.8614(4) 0.9721(4) 0.7078(4)
H16_4 H 0.8699 0.9513 0.7010
C31_4 C 0.9833(3) 0.9254(4) 0.5206(3)
H17_4 H 0.9673 0.9255 0.5384
C32_4 C 0.9826(3) 0.8990(4) 0.4957(4)
H18_4 H 0.9666 0.8819 0.4965
C37_4 C 0.9790(5) 0.8601(5) 0.4311(4)
H21_4 H 0.9591 0.8689 0.4402
C38_4 C 0.9785(3) 0.8339(5) 0.4064(5)
H22_4 H 0.9577 0.8247 0.4003
loop_
_geom_bond_atom_site_label_1
_geom_bond_atom_site_label_2
_geom_bond_site_symmetry_1
_geom_bond_site_symmetry_2
Cu14 O27 1_555 1_555
H76 C136 1_555 1_555
H85 C151 1_555 1_555
C154 C151 1_555 1_555
H88 C154 1_555 1_555
Cu12 O22 1_555 1_555
O26 Cu12 1_555 1_555
O32 Cu12 1_555 1_555
O33 Cu12 1_555 1_555
O42 Cu12 1_555 1_555
N10 C46 1_555 1_555
C91 C46 1_555 1_555
H55 C103 1_555 1_555
C106 C91 1_555 1_555
H58 C106 1_555 1_555
H67 C121 1_555 1_555
H70 C124 1_555 1_555
H73 C133 1_555 1_555
C103 C106 1_555 1_555
C121 C124 1_555 1_555
Cu7 O34 1_555 1_555
Cu11 O36 1_555 1_555
Cu18 O29 1_555 1_555
O29 C168 1_555 1_555
O34 C166 1_555 1_555
O36 C168 1_555 1_555
H78 C138 1_555 1_555
C141 C138 1_555 1_555
C142 C139 1_555 1_555
C144 C141 1_555 1_555
H79 C142 1_555 1_555
H81 C144 1_555 1_555
H82 C145 1_555 1_555
H84 C147 1_555 1_555
C148 C139 1_555 1_555
C150 C141 1_555 1_555
C153 C150 1_555 1_555
H87 C153 1_555 1_555
C156 C153 1_555 1_555
H90 C156 1_555 1_555
C159 C156 1_555 1_555
C160 C157 1_555 1_555
C162 C159 1_555 1_555
H91 C160 1_555 1_555
H93 C162 1_555 1_555
C163 C148 1_555 1_555
C165 C150 1_555 1_555
H94 C163 1_555 1_555
H96 C165 1_555 1_555
C166 C157 1_555 1_555
C168 C159 1_555 1_555
C142 C145 1_555 1_555
C144 C147 1_555 1_555
C160 C163 1_555 1_555
C162 C165 1_555 1_555
N12 C48 1_555 1_555
C49 N4 1_555 1_555
C51 N6 1_555 1_555
C93 C48 1_555 1_555
H57 C105 1_555 1_555
C108 C93 1_555 1_555
H60 C108 1_555 1_555
H69 C123 1_555 1_555
H72 C126 1_555 1_555
C130 C49 1_555 1_555
C132 C51 1_555 1_555
C135 C132 1_555 1_555
H75 C135 1_555 1_555
N12 C51 1_555 1_555
C105 C108 1_555 1_555
C123 C126 1_555 1_555
Cu14 O28 1_555 1_555
H77 C137 1_555 1_555
H86 C152 1_555 1_555
C155 C152 1_555 1_555
H89 C155 1_555 1_555
Cu5 O17 1_555 1_555
Cu8 O18 1_555 1_555
Cu15 O23 1_555 1_555
O17 C127 1_555 1_555
O18 C128 1_555 1_555
O21 Cu5 1_555 1_555
O23 C128 1_555 1_555
O39 Cu5 1_555 1_555
O40 Cu5 1_555 1_555
O41 Cu5 1_555 1_555
N11 C47 1_555 1_555
C92 C47 1_555 1_555
C95 C92 1_555 1_555
H49 C94 1_555 1_555
H50 C95 1_555 1_555
C97 C94 1_555 1_555
C98 C95 1_555 1_555
H52 C97 1_555 1_555
H53 C98 1_555 1_555
C100 C97 1_555 1_555
C101 C98 1_555 1_555
C104 C101 1_555 1_555
H56 C104 1_555 1_555
C107 C92 1_555 1_555
H59 C107 1_555 1_555
C109 C100 1_555 1_555
C110 C101 1_555 1_555
C112 C109 1_555 1_555
C113 C110 1_555 1_555
H61 C112 1_555 1_555
H62 C113 1_555 1_555
C115 C112 1_555 1_555
C116 C113 1_555 1_555
H64 C115 1_555 1_555
H65 C116 1_555 1_555
C118 C115 1_555 1_555
C119 C116 1_555 1_555
C122 C119 1_555 1_555
H68 C122 1_555 1_555
C125 C110 1_555 1_555
H71 C125 1_555 1_555
C127 C118 1_555 1_555
C128 C119 1_555 1_555
H74 C134 1_555 1_555
C104 C107 1_555 1_555
C122 C125 1_555 1_555
O5 C42 1_555 1_555
O6 C42 1_555 1_555
H18 C32 1_555 1_555
C33 C32 1_555 1_555
C34 C33 1_555 1_555
H19 C34 1_555 1_555
H20 C35 1_555 1_555
C36 C33 1_555 1_555
C37 C36 1_555 1_555
H21 C37 1_555 1_555
C38 C37 1_555 1_555
H22 C38 1_555 1_555
C39 C38 1_555 1_555
C40 C39 1_555 1_555
H23 C40 1_555 1_555
C41 C36 1_555 1_555
H24 C41 1_555 1_555
C42 C39 1_555 1_555
Cu11 O6 1_555 1_555
Cu7 O35 1_555 1_555
Cu18 O5 1_555 1_555
O35 C167 1_555 1_555
C143 C140 1_555 1_555
H80 C143 1_555 1_555
H83 C146 1_555 1_555
C149 C140 1_555 1_555
C161 C158 1_555 1_555
H92 C161 1_555 1_555
C164 C149 1_555 1_555
H95 C164 1_555 1_555
C167 C158 1_555 1_555
C34 C35 1_555 1_555
C40 C41 1_555 1_555
C143 C146 1_555 1_555
C161 C164 1_555 1_555
Cu1 O1 1_555 1_555
Cu2 O2 1_555 1_555
Cu8 O3 1_555 1_555
Cu15 O4 1_555 1_555
O1 C16 1_555 1_555
O2 C16 1_555 1_555
O3 C29 1_555 1_555
O4 C29 1_555 1_555
O8 Cu2 1_555 1_555
O9 Cu8 1_555 1_555
O10 Cu15 1_555 1_555
N1 C1 1_555 1_555
N2 C1 1_555 1_555
N3 C2 1_555 1_555
C1 C4 1_555 1_555
C2 N2 1_555 1_555
C3 N1 1_555 1_555
C4 C5 1_555 1_555
C5 H1 1_555 1_555
C6 C5 1_555 1_555
H2 C6 1_555 1_555
C7 C6 1_555 1_555
C8 C7 1_555 1_555
H3 C8 1_555 1_555
C9 C4 1_555 1_555
H4 C9 1_555 1_555
C10 C7 1_555 1_555
C11 C10 1_555 1_555
H5 C11 1_555 1_555
C12 C11 1_555 1_555
H6 C12 1_555 1_555
C13 C12 1_555 1_555
C14 C13 1_555 1_555
H7 C14 1_555 1_555
C15 C10 1_555 1_555
H8 C15 1_555 1_555
C16 C13 1_555 1_555
C17 C2 1_555 1_555
C18 C17 1_555 1_555
H9 C18 1_555 1_555
C19 C18 1_555 1_555
H10 C19 1_555 1_555
C20 C19 1_555 1_555
C21 C20 1_555 1_555
H11 C21 1_555 1_555
C22 C17 1_555 1_555
H12 C22 1_555 1_555
C23 C20 1_555 1_555
C24 C23 1_555 1_555
H13 C24 1_555 1_555
C25 C24 1_555 1_555
H14 C25 1_555 1_555
C26 C25 1_555 1_555
C27 C26 1_555 1_555
H15 C27 1_555 1_555
C28 C23 1_555 1_555
H16 C28 1_555 1_555
C29 C26 1_555 1_555
C30 C3 1_555 1_555
C31 C30 1_555 1_555
H17 C31 1_555 1_555
O11 Cu1 1_555 1_555
O12 Cu1 1_555 1_555
O13 Cu1 1_555 1_555
O14 Cu2 1_555 1_555
O15 Cu2 1_555 1_555
O16 Cu2 1_555 1_555
O21 C129 1_555 1_555
O30 Cu15 1_555 1_555
O31 Cu15 1_555 1_555
O37 Cu8 1_555 1_555
O38 Cu8 1_555 1_555
N5 C44 1_555 1_555
N7 C43 1_555 1_555
N8 C44 1_555 1_555
N9 C45 1_555 1_555
C43 C52 1_555 1_555
C44 C53 1_555 1_555
C45 C54 1_555 1_555
C50 N5 1_555 1_555
C52 C55 1_555 1_555
C53 C56 1_555 1_555
C54 C57 1_555 1_555
C55 H25 1_555 1_555
C56 H26 1_555 1_555
C57 H27 1_555 1_555
C58 C55 1_555 1_555
C59 C56 1_555 1_555
C60 C57 1_555 1_555
H28 C58 1_555 1_555
H29 C59 1_555 1_555
H30 C60 1_555 1_555
C61 C58 1_555 1_555
C62 C59 1_555 1_555
C63 C60 1_555 1_555
C64 C61 1_555 1_555
C65 C62 1_555 1_555
C66 C63 1_555 1_555
H31 C64 1_555 1_555
H32 C65 1_555 1_555
H33 C66 1_555 1_555
C67 C52 1_555 1_555
C68 C53 1_555 1_555
C69 C54 1_555 1_555
H34 C67 1_555 1_555
H35 C68 1_555 1_555
H36 C69 1_555 1_555
C70 C61 1_555 1_555
C71 C62 1_555 1_555
C72 C63 1_555 1_555
C73 C70 1_555 1_555
C74 C71 1_555 1_555
C75 C72 1_555 1_555
H37 C73 1_555 1_555
H38 C74 1_555 1_555
H39 C75 1_555 1_555
C76 C73 1_555 1_555
C77 C74 1_555 1_555
C78 C75 1_555 1_555
H40 C76 1_555 1_555
H41 C77 1_555 1_555
H42 C78 1_555 1_555
C79 C76 1_555 1_555
C80 C77 1_555 1_555
C81 C78 1_555 1_555
C82 C79 1_555 1_555
C83 C80 1_555 1_555
C84 C81 1_555 1_555
H43 C82 1_555 1_555
H44 C83 1_555 1_555
H45 C84 1_555 1_555
C85 C70 1_555 1_555
C86 C71 1_555 1_555
C87 C72 1_555 1_555
H46 C85 1_555 1_555
H47 C86 1_555 1_555
H48 C87 1_555 1_555
C88 O11 1_555 1_555
C89 O12 1_555 1_555
C90 O13 1_555 1_555
H51 C96 1_555 1_555
C99 C96 1_555 1_555
H54 C99 1_555 1_555
C102 C99 1_555 1_555
C111 C102 1_555 1_555
C114 C111 1_555 1_555
H63 C114 1_555 1_555
C117 C114 1_555 1_555
H66 C117 1_555 1_555
C120 C117 1_555 1_555
C129 C120 1_555 1_555
C131 C50 1_555 1_555
N3 C3 1_555 1_555
C8 C9 1_555 1_555
C14 C15 1_555 1_555
C21 C22 1_555 1_555
C27 C28 1_555 1_555
O14 C88 1_555 1_555
O15 C89 1_555 1_555
O16 C90 1_555 1_555
C64 C67 1_555 1_555
C65 C68 1_555 1_555
C66 C69 1_555 1_555
C79 C88 1_555 1_555
C80 C89 1_555 1_555
C81 C90 1_555 1_555
C82 C85 1_555 1_555
C83 C86 1_555 1_555
C84 C87 1_555 1_555
Cu14 O24 1_555 1_555
N12_2 C48_2 1_555 1_555
C93_2 C48_2 1_555 1_555
H57_2 C105_2 1_555 1_555
C108_2 C93_2 1_555 1_555
H60_2 C108_2 1_555 1_555
H69_2 C123_2 1_555 1_555
H72_2 C126_2 1_555 1_555
H75_2 C135_2 1_555 1_555
C138_2 C135_2 1_555 1_555
H78_2 C138_2 1_555 1_555
H87_2 C153_2 1_555 1_555
C156_2 C153_2 1_555 1_555
H90_2 C156_2 1_555 1_555
C105_2 C108_2 1_555 1_555
C123_2 C126_2 1_555 1_555
Cu11 O3_2 1_555 1_555
Cu18 O4_2 1_555 1_555
O3_2 C29_2 1_555 1_555
O4_2 C29_2 1_555 1_555
O9_2 Cu11 1_555 1_555
O10_2 Cu18 1_555 1_555
N3_2 C2_2 1_555 1_555
C17_2 C2_2 1_555 1_555
C18_2 C17_2 1_555 1_555
H9_2 C18_2 1_555 1_555
C19_2 C18_2 1_555 1_555
H10_2 C19_2 1_555 1_555
C20_2 C19_2 1_555 1_555
C21_2 C20_2 1_555 1_555
H11_2 C21_2 1_555 1_555
C22_2 C17_2 1_555 1_555
H12_2 C22_2 1_555 1_555
C23_2 C20_2 1_555 1_555
C24_2 C23_2 1_555 1_555
H13_2 C24_2 1_555 1_555
C25_2 C24_2 1_555 1_555
H14_2 C25_2 1_555 1_555
C26_2 C25_2 1_555 1_555
C27_2 C26_2 1_555 1_555
H15_2 C27_2 1_555 1_555
C28_2 C23_2 1_555 1_555
H16_2 C28_2 1_555 1_555
C29_2 C26_2 1_555 1_555
H17_2 C31_2 1_555 1_555
C32_2 C31_2 1_555 1_555
H18_2 C32_2 1_555 1_555
H21_2 C37_2 1_555 1_555
C38_2 C37_2 1_555 1_555
H22_2 C38_2 1_555 1_555
Cu7 O19 1_555 1_555
O19 C129_2 1_555 1_555
O20 Cu11 1_555 1_555
O25 Cu18 1_555 1_555
H51_2 C96_2 1_555 1_555
C99_2 C96_2 1_555 1_555
H54_2 C99_2 1_555 1_555
C102_2 C99_2 1_555 1_555
C111_2 C102_2 1_555 1_555
C114_2 C111_2 1_555 1_555
H63_2 C114_2 1_555 1_555
C117_2 C114_2 1_555 1_555
H66_2 C117_2 1_555 1_555
C120_2 C117_2 1_555 1_555
C129_2 C120_2 1_555 1_555
C21_2 C22_2 1_555 1_555
C27_2 C28_2 1_555 1_555
Cu14 O22_2 1_555 1_555
O30 C166_2 1_555 1_555
O37 C166_2 1_555 1_555
O40 C168_2 1_555 1_555
O42_2 Cu14 1_555 1_555
N10_2 C46_2 1_555 1_555
C49_2 N4_2 1_555 1_555
C51_2 N6_2 1_555 1_555
C91_2 C46_2 1_555 1_555
H55_2 C103_2 1_555 1_555
C106_2 C91_2 1_555 1_555
H58_2 C106_2 1_555 1_555
H67_2 C121_2 1_555 1_555
H70_2 C124_2 1_555 1_555
C130_2 C49_2 1_555 1_555
C132_2 C51_2 1_555 1_555
C133_2 C130_2 1_555 1_555
H73_2 C133_2 1_555 1_555
C136_2 C133_2 1_555 1_555
H76_2 C136_2 1_555 1_555
C139_2 C136_2 1_555 1_555
C142_2 C139_2 1_555 1_555
C144_2 C141_2 1_555 1_555
H79_2 C142_2 1_555 1_555
H81_2 C144_2 1_555 1_555
C145_2 C130_2 1_555 1_555
C147_2 C132_2 1_555 1_555
H82_2 C145_2 1_555 1_555
H84_2 C147_2 1_555 1_555
C148_2 C139_2 1_555 1_555
C150_2 C141_2 1_555 1_555
C151_2 C148_2 1_555 1_555
H85_2 C151_2 1_555 1_555
C154_2 C151_2 1_555 1_555
H88_2 C154_2 1_555 1_555
C157_2 C154_2 1_555 1_555
C160_2 C157_2 1_555 1_555
C162_2 C159_2 1_555 1_555
H91_2 C160_2 1_555 1_555
H93_2 C162_2 1_555 1_555
C163_2 C148_2 1_555 1_555
C165_2 C150_2 1_555 1_555
H94_2 C163_2 1_555 1_555
H96_2 C165_2 1_555 1_555
C166_2 C157_2 1_555 1_555
C168_2 C159_2 1_555 1_555
N10_2 C49_2 1_555 1_555
C103_2 C106_2 1_555 1_555
C121_2 C124_2 1_555 1_555
C142_2 C145_2 1_555 1_555
C144_2 C147_2 1_555 1_555
C160_2 C163_2 1_555 1_555
C162_2 C165_2 1_555 1_555
Cu1_2 O1_2 1_555 1_555
Cu2_2 O2_2 1_555 1_555
O1_2 C16_2 1_555 1_555
O2_2 C16_2 1_555 1_555
O39 C42_2 1_555 1_555
O7_2 Cu1_2 1_555 1_555
O8_2 Cu2_2 1_555 1_555
N1_2 C1_2 1_555 1_555
N2_2 C1_2 1_555 1_555
C1_2 C4_2 1_555 1_555
C3_2 N1_2 1_555 1_555
C4_2 C5_2 1_555 1_555
C5_2 H1_2 1_555 1_555
C6_2 C5_2 1_555 1_555
H2_2 C6_2 1_555 1_555
C7_2 C6_2 1_555 1_555
C8_2 C7_2 1_555 1_555
H3_2 C8_2 1_555 1_555
C9_2 C4_2 1_555 1_555
H4_2 C9_2 1_555 1_555
C10_2 C7_2 1_555 1_555
C11_2 C10_2 1_555 1_555
H5_2 C11_2 1_555 1_555
C12_2 C11_2 1_555 1_555
H6_2 C12_2 1_555 1_555
C13_2 C12_2 1_555 1_555
C14_2 C13_2 1_555 1_555
H7_2 C14_2 1_555 1_555
C15_2 C10_2 1_555 1_555
H8_2 C15_2 1_555 1_555
C16_2 C13_2 1_555 1_555
C30_2 C3_2 1_555 1_555
C34_2 C33_2 1_555 1_555
H19_2 C34_2 1_555 1_555
C35_2 C30_2 1_555 1_555
H20_2 C35_2 1_555 1_555
C36_2 C33_2 1_555 1_555
C40_2 C39_2 1_555 1_555
H23_2 C40_2 1_555 1_555
C41_2 C36_2 1_555 1_555
H24_2 C41_2 1_555 1_555
C42_2 C39_2 1_555 1_555
Cu7 O17_2 1_555 1_555
O11_2 Cu1_2 1_555 1_555
O12_2 Cu1_2 1_555 1_555
O13_2 Cu1_2 1_555 1_555
O14_2 Cu2_2 1_555 1_555
O15_2 Cu2_2 1_555 1_555
O16_2 Cu2_2 1_555 1_555
O17_2 C127_2 1_555 1_555
O20 C128_2 1_555 1_555
O25 C128_2 1_555 1_555
O31 C167_2 1_555 1_555
O38 C167_2 1_555 1_555
O41_2 Cu7 1_555 1_555
N5_2 C44_2 1_555 1_555
N7_2 C43_2 1_555 1_555
N8_2 C44_2 1_555 1_555
N9_2 C45_2 1_555 1_555
N11_2 C47_2 1_555 1_555
C43_2 C52_2 1_555 1_555
C44_2 C53_2 1_555 1_555
C45_2 C54_2 1_555 1_555
C47_2 N8_2 1_555 1_555
C50_2 N5_2 1_555 1_555
C52_2 C55_2 1_555 1_555
C53_2 C56_2 1_555 1_555
C54_2 C57_2 1_555 1_555
C55_2 H25_2 1_555 1_555
C56_2 H26_2 1_555 1_555
C57_2 H27_2 1_555 1_555
C58_2 C55_2 1_555 1_555
C59_2 C56_2 1_555 1_555
C60_2 C57_2 1_555 1_555
H28_2 C58_2 1_555 1_555
H29_2 C59_2 1_555 1_555
H30_2 C60_2 1_555 1_555
C61_2 C58_2 1_555 1_555
C62_2 C59_2 1_555 1_555
C63_2 C60_2 1_555 1_555
C64_2 C61_2 1_555 1_555
C65_2 C62_2 1_555 1_555
C66_2 C63_2 1_555 1_555
H31_2 C64_2 1_555 1_555
H32_2 C65_2 1_555 1_555
H33_2 C66_2 1_555 1_555
C67_2 C52_2 1_555 1_555
C68_2 C53_2 1_555 1_555
C69_2 C54_2 1_555 1_555
H34_2 C67_2 1_555 1_555
H35_2 C68_2 1_555 1_555
H36_2 C69_2 1_555 1_555
C70_2 C61_2 1_555 1_555
C71_2 C62_2 1_555 1_555
C72_2 C63_2 1_555 1_555
C73_2 C70_2 1_555 1_555
C74_2 C71_2 1_555 1_555
C75_2 C72_2 1_555 1_555
H37_2 C73_2 1_555 1_555
H38_2 C74_2 1_555 1_555
H39_2 C75_2 1_555 1_555
C76_2 C73_2 1_555 1_555
C77_2 C74_2 1_555 1_555
C78_2 C75_2 1_555 1_555
H40_2 C76_2 1_555 1_555
H41_2 C77_2 1_555 1_555
H42_2 C78_2 1_555 1_555
C79_2 C76_2 1_555 1_555
C80_2 C77_2 1_555 1_555
C81_2 C78_2 1_555 1_555
C82_2 C79_2 1_555 1_555
C83_2 C80_2 1_555 1_555
C84_2 C81_2 1_555 1_555
H43_2 C82_2 1_555 1_555
H44_2 C83_2 1_555 1_555
H45_2 C84_2 1_555 1_555
C85_2 C70_2 1_555 1_555
C86_2 C71_2 1_555 1_555
C87_2 C72_2 1_555 1_555
H46_2 C85_2 1_555 1_555
H47_2 C86_2 1_555 1_555
H48_2 C87_2 1_555 1_555
C88_2 O11_2 1_555 1_555
C89_2 O12_2 1_555 1_555
C90_2 O13_2 1_555 1_555
C92_2 C47_2 1_555 1_555
C95_2 C92_2 1_555 1_555
H49_2 C94_2 1_555 1_555
H50_2 C95_2 1_555 1_555
C97_2 C94_2 1_555 1_555
C98_2 C95_2 1_555 1_555
H52_2 C97_2 1_555 1_555
H53_2 C98_2 1_555 1_555
C100_2 C97_2 1_555 1_555
C101_2 C98_2 1_555 1_555
C104_2 C101_2 1_555 1_555
H56_2 C104_2 1_555 1_555
C107_2 C92_2 1_555 1_555
H59_2 C107_2 1_555 1_555
C109_2 C100_2 1_555 1_555
C110_2 C101_2 1_555 1_555
C112_2 C109_2 1_555 1_555
C113_2 C110_2 1_555 1_555
H61_2 C112_2 1_555 1_555
H62_2 C113_2 1_555 1_555
C115_2 C112_2 1_555 1_555
C116_2 C113_2 1_555 1_555
H64_2 C115_2 1_555 1_555
H65_2 C116_2 1_555 1_555
C118_2 C115_2 1_555 1_555
C119_2 C116_2 1_555 1_555
C122_2 C119_2 1_555 1_555
H68_2 C122_2 1_555 1_555
C125_2 C110_2 1_555 1_555
H71_2 C125_2 1_555 1_555
C127_2 C118_2 1_555 1_555
C128_2 C119_2 1_555 1_555
C131_2 C50_2 1_555 1_555
C134_2 C131_2 1_555 1_555
H74_2 C134_2 1_555 1_555
C137_2 C134_2 1_555 1_555
H77_2 C137_2 1_555 1_555
C140_2 C137_2 1_555 1_555
C143_2 C140_2 1_555 1_555
H80_2 C143_2 1_555 1_555
C146_2 C131_2 1_555 1_555
H83_2 C146_2 1_555 1_555
C149_2 C140_2 1_555 1_555
C152_2 C149_2 1_555 1_555
H86_2 C152_2 1_555 1_555
C155_2 C152_2 1_555 1_555
H89_2 C155_2 1_555 1_555
C158_2 C155_2 1_555 1_555
C161_2 C158_2 1_555 1_555
H92_2 C161_2 1_555 1_555
C164_2 C149_2 1_555 1_555
H95_2 C164_2 1_555 1_555
C167_2 C158_2 1_555 1_555
C8_2 C9_2 1_555 1_555
C14_2 C15_2 1_555 1_555
C34_2 C35_2 1_555 1_555
C40_2 C41_2 1_555 1_555
O14_2 C88_2 1_555 1_555
O15_2 C89_2 1_555 1_555
O16_2 C90_2 1_555 1_555
N11_2 C50_2 1_555 1_555
C64_2 C67_2 1_555 1_555
C65_2 C68_2 1_555 1_555
C66_2 C69_2 1_555 1_555
C79_2 C88_2 1_555 1_555
C80_2 C89_2 1_555 1_555
C81_2 C90_2 1_555 1_555
C82_2 C85_2 1_555 1_555
C83_2 C86_2 1_555 1_555
C84_2 C87_2 1_555 1_555
C104_2 C107_2 1_555 1_555
C122_2 C125_2 1_555 1_555
C143_2 C146_2 1_555 1_555
C161_2 C164_2 1_555 1_555
Cu1_3 O1_3 1_555 1_555
Cu2_3 O2_3 1_555 1_555
O1_3 C16_3 1_555 1_555
O2_3 C16_3 1_555 1_555
O8_3 Cu2_3 1_555 1_555
N1_3 C1_3 1_555 1_555
N2_3 C1_3 1_555 1_555
C1_3 C4_3 1_555 1_555
C3_3 N1_3 1_555 1_555
C4_3 C5_3 1_555 1_555
C5_3 H1_3 1_555 1_555
C6_3 C5_3 1_555 1_555
H2_3 C6_3 1_555 1_555
C7_3 C6_3 1_555 1_555
C8_3 C7_3 1_555 1_555
H3_3 C8_3 1_555 1_555
C9_3 C4_3 1_555 1_555
H4_3 C9_3 1_555 1_555
C10_3 C7_3 1_555 1_555
C11_3 C10_3 1_555 1_555
H5_3 C11_3 1_555 1_555
C12_3 C11_3 1_555 1_555
H6_3 C12_3 1_555 1_555
C13_3 C12_3 1_555 1_555
C14_3 C13_3 1_555 1_555
H7_3 C14_3 1_555 1_555
C15_3 C10_3 1_555 1_555
H8_3 C15_3 1_555 1_555
C16_3 C13_3 1_555 1_555
C30_3 C3_3 1_555 1_555
Cu5_2 O17_3 1_555 1_555
Cu8_2 O18_2 1_555 1_555
Cu15_2 O23_2 1_555 1_555
O11_3 Cu1_3 1_555 1_555
O12_3 Cu1_3 1_555 1_555
O13_3 Cu1_3 1_555 1_555
O14_3 Cu2_3 1_555 1_555
O15_3 Cu2_3 1_555 1_555
O16_3 Cu2_3 1_555 1_555
O17_3 C127_3 1_555 1_555
O18_2 C128_3 1_555 1_555
O21_2 Cu5_2 1_555 1_555
O23_2 C128_3 1_555 1_555
O39_2 Cu5_2 1_555 1_555
O40_2 Cu5_2 1_555 1_555
O41_3 Cu5_2 1_555 1_555
N5_3 C44_3 1_555 1_555
N7_3 C43_3 1_555 1_555
N8_3 C44_3 1_555 1_555
N9_3 C45_3 1_555 1_555
N11_3 C47_3 1_555 1_555
C43_3 C52_3 1_555 1_555
C44_3 C53_3 1_555 1_555
C45_3 C54_3 1_555 1_555
C47_3 N8_3 1_555 1_555
C50_3 N5_3 1_555 1_555
C52_3 C55_3 1_555 1_555
C53_3 C56_3 1_555 1_555
C54_3 C57_3 1_555 1_555
C55_3 H25_3 1_555 1_555
C56_3 H26_3 1_555 1_555
C57_3 H27_3 1_555 1_555
C58_3 C55_3 1_555 1_555
C59_3 C56_3 1_555 1_555
C60_3 C57_3 1_555 1_555
H28_3 C58_3 1_555 1_555
H29_3 C59_3 1_555 1_555
H30_3 C60_3 1_555 1_555
C61_3 C58_3 1_555 1_555
C62_3 C59_3 1_555 1_555
C63_3 C60_3 1_555 1_555
C64_3 C61_3 1_555 1_555
C65_3 C62_3 1_555 1_555
C66_3 C63_3 1_555 1_555
H31_3 C64_3 1_555 1_555
H32_3 C65_3 1_555 1_555
H33_3 C66_3 1_555 1_555
C67_3 C52_3 1_555 1_555
C68_3 C53_3 1_555 1_555
C69_3 C54_3 1_555 1_555
H34_3 C67_3 1_555 1_555
H35_3 C68_3 1_555 1_555
H36_3 C69_3 1_555 1_555
C70_3 C61_3 1_555 1_555
C71_3 C62_3 1_555 1_555
C72_3 C63_3 1_555 1_555
C73_3 C70_3 1_555 1_555
C74_3 C71_3 1_555 1_555
C75_3 C72_3 1_555 1_555
H37_3 C73_3 1_555 1_555
H38_3 C74_3 1_555 1_555
H39_3 C75_3 1_555 1_555
C76_3 C73_3 1_555 1_555
C77_3 C74_3 1_555 1_555
C78_3 C75_3 1_555 1_555
H40_3 C76_3 1_555 1_555
H41_3 C77_3 1_555 1_555
H42_3 C78_3 1_555 1_555
C79_3 C76_3 1_555 1_555
C80_3 C77_3 1_555 1_555
C81_3 C78_3 1_555 1_555
C82_3 C79_3 1_555 1_555
C83_3 C80_3 1_555 1_555
C84_3 C81_3 1_555 1_555
H43_3 C82_3 1_555 1_555
H44_3 C83_3 1_555 1_555
H45_3 C84_3 1_555 1_555
C85_3 C70_3 1_555 1_555
C86_3 C71_3 1_555 1_555
C87_3 C72_3 1_555 1_555
H46_3 C85_3 1_555 1_555
H47_3 C86_3 1_555 1_555
H48_3 C87_3 1_555 1_555
C88_3 O11_3 1_555 1_555
C89_3 O12_3 1_555 1_555
C90_3 O13_3 1_555 1_555
C92_3 C47_3 1_555 1_555
C95_3 C92_3 1_555 1_555
H49_3 C94_3 1_555 1_555
H50_3 C95_3 1_555 1_555
C97_3 C94_3 1_555 1_555
C98_3 C95_3 1_555 1_555
H52_3 C97_3 1_555 1_555
H53_3 C98_3 1_555 1_555
C100_3 C97_3 1_555 1_555
C101_3 C98_3 1_555 1_555
C104_3 C101_3 1_555 1_555
H56_3 C104_3 1_555 1_555
C107_3 C92_3 1_555 1_555
H59_3 C107_3 1_555 1_555
C109_3 C100_3 1_555 1_555
C110_3 C101_3 1_555 1_555
C112_3 C109_3 1_555 1_555
C113_3 C110_3 1_555 1_555
H61_3 C112_3 1_555 1_555
H62_3 C113_3 1_555 1_555
C115_3 C112_3 1_555 1_555
C116_3 C113_3 1_555 1_555
H64_3 C115_3 1_555 1_555
H65_3 C116_3 1_555 1_555
C118_3 C115_3 1_555 1_555
C119_3 C116_3 1_555 1_555
C122_3 C119_3 1_555 1_555
H68_3 C122_3 1_555 1_555
C125_3 C110_3 1_555 1_555
H71_3 C125_3 1_555 1_555
C127_3 C118_3 1_555 1_555
C128_3 C119_3 1_555 1_555
C131_3 C50_3 1_555 1_555
C134_3 C131_3 1_555 1_555
H74_3 C134_3 1_555 1_555
C8_3 C9_3 1_555 1_555
C14_3 C15_3 1_555 1_555
O14_3 C88_3 1_555 1_555
O15_3 C89_3 1_555 1_555
O16_3 C90_3 1_555 1_555
N11_3 C50_3 1_555 1_555
C64_3 C67_3 1_555 1_555
C65_3 C68_3 1_555 1_555
C66_3 C69_3 1_555 1_555
C79_3 C88_3 1_555 1_555
C80_3 C89_3 1_555 1_555
C81_3 C90_3 1_555 1_555
C82_3 C85_3 1_555 1_555
C83_3 C86_3 1_555 1_555
C84_3 C87_3 1_555 1_555
C104_3 C107_3 1_555 1_555
C122_3 C125_3 1_555 1_555
O6_2 C42_3 1_555 1_555
C34_3 C33_3 1_555 1_555
H19_3 C34_3 1_555 1_555
H20_3 C35_3 1_555 1_555
C36_3 C33_3 1_555 1_555
C40_3 C39_3 1_555 1_555
H23_3 C40_3 1_555 1_555
C41_3 C36_3 1_555 1_555
H24_3 C41_3 1_555 1_555
C42_3 C39_3 1_555 1_555
Cu6 O6_2 1_555 1_555
Cu9 O35_2 1_555 1_555
Cu16 O28_2 1_555 1_555
O28_2 C167_3 1_555 1_555
O35_2 C167_3 1_555 1_555
H77_3 C137_3 1_555 1_555
C140_3 C137_3 1_555 1_555
C143_3 C140_3 1_555 1_555
H80_3 C143_3 1_555 1_555
H83_3 C146_3 1_555 1_555
C149_3 C140_3 1_555 1_555
C152_3 C149_3 1_555 1_555
H86_3 C152_3 1_555 1_555
C155_3 C152_3 1_555 1_555
H89_3 C155_3 1_555 1_555
C158_3 C155_3 1_555 1_555
C161_3 C158_3 1_555 1_555
H92_3 C161_3 1_555 1_555
C164_3 C149_3 1_555 1_555
H95_3 C164_3 1_555 1_555
C167_3 C158_3 1_555 1_555
C34_3 C35_3 1_555 1_555
C40_3 C41_3 1_555 1_555
C143_3 C146_3 1_555 1_555
C161_3 C164_3 1_555 1_555
Cu8_2 O3_3 1_555 1_555
Cu15_2 O4_3 1_555 1_555
O3_3 C29_3 1_555 1_555
O4_3 C29_3 1_555 1_555
O9_3 Cu8_2 1_555 1_555
O10_3 Cu15_2 1_555 1_555
N3_3 C2_3 1_555 1_555
C17_3 C2_3 1_555 1_555
C18_3 C17_3 1_555 1_555
H9_3 C18_3 1_555 1_555
C19_3 C18_3 1_555 1_555
H10_3 C19_3 1_555 1_555
C20_3 C19_3 1_555 1_555
C21_3 C20_3 1_555 1_555
H11_3 C21_3 1_555 1_555
C22_3 C17_3 1_555 1_555
H12_3 C22_3 1_555 1_555
C23_3 C20_3 1_555 1_555
C24_3 C23_3 1_555 1_555
H13_3 C24_3 1_555 1_555
C25_3 C24_3 1_555 1_555
H14_3 C25_3 1_555 1_555
C26_3 C25_3 1_555 1_555
C27_3 C26_3 1_555 1_555
H15_3 C27_3 1_555 1_555
C28_3 C23_3 1_555 1_555
H16_3 C28_3 1_555 1_555
C29_3 C26_3 1_555 1_555
H17_3 C31_3 1_555 1_555
O21_2 C129_3 1_555 1_555
O30_2 Cu15_2 1_555 1_555
O31_2 Cu15_2 1_555 1_555
O37_2 Cu8_2 1_555 1_555
O38_2 Cu8_2 1_555 1_555
H51_3 C96_3 1_555 1_555
C99_3 C96_3 1_555 1_555
H54_3 C99_3 1_555 1_555
C102_3 C99_3 1_555 1_555
C111_3 C102_3 1_555 1_555
C114_3 C111_3 1_555 1_555
H63_3 C114_3 1_555 1_555
C117_3 C114_3 1_555 1_555
H66_3 C117_3 1_555 1_555
C120_3 C117_3 1_555 1_555
C129_3 C120_3 1_555 1_555
C21_3 C22_3 1_555 1_555
C27_3 C28_3 1_555 1_555
H18_3 C32_3 1_555 1_555
H21_3 C37_3 1_555 1_555
C38_3 C37_3 1_555 1_555
H22_3 C38_3 1_555 1_555
Cu13 O5_2 1_555 1_555
Cu12_2 O22_3 1_555 1_555
O26_2 Cu12_2 1_555 1_555
O32_2 Cu12_2 1_555 1_555
O33_2 Cu12_2 1_555 1_555
O42_3 Cu12_2 1_555 1_555
N10_3 C46_3 1_555 1_555
C49_3 N4_3 1_555 1_555
C51_3 N6_3 1_555 1_555
C91_3 C46_3 1_555 1_555
H55_3 C103_3 1_555 1_555
C106_3 C91_3 1_555 1_555
H58_3 C106_3 1_555 1_555
H67_3 C121_3 1_555 1_555
H70_3 C124_3 1_555 1_555
C130_3 C49_3 1_555 1_555
C132_3 C51_3 1_555 1_555
C133_3 C130_3 1_555 1_555
H73_3 C133_3 1_555 1_555
N10_3 C49_3 1_555 1_555
C103_3 C106_3 1_555 1_555
C121_3 C124_3 1_555 1_555
Cu9 O34_2 1_555 1_555
Cu6 O36_2 1_555 1_555
Cu16 O27_2 1_555 1_555
O27_2 C166_3 1_555 1_555
O34_2 C166_3 1_555 1_555
O36_2 C168_3 1_555 1_555
H76_3 C136_3 1_555 1_555
C139_3 C136_3 1_555 1_555
C142_3 C139_3 1_555 1_555
C144_3 C141_3 1_555 1_555
H79_3 C142_3 1_555 1_555
H81_3 C144_3 1_555 1_555
H82_3 C145_3 1_555 1_555
H84_3 C147_3 1_555 1_555
C148_3 C139_3 1_555 1_555
C150_3 C141_3 1_555 1_555
C151_3 C148_3 1_555 1_555
H85_3 C151_3 1_555 1_555
C154_3 C151_3 1_555 1_555
H88_3 C154_3 1_555 1_555
C157_3 C154_3 1_555 1_555
C160_3 C157_3 1_555 1_555
C162_3 C159_3 1_555 1_555
H91_3 C160_3 1_555 1_555
H93_3 C162_3 1_555 1_555
C163_3 C148_3 1_555 1_555
C165_3 C150_3 1_555 1_555
H94_3 C163_3 1_555 1_555
H96_3 C165_3 1_555 1_555
C166_3 C157_3 1_555 1_555
C168_3 C159_3 1_555 1_555
C142_3 C145_3 1_555 1_555
C144_3 C147_3 1_555 1_555
C160_3 C163_3 1_555 1_555
C162_3 C165_3 1_555 1_555
N12_3 C48_3 1_555 1_555
C93_3 C48_3 1_555 1_555
H57_3 C105_3 1_555 1_555
C108_3 C93_3 1_555 1_555
H60_3 C108_3 1_555 1_555
H69_3 C123_3 1_555 1_555
H72_3 C126_3 1_555 1_555
H75_3 C135_3 1_555 1_555
C105_3 C108_3 1_555 1_555
C123_3 C126_3 1_555 1_555
Cu13 O29_2 1_555 1_555
H78_3 C138_3 1_555 1_555
H87_3 C153_3 1_555 1_555
C156_3 C153_3 1_555 1_555
H90_3 C156_3 1_555 1_555
Cu1_4 O1_4 1_555 1_555
Cu2_4 O2_4 1_555 1_555
O1_4 C16_4 1_555 1_555
O2_4 C16_4 1_555 1_555
O7_4 Cu1_4 1_555 1_555
O8_4 Cu2_4 1_555 1_555
N2_4 C1_4 1_555 1_555
C1_4 C4_4 1_555 1_555
C4_4 C5_4 1_555 1_555
C5_4 H1_4 1_555 1_555
C6_4 C5_4 1_555 1_555
H2_4 C6_4 1_555 1_555
C7_4 C6_4 1_555 1_555
C8_4 C7_4 1_555 1_555
H3_4 C8_4 1_555 1_555
C9_4 C4_4 1_555 1_555
H4_4 C9_4 1_555 1_555
C10_4 C7_4 1_555 1_555
C11_4 C10_4 1_555 1_555
H5_4 C11_4 1_555 1_555
C12_4 C11_4 1_555 1_555
H6_4 C12_4 1_555 1_555
C13_4 C12_4 1_555 1_555
C14_4 C13_4 1_555 1_555
H7_4 C14_4 1_555 1_555
C15_4 C10_4 1_555 1_555
H8_4 C15_4 1_555 1_555
C16_4 C13_4 1_555 1_555
Cu9 O17_4 1_555 1_555
Cu6 O18_3 1_555 1_555
Cu16 O22_4 1_555 1_555
O11_4 Cu1_4 1_555 1_555
O12_4 Cu1_4 1_555 1_555
O13_4 Cu1_4 1_555 1_555
O14_4 Cu2_4 1_555 1_555
O15_4 Cu2_4 1_555 1_555
O16_4 Cu2_4 1_555 1_555
O17_4 C127_4 1_555 1_555
O18_3 C128_4 1_555 1_555
O21_3 Cu9 1_555 1_555
O22_4 C127_4 1_555 1_555
O26_3 Cu16 1_555 1_555
O30_2 C166_4 1_555 1_555
O37_2 C166_4 1_555 1_555
O40_2 C168_4 1_555 1_555
O41_4 Cu9 1_555 1_555
O42_4 Cu16 1_555 1_555
N4_4 C43_4 1_555 1_555
N6_4 C45_4 1_555 1_555
N7_4 C43_4 1_555 1_555
N8_4 C44_4 1_555 1_555
N9_4 C45_4 1_555 1_555
N10_4 C46_4 1_555 1_555
C43_4 C52_4 1_555 1_555
C44_4 C53_4 1_555 1_555
C45_4 C54_4 1_555 1_555
C46_4 N7_4 1_555 1_555
C49_4 N4_4 1_555 1_555
C51_4 N6_4 1_555 1_555
C52_4 C55_4 1_555 1_555
C53_4 C56_4 1_555 1_555
C54_4 C57_4 1_555 1_555
C55_4 H25_4 1_555 1_555
C56_4 H26_4 1_555 1_555
C57_4 H27_4 1_555 1_555
C58_4 C55_4 1_555 1_555
C59_4 C56_4 1_555 1_555
C60_4 C57_4 1_555 1_555
H28_4 C58_4 1_555 1_555
H29_4 C59_4 1_555 1_555
H30_4 C60_4 1_555 1_555
C61_4 C58_4 1_555 1_555
C62_4 C59_4 1_555 1_555
C63_4 C60_4 1_555 1_555
C64_4 C61_4 1_555 1_555
C65_4 C62_4 1_555 1_555
C66_4 C63_4 1_555 1_555
H31_4 C64_4 1_555 1_555
H32_4 C65_4 1_555 1_555
H33_4 C66_4 1_555 1_555
C67_4 C52_4 1_555 1_555
C68_4 C53_4 1_555 1_555
C69_4 C54_4 1_555 1_555
H34_4 C67_4 1_555 1_555
H35_4 C68_4 1_555 1_555
H36_4 C69_4 1_555 1_555
C70_4 C61_4 1_555 1_555
C71_4 C62_4 1_555 1_555
C72_4 C63_4 1_555 1_555
C73_4 C70_4 1_555 1_555
C74_4 C71_4 1_555 1_555
C75_4 C72_4 1_555 1_555
H37_4 C73_4 1_555 1_555
H38_4 C74_4 1_555 1_555
H39_4 C75_4 1_555 1_555
C76_4 C73_4 1_555 1_555
C77_4 C74_4 1_555 1_555
C78_4 C75_4 1_555 1_555
H40_4 C76_4 1_555 1_555
H41_4 C77_4 1_555 1_555
H42_4 C78_4 1_555 1_555
C79_4 C76_4 1_555 1_555
C80_4 C77_4 1_555 1_555
C81_4 C78_4 1_555 1_555
C82_4 C79_4 1_555 1_555
C83_4 C80_4 1_555 1_555
C84_4 C81_4 1_555 1_555
H43_4 C82_4 1_555 1_555
H44_4 C83_4 1_555 1_555
H45_4 C84_4 1_555 1_555
C85_4 C70_4 1_555 1_555
C86_4 C71_4 1_555 1_555
C87_4 C72_4 1_555 1_555
H46_4 C85_4 1_555 1_555
H47_4 C86_4 1_555 1_555
H48_4 C87_4 1_555 1_555
C88_4 O11_4 1_555 1_555
C89_4 O12_4 1_555 1_555
C90_4 O13_4 1_555 1_555
C91_4 C46_4 1_555 1_555
C94_4 C91_4 1_555 1_555
H49_4 C94_4 1_555 1_555
H50_4 C95_4 1_555 1_555
C97_4 C94_4 1_555 1_555
C98_4 C95_4 1_555 1_555
H52_4 C97_4 1_555 1_555
H53_4 C98_4 1_555 1_555
C100_4 C97_4 1_555 1_555
C101_4 C98_4 1_555 1_555
C103_4 C100_4 1_555 1_555
H55_4 C103_4 1_555 1_555
C106_4 C91_4 1_555 1_555
H58_4 C106_4 1_555 1_555
C109_4 C100_4 1_555 1_555
C110_4 C101_4 1_555 1_555
C112_4 C109_4 1_555 1_555
C113_4 C110_4 1_555 1_555
H61_4 C112_4 1_555 1_555
H62_4 C113_4 1_555 1_555
C115_4 C112_4 1_555 1_555
C116_4 C113_4 1_555 1_555
H64_4 C115_4 1_555 1_555
H65_4 C116_4 1_555 1_555
C118_4 C115_4 1_555 1_555
C119_4 C116_4 1_555 1_555
C121_4 C118_4 1_555 1_555
H67_4 C121_4 1_555 1_555
C124_4 C109_4 1_555 1_555
H70_4 C124_4 1_555 1_555
C127_4 C118_4 1_555 1_555
C128_4 C119_4 1_555 1_555
C130_4 C49_4 1_555 1_555
C132_4 C51_4 1_555 1_555
C133_4 C130_4 1_555 1_555
H73_4 C133_4 1_555 1_555
C136_4 C133_4 1_555 1_555
H76_4 C136_4 1_555 1_555
C139_4 C136_4 1_555 1_555
C142_4 C139_4 1_555 1_555
C144_4 C141_4 1_555 1_555
H79_4 C142_4 1_555 1_555
H81_4 C144_4 1_555 1_555
C145_4 C130_4 1_555 1_555
C147_4 C132_4 1_555 1_555
H82_4 C145_4 1_555 1_555
H84_4 C147_4 1_555 1_555
C148_4 C139_4 1_555 1_555
C150_4 C141_4 1_555 1_555
C151_4 C148_4 1_555 1_555
H85_4 C151_4 1_555 1_555
C154_4 C151_4 1_555 1_555
H88_4 C154_4 1_555 1_555
C157_4 C154_4 1_555 1_555
C160_4 C157_4 1_555 1_555
C162_4 C159_4 1_555 1_555
H91_4 C160_4 1_555 1_555
H93_4 C162_4 1_555 1_555
C163_4 C148_4 1_555 1_555
C165_4 C150_4 1_555 1_555
H94_4 C163_4 1_555 1_555
H96_4 C165_4 1_555 1_555
C166_4 C157_4 1_555 1_555
C168_4 C159_4 1_555 1_555
C8_4 C9_4 1_555 1_555
C14_4 C15_4 1_555 1_555
O14_4 C88_4 1_555 1_555
O15_4 C89_4 1_555 1_555
O16_4 C90_4 1_555 1_555
N10_4 C49_4 1_555 1_555
C64_4 C67_4 1_555 1_555
C65_4 C68_4 1_555 1_555
C66_4 C69_4 1_555 1_555
C79_4 C88_4 1_555 1_555
C80_4 C89_4 1_555 1_555
C81_4 C90_4 1_555 1_555
C82_4 C85_4 1_555 1_555
C83_4 C86_4 1_555 1_555
C84_4 C87_4 1_555 1_555
C103_4 C106_4 1_555 1_555
C121_4 C124_4 1_555 1_555
C142_4 C145_4 1_555 1_555
C144_4 C147_4 1_555 1_555
C160_4 C163_4 1_555 1_555
C162_4 C165_4 1_555 1_555
O39_2 C42_4 1_555 1_555
C3_4 N1_4 1_555 1_555
C30_4 C3_4 1_555 1_555
C34_4 C33_4 1_555 1_555
H19_4 C34_4 1_555 1_555
C35_4 C30_4 1_555 1_555
H20_4 C35_4 1_555 1_555
C36_4 C33_4 1_555 1_555
C40_4 C39_4 1_555 1_555
H23_4 C40_4 1_555 1_555
C41_4 C36_4 1_555 1_555
H24_4 C41_4 1_555 1_555
C42_4 C39_4 1_555 1_555
Cu13 O23_3 1_555 1_555
O31_2 C167_4 1_555 1_555
O38_2 C167_4 1_555 1_555
N11_4 C47_4 1_555 1_555
C50_4 N5_4 1_555 1_555
C92_4 C47_4 1_555 1_555
H56_4 C104_4 1_555 1_555
C107_4 C92_4 1_555 1_555
H59_4 C107_4 1_555 1_555
H68_4 C122_4 1_555 1_555
H71_4 C125_4 1_555 1_555
C131_4 C50_4 1_555 1_555
C134_4 C131_4 1_555 1_555
H74_4 C134_4 1_555 1_555
C137_4 C134_4 1_555 1_555
H77_4 C137_4 1_555 1_555
C140_4 C137_4 1_555 1_555
C143_4 C140_4 1_555 1_555
H80_4 C143_4 1_555 1_555
C146_4 C131_4 1_555 1_555
H83_4 C146_4 1_555 1_555
C149_4 C140_4 1_555 1_555
C152_4 C149_4 1_555 1_555
H86_4 C152_4 1_555 1_555
C155_4 C152_4 1_555 1_555
H89_4 C155_4 1_555 1_555
C158_4 C155_4 1_555 1_555
C161_4 C158_4 1_555 1_555
H92_4 C161_4 1_555 1_555
C164_4 C149_4 1_555 1_555
H95_4 C164_4 1_555 1_555
C167_4 C158_4 1_555 1_555
C34_4 C35_4 1_555 1_555
C40_4 C41_4 1_555 1_555
N11_4 C50_4 1_555 1_555
C104_4 C107_4 1_555 1_555
C122_4 C125_4 1_555 1_555
C143_4 C146_4 1_555 1_555
C161_4 C164_4 1_555 1_555
Cu6 O3_4 1_555 1_555
O3_4 C29_4 1_555 1_555
O9_4 Cu6 1_555 1_555
H9_4 C18_4 1_555 1_555
C19_4 C18_4 1_555 1_555
H10_4 C19_4 1_555 1_555
C20_4 C19_4 1_555 1_555
C23_4 C20_4 1_555 1_555
C24_4 C23_4 1_555 1_555
H13_4 C24_4 1_555 1_555
C25_4 C24_4 1_555 1_555
H14_4 C25_4 1_555 1_555
C26_4 C25_4 1_555 1_555
C29_4 C26_4 1_555 1_555
O21_3 C129_4 1_555 1_555
O26_3 C129_4 1_555 1_555
N12_4 C48_4 1_555 1_555
C93_4 C48_4 1_555 1_555
C96_4 C93_4 1_555 1_555
H51_4 C96_4 1_555 1_555
C99_4 C96_4 1_555 1_555
H54_4 C99_4 1_555 1_555
C102_4 C99_4 1_555 1_555
C105_4 C102_4 1_555 1_555
H57_4 C105_4 1_555 1_555
C108_4 C93_4 1_555 1_555
H60_4 C108_4 1_555 1_555
C111_4 C102_4 1_555 1_555
C114_4 C111_4 1_555 1_555
H63_4 C114_4 1_555 1_555
C117_4 C114_4 1_555 1_555
H66_4 C117_4 1_555 1_555
C120_4 C117_4 1_555 1_555
C123_4 C120_4 1_555 1_555
H69_4 C123_4 1_555 1_555
C126_4 C111_4 1_555 1_555
H72_4 C126_4 1_555 1_555
C129_4 C120_4 1_555 1_555
H75_4 C135_4 1_555 1_555
C138_4 C135_4 1_555 1_555
H78_4 C138_4 1_555 1_555
H87_4 C153_4 1_555 1_555
C156_4 C153_4 1_555 1_555
H90_4 C156_4 1_555 1_555
C105_4 C108_4 1_555 1_555
C123_4 C126_4 1_555 1_555
Cu13 O4_4 1_555 1_555
O10_4 Cu13 1_555 1_555
N3_4 C2_4 1_555 1_555
C17_4 C2_4 1_555 1_555
H11_4 C21_4 1_555 1_555
C22_4 C17_4 1_555 1_555
H12_4 C22_4 1_555 1_555
H15_4 C27_4 1_555 1_555
H16_4 C28_4 1_555 1_555
H17_4 C31_4 1_555 1_555
C32_4 C31_4 1_555 1_555
H18_4 C32_4 1_555 1_555
H21_4 C37_4 1_555 1_555
C38_4 C37_4 1_555 1_555
H22_4 C38_4 1_555 1_555
C21_4 C22_4 1_555 1_555
C27_4 C28_4 1_555 1_555

#END
