
###############################################################################
#
# This file contains modified crystal structure data generated from the
# MOF subset of the Cambridge Structural Database (CSD) v543 
# hosted by the Cambridge Crystallographic Data Centre (CCDC).
#
# This work is licensed under the Creative Commons
# Attribution-NonCommercial-ShareAlike 4.0 International License.
# To view a copy of this license, visit
# http://creativecommons.org/licenses/by-nc-sa/4.0/
# or send a letter to
# Creative Commons, PO Box 1866, Mountain View, CA 94042, USA.
#
# CIF created using the CSD Python API on 29 September 2022
# The structure has been converted into the P1 space group
# The structure has a 3D framework
# The original CSD entry BAZJET is in the hexagonal crystal system
# The framework has been calculated to contain at least 10.0% void space
# The void calculation uses a probe of radius 1.32A, grid spacing 0.4
# H atom positions have been added when not included in the experimental data
#
###############################################################################

data_BAZJET
_chemical_formula_moiety         '(C90 H90 Mn6 N54 O8)n'
_symmetry_cell_setting           triclinic
_symmetry_space_group_name_H-M   'P 1'
_symmetry_Int_Tables_number      1
_space_group_name_Hall           'P 1'
loop_
_symmetry_equiv_pos_site_id
_symmetry_equiv_pos_as_xyz
1 x,y,z
_cell_length_a                   20.792(4)
_cell_length_b                   20.792(4)
_cell_length_c                   13.814(3)
_cell_angle_alpha                90
_cell_angle_beta                 90
_cell_angle_gamma                120
_cell_volume                     5171.81
loop_
_atom_site_label
_atom_site_type_symbol
_atom_site_fract_x
_atom_site_fract_y
_atom_site_fract_z
Mn6 Mn 0.21949(3) 0.62052(2) 0.2500
Mn7 Mn 0.37948(2) 0.59897(2) 0.2500
N12 N 0.22412(13) 0.54063(9) 0.13680(14)
N20 N 0.28261(13) 0.52882(9) 0.14401(14)
N24 N 0.27077(16) 0.47157(11) 0.09079(17)
N29 N 0.20418(17) 0.44424(12) 0.04645(18)
C12 C 0.03095(17) 0.53601(12) 0.00930(17)
C17 C 0.09945(17) 0.54205(12) 0.03560(17)
H7 H 0.1412 0.5897 0.0476
C22 C 0.10671(17) 0.48017(12) 0.04406(18)
C27 C 0.04537(19) 0.40871(13) 0.0232(2)
H12 H 0.0508 0.3660 0.0273
C31 C 0.02139(18) 0.59855(12) 0.0028(2)
H16 H 0.0621 0.6465 0.0168
C37 C 0.17774(18) 0.48806(12) 0.07576(17)
N32 N 0.0105(5) 0.4364(4) 0.7500
C42 C 0.0437(8) 0.5177(5) 0.7500
C44 C 0.0521(9) 0.3936(8) 0.7500
H33 H 0.0372297 0.358805 0.685633
H34 H 0.111649 0.432522 0.75
H35 H 0.0372297 0.358805 0.814367
H36 H 0.0258336 0.534748 0.814367
H37 H 0.103993 0.543747 0.75
H38 H 0.0258336 0.534748 0.685633
Mn1 Mn 0.62052(2) 0.40103(2) 0.7500
O1 O 0.6667 0.3333 0.7500
O2 O 0.57726(13) 0.47211(13) 0.7500
N1 N 0.54063(9) 0.31651(10) 0.63680(14)
N2 N 0.52882(9) 0.24621(10) 0.64401(14)
N3 N 0.47157(11) 0.20080(12) 0.59079(17)
N4 N 0.44424(12) 0.24006(12) 0.54645(18)
C1 C 0.53601(12) 0.50506(12) 0.50930(17)
C2 C 0.54205(12) 0.44260(12) 0.53560(17)
H1 H 0.5897 0.4485 0.5476
C3 C 0.48017(12) 0.37346(12) 0.54406(18)
C4 C 0.40871(13) 0.36334(14) 0.5232(2)
H2 H 0.3660 0.3152 0.5273
C5 C 0.59855(12) 0.57716(13) 0.5028(2)
H3 H 0.6465 0.5844 0.5168
C6 C 0.48806(12) 0.31032(13) 0.57576(17)
N5 N 0.5636(4) 0.5741(3) 0.7500
C7 C 0.6064(3) 0.5416(3) 0.7500
H4 H 0.6590 0.5718 0.7500
C8 C 0.4823(5) 0.5260(6) 0.7500
C9 C 0.6064(8) 0.6585(5) 0.7500
Mn2 Mn 0.78051(3) 0.37948(2) 0.7500
Mn3 Mn 0.59897(2) 0.21949(3) 0.7500
Mn5 Mn 0.40103(2) 0.78051(3) 0.2500
O3 O 0.89485(18) 0.42274(13) 0.7500
O4 O 0.52789(13) 0.10515(18) 0.7500
N6 N 0.45937(9) 0.68349(10) 0.36320(14)
N7 N 0.54063(9) 0.31651(10) 0.86320(14)
N8 N 0.77588(13) 0.45937(9) 0.63680(14)
N9 N 0.77588(13) 0.45937(9) 0.86320(14)
N10 N 0.68349(10) 0.22412(13) 0.63680(14)
N11 N 0.68349(10) 0.22412(13) 0.86320(14)
N14 N 0.47118(9) 0.75379(10) 0.35599(14)
N15 N 0.71739(13) 0.47118(9) 0.64401(14)
N16 N 0.71739(13) 0.47118(9) 0.85599(14)
N17 N 0.75379(10) 0.28261(13) 0.64401(14)
N18 N 0.75379(10) 0.28261(13) 0.85599(14)
N19 N 0.52882(9) 0.24621(10) 0.85599(14)
N22 N 0.52843(11) 0.79920(12) 0.40921(17)
N23 N 0.72923(16) 0.52843(11) 0.90921(17)
N25 N 0.79920(12) 0.27077(16) 0.90921(17)
N27 N 0.55576(12) 0.75994(12) 0.45355(18)
N28 N 0.79582(17) 0.55576(12) 0.95355(18)
N30 N 0.75994(12) 0.20418(17) 0.95355(18)
C10 C 0.46399(12) 0.49494(12) 0.49070(17)
C11 C 0.96905(17) 0.46399(12) 0.99070(17)
C13 C 0.49494(12) 0.03095(17) 0.99070(17)
C15 C 0.45795(12) 0.55740(12) 0.46440(17)
C16 C 0.90055(17) 0.45795(12) 0.96440(17)
C18 C 0.55740(12) 0.09945(17) 0.96440(17)
H5 H 0.4103 0.5515 0.4524
H6 H 0.8588 0.4103 0.9524
H8 H 0.5515 0.1412 0.9524
C20 C 0.51983(12) 0.62654(12) 0.45594(18)
C21 C 0.89329(17) 0.51983(12) 0.95594(18)
C23 C 0.62654(12) 0.10671(17) 0.95594(18)
C25 C 0.59129(13) 0.63666(14) 0.4768(2)
C26 C 0.95463(19) 0.59129(13) 0.9768(2)
C28 C 0.63666(14) 0.04537(19) 0.9768(2)
H10 H 0.6340 0.6848 0.4727
H11 H 0.9492 0.6340 0.9727
H13 H 0.6848 0.0508 0.9727
C30 C 0.40145(12) 0.42284(13) 0.4972(2)
C32 C 0.97861(18) 0.40145(12) 0.9972(2)
C34 C 0.42284(13) 0.02139(18) 0.9972(2)
H15 H 0.3535 0.4156 0.4832
H17 H 0.9379 0.3535 0.9832
H19 H 0.4156 0.0621 0.9832
C35 C 0.51194(12) 0.68968(13) 0.42424(17)
C36 C 0.82226(18) 0.51194(12) 0.92424(17)
C38 C 0.68968(13) 0.17774(18) 0.92424(17)
C40 C 0.9352(4) 0.3936(3) 0.7500
C41 C 0.4584(3) 0.0648(4) 0.7500
H20 H 0.9128 0.3410 0.7500
H21 H 0.4282 0.0872 0.7500
H22 H 0.641195 0.678425 0.685633
H23 H 0.567478 0.679127 0.75
H24 H 0.641195 0.678425 0.814367
H25 H 0.465252 0.491086 0.814367
H26 H 0.456253 0.560246 0.75
H27 H 0.465252 0.491086 0.685633
H28 H 0.779432 0.179559 0.999128
H29 H 0.820441 0.599874 0.999128
N13 N 0.31651(10) 0.77588(13) 0.13680(14)
N21 N 0.24621(10) 0.71739(13) 0.14401(14)
N26 N 0.20080(12) 0.72923(16) 0.09079(17)
N31 N 0.24006(12) 0.79582(17) 0.04645(18)
C14 C 0.50506(12) 0.96905(17) 0.00930(17)
C19 C 0.44260(12) 0.90055(17) 0.03560(17)
H9 H 0.4485 0.8588 0.0476
C24 C 0.37346(12) 0.89329(17) 0.04406(18)
C29 C 0.36334(14) 0.95463(19) 0.0232(2)
H14 H 0.3152 0.9492 0.0273
C33 C 0.57716(13) 0.97861(18) 0.0028(2)
H18 H 0.5844 0.9379 0.0168
C39 C 0.31032(13) 0.82226(18) 0.07576(17)
N33 N 0.4259(3) 0.9895(5) 0.7500
C43 C 0.4740(6) 0.9563(8) 0.7500
C45 C 0.3415(5) 0.9479(9) 0.7500
H30 H 0.508914 0.974166 0.814367
H31 H 0.439754 0.896007 0.75
H32 H 0.508914 0.974166 0.685633
H39 H 0.321575 0.96277 0.685633
H40 H 0.320873 0.888351 0.75
H41 H 0.321575 0.96277 0.814367
N12_2 N 0.45937(9) 0.68349(16) 0.13680(14)
N20_2 N 0.47118(9) 0.75379(16) 0.14401(14)
N24_2 N 0.52843(11) 0.79920(19) 0.09079(17)
N29_2 N 0.55576(12) 0.75994(21) 0.04645(18)
C12_2 C 0.46399(12) 0.49494(21) 0.00930(17)
C17_2 C 0.45795(12) 0.55740(21) 0.03560(17)
H7_2 H 0.4103 0.5515 0.0476
C22_2 C 0.51983(12) 0.62654(21) 0.04406(18)
C27_2 C 0.59129(13) 0.63666(23) 0.0232(2)
H12_2 H 0.6340 0.6848 0.0273
C31_2 C 0.40145(12) 0.42284(22) 0.0028(2)
H16_2 H 0.3535 0.4156 0.0168
C37_2 C 0.51194(12) 0.68968(22) 0.07576(17)
N3_2 N 0.79920(12) 0.27077(16) 0.59079(17)
N4_2 N 0.75994(12) 0.20418(17) 0.54645(18)
C1_2 C 0.49494(12) 0.03095(17) 0.50930(17)
C2_2 C 0.55740(12) 0.09945(17) 0.53560(17)
H1_2 H 0.5515 0.1412 0.5476
C3_2 C 0.62654(12) 0.10671(17) 0.54406(18)
C4_2 C 0.63666(14) 0.04537(19) 0.5232(2)
H2_2 H 0.6848 0.0508 0.5273
C5_2 C 0.42284(13) 0.02139(18) 0.5028(2)
H3_2 H 0.4156 0.0621 0.5168
C6_2 C 0.68968(13) 0.17774(18) 0.57576(17)
N23_2 N 0.47157(11) 0.20080(19) 0.90921(17)
N28_2 N 0.44424(12) 0.24006(21) 0.95355(18)
C11_2 C 0.53601(12) 0.50506(21) 0.99070(17)
C16_2 C 0.54205(12) 0.44260(21) 0.96440(17)
H6_2 H 0.5897 0.4485 0.9524
C21_2 C 0.48017(12) 0.37346(21) 0.95594(18)
C26_2 C 0.40871(13) 0.36334(23) 0.9768(2)
H11_2 H 0.3660 0.3152 0.9727
C32_2 C 0.59855(12) 0.57716(22) 0.9972(2)
H17_2 H 0.6465 0.5844 0.9832
C36_2 C 0.48806(12) 0.31032(22) 0.92424(17)
H29_2 H 0.400126 0.220568 0.999128
N6_2 N 0.31651(10) 0.77588(13) 0.36320(14)
N14_2 N 0.24621(10) 0.71739(13) 0.35599(14)
N22_2 N 0.20080(12) 0.72923(16) 0.40921(17)
N27_2 N 0.24006(12) 0.79582(17) 0.45355(18)
C10_2 C 0.50506(12) 0.96905(17) 0.49070(17)
C15_2 C 0.44260(12) 0.90055(17) 0.46440(17)
H5_2 H 0.4485 0.8588 0.4524
C20_2 C 0.37346(12) 0.89329(17) 0.45594(18)
C25_2 C 0.36334(14) 0.95463(19) 0.4768(2)
H10_2 H 0.3152 0.9492 0.4727
C30_2 C 0.57716(13) 0.97861(18) 0.4972(2)
H15_2 H 0.5844 0.9379 0.4832
C35_2 C 0.31032(13) 0.82226(18) 0.42424(17)
N6_3 N 0.22412(13) 0.54063(9) 0.36320(14)
N14_3 N 0.28261(13) 0.52882(9) 0.35599(14)
N22_3 N 0.27077(16) 0.47157(11) 0.40921(17)
N27_3 N 0.20418(17) 0.44424(12) 0.45355(18)
C10_3 C 0.03095(17) 0.53601(12) 0.49070(17)
C15_3 C 0.09945(17) 0.54205(12) 0.46440(17)
H5_3 H 0.1412 0.5897 0.4524
C20_3 C 0.10671(17) 0.48017(12) 0.45594(18)
C25_3 C 0.04537(19) 0.40871(13) 0.4768(2)
H10_3 H 0.0508 0.3660 0.4727
C30_3 C 0.02139(18) 0.59855(12) 0.4972(2)
H15_3 H 0.0621 0.6465 0.4832
C35_3 C 0.17774(18) 0.48806(12) 0.42424(17)
N3_3 N 0.72923(16) 0.52843(11) 0.59079(17)
N4_3 N 0.79582(17) 0.55576(12) 0.54645(18)
C1_3 C 0.96905(17) 0.46399(12) 0.50930(17)
C2_3 C 0.90055(17) 0.45795(12) 0.53560(17)
H1_3 H 0.8588 0.4103 0.5476
C3_3 C 0.89329(17) 0.51983(12) 0.54406(18)
C4_3 C 0.95463(19) 0.59129(13) 0.5232(2)
H2_3 H 0.9492 0.6340 0.5273
C5_3 C 0.97861(18) 0.40145(12) 0.5028(2)
H3_3 H 0.9379 0.3535 0.5168
C6_3 C 0.82226(18) 0.51194(12) 0.57576(17)
N33_2 N 0.5741(3) 0.0105(5) 0.2500
C43_2 C 0.5260(6) 0.0437(8) 0.2500
C45_2 C 0.6585(5) 0.0521(9) 0.2500
H30_2 H 0.491086 0.0258336 0.314367
H31_2 H 0.560246 0.103993 0.25
H32_2 H 0.491086 0.0258336 0.185633
H39_2 H 0.678425 0.0372297 0.185633
H40_2 H 0.679127 0.111649 0.25
H41_2 H 0.678425 0.0372297 0.314367
O1_2 O 0.3333 0.6667 0.2500
O2_2 O 0.42274(13) 0.52789(13) 0.2500
N5_2 N 0.4364(4) 0.4259(3) 0.2500
C7_2 C 0.3936(3) 0.4584(3) 0.2500
H4_2 H 0.3410 0.4282 0.2500
C8_2 C 0.5177(5) 0.4740(6) 0.2500
C9_2 C 0.3936(8) 0.3415(5) 0.2500
O3_2 O 0.10515(18) 0.57726(13) 0.2500
O4_2 O 0.47211(13) 0.89485(18) 0.2500
C40_2 C 0.0648(4) 0.6064(3) 0.2500
C41_2 C 0.5416(3) 0.9352(4) 0.2500
H20_2 H 0.0872 0.6590 0.2500
H21_2 H 0.5718 0.9128 0.2500
H22_2 H 0.358805 0.321575 0.185633
H23_2 H 0.432522 0.320873 0.25
H24_2 H 0.358805 0.321575 0.314367
H25_2 H 0.534748 0.508914 0.314367
H26_2 H 0.543747 0.439754 0.25
H27_2 H 0.534748 0.508914 0.185633
H28_2 H 0.220568 0.820441 0.499128
H29_3 H 0.179559 0.400126 0.499128
N32_2 N 0.9895(5) 0.5636(4) 0.2500
C42_2 C 0.9563(8) 0.4823(5) 0.2500
C44_2 C 0.9479(9) 0.6064(8) 0.2500
H33_2 H 0.96277 0.641195 0.185633
H34_2 H 0.888351 0.567478 0.25
H35_2 H 0.96277 0.641195 0.314367
H36_2 H 0.974166 0.465252 0.314367
H37_2 H 0.896007 0.456253 0.25
H38_2 H 0.974166 0.465252 0.185633
H29_4 H 0.599874 0.779432 0.499128
H28_3 H 0.220568 0.820441 0.000871576
H29_5 H 0.179559 0.400126 0.000871576
H29_6 H 0.599874 0.779432 0.000871576
H28_4 H 0.779432 0.179559 0.500872
H29_7 H 0.820441 0.599874 0.500872
H29_8 H 0.400126 0.220568 0.500872
loop_
_geom_bond_atom_site_label_1
_geom_bond_atom_site_label_2
_geom_bond_site_symmetry_1
_geom_bond_site_symmetry_2
Mn6 N12 1_555 1_555
Mn7 N20 1_555 1_555
N12 N20 1_555 1_555
N20 N24 1_555 1_555
N24 N29 1_555 1_555
N29 C37 1_555 1_555
C12 C17 1_555 1_555
C17 H7 1_555 1_555
C22 C17 1_555 1_555
C27 C22 1_555 1_555
H12 C27 1_555 1_555
C31 C12 1_555 1_555
H16 C31 1_555 1_555
C37 N12 1_555 1_555
C22 C37 1_555 1_555
C42 N32 1_555 1_555
C44 N32 1_555 1_555
C44 H33 1_555 1_555
C44 H34 1_555 1_555
C44 H35 1_555 1_555
C42 H36 1_555 1_555
C42 H37 1_555 1_555
C42 H38 1_555 1_555
Mn1 O1 1_555 1_555
O1 Mn2 1_555 1_555
O2 Mn1 1_555 1_555
N1 Mn1 1_555 1_555
N2 N1 1_555 1_555
N3 N2 1_555 1_555
N4 N3 1_555 1_555
C1 C2 1_555 1_555
C2 H1 1_555 1_555
C3 C2 1_555 1_555
C4 C3 1_555 1_555
H2 C4 1_555 1_555
C5 C1 1_555 1_555
H3 C5 1_555 1_555
C6 N1 1_555 1_555
N5 C7 1_555 1_555
C7 O2 1_555 1_555
H4 C7 1_555 1_555
C8 N5 1_555 1_555
C9 N5 1_555 1_555
Mn2 O3 1_555 1_555
Mn3 O1 1_555 1_555
Mn7 N6 1_555 1_555
Mn5 N14 1_555 1_555
O3 C40 1_555 1_555
O4 Mn3 1_555 1_555
N6 N14 1_555 1_555
N7 Mn1 1_555 1_555
N8 Mn2 1_555 1_555
N9 Mn2 1_555 1_555
N10 Mn3 1_555 1_555
N11 Mn3 1_555 1_555
N14 N22 1_555 1_555
N15 Mn1 1_555 1_555
N16 Mn1 1_555 1_555
N17 Mn2 1_555 1_555
N18 Mn2 1_555 1_555
N19 Mn3 1_555 1_555
N22 N27 1_555 1_555
N23 N16 1_555 1_555
N25 N18 1_555 1_555
N27 C35 1_555 1_555
N28 N23 1_555 1_555
N30 N25 1_555 1_555
C10 C1 1_555 1_555
C15 C10 1_555 1_555
C16 C11 1_555 1_555
C18 C13 1_555 1_555
H5 C15 1_555 1_555
H6 C16 1_555 1_555
H8 C18 1_555 1_555
C20 C15 1_555 1_555
C21 C16 1_555 1_555
C23 C18 1_555 1_555
C25 C5 1_555 1_555
C26 C21 1_555 1_555
C28 C23 1_555 1_555
H10 C25 1_555 1_555
H11 C26 1_555 1_555
H13 C28 1_555 1_555
C30 C4 1_555 1_555
C32 C11 1_555 1_555
C34 C13 1_555 1_555
H15 C30 1_555 1_555
H17 C32 1_555 1_555
H19 C34 1_555 1_555
C35 N6 1_555 1_555
C36 N9 1_555 1_555
C38 N11 1_555 1_555
C40 H20 1_555 1_555
C41 O4 1_555 1_555
H21 C41 1_555 1_555
N2 Mn3 1_555 1_555
N4 C6 1_555 1_555
C3 C6 1_555 1_555
N9 N16 1_555 1_555
N11 N18 1_555 1_555
N28 C36 1_555 1_555
N30 C38 1_555 1_555
C10 C30 1_555 1_555
C20 C25 1_555 1_555
C20 C35 1_555 1_555
C21 C36 1_555 1_555
C23 C38 1_555 1_555
C9 H22 1_555 1_555
C9 H23 1_555 1_555
C9 H24 1_555 1_555
C8 H25 1_555 1_555
C8 H26 1_555 1_555
C8 H27 1_555 1_555
N30 H28 1_555 1_555
N28 H29 1_555 1_555
Mn5 N13 1_555 1_555
Mn6 N21 1_555 1_555
N13 N21 1_555 1_555
N21 N26 1_555 1_555
N26 N31 1_555 1_555
N31 C39 1_555 1_555
C14 C19 1_555 1_555
C19 H9 1_555 1_555
C24 C19 1_555 1_555
C29 C24 1_555 1_555
H14 C29 1_555 1_555
C33 C14 1_555 1_555
H18 C33 1_555 1_555
C39 N13 1_555 1_555
C24 C39 1_555 1_555
C43 N33 1_555 1_555
C45 N33 1_555 1_555
C43 H30 1_555 1_555
C43 H31 1_555 1_555
C43 H32 1_555 1_555
C45 H39 1_555 1_555
C45 H40 1_555 1_555
C45 H41 1_555 1_555
Mn7 N12_2 1_555 1_555
Mn5 N20_2 1_555 1_555
N12_2 N20_2 1_555 1_555
N20_2 N24_2 1_555 1_555
N24_2 N29_2 1_555 1_555
N29_2 C37_2 1_555 1_555
C12_2 C17_2 1_555 1_555
C17_2 H7_2 1_555 1_555
C22_2 C17_2 1_555 1_555
C27_2 C22_2 1_555 1_555
H12_2 C27_2 1_555 1_555
C31_2 C12_2 1_555 1_555
H16_2 C31_2 1_555 1_555
C37_2 N12_2 1_555 1_555
C22_2 C37_2 1_555 1_555
N17 N10 1_555 1_555
N3_2 N17 1_555 1_555
N4_2 N3_2 1_555 1_555
C1_2 C2_2 1_555 1_555
C2_2 H1_2 1_555 1_555
C3_2 C2_2 1_555 1_555
C4_2 C3_2 1_555 1_555
H2_2 C4_2 1_555 1_555
C5_2 C1_2 1_555 1_555
H3_2 C5_2 1_555 1_555
C6_2 N10 1_555 1_555
N23_2 N19 1_555 1_555
N28_2 N23_2 1_555 1_555
C16_2 C11_2 1_555 1_555
H6_2 C16_2 1_555 1_555
C21_2 C16_2 1_555 1_555
C26_2 C21_2 1_555 1_555
H11_2 C26_2 1_555 1_555
C32_2 C11_2 1_555 1_555
H17_2 C32_2 1_555 1_555
C36_2 N7 1_555 1_555
N4_2 C6_2 1_555 1_555
C3_2 C6_2 1_555 1_555
N7 N19 1_555 1_555
N28_2 C36_2 1_555 1_555
C21_2 C36_2 1_555 1_555
N28_2 H29_2 1_555 1_555
Mn5 N6_2 1_555 1_555
Mn6 N14_2 1_555 1_555
N6_2 N14_2 1_555 1_555
N14_2 N22_2 1_555 1_555
N22_2 N27_2 1_555 1_555
N27_2 C35_2 1_555 1_555
C15_2 C10_2 1_555 1_555
H5_2 C15_2 1_555 1_555
C20_2 C15_2 1_555 1_555
H10_2 C25_2 1_555 1_555
H15_2 C30_2 1_555 1_555
C35_2 N6_2 1_555 1_555
C10_2 C30_2 1_555 1_555
C20_2 C25_2 1_555 1_555
C20_2 C35_2 1_555 1_555
Mn6 N6_3 1_555 1_555
Mn7 N14_3 1_555 1_555
N6_3 N14_3 1_555 1_555
N14_3 N22_3 1_555 1_555
N22_3 N27_3 1_555 1_555
N27_3 C35_3 1_555 1_555
C15_3 C10_3 1_555 1_555
H5_3 C15_3 1_555 1_555
C20_3 C15_3 1_555 1_555
H10_3 C25_3 1_555 1_555
H15_3 C30_3 1_555 1_555
C35_3 N6_3 1_555 1_555
C10_3 C30_3 1_555 1_555
C20_3 C25_3 1_555 1_555
C20_3 C35_3 1_555 1_555
N15 N8 1_555 1_555
N3_3 N15 1_555 1_555
N4_3 N3_3 1_555 1_555
C1_3 C2_3 1_555 1_555
C2_3 H1_3 1_555 1_555
C3_3 C2_3 1_555 1_555
C4_3 C3_3 1_555 1_555
H2_3 C4_3 1_555 1_555
C5_3 C1_3 1_555 1_555
H3_3 C5_3 1_555 1_555
C6_3 N8 1_555 1_555
N4_3 C6_3 1_555 1_555
C3_3 C6_3 1_555 1_555
C43_2 N33_2 1_555 1_555
C45_2 N33_2 1_555 1_555
C43_2 H30_2 1_555 1_555
C43_2 H31_2 1_555 1_555
C43_2 H32_2 1_555 1_555
C45_2 H39_2 1_555 1_555
C45_2 H40_2 1_555 1_555
C45_2 H41_2 1_555 1_555
Mn7 O1_2 1_555 1_555
O1_2 Mn6 1_555 1_555
O2_2 Mn7 1_555 1_555
N5_2 C7_2 1_555 1_555
C7_2 O2_2 1_555 1_555
H4_2 C7_2 1_555 1_555
C8_2 N5_2 1_555 1_555
C9_2 N5_2 1_555 1_555
Mn6 O3_2 1_555 1_555
Mn5 O1_2 1_555 1_555
O3_2 C40_2 1_555 1_555
O4_2 Mn5 1_555 1_555
C40_2 H20_2 1_555 1_555
C41_2 O4_2 1_555 1_555
H21_2 C41_2 1_555 1_555
C9_2 H22_2 1_555 1_555
C9_2 H23_2 1_555 1_555
C9_2 H24_2 1_555 1_555
C8_2 H25_2 1_555 1_555
C8_2 H26_2 1_555 1_555
C8_2 H27_2 1_555 1_555
N27_2 H28_2 1_555 1_555
N27_3 H29_3 1_555 1_555
C42_2 N32_2 1_555 1_555
C44_2 N32_2 1_555 1_555
C44_2 H33_2 1_555 1_555
C44_2 H34_2 1_555 1_555
C44_2 H35_2 1_555 1_555
C42_2 H36_2 1_555 1_555
C42_2 H37_2 1_555 1_555
C42_2 H38_2 1_555 1_555
N27 H29_4 1_555 1_555
N31 H28_3 1_555 1_555
N29 H29_5 1_555 1_555
N29_2 H29_6 1_555 1_555
N4_2 H28_4 1_555 1_555
N4_3 H29_7 1_555 1_555
N4 H29_8 1_555 1_555

#END
