
###############################################################################
#
# This file contains modified crystal structure data generated from the
# MOF subset of the Cambridge Structural Database (CSD) v543 
# hosted by the Cambridge Crystallographic Data Centre (CCDC).
#
# This work is licensed under the Creative Commons
# Attribution-NonCommercial-ShareAlike 4.0 International License.
# To view a copy of this license, visit
# http://creativecommons.org/licenses/by-nc-sa/4.0/
# or send a letter to
# Creative Commons, PO Box 1866, Mountain View, CA 94042, USA.
#
# CIF created using the CSD Python API on 29 September 2022
# The structure has been converted into the P1 space group
# The structure has a 3D framework
# The original CSD entry BAZTUU is in the orthorhombic crystal system
# The original CSD entry BAZTUU is in a Sohncke space group
# The framework has been calculated to contain at least 10.0% void space
# The void calculation uses a probe of radius 1.32A, grid spacing 0.4
#
###############################################################################

data_BAZTUU
_chemical_formula_moiety         '(C736 H704 Cu32 I32 N64 Ni16 O32)n'
_symmetry_cell_setting           triclinic
_symmetry_space_group_name_H-M   'P 1'
_symmetry_Int_Tables_number      1
_space_group_name_Hall           'P 1'
loop_
_symmetry_equiv_pos_site_id
_symmetry_equiv_pos_as_xyz
1 x,y,z
_cell_length_a                   18.42479(20)
_cell_length_b                   35.8993(7)
_cell_length_c                   36.7318(4)
_cell_angle_alpha                90
_cell_angle_beta                 90
_cell_angle_gamma                90
_cell_volume                     24295.8
loop_
_atom_site_label
_atom_site_type_symbol
_atom_site_fract_x
_atom_site_fract_y
_atom_site_fract_z
I2 I 0.09041(8) 0.68902(5) 0.29469(5)
I3 I 0.08203(9) 0.80626(5) 0.24508(5)
Cu1 Cu 0.05710(18) 0.76289(13) 0.30264(10)
Cu2 Cu 0.0492(2) 0.73020(13) 0.23713(11)
C6 C 0.4244(16) 0.6761(7) 0.1074(7)
C8 C 0.2886(13) 0.6839(7) 0.1222(6)
C9 C 0.2728(16) 0.6841(8) 0.0813(7)
H5 H 0.226152 0.687649 0.072208
C11 C 0.3097(18) 0.6781(9) 0.0224(8)
H6 H 0.260385 0.677209 0.017012
C12 C 0.2300(12) 0.6916(6) 0.1461(6)
O1 O 0.5542(12) 0.6884(6) 0.0036(6)
O2 O 0.4616(11) 0.6772(6) 0.0490(5)
C19 C 0.4017(18) 0.6783(9) 0.0701(9)
C23 C 0.3298(13) 0.6789(7) 0.0595(6)
N5 N 0.1245(11) 0.7145(6) 0.1994(5)
C33 C 0.3575(15) 0.6810(8) 0.1299(8)
H18 H 0.367041 0.682208 0.154705
C35 C 0.1058(19) 0.7041(9) 0.1667(9)
H20 H 0.056710 0.700710 0.161776
C36 C 0.1572(14) 0.6977(7) 0.1376(7)
H21 H 0.141817 0.697670 0.113429
C37 C 0.1889(18) 0.7092(9) 0.2069(9)
H22 H 0.202161 0.711645 0.231165
C39 C 0.2441(16) 0.7000(8) 0.1822(8)
H24 H 0.291808 0.699451 0.190372
C43 C 0.546(2) 0.6966(11) 0.1115(11)
H26 H 0.523818 0.719509 0.119330
H27 H 0.591127 0.693168 0.123669
H28 H 0.553294 0.697346 0.085660
C44 C 0.4980(18) 0.6661(9) 0.1202(9)
C45 C 0.497(2) 0.6590(12) 0.1639(11)
H29 H 0.470405 0.678490 0.175618
H30 H 0.475143 0.635417 0.169006
H31 H 0.546344 0.658997 0.172863
C50 C 0.697(2) 0.7019(16) 0.0308(16)
C51 C 0.690(2) 0.6663(12) 0.0466(13)
H39 H 0.706286 0.647768 0.029690
H40 H 0.718394 0.665082 0.068398
H41 H 0.639736 0.661872 0.052431
C52 C 0.683(2) 0.7384(11) 0.0407(12)
H42 H 0.696695 0.754697 0.021047
H43 H 0.632649 0.741381 0.045948
H44 H 0.711308 0.744591 0.061915
C90 C 0.537(4) 0.6373(19) 0.107(2)
H80 H 0.510841 0.614522 0.111558
H81 H 0.544894 0.640484 0.081794
H82 H 0.582727 0.636307 0.119803
C92 C 0.774(3) 0.7025(14) 0.023(3)
H86 H 0.789309 0.678078 0.015485
H87 H 0.782964 0.719824 0.003372
H88 H 0.800253 0.710034 0.044050
N9 N 0.1253(11) 0.7769(6) 0.3394(6)
Ni1 Ni 0.4564(3) 0.68361(13) 0.99776(13)
N1 N 0.3541(12) 0.6784(6) 0.9956(6)
C7 C 0.5844(15) 0.6926(7) 0.9410(7)
C10 C 0.6061(19) 0.6920(10) 0.9774(10)
N3 N 0.4517(14) 0.6877(7) 0.9485(7)
C13 C 0.7123(15) 0.6958(8) 0.9204(7)
C15 C 0.5128(14) 0.6905(7) 0.9253(7)
H8 H 0.506752 0.690939 0.900195
C16 C 0.6413(17) 0.6963(9) 0.9118(9)
H9 H 0.627348 0.698962 0.887655
C17 C 0.7669(15) 0.7026(8) 0.8944(7)
C21 C 0.3607(11) 0.7326(5) 0.9291(7)
C24 C 0.381(2) 0.6960(11) 0.9310(11)
H11 H 0.381743 0.685649 0.906336
C27 C 0.2905(11) 0.7420(5) 0.9157(7)
H13 H 0.257210 0.724202 0.908030
C29 C 0.7302(19) 0.6982(9) 0.9556(9)
H15 H 0.779657 0.700548 0.960144
C30 C 0.3300(18) 0.6705(9) 0.9563(8)
H16 H 0.279747 0.678915 0.953381
C34 C 0.3964(11) 0.7637(6) 0.9418(7)
H19 H 0.434723 0.759855 0.957855
C42 C 0.2765(11) 0.7786(6) 0.9151(7)
H25 H 0.228054 0.783516 0.909762
C49 C 0.8387(15) 0.7093(11) 0.9027(11)
H38 H 0.853894 0.708605 0.926801
C53 C 0.333(3) 0.6299(17) 0.9498(14)
C54 C 0.284(3) 0.6205(19) 0.9228(14)
H45 H 0.253588 0.638579 0.912720
C55 C 0.681(2) 0.6977(10) 0.9906(10)
C56 C 0.381(3) 0.6073(16) 0.9678(17)
H46 H 0.415065 0.614979 0.985154
C58 C 0.3141(15) 0.8091(5) 0.9201(9)
H48 H 0.298372 0.833296 0.915587
C62 C 0.329(3) 0.5600(19) 0.9265(15)
H51 H 0.334204 0.535950 0.917334
C64 C 0.372(3) 0.5713(18) 0.9556(16)
H55 H 0.396058 0.552627 0.968289
C66 C 0.280(4) 0.5841(17) 0.9110(19)
H57 H 0.246644 0.576374 0.893601
C67 C 0.888(2) 0.7169(8) 0.8756(6)
H58 H 0.936524 0.718076 0.882708
C68 C 0.8020(12) 0.7202(11) 0.8318(10)
H59 H 0.785676 0.720506 0.807833
N7 N 0.8747(11) 0.7231(6) 0.8394(6)
C69 C 0.754(2) 0.7167(11) 0.8601(8)
H60 H 0.706484 0.724869 0.855649
C87 C 0.3807(16) 0.7989(6) 0.9331(12)
H75 H 0.416175 0.817102 0.935937
Cu5 Cu 0.94290(18) 0.73711(13) 0.80264(10)
I2_2 I 0.90959(8) 0.81098(5) 0.79469(5)
I3_2 I 0.91797(9) 0.69374(5) 0.74508(5)
Cu2_2 Cu 0.9508(2) 0.76980(13) 0.73713(11)
Ni1_2 Ni 0.5436(3) 0.81639(13) 0.49776(13)
C6_2 C 0.5756(16) 0.8239(7) 0.6074(7)
N1_2 N 0.6459(12) 0.8216(6) 0.4956(6)
C7_2 C 0.4156(15) 0.8074(7) 0.4410(7)
C8_2 C 0.7114(13) 0.8161(7) 0.6222(6)
C9_2 C 0.7272(16) 0.8159(8) 0.5813(7)
H5_2 H 0.773848 0.812351 0.572208
C10_2 C 0.3939(19) 0.8080(10) 0.4774(10)
N3_2 N 0.5483(14) 0.8123(7) 0.4485(7)
C11_2 C 0.6903(18) 0.8219(9) 0.5224(8)
H6_2 H 0.739615 0.822791 0.517012
C12_2 C 0.7700(12) 0.8084(6) 0.6461(6)
C13_2 C 0.2877(15) 0.8042(8) 0.4204(7)
O1_2 O 0.4458(12) 0.8116(6) 0.5036(6)
O2_2 O 0.5384(11) 0.8228(6) 0.5490(5)
C15_2 C 0.4872(14) 0.8095(7) 0.4253(7)
H8_2 H 0.493248 0.809061 0.400195
C16_2 C 0.3587(17) 0.8037(9) 0.4118(9)
H9_2 H 0.372652 0.801038 0.387655
C17_2 C 0.2331(15) 0.7974(8) 0.3944(7)
C19_2 C 0.5983(18) 0.8217(9) 0.5701(9)
C21_2 C 0.6393(11) 0.7674(5) 0.4291(7)
C23_2 C 0.6702(13) 0.8211(7) 0.5595(6)
C24_2 C 0.619(2) 0.8040(11) 0.4310(11)
H11_2 H 0.618257 0.814351 0.406336
C27_2 C 0.7095(11) 0.7580(5) 0.4157(7)
H13_2 H 0.742790 0.775798 0.408030
C29_2 C 0.2698(19) 0.8018(9) 0.4556(9)
H15_2 H 0.220343 0.799452 0.460144
C30_2 C 0.6700(18) 0.8295(9) 0.4563(8)
H16_2 H 0.720253 0.821085 0.453381
N5_2 N 0.8755(11) 0.7855(6) 0.6994(5)
C33_2 C 0.6425(15) 0.8190(8) 0.6299(8)
H18_2 H 0.632959 0.817792 0.654705
C34_2 C 0.6036(11) 0.7363(6) 0.4418(7)
H19_2 H 0.565277 0.740145 0.457855
C35_2 C 0.8942(19) 0.7959(9) 0.6667(9)
H20_2 H 0.943290 0.799290 0.661776
C36_2 C 0.8428(14) 0.8023(7) 0.6376(7)
H21_2 H 0.858183 0.802330 0.613429
C37_2 C 0.8111(18) 0.7908(9) 0.7069(9)
H22_2 H 0.797839 0.788355 0.731165
C39_2 C 0.7559(16) 0.8000(8) 0.6822(8)
H24_2 H 0.708192 0.800549 0.690372
C42_2 C 0.7235(11) 0.7214(6) 0.4151(7)
H25_2 H 0.771946 0.716484 0.409762
C43_2 C 0.454(2) 0.8034(11) 0.6115(11)
H26_2 H 0.476182 0.780491 0.619330
H27_2 H 0.408873 0.806832 0.623669
H28_2 H 0.446706 0.802654 0.585660
C44_2 C 0.5020(18) 0.8339(9) 0.6202(9)
C45_2 C 0.503(2) 0.8410(12) 0.6639(11)
H29_2 H 0.529595 0.821510 0.675618
H30_2 H 0.524857 0.864583 0.669006
H31_2 H 0.453656 0.841003 0.672863
C49_2 C 0.1613(15) 0.7907(11) 0.4027(11)
H38_2 H 0.146106 0.791395 0.426801
C50_2 C 0.303(2) 0.7981(16) 0.5308(16)
C51_2 C 0.310(2) 0.8337(12) 0.5466(13)
H39_2 H 0.293714 0.852232 0.529690
H40_2 H 0.281606 0.834918 0.568398
H41_2 H 0.360264 0.838128 0.552431
C52_2 C 0.317(2) 0.7616(11) 0.5407(12)
H42_2 H 0.303305 0.745303 0.521047
H43_2 H 0.367351 0.758619 0.545948
H44_2 H 0.288692 0.755409 0.561915
C53_2 C 0.667(3) 0.8701(17) 0.4498(14)
C54_2 C 0.716(3) 0.8795(19) 0.4228(14)
H45_2 H 0.746412 0.861421 0.412720
C55_2 C 0.319(2) 0.8023(10) 0.4906(10)
C56_2 C 0.619(3) 0.8927(16) 0.4678(17)
H46_2 H 0.584935 0.885021 0.485154
C58_2 C 0.6859(15) 0.6909(5) 0.4201(9)
H48_2 H 0.701628 0.666704 0.415587
C62_2 C 0.671(3) 0.9400(19) 0.4265(15)
H51_2 H 0.665796 0.964050 0.417334
C64_2 C 0.628(3) 0.9287(18) 0.4556(16)
H55_2 H 0.603942 0.947373 0.468289
C66_2 C 0.720(4) 0.9159(17) 0.4110(19)
H57_2 H 0.753356 0.923626 0.393601
C67_2 C 0.112(2) 0.7831(8) 0.3756(6)
H58_2 H 0.063476 0.781924 0.382708
C68_2 C 0.1980(12) 0.7798(11) 0.3318(10)
H59_2 H 0.214324 0.779494 0.307833
C69_2 C 0.246(2) 0.7833(11) 0.3601(8)
H60_2 H 0.293516 0.775131 0.355649
C87_2 C 0.6193(16) 0.7011(6) 0.4331(12)
H75_2 H 0.583825 0.682898 0.435937
C90_2 C 0.463(4) 0.8627(19) 0.607(2)
H80_2 H 0.489159 0.885478 0.611558
H81_2 H 0.455106 0.859516 0.581794
H82_2 H 0.417273 0.863693 0.619803
C92_2 C 0.226(3) 0.7975(14) 0.523(3)
H86_2 H 0.210691 0.821922 0.515485
H87_2 H 0.217036 0.780176 0.503372
H88_2 H 0.199747 0.789966 0.544050
C1 C 0.491(2) 0.3881(11) 0.3287(11)
C2 C 0.706(2) 0.4867(10) 0.3343(10)
C3 C 0.673(3) 0.4725(16) 0.3723(15)
H1 H 0.689316 0.488343 0.391684
H2 H 0.620882 0.473193 0.371094
H3 H 0.688556 0.447392 0.376868
I1 I 0.92548(8) 0.77388(6) 0.33124(5)
I4 I 0.91521(9) 0.72217(5) 0.21714(5)
Cu3 Cu 0.9517(2) 0.78123(11) 0.25822(12)
Cu4 Cu 0.9561(2) 0.71496(11) 0.28869(10)
Ni2 Ni 0.4601(2) 0.51912(13) 0.31977(16)
C4 C 0.5937(16) 0.5777(7) 0.3227(7)
C5 C 0.7702(14) 0.6570(7) 0.3300(7)
H4 H 0.729165 0.663791 0.343163
N2 N 0.361(2) 0.5231(11) 0.2996(11)
C14 C 0.7344(17) 0.5578(8) 0.3234(8)
H7 H 0.782637 0.550283 0.322386
O3 O 0.5584(11) 0.5136(6) 0.3269(5)
C18 C 0.6831(17) 0.5305(9) 0.3272(8)
N4 N 0.8883(11) 0.6773(5) 0.3030(5)
C20 C 0.7202(15) 0.5965(7) 0.3208(7)
C22 C 0.8231(13) 0.6817(7) 0.3234(7)
H10 H 0.816256 0.705118 0.333700
C25 C 0.6486(19) 0.6047(10) 0.3194(9)
H12 H 0.635024 0.629424 0.316097
C26 C 0.7776(13) 0.6225(6) 0.3171(6)
C28 C 0.5173(17) 0.5910(9) 0.3232(8)
H14 H 0.510657 0.616639 0.322959
C31 C 0.6065(15) 0.5395(7) 0.3255(7)
C32 C 0.8949(12) 0.6423(6) 0.2933(6)
H17 H 0.937393 0.635272 0.281555
O4 O 0.4562(16) 0.4712(8) 0.3167(8)
N6 N 0.4628(18) 0.5723(9) 0.3239(9)
C38 C 0.8428(16) 0.6152(8) 0.2994(8)
H23 H 0.851841 0.591057 0.291293
C40 C 0.328(2) 0.4619(11) 0.2995(10)
C41 C 0.4041(18) 0.4464(9) 0.3101(9)
C46 C 0.684(3) 0.4649(14) 0.3062(13)
H32 H 0.632844 0.467136 0.303232
H33 H 0.708223 0.472849 0.284240
H34 H 0.696740 0.439456 0.311133
C47 C 0.787(3) 0.4824(15) 0.3379(15)
H35 H 0.804224 0.497472 0.357625
H36 H 0.798524 0.456723 0.342548
H37 H 0.810008 0.490116 0.315656
C48 C 0.409(3) 0.4065(12) 0.3145(12)
C57 C 0.3945(18) 0.5883(9) 0.3347(9)
H47 H 0.392921 0.614070 0.325867
C59 C 0.3174(19) 0.4996(9) 0.2989(9)
H49 H 0.269350 0.507394 0.297684
C60 C 0.376(2) 0.5884(11) 0.3773(12)
C61 C 0.405(3) 0.6203(12) 0.3929(11)
H50 H 0.426442 0.638487 0.378604
C63 C 0.541(3) 0.3940(14) 0.2974(12)
H52 H 0.524176 0.380561 0.276557
H53 H 0.543881 0.420096 0.291748
H54 H 0.588950 0.385191 0.303858
C65 C 0.342(3) 0.5603(16) 0.3963(19)
H56 H 0.323380 0.539448 0.384589
C70 C 0.3648(19) 0.5699(9) 0.2466(8)
H61 H 0.404594 0.554347 0.250030
C71 C 0.399(3) 0.6244(13) 0.4302(11)
H62 H 0.417207 0.645564 0.441873
C72 C 0.321(2) 0.5778(12) 0.2761(11)
C73 C 0.262(3) 0.6014(14) 0.2725(15)
H63 H 0.234402 0.607421 0.292779
C74 C 0.352(2) 0.5840(10) 0.2122(9)
H64 H 0.381587 0.579150 0.192174
C75 C 0.337(3) 0.5651(13) 0.3129(13)
H65 H 0.291991 0.563687 0.326933
C76 C 0.367(3) 0.5960(14) 0.4495(17)
H66 H 0.364930 0.598014 0.474736
C77 C 0.291(2) 0.6060(12) 0.2110(14)
H67 H 0.278913 0.615289 0.188138
C78 C 0.245(3) 0.6160(16) 0.2389(13)
H68 H 0.205509 0.631576 0.235396
C79 C 0.3522(18) 0.3854(10) 0.3050(9)
H69 H 0.357623 0.359684 0.306903
C80 C 0.2864(16) 0.3987(8) 0.2925(8)
C81 C 0.2305(11) 0.3702(6) 0.2805(7)
C82 C 0.2783(19) 0.4347(9) 0.2926(9)
H70 H 0.231824 0.443202 0.287193
C83 C 0.2479(11) 0.3351(5) 0.2679(6)
H71 H 0.296284 0.328394 0.264880
C84 C 0.1583(10) 0.3807(6) 0.2795(6)
H72 H 0.145043 0.404900 0.285792
C85 C 0.1934(10) 0.3100(6) 0.2598(6)
H73 H 0.206404 0.285494 0.254847
N8 N 0.1206(12) 0.3192(6) 0.2586(7)
C86 C 0.1058(14) 0.3554(6) 0.2691(6)
H74 H 0.057666 0.363134 0.269191
C88 C 0.338(3) 0.5646(18) 0.434(2)
H76 H 0.314933 0.546605 0.447786
C89 C 0.474(3) 0.3477(12) 0.3352(14)
H77 H 0.441618 0.345335 0.355467
H78 H 0.452211 0.337212 0.313871
H79 H 0.518518 0.334629 0.340496
C91 C 0.514(4) 0.4083(17) 0.3626(13)
H83 H 0.479433 0.403528 0.381684
H84 H 0.560852 0.399621 0.369895
H85 H 0.515783 0.434526 0.357784
Cu6 Cu 0.0483(2) 0.28123(11) 0.24178(12)
N10 N 0.8794(12) 0.8192(6) 0.2414(7)
I1_2 I 0.07452(8) 0.27388(6) 0.16876(5)
I4_2 I 0.08479(9) 0.22217(5) 0.28286(5)
Cu4_2 Cu 0.0439(2) 0.21496(11) 0.21131(10)
Ni2_2 Ni 0.5399(2) 0.01912(13) 0.18023(16)
C4_2 C 0.4063(16) 0.0777(7) 0.1773(7)
C5_2 C 0.2298(14) 0.1570(7) 0.1700(7)
H4_2 H 0.270835 0.163791 0.156837
N2_2 N 0.639(2) 0.0231(11) 0.2004(11)
C14_2 C 0.2656(17) 0.0578(8) 0.1766(8)
H7_2 H 0.217363 0.050283 0.177614
O3_2 O 0.4416(11) 0.0136(6) 0.1731(5)
C18_2 C 0.3169(17) 0.0305(9) 0.1728(8)
N4_2 N 0.1117(11) 0.1773(5) 0.1970(5)
C20_2 C 0.2798(15) 0.0965(7) 0.1792(7)
C22_2 C 0.1769(13) 0.1817(7) 0.1766(7)
H10_2 H 0.183744 0.205118 0.166300
C25_2 C 0.3514(19) 0.1047(10) 0.1806(9)
H12_2 H 0.364976 0.129424 0.183903
C26_2 C 0.2224(13) 0.1225(6) 0.1829(6)
C28_2 C 0.4827(17) 0.0910(9) 0.1768(8)
H14_2 H 0.489343 0.116639 0.177041
C31_2 C 0.3935(15) 0.0395(7) 0.1745(7)
C32_2 C 0.1051(12) 0.1423(6) 0.2067(6)
H17_2 H 0.062607 0.135272 0.218445
N6_2 N 0.5372(18) 0.0723(9) 0.1761(9)
C38_2 C 0.1572(16) 0.1152(8) 0.2006(8)
H23_2 H 0.148159 0.091057 0.208707
C57_2 C 0.6055(18) 0.0883(9) 0.1653(9)
H47_2 H 0.607079 0.114070 0.174133
H49_2 H 0.730650 0.007394 0.202316
C60_2 C 0.624(2) 0.0884(11) 0.1227(12)
C61_2 C 0.595(3) 0.1203(12) 0.1071(11)
H50_2 H 0.573558 0.138487 0.121396
C65_2 C 0.658(3) 0.0603(16) 0.1037(19)
H56_2 H 0.676620 0.039448 0.115411
C70_2 C 0.6352(19) 0.0699(9) 0.2534(8)
H61_2 H 0.595406 0.054347 0.249970
C71_2 C 0.601(3) 0.1244(13) 0.0698(11)
H62_2 H 0.582793 0.145564 0.058127
C72_2 C 0.679(2) 0.0778(12) 0.2239(11)
C73_2 C 0.738(3) 0.1014(14) 0.2275(15)
H63_2 H 0.765598 0.107421 0.207221
C74_2 C 0.648(2) 0.0840(10) 0.2878(9)
H64_2 H 0.618413 0.079150 0.307826
C75_2 C 0.663(3) 0.0651(13) 0.1871(13)
H65_2 H 0.708009 0.063687 0.173067
C76_2 C 0.633(3) 0.0960(14) 0.0505(17)
H66_2 H 0.635070 0.098014 0.025264
C77_2 C 0.709(2) 0.1060(12) 0.2890(14)
H67_2 H 0.721087 0.115289 0.311862
C78_2 C 0.755(3) 0.1160(16) 0.2611(13)
H68_2 H 0.794491 0.131576 0.264604
C88_2 C 0.662(3) 0.0646(18) 0.066(2)
H76_2 H 0.685067 0.046605 0.052214
C1_2 C 0.509(2) 0.8881(11) 0.1713(11)
C2_2 C 0.294(2) 0.9867(10) 0.1657(10)
C3_2 C 0.327(3) 0.9725(16) 0.1277(15)
H1_2 H 0.310684 0.988343 0.108316
H2_2 H 0.379118 0.973193 0.128906
H3_2 H 0.311444 0.947392 0.123132
O4_2 O 0.5438(16) 0.9712(8) 0.1833(8)
C40_2 C 0.672(2) 0.9619(11) 0.2005(10)
C41_2 C 0.5959(18) 0.9464(9) 0.1899(9)
C46_2 C 0.316(3) 0.9649(14) 0.1938(13)
H32_2 H 0.367156 0.967136 0.196768
H33_2 H 0.291777 0.972849 0.215760
H34_2 H 0.303260 0.939456 0.188867
C47_2 C 0.213(3) 0.9824(15) 0.1621(15)
H35_2 H 0.195776 0.997472 0.142375
H36_2 H 0.201476 0.956723 0.157452
H37_2 H 0.189992 0.990116 0.184344
C48_2 C 0.591(3) 0.9065(12) 0.1855(12)
C59_2 C 0.6826(19) 0.9996(9) 0.2011(9)
C63_2 C 0.459(3) 0.8940(14) 0.2026(12)
H52_2 H 0.475824 0.880561 0.223443
H53_2 H 0.456119 0.920096 0.208252
H54_2 H 0.411050 0.885191 0.196142
C79_2 C 0.6478(18) 0.8854(10) 0.1950(9)
H69_2 H 0.642377 0.859684 0.193097
C80_2 C 0.7136(16) 0.8987(8) 0.2075(8)
C81_2 C 0.7695(11) 0.8702(6) 0.2195(7)
C82_2 C 0.7217(19) 0.9347(9) 0.2074(9)
H70_2 H 0.768176 0.943202 0.212807
C83_2 C 0.7521(11) 0.8351(5) 0.2321(6)
H71_2 H 0.703716 0.828394 0.235120
C84_2 C 0.8417(10) 0.8807(6) 0.2205(6)
H72_2 H 0.854957 0.904900 0.214208
C85_2 C 0.8066(10) 0.8100(6) 0.2402(6)
H73_2 H 0.793596 0.785494 0.245153
C86_2 C 0.8942(14) 0.8554(6) 0.2309(6)
H74_2 H 0.942334 0.863134 0.230809
C89_2 C 0.526(3) 0.8477(12) 0.1648(14)
H77_2 H 0.558382 0.845335 0.144533
H78_2 H 0.547789 0.837212 0.186129
H79_2 H 0.481482 0.834629 0.159504
C91_2 C 0.486(4) 0.9083(17) 0.1374(13)
H83_2 H 0.520567 0.903528 0.118316
H84_2 H 0.439148 0.899621 0.130105
H85_2 H 0.484217 0.934526 0.142216
C1_3 C 0.509(2) 0.1119(11) 0.8287(11)
C2_3 C 0.294(2) 0.0133(10) 0.8343(10)
C3_3 C 0.327(3) 0.0275(16) 0.8723(15)
H1_3 H 0.310684 0.011657 0.891684
H2_3 H 0.379118 0.026807 0.871094
H3_3 H 0.311444 0.052608 0.876868
O4_3 O 0.5438(16) 0.0288(8) 0.8167(8)
C40_3 C 0.672(2) 0.0381(11) 0.7995(10)
C41_3 C 0.5959(18) 0.0536(9) 0.8101(9)
C46_3 C 0.316(3) 0.0351(14) 0.8062(13)
H32_3 H 0.367156 0.032864 0.803232
H33_3 H 0.291777 0.027151 0.784240
H34_3 H 0.303260 0.060544 0.811133
C47_3 C 0.213(3) 0.0176(15) 0.8379(15)
H35_3 H 0.195776 0.002528 0.857625
H36_3 H 0.201476 0.043277 0.842548
H37_3 H 0.189992 0.009884 0.815656
C48_3 C 0.591(3) 0.0935(12) 0.8145(12)
C59_3 C 0.6826(19) 0.0004(9) 0.7989(9)
C63_3 C 0.459(3) 0.1060(14) 0.7974(12)
H52_3 H 0.475824 0.119439 0.776557
H53_3 H 0.456119 0.079904 0.791748
H54_3 H 0.411050 0.114809 0.803858
C79_3 C 0.6478(18) 0.1146(10) 0.8050(9)
H69_3 H 0.642377 0.140316 0.806903
C80_3 C 0.7136(16) 0.1013(8) 0.7925(8)
C81_3 C 0.7695(11) 0.1298(6) 0.7805(7)
C82_3 C 0.7217(19) 0.0653(9) 0.7926(9)
H70_3 H 0.768176 0.056798 0.787193
C83_3 C 0.7521(11) 0.1649(5) 0.7679(6)
H71_3 H 0.703716 0.171606 0.764880
C84_3 C 0.8417(10) 0.1193(6) 0.7795(6)
H72_3 H 0.854957 0.095100 0.785792
C85_3 C 0.8066(10) 0.1900(6) 0.7598(6)
H73_3 H 0.793596 0.214506 0.754847
N8_2 N 0.8794(12) 0.1808(6) 0.7586(7)
C86_3 C 0.8942(14) 0.1446(6) 0.7691(6)
H74_3 H 0.942334 0.136866 0.769191
C89_3 C 0.526(3) 0.1523(12) 0.8352(14)
H77_3 H 0.558382 0.154665 0.855467
H78_3 H 0.547789 0.162788 0.813871
H79_3 H 0.481482 0.165371 0.840496
C91_3 C 0.486(4) 0.0917(17) 0.8626(13)
H83_3 H 0.520567 0.096472 0.881684
H84_3 H 0.439148 0.100379 0.869895
H85_3 H 0.484217 0.065474 0.857784
Cu6_2 Cu 0.9517(2) 0.21877(11) 0.74178(12)
I1_3 I 0.07452(8) 0.72612(6) 0.83124(5)
I4_3 I 0.08479(9) 0.77783(5) 0.71714(5)
Cu3_2 Cu 0.0483(2) 0.71877(11) 0.75822(12)
Cu4_3 Cu 0.0439(2) 0.78504(11) 0.78869(10)
Ni2_3 Ni 0.5399(2) 0.98088(13) 0.81977(16)
C4_3 C 0.4063(16) 0.9223(7) 0.8227(7)
C5_3 C 0.2298(14) 0.8430(7) 0.8300(7)
H4_3 H 0.270835 0.836209 0.843163
N2_3 N 0.639(2) 0.9769(11) 0.7996(11)
C14_3 C 0.2656(17) 0.9422(8) 0.8234(8)
H7_3 H 0.217363 0.949717 0.822386
O3_3 O 0.4416(11) 0.9864(6) 0.8269(5)
C18_3 C 0.3169(17) 0.9695(9) 0.8272(8)
N4_3 N 0.1117(11) 0.8227(5) 0.8030(5)
C20_3 C 0.2798(15) 0.9035(7) 0.8208(7)
C22_3 C 0.1769(13) 0.8183(7) 0.8234(7)
H10_3 H 0.183744 0.794882 0.833700
C25_3 C 0.3514(19) 0.8953(10) 0.8194(9)
H12_3 H 0.364976 0.870576 0.816097
C26_3 C 0.2224(13) 0.8775(6) 0.8171(6)
C28_3 C 0.4827(17) 0.9090(9) 0.8232(8)
H14_3 H 0.489343 0.883361 0.822959
C31_3 C 0.3935(15) 0.9605(7) 0.8255(7)
C32_3 C 0.1051(12) 0.8577(6) 0.7933(6)
H17_3 H 0.062607 0.864728 0.781555
N6_3 N 0.5372(18) 0.9277(9) 0.8239(9)
C38_3 C 0.1572(16) 0.8848(8) 0.7994(8)
H23_3 H 0.148159 0.908943 0.791293
C57_3 C 0.6055(18) 0.9117(9) 0.8347(9)
H47_3 H 0.607079 0.885930 0.825867
H49_3 H 0.730650 0.992606 0.797684
C60_3 C 0.624(2) 0.9116(11) 0.8773(12)
C61_3 C 0.595(3) 0.8797(12) 0.8929(11)
H50_3 H 0.573558 0.861513 0.878604
C65_3 C 0.658(3) 0.9397(16) 0.8963(19)
H56_3 H 0.676620 0.960552 0.884589
C70_3 C 0.6352(19) 0.9301(9) 0.7466(8)
H61_3 H 0.595406 0.945653 0.750030
C71_3 C 0.601(3) 0.8756(13) 0.9302(11)
H62_3 H 0.582793 0.854436 0.941873
C72_3 C 0.679(2) 0.9222(12) 0.7761(11)
C73_3 C 0.738(3) 0.8986(14) 0.7725(15)
H63_3 H 0.765598 0.892579 0.792779
C74_3 C 0.648(2) 0.9160(10) 0.7122(9)
H64_3 H 0.618413 0.920850 0.692174
C75_3 C 0.663(3) 0.9349(13) 0.8129(13)
H65_3 H 0.708009 0.936313 0.826933
C76_3 C 0.633(3) 0.9040(14) 0.9495(17)
H66_3 H 0.635070 0.901986 0.974736
C77_3 C 0.709(2) 0.8940(12) 0.7110(14)
H67_3 H 0.721087 0.884711 0.688138
C78_3 C 0.755(3) 0.8840(16) 0.7389(13)
H68_3 H 0.794491 0.868424 0.735396
C88_3 C 0.662(3) 0.9354(18) 0.934(2)
H76_3 H 0.685067 0.953395 0.947786
N10_2 N 0.1206(12) 0.6808(6) 0.7414(7)
C1_4 C 0.491(2) 0.6119(11) 0.6713(11)
C2_4 C 0.706(2) 0.5133(10) 0.6657(10)
C3_4 C 0.673(3) 0.5275(16) 0.6277(15)
H1_4 H 0.689316 0.511657 0.608316
H2_4 H 0.620882 0.526807 0.628906
H3_4 H 0.688556 0.552608 0.623132
I1_4 I 0.92548(8) 0.22612(6) 0.66876(5)
I4_4 I 0.91521(9) 0.27783(5) 0.78286(5)
Cu4_4 Cu 0.9561(2) 0.28504(11) 0.71131(10)
Ni2_4 Ni 0.4601(2) 0.48088(13) 0.68023(16)
C4_4 C 0.5937(16) 0.4223(7) 0.6773(7)
C5_4 C 0.7702(14) 0.3430(7) 0.6700(7)
H4_4 H 0.729165 0.336209 0.656837
N2_4 N 0.361(2) 0.4769(11) 0.7004(11)
C14_4 C 0.7344(17) 0.4422(8) 0.6766(8)
H7_4 H 0.782637 0.449717 0.677614
O3_4 O 0.5584(11) 0.4864(6) 0.6731(5)
C18_4 C 0.6831(17) 0.4695(9) 0.6728(8)
N4_4 N 0.8883(11) 0.3227(5) 0.6970(5)
C20_4 C 0.7202(15) 0.4035(7) 0.6792(7)
C22_4 C 0.8231(13) 0.3183(7) 0.6766(7)
H10_4 H 0.816256 0.294882 0.666300
C25_4 C 0.6486(19) 0.3953(10) 0.6806(9)
H12_4 H 0.635024 0.370576 0.683903
C26_4 C 0.7776(13) 0.3775(6) 0.6829(6)
C28_4 C 0.5173(17) 0.4090(9) 0.6768(8)
H14_4 H 0.510657 0.383361 0.677041
C31_4 C 0.6065(15) 0.4605(7) 0.6745(7)
C32_4 C 0.8949(12) 0.3577(6) 0.7067(6)
H17_4 H 0.937393 0.364728 0.718445
O4_4 O 0.4562(16) 0.5288(8) 0.6833(8)
N6_4 N 0.4628(18) 0.4277(9) 0.6761(9)
C38_4 C 0.8428(16) 0.3848(8) 0.7006(8)
H23_4 H 0.851841 0.408943 0.708707
C40_4 C 0.328(2) 0.5381(11) 0.7005(10)
C41_4 C 0.4041(18) 0.5536(9) 0.6899(9)
C46_4 C 0.684(3) 0.5351(14) 0.6938(13)
H32_4 H 0.632844 0.532864 0.696768
H33_4 H 0.708223 0.527151 0.715760
H34_4 H 0.696740 0.560544 0.688867
C47_4 C 0.787(3) 0.5176(15) 0.6621(15)
H35_4 H 0.804224 0.502528 0.642375
H36_4 H 0.798524 0.543277 0.657452
H37_4 H 0.810008 0.509884 0.684344
C48_4 C 0.409(3) 0.5935(12) 0.6855(12)
C57_4 C 0.3945(18) 0.4117(9) 0.6653(9)
H47_4 H 0.392921 0.385930 0.674133
C59_4 C 0.3174(19) 0.5004(9) 0.7011(9)
H49_4 H 0.269350 0.492606 0.702316
C60_4 C 0.376(2) 0.4116(11) 0.6227(12)
C61_4 C 0.405(3) 0.3797(12) 0.6071(11)
H50_4 H 0.426442 0.361513 0.621396
C63_4 C 0.541(3) 0.6060(14) 0.7026(12)
H52_4 H 0.524176 0.619439 0.723443
H53_4 H 0.543881 0.579904 0.708252
H54_4 H 0.588950 0.614809 0.696142
C65_4 C 0.342(3) 0.4397(16) 0.6037(19)
H56_4 H 0.323380 0.460552 0.615411
C70_4 C 0.3648(19) 0.4301(9) 0.7534(8)
H61_4 H 0.404594 0.445653 0.749970
C71_4 C 0.399(3) 0.3756(13) 0.5698(11)
H62_4 H 0.417207 0.354436 0.558127
C72_4 C 0.321(2) 0.4222(12) 0.7239(11)
C73_4 C 0.262(3) 0.3986(14) 0.7275(15)
H63_4 H 0.234402 0.392579 0.707221
C74_4 C 0.352(2) 0.4160(10) 0.7878(9)
H64_4 H 0.381587 0.420850 0.807826
C75_4 C 0.337(3) 0.4349(13) 0.6871(13)
H65_4 H 0.291991 0.436313 0.673067
C76_4 C 0.367(3) 0.4040(14) 0.5505(17)
H66_4 H 0.364930 0.401986 0.525264
C77_4 C 0.291(2) 0.3940(12) 0.7890(14)
H67_4 H 0.278913 0.384711 0.811862
C78_4 C 0.245(3) 0.3840(16) 0.7611(13)
H68_4 H 0.205509 0.368424 0.764604
C79_4 C 0.3522(18) 0.6146(10) 0.6950(9)
H69_4 H 0.357623 0.640316 0.693097
C80_4 C 0.2864(16) 0.6013(8) 0.7075(8)
C81_4 C 0.2305(11) 0.6298(6) 0.7195(7)
C82_4 C 0.2783(19) 0.5653(9) 0.7074(9)
H70_4 H 0.231824 0.556798 0.712807
C83_4 C 0.2479(11) 0.6649(5) 0.7321(6)
H71_4 H 0.296284 0.671606 0.735120
C84_4 C 0.1583(10) 0.6193(6) 0.7205(6)
H72_4 H 0.145043 0.595100 0.714208
C85_4 C 0.1934(10) 0.6900(6) 0.7402(6)
H73_4 H 0.206404 0.714506 0.745153
C86_4 C 0.1058(14) 0.6446(6) 0.7309(6)
H74_4 H 0.057666 0.636866 0.730809
C88_4 C 0.338(3) 0.4354(18) 0.566(2)
H76_4 H 0.314933 0.453395 0.552214
C89_4 C 0.474(3) 0.6523(12) 0.6648(14)
H77_4 H 0.441618 0.654665 0.644533
H78_4 H 0.452211 0.662788 0.686129
H79_4 H 0.518518 0.665371 0.659504
C91_4 C 0.514(4) 0.5917(17) 0.6374(13)
H83_4 H 0.479433 0.596472 0.618316
H84_4 H 0.560852 0.600379 0.630105
H85_4 H 0.515783 0.565474 0.642216
Ni1_3 Ni 0.4564(3) 0.31639(13) 0.00224(13)
N1_3 N 0.3541(12) 0.3216(6) 0.0044(6)
C7_3 C 0.5844(15) 0.3074(7) 0.0590(7)
C10_3 C 0.6061(19) 0.3080(10) 0.0226(10)
N3_3 N 0.4517(14) 0.3123(7) 0.0515(7)
C13_3 C 0.7123(15) 0.3042(8) 0.0796(7)
C15_3 C 0.5128(14) 0.3095(7) 0.0747(7)
H8_3 H 0.506752 0.309061 0.099805
C16_3 C 0.6413(17) 0.3037(9) 0.0882(9)
H9_3 H 0.627348 0.301038 0.112345
C17_3 C 0.7669(15) 0.2974(8) 0.1056(7)
C21_3 C 0.3607(11) 0.2674(5) 0.0709(7)
C24_3 C 0.381(2) 0.3040(11) 0.0690(11)
H11_3 H 0.381743 0.314351 0.093664
C27_3 C 0.2905(11) 0.2580(5) 0.0843(7)
H13_3 H 0.257210 0.275798 0.091970
C29_3 C 0.7302(19) 0.3018(9) 0.0444(9)
H15_3 H 0.779657 0.299452 0.039856
C30_3 C 0.3300(18) 0.3295(9) 0.0437(8)
H16_3 H 0.279747 0.321085 0.046619
C34_3 C 0.3964(11) 0.2363(6) 0.0582(7)
H19_3 H 0.434723 0.240145 0.042145
C42_3 C 0.2765(11) 0.2214(6) 0.0849(7)
H25_3 H 0.228054 0.216484 0.090238
C49_3 C 0.8387(15) 0.2907(11) 0.0973(11)
H38_3 H 0.853894 0.291395 0.073199
C53_3 C 0.333(3) 0.3701(17) 0.0502(14)
C54_3 C 0.284(3) 0.3795(19) 0.0772(14)
H45_3 H 0.253588 0.361421 0.087280
C55_3 C 0.681(2) 0.3023(10) 0.0094(10)
C56_3 C 0.381(3) 0.3927(16) 0.0322(17)
H46_3 H 0.415065 0.385021 0.014846
C58_3 C 0.3141(15) 0.1909(5) 0.0799(9)
H48_3 H 0.298372 0.166704 0.084413
C62_3 C 0.329(3) 0.4400(19) 0.0735(15)
H51_3 H 0.334204 0.464050 0.082666
C64_3 C 0.372(3) 0.4287(18) 0.0444(16)
H55_3 H 0.396058 0.447373 0.031711
C66_3 C 0.280(4) 0.4159(17) 0.0890(19)
H57_3 H 0.246644 0.423626 0.106399
C67_3 C 0.888(2) 0.2831(8) 0.1244(6)
H58_3 H 0.936524 0.281924 0.117292
C68_3 C 0.8020(12) 0.2798(11) 0.1682(10)
H59_3 H 0.785676 0.279494 0.192167
N7_2 N 0.8747(11) 0.2769(6) 0.1606(6)
C69_3 C 0.754(2) 0.2833(11) 0.1399(8)
H60_3 H 0.706484 0.275131 0.144351
C87_3 C 0.3807(16) 0.2011(6) 0.0669(12)
H75_3 H 0.416175 0.182898 0.064063
Cu5_2 Cu 0.94290(18) 0.26289(13) 0.19736(10)
I2_3 I 0.09041(8) 0.31098(5) 0.70531(5)
I3_3 I 0.08203(9) 0.19374(5) 0.75492(5)
Cu1_2 Cu 0.05710(18) 0.23711(13) 0.69736(10)
Cu2_3 Cu 0.0492(2) 0.26980(13) 0.76287(11)
C6_3 C 0.4244(16) 0.3239(7) 0.8926(7)
C8_3 C 0.2886(13) 0.3161(7) 0.8778(6)
C9_3 C 0.2728(16) 0.3159(8) 0.9187(7)
H5_3 H 0.226152 0.312351 0.927792
C11_3 C 0.3097(18) 0.3219(9) 0.9776(8)
H6_3 H 0.260385 0.322791 0.982988
C12_3 C 0.2300(12) 0.3084(6) 0.8539(6)
O1_3 O 0.5542(12) 0.3116(6) 0.9964(6)
O2_3 O 0.4616(11) 0.3228(6) 0.9510(5)
C19_3 C 0.4017(18) 0.3217(9) 0.9299(9)
C23_3 C 0.3298(13) 0.3211(7) 0.9405(6)
N5_3 N 0.1245(11) 0.2855(6) 0.8006(5)
C33_3 C 0.3575(15) 0.3190(8) 0.8701(8)
H18_3 H 0.367041 0.317792 0.845295
C35_3 C 0.1058(19) 0.2959(9) 0.8333(9)
H20_3 H 0.056710 0.299290 0.838224
C36_3 C 0.1572(14) 0.3023(7) 0.8624(7)
H21_3 H 0.141817 0.302330 0.886571
C37_3 C 0.1889(18) 0.2908(9) 0.7931(9)
H22_3 H 0.202161 0.288355 0.768835
C39_3 C 0.2441(16) 0.3000(8) 0.8178(8)
H24_3 H 0.291808 0.300549 0.809628
C43_3 C 0.546(2) 0.3034(11) 0.8885(11)
H26_3 H 0.523818 0.280491 0.880670
H27_3 H 0.591127 0.306832 0.876331
H28_3 H 0.553294 0.302654 0.914340
C44_3 C 0.4980(18) 0.3339(9) 0.8798(9)
C45_3 C 0.497(2) 0.3410(12) 0.8361(11)
H29_3 H 0.470405 0.321510 0.824382
H30_3 H 0.475143 0.364583 0.830994
H31_3 H 0.546344 0.341003 0.827137
C50_3 C 0.697(2) 0.2981(16) 0.9692(16)
C51_3 C 0.690(2) 0.3337(12) 0.9534(13)
H39_3 H 0.706286 0.352232 0.970310
H40_3 H 0.718394 0.334918 0.931602
H41_3 H 0.639736 0.338128 0.947569
C52_3 C 0.683(2) 0.2616(11) 0.9593(12)
H42_3 H 0.696695 0.245303 0.978953
H43_3 H 0.632649 0.258619 0.954052
H44_3 H 0.711308 0.255409 0.938085
C90_3 C 0.537(4) 0.3627(19) 0.893(2)
H80_3 H 0.510841 0.385478 0.888442
H81_3 H 0.544894 0.359516 0.918206
H82_3 H 0.582727 0.363693 0.880197
C92_3 C 0.774(3) 0.2975(14) 0.977(3)
H86_3 H 0.789309 0.321922 0.984515
H87_3 H 0.782964 0.280176 0.996628
H88_3 H 0.800253 0.289966 0.955950
N9_2 N 0.1253(11) 0.2231(6) 0.6606(6)
I2_4 I 0.90959(8) 0.18902(5) 0.20531(5)
I3_4 I 0.91797(9) 0.30626(5) 0.25492(5)
Cu2_4 Cu 0.9508(2) 0.23020(13) 0.26287(11)
Ni1_4 Ni 0.5436(3) 0.18361(13) 0.50224(13)
C6_4 C 0.5756(16) 0.1761(7) 0.3926(7)
N1_4 N 0.6459(12) 0.1784(6) 0.5044(6)
C7_4 C 0.4156(15) 0.1926(7) 0.5590(7)
C8_4 C 0.7114(13) 0.1839(7) 0.3778(6)
C9_4 C 0.7272(16) 0.1841(8) 0.4187(7)
H5_4 H 0.773848 0.187649 0.427792
C10_4 C 0.3939(19) 0.1920(10) 0.5226(10)
N3_4 N 0.5483(14) 0.1877(7) 0.5515(7)
C11_4 C 0.6903(18) 0.1781(9) 0.4776(8)
H6_4 H 0.739615 0.177209 0.482988
C12_4 C 0.7700(12) 0.1916(6) 0.3539(6)
C13_4 C 0.2877(15) 0.1958(8) 0.5796(7)
O1_4 O 0.4458(12) 0.1884(6) 0.4964(6)
O2_4 O 0.5384(11) 0.1772(6) 0.4510(5)
C15_4 C 0.4872(14) 0.1905(7) 0.5747(7)
H8_4 H 0.493248 0.190939 0.599805
C16_4 C 0.3587(17) 0.1963(9) 0.5882(9)
H9_4 H 0.372652 0.198962 0.612345
C17_4 C 0.2331(15) 0.2026(8) 0.6056(7)
C19_4 C 0.5983(18) 0.1783(9) 0.4299(9)
C21_4 C 0.6393(11) 0.2326(5) 0.5709(7)
C23_4 C 0.6702(13) 0.1789(7) 0.4405(6)
C24_4 C 0.619(2) 0.1960(11) 0.5690(11)
H11_4 H 0.618257 0.185649 0.593664
C27_4 C 0.7095(11) 0.2420(5) 0.5843(7)
H13_4 H 0.742790 0.224202 0.591970
C29_4 C 0.2698(19) 0.1982(9) 0.5444(9)
H15_4 H 0.220343 0.200548 0.539856
C30_4 C 0.6700(18) 0.1705(9) 0.5437(8)
H16_4 H 0.720253 0.178915 0.546619
N5_4 N 0.8755(11) 0.2145(6) 0.3006(5)
C33_4 C 0.6425(15) 0.1810(8) 0.3701(8)
H18_4 H 0.632959 0.182208 0.345295
C34_4 C 0.6036(11) 0.2637(6) 0.5582(7)
H19_4 H 0.565277 0.259855 0.542145
C35_4 C 0.8942(19) 0.2041(9) 0.3333(9)
H20_4 H 0.943290 0.200710 0.338224
C36_4 C 0.8428(14) 0.1977(7) 0.3624(7)
H21_4 H 0.858183 0.197670 0.386571
C37_4 C 0.8111(18) 0.2092(9) 0.2931(9)
H22_4 H 0.797839 0.211645 0.268835
C39_4 C 0.7559(16) 0.2000(8) 0.3178(8)
H24_4 H 0.708192 0.199451 0.309628
C42_4 C 0.7235(11) 0.2786(6) 0.5849(7)
H25_4 H 0.771946 0.283516 0.590238
C43_4 C 0.454(2) 0.1966(11) 0.3885(11)
H26_4 H 0.476182 0.219509 0.380670
H27_4 H 0.408873 0.193168 0.376331
H28_4 H 0.446706 0.197346 0.414340
C44_4 C 0.5020(18) 0.1661(9) 0.3798(9)
C45_4 C 0.503(2) 0.1590(12) 0.3361(11)
H29_4 H 0.529595 0.178490 0.324382
H30_4 H 0.524857 0.135417 0.330994
H31_4 H 0.453656 0.158997 0.327137
C49_4 C 0.1613(15) 0.2093(11) 0.5973(11)
H38_4 H 0.146106 0.208605 0.573199
C50_4 C 0.303(2) 0.2019(16) 0.4692(16)
C51_4 C 0.310(2) 0.1663(12) 0.4534(13)
H39_4 H 0.293714 0.147768 0.470310
H40_4 H 0.281606 0.165082 0.431602
H41_4 H 0.360264 0.161872 0.447569
C52_4 C 0.317(2) 0.2384(11) 0.4593(12)
H42_4 H 0.303305 0.254697 0.478953
H43_4 H 0.367351 0.241381 0.454052
H44_4 H 0.288692 0.244591 0.438085
C53_4 C 0.667(3) 0.1299(17) 0.5502(14)
C54_4 C 0.716(3) 0.1205(19) 0.5772(14)
H45_4 H 0.746412 0.138579 0.587280
C55_4 C 0.319(2) 0.1977(10) 0.5094(10)
C56_4 C 0.619(3) 0.1073(16) 0.5322(17)
H46_4 H 0.584935 0.114979 0.514846
C58_4 C 0.6859(15) 0.3091(5) 0.5799(9)
H48_4 H 0.701628 0.333296 0.584413
C62_4 C 0.671(3) 0.0600(19) 0.5735(15)
H51_4 H 0.665796 0.035950 0.582666
C64_4 C 0.628(3) 0.0713(18) 0.5444(16)
H55_4 H 0.603942 0.052627 0.531711
C66_4 C 0.720(4) 0.0841(17) 0.5890(19)
H57_4 H 0.753356 0.076374 0.606399
C67_4 C 0.112(2) 0.2169(8) 0.6244(6)
H58_4 H 0.063476 0.218076 0.617292
C68_4 C 0.1980(12) 0.2202(11) 0.6682(10)
H59_4 H 0.214324 0.220506 0.692167
C69_4 C 0.246(2) 0.2167(11) 0.6399(8)
H60_4 H 0.293516 0.224869 0.644351
C87_4 C 0.6193(16) 0.2989(6) 0.5669(12)
H75_4 H 0.583825 0.317102 0.564063
C90_4 C 0.463(4) 0.1373(19) 0.393(2)
H80_4 H 0.489159 0.114522 0.388442
H81_4 H 0.455106 0.140484 0.418206
H82_4 H 0.417273 0.136307 0.380197
C92_4 C 0.226(3) 0.2025(14) 0.477(3)
H86_4 H 0.210691 0.178078 0.484515
H87_4 H 0.217036 0.219824 0.496628
H88_4 H 0.199747 0.210034 0.455950
O6 O 0.0526(11) 0.4709(5) 0.1785(5)
C105 C 0.0925(15) 0.4081(7) 0.1814(7)
C108 C 0.0131(13) 0.3945(7) 0.1879(7)
H97 H 0.005727 0.368899 0.189498
C110 C 0.1011(14) 0.4466(7) 0.1772(7)
C121 C 0.2126(16) 0.3936(8) 0.1780(8)
C127 C 0.2280(13) 0.4286(6) 0.1754(6)
H106 H 0.276773 0.434534 0.172331
C129 C 0.1424(15) 0.3805(8) 0.1792(7)
H107 H 0.130563 0.355362 0.178525
C134 C 0.1781(16) 0.4596(8) 0.1766(8)
C136 C 0.1932(19) 0.4978(10) 0.1744(10)
C148 C 0.040(2) 0.5918(12) 0.1906(12)
H129 H 0.047833 0.566555 0.198513
H130 H 0.081105 0.599630 0.176196
H131 H 0.035801 0.607709 0.211449
C150 C 0.282(2) 0.5018(13) 0.1737(13)
H135 H 0.294764 0.527649 0.172168
H136 H 0.301792 0.491284 0.195534
H137 H 0.300872 0.488796 0.152927
C152 C 0.175(2) 0.5198(12) 0.2061(12)
H138 H 0.187550 0.545401 0.201731
H139 H 0.123990 0.517919 0.210877
H140 H 0.201727 0.510791 0.226767
C156 C 0.163(2) 0.5136(12) 0.1333(11)
H146 H 0.172768 0.539814 0.131239
H147 H 0.187321 0.500547 0.114051
H148 H 0.111551 0.509486 0.131391
H162 H 0.001940 0.414955 0.318671
C172 C 0.2713(16) 0.3618(8) 0.1822(8)
C173 C 0.2632(14) 0.3267(7) 0.1699(7)
H163 H 0.218768 0.320464 0.159499
C174 C 0.3402(16) 0.3746(9) 0.1961(8)
H164 H 0.349599 0.399512 0.201116
C175 C 0.3176(12) 0.2982(7) 0.1715(6)
H165 H 0.310602 0.274474 0.162029
N18 N 0.3797(9) 0.3088(5) 0.1879(5)
C176 C 0.3900(14) 0.3474(7) 0.2013(7)
H166 H 0.432438 0.353168 0.213724
H168 H 0.034456 0.582292 0.122898
H169 H 0.005262 0.546134 0.141826
Cu12 Cu 0.44929(18) 0.26822(11) 0.20281(10)
C98 C 0.7327(12) 0.1949(7) 0.0976(6)
C99 C 0.7800(15) 0.1875(7) 0.0323(7)
H93 H 0.732021 0.186851 0.024357
C102 C 0.7900(15) 0.1898(8) 0.0648(7)
C106 C 0.865(2) 0.1866(11) 0.0789(11)
H95 H 0.872612 0.184683 0.103873
C109 C 0.9096(17) 0.1829(8) 0.0183(8)
C112 C 0.9160(17) 0.1863(8) 0.0586(8)
C115 C 0.836(2) 0.1856(11) 0.0046(10)
C135 C 0.7428(17) 0.1871(8) 0.1341(6)
H113 H 0.786885 0.177653 0.142186
C137 C 0.6682(12) 0.2105(8) 0.0865(7)
H114 H 0.661787 0.217827 0.062442
H132 H 0.995727 0.125049 0.063024
H143 H 0.979275 0.158867 0.120410
H145 H 0.982446 0.202475 0.121986
C161 C 0.6872(12) 0.1935(8) 0.1585(10)
H155 H 0.694597 0.188004 0.182964
C164 C 0.6132(14) 0.2151(8) 0.1115(5)
H157 H 0.568383 0.223556 0.103274
N17 N 0.6214(11) 0.2079(6) 0.1478(5)
Cu11 Cu 0.55607(17) 0.22326(11) 0.18666(8)
C95 C 0.3130(9) 0.1767(7) 0.2575(8)
H91 H 0.299375 0.200843 0.251158
I5 I 0.42236(8) 0.20955(5) 0.16282(4)
I6 I 0.59126(8) 0.18265(5) 0.24443(4)
I7 I 0.57824(9) 0.29934(5) 0.19321(4)
I8 I 0.41479(8) 0.26330(5) 0.27535(4)
Cu8 Cu 0.54851(19) 0.25680(11) 0.25038(10)
Cu9 Cu 0.45556(19) 0.20347(11) 0.23492(9)
N11 N 0.6197(10) 0.2743(5) 0.2899(5)
O5 O 0.9383(11) 0.2987(5) 0.4481(5)
C96 C 0.8536(10) 0.2968(8) 0.3587(7)
H92 H 0.862419 0.297730 0.333781
C97 C 0.9118(10) 0.3001(5) 0.3822(4)
C101 C 0.990(3) 0.3179(15) 0.5692(15)
C103 C 0.7831(11) 0.2922(7) 0.3704(6)
C104 C 0.8914(11) 0.2995(8) 0.4196(5)
C107 C 0.6772(16) 0.2901(8) 0.2810(8)
H96 H 0.685178 0.294573 0.256368
O8 O 0.0457(11) 0.0180(5) 0.3138(5)
C111 C 0.7317(15) 0.3019(7) 0.3061(7)
H98 H 0.769880 0.317416 0.299567
C113 C 0.7230(14) 0.2884(7) 0.3406(7)
C114 C 0.9788(16) 0.3032(8) 0.3742(9)
H99 H 0.987612 0.302093 0.349330
C116 C 0.8205(10) 0.2920(7) 0.4308(6)
C118 C 0.6045(19) 0.2699(9) 0.3262(9)
H101 H 0.557144 0.264962 0.333538
C119 C 0.1056(13) 0.0408(7) 0.3026(7)
C120 C 0.7638(14) 0.2928(9) 0.4067(5)
H102 H 0.715668 0.293791 0.414244
N14 N 0.3857(9) 0.1675(5) 0.2558(5)
C122 C 0.3489(10) 0.1064(7) 0.2771(7)
H103 H 0.363021 0.082614 0.284059
C123 C 0.1513(16) 0.1020(8) 0.3049(8)
H104 H 0.146554 0.127124 0.310602
C124 C 0.0956(17) 0.0790(8) 0.3124(8)
C125 C 0.6576(15) 0.2726(8) 0.3511(8)
H105 H 0.650693 0.264029 0.374758
C126 C 0.2774(12) 0.1165(6) 0.2792(8)
C128 C 0.2178(15) 0.0895(8) 0.2885(7)
C130 C 0.1658(15) 0.0270(7) 0.2908(7)
C131 C 0.3998(15) 0.1311(5) 0.2648(9)
H108 H 0.447302 0.122684 0.262410
C132 C 0.7132(14) 0.2804(7) 0.4768(7)
H109 H 0.703209 0.258372 0.462810
H110 H 0.699005 0.276391 0.501629
H111 H 0.686283 0.300960 0.466928
C133 C 0.2238(13) 0.0533(6) 0.2827(6)
H112 H 0.266994 0.044262 0.272973
C139 C 0.2593(13) 0.1521(5) 0.2680(7)
H116 H 0.210937 0.159416 0.267484
C140 C 0.7947(18) 0.2891(9) 0.4751(9)
C145 C 0.8212(19) 0.3221(10) 0.4951(10)
H120 H 0.797848 0.344053 0.485687
H121 H 0.810083 0.319537 0.520468
H122 H 0.872714 0.324321 0.491960
C146 C 0.834(2) 0.2566(10) 0.4919(10)
H123 H 0.819664 0.233977 0.480103
H124 H 0.885752 0.259982 0.488855
H125 H 0.823121 0.255198 0.517363
C147 C 0.043(2) 0.1323(10) 0.3452(10)
H126 H 0.086795 0.131266 0.359185
H127 H 0.049160 0.149021 0.325068
H128 H 0.003856 0.140942 0.360320
C149 C 0.969(3) 0.3571(13) 0.5549(14)
H133 H 0.967862 0.356758 0.528793
H134 H 0.922055 0.363764 0.564101
C151 C 0.0250(18) 0.0938(9) 0.3310(9)
C155 C 0.994(3) 0.3195(13) 0.6130(12)
H144 H 0.945576 0.320797 0.622765
C157 C 0.950(3) 0.2856(13) 0.5623(13)
H149 H 0.973158 0.264694 0.573764
H150 H 0.901795 0.288387 0.571774
H151 H 0.947602 0.281381 0.536465
C177 C 0.006(2) 0.0712(12) 0.3650(12)
H167 H 0.047354 0.071060 0.381228
C95_2 C 0.6870(9) 0.6767(7) 0.2425(8)
H91_2 H 0.700625 0.700843 0.248842
I5_2 I 0.57764(8) 0.70955(5) 0.33718(4)
I6_2 I 0.40874(8) 0.68265(5) 0.25557(4)
I7_2 I 0.42176(9) 0.79934(5) 0.30679(4)
I8_2 I 0.58521(8) 0.76330(5) 0.22465(4)
Cu7 Cu 0.44393(17) 0.72326(11) 0.31334(8)
Cu8_2 Cu 0.45149(19) 0.75680(11) 0.24962(10)
Cu9_2 Cu 0.54444(19) 0.70347(11) 0.26508(9)
Cu10 Cu 0.55071(18) 0.76822(11) 0.29719(10)
Ni4 Ni 0.9568(2) 0.46694(13) 0.19079(14)
N11_2 N 0.3803(10) 0.7743(5) 0.2101(5)
O5_2 O 0.0617(11) 0.7987(5) 0.0519(5)
C96_2 C 0.1464(10) 0.7968(8) 0.1413(7)
H92_2 H 0.137581 0.797730 0.166219
C97_2 C 0.0882(10) 0.8001(5) 0.1178(4)
C103_2 C 0.2169(11) 0.7922(7) 0.1296(6)
C104_2 C 0.1086(11) 0.7995(8) 0.0804(5)
C107_2 C 0.3228(16) 0.7901(8) 0.2190(8)
H96_2 H 0.314822 0.794573 0.243632
O8_2 O 0.9543(11) 0.5180(5) 0.1862(5)
C111_2 C 0.2683(15) 0.8019(7) 0.1939(7)
H98_2 H 0.230120 0.817416 0.200433
C113_2 C 0.2770(14) 0.7884(7) 0.1594(7)
C114_2 C 0.0212(16) 0.8032(8) 0.1258(9)
H99_2 H 0.012388 0.802093 0.150670
C116_2 C 0.1795(10) 0.7920(7) 0.0692(6)
C118_2 C 0.3955(19) 0.7699(9) 0.1738(9)
H101_2 H 0.442856 0.764962 0.166462
C119_2 C 0.8944(13) 0.5408(7) 0.1974(7)
C120_2 C 0.2362(14) 0.7928(9) 0.0933(5)
H102_2 H 0.284332 0.793791 0.085756
N14_2 N 0.6143(9) 0.6675(5) 0.2442(5)
N15 N 0.9589(18) 0.4147(8) 0.1911(8)
C122_2 C 0.6511(10) 0.6064(7) 0.2229(7)
H103_2 H 0.636979 0.582614 0.215941
C123_2 C 0.8487(16) 0.6020(8) 0.1951(8)
H104_2 H 0.853446 0.627124 0.189398
C124_2 C 0.9044(17) 0.5790(8) 0.1876(8)
C125_2 C 0.3424(15) 0.7726(8) 0.1489(8)
H105_2 H 0.349307 0.764029 0.125242
C126_2 C 0.7226(12) 0.6165(6) 0.2208(8)
C128_2 C 0.7822(15) 0.5895(8) 0.2115(7)
C130_2 C 0.8342(15) 0.5270(7) 0.2092(7)
N16 N 0.8648(15) 0.4631(7) 0.2108(7)
C131_2 C 0.6002(15) 0.6311(5) 0.2352(9)
H108_2 H 0.552698 0.622684 0.237590
C132_2 C 0.2868(14) 0.7804(7) 0.0232(7)
H109_2 H 0.296791 0.758372 0.037190
H111_2 H 0.313717 0.800960 0.033072
C133_2 C 0.7762(13) 0.5533(6) 0.2173(6)
H112_2 H 0.733006 0.544262 0.227027
C138 C 0.828(2) 0.4912(11) 0.2187(12)
H115 H 0.789249 0.486353 0.234066
C139_2 C 0.7407(13) 0.6521(5) 0.2320(7)
H116_2 H 0.789063 0.659416 0.232516
C140_2 C 0.2053(18) 0.7891(9) 0.0249(9)
C145_2 C 0.1788(19) 0.8221(10) 0.0049(10)
H120_2 H 0.202152 0.844053 0.014313
H122_2 H 0.127286 0.824321 0.008040
C146_2 C 0.166(2) 0.7566(10) 0.0081(10)
H123_2 H 0.180336 0.733977 0.019897
H124_2 H 0.114248 0.759982 0.011145
C147_2 C 0.957(2) 0.6323(10) 0.1548(10)
H126_2 H 0.913205 0.631266 0.140815
H127_2 H 0.950840 0.649021 0.174932
H128_2 H 0.996144 0.640942 0.139680
C151_2 C 0.9750(18) 0.5938(9) 0.1690(9)
C159 C 0.880(4) 0.398(3) 0.1926(16)
H153 H 0.882407 0.372311 0.201954
C160 C 0.842(2) 0.4226(10) 0.2193(10)
H154 H 0.789665 0.419808 0.216690
C165 C 0.928(2) 0.4220(11) 0.2780(11)
H158 H 0.958236 0.438279 0.265789
C166 C 0.865(2) 0.4138(11) 0.2589(11)
C167 C 0.823(3) 0.3936(10) 0.2826(10)
H159 H 0.777437 0.386252 0.273883
C168 C 0.850(3) 0.398(2) 0.1576(15)
C169 C 0.904(2) 0.3939(11) 0.3336(12)
H160 H 0.912517 0.389830 0.358230
C170 C 0.839(2) 0.3829(11) 0.3178(10)
H161 H 0.806602 0.368313 0.330848
C171 C 0.954(3) 0.4111(16) 0.3116(11)
C177_2 C 0.994(2) 0.5712(12) 0.1350(12)
H167_2 H 0.952646 0.571060 0.118772
C180 C 0.756(3) 0.396(2) 0.116(2)
H172 H 0.706114 0.394739 0.112613
C181 C 0.795(4) 0.398(2) 0.0841(16)
H173 H 0.774598 0.398336 0.060964
C182 C 0.870(4) 0.401(2) 0.0911(16)
H174 H 0.903810 0.402248 0.072446
C183 C 0.889(2) 0.4002(18) 0.1266(17)
H175 H 0.939295 0.401657 0.130355
C184 C 0.775(3) 0.396(2) 0.1531(18)
H176 H 0.741403 0.393847 0.172160
N19 N 0.3786(11) 0.7079(6) 0.3522(5)
N20 N 0.6203(9) 0.8088(5) 0.3121(5)
C93 C 0.192(4) 0.5466(11) 0.612(2)
H89 H 0.201506 0.521408 0.615671
C94 C 0.243(3) 0.5693(12) 0.5951(19)
H90 H 0.281081 0.558748 0.582358
Ni3 Ni 0.0371(2) 0.68835(19) 0.55490(11)
N12 N 0.1330(13) 0.6767(7) 0.5589(6)
C98_2 C 0.2673(12) 0.6949(7) 0.4024(6)
C99_2 C 0.2200(15) 0.6875(7) 0.4677(7)
H93_2 H 0.267979 0.686851 0.475643
N13 N 0.0381(13) 0.6923(6) 0.6063(6)
C100 C 0.1825(16) 0.6774(8) 0.5328(7)
H94 H 0.230568 0.672373 0.538672
C102_2 C 0.2100(15) 0.6898(8) 0.4352(7)
O7 O 0.0362(11) 0.6838(6) 0.5071(6)
C106_2 C 0.135(2) 0.6866(11) 0.4211(11)
H95_2 H 0.127388 0.684683 0.396127
C109_2 C 0.0904(17) 0.6829(8) 0.4817(8)
C112_2 C 0.0840(17) 0.6863(8) 0.4414(8)
C115_2 C 0.164(2) 0.6856(11) 0.4954(10)
C117 C 0.1084(12) 0.6843(7) 0.6202(6)
H100 H 0.103738 0.670672 0.643196
C135_2 C 0.2572(17) 0.6871(8) 0.3659(6)
H113_2 H 0.213115 0.677653 0.357814
C137_2 C 0.3318(12) 0.7105(8) 0.4135(7)
H114_2 H 0.338213 0.717827 0.437558
C141 C 0.1225(14) 0.7586(5) 0.6142(7)
H117 H 0.080473 0.758340 0.600183
C142 C 0.1492(13) 0.7257(6) 0.6281(7)
C143 C 0.2132(13) 0.7221(8) 0.6473(7)
H118 H 0.232662 0.700083 0.656282
C144 C 0.1574(14) 0.7917(7) 0.6208(8)
H119 H 0.136881 0.813885 0.612765
H132_2 H 0.004273 0.625049 0.436976
C153 C 0.243(2) 0.7573(8) 0.6506(10)
H141 H 0.286973 0.757226 0.663239
C154 C 0.2227(17) 0.7925(10) 0.6393(11)
H142 H 0.249450 0.814012 0.643658
H143_2 H 0.020725 0.658867 0.379590
H145_2 H 0.017554 0.702475 0.378014
C158 C 0.150(3) 0.6623(14) 0.5947(7)
H152 H 0.198353 0.673538 0.598224
C161_2 C 0.3128(12) 0.6935(8) 0.3415(10)
H155_2 H 0.305403 0.688004 0.317036
C162 C 0.167(2) 0.6228(11) 0.6044(18)
C163 C 0.116(2) 0.5995(16) 0.6204(16)
H156 H 0.072344 0.609524 0.628587
C164_2 C 0.3868(14) 0.7151(8) 0.3885(5)
H157_2 H 0.431617 0.723556 0.396726
C178 C 0.235(2) 0.6071(11) 0.5968(19)
H170 H 0.275143 0.622412 0.592930
C179 C 0.128(3) 0.5623(15) 0.6243(17)
H171 H 0.093371 0.547380 0.635199
O6_2 O 0.9474(11) 0.9709(5) 0.3215(5)
C105_2 C 0.9075(15) 0.9081(7) 0.3186(7)
C108_2 C 0.9869(13) 0.8945(7) 0.3121(7)
H97_2 H 0.994273 0.868899 0.310502
C110_2 C 0.8989(14) 0.9466(7) 0.3228(7)
C121_2 C 0.7874(16) 0.8936(8) 0.3220(8)
C127_2 C 0.7720(13) 0.9286(6) 0.3246(6)
H106_2 H 0.723227 0.934534 0.327669
C129_2 C 0.8576(15) 0.8805(8) 0.3208(7)
H107_2 H 0.869437 0.855362 0.321475
C134_2 C 0.8219(16) 0.9596(8) 0.3234(8)
C136_2 C 0.8068(19) 0.9978(10) 0.3256(10)
H136_2 H 0.698208 0.991284 0.304466
H137_2 H 0.699128 0.988796 0.347073
H162_2 H 0.998060 0.914955 0.181329
C172_2 C 0.7287(16) 0.8618(8) 0.3178(8)
C173_2 C 0.7368(14) 0.8267(7) 0.3301(7)
H163_2 H 0.781232 0.820464 0.340501
C174_2 C 0.6598(16) 0.8746(9) 0.3039(8)
H164_2 H 0.650401 0.899512 0.298884
C175_2 C 0.6824(12) 0.7982(7) 0.3285(6)
H165_2 H 0.689398 0.774474 0.337971
C176_2 C 0.6100(14) 0.8474(7) 0.2987(7)
H166_2 H 0.567562 0.853168 0.286276
C101_2 C 0.010(3) 0.8179(15) 0.9308(15)
H110_2 H 0.300995 0.776391 0.998371
H121_2 H 0.189917 0.819537 0.979532
H125_2 H 0.176879 0.755198 0.982637
C149_2 C 0.031(3) 0.8571(13) 0.9451(14)
H133_2 H 0.032138 0.856758 0.971207
H134_2 H 0.077945 0.863764 0.935899
C155_2 C 0.006(3) 0.8195(13) 0.8870(12)
H144_2 H 0.054424 0.820797 0.877235
C157_2 C 0.050(3) 0.7856(13) 0.9377(13)
H149_2 H 0.026842 0.764694 0.926236
H150_2 H 0.098205 0.788387 0.928226
H151_2 H 0.052398 0.781381 0.963535
C93_2 C 0.808(4) 0.9534(11) 0.112(2)
H89_2 H 0.798494 0.978592 0.115671
C94_2 C 0.757(3) 0.9307(12) 0.0951(19)
H90_2 H 0.718919 0.941252 0.082358
Ni3_2 Ni 0.9629(2) 0.81165(19) 0.05490(11)
N12_2 N 0.8670(13) 0.8233(7) 0.0589(6)
N13_2 N 0.9619(13) 0.8077(6) 0.1063(6)
C100_2 C 0.8175(16) 0.8226(8) 0.0328(7)
H94_2 H 0.769432 0.827627 0.038672
O7_2 O 0.9638(11) 0.8162(6) 0.0071(6)
C117_2 C 0.8916(12) 0.8157(7) 0.1202(6)
H100_2 H 0.896262 0.829328 0.143196
C141_2 C 0.8775(14) 0.7414(5) 0.1142(7)
H117_2 H 0.919527 0.741660 0.100183
C142_2 C 0.8508(13) 0.7743(6) 0.1281(7)
C143_2 C 0.7868(13) 0.7779(8) 0.1473(7)
H118_2 H 0.767338 0.799917 0.156282
C144_2 C 0.8426(14) 0.7083(7) 0.1208(8)
H119_2 H 0.863119 0.686115 0.112765
C153_2 C 0.757(2) 0.7427(8) 0.1506(10)
H141_2 H 0.713027 0.742774 0.163239
C154_2 C 0.7773(17) 0.7075(10) 0.1393(11)
H142_2 H 0.750550 0.685988 0.143658
C158_2 C 0.850(3) 0.8377(14) 0.0947(7)
H152_2 H 0.801647 0.826462 0.098224
C162_2 C 0.833(2) 0.8772(11) 0.1044(18)
C163_2 C 0.884(2) 0.9005(16) 0.1204(16)
H156_2 H 0.927656 0.890476 0.128587
C178_2 C 0.765(2) 0.8929(11) 0.0968(19)
H170_2 H 0.724857 0.877588 0.092930
C179_2 C 0.872(3) 0.9377(15) 0.1243(17)
H171_2 H 0.906629 0.952620 0.135199
C98_3 C 0.7327(12) 0.8051(7) 0.9024(6)
C99_3 C 0.7800(15) 0.8125(7) 0.9677(7)
H93_3 H 0.732021 0.813149 0.975643
C102_3 C 0.7900(15) 0.8102(8) 0.9352(7)
C106_3 C 0.865(2) 0.8134(11) 0.9211(11)
H95_3 H 0.872612 0.815317 0.896127
C109_3 C 0.9096(17) 0.8171(8) 0.9817(8)
C112_3 C 0.9160(17) 0.8137(8) 0.9414(8)
C115_3 C 0.836(2) 0.8144(11) 0.9954(10)
C135_3 C 0.7428(17) 0.8129(8) 0.8659(6)
H113_3 H 0.786885 0.822347 0.857814
C137_3 C 0.6682(12) 0.7895(8) 0.9135(7)
H114_3 H 0.661787 0.782173 0.937558
H132_3 H 0.995727 0.874951 0.936976
H143_3 H 0.979275 0.841133 0.879590
H145_3 H 0.982446 0.797525 0.878014
C161_3 C 0.6872(12) 0.8065(8) 0.8415(10)
H155_3 H 0.694597 0.811996 0.817036
C164_3 C 0.6132(14) 0.7849(8) 0.8885(5)
H157_3 H 0.568383 0.776444 0.896726
N17_2 N 0.6214(11) 0.7921(6) 0.8522(5)
Cu11_2 Cu 0.55607(17) 0.77674(11) 0.81334(8)
C95_3 C 0.3130(9) 0.8233(7) 0.7425(8)
H91_3 H 0.299375 0.799157 0.748842
I5_3 I 0.42236(8) 0.79045(5) 0.83718(4)
I6_3 I 0.59126(8) 0.81735(5) 0.75557(4)
I7_3 I 0.57824(9) 0.70066(5) 0.80679(4)
I8_3 I 0.41479(8) 0.73670(5) 0.72465(4)
Cu8_3 Cu 0.54851(19) 0.74320(11) 0.74962(10)
Cu9_3 Cu 0.45556(19) 0.79653(11) 0.76508(9)
Cu10_2 Cu 0.44929(18) 0.73178(11) 0.79719(10)
N11_3 N 0.6197(10) 0.7257(5) 0.7101(5)
O5_3 O 0.9383(11) 0.7013(5) 0.5519(5)
C96_3 C 0.8536(10) 0.7032(8) 0.6413(7)
H92_3 H 0.862419 0.702270 0.666219
C97_3 C 0.9118(10) 0.6999(5) 0.6178(4)
C101_3 C 0.990(3) 0.6821(15) 0.4308(15)
C103_3 C 0.7831(11) 0.7078(7) 0.6296(6)
C104_3 C 0.8914(11) 0.7005(8) 0.5804(5)
C107_3 C 0.6772(16) 0.7099(8) 0.7190(8)
H96_3 H 0.685178 0.705427 0.743632
O8_3 O 0.0457(11) 0.9820(5) 0.6862(5)
C111_3 C 0.7317(15) 0.6981(7) 0.6939(7)
H98_3 H 0.769880 0.682584 0.700433
C113_3 C 0.7230(14) 0.7116(7) 0.6594(7)
C114_3 C 0.9788(16) 0.6968(8) 0.6258(9)
H99_3 H 0.987612 0.697907 0.650670
C116_3 C 0.8205(10) 0.7080(7) 0.5692(6)
C118_3 C 0.6045(19) 0.7301(9) 0.6738(9)
H101_3 H 0.557144 0.735038 0.666462
C119_3 C 0.1056(13) 0.9592(7) 0.6974(7)
C120_3 C 0.7638(14) 0.7072(9) 0.5933(5)
H102_3 H 0.715668 0.706209 0.585756
N14_3 N 0.3857(9) 0.8325(5) 0.7442(5)
C122_3 C 0.3489(10) 0.8936(7) 0.7229(7)
H103_3 H 0.363021 0.917386 0.715941
C123_3 C 0.1513(16) 0.8980(8) 0.6951(8)
H104_3 H 0.146554 0.872876 0.689398
C124_3 C 0.0956(17) 0.9210(8) 0.6876(8)
C125_3 C 0.6576(15) 0.7274(8) 0.6489(8)
H105_3 H 0.650693 0.735971 0.625242
C126_3 C 0.2774(12) 0.8835(6) 0.7208(8)
C128_3 C 0.2178(15) 0.9105(8) 0.7115(7)
C130_3 C 0.1658(15) 0.9730(7) 0.7092(7)
C131_3 C 0.3998(15) 0.8689(5) 0.7352(9)
H108_3 H 0.447302 0.877316 0.737590
C132_3 C 0.7132(14) 0.7196(7) 0.5232(7)
H109_3 H 0.703209 0.741628 0.537190
H110_3 H 0.699005 0.723609 0.498371
H111_3 H 0.686283 0.699040 0.533072
C133_3 C 0.2238(13) 0.9467(6) 0.7173(6)
H112_3 H 0.266994 0.955738 0.727027
C139_3 C 0.2593(13) 0.8479(5) 0.7320(7)
H116_3 H 0.210937 0.840584 0.732516
C140_3 C 0.7947(18) 0.7109(9) 0.5249(9)
C145_3 C 0.8212(19) 0.6779(10) 0.5049(10)
H120_3 H 0.797848 0.655947 0.514313
H121_3 H 0.810083 0.680463 0.479532
H122_3 H 0.872714 0.675679 0.508040
C146_3 C 0.834(2) 0.7434(10) 0.5081(10)
H123_3 H 0.819664 0.766023 0.519897
H124_3 H 0.885752 0.740018 0.511145
H125_3 H 0.823121 0.744802 0.482637
C147_3 C 0.043(2) 0.8677(10) 0.6548(10)
H126_3 H 0.086795 0.868734 0.640815
H127_3 H 0.049160 0.850979 0.674932
H128_3 H 0.003856 0.859058 0.639680
C149_3 C 0.969(3) 0.6429(13) 0.4451(14)
H133_3 H 0.967862 0.643242 0.471207
H134_3 H 0.922055 0.636236 0.435899
C151_3 C 0.0250(18) 0.9062(9) 0.6690(9)
C155_3 C 0.994(3) 0.6805(13) 0.3870(12)
H144_3 H 0.945576 0.679203 0.377235
C157_3 C 0.950(3) 0.7144(13) 0.4377(13)
H149_3 H 0.973158 0.735306 0.426236
H150_3 H 0.901795 0.711613 0.428226
H151_3 H 0.947602 0.718619 0.463535
C177_3 C 0.006(2) 0.9288(12) 0.6350(12)
H167_3 H 0.047354 0.928940 0.618772
N20_2 N 0.3797(9) 0.6912(5) 0.8121(5)
O6_3 O 0.0526(11) 0.5291(5) 0.8215(5)
C105_3 C 0.0925(15) 0.5919(7) 0.8186(7)
C108_3 C 0.0131(13) 0.6055(7) 0.8121(7)
H97_3 H 0.005727 0.631101 0.810502
C110_3 C 0.1011(14) 0.5534(7) 0.8228(7)
C121_3 C 0.2126(16) 0.6064(8) 0.8220(8)
C127_3 C 0.2280(13) 0.5714(6) 0.8246(6)
H106_3 H 0.276773 0.565466 0.827669
C129_3 C 0.1424(15) 0.6195(8) 0.8208(7)
H107_3 H 0.130563 0.644638 0.821475
C134_3 C 0.1781(16) 0.5404(8) 0.8234(8)
C136_3 C 0.1932(19) 0.5022(10) 0.8256(10)
C148_2 C 0.040(2) 0.4082(12) 0.8094(12)
H129_2 H 0.047833 0.433445 0.801487
H130_2 H 0.081105 0.400370 0.823804
H131_2 H 0.035801 0.392291 0.788551
C150_2 C 0.282(2) 0.4982(13) 0.8263(13)
H135_2 H 0.294764 0.472351 0.827832
H136_3 H 0.301792 0.508716 0.804466
H137_3 H 0.300872 0.511204 0.847073
C152_2 C 0.175(2) 0.4802(12) 0.7939(12)
H138_2 H 0.187550 0.454599 0.798269
H139_2 H 0.123990 0.482081 0.789123
H140_2 H 0.201727 0.489209 0.773233
C156_2 C 0.163(2) 0.4864(12) 0.8667(11)
H146_2 H 0.172768 0.460186 0.868761
H147_2 H 0.187321 0.499453 0.885949
H148_2 H 0.111551 0.490514 0.868609
H162_3 H 0.001940 0.585045 0.681329
C172_3 C 0.2713(16) 0.6382(8) 0.8178(8)
C173_3 C 0.2632(14) 0.6733(7) 0.8301(7)
H163_3 H 0.218768 0.679536 0.840501
C174_3 C 0.3402(16) 0.6254(9) 0.8039(8)
H164_3 H 0.349599 0.600488 0.798884
C175_3 C 0.3176(12) 0.7018(7) 0.8285(6)
H165_3 H 0.310602 0.725526 0.837971
C176_3 C 0.3900(14) 0.6526(7) 0.7987(7)
H166_3 H 0.432438 0.646832 0.786276
H168_2 H 0.034456 0.417708 0.877102
H169_2 H 0.005262 0.453866 0.858174
Ni4_2 Ni 0.0432(2) 0.03306(13) 0.69079(14)
N15_2 N 0.0411(18) 0.0853(8) 0.6911(8)
N16_2 N 0.1352(15) 0.0369(7) 0.7108(7)
C138_2 C 0.172(2) 0.0088(11) 0.7187(12)
H115_2 H 0.210751 0.013647 0.734066
C159_2 C 0.120(4) 0.102(3) 0.6926(16)
H153_2 H 0.117593 0.127689 0.701954
C160_2 C 0.158(2) 0.0774(10) 0.7193(10)
H154_2 H 0.210335 0.080192 0.716690
C165_2 C 0.072(2) 0.0780(11) 0.7780(11)
H158_2 H 0.041764 0.061721 0.765789
C166_2 C 0.135(2) 0.0862(11) 0.7589(11)
C167_2 C 0.177(3) 0.1064(10) 0.7826(10)
H159_2 H 0.222563 0.113748 0.773883
C168_2 C 0.150(3) 0.102(2) 0.6576(15)
C169_2 C 0.096(2) 0.1061(11) 0.8336(12)
H160_2 H 0.087483 0.110170 0.858230
C170_2 C 0.161(2) 0.1171(11) 0.8178(10)
H161_2 H 0.193398 0.131687 0.830848
C171_2 C 0.046(3) 0.0889(16) 0.8116(11)
C180_2 C 0.244(3) 0.104(2) 0.616(2)
H172_2 H 0.293886 0.105261 0.612613
C181_2 C 0.205(4) 0.102(2) 0.5841(16)
H173_2 H 0.225402 0.101664 0.560964
C182_2 C 0.130(4) 0.099(2) 0.5911(16)
H174_2 H 0.096190 0.097752 0.572446
C183_2 C 0.111(2) 0.0998(18) 0.6266(17)
H175_2 H 0.060705 0.098343 0.630355
C184_2 C 0.225(3) 0.104(2) 0.6531(18)
H176_2 H 0.258597 0.106153 0.672160
O6_4 O 0.9474(11) 0.0291(5) 0.6785(5)
C105_4 C 0.9075(15) 0.0919(7) 0.6814(7)
C108_4 C 0.9869(13) 0.1055(7) 0.6879(7)
H97_4 H 0.994273 0.131101 0.689498
C110_4 C 0.8989(14) 0.0534(7) 0.6772(7)
C121_4 C 0.7874(16) 0.1064(8) 0.6780(8)
C127_4 C 0.7720(13) 0.0714(6) 0.6754(6)
H106_4 H 0.723227 0.065466 0.672331
C129_4 C 0.8576(15) 0.1195(8) 0.6792(7)
H107_4 H 0.869437 0.144638 0.678525
C134_4 C 0.8219(16) 0.0404(8) 0.6766(8)
C136_4 C 0.8068(19) 0.0022(10) 0.6744(10)
H136_4 H 0.698208 0.008716 0.695534
H137_4 H 0.699128 0.011204 0.652927
H162_4 H 0.998060 0.085045 0.818671
C172_4 C 0.7287(16) 0.1382(8) 0.6822(8)
C173_4 C 0.7368(14) 0.1733(7) 0.6699(7)
H163_4 H 0.781232 0.179536 0.659499
C174_4 C 0.6598(16) 0.1254(9) 0.6961(8)
H164_4 H 0.650401 0.100488 0.701116
C175_4 C 0.6824(12) 0.2018(7) 0.6715(6)
H165_4 H 0.689398 0.225526 0.662029
N18_2 N 0.6203(9) 0.1912(5) 0.6879(5)
C176_4 C 0.6100(14) 0.1526(7) 0.7013(7)
H166_4 H 0.567562 0.146832 0.713724
Cu12_2 Cu 0.55071(18) 0.23178(11) 0.70281(10)
C95_4 C 0.6870(9) 0.3233(7) 0.7575(8)
H91_4 H 0.700625 0.299157 0.751158
I5_4 I 0.57764(8) 0.29045(5) 0.66282(4)
I6_4 I 0.40874(8) 0.31735(5) 0.74443(4)
I7_4 I 0.42176(9) 0.20066(5) 0.69321(4)
I8_4 I 0.58521(8) 0.23670(5) 0.77535(4)
Cu7_2 Cu 0.44393(17) 0.27674(11) 0.68666(8)
Cu8_4 Cu 0.45149(19) 0.24320(11) 0.75038(10)
Cu9_4 Cu 0.54444(19) 0.29653(11) 0.73492(9)
Ni4_3 Ni 0.9568(2) 0.53306(13) 0.80921(14)
N11_4 N 0.3803(10) 0.2257(5) 0.7899(5)
O5_4 O 0.0617(11) 0.2013(5) 0.9481(5)
C96_4 C 0.1464(10) 0.2032(8) 0.8587(7)
H92_4 H 0.137581 0.202270 0.833781
C97_4 C 0.0882(10) 0.1999(5) 0.8822(4)
C103_4 C 0.2169(11) 0.2078(7) 0.8704(6)
C104_4 C 0.1086(11) 0.2005(8) 0.9196(5)
C107_4 C 0.3228(16) 0.2099(8) 0.7810(8)
H96_4 H 0.314822 0.205427 0.756368
O8_4 O 0.9543(11) 0.4820(5) 0.8138(5)
C111_4 C 0.2683(15) 0.1981(7) 0.8061(7)
H98_4 H 0.230120 0.182584 0.799567
C113_4 C 0.2770(14) 0.2116(7) 0.8406(7)
C114_4 C 0.0212(16) 0.1968(8) 0.8742(9)
H99_4 H 0.012388 0.197907 0.849330
C116_4 C 0.1795(10) 0.2080(7) 0.9308(6)
C118_4 C 0.3955(19) 0.2301(9) 0.8262(9)
H101_4 H 0.442856 0.235038 0.833538
C119_4 C 0.8944(13) 0.4592(7) 0.8026(7)
C120_4 C 0.2362(14) 0.2072(9) 0.9067(5)
H102_4 H 0.284332 0.206209 0.914244
N14_4 N 0.6143(9) 0.3325(5) 0.7558(5)
N15_3 N 0.9589(18) 0.5853(8) 0.8089(8)
C122_4 C 0.6511(10) 0.3936(7) 0.7771(7)
H103_4 H 0.636979 0.417386 0.784059
C123_4 C 0.8487(16) 0.3980(8) 0.8049(8)
H104_4 H 0.853446 0.372876 0.810602
C124_4 C 0.9044(17) 0.4210(8) 0.8124(8)
C125_4 C 0.3424(15) 0.2274(8) 0.8511(8)
H105_4 H 0.349307 0.235971 0.874758
C126_4 C 0.7226(12) 0.3835(6) 0.7792(8)
C128_4 C 0.7822(15) 0.4105(8) 0.7885(7)
C130_4 C 0.8342(15) 0.4730(7) 0.7908(7)
N16_3 N 0.8648(15) 0.5369(7) 0.7892(7)
C131_4 C 0.6002(15) 0.3689(5) 0.7648(9)
H108_4 H 0.552698 0.377316 0.762410
C132_4 C 0.2868(14) 0.2196(7) 0.9768(7)
H109_4 H 0.296791 0.241628 0.962810
H111_4 H 0.313717 0.199040 0.966928
C133_4 C 0.7762(13) 0.4467(6) 0.7827(6)
H112_4 H 0.733006 0.455738 0.772973
C138_3 C 0.828(2) 0.5088(11) 0.7813(12)
H115_3 H 0.789249 0.513647 0.765934
C139_4 C 0.7407(13) 0.3479(5) 0.7680(7)
H116_4 H 0.789063 0.340584 0.767484
C140_4 C 0.2053(18) 0.2109(9) 0.9751(9)
C145_4 C 0.1788(19) 0.1779(10) 0.9951(10)
H120_4 H 0.202152 0.155947 0.985687
H122_4 H 0.127286 0.175679 0.991960
C146_4 C 0.166(2) 0.2434(10) 0.9919(10)
H123_4 H 0.180336 0.266023 0.980103
H124_4 H 0.114248 0.240018 0.988855
C147_4 C 0.957(2) 0.3677(10) 0.8452(10)
H126_4 H 0.913205 0.368734 0.859185
H127_4 H 0.950840 0.350979 0.825068
H128_4 H 0.996144 0.359058 0.860320
C151_4 C 0.9750(18) 0.4062(9) 0.8310(9)
C159_3 C 0.880(4) 0.602(3) 0.8074(16)
H153_3 H 0.882407 0.627689 0.798046
C160_3 C 0.842(2) 0.5774(10) 0.7807(10)
H154_3 H 0.789665 0.580192 0.783310
C165_3 C 0.928(2) 0.5780(11) 0.7220(11)
H158_3 H 0.958236 0.561721 0.734211
C166_3 C 0.865(2) 0.5862(11) 0.7411(11)
C167_3 C 0.823(3) 0.6064(10) 0.7174(10)
H159_3 H 0.777437 0.613748 0.726117
C168_3 C 0.850(3) 0.602(2) 0.8424(15)
C169_3 C 0.904(2) 0.6061(11) 0.6664(12)
H160_3 H 0.912517 0.610170 0.641770
C170_3 C 0.839(2) 0.6171(11) 0.6822(10)
H161_3 H 0.806602 0.631687 0.669152
C171_3 C 0.954(3) 0.5889(16) 0.6884(11)
C177_4 C 0.994(2) 0.4288(12) 0.8650(12)
H167_4 H 0.952646 0.428940 0.881228
C180_3 C 0.756(3) 0.604(2) 0.884(2)
H172_3 H 0.706114 0.605261 0.887387
C181_3 C 0.795(4) 0.602(2) 0.9159(16)
H173_3 H 0.774598 0.601664 0.939036
C182_3 C 0.870(4) 0.599(2) 0.9089(16)
H174_3 H 0.903810 0.597752 0.927554
C183_3 C 0.889(2) 0.5998(18) 0.8734(17)
H175_3 H 0.939295 0.598343 0.869645
C184_3 C 0.775(3) 0.604(2) 0.8469(18)
H176_3 H 0.741403 0.606153 0.827840
N19_2 N 0.3786(11) 0.2921(6) 0.6478(5)
C93_3 C 0.192(4) 0.4534(11) 0.388(2)
H89_3 H 0.201506 0.478592 0.384329
C94_3 C 0.243(3) 0.4307(12) 0.4049(19)
H90_3 H 0.281081 0.441252 0.417642
Ni3_3 Ni 0.0371(2) 0.31165(19) 0.44510(11)
N12_3 N 0.1330(13) 0.3233(7) 0.4411(6)
C98_4 C 0.2673(12) 0.3051(7) 0.5976(6)
C99_4 C 0.2200(15) 0.3125(7) 0.5323(7)
H93_4 H 0.267979 0.313149 0.524357
N13_3 N 0.0381(13) 0.3077(6) 0.3937(6)
C100_3 C 0.1825(16) 0.3226(8) 0.4672(7)
H94_3 H 0.230568 0.327627 0.461328
C102_4 C 0.2100(15) 0.3102(8) 0.5648(7)
O7_3 O 0.0362(11) 0.3162(6) 0.4929(6)
C106_4 C 0.135(2) 0.3134(11) 0.5789(11)
H95_4 H 0.127388 0.315317 0.603873
C109_4 C 0.0904(17) 0.3171(8) 0.5183(8)
C112_4 C 0.0840(17) 0.3137(8) 0.5586(8)
C115_4 C 0.164(2) 0.3144(11) 0.5046(10)
C117_3 C 0.1084(12) 0.3157(7) 0.3798(6)
H100_3 H 0.103738 0.329328 0.356804
C135_4 C 0.2572(17) 0.3129(8) 0.6341(6)
H113_4 H 0.213115 0.322347 0.642186
C137_4 C 0.3318(12) 0.2895(8) 0.5865(7)
H114_4 H 0.338213 0.282173 0.562442
C141_3 C 0.1225(14) 0.2414(5) 0.3858(7)
H117_3 H 0.080473 0.241660 0.399817
C142_3 C 0.1492(13) 0.2743(6) 0.3719(7)
C143_3 C 0.2132(13) 0.2779(8) 0.3527(7)
H118_3 H 0.232662 0.299917 0.343718
C144_3 C 0.1574(14) 0.2083(7) 0.3792(8)
H119_3 H 0.136881 0.186115 0.387235
H132_4 H 0.004273 0.374951 0.563024
C153_3 C 0.243(2) 0.2427(8) 0.3494(10)
H141_3 H 0.286973 0.242774 0.336761
C154_3 C 0.2227(17) 0.2075(10) 0.3607(11)
H142_3 H 0.249450 0.185988 0.356342
H143_4 H 0.020725 0.341133 0.620410
H145_4 H 0.017554 0.297525 0.621986
C158_3 C 0.150(3) 0.3377(14) 0.4053(7)
H152_3 H 0.198353 0.326462 0.401776
C161_4 C 0.3128(12) 0.3065(8) 0.6585(10)
H155_4 H 0.305403 0.311996 0.682964
C162_3 C 0.167(2) 0.3772(11) 0.3956(18)
C163_3 C 0.116(2) 0.4005(16) 0.3796(16)
H156_3 H 0.072344 0.390476 0.371413
C164_4 C 0.3868(14) 0.2849(8) 0.6115(5)
H157_4 H 0.431617 0.276444 0.603274
C178_3 C 0.235(2) 0.3929(11) 0.4032(19)
H170_3 H 0.275143 0.377588 0.407070
C179_3 C 0.128(3) 0.4377(15) 0.3757(17)
H171_3 H 0.093371 0.452620 0.364801
C148_3 C 0.960(2) 0.9082(12) 0.6906(12)
H129_3 H 0.952167 0.933445 0.698513
H130_3 H 0.918895 0.900370 0.676196
H131_3 H 0.964199 0.892291 0.711449
C150_3 C 0.718(2) 0.9982(13) 0.6737(13)
H135_3 H 0.705236 0.972351 0.672168
C152_3 C 0.825(2) 0.9802(12) 0.7061(12)
H138_3 H 0.812450 0.954599 0.701731
H139_3 H 0.876010 0.982081 0.710877
H140_3 H 0.798273 0.989209 0.726767
C156_3 C 0.837(2) 0.9864(12) 0.6333(11)
H146_3 H 0.827232 0.960186 0.631239
H147_3 H 0.812679 0.999453 0.614051
H148_3 H 0.888449 0.990514 0.631391
H168_3 H 0.965544 0.917708 0.622898
H169_3 H 0.994738 0.953866 0.641826
C101_4 C 0.010(3) 0.1821(15) 0.0692(15)
H110_4 H 0.300995 0.223609 0.001629
H121_4 H 0.189917 0.180463 0.020468
H125_4 H 0.176879 0.244802 0.017363
C149_4 C 0.031(3) 0.1429(13) 0.0549(14)
H133_4 H 0.032138 0.143242 0.028793
H134_4 H 0.077945 0.136236 0.064101
C155_4 C 0.006(3) 0.1805(13) 0.1130(12)
H144_4 H 0.054424 0.179203 0.122765
C157_4 C 0.050(3) 0.2144(13) 0.0623(13)
H149_4 H 0.026842 0.235306 0.073764
H150_4 H 0.098205 0.211613 0.071774
H151_4 H 0.052398 0.218619 0.036465
C93_4 C 0.808(4) 0.0466(11) 0.888(2)
H89_4 H 0.798494 0.021408 0.884329
C94_4 C 0.757(3) 0.0693(12) 0.9049(19)
H90_4 H 0.718919 0.058748 0.917642
Ni3_4 Ni 0.9629(2) 0.18835(19) 0.94510(11)
N12_4 N 0.8670(13) 0.1767(7) 0.9411(6)
N13_4 N 0.9619(13) 0.1923(6) 0.8937(6)
C100_4 C 0.8175(16) 0.1774(8) 0.9672(7)
H94_4 H 0.769432 0.172373 0.961328
O7_4 O 0.9638(11) 0.1838(6) 0.9929(6)
C117_4 C 0.8916(12) 0.1843(7) 0.8798(6)
H100_4 H 0.896262 0.170672 0.856804
C141_4 C 0.8775(14) 0.2586(5) 0.8858(7)
H117_4 H 0.919527 0.258340 0.899817
C142_4 C 0.8508(13) 0.2257(6) 0.8719(7)
C143_4 C 0.7868(13) 0.2221(8) 0.8527(7)
H118_4 H 0.767338 0.200083 0.843718
C144_4 C 0.8426(14) 0.2917(7) 0.8792(8)
H119_4 H 0.863119 0.313885 0.887235
C153_4 C 0.757(2) 0.2573(8) 0.8494(10)
H141_4 H 0.713027 0.257226 0.836761
C154_4 C 0.7773(17) 0.2925(10) 0.8607(11)
H142_4 H 0.750550 0.314012 0.856342
C158_4 C 0.850(3) 0.1623(14) 0.9053(7)
H152_4 H 0.801647 0.173538 0.901776
C162_4 C 0.833(2) 0.1228(11) 0.8956(18)
C163_4 C 0.884(2) 0.0995(16) 0.8796(16)
H156_4 H 0.927656 0.109524 0.871413
C178_4 C 0.765(2) 0.1071(11) 0.9032(19)
H170_4 H 0.724857 0.122412 0.907070
C179_4 C 0.872(3) 0.0623(15) 0.8757(17)
H171_4 H 0.906629 0.047380 0.864801
Ni4_4 Ni 0.0432(2) 0.96694(13) 0.30921(14)
N15_4 N 0.0411(18) 0.9147(8) 0.3089(8)
N16_4 N 0.1352(15) 0.9631(7) 0.2892(7)
C138_4 C 0.172(2) 0.9912(11) 0.2813(12)
H115_4 H 0.210751 0.986353 0.265934
C159_4 C 0.120(4) 0.898(3) 0.3074(16)
H153_4 H 0.117593 0.872311 0.298046
C160_4 C 0.158(2) 0.9226(10) 0.2807(10)
H154_4 H 0.210335 0.919808 0.283310
C165_4 C 0.072(2) 0.9220(11) 0.2220(11)
H158_4 H 0.041764 0.938279 0.234211
C166_4 C 0.135(2) 0.9138(11) 0.2411(11)
C167_4 C 0.177(3) 0.8936(10) 0.2174(10)
H159_4 H 0.222563 0.886252 0.226117
C168_4 C 0.150(3) 0.898(2) 0.3424(15)
C169_4 C 0.096(2) 0.8939(11) 0.1664(12)
H160_4 H 0.087483 0.889830 0.141770
C170_4 C 0.161(2) 0.8829(11) 0.1822(10)
H161_4 H 0.193398 0.868313 0.169152
C171_4 C 0.046(3) 0.9111(16) 0.1884(11)
C180_4 C 0.244(3) 0.896(2) 0.384(2)
H172_4 H 0.293886 0.894739 0.387387
C181_4 C 0.205(4) 0.898(2) 0.4159(16)
H173_4 H 0.225402 0.898336 0.439036
C182_4 C 0.130(4) 0.901(2) 0.4089(16)
H174_4 H 0.096190 0.902248 0.427554
C183_4 C 0.111(2) 0.9002(18) 0.3734(17)
H175_4 H 0.060705 0.901657 0.369645
C184_4 C 0.225(3) 0.896(2) 0.3469(18)
H176_4 H 0.258597 0.893847 0.327840
C148_4 C 0.960(2) 0.0918(12) 0.3094(12)
H129_4 H 0.952167 0.066555 0.301487
H130_4 H 0.918895 0.099630 0.323804
H131_4 H 0.964199 0.107709 0.288551
C150_4 C 0.718(2) 0.0018(13) 0.3263(13)
H135_4 H 0.705236 0.027649 0.327832
C152_4 C 0.825(2) 0.0198(12) 0.2939(12)
H138_4 H 0.812450 0.045401 0.298269
H139_4 H 0.876010 0.017919 0.289123
H140_4 H 0.798273 0.010791 0.273233
C156_4 C 0.837(2) 0.0136(12) 0.3667(11)
H146_4 H 0.827232 0.039814 0.368761
H147_4 H 0.812679 0.000547 0.385949
H148_4 H 0.888449 0.009486 0.368609
H168_4 H 0.965544 0.082292 0.377102
H169_4 H 0.994738 0.046134 0.358174
loop_
_geom_bond_atom_site_label_1
_geom_bond_atom_site_label_2
_geom_bond_site_symmetry_1
_geom_bond_site_symmetry_2
I2 Cu1 1_555 1_555
I3 Cu1 1_555 1_555
Cu1 Cu2 1_555 1_555
Cu2 I2 1_555 1_555
C6 C19 1_555 1_555
C8 C9 1_555 1_555
C9 H5 1_555 1_555
C11 H6 1_555 1_555
C12 C8 1_555 1_555
C19 O2 1_555 1_555
C23 C9 1_555 1_555
N5 Cu2 1_555 1_555
C33 C6 1_555 1_555
H18 C33 1_555 1_555
C35 N5 1_555 1_555
H20 C35 1_555 1_555
C36 C12 1_555 1_555
H21 C36 1_555 1_555
C37 N5 1_555 1_555
H22 C37 1_555 1_555
C39 C12 1_555 1_555
H24 C39 1_555 1_555
C43 H26 1_555 1_555
H27 C43 1_555 1_555
H28 C43 1_555 1_555
C44 C6 1_555 1_555
C45 C44 1_555 1_555
H29 C45 1_555 1_555
H30 C45 1_555 1_555
H31 C45 1_555 1_555
C50 C51 1_555 1_555
C51 H39 1_555 1_555
H40 C51 1_555 1_555
H41 C51 1_555 1_555
C52 C50 1_555 1_555
H42 C52 1_555 1_555
H43 C52 1_555 1_555
H44 C52 1_555 1_555
C90 C44 1_555 1_555
H80 C90 1_555 1_555
H81 C90 1_555 1_555
H82 C90 1_555 1_555
C92 C50 1_555 1_555
H86 C92 1_555 1_555
H87 C92 1_555 1_555
H88 C92 1_555 1_555
N9 Cu1 1_555 1_555
I3 Cu2 1_555 1_555
C8 C33 1_555 1_555
C11 C23 1_555 1_555
C19 C23 1_555 1_555
C35 C36 1_555 1_555
C37 C39 1_555 1_555
C43 C44 1_555 1_555
Ni1 N1 1_555 1_555
C7 C10 1_555 1_555
N3 Ni1 1_555 1_555
C13 C16 1_555 1_555
C15 C7 1_555 1_555
H8 C15 1_555 1_555
C16 C7 1_555 1_555
H9 C16 1_555 1_555
C17 C13 1_555 1_555
C21 C24 1_555 1_555
C24 N3 1_555 1_555
H11 C24 1_555 1_555
C27 C21 1_555 1_555
H13 C27 1_555 1_555
C29 C13 1_555 1_555
H15 C29 1_555 1_555
C30 N1 1_555 1_555
H16 C30 1_555 1_555
C34 C21 1_555 1_555
H19 C34 1_555 1_555
C42 C27 1_555 1_555
H25 C42 1_555 1_555
C49 C17 1_555 1_555
H38 C49 1_555 1_555
C53 C30 1_555 1_555
C54 C53 1_555 1_555
H45 C54 1_555 1_555
C55 C10 1_555 1_555
C56 C53 1_555 1_555
H46 C56 1_555 1_555
C58 C42 1_555 1_555
H48 C58 1_555 1_555
C62 H51 1_555 1_555
C64 C56 1_555 1_555
H55 C64 1_555 1_555
C66 C54 1_555 1_555
H57 C66 1_555 1_555
C67 C49 1_555 1_555
H58 C67 1_555 1_555
C68 H59 1_555 1_555
N7 C67 1_555 1_555
C69 C17 1_555 1_555
H60 C69 1_555 1_555
C87 C34 1_555 1_555
H75 C87 1_555 1_555
Cu5 N7 1_555 1_555
N3 C15 1_555 1_555
C24 C30 1_555 1_555
C29 C55 1_555 1_555
C58 C87 1_555 1_555
C62 C64 1_555 1_555
C62 C66 1_555 1_555
C68 N7 1_555 1_555
C68 C69 1_555 1_555
I2_2 Cu5 1_555 1_555
I3_2 Cu5 1_555 1_555
Cu5 Cu2_2 1_555 1_555
Cu2_2 I2_2 1_555 1_555
Ni1_2 N1_2 1_555 1_555
C6_2 C19_2 1_555 1_555
N1_2 C11_2 1_555 1_555
C7_2 C10_2 1_555 1_555
C8_2 C9_2 1_555 1_555
C9_2 H5_2 1_555 1_555
C10_2 O1_2 1_555 1_555
N3_2 Ni1_2 1_555 1_555
C11_2 H6_2 1_555 1_555
C12_2 C8_2 1_555 1_555
C13_2 C16_2 1_555 1_555
O1_2 Ni1_2 1_555 1_555
O2_2 Ni1_2 1_555 1_555
C15_2 C7_2 1_555 1_555
H8_2 C15_2 1_555 1_555
C16_2 C7_2 1_555 1_555
H9_2 C16_2 1_555 1_555
C17_2 C13_2 1_555 1_555
C19_2 O2_2 1_555 1_555
C21_2 C24_2 1_555 1_555
C23_2 C9_2 1_555 1_555
C24_2 N3_2 1_555 1_555
H11_2 C24_2 1_555 1_555
C27_2 C21_2 1_555 1_555
H13_2 C27_2 1_555 1_555
C29_2 C13_2 1_555 1_555
H15_2 C29_2 1_555 1_555
C30_2 N1_2 1_555 1_555
H16_2 C30_2 1_555 1_555
N5_2 Cu2_2 1_555 1_555
C33_2 C6_2 1_555 1_555
H18_2 C33_2 1_555 1_555
C34_2 C21_2 1_555 1_555
H19_2 C34_2 1_555 1_555
C35_2 N5_2 1_555 1_555
H20_2 C35_2 1_555 1_555
C36_2 C12_2 1_555 1_555
H21_2 C36_2 1_555 1_555
C37_2 N5_2 1_555 1_555
H22_2 C37_2 1_555 1_555
C39_2 C12_2 1_555 1_555
H24_2 C39_2 1_555 1_555
C42_2 C27_2 1_555 1_555
H25_2 C42_2 1_555 1_555
C43_2 H26_2 1_555 1_555
H27_2 C43_2 1_555 1_555
H28_2 C43_2 1_555 1_555
C44_2 C6_2 1_555 1_555
C45_2 C44_2 1_555 1_555
H29_2 C45_2 1_555 1_555
H30_2 C45_2 1_555 1_555
H31_2 C45_2 1_555 1_555
C49_2 C17_2 1_555 1_555
H38_2 C49_2 1_555 1_555
C50_2 C51_2 1_555 1_555
C51_2 H39_2 1_555 1_555
H40_2 C51_2 1_555 1_555
H41_2 C51_2 1_555 1_555
C52_2 C50_2 1_555 1_555
H42_2 C52_2 1_555 1_555
H43_2 C52_2 1_555 1_555
H44_2 C52_2 1_555 1_555
C53_2 C30_2 1_555 1_555
C54_2 C53_2 1_555 1_555
H45_2 C54_2 1_555 1_555
C55_2 C10_2 1_555 1_555
C56_2 C53_2 1_555 1_555
H46_2 C56_2 1_555 1_555
C58_2 C42_2 1_555 1_555
H48_2 C58_2 1_555 1_555
C62_2 H51_2 1_555 1_555
C64_2 C56_2 1_555 1_555
H55_2 C64_2 1_555 1_555
C66_2 C54_2 1_555 1_555
H57_2 C66_2 1_555 1_555
C67_2 C49_2 1_555 1_555
H58_2 C67_2 1_555 1_555
C68_2 H59_2 1_555 1_555
N9 C67_2 1_555 1_555
C69_2 C17_2 1_555 1_555
H60_2 C69_2 1_555 1_555
C87_2 C34_2 1_555 1_555
H75_2 C87_2 1_555 1_555
C90_2 C44_2 1_555 1_555
H80_2 C90_2 1_555 1_555
H81_2 C90_2 1_555 1_555
H82_2 C90_2 1_555 1_555
C92_2 C50_2 1_555 1_555
H86_2 C92_2 1_555 1_555
H87_2 C92_2 1_555 1_555
H88_2 C92_2 1_555 1_555
I3_2 Cu2_2 1_555 1_555
C8_2 C33_2 1_555 1_555
N3_2 C15_2 1_555 1_555
C11_2 C23_2 1_555 1_555
C19_2 C23_2 1_555 1_555
C24_2 C30_2 1_555 1_555
C29_2 C55_2 1_555 1_555
C35_2 C36_2 1_555 1_555
C37_2 C39_2 1_555 1_555
C43_2 C44_2 1_555 1_555
C50_2 C55_2 1_555 1_555
C58_2 C87_2 1_555 1_555
C62_2 C64_2 1_555 1_555
C62_2 C66_2 1_555 1_555
C68_2 N9 1_555 1_555
C68_2 C69_2 1_555 1_555
C1 C48 1_555 1_555
C2 C3 1_555 1_555
C3 H1 1_555 1_555
H2 C3 1_555 1_555
H3 C3 1_555 1_555
Cu3 I1 1_555 1_555
Cu4 I1 1_555 1_555
Ni2 N2 1_555 1_555
C4 C25 1_555 1_555
C5 H4 1_555 1_555
N2 C59 1_555 1_555
C14 H7 1_555 1_555
O3 Ni2 1_555 1_555
C18 C2 1_555 1_555
N4 Cu4 1_555 1_555
C20 C14 1_555 1_555
C22 C5 1_555 1_555
H10 C22 1_555 1_555
C25 C20 1_555 1_555
H12 C25 1_555 1_555
C26 C5 1_555 1_555
C28 C4 1_555 1_555
H14 C28 1_555 1_555
C31 C4 1_555 1_555
C32 N4 1_555 1_555
H17 C32 1_555 1_555
O4 Ni2 1_555 1_555
N6 Ni2 1_555 1_555
C38 C26 1_555 1_555
H23 C38 1_555 1_555
C40 C41 1_555 1_555
C41 O4 1_555 1_555
C46 C2 1_555 1_555
H32 C46 1_555 1_555
H33 C46 1_555 1_555
H34 C46 1_555 1_555
C47 C2 1_555 1_555
H35 C47 1_555 1_555
H36 C47 1_555 1_555
H37 C47 1_555 1_555
C48 C41 1_555 1_555
C57 N6 1_555 1_555
H47 C57 1_555 1_555
C59 C40 1_555 1_555
H49 C59 1_555 1_555
C60 C57 1_555 1_555
C61 C60 1_555 1_555
H50 C61 1_555 1_555
C63 C1 1_555 1_555
H52 C63 1_555 1_555
H53 C63 1_555 1_555
H54 C63 1_555 1_555
C65 C60 1_555 1_555
H56 C65 1_555 1_555
C70 H61 1_555 1_555
C71 C61 1_555 1_555
H62 C71 1_555 1_555
C72 C70 1_555 1_555
C73 C72 1_555 1_555
H63 C73 1_555 1_555
C74 C70 1_555 1_555
H64 C74 1_555 1_555
C75 N2 1_555 1_555
H65 C75 1_555 1_555
C76 C71 1_555 1_555
H66 C76 1_555 1_555
C77 C74 1_555 1_555
H67 C77 1_555 1_555
C78 C73 1_555 1_555
H68 C78 1_555 1_555
C79 C48 1_555 1_555
H69 C79 1_555 1_555
C80 C79 1_555 1_555
C81 C80 1_555 1_555
C82 C40 1_555 1_555
H70 C82 1_555 1_555
C83 C81 1_555 1_555
H71 C83 1_555 1_555
C84 C81 1_555 1_555
H72 C84 1_555 1_555
C85 C83 1_555 1_555
H73 C85 1_555 1_555
N8 C85 1_555 1_555
C86 C84 1_555 1_555
H74 C86 1_555 1_555
C88 C65 1_555 1_555
H76 C88 1_555 1_555
C89 C1 1_555 1_555
H77 C89 1_555 1_555
H78 C89 1_555 1_555
H79 C89 1_555 1_555
C91 C1 1_555 1_555
H83 C91 1_555 1_555
H84 C91 1_555 1_555
H85 C91 1_555 1_555
Cu6 N8 1_555 1_555
N10 Cu3 1_555 1_555
I4 Cu3 1_555 1_555
I4 Cu4 1_555 1_555
Cu3 Cu4 1_555 1_555
C14 C18 1_555 1_555
O3 C31 1_555 1_555
C18 C31 1_555 1_555
N4 C22 1_555 1_555
C20 C26 1_555 1_555
C28 N6 1_555 1_555
C32 C38 1_555 1_555
C57 C75 1_555 1_555
C72 C75 1_555 1_555
C76 C88 1_555 1_555
C77 C78 1_555 1_555
C80 C82 1_555 1_555
N8 C86 1_555 1_555
Cu6 I1_2 1_555 1_555
Cu4_2 I1_2 1_555 1_555
Ni2_2 N2_2 1_555 1_555
C4_2 C25_2 1_555 1_555
C5_2 H4_2 1_555 1_555
C14_2 H7_2 1_555 1_555
O3_2 Ni2_2 1_555 1_555
N4_2 Cu4_2 1_555 1_555
C20_2 C14_2 1_555 1_555
C22_2 C5_2 1_555 1_555
H10_2 C22_2 1_555 1_555
C25_2 C20_2 1_555 1_555
H12_2 C25_2 1_555 1_555
C26_2 C5_2 1_555 1_555
C28_2 C4_2 1_555 1_555
H14_2 C28_2 1_555 1_555
C31_2 C4_2 1_555 1_555
C32_2 N4_2 1_555 1_555
H17_2 C32_2 1_555 1_555
N6_2 Ni2_2 1_555 1_555
C38_2 C26_2 1_555 1_555
H23_2 C38_2 1_555 1_555
C57_2 N6_2 1_555 1_555
H47_2 C57_2 1_555 1_555
C60_2 C57_2 1_555 1_555
C61_2 C60_2 1_555 1_555
H50_2 C61_2 1_555 1_555
C65_2 C60_2 1_555 1_555
H56_2 C65_2 1_555 1_555
C70_2 H61_2 1_555 1_555
C71_2 C61_2 1_555 1_555
H62_2 C71_2 1_555 1_555
C72_2 C70_2 1_555 1_555
C73_2 C72_2 1_555 1_555
H63_2 C73_2 1_555 1_555
C74_2 C70_2 1_555 1_555
H64_2 C74_2 1_555 1_555
C75_2 N2_2 1_555 1_555
H65_2 C75_2 1_555 1_555
C76_2 C71_2 1_555 1_555
H66_2 C76_2 1_555 1_555
C77_2 C74_2 1_555 1_555
H67_2 C77_2 1_555 1_555
C78_2 C73_2 1_555 1_555
H68_2 C78_2 1_555 1_555
C88_2 C65_2 1_555 1_555
H76_2 C88_2 1_555 1_555
I4_2 Cu6 1_555 1_555
I4_2 Cu4_2 1_555 1_555
Cu6 Cu4_2 1_555 1_555
C14_2 C18_2 1_555 1_555
O3_2 C31_2 1_555 1_555
C18_2 C31_2 1_555 1_555
N4_2 C22_2 1_555 1_555
C20_2 C26_2 1_555 1_555
C28_2 N6_2 1_555 1_555
C32_2 C38_2 1_555 1_555
C57_2 C75_2 1_555 1_555
C72_2 C75_2 1_555 1_555
C76_2 C88_2 1_555 1_555
C77_2 C78_2 1_555 1_555
C1_2 C48_2 1_555 1_555
C2_2 C3_2 1_555 1_555
C3_2 H1_2 1_555 1_555
H2_2 C3_2 1_555 1_555
H3_2 C3_2 1_555 1_555
C40_2 C41_2 1_555 1_555
C41_2 O4_2 1_555 1_555
C46_2 C2_2 1_555 1_555
H32_2 C46_2 1_555 1_555
H33_2 C46_2 1_555 1_555
H34_2 C46_2 1_555 1_555
C47_2 C2_2 1_555 1_555
H35_2 C47_2 1_555 1_555
H36_2 C47_2 1_555 1_555
H37_2 C47_2 1_555 1_555
C48_2 C41_2 1_555 1_555
C59_2 C40_2 1_555 1_555
C63_2 C1_2 1_555 1_555
H52_2 C63_2 1_555 1_555
H53_2 C63_2 1_555 1_555
H54_2 C63_2 1_555 1_555
C79_2 C48_2 1_555 1_555
H69_2 C79_2 1_555 1_555
C80_2 C79_2 1_555 1_555
C81_2 C80_2 1_555 1_555
C82_2 C40_2 1_555 1_555
H70_2 C82_2 1_555 1_555
C83_2 C81_2 1_555 1_555
H71_2 C83_2 1_555 1_555
C84_2 C81_2 1_555 1_555
H72_2 C84_2 1_555 1_555
C85_2 C83_2 1_555 1_555
H73_2 C85_2 1_555 1_555
N10 C85_2 1_555 1_555
C86_2 C84_2 1_555 1_555
H74_2 C86_2 1_555 1_555
C89_2 C1_2 1_555 1_555
H77_2 C89_2 1_555 1_555
H78_2 C89_2 1_555 1_555
H79_2 C89_2 1_555 1_555
C91_2 C1_2 1_555 1_555
H83_2 C91_2 1_555 1_555
H84_2 C91_2 1_555 1_555
H85_2 C91_2 1_555 1_555
C80_2 C82_2 1_555 1_555
N10 C86_2 1_555 1_555
C1_3 C48_3 1_555 1_555
C2_3 C3_3 1_555 1_555
C3_3 H1_3 1_555 1_555
H2_3 C3_3 1_555 1_555
H3_3 C3_3 1_555 1_555
C40_3 C41_3 1_555 1_555
C41_3 O4_3 1_555 1_555
C46_3 C2_3 1_555 1_555
H32_3 C46_3 1_555 1_555
H33_3 C46_3 1_555 1_555
H34_3 C46_3 1_555 1_555
C47_3 C2_3 1_555 1_555
H35_3 C47_3 1_555 1_555
H36_3 C47_3 1_555 1_555
H37_3 C47_3 1_555 1_555
C48_3 C41_3 1_555 1_555
C59_3 C40_3 1_555 1_555
C63_3 C1_3 1_555 1_555
H52_3 C63_3 1_555 1_555
H53_3 C63_3 1_555 1_555
H54_3 C63_3 1_555 1_555
C79_3 C48_3 1_555 1_555
H69_3 C79_3 1_555 1_555
C80_3 C79_3 1_555 1_555
C81_3 C80_3 1_555 1_555
C82_3 C40_3 1_555 1_555
H70_3 C82_3 1_555 1_555
C83_3 C81_3 1_555 1_555
H71_3 C83_3 1_555 1_555
C84_3 C81_3 1_555 1_555
H72_3 C84_3 1_555 1_555
C85_3 C83_3 1_555 1_555
H73_3 C85_3 1_555 1_555
N8_2 C85_3 1_555 1_555
C86_3 C84_3 1_555 1_555
H74_3 C86_3 1_555 1_555
C89_3 C1_3 1_555 1_555
H77_3 C89_3 1_555 1_555
H78_3 C89_3 1_555 1_555
H79_3 C89_3 1_555 1_555
C91_3 C1_3 1_555 1_555
H83_3 C91_3 1_555 1_555
H84_3 C91_3 1_555 1_555
H85_3 C91_3 1_555 1_555
Cu6_2 N8_2 1_555 1_555
C80_3 C82_3 1_555 1_555
N8_2 C86_3 1_555 1_555
Cu3_2 I1_3 1_555 1_555
Cu4_3 I1_3 1_555 1_555
Ni2_3 N2_3 1_555 1_555
C4_3 C25_3 1_555 1_555
C5_3 H4_3 1_555 1_555
C14_3 H7_3 1_555 1_555
O3_3 Ni2_3 1_555 1_555
N4_3 Cu4_3 1_555 1_555
C20_3 C14_3 1_555 1_555
C22_3 C5_3 1_555 1_555
H10_3 C22_3 1_555 1_555
C25_3 C20_3 1_555 1_555
H12_3 C25_3 1_555 1_555
C26_3 C5_3 1_555 1_555
C28_3 C4_3 1_555 1_555
H14_3 C28_3 1_555 1_555
C31_3 C4_3 1_555 1_555
C32_3 N4_3 1_555 1_555
H17_3 C32_3 1_555 1_555
N6_3 Ni2_3 1_555 1_555
C38_3 C26_3 1_555 1_555
H23_3 C38_3 1_555 1_555
C57_3 N6_3 1_555 1_555
H47_3 C57_3 1_555 1_555
C60_3 C57_3 1_555 1_555
C61_3 C60_3 1_555 1_555
H50_3 C61_3 1_555 1_555
C65_3 C60_3 1_555 1_555
H56_3 C65_3 1_555 1_555
C70_3 H61_3 1_555 1_555
C71_3 C61_3 1_555 1_555
H62_3 C71_3 1_555 1_555
C72_3 C70_3 1_555 1_555
C73_3 C72_3 1_555 1_555
H63_3 C73_3 1_555 1_555
C74_3 C70_3 1_555 1_555
H64_3 C74_3 1_555 1_555
C75_3 N2_3 1_555 1_555
H65_3 C75_3 1_555 1_555
C76_3 C71_3 1_555 1_555
H66_3 C76_3 1_555 1_555
C77_3 C74_3 1_555 1_555
H67_3 C77_3 1_555 1_555
C78_3 C73_3 1_555 1_555
H68_3 C78_3 1_555 1_555
C88_3 C65_3 1_555 1_555
H76_3 C88_3 1_555 1_555
N10_2 Cu3_2 1_555 1_555
I4_3 Cu3_2 1_555 1_555
I4_3 Cu4_3 1_555 1_555
Cu3_2 Cu4_3 1_555 1_555
C14_3 C18_3 1_555 1_555
O3_3 C31_3 1_555 1_555
C18_3 C31_3 1_555 1_555
N4_3 C22_3 1_555 1_555
C20_3 C26_3 1_555 1_555
C28_3 N6_3 1_555 1_555
C32_3 C38_3 1_555 1_555
C57_3 C75_3 1_555 1_555
C72_3 C75_3 1_555 1_555
C76_3 C88_3 1_555 1_555
C77_3 C78_3 1_555 1_555
C1_4 C48_4 1_555 1_555
C2_4 C3_4 1_555 1_555
C3_4 H1_4 1_555 1_555
H2_4 C3_4 1_555 1_555
H3_4 C3_4 1_555 1_555
Cu6_2 I1_4 1_555 1_555
Cu4_4 I1_4 1_555 1_555
Ni2_4 N2_4 1_555 1_555
C4_4 C25_4 1_555 1_555
C5_4 H4_4 1_555 1_555
N2_4 C59_4 1_555 1_555
C14_4 H7_4 1_555 1_555
O3_4 Ni2_4 1_555 1_555
C18_4 C2_4 1_555 1_555
N4_4 Cu4_4 1_555 1_555
C20_4 C14_4 1_555 1_555
C22_4 C5_4 1_555 1_555
H10_4 C22_4 1_555 1_555
C25_4 C20_4 1_555 1_555
H12_4 C25_4 1_555 1_555
C26_4 C5_4 1_555 1_555
C28_4 C4_4 1_555 1_555
H14_4 C28_4 1_555 1_555
C31_4 C4_4 1_555 1_555
C32_4 N4_4 1_555 1_555
H17_4 C32_4 1_555 1_555
O4_4 Ni2_4 1_555 1_555
N6_4 Ni2_4 1_555 1_555
C38_4 C26_4 1_555 1_555
H23_4 C38_4 1_555 1_555
C40_4 C41_4 1_555 1_555
C41_4 O4_4 1_555 1_555
C46_4 C2_4 1_555 1_555
H32_4 C46_4 1_555 1_555
H33_4 C46_4 1_555 1_555
H34_4 C46_4 1_555 1_555
C47_4 C2_4 1_555 1_555
H35_4 C47_4 1_555 1_555
H36_4 C47_4 1_555 1_555
H37_4 C47_4 1_555 1_555
C48_4 C41_4 1_555 1_555
C57_4 N6_4 1_555 1_555
H47_4 C57_4 1_555 1_555
C59_4 C40_4 1_555 1_555
H49_4 C59_4 1_555 1_555
C60_4 C57_4 1_555 1_555
C61_4 C60_4 1_555 1_555
H50_4 C61_4 1_555 1_555
C63_4 C1_4 1_555 1_555
H52_4 C63_4 1_555 1_555
H53_4 C63_4 1_555 1_555
H54_4 C63_4 1_555 1_555
C65_4 C60_4 1_555 1_555
H56_4 C65_4 1_555 1_555
C70_4 H61_4 1_555 1_555
C71_4 C61_4 1_555 1_555
H62_4 C71_4 1_555 1_555
C72_4 C70_4 1_555 1_555
C73_4 C72_4 1_555 1_555
H63_4 C73_4 1_555 1_555
C74_4 C70_4 1_555 1_555
H64_4 C74_4 1_555 1_555
C75_4 N2_4 1_555 1_555
H65_4 C75_4 1_555 1_555
C76_4 C71_4 1_555 1_555
H66_4 C76_4 1_555 1_555
C77_4 C74_4 1_555 1_555
H67_4 C77_4 1_555 1_555
C78_4 C73_4 1_555 1_555
H68_4 C78_4 1_555 1_555
C79_4 C48_4 1_555 1_555
H69_4 C79_4 1_555 1_555
C80_4 C79_4 1_555 1_555
C81_4 C80_4 1_555 1_555
C82_4 C40_4 1_555 1_555
H70_4 C82_4 1_555 1_555
C83_4 C81_4 1_555 1_555
H71_4 C83_4 1_555 1_555
C84_4 C81_4 1_555 1_555
H72_4 C84_4 1_555 1_555
C85_4 C83_4 1_555 1_555
H73_4 C85_4 1_555 1_555
N10_2 C85_4 1_555 1_555
C86_4 C84_4 1_555 1_555
H74_4 C86_4 1_555 1_555
C88_4 C65_4 1_555 1_555
H76_4 C88_4 1_555 1_555
C89_4 C1_4 1_555 1_555
H77_4 C89_4 1_555 1_555
H78_4 C89_4 1_555 1_555
H79_4 C89_4 1_555 1_555
C91_4 C1_4 1_555 1_555
H83_4 C91_4 1_555 1_555
H84_4 C91_4 1_555 1_555
H85_4 C91_4 1_555 1_555
I4_4 Cu6_2 1_555 1_555
I4_4 Cu4_4 1_555 1_555
Cu6_2 Cu4_4 1_555 1_555
C14_4 C18_4 1_555 1_555
O3_4 C31_4 1_555 1_555
C18_4 C31_4 1_555 1_555
N4_4 C22_4 1_555 1_555
C20_4 C26_4 1_555 1_555
C28_4 N6_4 1_555 1_555
C32_4 C38_4 1_555 1_555
C57_4 C75_4 1_555 1_555
C72_4 C75_4 1_555 1_555
C76_4 C88_4 1_555 1_555
C77_4 C78_4 1_555 1_555
C80_4 C82_4 1_555 1_555
N10_2 C86_4 1_555 1_555
Ni1_3 N1_3 1_555 1_555
C7_3 C10_3 1_555 1_555
N3_3 Ni1_3 1_555 1_555
C13_3 C16_3 1_555 1_555
C15_3 C7_3 1_555 1_555
H8_3 C15_3 1_555 1_555
C16_3 C7_3 1_555 1_555
H9_3 C16_3 1_555 1_555
C17_3 C13_3 1_555 1_555
C21_3 C24_3 1_555 1_555
C24_3 N3_3 1_555 1_555
H11_3 C24_3 1_555 1_555
C27_3 C21_3 1_555 1_555
H13_3 C27_3 1_555 1_555
C29_3 C13_3 1_555 1_555
H15_3 C29_3 1_555 1_555
C30_3 N1_3 1_555 1_555
H16_3 C30_3 1_555 1_555
C34_3 C21_3 1_555 1_555
H19_3 C34_3 1_555 1_555
C42_3 C27_3 1_555 1_555
H25_3 C42_3 1_555 1_555
C49_3 C17_3 1_555 1_555
H38_3 C49_3 1_555 1_555
C53_3 C30_3 1_555 1_555
C54_3 C53_3 1_555 1_555
H45_3 C54_3 1_555 1_555
C55_3 C10_3 1_555 1_555
C56_3 C53_3 1_555 1_555
H46_3 C56_3 1_555 1_555
C58_3 C42_3 1_555 1_555
H48_3 C58_3 1_555 1_555
C62_3 H51_3 1_555 1_555
C64_3 C56_3 1_555 1_555
H55_3 C64_3 1_555 1_555
C66_3 C54_3 1_555 1_555
H57_3 C66_3 1_555 1_555
C67_3 C49_3 1_555 1_555
H58_3 C67_3 1_555 1_555
C68_3 H59_3 1_555 1_555
N7_2 C67_3 1_555 1_555
C69_3 C17_3 1_555 1_555
H60_3 C69_3 1_555 1_555
C87_3 C34_3 1_555 1_555
H75_3 C87_3 1_555 1_555
Cu5_2 N7_2 1_555 1_555
N3_3 C15_3 1_555 1_555
C24_3 C30_3 1_555 1_555
C29_3 C55_3 1_555 1_555
C58_3 C87_3 1_555 1_555
C62_3 C64_3 1_555 1_555
C62_3 C66_3 1_555 1_555
C68_3 N7_2 1_555 1_555
C68_3 C69_3 1_555 1_555
I2_3 Cu1_2 1_555 1_555
I3_3 Cu1_2 1_555 1_555
Cu1_2 Cu2_3 1_555 1_555
Cu2_3 I2_3 1_555 1_555
C6_3 C19_3 1_555 1_555
C8_3 C9_3 1_555 1_555
C9_3 H5_3 1_555 1_555
C11_3 H6_3 1_555 1_555
C12_3 C8_3 1_555 1_555
C19_3 O2_3 1_555 1_555
C23_3 C9_3 1_555 1_555
N5_3 Cu2_3 1_555 1_555
C33_3 C6_3 1_555 1_555
H18_3 C33_3 1_555 1_555
C35_3 N5_3 1_555 1_555
H20_3 C35_3 1_555 1_555
C36_3 C12_3 1_555 1_555
H21_3 C36_3 1_555 1_555
C37_3 N5_3 1_555 1_555
H22_3 C37_3 1_555 1_555
C39_3 C12_3 1_555 1_555
H24_3 C39_3 1_555 1_555
C43_3 H26_3 1_555 1_555
H27_3 C43_3 1_555 1_555
H28_3 C43_3 1_555 1_555
C44_3 C6_3 1_555 1_555
C45_3 C44_3 1_555 1_555
H29_3 C45_3 1_555 1_555
H30_3 C45_3 1_555 1_555
H31_3 C45_3 1_555 1_555
C50_3 C51_3 1_555 1_555
C51_3 H39_3 1_555 1_555
H40_3 C51_3 1_555 1_555
H41_3 C51_3 1_555 1_555
C52_3 C50_3 1_555 1_555
H42_3 C52_3 1_555 1_555
H43_3 C52_3 1_555 1_555
H44_3 C52_3 1_555 1_555
C90_3 C44_3 1_555 1_555
H80_3 C90_3 1_555 1_555
H81_3 C90_3 1_555 1_555
H82_3 C90_3 1_555 1_555
C92_3 C50_3 1_555 1_555
H86_3 C92_3 1_555 1_555
H87_3 C92_3 1_555 1_555
H88_3 C92_3 1_555 1_555
N9_2 Cu1_2 1_555 1_555
I3_3 Cu2_3 1_555 1_555
C8_3 C33_3 1_555 1_555
C11_3 C23_3 1_555 1_555
C19_3 C23_3 1_555 1_555
C35_3 C36_3 1_555 1_555
C37_3 C39_3 1_555 1_555
C43_3 C44_3 1_555 1_555
I2_4 Cu5_2 1_555 1_555
I3_4 Cu5_2 1_555 1_555
Cu5_2 Cu2_4 1_555 1_555
Cu2_4 I2_4 1_555 1_555
Ni1_4 N1_4 1_555 1_555
C6_4 C19_4 1_555 1_555
N1_4 C11_4 1_555 1_555
C7_4 C10_4 1_555 1_555
C8_4 C9_4 1_555 1_555
C9_4 H5_4 1_555 1_555
C10_4 O1_4 1_555 1_555
N3_4 Ni1_4 1_555 1_555
C11_4 H6_4 1_555 1_555
C12_4 C8_4 1_555 1_555
C13_4 C16_4 1_555 1_555
O1_4 Ni1_4 1_555 1_555
O2_4 Ni1_4 1_555 1_555
C15_4 C7_4 1_555 1_555
H8_4 C15_4 1_555 1_555
C16_4 C7_4 1_555 1_555
H9_4 C16_4 1_555 1_555
C17_4 C13_4 1_555 1_555
C19_4 O2_4 1_555 1_555
C21_4 C24_4 1_555 1_555
C23_4 C9_4 1_555 1_555
C24_4 N3_4 1_555 1_555
H11_4 C24_4 1_555 1_555
C27_4 C21_4 1_555 1_555
H13_4 C27_4 1_555 1_555
C29_4 C13_4 1_555 1_555
H15_4 C29_4 1_555 1_555
C30_4 N1_4 1_555 1_555
H16_4 C30_4 1_555 1_555
N5_4 Cu2_4 1_555 1_555
C33_4 C6_4 1_555 1_555
H18_4 C33_4 1_555 1_555
C34_4 C21_4 1_555 1_555
H19_4 C34_4 1_555 1_555
C35_4 N5_4 1_555 1_555
H20_4 C35_4 1_555 1_555
C36_4 C12_4 1_555 1_555
H21_4 C36_4 1_555 1_555
C37_4 N5_4 1_555 1_555
H22_4 C37_4 1_555 1_555
C39_4 C12_4 1_555 1_555
H24_4 C39_4 1_555 1_555
C42_4 C27_4 1_555 1_555
H25_4 C42_4 1_555 1_555
C43_4 H26_4 1_555 1_555
H27_4 C43_4 1_555 1_555
H28_4 C43_4 1_555 1_555
C44_4 C6_4 1_555 1_555
C45_4 C44_4 1_555 1_555
H29_4 C45_4 1_555 1_555
H30_4 C45_4 1_555 1_555
H31_4 C45_4 1_555 1_555
C49_4 C17_4 1_555 1_555
H38_4 C49_4 1_555 1_555
C50_4 C51_4 1_555 1_555
C51_4 H39_4 1_555 1_555
H40_4 C51_4 1_555 1_555
H41_4 C51_4 1_555 1_555
C52_4 C50_4 1_555 1_555
H42_4 C52_4 1_555 1_555
H43_4 C52_4 1_555 1_555
H44_4 C52_4 1_555 1_555
C53_4 C30_4 1_555 1_555
C54_4 C53_4 1_555 1_555
H45_4 C54_4 1_555 1_555
C55_4 C10_4 1_555 1_555
C56_4 C53_4 1_555 1_555
H46_4 C56_4 1_555 1_555
C58_4 C42_4 1_555 1_555
H48_4 C58_4 1_555 1_555
C62_4 H51_4 1_555 1_555
C64_4 C56_4 1_555 1_555
H55_4 C64_4 1_555 1_555
C66_4 C54_4 1_555 1_555
H57_4 C66_4 1_555 1_555
C67_4 C49_4 1_555 1_555
H58_4 C67_4 1_555 1_555
C68_4 H59_4 1_555 1_555
N9_2 C67_4 1_555 1_555
C69_4 C17_4 1_555 1_555
H60_4 C69_4 1_555 1_555
C87_4 C34_4 1_555 1_555
H75_4 C87_4 1_555 1_555
C90_4 C44_4 1_555 1_555
H80_4 C90_4 1_555 1_555
H81_4 C90_4 1_555 1_555
H82_4 C90_4 1_555 1_555
C92_4 C50_4 1_555 1_555
H86_4 C92_4 1_555 1_555
H87_4 C92_4 1_555 1_555
H88_4 C92_4 1_555 1_555
I3_4 Cu2_4 1_555 1_555
C8_4 C33_4 1_555 1_555
N3_4 C15_4 1_555 1_555
C11_4 C23_4 1_555 1_555
C19_4 C23_4 1_555 1_555
C24_4 C30_4 1_555 1_555
C29_4 C55_4 1_555 1_555
C35_4 C36_4 1_555 1_555
C37_4 C39_4 1_555 1_555
C43_4 C44_4 1_555 1_555
C50_4 C55_4 1_555 1_555
C58_4 C87_4 1_555 1_555
C62_4 C64_4 1_555 1_555
C62_4 C66_4 1_555 1_555
C68_4 N9_2 1_555 1_555
C68_4 C69_4 1_555 1_555
O6 C110 1_555 1_555
C105 C108 1_555 1_555
C108 H97 1_555 1_555
C110 C105 1_555 1_555
C121 C127 1_555 1_555
C127 H106 1_555 1_555
C129 C105 1_555 1_555
H107 C129 1_555 1_555
C134 C110 1_555 1_555
C136 C134 1_555 1_555
C148 H129 1_555 1_555
H130 C148 1_555 1_555
H131 C148 1_555 1_555
C150 C136 1_555 1_555
H135 C150 1_555 1_555
H136 C150 1_555 1_555
H137 C150 1_555 1_555
C152 C136 1_555 1_555
H138 C152 1_555 1_555
H139 C152 1_555 1_555
H140 C152 1_555 1_555
C156 C136 1_555 1_555
H146 C156 1_555 1_555
H147 C156 1_555 1_555
H148 C156 1_555 1_555
C172 C121 1_555 1_555
C173 C172 1_555 1_555
H163 C173 1_555 1_555
C174 C172 1_555 1_555
H164 C174 1_555 1_555
C175 C173 1_555 1_555
H165 C175 1_555 1_555
N18 C175 1_555 1_555
C176 C174 1_555 1_555
H166 C176 1_555 1_555
Cu12 N18 1_555 1_555
C121 C129 1_555 1_555
C127 C134 1_555 1_555
N18 C176 1_555 1_555
C98 C102 1_555 1_555
C99 H93 1_555 1_555
C102 C99 1_555 1_555
C106 C102 1_555 1_555
H95 C106 1_555 1_555
C112 C106 1_555 1_555
C115 C99 1_555 1_555
C135 C98 1_555 1_555
H113 C135 1_555 1_555
C137 C98 1_555 1_555
H114 C137 1_555 1_555
C161 C135 1_555 1_555
H155 C161 1_555 1_555
C164 C137 1_555 1_555
H157 C164 1_555 1_555
N17 C161 1_555 1_555
Cu11 N17 1_555 1_555
C109 C112 1_555 1_555
C109 C115 1_555 1_555
C164 N17 1_555 1_555
C95 H91 1_555 1_555
I5 Cu11 1_555 1_555
I6 Cu11 1_555 1_555
I7 Cu11 1_555 1_555
I8 Cu8 1_555 1_555
Cu11 Cu8 1_555 1_555
Cu8 I6 1_555 1_555
Cu9 I5 1_555 1_555
Cu12 I5 1_555 1_555
N11 Cu8 1_555 1_555
O5 C104 1_555 1_555
C96 H92 1_555 1_555
C97 C96 1_555 1_555
C103 C96 1_555 1_555
C104 C97 1_555 1_555
C107 N11 1_555 1_555
H96 C107 1_555 1_555
C111 C107 1_555 1_555
H98 C111 1_555 1_555
C113 C103 1_555 1_555
C114 C97 1_555 1_555
H99 C114 1_555 1_555
C116 C104 1_555 1_555
C118 N11 1_555 1_555
H101 C118 1_555 1_555
C119 O8 1_555 1_555
C120 C103 1_555 1_555
H102 C120 1_555 1_555
N14 C95 1_555 1_555
C122 H103 1_555 1_555
C123 H104 1_555 1_555
C124 C119 1_555 1_555
C125 C113 1_555 1_555
H105 C125 1_555 1_555
C126 C122 1_555 1_555
C128 C123 1_555 1_555
C130 C119 1_555 1_555
C131 N14 1_555 1_555
H108 C131 1_555 1_555
C132 H109 1_555 1_555
H110 C132 1_555 1_555
H111 C132 1_555 1_555
C133 C128 1_555 1_555
H112 C133 1_555 1_555
C139 C95 1_555 1_555
H116 C139 1_555 1_555
C140 C116 1_555 1_555
C145 C140 1_555 1_555
H120 C145 1_555 1_555
H121 C145 1_555 1_555
H122 C145 1_555 1_555
C146 C140 1_555 1_555
H123 C146 1_555 1_555
H124 C146 1_555 1_555
H125 C146 1_555 1_555
C147 H126 1_555 1_555
H127 C147 1_555 1_555
H128 C147 1_555 1_555
C149 C101 1_555 1_555
H133 C149 1_555 1_555
H134 C149 1_555 1_555
C151 C124 1_555 1_555
C155 C101 1_555 1_555
H144 C155 1_555 1_555
C157 C101 1_555 1_555
H149 C157 1_555 1_555
H150 C157 1_555 1_555
H151 C157 1_555 1_555
C177 C151 1_555 1_555
H167 C177 1_555 1_555
I6 Cu9 1_555 1_555
I7 Cu8 1_555 1_555
I7 Cu12 1_555 1_555
I8 Cu9 1_555 1_555
I8 Cu12 1_555 1_555
Cu11 Cu9 1_555 1_555
Cu11 Cu12 1_555 1_555
Cu8 Cu9 1_555 1_555
Cu8 Cu12 1_555 1_555
Cu9 Cu12 1_555 1_555
Cu9 N14 1_555 1_555
C111 C113 1_555 1_555
C116 C120 1_555 1_555
C118 C125 1_555 1_555
C122 C131 1_555 1_555
C123 C124 1_555 1_555
C126 C128 1_555 1_555
C126 C139 1_555 1_555
C130 C133 1_555 1_555
C132 C140 1_555 1_555
C147 C151 1_555 1_555
C95_2 H91_2 1_555 1_555
I5_2 Cu7 1_555 1_555
I6_2 Cu7 1_555 1_555
I7_2 Cu7 1_555 1_555
I8_2 Cu8_2 1_555 1_555
Cu7 Cu8_2 1_555 1_555
Cu8_2 I6_2 1_555 1_555
Cu9_2 I5_2 1_555 1_555
Cu10 I5_2 1_555 1_555
N11_2 Cu8_2 1_555 1_555
O5_2 C104_2 1_555 1_555
C96_2 H92_2 1_555 1_555
C97_2 C96_2 1_555 1_555
C103_2 C96_2 1_555 1_555
C104_2 C97_2 1_555 1_555
C107_2 N11_2 1_555 1_555
H96_2 C107_2 1_555 1_555
O8_2 Ni4 1_555 1_555
C111_2 C107_2 1_555 1_555
H98_2 C111_2 1_555 1_555
C113_2 C103_2 1_555 1_555
C114_2 C97_2 1_555 1_555
H99_2 C114_2 1_555 1_555
C116_2 C104_2 1_555 1_555
C118_2 N11_2 1_555 1_555
H101_2 C118_2 1_555 1_555
C119_2 O8_2 1_555 1_555
C120_2 C103_2 1_555 1_555
H102_2 C120_2 1_555 1_555
N14_2 C95_2 1_555 1_555
N15 Ni4 1_555 1_555
C122_2 H103_2 1_555 1_555
C123_2 H104_2 1_555 1_555
C124_2 C119_2 1_555 1_555
C125_2 C113_2 1_555 1_555
H105_2 C125_2 1_555 1_555
C126_2 C122_2 1_555 1_555
C128_2 C123_2 1_555 1_555
C130_2 C119_2 1_555 1_555
N16 Ni4 1_555 1_555
C131_2 N14_2 1_555 1_555
H108_2 C131_2 1_555 1_555
C132_2 H109_2 1_555 1_555
H111_2 C132_2 1_555 1_555
C133_2 C128_2 1_555 1_555
H112_2 C133_2 1_555 1_555
C138 C130_2 1_555 1_555
H115 C138 1_555 1_555
C139_2 C95_2 1_555 1_555
H116_2 C139_2 1_555 1_555
C140_2 C116_2 1_555 1_555
C145_2 C140_2 1_555 1_555
H120_2 C145_2 1_555 1_555
H122_2 C145_2 1_555 1_555
C146_2 C140_2 1_555 1_555
H123_2 C146_2 1_555 1_555
H124_2 C146_2 1_555 1_555
C147_2 H126_2 1_555 1_555
H127_2 C147_2 1_555 1_555
H128_2 C147_2 1_555 1_555
C151_2 C124_2 1_555 1_555
C159 N15 1_555 1_555
H153 C159 1_555 1_555
C160 N16 1_555 1_555
H154 C160 1_555 1_555
C165 H158 1_555 1_555
C166 C160 1_555 1_555
C167 C166 1_555 1_555
H159 C167 1_555 1_555
C168 C159 1_555 1_555
C169 H160 1_555 1_555
C170 C167 1_555 1_555
H161 C170 1_555 1_555
C171 C165 1_555 1_555
C177_2 C151_2 1_555 1_555
H167_2 C177_2 1_555 1_555
C180 H172 1_555 1_555
C181 C180 1_555 1_555
H173 C181 1_555 1_555
C182 C181 1_555 1_555
H174 C182 1_555 1_555
C183 C168 1_555 1_555
H175 C183 1_555 1_555
C184 C168 1_555 1_555
H176 C184 1_555 1_555
N19 Cu7 1_555 1_555
N20 Cu10 1_555 1_555
I6_2 Cu9_2 1_555 1_555
I7_2 Cu8_2 1_555 1_555
I7_2 Cu10 1_555 1_555
I8_2 Cu9_2 1_555 1_555
I8_2 Cu10 1_555 1_555
Cu7 Cu9_2 1_555 1_555
Cu7 Cu10 1_555 1_555
Cu8_2 Cu9_2 1_555 1_555
Cu8_2 Cu10 1_555 1_555
Cu9_2 Cu10 1_555 1_555
Cu9_2 N14_2 1_555 1_555
C111_2 C113_2 1_555 1_555
C116_2 C120_2 1_555 1_555
C118_2 C125_2 1_555 1_555
C122_2 C131_2 1_555 1_555
C123_2 C124_2 1_555 1_555
C126_2 C128_2 1_555 1_555
C126_2 C139_2 1_555 1_555
C130_2 C133_2 1_555 1_555
N16 C138 1_555 1_555
C132_2 C140_2 1_555 1_555
C147_2 C151_2 1_555 1_555
C159 C160 1_555 1_555
C165 C166 1_555 1_555
C169 C170 1_555 1_555
C169 C171 1_555 1_555
C180 C184 1_555 1_555
C182 C183 1_555 1_555
C93 H89 1_555 1_555
C94 C93 1_555 1_555
H90 C94 1_555 1_555
N12 Ni3 1_555 1_555
C98_2 C102_2 1_555 1_555
C99_2 H93_2 1_555 1_555
N13 Ni3 1_555 1_555
C100 N12 1_555 1_555
H94 C100 1_555 1_555
C102_2 C99_2 1_555 1_555
O7 Ni3 1_555 1_555
C106_2 C102_2 1_555 1_555
H95_2 C106_2 1_555 1_555
C109_2 O7 1_555 1_555
C112_2 C106_2 1_555 1_555
C115_2 C99_2 1_555 1_555
C117 N13 1_555 1_555
H100 C117 1_555 1_555
C135_2 C98_2 1_555 1_555
H113_2 C135_2 1_555 1_555
C137_2 C98_2 1_555 1_555
H114_2 C137_2 1_555 1_555
C141 H117 1_555 1_555
C142 C117 1_555 1_555
C143 C142 1_555 1_555
H118 C143 1_555 1_555
C144 C141 1_555 1_555
H119 C144 1_555 1_555
C153 C143 1_555 1_555
H141 C153 1_555 1_555
C154 C144 1_555 1_555
H142 C154 1_555 1_555
C158 N12 1_555 1_555
H152 C158 1_555 1_555
C161_2 C135_2 1_555 1_555
H155_2 C161_2 1_555 1_555
C162 C158 1_555 1_555
C163 C162 1_555 1_555
H156 C163 1_555 1_555
C164_2 C137_2 1_555 1_555
H157_2 C164_2 1_555 1_555
N19 C161_2 1_555 1_555
C178 C94 1_555 1_555
H170 C178 1_555 1_555
C179 C93 1_555 1_555
H171 C179 1_555 1_555
C100 C115_2 1_555 1_555
C109_2 C112_2 1_555 1_555
C109_2 C115_2 1_555 1_555
C117 C158 1_555 1_555
C141 C142 1_555 1_555
C153 C154 1_555 1_555
C162 C178 1_555 1_555
C163 C179 1_555 1_555
C164_2 N19 1_555 1_555
O6_2 C110_2 1_555 1_555
C105_2 C108_2 1_555 1_555
C108_2 H97_2 1_555 1_555
C110_2 C105_2 1_555 1_555
C121_2 C127_2 1_555 1_555
C127_2 H106_2 1_555 1_555
C129_2 C105_2 1_555 1_555
H107_2 C129_2 1_555 1_555
C134_2 C110_2 1_555 1_555
C136_2 C134_2 1_555 1_555
C172_2 C121_2 1_555 1_555
C173_2 C172_2 1_555 1_555
H163_2 C173_2 1_555 1_555
C174_2 C172_2 1_555 1_555
H164_2 C174_2 1_555 1_555
C175_2 C173_2 1_555 1_555
H165_2 C175_2 1_555 1_555
N20 C175_2 1_555 1_555
C176_2 C174_2 1_555 1_555
H166_2 C176_2 1_555 1_555
C121_2 C129_2 1_555 1_555
C127_2 C134_2 1_555 1_555
N20 C176_2 1_555 1_555
C149_2 C101_2 1_555 1_555
H133_2 C149_2 1_555 1_555
H134_2 C149_2 1_555 1_555
C155_2 C101_2 1_555 1_555
H144_2 C155_2 1_555 1_555
C157_2 C101_2 1_555 1_555
H149_2 C157_2 1_555 1_555
H150_2 C157_2 1_555 1_555
H151_2 C157_2 1_555 1_555
C93_2 H89_2 1_555 1_555
C94_2 C93_2 1_555 1_555
H90_2 C94_2 1_555 1_555
N12_2 Ni3_2 1_555 1_555
N13_2 Ni3_2 1_555 1_555
C100_2 N12_2 1_555 1_555
H94_2 C100_2 1_555 1_555
O7_2 Ni3_2 1_555 1_555
C117_2 N13_2 1_555 1_555
H100_2 C117_2 1_555 1_555
C141_2 H117_2 1_555 1_555
C142_2 C117_2 1_555 1_555
C143_2 C142_2 1_555 1_555
H118_2 C143_2 1_555 1_555
C144_2 C141_2 1_555 1_555
H119_2 C144_2 1_555 1_555
C153_2 C143_2 1_555 1_555
H141_2 C153_2 1_555 1_555
C154_2 C144_2 1_555 1_555
H142_2 C154_2 1_555 1_555
C158_2 N12_2 1_555 1_555
H152_2 C158_2 1_555 1_555
C162_2 C158_2 1_555 1_555
C163_2 C162_2 1_555 1_555
H156_2 C163_2 1_555 1_555
C178_2 C94_2 1_555 1_555
H170_2 C178_2 1_555 1_555
C179_2 C93_2 1_555 1_555
H171_2 C179_2 1_555 1_555
C117_2 C158_2 1_555 1_555
C141_2 C142_2 1_555 1_555
C153_2 C154_2 1_555 1_555
C162_2 C178_2 1_555 1_555
C163_2 C179_2 1_555 1_555
C98_3 C102_3 1_555 1_555
C99_3 H93_3 1_555 1_555
C102_3 C99_3 1_555 1_555
C106_3 C102_3 1_555 1_555
H95_3 C106_3 1_555 1_555
C112_3 C106_3 1_555 1_555
C115_3 C99_3 1_555 1_555
C135_3 C98_3 1_555 1_555
H113_3 C135_3 1_555 1_555
C137_3 C98_3 1_555 1_555
H114_3 C137_3 1_555 1_555
C161_3 C135_3 1_555 1_555
H155_3 C161_3 1_555 1_555
C164_3 C137_3 1_555 1_555
H157_3 C164_3 1_555 1_555
N17_2 C161_3 1_555 1_555
Cu11_2 N17_2 1_555 1_555
C109_3 C112_3 1_555 1_555
C109_3 C115_3 1_555 1_555
C164_3 N17_2 1_555 1_555
C95_3 H91_3 1_555 1_555
I5_3 Cu11_2 1_555 1_555
I6_3 Cu11_2 1_555 1_555
I7_3 Cu11_2 1_555 1_555
I8_3 Cu8_3 1_555 1_555
Cu11_2 Cu8_3 1_555 1_555
Cu8_3 I6_3 1_555 1_555
Cu9_3 I5_3 1_555 1_555
Cu10_2 I5_3 1_555 1_555
N11_3 Cu8_3 1_555 1_555
O5_3 C104_3 1_555 1_555
C96_3 H92_3 1_555 1_555
C97_3 C96_3 1_555 1_555
C103_3 C96_3 1_555 1_555
C104_3 C97_3 1_555 1_555
C107_3 N11_3 1_555 1_555
H96_3 C107_3 1_555 1_555
C111_3 C107_3 1_555 1_555
H98_3 C111_3 1_555 1_555
C113_3 C103_3 1_555 1_555
C114_3 C97_3 1_555 1_555
H99_3 C114_3 1_555 1_555
C116_3 C104_3 1_555 1_555
C118_3 N11_3 1_555 1_555
H101_3 C118_3 1_555 1_555
C119_3 O8_3 1_555 1_555
C120_3 C103_3 1_555 1_555
H102_3 C120_3 1_555 1_555
N14_3 C95_3 1_555 1_555
C122_3 H103_3 1_555 1_555
C123_3 H104_3 1_555 1_555
C124_3 C119_3 1_555 1_555
C125_3 C113_3 1_555 1_555
H105_3 C125_3 1_555 1_555
C126_3 C122_3 1_555 1_555
C128_3 C123_3 1_555 1_555
C130_3 C119_3 1_555 1_555
C131_3 N14_3 1_555 1_555
H108_3 C131_3 1_555 1_555
C132_3 H109_3 1_555 1_555
H110_3 C132_3 1_555 1_555
H111_3 C132_3 1_555 1_555
C133_3 C128_3 1_555 1_555
H112_3 C133_3 1_555 1_555
C139_3 C95_3 1_555 1_555
H116_3 C139_3 1_555 1_555
C140_3 C116_3 1_555 1_555
C145_3 C140_3 1_555 1_555
H120_3 C145_3 1_555 1_555
H121_3 C145_3 1_555 1_555
H122_3 C145_3 1_555 1_555
C146_3 C140_3 1_555 1_555
H123_3 C146_3 1_555 1_555
H124_3 C146_3 1_555 1_555
H125_3 C146_3 1_555 1_555
C147_3 H126_3 1_555 1_555
H127_3 C147_3 1_555 1_555
H128_3 C147_3 1_555 1_555
C149_3 C101_3 1_555 1_555
H133_3 C149_3 1_555 1_555
H134_3 C149_3 1_555 1_555
C151_3 C124_3 1_555 1_555
C155_3 C101_3 1_555 1_555
H144_3 C155_3 1_555 1_555
C157_3 C101_3 1_555 1_555
H149_3 C157_3 1_555 1_555
H150_3 C157_3 1_555 1_555
H151_3 C157_3 1_555 1_555
C177_3 C151_3 1_555 1_555
H167_3 C177_3 1_555 1_555
N20_2 Cu10_2 1_555 1_555
I6_3 Cu9_3 1_555 1_555
I7_3 Cu8_3 1_555 1_555
I7_3 Cu10_2 1_555 1_555
I8_3 Cu9_3 1_555 1_555
I8_3 Cu10_2 1_555 1_555
Cu11_2 Cu9_3 1_555 1_555
Cu11_2 Cu10_2 1_555 1_555
Cu8_3 Cu9_3 1_555 1_555
Cu8_3 Cu10_2 1_555 1_555
Cu9_3 Cu10_2 1_555 1_555
Cu9_3 N14_3 1_555 1_555
C111_3 C113_3 1_555 1_555
C116_3 C120_3 1_555 1_555
C118_3 C125_3 1_555 1_555
C122_3 C131_3 1_555 1_555
C123_3 C124_3 1_555 1_555
C126_3 C128_3 1_555 1_555
C126_3 C139_3 1_555 1_555
C130_3 C133_3 1_555 1_555
C132_3 C140_3 1_555 1_555
C147_3 C151_3 1_555 1_555
O6_3 C110_3 1_555 1_555
C105_3 C108_3 1_555 1_555
C108_3 H97_3 1_555 1_555
C110_3 C105_3 1_555 1_555
C121_3 C127_3 1_555 1_555
C127_3 H106_3 1_555 1_555
C129_3 C105_3 1_555 1_555
H107_3 C129_3 1_555 1_555
C134_3 C110_3 1_555 1_555
C136_3 C134_3 1_555 1_555
C148_2 H129_2 1_555 1_555
H130_2 C148_2 1_555 1_555
H131_2 C148_2 1_555 1_555
C150_2 C136_3 1_555 1_555
H135_2 C150_2 1_555 1_555
H136_3 C150_2 1_555 1_555
H137_3 C150_2 1_555 1_555
C152_2 C136_3 1_555 1_555
H138_2 C152_2 1_555 1_555
H139_2 C152_2 1_555 1_555
H140_2 C152_2 1_555 1_555
C156_2 C136_3 1_555 1_555
H146_2 C156_2 1_555 1_555
H147_2 C156_2 1_555 1_555
H148_2 C156_2 1_555 1_555
C172_3 C121_3 1_555 1_555
C173_3 C172_3 1_555 1_555
H163_3 C173_3 1_555 1_555
C174_3 C172_3 1_555 1_555
H164_3 C174_3 1_555 1_555
C175_3 C173_3 1_555 1_555
H165_3 C175_3 1_555 1_555
N20_2 C175_3 1_555 1_555
C176_3 C174_3 1_555 1_555
H166_3 C176_3 1_555 1_555
C121_3 C129_3 1_555 1_555
C127_3 C134_3 1_555 1_555
N20_2 C176_3 1_555 1_555
N15_2 Ni4_2 1_555 1_555
N16_2 Ni4_2 1_555 1_555
H115_2 C138_2 1_555 1_555
C159_2 N15_2 1_555 1_555
H153_2 C159_2 1_555 1_555
C160_2 N16_2 1_555 1_555
H154_2 C160_2 1_555 1_555
C165_2 H158_2 1_555 1_555
C166_2 C160_2 1_555 1_555
C167_2 C166_2 1_555 1_555
H159_2 C167_2 1_555 1_555
C168_2 C159_2 1_555 1_555
C169_2 H160_2 1_555 1_555
C170_2 C167_2 1_555 1_555
H161_2 C170_2 1_555 1_555
C171_2 C165_2 1_555 1_555
C180_2 H172_2 1_555 1_555
C181_2 C180_2 1_555 1_555
H173_2 C181_2 1_555 1_555
C182_2 C181_2 1_555 1_555
H174_2 C182_2 1_555 1_555
C183_2 C168_2 1_555 1_555
H175_2 C183_2 1_555 1_555
C184_2 C168_2 1_555 1_555
H176_2 C184_2 1_555 1_555
N16_2 C138_2 1_555 1_555
C159_2 C160_2 1_555 1_555
C165_2 C166_2 1_555 1_555
C169_2 C170_2 1_555 1_555
C169_2 C171_2 1_555 1_555
C180_2 C184_2 1_555 1_555
C182_2 C183_2 1_555 1_555
O6_4 C110_4 1_555 1_555
C105_4 C108_4 1_555 1_555
C108_4 H97_4 1_555 1_555
C110_4 C105_4 1_555 1_555
C121_4 C127_4 1_555 1_555
C127_4 H106_4 1_555 1_555
C129_4 C105_4 1_555 1_555
H107_4 C129_4 1_555 1_555
C134_4 C110_4 1_555 1_555
C136_4 C134_4 1_555 1_555
C172_4 C121_4 1_555 1_555
C173_4 C172_4 1_555 1_555
H163_4 C173_4 1_555 1_555
C174_4 C172_4 1_555 1_555
H164_4 C174_4 1_555 1_555
C175_4 C173_4 1_555 1_555
H165_4 C175_4 1_555 1_555
N18_2 C175_4 1_555 1_555
C176_4 C174_4 1_555 1_555
H166_4 C176_4 1_555 1_555
Cu12_2 N18_2 1_555 1_555
C121_4 C129_4 1_555 1_555
C127_4 C134_4 1_555 1_555
N18_2 C176_4 1_555 1_555
C95_4 H91_4 1_555 1_555
I5_4 Cu7_2 1_555 1_555
I6_4 Cu7_2 1_555 1_555
I7_4 Cu7_2 1_555 1_555
I8_4 Cu8_4 1_555 1_555
Cu7_2 Cu8_4 1_555 1_555
Cu8_4 I6_4 1_555 1_555
Cu9_4 I5_4 1_555 1_555
Cu12_2 I5_4 1_555 1_555
N11_4 Cu8_4 1_555 1_555
O5_4 C104_4 1_555 1_555
C96_4 H92_4 1_555 1_555
C97_4 C96_4 1_555 1_555
C103_4 C96_4 1_555 1_555
C104_4 C97_4 1_555 1_555
C107_4 N11_4 1_555 1_555
H96_4 C107_4 1_555 1_555
O8_4 Ni4_3 1_555 1_555
C111_4 C107_4 1_555 1_555
H98_4 C111_4 1_555 1_555
C113_4 C103_4 1_555 1_555
C114_4 C97_4 1_555 1_555
H99_4 C114_4 1_555 1_555
C116_4 C104_4 1_555 1_555
C118_4 N11_4 1_555 1_555
H101_4 C118_4 1_555 1_555
C119_4 O8_4 1_555 1_555
C120_4 C103_4 1_555 1_555
H102_4 C120_4 1_555 1_555
N14_4 C95_4 1_555 1_555
N15_3 Ni4_3 1_555 1_555
C122_4 H103_4 1_555 1_555
C123_4 H104_4 1_555 1_555
C124_4 C119_4 1_555 1_555
C125_4 C113_4 1_555 1_555
H105_4 C125_4 1_555 1_555
C126_4 C122_4 1_555 1_555
C128_4 C123_4 1_555 1_555
C130_4 C119_4 1_555 1_555
N16_3 Ni4_3 1_555 1_555
C131_4 N14_4 1_555 1_555
H108_4 C131_4 1_555 1_555
C132_4 H109_4 1_555 1_555
H111_4 C132_4 1_555 1_555
C133_4 C128_4 1_555 1_555
H112_4 C133_4 1_555 1_555
C138_3 C130_4 1_555 1_555
H115_3 C138_3 1_555 1_555
C139_4 C95_4 1_555 1_555
H116_4 C139_4 1_555 1_555
C140_4 C116_4 1_555 1_555
C145_4 C140_4 1_555 1_555
H120_4 C145_4 1_555 1_555
H122_4 C145_4 1_555 1_555
C146_4 C140_4 1_555 1_555
H123_4 C146_4 1_555 1_555
H124_4 C146_4 1_555 1_555
C147_4 H126_4 1_555 1_555
H127_4 C147_4 1_555 1_555
H128_4 C147_4 1_555 1_555
C151_4 C124_4 1_555 1_555
C159_3 N15_3 1_555 1_555
H153_3 C159_3 1_555 1_555
C160_3 N16_3 1_555 1_555
H154_3 C160_3 1_555 1_555
C165_3 H158_3 1_555 1_555
C166_3 C160_3 1_555 1_555
C167_3 C166_3 1_555 1_555
H159_3 C167_3 1_555 1_555
C168_3 C159_3 1_555 1_555
C169_3 H160_3 1_555 1_555
C170_3 C167_3 1_555 1_555
H161_3 C170_3 1_555 1_555
C171_3 C165_3 1_555 1_555
C177_4 C151_4 1_555 1_555
H167_4 C177_4 1_555 1_555
C180_3 H172_3 1_555 1_555
C181_3 C180_3 1_555 1_555
H173_3 C181_3 1_555 1_555
C182_3 C181_3 1_555 1_555
H174_3 C182_3 1_555 1_555
C183_3 C168_3 1_555 1_555
H175_3 C183_3 1_555 1_555
C184_3 C168_3 1_555 1_555
H176_3 C184_3 1_555 1_555
N19_2 Cu7_2 1_555 1_555
I6_4 Cu9_4 1_555 1_555
I7_4 Cu8_4 1_555 1_555
I7_4 Cu12_2 1_555 1_555
I8_4 Cu9_4 1_555 1_555
I8_4 Cu12_2 1_555 1_555
Cu7_2 Cu9_4 1_555 1_555
Cu7_2 Cu12_2 1_555 1_555
Cu8_4 Cu9_4 1_555 1_555
Cu8_4 Cu12_2 1_555 1_555
Cu9_4 Cu12_2 1_555 1_555
Cu9_4 N14_4 1_555 1_555
C111_4 C113_4 1_555 1_555
C116_4 C120_4 1_555 1_555
C118_4 C125_4 1_555 1_555
C122_4 C131_4 1_555 1_555
C123_4 C124_4 1_555 1_555
C126_4 C128_4 1_555 1_555
C126_4 C139_4 1_555 1_555
C130_4 C133_4 1_555 1_555
N16_3 C138_3 1_555 1_555
C132_4 C140_4 1_555 1_555
C147_4 C151_4 1_555 1_555
C159_3 C160_3 1_555 1_555
C165_3 C166_3 1_555 1_555
C169_3 C170_3 1_555 1_555
C169_3 C171_3 1_555 1_555
C180_3 C184_3 1_555 1_555
C182_3 C183_3 1_555 1_555
C93_3 H89_3 1_555 1_555
C94_3 C93_3 1_555 1_555
H90_3 C94_3 1_555 1_555
N12_3 Ni3_3 1_555 1_555
C98_4 C102_4 1_555 1_555
C99_4 H93_4 1_555 1_555
N13_3 Ni3_3 1_555 1_555
C100_3 N12_3 1_555 1_555
H94_3 C100_3 1_555 1_555
C102_4 C99_4 1_555 1_555
O7_3 Ni3_3 1_555 1_555
C106_4 C102_4 1_555 1_555
H95_4 C106_4 1_555 1_555
C109_4 O7_3 1_555 1_555
C112_4 C106_4 1_555 1_555
C115_4 C99_4 1_555 1_555
C117_3 N13_3 1_555 1_555
H100_3 C117_3 1_555 1_555
C135_4 C98_4 1_555 1_555
H113_4 C135_4 1_555 1_555
C137_4 C98_4 1_555 1_555
H114_4 C137_4 1_555 1_555
C141_3 H117_3 1_555 1_555
C142_3 C117_3 1_555 1_555
C143_3 C142_3 1_555 1_555
H118_3 C143_3 1_555 1_555
C144_3 C141_3 1_555 1_555
H119_3 C144_3 1_555 1_555
C153_3 C143_3 1_555 1_555
H141_3 C153_3 1_555 1_555
C154_3 C144_3 1_555 1_555
H142_3 C154_3 1_555 1_555
C158_3 N12_3 1_555 1_555
H152_3 C158_3 1_555 1_555
C161_4 C135_4 1_555 1_555
H155_4 C161_4 1_555 1_555
C162_3 C158_3 1_555 1_555
C163_3 C162_3 1_555 1_555
H156_3 C163_3 1_555 1_555
C164_4 C137_4 1_555 1_555
H157_4 C164_4 1_555 1_555
N19_2 C161_4 1_555 1_555
C178_3 C94_3 1_555 1_555
H170_3 C178_3 1_555 1_555
C179_3 C93_3 1_555 1_555
H171_3 C179_3 1_555 1_555
C100_3 C115_4 1_555 1_555
C109_4 C112_4 1_555 1_555
C109_4 C115_4 1_555 1_555
C117_3 C158_3 1_555 1_555
C141_3 C142_3 1_555 1_555
C153_3 C154_3 1_555 1_555
C162_3 C178_3 1_555 1_555
C163_3 C179_3 1_555 1_555
C164_4 N19_2 1_555 1_555
C148_3 H129_3 1_555 1_555
H130_3 C148_3 1_555 1_555
H131_3 C148_3 1_555 1_555
H135_3 C150_3 1_555 1_555
H138_3 C152_3 1_555 1_555
H139_3 C152_3 1_555 1_555
H140_3 C152_3 1_555 1_555
H146_3 C156_3 1_555 1_555
H147_3 C156_3 1_555 1_555
H148_3 C156_3 1_555 1_555
C149_4 C101_4 1_555 1_555
H133_4 C149_4 1_555 1_555
H134_4 C149_4 1_555 1_555
C155_4 C101_4 1_555 1_555
H144_4 C155_4 1_555 1_555
C157_4 C101_4 1_555 1_555
H149_4 C157_4 1_555 1_555
H150_4 C157_4 1_555 1_555
H151_4 C157_4 1_555 1_555
C93_4 H89_4 1_555 1_555
C94_4 C93_4 1_555 1_555
H90_4 C94_4 1_555 1_555
N12_4 Ni3_4 1_555 1_555
N13_4 Ni3_4 1_555 1_555
C100_4 N12_4 1_555 1_555
H94_4 C100_4 1_555 1_555
O7_4 Ni3_4 1_555 1_555
C117_4 N13_4 1_555 1_555
H100_4 C117_4 1_555 1_555
C141_4 H117_4 1_555 1_555
C142_4 C117_4 1_555 1_555
C143_4 C142_4 1_555 1_555
H118_4 C143_4 1_555 1_555
C144_4 C141_4 1_555 1_555
H119_4 C144_4 1_555 1_555
C153_4 C143_4 1_555 1_555
H141_4 C153_4 1_555 1_555
C154_4 C144_4 1_555 1_555
H142_4 C154_4 1_555 1_555
C158_4 N12_4 1_555 1_555
H152_4 C158_4 1_555 1_555
C162_4 C158_4 1_555 1_555
C163_4 C162_4 1_555 1_555
H156_4 C163_4 1_555 1_555
C178_4 C94_4 1_555 1_555
H170_4 C178_4 1_555 1_555
C179_4 C93_4 1_555 1_555
H171_4 C179_4 1_555 1_555
C117_4 C158_4 1_555 1_555
C141_4 C142_4 1_555 1_555
C153_4 C154_4 1_555 1_555
C162_4 C178_4 1_555 1_555
C163_4 C179_4 1_555 1_555
N15_4 Ni4_4 1_555 1_555
N16_4 Ni4_4 1_555 1_555
H115_4 C138_4 1_555 1_555
C159_4 N15_4 1_555 1_555
H153_4 C159_4 1_555 1_555
C160_4 N16_4 1_555 1_555
H154_4 C160_4 1_555 1_555
C165_4 H158_4 1_555 1_555
C166_4 C160_4 1_555 1_555
C167_4 C166_4 1_555 1_555
H159_4 C167_4 1_555 1_555
C168_4 C159_4 1_555 1_555
C169_4 H160_4 1_555 1_555
C170_4 C167_4 1_555 1_555
H161_4 C170_4 1_555 1_555
C171_4 C165_4 1_555 1_555
C180_4 H172_4 1_555 1_555
C181_4 C180_4 1_555 1_555
H173_4 C181_4 1_555 1_555
C182_4 C181_4 1_555 1_555
H174_4 C182_4 1_555 1_555
C183_4 C168_4 1_555 1_555
H175_4 C183_4 1_555 1_555
C184_4 C168_4 1_555 1_555
H176_4 C184_4 1_555 1_555
N16_4 C138_4 1_555 1_555
C159_4 C160_4 1_555 1_555
C165_4 C166_4 1_555 1_555
C169_4 C170_4 1_555 1_555
C169_4 C171_4 1_555 1_555
C180_4 C184_4 1_555 1_555
C182_4 C183_4 1_555 1_555
C148_4 H129_4 1_555 1_555
H130_4 C148_4 1_555 1_555
H131_4 C148_4 1_555 1_555
H135_4 C150_4 1_555 1_555
H138_4 C152_4 1_555 1_555
H139_4 C152_4 1_555 1_555
H140_4 C152_4 1_555 1_555
H146_4 C156_4 1_555 1_555
H147_4 C156_4 1_555 1_555
H148_4 C156_4 1_555 1_555

#END
