
###############################################################################
#
# This file contains modified crystal structure data generated from the
# MOF subset of the Cambridge Structural Database (CSD) v543 
# hosted by the Cambridge Crystallographic Data Centre (CCDC).
#
# This work is licensed under the Creative Commons
# Attribution-NonCommercial-ShareAlike 4.0 International License.
# To view a copy of this license, visit
# http://creativecommons.org/licenses/by-nc-sa/4.0/
# or send a letter to
# Creative Commons, PO Box 1866, Mountain View, CA 94042, USA.
#
# CIF created using the CSD Python API on 29 September 2022
# The structure has been converted into the P1 space group
# The structure has a 3D framework
# The original CSD entry BECJUR is in the monoclinic crystal system
# The framework has been calculated to contain at least 10.0% void space
# The void calculation uses a probe of radius 1.32A, grid spacing 0.4
#
###############################################################################

data_BECJUR
_chemical_formula_moiety         '(C152 H104 Cu24 N32 O50 S22 Zn12)n'
_symmetry_cell_setting           triclinic
_symmetry_space_group_name_H-M   'P 1'
_symmetry_Int_Tables_number      1
_space_group_name_Hall           'P 1'
loop_
_symmetry_equiv_pos_site_id
_symmetry_equiv_pos_as_xyz
1 x,y,z
_cell_length_a                   12.8700(5)
_cell_length_b                   20.7985(10)
_cell_length_c                   24.0234(12)
_cell_angle_alpha                90
_cell_angle_beta                 93.165(4)
_cell_angle_gamma                90
_cell_volume                     6420.7
loop_
_atom_site_label
_atom_site_type_symbol
_atom_site_fract_x
_atom_site_fract_y
_atom_site_fract_z
C1 C 0.0968(7) 0.7013(4) 0.3916(4)
H1 H 0.1442 0.6796 0.4154
C2 C 0.0866(8) 0.7673(5) 0.3989(4)
C3 C 0.0148(8) 0.7977(5) 0.3630(4)
H2 H 0.0058 0.8419 0.3661
C6 C 0.1572(13) 0.8024(7) 0.4401(7)
C13 C 0.2961(7) 0.6157(4) 0.6232(4)
H7 H 0.2503 0.6309 0.5949
C14 C 0.3925(6) 0.6441(4) 0.6295(4)
C15 C 0.4572(7) 0.6247(5) 0.6739(4)
H8 H 0.5212 0.6445 0.6813
C16 C 0.4250(7) 0.5751(5) 0.7073(4)
H9 H 0.4680 0.5614 0.7374
C17 C 0.3298(7) 0.5459(4) 0.6963(3)
C18 C 0.4198(8) 0.6983(5) 0.5921(4)
C25 C 0.1937(7) 0.4093(4) 0.1813(4)
H13 H 0.2267 0.3864 0.2105
C26 C 0.2367(7) 0.4071(5) 0.1309(4)
C27 C 0.1875(7) 0.4405(5) 0.0864(4)
H14 H 0.2146 0.4402 0.0512
C28 C 0.0968(7) 0.4742(5) 0.0961(4)
H15 H 0.0615 0.4961 0.0671
C29 C 0.0589(6) 0.4748(4) 0.1500(3)
C30 C 0.3353(12) 0.3684(8) 0.1230(6)
C31 C 0.2165(7) 0.6066(4) 0.1822(4)
H16 H 0.1724 0.6260 0.1552
C32 C 0.3236(7) 0.6044(4) 0.1739(4)
C33 C 0.3874(8) 0.5734(5) 0.2145(4)
H17 H 0.4589 0.5709 0.2110
C34 C 0.3433(7) 0.5468(5) 0.2593(4)
H18 H 0.3850 0.5259 0.2865
C35 C 0.2374(6) 0.5507(4) 0.2647(4)
C36 C 0.3631(8) 0.6352(5) 0.1222(4)
C37 C 0.7502(13) 0.8895(9) 0.5759(6)
H19 H 0.7836 0.9313 0.5757
H20 H 0.7951 0.8589 0.5584
C38 C 0.7354(13) 0.8686(8) 0.6368(6)
H21 H 0.8028 0.8620 0.6561
H22 H 0.6992 0.9021 0.6561
N1 N 0.0432(5) 0.6666(3) 0.3528(3)
N3 N 0.2638(5) 0.5673(3) 0.6551(3)
N5 N 0.1074(5) 0.4420(3) 0.1920(3)
N6 N 0.1747(5) 0.5815(3) 0.2282(3)
N7 N 0.6560(7) 0.8926(4) 0.5460(4)
H23 H 0.5996 0.8834 0.5619
H24 H 0.6536 0.9036 0.5115
N8 N 0.6758(6) 0.8096(5) 0.6371(3)
H25 H 0.6548 0.7920 0.6062
H26 H 0.6615 0.7923 0.6683
O1 O 0.1507(8) 0.8618(4) 0.4425(4)
O2 O 0.2192(5) 0.7682(4) 0.4696(3)
O5 O 0.5016(5) 0.7262(4) 0.6012(3)
O6 O 0.3541(6) 0.7110(4) 0.5520(3)
O9 O 0.3726(5) 0.3692(3) 0.0774(3)
O10 O 0.3657(7) 0.3303(5) 0.1597(4)
O11 O 0.2966(5) 0.6596(5) 0.0895(4)
O12 O 0.4581(5) 0.6335(4) 0.1176(3)
O13 O 0.4604(4) 0.8293(3) 0.4986(2)
S3 S 0.28605(16) 0.48225(10) 0.73864(9)
S6 S 0.17980(16) 0.50994(11) 0.32032(9)
Cu1 Cu 0.05075(8) 0.57135(5) 0.34742(4)
Cu3 Cu 0.06049(8) 0.44901(5) 0.27064(4)
Cu4 Cu 0.01841(8) 0.58206(5) 0.23493(4)
Zn1 Zn 0.32621(8) 0.79753(7) 0.52236(5)
Zn2 Zn 0.56586(7) 0.81018(5) 0.56778(4)
Zn3 Zn 0.51499(8) 0.80427(5) 0.42609(4)
O14 O 0.5805(4) 0.7219(3) 0.4406(2)
O15 O 0.6648(5) 0.7486(3) 0.5216(2)
O16 O 0.3956(5) 0.8096(3) 0.3743(3)
O17 O 0.6274(5) 0.8692(3) 0.4226(3)
O18 O 0.2966(5) 0.8404(5) 0.5895(4)
O19 O 0.4581(5) 0.8665(4) 0.6176(3)
Cu7 Cu 0.11223(8) 0.54188(5) 0.64899(4)
Cu8 Cu 0.17419(8) 0.42283(5) 0.68519(4)
Cu9 Cu 0.13812(8) 0.52637(5) 0.77085(4)
Zn4 Zn 0.32621(8) 0.70247(7) 0.02236(5)
Zn6 Zn 0.56586(7) 0.68982(5) 0.06778(4)
Zn9 Zn 0.48501(8) 0.30427(5) 0.07391(4)
C4 C 0.9574(8) 0.7653(4) 0.3235(4)
H3 H 0.9077 0.7864 0.3007
C5 C 0.9745(6) 0.6994(4) 0.3178(3)
C7 C 0.7434(6) 0.6464(4) 0.4114(4)
H4 H 0.6974 0.6634 0.3841
C8 C 0.7361(6) 0.6685(4) 0.4647(3)
C9 C 0.8099(7) 0.6461(4) 0.5052(4)
H5 H 0.8112 0.6622 0.5414
C10 C 0.8804(7) 0.6000(5) 0.4909(3)
H6 H 0.9286 0.5837 0.5175
C11 C 0.8785(7) 0.5777(4) 0.4346(4)
C12 C 0.6560(6) 0.7163(4) 0.4783(4)
C19 C 0.7606(7) 0.3530(5) 0.1954(4)
H10 H 0.7294 0.3798 0.1683
C20 C 0.7274(7) 0.2899(4) 0.1973(4)
C21 C 0.7772(7) 0.2511(5) 0.2367(5)
H11 H 0.7585 0.2080 0.2387
C22 C 0.8538(8) 0.2747(4) 0.2729(5)
H12 H 0.8866 0.2480 0.2995
C23 C 0.8818(6) 0.3390(4) 0.2694(3)
C24 C 0.6435(13) 0.2675(7) 0.1583(8)
N2 N 0.8118(5) 0.6019(3) 0.3951(3)
N4 N 0.8364(5) 0.3782(3) 0.2308(3)
O7 O 0.6181(8) 0.2126(4) 0.1575(5)
O8 O 0.6044(5) 0.3096(3) 0.1257(3)
S1 S 0.90694(16) 0.65392(10) 0.26608(8)
S2 S 0.96877(16) 0.51957(10) 0.41525(9)
S4 S 0.97688(16) 0.37350(10) 0.31630(9)
S5 S 0.94864(16) 0.52110(10) 0.16306(9)
Cu2 Cu 0.88777(8) 0.45812(5) 0.35101(4)
Cu5 Cu 0.82581(8) 0.57717(5) 0.31481(4)
Cu6 Cu 0.86188(8) 0.47363(5) 0.22915(4)
N9 N 0.7362(5) 0.4327(3) 0.3449(3)
S7 S 0.71395(16) 0.51775(10) 0.26136(9)
C4_2 C 0.0426(8) 0.2653(4) 0.1765(4)
H3_2 H 0.0923 0.2864 0.1993
C5_2 C 0.0255(6) 0.1994(4) 0.1822(3)
C7_2 C 0.2566(6) 0.1464(4) 0.0886(4)
H4_2 H 0.3026 0.1634 0.1159
C8_2 C 0.2639(6) 0.1685(4) 0.0353(3)
C10_2 C 0.1196(7) 0.1000(5) 0.0091(3)
C11_2 C 0.1215(7) 0.0777(4) 0.0654(4)
C12_2 C 0.3440(6) 0.2163(4) 0.0217(4)
N2_2 N 0.1882(5) 0.1019(3) 0.1049(3)
O3 O 0.4195(4) 0.2219(3) 0.0594(2)
S1_2 S 0.09306(16) 0.15392(10) 0.23392(8)
S2_2 S 0.03123(16) 0.01957(10) 0.08475(9)
S5_2 S 0.05136(16) 0.02110(10) 0.33694(9)
Cu5_2 Cu 0.17419(8) 0.07717(5) 0.18519(4)
S7_2 S 0.28605(16) 0.01775(10) 0.23864(9)
C9_2 C 0.1901(7) 0.1461(4) 0.9948(4)
H5_2 H 0.1888 0.1622 0.9586
H6_2 H 0.0714 0.0837 0.9825
O4 O 0.3352(5) 0.2486(3) 0.9784(2)
Zn5 Zn 0.43414(7) 0.31018(5) 0.93222(4)
C19_2 C 0.2394(7) 0.8530(5) 0.3046(4)
H10_2 H 0.2706 0.8798 0.3317
C20_2 C 0.2726(7) 0.7899(4) 0.3027(4)
C21_2 C 0.2228(7) 0.7511(5) 0.2633(5)
H11_2 H 0.2415 0.7080 0.2613
C22_2 C 0.1462(8) 0.7747(4) 0.2271(5)
H12_2 H 0.1134 0.7480 0.2005
C23_2 C 0.1182(6) 0.8390(4) 0.2306(3)
C24_2 C 0.3565(13) 0.7675(7) 0.3417(8)
N4_2 N 0.1636(5) 0.8782(3) 0.2692(3)
O7_2 O 0.3819(8) 0.7126(4) 0.3425(5)
S4_2 S 0.02312(16) 0.87350(10) 0.18370(9)
Cu2_2 Cu 0.11223(8) 0.95812(5) 0.14899(4)
Cu6_2 Cu 0.13812(8) 0.97363(5) 0.27085(4)
N9_2 N 0.2638(5) 0.9327(3) 0.1551(3)
C1_2 C 0.9032(7) 0.2013(4) 0.1084(4)
H1_2 H 0.8558 0.1796 0.0846
C2_2 C 0.9134(8) 0.2673(5) 0.1011(4)
C3_2 C 0.9852(8) 0.2977(5) 0.1370(4)
H2_2 H 0.9942 0.3419 0.1339
C6_2 C 0.8428(13) 0.3024(7) 0.0599(7)
C31_2 C 0.7835(7) 0.1066(4) 0.3178(4)
H16_2 H 0.8276 0.1260 0.3448
C32_2 C 0.6764(7) 0.1044(4) 0.3261(4)
C33_2 C 0.6126(8) 0.0734(5) 0.2855(4)
H17_2 H 0.5411 0.0709 0.2890
C34_2 C 0.6567(7) 0.0468(5) 0.2407(4)
H18_2 H 0.6150 0.0259 0.2135
C35_2 C 0.7626(6) 0.0507(4) 0.2353(4)
C36_2 C 0.6369(8) 0.1352(5) 0.3778(4)
N1_2 N 0.9568(5) 0.1666(3) 0.1472(3)
N6_2 N 0.8253(5) 0.0815(3) 0.2718(3)
O1_2 O 0.8493(8) 0.3618(4) 0.0575(4)
O2_2 O 0.7808(5) 0.2682(4) 0.0304(3)
O11_2 O 0.7034(5) 0.1596(5) 0.4105(4)
O12_2 O 0.5419(5) 0.1335(4) 0.3824(3)
O13_2 O 0.5396(4) 0.3293(3) 0.0014(2)
S6_2 S 0.82020(16) 0.00994(11) 0.17968(9)
Cu1_2 Cu 0.94925(8) 0.07135(5) 0.15258(4)
Cu4_2 Cu 0.98159(8) 0.08206(5) 0.26507(4)
Zn4_2 Zn 0.67379(8) 0.20247(7) 0.47764(5)
Zn6_2 Zn 0.43414(7) 0.18982(5) 0.43222(4)
C13_2 C 0.7039(7) 0.1157(4) 0.8768(4)
H7_2 H 0.7497 0.1309 0.9051
C14_2 C 0.6075(6) 0.1441(4) 0.8705(4)
C15_2 C 0.5428(7) 0.1247(5) 0.8261(4)
H8_2 H 0.4788 0.1445 0.8187
C16_2 C 0.5750(7) 0.0751(5) 0.7927(4)
H9_2 H 0.5320 0.0614 0.7626
C17_2 C 0.6702(7) 0.0459(4) 0.8037(3)
C18_2 C 0.5802(8) 0.1983(5) 0.9079(4)
C37_2 C 0.2498(13) 0.3895(9) 0.9241(6)
H19_2 H 0.2164 0.4313 0.9243
H20_2 H 0.2049 0.3589 0.9416
C38_2 C 0.2646(13) 0.3686(8) 0.8632(6)
H21_2 H 0.1972 0.3620 0.8439
H22_2 H 0.3008 0.4021 0.8439
N3_2 N 0.7362(5) 0.0673(3) 0.8449(3)
N7_2 N 0.3440(7) 0.3926(4) 0.9540(4)
H23_2 H 0.4004 0.3834 0.9381
H24_2 H 0.3464 0.4036 0.9885
N8_2 N 0.3242(6) 0.3096(5) 0.8629(3)
H25_2 H 0.3452 0.2920 0.8938
H26_2 H 0.3385 0.2923 0.8317
O5_2 O 0.4984(5) 0.2262(4) 0.8988(3)
O6_2 O 0.6459(6) 0.2110(4) 0.9480(3)
Zn1_2 Zn 0.67379(8) 0.29753(7) 0.97764(5)
O18_2 O 0.7034(5) 0.3404(5) 0.9105(4)
O19_2 O 0.5419(5) 0.3665(4) 0.8824(3)
Cu7_2 Cu 0.88777(8) 0.04188(5) 0.85101(4)
Cu9_2 Cu 0.86188(8) 0.02637(5) 0.72915(4)
C25_2 C 0.8063(7) 0.9093(4) 0.3187(4)
H13_2 H 0.7733 0.8864 0.2895
C26_2 C 0.7633(7) 0.9071(5) 0.3691(4)
C27_2 C 0.8125(7) 0.9405(5) 0.4136(4)
H14_2 H 0.7854 0.9402 0.4488
C28_2 C 0.9032(7) 0.9742(5) 0.4039(4)
H15_2 H 0.9385 0.9961 0.4329
C29_2 C 0.9411(6) 0.9748(4) 0.3500(3)
C30_2 C 0.6647(12) 0.8684(8) 0.3770(6)
N5_2 N 0.8926(5) 0.9420(3) 0.3080(3)
O10_2 O 0.6343(7) 0.8303(5) 0.3403(4)
Cu3_2 Cu 0.93951(8) 0.94901(5) 0.22936(4)
S3_2 S 0.71395(16) 0.98225(10) 0.76136(9)
Cu8_2 Cu 0.82581(8) 0.92283(5) 0.81481(4)
C4_3 C 0.0426(8) 0.2347(4) 0.6765(4)
H3_3 H 0.0923 0.2136 0.6993
C5_3 C 0.0255(6) 0.3006(4) 0.6822(3)
C7_3 C 0.2566(6) 0.3536(4) 0.5886(4)
H4_3 H 0.3026 0.3366 0.6159
C8_3 C 0.2639(6) 0.3315(4) 0.5353(3)
C9_3 C 0.1901(7) 0.3539(4) 0.4948(4)
H5_3 H 0.1888 0.3378 0.4586
C10_3 C 0.1196(7) 0.4000(5) 0.5091(3)
H6_3 H 0.0714 0.4163 0.4825
C11_3 C 0.1215(7) 0.4223(4) 0.5654(4)
C12_3 C 0.3440(6) 0.2837(4) 0.5217(4)
C19_3 C 0.2394(7) 0.6470(5) 0.8046(4)
H10_3 H 0.2706 0.6202 0.8317
C20_3 C 0.2726(7) 0.7101(4) 0.8027(4)
C21_3 C 0.2228(7) 0.7489(5) 0.7633(5)
H11_3 H 0.2415 0.7920 0.7613
C22_3 C 0.1462(8) 0.7253(4) 0.7271(5)
H12_3 H 0.1134 0.7520 0.7005
C23_3 C 0.1182(6) 0.6610(4) 0.7306(3)
C24_3 C 0.3565(13) 0.7325(7) 0.8417(8)
N2_3 N 0.1882(5) 0.3981(3) 0.6049(3)
N4_3 N 0.1636(5) 0.6218(3) 0.7692(3)
O3_2 O 0.4195(4) 0.2781(3) 0.5594(2)
O4_2 O 0.3352(5) 0.2514(3) 0.4784(2)
O7_3 O 0.3819(8) 0.7874(4) 0.8425(5)
O8_2 O 0.3956(5) 0.6904(3) 0.8743(3)
S1_3 S 0.09306(16) 0.34608(10) 0.73392(8)
S2_3 S 0.03123(16) 0.48043(10) 0.58475(9)
S4_3 S 0.02312(16) 0.62650(10) 0.68370(9)
S5_3 S 0.05136(16) 0.47890(10) 0.83694(9)
Zn7 Zn 0.48501(8) 0.19573(5) 0.57391(4)
Zn8 Zn 0.51499(8) 0.69573(5) 0.92609(4)
C1_3 C 0.9032(7) 0.2987(4) 0.6084(4)
H1_3 H 0.8558 0.3204 0.5846
C2_3 C 0.9134(8) 0.2327(5) 0.6011(4)
C3_3 C 0.9852(8) 0.2023(5) 0.6370(4)
H2_3 H 0.9942 0.1581 0.6339
C6_3 C 0.8428(13) 0.1976(7) 0.5599(7)
C13_3 C 0.7039(7) 0.3843(4) 0.3768(4)
H7_3 H 0.7497 0.3691 0.4051
C14_3 C 0.6075(6) 0.3559(4) 0.3705(4)
C15_3 C 0.5428(7) 0.3753(5) 0.3261(4)
H8_3 H 0.4788 0.3555 0.3187
C16_3 C 0.5750(7) 0.4249(5) 0.2927(4)
H9_3 H 0.5320 0.4386 0.2626
C17_3 C 0.6702(7) 0.4541(4) 0.3037(3)
C18_3 C 0.5802(8) 0.3017(5) 0.4079(4)
C25_3 C 0.8063(7) 0.5907(4) 0.8187(4)
H13_3 H 0.7733 0.6136 0.7895
C26_3 C 0.7633(7) 0.5929(5) 0.8691(4)
C27_3 C 0.8125(7) 0.5595(5) 0.9136(4)
H14_3 H 0.7854 0.5598 0.9488
C28_3 C 0.9032(7) 0.5258(5) 0.9039(4)
H15_3 H 0.9385 0.5039 0.9329
C29_3 C 0.9411(6) 0.5252(4) 0.8500(3)
C30_3 C 0.6647(12) 0.6316(8) 0.8770(6)
C31_3 C 0.7835(7) 0.3934(4) 0.8178(4)
H16_3 H 0.8276 0.3740 0.8448
C32_3 C 0.6764(7) 0.3956(4) 0.8261(4)
C33_3 C 0.6126(8) 0.4266(5) 0.7855(4)
H17_3 H 0.5411 0.4291 0.7890
C34_3 C 0.6567(7) 0.4532(5) 0.7407(4)
H18_3 H 0.6150 0.4741 0.7135
C35_3 C 0.7626(6) 0.4493(4) 0.7353(4)
C36_3 C 0.6369(8) 0.3648(5) 0.8778(4)
C37_3 C 0.2498(13) 0.1105(9) 0.4241(6)
H19_3 H 0.2164 0.0687 0.4243
H20_3 H 0.2049 0.1411 0.4416
C38_3 C 0.2646(13) 0.1314(8) 0.3632(6)
H21_3 H 0.1972 0.1380 0.3439
H22_3 H 0.3008 0.0979 0.3439
N1_3 N 0.9568(5) 0.3334(3) 0.6472(3)
N5_3 N 0.8926(5) 0.5580(3) 0.8080(3)
N6_3 N 0.8253(5) 0.4185(3) 0.7718(3)
N7_3 N 0.3440(7) 0.1074(4) 0.4540(4)
H23_3 H 0.4004 0.1166 0.4381
H24_3 H 0.3464 0.0964 0.4885
N8_3 N 0.3242(6) 0.1904(5) 0.3629(3)
H25_3 H 0.3452 0.2080 0.3938
H26_3 H 0.3385 0.2077 0.3317
O1_3 O 0.8493(8) 0.1382(4) 0.5575(4)
O2_3 O 0.7808(5) 0.2318(4) 0.5304(3)
O5_3 O 0.4984(5) 0.2738(4) 0.3988(3)
O6_3 O 0.6459(6) 0.2890(4) 0.4480(3)
O9_2 O 0.6274(5) 0.6308(3) 0.9226(3)
O10_3 O 0.6343(7) 0.6697(5) 0.8403(4)
O13_3 O 0.5396(4) 0.1707(3) 0.5014(2)
S6_3 S 0.82020(16) 0.49006(11) 0.67968(9)
Cu1_3 Cu 0.94925(8) 0.42865(5) 0.65258(4)
Cu3_3 Cu 0.93951(8) 0.55099(5) 0.72936(4)
Cu4_3 Cu 0.98159(8) 0.41794(5) 0.76507(4)
O16_2 O 0.6044(5) 0.1904(3) 0.6257(3)
O17_2 O 0.3726(5) 0.1308(3) 0.5774(3)
C25_4 C 0.1937(7) 0.0907(4) 0.6813(4)
H13_4 H 0.2267 0.1136 0.7105
C26_4 C 0.2367(7) 0.0929(5) 0.6309(4)
C27_4 C 0.1875(7) 0.0595(5) 0.5864(4)
H14_4 H 0.2146 0.0598 0.5512
C28_4 C 0.0968(7) 0.0258(5) 0.5961(4)
H15_4 H 0.0615 0.0039 0.5671
C29_4 C 0.0589(6) 0.0252(4) 0.6500(3)
C30_4 C 0.3353(12) 0.1316(8) 0.6230(6)
N5_4 N 0.1074(5) 0.0580(3) 0.6920(3)
O10_4 O 0.3657(7) 0.1697(5) 0.6597(4)
Cu3_4 Cu 0.06049(8) 0.05099(5) 0.77064(4)
C13_4 C 0.2961(7) 0.8843(4) 0.1232(4)
H7_4 H 0.2503 0.8691 0.0949
C14_4 C 0.3925(6) 0.8559(4) 0.1295(4)
C15_4 C 0.4572(7) 0.8753(5) 0.1739(4)
H8_4 H 0.5212 0.8555 0.1813
C16_4 C 0.4250(7) 0.9249(5) 0.2073(4)
H9_4 H 0.4680 0.9386 0.2374
C17_4 C 0.3298(7) 0.9541(4) 0.1963(3)
C18_4 C 0.4198(8) 0.8017(5) 0.0921(4)
C37_4 C 0.7502(13) 0.6105(9) 0.0759(6)
H19_4 H 0.7836 0.5687 0.0757
H20_4 H 0.7951 0.6411 0.0584
C38_4 C 0.7354(13) 0.6314(8) 0.1368(6)
H21_4 H 0.8028 0.6380 0.1561
H22_4 H 0.6992 0.5979 0.1561
N7_4 N 0.6560(7) 0.6074(4) 0.0460(4)
H23_4 H 0.5996 0.6166 0.0619
H24_4 H 0.6536 0.5964 0.0115
N8_4 N 0.6758(6) 0.6904(5) 0.1371(3)
H25_4 H 0.6548 0.7080 0.1062
H26_4 H 0.6615 0.7077 0.1683
O5_4 O 0.5016(5) 0.7738(4) 0.1012(3)
O6_4 O 0.3541(6) 0.7890(4) 0.0520(3)
O15_2 O 0.6648(5) 0.7514(3) 0.0216(2)
C1_4 C 0.0968(7) 0.7987(4) 0.8916(4)
H1_4 H 0.1442 0.8204 0.9154
C2_4 C 0.0866(8) 0.7327(5) 0.8989(4)
C3_4 C 0.0148(8) 0.7023(5) 0.8630(4)
H2_4 H 0.0058 0.6581 0.8661
C6_4 C 0.1572(13) 0.6976(7) 0.9401(7)
C31_4 C 0.2165(7) 0.8934(4) 0.6822(4)
H16_4 H 0.1724 0.8740 0.6552
C32_4 C 0.3236(7) 0.8956(4) 0.6739(4)
C33_4 C 0.3874(8) 0.9266(5) 0.7145(4)
H17_4 H 0.4589 0.9291 0.7110
C34_4 C 0.3433(7) 0.9532(5) 0.7593(4)
H18_4 H 0.3850 0.9741 0.7865
C35_4 C 0.2374(6) 0.9493(4) 0.7647(4)
C36_4 C 0.3631(8) 0.8648(5) 0.6222(4)
N1_4 N 0.0432(5) 0.8334(3) 0.8528(3)
N6_4 N 0.1747(5) 0.9185(3) 0.7282(3)
O1_4 O 0.1507(8) 0.6382(4) 0.9425(4)
O2_4 O 0.2192(5) 0.7318(4) 0.9696(3)
O13_4 O 0.4604(4) 0.6707(3) 0.9986(2)
S6_4 S 0.17980(16) 0.99006(11) 0.82032(9)
Cu1_4 Cu 0.05075(8) 0.92865(5) 0.84742(4)
Cu4_4 Cu 0.01841(8) 0.91794(5) 0.73493(4)
O14_2 O 0.5805(4) 0.7781(3) 0.9406(2)
C19_4 C 0.7606(7) 0.1470(5) 0.6954(4)
H10_4 H 0.7294 0.1202 0.6683
C20_4 C 0.7274(7) 0.2101(4) 0.6973(4)
C21_4 C 0.7772(7) 0.2489(5) 0.7367(5)
H11_4 H 0.7585 0.2920 0.7387
C22_4 C 0.8538(8) 0.2253(4) 0.7729(5)
H12_4 H 0.8866 0.2520 0.7995
C23_4 C 0.8818(6) 0.1610(4) 0.7694(3)
C24_4 C 0.6435(13) 0.2325(7) 0.6583(8)
N4_4 N 0.8364(5) 0.1218(3) 0.7308(3)
O7_4 O 0.6181(8) 0.2874(4) 0.6575(5)
S4_4 S 0.97688(16) 0.12650(10) 0.81630(9)
C9_4 C 0.8099(7) 0.8539(4) 0.0052(4)
H5_4 H 0.8112 0.8378 0.0414
H6_4 H 0.9286 0.9163 0.0175
C4_4 C 0.9574(8) 0.7347(4) 0.8235(4)
H3_4 H 0.9077 0.7136 0.8007
C5_4 C 0.9745(6) 0.8006(4) 0.8178(3)
C7_4 C 0.7434(6) 0.8536(4) 0.9114(4)
H4_4 H 0.6974 0.8366 0.8841
C8_4 C 0.7361(6) 0.8315(4) 0.9647(3)
C10_4 C 0.8804(7) 0.9000(5) 0.9909(3)
C11_4 C 0.8785(7) 0.9223(4) 0.9346(4)
C12_4 C 0.6560(6) 0.7837(4) 0.9783(4)
N2_4 N 0.8118(5) 0.8981(3) 0.8951(3)
S1_4 S 0.90694(16) 0.84608(10) 0.76608(8)
S2_4 S 0.96877(16) 0.98043(10) 0.91525(9)
S5_4 S 0.94864(16) 0.97890(10) 0.66306(9)
loop_
_geom_bond_atom_site_label_1
_geom_bond_atom_site_label_2
_geom_bond_site_symmetry_1
_geom_bond_site_symmetry_2
C1 H1 1_555 1_555
C2 C1 1_555 1_555
C3 C2 1_555 1_555
H2 C3 1_555 1_555
C6 C2 1_555 1_555
C13 H7 1_555 1_555
C14 C13 1_555 1_555
C15 C14 1_555 1_555
H8 C15 1_555 1_555
C16 C15 1_555 1_555
H9 C16 1_555 1_555
C17 C16 1_555 1_555
C18 C14 1_555 1_555
C25 H13 1_555 1_555
C26 C25 1_555 1_555
C27 C26 1_555 1_555
H14 C27 1_555 1_555
C28 C27 1_555 1_555
H15 C28 1_555 1_555
C29 C28 1_555 1_555
C30 C26 1_555 1_555
C31 H16 1_555 1_555
C32 C31 1_555 1_555
C33 C32 1_555 1_555
H17 C33 1_555 1_555
C34 C33 1_555 1_555
H18 C34 1_555 1_555
C35 C34 1_555 1_555
C36 C32 1_555 1_555
C37 H19 1_555 1_555
H20 C37 1_555 1_555
C38 C37 1_555 1_555
H21 C38 1_555 1_555
H22 C38 1_555 1_555
N1 C1 1_555 1_555
N3 C13 1_555 1_555
N5 C25 1_555 1_555
N6 C31 1_555 1_555
N7 C37 1_555 1_555
H23 N7 1_555 1_555
H24 N7 1_555 1_555
N8 C38 1_555 1_555
H25 N8 1_555 1_555
H26 N8 1_555 1_555
O1 C6 1_555 1_555
O2 C6 1_555 1_555
O5 C18 1_555 1_555
O6 C18 1_555 1_555
O9 C30 1_555 1_555
O10 C30 1_555 1_555
O11 C36 1_555 1_555
O12 C36 1_555 1_555
O13 Zn1 1_555 1_555
S3 C17 1_555 1_555
S6 C35 1_555 1_555
Cu1 N1 1_555 1_555
Cu3 N5 1_555 1_555
Cu4 N6 1_555 1_555
Zn1 O2 1_555 1_555
Zn2 N7 1_555 1_555
Zn3 O13 1_555 1_555
O14 Zn3 1_555 1_555
O15 Zn2 1_555 1_555
O16 Zn3 1_555 1_555
O17 Zn3 1_555 1_555
O18 Zn1 1_555 1_555
O19 Zn2 1_555 1_555
Cu7 N3 1_555 1_555
Cu8 S3 1_555 1_555
Cu9 S3 1_555 1_555
Zn4 O11 1_555 1_555
Zn6 O12 1_555 1_555
Zn9 O9 1_555 1_555
C17 N3 1_555 1_555
C29 N5 1_555 1_555
C35 N6 1_555 1_555
N8 Zn2 1_555 1_555
O5 Zn2 1_555 1_555
O6 Zn1 1_555 1_555
O13 Zn2 1_555 1_555
S6 Cu1 1_555 1_555
S6 Cu3 1_555 1_555
Cu1 Cu4 1_555 1_555
Cu7 Cu8 1_555 1_555
H3 C4 1_555 1_555
C5 C4 1_555 1_555
C7 H4 1_555 1_555
C8 C7 1_555 1_555
C9 C8 1_555 1_555
H5 C9 1_555 1_555
C10 C9 1_555 1_555
H6 C10 1_555 1_555
C11 C10 1_555 1_555
C12 C8 1_555 1_555
C19 H10 1_555 1_555
C20 C19 1_555 1_555
C21 C20 1_555 1_555
H11 C21 1_555 1_555
C22 C21 1_555 1_555
H12 C22 1_555 1_555
C23 C22 1_555 1_555
C24 C20 1_555 1_555
N2 C7 1_555 1_555
N4 C19 1_555 1_555
O14 C12 1_555 1_555
O15 C12 1_555 1_555
O7 C24 1_555 1_555
O8 C24 1_555 1_555
S1 C5 1_555 1_555
S2 C11 1_555 1_555
S4 C23 1_555 1_555
Cu2 S2 1_555 1_555
Cu5 N2 1_555 1_555
Cu6 N4 1_555 1_555
N9 Cu2 1_555 1_555
S7 Cu5 1_555 1_555
Zn9 O8 1_555 1_555
C11 N2 1_555 1_555
C23 N4 1_555 1_555
S1 Cu5 1_555 1_555
S4 Cu2 1_555 1_555
S5 Cu6 1_555 1_555
Cu2 Cu5 1_555 1_555
Cu6 S7 1_555 1_555
H3_2 C4_2 1_555 1_555
C5_2 C4_2 1_555 1_555
C7_2 H4_2 1_555 1_555
C8_2 C7_2 1_555 1_555
C11_2 C10_2 1_555 1_555
C12_2 C8_2 1_555 1_555
N2_2 C7_2 1_555 1_555
O3 C12_2 1_555 1_555
S1_2 C5_2 1_555 1_555
S2_2 C11_2 1_555 1_555
Cu5_2 N2_2 1_555 1_555
S7_2 Cu5_2 1_555 1_555
Zn9 O3 1_555 1_555
C11_2 N2_2 1_555 1_555
S1_2 Cu5_2 1_555 1_555
H5_2 C9_2 1_555 1_555
Zn5 O4 1_555 1_555
C19_2 H10_2 1_555 1_555
C20_2 C19_2 1_555 1_555
C21_2 C20_2 1_555 1_555
H11_2 C21_2 1_555 1_555
C22_2 C21_2 1_555 1_555
H12_2 C22_2 1_555 1_555
C23_2 C22_2 1_555 1_555
C24_2 C20_2 1_555 1_555
N4_2 C19_2 1_555 1_555
O7_2 C24_2 1_555 1_555
O16 C24_2 1_555 1_555
S4_2 C23_2 1_555 1_555
Cu6_2 N4_2 1_555 1_555
N9_2 Cu2_2 1_555 1_555
C23_2 N4_2 1_555 1_555
S4_2 Cu2_2 1_555 1_555
C1_2 H1_2 1_555 1_555
C2_2 C1_2 1_555 1_555
C3_2 C2_2 1_555 1_555
H2_2 C3_2 1_555 1_555
C6_2 C2_2 1_555 1_555
C31_2 H16_2 1_555 1_555
C32_2 C31_2 1_555 1_555
C33_2 C32_2 1_555 1_555
H17_2 C33_2 1_555 1_555
C34_2 C33_2 1_555 1_555
H18_2 C34_2 1_555 1_555
C35_2 C34_2 1_555 1_555
C36_2 C32_2 1_555 1_555
N1_2 C1_2 1_555 1_555
N6_2 C31_2 1_555 1_555
O1_2 C6_2 1_555 1_555
O2_2 C6_2 1_555 1_555
O11_2 C36_2 1_555 1_555
O12_2 C36_2 1_555 1_555
S6_2 C35_2 1_555 1_555
Cu1_2 N1_2 1_555 1_555
Cu4_2 N6_2 1_555 1_555
Zn9 O13_2 1_555 1_555
Zn4_2 O11_2 1_555 1_555
Zn6_2 O12_2 1_555 1_555
C35_2 N6_2 1_555 1_555
S6_2 Cu1_2 1_555 1_555
Cu1_2 Cu4_2 1_555 1_555
C13_2 H7_2 1_555 1_555
C14_2 C13_2 1_555 1_555
C15_2 C14_2 1_555 1_555
H8_2 C15_2 1_555 1_555
C16_2 C15_2 1_555 1_555
H9_2 C16_2 1_555 1_555
C17_2 C16_2 1_555 1_555
C18_2 C14_2 1_555 1_555
C37_2 H19_2 1_555 1_555
H20_2 C37_2 1_555 1_555
C38_2 C37_2 1_555 1_555
H21_2 C38_2 1_555 1_555
H22_2 C38_2 1_555 1_555
N3_2 C13_2 1_555 1_555
N7_2 C37_2 1_555 1_555
H23_2 N7_2 1_555 1_555
H24_2 N7_2 1_555 1_555
N8_2 C38_2 1_555 1_555
H25_2 N8_2 1_555 1_555
H26_2 N8_2 1_555 1_555
O5_2 C18_2 1_555 1_555
O6_2 C18_2 1_555 1_555
Zn5 N7_2 1_555 1_555
O18_2 Zn1_2 1_555 1_555
O19_2 Zn5 1_555 1_555
Cu7_2 N3_2 1_555 1_555
C17_2 N3_2 1_555 1_555
N8_2 Zn5 1_555 1_555
O5_2 Zn5 1_555 1_555
O6_2 Zn1_2 1_555 1_555
C25_2 H13_2 1_555 1_555
C26_2 C25_2 1_555 1_555
C27_2 C26_2 1_555 1_555
H14_2 C27_2 1_555 1_555
C28_2 C27_2 1_555 1_555
H15_2 C28_2 1_555 1_555
C29_2 C28_2 1_555 1_555
C30_2 C26_2 1_555 1_555
N5_2 C25_2 1_555 1_555
O17 C30_2 1_555 1_555
O10_2 C30_2 1_555 1_555
Cu3_2 N5_2 1_555 1_555
C29_2 N5_2 1_555 1_555
Cu8_2 S3_2 1_555 1_555
H3_3 C4_3 1_555 1_555
C5_3 C4_3 1_555 1_555
C7_3 H4_3 1_555 1_555
C8_3 C7_3 1_555 1_555
C9_3 C8_3 1_555 1_555
H5_3 C9_3 1_555 1_555
C10_3 C9_3 1_555 1_555
H6_3 C10_3 1_555 1_555
C11_3 C10_3 1_555 1_555
C12_3 C8_3 1_555 1_555
C19_3 H10_3 1_555 1_555
C20_3 C19_3 1_555 1_555
C21_3 C20_3 1_555 1_555
H11_3 C21_3 1_555 1_555
C22_3 C21_3 1_555 1_555
H12_3 C22_3 1_555 1_555
C23_3 C22_3 1_555 1_555
C24_3 C20_3 1_555 1_555
N2_3 C7_3 1_555 1_555
N4_3 C19_3 1_555 1_555
O3_2 C12_3 1_555 1_555
O4_2 C12_3 1_555 1_555
O7_3 C24_3 1_555 1_555
O8_2 C24_3 1_555 1_555
S1_3 C5_3 1_555 1_555
S2_3 C11_3 1_555 1_555
S4_3 C23_3 1_555 1_555
Cu7 S2_3 1_555 1_555
Cu8 N2_3 1_555 1_555
Cu9 N4_3 1_555 1_555
Zn6_2 O4_2 1_555 1_555
Zn7 O3_2 1_555 1_555
Zn8 O8_2 1_555 1_555
C11_3 N2_3 1_555 1_555
C23_3 N4_3 1_555 1_555
S1_3 Cu8 1_555 1_555
S4_3 Cu7 1_555 1_555
S5_3 Cu9 1_555 1_555
C1_3 H1_3 1_555 1_555
C2_3 C1_3 1_555 1_555
C3_3 C2_3 1_555 1_555
H2_3 C3_3 1_555 1_555
C6_3 C2_3 1_555 1_555
C13_3 H7_3 1_555 1_555
C14_3 C13_3 1_555 1_555
C15_3 C14_3 1_555 1_555
H8_3 C15_3 1_555 1_555
C16_3 C15_3 1_555 1_555
H9_3 C16_3 1_555 1_555
C17_3 C16_3 1_555 1_555
C18_3 C14_3 1_555 1_555
C25_3 H13_3 1_555 1_555
C26_3 C25_3 1_555 1_555
C27_3 C26_3 1_555 1_555
H14_3 C27_3 1_555 1_555
C28_3 C27_3 1_555 1_555
H15_3 C28_3 1_555 1_555
C29_3 C28_3 1_555 1_555
C30_3 C26_3 1_555 1_555
C31_3 H16_3 1_555 1_555
C32_3 C31_3 1_555 1_555
C33_3 C32_3 1_555 1_555
H17_3 C33_3 1_555 1_555
C34_3 C33_3 1_555 1_555
H18_3 C34_3 1_555 1_555
C35_3 C34_3 1_555 1_555
C36_3 C32_3 1_555 1_555
C37_3 H19_3 1_555 1_555
H20_3 C37_3 1_555 1_555
C38_3 C37_3 1_555 1_555
H21_3 C38_3 1_555 1_555
H22_3 C38_3 1_555 1_555
N1_3 C1_3 1_555 1_555
N9 C13_3 1_555 1_555
N5_3 C25_3 1_555 1_555
N6_3 C31_3 1_555 1_555
N7_3 C37_3 1_555 1_555
H23_3 N7_3 1_555 1_555
H24_3 N7_3 1_555 1_555
N8_3 C38_3 1_555 1_555
H25_3 N8_3 1_555 1_555
H26_3 N8_3 1_555 1_555
O1_3 C6_3 1_555 1_555
O2_3 C6_3 1_555 1_555
O5_3 C18_3 1_555 1_555
O6_3 C18_3 1_555 1_555
O9_2 C30_3 1_555 1_555
O10_3 C30_3 1_555 1_555
O18_2 C36_3 1_555 1_555
O19_2 C36_3 1_555 1_555
O13_3 Zn4_2 1_555 1_555
S7 C17_3 1_555 1_555
S6_3 C35_3 1_555 1_555
Cu1_3 N1_3 1_555 1_555
Cu3_3 N5_3 1_555 1_555
Cu4_3 N6_3 1_555 1_555
Zn4_2 O2_3 1_555 1_555
Zn6_2 N7_3 1_555 1_555
Zn7 O13_3 1_555 1_555
O16_2 Zn7 1_555 1_555
O17_2 Zn7 1_555 1_555
Zn8 O9_2 1_555 1_555
C17_3 N9 1_555 1_555
C29_3 N5_3 1_555 1_555
C35_3 N6_3 1_555 1_555
N8_3 Zn6_2 1_555 1_555
O5_3 Zn6_2 1_555 1_555
O6_3 Zn4_2 1_555 1_555
O13_3 Zn6_2 1_555 1_555
S6_3 Cu1_3 1_555 1_555
S6_3 Cu3_3 1_555 1_555
Cu1_3 Cu4_3 1_555 1_555
C25_4 H13_4 1_555 1_555
C26_4 C25_4 1_555 1_555
C27_4 C26_4 1_555 1_555
H14_4 C27_4 1_555 1_555
C28_4 C27_4 1_555 1_555
H15_4 C28_4 1_555 1_555
C29_4 C28_4 1_555 1_555
C30_4 C26_4 1_555 1_555
N5_4 C25_4 1_555 1_555
O17_2 C30_4 1_555 1_555
O10_4 C30_4 1_555 1_555
Cu3_4 N5_4 1_555 1_555
C29_4 N5_4 1_555 1_555
C13_4 H7_4 1_555 1_555
C14_4 C13_4 1_555 1_555
C15_4 C14_4 1_555 1_555
H8_4 C15_4 1_555 1_555
C16_4 C15_4 1_555 1_555
H9_4 C16_4 1_555 1_555
C17_4 C16_4 1_555 1_555
C18_4 C14_4 1_555 1_555
C37_4 H19_4 1_555 1_555
H20_4 C37_4 1_555 1_555
C38_4 C37_4 1_555 1_555
H21_4 C38_4 1_555 1_555
H22_4 C38_4 1_555 1_555
N9_2 C13_4 1_555 1_555
N7_4 C37_4 1_555 1_555
H23_4 N7_4 1_555 1_555
H24_4 N7_4 1_555 1_555
N8_4 C38_4 1_555 1_555
H25_4 N8_4 1_555 1_555
H26_4 N8_4 1_555 1_555
O5_4 C18_4 1_555 1_555
O6_4 C18_4 1_555 1_555
Zn6 N7_4 1_555 1_555
O15_2 Zn6 1_555 1_555
C17_4 N9_2 1_555 1_555
N8_4 Zn6 1_555 1_555
O5_4 Zn6 1_555 1_555
O6_4 Zn4 1_555 1_555
C1_4 H1_4 1_555 1_555
C2_4 C1_4 1_555 1_555
C3_4 C2_4 1_555 1_555
H2_4 C3_4 1_555 1_555
C6_4 C2_4 1_555 1_555
C31_4 H16_4 1_555 1_555
C32_4 C31_4 1_555 1_555
C33_4 C32_4 1_555 1_555
H17_4 C33_4 1_555 1_555
C34_4 C33_4 1_555 1_555
H18_4 C34_4 1_555 1_555
C35_4 C34_4 1_555 1_555
C36_4 C32_4 1_555 1_555
N1_4 C1_4 1_555 1_555
N6_4 C31_4 1_555 1_555
O1_4 C6_4 1_555 1_555
O2_4 C6_4 1_555 1_555
O18 C36_4 1_555 1_555
O19 C36_4 1_555 1_555
S6_4 C35_4 1_555 1_555
Cu1_4 N1_4 1_555 1_555
Cu4_4 N6_4 1_555 1_555
Zn8 O13_4 1_555 1_555
O14_2 Zn8 1_555 1_555
C35_4 N6_4 1_555 1_555
S6_4 Cu1_4 1_555 1_555
Cu1_4 Cu4_4 1_555 1_555
C19_4 H10_4 1_555 1_555
C20_4 C19_4 1_555 1_555
C21_4 C20_4 1_555 1_555
H11_4 C21_4 1_555 1_555
C22_4 C21_4 1_555 1_555
H12_4 C22_4 1_555 1_555
C23_4 C22_4 1_555 1_555
C24_4 C20_4 1_555 1_555
N4_4 C19_4 1_555 1_555
O7_4 C24_4 1_555 1_555
O16_2 C24_4 1_555 1_555
S4_4 C23_4 1_555 1_555
Cu9_2 N4_4 1_555 1_555
C23_4 N4_4 1_555 1_555
S4_4 Cu7_2 1_555 1_555
H5_4 C9_4 1_555 1_555
H3_4 C4_4 1_555 1_555
C5_4 C4_4 1_555 1_555
C7_4 H4_4 1_555 1_555
C8_4 C7_4 1_555 1_555
C11_4 C10_4 1_555 1_555
C12_4 C8_4 1_555 1_555
N2_4 C7_4 1_555 1_555
O14_2 C12_4 1_555 1_555
S1_4 C5_4 1_555 1_555
S2_4 C11_4 1_555 1_555
Cu8_2 N2_4 1_555 1_555
C11_4 N2_4 1_555 1_555
S1_4 Cu8_2 1_555 1_555

#END
