
###############################################################################
#
# This file contains modified crystal structure data generated from the
# MOF subset of the Cambridge Structural Database (CSD) v543 
# hosted by the Cambridge Crystallographic Data Centre (CCDC).
#
# This work is licensed under the Creative Commons
# Attribution-NonCommercial-ShareAlike 4.0 International License.
# To view a copy of this license, visit
# http://creativecommons.org/licenses/by-nc-sa/4.0/
# or send a letter to
# Creative Commons, PO Box 1866, Mountain View, CA 94042, USA.
#
# CIF created using the CSD Python API on 29 September 2022
# The structure has been converted into the P1 space group
# The structure has a 3D framework
# The original CSD entry BECKAY is in the monoclinic crystal system
# The framework has been calculated to contain at least 10.0% void space
# The void calculation uses a probe of radius 1.32A, grid spacing 0.4
#
###############################################################################

data_BECKAY
_chemical_formula_moiety         '(C160 H140 Cu20 N40 O52 S24 Zn16)n'
_symmetry_cell_setting           triclinic
_symmetry_space_group_name_H-M   'P 1'
_symmetry_Int_Tables_number      1
_space_group_name_Hall           'P 1'
loop_
_symmetry_equiv_pos_site_id
_symmetry_equiv_pos_as_xyz
1 x,y,z
_cell_length_a                   13.9429(3)
_cell_length_b                   19.5452(4)
_cell_length_c                   26.0040(5)
_cell_angle_alpha                90
_cell_angle_beta                 98.909(2)
_cell_angle_gamma                90
_cell_volume                     7001.03
loop_
_atom_site_label
_atom_site_type_symbol
_atom_site_fract_x
_atom_site_fract_y
_atom_site_fract_z
Zn1 Zn 0.00833(3) 0.49367(2) 0.061516(16)
Cu3 Cu 0.12705(3) 0.02505(2) 0.212916(17)
S2 S 0.16529(7) 0.12043(5) 0.25824(3)
O2 O 0.0181(2) 0.39965(14) 0.11403(10)
N2 N 0.0127(2) 0.56471(19) 0.12414(13)
C2 C 0.0377(3) 0.28752(19) 0.14813(14)
N3 N 0.0298(2) 0.17567(16) 0.18564(11)
N4 N 0.1163(2) 0.00975(15) 0.13504(12)
N5 N 0.1617(2) 0.49206(17) 0.08732(13)
H4 H 0.1233 0.5136 0.0637
H5 H 0.1925 0.4565 0.0792
C11 C 0.1634(3) 0.2498(2) 0.21624(16)
H11 H 0.2212 0.2575 0.2386
C13 C 0.1960(3) 0.00007(19) 0.11225(14)
H12 H 0.2557 0.0148 0.1296
C17 C 0.1240(3) 0.3002(2) 0.18182(16)
H13 H 0.1550 0.3423 0.1812
C18 C 0.1153(3) 0.18739(19) 0.21696(13)
C19 C 0.1749(3) 0.5162(2) 0.14190(17)
H14 H 0.2427 0.5269 0.1535
H15 H 0.1561 0.4803 0.1641
C20 C 0.1143(3) 0.5784(3) 0.14618(18)
H16 H 0.1185 0.5913 0.1825
H17 H 0.1387 0.6161 0.1277
Cu4 Cu 0.04733(3) 0.09022(2) 0.305408(18)
Zn7 Zn 0.09548(3) 0.63725(2) 0.995913(16)
O8 O 0.00439(18) 0.43037(13) 0.99697(9)
S3 S 0.16983(7) 0.92200(5) 0.25091(3)
O5 O 0.28344(19) 0.91391(14) 0.00675(10)
O6 O 0.35796(19) 0.99027(14) 0.06346(11)
O7 O 0.1307(2) 0.70137(14) 0.05247(11)
N1 N 0.0460(2) 0.85669(16) 0.17808(12)
C1 C 0.0934(3) 0.78256(19) 0.11258(14)
C3 C 0.1924(3) 0.96905(19) 0.06393(14)
C4 C 0.0242(3) 0.81499(19) 0.13682(14)
C6 C 0.1410(3) 0.86709(18) 0.19704(14)
C7 C 0.1033(3) 0.9471(2) 0.03831(14)
H7 H 0.0992 0.9247 0.0065
C8 C 0.0207(3) 0.9587(2) 0.06021(14)
C9 C 0.2152(3) 0.8375(2) 0.17381(15)
H9 H 0.2800 0.8465 0.1866
C10 C 0.1903(3) 0.7946(2) 0.13157(15)
H10 H 0.2385 0.7739 0.1160
C12 C 0.2851(3) 0.95743(19) 0.04326(14)
C14 C 0.0621(3) 0.7358(2) 0.06713(15)
C15 C 0.0297(3) 0.99091(19) 0.10861(14)
Zn3 Zn 0.50833(3) 0.99367(2) 0.061516(16)
Cu5 Cu 0.05067(3) 0.92105(2) 0.298065(17)
Zn5 Zn 0.40452(3) 0.86275(2) 0.004087(16)
Cu1 Cu 0.95267(3) 0.09022(2) 0.194592(18)
Zn2 Zn 0.90452(3) 0.36275(2) 0.004087(16)
S1 S 0.92584(7) 0.00399(5) 0.13854(4)
O1 O 0.99561(18) 0.56963(13) 0.00303(9)
O3 O 0.9387(2) 0.31322(14) 0.06943(10)
H1 H 0.9961 0.5251 0.1113
H2 H 0.9697 0.5963 0.1241
C5 C 0.9942(3) 0.2246(2) 0.15207(14)
H6 H 0.9365 0.2157 0.1300
C16 C 0.9956(3) 0.3384(2) 0.10778(15)
H18 H 0.937(2) 0.592(2) 0.0014(18)
S4 S 0.83471(7) 0.12043(5) 0.24176(3)
O9 O 0.78344(19) 0.41391(14) 0.00675(10)
O10 O 0.85796(19) 0.49027(14) 0.06346(11)
Zn4 Zn 0.99167(3) 0.50633(2) 0.938484(16)
O11 O 0.8693(2) 0.29863(14) 0.94753(11)
Cu2 Cu 0.94933(3) 0.92105(2) 0.201935(17)
O4 O 0.9752(2) 0.73197(16) 0.04748(12)
H3 H 0.9591 0.8075 0.1239
H8 H 0.9602 0.9453 0.0430
S5 S 0.83017(7) 0.92200(5) 0.24909(3)
Zn2_2 Zn 0.09548(3) 0.36275(2) 0.495913(16)
S1_2 S 0.07416(7) 0.00399(5) 0.36146(4)
O1_2 O 0.00439(18) 0.56963(13) 0.49697(9)
O3_2 O 0.0613(2) 0.31322(14) 0.43057(10)
H1_2 H 0.0039 0.5251 0.3887
H2_2 H 0.0303 0.5963 0.3759
C5_2 C 0.0058(3) 0.2246(2) 0.34793(14)
H6_2 H 0.0635 0.2157 0.3700
C16_2 C 0.0044(3) 0.3384(2) 0.39222(15)
H18_2 H 0.063(2) 0.592(2) 0.4986(18)
Zn4_2 Zn 0.00833(3) 0.50633(2) 0.561516(16)
O9_2 O 0.21656(19) 0.41391(14) 0.49325(10)
O10_2 O 0.14204(19) 0.49027(14) 0.43654(11)
O11_2 O 0.1307(2) 0.29863(14) 0.55247(11)
O4_2 O 0.0248(2) 0.73197(16) 0.45252(12)
H3_2 H 0.0409 0.8075 0.3761
H8_2 H 0.0398 0.9453 0.4570
Zn1_2 Zn 0.99167(3) 0.49367(2) 0.438484(16)
Cu3_2 Cu 0.87295(3) 0.02505(2) 0.287084(17)
O2_2 O 0.9819(2) 0.39965(14) 0.38597(10)
N2_2 N 0.9873(2) 0.56471(19) 0.37586(13)
C2_2 C 0.9623(3) 0.28752(19) 0.35187(14)
N3_2 N 0.9702(2) 0.17567(16) 0.31436(11)
N4_2 N 0.8837(2) 0.00975(15) 0.36496(12)
N5_2 N 0.8383(2) 0.49206(17) 0.41268(13)
H4_2 H 0.8767 0.5136 0.4363
H5_2 H 0.8075 0.4565 0.4208
C11_2 C 0.8366(3) 0.2498(2) 0.28376(16)
H11_2 H 0.7788 0.2575 0.2614
C13_2 C 0.8040(3) 0.00007(19) 0.38775(14)
H12_2 H 0.7443 0.0148 0.3704
C17_2 C 0.8760(3) 0.3002(2) 0.31818(16)
H13_2 H 0.8450 0.3423 0.3188
C18_2 C 0.8847(3) 0.18739(19) 0.28304(13)
C19_2 C 0.8251(3) 0.5162(2) 0.35810(17)
H14_2 H 0.7573 0.5269 0.3465
H15_2 H 0.8439 0.4803 0.3359
C20_2 C 0.8857(3) 0.5784(3) 0.35382(18)
H16_2 H 0.8815 0.5913 0.3175
H17_2 H 0.8613 0.6161 0.3723
Zn7_2 Zn 0.90452(3) 0.63725(2) 0.504087(16)
O8_2 O 0.99561(18) 0.43037(13) 0.50303(9)
O5_2 O 0.71656(19) 0.91391(14) 0.49325(10)
O6_2 O 0.64204(19) 0.99027(14) 0.43654(11)
O7_2 O 0.8693(2) 0.70137(14) 0.44753(11)
N1_2 N 0.9540(2) 0.85669(16) 0.32192(12)
C1_2 C 0.9066(3) 0.78256(19) 0.38742(14)
C3_2 C 0.8076(3) 0.96905(19) 0.43607(14)
C4_2 C 0.9758(3) 0.81499(19) 0.36318(14)
C6_2 C 0.8590(3) 0.86709(18) 0.30296(14)
C7_2 C 0.8967(3) 0.9471(2) 0.46169(14)
H7_2 H 0.9008 0.9247 0.4935
C8_2 C 0.9793(3) 0.9587(2) 0.43979(14)
C9_2 C 0.7848(3) 0.8375(2) 0.32619(15)
H9_2 H 0.7200 0.8465 0.3134
C10_2 C 0.8097(3) 0.7946(2) 0.36843(15)
H10_2 H 0.7615 0.7739 0.3840
C12_2 C 0.7149(3) 0.95743(19) 0.45674(14)
C14_2 C 0.9379(3) 0.7358(2) 0.43287(15)
C15_2 C 0.9703(3) 0.99091(19) 0.39139(14)
Zn3_2 Zn 0.49167(3) 0.99367(2) 0.438484(16)
Zn5_2 Zn 0.59548(3) 0.86275(2) 0.495913(16)
O1_3 O 0.49561(18) 0.06963(13) 0.00303(9)
N2_3 N 0.5127(2) 0.06471(19) 0.12414(13)
H1_3 H 0.4961 0.0251 0.1113
H2_3 H 0.4697 0.0963 0.1241
H4_3 H 0.6233 0.0136 0.0637
C19_3 C 0.6749(3) 0.0162(2) 0.14190(17)
H14_3 H 0.7427 0.0269 0.1535
C20_3 C 0.6143(3) 0.0784(3) 0.14618(18)
H16_3 H 0.6185 0.0913 0.1825
H17_3 H 0.6387 0.1161 0.1277
H18_3 H 0.437(2) 0.092(2) 0.0014(18)
Zn4_3 Zn 0.49167(3) 0.00633(2) 0.938484(16)
Zn7_3 Zn 0.59548(3) 0.13725(2) 0.995913(16)
Cu1_2 Cu 0.45267(3) 0.59022(2) 0.194592(18)
Cu2_2 Cu 0.44933(3) 0.42105(2) 0.201935(17)
Cu3_3 Cu 0.62705(3) 0.52505(2) 0.212916(17)
S1_3 S 0.42584(7) 0.50399(5) 0.13854(4)
S2_2 S 0.66529(7) 0.62043(5) 0.25824(3)
S3_2 S 0.66983(7) 0.42200(5) 0.25091(3)
O2_3 O 0.5181(2) 0.89965(14) 0.11403(10)
O3_3 O 0.4387(2) 0.81322(14) 0.06943(10)
O4_3 O 0.4752(2) 0.23197(16) 0.04748(12)
O7_3 O 0.6307(2) 0.20137(14) 0.05247(11)
N1_3 N 0.5460(2) 0.35669(16) 0.17808(12)
C1_3 C 0.5934(3) 0.28256(19) 0.11258(14)
C2_3 C 0.5377(3) 0.78752(19) 0.14813(14)
N3_3 N 0.5298(2) 0.67567(16) 0.18564(11)
C3_3 C 0.6924(3) 0.46905(19) 0.06393(14)
N4_3 N 0.6163(2) 0.50975(15) 0.13504(12)
C4_3 C 0.5242(3) 0.31499(19) 0.13682(14)
H3_3 H 0.4591 0.3075 0.1239
N5_3 N 0.6617(2) 0.99206(17) 0.08732(13)
H5_3 H 0.6925 0.9565 0.0792
C5_3 C 0.4942(3) 0.7246(2) 0.15207(14)
H6_3 H 0.4365 0.7157 0.1300
C6_3 C 0.6410(3) 0.36709(18) 0.19704(14)
C7_3 C 0.6033(3) 0.4471(2) 0.03831(14)
H7_3 H 0.5992 0.4247 0.0065
C8_3 C 0.5207(3) 0.4587(2) 0.06021(14)
H8_3 H 0.4602 0.4453 0.0430
C9_3 C 0.7152(3) 0.3375(2) 0.17381(15)
H9_3 H 0.7800 0.3465 0.1866
C10_3 C 0.6903(3) 0.2946(2) 0.13157(15)
H10_3 H 0.7385 0.2739 0.1160
C11_3 C 0.6634(3) 0.7498(2) 0.21624(16)
H11_3 H 0.7212 0.7575 0.2386
C12_3 C 0.7851(3) 0.45743(19) 0.04326(14)
C13_3 C 0.6960(3) 0.50007(19) 0.11225(14)
H12_3 H 0.7557 0.5148 0.1296
C14_3 C 0.5621(3) 0.2358(2) 0.06713(15)
C15_3 C 0.5297(3) 0.49091(19) 0.10861(14)
C16_3 C 0.4956(3) 0.8384(2) 0.10778(15)
C17_3 C 0.6240(3) 0.8002(2) 0.18182(16)
H13_3 H 0.6550 0.8423 0.1812
C18_3 C 0.6153(3) 0.68739(19) 0.21696(13)
H15_3 H 0.6561 0.9803 0.1641
Cu4_2 Cu 0.54733(3) 0.59022(2) 0.305408(18)
Cu5_2 Cu 0.55067(3) 0.42105(2) 0.298065(17)
S4_2 S 0.33471(7) 0.62043(5) 0.24176(3)
S5_2 S 0.33017(7) 0.42200(5) 0.24909(3)
O8_3 O 0.50439(18) 0.93037(13) 0.99697(9)
O11_3 O 0.3693(2) 0.79863(14) 0.94753(11)
O1_4 O 0.50439(18) 0.06963(13) 0.49697(9)
N2_4 N 0.4873(2) 0.06471(19) 0.37586(13)
H1_4 H 0.5039 0.0251 0.3887
H2_4 H 0.5303 0.0963 0.3759
H4_4 H 0.3767 0.0136 0.4363
C19_4 C 0.3251(3) 0.0162(2) 0.35810(17)
H14_4 H 0.2573 0.0269 0.3465
C20_4 C 0.3857(3) 0.0784(3) 0.35382(18)
H16_4 H 0.3815 0.0913 0.3175
H17_4 H 0.3613 0.1161 0.3723
H18_4 H 0.563(2) 0.092(2) 0.4986(18)
Zn4_4 Zn 0.50833(3) 0.00633(2) 0.561516(16)
Zn7_4 Zn 0.40452(3) 0.13725(2) 0.504087(16)
Cu3_4 Cu 0.37295(3) 0.52505(2) 0.287084(17)
S1_4 S 0.57416(7) 0.50399(5) 0.36146(4)
O2_4 O 0.4819(2) 0.89965(14) 0.38597(10)
O3_4 O 0.5613(2) 0.81322(14) 0.43057(10)
O4_4 O 0.5248(2) 0.23197(16) 0.45252(12)
O7_4 O 0.3693(2) 0.20137(14) 0.44753(11)
N1_4 N 0.4540(2) 0.35669(16) 0.32192(12)
C1_4 C 0.4066(3) 0.28256(19) 0.38742(14)
C2_4 C 0.4623(3) 0.78752(19) 0.35187(14)
N3_4 N 0.4702(2) 0.67567(16) 0.31436(11)
C3_4 C 0.3076(3) 0.46905(19) 0.43607(14)
N4_4 N 0.3837(2) 0.50975(15) 0.36496(12)
C4_4 C 0.4758(3) 0.31499(19) 0.36318(14)
H3_4 H 0.5409 0.3075 0.3761
N5_4 N 0.3383(2) 0.99206(17) 0.41268(13)
H5_4 H 0.3075 0.9565 0.4208
C5_4 C 0.5058(3) 0.7246(2) 0.34793(14)
H6_4 H 0.5635 0.7157 0.3700
C6_4 C 0.3590(3) 0.36709(18) 0.30296(14)
C7_4 C 0.3967(3) 0.4471(2) 0.46169(14)
H7_4 H 0.4008 0.4247 0.4935
C8_4 C 0.4793(3) 0.4587(2) 0.43979(14)
H8_4 H 0.5398 0.4453 0.4570
C9_4 C 0.2848(3) 0.3375(2) 0.32619(15)
H9_4 H 0.2200 0.3465 0.3134
C10_4 C 0.3097(3) 0.2946(2) 0.36843(15)
H10_4 H 0.2615 0.2739 0.3840
C11_4 C 0.3366(3) 0.7498(2) 0.28376(16)
H11_4 H 0.2788 0.7575 0.2614
C12_4 C 0.2149(3) 0.45743(19) 0.45674(14)
C13_4 C 0.3040(3) 0.50007(19) 0.38775(14)
H12_4 H 0.2443 0.5148 0.3704
C14_4 C 0.4379(3) 0.2358(2) 0.43287(15)
C15_4 C 0.4703(3) 0.49091(19) 0.39139(14)
C16_4 C 0.5044(3) 0.8384(2) 0.39222(15)
C17_4 C 0.3760(3) 0.8002(2) 0.31818(16)
H13_4 H 0.3450 0.8423 0.3188
C18_4 C 0.3847(3) 0.68739(19) 0.28304(13)
H15_4 H 0.3439 0.9803 0.3359
O8_4 O 0.49561(18) 0.93037(13) 0.50303(9)
O11_4 O 0.6307(2) 0.79863(14) 0.55247(11)
Cu2_3 Cu 0.05067(3) 0.07895(2) 0.798065(17)
O4_5 O 0.0248(2) 0.26803(16) 0.95252(12)
H3_5 H 0.0409 0.1925 0.8761
H8_5 H 0.0398 0.0547 0.9570
S5_3 S 0.16983(7) 0.07800(5) 0.75091(3)
Cu1_3 Cu 0.04733(3) 0.90978(2) 0.805408(18)
S1_5 S 0.07416(7) 0.99601(5) 0.86146(4)
O3_5 O 0.0613(2) 0.68678(14) 0.93057(10)
H1_5 H 0.0039 0.4749 0.8887
H2_5 H 0.0303 0.4037 0.8759
C5_5 C 0.0058(3) 0.7754(2) 0.84793(14)
H6_5 H 0.0635 0.7843 0.8700
C16_5 C 0.0044(3) 0.6616(2) 0.89222(15)
H18_5 H 0.063(2) 0.408(2) 0.9986(18)
S4_3 S 0.16529(7) 0.87957(5) 0.75824(3)
O9_3 O 0.21656(19) 0.58609(14) 0.99325(10)
O10_3 O 0.14204(19) 0.50973(14) 0.93654(11)
S3_3 S 0.83017(7) 0.07800(5) 0.74909(3)
O5_3 O 0.71656(19) 0.08609(14) 0.99325(10)
O6_3 O 0.64204(19) 0.00973(14) 0.93654(11)
N1_5 N 0.9540(2) 0.14331(16) 0.82192(12)
C1_5 C 0.9066(3) 0.21744(19) 0.88742(14)
C3_5 C 0.8076(3) 0.03095(19) 0.93607(14)
C4_5 C 0.9758(3) 0.18501(19) 0.86318(14)
C6_5 C 0.8590(3) 0.13291(18) 0.80296(14)
C7_5 C 0.8967(3) 0.0529(2) 0.96169(14)
H7_5 H 0.9008 0.0753 0.9935
C8_5 C 0.9793(3) 0.0413(2) 0.93979(14)
C9_5 C 0.7848(3) 0.1625(2) 0.82619(15)
H9_5 H 0.7200 0.1535 0.8134
C10_5 C 0.8097(3) 0.2054(2) 0.86843(15)
H10_5 H 0.7615 0.2261 0.8840
C12_5 C 0.7149(3) 0.04257(19) 0.95674(14)
C14_5 C 0.9379(3) 0.2642(2) 0.93287(15)
C15_5 C 0.9703(3) 0.00909(19) 0.89139(14)
Cu5_3 Cu 0.94933(3) 0.07895(2) 0.701935(17)
Cu3_5 Cu 0.87295(3) 0.97495(2) 0.787084(17)
S2_3 S 0.83471(7) 0.87957(5) 0.74176(3)
O2_5 O 0.9819(2) 0.60035(14) 0.88597(10)
N2_5 N 0.9873(2) 0.43529(19) 0.87586(13)
C2_5 C 0.9623(3) 0.71248(19) 0.85187(14)
N3_5 N 0.9702(2) 0.82433(16) 0.81436(11)
N4_5 N 0.8837(2) 0.99025(15) 0.86496(12)
N5_5 N 0.8383(2) 0.50794(17) 0.91268(13)
H4_5 H 0.8767 0.4864 0.9363
H5_5 H 0.8075 0.5435 0.9208
C11_5 C 0.8366(3) 0.7502(2) 0.78376(16)
H11_5 H 0.7788 0.7425 0.7614
C13_5 C 0.8040(3) 0.99993(19) 0.88775(14)
H12_5 H 0.7443 0.9852 0.8704
C17_5 C 0.8760(3) 0.6998(2) 0.81818(16)
H13_5 H 0.8450 0.6577 0.8188
C18_5 C 0.8847(3) 0.81261(19) 0.78304(13)
C19_5 C 0.8251(3) 0.4838(2) 0.85810(17)
H14_5 H 0.7573 0.4731 0.8465
H15_5 H 0.8439 0.5197 0.8359
C20_5 C 0.8857(3) 0.4216(3) 0.85382(18)
H16_5 H 0.8815 0.4087 0.8175
H17_5 H 0.8613 0.3839 0.8723
Cu4_3 Cu 0.95267(3) 0.90978(2) 0.694592(18)
O5_4 O 0.28344(19) 0.08609(14) 0.50675(10)
O6_4 O 0.35796(19) 0.00973(14) 0.56346(11)
N1_6 N 0.0460(2) 0.14331(16) 0.67808(12)
C1_6 C 0.0934(3) 0.21744(19) 0.61258(14)
C3_6 C 0.1924(3) 0.03095(19) 0.56393(14)
C4_6 C 0.0242(3) 0.18501(19) 0.63682(14)
C6_6 C 0.1410(3) 0.13291(18) 0.69704(14)
C7_6 C 0.1033(3) 0.0529(2) 0.53831(14)
H7_6 H 0.0992 0.0753 0.5065
C8_6 C 0.0207(3) 0.0413(2) 0.56021(14)
C9_6 C 0.2152(3) 0.1625(2) 0.67381(15)
H9_6 H 0.2800 0.1535 0.6866
C10_6 C 0.1903(3) 0.2054(2) 0.63157(15)
H10_6 H 0.2385 0.2261 0.6160
C12_6 C 0.2851(3) 0.04257(19) 0.54326(14)
C14_6 C 0.0621(3) 0.2642(2) 0.56713(15)
C15_6 C 0.0297(3) 0.00909(19) 0.60861(14)
Cu3_6 Cu 0.12705(3) 0.97495(2) 0.712916(17)
O2_6 O 0.0181(2) 0.60035(14) 0.61403(10)
N2_6 N 0.0127(2) 0.43529(19) 0.62414(13)
C2_6 C 0.0377(3) 0.71248(19) 0.64813(14)
N3_6 N 0.0298(2) 0.82433(16) 0.68564(11)
N4_6 N 0.1163(2) 0.99025(15) 0.63504(12)
N5_6 N 0.1617(2) 0.50794(17) 0.58732(13)
H4_6 H 0.1233 0.4864 0.5637
H5_6 H 0.1925 0.5435 0.5792
C11_6 C 0.1634(3) 0.7502(2) 0.71624(16)
H11_6 H 0.2212 0.7425 0.7386
C13_6 C 0.1960(3) 0.99993(19) 0.61225(14)
H12_6 H 0.2557 0.9852 0.6296
C17_6 C 0.1240(3) 0.6998(2) 0.68182(16)
H13_6 H 0.1550 0.6577 0.6812
C18_6 C 0.1153(3) 0.81261(19) 0.71696(13)
C19_6 C 0.1749(3) 0.4838(2) 0.64190(17)
H14_6 H 0.2427 0.4731 0.6535
H15_6 H 0.1561 0.5197 0.6641
C20_6 C 0.1143(3) 0.4216(3) 0.64618(18)
H16_6 H 0.1185 0.4087 0.6825
H17_6 H 0.1387 0.3839 0.6277
O4_6 O 0.9752(2) 0.26803(16) 0.54748(12)
H3_6 H 0.9591 0.1925 0.6239
H8_6 H 0.9602 0.0547 0.5430
S1_6 S 0.92584(7) 0.99601(5) 0.63854(4)
O3_6 O 0.9387(2) 0.68678(14) 0.56943(10)
H1_6 H 0.9961 0.4749 0.6113
H2_6 H 0.9697 0.4037 0.6241
C5_6 C 0.9942(3) 0.7754(2) 0.65207(14)
H6_6 H 0.9365 0.7843 0.6300
C16_6 C 0.9956(3) 0.6616(2) 0.60778(15)
H18_6 H 0.937(2) 0.408(2) 0.5014(18)
O9_4 O 0.78344(19) 0.58609(14) 0.50675(10)
O10_4 O 0.85796(19) 0.50973(14) 0.56346(11)
Cu1_4 Cu 0.54733(3) 0.40978(2) 0.805408(18)
Cu2_4 Cu 0.55067(3) 0.57895(2) 0.798065(17)
Cu3_7 Cu 0.37295(3) 0.47495(2) 0.787084(17)
S1_7 S 0.57416(7) 0.49601(5) 0.86146(4)
S2_4 S 0.33471(7) 0.37957(5) 0.74176(3)
S3_4 S 0.33017(7) 0.57800(5) 0.74909(3)
O2_7 O 0.4819(2) 0.10035(14) 0.88597(10)
O3_7 O 0.5613(2) 0.18678(14) 0.93057(10)
O4_7 O 0.5248(2) 0.76803(16) 0.95252(12)
N1_7 N 0.4540(2) 0.64331(16) 0.82192(12)
C1_7 C 0.4066(3) 0.71744(19) 0.88742(14)
C2_7 C 0.4623(3) 0.21248(19) 0.85187(14)
N3_7 N 0.4702(2) 0.32433(16) 0.81436(11)
C3_7 C 0.3076(3) 0.53095(19) 0.93607(14)
N4_7 N 0.3837(2) 0.49025(15) 0.86496(12)
C4_7 C 0.4758(3) 0.68501(19) 0.86318(14)
H3_7 H 0.5409 0.6925 0.8761
N5_7 N 0.3383(2) 0.00794(17) 0.91268(13)
H5_7 H 0.3075 0.0435 0.9208
C5_7 C 0.5058(3) 0.2754(2) 0.84793(14)
H6_7 H 0.5635 0.2843 0.8700
C6_7 C 0.3590(3) 0.63291(18) 0.80296(14)
C7_7 C 0.3967(3) 0.5529(2) 0.96169(14)
H7_7 H 0.4008 0.5753 0.9935
C8_7 C 0.4793(3) 0.5413(2) 0.93979(14)
H8_7 H 0.5398 0.5547 0.9570
C9_7 C 0.2848(3) 0.6625(2) 0.82619(15)
H9_7 H 0.2200 0.6535 0.8134
C10_7 C 0.3097(3) 0.7054(2) 0.86843(15)
H10_7 H 0.2615 0.7261 0.8840
C11_7 C 0.3366(3) 0.2502(2) 0.78376(16)
H11_7 H 0.2788 0.2425 0.7614
C12_7 C 0.2149(3) 0.54257(19) 0.95674(14)
C13_7 C 0.3040(3) 0.49993(19) 0.88775(14)
H12_7 H 0.2443 0.4852 0.8704
C14_7 C 0.4379(3) 0.7642(2) 0.93287(15)
C15_7 C 0.4703(3) 0.50909(19) 0.89139(14)
C16_7 C 0.5044(3) 0.1616(2) 0.89222(15)
C17_7 C 0.3760(3) 0.1998(2) 0.81818(16)
H13_7 H 0.3450 0.1577 0.8188
C18_7 C 0.3847(3) 0.31261(19) 0.78304(13)
H15_7 H 0.3439 0.0197 0.8359
Cu4_4 Cu 0.45267(3) 0.40978(2) 0.694592(18)
Cu5_4 Cu 0.44933(3) 0.57895(2) 0.701935(17)
S4_4 S 0.66529(7) 0.37957(5) 0.75824(3)
S5_4 S 0.66983(7) 0.57800(5) 0.75091(3)
N2_7 N 0.4873(2) 0.93529(19) 0.87586(13)
H1_7 H 0.5039 0.9749 0.8887
H2_7 H 0.5303 0.9037 0.8759
H4_7 H 0.3767 0.9864 0.9363
C19_7 C 0.3251(3) 0.9838(2) 0.85810(17)
H14_7 H 0.2573 0.9731 0.8465
C20_7 C 0.3857(3) 0.9216(3) 0.85382(18)
H16_7 H 0.3815 0.9087 0.8175
H17_7 H 0.3613 0.8839 0.8723
H18_7 H 0.563(2) 0.908(2) 0.9986(18)
Cu3_8 Cu 0.62705(3) 0.47495(2) 0.712916(17)
S1_8 S 0.42584(7) 0.49601(5) 0.63854(4)
O2_8 O 0.5181(2) 0.10035(14) 0.61403(10)
O3_8 O 0.4387(2) 0.18678(14) 0.56943(10)
O4_8 O 0.4752(2) 0.76803(16) 0.54748(12)
N1_8 N 0.5460(2) 0.64331(16) 0.67808(12)
C1_8 C 0.5934(3) 0.71744(19) 0.61258(14)
C2_8 C 0.5377(3) 0.21248(19) 0.64813(14)
N3_8 N 0.5298(2) 0.32433(16) 0.68564(11)
C3_8 C 0.6924(3) 0.53095(19) 0.56393(14)
N4_8 N 0.6163(2) 0.49025(15) 0.63504(12)
C4_8 C 0.5242(3) 0.68501(19) 0.63682(14)
H3_8 H 0.4591 0.6925 0.6239
N5_8 N 0.6617(2) 0.00794(17) 0.58732(13)
H5_8 H 0.6925 0.0435 0.5792
C5_8 C 0.4942(3) 0.2754(2) 0.65207(14)
H6_8 H 0.4365 0.2843 0.6300
C6_8 C 0.6410(3) 0.63291(18) 0.69704(14)
C7_8 C 0.6033(3) 0.5529(2) 0.53831(14)
H7_8 H 0.5992 0.5753 0.5065
C8_8 C 0.5207(3) 0.5413(2) 0.56021(14)
H8_8 H 0.4602 0.5547 0.5430
C9_8 C 0.7152(3) 0.6625(2) 0.67381(15)
H9_8 H 0.7800 0.6535 0.6866
C10_8 C 0.6903(3) 0.7054(2) 0.63157(15)
H10_8 H 0.7385 0.7261 0.6160
C11_8 C 0.6634(3) 0.2502(2) 0.71624(16)
H11_8 H 0.7212 0.2425 0.7386
C12_8 C 0.7851(3) 0.54257(19) 0.54326(14)
C13_8 C 0.6960(3) 0.49993(19) 0.61225(14)
H12_8 H 0.7557 0.4852 0.6296
C14_8 C 0.5621(3) 0.7642(2) 0.56713(15)
C15_8 C 0.5297(3) 0.50909(19) 0.60861(14)
C16_8 C 0.4956(3) 0.1616(2) 0.60778(15)
C17_8 C 0.6240(3) 0.1998(2) 0.68182(16)
H13_8 H 0.6550 0.1577 0.6812
C18_8 C 0.6153(3) 0.31261(19) 0.71696(13)
H15_8 H 0.6561 0.0197 0.6641
N2_8 N 0.5127(2) 0.93529(19) 0.62414(13)
H1_8 H 0.4961 0.9749 0.6113
H2_8 H 0.4697 0.9037 0.6241
H4_8 H 0.6233 0.9864 0.5637
C19_8 C 0.6749(3) 0.9838(2) 0.64190(17)
H14_8 H 0.7427 0.9731 0.6535
C20_8 C 0.6143(3) 0.9216(3) 0.64618(18)
H16_8 H 0.6185 0.9087 0.6825
H17_8 H 0.6387 0.8839 0.6277
H18_8 H 0.437(2) 0.908(2) 0.5014(18)
loop_
_geom_bond_atom_site_label_1
_geom_bond_atom_site_label_2
_geom_bond_site_symmetry_1
_geom_bond_site_symmetry_2
Cu3 S2 1_555 1_555
S2 C18 1_555 1_555
O2 Zn1 1_555 1_555
N2 Zn1 1_555 1_555
N4 Cu3 1_555 1_555
N5 Zn1 1_555 1_555
H4 N5 1_555 1_555
H5 N5 1_555 1_555
C11 H11 1_555 1_555
H12 C13 1_555 1_555
C17 C2 1_555 1_555
H13 C17 1_555 1_555
C18 N3 1_555 1_555
C19 N5 1_555 1_555
H14 C19 1_555 1_555
H15 C19 1_555 1_555
C20 N2 1_555 1_555
H16 C20 1_555 1_555
H17 C20 1_555 1_555
Cu4 S2 1_555 1_555
N4 C13 1_555 1_555
C11 C17 1_555 1_555
C11 C18 1_555 1_555
C19 C20 1_555 1_555
O5 C12 1_555 1_555
O6 C12 1_555 1_555
O7 C14 1_555 1_555
C1 C4 1_555 1_555
C3 C7 1_555 1_555
C4 N1 1_555 1_555
C6 S3 1_555 1_555
C7 H7 1_555 1_555
C8 C7 1_555 1_555
C9 C6 1_555 1_555
H9 C9 1_555 1_555
C10 C1 1_555 1_555
H10 C10 1_555 1_555
C12 C3 1_555 1_555
C14 C1 1_555 1_555
Zn3 O6 1_555 1_555
Zn5 O5 1_555 1_555
S3 Cu5 1_555 1_555
N1 C6 1_555 1_555
C8 C15 1_555 1_555
C9 C10 1_555 1_555
Zn2 O3 1_555 1_555
S1 Cu1 1_555 1_555
O1 H18 1_555 1_555
O3 C16 1_555 1_555
H6 C5 1_555 1_555
S4 Cu1 1_555 1_555
O9 Zn2 1_555 1_555
S5 Cu2 1_555 1_555
Zn2_2 O3_2 1_555 1_555
S1_2 Cu4 1_555 1_555
O1_2 H18_2 1_555 1_555
O3_2 C16_2 1_555 1_555
H6_2 C5_2 1_555 1_555
Zn4_2 O1_2 1_555 1_555
O9_2 Zn2_2 1_555 1_555
O11_2 Zn2_2 1_555 1_555
Cu3_2 S4 1_555 1_555
S4 C18_2 1_555 1_555
O2_2 Zn1_2 1_555 1_555
N2_2 Zn1_2 1_555 1_555
N4_2 Cu3_2 1_555 1_555
N5_2 Zn1_2 1_555 1_555
H4_2 N5_2 1_555 1_555
H5_2 N5_2 1_555 1_555
C11_2 H11_2 1_555 1_555
H12_2 C13_2 1_555 1_555
C17_2 C2_2 1_555 1_555
H13_2 C17_2 1_555 1_555
C18_2 N3_2 1_555 1_555
C19_2 N5_2 1_555 1_555
H14_2 C19_2 1_555 1_555
H15_2 C19_2 1_555 1_555
C20_2 N2_2 1_555 1_555
H16_2 C20_2 1_555 1_555
H17_2 C20_2 1_555 1_555
O8_2 Zn1_2 1_555 1_555
N4_2 C13_2 1_555 1_555
C11_2 C17_2 1_555 1_555
C11_2 C18_2 1_555 1_555
C19_2 C20_2 1_555 1_555
O5_2 C12_2 1_555 1_555
O6_2 C12_2 1_555 1_555
O7_2 C14_2 1_555 1_555
C1_2 C4_2 1_555 1_555
C3_2 C7_2 1_555 1_555
C4_2 N1_2 1_555 1_555
C6_2 S5 1_555 1_555
C7_2 H7_2 1_555 1_555
C8_2 C7_2 1_555 1_555
C9_2 C6_2 1_555 1_555
H9_2 C9_2 1_555 1_555
C10_2 C1_2 1_555 1_555
H10_2 C10_2 1_555 1_555
C12_2 C3_2 1_555 1_555
C14_2 C1_2 1_555 1_555
Zn3_2 O6_2 1_555 1_555
Zn5_2 O5_2 1_555 1_555
Zn7_2 O7_2 1_555 1_555
N1_2 C6_2 1_555 1_555
C8_2 C15_2 1_555 1_555
C9_2 C10_2 1_555 1_555
O1_3 H18_3 1_555 1_555
H1_3 N2_3 1_555 1_555
H2_3 N2_3 1_555 1_555
H14_3 C19_3 1_555 1_555
C20_3 N2_3 1_555 1_555
H16_3 C20_3 1_555 1_555
H17_3 C20_3 1_555 1_555
C19_3 C20_3 1_555 1_555
Cu1_2 Cu3_3 1_555 1_555
Cu2_2 S1_3 1_555 1_555
Zn5 O3_3 1_555 1_555
Cu3_3 S2_2 1_555 1_555
S1_3 Cu1_2 1_555 1_555
S2_2 C18_3 1_555 1_555
S3_2 Cu3_3 1_555 1_555
O2_3 Zn3 1_555 1_555
O3_3 C16_3 1_555 1_555
O4_3 C14_3 1_555 1_555
O9 C12_3 1_555 1_555
O10 C12_3 1_555 1_555
O7_3 C14_3 1_555 1_555
N1_3 Cu2_2 1_555 1_555
C1_3 C4_3 1_555 1_555
C2_3 C5_3 1_555 1_555
N3_3 Cu1_2 1_555 1_555
C3_3 C7_3 1_555 1_555
N4_3 Cu3_3 1_555 1_555
C4_3 N1_3 1_555 1_555
H3_3 C4_3 1_555 1_555
N5_3 Zn3 1_555 1_555
H5_3 N5_3 1_555 1_555
C5_3 N3_3 1_555 1_555
H6_3 C5_3 1_555 1_555
C6_3 S3_2 1_555 1_555
C7_3 H7_3 1_555 1_555
C8_3 C7_3 1_555 1_555
H8_3 C8_3 1_555 1_555
C9_3 C6_3 1_555 1_555
H9_3 C9_3 1_555 1_555
C10_3 C1_3 1_555 1_555
H10_3 C10_3 1_555 1_555
C11_3 H11_3 1_555 1_555
C12_3 C3_3 1_555 1_555
C13_3 C3_3 1_555 1_555
H12_3 C13_3 1_555 1_555
C14_3 C1_3 1_555 1_555
C15_3 S1_3 1_555 1_555
C16_3 O2_3 1_555 1_555
C17_3 C2_3 1_555 1_555
H13_3 C17_3 1_555 1_555
C18_3 N3_3 1_555 1_555
Cu4_2 S2_2 1_555 1_555
Cu5_2 Cu2_2 1_555 1_555
S4_2 Cu1_2 1_555 1_555
S5_2 Cu2_2 1_555 1_555
S3_2 Cu5_2 1_555 1_555
N1_3 C6_3 1_555 1_555
C2_3 C16_3 1_555 1_555
N4_3 C13_3 1_555 1_555
N4_3 C15_3 1_555 1_555
C8_3 C15_3 1_555 1_555
C9_3 C10_3 1_555 1_555
C11_3 C17_3 1_555 1_555
C11_3 C18_3 1_555 1_555
O1_4 H18_4 1_555 1_555
H1_4 N2_4 1_555 1_555
H2_4 N2_4 1_555 1_555
H14_4 C19_4 1_555 1_555
C20_4 N2_4 1_555 1_555
H16_4 C20_4 1_555 1_555
H17_4 C20_4 1_555 1_555
Zn4_4 O1_4 1_555 1_555
Zn7_4 O1_4 1_555 1_555
C19_4 C20_4 1_555 1_555
Cu4_2 Cu3_4 1_555 1_555
Cu5_2 S1_4 1_555 1_555
Zn5_2 O3_4 1_555 1_555
Cu3_4 S4_2 1_555 1_555
S1_4 Cu4_2 1_555 1_555
S4_2 C18_4 1_555 1_555
S5_2 Cu3_4 1_555 1_555
O2_4 Zn3_2 1_555 1_555
O3_4 C16_4 1_555 1_555
O4_4 C14_4 1_555 1_555
O9_2 C12_4 1_555 1_555
O10_2 C12_4 1_555 1_555
O7_4 C14_4 1_555 1_555
N1_4 Cu5_2 1_555 1_555
C1_4 C4_4 1_555 1_555
C2_4 C5_4 1_555 1_555
N3_4 Cu4_2 1_555 1_555
C3_4 C7_4 1_555 1_555
N4_4 Cu3_4 1_555 1_555
C4_4 N1_4 1_555 1_555
H3_4 C4_4 1_555 1_555
N5_4 Zn3_2 1_555 1_555
H5_4 N5_4 1_555 1_555
C5_4 N3_4 1_555 1_555
H6_4 C5_4 1_555 1_555
C6_4 S5_2 1_555 1_555
C7_4 H7_4 1_555 1_555
C8_4 C7_4 1_555 1_555
H8_4 C8_4 1_555 1_555
C9_4 C6_4 1_555 1_555
H9_4 C9_4 1_555 1_555
C10_4 C1_4 1_555 1_555
H10_4 C10_4 1_555 1_555
C11_4 H11_4 1_555 1_555
C12_4 C3_4 1_555 1_555
C13_4 C3_4 1_555 1_555
H12_4 C13_4 1_555 1_555
C14_4 C1_4 1_555 1_555
C15_4 S1_4 1_555 1_555
C16_4 O2_4 1_555 1_555
C17_4 C2_4 1_555 1_555
H13_4 C17_4 1_555 1_555
C18_4 N3_4 1_555 1_555
Zn7_4 O7_4 1_555 1_555
O8_4 Zn3_2 1_555 1_555
O11_4 Zn5_2 1_555 1_555
Zn5_2 O8_4 1_555 1_555
N1_4 C6_4 1_555 1_555
C2_4 C16_4 1_555 1_555
N4_4 C13_4 1_555 1_555
N4_4 C15_4 1_555 1_555
C8_4 C15_4 1_555 1_555
C9_4 C10_4 1_555 1_555
C11_4 C17_4 1_555 1_555
C11_4 C18_4 1_555 1_555
S5_3 Cu2_3 1_555 1_555
Zn7 O3_5 1_555 1_555
S1_5 Cu1_3 1_555 1_555
O8 H18_5 1_555 1_555
O3_5 C16_5 1_555 1_555
H6_5 C5_5 1_555 1_555
S4_3 Cu1_3 1_555 1_555
O9_3 Zn7 1_555 1_555
O5_3 C12_5 1_555 1_555
O6_3 C12_5 1_555 1_555
O11 C14_5 1_555 1_555
C1_5 C4_5 1_555 1_555
C3_5 C7_5 1_555 1_555
C4_5 N1_5 1_555 1_555
C6_5 S3_3 1_555 1_555
C7_5 H7_5 1_555 1_555
C8_5 C7_5 1_555 1_555
C9_5 C6_5 1_555 1_555
H9_5 C9_5 1_555 1_555
C10_5 C1_5 1_555 1_555
H10_5 C10_5 1_555 1_555
C12_5 C3_5 1_555 1_555
C14_5 C1_5 1_555 1_555
Zn4_3 O6_3 1_555 1_555
Zn7_3 O5_3 1_555 1_555
S3_3 Cu5_3 1_555 1_555
N1_5 C6_5 1_555 1_555
C8_5 C15_5 1_555 1_555
C9_5 C10_5 1_555 1_555
Cu3_5 S2_3 1_555 1_555
S2_3 C18_5 1_555 1_555
O2_5 Zn4 1_555 1_555
N2_5 Zn4 1_555 1_555
N4_5 Cu3_5 1_555 1_555
N5_5 Zn4 1_555 1_555
H4_5 N5_5 1_555 1_555
H5_5 N5_5 1_555 1_555
C11_5 H11_5 1_555 1_555
H12_5 C13_5 1_555 1_555
C17_5 C2_5 1_555 1_555
H13_5 C17_5 1_555 1_555
C18_5 N3_5 1_555 1_555
C19_5 N5_5 1_555 1_555
H14_5 C19_5 1_555 1_555
H15_5 C19_5 1_555 1_555
C20_5 N2_5 1_555 1_555
H16_5 C20_5 1_555 1_555
H17_5 C20_5 1_555 1_555
Cu4_3 S2_3 1_555 1_555
N4_5 C13_5 1_555 1_555
C11_5 C17_5 1_555 1_555
C11_5 C18_5 1_555 1_555
C19_5 C20_5 1_555 1_555
O5_4 C12_6 1_555 1_555
O6_4 C12_6 1_555 1_555
O11_2 C14_6 1_555 1_555
C1_6 C4_6 1_555 1_555
C3_6 C7_6 1_555 1_555
C4_6 N1_6 1_555 1_555
C6_6 S5_3 1_555 1_555
C7_6 H7_6 1_555 1_555
C8_6 C7_6 1_555 1_555
C9_6 C6_6 1_555 1_555
H9_6 C9_6 1_555 1_555
C10_6 C1_6 1_555 1_555
H10_6 C10_6 1_555 1_555
C12_6 C3_6 1_555 1_555
C14_6 C1_6 1_555 1_555
Zn4_4 O6_4 1_555 1_555
Zn7_4 O5_4 1_555 1_555
N1_6 C6_6 1_555 1_555
C8_6 C15_6 1_555 1_555
C9_6 C10_6 1_555 1_555
Cu3_6 S4_3 1_555 1_555
S4_3 C18_6 1_555 1_555
O2_6 Zn4_2 1_555 1_555
N2_6 Zn4_2 1_555 1_555
N4_6 Cu3_6 1_555 1_555
N5_6 Zn4_2 1_555 1_555
H4_6 N5_6 1_555 1_555
H5_6 N5_6 1_555 1_555
C11_6 H11_6 1_555 1_555
H12_6 C13_6 1_555 1_555
C17_6 C2_6 1_555 1_555
H13_6 C17_6 1_555 1_555
C18_6 N3_6 1_555 1_555
C19_6 N5_6 1_555 1_555
H14_6 C19_6 1_555 1_555
H15_6 C19_6 1_555 1_555
C20_6 N2_6 1_555 1_555
H16_6 C20_6 1_555 1_555
H17_6 C20_6 1_555 1_555
N4_6 C13_6 1_555 1_555
C11_6 C17_6 1_555 1_555
C11_6 C18_6 1_555 1_555
C19_6 C20_6 1_555 1_555
Zn7_2 O3_6 1_555 1_555
S1_6 Cu4_3 1_555 1_555
O8_2 H18_6 1_555 1_555
O3_6 C16_6 1_555 1_555
H6_6 C5_6 1_555 1_555
O9_4 Zn7_2 1_555 1_555
Cu1_4 Cu3_7 1_555 1_555
Cu2_4 S1_7 1_555 1_555
Zn7_3 O3_7 1_555 1_555
Cu3_7 S2_4 1_555 1_555
S1_7 Cu1_4 1_555 1_555
S2_4 C18_7 1_555 1_555
S3_4 Cu3_7 1_555 1_555
O2_7 Zn4_3 1_555 1_555
O3_7 C16_7 1_555 1_555
O4_7 C14_7 1_555 1_555
O9_3 C12_7 1_555 1_555
O10_3 C12_7 1_555 1_555
O11_3 C14_7 1_555 1_555
N1_7 Cu2_4 1_555 1_555
C1_7 C4_7 1_555 1_555
C2_7 C5_7 1_555 1_555
N3_7 Cu1_4 1_555 1_555
C3_7 C7_7 1_555 1_555
N4_7 Cu3_7 1_555 1_555
C4_7 N1_7 1_555 1_555
H3_7 C4_7 1_555 1_555
N5_7 Zn4_3 1_555 1_555
H5_7 N5_7 1_555 1_555
C5_7 N3_7 1_555 1_555
H6_7 C5_7 1_555 1_555
C6_7 S3_4 1_555 1_555
C7_7 H7_7 1_555 1_555
C8_7 C7_7 1_555 1_555
H8_7 C8_7 1_555 1_555
C9_7 C6_7 1_555 1_555
H9_7 C9_7 1_555 1_555
C10_7 C1_7 1_555 1_555
H10_7 C10_7 1_555 1_555
C11_7 H11_7 1_555 1_555
C12_7 C3_7 1_555 1_555
C13_7 C3_7 1_555 1_555
H12_7 C13_7 1_555 1_555
C14_7 C1_7 1_555 1_555
C15_7 S1_7 1_555 1_555
C16_7 O2_7 1_555 1_555
C17_7 C2_7 1_555 1_555
H13_7 C17_7 1_555 1_555
C18_7 N3_7 1_555 1_555
Cu4_4 S2_4 1_555 1_555
Cu5_4 Cu2_4 1_555 1_555
S4_4 Cu1_4 1_555 1_555
S5_4 Cu2_4 1_555 1_555
S3_4 Cu5_4 1_555 1_555
N1_7 C6_7 1_555 1_555
C2_7 C16_7 1_555 1_555
N4_7 C13_7 1_555 1_555
N4_7 C15_7 1_555 1_555
C8_7 C15_7 1_555 1_555
C9_7 C10_7 1_555 1_555
C11_7 C17_7 1_555 1_555
C11_7 C18_7 1_555 1_555
O8_3 H18_7 1_555 1_555
H1_7 N2_7 1_555 1_555
H2_7 N2_7 1_555 1_555
H14_7 C19_7 1_555 1_555
C20_7 N2_7 1_555 1_555
H16_7 C20_7 1_555 1_555
H17_7 C20_7 1_555 1_555
C19_7 C20_7 1_555 1_555
Cu4_4 Cu3_8 1_555 1_555
Cu5_4 S1_8 1_555 1_555
Zn7_4 O3_8 1_555 1_555
Cu3_8 S4_4 1_555 1_555
S1_8 Cu4_4 1_555 1_555
S4_4 C18_8 1_555 1_555
S5_4 Cu3_8 1_555 1_555
O2_8 Zn4_4 1_555 1_555
O3_8 C16_8 1_555 1_555
O4_8 C14_8 1_555 1_555
O9_4 C12_8 1_555 1_555
O10_4 C12_8 1_555 1_555
O11_4 C14_8 1_555 1_555
N1_8 Cu5_4 1_555 1_555
C1_8 C4_8 1_555 1_555
C2_8 C5_8 1_555 1_555
N3_8 Cu4_4 1_555 1_555
C3_8 C7_8 1_555 1_555
N4_8 Cu3_8 1_555 1_555
C4_8 N1_8 1_555 1_555
H3_8 C4_8 1_555 1_555
N5_8 Zn4_4 1_555 1_555
H5_8 N5_8 1_555 1_555
C5_8 N3_8 1_555 1_555
H6_8 C5_8 1_555 1_555
C6_8 S5_4 1_555 1_555
C7_8 H7_8 1_555 1_555
C8_8 C7_8 1_555 1_555
H8_8 C8_8 1_555 1_555
C9_8 C6_8 1_555 1_555
H9_8 C9_8 1_555 1_555
C10_8 C1_8 1_555 1_555
H10_8 C10_8 1_555 1_555
C11_8 H11_8 1_555 1_555
C12_8 C3_8 1_555 1_555
C13_8 C3_8 1_555 1_555
H12_8 C13_8 1_555 1_555
C14_8 C1_8 1_555 1_555
C15_8 S1_8 1_555 1_555
C16_8 O2_8 1_555 1_555
C17_8 C2_8 1_555 1_555
H13_8 C17_8 1_555 1_555
C18_8 N3_8 1_555 1_555
N1_8 C6_8 1_555 1_555
C2_8 C16_8 1_555 1_555
N4_8 C13_8 1_555 1_555
N4_8 C15_8 1_555 1_555
C8_8 C15_8 1_555 1_555
C9_8 C10_8 1_555 1_555
C11_8 C17_8 1_555 1_555
C11_8 C18_8 1_555 1_555
O8_4 H18_8 1_555 1_555
H1_8 N2_8 1_555 1_555
H2_8 N2_8 1_555 1_555
H14_8 C19_8 1_555 1_555
C20_8 N2_8 1_555 1_555
H16_8 C20_8 1_555 1_555
H17_8 C20_8 1_555 1_555
C19_8 C20_8 1_555 1_555

#END
