
###############################################################################
#
# This file contains modified crystal structure data generated from the
# MOF subset of the Cambridge Structural Database (CSD) v543 
# hosted by the Cambridge Crystallographic Data Centre (CCDC).
#
# This work is licensed under the Creative Commons
# Attribution-NonCommercial-ShareAlike 4.0 International License.
# To view a copy of this license, visit
# http://creativecommons.org/licenses/by-nc-sa/4.0/
# or send a letter to
# Creative Commons, PO Box 1866, Mountain View, CA 94042, USA.
#
# CIF created using the CSD Python API on 29 September 2022
# The structure has been converted into the P1 space group
# The structure has a 3D framework
# The original CSD entry BECSUA is in the monoclinic crystal system
# The framework has been calculated to contain at least 10.0% void space
# The void calculation uses a probe of radius 1.32A, grid spacing 0.4
#
###############################################################################

data_BECSUA
_chemical_formula_moiety         '(C416 H272 N16 O80 Zn16)n'
_symmetry_cell_setting           triclinic
_symmetry_space_group_name_H-M   'P 1'
_symmetry_Int_Tables_number      1
_space_group_name_Hall           'P 1'
loop_
_symmetry_equiv_pos_site_id
_symmetry_equiv_pos_as_xyz
1 x,y,z
_cell_length_a                   32.751(3)
_cell_length_b                   15.5441(10)
_cell_length_c                   24.2564(16)
_cell_angle_alpha                90
_cell_angle_beta                 103.953(8)
_cell_angle_gamma                90
_cell_volume                     11984.2
loop_
_atom_site_label
_atom_site_type_symbol
_atom_site_fract_x
_atom_site_fract_y
_atom_site_fract_z
O5 O 0.19534(14) 0.2003(3) 0.03427(18)
O6 O 0.24894(12) 0.1124(3) 0.03482(17)
C3 C 0.09891(19) 0.4999(4) 0.0051(3)
C4 C 0.10597(19) 0.4250(4) 0.0373(3)
H3 H 0.0887 0.4110 0.0612
C5 C 0.13874(19) 0.3716(4) 0.0335(2)
H4 H 0.1433 0.3222 0.0558
C6 C 0.0652(2) 0.5620(5) 0.0082(3)
C7 C 0.0401(2) 0.5569(5) 0.0424(3)
H6 H 0.0430 0.5092 0.0662
C8 C 0.0071(2) 0.6209(5) 0.0466(3)
H12 H 0.0089 0.4991 0.1252
C25 C 0.21472(19) 0.1310(4) 0.0461(2)
C26 C 0.19524(18) 0.0638(4) 0.0774(2)
C30 C 0.1431(2) 0.0241(5) 0.1284(3)
H21 H 0.1195 0.0367 0.1419
C31 C 0.1601(2) 0.0858(5) 0.0977(3)
H22 H 0.1482 0.1403 0.0910
Zn5 Zn 0.28626(2) 0.19107(4) 0.00134(2)
O16 O 0.25095(14) 0.3354(3) 0.07872(16)
Zn1 Zn 0.21374(2) 0.30893(4) 0.99866(2)
N1 N 0.16453(14) 0.3881(3) 0.99895(18)
C1 C 0.1573(2) 0.4600(5) 0.9693(3)
H1 H 0.1750 0.4733 0.9458
C2 C 0.1257(2) 0.5164(5) 0.9709(3)
H2 H 0.1223 0.5659 0.9487
H5 H 0.0617 0.6087 0.9836
H7 H 0.0149 0.6965 0.9845
O14 O 0.25106(12) 0.3876(3) 0.96518(17)
O15 O 0.19450(14) 0.2534(3) 0.91944(16)
O7 O 0.19450(14) 0.7466(3) 0.41944(16)
O8 O 0.24905(14) 0.8354(3) 0.42128(16)
O9 O 0.14338(15) 0.8833(3) 0.16647(16)
C27 C 0.2121(2) 0.9822(4) 0.0866(2)
H19 H 0.2349 0.9673 0.0720
C28 C 0.1957(2) 0.9231(4) 0.1169(2)
H20 H 0.2072 0.8683 0.1233
C29 C 0.1620(2) 0.9455(5) 0.1378(2)
C32 C 0.1625(2) 0.8668(4) 0.2231(2)
C33 C 0.1448(2) 0.8018(5) 0.2477(3)
H23 H 0.1218 0.7715 0.2267
C34 C 0.1618(2) 0.7821(5) 0.3045(2)
H24 H 0.1495 0.7387 0.3215
C35 C 0.19593(18) 0.8248(4) 0.3359(2)
C36 C 0.2127(2) 0.8891(4) 0.3101(2)
H25 H 0.2356 0.9197 0.3311
C37 C 0.1969(2) 0.9099(5) 0.2543(2)
H26 H 0.2094 0.9531 0.2376
C38 C 0.2151(2) 0.8008(4) 0.3975(2)
Zn3 Zn 0.28626(2) 0.80893(4) 0.50134(2)
Zn4 Zn 0.21374(2) 0.69107(4) 0.49866(2)
O5_2 O 0.30466(14) 0.7003(3) 0.46573(18)
O6_2 O 0.25106(12) 0.6124(3) 0.46518(17)
O7_2 O 0.30550(14) 0.2466(3) 0.08056(16)
O9_2 O 0.35662(15) 0.3833(3) 0.33353(16)
N1_2 N 0.33547(14) 0.8881(3) 0.50105(18)
C1_2 C 0.3427(2) 0.9600(5) 0.5307(3)
H1_2 H 0.3250 0.9733 0.5542
C3_2 C 0.40109(19) 0.9999(4) 0.4949(3)
C4_2 C 0.39403(19) 0.9250(4) 0.4627(3)
H3_2 H 0.4113 0.9110 0.4388
C5_2 C 0.36126(19) 0.8716(4) 0.4665(2)
H4_2 H 0.3567 0.8222 0.4442
H11 H 0.5335 0.9826 0.3137
H12_2 H 0.4911 0.9991 0.3748
C25_2 C 0.28528(19) 0.6310(4) 0.4539(2)
C26_2 C 0.30476(18) 0.5638(4) 0.4226(2)
C27_2 C 0.2879(2) 0.4822(4) 0.4134(2)
H19_2 H 0.2651 0.4673 0.4280
C28_2 C 0.3043(2) 0.4231(4) 0.3831(2)
H20_2 H 0.2928 0.3683 0.3767
C29_2 C 0.3380(2) 0.4455(5) 0.3622(2)
C30_2 C 0.3569(2) 0.5241(5) 0.3716(3)
H21_2 H 0.3805 0.5367 0.3581
C31_2 C 0.3399(2) 0.5858(5) 0.4023(3)
H22_2 H 0.3518 0.6403 0.4090
C32_2 C 0.3375(2) 0.3668(4) 0.2769(2)
C33_2 C 0.3552(2) 0.3018(5) 0.2523(3)
H23_2 H 0.3782 0.2715 0.2733
C34_2 C 0.3382(2) 0.2821(5) 0.1955(2)
H24_2 H 0.3505 0.2387 0.1785
C35_2 C 0.30407(18) 0.3248(4) 0.1641(2)
C36_2 C 0.2873(2) 0.3891(4) 0.1899(2)
H25_2 H 0.2644 0.4197 0.1689
C37_2 C 0.3031(2) 0.4099(5) 0.2457(2)
H26_2 H 0.2906 0.4531 0.2624
C38_2 C 0.2849(2) 0.3008(4) 0.1025(2)
O14_2 O 0.24894(12) 0.8876(3) 0.53482(17)
O15_2 O 0.30550(14) 0.7534(3) 0.58056(16)
O8_2 O 0.24905(14) 0.1646(3) 0.92128(16)
O9_3 O 0.14338(15) 0.1167(3) 0.66647(16)
C27_3 C 0.2121(2) 0.0178(4) 0.5866(2)
H19_3 H 0.2349 0.0327 0.5720
C28_3 C 0.1957(2) 0.0769(4) 0.6169(2)
H20_3 H 0.2072 0.1317 0.6233
C29_3 C 0.1620(2) 0.0545(5) 0.6378(2)
C32_3 C 0.1625(2) 0.1332(4) 0.7231(2)
C33_3 C 0.1448(2) 0.1982(5) 0.7477(3)
H23_3 H 0.1218 0.2285 0.7267
C34_3 C 0.1618(2) 0.2179(5) 0.8045(2)
H24_3 H 0.1495 0.2613 0.8215
C35_3 C 0.19593(18) 0.1752(4) 0.8359(2)
C36_3 C 0.2127(2) 0.1109(4) 0.8101(2)
H25_3 H 0.2356 0.0803 0.8311
C37_3 C 0.1969(2) 0.0901(5) 0.7543(2)
H26_3 H 0.2094 0.0469 0.7376
C38_3 C 0.2151(2) 0.1992(4) 0.8975(2)
O5_3 O 0.19534(14) 0.7997(3) 0.53427(18)
N1_3 N 0.16453(14) 0.6119(3) 0.49895(18)
C1_3 C 0.1573(2) 0.5400(5) 0.4693(3)
H1_3 H 0.1750 0.5267 0.4458
C2_2 C 0.1257(2) 0.4836(5) 0.4709(3)
H2_2 H 0.1223 0.4341 0.4487
C3_3 C 0.09891(19) 0.5001(4) 0.5051(3)
C4_3 C 0.10597(19) 0.5750(4) 0.5373(3)
H3_3 H 0.0887 0.5890 0.5612
C5_3 C 0.13874(19) 0.6284(4) 0.5335(2)
H4_3 H 0.1433 0.6778 0.5558
C6_2 C 0.0652(2) 0.4380(5) 0.5082(3)
H5_2 H 0.0617 0.3913 0.4836
C7_2 C 0.0401(2) 0.4431(5) 0.5424(3)
H6_2 H 0.0430 0.4908 0.5662
C8_2 C 0.0071(2) 0.3791(5) 0.5466(3)
H7_2 H 0.0149 0.3035 0.4845
H12_3 H 0.0089 0.5009 0.6252
C25_3 C 0.21472(19) 0.8690(4) 0.5461(2)
C26_3 C 0.19524(18) 0.9362(4) 0.5774(2)
C30_3 C 0.1431(2) 0.9759(5) 0.6284(3)
H21_3 H 0.1195 0.9633 0.6419
C31_3 C 0.1601(2) 0.9142(5) 0.5977(3)
H22_3 H 0.1482 0.8597 0.5910
O16_2 O 0.25095(14) 0.6646(3) 0.57872(16)
N1_4 N 0.33547(14) 0.1119(3) 0.00105(18)
C1_4 C 0.3427(2) 0.0400(5) 0.0307(3)
H1_4 H 0.3250 0.0267 0.0542
O5_4 O 0.30466(14) 0.2997(3) 0.96573(18)
O9_4 O 0.35662(15) 0.6167(3) 0.83353(16)
C3_4 C 0.40109(19) 0.0001(4) 0.9949(3)
C4_4 C 0.39403(19) 0.0750(4) 0.9627(3)
H3_4 H 0.4113 0.0890 0.9388
C5_4 C 0.36126(19) 0.1284(4) 0.9665(2)
H4_4 H 0.3567 0.1778 0.9442
H11_2 H 0.5335 0.0174 0.8137
H12_4 H 0.4911 0.0009 0.8748
C25_4 C 0.28528(19) 0.3690(4) 0.9539(2)
C26_4 C 0.30476(18) 0.4362(4) 0.9226(2)
C27_4 C 0.2879(2) 0.5178(4) 0.9134(2)
H19_4 H 0.2651 0.5327 0.9280
C28_4 C 0.3043(2) 0.5769(4) 0.8831(2)
H20_4 H 0.2928 0.6317 0.8767
C29_4 C 0.3380(2) 0.5545(5) 0.8622(2)
C30_4 C 0.3569(2) 0.4759(5) 0.8716(3)
H21_4 H 0.3805 0.4633 0.8581
C31_4 C 0.3399(2) 0.4142(5) 0.9023(3)
H22_4 H 0.3518 0.3597 0.9090
C32_4 C 0.3375(2) 0.6332(4) 0.7769(2)
C33_4 C 0.3552(2) 0.6982(5) 0.7523(3)
H23_4 H 0.3782 0.7285 0.7733
C34_4 C 0.3382(2) 0.7179(5) 0.6955(2)
H24_4 H 0.3505 0.7613 0.6785
C35_4 C 0.30407(18) 0.6752(4) 0.6641(2)
C36_4 C 0.2873(2) 0.6109(4) 0.6899(2)
H25_4 H 0.2644 0.5803 0.6689
C37_4 C 0.3031(2) 0.5901(5) 0.7457(2)
H26_4 H 0.2906 0.5469 0.7624
C38_4 C 0.2849(2) 0.6992(4) 0.6025(2)
Zn2 Zn 0.79803(2) 0.20818(4) 0.04622(3)
O3 O 0.74792(14) 0.1466(3) 0.0561(2)
O4 O 0.69895(14) 0.2465(3) 0.02770(16)
O10 O 0.61192(15) 0.0405(4) 0.1913(2)
N2 N 0.83586(14) 0.1033(3) 0.04798(19)
C21 C 0.8968(2) 0.0464(5) 0.0268(3)
H15 H 0.9205 0.0563 0.0128
C22 C 0.8701(2) 0.1107(4) 0.0283(3)
H16 H 0.8759 0.1640 0.0145
C23 C 0.82705(18) 0.0244(4) 0.0651(2)
H17 H 0.8025 0.0164 0.0773
C39 C 0.7125(2) 0.1810(4) 0.0557(2)
C40 C 0.68669(18) 0.1422(4) 0.0914(2)
C41 C 0.65155(18) 0.1846(4) 0.1001(2)
H27 H 0.6437 0.2369 0.0820
C42 C 0.6284(2) 0.1514(5) 0.1344(2)
H28 H 0.6057 0.1820 0.1412
C43 C 0.6386(2) 0.0717(6) 0.1592(3)
C44 C 0.6725(2) 0.0256(5) 0.1499(3)
C45 C 0.6968(2) 0.0622(5) 0.1164(3)
H30 H 0.7201 0.0327 0.1106
H34 H 0.6822 0.0428 0.2687
O11 O 0.7967(2) 0.3097(5) 0.0979(3)
O12 O 0.8624(3) 0.2746(5) 0.1049(3)
Zn7 Zn 0.70197(2) 0.29182(4) 0.95378(3)
O13 O 0.80105(14) 0.2535(3) 0.97230(16)
O1 O 0.7033(2) 0.8097(5) 0.4021(3)
O2 O 0.6376(3) 0.7746(5) 0.3951(3)
C9 C 0.9993(3) 0.6899(6) 0.0115(4)
C10 C 0.9690(3) 0.7509(5) 0.0138(4)
C11 C 0.9456(2) 0.7443(5) 0.0537(3)
C12 C 0.9516(2) 0.6724(5) 0.0912(3)
C13 C 0.9272(3) 0.6609(7) 0.1308(4)
H9 H 0.9060 0.7001 0.1320
C14 C 0.9341(4) 0.5934(8) 0.1673(5)
H10 H 0.9191 0.5888 0.1951
C15 C 0.9636(4) 0.5311(8) 0.1632(5)
H11_3 H 0.9665 0.4826 0.1863
C16 C 0.9883(3) 0.5398(6) 0.1259(3)
C17 C 0.98269(19) 0.6106(4) 0.0880(3)
C18 C 0.9138(2) 0.8131(5) 0.0558(3)
H13 H 0.8893 0.7972 0.0663
C19 C 0.9186(2) 0.8942(5) 0.0438(3)
H14 H 0.9429 0.9083 0.0326
C20 C 0.88969(19) 0.9645(4) 0.0462(3)
C24 C 0.85318(18) 0.9557(4) 0.0651(2)
H18 H 0.8464 0.9025 0.0780
H29 H 0.6789 0.9713 0.1658
C46 C 0.6269(2) 0.9888(6) 0.2376(3)
C47 C 0.5993(2) 0.9250(6) 0.2469(3)
H31 H 0.5731 0.9188 0.2219
C48 C 0.6110(3) 0.8716(5) 0.2930(3)
H32 H 0.5925 0.8300 0.2998
C49 C 0.6512(2) 0.8798(5) 0.3299(3)
C50 C 0.6779(3) 0.9421(7) 0.3206(3)
H33 H 0.7046 0.9476 0.3446
C51 C 0.6646(3) 0.9983(7) 0.2741(3)
C52 C 0.6654(4) 0.8155(6) 0.3798(3)
Zn6 Zn 0.70197(2) 0.70818(4) 0.45378(3)
O3_2 O 0.75208(14) 0.6466(3) 0.4439(2)
O4_2 O 0.80105(14) 0.7465(3) 0.47230(16)
O10_2 O 0.88808(15) 0.5405(4) 0.3087(2)
N2_2 N 0.66414(14) 0.6033(3) 0.45202(19)
C2_3 C 0.3743(2) 0.0164(5) 0.5291(3)
H2_3 H 0.3777 0.0659 0.5513
C6_3 C 0.4348(2) 0.0620(5) 0.4918(3)
H5_3 H 0.4383 0.1087 0.5164
C7_3 C 0.4599(2) 0.0569(5) 0.4576(3)
H6_3 H 0.4570 0.0092 0.4338
C8_3 C 0.4929(2) 0.1209(5) 0.4534(3)
C9_2 C 0.5007(3) 0.1899(6) 0.4885(4)
H7_3 H 0.4851 0.1965 0.5155
C10_2 C 0.5310(3) 0.2509(5) 0.4862(4)
H8 H 0.5356 0.2966 0.5117
C11_2 C 0.5544(2) 0.2443(5) 0.4463(3)
C12_2 C 0.5484(2) 0.1724(5) 0.4088(3)
C13_2 C 0.5728(3) 0.1609(7) 0.3692(4)
H9_2 H 0.5940 0.2001 0.3680
C14_2 C 0.5659(4) 0.0934(8) 0.3327(5)
H10_2 H 0.5809 0.0888 0.3049
C15_2 C 0.5364(4) 0.0311(8) 0.3368(5)
C16_2 C 0.5117(3) 0.0398(6) 0.3741(3)
C17_2 C 0.51731(19) 0.1106(4) 0.4120(3)
C18_2 C 0.5862(2) 0.3131(5) 0.4442(3)
H13_2 H 0.6107 0.2972 0.4337
C19_2 C 0.5814(2) 0.3942(5) 0.4562(3)
H14_2 H 0.5571 0.4083 0.4674
C20_2 C 0.61031(19) 0.4645(4) 0.4538(3)
C21_2 C 0.6032(2) 0.5464(5) 0.4732(3)
H15_2 H 0.5795 0.5563 0.4872
C22_2 C 0.6299(2) 0.6107(4) 0.4717(3)
H16_2 H 0.6241 0.6640 0.4855
C23_2 C 0.67295(18) 0.5244(4) 0.4349(2)
H17_2 H 0.6975 0.5164 0.4227
C24_2 C 0.64682(18) 0.4557(4) 0.4349(2)
H18_2 H 0.6536 0.4025 0.4220
C39_2 C 0.7875(2) 0.6810(4) 0.4443(2)
C40_2 C 0.81331(18) 0.6422(4) 0.4086(2)
C41_2 C 0.84845(18) 0.6846(4) 0.3999(2)
H27_2 H 0.8563 0.7369 0.4180
C42_2 C 0.8716(2) 0.6514(5) 0.3656(2)
H28_2 H 0.8943 0.6820 0.3588
C43_2 C 0.8614(2) 0.5717(6) 0.3408(3)
C44_2 C 0.8275(2) 0.5256(5) 0.3501(3)
H29_2 H 0.8211 0.4713 0.3342
C45_2 C 0.8032(2) 0.5622(5) 0.3836(3)
H30_2 H 0.7799 0.5327 0.3894
C46_2 C 0.8731(2) 0.4888(6) 0.2624(3)
C47_2 C 0.9007(2) 0.4250(6) 0.2531(3)
H31_2 H 0.9269 0.4188 0.2781
C48_2 C 0.8890(3) 0.3716(5) 0.2070(3)
H32_2 H 0.9075 0.3300 0.2002
C49_2 C 0.8488(2) 0.3798(5) 0.1701(3)
C50_2 C 0.8221(3) 0.4421(7) 0.1794(3)
H33_2 H 0.7954 0.4476 0.1554
C51_2 C 0.8354(3) 0.4983(7) 0.2259(3)
H34_2 H 0.8178 0.5428 0.2313
C52_2 C 0.8346(4) 0.3155(6) 0.1202(3)
Zn7_2 Zn 0.79803(2) 0.79182(4) 0.54622(3)
O13_2 O 0.69895(14) 0.7535(3) 0.52770(16)
O1_2 O 0.7033(2) 0.1903(5) 0.9021(3)
O2_2 O 0.6376(3) 0.2254(5) 0.8951(3)
C9_3 C 0.9993(3) 0.3101(6) 0.5115(4)
C10_3 C 0.9690(3) 0.2491(5) 0.5138(4)
H8_2 H 0.9644 0.2034 0.4883
C11_3 C 0.9456(2) 0.2557(5) 0.5537(3)
C12_3 C 0.9516(2) 0.3276(5) 0.5912(3)
C13_3 C 0.9272(3) 0.3391(7) 0.6308(4)
H9_3 H 0.9060 0.2999 0.6320
C14_3 C 0.9341(4) 0.4066(8) 0.6673(5)
H10_3 H 0.9191 0.4112 0.6951
C15_3 C 0.9636(4) 0.4689(8) 0.6632(5)
H11_4 H 0.9665 0.5174 0.6863
C16_3 C 0.9883(3) 0.4602(6) 0.6259(3)
C17_3 C 0.98269(19) 0.3894(4) 0.5880(3)
C18_3 C 0.9138(2) 0.1869(5) 0.5558(3)
H13_3 H 0.8893 0.2028 0.5663
C19_3 C 0.9186(2) 0.1058(5) 0.5438(3)
H14_3 H 0.9429 0.0917 0.5326
C20_3 C 0.88969(19) 0.0355(4) 0.5462(3)
C24_3 C 0.85318(18) 0.0443(4) 0.5651(2)
H18_3 H 0.8464 0.0975 0.5780
H29_3 H 0.6789 0.0287 0.6658
C46_3 C 0.6269(2) 0.0112(6) 0.7376(3)
C47_3 C 0.5993(2) 0.0750(6) 0.7469(3)
H31_3 H 0.5731 0.0812 0.7219
C48_3 C 0.6110(3) 0.1284(5) 0.7930(3)
H32_3 H 0.5925 0.1700 0.7998
C49_3 C 0.6512(2) 0.1202(5) 0.8299(3)
C50_3 C 0.6779(3) 0.0579(7) 0.8206(3)
H33_3 H 0.7046 0.0524 0.8446
C51_3 C 0.6646(3) 0.0017(7) 0.7741(3)
C52_3 C 0.6654(4) 0.1845(6) 0.8798(3)
O3_3 O 0.74792(14) 0.8534(3) 0.5561(2)
O10_3 O 0.61192(15) 0.9595(4) 0.6913(2)
N2_3 N 0.83586(14) 0.8967(3) 0.54798(19)
C21_3 C 0.8968(2) 0.9536(5) 0.5268(3)
H15_3 H 0.9205 0.9437 0.5128
C22_3 C 0.8701(2) 0.8893(4) 0.5283(3)
H16_3 H 0.8759 0.8360 0.5145
C23_3 C 0.82705(18) 0.9756(4) 0.5651(2)
H17_3 H 0.8025 0.9836 0.5773
C39_3 C 0.7125(2) 0.8190(4) 0.5557(2)
C40_3 C 0.68669(18) 0.8578(4) 0.5914(2)
C41_3 C 0.65155(18) 0.8154(4) 0.6001(2)
H27_3 H 0.6437 0.7631 0.5820
C42_3 C 0.6284(2) 0.8486(5) 0.6344(2)
H28_3 H 0.6057 0.8180 0.6412
C43_3 C 0.6386(2) 0.9283(6) 0.6592(3)
C44_3 C 0.6725(2) 0.9744(5) 0.6499(3)
C45_3 C 0.6968(2) 0.9378(5) 0.6164(3)
H30_3 H 0.7201 0.9673 0.6106
H34_3 H 0.6822 0.9572 0.7687
O11_2 O 0.7967(2) 0.6903(5) 0.5979(3)
O12_2 O 0.8624(3) 0.7254(5) 0.6049(3)
C2_4 C 0.3743(2) 0.9836(5) 0.0291(3)
H2_4 H 0.3777 0.9341 0.0513
H5_4 H 0.4383 0.8913 0.0164
H7_4 H 0.4851 0.8035 0.0155
H8_3 H 0.5356 0.7034 0.0117
O3_4 O 0.75208(14) 0.3534(3) 0.9439(2)
O10_4 O 0.88808(15) 0.4595(4) 0.8087(2)
N2_4 N 0.66414(14) 0.3967(3) 0.95202(19)
C6_4 C 0.4348(2) 0.9380(5) 0.9918(3)
C7_4 C 0.4599(2) 0.9431(5) 0.9576(3)
H6_4 H 0.4570 0.9908 0.9338
C8_4 C 0.4929(2) 0.8791(5) 0.9534(3)
C9_4 C 0.5007(3) 0.8101(6) 0.9885(4)
C10_4 C 0.5310(3) 0.7491(5) 0.9862(4)
C11_4 C 0.5544(2) 0.7557(5) 0.9463(3)
C12_4 C 0.5484(2) 0.8276(5) 0.9088(3)
C13_4 C 0.5728(3) 0.8391(7) 0.8692(4)
H9_4 H 0.5940 0.7999 0.8680
C14_4 C 0.5659(4) 0.9066(8) 0.8327(5)
H10_4 H 0.5809 0.9112 0.8049
C15_4 C 0.5364(4) 0.9689(8) 0.8368(5)
C16_4 C 0.5117(3) 0.9602(6) 0.8741(3)
C17_4 C 0.51731(19) 0.8894(4) 0.9120(3)
C18_4 C 0.5862(2) 0.6869(5) 0.9442(3)
H13_4 H 0.6107 0.7028 0.9337
C19_4 C 0.5814(2) 0.6058(5) 0.9562(3)
H14_4 H 0.5571 0.5917 0.9674
C20_4 C 0.61031(19) 0.5355(4) 0.9538(3)
C21_4 C 0.6032(2) 0.4536(5) 0.9732(3)
H15_4 H 0.5795 0.4437 0.9872
C22_4 C 0.6299(2) 0.3893(4) 0.9717(3)
H16_4 H 0.6241 0.3360 0.9855
C23_4 C 0.67295(18) 0.4756(4) 0.9349(2)
H17_4 H 0.6975 0.4836 0.9227
C24_4 C 0.64682(18) 0.5443(4) 0.9349(2)
H18_4 H 0.6536 0.5975 0.9220
C39_4 C 0.7875(2) 0.3190(4) 0.9443(2)
C40_4 C 0.81331(18) 0.3578(4) 0.9086(2)
C41_4 C 0.84845(18) 0.3154(4) 0.8999(2)
H27_4 H 0.8563 0.2631 0.9180
C42_4 C 0.8716(2) 0.3486(5) 0.8656(2)
H28_4 H 0.8943 0.3180 0.8588
C43_4 C 0.8614(2) 0.4283(6) 0.8408(3)
C44_4 C 0.8275(2) 0.4744(5) 0.8501(3)
H29_4 H 0.8211 0.5287 0.8342
C45_4 C 0.8032(2) 0.4378(5) 0.8836(3)
H30_4 H 0.7799 0.4673 0.8894
C46_4 C 0.8731(2) 0.5112(6) 0.7624(3)
C47_4 C 0.9007(2) 0.5750(6) 0.7531(3)
H31_4 H 0.9269 0.5812 0.7781
C48_4 C 0.8890(3) 0.6284(5) 0.7070(3)
H32_4 H 0.9075 0.6700 0.7002
C49_4 C 0.8488(2) 0.6202(5) 0.6701(3)
C50_4 C 0.8221(3) 0.5579(7) 0.6794(3)
H33_4 H 0.7954 0.5524 0.6554
C51_4 C 0.8354(3) 0.5017(7) 0.7259(3)
H34_4 H 0.8178 0.4572 0.7313
C52_4 C 0.8346(4) 0.6845(6) 0.6202(3)
H8_4 H 0.9644 0.7966 0.9883
Zn2_2 Zn 0.20197(2) 0.20818(4) 0.45378(3)
O3_5 O 0.25208(14) 0.1466(3) 0.4439(2)
O4_3 O 0.30105(14) 0.2465(3) 0.47230(16)
O10_5 O 0.38808(15) 0.0405(4) 0.3087(2)
N2_5 N 0.16414(14) 0.1033(3) 0.45202(19)
C21_5 C 0.1032(2) 0.0464(5) 0.4732(3)
H15_5 H 0.0795 0.0563 0.4872
C22_5 C 0.1299(2) 0.1107(4) 0.4717(3)
H16_5 H 0.1241 0.1640 0.4855
C23_5 C 0.17295(18) 0.0244(4) 0.4349(2)
H17_5 H 0.1975 0.0164 0.4227
C39_5 C 0.2875(2) 0.1810(4) 0.4443(2)
C40_5 C 0.31331(18) 0.1422(4) 0.4086(2)
C41_5 C 0.34845(18) 0.1846(4) 0.3999(2)
H27_5 H 0.3563 0.2369 0.4180
C42_5 C 0.3716(2) 0.1514(5) 0.3656(2)
H28_5 H 0.3943 0.1820 0.3588
C43_5 C 0.3614(2) 0.0717(6) 0.3408(3)
C44_5 C 0.3275(2) 0.0256(5) 0.3501(3)
C45_5 C 0.3032(2) 0.0622(5) 0.3836(3)
H30_5 H 0.2799 0.0327 0.3894
H34_5 H 0.3178 0.0428 0.2313
Zn7_3 Zn 0.29803(2) 0.29182(4) 0.54622(3)
O11_3 O 0.2033(2) 0.3097(5) 0.4021(3)
O12_3 O 0.1376(3) 0.2746(5) 0.3951(3)
O13_3 O 0.19895(14) 0.2535(3) 0.52770(16)
O1_3 O 0.2967(2) 0.8097(5) 0.0979(3)
O2_3 O 0.3624(3) 0.7746(5) 0.1049(3)
C9_5 C 0.0007(3) 0.6899(6) 0.4885(4)
C10_5 C 0.0310(3) 0.7509(5) 0.4862(4)
H8_5 H 0.0356 0.7966 0.5117
C11_5 C 0.0544(2) 0.7443(5) 0.4463(3)
C12_5 C 0.0484(2) 0.6724(5) 0.4088(3)
C13_5 C 0.0728(3) 0.6609(7) 0.3692(4)
H9_5 H 0.0940 0.7001 0.3680
C14_5 C 0.0659(4) 0.5934(8) 0.3327(5)
H10_5 H 0.0809 0.5888 0.3049
C15_5 C 0.0364(4) 0.5311(8) 0.3368(5)
H11_5 H 0.0335 0.4826 0.3137
C16_5 C 0.0117(3) 0.5398(6) 0.3741(3)
C17_5 C 0.01731(19) 0.6106(4) 0.4120(3)
C18_5 C 0.0862(2) 0.8131(5) 0.4442(3)
H13_5 H 0.1107 0.7972 0.4337
C19_5 C 0.0814(2) 0.8942(5) 0.4562(3)
H14_5 H 0.0571 0.9083 0.4674
C20_5 C 0.11031(19) 0.9645(4) 0.4538(3)
C24_5 C 0.14682(18) 0.9557(4) 0.4349(2)
H18_5 H 0.1536 0.9025 0.4220
H29_5 H 0.3211 0.9713 0.3342
C46_5 C 0.3731(2) 0.9888(6) 0.2624(3)
C47_5 C 0.4007(2) 0.9250(6) 0.2531(3)
H31_5 H 0.4269 0.9188 0.2781
C48_5 C 0.3890(3) 0.8716(5) 0.2070(3)
H32_5 H 0.4075 0.8300 0.2002
C49_5 C 0.3488(2) 0.8798(5) 0.1701(3)
C50_5 C 0.3221(3) 0.9421(7) 0.1794(3)
H33_5 H 0.2954 0.9476 0.1554
C51_5 C 0.3354(3) 0.9983(7) 0.2259(3)
C52_5 C 0.3346(4) 0.8155(6) 0.1202(3)
Zn6_2 Zn 0.29803(2) 0.70818(4) 0.04622(3)
O3_6 O 0.24792(14) 0.6466(3) 0.0561(2)
O4_4 O 0.19895(14) 0.7465(3) 0.02770(16)
O10_6 O 0.11192(15) 0.5405(4) 0.1913(2)
N2_6 N 0.33586(14) 0.6033(3) 0.04798(19)
C6_5 C 0.5652(2) 0.0620(5) 0.0082(3)
C7_5 C 0.5401(2) 0.0569(5) 0.0424(3)
H6_5 H 0.5430 0.0092 0.0662
C8_5 C 0.5071(2) 0.1209(5) 0.0466(3)
C9_6 C 0.4993(3) 0.1899(6) 0.0115(4)
C10_6 C 0.4690(3) 0.2509(5) 0.0138(4)
C11_6 C 0.4456(2) 0.2443(5) 0.0537(3)
C12_6 C 0.4516(2) 0.1724(5) 0.0912(3)
C13_6 C 0.4272(3) 0.1609(7) 0.1308(4)
H9_6 H 0.4060 0.2001 0.1320
C14_6 C 0.4341(4) 0.0934(8) 0.1673(5)
H10_6 H 0.4191 0.0888 0.1951
C15_6 C 0.4636(4) 0.0311(8) 0.1632(5)
C16_6 C 0.4883(3) 0.0398(6) 0.1259(3)
C17_6 C 0.48269(19) 0.1106(4) 0.0880(3)
C18_6 C 0.4138(2) 0.3131(5) 0.0558(3)
H13_6 H 0.3893 0.2972 0.0663
C19_6 C 0.4186(2) 0.3942(5) 0.0438(3)
H14_6 H 0.4429 0.4083 0.0326
C20_6 C 0.38969(19) 0.4645(4) 0.0462(3)
C21_6 C 0.3968(2) 0.5464(5) 0.0268(3)
H15_6 H 0.4205 0.5563 0.0128
C22_6 C 0.3701(2) 0.6107(4) 0.0283(3)
H16_6 H 0.3759 0.6640 0.0145
C23_6 C 0.32705(18) 0.5244(4) 0.0651(2)
H17_6 H 0.3025 0.5164 0.0773
C24_6 C 0.35318(18) 0.4557(4) 0.0651(2)
H18_6 H 0.3464 0.4025 0.0780
C39_6 C 0.2125(2) 0.6810(4) 0.0557(2)
C40_6 C 0.18669(18) 0.6422(4) 0.0914(2)
C41_6 C 0.15155(18) 0.6846(4) 0.1001(2)
H27_6 H 0.1437 0.7369 0.0820
C42_6 C 0.1284(2) 0.6514(5) 0.1344(2)
H28_6 H 0.1057 0.6820 0.1412
C43_6 C 0.1386(2) 0.5717(6) 0.1592(3)
C44_6 C 0.1725(2) 0.5256(5) 0.1499(3)
H29_6 H 0.1789 0.4713 0.1658
C45_6 C 0.1968(2) 0.5622(5) 0.1164(3)
H30_6 H 0.2201 0.5327 0.1106
C46_6 C 0.1269(2) 0.4888(6) 0.2376(3)
C47_6 C 0.0993(2) 0.4250(6) 0.2469(3)
H31_6 H 0.0731 0.4188 0.2219
C48_6 C 0.1110(3) 0.3716(5) 0.2930(3)
H32_6 H 0.0925 0.3300 0.2998
C49_6 C 0.1512(2) 0.3798(5) 0.3299(3)
C50_6 C 0.1779(3) 0.4421(7) 0.3206(3)
H33_6 H 0.2046 0.4476 0.3446
C51_6 C 0.1646(3) 0.4983(7) 0.2741(3)
H34_6 H 0.1822 0.5428 0.2687
C52_6 C 0.1654(4) 0.3155(6) 0.3798(3)
C2_5 C 0.6257(2) 0.0164(5) 0.9709(3)
H2_5 H 0.6223 0.0659 0.9487
H5_5 H 0.5617 0.1087 0.9836
H7_5 H 0.5149 0.1965 0.9845
H8_6 H 0.4644 0.2966 0.9883
Zn7_4 Zn 0.20197(2) 0.79182(4) 0.95378(3)
O13_4 O 0.30105(14) 0.7535(3) 0.97230(16)
O1_4 O 0.2967(2) 0.1903(5) 0.5979(3)
O2_4 O 0.3624(3) 0.2254(5) 0.6049(3)
C9_7 C 0.0007(3) 0.3101(6) 0.9885(4)
C10_7 C 0.0310(3) 0.2491(5) 0.9862(4)
C11_7 C 0.0544(2) 0.2557(5) 0.9463(3)
C12_7 C 0.0484(2) 0.3276(5) 0.9088(3)
C13_7 C 0.0728(3) 0.3391(7) 0.8692(4)
H9_7 H 0.0940 0.2999 0.8680
C14_7 C 0.0659(4) 0.4066(8) 0.8327(5)
H10_7 H 0.0809 0.4112 0.8049
C15_7 C 0.0364(4) 0.4689(8) 0.8368(5)
H11_6 H 0.0335 0.5174 0.8137
C16_7 C 0.0117(3) 0.4602(6) 0.8741(3)
C17_7 C 0.01731(19) 0.3894(4) 0.9120(3)
C18_7 C 0.0862(2) 0.1869(5) 0.9442(3)
H13_7 H 0.1107 0.2028 0.9337
C19_7 C 0.0814(2) 0.1058(5) 0.9562(3)
H14_7 H 0.0571 0.0917 0.9674
C20_7 C 0.11031(19) 0.0355(4) 0.9538(3)
C24_7 C 0.14682(18) 0.0443(4) 0.9349(2)
H18_7 H 0.1536 0.0975 0.9220
H29_7 H 0.3211 0.0287 0.8342
C46_7 C 0.3731(2) 0.0112(6) 0.7624(3)
C47_7 C 0.4007(2) 0.0750(6) 0.7531(3)
H31_7 H 0.4269 0.0812 0.7781
C48_7 C 0.3890(3) 0.1284(5) 0.7070(3)
H32_7 H 0.4075 0.1700 0.7002
C49_7 C 0.3488(2) 0.1202(5) 0.6701(3)
C50_7 C 0.3221(3) 0.0579(7) 0.6794(3)
H33_7 H 0.2954 0.0524 0.6554
C51_7 C 0.3354(3) 0.0017(7) 0.7259(3)
C52_7 C 0.3346(4) 0.1845(6) 0.6202(3)
O3_7 O 0.25208(14) 0.8534(3) 0.9439(2)
O10_7 O 0.38808(15) 0.9595(4) 0.8087(2)
N2_7 N 0.16414(14) 0.8967(3) 0.95202(19)
C21_7 C 0.1032(2) 0.9536(5) 0.9732(3)
H15_7 H 0.0795 0.9437 0.9872
C22_7 C 0.1299(2) 0.8893(4) 0.9717(3)
H16_7 H 0.1241 0.8360 0.9855
C23_7 C 0.17295(18) 0.9756(4) 0.9349(2)
H17_7 H 0.1975 0.9836 0.9227
C39_7 C 0.2875(2) 0.8190(4) 0.9443(2)
C40_7 C 0.31331(18) 0.8578(4) 0.9086(2)
C41_7 C 0.34845(18) 0.8154(4) 0.8999(2)
H27_7 H 0.3563 0.7631 0.9180
C42_7 C 0.3716(2) 0.8486(5) 0.8656(2)
H28_7 H 0.3943 0.8180 0.8588
C43_7 C 0.3614(2) 0.9283(6) 0.8408(3)
C44_7 C 0.3275(2) 0.9744(5) 0.8501(3)
C45_7 C 0.3032(2) 0.9378(5) 0.8836(3)
H30_7 H 0.2799 0.9673 0.8894
H34_7 H 0.3178 0.9572 0.7313
O11_4 O 0.2033(2) 0.6903(5) 0.9021(3)
O12_4 O 0.1376(3) 0.7254(5) 0.8951(3)
O3_8 O 0.24792(14) 0.3534(3) 0.5561(2)
O10_8 O 0.11192(15) 0.4595(4) 0.6913(2)
N2_8 N 0.33586(14) 0.3967(3) 0.54798(19)
C2_6 C 0.6257(2) 0.9836(5) 0.4709(3)
H2_6 H 0.6223 0.9341 0.4487
C6_6 C 0.5652(2) 0.9380(5) 0.5082(3)
H5_6 H 0.5617 0.8913 0.4836
C7_6 C 0.5401(2) 0.9431(5) 0.5424(3)
H6_6 H 0.5430 0.9908 0.5662
C8_6 C 0.5071(2) 0.8791(5) 0.5466(3)
C9_8 C 0.4993(3) 0.8101(6) 0.5115(4)
H7_6 H 0.5149 0.8035 0.4845
C10_8 C 0.4690(3) 0.7491(5) 0.5138(4)
H8_7 H 0.4644 0.7034 0.4883
C11_8 C 0.4456(2) 0.7557(5) 0.5537(3)
C12_8 C 0.4516(2) 0.8276(5) 0.5912(3)
C13_8 C 0.4272(3) 0.8391(7) 0.6308(4)
H9_8 H 0.4060 0.7999 0.6320
C14_8 C 0.4341(4) 0.9066(8) 0.6673(5)
H10_8 H 0.4191 0.9112 0.6951
C15_8 C 0.4636(4) 0.9689(8) 0.6632(5)
C16_8 C 0.4883(3) 0.9602(6) 0.6259(3)
C17_8 C 0.48269(19) 0.8894(4) 0.5880(3)
C18_8 C 0.4138(2) 0.6869(5) 0.5558(3)
H13_8 H 0.3893 0.7028 0.5663
C19_8 C 0.4186(2) 0.6058(5) 0.5438(3)
H14_8 H 0.4429 0.5917 0.5326
C20_8 C 0.38969(19) 0.5355(4) 0.5462(3)
C21_8 C 0.3968(2) 0.4536(5) 0.5268(3)
H15_8 H 0.4205 0.4437 0.5128
C22_8 C 0.3701(2) 0.3893(4) 0.5283(3)
H16_8 H 0.3759 0.3360 0.5145
C23_8 C 0.32705(18) 0.4756(4) 0.5651(2)
H17_8 H 0.3025 0.4836 0.5773
C24_8 C 0.35318(18) 0.5443(4) 0.5651(2)
H18_8 H 0.3464 0.5975 0.5780
C39_8 C 0.2125(2) 0.3190(4) 0.5557(2)
C40_8 C 0.18669(18) 0.3578(4) 0.5914(2)
C41_8 C 0.15155(18) 0.3154(4) 0.6001(2)
H27_8 H 0.1437 0.2631 0.5820
C42_8 C 0.1284(2) 0.3486(5) 0.6344(2)
H28_8 H 0.1057 0.3180 0.6412
C43_8 C 0.1386(2) 0.4283(6) 0.6592(3)
C44_8 C 0.1725(2) 0.4744(5) 0.6499(3)
H29_8 H 0.1789 0.5287 0.6658
C45_8 C 0.1968(2) 0.4378(5) 0.6164(3)
H30_8 H 0.2201 0.4673 0.6106
C46_8 C 0.1269(2) 0.5112(6) 0.7376(3)
C47_8 C 0.0993(2) 0.5750(6) 0.7469(3)
H31_8 H 0.0731 0.5812 0.7219
C48_8 C 0.1110(3) 0.6284(5) 0.7930(3)
H32_8 H 0.0925 0.6700 0.7998
C49_8 C 0.1512(2) 0.6202(5) 0.8299(3)
C50_8 C 0.1779(3) 0.5579(7) 0.8206(3)
H33_8 H 0.2046 0.5524 0.8446
C51_8 C 0.1646(3) 0.5017(7) 0.7741(3)
H34_8 H 0.1822 0.4572 0.7687
C52_8 C 0.1654(4) 0.6845(6) 0.8798(3)
Zn1_2 Zn 0.78626(2) 0.30893(4) 0.50134(2)
O5_5 O 0.80466(14) 0.2003(3) 0.46573(18)
O6_3 O 0.75106(12) 0.1124(3) 0.46518(17)
N1_5 N 0.83547(14) 0.3881(3) 0.50105(18)
C1_5 C 0.8427(2) 0.4600(5) 0.5307(3)
H1_5 H 0.8250 0.4733 0.5542
C2_7 C 0.8743(2) 0.5164(5) 0.5291(3)
H2_7 H 0.8777 0.5659 0.5513
C3_5 C 0.90109(19) 0.4999(4) 0.4949(3)
C4_5 C 0.89403(19) 0.4250(4) 0.4627(3)
H3_5 H 0.9113 0.4110 0.4388
C5_5 C 0.86126(19) 0.3716(4) 0.4665(2)
H4_5 H 0.8567 0.3222 0.4442
C6_7 C 0.9348(2) 0.5620(5) 0.4918(3)
H5_7 H 0.9383 0.6087 0.5164
C7_7 C 0.9599(2) 0.5569(5) 0.4576(3)
H6_7 H 0.9570 0.5092 0.4338
C8_7 C 0.9929(2) 0.6209(5) 0.4534(3)
H7_7 H 0.9851 0.6965 0.5155
H12_5 H 0.9911 0.4991 0.3748
C25_5 C 0.78528(19) 0.1310(4) 0.4539(2)
C26_5 C 0.80476(18) 0.0638(4) 0.4226(2)
C30_5 C 0.8569(2) 0.0241(5) 0.3716(3)
H21_5 H 0.8805 0.0367 0.3581
C31_5 C 0.8399(2) 0.0858(5) 0.4023(3)
H22_5 H 0.8518 0.1403 0.4090
Zn5_2 Zn 0.71374(2) 0.19107(4) 0.49866(2)
O14_3 O 0.74894(12) 0.3876(3) 0.53482(17)
O15_3 O 0.80550(14) 0.2534(3) 0.58056(16)
O16_3 O 0.74905(14) 0.3354(3) 0.42128(16)
O7_3 O 0.80550(14) 0.7466(3) 0.08056(16)
O8_3 O 0.75095(14) 0.8354(3) 0.07872(16)
O9_5 O 0.85662(15) 0.8833(3) 0.33353(16)
C27_5 C 0.7879(2) 0.9822(4) 0.4134(2)
H19_5 H 0.7651 0.9673 0.4280
C28_5 C 0.8043(2) 0.9231(4) 0.3831(2)
H20_5 H 0.7928 0.8683 0.3767
C29_5 C 0.8380(2) 0.9455(5) 0.3622(2)
C32_5 C 0.8375(2) 0.8668(4) 0.2769(2)
C33_5 C 0.8552(2) 0.8018(5) 0.2523(3)
H23_5 H 0.8782 0.7715 0.2733
C34_5 C 0.8382(2) 0.7821(5) 0.1955(2)
H24_5 H 0.8505 0.7387 0.1785
C35_5 C 0.80407(18) 0.8248(4) 0.1641(2)
C36_5 C 0.7873(2) 0.8891(4) 0.1899(2)
H25_5 H 0.7644 0.9197 0.1689
C37_5 C 0.8031(2) 0.9099(5) 0.2457(2)
H26_5 H 0.7906 0.9531 0.2624
C38_5 C 0.7849(2) 0.8008(4) 0.1025(2)
Zn4_2 Zn 0.78626(2) 0.69107(4) 0.00134(2)
Zn3_2 Zn 0.71374(2) 0.80893(4) 0.99866(2)
O5_6 O 0.69534(14) 0.7003(3) 0.03427(18)
O6_4 O 0.74894(12) 0.6124(3) 0.03482(17)
O7_4 O 0.69450(14) 0.2466(3) 0.41944(16)
O9_6 O 0.64338(15) 0.3833(3) 0.16647(16)
C3_6 C 0.59891(19) 0.9999(4) 0.0051(3)
C4_6 C 0.60597(19) 0.9250(4) 0.0373(3)
H3_6 H 0.5887 0.9110 0.0612
C5_6 C 0.63874(19) 0.8716(4) 0.0335(2)
H4_6 H 0.6433 0.8222 0.0558
H11_7 H 0.4665 0.9826 0.1863
H12_6 H 0.5089 0.9991 0.1252
C25_6 C 0.71472(19) 0.6310(4) 0.0461(2)
C26_6 C 0.69524(18) 0.5638(4) 0.0774(2)
C27_6 C 0.7121(2) 0.4822(4) 0.0866(2)
H19_6 H 0.7349 0.4673 0.0720
C28_6 C 0.6957(2) 0.4231(4) 0.1169(2)
H20_6 H 0.7072 0.3683 0.1233
C29_6 C 0.6620(2) 0.4455(5) 0.1378(2)
C30_6 C 0.6431(2) 0.5241(5) 0.1284(3)
H21_6 H 0.6195 0.5367 0.1419
C31_6 C 0.6601(2) 0.5858(5) 0.0977(3)
H22_6 H 0.6482 0.6403 0.0910
C32_6 C 0.6625(2) 0.3668(4) 0.2231(2)
C33_6 C 0.6448(2) 0.3018(5) 0.2477(3)
H23_6 H 0.6218 0.2715 0.2267
C34_6 C 0.6618(2) 0.2821(5) 0.3045(2)
H24_6 H 0.6495 0.2387 0.3215
C35_6 C 0.69593(18) 0.3248(4) 0.3359(2)
C36_6 C 0.7127(2) 0.3891(4) 0.3101(2)
H25_6 H 0.7356 0.4197 0.3311
C37_6 C 0.6969(2) 0.4099(5) 0.2543(2)
H26_6 H 0.7094 0.4531 0.2376
C38_6 C 0.7151(2) 0.3008(4) 0.3975(2)
N1_6 N 0.66453(14) 0.8881(3) 0.99895(18)
C1_6 C 0.6573(2) 0.9600(5) 0.9693(3)
H1_6 H 0.6750 0.9733 0.9458
O14_4 O 0.75106(12) 0.8876(3) 0.96518(17)
O15_4 O 0.69450(14) 0.7534(3) 0.91944(16)
O8_4 O 0.75095(14) 0.1646(3) 0.57872(16)
O9_7 O 0.85662(15) 0.1167(3) 0.83353(16)
C27_7 C 0.7879(2) 0.0178(4) 0.9134(2)
H19_7 H 0.7651 0.0327 0.9280
C28_7 C 0.8043(2) 0.0769(4) 0.8831(2)
H20_7 H 0.7928 0.1317 0.8767
C29_7 C 0.8380(2) 0.0545(5) 0.8622(2)
C32_7 C 0.8375(2) 0.1332(4) 0.7769(2)
C33_7 C 0.8552(2) 0.1982(5) 0.7523(3)
H23_7 H 0.8782 0.2285 0.7733
C34_7 C 0.8382(2) 0.2179(5) 0.6955(2)
H24_7 H 0.8505 0.2613 0.6785
C35_7 C 0.80407(18) 0.1752(4) 0.6641(2)
C36_7 C 0.7873(2) 0.1109(4) 0.6899(2)
H25_7 H 0.7644 0.0803 0.6689
C37_7 C 0.8031(2) 0.0901(5) 0.7457(2)
H26_7 H 0.7906 0.0469 0.7624
C38_7 C 0.7849(2) 0.1992(4) 0.6025(2)
N1_7 N 0.83547(14) 0.6119(3) 0.00105(18)
C1_7 C 0.8427(2) 0.5400(5) 0.0307(3)
H1_7 H 0.8250 0.5267 0.0542
C2_8 C 0.8743(2) 0.4836(5) 0.0291(3)
H2_8 H 0.8777 0.4341 0.0513
H5_8 H 0.9383 0.3913 0.0164
H7_8 H 0.9851 0.3035 0.0155
O5_7 O 0.80466(14) 0.7997(3) 0.96573(18)
C3_7 C 0.90109(19) 0.5001(4) 0.9949(3)
C4_7 C 0.89403(19) 0.5750(4) 0.9627(3)
H3_7 H 0.9113 0.5890 0.9388
C5_7 C 0.86126(19) 0.6284(4) 0.9665(2)
H4_7 H 0.8567 0.6778 0.9442
C6_8 C 0.9348(2) 0.4380(5) 0.9918(3)
C7_8 C 0.9599(2) 0.4431(5) 0.9576(3)
H6_8 H 0.9570 0.4908 0.9338
C8_8 C 0.9929(2) 0.3791(5) 0.9534(3)
H12_7 H 0.9911 0.5009 0.8748
C25_7 C 0.78528(19) 0.8690(4) 0.9539(2)
C26_7 C 0.80476(18) 0.9362(4) 0.9226(2)
C30_7 C 0.8569(2) 0.9759(5) 0.8716(3)
H21_7 H 0.8805 0.9633 0.8581
C31_7 C 0.8399(2) 0.9142(5) 0.9023(3)
H22_7 H 0.8518 0.8597 0.9090
O16_4 O 0.74905(14) 0.6646(3) 0.92128(16)
O5_8 O 0.69534(14) 0.2997(3) 0.53427(18)
O9_8 O 0.64338(15) 0.6167(3) 0.66647(16)
N1_8 N 0.66453(14) 0.1119(3) 0.49895(18)
C1_8 C 0.6573(2) 0.0400(5) 0.4693(3)
H1_8 H 0.6750 0.0267 0.4458
C3_8 C 0.59891(19) 0.0001(4) 0.5051(3)
C4_8 C 0.60597(19) 0.0750(4) 0.5373(3)
H3_8 H 0.5887 0.0890 0.5612
C5_8 C 0.63874(19) 0.1284(4) 0.5335(2)
H4_8 H 0.6433 0.1778 0.5558
H11_8 H 0.4665 0.0174 0.6863
H12_8 H 0.5089 0.0009 0.6252
C25_8 C 0.71472(19) 0.3690(4) 0.5461(2)
C26_8 C 0.69524(18) 0.4362(4) 0.5774(2)
C27_8 C 0.7121(2) 0.5178(4) 0.5866(2)
H19_8 H 0.7349 0.5327 0.5720
C28_8 C 0.6957(2) 0.5769(4) 0.6169(2)
H20_8 H 0.7072 0.6317 0.6233
C29_8 C 0.6620(2) 0.5545(5) 0.6378(2)
C30_8 C 0.6431(2) 0.4759(5) 0.6284(3)
H21_8 H 0.6195 0.4633 0.6419
C31_8 C 0.6601(2) 0.4142(5) 0.5977(3)
H22_8 H 0.6482 0.3597 0.5910
C32_8 C 0.6625(2) 0.6332(4) 0.7231(2)
C33_8 C 0.6448(2) 0.6982(5) 0.7477(3)
H23_8 H 0.6218 0.7285 0.7267
C34_8 C 0.6618(2) 0.7179(5) 0.8045(2)
H24_8 H 0.6495 0.7613 0.8215
C35_8 C 0.69593(18) 0.6752(4) 0.8359(2)
C36_8 C 0.7127(2) 0.6109(4) 0.8101(2)
H25_8 H 0.7356 0.5803 0.8311
C37_8 C 0.6969(2) 0.5901(5) 0.7543(2)
H26_8 H 0.7094 0.5469 0.7376
C38_8 C 0.7151(2) 0.6992(4) 0.8975(2)
H8_8 H 0.0356 0.2034 0.0117
loop_
_geom_bond_atom_site_label_1
_geom_bond_atom_site_label_2
_geom_bond_site_symmetry_1
_geom_bond_site_symmetry_2
O5 C25 1_555 1_555
O6 C25 1_555 1_555
C4 C3 1_555 1_555
H3 C4 1_555 1_555
H4 C5 1_555 1_555
C6 C3 1_555 1_555
C7 C6 1_555 1_555
H6 C7 1_555 1_555
C8 C7 1_555 1_555
C25 C26 1_555 1_555
H21 C30 1_555 1_555
C31 C26 1_555 1_555
H22 C31 1_555 1_555
Zn5 O6 1_555 1_555
C4 C5 1_555 1_555
C30 C31 1_555 1_555
N1 Zn1 1_555 1_555
C1 N1 1_555 1_555
H1 C1 1_555 1_555
C2 C1 1_555 1_555
H2 C2 1_555 1_555
O14 Zn1 1_555 1_555
O15 Zn1 1_555 1_555
O7 C38 1_555 1_555
O8 C38 1_555 1_555
O9 C29 1_555 1_555
C27 H19 1_555 1_555
C28 C27 1_555 1_555
H20 C28 1_555 1_555
C29 C28 1_555 1_555
C32 O9 1_555 1_555
C33 C32 1_555 1_555
H23 C33 1_555 1_555
C34 C33 1_555 1_555
H24 C34 1_555 1_555
C35 C34 1_555 1_555
C36 C35 1_555 1_555
H25 C36 1_555 1_555
C37 C32 1_555 1_555
H26 C37 1_555 1_555
C38 C35 1_555 1_555
Zn3 O8 1_555 1_555
Zn4 O7 1_555 1_555
C36 C37 1_555 1_555
Zn3 O5_2 1_555 1_555
O5_2 C25_2 1_555 1_555
O6_2 C25_2 1_555 1_555
O7_2 C38_2 1_555 1_555
O16 C38_2 1_555 1_555
O9_2 C29_2 1_555 1_555
N1_2 Zn3 1_555 1_555
C1_2 N1_2 1_555 1_555
H1_2 C1_2 1_555 1_555
C4_2 C3_2 1_555 1_555
H3_2 C4_2 1_555 1_555
C5_2 N1_2 1_555 1_555
H4_2 C5_2 1_555 1_555
C25_2 C26_2 1_555 1_555
C26_2 C27_2 1_555 1_555
C27_2 H19_2 1_555 1_555
C28_2 C27_2 1_555 1_555
H20_2 C28_2 1_555 1_555
C29_2 C28_2 1_555 1_555
C30_2 C29_2 1_555 1_555
H21_2 C30_2 1_555 1_555
C31_2 C26_2 1_555 1_555
H22_2 C31_2 1_555 1_555
C32_2 O9_2 1_555 1_555
C33_2 C32_2 1_555 1_555
H23_2 C33_2 1_555 1_555
C34_2 C33_2 1_555 1_555
H24_2 C34_2 1_555 1_555
C35_2 C34_2 1_555 1_555
C36_2 C35_2 1_555 1_555
H25_2 C36_2 1_555 1_555
C37_2 C32_2 1_555 1_555
H26_2 C37_2 1_555 1_555
C38_2 C35_2 1_555 1_555
Zn5 O7_2 1_555 1_555
Zn4 O6_2 1_555 1_555
O14_2 Zn3 1_555 1_555
O15_2 Zn3 1_555 1_555
C4_2 C5_2 1_555 1_555
C30_2 C31_2 1_555 1_555
C36_2 C37_2 1_555 1_555
O15 C38_3 1_555 1_555
O8_2 C38_3 1_555 1_555
O9_3 C29_3 1_555 1_555
C27_3 H19_3 1_555 1_555
C28_3 C27_3 1_555 1_555
H20_3 C28_3 1_555 1_555
C29_3 C28_3 1_555 1_555
C32_3 O9_3 1_555 1_555
C33_3 C32_3 1_555 1_555
H23_3 C33_3 1_555 1_555
C34_3 C33_3 1_555 1_555
H24_3 C34_3 1_555 1_555
C35_3 C34_3 1_555 1_555
C36_3 C35_3 1_555 1_555
H25_3 C36_3 1_555 1_555
C37_3 C32_3 1_555 1_555
H26_3 C37_3 1_555 1_555
C38_3 C35_3 1_555 1_555
C36_3 C37_3 1_555 1_555
Zn4 O5_3 1_555 1_555
O5_3 C25_3 1_555 1_555
O14_2 C25_3 1_555 1_555
N1_3 Zn4 1_555 1_555
C1_3 N1_3 1_555 1_555
H1_3 C1_3 1_555 1_555
C2_2 C1_3 1_555 1_555
H2_2 C2_2 1_555 1_555
C3_3 C2_2 1_555 1_555
C4_3 C3_3 1_555 1_555
H3_3 C4_3 1_555 1_555
C5_3 N1_3 1_555 1_555
H4_3 C5_3 1_555 1_555
C6_2 C3_3 1_555 1_555
H5_2 C6_2 1_555 1_555
C7_2 C6_2 1_555 1_555
H6_2 C7_2 1_555 1_555
C8_2 C7_2 1_555 1_555
C25_3 C26_3 1_555 1_555
H21_3 C30_3 1_555 1_555
C31_3 C26_3 1_555 1_555
H22_3 C31_3 1_555 1_555
O16_2 Zn4 1_555 1_555
C4_3 C5_3 1_555 1_555
C30_3 C31_3 1_555 1_555
N1_4 Zn5 1_555 1_555
C1_4 N1_4 1_555 1_555
H1_4 C1_4 1_555 1_555
O5_4 C25_4 1_555 1_555
O14 C25_4 1_555 1_555
O15_2 C38_4 1_555 1_555
O16_2 C38_4 1_555 1_555
O9_4 C29_4 1_555 1_555
C4_4 C3_4 1_555 1_555
H3_4 C4_4 1_555 1_555
H4_4 C5_4 1_555 1_555
C25_4 C26_4 1_555 1_555
C26_4 C27_4 1_555 1_555
C27_4 H19_4 1_555 1_555
C28_4 C27_4 1_555 1_555
H20_4 C28_4 1_555 1_555
C29_4 C28_4 1_555 1_555
C30_4 C29_4 1_555 1_555
H21_4 C30_4 1_555 1_555
C31_4 C26_4 1_555 1_555
H22_4 C31_4 1_555 1_555
C32_4 O9_4 1_555 1_555
C33_4 C32_4 1_555 1_555
H23_4 C33_4 1_555 1_555
C34_4 C33_4 1_555 1_555
H24_4 C34_4 1_555 1_555
C35_4 C34_4 1_555 1_555
C36_4 C35_4 1_555 1_555
H25_4 C36_4 1_555 1_555
C37_4 C32_4 1_555 1_555
H26_4 C37_4 1_555 1_555
C38_4 C35_4 1_555 1_555
C4_4 C5_4 1_555 1_555
C30_4 C31_4 1_555 1_555
C36_4 C37_4 1_555 1_555
Zn2 O3 1_555 1_555
O3 C39 1_555 1_555
O4 C39 1_555 1_555
O10 C43 1_555 1_555
N2 Zn2 1_555 1_555
H15 C21 1_555 1_555
C22 N2 1_555 1_555
H16 C22 1_555 1_555
C23 N2 1_555 1_555
H17 C23 1_555 1_555
C39 C40 1_555 1_555
C40 C41 1_555 1_555
C41 H27 1_555 1_555
C42 C41 1_555 1_555
H28 C42 1_555 1_555
C43 C42 1_555 1_555
C44 C43 1_555 1_555
C45 C40 1_555 1_555
H30 C45 1_555 1_555
O11 Zn2 1_555 1_555
O12 Zn2 1_555 1_555
C21 C22 1_555 1_555
C44 C45 1_555 1_555
O1 C52 1_555 1_555
O2 C52 1_555 1_555
C10 C9 1_555 1_555
C11 C10 1_555 1_555
C12 C11 1_555 1_555
C13 C12 1_555 1_555
H9 C13 1_555 1_555
C14 C13 1_555 1_555
H10 C14 1_555 1_555
C15 C14 1_555 1_555
H11_3 C15 1_555 1_555
C16 C15 1_555 1_555
C18 C11 1_555 1_555
H13 C18 1_555 1_555
C19 C18 1_555 1_555
H14 C19 1_555 1_555
C20 C19 1_555 1_555
C24 C20 1_555 1_555
H18 C24 1_555 1_555
C47 C46 1_555 1_555
H31 C47 1_555 1_555
C48 C47 1_555 1_555
H32 C48 1_555 1_555
C49 C48 1_555 1_555
C50 C49 1_555 1_555
H33 C50 1_555 1_555
C51 C46 1_555 1_555
C52 C49 1_555 1_555
Zn6 O1 1_555 1_555
O2 Zn6 1_555 1_555
C12 C17 1_555 1_555
C16 C17 1_555 1_555
C50 C51 1_555 1_555
Zn6 O3_2 1_555 1_555
O11 C52_2 1_555 1_555
O12 C52_2 1_555 1_555
O3_2 C39_2 1_555 1_555
O4_2 C39_2 1_555 1_555
O10_2 C43_2 1_555 1_555
N2_2 Zn6 1_555 1_555
H2_3 C2_3 1_555 1_555
H5_3 C6_3 1_555 1_555
C7_3 C6_3 1_555 1_555
H6_3 C7_3 1_555 1_555
C8_3 C7_3 1_555 1_555
C9_2 C8_3 1_555 1_555
H7_3 C9_2 1_555 1_555
C10_2 C9_2 1_555 1_555
H8 C10_2 1_555 1_555
C11_2 C10_2 1_555 1_555
C12_2 C11_2 1_555 1_555
C13_2 C12_2 1_555 1_555
H9_2 C13_2 1_555 1_555
C14_2 C13_2 1_555 1_555
H10_2 C14_2 1_555 1_555
C15_2 C14_2 1_555 1_555
C16_2 C15_2 1_555 1_555
C17_2 C8_3 1_555 1_555
C18_2 C11_2 1_555 1_555
H13_2 C18_2 1_555 1_555
C19_2 C18_2 1_555 1_555
H14_2 C19_2 1_555 1_555
C20_2 C19_2 1_555 1_555
C21_2 C20_2 1_555 1_555
H15_2 C21_2 1_555 1_555
C22_2 N2_2 1_555 1_555
H16_2 C22_2 1_555 1_555
C23_2 N2_2 1_555 1_555
H17_2 C23_2 1_555 1_555
C24_2 C20_2 1_555 1_555
H18_2 C24_2 1_555 1_555
C39_2 C40_2 1_555 1_555
C40_2 C41_2 1_555 1_555
C41_2 H27_2 1_555 1_555
C42_2 C41_2 1_555 1_555
H28_2 C42_2 1_555 1_555
C43_2 C42_2 1_555 1_555
C44_2 C43_2 1_555 1_555
H29_2 C44_2 1_555 1_555
C45_2 C40_2 1_555 1_555
H30_2 C45_2 1_555 1_555
C46_2 O10_2 1_555 1_555
C47_2 C46_2 1_555 1_555
H31_2 C47_2 1_555 1_555
C48_2 C47_2 1_555 1_555
H32_2 C48_2 1_555 1_555
C49_2 C48_2 1_555 1_555
C50_2 C49_2 1_555 1_555
H33_2 C50_2 1_555 1_555
C51_2 C46_2 1_555 1_555
H34_2 C51_2 1_555 1_555
C52_2 C49_2 1_555 1_555
Zn7_2 O4_2 1_555 1_555
O13_2 Zn6 1_555 1_555
C12_2 C17_2 1_555 1_555
C16_2 C17_2 1_555 1_555
C21_2 C22_2 1_555 1_555
C23_2 C24_2 1_555 1_555
C44_2 C45_2 1_555 1_555
C50_2 C51_2 1_555 1_555
O1_2 C52_3 1_555 1_555
O2_2 C52_3 1_555 1_555
C10_3 C9_3 1_555 1_555
H8_2 C10_3 1_555 1_555
C11_3 C10_3 1_555 1_555
C12_3 C11_3 1_555 1_555
C13_3 C12_3 1_555 1_555
H9_3 C13_3 1_555 1_555
C14_3 C13_3 1_555 1_555
H10_3 C14_3 1_555 1_555
C15_3 C14_3 1_555 1_555
H11_4 C15_3 1_555 1_555
C16_3 C15_3 1_555 1_555
C18_3 C11_3 1_555 1_555
H13_3 C18_3 1_555 1_555
C19_3 C18_3 1_555 1_555
H14_3 C19_3 1_555 1_555
C20_3 C19_3 1_555 1_555
C24_3 C20_3 1_555 1_555
H18_3 C24_3 1_555 1_555
C47_3 C46_3 1_555 1_555
H31_3 C47_3 1_555 1_555
C48_3 C47_3 1_555 1_555
H32_3 C48_3 1_555 1_555
C49_3 C48_3 1_555 1_555
C50_3 C49_3 1_555 1_555
H33_3 C50_3 1_555 1_555
C51_3 C46_3 1_555 1_555
C52_3 C49_3 1_555 1_555
Zn7 O1_2 1_555 1_555
O2_2 Zn7 1_555 1_555
C12_3 C17_3 1_555 1_555
C16_3 C17_3 1_555 1_555
C50_3 C51_3 1_555 1_555
Zn7_2 O3_3 1_555 1_555
O3_3 C39_3 1_555 1_555
O13_2 C39_3 1_555 1_555
O10_3 C43_3 1_555 1_555
N2_3 Zn7_2 1_555 1_555
H15_3 C21_3 1_555 1_555
C22_3 N2_3 1_555 1_555
H16_3 C22_3 1_555 1_555
C23_3 N2_3 1_555 1_555
H17_3 C23_3 1_555 1_555
C39_3 C40_3 1_555 1_555
C40_3 C41_3 1_555 1_555
C41_3 H27_3 1_555 1_555
C42_3 C41_3 1_555 1_555
H28_3 C42_3 1_555 1_555
C43_3 C42_3 1_555 1_555
C44_3 C43_3 1_555 1_555
C45_3 C40_3 1_555 1_555
H30_3 C45_3 1_555 1_555
O11_2 Zn7_2 1_555 1_555
O12_2 Zn7_2 1_555 1_555
C21_3 C22_3 1_555 1_555
C44_3 C45_3 1_555 1_555
H2_4 C2_4 1_555 1_555
Zn7 O3_4 1_555 1_555
O11_2 C52_4 1_555 1_555
O12_2 C52_4 1_555 1_555
O3_4 C39_4 1_555 1_555
O13 C39_4 1_555 1_555
O10_4 C43_4 1_555 1_555
N2_4 Zn7 1_555 1_555
C7_4 C6_4 1_555 1_555
H6_4 C7_4 1_555 1_555
C8_4 C7_4 1_555 1_555
C9_4 C8_4 1_555 1_555
C10_4 C9_4 1_555 1_555
C11_4 C10_4 1_555 1_555
C12_4 C11_4 1_555 1_555
C13_4 C12_4 1_555 1_555
H9_4 C13_4 1_555 1_555
C14_4 C13_4 1_555 1_555
H10_4 C14_4 1_555 1_555
C15_4 C14_4 1_555 1_555
C16_4 C15_4 1_555 1_555
C17_4 C8_4 1_555 1_555
C18_4 C11_4 1_555 1_555
H13_4 C18_4 1_555 1_555
C19_4 C18_4 1_555 1_555
H14_4 C19_4 1_555 1_555
C20_4 C19_4 1_555 1_555
C21_4 C20_4 1_555 1_555
H15_4 C21_4 1_555 1_555
C22_4 N2_4 1_555 1_555
H16_4 C22_4 1_555 1_555
C23_4 N2_4 1_555 1_555
H17_4 C23_4 1_555 1_555
C24_4 C20_4 1_555 1_555
H18_4 C24_4 1_555 1_555
C39_4 C40_4 1_555 1_555
C40_4 C41_4 1_555 1_555
C41_4 H27_4 1_555 1_555
C42_4 C41_4 1_555 1_555
H28_4 C42_4 1_555 1_555
C43_4 C42_4 1_555 1_555
C44_4 C43_4 1_555 1_555
H29_4 C44_4 1_555 1_555
C45_4 C40_4 1_555 1_555
H30_4 C45_4 1_555 1_555
C46_4 O10_4 1_555 1_555
C47_4 C46_4 1_555 1_555
H31_4 C47_4 1_555 1_555
C48_4 C47_4 1_555 1_555
H32_4 C48_4 1_555 1_555
C49_4 C48_4 1_555 1_555
C50_4 C49_4 1_555 1_555
H33_4 C50_4 1_555 1_555
C51_4 C46_4 1_555 1_555
H34_4 C51_4 1_555 1_555
C52_4 C49_4 1_555 1_555
C12_4 C17_4 1_555 1_555
C16_4 C17_4 1_555 1_555
C21_4 C22_4 1_555 1_555
C23_4 C24_4 1_555 1_555
C44_4 C45_4 1_555 1_555
C50_4 C51_4 1_555 1_555
Zn2_2 O3_5 1_555 1_555
O3_5 C39_5 1_555 1_555
O4_3 C39_5 1_555 1_555
O10_5 C43_5 1_555 1_555
N2_5 Zn2_2 1_555 1_555
H15_5 C21_5 1_555 1_555
C22_5 N2_5 1_555 1_555
H16_5 C22_5 1_555 1_555
C23_5 N2_5 1_555 1_555
H17_5 C23_5 1_555 1_555
C39_5 C40_5 1_555 1_555
C40_5 C41_5 1_555 1_555
C41_5 H27_5 1_555 1_555
C42_5 C41_5 1_555 1_555
H28_5 C42_5 1_555 1_555
C43_5 C42_5 1_555 1_555
C44_5 C43_5 1_555 1_555
C45_5 C40_5 1_555 1_555
H30_5 C45_5 1_555 1_555
Zn7_3 O4_3 1_555 1_555
O11_3 Zn2_2 1_555 1_555
O12_3 Zn2_2 1_555 1_555
O13_3 Zn2_2 1_555 1_555
C21_5 C22_5 1_555 1_555
C44_5 C45_5 1_555 1_555
O1_3 C52_5 1_555 1_555
O2_3 C52_5 1_555 1_555
C10_5 C9_5 1_555 1_555
H8_5 C10_5 1_555 1_555
C11_5 C10_5 1_555 1_555
C12_5 C11_5 1_555 1_555
C13_5 C12_5 1_555 1_555
H9_5 C13_5 1_555 1_555
C14_5 C13_5 1_555 1_555
H10_5 C14_5 1_555 1_555
C15_5 C14_5 1_555 1_555
H11_5 C15_5 1_555 1_555
C16_5 C15_5 1_555 1_555
C18_5 C11_5 1_555 1_555
H13_5 C18_5 1_555 1_555
C19_5 C18_5 1_555 1_555
H14_5 C19_5 1_555 1_555
C20_5 C19_5 1_555 1_555
C24_5 C20_5 1_555 1_555
H18_5 C24_5 1_555 1_555
C47_5 C46_5 1_555 1_555
H31_5 C47_5 1_555 1_555
C48_5 C47_5 1_555 1_555
H32_5 C48_5 1_555 1_555
C49_5 C48_5 1_555 1_555
C50_5 C49_5 1_555 1_555
H33_5 C50_5 1_555 1_555
C51_5 C46_5 1_555 1_555
C52_5 C49_5 1_555 1_555
Zn6_2 O1_3 1_555 1_555
O2_3 Zn6_2 1_555 1_555
C12_5 C17_5 1_555 1_555
C16_5 C17_5 1_555 1_555
C50_5 C51_5 1_555 1_555
Zn6_2 O3_6 1_555 1_555
O11_3 C52_6 1_555 1_555
O12_3 C52_6 1_555 1_555
O3_6 C39_6 1_555 1_555
O4_4 C39_6 1_555 1_555
O10_6 C43_6 1_555 1_555
N2_6 Zn6_2 1_555 1_555
C7_5 C6_5 1_555 1_555
H6_5 C7_5 1_555 1_555
C8_5 C7_5 1_555 1_555
C9_6 C8_5 1_555 1_555
C10_6 C9_6 1_555 1_555
C11_6 C10_6 1_555 1_555
C12_6 C11_6 1_555 1_555
C13_6 C12_6 1_555 1_555
H9_6 C13_6 1_555 1_555
C14_6 C13_6 1_555 1_555
H10_6 C14_6 1_555 1_555
C15_6 C14_6 1_555 1_555
C16_6 C15_6 1_555 1_555
C17_6 C8_5 1_555 1_555
C18_6 C11_6 1_555 1_555
H13_6 C18_6 1_555 1_555
C19_6 C18_6 1_555 1_555
H14_6 C19_6 1_555 1_555
C20_6 C19_6 1_555 1_555
C21_6 C20_6 1_555 1_555
H15_6 C21_6 1_555 1_555
C22_6 N2_6 1_555 1_555
H16_6 C22_6 1_555 1_555
C23_6 N2_6 1_555 1_555
H17_6 C23_6 1_555 1_555
C24_6 C20_6 1_555 1_555
H18_6 C24_6 1_555 1_555
C39_6 C40_6 1_555 1_555
C40_6 C41_6 1_555 1_555
C41_6 H27_6 1_555 1_555
C42_6 C41_6 1_555 1_555
H28_6 C42_6 1_555 1_555
C43_6 C42_6 1_555 1_555
C44_6 C43_6 1_555 1_555
H29_6 C44_6 1_555 1_555
C45_6 C40_6 1_555 1_555
H30_6 C45_6 1_555 1_555
C46_6 O10_6 1_555 1_555
C47_6 C46_6 1_555 1_555
H31_6 C47_6 1_555 1_555
C48_6 C47_6 1_555 1_555
H32_6 C48_6 1_555 1_555
C49_6 C48_6 1_555 1_555
C50_6 C49_6 1_555 1_555
H33_6 C50_6 1_555 1_555
C51_6 C46_6 1_555 1_555
H34_6 C51_6 1_555 1_555
C52_6 C49_6 1_555 1_555
C12_6 C17_6 1_555 1_555
C16_6 C17_6 1_555 1_555
C21_6 C22_6 1_555 1_555
C23_6 C24_6 1_555 1_555
C44_6 C45_6 1_555 1_555
C50_6 C51_6 1_555 1_555
H2_5 C2_5 1_555 1_555
O1_4 C52_7 1_555 1_555
O2_4 C52_7 1_555 1_555
C10_7 C9_7 1_555 1_555
C11_7 C10_7 1_555 1_555
C12_7 C11_7 1_555 1_555
C13_7 C12_7 1_555 1_555
H9_7 C13_7 1_555 1_555
C14_7 C13_7 1_555 1_555
H10_7 C14_7 1_555 1_555
C15_7 C14_7 1_555 1_555
H11_6 C15_7 1_555 1_555
C16_7 C15_7 1_555 1_555
C18_7 C11_7 1_555 1_555
H13_7 C18_7 1_555 1_555
C19_7 C18_7 1_555 1_555
H14_7 C19_7 1_555 1_555
C20_7 C19_7 1_555 1_555
C24_7 C20_7 1_555 1_555
H18_7 C24_7 1_555 1_555
C47_7 C46_7 1_555 1_555
H31_7 C47_7 1_555 1_555
C48_7 C47_7 1_555 1_555
H32_7 C48_7 1_555 1_555
C49_7 C48_7 1_555 1_555
C50_7 C49_7 1_555 1_555
H33_7 C50_7 1_555 1_555
C51_7 C46_7 1_555 1_555
C52_7 C49_7 1_555 1_555
Zn7_3 O1_4 1_555 1_555
O2_4 Zn7_3 1_555 1_555
C12_7 C17_7 1_555 1_555
C16_7 C17_7 1_555 1_555
C50_7 C51_7 1_555 1_555
Zn7_4 O3_7 1_555 1_555
O3_7 C39_7 1_555 1_555
O13_4 C39_7 1_555 1_555
O10_7 C43_7 1_555 1_555
N2_7 Zn7_4 1_555 1_555
H15_7 C21_7 1_555 1_555
C22_7 N2_7 1_555 1_555
H16_7 C22_7 1_555 1_555
C23_7 N2_7 1_555 1_555
H17_7 C23_7 1_555 1_555
C39_7 C40_7 1_555 1_555
C40_7 C41_7 1_555 1_555
C41_7 H27_7 1_555 1_555
C42_7 C41_7 1_555 1_555
H28_7 C42_7 1_555 1_555
C43_7 C42_7 1_555 1_555
C44_7 C43_7 1_555 1_555
C45_7 C40_7 1_555 1_555
H30_7 C45_7 1_555 1_555
O11_4 Zn7_4 1_555 1_555
O12_4 Zn7_4 1_555 1_555
C21_7 C22_7 1_555 1_555
C44_7 C45_7 1_555 1_555
Zn7_3 O3_8 1_555 1_555
O11_4 C52_8 1_555 1_555
O12_4 C52_8 1_555 1_555
O3_8 C39_8 1_555 1_555
O13_3 C39_8 1_555 1_555
O10_8 C43_8 1_555 1_555
N2_8 Zn7_3 1_555 1_555
H2_6 C2_6 1_555 1_555
H5_6 C6_6 1_555 1_555
C7_6 C6_6 1_555 1_555
H6_6 C7_6 1_555 1_555
C8_6 C7_6 1_555 1_555
C9_8 C8_6 1_555 1_555
H7_6 C9_8 1_555 1_555
C10_8 C9_8 1_555 1_555
H8_7 C10_8 1_555 1_555
C11_8 C10_8 1_555 1_555
C12_8 C11_8 1_555 1_555
C13_8 C12_8 1_555 1_555
H9_8 C13_8 1_555 1_555
C14_8 C13_8 1_555 1_555
H10_8 C14_8 1_555 1_555
C15_8 C14_8 1_555 1_555
C16_8 C15_8 1_555 1_555
C17_8 C8_6 1_555 1_555
C18_8 C11_8 1_555 1_555
H13_8 C18_8 1_555 1_555
C19_8 C18_8 1_555 1_555
H14_8 C19_8 1_555 1_555
C20_8 C19_8 1_555 1_555
C21_8 C20_8 1_555 1_555
H15_8 C21_8 1_555 1_555
C22_8 N2_8 1_555 1_555
H16_8 C22_8 1_555 1_555
C23_8 N2_8 1_555 1_555
H17_8 C23_8 1_555 1_555
C24_8 C20_8 1_555 1_555
H18_8 C24_8 1_555 1_555
C39_8 C40_8 1_555 1_555
C40_8 C41_8 1_555 1_555
C41_8 H27_8 1_555 1_555
C42_8 C41_8 1_555 1_555
H28_8 C42_8 1_555 1_555
C43_8 C42_8 1_555 1_555
C44_8 C43_8 1_555 1_555
H29_8 C44_8 1_555 1_555
C45_8 C40_8 1_555 1_555
H30_8 C45_8 1_555 1_555
C46_8 O10_8 1_555 1_555
C47_8 C46_8 1_555 1_555
H31_8 C47_8 1_555 1_555
C48_8 C47_8 1_555 1_555
H32_8 C48_8 1_555 1_555
C49_8 C48_8 1_555 1_555
C50_8 C49_8 1_555 1_555
H33_8 C50_8 1_555 1_555
C51_8 C46_8 1_555 1_555
H34_8 C51_8 1_555 1_555
C52_8 C49_8 1_555 1_555
C12_8 C17_8 1_555 1_555
C16_8 C17_8 1_555 1_555
C21_8 C22_8 1_555 1_555
C23_8 C24_8 1_555 1_555
C44_8 C45_8 1_555 1_555
C50_8 C51_8 1_555 1_555
Zn1_2 O5_5 1_555 1_555
O5_5 C25_5 1_555 1_555
O6_3 C25_5 1_555 1_555
N1_5 Zn1_2 1_555 1_555
C1_5 N1_5 1_555 1_555
H1_5 C1_5 1_555 1_555
C2_7 C1_5 1_555 1_555
H2_7 C2_7 1_555 1_555
C3_5 C2_7 1_555 1_555
C4_5 C3_5 1_555 1_555
H3_5 C4_5 1_555 1_555
C5_5 N1_5 1_555 1_555
H4_5 C5_5 1_555 1_555
C6_7 C3_5 1_555 1_555
H5_7 C6_7 1_555 1_555
C7_7 C6_7 1_555 1_555
H6_7 C7_7 1_555 1_555
C8_7 C7_7 1_555 1_555
C25_5 C26_5 1_555 1_555
H21_5 C30_5 1_555 1_555
C31_5 C26_5 1_555 1_555
H22_5 C31_5 1_555 1_555
Zn5_2 O6_3 1_555 1_555
O14_3 Zn1_2 1_555 1_555
O15_3 Zn1_2 1_555 1_555
O16_3 Zn1_2 1_555 1_555
C4_5 C5_5 1_555 1_555
C30_5 C31_5 1_555 1_555
O7_3 C38_5 1_555 1_555
O8_3 C38_5 1_555 1_555
O9_5 C29_5 1_555 1_555
C27_5 H19_5 1_555 1_555
C28_5 C27_5 1_555 1_555
H20_5 C28_5 1_555 1_555
C29_5 C28_5 1_555 1_555
C32_5 O9_5 1_555 1_555
C33_5 C32_5 1_555 1_555
H23_5 C33_5 1_555 1_555
C34_5 C33_5 1_555 1_555
H24_5 C34_5 1_555 1_555
C35_5 C34_5 1_555 1_555
C36_5 C35_5 1_555 1_555
H25_5 C36_5 1_555 1_555
C37_5 C32_5 1_555 1_555
H26_5 C37_5 1_555 1_555
C38_5 C35_5 1_555 1_555
Zn4_2 O7_3 1_555 1_555
C36_5 C37_5 1_555 1_555
O5_6 C25_6 1_555 1_555
O6_4 C25_6 1_555 1_555
O7_4 C38_6 1_555 1_555
O16_3 C38_6 1_555 1_555
O9_6 C29_6 1_555 1_555
C4_6 C3_6 1_555 1_555
H3_6 C4_6 1_555 1_555
H4_6 C5_6 1_555 1_555
C25_6 C26_6 1_555 1_555
C26_6 C27_6 1_555 1_555
C27_6 H19_6 1_555 1_555
C28_6 C27_6 1_555 1_555
H20_6 C28_6 1_555 1_555
C29_6 C28_6 1_555 1_555
C30_6 C29_6 1_555 1_555
H21_6 C30_6 1_555 1_555
C31_6 C26_6 1_555 1_555
H22_6 C31_6 1_555 1_555
C32_6 O9_6 1_555 1_555
C33_6 C32_6 1_555 1_555
H23_6 C33_6 1_555 1_555
C34_6 C33_6 1_555 1_555
H24_6 C34_6 1_555 1_555
C35_6 C34_6 1_555 1_555
C36_6 C35_6 1_555 1_555
H25_6 C36_6 1_555 1_555
C37_6 C32_6 1_555 1_555
H26_6 C37_6 1_555 1_555
C38_6 C35_6 1_555 1_555
Zn5_2 O7_4 1_555 1_555
Zn4_2 O6_4 1_555 1_555
C4_6 C5_6 1_555 1_555
C30_6 C31_6 1_555 1_555
C36_6 C37_6 1_555 1_555
N1_6 Zn3_2 1_555 1_555
C1_6 N1_6 1_555 1_555
H1_6 C1_6 1_555 1_555
O14_4 Zn3_2 1_555 1_555
O15_4 Zn3_2 1_555 1_555
O15_3 C38_7 1_555 1_555
O8_4 C38_7 1_555 1_555
O9_7 C29_7 1_555 1_555
C27_7 H19_7 1_555 1_555
C28_7 C27_7 1_555 1_555
H20_7 C28_7 1_555 1_555
C29_7 C28_7 1_555 1_555
C32_7 O9_7 1_555 1_555
C33_7 C32_7 1_555 1_555
H23_7 C33_7 1_555 1_555
C34_7 C33_7 1_555 1_555
H24_7 C34_7 1_555 1_555
C35_7 C34_7 1_555 1_555
C36_7 C35_7 1_555 1_555
H25_7 C36_7 1_555 1_555
C37_7 C32_7 1_555 1_555
H26_7 C37_7 1_555 1_555
C38_7 C35_7 1_555 1_555
Zn5_2 O8_4 1_555 1_555
C36_7 C37_7 1_555 1_555
N1_7 Zn4_2 1_555 1_555
C1_7 N1_7 1_555 1_555
H1_7 C1_7 1_555 1_555
C2_8 C1_7 1_555 1_555
H2_8 C2_8 1_555 1_555
O5_7 C25_7 1_555 1_555
O14_4 C25_7 1_555 1_555
C4_7 C3_7 1_555 1_555
H3_7 C4_7 1_555 1_555
H4_7 C5_7 1_555 1_555
C6_8 C3_7 1_555 1_555
C7_8 C6_8 1_555 1_555
H6_8 C7_8 1_555 1_555
C8_8 C7_8 1_555 1_555
C25_7 C26_7 1_555 1_555
H21_7 C30_7 1_555 1_555
C31_7 C26_7 1_555 1_555
H22_7 C31_7 1_555 1_555
C4_7 C5_7 1_555 1_555
C30_7 C31_7 1_555 1_555
Zn5_2 O5_8 1_555 1_555
O5_8 C25_8 1_555 1_555
O14_3 C25_8 1_555 1_555
O15_4 C38_8 1_555 1_555
O16_4 C38_8 1_555 1_555
O9_8 C29_8 1_555 1_555
N1_8 Zn5_2 1_555 1_555
C1_8 N1_8 1_555 1_555
H1_8 C1_8 1_555 1_555
C4_8 C3_8 1_555 1_555
H3_8 C4_8 1_555 1_555
C5_8 N1_8 1_555 1_555
H4_8 C5_8 1_555 1_555
C25_8 C26_8 1_555 1_555
C26_8 C27_8 1_555 1_555
C27_8 H19_8 1_555 1_555
C28_8 C27_8 1_555 1_555
H20_8 C28_8 1_555 1_555
C29_8 C28_8 1_555 1_555
C30_8 C29_8 1_555 1_555
H21_8 C30_8 1_555 1_555
C31_8 C26_8 1_555 1_555
H22_8 C31_8 1_555 1_555
C32_8 O9_8 1_555 1_555
C33_8 C32_8 1_555 1_555
H23_8 C33_8 1_555 1_555
C34_8 C33_8 1_555 1_555
H24_8 C34_8 1_555 1_555
C35_8 C34_8 1_555 1_555
C36_8 C35_8 1_555 1_555
H25_8 C36_8 1_555 1_555
C37_8 C32_8 1_555 1_555
H26_8 C37_8 1_555 1_555
C38_8 C35_8 1_555 1_555
C4_8 C5_8 1_555 1_555
C30_8 C31_8 1_555 1_555
C36_8 C37_8 1_555 1_555

#END
