
###############################################################################
#
# This file contains modified crystal structure data generated from the
# MOF subset of the Cambridge Structural Database (CSD) v543 
# hosted by the Cambridge Crystallographic Data Centre (CCDC).
#
# This work is licensed under the Creative Commons
# Attribution-NonCommercial-ShareAlike 4.0 International License.
# To view a copy of this license, visit
# http://creativecommons.org/licenses/by-nc-sa/4.0/
# or send a letter to
# Creative Commons, PO Box 1866, Mountain View, CA 94042, USA.
#
# CIF created using the CSD Python API on 29 September 2022
# The structure has been converted into the P1 space group
# The structure has a 3D framework
# The original CSD entry BEDPAE is in the orthorhombic crystal system
# The framework has been calculated to contain at least 10.0% void space
# The void calculation uses a probe of radius 1.32A, grid spacing 0.4
#
###############################################################################

data_BEDPAE
_chemical_formula_moiety         '(C192 H160 Co16 N62 O64)n'
_symmetry_cell_setting           triclinic
_symmetry_space_group_name_H-M   'P 1'
_symmetry_Int_Tables_number      1
_space_group_name_Hall           'P 1'
loop_
_symmetry_equiv_pos_site_id
_symmetry_equiv_pos_as_xyz
1 x,y,z
_cell_length_a                   12.7651(5)
_cell_length_b                   22.9077(8)
_cell_length_c                   23.8902(9)
_cell_angle_alpha                90
_cell_angle_beta                 90
_cell_angle_gamma                90
_cell_volume                     6985.95
loop_
_atom_site_label
_atom_site_type_symbol
_atom_site_fract_x
_atom_site_fract_y
_atom_site_fract_z
Co1 Co 0.3750 0.58735(2) 0.3750
O1 O 0.48615(12) 0.62167(7) 0.42793(7)
O2 O 0.33107(14) 0.66034(8) 0.43905(8)
N1 N 0.54900(14) 0.77655(8) 0.57444(8)
C1 C 0.47006(18) 0.69931(10) 0.49435(10)
C2 C 0.42533(19) 0.65827(10) 0.45142(10)
C3 C 0.44537(19) 0.77155(11) 0.56642(11)
C4 C 0.57764(19) 0.70351(11) 0.50339(11)
H1 H 0.6245 0.6807 0.4831
N2 N 0.38152(17) 0.80381(13) 0.59860(12)
H2 H 0.3176 0.7960 0.5899
H3 H 0.3923 0.7947 0.6330
C5 C 0.40449(19) 0.73325(12) 0.52580(12)
H4 H 0.3325 0.7310 0.5203
C6 C 0.61238(18) 0.74223(11) 0.54304(11)
H5 H 0.6843 0.7451 0.5488
O3 O 0.26385(12) 0.62167(7) 0.32207(7)
O4 O 0.41893(14) 0.66034(8) 0.31095(8)
N3 N 0.20100(14) 0.77655(8) 0.17556(8)
C7 C 0.27994(18) 0.69931(10) 0.25565(10)
C8 C 0.32467(19) 0.65827(10) 0.29858(10)
C9 C 0.30463(19) 0.77155(11) 0.18358(11)
C10 C 0.17236(19) 0.70351(11) 0.24661(11)
H6 H 0.1255 0.6807 0.2669
N4 N 0.36848(17) 0.80381(13) 0.15140(12)
H7 H 0.4324 0.7960 0.1601
H8 H 0.3577 0.7947 0.1170
C11 C 0.34551(19) 0.73325(12) 0.22420(12)
H9 H 0.4175 0.7310 0.2297
C12 C 0.13762(18) 0.74223(11) 0.20696(11)
H10 H 0.0657 0.7451 0.2012
Co2 Co 0.6250 0.83735(2) 0.6250
Co3 Co 0.1250 0.83735(2) 0.1250
N5 N 0.45100(14) 0.52655(8) 0.32444(8)
N6 N 0.29900(14) 0.52655(8) 0.42556(8)
N1_2 N 0.54900(14) 0.27655(8) 0.07444(8)
C3_2 C 0.44537(19) 0.27155(11) 0.06642(11)
C4_2 C 0.57764(19) 0.20351(11) 0.00339(11)
N2_2 N 0.38152(17) 0.30381(13) 0.09860(12)
H2_2 H 0.3176 0.2960 0.0899
H3_2 H 0.3923 0.2947 0.1330
C5_2 C 0.40449(19) 0.23325(12) 0.02580(12)
H4_2 H 0.3325 0.2310 0.0203
C6_2 C 0.61238(18) 0.24223(11) 0.04304(11)
H5_2 H 0.6843 0.2451 0.0488
Co2_2 Co 0.6250 0.33735(2) 0.1250
Co1_2 Co 0.3750 0.08735(2) 0.8750
O1_2 O 0.48615(12) 0.12167(7) 0.92793(7)
O2_2 O 0.33107(14) 0.16034(8) 0.93905(8)
C1_2 C 0.47006(18) 0.19931(10) 0.99435(10)
C2_2 C 0.42533(19) 0.15827(10) 0.95142(10)
H1_2 H 0.6245 0.1807 0.9831
O3_2 O 0.26385(12) 0.12167(7) 0.82207(7)
O4_2 O 0.41893(14) 0.16034(8) 0.81095(8)
N3_2 N 0.20100(14) 0.27655(8) 0.67556(8)
C7_2 C 0.27994(18) 0.19931(10) 0.75565(10)
C8_2 C 0.32467(19) 0.15827(10) 0.79858(10)
C9_2 C 0.30463(19) 0.27155(11) 0.68358(11)
C10_2 C 0.17236(19) 0.20351(11) 0.74661(11)
H6_2 H 0.1255 0.1807 0.7669
N4_2 N 0.36848(17) 0.30381(13) 0.65140(12)
H7_2 H 0.4324 0.2960 0.6601
H8_2 H 0.3577 0.2947 0.6170
C11_2 C 0.34551(19) 0.23325(12) 0.72420(12)
H9_2 H 0.4175 0.2310 0.7297
C12_2 C 0.13762(18) 0.24223(11) 0.70696(11)
H10_2 H 0.0657 0.2451 0.7012
Co3_2 Co 0.1250 0.33735(2) 0.6250
N5_2 N 0.45100(14) 0.02655(8) 0.82444(8)
N6_2 N 0.29900(14) 0.02655(8) 0.92556(8)
N1_3 N 0.04900(14) 0.77655(8) 0.07444(8)
C4_3 C 0.07764(19) 0.70351(11) 0.00339(11)
C6_3 C 0.11238(18) 0.74223(11) 0.04304(11)
H5_3 H 0.1843 0.7451 0.0488
Co1_3 Co 0.8750 0.58735(2) 0.8750
O1_3 O 0.98615(12) 0.62167(7) 0.92793(7)
O2_3 O 0.83107(14) 0.66034(8) 0.93905(8)
C1_3 C 0.97006(18) 0.69931(10) 0.99435(10)
C2_3 C 0.92533(19) 0.65827(10) 0.95142(10)
O3_3 O 0.76385(12) 0.62167(7) 0.82207(7)
O4_3 O 0.91893(14) 0.66034(8) 0.81095(8)
N3_3 N 0.70100(14) 0.77655(8) 0.67556(8)
C7_3 C 0.77994(18) 0.69931(10) 0.75565(10)
C8_3 C 0.82467(19) 0.65827(10) 0.79858(10)
C9_3 C 0.80463(19) 0.77155(11) 0.68358(11)
C10_3 C 0.67236(19) 0.70351(11) 0.74661(11)
H6_3 H 0.6255 0.6807 0.7669
N4_3 N 0.86848(17) 0.80381(13) 0.65140(12)
H7_3 H 0.9324 0.7960 0.6601
H8_3 H 0.8577 0.7947 0.6170
C11_3 C 0.84551(19) 0.73325(12) 0.72420(12)
H9_3 H 0.9175 0.7310 0.7297
C12_3 C 0.63762(18) 0.74223(11) 0.70696(11)
H10_3 H 0.5657 0.7451 0.7012
N5_3 N 0.95100(14) 0.52655(8) 0.82444(8)
N6_3 N 0.79900(14) 0.52655(8) 0.92556(8)
N1_4 N 0.04900(14) 0.27655(8) 0.57444(8)
C4_4 C 0.07764(19) 0.20351(11) 0.50339(11)
H1_3 H 0.1245 0.1807 0.4831
C6_4 C 0.11238(18) 0.24223(11) 0.54304(11)
H5_4 H 0.1843 0.2451 0.5488
Co1_4 Co 0.8750 0.08735(2) 0.3750
O1_4 O 0.98615(12) 0.12167(7) 0.42793(7)
O2_4 O 0.83107(14) 0.16034(8) 0.43905(8)
C1_4 C 0.97006(18) 0.19931(10) 0.49435(10)
C2_4 C 0.92533(19) 0.15827(10) 0.45142(10)
C3_3 C 0.94537(19) 0.27155(11) 0.56642(11)
N2_3 N 0.88152(17) 0.30381(13) 0.59860(12)
H2_3 H 0.8176 0.2960 0.5899
H3_3 H 0.8923 0.2947 0.6330
C5_3 C 0.90449(19) 0.23325(12) 0.52580(12)
H4_3 H 0.8325 0.2310 0.5203
O3_4 O 0.76385(12) 0.12167(7) 0.32207(7)
O4_4 O 0.91893(14) 0.16034(8) 0.31095(8)
N3_4 N 0.70100(14) 0.27655(8) 0.17556(8)
C7_4 C 0.77994(18) 0.19931(10) 0.25565(10)
C8_4 C 0.82467(19) 0.15827(10) 0.29858(10)
C9_4 C 0.80463(19) 0.27155(11) 0.18358(11)
C10_4 C 0.67236(19) 0.20351(11) 0.24661(11)
H6_4 H 0.6255 0.1807 0.2669
N4_4 N 0.86848(17) 0.30381(13) 0.15140(12)
H7_4 H 0.9324 0.2960 0.1601
H8_4 H 0.8577 0.2947 0.1170
C11_4 C 0.84551(19) 0.23325(12) 0.22420(12)
H9_4 H 0.9175 0.2310 0.2297
C12_4 C 0.63762(18) 0.24223(11) 0.20696(11)
H10_4 H 0.5657 0.2451 0.2012
N5_4 N 0.95100(14) 0.02655(8) 0.32444(8)
N6_4 N 0.79900(14) 0.02655(8) 0.42556(8)
C3_4 C 0.69537(19) 0.02155(11) 0.43358(11)
N2_4 N 0.63152(17) 0.05381(13) 0.40140(12)
H2_4 H 0.5676 0.0460 0.4101
H3_4 H 0.6423 0.0447 0.3670
C9_5 C 0.55463(19) 0.02155(11) 0.81642(11)
N4_5 N 0.61848(17) 0.05381(13) 0.84860(12)
H7_5 H 0.6824 0.0460 0.8399
H8_5 H 0.6077 0.0447 0.8830
O1_5 O 0.73615(12) 0.87167(7) 0.57207(7)
O2_5 O 0.58107(14) 0.91034(8) 0.56095(8)
C1_5 C 0.72006(18) 0.94931(10) 0.50565(10)
C2_5 C 0.67533(19) 0.90827(10) 0.54858(10)
C4_5 C 0.82764(19) 0.95351(11) 0.49661(11)
H1_4 H 0.8745 0.9307 0.5169
C5_4 C 0.65449(19) 0.98325(12) 0.47420(12)
H4_4 H 0.5825 0.9810 0.4797
C6_5 C 0.86238(18) 0.99223(11) 0.45696(11)
H5_5 H 0.9343 0.9951 0.4512
O3_5 O 0.51385(12) 0.87167(7) 0.67793(7)
O4_5 O 0.66893(14) 0.91034(8) 0.68905(8)
C7_5 C 0.52994(18) 0.94931(10) 0.74435(10)
C8_5 C 0.57467(19) 0.90827(10) 0.70142(10)
C10_5 C 0.42236(19) 0.95351(11) 0.75339(11)
H6_5 H 0.3755 0.9307 0.7331
C11_5 C 0.59551(19) 0.98325(12) 0.77580(12)
H9_5 H 0.6675 0.9810 0.7703
C12_5 C 0.38762(18) 0.99223(11) 0.79304(11)
H10_5 H 0.3157 0.9951 0.7988
O1_6 O 0.73615(12) 0.37167(7) 0.07207(7)
O2_6 O 0.58107(14) 0.41034(8) 0.06095(8)
C1_6 C 0.72006(18) 0.44931(10) 0.00565(10)
C2_6 C 0.67533(19) 0.40827(10) 0.04858(10)
H1_5 H 0.8745 0.4307 0.0169
O3_6 O 0.51385(12) 0.37167(7) 0.17793(7)
O4_6 O 0.66893(14) 0.41034(8) 0.18905(8)
C7_6 C 0.52994(18) 0.44931(10) 0.24435(10)
C8_6 C 0.57467(19) 0.40827(10) 0.20142(10)
C9_6 C 0.55463(19) 0.52155(11) 0.31642(11)
C10_6 C 0.42236(19) 0.45351(11) 0.25339(11)
H6_6 H 0.3755 0.4307 0.2331
N4_6 N 0.61848(17) 0.55381(13) 0.34860(12)
H7_6 H 0.6824 0.5460 0.3399
H8_6 H 0.6077 0.5447 0.3830
C11_6 C 0.59551(19) 0.48325(12) 0.27580(12)
H9_6 H 0.6675 0.4810 0.2703
C12_6 C 0.38762(18) 0.49223(11) 0.29304(11)
H10_6 H 0.3157 0.4951 0.2988
C3_5 C 0.69537(19) 0.52155(11) 0.93358(11)
C4_6 C 0.82764(19) 0.45351(11) 0.99661(11)
N2_5 N 0.63152(17) 0.55381(13) 0.90140(12)
H2_5 H 0.5676 0.5460 0.9101
H3_5 H 0.6423 0.5447 0.8670
C5_5 C 0.65449(19) 0.48325(12) 0.97420(12)
H4_5 H 0.5825 0.4810 0.9797
C6_6 C 0.86238(18) 0.49223(11) 0.95696(11)
H5_6 H 0.9343 0.4951 0.9512
C3_6 C 0.19537(19) 0.02155(11) 0.93358(11)
N2_6 N 0.13152(17) 0.05381(13) 0.90140(12)
H2_6 H 0.0676 0.0460 0.9101
H3_6 H 0.1423 0.0447 0.8670
O1_7 O 0.23615(12) 0.87167(7) 0.07207(7)
O2_7 O 0.08107(14) 0.91034(8) 0.06095(8)
C1_7 C 0.22006(18) 0.94931(10) 0.00565(10)
C2_7 C 0.17533(19) 0.90827(10) 0.04858(10)
H1_6 H 0.3745 0.9307 0.0169
O3_7 O 0.01385(12) 0.87167(7) 0.17793(7)
O4_7 O 0.16893(14) 0.91034(8) 0.18905(8)
C7_7 C 0.02994(18) 0.94931(10) 0.24435(10)
C8_7 C 0.07467(19) 0.90827(10) 0.20142(10)
C11_7 C 0.09551(19) 0.98325(12) 0.27580(12)
H9_7 H 0.1675 0.9810 0.2703
O1_8 O 0.23615(12) 0.37167(7) 0.57207(7)
O2_8 O 0.08107(14) 0.41034(8) 0.56095(8)
C1_8 C 0.22006(18) 0.44931(10) 0.50565(10)
C2_8 C 0.17533(19) 0.40827(10) 0.54858(10)
C3_7 C 0.19537(19) 0.52155(11) 0.43358(11)
C4_7 C 0.32764(19) 0.45351(11) 0.49661(11)
H1_7 H 0.3745 0.4307 0.5169
N2_7 N 0.13152(17) 0.55381(13) 0.40140(12)
H2_7 H 0.0676 0.5460 0.4101
H3_7 H 0.1423 0.5447 0.3670
C5_6 C 0.15449(19) 0.48325(12) 0.47420(12)
H4_6 H 0.0825 0.4810 0.4797
C6_7 C 0.36238(18) 0.49223(11) 0.45696(11)
H5_7 H 0.4343 0.4951 0.4512
O3_8 O 0.01385(12) 0.37167(7) 0.67793(7)
O4_8 O 0.16893(14) 0.41034(8) 0.68905(8)
C7_8 C 0.02994(18) 0.44931(10) 0.74435(10)
C8_8 C 0.07467(19) 0.40827(10) 0.70142(10)
C9_7 C 0.05463(19) 0.52155(11) 0.81642(11)
N4_7 N 0.11848(17) 0.55381(13) 0.84860(12)
H7_7 H 0.1824 0.5460 0.8399
H8_7 H 0.1077 0.5447 0.8830
C11_8 C 0.09551(19) 0.48325(12) 0.77580(12)
H9_8 H 0.1675 0.4810 0.7703
C10_7 C 0.92236(19) 0.45351(11) 0.75339(11)
H6_7 H 0.8755 0.4307 0.7331
C12_7 C 0.88762(18) 0.49223(11) 0.79304(11)
H10_7 H 0.8157 0.4951 0.7988
Co1_5 Co 0.3750 0.16265(2) 0.3750
O1_9 O 0.26385(12) 0.12833(7) 0.42793(7)
O2_9 O 0.41893(14) 0.08966(8) 0.43905(8)
C1_9 C 0.27994(18) 0.05069(10) 0.49435(10)
C2_9 C 0.32467(19) 0.09173(10) 0.45142(10)
C4_8 C 0.17236(19) 0.04649(11) 0.50339(11)
H1_8 H 0.1255 0.0693 0.4831
C5_7 C 0.34551(19) 0.01675(12) 0.52580(12)
H4_7 H 0.4175 0.0190 0.5203
C6_8 C 0.13762(18) 0.00777(11) 0.54304(11)
H5_8 H 0.0657 0.0049 0.5488
O3_9 O 0.48615(12) 0.12833(7) 0.32207(7)
O4_9 O 0.33107(14) 0.08966(8) 0.31095(8)
C7_9 C 0.47006(18) 0.05069(10) 0.25565(10)
C8_9 C 0.42533(19) 0.09173(10) 0.29858(10)
C10_8 C 0.57764(19) 0.04649(11) 0.24661(11)
H6_8 H 0.6245 0.0693 0.2669
C11_9 C 0.40449(19) 0.01675(12) 0.22420(12)
H9_9 H 0.3325 0.0190 0.2297
C12_8 C 0.61238(18) 0.00777(11) 0.20696(11)
H10_8 H 0.6843 0.0049 0.2012
N5_5 N 0.29900(14) 0.22345(8) 0.32444(8)
N6_5 N 0.45100(14) 0.22345(8) 0.42556(8)
N1_5 N 0.20100(14) 0.97345(8) 0.57444(8)
C3_8 C 0.30463(19) 0.97845(11) 0.56642(11)
N2_8 N 0.36848(17) 0.94619(13) 0.59860(12)
H2_8 H 0.4324 0.9540 0.5899
H3_8 H 0.3577 0.9553 0.6330
N3_5 N 0.54900(14) 0.97345(8) 0.17556(8)
C9_8 C 0.44537(19) 0.97845(11) 0.18358(11)
N4_8 N 0.38152(17) 0.94619(13) 0.15140(12)
H7_8 H 0.3176 0.9540 0.1601
H8_8 H 0.3923 0.9553 0.1170
Co2_3 Co 0.1250 0.91265(2) 0.6250
Co3_3 Co 0.6250 0.91265(2) 0.1250
N1_6 N 0.20100(14) 0.47345(8) 0.07444(8)
C3_9 C 0.30463(19) 0.47845(11) 0.06642(11)
C4_9 C 0.17236(19) 0.54649(11) 0.00339(11)
N2_9 N 0.36848(17) 0.44619(13) 0.09860(12)
H2_9 H 0.4324 0.4540 0.0899
H3_9 H 0.3577 0.4553 0.1330
C5_8 C 0.34551(19) 0.51675(12) 0.02580(12)
H4_8 H 0.4175 0.5190 0.0203
C6_9 C 0.13762(18) 0.50777(11) 0.04304(11)
H5_9 H 0.0657 0.5049 0.0488
Co2_4 Co 0.1250 0.41265(2) 0.1250
Co1_6 Co 0.3750 0.66265(2) 0.8750
O1_10 O 0.26385(12) 0.62833(7) 0.92793(7)
O2_10 O 0.41893(14) 0.58966(8) 0.93905(8)
C1_10 C 0.27994(18) 0.55069(10) 0.99435(10)
C2_10 C 0.32467(19) 0.59173(10) 0.95142(10)
H1_9 H 0.1255 0.5693 0.9831
O3_10 O 0.48615(12) 0.62833(7) 0.82207(7)
O4_10 O 0.33107(14) 0.58966(8) 0.81095(8)
N3_6 N 0.54900(14) 0.47345(8) 0.67556(8)
C7_10 C 0.47006(18) 0.55069(10) 0.75565(10)
C8_10 C 0.42533(19) 0.59173(10) 0.79858(10)
C9_9 C 0.44537(19) 0.47845(11) 0.68358(11)
C10_9 C 0.57764(19) 0.54649(11) 0.74661(11)
H6_9 H 0.6245 0.5693 0.7669
N4_9 N 0.38152(17) 0.44619(13) 0.65140(12)
H7_9 H 0.3176 0.4540 0.6601
H8_9 H 0.3923 0.4553 0.6170
C11_10 C 0.40449(19) 0.51675(12) 0.72420(12)
H9_10 H 0.3325 0.5190 0.7297
C12_9 C 0.61238(18) 0.50777(11) 0.70696(11)
H10_9 H 0.6843 0.5049 0.7012
Co3_4 Co 0.6250 0.41265(2) 0.6250
N5_6 N 0.29900(14) 0.72345(8) 0.82444(8)
N6_6 N 0.45100(14) 0.72345(8) 0.92556(8)
N3_7 N 0.04900(14) 0.97345(8) 0.67556(8)
Co1_7 Co 0.8750 0.16265(2) 0.8750
O1_11 O 0.76385(12) 0.12833(7) 0.92793(7)
O2_11 O 0.91893(14) 0.08966(8) 0.93905(8)
C1_11 C 0.77994(18) 0.05069(10) 0.99435(10)
C2_11 C 0.82467(19) 0.09173(10) 0.95142(10)
H1_10 H 0.6255 0.0693 0.9831
O3_11 O 0.98615(12) 0.12833(7) 0.82207(7)
O4_11 O 0.83107(14) 0.08966(8) 0.81095(8)
C7_11 C 0.97006(18) 0.05069(10) 0.75565(10)
C8_11 C 0.92533(19) 0.09173(10) 0.79858(10)
C11_11 C 0.90449(19) 0.01675(12) 0.72420(12)
H9_11 H 0.8325 0.0190 0.7297
N5_7 N 0.79900(14) 0.22345(8) 0.82444(8)
N6_7 N 0.95100(14) 0.22345(8) 0.92556(8)
N1_7 N 0.70100(14) 0.97345(8) 0.07444(8)
C3_10 C 0.80463(19) 0.97845(11) 0.06642(11)
N2_10 N 0.86848(17) 0.94619(13) 0.09860(12)
H2_10 H 0.9324 0.9540 0.0899
H3_10 H 0.8577 0.9553 0.1330
N3_8 N 0.04900(14) 0.47345(8) 0.17556(8)
C10_10 C 0.07764(19) 0.54649(11) 0.24661(11)
H6_10 H 0.1245 0.5693 0.2669
C12_10 C 0.11238(18) 0.50777(11) 0.20696(11)
H10_10 H 0.1843 0.5049 0.2012
Co1_8 Co 0.8750 0.66265(2) 0.3750
O1_12 O 0.76385(12) 0.62833(7) 0.42793(7)
O2_12 O 0.91893(14) 0.58966(8) 0.43905(8)
N1_8 N 0.70100(14) 0.47345(8) 0.57444(8)
C1_12 C 0.77994(18) 0.55069(10) 0.49435(10)
C2_12 C 0.82467(19) 0.59173(10) 0.45142(10)
C3_11 C 0.80463(19) 0.47845(11) 0.56642(11)
C4_10 C 0.67236(19) 0.54649(11) 0.50339(11)
H1_11 H 0.6255 0.5693 0.4831
N2_11 N 0.86848(17) 0.44619(13) 0.59860(12)
H2_11 H 0.9324 0.4540 0.5899
H3_11 H 0.8577 0.4553 0.6330
C5_9 C 0.84551(19) 0.51675(12) 0.52580(12)
H4_9 H 0.9175 0.5190 0.5203
C6_10 C 0.63762(18) 0.50777(11) 0.54304(11)
H5_10 H 0.5657 0.5049 0.5488
O3_12 O 0.98615(12) 0.62833(7) 0.32207(7)
O4_12 O 0.83107(14) 0.58966(8) 0.31095(8)
C7_12 C 0.97006(18) 0.55069(10) 0.25565(10)
C8_12 C 0.92533(19) 0.59173(10) 0.29858(10)
C9_10 C 0.94537(19) 0.47845(11) 0.18358(11)
N4_10 N 0.88152(17) 0.44619(13) 0.15140(12)
H7_10 H 0.8176 0.4540 0.1601
H8_10 H 0.8923 0.4553 0.1170
C11_12 C 0.90449(19) 0.51675(12) 0.22420(12)
H9_12 H 0.8325 0.5190 0.2297
N5_8 N 0.79900(14) 0.72345(8) 0.32444(8)
N6_8 N 0.95100(14) 0.72345(8) 0.42556(8)
O1_13 O 0.51385(12) 0.37833(7) 0.57207(7)
O2_13 O 0.66893(14) 0.33966(8) 0.56095(8)
C1_13 C 0.52994(18) 0.30069(10) 0.50565(10)
C2_13 C 0.57467(19) 0.34173(10) 0.54858(10)
C3_12 C 0.55463(19) 0.22845(11) 0.43358(11)
C4_11 C 0.42236(19) 0.29649(11) 0.49661(11)
H1_12 H 0.3755 0.3193 0.5169
N2_12 N 0.61848(17) 0.19619(13) 0.40140(12)
H2_12 H 0.6824 0.2040 0.4101
H3_12 H 0.6077 0.2053 0.3670
C5_10 C 0.59551(19) 0.26675(12) 0.47420(12)
H4_10 H 0.6675 0.2690 0.4797
C6_11 C 0.38762(18) 0.25777(11) 0.45696(11)
H5_11 H 0.3157 0.2549 0.4512
O3_13 O 0.73615(12) 0.37833(7) 0.67793(7)
O4_13 O 0.58107(14) 0.33966(8) 0.68905(8)
C7_13 C 0.72006(18) 0.30069(10) 0.74435(10)
C8_13 C 0.67533(19) 0.34173(10) 0.70142(10)
C9_11 C 0.69537(19) 0.22845(11) 0.81642(11)
C10_11 C 0.82764(19) 0.29649(11) 0.75339(11)
H6_11 H 0.8745 0.3193 0.7331
N4_11 N 0.63152(17) 0.19619(13) 0.84860(12)
H7_11 H 0.5676 0.2040 0.8399
H8_11 H 0.6423 0.2053 0.8830
C11_13 C 0.65449(19) 0.26675(12) 0.77580(12)
H9_13 H 0.5825 0.2690 0.7703
C12_11 C 0.86238(18) 0.25777(11) 0.79304(11)
H10_11 H 0.9343 0.2549 0.7988
O1_14 O 0.51385(12) 0.87833(7) 0.07207(7)
O2_14 O 0.66893(14) 0.83966(8) 0.06095(8)
C1_14 C 0.52994(18) 0.80069(10) 0.00565(10)
C2_14 C 0.57467(19) 0.84173(10) 0.04858(10)
H1_13 H 0.3755 0.8193 0.0169
O3_14 O 0.73615(12) 0.87833(7) 0.17793(7)
O4_14 O 0.58107(14) 0.83966(8) 0.18905(8)
C7_14 C 0.72006(18) 0.80069(10) 0.24435(10)
C8_14 C 0.67533(19) 0.84173(10) 0.20142(10)
C9_12 C 0.69537(19) 0.72845(11) 0.31642(11)
C10_12 C 0.82764(19) 0.79649(11) 0.25339(11)
H6_12 H 0.8745 0.8193 0.2331
N4_12 N 0.63152(17) 0.69619(13) 0.34860(12)
H7_12 H 0.5676 0.7040 0.3399
H8_12 H 0.6423 0.7053 0.3830
C11_14 C 0.65449(19) 0.76675(12) 0.27580(12)
H9_14 H 0.5825 0.7690 0.2703
C12_12 C 0.86238(18) 0.75777(11) 0.29304(11)
H10_12 H 0.9343 0.7549 0.2988
C3_13 C 0.55463(19) 0.72845(11) 0.93358(11)
C4_12 C 0.42236(19) 0.79649(11) 0.99661(11)
N2_13 N 0.61848(17) 0.69619(13) 0.90140(12)
H2_13 H 0.6824 0.7040 0.9101
H3_13 H 0.6077 0.7053 0.8670
C5_11 C 0.59551(19) 0.76675(12) 0.97420(12)
H4_11 H 0.6675 0.7690 0.9797
C6_12 C 0.38762(18) 0.75777(11) 0.95696(11)
H5_12 H 0.3157 0.7549 0.9512
O1_15 O 0.01385(12) 0.37833(7) 0.07207(7)
O2_15 O 0.16893(14) 0.33966(8) 0.06095(8)
C1_15 C 0.02994(18) 0.30069(10) 0.00565(10)
C2_15 C 0.07467(19) 0.34173(10) 0.04858(10)
O3_15 O 0.23615(12) 0.37833(7) 0.17793(7)
O4_15 O 0.08107(14) 0.33966(8) 0.18905(8)
C7_15 C 0.22006(18) 0.30069(10) 0.24435(10)
C8_15 C 0.17533(19) 0.34173(10) 0.20142(10)
C9_13 C 0.19537(19) 0.22845(11) 0.31642(11)
C10_13 C 0.32764(19) 0.29649(11) 0.25339(11)
H6_13 H 0.3745 0.3193 0.2331
N4_13 N 0.13152(17) 0.19619(13) 0.34860(12)
H7_13 H 0.0676 0.2040 0.3399
H8_13 H 0.1423 0.2053 0.3830
C11_15 C 0.15449(19) 0.26675(12) 0.27580(12)
H9_15 H 0.0825 0.2690 0.2703
C12_13 C 0.36238(18) 0.25777(11) 0.29304(11)
H10_13 H 0.4343 0.2549 0.2988
C4_13 C 0.92236(19) 0.29649(11) 0.99661(11)
C6_13 C 0.88762(18) 0.25777(11) 0.95696(11)
H5_13 H 0.8157 0.2549 0.9512
O1_16 O 0.01385(12) 0.87833(7) 0.57207(7)
O2_16 O 0.16893(14) 0.83966(8) 0.56095(8)
C1_16 C 0.02994(18) 0.80069(10) 0.50565(10)
C2_16 C 0.07467(19) 0.84173(10) 0.54858(10)
C3_14 C 0.05463(19) 0.72845(11) 0.43358(11)
N2_14 N 0.11848(17) 0.69619(13) 0.40140(12)
H2_14 H 0.1824 0.7040 0.4101
H3_14 H 0.1077 0.7053 0.3670
C5_12 C 0.09551(19) 0.76675(12) 0.47420(12)
H4_12 H 0.1675 0.7690 0.4797
O3_16 O 0.23615(12) 0.87833(7) 0.67793(7)
O4_16 O 0.08107(14) 0.83966(8) 0.68905(8)
C7_16 C 0.22006(18) 0.80069(10) 0.74435(10)
C8_16 C 0.17533(19) 0.84173(10) 0.70142(10)
C9_14 C 0.19537(19) 0.72845(11) 0.81642(11)
C10_14 C 0.32764(19) 0.79649(11) 0.75339(11)
H6_14 H 0.3745 0.8193 0.7331
N4_14 N 0.13152(17) 0.69619(13) 0.84860(12)
H7_14 H 0.0676 0.7040 0.8399
H8_14 H 0.1423 0.7053 0.8830
C11_16 C 0.15449(19) 0.76675(12) 0.77580(12)
H9_16 H 0.0825 0.7690 0.7703
C12_14 C 0.36238(18) 0.75777(11) 0.79304(11)
H10_14 H 0.4343 0.7549 0.7988
C4_14 C 0.92236(19) 0.79649(11) 0.49661(11)
H1_14 H 0.8755 0.8193 0.5169
C6_14 C 0.88762(18) 0.75777(11) 0.45696(11)
H5_14 H 0.8157 0.7549 0.4512
H1_15 H 0.1245 0.6807 0.9831
C3_15 C 0.94537(19) 0.77155(11) 0.06642(11)
N2_15 N 0.88152(17) 0.80381(13) 0.09860(12)
H2_15 H 0.8176 0.7960 0.0899
H3_15 H 0.8923 0.7947 0.1330
C5_13 C 0.90449(19) 0.73325(12) 0.02580(12)
H4_13 H 0.8325 0.7310 0.0203
C10_15 C 0.07764(19) 0.04649(11) 0.74661(11)
H6_15 H 0.1245 0.0693 0.7669
C12_15 C 0.11238(18) 0.00777(11) 0.70696(11)
H10_15 H 0.1843 0.0049 0.7012
C4_15 C 0.67236(19) 0.04649(11) 0.00339(11)
C5_14 C 0.84551(19) 0.01675(12) 0.02580(12)
H4_14 H 0.9175 0.0190 0.0203
C6_15 C 0.63762(18) 0.00777(11) 0.04304(11)
H5_15 H 0.5657 0.0049 0.0488
C9_15 C 0.94537(19) 0.97845(11) 0.68358(11)
N4_15 N 0.88152(17) 0.94619(13) 0.65140(12)
H7_15 H 0.8176 0.9540 0.6601
H8_15 H 0.8923 0.9553 0.6170
C3_16 C 0.05463(19) 0.22845(11) 0.93358(11)
N2_16 N 0.11848(17) 0.19619(13) 0.90140(12)
H2_16 H 0.1824 0.2040 0.9101
H3_16 H 0.1077 0.2053 0.8670
C5_15 C 0.09551(19) 0.26675(12) 0.97420(12)
H4_15 H 0.1675 0.2690 0.9797
H1_16 H 0.8755 0.3193 0.0169
C9_16 C 0.05463(19) 0.02155(11) 0.31642(11)
N4_16 N 0.11848(17) 0.05381(13) 0.34860(12)
H7_16 H 0.1824 0.0460 0.3399
H8_16 H 0.1077 0.0447 0.3830
C4_16 C 0.32764(19) 0.95351(11) 0.99661(11)
C5_16 C 0.15449(19) 0.98325(12) 0.97420(12)
H4_16 H 0.0825 0.9810 0.9797
C6_16 C 0.36238(18) 0.99223(11) 0.95696(11)
H5_16 H 0.4343 0.9951 0.9512
C10_16 C 0.92236(19) 0.95351(11) 0.25339(11)
H6_16 H 0.8755 0.9307 0.2331
C12_16 C 0.88762(18) 0.99223(11) 0.29304(11)
H10_16 H 0.8157 0.9951 0.2988
loop_
_geom_bond_atom_site_label_1
_geom_bond_atom_site_label_2
_geom_bond_site_symmetry_1
_geom_bond_site_symmetry_2
Co1 O1 1_555 1_555
O1 C2 1_555 1_555
O2 Co1 1_555 1_555
N1 C3 1_555 1_555
C1 C2 1_555 1_555
C2 O2 1_555 1_555
C3 N2 1_555 1_555
C4 C1 1_555 1_555
H1 C4 1_555 1_555
N2 H2 1_555 1_555
H3 N2 1_555 1_555
C5 C1 1_555 1_555
H4 C5 1_555 1_555
C6 N1 1_555 1_555
H5 C6 1_555 1_555
O3 Co1 1_555 1_555
O4 Co1 1_555 1_555
N3 C9 1_555 1_555
C7 C8 1_555 1_555
C8 O3 1_555 1_555
C9 N4 1_555 1_555
C10 C7 1_555 1_555
H6 C10 1_555 1_555
N4 H7 1_555 1_555
H8 N4 1_555 1_555
C11 C7 1_555 1_555
H9 C11 1_555 1_555
C12 N3 1_555 1_555
H10 C12 1_555 1_555
Co2 N1 1_555 1_555
Co3 N3 1_555 1_555
N5 Co1 1_555 1_555
N6 Co1 1_555 1_555
C3 C5 1_555 1_555
C4 C6 1_555 1_555
O4 C8 1_555 1_555
C9 C11 1_555 1_555
C10 C12 1_555 1_555
N1_2 C3_2 1_555 1_555
C3_2 N2_2 1_555 1_555
N2_2 H2_2 1_555 1_555
H3_2 N2_2 1_555 1_555
H4_2 C5_2 1_555 1_555
C6_2 N1_2 1_555 1_555
H5_2 C6_2 1_555 1_555
Co2_2 N1_2 1_555 1_555
C3_2 C5_2 1_555 1_555
C4_2 C6_2 1_555 1_555
Co1_2 O1_2 1_555 1_555
O1_2 C2_2 1_555 1_555
O2_2 Co1_2 1_555 1_555
C1_2 C2_2 1_555 1_555
C2_2 O2_2 1_555 1_555
O3_2 Co1_2 1_555 1_555
O4_2 Co1_2 1_555 1_555
N3_2 C9_2 1_555 1_555
C7_2 C8_2 1_555 1_555
C8_2 O3_2 1_555 1_555
C9_2 N4_2 1_555 1_555
C10_2 C7_2 1_555 1_555
H6_2 C10_2 1_555 1_555
N4_2 H7_2 1_555 1_555
H8_2 N4_2 1_555 1_555
C11_2 C7_2 1_555 1_555
H9_2 C11_2 1_555 1_555
C12_2 N3_2 1_555 1_555
H10_2 C12_2 1_555 1_555
Co3_2 N3_2 1_555 1_555
N5_2 Co1_2 1_555 1_555
N6_2 Co1_2 1_555 1_555
O4_2 C8_2 1_555 1_555
C9_2 C11_2 1_555 1_555
C10_2 C12_2 1_555 1_555
C6_3 N1_3 1_555 1_555
H5_3 C6_3 1_555 1_555
Co3 N1_3 1_555 1_555
C4_3 C6_3 1_555 1_555
Co1_3 O1_3 1_555 1_555
O1_3 C2_3 1_555 1_555
O2_3 Co1_3 1_555 1_555
C1_3 C2_3 1_555 1_555
C2_3 O2_3 1_555 1_555
O3_3 Co1_3 1_555 1_555
O4_3 Co1_3 1_555 1_555
N3_3 C9_3 1_555 1_555
C7_3 C8_3 1_555 1_555
C8_3 O3_3 1_555 1_555
C9_3 N4_3 1_555 1_555
C10_3 C7_3 1_555 1_555
H6_3 C10_3 1_555 1_555
N4_3 H7_3 1_555 1_555
H8_3 N4_3 1_555 1_555
C11_3 C7_3 1_555 1_555
H9_3 C11_3 1_555 1_555
C12_3 N3_3 1_555 1_555
H10_3 C12_3 1_555 1_555
Co2 N3_3 1_555 1_555
N5_3 Co1_3 1_555 1_555
N6_3 Co1_3 1_555 1_555
O4_3 C8_3 1_555 1_555
C9_3 C11_3 1_555 1_555
C10_3 C12_3 1_555 1_555
H1_3 C4_4 1_555 1_555
C6_4 N1_4 1_555 1_555
H5_4 C6_4 1_555 1_555
Co3_2 N1_4 1_555 1_555
C4_4 C6_4 1_555 1_555
Co1_4 O1_4 1_555 1_555
O1_4 C2_4 1_555 1_555
O2_4 Co1_4 1_555 1_555
C1_4 C2_4 1_555 1_555
C2_4 O2_4 1_555 1_555
C3_3 N2_3 1_555 1_555
N2_3 H2_3 1_555 1_555
H3_3 N2_3 1_555 1_555
C5_3 C1_4 1_555 1_555
H4_3 C5_3 1_555 1_555
O3_4 Co1_4 1_555 1_555
O4_4 Co1_4 1_555 1_555
N3_4 C9_4 1_555 1_555
C7_4 C8_4 1_555 1_555
C8_4 O3_4 1_555 1_555
C9_4 N4_4 1_555 1_555
C10_4 C7_4 1_555 1_555
H6_4 C10_4 1_555 1_555
N4_4 H7_4 1_555 1_555
H8_4 N4_4 1_555 1_555
C11_4 C7_4 1_555 1_555
H9_4 C11_4 1_555 1_555
C12_4 N3_4 1_555 1_555
H10_4 C12_4 1_555 1_555
Co2_2 N3_4 1_555 1_555
N5_4 Co1_4 1_555 1_555
N6_4 Co1_4 1_555 1_555
C3_3 C5_3 1_555 1_555
O4_4 C8_4 1_555 1_555
C9_4 C11_4 1_555 1_555
C10_4 C12_4 1_555 1_555
N6_4 C3_4 1_555 1_555
C3_4 N2_4 1_555 1_555
N2_4 H2_4 1_555 1_555
H3_4 N2_4 1_555 1_555
N5_2 C9_5 1_555 1_555
C9_5 N4_5 1_555 1_555
N4_5 H7_5 1_555 1_555
H8_5 N4_5 1_555 1_555
Co2 O1_5 1_555 1_555
O1_5 C2_5 1_555 1_555
O2_5 Co2 1_555 1_555
C1_5 C2_5 1_555 1_555
C2_5 O2_5 1_555 1_555
C4_5 C1_5 1_555 1_555
H1_4 C4_5 1_555 1_555
C5_4 C1_5 1_555 1_555
H4_4 C5_4 1_555 1_555
H5_5 C6_5 1_555 1_555
O3_5 Co2 1_555 1_555
O4_5 Co2 1_555 1_555
C7_5 C8_5 1_555 1_555
C8_5 O3_5 1_555 1_555
C10_5 C7_5 1_555 1_555
H6_5 C10_5 1_555 1_555
C11_5 C7_5 1_555 1_555
H9_5 C11_5 1_555 1_555
H10_5 C12_5 1_555 1_555
C4_5 C6_5 1_555 1_555
O4_5 C8_5 1_555 1_555
C10_5 C12_5 1_555 1_555
Co2_2 O1_6 1_555 1_555
O1_6 C2_6 1_555 1_555
O2_6 Co2_2 1_555 1_555
C1_6 C2_6 1_555 1_555
C2_6 O2_6 1_555 1_555
O3_6 Co2_2 1_555 1_555
O4_6 Co2_2 1_555 1_555
N5 C9_6 1_555 1_555
C7_6 C8_6 1_555 1_555
C8_6 O3_6 1_555 1_555
C9_6 N4_6 1_555 1_555
C10_6 C7_6 1_555 1_555
H6_6 C10_6 1_555 1_555
N4_6 H7_6 1_555 1_555
H8_6 N4_6 1_555 1_555
C11_6 C7_6 1_555 1_555
H9_6 C11_6 1_555 1_555
C12_6 N5 1_555 1_555
H10_6 C12_6 1_555 1_555
O4_6 C8_6 1_555 1_555
C9_6 C11_6 1_555 1_555
C10_6 C12_6 1_555 1_555
N6_3 C3_5 1_555 1_555
C3_5 N2_5 1_555 1_555
N2_5 H2_5 1_555 1_555
H3_5 N2_5 1_555 1_555
H4_5 C5_5 1_555 1_555
C6_6 N6_3 1_555 1_555
H5_6 C6_6 1_555 1_555
C3_5 C5_5 1_555 1_555
C4_6 C6_6 1_555 1_555
N6_2 C3_6 1_555 1_555
C3_6 N2_6 1_555 1_555
N2_6 H2_6 1_555 1_555
H3_6 N2_6 1_555 1_555
Co3 O1_7 1_555 1_555
O1_7 C2_7 1_555 1_555
O2_7 Co3 1_555 1_555
C1_7 C2_7 1_555 1_555
C2_7 O2_7 1_555 1_555
O3_7 Co3 1_555 1_555
O4_7 Co3 1_555 1_555
C7_7 C8_7 1_555 1_555
C8_7 O3_7 1_555 1_555
C11_7 C7_7 1_555 1_555
H9_7 C11_7 1_555 1_555
O4_7 C8_7 1_555 1_555
Co3_2 O1_8 1_555 1_555
O1_8 C2_8 1_555 1_555
O2_8 Co3_2 1_555 1_555
N6 C3_7 1_555 1_555
C1_8 C2_8 1_555 1_555
C2_8 O2_8 1_555 1_555
C3_7 N2_7 1_555 1_555
C4_7 C1_8 1_555 1_555
H1_7 C4_7 1_555 1_555
N2_7 H2_7 1_555 1_555
H3_7 N2_7 1_555 1_555
C5_6 C1_8 1_555 1_555
H4_6 C5_6 1_555 1_555
C6_7 N6 1_555 1_555
H5_7 C6_7 1_555 1_555
O3_8 Co3_2 1_555 1_555
O4_8 Co3_2 1_555 1_555
C7_8 C8_8 1_555 1_555
C8_8 O3_8 1_555 1_555
C9_7 N4_7 1_555 1_555
N4_7 H7_7 1_555 1_555
H8_7 N4_7 1_555 1_555
C11_8 C7_8 1_555 1_555
H9_8 C11_8 1_555 1_555
C3_7 C5_6 1_555 1_555
C4_7 C6_7 1_555 1_555
O4_8 C8_8 1_555 1_555
C9_7 C11_8 1_555 1_555
H6_7 C10_7 1_555 1_555
C12_7 N5_3 1_555 1_555
H10_7 C12_7 1_555 1_555
C10_7 C12_7 1_555 1_555
Co1_5 O1_9 1_555 1_555
O1_9 C2_9 1_555 1_555
O2_9 Co1_5 1_555 1_555
C1_9 C2_9 1_555 1_555
C2_9 O2_9 1_555 1_555
C4_8 C1_9 1_555 1_555
H1_8 C4_8 1_555 1_555
C5_7 C1_9 1_555 1_555
H4_7 C5_7 1_555 1_555
H5_8 C6_8 1_555 1_555
O3_9 Co1_5 1_555 1_555
O4_9 Co1_5 1_555 1_555
C7_9 C8_9 1_555 1_555
C8_9 O3_9 1_555 1_555
C10_8 C7_9 1_555 1_555
H6_8 C10_8 1_555 1_555
C11_9 C7_9 1_555 1_555
H9_9 C11_9 1_555 1_555
H10_8 C12_8 1_555 1_555
N5_5 Co1_5 1_555 1_555
N6_5 Co1_5 1_555 1_555
C4_8 C6_8 1_555 1_555
O4_9 C8_9 1_555 1_555
C10_8 C12_8 1_555 1_555
N1_5 C3_8 1_555 1_555
C3_8 N2_8 1_555 1_555
N2_8 H2_8 1_555 1_555
H3_8 N2_8 1_555 1_555
N3_5 C9_8 1_555 1_555
C9_8 N4_8 1_555 1_555
N4_8 H7_8 1_555 1_555
H8_8 N4_8 1_555 1_555
Co2_3 N1_5 1_555 1_555
Co3_3 N3_5 1_555 1_555
N1_6 C3_9 1_555 1_555
C3_9 N2_9 1_555 1_555
N2_9 H2_9 1_555 1_555
H3_9 N2_9 1_555 1_555
H4_8 C5_8 1_555 1_555
C6_9 N1_6 1_555 1_555
H5_9 C6_9 1_555 1_555
Co2_4 N1_6 1_555 1_555
C3_9 C5_8 1_555 1_555
C4_9 C6_9 1_555 1_555
Co1_6 O1_10 1_555 1_555
O1_10 C2_10 1_555 1_555
O2_10 Co1_6 1_555 1_555
C1_10 C2_10 1_555 1_555
C2_10 O2_10 1_555 1_555
O3_10 Co1_6 1_555 1_555
O4_10 Co1_6 1_555 1_555
N3_6 C9_9 1_555 1_555
C7_10 C8_10 1_555 1_555
C8_10 O3_10 1_555 1_555
C9_9 N4_9 1_555 1_555
C10_9 C7_10 1_555 1_555
H6_9 C10_9 1_555 1_555
N4_9 H7_9 1_555 1_555
H8_9 N4_9 1_555 1_555
C11_10 C7_10 1_555 1_555
H9_10 C11_10 1_555 1_555
C12_9 N3_6 1_555 1_555
H10_9 C12_9 1_555 1_555
Co3_4 N3_6 1_555 1_555
N5_6 Co1_6 1_555 1_555
N6_6 Co1_6 1_555 1_555
O4_10 C8_10 1_555 1_555
C9_9 C11_10 1_555 1_555
C10_9 C12_9 1_555 1_555
Co2_3 N3_7 1_555 1_555
Co1_7 O1_11 1_555 1_555
O1_11 C2_11 1_555 1_555
O2_11 Co1_7 1_555 1_555
C1_11 C2_11 1_555 1_555
C2_11 O2_11 1_555 1_555
O3_11 Co1_7 1_555 1_555
O4_11 Co1_7 1_555 1_555
C7_11 C8_11 1_555 1_555
C8_11 O3_11 1_555 1_555
C11_11 C7_11 1_555 1_555
H9_11 C11_11 1_555 1_555
N5_7 Co1_7 1_555 1_555
N6_7 Co1_7 1_555 1_555
O4_11 C8_11 1_555 1_555
N1_7 C3_10 1_555 1_555
C3_10 N2_10 1_555 1_555
N2_10 H2_10 1_555 1_555
H3_10 N2_10 1_555 1_555
Co3_3 N1_7 1_555 1_555
H6_10 C10_10 1_555 1_555
C12_10 N3_8 1_555 1_555
H10_10 C12_10 1_555 1_555
Co2_4 N3_8 1_555 1_555
C10_10 C12_10 1_555 1_555
Co1_8 O1_12 1_555 1_555
O1_12 C2_12 1_555 1_555
O2_12 Co1_8 1_555 1_555
N1_8 C3_11 1_555 1_555
C1_12 C2_12 1_555 1_555
C2_12 O2_12 1_555 1_555
C3_11 N2_11 1_555 1_555
C4_10 C1_12 1_555 1_555
H1_11 C4_10 1_555 1_555
N2_11 H2_11 1_555 1_555
H3_11 N2_11 1_555 1_555
C5_9 C1_12 1_555 1_555
H4_9 C5_9 1_555 1_555
C6_10 N1_8 1_555 1_555
H5_10 C6_10 1_555 1_555
O3_12 Co1_8 1_555 1_555
O4_12 Co1_8 1_555 1_555
C7_12 C8_12 1_555 1_555
C8_12 O3_12 1_555 1_555
C9_10 N4_10 1_555 1_555
N4_10 H7_10 1_555 1_555
H8_10 N4_10 1_555 1_555
C11_12 C7_12 1_555 1_555
H9_12 C11_12 1_555 1_555
Co3_4 N1_8 1_555 1_555
N5_8 Co1_8 1_555 1_555
N6_8 Co1_8 1_555 1_555
C3_11 C5_9 1_555 1_555
C4_10 C6_10 1_555 1_555
O4_12 C8_12 1_555 1_555
C9_10 C11_12 1_555 1_555
Co3_4 O1_13 1_555 1_555
O1_13 C2_13 1_555 1_555
O2_13 Co3_4 1_555 1_555
N6_5 C3_12 1_555 1_555
C1_13 C2_13 1_555 1_555
C2_13 O2_13 1_555 1_555
C3_12 N2_12 1_555 1_555
C4_11 C1_13 1_555 1_555
H1_12 C4_11 1_555 1_555
N2_12 H2_12 1_555 1_555
H3_12 N2_12 1_555 1_555
C5_10 C1_13 1_555 1_555
H4_10 C5_10 1_555 1_555
C6_11 N6_5 1_555 1_555
H5_11 C6_11 1_555 1_555
O3_13 Co3_4 1_555 1_555
O4_13 Co3_4 1_555 1_555
N5_7 C9_11 1_555 1_555
C7_13 C8_13 1_555 1_555
C8_13 O3_13 1_555 1_555
C9_11 N4_11 1_555 1_555
C10_11 C7_13 1_555 1_555
H6_11 C10_11 1_555 1_555
N4_11 H7_11 1_555 1_555
H8_11 N4_11 1_555 1_555
C11_13 C7_13 1_555 1_555
H9_13 C11_13 1_555 1_555
C12_11 N5_7 1_555 1_555
H10_11 C12_11 1_555 1_555
C3_12 C5_10 1_555 1_555
C4_11 C6_11 1_555 1_555
O4_13 C8_13 1_555 1_555
C9_11 C11_13 1_555 1_555
C10_11 C12_11 1_555 1_555
Co3_3 O1_14 1_555 1_555
O1_14 C2_14 1_555 1_555
O2_14 Co3_3 1_555 1_555
C1_14 C2_14 1_555 1_555
C2_14 O2_14 1_555 1_555
O3_14 Co3_3 1_555 1_555
O4_14 Co3_3 1_555 1_555
N5_8 C9_12 1_555 1_555
C7_14 C8_14 1_555 1_555
C8_14 O3_14 1_555 1_555
C9_12 N4_12 1_555 1_555
C10_12 C7_14 1_555 1_555
H6_12 C10_12 1_555 1_555
N4_12 H7_12 1_555 1_555
H8_12 N4_12 1_555 1_555
C11_14 C7_14 1_555 1_555
H9_14 C11_14 1_555 1_555
C12_12 N5_8 1_555 1_555
H10_12 C12_12 1_555 1_555
O4_14 C8_14 1_555 1_555
C9_12 C11_14 1_555 1_555
C10_12 C12_12 1_555 1_555
N6_6 C3_13 1_555 1_555
C3_13 N2_13 1_555 1_555
N2_13 H2_13 1_555 1_555
H3_13 N2_13 1_555 1_555
H4_11 C5_11 1_555 1_555
C6_12 N6_6 1_555 1_555
H5_12 C6_12 1_555 1_555
C3_13 C5_11 1_555 1_555
C4_12 C6_12 1_555 1_555
Co2_4 O1_15 1_555 1_555
O1_15 C2_15 1_555 1_555
O2_15 Co2_4 1_555 1_555
C1_15 C2_15 1_555 1_555
C2_15 O2_15 1_555 1_555
O3_15 Co2_4 1_555 1_555
O4_15 Co2_4 1_555 1_555
N5_5 C9_13 1_555 1_555
C7_15 C8_15 1_555 1_555
C8_15 O3_15 1_555 1_555
C9_13 N4_13 1_555 1_555
C10_13 C7_15 1_555 1_555
H6_13 C10_13 1_555 1_555
N4_13 H7_13 1_555 1_555
H8_13 N4_13 1_555 1_555
C11_15 C7_15 1_555 1_555
H9_15 C11_15 1_555 1_555
C12_13 N5_5 1_555 1_555
H10_13 C12_13 1_555 1_555
O4_15 C8_15 1_555 1_555
C9_13 C11_15 1_555 1_555
C10_13 C12_13 1_555 1_555
C6_13 N6_7 1_555 1_555
H5_13 C6_13 1_555 1_555
C4_13 C6_13 1_555 1_555
Co2_3 O1_16 1_555 1_555
O1_16 C2_16 1_555 1_555
O2_16 Co2_3 1_555 1_555
C1_16 C2_16 1_555 1_555
C2_16 O2_16 1_555 1_555
C3_14 N2_14 1_555 1_555
N2_14 H2_14 1_555 1_555
H3_14 N2_14 1_555 1_555
C5_12 C1_16 1_555 1_555
H4_12 C5_12 1_555 1_555
O3_16 Co2_3 1_555 1_555
O4_16 Co2_3 1_555 1_555
N5_6 C9_14 1_555 1_555
C7_16 C8_16 1_555 1_555
C8_16 O3_16 1_555 1_555
C9_14 N4_14 1_555 1_555
C10_14 C7_16 1_555 1_555
H6_14 C10_14 1_555 1_555
N4_14 H7_14 1_555 1_555
H8_14 N4_14 1_555 1_555
C11_16 C7_16 1_555 1_555
H9_16 C11_16 1_555 1_555
C12_14 N5_6 1_555 1_555
H10_14 C12_14 1_555 1_555
C3_14 C5_12 1_555 1_555
O4_16 C8_16 1_555 1_555
C9_14 C11_16 1_555 1_555
C10_14 C12_14 1_555 1_555
H1_14 C4_14 1_555 1_555
C6_14 N6_8 1_555 1_555
H5_14 C6_14 1_555 1_555
C4_14 C6_14 1_555 1_555
C3_15 N2_15 1_555 1_555
N2_15 H2_15 1_555 1_555
H3_15 N2_15 1_555 1_555
H4_13 C5_13 1_555 1_555
C3_15 C5_13 1_555 1_555
H6_15 C10_15 1_555 1_555
H10_15 C12_15 1_555 1_555
C10_15 C12_15 1_555 1_555
H4_14 C5_14 1_555 1_555
H5_15 C6_15 1_555 1_555
C4_15 C6_15 1_555 1_555
C9_15 N4_15 1_555 1_555
N4_15 H7_15 1_555 1_555
H8_15 N4_15 1_555 1_555
C3_16 N2_16 1_555 1_555
N2_16 H2_16 1_555 1_555
H3_16 N2_16 1_555 1_555
H4_15 C5_15 1_555 1_555
C3_16 C5_15 1_555 1_555
C9_16 N4_16 1_555 1_555
N4_16 H7_16 1_555 1_555
H8_16 N4_16 1_555 1_555
H4_16 C5_16 1_555 1_555
H5_16 C6_16 1_555 1_555
C4_16 C6_16 1_555 1_555
H6_16 C10_16 1_555 1_555
H10_16 C12_16 1_555 1_555
C10_16 C12_16 1_555 1_555

#END
