
###############################################################################
#
# This file contains modified crystal structure data generated from the
# MOF subset of the Cambridge Structural Database (CSD) v543 
# hosted by the Cambridge Crystallographic Data Centre (CCDC).
#
# This work is licensed under the Creative Commons
# Attribution-NonCommercial-ShareAlike 4.0 International License.
# To view a copy of this license, visit
# http://creativecommons.org/licenses/by-nc-sa/4.0/
# or send a letter to
# Creative Commons, PO Box 1866, Mountain View, CA 94042, USA.
#
# CIF created using the CSD Python API on 29 September 2022
# The structure has been converted into the P1 space group
# The structure has a 3D framework
# The original CSD entry BEDYEQ is in the hexagonal crystal system
# The framework has been calculated to contain at least 10.0% void space
# The void calculation uses a probe of radius 1.32A, grid spacing 0.4
# H atom positions have been added when not included in the experimental data
# Generated hydrogen atom positions removed from atoms on special positions
#
###############################################################################

data_BEDYEQ
_chemical_formula_moiety         '(C288 H240 Cl6 Fe6 N24 O124 Zr32)n'
_symmetry_cell_setting           triclinic
_symmetry_space_group_name_H-M   'P 1'
_symmetry_Int_Tables_number      1
_space_group_name_Hall           'P 1'
loop_
_symmetry_equiv_pos_site_id
_symmetry_equiv_pos_as_xyz
1 x,y,z
_cell_length_a                   41.968(7)
_cell_length_b                   41.968(7)
_cell_length_c                   17.143(2)
_cell_angle_alpha                90
_cell_angle_beta                 90
_cell_angle_gamma                120
_cell_volume                     26148.9
loop_
_atom_site_label
_atom_site_type_symbol
_atom_site_fract_x
_atom_site_fract_y
_atom_site_fract_z
Zr10 Zr 0.533821(9) 0.466178(20) 0.0000
Zr11 Zr 0.533821(9) 0.067643(18) 0.0000
Zr1 Zr 0.457975(13) 0.0000 0.10266(3)
Fe1 Fe 0.51200(7) 0.25600(3) 0.5000
O1 O 0.51645(6) 0.03289(11) 0.1031(3)
O2 O 0.47404(12) 0.03385(11) 0.0000
O3 O 0.51760(8) 0.09873(7) 0.07892(15)
O4 O 0.46905(9) 0.05532(8) 0.14348(18)
N1 N 0.50405(19) 0.25202(9) 0.3824(3)
N2 N 0.50293(19) 0.20432(14) 0.5000
C1 C 0.50226(17) 0.19348(13) 0.3581(2)
C2 C 0.50287(17) 0.18392(13) 0.4354(2)
C3 C 0.52665(14) 0.15019(12) 0.1919(2)
H1 H 0.5468 0.1564 0.1577
C4 C 0.49969(17) 0.23415(13) 0.2536(2)
H2 H 0.4981 0.2201 0.2089
C5 C 0.49592(14) 0.11662(12) 0.1876(2)
C6 C 0.49360(14) 0.08768(12) 0.1314(3)
C7 C 0.46701(16) 0.10779(14) 0.2381(3)
H3 H 0.4455 0.0842 0.2363
C8 C 0.50258(18) 0.22487(13) 0.3334(2)
C9 C 0.46991(18) 0.13396(16) 0.2913(3)
H4 H 0.4496 0.1283 0.3245
C10 C 0.50048(17) 0.16701(13) 0.2975(3)
C11 C 0.52848(16) 0.17569(13) 0.2472(3)
H5 H 0.5497 0.1995 0.2494
C12 C 0.5030(2) 0.15141(14) 0.4607(3)
H6 H 0.5031 0.1332 0.4280
O5 O 0.40541(11) 0.0000 0.0918(3)
O6 O 0.46148(12) 0.0000 0.2309(3)
Cl1 Cl 0.57704(14) 0.28852(7) 0.5000
Zr4 Zr 0.542025(13) 0.0000 0.10266(3)
Zr6 Zr 0.457975(13) 0.457975(13) 0.10266(3)
Zr7 Zr 0.457975(13) 0.457975(13) 0.89734(3)
Zr8 Zr 0.457975(13) 0.0000 0.89734(3)
Zr10_2 Zr 0.533821(9) 0.466178(20) 1.0000
Zr11_2 Zr 0.533821(9) 0.067643(18) 1.0000
O10 O 0.55981(16) 0.03385(11) 0.0000
O13 O 0.51760(8) 0.41887(11) 0.07892(15)
O14 O 0.51760(8) 0.41887(11) 0.92108(15)
O15 O 0.51760(8) 0.09873(7) 0.92108(15)
O18 O 0.58113(11) 0.09873(7) 0.07892(15)
O19 O 0.46905(9) 0.41373(12) 0.14348(18)
O20 O 0.46905(9) 0.41373(12) 0.85652(18)
O21 O 0.46905(9) 0.05532(8) 0.85652(18)
N3 N 0.50405(19) 0.25202(9) 0.6176(3)
N4 N 0.50293(19) 0.29861(24) 0.5000
C13 C 0.50226(17) 0.19348(13) 0.6419(2)
C14 C 0.50226(17) 0.30878(21) 0.6419(2)
C15 C 0.50226(17) 0.30878(21) 0.3581(2)
C16 C 0.50287(17) 0.18392(13) 0.5646(2)
C17 C 0.50287(17) 0.31895(21) 0.5646(2)
C18 C 0.50287(17) 0.31895(21) 0.4354(2)
C19 C 0.52665(14) 0.37646(18) 0.1919(2)
C20 C 0.52665(14) 0.37646(18) 0.8081(2)
C21 C 0.52665(14) 0.15019(12) 0.8081(2)
H7 H 0.5468 0.3904 0.1577
H8 H 0.5468 0.3904 0.8423
H9 H 0.5468 0.1564 0.8423
C22 C 0.49969(17) 0.26554(21) 0.2536(2)
C23 C 0.49969(17) 0.26554(21) 0.7464(2)
C24 C 0.49969(17) 0.23415(13) 0.7464(2)
H10 H 0.4981 0.2780 0.2089
H11 H 0.4981 0.2201 0.7911
H12 H 0.4981 0.2780 0.7911
C25 C 0.49592(14) 0.37930(18) 0.1876(2)
C26 C 0.49592(14) 0.37930(18) 0.8124(2)
C27 C 0.49592(14) 0.11662(12) 0.8124(2)
C28 C 0.49360(14) 0.40592(18) 0.1314(3)
C29 C 0.49360(14) 0.40592(18) 0.8686(3)
C30 C 0.49360(14) 0.08768(12) 0.8686(3)
C31 C 0.46701(16) 0.35922(21) 0.2381(3)
C32 C 0.46701(16) 0.35922(21) 0.7619(3)
C33 C 0.46701(16) 0.10779(14) 0.7619(3)
H13 H 0.4455 0.3613 0.2363
H14 H 0.4455 0.3613 0.7637
H15 H 0.4455 0.0842 0.7637
C34 C 0.50258(18) 0.22487(13) 0.6666(2)
C35 C 0.50258(18) 0.27771(22) 0.6666(2)
C36 C 0.50258(18) 0.27771(22) 0.3334(2)
C37 C 0.46991(18) 0.33595(24) 0.2913(3)
C38 C 0.46991(18) 0.33595(24) 0.7087(3)
C39 C 0.46991(18) 0.13396(16) 0.7087(3)
H16 H 0.4496 0.3213 0.3245
H17 H 0.4496 0.3213 0.6755
H18 H 0.4496 0.1283 0.6755
C40 C 0.50048(17) 0.33347(21) 0.2975(3)
C41 C 0.50048(17) 0.33347(21) 0.7025(3)
C42 C 0.50048(17) 0.16701(13) 0.7025(3)
C43 C 0.52848(16) 0.35279(21) 0.2472(3)
C44 C 0.52848(16) 0.35279(21) 0.7528(3)
C45 C 0.52848(16) 0.17569(13) 0.7528(3)
H19 H 0.5497 0.3502 0.2494
H20 H 0.5497 0.3502 0.7506
H21 H 0.5497 0.1995 0.7506
C46 C 0.5030(2) 0.35159(24) 0.4607(3)
C47 C 0.5030(2) 0.35159(24) 0.5393(3)
C48 C 0.5030(2) 0.15141(14) 0.5393(3)
H22 H 0.5031 0.3699 0.5720
H23 H 0.5031 0.3699 0.4280
H24 H 0.5031 0.1332 0.5720
H25 H 0.473224 0.0256898 0.250432
H27 H 0.404365 0.0101811 0.0401891
O2_2 O 0.47404(12) 0.03385(11) 1.0000
Zr3 Zr 0.542025(13) 0.0000 0.89734(3)
O7 O 0.51644(13) 0.03289(11) 0.8969(3)
O10_2 O 0.55981(16) 0.03385(11) 1.0000
O16 O 0.58113(11) 0.09873(7) 0.92108(15)
O23 O 0.58627(12) 0.05532(8) 0.85652(18)
O25 O 0.59459(11) 0.0000 0.9082(3)
O26 O 0.53852(12) 0.0000 0.7691(3)
H29 H 0.605816 0.0101811 0.959811
H31 H 0.552466 0.0256898 0.749568
Zr1_2 Zr 0.457975(13) 1.0000 0.10266(3)
O5_2 O 0.40541(11) 1.0000 0.0918(3)
O6_2 O 0.46148(12) 1.0000 0.2309(3)
Zr4_2 Zr 0.542025(13) 1.0000 0.10266(3)
Zr8_2 Zr 0.457975(13) 1.0000 0.89734(3)
O8 O 0.48355(6) 0.96711(11) 0.1031(3)
O11 O 0.44019(16) 0.96615(11) 0.0000
O12 O 0.52596(12) 0.96615(11) 0.0000
O22 O 0.41373(12) 0.94468(8) 0.14348(18)
H26 H 0.436358 0.985524 0.253181
H28 H 0.384541 0.974418 0.0965427
Zr3_2 Zr 0.542025(13) 1.0000 0.89734(3)
O9 O 0.48356(13) 0.96711(11) 0.8969(3)
O11_2 O 0.44019(16) 0.96615(11) 1.0000
O12_2 O 0.52596(12) 0.96615(11) 1.0000
O24 O 0.53095(9) 0.94468(8) 0.85652(18)
O25_2 O 0.59459(11) 1.0000 0.9082(3)
O26_2 O 0.53852(12) 1.0000 0.7691(3)
H30 H 0.589878 0.974418 0.903457
H32 H 0.549166 0.985524 0.746819
Zr10_3 Zr 0.067643(22) 0.533821(9) 0.0000
Zr11_3 Zr 0.466178(20) 0.533821(9) 0.0000
Fe1_2 Fe 0.25600(8) 0.51200(7) 0.5000
O1_2 O 0.48356(13) 0.51645(6) 0.1031(3)
O2_3 O 0.44019(16) 0.47404(12) 0.0000
O3_2 O 0.41887(11) 0.51760(8) 0.07892(15)
O4_2 O 0.41373(12) 0.46905(9) 0.14348(18)
N1_2 N 0.25203(21) 0.50405(19) 0.3824(3)
N2_2 N 0.29861(24) 0.50293(19) 0.5000
C1_2 C 0.30878(21) 0.50226(17) 0.3581(2)
C2_2 C 0.31895(21) 0.50287(17) 0.4354(2)
C3_2 C 0.37646(18) 0.52665(14) 0.1919(2)
H1_2 H 0.3904 0.5468 0.1577
C4_2 C 0.26554(21) 0.49969(17) 0.2536(2)
H2_2 H 0.2780 0.4981 0.2089
C5_2 C 0.37930(18) 0.49592(14) 0.1876(2)
C6_2 C 0.40592(18) 0.49360(14) 0.1314(3)
C7_2 C 0.35922(21) 0.46701(16) 0.2381(3)
H3_2 H 0.3613 0.4455 0.2363
C8_2 C 0.27771(22) 0.50258(18) 0.3334(2)
C9_2 C 0.33595(24) 0.46991(18) 0.2913(3)
H4_2 H 0.3213 0.4496 0.3245
C10_2 C 0.33347(21) 0.50048(17) 0.2975(3)
C11_2 C 0.35279(21) 0.52848(16) 0.2472(3)
H5_2 H 0.3502 0.5497 0.2494
C12_2 C 0.35159(24) 0.5030(2) 0.4607(3)
H6_2 H 0.3699 0.5031 0.4280
O5_3 O 0.40541(11) 0.40541(11) 0.0918(3)
O6_3 O 0.46148(12) 0.46148(12) 0.2309(3)
Cl1_2 Cl 0.28852(16) 0.57704(14) 0.5000
Zr4_3 Zr 0.542025(13) 0.542025(13) 0.10266(3)
Zr6_2 Zr -0.000000(18) 0.457975(13) 0.10266(3)
Zr7_2 Zr -0.000000(18) 0.457975(13) 0.89734(3)
Zr10_4 Zr 0.067643(22) 0.533821(9) 1.0000
Zr11_4 Zr 0.466178(20) 0.533821(9) 1.0000
O8_2 O 0.51644(13) 0.48355(6) 0.1031(3)
O10_3 O 0.52596(19) 0.55981(16) 0.0000
O11_3 O 0.47404(19) 0.44019(16) 0.0000
O12_3 O 0.55981(16) 0.52596(12) 0.0000
O13_2 O 0.09873(14) 0.51760(8) 0.07892(15)
O14_2 O 0.09873(14) 0.51760(8) 0.92108(15)
O15_2 O 0.41887(11) 0.51760(8) 0.92108(15)
O18_2 O 0.48240(13) 0.58113(11) 0.07892(15)
O19_2 O 0.05532(15) 0.46905(9) 0.14348(18)
O20_2 O 0.05532(15) 0.46905(9) 0.85652(18)
O21_2 O 0.41373(12) 0.46905(9) 0.85652(18)
N3_2 N 0.25203(21) 0.50405(19) 0.6176(3)
N4_2 N 0.20432(31) 0.50293(19) 0.5000
C13_2 C 0.30878(21) 0.50226(17) 0.6419(2)
C14_2 C 0.19348(27) 0.50226(17) 0.6419(2)
C15_2 C 0.19348(27) 0.50226(17) 0.3581(2)
C16_2 C 0.31895(21) 0.50287(17) 0.5646(2)
C17_2 C 0.18392(27) 0.50287(17) 0.5646(2)
C18_2 C 0.18392(27) 0.50287(17) 0.4354(2)
C19_2 C 0.15019(23) 0.52665(14) 0.1919(2)
C20_2 C 0.15019(23) 0.52665(14) 0.8081(2)
C21_2 C 0.37646(18) 0.52665(14) 0.8081(2)
H7_2 H 0.1564 0.5468 0.1577
H8_2 H 0.1564 0.5468 0.8423
H9_2 H 0.3904 0.5468 0.8423
C22_2 C 0.23415(27) 0.49969(17) 0.2536(2)
C23_2 C 0.23415(27) 0.49969(17) 0.7464(2)
C24_2 C 0.26554(21) 0.49969(17) 0.7464(2)
H10_2 H 0.2201 0.4981 0.2089
H11_2 H 0.2780 0.4981 0.7911
H12_2 H 0.2201 0.4981 0.7911
C25_2 C 0.11662(23) 0.49592(14) 0.1876(2)
C26_2 C 0.11662(23) 0.49592(14) 0.8124(2)
C27_2 C 0.37930(18) 0.49592(14) 0.8124(2)
C28_2 C 0.08768(23) 0.49360(14) 0.1314(3)
C29_2 C 0.08768(23) 0.49360(14) 0.8686(3)
C30_2 C 0.40592(18) 0.49360(14) 0.8686(3)
C31_2 C 0.10779(26) 0.46701(16) 0.2381(3)
C32_2 C 0.10779(26) 0.46701(16) 0.7619(3)
C33_2 C 0.35922(21) 0.46701(16) 0.7619(3)
H13_2 H 0.0842 0.4455 0.2363
H14_2 H 0.0842 0.4455 0.7637
H15_2 H 0.3613 0.4455 0.7637
C34_2 C 0.27771(22) 0.50258(18) 0.6666(2)
C35_2 C 0.22487(28) 0.50258(18) 0.6666(2)
C36_2 C 0.22487(28) 0.50258(18) 0.3334(2)
C37_2 C 0.13396(30) 0.46991(18) 0.2913(3)
C38_2 C 0.13396(30) 0.46991(18) 0.7087(3)
C39_2 C 0.33595(24) 0.46991(18) 0.7087(3)
H16_2 H 0.1283 0.4496 0.3245
H17_2 H 0.1283 0.4496 0.6755
H18_2 H 0.3213 0.4496 0.6755
C40_2 C 0.16701(27) 0.50048(17) 0.2975(3)
C41_2 C 0.16701(27) 0.50048(17) 0.7025(3)
C42_2 C 0.33347(21) 0.50048(17) 0.7025(3)
C43_2 C 0.17569(26) 0.52848(16) 0.2472(3)
C44_2 C 0.17569(26) 0.52848(16) 0.7528(3)
C45_2 C 0.35279(21) 0.52848(16) 0.7528(3)
H19_2 H 0.1995 0.5497 0.2494
H20_2 H 0.1995 0.5497 0.7506
H21_2 H 0.3502 0.5497 0.7506
C46_2 C 0.15141(31) 0.5030(2) 0.4607(3)
C47_2 C 0.15141(31) 0.5030(2) 0.5393(3)
C48_2 C 0.35159(24) 0.5030(2) 0.5393(3)
H22_2 H 0.1332 0.5031 0.5720
H23_2 H 0.1332 0.5031 0.4280
H24_2 H 0.3699 0.5031 0.5720
O2_4 O 0.44019(16) 0.47404(12) 1.0000
Zr3_3 Zr 0.542025(13) 0.542025(13) 0.89734(3)
O7_2 O 0.48355(17) 0.51644(13) 0.8969(3)
O9_2 O 0.51645(17) 0.48356(13) 0.8969(3)
O10_4 O 0.52596(19) 0.55981(16) 1.0000
O11_4 O 0.47404(19) 0.44019(16) 1.0000
O12_4 O 0.55981(16) 0.52596(12) 1.0000
O16_2 O 0.48240(13) 0.58113(11) 0.92108(15)
O23_2 O 0.53095(14) 0.58627(12) 0.85652(18)
O24_2 O 0.58627(12) 0.53095(9) 0.85652(18)
O25_3 O 0.59459(11) 0.59459(11) 0.9082(3)
O26_3 O 0.53852(12) 0.53852(12) 0.7691(3)
Zr6_3 Zr 1.000000(18) 0.457975(13) 0.10266(3)
Zr7_3 Zr 1.000000(18) 0.457975(13) 0.89734(3)
O5_4 O 0.0000 0.40541(11) 0.0918(3)
O6_4 O 0.0000 0.46148(12) 0.2309(3)
Zr4_4 Zr 0.0000 0.542025(13) 0.10266(3)
O8_3 O 0.03289(11) 0.51644(13) 0.1031(3)
O11_5 O 0.03385(11) 0.47404(19) 0.0000
O12_5 O 0.03385(11) 0.55981(16) 0.0000
H26_2 H 0.0144757 0.450834 0.253181
H28_2 H 0.0255818 0.410122 0.0965427
Zr3_4 Zr 0.0000 0.542025(13) 0.89734(3)
O9_3 O 0.03289(11) 0.51645(17) 0.8969(3)
O11_6 O 0.03385(11) 0.47404(19) 1.0000
O12_6 O 0.03385(11) 0.55981(16) 1.0000
O24_3 O 0.05532(8) 0.58627(12) 0.85652(18)
O25_4 O 0.0000 0.59459(11) 0.9082(3)
O26_4 O -0.0000 0.53852(12) 0.7691(3)
H30_2 H 0.0255818 0.615459 0.903457
H32_2 H 0.0144757 0.563642 0.746819
Zr11_5 Zr 0.932357(18) 0.466178(20) 0.0000
Fe1_3 Fe 0.74400(3) 0.25600(8) 0.5000
O1_3 O 0.96711(11) 0.48356(13) 0.1031(3)
O2_5 O 0.96615(11) 0.44019(16) 0.0000
O3_3 O 0.90127(7) 0.41887(11) 0.07892(15)
O4_3 O 0.94468(8) 0.41373(12) 0.14348(18)
N1_3 N 0.74798(9) 0.25203(21) 0.3824(3)
N2_3 N 0.79568(14) 0.29861(24) 0.5000
C1_3 C 0.80652(13) 0.30878(21) 0.3581(2)
C2_3 C 0.81608(13) 0.31895(21) 0.4354(2)
C3_3 C 0.84981(12) 0.37646(18) 0.1919(2)
H1_3 H 0.8436 0.3904 0.1577
C4_3 C 0.76585(13) 0.26554(21) 0.2536(2)
H2_3 H 0.7799 0.2780 0.2089
C5_3 C 0.88338(12) 0.37930(18) 0.1876(2)
C6_3 C 0.91232(12) 0.40592(18) 0.1314(3)
C7_3 C 0.89221(14) 0.35922(21) 0.2381(3)
H3_3 H 0.9158 0.3613 0.2363
C8_3 C 0.77513(13) 0.27771(22) 0.3334(2)
C9_3 C 0.86604(16) 0.33595(24) 0.2913(3)
H4_3 H 0.8717 0.3213 0.3245
C10_3 C 0.83299(13) 0.33347(21) 0.2975(3)
C11_3 C 0.82431(13) 0.35279(21) 0.2472(3)
H5_3 H 0.8005 0.3502 0.2494
C12_3 C 0.84859(14) 0.35159(24) 0.4607(3)
H6_3 H 0.8668 0.3699 0.4280
O5_5 O 1.0000 0.40541(11) 0.0918(3)
O6_5 O 1.0000 0.46148(12) 0.2309(3)
Cl1_3 Cl 0.71148(7) 0.28852(16) 0.5000
Zr4_5 Zr 1.0000 0.542025(13) 0.10266(3)
Zr11_6 Zr 0.932357(18) 0.466178(20) 1.0000
O10_5 O 0.96615(11) 0.52596(19) 0.0000
O15_3 O 0.90127(7) 0.41887(11) 0.92108(15)
O18_3 O 0.90127(7) 0.48240(13) 0.07892(15)
O19_3 O 0.58627(12) 0.05532(15) 0.14348(18)
O21_3 O 0.94468(8) 0.41373(12) 0.85652(18)
N3_3 N 0.74798(9) 0.25203(21) 0.6176(3)
N4_3 N 0.70139(24) 0.20432(31) 0.5000
C13_3 C 0.80652(13) 0.30878(21) 0.6419(2)
C14_3 C 0.69122(21) 0.19348(27) 0.6419(2)
C15_3 C 0.69122(21) 0.19348(27) 0.3581(2)
C16_3 C 0.81608(13) 0.31895(21) 0.5646(2)
C17_3 C 0.68105(21) 0.18392(27) 0.5646(2)
C18_3 C 0.68105(21) 0.18392(27) 0.4354(2)
C19_3 C 0.62354(18) 0.15019(23) 0.1919(2)
C20_3 C 0.62354(18) 0.15019(23) 0.8081(2)
C21_3 C 0.84981(12) 0.37646(18) 0.8081(2)
H7_3 H 0.6096 0.1564 0.1577
H8_3 H 0.6096 0.1564 0.8423
H9_3 H 0.8436 0.3904 0.8423
C22_3 C 0.73446(21) 0.23415(27) 0.2536(2)
C23_3 C 0.73446(21) 0.23415(27) 0.7464(2)
C24_3 C 0.76585(13) 0.26554(21) 0.7464(2)
H10_3 H 0.7220 0.2201 0.2089
H11_3 H 0.7799 0.2780 0.7911
H12_3 H 0.7220 0.2201 0.7911
C25_3 C 0.62070(18) 0.11662(23) 0.1876(2)
C26_3 C 0.62070(18) 0.11662(23) 0.8124(2)
C27_3 C 0.88338(12) 0.37930(18) 0.8124(2)
C28_3 C 0.59408(18) 0.08768(23) 0.1314(3)
C29_3 C 0.59408(18) 0.08768(23) 0.8686(3)
C30_3 C 0.91232(12) 0.40592(18) 0.8686(3)
C31_3 C 0.64078(21) 0.10779(26) 0.2381(3)
C32_3 C 0.64078(21) 0.10779(26) 0.7619(3)
C33_3 C 0.89221(14) 0.35922(21) 0.7619(3)
H13_3 H 0.6387 0.0842 0.2363
H14_3 H 0.6387 0.0842 0.7637
H15_3 H 0.9158 0.3613 0.7637
C34_3 C 0.77513(13) 0.27771(22) 0.6666(2)
C35_3 C 0.72229(22) 0.22487(28) 0.6666(2)
C36_3 C 0.72229(22) 0.22487(28) 0.3334(2)
C37_3 C 0.66405(24) 0.13396(30) 0.2913(3)
C38_3 C 0.66405(24) 0.13396(30) 0.7087(3)
C39_3 C 0.86604(16) 0.33595(24) 0.7087(3)
H16_3 H 0.6787 0.1283 0.3245
H17_3 H 0.6787 0.1283 0.6755
H18_3 H 0.8717 0.3213 0.6755
C40_3 C 0.66653(21) 0.16701(27) 0.2975(3)
C41_3 C 0.66653(21) 0.16701(27) 0.7025(3)
C42_3 C 0.83299(13) 0.33347(21) 0.7025(3)
C43_3 C 0.64721(21) 0.17569(26) 0.2472(3)
C44_3 C 0.64721(21) 0.17569(26) 0.7528(3)
C45_3 C 0.82431(13) 0.35279(21) 0.7528(3)
H19_3 H 0.6498 0.1995 0.2494
H20_3 H 0.6498 0.1995 0.7506
H21_3 H 0.8005 0.3502 0.7506
C46_3 C 0.64841(24) 0.15141(31) 0.4607(3)
C47_3 C 0.64841(24) 0.15141(31) 0.5393(3)
C48_3 C 0.84859(14) 0.35159(24) 0.5393(3)
H22_3 H 0.6301 0.1332 0.5720
H23_3 H 0.6301 0.1332 0.4280
H24_3 H 0.8668 0.3699 0.5720
H25_2 H 0.97431 0.447534 0.250432
H27_2 H 0.989819 0.394184 0.0401891
O2_6 O 0.96615(11) 0.44019(16) 1.0000
Zr3_5 Zr 1.0000 0.542025(13) 0.89734(3)
O7_3 O 0.96711(11) 0.48355(17) 0.8969(3)
O10_6 O 0.96615(11) 0.52596(19) 1.0000
O16_3 O 0.90127(7) 0.48240(13) 0.92108(15)
O23_3 O 0.94468(8) 0.53095(14) 0.85652(18)
O25_5 O 1.0000 0.59459(11) 0.9082(3)
O26_5 O 1.0000 0.53852(12) 0.7691(3)
H29_2 H 0.989819 0.595635 0.959811
H31_2 H 0.97431 0.526776 0.749568
O5_6 O 0.59459(11) 0.0000 0.0918(3)
O6_6 O 0.53852(12) 0.0000 0.2309(3)
H26_3 H 0.563642 0.0144757 0.253181
H28_3 H 0.615459 0.0255818 0.0965427
O25_6 O 0.40541(11) 0.0000 0.9082(3)
O26_6 O 0.46148(12) 0.0000 0.7691(3)
H30_3 H 0.410122 0.0255818 0.903457
H32_3 H 0.450834 0.0144757 0.746819
Zr11_7 Zr 0.466179(9) 0.932357(18) 0.0000
Fe1_4 Fe 0.48800(7) 0.74400(3) 0.5000
O3_4 O 0.48240(8) 0.90127(7) 0.07892(15)
O4_4 O 0.53095(9) 0.94468(8) 0.14348(18)
N1_4 N 0.49595(19) 0.74798(9) 0.3824(3)
N2_4 N 0.49707(19) 0.79568(14) 0.5000
C1_4 C 0.49774(17) 0.80652(13) 0.3581(2)
C2_4 C 0.49713(17) 0.81608(13) 0.4354(2)
C3_4 C 0.47335(14) 0.84981(12) 0.1919(2)
H1_4 H 0.4532 0.8436 0.1577
C4_4 C 0.50031(17) 0.76585(13) 0.2536(2)
H2_4 H 0.5019 0.7799 0.2089
C5_4 C 0.50408(14) 0.88338(12) 0.1876(2)
C6_4 C 0.50640(14) 0.91232(12) 0.1314(3)
C7_4 C 0.53299(16) 0.89221(14) 0.2381(3)
H3_4 H 0.5545 0.9158 0.2363
C8_4 C 0.49742(18) 0.77513(13) 0.3334(2)
C9_4 C 0.53009(18) 0.86604(16) 0.2913(3)
H4_4 H 0.5504 0.8717 0.3245
C10_4 C 0.49952(17) 0.83299(13) 0.2975(3)
C11_4 C 0.47152(16) 0.82431(13) 0.2472(3)
H5_4 H 0.4503 0.8005 0.2494
C12_4 C 0.4970(2) 0.84859(14) 0.4607(3)
H6_4 H 0.4969 0.8668 0.4280
O5_7 O 0.59459(11) 1.0000 0.0918(3)
O6_7 O 0.53852(12) 1.0000 0.2309(3)
Cl1_4 Cl 0.42296(14) 0.71148(7) 0.5000
Zr11_8 Zr 0.466179(9) 0.932357(18) 1.0000
O15_4 O 0.48240(8) 0.90127(7) 0.92108(15)
O18_4 O 0.41887(11) 0.90127(7) 0.07892(15)
O19_4 O 0.53095(9) 0.58627(12) 0.14348(18)
N3_4 N 0.49595(19) 0.74798(9) 0.6176(3)
N4_4 N 0.49707(19) 0.70139(24) 0.5000
C13_4 C 0.49774(17) 0.80652(13) 0.6419(2)
C14_4 C 0.49774(17) 0.69122(21) 0.6419(2)
C15_4 C 0.49774(17) 0.69122(21) 0.3581(2)
C16_4 C 0.49713(17) 0.81608(13) 0.5646(2)
C17_4 C 0.49713(17) 0.68105(21) 0.5646(2)
C18_4 C 0.49713(17) 0.68105(21) 0.4354(2)
C19_4 C 0.47335(14) 0.62354(18) 0.1919(2)
C20_4 C 0.47335(14) 0.62354(18) 0.8081(2)
C21_4 C 0.47335(14) 0.84981(12) 0.8081(2)
H7_4 H 0.4532 0.6096 0.1577
H8_4 H 0.4532 0.6096 0.8423
H9_4 H 0.4532 0.8436 0.8423
C22_4 C 0.50031(17) 0.73446(21) 0.2536(2)
C23_4 C 0.50031(17) 0.73446(21) 0.7464(2)
C24_4 C 0.50031(17) 0.76585(13) 0.7464(2)
H10_4 H 0.5019 0.7220 0.2089
H11_4 H 0.5019 0.7799 0.7911
H12_4 H 0.5019 0.7220 0.7911
C25_4 C 0.50408(14) 0.62070(18) 0.1876(2)
C26_4 C 0.50408(14) 0.62070(18) 0.8124(2)
C27_4 C 0.50408(14) 0.88338(12) 0.8124(2)
C28_4 C 0.50640(14) 0.59408(18) 0.1314(3)
C29_4 C 0.50640(14) 0.59408(18) 0.8686(3)
C30_4 C 0.50640(14) 0.91232(12) 0.8686(3)
C31_4 C 0.53299(16) 0.64078(21) 0.2381(3)
C32_4 C 0.53299(16) 0.64078(21) 0.7619(3)
C33_4 C 0.53299(16) 0.89221(14) 0.7619(3)
H13_4 H 0.5545 0.6387 0.2363
H14_4 H 0.5545 0.6387 0.7637
H15_4 H 0.5545 0.9158 0.7637
C34_4 C 0.49742(18) 0.77513(13) 0.6666(2)
C35_4 C 0.49742(18) 0.72229(22) 0.6666(2)
C36_4 C 0.49742(18) 0.72229(22) 0.3334(2)
C37_4 C 0.53009(18) 0.66405(24) 0.2913(3)
C38_4 C 0.53009(18) 0.66405(24) 0.7087(3)
C39_4 C 0.53009(18) 0.86604(16) 0.7087(3)
H16_4 H 0.5504 0.6787 0.3245
H17_4 H 0.5504 0.6787 0.6755
H18_4 H 0.5504 0.8717 0.6755
C40_4 C 0.49952(17) 0.66653(21) 0.2975(3)
C41_4 C 0.49952(17) 0.66653(21) 0.7025(3)
C42_4 C 0.49952(17) 0.83299(13) 0.7025(3)
C43_4 C 0.47152(16) 0.64721(21) 0.2472(3)
C44_4 C 0.47152(16) 0.64721(21) 0.7528(3)
C45_4 C 0.47152(16) 0.82431(13) 0.7528(3)
H19_4 H 0.4503 0.6498 0.2494
H20_4 H 0.4503 0.6498 0.7506
H21_4 H 0.4503 0.8005 0.7506
C46_4 C 0.4970(2) 0.64841(24) 0.4607(3)
C47_4 C 0.4970(2) 0.64841(24) 0.5393(3)
C48_4 C 0.4970(2) 0.84859(14) 0.5393(3)
H22_4 H 0.4969 0.6301 0.5720
H23_4 H 0.4969 0.6301 0.4280
H24_4 H 0.4969 0.8668 0.5720
H25_3 H 0.526776 0.97431 0.250432
H27_3 H 0.595635 0.989819 0.0401891
O16_4 O 0.41887(11) 0.90127(7) 0.92108(15)
O23_4 O 0.41373(12) 0.94468(8) 0.85652(18)
O25_7 O 0.40541(11) 1.0000 0.9082(3)
O26_7 O 0.46148(12) 1.0000 0.7691(3)
H29_3 H 0.394184 0.989819 0.959811
H31_3 H 0.447534 0.97431 0.749568
Fe1_5 Fe 0.74400(8) 0.48800(7) 0.5000
O3_5 O 0.58113(11) 0.48240(8) 0.07892(15)
O4_5 O 0.58627(12) 0.53095(9) 0.14348(18)
N1_5 N 0.74797(21) 0.49595(19) 0.3824(3)
N2_5 N 0.70139(24) 0.49707(19) 0.5000
C1_5 C 0.69122(21) 0.49774(17) 0.3581(2)
C2_5 C 0.68105(21) 0.49713(17) 0.4354(2)
C3_5 C 0.62354(18) 0.47335(14) 0.1919(2)
H1_5 H 0.6096 0.4532 0.1577
C4_5 C 0.73446(21) 0.50031(17) 0.2536(2)
H2_5 H 0.7220 0.5019 0.2089
C5_5 C 0.62070(18) 0.50408(14) 0.1876(2)
C6_5 C 0.59408(18) 0.50640(14) 0.1314(3)
C7_5 C 0.64078(21) 0.53299(16) 0.2381(3)
H3_5 H 0.6387 0.5545 0.2363
C8_5 C 0.72229(22) 0.49742(18) 0.3334(2)
C9_5 C 0.66405(24) 0.53009(18) 0.2913(3)
H4_5 H 0.6787 0.5504 0.3245
C10_5 C 0.66653(21) 0.49952(17) 0.2975(3)
C11_5 C 0.64721(21) 0.47152(16) 0.2472(3)
H5_5 H 0.6498 0.4503 0.2494
C12_5 C 0.64841(24) 0.4970(2) 0.4607(3)
H6_5 H 0.6301 0.4969 0.4280
O5_8 O 0.59459(11) 0.59459(11) 0.0918(3)
O6_8 O 0.53852(12) 0.53852(12) 0.2309(3)
Cl1_5 Cl 0.71148(16) 0.42296(14) 0.5000
O15_5 O 0.58113(11) 0.48240(8) 0.92108(15)
O19_5 O 0.94468(15) 0.53095(9) 0.14348(18)
N3_5 N 0.74797(21) 0.49595(19) 0.6176(3)
N4_5 N 0.79568(31) 0.49707(19) 0.5000
C13_5 C 0.69122(21) 0.49774(17) 0.6419(2)
C14_5 C 0.80652(27) 0.49774(17) 0.6419(2)
C15_5 C 0.80652(27) 0.49774(17) 0.3581(2)
C16_5 C 0.68105(21) 0.49713(17) 0.5646(2)
C17_5 C 0.81608(27) 0.49713(17) 0.5646(2)
C18_5 C 0.81608(27) 0.49713(17) 0.4354(2)
C19_5 C 0.84981(23) 0.47335(14) 0.1919(2)
C20_5 C 0.84981(23) 0.47335(14) 0.8081(2)
C21_5 C 0.62354(18) 0.47335(14) 0.8081(2)
H7_5 H 0.8436 0.4532 0.1577
H8_5 H 0.8436 0.4532 0.8423
H9_5 H 0.6096 0.4532 0.8423
C22_5 C 0.76585(27) 0.50031(17) 0.2536(2)
C23_5 C 0.76585(27) 0.50031(17) 0.7464(2)
C24_5 C 0.73446(21) 0.50031(17) 0.7464(2)
H10_5 H 0.7799 0.5019 0.2089
H11_5 H 0.7220 0.5019 0.7911
H12_5 H 0.7799 0.5019 0.7911
C25_5 C 0.88338(23) 0.50408(14) 0.1876(2)
C26_5 C 0.88338(23) 0.50408(14) 0.8124(2)
C27_5 C 0.62070(18) 0.50408(14) 0.8124(2)
C28_5 C 0.91232(23) 0.50640(14) 0.1314(3)
C29_5 C 0.91232(23) 0.50640(14) 0.8686(3)
C30_5 C 0.59408(18) 0.50640(14) 0.8686(3)
C31_5 C 0.89221(26) 0.53299(16) 0.2381(3)
C32_5 C 0.89221(26) 0.53299(16) 0.7619(3)
C33_5 C 0.64078(21) 0.53299(16) 0.7619(3)
H13_5 H 0.9158 0.5545 0.2363
H14_5 H 0.9158 0.5545 0.7637
H15_5 H 0.6387 0.5545 0.7637
C34_5 C 0.72229(22) 0.49742(18) 0.6666(2)
C35_5 C 0.77513(28) 0.49742(18) 0.6666(2)
C36_5 C 0.77513(28) 0.49742(18) 0.3334(2)
C37_5 C 0.86604(30) 0.53009(18) 0.2913(3)
C38_5 C 0.86604(30) 0.53009(18) 0.7087(3)
C39_5 C 0.66405(24) 0.53009(18) 0.7087(3)
H16_5 H 0.8717 0.5504 0.3245
H17_5 H 0.8717 0.5504 0.6755
H18_5 H 0.6787 0.5504 0.6755
C40_5 C 0.83299(27) 0.49952(17) 0.2975(3)
C41_5 C 0.83299(27) 0.49952(17) 0.7025(3)
C42_5 C 0.66653(21) 0.49952(17) 0.7025(3)
C43_5 C 0.82431(26) 0.47152(16) 0.2472(3)
C44_5 C 0.82431(26) 0.47152(16) 0.7528(3)
C45_5 C 0.64721(21) 0.47152(16) 0.7528(3)
H19_5 H 0.8005 0.4503 0.2494
H20_5 H 0.8005 0.4503 0.7506
H21_5 H 0.6498 0.4503 0.7506
C46_5 C 0.84859(31) 0.4970(2) 0.4607(3)
C47_5 C 0.84859(31) 0.4970(2) 0.5393(3)
C48_5 C 0.64841(24) 0.4970(2) 0.5393(3)
H22_5 H 0.8668 0.4969 0.5720
H23_5 H 0.8668 0.4969 0.4280
H24_5 H 0.6301 0.4969 0.5720
O25_8 O 0.40541(11) 0.40541(11) 0.9082(3)
O26_8 O 0.46148(12) 0.46148(12) 0.7691(3)
Fe1_6 Fe 0.25600(3) 0.74400(8) 0.5000
O3_6 O 0.09873(7) 0.58113(11) 0.07892(15)
O4_6 O 0.05532(8) 0.58627(12) 0.14348(18)
N1_6 N 0.25202(9) 0.74797(21) 0.3824(3)
N2_6 N 0.20432(14) 0.70139(24) 0.5000
C1_6 C 0.19348(13) 0.69122(21) 0.3581(2)
C2_6 C 0.18392(13) 0.68105(21) 0.4354(2)
C3_6 C 0.15019(12) 0.62354(18) 0.1919(2)
H1_6 H 0.1564 0.6096 0.1577
C4_6 C 0.23415(13) 0.73446(21) 0.2536(2)
H2_6 H 0.2201 0.7220 0.2089
C5_6 C 0.11662(12) 0.62070(18) 0.1876(2)
C6_6 C 0.08768(12) 0.59408(18) 0.1314(3)
C7_6 C 0.10779(14) 0.64078(21) 0.2381(3)
H3_6 H 0.0842 0.6387 0.2363
C8_6 C 0.22487(13) 0.72229(22) 0.3334(2)
C9_6 C 0.13396(16) 0.66405(24) 0.2913(3)
H4_6 H 0.1283 0.6787 0.3245
C10_6 C 0.16701(13) 0.66653(21) 0.2975(3)
C11_6 C 0.17569(13) 0.64721(21) 0.2472(3)
H5_6 H 0.1995 0.6498 0.2494
C12_6 C 0.15141(14) 0.64841(24) 0.4607(3)
H6_6 H 0.1332 0.6301 0.4280
O5_9 O 0.0000 0.59459(11) 0.0918(3)
O6_9 O -0.0000 0.53852(12) 0.2309(3)
Cl1_6 Cl 0.28852(7) 0.71148(16) 0.5000
O15_6 O 0.09873(7) 0.58113(11) 0.92108(15)
N3_6 N 0.25202(9) 0.74797(21) 0.6176(3)
N4_6 N 0.29861(24) 0.79568(31) 0.5000
C13_6 C 0.19348(13) 0.69122(21) 0.6419(2)
C14_6 C 0.30878(21) 0.80652(27) 0.6419(2)
C15_6 C 0.30878(21) 0.80652(27) 0.3581(2)
C16_6 C 0.18392(13) 0.68105(21) 0.5646(2)
C17_6 C 0.31895(21) 0.81608(27) 0.5646(2)
C18_6 C 0.31895(21) 0.81608(27) 0.4354(2)
C19_6 C 0.37646(18) 0.84981(23) 0.1919(2)
C20_6 C 0.37646(18) 0.84981(23) 0.8081(2)
C21_6 C 0.15019(12) 0.62354(18) 0.8081(2)
H7_6 H 0.3904 0.8436 0.1577
H8_6 H 0.3904 0.8436 0.8423
H9_6 H 0.1564 0.6096 0.8423
C22_6 C 0.26554(21) 0.76585(27) 0.2536(2)
C23_6 C 0.26554(21) 0.76585(27) 0.7464(2)
C24_6 C 0.23415(13) 0.73446(21) 0.7464(2)
H10_6 H 0.2780 0.7799 0.2089
H11_6 H 0.2201 0.7220 0.7911
H12_6 H 0.2780 0.7799 0.7911
C25_6 C 0.37930(18) 0.88338(23) 0.1876(2)
C26_6 C 0.37930(18) 0.88338(23) 0.8124(2)
C27_6 C 0.11662(12) 0.62070(18) 0.8124(2)
C28_6 C 0.40592(18) 0.91232(23) 0.1314(3)
C29_6 C 0.40592(18) 0.91232(23) 0.8686(3)
C30_6 C 0.08768(12) 0.59408(18) 0.8686(3)
C31_6 C 0.35922(21) 0.89221(26) 0.2381(3)
C32_6 C 0.35922(21) 0.89221(26) 0.7619(3)
C33_6 C 0.10779(14) 0.64078(21) 0.7619(3)
H13_6 H 0.3613 0.9158 0.2363
H14_6 H 0.3613 0.9158 0.7637
H15_6 H 0.0842 0.6387 0.7637
C34_6 C 0.22487(13) 0.72229(22) 0.6666(2)
C35_6 C 0.27771(22) 0.77513(28) 0.6666(2)
C36_6 C 0.27771(22) 0.77513(28) 0.3334(2)
C37_6 C 0.33595(24) 0.86604(30) 0.2913(3)
C38_6 C 0.33595(24) 0.86604(30) 0.7087(3)
C39_6 C 0.13396(16) 0.66405(24) 0.7087(3)
H16_6 H 0.3213 0.8717 0.3245
H17_6 H 0.3213 0.8717 0.6755
H18_6 H 0.1283 0.6787 0.6755
C40_6 C 0.33347(21) 0.83299(27) 0.2975(3)
C41_6 C 0.33347(21) 0.83299(27) 0.7025(3)
C42_6 C 0.16701(13) 0.66653(21) 0.7025(3)
C43_6 C 0.35279(21) 0.82431(26) 0.2472(3)
C44_6 C 0.35279(21) 0.82431(26) 0.7528(3)
C45_6 C 0.17569(13) 0.64721(21) 0.7528(3)
H19_6 H 0.3502 0.8005 0.2494
H20_6 H 0.3502 0.8005 0.7506
H21_6 H 0.1995 0.6498 0.7506
C46_6 C 0.35159(24) 0.84859(31) 0.4607(3)
C47_6 C 0.35159(24) 0.84859(31) 0.5393(3)
C48_6 C 0.15141(14) 0.64841(24) 0.5393(3)
H22_6 H 0.3699 0.8668 0.5720
H23_6 H 0.3699 0.8668 0.4280
H24_6 H 0.1332 0.6301 0.5720
H25_4 H 0.0256898 0.552466 0.250432
H27_4 H 0.0101811 0.605816 0.0401891
O25_9 O 0.0000 0.40541(11) 0.9082(3)
O26_9 O 0.0000 0.46148(12) 0.7691(3)
H29_4 H 0.0101811 0.404365 0.959811
H31_4 H 0.0256898 0.473224 0.749568
O5_10 O 1.0000 0.59459(11) 0.0918(3)
O6_10 O 1.0000 0.53852(12) 0.2309(3)
H26_4 H 0.985524 0.549166 0.253181
H28_4 H 0.974418 0.589878 0.0965427
O25_10 O 1.0000 0.40541(11) 0.9082(3)
O26_10 O 1.0000 0.46148(12) 0.7691(3)
H30_4 H 0.974418 0.384541 0.903457
H32_4 H 0.985524 0.436358 0.746819
H30_5 H 0.410122 0.0255818 0.0965427
H32_5 H 0.450834 0.0144757 0.253181
H26_5 H 0.563642 0.0144757 0.746819
H28_5 H 0.615459 0.0255818 0.903457
H29_5 H 0.394184 0.989819 0.0401891
H31_5 H 0.447534 0.97431 0.250432
H25_5 H 0.526776 0.97431 0.749568
H27_5 H 0.595635 0.989819 0.959811
H29_6 H 0.0101811 0.404365 0.0401891
H31_6 H 0.0256898 0.473224 0.250432
H25_6 H 0.0256898 0.552466 0.749568
H27_6 H 0.0101811 0.605816 0.959811
H30_6 H 0.974418 0.384541 0.0965427
H32_6 H 0.985524 0.436358 0.253181
H26_6 H 0.985524 0.549166 0.746819
H28_6 H 0.974418 0.589878 0.903457
H29_7 H 0.605816 0.0101811 0.0401891
H31_7 H 0.552466 0.0256898 0.250432
H25_7 H 0.473224 0.0256898 0.749568
H27_7 H 0.404365 0.0101811 0.959811
H30_7 H 0.589878 0.974418 0.0965427
H32_7 H 0.549166 0.985524 0.253181
H26_7 H 0.436358 0.985524 0.746819
H28_7 H 0.384541 0.974418 0.903457
H30_8 H 0.0255818 0.615459 0.0965427
H32_8 H 0.0144757 0.563642 0.253181
H26_8 H 0.0144757 0.450834 0.746819
H28_8 H 0.0255818 0.410122 0.903457
H29_8 H 0.989819 0.595635 0.0401891
H31_8 H 0.97431 0.526776 0.250432
H25_8 H 0.97431 0.447534 0.749568
H27_8 H 0.989819 0.394184 0.959811
loop_
_geom_bond_atom_site_label_1
_geom_bond_atom_site_label_2
_geom_bond_site_symmetry_1
_geom_bond_site_symmetry_2
Zr1 O1 1_555 1_555
Zr11 O1 1_555 1_555
Fe1 N1 1_555 1_555
O1 Zr4 1_555 1_555
O2 Zr1 1_555 1_555
O3 Zr11 1_555 1_555
O4 Zr1 1_555 1_555
N1 C8 1_555 1_555
N2 Fe1 1_555 1_555
C1 C2 1_555 1_555
C2 N2 1_555 1_555
C3 H1 1_555 1_555
C4 H2 1_555 1_555
C5 C3 1_555 1_555
C6 O3 1_555 1_555
C7 C5 1_555 1_555
H3 C7 1_555 1_555
C8 C1 1_555 1_555
C9 C7 1_555 1_555
H4 C9 1_555 1_555
C10 C1 1_555 1_555
C11 C3 1_555 1_555
H5 C11 1_555 1_555
C12 C2 1_555 1_555
H6 C12 1_555 1_555
O5 Zr1 1_555 1_555
O6 Zr1 1_555 1_555
Cl1 Fe1 1_555 1_555
Zr6 O19 1_555 1_555
Zr7 O20 1_555 1_555
Zr8 O21 1_555 1_555
Zr10 O13 1_555 1_555
Zr10_2 O14 1_555 1_555
Zr11_2 O15 1_555 1_555
O10 Zr11 1_555 1_555
O13 C28 1_555 1_555
O14 C29 1_555 1_555
O15 C30 1_555 1_555
O18 Zr11 1_555 1_555
O19 C28 1_555 1_555
O20 C29 1_555 1_555
O21 C30 1_555 1_555
N3 Fe1 1_555 1_555
N4 Fe1 1_555 1_555
C13 C16 1_555 1_555
C14 C17 1_555 1_555
C15 C18 1_555 1_555
C16 N2 1_555 1_555
C17 N4 1_555 1_555
C18 N4 1_555 1_555
C19 H7 1_555 1_555
C20 H8 1_555 1_555
C21 H9 1_555 1_555
C22 C4 1_555 1_555
C23 C24 1_555 1_555
C24 H11 1_555 1_555
H10 C22 1_555 1_555
H12 C23 1_555 1_555
C25 C19 1_555 1_555
C26 C20 1_555 1_555
C27 C21 1_555 1_555
C28 C25 1_555 1_555
C29 C26 1_555 1_555
C30 C27 1_555 1_555
C31 C25 1_555 1_555
C32 C26 1_555 1_555
C33 C27 1_555 1_555
H13 C31 1_555 1_555
H14 C32 1_555 1_555
H15 C33 1_555 1_555
C34 N3 1_555 1_555
C35 N3 1_555 1_555
C36 N1 1_555 1_555
C37 C31 1_555 1_555
C38 C32 1_555 1_555
C39 C33 1_555 1_555
H16 C37 1_555 1_555
H17 C38 1_555 1_555
H18 C39 1_555 1_555
C40 C15 1_555 1_555
C41 C14 1_555 1_555
C42 C13 1_555 1_555
C43 C19 1_555 1_555
C44 C20 1_555 1_555
C45 C21 1_555 1_555
H19 C43 1_555 1_555
H20 C44 1_555 1_555
H21 C45 1_555 1_555
C46 C18 1_555 1_555
C47 C17 1_555 1_555
C48 C12 1_555 1_555
H22 C47 1_555 1_555
H23 C46 1_555 1_555
H24 C48 1_555 1_555
Zr11 O2 1_555 1_555
O4 C6 1_555 1_555
C4 C8 1_555 1_555
C5 C6 1_555 1_555
C9 C10 1_555 1_555
C10 C11 1_555 1_555
Zr4 O10 1_555 1_555
C13 C34 1_555 1_555
C14 C35 1_555 1_555
C15 C36 1_555 1_555
C16 C48 1_555 1_555
C22 C36 1_555 1_555
C23 C35 1_555 1_555
C24 C34 1_555 1_555
C37 C40 1_555 1_555
C38 C41 1_555 1_555
C39 C42 1_555 1_555
C40 C43 1_555 1_555
C41 C44 1_555 1_555
C42 C45 1_555 1_555
C46 C47 1_555 1_555
O6 H25 1_555 1_555
O5 H27 1_555 1_555
Zr3 O7 1_555 1_555
Zr8 O2_2 1_555 1_555
O7 Zr11_2 1_555 1_555
O10_2 Zr11_2 1_555 1_555
O16 Zr11_2 1_555 1_555
O23 Zr3 1_555 1_555
O25 Zr3 1_555 1_555
O26 Zr3 1_555 1_555
Zr11_2 O2_2 1_555 1_555
Zr3 O10_2 1_555 1_555
Zr8 O7 1_555 1_555
O25 H29 1_555 1_555
O26 H31 1_555 1_555
O5_2 Zr1_2 1_555 1_555
O6_2 Zr1_2 1_555 1_555
Zr4_2 O8 1_555 1_555
O8 Zr1_2 1_555 1_555
O11 Zr1_2 1_555 1_555
O22 Zr1_2 1_555 1_555
Zr4_2 O12 1_555 1_555
O6_2 H26 1_555 1_555
O5_2 H28 1_555 1_555
O9 Zr3_2 1_555 1_555
O12_2 Zr3_2 1_555 1_555
O24 Zr3_2 1_555 1_555
O25_2 Zr3_2 1_555 1_555
O26_2 Zr3_2 1_555 1_555
Zr8_2 O9 1_555 1_555
Zr8_2 O11_2 1_555 1_555
O25_2 H30 1_555 1_555
O26_2 H32 1_555 1_555
Zr6 O1_2 1_555 1_555
Zr11_3 O1_2 1_555 1_555
Fe1_2 N1_2 1_555 1_555
O1_2 Zr4_3 1_555 1_555
O2_3 Zr6 1_555 1_555
O3_2 Zr11_3 1_555 1_555
O4_2 Zr6 1_555 1_555
N1_2 C8_2 1_555 1_555
N2_2 Fe1_2 1_555 1_555
C1_2 C2_2 1_555 1_555
C2_2 N2_2 1_555 1_555
C3_2 H1_2 1_555 1_555
C4_2 H2_2 1_555 1_555
C5_2 C3_2 1_555 1_555
C6_2 O3_2 1_555 1_555
C7_2 C5_2 1_555 1_555
H3_2 C7_2 1_555 1_555
C8_2 C1_2 1_555 1_555
C9_2 C7_2 1_555 1_555
H4_2 C9_2 1_555 1_555
C10_2 C1_2 1_555 1_555
C11_2 C3_2 1_555 1_555
H5_2 C11_2 1_555 1_555
C12_2 C2_2 1_555 1_555
H6_2 C12_2 1_555 1_555
O5_3 Zr6 1_555 1_555
O6_3 Zr6 1_555 1_555
Cl1_2 Fe1_2 1_555 1_555
Zr4_3 O8_2 1_555 1_555
Zr6_2 O19_2 1_555 1_555
Zr7_2 O20_2 1_555 1_555
Zr7 O21_2 1_555 1_555
Zr10_3 O13_2 1_555 1_555
Zr10_4 O14_2 1_555 1_555
Zr11_4 O15_2 1_555 1_555
O8_2 Zr6 1_555 1_555
O10_3 Zr11_3 1_555 1_555
O11_3 Zr6 1_555 1_555
O13_2 C28_2 1_555 1_555
O14_2 C29_2 1_555 1_555
O15_2 C30_2 1_555 1_555
O18_2 Zr11_3 1_555 1_555
O19_2 C28_2 1_555 1_555
O20_2 C29_2 1_555 1_555
O21_2 C30_2 1_555 1_555
N3_2 Fe1_2 1_555 1_555
N4_2 Fe1_2 1_555 1_555
C13_2 C16_2 1_555 1_555
C14_2 C17_2 1_555 1_555
C15_2 C18_2 1_555 1_555
C16_2 N2_2 1_555 1_555
C17_2 N4_2 1_555 1_555
C18_2 N4_2 1_555 1_555
C19_2 H7_2 1_555 1_555
C20_2 H8_2 1_555 1_555
C21_2 H9_2 1_555 1_555
C22_2 C4_2 1_555 1_555
C23_2 C24_2 1_555 1_555
C24_2 H11_2 1_555 1_555
H10_2 C22_2 1_555 1_555
H12_2 C23_2 1_555 1_555
C25_2 C19_2 1_555 1_555
C26_2 C20_2 1_555 1_555
C27_2 C21_2 1_555 1_555
C28_2 C25_2 1_555 1_555
C29_2 C26_2 1_555 1_555
C30_2 C27_2 1_555 1_555
C31_2 C25_2 1_555 1_555
C32_2 C26_2 1_555 1_555
C33_2 C27_2 1_555 1_555
H13_2 C31_2 1_555 1_555
H14_2 C32_2 1_555 1_555
H15_2 C33_2 1_555 1_555
C34_2 N3_2 1_555 1_555
C35_2 N3_2 1_555 1_555
C36_2 N1_2 1_555 1_555
C37_2 C31_2 1_555 1_555
C38_2 C32_2 1_555 1_555
C39_2 C33_2 1_555 1_555
H16_2 C37_2 1_555 1_555
H17_2 C38_2 1_555 1_555
H18_2 C39_2 1_555 1_555
C40_2 C15_2 1_555 1_555
C41_2 C14_2 1_555 1_555
C42_2 C13_2 1_555 1_555
C43_2 C19_2 1_555 1_555
C44_2 C20_2 1_555 1_555
C45_2 C21_2 1_555 1_555
H19_2 C43_2 1_555 1_555
H20_2 C44_2 1_555 1_555
H21_2 C45_2 1_555 1_555
C46_2 C18_2 1_555 1_555
C47_2 C17_2 1_555 1_555
C48_2 C12_2 1_555 1_555
H22_2 C47_2 1_555 1_555
H23_2 C46_2 1_555 1_555
H24_2 C48_2 1_555 1_555
Zr11_3 O2_3 1_555 1_555
O4_2 C6_2 1_555 1_555
C4_2 C8_2 1_555 1_555
C5_2 C6_2 1_555 1_555
C9_2 C10_2 1_555 1_555
C10_2 C11_2 1_555 1_555
Zr4_3 O10_3 1_555 1_555
Zr4_3 O12_3 1_555 1_555
C13_2 C34_2 1_555 1_555
C14_2 C35_2 1_555 1_555
C15_2 C36_2 1_555 1_555
C16_2 C48_2 1_555 1_555
C22_2 C36_2 1_555 1_555
C23_2 C35_2 1_555 1_555
C24_2 C34_2 1_555 1_555
C37_2 C40_2 1_555 1_555
C38_2 C41_2 1_555 1_555
C39_2 C42_2 1_555 1_555
C40_2 C43_2 1_555 1_555
C41_2 C44_2 1_555 1_555
C42_2 C45_2 1_555 1_555
C46_2 C47_2 1_555 1_555
Zr3_3 O7_2 1_555 1_555
Zr7 O2_4 1_555 1_555
O7_2 Zr11_4 1_555 1_555
O9_2 Zr3_3 1_555 1_555
O10_4 Zr11_4 1_555 1_555
O12_4 Zr3_3 1_555 1_555
O16_2 Zr11_4 1_555 1_555
O23_2 Zr3_3 1_555 1_555
O24_2 Zr3_3 1_555 1_555
O25_3 Zr3_3 1_555 1_555
O26_3 Zr3_3 1_555 1_555
Zr11_4 O2_4 1_555 1_555
Zr3_3 O10_4 1_555 1_555
Zr7 O7_2 1_555 1_555
Zr7 O9_2 1_555 1_555
Zr7 O11_4 1_555 1_555
O5_4 Zr6_2 1_555 1_555
O6_4 Zr6_2 1_555 1_555
Zr4_4 O8_3 1_555 1_555
O8_3 Zr6_2 1_555 1_555
O11_5 Zr6_2 1_555 1_555
Zr4_4 O12_5 1_555 1_555
O6_4 H26_2 1_555 1_555
O5_4 H28_2 1_555 1_555
O9_3 Zr3_4 1_555 1_555
O12_6 Zr3_4 1_555 1_555
O24_3 Zr3_4 1_555 1_555
O25_4 Zr3_4 1_555 1_555
O26_4 Zr3_4 1_555 1_555
Zr7_2 O9_3 1_555 1_555
Zr7_2 O11_6 1_555 1_555
O25_4 H30_2 1_555 1_555
O26_4 H32_2 1_555 1_555
Zr6_3 O1_3 1_555 1_555
Zr11_5 O1_3 1_555 1_555
Fe1_3 N1_3 1_555 1_555
O1_3 Zr4_5 1_555 1_555
O2_5 Zr6_3 1_555 1_555
O3_3 Zr11_5 1_555 1_555
O4_3 Zr6_3 1_555 1_555
N1_3 C8_3 1_555 1_555
N2_3 Fe1_3 1_555 1_555
C1_3 C2_3 1_555 1_555
C2_3 N2_3 1_555 1_555
C3_3 H1_3 1_555 1_555
C4_3 H2_3 1_555 1_555
C5_3 C3_3 1_555 1_555
C6_3 O3_3 1_555 1_555
C7_3 C5_3 1_555 1_555
H3_3 C7_3 1_555 1_555
C8_3 C1_3 1_555 1_555
C9_3 C7_3 1_555 1_555
H4_3 C9_3 1_555 1_555
C10_3 C1_3 1_555 1_555
C11_3 C3_3 1_555 1_555
H5_3 C11_3 1_555 1_555
C12_3 C2_3 1_555 1_555
H6_3 C12_3 1_555 1_555
O5_5 Zr6_3 1_555 1_555
O6_5 Zr6_3 1_555 1_555
Cl1_3 Fe1_3 1_555 1_555
Zr4 O19_3 1_555 1_555
Zr7_3 O21_3 1_555 1_555
Zr11_6 O15_3 1_555 1_555
O10_5 Zr11_5 1_555 1_555
O18 C28_3 1_555 1_555
O16 C29_3 1_555 1_555
O15_3 C30_3 1_555 1_555
O18_3 Zr11_5 1_555 1_555
O19_3 C28_3 1_555 1_555
O23 C29_3 1_555 1_555
O21_3 C30_3 1_555 1_555
N3_3 Fe1_3 1_555 1_555
N4_3 Fe1_3 1_555 1_555
C13_3 C16_3 1_555 1_555
C14_3 C17_3 1_555 1_555
C15_3 C18_3 1_555 1_555
C16_3 N2_3 1_555 1_555
C17_3 N4_3 1_555 1_555
C18_3 N4_3 1_555 1_555
C19_3 H7_3 1_555 1_555
C20_3 H8_3 1_555 1_555
C21_3 H9_3 1_555 1_555
C22_3 C4_3 1_555 1_555
C23_3 C24_3 1_555 1_555
C24_3 H11_3 1_555 1_555
H10_3 C22_3 1_555 1_555
H12_3 C23_3 1_555 1_555
C25_3 C19_3 1_555 1_555
C26_3 C20_3 1_555 1_555
C27_3 C21_3 1_555 1_555
C28_3 C25_3 1_555 1_555
C29_3 C26_3 1_555 1_555
C30_3 C27_3 1_555 1_555
C31_3 C25_3 1_555 1_555
C32_3 C26_3 1_555 1_555
C33_3 C27_3 1_555 1_555
H13_3 C31_3 1_555 1_555
H14_3 C32_3 1_555 1_555
H15_3 C33_3 1_555 1_555
C34_3 N3_3 1_555 1_555
C35_3 N3_3 1_555 1_555
C36_3 N1_3 1_555 1_555
C37_3 C31_3 1_555 1_555
C38_3 C32_3 1_555 1_555
C39_3 C33_3 1_555 1_555
H16_3 C37_3 1_555 1_555
H17_3 C38_3 1_555 1_555
H18_3 C39_3 1_555 1_555
C40_3 C15_3 1_555 1_555
C41_3 C14_3 1_555 1_555
C42_3 C13_3 1_555 1_555
C43_3 C19_3 1_555 1_555
C44_3 C20_3 1_555 1_555
C45_3 C21_3 1_555 1_555
H19_3 C43_3 1_555 1_555
H20_3 C44_3 1_555 1_555
H21_3 C45_3 1_555 1_555
C46_3 C18_3 1_555 1_555
C47_3 C17_3 1_555 1_555
C48_3 C12_3 1_555 1_555
H22_3 C47_3 1_555 1_555
H23_3 C46_3 1_555 1_555
H24_3 C48_3 1_555 1_555
Zr11_5 O2_5 1_555 1_555
O4_3 C6_3 1_555 1_555
C4_3 C8_3 1_555 1_555
C5_3 C6_3 1_555 1_555
C9_3 C10_3 1_555 1_555
C10_3 C11_3 1_555 1_555
Zr4_5 O10_5 1_555 1_555
C13_3 C34_3 1_555 1_555
C14_3 C35_3 1_555 1_555
C15_3 C36_3 1_555 1_555
C16_3 C48_3 1_555 1_555
C22_3 C36_3 1_555 1_555
C23_3 C35_3 1_555 1_555
C24_3 C34_3 1_555 1_555
C37_3 C40_3 1_555 1_555
C38_3 C41_3 1_555 1_555
C39_3 C42_3 1_555 1_555
C40_3 C43_3 1_555 1_555
C41_3 C44_3 1_555 1_555
C42_3 C45_3 1_555 1_555
C46_3 C47_3 1_555 1_555
O6_5 H25_2 1_555 1_555
O5_5 H27_2 1_555 1_555
Zr3_5 O7_3 1_555 1_555
Zr7_3 O2_6 1_555 1_555
O7_3 Zr11_6 1_555 1_555
O10_6 Zr11_6 1_555 1_555
O16_3 Zr11_6 1_555 1_555
O23_3 Zr3_5 1_555 1_555
O25_5 Zr3_5 1_555 1_555
O26_5 Zr3_5 1_555 1_555
Zr11_6 O2_6 1_555 1_555
Zr3_5 O10_6 1_555 1_555
Zr7_3 O7_3 1_555 1_555
O25_5 H29_2 1_555 1_555
O26_5 H31_2 1_555 1_555
O5_6 Zr4 1_555 1_555
O6_6 Zr4 1_555 1_555
O6_6 H26_3 1_555 1_555
O5_6 H28_3 1_555 1_555
O25_6 Zr8 1_555 1_555
O26_6 Zr8 1_555 1_555
O25_6 H30_3 1_555 1_555
O26_6 H32_3 1_555 1_555
Zr11_7 O8 1_555 1_555
Fe1_4 N1_4 1_555 1_555
O3_4 Zr11_7 1_555 1_555
O4_4 Zr4_2 1_555 1_555
N1_4 C8_4 1_555 1_555
N2_4 Fe1_4 1_555 1_555
C1_4 C2_4 1_555 1_555
C2_4 N2_4 1_555 1_555
C3_4 H1_4 1_555 1_555
C4_4 H2_4 1_555 1_555
C5_4 C3_4 1_555 1_555
C6_4 O3_4 1_555 1_555
C7_4 C5_4 1_555 1_555
H3_4 C7_4 1_555 1_555
C8_4 C1_4 1_555 1_555
C9_4 C7_4 1_555 1_555
H4_4 C9_4 1_555 1_555
C10_4 C1_4 1_555 1_555
C11_4 C3_4 1_555 1_555
H5_4 C11_4 1_555 1_555
C12_4 C2_4 1_555 1_555
H6_4 C12_4 1_555 1_555
O5_7 Zr4_2 1_555 1_555
O6_7 Zr4_2 1_555 1_555
Cl1_4 Fe1_4 1_555 1_555
Zr4_3 O19_4 1_555 1_555
Zr11_8 O15_4 1_555 1_555
O11 Zr11_7 1_555 1_555
O18_2 C28_4 1_555 1_555
O16_2 C29_4 1_555 1_555
O15_4 C30_4 1_555 1_555
O18_4 Zr11_7 1_555 1_555
O19_4 C28_4 1_555 1_555
O23_2 C29_4 1_555 1_555
O24 C30_4 1_555 1_555
N3_4 Fe1_4 1_555 1_555
N4_4 Fe1_4 1_555 1_555
C13_4 C16_4 1_555 1_555
C14_4 C17_4 1_555 1_555
C15_4 C18_4 1_555 1_555
C16_4 N2_4 1_555 1_555
C17_4 N4_4 1_555 1_555
C18_4 N4_4 1_555 1_555
C19_4 H7_4 1_555 1_555
C20_4 H8_4 1_555 1_555
C21_4 H9_4 1_555 1_555
C22_4 C4_4 1_555 1_555
C23_4 C24_4 1_555 1_555
C24_4 H11_4 1_555 1_555
H10_4 C22_4 1_555 1_555
H12_4 C23_4 1_555 1_555
C25_4 C19_4 1_555 1_555
C26_4 C20_4 1_555 1_555
C27_4 C21_4 1_555 1_555
C28_4 C25_4 1_555 1_555
C29_4 C26_4 1_555 1_555
C30_4 C27_4 1_555 1_555
C31_4 C25_4 1_555 1_555
C32_4 C26_4 1_555 1_555
C33_4 C27_4 1_555 1_555
H13_4 C31_4 1_555 1_555
H14_4 C32_4 1_555 1_555
H15_4 C33_4 1_555 1_555
C34_4 N3_4 1_555 1_555
C35_4 N3_4 1_555 1_555
C36_4 N1_4 1_555 1_555
C37_4 C31_4 1_555 1_555
C38_4 C32_4 1_555 1_555
C39_4 C33_4 1_555 1_555
H16_4 C37_4 1_555 1_555
H17_4 C38_4 1_555 1_555
H18_4 C39_4 1_555 1_555
C40_4 C15_4 1_555 1_555
C41_4 C14_4 1_555 1_555
C42_4 C13_4 1_555 1_555
C43_4 C19_4 1_555 1_555
C44_4 C20_4 1_555 1_555
C45_4 C21_4 1_555 1_555
H19_4 C43_4 1_555 1_555
H20_4 C44_4 1_555 1_555
H21_4 C45_4 1_555 1_555
C46_4 C18_4 1_555 1_555
C47_4 C17_4 1_555 1_555
C48_4 C12_4 1_555 1_555
H22_4 C47_4 1_555 1_555
H23_4 C46_4 1_555 1_555
H24_4 C48_4 1_555 1_555
Zr11_7 O12 1_555 1_555
O4_4 C6_4 1_555 1_555
C4_4 C8_4 1_555 1_555
C5_4 C6_4 1_555 1_555
C9_4 C10_4 1_555 1_555
C10_4 C11_4 1_555 1_555
C13_4 C34_4 1_555 1_555
C14_4 C35_4 1_555 1_555
C15_4 C36_4 1_555 1_555
C16_4 C48_4 1_555 1_555
C22_4 C36_4 1_555 1_555
C23_4 C35_4 1_555 1_555
C24_4 C34_4 1_555 1_555
C37_4 C40_4 1_555 1_555
C38_4 C41_4 1_555 1_555
C39_4 C42_4 1_555 1_555
C40_4 C43_4 1_555 1_555
C41_4 C44_4 1_555 1_555
C42_4 C45_4 1_555 1_555
C46_4 C47_4 1_555 1_555
O6_7 H25_3 1_555 1_555
O5_7 H27_3 1_555 1_555
O9 Zr11_8 1_555 1_555
O11_2 Zr11_8 1_555 1_555
O16_4 Zr11_8 1_555 1_555
O23_4 Zr8_2 1_555 1_555
O25_7 Zr8_2 1_555 1_555
O26_7 Zr8_2 1_555 1_555
Zr11_8 O12_2 1_555 1_555
O25_7 H29_3 1_555 1_555
O26_7 H31_3 1_555 1_555
Zr10 O8_2 1_555 1_555
Fe1_5 N1_5 1_555 1_555
O3_5 Zr10 1_555 1_555
O4_5 Zr4_3 1_555 1_555
N1_5 C8_5 1_555 1_555
N2_5 Fe1_5 1_555 1_555
C1_5 C2_5 1_555 1_555
C2_5 N2_5 1_555 1_555
C3_5 H1_5 1_555 1_555
C4_5 H2_5 1_555 1_555
C5_5 C3_5 1_555 1_555
C6_5 O3_5 1_555 1_555
C7_5 C5_5 1_555 1_555
H3_5 C7_5 1_555 1_555
C8_5 C1_5 1_555 1_555
C9_5 C7_5 1_555 1_555
H4_5 C9_5 1_555 1_555
C10_5 C1_5 1_555 1_555
C11_5 C3_5 1_555 1_555
H5_5 C11_5 1_555 1_555
C12_5 C2_5 1_555 1_555
H6_5 C12_5 1_555 1_555
O5_8 Zr4_3 1_555 1_555
O6_8 Zr4_3 1_555 1_555
Cl1_5 Fe1_5 1_555 1_555
Zr4_5 O19_5 1_555 1_555
Zr10_2 O15_5 1_555 1_555
O11_3 Zr10 1_555 1_555
O18_3 C28_5 1_555 1_555
O16_3 C29_5 1_555 1_555
O15_5 C30_5 1_555 1_555
O19_5 C28_5 1_555 1_555
O23_3 C29_5 1_555 1_555
O24_2 C30_5 1_555 1_555
N3_5 Fe1_5 1_555 1_555
N4_5 Fe1_5 1_555 1_555
C13_5 C16_5 1_555 1_555
C14_5 C17_5 1_555 1_555
C15_5 C18_5 1_555 1_555
C16_5 N2_5 1_555 1_555
C17_5 N4_5 1_555 1_555
C18_5 N4_5 1_555 1_555
C19_5 H7_5 1_555 1_555
C20_5 H8_5 1_555 1_555
C21_5 H9_5 1_555 1_555
C22_5 C4_5 1_555 1_555
C23_5 C24_5 1_555 1_555
C24_5 H11_5 1_555 1_555
H10_5 C22_5 1_555 1_555
H12_5 C23_5 1_555 1_555
C25_5 C19_5 1_555 1_555
C26_5 C20_5 1_555 1_555
C27_5 C21_5 1_555 1_555
C28_5 C25_5 1_555 1_555
C29_5 C26_5 1_555 1_555
C30_5 C27_5 1_555 1_555
C31_5 C25_5 1_555 1_555
C32_5 C26_5 1_555 1_555
C33_5 C27_5 1_555 1_555
H13_5 C31_5 1_555 1_555
H14_5 C32_5 1_555 1_555
H15_5 C33_5 1_555 1_555
C34_5 N3_5 1_555 1_555
C35_5 N3_5 1_555 1_555
C36_5 N1_5 1_555 1_555
C37_5 C31_5 1_555 1_555
C38_5 C32_5 1_555 1_555
C39_5 C33_5 1_555 1_555
H16_5 C37_5 1_555 1_555
H17_5 C38_5 1_555 1_555
H18_5 C39_5 1_555 1_555
C40_5 C15_5 1_555 1_555
C41_5 C14_5 1_555 1_555
C42_5 C13_5 1_555 1_555
C43_5 C19_5 1_555 1_555
C44_5 C20_5 1_555 1_555
C45_5 C21_5 1_555 1_555
H19_5 C43_5 1_555 1_555
H20_5 C44_5 1_555 1_555
H21_5 C45_5 1_555 1_555
C46_5 C18_5 1_555 1_555
C47_5 C17_5 1_555 1_555
C48_5 C12_5 1_555 1_555
H22_5 C47_5 1_555 1_555
H23_5 C46_5 1_555 1_555
H24_5 C48_5 1_555 1_555
Zr10 O12_3 1_555 1_555
O4_5 C6_5 1_555 1_555
C4_5 C8_5 1_555 1_555
C5_5 C6_5 1_555 1_555
C9_5 C10_5 1_555 1_555
C10_5 C11_5 1_555 1_555
C13_5 C34_5 1_555 1_555
C14_5 C35_5 1_555 1_555
C15_5 C36_5 1_555 1_555
C16_5 C48_5 1_555 1_555
C22_5 C36_5 1_555 1_555
C23_5 C35_5 1_555 1_555
C24_5 C34_5 1_555 1_555
C37_5 C40_5 1_555 1_555
C38_5 C41_5 1_555 1_555
C39_5 C42_5 1_555 1_555
C40_5 C43_5 1_555 1_555
C41_5 C44_5 1_555 1_555
C42_5 C45_5 1_555 1_555
C46_5 C47_5 1_555 1_555
O9_2 Zr10_2 1_555 1_555
O11_4 Zr10_2 1_555 1_555
O25_8 Zr7 1_555 1_555
O26_8 Zr7 1_555 1_555
Zr10_2 O12_4 1_555 1_555
Zr10_3 O8_3 1_555 1_555
Fe1_6 N1_6 1_555 1_555
O3_6 Zr10_3 1_555 1_555
O4_6 Zr4_4 1_555 1_555
N1_6 C8_6 1_555 1_555
N2_6 Fe1_6 1_555 1_555
C1_6 C2_6 1_555 1_555
C2_6 N2_6 1_555 1_555
C3_6 H1_6 1_555 1_555
C4_6 H2_6 1_555 1_555
C5_6 C3_6 1_555 1_555
C6_6 O3_6 1_555 1_555
C7_6 C5_6 1_555 1_555
H3_6 C7_6 1_555 1_555
C8_6 C1_6 1_555 1_555
C9_6 C7_6 1_555 1_555
H4_6 C9_6 1_555 1_555
C10_6 C1_6 1_555 1_555
C11_6 C3_6 1_555 1_555
H5_6 C11_6 1_555 1_555
C12_6 C2_6 1_555 1_555
H6_6 C12_6 1_555 1_555
O5_9 Zr4_4 1_555 1_555
O6_9 Zr4_4 1_555 1_555
Cl1_6 Fe1_6 1_555 1_555
Zr10_4 O15_6 1_555 1_555
O11_5 Zr10_3 1_555 1_555
O18_4 C28_6 1_555 1_555
O16_4 C29_6 1_555 1_555
O15_6 C30_6 1_555 1_555
O22 C28_6 1_555 1_555
O23_4 C29_6 1_555 1_555
O24_3 C30_6 1_555 1_555
N3_6 Fe1_6 1_555 1_555
N4_6 Fe1_6 1_555 1_555
C13_6 C16_6 1_555 1_555
C14_6 C17_6 1_555 1_555
C15_6 C18_6 1_555 1_555
C16_6 N2_6 1_555 1_555
C17_6 N4_6 1_555 1_555
C18_6 N4_6 1_555 1_555
C19_6 H7_6 1_555 1_555
C20_6 H8_6 1_555 1_555
C21_6 H9_6 1_555 1_555
C22_6 C4_6 1_555 1_555
C23_6 C24_6 1_555 1_555
C24_6 H11_6 1_555 1_555
H10_6 C22_6 1_555 1_555
H12_6 C23_6 1_555 1_555
C25_6 C19_6 1_555 1_555
C26_6 C20_6 1_555 1_555
C27_6 C21_6 1_555 1_555
C28_6 C25_6 1_555 1_555
C29_6 C26_6 1_555 1_555
C30_6 C27_6 1_555 1_555
C31_6 C25_6 1_555 1_555
C32_6 C26_6 1_555 1_555
C33_6 C27_6 1_555 1_555
H13_6 C31_6 1_555 1_555
H14_6 C32_6 1_555 1_555
H15_6 C33_6 1_555 1_555
C34_6 N3_6 1_555 1_555
C35_6 N3_6 1_555 1_555
C36_6 N1_6 1_555 1_555
C37_6 C31_6 1_555 1_555
C38_6 C32_6 1_555 1_555
C39_6 C33_6 1_555 1_555
H16_6 C37_6 1_555 1_555
H17_6 C38_6 1_555 1_555
H18_6 C39_6 1_555 1_555
C40_6 C15_6 1_555 1_555
C41_6 C14_6 1_555 1_555
C42_6 C13_6 1_555 1_555
C43_6 C19_6 1_555 1_555
C44_6 C20_6 1_555 1_555
C45_6 C21_6 1_555 1_555
H19_6 C43_6 1_555 1_555
H20_6 C44_6 1_555 1_555
H21_6 C45_6 1_555 1_555
C46_6 C18_6 1_555 1_555
C47_6 C17_6 1_555 1_555
C48_6 C12_6 1_555 1_555
H22_6 C47_6 1_555 1_555
H23_6 C46_6 1_555 1_555
H24_6 C48_6 1_555 1_555
Zr10_3 O12_5 1_555 1_555
O4_6 C6_6 1_555 1_555
C4_6 C8_6 1_555 1_555
C5_6 C6_6 1_555 1_555
C9_6 C10_6 1_555 1_555
C10_6 C11_6 1_555 1_555
C13_6 C34_6 1_555 1_555
C14_6 C35_6 1_555 1_555
C15_6 C36_6 1_555 1_555
C16_6 C48_6 1_555 1_555
C22_6 C36_6 1_555 1_555
C23_6 C35_6 1_555 1_555
C24_6 C34_6 1_555 1_555
C37_6 C40_6 1_555 1_555
C38_6 C41_6 1_555 1_555
C39_6 C42_6 1_555 1_555
C40_6 C43_6 1_555 1_555
C41_6 C44_6 1_555 1_555
C42_6 C45_6 1_555 1_555
C46_6 C47_6 1_555 1_555
O6_9 H25_4 1_555 1_555
O5_9 H27_4 1_555 1_555
O9_3 Zr10_4 1_555 1_555
O11_6 Zr10_4 1_555 1_555
O25_9 Zr7_2 1_555 1_555
O26_9 Zr7_2 1_555 1_555
Zr10_4 O12_6 1_555 1_555
O25_9 H29_4 1_555 1_555
O26_9 H31_4 1_555 1_555
O5_10 Zr4_5 1_555 1_555
O6_10 Zr4_5 1_555 1_555
O6_10 H26_4 1_555 1_555
O5_10 H28_4 1_555 1_555
O25_10 Zr7_3 1_555 1_555
O26_10 Zr7_3 1_555 1_555
O25_10 H30_4 1_555 1_555
O26_10 H32_4 1_555 1_555
O5 H30_5 1_555 1_555
O6 H32_5 1_555 1_555
O26 H26_5 1_555 1_555
O25 H28_5 1_555 1_555
O5_2 H29_5 1_555 1_555
O6_2 H31_5 1_555 1_555
O26_2 H25_5 1_555 1_555
O25_2 H27_5 1_555 1_555
O5_4 H29_6 1_555 1_555
O6_4 H31_6 1_555 1_555
O26_4 H25_6 1_555 1_555
O25_4 H27_6 1_555 1_555
O5_5 H30_6 1_555 1_555
O6_5 H32_6 1_555 1_555
O26_5 H26_6 1_555 1_555
O25_5 H28_6 1_555 1_555
O5_6 H29_7 1_555 1_555
O6_6 H31_7 1_555 1_555
O26_6 H25_7 1_555 1_555
O25_6 H27_7 1_555 1_555
O5_7 H30_7 1_555 1_555
O6_7 H32_7 1_555 1_555
O26_7 H26_7 1_555 1_555
O25_7 H28_7 1_555 1_555
O5_9 H30_8 1_555 1_555
O6_9 H32_8 1_555 1_555
O26_9 H26_8 1_555 1_555
O25_9 H28_8 1_555 1_555
O5_10 H29_8 1_555 1_555
O6_10 H31_8 1_555 1_555
O26_10 H25_8 1_555 1_555
O25_10 H27_8 1_555 1_555

#END
