
###############################################################################
#
# This file contains modified crystal structure data generated from the
# MOF subset of the Cambridge Structural Database (CSD) v543 
# hosted by the Cambridge Crystallographic Data Centre (CCDC).
#
# This work is licensed under the Creative Commons
# Attribution-NonCommercial-ShareAlike 4.0 International License.
# To view a copy of this license, visit
# http://creativecommons.org/licenses/by-nc-sa/4.0/
# or send a letter to
# Creative Commons, PO Box 1866, Mountain View, CA 94042, USA.
#
# CIF created using the CSD Python API on 29 September 2022
# The structure has been converted into the P1 space group
# The structure has a 3D framework
# The original CSD entry BEGZEW is in the monoclinic crystal system
# The framework has been calculated to contain at least 10.0% void space
# The void calculation uses a probe of radius 1.32A, grid spacing 0.4
#
###############################################################################

data_BEGZEW
_chemical_formula_moiety         '(C272 H196 Cu12 N48 O44)n'
_symmetry_cell_setting           triclinic
_symmetry_space_group_name_H-M   'P 1'
_symmetry_Int_Tables_number      1
_space_group_name_Hall           'P 1'
loop_
_symmetry_equiv_pos_site_id
_symmetry_equiv_pos_as_xyz
1 x,y,z
_cell_length_a                   19.0772(6)
_cell_length_b                   32.4115(10)
_cell_length_c                   19.4415(15)
_cell_angle_alpha                90
_cell_angle_beta                 100.577(4)
_cell_angle_gamma                90
_cell_volume                     11816.8
loop_
_atom_site_label
_atom_site_type_symbol
_atom_site_fract_x
_atom_site_fract_y
_atom_site_fract_z
C11 C 0.0461(2) 0.13491(12) 0.3507(2)
C12 C 0.0447(2) 0.17598(12) 0.3357(2)
H5 H 0.0866 0.1908 0.3365
C15 C 0.1389(2) 0.09648(11) 0.4313(2)
C16 C 0.1006(2) 0.09586(14) 0.4907(2)
H7 H 0.0679 0.0731 0.4855
H8 H 0.0747 0.1212 0.4916
H9 H 0.1343 0.0929 0.5336
C17 C 0.2178(3) 0.08902(15) 0.3671(3)
H10 H 0.2595 0.0811 0.3524
C18 C 0.1648(2) 0.11038(16) 0.3286(3)
H11 H 0.1625 0.1201 0.2833
C19 C 0.0055(4) 0.25948(15) 0.2578(3)
H12 H 0.0287 0.2481 0.2242
H13 H 0.0078 0.3214 0.2423
Cu1 Cu 0.2500 0.04078(2) 0.5000
N3 N 0.11441(17) 0.11487(10) 0.37002(17)
N4 N 0.20193(15) 0.08045(9) 0.43138(17)
N15 N 0.29807(15) 0.08045(9) 0.56862(17)
O15 O 0.16002(15) 0.00630(9) 0.56430(18)
O16 O 0.33998(15) 0.00630(9) 0.43570(18)
N17 N 0.02126(15) 0.13464(9) 0.92264(18)
Cu8 Cu 0.07008(2) 0.85672(2) 0.14032(3)
O13 O 0.27516(15) 0.99664(8) 0.56927(15)
O14 O 0.22484(15) 0.99664(8) 0.43073(15)
C1 C 0.6547(2) 0.11644(13) 0.2491(2)
C2 C 0.7232(2) 0.10216(12) 0.2937(2)
C3 C 0.7230(2) 0.06719(13) 0.3348(2)
H1 H 0.6802 0.0540 0.3370
C4 C 0.7869(2) 0.05182(12) 0.3728(2)
C5 C 0.8495(2) 0.07210(12) 0.3706(2)
H2 H 0.8919 0.0617 0.3959
C6 C 0.8512(2) 0.10844(12) 0.3309(2)
C7 C 0.7870(2) 0.12181(12) 0.2914(2)
H3 H 0.7870 0.1447 0.2626
C8 C 0.7852(2) 0.01376(12) 0.4157(2)
C9 C 0.9183(2) 0.13152(12) 0.3323(2)
C10 C 0.9845(2) 0.11213(12) 0.3476(2)
H4 H 0.9872 0.0839 0.3558
C13 C 0.9788(2) 0.19498(11) 0.3194(2)
C14 C 0.9164(2) 0.17330(12) 0.3171(2)
H6 H 0.8728 0.1868 0.3053
C20 C 0.9940(3) 0.29986(15) 0.2687(3)
C21 C 0.9493(2) 0.26701(12) 0.3442(2)
C22 C 0.9140(4) 0.25732(15) 0.4051(3)
H14 H 0.9455 0.2409 0.4385
H15 H 0.8707 0.2423 0.3890
H16 H 0.9031 0.2825 0.4268
C23 C 0.6992(2) 0.08930(12) 0.0280(3)
C24 C 0.7500 0.11036(17) 0.0000
H17 H 0.7500 0.1391 0.0000
C25 C 0.6993(2) 0.04635(12) 0.0281(2)
H18 H 0.6651 0.0321 0.0471
C26 C 0.7500 0.02465(16) 0.0000
C35 C 0.6459(2) 0.11354(13) 0.0595(2)
Cu2 Cu 0.57008(2) 0.14328(2) 0.14032(3)
N1 N 0.97597(16) 0.23898(9) 0.30665(17)
N2 N 0.96038(16) 0.30460(9) 0.32225(18)
O1 O 0.59749(14) 0.10012(9) 0.25343(16)
O2 O 0.66145(14) 0.14510(8) 0.20562(16)
O3 O 0.72484(15) 0.00336(8) 0.43073(15)
O5 O 0.60984(13) 0.09428(7) 0.09807(16)
O6 O 0.64099(16) 0.15131(8) 0.04983(17)
Cu9 Cu 0.92992(2) 0.35672(2) 0.35968(3)
N13 N 0.53962(16) 0.19540(9) 0.17775(18)
N16 N 0.47874(15) 0.13464(9) 0.07736(18)
C24_2 C 0.7500 0.11036(17) 1.0000
H17_2 H 0.7500 0.1391 1.0000
C26_2 C 0.7500 0.02465(16) 1.0000
C36 C 0.8008(2) 0.08930(12) 0.9720(3)
C37 C 0.8007(2) 0.04635(12) 0.9719(2)
H26 H 0.8349 0.0321 0.9529
C44 C 0.8541(2) 0.11354(13) 0.9405(2)
O7 O 0.89016(13) 0.09428(7) 0.90193(16)
O8 O 0.85901(16) 0.15131(8) 0.95017(17)
C45 C 0.8453(2) 0.11644(13) 0.7509(2)
C46 C 0.7768(2) 0.10216(12) 0.7063(2)
C47 C 0.7770(2) 0.06719(13) 0.6652(2)
H33 H 0.8198 0.0540 0.6630
C48 C 0.7131(2) 0.05182(12) 0.6272(2)
C49 C 0.6505(2) 0.07210(12) 0.6294(2)
H34 H 0.6081 0.0617 0.6041
C50 C 0.6488(2) 0.10844(12) 0.6691(2)
C51 C 0.7130(2) 0.12181(12) 0.7086(2)
H35 H 0.7130 0.1447 0.7374
C52 C 0.7148(2) 0.01376(12) 0.5843(2)
C53 C 0.5817(2) 0.13152(12) 0.6677(2)
C54 C 0.5155(2) 0.11213(12) 0.6524(2)
H36 H 0.5128 0.0839 0.6442
C55 C 0.4539(2) 0.13491(12) 0.6493(2)
C56 C 0.4553(2) 0.17598(12) 0.6643(2)
H37 H 0.4134 0.1908 0.6635
C57 C 0.5212(2) 0.19498(11) 0.6806(2)
C58 C 0.5836(2) 0.17330(12) 0.6829(2)
H38 H 0.6272 0.1868 0.6947
C59 C 0.3611(2) 0.09648(11) 0.5687(2)
C60 C 0.3994(2) 0.09586(14) 0.5093(2)
H39 H 0.4321 0.0731 0.5145
H40 H 0.4253 0.1212 0.5084
H41 H 0.3657 0.0929 0.4664
C61 C 0.2822(3) 0.08902(15) 0.6329(3)
H42 H 0.2405 0.0811 0.6476
C62 C 0.3352(2) 0.11038(16) 0.6714(3)
H43 H 0.3375 0.1201 0.7167
C63 C 0.4945(4) 0.25948(15) 0.7422(3)
H44 H 0.4713 0.2481 0.7758
C64 C 0.5060(3) 0.29986(15) 0.7313(3)
H45 H 0.4922 0.3214 0.7577
C65 C 0.5507(2) 0.26701(12) 0.6558(2)
C66 C 0.5860(4) 0.25732(15) 0.5949(3)
H46 H 0.5545 0.2409 0.5615
H47 H 0.6293 0.2423 0.6110
H48 H 0.5969 0.2825 0.5732
Cu3 Cu 0.92992(2) 0.14328(2) 0.85968(3)
N9 N 0.52403(16) 0.23898(9) 0.69335(17)
N10 N 0.53962(16) 0.30460(9) 0.67775(18)
N11 N 0.38559(17) 0.11487(10) 0.62998(17)
O9 O 0.90251(14) 0.10012(9) 0.74657(16)
O10 O 0.83855(14) 0.14510(8) 0.79438(16)
O11 O 0.77516(15) 0.00336(8) 0.56927(15)
Cu10 Cu 0.57008(2) 0.35672(2) 0.64032(3)
N14 N 0.96038(16) 0.19540(9) 0.82225(18)
C27 C 0.7500 0.97876(16) 0.0000
C30 C 0.7500 0.89277(17) 0.0000
H20 H 0.7500 0.8641 0.0000
C31 C 0.6065(3) 0.85996(17) 0.0150(3)
H21 H 0.6333 0.8510 0.0573
O4 O 0.83998(15) 0.99370(9) 0.43570(18)
C38 C 0.81345(19) 0.95694(12) 0.0124(2)
H27 H 0.8565 0.9712 0.0209
C39 C 0.81359(18) 0.91470(12) 0.0125(2)
C41 C 0.9544(3) 0.84414(17) 0.0181(3)
H29 H 0.9773 0.8215 0.0026
C42 C 0.9311(2) 0.89308(12) 0.0808(2)
C43 C 0.9366(3) 0.9248(3) 0.1378(3)
H30 H 0.9629 0.9135 0.1805
H31 H 0.8896 0.9323 0.1443
H32 H 0.9608 0.9487 0.1249
N7 N 0.87825(16) 0.89160(9) 0.02475(18)
N8 N 0.97874(15) 0.86536(9) 0.07736(18)
Cu6 Cu 0.7500 0.95922(2) 0.5000
C27_2 C 0.7500 0.97876(16) 1.0000
C28 C 0.68655(19) 0.95694(12) 0.9876(2)
H19 H 0.6435 0.9712 0.9791
C29 C 0.68641(18) 0.91470(12) 0.9875(2)
C30_2 C 0.7500 0.89277(17) 1.0000
H20_2 H 0.7500 0.8641 1.0000
C32 C 0.5456(3) 0.84414(17) 0.9819(3)
H22 H 0.5227 0.8215 0.9974
C33 C 0.5689(2) 0.89308(12) 0.9192(2)
C34 C 0.5634(3) 0.9248(3) 0.8622(3)
H23 H 0.5371 0.9135 0.8195
H24 H 0.6104 0.9323 0.8557
H25 H 0.5392 0.9487 0.8751
N5 N 0.62175(16) 0.89160(9) 0.97525(18)
N6 N 0.52126(15) 0.86536(9) 0.92264(18)
C40 C 0.8935(3) 0.85996(17) 0.9850(3)
H28 H 0.8667 0.8510 0.9427
O12 O 0.66002(15) 0.99370(9) 0.56430(18)
Cu7 Cu 0.42992(2) 0.85672(2) 0.85968(3)
H9_2 H 0.6343 0.5929 0.0336
Cu1_2 Cu 0.7500 0.54078(2) 0.0000
Cu6_2 Cu 0.2500 0.45922(2) 0.0000
N15_2 N 0.79807(15) 0.58045(9) 0.06862(17)
O13_2 O 0.77516(15) 0.49664(8) 0.06927(15)
O15_2 O 0.66002(15) 0.50630(9) 0.06430(18)
C1_2 C 0.1547(2) 0.61644(13) 0.7491(2)
C2_2 C 0.2232(2) 0.60216(12) 0.7937(2)
C3_2 C 0.2230(2) 0.56719(13) 0.8348(2)
H1_2 H 0.1802 0.5540 0.8370
C4_2 C 0.2869(2) 0.55182(12) 0.8728(2)
C5_2 C 0.3495(2) 0.57210(12) 0.8706(2)
H2_2 H 0.3919 0.5617 0.8959
C6_2 C 0.3512(2) 0.60844(12) 0.8309(2)
C7_2 C 0.2870(2) 0.62181(12) 0.7914(2)
H3_2 H 0.2870 0.6447 0.7626
C8_2 C 0.2852(2) 0.51376(12) 0.9157(2)
C9_2 C 0.4183(2) 0.63152(12) 0.8323(2)
C10_2 C 0.4845(2) 0.61213(12) 0.8476(2)
H4_2 H 0.4872 0.5839 0.8558
C11_2 C 0.5461(2) 0.63491(12) 0.8507(2)
C12_2 C 0.5447(2) 0.67598(12) 0.8357(2)
H5_2 H 0.5866 0.6908 0.8365
C13_2 C 0.4788(2) 0.69498(11) 0.8194(2)
C14_2 C 0.4164(2) 0.67330(12) 0.8171(2)
H6_2 H 0.3728 0.6868 0.8053
C15_2 C 0.6389(2) 0.59648(11) 0.9313(2)
C16_2 C 0.6006(2) 0.59586(14) 0.9907(2)
H7_2 H 0.5679 0.5731 0.9855
H8_2 H 0.5747 0.6212 0.9916
C17_2 C 0.7178(3) 0.58902(15) 0.8671(3)
H10_2 H 0.7595 0.5811 0.8524
C18_2 C 0.6648(2) 0.61038(16) 0.8286(3)
H11_2 H 0.6625 0.6201 0.7833
C19_2 C 0.5055(4) 0.75948(15) 0.7578(3)
H12_2 H 0.5287 0.7481 0.7242
C20_2 C 0.4940(3) 0.79986(15) 0.7687(3)
H13_2 H 0.5078 0.8214 0.7423
C21_2 C 0.4493(2) 0.76701(12) 0.8442(2)
C22_2 C 0.4140(4) 0.75732(15) 0.9051(3)
H14_2 H 0.4455 0.7409 0.9385
H15_2 H 0.3707 0.7423 0.8890
H16_2 H 0.4031 0.7825 0.9268
C23_2 C 0.1992(2) 0.58930(12) 0.5280(3)
C24_3 C 0.2500 0.61036(17) 0.5000
H17_3 H 0.2500 0.6391 0.5000
C25_2 C 0.1993(2) 0.54635(12) 0.5281(2)
H18_2 H 0.1651 0.5321 0.5471
C26_3 C 0.2500 0.52465(16) 0.5000
C27_3 C 0.2500 0.47876(16) 0.5000
C28_2 C 0.18655(19) 0.45694(12) 0.4876(2)
H19_2 H 0.1435 0.4712 0.4791
C29_2 C 0.18641(18) 0.41470(12) 0.4875(2)
C30_3 C 0.2500 0.39277(17) 0.5000
H20_3 H 0.2500 0.3641 0.5000
C31_2 C 0.1065(3) 0.35996(17) 0.5150(3)
H21_2 H 0.1333 0.3510 0.5573
C32_2 C 0.0456(3) 0.34414(17) 0.4819(3)
H22_2 H 0.0227 0.3215 0.4974
C33_2 C 0.0689(2) 0.39308(12) 0.4192(2)
C34_2 C 0.0634(3) 0.4248(3) 0.3622(3)
H23_2 H 0.0371 0.4135 0.3195
H24_2 H 0.1104 0.4323 0.3557
H25_2 H 0.0392 0.4487 0.3751
C35_2 C 0.1459(2) 0.61354(13) 0.5595(2)
Cu1_3 Cu 0.7500 0.54078(2) 1.0000
Cu2_2 Cu 0.07008(2) 0.64328(2) 0.64032(3)
N1_2 N 0.47597(16) 0.73898(9) 0.80665(17)
N2_2 N 0.46038(16) 0.80460(9) 0.82225(18)
N3_2 N 0.61441(17) 0.61487(10) 0.87002(17)
N4_2 N 0.70193(15) 0.58045(9) 0.93138(17)
N5_2 N 0.12175(16) 0.39160(9) 0.47525(18)
N6_2 N 0.02126(15) 0.36536(9) 0.42264(18)
O1_2 O 0.09749(14) 0.60012(9) 0.75343(16)
O2_2 O 0.16145(14) 0.64510(8) 0.70562(16)
O3_2 O 0.22484(15) 0.50336(8) 0.93073(15)
O4_2 O 0.33998(15) 0.49370(9) 0.93570(18)
O5_2 O 0.10984(13) 0.59428(7) 0.59807(16)
O6_2 O 0.14099(16) 0.65131(8) 0.54983(17)
C36_2 C 0.3008(2) 0.58930(12) 0.4720(3)
C37_2 C 0.3007(2) 0.54635(12) 0.4719(2)
H26_2 H 0.3349 0.5321 0.4529
C38_2 C 0.31345(19) 0.45694(12) 0.5124(2)
H27_2 H 0.3565 0.4712 0.5209
C39_2 C 0.31359(18) 0.41470(12) 0.5125(2)
C40_2 C 0.3935(3) 0.35996(17) 0.4850(3)
H28_2 H 0.3667 0.3510 0.4427
C41_2 C 0.4544(3) 0.34414(17) 0.5181(3)
H29_2 H 0.4773 0.3215 0.5026
C42_2 C 0.4311(2) 0.39308(12) 0.5808(2)
C43_2 C 0.4366(3) 0.4248(3) 0.6378(3)
H30_2 H 0.4629 0.4135 0.6805
H31_2 H 0.3896 0.4323 0.6443
H32_2 H 0.4608 0.4487 0.6249
C44_2 C 0.3541(2) 0.61354(13) 0.4405(2)
N7_2 N 0.37825(16) 0.39160(9) 0.52475(18)
N8_2 N 0.47874(15) 0.36536(9) 0.57736(18)
O7_2 O 0.39016(13) 0.59428(7) 0.40193(16)
O8_2 O 0.35901(16) 0.65131(8) 0.45017(17)
C45_2 C 0.3453(2) 0.61644(13) 0.2509(2)
C46_2 C 0.2768(2) 0.60216(12) 0.2063(2)
C47_2 C 0.2770(2) 0.56719(13) 0.1652(2)
H33_2 H 0.3198 0.5540 0.1630
C48_2 C 0.2131(2) 0.55182(12) 0.1272(2)
C49_2 C 0.1505(2) 0.57210(12) 0.1294(2)
H34_2 H 0.1081 0.5617 0.1041
C50_2 C 0.1488(2) 0.60844(12) 0.1691(2)
C51_2 C 0.2130(2) 0.62181(12) 0.2086(2)
H35_2 H 0.2130 0.6447 0.2374
C52_2 C 0.2148(2) 0.51376(12) 0.0843(2)
C53_2 C 0.0817(2) 0.63152(12) 0.1677(2)
C54_2 C 0.0155(2) 0.61213(12) 0.1524(2)
H36_2 H 0.0128 0.5839 0.1442
C57_2 C 0.0212(2) 0.69498(11) 0.1806(2)
C58_2 C 0.0836(2) 0.67330(12) 0.1829(2)
H38_2 H 0.1272 0.6868 0.1947
C64_2 C 0.0060(3) 0.79986(15) 0.2313(3)
C65_2 C 0.0507(2) 0.76701(12) 0.1558(2)
C66_2 C 0.0860(4) 0.75732(15) 0.0949(3)
H46_2 H 0.0545 0.7409 0.0615
H47_2 H 0.1293 0.7423 0.1110
H48_2 H 0.0969 0.7825 0.0732
Cu3_2 Cu 0.42992(2) 0.64328(2) 0.35968(3)
N9_2 N 0.02403(16) 0.73898(9) 0.19335(17)
N10_2 N 0.03962(16) 0.80460(9) 0.17775(18)
O9_2 O 0.40251(14) 0.60012(9) 0.24657(16)
O10_2 O 0.33855(14) 0.64510(8) 0.29438(16)
O11_2 O 0.27516(15) 0.50336(8) 0.06927(15)
O12_2 O 0.16002(15) 0.49370(9) 0.06430(18)
Cu6_3 Cu 0.2500 0.45922(2) 1.0000
N13_2 N 0.03962(16) 0.69540(9) 0.67775(18)
N14_2 N 0.46038(16) 0.69540(9) 0.32225(18)
N17_2 N 0.52126(15) 0.63464(9) 0.42264(18)
O14_2 O 0.72484(15) 0.49664(8) 0.93073(15)
O16_2 O 0.83998(15) 0.50630(9) 0.93570(18)
C55_2 C 0.9539(2) 0.63491(12) 0.1493(2)
C56_2 C 0.9553(2) 0.67598(12) 0.1643(2)
H37_2 H 0.9134 0.6908 0.1635
C59_2 C 0.8611(2) 0.59648(11) 0.0687(2)
C60_2 C 0.8994(2) 0.59586(14) 0.0093(2)
H39_2 H 0.9321 0.5731 0.0145
H40_2 H 0.9253 0.6212 0.0084
C61_2 C 0.7822(3) 0.58902(15) 0.1329(3)
H42_2 H 0.7405 0.5811 0.1476
C62_2 C 0.8352(2) 0.61038(16) 0.1714(3)
H43_2 H 0.8375 0.6201 0.2167
C63_2 C 0.9945(4) 0.75948(15) 0.2422(3)
H44_2 H 0.9713 0.7481 0.2758
H45_2 H 0.9922 0.8214 0.2577
N11_2 N 0.88559(17) 0.61487(10) 0.12998(17)
N16_2 N 0.97874(15) 0.63464(9) 0.57736(18)
H41_2 H 0.8657 0.5929 0.9664
C27_4 C 0.2500 0.02124(16) 0.0000
C28_3 C 0.31345(19) 0.04306(12) 0.0124(2)
H19_3 H 0.3565 0.0288 0.0209
C29_3 C 0.31359(18) 0.08530(12) 0.0125(2)
C30_4 C 0.2500 0.10723(17) 0.0000
H20_4 H 0.2500 0.1359 0.0000
C32_3 C 0.4544(3) 0.15586(17) 0.0181(3)
H22_3 H 0.4773 0.1785 0.0026
C33_3 C 0.4311(2) 0.10692(12) 0.0808(2)
C34_3 C 0.4366(3) 0.0752(3) 0.1378(3)
H23_3 H 0.4629 0.0865 0.1805
H24_3 H 0.3896 0.0677 0.1443
H25_3 H 0.4608 0.0513 0.1249
N5_3 N 0.37825(16) 0.10840(9) 0.02475(18)
C40_3 C 0.1065(3) 0.14004(17) 0.0150(3)
H28_3 H 0.1333 0.1490 0.0573
C27_5 C 0.2500 0.02124(16) 1.0000
C30_5 C 0.2500 0.10723(17) 1.0000
H20_5 H 0.2500 0.1359 1.0000
C31_3 C 0.3935(3) 0.14004(17) 0.9850(3)
H21_3 H 0.3667 0.1490 0.9427
C38_3 C 0.18655(19) 0.04306(12) 0.9876(2)
H27_3 H 0.1435 0.0288 0.9791
C39_3 C 0.18641(18) 0.08530(12) 0.9875(2)
C41_3 C 0.0456(3) 0.15586(17) 0.9819(3)
H29_3 H 0.0227 0.1785 0.9974
C42_3 C 0.0689(2) 0.10692(12) 0.9192(2)
C43_3 C 0.0634(3) 0.0752(3) 0.8622(3)
H30_3 H 0.0371 0.0865 0.8195
H31_3 H 0.1104 0.0677 0.8557
H32_3 H 0.0392 0.0513 0.8751
N7_3 N 0.12175(16) 0.10840(9) 0.97525(18)
C24_4 C 0.2500 0.88964(17) 0.0000
H17_4 H 0.2500 0.8609 0.0000
C26_4 C 0.2500 0.97535(16) 0.0000
C36_3 C 0.1992(2) 0.91070(12) 0.0280(3)
C37_3 C 0.1993(2) 0.95365(12) 0.0281(2)
H26_3 H 0.1651 0.9679 0.0471
C44_3 C 0.1459(2) 0.88646(13) 0.0595(2)
O7_3 O 0.10984(13) 0.90572(7) 0.09807(16)
O8_3 O 0.14099(16) 0.84869(8) 0.04983(17)
C45_3 C 0.1547(2) 0.88356(13) 0.2491(2)
C46_3 C 0.2232(2) 0.89784(12) 0.2937(2)
C47_3 C 0.2230(2) 0.93281(13) 0.3348(2)
H33_3 H 0.1802 0.9460 0.3370
C48_3 C 0.2869(2) 0.94818(12) 0.3728(2)
C49_3 C 0.3495(2) 0.92790(12) 0.3706(2)
H34_3 H 0.3919 0.9383 0.3959
C50_3 C 0.3512(2) 0.89156(12) 0.3309(2)
C51_3 C 0.2870(2) 0.87819(12) 0.2914(2)
H35_3 H 0.2870 0.8553 0.2626
C52_3 C 0.2852(2) 0.98624(12) 0.4157(2)
C53_3 C 0.4183(2) 0.86848(12) 0.3323(2)
C54_3 C 0.4845(2) 0.88787(12) 0.3476(2)
H36_3 H 0.4872 0.9161 0.3558
C55_3 C 0.5461(2) 0.86509(12) 0.3507(2)
C56_3 C 0.5447(2) 0.82402(12) 0.3357(2)
H37_3 H 0.5866 0.8092 0.3365
C57_3 C 0.4788(2) 0.80502(11) 0.3194(2)
C58_3 C 0.4164(2) 0.82670(12) 0.3171(2)
H38_3 H 0.3728 0.8132 0.3053
C59_3 C 0.6389(2) 0.90352(11) 0.4313(2)
C60_3 C 0.6006(2) 0.90414(14) 0.4907(2)
H39_3 H 0.5679 0.9269 0.4855
H40_3 H 0.5747 0.8788 0.4916
H41_3 H 0.6343 0.9071 0.5336
C61_3 C 0.7178(3) 0.91098(15) 0.3671(3)
H42_3 H 0.7595 0.9189 0.3524
C62_3 C 0.6648(2) 0.88962(16) 0.3286(3)
H43_3 H 0.6625 0.8799 0.2833
C63_3 C 0.5055(4) 0.74052(15) 0.2578(3)
H44_3 H 0.5287 0.7519 0.2242
C64_3 C 0.4940(3) 0.70014(15) 0.2687(3)
H45_3 H 0.5078 0.6786 0.2423
C65_3 C 0.4493(2) 0.73299(12) 0.3442(2)
C66_3 C 0.4140(4) 0.74268(15) 0.4051(3)
H46_3 H 0.4455 0.7591 0.4385
H47_3 H 0.3707 0.7577 0.3890
H48_3 H 0.4031 0.7175 0.4268
N9_3 N 0.47597(16) 0.76102(9) 0.30665(17)
N11_3 N 0.61441(17) 0.88513(10) 0.37002(17)
N12 N 0.70193(15) 0.91955(9) 0.43138(17)
O9_3 O 0.09749(14) 0.89988(9) 0.25343(16)
O10_3 O 0.16145(14) 0.85490(8) 0.20562(16)
C1_3 C 0.3453(2) 0.88356(13) 0.7509(2)
C2_3 C 0.2768(2) 0.89784(12) 0.7063(2)
C3_3 C 0.2770(2) 0.93281(13) 0.6652(2)
H1_3 H 0.3198 0.9460 0.6630
C4_3 C 0.2131(2) 0.94818(12) 0.6272(2)
C5_3 C 0.1505(2) 0.92790(12) 0.6294(2)
H2_3 H 0.1081 0.9383 0.6041
C6_3 C 0.1488(2) 0.89156(12) 0.6691(2)
C7_3 C 0.2130(2) 0.87819(12) 0.7086(2)
H3_3 H 0.2130 0.8553 0.7374
C8_3 C 0.2148(2) 0.98624(12) 0.5843(2)
C9_3 C 0.0817(2) 0.86848(12) 0.6677(2)
C10_3 C 0.0155(2) 0.88787(12) 0.6524(2)
H4_3 H 0.0128 0.9161 0.6442
C13_3 C 0.0212(2) 0.80502(11) 0.6806(2)
C14_3 C 0.0836(2) 0.82670(12) 0.6829(2)
H6_3 H 0.1272 0.8132 0.6947
C20_3 C 0.0060(3) 0.70014(15) 0.7313(3)
C21_3 C 0.0507(2) 0.73299(12) 0.6558(2)
C22_3 C 0.0860(4) 0.74268(15) 0.5949(3)
H14_3 H 0.0545 0.7591 0.5615
H15_3 H 0.1293 0.7577 0.6110
H16_3 H 0.0969 0.7175 0.5732
C23_3 C 0.3008(2) 0.91070(12) 0.9720(3)
C24_5 C 0.2500 0.88964(17) 1.0000
H17_5 H 0.2500 0.8609 1.0000
C25_3 C 0.3007(2) 0.95365(12) 0.9719(2)
H18_3 H 0.3349 0.9679 0.9529
C26_5 C 0.2500 0.97535(16) 1.0000
C35_3 C 0.3541(2) 0.88646(13) 0.9405(2)
N1_3 N 0.02403(16) 0.76102(9) 0.69335(17)
O1_3 O 0.40251(14) 0.89988(9) 0.74657(16)
O2_3 O 0.33855(14) 0.85490(8) 0.79438(16)
O5_3 O 0.39016(13) 0.90572(7) 0.90193(16)
O6_3 O 0.35901(16) 0.84869(8) 0.95017(17)
C11_3 C 0.9539(2) 0.86509(12) 0.6493(2)
C12_3 C 0.9553(2) 0.82402(12) 0.6643(2)
H5_3 H 0.9134 0.8092 0.6635
C15_3 C 0.8611(2) 0.90352(11) 0.5687(2)
C16_3 C 0.8994(2) 0.90414(14) 0.5093(2)
H7_3 H 0.9321 0.9269 0.5145
H8_3 H 0.9253 0.8788 0.5084
H9_3 H 0.8657 0.9071 0.4664
C17_3 C 0.7822(3) 0.91098(15) 0.6329(3)
H10_3 H 0.7405 0.9189 0.6476
C18_3 C 0.8352(2) 0.88962(16) 0.6714(3)
H11_3 H 0.8375 0.8799 0.7167
C19_3 C 0.9945(4) 0.74052(15) 0.7422(3)
H12_3 H 0.9713 0.7519 0.7758
H13_3 H 0.9922 0.6786 0.7577
N3_3 N 0.88559(17) 0.88513(10) 0.62998(17)
N4_3 N 0.79807(15) 0.91955(9) 0.56862(17)
H41_4 H 0.1343 0.4071 0.0336
C55_4 C 0.0461(2) 0.36509(12) 0.8507(2)
C56_4 C 0.0447(2) 0.32402(12) 0.8357(2)
H37_4 H 0.0866 0.3092 0.8365
C59_4 C 0.1389(2) 0.40352(11) 0.9313(2)
C60_4 C 0.1006(2) 0.40414(14) 0.9907(2)
H39_4 H 0.0679 0.4269 0.9855
H40_4 H 0.0747 0.3788 0.9916
C61_4 C 0.2178(3) 0.41098(15) 0.8671(3)
H42_4 H 0.2595 0.4189 0.8524
C62_4 C 0.1648(2) 0.38962(16) 0.8286(3)
H43_4 H 0.1625 0.3799 0.7833
C63_4 C 0.0055(4) 0.24052(15) 0.7578(3)
H44_4 H 0.0287 0.2519 0.7242
H45_4 H 0.0078 0.1786 0.7423
N11_4 N 0.11441(17) 0.38513(10) 0.87002(17)
N12_2 N 0.20193(15) 0.41955(9) 0.93138(17)
C1_4 C 0.8453(2) 0.38356(13) 0.2509(2)
C2_4 C 0.7768(2) 0.39784(12) 0.2063(2)
C3_4 C 0.7770(2) 0.43281(13) 0.1652(2)
H1_4 H 0.8198 0.4460 0.1630
C4_4 C 0.7131(2) 0.44818(12) 0.1272(2)
C5_4 C 0.6505(2) 0.42790(12) 0.1294(2)
H2_4 H 0.6081 0.4383 0.1041
C6_4 C 0.6488(2) 0.39156(12) 0.1691(2)
C7_4 C 0.7130(2) 0.37819(12) 0.2086(2)
H3_4 H 0.7130 0.3553 0.2374
C8_4 C 0.7148(2) 0.48624(12) 0.0843(2)
C9_4 C 0.5817(2) 0.36848(12) 0.1677(2)
C10_4 C 0.5155(2) 0.38787(12) 0.1524(2)
H4_4 H 0.5128 0.4161 0.1442
C11_4 C 0.4539(2) 0.36509(12) 0.1493(2)
C12_4 C 0.4553(2) 0.32402(12) 0.1643(2)
H5_4 H 0.4134 0.3092 0.1635
C13_4 C 0.5212(2) 0.30502(11) 0.1806(2)
C14_4 C 0.5836(2) 0.32670(12) 0.1829(2)
H6_4 H 0.6272 0.3132 0.1947
C15_4 C 0.3611(2) 0.40352(11) 0.0687(2)
C16_4 C 0.3994(2) 0.40414(14) 0.0093(2)
H7_4 H 0.4321 0.4269 0.0145
H8_4 H 0.4253 0.3788 0.0084
C17_4 C 0.2822(3) 0.41098(15) 0.1329(3)
H10_4 H 0.2405 0.4189 0.1476
C18_4 C 0.3352(2) 0.38962(16) 0.1714(3)
H11_4 H 0.3375 0.3799 0.2167
C19_4 C 0.4945(4) 0.24052(15) 0.2422(3)
H12_4 H 0.4713 0.2519 0.2758
C20_4 C 0.5060(3) 0.20014(15) 0.2313(3)
H13_4 H 0.4922 0.1786 0.2577
C21_4 C 0.5507(2) 0.23299(12) 0.1558(2)
C22_4 C 0.5860(4) 0.24268(15) 0.0949(3)
H14_4 H 0.5545 0.2591 0.0615
H15_4 H 0.6293 0.2577 0.1110
H16_4 H 0.5969 0.2175 0.0732
C23_4 C 0.8008(2) 0.41070(12) 0.4720(3)
C24_6 C 0.7500 0.38964(17) 0.5000
H17_6 H 0.7500 0.3609 0.5000
C25_4 C 0.8007(2) 0.45365(12) 0.4719(2)
H18_4 H 0.8349 0.4679 0.4529
C26_6 C 0.7500 0.47535(16) 0.5000
C27_6 C 0.7500 0.52124(16) 0.5000
C28_4 C 0.81345(19) 0.54306(12) 0.5124(2)
H19_4 H 0.8565 0.5288 0.5209
C29_4 C 0.81359(18) 0.58530(12) 0.5125(2)
C30_6 C 0.7500 0.60723(17) 0.5000
H20_6 H 0.7500 0.6359 0.5000
C31_4 C 0.8935(3) 0.64004(17) 0.4850(3)
H21_4 H 0.8667 0.6490 0.4427
C32_4 C 0.9544(3) 0.65586(17) 0.5181(3)
H22_4 H 0.9773 0.6785 0.5026
C33_4 C 0.9311(2) 0.60692(12) 0.5808(2)
C34_4 C 0.9366(3) 0.5752(3) 0.6378(3)
H23_4 H 0.9629 0.5865 0.6805
H24_4 H 0.8896 0.5677 0.6443
H25_4 H 0.9608 0.5513 0.6249
C35_4 C 0.8541(2) 0.38646(13) 0.4405(2)
N1_4 N 0.52403(16) 0.26102(9) 0.19335(17)
N3_4 N 0.38559(17) 0.38513(10) 0.12998(17)
N4_4 N 0.29807(15) 0.41955(9) 0.06862(17)
N5_4 N 0.87825(16) 0.60840(9) 0.52475(18)
O1_4 O 0.90251(14) 0.39988(9) 0.24657(16)
O2_4 O 0.83855(14) 0.35490(8) 0.29438(16)
O5_4 O 0.89016(13) 0.40572(7) 0.40193(16)
O6_4 O 0.85901(16) 0.34869(8) 0.45017(17)
C36_4 C 0.6992(2) 0.41070(12) 0.5280(3)
C37_4 C 0.6993(2) 0.45365(12) 0.5281(2)
H26_4 H 0.6651 0.4679 0.5471
C38_4 C 0.68655(19) 0.54306(12) 0.4876(2)
H27_4 H 0.6435 0.5288 0.4791
C39_4 C 0.68641(18) 0.58530(12) 0.4875(2)
C40_4 C 0.6065(3) 0.64004(17) 0.5150(3)
H28_4 H 0.6333 0.6490 0.5573
C41_4 C 0.5456(3) 0.65586(17) 0.4819(3)
H29_4 H 0.5227 0.6785 0.4974
C42_4 C 0.5689(2) 0.60692(12) 0.4192(2)
C43_4 C 0.5634(3) 0.5752(3) 0.3622(3)
H30_4 H 0.5371 0.5865 0.3195
H31_4 H 0.6104 0.5677 0.3557
H32_4 H 0.5392 0.5513 0.3751
C44_4 C 0.6459(2) 0.38646(13) 0.5595(2)
N7_4 N 0.62175(16) 0.60840(9) 0.47525(18)
O7_4 O 0.60984(13) 0.40572(7) 0.59807(16)
O8_4 O 0.64099(16) 0.34869(8) 0.54983(17)
C45_4 C 0.6547(2) 0.38356(13) 0.7491(2)
C46_4 C 0.7232(2) 0.39784(12) 0.7937(2)
C47_4 C 0.7230(2) 0.43281(13) 0.8348(2)
H33_4 H 0.6802 0.4460 0.8370
C48_4 C 0.7869(2) 0.44818(12) 0.8728(2)
C49_4 C 0.8495(2) 0.42790(12) 0.8706(2)
H34_4 H 0.8919 0.4383 0.8959
C50_4 C 0.8512(2) 0.39156(12) 0.8309(2)
C51_4 C 0.7870(2) 0.37819(12) 0.7914(2)
H35_4 H 0.7870 0.3553 0.7626
C52_4 C 0.7852(2) 0.48624(12) 0.9157(2)
C53_4 C 0.9183(2) 0.36848(12) 0.8323(2)
C54_4 C 0.9845(2) 0.38787(12) 0.8476(2)
H36_4 H 0.9872 0.4161 0.8558
C57_4 C 0.9788(2) 0.30502(11) 0.8194(2)
C58_4 C 0.9164(2) 0.32670(12) 0.8171(2)
H38_4 H 0.8728 0.3132 0.8053
C64_4 C 0.9940(3) 0.20014(15) 0.7687(3)
C65_4 C 0.9493(2) 0.23299(12) 0.8442(2)
C66_4 C 0.9140(4) 0.24268(15) 0.9051(3)
H46_4 H 0.9455 0.2591 0.9385
H47_4 H 0.8707 0.2577 0.8890
H48_4 H 0.9031 0.2175 0.9268
N9_4 N 0.97597(16) 0.26102(9) 0.80665(17)
O9_4 O 0.59749(14) 0.39988(9) 0.75343(16)
O10_4 O 0.66145(14) 0.35490(8) 0.70562(16)
H9_4 H 0.3657 0.4071 0.9664
loop_
_geom_bond_atom_site_label_1
_geom_bond_atom_site_label_2
_geom_bond_site_symmetry_1
_geom_bond_site_symmetry_2
C12 C11 1_555 1_555
H5 C12 1_555 1_555
C15 C16 1_555 1_555
C16 H7 1_555 1_555
H8 C16 1_555 1_555
H9 C16 1_555 1_555
C17 H10 1_555 1_555
C18 C17 1_555 1_555
H11 C18 1_555 1_555
C19 H12 1_555 1_555
Cu1 N4 1_555 1_555
N3 C11 1_555 1_555
N4 C15 1_555 1_555
N15 Cu1 1_555 1_555
O15 Cu1 1_555 1_555
O16 Cu1 1_555 1_555
C15 N3 1_555 1_555
C17 N4 1_555 1_555
C18 N3 1_555 1_555
C1 C2 1_555 1_555
C2 C3 1_555 1_555
C3 H1 1_555 1_555
C4 C3 1_555 1_555
C5 C4 1_555 1_555
H2 C5 1_555 1_555
C6 C5 1_555 1_555
C7 C2 1_555 1_555
H3 C7 1_555 1_555
C8 C4 1_555 1_555
C9 C6 1_555 1_555
C10 C9 1_555 1_555
H4 C10 1_555 1_555
C14 C9 1_555 1_555
H6 C14 1_555 1_555
C21 C22 1_555 1_555
C22 H14 1_555 1_555
H15 C22 1_555 1_555
H16 C22 1_555 1_555
C23 C24 1_555 1_555
C24 H17 1_555 1_555
C25 C23 1_555 1_555
H18 C25 1_555 1_555
C26 C25 1_555 1_555
C35 C23 1_555 1_555
Cu2 O1 1_555 1_555
N1 C13 1_555 1_555
N2 C20 1_555 1_555
O1 C1 1_555 1_555
O2 C1 1_555 1_555
O3 C8 1_555 1_555
O5 C35 1_555 1_555
O6 C35 1_555 1_555
Cu9 N2 1_555 1_555
N13 Cu2 1_555 1_555
N16 Cu2 1_555 1_555
C6 C7 1_555 1_555
C13 C14 1_555 1_555
C21 N1 1_555 1_555
C21 N2 1_555 1_555
Cu2 O2 1_555 1_555
Cu2 O5 1_555 1_555
Cu2 O6 1_555 1_555
C24_2 H17_2 1_555 1_555
C36 C24_2 1_555 1_555
C37 C26_2 1_555 1_555
H26 C37 1_555 1_555
C44 C36 1_555 1_555
O7 C44 1_555 1_555
O8 C44 1_555 1_555
C45 C46 1_555 1_555
C46 C47 1_555 1_555
C47 H33 1_555 1_555
C48 C47 1_555 1_555
C49 C48 1_555 1_555
H34 C49 1_555 1_555
C50 C49 1_555 1_555
C51 C46 1_555 1_555
H35 C51 1_555 1_555
C52 C48 1_555 1_555
C53 C50 1_555 1_555
C54 C53 1_555 1_555
H36 C54 1_555 1_555
C55 C54 1_555 1_555
C56 C55 1_555 1_555
H37 C56 1_555 1_555
C57 C56 1_555 1_555
C58 C53 1_555 1_555
H38 C58 1_555 1_555
C59 C60 1_555 1_555
C60 H39 1_555 1_555
H40 C60 1_555 1_555
H41 C60 1_555 1_555
C61 H42 1_555 1_555
C62 C61 1_555 1_555
H43 C62 1_555 1_555
C63 H44 1_555 1_555
C64 C63 1_555 1_555
H45 C64 1_555 1_555
C65 C66 1_555 1_555
C66 H46 1_555 1_555
H47 C66 1_555 1_555
H48 C66 1_555 1_555
Cu3 O7 1_555 1_555
N9 C57 1_555 1_555
N10 C64 1_555 1_555
N11 C55 1_555 1_555
N15 C59 1_555 1_555
O9 C45 1_555 1_555
O10 C45 1_555 1_555
O11 C52 1_555 1_555
Cu10 N10 1_555 1_555
N14 Cu3 1_555 1_555
C36 C37 1_555 1_555
O8 Cu3 1_555 1_555
C50 C51 1_555 1_555
C57 C58 1_555 1_555
C59 N11 1_555 1_555
C61 N15 1_555 1_555
C62 N11 1_555 1_555
C63 N9 1_555 1_555
C65 N9 1_555 1_555
C65 N10 1_555 1_555
Cu3 O9 1_555 1_555
Cu3 O10 1_555 1_555
H20 C30 1_555 1_555
C31 H21 1_555 1_555
C38 C27 1_555 1_555
H27 C38 1_555 1_555
C39 C30 1_555 1_555
H29 C41 1_555 1_555
C42 C43 1_555 1_555
C43 H30 1_555 1_555
H31 C43 1_555 1_555
H32 C43 1_555 1_555
N7 C39 1_555 1_555
N8 C41 1_555 1_555
O4 Cu6 1_555 1_555
C38 C39 1_555 1_555
C42 N7 1_555 1_555
C42 N8 1_555 1_555
C28 C27_2 1_555 1_555
H19 C28 1_555 1_555
C29 C28 1_555 1_555
C30_2 C29 1_555 1_555
H20_2 C30_2 1_555 1_555
H22 C32 1_555 1_555
C33 C34 1_555 1_555
C34 H23 1_555 1_555
H24 C34 1_555 1_555
H25 C34 1_555 1_555
N5 C29 1_555 1_555
N6 C32 1_555 1_555
C40 H28 1_555 1_555
Cu7 N6 1_555 1_555
C33 N5 1_555 1_555
C33 N6 1_555 1_555
O12 Cu6 1_555 1_555
N15_2 Cu1_2 1_555 1_555
O13_2 Cu1_2 1_555 1_555
O15_2 Cu1_2 1_555 1_555
C1_2 C2_2 1_555 1_555
C2_2 C3_2 1_555 1_555
C3_2 H1_2 1_555 1_555
C4_2 C3_2 1_555 1_555
C5_2 C4_2 1_555 1_555
H2_2 C5_2 1_555 1_555
C6_2 C5_2 1_555 1_555
C7_2 C2_2 1_555 1_555
H3_2 C7_2 1_555 1_555
C8_2 C4_2 1_555 1_555
C9_2 C6_2 1_555 1_555
C10_2 C9_2 1_555 1_555
H4_2 C10_2 1_555 1_555
C11_2 C10_2 1_555 1_555
C12_2 C11_2 1_555 1_555
H5_2 C12_2 1_555 1_555
C13_2 C12_2 1_555 1_555
C14_2 C9_2 1_555 1_555
H6_2 C14_2 1_555 1_555
C15_2 C16_2 1_555 1_555
C16_2 H7_2 1_555 1_555
H8_2 C16_2 1_555 1_555
C17_2 H10_2 1_555 1_555
C18_2 C17_2 1_555 1_555
H11_2 C18_2 1_555 1_555
C19_2 H12_2 1_555 1_555
C20_2 C19_2 1_555 1_555
H13_2 C20_2 1_555 1_555
C21_2 C22_2 1_555 1_555
C22_2 H14_2 1_555 1_555
H15_2 C22_2 1_555 1_555
H16_2 C22_2 1_555 1_555
C23_2 C24_3 1_555 1_555
C24_3 H17_3 1_555 1_555
C25_2 C23_2 1_555 1_555
H18_2 C25_2 1_555 1_555
C26_3 C25_2 1_555 1_555
C27_3 C26_3 1_555 1_555
C28_2 C27_3 1_555 1_555
H19_2 C28_2 1_555 1_555
C29_2 C28_2 1_555 1_555
C30_3 C29_2 1_555 1_555
H20_3 C30_3 1_555 1_555
C31_2 H21_2 1_555 1_555
C32_2 C31_2 1_555 1_555
H22_2 C32_2 1_555 1_555
C33_2 C34_2 1_555 1_555
C34_2 H23_2 1_555 1_555
H24_2 C34_2 1_555 1_555
H25_2 C34_2 1_555 1_555
C35_2 C23_2 1_555 1_555
Cu1_3 N4_2 1_555 1_555
Cu2_2 O1_2 1_555 1_555
N1_2 C13_2 1_555 1_555
N2_2 C20_2 1_555 1_555
N3_2 C11_2 1_555 1_555
N4_2 C15_2 1_555 1_555
N5_2 C29_2 1_555 1_555
N6_2 C32_2 1_555 1_555
O1_2 C1_2 1_555 1_555
O2_2 C1_2 1_555 1_555
O3_2 C8_2 1_555 1_555
O4_2 C8_2 1_555 1_555
O5_2 C35_2 1_555 1_555
O6_2 C35_2 1_555 1_555
C36_2 C24_3 1_555 1_555
C37_2 C26_3 1_555 1_555
H26_2 C37_2 1_555 1_555
C38_2 C27_3 1_555 1_555
H27_2 C38_2 1_555 1_555
C39_2 C30_3 1_555 1_555
C40_2 H28_2 1_555 1_555
C41_2 C40_2 1_555 1_555
H29_2 C41_2 1_555 1_555
C42_2 C43_2 1_555 1_555
C43_2 H30_2 1_555 1_555
H31_2 C43_2 1_555 1_555
H32_2 C43_2 1_555 1_555
C44_2 C36_2 1_555 1_555
N7_2 C39_2 1_555 1_555
N8_2 C41_2 1_555 1_555
O7_2 C44_2 1_555 1_555
O8_2 C44_2 1_555 1_555
C45_2 C46_2 1_555 1_555
C46_2 C47_2 1_555 1_555
C47_2 H33_2 1_555 1_555
C48_2 C47_2 1_555 1_555
C49_2 C48_2 1_555 1_555
H34_2 C49_2 1_555 1_555
C50_2 C49_2 1_555 1_555
C51_2 C46_2 1_555 1_555
H35_2 C51_2 1_555 1_555
C52_2 C48_2 1_555 1_555
C53_2 C50_2 1_555 1_555
C54_2 C53_2 1_555 1_555
H36_2 C54_2 1_555 1_555
C58_2 C53_2 1_555 1_555
H38_2 C58_2 1_555 1_555
C65_2 C66_2 1_555 1_555
C66_2 H46_2 1_555 1_555
H47_2 C66_2 1_555 1_555
H48_2 C66_2 1_555 1_555
Cu3_2 O7_2 1_555 1_555
N9_2 C57_2 1_555 1_555
N10_2 C64_2 1_555 1_555
O9_2 C45_2 1_555 1_555
O10_2 C45_2 1_555 1_555
O11_2 C52_2 1_555 1_555
O12_2 C52_2 1_555 1_555
Cu6_2 O11_2 1_555 1_555
Cu6_3 O3_2 1_555 1_555
Cu10 N8_2 1_555 1_555
Cu7 N2_2 1_555 1_555
Cu8 N10_2 1_555 1_555
N13_2 Cu2_2 1_555 1_555
N14_2 Cu3_2 1_555 1_555
N17_2 Cu3_2 1_555 1_555
O14_2 Cu1_3 1_555 1_555
O16_2 Cu1_3 1_555 1_555
C6_2 C7_2 1_555 1_555
C13_2 C14_2 1_555 1_555
C15_2 N3_2 1_555 1_555
C17_2 N4_2 1_555 1_555
C18_2 N3_2 1_555 1_555
C19_2 N1_2 1_555 1_555
C21_2 N1_2 1_555 1_555
C21_2 N2_2 1_555 1_555
C31_2 N5_2 1_555 1_555
C33_2 N5_2 1_555 1_555
C33_2 N6_2 1_555 1_555
Cu2_2 O2_2 1_555 1_555
Cu2_2 O5_2 1_555 1_555
Cu2_2 O6_2 1_555 1_555
O4_2 Cu6_3 1_555 1_555
C36_2 C37_2 1_555 1_555
C38_2 C39_2 1_555 1_555
C40_2 N7_2 1_555 1_555
C42_2 N7_2 1_555 1_555
C42_2 N8_2 1_555 1_555
O8_2 Cu3_2 1_555 1_555
C50_2 C51_2 1_555 1_555
C57_2 C58_2 1_555 1_555
C65_2 N9_2 1_555 1_555
C65_2 N10_2 1_555 1_555
Cu3_2 O9_2 1_555 1_555
Cu3_2 O10_2 1_555 1_555
O12_2 Cu6_2 1_555 1_555
C56_2 C55_2 1_555 1_555
H37_2 C56_2 1_555 1_555
C59_2 C60_2 1_555 1_555
C60_2 H39_2 1_555 1_555
H40_2 C60_2 1_555 1_555
C61_2 H42_2 1_555 1_555
C62_2 C61_2 1_555 1_555
H43_2 C62_2 1_555 1_555
C63_2 H44_2 1_555 1_555
N11_2 C55_2 1_555 1_555
N15_2 C59_2 1_555 1_555
C59_2 N11_2 1_555 1_555
C61_2 N15_2 1_555 1_555
C62_2 N11_2 1_555 1_555
C28_3 C27_4 1_555 1_555
H19_3 C28_3 1_555 1_555
C29_3 C28_3 1_555 1_555
C30_4 C29_3 1_555 1_555
H20_4 C30_4 1_555 1_555
H22_3 C32_3 1_555 1_555
C33_3 C34_3 1_555 1_555
C34_3 H23_3 1_555 1_555
H24_3 C34_3 1_555 1_555
H25_3 C34_3 1_555 1_555
N5_3 C29_3 1_555 1_555
N16 C32_3 1_555 1_555
C40_3 H28_3 1_555 1_555
C33_3 N5_3 1_555 1_555
C33_3 N16 1_555 1_555
H20_5 C30_5 1_555 1_555
C31_3 H21_3 1_555 1_555
C38_3 C27_5 1_555 1_555
H27_3 C38_3 1_555 1_555
C39_3 C30_5 1_555 1_555
H29_3 C41_3 1_555 1_555
C42_3 C43_3 1_555 1_555
C43_3 H30_3 1_555 1_555
H31_3 C43_3 1_555 1_555
H32_3 C43_3 1_555 1_555
N7_3 C39_3 1_555 1_555
N17 C41_3 1_555 1_555
C38_3 C39_3 1_555 1_555
C42_3 N7_3 1_555 1_555
C42_3 N17 1_555 1_555
C24_4 H17_4 1_555 1_555
C36_3 C24_4 1_555 1_555
C37_3 C26_4 1_555 1_555
H26_3 C37_3 1_555 1_555
C44_3 C36_3 1_555 1_555
O7_3 C44_3 1_555 1_555
O8_3 C44_3 1_555 1_555
C45_3 C46_3 1_555 1_555
C46_3 C47_3 1_555 1_555
C47_3 H33_3 1_555 1_555
C48_3 C47_3 1_555 1_555
C49_3 C48_3 1_555 1_555
H34_3 C49_3 1_555 1_555
C50_3 C49_3 1_555 1_555
C51_3 C46_3 1_555 1_555
H35_3 C51_3 1_555 1_555
C52_3 C48_3 1_555 1_555
C53_3 C50_3 1_555 1_555
C54_3 C53_3 1_555 1_555
H36_3 C54_3 1_555 1_555
C55_3 C54_3 1_555 1_555
C56_3 C55_3 1_555 1_555
H37_3 C56_3 1_555 1_555
C57_3 C56_3 1_555 1_555
C58_3 C53_3 1_555 1_555
H38_3 C58_3 1_555 1_555
C59_3 C60_3 1_555 1_555
C60_3 H39_3 1_555 1_555
H40_3 C60_3 1_555 1_555
H41_3 C60_3 1_555 1_555
C61_3 H42_3 1_555 1_555
C62_3 C61_3 1_555 1_555
H43_3 C62_3 1_555 1_555
C63_3 H44_3 1_555 1_555
C64_3 C63_3 1_555 1_555
H45_3 C64_3 1_555 1_555
C65_3 C66_3 1_555 1_555
C66_3 H46_3 1_555 1_555
H47_3 C66_3 1_555 1_555
H48_3 C66_3 1_555 1_555
Cu8 O7_3 1_555 1_555
N9_3 C57_3 1_555 1_555
N14_2 C64_3 1_555 1_555
N11_3 C55_3 1_555 1_555
N12 C59_3 1_555 1_555
O9_3 C45_3 1_555 1_555
O10_3 C45_3 1_555 1_555
O14 C52_3 1_555 1_555
Cu6 N12 1_555 1_555
C36_3 C37_3 1_555 1_555
O8_3 Cu8 1_555 1_555
C50_3 C51_3 1_555 1_555
C57_3 C58_3 1_555 1_555
C59_3 N11_3 1_555 1_555
C61_3 N12 1_555 1_555
C62_3 N11_3 1_555 1_555
C63_3 N9_3 1_555 1_555
C65_3 N9_3 1_555 1_555
C65_3 N14_2 1_555 1_555
Cu8 O9_3 1_555 1_555
Cu8 O10_3 1_555 1_555
C1_3 C2_3 1_555 1_555
C2_3 C3_3 1_555 1_555
C3_3 H1_3 1_555 1_555
C4_3 C3_3 1_555 1_555
C5_3 C4_3 1_555 1_555
H2_3 C5_3 1_555 1_555
C6_3 C5_3 1_555 1_555
C7_3 C2_3 1_555 1_555
H3_3 C7_3 1_555 1_555
C8_3 C4_3 1_555 1_555
C9_3 C6_3 1_555 1_555
C10_3 C9_3 1_555 1_555
H4_3 C10_3 1_555 1_555
C14_3 C9_3 1_555 1_555
H6_3 C14_3 1_555 1_555
C21_3 C22_3 1_555 1_555
C22_3 H14_3 1_555 1_555
H15_3 C22_3 1_555 1_555
H16_3 C22_3 1_555 1_555
C23_3 C24_5 1_555 1_555
C24_5 H17_5 1_555 1_555
C25_3 C23_3 1_555 1_555
H18_3 C25_3 1_555 1_555
C26_5 C25_3 1_555 1_555
C35_3 C23_3 1_555 1_555
Cu7 O1_3 1_555 1_555
N1_3 C13_3 1_555 1_555
N13_2 C20_3 1_555 1_555
O1_3 C1_3 1_555 1_555
O2_3 C1_3 1_555 1_555
O13 C8_3 1_555 1_555
O5_3 C35_3 1_555 1_555
O6_3 C35_3 1_555 1_555
C6_3 C7_3 1_555 1_555
C13_3 C14_3 1_555 1_555
C21_3 N1_3 1_555 1_555
C21_3 N13_2 1_555 1_555
Cu7 O2_3 1_555 1_555
Cu7 O5_3 1_555 1_555
Cu7 O6_3 1_555 1_555
C12_3 C11_3 1_555 1_555
H5_3 C12_3 1_555 1_555
C15_3 C16_3 1_555 1_555
C16_3 H7_3 1_555 1_555
H8_3 C16_3 1_555 1_555
H9_3 C16_3 1_555 1_555
C17_3 H10_3 1_555 1_555
C18_3 C17_3 1_555 1_555
H11_3 C18_3 1_555 1_555
C19_3 H12_3 1_555 1_555
Cu6 N4_3 1_555 1_555
N3_3 C11_3 1_555 1_555
N4_3 C15_3 1_555 1_555
C15_3 N3_3 1_555 1_555
C17_3 N4_3 1_555 1_555
C18_3 N3_3 1_555 1_555
C56_4 C55_4 1_555 1_555
H37_4 C56_4 1_555 1_555
C59_4 C60_4 1_555 1_555
C60_4 H39_4 1_555 1_555
H40_4 C60_4 1_555 1_555
C61_4 H42_4 1_555 1_555
C62_4 C61_4 1_555 1_555
H43_4 C62_4 1_555 1_555
C63_4 H44_4 1_555 1_555
N11_4 C55_4 1_555 1_555
N12_2 C59_4 1_555 1_555
Cu6_3 N12_2 1_555 1_555
C59_4 N11_4 1_555 1_555
C61_4 N12_2 1_555 1_555
C62_4 N11_4 1_555 1_555
C1_4 C2_4 1_555 1_555
C2_4 C3_4 1_555 1_555
C3_4 H1_4 1_555 1_555
C4_4 C3_4 1_555 1_555
C5_4 C4_4 1_555 1_555
H2_4 C5_4 1_555 1_555
C6_4 C5_4 1_555 1_555
C7_4 C2_4 1_555 1_555
H3_4 C7_4 1_555 1_555
C8_4 C4_4 1_555 1_555
C9_4 C6_4 1_555 1_555
C10_4 C9_4 1_555 1_555
H4_4 C10_4 1_555 1_555
C11_4 C10_4 1_555 1_555
C12_4 C11_4 1_555 1_555
H5_4 C12_4 1_555 1_555
C13_4 C12_4 1_555 1_555
C14_4 C9_4 1_555 1_555
H6_4 C14_4 1_555 1_555
C15_4 C16_4 1_555 1_555
C16_4 H7_4 1_555 1_555
H8_4 C16_4 1_555 1_555
C17_4 H10_4 1_555 1_555
C18_4 C17_4 1_555 1_555
H11_4 C18_4 1_555 1_555
C19_4 H12_4 1_555 1_555
C20_4 C19_4 1_555 1_555
H13_4 C20_4 1_555 1_555
C21_4 C22_4 1_555 1_555
C22_4 H14_4 1_555 1_555
H15_4 C22_4 1_555 1_555
H16_4 C22_4 1_555 1_555
C23_4 C24_6 1_555 1_555
C24_6 H17_6 1_555 1_555
C25_4 C23_4 1_555 1_555
H18_4 C25_4 1_555 1_555
C26_6 C25_4 1_555 1_555
C27_6 C26_6 1_555 1_555
C28_4 C27_6 1_555 1_555
H19_4 C28_4 1_555 1_555
C29_4 C28_4 1_555 1_555
C30_6 C29_4 1_555 1_555
H20_6 C30_6 1_555 1_555
C31_4 H21_4 1_555 1_555
C32_4 C31_4 1_555 1_555
H22_4 C32_4 1_555 1_555
C33_4 C34_4 1_555 1_555
C34_4 H23_4 1_555 1_555
H24_4 C34_4 1_555 1_555
H25_4 C34_4 1_555 1_555
C35_4 C23_4 1_555 1_555
Cu6_2 N4_4 1_555 1_555
Cu9 O1_4 1_555 1_555
N1_4 C13_4 1_555 1_555
N13 C20_4 1_555 1_555
N3_4 C11_4 1_555 1_555
N4_4 C15_4 1_555 1_555
N5_4 C29_4 1_555 1_555
N16_2 C32_4 1_555 1_555
O1_4 C1_4 1_555 1_555
O2_4 C1_4 1_555 1_555
O13_2 C8_4 1_555 1_555
O15_2 C8_4 1_555 1_555
O5_4 C35_4 1_555 1_555
O6_4 C35_4 1_555 1_555
C36_4 C24_6 1_555 1_555
C37_4 C26_6 1_555 1_555
H26_4 C37_4 1_555 1_555
C38_4 C27_6 1_555 1_555
H27_4 C38_4 1_555 1_555
C39_4 C30_6 1_555 1_555
C40_4 H28_4 1_555 1_555
C41_4 C40_4 1_555 1_555
H29_4 C41_4 1_555 1_555
C42_4 C43_4 1_555 1_555
C43_4 H30_4 1_555 1_555
H31_4 C43_4 1_555 1_555
H32_4 C43_4 1_555 1_555
C44_4 C36_4 1_555 1_555
N7_4 C39_4 1_555 1_555
N17_2 C41_4 1_555 1_555
O7_4 C44_4 1_555 1_555
O8_4 C44_4 1_555 1_555
C45_4 C46_4 1_555 1_555
C46_4 C47_4 1_555 1_555
C47_4 H33_4 1_555 1_555
C48_4 C47_4 1_555 1_555
C49_4 C48_4 1_555 1_555
H34_4 C49_4 1_555 1_555
C50_4 C49_4 1_555 1_555
C51_4 C46_4 1_555 1_555
H35_4 C51_4 1_555 1_555
C52_4 C48_4 1_555 1_555
C53_4 C50_4 1_555 1_555
C54_4 C53_4 1_555 1_555
H36_4 C54_4 1_555 1_555
C58_4 C53_4 1_555 1_555
H38_4 C58_4 1_555 1_555
C65_4 C66_4 1_555 1_555
C66_4 H46_4 1_555 1_555
H47_4 C66_4 1_555 1_555
H48_4 C66_4 1_555 1_555
Cu10 O7_4 1_555 1_555
N9_4 C57_4 1_555 1_555
N14 C64_4 1_555 1_555
O9_4 C45_4 1_555 1_555
O10_4 C45_4 1_555 1_555
O14_2 C52_4 1_555 1_555
O16_2 C52_4 1_555 1_555
C6_4 C7_4 1_555 1_555
C13_4 C14_4 1_555 1_555
C15_4 N3_4 1_555 1_555
C17_4 N4_4 1_555 1_555
C18_4 N3_4 1_555 1_555
C19_4 N1_4 1_555 1_555
C21_4 N1_4 1_555 1_555
C21_4 N13 1_555 1_555
C31_4 N5_4 1_555 1_555
C33_4 N5_4 1_555 1_555
C33_4 N16_2 1_555 1_555
Cu9 O2_4 1_555 1_555
Cu9 O5_4 1_555 1_555
Cu9 O6_4 1_555 1_555
C36_4 C37_4 1_555 1_555
C38_4 C39_4 1_555 1_555
C40_4 N7_4 1_555 1_555
C42_4 N7_4 1_555 1_555
C42_4 N17_2 1_555 1_555
O8_4 Cu10 1_555 1_555
C50_4 C51_4 1_555 1_555
C57_4 C58_4 1_555 1_555
C65_4 N9_4 1_555 1_555
C65_4 N14 1_555 1_555
Cu10 O9_4 1_555 1_555
Cu10 O10_4 1_555 1_555

#END
