
###############################################################################
#
# This file contains modified crystal structure data generated from the
# MOF subset of the Cambridge Structural Database (CSD) v543 
# hosted by the Cambridge Crystallographic Data Centre (CCDC).
#
# This work is licensed under the Creative Commons
# Attribution-NonCommercial-ShareAlike 4.0 International License.
# To view a copy of this license, visit
# http://creativecommons.org/licenses/by-nc-sa/4.0/
# or send a letter to
# Creative Commons, PO Box 1866, Mountain View, CA 94042, USA.
#
# CIF created using the CSD Python API on 29 September 2022
# The structure has been converted into the P1 space group
# The structure has a 3D framework
# The original CSD entry BEHNOV is in the monoclinic crystal system
# The framework has been calculated to contain at least 10.0% void space
# The void calculation uses a probe of radius 1.32A, grid spacing 0.4
#
###############################################################################

data_BEHNOV
_chemical_formula_moiety         '(C192 H96 F48 N16 O32 S8 Zn7)n'
_symmetry_cell_setting           triclinic
_symmetry_space_group_name_H-M   'P 1'
_symmetry_Int_Tables_number      1
_space_group_name_Hall           'P 1'
loop_
_symmetry_equiv_pos_site_id
_symmetry_equiv_pos_as_xyz
1 x,y,z
_cell_length_a                   30.717(16)
_cell_length_b                   7.962(4)
_cell_length_c                   22.522(16)
_cell_angle_alpha                90
_cell_angle_beta                 102.05(3)
_cell_angle_gamma                90
_cell_volume                     5386.81
loop_
_atom_site_label
_atom_site_type_symbol
_atom_site_fract_x
_atom_site_fract_y
_atom_site_fract_z
Zn6 Zn 0.53064(2) 0.14011(6) 0.01305(2)
Zn2 Zn 0.46936(2) 0.14011(6) 0.48695(2)
O5 O 0.51305(12) 0.2514(5) 0.55535(17)
O6 O 0.55869(12) 0.0336(5) 0.57483(18)
O7 O 0.50764(13) 0.7731(5) 0.92995(17)
O8 O 0.55186(13) 0.9928(5) 0.94882(18)
C32 C 0.57022(17) 0.7850(7) 0.8848(2)
C33 C 0.56681(18) 0.4418(7) 0.6467(2)
H17 H 0.5412 0.4924 0.6245
C34 C 0.54705(16) 0.1821(6) 0.5833(2)
C35 C 0.57702(16) 0.2794(6) 0.6326(2)
C36 C 0.61543(19) 0.2078(8) 0.6654(3)
H18 H 0.6233 0.0996 0.6561
C37 C 0.64249(18) 0.2957(8) 0.7121(3)
H19 H 0.6684 0.2462 0.7337
C38 C 0.63128(17) 0.4558(7) 0.7269(2)
C39 C 0.65813(18) 0.5591(9) 0.7784(3)
C40 C 0.6897(3) 0.4483(14) 0.8250(4)
F7 F 0.72362(14) 0.3870(8) 0.8022(2)
F8 F 0.6700(2) 0.3225(8) 0.8438(2)
F9 F 0.70848(16) 0.5388(9) 0.8736(2)
C41 C 0.6850(3) 0.6876(14) 0.7489(4)
F10 F 0.70667(17) 0.6052(8) 0.7105(2)
F11 F 0.71713(15) 0.7626(8) 0.7894(3)
F12 F 0.6601(2) 0.8030(7) 0.7187(2)
C42 C 0.62741(19) 0.6454(8) 0.8155(3)
C43 C 0.6342(2) 0.8059(9) 0.8394(3)
H20 H 0.6583 0.8682 0.8326
C44 C 0.60610(19) 0.8754(8) 0.8731(3)
H21 H 0.6113 0.9839 0.8882
C45 C 0.54092(17) 0.8572(7) 0.9241(2)
C46 C 0.56272(19) 0.6266(7) 0.8607(3)
H22 H 0.5385 0.5648 0.8672
C47 C 0.59088(19) 0.5584(7) 0.8268(3)
H23 H 0.5852 0.4507 0.8110
C48 C 0.59278(18) 0.5271(7) 0.6911(2)
H24 H 0.5852 0.6370 0.6988
Zn4 Zn 0.46936(2) 0.85989(6) 0.98695(2)
N5 N 0.41617(12) 0.2938(5) 0.47671(18)
O9 O 0.50764(13) 0.2269(5) 0.42995(17)
O11 O 0.55186(13) 0.0072(5) 0.44882(18)
Zn1 Zn 0.53064(2) 0.85989(6) 0.51305(2)
S1 S 0.75025(7) 0.0102(3) 0.46966(12)
N1 N 0.58383(12) 0.7062(5) 0.52329(18)
N2 N 0.6894 0.2182 0.5025
O1 O 0.48695(12) 0.7486(5) 0.44465(17)
O2 O 0.44131(12) 0.9664(5) 0.42517(18)
O3 O 0.49236(13) 0.2269(5) 0.07005(17)
O4 O 0.44814(13) 0.0072(5) 0.05118(18)
C1 C 0.42978(17) 0.2150(7) 0.1152(2)
C2 C 0.43319(18) 0.5582(7) 0.3533(2)
H1 H 0.4588 0.5076 0.3755
C3 C 0.57984(16) 0.5453(6) 0.5107(3)
H2 H 0.5515 0.4981 0.5017
C4 C 0.61579(17) 0.4450(7) 0.5105(3)
H3 H 0.6117 0.3310 0.5021
C5 C 0.65740(16) 0.5101(7) 0.5223(2)
C6 C 0.6960 0.4056 0.5166
C7 C 0.73414(19) 0.1914(8) 0.4934(3)
C8 C 0.6618(2) 0.6779(8) 0.5372(4)
H4 H 0.6897 0.7283 0.5456
C9 C 0.62480(18) 0.7685(8) 0.5394(4)
H5 H 0.6282 0.8791 0.5527
C10 C 0.45295(16) 0.8179(6) 0.4167(2)
C11 C 0.42298(16) 0.7206(6) 0.3674(2)
C12 C 0.38457(19) 0.7922(8) 0.3346(3)
H6 H 0.3767 0.9004 0.3439
C13 C 0.35751(18) 0.7043(8) 0.2879(3)
H7 H 0.3316 0.7538 0.2663
C14 C 0.36872(17) 0.5442(7) 0.2731(2)
C15 C 0.34187(18) 0.4409(9) 0.2216(3)
C16 C 0.3103(3) 0.5517(14) 0.1750(4)
F1 F 0.27638(14) 0.6130(8) 0.1978(2)
F2 F 0.3300(2) 0.6775(8) 0.1562(2)
F3 F 0.29152(16) 0.4612(9) 0.1264(2)
C17 C 0.3150(3) 0.3124(14) 0.2511(4)
F4 F 0.29333(17) 0.3948(8) 0.2895(2)
F5 F 0.28287(15) 0.2374(8) 0.2106(3)
F6 F 0.3399(2) 0.1970(7) 0.2813(2)
C18 C 0.37259(19) 0.3546(8) 0.1845(3)
C19 C 0.3658(2) 0.1941(9) 0.1606(3)
H8 H 0.3417 0.1318 0.1674
C20 C 0.39390(19) 0.1246(8) 0.1269(3)
H9 H 0.3887 0.0161 0.1118
C21 C 0.45908(17) 0.1428(7) 0.0759(2)
C22 C 0.43728(19) 0.3734(7) 0.1393(3)
H10 H 0.4615 0.4352 0.1328
C23 C 0.40912(19) 0.4416(7) 0.1732(3)
H11 H 0.4148 0.5493 0.1890
C24 C 0.40722(18) 0.4729(7) 0.3089(2)
H12 H 0.4148 0.3630 0.3012
S2 S 0.74975(7) 0.4898(3) 0.53034(12)
N4 N 0.8106 0.2818 0.4975
H13 H 0.9485 0.0019 0.4983
C26 C 0.88421(17) 0.0550(7) 0.4895(3)
H14 H 0.8883 0.1690 0.4979
C28 C 0.8040 0.0944 0.4834
C29 C 0.76586(19) 0.3086(8) 0.5066(3)
O10 O 0.49236(13) 0.7731(5) 0.57005(17)
O12 O 0.44814(13) 0.9928(5) 0.55118(18)
N3 N 0.91617(12) 0.7938(5) 0.47671(18)
C25 C 0.92016(16) 0.9547(6) 0.4893(3)
C27 C 0.84260(16) 0.9899(7) 0.4777(2)
C30 C 0.8382(2) 0.8221(8) 0.4628(4)
H15 H 0.8103 0.7717 0.4544
C31 C 0.87520(18) 0.7315(8) 0.4606(4)
H16 H 0.8718 0.6209 0.4473
Zn7 Zn 0.96936(2) 0.64011(6) 0.48695(2)
N5_2 N 0.58383(12) 0.2938(5) 0.02329(18)
O5_2 O 0.48695(12) 0.2514(5) 0.94465(17)
O6_2 O 0.44131(12) 0.0336(5) 0.92517(18)
C32_2 C 0.42978(17) 0.7850(7) 0.6152(2)
C33_2 C 0.43319(18) 0.4418(7) 0.8533(2)
H17_2 H 0.4588 0.4924 0.8755
C34_2 C 0.45295(16) 0.1821(6) 0.9167(2)
C35_2 C 0.42298(16) 0.2794(6) 0.8674(2)
C36_2 C 0.38457(19) 0.2078(8) 0.8346(3)
H18_2 H 0.3767 0.0996 0.8439
C37_2 C 0.35751(18) 0.2957(8) 0.7879(3)
H19_2 H 0.3316 0.2462 0.7663
C38_2 C 0.36872(17) 0.4558(7) 0.7731(2)
C39_2 C 0.34187(18) 0.5591(9) 0.7216(3)
C40_2 C 0.3103(3) 0.4483(14) 0.6750(4)
F7_2 F 0.27638(14) 0.3870(8) 0.6978(2)
F8_2 F 0.3300(2) 0.3225(8) 0.6562(2)
F9_2 F 0.29152(16) 0.5388(9) 0.6264(2)
C41_2 C 0.3150(3) 0.6876(14) 0.7511(4)
F10_2 F 0.29333(17) 0.6052(8) 0.7895(2)
F11_2 F 0.28287(15) 0.7626(8) 0.7106(3)
F12_2 F 0.3399(2) 0.8030(7) 0.7813(2)
C42_2 C 0.37259(19) 0.6454(8) 0.6845(3)
C43_2 C 0.3658(2) 0.8059(9) 0.6606(3)
H20_2 H 0.3417 0.8682 0.6674
C44_2 C 0.39390(19) 0.8754(8) 0.6269(3)
H21_2 H 0.3887 0.9839 0.6118
C45_2 C 0.45908(17) 0.8572(7) 0.5759(2)
C46_2 C 0.43728(19) 0.6266(7) 0.6393(3)
H22_2 H 0.4615 0.5648 0.6328
C47_2 C 0.40912(19) 0.5584(7) 0.6732(3)
H23_2 H 0.4148 0.4507 0.6890
C48_2 C 0.40722(18) 0.5271(7) 0.8089(2)
H24_2 H 0.4148 0.6370 0.8012
S1_2 S 0.24975(7) 0.0102(3) 0.03034(12)
O1_2 O 0.51305(12) 0.7486(5) 0.05535(17)
O2_2 O 0.55869(12) 0.9664(5) 0.07483(18)
C1_2 C 0.57022(17) 0.2150(7) 0.3848(2)
C2_2 C 0.56681(18) 0.5582(7) 0.1467(2)
H1_2 H 0.5412 0.5076 0.1245
C7_2 C 0.26586(19) 0.1914(8) 0.0066(3)
C10_2 C 0.54705(16) 0.8179(6) 0.0833(2)
C11_2 C 0.57702(16) 0.7206(6) 0.1326(2)
C12_2 C 0.61543(19) 0.7922(8) 0.1654(3)
H6_2 H 0.6233 0.9004 0.1561
C13_2 C 0.64249(18) 0.7043(8) 0.2121(3)
H7_2 H 0.6684 0.7538 0.2337
C14_2 C 0.63128(17) 0.5442(7) 0.2269(2)
C15_2 C 0.65813(18) 0.4409(9) 0.2784(3)
C16_2 C 0.6897(3) 0.5517(14) 0.3250(4)
F1_2 F 0.72362(14) 0.6130(8) 0.3022(2)
F2_2 F 0.6700(2) 0.6775(8) 0.3438(2)
F3_2 F 0.70848(16) 0.4612(9) 0.3736(2)
C17_2 C 0.6850(3) 0.3124(14) 0.2489(4)
F4_2 F 0.70667(17) 0.3948(8) 0.2105(2)
F5_2 F 0.71713(15) 0.2374(8) 0.2894(3)
F6_2 F 0.6601(2) 0.1970(7) 0.2187(2)
C18_2 C 0.62741(19) 0.3546(8) 0.3155(3)
C19_2 C 0.6342(2) 0.1941(9) 0.3394(3)
H8_2 H 0.6583 0.1318 0.3326
C20_2 C 0.60610(19) 0.1246(8) 0.3731(3)
H9_2 H 0.6113 0.0161 0.3882
C21_2 C 0.54092(17) 0.1428(7) 0.4241(2)
C22_2 C 0.56272(19) 0.3734(7) 0.3607(3)
H10_2 H 0.5385 0.4352 0.3672
C23_2 C 0.59088(19) 0.4416(7) 0.3268(3)
H11_2 H 0.5852 0.5493 0.3110
C24_2 C 0.59278(18) 0.4729(7) 0.1911(2)
H12_2 H 0.5852 0.3630 0.1988
N4_2 N 0.1894 0.2818 0.0025
H13_2 H 0.0515 0.0019 0.0017
C26_2 C 0.11579(17) 0.0550(7) 0.0105(3)
H14_2 H 0.1117 0.1690 0.0021
C28_2 C 0.1960 0.0944 0.0166
N1_2 N 0.41617(12) 0.7062(5) 0.97671(18)
N2_2 N 0.3106 0.2182 0.9975
C3_2 C 0.42016(16) 0.5453(6) 0.9893(3)
H2_2 H 0.4485 0.4981 0.9983
C4_2 C 0.38421(17) 0.4450(7) 0.9895(3)
H3_2 H 0.3883 0.3310 0.9979
C5_2 C 0.34260(16) 0.5101(7) 0.9777(2)
C6_2 C 0.3040 0.4056 0.9834
C8_2 C 0.3382(2) 0.6779(8) 0.9628(4)
H4_2 H 0.3103 0.7283 0.9544
C9_2 C 0.37520(18) 0.7685(8) 0.9606(4)
H5_2 H 0.3718 0.8791 0.9473
S2_2 S 0.25025(7) 0.4898(3) 0.96966(12)
C29_2 C 0.23414(19) 0.3086(8) 0.9934(3)
N3_2 N 0.08383(12) 0.7938(5) 0.02329(18)
C25_2 C 0.07984(16) 0.9547(6) 0.0107(3)
C27_2 C 0.15740(16) 0.9899(7) 0.0223(2)
C30_2 C 0.1618(2) 0.8221(8) 0.0372(4)
H15_2 H 0.1897 0.7717 0.0456
C31_2 C 0.12480(18) 0.7315(8) 0.0394(4)
H16_2 H 0.1282 0.6209 0.0527
Zn7_2 Zn 0.03064(2) 0.64011(6) 0.01305(2)
Zn1_2 Zn 0.03064(2) 0.35989(6) 0.51305(2)
N1_3 N 0.08383(12) 0.2062(5) 0.52329(18)
C3_3 C 0.07984(16) 0.0453(6) 0.5107(3)
C5_3 C 0.15740(16) 0.0101(7) 0.5223(2)
C8_3 C 0.1618(2) 0.1779(8) 0.5372(4)
H4_3 H 0.1897 0.2283 0.5456
C9_3 C 0.12480(18) 0.2685(8) 0.5394(4)
H5_3 H 0.1282 0.3791 0.5527
O5_3 O 0.01305(12) 0.7514(5) 0.55535(17)
O6_3 O 0.05869(12) 0.5336(5) 0.57483(18)
C33_3 C 0.06681(18) 0.9418(7) 0.6467(2)
H17_3 H 0.0412 0.9924 0.6245
C34_3 C 0.04705(16) 0.6821(6) 0.5833(2)
C35_3 C 0.07702(16) 0.7794(6) 0.6326(2)
C36_3 C 0.11543(19) 0.7078(8) 0.6654(3)
H18_3 H 0.1233 0.5996 0.6561
C37_3 C 0.14249(18) 0.7957(8) 0.7121(3)
H19_3 H 0.1684 0.7462 0.7337
C38_3 C 0.13128(17) 0.9558(7) 0.7269(2)
C40_3 C 0.1897(3) 0.9483(14) 0.8250(4)
F7_3 F 0.22362(14) 0.8870(8) 0.8022(2)
F8_3 F 0.1700(2) 0.8225(8) 0.8438(2)
H23_3 H 0.0852 0.9507 0.8110
O9_2 O 0.00764(13) 0.7269(5) 0.42995(17)
O11_2 O 0.05186(13) 0.5072(5) 0.44882(18)
S1_3 S 0.25025(7) 0.5102(3) 0.46966(12)
N2_3 N 0.1894 0.7182 0.5025
H2_3 H 0.0515 0.9981 0.5017
C4_3 C 0.11579(17) 0.9450(7) 0.5105(3)
H3_3 H 0.1117 0.8310 0.5021
C6_3 C 0.1960 0.9056 0.5166
C7_3 C 0.23414(19) 0.6914(8) 0.4934(3)
S2_3 S 0.24975(7) 0.9898(3) 0.53034(12)
N4_3 N 0.3106 0.7818 0.4975
C25_3 C 0.42016(16) 0.4547(6) 0.4893(3)
H13_3 H 0.4485 0.5019 0.4983
C26_3 C 0.38421(17) 0.5550(7) 0.4895(3)
H14_3 H 0.3883 0.6690 0.4979
C27_3 C 0.34260(16) 0.4899(7) 0.4777(2)
C28_3 C 0.3040 0.5944 0.4834
C29_3 C 0.26586(19) 0.8086(8) 0.5066(3)
C30_3 C 0.3382(2) 0.3221(8) 0.4628(4)
H15_3 H 0.3103 0.2717 0.4544
C31_3 C 0.37520(18) 0.2315(8) 0.4606(4)
H16_3 H 0.3718 0.1209 0.4473
Zn4_2 Zn 0.96936(2) 0.35989(6) 0.98695(2)
O1_3 O 0.98695(12) 0.2486(5) 0.44465(17)
O2_3 O 0.94131(12) 0.4664(5) 0.42517(18)
C2_3 C 0.93319(18) 0.0582(7) 0.3533(2)
H1_3 H 0.9588 0.0076 0.3755
C10_3 C 0.95295(16) 0.3179(6) 0.4167(2)
C11_3 C 0.92298(16) 0.2206(6) 0.3674(2)
C12_3 C 0.88457(19) 0.2922(8) 0.3346(3)
H6_3 H 0.8767 0.4004 0.3439
C13_3 C 0.85751(18) 0.2043(8) 0.2879(3)
H7_3 H 0.8316 0.2538 0.2663
C14_3 C 0.86872(17) 0.0442(7) 0.2731(2)
C16_3 C 0.8103(3) 0.0517(14) 0.1750(4)
F1_3 F 0.77638(14) 0.1130(8) 0.1978(2)
F2_3 F 0.8300(2) 0.1775(8) 0.1562(2)
H11_3 H 0.9148 0.0493 0.1890
O10_2 O 0.99236(13) 0.2731(5) 0.57005(17)
O12_2 O 0.94814(13) 0.4928(5) 0.55118(18)
O1_4 O 0.01305(12) 0.2486(5) 0.05535(17)
O2_4 O 0.05869(12) 0.4664(5) 0.07483(18)
C2_4 C 0.06681(18) 0.0582(7) 0.1467(2)
H1_4 H 0.0412 0.0076 0.1245
C10_4 C 0.04705(16) 0.3179(6) 0.0833(2)
C11_4 C 0.07702(16) 0.2206(6) 0.1326(2)
C12_4 C 0.11543(19) 0.2922(8) 0.1654(3)
H6_4 H 0.1233 0.4004 0.1561
C13_4 C 0.14249(18) 0.2043(8) 0.2121(3)
H7_4 H 0.1684 0.2538 0.2337
C14_4 C 0.13128(17) 0.0442(7) 0.2269(2)
C16_4 C 0.1897(3) 0.0517(14) 0.3250(4)
F1_4 F 0.22362(14) 0.1130(8) 0.3022(2)
F2_4 F 0.1700(2) 0.1775(8) 0.3438(2)
H11_4 H 0.0852 0.0493 0.3110
C1_3 C 0.07022(17) 0.7150(7) 0.3848(2)
C15_3 C 0.15813(18) 0.9409(9) 0.2784(3)
F3_3 F 0.20848(16) 0.9612(9) 0.3736(2)
C17_3 C 0.1850(3) 0.8124(14) 0.2489(4)
F4_3 F 0.20667(17) 0.8948(8) 0.2105(2)
F5_3 F 0.21713(15) 0.7374(8) 0.2894(3)
F6_3 F 0.1601(2) 0.6970(7) 0.2187(2)
C18_3 C 0.12741(19) 0.8546(8) 0.3155(3)
C19_3 C 0.1342(2) 0.6941(9) 0.3394(3)
H8_3 H 0.1583 0.6318 0.3326
C20_3 C 0.10610(19) 0.6246(8) 0.3731(3)
H9_3 H 0.1113 0.5161 0.3882
C21_3 C 0.04092(17) 0.6428(7) 0.4241(2)
C22_3 C 0.06272(19) 0.8734(7) 0.3607(3)
H10_3 H 0.0385 0.9352 0.3672
C23_3 C 0.09088(19) 0.9416(7) 0.3268(3)
C24_3 C 0.09278(18) 0.9729(7) 0.1911(2)
H12_3 H 0.0852 0.8630 0.1988
C32_3 C 0.92978(17) 0.2850(7) 0.6152(2)
C39_3 C 0.84187(18) 0.0591(9) 0.7216(3)
F9_3 F 0.79152(16) 0.0388(9) 0.6264(2)
C41_3 C 0.8150(3) 0.1876(14) 0.7511(4)
F10_3 F 0.79333(17) 0.1052(8) 0.7895(2)
F11_3 F 0.78287(15) 0.2626(8) 0.7106(3)
F12_3 F 0.8399(2) 0.3030(7) 0.7813(2)
C42_3 C 0.87259(19) 0.1454(8) 0.6845(3)
C43_3 C 0.8658(2) 0.3059(9) 0.6606(3)
H20_3 H 0.8417 0.3682 0.6674
C44_3 C 0.89390(19) 0.3754(8) 0.6269(3)
H21_3 H 0.8887 0.4839 0.6118
C45_3 C 0.95908(17) 0.3572(7) 0.5759(2)
C46_3 C 0.93728(19) 0.1266(7) 0.6393(3)
H22_3 H 0.9615 0.0648 0.6328
C47_3 C 0.90912(19) 0.0584(7) 0.6732(3)
C48_3 C 0.90722(18) 0.0271(7) 0.8089(2)
H24_3 H 0.9148 0.1370 0.8012
N1_4 N 0.91617(12) 0.2062(5) 0.97671(18)
C3_4 C 0.92016(16) 0.0453(6) 0.9893(3)
C5_4 C 0.84260(16) 0.0101(7) 0.9777(2)
C8_4 C 0.8382(2) 0.1779(8) 0.9628(4)
H4_4 H 0.8103 0.2283 0.9544
C9_4 C 0.87520(18) 0.2685(8) 0.9606(4)
H5_4 H 0.8718 0.3791 0.9473
O5_4 O 0.98695(12) 0.7514(5) 0.94465(17)
O6_4 O 0.94131(12) 0.5336(5) 0.92517(18)
C33_4 C 0.93319(18) 0.9418(7) 0.8533(2)
H17_4 H 0.9588 0.9924 0.8755
C34_4 C 0.95295(16) 0.6821(6) 0.9167(2)
C35_4 C 0.92298(16) 0.7794(6) 0.8674(2)
C36_4 C 0.88457(19) 0.7078(8) 0.8346(3)
H18_4 H 0.8767 0.5996 0.8439
C37_4 C 0.85751(18) 0.7957(8) 0.7879(3)
H19_4 H 0.8316 0.7462 0.7663
C38_4 C 0.86872(17) 0.9558(7) 0.7731(2)
C40_4 C 0.8103(3) 0.9483(14) 0.6750(4)
F7_4 F 0.77638(14) 0.8870(8) 0.6978(2)
F8_4 F 0.8300(2) 0.8225(8) 0.6562(2)
H23_4 H 0.9148 0.9507 0.6890
S1_4 S 0.74975(7) 0.5102(3) 0.03034(12)
C7_4 C 0.76586(19) 0.6914(8) 0.0066(3)
N4_4 N 0.6894 0.7818 0.0025
C25_4 C 0.57984(16) 0.4547(6) 0.0107(3)
H13_4 H 0.5515 0.5019 0.0017
C26_4 C 0.61579(17) 0.5550(7) 0.0105(3)
H14_4 H 0.6117 0.6690 0.0021
C27_4 C 0.65740(16) 0.4899(7) 0.0223(2)
C28_4 C 0.6960 0.5944 0.0166
C30_4 C 0.6618(2) 0.3221(8) 0.0372(4)
H15_4 H 0.6897 0.2717 0.0456
C31_4 C 0.62480(18) 0.2315(8) 0.0394(4)
H16_4 H 0.6282 0.1209 0.0527
N2_4 N 0.8106 0.7182 0.9975
H2_4 H 0.9485 0.9981 0.9983
C4_4 C 0.88421(17) 0.9450(7) 0.9895(3)
H3_4 H 0.8883 0.8310 0.9979
C6_4 C 0.8040 0.9056 0.9834
S2_4 S 0.75025(7) 0.9898(3) 0.96966(12)
C29_4 C 0.73414(19) 0.8086(8) 0.9934(3)
O7_2 O 0.00764(13) 0.2731(5) 0.92995(17)
O8_2 O 0.05186(13) 0.4928(5) 0.94882(18)
C32_4 C 0.07022(17) 0.2850(7) 0.8848(2)
C39_4 C 0.15813(18) 0.0591(9) 0.7784(3)
F9_4 F 0.20848(16) 0.0388(9) 0.8736(2)
C41_4 C 0.1850(3) 0.1876(14) 0.7489(4)
F10_4 F 0.20667(17) 0.1052(8) 0.7105(2)
F11_4 F 0.21713(15) 0.2626(8) 0.7894(3)
F12_4 F 0.1601(2) 0.3030(7) 0.7187(2)
C42_4 C 0.12741(19) 0.1454(8) 0.8155(3)
C43_4 C 0.1342(2) 0.3059(9) 0.8394(3)
H20_4 H 0.1583 0.3682 0.8326
C44_4 C 0.10610(19) 0.3754(8) 0.8731(3)
H21_4 H 0.1113 0.4839 0.8882
C45_4 C 0.04092(17) 0.3572(7) 0.9241(2)
C46_4 C 0.06272(19) 0.1266(7) 0.8607(3)
H22_4 H 0.0385 0.0648 0.8672
C47_4 C 0.09088(19) 0.0584(7) 0.8268(3)
C48_4 C 0.09278(18) 0.0271(7) 0.6911(2)
H24_4 H 0.0852 0.1370 0.6988
O3_2 O 0.99236(13) 0.7269(5) 0.07005(17)
O4_2 O 0.94814(13) 0.5072(5) 0.05118(18)
C1_4 C 0.92978(17) 0.7150(7) 0.1152(2)
C15_4 C 0.84187(18) 0.9409(9) 0.2216(3)
F3_4 F 0.79152(16) 0.9612(9) 0.1264(2)
C17_4 C 0.8150(3) 0.8124(14) 0.2511(4)
F4_4 F 0.79333(17) 0.8948(8) 0.2895(2)
F5_4 F 0.78287(15) 0.7374(8) 0.2106(3)
F6_4 F 0.8399(2) 0.6970(7) 0.2813(2)
C18_4 C 0.87259(19) 0.8546(8) 0.1845(3)
C19_4 C 0.8658(2) 0.6941(9) 0.1606(3)
H8_4 H 0.8417 0.6318 0.1674
C20_4 C 0.89390(19) 0.6246(8) 0.1269(3)
H9_4 H 0.8887 0.5161 0.1118
C21_4 C 0.95908(17) 0.6428(7) 0.0759(2)
C22_4 C 0.93728(19) 0.8734(7) 0.1393(3)
H10_4 H 0.9615 0.9352 0.1328
C23_4 C 0.90912(19) 0.9416(7) 0.1732(3)
C24_4 C 0.90722(18) 0.9729(7) 0.3089(2)
H12_4 H 0.9148 0.8630 0.3012
loop_
_geom_bond_atom_site_label_1
_geom_bond_atom_site_label_2
_geom_bond_site_symmetry_1
_geom_bond_site_symmetry_2
O5 Zn2 1_555 1_555
O7 C45 1_555 1_555
O8 C45 1_555 1_555
C32 C44 1_555 1_555
C33 H17 1_555 1_555
C34 O5 1_555 1_555
C35 C33 1_555 1_555
C36 C35 1_555 1_555
H18 C36 1_555 1_555
C37 C36 1_555 1_555
H19 C37 1_555 1_555
C38 C37 1_555 1_555
C39 C38 1_555 1_555
C40 C39 1_555 1_555
F7 C40 1_555 1_555
F8 C40 1_555 1_555
F9 C40 1_555 1_555
C41 C39 1_555 1_555
F10 C41 1_555 1_555
F11 C41 1_555 1_555
F12 C41 1_555 1_555
C42 C39 1_555 1_555
C43 C42 1_555 1_555
H20 C43 1_555 1_555
C44 C43 1_555 1_555
H21 C44 1_555 1_555
C45 C32 1_555 1_555
C46 C32 1_555 1_555
H22 C46 1_555 1_555
C47 C42 1_555 1_555
H23 C47 1_555 1_555
C48 C33 1_555 1_555
H24 C48 1_555 1_555
Zn4 O7 1_555 1_555
N5 Zn2 1_555 1_555
O9 Zn2 1_555 1_555
O6 C34 1_555 1_555
C34 C35 1_555 1_555
C38 C48 1_555 1_555
C46 C47 1_555 1_555
Zn1 N1 1_555 1_555
S1 C7 1_555 1_555
N1 C3 1_555 1_555
N2 C6 1_555 1_555
O1 Zn1 1_555 1_555
O2 C10 1_555 1_555
O3 C21 1_555 1_555
O4 C21 1_555 1_555
C1 C20 1_555 1_555
C2 H1 1_555 1_555
C3 H2 1_555 1_555
C4 C3 1_555 1_555
H3 C4 1_555 1_555
C5 C4 1_555 1_555
C6 C5 1_555 1_555
C7 N2 1_555 1_555
C8 C5 1_555 1_555
H4 C8 1_555 1_555
C9 N1 1_555 1_555
H5 C9 1_555 1_555
C10 O1 1_555 1_555
C11 C2 1_555 1_555
C12 C11 1_555 1_555
H6 C12 1_555 1_555
C13 C12 1_555 1_555
H7 C13 1_555 1_555
C14 C13 1_555 1_555
C15 C14 1_555 1_555
C16 C15 1_555 1_555
F1 C16 1_555 1_555
F2 C16 1_555 1_555
F3 C16 1_555 1_555
C17 C15 1_555 1_555
F4 C17 1_555 1_555
F5 C17 1_555 1_555
F6 C17 1_555 1_555
C18 C15 1_555 1_555
C19 C18 1_555 1_555
H8 C19 1_555 1_555
C20 C19 1_555 1_555
H9 C20 1_555 1_555
C21 C1 1_555 1_555
C22 C1 1_555 1_555
H10 C22 1_555 1_555
C23 C18 1_555 1_555
H11 C23 1_555 1_555
C24 C2 1_555 1_555
H12 C24 1_555 1_555
S2 C6 1_555 1_555
N4 C28 1_555 1_555
H14 C26 1_555 1_555
C28 S1 1_555 1_555
C29 C7 1_555 1_555
Zn6 O3 1_555 1_555
O10 Zn1 1_555 1_555
C8 C9 1_555 1_555
C10 C11 1_555 1_555
C14 C24 1_555 1_555
C22 C23 1_555 1_555
S2 C29 1_555 1_555
N4 C29 1_555 1_555
N3 C25 1_555 1_555
C30 C27 1_555 1_555
H15 C30 1_555 1_555
C31 N3 1_555 1_555
H16 C31 1_555 1_555
Zn7 N3 1_555 1_555
C30 C31 1_555 1_555
N5_2 Zn6 1_555 1_555
O10 C45_2 1_555 1_555
O12 C45_2 1_555 1_555
C32_2 C44_2 1_555 1_555
C33_2 H17_2 1_555 1_555
C34_2 O5_2 1_555 1_555
C35_2 C33_2 1_555 1_555
C36_2 C35_2 1_555 1_555
H18_2 C36_2 1_555 1_555
C37_2 C36_2 1_555 1_555
H19_2 C37_2 1_555 1_555
C38_2 C37_2 1_555 1_555
C39_2 C38_2 1_555 1_555
C40_2 C39_2 1_555 1_555
F7_2 C40_2 1_555 1_555
F8_2 C40_2 1_555 1_555
F9_2 C40_2 1_555 1_555
C41_2 C39_2 1_555 1_555
F10_2 C41_2 1_555 1_555
F11_2 C41_2 1_555 1_555
F12_2 C41_2 1_555 1_555
C42_2 C39_2 1_555 1_555
C43_2 C42_2 1_555 1_555
H20_2 C43_2 1_555 1_555
C44_2 C43_2 1_555 1_555
H21_2 C44_2 1_555 1_555
C45_2 C32_2 1_555 1_555
C46_2 C32_2 1_555 1_555
H22_2 C46_2 1_555 1_555
C47_2 C42_2 1_555 1_555
H23_2 C47_2 1_555 1_555
C48_2 C33_2 1_555 1_555
H24_2 C48_2 1_555 1_555
O6_2 C34_2 1_555 1_555
C34_2 C35_2 1_555 1_555
C38_2 C48_2 1_555 1_555
C46_2 C47_2 1_555 1_555
S1_2 C7_2 1_555 1_555
O2_2 C10_2 1_555 1_555
O9 C21_2 1_555 1_555
O11 C21_2 1_555 1_555
C1_2 C20_2 1_555 1_555
C2_2 H1_2 1_555 1_555
C10_2 O1_2 1_555 1_555
C11_2 C2_2 1_555 1_555
C12_2 C11_2 1_555 1_555
H6_2 C12_2 1_555 1_555
C13_2 C12_2 1_555 1_555
H7_2 C13_2 1_555 1_555
C14_2 C13_2 1_555 1_555
C15_2 C14_2 1_555 1_555
C16_2 C15_2 1_555 1_555
F1_2 C16_2 1_555 1_555
F2_2 C16_2 1_555 1_555
F3_2 C16_2 1_555 1_555
C17_2 C15_2 1_555 1_555
F4_2 C17_2 1_555 1_555
F5_2 C17_2 1_555 1_555
F6_2 C17_2 1_555 1_555
C18_2 C15_2 1_555 1_555
C19_2 C18_2 1_555 1_555
H8_2 C19_2 1_555 1_555
C20_2 C19_2 1_555 1_555
H9_2 C20_2 1_555 1_555
C21_2 C1_2 1_555 1_555
C22_2 C1_2 1_555 1_555
H10_2 C22_2 1_555 1_555
C23_2 C18_2 1_555 1_555
H11_2 C23_2 1_555 1_555
C24_2 C2_2 1_555 1_555
H12_2 C24_2 1_555 1_555
N4_2 C28_2 1_555 1_555
H14_2 C26_2 1_555 1_555
C28_2 S1_2 1_555 1_555
C10_2 C11_2 1_555 1_555
C14_2 C24_2 1_555 1_555
C22_2 C23_2 1_555 1_555
Zn4 N1_2 1_555 1_555
N1_2 C3_2 1_555 1_555
N2_2 C6_2 1_555 1_555
C3_2 H2_2 1_555 1_555
C4_2 C3_2 1_555 1_555
H3_2 C4_2 1_555 1_555
C5_2 C4_2 1_555 1_555
C6_2 C5_2 1_555 1_555
C8_2 C5_2 1_555 1_555
H4_2 C8_2 1_555 1_555
C9_2 N1_2 1_555 1_555
H5_2 C9_2 1_555 1_555
S2_2 C6_2 1_555 1_555
C8_2 C9_2 1_555 1_555
S2_2 C29_2 1_555 1_555
N3_2 C25_2 1_555 1_555
C30_2 C27_2 1_555 1_555
H15_2 C30_2 1_555 1_555
C31_2 N3_2 1_555 1_555
H16_2 C31_2 1_555 1_555
Zn7_2 N3_2 1_555 1_555
C30_2 C31_2 1_555 1_555
Zn1_2 N1_3 1_555 1_555
N1_3 C3_3 1_555 1_555
C8_3 C5_3 1_555 1_555
H4_3 C8_3 1_555 1_555
C9_3 N1_3 1_555 1_555
H5_3 C9_3 1_555 1_555
O6_3 Zn1_2 1_555 1_555
C33_3 H17_3 1_555 1_555
C34_3 O5_3 1_555 1_555
C35_3 C33_3 1_555 1_555
C36_3 C35_3 1_555 1_555
H18_3 C36_3 1_555 1_555
C37_3 C36_3 1_555 1_555
H19_3 C37_3 1_555 1_555
C38_3 C37_3 1_555 1_555
F7_3 C40_3 1_555 1_555
F8_3 C40_3 1_555 1_555
O11_2 Zn1_2 1_555 1_555
C8_3 C9_3 1_555 1_555
O6_3 C34_3 1_555 1_555
C34_3 C35_3 1_555 1_555
S1_3 C7_3 1_555 1_555
N2_3 C6_3 1_555 1_555
H3_3 C4_3 1_555 1_555
C7_3 N2_3 1_555 1_555
S2_3 C6_3 1_555 1_555
N5 C25_3 1_555 1_555
N4_3 C28_3 1_555 1_555
C25_3 H13_3 1_555 1_555
C26_3 C25_3 1_555 1_555
H14_3 C26_3 1_555 1_555
C27_3 C26_3 1_555 1_555
C28_3 S1_3 1_555 1_555
C29_3 C7_3 1_555 1_555
C30_3 C27_3 1_555 1_555
H15_3 C30_3 1_555 1_555
C31_3 N5 1_555 1_555
H16_3 C31_3 1_555 1_555
S2_3 C29_3 1_555 1_555
N4_3 C29_3 1_555 1_555
C27_3 C28_3 1_555 1_555
C30_3 C31_3 1_555 1_555
O2_3 C10_3 1_555 1_555
C2_3 H1_3 1_555 1_555
C10_3 O1_3 1_555 1_555
C11_3 C2_3 1_555 1_555
C12_3 C11_3 1_555 1_555
H6_3 C12_3 1_555 1_555
C13_3 C12_3 1_555 1_555
H7_3 C13_3 1_555 1_555
C14_3 C13_3 1_555 1_555
F1_3 C16_3 1_555 1_555
F2_3 C16_3 1_555 1_555
Zn7 O2_3 1_555 1_555
O12_2 Zn7 1_555 1_555
C10_3 C11_3 1_555 1_555
O2_4 C10_4 1_555 1_555
C2_4 H1_4 1_555 1_555
C10_4 O1_4 1_555 1_555
C11_4 C2_4 1_555 1_555
C12_4 C11_4 1_555 1_555
H6_4 C12_4 1_555 1_555
C13_4 C12_4 1_555 1_555
H7_4 C13_4 1_555 1_555
C14_4 C13_4 1_555 1_555
F1_4 C16_4 1_555 1_555
F2_4 C16_4 1_555 1_555
Zn7_2 O2_4 1_555 1_555
C10_4 C11_4 1_555 1_555
O9_2 C21_3 1_555 1_555
O11_2 C21_3 1_555 1_555
C1_3 C20_3 1_555 1_555
C17_3 C15_3 1_555 1_555
F4_3 C17_3 1_555 1_555
F5_3 C17_3 1_555 1_555
F6_3 C17_3 1_555 1_555
C18_3 C15_3 1_555 1_555
C19_3 C18_3 1_555 1_555
H8_3 C19_3 1_555 1_555
C20_3 C19_3 1_555 1_555
H9_3 C20_3 1_555 1_555
C21_3 C1_3 1_555 1_555
C22_3 C1_3 1_555 1_555
H10_3 C22_3 1_555 1_555
C23_3 C18_3 1_555 1_555
H12_3 C24_3 1_555 1_555
C22_3 C23_3 1_555 1_555
O10_2 C45_3 1_555 1_555
O12_2 C45_3 1_555 1_555
C32_3 C44_3 1_555 1_555
C41_3 C39_3 1_555 1_555
F10_3 C41_3 1_555 1_555
F11_3 C41_3 1_555 1_555
F12_3 C41_3 1_555 1_555
C42_3 C39_3 1_555 1_555
C43_3 C42_3 1_555 1_555
H20_3 C43_3 1_555 1_555
C44_3 C43_3 1_555 1_555
H21_3 C44_3 1_555 1_555
C45_3 C32_3 1_555 1_555
C46_3 C32_3 1_555 1_555
H22_3 C46_3 1_555 1_555
C47_3 C42_3 1_555 1_555
H24_3 C48_3 1_555 1_555
C46_3 C47_3 1_555 1_555
Zn4_2 N1_4 1_555 1_555
N1_4 C3_4 1_555 1_555
C8_4 C5_4 1_555 1_555
H4_4 C8_4 1_555 1_555
C9_4 N1_4 1_555 1_555
H5_4 C9_4 1_555 1_555
O6_4 Zn4_2 1_555 1_555
C33_4 H17_4 1_555 1_555
C34_4 O5_4 1_555 1_555
C35_4 C33_4 1_555 1_555
C36_4 C35_4 1_555 1_555
H18_4 C36_4 1_555 1_555
C37_4 C36_4 1_555 1_555
H19_4 C37_4 1_555 1_555
C38_4 C37_4 1_555 1_555
F7_4 C40_4 1_555 1_555
F8_4 C40_4 1_555 1_555
C8_4 C9_4 1_555 1_555
O6_4 C34_4 1_555 1_555
C34_4 C35_4 1_555 1_555
S1_4 C7_4 1_555 1_555
N5_2 C25_4 1_555 1_555
N4_4 C28_4 1_555 1_555
C25_4 H13_4 1_555 1_555
C26_4 C25_4 1_555 1_555
H14_4 C26_4 1_555 1_555
C27_4 C26_4 1_555 1_555
C28_4 S1_4 1_555 1_555
C30_4 C27_4 1_555 1_555
H15_4 C30_4 1_555 1_555
C31_4 N5_2 1_555 1_555
H16_4 C31_4 1_555 1_555
C27_4 C28_4 1_555 1_555
C30_4 C31_4 1_555 1_555
N2_4 C6_4 1_555 1_555
H3_4 C4_4 1_555 1_555
S2_4 C6_4 1_555 1_555
S2_4 C29_4 1_555 1_555
O7_2 C45_4 1_555 1_555
O8_2 C45_4 1_555 1_555
C32_4 C44_4 1_555 1_555
C41_4 C39_4 1_555 1_555
F10_4 C41_4 1_555 1_555
F11_4 C41_4 1_555 1_555
F12_4 C41_4 1_555 1_555
C42_4 C39_4 1_555 1_555
C43_4 C42_4 1_555 1_555
H20_4 C43_4 1_555 1_555
C44_4 C43_4 1_555 1_555
H21_4 C44_4 1_555 1_555
C45_4 C32_4 1_555 1_555
C46_4 C32_4 1_555 1_555
H22_4 C46_4 1_555 1_555
C47_4 C42_4 1_555 1_555
H24_4 C48_4 1_555 1_555
C46_4 C47_4 1_555 1_555
O3_2 C21_4 1_555 1_555
O4_2 C21_4 1_555 1_555
C1_4 C20_4 1_555 1_555
C17_4 C15_4 1_555 1_555
F4_4 C17_4 1_555 1_555
F5_4 C17_4 1_555 1_555
F6_4 C17_4 1_555 1_555
C18_4 C15_4 1_555 1_555
C19_4 C18_4 1_555 1_555
H8_4 C19_4 1_555 1_555
C20_4 C19_4 1_555 1_555
H9_4 C20_4 1_555 1_555
C21_4 C1_4 1_555 1_555
C22_4 C1_4 1_555 1_555
H10_4 C22_4 1_555 1_555
C23_4 C18_4 1_555 1_555
H12_4 C24_4 1_555 1_555
C22_4 C23_4 1_555 1_555

#END
