
###############################################################################
#
# This file contains modified crystal structure data generated from the
# MOF subset of the Cambridge Structural Database (CSD) v543 
# hosted by the Cambridge Crystallographic Data Centre (CCDC).
#
# This work is licensed under the Creative Commons
# Attribution-NonCommercial-ShareAlike 4.0 International License.
# To view a copy of this license, visit
# http://creativecommons.org/licenses/by-nc-sa/4.0/
# or send a letter to
# Creative Commons, PO Box 1866, Mountain View, CA 94042, USA.
#
# CIF created using the CSD Python API on 29 September 2022
# The structure has been converted into the P1 space group
# The structure has a 3D framework
# The original CSD entry BEJYUN is in the rhombohedral crystal system
# The original CSD entry BEJYUN is in a Sohncke space group
# The framework has been calculated to contain at least 10.0% void space
# The void calculation uses a probe of radius 1.32A, grid spacing 0.4
# The framework is charged, counterions have been retained in the structure
#
###############################################################################

data_BEJYUN
_chemical_formula_moiety         '(C360 H252 N54 O76 Zn18)n'
_symmetry_cell_setting           triclinic
_symmetry_space_group_name_H-M   'P 1'
_symmetry_Int_Tables_number      1
_space_group_name_Hall           'P 1'
loop_
_symmetry_equiv_pos_site_id
_symmetry_equiv_pos_as_xyz
1 x,y,z
_cell_length_a                   33.3064(10)
_cell_length_b                   33.3064(10)
_cell_length_c                   9.5764(6)
_cell_angle_alpha                90
_cell_angle_beta                 90
_cell_angle_gamma                120
_cell_volume                     9200.01
loop_
_atom_site_label
_atom_site_type_symbol
_atom_site_fract_x
_atom_site_fract_y
_atom_site_fract_z
O12 O 0.5424(3) 0.3646(4) 0.0198(8)
O13 O 0.4813(3) 0.2947(4) 0.0250(7)
C2 C 0.8070(3) 0.0311(4) 0.3231(8)
C8 C 0.8156(3) 0.0199(3) 0.1756(8)
C9 C 0.8577(3) 0.0479(3) 0.1178(9)
H3 H 0.880832 0.071721 0.170276
C12 C 0.4992(8) 0.2274(5) 0.5235(15)
H6 H 0.503168 0.227873 0.427257
C13 C 0.4807(3) 0.1870(3) 0.5941(10)
C14 C 0.4718(6) 0.1896(4) 0.7323(17)
H7 H 0.458604 0.163038 0.787489
C18 C 0.4829(6) 0.2330(8) 0.7906(16)
H10 H 0.472907 0.233833 0.880629
C19 C 0.5126(7) 0.2692(9) 0.5979(13)
H11 H 0.527004 0.296326 0.545645
H13 H 0.630902 0.015252 0.473190
C23 C 0.5407(3) 0.0033(4) 0.4552(11)
H15 H 0.561084 0.011113 0.529901
C27 C 0.4754(3) 0.0034(3) 0.3476(9)
C28 C 0.5069(4) 0.0161(4) 0.4560(10)
H18 H 0.505414 0.033273 0.530238
C29 C 0.4688(3) 0.1425(3) 0.5265(9)
C30 C 0.4951(4) 0.1409(3) 0.4158(11)
H19 H 0.519695 0.168351 0.381508
C31 C 0.4853(3) 0.0990(3) 0.3561(10)
H20 H 0.503109 0.098507 0.282048
C32 C 0.4486(3) 0.0575(3) 0.4070(10)
C33 C 0.4234(3) 0.0590(3) 0.5191(11)
H21 H 0.399683 0.031532 0.555992
C34 C 0.4331(3) 0.1012(4) 0.5779(12)
H22 H 0.415331 0.101554 0.652371
H23 H 0.370755 0.016785 0.222413
N1 N 0.5077(4) 0.2736(5) 0.7199(10)
N4 N 0.4400(2) 0.0147(2) 0.3460(9)
O1 O 0.8272(2) 0.0271(3) 0.4242(7)
O2 O 0.7796(2) 0.0465(3) 0.3309(6)
Zn2 Zn 0.53481(4) 0.33393(6) 0.83078(11)
O7 O 0.5934(5) 0.3800(7) 0.7172(18)
O8 O 0.6560(5) 0.3829(8) 0.6042(16)
N6 N 0.6344(6) 0.3869(8) 0.7108(19)
O9 O 0.5771(5) 0.3079(7) 0.9395(17)
H27 H 0.593687 0.304335 0.878570
H28 H 0.594607 0.328385 0.998020
Zn4 Zn 0.76798(3) 0.07420(4) 0.49928(8)
O10 O 0.4939(2) 0.3604(3) 0.7575(7)
Zn6 Zn 0.86814(4) 0.00060(6) 0.49745(11)
C4 C 0.8327(3) 0.0065(4) 0.9011(9)
C5 C 0.8668(3) 0.0409(5) 0.9754(10)
H1 H 0.895734 0.059865 0.935656
O3 O 0.8757(3) 0.0313(4) 0.6865(8)
Zn1 Zn 0.63956(3) 0.89869(3) 0.16595(8)
C3 C 0.7336(3) 0.9527(3) 0.1625(8)
C7 C 0.7801(3) 0.9842(3) 0.0971(8)
C10 C 0.1968(4) 0.7881(6) 0.2715(13)
H4 H 0.189537 0.758140 0.295624
C11 C 0.1749(3) 0.8383(4) 0.1895(12)
H5 H 0.152365 0.843902 0.152337
C15 C 0.2195(4) 0.8756(3) 0.2131(13)
H8 H 0.225578 0.905606 0.195916
C16 C 0.2545(3) 0.8688(3) 0.2613(10)
C17 C 0.2407(4) 0.8231(3) 0.2917(13)
H9 H 0.262521 0.816109 0.327330
C20 C 0.5790(3) 0.9326(3) 0.2686(8)
H12 H 0.554763 0.912318 0.211120
C21 C 0.6211(3) 0.9899(4) 0.4142(11)
C22 C 0.6448(3) 0.9679(4) 0.3798(10)
H14 H 0.674192 0.975858 0.412166
C24 C 0.5438(3) 0.9790(3) 0.3434(8)
C25 C 0.5143(3) 0.9678(4) 0.2307(9)
H16 H 0.517405 0.952251 0.154349
C26 C 0.4801(3) 0.9797(4) 0.2323(10)
H17 H 0.460013 0.972125 0.156820
C35 C 0.3617(3) 0.9874(3) 0.2576(10)
C36 C 0.3937(3) 0.9793(3) 0.3309(9)
C37 C 0.3791(3) 0.9340(3) 0.3789(11)
H24 H 0.399644 0.927963 0.427711
C38 C 0.3345(3) 0.8988(3) 0.3537(12)
H25 H 0.326044 0.868955 0.382628
C39 C 0.3019(3) 0.9061(3) 0.2869(10)
C40 C 0.3172(3) 0.9520(3) 0.2385(10)
H26 H 0.296246 0.958000 0.192346
N2 N 0.1637(2) 0.7946(4) 0.2188(8)
N3 N 0.6182(2) 0.9318(2) 0.2884(7)
N5 N 0.5795(2) 0.9668(2) 0.3438(7)
O5 O 0.6991(2) 0.9346(2) 0.0764(7)
O6 O 0.7294(2) 0.9445(2) 0.2832(6)
Zn3 Zn 0.10131(3) 0.74087(4) 0.16595(8)
N7 N 0.6309(4) 0.8363(2) 0.2188(8)
C1 C 0.8412(3) 0.9988(4) 0.7533(9)
C6 C 0.7892(3) 0.9773(3) 0.9616(8)
H2 H 0.766350 0.952989 0.909692
O4 O 0.8146(3) 0.9614(4) 0.6917(7)
O11 O 0.6002(4) 0.8871(2) 0.9976(6)
C3_2 C 0.0473(3) 0.7809(4) 0.1625(8)
C7_2 C 0.0158(3) 0.7959(4) 0.0971(8)
C10_2 C 0.2119(6) 0.4087(7) 0.2715(13)
H4_2 H 0.241860 0.431397 0.295624
C11_2 C 0.1617(4) 0.3366(5) 0.1895(12)
H5_2 H 0.156098 0.308463 0.152337
C15_2 C 0.1244(3) 0.3439(5) 0.2131(13)
H8_2 H 0.094394 0.319972 0.195916
C16_2 C 0.1312(3) 0.3857(4) 0.2613(10)
C17_2 C 0.1769(3) 0.4176(5) 0.2917(13)
H9_2 H 0.183891 0.446412 0.327330
C20_2 C 0.0674(3) 0.6464(4) 0.2686(8)
H12_2 H 0.087682 0.642445 0.211120
C21_2 C 0.0101(4) 0.6312(5) 0.4142(11)
C22_2 C 0.0321(4) 0.6769(5) 0.3798(10)
H14_2 H 0.024142 0.698334 0.412166
C24_2 C 0.0210(3) 0.5648(4) 0.3434(8)
C25_2 C 0.0322(4) 0.5465(5) 0.2307(9)
H16_2 H 0.047749 0.565154 0.154349
C26_2 C 0.0203(4) 0.5004(5) 0.2323(10)
H17_2 H 0.027875 0.487888 0.156820
C35_2 C 0.0126(3) 0.3743(4) 0.2576(10)
C36_2 C 0.0207(3) 0.4144(4) 0.3309(9)
C37_2 C 0.0660(3) 0.4451(4) 0.3789(11)
H24_2 H 0.072037 0.471681 0.427711
C38_2 C 0.1012(3) 0.4357(4) 0.3537(12)
H25_2 H 0.131045 0.457089 0.382628
C39_2 C 0.0939(3) 0.3958(4) 0.2869(10)
C40_2 C 0.0480(3) 0.3652(4) 0.2385(10)
H26_2 H 0.042000 0.338246 0.192346
N2_2 N 0.2054(4) 0.3691(4) 0.2188(8)
N3_2 N 0.0682(2) 0.6864(3) 0.2884(7)
N5_2 N 0.0332(2) 0.6127(3) 0.3438(7)
O5_2 O 0.0654(2) 0.7645(3) 0.0764(7)
O6_2 O 0.0555(2) 0.7849(3) 0.2832(6)
Zn3_2 Zn 0.25913(4) 0.36044(5) 0.16595(8)
C1_2 C 0.0012(4) 0.8424(5) 0.7533(9)
C6_2 C 0.0227(3) 0.8119(4) 0.9616(8)
H2_2 H 0.047011 0.813361 0.909692
O4_2 O 0.0386(4) 0.8532(5) 0.6917(7)
O11_2 O 0.1129(2) 0.7132(4) 0.9976(6)
O12_2 O 0.6354(4) 0.1777(5) 0.0198(8)
O13_2 O 0.7053(4) 0.1865(5) 0.0250(7)
C2_2 C 0.9689(4) 0.7759(5) 0.3231(8)
C8_2 C 0.9801(3) 0.7957(4) 0.1756(8)
C9_2 C 0.9521(3) 0.8098(4) 0.1178(9)
H3_2 H 0.928279 0.809111 0.170276
C12_2 C 0.7726(5) 0.2718(9) 0.5235(15)
H6_2 H 0.772127 0.275295 0.427257
C13_2 C 0.8130(3) 0.2937(4) 0.5941(10)
C14_2 C 0.8104(4) 0.2822(7) 0.7323(17)
H7_2 H 0.836962 0.295566 0.787489
C18_2 C 0.7670(8) 0.2499(10) 0.7906(16)
H10_2 H 0.766167 0.239074 0.880629
C19_2 C 0.7308(9) 0.2434(11) 0.5979(13)
H11_2 H 0.703674 0.230678 0.545645
H13_2 H 0.984748 0.615650 0.473190
C23_2 C 0.9967(4) 0.5374(5) 0.4552(11)
H15_2 H 0.988887 0.549971 0.529901
C27_2 C 0.9966(3) 0.4720(4) 0.3476(9)
C28_2 C 0.9839(4) 0.4908(6) 0.4560(10)
H18_2 H 0.966727 0.472141 0.530238
C29_2 C 0.8575(3) 0.3263(4) 0.5265(9)
C30_2 C 0.8591(3) 0.3542(5) 0.4158(11)
H19_2 H 0.831649 0.351344 0.381508
C31_2 C 0.9010(3) 0.3863(4) 0.3561(10)
H20_2 H 0.901493 0.404602 0.282048
C32_2 C 0.9425(3) 0.3911(4) 0.4070(10)
C33_2 C 0.9410(3) 0.3644(4) 0.5191(11)
H21_2 H 0.968468 0.368151 0.555992
C34_2 C 0.8988(4) 0.3319(5) 0.5779(12)
H22_2 H 0.898446 0.313777 0.652371
H23_2 H 0.983215 0.353970 0.222413
N1_2 N 0.7264(5) 0.2341(6) 0.7199(10)
N4_2 N 0.9853(2) 0.4253(3) 0.3460(9)
O1_2 O 0.9729(3) 0.8001(4) 0.4242(7)
O2_2 O 0.9535(3) 0.7331(4) 0.3309(6)
Zn2_2 Zn 0.66607(6) 0.20088(7) 0.83078(11)
O7_2 O 0.6200(7) 0.2134(9) 0.7172(18)
O8_2 O 0.6171(8) 0.2731(9) 0.6042(16)
N6_2 N 0.6131(8) 0.2475(10) 0.7108(19)
O9_2 O 0.6921(7) 0.2692(9) 0.9395(17)
H27_2 H 0.695665 0.289352 0.878570
H28_2 H 0.671615 0.266222 0.998020
Zn4_2 Zn 0.92580(4) 0.69377(5) 0.49928(8)
O10_2 O 0.6396(3) 0.1334(4) 0.7575(7)
Zn6_2 Zn 0.99940(6) 0.86755(7) 0.49745(11)
C4_2 C 0.9935(4) 0.8262(5) 0.9011(9)
C5_2 C 0.9591(5) 0.8259(6) 0.9754(10)
H1_2 H 0.940135 0.835869 0.935656
O3_2 O 0.9687(4) 0.8444(5) 0.6865(8)
O12_3 O 0.8223(5) 0.4576(3) 0.0198(8)
O13_3 O 0.8135(5) 0.5187(3) 0.0250(7)
C2_3 C 0.2241(5) 0.1930(3) 0.3231(8)
C3_3 C 0.2191(4) 0.2664(3) 0.1625(8)
C7_3 C 0.2041(4) 0.2199(3) 0.0971(8)
C8_3 C 0.2043(4) 0.1844(3) 0.1756(8)
C9_3 C 0.1902(4) 0.1423(3) 0.1178(9)
H3_3 H 0.190889 0.119168 0.170276
C10_3 C 0.5913(7) 0.8032(4) 0.2715(13)
H4_3 H 0.568603 0.810463 0.295624
C11_3 C 0.6634(5) 0.8251(3) 0.1895(12)
H5_3 H 0.691537 0.847635 0.152337
C12_3 C 0.7282(9) 0.5008(8) 0.5235(15)
H6_3 H 0.724705 0.496832 0.427257
C13_3 C 0.7063(4) 0.5193(3) 0.5941(10)
C14_3 C 0.7178(7) 0.5282(6) 0.7323(17)
H7_3 H 0.704434 0.541396 0.787489
C15_3 C 0.6561(5) 0.7805(4) 0.2131(13)
H8_3 H 0.680028 0.774422 0.195916
C16_3 C 0.6143(4) 0.7455(3) 0.2613(10)
C17_3 C 0.5824(5) 0.7593(4) 0.2917(13)
H9_3 H 0.553588 0.737479 0.327330
C18_3 C 0.7501(10) 0.5171(6) 0.7906(16)
H10_3 H 0.760926 0.527093 0.880629
C19_3 C 0.7566(11) 0.4874(7) 0.5979(13)
H11_3 H 0.769322 0.472996 0.545645
C20_3 C 0.3536(4) 0.4210(3) 0.2686(8)
H12_3 H 0.357555 0.445237 0.211120
C21_3 C 0.3688(5) 0.3789(3) 0.4142(11)
H13_3 H 0.384350 0.369098 0.473190
C22_3 C 0.3231(5) 0.3552(3) 0.3798(10)
H14_3 H 0.301666 0.325808 0.412166
C23_3 C 0.4626(5) 0.4593(3) 0.4552(11)
H15_3 H 0.450029 0.438916 0.529901
C24_3 C 0.4352(4) 0.4562(3) 0.3434(8)
C25_3 C 0.4535(5) 0.4857(3) 0.2307(9)
H16_3 H 0.434846 0.482595 0.154349
C26_3 C 0.4996(5) 0.5199(3) 0.2323(10)
H17_3 H 0.512112 0.539987 0.156820
C27_3 C 0.5280(4) 0.5246(3) 0.3476(9)
C28_3 C 0.5092(6) 0.4931(4) 0.4560(10)
H18_3 H 0.527859 0.494586 0.530238
C29_3 C 0.6737(4) 0.5312(3) 0.5265(9)
C30_3 C 0.6458(5) 0.5049(4) 0.4158(11)
H19_3 H 0.648656 0.480305 0.381508
C31_3 C 0.6137(4) 0.5147(3) 0.3561(10)
H20_3 H 0.595398 0.496891 0.282048
C32_3 C 0.6089(4) 0.5514(3) 0.4070(10)
C33_3 C 0.6356(4) 0.5766(3) 0.5191(11)
H21_3 H 0.631849 0.600317 0.555992
C34_3 C 0.6681(5) 0.5669(3) 0.5779(12)
H22_3 H 0.686223 0.584669 0.652371
C35_3 C 0.6257(4) 0.6383(3) 0.2576(10)
H23_3 H 0.646030 0.629245 0.222413
C36_3 C 0.5856(4) 0.6063(3) 0.3309(9)
C37_3 C 0.5549(4) 0.6209(3) 0.3789(11)
H24_3 H 0.528319 0.600356 0.427711
C38_3 C 0.5643(4) 0.6655(3) 0.3537(12)
H25_3 H 0.542911 0.673956 0.382628
C39_3 C 0.6042(4) 0.6981(3) 0.2869(10)
C40_3 C 0.6348(4) 0.6828(3) 0.2385(10)
H26_3 H 0.661754 0.703754 0.192346
N1_3 N 0.7659(6) 0.4923(4) 0.7199(10)
N3_3 N 0.3136(3) 0.3818(2) 0.2884(7)
N4_3 N 0.5747(3) 0.5600(2) 0.3460(9)
N5_3 N 0.3873(3) 0.4205(2) 0.3438(7)
O1_3 O 0.1999(4) 0.1728(2) 0.4242(7)
O2_3 O 0.2669(4) 0.2204(2) 0.3309(6)
O5_3 O 0.2355(3) 0.3009(2) 0.0764(7)
O6_3 O 0.2151(3) 0.2706(2) 0.2832(6)
Zn2_3 Zn 0.79912(7) 0.46519(4) 0.83078(11)
O7_3 O 0.7866(9) 0.4066(5) 0.7172(18)
O8_3 O 0.7269(9) 0.3440(5) 0.6042(16)
N6_3 N 0.7525(10) 0.3656(6) 0.7108(19)
O9_3 O 0.7308(9) 0.4229(5) 0.9395(17)
H27_3 H 0.710648 0.406313 0.878570
H28_3 H 0.733778 0.405393 0.998020
Zn4_3 Zn 0.30623(5) 0.23202(3) 0.49928(8)
O10_3 O 0.8666(4) 0.5061(2) 0.7575(7)
Zn6_3 Zn 0.13245(7) 0.13186(4) 0.49745(11)
C1_3 C 0.1576(5) 0.1588(3) 0.7533(9)
C4_3 C 0.1738(5) 0.1673(3) 0.9011(9)
C5_3 C 0.1741(6) 0.1332(3) 0.9754(10)
H1_3 H 0.164131 0.104266 0.935656
C6_3 C 0.1881(4) 0.2108(3) 0.9616(8)
H2_3 H 0.186639 0.233650 0.909692
O3_3 O 0.1556(5) 0.1243(3) 0.6865(8)
O4_3 O 0.1468(5) 0.1854(3) 0.6917(7)
O11_3 O 0.2868(4) 0.3998(4) 0.9976(6)
C14_4 C 0.1385(6) 0.5229(4) 0.0656(17)
H7_4 H 0.125271 0.496371 0.120822
C18_4 C 0.1496(6) 0.5663(8) 0.1239(16)
H10_4 H 0.139574 0.567166 0.213962
N1_4 N 0.1744(4) 0.6069(5) 0.0532(10)
Zn2_4 Zn 0.20148(4) 0.66726(6) 0.16411(11)
O7_4 O 0.2601(5) 0.7133(7) 0.0505(18)
N6_4 N 0.3011(6) 0.7202(8) 0.0441(19)
O9_4 O 0.2438(5) 0.6412(7) 0.2728(17)
H27_4 H 0.260354 0.637668 0.211903
H28_4 H 0.261274 0.661718 0.331353
O10_4 O 0.1605(2) 0.6938(3) 0.0909(7)
O12_4 O 0.2090(3) 0.6980(4) 0.3532(8)
O13_4 O 0.1479(3) 0.6281(4) 0.3584(7)
C1_4 C 0.5079(3) 0.3321(4) 0.0866(9)
C2_4 C 0.4737(3) 0.3644(4) 0.6564(8)
C3_4 C 0.4003(3) 0.2860(3) 0.4958(8)
C4_4 C 0.4994(3) 0.3398(4) 0.2344(9)
C5_4 C 0.5335(3) 0.3742(5) 0.3087(10)
H1_4 H 0.562401 0.393198 0.268989
C6_4 C 0.4559(3) 0.3106(3) 0.2949(8)
H2_4 H 0.433017 0.286322 0.243025
C7_4 C 0.4468(3) 0.3175(3) 0.4304(8)
C8_4 C 0.4823(3) 0.3532(3) 0.5089(8)
C9_4 C 0.5244(3) 0.3812(3) 0.4511(9)
H3_4 H 0.547499 0.405054 0.503609
C12_4 C 0.1659(8) 0.5607(5) 0.8568(15)
H6_4 H 0.169835 0.561206 0.760590
C13_4 C 0.1474(3) 0.5203(3) 0.9274(10)
C19_4 C 0.1793(7) 0.6025(9) 0.9312(13)
H11_4 H 0.193671 0.629659 0.878978
C20_4 C 0.2457(3) 0.2659(3) 0.6019(8)
H12_4 H 0.221430 0.245651 0.544453
C21_4 C 0.2878(3) 0.3232(4) 0.7475(11)
H13_4 H 0.297569 0.348585 0.806523
C22_4 C 0.3115(3) 0.3012(4) 0.7131(10)
H14_4 H 0.340859 0.309191 0.745499
C23_4 C 0.2074(3) 0.3366(4) 0.7885(11)
H15_4 H 0.227751 0.344446 0.863234
C24_4 C 0.2105(3) 0.3123(3) 0.6767(8)
C25_4 C 0.1810(3) 0.3011(4) 0.5640(9)
H16_4 H 0.184072 0.285584 0.487682
C26_4 C 0.1468(3) 0.3130(4) 0.5656(10)
H17_4 H 0.126680 0.305458 0.490153
C27_4 C 0.1421(3) 0.3367(3) 0.6809(9)
C28_4 C 0.1736(4) 0.3494(4) 0.7893(10)
H18_4 H 0.172081 0.366606 0.863571
C29_4 C 0.1355(3) 0.4758(3) 0.8598(9)
C30_4 C 0.1618(4) 0.4742(3) 0.7491(11)
H19_4 H 0.186362 0.501684 0.714841
C31_4 C 0.1520(3) 0.4323(3) 0.6894(10)
H20_4 H 0.169776 0.431840 0.615381
C32_4 C 0.1153(3) 0.3908(3) 0.7403(10)
C33_4 C 0.0901(3) 0.3923(3) 0.8524(11)
H21_4 H 0.066350 0.364865 0.889325
C34_4 C 0.0998(3) 0.4345(4) 0.9112(12)
H22_4 H 0.081998 0.434887 0.985704
C35_4 C 0.0284(3) 0.3207(3) 0.5909(10)
H23_4 H 0.037422 0.350118 0.555746
C36_4 C 0.0604(3) 0.3126(3) 0.6642(9)
C37_4 C 0.0458(3) 0.2673(3) 0.7122(11)
H24_4 H 0.066311 0.261296 0.761044
C38_4 C 0.0012(3) 0.2321(3) 0.6870(12)
N3_4 N 0.2849(2) 0.2651(2) 0.6217(7)
N4_4 N 0.1067(2) 0.3480(2) 0.6793(9)
N5_4 N 0.2462(2) 0.3001(2) 0.6771(7)
O2_4 O 0.4463(2) 0.3798(3) 0.6642(6)
O5_4 O 0.3658(2) 0.2679(2) 0.4097(7)
O6_4 O 0.3961(2) 0.2778(2) 0.6165(6)
O8_4 O 0.3227(5) 0.7162(8) 0.9375(16)
Zn4_4 Zn 0.43464(3) 0.40754(4) 0.83262(8)
N7_2 N 0.2976(4) 0.1696(2) 0.5521(8)
C10_4 C 0.8635(4) 0.1214(6) 0.6048(13)
H4_4 H 0.856204 0.091473 0.628957
C11_4 C 0.8416(3) 0.1716(4) 0.5228(12)
H5_4 H 0.819032 0.177235 0.485670
C15_4 C 0.8862(4) 0.2089(3) 0.5464(13)
H8_4 H 0.892245 0.238939 0.529249
C16_4 C 0.9212(3) 0.2021(3) 0.5946(10)
C17_4 C 0.9074(4) 0.1564(3) 0.6250(13)
H9_4 H 0.929188 0.149442 0.660663
H25_4 H 0.992711 0.202288 0.715961
C39_4 C 0.9686(3) 0.2394(3) 0.6202(10)
C40_4 C 0.9839(3) 0.2853(3) 0.5718(10)
H26_4 H 0.962913 0.291333 0.525679
N2_3 N 0.8304(2) 0.1279(4) 0.5521(8)
C1_5 C 0.6679(4) 0.1757(5) 0.0866(9)
C2_5 C 0.6356(4) 0.1092(5) 0.6564(8)
C3_5 C 0.7140(3) 0.1142(4) 0.4958(8)
C4_5 C 0.6602(4) 0.1595(5) 0.2344(9)
C5_5 C 0.6258(5) 0.1592(6) 0.3087(10)
H1_5 H 0.606802 0.169202 0.268989
C6_5 C 0.6894(3) 0.1452(4) 0.2949(8)
H2_5 H 0.713678 0.146694 0.243025
C7_5 C 0.6825(3) 0.1292(4) 0.4304(8)
C8_5 C 0.6468(3) 0.1290(4) 0.5089(8)
C9_5 C 0.6188(3) 0.1431(4) 0.4511(9)
H3_5 H 0.594946 0.142444 0.503609
C22_5 C 0.6988(4) 0.0102(5) 0.7131(10)
H14_5 H 0.690809 0.031667 0.745499
N3_5 N 0.7349(2) 0.0197(3) 0.6217(7)
O2_5 O 0.6202(3) 0.0664(4) 0.6642(6)
O5_5 O 0.7321(2) 0.0978(3) 0.4097(7)
O6_5 O 0.7222(2) 0.1182(3) 0.6165(6)
Zn4_5 Zn 0.59246(4) 0.02711(5) 0.83262(8)
C14_5 C 0.4771(4) 0.6155(7) 0.0656(17)
H7_5 H 0.503629 0.628899 0.120822
C18_5 C 0.4337(8) 0.5832(10) 0.1239(16)
H10_5 H 0.432834 0.572407 0.213962
N1_5 N 0.3931(5) 0.5674(6) 0.0532(10)
Zn2_5 Zn 0.33274(6) 0.53421(7) 0.16411(11)
O7_5 O 0.2867(7) 0.5467(9) 0.0505(18)
N6_5 N 0.2798(8) 0.5808(10) 0.0441(19)
O9_5 O 0.3588(7) 0.6025(9) 0.2728(17)
H27_5 H 0.362332 0.622685 0.211903
H28_5 H 0.338282 0.599555 0.331353
O10_5 O 0.3062(3) 0.4668(4) 0.0909(7)
O12_5 O 0.3020(4) 0.5111(5) 0.3532(8)
O13_5 O 0.3719(4) 0.5199(5) 0.3584(7)
C10_5 C 0.8786(6) 0.7420(7) 0.6048(13)
H4_5 H 0.908527 0.764730 0.628957
C11_5 C 0.8284(4) 0.6699(5) 0.5228(12)
H5_5 H 0.822765 0.641796 0.485670
C12_5 C 0.4393(5) 0.6051(9) 0.8568(15)
H6_5 H 0.438794 0.608628 0.760590
C13_5 C 0.4797(3) 0.6270(4) 0.9274(10)
C15_5 C 0.7911(3) 0.6772(5) 0.5464(13)
H8_5 H 0.761061 0.653305 0.529249
C16_5 C 0.7979(3) 0.7190(4) 0.5946(10)
C17_5 C 0.8436(3) 0.7509(5) 0.6250(13)
H9_5 H 0.850558 0.779745 0.660663
C19_5 C 0.3975(9) 0.5767(11) 0.9312(13)
H11_5 H 0.370341 0.564011 0.878978
C20_5 C 0.7341(3) 0.9797(4) 0.6019(8)
H12_5 H 0.754349 0.975778 0.544453
C21_5 C 0.6768(4) 0.9645(5) 0.7475(11)
H13_5 H 0.651415 0.948983 0.806523
C23_5 C 0.6634(4) 0.8707(5) 0.7885(11)
H15_5 H 0.655554 0.883304 0.863234
C24_5 C 0.6877(3) 0.8981(4) 0.6767(8)
C25_5 C 0.6989(4) 0.8798(5) 0.5640(9)
H16_5 H 0.714416 0.898487 0.487682
C26_5 C 0.6870(4) 0.8337(5) 0.5656(10)
H17_5 H 0.694542 0.821221 0.490153
C27_5 C 0.6633(3) 0.8053(4) 0.6809(9)
C28_5 C 0.6506(4) 0.8241(6) 0.7893(10)
H18_5 H 0.633394 0.805474 0.863571
C29_5 C 0.5242(3) 0.6596(4) 0.8598(9)
C30_5 C 0.5258(3) 0.6875(5) 0.7491(11)
H19_5 H 0.498316 0.684677 0.714841
C31_5 C 0.5677(3) 0.7196(4) 0.6894(10)
H20_5 H 0.568160 0.737935 0.615381
C32_5 C 0.6092(3) 0.7244(4) 0.7403(10)
C33_5 C 0.6077(3) 0.6977(4) 0.8524(11)
H21_5 H 0.635135 0.701484 0.889325
C34_5 C 0.5655(4) 0.6652(5) 0.9112(12)
H22_5 H 0.565113 0.647110 0.985704
C35_5 C 0.6793(3) 0.7076(4) 0.5909(10)
H23_5 H 0.649882 0.687303 0.555746
C36_5 C 0.6874(3) 0.7477(4) 0.6642(9)
C37_5 C 0.7327(3) 0.7784(4) 0.7122(11)
H24_5 H 0.738704 0.805014 0.761044
C38_5 C 0.7679(3) 0.7690(4) 0.6870(12)
H25_5 H 0.797712 0.790422 0.715961
C39_5 C 0.7606(3) 0.7291(4) 0.6202(10)
C40_5 C 0.7147(3) 0.6985(4) 0.5718(10)
H26_5 H 0.708667 0.671579 0.525679
N2_4 N 0.8721(4) 0.7024(4) 0.5521(8)
N4_5 N 0.6520(2) 0.7586(3) 0.6793(9)
N5_5 N 0.6999(2) 0.9460(3) 0.6771(7)
O8_5 O 0.2838(8) 0.6064(9) 0.9375(16)
C10_6 C 0.2580(7) 0.1365(4) 0.6048(13)
H4_6 H 0.235270 0.143796 0.628957
C11_6 C 0.3301(5) 0.1584(3) 0.5228(12)
H5_6 H 0.358204 0.180968 0.485670
C15_6 C 0.3228(5) 0.1138(4) 0.5464(13)
H8_6 H 0.346695 0.107755 0.529249
C16_6 C 0.2810(4) 0.0788(3) 0.5946(10)
C17_6 C 0.2491(5) 0.0926(4) 0.6250(13)
H9_6 H 0.220255 0.070812 0.660663
H25_6 H 0.209578 0.007289 0.715961
C39_6 C 0.2709(4) 0.0314(3) 0.6202(10)
C40_6 C 0.3015(4) 0.0161(3) 0.5718(10)
H26_6 H 0.328421 0.037087 0.525679
C14_6 C 0.3845(7) 0.8615(6) 0.0656(17)
H7_6 H 0.371101 0.874729 0.120822
C18_6 C 0.4168(10) 0.8504(6) 0.1239(16)
H10_6 H 0.427593 0.860426 0.213962
N1_6 N 0.4326(6) 0.8256(4) 0.0532(10)
Zn2_6 Zn 0.46579(7) 0.79852(4) 0.16411(11)
O7_6 O 0.4533(9) 0.7399(5) 0.0505(18)
N6_6 N 0.4192(10) 0.6989(6) 0.0441(19)
O9_6 O 0.3975(9) 0.7562(5) 0.2728(17)
H27_6 H 0.377315 0.739646 0.211903
H28_6 H 0.400445 0.738726 0.331353
O10_6 O 0.5332(4) 0.8395(2) 0.0909(7)
O12_6 O 0.4889(5) 0.7910(3) 0.3532(8)
O13_6 O 0.4801(5) 0.8521(3) 0.3584(7)
C1_6 C 0.8243(5) 0.4921(3) 0.0866(9)
C2_6 C 0.8908(5) 0.5263(3) 0.6564(8)
C3_6 C 0.8858(4) 0.5997(3) 0.4958(8)
C4_6 C 0.8405(5) 0.5006(3) 0.2344(9)
C5_6 C 0.8408(6) 0.4665(3) 0.3087(10)
H1_6 H 0.830798 0.437599 0.268989
C6_6 C 0.8548(4) 0.5441(3) 0.2949(8)
H2_6 H 0.853306 0.566983 0.243025
C7_6 C 0.8708(4) 0.5532(3) 0.4304(8)
C8_6 C 0.8710(4) 0.5177(3) 0.5089(8)
C9_6 C 0.8569(4) 0.4756(3) 0.4511(9)
H3_6 H 0.857556 0.452501 0.503609
C22_6 C 0.9898(5) 0.6885(3) 0.7131(10)
H14_6 H 0.968333 0.659141 0.745499
N3_6 N 0.9803(3) 0.7151(2) 0.6217(7)
O2_6 O 0.9336(4) 0.5537(2) 0.6642(6)
O5_6 O 0.9022(3) 0.6342(2) 0.4097(7)
O6_6 O 0.8818(3) 0.6039(2) 0.6165(6)
Zn4_6 Zn 0.97289(5) 0.56536(3) 0.83262(8)
H14_7 H 0.007525 0.642525 0.078833
C1_7 C 0.1745(3) 0.6655(4) 0.4200(9)
C2_7 C 0.1403(3) 0.6978(4) 0.9898(8)
C3_7 C 0.0669(3) 0.6194(3) 0.8292(8)
C4_7 C 0.1660(3) 0.6732(4) 0.5678(9)
C5_7 C 0.2001(3) 0.7076(5) 0.6421(10)
H1_7 H 0.229067 0.726532 0.602323
C6_7 C 0.1225(3) 0.6440(3) 0.6283(8)
H2_7 H 0.099683 0.619656 0.576359
C7_7 C 0.1134(3) 0.6509(3) 0.7638(8)
C8_7 C 0.1489(3) 0.6866(3) 0.8423(8)
C9_7 C 0.1910(3) 0.7146(3) 0.7845(9)
H3_7 H 0.214165 0.738388 0.836943
O5_7 O 0.0324(2) 0.6013(2) 0.7431(7)
O6_7 O 0.0627(2) 0.6112(2) 0.9499(6)
O7_7 O 0.9267(5) 0.0467(7) 0.3839(18)
O8_6 O 0.9893(5) 0.0496(8) 0.2709(16)
N6_7 N 0.9677(6) 0.0536(8) 0.3775(19)
C12_6 C 0.8325(8) 0.8941(5) 0.1902(15)
H6_6 H 0.836501 0.894540 0.093924
C13_6 C 0.8140(3) 0.8537(3) 0.2608(10)
C14_7 C 0.8051(6) 0.8563(4) 0.3990(17)
H7_7 H 0.791937 0.829705 0.454156
C18_7 C 0.8162(6) 0.8997(8) 0.4573(16)
H10_7 H 0.806240 0.900500 0.547296
C19_6 C 0.8459(7) 0.9359(9) 0.2646(13)
H11_6 H 0.860337 0.962993 0.212312
C21_6 C 0.9544(3) 0.6566(4) 0.0809(11)
H13_6 H 0.964235 0.681919 0.139857
C22_7 C 0.9781(3) 0.6346(4) 0.0465(10)
C23_6 C 0.8740(3) 0.6700(4) 0.1219(11)
H15_6 H 0.894417 0.677780 0.196568
C24_6 C 0.8771(3) 0.6457(3) 0.0101(8)
C27_6 C 0.8087(3) 0.6701(3) 0.0143(9)
C28_6 C 0.8402(4) 0.6828(4) 0.1227(10)
H18_6 H 0.838747 0.699940 0.196905
C29_6 C 0.8021(3) 0.8092(3) 0.1932(9)
C30_6 C 0.8284(4) 0.8076(3) 0.0825(11)
H19_6 H 0.853028 0.835018 0.048175
C31_6 C 0.8186(3) 0.7657(3) 0.0228(10)
C32_6 C 0.7819(3) 0.7242(3) 0.0737(10)
C33_6 C 0.7567(3) 0.7257(3) 0.1858(11)
H21_6 H 0.733016 0.698199 0.222659
C34_6 C 0.7664(3) 0.7679(4) 0.2446(12)
H22_6 H 0.748664 0.768221 0.319038
C37_6 C 0.7124(3) 0.6007(3) 0.0456(11)
H24_6 H 0.732977 0.594630 0.094378
C38_6 C 0.6678(3) 0.5655(3) 0.0204(12)
H25_7 H 0.659377 0.535622 0.049295
N1_7 N 0.8410(4) 0.9403(5) 0.3866(10)
N4_6 N 0.7733(2) 0.6814(2) 0.0127(9)
N5_6 N 0.9128(2) 0.6335(2) 0.0105(7)
O9_7 O 0.9104(5) 0.9746(7) 0.6062(17)
H27_7 H 0.927020 0.971002 0.545237
H28_7 H 0.927940 0.995052 0.664687
C10_7 C 0.5301(4) 0.4548(6) 0.9382(13)
H4_7 H 0.522870 0.424807 0.962291
C11_7 C 0.5082(3) 0.5050(4) 0.8562(12)
H5_7 H 0.485698 0.510569 0.819004
C15_7 C 0.5528(4) 0.5423(3) 0.8798(13)
H8_7 H 0.558911 0.572273 0.862583
C16_7 C 0.5878(3) 0.5355(3) 0.9280(10)
C17_7 C 0.5740(4) 0.4898(3) 0.9584(13)
H9_7 H 0.595854 0.482776 0.993997
C20_6 C 0.9123(3) 0.5993(3) 0.9353(8)
H12_6 H 0.888096 0.578985 0.877787
C25_6 C 0.8476(3) 0.6345(4) 0.8974(9)
H16_6 H 0.850738 0.618918 0.821016
C26_6 C 0.8134(3) 0.6464(4) 0.8990(10)
H17_6 H 0.793346 0.638792 0.823487
H20_6 H 0.836442 0.765174 0.948715
C35_6 C 0.6950(3) 0.6541(3) 0.9243(10)
H23_6 H 0.704088 0.683452 0.889080
C36_6 C 0.7270(3) 0.6460(3) 0.9976(9)
C39_7 C 0.6352(3) 0.5728(3) 0.9536(10)
C40_7 C 0.6505(3) 0.6187(3) 0.9052(10)
H26_7 H 0.629579 0.624667 0.859013
N2_5 N 0.4970(2) 0.4613(4) 0.8855(8)
N3_7 N 0.9515(2) 0.5985(2) 0.9551(7)
N7_3 N 0.9642(4) 0.5030(2) 0.8855(8)
C21_7 C 0.3434(4) 0.2979(5) 0.0809(11)
H13_7 H 0.318081 0.282317 0.139857
C22_8 C 0.3654(4) 0.3436(5) 0.0465(10)
H14_8 H 0.357475 0.365001 0.078833
C23_7 C 0.3300(4) 0.2041(5) 0.1219(11)
H15_7 H 0.322220 0.216638 0.196568
C24_7 C 0.3543(3) 0.2315(4) 0.0101(8)
C27_7 C 0.3299(3) 0.1387(4) 0.0143(9)
C28_7 C 0.3172(4) 0.1575(6) 0.1227(10)
H18_7 H 0.300060 0.138808 0.196905
C30_7 C 0.1924(3) 0.0209(5) 0.0825(11)
H19_7 H 0.164982 0.018011 0.048175
C31_7 C 0.2343(3) 0.0530(4) 0.0228(10)
C32_7 C 0.2758(3) 0.0578(4) 0.0737(10)
C33_7 C 0.2743(3) 0.0311(4) 0.1858(11)
H21_7 H 0.301801 0.034818 0.222659
C37_7 C 0.3993(3) 0.1118(4) 0.0456(11)
H24_7 H 0.405370 0.138348 0.094378
C38_7 C 0.4345(3) 0.1024(4) 0.0204(12)
H25_8 H 0.464378 0.123756 0.049295
N4_7 N 0.3186(2) 0.0920(3) 0.0127(9)
N5_7 N 0.3665(2) 0.2794(3) 0.0105(7)
C1_8 C 0.3345(4) 0.5091(5) 0.4200(9)
C2_8 C 0.3022(4) 0.4426(5) 0.9898(8)
C3_8 C 0.3806(3) 0.4476(4) 0.8292(8)
C4_8 C 0.3268(4) 0.4929(5) 0.5678(9)
C5_8 C 0.2924(5) 0.4926(6) 0.6421(10)
H1_8 H 0.273468 0.502536 0.602323
C6_8 C 0.3560(3) 0.4786(4) 0.6283(8)
H2_8 H 0.380344 0.480028 0.576359
C7_8 C 0.3491(3) 0.4626(4) 0.7638(8)
C8_8 C 0.3134(3) 0.4624(4) 0.8423(8)
C9_8 C 0.2854(3) 0.4765(4) 0.7845(9)
H3_8 H 0.261612 0.475778 0.836943
C10_8 C 0.5452(6) 0.0754(7) 0.9382(13)
H4_8 H 0.575193 0.098064 0.962291
C11_8 C 0.4950(4) 0.0033(5) 0.8562(12)
C15_8 C 0.4577(3) 0.0106(5) 0.8798(13)
C16_8 C 0.4645(3) 0.0524(4) 0.9280(10)
C17_8 C 0.5102(3) 0.0843(5) 0.9584(13)
H9_8 H 0.517224 0.113079 0.993997
C20_7 C 0.4007(3) 0.3131(4) 0.9353(8)
H12_7 H 0.421015 0.309112 0.877787
C25_7 C 0.3655(4) 0.2132(5) 0.8974(9)
H16_7 H 0.381082 0.231821 0.821016
C26_7 C 0.3536(4) 0.1671(5) 0.8990(10)
H17_7 H 0.361208 0.154555 0.823487
H20_7 H 0.234826 0.071269 0.948715
C35_7 C 0.3459(3) 0.0410(4) 0.9243(10)
H23_7 H 0.316548 0.020637 0.889080
C36_7 C 0.3540(3) 0.0811(4) 0.9976(9)
C39_8 C 0.4272(3) 0.0625(4) 0.9536(10)
C40_8 C 0.3813(3) 0.0319(4) 0.9052(10)
H26_8 H 0.375333 0.004913 0.859013
N2_6 N 0.5387(4) 0.0358(4) 0.8855(8)
N3_8 N 0.4015(2) 0.3531(3) 0.9551(7)
O5_8 O 0.3987(2) 0.4312(3) 0.7431(7)
O6_8 O 0.3888(2) 0.4516(3) 0.9499(6)
C12_7 C 0.1059(5) 0.9385(9) 0.1902(15)
H6_7 H 0.105460 0.941962 0.093924
C13_7 C 0.1463(3) 0.9604(4) 0.2608(10)
C14_8 C 0.1437(4) 0.9489(7) 0.3990(17)
H7_8 H 0.170295 0.962233 0.454156
C18_8 C 0.1003(8) 0.9166(10) 0.4573(16)
H10_8 H 0.099500 0.905741 0.547296
C19_7 C 0.0641(9) 0.9101(11) 0.2646(13)
H11_7 H 0.037007 0.897345 0.212312
C29_7 C 0.1908(3) 0.9930(4) 0.1932(9)
C34_7 C 0.2321(4) 0.9986(5) 0.2446(12)
H22_7 H 0.231779 0.980444 0.319038
N1_8 N 0.0597(5) 0.9008(6) 0.3866(10)
O9_8 O 0.0254(7) 0.9359(9) 0.6062(17)
H27_8 H 0.028998 0.956019 0.545237
H28_8 H 0.004948 0.932889 0.664687
O7_8 O 0.9533(7) 0.8801(9) 0.3839(18)
O8_7 O 0.9504(8) 0.9398(9) 0.2709(16)
N6_8 N 0.9464(8) 0.9142(10) 0.3775(19)
C12_8 C 0.0615(9) 0.1675(8) 0.1902(15)
H6_8 H 0.058038 0.163499 0.093924
C13_8 C 0.0396(4) 0.1860(3) 0.2608(10)
C14_9 C 0.0511(7) 0.1949(6) 0.3990(17)
H7_9 H 0.037767 0.208063 0.454156
C18_9 C 0.0834(10) 0.1838(6) 0.4573(16)
H10_9 H 0.094259 0.193760 0.547296
C19_8 C 0.0899(11) 0.1541(7) 0.2646(13)
H11_8 H 0.102655 0.139663 0.212312
C29_8 C 0.0070(4) 0.1979(3) 0.1932(9)
C34_8 C 0.0014(5) 0.2336(3) 0.2446(12)
H22_8 H 0.019556 0.251336 0.319038
N1_9 N 0.0992(6) 0.1590(4) 0.3866(10)
O7_9 O 0.1199(9) 0.0733(5) 0.3839(18)
O8_8 O 0.0602(9) 0.0107(5) 0.2709(16)
N6_9 N 0.0858(10) 0.0323(6) 0.3775(19)
O9_9 O 0.0641(9) 0.0896(5) 0.6062(17)
H27_9 H 0.043981 0.072980 0.545237
H28_9 H 0.067111 0.072060 0.664687
C10_9 C 0.9246(7) 0.4699(4) 0.9382(13)
H4_9 H 0.901936 0.477130 0.962291
C11_9 C 0.9967(5) 0.4918(3) 0.8562(12)
C15_9 C 0.9894(5) 0.4472(4) 0.8798(13)
C16_9 C 0.9476(4) 0.4122(3) 0.9280(10)
C17_9 C 0.9157(5) 0.4260(4) 0.9584(13)
H9_9 H 0.886921 0.404146 0.993997
C20_8 C 0.6869(4) 0.0877(3) 0.9353(8)
H12_8 H 0.690888 0.111904 0.877787
C25_8 C 0.7868(5) 0.1524(3) 0.8974(9)
H16_8 H 0.768179 0.149262 0.821016
C26_8 C 0.8329(5) 0.1866(3) 0.8990(10)
H17_8 H 0.845445 0.206654 0.823487
H20_8 H 0.928731 0.163558 0.948715
C35_8 C 0.9590(4) 0.3050(3) 0.9243(10)
H23_8 H 0.979363 0.295912 0.889080
C36_8 C 0.9189(4) 0.2730(3) 0.9976(9)
C39_9 C 0.9375(4) 0.3648(3) 0.9536(10)
C40_9 C 0.9681(4) 0.3495(3) 0.9052(10)
H26_9 H 0.995087 0.370421 0.859013
N3_9 N 0.6469(3) 0.0485(2) 0.9551(7)
H14_9 H 0.634999 0.992475 0.078833
C1_9 C 0.4909(5) 0.8255(3) 0.4200(9)
C2_9 C 0.5574(5) 0.8597(3) 0.9898(8)
C3_9 C 0.5524(4) 0.9331(3) 0.8292(8)
C4_9 C 0.5071(5) 0.8340(3) 0.5678(9)
C5_9 C 0.5074(6) 0.7999(3) 0.6421(10)
H1_9 H 0.497464 0.770933 0.602323
C6_9 C 0.5214(4) 0.8775(3) 0.6283(8)
H2_9 H 0.519972 0.900317 0.576359
C7_9 C 0.5374(4) 0.8866(3) 0.7638(8)
C8_9 C 0.5376(4) 0.8511(3) 0.8423(8)
C9_9 C 0.5235(4) 0.8090(3) 0.7845(9)
H3_9 H 0.524222 0.785835 0.836943
O5_9 O 0.5688(3) 0.9676(2) 0.7431(7)
O6_9 O 0.5484(3) 0.9373(2) 0.9499(6)
C12_9 C 0.3949(9) 0.8341(8) 0.8568(15)
H6_9 H 0.391372 0.830165 0.760590
C13_9 C 0.3730(4) 0.8526(3) 0.9274(10)
C19_9 C 0.4233(11) 0.8207(7) 0.9312(13)
H11_9 H 0.435989 0.806329 0.878978
C20_9 C 0.0203(4) 0.7543(3) 0.6019(8)
H12_9 H 0.024222 0.778570 0.544453
C21_8 C 0.0355(5) 0.7122(3) 0.7475(11)
H13_8 H 0.051017 0.702431 0.806523
C23_8 C 0.1293(5) 0.7926(3) 0.7885(11)
H15_8 H 0.116696 0.772249 0.863234
C24_8 C 0.1019(4) 0.7895(3) 0.6767(8)
C25_9 C 0.1202(5) 0.8190(3) 0.5640(9)
H16_9 H 0.101513 0.815928 0.487682
C26_9 C 0.1663(5) 0.8532(3) 0.5656(10)
H17_9 H 0.178779 0.873320 0.490153
C27_8 C 0.1947(4) 0.8579(3) 0.6809(9)
C28_8 C 0.1759(6) 0.8264(4) 0.7893(10)
H18_8 H 0.194526 0.827919 0.863571
C29_9 C 0.3404(4) 0.8645(3) 0.8598(9)
C30_8 C 0.3125(5) 0.8382(4) 0.7491(11)
H19_8 H 0.315323 0.813638 0.714841
C31_8 C 0.2804(4) 0.8480(3) 0.6894(10)
H20_9 H 0.262065 0.830224 0.615381
C32_8 C 0.2756(4) 0.8847(3) 0.7403(10)
C33_8 C 0.3023(4) 0.9099(3) 0.8524(11)
H21_8 H 0.298516 0.933650 0.889325
C34_9 C 0.3348(5) 0.9002(3) 0.9112(12)
H22_9 H 0.352890 0.918002 0.985704
C35_9 C 0.2924(4) 0.9716(3) 0.5909(10)
H23_9 H 0.312697 0.962578 0.555746
C36_9 C 0.2523(4) 0.9396(3) 0.6642(9)
C37_8 C 0.2216(4) 0.9542(3) 0.7122(11)
H24_8 H 0.194986 0.933689 0.761044
C38_8 C 0.2310(4) 0.9988(3) 0.6870(12)
N4_8 N 0.2414(3) 0.8933(2) 0.6793(9)
N5_8 N 0.0540(3) 0.7538(2) 0.6771(7)
O8_9 O 0.3936(9) 0.6773(5) 0.9375(16)
H5_8 H 0.489431 0.975130 0.819004
H8_8 H 0.427727 0.986639 0.862583
H5_9 H 0.024870 0.514302 0.819004
H8_9 H 0.013361 0.441089 0.862583
C21_9 C 0.7021(5) 0.0456(3) 0.0809(11)
H13_9 H 0.717683 0.035765 0.139857
C22_9 C 0.6564(5) 0.0219(3) 0.0465(10)
C23_9 C 0.7959(5) 0.1260(3) 0.1219(11)
H15_9 H 0.783362 0.105583 0.196568
C24_9 C 0.7685(4) 0.1229(3) 0.0101(8)
C27_9 C 0.8613(4) 0.1913(3) 0.0143(9)
C28_9 C 0.8425(6) 0.1598(4) 0.1227(10)
H18_9 H 0.861192 0.161253 0.196905
C30_9 C 0.9791(5) 0.1716(4) 0.0825(11)
H19_9 H 0.981989 0.146972 0.048175
C31_9 C 0.9470(4) 0.1814(3) 0.0228(10)
C32_9 C 0.9422(4) 0.2181(3) 0.0737(10)
C33_9 C 0.9689(4) 0.2433(3) 0.1858(11)
H21_9 H 0.965182 0.266984 0.222659
C37_9 C 0.8882(4) 0.2876(3) 0.0456(11)
H24_9 H 0.861652 0.267023 0.094378
C38_9 C 0.8976(4) 0.3322(3) 0.0204(12)
H25_9 H 0.876244 0.340623 0.049295
N4_9 N 0.9080(3) 0.2267(2) 0.0127(9)
N5_9 N 0.7206(3) 0.0872(2) 0.0105(7)
loop_
_geom_bond_atom_site_label_1
_geom_bond_atom_site_label_2
_geom_bond_site_symmetry_1
_geom_bond_site_symmetry_2
C2 C8 1_555 1_555
H3 C9 1_555 1_555
C12 H6 1_555 1_555
C13 C12 1_555 1_555
C14 C13 1_555 1_555
H7 C14 1_555 1_555
C18 C14 1_555 1_555
H10 C18 1_555 1_555
C19 C12 1_555 1_555
H11 C19 1_555 1_555
C23 H15 1_555 1_555
C28 C23 1_555 1_555
H18 C28 1_555 1_555
C29 C13 1_555 1_555
C30 C29 1_555 1_555
H19 C30 1_555 1_555
C31 C30 1_555 1_555
H20 C31 1_555 1_555
C32 C31 1_555 1_555
C33 C32 1_555 1_555
H21 C33 1_555 1_555
C34 C29 1_555 1_555
H22 C34 1_555 1_555
N1 C18 1_555 1_555
N4 C27 1_555 1_555
O1 C2 1_555 1_555
O2 C2 1_555 1_555
Zn2 N1 1_555 1_555
O7 Zn2 1_555 1_555
O8 N6 1_555 1_555
N6 O7 1_555 1_555
O9 Zn2 1_555 1_555
H27 O9 1_555 1_555
H28 O9 1_555 1_555
Zn4 O2 1_555 1_555
O10 Zn2 1_555 1_555
Zn6 O1 1_555 1_555
C8 C9 1_555 1_555
C19 N1 1_555 1_555
C27 C28 1_555 1_555
C32 N4 1_555 1_555
C33 C34 1_555 1_555
C4 C5 1_555 1_555
C5 H1 1_555 1_555
Zn6 O3 1_555 1_555
Zn1 N3 1_555 1_555
C3 C7 1_555 1_555
C10 H4 1_555 1_555
C11 H5 1_555 1_555
C15 C11 1_555 1_555
H8 C15 1_555 1_555
C16 C15 1_555 1_555
C17 C10 1_555 1_555
H9 C17 1_555 1_555
C20 H12 1_555 1_555
C22 C21 1_555 1_555
H14 C22 1_555 1_555
C25 C24 1_555 1_555
H16 C25 1_555 1_555
C26 C25 1_555 1_555
H17 C26 1_555 1_555
C36 C35 1_555 1_555
C37 C36 1_555 1_555
H24 C37 1_555 1_555
C38 C37 1_555 1_555
H25 C38 1_555 1_555
C39 C16 1_555 1_555
C40 C35 1_555 1_555
H26 C40 1_555 1_555
N2 C10 1_555 1_555
N3 C20 1_555 1_555
N5 C20 1_555 1_555
O5 Zn1 1_555 1_555
O6 C3 1_555 1_555
Zn3 N2 1_555 1_555
N7 Zn1 1_555 1_555
C3 O5 1_555 1_555
C11 N2 1_555 1_555
C16 C17 1_555 1_555
C21 N5 1_555 1_555
C22 N3 1_555 1_555
C24 N5 1_555 1_555
C38 C39 1_555 1_555
C39 C40 1_555 1_555
H2 C6 1_555 1_555
O4 C1 1_555 1_555
Zn3 N3_2 1_555 1_555
C3_2 C7_2 1_555 1_555
C10_2 H4_2 1_555 1_555
C11_2 H5_2 1_555 1_555
C15_2 C11_2 1_555 1_555
H8_2 C15_2 1_555 1_555
C16_2 C15_2 1_555 1_555
C17_2 C10_2 1_555 1_555
H9_2 C17_2 1_555 1_555
C20_2 H12_2 1_555 1_555
C22_2 C21_2 1_555 1_555
H14_2 C22_2 1_555 1_555
C25_2 C24_2 1_555 1_555
H16_2 C25_2 1_555 1_555
C26_2 C25_2 1_555 1_555
H17_2 C26_2 1_555 1_555
C36_2 C35_2 1_555 1_555
C37_2 C36_2 1_555 1_555
H24_2 C37_2 1_555 1_555
C38_2 C37_2 1_555 1_555
H25_2 C38_2 1_555 1_555
C39_2 C16_2 1_555 1_555
C40_2 C35_2 1_555 1_555
H26_2 C40_2 1_555 1_555
N2_2 C10_2 1_555 1_555
N3_2 C20_2 1_555 1_555
N5_2 C20_2 1_555 1_555
O5_2 Zn3 1_555 1_555
O6_2 C3_2 1_555 1_555
Zn3_2 N2_2 1_555 1_555
C3_2 O5_2 1_555 1_555
C11_2 N2_2 1_555 1_555
C16_2 C17_2 1_555 1_555
C21_2 N5_2 1_555 1_555
C22_2 N3_2 1_555 1_555
C24_2 N5_2 1_555 1_555
C38_2 C39_2 1_555 1_555
C39_2 C40_2 1_555 1_555
H2_2 C6_2 1_555 1_555
O4_2 C1_2 1_555 1_555
C2_2 C8_2 1_555 1_555
H3_2 C9_2 1_555 1_555
C12_2 H6_2 1_555 1_555
C13_2 C12_2 1_555 1_555
C14_2 C13_2 1_555 1_555
H7_2 C14_2 1_555 1_555
C18_2 C14_2 1_555 1_555
H10_2 C18_2 1_555 1_555
C19_2 C12_2 1_555 1_555
H11_2 C19_2 1_555 1_555
C23_2 H15_2 1_555 1_555
C28_2 C23_2 1_555 1_555
H18_2 C28_2 1_555 1_555
C29_2 C13_2 1_555 1_555
C30_2 C29_2 1_555 1_555
H19_2 C30_2 1_555 1_555
C31_2 C30_2 1_555 1_555
H20_2 C31_2 1_555 1_555
C32_2 C31_2 1_555 1_555
C33_2 C32_2 1_555 1_555
H21_2 C33_2 1_555 1_555
C34_2 C29_2 1_555 1_555
H22_2 C34_2 1_555 1_555
N1_2 C18_2 1_555 1_555
N4_2 C27_2 1_555 1_555
O1_2 C2_2 1_555 1_555
O2_2 C2_2 1_555 1_555
Zn2_2 N1_2 1_555 1_555
O7_2 Zn2_2 1_555 1_555
O8_2 N6_2 1_555 1_555
N6_2 O7_2 1_555 1_555
O9_2 Zn2_2 1_555 1_555
H27_2 O9_2 1_555 1_555
H28_2 O9_2 1_555 1_555
Zn4_2 O2_2 1_555 1_555
O10_2 Zn2_2 1_555 1_555
Zn6_2 O1_2 1_555 1_555
C8_2 C9_2 1_555 1_555
C19_2 N1_2 1_555 1_555
C27_2 C28_2 1_555 1_555
C32_2 N4_2 1_555 1_555
C33_2 C34_2 1_555 1_555
C4_2 C5_2 1_555 1_555
C5_2 H1_2 1_555 1_555
Zn6_2 O3_2 1_555 1_555
Zn3_2 N3_3 1_555 1_555
C2_3 C8_3 1_555 1_555
C3_3 C7_3 1_555 1_555
C8_3 C7_3 1_555 1_555
H3_3 C9_3 1_555 1_555
C10_3 H4_3 1_555 1_555
C11_3 H5_3 1_555 1_555
C12_3 H6_3 1_555 1_555
C13_3 C12_3 1_555 1_555
C14_3 C13_3 1_555 1_555
H7_3 C14_3 1_555 1_555
C15_3 C11_3 1_555 1_555
H8_3 C15_3 1_555 1_555
C16_3 C15_3 1_555 1_555
C17_3 C10_3 1_555 1_555
H9_3 C17_3 1_555 1_555
C18_3 C14_3 1_555 1_555
H10_3 C18_3 1_555 1_555
C19_3 C12_3 1_555 1_555
H11_3 C19_3 1_555 1_555
C20_3 H12_3 1_555 1_555
C21_3 H13_3 1_555 1_555
C22_3 C21_3 1_555 1_555
H14_3 C22_3 1_555 1_555
C23_3 H15_3 1_555 1_555
C24_3 C23_3 1_555 1_555
C25_3 C24_3 1_555 1_555
H16_3 C25_3 1_555 1_555
C26_3 C25_3 1_555 1_555
H17_3 C26_3 1_555 1_555
C27_3 C26_3 1_555 1_555
C28_3 C23_3 1_555 1_555
H18_3 C28_3 1_555 1_555
C29_3 C13_3 1_555 1_555
C30_3 C29_3 1_555 1_555
H19_3 C30_3 1_555 1_555
C31_3 C30_3 1_555 1_555
H20_3 C31_3 1_555 1_555
C32_3 C31_3 1_555 1_555
C33_3 C32_3 1_555 1_555
H21_3 C33_3 1_555 1_555
C34_3 C29_3 1_555 1_555
H22_3 C34_3 1_555 1_555
C35_3 H23_3 1_555 1_555
C36_3 C35_3 1_555 1_555
C37_3 C36_3 1_555 1_555
H24_3 C37_3 1_555 1_555
C38_3 C37_3 1_555 1_555
H25_3 C38_3 1_555 1_555
C39_3 C16_3 1_555 1_555
C40_3 C35_3 1_555 1_555
H26_3 C40_3 1_555 1_555
N1_3 C18_3 1_555 1_555
N7 C10_3 1_555 1_555
N3_3 C20_3 1_555 1_555
N4_3 C27_3 1_555 1_555
N5_3 C20_3 1_555 1_555
O1_3 C2_3 1_555 1_555
O2_3 C2_3 1_555 1_555
O5_3 Zn3_2 1_555 1_555
O6_3 C3_3 1_555 1_555
Zn2_3 N1_3 1_555 1_555
O7_3 Zn2_3 1_555 1_555
O8_3 N6_3 1_555 1_555
N6_3 O7_3 1_555 1_555
O9_3 Zn2_3 1_555 1_555
H27_3 O9_3 1_555 1_555
H28_3 O9_3 1_555 1_555
Zn4_3 O2_3 1_555 1_555
O10_3 Zn2_3 1_555 1_555
Zn6_3 O1_3 1_555 1_555
C3_3 O5_3 1_555 1_555
C8_3 C9_3 1_555 1_555
C11_3 N7 1_555 1_555
C16_3 C17_3 1_555 1_555
C19_3 N1_3 1_555 1_555
C21_3 N5_3 1_555 1_555
C22_3 N3_3 1_555 1_555
C24_3 N5_3 1_555 1_555
C27_3 C28_3 1_555 1_555
C32_3 N4_3 1_555 1_555
C33_3 C34_3 1_555 1_555
C36_3 N4_3 1_555 1_555
C38_3 C39_3 1_555 1_555
C39_3 C40_3 1_555 1_555
C1_3 C4_3 1_555 1_555
C4_3 C5_3 1_555 1_555
C5_3 H1_3 1_555 1_555
C6_3 C4_3 1_555 1_555
H2_3 C6_3 1_555 1_555
O3_3 C1_3 1_555 1_555
O4_3 C1_3 1_555 1_555
Zn6_3 O3_3 1_555 1_555
O4_3 Zn6_3 1_555 1_555
H7_4 C14_4 1_555 1_555
C18_4 C14_4 1_555 1_555
H10_4 C18_4 1_555 1_555
N1_4 C18_4 1_555 1_555
Zn2_4 N1_4 1_555 1_555
O7_4 Zn2_4 1_555 1_555
N6_4 O7_4 1_555 1_555
O9_4 Zn2_4 1_555 1_555
H27_4 O9_4 1_555 1_555
H28_4 O9_4 1_555 1_555
O10_4 Zn2_4 1_555 1_555
O12_4 Zn2_4 1_555 1_555
O13_4 Zn2_4 1_555 1_555
Zn4_3 N3_4 1_555 1_555
C1_4 C4_4 1_555 1_555
C2_4 C8_4 1_555 1_555
C3_4 C7_4 1_555 1_555
C4_4 C5_4 1_555 1_555
C5_4 H1_4 1_555 1_555
C6_4 C4_4 1_555 1_555
H2_4 C6_4 1_555 1_555
C7_4 C6_4 1_555 1_555
C8_4 C7_4 1_555 1_555
C9_4 C5_4 1_555 1_555
H3_4 C9_4 1_555 1_555
C12_4 H6_4 1_555 1_555
C13_4 C12_4 1_555 1_555
C19_4 C12_4 1_555 1_555
H11_4 C19_4 1_555 1_555
C20_4 H12_4 1_555 1_555
C21_4 H13_4 1_555 1_555
C22_4 C21_4 1_555 1_555
H14_4 C22_4 1_555 1_555
C23_4 H15_4 1_555 1_555
C24_4 C23_4 1_555 1_555
C25_4 C24_4 1_555 1_555
H16_4 C25_4 1_555 1_555
C26_4 C25_4 1_555 1_555
H17_4 C26_4 1_555 1_555
C27_4 C26_4 1_555 1_555
C28_4 C23_4 1_555 1_555
H18_4 C28_4 1_555 1_555
C29_4 C13_4 1_555 1_555
C30_4 C29_4 1_555 1_555
H19_4 C30_4 1_555 1_555
C31_4 C30_4 1_555 1_555
H20_4 C31_4 1_555 1_555
C32_4 C31_4 1_555 1_555
C33_4 C32_4 1_555 1_555
H21_4 C33_4 1_555 1_555
C34_4 C29_4 1_555 1_555
H22_4 C34_4 1_555 1_555
C35_4 H23_4 1_555 1_555
C36_4 C35_4 1_555 1_555
C37_4 C36_4 1_555 1_555
H24_4 C37_4 1_555 1_555
C38_4 C37_4 1_555 1_555
N3_4 C20_4 1_555 1_555
N4_4 C27_4 1_555 1_555
N5_4 C20_4 1_555 1_555
O10 C2_4 1_555 1_555
O2_4 C2_4 1_555 1_555
O12 C1_4 1_555 1_555
O13 C1_4 1_555 1_555
O5_4 Zn4_3 1_555 1_555
O6_4 C3_4 1_555 1_555
Zn4_4 O2_4 1_555 1_555
N7_2 Zn4_3 1_555 1_555
C3_4 O5_4 1_555 1_555
C8_4 C9_4 1_555 1_555
C21_4 N5_4 1_555 1_555
C22_4 N3_4 1_555 1_555
C24_4 N5_4 1_555 1_555
C27_4 C28_4 1_555 1_555
C32_4 N4_4 1_555 1_555
C33_4 C34_4 1_555 1_555
C36_4 N4_4 1_555 1_555
C10_4 H4_4 1_555 1_555
C11_4 H5_4 1_555 1_555
C15_4 C11_4 1_555 1_555
H8_4 C15_4 1_555 1_555
C16_4 C15_4 1_555 1_555
C17_4 C10_4 1_555 1_555
H9_4 C17_4 1_555 1_555
C39_4 C16_4 1_555 1_555
H26_4 C40_4 1_555 1_555
N2_3 C10_4 1_555 1_555
Zn4 N2_3 1_555 1_555
C11_4 N2_3 1_555 1_555
C16_4 C17_4 1_555 1_555
C39_4 C40_4 1_555 1_555
Zn4 N3_5 1_555 1_555
C1_5 C4_5 1_555 1_555
C2_5 C8_5 1_555 1_555
C3_5 C7_5 1_555 1_555
C4_5 C5_5 1_555 1_555
C5_5 H1_5 1_555 1_555
C6_5 C4_5 1_555 1_555
H2_5 C6_5 1_555 1_555
C7_5 C6_5 1_555 1_555
C8_5 C7_5 1_555 1_555
C9_5 C5_5 1_555 1_555
H3_5 C9_5 1_555 1_555
H14_5 C22_5 1_555 1_555
O10_2 C2_5 1_555 1_555
O2_5 C2_5 1_555 1_555
O12_2 C1_5 1_555 1_555
O13_2 C1_5 1_555 1_555
O5_5 Zn4 1_555 1_555
O6_5 C3_5 1_555 1_555
Zn4_5 O2_5 1_555 1_555
C3_5 O5_5 1_555 1_555
C8_5 C9_5 1_555 1_555
C22_5 N3_5 1_555 1_555
H7_5 C14_5 1_555 1_555
C18_5 C14_5 1_555 1_555
H10_5 C18_5 1_555 1_555
N1_5 C18_5 1_555 1_555
Zn2_5 N1_5 1_555 1_555
O7_5 Zn2_5 1_555 1_555
N6_5 O7_5 1_555 1_555
O9_5 Zn2_5 1_555 1_555
H27_5 O9_5 1_555 1_555
H28_5 O9_5 1_555 1_555
O10_5 Zn2_5 1_555 1_555
O12_5 Zn2_5 1_555 1_555
O13_5 Zn2_5 1_555 1_555
C10_5 H4_5 1_555 1_555
C11_5 H5_5 1_555 1_555
C12_5 H6_5 1_555 1_555
C13_5 C12_5 1_555 1_555
C15_5 C11_5 1_555 1_555
H8_5 C15_5 1_555 1_555
C16_5 C15_5 1_555 1_555
C17_5 C10_5 1_555 1_555
H9_5 C17_5 1_555 1_555
C19_5 C12_5 1_555 1_555
H11_5 C19_5 1_555 1_555
C20_5 H12_5 1_555 1_555
C21_5 H13_5 1_555 1_555
C23_5 H15_5 1_555 1_555
C24_5 C23_5 1_555 1_555
C25_5 C24_5 1_555 1_555
H16_5 C25_5 1_555 1_555
C26_5 C25_5 1_555 1_555
H17_5 C26_5 1_555 1_555
C27_5 C26_5 1_555 1_555
C28_5 C23_5 1_555 1_555
H18_5 C28_5 1_555 1_555
C29_5 C13_5 1_555 1_555
C30_5 C29_5 1_555 1_555
H19_5 C30_5 1_555 1_555
C31_5 C30_5 1_555 1_555
H20_5 C31_5 1_555 1_555
C32_5 C31_5 1_555 1_555
C33_5 C32_5 1_555 1_555
H21_5 C33_5 1_555 1_555
C34_5 C29_5 1_555 1_555
H22_5 C34_5 1_555 1_555
C35_5 H23_5 1_555 1_555
C36_5 C35_5 1_555 1_555
C37_5 C36_5 1_555 1_555
H24_5 C37_5 1_555 1_555
C38_5 C37_5 1_555 1_555
H25_5 C38_5 1_555 1_555
C39_5 C16_5 1_555 1_555
C40_5 C35_5 1_555 1_555
H26_5 C40_5 1_555 1_555
N2_4 C10_5 1_555 1_555
N4_5 C27_5 1_555 1_555
N5_5 C20_5 1_555 1_555
Zn4_2 N2_4 1_555 1_555
C11_5 N2_4 1_555 1_555
C16_5 C17_5 1_555 1_555
C21_5 N5_5 1_555 1_555
C24_5 N5_5 1_555 1_555
C27_5 C28_5 1_555 1_555
C32_5 N4_5 1_555 1_555
C33_5 C34_5 1_555 1_555
C36_5 N4_5 1_555 1_555
C38_5 C39_5 1_555 1_555
C39_5 C40_5 1_555 1_555
C10_6 H4_6 1_555 1_555
C11_6 H5_6 1_555 1_555
C15_6 C11_6 1_555 1_555
H8_6 C15_6 1_555 1_555
C16_6 C15_6 1_555 1_555
C17_6 C10_6 1_555 1_555
H9_6 C17_6 1_555 1_555
C39_6 C16_6 1_555 1_555
H26_6 C40_6 1_555 1_555
N7_2 C10_6 1_555 1_555
C11_6 N7_2 1_555 1_555
C16_6 C17_6 1_555 1_555
C39_6 C40_6 1_555 1_555
H7_6 C14_6 1_555 1_555
C18_6 C14_6 1_555 1_555
H10_6 C18_6 1_555 1_555
N1_6 C18_6 1_555 1_555
Zn2_6 N1_6 1_555 1_555
O7_6 Zn2_6 1_555 1_555
N6_6 O7_6 1_555 1_555
O9_6 Zn2_6 1_555 1_555
H27_6 O9_6 1_555 1_555
H28_6 O9_6 1_555 1_555
O10_6 Zn2_6 1_555 1_555
O12_6 Zn2_6 1_555 1_555
O13_6 Zn2_6 1_555 1_555
Zn4_2 N3_6 1_555 1_555
C1_6 C4_6 1_555 1_555
C2_6 C8_6 1_555 1_555
C3_6 C7_6 1_555 1_555
C4_6 C5_6 1_555 1_555
C5_6 H1_6 1_555 1_555
C6_6 C4_6 1_555 1_555
H2_6 C6_6 1_555 1_555
C7_6 C6_6 1_555 1_555
C8_6 C7_6 1_555 1_555
C9_6 C5_6 1_555 1_555
H3_6 C9_6 1_555 1_555
H14_6 C22_6 1_555 1_555
O10_3 C2_6 1_555 1_555
O2_6 C2_6 1_555 1_555
O12_3 C1_6 1_555 1_555
O13_3 C1_6 1_555 1_555
O5_6 Zn4_2 1_555 1_555
O6_6 C3_6 1_555 1_555
Zn4_6 O2_6 1_555 1_555
C3_6 O5_6 1_555 1_555
C8_6 C9_6 1_555 1_555
C22_6 N3_6 1_555 1_555
C1_7 C4_7 1_555 1_555
C2_7 C8_7 1_555 1_555
C3_7 C7_7 1_555 1_555
C4_7 C5_7 1_555 1_555
C5_7 H1_7 1_555 1_555
C6_7 C4_7 1_555 1_555
H2_7 C6_7 1_555 1_555
C7_7 C6_7 1_555 1_555
C8_7 C7_7 1_555 1_555
C9_7 C5_7 1_555 1_555
H3_7 C9_7 1_555 1_555
O11_2 C2_7 1_555 1_555
O12_4 C1_7 1_555 1_555
O13_4 C1_7 1_555 1_555
O6_7 C3_7 1_555 1_555
C3_7 O5_7 1_555 1_555
C8_7 C9_7 1_555 1_555
O7_7 Zn6 1_555 1_555
O8_6 N6_7 1_555 1_555
N6_7 O7_7 1_555 1_555
C12_6 H6_6 1_555 1_555
C13_6 C12_6 1_555 1_555
C14_7 C13_6 1_555 1_555
H7_7 C14_7 1_555 1_555
C18_7 C14_7 1_555 1_555
H10_7 C18_7 1_555 1_555
C19_6 C12_6 1_555 1_555
H11_6 C19_6 1_555 1_555
C21_6 H13_6 1_555 1_555
C22_7 C21_6 1_555 1_555
C23_6 H15_6 1_555 1_555
C24_6 C23_6 1_555 1_555
C28_6 C23_6 1_555 1_555
H18_6 C28_6 1_555 1_555
C29_6 C13_6 1_555 1_555
C30_6 C29_6 1_555 1_555
H19_6 C30_6 1_555 1_555
C31_6 C30_6 1_555 1_555
C32_6 C31_6 1_555 1_555
C33_6 C32_6 1_555 1_555
H21_6 C33_6 1_555 1_555
C34_6 C29_6 1_555 1_555
H22_6 C34_6 1_555 1_555
H24_6 C37_6 1_555 1_555
C38_6 C37_6 1_555 1_555
H25_7 C38_6 1_555 1_555
N1_7 C18_7 1_555 1_555
N4_6 C27_6 1_555 1_555
H27_7 O9_7 1_555 1_555
H28_7 O9_7 1_555 1_555
C19_6 N1_7 1_555 1_555
C21_6 N5_6 1_555 1_555
C24_6 N5_6 1_555 1_555
C27_6 C28_6 1_555 1_555
C32_6 N4_6 1_555 1_555
C33_6 C34_6 1_555 1_555
Zn4_6 N3_7 1_555 1_555
C10_7 H4_7 1_555 1_555
C11_7 H5_7 1_555 1_555
C15_7 C11_7 1_555 1_555
H8_7 C15_7 1_555 1_555
C16_7 C15_7 1_555 1_555
C17_7 C10_7 1_555 1_555
H9_7 C17_7 1_555 1_555
C20_6 H12_6 1_555 1_555
H16_6 C25_6 1_555 1_555
C26_6 C25_6 1_555 1_555
H17_6 C26_6 1_555 1_555
C35_6 H23_6 1_555 1_555
C36_6 C35_6 1_555 1_555
C39_7 C16_7 1_555 1_555
C40_7 C35_6 1_555 1_555
H26_7 C40_7 1_555 1_555
N2_5 C10_7 1_555 1_555
N3_7 C20_6 1_555 1_555
Zn4_4 N2_5 1_555 1_555
N7_3 Zn4_6 1_555 1_555
C11_7 N2_5 1_555 1_555
C16_7 C17_7 1_555 1_555
C39_7 C40_7 1_555 1_555
C21_7 H13_7 1_555 1_555
C22_8 C21_7 1_555 1_555
H14_8 C22_8 1_555 1_555
C23_7 H15_7 1_555 1_555
C24_7 C23_7 1_555 1_555
C28_7 C23_7 1_555 1_555
H18_7 C28_7 1_555 1_555
H19_7 C30_7 1_555 1_555
C31_7 C30_7 1_555 1_555
C32_7 C31_7 1_555 1_555
C33_7 C32_7 1_555 1_555
H21_7 C33_7 1_555 1_555
H24_7 C37_7 1_555 1_555
C38_7 C37_7 1_555 1_555
H25_8 C38_7 1_555 1_555
N4_7 C27_7 1_555 1_555
C21_7 N5_7 1_555 1_555
C24_7 N5_7 1_555 1_555
C27_7 C28_7 1_555 1_555
C32_7 N4_7 1_555 1_555
Zn4_4 N3_8 1_555 1_555
C1_8 C4_8 1_555 1_555
C2_8 C8_8 1_555 1_555
C3_8 C7_8 1_555 1_555
C4_8 C5_8 1_555 1_555
C5_8 H1_8 1_555 1_555
C6_8 C4_8 1_555 1_555
H2_8 C6_8 1_555 1_555
C7_8 C6_8 1_555 1_555
C8_8 C7_8 1_555 1_555
C9_8 C5_8 1_555 1_555
H3_8 C9_8 1_555 1_555
C10_8 H4_8 1_555 1_555
C15_8 C11_8 1_555 1_555
C16_8 C15_8 1_555 1_555
C17_8 C10_8 1_555 1_555
H9_8 C17_8 1_555 1_555
C20_7 H12_7 1_555 1_555
H16_7 C25_7 1_555 1_555
C26_7 C25_7 1_555 1_555
H17_7 C26_7 1_555 1_555
C35_7 H23_7 1_555 1_555
C36_7 C35_7 1_555 1_555
C39_8 C16_8 1_555 1_555
C40_8 C35_7 1_555 1_555
H26_8 C40_8 1_555 1_555
N2_6 C10_8 1_555 1_555
N3_8 C20_7 1_555 1_555
O11_3 C2_8 1_555 1_555
O12_5 C1_8 1_555 1_555
O13_5 C1_8 1_555 1_555
O5_8 Zn4_4 1_555 1_555
O6_8 C3_8 1_555 1_555
Zn4_5 N2_6 1_555 1_555
C3_8 O5_8 1_555 1_555
C8_8 C9_8 1_555 1_555
C11_8 N2_6 1_555 1_555
C16_8 C17_8 1_555 1_555
C39_8 C40_8 1_555 1_555
C12_7 H6_7 1_555 1_555
C13_7 C12_7 1_555 1_555
C14_8 C13_7 1_555 1_555
H7_8 C14_8 1_555 1_555
C18_8 C14_8 1_555 1_555
H10_8 C18_8 1_555 1_555
C19_7 C12_7 1_555 1_555
H11_7 C19_7 1_555 1_555
C29_7 C13_7 1_555 1_555
C34_7 C29_7 1_555 1_555
H22_7 C34_7 1_555 1_555
N1_8 C18_8 1_555 1_555
H27_8 O9_8 1_555 1_555
H28_8 O9_8 1_555 1_555
C19_7 N1_8 1_555 1_555
O7_8 Zn6_2 1_555 1_555
O8_7 N6_8 1_555 1_555
N6_8 O7_8 1_555 1_555
C12_8 H6_8 1_555 1_555
C13_8 C12_8 1_555 1_555
C14_9 C13_8 1_555 1_555
H7_9 C14_9 1_555 1_555
C18_9 C14_9 1_555 1_555
H10_9 C18_9 1_555 1_555
C19_8 C12_8 1_555 1_555
H11_8 C19_8 1_555 1_555
C29_8 C13_8 1_555 1_555
C34_8 C29_8 1_555 1_555
H22_8 C34_8 1_555 1_555
N1_9 C18_9 1_555 1_555
Zn6_3 N1_9 1_555 1_555
O7_9 Zn6_3 1_555 1_555
O8_8 N6_9 1_555 1_555
N6_9 O7_9 1_555 1_555
O9_9 Zn6_3 1_555 1_555
H27_9 O9_9 1_555 1_555
H28_9 O9_9 1_555 1_555
C19_8 N1_9 1_555 1_555
Zn4_5 N3_9 1_555 1_555
C10_9 H4_9 1_555 1_555
C15_9 C11_9 1_555 1_555
C16_9 C15_9 1_555 1_555
C17_9 C10_9 1_555 1_555
H9_9 C17_9 1_555 1_555
C20_8 H12_8 1_555 1_555
H16_8 C25_8 1_555 1_555
C26_8 C25_8 1_555 1_555
H17_8 C26_8 1_555 1_555
C35_8 H23_8 1_555 1_555
C36_8 C35_8 1_555 1_555
C39_9 C16_9 1_555 1_555
C40_9 C35_8 1_555 1_555
H26_9 C40_9 1_555 1_555
N7_3 C10_9 1_555 1_555
N3_9 C20_8 1_555 1_555
C11_9 N7_3 1_555 1_555
C16_9 C17_9 1_555 1_555
C39_9 C40_9 1_555 1_555
C1_9 C4_9 1_555 1_555
C2_9 C8_9 1_555 1_555
C3_9 C7_9 1_555 1_555
C4_9 C5_9 1_555 1_555
C5_9 H1_9 1_555 1_555
C6_9 C4_9 1_555 1_555
H2_9 C6_9 1_555 1_555
C7_9 C6_9 1_555 1_555
C8_9 C7_9 1_555 1_555
C9_9 C5_9 1_555 1_555
H3_9 C9_9 1_555 1_555
O11 C2_9 1_555 1_555
O12_6 C1_9 1_555 1_555
O13_6 C1_9 1_555 1_555
O6_9 C3_9 1_555 1_555
C3_9 O5_9 1_555 1_555
C8_9 C9_9 1_555 1_555
C12_9 H6_9 1_555 1_555
C13_9 C12_9 1_555 1_555
C19_9 C12_9 1_555 1_555
H11_9 C19_9 1_555 1_555
C20_9 H12_9 1_555 1_555
C21_8 H13_8 1_555 1_555
C23_8 H15_8 1_555 1_555
C24_8 C23_8 1_555 1_555
C25_9 C24_8 1_555 1_555
H16_9 C25_9 1_555 1_555
C26_9 C25_9 1_555 1_555
H17_9 C26_9 1_555 1_555
C27_8 C26_9 1_555 1_555
C28_8 C23_8 1_555 1_555
H18_8 C28_8 1_555 1_555
C29_9 C13_9 1_555 1_555
C30_8 C29_9 1_555 1_555
H19_8 C30_8 1_555 1_555
C31_8 C30_8 1_555 1_555
H20_9 C31_8 1_555 1_555
C32_8 C31_8 1_555 1_555
C33_8 C32_8 1_555 1_555
H21_8 C33_8 1_555 1_555
C34_9 C29_9 1_555 1_555
H22_9 C34_9 1_555 1_555
C35_9 H23_9 1_555 1_555
C36_9 C35_9 1_555 1_555
C37_8 C36_9 1_555 1_555
H24_8 C37_8 1_555 1_555
C38_8 C37_8 1_555 1_555
N4_8 C27_8 1_555 1_555
N5_8 C20_9 1_555 1_555
C21_8 N5_8 1_555 1_555
C24_8 N5_8 1_555 1_555
C27_8 C28_8 1_555 1_555
C32_8 N4_8 1_555 1_555
C33_8 C34_9 1_555 1_555
C36_9 N4_8 1_555 1_555
C21_9 H13_9 1_555 1_555
C22_9 C21_9 1_555 1_555
C23_9 H15_9 1_555 1_555
C24_9 C23_9 1_555 1_555
C28_9 C23_9 1_555 1_555
H18_9 C28_9 1_555 1_555
H19_9 C30_9 1_555 1_555
C31_9 C30_9 1_555 1_555
C32_9 C31_9 1_555 1_555
C33_9 C32_9 1_555 1_555
H21_9 C33_9 1_555 1_555
H24_9 C37_9 1_555 1_555
C38_9 C37_9 1_555 1_555
H25_9 C38_9 1_555 1_555
N4_9 C27_9 1_555 1_555
C21_9 N5_9 1_555 1_555
C24_9 N5_9 1_555 1_555
C27_9 C28_9 1_555 1_555
C32_9 N4_9 1_555 1_555

#END
