
###############################################################################
#
# This file contains modified crystal structure data generated from the
# MOF subset of the Cambridge Structural Database (CSD) v543 
# hosted by the Cambridge Crystallographic Data Centre (CCDC).
#
# This work is licensed under the Creative Commons
# Attribution-NonCommercial-ShareAlike 4.0 International License.
# To view a copy of this license, visit
# http://creativecommons.org/licenses/by-nc-sa/4.0/
# or send a letter to
# Creative Commons, PO Box 1866, Mountain View, CA 94042, USA.
#
# CIF created using the CSD Python API on 29 September 2022
# The structure has been converted into the P1 space group
# The structure has a 3D framework
# The original CSD entry BEJYOH is in the rhombohedral crystal system
# The original CSD entry BEJYOH is in a Sohncke space group
# The framework has been calculated to contain at least 10.0% void space
# The void calculation uses a probe of radius 1.32A, grid spacing 0.4
# The framework is charged, counterions have been retained in the structure
#
###############################################################################

data_BEJYOH
_chemical_formula_moiety         '(C360 H252 N54 O79 Zn16)n'
_symmetry_cell_setting           triclinic
_symmetry_space_group_name_H-M   'P 1'
_symmetry_Int_Tables_number      1
_space_group_name_Hall           'P 1'
loop_
_symmetry_equiv_pos_site_id
_symmetry_equiv_pos_as_xyz
1 x,y,z
_cell_length_a                   33.3463(16)
_cell_length_b                   33.3463(16)
_cell_length_c                   9.5459(10)
_cell_angle_alpha                90
_cell_angle_beta                 90
_cell_angle_gamma                120
_cell_volume                     9192.69
loop_
_atom_site_label
_atom_site_type_symbol
_atom_site_fract_x
_atom_site_fract_y
_atom_site_fract_z
C6 C 0.8026(3) 0.2129(4) 0.1719(12)
H5 H 0.809630 0.243067 0.152223
C7 C 0.7587(3) 0.1780(3) 0.1488(12)
H6 H 0.737210 0.184852 0.110427
C8 C 0.7451(3) 0.1324(3) 0.1807(10)
C9 C 0.7799(3) 0.1257(3) 0.2345(12)
H7 H 0.773304 0.096058 0.259575
C10 C 0.8242(3) 0.1625(4) 0.2510(12)
H8 H 0.846922 0.156537 0.284394
C11 C 0.3558(3) 0.0317(3) 0.0597(10)
H9 H 0.326285 0.023458 0.028391
C12 C 0.3783(3) 0.0102(3) 0.0244(10)
C13 C 0.4210(3) 0.0671(3) 0.1677(8)
H11 H 0.445360 0.087758 0.224230
C14 C 0.4559(3) 0.0202(3) 0.0970(8)
C18 C 0.5203(3) 0.0208(4) 0.2071(10)
H14 H 0.540781 0.029293 0.281974
C19 C 0.4861(3) 0.0329(3) 0.2074(10)
H15 H 0.483709 0.049435 0.282075
C20 C 0.6977(3) 0.0944(3) 0.1573(10)
C21 C 0.6823(3) 0.0496(3) 0.2083(9)
H16 H 0.702878 0.043858 0.258033
C22 C 0.6375(3) 0.0137(3) 0.1873(9)
C23 C 0.6063(3) 0.0214(3) 0.1144(9)
C24 C 0.6206(3) 0.0656(3) 0.0619(10)
H18 H 0.599909 0.071049 0.011575
C25 C 0.6654(3) 0.1015(3) 0.0842(10)
H19 H 0.674162 0.130822 0.049832
C33 C 0.2106(3) 0.0230(3) 0.4796(8)
H24 H 0.233306 0.047155 0.532464
C34 C 0.2204(3) 0.0165(3) 0.3429(8)
C38 C 0.1581(3) 0.0007(4) 0.6883(9)
C39 C 0.2671(3) 0.0481(3) 0.2793(9)
N2 N 0.8360(2) 0.2061(3) 0.2215(7)
N3 N 0.3817(2) 0.0678(2) 0.1489(7)
N4 N 0.4207(2) 0.0330(2) 0.0950(7)
O1 O 0.3013(2) 0.0658(2) 0.3669(6)
O2 O 0.2717(2) 0.0560(2) 0.1535(6)
O6 O 0.1848(3) 0.0380(4) 0.7494(7)
Zn1 Zn 0.36082(3) 0.10110(3) 0.27277(8)
N7 N 0.3701(4) 0.1640(2) 0.2215(7)
O10 O 0.39884(34) 0.1117(2) 0.4440(6)
Zn3 Zn 0.89890(3) 0.25972(4) 0.27277(8)
H2 H 0.491917 0.771153 0.020047
C17 C 0.5242(3) 0.9962(3) 0.0962(9)
H17 H 0.628400 0.984324 0.222405
C26 C 0.5511(3) 0.9422(3) 0.0379(9)
C30 C 0.5048(3) 0.8593(4) 0.0277(10)
H22 H 0.479951 0.831979 0.061091
C31 C 0.5143(3) 0.9012(3) 0.0866(10)
H23 H 0.495921 0.901748 0.159003
C32 C 0.1673(3) 0.9939(4) 0.5386(9)
C35 C 0.1855(3) 0.9811(3) 0.2620(8)
C36 C 0.1424(3) 0.9526(3) 0.3211(9)
H25 H 0.118897 0.929319 0.268098
C37 C 0.1343(3) 0.9591(3) 0.4594(9)
H26 H 0.105675 0.939152 0.499154
C40 C 0.1944(3) 0.9703(4) 0.1175(8)
N5 N 0.5597(2) 0.9846(2) 0.0968(8)
O3 O 0.2216(2) 0.95377(27) 0.1107(6)
O4 O 0.1747(2) 0.9744(3) 0.0137(6)
O5 O 0.1241(2) 0.9680(3) 0.7505(7)
Zn6 Zn 0.13190(3) 0.99964(4) 0.94319(10)
C1 C 0.4859(4) 0.7298(6) 0.8528(10)
H1 H 0.470967 0.702395 0.903231
C2 C 0.4986(4) 0.7717(5) 0.9252(10)
C3 C 0.5206(3) 0.8127(4) 0.8543(9)
C4 C 0.5314(4) 0.8107(6) 0.7131(12)
H3 H 0.548056 0.837753 0.661577
C5 C 0.5169(4) 0.7682(6) 0.6515(11)
H4 H 0.523416 0.767659 0.557061
H10 H 0.368142 0.984958 0.964515
C15 C 0.4594(3) 0.9956(3) 0.9876(10)
H12 H 0.438927 0.987212 0.912604
C16 C 0.4935(3) 0.9830(3) 0.9880(10)
H13 H 0.495241 0.965614 0.914566
C27 C 0.5779(3) 0.9403(3) 0.9310(10)
H20 H 0.602688 0.967600 0.897138
C28 C 0.5688(3) 0.8988(4) 0.8738(10)
H21 H 0.587763 0.898562 0.802980
C29 C 0.5321(3) 0.8576(4) 0.9189(9)
N1 N 0.4939(3) 0.7275(4) 0.7193(8)
N6 N 0.3732(5) 0.6031(7) 0.7122(13)
O7 O 0.4204(3) 0.6903(4) 0.5034(13)
H27 H 0.388407 0.668036 0.520402
H28 H 0.427257 0.719746 0.541232
O8 O 0.4139(3) 0.6237(4) 0.7312(9)
O9 O 0.3553(4) 0.6043(6) 0.5978(14)
Zn2 Zn 0.46523(3) 0.66631(4) 0.60986(10)
O11 O 0.5080(2) 0.6411(3) 0.6804(6)
O12 O 0.4574(2) 0.6347(3) 0.4172(7)
O13 O 0.5181(3) 0.7047(4) 0.4161(7)
Zn4 Zn 0.23223(3) 0.92639(4) 0.93944(8)
H2_2 H 0.228847 0.720764 0.020047
C17_2 C 0.0038(3) 0.5280(4) 0.0962(9)
H17_2 H 0.015676 0.644076 0.222405
C26_2 C 0.0578(3) 0.6089(4) 0.0379(9)
C30_2 C 0.1407(4) 0.6455(5) 0.0277(10)
H22_2 H 0.168021 0.647972 0.061091
C31_2 C 0.0988(3) 0.6131(4) 0.0866(10)
H23_2 H 0.098252 0.594173 0.159003
C32_2 C 0.0061(4) 0.1734(5) 0.5386(9)
C35_2 C 0.0189(3) 0.2044(4) 0.2620(8)
C36_2 C 0.0474(3) 0.1898(4) 0.3211(9)
H25_2 H 0.070681 0.189578 0.268098
C37_2 C 0.0409(3) 0.1752(4) 0.4594(9)
H26_2 H 0.060848 0.166523 0.499154
C40_2 C 0.0297(4) 0.2241(5) 0.1175(8)
N5_2 N 0.0154(2) 0.5751(3) 0.0968(8)
O3_2 O 0.04623(27) 0.26783(34) 0.1107(6)
O4_2 O 0.0256(3) 0.2003(4) 0.0137(6)
O5_2 O 0.0320(3) 0.1561(4) 0.7505(7)
Zn6_2 Zn 0.00036(4) 0.13225(5) 0.94319(10)
C1_2 C 0.2702(6) 0.7561(7) 0.8528(10)
H1_2 H 0.297605 0.768572 0.903231
C2_2 C 0.2283(5) 0.7269(6) 0.9252(10)
C3_2 C 0.1873(4) 0.7079(5) 0.8543(9)
C4_2 C 0.1893(6) 0.7207(7) 0.7131(12)
H3_2 H 0.162247 0.710303 0.661577
C5_2 C 0.2318(6) 0.7487(7) 0.6515(11)
H4_2 H 0.232341 0.755757 0.557061
H10_2 H 0.015042 0.383184 0.964515
C15_2 C 0.0044(3) 0.4638(4) 0.9876(10)
H12_2 H 0.012788 0.451715 0.912604
C16_2 C 0.0170(3) 0.5105(4) 0.9880(10)
H13_2 H 0.034386 0.529627 0.914566
C27_2 C 0.0597(3) 0.6376(4) 0.9310(10)
H20_2 H 0.032400 0.635088 0.897138
C28_2 C 0.1012(4) 0.6700(5) 0.8738(10)
H21_2 H 0.101438 0.689201 0.802980
C29_2 C 0.1424(4) 0.6745(5) 0.9189(9)
N1_2 N 0.2725(4) 0.7664(5) 0.7193(8)
N6_2 N 0.3969(7) 0.7701(9) 0.7122(13)
O7_2 O 0.3097(4) 0.7301(5) 0.5034(13)
H27_2 H 0.331964 0.720371 0.520402
H28_2 H 0.280254 0.707511 0.541232
O8_2 O 0.3763(4) 0.7902(5) 0.7312(9)
O9_2 O 0.3957(6) 0.7510(7) 0.5978(14)
Zn2_2 Zn 0.33369(4) 0.79892(5) 0.60986(10)
O11_2 O 0.3589(3) 0.8670(4) 0.6804(6)
O12_2 O 0.3653(3) 0.8228(4) 0.4172(7)
O13_2 O 0.2953(4) 0.8135(5) 0.4161(7)
Zn4_2 Zn 0.07361(4) 0.30585(5) 0.93944(8)
C6_2 C 0.7871(4) 0.5897(5) 0.1719(12)
H5_2 H 0.756933 0.566563 0.152223
C7_2 C 0.8220(3) 0.5807(4) 0.1488(12)
H6_2 H 0.815148 0.552358 0.110427
C8_2 C 0.8676(3) 0.6127(4) 0.1807(10)
C9_2 C 0.8743(3) 0.6542(4) 0.2345(12)
H7_2 H 0.903942 0.677246 0.259575
C10_2 C 0.8375(4) 0.6617(5) 0.2510(12)
H8_2 H 0.843463 0.690385 0.284394
C11_2 C 0.9683(3) 0.3241(4) 0.0597(10)
H9_2 H 0.976542 0.302827 0.028391
C12_2 C 0.9898(3) 0.3681(4) 0.0244(10)
C13_2 C 0.9329(3) 0.3539(4) 0.1677(8)
H11_2 H 0.912242 0.357602 0.224230
C14_2 C 0.9798(3) 0.4357(4) 0.0970(8)
C18_2 C 0.9792(4) 0.4995(5) 0.2071(10)
H14_2 H 0.970707 0.511488 0.281974
C19_2 C 0.9671(3) 0.4532(4) 0.2074(10)
H15_2 H 0.950565 0.434274 0.282075
C20_2 C 0.9056(3) 0.6033(4) 0.1573(10)
C21_2 C 0.9504(3) 0.6327(4) 0.2083(9)
H16_2 H 0.956142 0.659020 0.258033
C22_2 C 0.9863(3) 0.6238(4) 0.1873(9)
C23_2 C 0.9786(3) 0.5849(4) 0.1144(9)
C24_2 C 0.9344(3) 0.5550(4) 0.0619(10)
H18_2 H 0.928951 0.528860 0.011575
C25_2 C 0.8985(3) 0.5639(4) 0.0842(10)
H19_2 H 0.869178 0.543340 0.049832
C33_2 C 0.9770(3) 0.1876(4) 0.4796(8)
H24_2 H 0.952845 0.186151 0.532464
C34_2 C 0.9835(3) 0.2039(4) 0.3429(8)
C38_2 C 0.9993(4) 0.1574(5) 0.6883(9)
C39_2 C 0.9519(3) 0.2190(4) 0.2793(9)
N2_2 N 0.7939(3) 0.6299(4) 0.2215(7)
N3_2 N 0.9322(2) 0.3139(3) 0.1489(7)
N4_2 N 0.9670(2) 0.3877(3) 0.0950(7)
O1_2 O 0.9342(2) 0.2355(3) 0.3669(6)
O2_2 O 0.9440(2) 0.2157(3) 0.1535(6)
O6_2 O 0.9620(4) 0.1468(5) 0.7494(7)
O10_2 O 0.8883(2) 0.28710(39) 0.4440(6)
Zn3_2 Zn 0.74028(4) 0.63918(5) 0.27277(8)
H2_3 H 0.279236 0.508083 0.020047
C6_3 C 0.4103(5) 0.1974(3) 0.1719(12)
H5_3 H 0.433437 0.190370 0.152223
C7_3 C 0.4193(4) 0.2413(3) 0.1488(12)
H6_3 H 0.447642 0.262790 0.110427
C8_3 C 0.3873(4) 0.2549(3) 0.1807(10)
C9_3 C 0.3458(4) 0.2201(3) 0.2345(12)
H7_3 H 0.322754 0.226696 0.259575
C10_3 C 0.3383(5) 0.1758(3) 0.2510(12)
H8_3 H 0.309615 0.153078 0.284394
C11_3 C 0.6759(4) 0.6442(3) 0.0597(10)
H9_3 H 0.697173 0.673715 0.028391
C12_3 C 0.6319(4) 0.6217(3) 0.0244(10)
C13_3 C 0.6461(4) 0.5790(3) 0.1677(8)
H11_3 H 0.642398 0.554640 0.224230
C14_3 C 0.5643(4) 0.5441(3) 0.0970(8)
C17_3 C 0.4720(4) 0.4758(3) 0.0962(9)
C18_3 C 0.5005(5) 0.4797(3) 0.2071(10)
H14_3 H 0.488512 0.459219 0.281974
C19_3 C 0.5468(4) 0.5139(3) 0.2074(10)
H15_3 H 0.565726 0.516291 0.282075
C20_3 C 0.3967(4) 0.3023(3) 0.1573(10)
C21_3 C 0.3673(4) 0.3177(3) 0.2083(9)
H16_3 H 0.340980 0.297122 0.258033
C22_3 C 0.3762(4) 0.3625(3) 0.1873(9)
H17_3 H 0.355924 0.371600 0.222405
C23_3 C 0.4151(4) 0.3937(3) 0.1144(9)
C24_3 C 0.4450(4) 0.3794(3) 0.0619(10)
H18_3 H 0.471140 0.400091 0.011575
C25_3 C 0.4361(4) 0.3346(3) 0.0842(10)
H19_3 H 0.456660 0.325838 0.049832
C26_3 C 0.3911(4) 0.4489(3) 0.0379(9)
C30_3 C 0.3545(5) 0.4952(3) 0.0277(10)
H22_3 H 0.352028 0.520049 0.061091
C31_3 C 0.3869(4) 0.4857(3) 0.0866(10)
H23_3 H 0.405827 0.504079 0.159003
C32_3 C 0.8266(5) 0.8327(3) 0.5386(9)
C33_3 C 0.8124(4) 0.7894(3) 0.4796(8)
H24_3 H 0.813849 0.766694 0.532464
C34_3 C 0.7961(4) 0.7796(3) 0.3429(8)
C35_3 C 0.7956(4) 0.8145(3) 0.2620(8)
C36_3 C 0.8102(4) 0.8576(3) 0.3211(9)
H25_3 H 0.810422 0.881103 0.268098
C37_3 C 0.8248(4) 0.8657(3) 0.4594(9)
H26_3 H 0.833477 0.894325 0.499154
C38_3 C 0.8426(5) 0.8419(3) 0.6883(9)
C39_3 C 0.7810(4) 0.7329(3) 0.2793(9)
C40_3 C 0.7759(5) 0.8056(3) 0.1175(8)
N3_3 N 0.6861(3) 0.6183(2) 0.1489(7)
N4_3 N 0.6123(3) 0.5793(2) 0.0950(7)
N5_3 N 0.4249(3) 0.4403(2) 0.0968(8)
O1_3 O 0.7645(3) 0.6987(2) 0.3669(6)
O2_3 O 0.7843(3) 0.7283(2) 0.1535(6)
O3_3 O 0.73217(34) 0.7784(2) 0.1107(6)
O4_3 O 0.7997(4) 0.8253(2) 0.0137(6)
O5_3 O 0.8439(4) 0.8759(2) 0.7505(7)
O6_3 O 0.8532(5) 0.8152(3) 0.7494(7)
O10_3 O 0.71290(39) 0.60116(34) 0.4440(6)
Zn6_3 Zn 0.86775(5) 0.86810(3) 0.94319(10)
C1_3 C 0.2439(7) 0.5141(4) 0.8528(10)
H1_3 H 0.231428 0.529033 0.903231
C2_3 C 0.2731(6) 0.5014(4) 0.9252(10)
C3_3 C 0.2921(5) 0.4794(3) 0.8543(9)
C4_3 C 0.2793(7) 0.4686(4) 0.7131(12)
H3_3 H 0.289697 0.451944 0.661577
C5_3 C 0.2513(7) 0.4831(4) 0.6515(11)
H4_3 H 0.244243 0.476584 0.557061
H10_3 H 0.616816 0.631858 0.964515
C15_3 C 0.5362(4) 0.5406(3) 0.9876(10)
H12_3 H 0.548285 0.561073 0.912604
C16_3 C 0.4895(4) 0.5065(3) 0.9880(10)
H13_3 H 0.470373 0.504759 0.914566
C27_3 C 0.3624(4) 0.4221(3) 0.9310(10)
H20_3 H 0.364912 0.397312 0.897138
C28_3 C 0.3300(5) 0.4312(3) 0.8738(10)
H21_3 H 0.310799 0.412237 0.802980
C29_3 C 0.3255(5) 0.4679(3) 0.9189(9)
N1_3 N 0.2336(5) 0.5061(3) 0.7193(8)
N6_3 N 0.2299(9) 0.6268(5) 0.7122(13)
O7_3 O 0.2699(5) 0.5796(3) 0.5034(13)
H27_3 H 0.279629 0.611593 0.520402
H28_3 H 0.292489 0.572743 0.541232
O8_3 O 0.2098(5) 0.5861(3) 0.7312(9)
O9_3 O 0.2490(7) 0.6447(4) 0.5978(14)
Zn2_3 Zn 0.20108(5) 0.53477(3) 0.60986(10)
O11_3 O 0.1330(4) 0.4920(2) 0.6804(6)
O12_3 O 0.1772(4) 0.5426(2) 0.4172(7)
O13_3 O 0.1865(5) 0.4819(3) 0.4161(7)
Zn4_3 Zn 0.69415(5) 0.76777(3) 0.93944(8)
C1_4 C 0.1526(4) 0.0631(6) 0.1861(10)
H1_4 H 0.137634 0.035728 0.236564
C2_4 C 0.1653(4) 0.1050(5) 0.2585(10)
H2_4 H 0.158584 0.104486 0.353380
C3_4 C 0.1873(3) 0.1460(4) 0.1876(9)
C4_4 C 0.1981(4) 0.1440(6) 0.0464(12)
C6_4 C 0.4693(3) 0.5462(4) 0.5052(12)
H5_4 H 0.476297 0.576400 0.485556
C7_4 C 0.4254(3) 0.5113(3) 0.4821(12)
H6_4 H 0.403877 0.518185 0.443760
C8_4 C 0.4118(3) 0.4657(3) 0.5140(10)
C9_4 C 0.4466(3) 0.4590(3) 0.5678(12)
H7_4 H 0.439971 0.429391 0.592908
C10_4 C 0.4909(3) 0.4958(4) 0.5843(12)
H8_4 H 0.513589 0.489870 0.617727
C11_4 C 0.0225(3) 0.3650(3) 0.3930(10)
C12_4 C 0.0450(3) 0.3435(3) 0.3577(10)
H10_4 H 0.034809 0.318291 0.297848
C13_4 C 0.0877(3) 0.4004(3) 0.5010(8)
H11_4 H 0.112027 0.421091 0.557563
C14_4 C 0.1226(3) 0.3535(3) 0.4303(8)
C15_4 C 0.1261(3) 0.3289(3) 0.3209(10)
H12_4 H 0.105594 0.320545 0.245937
C16_4 C 0.1602(3) 0.3163(3) 0.3213(10)
H13_4 H 0.161908 0.298947 0.247899
C17_4 C 0.1909(3) 0.3295(3) 0.4295(9)
C18_4 C 0.1870(3) 0.3541(4) 0.5404(10)
H14_4 H 0.207448 0.362626 0.615307
C19_4 C 0.1528(3) 0.3662(3) 0.5407(10)
H15_4 H 0.150376 0.382768 0.615408
C20_4 C 0.3644(3) 0.4277(3) 0.4906(10)
C21_4 C 0.3490(3) 0.3829(3) 0.5416(9)
H16_4 H 0.369545 0.377191 0.591366
C22_4 C 0.3042(3) 0.3470(3) 0.5206(9)
H17_4 H 0.295067 0.317657 0.555738
C23_4 C 0.2730(3) 0.3547(3) 0.4477(9)
C24_4 C 0.2873(3) 0.3989(3) 0.3952(10)
H18_4 H 0.266576 0.404382 0.344908
C25_4 C 0.3321(3) 0.4348(3) 0.4175(10)
H19_4 H 0.340829 0.464155 0.383165
C26_4 C 0.2178(3) 0.2755(3) 0.3712(9)
C27_4 C 0.2446(3) 0.2736(3) 0.2643(10)
H20_4 H 0.269355 0.300933 0.230471
C28_4 C 0.2355(3) 0.2321(4) 0.2071(10)
H21_4 H 0.254430 0.231895 0.136313
C29_4 C 0.1988(3) 0.1909(4) 0.2522(9)
C30_4 C 0.1715(3) 0.1926(4) 0.3610(10)
H22_4 H 0.146618 0.165312 0.394424
C31_4 C 0.1810(3) 0.2345(3) 0.4199(10)
H23_4 H 0.162588 0.235081 0.492336
N1_4 N 0.1606(3) 0.0608(4) 0.0526(8)
N2_3 N 0.5027(2) 0.5394(3) 0.5548(7)
N3_4 N 0.0484(2) 0.4011(2) 0.4822(7)
N4_4 N 0.0874(2) 0.3663(2) 0.4283(7)
N5_4 N 0.2264(2) 0.3179(2) 0.4301(8)
Zn1_2 Zn 0.02749(3) 0.43443(3) 0.60610(8)
N7_2 N 0.0368(4) 0.4973(2) 0.5548(7)
O10_4 O 0.06550(34) 0.4451(2) 0.7774(6)
Zn3_3 Zn 0.56557(3) 0.59305(4) 0.60610(8)
H3_4 H 0.214723 0.171086 0.994910
C5_4 C 0.1836(4) 0.1015(6) 0.9848(11)
H4_4 H 0.190083 0.100992 0.890394
O7_4 O 0.0871(3) 0.0236(4) 0.8367(13)
H27_4 H 0.055074 0.001369 0.853735
H28_4 H 0.093924 0.053079 0.874565
N6_4 N 0.0399(5) 0.9364(7) 0.0455(13)
O8_4 O 0.0806(3) 0.9570(4) 0.0645(9)
O9_4 O 0.0220(4) 0.9376(6) 0.9311(14)
C38_4 C 0.8248(3) 0.3340(4) 0.0216(9)
O5_4 O 0.7908(2) 0.3013(3) 0.0838(7)
O6_4 O 0.8515(3) 0.3713(4) 0.0827(7)
Zn6_4 Zn 0.79856(3) 0.33298(4) 0.27653(10)
H9_4 H 0.992952 0.356791 0.361724
C32_4 C 0.8340(3) 0.3272(4) 0.8719(9)
C33_4 C 0.8773(3) 0.3563(3) 0.8129(8)
H24_4 H 0.899973 0.380488 0.865797
C34_4 C 0.8871(3) 0.3498(3) 0.6762(8)
C35_4 C 0.8522(3) 0.3144(3) 0.5953(8)
C36_4 C 0.8091(3) 0.2859(3) 0.6544(9)
H25_4 H 0.785564 0.262652 0.601431
C37_4 C 0.8010(3) 0.2924(3) 0.7927(9)
H26_4 H 0.772342 0.272485 0.832487
C39_4 C 0.9338(3) 0.3814(3) 0.6126(9)
C40_4 C 0.8611(3) 0.3036(4) 0.4508(8)
O1_4 O 0.9680(2) 0.3991(2) 0.7002(6)
O2_4 O 0.9384(2) 0.3893(2) 0.4868(6)
O4_4 O 0.8414(2) 0.3077(3) 0.3470(6)
N6_5 N 0.0636(7) 0.1034(9) 0.0455(13)
O8_5 O 0.0430(4) 0.1235(5) 0.0645(9)
O9_5 O 0.0624(6) 0.0843(7) 0.9311(14)
H3_5 H 0.828914 0.043636 0.994910
C5_5 C 0.8985(6) 0.0820(7) 0.9848(11)
H4_5 H 0.899008 0.089090 0.890394
O7_5 O 0.9764(4) 0.0634(5) 0.8367(13)
H27_5 H 0.998631 0.053704 0.853735
H28_5 H 0.946921 0.040844 0.874565
C38_5 C 0.6660(4) 0.4907(5) 0.0216(9)
O5_5 O 0.6987(3) 0.4894(4) 0.0838(7)
O6_5 O 0.6287(4) 0.4801(5) 0.0827(7)
Zn6_5 Zn 0.66702(4) 0.46559(5) 0.27653(10)
C6_5 C 0.4538(4) 0.9230(5) 0.5052(12)
H5_5 H 0.423600 0.899896 0.485556
C7_5 C 0.4887(3) 0.9140(4) 0.4821(12)
H6_5 H 0.481815 0.885691 0.443760
C8_5 C 0.5343(3) 0.9460(4) 0.5140(10)
C9_5 C 0.5410(3) 0.9875(4) 0.5678(12)
C10_5 C 0.5042(4) 0.9950(5) 0.5843(12)
C11_5 C 0.6350(3) 0.6574(4) 0.3930(10)
H9_5 H 0.643209 0.636160 0.361724
C12_5 C 0.6565(3) 0.7014(4) 0.3577(10)
H10_5 H 0.681709 0.716517 0.297848
C13_5 C 0.5996(3) 0.6872(4) 0.5010(8)
H11_5 H 0.578909 0.690935 0.557563
C14_5 C 0.6465(3) 0.7690(4) 0.4303(8)
C15_5 C 0.6711(3) 0.7971(4) 0.3209(10)
H12_5 H 0.679455 0.785048 0.245937
C16_5 C 0.6837(3) 0.8438(4) 0.3213(10)
H13_5 H 0.701053 0.862960 0.247899
C17_5 C 0.6705(3) 0.8613(4) 0.4295(9)
C18_5 C 0.6459(4) 0.8328(5) 0.5404(10)
H14_5 H 0.637374 0.844821 0.615307
C19_5 C 0.6338(3) 0.7865(4) 0.5407(10)
H15_5 H 0.617232 0.767607 0.615408
C20_5 C 0.5723(3) 0.9366(4) 0.4906(10)
C21_5 C 0.6171(3) 0.9660(4) 0.5416(9)
H16_5 H 0.622809 0.992353 0.591366
C22_5 C 0.6530(3) 0.9571(4) 0.5206(9)
H17_5 H 0.682343 0.977409 0.555738
C23_5 C 0.6453(3) 0.9182(4) 0.4477(9)
C24_5 C 0.6011(3) 0.8883(4) 0.3952(10)
H18_5 H 0.595618 0.862193 0.344908
C25_5 C 0.5652(3) 0.8972(4) 0.4175(10)
H19_5 H 0.535845 0.876673 0.383165
C26_5 C 0.7245(3) 0.9422(4) 0.3712(9)
C27_5 C 0.7264(3) 0.9709(4) 0.2643(10)
H20_5 H 0.699067 0.968421 0.230471
C30_5 C 0.8074(4) 0.9788(5) 0.3610(10)
H22_5 H 0.834688 0.981305 0.394424
C31_5 C 0.7655(3) 0.9464(4) 0.4199(10)
H23_5 H 0.764919 0.927506 0.492336
C32_5 C 0.6728(4) 0.5067(5) 0.8719(9)
C33_5 C 0.6437(3) 0.5209(4) 0.8129(8)
H24_5 H 0.619512 0.519484 0.865797
C34_5 C 0.6502(3) 0.5372(4) 0.6762(8)
C35_5 C 0.6856(3) 0.5377(4) 0.5953(8)
C36_5 C 0.7141(3) 0.5231(4) 0.6544(9)
H25_5 H 0.737348 0.522911 0.601431
C37_5 C 0.7076(3) 0.5085(4) 0.7927(9)
H26_5 H 0.727515 0.499856 0.832487
C39_5 C 0.6186(3) 0.5523(4) 0.6126(9)
C40_5 C 0.6964(4) 0.5574(5) 0.4508(8)
N2_4 N 0.4606(3) 0.9632(4) 0.5548(7)
N3_5 N 0.5989(2) 0.6472(3) 0.4822(7)
N4_5 N 0.6337(2) 0.7210(3) 0.4283(7)
N5_5 N 0.6821(2) 0.9084(3) 0.4301(8)
O1_5 O 0.6009(2) 0.5688(3) 0.7002(6)
O2_5 O 0.6107(2) 0.5490(3) 0.4868(6)
O4_5 O 0.6923(3) 0.5336(4) 0.3470(6)
O10_5 O 0.5549(2) 0.62044(39) 0.7774(6)
Zn3_4 Zn 0.40695(4) 0.97251(5) 0.60610(8)
C38_6 C 0.5093(5) 0.1752(3) 0.0216(9)
O5_6 O 0.5106(4) 0.2092(2) 0.0838(7)
O6_6 O 0.5199(5) 0.1485(3) 0.0827(7)
Zn6_6 Zn 0.53441(5) 0.20144(3) 0.27653(10)
H9_6 H 0.363840 0.007048 0.361724
C32_6 C 0.4933(5) 0.1660(3) 0.8719(9)
C33_6 C 0.4791(4) 0.1227(3) 0.8129(8)
H24_6 H 0.480516 0.100027 0.865797
C34_6 C 0.4628(4) 0.1129(3) 0.6762(8)
C35_6 C 0.4623(4) 0.1478(3) 0.5953(8)
C36_6 C 0.4769(4) 0.1909(3) 0.6544(9)
H25_6 H 0.477089 0.214436 0.601431
C37_6 C 0.4915(4) 0.1990(3) 0.7927(9)
H26_6 H 0.500144 0.227658 0.832487
C39_6 C 0.4477(4) 0.0662(3) 0.6126(9)
C40_6 C 0.4426(5) 0.1389(3) 0.4508(8)
O1_6 O 0.4312(3) 0.0320(2) 0.7002(6)
O2_6 O 0.4510(3) 0.0616(2) 0.4868(6)
O4_6 O 0.4664(4) 0.1586(2) 0.3470(6)
C6_6 C 0.0770(5) 0.5307(3) 0.5052(12)
H5_6 H 0.100104 0.523703 0.485556
C7_6 C 0.0860(4) 0.5746(3) 0.4821(12)
H6_6 H 0.114309 0.596123 0.443760
C8_6 C 0.0540(4) 0.5882(3) 0.5140(10)
C9_6 C 0.0125(4) 0.5534(3) 0.5678(12)
C10_6 C 0.0050(5) 0.5091(3) 0.5843(12)
C11_6 C 0.3426(4) 0.9775(3) 0.3930(10)
C12_6 C 0.2986(4) 0.9550(3) 0.3577(10)
H10_6 H 0.283483 0.965191 0.297848
C13_6 C 0.3128(4) 0.9123(3) 0.5010(8)
H11_6 H 0.309065 0.887973 0.557563
C14_6 C 0.2310(4) 0.8774(3) 0.4303(8)
C15_6 C 0.2029(4) 0.8739(3) 0.3209(10)
H12_6 H 0.214952 0.894406 0.245937
C16_6 C 0.1562(4) 0.8398(3) 0.3213(10)
H13_6 H 0.137040 0.838092 0.247899
C17_6 C 0.1387(4) 0.8091(3) 0.4295(9)
C18_6 C 0.1672(5) 0.8130(3) 0.5404(10)
H14_6 H 0.155179 0.792552 0.615307
C19_6 C 0.2135(4) 0.8472(3) 0.5407(10)
H15_6 H 0.232393 0.849624 0.615408
C20_6 C 0.0634(4) 0.6356(3) 0.4906(10)
C21_6 C 0.0340(4) 0.6510(3) 0.5416(9)
H16_6 H 0.007647 0.630455 0.591366
C22_6 C 0.0429(4) 0.6958(3) 0.5206(9)
H17_6 H 0.022591 0.704933 0.555738
C23_6 C 0.0818(4) 0.7270(3) 0.4477(9)
C24_6 C 0.1117(4) 0.7127(3) 0.3952(10)
H18_6 H 0.137807 0.733424 0.344908
C25_6 C 0.1028(4) 0.6679(3) 0.4175(10)
H19_6 H 0.123327 0.659171 0.383165
C26_6 C 0.0578(4) 0.7822(3) 0.3712(9)
C27_6 C 0.0291(4) 0.7554(3) 0.2643(10)
H20_6 H 0.031579 0.730645 0.230471
C30_6 C 0.0212(5) 0.8285(3) 0.3610(10)
H22_6 H 0.018695 0.853382 0.394424
C31_6 C 0.0536(4) 0.8190(3) 0.4199(10)
H23_6 H 0.072494 0.837412 0.492336
N3_6 N 0.3528(3) 0.9516(2) 0.4822(7)
N4_6 N 0.2790(3) 0.9126(2) 0.4283(7)
N5_6 N 0.0916(3) 0.7736(2) 0.4301(8)
O10_6 O 0.37956(39) 0.93450(34) 0.7774(6)
C1_5 C 0.9106(7) 0.8474(4) 0.1861(10)
H1_5 H 0.898095 0.862366 0.236564
C2_5 C 0.9398(6) 0.8347(4) 0.2585(10)
H2_5 H 0.945903 0.841416 0.353380
C3_5 C 0.9588(5) 0.8127(3) 0.1876(9)
C4_5 C 0.9460(7) 0.8019(4) 0.0464(12)
H7_5 H 0.989421 0.560029 0.592908
H8_5 H 0.976282 0.486411 0.617727
C28_5 C 0.9967(5) 0.7645(3) 0.2071(10)
H21_5 H 0.977466 0.745570 0.136313
C29_5 C 0.9922(5) 0.8012(3) 0.2522(9)
N1_5 N 0.9003(5) 0.8394(3) 0.0526(8)
N6_6 N 0.8966(9) 0.9601(5) 0.0455(13)
O8_6 O 0.8765(5) 0.9194(3) 0.0645(9)
H3_6 H 0.956364 0.785277 0.994910
C5_6 C 0.9180(7) 0.8164(4) 0.9848(11)
H4_6 H 0.910910 0.809917 0.890394
O7_6 O 0.9366(5) 0.9129(3) 0.8367(13)
H27_6 H 0.946296 0.944926 0.853735
H28_6 H 0.959156 0.906076 0.874565
O9_6 O 0.9157(7) 0.9780(4) 0.9311(14)
C6_7 C 0.1359(3) 0.8796(4) 0.8386(12)
H5_7 H 0.142963 0.909734 0.818890
C7_7 C 0.0920(3) 0.8447(3) 0.8155(12)
H6_7 H 0.070543 0.851519 0.777094
C8_7 C 0.0784(3) 0.7991(3) 0.8474(10)
C9_7 C 0.1132(3) 0.7924(3) 0.9012(12)
H7_6 H 0.106637 0.762725 0.926242
C10_7 C 0.1575(3) 0.8292(4) 0.9177(12)
H8_6 H 0.180255 0.823204 0.951061
C20_7 C 0.0310(3) 0.7611(3) 0.8240(10)
C21_7 C 0.0156(3) 0.7163(3) 0.8750(9)
H16_7 H 0.036211 0.710525 0.924700
H19_7 H 0.007495 0.797489 0.716499
N2_5 N 0.1693(2) 0.8728(3) 0.8882(7)
C32_7 C 0.5006(3) 0.6606(4) 0.2053(9)
C33_7 C 0.5439(3) 0.6897(3) 0.1463(8)
H24_7 H 0.566639 0.713822 0.199131
C34_7 C 0.5537(3) 0.6832(3) 0.0096(8)
C37_7 C 0.4676(3) 0.6258(3) 0.1261(9)
H26_7 H 0.439008 0.605819 0.165821
C38_7 C 0.4914(3) 0.6674(4) 0.3550(9)
O1_7 O 0.6346(2) 0.7325(2) 0.0336(6)
C1_6 C 0.8192(4) 0.3965(6) 0.5195(10)
H1_6 H 0.804300 0.369062 0.569898
C2_6 C 0.8319(4) 0.4384(5) 0.5919(10)
H2_6 H 0.825250 0.437820 0.686714
C3_6 C 0.8539(3) 0.4794(4) 0.5210(9)
C4_6 C 0.8647(4) 0.4774(6) 0.3798(12)
H3_7 H 0.881389 0.504420 0.328244
C5_7 C 0.8502(4) 0.4349(6) 0.3182(11)
H4_7 H 0.856749 0.434326 0.223728
C11_7 C 0.6891(3) 0.6984(3) 0.7264(10)
H9_7 H 0.659618 0.690125 0.695058
C12_7 C 0.7116(3) 0.6769(3) 0.6911(10)
H10_7 H 0.701475 0.651625 0.631182
C13_7 C 0.7543(3) 0.7338(3) 0.8344(8)
H11_7 H 0.778693 0.754425 0.890897
C14_7 C 0.7892(3) 0.6869(3) 0.7637(8)
C15_7 C 0.7927(3) 0.6623(3) 0.6543(10)
H12_7 H 0.772260 0.653879 0.579271
C16_7 C 0.8268(3) 0.6497(3) 0.6547(10)
H13_7 H 0.828574 0.632281 0.581233
C17_7 C 0.8575(3) 0.6629(3) 0.7629(9)
C18_7 C 0.8536(3) 0.6875(4) 0.8738(10)
H14_7 H 0.874114 0.695960 0.948641
C19_7 C 0.8194(3) 0.6996(3) 0.8741(10)
H15_7 H 0.817042 0.716102 0.948742
C22_7 C 0.9708(3) 0.6804(3) 0.8540(9)
H17_7 H 0.961733 0.650991 0.889072
C23_7 C 0.9396(3) 0.6881(3) 0.7811(9)
C24_7 C 0.9539(3) 0.7323(3) 0.7286(10)
H18_7 H 0.933242 0.737716 0.678242
C25_7 C 0.9987(3) 0.7682(3) 0.7509(10)
C26_7 C 0.8844(3) 0.6089(3) 0.7046(9)
C27_7 C 0.9112(3) 0.6070(3) 0.5977(10)
H20_7 H 0.936021 0.634267 0.563805
C28_6 C 0.9021(3) 0.5655(4) 0.5405(10)
H21_6 H 0.921096 0.565229 0.469647
C29_6 C 0.8654(3) 0.5243(4) 0.5856(9)
C30_7 C 0.8381(3) 0.5260(4) 0.6944(10)
H22_7 H 0.813284 0.498646 0.727758
C31_7 C 0.8476(3) 0.5679(3) 0.7533(10)
H23_7 H 0.829254 0.568415 0.825670
C35_7 C 0.5188(3) 0.6478(3) 0.9287(8)
C36_7 C 0.4757(3) 0.6193(3) 0.9878(9)
H25_7 H 0.452230 0.595986 0.934765
C39_7 C 0.6004(3) 0.7148(3) 0.9460(9)
C40_7 C 0.5277(3) 0.6370(4) 0.7842(8)
N1_6 N 0.8272(3) 0.3942(4) 0.3860(8)
N3_7 N 0.7150(2) 0.7345(2) 0.8156(7)
N4_7 N 0.7540(2) 0.6997(2) 0.7617(7)
N5_7 N 0.8930(2) 0.6513(2) 0.7635(8)
O2_7 O 0.6050(2) 0.7227(2) 0.8202(6)
N6_7 N 0.7065(5) 0.2698(7) 0.3789(13)
O7_7 O 0.7537(3) 0.3570(4) 0.1701(13)
H27_7 H 0.721740 0.334703 0.187069
H28_7 H 0.760590 0.386413 0.207899
O8_7 O 0.7472(3) 0.2904(4) 0.3979(9)
O9_7 O 0.6886(4) 0.2710(6) 0.2645(14)
N7_3 N 0.7034(4) 0.8307(2) 0.8882(7)
C1_7 C 0.6035(6) 0.4228(7) 0.5195(10)
H1_7 H 0.630938 0.435239 0.569898
C2_7 C 0.5616(5) 0.3936(6) 0.5919(10)
H2_7 H 0.562180 0.387431 0.686714
C3_7 C 0.5206(4) 0.3746(5) 0.5210(9)
C4_7 C 0.5226(6) 0.3874(7) 0.3798(12)
H3_8 H 0.495580 0.376970 0.328244
C5_8 C 0.5651(6) 0.4154(7) 0.3182(11)
H4_8 H 0.565674 0.422424 0.223728
C6_8 C 0.1204(4) 0.2564(5) 0.8386(12)
H5_8 H 0.090266 0.233230 0.818890
C7_8 C 0.1553(3) 0.2474(4) 0.8155(12)
H6_8 H 0.148481 0.219025 0.777094
C8_8 C 0.2009(3) 0.2794(4) 0.8474(10)
C9_8 C 0.2076(3) 0.3209(4) 0.9012(12)
H7_7 H 0.237275 0.343913 0.926242
C10_8 C 0.1708(4) 0.3284(5) 0.9177(12)
H8_7 H 0.176796 0.357052 0.951061
C12_8 C 0.3231(3) 0.0348(4) 0.6911(10)
H10_8 H 0.348375 0.049851 0.631182
C13_8 C 0.2662(3) 0.0206(4) 0.8344(8)
H11_8 H 0.245575 0.024269 0.890897
C14_8 C 0.3131(3) 0.1024(4) 0.7637(8)
C15_8 C 0.3377(3) 0.1305(4) 0.6543(10)
H12_8 H 0.346121 0.118382 0.579271
C16_8 C 0.3503(3) 0.1772(4) 0.6547(10)
H13_8 H 0.367719 0.196294 0.581233
C17_8 C 0.3371(3) 0.1947(4) 0.7629(9)
C18_8 C 0.3125(4) 0.1662(5) 0.8738(10)
H14_8 H 0.304040 0.178155 0.948641
C19_8 C 0.3004(3) 0.1199(4) 0.8741(10)
H15_8 H 0.283898 0.100941 0.948742
C20_8 C 0.2389(3) 0.2700(4) 0.8240(10)
C21_8 C 0.2837(3) 0.2994(4) 0.8750(9)
H16_8 H 0.289475 0.325687 0.924700
C22_8 C 0.3196(3) 0.2905(4) 0.8540(9)
H17_8 H 0.349009 0.310743 0.889072
C23_8 C 0.3119(3) 0.2516(4) 0.7811(9)
C24_8 C 0.2677(3) 0.2217(4) 0.7286(10)
H18_8 H 0.262284 0.195527 0.678242
C25_8 C 0.2318(3) 0.2306(4) 0.7509(10)
H19_8 H 0.202511 0.210007 0.716499
C26_8 C 0.3911(3) 0.2756(4) 0.7046(9)
C27_8 C 0.3930(3) 0.3043(4) 0.5977(10)
H20_8 H 0.365733 0.301755 0.563805
C28_7 C 0.4345(4) 0.3367(5) 0.5405(10)
H21_7 H 0.434771 0.355868 0.469647
C29_7 C 0.4757(4) 0.3412(5) 0.5856(9)
C30_8 C 0.4740(4) 0.3122(5) 0.6944(10)
H22_8 H 0.501354 0.314639 0.727758
C31_8 C 0.4321(3) 0.2798(4) 0.7533(10)
H23_8 H 0.431585 0.260840 0.825670
N1_7 N 0.6058(4) 0.4331(5) 0.3860(8)
N2_6 N 0.1272(3) 0.2966(4) 0.8882(7)
N4_8 N 0.3003(2) 0.0544(3) 0.7617(7)
N5_8 N 0.3487(2) 0.2418(3) 0.7635(8)
N6_8 N 0.7302(7) 0.4368(9) 0.3789(13)
O7_8 O 0.6430(4) 0.3968(5) 0.1701(13)
H27_8 H 0.665297 0.387038 0.187069
H28_8 H 0.613587 0.374178 0.207899
O8_8 O 0.7096(4) 0.4569(5) 0.3979(9)
O9_8 O 0.7290(6) 0.4177(7) 0.2645(14)
C32_8 C 0.3394(4) 0.8401(5) 0.2053(9)
C33_8 C 0.3103(3) 0.8543(4) 0.1463(8)
H24_8 H 0.286178 0.852818 0.199131
C34_8 C 0.3168(3) 0.8706(4) 0.0096(8)
C37_8 C 0.3742(3) 0.8419(4) 0.1261(9)
H26_8 H 0.394181 0.833190 0.165821
C38_8 C 0.3326(4) 0.8241(5) 0.3550(9)
O1_8 O 0.2675(2) 0.9022(3) 0.0336(6)
C11_8 C 0.3016(3) 0.9908(4) 0.7264(10)
H9_8 H 0.309875 0.969494 0.695058
C35_8 C 0.3522(3) 0.8711(4) 0.9287(8)
C36_8 C 0.3807(3) 0.8565(4) 0.9878(9)
H25_8 H 0.404014 0.856245 0.934765
C39_8 C 0.2852(3) 0.8857(4) 0.9460(9)
C40_8 C 0.3630(4) 0.8908(5) 0.7842(8)
N3_8 N 0.2655(2) 0.9806(3) 0.8156(7)
O2_8 O 0.2773(2) 0.8824(3) 0.8202(6)
C32_9 C 0.1599(5) 0.4994(3) 0.2053(9)
C33_9 C 0.1457(4) 0.4561(3) 0.1463(8)
H24_9 H 0.147182 0.433361 0.199131
C34_9 C 0.1294(4) 0.4463(3) 0.0096(8)
C37_9 C 0.1581(4) 0.5324(3) 0.1261(9)
H26_9 H 0.166810 0.560992 0.165821
C38_9 C 0.1759(5) 0.5086(3) 0.3550(9)
O1_9 O 0.0978(3) 0.3654(2) 0.0336(6)
C11_9 C 0.0092(4) 0.3109(3) 0.7264(10)
H9_9 H 0.030506 0.340382 0.695058
C35_9 C 0.1289(4) 0.4812(3) 0.9287(8)
C36_9 C 0.1435(4) 0.5243(3) 0.9878(9)
H25_9 H 0.143755 0.547770 0.934765
C39_9 C 0.1143(4) 0.3996(3) 0.9460(9)
C40_9 C 0.1092(5) 0.4723(3) 0.7842(8)
N3_9 N 0.0194(3) 0.2850(2) 0.8156(7)
O2_9 O 0.1176(3) 0.3950(2) 0.8202(6)
C1_8 C 0.5772(7) 0.1808(4) 0.5195(10)
H1_8 H 0.564761 0.195700 0.569898
C2_8 C 0.6064(6) 0.1681(4) 0.5919(10)
H2_8 H 0.612569 0.174750 0.686714
C3_8 C 0.6254(5) 0.1461(3) 0.5210(9)
C4_8 C 0.6126(7) 0.1353(4) 0.3798(12)
H3_9 H 0.623030 0.118611 0.328244
C5_9 C 0.5846(7) 0.1498(4) 0.3182(11)
H4_9 H 0.577576 0.143251 0.223728
C12_9 C 0.9652(4) 0.2884(3) 0.6911(10)
H10_9 H 0.950149 0.298525 0.631182
C13_9 C 0.9794(4) 0.2457(3) 0.8344(8)
H11_9 H 0.975731 0.221307 0.890897
C14_9 C 0.8976(4) 0.2108(3) 0.7637(8)
C15_9 C 0.8695(4) 0.2073(3) 0.6543(10)
H12_9 H 0.881618 0.227740 0.579271
C16_9 C 0.8228(4) 0.1732(3) 0.6547(10)
H13_9 H 0.803706 0.171426 0.581233
C17_9 C 0.8053(4) 0.1425(3) 0.7629(9)
C18_9 C 0.8338(5) 0.1464(3) 0.8738(10)
H14_9 H 0.821845 0.125886 0.948641
C19_9 C 0.8801(4) 0.1806(3) 0.8741(10)
H15_9 H 0.899059 0.182958 0.948742
C22_9 C 0.7095(4) 0.0292(3) 0.8540(9)
H17_9 H 0.689257 0.038267 0.889072
C23_9 C 0.7484(4) 0.0604(3) 0.7811(9)
C24_9 C 0.7783(4) 0.0461(3) 0.7286(10)
H18_9 H 0.804473 0.066758 0.678242
C25_9 C 0.7694(4) 0.0013(3) 0.7509(10)
C26_9 C 0.7244(4) 0.1156(3) 0.7046(9)
C27_9 C 0.6957(4) 0.0888(3) 0.5977(10)
H20_9 H 0.698245 0.063979 0.563805
C28_8 C 0.6633(5) 0.0979(3) 0.5405(10)
H21_8 H 0.644132 0.078904 0.469647
C29_8 C 0.6588(5) 0.1346(3) 0.5856(9)
C30_9 C 0.6878(5) 0.1619(3) 0.6944(10)
H22_9 H 0.685361 0.186716 0.727758
C31_9 C 0.7202(4) 0.1524(3) 0.7533(10)
H23_9 H 0.739160 0.170746 0.825670
N1_8 N 0.5669(5) 0.1728(3) 0.3860(8)
N4_9 N 0.9456(3) 0.2460(2) 0.7617(7)
N5_9 N 0.7582(3) 0.1070(2) 0.7635(8)
N6_9 N 0.5632(9) 0.2935(5) 0.3789(13)
O7_9 O 0.6032(5) 0.2463(3) 0.1701(13)
H27_9 H 0.612962 0.278260 0.187069
H28_9 H 0.625822 0.239410 0.207899
O8_9 O 0.5431(5) 0.2528(3) 0.3979(9)
O9_9 O 0.5823(7) 0.3114(4) 0.2645(14)
C6_9 C 0.7436(5) 0.8641(3) 0.8386(12)
H5_9 H 0.766770 0.857037 0.818890
C7_9 C 0.7526(4) 0.9080(3) 0.8155(12)
H6_9 H 0.780975 0.929457 0.777094
C8_9 C 0.7206(4) 0.9216(3) 0.8474(10)
C9_9 C 0.6791(4) 0.8868(3) 0.9012(12)
H7_8 H 0.656087 0.893363 0.926242
C10_9 C 0.6716(5) 0.8425(3) 0.9177(12)
H8_8 H 0.642948 0.819745 0.951061
C20_9 C 0.7300(4) 0.9690(3) 0.8240(10)
C21_9 C 0.7006(4) 0.9844(3) 0.8750(9)
H16_9 H 0.674313 0.963789 0.924700
H19_9 H 0.789993 0.992505 0.716499
C1_9 C 0.9369(6) 0.0894(7) 0.1861(10)
H1_9 H 0.964272 0.101905 0.236564
C2_9 C 0.8950(5) 0.0602(6) 0.2585(10)
H2_9 H 0.895514 0.054097 0.353380
C3_9 C 0.8540(4) 0.0412(5) 0.1876(9)
C4_9 C 0.8560(6) 0.0540(7) 0.0464(12)
H7_9 H 0.570609 0.010579 0.592908
H8_9 H 0.510130 0.023718 0.617727
C28_9 C 0.7679(4) 0.0033(5) 0.2071(10)
H21_9 H 0.768105 0.022534 0.136313
C29_9 C 0.8091(4) 0.0078(5) 0.2522(9)
N1_9 N 0.9392(4) 0.0997(5) 0.0526(8)
loop_
_geom_bond_atom_site_label_1
_geom_bond_atom_site_label_2
_geom_bond_site_symmetry_1
_geom_bond_site_symmetry_2
C6 H5 1_555 1_555
C7 C6 1_555 1_555
H6 C7 1_555 1_555
C8 C7 1_555 1_555
C9 C8 1_555 1_555
H7 C9 1_555 1_555
C10 C9 1_555 1_555
H8 C10 1_555 1_555
C11 H9 1_555 1_555
C12 C11 1_555 1_555
C13 H11 1_555 1_555
H14 C18 1_555 1_555
C19 C14 1_555 1_555
H15 C19 1_555 1_555
C20 C8 1_555 1_555
C21 C20 1_555 1_555
H16 C21 1_555 1_555
C22 C21 1_555 1_555
C23 C22 1_555 1_555
C24 C23 1_555 1_555
H18 C24 1_555 1_555
C25 C20 1_555 1_555
H19 C25 1_555 1_555
C33 H24 1_555 1_555
C34 C33 1_555 1_555
C39 C34 1_555 1_555
N2 C6 1_555 1_555
N3 C11 1_555 1_555
N4 C12 1_555 1_555
O1 C39 1_555 1_555
O2 C39 1_555 1_555
O6 C38 1_555 1_555
Zn1 N3 1_555 1_555
N7 Zn1 1_555 1_555
O10 Zn1 1_555 1_555
Zn3 N2 1_555 1_555
C10 N2 1_555 1_555
C13 N3 1_555 1_555
C13 N4 1_555 1_555
C14 N4 1_555 1_555
C18 C19 1_555 1_555
C24 C25 1_555 1_555
O1 Zn1 1_555 1_555
H22 C30 1_555 1_555
C31 C26 1_555 1_555
H23 C31 1_555 1_555
C36 C35 1_555 1_555
H25 C36 1_555 1_555
C37 C32 1_555 1_555
H26 C37 1_555 1_555
C40 C35 1_555 1_555
N5 C17 1_555 1_555
O3 C40 1_555 1_555
O4 C40 1_555 1_555
Zn6 O5 1_555 1_555
C26 N5 1_555 1_555
C30 C31 1_555 1_555
C36 C37 1_555 1_555
C1 H1 1_555 1_555
C2 C1 1_555 1_555
C3 C2 1_555 1_555
C4 C3 1_555 1_555
H3 C4 1_555 1_555
C5 C4 1_555 1_555
H4 C5 1_555 1_555
C15 H12 1_555 1_555
C16 C15 1_555 1_555
H13 C16 1_555 1_555
C27 H20 1_555 1_555
C28 C27 1_555 1_555
H21 C28 1_555 1_555
C29 C3 1_555 1_555
N1 C1 1_555 1_555
N6 O8 1_555 1_555
O7 H27 1_555 1_555
H28 O7 1_555 1_555
O8 Zn2 1_555 1_555
O9 N6 1_555 1_555
Zn2 N1 1_555 1_555
O11 Zn2 1_555 1_555
O12 Zn2 1_555 1_555
O13 Zn2 1_555 1_555
C5 N1 1_555 1_555
C28 C29 1_555 1_555
O7 Zn2 1_555 1_555
H22_2 C30_2 1_555 1_555
C31_2 C26_2 1_555 1_555
H23_2 C31_2 1_555 1_555
C36_2 C35_2 1_555 1_555
H25_2 C36_2 1_555 1_555
C37_2 C32_2 1_555 1_555
H26_2 C37_2 1_555 1_555
C40_2 C35_2 1_555 1_555
N5_2 C17_2 1_555 1_555
O3_2 C40_2 1_555 1_555
O4_2 C40_2 1_555 1_555
Zn6_2 O5_2 1_555 1_555
C26_2 N5_2 1_555 1_555
C30_2 C31_2 1_555 1_555
C36_2 C37_2 1_555 1_555
C1_2 H1_2 1_555 1_555
C2_2 C1_2 1_555 1_555
C3_2 C2_2 1_555 1_555
C4_2 C3_2 1_555 1_555
H3_2 C4_2 1_555 1_555
C5_2 C4_2 1_555 1_555
H4_2 C5_2 1_555 1_555
C15_2 H12_2 1_555 1_555
C16_2 C15_2 1_555 1_555
H13_2 C16_2 1_555 1_555
C27_2 H20_2 1_555 1_555
C28_2 C27_2 1_555 1_555
H21_2 C28_2 1_555 1_555
C29_2 C3_2 1_555 1_555
N1_2 C1_2 1_555 1_555
N6_2 O8_2 1_555 1_555
O7_2 H27_2 1_555 1_555
H28_2 O7_2 1_555 1_555
O8_2 Zn2_2 1_555 1_555
O9_2 N6_2 1_555 1_555
Zn2_2 N1_2 1_555 1_555
O11_2 Zn2_2 1_555 1_555
O12_2 Zn2_2 1_555 1_555
O13_2 Zn2_2 1_555 1_555
C5_2 N1_2 1_555 1_555
C28_2 C29_2 1_555 1_555
O7_2 Zn2_2 1_555 1_555
C6_2 H5_2 1_555 1_555
C7_2 C6_2 1_555 1_555
H6_2 C7_2 1_555 1_555
C8_2 C7_2 1_555 1_555
C9_2 C8_2 1_555 1_555
H7_2 C9_2 1_555 1_555
C10_2 C9_2 1_555 1_555
H8_2 C10_2 1_555 1_555
C11_2 H9_2 1_555 1_555
C12_2 C11_2 1_555 1_555
C13_2 H11_2 1_555 1_555
H14_2 C18_2 1_555 1_555
C19_2 C14_2 1_555 1_555
H15_2 C19_2 1_555 1_555
C20_2 C8_2 1_555 1_555
C21_2 C20_2 1_555 1_555
H16_2 C21_2 1_555 1_555
C22_2 C21_2 1_555 1_555
C23_2 C22_2 1_555 1_555
C24_2 C23_2 1_555 1_555
H18_2 C24_2 1_555 1_555
C25_2 C20_2 1_555 1_555
H19_2 C25_2 1_555 1_555
C33_2 H24_2 1_555 1_555
C34_2 C33_2 1_555 1_555
C39_2 C34_2 1_555 1_555
N2_2 C6_2 1_555 1_555
N3_2 C11_2 1_555 1_555
N4_2 C12_2 1_555 1_555
O1_2 C39_2 1_555 1_555
O2_2 C39_2 1_555 1_555
O6_2 C38_2 1_555 1_555
Zn3 N3_2 1_555 1_555
O10_2 Zn3 1_555 1_555
Zn3_2 N2_2 1_555 1_555
C10_2 N2_2 1_555 1_555
C13_2 N3_2 1_555 1_555
C13_2 N4_2 1_555 1_555
C14_2 N4_2 1_555 1_555
C18_2 C19_2 1_555 1_555
C24_2 C25_2 1_555 1_555
O1_2 Zn3 1_555 1_555
C6_3 H5_3 1_555 1_555
C7_3 C6_3 1_555 1_555
H6_3 C7_3 1_555 1_555
C8_3 C7_3 1_555 1_555
C9_3 C8_3 1_555 1_555
H7_3 C9_3 1_555 1_555
C10_3 C9_3 1_555 1_555
H8_3 C10_3 1_555 1_555
C11_3 H9_3 1_555 1_555
C12_3 C11_3 1_555 1_555
C13_3 H11_3 1_555 1_555
C18_3 C17_3 1_555 1_555
H14_3 C18_3 1_555 1_555
C19_3 C14_3 1_555 1_555
H15_3 C19_3 1_555 1_555
C20_3 C8_3 1_555 1_555
C21_3 C20_3 1_555 1_555
H16_3 C21_3 1_555 1_555
C22_3 C21_3 1_555 1_555
H17_3 C22_3 1_555 1_555
C23_3 C22_3 1_555 1_555
C24_3 C23_3 1_555 1_555
H18_3 C24_3 1_555 1_555
C25_3 C20_3 1_555 1_555
H19_3 C25_3 1_555 1_555
H22_3 C30_3 1_555 1_555
C31_3 C26_3 1_555 1_555
H23_3 C31_3 1_555 1_555
C32_3 C33_3 1_555 1_555
C33_3 H24_3 1_555 1_555
C34_3 C33_3 1_555 1_555
C35_3 C34_3 1_555 1_555
C36_3 C35_3 1_555 1_555
H25_3 C36_3 1_555 1_555
C37_3 C32_3 1_555 1_555
H26_3 C37_3 1_555 1_555
C38_3 C32_3 1_555 1_555
C39_3 C34_3 1_555 1_555
C40_3 C35_3 1_555 1_555
N7 C6_3 1_555 1_555
N3_3 C11_3 1_555 1_555
N4_3 C12_3 1_555 1_555
N5_3 C17_3 1_555 1_555
O1_3 C39_3 1_555 1_555
O2_3 C39_3 1_555 1_555
O3_3 C40_3 1_555 1_555
O4_3 C40_3 1_555 1_555
O5_3 C38_3 1_555 1_555
O6_3 C38_3 1_555 1_555
Zn3_2 N3_3 1_555 1_555
O10_3 Zn3_2 1_555 1_555
Zn6_3 O5_3 1_555 1_555
C10_3 N7 1_555 1_555
C13_3 N3_3 1_555 1_555
C13_3 N4_3 1_555 1_555
C14_3 N4_3 1_555 1_555
C18_3 C19_3 1_555 1_555
C23_3 N5_3 1_555 1_555
C24_3 C25_3 1_555 1_555
C26_3 N5_3 1_555 1_555
C30_3 C31_3 1_555 1_555
C36_3 C37_3 1_555 1_555
O1_3 Zn3_2 1_555 1_555
O6_3 Zn6_3 1_555 1_555
C1_3 H1_3 1_555 1_555
C2_3 C1_3 1_555 1_555
C3_3 C2_3 1_555 1_555
C4_3 C3_3 1_555 1_555
H3_3 C4_3 1_555 1_555
C5_3 C4_3 1_555 1_555
H4_3 C5_3 1_555 1_555
C15_3 H12_3 1_555 1_555
C16_3 C15_3 1_555 1_555
H13_3 C16_3 1_555 1_555
C27_3 H20_3 1_555 1_555
C28_3 C27_3 1_555 1_555
H21_3 C28_3 1_555 1_555
C29_3 C3_3 1_555 1_555
N1_3 C1_3 1_555 1_555
N6_3 O8_3 1_555 1_555
O7_3 H27_3 1_555 1_555
H28_3 O7_3 1_555 1_555
O8_3 Zn2_3 1_555 1_555
O9_3 N6_3 1_555 1_555
Zn2_3 N1_3 1_555 1_555
O11_3 Zn2_3 1_555 1_555
O12_3 Zn2_3 1_555 1_555
O13_3 Zn2_3 1_555 1_555
C5_3 N1_3 1_555 1_555
C28_3 C29_3 1_555 1_555
O7_3 Zn2_3 1_555 1_555
C1_4 H1_4 1_555 1_555
C2_4 C1_4 1_555 1_555
H2_4 C2_4 1_555 1_555
C3_4 C2_4 1_555 1_555
C4_4 C3_4 1_555 1_555
C6_4 H5_4 1_555 1_555
C7_4 C6_4 1_555 1_555
H6_4 C7_4 1_555 1_555
C8_4 C7_4 1_555 1_555
C9_4 C8_4 1_555 1_555
H7_4 C9_4 1_555 1_555
C10_4 C9_4 1_555 1_555
H8_4 C10_4 1_555 1_555
C12_4 C11_4 1_555 1_555
H10_4 C12_4 1_555 1_555
C13_4 H11_4 1_555 1_555
C14_4 C15_4 1_555 1_555
C15_4 H12_4 1_555 1_555
C16_4 C15_4 1_555 1_555
H13_4 C16_4 1_555 1_555
C17_4 C16_4 1_555 1_555
C18_4 C17_4 1_555 1_555
H14_4 C18_4 1_555 1_555
C19_4 C14_4 1_555 1_555
H15_4 C19_4 1_555 1_555
C20_4 C8_4 1_555 1_555
C21_4 C20_4 1_555 1_555
H16_4 C21_4 1_555 1_555
C22_4 C21_4 1_555 1_555
H17_4 C22_4 1_555 1_555
C23_4 C22_4 1_555 1_555
C24_4 C23_4 1_555 1_555
H18_4 C24_4 1_555 1_555
C25_4 C20_4 1_555 1_555
H19_4 C25_4 1_555 1_555
C26_4 C27_4 1_555 1_555
C27_4 H20_4 1_555 1_555
C28_4 C27_4 1_555 1_555
H21_4 C28_4 1_555 1_555
C29_4 C3_4 1_555 1_555
C30_4 C29_4 1_555 1_555
H22_4 C30_4 1_555 1_555
C31_4 C26_4 1_555 1_555
H23_4 C31_4 1_555 1_555
N1_4 C1_4 1_555 1_555
N2_3 C6_4 1_555 1_555
N3_4 C11_4 1_555 1_555
N4_4 C12_4 1_555 1_555
N5_4 C17_4 1_555 1_555
Zn1_2 N3_4 1_555 1_555
N7_2 Zn1_2 1_555 1_555
O10_4 Zn1_2 1_555 1_555
Zn3_3 N2_3 1_555 1_555
C10_4 N2_3 1_555 1_555
C13_4 N3_4 1_555 1_555
C13_4 N4_4 1_555 1_555
C14_4 N4_4 1_555 1_555
C18_4 C19_4 1_555 1_555
C23_4 N5_4 1_555 1_555
C24_4 C25_4 1_555 1_555
C26_4 N5_4 1_555 1_555
C28_4 C29_4 1_555 1_555
C30_4 C31_4 1_555 1_555
H4_4 C5_4 1_555 1_555
O7_4 H27_4 1_555 1_555
H28_4 O7_4 1_555 1_555
N6_4 O8_4 1_555 1_555
O5_4 C38_4 1_555 1_555
O6_4 C38_4 1_555 1_555
Zn6_4 O5_4 1_555 1_555
O6_4 Zn6_4 1_555 1_555
C32_4 C33_4 1_555 1_555
C33_4 H24_4 1_555 1_555
C34_4 C33_4 1_555 1_555
C35_4 C34_4 1_555 1_555
C36_4 C35_4 1_555 1_555
H25_4 C36_4 1_555 1_555
C37_4 C32_4 1_555 1_555
H26_4 C37_4 1_555 1_555
C39_4 C34_4 1_555 1_555
C40_4 C35_4 1_555 1_555
O1_4 C39_4 1_555 1_555
O2_4 C39_4 1_555 1_555
O10_2 C40_4 1_555 1_555
O4_4 C40_4 1_555 1_555
Zn6_4 O4_4 1_555 1_555
C36_4 C37_4 1_555 1_555
N6_5 O8_5 1_555 1_555
H4_5 C5_5 1_555 1_555
O7_5 H27_5 1_555 1_555
H28_5 O7_5 1_555 1_555
O5_5 C38_5 1_555 1_555
O6_5 C38_5 1_555 1_555
Zn6_5 O5_5 1_555 1_555
O6_5 Zn6_5 1_555 1_555
C6_5 H5_5 1_555 1_555
C7_5 C6_5 1_555 1_555
H6_5 C7_5 1_555 1_555
C8_5 C7_5 1_555 1_555
C9_5 C8_5 1_555 1_555
C10_5 C9_5 1_555 1_555
C11_5 H9_5 1_555 1_555
C12_5 C11_5 1_555 1_555
H10_5 C12_5 1_555 1_555
C13_5 H11_5 1_555 1_555
C14_5 C15_5 1_555 1_555
C15_5 H12_5 1_555 1_555
C16_5 C15_5 1_555 1_555
H13_5 C16_5 1_555 1_555
C17_5 C16_5 1_555 1_555
C18_5 C17_5 1_555 1_555
H14_5 C18_5 1_555 1_555
C19_5 C14_5 1_555 1_555
H15_5 C19_5 1_555 1_555
C20_5 C8_5 1_555 1_555
C21_5 C20_5 1_555 1_555
H16_5 C21_5 1_555 1_555
C22_5 C21_5 1_555 1_555
H17_5 C22_5 1_555 1_555
C23_5 C22_5 1_555 1_555
C24_5 C23_5 1_555 1_555
H18_5 C24_5 1_555 1_555
C25_5 C20_5 1_555 1_555
H19_5 C25_5 1_555 1_555
C26_5 C27_5 1_555 1_555
C27_5 H20_5 1_555 1_555
H22_5 C30_5 1_555 1_555
C31_5 C26_5 1_555 1_555
H23_5 C31_5 1_555 1_555
C32_5 C33_5 1_555 1_555
C33_5 H24_5 1_555 1_555
C34_5 C33_5 1_555 1_555
C35_5 C34_5 1_555 1_555
C36_5 C35_5 1_555 1_555
H25_5 C36_5 1_555 1_555
C37_5 C32_5 1_555 1_555
H26_5 C37_5 1_555 1_555
C39_5 C34_5 1_555 1_555
C40_5 C35_5 1_555 1_555
N2_4 C6_5 1_555 1_555
N3_5 C11_5 1_555 1_555
N4_5 C12_5 1_555 1_555
N5_5 C17_5 1_555 1_555
O1_5 C39_5 1_555 1_555
O2_5 C39_5 1_555 1_555
O10_3 C40_5 1_555 1_555
O4_5 C40_5 1_555 1_555
Zn3_3 N3_5 1_555 1_555
O10_5 Zn3_3 1_555 1_555
Zn3_4 N2_4 1_555 1_555
Zn6_5 O4_5 1_555 1_555
C10_5 N2_4 1_555 1_555
C13_5 N3_5 1_555 1_555
C13_5 N4_5 1_555 1_555
C14_5 N4_5 1_555 1_555
C18_5 C19_5 1_555 1_555
C23_5 N5_5 1_555 1_555
C24_5 C25_5 1_555 1_555
C26_5 N5_5 1_555 1_555
C30_5 C31_5 1_555 1_555
C36_5 C37_5 1_555 1_555
O1_5 Zn3_3 1_555 1_555
O5_6 C38_6 1_555 1_555
O6_6 C38_6 1_555 1_555
Zn6_6 O5_6 1_555 1_555
O6_6 Zn6_6 1_555 1_555
C32_6 C33_6 1_555 1_555
C33_6 H24_6 1_555 1_555
C34_6 C33_6 1_555 1_555
C35_6 C34_6 1_555 1_555
C36_6 C35_6 1_555 1_555
H25_6 C36_6 1_555 1_555
C37_6 C32_6 1_555 1_555
H26_6 C37_6 1_555 1_555
C39_6 C34_6 1_555 1_555
C40_6 C35_6 1_555 1_555
O1_6 C39_6 1_555 1_555
O2_6 C39_6 1_555 1_555
O10 C40_6 1_555 1_555
O4_6 C40_6 1_555 1_555
Zn6_6 O4_6 1_555 1_555
C36_6 C37_6 1_555 1_555
C6_6 H5_6 1_555 1_555
C7_6 C6_6 1_555 1_555
H6_6 C7_6 1_555 1_555
C8_6 C7_6 1_555 1_555
C9_6 C8_6 1_555 1_555
C10_6 C9_6 1_555 1_555
C12_6 C11_6 1_555 1_555
H10_6 C12_6 1_555 1_555
C13_6 H11_6 1_555 1_555
C14_6 C15_6 1_555 1_555
C15_6 H12_6 1_555 1_555
C16_6 C15_6 1_555 1_555
H13_6 C16_6 1_555 1_555
C17_6 C16_6 1_555 1_555
C18_6 C17_6 1_555 1_555
H14_6 C18_6 1_555 1_555
C19_6 C14_6 1_555 1_555
H15_6 C19_6 1_555 1_555
C20_6 C8_6 1_555 1_555
C21_6 C20_6 1_555 1_555
H16_6 C21_6 1_555 1_555
C22_6 C21_6 1_555 1_555
H17_6 C22_6 1_555 1_555
C23_6 C22_6 1_555 1_555
C24_6 C23_6 1_555 1_555
H18_6 C24_6 1_555 1_555
C25_6 C20_6 1_555 1_555
H19_6 C25_6 1_555 1_555
C26_6 C27_6 1_555 1_555
C27_6 H20_6 1_555 1_555
H22_6 C30_6 1_555 1_555
C31_6 C26_6 1_555 1_555
H23_6 C31_6 1_555 1_555
N7_2 C6_6 1_555 1_555
N3_6 C11_6 1_555 1_555
N4_6 C12_6 1_555 1_555
N5_6 C17_6 1_555 1_555
Zn3_4 N3_6 1_555 1_555
O10_6 Zn3_4 1_555 1_555
C10_6 N7_2 1_555 1_555
C13_6 N3_6 1_555 1_555
C13_6 N4_6 1_555 1_555
C14_6 N4_6 1_555 1_555
C18_6 C19_6 1_555 1_555
C23_6 N5_6 1_555 1_555
C24_6 C25_6 1_555 1_555
C26_6 N5_6 1_555 1_555
C30_6 C31_6 1_555 1_555
C1_5 H1_5 1_555 1_555
C2_5 C1_5 1_555 1_555
H2_5 C2_5 1_555 1_555
C3_5 C2_5 1_555 1_555
C4_5 C3_5 1_555 1_555
H21_5 C28_5 1_555 1_555
C29_5 C3_5 1_555 1_555
N1_5 C1_5 1_555 1_555
N6_6 O8_6 1_555 1_555
C28_5 C29_5 1_555 1_555
H4_6 C5_6 1_555 1_555
O7_6 H27_6 1_555 1_555
H28_6 O7_6 1_555 1_555
O7_6 Zn6_3 1_555 1_555
C6_7 H5_7 1_555 1_555
C7_7 C6_7 1_555 1_555
H6_7 C7_7 1_555 1_555
C8_7 C7_7 1_555 1_555
C9_7 C8_7 1_555 1_555
H7_6 C9_7 1_555 1_555
C10_7 C9_7 1_555 1_555
H8_6 C10_7 1_555 1_555
C20_7 C8_7 1_555 1_555
C21_7 C20_7 1_555 1_555
H16_7 C21_7 1_555 1_555
N2_5 C6_7 1_555 1_555
Zn4 N2_5 1_555 1_555
C10_7 N2_5 1_555 1_555
C32_7 C33_7 1_555 1_555
C33_7 H24_7 1_555 1_555
C34_7 C33_7 1_555 1_555
C37_7 C32_7 1_555 1_555
H26_7 C37_7 1_555 1_555
C38_7 C32_7 1_555 1_555
O12 C38_7 1_555 1_555
O13 C38_7 1_555 1_555
C1_6 H1_6 1_555 1_555
C2_6 C1_6 1_555 1_555
H2_6 C2_6 1_555 1_555
C3_6 C2_6 1_555 1_555
C4_6 C3_6 1_555 1_555
H3_7 C4_6 1_555 1_555
C5_7 C4_6 1_555 1_555
H4_7 C5_7 1_555 1_555
C11_7 H9_7 1_555 1_555
C12_7 C11_7 1_555 1_555
H10_7 C12_7 1_555 1_555
C13_7 H11_7 1_555 1_555
C14_7 C15_7 1_555 1_555
C15_7 H12_7 1_555 1_555
C16_7 C15_7 1_555 1_555
H13_7 C16_7 1_555 1_555
C17_7 C16_7 1_555 1_555
C18_7 C17_7 1_555 1_555
H14_7 C18_7 1_555 1_555
C19_7 C14_7 1_555 1_555
H15_7 C19_7 1_555 1_555
H17_7 C22_7 1_555 1_555
C23_7 C22_7 1_555 1_555
C24_7 C23_7 1_555 1_555
H18_7 C24_7 1_555 1_555
C26_7 C27_7 1_555 1_555
C27_7 H20_7 1_555 1_555
C28_6 C27_7 1_555 1_555
H21_6 C28_6 1_555 1_555
C29_6 C3_6 1_555 1_555
C30_7 C29_6 1_555 1_555
H22_7 C30_7 1_555 1_555
C31_7 C26_7 1_555 1_555
H23_7 C31_7 1_555 1_555
C36_7 C35_7 1_555 1_555
H25_7 C36_7 1_555 1_555
C40_7 C35_7 1_555 1_555
N1_6 C1_6 1_555 1_555
N3_7 C11_7 1_555 1_555
N4_7 C12_7 1_555 1_555
N5_7 C17_7 1_555 1_555
O2_7 C39_7 1_555 1_555
O10_5 C40_7 1_555 1_555
O11 C40_7 1_555 1_555
Zn4_3 N3_7 1_555 1_555
N6_7 O8_7 1_555 1_555
O7_7 H27_7 1_555 1_555
H28_7 O7_7 1_555 1_555
O8_7 Zn6_4 1_555 1_555
O9_7 N6_7 1_555 1_555
Zn6_4 N1_6 1_555 1_555
N7_3 Zn4_3 1_555 1_555
C5_7 N1_6 1_555 1_555
C13_7 N3_7 1_555 1_555
C13_7 N4_7 1_555 1_555
C14_7 N4_7 1_555 1_555
C18_7 C19_7 1_555 1_555
C23_7 N5_7 1_555 1_555
C24_7 C25_7 1_555 1_555
C26_7 N5_7 1_555 1_555
C28_6 C29_6 1_555 1_555
C30_7 C31_7 1_555 1_555
O7_7 Zn6_4 1_555 1_555
C1_7 H1_7 1_555 1_555
C2_7 C1_7 1_555 1_555
H2_7 C2_7 1_555 1_555
C3_7 C2_7 1_555 1_555
C4_7 C3_7 1_555 1_555
H3_8 C4_7 1_555 1_555
C5_8 C4_7 1_555 1_555
H4_8 C5_8 1_555 1_555
C6_8 H5_8 1_555 1_555
C7_8 C6_8 1_555 1_555
H6_8 C7_8 1_555 1_555
C8_8 C7_8 1_555 1_555
C9_8 C8_8 1_555 1_555
H7_7 C9_8 1_555 1_555
C10_8 C9_8 1_555 1_555
H8_7 C10_8 1_555 1_555
H10_8 C12_8 1_555 1_555
C13_8 H11_8 1_555 1_555
C14_8 C15_8 1_555 1_555
C15_8 H12_8 1_555 1_555
C16_8 C15_8 1_555 1_555
H13_8 C16_8 1_555 1_555
C17_8 C16_8 1_555 1_555
C18_8 C17_8 1_555 1_555
H14_8 C18_8 1_555 1_555
C19_8 C14_8 1_555 1_555
H15_8 C19_8 1_555 1_555
C20_8 C8_8 1_555 1_555
C21_8 C20_8 1_555 1_555
H16_8 C21_8 1_555 1_555
C22_8 C21_8 1_555 1_555
H17_8 C22_8 1_555 1_555
C23_8 C22_8 1_555 1_555
C24_8 C23_8 1_555 1_555
H18_8 C24_8 1_555 1_555
C25_8 C20_8 1_555 1_555
H19_8 C25_8 1_555 1_555
C26_8 C27_8 1_555 1_555
C27_8 H20_8 1_555 1_555
C28_7 C27_8 1_555 1_555
H21_7 C28_7 1_555 1_555
C29_7 C3_7 1_555 1_555
C30_8 C29_7 1_555 1_555
H22_8 C30_8 1_555 1_555
C31_8 C26_8 1_555 1_555
H23_8 C31_8 1_555 1_555
N1_7 C1_7 1_555 1_555
N2_6 C6_8 1_555 1_555
N4_8 C12_8 1_555 1_555
N5_8 C17_8 1_555 1_555
N6_8 O8_8 1_555 1_555
O7_8 H27_8 1_555 1_555
H28_8 O7_8 1_555 1_555
O8_8 Zn6_5 1_555 1_555
O9_8 N6_8 1_555 1_555
Zn6_5 N1_7 1_555 1_555
Zn4_2 N2_6 1_555 1_555
C5_8 N1_7 1_555 1_555
C10_8 N2_6 1_555 1_555
C13_8 N4_8 1_555 1_555
C14_8 N4_8 1_555 1_555
C18_8 C19_8 1_555 1_555
C23_8 N5_8 1_555 1_555
C24_8 C25_8 1_555 1_555
C26_8 N5_8 1_555 1_555
C28_7 C29_7 1_555 1_555
C30_8 C31_8 1_555 1_555
O7_8 Zn6_5 1_555 1_555
C32_8 C33_8 1_555 1_555
C33_8 H24_8 1_555 1_555
C34_8 C33_8 1_555 1_555
C37_8 C32_8 1_555 1_555
H26_8 C37_8 1_555 1_555
C38_8 C32_8 1_555 1_555
O12_2 C38_8 1_555 1_555
O13_2 C38_8 1_555 1_555
C11_8 H9_8 1_555 1_555
C36_8 C35_8 1_555 1_555
H25_8 C36_8 1_555 1_555
C40_8 C35_8 1_555 1_555
N3_8 C11_8 1_555 1_555
O2_8 C39_8 1_555 1_555
O10_6 C40_8 1_555 1_555
O11_2 C40_8 1_555 1_555
Zn4 N3_8 1_555 1_555
C32_9 C33_9 1_555 1_555
C33_9 H24_9 1_555 1_555
C34_9 C33_9 1_555 1_555
C37_9 C32_9 1_555 1_555
H26_9 C37_9 1_555 1_555
C38_9 C32_9 1_555 1_555
O12_3 C38_9 1_555 1_555
O13_3 C38_9 1_555 1_555
C11_9 H9_9 1_555 1_555
C36_9 C35_9 1_555 1_555
H25_9 C36_9 1_555 1_555
C40_9 C35_9 1_555 1_555
N3_9 C11_9 1_555 1_555
O2_9 C39_9 1_555 1_555
O10_4 C40_9 1_555 1_555
O11_3 C40_9 1_555 1_555
Zn4_2 N3_9 1_555 1_555
C1_8 H1_8 1_555 1_555
C2_8 C1_8 1_555 1_555
H2_8 C2_8 1_555 1_555
C3_8 C2_8 1_555 1_555
C4_8 C3_8 1_555 1_555
H3_9 C4_8 1_555 1_555
C5_9 C4_8 1_555 1_555
H4_9 C5_9 1_555 1_555
H10_9 C12_9 1_555 1_555
C13_9 H11_9 1_555 1_555
C14_9 C15_9 1_555 1_555
C15_9 H12_9 1_555 1_555
C16_9 C15_9 1_555 1_555
H13_9 C16_9 1_555 1_555
C17_9 C16_9 1_555 1_555
C18_9 C17_9 1_555 1_555
H14_9 C18_9 1_555 1_555
C19_9 C14_9 1_555 1_555
H15_9 C19_9 1_555 1_555
H17_9 C22_9 1_555 1_555
C23_9 C22_9 1_555 1_555
C24_9 C23_9 1_555 1_555
H18_9 C24_9 1_555 1_555
C26_9 C27_9 1_555 1_555
C27_9 H20_9 1_555 1_555
C28_8 C27_9 1_555 1_555
H21_8 C28_8 1_555 1_555
C29_8 C3_8 1_555 1_555
C30_9 C29_8 1_555 1_555
H22_9 C30_9 1_555 1_555
C31_9 C26_9 1_555 1_555
H23_9 C31_9 1_555 1_555
N1_8 C1_8 1_555 1_555
N4_9 C12_9 1_555 1_555
N5_9 C17_9 1_555 1_555
N6_9 O8_9 1_555 1_555
O7_9 H27_9 1_555 1_555
H28_9 O7_9 1_555 1_555
O8_9 Zn6_6 1_555 1_555
O9_9 N6_9 1_555 1_555
Zn6_6 N1_8 1_555 1_555
C5_9 N1_8 1_555 1_555
C13_9 N4_9 1_555 1_555
C14_9 N4_9 1_555 1_555
C18_9 C19_9 1_555 1_555
C23_9 N5_9 1_555 1_555
C24_9 C25_9 1_555 1_555
C26_9 N5_9 1_555 1_555
C28_8 C29_8 1_555 1_555
C30_9 C31_9 1_555 1_555
O7_9 Zn6_6 1_555 1_555
C6_9 H5_9 1_555 1_555
C7_9 C6_9 1_555 1_555
H6_9 C7_9 1_555 1_555
C8_9 C7_9 1_555 1_555
C9_9 C8_9 1_555 1_555
H7_8 C9_9 1_555 1_555
C10_9 C9_9 1_555 1_555
H8_8 C10_9 1_555 1_555
C20_9 C8_9 1_555 1_555
C21_9 C20_9 1_555 1_555
H16_9 C21_9 1_555 1_555
N7_3 C6_9 1_555 1_555
C10_9 N7_3 1_555 1_555
C1_9 H1_9 1_555 1_555
C2_9 C1_9 1_555 1_555
H2_9 C2_9 1_555 1_555
C3_9 C2_9 1_555 1_555
C4_9 C3_9 1_555 1_555
H21_9 C28_9 1_555 1_555
C29_9 C3_9 1_555 1_555
N1_9 C1_9 1_555 1_555
C28_9 C29_9 1_555 1_555

#END
