
###############################################################################
#
# This file contains modified crystal structure data generated from the
# MOF subset of the Cambridge Structural Database (CSD) v543 
# hosted by the Cambridge Crystallographic Data Centre (CCDC).
#
# This work is licensed under the Creative Commons
# Attribution-NonCommercial-ShareAlike 4.0 International License.
# To view a copy of this license, visit
# http://creativecommons.org/licenses/by-nc-sa/4.0/
# or send a letter to
# Creative Commons, PO Box 1866, Mountain View, CA 94042, USA.
#
# CIF created using the CSD Python API on 29 September 2022
# The structure has been converted into the P1 space group
# The structure has a 3D framework
# The original CSD entry BELJIL is in the rhombohedral crystal system
# The framework has been calculated to contain at least 10.0% void space
# The void calculation uses a probe of radius 1.32A, grid spacing 0.4
#
###############################################################################

data_BELJIL
_chemical_formula_moiety         '(C234 H270 Cu12 N36 O66)n'
_symmetry_cell_setting           triclinic
_symmetry_space_group_name_H-M   'P 1'
_symmetry_Int_Tables_number      1
_space_group_name_Hall           'P 1'
loop_
_symmetry_equiv_pos_site_id
_symmetry_equiv_pos_as_xyz
1 x,y,z
_cell_length_a                   25.640(2)
_cell_length_b                   25.640(2)
_cell_length_c                   13.326(2)
_cell_angle_alpha                90
_cell_angle_beta                 90
_cell_angle_gamma                120
_cell_volume                     7586.94
loop_
_atom_site_label
_atom_site_type_symbol
_atom_site_fract_x
_atom_site_fract_y
_atom_site_fract_z
Cu1 Cu 0.56770 0.03860 0.26860
O1 O 0.59590 0.09180 0.41940
O2 O 0.40650 0.01220 0.67410
N1 N 0.42190 0.10841 0.46980
N2 N 0.51550 0.01580 0.69290
C1 C 0.43180 0.04930 0.59840
C2 C 0.39870 0.06991 0.54710
C3 C 0.33760 0.05211 0.57880
C4 C 0.47880 0.12731 0.43940
C5 C 0.51461 0.11011 0.48150
C6 C 0.58230 0.13610 0.44780
C7 C 0.49330 0.06870 0.56640
C8 C 0.53320 0.05480 0.61600
C9 C 0.55920 0.00590 0.74600
C11 C 0.59420 0.05360 0.82300
C12 C 0.63520 0.11740 0.78110
C13 C 0.54950 0.05760 0.89790
H1 H 0.34100 0.06801 0.65200
H2 H 0.31300 0.00701 0.57900
H3 H 0.31200 0.06801 0.54300
H4 H 0.49600 0.15701 0.37500
H5 H 0.60900 0.16200 0.50700
H6 H 0.59000 0.16700 0.39000
H7 H 0.58000 0.05000 0.60000
H8 H 0.59300 0.00800 0.69500
H9 H 0.62000 0.04100 0.86600
H10 H 0.63200 0.11800 0.70700
H11 H 0.67900 0.13300 0.80200
H12 H 0.60700 0.12300 0.83000
H13 H 0.52400 0.07300 0.85900
H14 H 0.57200 0.08800 0.95500
H15 H 0.52200 0.01700 0.92600
N3 N 0.64682 0.08857 0.19687
Cu2 Cu 0.37193 0.13757 0.39807
O6 O 0.53180 0.08300 0.20600
O3 O 0.46820 0.91700 0.79400
O4 O 0.55580 0.92110 0.82890
C10 C 0.52740 0.94260 0.79320
O5 O 0.59350 0.98780 0.32590
N4 N 0.48450 0.98420 0.30710
Cu3 Cu 0.43230 0.96140 0.73140
O1_2 O 0.92923 0.75847 0.08607
O2_2 O 0.73983 0.67887 0.34077
O3_2 O 0.80153 0.58367 0.46067
O4_2 O 0.88913 0.58777 0.49557
N1_2 N 0.75523 0.77508 0.13647
N2_2 N 0.84883 0.68247 0.35957
C1_2 C 0.76513 0.71597 0.26507
C2_2 C 0.73203 0.73658 0.21377
C3_2 C 0.67093 0.71878 0.24547
C4_2 C 0.81213 0.79398 0.10607
C5_2 C 0.84794 0.77678 0.14817
C6_2 C 0.91563 0.80277 0.11447
C7_2 C 0.82663 0.73537 0.23307
C8_2 C 0.86653 0.72147 0.28267
C9_2 C 0.89253 0.67257 0.41267
C10_2 C 0.86073 0.60927 0.45987
C11_2 C 0.92753 0.72027 0.48967
C12_2 C 0.96853 0.78407 0.44777
C13_2 C 0.88283 0.72427 0.56457
H1_2 H 0.67433 0.73468 0.31867
H2_2 H 0.64633 0.67368 0.24567
H3_2 H 0.64533 0.73468 0.20967
H4_2 H 0.82933 0.82368 0.04167
H5_2 H 0.94233 0.82867 0.17367
H6_2 H 0.92333 0.83367 0.05667
H7_2 H 0.91333 0.71667 0.26667
H8_2 H 0.92633 0.67467 0.36167
H9_2 H 0.95333 0.70767 0.53267
H10_2 H 0.96533 0.78467 0.37367
H12_2 H 0.94033 0.78967 0.49667
H13_2 H 0.85733 0.73967 0.52567
H14_2 H 0.90533 0.75467 0.62167
H15_2 H 0.85533 0.68367 0.59267
Cu2_2 Cu 0.70527 0.80423 0.06473
Cu3_2 Cu 0.76563 0.62807 0.39807
Cu1_2 Cu 0.23437 0.37193 0.60193
O1_3 O 0.26257 0.42513 0.75273
N1_3 N 0.08857 0.44174 0.80313
C1_3 C 0.09847 0.38263 0.93173
C2_3 C 0.06537 0.40324 0.88043
C3_3 C 0.00427 0.38544 0.91213
C4_3 C 0.14547 0.46064 0.77273
C5_3 C 0.18128 0.44344 0.81483
C6_3 C 0.24897 0.46943 0.78113
C7_3 C 0.15997 0.40203 0.89973
C8_3 C 0.19987 0.38813 0.94933
H1_3 H 0.00767 0.40134 0.98533
H4_3 H 0.16267 0.49034 0.70833
H5_3 H 0.27567 0.49533 0.84033
H6_3 H 0.25667 0.50033 0.72333
H7_3 H 0.24667 0.38333 0.93333
N3_2 N 0.31349 0.42190 0.53020
Cu2_3 Cu 0.03860 0.47090 0.73140
O5_2 O 0.26017 0.32113 0.65923
N4_2 N 0.15117 0.31753 0.64043
O6_2 O 0.19847 0.41633 0.53933
O3_3 O 0.08300 0.55120 0.79400
O4_3 O 0.07890 0.63470 0.82890
C10_3 C 0.05740 0.58480 0.79320
O5_3 O 0.01220 0.60570 0.32590
N4_3 N 0.01580 0.50030 0.30710
Cu1_3 Cu 0.96140 0.52910 0.26860
O1_4 O 0.90820 0.50410 0.41940
O2_3 O 0.98780 0.39430 0.67410
N1_4 N 0.89159 0.31349 0.46980
N2_3 N 0.98420 0.49970 0.69290
C1_4 C 0.95070 0.38250 0.59840
C2_4 C 0.93009 0.32879 0.54710
C3_4 C 0.94789 0.28549 0.57880
C4_4 C 0.87269 0.35149 0.43940
C5_4 C 0.88989 0.40450 0.48150
C6_4 C 0.86390 0.44620 0.44780
C7_4 C 0.93130 0.42460 0.56640
C8_4 C 0.94520 0.47840 0.61600
C9_3 C 0.99410 0.55330 0.74600
C11_3 C 0.94640 0.54060 0.82300
C12_3 C 0.88260 0.51780 0.78110
C13_3 C 0.94240 0.49190 0.89790
H1_4 H 0.93199 0.27299 0.65200
H2_3 H 0.99299 0.30599 0.57900
H3_3 H 0.93199 0.24399 0.54300
H4_4 H 0.84299 0.33899 0.37500
H5_4 H 0.83800 0.44700 0.50700
H6_4 H 0.83300 0.42300 0.39000
H7_4 H 0.95000 0.53000 0.60000
H8_3 H 0.99200 0.58500 0.69500
H9_3 H 0.95900 0.57900 0.86600
H10_3 H 0.88200 0.51400 0.70700
H11_2 H 0.86700 0.54600 0.80200
H12_3 H 0.87700 0.48400 0.83000
H13_3 H 0.92700 0.45100 0.85900
H14_3 H 0.91200 0.48400 0.95500
H15_3 H 0.98300 0.50500 0.92600
N3_3 N 0.91143 0.55826 0.19687
Cu2_4 Cu 0.86243 0.23437 0.39807
O6_3 O 0.91700 0.44880 0.20600
Cu1_4 Cu 0.47090 0.43230 0.26860
O1_5 O 0.49590 0.40410 0.41940
O2_4 O 0.60570 0.59350 0.67410
O3_4 O 0.44880 0.53180 0.79400
O4_4 O 0.36530 0.44420 0.82890
N1_5 N 0.68651 0.57810 0.46980
N2_4 N 0.50030 0.48450 0.69290
C1_5 C 0.61750 0.56820 0.59840
C2_5 C 0.67121 0.60130 0.54710
C3_5 C 0.71451 0.66240 0.57880
C4_5 C 0.64851 0.52120 0.43940
C5_5 C 0.59550 0.48539 0.48150
C6_5 C 0.55380 0.41770 0.44780
C7_5 C 0.57540 0.50670 0.56640
C8_5 C 0.52160 0.46680 0.61600
C9_4 C 0.44670 0.44080 0.74600
C10_4 C 0.41520 0.47260 0.79320
C11_4 C 0.45940 0.40580 0.82300
C12_4 C 0.48220 0.36480 0.78110
C13_4 C 0.50810 0.45050 0.89790
H1_5 H 0.72701 0.65900 0.65200
H2_4 H 0.69401 0.68700 0.57900
H3_4 H 0.75601 0.68800 0.54300
H4_5 H 0.66101 0.50400 0.37500
H5_5 H 0.55300 0.39100 0.50700
H6_5 H 0.57700 0.41000 0.39000
H7_5 H 0.47000 0.42000 0.60000
H8_4 H 0.41500 0.40700 0.69500
H9_4 H 0.42100 0.38000 0.86600
H10_4 H 0.48600 0.36800 0.70700
H11_3 H 0.45400 0.32100 0.80200
H12_4 H 0.51600 0.39300 0.83000
H13_4 H 0.54900 0.47600 0.85900
H14_4 H 0.51600 0.42800 0.95500
H15_4 H 0.49500 0.47800 0.92600
N3_4 N 0.44174 0.35318 0.19687
O5_4 O 0.39430 0.40650 0.32590
N4_4 N 0.49970 0.51550 0.30710
Cu3_3 Cu 0.52910 0.56770 0.73140
O6_4 O 0.55120 0.46820 0.20600
O1_6 O 0.24153 0.17077 0.08607
O2_5 O 0.32113 0.06097 0.34077
O3_5 O 0.41633 0.21787 0.46067
O4_5 O 0.41223 0.30137 0.49557
N2_5 N 0.31753 0.16637 0.35957
C1_6 C 0.28403 0.04917 0.26507
C4_6 C 0.20602 0.01816 0.10607
C5_6 C 0.22322 0.07117 0.14817
C6_6 C 0.19723 0.11287 0.11447
C7_6 C 0.26463 0.09127 0.23307
C8_6 C 0.27853 0.14507 0.28267
C9_5 C 0.32743 0.21997 0.41267
C10_5 C 0.39073 0.25147 0.45987
C11_5 C 0.27973 0.20727 0.48967
C12_5 C 0.21593 0.18447 0.44777
C13_5 C 0.27573 0.15857 0.56457
H4_6 H 0.17632 0.00566 0.04167
H5_6 H 0.17133 0.11367 0.17367
H6_6 H 0.16633 0.08967 0.05667
H7_6 H 0.28333 0.19667 0.26667
H8_5 H 0.32533 0.25167 0.36167
H9_5 H 0.29233 0.24567 0.53267
H10_5 H 0.21533 0.18067 0.37367
H11_4 H 0.20033 0.21267 0.46867
H12_5 H 0.21033 0.15067 0.49667
H13_5 H 0.26033 0.11767 0.52567
H14_5 H 0.24533 0.15067 0.62167
H15_5 H 0.31633 0.17167 0.59267
Cu1_5 Cu 0.29473 0.19577 0.93527
N3_5 N 0.24477 0.22492 0.86353
O5_5 O 0.34553 0.27237 0.99257
N4_5 N 0.34913 0.16697 0.97377
O6_5 O 0.25033 0.11547 0.87267
O1_7 O 0.82923 0.07077 0.08607
O2_6 O 0.93903 0.26017 0.34077
O3_6 O 0.78213 0.19847 0.46067
O4_6 O 0.69863 0.11087 0.49557
N2_6 N 0.83363 0.15117 0.35957
C1_7 C 0.95083 0.23487 0.26507
C4_7 C 0.98184 0.18787 0.10607
C5_7 C 0.92883 0.15206 0.14817
C6_7 C 0.88713 0.08437 0.11447
C7_7 C 0.90873 0.17337 0.23307
C8_7 C 0.85493 0.13347 0.28267
C9_6 C 0.78003 0.10747 0.41267
C10_6 C 0.74853 0.13927 0.45987
C11_6 C 0.79273 0.07247 0.48967
C12_6 C 0.81553 0.03147 0.44777
C13_6 C 0.84143 0.11717 0.56457
H4_7 H 0.99434 0.17067 0.04167
H5_7 H 0.88633 0.05767 0.17367
H6_7 H 0.91033 0.07667 0.05667
H7_7 H 0.80333 0.08667 0.26667
H8_6 H 0.74833 0.07367 0.36167
H9_6 H 0.75433 0.04667 0.53267
H10_6 H 0.81933 0.03467 0.37367
H12_6 H 0.84933 0.05967 0.49667
H13_6 H 0.88233 0.14267 0.52567
H14_6 H 0.84933 0.09467 0.62167
H15_6 H 0.82833 0.14467 0.59267
O2_7 O 0.65447 0.72763 0.00743
O3_7 O 0.74967 0.88453 0.12733
O4_7 O 0.74557 0.96803 0.16223
N2_7 N 0.65087 0.83303 0.02623
C9_7 C 0.66077 0.88663 0.07933
C10_7 C 0.72407 0.91813 0.12653
C11_7 C 0.61307 0.87393 0.15633
C12_7 C 0.54927 0.85113 0.11443
C13_7 C 0.60907 0.82523 0.23123
H8_7 H 0.65867 0.91833 0.02833
H9_7 H 0.62567 0.91233 0.19933
H10_7 H 0.54867 0.84733 0.04033
H11_5 H 0.53367 0.87933 0.13533
H12_7 H 0.54367 0.81733 0.16333
H13_7 H 0.59367 0.78433 0.19233
H14_7 H 0.57867 0.81733 0.28833
H15_7 H 0.64967 0.83833 0.25933
Cu1_6 Cu 0.62807 0.86243 0.60193
O1_8 O 0.57487 0.83743 0.75273
N1_6 N 0.55826 0.64682 0.80313
C1_8 C 0.61737 0.71583 0.93173
C2_6 C 0.59676 0.66212 0.88043
C3_6 C 0.61456 0.61882 0.91213
C4_8 C 0.53936 0.68482 0.77273
C5_8 C 0.55656 0.73783 0.81483
C6_8 C 0.53057 0.77953 0.78113
C7_8 C 0.59797 0.75793 0.89973
C8_8 C 0.61187 0.81173 0.94933
H1_6 H 0.59866 0.60632 0.98533
H2_5 H 0.65966 0.63932 0.91233
H3_5 H 0.59866 0.57732 0.87633
H4_8 H 0.50966 0.67232 0.70833
H5_8 H 0.50467 0.78033 0.84033
H6_8 H 0.49967 0.75633 0.72333
H7_8 H 0.61667 0.86333 0.93333
N3_6 N 0.57810 0.89159 0.53020
O5_6 O 0.67887 0.93903 0.65923
N4_6 N 0.68247 0.83363 0.64043
O6_6 O 0.58367 0.78213 0.53933
Cu1_7 Cu 0.13757 0.76563 0.60193
O1_9 O 0.16257 0.73743 0.75273
N1_7 N 0.35318 0.91143 0.80313
C1_9 C 0.28417 0.90153 0.93173
C2_7 C 0.33788 0.93463 0.88043
C3_7 C 0.38118 0.99573 0.91213
C4_9 C 0.31518 0.85453 0.77273
C5_9 C 0.26217 0.81872 0.81483
C6_9 C 0.22047 0.75103 0.78113
C7_9 C 0.24207 0.84003 0.89973
C8_9 C 0.18827 0.80013 0.94933
H1_7 H 0.39368 0.99233 0.98533
H4_9 H 0.32768 0.83733 0.70833
H5_9 H 0.21967 0.72433 0.84033
H6_9 H 0.24367 0.74333 0.72333
H7_9 H 0.13667 0.75333 0.93333
N3_7 N 0.10841 0.68651 0.53020
O5_7 O 0.06097 0.73983 0.65923
N4_7 N 0.16637 0.84883 0.64043
O6_7 O 0.21787 0.80153 0.53933
O4_8 O 0.44420 0.07890 0.17110
C10_8 C 0.47260 0.05740 0.20680
O1_10 O 0.40410 0.90820 0.58060
C1_10 C 0.56820 0.95070 0.40160
C2_8 C 0.60130 0.93009 0.45290
C3_8 C 0.66240 0.94789 0.42120
C4_10 C 0.52120 0.87269 0.56060
C5_10 C 0.48539 0.88989 0.51850
C6_10 C 0.41770 0.86390 0.55220
C7_10 C 0.50670 0.93130 0.43360
C8_10 C 0.46680 0.94520 0.38400
C9_8 C 0.44080 0.99410 0.25400
C11_8 C 0.40580 0.94640 0.17700
C12_8 C 0.36480 0.88260 0.21890
C13_8 C 0.45050 0.94240 0.10210
H1_8 H 0.65900 0.93199 0.34800
H2_6 H 0.68700 0.99299 0.42100
H3_6 H 0.68800 0.93199 0.45700
H4_10 H 0.50400 0.84299 0.62500
H5_10 H 0.39100 0.83800 0.49300
H6_10 H 0.41000 0.83300 0.61000
H7_10 H 0.42000 0.95000 0.40000
H8_8 H 0.40700 0.99200 0.30500
H9_8 H 0.38000 0.95900 0.13400
H10_8 H 0.36800 0.88200 0.29300
H11_6 H 0.32100 0.86700 0.19800
H12_8 H 0.39300 0.87700 0.17000
H13_8 H 0.47600 0.92700 0.14100
H14_8 H 0.42800 0.91200 0.04500
H15_8 H 0.47800 0.98300 0.07400
O1_11 O 0.07077 0.24153 0.91393
O4_9 O 0.11087 0.41223 0.50443
C1_11 C 0.23487 0.28403 0.73493
C2_9 C 0.26797 0.26342 0.78623
C3_9 C 0.32907 0.28122 0.75453
C4_11 C 0.18787 0.20602 0.89393
C5_11 C 0.15206 0.22322 0.85183
C6_11 C 0.08437 0.19723 0.88553
C7_11 C 0.17337 0.26463 0.76693
C8_11 C 0.13347 0.27853 0.71733
C9_9 C 0.10747 0.32743 0.58733
C10_9 C 0.13927 0.39073 0.54013
C11_9 C 0.07247 0.27973 0.51033
C12_9 C 0.03147 0.21593 0.55223
C13_9 C 0.11717 0.27573 0.43543
H1_9 H 0.32567 0.26532 0.68133
H2_7 H 0.35367 0.32632 0.75433
H3_7 H 0.35467 0.26532 0.79033
H4_11 H 0.17067 0.17632 0.95833
H5_11 H 0.05767 0.17133 0.82633
H6_11 H 0.07667 0.16633 0.94333
H7_11 H 0.08667 0.28333 0.73333
H8_9 H 0.07367 0.32533 0.63833
H9_9 H 0.04667 0.29233 0.46733
H10_9 H 0.03467 0.21533 0.62633
H12_9 H 0.05967 0.21033 0.50333
H13_9 H 0.14267 0.26033 0.47433
H14_9 H 0.09467 0.24533 0.37833
H15_9 H 0.14467 0.31633 0.40733
O1_12 O 0.73743 0.57487 0.24727
C1_12 C 0.90153 0.61737 0.06827
C2_10 C 0.93463 0.59676 0.11957
C3_10 C 0.99573 0.61456 0.08787
C4_12 C 0.85453 0.53936 0.22727
C5_12 C 0.81872 0.55656 0.18517
C6_12 C 0.75103 0.53057 0.21887
C7_12 C 0.84003 0.59797 0.10027
C8_12 C 0.80013 0.61187 0.05067
H1_10 H 0.99233 0.59866 0.01467
H4_12 H 0.83733 0.50966 0.29167
H5_12 H 0.72433 0.50467 0.15967
H6_12 H 0.74333 0.49967 0.27667
H7_12 H 0.75333 0.61667 0.06667
O1_13 O 0.09180 0.49590 0.58060
C1_13 C 0.04930 0.61750 0.40160
C2_11 C 0.06991 0.67121 0.45290
C3_11 C 0.05211 0.71451 0.42120
C4_13 C 0.12731 0.64851 0.56060
C5_13 C 0.11011 0.59550 0.51850
C6_13 C 0.13610 0.55380 0.55220
C7_13 C 0.06870 0.57540 0.43360
C8_13 C 0.05480 0.52160 0.38400
C9_10 C 0.00590 0.44670 0.25400
C11_10 C 0.05360 0.45940 0.17700
C12_10 C 0.11740 0.48220 0.21890
C13_10 C 0.05760 0.50810 0.10210
H1_11 H 0.06801 0.72701 0.34800
H2_8 H 0.00701 0.69401 0.42100
H3_8 H 0.06801 0.75601 0.45700
H4_13 H 0.15701 0.66101 0.62500
H5_13 H 0.16200 0.55300 0.49300
H6_13 H 0.16700 0.57700 0.61000
H7_13 H 0.05000 0.47000 0.40000
H8_10 H 0.00800 0.41500 0.30500
H9_10 H 0.04100 0.42100 0.13400
H10_10 H 0.11800 0.48600 0.29300
H11_7 H 0.13300 0.45400 0.19800
H12_10 H 0.12300 0.51600 0.17000
H13_10 H 0.07300 0.54900 0.14100
H14_10 H 0.08800 0.51600 0.04500
H15_10 H 0.01700 0.49500 0.07400
O4_10 O 0.92110 0.36530 0.17110
C10_10 C 0.94260 0.41520 0.20680
O1_14 O 0.50410 0.59590 0.58060
O4_11 O 0.63470 0.55580 0.17110
C1_14 C 0.38250 0.43180 0.40160
C2_12 C 0.32879 0.39870 0.45290
C3_12 C 0.28549 0.33760 0.42120
C4_14 C 0.35149 0.47880 0.56060
C5_14 C 0.40450 0.51461 0.51850
C6_14 C 0.44620 0.58230 0.55220
C7_14 C 0.42460 0.49330 0.43360
C8_14 C 0.47840 0.53320 0.38400
C9_11 C 0.55330 0.55920 0.25400
C10_11 C 0.58480 0.52740 0.20680
C11_11 C 0.54060 0.59420 0.17700
C12_11 C 0.51780 0.63520 0.21890
C13_11 C 0.49190 0.54950 0.10210
H1_12 H 0.27299 0.34100 0.34800
H2_9 H 0.30599 0.31300 0.42100
H3_9 H 0.24399 0.31200 0.45700
H4_14 H 0.33899 0.49600 0.62500
H5_14 H 0.44700 0.60900 0.49300
H6_14 H 0.42300 0.59000 0.61000
H7_14 H 0.53000 0.58000 0.40000
H8_11 H 0.58500 0.59300 0.30500
H9_11 H 0.57900 0.62000 0.13400
H10_11 H 0.51400 0.63200 0.29300
H11_8 H 0.54600 0.67900 0.19800
H12_11 H 0.48400 0.60700 0.17000
H13_11 H 0.45100 0.52400 0.14100
H14_11 H 0.48400 0.57200 0.04500
H15_11 H 0.50500 0.52200 0.07400
O1_15 O 0.75847 0.82923 0.91393
O4_12 O 0.58777 0.69863 0.50443
C1_15 C 0.71597 0.95083 0.73493
C4_15 C 0.79398 0.98184 0.89393
C5_15 C 0.77678 0.92883 0.85183
C6_15 C 0.80277 0.88713 0.88553
C7_15 C 0.73537 0.90873 0.76693
C8_15 C 0.72147 0.85493 0.71733
C9_12 C 0.67257 0.78003 0.58733
C10_12 C 0.60927 0.74853 0.54013
C11_12 C 0.72027 0.79273 0.51033
C12_12 C 0.78407 0.81553 0.55223
C13_12 C 0.72427 0.84143 0.43543
H4_15 H 0.82368 0.99434 0.95833
H5_15 H 0.82867 0.88633 0.82633
H6_15 H 0.83367 0.91033 0.94333
H7_15 H 0.71667 0.80333 0.73333
H8_12 H 0.67467 0.74833 0.63833
H9_12 H 0.70767 0.75433 0.46733
H10_12 H 0.78467 0.81933 0.62633
H11_9 H 0.79967 0.78733 0.53133
H12_12 H 0.78967 0.84933 0.50333
H13_12 H 0.73967 0.88233 0.47433
H14_12 H 0.75467 0.84933 0.37833
H15_12 H 0.68367 0.82833 0.40733
O1_16 O 0.17077 0.92923 0.91393
O4_13 O 0.30137 0.88913 0.50443
C1_16 C 0.04917 0.76513 0.73493
C4_16 C 0.01816 0.81213 0.89393
C5_16 C 0.07117 0.84794 0.85183
C6_16 C 0.11287 0.91563 0.88553
C7_16 C 0.09127 0.82663 0.76693
C8_16 C 0.14507 0.86653 0.71733
C9_13 C 0.21997 0.89253 0.58733
C10_13 C 0.25147 0.86073 0.54013
C11_13 C 0.20727 0.92753 0.51033
C12_13 C 0.18447 0.96853 0.55223
C13_13 C 0.15857 0.88283 0.43543
H4_16 H 0.00566 0.82933 0.95833
H5_16 H 0.11367 0.94233 0.82633
H6_16 H 0.08967 0.92333 0.94333
H7_16 H 0.19667 0.91333 0.73333
H8_13 H 0.25167 0.92633 0.63833
H9_13 H 0.24567 0.95333 0.46733
H10_13 H 0.18067 0.96533 0.62633
H12_13 H 0.15067 0.94033 0.50333
H13_13 H 0.11767 0.85733 0.47433
H14_13 H 0.15067 0.90533 0.37833
H15_13 H 0.17167 0.85533 0.40733
O1_17 O 0.42513 0.16257 0.24727
C1_17 C 0.38263 0.28417 0.06827
C2_13 C 0.40324 0.33788 0.11957
C3_13 C 0.38544 0.38118 0.08787
C4_17 C 0.46064 0.31518 0.22727
C5_17 C 0.44344 0.26217 0.18517
C6_17 C 0.46943 0.22047 0.21887
C7_17 C 0.40203 0.24207 0.10027
C8_17 C 0.38813 0.18827 0.05067
H1_13 H 0.40134 0.39368 0.01467
H2_10 H 0.34034 0.36068 0.08767
H3_10 H 0.40134 0.42268 0.12367
H4_17 H 0.49034 0.32768 0.29167
H5_17 H 0.49533 0.21967 0.15967
H6_17 H 0.50033 0.24367 0.27667
H7_17 H 0.38333 0.13667 0.06667
O4_14 O 0.25443 0.03197 0.83777
C9_14 C 0.33923 0.11337 0.92067
C10_14 C 0.27593 0.08187 0.87347
C11_14 C 0.38693 0.12607 0.84367
C12_14 C 0.45073 0.14887 0.88557
C13_14 C 0.39093 0.17477 0.76877
H8_14 H 0.34133 0.08167 0.97167
H9_14 H 0.37433 0.08767 0.80067
H10_14 H 0.45133 0.15267 0.95967
H11_10 H 0.46633 0.12067 0.86467
H12_14 H 0.45633 0.18267 0.83667
H13_14 H 0.40633 0.21567 0.80767
H14_14 H 0.42133 0.18267 0.71167
H15_14 H 0.35033 0.16167 0.74067
O1_18 O 0.83743 0.26257 0.24727
C1_18 C 0.71583 0.09847 0.06827
C2_14 C 0.66212 0.06537 0.11957
C3_14 C 0.61882 0.00427 0.08787
C4_18 C 0.68482 0.14547 0.22727
C5_18 C 0.73783 0.18128 0.18517
C6_18 C 0.77953 0.24897 0.21887
C7_18 C 0.75793 0.15997 0.10027
C8_18 C 0.81173 0.19987 0.05067
H1_14 H 0.60632 0.00767 0.01467
H4_18 H 0.67232 0.16267 0.29167
H5_18 H 0.78033 0.27567 0.15967
H6_18 H 0.75633 0.25667 0.27667
H7_18 H 0.86333 0.24667 0.06667
H11_11 H 0.01233 0.79967 0.46867
Cu1_8 Cu 0.90103 0.70527 0.93527
N3_8 N 0.98016 0.75523 0.86353
O5_8 O 0.92683 0.65447 0.99257
N4_8 N 0.81783 0.65087 0.97377
O6_8 O 0.86513 0.74967 0.87267
O4_15 O 0.77753 0.74557 0.83777
C9_15 C 0.77413 0.66077 0.92067
C10_15 C 0.80593 0.72407 0.87347
C11_15 C 0.73913 0.61307 0.84367
C12_15 C 0.69813 0.54927 0.88557
C13_15 C 0.78383 0.60907 0.76877
H8_15 H 0.74033 0.65867 0.97167
H9_15 H 0.71333 0.62567 0.80067
H10_15 H 0.70133 0.54867 0.95967
H11_12 H 0.65433 0.53367 0.86467
H12_15 H 0.72633 0.54367 0.83667
H13_15 H 0.80933 0.59367 0.80767
H14_15 H 0.76133 0.57867 0.71167
H15_15 H 0.81133 0.64967 0.74067
C2_15 C 0.99546 0.73203 0.78623
C3_15 C 0.95216 0.67093 0.75453
H1_15 H 0.93966 0.67433 0.68133
H2_11 H 0.97266 0.64633 0.75433
H3_11 H 0.91066 0.64533 0.79033
O2_8 O 0.07317 0.34553 0.00743
O3_8 O 0.13487 0.25033 0.12733
O4_16 O 0.22247 0.25443 0.16223
N2_8 N 0.18217 0.34913 0.02623
C9_16 C 0.22587 0.33923 0.07933
C10_16 C 0.19407 0.27593 0.12653
C11_16 C 0.26087 0.38693 0.15633
C12_16 C 0.30187 0.45073 0.11443
C13_16 C 0.21617 0.39093 0.23123
H8_16 H 0.25967 0.34133 0.02833
H9_16 H 0.28667 0.37433 0.19933
H10_16 H 0.29867 0.45133 0.04033
H11_13 H 0.34567 0.46633 0.13533
H12_16 H 0.27367 0.45633 0.16333
H13_16 H 0.19067 0.40633 0.19233
H14_16 H 0.23867 0.42133 0.28833
H15_16 H 0.18867 0.35033 0.25933
Cu3_4 Cu 0.09897 0.29473 0.06473
N1_8 N 0.01984 0.24477 0.13647
C2_16 C 0.00454 0.26797 0.21377
C3_16 C 0.04784 0.32907 0.24547
H1_16 H 0.06034 0.32567 0.31867
H2_12 H 0.02734 0.35367 0.24567
H3_12 H 0.08934 0.35467 0.20967
H2_13 H 0.97967 0.34034 0.91233
H3_13 H 0.97867 0.40134 0.87633
N1_9 N 0.22492 0.98016 0.13647
C2_17 C 0.26342 0.99546 0.21377
C3_17 C 0.28122 0.95216 0.24547
H1_17 H 0.26532 0.93966 0.31867
H2_14 H 0.32632 0.97266 0.24567
H3_14 H 0.26532 0.91066 0.20967
Cu2_5 Cu 0.19577 0.90103 0.06473
O2_9 O 0.27237 0.92683 0.00743
O3_9 O 0.11547 0.86513 0.12733
O4_17 O 0.03197 0.77753 0.16223
N2_9 N 0.16697 0.81783 0.02623
C9_17 C 0.11337 0.77413 0.07933
C10_17 C 0.08187 0.80593 0.12653
C11_17 C 0.12607 0.73913 0.15633
C12_17 C 0.14887 0.69813 0.11443
C13_17 C 0.17477 0.78383 0.23123
H8_17 H 0.08167 0.74033 0.02833
H9_17 H 0.08767 0.71333 0.19933
H10_17 H 0.15267 0.70133 0.04033
H11_14 H 0.12067 0.65433 0.13533
H12_17 H 0.18267 0.72633 0.16333
H13_17 H 0.21567 0.80933 0.19233
H14_17 H 0.18267 0.76133 0.28833
H15_17 H 0.16167 0.81133 0.25933
Cu1_9 Cu 0.80423 0.09897 0.93527
N3_9 N 0.77508 0.01984 0.86353
O5_9 O 0.72763 0.07317 0.99257
N4_9 N 0.83303 0.18217 0.97377
O6_9 O 0.88453 0.13487 0.87267
C2_18 C 0.73658 0.00454 0.78623
C3_18 C 0.71878 0.04784 0.75453
H1_18 H 0.73468 0.06034 0.68133
H2_15 H 0.67368 0.02734 0.75433
H3_15 H 0.73468 0.08934 0.79033
O4_18 O 0.96803 0.22247 0.83777
C9_18 C 0.88663 0.22587 0.92067
C10_18 C 0.91813 0.19407 0.87347
C11_18 C 0.87393 0.26087 0.84367
C12_18 C 0.85113 0.30187 0.88557
C13_18 C 0.82523 0.21617 0.76877
H8_18 H 0.91833 0.25967 0.97167
H9_18 H 0.91233 0.28667 0.80067
H10_18 H 0.84733 0.29867 0.95967
H11_15 H 0.87933 0.34567 0.86467
H12_18 H 0.81733 0.27367 0.83667
H13_18 H 0.78433 0.19067 0.80767
H14_18 H 0.81733 0.23867 0.71167
H15_18 H 0.83833 0.18867 0.74067
H11_16 H 0.78733 0.98767 0.46867
H2_16 H 0.36068 0.02033 0.91233
H3_16 H 0.42268 0.02133 0.87633
H11_17 H 0.98767 0.20033 0.53133
H2_17 H 0.02033 0.65966 0.08767
H3_17 H 0.02133 0.59866 0.12367
H11_18 H 0.21267 0.01233 0.53133
H2_18 H 0.63932 0.97967 0.08767
H3_18 H 0.57732 0.97867 0.12367
loop_
_geom_bond_atom_site_label_1
_geom_bond_atom_site_label_2
_geom_bond_site_symmetry_1
_geom_bond_site_symmetry_2
Cu1 O1 1_555 1_555
O1 C6 1_555 1_555
O2 C1 1_555 1_555
N1 C2 1_555 1_555
N2 C8 1_555 1_555
C1 C2 1_555 1_555
C2 C3 1_555 1_555
C3 H1 1_555 1_555
C4 N1 1_555 1_555
C5 C4 1_555 1_555
C6 C5 1_555 1_555
C7 C1 1_555 1_555
C8 C7 1_555 1_555
C9 N2 1_555 1_555
C11 C9 1_555 1_555
C12 C11 1_555 1_555
C13 C11 1_555 1_555
H2 C3 1_555 1_555
H3 C3 1_555 1_555
H4 C4 1_555 1_555
H5 C6 1_555 1_555
H6 C6 1_555 1_555
H7 C8 1_555 1_555
H8 C9 1_555 1_555
H9 C11 1_555 1_555
H10 C12 1_555 1_555
H11 C12 1_555 1_555
H12 C12 1_555 1_555
H13 C13 1_555 1_555
H14 C13 1_555 1_555
H15 C13 1_555 1_555
N3 Cu1 1_555 1_555
Cu2 N1 1_555 1_555
O6 Cu1 1_555 1_555
C5 C7 1_555 1_555
O3 C10 1_555 1_555
O4 C10 1_555 1_555
O3 Cu3 1_555 1_555
O1_2 C6_2 1_555 1_555
O2_2 C1_2 1_555 1_555
O3_2 C10_2 1_555 1_555
O4_2 C10_2 1_555 1_555
N1_2 C2_2 1_555 1_555
N2_2 C8_2 1_555 1_555
C1_2 C2_2 1_555 1_555
C2_2 C3_2 1_555 1_555
C3_2 H1_2 1_555 1_555
C4_2 N1_2 1_555 1_555
C5_2 C4_2 1_555 1_555
C6_2 C5_2 1_555 1_555
C7_2 C1_2 1_555 1_555
C8_2 C7_2 1_555 1_555
C9_2 N2_2 1_555 1_555
C10_2 C9_2 1_555 1_555
C11_2 C9_2 1_555 1_555
C12_2 C11_2 1_555 1_555
C13_2 C11_2 1_555 1_555
H2_2 C3_2 1_555 1_555
H3_2 C3_2 1_555 1_555
H4_2 C4_2 1_555 1_555
H5_2 C6_2 1_555 1_555
H6_2 C6_2 1_555 1_555
H7_2 C8_2 1_555 1_555
H8_2 C9_2 1_555 1_555
H9_2 C11_2 1_555 1_555
H10_2 C12_2 1_555 1_555
H12_2 C12_2 1_555 1_555
H13_2 C13_2 1_555 1_555
H14_2 C13_2 1_555 1_555
H15_2 C13_2 1_555 1_555
Cu2_2 N1_2 1_555 1_555
Cu3_2 O2_2 1_555 1_555
O3_2 Cu3_2 1_555 1_555
N2_2 Cu3_2 1_555 1_555
C5_2 C7_2 1_555 1_555
Cu1_2 O1_3 1_555 1_555
O1_3 C6_3 1_555 1_555
N1_3 C2_3 1_555 1_555
C1_3 C2_3 1_555 1_555
C2_3 C3_3 1_555 1_555
C3_3 H1_3 1_555 1_555
C4_3 N1_3 1_555 1_555
C5_3 C4_3 1_555 1_555
C6_3 C5_3 1_555 1_555
C7_3 C1_3 1_555 1_555
C8_3 C7_3 1_555 1_555
H4_3 C4_3 1_555 1_555
H5_3 C6_3 1_555 1_555
H6_3 C6_3 1_555 1_555
H7_3 C8_3 1_555 1_555
N3_2 Cu1_2 1_555 1_555
Cu2_3 N1_3 1_555 1_555
O5_2 Cu1_2 1_555 1_555
N4_2 Cu1_2 1_555 1_555
O6_2 Cu1_2 1_555 1_555
C5_3 C7_3 1_555 1_555
O3_3 C10_3 1_555 1_555
O4_3 C10_3 1_555 1_555
O3_3 Cu2_3 1_555 1_555
Cu1_3 O1_4 1_555 1_555
O1_4 C6_4 1_555 1_555
O2_3 C1_4 1_555 1_555
N1_4 C2_4 1_555 1_555
N2_3 C8_4 1_555 1_555
C1_4 C2_4 1_555 1_555
C2_4 C3_4 1_555 1_555
C3_4 H1_4 1_555 1_555
C4_4 N1_4 1_555 1_555
C5_4 C4_4 1_555 1_555
C6_4 C5_4 1_555 1_555
C7_4 C1_4 1_555 1_555
C8_4 C7_4 1_555 1_555
C9_3 N2_3 1_555 1_555
C11_3 C9_3 1_555 1_555
C12_3 C11_3 1_555 1_555
C13_3 C11_3 1_555 1_555
H2_3 C3_4 1_555 1_555
H3_3 C3_4 1_555 1_555
H4_4 C4_4 1_555 1_555
H5_4 C6_4 1_555 1_555
H6_4 C6_4 1_555 1_555
H7_4 C8_4 1_555 1_555
H8_3 C9_3 1_555 1_555
H9_3 C11_3 1_555 1_555
H10_3 C12_3 1_555 1_555
H11_2 C12_3 1_555 1_555
H12_3 C12_3 1_555 1_555
H13_3 C13_3 1_555 1_555
H14_3 C13_3 1_555 1_555
H15_3 C13_3 1_555 1_555
N3_3 Cu1_3 1_555 1_555
Cu2_4 N1_4 1_555 1_555
O6_3 Cu1_3 1_555 1_555
C5_4 C7_4 1_555 1_555
Cu1_4 O1_5 1_555 1_555
O1_5 C6_5 1_555 1_555
O2_4 C1_5 1_555 1_555
O3_4 C10_4 1_555 1_555
O4_4 C10_4 1_555 1_555
N1_5 C2_5 1_555 1_555
N2_4 C8_5 1_555 1_555
C1_5 C2_5 1_555 1_555
C2_5 C3_5 1_555 1_555
C3_5 H1_5 1_555 1_555
C4_5 N1_5 1_555 1_555
C5_5 C4_5 1_555 1_555
C6_5 C5_5 1_555 1_555
C7_5 C1_5 1_555 1_555
C8_5 C7_5 1_555 1_555
C9_4 N2_4 1_555 1_555
C10_4 C9_4 1_555 1_555
C11_4 C9_4 1_555 1_555
C12_4 C11_4 1_555 1_555
C13_4 C11_4 1_555 1_555
H2_4 C3_5 1_555 1_555
H3_4 C3_5 1_555 1_555
H4_5 C4_5 1_555 1_555
H5_5 C6_5 1_555 1_555
H6_5 C6_5 1_555 1_555
H7_5 C8_5 1_555 1_555
H8_4 C9_4 1_555 1_555
H9_4 C11_4 1_555 1_555
H10_4 C12_4 1_555 1_555
H11_3 C12_4 1_555 1_555
H12_4 C12_4 1_555 1_555
H13_4 C13_4 1_555 1_555
H14_4 C13_4 1_555 1_555
H15_4 C13_4 1_555 1_555
N3_4 Cu1_4 1_555 1_555
Cu3_2 N1_5 1_555 1_555
O5_4 Cu1_4 1_555 1_555
N4_4 Cu1_4 1_555 1_555
Cu3_3 O2_4 1_555 1_555
O6_4 Cu1_4 1_555 1_555
O3_4 Cu3_3 1_555 1_555
N2_4 Cu3_3 1_555 1_555
C5_5 C7_5 1_555 1_555
O1_6 C6_6 1_555 1_555
O2_5 C1_6 1_555 1_555
O3_5 C10_5 1_555 1_555
O4_5 C10_5 1_555 1_555
N2_5 C8_6 1_555 1_555
C5_6 C4_6 1_555 1_555
C6_6 C5_6 1_555 1_555
C7_6 C1_6 1_555 1_555
C8_6 C7_6 1_555 1_555
C9_5 N2_5 1_555 1_555
C10_5 C9_5 1_555 1_555
C11_5 C9_5 1_555 1_555
C12_5 C11_5 1_555 1_555
C13_5 C11_5 1_555 1_555
H4_6 C4_6 1_555 1_555
H5_6 C6_6 1_555 1_555
H6_6 C6_6 1_555 1_555
H7_6 C8_6 1_555 1_555
H8_5 C9_5 1_555 1_555
H9_5 C11_5 1_555 1_555
H10_5 C12_5 1_555 1_555
H11_4 C12_5 1_555 1_555
H12_5 C12_5 1_555 1_555
H13_5 C13_5 1_555 1_555
H14_5 C13_5 1_555 1_555
H15_5 C13_5 1_555 1_555
Cu2 O2_5 1_555 1_555
O3_5 Cu2 1_555 1_555
N2_5 Cu2 1_555 1_555
C5_6 C7_6 1_555 1_555
N3_5 Cu1_5 1_555 1_555
O5_5 Cu1_5 1_555 1_555
N4_5 Cu1_5 1_555 1_555
O6_5 Cu1_5 1_555 1_555
O1_7 C6_7 1_555 1_555
O2_6 C1_7 1_555 1_555
O3_6 C10_6 1_555 1_555
O4_6 C10_6 1_555 1_555
N2_6 C8_7 1_555 1_555
C5_7 C4_7 1_555 1_555
C6_7 C5_7 1_555 1_555
C7_7 C1_7 1_555 1_555
C8_7 C7_7 1_555 1_555
C9_6 N2_6 1_555 1_555
C10_6 C9_6 1_555 1_555
C11_6 C9_6 1_555 1_555
C12_6 C11_6 1_555 1_555
C13_6 C11_6 1_555 1_555
H4_7 C4_7 1_555 1_555
H5_7 C6_7 1_555 1_555
H6_7 C6_7 1_555 1_555
H7_7 C8_7 1_555 1_555
H8_6 C9_6 1_555 1_555
H9_6 C11_6 1_555 1_555
H10_6 C12_6 1_555 1_555
H12_6 C12_6 1_555 1_555
H13_6 C13_6 1_555 1_555
H14_6 C13_6 1_555 1_555
H15_6 C13_6 1_555 1_555
Cu2_4 O2_6 1_555 1_555
O3_6 Cu2_4 1_555 1_555
N2_6 Cu2_4 1_555 1_555
C5_7 C7_7 1_555 1_555
O3_7 C10_7 1_555 1_555
O4_7 C10_7 1_555 1_555
C9_7 N2_7 1_555 1_555
C10_7 C9_7 1_555 1_555
C11_7 C9_7 1_555 1_555
C12_7 C11_7 1_555 1_555
C13_7 C11_7 1_555 1_555
H8_7 C9_7 1_555 1_555
H9_7 C11_7 1_555 1_555
H10_7 C12_7 1_555 1_555
H11_5 C12_7 1_555 1_555
H12_7 C12_7 1_555 1_555
H13_7 C13_7 1_555 1_555
H14_7 C13_7 1_555 1_555
H15_7 C13_7 1_555 1_555
Cu2_2 O2_7 1_555 1_555
O3_7 Cu2_2 1_555 1_555
N2_7 Cu2_2 1_555 1_555
Cu1_6 O1_8 1_555 1_555
O1_8 C6_8 1_555 1_555
N1_6 C2_6 1_555 1_555
C1_8 C2_6 1_555 1_555
C2_6 C3_6 1_555 1_555
C3_6 H1_6 1_555 1_555
C4_8 N1_6 1_555 1_555
C5_8 C4_8 1_555 1_555
C6_8 C5_8 1_555 1_555
C7_8 C1_8 1_555 1_555
C8_8 C7_8 1_555 1_555
H2_5 C3_6 1_555 1_555
H3_5 C3_6 1_555 1_555
H4_8 C4_8 1_555 1_555
H5_8 C6_8 1_555 1_555
H6_8 C6_8 1_555 1_555
H7_8 C8_8 1_555 1_555
N3_6 Cu1_6 1_555 1_555
Cu3_3 N1_6 1_555 1_555
O5_6 Cu1_6 1_555 1_555
N4_6 Cu1_6 1_555 1_555
O6_6 Cu1_6 1_555 1_555
C5_8 C7_8 1_555 1_555
Cu1_7 O1_9 1_555 1_555
O1_9 C6_9 1_555 1_555
N1_7 C2_7 1_555 1_555
C1_9 C2_7 1_555 1_555
C2_7 C3_7 1_555 1_555
C3_7 H1_7 1_555 1_555
C4_9 N1_7 1_555 1_555
C5_9 C4_9 1_555 1_555
C6_9 C5_9 1_555 1_555
C7_9 C1_9 1_555 1_555
C8_9 C7_9 1_555 1_555
H4_9 C4_9 1_555 1_555
H5_9 C6_9 1_555 1_555
H6_9 C6_9 1_555 1_555
H7_9 C8_9 1_555 1_555
N3_7 Cu1_7 1_555 1_555
Cu3 N1_7 1_555 1_555
O5_7 Cu1_7 1_555 1_555
N4_7 Cu1_7 1_555 1_555
O6_7 Cu1_7 1_555 1_555
C5_9 C7_9 1_555 1_555
O6 C10_8 1_555 1_555
O4_8 C10_8 1_555 1_555
Cu3 O1_10 1_555 1_555
O1_10 C6_10 1_555 1_555
O5 C1_10 1_555 1_555
N3_6 C2_8 1_555 1_555
N4 C8_10 1_555 1_555
C1_10 C2_8 1_555 1_555
C2_8 C3_8 1_555 1_555
C3_8 H1_8 1_555 1_555
C4_10 N3_6 1_555 1_555
C5_10 C4_10 1_555 1_555
C6_10 C5_10 1_555 1_555
C7_10 C1_10 1_555 1_555
C8_10 C7_10 1_555 1_555
C9_8 N4 1_555 1_555
C11_8 C9_8 1_555 1_555
C12_8 C11_8 1_555 1_555
C13_8 C11_8 1_555 1_555
H2_6 C3_8 1_555 1_555
H3_6 C3_8 1_555 1_555
H4_10 C4_10 1_555 1_555
H5_10 C6_10 1_555 1_555
H6_10 C6_10 1_555 1_555
H7_10 C8_10 1_555 1_555
H8_8 C9_8 1_555 1_555
H9_8 C11_8 1_555 1_555
H10_8 C12_8 1_555 1_555
H11_6 C12_8 1_555 1_555
H12_8 C12_8 1_555 1_555
H13_8 C13_8 1_555 1_555
H14_8 C13_8 1_555 1_555
H15_8 C13_8 1_555 1_555
C5_10 C7_10 1_555 1_555
O1_11 C6_11 1_555 1_555
O5_2 C1_11 1_555 1_555
O6_2 C10_9 1_555 1_555
O4_9 C10_9 1_555 1_555
N3_5 C2_9 1_555 1_555
N4_2 C8_11 1_555 1_555
C1_11 C2_9 1_555 1_555
C2_9 C3_9 1_555 1_555
C3_9 H1_9 1_555 1_555
C4_11 N3_5 1_555 1_555
C5_11 C4_11 1_555 1_555
C6_11 C5_11 1_555 1_555
C7_11 C1_11 1_555 1_555
C8_11 C7_11 1_555 1_555
C9_9 N4_2 1_555 1_555
C10_9 C9_9 1_555 1_555
C11_9 C9_9 1_555 1_555
C12_9 C11_9 1_555 1_555
C13_9 C11_9 1_555 1_555
H2_7 C3_9 1_555 1_555
H3_7 C3_9 1_555 1_555
H4_11 C4_11 1_555 1_555
H5_11 C6_11 1_555 1_555
H6_11 C6_11 1_555 1_555
H7_11 C8_11 1_555 1_555
H8_9 C9_9 1_555 1_555
H9_9 C11_9 1_555 1_555
H10_9 C12_9 1_555 1_555
H12_9 C12_9 1_555 1_555
H13_9 C13_9 1_555 1_555
H14_9 C13_9 1_555 1_555
H15_9 C13_9 1_555 1_555
C5_11 C7_11 1_555 1_555
Cu3_2 O1_12 1_555 1_555
O1_12 C6_12 1_555 1_555
N3_3 C2_10 1_555 1_555
C1_12 C2_10 1_555 1_555
C2_10 C3_10 1_555 1_555
C3_10 H1_10 1_555 1_555
C4_12 N3_3 1_555 1_555
C5_12 C4_12 1_555 1_555
C6_12 C5_12 1_555 1_555
C7_12 C1_12 1_555 1_555
C8_12 C7_12 1_555 1_555
H4_12 C4_12 1_555 1_555
H5_12 C6_12 1_555 1_555
H6_12 C6_12 1_555 1_555
H7_12 C8_12 1_555 1_555
C5_12 C7_12 1_555 1_555
Cu2_3 O1_13 1_555 1_555
O1_13 C6_13 1_555 1_555
O5_3 C1_13 1_555 1_555
N3_7 C2_11 1_555 1_555
N4_3 C8_13 1_555 1_555
C1_13 C2_11 1_555 1_555
C2_11 C3_11 1_555 1_555
C3_11 H1_11 1_555 1_555
C4_13 N3_7 1_555 1_555
C5_13 C4_13 1_555 1_555
C6_13 C5_13 1_555 1_555
C7_13 C1_13 1_555 1_555
C8_13 C7_13 1_555 1_555
C9_10 N4_3 1_555 1_555
C11_10 C9_10 1_555 1_555
C12_10 C11_10 1_555 1_555
C13_10 C11_10 1_555 1_555
H2_8 C3_11 1_555 1_555
H3_8 C3_11 1_555 1_555
H4_13 C4_13 1_555 1_555
H5_13 C6_13 1_555 1_555
H6_13 C6_13 1_555 1_555
H7_13 C8_13 1_555 1_555
H8_10 C9_10 1_555 1_555
H9_10 C11_10 1_555 1_555
H10_10 C12_10 1_555 1_555
H11_7 C12_10 1_555 1_555
H12_10 C12_10 1_555 1_555
H13_10 C13_10 1_555 1_555
H14_10 C13_10 1_555 1_555
H15_10 C13_10 1_555 1_555
C5_13 C7_13 1_555 1_555
O6_3 C10_10 1_555 1_555
O4_10 C10_10 1_555 1_555
Cu3_3 O1_14 1_555 1_555
O1_14 C6_14 1_555 1_555
O5_4 C1_14 1_555 1_555
O6_4 C10_11 1_555 1_555
O4_11 C10_11 1_555 1_555
N3_2 C2_12 1_555 1_555
N4_4 C8_14 1_555 1_555
C1_14 C2_12 1_555 1_555
C2_12 C3_12 1_555 1_555
C3_12 H1_12 1_555 1_555
C4_14 N3_2 1_555 1_555
C5_14 C4_14 1_555 1_555
C6_14 C5_14 1_555 1_555
C7_14 C1_14 1_555 1_555
C8_14 C7_14 1_555 1_555
C9_11 N4_4 1_555 1_555
C10_11 C9_11 1_555 1_555
C11_11 C9_11 1_555 1_555
C12_11 C11_11 1_555 1_555
C13_11 C11_11 1_555 1_555
H2_9 C3_12 1_555 1_555
H3_9 C3_12 1_555 1_555
H4_14 C4_14 1_555 1_555
H5_14 C6_14 1_555 1_555
H6_14 C6_14 1_555 1_555
H7_14 C8_14 1_555 1_555
H8_11 C9_11 1_555 1_555
H9_11 C11_11 1_555 1_555
H10_11 C12_11 1_555 1_555
H11_8 C12_11 1_555 1_555
H12_11 C12_11 1_555 1_555
H13_11 C13_11 1_555 1_555
H14_11 C13_11 1_555 1_555
H15_11 C13_11 1_555 1_555
C5_14 C7_14 1_555 1_555
O1_15 C6_15 1_555 1_555
O5_6 C1_15 1_555 1_555
O6_6 C10_12 1_555 1_555
O4_12 C10_12 1_555 1_555
N4_6 C8_15 1_555 1_555
C5_15 C4_15 1_555 1_555
C6_15 C5_15 1_555 1_555
C7_15 C1_15 1_555 1_555
C8_15 C7_15 1_555 1_555
C9_12 N4_6 1_555 1_555
C10_12 C9_12 1_555 1_555
C11_12 C9_12 1_555 1_555
C12_12 C11_12 1_555 1_555
C13_12 C11_12 1_555 1_555
H4_15 C4_15 1_555 1_555
H5_15 C6_15 1_555 1_555
H6_15 C6_15 1_555 1_555
H7_15 C8_15 1_555 1_555
H8_12 C9_12 1_555 1_555
H9_12 C11_12 1_555 1_555
H10_12 C12_12 1_555 1_555
H11_9 C12_12 1_555 1_555
H12_12 C12_12 1_555 1_555
H13_12 C13_12 1_555 1_555
H14_12 C13_12 1_555 1_555
H15_12 C13_12 1_555 1_555
C5_15 C7_15 1_555 1_555
O1_16 C6_16 1_555 1_555
O5_7 C1_16 1_555 1_555
O6_7 C10_13 1_555 1_555
O4_13 C10_13 1_555 1_555
N4_7 C8_16 1_555 1_555
C5_16 C4_16 1_555 1_555
C6_16 C5_16 1_555 1_555
C7_16 C1_16 1_555 1_555
C8_16 C7_16 1_555 1_555
C9_13 N4_7 1_555 1_555
C10_13 C9_13 1_555 1_555
C11_13 C9_13 1_555 1_555
C12_13 C11_13 1_555 1_555
C13_13 C11_13 1_555 1_555
H4_16 C4_16 1_555 1_555
H5_16 C6_16 1_555 1_555
H6_16 C6_16 1_555 1_555
H7_16 C8_16 1_555 1_555
H8_13 C9_13 1_555 1_555
H9_13 C11_13 1_555 1_555
H10_13 C12_13 1_555 1_555
H12_13 C12_13 1_555 1_555
H13_13 C13_13 1_555 1_555
H14_13 C13_13 1_555 1_555
H15_13 C13_13 1_555 1_555
C5_16 C7_16 1_555 1_555
Cu2 O1_17 1_555 1_555
O1_17 C6_17 1_555 1_555
N3_4 C2_13 1_555 1_555
C1_17 C2_13 1_555 1_555
C2_13 C3_13 1_555 1_555
C3_13 H1_13 1_555 1_555
C4_17 N3_4 1_555 1_555
C5_17 C4_17 1_555 1_555
C6_17 C5_17 1_555 1_555
C7_17 C1_17 1_555 1_555
C8_17 C7_17 1_555 1_555
H2_10 C3_13 1_555 1_555
H3_10 C3_13 1_555 1_555
H4_17 C4_17 1_555 1_555
H5_17 C6_17 1_555 1_555
H6_17 C6_17 1_555 1_555
H7_17 C8_17 1_555 1_555
C5_17 C7_17 1_555 1_555
O6_5 C10_14 1_555 1_555
O4_14 C10_14 1_555 1_555
C9_14 N4_5 1_555 1_555
C10_14 C9_14 1_555 1_555
C11_14 C9_14 1_555 1_555
C12_14 C11_14 1_555 1_555
C13_14 C11_14 1_555 1_555
H8_14 C9_14 1_555 1_555
H9_14 C11_14 1_555 1_555
H10_14 C12_14 1_555 1_555
H11_10 C12_14 1_555 1_555
H12_14 C12_14 1_555 1_555
H13_14 C13_14 1_555 1_555
H14_14 C13_14 1_555 1_555
H15_14 C13_14 1_555 1_555
Cu2_4 O1_18 1_555 1_555
O1_18 C6_18 1_555 1_555
N3 C2_14 1_555 1_555
C1_18 C2_14 1_555 1_555
C2_14 C3_14 1_555 1_555
C3_14 H1_14 1_555 1_555
C4_18 N3 1_555 1_555
C5_18 C4_18 1_555 1_555
C6_18 C5_18 1_555 1_555
C7_18 C1_18 1_555 1_555
C8_18 C7_18 1_555 1_555
H4_18 C4_18 1_555 1_555
H5_18 C6_18 1_555 1_555
H6_18 C6_18 1_555 1_555
H7_18 C8_18 1_555 1_555
C5_18 C7_18 1_555 1_555
N3_8 Cu1_8 1_555 1_555
O5_8 Cu1_8 1_555 1_555
N4_8 Cu1_8 1_555 1_555
O6_8 Cu1_8 1_555 1_555
O6_8 C10_15 1_555 1_555
O4_15 C10_15 1_555 1_555
C9_15 N4_8 1_555 1_555
C10_15 C9_15 1_555 1_555
C11_15 C9_15 1_555 1_555
C12_15 C11_15 1_555 1_555
C13_15 C11_15 1_555 1_555
H8_15 C9_15 1_555 1_555
H9_15 C11_15 1_555 1_555
H10_15 C12_15 1_555 1_555
H11_12 C12_15 1_555 1_555
H12_15 C12_15 1_555 1_555
H13_15 C13_15 1_555 1_555
H14_15 C13_15 1_555 1_555
H15_15 C13_15 1_555 1_555
N3_8 C2_15 1_555 1_555
C2_15 C3_15 1_555 1_555
C3_15 H1_15 1_555 1_555
H2_11 C3_15 1_555 1_555
H3_11 C3_15 1_555 1_555
O3_8 C10_16 1_555 1_555
O4_16 C10_16 1_555 1_555
C9_16 N2_8 1_555 1_555
C10_16 C9_16 1_555 1_555
C11_16 C9_16 1_555 1_555
C12_16 C11_16 1_555 1_555
C13_16 C11_16 1_555 1_555
H8_16 C9_16 1_555 1_555
H9_16 C11_16 1_555 1_555
H10_16 C12_16 1_555 1_555
H11_13 C12_16 1_555 1_555
H12_16 C12_16 1_555 1_555
H13_16 C13_16 1_555 1_555
H14_16 C13_16 1_555 1_555
H15_16 C13_16 1_555 1_555
Cu3_4 O2_8 1_555 1_555
O3_8 Cu3_4 1_555 1_555
N2_8 Cu3_4 1_555 1_555
N1_8 C2_16 1_555 1_555
C2_16 C3_16 1_555 1_555
C3_16 H1_16 1_555 1_555
H2_12 C3_16 1_555 1_555
H3_12 C3_16 1_555 1_555
Cu3_4 N1_8 1_555 1_555
N1_9 C2_17 1_555 1_555
C2_17 C3_17 1_555 1_555
C3_17 H1_17 1_555 1_555
H2_14 C3_17 1_555 1_555
H3_14 C3_17 1_555 1_555
Cu2_5 N1_9 1_555 1_555
O3_9 C10_17 1_555 1_555
O4_17 C10_17 1_555 1_555
C9_17 N2_9 1_555 1_555
C10_17 C9_17 1_555 1_555
C11_17 C9_17 1_555 1_555
C12_17 C11_17 1_555 1_555
C13_17 C11_17 1_555 1_555
H8_17 C9_17 1_555 1_555
H9_17 C11_17 1_555 1_555
H10_17 C12_17 1_555 1_555
H11_14 C12_17 1_555 1_555
H12_17 C12_17 1_555 1_555
H13_17 C13_17 1_555 1_555
H14_17 C13_17 1_555 1_555
H15_17 C13_17 1_555 1_555
Cu2_5 O2_9 1_555 1_555
O3_9 Cu2_5 1_555 1_555
N2_9 Cu2_5 1_555 1_555
N3_9 Cu1_9 1_555 1_555
O5_9 Cu1_9 1_555 1_555
N4_9 Cu1_9 1_555 1_555
O6_9 Cu1_9 1_555 1_555
N3_9 C2_18 1_555 1_555
C2_18 C3_18 1_555 1_555
C3_18 H1_18 1_555 1_555
H2_15 C3_18 1_555 1_555
H3_15 C3_18 1_555 1_555
O6_9 C10_18 1_555 1_555
O4_18 C10_18 1_555 1_555
C9_18 N4_9 1_555 1_555
C10_18 C9_18 1_555 1_555
C11_18 C9_18 1_555 1_555
C12_18 C11_18 1_555 1_555
C13_18 C11_18 1_555 1_555
H8_18 C9_18 1_555 1_555
H9_18 C11_18 1_555 1_555
H10_18 C12_18 1_555 1_555
H11_15 C12_18 1_555 1_555
H12_18 C12_18 1_555 1_555
H13_18 C13_18 1_555 1_555
H14_18 C13_18 1_555 1_555
H15_18 C13_18 1_555 1_555

#END
