
###############################################################################
#
# This file contains modified crystal structure data generated from the
# MOF subset of the Cambridge Structural Database (CSD) v543 
# hosted by the Cambridge Crystallographic Data Centre (CCDC).
#
# This work is licensed under the Creative Commons
# Attribution-NonCommercial-ShareAlike 4.0 International License.
# To view a copy of this license, visit
# http://creativecommons.org/licenses/by-nc-sa/4.0/
# or send a letter to
# Creative Commons, PO Box 1866, Mountain View, CA 94042, USA.
#
# CIF created using the CSD Python API on 29 September 2022
# The structure has been converted into the P1 space group
# The structure has a 3D framework
# The original CSD entry BELQAN is in the monoclinic crystal system
# The framework has been calculated to contain at least 10.0% void space
# The void calculation uses a probe of radius 1.32A, grid spacing 0.4
# H atom positions have been added when not included in the experimental data
#
###############################################################################

data_BELQAN
_chemical_formula_moiety         '(C320 H240 Mn16 N32 O100)n'
_symmetry_cell_setting           triclinic
_symmetry_space_group_name_H-M   'P 1'
_symmetry_Int_Tables_number      1
_space_group_name_Hall           'P 1'
loop_
_symmetry_equiv_pos_site_id
_symmetry_equiv_pos_as_xyz
1 x,y,z
_cell_length_a                   20.708(14)
_cell_length_b                   10.961(8)
_cell_length_c                   35.96(2)
_cell_angle_alpha                90
_cell_angle_beta                 90.66(2)
_cell_angle_gamma                90
_cell_volume                     8161.67
loop_
_atom_site_label
_atom_site_type_symbol
_atom_site_fract_x
_atom_site_fract_y
_atom_site_fract_z
Mn4 Mn 0.25201(7) 0.02911(13) 0.03690(4)
Mn5 Mn 0.44267(7) 0.10438(12) 0.10788(4)
Mn2 Mn 0.55733(7) 0.10438(12) 0.39212(4)
C1 C 0.4995(7) 0.3486(12) 0.4051(4)
H1 H 0.514071 0.334944 0.429280
C2 C 0.4672(7) 0.4546(12) 0.3976(4)
H2 H 0.459720 0.512801 0.415900
C3 C 0.4460(6) 0.4701(11) 0.3610(4)
H3 H 0.423778 0.540849 0.354624
C4 C 0.4572(5) 0.3835(10) 0.3340(3)
C5 C 0.4881(5) 0.2821(11) 0.3446(3)
H4 H 0.493897 0.221106 0.326992
C6 C 0.4348(5) 0.4028(10) 0.2964(3)
C7 C 0.4244(5) 0.5172(10) 0.2813(3)
H5 H 0.432987 0.585554 0.295862
C8 C 0.4017(6) 0.5338(11) 0.2456(3)
H6 H 0.392645 0.612197 0.237105
C9 C 0.3920(5) 0.4352(10) 0.2219(3)
C10 C 0.4011(5) 0.3194(11) 0.2363(3)
H7 H 0.393102 0.251470 0.221482
C11 C 0.4220(5) 0.3040(11) 0.2724(3)
H8 H 0.427859 0.225154 0.281350
C12 C 0.3697(5) 0.4473(11) 0.1832(3)
C13 C 0.3614(5) 0.5900(10) 0.1312(3)
C14 C 0.3730(5) 0.7136(11) 0.1221(3)
H9 H 0.393664 0.763133 0.139579
C15 C 0.3552(5) 0.7626(10) 0.0888(3)
C16 C 0.3248(6) 0.6902(9) 0.0636(3)
H10 H 0.312266 0.722667 0.040767
C17 C 0.3119(5) 0.5691(10) 0.0711(3)
C18 C 0.3311(5) 0.5213(10) 0.1041(3)
H11 H 0.323499 0.439079 0.108701
C19 C 0.3673(5) 0.8948(11) 0.0819(3)
C20 C 0.2819(6) 0.4882(10) 0.0422(3)
N1 N 0.5116(4) 0.2626(9) 0.3792(3)
N2 N 0.3809(5) 0.5522(8) 0.1670(2)
O1 O 0.3434(4) 0.3615(7) 0.1676(2)
O2 O 0.5582(4) 0.1321(9) 0.4543(2)
H23 H 0.577482 0.074352 0.469817
H24 H 0.539374 0.201379 0.464481
O3 O 0.3970(4) 0.9498(7) 0.1060(2)
O4 O 0.6399(4) 0.1846(9) 0.3830(3)
H25 H 0.677578 0.138644 0.381762
H26 H 0.641592 0.268836 0.379994
O5 O 0.3470(4) 0.9417(7) 0.0527(2)
H27 H 0.188529 0.326251 0.009480
O7 O 0.2691(4) 0.5389(7) 0.0118(2)
O8 O 0.2755(6) 0.3800(8) 0.0484(2)
O17 O 0.4766(4) 0.0105(8) 0.3917(2)
H30 H 0.406794 0.61365 0.182123
Mn1 Mn 0.24799(7) 0.47089(13) 0.96310(4)
C21 C 0.3352(7) 0.6927(13) 0.9560(4)
H12 H 0.343827 0.677991 0.981041
C22 C 0.3605(6) 0.7940(12) 0.9401(3)
H13 H 0.386915 0.845827 0.953987
C23 C 0.3471(6) 0.8192(11) 0.9040(3)
H14 H 0.362456 0.889594 0.892658
C24 C 0.3092(5) 0.7351(11) 0.8844(3)
C25 C 0.2856(5) 0.6343(9) 0.9034(3)
H15 H 0.259036 0.579546 0.890752
C26 C 0.2916(5) 0.7553(10) 0.8443(3)
C27 C 0.2871(5) 0.8713(10) 0.8287(3)
H16 H 0.295446 0.939486 0.843405
C28 C 0.2707(5) 0.8863(10) 0.7922(3)
H17 H 0.268703 0.964072 0.781893
C29 C 0.2572(5) 0.7864(10) 0.7707(3)
C30 C 0.2630(5) 0.6719(10) 0.7849(3)
H18 H 0.255448 0.604160 0.769849
C31 C 0.2799(6) 0.6575(11) 0.8208(3)
H19 H 0.283871 0.578766 0.830195
C32 C 0.2387(5) 0.8064(11) 0.7300(3)
C33 C 0.1711(5) 0.7151(10) 0.6805(3)
C34 C 0.1960(5) 0.7735(9) 0.6491(3)
H20 H 0.230704 0.826970 0.651553
C35 C 0.1698(5) 0.7521(10) 0.6154(3)
C36 C 0.1163(6) 0.6760(10) 0.6115(3)
H21 H 0.097529 0.664549 0.588173
C37 C 0.0910(5) 0.6180(10) 0.6417(3)
C38 C 0.1170(5) 0.6403(9) 0.6772(4)
H22 H 0.098504 0.605748 0.698168
C39 C 0.1952(6) 0.8198(10) 0.5826(3)
C40 C 0.0351(6) 0.5344(11) 0.6386(4)
N3 N 0.2990(4) 0.6144(8) 0.9375(2)
N4 N 0.1957(4) 0.7245(8) 0.7173(2)
O6 O 0.1938(4) 0.3335(7) 0.9839(2)
H28 H 0.174145 0.277706 0.967924
O9 O 0.2635(4) 0.8881(7) 0.7121(2)
O10 O 0.2486(4) 0.8783(7) 0.5860(2)
O11 O 0.1648(4) 0.8175(9) 0.5527(2)
O12 O 0.0234(4) 0.4895(8) 0.6083(2)
O13 O 0.0024(4) 0.5151(8) 0.6674(3)
Mn3 Mn 0.25201(7) 0.97089(13) 0.53690(4)
O15 O 0.1530(4) 0.5583(7) 0.9473(2)
O16 O 0.2514(4) 0.3783(7) 0.9140(2)
H29 H 0.179077 0.66293 0.735974
O14 O 0.6030(4) 0.9498(7) 0.3940(2)
Mn6 Mn 0.94267(7) 0.39562(12) 0.60788(4)
Mn6_2 Mn 0.05733(7) 0.39562(12) 0.89212(4)
Mn4_2 Mn 0.74799(7) 0.02911(13) 0.46310(4)
Mn1_2 Mn 0.75201(7) 0.47089(13) 0.53690(4)
C1_2 C 0.5005(7) 0.3486(12) 0.0949(4)
H1_2 H 0.485929 0.334944 0.070720
C2_2 C 0.5328(7) 0.4546(12) 0.1024(4)
H2_2 H 0.540280 0.512801 0.084100
C3_2 C 0.5540(6) 0.4701(11) 0.1390(4)
H3_2 H 0.576222 0.540849 0.145376
C4_2 C 0.5428(5) 0.3835(10) 0.1660(3)
C5_2 C 0.5119(5) 0.2821(11) 0.1554(3)
H4_2 H 0.506103 0.221106 0.173008
C6_2 C 0.5652(5) 0.4028(10) 0.2036(3)
C7_2 C 0.5756(5) 0.5172(10) 0.2187(3)
H5_2 H 0.567013 0.585554 0.204138
C8_2 C 0.5983(6) 0.5338(11) 0.2544(3)
H6_2 H 0.607355 0.612197 0.262895
C9_2 C 0.6080(5) 0.4352(10) 0.2781(3)
C10_2 C 0.5989(5) 0.3194(11) 0.2637(3)
H7_2 H 0.606898 0.251470 0.278518
C11_2 C 0.5780(5) 0.3040(11) 0.2276(3)
H8_2 H 0.572141 0.225154 0.218650
C12_2 C 0.6303(5) 0.4473(11) 0.3168(3)
C13_2 C 0.6386(5) 0.5900(10) 0.3688(3)
C14_2 C 0.6270(5) 0.7136(11) 0.3779(3)
H9_2 H 0.606336 0.763133 0.360421
C15_2 C 0.6448(5) 0.7626(10) 0.4112(3)
C16_2 C 0.6752(6) 0.6902(9) 0.4364(3)
H10_2 H 0.687734 0.722667 0.459233
C17_2 C 0.6881(5) 0.5691(10) 0.4289(3)
C18_2 C 0.6689(5) 0.5213(10) 0.3959(3)
H11_2 H 0.676501 0.439079 0.391299
C19_2 C 0.6327(5) 0.8948(11) 0.4181(3)
C20_2 C 0.7181(6) 0.4882(10) 0.4578(3)
C21_2 C 0.6648(7) 0.6927(13) 0.5440(4)
H12_2 H 0.656173 0.677991 0.518959
C22_2 C 0.6395(6) 0.7940(12) 0.5599(3)
H13_2 H 0.613085 0.845827 0.546013
C23_2 C 0.6529(6) 0.8192(11) 0.5960(3)
H14_2 H 0.637544 0.889594 0.607342
C24_2 C 0.6908(5) 0.7351(11) 0.6156(3)
C25_2 C 0.7144(5) 0.6343(9) 0.5966(3)
H15_2 H 0.740964 0.579546 0.609248
C26_2 C 0.7084(5) 0.7553(10) 0.6557(3)
C27_2 C 0.7129(5) 0.8713(10) 0.6713(3)
H16_2 H 0.704554 0.939486 0.656595
C28_2 C 0.7293(5) 0.8863(10) 0.7078(3)
H17_2 H 0.731297 0.964072 0.718107
C29_2 C 0.7428(5) 0.7864(10) 0.7293(3)
C30_2 C 0.7370(5) 0.6719(10) 0.7151(3)
H18_2 H 0.744552 0.604160 0.730151
C31_2 C 0.7201(6) 0.6575(11) 0.6792(3)
H19_2 H 0.716129 0.578766 0.669805
C32_2 C 0.7613(5) 0.8064(11) 0.7700(3)
C33_2 C 0.8289(5) 0.7151(10) 0.8195(3)
C34_2 C 0.8040(5) 0.7735(9) 0.8509(3)
H20_2 H 0.769296 0.826970 0.848447
C35_2 C 0.8302(5) 0.7521(10) 0.8846(3)
C36_2 C 0.8837(6) 0.6760(10) 0.8885(3)
H21_2 H 0.902471 0.664549 0.911827
C37_2 C 0.9090(5) 0.6180(10) 0.8583(3)
C38_2 C 0.8830(5) 0.6403(9) 0.8228(4)
H22_2 H 0.901496 0.605748 0.801832
C39_2 C 0.8048(6) 0.8198(10) 0.9174(3)
C40_2 C 0.9649(6) 0.5344(11) 0.8614(4)
N1_2 N 0.4884(4) 0.2626(9) 0.1208(3)
N2_2 N 0.6191(5) 0.5522(8) 0.3330(2)
N3_2 N 0.7010(4) 0.6144(8) 0.5625(2)
N4_2 N 0.8043(4) 0.7245(8) 0.7827(2)
O1_2 O 0.6566(4) 0.3615(7) 0.3324(2)
O2_2 O 0.4418(4) 0.1321(9) 0.0457(2)
H23_2 H 0.422518 0.074352 0.030183
H24_2 H 0.460626 0.201379 0.035519
O4_2 O 0.3601(4) 0.1846(9) 0.1170(3)
H25_2 H 0.322422 0.138644 0.118238
H26_2 H 0.358408 0.268836 0.120006
O5_2 O 0.6530(4) 0.9417(7) 0.4473(2)
O6_2 O 0.8062(4) 0.3335(7) 0.5161(2)
H27_2 H 0.811471 0.326251 0.490520
H28_2 H 0.825855 0.277706 0.532076
O7_2 O 0.7309(4) 0.5389(7) 0.4882(2)
O8_2 O 0.7245(6) 0.3800(8) 0.4516(2)
O9_2 O 0.7365(4) 0.8881(7) 0.7879(2)
O10_2 O 0.7514(4) 0.8783(7) 0.9140(2)
O11_2 O 0.8352(4) 0.8175(9) 0.9473(2)
O12_2 O 0.9766(4) 0.4895(8) 0.8917(2)
O13_2 O 0.9976(4) 0.5151(8) 0.8326(3)
Mn3_2 Mn 0.74799(7) 0.97089(13) 0.96310(4)
O15_2 O 0.8470(4) 0.5583(7) 0.5527(2)
O16_2 O 0.7486(4) 0.3783(7) 0.5860(2)
O17_2 O 0.5234(4) 0.0105(8) 0.1083(2)
H29_2 H 0.820923 0.66293 0.764026
H30_2 H 0.593206 0.61365 0.317877
Mn2_2 Mn 0.05733(7) 0.60438(12) 0.39212(4)
H1_3 H 0.014071 0.834944 0.429280
N1_3 N 0.0116(4) 0.7626(9) 0.3792(3)
O2_3 O 0.0582(4) 0.6321(9) 0.4543(2)
H23_3 H 0.077482 0.574352 0.469817
H24_3 H 0.039374 0.701379 0.464481
O4_3 O 0.1399(4) 0.6846(9) 0.3830(3)
H25_3 H 0.177578 0.638644 0.381762
H26_3 H 0.141592 0.768836 0.379994
O14_2 O 0.1030(4) 0.4498(7) 0.3940(2)
H2_3 H 0.959720 0.012801 0.415900
H3_3 H 0.923778 0.040849 0.354624
C7_3 C 0.9244(5) 0.0172(10) 0.2813(3)
H5_3 H 0.932987 0.085554 0.295862
C8_3 C 0.9017(6) 0.0338(11) 0.2456(3)
H6_3 H 0.892645 0.112197 0.237105
C13_3 C 0.8614(5) 0.0900(10) 0.1312(3)
C14_3 C 0.8730(5) 0.2136(11) 0.1221(3)
H9_3 H 0.893664 0.263133 0.139579
C15_3 C 0.8552(5) 0.2626(10) 0.0888(3)
C16_3 C 0.8248(6) 0.1902(9) 0.0636(3)
H10_3 H 0.812266 0.222667 0.040767
C17_3 C 0.8119(5) 0.0691(10) 0.0711(3)
C18_3 C 0.8311(5) 0.0213(10) 0.1041(3)
C19_3 C 0.8673(5) 0.3948(11) 0.0819(3)
N2_3 N 0.8809(5) 0.0522(8) 0.1670(2)
O3_2 O 0.8970(4) 0.4498(7) 0.1060(2)
O5_3 O 0.8470(4) 0.4417(7) 0.0527(2)
O7_3 O 0.7691(4) 0.0389(7) 0.0118(2)
Mn4_3 Mn 0.75201(7) 0.52911(13) 0.03690(4)
Mn5_2 Mn 0.94267(7) 0.60438(12) 0.10788(4)
H30_3 H 0.906794 0.11365 0.182123
C21_3 C 0.8352(7) 0.1927(13) 0.9560(4)
H12_3 H 0.843827 0.177991 0.981041
C22_3 C 0.8605(6) 0.2940(12) 0.9401(3)
H13_3 H 0.886915 0.345827 0.953987
C23_3 C 0.8471(6) 0.3192(11) 0.9040(3)
H14_3 H 0.862456 0.389594 0.892658
C24_3 C 0.8092(5) 0.2351(11) 0.8844(3)
C25_3 C 0.7856(5) 0.1343(9) 0.9034(3)
H15_3 H 0.759036 0.079546 0.890752
C26_3 C 0.7916(5) 0.2553(10) 0.8443(3)
C27_3 C 0.7871(5) 0.3713(10) 0.8287(3)
H16_3 H 0.795446 0.439486 0.843405
C28_3 C 0.7707(5) 0.3863(10) 0.7922(3)
H17_3 H 0.768703 0.464072 0.781893
C29_3 C 0.7572(5) 0.2864(10) 0.7707(3)
C30_3 C 0.7630(5) 0.1719(10) 0.7849(3)
H18_3 H 0.755448 0.104160 0.769849
C31_3 C 0.7799(6) 0.1575(11) 0.8208(3)
H19_3 H 0.783871 0.078766 0.830195
C32_3 C 0.7387(5) 0.3064(11) 0.7300(3)
C33_3 C 0.6711(5) 0.2151(10) 0.6805(3)
C34_3 C 0.6960(5) 0.2735(9) 0.6491(3)
H20_3 H 0.730704 0.326970 0.651553
C35_3 C 0.6698(5) 0.2521(10) 0.6154(3)
C36_3 C 0.6163(6) 0.1760(10) 0.6115(3)
H21_3 H 0.597529 0.164549 0.588173
C37_3 C 0.5910(5) 0.1180(10) 0.6417(3)
C38_3 C 0.6170(5) 0.1403(9) 0.6772(4)
H22_3 H 0.598504 0.105748 0.698168
C39_3 C 0.6952(6) 0.3198(10) 0.5826(3)
C40_3 C 0.5351(6) 0.0344(11) 0.6386(4)
N3_3 N 0.7990(4) 0.1144(8) 0.9375(2)
N4_3 N 0.6957(4) 0.2245(8) 0.7173(2)
O9_3 O 0.7635(4) 0.3881(7) 0.7121(2)
O11_3 O 0.6648(4) 0.3175(9) 0.5527(2)
O13_3 O 0.5024(4) 0.0151(8) 0.6674(3)
O15_3 O 0.6530(4) 0.0583(7) 0.9473(2)
H29_3 H 0.679077 0.16293 0.735974
C1_3 C 0.9995(7) 0.8486(12) 0.4051(4)
C2_3 C 0.9672(7) 0.9546(12) 0.3976(4)
C3_3 C 0.9460(6) 0.9701(11) 0.3610(4)
C4_3 C 0.9572(5) 0.8835(10) 0.3340(3)
C5_3 C 0.9881(5) 0.7821(11) 0.3446(3)
H4_3 H 0.993897 0.721106 0.326992
C6_3 C 0.9348(5) 0.9028(10) 0.2964(3)
C9_3 C 0.8920(5) 0.9352(10) 0.2219(3)
C10_3 C 0.9011(5) 0.8194(11) 0.2363(3)
H7_3 H 0.893102 0.751470 0.221482
C11_3 C 0.9220(5) 0.8040(11) 0.2724(3)
H8_3 H 0.927859 0.725154 0.281350
C12_3 C 0.8697(5) 0.9473(11) 0.1832(3)
H11_3 H 0.823499 0.939079 0.108701
C20_3 C 0.7819(6) 0.9882(10) 0.0422(3)
O1_3 O 0.8434(4) 0.8615(7) 0.1676(2)
H27_3 H 0.688529 0.826251 0.009480
O8_3 O 0.7755(6) 0.8800(8) 0.0484(2)
O17_3 O 0.9766(4) 0.5105(8) 0.3917(2)
O6_3 O 0.6938(4) 0.8335(7) 0.9839(2)
H28_3 H 0.674145 0.777706 0.967924
O12_3 O 0.5234(4) 0.9895(8) 0.6083(2)
Mn6_3 Mn 0.44267(7) 0.89562(12) 0.60788(4)
H2_4 H 0.040280 0.012801 0.084100
H3_4 H 0.076222 0.040849 0.145376
C7_4 C 0.0756(5) 0.0172(10) 0.2187(3)
H5_4 H 0.067013 0.085554 0.204138
C8_4 C 0.0983(6) 0.0338(11) 0.2544(3)
H6_4 H 0.107355 0.112197 0.262895
C13_4 C 0.1386(5) 0.0900(10) 0.3688(3)
C14_4 C 0.1270(5) 0.2136(11) 0.3779(3)
H9_4 H 0.106336 0.263133 0.360421
C15_4 C 0.1448(5) 0.2626(10) 0.4112(3)
C16_4 C 0.1752(6) 0.1902(9) 0.4364(3)
H10_4 H 0.187734 0.222667 0.459233
C17_4 C 0.1881(5) 0.0691(10) 0.4289(3)
C18_4 C 0.1689(5) 0.0213(10) 0.3959(3)
C19_4 C 0.1327(5) 0.3948(11) 0.4181(3)
C21_4 C 0.1648(7) 0.1927(13) 0.5440(4)
H12_4 H 0.156173 0.177991 0.518959
C22_4 C 0.1395(6) 0.2940(12) 0.5599(3)
H13_4 H 0.113085 0.345827 0.546013
C23_4 C 0.1529(6) 0.3192(11) 0.5960(3)
H14_4 H 0.137544 0.389594 0.607342
C24_4 C 0.1908(5) 0.2351(11) 0.6156(3)
C25_4 C 0.2144(5) 0.1343(9) 0.5966(3)
H15_4 H 0.240964 0.079546 0.609248
C26_4 C 0.2084(5) 0.2553(10) 0.6557(3)
C27_4 C 0.2129(5) 0.3713(10) 0.6713(3)
H16_4 H 0.204554 0.439486 0.656595
C28_4 C 0.2293(5) 0.3863(10) 0.7078(3)
H17_4 H 0.231297 0.464072 0.718107
C29_4 C 0.2428(5) 0.2864(10) 0.7293(3)
C30_4 C 0.2370(5) 0.1719(10) 0.7151(3)
H18_4 H 0.244552 0.104160 0.730151
C31_4 C 0.2201(6) 0.1575(11) 0.6792(3)
H19_4 H 0.216129 0.078766 0.669805
C32_4 C 0.2613(5) 0.3064(11) 0.7700(3)
C33_4 C 0.3289(5) 0.2151(10) 0.8195(3)
C34_4 C 0.3040(5) 0.2735(9) 0.8509(3)
H20_4 H 0.269296 0.326970 0.848447
C35_4 C 0.3302(5) 0.2521(10) 0.8846(3)
C36_4 C 0.3837(6) 0.1760(10) 0.8885(3)
H21_4 H 0.402471 0.164549 0.911827
C37_4 C 0.4090(5) 0.1180(10) 0.8583(3)
C38_4 C 0.3830(5) 0.1403(9) 0.8228(4)
H22_4 H 0.401496 0.105748 0.801832
C39_4 C 0.3048(6) 0.3198(10) 0.9174(3)
C40_4 C 0.4649(6) 0.0344(11) 0.8614(4)
N2_4 N 0.1191(5) 0.0522(8) 0.3330(2)
N3_4 N 0.2010(4) 0.1144(8) 0.5625(2)
N4_4 N 0.3043(4) 0.2245(8) 0.7827(2)
O5_4 O 0.1530(4) 0.4417(7) 0.4473(2)
O7_4 O 0.2309(4) 0.0389(7) 0.4882(2)
O9_4 O 0.2365(4) 0.3881(7) 0.7879(2)
O11_4 O 0.3352(4) 0.3175(9) 0.9473(2)
O13_4 O 0.4976(4) 0.0151(8) 0.8326(3)
Mn4_4 Mn 0.24799(7) 0.52911(13) 0.46310(4)
O15_4 O 0.3470(4) 0.0583(7) 0.5527(2)
H29_4 H 0.320923 0.16293 0.764026
H30_4 H 0.0932055 0.11365 0.317877
C1_4 C 0.0005(7) 0.8486(12) 0.0949(4)
C2_4 C 0.0328(7) 0.9546(12) 0.1024(4)
C3_4 C 0.0540(6) 0.9701(11) 0.1390(4)
C4_4 C 0.0428(5) 0.8835(10) 0.1660(3)
C5_4 C 0.0119(5) 0.7821(11) 0.1554(3)
H4_4 H 0.006103 0.721106 0.173008
C6_4 C 0.0652(5) 0.9028(10) 0.2036(3)
C9_4 C 0.1080(5) 0.9352(10) 0.2781(3)
C10_4 C 0.0989(5) 0.8194(11) 0.2637(3)
H7_4 H 0.106898 0.751470 0.278518
C11_4 C 0.0780(5) 0.8040(11) 0.2276(3)
H8_4 H 0.072141 0.725154 0.218650
C12_4 C 0.1303(5) 0.9473(11) 0.3168(3)
H11_4 H 0.176501 0.939079 0.391299
C20_4 C 0.2181(6) 0.9882(10) 0.4578(3)
O1_4 O 0.1566(4) 0.8615(7) 0.3324(2)
O6_4 O 0.3062(4) 0.8335(7) 0.5161(2)
H27_4 H 0.311471 0.826251 0.490520
H28_4 H 0.325855 0.777706 0.532076
O8_4 O 0.2245(6) 0.8800(8) 0.4516(2)
O12_4 O 0.4766(4) 0.9895(8) 0.8917(2)
Mn6_4 Mn 0.55733(7) 0.89562(12) 0.89212(4)
O17_4 O 0.0234(4) 0.5105(8) 0.1083(2)
H1_4 H 0.985929 0.834944 0.070720
N1_4 N 0.9884(4) 0.7626(9) 0.1208(3)
O2_4 O 0.9418(4) 0.6321(9) 0.0457(2)
H23_4 H 0.922518 0.574352 0.030183
H24_4 H 0.960626 0.701379 0.035519
O4_4 O 0.8601(4) 0.6846(9) 0.1170(3)
H25_4 H 0.822422 0.638644 0.118238
H26_4 H 0.858408 0.768836 0.120006
O14_3 O 0.3970(4) 0.0502(7) 0.6060(2)
C21_5 C 0.6648(7) 0.3073(13) 0.0440(4)
H12_5 H 0.656173 0.322009 0.018959
C22_5 C 0.6395(6) 0.2060(12) 0.0599(3)
H13_5 H 0.613085 0.154173 0.046013
C23_5 C 0.6529(6) 0.1808(11) 0.0960(3)
H14_5 H 0.637544 0.110406 0.107342
C24_5 C 0.6908(5) 0.2649(11) 0.1156(3)
C25_5 C 0.7144(5) 0.3657(9) 0.0966(3)
H15_5 H 0.740964 0.420454 0.109248
C26_5 C 0.7084(5) 0.2447(10) 0.1557(3)
C27_5 C 0.7129(5) 0.1287(10) 0.1713(3)
H16_5 H 0.704554 0.060514 0.156595
C28_5 C 0.7293(5) 0.1137(10) 0.2078(3)
H17_5 H 0.731297 0.035928 0.218107
C29_5 C 0.7428(5) 0.2136(10) 0.2293(3)
C30_5 C 0.7370(5) 0.3281(10) 0.2151(3)
H18_5 H 0.744552 0.395840 0.230151
C31_5 C 0.7201(6) 0.3425(11) 0.1792(3)
H19_5 H 0.716129 0.421234 0.169805
C32_5 C 0.7613(5) 0.1936(11) 0.2700(3)
C33_5 C 0.8289(5) 0.2849(10) 0.3195(3)
C34_5 C 0.8040(5) 0.2265(9) 0.3509(3)
H20_5 H 0.769296 0.173030 0.348447
C35_5 C 0.8302(5) 0.2479(10) 0.3846(3)
C36_5 C 0.8837(6) 0.3240(10) 0.3885(3)
H21_5 H 0.902471 0.335451 0.411827
C37_5 C 0.9090(5) 0.3820(10) 0.3583(3)
C38_5 C 0.8830(5) 0.3597(9) 0.3228(4)
H22_5 H 0.901496 0.394252 0.301832
C39_5 C 0.8048(6) 0.1802(10) 0.4174(3)
C40_5 C 0.9649(6) 0.4656(11) 0.3614(4)
N3_5 N 0.7010(4) 0.3856(8) 0.0625(2)
N4_5 N 0.8043(4) 0.2755(8) 0.2827(2)
O6_5 O 0.8062(4) 0.6665(7) 0.0161(2)
H28_5 H 0.825855 0.722294 0.032076
O9_5 O 0.7365(4) 0.1119(7) 0.2879(2)
O10_3 O 0.7514(4) 0.1217(7) 0.4140(2)
O11_5 O 0.8352(4) 0.1825(9) 0.4473(2)
O13_5 O 0.9976(4) 0.4849(8) 0.3326(3)
O16_3 O 0.7486(4) 0.6217(7) 0.0860(2)
H29_5 H 0.820923 0.33707 0.264026
C1_5 C 0.5005(7) 0.6514(12) 0.5949(4)
H1_5 H 0.485929 0.665056 0.570720
C2_5 C 0.5328(7) 0.5454(12) 0.6024(4)
H2_5 H 0.540280 0.487199 0.584100
C3_5 C 0.5540(6) 0.5299(11) 0.6390(4)
H3_5 H 0.576222 0.459151 0.645376
C4_5 C 0.5428(5) 0.6165(10) 0.6660(3)
C5_5 C 0.5119(5) 0.7179(11) 0.6554(3)
H4_5 H 0.506103 0.778894 0.673008
C6_5 C 0.5652(5) 0.5972(10) 0.7036(3)
C7_5 C 0.5756(5) 0.4828(10) 0.7187(3)
H5_5 H 0.567013 0.414446 0.704138
C8_5 C 0.5983(6) 0.4662(11) 0.7544(3)
H6_5 H 0.607355 0.387803 0.762895
C9_5 C 0.6080(5) 0.5648(10) 0.7781(3)
C10_5 C 0.5989(5) 0.6806(11) 0.7637(3)
H7_5 H 0.606898 0.748530 0.778518
C11_5 C 0.5780(5) 0.6960(11) 0.7276(3)
H8_5 H 0.572141 0.774846 0.718650
C12_5 C 0.6303(5) 0.5527(11) 0.8168(3)
C13_5 C 0.6386(5) 0.4100(10) 0.8688(3)
C14_5 C 0.6270(5) 0.2864(11) 0.8779(3)
H9_5 H 0.606336 0.236867 0.860421
C15_5 C 0.6448(5) 0.2374(10) 0.9112(3)
C16_5 C 0.6752(6) 0.3098(9) 0.9364(3)
H10_5 H 0.687734 0.277333 0.959233
C17_5 C 0.6881(5) 0.4309(10) 0.9289(3)
C18_5 C 0.6689(5) 0.4787(10) 0.8959(3)
H11_5 H 0.676501 0.560921 0.891299
C19_5 C 0.6327(5) 0.1052(11) 0.9181(3)
C20_5 C 0.7181(6) 0.5118(10) 0.9578(3)
N1_5 N 0.4884(4) 0.7374(9) 0.6208(3)
N2_5 N 0.6191(5) 0.4478(8) 0.8330(2)
O1_5 O 0.6566(4) 0.6385(7) 0.8324(2)
O2_5 O 0.4418(4) 0.8679(9) 0.5457(2)
H23_5 H 0.422518 0.925648 0.530183
H24_5 H 0.460626 0.798621 0.535519
O3_3 O 0.6030(4) 0.0502(7) 0.8940(2)
O4_5 O 0.3601(4) 0.8154(9) 0.6170(3)
H25_5 H 0.322422 0.861356 0.618238
H26_5 H 0.358408 0.731164 0.620006
H27_5 H 0.811471 0.673749 0.990520
O7_5 O 0.7309(4) 0.4611(7) 0.9882(2)
O8_5 O 0.7245(6) 0.6200(8) 0.9516(2)
H30_5 H 0.593206 0.38635 0.817877
C1_6 C 0.4995(7) 0.6514(12) 0.9051(4)
H1_6 H 0.514071 0.665056 0.929280
C2_6 C 0.4672(7) 0.5454(12) 0.8976(4)
H2_6 H 0.459720 0.487199 0.915900
C3_6 C 0.4460(6) 0.5299(11) 0.8610(4)
H3_6 H 0.423778 0.459151 0.854624
C4_6 C 0.4572(5) 0.6165(10) 0.8340(3)
C5_6 C 0.4881(5) 0.7179(11) 0.8446(3)
H4_6 H 0.493897 0.778894 0.826992
C6_6 C 0.4348(5) 0.5972(10) 0.7964(3)
C7_6 C 0.4244(5) 0.4828(10) 0.7813(3)
H5_6 H 0.432987 0.414446 0.795862
C8_6 C 0.4017(6) 0.4662(11) 0.7456(3)
H6_6 H 0.392645 0.387803 0.737105
C9_6 C 0.3920(5) 0.5648(10) 0.7219(3)
C10_6 C 0.4011(5) 0.6806(11) 0.7363(3)
H7_6 H 0.393102 0.748530 0.721482
C11_6 C 0.4220(5) 0.6960(11) 0.7724(3)
H8_6 H 0.427859 0.774846 0.781350
C12_6 C 0.3697(5) 0.5527(11) 0.6832(3)
C13_6 C 0.3614(5) 0.4100(10) 0.6312(3)
C14_6 C 0.3730(5) 0.2864(11) 0.6221(3)
H9_6 H 0.393664 0.236867 0.639579
C15_6 C 0.3552(5) 0.2374(10) 0.5888(3)
C16_6 C 0.3248(6) 0.3098(9) 0.5636(3)
H10_6 H 0.312266 0.277333 0.540767
C17_6 C 0.3119(5) 0.4309(10) 0.5711(3)
C18_6 C 0.3311(5) 0.4787(10) 0.6041(3)
H11_6 H 0.323499 0.560921 0.608701
C19_6 C 0.3673(5) 0.1052(11) 0.5819(3)
C20_6 C 0.2819(6) 0.5118(10) 0.5422(3)
C21_6 C 0.3352(7) 0.3073(13) 0.4560(4)
H12_6 H 0.343827 0.322009 0.481041
C22_6 C 0.3605(6) 0.2060(12) 0.4401(3)
H13_6 H 0.386915 0.154173 0.453987
C23_6 C 0.3471(6) 0.1808(11) 0.4040(3)
H14_6 H 0.362456 0.110406 0.392658
C24_6 C 0.3092(5) 0.2649(11) 0.3844(3)
C25_6 C 0.2856(5) 0.3657(9) 0.4034(3)
H15_6 H 0.259036 0.420454 0.390752
C26_6 C 0.2916(5) 0.2447(10) 0.3443(3)
C27_6 C 0.2871(5) 0.1287(10) 0.3287(3)
H16_6 H 0.295446 0.060514 0.343405
C28_6 C 0.2707(5) 0.1137(10) 0.2922(3)
H17_6 H 0.268703 0.035928 0.281893
C29_6 C 0.2572(5) 0.2136(10) 0.2707(3)
C30_6 C 0.2630(5) 0.3281(10) 0.2849(3)
H18_6 H 0.255448 0.395840 0.269849
C31_6 C 0.2799(6) 0.3425(11) 0.3208(3)
H19_6 H 0.283871 0.421234 0.330195
C32_6 C 0.2387(5) 0.1936(11) 0.2300(3)
C33_6 C 0.1711(5) 0.2849(10) 0.1805(3)
C34_6 C 0.1960(5) 0.2265(9) 0.1491(3)
H20_6 H 0.230704 0.173030 0.151553
C35_6 C 0.1698(5) 0.2479(10) 0.1154(3)
C36_6 C 0.1163(6) 0.3240(10) 0.1115(3)
H21_6 H 0.097529 0.335451 0.088173
C37_6 C 0.0910(5) 0.3820(10) 0.1417(3)
C38_6 C 0.1170(5) 0.3597(9) 0.1772(4)
H22_6 H 0.098504 0.394252 0.198168
C39_6 C 0.1952(6) 0.1802(10) 0.0826(3)
C40_6 C 0.0351(6) 0.4656(11) 0.1386(4)
N1_6 N 0.5116(4) 0.7374(9) 0.8792(3)
N2_6 N 0.3809(5) 0.4478(8) 0.6670(2)
N3_6 N 0.2990(4) 0.3856(8) 0.4375(2)
N4_6 N 0.1957(4) 0.2755(8) 0.2173(2)
O1_6 O 0.3434(4) 0.6385(7) 0.6676(2)
O2_6 O 0.5582(4) 0.8679(9) 0.9543(2)
H23_6 H 0.577482 0.925648 0.969817
H24_6 H 0.539374 0.798621 0.964481
O4_6 O 0.6399(4) 0.8154(9) 0.8830(3)
H25_6 H 0.677578 0.861356 0.881762
H26_6 H 0.641592 0.731164 0.879994
O6_6 O 0.1938(4) 0.6665(7) 0.4839(2)
H27_6 H 0.188529 0.673749 0.509480
H28_6 H 0.174145 0.722294 0.467924
O7_6 O 0.2691(4) 0.4611(7) 0.5118(2)
O8_6 O 0.2755(6) 0.6200(8) 0.5484(2)
O9_6 O 0.2635(4) 0.1119(7) 0.2121(2)
O10_4 O 0.2486(4) 0.1217(7) 0.0860(2)
O11_6 O 0.1648(4) 0.1825(9) 0.0527(2)
O13_6 O 0.0024(4) 0.4849(8) 0.1674(3)
O16_4 O 0.2514(4) 0.6217(7) 0.4140(2)
H29_6 H 0.179077 0.33707 0.235974
H30_6 H 0.406794 0.38635 0.682123
O6_7 O 0.3062(4) 0.1665(7) 0.0161(2)
H28_7 H 0.325855 0.222294 0.032076
C1_7 C 0.0005(7) 0.1514(12) 0.5949(4)
C2_7 C 0.0328(7) 0.0454(12) 0.6024(4)
C3_7 C 0.0540(6) 0.0299(11) 0.6390(4)
C4_7 C 0.0428(5) 0.1165(10) 0.6660(3)
C5_7 C 0.0119(5) 0.2179(11) 0.6554(3)
H4_7 H 0.006103 0.278894 0.673008
C6_7 C 0.0652(5) 0.0972(10) 0.7036(3)
C9_7 C 0.1080(5) 0.0648(10) 0.7781(3)
C10_7 C 0.0989(5) 0.1806(11) 0.7637(3)
H7_7 H 0.106898 0.248530 0.778518
C11_7 C 0.0780(5) 0.1960(11) 0.7276(3)
H8_7 H 0.072141 0.274846 0.718650
C12_7 C 0.1303(5) 0.0527(11) 0.8168(3)
H11_7 H 0.176501 0.060921 0.891299
C20_7 C 0.2181(6) 0.0118(10) 0.9578(3)
O1_7 O 0.1566(4) 0.1385(7) 0.8324(2)
H27_7 H 0.311471 0.173749 0.990520
O8_7 O 0.2245(6) 0.1200(8) 0.9516(2)
C21_7 C 0.1648(7) 0.8073(13) 0.0440(4)
H12_7 H 0.156173 0.822009 0.018959
C22_7 C 0.1395(6) 0.7060(12) 0.0599(3)
H13_7 H 0.113085 0.654173 0.046013
C23_7 C 0.1529(6) 0.6808(11) 0.0960(3)
H14_7 H 0.137544 0.610406 0.107342
C24_7 C 0.1908(5) 0.7649(11) 0.1156(3)
C25_7 C 0.2144(5) 0.8657(9) 0.0966(3)
H15_7 H 0.240964 0.920454 0.109248
C26_7 C 0.2084(5) 0.7447(10) 0.1557(3)
C27_7 C 0.2129(5) 0.6287(10) 0.1713(3)
H16_7 H 0.204554 0.560514 0.156595
C28_7 C 0.2293(5) 0.6137(10) 0.2078(3)
H17_7 H 0.231297 0.535928 0.218107
C29_7 C 0.2428(5) 0.7136(10) 0.2293(3)
C30_7 C 0.2370(5) 0.8281(10) 0.2151(3)
H18_7 H 0.244552 0.895840 0.230151
C31_7 C 0.2201(6) 0.8425(11) 0.1792(3)
H19_7 H 0.216129 0.921234 0.169805
C32_7 C 0.2613(5) 0.6936(11) 0.2700(3)
C33_7 C 0.3289(5) 0.7849(10) 0.3195(3)
C34_7 C 0.3040(5) 0.7265(9) 0.3509(3)
H20_7 H 0.269296 0.673030 0.348447
C35_7 C 0.3302(5) 0.7479(10) 0.3846(3)
C36_7 C 0.3837(6) 0.8240(10) 0.3885(3)
H21_7 H 0.402471 0.835451 0.411827
C37_7 C 0.4090(5) 0.8820(10) 0.3583(3)
C38_7 C 0.3830(5) 0.8597(9) 0.3228(4)
H22_7 H 0.401496 0.894252 0.301832
C39_7 C 0.3048(6) 0.6802(10) 0.4174(3)
C40_7 C 0.4649(6) 0.9656(11) 0.3614(4)
N3_7 N 0.2010(4) 0.8856(8) 0.0625(2)
N4_7 N 0.3043(4) 0.7755(8) 0.2827(2)
O9_7 O 0.2365(4) 0.6119(7) 0.2879(2)
O11_7 O 0.3352(4) 0.6825(9) 0.4473(2)
O13_7 O 0.4976(4) 0.9849(8) 0.3326(3)
H29_7 H 0.320923 0.83707 0.264026
H2_7 H 0.040280 0.987199 0.584100
H3_7 H 0.076222 0.959151 0.645376
C7_7 C 0.0756(5) 0.9828(10) 0.7187(3)
H5_7 H 0.067013 0.914446 0.704138
C8_7 C 0.0983(6) 0.9662(11) 0.7544(3)
H6_7 H 0.107355 0.887803 0.762895
C13_7 C 0.1386(5) 0.9100(10) 0.8688(3)
C14_7 C 0.1270(5) 0.7864(11) 0.8779(3)
H9_7 H 0.106336 0.736867 0.860421
C15_7 C 0.1448(5) 0.7374(10) 0.9112(3)
C16_7 C 0.1752(6) 0.8098(9) 0.9364(3)
H10_7 H 0.187734 0.777333 0.959233
C17_7 C 0.1881(5) 0.9309(10) 0.9289(3)
C18_7 C 0.1689(5) 0.9787(10) 0.8959(3)
C19_7 C 0.1327(5) 0.6052(11) 0.9181(3)
N2_7 N 0.1191(5) 0.9478(8) 0.8330(2)
O3_4 O 0.1030(4) 0.5502(7) 0.8940(2)
O7_7 O 0.2309(4) 0.9611(7) 0.9882(2)
H30_7 H 0.0932055 0.88635 0.817877
H1_7 H 0.985929 0.165056 0.570720
N1_7 N 0.9884(4) 0.2374(9) 0.6208(3)
O2_7 O 0.9418(4) 0.3679(9) 0.5457(2)
H23_7 H 0.922518 0.425648 0.530183
H24_7 H 0.960626 0.298621 0.535519
O4_7 O 0.8601(4) 0.3154(9) 0.6170(3)
H25_7 H 0.822422 0.361356 0.618238
H26_7 H 0.858408 0.231164 0.620006
O14_4 O 0.8970(4) 0.5502(7) 0.6060(2)
H1_8 H 0.014071 0.165056 0.929280
N1_8 N 0.0116(4) 0.2374(9) 0.8792(3)
O2_8 O 0.0582(4) 0.3679(9) 0.9543(2)
H23_8 H 0.077482 0.425648 0.969817
H24_8 H 0.039374 0.298621 0.964481
O4_8 O 0.1399(4) 0.3154(9) 0.8830(3)
H25_8 H 0.177578 0.361356 0.881762
H26_8 H 0.141592 0.231164 0.879994
C1_8 C 0.9995(7) 0.1514(12) 0.9051(4)
C2_8 C 0.9672(7) 0.0454(12) 0.8976(4)
C3_8 C 0.9460(6) 0.0299(11) 0.8610(4)
C4_8 C 0.9572(5) 0.1165(10) 0.8340(3)
C5_8 C 0.9881(5) 0.2179(11) 0.8446(3)
H4_8 H 0.993897 0.278894 0.826992
C6_8 C 0.9348(5) 0.0972(10) 0.7964(3)
C9_8 C 0.8920(5) 0.0648(10) 0.7219(3)
C10_8 C 0.9011(5) 0.1806(11) 0.7363(3)
H7_8 H 0.893102 0.248530 0.721482
C11_8 C 0.9220(5) 0.1960(11) 0.7724(3)
H8_8 H 0.927859 0.274846 0.781350
C12_8 C 0.8697(5) 0.0527(11) 0.6832(3)
H11_8 H 0.823499 0.060921 0.608701
C20_8 C 0.7819(6) 0.0118(10) 0.5422(3)
O1_8 O 0.8434(4) 0.1385(7) 0.6676(2)
O6_8 O 0.6938(4) 0.1665(7) 0.4839(2)
H27_8 H 0.688529 0.173749 0.509480
H28_8 H 0.674145 0.222294 0.467924
O8_8 O 0.7755(6) 0.1200(8) 0.5484(2)
H2_8 H 0.959720 0.987199 0.915900
H3_8 H 0.923778 0.959151 0.854624
C7_8 C 0.9244(5) 0.9828(10) 0.7813(3)
H5_8 H 0.932987 0.914446 0.795862
C8_8 C 0.9017(6) 0.9662(11) 0.7456(3)
H6_8 H 0.892645 0.887803 0.737105
C13_8 C 0.8614(5) 0.9100(10) 0.6312(3)
C14_8 C 0.8730(5) 0.7864(11) 0.6221(3)
H9_8 H 0.893664 0.736867 0.639579
C15_8 C 0.8552(5) 0.7374(10) 0.5888(3)
C16_8 C 0.8248(6) 0.8098(9) 0.5636(3)
H10_8 H 0.812266 0.777333 0.540767
C17_8 C 0.8119(5) 0.9309(10) 0.5711(3)
C18_8 C 0.8311(5) 0.9787(10) 0.6041(3)
C19_8 C 0.8673(5) 0.6052(11) 0.5819(3)
C21_8 C 0.8352(7) 0.8073(13) 0.4560(4)
H12_8 H 0.843827 0.822009 0.481041
C22_8 C 0.8605(6) 0.7060(12) 0.4401(3)
H13_8 H 0.886915 0.654173 0.453987
C23_8 C 0.8471(6) 0.6808(11) 0.4040(3)
H14_8 H 0.862456 0.610406 0.392658
C24_8 C 0.8092(5) 0.7649(11) 0.3844(3)
C25_8 C 0.7856(5) 0.8657(9) 0.4034(3)
H15_8 H 0.759036 0.920454 0.390752
C26_8 C 0.7916(5) 0.7447(10) 0.3443(3)
C27_8 C 0.7871(5) 0.6287(10) 0.3287(3)
H16_8 H 0.795446 0.560514 0.343405
C28_8 C 0.7707(5) 0.6137(10) 0.2922(3)
H17_8 H 0.768703 0.535928 0.281893
C29_8 C 0.7572(5) 0.7136(10) 0.2707(3)
C30_8 C 0.7630(5) 0.8281(10) 0.2849(3)
H18_8 H 0.755448 0.895840 0.269849
C31_8 C 0.7799(6) 0.8425(11) 0.3208(3)
H19_8 H 0.783871 0.921234 0.330195
C32_8 C 0.7387(5) 0.6936(11) 0.2300(3)
C33_8 C 0.6711(5) 0.7849(10) 0.1805(3)
C34_8 C 0.6960(5) 0.7265(9) 0.1491(3)
H20_8 H 0.730704 0.673030 0.151553
C35_8 C 0.6698(5) 0.7479(10) 0.1154(3)
C36_8 C 0.6163(6) 0.8240(10) 0.1115(3)
H21_8 H 0.597529 0.835451 0.088173
C37_8 C 0.5910(5) 0.8820(10) 0.1417(3)
C38_8 C 0.6170(5) 0.8597(9) 0.1772(4)
H22_8 H 0.598504 0.894252 0.198168
C39_8 C 0.6952(6) 0.6802(10) 0.0826(3)
C40_8 C 0.5351(6) 0.9656(11) 0.1386(4)
N2_8 N 0.8809(5) 0.9478(8) 0.6670(2)
N3_8 N 0.7990(4) 0.8856(8) 0.4375(2)
N4_8 N 0.6957(4) 0.7755(8) 0.2173(2)
O7_8 O 0.7691(4) 0.9611(7) 0.5118(2)
O9_8 O 0.7635(4) 0.6119(7) 0.2121(2)
O11_8 O 0.6648(4) 0.6825(9) 0.0527(2)
O13_8 O 0.5024(4) 0.9849(8) 0.1674(3)
H29_8 H 0.679077 0.83707 0.235974
H30_8 H 0.906794 0.88635 0.682123
loop_
_geom_bond_atom_site_label_1
_geom_bond_atom_site_label_2
_geom_bond_site_symmetry_1
_geom_bond_site_symmetry_2
Mn2 N1 1_555 1_555
C1 H1 1_555 1_555
C2 C1 1_555 1_555
H2 C2 1_555 1_555
C3 C2 1_555 1_555
H3 C3 1_555 1_555
C4 C3 1_555 1_555
C5 C4 1_555 1_555
H4 C5 1_555 1_555
C6 C4 1_555 1_555
C7 C6 1_555 1_555
H5 C7 1_555 1_555
C8 C7 1_555 1_555
H6 C8 1_555 1_555
C9 C8 1_555 1_555
C10 C9 1_555 1_555
H7 C10 1_555 1_555
C11 C6 1_555 1_555
H8 C11 1_555 1_555
C12 C9 1_555 1_555
C13 C14 1_555 1_555
C14 H9 1_555 1_555
C15 C14 1_555 1_555
C16 C15 1_555 1_555
H10 C16 1_555 1_555
C17 C16 1_555 1_555
C18 C13 1_555 1_555
H11 C18 1_555 1_555
C19 C15 1_555 1_555
C20 C17 1_555 1_555
N1 C1 1_555 1_555
N2 C12 1_555 1_555
O1 C12 1_555 1_555
O2 Mn2 1_555 1_555
H23 O2 1_555 1_555
H24 O2 1_555 1_555
O3 C19 1_555 1_555
O4 Mn2 1_555 1_555
H25 O4 1_555 1_555
H26 O4 1_555 1_555
O5 C19 1_555 1_555
O8 C20 1_555 1_555
O17 Mn2 1_555 1_555
C5 N1 1_555 1_555
C10 C11 1_555 1_555
C13 N2 1_555 1_555
C17 C18 1_555 1_555
C20 O7 1_555 1_555
N2 H30 1_555 1_555
Mn1 N3 1_555 1_555
C21 H12 1_555 1_555
C22 C21 1_555 1_555
H13 C22 1_555 1_555
C23 C22 1_555 1_555
H14 C23 1_555 1_555
C24 C23 1_555 1_555
C25 C24 1_555 1_555
H15 C25 1_555 1_555
C26 C24 1_555 1_555
C27 C26 1_555 1_555
H16 C27 1_555 1_555
C28 C27 1_555 1_555
H17 C28 1_555 1_555
C29 C28 1_555 1_555
C30 C29 1_555 1_555
H18 C30 1_555 1_555
C31 C26 1_555 1_555
H19 C31 1_555 1_555
C32 C29 1_555 1_555
C33 C34 1_555 1_555
C34 H20 1_555 1_555
C35 C34 1_555 1_555
C36 C35 1_555 1_555
H21 C36 1_555 1_555
C37 C36 1_555 1_555
C38 C33 1_555 1_555
H22 C38 1_555 1_555
C39 C35 1_555 1_555
C40 C37 1_555 1_555
N3 C21 1_555 1_555
N4 C32 1_555 1_555
O6 Mn1 1_555 1_555
H28 O6 1_555 1_555
O9 C32 1_555 1_555
O10 C39 1_555 1_555
O11 C39 1_555 1_555
O12 C40 1_555 1_555
O13 C40 1_555 1_555
Mn3 O10 1_555 1_555
O15 Mn1 1_555 1_555
O16 Mn1 1_555 1_555
C25 N3 1_555 1_555
C30 C31 1_555 1_555
C33 N4 1_555 1_555
C37 C38 1_555 1_555
N4 H29 1_555 1_555
Mn1_2 N3_2 1_555 1_555
Mn5 N1_2 1_555 1_555
C1_2 H1_2 1_555 1_555
C2_2 C1_2 1_555 1_555
H2_2 C2_2 1_555 1_555
C3_2 C2_2 1_555 1_555
H3_2 C3_2 1_555 1_555
C4_2 C3_2 1_555 1_555
C5_2 C4_2 1_555 1_555
H4_2 C5_2 1_555 1_555
C6_2 C4_2 1_555 1_555
C7_2 C6_2 1_555 1_555
H5_2 C7_2 1_555 1_555
C8_2 C7_2 1_555 1_555
H6_2 C8_2 1_555 1_555
C9_2 C8_2 1_555 1_555
C10_2 C9_2 1_555 1_555
H7_2 C10_2 1_555 1_555
C11_2 C6_2 1_555 1_555
H8_2 C11_2 1_555 1_555
C12_2 C9_2 1_555 1_555
C13_2 C14_2 1_555 1_555
C14_2 H9_2 1_555 1_555
C15_2 C14_2 1_555 1_555
C16_2 C15_2 1_555 1_555
H10_2 C16_2 1_555 1_555
C17_2 C16_2 1_555 1_555
C18_2 C13_2 1_555 1_555
H11_2 C18_2 1_555 1_555
C19_2 C15_2 1_555 1_555
C20_2 C17_2 1_555 1_555
C21_2 H12_2 1_555 1_555
C22_2 C21_2 1_555 1_555
H13_2 C22_2 1_555 1_555
C23_2 C22_2 1_555 1_555
H14_2 C23_2 1_555 1_555
C24_2 C23_2 1_555 1_555
C25_2 C24_2 1_555 1_555
H15_2 C25_2 1_555 1_555
C26_2 C24_2 1_555 1_555
C27_2 C26_2 1_555 1_555
H16_2 C27_2 1_555 1_555
C28_2 C27_2 1_555 1_555
H17_2 C28_2 1_555 1_555
C29_2 C28_2 1_555 1_555
C30_2 C29_2 1_555 1_555
H18_2 C30_2 1_555 1_555
C31_2 C26_2 1_555 1_555
H19_2 C31_2 1_555 1_555
C32_2 C29_2 1_555 1_555
C33_2 C34_2 1_555 1_555
C34_2 H20_2 1_555 1_555
C35_2 C34_2 1_555 1_555
C36_2 C35_2 1_555 1_555
H21_2 C36_2 1_555 1_555
C37_2 C36_2 1_555 1_555
C38_2 C33_2 1_555 1_555
H22_2 C38_2 1_555 1_555
C39_2 C35_2 1_555 1_555
C40_2 C37_2 1_555 1_555
N1_2 C1_2 1_555 1_555
N2_2 C12_2 1_555 1_555
N3_2 C21_2 1_555 1_555
N4_2 C32_2 1_555 1_555
O1_2 C12_2 1_555 1_555
O2_2 Mn5 1_555 1_555
H23_2 O2_2 1_555 1_555
H24_2 O2_2 1_555 1_555
O14 C19_2 1_555 1_555
O4_2 Mn5 1_555 1_555
H25_2 O4_2 1_555 1_555
H26_2 O4_2 1_555 1_555
O5_2 C19_2 1_555 1_555
O6_2 Mn1_2 1_555 1_555
H27_2 O6_2 1_555 1_555
H28_2 O6_2 1_555 1_555
O7_2 Mn1_2 1_555 1_555
O8_2 C20_2 1_555 1_555
O9_2 C32_2 1_555 1_555
O10_2 C39_2 1_555 1_555
O11_2 C39_2 1_555 1_555
O12_2 C40_2 1_555 1_555
O13_2 C40_2 1_555 1_555
Mn3_2 O10_2 1_555 1_555
O15_2 Mn1_2 1_555 1_555
O16_2 Mn1_2 1_555 1_555
O17_2 Mn5 1_555 1_555
C5_2 N1_2 1_555 1_555
C10_2 C11_2 1_555 1_555
C13_2 N2_2 1_555 1_555
C17_2 C18_2 1_555 1_555
C20_2 O7_2 1_555 1_555
C25_2 N3_2 1_555 1_555
C30_2 C31_2 1_555 1_555
C33_2 N4_2 1_555 1_555
C37_2 C38_2 1_555 1_555
N4_2 H29_2 1_555 1_555
N2_2 H30_2 1_555 1_555
Mn2_2 N1_3 1_555 1_555
O2_3 Mn2_2 1_555 1_555
H23_3 O2_3 1_555 1_555
H24_3 O2_3 1_555 1_555
O4_3 Mn2_2 1_555 1_555
H25_3 O4_3 1_555 1_555
H26_3 O4_3 1_555 1_555
O14_2 Mn2_2 1_555 1_555
H5_3 C7_3 1_555 1_555
C8_3 C7_3 1_555 1_555
H6_3 C8_3 1_555 1_555
C13_3 C14_3 1_555 1_555
C14_3 H9_3 1_555 1_555
C15_3 C14_3 1_555 1_555
C16_3 C15_3 1_555 1_555
H10_3 C16_3 1_555 1_555
C17_3 C16_3 1_555 1_555
C18_3 C13_3 1_555 1_555
C19_3 C15_3 1_555 1_555
O3_2 C19_3 1_555 1_555
O5_3 C19_3 1_555 1_555
Mn4_3 O5_3 1_555 1_555
Mn5_2 O3_2 1_555 1_555
C13_3 N2_3 1_555 1_555
C17_3 C18_3 1_555 1_555
N2_3 H30_3 1_555 1_555
C21_3 H12_3 1_555 1_555
C22_3 C21_3 1_555 1_555
H13_3 C22_3 1_555 1_555
C23_3 C22_3 1_555 1_555
H14_3 C23_3 1_555 1_555
C24_3 C23_3 1_555 1_555
C25_3 C24_3 1_555 1_555
H15_3 C25_3 1_555 1_555
C26_3 C24_3 1_555 1_555
C27_3 C26_3 1_555 1_555
H16_3 C27_3 1_555 1_555
C28_3 C27_3 1_555 1_555
H17_3 C28_3 1_555 1_555
C29_3 C28_3 1_555 1_555
C30_3 C29_3 1_555 1_555
H18_3 C30_3 1_555 1_555
C31_3 C26_3 1_555 1_555
H19_3 C31_3 1_555 1_555
C32_3 C29_3 1_555 1_555
C33_3 C34_3 1_555 1_555
C34_3 H20_3 1_555 1_555
C35_3 C34_3 1_555 1_555
C36_3 C35_3 1_555 1_555
H21_3 C36_3 1_555 1_555
C37_3 C36_3 1_555 1_555
C38_3 C33_3 1_555 1_555
H22_3 C38_3 1_555 1_555
C39_3 C35_3 1_555 1_555
C40_3 C37_3 1_555 1_555
N3_3 C21_3 1_555 1_555
N4_3 C32_3 1_555 1_555
O9_3 C32_3 1_555 1_555
O16_2 C39_3 1_555 1_555
O11_3 C39_3 1_555 1_555
O13_3 C40_3 1_555 1_555
C25_3 N3_3 1_555 1_555
C30_3 C31_3 1_555 1_555
C33_3 N4_3 1_555 1_555
C37_3 C38_3 1_555 1_555
N4_3 H29_3 1_555 1_555
C2_3 C1_3 1_555 1_555
C3_3 C2_3 1_555 1_555
C4_3 C3_3 1_555 1_555
C5_3 C4_3 1_555 1_555
H4_3 C5_3 1_555 1_555
C6_3 C4_3 1_555 1_555
C10_3 C9_3 1_555 1_555
H7_3 C10_3 1_555 1_555
C11_3 C6_3 1_555 1_555
H8_3 C11_3 1_555 1_555
C12_3 C9_3 1_555 1_555
O1_3 C12_3 1_555 1_555
O8_3 C20_3 1_555 1_555
C10_3 C11_3 1_555 1_555
O6_3 Mn3_2 1_555 1_555
H28_3 O6_3 1_555 1_555
Mn6_3 O12_3 1_555 1_555
H5_4 C7_4 1_555 1_555
C8_4 C7_4 1_555 1_555
H6_4 C8_4 1_555 1_555
C13_4 C14_4 1_555 1_555
C14_4 H9_4 1_555 1_555
C15_4 C14_4 1_555 1_555
C16_4 C15_4 1_555 1_555
H10_4 C16_4 1_555 1_555
C17_4 C16_4 1_555 1_555
C18_4 C13_4 1_555 1_555
C19_4 C15_4 1_555 1_555
C21_4 H12_4 1_555 1_555
C22_4 C21_4 1_555 1_555
H13_4 C22_4 1_555 1_555
C23_4 C22_4 1_555 1_555
H14_4 C23_4 1_555 1_555
C24_4 C23_4 1_555 1_555
C25_4 C24_4 1_555 1_555
H15_4 C25_4 1_555 1_555
C26_4 C24_4 1_555 1_555
C27_4 C26_4 1_555 1_555
H16_4 C27_4 1_555 1_555
C28_4 C27_4 1_555 1_555
H17_4 C28_4 1_555 1_555
C29_4 C28_4 1_555 1_555
C30_4 C29_4 1_555 1_555
H18_4 C30_4 1_555 1_555
C31_4 C26_4 1_555 1_555
H19_4 C31_4 1_555 1_555
C32_4 C29_4 1_555 1_555
C33_4 C34_4 1_555 1_555
C34_4 H20_4 1_555 1_555
C35_4 C34_4 1_555 1_555
C36_4 C35_4 1_555 1_555
H21_4 C36_4 1_555 1_555
C37_4 C36_4 1_555 1_555
C38_4 C33_4 1_555 1_555
H22_4 C38_4 1_555 1_555
C39_4 C35_4 1_555 1_555
C40_4 C37_4 1_555 1_555
N3_4 C21_4 1_555 1_555
N4_4 C32_4 1_555 1_555
O14_2 C19_4 1_555 1_555
O5_4 C19_4 1_555 1_555
O9_4 C32_4 1_555 1_555
O16 C39_4 1_555 1_555
O11_4 C39_4 1_555 1_555
O13_4 C40_4 1_555 1_555
Mn4_4 O5_4 1_555 1_555
C13_4 N2_4 1_555 1_555
C17_4 C18_4 1_555 1_555
C25_4 N3_4 1_555 1_555
C30_4 C31_4 1_555 1_555
C33_4 N4_4 1_555 1_555
C37_4 C38_4 1_555 1_555
N4_4 H29_4 1_555 1_555
N2_4 H30_4 1_555 1_555
C2_4 C1_4 1_555 1_555
C3_4 C2_4 1_555 1_555
C4_4 C3_4 1_555 1_555
C5_4 C4_4 1_555 1_555
H4_4 C5_4 1_555 1_555
C6_4 C4_4 1_555 1_555
C10_4 C9_4 1_555 1_555
H7_4 C10_4 1_555 1_555
C11_4 C6_4 1_555 1_555
H8_4 C11_4 1_555 1_555
C12_4 C9_4 1_555 1_555
O1_4 C12_4 1_555 1_555
O6_4 Mn3 1_555 1_555
H27_4 O6_4 1_555 1_555
H28_4 O6_4 1_555 1_555
O8_4 C20_4 1_555 1_555
Mn6_4 O12_4 1_555 1_555
C10_4 C11_4 1_555 1_555
Mn5_2 N1_4 1_555 1_555
O2_4 Mn5_2 1_555 1_555
H23_4 O2_4 1_555 1_555
H24_4 O2_4 1_555 1_555
O4_4 Mn5_2 1_555 1_555
H25_4 O4_4 1_555 1_555
H26_4 O4_4 1_555 1_555
Mn4_3 N3_5 1_555 1_555
C21_5 H12_5 1_555 1_555
C22_5 C21_5 1_555 1_555
H13_5 C22_5 1_555 1_555
C23_5 C22_5 1_555 1_555
H14_5 C23_5 1_555 1_555
C24_5 C23_5 1_555 1_555
C25_5 C24_5 1_555 1_555
H15_5 C25_5 1_555 1_555
C26_5 C24_5 1_555 1_555
C27_5 C26_5 1_555 1_555
H16_5 C27_5 1_555 1_555
C28_5 C27_5 1_555 1_555
H17_5 C28_5 1_555 1_555
C29_5 C28_5 1_555 1_555
C30_5 C29_5 1_555 1_555
H18_5 C30_5 1_555 1_555
C31_5 C26_5 1_555 1_555
H19_5 C31_5 1_555 1_555
C32_5 C29_5 1_555 1_555
C33_5 C34_5 1_555 1_555
C34_5 H20_5 1_555 1_555
C35_5 C34_5 1_555 1_555
C36_5 C35_5 1_555 1_555
H21_5 C36_5 1_555 1_555
C37_5 C36_5 1_555 1_555
C38_5 C33_5 1_555 1_555
H22_5 C38_5 1_555 1_555
C39_5 C35_5 1_555 1_555
C40_5 C37_5 1_555 1_555
N3_5 C21_5 1_555 1_555
N4_5 C32_5 1_555 1_555
O6_5 Mn4_3 1_555 1_555
H28_5 O6_5 1_555 1_555
O9_5 C32_5 1_555 1_555
O10_3 C39_5 1_555 1_555
O11_5 C39_5 1_555 1_555
O17_3 C40_5 1_555 1_555
O13_5 C40_5 1_555 1_555
Mn4_2 O10_3 1_555 1_555
O16_3 Mn4_3 1_555 1_555
C25_5 N3_5 1_555 1_555
C30_5 C31_5 1_555 1_555
C33_5 N4_5 1_555 1_555
C37_5 C38_5 1_555 1_555
N4_5 H29_5 1_555 1_555
Mn6_3 N1_5 1_555 1_555
C1_5 H1_5 1_555 1_555
C2_5 C1_5 1_555 1_555
H2_5 C2_5 1_555 1_555
C3_5 C2_5 1_555 1_555
H3_5 C3_5 1_555 1_555
C4_5 C3_5 1_555 1_555
C5_5 C4_5 1_555 1_555
H4_5 C5_5 1_555 1_555
C6_5 C4_5 1_555 1_555
C7_5 C6_5 1_555 1_555
H5_5 C7_5 1_555 1_555
C8_5 C7_5 1_555 1_555
H6_5 C8_5 1_555 1_555
C9_5 C8_5 1_555 1_555
C10_5 C9_5 1_555 1_555
H7_5 C10_5 1_555 1_555
C11_5 C6_5 1_555 1_555
H8_5 C11_5 1_555 1_555
C12_5 C9_5 1_555 1_555
C13_5 C14_5 1_555 1_555
C14_5 H9_5 1_555 1_555
C15_5 C14_5 1_555 1_555
C16_5 C15_5 1_555 1_555
H10_5 C16_5 1_555 1_555
C17_5 C16_5 1_555 1_555
C18_5 C13_5 1_555 1_555
H11_5 C18_5 1_555 1_555
C19_5 C15_5 1_555 1_555
C20_5 C17_5 1_555 1_555
N1_5 C1_5 1_555 1_555
N2_5 C12_5 1_555 1_555
O1_5 C12_5 1_555 1_555
O2_5 Mn6_3 1_555 1_555
H23_5 O2_5 1_555 1_555
H24_5 O2_5 1_555 1_555
O3_3 C19_5 1_555 1_555
O4_5 Mn6_3 1_555 1_555
H25_5 O4_5 1_555 1_555
H26_5 O4_5 1_555 1_555
O15_3 C19_5 1_555 1_555
O8_5 C20_5 1_555 1_555
C5_5 N1_5 1_555 1_555
C10_5 C11_5 1_555 1_555
C13_5 N2_5 1_555 1_555
C17_5 C18_5 1_555 1_555
C20_5 O7_5 1_555 1_555
N2_5 H30_5 1_555 1_555
Mn4_4 N3_6 1_555 1_555
Mn6_4 N1_6 1_555 1_555
C1_6 H1_6 1_555 1_555
C2_6 C1_6 1_555 1_555
H2_6 C2_6 1_555 1_555
C3_6 C2_6 1_555 1_555
H3_6 C3_6 1_555 1_555
C4_6 C3_6 1_555 1_555
C5_6 C4_6 1_555 1_555
H4_6 C5_6 1_555 1_555
C6_6 C4_6 1_555 1_555
C7_6 C6_6 1_555 1_555
H5_6 C7_6 1_555 1_555
C8_6 C7_6 1_555 1_555
H6_6 C8_6 1_555 1_555
C9_6 C8_6 1_555 1_555
C10_6 C9_6 1_555 1_555
H7_6 C10_6 1_555 1_555
C11_6 C6_6 1_555 1_555
H8_6 C11_6 1_555 1_555
C12_6 C9_6 1_555 1_555
C13_6 C14_6 1_555 1_555
C14_6 H9_6 1_555 1_555
C15_6 C14_6 1_555 1_555
C16_6 C15_6 1_555 1_555
H10_6 C16_6 1_555 1_555
C17_6 C16_6 1_555 1_555
C18_6 C13_6 1_555 1_555
H11_6 C18_6 1_555 1_555
C19_6 C15_6 1_555 1_555
C20_6 C17_6 1_555 1_555
C21_6 H12_6 1_555 1_555
C22_6 C21_6 1_555 1_555
H13_6 C22_6 1_555 1_555
C23_6 C22_6 1_555 1_555
H14_6 C23_6 1_555 1_555
C24_6 C23_6 1_555 1_555
C25_6 C24_6 1_555 1_555
H15_6 C25_6 1_555 1_555
C26_6 C24_6 1_555 1_555
C27_6 C26_6 1_555 1_555
H16_6 C27_6 1_555 1_555
C28_6 C27_6 1_555 1_555
H17_6 C28_6 1_555 1_555
C29_6 C28_6 1_555 1_555
C30_6 C29_6 1_555 1_555
H18_6 C30_6 1_555 1_555
C31_6 C26_6 1_555 1_555
H19_6 C31_6 1_555 1_555
C32_6 C29_6 1_555 1_555
C33_6 C34_6 1_555 1_555
C34_6 H20_6 1_555 1_555
C35_6 C34_6 1_555 1_555
C36_6 C35_6 1_555 1_555
H21_6 C36_6 1_555 1_555
C37_6 C36_6 1_555 1_555
C38_6 C33_6 1_555 1_555
H22_6 C38_6 1_555 1_555
C39_6 C35_6 1_555 1_555
C40_6 C37_6 1_555 1_555
N1_6 C1_6 1_555 1_555
N2_6 C12_6 1_555 1_555
N3_6 C21_6 1_555 1_555
N4_6 C32_6 1_555 1_555
O1_6 C12_6 1_555 1_555
O2_6 Mn6_4 1_555 1_555
H23_6 O2_6 1_555 1_555
H24_6 O2_6 1_555 1_555
O14_3 C19_6 1_555 1_555
O4_6 Mn6_4 1_555 1_555
H25_6 O4_6 1_555 1_555
H26_6 O4_6 1_555 1_555
O15_4 C19_6 1_555 1_555
O6_6 Mn4_4 1_555 1_555
H27_6 O6_6 1_555 1_555
H28_6 O6_6 1_555 1_555
O7_6 Mn4_4 1_555 1_555
O8_6 C20_6 1_555 1_555
O9_6 C32_6 1_555 1_555
O10_4 C39_6 1_555 1_555
O11_6 C39_6 1_555 1_555
O17_4 C40_6 1_555 1_555
O13_6 C40_6 1_555 1_555
Mn4 O10_4 1_555 1_555
O16_4 Mn4_4 1_555 1_555
C5_6 N1_6 1_555 1_555
C10_6 C11_6 1_555 1_555
C13_6 N2_6 1_555 1_555
C17_6 C18_6 1_555 1_555
C20_6 O7_6 1_555 1_555
C25_6 N3_6 1_555 1_555
C30_6 C31_6 1_555 1_555
C33_6 N4_6 1_555 1_555
C37_6 C38_6 1_555 1_555
N4_6 H29_6 1_555 1_555
N2_6 H30_6 1_555 1_555
O6_7 Mn4 1_555 1_555
H28_7 O6_7 1_555 1_555
C2_7 C1_7 1_555 1_555
C3_7 C2_7 1_555 1_555
C4_7 C3_7 1_555 1_555
C5_7 C4_7 1_555 1_555
H4_7 C5_7 1_555 1_555
C6_7 C4_7 1_555 1_555
C10_7 C9_7 1_555 1_555
H7_7 C10_7 1_555 1_555
C11_7 C6_7 1_555 1_555
H8_7 C11_7 1_555 1_555
C12_7 C9_7 1_555 1_555
O1_7 C12_7 1_555 1_555
O8_7 C20_7 1_555 1_555
C10_7 C11_7 1_555 1_555
C21_7 H12_7 1_555 1_555
C22_7 C21_7 1_555 1_555
H13_7 C22_7 1_555 1_555
C23_7 C22_7 1_555 1_555
H14_7 C23_7 1_555 1_555
C24_7 C23_7 1_555 1_555
C25_7 C24_7 1_555 1_555
H15_7 C25_7 1_555 1_555
C26_7 C24_7 1_555 1_555
C27_7 C26_7 1_555 1_555
H16_7 C27_7 1_555 1_555
C28_7 C27_7 1_555 1_555
H17_7 C28_7 1_555 1_555
C29_7 C28_7 1_555 1_555
C30_7 C29_7 1_555 1_555
H18_7 C30_7 1_555 1_555
C31_7 C26_7 1_555 1_555
H19_7 C31_7 1_555 1_555
C32_7 C29_7 1_555 1_555
C33_7 C34_7 1_555 1_555
C34_7 H20_7 1_555 1_555
C35_7 C34_7 1_555 1_555
C36_7 C35_7 1_555 1_555
H21_7 C36_7 1_555 1_555
C37_7 C36_7 1_555 1_555
C38_7 C33_7 1_555 1_555
H22_7 C38_7 1_555 1_555
C39_7 C35_7 1_555 1_555
C40_7 C37_7 1_555 1_555
N3_7 C21_7 1_555 1_555
N4_7 C32_7 1_555 1_555
O9_7 C32_7 1_555 1_555
O16_4 C39_7 1_555 1_555
O11_7 C39_7 1_555 1_555
O13_7 C40_7 1_555 1_555
C25_7 N3_7 1_555 1_555
C30_7 C31_7 1_555 1_555
C33_7 N4_7 1_555 1_555
C37_7 C38_7 1_555 1_555
N4_7 H29_7 1_555 1_555
H5_7 C7_7 1_555 1_555
C8_7 C7_7 1_555 1_555
H6_7 C8_7 1_555 1_555
C13_7 C14_7 1_555 1_555
C14_7 H9_7 1_555 1_555
C15_7 C14_7 1_555 1_555
C16_7 C15_7 1_555 1_555
H10_7 C16_7 1_555 1_555
C17_7 C16_7 1_555 1_555
C18_7 C13_7 1_555 1_555
C19_7 C15_7 1_555 1_555
O3_4 C19_7 1_555 1_555
O15 C19_7 1_555 1_555
Mn6_2 O3_4 1_555 1_555
C13_7 N2_7 1_555 1_555
C17_7 C18_7 1_555 1_555
N2_7 H30_7 1_555 1_555
Mn6 N1_7 1_555 1_555
O2_7 Mn6 1_555 1_555
H23_7 O2_7 1_555 1_555
H24_7 O2_7 1_555 1_555
O4_7 Mn6 1_555 1_555
H25_7 O4_7 1_555 1_555
H26_7 O4_7 1_555 1_555
O14_4 Mn6 1_555 1_555
Mn6_2 N1_8 1_555 1_555
O2_8 Mn6_2 1_555 1_555
H23_8 O2_8 1_555 1_555
H24_8 O2_8 1_555 1_555
O4_8 Mn6_2 1_555 1_555
H25_8 O4_8 1_555 1_555
H26_8 O4_8 1_555 1_555
C2_8 C1_8 1_555 1_555
C3_8 C2_8 1_555 1_555
C4_8 C3_8 1_555 1_555
C5_8 C4_8 1_555 1_555
H4_8 C5_8 1_555 1_555
C6_8 C4_8 1_555 1_555
C10_8 C9_8 1_555 1_555
H7_8 C10_8 1_555 1_555
C11_8 C6_8 1_555 1_555
H8_8 C11_8 1_555 1_555
C12_8 C9_8 1_555 1_555
O1_8 C12_8 1_555 1_555
O6_8 Mn4_2 1_555 1_555
H27_8 O6_8 1_555 1_555
H28_8 O6_8 1_555 1_555
O8_8 C20_8 1_555 1_555
C10_8 C11_8 1_555 1_555
H5_8 C7_8 1_555 1_555
C8_8 C7_8 1_555 1_555
H6_8 C8_8 1_555 1_555
C13_8 C14_8 1_555 1_555
C14_8 H9_8 1_555 1_555
C15_8 C14_8 1_555 1_555
C16_8 C15_8 1_555 1_555
H10_8 C16_8 1_555 1_555
C17_8 C16_8 1_555 1_555
C18_8 C13_8 1_555 1_555
C19_8 C15_8 1_555 1_555
C21_8 H12_8 1_555 1_555
C22_8 C21_8 1_555 1_555
H13_8 C22_8 1_555 1_555
C23_8 C22_8 1_555 1_555
H14_8 C23_8 1_555 1_555
C24_8 C23_8 1_555 1_555
C25_8 C24_8 1_555 1_555
H15_8 C25_8 1_555 1_555
C26_8 C24_8 1_555 1_555
C27_8 C26_8 1_555 1_555
H16_8 C27_8 1_555 1_555
C28_8 C27_8 1_555 1_555
H17_8 C28_8 1_555 1_555
C29_8 C28_8 1_555 1_555
C30_8 C29_8 1_555 1_555
H18_8 C30_8 1_555 1_555
C31_8 C26_8 1_555 1_555
H19_8 C31_8 1_555 1_555
C32_8 C29_8 1_555 1_555
C33_8 C34_8 1_555 1_555
C34_8 H20_8 1_555 1_555
C35_8 C34_8 1_555 1_555
C36_8 C35_8 1_555 1_555
H21_8 C36_8 1_555 1_555
C37_8 C36_8 1_555 1_555
C38_8 C33_8 1_555 1_555
H22_8 C38_8 1_555 1_555
C39_8 C35_8 1_555 1_555
C40_8 C37_8 1_555 1_555
N3_8 C21_8 1_555 1_555
N4_8 C32_8 1_555 1_555
O14_4 C19_8 1_555 1_555
O15_2 C19_8 1_555 1_555
O9_8 C32_8 1_555 1_555
O16_3 C39_8 1_555 1_555
O11_8 C39_8 1_555 1_555
O13_8 C40_8 1_555 1_555
C13_8 N2_8 1_555 1_555
C17_8 C18_8 1_555 1_555
C25_8 N3_8 1_555 1_555
C30_8 C31_8 1_555 1_555
C33_8 N4_8 1_555 1_555
C37_8 C38_8 1_555 1_555
N4_8 H29_8 1_555 1_555
N2_8 H30_8 1_555 1_555

#END
