
###############################################################################
#
# This file contains modified crystal structure data generated from the
# MOF subset of the Cambridge Structural Database (CSD) v543 
# hosted by the Cambridge Crystallographic Data Centre (CCDC).
#
# This work is licensed under the Creative Commons
# Attribution-NonCommercial-ShareAlike 4.0 International License.
# To view a copy of this license, visit
# http://creativecommons.org/licenses/by-nc-sa/4.0/
# or send a letter to
# Creative Commons, PO Box 1866, Mountain View, CA 94042, USA.
#
# CIF created using the CSD Python API on 29 September 2022
# The structure has been converted into the P1 space group
# The structure has a 3D framework
# The original CSD entry BELTUJ is in the orthorhombic crystal system
# The framework has been calculated to contain at least 10.0% void space
# The void calculation uses a probe of radius 1.32A, grid spacing 0.4
# H atom positions have been added when not included in the experimental data
#
###############################################################################

data_BELTUJ
_chemical_formula_moiety         '(C360 H280 Co24 N8 O124 P16)n'
_symmetry_cell_setting           triclinic
_symmetry_space_group_name_H-M   'P 1'
_symmetry_Int_Tables_number      1
_space_group_name_Hall           'P 1'
loop_
_symmetry_equiv_pos_site_id
_symmetry_equiv_pos_as_xyz
1 x,y,z
_cell_length_a                   24.9627(18)
_cell_length_b                   24.875(3)
_cell_length_c                   19.5360(14)
_cell_angle_alpha                90
_cell_angle_beta                 90
_cell_angle_gamma                90
_cell_volume                     12130.8
loop_
_atom_site_label
_atom_site_type_symbol
_atom_site_fract_x
_atom_site_fract_y
_atom_site_fract_z
Co1 Co 0.07798(3) 0.09344(2) 0.08280(4)
Co2 Co 0.12444(2) 0.05961(3) 0.24948(4)
P1 P 0.40296(5) 0.23733(5) 0.08323(8)
C1 C 0.3372(2) 0.2076(2) 0.1022(3)
C2 C 0.3019(2) 0.1995(3) 0.0493(3)
H1 H 0.3110 0.2109 0.0044
C3 C 0.2521(2) 0.1740(2) 0.0613(3)
H2 H 0.2277 0.1692 0.0245
C4 C 0.2386(2) 0.15624(19) 0.1261(2)
C5 C 0.1870(2) 0.1260(2) 0.1390(3)
C6 C 0.2737(2) 0.1660(3) 0.1800(3)
H3 H 0.2645 0.1550 0.2251
C7 C 0.3226(2) 0.1921(2) 0.1676(3)
H4 H 0.3461 0.1992 0.2048
C8 C 0.3975(2) 0.30968(19) 0.0931(3)
C9 C 0.4300(2) 0.3425(2) 0.0548(3)
H5 H 0.4532 0.3270 0.0216
C10 C 0.4296(2) 0.3989(2) 0.0637(3)
H6 H 0.4528 0.4210 0.0372
C11 C 0.3949(2) 0.42218(19) 0.1118(2)
C12 C 0.3949(2) 0.4819(2) 0.1245(3)
C13 C 0.3617(2) 0.3887(2) 0.1509(3)
H7 H 0.3384 0.4040 0.1841
C14 C 0.3626(2) 0.3331(2) 0.1413(3)
H8 H 0.3395 0.3108 0.1676
C15 C 0.4459(2) 0.2142(2) 0.1523(3)
C16 C 0.4653(2) 0.1612(2) 0.1473(3)
H9 H 0.4577 0.1406 0.1075
C17 C 0.4957(2) 0.13815(19) 0.2005(3)
H10 H 0.5080 0.1021 0.1971
C18 C 0.5077(2) 0.1690(2) 0.2585(3)
C19 C 0.5371(2) 0.1437(2) 0.3167(3)
C20 C 0.4890(3) 0.2219(3) 0.2628(4)
H11 H 0.4975 0.2429 0.3019
C21 C 0.4585(3) 0.2439(2) 0.2114(4)
H12 H 0.4456 0.2797 0.2158
C43 C 0.1386(3) 0.4901(4) 0.0499(3)
H25 H 0.1658 0.4749 0.0219
C44 C 0.1144(6) 0.5273(6) 0.1563(5)
H26 H 0.0806 0.5326 0.1318
H27 H 0.1091 0.5011 0.1933
H28 H 0.1264 0.5615 0.1758
C45 C 0.2144(5) 0.5007(6) 0.1337(5)
H29 H 0.2369 0.5269 0.1095
H30 H 0.2172 0.5067 0.1832
H31 H 0.2266 0.4642 0.1229
N1 N 0.1538(3) 0.5077(3) 0.1103(3)
O1 O 0.15302(13) 0.12510(14) 0.09067(17)
O2 O 0.18250(14) 0.10307(15) 0.19620(17)
O3 O 0.41380(16) 0.51206(14) 0.07731(17)
O4 O 0.37693(16) 0.49695(14) 0.18148(17)
O5 O 0.56156(13) 0.09842(13) 0.30793(16)
O6 O 0.5377(2) 0.1644(2) 0.3758(2)
O7 O 0.42294(15) 0.22116(15) 0.01388(17)
O17 O 0.09262(15) 0.49108(15) 0.02520(17)
Co4 Co 0.42202(3) 0.59344(2) 0.08280(4)
Co5 Co 0.57798(3) 0.09344(2) 0.41720(4)
Co6 Co 0.37556(2) 0.55961(3) 0.24948(4)
Co7 Co 0.62444(2) 0.05961(3) 0.25052(4)
O18 O 0.08620(16) 0.01206(14) 0.07731(17)
O20 O 0.06156(13) 0.09842(13) 0.19207(16)
O21 O 0.0377(2) 0.1644(2) 0.1242(2)
O22 O 0.12588(15) 0.12197(13) 0.31805(17)
O23 O 0.18428(14) 0.01503(15) 0.29696(17)
O26 O 0.06263(13) 0.02125(12) 0.31268(16)
Co3 Co 0.08235(3) 0.47281(2) 0.91946(3)
P2 P 0.09590(5) 0.11814(5) 0.91066(6)
C22 C 0.10448(19) 0.18982(17) 0.9022(2)
C23 C 0.1348(2) 0.21288(19) 0.8496(3)
H13 H 0.1541 0.1904 0.8190
C24 C 0.1370(2) 0.26830(19) 0.8415(3)
H14 H 0.1570 0.2834 0.8050
C25 C 0.1093(2) 0.30233(18) 0.8878(2)
C26 C 0.1109(2) 0.3627(2) 0.8774(3)
C27 C 0.0804(2) 0.27993(19) 0.9411(2)
H15 H 0.0628 0.3027 0.9731
C28 C 0.0769(2) 0.22409(19) 0.9483(2)
H16 H 0.0560 0.2091 0.9841
C29 C 0.15921(19) 0.08599(18) 0.8938(2)
C30 C 0.1776(2) 0.0781(2) 0.8269(3)
H17 H 0.1568 0.0903 0.7892
C31 C 0.2268(2) 0.0520(2) 0.8153(3)
H18 H 0.2389 0.0466 0.7697
C32 C 0.2578(2) 0.0342(2) 0.8697(3)
C33 C 0.3098(2) 0.0043(2) 0.8564(3)
C34 C 0.2399(2) 0.0430(3) 0.9362(3)
H19 H 0.2609 0.0313 0.9739
C35 C 0.1909(2) 0.0692(3) 0.9477(3)
H20 H 0.1793 0.0754 0.9934
C36 C 0.05292(19) 0.09523(19) 0.8424(2)
C37 C 0.0334(2) 0.1274(2) 0.7895(3)
H21 H 0.0413 0.1648 0.7889
C38 C 0.0022(3) 0.1051(2) 0.7374(3)
C41 C 0.0077(2) 0.0186(2) 0.7898(3)
C42 C 0.0390(2) 0.0404(2) 0.8417(3)
H24 H 0.0514 0.0177 0.8775
O8 O 0.12588(15) 0.37803(13) 0.81805(17)
O9 O 0.09797(15) 0.39246(13) 0.92670(17)
O11 O 0.34178(14) 0.00013(14) 0.90686(16)
O14 O 0.07364(13) 0.10312(13) 0.97933(15)
O15 O 0.00271(15) 0.45071(14) 0.94469(17)
Co8 Co 0.12444(2) 0.44039(3) 0.74948(4)
O24 O 0.15822(14) 0.50013(14) 0.90686(16)
O25 O 0.04607(14) 0.54981(14) 0.87744(16)
O27 O 0.06263(13) 0.47875(12) 0.81268(16)
H34 H 0.00231671 0.432782 0.990102
O19 O 0.12307(16) 0.99695(14) 0.18148(17)
O10 O 0.31572(14) 0.98497(15) 0.79696(17)
Co9 Co 0.37556(2) 0.94039(3) 0.74948(4)
Co11 Co 0.41765(3) 0.97281(2) 0.91946(3)
H22 H 0.9899 0.1274 0.7012
C39 C 0.98885(19) 0.05092(19) 0.7375(2)
C40 C 0.95778(18) 0.02646(19) 0.6801(2)
O12 O 0.95393(14) 0.04981(14) 0.62256(16)
H35 H 0.979879 0.483375 0.94631
H23 H 0.9992 0.9814 0.7903
O13 O 0.93737(13) 0.97875(12) 0.68732(16)
Co10 Co 0.87556(2) 0.94039(3) 0.75052(4)
Co12 Co 0.91765(3) 0.97281(2) 0.58054(3)
H23_2 H 0.5008 0.0186 0.2903
O13_2 O 0.56263(13) 0.02125(12) 0.18732(16)
Co11_2 Co 0.08235(3) 0.02719(2) 0.41946(3)
Co12_2 Co 0.58235(3) 0.02719(2) 0.08054(3)
O19_2 O 0.37693(16) 0.00305(14) 0.68148(17)
Co1_2 Co 0.42202(3) 0.90656(2) 0.58280(4)
Co3_2 Co 0.41765(3) 0.52719(2) 0.41946(3)
P1_2 P 0.09704(5) 0.76267(5) 0.58323(8)
P2_2 P 0.40410(5) 0.88186(5) 0.41066(6)
C1_2 C 0.1628(2) 0.7924(2) 0.6022(3)
C2_2 C 0.1981(2) 0.8005(3) 0.5493(3)
H1_2 H 0.1890 0.7891 0.5044
C3_2 C 0.2479(2) 0.8260(2) 0.5613(3)
H2_2 H 0.2723 0.8308 0.5245
C4_2 C 0.2614(2) 0.84376(19) 0.6261(2)
C5_2 C 0.3130(2) 0.8740(2) 0.6390(3)
C6_2 C 0.2263(2) 0.8340(3) 0.6800(3)
H3_2 H 0.2355 0.8450 0.7251
C7_2 C 0.1774(2) 0.8079(2) 0.6676(3)
H4_2 H 0.1539 0.8008 0.7048
C8_2 C 0.1025(2) 0.69032(19) 0.5931(3)
C9_2 C 0.0700(2) 0.6575(2) 0.5548(3)
H5_2 H 0.0468 0.6730 0.5216
C10_2 C 0.0704(2) 0.6011(2) 0.5637(3)
H6_2 H 0.0472 0.5790 0.5372
C11_2 C 0.1051(2) 0.57782(19) 0.6118(2)
C12_2 C 0.1051(2) 0.5181(2) 0.6245(3)
C13_2 C 0.1383(2) 0.6113(2) 0.6509(3)
H7_2 H 0.1616 0.5960 0.6841
C14_2 C 0.1374(2) 0.6669(2) 0.6413(3)
H8_2 H 0.1605 0.6892 0.6676
C15_2 C 0.0541(2) 0.7858(2) 0.6523(3)
C16_2 C 0.0347(2) 0.8388(2) 0.6473(3)
H9_2 H 0.0423 0.8594 0.6075
C17_2 C 0.0043(2) 0.86185(19) 0.7005(3)
C20_2 C 0.0110(3) 0.7781(3) 0.7628(4)
H11_2 H 0.0025 0.7571 0.8019
C21_2 C 0.0415(3) 0.7561(2) 0.7114(4)
H12_2 H 0.0544 0.7203 0.7158
C22_2 C 0.39552(19) 0.81018(17) 0.4022(2)
C23_2 C 0.3652(2) 0.78712(19) 0.3496(3)
H13_2 H 0.3459 0.8096 0.3190
C24_2 C 0.3630(2) 0.73170(19) 0.3415(3)
H14_2 H 0.3430 0.7166 0.3050
C25_2 C 0.3907(2) 0.69767(18) 0.3878(2)
C26_2 C 0.3891(2) 0.6373(2) 0.3774(3)
C27_2 C 0.4196(2) 0.72007(19) 0.4411(2)
H15_2 H 0.4372 0.6973 0.4731
C28_2 C 0.4231(2) 0.77591(19) 0.4483(2)
H16_2 H 0.4440 0.7909 0.4841
C29_2 C 0.34079(19) 0.91401(18) 0.3938(2)
C30_2 C 0.3224(2) 0.9219(2) 0.3269(3)
H17_2 H 0.3432 0.9097 0.2892
C31_2 C 0.2732(2) 0.9480(2) 0.3153(3)
H18_2 H 0.2611 0.9534 0.2697
C32_2 C 0.2422(2) 0.9658(2) 0.3697(3)
C33_2 C 0.1902(2) 0.9957(2) 0.3564(3)
C34_2 C 0.2601(2) 0.9570(3) 0.4362(3)
H19_2 H 0.2391 0.9687 0.4739
C35_2 C 0.3091(2) 0.9308(3) 0.4477(3)
H20_2 H 0.3207 0.9246 0.4934
C36_2 C 0.44708(19) 0.90477(19) 0.3424(2)
C37_2 C 0.4666(2) 0.8726(2) 0.2895(3)
H21_2 H 0.4587 0.8352 0.2889
C38_2 C 0.4978(3) 0.8949(2) 0.2374(3)
H22_2 H 0.5101 0.8726 0.2012
C39_2 C 0.51115(19) 0.94908(19) 0.2375(2)
C40_2 C 0.54222(18) 0.97354(19) 0.1801(2)
C41_2 C 0.4923(2) 0.9814(2) 0.2898(3)
C42_2 C 0.4610(2) 0.9596(2) 0.3417(3)
H24_2 H 0.4486 0.9823 0.3775
C43_2 C 0.3614(3) 0.5099(4) 0.5499(3)
H25_2 H 0.3342 0.5251 0.5219
C44_2 C 0.3856(6) 0.4727(6) 0.6563(5)
H26_2 H 0.4194 0.4674 0.6318
H27_2 H 0.3909 0.4989 0.6933
H28_2 H 0.3736 0.4385 0.6758
C45_2 C 0.2856(5) 0.4993(6) 0.6337(5)
H29_2 H 0.2631 0.4731 0.6095
H30_2 H 0.2828 0.4933 0.6832
H31_2 H 0.2734 0.5358 0.6229
N1_2 N 0.3462(3) 0.4923(3) 0.6103(3)
O1_2 O 0.34698(13) 0.87490(14) 0.59067(17)
O2_2 O 0.31750(14) 0.89693(15) 0.69620(17)
O3_2 O 0.08620(16) 0.48794(14) 0.57731(17)
O4_2 O 0.12307(16) 0.50305(14) 0.68148(17)
O7_2 O 0.07706(15) 0.77884(15) 0.51388(17)
O8_2 O 0.37412(15) 0.62197(13) 0.31805(17)
O9_2 O 0.40203(15) 0.60754(13) 0.42670(17)
O11_2 O 0.15822(14) 0.99987(14) 0.40686(16)
O12_2 O 0.54607(14) 0.95019(14) 0.12256(16)
O14_2 O 0.42636(13) 0.89688(13) 0.47933(15)
O15_2 O 0.49729(15) 0.54929(14) 0.44469(17)
O16 O 0.5077(3) 0.9287(3) 0.5743(3)
O17_2 O 0.40738(15) 0.50892(15) 0.52520(17)
Co4_2 Co 0.07798(3) 0.40656(2) 0.58280(4)
O18_2 O 0.41380(16) 0.98794(14) 0.57731(17)
O20_2 O 0.43844(13) 0.90158(13) 0.69207(16)
O21_2 O 0.4623(2) 0.8356(2) 0.6242(2)
O22_2 O 0.37412(15) 0.87803(13) 0.81805(17)
O24_2 O 0.34178(14) 0.49987(14) 0.40686(16)
O25_2 O 0.45393(14) 0.45019(14) 0.37744(16)
O26_2 O 0.43737(13) 0.97875(12) 0.81268(16)
O27_2 O 0.43737(13) 0.52125(12) 0.31268(16)
H32 H 0.522905 0.912903 0.531855
H33 H 0.511129 0.968449 0.572612
H34_2 H 0.497683 0.567218 0.490102
H35_2 H 0.520121 0.516625 0.44631
H10_2 H 0.9920 0.8979 0.6971
C18_2 C 0.9923(2) 0.8310(2) 0.7585(3)
C19_2 C 0.9629(2) 0.8563(2) 0.8167(3)
O5_2 O 0.93844(13) 0.90158(13) 0.80793(16)
O6_2 O 0.9623(2) 0.8356(2) 0.8758(2)
Co5_2 Co 0.92202(3) 0.90656(2) 0.91720(4)
H10_3 H 0.0080 0.3979 0.8029
C18_3 C 0.0077(2) 0.3310(2) 0.7415(3)
C19_3 C 0.0371(2) 0.3563(2) 0.6833(3)
O5_3 O 0.06156(13) 0.40158(13) 0.69207(16)
O6_3 O 0.0377(2) 0.3356(2) 0.6242(2)
P2_3 P 0.59590(5) 0.38186(5) 0.08934(6)
C22_3 C 0.60448(19) 0.31018(17) 0.0978(2)
C23_3 C 0.6348(2) 0.28712(19) 0.1504(3)
H13_3 H 0.6541 0.3096 0.1810
C24_3 C 0.6370(2) 0.23170(19) 0.1585(3)
H14_3 H 0.6570 0.2166 0.1950
C25_3 C 0.6093(2) 0.19767(18) 0.1122(2)
C26_3 C 0.6109(2) 0.1373(2) 0.1226(3)
C27_3 C 0.5804(2) 0.22007(19) 0.0589(2)
H15_3 H 0.5628 0.1973 0.0269
C28_3 C 0.5769(2) 0.27591(19) 0.0517(2)
H16_3 H 0.5560 0.2909 0.0159
C29_3 C 0.65921(19) 0.41401(18) 0.1062(2)
C30_3 C 0.6776(2) 0.4219(2) 0.1731(3)
H17_3 H 0.6568 0.4097 0.2108
C31_3 C 0.7268(2) 0.4480(2) 0.1847(3)
H18_3 H 0.7389 0.4534 0.2303
C32_3 C 0.7578(2) 0.4658(2) 0.1303(3)
C33_3 C 0.8098(2) 0.4957(2) 0.1436(3)
C34_3 C 0.7399(2) 0.4570(3) 0.0638(3)
H19_3 H 0.7609 0.4687 0.0261
C35_3 C 0.6909(2) 0.4308(3) 0.0523(3)
H20_3 H 0.6793 0.4246 0.0066
C36_3 C 0.55292(19) 0.40477(19) 0.1576(2)
C37_3 C 0.5334(2) 0.3726(2) 0.2105(3)
H21_3 H 0.5413 0.3352 0.2111
C38_3 C 0.5022(3) 0.3949(2) 0.2626(3)
H22_3 H 0.4899 0.3726 0.2988
C39_3 C 0.48885(19) 0.44908(19) 0.2625(2)
C40_3 C 0.45778(18) 0.47354(19) 0.3199(2)
C41_3 C 0.5077(2) 0.4814(2) 0.2102(3)
H23_3 H 0.4992 0.5186 0.2097
C42_3 C 0.5390(2) 0.4596(2) 0.1583(3)
H24_3 H 0.5514 0.4823 0.1225
O8_3 O 0.62588(15) 0.12197(13) 0.18195(17)
O9_3 O 0.59797(15) 0.10754(13) 0.07330(17)
O10_2 O 0.81572(14) 0.51503(15) 0.20304(17)
O11_3 O 0.84178(14) 0.49987(14) 0.09314(16)
O14_3 O 0.57364(13) 0.39688(13) 0.02067(15)
O15_3 O 0.50271(15) 0.04929(14) 0.05531(17)
Co9_2 Co 0.87556(2) 0.55961(3) 0.25052(4)
Co11_3 Co 0.91765(3) 0.52719(2) 0.08054(3)
H34_3 H 0.502317 0.0672176 0.00989758
H35_3 H 0.479879 0.016625 0.0536903
Co1_3 Co 0.57798(3) 0.40656(2) 0.91720(4)
Co2_2 Co 0.62444(2) 0.44039(3) 0.75052(4)
P1_3 P 0.90296(5) 0.26267(5) 0.91677(8)
C1_3 C 0.8372(2) 0.2924(2) 0.8978(3)
C2_3 C 0.8019(2) 0.3005(3) 0.9507(3)
H1_3 H 0.8110 0.2891 0.9956
C3_3 C 0.7521(2) 0.3260(2) 0.9387(3)
H2_3 H 0.7277 0.3308 0.9755
C4_3 C 0.7386(2) 0.34376(19) 0.8739(2)
C5_3 C 0.6870(2) 0.3740(2) 0.8610(3)
C6_3 C 0.7737(2) 0.3340(3) 0.8200(3)
H3_3 H 0.7645 0.3450 0.7749
C7_3 C 0.8226(2) 0.3079(2) 0.8324(3)
H4_3 H 0.8461 0.3008 0.7952
C8_3 C 0.8975(2) 0.19032(19) 0.9069(3)
C9_3 C 0.9300(2) 0.1575(2) 0.9452(3)
H5_3 H 0.9532 0.1730 0.9784
C10_3 C 0.9296(2) 0.1011(2) 0.9363(3)
H6_3 H 0.9528 0.0790 0.9628
C11_3 C 0.8949(2) 0.07782(19) 0.8882(2)
C12_3 C 0.8949(2) 0.0181(2) 0.8755(3)
C13_3 C 0.8617(2) 0.1113(2) 0.8491(3)
H7_3 H 0.8384 0.0960 0.8159
C14_3 C 0.8626(2) 0.1669(2) 0.8587(3)
H8_3 H 0.8395 0.1892 0.8324
C15_3 C 0.9459(2) 0.2858(2) 0.8477(3)
C16_3 C 0.9653(2) 0.3388(2) 0.8527(3)
H9_3 H 0.9577 0.3594 0.8925
C17_3 C 0.9957(2) 0.36185(19) 0.7995(3)
C20_3 C 0.9890(3) 0.2781(3) 0.7372(4)
H11_3 H 0.9975 0.2571 0.6981
C21_3 C 0.9585(3) 0.2561(2) 0.7886(4)
H12_3 H 0.9456 0.2203 0.7842
C43_3 C 0.6386(3) 0.0099(4) 0.9501(3)
H25_3 H 0.6658 0.0251 0.9781
H31_3 H 0.7266 0.0358 0.8771
O1_3 O 0.65302(13) 0.37490(14) 0.90933(17)
O2_3 O 0.68250(14) 0.39693(15) 0.80380(17)
O4_3 O 0.87693(16) 0.00305(14) 0.81852(17)
O7_3 O 0.92294(15) 0.27884(15) 0.98612(17)
O16_2 O 0.4923(3) 0.4287(3) 0.9257(3)
O17_3 O 0.59262(15) 0.00892(15) 0.97480(17)
O18_3 O 0.58620(16) 0.48794(14) 0.92269(17)
O19_3 O 0.62307(16) 0.50305(14) 0.81852(17)
O20_3 O 0.56156(13) 0.40158(13) 0.80793(16)
O21_3 O 0.5377(2) 0.3356(2) 0.8758(2)
O22_3 O 0.62588(15) 0.37803(13) 0.68195(17)
O23_2 O 0.68428(14) 0.48497(15) 0.70304(17)
O26_3 O 0.56263(13) 0.47875(12) 0.68732(16)
H32_2 H 0.477095 0.412903 0.968145
H33_2 H 0.488871 0.468449 0.927388
O24_3 O 0.65822(14) 0.99987(14) 0.09314(16)
C44_3 C 0.6144(6) 0.9727(6) 0.8437(5)
H26_3 H 0.5806 0.9674 0.8682
H27_3 H 0.6091 0.9989 0.8067
H28_3 H 0.6264 0.9385 0.8242
C45_3 C 0.7144(5) 0.9993(6) 0.8663(5)
H29_3 H 0.7369 0.9731 0.8905
H30_3 H 0.7172 0.9933 0.8168
N1_3 N 0.6538(3) 0.9923(3) 0.8897(3)
O3_3 O 0.91380(16) 0.98794(14) 0.92269(17)
H22_4 H 0.0101 0.6274 0.7988
C39_4 C 0.01115(19) 0.55092(19) 0.7625(2)
C40_4 C 0.04222(18) 0.52646(19) 0.8199(2)
H23_4 H 0.0008 0.4814 0.7097
O16_3 O 0.0077(3) 0.5713(3) 0.4257(3)
H32_3 H 0.0229052 0.587097 0.468145
H33_3 H 0.0111292 0.531551 0.427388
H35_4 H 0.0201214 0.983375 0.55369
C44_4 C 0.8856(6) 0.0273(6) 0.3437(5)
H26_4 H 0.9194 0.0326 0.3682
H27_4 H 0.8909 0.0011 0.3067
H28_4 H 0.8736 0.0615 0.3242
C45_4 C 0.7856(5) 0.0007(6) 0.3663(5)
H29_4 H 0.7631 0.0269 0.3905
H30_4 H 0.7828 0.0067 0.3168
N1_4 N 0.8462(3) 0.0077(3) 0.3897(3)
O3_4 O 0.58620(16) 0.01206(14) 0.42269(17)
O24_4 O 0.84178(14) 0.00013(14) 0.59314(16)
Co1_4 Co 0.92202(3) 0.59344(2) 0.41720(4)
P1_4 P 0.59704(5) 0.73733(5) 0.41677(8)
P2_4 P 0.90410(5) 0.61814(5) 0.58934(6)
C1_4 C 0.6628(2) 0.7076(2) 0.3978(3)
C2_4 C 0.6981(2) 0.6995(3) 0.4507(3)
H1_4 H 0.6890 0.7109 0.4956
C3_4 C 0.7479(2) 0.6740(2) 0.4387(3)
H2_4 H 0.7723 0.6692 0.4755
C4_4 C 0.7614(2) 0.65624(19) 0.3739(2)
C5_4 C 0.8130(2) 0.6260(2) 0.3610(3)
C6_4 C 0.7263(2) 0.6660(3) 0.3200(3)
H3_4 H 0.7355 0.6550 0.2749
C7_4 C 0.6774(2) 0.6921(2) 0.3324(3)
H4_4 H 0.6539 0.6992 0.2952
C8_4 C 0.6025(2) 0.80968(19) 0.4069(3)
C9_4 C 0.5700(2) 0.8425(2) 0.4452(3)
H5_4 H 0.5468 0.8270 0.4784
C10_4 C 0.5704(2) 0.8989(2) 0.4363(3)
H6_4 H 0.5472 0.9210 0.4628
C11_4 C 0.6051(2) 0.92218(19) 0.3882(2)
C12_4 C 0.6051(2) 0.9819(2) 0.3755(3)
C13_4 C 0.6383(2) 0.8887(2) 0.3491(3)
H7_4 H 0.6616 0.9040 0.3159
C14_4 C 0.6374(2) 0.8331(2) 0.3587(3)
H8_4 H 0.6605 0.8108 0.3324
C15_4 C 0.5541(2) 0.7142(2) 0.3477(3)
C16_4 C 0.5347(2) 0.6612(2) 0.3527(3)
H9_4 H 0.5423 0.6406 0.3925
C17_4 C 0.5043(2) 0.63815(19) 0.2995(3)
H10_4 H 0.4920 0.6021 0.3029
C18_4 C 0.4923(2) 0.6690(2) 0.2415(3)
C19_4 C 0.4629(2) 0.6437(2) 0.1833(3)
C20_4 C 0.5110(3) 0.7219(3) 0.2372(4)
H11_4 H 0.5025 0.7429 0.1981
C21_4 C 0.5415(3) 0.7439(2) 0.2886(4)
H12_4 H 0.5544 0.7797 0.2842
C22_4 C 0.89552(19) 0.68982(17) 0.5978(2)
C23_4 C 0.8652(2) 0.71288(19) 0.6504(3)
H13_4 H 0.8459 0.6904 0.6810
C24_4 C 0.8630(2) 0.76830(19) 0.6585(3)
H14_4 H 0.8430 0.7834 0.6950
C25_4 C 0.8907(2) 0.80233(18) 0.6122(2)
C26_4 C 0.8891(2) 0.8627(2) 0.6226(3)
C27_4 C 0.9196(2) 0.77993(19) 0.5589(2)
H15_4 H 0.9372 0.8027 0.5269
C28_4 C 0.9231(2) 0.72409(19) 0.5517(2)
H16_4 H 0.9440 0.7091 0.5159
C29_4 C 0.84079(19) 0.58599(18) 0.6062(2)
C30_4 C 0.8224(2) 0.5781(2) 0.6731(3)
H17_4 H 0.8432 0.5903 0.7108
C31_4 C 0.7732(2) 0.5520(2) 0.6847(3)
H18_4 H 0.7611 0.5466 0.7303
C32_4 C 0.7422(2) 0.5342(2) 0.6303(3)
C33_4 C 0.6902(2) 0.5043(2) 0.6436(3)
C34_4 C 0.7601(2) 0.5430(3) 0.5638(3)
H19_4 H 0.7391 0.5313 0.5261
C35_4 C 0.8091(2) 0.5692(3) 0.5523(3)
H20_4 H 0.8207 0.5754 0.5066
C36_4 C 0.94708(19) 0.59523(19) 0.6576(2)
C37_4 C 0.9666(2) 0.6274(2) 0.7105(3)
H21_4 H 0.9587 0.6648 0.7111
C38_4 C 0.9978(3) 0.6051(2) 0.7626(3)
C41_4 C 0.9923(2) 0.5186(2) 0.7102(3)
C42_4 C 0.9610(2) 0.5404(2) 0.6583(3)
H24_4 H 0.9486 0.5177 0.6225
C43_4 C 0.8614(3) 0.9901(4) 0.4501(3)
H25_4 H 0.8342 0.9749 0.4781
H31_4 H 0.7734 0.9642 0.3771
O1_4 O 0.84698(13) 0.62510(14) 0.40933(17)
O2_4 O 0.81750(14) 0.60307(15) 0.30380(17)
O4_4 O 0.62307(16) 0.99695(14) 0.31852(17)
O5_4 O 0.43844(13) 0.59842(13) 0.19207(16)
O6_4 O 0.4623(2) 0.6644(2) 0.1242(2)
O7_4 O 0.57706(15) 0.72116(15) 0.48612(17)
O8_4 O 0.87412(15) 0.87803(13) 0.68195(17)
O9_4 O 0.90203(15) 0.89246(13) 0.57330(17)
O11_4 O 0.65822(14) 0.50013(14) 0.59314(16)
O14_4 O 0.92636(13) 0.60312(13) 0.52067(15)
O15_4 O 0.99729(15) 0.95071(14) 0.55531(17)
O17_4 O 0.90738(15) 0.99108(15) 0.47480(17)
Co11_4 Co 0.58235(3) 0.47281(2) 0.58054(3)
O18_4 O 0.91380(16) 0.51206(14) 0.42269(17)
O19_4 O 0.87693(16) 0.49695(14) 0.31852(17)
O20_4 O 0.93844(13) 0.59842(13) 0.30793(16)
O21_4 O 0.9623(2) 0.6644(2) 0.3758(2)
O22_4 O 0.87412(15) 0.62197(13) 0.18195(17)
O26_4 O 0.93737(13) 0.52125(12) 0.18732(16)
H34_4 H 0.997683 0.932782 0.509898
H23_5 H 0.0008 0.0186 0.2097
H22_5 H 0.0101 0.8726 0.2988
C39_5 C 0.01115(19) 0.94908(19) 0.2625(2)
C40_5 C 0.04222(18) 0.97354(19) 0.3199(2)
O12_3 O 0.04607(14) 0.95019(14) 0.37744(16)
H35_5 H 0.0201214 0.516625 0.0536903
O10_3 O 0.68428(14) 0.01503(15) 0.20304(17)
P2_5 P 0.90410(5) 0.88186(5) 0.08934(6)
C22_5 C 0.89552(19) 0.81018(17) 0.0978(2)
C23_5 C 0.8652(2) 0.78712(19) 0.1504(3)
H13_5 H 0.8459 0.8096 0.1810
C24_5 C 0.8630(2) 0.73170(19) 0.1585(3)
H14_5 H 0.8430 0.7166 0.1950
C25_5 C 0.8907(2) 0.69767(18) 0.1122(2)
C26_5 C 0.8891(2) 0.6373(2) 0.1226(3)
C27_5 C 0.9196(2) 0.72007(19) 0.0589(2)
H15_5 H 0.9372 0.6973 0.0269
C28_5 C 0.9231(2) 0.77591(19) 0.0517(2)
H16_5 H 0.9440 0.7909 0.0159
C29_5 C 0.84079(19) 0.91401(18) 0.1062(2)
C30_5 C 0.8224(2) 0.9219(2) 0.1731(3)
H17_5 H 0.8432 0.9097 0.2108
C31_5 C 0.7732(2) 0.9480(2) 0.1847(3)
H18_5 H 0.7611 0.9534 0.2303
C32_5 C 0.7422(2) 0.9658(2) 0.1303(3)
C33_5 C 0.6902(2) 0.9957(2) 0.1436(3)
C34_5 C 0.7601(2) 0.9570(3) 0.0638(3)
H19_5 H 0.7391 0.9687 0.0261
C35_5 C 0.8091(2) 0.9308(3) 0.0523(3)
H20_5 H 0.8207 0.9246 0.0066
C36_5 C 0.94708(19) 0.90477(19) 0.1576(2)
C37_5 C 0.9666(2) 0.8726(2) 0.2105(3)
H21_5 H 0.9587 0.8352 0.2111
C38_5 C 0.9978(3) 0.8949(2) 0.2626(3)
C41_5 C 0.9923(2) 0.9814(2) 0.2102(3)
C42_5 C 0.9610(2) 0.9596(2) 0.1583(3)
H24_5 H 0.9486 0.9823 0.1225
O9_5 O 0.90203(15) 0.60754(13) 0.07330(17)
O14_5 O 0.92636(13) 0.89688(13) 0.02067(15)
O15_5 O 0.99729(15) 0.54929(14) 0.05531(17)
O25_3 O 0.95393(14) 0.45019(14) 0.12256(16)
H34_5 H 0.997683 0.567218 0.00989758
P1_5 P 0.59704(5) 0.76267(5) 0.91677(8)
C1_5 C 0.6628(2) 0.7924(2) 0.8978(3)
C2_5 C 0.6981(2) 0.8005(3) 0.9507(3)
H1_5 H 0.6890 0.7891 0.9956
C3_5 C 0.7479(2) 0.8260(2) 0.9387(3)
H2_5 H 0.7723 0.8308 0.9755
C4_5 C 0.7614(2) 0.84376(19) 0.8739(2)
C5_5 C 0.8130(2) 0.8740(2) 0.8610(3)
C6_5 C 0.7263(2) 0.8340(3) 0.8200(3)
H3_5 H 0.7355 0.8450 0.7749
C7_5 C 0.6774(2) 0.8079(2) 0.8324(3)
H4_5 H 0.6539 0.8008 0.7952
C8_5 C 0.6025(2) 0.69032(19) 0.9069(3)
C9_5 C 0.5700(2) 0.6575(2) 0.9452(3)
H5_5 H 0.5468 0.6730 0.9784
C10_5 C 0.5704(2) 0.6011(2) 0.9363(3)
H6_5 H 0.5472 0.5790 0.9628
C11_5 C 0.6051(2) 0.57782(19) 0.8882(2)
C12_5 C 0.6051(2) 0.5181(2) 0.8755(3)
C13_5 C 0.6383(2) 0.6113(2) 0.8491(3)
H7_5 H 0.6616 0.5960 0.8159
C14_5 C 0.6374(2) 0.6669(2) 0.8587(3)
H8_5 H 0.6605 0.6892 0.8324
C15_5 C 0.5541(2) 0.7858(2) 0.8477(3)
C16_5 C 0.5347(2) 0.8388(2) 0.8527(3)
H9_5 H 0.5423 0.8594 0.8925
C17_5 C 0.5043(2) 0.86185(19) 0.7995(3)
H10_5 H 0.4920 0.8979 0.8029
C18_5 C 0.4923(2) 0.8310(2) 0.7415(3)
C19_5 C 0.4629(2) 0.8563(2) 0.6833(3)
C20_5 C 0.5110(3) 0.7781(3) 0.7372(4)
H11_5 H 0.5025 0.7571 0.6981
C21_5 C 0.5415(3) 0.7561(2) 0.7886(4)
H12_5 H 0.5544 0.7203 0.7842
C43_5 C 0.8614(3) 0.5099(4) 0.9501(3)
H25_5 H 0.8342 0.5251 0.9781
C44_5 C 0.8856(6) 0.4727(6) 0.8437(5)
H26_5 H 0.9194 0.4674 0.8682
H27_5 H 0.8909 0.4989 0.8067
H28_5 H 0.8736 0.4385 0.8242
C45_5 C 0.7856(5) 0.4993(6) 0.8663(5)
H29_5 H 0.7631 0.4731 0.8905
H30_5 H 0.7828 0.4933 0.8168
H31_5 H 0.7734 0.5358 0.8771
N1_5 N 0.8462(3) 0.4923(3) 0.8897(3)
O1_5 O 0.84698(13) 0.87490(14) 0.90933(17)
O2_5 O 0.81750(14) 0.89693(15) 0.80380(17)
O7_5 O 0.57706(15) 0.77884(15) 0.98612(17)
O17_5 O 0.90738(15) 0.50892(15) 0.97480(17)
O23_3 O 0.81572(14) 0.98497(15) 0.70304(17)
H10_6 H 0.0080 0.1021 0.3029
C18_6 C 0.0077(2) 0.1690(2) 0.2415(3)
C19_6 C 0.0371(2) 0.1437(2) 0.1833(3)
P1_6 P 0.90296(5) 0.23733(5) 0.41677(8)
P2_6 P 0.59590(5) 0.11814(5) 0.58934(6)
C1_6 C 0.8372(2) 0.2076(2) 0.3978(3)
C2_6 C 0.8019(2) 0.1995(3) 0.4507(3)
H1_6 H 0.8110 0.2109 0.4956
C3_6 C 0.7521(2) 0.1740(2) 0.4387(3)
H2_6 H 0.7277 0.1692 0.4755
C4_6 C 0.7386(2) 0.15624(19) 0.3739(2)
C5_6 C 0.6870(2) 0.1260(2) 0.3610(3)
C6_6 C 0.7737(2) 0.1660(3) 0.3200(3)
H3_6 H 0.7645 0.1550 0.2749
C7_6 C 0.8226(2) 0.1921(2) 0.3324(3)
H4_6 H 0.8461 0.1992 0.2952
C8_6 C 0.8975(2) 0.30968(19) 0.4069(3)
C9_6 C 0.9300(2) 0.3425(2) 0.4452(3)
H5_6 H 0.9532 0.3270 0.4784
C10_6 C 0.9296(2) 0.3989(2) 0.4363(3)
H6_6 H 0.9528 0.4210 0.4628
C11_6 C 0.8949(2) 0.42218(19) 0.3882(2)
C12_6 C 0.8949(2) 0.4819(2) 0.3755(3)
C13_6 C 0.8617(2) 0.3887(2) 0.3491(3)
H7_6 H 0.8384 0.4040 0.3159
C14_6 C 0.8626(2) 0.3331(2) 0.3587(3)
H8_6 H 0.8395 0.3108 0.3324
C15_6 C 0.9459(2) 0.2142(2) 0.3477(3)
C16_6 C 0.9653(2) 0.1612(2) 0.3527(3)
H9_6 H 0.9577 0.1406 0.3925
C17_6 C 0.9957(2) 0.13815(19) 0.2995(3)
C20_6 C 0.9890(3) 0.2219(3) 0.2372(4)
H11_6 H 0.9975 0.2429 0.1981
C21_6 C 0.9585(3) 0.2439(2) 0.2886(4)
H12_6 H 0.9456 0.2797 0.2842
C22_6 C 0.60448(19) 0.18982(17) 0.5978(2)
C23_6 C 0.6348(2) 0.21288(19) 0.6504(3)
H13_6 H 0.6541 0.1904 0.6810
C24_6 C 0.6370(2) 0.26830(19) 0.6585(3)
H14_6 H 0.6570 0.2834 0.6950
C25_6 C 0.6093(2) 0.30233(18) 0.6122(2)
C26_6 C 0.6109(2) 0.3627(2) 0.6226(3)
C27_6 C 0.5804(2) 0.27993(19) 0.5589(2)
H15_6 H 0.5628 0.3027 0.5269
C28_6 C 0.5769(2) 0.22409(19) 0.5517(2)
H16_6 H 0.5560 0.2091 0.5159
C29_6 C 0.65921(19) 0.08599(18) 0.6062(2)
C30_6 C 0.6776(2) 0.0781(2) 0.6731(3)
H17_6 H 0.6568 0.0903 0.7108
C31_6 C 0.7268(2) 0.0520(2) 0.6847(3)
H18_6 H 0.7389 0.0466 0.7303
C32_6 C 0.7578(2) 0.0342(2) 0.6303(3)
C33_6 C 0.8098(2) 0.0043(2) 0.6436(3)
C34_6 C 0.7399(2) 0.0430(3) 0.5638(3)
H19_6 H 0.7609 0.0313 0.5261
C35_6 C 0.6909(2) 0.0692(3) 0.5523(3)
H20_6 H 0.6793 0.0754 0.5066
C36_6 C 0.55292(19) 0.09523(19) 0.6576(2)
C37_6 C 0.5334(2) 0.1274(2) 0.7105(3)
H21_6 H 0.5413 0.1648 0.7111
C38_6 C 0.5022(3) 0.1051(2) 0.7626(3)
H22_6 H 0.4899 0.1274 0.7988
C39_6 C 0.48885(19) 0.05092(19) 0.7625(2)
C40_6 C 0.45778(18) 0.02646(19) 0.8199(2)
C41_6 C 0.5077(2) 0.0186(2) 0.7102(3)
C42_6 C 0.5390(2) 0.0404(2) 0.6583(3)
H24_6 H 0.5514 0.0177 0.6225
C43_6 C 0.6386(3) 0.4901(4) 0.4501(3)
H25_6 H 0.6658 0.4749 0.4781
C44_6 C 0.6144(6) 0.5273(6) 0.3437(5)
H26_6 H 0.5806 0.5326 0.3682
H27_6 H 0.6091 0.5011 0.3067
H28_6 H 0.6264 0.5615 0.3242
C45_6 C 0.7144(5) 0.5007(6) 0.3663(5)
H29_6 H 0.7369 0.5269 0.3905
H30_6 H 0.7172 0.5067 0.3168
H31_6 H 0.7266 0.4642 0.3771
N1_6 N 0.6538(3) 0.5077(3) 0.3897(3)
O1_6 O 0.65302(13) 0.12510(14) 0.40933(17)
O2_6 O 0.68250(14) 0.10307(15) 0.30380(17)
O7_6 O 0.92294(15) 0.22116(15) 0.48612(17)
O9_6 O 0.59797(15) 0.39246(13) 0.57330(17)
O12_4 O 0.45393(14) 0.04981(14) 0.87744(16)
O14_6 O 0.57364(13) 0.10312(13) 0.52067(15)
O15_6 O 0.50271(15) 0.45071(14) 0.55531(17)
O16_4 O 0.4923(3) 0.0713(3) 0.4257(3)
O17_6 O 0.59262(15) 0.49108(15) 0.47480(17)
O25_4 O 0.54607(14) 0.54981(14) 0.62256(16)
H32_4 H 0.477095 0.0870966 0.468145
H33_4 H 0.488871 0.0315511 0.427388
H34_6 H 0.502317 0.432782 0.509898
H35_6 H 0.479879 0.483375 0.55369
H23_6 H 0.4992 0.9814 0.7097
C44_7 C 0.3856(6) 0.0273(6) 0.1563(5)
H26_7 H 0.4194 0.0326 0.1318
H27_7 H 0.3909 0.0011 0.1933
H28_7 H 0.3736 0.0615 0.1758
C45_7 C 0.2856(5) 0.0007(6) 0.1337(5)
H29_7 H 0.2631 0.0269 0.1095
H30_7 H 0.2828 0.0067 0.1832
N1_7 N 0.3462(3) 0.0077(3) 0.1103(3)
P1_7 P 0.09704(5) 0.73733(5) 0.08323(8)
C1_7 C 0.1628(2) 0.7076(2) 0.1022(3)
C2_7 C 0.1981(2) 0.6995(3) 0.0493(3)
H1_7 H 0.1890 0.7109 0.0044
C3_7 C 0.2479(2) 0.6740(2) 0.0613(3)
H2_7 H 0.2723 0.6692 0.0245
C4_7 C 0.2614(2) 0.65624(19) 0.1261(2)
C5_7 C 0.3130(2) 0.6260(2) 0.1390(3)
C6_7 C 0.2263(2) 0.6660(3) 0.1800(3)
H3_7 H 0.2355 0.6550 0.2251
C7_7 C 0.1774(2) 0.6921(2) 0.1676(3)
H4_7 H 0.1539 0.6992 0.2048
C8_7 C 0.1025(2) 0.80968(19) 0.0931(3)
C9_7 C 0.0700(2) 0.8425(2) 0.0548(3)
H5_7 H 0.0468 0.8270 0.0216
C10_7 C 0.0704(2) 0.8989(2) 0.0637(3)
H6_7 H 0.0472 0.9210 0.0372
C11_7 C 0.1051(2) 0.92218(19) 0.1118(2)
C12_7 C 0.1051(2) 0.9819(2) 0.1245(3)
C13_7 C 0.1383(2) 0.8887(2) 0.1509(3)
H7_7 H 0.1616 0.9040 0.1841
C14_7 C 0.1374(2) 0.8331(2) 0.1413(3)
H8_7 H 0.1605 0.8108 0.1676
C15_7 C 0.0541(2) 0.7142(2) 0.1523(3)
C16_7 C 0.0347(2) 0.6612(2) 0.1473(3)
H9_7 H 0.0423 0.6406 0.1075
C17_7 C 0.0043(2) 0.63815(19) 0.2005(3)
C20_7 C 0.0110(3) 0.7219(3) 0.2628(4)
H11_7 H 0.0025 0.7429 0.3019
C21_7 C 0.0415(3) 0.7439(2) 0.2114(4)
H12_7 H 0.0544 0.7797 0.2158
C43_7 C 0.3614(3) 0.9901(4) 0.0499(3)
H25_7 H 0.3342 0.9749 0.0219
H31_7 H 0.2734 0.9642 0.1229
O1_7 O 0.34698(13) 0.62510(14) 0.09067(17)
O2_7 O 0.31750(14) 0.60307(15) 0.19620(17)
O7_7 O 0.07706(15) 0.72116(15) 0.01388(17)
O16_5 O 0.5077(3) 0.5713(3) 0.0743(3)
O17_7 O 0.40738(15) 0.99108(15) 0.02520(17)
O23_4 O 0.31572(14) 0.51503(15) 0.29696(17)
H32_5 H 0.522905 0.587097 0.0318551
H33_5 H 0.511129 0.531551 0.0726119
P2_7 P 0.40410(5) 0.61814(5) 0.91066(6)
C22_7 C 0.39552(19) 0.68982(17) 0.9022(2)
C23_7 C 0.3652(2) 0.71288(19) 0.8496(3)
H13_7 H 0.3459 0.6904 0.8190
C24_7 C 0.3630(2) 0.76830(19) 0.8415(3)
H14_7 H 0.3430 0.7834 0.8050
C25_7 C 0.3907(2) 0.80233(18) 0.8878(2)
C26_7 C 0.3891(2) 0.8627(2) 0.8774(3)
C27_7 C 0.4196(2) 0.77993(19) 0.9411(2)
H15_7 H 0.4372 0.8027 0.9731
C28_7 C 0.4231(2) 0.72409(19) 0.9483(2)
H16_7 H 0.4440 0.7091 0.9841
C29_7 C 0.34079(19) 0.58599(18) 0.8938(2)
C30_7 C 0.3224(2) 0.5781(2) 0.8269(3)
H17_7 H 0.3432 0.5903 0.7892
C31_7 C 0.2732(2) 0.5520(2) 0.8153(3)
H18_7 H 0.2611 0.5466 0.7697
C32_7 C 0.2422(2) 0.5342(2) 0.8697(3)
C33_7 C 0.1902(2) 0.5043(2) 0.8564(3)
C34_7 C 0.2601(2) 0.5430(3) 0.9362(3)
H19_7 H 0.2391 0.5313 0.9739
C35_7 C 0.3091(2) 0.5692(3) 0.9477(3)
H20_7 H 0.3207 0.5754 0.9934
C36_7 C 0.44708(19) 0.59523(19) 0.8424(2)
C37_7 C 0.4666(2) 0.6274(2) 0.7895(3)
H21_7 H 0.4587 0.6648 0.7889
C38_7 C 0.4978(3) 0.6051(2) 0.7374(3)
H22_7 H 0.5101 0.6274 0.7012
C39_7 C 0.51115(19) 0.55092(19) 0.7375(2)
C40_7 C 0.54222(18) 0.52646(19) 0.6801(2)
C41_7 C 0.4923(2) 0.5186(2) 0.7898(3)
H23_7 H 0.5008 0.4814 0.7903
C42_7 C 0.4610(2) 0.5404(2) 0.8417(3)
H24_7 H 0.4486 0.5177 0.8775
O9_7 O 0.40203(15) 0.89246(13) 0.92670(17)
O10_4 O 0.18428(14) 0.48497(15) 0.79696(17)
O14_7 O 0.42636(13) 0.60312(13) 0.97933(15)
O15_7 O 0.49729(15) 0.95071(14) 0.94469(17)
H34_7 H 0.497683 0.932782 0.990102
H35_7 H 0.520121 0.983375 0.94631
H10_7 H 0.9920 0.6021 0.1971
C18_7 C 0.9923(2) 0.6690(2) 0.2585(3)
C19_7 C 0.9629(2) 0.6437(2) 0.3167(3)
P1_8 P 0.40296(5) 0.26267(5) 0.58323(8)
P2_8 P 0.09590(5) 0.38186(5) 0.41066(6)
C1_8 C 0.3372(2) 0.2924(2) 0.6022(3)
C2_8 C 0.3019(2) 0.3005(3) 0.5493(3)
H1_8 H 0.3110 0.2891 0.5044
C3_8 C 0.2521(2) 0.3260(2) 0.5613(3)
H2_8 H 0.2277 0.3308 0.5245
C4_8 C 0.2386(2) 0.34376(19) 0.6261(2)
C5_8 C 0.1870(2) 0.3740(2) 0.6390(3)
C6_8 C 0.2737(2) 0.3340(3) 0.6800(3)
H3_8 H 0.2645 0.3450 0.7251
C7_8 C 0.3226(2) 0.3079(2) 0.6676(3)
H4_8 H 0.3461 0.3008 0.7048
C8_8 C 0.3975(2) 0.19032(19) 0.5931(3)
C9_8 C 0.4300(2) 0.1575(2) 0.5548(3)
H5_8 H 0.4532 0.1730 0.5216
C10_8 C 0.4296(2) 0.1011(2) 0.5637(3)
H6_8 H 0.4528 0.0790 0.5372
C11_8 C 0.3949(2) 0.07782(19) 0.6118(2)
C12_8 C 0.3949(2) 0.0181(2) 0.6245(3)
C13_8 C 0.3617(2) 0.1113(2) 0.6509(3)
H7_8 H 0.3384 0.0960 0.6841
C14_8 C 0.3626(2) 0.1669(2) 0.6413(3)
H8_8 H 0.3395 0.1892 0.6676
C15_8 C 0.4459(2) 0.2858(2) 0.6523(3)
C16_8 C 0.4653(2) 0.3388(2) 0.6473(3)
H9_8 H 0.4577 0.3594 0.6075
C17_8 C 0.4957(2) 0.36185(19) 0.7005(3)
H10_8 H 0.5080 0.3979 0.6971
C18_8 C 0.5077(2) 0.3310(2) 0.7585(3)
C19_8 C 0.5371(2) 0.3563(2) 0.8167(3)
C20_8 C 0.4890(3) 0.2781(3) 0.7628(4)
H11_8 H 0.4975 0.2571 0.8019
C21_8 C 0.4585(3) 0.2561(2) 0.7114(4)
H12_8 H 0.4456 0.2203 0.7158
C22_8 C 0.10448(19) 0.31018(17) 0.4022(2)
C23_8 C 0.1348(2) 0.28712(19) 0.3496(3)
H13_8 H 0.1541 0.3096 0.3190
C24_8 C 0.1370(2) 0.23170(19) 0.3415(3)
H14_8 H 0.1570 0.2166 0.3050
C25_8 C 0.1093(2) 0.19767(18) 0.3878(2)
C26_8 C 0.1109(2) 0.1373(2) 0.3774(3)
C27_8 C 0.0804(2) 0.22007(19) 0.4411(2)
H15_8 H 0.0628 0.1973 0.4731
C28_8 C 0.0769(2) 0.27591(19) 0.4483(2)
H16_8 H 0.0560 0.2909 0.4841
C29_8 C 0.15921(19) 0.41401(18) 0.3938(2)
C30_8 C 0.1776(2) 0.4219(2) 0.3269(3)
H17_8 H 0.1568 0.4097 0.2892
C31_8 C 0.2268(2) 0.4480(2) 0.3153(3)
H18_8 H 0.2389 0.4534 0.2697
C32_8 C 0.2578(2) 0.4658(2) 0.3697(3)
C33_8 C 0.3098(2) 0.4957(2) 0.3564(3)
C34_8 C 0.2399(2) 0.4570(3) 0.4362(3)
H19_8 H 0.2609 0.4687 0.4739
C35_8 C 0.1909(2) 0.4308(3) 0.4477(3)
H20_8 H 0.1793 0.4246 0.4934
C36_8 C 0.05292(19) 0.40477(19) 0.3424(2)
C37_8 C 0.0334(2) 0.3726(2) 0.2895(3)
H21_8 H 0.0413 0.3352 0.2889
C38_8 C 0.0022(3) 0.3949(2) 0.2374(3)
C41_8 C 0.0077(2) 0.4814(2) 0.2898(3)
C42_8 C 0.0390(2) 0.4596(2) 0.3417(3)
H24_8 H 0.0514 0.4823 0.3775
C43_8 C 0.1386(3) 0.0099(4) 0.5499(3)
H25_8 H 0.1658 0.0251 0.5219
H31_8 H 0.2266 0.0358 0.6229
O1_8 O 0.15302(13) 0.37490(14) 0.59067(17)
O2_8 O 0.18250(14) 0.39693(15) 0.69620(17)
O7_8 O 0.42294(15) 0.27884(15) 0.51388(17)
O9_8 O 0.09797(15) 0.10754(13) 0.42670(17)
O14_8 O 0.07364(13) 0.39688(13) 0.47933(15)
O15_8 O 0.00271(15) 0.04929(14) 0.44469(17)
O17_8 O 0.09262(15) 0.00892(15) 0.52520(17)
H34_8 H 0.00231671 0.0672176 0.490102
C44_8 C 0.1144(6) 0.9727(6) 0.6563(5)
H26_8 H 0.0806 0.9674 0.6318
H27_8 H 0.1091 0.9989 0.6933
H28_8 H 0.1264 0.9385 0.6758
C45_8 C 0.2144(5) 0.9993(6) 0.6337(5)
H29_8 H 0.2369 0.9731 0.6095
H30_8 H 0.2172 0.9933 0.6832
N1_8 N 0.1538(3) 0.9923(3) 0.6103(3)
H22_8 H 0.9899 0.3726 0.2012
C39_8 C 0.98885(19) 0.44908(19) 0.2375(2)
C40_8 C 0.95778(18) 0.47354(19) 0.1801(2)
H23_8 H 0.9992 0.5186 0.2903
O16_6 O 0.9923(3) 0.4287(3) 0.5743(3)
H32_6 H 0.977095 0.412903 0.531855
H33_6 H 0.988871 0.468449 0.572612
H35_8 H 0.979879 0.016625 0.44631
O16_7 O 0.9923(3) 0.0713(3) 0.0743(3)
H32_7 H 0.977095 0.0870966 0.0318551
H33_7 H 0.988871 0.0315511 0.0726119
O16_8 O 0.0077(3) 0.9287(3) 0.9257(3)
H32_8 H 0.0229052 0.912903 0.968145
H33_8 H 0.0111292 0.968449 0.927388
loop_
_geom_bond_atom_site_label_1
_geom_bond_atom_site_label_2
_geom_bond_site_symmetry_1
_geom_bond_site_symmetry_2
Co1 O1 1_555 1_555
Co2 O2 1_555 1_555
P1 C1 1_555 1_555
C1 C2 1_555 1_555
C2 H1 1_555 1_555
C3 C2 1_555 1_555
H2 C3 1_555 1_555
C4 C3 1_555 1_555
C5 C4 1_555 1_555
C6 C4 1_555 1_555
H3 C6 1_555 1_555
C7 C1 1_555 1_555
H4 C7 1_555 1_555
C8 P1 1_555 1_555
C9 C8 1_555 1_555
H5 C9 1_555 1_555
C10 C9 1_555 1_555
H6 C10 1_555 1_555
C11 C10 1_555 1_555
C12 C11 1_555 1_555
C13 C11 1_555 1_555
H7 C13 1_555 1_555
C14 C8 1_555 1_555
H8 C14 1_555 1_555
C15 P1 1_555 1_555
C16 C15 1_555 1_555
H9 C16 1_555 1_555
C17 C16 1_555 1_555
H10 C17 1_555 1_555
C18 C17 1_555 1_555
C19 C18 1_555 1_555
C20 C18 1_555 1_555
H11 C20 1_555 1_555
C21 C15 1_555 1_555
H12 C21 1_555 1_555
C43 H25 1_555 1_555
C44 H26 1_555 1_555
H27 C44 1_555 1_555
H28 C44 1_555 1_555
C45 H29 1_555 1_555
H30 C45 1_555 1_555
H31 C45 1_555 1_555
N1 C43 1_555 1_555
O1 C5 1_555 1_555
O2 C5 1_555 1_555
O3 C12 1_555 1_555
O4 C12 1_555 1_555
O5 C19 1_555 1_555
O6 C19 1_555 1_555
O7 P1 1_555 1_555
Co4 O3 1_555 1_555
Co5 O5 1_555 1_555
Co6 O4 1_555 1_555
Co7 O5 1_555 1_555
O18 Co1 1_555 1_555
O20 Co1 1_555 1_555
O21 Co1 1_555 1_555
O22 Co2 1_555 1_555
O23 Co2 1_555 1_555
O26 Co2 1_555 1_555
Co2 O20 1_555 1_555
C6 C7 1_555 1_555
C13 C14 1_555 1_555
C20 C21 1_555 1_555
C43 O17 1_555 1_555
C44 N1 1_555 1_555
C45 N1 1_555 1_555
O6 Co5 1_555 1_555
Co3 O9 1_555 1_555
P2 C22 1_555 1_555
C22 C23 1_555 1_555
C23 H13 1_555 1_555
C24 C23 1_555 1_555
H14 C24 1_555 1_555
C25 C24 1_555 1_555
C26 C25 1_555 1_555
C27 C25 1_555 1_555
H15 C27 1_555 1_555
C28 C22 1_555 1_555
H16 C28 1_555 1_555
C29 P2 1_555 1_555
C30 C29 1_555 1_555
H17 C30 1_555 1_555
C31 C30 1_555 1_555
H18 C31 1_555 1_555
C32 C31 1_555 1_555
C33 C32 1_555 1_555
C34 C32 1_555 1_555
H19 C34 1_555 1_555
C35 C29 1_555 1_555
H20 C35 1_555 1_555
C36 P2 1_555 1_555
C37 C36 1_555 1_555
H21 C37 1_555 1_555
C38 C37 1_555 1_555
C42 C36 1_555 1_555
H24 C42 1_555 1_555
O8 C26 1_555 1_555
O9 C26 1_555 1_555
O11 C33 1_555 1_555
O15 Co3 1_555 1_555
Co8 O8 1_555 1_555
O24 Co3 1_555 1_555
O25 Co3 1_555 1_555
O27 Co3 1_555 1_555
P2 O14 1_555 1_555
C27 C28 1_555 1_555
C34 C35 1_555 1_555
C41 C42 1_555 1_555
Co8 O27 1_555 1_555
O15 H34 1_555 1_555
Co9 O10 1_555 1_555
C40 C39 1_555 1_555
O12 C40 1_555 1_555
Co10 O13 1_555 1_555
O13 Co12 1_555 1_555
Co7 O13_2 1_555 1_555
O13_2 Co12_2 1_555 1_555
Co1_2 O1_2 1_555 1_555
Co9 O2_2 1_555 1_555
Co3_2 O9_2 1_555 1_555
P1_2 C1_2 1_555 1_555
P2_2 C22_2 1_555 1_555
C1_2 C2_2 1_555 1_555
C2_2 H1_2 1_555 1_555
C3_2 C2_2 1_555 1_555
H2_2 C3_2 1_555 1_555
C4_2 C3_2 1_555 1_555
C5_2 C4_2 1_555 1_555
C6_2 C4_2 1_555 1_555
H3_2 C6_2 1_555 1_555
C7_2 C1_2 1_555 1_555
H4_2 C7_2 1_555 1_555
C8_2 P1_2 1_555 1_555
C9_2 C8_2 1_555 1_555
H5_2 C9_2 1_555 1_555
C10_2 C9_2 1_555 1_555
H6_2 C10_2 1_555 1_555
C11_2 C10_2 1_555 1_555
C12_2 C11_2 1_555 1_555
C13_2 C11_2 1_555 1_555
H7_2 C13_2 1_555 1_555
C14_2 C8_2 1_555 1_555
H8_2 C14_2 1_555 1_555
C15_2 P1_2 1_555 1_555
C16_2 C15_2 1_555 1_555
H9_2 C16_2 1_555 1_555
C17_2 C16_2 1_555 1_555
H11_2 C20_2 1_555 1_555
C21_2 C15_2 1_555 1_555
H12_2 C21_2 1_555 1_555
C22_2 C23_2 1_555 1_555
C23_2 H13_2 1_555 1_555
C24_2 C23_2 1_555 1_555
H14_2 C24_2 1_555 1_555
C25_2 C24_2 1_555 1_555
C26_2 C25_2 1_555 1_555
C27_2 C25_2 1_555 1_555
H15_2 C27_2 1_555 1_555
C28_2 C22_2 1_555 1_555
H16_2 C28_2 1_555 1_555
C29_2 P2_2 1_555 1_555
C30_2 C29_2 1_555 1_555
H17_2 C30_2 1_555 1_555
C31_2 C30_2 1_555 1_555
H18_2 C31_2 1_555 1_555
C32_2 C31_2 1_555 1_555
C33_2 C32_2 1_555 1_555
C34_2 C32_2 1_555 1_555
H19_2 C34_2 1_555 1_555
C35_2 C29_2 1_555 1_555
H20_2 C35_2 1_555 1_555
C36_2 P2_2 1_555 1_555
C37_2 C36_2 1_555 1_555
H21_2 C37_2 1_555 1_555
C38_2 C37_2 1_555 1_555
H22_2 C38_2 1_555 1_555
C39_2 C38_2 1_555 1_555
C40_2 C39_2 1_555 1_555
C41_2 C39_2 1_555 1_555
C42_2 C36_2 1_555 1_555
H24_2 C42_2 1_555 1_555
C43_2 H25_2 1_555 1_555
C44_2 H26_2 1_555 1_555
H27_2 C44_2 1_555 1_555
H28_2 C44_2 1_555 1_555
C45_2 H29_2 1_555 1_555
H30_2 C45_2 1_555 1_555
H31_2 C45_2 1_555 1_555
N1_2 C43_2 1_555 1_555
O1_2 C5_2 1_555 1_555
O2_2 C5_2 1_555 1_555
O3_2 C12_2 1_555 1_555
O4_2 C12_2 1_555 1_555
O7_2 P1_2 1_555 1_555
O8_2 C26_2 1_555 1_555
O9_2 C26_2 1_555 1_555
O11_2 C33_2 1_555 1_555
O12_2 C40_2 1_555 1_555
O14_2 Co1_2 1_555 1_555
O15_2 Co3_2 1_555 1_555
O16 Co1_2 1_555 1_555
O17_2 Co3_2 1_555 1_555
Co4_2 O3_2 1_555 1_555
Co8 O4_2 1_555 1_555
Co6 O8_2 1_555 1_555
O18_2 Co1_2 1_555 1_555
O20_2 Co1_2 1_555 1_555
O21_2 Co1_2 1_555 1_555
O22_2 Co9 1_555 1_555
O24_2 Co3_2 1_555 1_555
O25_2 Co3_2 1_555 1_555
O26_2 Co9 1_555 1_555
O27_2 Co3_2 1_555 1_555
Co9 O20_2 1_555 1_555
P2_2 O14_2 1_555 1_555
C6_2 C7_2 1_555 1_555
C13_2 C14_2 1_555 1_555
C20_2 C21_2 1_555 1_555
C27_2 C28_2 1_555 1_555
C34_2 C35_2 1_555 1_555
C41_2 C42_2 1_555 1_555
C43_2 O17_2 1_555 1_555
C44_2 N1_2 1_555 1_555
C45_2 N1_2 1_555 1_555
Co6 O27_2 1_555 1_555
O16 H32 1_555 1_555
O16 H33 1_555 1_555
O15_2 H34_2 1_555 1_555
O15_2 H35_2 1_555 1_555
C19_2 C18_2 1_555 1_555
O5_2 C19_2 1_555 1_555
O6_2 C19_2 1_555 1_555
Co5_2 O5_2 1_555 1_555
Co10 O5_2 1_555 1_555
O6_2 Co5_2 1_555 1_555
C19_3 C18_3 1_555 1_555
O5_3 C19_3 1_555 1_555
O6_3 C19_3 1_555 1_555
Co4_2 O5_3 1_555 1_555
Co8 O5_3 1_555 1_555
O6_3 Co4_2 1_555 1_555
Co12_2 O9_3 1_555 1_555
P2_3 C22_3 1_555 1_555
C22_3 C23_3 1_555 1_555
C23_3 H13_3 1_555 1_555
C24_3 C23_3 1_555 1_555
H14_3 C24_3 1_555 1_555
C25_3 C24_3 1_555 1_555
C26_3 C25_3 1_555 1_555
C27_3 C25_3 1_555 1_555
H15_3 C27_3 1_555 1_555
C28_3 C22_3 1_555 1_555
H16_3 C28_3 1_555 1_555
C29_3 P2_3 1_555 1_555
C30_3 C29_3 1_555 1_555
H17_3 C30_3 1_555 1_555
C31_3 C30_3 1_555 1_555
H18_3 C31_3 1_555 1_555
C32_3 C31_3 1_555 1_555
C33_3 C32_3 1_555 1_555
C34_3 C32_3 1_555 1_555
H19_3 C34_3 1_555 1_555
C35_3 C29_3 1_555 1_555
H20_3 C35_3 1_555 1_555
C36_3 P2_3 1_555 1_555
C37_3 C36_3 1_555 1_555
H21_3 C37_3 1_555 1_555
C38_3 C37_3 1_555 1_555
H22_3 C38_3 1_555 1_555
C39_3 C38_3 1_555 1_555
C40_3 C39_3 1_555 1_555
C41_3 C39_3 1_555 1_555
H23_3 C41_3 1_555 1_555
C42_3 C36_3 1_555 1_555
H24_3 C42_3 1_555 1_555
O8_3 C26_3 1_555 1_555
O9_3 C26_3 1_555 1_555
O10_2 C33_3 1_555 1_555
O11_3 C33_3 1_555 1_555
O25_2 C40_3 1_555 1_555
O27_2 C40_3 1_555 1_555
O15_3 Co12_2 1_555 1_555
Co7 O8_3 1_555 1_555
Co9_2 O10_2 1_555 1_555
Co11_3 O11_3 1_555 1_555
P2_3 O14_3 1_555 1_555
C27_3 C28_3 1_555 1_555
C34_3 C35_3 1_555 1_555
C41_3 C42_3 1_555 1_555
O15_3 H34_3 1_555 1_555
O15_3 H35_3 1_555 1_555
Co1_3 O1_3 1_555 1_555
Co2_2 O2_3 1_555 1_555
P1_3 C1_3 1_555 1_555
C1_3 C2_3 1_555 1_555
C2_3 H1_3 1_555 1_555
C3_3 C2_3 1_555 1_555
H2_3 C3_3 1_555 1_555
C4_3 C3_3 1_555 1_555
C5_3 C4_3 1_555 1_555
C6_3 C4_3 1_555 1_555
H3_3 C6_3 1_555 1_555
C7_3 C1_3 1_555 1_555
H4_3 C7_3 1_555 1_555
C8_3 P1_3 1_555 1_555
C9_3 C8_3 1_555 1_555
H5_3 C9_3 1_555 1_555
C10_3 C9_3 1_555 1_555
H6_3 C10_3 1_555 1_555
C11_3 C10_3 1_555 1_555
C12_3 C11_3 1_555 1_555
C13_3 C11_3 1_555 1_555
H7_3 C13_3 1_555 1_555
C14_3 C8_3 1_555 1_555
H8_3 C14_3 1_555 1_555
C15_3 P1_3 1_555 1_555
C16_3 C15_3 1_555 1_555
H9_3 C16_3 1_555 1_555
C17_3 C16_3 1_555 1_555
H11_3 C20_3 1_555 1_555
C21_3 C15_3 1_555 1_555
H12_3 C21_3 1_555 1_555
C43_3 H25_3 1_555 1_555
O1_3 C5_3 1_555 1_555
O2_3 C5_3 1_555 1_555
O4_3 C12_3 1_555 1_555
O7_3 P1_3 1_555 1_555
O16_2 Co1_3 1_555 1_555
O18_3 Co1_3 1_555 1_555
O19_3 Co2_2 1_555 1_555
O20_3 Co1_3 1_555 1_555
O21_3 Co1_3 1_555 1_555
O22_3 Co2_2 1_555 1_555
O23_2 Co2_2 1_555 1_555
O26_3 Co2_2 1_555 1_555
Co2_2 O20_3 1_555 1_555
C6_3 C7_3 1_555 1_555
C13_3 C14_3 1_555 1_555
C20_3 C21_3 1_555 1_555
C43_3 O17_3 1_555 1_555
O16_2 H32_2 1_555 1_555
O16_2 H33_2 1_555 1_555
C44_3 H26_3 1_555 1_555
H27_3 C44_3 1_555 1_555
H28_3 C44_3 1_555 1_555
C45_3 H29_3 1_555 1_555
H30_3 C45_3 1_555 1_555
Co5_2 O3_3 1_555 1_555
C44_3 N1_3 1_555 1_555
C45_3 N1_3 1_555 1_555
C40_4 C39_4 1_555 1_555
O25 C40_4 1_555 1_555
O27 C40_4 1_555 1_555
O16_3 H32_3 1_555 1_555
O16_3 H33_3 1_555 1_555
C44_4 H26_4 1_555 1_555
H27_4 C44_4 1_555 1_555
H28_4 C44_4 1_555 1_555
C45_4 H29_4 1_555 1_555
H30_4 C45_4 1_555 1_555
Co5 O3_4 1_555 1_555
C44_4 N1_4 1_555 1_555
C45_4 N1_4 1_555 1_555
Co1_4 O1_4 1_555 1_555
Co9_2 O2_4 1_555 1_555
Co12 O9_4 1_555 1_555
P1_4 C1_4 1_555 1_555
P2_4 C22_4 1_555 1_555
C1_4 C2_4 1_555 1_555
C2_4 H1_4 1_555 1_555
C3_4 C2_4 1_555 1_555
H2_4 C3_4 1_555 1_555
C4_4 C3_4 1_555 1_555
C5_4 C4_4 1_555 1_555
C6_4 C4_4 1_555 1_555
H3_4 C6_4 1_555 1_555
C7_4 C1_4 1_555 1_555
H4_4 C7_4 1_555 1_555
C8_4 P1_4 1_555 1_555
C9_4 C8_4 1_555 1_555
H5_4 C9_4 1_555 1_555
C10_4 C9_4 1_555 1_555
H6_4 C10_4 1_555 1_555
C11_4 C10_4 1_555 1_555
C12_4 C11_4 1_555 1_555
C13_4 C11_4 1_555 1_555
H7_4 C13_4 1_555 1_555
C14_4 C8_4 1_555 1_555
H8_4 C14_4 1_555 1_555
C15_4 P1_4 1_555 1_555
C16_4 C15_4 1_555 1_555
H9_4 C16_4 1_555 1_555
C17_4 C16_4 1_555 1_555
H10_4 C17_4 1_555 1_555
C18_4 C17_4 1_555 1_555
C19_4 C18_4 1_555 1_555
C20_4 C18_4 1_555 1_555
H11_4 C20_4 1_555 1_555
C21_4 C15_4 1_555 1_555
H12_4 C21_4 1_555 1_555
C22_4 C23_4 1_555 1_555
C23_4 H13_4 1_555 1_555
C24_4 C23_4 1_555 1_555
H14_4 C24_4 1_555 1_555
C25_4 C24_4 1_555 1_555
C26_4 C25_4 1_555 1_555
C27_4 C25_4 1_555 1_555
H15_4 C27_4 1_555 1_555
C28_4 C22_4 1_555 1_555
H16_4 C28_4 1_555 1_555
C29_4 P2_4 1_555 1_555
C30_4 C29_4 1_555 1_555
H17_4 C30_4 1_555 1_555
C31_4 C30_4 1_555 1_555
H18_4 C31_4 1_555 1_555
C32_4 C31_4 1_555 1_555
C33_4 C32_4 1_555 1_555
C34_4 C32_4 1_555 1_555
H19_4 C34_4 1_555 1_555
C35_4 C29_4 1_555 1_555
H20_4 C35_4 1_555 1_555
C36_4 P2_4 1_555 1_555
C37_4 C36_4 1_555 1_555
H21_4 C37_4 1_555 1_555
C38_4 C37_4 1_555 1_555
C42_4 C36_4 1_555 1_555
H24_4 C42_4 1_555 1_555
C43_4 H25_4 1_555 1_555
O1_4 C5_4 1_555 1_555
O2_4 C5_4 1_555 1_555
O4_4 C12_4 1_555 1_555
O5_4 C19_4 1_555 1_555
O6_4 C19_4 1_555 1_555
O7_4 P1_4 1_555 1_555
O8_4 C26_4 1_555 1_555
O9_4 C26_4 1_555 1_555
O23_2 C33_4 1_555 1_555
O11_4 C33_4 1_555 1_555
O14_4 Co1_4 1_555 1_555
O15_4 Co12 1_555 1_555
O17_4 Co12 1_555 1_555
Co4 O5_4 1_555 1_555
Co6 O5_4 1_555 1_555
Co10 O8_4 1_555 1_555
Co11_4 O11_4 1_555 1_555
O18_4 Co1_4 1_555 1_555
O19_4 Co9_2 1_555 1_555
O20_4 Co1_4 1_555 1_555
O21_4 Co1_4 1_555 1_555
O22_4 Co9_2 1_555 1_555
O26_4 Co9_2 1_555 1_555
Co9_2 O20_4 1_555 1_555
P2_4 O14_4 1_555 1_555
C6_4 C7_4 1_555 1_555
C13_4 C14_4 1_555 1_555
C20_4 C21_4 1_555 1_555
C27_4 C28_4 1_555 1_555
C34_4 C35_4 1_555 1_555
C41_4 C42_4 1_555 1_555
C43_4 O17_4 1_555 1_555
O6_4 Co4 1_555 1_555
O15_4 H34_4 1_555 1_555
O26 Co11_2 1_555 1_555
C40_5 C39_5 1_555 1_555
O12_3 C40_5 1_555 1_555
Co7 O10_3 1_555 1_555
Co11_3 O9_5 1_555 1_555
P2_5 C22_5 1_555 1_555
C22_5 C23_5 1_555 1_555
C23_5 H13_5 1_555 1_555
C24_5 C23_5 1_555 1_555
H14_5 C24_5 1_555 1_555
C25_5 C24_5 1_555 1_555
C26_5 C25_5 1_555 1_555
C27_5 C25_5 1_555 1_555
H15_5 C27_5 1_555 1_555
C28_5 C22_5 1_555 1_555
H16_5 C28_5 1_555 1_555
C29_5 P2_5 1_555 1_555
C30_5 C29_5 1_555 1_555
H17_5 C30_5 1_555 1_555
C31_5 C30_5 1_555 1_555
H18_5 C31_5 1_555 1_555
C32_5 C31_5 1_555 1_555
C33_5 C32_5 1_555 1_555
C34_5 C32_5 1_555 1_555
H19_5 C34_5 1_555 1_555
C35_5 C29_5 1_555 1_555
H20_5 C35_5 1_555 1_555
C36_5 P2_5 1_555 1_555
C37_5 C36_5 1_555 1_555
H21_5 C37_5 1_555 1_555
C38_5 C37_5 1_555 1_555
C42_5 C36_5 1_555 1_555
H24_5 C42_5 1_555 1_555
O22_4 C26_5 1_555 1_555
O9_5 C26_5 1_555 1_555
O24_3 C33_5 1_555 1_555
O15_5 Co11_3 1_555 1_555
O25_3 Co11_3 1_555 1_555
O26_4 Co11_3 1_555 1_555
P2_5 O14_5 1_555 1_555
C27_5 C28_5 1_555 1_555
C34_5 C35_5 1_555 1_555
C41_5 C42_5 1_555 1_555
O15_5 H34_5 1_555 1_555
Co5_2 O1_5 1_555 1_555
Co10 O2_5 1_555 1_555
P1_5 C1_5 1_555 1_555
C1_5 C2_5 1_555 1_555
C2_5 H1_5 1_555 1_555
C3_5 C2_5 1_555 1_555
H2_5 C3_5 1_555 1_555
C4_5 C3_5 1_555 1_555
C5_5 C4_5 1_555 1_555
C6_5 C4_5 1_555 1_555
H3_5 C6_5 1_555 1_555
C7_5 C1_5 1_555 1_555
H4_5 C7_5 1_555 1_555
C8_5 P1_5 1_555 1_555
C9_5 C8_5 1_555 1_555
H5_5 C9_5 1_555 1_555
C10_5 C9_5 1_555 1_555
H6_5 C10_5 1_555 1_555
C11_5 C10_5 1_555 1_555
C12_5 C11_5 1_555 1_555
C13_5 C11_5 1_555 1_555
H7_5 C13_5 1_555 1_555
C14_5 C8_5 1_555 1_555
H8_5 C14_5 1_555 1_555
C15_5 P1_5 1_555 1_555
C16_5 C15_5 1_555 1_555
H9_5 C16_5 1_555 1_555
C17_5 C16_5 1_555 1_555
H10_5 C17_5 1_555 1_555
C18_5 C17_5 1_555 1_555
C19_5 C18_5 1_555 1_555
C20_5 C18_5 1_555 1_555
H11_5 C20_5 1_555 1_555
C21_5 C15_5 1_555 1_555
H12_5 C21_5 1_555 1_555
C43_5 H25_5 1_555 1_555
C44_5 H26_5 1_555 1_555
H27_5 C44_5 1_555 1_555
H28_5 C44_5 1_555 1_555
C45_5 H29_5 1_555 1_555
H30_5 C45_5 1_555 1_555
H31_5 C45_5 1_555 1_555
N1_5 C43_5 1_555 1_555
O1_5 C5_5 1_555 1_555
O2_5 C5_5 1_555 1_555
O18_3 C12_5 1_555 1_555
O19_3 C12_5 1_555 1_555
O20_2 C19_5 1_555 1_555
O21_2 C19_5 1_555 1_555
O7_5 P1_5 1_555 1_555
O23_3 Co10 1_555 1_555
C6_5 C7_5 1_555 1_555
C13_5 C14_5 1_555 1_555
C20_5 C21_5 1_555 1_555
C43_5 O17_5 1_555 1_555
C44_5 N1_5 1_555 1_555
C45_5 N1_5 1_555 1_555
C19_6 C18_6 1_555 1_555
O20 C19_6 1_555 1_555
O21 C19_6 1_555 1_555
Co5 O1_6 1_555 1_555
Co7 O2_6 1_555 1_555
Co11_4 O9_6 1_555 1_555
P1_6 C1_6 1_555 1_555
P2_6 C22_6 1_555 1_555
C1_6 C2_6 1_555 1_555
C2_6 H1_6 1_555 1_555
C3_6 C2_6 1_555 1_555
H2_6 C3_6 1_555 1_555
C4_6 C3_6 1_555 1_555
C5_6 C4_6 1_555 1_555
C6_6 C4_6 1_555 1_555
H3_6 C6_6 1_555 1_555
C7_6 C1_6 1_555 1_555
H4_6 C7_6 1_555 1_555
C8_6 P1_6 1_555 1_555
C9_6 C8_6 1_555 1_555
H5_6 C9_6 1_555 1_555
C10_6 C9_6 1_555 1_555
H6_6 C10_6 1_555 1_555
C11_6 C10_6 1_555 1_555
C12_6 C11_6 1_555 1_555
C13_6 C11_6 1_555 1_555
H7_6 C13_6 1_555 1_555
C14_6 C8_6 1_555 1_555
H8_6 C14_6 1_555 1_555
C15_6 P1_6 1_555 1_555
C16_6 C15_6 1_555 1_555
H9_6 C16_6 1_555 1_555
C17_6 C16_6 1_555 1_555
H11_6 C20_6 1_555 1_555
C21_6 C15_6 1_555 1_555
H12_6 C21_6 1_555 1_555
C22_6 C23_6 1_555 1_555
C23_6 H13_6 1_555 1_555
C24_6 C23_6 1_555 1_555
H14_6 C24_6 1_555 1_555
C25_6 C24_6 1_555 1_555
C26_6 C25_6 1_555 1_555
C27_6 C25_6 1_555 1_555
H15_6 C27_6 1_555 1_555
C28_6 C22_6 1_555 1_555
H16_6 C28_6 1_555 1_555
C29_6 P2_6 1_555 1_555
C30_6 C29_6 1_555 1_555
H17_6 C30_6 1_555 1_555
C31_6 C30_6 1_555 1_555
H18_6 C31_6 1_555 1_555
C32_6 C31_6 1_555 1_555
C33_6 C32_6 1_555 1_555
C34_6 C32_6 1_555 1_555
H19_6 C34_6 1_555 1_555
C35_6 C29_6 1_555 1_555
H20_6 C35_6 1_555 1_555
C36_6 P2_6 1_555 1_555
C37_6 C36_6 1_555 1_555
H21_6 C37_6 1_555 1_555
C38_6 C37_6 1_555 1_555
H22_6 C38_6 1_555 1_555
C39_6 C38_6 1_555 1_555
C40_6 C39_6 1_555 1_555
C41_6 C39_6 1_555 1_555
C42_6 C36_6 1_555 1_555
H24_6 C42_6 1_555 1_555
C43_6 H25_6 1_555 1_555
C44_6 H26_6 1_555 1_555
H27_6 C44_6 1_555 1_555
H28_6 C44_6 1_555 1_555
C45_6 H29_6 1_555 1_555
H30_6 C45_6 1_555 1_555
H31_6 C45_6 1_555 1_555
N1_6 C43_6 1_555 1_555
O1_6 C5_6 1_555 1_555
O2_6 C5_6 1_555 1_555
O18_4 C12_6 1_555 1_555
O19_4 C12_6 1_555 1_555
O7_6 P1_6 1_555 1_555
O22_3 C26_6 1_555 1_555
O9_6 C26_6 1_555 1_555
O24_4 C33_6 1_555 1_555
O12_4 C40_6 1_555 1_555
O14_6 Co5 1_555 1_555
O15_6 Co11_4 1_555 1_555
O16_4 Co5 1_555 1_555
O17_6 Co11_4 1_555 1_555
O25_4 Co11_4 1_555 1_555
O26_3 Co11_4 1_555 1_555
P2_6 O14_6 1_555 1_555
C6_6 C7_6 1_555 1_555
C13_6 C14_6 1_555 1_555
C20_6 C21_6 1_555 1_555
C27_6 C28_6 1_555 1_555
C34_6 C35_6 1_555 1_555
C41_6 C42_6 1_555 1_555
C43_6 O17_6 1_555 1_555
C44_6 N1_6 1_555 1_555
C45_6 N1_6 1_555 1_555
O16_4 H32_4 1_555 1_555
O16_4 H33_4 1_555 1_555
O15_6 H34_6 1_555 1_555
O15_6 H35_6 1_555 1_555
O26_2 Co11 1_555 1_555
C44_7 H26_7 1_555 1_555
H27_7 C44_7 1_555 1_555
H28_7 C44_7 1_555 1_555
C45_7 H29_7 1_555 1_555
H30_7 C45_7 1_555 1_555
C44_7 N1_7 1_555 1_555
C45_7 N1_7 1_555 1_555
Co4 O1_7 1_555 1_555
Co6 O2_7 1_555 1_555
P1_7 C1_7 1_555 1_555
C1_7 C2_7 1_555 1_555
C2_7 H1_7 1_555 1_555
C3_7 C2_7 1_555 1_555
H2_7 C3_7 1_555 1_555
C4_7 C3_7 1_555 1_555
C5_7 C4_7 1_555 1_555
C6_7 C4_7 1_555 1_555
H3_7 C6_7 1_555 1_555
C7_7 C1_7 1_555 1_555
H4_7 C7_7 1_555 1_555
C8_7 P1_7 1_555 1_555
C9_7 C8_7 1_555 1_555
H5_7 C9_7 1_555 1_555
C10_7 C9_7 1_555 1_555
H6_7 C10_7 1_555 1_555
C11_7 C10_7 1_555 1_555
C12_7 C11_7 1_555 1_555
C13_7 C11_7 1_555 1_555
H7_7 C13_7 1_555 1_555
C14_7 C8_7 1_555 1_555
H8_7 C14_7 1_555 1_555
C15_7 P1_7 1_555 1_555
C16_7 C15_7 1_555 1_555
H9_7 C16_7 1_555 1_555
C17_7 C16_7 1_555 1_555
H11_7 C20_7 1_555 1_555
C21_7 C15_7 1_555 1_555
H12_7 C21_7 1_555 1_555
C43_7 H25_7 1_555 1_555
O1_7 C5_7 1_555 1_555
O2_7 C5_7 1_555 1_555
O19 C12_7 1_555 1_555
O7_7 P1_7 1_555 1_555
O16_5 Co4 1_555 1_555
O23_4 Co6 1_555 1_555
C6_7 C7_7 1_555 1_555
C13_7 C14_7 1_555 1_555
C20_7 C21_7 1_555 1_555
C43_7 O17_7 1_555 1_555
O16_5 H32_5 1_555 1_555
O16_5 H33_5 1_555 1_555
Co11 O9_7 1_555 1_555
P2_7 C22_7 1_555 1_555
C22_7 C23_7 1_555 1_555
C23_7 H13_7 1_555 1_555
C24_7 C23_7 1_555 1_555
H14_7 C24_7 1_555 1_555
C25_7 C24_7 1_555 1_555
C26_7 C25_7 1_555 1_555
C27_7 C25_7 1_555 1_555
H15_7 C27_7 1_555 1_555
C28_7 C22_7 1_555 1_555
H16_7 C28_7 1_555 1_555
C29_7 P2_7 1_555 1_555
C30_7 C29_7 1_555 1_555
H17_7 C30_7 1_555 1_555
C31_7 C30_7 1_555 1_555
H18_7 C31_7 1_555 1_555
C32_7 C31_7 1_555 1_555
C33_7 C32_7 1_555 1_555
C34_7 C32_7 1_555 1_555
H19_7 C34_7 1_555 1_555
C35_7 C29_7 1_555 1_555
H20_7 C35_7 1_555 1_555
C36_7 P2_7 1_555 1_555
C37_7 C36_7 1_555 1_555
H21_7 C37_7 1_555 1_555
C38_7 C37_7 1_555 1_555
H22_7 C38_7 1_555 1_555
C39_7 C38_7 1_555 1_555
C40_7 C39_7 1_555 1_555
C41_7 C39_7 1_555 1_555
H23_7 C41_7 1_555 1_555
C42_7 C36_7 1_555 1_555
H24_7 C42_7 1_555 1_555
O22_2 C26_7 1_555 1_555
O9_7 C26_7 1_555 1_555
O10_4 C33_7 1_555 1_555
O24 C33_7 1_555 1_555
O25_4 C40_7 1_555 1_555
O26_3 C40_7 1_555 1_555
O15_7 Co11 1_555 1_555
Co8 O10_4 1_555 1_555
P2_7 O14_7 1_555 1_555
C27_7 C28_7 1_555 1_555
C34_7 C35_7 1_555 1_555
C41_7 C42_7 1_555 1_555
O15_7 H34_7 1_555 1_555
O15_7 H35_7 1_555 1_555
C19_7 C18_7 1_555 1_555
O20_4 C19_7 1_555 1_555
O21_4 C19_7 1_555 1_555
Co4_2 O1_8 1_555 1_555
Co8 O2_8 1_555 1_555
Co11_2 O9_8 1_555 1_555
P1_8 C1_8 1_555 1_555
P2_8 C22_8 1_555 1_555
C1_8 C2_8 1_555 1_555
C2_8 H1_8 1_555 1_555
C3_8 C2_8 1_555 1_555
H2_8 C3_8 1_555 1_555
C4_8 C3_8 1_555 1_555
C5_8 C4_8 1_555 1_555
C6_8 C4_8 1_555 1_555
H3_8 C6_8 1_555 1_555
C7_8 C1_8 1_555 1_555
H4_8 C7_8 1_555 1_555
C8_8 P1_8 1_555 1_555
C9_8 C8_8 1_555 1_555
H5_8 C9_8 1_555 1_555
C10_8 C9_8 1_555 1_555
H6_8 C10_8 1_555 1_555
C11_8 C10_8 1_555 1_555
C12_8 C11_8 1_555 1_555
C13_8 C11_8 1_555 1_555
H7_8 C13_8 1_555 1_555
C14_8 C8_8 1_555 1_555
H8_8 C14_8 1_555 1_555
C15_8 P1_8 1_555 1_555
C16_8 C15_8 1_555 1_555
H9_8 C16_8 1_555 1_555
C17_8 C16_8 1_555 1_555
H10_8 C17_8 1_555 1_555
C18_8 C17_8 1_555 1_555
C19_8 C18_8 1_555 1_555
C20_8 C18_8 1_555 1_555
H11_8 C20_8 1_555 1_555
C21_8 C15_8 1_555 1_555
H12_8 C21_8 1_555 1_555
C22_8 C23_8 1_555 1_555
C23_8 H13_8 1_555 1_555
C24_8 C23_8 1_555 1_555
H14_8 C24_8 1_555 1_555
C25_8 C24_8 1_555 1_555
C26_8 C25_8 1_555 1_555
C27_8 C25_8 1_555 1_555
H15_8 C27_8 1_555 1_555
C28_8 C22_8 1_555 1_555
H16_8 C28_8 1_555 1_555
C29_8 P2_8 1_555 1_555
C30_8 C29_8 1_555 1_555
H17_8 C30_8 1_555 1_555
C31_8 C30_8 1_555 1_555
H18_8 C31_8 1_555 1_555
C32_8 C31_8 1_555 1_555
C33_8 C32_8 1_555 1_555
C34_8 C32_8 1_555 1_555
H19_8 C34_8 1_555 1_555
C35_8 C29_8 1_555 1_555
H20_8 C35_8 1_555 1_555
C36_8 P2_8 1_555 1_555
C37_8 C36_8 1_555 1_555
H21_8 C37_8 1_555 1_555
C38_8 C37_8 1_555 1_555
C42_8 C36_8 1_555 1_555
H24_8 C42_8 1_555 1_555
C43_8 H25_8 1_555 1_555
O1_8 C5_8 1_555 1_555
O2_8 C5_8 1_555 1_555
O19_2 C12_8 1_555 1_555
O20_3 C19_8 1_555 1_555
O21_3 C19_8 1_555 1_555
O7_8 P1_8 1_555 1_555
O22 C26_8 1_555 1_555
O9_8 C26_8 1_555 1_555
O23_4 C33_8 1_555 1_555
O24_2 C33_8 1_555 1_555
O14_8 Co4_2 1_555 1_555
O15_8 Co11_2 1_555 1_555
O17_8 Co11_2 1_555 1_555
P2_8 O14_8 1_555 1_555
C6_8 C7_8 1_555 1_555
C13_8 C14_8 1_555 1_555
C20_8 C21_8 1_555 1_555
C27_8 C28_8 1_555 1_555
C34_8 C35_8 1_555 1_555
C41_8 C42_8 1_555 1_555
C43_8 O17_8 1_555 1_555
O15_8 H34_8 1_555 1_555
C44_8 H26_8 1_555 1_555
H27_8 C44_8 1_555 1_555
H28_8 C44_8 1_555 1_555
C45_8 H29_8 1_555 1_555
H30_8 C45_8 1_555 1_555
C44_8 N1_8 1_555 1_555
C45_8 N1_8 1_555 1_555
C40_8 C39_8 1_555 1_555
O25_3 C40_8 1_555 1_555
O26_4 C40_8 1_555 1_555
O16_6 H32_6 1_555 1_555
O16_6 H33_6 1_555 1_555
O16_7 H32_7 1_555 1_555
O16_7 H33_7 1_555 1_555
O16_8 H32_8 1_555 1_555
O16_8 H33_8 1_555 1_555

#END
