
###############################################################################
#
# This file contains modified crystal structure data generated from the
# MOF subset of the Cambridge Structural Database (CSD) v543 
# hosted by the Cambridge Crystallographic Data Centre (CCDC).
#
# This work is licensed under the Creative Commons
# Attribution-NonCommercial-ShareAlike 4.0 International License.
# To view a copy of this license, visit
# http://creativecommons.org/licenses/by-nc-sa/4.0/
# or send a letter to
# Creative Commons, PO Box 1866, Mountain View, CA 94042, USA.
#
# CIF created using the CSD Python API on 29 September 2022
# The structure has been converted into the P1 space group
# The structure has a 3D framework
# The original CSD entry BELVAR is in the monoclinic crystal system
# The framework has been calculated to contain at least 10.0% void space
# The void calculation uses a probe of radius 1.32A, grid spacing 0.4
# The framework is charged, counterions have been retained in the structure
#
###############################################################################

data_BELVAR
_chemical_formula_moiety         '(C360 H288 Cl8 Mn24 N8 O132 P16)n'
_symmetry_cell_setting           triclinic
_symmetry_space_group_name_H-M   'P 1'
_symmetry_Int_Tables_number      1
_space_group_name_Hall           'P 1'
loop_
_symmetry_equiv_pos_site_id
_symmetry_equiv_pos_as_xyz
1 x,y,z
_cell_length_a                   24.562(2)
_cell_length_b                   15.9487(11)
_cell_length_c                   32.901(3)
_cell_angle_alpha                90
_cell_angle_beta                 108.427(7)
_cell_angle_gamma                90
_cell_volume                     12227.6
loop_
_atom_site_label
_atom_site_type_symbol
_atom_site_fract_x
_atom_site_fract_y
_atom_site_fract_z
H28 H 0.198(2) 0.038(4) 0.1678(18)
O18 O 0.14792(14) 0.0693(2) 0.06818(10)
C1 C 0.23541(19) 0.5352(3) 0.10083(15)
C2 C 0.2551(2) 0.6157(4) 0.09723(18)
H1 H 0.2906 0.6228 0.0918
C3 C 0.2239(2) 0.6856(4) 0.10137(17)
H2 H 0.2382 0.7402 0.0993
C4 C 0.17090(19) 0.6755(3) 0.10869(16)
C5 C 0.1401(2) 0.7533(3) 0.11576(16)
C6 C 0.1504(2) 0.5951(3) 0.11144(18)
H3 H 0.1144 0.5881 0.1161
C7 C 0.1818(2) 0.5247(3) 0.10746(18)
H4 H 0.1673 0.4700 0.1092
C8 C 0.24189(18) 0.3548(3) 0.08358(14)
C9 C 0.2264(2) 0.3320(3) 0.04047(15)
H5 H 0.2352 0.3680 0.0204
C10 C 0.19814(19) 0.2568(3) 0.02683(15)
C11 C 0.18594(17) 0.2021(3) 0.05580(14)
C12 C 0.16308(18) 0.1139(3) 0.04170(15)
C13 C 0.1994(2) 0.2263(3) 0.09882(16)
H7 H 0.1896 0.1906 0.1185
C14 C 0.2268(2) 0.3015(3) 0.11283(16)
H8 H 0.2354 0.3175 0.1420
C15 C 0.32188(19) 0.4307(3) 0.15844(15)
C16 C 0.3724(2) 0.3840(4) 0.16938(16)
H9 H 0.3866 0.3647 0.1473
C17 C 0.4029(2) 0.3649(4) 0.21215(17)
H10 H 0.4370 0.3323 0.2189
C18 C 0.3830(2) 0.3938(4) 0.24447(15)
C19 C 0.4147(2) 0.3733(4) 0.29051(17)
C20 C 0.3322(2) 0.4399(5) 0.23393(17)
H11 H 0.3177 0.4583 0.2560
C21 C 0.3024(2) 0.4592(4) 0.19158(17)
H12 H 0.2685 0.4922 0.1851
Mn2 Mn 0.03786(3) 0.84904(5) 0.12555(2)
Mn3 Mn 0.15815(3) 0.93618(5) 0.08309(2)
O1 O 0.16561(14) 0.8224(2) 0.11937(11)
O2 O 0.08967(15) 0.7430(2) 0.11870(14)
O3 O 0.16332(14) 0.0905(2) 0.00535(10)
O5 O 0.45717(17) 0.3246(3) 0.30063(12)
O6 O 0.39751(15) 0.4076(3) 0.31977(11)
O7 O 0.32362(13) 0.4703(2) 0.07728(10)
O17 O 0.16809(18) 0.9971(3) 0.14697(12)
P1 P 0.28433(5) 0.44904(8) 0.10246(4)
H27 H 0.149(3) 0.961(4) 0.1605(19)
Mn4 Mn 0.39706(3) 0.44170(5) 0.05534(2)
Mn6 Mn 0.46214(3) 0.34904(5) 0.37445(2)
O19 O 0.04283(17) 0.8246(3) 0.19937(12)
O20 O 0.10249(15) 0.9076(3) 0.18023(11)
O22 O 0.14630(15) 0.8688(2) 0.02477(11)
O25 O 0.25011(12) 0.9301(2) 0.09873(11)
O26 O 0.06280(12) 0.9217(2) 0.07678(10)
H6 H 0.1870 0.2424 0.9973
Mn1 Mn 0.10294(3) 0.05830(5) 0.94466(2)
O15 O 0.02796(13) 0.0914(2) 0.96828(11)
Cl1 Cl 0.02790(6) 0.02185(10) 0.87175(4)
O21 O 0.17638(13) 0.0297(2) 0.92272(10)
O23 O 0.11334(13) 0.1863(2) 0.92588(11)
H14 H 0.1892 0.7347 0.0104
C22 C 0.16264(19) 0.6654(3) 0.91227(15)
C23 C 0.1863(2) 0.6688(4) 0.95709(17)
H13 H 0.2116 0.6257 0.9718
C24 C 0.1732(2) 0.7339(4) 0.98008(17)
C25 C 0.13671(19) 0.7988(3) 0.95925(15)
C26 C 0.1255(2) 0.8734(3) 0.98454(16)
C27 C 0.1132(2) 0.7960(3) 0.91513(16)
H15 H 0.0885 0.8400 0.9006
C28 C 0.1252(2) 0.7291(3) 0.89150(16)
H16 H 0.1078 0.7273 0.8613
C29 C 0.1521(2) 0.4855(3) 0.89481(16)
C30 C 0.1853(2) 0.4124(3) 0.90217(18)
H17 H 0.2243 0.4154 0.9032
C31 C 0.16240(19) 0.3359(3) 0.90800(17)
H18 H 0.1859 0.2872 0.9136
C32 C 0.10462(19) 0.3301(3) 0.90568(15)
C33 C 0.0798(2) 0.2456(3) 0.91021(16)
C34 C 0.0716(2) 0.4025(3) 0.89907(19)
H19 H 0.0326 0.3990 0.8980
C35 C 0.0945(2) 0.4805(3) 0.89401(17)
H20 H 0.0716 0.5296 0.8901
C36 C 0.1597(2) 0.5983(3) 0.82797(16)
C37 C 0.1988(3) 0.6197(5) 0.8062(2)
H21 H 0.2378 0.6301 0.8221
C38 C 0.1815(3) 0.6255(5) 0.7631(2)
H22 H 0.2087 0.6404 0.7493
C39 C 0.1253(3) 0.6104(4) 0.73847(19)
C40 C 0.1082(3) 0.6138(5) 0.6898(2)
C41 C 0.0854(3) 0.5923(5) 0.75873(19)
H23 H 0.0465 0.5828 0.7423
C42 C 0.1021(2) 0.5880(5) 0.80297(18)
H24 H 0.0740 0.5779 0.8167
O9 O 0.09344(13) 0.9313(2) 0.96345(11)
O11 O 0.02540(14) 0.2412(2) 0.89626(14)
O12 O 0.1403(2) 0.6339(4) 0.67076(16)
O13 O 0.0533(3) 0.5922(5) 0.67028(15)
H26 H 0.0462 0.5952 0.6436
O14 O 0.24989(12) 0.5699(2) 0.90127(11)
P2 P 0.18601(5) 0.58053(8) 0.88526(4)
Mn10 Mn 0.34185(3) 0.56382(5) 0.91691(2)
O24 O 0.97460(14) 0.7588(2) 0.10374(14)
Cl2 Cl 0.97210(6) 0.97815(10) 0.12825(4)
C43 C 0.9762(2) 0.0736(3) 0.96003(16)
H25 H 0.9643 0.0547 0.9833
O16 O 0.93720(12) 0.0783(2) 0.92322(10)
Mn8 Mn 0.96214(3) 0.15096(5) 0.87445(2)
Mn11 Mn 0.84185(3) 0.06382(5) 0.91691(2)
C43_2 C 0.0238(2) 0.0736(3) 0.53997(16)
H25_2 H 0.0357 0.0547 0.5167
O16_2 O 0.06280(12) 0.0783(2) 0.57678(10)
Mn8_2 Mn 0.03786(3) 0.15096(5) 0.62555(2)
Mn11_2 Mn 0.15815(3) 0.06382(5) 0.58309(2)
O24_2 O 0.02540(14) 0.7588(2) 0.39626(14)
Cl2_2 Cl 0.02790(6) 0.97815(10) 0.37175(4)
H28_2 H 0.802(2) 0.038(4) 0.3322(18)
O18_2 O 0.85208(14) 0.0693(2) 0.43182(10)
C1_2 C 0.76459(19) 0.5352(3) 0.39917(15)
C2_2 C 0.7449(2) 0.6157(4) 0.40277(18)
H1_2 H 0.7094 0.6228 0.4082
C3_2 C 0.7761(2) 0.6856(4) 0.39863(17)
H2_2 H 0.7618 0.7402 0.4007
C4_2 C 0.82910(19) 0.6755(3) 0.39131(16)
C5_2 C 0.8599(2) 0.7533(3) 0.38424(16)
C6_2 C 0.8496(2) 0.5951(3) 0.38856(18)
H3_2 H 0.8856 0.5881 0.3839
C7_2 C 0.8182(2) 0.5247(3) 0.39254(18)
H4_2 H 0.8327 0.4700 0.3908
C8_2 C 0.75811(18) 0.3548(3) 0.41642(14)
C9_2 C 0.7736(2) 0.3320(3) 0.45953(15)
H5_2 H 0.7648 0.3680 0.4796
C10_2 C 0.80186(19) 0.2568(3) 0.47317(15)
H6_2 H 0.8130 0.2424 0.5027
C11_2 C 0.81406(17) 0.2021(3) 0.44420(14)
C12_2 C 0.83692(18) 0.1139(3) 0.45830(15)
C13_2 C 0.8006(2) 0.2263(3) 0.40118(16)
H7_2 H 0.8104 0.1906 0.3815
C14_2 C 0.7732(2) 0.3015(3) 0.38717(16)
H8_2 H 0.7646 0.3175 0.3580
C15_2 C 0.67812(19) 0.4307(3) 0.34156(15)
C16_2 C 0.6276(2) 0.3840(4) 0.33062(16)
H9_2 H 0.6134 0.3647 0.3527
C17_2 C 0.5971(2) 0.3649(4) 0.28785(17)
H10_2 H 0.5630 0.3323 0.2811
C18_2 C 0.6170(2) 0.3938(4) 0.25553(15)
C19_2 C 0.5853(2) 0.3733(4) 0.20949(17)
C20_2 C 0.6678(2) 0.4399(5) 0.26607(17)
H11_2 H 0.6823 0.4583 0.2440
C21_2 C 0.6976(2) 0.4592(4) 0.30842(17)
H12_2 H 0.7315 0.4922 0.3149
Mn1_2 Mn 0.89706(3) 0.05830(5) 0.55534(2)
Mn2_2 Mn 0.96214(3) 0.84904(5) 0.37445(2)
Mn3_2 Mn 0.84185(3) 0.93618(5) 0.41691(2)
O1_2 O 0.83439(14) 0.8224(2) 0.38063(11)
O2_2 O 0.91033(15) 0.7430(2) 0.38130(14)
O3_2 O 0.83668(14) 0.0905(2) 0.49465(10)
O5_2 O 0.54283(17) 0.3246(3) 0.19937(12)
O6_2 O 0.60249(15) 0.4076(3) 0.18023(11)
O7_2 O 0.67638(13) 0.4703(2) 0.42272(10)
O15_2 O 0.97204(13) 0.0914(2) 0.53172(11)
O17_2 O 0.83191(18) 0.9971(3) 0.35303(12)
P1_2 P 0.71567(5) 0.44904(8) 0.39754(4)
Cl1_2 Cl 0.97210(6) 0.02185(10) 0.62825(4)
H27_2 H 0.851(3) 0.961(4) 0.3395(19)
Mn4_2 Mn 0.60294(3) 0.44170(5) 0.44466(2)
Mn6_2 Mn 0.53786(3) 0.34904(5) 0.12555(2)
O19_2 O 0.95717(17) 0.8246(3) 0.30063(12)
O20_2 O 0.89751(15) 0.9076(3) 0.31977(11)
O21_2 O 0.82362(13) 0.0297(2) 0.57728(10)
O22_2 O 0.85370(15) 0.8688(2) 0.47523(11)
O23_2 O 0.88666(13) 0.1863(2) 0.57412(11)
O25_2 O 0.74989(12) 0.9301(2) 0.40127(11)
O26_2 O 0.93720(12) 0.9217(2) 0.42322(10)
C22_2 C 0.83736(19) 0.6654(3) 0.58773(15)
C23_2 C 0.8137(2) 0.6688(4) 0.54291(17)
H13_2 H 0.7884 0.6257 0.5282
C24_2 C 0.8268(2) 0.7339(4) 0.51992(17)
H14_2 H 0.8108 0.7347 0.4896
C25_2 C 0.86329(19) 0.7988(3) 0.54075(15)
C26_2 C 0.8745(2) 0.8734(3) 0.51546(16)
C27_2 C 0.8868(2) 0.7960(3) 0.58487(16)
H15_2 H 0.9115 0.8400 0.5994
C28_2 C 0.8748(2) 0.7291(3) 0.60850(16)
H16_2 H 0.8922 0.7273 0.6387
C29_2 C 0.8479(2) 0.4855(3) 0.60519(16)
C30_2 C 0.8147(2) 0.4124(3) 0.59783(18)
H17_2 H 0.7757 0.4154 0.5968
C31_2 C 0.83760(19) 0.3359(3) 0.59200(17)
H18_2 H 0.8141 0.2872 0.5864
C32_2 C 0.89538(19) 0.3301(3) 0.59432(15)
C33_2 C 0.9202(2) 0.2456(3) 0.58979(16)
C34_2 C 0.9284(2) 0.4025(3) 0.60093(19)
H19_2 H 0.9674 0.3990 0.6020
C35_2 C 0.9055(2) 0.4805(3) 0.60599(17)
H20_2 H 0.9284 0.5296 0.6099
C36_2 C 0.8403(2) 0.5983(3) 0.67203(16)
C37_2 C 0.8012(3) 0.6197(5) 0.6938(2)
H21_2 H 0.7622 0.6301 0.6779
C38_2 C 0.8185(3) 0.6255(5) 0.7369(2)
H22_2 H 0.7913 0.6404 0.7507
C39_2 C 0.8747(3) 0.6104(4) 0.76153(19)
C40_2 C 0.8918(3) 0.6138(5) 0.8102(2)
C41_2 C 0.9146(3) 0.5923(5) 0.74127(19)
H23_2 H 0.9535 0.5828 0.7577
C42_2 C 0.8979(2) 0.5880(5) 0.69703(18)
H24_2 H 0.9260 0.5779 0.6833
O9_2 O 0.90656(13) 0.9313(2) 0.53655(11)
O11_2 O 0.97460(14) 0.2412(2) 0.60374(14)
O12_2 O 0.8597(2) 0.6339(4) 0.82924(16)
O13_2 O 0.9467(3) 0.5922(5) 0.82972(15)
H26_2 H 0.9538 0.5952 0.8564
O14_2 O 0.75011(12) 0.5699(2) 0.59873(11)
P2_2 P 0.81399(5) 0.58053(8) 0.61474(4)
Mn10_2 Mn 0.65815(3) 0.56382(5) 0.58309(2)
C1_3 C 0.73541(19) 0.0352(3) 0.10083(15)
C2_3 C 0.7551(2) 0.1157(4) 0.09723(18)
H1_3 H 0.7906 0.1228 0.0918
C3_3 C 0.7239(2) 0.1856(4) 0.10137(17)
H2_3 H 0.7382 0.2402 0.0993
C4_3 C 0.67090(19) 0.1755(3) 0.10869(16)
C5_3 C 0.6401(2) 0.2533(3) 0.11576(16)
C6_3 C 0.6504(2) 0.0951(3) 0.11144(18)
H3_3 H 0.6144 0.0881 0.1161
C7_3 C 0.6818(2) 0.0247(3) 0.10746(18)
Mn3_3 Mn 0.65815(3) 0.43618(5) 0.08309(2)
O1_3 O 0.66561(14) 0.3224(2) 0.11937(11)
O2_3 O 0.58967(15) 0.2430(2) 0.11870(14)
O17_3 O 0.66809(18) 0.4971(3) 0.14697(12)
H27_3 H 0.649(3) 0.461(4) 0.1605(19)
H28_3 H 0.698(2) 0.538(4) 0.1678(18)
O18_3 O 0.64792(14) 0.5693(2) 0.06818(10)
O22_3 O 0.64630(15) 0.3688(2) 0.02477(11)
O24_3 O 0.47460(14) 0.2588(2) 0.10374(14)
O25_3 O 0.75011(12) 0.4301(2) 0.09873(11)
O26_3 O 0.56280(12) 0.4217(2) 0.07678(10)
Cl2_3 Cl 0.47210(6) 0.47815(10) 0.12825(4)
H4_3 H 0.6673 0.9700 0.1092
C8_3 C 0.74189(18) 0.8548(3) 0.08358(14)
C9_3 C 0.7264(2) 0.8320(3) 0.04047(15)
H5_3 H 0.7352 0.8680 0.0204
C10_3 C 0.69814(19) 0.7568(3) 0.02683(15)
C11_3 C 0.68594(17) 0.7021(3) 0.05580(14)
C12_3 C 0.66308(18) 0.6139(3) 0.04170(15)
C13_3 C 0.6994(2) 0.7263(3) 0.09882(16)
H7_3 H 0.6896 0.6906 0.1185
C14_3 C 0.7268(2) 0.8015(3) 0.11283(16)
H8_3 H 0.7354 0.8175 0.1420
C15_3 C 0.82188(19) 0.9307(3) 0.15844(15)
C16_3 C 0.8724(2) 0.8840(4) 0.16938(16)
H9_3 H 0.8866 0.8647 0.1473
C17_3 C 0.9029(2) 0.8649(4) 0.21215(17)
H10_3 H 0.9370 0.8323 0.2189
C18_3 C 0.8830(2) 0.8938(4) 0.24447(15)
C19_3 C 0.9147(2) 0.8733(4) 0.29051(17)
C20_3 C 0.8322(2) 0.9399(5) 0.23393(17)
H11_3 H 0.8177 0.9583 0.2560
C21_3 C 0.8024(2) 0.9592(4) 0.19158(17)
H12_3 H 0.7685 0.9922 0.1851
H14_3 H 0.6892 0.2347 0.0104
O3_3 O 0.66332(14) 0.5905(2) 0.00535(10)
O7_3 O 0.82362(13) 0.9703(2) 0.07728(10)
P1_3 P 0.78433(5) 0.94904(8) 0.10246(4)
Mn4_3 Mn 0.89706(3) 0.94170(5) 0.05534(2)
H6_3 H 0.6870 0.7424 0.9973
C22_3 C 0.66264(19) 0.1654(3) 0.91227(15)
C23_3 C 0.6863(2) 0.1688(4) 0.95709(17)
H13_3 H 0.7116 0.1257 0.9718
C24_3 C 0.6732(2) 0.2339(4) 0.98008(17)
C25_3 C 0.63671(19) 0.2988(3) 0.95925(15)
C26_3 C 0.6255(2) 0.3734(3) 0.98454(16)
C27_3 C 0.6132(2) 0.2960(3) 0.91513(16)
H15_3 H 0.5885 0.3400 0.9006
C28_3 C 0.6252(2) 0.2291(3) 0.89150(16)
H16_3 H 0.6078 0.2273 0.8613
H20_3 H 0.5716 0.0296 0.8901
C36_3 C 0.6597(2) 0.0983(3) 0.82797(16)
C37_3 C 0.6988(3) 0.1197(5) 0.8062(2)
H21_3 H 0.7378 0.1301 0.8221
C38_3 C 0.6815(3) 0.1255(5) 0.7631(2)
H22_3 H 0.7087 0.1404 0.7493
C39_3 C 0.6253(3) 0.1104(4) 0.73847(19)
C40_3 C 0.6082(3) 0.1138(5) 0.6898(2)
C41_3 C 0.5854(3) 0.0923(5) 0.75873(19)
H23_3 H 0.5465 0.0828 0.7423
C42_3 C 0.6021(2) 0.0880(5) 0.80297(18)
H24_3 H 0.5740 0.0779 0.8167
C43_3 C 0.4762(2) 0.5736(3) 0.96003(16)
H25_3 H 0.4643 0.5547 0.9833
Mn1_3 Mn 0.60294(3) 0.55830(5) 0.94466(2)
O9_3 O 0.59344(13) 0.4313(2) 0.96345(11)
O12_3 O 0.6403(2) 0.1339(4) 0.67076(16)
O13_3 O 0.5533(3) 0.0922(5) 0.67028(15)
H26_3 H 0.5462 0.0952 0.6436
O14_3 O 0.74989(12) 0.0699(2) 0.90127(11)
O15_3 O 0.52796(13) 0.5914(2) 0.96828(11)
O16_3 O 0.43720(12) 0.5783(2) 0.92322(10)
P2_3 P 0.68601(5) 0.08053(8) 0.88526(4)
Cl1_3 Cl 0.52790(6) 0.52185(10) 0.87175(4)
Mn8_3 Mn 0.46214(3) 0.65096(5) 0.87445(2)
O21_3 O 0.67638(13) 0.5297(2) 0.92272(10)
O23_3 O 0.61334(13) 0.6863(2) 0.92588(11)
C29_3 C 0.6521(2) 0.9855(3) 0.89481(16)
C30_3 C 0.6853(2) 0.9124(3) 0.90217(18)
H17_3 H 0.7243 0.9154 0.9032
C31_3 C 0.66240(19) 0.8359(3) 0.90800(17)
H18_3 H 0.6859 0.7872 0.9136
C32_3 C 0.60462(19) 0.8301(3) 0.90568(15)
C33_3 C 0.5798(2) 0.7456(3) 0.91021(16)
C34_3 C 0.5716(2) 0.9025(3) 0.89907(19)
H19_3 H 0.5326 0.8990 0.8980
C35_3 C 0.5945(2) 0.9805(3) 0.89401(17)
O11_3 O 0.52540(14) 0.7412(2) 0.89626(14)
C1_4 C 0.26459(19) 0.0352(3) 0.39917(15)
C2_4 C 0.2449(2) 0.1157(4) 0.40277(18)
H1_4 H 0.2094 0.1228 0.4082
C3_4 C 0.2761(2) 0.1856(4) 0.39863(17)
H2_4 H 0.2618 0.2402 0.4007
C4_4 C 0.32910(19) 0.1755(3) 0.39131(16)
C5_4 C 0.3599(2) 0.2533(3) 0.38424(16)
C6_4 C 0.3496(2) 0.0951(3) 0.38856(18)
H3_4 H 0.3856 0.0881 0.3839
C7_4 C 0.3182(2) 0.0247(3) 0.39254(18)
Mn3_4 Mn 0.34185(3) 0.43618(5) 0.41691(2)
O1_4 O 0.33439(14) 0.3224(2) 0.38063(11)
O2_4 O 0.41033(15) 0.2430(2) 0.38130(14)
O17_4 O 0.33191(18) 0.4971(3) 0.35303(12)
H27_4 H 0.351(3) 0.461(4) 0.3395(19)
H28_4 H 0.302(2) 0.538(4) 0.3322(18)
O18_4 O 0.35208(14) 0.5693(2) 0.43182(10)
O22_4 O 0.35370(15) 0.3688(2) 0.47523(11)
O24_4 O 0.52540(14) 0.2588(2) 0.39626(14)
O25_4 O 0.24989(12) 0.4301(2) 0.40127(11)
O26_4 O 0.43720(12) 0.4217(2) 0.42322(10)
Cl2_4 Cl 0.52790(6) 0.47815(10) 0.37175(4)
H4_4 H 0.3327 0.9700 0.3908
C8_4 C 0.25811(18) 0.8548(3) 0.41642(14)
C9_4 C 0.2736(2) 0.8320(3) 0.45953(15)
H5_4 H 0.2648 0.8680 0.4796
C10_4 C 0.30186(19) 0.7568(3) 0.47317(15)
H6_4 H 0.3130 0.7424 0.5027
C11_4 C 0.31406(17) 0.7021(3) 0.44420(14)
C12_4 C 0.33692(18) 0.6139(3) 0.45830(15)
C13_4 C 0.3006(2) 0.7263(3) 0.40118(16)
H7_4 H 0.3104 0.6906 0.3815
C14_4 C 0.2732(2) 0.8015(3) 0.38717(16)
H8_4 H 0.2646 0.8175 0.3580
C15_4 C 0.17812(19) 0.9307(3) 0.34156(15)
C16_4 C 0.1276(2) 0.8840(4) 0.33062(16)
H9_4 H 0.1134 0.8647 0.3527
C17_4 C 0.0971(2) 0.8649(4) 0.28785(17)
H10_4 H 0.0630 0.8323 0.2811
C18_4 C 0.1170(2) 0.8938(4) 0.25553(15)
C19_4 C 0.0853(2) 0.8733(4) 0.20949(17)
C20_4 C 0.1678(2) 0.9399(5) 0.26607(17)
H11_4 H 0.1823 0.9583 0.2440
C21_4 C 0.1976(2) 0.9592(4) 0.30842(17)
H12_4 H 0.2315 0.9922 0.3149
C22_4 C 0.33736(19) 0.1654(3) 0.58773(15)
C23_4 C 0.3137(2) 0.1688(4) 0.54291(17)
H13_4 H 0.2884 0.1257 0.5282
C24_4 C 0.3268(2) 0.2339(4) 0.51992(17)
H14_4 H 0.3108 0.2347 0.4896
C25_4 C 0.36329(19) 0.2988(3) 0.54075(15)
C26_4 C 0.3745(2) 0.3734(3) 0.51546(16)
C27_4 C 0.3868(2) 0.2960(3) 0.58487(16)
H15_4 H 0.4115 0.3400 0.5994
C28_4 C 0.3748(2) 0.2291(3) 0.60850(16)
H16_4 H 0.3922 0.2273 0.6387
H20_4 H 0.4284 0.0296 0.6099
C36_4 C 0.3403(2) 0.0983(3) 0.67203(16)
C37_4 C 0.3012(3) 0.1197(5) 0.6938(2)
H21_4 H 0.2622 0.1301 0.6779
C38_4 C 0.3185(3) 0.1255(5) 0.7369(2)
H22_4 H 0.2913 0.1404 0.7507
C39_4 C 0.3747(3) 0.1104(4) 0.76153(19)
C40_4 C 0.3918(3) 0.1138(5) 0.8102(2)
C41_4 C 0.4146(3) 0.0923(5) 0.74127(19)
H23_4 H 0.4535 0.0828 0.7577
C42_4 C 0.3979(2) 0.0880(5) 0.69703(18)
H24_4 H 0.4260 0.0779 0.6833
C43_4 C 0.5238(2) 0.5736(3) 0.53997(16)
H25_4 H 0.5357 0.5547 0.5167
Mn1_4 Mn 0.39706(3) 0.55830(5) 0.55534(2)
O3_4 O 0.33668(14) 0.5905(2) 0.49465(10)
O7_4 O 0.17638(13) 0.9703(2) 0.42272(10)
O9_4 O 0.40656(13) 0.4313(2) 0.53655(11)
O12_4 O 0.3597(2) 0.1339(4) 0.82924(16)
O13_4 O 0.4467(3) 0.0922(5) 0.82972(15)
H26_4 H 0.4538 0.0952 0.8564
O14_4 O 0.25011(12) 0.0699(2) 0.59873(11)
O15_4 O 0.47204(13) 0.5914(2) 0.53172(11)
O16_4 O 0.56280(12) 0.5783(2) 0.57678(10)
P1_4 P 0.21567(5) 0.94904(8) 0.39754(4)
P2_4 P 0.31399(5) 0.08053(8) 0.61474(4)
Cl1_4 Cl 0.47210(6) 0.52185(10) 0.62825(4)
Mn4_4 Mn 0.10294(3) 0.94170(5) 0.44466(2)
Mn8_4 Mn 0.53786(3) 0.65096(5) 0.62555(2)
O21_4 O 0.32362(13) 0.5297(2) 0.57728(10)
O23_4 O 0.38666(13) 0.6863(2) 0.57412(11)
C29_4 C 0.3479(2) 0.9855(3) 0.60519(16)
C30_4 C 0.3147(2) 0.9124(3) 0.59783(18)
H17_4 H 0.2757 0.9154 0.5968
C31_4 C 0.33760(19) 0.8359(3) 0.59200(17)
H18_4 H 0.3141 0.7872 0.5864
C32_4 C 0.39538(19) 0.8301(3) 0.59432(15)
C33_4 C 0.4202(2) 0.7456(3) 0.58979(16)
C34_4 C 0.4284(2) 0.9025(3) 0.60093(19)
H19_4 H 0.4674 0.8990 0.6020
C35_4 C 0.4055(2) 0.9805(3) 0.60599(17)
O11_4 O 0.47460(14) 0.7412(2) 0.60374(14)
C43_5 C 0.0238(2) 0.9264(3) 0.03997(16)
H25_5 H 0.0357 0.9453 0.0167
C22_5 C 0.83736(19) 0.3346(3) 0.08773(15)
C23_5 C 0.8137(2) 0.3312(4) 0.04291(17)
H13_5 H 0.7884 0.3743 0.0282
C24_5 C 0.8268(2) 0.2661(4) 0.01992(17)
C25_5 C 0.86329(19) 0.2012(3) 0.04075(15)
C26_5 C 0.8745(2) 0.1266(3) 0.01546(16)
C27_5 C 0.8868(2) 0.2040(3) 0.08487(16)
H15_5 H 0.9115 0.1600 0.0994
C28_5 C 0.8748(2) 0.2709(3) 0.10850(16)
H16_5 H 0.8922 0.2727 0.1387
C29_5 C 0.8479(2) 0.5145(3) 0.10519(16)
C30_5 C 0.8147(2) 0.5876(3) 0.09783(18)
H17_5 H 0.7757 0.5846 0.0968
C31_5 C 0.83760(19) 0.6641(3) 0.09200(17)
H18_5 H 0.8141 0.7128 0.0864
C32_5 C 0.89538(19) 0.6699(3) 0.09432(15)
C33_5 C 0.9202(2) 0.7544(3) 0.08979(16)
C34_5 C 0.9284(2) 0.5975(3) 0.10093(19)
H19_5 H 0.9674 0.6010 0.1020
C35_5 C 0.9055(2) 0.5195(3) 0.10599(17)
H20_5 H 0.9284 0.4704 0.1099
C36_5 C 0.8403(2) 0.4017(3) 0.17203(16)
C37_5 C 0.8012(3) 0.3803(5) 0.1938(2)
H21_5 H 0.7622 0.3699 0.1779
C38_5 C 0.8185(3) 0.3745(5) 0.2369(2)
H22_5 H 0.7913 0.3596 0.2507
C39_5 C 0.8747(3) 0.3896(4) 0.26153(19)
C40_5 C 0.8918(3) 0.3862(5) 0.3102(2)
C41_5 C 0.9146(3) 0.4077(5) 0.24127(19)
H23_5 H 0.9535 0.4172 0.2577
C42_5 C 0.8979(2) 0.4120(5) 0.19703(18)
H24_5 H 0.9260 0.4221 0.1833
O9_5 O 0.90656(13) 0.0687(2) 0.03655(11)
O10 O 0.88666(13) 0.8137(2) 0.07412(11)
O12_5 O 0.8597(2) 0.3661(4) 0.32924(16)
O13_5 O 0.9467(3) 0.4078(5) 0.32972(15)
H26_5 H 0.9538 0.4048 0.3564
P2_5 P 0.81399(5) 0.41947(8) 0.11474(4)
H14_5 H 0.8108 0.2653 0.9896
O8 O 0.85370(15) 0.1312(2) 0.97523(11)
H6_5 H 0.8130 0.7576 0.0027
O15_5 O 0.97204(13) 0.9086(2) 0.03172(11)
C1_5 C 0.76459(19) 0.4648(3) 0.89917(15)
C2_5 C 0.7449(2) 0.3843(4) 0.90277(18)
H1_5 H 0.7094 0.3772 0.9082
C3_5 C 0.7761(2) 0.3144(4) 0.89863(17)
H2_5 H 0.7618 0.2598 0.9007
C4_5 C 0.82910(19) 0.3245(3) 0.89131(16)
C5_5 C 0.8599(2) 0.2467(3) 0.88424(16)
C6_5 C 0.8496(2) 0.4049(3) 0.88856(18)
H3_5 H 0.8856 0.4119 0.8839
C7_5 C 0.8182(2) 0.4753(3) 0.89254(18)
H4_5 H 0.8327 0.5300 0.8908
C8_5 C 0.75811(18) 0.6452(3) 0.91642(14)
C9_5 C 0.7736(2) 0.6680(3) 0.95953(15)
H5_5 H 0.7648 0.6320 0.9796
C10_5 C 0.80186(19) 0.7432(3) 0.97317(15)
C11_5 C 0.81406(17) 0.7979(3) 0.94420(14)
C12_5 C 0.83692(18) 0.8861(3) 0.95830(15)
C13_5 C 0.8006(2) 0.7737(3) 0.90118(16)
H7_5 H 0.8104 0.8094 0.8815
C14_5 C 0.7732(2) 0.6985(3) 0.88717(16)
H8_5 H 0.7646 0.6825 0.8580
C15_5 C 0.67812(19) 0.5693(3) 0.84156(15)
C16_5 C 0.6276(2) 0.6160(4) 0.83062(16)
H9_5 H 0.6134 0.6353 0.8527
C17_5 C 0.5971(2) 0.6351(4) 0.78785(17)
H10_5 H 0.5630 0.6677 0.7811
C18_5 C 0.6170(2) 0.6062(4) 0.75553(15)
C19_5 C 0.5853(2) 0.6267(4) 0.70949(17)
C20_5 C 0.6678(2) 0.5601(5) 0.76607(17)
H11_5 H 0.6823 0.5417 0.7440
C21_5 C 0.6976(2) 0.5408(4) 0.80842(17)
H12_5 H 0.7315 0.5078 0.8149
O1_5 O 0.83439(14) 0.1776(2) 0.88063(11)
O2_5 O 0.91033(15) 0.2570(2) 0.88130(14)
O3_5 O 0.83668(14) 0.9095(2) 0.99465(10)
O4 O 0.85208(14) 0.9307(2) 0.93182(10)
O5_3 O 0.54283(17) 0.6754(3) 0.69937(12)
O6_3 O 0.60249(15) 0.5924(3) 0.68023(11)
O17_5 O 0.83191(18) 0.0029(3) 0.85303(12)
P1_5 P 0.71567(5) 0.55096(8) 0.89754(4)
H27_5 H 0.851(3) 0.039(4) 0.8395(19)
O19_3 O 0.95717(17) 0.1754(3) 0.80063(12)
O20_3 O 0.89751(15) 0.0924(3) 0.81977(11)
H28_5 H 0.802(2) 0.962(4) 0.8322(18)
C22_6 C 0.16264(19) 0.3346(3) 0.41227(15)
C23_6 C 0.1863(2) 0.3312(4) 0.45709(17)
H13_6 H 0.2116 0.3743 0.4718
C24_6 C 0.1732(2) 0.2661(4) 0.48008(17)
H14_6 H 0.1892 0.2653 0.5104
C25_6 C 0.13671(19) 0.2012(3) 0.45925(15)
C26_6 C 0.1255(2) 0.1266(3) 0.48454(16)
C27_6 C 0.1132(2) 0.2040(3) 0.41513(16)
H15_6 H 0.0885 0.1600 0.4006
C28_6 C 0.1252(2) 0.2709(3) 0.39150(16)
H16_6 H 0.1078 0.2727 0.3613
C29_6 C 0.1521(2) 0.5145(3) 0.39481(16)
C30_6 C 0.1853(2) 0.5876(3) 0.40217(18)
H17_6 H 0.2243 0.5846 0.4032
C31_6 C 0.16240(19) 0.6641(3) 0.40800(17)
H18_6 H 0.1859 0.7128 0.4136
C32_6 C 0.10462(19) 0.6699(3) 0.40568(15)
C33_6 C 0.0798(2) 0.7544(3) 0.41021(16)
C34_6 C 0.0716(2) 0.5975(3) 0.39907(19)
H19_6 H 0.0326 0.6010 0.3980
C35_6 C 0.0945(2) 0.5195(3) 0.39401(17)
H20_6 H 0.0716 0.4704 0.3901
C36_6 C 0.1597(2) 0.4017(3) 0.32797(16)
C37_6 C 0.1988(3) 0.3803(5) 0.3062(2)
H21_6 H 0.2378 0.3699 0.3221
C38_6 C 0.1815(3) 0.3745(5) 0.2631(2)
H22_6 H 0.2087 0.3596 0.2493
C39_6 C 0.1253(3) 0.3896(4) 0.23847(19)
C40_6 C 0.1082(3) 0.3862(5) 0.1898(2)
C41_6 C 0.0854(3) 0.4077(5) 0.25873(19)
H23_6 H 0.0465 0.4172 0.2423
C42_6 C 0.1021(2) 0.4120(5) 0.30297(18)
H24_6 H 0.0740 0.4221 0.3167
O8_2 O 0.14630(15) 0.1312(2) 0.52477(11)
O9_6 O 0.09344(13) 0.0687(2) 0.46345(11)
O10_2 O 0.11334(13) 0.8137(2) 0.42588(11)
O12_6 O 0.1403(2) 0.3661(4) 0.17076(16)
O13_6 O 0.0533(3) 0.4078(5) 0.17028(15)
H26_6 H 0.0462 0.4048 0.1436
P2_6 P 0.18601(5) 0.41947(8) 0.38526(4)
C1_6 C 0.23541(19) 0.4648(3) 0.60083(15)
C2_6 C 0.2551(2) 0.3843(4) 0.59723(18)
H1_6 H 0.2906 0.3772 0.5918
C3_6 C 0.2239(2) 0.3144(4) 0.60137(17)
H2_6 H 0.2382 0.2598 0.5993
C4_6 C 0.17090(19) 0.3245(3) 0.60869(16)
C5_6 C 0.1401(2) 0.2467(3) 0.61576(16)
C6_6 C 0.1504(2) 0.4049(3) 0.61144(18)
H3_6 H 0.1144 0.4119 0.6161
C7_6 C 0.1818(2) 0.4753(3) 0.60746(18)
H4_6 H 0.1673 0.5300 0.6092
C8_6 C 0.24189(18) 0.6452(3) 0.58358(14)
C9_6 C 0.2264(2) 0.6680(3) 0.54047(15)
H5_6 H 0.2352 0.6320 0.5204
C10_6 C 0.19814(19) 0.7432(3) 0.52683(15)
H6_6 H 0.1870 0.7576 0.4973
C11_6 C 0.18594(17) 0.7979(3) 0.55580(14)
C12_6 C 0.16308(18) 0.8861(3) 0.54170(15)
C13_6 C 0.1994(2) 0.7737(3) 0.59882(16)
H7_6 H 0.1896 0.8094 0.6185
C14_6 C 0.2268(2) 0.6985(3) 0.61283(16)
H8_6 H 0.2354 0.6825 0.6420
C15_6 C 0.32188(19) 0.5693(3) 0.65844(15)
C16_6 C 0.3724(2) 0.6160(4) 0.66938(16)
H9_6 H 0.3866 0.6353 0.6473
C17_6 C 0.4029(2) 0.6351(4) 0.71215(17)
H10_6 H 0.4370 0.6677 0.7189
C18_6 C 0.3830(2) 0.6062(4) 0.74447(15)
C19_6 C 0.4147(2) 0.6267(4) 0.79051(17)
C20_6 C 0.3322(2) 0.5601(5) 0.73393(17)
H11_6 H 0.3177 0.5417 0.7560
C21_6 C 0.3024(2) 0.5408(4) 0.69158(17)
H12_6 H 0.2685 0.5078 0.6851
O1_6 O 0.16561(14) 0.1776(2) 0.61937(11)
O2_6 O 0.08967(15) 0.2570(2) 0.61870(14)
O3_6 O 0.16332(14) 0.9095(2) 0.50535(10)
O4_2 O 0.14792(14) 0.9307(2) 0.56818(10)
O5_4 O 0.45717(17) 0.6754(3) 0.80063(12)
O6_4 O 0.39751(15) 0.5924(3) 0.81977(11)
O15_6 O 0.02796(13) 0.9086(2) 0.46828(11)
O17_6 O 0.16809(18) 0.0029(3) 0.64697(12)
P1_6 P 0.28433(5) 0.55096(8) 0.60246(4)
H27_6 H 0.149(3) 0.039(4) 0.6605(19)
O19_4 O 0.04283(17) 0.1754(3) 0.69937(12)
O20_4 O 0.10249(15) 0.0924(3) 0.68023(11)
H28_6 H 0.198(2) 0.962(4) 0.6678(18)
C43_6 C 0.9762(2) 0.9264(3) 0.46003(16)
H25_6 H 0.9643 0.9453 0.4833
C29_7 C 0.3479(2) 0.0145(3) 0.10519(16)
C30_7 C 0.3147(2) 0.0876(3) 0.09783(18)
H17_7 H 0.2757 0.0846 0.0968
C31_7 C 0.33760(19) 0.1641(3) 0.09200(17)
H18_7 H 0.3141 0.2128 0.0864
C32_7 C 0.39538(19) 0.1699(3) 0.09432(15)
C33_7 C 0.4202(2) 0.2544(3) 0.08979(16)
C34_7 C 0.4284(2) 0.0975(3) 0.10093(19)
H19_7 H 0.4674 0.1010 0.1020
C35_7 C 0.4055(2) 0.0195(3) 0.10599(17)
O10_3 O 0.38666(13) 0.3137(2) 0.07412(11)
H6_7 H 0.3130 0.2576 0.0027
C22_7 C 0.33736(19) 0.8346(3) 0.08773(15)
C23_7 C 0.3137(2) 0.8312(4) 0.04291(17)
H13_7 H 0.2884 0.8743 0.0282
C24_7 C 0.3268(2) 0.7661(4) 0.01992(17)
C25_7 C 0.36329(19) 0.7012(3) 0.04075(15)
C26_7 C 0.3745(2) 0.6266(3) 0.01546(16)
C27_7 C 0.3868(2) 0.7040(3) 0.08487(16)
H15_7 H 0.4115 0.6600 0.0994
C28_7 C 0.3748(2) 0.7709(3) 0.10850(16)
H16_7 H 0.3922 0.7727 0.1387
H20_7 H 0.4284 0.9704 0.1099
C36_7 C 0.3403(2) 0.9017(3) 0.17203(16)
C37_7 C 0.3012(3) 0.8803(5) 0.1938(2)
H21_7 H 0.2622 0.8699 0.1779
C38_7 C 0.3185(3) 0.8745(5) 0.2369(2)
H22_7 H 0.2913 0.8596 0.2507
C39_7 C 0.3747(3) 0.8896(4) 0.26153(19)
C40_7 C 0.3918(3) 0.8862(5) 0.3102(2)
C41_7 C 0.4146(3) 0.9077(5) 0.24127(19)
H23_7 H 0.4535 0.9172 0.2577
C42_7 C 0.3979(2) 0.9120(5) 0.19703(18)
H24_7 H 0.4260 0.9221 0.1833
C43_7 C 0.5238(2) 0.4264(3) 0.03997(16)
H25_7 H 0.5357 0.4453 0.0167
O9_7 O 0.40656(13) 0.5687(2) 0.03655(11)
O12_7 O 0.3597(2) 0.8661(4) 0.32924(16)
O13_7 O 0.4467(3) 0.9078(5) 0.32972(15)
H26_7 H 0.4538 0.9048 0.3564
O15_7 O 0.47204(13) 0.4086(2) 0.03172(11)
P2_7 P 0.31399(5) 0.91947(8) 0.11474(4)
H4_7 H 0.3327 0.0300 0.8908
C8_7 C 0.25811(18) 0.1452(3) 0.91642(14)
C9_7 C 0.2736(2) 0.1680(3) 0.95953(15)
H5_7 H 0.2648 0.1320 0.9796
C10_7 C 0.30186(19) 0.2432(3) 0.97317(15)
C11_7 C 0.31406(17) 0.2979(3) 0.94420(14)
C12_7 C 0.33692(18) 0.3861(3) 0.95830(15)
C13_7 C 0.3006(2) 0.2737(3) 0.90118(16)
H7_7 H 0.3104 0.3094 0.8815
C14_7 C 0.2732(2) 0.1985(3) 0.88717(16)
H8_7 H 0.2646 0.1825 0.8580
C15_7 C 0.17812(19) 0.0693(3) 0.84156(15)
C16_7 C 0.1276(2) 0.1160(4) 0.83062(16)
H9_7 H 0.1134 0.1353 0.8527
C17_7 C 0.0971(2) 0.1351(4) 0.78785(17)
H10_7 H 0.0630 0.1677 0.7811
C18_7 C 0.1170(2) 0.1062(4) 0.75553(15)
C19_7 C 0.0853(2) 0.1267(4) 0.70949(17)
C20_7 C 0.1678(2) 0.0601(5) 0.76607(17)
H11_7 H 0.1823 0.0417 0.7440
C21_7 C 0.1976(2) 0.0408(4) 0.80842(17)
H12_7 H 0.2315 0.0078 0.8149
H14_7 H 0.3108 0.7653 0.9896
O3_7 O 0.33668(14) 0.4095(2) 0.99465(10)
O4_3 O 0.35208(14) 0.4307(2) 0.93182(10)
O8_3 O 0.35370(15) 0.6312(2) 0.97523(11)
P1_7 P 0.21567(5) 0.05096(8) 0.89754(4)
C1_7 C 0.26459(19) 0.9648(3) 0.89917(15)
C2_7 C 0.2449(2) 0.8843(4) 0.90277(18)
H1_7 H 0.2094 0.8772 0.9082
C3_7 C 0.2761(2) 0.8144(4) 0.89863(17)
H2_7 H 0.2618 0.7598 0.9007
C4_7 C 0.32910(19) 0.8245(3) 0.89131(16)
C5_7 C 0.3599(2) 0.7467(3) 0.88424(16)
C6_7 C 0.3496(2) 0.9049(3) 0.88856(18)
H3_7 H 0.3856 0.9119 0.8839
C7_7 C 0.3182(2) 0.9753(3) 0.89254(18)
O1_7 O 0.33439(14) 0.6776(2) 0.88063(11)
O2_7 O 0.41033(15) 0.7570(2) 0.88130(14)
O17_7 O 0.33191(18) 0.5029(3) 0.85303(12)
H27_7 H 0.351(3) 0.539(4) 0.8395(19)
H28_7 H 0.302(2) 0.462(4) 0.8322(18)
C29_8 C 0.6521(2) 0.0145(3) 0.39481(16)
C30_8 C 0.6853(2) 0.0876(3) 0.40217(18)
H17_8 H 0.7243 0.0846 0.4032
C31_8 C 0.66240(19) 0.1641(3) 0.40800(17)
H18_8 H 0.6859 0.2128 0.4136
C32_8 C 0.60462(19) 0.1699(3) 0.40568(15)
C33_8 C 0.5798(2) 0.2544(3) 0.41021(16)
C34_8 C 0.5716(2) 0.0975(3) 0.39907(19)
H19_8 H 0.5326 0.1010 0.3980
C35_8 C 0.5945(2) 0.0195(3) 0.39401(17)
O10_4 O 0.61334(13) 0.3137(2) 0.42588(11)
H4_8 H 0.6673 0.0300 0.6092
C8_8 C 0.74189(18) 0.1452(3) 0.58358(14)
C9_8 C 0.7264(2) 0.1680(3) 0.54047(15)
H5_8 H 0.7352 0.1320 0.5204
C10_8 C 0.69814(19) 0.2432(3) 0.52683(15)
H6_8 H 0.6870 0.2576 0.4973
C11_8 C 0.68594(17) 0.2979(3) 0.55580(14)
C12_8 C 0.66308(18) 0.3861(3) 0.54170(15)
C13_8 C 0.6994(2) 0.2737(3) 0.59882(16)
H7_8 H 0.6896 0.3094 0.6185
C14_8 C 0.7268(2) 0.1985(3) 0.61283(16)
H8_8 H 0.7354 0.1825 0.6420
C15_8 C 0.82188(19) 0.0693(3) 0.65844(15)
C16_8 C 0.8724(2) 0.1160(4) 0.66938(16)
H9_8 H 0.8866 0.1353 0.6473
C17_8 C 0.9029(2) 0.1351(4) 0.71215(17)
H10_8 H 0.9370 0.1677 0.7189
C18_8 C 0.8830(2) 0.1062(4) 0.74447(15)
C19_8 C 0.9147(2) 0.1267(4) 0.79051(17)
C20_8 C 0.8322(2) 0.0601(5) 0.73393(17)
H11_8 H 0.8177 0.0417 0.7560
C21_8 C 0.8024(2) 0.0408(4) 0.69158(17)
H12_8 H 0.7685 0.0078 0.6851
C22_8 C 0.66264(19) 0.8346(3) 0.41227(15)
C23_8 C 0.6863(2) 0.8312(4) 0.45709(17)
H13_8 H 0.7116 0.8743 0.4718
C24_8 C 0.6732(2) 0.7661(4) 0.48008(17)
H14_8 H 0.6892 0.7653 0.5104
C25_8 C 0.63671(19) 0.7012(3) 0.45925(15)
C26_8 C 0.6255(2) 0.6266(3) 0.48454(16)
C27_8 C 0.6132(2) 0.7040(3) 0.41513(16)
H15_8 H 0.5885 0.6600 0.4006
C28_8 C 0.6252(2) 0.7709(3) 0.39150(16)
H16_8 H 0.6078 0.7727 0.3613
H20_8 H 0.5716 0.9704 0.3901
C36_8 C 0.6597(2) 0.9017(3) 0.32797(16)
C37_8 C 0.6988(3) 0.8803(5) 0.3062(2)
H21_8 H 0.7378 0.8699 0.3221
C38_8 C 0.6815(3) 0.8745(5) 0.2631(2)
H22_8 H 0.7087 0.8596 0.2493
C39_8 C 0.6253(3) 0.8896(4) 0.23847(19)
C40_8 C 0.6082(3) 0.8862(5) 0.1898(2)
C41_8 C 0.5854(3) 0.9077(5) 0.25873(19)
H23_8 H 0.5465 0.9172 0.2423
C42_8 C 0.6021(2) 0.9120(5) 0.30297(18)
H24_8 H 0.5740 0.9221 0.3167
C43_8 C 0.4762(2) 0.4264(3) 0.46003(16)
H25_8 H 0.4643 0.4453 0.4833
O3_8 O 0.66332(14) 0.4095(2) 0.50535(10)
O4_4 O 0.64792(14) 0.4307(2) 0.56818(10)
O8_4 O 0.64630(15) 0.6312(2) 0.52477(11)
O9_8 O 0.59344(13) 0.5687(2) 0.46345(11)
O12_8 O 0.6403(2) 0.8661(4) 0.17076(16)
O13_8 O 0.5533(3) 0.9078(5) 0.17028(15)
H26_8 H 0.5462 0.9048 0.1436
O15_8 O 0.52796(13) 0.4086(2) 0.46828(11)
P1_8 P 0.78433(5) 0.05096(8) 0.60246(4)
P2_8 P 0.68601(5) 0.91947(8) 0.38526(4)
C1_8 C 0.73541(19) 0.9648(3) 0.60083(15)
C2_8 C 0.7551(2) 0.8843(4) 0.59723(18)
H1_8 H 0.7906 0.8772 0.5918
C3_8 C 0.7239(2) 0.8144(4) 0.60137(17)
H2_8 H 0.7382 0.7598 0.5993
C4_8 C 0.67090(19) 0.8245(3) 0.60869(16)
C5_8 C 0.6401(2) 0.7467(3) 0.61576(16)
C6_8 C 0.6504(2) 0.9049(3) 0.61144(18)
H3_8 H 0.6144 0.9119 0.6161
C7_8 C 0.6818(2) 0.9753(3) 0.60746(18)
O1_8 O 0.66561(14) 0.6776(2) 0.61937(11)
O2_8 O 0.58967(15) 0.7570(2) 0.61870(14)
O17_8 O 0.66809(18) 0.5029(3) 0.64697(12)
H27_8 H 0.649(3) 0.539(4) 0.6605(19)
H28_8 H 0.698(2) 0.462(4) 0.6678(18)
C44 C 0.0402(3) 0.1625(5) 0.0783(3)
H29 H 0.0308 0.1291 0.0520
H30 H 0.0680 0.2060 0.0775
H31 H 0.0052 0.1887 0.0806
C45 C 0.0802(4) 0.1507(6) 0.1570(3)
H32 H 0.0961 0.1087 0.1793
H33 H 0.0461 0.1762 0.1612
H34 H 0.1090 0.1942 0.1586
N1 N 0.0641(3) 0.1096(4) 0.1142(2)
H35 H 0.0964 0.0846 0.1111
H36 H 0.0381 0.0677 0.1136
C44_2 C 0.9598(3) 0.1625(5) 0.4217(3)
H29_2 H 0.9692 0.1291 0.4480
H30_2 H 0.9320 0.2060 0.4225
H31_2 H 0.9948 0.1887 0.4194
C45_2 C 0.9198(4) 0.1507(6) 0.3430(3)
H32_2 H 0.9039 0.1087 0.3207
H33_2 H 0.9539 0.1762 0.3388
H34_2 H 0.8910 0.1942 0.3414
N1_2 N 0.9359(3) 0.1096(4) 0.3858(2)
H35_2 H 0.9036 0.0846 0.3889
H36_2 H 0.9619 0.0677 0.3864
C44_3 C 0.5402(3) 0.6625(5) 0.0783(3)
H29_3 H 0.5308 0.6291 0.0520
H30_3 H 0.5680 0.7060 0.0775
H31_3 H 0.5052 0.6887 0.0806
C45_3 C 0.5802(4) 0.6507(6) 0.1570(3)
H32_3 H 0.5961 0.6087 0.1793
H33_3 H 0.5461 0.6762 0.1612
H34_3 H 0.6090 0.6942 0.1586
N1_3 N 0.5641(3) 0.6096(4) 0.1142(2)
H35_3 H 0.5964 0.5846 0.1111
H36_3 H 0.5381 0.5677 0.1136
C44_4 C 0.4598(3) 0.6625(5) 0.4217(3)
H29_4 H 0.4692 0.6291 0.4480
H30_4 H 0.4320 0.7060 0.4225
H31_4 H 0.4948 0.6887 0.4194
C45_4 C 0.4198(4) 0.6507(6) 0.3430(3)
H32_4 H 0.4039 0.6087 0.3207
H33_4 H 0.4539 0.6762 0.3388
H34_4 H 0.3910 0.6942 0.3414
N1_4 N 0.4359(3) 0.6096(4) 0.3858(2)
H35_4 H 0.4036 0.5846 0.3889
H36_4 H 0.4619 0.5677 0.3864
C44_5 C 0.9598(3) 0.8375(5) 0.9217(3)
H29_5 H 0.9692 0.8709 0.9480
H30_5 H 0.9320 0.7940 0.9225
H31_5 H 0.9948 0.8113 0.9194
C45_5 C 0.9198(4) 0.8493(6) 0.8430(3)
H32_5 H 0.9039 0.8913 0.8207
H33_5 H 0.9539 0.8238 0.8388
H34_5 H 0.8910 0.8058 0.8414
N1_5 N 0.9359(3) 0.8904(4) 0.8858(2)
H35_5 H 0.9036 0.9154 0.8889
H36_5 H 0.9619 0.9323 0.8864
C44_6 C 0.0402(3) 0.8375(5) 0.5783(3)
H29_6 H 0.0308 0.8709 0.5520
H30_6 H 0.0680 0.7940 0.5775
H31_6 H 0.0052 0.8113 0.5806
C45_6 C 0.0802(4) 0.8493(6) 0.6570(3)
H32_6 H 0.0961 0.8913 0.6793
H33_6 H 0.0461 0.8238 0.6612
H34_6 H 0.1090 0.8058 0.6586
N1_6 N 0.0641(3) 0.8904(4) 0.6142(2)
H35_6 H 0.0964 0.9154 0.6111
H36_6 H 0.0381 0.9323 0.6136
C44_7 C 0.4598(3) 0.3375(5) 0.9217(3)
H29_7 H 0.4692 0.3709 0.9480
H30_7 H 0.4320 0.2940 0.9225
H31_7 H 0.4948 0.3113 0.9194
C45_7 C 0.4198(4) 0.3493(6) 0.8430(3)
H32_7 H 0.4039 0.3913 0.8207
H33_7 H 0.4539 0.3238 0.8388
H34_7 H 0.3910 0.3058 0.8414
N1_7 N 0.4359(3) 0.3904(4) 0.8858(2)
H35_7 H 0.4036 0.4154 0.8889
H36_7 H 0.4619 0.4323 0.8864
C44_8 C 0.5402(3) 0.3375(5) 0.5783(3)
H29_8 H 0.5308 0.3709 0.5520
H30_8 H 0.5680 0.2940 0.5775
H31_8 H 0.5052 0.3113 0.5806
C45_8 C 0.5802(4) 0.3493(6) 0.6570(3)
H32_8 H 0.5961 0.3913 0.6793
H33_8 H 0.5461 0.3238 0.6612
H34_8 H 0.6090 0.3058 0.6586
N1_8 N 0.5641(3) 0.3904(4) 0.6142(2)
H35_8 H 0.5964 0.4154 0.6111
H36_8 H 0.5381 0.4323 0.6136
loop_
_geom_bond_atom_site_label_1
_geom_bond_atom_site_label_2
_geom_bond_site_symmetry_1
_geom_bond_site_symmetry_2
C1 C2 1_555 1_555
C2 H1 1_555 1_555
C3 C2 1_555 1_555
H2 C3 1_555 1_555
C4 C3 1_555 1_555
C5 C4 1_555 1_555
C6 C4 1_555 1_555
H3 C6 1_555 1_555
C7 C1 1_555 1_555
H4 C7 1_555 1_555
C8 C9 1_555 1_555
C9 H5 1_555 1_555
C10 C9 1_555 1_555
C11 C10 1_555 1_555
C12 C11 1_555 1_555
C13 C11 1_555 1_555
H7 C13 1_555 1_555
C14 C8 1_555 1_555
H8 C14 1_555 1_555
C15 C16 1_555 1_555
C16 H9 1_555 1_555
C17 C16 1_555 1_555
H10 C17 1_555 1_555
C18 C17 1_555 1_555
C19 C18 1_555 1_555
C20 C18 1_555 1_555
H11 C20 1_555 1_555
C21 C15 1_555 1_555
H12 C21 1_555 1_555
Mn2 O2 1_555 1_555
Mn3 O1 1_555 1_555
O1 C5 1_555 1_555
O2 C5 1_555 1_555
O3 C12 1_555 1_555
O18 C12 1_555 1_555
O5 C19 1_555 1_555
O6 C19 1_555 1_555
O7 P1 1_555 1_555
O17 Mn3 1_555 1_555
P1 C1 1_555 1_555
H27 O17 1_555 1_555
Mn4 O7 1_555 1_555
Mn6 O5 1_555 1_555
O19 Mn2 1_555 1_555
O20 Mn2 1_555 1_555
O22 Mn3 1_555 1_555
O25 Mn3 1_555 1_555
O26 Mn2 1_555 1_555
C6 C7 1_555 1_555
C8 P1 1_555 1_555
C13 C14 1_555 1_555
C15 P1 1_555 1_555
C20 C21 1_555 1_555
Mn3 O26 1_555 1_555
O6 Mn6 1_555 1_555
Cl1 Mn1 1_555 1_555
O21 Mn1 1_555 1_555
O23 Mn1 1_555 1_555
Mn1 O15 1_555 1_555
C22 C23 1_555 1_555
C23 H13 1_555 1_555
C24 C23 1_555 1_555
C25 C24 1_555 1_555
C26 C25 1_555 1_555
C27 C25 1_555 1_555
H15 C27 1_555 1_555
C28 C22 1_555 1_555
H16 C28 1_555 1_555
C29 C30 1_555 1_555
C30 H17 1_555 1_555
C31 C30 1_555 1_555
H18 C31 1_555 1_555
C32 C31 1_555 1_555
C33 C32 1_555 1_555
C34 C32 1_555 1_555
H19 C34 1_555 1_555
C35 C29 1_555 1_555
H20 C35 1_555 1_555
C36 C37 1_555 1_555
C37 H21 1_555 1_555
C38 C37 1_555 1_555
H22 C38 1_555 1_555
C39 C38 1_555 1_555
C40 C39 1_555 1_555
C41 C39 1_555 1_555
H23 C41 1_555 1_555
C42 C36 1_555 1_555
H24 C42 1_555 1_555
O9 C26 1_555 1_555
O23 C33 1_555 1_555
O11 C33 1_555 1_555
O12 C40 1_555 1_555
O13 C40 1_555 1_555
H26 O13 1_555 1_555
O14 P2 1_555 1_555
P2 C22 1_555 1_555
Mn10 O14 1_555 1_555
C27 C28 1_555 1_555
C29 P2 1_555 1_555
C34 C35 1_555 1_555
C36 P2 1_555 1_555
C41 C42 1_555 1_555
C43 H25 1_555 1_555
O16 C43 1_555 1_555
Mn8 O16 1_555 1_555
Mn11 O16 1_555 1_555
C43_2 H25_2 1_555 1_555
O16_2 C43_2 1_555 1_555
Mn8_2 O16_2 1_555 1_555
Mn11_2 O16_2 1_555 1_555
C1_2 C2_2 1_555 1_555
C2_2 H1_2 1_555 1_555
C3_2 C2_2 1_555 1_555
H2_2 C3_2 1_555 1_555
C4_2 C3_2 1_555 1_555
C5_2 C4_2 1_555 1_555
C6_2 C4_2 1_555 1_555
H3_2 C6_2 1_555 1_555
C7_2 C1_2 1_555 1_555
H4_2 C7_2 1_555 1_555
C8_2 C9_2 1_555 1_555
C9_2 H5_2 1_555 1_555
C10_2 C9_2 1_555 1_555
H6_2 C10_2 1_555 1_555
C11_2 C10_2 1_555 1_555
C12_2 C11_2 1_555 1_555
C13_2 C11_2 1_555 1_555
H7_2 C13_2 1_555 1_555
C14_2 C8_2 1_555 1_555
H8_2 C14_2 1_555 1_555
C15_2 C16_2 1_555 1_555
C16_2 H9_2 1_555 1_555
C17_2 C16_2 1_555 1_555
H10_2 C17_2 1_555 1_555
C18_2 C17_2 1_555 1_555
C19_2 C18_2 1_555 1_555
C20_2 C18_2 1_555 1_555
H11_2 C20_2 1_555 1_555
C21_2 C15_2 1_555 1_555
H12_2 C21_2 1_555 1_555
Mn1_2 O3_2 1_555 1_555
Mn2_2 O2_2 1_555 1_555
Mn3_2 O1_2 1_555 1_555
O1_2 C5_2 1_555 1_555
O2_2 C5_2 1_555 1_555
O3_2 C12_2 1_555 1_555
O18_2 C12_2 1_555 1_555
O5_2 C19_2 1_555 1_555
O6_2 C19_2 1_555 1_555
O7_2 P1_2 1_555 1_555
O17_2 Mn3_2 1_555 1_555
P1_2 C1_2 1_555 1_555
Cl1_2 Mn1_2 1_555 1_555
H27_2 O17_2 1_555 1_555
Mn4_2 O7_2 1_555 1_555
Mn6_2 O5_2 1_555 1_555
O19_2 Mn2_2 1_555 1_555
O20_2 Mn2_2 1_555 1_555
O21_2 Mn1_2 1_555 1_555
O22_2 Mn3_2 1_555 1_555
O23_2 Mn1_2 1_555 1_555
O25_2 Mn3_2 1_555 1_555
O26_2 Mn2_2 1_555 1_555
C6_2 C7_2 1_555 1_555
C8_2 P1_2 1_555 1_555
C13_2 C14_2 1_555 1_555
C15_2 P1_2 1_555 1_555
C20_2 C21_2 1_555 1_555
Mn1_2 O15_2 1_555 1_555
Mn3_2 O26_2 1_555 1_555
O6_2 Mn6_2 1_555 1_555
C22_2 C23_2 1_555 1_555
C23_2 H13_2 1_555 1_555
C24_2 C23_2 1_555 1_555
H14_2 C24_2 1_555 1_555
C25_2 C24_2 1_555 1_555
C26_2 C25_2 1_555 1_555
C27_2 C25_2 1_555 1_555
H15_2 C27_2 1_555 1_555
C28_2 C22_2 1_555 1_555
H16_2 C28_2 1_555 1_555
C29_2 C30_2 1_555 1_555
C30_2 H17_2 1_555 1_555
C31_2 C30_2 1_555 1_555
H18_2 C31_2 1_555 1_555
C32_2 C31_2 1_555 1_555
C33_2 C32_2 1_555 1_555
C34_2 C32_2 1_555 1_555
H19_2 C34_2 1_555 1_555
C35_2 C29_2 1_555 1_555
H20_2 C35_2 1_555 1_555
C36_2 C37_2 1_555 1_555
C37_2 H21_2 1_555 1_555
C38_2 C37_2 1_555 1_555
H22_2 C38_2 1_555 1_555
C39_2 C38_2 1_555 1_555
C40_2 C39_2 1_555 1_555
C41_2 C39_2 1_555 1_555
H23_2 C41_2 1_555 1_555
C42_2 C36_2 1_555 1_555
H24_2 C42_2 1_555 1_555
O22_2 C26_2 1_555 1_555
O9_2 C26_2 1_555 1_555
O23_2 C33_2 1_555 1_555
O11_2 C33_2 1_555 1_555
O12_2 C40_2 1_555 1_555
O13_2 C40_2 1_555 1_555
H26_2 O13_2 1_555 1_555
O14_2 P2_2 1_555 1_555
P2_2 C22_2 1_555 1_555
Mn10_2 O14_2 1_555 1_555
C27_2 C28_2 1_555 1_555
C29_2 P2_2 1_555 1_555
C34_2 C35_2 1_555 1_555
C36_2 P2_2 1_555 1_555
C41_2 C42_2 1_555 1_555
C1_3 C2_3 1_555 1_555
C2_3 H1_3 1_555 1_555
C3_3 C2_3 1_555 1_555
H2_3 C3_3 1_555 1_555
C4_3 C3_3 1_555 1_555
C5_3 C4_3 1_555 1_555
C6_3 C4_3 1_555 1_555
H3_3 C6_3 1_555 1_555
C7_3 C1_3 1_555 1_555
Mn6_2 O2_3 1_555 1_555
Mn3_3 O1_3 1_555 1_555
O1_3 C5_3 1_555 1_555
O2_3 C5_3 1_555 1_555
O17_3 Mn3_3 1_555 1_555
H27_3 O17_3 1_555 1_555
H28_3 O17_3 1_555 1_555
O18_3 Mn3_3 1_555 1_555
O22_3 Mn3_3 1_555 1_555
O24_3 Mn6_2 1_555 1_555
O25_3 Mn3_3 1_555 1_555
O26_3 Mn6_2 1_555 1_555
Cl2_3 Mn6_2 1_555 1_555
C6_3 C7_3 1_555 1_555
Mn3_3 O26_3 1_555 1_555
C8_3 C9_3 1_555 1_555
C9_3 H5_3 1_555 1_555
C10_3 C9_3 1_555 1_555
C11_3 C10_3 1_555 1_555
C12_3 C11_3 1_555 1_555
C13_3 C11_3 1_555 1_555
H7_3 C13_3 1_555 1_555
C14_3 C8_3 1_555 1_555
H8_3 C14_3 1_555 1_555
C15_3 C16_3 1_555 1_555
C16_3 H9_3 1_555 1_555
C17_3 C16_3 1_555 1_555
H10_3 C17_3 1_555 1_555
C18_3 C17_3 1_555 1_555
C19_3 C18_3 1_555 1_555
C20_3 C18_3 1_555 1_555
H11_3 C20_3 1_555 1_555
C21_3 C15_3 1_555 1_555
H12_3 C21_3 1_555 1_555
O3_3 C12_3 1_555 1_555
O18_3 C12_3 1_555 1_555
O19_2 C19_3 1_555 1_555
O20_2 C19_3 1_555 1_555
O7_3 P1_3 1_555 1_555
Mn4_3 O7_3 1_555 1_555
C8_3 P1_3 1_555 1_555
C13_3 C14_3 1_555 1_555
C15_3 P1_3 1_555 1_555
C20_3 C21_3 1_555 1_555
C22_3 C23_3 1_555 1_555
C23_3 H13_3 1_555 1_555
C24_3 C23_3 1_555 1_555
C25_3 C24_3 1_555 1_555
C26_3 C25_3 1_555 1_555
C27_3 C25_3 1_555 1_555
H15_3 C27_3 1_555 1_555
C28_3 C22_3 1_555 1_555
H16_3 C28_3 1_555 1_555
C36_3 C37_3 1_555 1_555
C37_3 H21_3 1_555 1_555
C38_3 C37_3 1_555 1_555
H22_3 C38_3 1_555 1_555
C39_3 C38_3 1_555 1_555
C40_3 C39_3 1_555 1_555
C41_3 C39_3 1_555 1_555
H23_3 C41_3 1_555 1_555
C42_3 C36_3 1_555 1_555
H24_3 C42_3 1_555 1_555
C43_3 H25_3 1_555 1_555
O9_3 C26_3 1_555 1_555
O12_3 C40_3 1_555 1_555
O13_3 C40_3 1_555 1_555
H26_3 O13_3 1_555 1_555
O14_3 P2_3 1_555 1_555
O15_3 C43_3 1_555 1_555
O16_3 C43_3 1_555 1_555
P2_3 C22_3 1_555 1_555
Cl1_3 Mn1_3 1_555 1_555
Mn8_3 O16_3 1_555 1_555
Mn11 O14_3 1_555 1_555
Mn10 O16_3 1_555 1_555
O21_3 Mn1_3 1_555 1_555
O23_3 Mn1_3 1_555 1_555
C27_3 C28_3 1_555 1_555
C36_3 P2_3 1_555 1_555
C41_3 C42_3 1_555 1_555
Mn1_3 O9_3 1_555 1_555
Mn1_3 O15_3 1_555 1_555
Cl1_3 Mn8_3 1_555 1_555
C29_3 C30_3 1_555 1_555
C30_3 H17_3 1_555 1_555
C31_3 C30_3 1_555 1_555
H18_3 C31_3 1_555 1_555
C32_3 C31_3 1_555 1_555
C33_3 C32_3 1_555 1_555
C34_3 C32_3 1_555 1_555
H19_3 C34_3 1_555 1_555
C35_3 C29_3 1_555 1_555
O23_3 C33_3 1_555 1_555
O11_3 C33_3 1_555 1_555
Mn8_3 O11_3 1_555 1_555
C34_3 C35_3 1_555 1_555
C1_4 C2_4 1_555 1_555
C2_4 H1_4 1_555 1_555
C3_4 C2_4 1_555 1_555
H2_4 C3_4 1_555 1_555
C4_4 C3_4 1_555 1_555
C5_4 C4_4 1_555 1_555
C6_4 C4_4 1_555 1_555
H3_4 C6_4 1_555 1_555
C7_4 C1_4 1_555 1_555
Mn6 O2_4 1_555 1_555
Mn3_4 O1_4 1_555 1_555
O1_4 C5_4 1_555 1_555
O2_4 C5_4 1_555 1_555
O17_4 Mn3_4 1_555 1_555
H27_4 O17_4 1_555 1_555
H28_4 O17_4 1_555 1_555
O18_4 Mn3_4 1_555 1_555
O22_4 Mn3_4 1_555 1_555
O24_4 Mn6 1_555 1_555
O25_4 Mn3_4 1_555 1_555
O26_4 Mn6 1_555 1_555
Cl2_4 Mn6 1_555 1_555
C6_4 C7_4 1_555 1_555
Mn3_4 O26_4 1_555 1_555
C8_4 C9_4 1_555 1_555
C9_4 H5_4 1_555 1_555
C10_4 C9_4 1_555 1_555
H6_4 C10_4 1_555 1_555
C11_4 C10_4 1_555 1_555
C12_4 C11_4 1_555 1_555
C13_4 C11_4 1_555 1_555
H7_4 C13_4 1_555 1_555
C14_4 C8_4 1_555 1_555
H8_4 C14_4 1_555 1_555
C15_4 C16_4 1_555 1_555
C16_4 H9_4 1_555 1_555
C17_4 C16_4 1_555 1_555
H10_4 C17_4 1_555 1_555
C18_4 C17_4 1_555 1_555
C19_4 C18_4 1_555 1_555
C20_4 C18_4 1_555 1_555
H11_4 C20_4 1_555 1_555
C21_4 C15_4 1_555 1_555
H12_4 C21_4 1_555 1_555
C22_4 C23_4 1_555 1_555
C23_4 H13_4 1_555 1_555
C24_4 C23_4 1_555 1_555
H14_4 C24_4 1_555 1_555
C25_4 C24_4 1_555 1_555
C26_4 C25_4 1_555 1_555
C27_4 C25_4 1_555 1_555
H15_4 C27_4 1_555 1_555
C28_4 C22_4 1_555 1_555
H16_4 C28_4 1_555 1_555
C36_4 C37_4 1_555 1_555
C37_4 H21_4 1_555 1_555
C38_4 C37_4 1_555 1_555
H22_4 C38_4 1_555 1_555
C39_4 C38_4 1_555 1_555
C40_4 C39_4 1_555 1_555
C41_4 C39_4 1_555 1_555
H23_4 C41_4 1_555 1_555
C42_4 C36_4 1_555 1_555
H24_4 C42_4 1_555 1_555
C43_4 H25_4 1_555 1_555
Mn1_4 O3_4 1_555 1_555
O3_4 C12_4 1_555 1_555
O18_4 C12_4 1_555 1_555
O19 C19_4 1_555 1_555
O20 C19_4 1_555 1_555
O7_4 P1_4 1_555 1_555
O22_4 C26_4 1_555 1_555
O9_4 C26_4 1_555 1_555
O12_4 C40_4 1_555 1_555
O13_4 C40_4 1_555 1_555
H26_4 O13_4 1_555 1_555
O14_4 P2_4 1_555 1_555
O15_4 C43_4 1_555 1_555
O16_4 C43_4 1_555 1_555
P2_4 C22_4 1_555 1_555
Cl1_4 Mn1_4 1_555 1_555
Mn4_4 O7_4 1_555 1_555
Mn8_4 O16_4 1_555 1_555
Mn11_2 O14_4 1_555 1_555
Mn10_2 O16_4 1_555 1_555
O21_4 Mn1_4 1_555 1_555
O23_4 Mn1_4 1_555 1_555
C8_4 P1_4 1_555 1_555
C13_4 C14_4 1_555 1_555
C15_4 P1_4 1_555 1_555
C20_4 C21_4 1_555 1_555
C27_4 C28_4 1_555 1_555
C36_4 P2_4 1_555 1_555
C41_4 C42_4 1_555 1_555
Mn1_4 O9_4 1_555 1_555
Mn1_4 O15_4 1_555 1_555
Cl1_4 Mn8_4 1_555 1_555
C29_4 C30_4 1_555 1_555
C30_4 H17_4 1_555 1_555
C31_4 C30_4 1_555 1_555
H18_4 C31_4 1_555 1_555
C32_4 C31_4 1_555 1_555
C33_4 C32_4 1_555 1_555
C34_4 C32_4 1_555 1_555
H19_4 C34_4 1_555 1_555
C35_4 C29_4 1_555 1_555
O23_4 C33_4 1_555 1_555
O11_4 C33_4 1_555 1_555
Mn8_4 O11_4 1_555 1_555
C34_4 C35_4 1_555 1_555
C43_5 H25_5 1_555 1_555
O26 C43_5 1_555 1_555
C22_5 C23_5 1_555 1_555
C23_5 H13_5 1_555 1_555
C24_5 C23_5 1_555 1_555
C25_5 C24_5 1_555 1_555
C26_5 C25_5 1_555 1_555
C27_5 C25_5 1_555 1_555
H15_5 C27_5 1_555 1_555
C28_5 C22_5 1_555 1_555
H16_5 C28_5 1_555 1_555
C29_5 C30_5 1_555 1_555
C30_5 H17_5 1_555 1_555
C31_5 C30_5 1_555 1_555
H18_5 C31_5 1_555 1_555
C32_5 C31_5 1_555 1_555
C33_5 C32_5 1_555 1_555
C34_5 C32_5 1_555 1_555
H19_5 C34_5 1_555 1_555
C35_5 C29_5 1_555 1_555
H20_5 C35_5 1_555 1_555
C36_5 C37_5 1_555 1_555
C37_5 H21_5 1_555 1_555
C38_5 C37_5 1_555 1_555
H22_5 C38_5 1_555 1_555
C39_5 C38_5 1_555 1_555
C40_5 C39_5 1_555 1_555
C41_5 C39_5 1_555 1_555
H23_5 C41_5 1_555 1_555
C42_5 C36_5 1_555 1_555
H24_5 C42_5 1_555 1_555
O9_5 C26_5 1_555 1_555
O10 C33_5 1_555 1_555
O24 C33_5 1_555 1_555
O12_5 C40_5 1_555 1_555
O13_5 C40_5 1_555 1_555
H26_5 O13_5 1_555 1_555
O25_3 P2_5 1_555 1_555
P2_5 C22_5 1_555 1_555
Mn4_3 O10 1_555 1_555
C27_5 C28_5 1_555 1_555
C29_5 P2_5 1_555 1_555
C34_5 C35_5 1_555 1_555
C36_5 P2_5 1_555 1_555
C41_5 C42_5 1_555 1_555
O8 Mn11 1_555 1_555
Cl2 Mn4_3 1_555 1_555
Mn4_3 O15_5 1_555 1_555
C1_5 C2_5 1_555 1_555
C2_5 H1_5 1_555 1_555
C3_5 C2_5 1_555 1_555
H2_5 C3_5 1_555 1_555
C4_5 C3_5 1_555 1_555
C5_5 C4_5 1_555 1_555
C6_5 C4_5 1_555 1_555
H3_5 C6_5 1_555 1_555
C7_5 C1_5 1_555 1_555
H4_5 C7_5 1_555 1_555
C8_5 C9_5 1_555 1_555
C9_5 H5_5 1_555 1_555
C10_5 C9_5 1_555 1_555
C11_5 C10_5 1_555 1_555
C12_5 C11_5 1_555 1_555
C13_5 C11_5 1_555 1_555
H7_5 C13_5 1_555 1_555
C14_5 C8_5 1_555 1_555
H8_5 C14_5 1_555 1_555
C15_5 C16_5 1_555 1_555
C16_5 H9_5 1_555 1_555
C17_5 C16_5 1_555 1_555
H10_5 C17_5 1_555 1_555
C18_5 C17_5 1_555 1_555
C19_5 C18_5 1_555 1_555
C20_5 C18_5 1_555 1_555
H11_5 C20_5 1_555 1_555
C21_5 C15_5 1_555 1_555
H12_5 C21_5 1_555 1_555
Mn8 O2_5 1_555 1_555
Mn11 O1_5 1_555 1_555
O1_5 C5_5 1_555 1_555
O2_5 C5_5 1_555 1_555
O3_5 C12_5 1_555 1_555
O4 C12_5 1_555 1_555
O5_3 C19_5 1_555 1_555
O6_3 C19_5 1_555 1_555
O21_3 P1_5 1_555 1_555
O17_5 Mn11 1_555 1_555
P1_5 C1_5 1_555 1_555
H27_5 O17_5 1_555 1_555
Mn8_4 O5_3 1_555 1_555
O19_3 Mn8 1_555 1_555
O20_3 Mn8 1_555 1_555
C6_5 C7_5 1_555 1_555
C8_5 P1_5 1_555 1_555
C13_5 C14_5 1_555 1_555
C15_5 P1_5 1_555 1_555
C20_5 C21_5 1_555 1_555
O6_3 Mn8_4 1_555 1_555
C22_6 C23_6 1_555 1_555
C23_6 H13_6 1_555 1_555
C24_6 C23_6 1_555 1_555
H14_6 C24_6 1_555 1_555
C25_6 C24_6 1_555 1_555
C26_6 C25_6 1_555 1_555
C27_6 C25_6 1_555 1_555
H15_6 C27_6 1_555 1_555
C28_6 C22_6 1_555 1_555
H16_6 C28_6 1_555 1_555
C29_6 C30_6 1_555 1_555
C30_6 H17_6 1_555 1_555
C31_6 C30_6 1_555 1_555
H18_6 C31_6 1_555 1_555
C32_6 C31_6 1_555 1_555
C33_6 C32_6 1_555 1_555
C34_6 C32_6 1_555 1_555
H19_6 C34_6 1_555 1_555
C35_6 C29_6 1_555 1_555
H20_6 C35_6 1_555 1_555
C36_6 C37_6 1_555 1_555
C37_6 H21_6 1_555 1_555
C38_6 C37_6 1_555 1_555
H22_6 C38_6 1_555 1_555
C39_6 C38_6 1_555 1_555
C40_6 C39_6 1_555 1_555
C41_6 C39_6 1_555 1_555
H23_6 C41_6 1_555 1_555
C42_6 C36_6 1_555 1_555
H24_6 C42_6 1_555 1_555
O8_2 C26_6 1_555 1_555
O9_6 C26_6 1_555 1_555
O10_2 C33_6 1_555 1_555
O24_2 C33_6 1_555 1_555
O12_6 C40_6 1_555 1_555
O13_6 C40_6 1_555 1_555
H26_6 O13_6 1_555 1_555
O25_4 P2_6 1_555 1_555
P2_6 C22_6 1_555 1_555
Mn4_4 O10_2 1_555 1_555
C27_6 C28_6 1_555 1_555
C29_6 P2_6 1_555 1_555
C34_6 C35_6 1_555 1_555
C36_6 P2_6 1_555 1_555
C41_6 C42_6 1_555 1_555
O8_2 Mn11_2 1_555 1_555
C1_6 C2_6 1_555 1_555
C2_6 H1_6 1_555 1_555
C3_6 C2_6 1_555 1_555
H2_6 C3_6 1_555 1_555
C4_6 C3_6 1_555 1_555
C5_6 C4_6 1_555 1_555
C6_6 C4_6 1_555 1_555
H3_6 C6_6 1_555 1_555
C7_6 C1_6 1_555 1_555
H4_6 C7_6 1_555 1_555
C8_6 C9_6 1_555 1_555
C9_6 H5_6 1_555 1_555
C10_6 C9_6 1_555 1_555
H6_6 C10_6 1_555 1_555
C11_6 C10_6 1_555 1_555
C12_6 C11_6 1_555 1_555
C13_6 C11_6 1_555 1_555
H7_6 C13_6 1_555 1_555
C14_6 C8_6 1_555 1_555
H8_6 C14_6 1_555 1_555
C15_6 C16_6 1_555 1_555
C16_6 H9_6 1_555 1_555
C17_6 C16_6 1_555 1_555
H10_6 C17_6 1_555 1_555
C18_6 C17_6 1_555 1_555
C19_6 C18_6 1_555 1_555
C20_6 C18_6 1_555 1_555
H11_6 C20_6 1_555 1_555
C21_6 C15_6 1_555 1_555
H12_6 C21_6 1_555 1_555
Mn4_4 O3_6 1_555 1_555
Mn8_2 O2_6 1_555 1_555
Mn11_2 O1_6 1_555 1_555
O1_6 C5_6 1_555 1_555
O2_6 C5_6 1_555 1_555
O3_6 C12_6 1_555 1_555
O4_2 C12_6 1_555 1_555
O5_4 C19_6 1_555 1_555
O6_4 C19_6 1_555 1_555
O21_4 P1_6 1_555 1_555
O17_6 Mn11_2 1_555 1_555
P1_6 C1_6 1_555 1_555
Cl2_2 Mn4_4 1_555 1_555
H27_6 O17_6 1_555 1_555
Mn8_3 O5_4 1_555 1_555
O19_4 Mn8_2 1_555 1_555
O20_4 Mn8_2 1_555 1_555
C6_6 C7_6 1_555 1_555
C8_6 P1_6 1_555 1_555
C13_6 C14_6 1_555 1_555
C15_6 P1_6 1_555 1_555
C20_6 C21_6 1_555 1_555
Mn4_4 O15_6 1_555 1_555
O6_4 Mn8_3 1_555 1_555
C43_6 H25_6 1_555 1_555
O26_2 C43_6 1_555 1_555
C29_7 C30_7 1_555 1_555
C30_7 H17_7 1_555 1_555
C31_7 C30_7 1_555 1_555
H18_7 C31_7 1_555 1_555
C32_7 C31_7 1_555 1_555
C33_7 C32_7 1_555 1_555
C34_7 C32_7 1_555 1_555
H19_7 C34_7 1_555 1_555
C35_7 C29_7 1_555 1_555
O10_3 C33_7 1_555 1_555
O24_3 C33_7 1_555 1_555
Mn4 O10_3 1_555 1_555
C34_7 C35_7 1_555 1_555
C22_7 C23_7 1_555 1_555
C23_7 H13_7 1_555 1_555
C24_7 C23_7 1_555 1_555
C25_7 C24_7 1_555 1_555
C26_7 C25_7 1_555 1_555
C27_7 C25_7 1_555 1_555
H15_7 C27_7 1_555 1_555
C28_7 C22_7 1_555 1_555
H16_7 C28_7 1_555 1_555
C36_7 C37_7 1_555 1_555
C37_7 H21_7 1_555 1_555
C38_7 C37_7 1_555 1_555
H22_7 C38_7 1_555 1_555
C39_7 C38_7 1_555 1_555
C40_7 C39_7 1_555 1_555
C41_7 C39_7 1_555 1_555
H23_7 C41_7 1_555 1_555
C42_7 C36_7 1_555 1_555
H24_7 C42_7 1_555 1_555
C43_7 H25_7 1_555 1_555
O9_7 C26_7 1_555 1_555
O12_7 C40_7 1_555 1_555
O13_7 C40_7 1_555 1_555
H26_7 O13_7 1_555 1_555
O25 P2_7 1_555 1_555
O15_7 C43_7 1_555 1_555
O26_3 C43_7 1_555 1_555
P2_7 C22_7 1_555 1_555
Cl2_3 Mn4 1_555 1_555
C27_7 C28_7 1_555 1_555
C36_7 P2_7 1_555 1_555
C41_7 C42_7 1_555 1_555
Mn4 O9_7 1_555 1_555
Mn4 O15_7 1_555 1_555
C8_7 C9_7 1_555 1_555
C9_7 H5_7 1_555 1_555
C10_7 C9_7 1_555 1_555
C11_7 C10_7 1_555 1_555
C12_7 C11_7 1_555 1_555
C13_7 C11_7 1_555 1_555
H7_7 C13_7 1_555 1_555
C14_7 C8_7 1_555 1_555
H8_7 C14_7 1_555 1_555
C15_7 C16_7 1_555 1_555
C16_7 H9_7 1_555 1_555
C17_7 C16_7 1_555 1_555
H10_7 C17_7 1_555 1_555
C18_7 C17_7 1_555 1_555
C19_7 C18_7 1_555 1_555
C20_7 C18_7 1_555 1_555
H11_7 C20_7 1_555 1_555
C21_7 C15_7 1_555 1_555
H12_7 C21_7 1_555 1_555
O3_7 C12_7 1_555 1_555
O4_3 C12_7 1_555 1_555
O19_4 C19_7 1_555 1_555
O20_4 C19_7 1_555 1_555
O21 P1_7 1_555 1_555
Mn10 O4_3 1_555 1_555
C8_7 P1_7 1_555 1_555
C13_7 C14_7 1_555 1_555
C15_7 P1_7 1_555 1_555
C20_7 C21_7 1_555 1_555
O8_3 Mn10 1_555 1_555
C1_7 C2_7 1_555 1_555
C2_7 H1_7 1_555 1_555
C3_7 C2_7 1_555 1_555
H2_7 C3_7 1_555 1_555
C4_7 C3_7 1_555 1_555
C5_7 C4_7 1_555 1_555
C6_7 C4_7 1_555 1_555
H3_7 C6_7 1_555 1_555
C7_7 C1_7 1_555 1_555
Mn8_3 O2_7 1_555 1_555
Mn10 O1_7 1_555 1_555
O1_7 C5_7 1_555 1_555
O2_7 C5_7 1_555 1_555
O17_7 Mn10 1_555 1_555
H27_7 O17_7 1_555 1_555
H28_7 O17_7 1_555 1_555
C6_7 C7_7 1_555 1_555
C29_8 C30_8 1_555 1_555
C30_8 H17_8 1_555 1_555
C31_8 C30_8 1_555 1_555
H18_8 C31_8 1_555 1_555
C32_8 C31_8 1_555 1_555
C33_8 C32_8 1_555 1_555
C34_8 C32_8 1_555 1_555
H19_8 C34_8 1_555 1_555
C35_8 C29_8 1_555 1_555
O10_4 C33_8 1_555 1_555
O24_4 C33_8 1_555 1_555
Mn4_2 O10_4 1_555 1_555
C34_8 C35_8 1_555 1_555
C8_8 C9_8 1_555 1_555
C9_8 H5_8 1_555 1_555
C10_8 C9_8 1_555 1_555
H6_8 C10_8 1_555 1_555
C11_8 C10_8 1_555 1_555
C12_8 C11_8 1_555 1_555
C13_8 C11_8 1_555 1_555
H7_8 C13_8 1_555 1_555
C14_8 C8_8 1_555 1_555
H8_8 C14_8 1_555 1_555
C15_8 C16_8 1_555 1_555
C16_8 H9_8 1_555 1_555
C17_8 C16_8 1_555 1_555
H10_8 C17_8 1_555 1_555
C18_8 C17_8 1_555 1_555
C19_8 C18_8 1_555 1_555
C20_8 C18_8 1_555 1_555
H11_8 C20_8 1_555 1_555
C21_8 C15_8 1_555 1_555
H12_8 C21_8 1_555 1_555
C22_8 C23_8 1_555 1_555
C23_8 H13_8 1_555 1_555
C24_8 C23_8 1_555 1_555
H14_8 C24_8 1_555 1_555
C25_8 C24_8 1_555 1_555
C26_8 C25_8 1_555 1_555
C27_8 C25_8 1_555 1_555
H15_8 C27_8 1_555 1_555
C28_8 C22_8 1_555 1_555
H16_8 C28_8 1_555 1_555
C36_8 C37_8 1_555 1_555
C37_8 H21_8 1_555 1_555
C38_8 C37_8 1_555 1_555
H22_8 C38_8 1_555 1_555
C39_8 C38_8 1_555 1_555
C40_8 C39_8 1_555 1_555
C41_8 C39_8 1_555 1_555
H23_8 C41_8 1_555 1_555
C42_8 C36_8 1_555 1_555
H24_8 C42_8 1_555 1_555
C43_8 H25_8 1_555 1_555
Mn4_2 O3_8 1_555 1_555
O3_8 C12_8 1_555 1_555
O4_4 C12_8 1_555 1_555
O19_3 C19_8 1_555 1_555
O20_3 C19_8 1_555 1_555
O21_2 P1_8 1_555 1_555
O8_4 C26_8 1_555 1_555
O9_8 C26_8 1_555 1_555
O12_8 C40_8 1_555 1_555
O13_8 C40_8 1_555 1_555
H26_8 O13_8 1_555 1_555
O25_2 P2_8 1_555 1_555
O15_8 C43_8 1_555 1_555
O26_4 C43_8 1_555 1_555
P2_8 C22_8 1_555 1_555
Cl2_4 Mn4_2 1_555 1_555
Mn10_2 O4_4 1_555 1_555
C8_8 P1_8 1_555 1_555
C13_8 C14_8 1_555 1_555
C15_8 P1_8 1_555 1_555
C20_8 C21_8 1_555 1_555
C27_8 C28_8 1_555 1_555
C36_8 P2_8 1_555 1_555
C41_8 C42_8 1_555 1_555
Mn4_2 O9_8 1_555 1_555
Mn4_2 O15_8 1_555 1_555
O8_4 Mn10_2 1_555 1_555
C1_8 C2_8 1_555 1_555
C2_8 H1_8 1_555 1_555
C3_8 C2_8 1_555 1_555
H2_8 C3_8 1_555 1_555
C4_8 C3_8 1_555 1_555
C5_8 C4_8 1_555 1_555
C6_8 C4_8 1_555 1_555
H3_8 C6_8 1_555 1_555
C7_8 C1_8 1_555 1_555
Mn8_4 O2_8 1_555 1_555
Mn10_2 O1_8 1_555 1_555
O1_8 C5_8 1_555 1_555
O2_8 C5_8 1_555 1_555
O17_8 Mn10_2 1_555 1_555
H27_8 O17_8 1_555 1_555
H28_8 O17_8 1_555 1_555
C6_8 C7_8 1_555 1_555
C44 H29 1_555 1_555
H30 C44 1_555 1_555
H31 C44 1_555 1_555
C45 H32 1_555 1_555
H33 C45 1_555 1_555
H34 C45 1_555 1_555
N1 C44 1_555 1_555
H35 N1 1_555 1_555
H36 N1 1_555 1_555
C45 N1 1_555 1_555
C44_2 H29_2 1_555 1_555
H30_2 C44_2 1_555 1_555
H31_2 C44_2 1_555 1_555
C45_2 H32_2 1_555 1_555
H33_2 C45_2 1_555 1_555
H34_2 C45_2 1_555 1_555
N1_2 C44_2 1_555 1_555
H35_2 N1_2 1_555 1_555
H36_2 N1_2 1_555 1_555
C45_2 N1_2 1_555 1_555
C44_3 H29_3 1_555 1_555
H30_3 C44_3 1_555 1_555
H31_3 C44_3 1_555 1_555
C45_3 H32_3 1_555 1_555
H33_3 C45_3 1_555 1_555
H34_3 C45_3 1_555 1_555
N1_3 C44_3 1_555 1_555
H35_3 N1_3 1_555 1_555
H36_3 N1_3 1_555 1_555
C45_3 N1_3 1_555 1_555
C44_4 H29_4 1_555 1_555
H30_4 C44_4 1_555 1_555
H31_4 C44_4 1_555 1_555
C45_4 H32_4 1_555 1_555
H33_4 C45_4 1_555 1_555
H34_4 C45_4 1_555 1_555
N1_4 C44_4 1_555 1_555
H35_4 N1_4 1_555 1_555
H36_4 N1_4 1_555 1_555
C45_4 N1_4 1_555 1_555
C44_5 H29_5 1_555 1_555
H30_5 C44_5 1_555 1_555
H31_5 C44_5 1_555 1_555
C45_5 H32_5 1_555 1_555
H33_5 C45_5 1_555 1_555
H34_5 C45_5 1_555 1_555
N1_5 C44_5 1_555 1_555
H35_5 N1_5 1_555 1_555
H36_5 N1_5 1_555 1_555
C45_5 N1_5 1_555 1_555
C44_6 H29_6 1_555 1_555
H30_6 C44_6 1_555 1_555
H31_6 C44_6 1_555 1_555
C45_6 H32_6 1_555 1_555
H33_6 C45_6 1_555 1_555
H34_6 C45_6 1_555 1_555
N1_6 C44_6 1_555 1_555
H35_6 N1_6 1_555 1_555
H36_6 N1_6 1_555 1_555
C45_6 N1_6 1_555 1_555
C44_7 H29_7 1_555 1_555
H30_7 C44_7 1_555 1_555
H31_7 C44_7 1_555 1_555
C45_7 H32_7 1_555 1_555
H33_7 C45_7 1_555 1_555
H34_7 C45_7 1_555 1_555
N1_7 C44_7 1_555 1_555
H35_7 N1_7 1_555 1_555
H36_7 N1_7 1_555 1_555
C45_7 N1_7 1_555 1_555
C44_8 H29_8 1_555 1_555
H30_8 C44_8 1_555 1_555
H31_8 C44_8 1_555 1_555
C45_8 H32_8 1_555 1_555
H33_8 C45_8 1_555 1_555
H34_8 C45_8 1_555 1_555
N1_8 C44_8 1_555 1_555
H35_8 N1_8 1_555 1_555
H36_8 N1_8 1_555 1_555
C45_8 N1_8 1_555 1_555

#END
