
###############################################################################
#
# This file contains modified crystal structure data generated from the
# MOF subset of the Cambridge Structural Database (CSD) v543 
# hosted by the Cambridge Crystallographic Data Centre (CCDC).
#
# This work is licensed under the Creative Commons
# Attribution-NonCommercial-ShareAlike 4.0 International License.
# To view a copy of this license, visit
# http://creativecommons.org/licenses/by-nc-sa/4.0/
# or send a letter to
# Creative Commons, PO Box 1866, Mountain View, CA 94042, USA.
#
# CIF created using the CSD Python API on 29 September 2022
# The structure has been converted into the P1 space group
# The structure has a 3D framework
# The original CSD entry BEMWAV is in the monoclinic crystal system
# The framework has been calculated to contain at least 10.0% void space
# The void calculation uses a probe of radius 1.32A, grid spacing 0.4
# H atom positions have been added when not included in the experimental data
#
###############################################################################

data_BEMWAV
_chemical_formula_moiety         '(C220 H172 Cd6 N32 O52)n'
_symmetry_cell_setting           triclinic
_symmetry_space_group_name_H-M   'P 1'
_symmetry_Int_Tables_number      1
_space_group_name_Hall           'P 1'
loop_
_symmetry_equiv_pos_site_id
_symmetry_equiv_pos_as_xyz
1 x,y,z
_cell_length_a                   10.7456(5)
_cell_length_b                   36.5825(16)
_cell_length_c                   15.7867(7)
_cell_angle_alpha                90
_cell_angle_beta                 98.1640(10)
_cell_angle_gamma                90
_cell_volume                     6142.87
loop_
_atom_site_label
_atom_site_type_symbol
_atom_site_fract_x
_atom_site_fract_y
_atom_site_fract_z
N2 N 0.0275(4) 0.48011(12) 0.1887(3)
H14 H 0.0187 0.4286 0.2054
H15 H 0.0100 0.5319 0.1892
Cd3 Cd 0.15103(3) 0.477979(8) 0.077330(18)
H29 H 0.0070 0.3981 0.0546
C55 C 0.033(3) 0.1739(7) 0.2554(13)
O14 O 0.0294(4) 0.53879(10) 0.0141(2)
O15 O 0.2128(4) 0.53743(9) 0.0910(3)
O16 O 0.3403(3) 0.46523(9) 0.1744(2)
O17 O 0.2164(3) 0.41924(9) 0.1310(2)
H38 H 0.0668203 0.159998 0.315251
H39 H 0.107284 0.191224 0.237247
H41 H 0.0444561 0.0908401 0.181961
H42 H 0.0355344 0.106555 0.287528
H3 H 0.5335 0.0038 0.6451
H5 H 0.6567 0.0142 0.5365
H9 H 0.3622 0.0154 0.8408
H10 H 0.2450 0.0159 0.9577
O14_2 O 0.9706(4) 0.03879(10) 0.4859(2)
O15_2 O 0.7872(4) 0.03743(9) 0.4090(3)
Cd1 Cd 0.84897(3) 0.977979(8) 0.422670(18)
N1 N 0.7345(4) 0.96631(12) 0.5356(3)
C1 C 0.7372(6) 0.93429(15) 0.5744(4)
H1 H 0.7891 0.9162 0.5574
C2 C 0.6669(6) 0.92620(16) 0.6390(4)
H2 H 0.6725 0.9032 0.6643
C3 C 0.5891(6) 0.95223(15) 0.6653(3)
C4 C 0.5844(7) 0.98540(18) 0.6283(4)
N5 N 0.4391(5) 0.96714(13) 0.7601(3)
H4 H 0.4251 0.9860 0.7276
C5 C 0.6599(7) 0.99132(17) 0.5624(4)
C6 C 0.5192(7) 0.94221(16) 0.7388(4)
N7 N 0.8497(4) 0.72815(15) 0.8766(3)
H7 H 0.9297 0.7289 0.8918
C7 C 0.3750(6) 0.96481(16) 0.8327(4)
C8 C 0.3422(17) 0.9933(5) 0.8643(10)
O9 O 0.5423(8) 0.91427(15) 0.7765(4)
C9 C 0.2722(17) 0.9936(5) 0.9383(10)
C10 C 0.2490(7) 0.9654(2) 0.9749(4)
O11 O 0.6954(4) 0.73090(15) 0.7657(3)
C11 C 0.2664(12) 0.9343(3) 0.9356(7)
H11 H 0.2387 0.9124 0.9566
C12 C 0.3266(13) 0.9342(3) 0.8620(7)
H12 H 0.3332 0.9123 0.8328
C19 C 0.9433(7) 0.7120(3) 0.5924(4)
H17 H 0.9111 0.7058 0.5364
C20 C 0.8596(7) 0.7156(3) 0.6509(5)
H18 H 0.7741 0.7118 0.6339
C21 C 0.9023(5) 0.72477(14) 0.7330(3)
C24 C 0.8060(5) 0.72862(15) 0.7936(3)
C25 C 0.7705(5) 0.7265(2) 0.9415(3)
C26 C 0.6727(6) 0.7503(2) 0.9444(3)
H21 H 0.6562 0.7687 0.9037
H29_2 H 0.9930 0.8981 0.4454
C55_2 C 0.967(3) 0.6739(7) 0.2446(13)
N10 N 0.9725(4) 0.98011(12) 0.3113(3)
O16_2 O 0.6597(3) 0.96523(9) 0.3256(2)
O17_2 O 0.7836(3) 0.91924(9) 0.3690(2)
H38_2 H 0.93318 0.659998 0.184749
H39_2 H 0.892716 0.691224 0.262753
H41_2 H 0.955544 0.59084 0.318039
H42_2 H 0.964466 0.606555 0.212472
H14_2 H 0.9813 0.9286 0.2946
Cd2 Cd 0.20473(3) 0.785463(8) 0.011607(18)
O3 O 0.2710(3) 0.72614(9) 0.0589(3)
N3 N 0.0648(4) 0.78325(11) 0.1109(2)
O5 O 0.2711(4) 0.84630(10) 0.0575(2)
O6 O 0.3840(4) 0.79987(10) 0.1130(2)
C22 C 0.0241(7) 0.7727(3) 0.2525(4)
H19 H 0.0601 0.7679 0.3085
C23 C 0.0996(7) 0.7771(4) 0.1885(4)
H20 H 0.1859 0.7753 0.2055
C37 C 0.1253(5) 0.55441(12) 0.0494(3)
C38 C 0.1362(4) 0.59498(11) 0.0419(3)
C41 C 0.1655(4) 0.67013(11) 0.0230(3)
C42 C 0.2407(5) 0.65117(13) 0.0853(3)
H31 H 0.3012 0.6637 0.1223
C43 C 0.2284(5) 0.61383(13) 0.0944(3)
H32 H 0.2823 0.6014 0.1358
C44 C 0.1833(4) 0.71062(11) 0.0112(3)
C45 C 0.3625(5) 0.83316(14) 0.1076(3)
C46 C 0.4473(5) 0.85925(13) 0.1627(3)
C47 C 0.4208(5) 0.89606(14) 0.1637(3)
H33 H 0.3502 0.9052 0.1293
C48 C 0.4981(5) 0.91954(13) 0.2154(3)
H34 H 0.4782 0.9443 0.2161
C49 C 0.6046(4) 0.90687(12) 0.2663(3)
C50 C 0.6328(5) 0.86931(14) 0.2645(4)
H35 H 0.7044 0.8601 0.2978
C51 C 0.5532(5) 0.84615(14) 0.2129(4)
H36 H 0.5716 0.8213 0.2121
C52 C 0.6884(4) 0.93193(13) 0.3242(3)
N4 N 0.6814(4) 0.29063(11) 0.6048(2)
N6 N 0.8183(6) 0.03375(16) 0.9540(3)
H6 H 0.8851 0.0470 0.9576
N8 N 0.4593(4) 0.28216(17) 0.8665(3)
H8 H 0.5239 0.2680 0.8727
O12 O 0.3643(8) 0.3263(2) 0.7848(5)
C13 C 0.7892(8) 0.0149(2) 0.8832(5)
C14 C 0.8799(7) 0.01755(19) 0.8188(4)
C15 C 0.9151(12) 0.0474(3) 0.7878(7)
H13 H 0.8882 0.0693 0.8090
C16 C 0.9925(10) 0.0488(3) 0.7232(6)
C27 C 0.4024(5) 0.2535(2) 0.9899(4)
H22 H 0.4688 0.2374 0.9874
C28 C 0.3798(5) 0.2804(2) 0.9299(4)
C29 C 0.2809(8) 0.3035(3) 0.9319(5)
H23 H 0.2628 0.3212 0.8898
C30 C 0.2069(8) 0.3004(3) 0.9971(5)
H24 H 0.1411 0.3167 0.9993
C31 C 0.4439(6) 0.3037(2) 0.7976(4)
C32 C 0.5348(5) 0.29805(16) 0.7345(3)
C33 C 0.5537(6) 0.32699(16) 0.6826(4)
H25 H 0.5171 0.3496 0.6903
C34 C 0.6274(6) 0.32228(15) 0.6187(4)
H26 H 0.6398 0.3421 0.5839
C35 C 0.6626(5) 0.26281(15) 0.6548(3)
H27 H 0.6993 0.2404 0.6451
C36 C 0.5912(5) 0.26534(15) 0.7206(3)
H28 H 0.5814 0.2452 0.7550
Cd6 Cd 0.79527(3) 0.285463(8) 0.488393(18)
O3_2 O 0.7290(3) 0.22614(9) 0.4411(3)
N3_2 N 0.9352(4) 0.28325(11) 0.3891(2)
O4 O 0.8904(3) 0.22749(9) 0.5427(2)
O5_2 O 0.7289(4) 0.34630(10) 0.4425(2)
O6_2 O 0.6160(4) 0.29987(10) 0.3870(2)
N9 N 0.9979(10) 0.3524(3) 0.6903(6)
O13 O 0.9563(4) 0.31272(13) 0.5842(3)
C22_2 C 0.9759(7) 0.2727(3) 0.2475(4)
H19_2 H 0.9399 0.2679 0.1915
C23_2 C 0.9004(7) 0.2771(4) 0.3115(4)
H20_2 H 0.8141 0.2753 0.2945
C37_2 C 0.8747(5) 0.05441(12) 0.4506(3)
C38_2 C 0.8638(4) 0.09498(11) 0.4581(3)
C39 C 0.9431(4) 0.11412(12) 0.5200(3)
C40 C 0.9268(4) 0.15115(12) 0.5299(3)
H30 H 0.9784 0.1636 0.5727
C41_2 C 0.8345(4) 0.17013(11) 0.4770(3)
C42_2 C 0.7593(5) 0.15117(13) 0.4147(3)
H31_2 H 0.6988 0.1637 0.3777
C43_2 C 0.7716(5) 0.11383(13) 0.4056(3)
H32_2 H 0.7177 0.1014 0.3642
C44_2 C 0.8167(4) 0.21062(11) 0.4888(3)
C45_2 C 0.6375(5) 0.33316(14) 0.3924(3)
C46_2 C 0.5527(5) 0.35925(13) 0.3373(3)
C47_2 C 0.5792(5) 0.39606(14) 0.3363(3)
H33_2 H 0.6498 0.4052 0.3707
C48_2 C 0.5019(5) 0.41954(13) 0.2846(3)
H34_2 H 0.5218 0.4443 0.2839
C49_2 C 0.3954(4) 0.40687(12) 0.2337(3)
C50_2 C 0.3672(5) 0.36931(14) 0.2355(4)
H35_2 H 0.2956 0.3601 0.2022
C51_2 C 0.4468(5) 0.34615(14) 0.2871(4)
H36_2 H 0.4284 0.3213 0.2879
C52_2 C 0.3116(4) 0.43193(13) 0.1758(3)
C53 C 0.9564(10) 0.3416(3) 0.6164(6)
C54 C 0.993(2) 0.3917(6) 0.7208(12)
H37 H 0.95183 0.309341 0.763657
H40 H 0.912324 0.362949 0.574335
H43 H 0.895498 0.400661 0.71477
N1_2 N 0.2655(4) 0.46631(12) 0.9644(3)
C1_2 C 0.2628(6) 0.43429(15) 0.9256(4)
H1_2 H 0.2109 0.4162 0.9426
C2_2 C 0.3331(6) 0.42620(16) 0.8610(4)
H2_2 H 0.3275 0.4032 0.8357
C3_2 C 0.4109(6) 0.45223(15) 0.8347(3)
N4_2 N 0.6814(4) 0.20937(11) 0.1048(2)
C4_2 C 0.4156(7) 0.48540(18) 0.8717(4)
H3_2 H 0.4665 0.5038 0.8549
N5_2 N 0.5609(5) 0.46714(13) 0.7399(3)
H4_2 H 0.5749 0.4860 0.7724
C5_2 C 0.3401(7) 0.49132(17) 0.9376(4)
H5_2 H 0.3433 0.5142 0.9635
N6_2 N 0.8183(6) 0.46625(16) 0.4540(3)
H6_2 H 0.8851 0.4530 0.4576
C6_2 C 0.4808(7) 0.44221(16) 0.7612(4)
N7_2 N 0.1503(4) 0.22815(15) 0.6234(3)
H7_2 H 0.0703 0.2289 0.6082
C7_2 C 0.6250(6) 0.46481(16) 0.6673(4)
N8_2 N 0.4593(4) 0.21784(17) 0.3665(3)
H8_2 H 0.5239 0.2320 0.3727
C8_2 C 0.6578(17) 0.4933(5) 0.6357(10)
H9_2 H 0.6378 0.5154 0.6592
O9_2 O 0.4577(8) 0.41427(15) 0.7235(4)
C9_2 C 0.7278(17) 0.4936(5) 0.5617(10)
H10_2 H 0.7550 0.5159 0.5423
C10_2 C 0.7510(7) 0.4654(2) 0.5251(4)
O10 O 0.6960(8) 0.5035(3) 0.3677(5)
O11_2 O 0.3046(4) 0.23090(15) 0.7343(3)
C11_2 C 0.7336(12) 0.4343(3) 0.5644(7)
H11_2 H 0.7613 0.4124 0.5434
O12_2 O 0.3643(8) 0.1737(2) 0.2848(5)
C12_2 C 0.6734(13) 0.4342(3) 0.6380(7)
H12_2 H 0.6668 0.4123 0.6672
C13_2 C 0.7892(8) 0.4851(2) 0.3832(5)
C14_2 C 0.8799(7) 0.48245(19) 0.3188(4)
C15_2 C 0.9151(12) 0.4526(3) 0.2878(7)
H13_2 H 0.8882 0.4307 0.3090
C16_2 C 0.9925(10) 0.4512(3) 0.2232(6)
C17 C 0.9891(15) 0.5103(3) 0.2150(9)
C18 C 0.9171(18) 0.5121(3) 0.2808(10)
H16 H 0.8938 0.5350 0.2992
C19_2 C 0.0567(7) 0.2120(3) 0.9076(4)
H17_2 H 0.0889 0.2058 0.9636
C20_2 C 0.1404(7) 0.2156(3) 0.8491(5)
H18_2 H 0.2259 0.2118 0.8661
C21_2 C 0.0977(5) 0.22477(14) 0.7670(3)
C24_2 C 0.1940(5) 0.22862(15) 0.7064(3)
C25_2 C 0.2295(5) 0.2265(2) 0.5585(3)
C26_2 C 0.3273(6) 0.2503(2) 0.5556(3)
H21_2 H 0.3438 0.2687 0.5963
C27_2 C 0.4024(5) 0.2465(2) 0.4899(4)
H22_2 H 0.4688 0.2626 0.4874
C28_2 C 0.3798(5) 0.2196(2) 0.4299(4)
C29_2 C 0.2809(8) 0.1965(3) 0.4319(5)
H23_2 H 0.2628 0.1788 0.3898
C30_2 C 0.2069(8) 0.1996(3) 0.4971(5)
H24_2 H 0.1411 0.1833 0.4993
C31_2 C 0.4439(6) 0.1963(2) 0.2976(4)
C32_2 C 0.5348(5) 0.20195(16) 0.2345(3)
C33_2 C 0.5537(6) 0.17301(16) 0.1826(4)
H25_2 H 0.5171 0.1504 0.1903
C34_2 C 0.6274(6) 0.17772(15) 0.1187(4)
H26_2 H 0.6398 0.1579 0.0839
C35_2 C 0.6626(5) 0.23719(15) 0.1548(3)
H27_2 H 0.6993 0.2596 0.1451
C36_2 C 0.5912(5) 0.23466(15) 0.2206(3)
H28_2 H 0.5814 0.2548 0.2550
O4_2 O 0.8904(3) 0.27251(9) 0.0427(2)
N9_2 N 0.9979(10) 0.1476(3) 0.1903(6)
O13_2 O 0.9563(4) 0.18728(13) 0.0842(3)
C39_2 C 0.9431(4) 0.38588(12) 0.0200(3)
C40_2 C 0.9268(4) 0.34885(12) 0.0299(3)
H30_2 H 0.9784 0.3364 0.0727
C53_2 C 0.9564(10) 0.1584(3) 0.1164(6)
C54_2 C 0.993(2) 0.1083(6) 0.2208(12)
H37_2 H 0.95183 0.190659 0.263657
H40_2 H 0.912324 0.137051 0.0743346
H43_2 H 0.895498 0.0993388 0.21477
Cd6_2 Cd 0.79527(3) 0.214537(8) 0.988393(18)
O1 O 0.9706(4) 0.46121(10) 0.9859(2)
O2 O 0.7872(4) 0.46257(9) 0.9090(3)
O3_3 O 0.7290(3) 0.27386(9) 0.9411(3)
N3_3 N 0.9352(4) 0.21675(11) 0.8891(2)
O5_3 O 0.7289(4) 0.15370(10) 0.9425(2)
O6_3 O 0.6160(4) 0.20013(10) 0.8870(2)
O7 O 0.3403(3) 0.03477(9) 0.6744(2)
O8 O 0.2164(3) 0.08076(9) 0.6310(2)
C22_3 C 0.9759(7) 0.2273(3) 0.7475(4)
H19_3 H 0.9399 0.2321 0.6915
C23_3 C 0.9004(7) 0.2229(4) 0.8115(4)
H20_3 H 0.8141 0.2247 0.7945
C37_3 C 0.8747(5) 0.44559(12) 0.9506(3)
C38_3 C 0.8638(4) 0.40502(11) 0.9581(3)
C41_3 C 0.8345(4) 0.32987(11) 0.9770(3)
C42_3 C 0.7593(5) 0.34883(13) 0.9147(3)
H31_3 H 0.6988 0.3363 0.8777
C43_3 C 0.7716(5) 0.38617(13) 0.9056(3)
H32_3 H 0.7177 0.3986 0.8642
C44_3 C 0.8167(4) 0.28938(11) 0.9888(3)
C45_3 C 0.6375(5) 0.16684(14) 0.8924(3)
C46_3 C 0.5527(5) 0.14075(13) 0.8373(3)
C47_3 C 0.5792(5) 0.10394(14) 0.8363(3)
H33_3 H 0.6498 0.0948 0.8707
C48_3 C 0.5019(5) 0.08046(13) 0.7846(3)
H34_3 H 0.5218 0.0557 0.7839
C49_3 C 0.3954(4) 0.09313(12) 0.7337(3)
C50_3 C 0.3672(5) 0.13069(14) 0.7355(4)
H35_3 H 0.2956 0.1399 0.7022
C51_3 C 0.4468(5) 0.15385(14) 0.7871(4)
H36_3 H 0.4284 0.1787 0.7879
C52_3 C 0.3116(4) 0.06807(13) 0.6758(3)
Cd4 Cd 0.84897(3) 0.522021(8) 0.922670(18)
Cd5 Cd 0.15103(3) 0.022021(8) 0.577330(18)
O1_2 O 0.0294(4) 0.96121(10) 0.5141(2)
Cd2_2 Cd 0.20473(3) 0.714537(8) 0.511607(18)
O2_2 O 0.2128(4) 0.96257(9) 0.5910(3)
O3_4 O 0.2710(3) 0.77386(9) 0.5589(3)
N3_4 N 0.0648(4) 0.71675(11) 0.6109(2)
O4_3 O 0.1096(3) 0.77251(9) 0.4573(2)
O5_4 O 0.2711(4) 0.65370(10) 0.5575(2)
O6_4 O 0.3840(4) 0.70013(10) 0.6130(2)
O7_2 O 0.6597(3) 0.53477(9) 0.8256(2)
O8_2 O 0.7836(3) 0.58076(9) 0.8690(2)
N9_3 N 0.0021(10) 0.6476(3) 0.3097(6)
O13_3 O 0.0437(4) 0.68728(13) 0.4158(3)
C22_4 C 0.0241(7) 0.7273(3) 0.7525(4)
H19_4 H 0.0601 0.7321 0.8085
C23_4 C 0.0996(7) 0.7229(4) 0.6885(4)
H20_4 H 0.1859 0.7247 0.7055
C37_4 C 0.1253(5) 0.94559(12) 0.5494(3)
C38_4 C 0.1362(4) 0.90502(11) 0.5419(3)
C39_3 C 0.0569(4) 0.88588(12) 0.4800(3)
C40_3 C 0.0732(4) 0.84885(12) 0.4701(3)
H30_3 H 0.0216 0.8364 0.4273
C41_4 C 0.1655(4) 0.82987(11) 0.5230(3)
C42_4 C 0.2407(5) 0.84883(13) 0.5853(3)
H31_4 H 0.3012 0.8363 0.6223
C43_4 C 0.2284(5) 0.88617(13) 0.5944(3)
H32_4 H 0.2823 0.8986 0.6358
C44_4 C 0.1833(4) 0.78938(11) 0.5112(3)
C45_4 C 0.3625(5) 0.66684(14) 0.6076(3)
C46_4 C 0.4473(5) 0.64075(13) 0.6627(3)
C47_4 C 0.4208(5) 0.60394(14) 0.6637(3)
H33_4 H 0.3502 0.5948 0.6293
C48_4 C 0.4981(5) 0.58046(13) 0.7154(3)
H34_4 H 0.4782 0.5557 0.7161
C49_4 C 0.6046(4) 0.59313(12) 0.7663(3)
C50_4 C 0.6328(5) 0.63069(14) 0.7645(4)
H35_4 H 0.7044 0.6399 0.7978
C51_4 C 0.5532(5) 0.65385(14) 0.7129(4)
H36_4 H 0.5716 0.6787 0.7121
C52_4 C 0.6884(4) 0.56807(13) 0.8242(3)
C53_3 C 0.0436(10) 0.6584(3) 0.3836(6)
C54_3 C 0.007(2) 0.6083(6) 0.2792(12)
N11 N 0.3186(4) 0.70937(11) 0.3952(2)
H37_3 H 0.0481701 0.690659 0.236343
H40_3 H 0.0876763 0.637051 0.425665
H43_3 H 0.104502 0.599339 0.28523
N6_3 N 0.1817(6) 0.96625(16) 0.0460(3)
H6_3 H 0.1149 0.9530 0.0424
N8_3 N 0.5407(4) 0.71784(17) 0.1335(3)
H8_3 H 0.4761 0.7320 0.1273
O12_3 O 0.6357(8) 0.6737(2) 0.2152(5)
C13_3 C 0.2108(8) 0.9851(2) 0.1168(5)
C14_3 C 0.1201(7) 0.98245(19) 0.1812(4)
C15_3 C 0.0849(12) 0.9526(3) 0.2122(7)
H13_3 H 0.1118 0.9307 0.1910
C16_3 C 0.0075(10) 0.9512(3) 0.2768(6)
C27_3 C 0.5976(5) 0.7465(2) 0.0101(4)
H22_3 H 0.5312 0.7626 0.0126
C28_3 C 0.6202(5) 0.7196(2) 0.0701(4)
C29_3 C 0.7191(8) 0.6965(3) 0.0681(5)
H23_3 H 0.7372 0.6788 0.1102
C30_3 C 0.7931(8) 0.6996(3) 0.0029(5)
H24_3 H 0.8589 0.6833 0.0007
C31_3 C 0.5561(6) 0.6963(2) 0.2024(4)
C32_3 C 0.4652(5) 0.70195(16) 0.2655(3)
C33_3 C 0.4463(6) 0.67301(16) 0.3174(4)
H25_3 H 0.4829 0.6504 0.3097
C34_3 C 0.3726(6) 0.67772(15) 0.3813(4)
H26_3 H 0.3602 0.6579 0.4161
C35_3 C 0.3374(5) 0.73719(15) 0.3452(3)
H27_3 H 0.3007 0.7596 0.3549
C36_3 C 0.4088(5) 0.73466(15) 0.2794(3)
H28_3 H 0.4186 0.7548 0.2450
H29_3 H 0.9930 0.6019 0.9454
C55_3 C 0.967(3) 0.8261(7) 0.7446(13)
N10_2 N 0.9725(4) 0.51989(12) 0.8113(3)
H38_3 H 0.93318 0.840002 0.684749
H39_3 H 0.892716 0.808776 0.762753
H41_3 H 0.955544 0.90916 0.818039
H42_3 H 0.964466 0.893445 0.712472
H14_3 H 0.9813 0.5714 0.7946
H15_2 H 0.9900 0.4681 0.8108
N2_2 N 0.0275(4) 0.01989(12) 0.6887(3)
H14_4 H 0.0187 0.0714 0.7054
N1_3 N 0.2655(4) 0.03369(12) 0.4644(3)
C1_3 C 0.2628(6) 0.06571(15) 0.4256(4)
H1_3 H 0.2109 0.0838 0.4426
C2_3 C 0.3331(6) 0.07380(16) 0.3610(4)
H2_3 H 0.3275 0.0968 0.3357
C3_3 C 0.4109(6) 0.04777(15) 0.3347(3)
C4_3 C 0.4156(7) 0.01460(18) 0.3717(4)
N5_3 N 0.5609(5) 0.03286(13) 0.2399(3)
H4_3 H 0.5749 0.0140 0.2724
C5_3 C 0.3401(7) 0.00868(17) 0.4376(4)
C6_3 C 0.4808(7) 0.05779(16) 0.2612(4)
N7_3 N 0.1503(4) 0.27185(15) 0.1234(3)
H7_3 H 0.0703 0.2711 0.1082
C7_3 C 0.6250(6) 0.03519(16) 0.1673(4)
C8_3 C 0.6578(17) 0.0067(5) 0.1357(10)
O9_3 O 0.4577(8) 0.08573(15) 0.2235(4)
C9_3 C 0.7278(17) 0.0064(5) 0.0617(10)
C10_3 C 0.7510(7) 0.0346(2) 0.0251(4)
O11_3 O 0.3046(4) 0.26910(15) 0.2343(3)
C11_3 C 0.7336(12) 0.0657(3) 0.0644(7)
H11_3 H 0.7613 0.0876 0.0434
C12_3 C 0.6734(13) 0.0658(3) 0.1380(7)
H12_3 H 0.6668 0.0877 0.1672
C19_3 C 0.0567(7) 0.2880(3) 0.4076(4)
H17_3 H 0.0889 0.2942 0.4636
C20_3 C 0.1404(7) 0.2844(3) 0.3491(5)
H18_3 H 0.2259 0.2882 0.3661
C21_3 C 0.0977(5) 0.27523(14) 0.2670(3)
C24_3 C 0.1940(5) 0.27138(15) 0.2064(3)
C25_3 C 0.2295(5) 0.2735(2) 0.0585(3)
C26_3 C 0.3273(6) 0.2497(2) 0.0556(3)
H21_3 H 0.3438 0.2313 0.0963
H29_4 H 0.0070 0.1019 0.5546
C55_4 C 0.033(3) 0.3261(7) 0.7554(13)
H38_4 H 0.0668203 0.340002 0.815251
H39_4 H 0.107284 0.308776 0.737247
H41_4 H 0.0444561 0.40916 0.681961
H42_4 H 0.0355344 0.393445 0.787528
H3_3 H 0.4665 0.9962 0.3549
H5_3 H 0.3433 0.9858 0.4635
H9_3 H 0.6378 0.9846 0.1592
H10_3 H 0.7550 0.9841 0.0423
O10_2 O 0.3040(8) 0.0035(3) 0.1323(5)
C17_2 C 0.0109(15) 0.0103(3) 0.2850(9)
C18_2 C 0.0829(18) 0.0121(3) 0.2192(10)
H16_2 H 0.1062 0.0350 0.2008
H15_3 H 0.9900 0.0319 0.3108
O4_4 O 0.1096(3) 0.72749(9) 0.9573(2)
N9_4 N 0.0021(10) 0.8524(3) 0.8097(6)
O13_4 O 0.0437(4) 0.81272(13) 0.9158(3)
C39_4 C 0.0569(4) 0.61412(12) 0.9800(3)
C40_4 C 0.0732(4) 0.65115(12) 0.9701(3)
H30_4 H 0.0216 0.6636 0.9273
C53_4 C 0.0436(10) 0.8416(3) 0.8836(6)
C54_4 C 0.007(2) 0.8917(6) 0.7792(12)
N11_2 N 0.3186(4) 0.79063(11) 0.8952(2)
H37_4 H 0.0481701 0.809341 0.736343
H40_4 H 0.0876763 0.862949 0.925665
H43_4 H 0.104502 0.900661 0.78523
N1_4 N 0.7345(4) 0.53369(12) 0.0356(3)
C1_4 C 0.7372(6) 0.56571(15) 0.0744(4)
H1_4 H 0.7891 0.5838 0.0574
C2_4 C 0.6669(6) 0.57380(16) 0.1390(4)
H2_4 H 0.6725 0.5968 0.1643
C3_4 C 0.5891(6) 0.54777(15) 0.1653(3)
C4_4 C 0.5844(7) 0.51460(18) 0.1283(4)
H3_4 H 0.5335 0.4962 0.1451
N5_4 N 0.4391(5) 0.53286(13) 0.2601(3)
H4_4 H 0.4251 0.5140 0.2276
C5_4 C 0.6599(7) 0.50868(17) 0.0624(4)
H5_4 H 0.6567 0.4858 0.0365
N6_4 N 0.1817(6) 0.53375(16) 0.5460(3)
H6_4 H 0.1149 0.5470 0.5424
C6_4 C 0.5192(7) 0.55779(16) 0.2388(4)
N7_4 N 0.8497(4) 0.77185(15) 0.3766(3)
H7_4 H 0.9297 0.7711 0.3918
C7_4 C 0.3750(6) 0.53519(16) 0.3327(4)
N8_4 N 0.5407(4) 0.78216(17) 0.6335(3)
H8_4 H 0.4761 0.7680 0.6273
C8_4 C 0.3422(17) 0.5067(5) 0.3643(10)
H9_4 H 0.3622 0.4846 0.3408
O9_4 O 0.5423(8) 0.58573(15) 0.2765(4)
C9_4 C 0.2722(17) 0.5064(5) 0.4383(10)
H10_4 H 0.2450 0.4841 0.4577
C10_4 C 0.2490(7) 0.5346(2) 0.4749(4)
O10_3 O 0.3040(8) 0.4965(3) 0.6323(5)
O11_4 O 0.6954(4) 0.76910(15) 0.2657(3)
C11_4 C 0.2664(12) 0.5657(3) 0.4356(7)
H11_4 H 0.2387 0.5876 0.4566
O12_4 O 0.6357(8) 0.8263(2) 0.7152(5)
C12_4 C 0.3266(13) 0.5658(3) 0.3620(7)
H12_4 H 0.3332 0.5877 0.3328
C13_4 C 0.2108(8) 0.5149(2) 0.6168(5)
C14_4 C 0.1201(7) 0.51755(19) 0.6812(4)
C15_4 C 0.0849(12) 0.5474(3) 0.7122(7)
H13_4 H 0.1118 0.5693 0.6910
C16_4 C 0.0075(10) 0.5488(3) 0.7768(6)
C17_3 C 0.0109(15) 0.4897(3) 0.7850(9)
C18_3 C 0.0829(18) 0.4879(3) 0.7192(10)
H16_3 H 0.1062 0.4650 0.7008
C19_4 C 0.9433(7) 0.7880(3) 0.0924(4)
H17_4 H 0.9111 0.7942 0.0364
C20_4 C 0.8596(7) 0.7844(3) 0.1509(5)
H18_4 H 0.7741 0.7882 0.1339
C21_4 C 0.9023(5) 0.77523(14) 0.2330(3)
C24_4 C 0.8060(5) 0.77138(15) 0.2936(3)
C25_4 C 0.7705(5) 0.7735(2) 0.4415(3)
C26_4 C 0.6727(6) 0.7497(2) 0.4444(3)
H21_4 H 0.6562 0.7313 0.4037
C27_4 C 0.5976(5) 0.7535(2) 0.5101(4)
H22_4 H 0.5312 0.7374 0.5126
C28_4 C 0.6202(5) 0.7804(2) 0.5701(4)
C29_4 C 0.7191(8) 0.8035(3) 0.5681(5)
H23_4 H 0.7372 0.8212 0.6102
C30_4 C 0.7931(8) 0.8004(3) 0.5029(5)
H24_4 H 0.8589 0.8167 0.5007
C31_4 C 0.5561(6) 0.8037(2) 0.7024(4)
C32_4 C 0.4652(5) 0.79805(16) 0.7655(3)
C33_4 C 0.4463(6) 0.82699(16) 0.8174(4)
H25_4 H 0.4829 0.8496 0.8097
C34_4 C 0.3726(6) 0.82228(15) 0.8813(4)
H26_4 H 0.3602 0.8421 0.9161
C35_4 C 0.3374(5) 0.76281(15) 0.8452(3)
H27_4 H 0.3007 0.7404 0.8549
C36_4 C 0.4088(5) 0.76534(15) 0.7794(3)
H28_4 H 0.4186 0.7452 0.7450
H15_4 H 0.0100 0.9681 0.6892
O10_4 O 0.6960(8) 0.9965(3) 0.8677(5)
C17_4 C 0.9891(15) 0.9897(3) 0.7150(9)
C18_4 C 0.9171(18) 0.9879(3) 0.7808(10)
H16_4 H 0.8938 0.9650 0.7992
loop_
_geom_bond_atom_site_label_1
_geom_bond_atom_site_label_2
_geom_bond_site_symmetry_1
_geom_bond_site_symmetry_2
Cd3 N2 1_555 1_555
O14 Cd3 1_555 1_555
O15 Cd3 1_555 1_555
O16 Cd3 1_555 1_555
O17 Cd3 1_555 1_555
C55 H38 1_555 1_555
C55 H39 1_555 1_555
Cd1 N1 1_555 1_555
N1 C1 1_555 1_555
C1 H1 1_555 1_555
C2 C1 1_555 1_555
H2 C2 1_555 1_555
C3 C2 1_555 1_555
C4 C3 1_555 1_555
N5 H4 1_555 1_555
C5 N1 1_555 1_555
C6 C3 1_555 1_555
N7 H7 1_555 1_555
C7 N5 1_555 1_555
C8 C7 1_555 1_555
O9 C6 1_555 1_555
C9 C8 1_555 1_555
O11 C24 1_555 1_555
C11 C10 1_555 1_555
H11 C11 1_555 1_555
C12 C7 1_555 1_555
H12 C12 1_555 1_555
H17 C19 1_555 1_555
C20 C19 1_555 1_555
H18 C20 1_555 1_555
C21 C20 1_555 1_555
C24 N7 1_555 1_555
C25 N7 1_555 1_555
C26 C25 1_555 1_555
H21 C26 1_555 1_555
N10 Cd1 1_555 1_555
O16_2 Cd1 1_555 1_555
O17_2 Cd1 1_555 1_555
C4 C5 1_555 1_555
N5 C6 1_555 1_555
C9 C10 1_555 1_555
C11 C12 1_555 1_555
C21 C24 1_555 1_555
C55_2 H38_2 1_555 1_555
C55_2 H39_2 1_555 1_555
Cd2 O3 1_555 1_555
O15 C37 1_555 1_555
O3 C44 1_555 1_555
N3 Cd2 1_555 1_555
O5 Cd2 1_555 1_555
O6 Cd2 1_555 1_555
O16_2 C52 1_555 1_555
O17_2 C52 1_555 1_555
H19 C22 1_555 1_555
C23 N3 1_555 1_555
H20 C23 1_555 1_555
C37 O14 1_555 1_555
C38 C37 1_555 1_555
C42 C41 1_555 1_555
H31 C42 1_555 1_555
C43 C38 1_555 1_555
H32 C43 1_555 1_555
C45 O5 1_555 1_555
C46 C45 1_555 1_555
C47 C46 1_555 1_555
H33 C47 1_555 1_555
C48 C47 1_555 1_555
H34 C48 1_555 1_555
C49 C48 1_555 1_555
C50 C49 1_555 1_555
H35 C50 1_555 1_555
C51 C46 1_555 1_555
H36 C51 1_555 1_555
C52 C49 1_555 1_555
O6 C45 1_555 1_555
C22 C23 1_555 1_555
C41 C44 1_555 1_555
C42 C43 1_555 1_555
C50 C51 1_555 1_555
N4 C34 1_555 1_555
N6 H6 1_555 1_555
N8 H8 1_555 1_555
O12 C31 1_555 1_555
C13 N6 1_555 1_555
C14 C13 1_555 1_555
C15 C14 1_555 1_555
H13 C15 1_555 1_555
C16 C15 1_555 1_555
H22 C27 1_555 1_555
C28 N8 1_555 1_555
C29 C28 1_555 1_555
H23 C29 1_555 1_555
H24 C30 1_555 1_555
C31 N8 1_555 1_555
C32 C31 1_555 1_555
C33 C32 1_555 1_555
H25 C33 1_555 1_555
C34 C33 1_555 1_555
H26 C34 1_555 1_555
C35 N4 1_555 1_555
H27 C35 1_555 1_555
C36 C32 1_555 1_555
H28 C36 1_555 1_555
Cd6 N4 1_555 1_555
C27 C28 1_555 1_555
C29 C30 1_555 1_555
C35 C36 1_555 1_555
Cd6 O3_2 1_555 1_555
O15_2 C37_2 1_555 1_555
O3_2 C44_2 1_555 1_555
N3_2 Cd6 1_555 1_555
O4 Cd6 1_555 1_555
O5_2 Cd6 1_555 1_555
O6_2 Cd6 1_555 1_555
O16 C52_2 1_555 1_555
O17 C52_2 1_555 1_555
N9 C53 1_555 1_555
O13 Cd6 1_555 1_555
H19_2 C22_2 1_555 1_555
C23_2 N3_2 1_555 1_555
H20_2 C23_2 1_555 1_555
C37_2 O14_2 1_555 1_555
C38_2 C37_2 1_555 1_555
C39 C38_2 1_555 1_555
C40 C39 1_555 1_555
H30 C40 1_555 1_555
C41_2 C40 1_555 1_555
C42_2 C41_2 1_555 1_555
H31_2 C42_2 1_555 1_555
C43_2 C38_2 1_555 1_555
H32_2 C43_2 1_555 1_555
C44_2 O4 1_555 1_555
C45_2 O5_2 1_555 1_555
C46_2 C45_2 1_555 1_555
C47_2 C46_2 1_555 1_555
H33_2 C47_2 1_555 1_555
C48_2 C47_2 1_555 1_555
H34_2 C48_2 1_555 1_555
C49_2 C48_2 1_555 1_555
C50_2 C49_2 1_555 1_555
H35_2 C50_2 1_555 1_555
C51_2 C46_2 1_555 1_555
H36_2 C51_2 1_555 1_555
C52_2 C49_2 1_555 1_555
C53 O13 1_555 1_555
C54 N9 1_555 1_555
O6_2 C45_2 1_555 1_555
C22_2 C23_2 1_555 1_555
C41_2 C44_2 1_555 1_555
C42_2 C43_2 1_555 1_555
C50_2 C51_2 1_555 1_555
C53 H40 1_555 1_555
C54 H43 1_555 1_555
N1_2 C1_2 1_555 1_555
C1_2 H1_2 1_555 1_555
C2_2 C1_2 1_555 1_555
H2_2 C2_2 1_555 1_555
C3_2 C2_2 1_555 1_555
N4_2 C34_2 1_555 1_555
C4_2 C3_2 1_555 1_555
H3_2 C4_2 1_555 1_555
N5_2 H4_2 1_555 1_555
C5_2 N1_2 1_555 1_555
H5_2 C5_2 1_555 1_555
N6_2 H6_2 1_555 1_555
C6_2 C3_2 1_555 1_555
N7_2 H7_2 1_555 1_555
C7_2 N5_2 1_555 1_555
N8_2 H8_2 1_555 1_555
C8_2 C7_2 1_555 1_555
H9_2 C8_2 1_555 1_555
O9_2 C6_2 1_555 1_555
C9_2 C8_2 1_555 1_555
H10_2 C9_2 1_555 1_555
C10_2 N6_2 1_555 1_555
O10 C13_2 1_555 1_555
O11_2 C24_2 1_555 1_555
C11_2 C10_2 1_555 1_555
H11_2 C11_2 1_555 1_555
O12_2 C31_2 1_555 1_555
C12_2 C7_2 1_555 1_555
H12_2 C12_2 1_555 1_555
C13_2 N6_2 1_555 1_555
C14_2 C13_2 1_555 1_555
C15_2 C14_2 1_555 1_555
H13_2 C15_2 1_555 1_555
C16_2 C15_2 1_555 1_555
C18 C14_2 1_555 1_555
H16 C18 1_555 1_555
H17_2 C19_2 1_555 1_555
C20_2 C19_2 1_555 1_555
H18_2 C20_2 1_555 1_555
C21_2 C20_2 1_555 1_555
C24_2 N7_2 1_555 1_555
C25_2 N7_2 1_555 1_555
C26_2 C25_2 1_555 1_555
H21_2 C26_2 1_555 1_555
C27_2 C26_2 1_555 1_555
H22_2 C27_2 1_555 1_555
C28_2 N8_2 1_555 1_555
C29_2 C28_2 1_555 1_555
H23_2 C29_2 1_555 1_555
C30_2 C25_2 1_555 1_555
H24_2 C30_2 1_555 1_555
C31_2 N8_2 1_555 1_555
C32_2 C31_2 1_555 1_555
C33_2 C32_2 1_555 1_555
H25_2 C33_2 1_555 1_555
C34_2 C33_2 1_555 1_555
H26_2 C34_2 1_555 1_555
C35_2 N4_2 1_555 1_555
H27_2 C35_2 1_555 1_555
C36_2 C32_2 1_555 1_555
H28_2 C36_2 1_555 1_555
C4_2 C5_2 1_555 1_555
N5_2 C6_2 1_555 1_555
C9_2 C10_2 1_555 1_555
C11_2 C12_2 1_555 1_555
C17 C18 1_555 1_555
C21_2 C24_2 1_555 1_555
C27_2 C28_2 1_555 1_555
C29_2 C30_2 1_555 1_555
C35_2 C36_2 1_555 1_555
N9_2 C53_2 1_555 1_555
C40_2 C39_2 1_555 1_555
H30_2 C40_2 1_555 1_555
C53_2 O13_2 1_555 1_555
C54_2 N9_2 1_555 1_555
C53_2 H40_2 1_555 1_555
C54_2 H43_2 1_555 1_555
Cd6_2 O3_3 1_555 1_555
O2 C37_3 1_555 1_555
O3_3 C44_3 1_555 1_555
N3_3 Cd6_2 1_555 1_555
O5_3 Cd6_2 1_555 1_555
O6_3 Cd6_2 1_555 1_555
O7 C52_3 1_555 1_555
O8 C52_3 1_555 1_555
H19_3 C22_3 1_555 1_555
C23_3 N3_3 1_555 1_555
H20_3 C23_3 1_555 1_555
C37_3 O1 1_555 1_555
C38_3 C37_3 1_555 1_555
C42_3 C41_3 1_555 1_555
H31_3 C42_3 1_555 1_555
C43_3 C38_3 1_555 1_555
H32_3 C43_3 1_555 1_555
C45_3 O5_3 1_555 1_555
C46_3 C45_3 1_555 1_555
C47_3 C46_3 1_555 1_555
H33_3 C47_3 1_555 1_555
C48_3 C47_3 1_555 1_555
H34_3 C48_3 1_555 1_555
C49_3 C48_3 1_555 1_555
C50_3 C49_3 1_555 1_555
H35_3 C50_3 1_555 1_555
C51_3 C46_3 1_555 1_555
H36_3 C51_3 1_555 1_555
C52_3 C49_3 1_555 1_555
Cd4 O1 1_555 1_555
Cd5 O7 1_555 1_555
O2 Cd4 1_555 1_555
O6_3 C45_3 1_555 1_555
O8 Cd5 1_555 1_555
C22_3 C23_3 1_555 1_555
C41_3 C44_3 1_555 1_555
C42_3 C43_3 1_555 1_555
C50_3 C51_3 1_555 1_555
Cd2_2 O3_4 1_555 1_555
O2_2 C37_4 1_555 1_555
O3_4 C44_4 1_555 1_555
N3_4 Cd2_2 1_555 1_555
O4_3 Cd2_2 1_555 1_555
O5_4 Cd2_2 1_555 1_555
O6_4 Cd2_2 1_555 1_555
O7_2 C52_4 1_555 1_555
O8_2 C52_4 1_555 1_555
N9_3 C53_3 1_555 1_555
O13_3 Cd2_2 1_555 1_555
H19_4 C22_4 1_555 1_555
C23_4 N3_4 1_555 1_555
H20_4 C23_4 1_555 1_555
C37_4 O1_2 1_555 1_555
C38_4 C37_4 1_555 1_555
C39_3 C38_4 1_555 1_555
C40_3 C39_3 1_555 1_555
H30_3 C40_3 1_555 1_555
C41_4 C40_3 1_555 1_555
C42_4 C41_4 1_555 1_555
H31_4 C42_4 1_555 1_555
C43_4 C38_4 1_555 1_555
H32_4 C43_4 1_555 1_555
C44_4 O4_3 1_555 1_555
C45_4 O5_4 1_555 1_555
C46_4 C45_4 1_555 1_555
C47_4 C46_4 1_555 1_555
H33_4 C47_4 1_555 1_555
C48_4 C47_4 1_555 1_555
H34_4 C48_4 1_555 1_555
C49_4 C48_4 1_555 1_555
C50_4 C49_4 1_555 1_555
H35_4 C50_4 1_555 1_555
C51_4 C46_4 1_555 1_555
H36_4 C51_4 1_555 1_555
C52_4 C49_4 1_555 1_555
C53_3 O13_3 1_555 1_555
C54_3 N9_3 1_555 1_555
Cd4 O7_2 1_555 1_555
N11 Cd2_2 1_555 1_555
O6_4 C45_4 1_555 1_555
O8_2 Cd4 1_555 1_555
C22_4 C23_4 1_555 1_555
C41_4 C44_4 1_555 1_555
C42_4 C43_4 1_555 1_555
C50_4 C51_4 1_555 1_555
C53_3 H40_3 1_555 1_555
C54_3 H43_3 1_555 1_555
N11 C34_3 1_555 1_555
N6_3 H6_3 1_555 1_555
N8_3 H8_3 1_555 1_555
O12_3 C31_3 1_555 1_555
C13_3 N6_3 1_555 1_555
C14_3 C13_3 1_555 1_555
C15_3 C14_3 1_555 1_555
H13_3 C15_3 1_555 1_555
C16_3 C15_3 1_555 1_555
H22_3 C27_3 1_555 1_555
C28_3 N8_3 1_555 1_555
C29_3 C28_3 1_555 1_555
H23_3 C29_3 1_555 1_555
H24_3 C30_3 1_555 1_555
C31_3 N8_3 1_555 1_555
C32_3 C31_3 1_555 1_555
C33_3 C32_3 1_555 1_555
H25_3 C33_3 1_555 1_555
C34_3 C33_3 1_555 1_555
H26_3 C34_3 1_555 1_555
C35_3 N11 1_555 1_555
H27_3 C35_3 1_555 1_555
C36_3 C32_3 1_555 1_555
H28_3 C36_3 1_555 1_555
C27_3 C28_3 1_555 1_555
C29_3 C30_3 1_555 1_555
C35_3 C36_3 1_555 1_555
N10_2 Cd4 1_555 1_555
C55_3 H38_3 1_555 1_555
C55_3 H39_3 1_555 1_555
Cd5 N2_2 1_555 1_555
Cd5 N1_3 1_555 1_555
N1_3 C1_3 1_555 1_555
C1_3 H1_3 1_555 1_555
C2_3 C1_3 1_555 1_555
H2_3 C2_3 1_555 1_555
C3_3 C2_3 1_555 1_555
C4_3 C3_3 1_555 1_555
N5_3 H4_3 1_555 1_555
C5_3 N1_3 1_555 1_555
C6_3 C3_3 1_555 1_555
N7_3 H7_3 1_555 1_555
C7_3 N5_3 1_555 1_555
C8_3 C7_3 1_555 1_555
O9_3 C6_3 1_555 1_555
C9_3 C8_3 1_555 1_555
O11_3 C24_3 1_555 1_555
C11_3 C10_3 1_555 1_555
H11_3 C11_3 1_555 1_555
C12_3 C7_3 1_555 1_555
H12_3 C12_3 1_555 1_555
H17_3 C19_3 1_555 1_555
C20_3 C19_3 1_555 1_555
H18_3 C20_3 1_555 1_555
C21_3 C20_3 1_555 1_555
C24_3 N7_3 1_555 1_555
C25_3 N7_3 1_555 1_555
C26_3 C25_3 1_555 1_555
H21_3 C26_3 1_555 1_555
C4_3 C5_3 1_555 1_555
N5_3 C6_3 1_555 1_555
C9_3 C10_3 1_555 1_555
C11_3 C12_3 1_555 1_555
C21_3 C24_3 1_555 1_555
C55_4 H38_4 1_555 1_555
C55_4 H39_4 1_555 1_555
H16_2 C18_2 1_555 1_555
C17_2 C18_2 1_555 1_555
N9_4 C53_4 1_555 1_555
C40_4 C39_4 1_555 1_555
H30_4 C40_4 1_555 1_555
C53_4 O13_4 1_555 1_555
C54_4 N9_4 1_555 1_555
C53_4 H40_4 1_555 1_555
C54_4 H43_4 1_555 1_555
N1_4 C1_4 1_555 1_555
C1_4 H1_4 1_555 1_555
C2_4 C1_4 1_555 1_555
H2_4 C2_4 1_555 1_555
C3_4 C2_4 1_555 1_555
N11_2 C34_4 1_555 1_555
C4_4 C3_4 1_555 1_555
H3_4 C4_4 1_555 1_555
N5_4 H4_4 1_555 1_555
C5_4 N1_4 1_555 1_555
H5_4 C5_4 1_555 1_555
N6_4 H6_4 1_555 1_555
C6_4 C3_4 1_555 1_555
N7_4 H7_4 1_555 1_555
C7_4 N5_4 1_555 1_555
N8_4 H8_4 1_555 1_555
C8_4 C7_4 1_555 1_555
H9_4 C8_4 1_555 1_555
O9_4 C6_4 1_555 1_555
C9_4 C8_4 1_555 1_555
H10_4 C9_4 1_555 1_555
C10_4 N6_4 1_555 1_555
O10_3 C13_4 1_555 1_555
O11_4 C24_4 1_555 1_555
C11_4 C10_4 1_555 1_555
H11_4 C11_4 1_555 1_555
O12_4 C31_4 1_555 1_555
C12_4 C7_4 1_555 1_555
H12_4 C12_4 1_555 1_555
C13_4 N6_4 1_555 1_555
C14_4 C13_4 1_555 1_555
C15_4 C14_4 1_555 1_555
H13_4 C15_4 1_555 1_555
C16_4 C15_4 1_555 1_555
C18_3 C14_4 1_555 1_555
H16_3 C18_3 1_555 1_555
H17_4 C19_4 1_555 1_555
C20_4 C19_4 1_555 1_555
H18_4 C20_4 1_555 1_555
C21_4 C20_4 1_555 1_555
C24_4 N7_4 1_555 1_555
C25_4 N7_4 1_555 1_555
C26_4 C25_4 1_555 1_555
H21_4 C26_4 1_555 1_555
C27_4 C26_4 1_555 1_555
H22_4 C27_4 1_555 1_555
C28_4 N8_4 1_555 1_555
C29_4 C28_4 1_555 1_555
H23_4 C29_4 1_555 1_555
C30_4 C25_4 1_555 1_555
H24_4 C30_4 1_555 1_555
C31_4 N8_4 1_555 1_555
C32_4 C31_4 1_555 1_555
C33_4 C32_4 1_555 1_555
H25_4 C33_4 1_555 1_555
C34_4 C33_4 1_555 1_555
H26_4 C34_4 1_555 1_555
C35_4 N11_2 1_555 1_555
H27_4 C35_4 1_555 1_555
C36_4 C32_4 1_555 1_555
H28_4 C36_4 1_555 1_555
C4_4 C5_4 1_555 1_555
N5_4 C6_4 1_555 1_555
C9_4 C10_4 1_555 1_555
C11_4 C12_4 1_555 1_555
C17_3 C18_3 1_555 1_555
C21_4 C24_4 1_555 1_555
C27_4 C28_4 1_555 1_555
C29_4 C30_4 1_555 1_555
C35_4 C36_4 1_555 1_555
H16_4 C18_4 1_555 1_555
C17_4 C18_4 1_555 1_555

#END
