
###############################################################################
#
# This file contains modified crystal structure data generated from the
# MOF subset of the Cambridge Structural Database (CSD) v543 
# hosted by the Cambridge Crystallographic Data Centre (CCDC).
#
# This work is licensed under the Creative Commons
# Attribution-NonCommercial-ShareAlike 4.0 International License.
# To view a copy of this license, visit
# http://creativecommons.org/licenses/by-nc-sa/4.0/
# or send a letter to
# Creative Commons, PO Box 1866, Mountain View, CA 94042, USA.
#
# CIF created using the CSD Python API on 29 September 2022
# The structure has been converted into the P1 space group
# The structure has a 3D framework
# The original CSD entry BEMZIG is in the orthorhombic crystal system
# The framework has been calculated to contain at least 10.0% void space
# The void calculation uses a probe of radius 1.32A, grid spacing 0.4
#
###############################################################################

data_BEMZIG
_chemical_formula_moiety         '(C208 H144 N32 O42 Zn6)n'
_symmetry_cell_setting           triclinic
_symmetry_space_group_name_H-M   'P 1'
_symmetry_Int_Tables_number      1
_space_group_name_Hall           'P 1'
loop_
_symmetry_equiv_pos_site_id
_symmetry_equiv_pos_as_xyz
1 x,y,z
_cell_length_a                   17.6671(6)
_cell_length_b                   19.4948(6)
_cell_length_c                   15.5450(5)
_cell_angle_alpha                90
_cell_angle_beta                 90
_cell_angle_gamma                90
_cell_volume                     5353.96
loop_
_atom_site_label
_atom_site_type_symbol
_atom_site_fract_x
_atom_site_fract_y
_atom_site_fract_z
C18 C 0.72012(9) 0.40331(8) 0.15130(10)
H12 H 0.6701 0.4109 0.1674
N3 N 0.77548(8) 0.42841(7) 0.20096(7)
C19 C 0.73418(9) 0.36659(9) 0.07716(10)
H14 H 0.6944 0.3498 0.0442
C20 C 0.80849(9) 0.35510(8) 0.05258(9)
C21 C 0.86595(9) 0.37938(9) 0.10493(10)
H15 H 0.9164 0.3712 0.0911
C22 C 0.84718(9) 0.41593(9) 0.17809(10)
H16 H 0.8859 0.4325 0.2128
Zn2 Zn 0.7500 0.5000 0.295378(13)
C18_2 C 0.77988(9) 0.59669(8) 0.15130(10)
H12_2 H 0.8299 0.5891 0.1674
N3_2 N 0.72452(8) 0.57159(7) 0.20096(7)
C19_2 C 0.76582(9) 0.63341(9) 0.07716(10)
H14_2 H 0.8056 0.6502 0.0442
C20_2 C 0.69151(9) 0.64490(8) 0.05258(9)
C21_2 C 0.63405(9) 0.62062(9) 0.10493(10)
H15_2 H 0.5836 0.6288 0.0911
C22_2 C 0.65282(9) 0.58407(9) 0.17809(10)
H16_2 H 0.6141 0.5675 0.2128
O1 O 0.65303(7) 0.47174(7) 0.34536(8)
O2 O 0.66968(8) 0.57452(8) 0.40071(9)
C10 C 0.63355(9) 0.52058(10) 0.39519(10)
C11 C 0.56352(9) 0.51006(9) 0.44843(10)
C12 C 0.52162(10) 0.45011(10) 0.44138(11)
H8 H 0.5359 0.4166 0.4020
C13 C 0.45861(9) 0.44011(9) 0.49291(12)
H9 H 0.4309 0.3997 0.4882
O4 O 0.34697(7) 0.52826(7) 0.65464(8)
O5 O 0.33032(8) 0.42548(8) 0.59929(9)
C14 C 0.36645(9) 0.47942(10) 0.60481(10)
C15 C 0.43648(9) 0.48994(9) 0.55157(10)
C16 C 0.47838(10) 0.54989(10) 0.55862(11)
H10 H 0.4641 0.5834 0.5980
C17 C 0.54139(9) 0.55989(9) 0.50709(12)
H11 H 0.5691 0.6003 0.5118
Zn3 Zn 0.2500 0.5000 0.704622(13)
O7 O 0.84697(7) 0.52826(7) 0.34536(8)
C13_2 C 0.04139(9) 0.55989(9) 0.49291(12)
H9_2 H 0.0691 0.6003 0.4882
O4_2 O 0.15303(7) 0.47174(7) 0.65464(8)
O5_2 O 0.16968(8) 0.57452(8) 0.59929(9)
C14_2 C 0.13355(9) 0.52058(10) 0.60481(10)
C15_2 C 0.06352(9) 0.51006(9) 0.55157(10)
C16_2 C 0.02162(10) 0.45011(10) 0.55862(11)
H10_2 H 0.0359 0.4166 0.5980
O2_2 O 0.83032(8) 0.42548(8) 0.40071(9)
C10_2 C 0.86645(9) 0.47942(10) 0.39519(10)
C11_2 C 0.93648(9) 0.48994(9) 0.44843(10)
C12_2 C 0.97838(10) 0.54989(10) 0.44138(11)
H8_2 H 0.9641 0.5834 0.4020
C17_2 C 0.95861(9) 0.44011(9) 0.50709(12)
H11_2 H 0.9309 0.3997 0.5118
C18_3 C 0.27988(9) 0.59669(8) 0.84870(10)
H12_3 H 0.3299 0.5891 0.8326
N3_3 N 0.22452(8) 0.57159(7) 0.79904(7)
C19_3 C 0.26582(9) 0.63341(9) 0.92284(10)
H14_3 H 0.3056 0.6502 0.9558
C20_3 C 0.19151(9) 0.64490(8) 0.94742(9)
C21_3 C 0.13405(9) 0.62062(9) 0.89507(10)
H15_3 H 0.0836 0.6288 0.9089
C22_3 C 0.15282(9) 0.58407(9) 0.82191(10)
H16_3 H 0.1141 0.5675 0.7872
C18_4 C 0.22012(9) 0.40331(8) 0.84870(10)
H12_4 H 0.1701 0.4109 0.8326
N3_4 N 0.27548(8) 0.42841(7) 0.79904(7)
C19_4 C 0.23418(9) 0.36659(9) 0.92284(10)
H14_4 H 0.1944 0.3498 0.9558
C20_4 C 0.30849(9) 0.35510(8) 0.94742(9)
C21_4 C 0.36595(9) 0.37938(9) 0.89507(10)
H15_4 H 0.4164 0.3712 0.9089
C22_4 C 0.34718(9) 0.41593(9) 0.82191(10)
H16_4 H 0.3859 0.4325 0.7872
Zn1 Zn 0.7500 0.0000 0.204622(13)
O1_2 O 0.65303(7) 0.02826(7) 0.15464(8)
C1 C 0.72012(9) 0.09669(8) 0.34870(10)
H1 H 0.6701 0.0891 0.3326
N1 N 0.77548(8) 0.07159(7) 0.29904(7)
N2 N 0.78110(8) 0.17992(7) 0.59207(8)
H2 H 0.7446 0.1511 0.5861
C2 C 0.73418(9) 0.13341(9) 0.42284(10)
H3 H 0.6944 0.1502 0.4558
O3 O 0.88376(8) 0.22498(8) 0.52497(9)
C3 C 0.80849(9) 0.14490(8) 0.44742(9)
C4 C 0.86595(9) 0.12062(9) 0.39507(10)
H4 H 0.9164 0.1288 0.4089
C5 C 0.84718(9) 0.08407(9) 0.32191(10)
H5 H 0.8859 0.0675 0.2872
C6 C 0.82858(9) 0.18686(8) 0.52550(10)
C7 C 0.78509(9) 0.21563(8) 0.67172(9)
C8 C 0.71699(10) 0.23279(8) 0.71121(9)
H6 H 0.6714 0.2210 0.6853
C9 C 0.85315(10) 0.23282(9) 0.71064(10)
H7 H 0.8987 0.2215 0.6843
C12_3 C 0.52162(10) 0.04989(10) 0.05862(11)
H8_3 H 0.5359 0.0834 0.0980
C13_3 C 0.45861(9) 0.05989(9) 0.00709(12)
H9_3 H 0.4309 0.1003 0.0118
N4 N 0.78110(8) 0.32008(7) 0.90793(8)
H13 H 0.7446 0.3489 0.9139
O6 O 0.88376(8) 0.27502(8) 0.97503(9)
C23 C 0.82858(9) 0.31314(8) 0.97450(10)
C24 C 0.78509(9) 0.28437(8) 0.82828(9)
C25 C 0.71699(10) 0.26721(8) 0.78879(9)
H17 H 0.6714 0.2790 0.8147
C26 C 0.85315(10) 0.26718(9) 0.78936(10)
H18 H 0.8987 0.2785 0.8157
O2_3 O 0.83032(8) 0.07452(8) 0.09929(9)
C10_3 C 0.86645(9) 0.02058(10) 0.10481(10)
C11_3 C 0.93648(9) 0.01006(9) 0.05157(10)
O5_3 O 0.33032(8) 0.07452(8) 0.90071(9)
C14_3 C 0.36645(9) 0.02058(10) 0.89519(10)
C15_3 C 0.43648(9) 0.01006(9) 0.94843(10)
Zn3_2 Zn 0.2500 0.0000 0.795378(13)
O4_3 O 0.15303(7) 0.02826(7) 0.84536(8)
C16_3 C 0.02162(10) 0.04989(10) 0.94138(11)
H10_3 H 0.0359 0.0834 0.9020
N5 N 0.27548(8) 0.07159(7) 0.70096(7)
C1_2 C 0.22012(9) 0.09669(8) 0.65130(10)
H1_2 H 0.1701 0.0891 0.6674
N2_2 N 0.28110(8) 0.17992(7) 0.40793(8)
H2_2 H 0.2446 0.1511 0.4139
C2_2 C 0.23418(9) 0.13341(9) 0.57716(10)
H3_2 H 0.1944 0.1502 0.5442
O3_2 O 0.38376(8) 0.22498(8) 0.47503(9)
C3_2 C 0.30849(9) 0.14490(8) 0.55258(9)
C4_2 C 0.36595(9) 0.12062(9) 0.60493(10)
H4_2 H 0.4164 0.1288 0.5911
C5_2 C 0.34718(9) 0.08407(9) 0.67809(10)
H5_2 H 0.3859 0.0675 0.7128
C6_2 C 0.32858(9) 0.18686(8) 0.47450(10)
C7_2 C 0.28509(9) 0.21563(8) 0.32828(9)
C8_2 C 0.21699(10) 0.23279(8) 0.28879(9)
H6_2 H 0.1714 0.2210 0.3147
C9_2 C 0.35315(10) 0.23282(9) 0.28936(10)
H7_2 H 0.3987 0.2215 0.3157
N4_2 N 0.28110(8) 0.32008(7) 0.09207(8)
H13_2 H 0.2446 0.3489 0.0861
O6_2 O 0.38376(8) 0.27502(8) 0.02497(9)
C23_2 C 0.32858(9) 0.31314(8) 0.02550(10)
C24_2 C 0.28509(9) 0.28437(8) 0.17172(9)
C25_2 C 0.21699(10) 0.26721(8) 0.21121(9)
H17_2 H 0.1714 0.2790 0.1853
C26_2 C 0.35315(10) 0.26718(9) 0.21064(10)
H18_2 H 0.3987 0.2785 0.1843
Zn1_2 Zn 0.7500 1.0000 0.204622(13)
O2_4 O 0.66968(8) 0.92548(8) 0.09929(9)
C10_4 C 0.63355(9) 0.97942(10) 0.10481(10)
C11_4 C 0.56352(9) 0.98994(9) 0.05157(10)
O7_2 O 0.84697(7) 0.97174(7) 0.15464(8)
N5_2 N 0.72452(8) 0.92841(7) 0.29904(7)
C1_3 C 0.77988(9) 0.90331(8) 0.34870(10)
H1_3 H 0.8299 0.9109 0.3326
N2_3 N 0.71890(8) 0.82008(7) 0.59207(8)
H2_3 H 0.7554 0.8489 0.5861
C2_3 C 0.76582(9) 0.86659(9) 0.42284(10)
H3_3 H 0.8056 0.8498 0.4558
O3_3 O 0.61624(8) 0.77502(8) 0.52497(9)
C3_3 C 0.69151(9) 0.85510(8) 0.44742(9)
C4_3 C 0.63405(9) 0.87938(9) 0.39507(10)
H4_3 H 0.5836 0.8712 0.4089
C5_3 C 0.65282(9) 0.91593(9) 0.32191(10)
H5_3 H 0.6141 0.9325 0.2872
C6_3 C 0.67142(9) 0.81314(8) 0.52550(10)
C7_3 C 0.71491(9) 0.78437(8) 0.67172(9)
C8_3 C 0.78301(10) 0.76721(8) 0.71121(9)
H6_3 H 0.8286 0.7790 0.6853
C9_3 C 0.64685(10) 0.76718(9) 0.71064(10)
H7_3 H 0.6013 0.7785 0.6843
C12_4 C 0.97838(10) 0.95011(10) 0.05862(11)
H8_4 H 0.9641 0.9166 0.0980
N4_3 N 0.71890(8) 0.67992(7) 0.90793(8)
H13_3 H 0.7554 0.6511 0.9139
O6_3 O 0.61624(8) 0.72498(8) 0.97503(9)
C23_3 C 0.67142(9) 0.68686(8) 0.97450(10)
C24_3 C 0.71491(9) 0.71563(8) 0.82828(9)
C25_3 C 0.78301(10) 0.73279(8) 0.78879(9)
H17_3 H 0.8286 0.7210 0.8147
C26_3 C 0.64685(10) 0.73282(9) 0.78936(10)
H18_3 H 0.6013 0.7215 0.8157
O4_4 O 0.34697(7) 0.97174(7) 0.84536(8)
C16_4 C 0.47838(10) 0.95011(10) 0.94138(11)
H10_4 H 0.4641 0.9166 0.9020
C17_3 C 0.54139(9) 0.94011(9) 0.99291(12)
H11_3 H 0.5691 0.8997 0.9882
Zn3_3 Zn 0.2500 1.0000 0.795378(13)
O5_4 O 0.16968(8) 0.92548(8) 0.90071(9)
C14_4 C 0.13355(9) 0.97942(10) 0.89519(10)
C15_4 C 0.06352(9) 0.98994(9) 0.94843(10)
C1_4 C 0.27988(9) 0.90331(8) 0.65130(10)
H1_4 H 0.3299 0.9109 0.6674
N1_2 N 0.22452(8) 0.92841(7) 0.70096(7)
N2_4 N 0.21890(8) 0.82008(7) 0.40793(8)
H2_4 H 0.2554 0.8489 0.4139
C2_4 C 0.26582(9) 0.86659(9) 0.57716(10)
H3_4 H 0.3056 0.8498 0.5442
O3_4 O 0.11624(8) 0.77502(8) 0.47503(9)
C3_4 C 0.19151(9) 0.85510(8) 0.55258(9)
C4_4 C 0.13405(9) 0.87938(9) 0.60493(10)
H4_4 H 0.0836 0.8712 0.5911
C5_4 C 0.15282(9) 0.91593(9) 0.67809(10)
H5_4 H 0.1141 0.9325 0.7128
C6_4 C 0.17142(9) 0.81314(8) 0.47450(10)
C7_4 C 0.21491(9) 0.78437(8) 0.32828(9)
C8_4 C 0.28301(10) 0.76721(8) 0.28879(9)
H6_4 H 0.3286 0.7790 0.3147
C9_4 C 0.14685(10) 0.76718(9) 0.28936(10)
H7_4 H 0.1013 0.7785 0.3157
N4_4 N 0.21890(8) 0.67992(7) 0.09207(8)
H13_4 H 0.2554 0.6511 0.0861
O6_4 O 0.11624(8) 0.72498(8) 0.02497(9)
C23_4 C 0.17142(9) 0.68686(8) 0.02550(10)
C24_4 C 0.21491(9) 0.71563(8) 0.17172(9)
C25_4 C 0.28301(10) 0.73279(8) 0.21121(9)
H17_4 H 0.3286 0.7210 0.1853
C26_4 C 0.14685(10) 0.73282(9) 0.21064(10)
H18_4 H 0.1013 0.7215 0.1843
C13_4 C 0.04139(9) 0.94011(9) 0.00709(12)
H9_4 H 0.0691 0.8997 0.0118
C17_4 C 0.95861(9) 0.05989(9) 0.99291(12)
H11_4 H 0.9309 0.1003 0.9882
Zn1_3 Zn 0.2500 -0.0000 0.295378(13)
O2_5 O 0.16968(8) 0.07452(8) 0.40071(9)
C10_5 C 0.13355(9) 0.02058(10) 0.39519(10)
C11_5 C 0.06352(9) 0.01006(9) 0.44843(10)
C17_5 C 0.04139(9) 0.05989(9) 0.50709(12)
H11_5 H 0.0691 0.1003 0.5118
O7_3 O 0.34697(7) 0.02826(7) 0.34536(8)
N5_3 N 0.22452(8) 0.07159(7) 0.20096(7)
O4_5 O 0.84697(7) 0.02826(7) 0.65464(8)
C16_5 C 0.97838(10) 0.04989(10) 0.55862(11)
H10_5 H 0.9641 0.0834 0.5980
Zn3_4 Zn 0.7500 0.0000 0.704622(13)
C1_5 C 0.27988(9) 0.09669(8) 0.15130(10)
H1_5 H 0.3299 0.0891 0.1674
C2_5 C 0.26582(9) 0.13341(9) 0.07716(10)
H3_5 H 0.3056 0.1502 0.0442
C3_5 C 0.19151(9) 0.14490(8) 0.05258(9)
C4_5 C 0.13405(9) 0.12062(9) 0.10493(10)
H4_5 H 0.0836 0.1288 0.0911
C5_5 C 0.15282(9) 0.08407(9) 0.17809(10)
H5_5 H 0.1141 0.0675 0.2128
C12_5 C 0.47838(10) 0.04989(10) 0.44138(11)
H8_5 H 0.4641 0.0834 0.4020
C13_5 C 0.54139(9) 0.05989(9) 0.49291(12)
H9_5 H 0.5691 0.1003 0.4882
O5_5 O 0.66968(8) 0.07452(8) 0.59929(9)
C14_5 C 0.63355(9) 0.02058(10) 0.60481(10)
C15_5 C 0.56352(9) 0.01006(9) 0.55157(10)
C1_6 C 0.77988(9) 0.09669(8) 0.84870(10)
H1_6 H 0.8299 0.0891 0.8326
N1_3 N 0.72452(8) 0.07159(7) 0.79904(7)
C2_6 C 0.76582(9) 0.13341(9) 0.92284(10)
H3_6 H 0.8056 0.1502 0.9558
C3_6 C 0.69151(9) 0.14490(8) 0.94742(9)
C4_6 C 0.63405(9) 0.12062(9) 0.89507(10)
H4_6 H 0.5836 0.1288 0.9089
C5_6 C 0.65282(9) 0.08407(9) 0.82191(10)
H5_6 H 0.6141 0.0675 0.7872
Zn1_4 Zn 0.2500 1.0000 0.295378(13)
O1_3 O 0.15303(7) 0.97174(7) 0.34536(8)
C1_7 C 0.22012(9) 0.90331(8) 0.15130(10)
H1_7 H 0.1701 0.9109 0.1674
N1_4 N 0.27548(8) 0.92841(7) 0.20096(7)
C2_7 C 0.23418(9) 0.86659(9) 0.07716(10)
H3_7 H 0.1944 0.8498 0.0442
C3_7 C 0.30849(9) 0.85510(8) 0.05258(9)
C4_7 C 0.36595(9) 0.87938(9) 0.10493(10)
H4_7 H 0.4164 0.8712 0.0911
C5_7 C 0.34718(9) 0.91593(9) 0.17809(10)
H5_7 H 0.3859 0.9325 0.2128
C12_6 C 0.02162(10) 0.95011(10) 0.44138(11)
H8_6 H 0.0359 0.9166 0.4020
C13_6 C 0.95861(9) 0.94011(9) 0.49291(12)
H9_6 H 0.9309 0.8997 0.4882
O5_6 O 0.83032(8) 0.92548(8) 0.59929(9)
C14_6 C 0.86645(9) 0.97942(10) 0.60481(10)
C15_6 C 0.93648(9) 0.98994(9) 0.55157(10)
Zn3_5 Zn 0.7500 1.0000 0.704622(13)
O2_6 O 0.33032(8) 0.92548(8) 0.40071(9)
C10_6 C 0.36645(9) 0.97942(10) 0.39519(10)
C11_6 C 0.43648(9) 0.98994(9) 0.44843(10)
O4_6 O 0.65303(7) 0.97174(7) 0.65464(8)
C16_6 C 0.52162(10) 0.95011(10) 0.55862(11)
H10_6 H 0.5359 0.9166 0.5980
C17_6 C 0.45861(9) 0.94011(9) 0.50709(12)
H11_6 H 0.4309 0.8997 0.5118
N5_4 N 0.77548(8) 0.92841(7) 0.79904(7)
C1_8 C 0.72012(9) 0.90331(8) 0.84870(10)
H1_8 H 0.6701 0.9109 0.8326
C2_8 C 0.73418(9) 0.86659(9) 0.92284(10)
H3_8 H 0.6944 0.8498 0.9558
C3_8 C 0.80849(9) 0.85510(8) 0.94742(9)
C4_8 C 0.86595(9) 0.87938(9) 0.89507(10)
H4_8 H 0.9164 0.8712 0.9089
C5_8 C 0.84718(9) 0.91593(9) 0.82191(10)
H5_8 H 0.8859 0.9325 0.7872
N2_5 N 0.28110(8) 0.82008(7) 0.90793(8)
H2_5 H 0.2446 0.8489 0.9139
O3_5 O 0.38376(8) 0.77502(8) 0.97503(9)
C6_5 C 0.32858(9) 0.81314(8) 0.97450(10)
C7_5 C 0.28509(9) 0.78437(8) 0.82828(9)
C8_5 C 0.21699(10) 0.76721(8) 0.78879(9)
H6_5 H 0.1714 0.7790 0.8147
C9_5 C 0.35315(10) 0.76718(9) 0.78936(10)
H7_5 H 0.3987 0.7785 0.8157
C18_5 C 0.22012(9) 0.59669(8) 0.34870(10)
H12_5 H 0.1701 0.5891 0.3326
N3_5 N 0.27548(8) 0.57159(7) 0.29904(7)
N4_5 N 0.28110(8) 0.67992(7) 0.59207(8)
H13_5 H 0.2446 0.6511 0.5861
C19_5 C 0.23418(9) 0.63341(9) 0.42284(10)
H14_5 H 0.1944 0.6502 0.4558
O6_5 O 0.38376(8) 0.72498(8) 0.52497(9)
C20_5 C 0.30849(9) 0.64490(8) 0.44742(9)
C21_5 C 0.36595(9) 0.62062(9) 0.39507(10)
H15_5 H 0.4164 0.6288 0.4089
C22_5 C 0.34718(9) 0.58407(9) 0.32191(10)
H16_5 H 0.3859 0.5675 0.2872
C23_5 C 0.32858(9) 0.68686(8) 0.52550(10)
C24_5 C 0.28509(9) 0.71563(8) 0.67172(9)
C25_5 C 0.21699(10) 0.73279(8) 0.71121(9)
H17_5 H 0.1714 0.7210 0.6853
C26_5 C 0.35315(10) 0.73282(9) 0.71064(10)
H18_5 H 0.3987 0.7215 0.6843
Zn2_2 Zn 0.2500 0.5000 0.204622(13)
N2_6 N 0.21890(8) 0.17992(7) 0.90793(8)
H2_6 H 0.2554 0.1511 0.9139
O3_6 O 0.11624(8) 0.22498(8) 0.97503(9)
C6_6 C 0.17142(9) 0.18686(8) 0.97450(10)
C7_6 C 0.21491(9) 0.21563(8) 0.82828(9)
C8_6 C 0.28301(10) 0.23279(8) 0.78879(9)
H6_6 H 0.3286 0.2210 0.8147
C9_6 C 0.14685(10) 0.23282(9) 0.78936(10)
H7_6 H 0.1013 0.2215 0.8157
C18_6 C 0.27988(9) 0.40331(8) 0.34870(10)
H12_6 H 0.3299 0.4109 0.3326
N3_6 N 0.22452(8) 0.42841(7) 0.29904(7)
N4_6 N 0.21890(8) 0.32008(7) 0.59207(8)
H13_6 H 0.2554 0.3489 0.5861
C19_6 C 0.26582(9) 0.36659(9) 0.42284(10)
H14_6 H 0.3056 0.3498 0.4558
O6_6 O 0.11624(8) 0.27502(8) 0.52497(9)
C20_6 C 0.19151(9) 0.35510(8) 0.44742(9)
C21_6 C 0.13405(9) 0.37938(9) 0.39507(10)
H15_6 H 0.0836 0.3712 0.4089
C22_6 C 0.15282(9) 0.41593(9) 0.32191(10)
H16_6 H 0.1141 0.4325 0.2872
C23_6 C 0.17142(9) 0.31314(8) 0.52550(10)
C24_6 C 0.21491(9) 0.28437(8) 0.67172(9)
C25_6 C 0.28301(10) 0.26721(8) 0.71121(9)
H17_6 H 0.3286 0.2790 0.6853
C26_6 C 0.14685(10) 0.26718(9) 0.71064(10)
H18_6 H 0.1013 0.2785 0.6843
O1_4 O 0.15303(7) 0.52826(7) 0.15464(8)
O2_7 O 0.16968(8) 0.42548(8) 0.09929(9)
C10_7 C 0.13355(9) 0.47942(10) 0.10481(10)
C11_7 C 0.06352(9) 0.48994(9) 0.05157(10)
C12_7 C 0.02162(10) 0.54989(10) 0.05862(11)
H8_7 H 0.0359 0.5834 0.0980
O7_4 O 0.34697(7) 0.47174(7) 0.15464(8)
O2_8 O 0.33032(8) 0.57452(8) 0.09929(9)
C10_8 C 0.36645(9) 0.52058(10) 0.10481(10)
C11_8 C 0.43648(9) 0.51006(9) 0.05157(10)
C12_8 C 0.47838(10) 0.45011(10) 0.05862(11)
H8_8 H 0.4641 0.4166 0.0980
C13_7 C 0.54139(9) 0.44011(9) 0.00709(12)
H9_7 H 0.5691 0.3997 0.0118
C17_7 C 0.04139(9) 0.44011(9) 0.99291(12)
H11_7 H 0.0691 0.3997 0.9882
C13_8 C 0.95861(9) 0.55989(9) 0.00709(12)
H9_8 H 0.9309 0.6003 0.0118
O4_7 O 0.84697(7) 0.47174(7) 0.84536(8)
O5_7 O 0.83032(8) 0.57452(8) 0.90071(9)
C14_7 C 0.86645(9) 0.52058(10) 0.89519(10)
C15_7 C 0.93648(9) 0.51006(9) 0.94843(10)
C16_7 C 0.97838(10) 0.45011(10) 0.94138(11)
H10_7 H 0.9641 0.4166 0.9020
Zn3_6 Zn 0.7500 0.5000 0.795378(13)
O4_8 O 0.65303(7) 0.52826(7) 0.84536(8)
O5_8 O 0.66968(8) 0.42548(8) 0.90071(9)
C14_8 C 0.63355(9) 0.47942(10) 0.89519(10)
C15_8 C 0.56352(9) 0.48994(9) 0.94843(10)
C16_8 C 0.52162(10) 0.54989(10) 0.94138(11)
H10_8 H 0.5359 0.5834 0.9020
C17_8 C 0.45861(9) 0.55989(9) 0.99291(12)
H11_8 H 0.4309 0.6003 0.9882
N2_7 N 0.71890(8) 0.17992(7) 0.09207(8)
H2_7 H 0.7554 0.1511 0.0861
O3_7 O 0.61624(8) 0.22498(8) 0.02497(9)
C6_7 C 0.67142(9) 0.18686(8) 0.02550(10)
C7_7 C 0.71491(9) 0.21563(8) 0.17172(9)
C8_7 C 0.78301(10) 0.23279(8) 0.21121(9)
H6_7 H 0.8286 0.2210 0.1853
C9_7 C 0.64685(10) 0.23282(9) 0.21064(10)
H7_7 H 0.6013 0.2215 0.1843
C18_7 C 0.77988(9) 0.40331(8) 0.65130(10)
H12_7 H 0.8299 0.4109 0.6674
N3_7 N 0.72452(8) 0.42841(7) 0.70096(7)
N4_7 N 0.71890(8) 0.32008(7) 0.40793(8)
H13_7 H 0.7554 0.3489 0.4139
C19_7 C 0.76582(9) 0.36659(9) 0.57716(10)
H14_7 H 0.8056 0.3498 0.5442
O6_7 O 0.61624(8) 0.27502(8) 0.47503(9)
C20_7 C 0.69151(9) 0.35510(8) 0.55258(9)
C21_7 C 0.63405(9) 0.37938(9) 0.60493(10)
H15_7 H 0.5836 0.3712 0.5911
C22_7 C 0.65282(9) 0.41593(9) 0.67809(10)
H16_7 H 0.6141 0.4325 0.7128
C23_7 C 0.67142(9) 0.31314(8) 0.47450(10)
C24_7 C 0.71491(9) 0.28437(8) 0.32828(9)
C25_7 C 0.78301(10) 0.26721(8) 0.28879(9)
H17_7 H 0.8286 0.2790 0.3147
C26_7 C 0.64685(10) 0.26718(9) 0.28936(10)
H18_7 H 0.6013 0.2785 0.3157
N2_8 N 0.78110(8) 0.82008(7) 0.09207(8)
H2_8 H 0.7446 0.8489 0.0861
O3_8 O 0.88376(8) 0.77502(8) 0.02497(9)
C6_8 C 0.82858(9) 0.81314(8) 0.02550(10)
C7_8 C 0.78509(9) 0.78437(8) 0.17172(9)
C8_8 C 0.71699(10) 0.76721(8) 0.21121(9)
H6_8 H 0.6714 0.7790 0.1853
C9_8 C 0.85315(10) 0.76718(9) 0.21064(10)
H7_8 H 0.8987 0.7785 0.1843
C18_8 C 0.72012(9) 0.59669(8) 0.65130(10)
H12_8 H 0.6701 0.5891 0.6674
N3_8 N 0.77548(8) 0.57159(7) 0.70096(7)
N4_8 N 0.78110(8) 0.67992(7) 0.40793(8)
H13_8 H 0.7446 0.6511 0.4139
C19_8 C 0.73418(9) 0.63341(9) 0.57716(10)
H14_8 H 0.6944 0.6502 0.5442
O6_8 O 0.88376(8) 0.72498(8) 0.47503(9)
C20_8 C 0.80849(9) 0.64490(8) 0.55258(9)
C21_8 C 0.86595(9) 0.62062(9) 0.60493(10)
H15_8 H 0.9164 0.6288 0.5911
C22_8 C 0.84718(9) 0.58407(9) 0.67809(10)
H16_8 H 0.8859 0.5675 0.7128
C23_8 C 0.82858(9) 0.68686(8) 0.47450(10)
C24_8 C 0.78509(9) 0.71563(8) 0.32828(9)
C25_8 C 0.71699(10) 0.73279(8) 0.28879(9)
H17_8 H 0.6714 0.7210 0.3147
C26_8 C 0.85315(10) 0.73282(9) 0.28936(10)
H18_8 H 0.8987 0.7215 0.3157
loop_
_geom_bond_atom_site_label_1
_geom_bond_atom_site_label_2
_geom_bond_site_symmetry_1
_geom_bond_site_symmetry_2
C18 H12 1_555 1_555
N3 C18 1_555 1_555
C19 C18 1_555 1_555
H14 C19 1_555 1_555
C20 C19 1_555 1_555
C21 C20 1_555 1_555
H15 C21 1_555 1_555
C22 N3 1_555 1_555
H16 C22 1_555 1_555
Zn2 N3 1_555 1_555
C21 C22 1_555 1_555
C18_2 H12_2 1_555 1_555
N3_2 C18_2 1_555 1_555
C19_2 C18_2 1_555 1_555
H14_2 C19_2 1_555 1_555
C20_2 C19_2 1_555 1_555
C21_2 C20_2 1_555 1_555
H15_2 C21_2 1_555 1_555
C22_2 N3_2 1_555 1_555
H16_2 C22_2 1_555 1_555
Zn2 N3_2 1_555 1_555
C21_2 C22_2 1_555 1_555
Zn2 O1 1_555 1_555
O1 C10 1_555 1_555
O2 C10 1_555 1_555
C10 C11 1_555 1_555
C11 C12 1_555 1_555
C12 H8 1_555 1_555
C13 C12 1_555 1_555
H9 C13 1_555 1_555
O4 C14 1_555 1_555
O5 C14 1_555 1_555
C14 C15 1_555 1_555
C15 C13 1_555 1_555
C16 C15 1_555 1_555
H10 C16 1_555 1_555
C17 C11 1_555 1_555
H11 C17 1_555 1_555
Zn3 O4 1_555 1_555
O7 Zn2 1_555 1_555
C16 C17 1_555 1_555
H9_2 C13_2 1_555 1_555
O4_2 C14_2 1_555 1_555
O5_2 C14_2 1_555 1_555
C14_2 C15_2 1_555 1_555
C15_2 C13_2 1_555 1_555
C16_2 C15_2 1_555 1_555
H10_2 C16_2 1_555 1_555
Zn3 O4_2 1_555 1_555
O7 C10_2 1_555 1_555
O2_2 C10_2 1_555 1_555
C10_2 C11_2 1_555 1_555
C11_2 C12_2 1_555 1_555
C12_2 H8_2 1_555 1_555
C17_2 C11_2 1_555 1_555
H11_2 C17_2 1_555 1_555
C18_3 H12_3 1_555 1_555
N3_3 C18_3 1_555 1_555
C19_3 C18_3 1_555 1_555
H14_3 C19_3 1_555 1_555
C20_3 C19_3 1_555 1_555
C21_3 C20_3 1_555 1_555
H15_3 C21_3 1_555 1_555
C22_3 N3_3 1_555 1_555
H16_3 C22_3 1_555 1_555
Zn3 N3_3 1_555 1_555
C21_3 C22_3 1_555 1_555
C18_4 H12_4 1_555 1_555
N3_4 C18_4 1_555 1_555
C19_4 C18_4 1_555 1_555
H14_4 C19_4 1_555 1_555
C20_4 C19_4 1_555 1_555
C21_4 C20_4 1_555 1_555
H15_4 C21_4 1_555 1_555
C22_4 N3_4 1_555 1_555
H16_4 C22_4 1_555 1_555
Zn3 N3_4 1_555 1_555
C21_4 C22_4 1_555 1_555
Zn1 O1_2 1_555 1_555
C1 H1 1_555 1_555
N1 Zn1 1_555 1_555
N2 H2 1_555 1_555
C2 C1 1_555 1_555
H3 C2 1_555 1_555
O3 C6 1_555 1_555
C3 C2 1_555 1_555
C4 C3 1_555 1_555
H4 C4 1_555 1_555
C5 N1 1_555 1_555
H5 C5 1_555 1_555
C6 N2 1_555 1_555
C7 N2 1_555 1_555
C8 C7 1_555 1_555
H6 C8 1_555 1_555
C9 C7 1_555 1_555
H7 C9 1_555 1_555
C12_3 H8_3 1_555 1_555
C13_3 C12_3 1_555 1_555
H9_3 C13_3 1_555 1_555
N4 H13 1_555 1_555
O6 C23 1_555 1_555
C23 N4 1_555 1_555
C24 N4 1_555 1_555
C25 C8 1_555 1_555
H17 C25 1_555 1_555
C26 C9 1_555 1_555
H18 C26 1_555 1_555
C1 N1 1_555 1_555
C3 C6 1_555 1_555
C4 C5 1_555 1_555
C24 C25 1_555 1_555
C24 C26 1_555 1_555
O2_3 C10_3 1_555 1_555
C10_3 C11_3 1_555 1_555
O5_3 C14_3 1_555 1_555
C14_3 C15_3 1_555 1_555
H10_3 C16_3 1_555 1_555
Zn3_2 O4_3 1_555 1_555
N5 Zn3_2 1_555 1_555
C1_2 H1_2 1_555 1_555
N2_2 H2_2 1_555 1_555
C2_2 C1_2 1_555 1_555
H3_2 C2_2 1_555 1_555
O3_2 C6_2 1_555 1_555
C3_2 C2_2 1_555 1_555
C4_2 C3_2 1_555 1_555
H4_2 C4_2 1_555 1_555
C5_2 N5 1_555 1_555
H5_2 C5_2 1_555 1_555
C6_2 N2_2 1_555 1_555
C7_2 N2_2 1_555 1_555
C8_2 C7_2 1_555 1_555
H6_2 C8_2 1_555 1_555
C9_2 C7_2 1_555 1_555
H7_2 C9_2 1_555 1_555
N4_2 H13_2 1_555 1_555
O6_2 C23_2 1_555 1_555
C23_2 N4_2 1_555 1_555
C24_2 N4_2 1_555 1_555
C25_2 C8_2 1_555 1_555
H17_2 C25_2 1_555 1_555
C26_2 C9_2 1_555 1_555
H18_2 C26_2 1_555 1_555
C1_2 N5 1_555 1_555
C3_2 C6_2 1_555 1_555
C4_2 C5_2 1_555 1_555
C24_2 C25_2 1_555 1_555
C24_2 C26_2 1_555 1_555
O2_4 C10_4 1_555 1_555
C10_4 C11_4 1_555 1_555
O7_2 Zn1_2 1_555 1_555
N5_2 Zn1_2 1_555 1_555
C1_3 H1_3 1_555 1_555
N2_3 H2_3 1_555 1_555
C2_3 C1_3 1_555 1_555
H3_3 C2_3 1_555 1_555
O3_3 C6_3 1_555 1_555
C3_3 C2_3 1_555 1_555
C4_3 C3_3 1_555 1_555
H4_3 C4_3 1_555 1_555
C5_3 N5_2 1_555 1_555
H5_3 C5_3 1_555 1_555
C6_3 N2_3 1_555 1_555
C7_3 N2_3 1_555 1_555
C8_3 C7_3 1_555 1_555
H6_3 C8_3 1_555 1_555
C9_3 C7_3 1_555 1_555
H7_3 C9_3 1_555 1_555
C12_4 H8_4 1_555 1_555
N4_3 H13_3 1_555 1_555
O6_3 C23_3 1_555 1_555
C23_3 N4_3 1_555 1_555
C24_3 N4_3 1_555 1_555
C25_3 C8_3 1_555 1_555
H17_3 C25_3 1_555 1_555
C26_3 C9_3 1_555 1_555
H18_3 C26_3 1_555 1_555
C1_3 N5_2 1_555 1_555
C3_3 C6_3 1_555 1_555
C4_3 C5_3 1_555 1_555
C24_3 C25_3 1_555 1_555
C24_3 C26_3 1_555 1_555
H10_4 C16_4 1_555 1_555
H11_3 C17_3 1_555 1_555
Zn3_3 O4_4 1_555 1_555
C16_4 C17_3 1_555 1_555
O5_4 C14_4 1_555 1_555
C14_4 C15_4 1_555 1_555
C1_4 H1_4 1_555 1_555
N1_2 Zn3_3 1_555 1_555
N2_4 H2_4 1_555 1_555
C2_4 C1_4 1_555 1_555
H3_4 C2_4 1_555 1_555
O3_4 C6_4 1_555 1_555
C3_4 C2_4 1_555 1_555
C4_4 C3_4 1_555 1_555
H4_4 C4_4 1_555 1_555
C5_4 N1_2 1_555 1_555
H5_4 C5_4 1_555 1_555
C6_4 N2_4 1_555 1_555
C7_4 N2_4 1_555 1_555
C8_4 C7_4 1_555 1_555
H6_4 C8_4 1_555 1_555
C9_4 C7_4 1_555 1_555
H7_4 C9_4 1_555 1_555
N4_4 H13_4 1_555 1_555
O6_4 C23_4 1_555 1_555
C23_4 N4_4 1_555 1_555
C24_4 N4_4 1_555 1_555
C25_4 C8_4 1_555 1_555
H17_4 C25_4 1_555 1_555
C26_4 C9_4 1_555 1_555
H18_4 C26_4 1_555 1_555
C1_4 N1_2 1_555 1_555
C3_4 C6_4 1_555 1_555
C4_4 C5_4 1_555 1_555
C24_4 C25_4 1_555 1_555
C24_4 C26_4 1_555 1_555
H9_4 C13_4 1_555 1_555
H11_4 C17_4 1_555 1_555
O2_5 C10_5 1_555 1_555
C10_5 C11_5 1_555 1_555
C17_5 C11_5 1_555 1_555
H11_5 C17_5 1_555 1_555
O7_3 Zn1_3 1_555 1_555
N5_3 Zn1_3 1_555 1_555
H10_5 C16_5 1_555 1_555
Zn3_4 O4_5 1_555 1_555
C1_5 H1_5 1_555 1_555
C2_5 C1_5 1_555 1_555
H3_5 C2_5 1_555 1_555
C3_5 C2_5 1_555 1_555
C4_5 C3_5 1_555 1_555
H4_5 C4_5 1_555 1_555
C5_5 N5_3 1_555 1_555
H5_5 C5_5 1_555 1_555
C12_5 H8_5 1_555 1_555
C13_5 C12_5 1_555 1_555
H9_5 C13_5 1_555 1_555
O5_5 C14_5 1_555 1_555
C14_5 C15_5 1_555 1_555
C15_5 C13_5 1_555 1_555
C1_5 N5_3 1_555 1_555
C4_5 C5_5 1_555 1_555
C1_6 H1_6 1_555 1_555
N1_3 Zn3_4 1_555 1_555
C2_6 C1_6 1_555 1_555
H3_6 C2_6 1_555 1_555
C3_6 C2_6 1_555 1_555
C4_6 C3_6 1_555 1_555
H4_6 C4_6 1_555 1_555
C5_6 N1_3 1_555 1_555
H5_6 C5_6 1_555 1_555
C1_6 N1_3 1_555 1_555
C4_6 C5_6 1_555 1_555
Zn1_4 O1_3 1_555 1_555
C1_7 H1_7 1_555 1_555
N1_4 Zn1_4 1_555 1_555
C2_7 C1_7 1_555 1_555
H3_7 C2_7 1_555 1_555
C3_7 C2_7 1_555 1_555
C4_7 C3_7 1_555 1_555
H4_7 C4_7 1_555 1_555
C5_7 N1_4 1_555 1_555
H5_7 C5_7 1_555 1_555
C12_6 H8_6 1_555 1_555
C1_7 N1_4 1_555 1_555
C4_7 C5_7 1_555 1_555
H9_6 C13_6 1_555 1_555
O5_6 C14_6 1_555 1_555
C14_6 C15_6 1_555 1_555
C15_6 C13_6 1_555 1_555
O2_6 C10_6 1_555 1_555
C10_6 C11_6 1_555 1_555
H10_6 C16_6 1_555 1_555
C17_6 C11_6 1_555 1_555
H11_6 C17_6 1_555 1_555
Zn3_5 O4_6 1_555 1_555
C16_6 C17_6 1_555 1_555
N5_4 Zn3_5 1_555 1_555
C1_8 H1_8 1_555 1_555
C2_8 C1_8 1_555 1_555
H3_8 C2_8 1_555 1_555
C3_8 C2_8 1_555 1_555
C4_8 C3_8 1_555 1_555
H4_8 C4_8 1_555 1_555
C5_8 N5_4 1_555 1_555
H5_8 C5_8 1_555 1_555
C1_8 N5_4 1_555 1_555
C4_8 C5_8 1_555 1_555
N2_5 H2_5 1_555 1_555
O3_5 C6_5 1_555 1_555
C6_5 N2_5 1_555 1_555
C7_5 N2_5 1_555 1_555
C8_5 C7_5 1_555 1_555
H6_5 C8_5 1_555 1_555
C9_5 C7_5 1_555 1_555
H7_5 C9_5 1_555 1_555
C18_5 H12_5 1_555 1_555
N3_5 C18_5 1_555 1_555
N4_5 H13_5 1_555 1_555
C19_5 C18_5 1_555 1_555
H14_5 C19_5 1_555 1_555
O6_5 C23_5 1_555 1_555
C20_5 C19_5 1_555 1_555
C21_5 C20_5 1_555 1_555
H15_5 C21_5 1_555 1_555
C22_5 N3_5 1_555 1_555
H16_5 C22_5 1_555 1_555
C23_5 N4_5 1_555 1_555
C24_5 N4_5 1_555 1_555
C25_5 C8_5 1_555 1_555
H17_5 C25_5 1_555 1_555
C26_5 C9_5 1_555 1_555
H18_5 C26_5 1_555 1_555
Zn2_2 N3_5 1_555 1_555
C20_5 C23_5 1_555 1_555
C21_5 C22_5 1_555 1_555
C24_5 C25_5 1_555 1_555
C24_5 C26_5 1_555 1_555
N2_6 H2_6 1_555 1_555
O3_6 C6_6 1_555 1_555
C6_6 N2_6 1_555 1_555
C7_6 N2_6 1_555 1_555
C8_6 C7_6 1_555 1_555
H6_6 C8_6 1_555 1_555
C9_6 C7_6 1_555 1_555
H7_6 C9_6 1_555 1_555
C18_6 H12_6 1_555 1_555
N3_6 C18_6 1_555 1_555
N4_6 H13_6 1_555 1_555
C19_6 C18_6 1_555 1_555
H14_6 C19_6 1_555 1_555
O6_6 C23_6 1_555 1_555
C20_6 C19_6 1_555 1_555
C21_6 C20_6 1_555 1_555
H15_6 C21_6 1_555 1_555
C22_6 N3_6 1_555 1_555
H16_6 C22_6 1_555 1_555
C23_6 N4_6 1_555 1_555
C24_6 N4_6 1_555 1_555
C25_6 C8_6 1_555 1_555
H17_6 C25_6 1_555 1_555
C26_6 C9_6 1_555 1_555
H18_6 C26_6 1_555 1_555
Zn2_2 N3_6 1_555 1_555
C20_6 C23_6 1_555 1_555
C21_6 C22_6 1_555 1_555
C24_6 C25_6 1_555 1_555
C24_6 C26_6 1_555 1_555
Zn2_2 O1_4 1_555 1_555
O1_4 C10_7 1_555 1_555
O2_7 C10_7 1_555 1_555
C10_7 C11_7 1_555 1_555
C11_7 C12_7 1_555 1_555
C12_7 H8_7 1_555 1_555
O7_4 Zn2_2 1_555 1_555
O7_4 C10_8 1_555 1_555
O2_8 C10_8 1_555 1_555
C10_8 C11_8 1_555 1_555
C11_8 C12_8 1_555 1_555
C12_8 H8_8 1_555 1_555
C13_7 C12_8 1_555 1_555
H9_7 C13_7 1_555 1_555
H11_7 C17_7 1_555 1_555
H9_8 C13_8 1_555 1_555
O4_7 C14_7 1_555 1_555
O5_7 C14_7 1_555 1_555
C14_7 C15_7 1_555 1_555
C16_7 C15_7 1_555 1_555
H10_7 C16_7 1_555 1_555
Zn3_6 O4_7 1_555 1_555
O4_8 C14_8 1_555 1_555
O5_8 C14_8 1_555 1_555
C14_8 C15_8 1_555 1_555
C16_8 C15_8 1_555 1_555
H10_8 C16_8 1_555 1_555
H11_8 C17_8 1_555 1_555
Zn3_6 O4_8 1_555 1_555
C16_8 C17_8 1_555 1_555
N2_7 H2_7 1_555 1_555
O3_7 C6_7 1_555 1_555
C6_7 N2_7 1_555 1_555
C7_7 N2_7 1_555 1_555
C8_7 C7_7 1_555 1_555
H6_7 C8_7 1_555 1_555
C9_7 C7_7 1_555 1_555
H7_7 C9_7 1_555 1_555
C18_7 H12_7 1_555 1_555
N3_7 C18_7 1_555 1_555
N4_7 H13_7 1_555 1_555
C19_7 C18_7 1_555 1_555
H14_7 C19_7 1_555 1_555
O6_7 C23_7 1_555 1_555
C20_7 C19_7 1_555 1_555
C21_7 C20_7 1_555 1_555
H15_7 C21_7 1_555 1_555
C22_7 N3_7 1_555 1_555
H16_7 C22_7 1_555 1_555
C23_7 N4_7 1_555 1_555
C24_7 N4_7 1_555 1_555
C25_7 C8_7 1_555 1_555
H17_7 C25_7 1_555 1_555
C26_7 C9_7 1_555 1_555
H18_7 C26_7 1_555 1_555
Zn3_6 N3_7 1_555 1_555
C20_7 C23_7 1_555 1_555
C21_7 C22_7 1_555 1_555
C24_7 C25_7 1_555 1_555
C24_7 C26_7 1_555 1_555
N2_8 H2_8 1_555 1_555
O3_8 C6_8 1_555 1_555
C6_8 N2_8 1_555 1_555
C7_8 N2_8 1_555 1_555
C8_8 C7_8 1_555 1_555
H6_8 C8_8 1_555 1_555
C9_8 C7_8 1_555 1_555
H7_8 C9_8 1_555 1_555
C18_8 H12_8 1_555 1_555
N3_8 C18_8 1_555 1_555
N4_8 H13_8 1_555 1_555
C19_8 C18_8 1_555 1_555
H14_8 C19_8 1_555 1_555
O6_8 C23_8 1_555 1_555
C20_8 C19_8 1_555 1_555
C21_8 C20_8 1_555 1_555
H15_8 C21_8 1_555 1_555
C22_8 N3_8 1_555 1_555
H16_8 C22_8 1_555 1_555
C23_8 N4_8 1_555 1_555
C24_8 N4_8 1_555 1_555
C25_8 C8_8 1_555 1_555
H17_8 C25_8 1_555 1_555
C26_8 C9_8 1_555 1_555
H18_8 C26_8 1_555 1_555
Zn3_6 N3_8 1_555 1_555
C20_8 C23_8 1_555 1_555
C21_8 C22_8 1_555 1_555
C24_8 C25_8 1_555 1_555
C24_8 C26_8 1_555 1_555

#END
