
###############################################################################
#
# This file contains modified crystal structure data generated from the
# MOF subset of the Cambridge Structural Database (CSD) v543 
# hosted by the Cambridge Crystallographic Data Centre (CCDC).
#
# This work is licensed under the Creative Commons
# Attribution-NonCommercial-ShareAlike 4.0 International License.
# To view a copy of this license, visit
# http://creativecommons.org/licenses/by-nc-sa/4.0/
# or send a letter to
# Creative Commons, PO Box 1866, Mountain View, CA 94042, USA.
#
# CIF created using the CSD Python API on 29 September 2022
# The structure has been converted into the P1 space group
# The structure has a 3D framework
# The original CSD entry BENXUP is in the monoclinic crystal system
# The framework has been calculated to contain at least 10.0% void space
# The void calculation uses a probe of radius 1.32A, grid spacing 0.4
#
###############################################################################

data_BENXUP
_chemical_formula_moiety         '(C80 H72 N16 O32 Zn14)n'
_symmetry_cell_setting           triclinic
_symmetry_space_group_name_H-M   'P 1'
_symmetry_Int_Tables_number      1
_space_group_name_Hall           'P 1'
loop_
_symmetry_equiv_pos_site_id
_symmetry_equiv_pos_as_xyz
1 x,y,z
_cell_length_a                   20.436(4)
_cell_length_b                   9.0050(17)
_cell_length_c                   16.672(3)
_cell_angle_alpha                90
_cell_angle_beta                 110.230(3)
_cell_angle_gamma                90
_cell_volume                     2878.82
loop_
_atom_site_label
_atom_site_type_symbol
_atom_site_fract_x
_atom_site_fract_y
_atom_site_fract_z
Zn1 Zn 0.16081(4) 0.30529(9) 0.26751(4)
Zn2 Zn 0.0000 0.24815(13) 0.2500
O1 O 0.0553(2) 0.1111(6) 0.3380(3)
O2 O 0.0647(3) 0.3654(7) 0.2192(4)
O3 O 0.1574(2) 0.2275(6) 0.3812(3)
N1 N 0.2651(3) 0.0414(7) 0.6961(3)
C1 C 0.1955(3) 0.0939(8) 0.5416(4)
H1 H 0.2280 0.1609 0.5321
C2 C 0.1147(3) 0.1386(7) 0.3932(4)
C3 C 0.1322(3) 0.0614(7) 0.4773(4)
C5 C 0.2088(3) 0.0249(7) 0.6193(4)
O4 O 0.3369(5) 0.0486(9) 0.8712(4)
H4 H 0.3121 0.1077 0.8872
H9 H 0.065(7) 0.397(15) 0.185(8)
Zn6 Zn 0.33919(4) 0.19471(9) 0.73249(4)
N5 N 0.2349(3) 0.4586(7) 0.3039(3)
N8 N 0.1910(3) 0.1296(7) 0.2165(3)
N2 N 0.1910(3) 0.8704(7) 0.7165(3)
C4 C 0.1004(4) 0.8858(8) 0.5675(4)
H2 H 0.0690 0.8151 0.5764
C6 C 0.2505(4) 0.9479(9) 0.7502(4)
C7 C 0.1630(3) 0.9212(7) 0.6319(4)
C8 C 0.0861(3) 0.9581(8) 0.4903(4)
H3 H 0.0438 0.9370 0.4450
C9 C 0.2989(6) 0.9184(11) 0.8391(6)
H5 H 0.2752 0.8761 0.8773
C10 C 0.3677(8) 0.8214(18) 0.8388(10)
H6 H 0.3985 0.8038 0.8978
H7 H 0.3930 0.8770 0.8082
H8 H 0.3523 0.7260 0.8102
Zn5 Zn 0.16081(4) 0.69471(9) 0.76751(4)
Zn2_2 Zn 1.0000 0.24815(13) 0.2500
Zn3 Zn 0.83919(4) 0.30529(9) 0.23249(4)
O5 O 0.9447(2) 0.1111(6) 0.1620(3)
O6 O 0.9353(3) 0.3654(7) 0.2808(4)
O7 O 0.8426(2) 0.2275(6) 0.1188(3)
C12 C 0.8853(3) 0.1386(7) 0.1068(4)
C13 C 0.8678(3) 0.0614(7) 0.0227(4)
H18 H 0.935(7) 0.397(15) 0.315(8)
N6 N 0.7651(3) 0.4586(7) 0.1961(3)
N7 N 0.8090(3) 0.1296(7) 0.2835(3)
N3 N 0.7349(3) 0.0414(7) 0.8039(3)
C11 C 0.8045(3) 0.0939(8) 0.9584(4)
H10 H 0.7720 0.1609 0.9679
C15 C 0.7912(3) 0.0249(7) 0.8807(4)
O8 O 0.6631(5) 0.0486(9) 0.6288(4)
H13 H 0.6879 0.1077 0.6128
Zn7 Zn 0.66081(4) 0.19471(9) 0.76751(4)
N4 N 0.8090(3) 0.8704(7) 0.7835(3)
C14 C 0.8996(4) 0.8858(8) 0.9325(4)
H11 H 0.9310 0.8151 0.9236
C16 C 0.7495(4) 0.9479(9) 0.7498(4)
C17 C 0.8370(3) 0.9212(7) 0.8681(4)
C19 C 0.7011(6) 0.9184(11) 0.6609(6)
H14 H 0.7248 0.8761 0.6227
C20 C 0.6323(8) 0.8214(18) 0.6612(10)
H15 H 0.6015 0.8038 0.6022
H16 H 0.6070 0.8770 0.6918
H17 H 0.6477 0.7260 0.6898
Zn4 Zn 0.83919(4) 0.69471(9) 0.73249(4)
Zn1_2 Zn 0.66081(4) 0.80529(9) 0.26751(4)
Zn2_3 Zn 0.5000 0.74815(13) 0.2500
O1_2 O 0.5553(2) 0.6111(6) 0.3380(3)
O2_2 O 0.5647(3) 0.8654(7) 0.2192(4)
O3_2 O 0.6574(2) 0.7275(6) 0.3812(3)
N1_2 N 0.7651(3) 0.5414(7) 0.6961(3)
N2_2 N 0.6910(3) 0.3704(7) 0.7165(3)
C1_2 C 0.6955(3) 0.5939(8) 0.5416(4)
H1_2 H 0.7280 0.6609 0.5321
C2_2 C 0.6147(3) 0.6386(7) 0.3932(4)
C3_2 C 0.6322(3) 0.5614(7) 0.4773(4)
C4_2 C 0.6004(4) 0.3858(8) 0.5675(4)
H2_2 H 0.5690 0.3151 0.5764
C5_2 C 0.7088(3) 0.5249(7) 0.6193(4)
C6_2 C 0.7505(4) 0.4479(9) 0.7502(4)
C7_2 C 0.6630(3) 0.4212(7) 0.6319(4)
C8_2 C 0.5861(3) 0.4581(8) 0.4903(4)
H3_2 H 0.5438 0.4370 0.4450
O4_2 O 0.8369(5) 0.5486(9) 0.8712(4)
H4_2 H 0.8121 0.6077 0.8872
C9_2 C 0.7989(6) 0.4184(11) 0.8391(6)
H5_2 H 0.7752 0.3761 0.8773
C10_2 C 0.8677(8) 0.3214(18) 0.8388(10)
H6_2 H 0.8985 0.3038 0.8978
H7_2 H 0.8930 0.3770 0.8082
H8_2 H 0.8523 0.2260 0.8102
H9_2 H 0.565(7) 0.897(15) 0.185(8)
Zn3_2 Zn 0.33919(4) 0.80529(9) 0.23249(4)
O5_2 O 0.4447(2) 0.6111(6) 0.1620(3)
O6_2 O 0.4353(3) 0.8654(7) 0.2808(4)
O7_2 O 0.3426(2) 0.7275(6) 0.1188(3)
C12_2 C 0.3853(3) 0.6386(7) 0.1068(4)
C13_2 C 0.3678(3) 0.5614(7) 0.0227(4)
C18 C 0.4139(3) 0.4581(8) 0.0097(4)
H12 H 0.4562 0.4370 0.0550
H18_2 H 0.435(7) 0.897(15) 0.315(8)
N5_2 N 0.7349(3) 0.9586(7) 0.3039(3)
N6_2 N 0.2651(3) 0.9586(7) 0.1961(3)
N7_2 N 0.3090(3) 0.6296(7) 0.2835(3)
N8_2 N 0.6910(3) 0.6296(7) 0.2165(3)
N3_2 N 0.2349(3) 0.5414(7) 0.8039(3)
N4_2 N 0.3090(3) 0.3704(7) 0.7835(3)
C11_2 C 0.3045(3) 0.5939(8) 0.9584(4)
H10_2 H 0.2720 0.6609 0.9679
C14_2 C 0.3996(4) 0.3858(8) 0.9325(4)
H11_2 H 0.4310 0.3151 0.9236
C15_2 C 0.2912(3) 0.5249(7) 0.8807(4)
C16_2 C 0.2495(4) 0.4479(9) 0.7498(4)
C17_2 C 0.3370(3) 0.4212(7) 0.8681(4)
O8_2 O 0.1631(5) 0.5486(9) 0.6288(4)
H13_2 H 0.1879 0.6077 0.6128
C19_2 C 0.2011(6) 0.4184(11) 0.6609(6)
H14_2 H 0.2248 0.3761 0.6227
C20_2 C 0.1323(8) 0.3214(18) 0.6612(10)
H15_2 H 0.1015 0.3038 0.6022
H16_2 H 0.1070 0.3770 0.6918
H17_2 H 0.1477 0.2260 0.6898
C14_3 C 0.1004(4) 0.1142(8) 0.0675(4)
H11_3 H 0.0690 0.1849 0.0764
C16_3 C 0.2505(4) 0.0521(9) 0.2502(4)
C17_3 C 0.1630(3) 0.0788(7) 0.1319(4)
C19_3 C 0.2989(6) 0.0816(11) 0.3391(6)
H14_3 H 0.2752 0.1239 0.3773
C20_3 C 0.3677(8) 0.1786(18) 0.3388(10)
H15_3 H 0.3985 0.1962 0.3978
H16_3 H 0.3930 0.1230 0.3082
H17_3 H 0.3523 0.2740 0.3102
C11_3 C 0.1955(3) 0.9061(8) 0.0416(4)
H10_3 H 0.2280 0.8391 0.0321
C15_3 C 0.2088(3) 0.9751(7) 0.1193(4)
O8_3 O 0.3369(5) 0.9514(9) 0.3712(4)
H13_3 H 0.3121 0.8923 0.3872
Zn2_4 Zn 0.0000 0.75185(13) 0.7500
O5_3 O 0.0553(2) 0.8889(6) 0.8380(3)
O6_3 O 0.0647(3) 0.6346(7) 0.7192(4)
O7_3 O 0.1574(2) 0.7725(6) 0.8812(3)
C12_3 C 0.1147(3) 0.8614(7) 0.8932(4)
C13_3 C 0.1322(3) 0.9386(7) 0.9773(4)
H18_3 H 0.065(7) 0.603(15) 0.685(8)
C4_3 C 0.8996(4) 0.1142(8) 0.4325(4)
H2_3 H 0.9310 0.1849 0.4236
C6_3 C 0.7495(4) 0.0521(9) 0.2498(4)
C7_3 C 0.8370(3) 0.0788(7) 0.3681(4)
C8_3 C 0.9139(3) 0.0419(8) 0.5097(4)
H3_3 H 0.9562 0.0630 0.5550
C9_3 C 0.7011(6) 0.0816(11) 0.1609(6)
H5_3 H 0.7248 0.1239 0.1227
C10_3 C 0.6323(8) 0.1786(18) 0.1612(10)
H6_3 H 0.6015 0.1962 0.1022
H7_3 H 0.6070 0.1230 0.1918
H8_3 H 0.6477 0.2740 0.1898
Zn2_5 Zn 1.0000 0.75185(13) 0.7500
O1_3 O 0.9447(2) 0.8889(6) 0.6620(3)
O2_3 O 0.9353(3) 0.6346(7) 0.7808(4)
O3_3 O 0.8426(2) 0.7725(6) 0.6188(3)
C1_3 C 0.8045(3) 0.9061(8) 0.4584(4)
H1_3 H 0.7720 0.8391 0.4679
C2_3 C 0.8853(3) 0.8614(7) 0.6068(4)
C3_3 C 0.8678(3) 0.9386(7) 0.5227(4)
C5_3 C 0.7912(3) 0.9751(7) 0.3807(4)
O4_3 O 0.6631(5) 0.9514(9) 0.1288(4)
H4_3 H 0.6879 0.8923 0.1128
H9_3 H 0.935(7) 0.603(15) 0.815(8)
C11_4 C 0.6955(3) 0.4061(8) 0.0416(4)
H10_4 H 0.7280 0.3391 0.0321
C14_4 C 0.6004(4) 0.6142(8) 0.0675(4)
H11_4 H 0.5690 0.6849 0.0764
C15_4 C 0.7088(3) 0.4751(7) 0.1193(4)
C16_4 C 0.7505(4) 0.5521(9) 0.2502(4)
C17_4 C 0.6630(3) 0.5788(7) 0.1319(4)
O8_4 O 0.8369(5) 0.4514(9) 0.3712(4)
H13_4 H 0.8121 0.3923 0.3872
C19_4 C 0.7989(6) 0.5816(11) 0.3391(6)
H14_4 H 0.7752 0.6239 0.3773
C20_4 C 0.8677(8) 0.6786(18) 0.3388(10)
H15_4 H 0.8985 0.6962 0.3978
H16_4 H 0.8930 0.6230 0.3082
H17_4 H 0.8523 0.7740 0.3102
Zn2_6 Zn 0.5000 0.25185(13) 0.7500
O1_4 O 0.4447(2) 0.3889(6) 0.6620(3)
O2_4 O 0.4353(3) 0.1346(7) 0.7808(4)
O3_4 O 0.3426(2) 0.2725(6) 0.6188(3)
C1_4 C 0.3045(3) 0.4061(8) 0.4584(4)
H1_4 H 0.2720 0.3391 0.4679
C2_4 C 0.3853(3) 0.3614(7) 0.6068(4)
C3_4 C 0.3678(3) 0.4386(7) 0.5227(4)
C4_4 C 0.3996(4) 0.6142(8) 0.4325(4)
H2_4 H 0.4310 0.6849 0.4236
C5_4 C 0.2912(3) 0.4751(7) 0.3807(4)
C6_4 C 0.2495(4) 0.5521(9) 0.2498(4)
C7_4 C 0.3370(3) 0.5788(7) 0.3681(4)
C8_4 C 0.4139(3) 0.5419(8) 0.5097(4)
H3_4 H 0.4562 0.5630 0.5550
O4_4 O 0.1631(5) 0.4514(9) 0.1288(4)
H4_4 H 0.1879 0.3923 0.1128
C9_4 C 0.2011(6) 0.5816(11) 0.1609(6)
H5_4 H 0.2248 0.6239 0.1227
C10_4 C 0.1323(8) 0.6786(18) 0.1612(10)
H6_4 H 0.1015 0.6962 0.1022
H7_4 H 0.1070 0.6230 0.1918
H8_4 H 0.1477 0.7740 0.1898
H9_4 H 0.435(7) 0.103(15) 0.815(8)
O5_4 O 0.5553(2) 0.3889(6) 0.8380(3)
O6_4 O 0.5647(3) 0.1346(7) 0.7192(4)
O7_4 O 0.6574(2) 0.2725(6) 0.8812(3)
C12_4 C 0.6147(3) 0.3614(7) 0.8932(4)
C13_4 C 0.6322(3) 0.4386(7) 0.9773(4)
C18_2 C 0.5861(3) 0.5419(8) 0.9903(4)
H12_2 H 0.5438 0.5630 0.9450
H18_4 H 0.565(7) 0.103(15) 0.685(8)
C18_3 C 0.9139(3) 0.9581(8) 0.0097(4)
H12_3 H 0.9562 0.9370 0.0550
C18_4 C 0.0861(3) 0.0419(8) 0.9903(4)
H12_4 H 0.0438 0.0630 0.9450
loop_
_geom_bond_atom_site_label_1
_geom_bond_atom_site_label_2
_geom_bond_site_symmetry_1
_geom_bond_site_symmetry_2
Zn1 O2 1_555 1_555
Zn2 O1 1_555 1_555
O1 C2 1_555 1_555
O2 Zn2 1_555 1_555
O3 Zn1 1_555 1_555
N1 C5 1_555 1_555
C1 H1 1_555 1_555
C2 O3 1_555 1_555
C3 C1 1_555 1_555
C5 C1 1_555 1_555
O4 H4 1_555 1_555
H9 O2 1_555 1_555
Zn6 N1 1_555 1_555
N5 Zn1 1_555 1_555
N8 Zn1 1_555 1_555
C2 C3 1_555 1_555
N2 C6 1_555 1_555
C4 H2 1_555 1_555
C7 N2 1_555 1_555
H3 C8 1_555 1_555
C9 C6 1_555 1_555
H5 C9 1_555 1_555
C10 C9 1_555 1_555
H6 C10 1_555 1_555
H7 C10 1_555 1_555
H8 C10 1_555 1_555
Zn5 N2 1_555 1_555
C4 C7 1_555 1_555
C4 C8 1_555 1_555
Zn3 O6 1_555 1_555
O5 Zn2_2 1_555 1_555
O6 Zn2_2 1_555 1_555
O7 Zn3 1_555 1_555
C12 O5 1_555 1_555
H18 O6 1_555 1_555
N6 Zn3 1_555 1_555
N7 Zn3 1_555 1_555
O7 C12 1_555 1_555
C12 C13 1_555 1_555
N3 C15 1_555 1_555
C11 H10 1_555 1_555
C15 C11 1_555 1_555
O8 H13 1_555 1_555
Zn7 N3 1_555 1_555
N4 C16 1_555 1_555
C14 H11 1_555 1_555
C17 N4 1_555 1_555
C19 C16 1_555 1_555
H14 C19 1_555 1_555
C20 C19 1_555 1_555
H15 C20 1_555 1_555
H16 C20 1_555 1_555
H17 C20 1_555 1_555
Zn4 N4 1_555 1_555
C14 C17 1_555 1_555
Zn1_2 O2_2 1_555 1_555
Zn2_3 O1_2 1_555 1_555
O1_2 C2_2 1_555 1_555
O2_2 Zn2_3 1_555 1_555
O3_2 Zn1_2 1_555 1_555
N1_2 C5_2 1_555 1_555
N2_2 C6_2 1_555 1_555
C1_2 H1_2 1_555 1_555
C2_2 O3_2 1_555 1_555
C3_2 C1_2 1_555 1_555
C4_2 H2_2 1_555 1_555
C5_2 C1_2 1_555 1_555
C6_2 N1_2 1_555 1_555
C7_2 N2_2 1_555 1_555
C8_2 C3_2 1_555 1_555
H3_2 C8_2 1_555 1_555
O4_2 H4_2 1_555 1_555
C9_2 C6_2 1_555 1_555
H5_2 C9_2 1_555 1_555
C10_2 C9_2 1_555 1_555
H6_2 C10_2 1_555 1_555
H7_2 C10_2 1_555 1_555
H8_2 C10_2 1_555 1_555
H9_2 O2_2 1_555 1_555
Zn3_2 O6_2 1_555 1_555
O5_2 Zn2_3 1_555 1_555
O6_2 Zn2_3 1_555 1_555
O7_2 Zn3_2 1_555 1_555
C12_2 O5_2 1_555 1_555
C18 C13_2 1_555 1_555
H12 C18 1_555 1_555
H18_2 O6_2 1_555 1_555
Zn7 N2_2 1_555 1_555
Zn4 N1_2 1_555 1_555
N5_2 Zn1_2 1_555 1_555
N6_2 Zn3_2 1_555 1_555
N7_2 Zn3_2 1_555 1_555
N8_2 Zn1_2 1_555 1_555
C2_2 C3_2 1_555 1_555
C4_2 C7_2 1_555 1_555
C4_2 C8_2 1_555 1_555
C5_2 C7_2 1_555 1_555
O4_2 C9_2 1_555 1_555
O7_2 C12_2 1_555 1_555
C12_2 C13_2 1_555 1_555
N3_2 C15_2 1_555 1_555
N4_2 C16_2 1_555 1_555
C11_2 H10_2 1_555 1_555
C14_2 H11_2 1_555 1_555
C15_2 C11_2 1_555 1_555
C16_2 N3_2 1_555 1_555
C17_2 N4_2 1_555 1_555
O8_2 H13_2 1_555 1_555
C19_2 C16_2 1_555 1_555
H14_2 C19_2 1_555 1_555
C20_2 C19_2 1_555 1_555
H15_2 C20_2 1_555 1_555
H16_2 C20_2 1_555 1_555
H17_2 C20_2 1_555 1_555
Zn6 N4_2 1_555 1_555
Zn5 N3_2 1_555 1_555
C14_2 C17_2 1_555 1_555
C15_2 C17_2 1_555 1_555
O8_2 C19_2 1_555 1_555
N8 C16_3 1_555 1_555
C14_3 H11_3 1_555 1_555
C17_3 N8 1_555 1_555
C19_3 C16_3 1_555 1_555
H14_3 C19_3 1_555 1_555
C20_3 C19_3 1_555 1_555
H15_3 C20_3 1_555 1_555
H16_3 C20_3 1_555 1_555
H17_3 C20_3 1_555 1_555
C14_3 C17_3 1_555 1_555
N6_2 C15_3 1_555 1_555
C11_3 H10_3 1_555 1_555
C15_3 C11_3 1_555 1_555
O8_3 H13_3 1_555 1_555
Zn5 O6_3 1_555 1_555
O5_3 Zn2_4 1_555 1_555
O6_3 Zn2_4 1_555 1_555
O7_3 Zn5 1_555 1_555
C12_3 O5_3 1_555 1_555
H18_3 O6_3 1_555 1_555
O7_3 C12_3 1_555 1_555
C12_3 C13_3 1_555 1_555
N7 C6_3 1_555 1_555
C4_3 H2_3 1_555 1_555
C7_3 N7 1_555 1_555
H3_3 C8_3 1_555 1_555
C9_3 C6_3 1_555 1_555
H5_3 C9_3 1_555 1_555
C10_3 C9_3 1_555 1_555
H6_3 C10_3 1_555 1_555
H7_3 C10_3 1_555 1_555
H8_3 C10_3 1_555 1_555
C4_3 C7_3 1_555 1_555
C4_3 C8_3 1_555 1_555
Zn4 O2_3 1_555 1_555
Zn2_5 O1_3 1_555 1_555
O1_3 C2_3 1_555 1_555
O2_3 Zn2_5 1_555 1_555
O3_3 Zn4 1_555 1_555
N5_2 C5_3 1_555 1_555
C1_3 H1_3 1_555 1_555
C2_3 O3_3 1_555 1_555
C3_3 C1_3 1_555 1_555
C5_3 C1_3 1_555 1_555
O4_3 H4_3 1_555 1_555
H9_3 O2_3 1_555 1_555
C2_3 C3_3 1_555 1_555
N6 C15_4 1_555 1_555
N8_2 C16_4 1_555 1_555
C11_4 H10_4 1_555 1_555
C14_4 H11_4 1_555 1_555
C15_4 C11_4 1_555 1_555
C16_4 N6 1_555 1_555
C17_4 N8_2 1_555 1_555
O8_4 H13_4 1_555 1_555
C19_4 C16_4 1_555 1_555
H14_4 C19_4 1_555 1_555
C20_4 C19_4 1_555 1_555
H15_4 C20_4 1_555 1_555
H16_4 C20_4 1_555 1_555
H17_4 C20_4 1_555 1_555
C14_4 C17_4 1_555 1_555
C15_4 C17_4 1_555 1_555
O8_4 C19_4 1_555 1_555
Zn6 O2_4 1_555 1_555
Zn2_6 O1_4 1_555 1_555
O1_4 C2_4 1_555 1_555
O2_4 Zn2_6 1_555 1_555
O3_4 Zn6 1_555 1_555
N5 C5_4 1_555 1_555
N7_2 C6_4 1_555 1_555
C1_4 H1_4 1_555 1_555
C2_4 O3_4 1_555 1_555
C3_4 C1_4 1_555 1_555
C4_4 H2_4 1_555 1_555
C5_4 C1_4 1_555 1_555
C6_4 N5 1_555 1_555
C7_4 N7_2 1_555 1_555
C8_4 C3_4 1_555 1_555
H3_4 C8_4 1_555 1_555
O4_4 H4_4 1_555 1_555
C9_4 C6_4 1_555 1_555
H5_4 C9_4 1_555 1_555
C10_4 C9_4 1_555 1_555
H6_4 C10_4 1_555 1_555
H7_4 C10_4 1_555 1_555
H8_4 C10_4 1_555 1_555
H9_4 O2_4 1_555 1_555
Zn7 O6_4 1_555 1_555
O5_4 Zn2_6 1_555 1_555
O6_4 Zn2_6 1_555 1_555
O7_4 Zn7 1_555 1_555
C12_4 O5_4 1_555 1_555
C18_2 C13_4 1_555 1_555
H12_2 C18_2 1_555 1_555
H18_4 O6_4 1_555 1_555
C2_4 C3_4 1_555 1_555
C4_4 C7_4 1_555 1_555
C4_4 C8_4 1_555 1_555
C5_4 C7_4 1_555 1_555
O4_4 C9_4 1_555 1_555
O7_4 C12_4 1_555 1_555
C12_4 C13_4 1_555 1_555
H12_3 C18_3 1_555 1_555
H12_4 C18_4 1_555 1_555

#END
