
###############################################################################
#
# This file contains modified crystal structure data generated from the
# MOF subset of the Cambridge Structural Database (CSD) v543 
# hosted by the Cambridge Crystallographic Data Centre (CCDC).
#
# This work is licensed under the Creative Commons
# Attribution-NonCommercial-ShareAlike 4.0 International License.
# To view a copy of this license, visit
# http://creativecommons.org/licenses/by-nc-sa/4.0/
# or send a letter to
# Creative Commons, PO Box 1866, Mountain View, CA 94042, USA.
#
# CIF created using the CSD Python API on 29 September 2022
# The structure has been converted into the P1 space group
# The structure has a 3D framework
# The original CSD entry BEPLUF is in the hexagonal crystal system
# The original CSD entry BEPLUF is in a Sohncke space group
# The framework has been calculated to contain at least 10.0% void space
# The void calculation uses a probe of radius 1.32A, grid spacing 0.4
#
###############################################################################

data_BEPLUF
_chemical_formula_moiety         '(C60 H72 N12 O21 Zn6)n'
_symmetry_cell_setting           triclinic
_symmetry_space_group_name_H-M   'P 1'
_symmetry_Int_Tables_number      1
_space_group_name_Hall           'P 1'
loop_
_symmetry_equiv_pos_site_id
_symmetry_equiv_pos_as_xyz
1 x,y,z
_cell_length_a                   17.686(2)
_cell_length_b                   17.686(2)
_cell_length_c                   10.1964(13)
_cell_angle_alpha                90
_cell_angle_beta                 90
_cell_angle_gamma                120
_cell_volume                     2762.08
loop_
_atom_site_label
_atom_site_type_symbol
_atom_site_fract_x
_atom_site_fract_y
_atom_site_fract_z
O1 O 0.0263(4) 0.5234(6) 0.6499(7)
Zn3 Zn 0.07448(6) 0.53331(10) 0.84712(12)
C4 C 0.8046(8) 0.2846(7) 0.0177(11)
H3 H 0.8373 0.3282 0.0783
C5 C 0.7178(9) 0.2226(8) 0.0463(10)
H4 H 0.6936 0.2260 0.1255
C10 C 0.4153(17) 0.1077(14) 0.083(2)
H11 H 0.3839 0.1370 0.0834
O3 O 0.4778(9) 0.1394(7) 0.0100(11)
O4 O 0.3853(10) 0.0431(12) 0.157(2)
Zn1 Zn 0.54117(8) 0.07448(6) 0.01379(12)
O6 O 0.5799(9) 0.0983(5) 0.2107(7)
C1 C 0.7050(7) 0.1534(7) 0.8533(12)
H1 H 0.6720 0.1080 0.7954
C2 C 0.7912(8) 0.2130(8) 0.8194(12)
H2 H 0.8147 0.2066 0.7414
C3 C 0.8413(7) 0.2817(7) 0.9031(10)
C6 C 0.9351(7) 0.3508(7) 0.8667(12)
H5 H 0.9757 0.3483 0.9283
H6 H 0.9489 0.3390 0.7796
C7 C 0.8901(7) 0.4478(10) 0.7676(10)
H7 H 0.8407 0.3903 0.7458
C8 C 0.9451(6) 0.4887(8) 0.6434(10)
C9 C 0.8554(10) 0.5062(13) 0.8173(11)
H8 H 0.8103 0.4750 0.8809
H9 H 0.8320 0.5229 0.7451
H10 H 0.9021 0.5576 0.8571
N1 N 0.9440(5) 0.4378(8) 0.8700(8)
H12 H 0.9256 0.4452 0.9498
N2 N 0.6685(6) 0.1578(6) 0.9607(8)
O2 O 0.9017(5) 0.4816(8) 0.5440(7)
O5 O 0.5029(7) 0.0263(4) 0.8166(7)
Zn2 Zn 0.92552(6) 0.46669(10) 0.34712(12)
N3 N 0.5062(9) 0.9440(5) 0.0367(8)
C1_2 C 0.5516(10) 0.7050(7) 0.0200(12)
C3_2 C 0.5596(10) 0.8413(7) 0.0698(10)
C4_2 C 0.5200(11) 0.8046(8) 0.1844(11)
H3_2 H 0.5091 0.8373 0.2450
C5_2 C 0.4952(12) 0.7178(9) 0.2130(10)
H4_2 H 0.4676 0.6936 0.2922
C6_2 C 0.5843(10) 0.9351(7) 0.0334(12)
H5_2 H 0.6274 0.9757 0.0950
H8_2 H 0.3353 0.8103 0.0476
H10_2 H 0.3445 0.9021 0.0238
C10_2 C 0.3076(22) 0.4153(17) 0.250(2)
H11_2 H 0.2469 0.3839 0.2501
H12_2 H 0.4804 0.9256 0.1165
N2_2 N 0.5107(8) 0.6685(6) 0.1274(8)
O3_2 O 0.3384(11) 0.4778(9) 0.1767(11)
O4_2 O 0.3422(16) 0.3853(10) 0.324(2)
Zn1_2 Zn 0.46669(10) 0.54117(8) 0.18046(12)
N3_2 N 0.5622(10) 0.5062(9) 0.2033(8)
O6_2 O 0.4816(10) 0.5799(9) 0.3773(7)
H1_2 H 0.5640 0.6720 0.9621
C2_2 C 0.5782(11) 0.7912(8) 0.9861(12)
H2_2 H 0.6081 0.8147 0.9081
H6_2 H 0.6099 0.9489 0.9463
C7_2 C 0.4423(12) 0.8901(7) 0.9343(10)
H7_2 H 0.4504 0.8407 0.9125
C8_2 C 0.4564(10) 0.9451(6) 0.8101(10)
C9_2 C 0.3492(16) 0.8554(10) 0.9840(11)
H9_2 H 0.3091 0.8320 0.9118
O2_2 O 0.4201(9) 0.9017(5) 0.7107(7)
O5_2 O 0.4766(8) 0.5029(7) 0.9832(7)
Zn2_2 Zn 0.45883(12) 0.92552(6) 0.51379(12)
N3_3 N 0.0560(5) 0.5622(10) 0.3700(8)
C1_3 C 0.8466(7) 0.5516(10) 0.1866(12)
H1_3 H 0.8920 0.5640 0.1287
C2_3 C 0.7870(8) 0.5782(11) 0.1527(12)
H2_3 H 0.7934 0.6081 0.0747
C3_3 C 0.7183(7) 0.5596(10) 0.2364(10)
C4_3 C 0.7154(7) 0.5200(11) 0.3510(11)
H3_3 H 0.6718 0.5091 0.4116
C5_3 C 0.7774(8) 0.4952(12) 0.3796(10)
H4_3 H 0.7740 0.4676 0.4588
C6_3 C 0.6492(7) 0.5843(10) 0.2000(12)
H5_3 H 0.6517 0.6274 0.2616
H6_3 H 0.6610 0.6099 0.1129
C7_3 C 0.5522(10) 0.4423(12) 0.1009(10)
H7_3 H 0.6097 0.4504 0.0791
C9_3 C 0.4938(13) 0.3492(16) 0.1506(11)
H8_3 H 0.5250 0.3353 0.2142
H9_3 H 0.4771 0.3091 0.0784
H10_3 H 0.4424 0.3445 0.1904
C10_3 C 0.8923(14) 0.3076(22) 0.416(2)
H11_3 H 0.8630 0.2469 0.4167
H12_3 H 0.5548 0.4804 0.2831
N2_3 N 0.8422(6) 0.5107(8) 0.2940(8)
O3_3 O 0.8606(7) 0.3384(11) 0.3433(11)
O4_3 O 0.9569(12) 0.3422(16) 0.490(2)
O5_3 O 0.9737(4) 0.4766(8) 0.1499(7)
C8_3 C 0.5113(8) 0.4564(10) 0.9767(10)
O2_3 O 0.5184(8) 0.4201(9) 0.8773(7)
Zn2_3 Zn 0.53331(10) 0.45883(12) 0.68046(12)
N3_4 N 0.4938(9) 0.0560(5) 0.5367(8)
C1_4 C 0.2950(7) 0.8466(7) 0.3533(12)
H1_4 H 0.3280 0.8920 0.2954
C2_4 C 0.2088(8) 0.7870(8) 0.3194(12)
H2_4 H 0.1853 0.7934 0.2414
C3_4 C 0.1587(7) 0.7183(7) 0.4031(10)
C4_4 C 0.1954(8) 0.7154(7) 0.5177(11)
H3_4 H 0.1627 0.6718 0.5783
C5_4 C 0.2822(9) 0.7774(8) 0.5463(10)
H4_4 H 0.3064 0.7740 0.6255
C6_4 C 0.0649(7) 0.6492(7) 0.3667(12)
H5_4 H 0.0243 0.6517 0.4283
H6_4 H 0.0511 0.6610 0.2796
C7_4 C 0.1099(7) 0.5522(10) 0.2676(10)
H7_4 H 0.1593 0.6097 0.2458
C8_4 C 0.0549(6) 0.5113(8) 0.1434(10)
C9_4 C 0.1446(10) 0.4938(13) 0.3173(11)
H8_4 H 0.1897 0.5250 0.3809
H9_4 H 0.1680 0.4771 0.2451
H10_4 H 0.0979 0.4424 0.3571
C10_4 C 0.5847(17) 0.8923(14) 0.583(2)
H11_4 H 0.6161 0.8630 0.5834
H12_4 H 0.0744 0.5548 0.4498
N2_4 N 0.3315(6) 0.8422(6) 0.4607(8)
O2_4 O 0.0983(5) 0.5184(8) 0.0440(7)
O3_4 O 0.5222(9) 0.8606(7) 0.5100(11)
O4_4 O 0.6147(10) 0.9569(12) 0.657(2)
O5_4 O 0.4971(7) 0.9737(4) 0.3166(7)
C1_5 C 0.4484(10) 0.2950(7) 0.5200(12)
H1_5 H 0.4360 0.3280 0.4621
C2_5 C 0.4218(11) 0.2088(8) 0.4861(12)
H2_5 H 0.3919 0.1853 0.4081
C3_5 C 0.4404(10) 0.1587(7) 0.5698(10)
C4_5 C 0.4800(11) 0.1954(8) 0.6844(11)
H3_5 H 0.4909 0.1627 0.7450
C5_5 C 0.5048(12) 0.2822(9) 0.7130(10)
H4_5 H 0.5324 0.3064 0.7922
C6_5 C 0.4157(10) 0.0649(7) 0.5334(12)
H5_5 H 0.3726 0.0243 0.5950
H6_5 H 0.3901 0.0511 0.4463
C7_5 C 0.5577(12) 0.1099(7) 0.4343(10)
H7_5 H 0.5496 0.1593 0.4125
C8_5 C 0.5436(10) 0.0549(6) 0.3101(10)
C9_5 C 0.6508(16) 0.1446(10) 0.4840(11)
H8_5 H 0.6647 0.1897 0.5476
H9_5 H 0.6909 0.1680 0.4118
H10_5 H 0.6555 0.0979 0.5238
C10_5 C 0.6924(22) 0.5847(17) 0.750(2)
H11_5 H 0.7531 0.6161 0.7501
H12_5 H 0.5196 0.0744 0.6165
N2_5 N 0.4893(8) 0.3315(6) 0.6274(8)
O3_5 O 0.6616(11) 0.5222(9) 0.6767(11)
O4_5 O 0.6578(16) 0.6147(10) 0.824(2)
N3_5 N 0.4378(10) 0.4938(9) 0.7033(8)
O5_5 O 0.5234(8) 0.4971(7) 0.4832(7)
C1_6 C 0.1534(7) 0.4484(10) 0.6866(12)
H1_6 H 0.1080 0.4360 0.6287
C2_6 C 0.2130(8) 0.4218(11) 0.6527(12)
H2_6 H 0.2066 0.3919 0.5747
C3_6 C 0.2817(7) 0.4404(10) 0.7364(10)
C4_6 C 0.2846(7) 0.4800(11) 0.8510(11)
H3_6 H 0.3282 0.4909 0.9116
C5_6 C 0.2226(8) 0.5048(12) 0.8796(10)
H4_6 H 0.2260 0.5324 0.9588
C6_6 C 0.3508(7) 0.4157(10) 0.7000(12)
H5_6 H 0.3483 0.3726 0.7616
H6_6 H 0.3390 0.3901 0.6129
C7_6 C 0.4478(10) 0.5577(12) 0.6009(10)
H7_6 H 0.3903 0.5496 0.5791
C8_6 C 0.4887(8) 0.5436(10) 0.4767(10)
C9_6 C 0.5062(13) 0.6508(16) 0.6506(11)
H8_6 H 0.4750 0.6647 0.7142
H9_6 H 0.5229 0.6909 0.5784
H10_6 H 0.5576 0.6555 0.6904
C10_6 C 0.1077(14) 0.6924(22) 0.916(2)
H11_6 H 0.1370 0.7531 0.9167
H12_6 H 0.4452 0.5196 0.7831
N2_6 N 0.1578(6) 0.4893(8) 0.7940(8)
O3_6 O 0.1394(7) 0.6616(11) 0.8433(11)
O4_6 O 0.0431(12) 0.6578(16) 0.990(2)
loop_
_geom_bond_atom_site_label_1
_geom_bond_atom_site_label_2
_geom_bond_site_symmetry_1
_geom_bond_site_symmetry_2
O1 Zn3 1_555 1_555
H3 C4 1_555 1_555
C5 C4 1_555 1_555
H4 C5 1_555 1_555
C10 H11 1_555 1_555
O3 C10 1_555 1_555
O4 C10 1_555 1_555
O6 Zn1 1_555 1_555
O3 Zn1 1_555 1_555
C1 H1 1_555 1_555
C2 C1 1_555 1_555
H2 C2 1_555 1_555
C3 C2 1_555 1_555
C6 C3 1_555 1_555
H5 C6 1_555 1_555
H6 C6 1_555 1_555
C7 H7 1_555 1_555
C8 C7 1_555 1_555
C9 C7 1_555 1_555
H8 C9 1_555 1_555
H9 C9 1_555 1_555
H10 C9 1_555 1_555
N1 C6 1_555 1_555
H12 N1 1_555 1_555
N2 C1 1_555 1_555
O2 C8 1_555 1_555
Zn2 O2 1_555 1_555
C7 N1 1_555 1_555
C4_2 C3_2 1_555 1_555
H3_2 C4_2 1_555 1_555
C5_2 C4_2 1_555 1_555
H4_2 C5_2 1_555 1_555
C6_2 C3_2 1_555 1_555
H5_2 C6_2 1_555 1_555
C10_2 H11_2 1_555 1_555
N3 C6_2 1_555 1_555
H12_2 N3 1_555 1_555
N2_2 C1_2 1_555 1_555
O3_2 C10_2 1_555 1_555
O4_2 C10_2 1_555 1_555
Zn1_2 N2_2 1_555 1_555
N3_2 Zn1_2 1_555 1_555
O6_2 Zn1_2 1_555 1_555
C5_2 N2_2 1_555 1_555
O3_2 Zn1_2 1_555 1_555
H2_2 C2_2 1_555 1_555
C7_2 H7_2 1_555 1_555
C8_2 C7_2 1_555 1_555
C9_2 C7_2 1_555 1_555
H9_2 C9_2 1_555 1_555
O2_2 C8_2 1_555 1_555
Zn2_2 O2_2 1_555 1_555
C1_3 H1_3 1_555 1_555
C2_3 C1_3 1_555 1_555
H2_3 C2_3 1_555 1_555
C3_3 C2_3 1_555 1_555
C4_3 C3_3 1_555 1_555
H3_3 C4_3 1_555 1_555
C5_3 C4_3 1_555 1_555
H4_3 C5_3 1_555 1_555
C6_3 C3_3 1_555 1_555
H5_3 C6_3 1_555 1_555
H6_3 C6_3 1_555 1_555
C7_3 H7_3 1_555 1_555
C9_3 C7_3 1_555 1_555
H8_3 C9_3 1_555 1_555
H9_3 C9_3 1_555 1_555
H10_3 C9_3 1_555 1_555
C10_3 H11_3 1_555 1_555
N3_2 C6_3 1_555 1_555
H12_3 N3_2 1_555 1_555
N2_3 C1_3 1_555 1_555
O3_3 C10_3 1_555 1_555
O4_3 C10_3 1_555 1_555
Zn2 N2_3 1_555 1_555
O5_3 Zn2 1_555 1_555
C5_3 N2_3 1_555 1_555
C7_3 N3_2 1_555 1_555
O3_3 Zn2 1_555 1_555
O5_2 C8_3 1_555 1_555
O2_3 C8_3 1_555 1_555
Zn2_3 O2_3 1_555 1_555
C1_4 H1_4 1_555 1_555
C2_4 C1_4 1_555 1_555
H2_4 C2_4 1_555 1_555
C3_4 C2_4 1_555 1_555
C4_4 C3_4 1_555 1_555
H3_4 C4_4 1_555 1_555
C5_4 C4_4 1_555 1_555
H4_4 C5_4 1_555 1_555
C6_4 C3_4 1_555 1_555
H5_4 C6_4 1_555 1_555
H6_4 C6_4 1_555 1_555
C7_4 H7_4 1_555 1_555
C8_4 C7_4 1_555 1_555
C9_4 C7_4 1_555 1_555
H8_4 C9_4 1_555 1_555
H9_4 C9_4 1_555 1_555
H10_4 C9_4 1_555 1_555
C10_4 H11_4 1_555 1_555
N3_3 C6_4 1_555 1_555
H12_4 N3_3 1_555 1_555
N2_4 C1_4 1_555 1_555
O2_4 C8_4 1_555 1_555
O3_4 C10_4 1_555 1_555
O4_4 C10_4 1_555 1_555
Zn2_2 N2_4 1_555 1_555
O5_4 Zn2_2 1_555 1_555
C5_4 N2_4 1_555 1_555
C7_4 N3_3 1_555 1_555
O3_4 Zn2_2 1_555 1_555
C1_5 H1_5 1_555 1_555
C2_5 C1_5 1_555 1_555
H2_5 C2_5 1_555 1_555
C3_5 C2_5 1_555 1_555
C4_5 C3_5 1_555 1_555
H3_5 C4_5 1_555 1_555
C5_5 C4_5 1_555 1_555
H4_5 C5_5 1_555 1_555
C6_5 C3_5 1_555 1_555
H5_5 C6_5 1_555 1_555
H6_5 C6_5 1_555 1_555
C7_5 H7_5 1_555 1_555
C8_5 C7_5 1_555 1_555
C9_5 C7_5 1_555 1_555
H8_5 C9_5 1_555 1_555
H9_5 C9_5 1_555 1_555
H10_5 C9_5 1_555 1_555
C10_5 H11_5 1_555 1_555
N3_4 C6_5 1_555 1_555
H12_5 N3_4 1_555 1_555
N2_5 C1_5 1_555 1_555
O6 C8_5 1_555 1_555
O3_5 C10_5 1_555 1_555
O4_5 C10_5 1_555 1_555
Zn2_3 N2_5 1_555 1_555
N3_5 Zn2_3 1_555 1_555
O5_5 Zn2_3 1_555 1_555
C5_5 N2_5 1_555 1_555
C7_5 N3_4 1_555 1_555
O3_5 Zn2_3 1_555 1_555
C1_6 H1_6 1_555 1_555
C2_6 C1_6 1_555 1_555
H2_6 C2_6 1_555 1_555
C3_6 C2_6 1_555 1_555
C4_6 C3_6 1_555 1_555
H3_6 C4_6 1_555 1_555
C5_6 C4_6 1_555 1_555
H4_6 C5_6 1_555 1_555
C6_6 C3_6 1_555 1_555
H5_6 C6_6 1_555 1_555
H6_6 C6_6 1_555 1_555
C7_6 H7_6 1_555 1_555
C8_6 C7_6 1_555 1_555
C9_6 C7_6 1_555 1_555
H8_6 C9_6 1_555 1_555
H9_6 C9_6 1_555 1_555
H10_6 C9_6 1_555 1_555
C10_6 H11_6 1_555 1_555
N3_5 C6_6 1_555 1_555
H12_6 N3_5 1_555 1_555
N2_6 C1_6 1_555 1_555
O5_5 C8_6 1_555 1_555
O6_2 C8_6 1_555 1_555
O3_6 C10_6 1_555 1_555
O4_6 C10_6 1_555 1_555
Zn3 N2_6 1_555 1_555
C5_6 N2_6 1_555 1_555
C7_6 N3_5 1_555 1_555
O3_6 Zn3 1_555 1_555

#END
