
###############################################################################
#
# This file contains modified crystal structure data generated from the
# MOF subset of the Cambridge Structural Database (CSD) v543 
# hosted by the Cambridge Crystallographic Data Centre (CCDC).
#
# This work is licensed under the Creative Commons
# Attribution-NonCommercial-ShareAlike 4.0 International License.
# To view a copy of this license, visit
# http://creativecommons.org/licenses/by-nc-sa/4.0/
# or send a letter to
# Creative Commons, PO Box 1866, Mountain View, CA 94042, USA.
#
# CIF created using the CSD Python API on 29 September 2022
# The structure has been converted into the P1 space group
# The structure has a 3D framework
# The original CSD entry BEPMAM is in the hexagonal crystal system
# The original CSD entry BEPMAM is in a Sohncke space group
# The framework has been calculated to contain at least 10.0% void space
# The void calculation uses a probe of radius 1.32A, grid spacing 0.4
#
###############################################################################

data_BEPMAM
_chemical_formula_moiety         '(C60 H72 N12 O23 Zn6)n'
_symmetry_cell_setting           triclinic
_symmetry_space_group_name_H-M   'P 1'
_symmetry_Int_Tables_number      1
_space_group_name_Hall           'P 1'
loop_
_symmetry_equiv_pos_site_id
_symmetry_equiv_pos_as_xyz
1 x,y,z
_cell_length_a                   17.5911(7)
_cell_length_b                   17.5911(7)
_cell_length_c                   10.1716(3)
_cell_angle_alpha                90
_cell_angle_beta                 90
_cell_angle_gamma                120
_cell_volume                     2725.87
loop_
_atom_site_label
_atom_site_type_symbol
_atom_site_fract_x
_atom_site_fract_y
_atom_site_fract_z
C1 C 0.4963(8) 0.2781(6) 0.3344(7)
H1 H 0.5228 0.3017 0.4148
C2 C 0.4691(7) 0.1894(5) 0.3061(8)
H2 H 0.4771 0.1553 0.3683
C3 C 0.4304(7) 0.1529(5) 0.1862(7)
C4 C 0.4177(7) 0.2069(5) 0.1002(7)
H3 H 0.3899 0.1847 0.0201
C5 C 0.4457(6) 0.2926(5) 0.1327(7)
H4 H 0.4375 0.3276 0.0723
C6 C 0.4096(5) 0.0615(4) 0.1485(7)
H5 H 0.3662 0.0192 0.2086
H6 H 0.3852 0.0481 0.0605
C7 C 0.5563(5) 0.1117(4) 0.0552(6)
H7 H 0.5481 0.1615 0.0346
C10 C 0.6483(6) 0.1454(6) 0.1053(8)
H9 H 0.6508 0.1588 0.1972
H10 H 0.6882 0.1975 0.0579
H11 H 0.6647 0.1014 0.0927
N1 N 0.4902(4) 0.0550(3) 0.1533(5)
H12 H 0.5145 0.0729 0.2345
N2 N 0.4848(6) 0.3285(4) 0.2483(5)
Zn2 Zn 0.53203(6) 0.45667(5) 0.29758(9)
C9 C 0.5889(7) 0.8888(6) 0.1995(9)
H8 H 0.6179 0.8567 0.2015
O3 O 0.5189(4) 0.8586(3) 0.1272(6)
O4 O 0.6208(5) 0.9580(5) 0.2669(8)
Zn1 Zn 0.45667(5) 0.92464(4) 0.13091(9)
N3 N 0.3285(4) 0.8437(7) 0.0816(5)
O5 O 0.4234(4) 0.8980(3) 0.3273(4)
C1_2 C 0.2182(10) 0.4963(8) 0.5011(7)
H1_2 H 0.2211 0.5228 0.5815
C2_2 C 0.2797(9) 0.4691(7) 0.4728(8)
H2_2 H 0.3218 0.4771 0.5350
C3_2 C 0.2775(9) 0.4304(7) 0.3529(7)
C4_2 C 0.2108(9) 0.4177(7) 0.2669(7)
H3_2 H 0.2052 0.3899 0.1868
C5_2 C 0.1531(8) 0.4457(6) 0.2994(7)
H4_2 H 0.1099 0.4375 0.2390
C6_2 C 0.3481(6) 0.4096(5) 0.3152(7)
H5_2 H 0.3470 0.3662 0.3753
H6_2 H 0.3371 0.3852 0.2272
C7_2 C 0.4446(6) 0.5563(5) 0.2219(6)
H7_2 H 0.3866 0.5481 0.2013
C8 C 0.4841(6) 0.5400(4) 0.0973(6)
C9_2 C 0.7001(9) 0.5889(7) 0.3662(9)
H8_2 H 0.7612 0.6179 0.3682
C10_2 C 0.5029(8) 0.6483(6) 0.2720(8)
H9_2 H 0.4920 0.6508 0.3639
H10_2 H 0.4907 0.6882 0.2246
H11_2 H 0.5633 0.6647 0.2594
N1_2 N 0.4352(5) 0.4902(4) 0.3200(5)
H12_2 H 0.4416 0.5145 0.4012
N2_2 N 0.1563(7) 0.4848(6) 0.4150(5)
O2 O 0.5222(4) 0.4968(3) 0.1034(4)
O3_2 O 0.6603(5) 0.5189(4) 0.2939(6)
O4_2 O 0.6628(7) 0.6208(5) 0.4336(8)
O5_2 O 0.5254(5) 0.4234(4) 0.4940(4)
Zn2_2 Zn 0.07536(8) 0.53203(6) 0.46424(9)
O1 O 0.4746(5) 0.5766(4) 0.9940(4)
Zn3 Zn 0.46797(6) 0.54333(5) 0.79758(9)
C9_3 C 0.1112(6) 0.7001(9) 0.5328(9)
H8_3 H 0.1433 0.7612 0.5348
O2_2 O 0.0254(3) 0.5222(4) 0.2700(4)
O3_3 O 0.1414(3) 0.6603(5) 0.4605(6)
O4_3 O 0.0420(5) 0.6628(7) 0.6002(8)
O5_3 O 0.1020(3) 0.5254(5) 0.6606(4)
Zn3_2 Zn 0.92464(4) 0.46797(6) 0.96424(9)
C1_3 C 0.5037(8) 0.7219(6) 0.8344(7)
H1_3 H 0.4772 0.6983 0.9148
C2_3 C 0.5309(7) 0.8106(5) 0.8061(8)
H2_3 H 0.5229 0.8447 0.8683
C3_3 C 0.5696(7) 0.8471(5) 0.6862(7)
C4_3 C 0.5823(7) 0.7931(5) 0.6002(7)
H3_3 H 0.6101 0.8153 0.5201
C5_3 C 0.5543(6) 0.7074(5) 0.6327(7)
H4_3 H 0.5625 0.6724 0.5723
C6_3 C 0.5904(5) 0.9385(4) 0.6485(7)
H5_3 H 0.6338 0.9808 0.7086
H6_3 H 0.6148 0.9519 0.5605
C7_3 C 0.4437(5) 0.8883(4) 0.5552(6)
H7_3 H 0.4519 0.8385 0.5346
C8_2 C 0.4600(4) 0.9441(4) 0.4306(6)
C10_3 C 0.3517(6) 0.8546(6) 0.6053(8)
H9_3 H 0.3492 0.8412 0.6972
H10_3 H 0.3118 0.8025 0.5579
H11_3 H 0.3353 0.8986 0.5927
N1_3 N 0.5098(4) 0.9450(3) 0.6533(5)
H12_3 H 0.4855 0.9271 0.7345
N2_3 N 0.5152(6) 0.6715(4) 0.7483(5)
C2_4 C 0.7203(9) 0.5309(7) 0.9728(8)
C3_4 C 0.7225(9) 0.5696(7) 0.8529(7)
C4_4 C 0.7892(9) 0.5823(7) 0.7669(7)
H3_4 H 0.7948 0.6101 0.6868
C5_4 C 0.8469(8) 0.5543(6) 0.7994(7)
H4_4 H 0.8901 0.5625 0.7390
C6_4 C 0.6519(6) 0.5904(5) 0.8152(7)
H5_4 H 0.6530 0.6338 0.8753
H6_4 H 0.6629 0.6148 0.7272
C7_4 C 0.5554(6) 0.4437(5) 0.7219(6)
H7_4 H 0.6134 0.4519 0.7013
C8_3 C 0.5159(6) 0.4600(4) 0.5973(6)
C9_4 C 0.2999(9) 0.4111(7) 0.8662(9)
H8_4 H 0.2388 0.3821 0.8682
C10_4 C 0.4971(8) 0.3517(6) 0.7720(8)
H9_4 H 0.5080 0.3492 0.8639
H10_4 H 0.5093 0.3118 0.7246
H11_4 H 0.4367 0.3353 0.7594
N1_4 N 0.5648(5) 0.5098(4) 0.8200(5)
H12_4 H 0.5584 0.4855 0.9012
N2_4 N 0.8437(7) 0.5152(6) 0.9150(5)
O2_3 O 0.4778(4) 0.5032(3) 0.6034(4)
O3_4 O 0.3397(5) 0.4811(4) 0.7939(6)
O4_4 O 0.3372(7) 0.3792(5) 0.9336(8)
C1_4 C 0.2781(6) 0.7818(10) 0.1677(7)
H1_4 H 0.3017 0.7789 0.2481
C2_5 C 0.1894(5) 0.7203(9) 0.1394(8)
H2_4 H 0.1553 0.6782 0.2016
C3_5 C 0.1529(5) 0.7225(9) 0.0195(7)
H5_5 H 0.0192 0.6530 0.0419
H9_5 H 0.1588 0.5080 0.0305
H12_5 H 0.0729 0.5584 0.0678
C4_5 C 0.2069(5) 0.7892(9) 0.9335(7)
H3_5 H 0.1847 0.7948 0.8534
C5_5 C 0.2926(5) 0.8469(8) 0.9660(7)
H4_5 H 0.3276 0.8901 0.9056
C6_5 C 0.0615(4) 0.6519(6) 0.9818(7)
H6_5 H 0.0481 0.6629 0.8938
C7_5 C 0.1117(4) 0.5554(6) 0.8885(6)
H7_5 H 0.1615 0.6134 0.8679
C8_4 C 0.0559(4) 0.5159(6) 0.7639(6)
C10_5 C 0.1454(6) 0.4971(8) 0.9386(8)
H10_5 H 0.1975 0.5093 0.8912
H11_5 H 0.1014 0.4367 0.9260
N1_5 N 0.0550(3) 0.5648(5) 0.9866(5)
O2_4 O 0.9746(3) 0.4778(4) 0.7700(4)
O3_5 O 0.8586(3) 0.3397(5) 0.9605(6)
C8_5 C 0.5400(4) 0.0559(4) 0.9306(6)
O1_2 O 0.5766(4) 0.1020(3) 0.8273(4)
Zn3_3 Zn 0.54333(5) 0.07536(4) 0.63091(9)
C1_5 C 0.7219(6) 0.2182(10) 0.6677(7)
H1_5 H 0.6983 0.2211 0.7481
C2_6 C 0.8106(5) 0.2797(9) 0.6394(8)
H2_5 H 0.8447 0.3218 0.7016
C3_6 C 0.8471(5) 0.2775(9) 0.5195(7)
C4_6 C 0.7931(5) 0.2108(9) 0.4335(7)
H3_6 H 0.8153 0.2052 0.3534
C5_6 C 0.7074(5) 0.1531(8) 0.4660(7)
H4_6 H 0.6724 0.1099 0.4056
C6_6 C 0.9385(4) 0.3481(6) 0.4818(7)
H5_6 H 0.9808 0.3470 0.5419
H6_6 H 0.9519 0.3371 0.3938
C7_6 C 0.8883(4) 0.4446(6) 0.3885(6)
H7_6 H 0.8385 0.3866 0.3679
C8_6 C 0.9441(4) 0.4841(6) 0.2639(6)
C10_6 C 0.8546(6) 0.5029(8) 0.4386(8)
H9_6 H 0.8412 0.4920 0.5305
H10_6 H 0.8025 0.4907 0.3912
H11_6 H 0.8986 0.5633 0.4260
N1_6 N 0.9450(3) 0.4352(5) 0.4866(5)
H12_6 H 0.9271 0.4416 0.5678
N2_5 N 0.6715(4) 0.1563(7) 0.5816(5)
O1_3 O 0.8980(3) 0.4746(5) 0.1606(4)
C9_5 C 0.4111(7) 0.1112(6) 0.6995(9)
H8_5 H 0.3821 0.1433 0.7015
O2_5 O 0.5032(3) 0.0254(3) 0.4367(4)
O3_6 O 0.4811(4) 0.1414(3) 0.6272(6)
O4_5 O 0.3792(5) 0.0420(5) 0.7669(8)
C9_6 C 0.8888(6) 0.2999(9) 0.0328(9)
H8_6 H 0.8567 0.2388 0.0348
O4_6 O 0.9580(5) 0.3372(7) 0.1002(8)
O2_6 O 0.4968(3) 0.9746(3) 0.9367(4)
C1_6 C 0.7818(10) 0.5037(8) 0.0011(7)
H1_6 H 0.7789 0.4772 0.0815
H2_6 H 0.6782 0.5229 0.0350
loop_
_geom_bond_atom_site_label_1
_geom_bond_atom_site_label_2
_geom_bond_site_symmetry_1
_geom_bond_site_symmetry_2
C1 H1 1_555 1_555
C2 C1 1_555 1_555
H2 C2 1_555 1_555
C3 C2 1_555 1_555
C4 C3 1_555 1_555
H3 C4 1_555 1_555
C5 C4 1_555 1_555
H4 C5 1_555 1_555
C6 C3 1_555 1_555
H5 C6 1_555 1_555
H6 C6 1_555 1_555
C7 H7 1_555 1_555
C10 C7 1_555 1_555
H9 C10 1_555 1_555
H10 C10 1_555 1_555
H11 C10 1_555 1_555
N1 C6 1_555 1_555
H12 N1 1_555 1_555
N2 C1 1_555 1_555
Zn2 N2 1_555 1_555
C5 N2 1_555 1_555
C7 N1 1_555 1_555
C9 H8 1_555 1_555
O3 C9 1_555 1_555
O4 C9 1_555 1_555
N3 Zn1 1_555 1_555
O5 Zn1 1_555 1_555
O3 Zn1 1_555 1_555
C1_2 H1_2 1_555 1_555
C2_2 C1_2 1_555 1_555
H2_2 C2_2 1_555 1_555
C3_2 C2_2 1_555 1_555
C4_2 C3_2 1_555 1_555
H3_2 C4_2 1_555 1_555
C5_2 C4_2 1_555 1_555
H4_2 C5_2 1_555 1_555
C6_2 C3_2 1_555 1_555
H5_2 C6_2 1_555 1_555
H6_2 C6_2 1_555 1_555
C7_2 H7_2 1_555 1_555
C8 C7_2 1_555 1_555
C9_2 H8_2 1_555 1_555
C10_2 C7_2 1_555 1_555
H9_2 C10_2 1_555 1_555
H10_2 C10_2 1_555 1_555
H11_2 C10_2 1_555 1_555
N1_2 C6_2 1_555 1_555
H12_2 N1_2 1_555 1_555
N2_2 C1_2 1_555 1_555
O2 C8 1_555 1_555
O3_2 C9_2 1_555 1_555
O4_2 C9_2 1_555 1_555
Zn2 N1_2 1_555 1_555
O5_2 Zn2 1_555 1_555
Zn2_2 N2_2 1_555 1_555
C5_2 N2_2 1_555 1_555
C7_2 N1_2 1_555 1_555
O2 Zn2 1_555 1_555
O3_2 Zn2 1_555 1_555
Zn3 O1 1_555 1_555
C9_3 H8_3 1_555 1_555
O3_3 C9_3 1_555 1_555
O4_3 C9_3 1_555 1_555
O5_3 Zn2_2 1_555 1_555
O2_2 Zn2_2 1_555 1_555
O3_3 Zn2_2 1_555 1_555
C1_3 H1_3 1_555 1_555
C2_3 C1_3 1_555 1_555
H2_3 C2_3 1_555 1_555
C3_3 C2_3 1_555 1_555
C4_3 C3_3 1_555 1_555
H3_3 C4_3 1_555 1_555
C5_3 C4_3 1_555 1_555
H4_3 C5_3 1_555 1_555
C6_3 C3_3 1_555 1_555
H5_3 C6_3 1_555 1_555
H6_3 C6_3 1_555 1_555
C7_3 H7_3 1_555 1_555
C8_2 C7_3 1_555 1_555
C10_3 C7_3 1_555 1_555
H9_3 C10_3 1_555 1_555
H10_3 C10_3 1_555 1_555
H11_3 C10_3 1_555 1_555
N1_3 C6_3 1_555 1_555
H12_3 N1_3 1_555 1_555
N2_3 C1_3 1_555 1_555
O5 C8_2 1_555 1_555
Zn3 N2_3 1_555 1_555
C5_3 N2_3 1_555 1_555
C7_3 N1_3 1_555 1_555
C3_4 C2_4 1_555 1_555
C4_4 C3_4 1_555 1_555
H3_4 C4_4 1_555 1_555
C5_4 C4_4 1_555 1_555
H4_4 C5_4 1_555 1_555
C6_4 C3_4 1_555 1_555
H5_4 C6_4 1_555 1_555
H6_4 C6_4 1_555 1_555
C7_4 H7_4 1_555 1_555
C8_3 C7_4 1_555 1_555
C9_4 H8_4 1_555 1_555
C10_4 C7_4 1_555 1_555
H9_4 C10_4 1_555 1_555
H10_4 C10_4 1_555 1_555
H11_4 C10_4 1_555 1_555
N1_4 C6_4 1_555 1_555
H12_4 N1_4 1_555 1_555
O5_2 C8_3 1_555 1_555
O2_3 C8_3 1_555 1_555
O3_4 C9_4 1_555 1_555
O4_4 C9_4 1_555 1_555
Zn3 N1_4 1_555 1_555
Zn3_2 N2_4 1_555 1_555
C5_4 N2_4 1_555 1_555
C7_4 N1_4 1_555 1_555
O2_3 Zn3 1_555 1_555
O3_4 Zn3 1_555 1_555
C1_4 H1_4 1_555 1_555
C2_5 C1_4 1_555 1_555
H2_4 C2_5 1_555 1_555
C3_5 C2_5 1_555 1_555
N3 C1_4 1_555 1_555
H3_5 C4_5 1_555 1_555
C5_5 C4_5 1_555 1_555
H4_5 C5_5 1_555 1_555
H6_5 C6_5 1_555 1_555
C7_5 H7_5 1_555 1_555
C8_4 C7_5 1_555 1_555
C10_5 C7_5 1_555 1_555
H10_5 C10_5 1_555 1_555
H11_5 C10_5 1_555 1_555
N1_5 C6_5 1_555 1_555
O5_3 C8_4 1_555 1_555
C7_5 N1_5 1_555 1_555
O2_4 Zn3_2 1_555 1_555
O3_5 Zn3_2 1_555 1_555
O1_2 C8_5 1_555 1_555
Zn3_3 O1_2 1_555 1_555
C1_5 H1_5 1_555 1_555
C2_6 C1_5 1_555 1_555
H2_5 C2_6 1_555 1_555
C3_6 C2_6 1_555 1_555
C4_6 C3_6 1_555 1_555
H3_6 C4_6 1_555 1_555
C5_6 C4_6 1_555 1_555
H4_6 C5_6 1_555 1_555
C6_6 C3_6 1_555 1_555
H5_6 C6_6 1_555 1_555
H6_6 C6_6 1_555 1_555
C7_6 H7_6 1_555 1_555
C8_6 C7_6 1_555 1_555
C10_6 C7_6 1_555 1_555
H9_6 C10_6 1_555 1_555
H10_6 C10_6 1_555 1_555
H11_6 C10_6 1_555 1_555
N1_6 C6_6 1_555 1_555
H12_6 N1_6 1_555 1_555
N2_5 C1_5 1_555 1_555
O1_3 C8_6 1_555 1_555
Zn3_3 N2_5 1_555 1_555
C5_6 N2_5 1_555 1_555
C7_6 N1_6 1_555 1_555
C9_5 H8_5 1_555 1_555
O3_6 C9_5 1_555 1_555
O4_5 C9_5 1_555 1_555
O2_5 Zn3_3 1_555 1_555
O3_6 Zn3_3 1_555 1_555
C9_6 H8_6 1_555 1_555
O4_6 C9_6 1_555 1_555
C1_6 H1_6 1_555 1_555

#END
