
###############################################################################
#
# This file contains modified crystal structure data generated from the
# MOF subset of the Cambridge Structural Database (CSD) v543 
# hosted by the Cambridge Crystallographic Data Centre (CCDC).
#
# This work is licensed under the Creative Commons
# Attribution-NonCommercial-ShareAlike 4.0 International License.
# To view a copy of this license, visit
# http://creativecommons.org/licenses/by-nc-sa/4.0/
# or send a letter to
# Creative Commons, PO Box 1866, Mountain View, CA 94042, USA.
#
# CIF created using the CSD Python API on 29 September 2022
# The structure has been converted into the P1 space group
# The structure has a 3D framework
# The original CSD entry BEPMIU is in the hexagonal crystal system
# The original CSD entry BEPMIU is in a Sohncke space group
# The framework has been calculated to contain at least 10.0% void space
# The void calculation uses a probe of radius 1.32A, grid spacing 0.4
#
###############################################################################

data_BEPMIU
_chemical_formula_moiety         '(C54 H66 Cl6 N12 O12 Zn6)n'
_symmetry_cell_setting           triclinic
_symmetry_space_group_name_H-M   'P 1'
_symmetry_Int_Tables_number      1
_space_group_name_Hall           'P 1'
loop_
_symmetry_equiv_pos_site_id
_symmetry_equiv_pos_as_xyz
1 x,y,z
_cell_length_a                   17.5285(3)
_cell_length_b                   17.5285(3)
_cell_length_c                   10.26523(16)
_cell_angle_alpha                90
_cell_angle_beta                 90
_cell_angle_gamma                120
_cell_volume                     2731.42
loop_
_atom_site_label
_atom_site_type_symbol
_atom_site_fract_x
_atom_site_fract_y
_atom_site_fract_z
H1 H 0.5731 0.8950 0.0251
C2 C 0.5778(4) 0.7851(5) 0.0009(6)
H2 H 0.6164 0.7951 0.0695
H6 H 0.6009 0.6522 0.0386
C7 C 0.4315(3) 0.5405(4) 0.0659(5)
H7 H 0.4303 0.5956 0.0748
C8 C 0.4615(3) 0.5191(3) 0.1949(5)
C9 C 0.3393(4) 0.4651(5) 0.0336(6)
H9 H 0.3006 0.4556 0.1055
H10 H 0.3418 0.4125 0.0174
Cl1 Cl 0.44435(13) 0.31489(10) 0.0030(2)
O1 O 0.4301(3) 0.5340(3) 0.2960(3)
O2 O 0.5126(2) 0.4897(2) 0.1906(3)
N3 N 0.6636(5) 0.4997(3) 0.0391(4)
Zn2 Zn 0.46439(3) 0.53980(3) 0.49315(6)
C1 C 0.5526(4) 0.8453(5) 0.9726(5)
C3 C 0.5457(4) 0.7087(4) 0.9266(5)
C4 C 0.4891(5) 0.6978(6) 0.8242(6)
H3 H 0.4650 0.6469 0.7736
C5 C 0.4691(5) 0.7623(6) 0.7986(6)
H4 H 0.4330 0.7552 0.7278
C6 C 0.5696(4) 0.6384(3) 0.9562(5)
H5 H 0.6091 0.6396 0.8891
H8 H 0.3177 0.4799 0.9573
N1 N 0.4931(3) 0.5497(3) 0.9635(4)
H11 H 0.4643 0.5372 0.8858
N2 N 0.4997(3) 0.8361(4) 0.8724(4)
Zn1 Zn 0.53561(3) 0.46020(3) 0.99315(6)
O3 O 0.5699(3) 0.4660(3) 0.7960(3)
Zn3 Zn 0.46020(3) 0.92459(4) 0.82648(6)
Cl1_2 Cl 0.12946(16) 0.44435(13) 0.1697(2)
O2_2 O 0.0229(3) 0.5126(2) 0.3573(3)
Zn1_2 Zn 0.07541(4) 0.53561(3) 0.15982(6)
N3_2 N 0.1639(6) 0.6636(5) 0.2057(4)
O3_2 O 0.1039(4) 0.5699(3) 0.9627(3)
C1_2 C 0.7073(6) 0.5526(4) 0.1393(5)
H1_2 H 0.6781 0.5731 0.1918
C2_2 C 0.7927(6) 0.5778(4) 0.1676(6)
H2_2 H 0.8213 0.6164 0.2362
C3_2 C 0.8370(6) 0.5457(4) 0.0933(5)
C6_2 C 0.9312(5) 0.5696(4) 0.1229(5)
H5_2 H 0.9695 0.6091 0.0558
H6_2 H 0.9487 0.6009 0.2053
C7_2 C 0.8910(5) 0.4315(3) 0.2326(5)
H7_2 H 0.8347 0.4303 0.2415
C8_2 C 0.9424(4) 0.4615(3) 0.3616(5)
C9_2 C 0.8742(6) 0.3393(4) 0.2003(6)
H8_2 H 0.8378 0.3177 0.1240
H9_2 H 0.8450 0.3006 0.2722
H10_2 H 0.9293 0.3418 0.1841
N1_2 N 0.9434(4) 0.4931(3) 0.1302(4)
H11_2 H 0.9271 0.4643 0.0525
O1_2 O 0.8961(4) 0.4301(3) 0.4627(3)
Zn2_2 Zn 0.92459(4) 0.46439(3) 0.65982(6)
C4_2 C 0.7913(8) 0.4891(5) 0.9909(6)
H3_2 H 0.8181 0.4650 0.9403
C5_2 C 0.7068(8) 0.4691(5) 0.9653(6)
H4_2 H 0.6778 0.4330 0.8945
Cl1_3 Cl 0.68511(10) 0.12946(16) 0.3363(2)
O2_3 O 0.5103(2) 0.0229(3) 0.5239(3)
Zn1_3 Zn 0.53980(3) 0.07541(4) 0.32648(6)
N3_3 N 0.5003(3) 0.1639(6) 0.3724(4)
O3_3 O 0.5340(3) 0.1039(4) 0.1293(3)
C1_3 C 0.1547(5) 0.7073(6) 0.3059(5)
H1_3 H 0.1050 0.6781 0.3584
C2_3 C 0.2149(5) 0.7927(6) 0.3342(6)
H2_3 H 0.2049 0.8213 0.4028
C3_3 C 0.2913(4) 0.8370(6) 0.2599(5)
C4_3 C 0.3022(6) 0.7913(8) 0.1575(6)
H3_3 H 0.3531 0.8181 0.1069
C5_3 C 0.2377(6) 0.7068(8) 0.1319(6)
H4_3 H 0.2448 0.6778 0.0611
C6_3 C 0.3616(3) 0.9312(5) 0.2895(5)
H5_3 H 0.3604 0.9695 0.2224
H6_3 H 0.3478 0.9487 0.3719
C7_3 C 0.4595(4) 0.8910(5) 0.3992(5)
H7_3 H 0.4044 0.8347 0.4081
C8_3 C 0.4809(3) 0.9424(4) 0.5282(5)
C9_3 C 0.5349(5) 0.8742(6) 0.3669(6)
H8_3 H 0.5201 0.8378 0.2906
H9_3 H 0.5444 0.8450 0.4388
H10_3 H 0.5875 0.9293 0.3507
N1_3 N 0.4503(3) 0.9434(4) 0.2968(4)
H11_3 H 0.4628 0.9271 0.2191
O1_3 O 0.4660(3) 0.8961(4) 0.6293(3)
C1_4 C 0.4474(4) 0.1547(5) 0.4726(5)
H1_4 H 0.4269 0.1050 0.5251
C2_4 C 0.4222(4) 0.2149(5) 0.5009(6)
H2_4 H 0.3836 0.2049 0.5695
C3_4 C 0.4543(4) 0.2913(4) 0.4266(5)
C4_4 C 0.5109(5) 0.3022(6) 0.3242(6)
H3_4 H 0.5350 0.3531 0.2736
C5_4 C 0.5309(5) 0.2377(6) 0.2986(6)
H4_4 H 0.5670 0.2448 0.2278
C6_4 C 0.4304(4) 0.3616(3) 0.4562(5)
H5_4 H 0.3909 0.3604 0.3891
H6_4 H 0.3991 0.3478 0.5386
C7_4 C 0.5685(3) 0.4595(4) 0.5659(5)
H7_4 H 0.5697 0.4044 0.5748
C8_4 C 0.5385(3) 0.4809(3) 0.6949(5)
C9_4 C 0.6607(4) 0.5349(5) 0.5336(6)
H8_4 H 0.6823 0.5201 0.4573
H9_4 H 0.6994 0.5444 0.6055
H10_4 H 0.6582 0.5875 0.5174
Cl1_4 Cl 0.55565(13) 0.68511(10) 0.5030(2)
N1_4 N 0.5069(3) 0.4503(3) 0.4635(4)
H11_4 H 0.5357 0.4628 0.3858
O2_4 O 0.4874(2) 0.5103(2) 0.6906(3)
N3_4 N 0.3364(5) 0.5003(3) 0.5391(4)
C1_5 C 0.2927(6) 0.4474(4) 0.6393(5)
H1_5 H 0.3219 0.4269 0.6918
C2_5 C 0.2073(6) 0.4222(4) 0.6676(6)
H2_5 H 0.1787 0.3836 0.7362
C3_5 C 0.1630(6) 0.4543(4) 0.5933(5)
C4_5 C 0.2087(8) 0.5109(5) 0.4909(6)
H3_5 H 0.1819 0.5350 0.4403
C5_5 C 0.2932(8) 0.5309(5) 0.4653(6)
H4_5 H 0.3222 0.5670 0.3945
C6_5 C 0.0688(5) 0.4304(4) 0.6229(5)
H5_5 H 0.0305 0.3909 0.5558
H6_5 H 0.0513 0.3991 0.7053
C7_5 C 0.1090(5) 0.5685(3) 0.7326(5)
H7_5 H 0.1653 0.5697 0.7415
C8_5 C 0.0576(4) 0.5385(3) 0.8616(5)
C9_5 C 0.1258(6) 0.6607(4) 0.7003(6)
H8_5 H 0.1622 0.6823 0.6240
H9_5 H 0.1550 0.6994 0.7722
H10_5 H 0.0707 0.6582 0.6841
N1_5 N 0.0566(4) 0.5069(3) 0.6302(4)
H11_5 H 0.0729 0.5357 0.5525
Cl1_5 Cl 0.87054(16) 0.55565(13) 0.6697(2)
O2_5 O 0.9771(3) 0.4874(2) 0.8573(3)
N3_5 N 0.8361(6) 0.3364(5) 0.7057(4)
C8_6 C 0.5191(3) 0.0576(4) 0.0282(5)
C1_6 C 0.8453(5) 0.2927(6) 0.8059(5)
H1_6 H 0.8950 0.3219 0.8584
C2_6 C 0.7851(5) 0.2073(6) 0.8342(6)
H2_6 H 0.7951 0.1787 0.9028
C3_6 C 0.7087(4) 0.1630(6) 0.7599(5)
C4_6 C 0.6978(6) 0.2087(8) 0.6575(6)
H3_6 H 0.6469 0.1819 0.6069
C5_6 C 0.7623(6) 0.2932(8) 0.6319(6)
H4_6 H 0.7552 0.3222 0.5611
C6_6 C 0.6384(3) 0.0688(5) 0.7895(5)
H5_6 H 0.6396 0.0305 0.7224
H6_6 H 0.6522 0.0513 0.8719
C7_6 C 0.5405(4) 0.1090(5) 0.8992(5)
H7_6 H 0.5956 0.1653 0.9081
C9_6 C 0.4651(5) 0.1258(6) 0.8669(6)
H8_6 H 0.4799 0.1622 0.7906
H9_6 H 0.4556 0.1550 0.9388
H10_6 H 0.4125 0.0707 0.8507
N1_6 N 0.5497(3) 0.0566(4) 0.7968(4)
H11_6 H 0.5372 0.0729 0.7191
Cl1_6 Cl 0.31489(10) 0.87054(16) 0.8363(2)
O2_6 O 0.4897(2) 0.9771(3) 0.0239(3)
loop_
_geom_bond_atom_site_label_1
_geom_bond_atom_site_label_2
_geom_bond_site_symmetry_1
_geom_bond_site_symmetry_2
H2 C2 1_555 1_555
C7 H7 1_555 1_555
C8 C7 1_555 1_555
C9 C7 1_555 1_555
H9 C9 1_555 1_555
H10 C9 1_555 1_555
O1 C8 1_555 1_555
O2 C8 1_555 1_555
Zn2 O1 1_555 1_555
C4 C3 1_555 1_555
H3 C4 1_555 1_555
C5 C4 1_555 1_555
H4 C5 1_555 1_555
C6 C3 1_555 1_555
H5 C6 1_555 1_555
N1 C6 1_555 1_555
H11 N1 1_555 1_555
N2 C1 1_555 1_555
Zn1 N1 1_555 1_555
O3 Zn1 1_555 1_555
Zn3 N2 1_555 1_555
C5 N2 1_555 1_555
Cl1_2 Zn1_2 1_555 1_555
N3_2 Zn1_2 1_555 1_555
O2_2 Zn1_2 1_555 1_555
C1_2 H1_2 1_555 1_555
C2_2 C1_2 1_555 1_555
H2_2 C2_2 1_555 1_555
C3_2 C2_2 1_555 1_555
C6_2 C3_2 1_555 1_555
H5_2 C6_2 1_555 1_555
H6_2 C6_2 1_555 1_555
C7_2 H7_2 1_555 1_555
C8_2 C7_2 1_555 1_555
C9_2 C7_2 1_555 1_555
H8_2 C9_2 1_555 1_555
H9_2 C9_2 1_555 1_555
H10_2 C9_2 1_555 1_555
N1_2 C6_2 1_555 1_555
H11_2 N1_2 1_555 1_555
N3 C1_2 1_555 1_555
O1_2 C8_2 1_555 1_555
Zn2_2 O1_2 1_555 1_555
C7_2 N1_2 1_555 1_555
H3_2 C4_2 1_555 1_555
C5_2 C4_2 1_555 1_555
H4_2 C5_2 1_555 1_555
Cl1_3 Zn1_3 1_555 1_555
N3_3 Zn1_3 1_555 1_555
O3_3 Zn1_3 1_555 1_555
O2_3 Zn1_3 1_555 1_555
C1_3 H1_3 1_555 1_555
C2_3 C1_3 1_555 1_555
H2_3 C2_3 1_555 1_555
C3_3 C2_3 1_555 1_555
C4_3 C3_3 1_555 1_555
H3_3 C4_3 1_555 1_555
C5_3 C4_3 1_555 1_555
H4_3 C5_3 1_555 1_555
C6_3 C3_3 1_555 1_555
H5_3 C6_3 1_555 1_555
H6_3 C6_3 1_555 1_555
C7_3 H7_3 1_555 1_555
C8_3 C7_3 1_555 1_555
C9_3 C7_3 1_555 1_555
H8_3 C9_3 1_555 1_555
H9_3 C9_3 1_555 1_555
H10_3 C9_3 1_555 1_555
N1_3 C6_3 1_555 1_555
H11_3 N1_3 1_555 1_555
N3_2 C1_3 1_555 1_555
O1_3 C8_3 1_555 1_555
Zn3 O1_3 1_555 1_555
C5_3 N3_2 1_555 1_555
C7_3 N1_3 1_555 1_555
C1_4 H1_4 1_555 1_555
C2_4 C1_4 1_555 1_555
H2_4 C2_4 1_555 1_555
C3_4 C2_4 1_555 1_555
C4_4 C3_4 1_555 1_555
H3_4 C4_4 1_555 1_555
C5_4 C4_4 1_555 1_555
H4_4 C5_4 1_555 1_555
C6_4 C3_4 1_555 1_555
H5_4 C6_4 1_555 1_555
H6_4 C6_4 1_555 1_555
C7_4 H7_4 1_555 1_555
C8_4 C7_4 1_555 1_555
C9_4 C7_4 1_555 1_555
H8_4 C9_4 1_555 1_555
H9_4 C9_4 1_555 1_555
H10_4 C9_4 1_555 1_555
Cl1_4 Zn2 1_555 1_555
N1_4 C6_4 1_555 1_555
H11_4 N1_4 1_555 1_555
N3_3 C1_4 1_555 1_555
O3 C8_4 1_555 1_555
O2_4 C8_4 1_555 1_555
Zn2 N1_4 1_555 1_555
N3_4 Zn2 1_555 1_555
C5_4 N3_3 1_555 1_555
C7_4 N1_4 1_555 1_555
O2_4 Zn2 1_555 1_555
C1_5 H1_5 1_555 1_555
C2_5 C1_5 1_555 1_555
H2_5 C2_5 1_555 1_555
C3_5 C2_5 1_555 1_555
C4_5 C3_5 1_555 1_555
H3_5 C4_5 1_555 1_555
C5_5 C4_5 1_555 1_555
H4_5 C5_5 1_555 1_555
C6_5 C3_5 1_555 1_555
H5_5 C6_5 1_555 1_555
H6_5 C6_5 1_555 1_555
C7_5 H7_5 1_555 1_555
C8_5 C7_5 1_555 1_555
C9_5 C7_5 1_555 1_555
H8_5 C9_5 1_555 1_555
H9_5 C9_5 1_555 1_555
H10_5 C9_5 1_555 1_555
N1_5 C6_5 1_555 1_555
H11_5 N1_5 1_555 1_555
N3_4 C1_5 1_555 1_555
O3_2 C8_5 1_555 1_555
C5_5 N3_4 1_555 1_555
C7_5 N1_5 1_555 1_555
Cl1_5 Zn2_2 1_555 1_555
N3_5 Zn2_2 1_555 1_555
O2_5 Zn2_2 1_555 1_555
O3_3 C8_6 1_555 1_555
C1_6 H1_6 1_555 1_555
C2_6 C1_6 1_555 1_555
H2_6 C2_6 1_555 1_555
C3_6 C2_6 1_555 1_555
C4_6 C3_6 1_555 1_555
H3_6 C4_6 1_555 1_555
C5_6 C4_6 1_555 1_555
H4_6 C5_6 1_555 1_555
C6_6 C3_6 1_555 1_555
H5_6 C6_6 1_555 1_555
H6_6 C6_6 1_555 1_555
C7_6 H7_6 1_555 1_555
C9_6 C7_6 1_555 1_555
H8_6 C9_6 1_555 1_555
H9_6 C9_6 1_555 1_555
H10_6 C9_6 1_555 1_555
N1_6 C6_6 1_555 1_555
H11_6 N1_6 1_555 1_555
N3_5 C1_6 1_555 1_555
C5_6 N3_5 1_555 1_555
C7_6 N1_6 1_555 1_555
Cl1_6 Zn3 1_555 1_555

#END
