
###############################################################################
#
# This file contains modified crystal structure data generated from the
# MOF subset of the Cambridge Structural Database (CSD) v543 
# hosted by the Cambridge Crystallographic Data Centre (CCDC).
#
# This work is licensed under the Creative Commons
# Attribution-NonCommercial-ShareAlike 4.0 International License.
# To view a copy of this license, visit
# http://creativecommons.org/licenses/by-nc-sa/4.0/
# or send a letter to
# Creative Commons, PO Box 1866, Mountain View, CA 94042, USA.
#
# CIF created using the CSD Python API on 29 September 2022
# The structure has been converted into the P1 space group
# The structure has a 3D framework
# The original CSD entry BEPNOB is in the hexagonal crystal system
# The original CSD entry BEPNOB is in a Sohncke space group
# The framework has been calculated to contain at least 10.0% void space
# The void calculation uses a probe of radius 1.32A, grid spacing 0.4
# H atom positions have been added when not included in the experimental data
#
###############################################################################

data_BEPNOB
_chemical_formula_moiety         '(C60 H72 N12 O23 Zn6)n'
_symmetry_cell_setting           triclinic
_symmetry_space_group_name_H-M   'P 1'
_symmetry_Int_Tables_number      1
_space_group_name_Hall           'P 1'
loop_
_symmetry_equiv_pos_site_id
_symmetry_equiv_pos_as_xyz
1 x,y,z
_cell_length_a                   17.5911(7)
_cell_length_b                   17.5911(7)
_cell_length_c                   10.1716(3)
_cell_angle_alpha                90
_cell_angle_beta                 90
_cell_angle_gamma                120
_cell_volume                     2725.87
loop_
_atom_site_label
_atom_site_type_symbol
_atom_site_fract_x
_atom_site_fract_y
_atom_site_fract_z
Zn1 Zn 0.54337(5) 0.07531(4) 0.13354(9)
O3 O 0.4807(4) 0.1416(3) 0.1292(5)
O4 O 0.3805(5) 0.0419(5) 0.2684(8)
C10 C 0.4106(7) 0.1116(6) 0.2020(8)
H11 H 0.3812 0.1432 0.2053
O5 O 0.5765(3) 0.1019(3) 0.3298(4)
N3 N 0.6711(4) 0.1561(7) 0.0852(5)
N1 N 0.5098(4) 0.9454(3) 0.1560(5)
N2 N 0.5150(6) 0.6711(4) 0.2519(5)
C1 C 0.5030(8) 0.7218(6) 0.3374(7)
H1 H 0.4747 0.6982 0.4168
C2 C 0.5540(6) 0.7073(5) 0.1345(7)
H2 H 0.5618 0.6725 0.0733
C3 C 0.5910(5) 0.9385(4) 0.1513(7)
H3 H 0.6343 0.9806 0.2117
H4 H 0.6156 0.9521 0.0634
C4 C 0.4433(4) 0.8886(4) 0.0579(6)
H5 H 0.4515 0.8387 0.0375
C5 C 0.5821(7) 0.7933(5) 0.1036(7)
H6 H 0.6103 0.8159 0.0238
C7 C 0.5330(7) 0.8116(5) 0.3084(7)
H7 H 0.5277 0.8469 0.3716
C8 C 0.5694(7) 0.8467(5) 0.1886(7)
C9 C 0.3521(6) 0.8550(6) 0.1084(7)
H8 H 0.3496 0.8402 0.1997
H9 H 0.3119 0.8037 0.0596
H10 H 0.3361 0.8994 0.0982
Zn2 Zn 0.46806(6) 0.54337(5) 0.30021(9)
H12 H 0.482804 0.925682 0.246593
O1 O 0.4776(4) 0.5031(3) 0.1059(4)
N1_2 N 0.5644(5) 0.5098(4) 0.3227(5)
O3_2 O 0.3391(5) 0.4807(4) 0.2959(5)
N2_2 N 0.8439(7) 0.5150(6) 0.4186(5)
C1_2 C 0.7812(10) 0.5030(8) 0.5041(7)
H1_2 H 0.7765 0.4747 0.5835
C2_2 C 0.8467(8) 0.5540(6) 0.3012(7)
H2_2 H 0.8893 0.5618 0.2400
C3_2 C 0.6525(6) 0.5910(5) 0.3180(7)
H3_2 H 0.6537 0.6343 0.3784
H4_2 H 0.6635 0.6156 0.2301
C4_2 C 0.5547(6) 0.4433(4) 0.2246(6)
H5_2 H 0.6128 0.4515 0.2042
O4_2 O 0.3386(7) 0.3805(5) 0.4351(8)
C5_2 C 0.7888(9) 0.5821(7) 0.2703(7)
H6_2 H 0.7944 0.6103 0.1905
C6 C 0.5160(6) 0.4599(4) 0.0997(6)
C7_2 C 0.7214(9) 0.5330(7) 0.4751(7)
H7_2 H 0.6808 0.5277 0.5383
C8_2 C 0.7227(9) 0.5694(7) 0.3553(7)
C9_2 C 0.4971(8) 0.3521(6) 0.2751(7)
H8_2 H 0.5094 0.3496 0.3664
H9_2 H 0.5082 0.3119 0.2263
H10_2 H 0.4367 0.3361 0.2649
C10_2 C 0.2990(9) 0.4106(7) 0.3687(8)
H11_2 H 0.2380 0.3812 0.3720
Zn2_2 Zn 0.92469(8) 0.46806(6) 0.46687(9)
O5_2 O 0.4746(4) 0.5765(3) 0.4965(4)
H12_2 H 0.557123 0.482804 0.41326
O2 O 0.5254(4) 0.4235(3) 0.9965(4)
Zn3 Zn 0.53194(6) 0.45663(5) 0.80021(9)
Zn3_2 Zn 0.07531(4) 0.53194(6) 0.96687(9)
O1_2 O 0.9745(3) 0.4776(4) 0.2725(4)
O3_3 O 0.8584(3) 0.3391(5) 0.4625(5)
O4_3 O 0.9581(5) 0.3386(7) 0.6017(8)
C10_3 C 0.8884(6) 0.2990(9) 0.5353(8)
H11_3 H 0.8568 0.2380 0.5386
O5_3 O 0.8981(3) 0.4746(4) 0.6631(4)
N1_3 N 0.4902(4) 0.0546(3) 0.6560(5)
N2_3 N 0.4850(6) 0.3289(4) 0.7519(5)
C1_3 C 0.4970(8) 0.2782(6) 0.8374(7)
H1_3 H 0.5253 0.3018 0.9168
C2_3 C 0.4460(6) 0.2927(5) 0.6345(7)
H2_3 H 0.4382 0.3275 0.5733
C3_3 C 0.4090(5) 0.0615(4) 0.6513(7)
H3_3 H 0.3657 0.0194 0.7117
H4_3 H 0.3844 0.0479 0.5634
C4_3 C 0.5567(4) 0.1114(4) 0.5579(6)
H5_3 H 0.5485 0.1613 0.5375
C5_3 C 0.4179(7) 0.2067(5) 0.6036(7)
H6_3 H 0.3897 0.1841 0.5238
C6_2 C 0.5401(4) 0.0561(4) 0.4330(6)
C7_3 C 0.4670(7) 0.1884(5) 0.8084(7)
H7_3 H 0.4723 0.1531 0.8716
C8_3 C 0.4306(7) 0.1533(5) 0.6886(7)
C9_3 C 0.6479(6) 0.1450(6) 0.6084(7)
H8_3 H 0.6504 0.1598 0.6997
H9_3 H 0.6881 0.1963 0.5596
H10_3 H 0.6639 0.1006 0.5982
H12_3 H 0.517196 0.0743182 0.746593
O1_3 O 0.5224(4) 0.4969(3) 0.6059(4)
N1_4 N 0.4356(5) 0.4902(4) 0.8227(5)
O3_4 O 0.6609(5) 0.5193(4) 0.7959(5)
N2_4 N 0.1561(7) 0.4850(6) 0.9186(5)
C2_4 C 0.1533(8) 0.4460(6) 0.8012(7)
H2_4 H 0.1107 0.4382 0.7400
C3_4 C 0.3475(6) 0.4090(5) 0.8180(7)
H3_4 H 0.3463 0.3657 0.8784
H4_4 H 0.3365 0.3844 0.7301
C4_4 C 0.4453(6) 0.5567(4) 0.7246(6)
H5_4 H 0.3872 0.5485 0.7042
O4_4 O 0.6614(7) 0.6195(5) 0.9351(8)
C5_4 C 0.2112(9) 0.4179(7) 0.7703(7)
H6_4 H 0.2056 0.3897 0.6905
C6_3 C 0.4840(6) 0.5401(4) 0.5997(6)
C7_4 C 0.2786(9) 0.4670(7) 0.9751(7)
C8_4 C 0.2773(9) 0.4306(7) 0.8553(7)
C9_4 C 0.5029(8) 0.6479(6) 0.7751(7)
H8_4 H 0.4906 0.6504 0.8664
H9_4 H 0.4918 0.6881 0.7263
H10_4 H 0.5633 0.6639 0.7649
C10_4 C 0.7010(9) 0.5894(7) 0.8687(8)
H11_4 H 0.7620 0.6188 0.8720
H12_4 H 0.442877 0.517196 0.91326
O1_4 O 0.0255(3) 0.5224(4) 0.7725(4)
O3_5 O 0.1416(3) 0.6609(5) 0.9625(5)
C1_4 C 0.7218(6) 0.2188(10) 0.1707(7)
H1_4 H 0.6982 0.2235 0.2501
H3_5 H 0.9806 0.3463 0.0450
C7_5 C 0.8116(5) 0.2786(9) 0.1417(7)
H7_4 H 0.8469 0.3192 0.2049
C8_5 C 0.8467(5) 0.2773(9) 0.0219(7)
H8_5 H 0.8402 0.4906 0.0330
H12_5 H 0.925682 0.442877 0.0799263
N1_5 N 0.9454(3) 0.4356(5) 0.9893(5)
C2_5 C 0.7073(5) 0.1533(8) 0.9678(7)
H2_5 H 0.6725 0.1107 0.9066
C3_5 C 0.9385(4) 0.3475(6) 0.9846(7)
H4_5 H 0.9521 0.3365 0.8967
C4_5 C 0.8886(4) 0.4453(6) 0.8912(6)
H5_5 H 0.8387 0.3872 0.8708
C5_5 C 0.7933(5) 0.2112(9) 0.9369(7)
H6_5 H 0.8159 0.2056 0.8571
C6_4 C 0.9439(4) 0.4840(6) 0.7663(6)
C9_5 C 0.8550(6) 0.5029(8) 0.9417(7)
H9_5 H 0.8037 0.4918 0.8929
H10_5 H 0.8994 0.5633 0.9315
O1_5 O 0.5031(3) 0.0255(3) 0.9392(4)
O2_2 O 0.4235(3) 0.8981(3) 0.8298(4)
C6_5 C 0.4599(4) 0.9439(4) 0.9330(6)
Zn3_3 Zn 0.45663(5) 0.92469(4) 0.63354(9)
O2_3 O 0.1019(3) 0.5254(4) 0.1631(4)
N1_6 N 0.0546(3) 0.5644(5) 0.4893(5)
N2_5 N 0.3289(4) 0.8439(7) 0.5852(5)
C1_5 C 0.2782(6) 0.7812(10) 0.6707(7)
H1_5 H 0.3018 0.7765 0.7501
C2_6 C 0.2927(5) 0.8467(8) 0.4678(7)
H2_6 H 0.3275 0.8893 0.4066
C3_6 C 0.0615(4) 0.6525(6) 0.4846(7)
H3_6 H 0.0194 0.6537 0.5450
H4_6 H 0.0479 0.6635 0.3967
C4_6 C 0.1114(4) 0.5547(6) 0.3912(6)
H5_6 H 0.1613 0.6128 0.3708
C5_6 C 0.2067(5) 0.7888(9) 0.4369(7)
H6_6 H 0.1841 0.7944 0.3571
C6_6 C 0.0561(4) 0.5160(6) 0.2663(6)
C7_6 C 0.1884(5) 0.7214(9) 0.6417(7)
H7_5 H 0.1531 0.6808 0.7049
C8_6 C 0.1533(5) 0.7227(9) 0.5219(7)
C9_6 C 0.1450(6) 0.4971(8) 0.4417(7)
H8_6 H 0.1598 0.5094 0.5330
H9_6 H 0.1963 0.5082 0.3929
H10_6 H 0.1006 0.4367 0.4315
H12_6 H 0.0743182 0.557123 0.579926
O1_6 O 0.4969(3) 0.9745(3) 0.4392(4)
O3_6 O 0.5193(4) 0.8584(3) 0.6292(5)
O4_5 O 0.6195(5) 0.9581(5) 0.7684(8)
C10_5 C 0.5894(7) 0.8884(6) 0.7020(8)
H11_5 H 0.6188 0.8568 0.7053
O4_6 O 0.0419(5) 0.6614(7) 0.1017(8)
C10_6 C 0.1116(6) 0.7010(9) 0.0353(8)
H11_6 H 0.1432 0.7620 0.0386
C1_6 C 0.2188(10) 0.4970(8) 0.0041(7)
H1_6 H 0.2235 0.5253 0.0835
H7_6 H 0.3192 0.4723 0.0383
loop_
_geom_bond_atom_site_label_1
_geom_bond_atom_site_label_2
_geom_bond_site_symmetry_1
_geom_bond_site_symmetry_2
O3 Zn1 1_555 1_555
O4 C10 1_555 1_555
C10 O3 1_555 1_555
H11 C10 1_555 1_555
O5 Zn1 1_555 1_555
N3 Zn1 1_555 1_555
N2 C1 1_555 1_555
C1 H1 1_555 1_555
C2 N2 1_555 1_555
H2 C2 1_555 1_555
C3 N1 1_555 1_555
H3 C3 1_555 1_555
H4 C3 1_555 1_555
C4 N1 1_555 1_555
H5 C4 1_555 1_555
C5 C2 1_555 1_555
H6 C5 1_555 1_555
C7 C1 1_555 1_555
H7 C7 1_555 1_555
C8 C3 1_555 1_555
C9 C4 1_555 1_555
H8 C9 1_555 1_555
H9 C9 1_555 1_555
H10 C9 1_555 1_555
Zn2 N2 1_555 1_555
C5 C8 1_555 1_555
C7 C8 1_555 1_555
N1 H12 1_555 1_555
Zn2 O1 1_555 1_555
O1 C6 1_555 1_555
N1_2 Zn2 1_555 1_555
O3_2 Zn2 1_555 1_555
N2_2 C1_2 1_555 1_555
C1_2 H1_2 1_555 1_555
C2_2 N2_2 1_555 1_555
H2_2 C2_2 1_555 1_555
C3_2 N1_2 1_555 1_555
H3_2 C3_2 1_555 1_555
H4_2 C3_2 1_555 1_555
C4_2 N1_2 1_555 1_555
H5_2 C4_2 1_555 1_555
O4_2 C10_2 1_555 1_555
C5_2 C2_2 1_555 1_555
H6_2 C5_2 1_555 1_555
C6 C4_2 1_555 1_555
C7_2 C1_2 1_555 1_555
H7_2 C7_2 1_555 1_555
C8_2 C3_2 1_555 1_555
C9_2 C4_2 1_555 1_555
H8_2 C9_2 1_555 1_555
H9_2 C9_2 1_555 1_555
H10_2 C9_2 1_555 1_555
C10_2 O3_2 1_555 1_555
H11_2 C10_2 1_555 1_555
Zn2_2 N2_2 1_555 1_555
O5_2 Zn2 1_555 1_555
C5_2 C8_2 1_555 1_555
C7_2 C8_2 1_555 1_555
N1_2 H12_2 1_555 1_555
Zn3 O2 1_555 1_555
Zn2_2 O1_2 1_555 1_555
O3_3 Zn2_2 1_555 1_555
O4_3 C10_3 1_555 1_555
C10_3 O3_3 1_555 1_555
H11_3 C10_3 1_555 1_555
O5_3 Zn2_2 1_555 1_555
O5 C6_2 1_555 1_555
N2_3 C1_3 1_555 1_555
C1_3 H1_3 1_555 1_555
C2_3 N2_3 1_555 1_555
H2_3 C2_3 1_555 1_555
C3_3 N1_3 1_555 1_555
H3_3 C3_3 1_555 1_555
H4_3 C3_3 1_555 1_555
C4_3 N1_3 1_555 1_555
H5_3 C4_3 1_555 1_555
C5_3 C2_3 1_555 1_555
H6_3 C5_3 1_555 1_555
C6_2 C4_3 1_555 1_555
C7_3 C1_3 1_555 1_555
H7_3 C7_3 1_555 1_555
C8_3 C3_3 1_555 1_555
C9_3 C4_3 1_555 1_555
H8_3 C9_3 1_555 1_555
H9_3 C9_3 1_555 1_555
H10_3 C9_3 1_555 1_555
Zn3 N2_3 1_555 1_555
C5_3 C8_3 1_555 1_555
C7_3 C8_3 1_555 1_555
N1_3 H12_3 1_555 1_555
Zn3 O1_3 1_555 1_555
O1_3 C6_3 1_555 1_555
O5_2 C6_3 1_555 1_555
N1_4 Zn3 1_555 1_555
O3_4 Zn3 1_555 1_555
C2_4 N2_4 1_555 1_555
H2_4 C2_4 1_555 1_555
C3_4 N1_4 1_555 1_555
H3_4 C3_4 1_555 1_555
H4_4 C3_4 1_555 1_555
C4_4 N1_4 1_555 1_555
H5_4 C4_4 1_555 1_555
O4_4 C10_4 1_555 1_555
C5_4 C2_4 1_555 1_555
H6_4 C5_4 1_555 1_555
C6_3 C4_4 1_555 1_555
C8_4 C3_4 1_555 1_555
C9_4 C4_4 1_555 1_555
H8_4 C9_4 1_555 1_555
H9_4 C9_4 1_555 1_555
H10_4 C9_4 1_555 1_555
C10_4 O3_4 1_555 1_555
H11_4 C10_4 1_555 1_555
Zn3_2 N2_4 1_555 1_555
C5_4 C8_4 1_555 1_555
C7_4 C8_4 1_555 1_555
N1_4 H12_4 1_555 1_555
Zn3_2 O1_4 1_555 1_555
O3_5 Zn3_2 1_555 1_555
N3 C1_4 1_555 1_555
C1_4 H1_4 1_555 1_555
C7_5 C1_4 1_555 1_555
H7_4 C7_5 1_555 1_555
C7_5 C8_5 1_555 1_555
O5_3 C6_4 1_555 1_555
H2_5 C2_5 1_555 1_555
C3_5 N1_5 1_555 1_555
H4_5 C3_5 1_555 1_555
C4_5 N1_5 1_555 1_555
H5_5 C4_5 1_555 1_555
C5_5 C2_5 1_555 1_555
H6_5 C5_5 1_555 1_555
C6_4 C4_5 1_555 1_555
C9_5 C4_5 1_555 1_555
H9_5 C9_5 1_555 1_555
H10_5 C9_5 1_555 1_555
O2_2 C6_5 1_555 1_555
Zn3_3 O2_2 1_555 1_555
O2_3 C6_6 1_555 1_555
N2_5 C1_5 1_555 1_555
C1_5 H1_5 1_555 1_555
C2_6 N2_5 1_555 1_555
H2_6 C2_6 1_555 1_555
C3_6 N1_6 1_555 1_555
H3_6 C3_6 1_555 1_555
H4_6 C3_6 1_555 1_555
C4_6 N1_6 1_555 1_555
H5_6 C4_6 1_555 1_555
C5_6 C2_6 1_555 1_555
H6_6 C5_6 1_555 1_555
C6_6 C4_6 1_555 1_555
C7_6 C1_5 1_555 1_555
H7_5 C7_6 1_555 1_555
C8_6 C3_6 1_555 1_555
C9_6 C4_6 1_555 1_555
H8_6 C9_6 1_555 1_555
H9_6 C9_6 1_555 1_555
H10_6 C9_6 1_555 1_555
Zn3_3 N2_5 1_555 1_555
C5_6 C8_6 1_555 1_555
C7_6 C8_6 1_555 1_555
N1_6 H12_6 1_555 1_555
Zn3_3 O1_6 1_555 1_555
O3_6 Zn3_3 1_555 1_555
O4_5 C10_5 1_555 1_555
C10_5 O3_6 1_555 1_555
H11_5 C10_5 1_555 1_555
O4_6 C10_6 1_555 1_555
H11_6 C10_6 1_555 1_555
C1_6 H1_6 1_555 1_555

#END
