
###############################################################################
#
# This file contains modified crystal structure data generated from the
# MOF subset of the Cambridge Structural Database (CSD) v543 
# hosted by the Cambridge Crystallographic Data Centre (CCDC).
#
# This work is licensed under the Creative Commons
# Attribution-NonCommercial-ShareAlike 4.0 International License.
# To view a copy of this license, visit
# http://creativecommons.org/licenses/by-nc-sa/4.0/
# or send a letter to
# Creative Commons, PO Box 1866, Mountain View, CA 94042, USA.
#
# CIF created using the CSD Python API on 29 September 2022
# The structure has been converted into the P1 space group
# The structure has a 3D framework
# The original CSD entry BEPNUH is in the hexagonal crystal system
# The original CSD entry BEPNUH is in a Sohncke space group
# The framework has been calculated to contain at least 10.0% void space
# The void calculation uses a probe of radius 1.32A, grid spacing 0.4
#
###############################################################################

data_BEPNUH
_chemical_formula_moiety         '(C54 H66 Br6 N12 O12 Zn6)n'
_symmetry_cell_setting           triclinic
_symmetry_space_group_name_H-M   'P 1'
_symmetry_Int_Tables_number      1
_space_group_name_Hall           'P 1'
loop_
_symmetry_equiv_pos_site_id
_symmetry_equiv_pos_as_xyz
1 x,y,z
_cell_length_a                   17.7440(3)
_cell_length_b                   17.7440(3)
_cell_length_c                   10.17155(19)
_cell_angle_alpha                90
_cell_angle_beta                 90
_cell_angle_gamma                120
_cell_volume                     2773.45
loop_
_atom_site_label
_atom_site_type_symbol
_atom_site_fract_x
_atom_site_fract_y
_atom_site_fract_z
N1 N 0.5581(3) 0.0558(2) 0.1116(4)
H1 H 0.5505 0.0728 0.0306
O2 O 0.5055(3) 0.0933(2) 0.4357(3)
C1 C 0.7150(3) 0.1600(4) 0.0826(5)
N2 N 0.8380(3) 0.3299(4) 0.0180(4)
C2 C 0.5077(3) 0.0523(3) 0.3359(4)
C3 C 0.6455(3) 0.0685(3) 0.1166(6)
H2 H 0.6493 0.0283 0.0559
H3 H 0.6563 0.0546 0.2044
C4 C 0.5413(4) 0.1061(3) 0.2096(4)
H4 H 0.5956 0.1600 0.2286
C5 C 0.8436(3) 0.2955(5) 0.1299(5)
H5 H 0.8895 0.3293 0.1863
C7 C 0.7839(4) 0.2109(6) 0.1672(6)
H7 H 0.7897 0.1887 0.2470
C9 C 0.4738(6) 0.1284(5) 0.1583(6)
H9 H 0.4944 0.1610 0.0781
H10 H 0.4647 0.1626 0.2227
H11 H 0.4199 0.0757 0.1420
Zn2 Zn 0.53163(3) 0.07553(3) 0.63189(5)
C6 C 0.7112(4) 0.1955(4) 0.9672(6)
H6 H 0.6668 0.1626 0.9080
C8 C 0.7736(4) 0.2813(7) 0.9357(5)
H8 H 0.7699 0.3048 0.8558
Zn3 Zn 0.92447(3) 0.45610(4) 0.96522(5)
Zn1 Zn 0.46837(3) 0.92447(3) 0.13189(5)
Br1 Br 0.31859(5) 0.87000(6) 0.10153(9)
O1 O 0.4831(2) 0.97267(19) 0.3318(3)
N3 N 0.5081(5) 0.8380(3) 0.1847(4)
Zn1_2 Zn 0.54390(4) 0.46837(3) 0.29856(5)
Br1_2 Br 0.44859(8) 0.31859(5) 0.26820(9)
N1_2 N 0.5023(4) 0.5581(3) 0.2783(4)
H1_2 H 0.4777 0.5505 0.1973
O1_2 O 0.51043(28) 0.4831(2) 0.4985(3)
O2_2 O 0.4122(4) 0.5055(3) 0.6024(3)
C1_2 C 0.5550(5) 0.7150(3) 0.2493(5)
C2_2 C 0.4554(4) 0.5077(3) 0.5026(4)
C3_2 C 0.5770(4) 0.6455(3) 0.2833(6)
H2_2 H 0.6210 0.6493 0.2226
H3_2 H 0.6017 0.6563 0.3711
C4_2 C 0.4352(5) 0.5413(4) 0.3763(4)
H4_2 H 0.4356 0.5956 0.3953
C5_2 C 0.5481(6) 0.8436(3) 0.2966(5)
H5_2 H 0.5602 0.8895 0.3530
C6_2 C 0.5157(6) 0.7112(4) 0.1339(6)
H6_2 H 0.5042 0.6668 0.0747
C7_2 C 0.5730(7) 0.7839(4) 0.3339(6)
H7_2 H 0.6010 0.7897 0.4137
C8_2 C 0.4923(8) 0.7736(4) 0.1024(5)
H8_2 H 0.4651 0.7699 0.0225
C9_2 C 0.3454(8) 0.4738(6) 0.3250(6)
H9_2 H 0.3334 0.4944 0.2448
H10_2 H 0.3021 0.4647 0.3894
H11_2 H 0.3442 0.4199 0.3087
Zn2_2 Zn 0.45610(4) 0.53163(3) 0.79856(5)
O3 O 0.5878(4) 0.4945(3) 0.1024(3)
N3_2 N 0.6701(6) 0.5081(5) 0.3513(4)
N1_3 N 0.9442(2) 0.5023(4) 0.4449(4)
H1_3 H 0.9272 0.4777 0.3639
O2_3 O 0.9067(2) 0.4122(4) 0.7690(3)
C1_3 C 0.8400(4) 0.5550(5) 0.4159(5)
C2_3 C 0.9477(3) 0.4554(4) 0.6692(4)
C3_3 C 0.9315(3) 0.5770(4) 0.4499(6)
H2_3 H 0.9717 0.6210 0.3892
H3_3 H 0.9454 0.6017 0.5377
C4_3 C 0.8939(3) 0.4352(5) 0.5429(4)
H4_3 H 0.8400 0.4356 0.5619
C5_3 C 0.7045(5) 0.5481(6) 0.4632(5)
H5_3 H 0.6707 0.5602 0.5196
C6_3 C 0.8045(4) 0.5157(6) 0.3005(6)
H6_3 H 0.8374 0.5042 0.2413
C7_3 C 0.7891(6) 0.5730(7) 0.5005(6)
H7_3 H 0.8113 0.6010 0.5803
C8_3 C 0.7187(7) 0.4923(8) 0.2690(5)
H8_3 H 0.6952 0.4651 0.1891
C9_3 C 0.8716(5) 0.3454(8) 0.4916(6)
H9_3 H 0.8390 0.3334 0.4114
H10_3 H 0.8374 0.3021 0.5560
H11_3 H 0.9243 0.3442 0.4753
Br1_3 Br 0.68141(5) 0.13000(6) 0.60153(9)
O1_3 O 0.5169(2) 0.02733(19) 0.8318(3)
N3_3 N 0.4919(5) 0.1620(3) 0.6847(4)
C2_4 C 0.5446(4) 0.4923(3) 0.0026(4)
Br1_4 Br 0.55141(8) 0.68141(5) 0.76820(9)
N1_4 N 0.4977(4) 0.4419(3) 0.7783(4)
H1_4 H 0.5223 0.4495 0.6973
O1_4 O 0.48957(28) 0.5169(2) 0.9985(3)
C1_4 C 0.4450(5) 0.2850(3) 0.7493(5)
C3_4 C 0.4230(4) 0.3545(3) 0.7833(6)
H2_4 H 0.3790 0.3507 0.7226
H3_4 H 0.3983 0.3437 0.8711
C4_4 C 0.5648(5) 0.4587(4) 0.8763(4)
H4_4 H 0.5644 0.4044 0.8953
C5_4 C 0.4519(6) 0.1564(3) 0.7966(5)
H5_4 H 0.4398 0.1105 0.8530
C6_4 C 0.4843(6) 0.2888(4) 0.6339(6)
H6_4 H 0.4958 0.3332 0.5747
C7_4 C 0.4270(7) 0.2161(4) 0.8339(6)
H7_4 H 0.3990 0.2103 0.9137
C8_4 C 0.5077(8) 0.2264(4) 0.6024(5)
H8_4 H 0.5349 0.2301 0.5225
C9_4 C 0.6546(8) 0.5262(6) 0.8250(6)
H9_4 H 0.6666 0.5056 0.7448
H10_4 H 0.6979 0.5353 0.8894
H11_4 H 0.6558 0.5801 0.8087
N3_4 N 0.3299(6) 0.4919(5) 0.8513(4)
N1_5 N 0.0558(2) 0.4977(4) 0.9449(4)
H1_5 H 0.0728 0.5223 0.8639
C1_5 C 0.1600(4) 0.4450(5) 0.9159(5)
C3_5 C 0.0685(3) 0.4230(4) 0.9499(6)
H2_5 H 0.0283 0.3790 0.8892
C5_5 C 0.2955(5) 0.4519(6) 0.9632(5)
C6_5 C 0.1955(4) 0.4843(6) 0.8005(6)
H6_5 H 0.1626 0.4958 0.7413
C8_5 C 0.2813(7) 0.5077(8) 0.7690(5)
H8_5 H 0.3048 0.5349 0.6891
C9_5 C 0.1284(5) 0.6546(8) 0.9916(6)
H9_5 H 0.1610 0.6666 0.9114
H11_5 H 0.0757 0.6558 0.9753
O1_5 O 0.97267(19) 0.48957(28) 0.1651(3)
Br1_5 Br 0.87000(6) 0.55141(8) 0.93486(9)
O3_2 O 0.4945(3) 0.9067(2) 0.9357(3)
Zn1_3 Zn 0.07553(3) 0.54390(4) 0.46522(5)
Br1_6 Br 0.13000(6) 0.44859(8) 0.43486(9)
O1_6 O 0.02733(19) 0.51043(28) 0.6651(3)
O3_3 O 0.0933(2) 0.5878(4) 0.2690(3)
N3_5 N 0.1620(3) 0.6701(6) 0.5180(4)
N1_6 N 0.4419(3) 0.9442(2) 0.6116(4)
H1_6 H 0.4495 0.9272 0.5306
C1_6 C 0.2850(3) 0.8400(4) 0.5826(5)
C2_5 C 0.4923(3) 0.9477(3) 0.8359(4)
C3_6 C 0.3545(3) 0.9315(3) 0.6166(6)
H2_6 H 0.3507 0.9717 0.5559
H3_5 H 0.3437 0.9454 0.7044
C4_5 C 0.4587(4) 0.8939(3) 0.7096(4)
H4_5 H 0.4044 0.8400 0.7286
C5_6 C 0.1564(3) 0.7045(5) 0.6299(5)
H5_5 H 0.1105 0.6707 0.6863
C6_6 C 0.2888(4) 0.8045(4) 0.4672(6)
H6_6 H 0.3332 0.8374 0.4080
C7_5 C 0.2161(4) 0.7891(6) 0.6672(6)
H7_5 H 0.2103 0.8113 0.7470
C8_6 C 0.2264(4) 0.7187(7) 0.4357(5)
H8_6 H 0.2301 0.6952 0.3558
C9_6 C 0.5262(6) 0.8716(5) 0.6583(6)
H9_6 H 0.5056 0.8390 0.5781
H10_5 H 0.5353 0.8374 0.7227
H11_6 H 0.5801 0.9243 0.6420
C2_6 C 0.0523(3) 0.5446(4) 0.1692(4)
H3_6 H 0.0546 0.3983 0.0377
C4_6 C 0.1061(3) 0.5648(5) 0.0429(4)
H4_6 H 0.1600 0.5644 0.0619
H5_6 H 0.3293 0.4398 0.0196
C7_6 C 0.2109(6) 0.4270(7) 0.0005(6)
H7_6 H 0.1887 0.3990 0.0803
H10_6 H 0.1626 0.6979 0.0560
loop_
_geom_bond_atom_site_label_1
_geom_bond_atom_site_label_2
_geom_bond_site_symmetry_1
_geom_bond_site_symmetry_2
H1 N1 1_555 1_555
O2 C2 1_555 1_555
C1 C3 1_555 1_555
N2 C5 1_555 1_555
C3 N1 1_555 1_555
H2 C3 1_555 1_555
H3 C3 1_555 1_555
C4 N1 1_555 1_555
H4 C4 1_555 1_555
C5 H5 1_555 1_555
C7 C1 1_555 1_555
H7 C7 1_555 1_555
C9 C4 1_555 1_555
H9 C9 1_555 1_555
H10 C9 1_555 1_555
H11 C9 1_555 1_555
Zn2 O2 1_555 1_555
C2 C4 1_555 1_555
C5 C7 1_555 1_555
H6 C6 1_555 1_555
H8 C8 1_555 1_555
C6 C8 1_555 1_555
Zn1 Br1 1_555 1_555
O1 Zn1 1_555 1_555
N3 Zn1 1_555 1_555
Zn1_2 Br1_2 1_555 1_555
N1_2 Zn1_2 1_555 1_555
H1_2 N1_2 1_555 1_555
O1_2 Zn1_2 1_555 1_555
O2_2 C2_2 1_555 1_555
C1_2 C3_2 1_555 1_555
N3 C5_2 1_555 1_555
C2_2 O1_2 1_555 1_555
C3_2 N1_2 1_555 1_555
H2_2 C3_2 1_555 1_555
H3_2 C3_2 1_555 1_555
C4_2 N1_2 1_555 1_555
H4_2 C4_2 1_555 1_555
C5_2 H5_2 1_555 1_555
C6_2 C1_2 1_555 1_555
H6_2 C6_2 1_555 1_555
C7_2 C1_2 1_555 1_555
H7_2 C7_2 1_555 1_555
C8_2 N3 1_555 1_555
H8_2 C8_2 1_555 1_555
C9_2 C4_2 1_555 1_555
H9_2 C9_2 1_555 1_555
H10_2 C9_2 1_555 1_555
H11_2 C9_2 1_555 1_555
Zn2_2 O2_2 1_555 1_555
O3 Zn1_2 1_555 1_555
N3_2 Zn1_2 1_555 1_555
C2_2 C4_2 1_555 1_555
C5_2 C7_2 1_555 1_555
C6_2 C8_2 1_555 1_555
H1_3 N1_3 1_555 1_555
O2_3 C2_3 1_555 1_555
C1_3 C3_3 1_555 1_555
N3_2 C5_3 1_555 1_555
C3_3 N1_3 1_555 1_555
H2_3 C3_3 1_555 1_555
H3_3 C3_3 1_555 1_555
C4_3 N1_3 1_555 1_555
H4_3 C4_3 1_555 1_555
C5_3 H5_3 1_555 1_555
C6_3 C1_3 1_555 1_555
H6_3 C6_3 1_555 1_555
C7_3 C1_3 1_555 1_555
H7_3 C7_3 1_555 1_555
C8_3 N3_2 1_555 1_555
H8_3 C8_3 1_555 1_555
C9_3 C4_3 1_555 1_555
H9_3 C9_3 1_555 1_555
H10_3 C9_3 1_555 1_555
H11_3 C9_3 1_555 1_555
Zn3 O2_3 1_555 1_555
C2_3 C4_3 1_555 1_555
C5_3 C7_3 1_555 1_555
C6_3 C8_3 1_555 1_555
Zn2 Br1_3 1_555 1_555
O1_3 Zn2 1_555 1_555
N3_3 Zn2 1_555 1_555
O3 C2_4 1_555 1_555
Zn2_2 Br1_4 1_555 1_555
N1_4 Zn2_2 1_555 1_555
H1_4 N1_4 1_555 1_555
O1_4 Zn2_2 1_555 1_555
C1_4 C3_4 1_555 1_555
N3_3 C5_4 1_555 1_555
C3_4 N1_4 1_555 1_555
H2_4 C3_4 1_555 1_555
H3_4 C3_4 1_555 1_555
C4_4 N1_4 1_555 1_555
H4_4 C4_4 1_555 1_555
C5_4 H5_4 1_555 1_555
C6_4 C1_4 1_555 1_555
H6_4 C6_4 1_555 1_555
C7_4 C1_4 1_555 1_555
H7_4 C7_4 1_555 1_555
C8_4 N3_3 1_555 1_555
H8_4 C8_4 1_555 1_555
C9_4 C4_4 1_555 1_555
H9_4 C9_4 1_555 1_555
H10_4 C9_4 1_555 1_555
H11_4 C9_4 1_555 1_555
N3_4 Zn2_2 1_555 1_555
C5_4 C7_4 1_555 1_555
C6_4 C8_4 1_555 1_555
H1_5 N1_5 1_555 1_555
C1_5 C3_5 1_555 1_555
N3_4 C5_5 1_555 1_555
C3_5 N1_5 1_555 1_555
H2_5 C3_5 1_555 1_555
C6_5 C1_5 1_555 1_555
H6_5 C6_5 1_555 1_555
C8_5 N3_4 1_555 1_555
H8_5 C8_5 1_555 1_555
H9_5 C9_5 1_555 1_555
H11_5 C9_5 1_555 1_555
C6_5 C8_5 1_555 1_555
Zn3 Br1_5 1_555 1_555
Zn1_3 Br1_6 1_555 1_555
O1_6 Zn1_3 1_555 1_555
O3_3 Zn1_3 1_555 1_555
N3_5 Zn1_3 1_555 1_555
H1_6 N1_6 1_555 1_555
O3_2 C2_5 1_555 1_555
C1_6 C3_6 1_555 1_555
N3_5 C5_6 1_555 1_555
C3_6 N1_6 1_555 1_555
H2_6 C3_6 1_555 1_555
H3_5 C3_6 1_555 1_555
C4_5 N1_6 1_555 1_555
H4_5 C4_5 1_555 1_555
C5_6 H5_5 1_555 1_555
C6_6 C1_6 1_555 1_555
H6_6 C6_6 1_555 1_555
C7_5 C1_6 1_555 1_555
H7_5 C7_5 1_555 1_555
C8_6 N3_5 1_555 1_555
H8_6 C8_6 1_555 1_555
C9_6 C4_5 1_555 1_555
H9_6 C9_6 1_555 1_555
H10_5 C9_6 1_555 1_555
H11_6 C9_6 1_555 1_555
C2_5 C4_5 1_555 1_555
C5_6 C7_5 1_555 1_555
C6_6 C8_6 1_555 1_555
O3_3 C2_6 1_555 1_555
H4_6 C4_6 1_555 1_555
H7_6 C7_6 1_555 1_555
C2_6 C4_6 1_555 1_555

#END
