
###############################################################################
#
# This file contains modified crystal structure data generated from the
# MOF subset of the Cambridge Structural Database (CSD) v543 
# hosted by the Cambridge Crystallographic Data Centre (CCDC).
#
# This work is licensed under the Creative Commons
# Attribution-NonCommercial-ShareAlike 4.0 International License.
# To view a copy of this license, visit
# http://creativecommons.org/licenses/by-nc-sa/4.0/
# or send a letter to
# Creative Commons, PO Box 1866, Mountain View, CA 94042, USA.
#
# CIF created using the CSD Python API on 29 September 2022
# The structure has been converted into the P1 space group
# The structure has a 3D framework
# The original CSD entry BEPPAP is in the hexagonal crystal system
# The original CSD entry BEPPAP is in a Sohncke space group
# The framework has been calculated to contain at least 10.0% void space
# The void calculation uses a probe of radius 1.32A, grid spacing 0.4
#
###############################################################################

data_BEPPAP
_chemical_formula_moiety         '(C54 H66 Cl6 N12 O12 Zn5)n'
_symmetry_cell_setting           triclinic
_symmetry_space_group_name_H-M   'P 1'
_symmetry_Int_Tables_number      1
_space_group_name_Hall           'P 1'
loop_
_symmetry_equiv_pos_site_id
_symmetry_equiv_pos_as_xyz
1 x,y,z
_cell_length_a                   17.4587(2)
_cell_length_b                   17.4587(2)
_cell_length_c                   10.24475(14)
_cell_angle_alpha                90
_cell_angle_beta                 90
_cell_angle_gamma                120
_cell_volume                     2704.31
loop_
_atom_site_label
_atom_site_type_symbol
_atom_site_fract_x
_atom_site_fract_y
_atom_site_fract_z
Zn1 Zn 0.54190(3) 0.07503(2) 0.15431(4)
Cl1 Cl 0.68751(7) 0.12589(8) 0.17027(15)
O1 O 0.50886(17) 0.02240(14) 0.3512(2)
N3 N 0.50310(32) 0.16469(18) 0.1989(3)
N1 N 0.45120(19) 0.94237(18) 0.1229(3)
H1 H 0.4645 0.9259 0.0458
N2 N 0.16469(18) 0.66159(27) 0.0322(3)
C1 C 0.5349(4) 0.8720(3) 0.1978(4)
H2 H 0.5214 0.8366 0.1203
H3 H 0.5422 0.8410 0.2699
H4 H 0.5887 0.9271 0.1847
C2 C 0.4595(3) 0.8899(2) 0.2270(3)
H5 H 0.4041 0.8334 0.2340
C3 C 0.2147(3) 0.7937(4) 0.1570(4)
H6 H 0.2043 0.8233 0.2239
C4 C 0.1538(2) 0.7069(4) 0.1298(4)
H7 H 0.1031 0.6784 0.1808
C5 C 0.4770(2) 0.9399(2) 0.3558(3)
C6 C 0.2920(3) 0.8368(4) 0.0837(4)
O2 O 0.4608(2) 0.89451(17) 0.4580(2)
C9 C 0.3624(2) 0.9315(2) 0.1122(4)
H10 H 0.3624 0.9694 0.0429
H11 H 0.3480 0.9503 0.1931
Zn2 Zn 0.45810(3) 0.92497(2) 0.65431(4)
C7 C 0.3039(2) 0.7891(4) 0.9829(4)
H8 H 0.3548 0.8154 0.9320
C8 C 0.2391(2) 0.7030(4) 0.9609(4)
H9 H 0.2471 0.6720 0.8935
Zn3 Zn 0.07503(2) 0.53313(4) 0.98764(4)
Zn1_2 Zn 0.46687(4) 0.54190(3) 0.32098(4)
Cl1_2 Cl 0.56162(11) 0.68751(7) 0.33694(15)
N1_2 N 0.50883(26) 0.45120(19) 0.2896(3)
H1_2 H 0.5386 0.4645 0.2125
O1_2 O 0.48646(22) 0.50886(17) 0.5179(2)
C1_2 C 0.6629(5) 0.5349(4) 0.3645(4)
H2_2 H 0.6848 0.5214 0.2870
H3_2 H 0.7012 0.5422 0.4366
H4_2 H 0.6616 0.5887 0.3514
C2_2 C 0.5696(4) 0.4595(3) 0.3937(3)
H5_2 H 0.5707 0.4041 0.4007
C3_2 C 0.4210(5) 0.2147(3) 0.3237(4)
H6_2 H 0.3810 0.2043 0.3906
C4_2 C 0.4469(4) 0.1538(2) 0.2965(4)
H7_2 H 0.4247 0.1031 0.3475
C5_2 C 0.5371(3) 0.4770(2) 0.5225(3)
C6_2 C 0.4552(5) 0.2920(3) 0.2504(4)
C7_2 C 0.5148(4) 0.3039(2) 0.1496(4)
H8_2 H 0.5394 0.3548 0.0987
C8_2 C 0.5361(4) 0.2391(2) 0.1276(4)
H9_2 H 0.5751 0.2471 0.0602
O2_2 O 0.56629(26) 0.4608(2) 0.6247(2)
C9_2 C 0.4309(3) 0.3624(2) 0.2789(4)
H10_2 H 0.3930 0.3624 0.2096
H11_2 H 0.3977 0.3480 0.3598
Zn2_2 Zn 0.53313(4) 0.45810(3) 0.82098(4)
N3_2 N 0.33841(37) 0.50310(32) 0.3655(3)
O3 O 0.43371(26) 0.5392(2) 0.1247(2)
N1_3 N 0.05763(18) 0.50883(26) 0.4562(3)
H1_3 H 0.0741 0.5386 0.3791
C1_3 C 0.1280(3) 0.6629(5) 0.5311(4)
H2_3 H 0.1634 0.6848 0.4536
H3_3 H 0.1590 0.7012 0.6032
H4_3 H 0.0729 0.6616 0.5180
C2_3 C 0.1101(2) 0.5696(4) 0.5603(3)
H5_3 H 0.1666 0.5707 0.5673
C3_3 C 0.2063(4) 0.4210(5) 0.4903(4)
H6_3 H 0.1767 0.3810 0.5572
C4_3 C 0.2931(4) 0.4469(4) 0.4631(4)
H7_3 H 0.3216 0.4247 0.5141
C5_3 C 0.0601(2) 0.5371(3) 0.6891(3)
C6_3 C 0.1632(4) 0.4552(5) 0.4170(4)
C7_3 C 0.2109(4) 0.5148(4) 0.3162(4)
H8_3 H 0.1846 0.5394 0.2653
C8_3 C 0.2970(4) 0.5361(4) 0.2942(4)
H9_3 H 0.3280 0.5751 0.2268
O2_3 O 0.10549(17) 0.56629(26) 0.7913(2)
C9_3 C 0.0685(2) 0.4309(3) 0.4455(4)
H10_3 H 0.0306 0.3930 0.3762
H11_3 H 0.0497 0.3977 0.5264
Cl1_3 Cl 0.31249(7) 0.87411(8) 0.67027(15)
O1_3 O 0.49114(17) 0.97760(14) 0.8512(2)
N3_3 N 0.49690(32) 0.83531(18) 0.6989(3)
O1_4 O 0.51354(22) 0.49114(17) 0.0179(2)
C5_4 C 0.4629(3) 0.5230(2) 0.0225(3)
Cl1_4 Cl 0.43838(11) 0.31249(7) 0.83694(15)
N1_4 N 0.49117(26) 0.54880(19) 0.7896(3)
H1_4 H 0.4614 0.5355 0.7125
C1_4 C 0.3371(5) 0.4651(4) 0.8645(4)
H2_4 H 0.3152 0.4786 0.7870
H3_4 H 0.2988 0.4578 0.9366
H4_4 H 0.3384 0.4113 0.8514
C2_4 C 0.4304(4) 0.5405(3) 0.8937(3)
H5_4 H 0.4293 0.5959 0.9007
C3_4 C 0.5790(5) 0.7853(3) 0.8237(4)
H6_4 H 0.6190 0.7957 0.8906
C4_4 C 0.5531(4) 0.8462(2) 0.7965(4)
H7_4 H 0.5753 0.8969 0.8475
C6_4 C 0.5448(5) 0.7080(3) 0.7504(4)
C7_4 C 0.4852(4) 0.6961(2) 0.6496(4)
H8_4 H 0.4606 0.6452 0.5987
C8_4 C 0.4639(4) 0.7609(2) 0.6276(4)
H9_4 H 0.4249 0.7529 0.5602
C9_4 C 0.5691(3) 0.6376(2) 0.7789(4)
H10_4 H 0.6070 0.6376 0.7096
H11_4 H 0.6023 0.6520 0.8598
N3_4 N 0.66159(37) 0.49690(32) 0.8655(3)
Cl1_5 Cl 0.12589(8) 0.43838(11) 0.00360(15)
O1_5 O 0.02240(14) 0.51354(22) 0.1845(2)
N1_5 N 0.94237(18) 0.49117(26) 0.9562(3)
H1_5 H 0.9259 0.4614 0.8791
H2_5 H 0.8366 0.3152 0.9536
C3_5 C 0.7937(4) 0.5790(5) 0.9903(4)
C4_5 C 0.7069(4) 0.5531(4) 0.9631(4)
C6_5 C 0.8368(4) 0.5448(5) 0.9170(4)
C7_5 C 0.7891(4) 0.4852(4) 0.8162(4)
H8_5 H 0.8154 0.4606 0.7653
C8_5 C 0.7030(4) 0.4639(4) 0.7942(4)
H9_5 H 0.6720 0.4249 0.7268
C9_5 C 0.9315(2) 0.5691(3) 0.9455(4)
H10_5 H 0.9694 0.6070 0.8762
O3_2 O 0.5392(2) 0.10549(17) 0.9580(2)
Zn1_3 Zn 0.92497(2) 0.46687(4) 0.48764(4)
Cl1_6 Cl 0.87411(8) 0.56162(11) 0.50360(15)
O1_6 O 0.97760(14) 0.48646(22) 0.6845(2)
N3_5 N 0.83531(18) 0.33841(37) 0.5322(3)
O3_3 O 0.89451(17) 0.43371(26) 0.2913(2)
N1_6 N 0.54880(19) 0.05763(18) 0.6229(3)
H1_6 H 0.5355 0.0741 0.5458
C1_5 C 0.4651(4) 0.1280(3) 0.6978(4)
H2_6 H 0.4786 0.1634 0.6203
H3_5 H 0.4578 0.1590 0.7699
H4_5 H 0.4113 0.0729 0.6847
C2_5 C 0.5405(3) 0.1101(2) 0.7270(3)
H5_5 H 0.5959 0.1666 0.7340
C3_6 C 0.7853(3) 0.2063(4) 0.6570(4)
H6_5 H 0.7957 0.1767 0.7239
C4_6 C 0.8462(2) 0.2931(4) 0.6298(4)
H7_5 H 0.8969 0.3216 0.6808
C5_5 C 0.5230(2) 0.0601(2) 0.8558(3)
C6_6 C 0.7080(3) 0.1632(4) 0.5837(4)
C7_6 C 0.6961(2) 0.2109(4) 0.4829(4)
H8_6 H 0.6452 0.1846 0.4320
C8_6 C 0.7609(2) 0.2970(4) 0.4609(4)
H9_6 H 0.7529 0.3280 0.3935
C9_6 C 0.6376(2) 0.0685(2) 0.6122(4)
H10_6 H 0.6376 0.0306 0.5429
H11_5 H 0.6520 0.0497 0.6931
C1_6 C 0.8720(3) 0.3371(5) 0.0311(4)
H3_6 H 0.8410 0.2988 0.1032
H4_6 H 0.9271 0.3384 0.0180
C2_6 C 0.8899(2) 0.4304(4) 0.0603(3)
H5_6 H 0.8334 0.4293 0.0673
H6_6 H 0.8233 0.6190 0.0572
H7_6 H 0.6784 0.5753 0.0141
C5_6 C 0.9399(2) 0.4629(3) 0.1891(3)
H11_6 H 0.9503 0.6023 0.0264
loop_
_geom_bond_atom_site_label_1
_geom_bond_atom_site_label_2
_geom_bond_site_symmetry_1
_geom_bond_site_symmetry_2
Zn1 Cl1 1_555 1_555
O1 Zn1 1_555 1_555
N3 Zn1 1_555 1_555
H1 N1 1_555 1_555
N2 C4 1_555 1_555
C1 H2 1_555 1_555
H3 C1 1_555 1_555
H4 C1 1_555 1_555
C2 N1 1_555 1_555
H5 C2 1_555 1_555
C3 H6 1_555 1_555
C4 C3 1_555 1_555
H7 C4 1_555 1_555
C6 C3 1_555 1_555
O2 C5 1_555 1_555
C9 N1 1_555 1_555
H10 C9 1_555 1_555
H11 C9 1_555 1_555
Zn2 O2 1_555 1_555
C1 C2 1_555 1_555
C2 C5 1_555 1_555
C6 C9 1_555 1_555
H8 C7 1_555 1_555
H9 C8 1_555 1_555
C7 C8 1_555 1_555
Zn1_2 Cl1_2 1_555 1_555
N1_2 Zn1_2 1_555 1_555
H1_2 N1_2 1_555 1_555
O1_2 Zn1_2 1_555 1_555
N3 C4_2 1_555 1_555
C1_2 H2_2 1_555 1_555
H3_2 C1_2 1_555 1_555
H4_2 C1_2 1_555 1_555
C2_2 N1_2 1_555 1_555
H5_2 C2_2 1_555 1_555
C3_2 H6_2 1_555 1_555
C4_2 C3_2 1_555 1_555
H7_2 C4_2 1_555 1_555
C5_2 O1_2 1_555 1_555
C6_2 C3_2 1_555 1_555
C7_2 C6_2 1_555 1_555
H8_2 C7_2 1_555 1_555
C8_2 N3 1_555 1_555
H9_2 C8_2 1_555 1_555
O2_2 C5_2 1_555 1_555
C9_2 N1_2 1_555 1_555
H10_2 C9_2 1_555 1_555
H11_2 C9_2 1_555 1_555
Zn2_2 O2_2 1_555 1_555
N3_2 Zn1_2 1_555 1_555
O3 Zn1_2 1_555 1_555
C1_2 C2_2 1_555 1_555
C2_2 C5_2 1_555 1_555
C6_2 C9_2 1_555 1_555
C7_2 C8_2 1_555 1_555
H1_3 N1_3 1_555 1_555
N3_2 C4_3 1_555 1_555
C1_3 H2_3 1_555 1_555
H3_3 C1_3 1_555 1_555
H4_3 C1_3 1_555 1_555
C2_3 N1_3 1_555 1_555
H5_3 C2_3 1_555 1_555
C3_3 H6_3 1_555 1_555
C4_3 C3_3 1_555 1_555
H7_3 C4_3 1_555 1_555
C6_3 C3_3 1_555 1_555
C7_3 C6_3 1_555 1_555
H8_3 C7_3 1_555 1_555
C8_3 N3_2 1_555 1_555
H9_3 C8_3 1_555 1_555
O2_3 C5_3 1_555 1_555
C9_3 N1_3 1_555 1_555
H10_3 C9_3 1_555 1_555
H11_3 C9_3 1_555 1_555
Zn3 O2_3 1_555 1_555
C1_3 C2_3 1_555 1_555
C2_3 C5_3 1_555 1_555
C6_3 C9_3 1_555 1_555
C7_3 C8_3 1_555 1_555
Zn2 Cl1_3 1_555 1_555
O1_3 Zn2 1_555 1_555
N3_3 Zn2 1_555 1_555
C5_4 O1_4 1_555 1_555
O3 C5_4 1_555 1_555
Zn2_2 Cl1_4 1_555 1_555
N1_4 Zn2_2 1_555 1_555
H1_4 N1_4 1_555 1_555
N3_3 C4_4 1_555 1_555
C1_4 H2_4 1_555 1_555
H3_4 C1_4 1_555 1_555
H4_4 C1_4 1_555 1_555
C2_4 N1_4 1_555 1_555
H5_4 C2_4 1_555 1_555
C3_4 H6_4 1_555 1_555
C4_4 C3_4 1_555 1_555
H7_4 C4_4 1_555 1_555
C6_4 C3_4 1_555 1_555
C7_4 C6_4 1_555 1_555
H8_4 C7_4 1_555 1_555
C8_4 N3_3 1_555 1_555
H9_4 C8_4 1_555 1_555
C9_4 N1_4 1_555 1_555
H10_4 C9_4 1_555 1_555
H11_4 C9_4 1_555 1_555
N3_4 Zn2_2 1_555 1_555
C1_4 C2_4 1_555 1_555
C6_4 C9_4 1_555 1_555
C7_4 C8_4 1_555 1_555
H1_5 N1_5 1_555 1_555
N3_4 C4_5 1_555 1_555
C4_5 C3_5 1_555 1_555
C6_5 C3_5 1_555 1_555
C7_5 C6_5 1_555 1_555
H8_5 C7_5 1_555 1_555
C8_5 N3_4 1_555 1_555
H9_5 C8_5 1_555 1_555
C9_5 N1_5 1_555 1_555
H10_5 C9_5 1_555 1_555
C6_5 C9_5 1_555 1_555
C7_5 C8_5 1_555 1_555
Zn1_3 Cl1_6 1_555 1_555
O1_6 Zn1_3 1_555 1_555
N3_5 Zn1_3 1_555 1_555
O3_3 Zn1_3 1_555 1_555
H1_6 N1_6 1_555 1_555
N3_5 C4_6 1_555 1_555
C1_5 H2_6 1_555 1_555
H3_5 C1_5 1_555 1_555
H4_5 C1_5 1_555 1_555
C2_5 N1_6 1_555 1_555
H5_5 C2_5 1_555 1_555
C3_6 H6_5 1_555 1_555
C4_6 C3_6 1_555 1_555
H7_5 C4_6 1_555 1_555
C6_6 C3_6 1_555 1_555
C7_6 C6_6 1_555 1_555
H8_6 C7_6 1_555 1_555
C8_6 N3_5 1_555 1_555
H9_6 C8_6 1_555 1_555
O3_2 C5_5 1_555 1_555
C9_6 N1_6 1_555 1_555
H10_6 C9_6 1_555 1_555
H11_5 C9_6 1_555 1_555
C1_5 C2_5 1_555 1_555
C2_5 C5_5 1_555 1_555
C6_6 C9_6 1_555 1_555
C7_6 C8_6 1_555 1_555
H3_6 C1_6 1_555 1_555
H4_6 C1_6 1_555 1_555
H5_6 C2_6 1_555 1_555
O3_3 C5_6 1_555 1_555
C1_6 C2_6 1_555 1_555
C2_6 C5_6 1_555 1_555

#END
