
###############################################################################
#
# This file contains modified crystal structure data generated from the
# MOF subset of the Cambridge Structural Database (CSD) v543 
# hosted by the Cambridge Crystallographic Data Centre (CCDC).
#
# This work is licensed under the Creative Commons
# Attribution-NonCommercial-ShareAlike 4.0 International License.
# To view a copy of this license, visit
# http://creativecommons.org/licenses/by-nc-sa/4.0/
# or send a letter to
# Creative Commons, PO Box 1866, Mountain View, CA 94042, USA.
#
# CIF created using the CSD Python API on 29 September 2022
# The structure has been converted into the P1 space group
# The structure has a 3D framework
# The original CSD entry BEPPIX is in the hexagonal crystal system
# The original CSD entry BEPPIX is in a Sohncke space group
# The framework has been calculated to contain at least 10.0% void space
# The void calculation uses a probe of radius 1.32A, grid spacing 0.4
#
###############################################################################

data_BEPPIX
_chemical_formula_moiety         '(C78 H108 N12 O23 Zn6)n'
_symmetry_cell_setting           triclinic
_symmetry_space_group_name_H-M   'P 1'
_symmetry_Int_Tables_number      1
_space_group_name_Hall           'P 1'
loop_
_symmetry_equiv_pos_site_id
_symmetry_equiv_pos_as_xyz
1 x,y,z
_cell_length_a                   17.4542(6)
_cell_length_b                   17.4542(6)
_cell_length_c                   10.3953(3)
_cell_angle_alpha                90
_cell_angle_beta                 90
_cell_angle_gamma                120
_cell_volume                     2742.63
loop_
_atom_site_label
_atom_site_type_symbol
_atom_site_fract_x
_atom_site_fract_y
_atom_site_fract_z
Zn1 Zn 0.53338(4) 0.46204(4) 0.11541(8)
N1 N 0.1556(5) 0.4853(4) 0.2422(5)
O3 O 0.6603(3) 0.5413(3) 0.0993(5)
N2 N 0.4353(3) 0.4953(3) 0.1377(4)
H1 H 0.4466 0.5276 0.2110
C2 C 0.2080(4) 0.4122(4) 0.1044(7)
H2 H 0.2012 0.3805 0.0293
C3 C 0.4335(4) 0.5496(4) 0.0277(5)
H3 H 0.3714 0.5291 0.0075
C4 C 0.1489(6) 0.4413(4) 0.1342(6)
H4 H 0.1036 0.4298 0.0768
C5 C 0.2768(4) 0.4311(5) 0.1880(6)
C6 C 0.3500(4) 0.4123(5) 0.1537(7)
H5 H 0.3555 0.3769 0.2211
H6 H 0.3350 0.3785 0.0744
C7 C 0.2797(4) 0.4725(6) 0.3031(7)
H7 H 0.3222 0.4817 0.3645
C8 C 0.2193(8) 0.4999(6) 0.3264(7)
H8 H 0.2232 0.5295 0.4027
C9 C 0.5733(5) 0.6849(5) 0.0991(8)
H9 H 0.5766 0.6473 0.1637
H10 H 0.5957 0.7433 0.1335
H11 H 0.6081 0.6875 0.0260
O4 O 0.6957(4) 0.6237(4) 0.2884(10)
C10 C 0.4779(5) 0.6479(4) 0.0583(6)
C11 C 0.4258(6) 0.6701(5) 0.1542(8)
H13 H 0.3667 0.6482 0.1226
H14 H 0.4542 0.7331 0.1648
H15 H 0.4235 0.6431 0.2355
C12 C 0.7084(6) 0.6042(8) 0.1662(11)
C13 C 0.7935(8) 0.6744(9) 0.0897(15)
H16 H 0.8217 0.7293 0.1362
H17 H 0.7763 0.6838 0.0061
H18 H 0.8339 0.6526 0.0806
Zn2 Zn 0.07134(6) 0.53338(4) 0.28208(8)
O5 O 0.5339(3) 0.4346(3) 0.3073(4)
N3 N 0.4853(4) 0.3297(6) 0.0755(5)
O1 O 0.4661(3) 0.5654(3) 0.8073(4)
O2 O 0.5140(3) 0.4885(3) 0.9190(4)
C1 C 0.4751(4) 0.5327(4) 0.9093(6)
H12 H 0.4793 0.6777 0.9777
Zn3 Zn 0.46662(4) 0.53796(4) 0.61541(8)
O2_2 O 0.0255(4) 0.5140(3) 0.0857(4)
O3_2 O 0.1190(4) 0.6603(3) 0.2660(5)
O4_2 O 0.0720(6) 0.6957(4) 0.4551(10)
C12_2 C 0.1042(10) 0.7084(6) 0.3329(11)
C13_2 C 0.1191(12) 0.7935(8) 0.2564(15)
H16_2 H 0.0924 0.8217 0.3029
H17_2 H 0.0925 0.7763 0.1728
H18_2 H 0.1813 0.8339 0.2473
O5_2 O 0.0993(4) 0.5339(3) 0.4740(4)
O1_2 O 0.9007(4) 0.4661(3) 0.9740(4)
Zn3_2 Zn 0.92866(6) 0.46662(4) 0.78208(8)
O1_3 O 0.4346(3) 0.9007(4) 0.1406(4)
C1_2 C 0.4673(4) 0.9424(6) 0.2426(6)
N1_2 N 0.5147(4) 0.6703(6) 0.5755(5)
N2_2 N 0.5047(3) 0.9400(4) 0.4710(4)
H1_2 H 0.4724 0.9190 0.5443
C2_2 C 0.5878(4) 0.7958(6) 0.4377(7)
H2_2 H 0.6195 0.8207 0.3626
C3_2 C 0.4504(4) 0.8839(6) 0.3610(5)
H3_2 H 0.4709 0.8423 0.3408
C4_2 C 0.5587(4) 0.7076(7) 0.4675(6)
H4_2 H 0.5702 0.6738 0.4101
C5_2 C 0.5689(5) 0.8457(6) 0.5213(6)
C6_2 C 0.5877(5) 0.9377(6) 0.4870(7)
H5_2 H 0.6231 0.9786 0.5544
H6_2 H 0.6215 0.9565 0.4077
C7_2 C 0.5275(6) 0.8072(7) 0.6364(7)
H7_2 H 0.5183 0.8405 0.6978
C8_2 C 0.5001(6) 0.7194(10) 0.6597(7)
H8_2 H 0.4705 0.6937 0.7360
C9_2 C 0.3151(5) 0.8884(7) 0.4324(8)
H9_2 H 0.3527 0.9293 0.4970
H10_2 H 0.2567 0.8524 0.4668
H11_2 H 0.3125 0.9206 0.3593
C10_2 C 0.3521(4) 0.8300(6) 0.3916(6)
H12_2 H 0.3223 0.8016 0.3110
C11_2 C 0.3299(5) 0.7557(8) 0.4875(8)
H13_2 H 0.3518 0.7185 0.4559
H14_2 H 0.2669 0.7211 0.4981
H15_2 H 0.3569 0.7804 0.5688
Zn3_3 Zn 0.46204(4) 0.92866(6) 0.94874(8)
O2_3 O 0.4860(3) 0.5115(3) 0.4190(4)
C1_3 C 0.5249(4) 0.4673(4) 0.4093(6)
N1_3 N 0.8444(5) 0.5147(4) 0.7422(5)
O3_3 O 0.3397(3) 0.4587(3) 0.5993(5)
N2_3 N 0.5647(3) 0.5047(3) 0.6377(4)
H1_3 H 0.5534 0.4724 0.7110
C2_3 C 0.7920(4) 0.5878(4) 0.6044(7)
H2_3 H 0.7988 0.6195 0.5293
C3_3 C 0.5665(4) 0.4504(4) 0.5277(5)
H3_3 H 0.6286 0.4709 0.5075
C4_3 C 0.8511(6) 0.5587(4) 0.6342(6)
H4_3 H 0.8964 0.5702 0.5768
C5_3 C 0.7232(4) 0.5689(5) 0.6880(6)
C6_3 C 0.6500(4) 0.5877(5) 0.6537(7)
H5_3 H 0.6445 0.6231 0.7211
H6_3 H 0.6650 0.6215 0.5744
C7_3 C 0.7203(4) 0.5275(6) 0.8031(7)
H7_3 H 0.6778 0.5183 0.8645
C8_3 C 0.7807(8) 0.5001(6) 0.8264(7)
H8_3 H 0.7768 0.4705 0.9027
C9_3 C 0.4267(5) 0.3151(5) 0.5991(8)
H9_3 H 0.4234 0.3527 0.6637
H10_3 H 0.4043 0.2567 0.6335
H11_3 H 0.3919 0.3125 0.5260
O4_3 O 0.3043(4) 0.3763(4) 0.7884(10)
C10_3 C 0.5221(5) 0.3521(4) 0.5583(6)
H12_3 H 0.5207 0.3223 0.4777
C11_3 C 0.5742(6) 0.3299(5) 0.6542(8)
H13_3 H 0.6333 0.3518 0.6226
H14_3 H 0.5458 0.2669 0.6648
H15_3 H 0.5765 0.3569 0.7355
C12_3 C 0.2916(6) 0.3958(8) 0.6662(11)
C13_3 C 0.2065(8) 0.3256(9) 0.5897(15)
H16_3 H 0.1783 0.2707 0.6362
H17_3 H 0.2237 0.3162 0.5061
H18_3 H 0.1661 0.3474 0.5806
C1_4 C 0.0576(6) 0.5249(4) 0.5760(6)
N1_4 N 0.3297(6) 0.8444(5) 0.9089(5)
N2_4 N 0.0600(4) 0.5647(3) 0.8044(4)
H1_4 H 0.0810 0.5534 0.8777
C2_4 C 0.2042(6) 0.7920(4) 0.7711(7)
H2_4 H 0.1793 0.7988 0.6960
C3_4 C 0.1161(6) 0.5665(4) 0.6944(5)
H3_4 H 0.1577 0.6286 0.6742
C4_4 C 0.2924(7) 0.8511(6) 0.8009(6)
H4_4 H 0.3262 0.8964 0.7435
C5_4 C 0.1543(6) 0.7232(4) 0.8547(6)
C6_4 C 0.0623(6) 0.6500(4) 0.8204(7)
H5_4 H 0.0214 0.6445 0.8878
H6_4 H 0.0435 0.6650 0.7411
C7_4 C 0.1928(7) 0.7203(4) 0.9698(7)
C8_4 C 0.2806(10) 0.7807(8) 0.9931(7)
C9_4 C 0.1116(7) 0.4267(5) 0.7658(8)
H9_4 H 0.0707 0.4234 0.8304
H10_4 H 0.1476 0.4043 0.8002
H11_4 H 0.0794 0.3919 0.6927
C10_4 C 0.1700(6) 0.5221(5) 0.7250(6)
H12_4 H 0.1984 0.5207 0.6444
C11_4 C 0.2443(8) 0.5742(6) 0.8209(8)
H13_4 H 0.2815 0.6333 0.7893
H14_4 H 0.2789 0.5458 0.8315
H15_4 H 0.2196 0.5765 0.9022
O2_4 O 0.9745(4) 0.4860(3) 0.5857(4)
O3_4 O 0.8810(4) 0.3397(3) 0.7660(5)
O4_4 O 0.9280(6) 0.3043(4) 0.9551(10)
C12_4 C 0.8958(10) 0.2916(6) 0.8329(11)
C13_4 C 0.8809(12) 0.2065(8) 0.7564(15)
H16_4 H 0.9076 0.1783 0.8029
H17_4 H 0.9075 0.2237 0.6728
H18_4 H 0.8187 0.1661 0.7473
H1_5 H 0.5276 0.0810 0.0443
C5_5 C 0.4311(5) 0.1543(6) 0.0213(6)
H5_5 H 0.3769 0.0214 0.0544
C7_5 C 0.4725(6) 0.1928(7) 0.1364(7)
H7_4 H 0.4817 0.1595 0.1978
C8_5 C 0.4999(6) 0.2806(10) 0.1597(7)
H8_4 H 0.5295 0.3063 0.2360
H15_5 H 0.6431 0.2196 0.0688
O4_5 O 0.6237(4) 0.9280(6) 0.1217(10)
O2_5 O 0.4885(3) 0.9745(4) 0.7523(4)
O3_5 O 0.5413(3) 0.8810(4) 0.9326(5)
C12_5 C 0.6042(8) 0.8958(10) 0.9995(11)
C13_5 C 0.6744(9) 0.8809(12) 0.9230(15)
H16_5 H 0.7293 0.9076 0.9695
H17_5 H 0.6838 0.9075 0.8394
H18_5 H 0.6526 0.8187 0.9139
C1_5 C 0.9424(6) 0.4751(4) 0.0760(6)
N1_5 N 0.6703(6) 0.1556(5) 0.4089(5)
N2_5 N 0.9400(4) 0.4353(3) 0.3044(4)
H1_6 H 0.9190 0.4466 0.3777
C2_5 C 0.7958(6) 0.2080(4) 0.2711(7)
H2_5 H 0.8207 0.2012 0.1960
C3_5 C 0.8839(6) 0.4335(4) 0.1944(5)
H3_5 H 0.8423 0.3714 0.1742
C4_5 C 0.7076(7) 0.1489(6) 0.3009(6)
H4_5 H 0.6738 0.1036 0.2435
C5_6 C 0.8457(6) 0.2768(4) 0.3547(6)
C6_5 C 0.9377(6) 0.3500(4) 0.3204(7)
H5_6 H 0.9786 0.3555 0.3878
H6_5 H 0.9565 0.3350 0.2411
C7_6 C 0.8072(7) 0.2797(4) 0.4698(7)
H7_5 H 0.8405 0.3222 0.5312
C8_6 C 0.7194(10) 0.2193(8) 0.4931(7)
H8_5 H 0.6937 0.2232 0.5694
C9_5 C 0.8884(7) 0.5733(5) 0.2658(8)
H9_5 H 0.9293 0.5766 0.3304
H10_5 H 0.8524 0.5957 0.3002
H11_5 H 0.9206 0.6081 0.1927
C10_5 C 0.8300(6) 0.4779(5) 0.2250(6)
H12_5 H 0.8016 0.4793 0.1444
C11_5 C 0.7557(8) 0.4258(6) 0.3209(8)
H13_5 H 0.7185 0.3667 0.2893
H14_5 H 0.7211 0.4542 0.3315
H15_6 H 0.7804 0.4235 0.4022
Zn2_2 Zn 0.53796(7) 0.07134(6) 0.44874(8)
O2_6 O 0.5115(3) 0.0255(4) 0.2523(4)
O3_6 O 0.4587(3) 0.1190(4) 0.4326(5)
O4_6 O 0.3763(4) 0.0720(6) 0.6217(10)
C12_6 C 0.3958(8) 0.1042(10) 0.4995(11)
C13_6 C 0.3256(9) 0.1191(12) 0.4230(15)
H16_6 H 0.2707 0.0924 0.4695
H17_6 H 0.3162 0.0925 0.3394
H18_6 H 0.3474 0.1813 0.4139
O5_3 O 0.5654(3) 0.0993(4) 0.6406(4)
C1_6 C 0.5327(4) 0.0576(6) 0.7426(6)
N2_6 N 0.4953(3) 0.0600(4) 0.9710(4)
C2_6 C 0.4122(4) 0.2042(6) 0.9377(7)
H2_6 H 0.3805 0.1793 0.8626
C3_6 C 0.5496(4) 0.1161(6) 0.8610(5)
H3_6 H 0.5291 0.1577 0.8408
C4_6 C 0.4413(4) 0.2924(7) 0.9675(6)
H4_6 H 0.4298 0.3262 0.9101
C6_6 C 0.4123(5) 0.0623(6) 0.9870(7)
H6_6 H 0.3785 0.0435 0.9077
C9_6 C 0.6849(5) 0.1116(7) 0.9324(8)
H9_6 H 0.6473 0.0707 0.9970
H10_6 H 0.7433 0.1476 0.9668
H11_6 H 0.6875 0.0794 0.8593
C10_6 C 0.6479(4) 0.1700(6) 0.8916(6)
H12_6 H 0.6777 0.1984 0.8110
C11_6 C 0.6701(5) 0.2443(8) 0.9875(8)
H13_6 H 0.6482 0.2815 0.9559
H14_6 H 0.7331 0.2789 0.9981
H7_6 H 0.1595 0.6778 0.0312
H8_6 H 0.3063 0.7768 0.0694
loop_
_geom_bond_atom_site_label_1
_geom_bond_atom_site_label_2
_geom_bond_site_symmetry_1
_geom_bond_site_symmetry_2
N1 C4 1_555 1_555
O3 Zn1 1_555 1_555
N2 Zn1 1_555 1_555
H1 N2 1_555 1_555
C2 H2 1_555 1_555
C3 N2 1_555 1_555
H3 C3 1_555 1_555
C4 C2 1_555 1_555
H4 C4 1_555 1_555
C5 C2 1_555 1_555
C6 N2 1_555 1_555
H5 C6 1_555 1_555
H6 C6 1_555 1_555
C7 C5 1_555 1_555
H7 C7 1_555 1_555
C8 N1 1_555 1_555
H8 C8 1_555 1_555
C9 H9 1_555 1_555
H10 C9 1_555 1_555
H11 C9 1_555 1_555
O4 C12 1_555 1_555
C10 C3 1_555 1_555
C11 C10 1_555 1_555
H13 C11 1_555 1_555
H14 C11 1_555 1_555
H15 C11 1_555 1_555
C12 O3 1_555 1_555
C13 C12 1_555 1_555
H16 C13 1_555 1_555
H17 C13 1_555 1_555
H18 C13 1_555 1_555
Zn2 N1 1_555 1_555
O5 Zn1 1_555 1_555
N3 Zn1 1_555 1_555
C5 C6 1_555 1_555
C7 C8 1_555 1_555
C9 C10 1_555 1_555
O1 C1 1_555 1_555
O2 C1 1_555 1_555
Zn3 O1 1_555 1_555
Zn2 O2_2 1_555 1_555
O3_2 Zn2 1_555 1_555
O4_2 C12_2 1_555 1_555
C12_2 O3_2 1_555 1_555
C13_2 C12_2 1_555 1_555
H16_2 C13_2 1_555 1_555
H17_2 C13_2 1_555 1_555
H18_2 C13_2 1_555 1_555
O5_2 Zn2 1_555 1_555
Zn3_2 O1_2 1_555 1_555
O1_3 C1_2 1_555 1_555
C1_2 C3_2 1_555 1_555
N1_2 C4_2 1_555 1_555
H1_2 N2_2 1_555 1_555
C2_2 H2_2 1_555 1_555
C3_2 N2_2 1_555 1_555
H3_2 C3_2 1_555 1_555
C4_2 C2_2 1_555 1_555
H4_2 C4_2 1_555 1_555
C5_2 C2_2 1_555 1_555
C6_2 N2_2 1_555 1_555
H5_2 C6_2 1_555 1_555
H6_2 C6_2 1_555 1_555
C7_2 C5_2 1_555 1_555
H7_2 C7_2 1_555 1_555
C8_2 N1_2 1_555 1_555
H8_2 C8_2 1_555 1_555
C9_2 H9_2 1_555 1_555
H10_2 C9_2 1_555 1_555
H11_2 C9_2 1_555 1_555
C10_2 C3_2 1_555 1_555
H12_2 C10_2 1_555 1_555
C11_2 C10_2 1_555 1_555
H13_2 C11_2 1_555 1_555
H14_2 C11_2 1_555 1_555
H15_2 C11_2 1_555 1_555
Zn3 N1_2 1_555 1_555
C5_2 C6_2 1_555 1_555
C7_2 C8_2 1_555 1_555
C9_2 C10_2 1_555 1_555
Zn3 O2_3 1_555 1_555
O5 C1_3 1_555 1_555
O2_3 C1_3 1_555 1_555
C1_3 C3_3 1_555 1_555
N1_3 C4_3 1_555 1_555
O3_3 Zn3 1_555 1_555
N2_3 Zn3 1_555 1_555
H1_3 N2_3 1_555 1_555
C2_3 H2_3 1_555 1_555
C3_3 N2_3 1_555 1_555
H3_3 C3_3 1_555 1_555
C4_3 C2_3 1_555 1_555
H4_3 C4_3 1_555 1_555
C5_3 C2_3 1_555 1_555
C6_3 N2_3 1_555 1_555
H5_3 C6_3 1_555 1_555
H6_3 C6_3 1_555 1_555
C7_3 C5_3 1_555 1_555
H7_3 C7_3 1_555 1_555
C8_3 N1_3 1_555 1_555
H8_3 C8_3 1_555 1_555
C9_3 H9_3 1_555 1_555
H10_3 C9_3 1_555 1_555
H11_3 C9_3 1_555 1_555
O4_3 C12_3 1_555 1_555
C10_3 C3_3 1_555 1_555
H12_3 C10_3 1_555 1_555
C11_3 C10_3 1_555 1_555
H13_3 C11_3 1_555 1_555
H14_3 C11_3 1_555 1_555
H15_3 C11_3 1_555 1_555
C12_3 O3_3 1_555 1_555
C13_3 C12_3 1_555 1_555
H16_3 C13_3 1_555 1_555
H17_3 C13_3 1_555 1_555
H18_3 C13_3 1_555 1_555
Zn3_2 N1_3 1_555 1_555
C5_3 C6_3 1_555 1_555
C7_3 C8_3 1_555 1_555
C9_3 C10_3 1_555 1_555
O5_2 C1_4 1_555 1_555
C1_4 C3_4 1_555 1_555
N1_4 C4_4 1_555 1_555
H1_4 N2_4 1_555 1_555
C2_4 H2_4 1_555 1_555
C3_4 N2_4 1_555 1_555
H3_4 C3_4 1_555 1_555
C4_4 C2_4 1_555 1_555
H4_4 C4_4 1_555 1_555
C5_4 C2_4 1_555 1_555
C6_4 N2_4 1_555 1_555
H5_4 C6_4 1_555 1_555
H6_4 C6_4 1_555 1_555
C7_4 C5_4 1_555 1_555
C8_4 N1_4 1_555 1_555
C9_4 H9_4 1_555 1_555
H10_4 C9_4 1_555 1_555
H11_4 C9_4 1_555 1_555
C10_4 C3_4 1_555 1_555
H12_4 C10_4 1_555 1_555
C11_4 C10_4 1_555 1_555
H13_4 C11_4 1_555 1_555
H14_4 C11_4 1_555 1_555
H15_4 C11_4 1_555 1_555
Zn3_3 N1_4 1_555 1_555
C5_4 C6_4 1_555 1_555
C7_4 C8_4 1_555 1_555
C9_4 C10_4 1_555 1_555
Zn3_2 O2_4 1_555 1_555
O3_4 Zn3_2 1_555 1_555
O4_4 C12_4 1_555 1_555
C12_4 O3_4 1_555 1_555
C13_4 C12_4 1_555 1_555
H16_4 C13_4 1_555 1_555
H17_4 C13_4 1_555 1_555
H18_4 C13_4 1_555 1_555
C7_5 C5_5 1_555 1_555
H7_4 C7_5 1_555 1_555
C8_5 N3 1_555 1_555
H8_4 C8_5 1_555 1_555
C7_5 C8_5 1_555 1_555
Zn3_3 O2_5 1_555 1_555
O3_5 Zn3_3 1_555 1_555
C12_5 O3_5 1_555 1_555
C13_5 C12_5 1_555 1_555
H16_5 C13_5 1_555 1_555
H17_5 C13_5 1_555 1_555
H18_5 C13_5 1_555 1_555
C1_5 C3_5 1_555 1_555
N1_5 C4_5 1_555 1_555
H1_6 N2_5 1_555 1_555
C2_5 H2_5 1_555 1_555
C3_5 N2_5 1_555 1_555
H3_5 C3_5 1_555 1_555
C4_5 C2_5 1_555 1_555
H4_5 C4_5 1_555 1_555
C5_6 C2_5 1_555 1_555
C6_5 N2_5 1_555 1_555
H5_6 C6_5 1_555 1_555
H6_5 C6_5 1_555 1_555
C7_6 C5_6 1_555 1_555
H7_5 C7_6 1_555 1_555
C8_6 N1_5 1_555 1_555
H8_5 C8_6 1_555 1_555
C9_5 H9_5 1_555 1_555
H10_5 C9_5 1_555 1_555
H11_5 C9_5 1_555 1_555
C10_5 C3_5 1_555 1_555
H12_5 C10_5 1_555 1_555
C11_5 C10_5 1_555 1_555
H13_5 C11_5 1_555 1_555
H14_5 C11_5 1_555 1_555
H15_6 C11_5 1_555 1_555
Zn2_2 N1_5 1_555 1_555
C5_6 C6_5 1_555 1_555
C7_6 C8_6 1_555 1_555
C9_5 C10_5 1_555 1_555
Zn2_2 O2_6 1_555 1_555
O3_6 Zn2_2 1_555 1_555
O4_6 C12_6 1_555 1_555
C12_6 O3_6 1_555 1_555
C13_6 C12_6 1_555 1_555
H16_6 C13_6 1_555 1_555
H17_6 C13_6 1_555 1_555
H18_6 C13_6 1_555 1_555
O5_3 Zn2_2 1_555 1_555
O5_3 C1_6 1_555 1_555
C1_6 C3_6 1_555 1_555
C2_6 H2_6 1_555 1_555
C3_6 N2_6 1_555 1_555
H3_6 C3_6 1_555 1_555
C4_6 C2_6 1_555 1_555
H4_6 C4_6 1_555 1_555
C6_6 N2_6 1_555 1_555
H6_6 C6_6 1_555 1_555
C9_6 H9_6 1_555 1_555
H10_6 C9_6 1_555 1_555
H11_6 C9_6 1_555 1_555
C10_6 C3_6 1_555 1_555
H12_6 C10_6 1_555 1_555
C11_6 C10_6 1_555 1_555
H13_6 C11_6 1_555 1_555
H14_6 C11_6 1_555 1_555
C9_6 C10_6 1_555 1_555

#END
