
###############################################################################
#
# This file contains modified crystal structure data generated from the
# MOF subset of the Cambridge Structural Database (CSD) v543 
# hosted by the Cambridge Crystallographic Data Centre (CCDC).
#
# This work is licensed under the Creative Commons
# Attribution-NonCommercial-ShareAlike 4.0 International License.
# To view a copy of this license, visit
# http://creativecommons.org/licenses/by-nc-sa/4.0/
# or send a letter to
# Creative Commons, PO Box 1866, Mountain View, CA 94042, USA.
#
# CIF created using the CSD Python API on 29 September 2022
# The structure has been converted into the P1 space group
# The structure has a 3D framework
# The original CSD entry BEPPOD is in the hexagonal crystal system
# The original CSD entry BEPPOD is in a Sohncke space group
# The framework has been calculated to contain at least 10.0% void space
# The void calculation uses a probe of radius 1.32A, grid spacing 0.4
# H atom positions have been added when not included in the experimental data
#
###############################################################################

data_BEPPOD
_chemical_formula_moiety         '(C72 H96 N12 O23 Zn6)n'
_symmetry_cell_setting           triclinic
_symmetry_space_group_name_H-M   'P 1'
_symmetry_Int_Tables_number      1
_space_group_name_Hall           'P 1'
loop_
_symmetry_equiv_pos_site_id
_symmetry_equiv_pos_as_xyz
1 x,y,z
_cell_length_a                   17.7336(11)
_cell_length_b                   17.7336(11)
_cell_length_c                   10.3433(8)
_cell_angle_alpha                90
_cell_angle_beta                 90
_cell_angle_gamma                120
_cell_volume                     2816.98
loop_
_atom_site_label
_atom_site_type_symbol
_atom_site_fract_x
_atom_site_fract_y
_atom_site_fract_z
Zn1 Zn 0.54447(5) 0.47321(4) 0.15580(9)
O3 O 0.4770(5) 0.3483(4) 0.1748(5)
O4 O 0.3898(5) 0.3119(5) 0.0000(9)
C12 C 0.4134(10) 0.2948(7) 0.1024(11)
H15 H 0.3821 0.2373 0.1305
O5 O 0.5147(3) 0.4894(3) 0.3521(4)
N3 N 0.6746(7) 0.5230(4) 0.1960(5)
N4 N 0.5086(3) 0.5666(3) 0.1341(5)
O1 O 0.5712(3) 0.4738(3) 0.9619(4)
O2 O 0.4853(3) 0.5106(3) 0.8521(4)
N1 N 0.4770(4) 0.1516(6) 0.5293(5)
C1 C 0.5327(4) 0.4774(4) 0.8611(6)
C2 C 0.4383(5) 0.1488(6) 0.6377(6)
H1 H 0.4286 0.1052 0.6965
C3 C 0.4942(6) 0.2167(8) 0.4441(6)
H2 H 0.5240 0.2206 0.3682
N2 N 0.4914(3) 0.4334(3) 0.6341(5)
C4 C 0.4107(4) 0.2072(6) 0.6706(6)
H3 H 0.3820 0.2013 0.7484
C5 C 0.5463(4) 0.4332(4) 0.7429(5)
H4 H 0.5267 0.3725 0.7657
C6 C 0.6427(5) 0.4773(5) 0.7095(6)
H5 H 0.6737 0.4798 0.7892
C7 C 0.4085(5) 0.3476(4) 0.6205(7)
H6 H 0.3726 0.3525 0.5538
H7 H 0.3764 0.3335 0.7012
C8 C 0.4265(5) 0.2748(6) 0.5855(6)
C9 C 0.4685(7) 0.2775(9) 0.4679(7)
H8 H 0.4788 0.3199 0.4066
C10 C 0.6776(5) 0.5698(5) 0.6650(8)
H9 H 0.6401 0.5713 0.5992
H10 H 0.7351 0.5920 0.6305
H11 H 0.6797 0.6051 0.7368
C11 C 0.6632(6) 0.4260(6) 0.6112(7)
H12 H 0.6491 0.3706 0.6473
H13 H 0.7240 0.4580 0.5900
H14 H 0.6293 0.4172 0.5344
O4_2 O 0.3898(5) 0.3119(5) 1.0000(9)
Zn2 Zn 0.52679(4) 0.07126(6) 0.48913(9)
Zn3 Zn 0.45553(5) 0.52679(4) 0.65580(9)
H16 H 0.525897 0.445588 0.550848
Zn1_2 Zn 0.07126(6) 0.54447(5) 0.32247(9)
O1_2 O 0.0974(4) 0.5712(3) 0.1286(4)
O3_2 O 0.1287(6) 0.4770(5) 0.3415(5)
C1_2 C 0.0553(6) 0.5327(4) 0.0278(6)
O4_3 O 0.0779(7) 0.3898(5) 0.1667(9)
C12_2 C 0.1186(12) 0.4134(10) 0.2691(11)
H15_2 H 0.1448 0.3821 0.2972
O5_2 O 0.0253(4) 0.5147(3) 0.5188(4)
N3_2 N 0.1516(8) 0.6746(7) 0.3626(5)
N1_2 N 0.3254(7) 0.4770(4) 0.6960(5)
C2_2 C 0.2895(8) 0.4383(5) 0.8044(6)
H1_2 H 0.3234 0.4286 0.8632
C3_2 C 0.2775(10) 0.4942(6) 0.6108(6)
H2_2 H 0.3034 0.5240 0.5349
N2_2 N 0.0580(4) 0.4914(3) 0.8008(5)
C4_2 C 0.2035(7) 0.4107(4) 0.8373(6)
H3_2 H 0.1807 0.3820 0.9151
C5_2 C 0.1131(6) 0.5463(4) 0.9096(5)
H4_2 H 0.1542 0.5267 0.9324
C6_2 C 0.1654(7) 0.6427(5) 0.8762(6)
H5_2 H 0.1939 0.6737 0.9559
C7_2 C 0.0609(6) 0.4085(5) 0.7872(7)
H6_2 H 0.0201 0.3726 0.7205
H7_2 H 0.0429 0.3764 0.8679
C8_2 C 0.1517(8) 0.4265(5) 0.7522(6)
C9_2 C 0.1910(11) 0.4685(7) 0.6346(7)
H8_2 H 0.1589 0.4788 0.5733
C10_2 C 0.1078(7) 0.6776(5) 0.8317(8)
H9_2 H 0.0688 0.6401 0.7659
H10_2 H 0.1431 0.7351 0.7972
H11_2 H 0.0746 0.6797 0.9035
C11_2 C 0.2372(8) 0.6632(6) 0.7779(7)
H12_2 H 0.2785 0.6491 0.8140
H13_2 H 0.2660 0.7240 0.7567
H14_2 H 0.2121 0.6293 0.7011
H16_2 H 0.0803088 0.525897 0.717515
O2_2 O 0.9747(4) 0.4853(3) 0.0188(4)
N4_2 N 0.9420(4) 0.5086(3) 0.3008(5)
Zn3_2 Zn 0.92874(6) 0.45553(5) 0.82247(9)
O1_3 O 0.5262(3) 0.0974(4) 0.2952(4)
O3_3 O 0.6517(4) 0.1287(6) 0.5081(5)
C1_3 C 0.5226(4) 0.0553(6) 0.1944(6)
H1_3 H 0.8948 0.3234 0.0298
C4_3 C 0.7928(6) 0.2035(7) 0.0039(6)
H3_3 H 0.7987 0.1807 0.0817
C5_3 C 0.5668(4) 0.1131(6) 0.0762(5)
H4_3 H 0.6275 0.1542 0.0990
C6_3 C 0.5227(5) 0.1654(7) 0.0428(6)
H5_3 H 0.5202 0.1939 0.1225
H7_3 H 0.6665 0.0429 0.0345
H11_3 H 0.3949 0.0746 0.0701
O4_4 O 0.6881(5) 0.0779(7) 0.3333(9)
C12_3 C 0.7052(7) 0.1186(12) 0.4357(11)
H15_3 H 0.7627 0.1448 0.4638
O5_3 O 0.5106(3) 0.0253(4) 0.6854(4)
N1_3 N 0.8484(6) 0.3254(7) 0.8626(5)
C2_3 C 0.8512(6) 0.2895(8) 0.9710(6)
C3_3 C 0.7833(8) 0.2775(10) 0.7774(6)
H2_3 H 0.7794 0.3034 0.7015
N2_3 N 0.5666(3) 0.0580(4) 0.9674(5)
C7_3 C 0.6524(4) 0.0609(6) 0.9538(7)
H6_3 H 0.6475 0.0201 0.8871
C8_3 C 0.7252(6) 0.1517(8) 0.9188(6)
C9_3 C 0.7225(9) 0.1910(11) 0.8012(7)
H8_3 H 0.6801 0.1589 0.7399
C10_3 C 0.4302(5) 0.1078(7) 0.9983(8)
H9_3 H 0.4287 0.0688 0.9325
H10_3 H 0.4080 0.1431 0.9638
C11_3 C 0.5740(6) 0.2372(8) 0.9445(7)
H12_3 H 0.6294 0.2785 0.9806
H13_3 H 0.5420 0.2660 0.9233
H14_3 H 0.5828 0.2121 0.8677
H16_3 H 0.554412 0.0803088 0.884182
O2_3 O 0.4894(3) 0.9747(4) 0.1854(4)
N4_3 N 0.4334(3) 0.9420(4) 0.4674(5)
Zn3_3 Zn 0.47321(4) 0.92874(6) 0.98913(9)
O1_4 O 0.4288(3) 0.5262(3) 0.4619(4)
N1_4 N 0.5230(4) 0.8484(6) 0.0293(5)
O3_4 O 0.5230(5) 0.6517(4) 0.6748(5)
C1_4 C 0.4673(4) 0.5226(4) 0.3611(6)
C2_4 C 0.5617(5) 0.8512(6) 0.1377(6)
H1_4 H 0.5714 0.8948 0.1965
C4_4 C 0.5893(4) 0.7928(6) 0.1706(6)
H3_4 H 0.6180 0.7987 0.2484
C5_4 C 0.4537(4) 0.5668(4) 0.2429(5)
H4_4 H 0.4733 0.6275 0.2657
C6_4 C 0.3573(5) 0.5227(5) 0.2095(6)
H5_4 H 0.3263 0.5202 0.2892
C7_4 C 0.5915(5) 0.6524(4) 0.1205(7)
H6_4 H 0.6274 0.6475 0.0538
H7_4 H 0.6236 0.6665 0.2012
C8_4 C 0.5735(5) 0.7252(6) 0.0855(6)
C10_4 C 0.3224(5) 0.4302(5) 0.1650(8)
H9_4 H 0.3599 0.4287 0.0992
H10_4 H 0.2649 0.4080 0.1305
H11_4 H 0.3203 0.3949 0.2368
C11_4 C 0.3368(6) 0.5740(6) 0.1112(7)
H12_4 H 0.3509 0.6294 0.1473
H13_4 H 0.2760 0.5420 0.0900
H14_4 H 0.3707 0.5828 0.0344
O4_5 O 0.6102(5) 0.6881(5) 0.5000(9)
C12_4 C 0.5866(10) 0.7052(7) 0.6024(11)
H15_4 H 0.6179 0.7627 0.6305
H16_4 H 0.474103 0.554412 0.0508482
C3_4 C 0.5058(6) 0.7833(8) 0.9441(6)
H2_4 H 0.4760 0.7794 0.8682
C9_4 C 0.5315(7) 0.7225(9) 0.9679(7)
H8_4 H 0.5212 0.6801 0.9066
O1_5 O 0.9026(4) 0.4288(3) 0.6286(4)
O3_5 O 0.8713(6) 0.5230(5) 0.8415(5)
C1_5 C 0.9447(6) 0.4673(4) 0.5278(6)
C2_5 C 0.7105(8) 0.5617(5) 0.3044(6)
H1_5 H 0.6766 0.5714 0.3632
C3_5 C 0.7225(10) 0.5058(6) 0.1108(6)
H2_5 H 0.6966 0.4760 0.0349
C4_5 C 0.7965(7) 0.5893(4) 0.3373(6)
H3_5 H 0.8193 0.6180 0.4151
C5_5 C 0.8869(6) 0.4537(4) 0.4096(5)
H4_5 H 0.8458 0.4733 0.4324
C6_5 C 0.8346(7) 0.3573(5) 0.3762(6)
H5_5 H 0.8061 0.3263 0.4559
C7_5 C 0.9391(6) 0.5915(5) 0.2872(7)
H6_5 H 0.9799 0.6274 0.2205
H7_5 H 0.9571 0.6236 0.3679
C8_5 C 0.8483(8) 0.5735(5) 0.2522(6)
C9_5 C 0.8090(11) 0.5315(7) 0.1346(7)
H8_5 H 0.8411 0.5212 0.0733
C10_5 C 0.8922(7) 0.3224(5) 0.3317(8)
H9_5 H 0.9312 0.3599 0.2659
H10_5 H 0.8569 0.2649 0.2972
H11_5 H 0.9254 0.3203 0.4035
C11_5 C 0.7628(8) 0.3368(6) 0.2779(7)
H12_5 H 0.7215 0.3509 0.3140
H13_5 H 0.7340 0.2760 0.2567
H14_5 H 0.7879 0.3707 0.2011
O4_6 O 0.9221(7) 0.6102(5) 0.6667(9)
C12_5 C 0.8814(12) 0.5866(10) 0.7691(11)
H15_5 H 0.8552 0.6179 0.7972
H16_5 H 0.919691 0.474103 0.217515
O3_6 O 0.3483(4) 0.8713(6) 0.0081(5)
O1_6 O 0.4738(3) 0.9026(4) 0.7952(4)
C1_6 C 0.4774(4) 0.9447(6) 0.6944(6)
C2_6 C 0.1488(6) 0.7105(8) 0.4710(6)
H1_6 H 0.1052 0.6766 0.5298
C3_6 C 0.2167(8) 0.7225(10) 0.2774(6)
H2_6 H 0.2206 0.6966 0.2015
C4_6 C 0.2072(6) 0.7965(7) 0.5039(6)
H3_6 H 0.2013 0.8193 0.5817
C5_6 C 0.4332(4) 0.8869(6) 0.5762(5)
H4_6 H 0.3725 0.8458 0.5990
C6_6 C 0.4773(5) 0.8346(7) 0.5428(6)
H5_6 H 0.4798 0.8061 0.6225
C7_6 C 0.3476(4) 0.9391(6) 0.4538(7)
H6_6 H 0.3525 0.9799 0.3871
H7_6 H 0.3335 0.9571 0.5345
C8_6 C 0.2748(6) 0.8483(8) 0.4188(6)
C9_6 C 0.2775(9) 0.8090(11) 0.3012(7)
H8_6 H 0.3199 0.8411 0.2399
C10_6 C 0.5698(5) 0.8922(7) 0.4983(8)
H9_6 H 0.5713 0.9312 0.4325
H10_6 H 0.5920 0.8569 0.4638
H11_6 H 0.6051 0.9254 0.5701
C11_6 C 0.4260(6) 0.7628(8) 0.4445(7)
H12_6 H 0.3706 0.7215 0.4806
H13_6 H 0.4580 0.7340 0.4233
H14_6 H 0.4172 0.7879 0.3677
O4_7 O 0.3119(5) 0.9221(7) 0.8333(9)
C12_6 C 0.2948(7) 0.8814(12) 0.9357(11)
H15_6 H 0.2373 0.8552 0.9638
H16_6 H 0.445588 0.919691 0.384182
loop_
_geom_bond_atom_site_label_1
_geom_bond_atom_site_label_2
_geom_bond_site_symmetry_1
_geom_bond_site_symmetry_2
O3 Zn1 1_555 1_555
O4 C12 1_555 1_555
C12 O3 1_555 1_555
H15 C12 1_555 1_555
O5 Zn1 1_555 1_555
N3 Zn1 1_555 1_555
N4 Zn1 1_555 1_555
O1 C1 1_555 1_555
O2 C1 1_555 1_555
N1 C2 1_555 1_555
C1 C5 1_555 1_555
C2 H1 1_555 1_555
C3 N1 1_555 1_555
H2 C3 1_555 1_555
N2 C5 1_555 1_555
C4 C2 1_555 1_555
H3 C4 1_555 1_555
C5 H4 1_555 1_555
C6 C5 1_555 1_555
H5 C6 1_555 1_555
C7 N2 1_555 1_555
H6 C7 1_555 1_555
H7 C7 1_555 1_555
C8 C4 1_555 1_555
C9 C3 1_555 1_555
H8 C9 1_555 1_555
C10 C6 1_555 1_555
H9 C10 1_555 1_555
H10 C10 1_555 1_555
H11 C10 1_555 1_555
C11 C6 1_555 1_555
H12 C11 1_555 1_555
H13 C11 1_555 1_555
H14 C11 1_555 1_555
Zn2 N1 1_555 1_555
Zn3 O2 1_555 1_555
N2 Zn3 1_555 1_555
C7 C8 1_555 1_555
C8 C9 1_555 1_555
N2 H16 1_555 1_555
Zn1_2 O1_2 1_555 1_555
O1_2 C1_2 1_555 1_555
O3_2 Zn1_2 1_555 1_555
O4_3 C12_2 1_555 1_555
C12_2 O3_2 1_555 1_555
H15_2 C12_2 1_555 1_555
O5_2 Zn1_2 1_555 1_555
N3_2 Zn1_2 1_555 1_555
N1_2 C2_2 1_555 1_555
C2_2 H1_2 1_555 1_555
C3_2 N1_2 1_555 1_555
H2_2 C3_2 1_555 1_555
N2_2 C5_2 1_555 1_555
C4_2 C2_2 1_555 1_555
H3_2 C4_2 1_555 1_555
C5_2 H4_2 1_555 1_555
C6_2 C5_2 1_555 1_555
H5_2 C6_2 1_555 1_555
C7_2 N2_2 1_555 1_555
H6_2 C7_2 1_555 1_555
H7_2 C7_2 1_555 1_555
C8_2 C4_2 1_555 1_555
C9_2 C3_2 1_555 1_555
H8_2 C9_2 1_555 1_555
C10_2 C6_2 1_555 1_555
H9_2 C10_2 1_555 1_555
H10_2 C10_2 1_555 1_555
H11_2 C10_2 1_555 1_555
C11_2 C6_2 1_555 1_555
H12_2 C11_2 1_555 1_555
H13_2 C11_2 1_555 1_555
H14_2 C11_2 1_555 1_555
Zn3 N1_2 1_555 1_555
C7_2 C8_2 1_555 1_555
C8_2 C9_2 1_555 1_555
N2_2 H16_2 1_555 1_555
Zn2 O1_3 1_555 1_555
O1_3 C1_3 1_555 1_555
O3_3 Zn2 1_555 1_555
C1_3 C5_3 1_555 1_555
H3_3 C4_3 1_555 1_555
C5_3 H4_3 1_555 1_555
C6_3 C5_3 1_555 1_555
H5_3 C6_3 1_555 1_555
O4_4 C12_3 1_555 1_555
C12_3 O3_3 1_555 1_555
H15_3 C12_3 1_555 1_555
O5_3 Zn2 1_555 1_555
N1_3 C2_3 1_555 1_555
C3_3 N1_3 1_555 1_555
H2_3 C3_3 1_555 1_555
C7_3 N2_3 1_555 1_555
H6_3 C7_3 1_555 1_555
C9_3 C3_3 1_555 1_555
H8_3 C9_3 1_555 1_555
H9_3 C10_3 1_555 1_555
H10_3 C10_3 1_555 1_555
H12_3 C11_3 1_555 1_555
H13_3 C11_3 1_555 1_555
H14_3 C11_3 1_555 1_555
Zn3_2 N1_3 1_555 1_555
C7_3 C8_3 1_555 1_555
C8_3 C9_3 1_555 1_555
N2_3 H16_3 1_555 1_555
Zn3 O1_4 1_555 1_555
O1_4 C1_4 1_555 1_555
O5 C1_4 1_555 1_555
N1_4 C2_4 1_555 1_555
O3_4 Zn3 1_555 1_555
C1_4 C5_4 1_555 1_555
C2_4 H1_4 1_555 1_555
N4 C5_4 1_555 1_555
C4_4 C2_4 1_555 1_555
H3_4 C4_4 1_555 1_555
C5_4 H4_4 1_555 1_555
C6_4 C5_4 1_555 1_555
H5_4 C6_4 1_555 1_555
C7_4 N4 1_555 1_555
H6_4 C7_4 1_555 1_555
H7_4 C7_4 1_555 1_555
C8_4 C4_4 1_555 1_555
C10_4 C6_4 1_555 1_555
H9_4 C10_4 1_555 1_555
H10_4 C10_4 1_555 1_555
H11_4 C10_4 1_555 1_555
C11_4 C6_4 1_555 1_555
H12_4 C11_4 1_555 1_555
H13_4 C11_4 1_555 1_555
H14_4 C11_4 1_555 1_555
O4_5 C12_4 1_555 1_555
C12_4 O3_4 1_555 1_555
H15_4 C12_4 1_555 1_555
C7_4 C8_4 1_555 1_555
N4 H16_4 1_555 1_555
H2_4 C3_4 1_555 1_555
C9_4 C3_4 1_555 1_555
H8_4 C9_4 1_555 1_555
Zn3_2 O1_5 1_555 1_555
O1_5 C1_5 1_555 1_555
N3 C2_5 1_555 1_555
O3_5 Zn3_2 1_555 1_555
C1_5 C5_5 1_555 1_555
C2_5 H1_5 1_555 1_555
C3_5 N3 1_555 1_555
H2_5 C3_5 1_555 1_555
N4_2 C5_5 1_555 1_555
C4_5 C2_5 1_555 1_555
H3_5 C4_5 1_555 1_555
C5_5 H4_5 1_555 1_555
C6_5 C5_5 1_555 1_555
H5_5 C6_5 1_555 1_555
C7_5 N4_2 1_555 1_555
H6_5 C7_5 1_555 1_555
H7_5 C7_5 1_555 1_555
C8_5 C4_5 1_555 1_555
C9_5 C3_5 1_555 1_555
H8_5 C9_5 1_555 1_555
C10_5 C6_5 1_555 1_555
H9_5 C10_5 1_555 1_555
H10_5 C10_5 1_555 1_555
H11_5 C10_5 1_555 1_555
C11_5 C6_5 1_555 1_555
H12_5 C11_5 1_555 1_555
H13_5 C11_5 1_555 1_555
H14_5 C11_5 1_555 1_555
O4_6 C12_5 1_555 1_555
C12_5 O3_5 1_555 1_555
H15_5 C12_5 1_555 1_555
C7_5 C8_5 1_555 1_555
C8_5 C9_5 1_555 1_555
N4_2 H16_5 1_555 1_555
Zn3_3 O1_6 1_555 1_555
O1_6 C1_6 1_555 1_555
N3_2 C2_6 1_555 1_555
C1_6 C5_6 1_555 1_555
C2_6 H1_6 1_555 1_555
C3_6 N3_2 1_555 1_555
H2_6 C3_6 1_555 1_555
N4_3 C5_6 1_555 1_555
C4_6 C2_6 1_555 1_555
H3_6 C4_6 1_555 1_555
C5_6 H4_6 1_555 1_555
C6_6 C5_6 1_555 1_555
H5_6 C6_6 1_555 1_555
C7_6 N4_3 1_555 1_555
H6_6 C7_6 1_555 1_555
H7_6 C7_6 1_555 1_555
C8_6 C4_6 1_555 1_555
C9_6 C3_6 1_555 1_555
H8_6 C9_6 1_555 1_555
C10_6 C6_6 1_555 1_555
H9_6 C10_6 1_555 1_555
H10_6 C10_6 1_555 1_555
H11_6 C10_6 1_555 1_555
C11_6 C6_6 1_555 1_555
H12_6 C11_6 1_555 1_555
H13_6 C11_6 1_555 1_555
H14_6 C11_6 1_555 1_555
O4_7 C12_6 1_555 1_555
H15_6 C12_6 1_555 1_555
C7_6 C8_6 1_555 1_555
C8_6 C9_6 1_555 1_555
N4_3 H16_6 1_555 1_555

#END
