
###############################################################################
#
# This file contains modified crystal structure data generated from the
# MOF subset of the Cambridge Structural Database (CSD) v543 
# hosted by the Cambridge Crystallographic Data Centre (CCDC).
#
# This work is licensed under the Creative Commons
# Attribution-NonCommercial-ShareAlike 4.0 International License.
# To view a copy of this license, visit
# http://creativecommons.org/licenses/by-nc-sa/4.0/
# or send a letter to
# Creative Commons, PO Box 1866, Mountain View, CA 94042, USA.
#
# CIF created using the CSD Python API on 29 September 2022
# The structure has been converted into the P1 space group
# The structure has a 3D framework
# The original CSD entry BEPVEZ is in the triclinic crystal system
# The framework has been calculated to contain at least 10.0% void space
# The void calculation uses a probe of radius 1.32A, grid spacing 0.4
#
###############################################################################

data_BEPVEZ
_chemical_formula_moiety         '(C40 H42 Cu6 N16)n'
_symmetry_cell_setting           triclinic
_symmetry_space_group_name_H-M   'P 1'
_symmetry_Int_Tables_number      1
_space_group_name_Hall           'P 1'
loop_
_symmetry_equiv_pos_site_id
_symmetry_equiv_pos_as_xyz
1 x,y,z
_cell_length_a                   11.4507(6)
_cell_length_b                   11.6026(5)
_cell_length_c                   13.2025(7)
_cell_angle_alpha                65.360(5)
_cell_angle_beta                 71.368(5)
_cell_angle_gamma                71.461(4)
_cell_volume                     1475.62
loop_
_atom_site_label
_atom_site_type_symbol
_atom_site_fract_x
_atom_site_fract_y
_atom_site_fract_z
N1 N 0.2938(3) 0.1167(4) 0.6089(4)
C1 C 0.1089(6) 0.1230(8) 0.8897(6)
H1 H 0.1507 0.0478 0.9429
H2 H 0.0196 0.1278 0.9130
H3 H 0.1263 0.1996 0.8880
N2 N 0.2707(3) 0.1279(4) 0.7122(4)
H4 H 0.3248 0.1427 0.7353
C2 C 0.1559(4) 0.1136(5) 0.7737(5)
C3 C 0.0989(4) 0.0910(5) 0.7087(5)
C4 C 0.1878(4) 0.0951(5) 0.6061(5)
C5 C 0.1783(5) 0.0744(7) 0.5067(6)
H6 H 0.2004 0.1454 0.4386
H7 H 0.0934 0.0693 0.5154
Cu5 Cu 0.46381(5) 0.13632(6) 0.50565(5)
C6 C 0.9693(4) 0.0626(5) 0.7430(5)
H9 H 0.9155 0.1073 0.7949
H10 H 0.9344 0.0986 0.6755
Cu6 Cu 0.69019(5) 0.04833(5) 0.80240(5)
Cu4 Cu 0.61797(5) 0.24402(6) 0.08878(5)
N4 N 0.6145(3) 0.4739(4) 0.1307(4)
H5 H 0.5880 0.4315 0.2016
N5 N 0.6458(3) 0.4243(4) 0.0461(4)
N6 N 0.5549(4) 0.2073(4) 0.2510(4)
N7 N 0.5462(4) 0.1227(4) 0.6214(4)
N8 N 0.6681(4) 0.1100(5) 0.9231(4)
C13 C 0.6013(6) 0.6719(6) 0.1676(7)
H16 H 0.5236 0.6579 0.2223
H17 H 0.5935 0.7627 0.1229
H18 H 0.6685 0.6434 0.2070
C14 C 0.6299(4) 0.5963(5) 0.0908(6)
C18 C 0.5192(4) 0.1797(5) 0.3478(5)
C19 C 0.6006(4) 0.0967(4) 0.6902(4)
C20 C 0.6513(4) 0.1574(5) 0.9891(5)
N3 N 0.8483(3) 0.8973(3) 0.8226(3)
C7 C 0.9640(4) 0.9225(4) 0.7988(4)
C10 C 0.9332(4) 0.6728(5) 0.9021(6)
H13 H 0.9214 0.5880 0.9374
C11 C 0.8332(4) 0.7751(5) 0.8736(5)
C12 C 0.7017(4) 0.7586(5) 0.8917(6)
H14 H 0.6876 0.7722 0.8186
H15 H 0.6419 0.8258 0.9187
C15 C 0.6742(4) 0.6287(5) 0.9746(5)
C16 C 0.6813(4) 0.5192(5) 0.9513(5)
C17 C 0.7246(5) 0.5015(6) 0.8389(5)
H19 H 0.8135 0.4991 0.8120
H20 H 0.6799 0.5724 0.7851
H21 H 0.7085 0.4214 0.8471
H8 H 0.2349 0.9949 0.5013
C8 C 0.0662(4) 0.8225(5) 0.8259(5)
H11 H 0.1455 0.8401 0.8090
C9 C 0.0504(4) 0.6977(5) 0.8776(6)
H12 H 0.1188 0.6297 0.8961
N10 N 0.1517(3) 0.1027(3) 0.1774(3)
C7_2 C 0.0360(4) 0.0775(4) 0.2012(4)
C10_2 C 0.0668(4) 0.3272(5) 0.0979(6)
H13_2 H 0.0786 0.4120 0.0626
C11_2 C 0.1668(4) 0.2249(5) 0.1264(5)
C12_2 C 0.2983(4) 0.2414(5) 0.1083(6)
H14_2 H 0.3124 0.2278 0.1814
H15_2 H 0.3581 0.1742 0.0813
C15_2 C 0.3258(4) 0.3713(5) 0.0254(5)
C16_2 C 0.3187(4) 0.4808(5) 0.0487(5)
C17_2 C 0.2754(5) 0.4985(6) 0.1611(5)
H19_2 H 0.1865 0.5009 0.1880
H20_2 H 0.3201 0.4276 0.2149
H21_2 H 0.2915 0.5786 0.1529
C21 C 0.3487(4) 0.8426(5) 0.0109(5)
Cu1 Cu 0.38203(5) 0.75598(6) 0.91122(5)
Cu2 Cu 0.53619(5) 0.86368(6) 0.49435(5)
Cu3 Cu 0.30981(5) 0.95167(5) 0.19760(5)
N4_2 N 0.3855(3) 0.5261(4) 0.8693(4)
H5_2 H 0.4120 0.5685 0.7984
N5_2 N 0.3542(3) 0.5757(4) 0.9539(4)
N6_2 N 0.4451(4) 0.7927(4) 0.7490(4)
N7_2 N 0.4538(4) 0.8773(4) 0.3786(4)
N8_2 N 0.3319(4) 0.8900(5) 0.0769(4)
C13_2 C 0.3987(6) 0.3281(6) 0.8324(7)
H16_2 H 0.4764 0.3421 0.7777
H17_2 H 0.4065 0.2373 0.8771
H18_2 H 0.3315 0.3566 0.7930
C14_2 C 0.3701(4) 0.4037(5) 0.9092(6)
C18_2 C 0.4808(4) 0.8203(5) 0.6522(5)
C19_2 C 0.3994(4) 0.9033(4) 0.3098(4)
N9 N 0.7062(3) 0.8833(4) 0.3911(4)
C6_2 C 0.0307(4) 0.9374(5) 0.2570(5)
H9_2 H 0.0845 0.8927 0.2051
H10_2 H 0.0656 0.9014 0.3245
C1_2 C 0.8911(6) 0.8770(8) 0.1103(6)
H1_2 H 0.8493 0.9522 0.0571
H2_2 H 0.9804 0.8722 0.0870
H3_2 H 0.8737 0.8004 0.1120
N2_2 N 0.7293(3) 0.8721(4) 0.2878(4)
H4_2 H 0.6752 0.8573 0.2647
C2_2 C 0.8441(4) 0.8864(5) 0.2263(5)
C3_2 C 0.9011(4) 0.9090(5) 0.2913(5)
C4_2 C 0.8122(4) 0.9049(5) 0.3939(5)
C5_2 C 0.8217(5) 0.9256(7) 0.4933(6)
H6_2 H 0.7996 0.8546 0.5614
H7_2 H 0.9066 0.9307 0.4846
H8_2 H 0.7651 0.0051 0.4987
C8_2 C 0.9338(4) 0.1775(5) 0.1741(5)
H11_2 H 0.8545 0.1599 0.1910
C9_2 C 0.9496(4) 0.3023(5) 0.1224(6)
H12_2 H 0.8812 0.3703 0.1039
loop_
_geom_bond_atom_site_label_1
_geom_bond_atom_site_label_2
_geom_bond_site_symmetry_1
_geom_bond_site_symmetry_2
N1 N2 1_555 1_555
C1 H1 1_555 1_555
H2 C1 1_555 1_555
H3 C1 1_555 1_555
N2 H4 1_555 1_555
C2 C1 1_555 1_555
C3 C2 1_555 1_555
C4 N1 1_555 1_555
C5 C4 1_555 1_555
H6 C5 1_555 1_555
H7 C5 1_555 1_555
Cu5 N1 1_555 1_555
N2 C2 1_555 1_555
C3 C4 1_555 1_555
H9 C6 1_555 1_555
H10 C6 1_555 1_555
Cu4 N5 1_555 1_555
Cu5 N7 1_555 1_555
Cu6 N8 1_555 1_555
N4 H5 1_555 1_555
N5 N4 1_555 1_555
N6 Cu4 1_555 1_555
N7 C19 1_555 1_555
N8 C20 1_555 1_555
C13 H16 1_555 1_555
H17 C13 1_555 1_555
H18 C13 1_555 1_555
C14 N4 1_555 1_555
C18 Cu5 1_555 1_555
C19 Cu6 1_555 1_555
N6 C18 1_555 1_555
C13 C14 1_555 1_555
N3 C7 1_555 1_555
H13 C10 1_555 1_555
C11 N3 1_555 1_555
C12 C11 1_555 1_555
H14 C12 1_555 1_555
H15 C12 1_555 1_555
C15 C12 1_555 1_555
C17 C16 1_555 1_555
H19 C17 1_555 1_555
H20 C17 1_555 1_555
H21 C17 1_555 1_555
C10 C11 1_555 1_555
C15 C16 1_555 1_555
H11 C8 1_555 1_555
C9 C8 1_555 1_555
H12 C9 1_555 1_555
N10 C7_2 1_555 1_555
H13_2 C10_2 1_555 1_555
C11_2 N10 1_555 1_555
C12_2 C11_2 1_555 1_555
H14_2 C12_2 1_555 1_555
H15_2 C12_2 1_555 1_555
C15_2 C12_2 1_555 1_555
C17_2 C16_2 1_555 1_555
H19_2 C17_2 1_555 1_555
H20_2 C17_2 1_555 1_555
H21_2 C17_2 1_555 1_555
C10_2 C11_2 1_555 1_555
C15_2 C16_2 1_555 1_555
Cu1 N5_2 1_555 1_555
Cu2 N7_2 1_555 1_555
Cu3 N8_2 1_555 1_555
N4_2 H5_2 1_555 1_555
N5_2 N4_2 1_555 1_555
N6_2 Cu1 1_555 1_555
N7_2 C19_2 1_555 1_555
N8_2 C21 1_555 1_555
C13_2 H16_2 1_555 1_555
H17_2 C13_2 1_555 1_555
H18_2 C13_2 1_555 1_555
C14_2 N4_2 1_555 1_555
C18_2 Cu2 1_555 1_555
C19_2 Cu3 1_555 1_555
N9 Cu2 1_555 1_555
N6_2 C18_2 1_555 1_555
C13_2 C14_2 1_555 1_555
H9_2 C6_2 1_555 1_555
H10_2 C6_2 1_555 1_555
N9 N2_2 1_555 1_555
C1_2 H1_2 1_555 1_555
H2_2 C1_2 1_555 1_555
H3_2 C1_2 1_555 1_555
N2_2 H4_2 1_555 1_555
C2_2 C1_2 1_555 1_555
C3_2 C2_2 1_555 1_555
C4_2 N9 1_555 1_555
C5_2 C4_2 1_555 1_555
H6_2 C5_2 1_555 1_555
H7_2 C5_2 1_555 1_555
N2_2 C2_2 1_555 1_555
C3_2 C4_2 1_555 1_555
H11_2 C8_2 1_555 1_555
C9_2 C8_2 1_555 1_555
H12_2 C9_2 1_555 1_555

#END
