
###############################################################################
#
# This file contains modified crystal structure data generated from the
# MOF subset of the Cambridge Structural Database (CSD) v543 
# hosted by the Cambridge Crystallographic Data Centre (CCDC).
#
# This work is licensed under the Creative Commons
# Attribution-NonCommercial-ShareAlike 4.0 International License.
# To view a copy of this license, visit
# http://creativecommons.org/licenses/by-nc-sa/4.0/
# or send a letter to
# Creative Commons, PO Box 1866, Mountain View, CA 94042, USA.
#
# CIF created using the CSD Python API on 29 September 2022
# The structure has been converted into the P1 space group
# The structure has a 3D framework
# The original CSD entry BEPVOJ is in the triclinic crystal system
# The framework has been calculated to contain at least 10.0% void space
# The void calculation uses a probe of radius 1.32A, grid spacing 0.4
#
###############################################################################

data_BEPVOJ
_chemical_formula_moiety         '(C40 H42 Cu4 N16)n'
_symmetry_cell_setting           triclinic
_symmetry_space_group_name_H-M   'P 1'
_symmetry_Int_Tables_number      1
_space_group_name_Hall           'P 1'
loop_
_symmetry_equiv_pos_site_id
_symmetry_equiv_pos_as_xyz
1 x,y,z
_cell_length_a                   11.5152(3)
_cell_length_b                   11.3120(4)
_cell_length_c                   12.6953(4)
_cell_angle_alpha                114.171(3)
_cell_angle_beta                 91.497(3)
_cell_angle_gamma                68.347(3)
_cell_volume                     1386.93
loop_
_atom_site_label
_atom_site_type_symbol
_atom_site_fract_x
_atom_site_fract_y
_atom_site_fract_z
Cu3 Cu 0.18194(2) 0.36024(2) 0.28921(2)
N7 N 0.02602(16) 0.25937(19) 0.10563(16)
N8 N 0.16389(16) 0.5339(2) 0.41813(17)
C19 C 0.08652(19) 0.3021(2) 0.17254(18)
C20 C 0.14982(19) 0.6436(2) 0.48843(19)
Cu4 Cu 0.11949(2) 0.82860(2) 0.59397(2)
N10 N 0.34428(15) 0.21531(17) 0.30700(15)
N1 N 0.77149(16) 0.23978(18) 0.10213(15)
C1 C 0.5916(2) 0.5339(3) 0.3776(2)
H1 H 0.6535 0.5239 0.4311
H2 H 0.5103 0.5467 0.4122
H3 H 0.5814 0.6160 0.3637
N2 N 0.74984(16) 0.35833(19) 0.20196(16)
H4 H 0.8035 0.3997 0.2229
C2 C 0.6363(2) 0.4055(2) 0.2655(2)
C3 C 0.58182(19) 0.3120(2) 0.2022(2)
N4 N 0.12964(15) 0.10101(17) 0.62906(16)
H5 H 0.1078 0.1328 0.7045
C4 C 0.6688(2) 0.2116(2) 0.1016(2)
C5 C 0.6599(2) 0.0861(3) 0.0050(3)
H8 H 0.6533 0.0221 0.0360
C6 C 0.4553(2) 0.3168(2) 0.2358(2)
H9 H 0.4120 0.2982 0.1660
H10 H 0.4039 0.4136 0.2945
C7 C 0.45813(19) 0.2148(2) 0.2849(2)
C8 C 0.5658(2) 0.1271(3) 0.3073(3)
H11 H 0.6459 0.1263 0.2899
C9 C 0.5564(2) 0.0412(3) 0.3546(3)
C10 C 0.4385(2) 0.0408(3) 0.3751(3)
C11 C 0.3347(2) 0.1287(2) 0.3503(2)
C12 C 0.2022(2) 0.1358(3) 0.3687(2)
H14 H 0.1415 0.2336 0.3901
H15 H 0.1846 0.0746 0.2938
C13 C 0.1320(2) 0.3294(2) 0.6501(3)
H16 H 0.0528 0.3820 0.7046
H17 H 0.1309 0.3729 0.5972
H18 H 0.2032 0.3308 0.6939
C14 C 0.14619(19) 0.1779(2) 0.5797(2)
C15 C 0.1785(2) 0.0924(2) 0.4608(2)
C18 C 0.01102(19) 0.0070(2) 0.85376(19)
Cu5 Cu 0.94181(2) 0.13464(3) 0.00869(2)
N5 N 0.15039(16) 0.96688(18) 0.54947(16)
N6 N 0.05413(17) 0.94040(18) 0.75692(15)
H12 H 0.6292 0.9829 0.3732
H13 H 0.4301 0.9802 0.4059
C16 C 0.18092(19) 0.9623(2) 0.44675(19)
C17 C 0.2103(2) 0.8312(3) 0.3364(2)
H19 H 0.3000 0.7921 0.3051
H20 H 0.1588 0.8534 0.2791
H21 H 0.1914 0.7620 0.3524
H6 H 0.7356 0.0375 0.9464
H7 H 0.5849 0.1160 0.9689
Cu2 Cu 0.05819(2) 0.86536(3) 0.99131(2)
N9 N 0.22851(16) 0.76022(18) 0.89787(15)
Cu1 Cu 0.88051(2) 0.17140(2) 0.40603(2)
N5_2 N 0.84961(16) 0.03312(18) 0.45053(16)
N6_2 N 0.94587(17) 0.05960(18) 0.24308(15)
H12_2 H 0.3708 0.0171 0.6268
H13_2 H 0.5699 0.0198 0.5941
C16_2 C 0.81908(19) 0.0377(2) 0.55325(19)
C17_2 C 0.7897(2) 0.1688(3) 0.6636(2)
H19_2 H 0.7000 0.2079 0.6949
H20_2 H 0.8412 0.1466 0.7209
H21_2 H 0.8086 0.2380 0.6476
C21 C 0.85018(19) 0.3564(2) 0.51157(19)
C1_2 C 0.4084(2) 0.4661(3) 0.6224(2)
H1_2 H 0.3465 0.4761 0.5689
H2_2 H 0.4897 0.4533 0.5878
H3_2 H 0.4186 0.3840 0.6363
N2_2 N 0.25016(16) 0.64167(19) 0.79804(16)
H4_2 H 0.1965 0.6003 0.7771
C2_2 C 0.3637(2) 0.5945(2) 0.7345(2)
N3 N 0.65572(15) 0.78469(17) 0.69300(15)
C3_2 C 0.41818(19) 0.6880(2) 0.7978(2)
N4_2 N 0.87036(15) 0.89899(17) 0.37094(16)
H5_2 H 0.8922 0.8672 0.2955
C4_2 C 0.3312(2) 0.7884(2) 0.8984(2)
C5_2 C 0.3401(2) 0.9139(3) 0.9950(3)
H8_2 H 0.3467 0.9779 0.9640
C6_2 C 0.5447(2) 0.6832(2) 0.7642(2)
H9_2 H 0.5880 0.7018 0.8340
H10_2 H 0.5961 0.5864 0.7055
C7_2 C 0.54187(19) 0.7852(2) 0.7151(2)
C8_2 C 0.4342(2) 0.8729(3) 0.6927(3)
H11_2 H 0.3541 0.8737 0.7101
C9_2 C 0.4436(2) 0.9588(3) 0.6454(3)
C10_2 C 0.5615(2) 0.9592(3) 0.6249(3)
C11_2 C 0.6653(2) 0.8713(2) 0.6497(2)
C12_2 C 0.7978(2) 0.8642(3) 0.6313(2)
H14_2 H 0.8585 0.7664 0.6099
H15_2 H 0.8154 0.9254 0.7062
C13_2 C 0.8680(2) 0.6706(2) 0.3499(3)
H16_2 H 0.9472 0.6180 0.2954
H17_2 H 0.8691 0.6271 0.4028
H18_2 H 0.7968 0.6692 0.3061
C14_2 C 0.85381(19) 0.8221(2) 0.4203(2)
C15_2 C 0.8215(2) 0.9076(2) 0.5392(2)
C18_2 C 0.98898(19) 0.9930(2) 0.14624(19)
Cu6 Cu 0.81806(2) 0.63976(2) 0.71079(2)
N7_2 N 0.97398(16) 0.74063(19) 0.89437(16)
N8_2 N 0.83611(16) 0.4661(2) 0.58187(17)
C19_2 C 0.91348(19) 0.6979(2) 0.82746(18)
H6_2 H 0.2644 0.9625 0.0536
H7_2 H 0.4151 0.8840 0.0311
loop_
_geom_bond_atom_site_label_1
_geom_bond_atom_site_label_2
_geom_bond_site_symmetry_1
_geom_bond_site_symmetry_2
Cu3 N8 1_555 1_555
N7 C19 1_555 1_555
N8 C20 1_555 1_555
C19 Cu3 1_555 1_555
C20 Cu4 1_555 1_555
N10 Cu3 1_555 1_555
N1 N2 1_555 1_555
C1 H1 1_555 1_555
H2 C1 1_555 1_555
H3 C1 1_555 1_555
N2 H4 1_555 1_555
C2 C1 1_555 1_555
N10 C7 1_555 1_555
C3 C2 1_555 1_555
N4 H5 1_555 1_555
C4 N1 1_555 1_555
C5 C4 1_555 1_555
H8 C5 1_555 1_555
C6 C3 1_555 1_555
H9 C6 1_555 1_555
H10 C6 1_555 1_555
C7 C6 1_555 1_555
C8 C7 1_555 1_555
H11 C8 1_555 1_555
C9 C8 1_555 1_555
C10 C9 1_555 1_555
C11 N10 1_555 1_555
C12 C11 1_555 1_555
H14 C12 1_555 1_555
H15 C12 1_555 1_555
C13 H16 1_555 1_555
H17 C13 1_555 1_555
H18 C13 1_555 1_555
C14 N4 1_555 1_555
C15 C12 1_555 1_555
Cu5 N1 1_555 1_555
N2 C2 1_555 1_555
C3 C4 1_555 1_555
C10 C11 1_555 1_555
C13 C14 1_555 1_555
C14 C15 1_555 1_555
Cu4 N5 1_555 1_555
N6 Cu4 1_555 1_555
C16 N5 1_555 1_555
C17 C16 1_555 1_555
H19 C17 1_555 1_555
H20 C17 1_555 1_555
H21 C17 1_555 1_555
N9 Cu2 1_555 1_555
Cu1 N5_2 1_555 1_555
N6_2 Cu1 1_555 1_555
C16_2 N5_2 1_555 1_555
C17_2 C16_2 1_555 1_555
H19_2 C17_2 1_555 1_555
H20_2 C17_2 1_555 1_555
H21_2 C17_2 1_555 1_555
C21 Cu1 1_555 1_555
N9 N2_2 1_555 1_555
C1_2 H1_2 1_555 1_555
H2_2 C1_2 1_555 1_555
H3_2 C1_2 1_555 1_555
N2_2 H4_2 1_555 1_555
C2_2 C1_2 1_555 1_555
N3 C7_2 1_555 1_555
C3_2 C2_2 1_555 1_555
N4_2 H5_2 1_555 1_555
C4_2 N9 1_555 1_555
C5_2 C4_2 1_555 1_555
H8_2 C5_2 1_555 1_555
C6_2 C3_2 1_555 1_555
H9_2 C6_2 1_555 1_555
H10_2 C6_2 1_555 1_555
C7_2 C6_2 1_555 1_555
C8_2 C7_2 1_555 1_555
H11_2 C8_2 1_555 1_555
C9_2 C8_2 1_555 1_555
C10_2 C9_2 1_555 1_555
C11_2 N3 1_555 1_555
C12_2 C11_2 1_555 1_555
H14_2 C12_2 1_555 1_555
H15_2 C12_2 1_555 1_555
C13_2 H16_2 1_555 1_555
H17_2 C13_2 1_555 1_555
H18_2 C13_2 1_555 1_555
C14_2 N4_2 1_555 1_555
C15_2 C12_2 1_555 1_555
Cu6 N3 1_555 1_555
N2_2 C2_2 1_555 1_555
C3_2 C4_2 1_555 1_555
C10_2 C11_2 1_555 1_555
C13_2 C14_2 1_555 1_555
C14_2 C15_2 1_555 1_555
Cu6 N8_2 1_555 1_555
N7_2 C19_2 1_555 1_555
N8_2 C21 1_555 1_555
C19_2 Cu6 1_555 1_555

#END
