
###############################################################################
#
# This file contains modified crystal structure data generated from the
# MOF subset of the Cambridge Structural Database (CSD) v543 
# hosted by the Cambridge Crystallographic Data Centre (CCDC).
#
# This work is licensed under the Creative Commons
# Attribution-NonCommercial-ShareAlike 4.0 International License.
# To view a copy of this license, visit
# http://creativecommons.org/licenses/by-nc-sa/4.0/
# or send a letter to
# Creative Commons, PO Box 1866, Mountain View, CA 94042, USA.
#
# CIF created using the CSD Python API on 29 September 2022
# The structure has been converted into the P1 space group
# The structure has a 3D framework
# The original CSD entry BEPVOJ01 is in the triclinic crystal system
# The framework has been calculated to contain at least 10.0% void space
# The void calculation uses a probe of radius 1.32A, grid spacing 0.4
#
###############################################################################

data_BEPVOJ01
_chemical_formula_moiety         '(C40 H42 Cu4 N16)n'
_symmetry_cell_setting           triclinic
_symmetry_space_group_name_H-M   'P 1'
_symmetry_Int_Tables_number      1
_space_group_name_Hall           'P 1'
loop_
_symmetry_equiv_pos_site_id
_symmetry_equiv_pos_as_xyz
1 x,y,z
_cell_length_a                   11.4964(6)
_cell_length_b                   11.3571(6)
_cell_length_c                   12.9352(7)
_cell_angle_alpha                115.386(5)
_cell_angle_beta                 91.133(4)
_cell_angle_gamma                69.305(5)
_cell_volume                     1409.92
loop_
_atom_site_label
_atom_site_type_symbol
_atom_site_fract_x
_atom_site_fract_y
_atom_site_fract_z
N5 N 0.02308(14) 0.26293(16) 0.11123(14)
C4 C 0.08326(16) 0.30210(16) 0.17761(15)
Cu3 Cu 0.180766(18) 0.35734(2) 0.293108(18)
N8 N 0.16461(16) 0.53290(17) 0.42002(15)
C20 C 0.15191(18) 0.64370(18) 0.48951(17)
Cu5 Cu 0.12206(2) 0.82972(2) 0.594231(18)
N10 N 0.34221(12) 0.21218(13) 0.30773(12)
N1 N 0.77134(13) 0.23323(15) 0.10060(13)
N3 N 0.13214(13) 0.10228(13) 0.63194(13)
H1 H 0.1119 0.1329 0.7051
N6 N 0.74915(14) 0.34773(16) 0.20193(13)
H2 H 0.8020 0.3880 0.2254
C2 C 0.01185(17) 0.01223(18) 0.85227(16)
C3 C 0.66986(17) 0.20258(18) 0.09580(18)
C5 C 0.17793(16) 0.09634(17) 0.46723(17)
C6 C 0.63572(18) 0.3933(2) 0.26323(17)
C7 C 0.14730(16) 0.18048(17) 0.58481(18)
C8 C 0.19981(17) 0.14064(19) 0.37740(18)
H3 H 0.1790 0.0824 0.3052
H4 H 0.1422 0.2373 0.4018
C9 C 0.58138(17) 0.30073(18) 0.19656(17)
C10 C 0.33104(16) 0.13112(18) 0.35466(16)
C12 C 0.45566(16) 0.20777(18) 0.28082(17)
C13 C 0.45521(18) 0.3028(2) 0.22744(19)
H8 H 0.4170 0.2765 0.1577
H9 H 0.4020 0.3987 0.2811
C14 C 0.56286(19) 0.1224(2) 0.3013(2)
H10 H 0.6415 0.1199 0.2821
C15 C 0.43558(19) 0.0441(2) 0.3777(2)
H13 H 0.6501 0.0149 0.0202
C17 C 0.1321(2) 0.3332(2) 0.6574(2)
H15 H 0.0474 0.3880 0.6980
H16 H 0.1494 0.3701 0.6078
H17 H 0.1898 0.3379 0.7123
C18 C 0.5898(3) 0.5204(3) 0.3785(2)
H18 H 0.6586 0.5477 0.4069
H19 H 0.5555 0.4987 0.4320
H20 H 0.5257 0.5964 0.3706
C19 C 0.5510(2) 0.0413(3) 0.3507(2)
Cu4 Cu 0.94121(2) 0.13681(2) 0.006150(19)
N4 N 0.15212(13) 0.96885(14) 0.55187(13)
N7 N 0.05697(16) 0.94385(15) 0.75739(13)
C1 C 0.17898(16) 0.96584(18) 0.45036(15)
C11 C 0.2096(2) 0.8340(2) 0.33965(18)
H5 H 0.2980 0.7782 0.3253
H6 H 0.1876 0.8578 0.2771
H7 H 0.1628 0.7812 0.3453
H11 H 0.4275 0.9887 0.4109
H21 H 0.6223 0.9837 0.3660
C16 C 0.6613(2) 0.0786(3) 0.9945(3)
H12 H 0.5909 0.1098 0.9585
H14 H 0.7373 0.0311 0.9397
Cu1 Cu 0.05879(2) 0.86319(2) 0.993850(19)
N9 N 0.22866(13) 0.76677(15) 0.89940(13)
Cu2 Cu 0.87794(2) 0.17028(2) 0.405769(18)
N4_2 N 0.84788(13) 0.03115(14) 0.44813(13)
N7_2 N 0.94303(16) 0.05615(15) 0.24261(13)
C1_2 C 0.82102(16) 0.03416(18) 0.54964(15)
C11_2 C 0.7904(2) 0.1660(2) 0.66035(18)
H5_2 H 0.7020 0.2218 0.6747
H6_2 H 0.8124 0.1422 0.7229
H7_2 H 0.8372 0.2188 0.6547
H11_2 H 0.5725 0.0113 0.5891
H21_2 H 0.3777 0.0163 0.6340
C21 C 0.84809(18) 0.35630(18) 0.51049(17)
N2 N 0.65779(12) 0.78782(13) 0.69227(12)
N3_2 N 0.86786(13) 0.89772(13) 0.36806(13)
H1_2 H 0.8881 0.8671 0.2949
N6_2 N 0.25085(14) 0.65227(16) 0.79807(13)
H2_2 H 0.1980 0.6120 0.7746
C2_2 C 0.98815(17) 0.98777(18) 0.14773(16)
C3_2 C 0.33014(17) 0.79742(18) 0.90420(18)
C5_2 C 0.82207(16) 0.90366(17) 0.53277(17)
C6_2 C 0.36428(18) 0.6067(2) 0.73677(17)
C7_2 C 0.85270(16) 0.81952(17) 0.41519(18)
C8_2 C 0.80019(17) 0.85936(19) 0.62260(18)
H3_2 H 0.8210 0.9176 0.6948
H4_2 H 0.8578 0.7627 0.5982
C9_2 C 0.41862(17) 0.69927(18) 0.80344(17)
C10_2 C 0.66896(16) 0.86888(18) 0.64534(16)
C12_2 C 0.54434(16) 0.79223(18) 0.71918(17)
C13_2 C 0.54479(18) 0.6972(2) 0.77256(19)
H8_2 H 0.5830 0.7235 0.8423
H9_2 H 0.5980 0.6013 0.7189
C14_2 C 0.43714(19) 0.8776(2) 0.6987(2)
H10_2 H 0.3585 0.8801 0.7179
C15_2 C 0.56442(19) 0.9559(2) 0.6223(2)
H13_2 H 0.3499 0.9851 0.9798
C17_2 C 0.8679(2) 0.6668(2) 0.3426(2)
H15_2 H 0.9526 0.6120 0.3020
H16_2 H 0.8506 0.6299 0.3922
H17_2 H 0.8102 0.6621 0.2877
C18_2 C 0.4102(3) 0.4796(3) 0.6215(2)
H18_2 H 0.3414 0.4523 0.5931
H19_2 H 0.4445 0.5013 0.5680
H20_2 H 0.4743 0.4036 0.6294
C19_2 C 0.4490(2) 0.9587(3) 0.6493(2)
Cu6 Cu 0.819234(18) 0.64266(2) 0.706892(18)
N5_2 N 0.97692(14) 0.73707(16) 0.88877(14)
C4_2 C 0.91674(16) 0.69790(16) 0.82239(15)
N8_2 N 0.83539(16) 0.46710(17) 0.57998(15)
C16_2 C 0.3387(2) 0.9214(3) 0.0055(3)
H12_2 H 0.4091 0.8902 0.0415
H14_2 H 0.2627 0.9689 0.0603
loop_
_geom_bond_atom_site_label_1
_geom_bond_atom_site_label_2
_geom_bond_site_symmetry_1
_geom_bond_site_symmetry_2
N5 C4 1_555 1_555
C4 Cu3 1_555 1_555
Cu3 N8 1_555 1_555
N8 C20 1_555 1_555
C20 Cu5 1_555 1_555
N10 Cu3 1_555 1_555
N1 N6 1_555 1_555
N10 C10 1_555 1_555
N3 H1 1_555 1_555
N6 H2 1_555 1_555
C3 N1 1_555 1_555
C6 N6 1_555 1_555
C7 N3 1_555 1_555
C8 C5 1_555 1_555
H3 C8 1_555 1_555
H4 C8 1_555 1_555
C9 C3 1_555 1_555
C10 C8 1_555 1_555
C12 N10 1_555 1_555
C13 C9 1_555 1_555
H8 C13 1_555 1_555
H9 C13 1_555 1_555
C14 C12 1_555 1_555
H10 C14 1_555 1_555
C15 C10 1_555 1_555
C17 C7 1_555 1_555
H15 C17 1_555 1_555
H16 C17 1_555 1_555
H17 C17 1_555 1_555
C18 C6 1_555 1_555
H18 C18 1_555 1_555
H19 C18 1_555 1_555
H20 C18 1_555 1_555
C19 C14 1_555 1_555
Cu4 N1 1_555 1_555
C5 C7 1_555 1_555
C6 C9 1_555 1_555
C12 C13 1_555 1_555
C15 C19 1_555 1_555
Cu5 N4 1_555 1_555
N7 Cu5 1_555 1_555
C1 N4 1_555 1_555
C11 C1 1_555 1_555
H5 C11 1_555 1_555
H6 C11 1_555 1_555
H7 C11 1_555 1_555
H12 C16 1_555 1_555
H14 C16 1_555 1_555
N9 Cu1 1_555 1_555
Cu2 N4_2 1_555 1_555
N7_2 Cu2 1_555 1_555
C1_2 N4_2 1_555 1_555
C11_2 C1_2 1_555 1_555
H5_2 C11_2 1_555 1_555
H6_2 C11_2 1_555 1_555
H7_2 C11_2 1_555 1_555
C21 Cu2 1_555 1_555
N9 N6_2 1_555 1_555
N2 C10_2 1_555 1_555
N3_2 H1_2 1_555 1_555
N6_2 H2_2 1_555 1_555
C3_2 N9 1_555 1_555
C6_2 N6_2 1_555 1_555
C7_2 N3_2 1_555 1_555
C8_2 C5_2 1_555 1_555
H3_2 C8_2 1_555 1_555
H4_2 C8_2 1_555 1_555
C9_2 C3_2 1_555 1_555
C10_2 C8_2 1_555 1_555
C12_2 N2 1_555 1_555
C13_2 C9_2 1_555 1_555
H8_2 C13_2 1_555 1_555
H9_2 C13_2 1_555 1_555
C14_2 C12_2 1_555 1_555
H10_2 C14_2 1_555 1_555
C15_2 C10_2 1_555 1_555
C17_2 C7_2 1_555 1_555
H15_2 C17_2 1_555 1_555
H16_2 C17_2 1_555 1_555
H17_2 C17_2 1_555 1_555
C18_2 C6_2 1_555 1_555
H18_2 C18_2 1_555 1_555
H19_2 C18_2 1_555 1_555
H20_2 C18_2 1_555 1_555
C19_2 C14_2 1_555 1_555
Cu6 N2 1_555 1_555
C5_2 C7_2 1_555 1_555
C6_2 C9_2 1_555 1_555
C12_2 C13_2 1_555 1_555
C15_2 C19_2 1_555 1_555
N5_2 C4_2 1_555 1_555
C4_2 Cu6 1_555 1_555
Cu6 N8_2 1_555 1_555
N8_2 C21 1_555 1_555
H12_2 C16_2 1_555 1_555
H14_2 C16_2 1_555 1_555

#END
