
###############################################################################
#
# This file contains modified crystal structure data generated from the
# MOF subset of the Cambridge Structural Database (CSD) v543 
# hosted by the Cambridge Crystallographic Data Centre (CCDC).
#
# This work is licensed under the Creative Commons
# Attribution-NonCommercial-ShareAlike 4.0 International License.
# To view a copy of this license, visit
# http://creativecommons.org/licenses/by-nc-sa/4.0/
# or send a letter to
# Creative Commons, PO Box 1866, Mountain View, CA 94042, USA.
#
# CIF created using the CSD Python API on 29 September 2022
# The structure has been converted into the P1 space group
# The structure has a 3D framework
# The original CSD entry BEPVID is in the triclinic crystal system
# The framework has been calculated to contain at least 10.0% void space
# The void calculation uses a probe of radius 1.32A, grid spacing 0.4
#
###############################################################################

data_BEPVID
_chemical_formula_moiety         '(C40 H42 Cu4 N16)n'
_symmetry_cell_setting           triclinic
_symmetry_space_group_name_H-M   'P 1'
_symmetry_Int_Tables_number      1
_space_group_name_Hall           'P 1'
loop_
_symmetry_equiv_pos_site_id
_symmetry_equiv_pos_as_xyz
1 x,y,z
_cell_length_a                   11.4723(7)
_cell_length_b                   11.4569(7)
_cell_length_c                   13.1199(8)
_cell_angle_alpha                64.295(6)
_cell_angle_beta                 89.824(5)
_cell_angle_gamma                110.147(6)
_cell_volume                     1434.83
loop_
_atom_site_label
_atom_site_type_symbol
_atom_site_fract_x
_atom_site_fract_y
_atom_site_fract_z
Cu1 Cu 0.12028(2) 0.17083(2) 0.591077(17)
N5 N 0.15077(15) 0.03225(14) 0.54874(12)
H6 H 0.7141 0.0056 0.0040
N6 N 0.05570(18) 0.05242(16) 0.75345(12)
H12 H 0.6221 0.0034 0.3772
C16 C 0.18030(18) 0.03329(18) 0.44991(15)
C17 C 0.2139(2) 0.1638(2) 0.33917(16)
H19 H 0.1932 0.2318 0.3511
H20 H 0.1676 0.1430 0.2843
H21 H 0.3028 0.2008 0.3106
C21 C 0.1515(2) 0.35645(18) 0.48797(15)
Cu3 Cu 0.18393(2) 0.64504(2) 0.295807(17)
N7 N 0.03235(16) 0.74494(16) 0.11408(13)
N8 N 0.16642(18) 0.46710(16) 0.41946(14)
C19 C 0.09003(18) 0.70382(17) 0.18121(14)
N10 N 0.34412(14) 0.78515(13) 0.31273(11)
N1 N 0.78041(15) 0.76990(15) 0.10310(12)
C1 C 0.5973(3) 0.4840(3) 0.3816(2)
H1 H 0.6607 0.4449 0.4010
H2 H 0.5215 0.4154 0.3796
H3 H 0.5799 0.5103 0.4384
N2 N 0.75726(16) 0.65518(16) 0.20503(12)
H4 H 0.8099 0.6151 0.2281
C2 C 0.6435(2) 0.6106(2) 0.26627(16)
C3 C 0.58778(19) 0.69935(19) 0.20138(15)
N4 N 0.12711(15) 0.90003(14) 0.63048(13)
H5 H 0.1051 0.8710 0.7027
C4 C 0.6767(2) 0.79754(19) 0.10029(17)
C6 C 0.4608(2) 0.6967(2) 0.23284(18)
H9 H 0.4067 0.6008 0.2860
H10 H 0.4240 0.7243 0.1639
C7 C 0.45985(18) 0.78941(18) 0.28651(15)
C8 C 0.5648(2) 0.8695(2) 0.3096(2)
H11 H 0.6437 0.8708 0.2913
C9 C 0.5518(2) 0.9487(2) 0.3604(2)
C10 C 0.4350(2) 0.9461(2) 0.3859(2)
H13 H 0.4254 0.9999 0.4192
C11 C 0.33179(19) 0.86310(18) 0.36168(16)
C12 C 0.1995(2) 0.8548(2) 0.38385(18)
H14 H 0.1802 0.9123 0.3116
H15 H 0.1415 0.7587 0.4098
C13 C 0.1235(3) 0.6676(2) 0.6613(2)
H16 H 0.1658 0.6602 0.7255
H17 H 0.1579 0.6351 0.6169
H18 H 0.0350 0.6113 0.6889
C14 C 0.1418(2) 0.81948(19) 0.58654(18)
C15 C 0.17551(18) 0.90046(18) 0.47059(17)
C18 C 0.0145(2) 0.98338(19) 0.84877(15)
Cu5 Cu 0.95045(2) 0.86103(2) 0.004737(18)
C5 C 0.6676(3) 0.9214(2) 0.9989(2)
H7 H 0.5807 0.9100 0.9989
H8 H 0.7022 0.9278 0.9291
Cu2 Cu 0.04955(2) 0.13897(2) 0.995263(18)
N9 N 0.21959(15) 0.23010(15) 0.89690(12)
C1_2 C 0.4027(3) 0.5160(3) 0.6184(2)
H1_2 H 0.3393 0.5551 0.5990
H2_2 H 0.4785 0.5846 0.6204
H3_2 H 0.4201 0.4897 0.5616
N2_2 N 0.24274(16) 0.34482(16) 0.79497(12)
H4_2 H 0.1901 0.3849 0.7719
C2_2 C 0.3565(2) 0.3894(2) 0.73373(16)
N3 N 0.65588(14) 0.21485(13) 0.68727(11)
C3_2 C 0.41222(19) 0.30065(19) 0.79862(15)
N4_2 N 0.87289(15) 0.09997(14) 0.36952(13)
H5_2 H 0.8949 0.1290 0.2973
C4_2 C 0.3233(2) 0.20246(19) 0.89971(17)
C6_2 C 0.5392(2) 0.3033(2) 0.76716(18)
H9_2 H 0.5933 0.3992 0.7140
H10_2 H 0.5760 0.2757 0.8361
C7_2 C 0.54015(18) 0.21059(18) 0.71349(15)
C8_2 C 0.4352(2) 0.1305(2) 0.6904(2)
H11_2 H 0.3563 0.1292 0.7087
C9_2 C 0.4482(2) 0.0513(2) 0.6396(2)
C10_2 C 0.5650(2) 0.0539(2) 0.6141(2)
H13_2 H 0.5746 0.0001 0.5808
C11_2 C 0.66821(19) 0.13690(18) 0.63832(16)
C12_2 C 0.8005(2) 0.1452(2) 0.61615(18)
H14_2 H 0.8198 0.0877 0.6884
H15_2 H 0.8585 0.2413 0.5902
C13_2 C 0.8765(3) 0.3324(2) 0.3387(2)
H16_2 H 0.8342 0.3398 0.2745
H17_2 H 0.8421 0.3649 0.3831
H18_2 H 0.9650 0.3887 0.3111
C14_2 C 0.8582(2) 0.18052(19) 0.41346(18)
C15_2 C 0.82449(18) 0.09954(18) 0.52941(17)
C18_2 C 0.9855(2) 0.01662(19) 0.15123(15)
Cu6 Cu 0.81607(2) 0.35496(2) 0.704193(17)
N7_2 N 0.96765(16) 0.25506(16) 0.88592(13)
N8_2 N 0.83358(18) 0.53290(16) 0.58054(14)
C19_2 C 0.90997(18) 0.29618(17) 0.81879(14)
C20 C 0.8485(2) 0.64355(18) 0.51203(15)
Cu4 Cu 0.87972(2) 0.82917(2) 0.408923(17)
N5_2 N 0.84923(15) 0.96775(14) 0.45126(12)
H6_2 H 0.2859 0.9944 0.9960
N6_2 N 0.94430(18) 0.94758(16) 0.24655(12)
H12_2 H 0.3779 0.9966 0.6228
C16_2 C 0.81970(18) 0.96671(18) 0.55009(15)
C17_2 C 0.7861(2) 0.8362(2) 0.66083(16)
H19_2 H 0.8068 0.7682 0.6489
H20_2 H 0.8324 0.8570 0.7157
H21_2 H 0.6972 0.7992 0.6894
C5_2 C 0.3324(3) 0.0786(2) 0.0011(2)
H7_2 H 0.4193 0.0900 0.0011
H8_2 H 0.2978 0.0722 0.0709
loop_
_geom_bond_atom_site_label_1
_geom_bond_atom_site_label_2
_geom_bond_site_symmetry_1
_geom_bond_site_symmetry_2
Cu1 N5 1_555 1_555
N6 Cu1 1_555 1_555
C16 N5 1_555 1_555
C17 C16 1_555 1_555
H19 C17 1_555 1_555
H20 C17 1_555 1_555
H21 C17 1_555 1_555
C21 Cu1 1_555 1_555
Cu3 N8 1_555 1_555
N7 C19 1_555 1_555
N8 C21 1_555 1_555
C19 Cu3 1_555 1_555
N10 Cu3 1_555 1_555
N1 N2 1_555 1_555
C1 H1 1_555 1_555
H2 C1 1_555 1_555
H3 C1 1_555 1_555
N2 H4 1_555 1_555
C2 C1 1_555 1_555
N10 C7 1_555 1_555
C3 C2 1_555 1_555
N4 H5 1_555 1_555
C4 N1 1_555 1_555
C6 C3 1_555 1_555
H9 C6 1_555 1_555
H10 C6 1_555 1_555
C7 C6 1_555 1_555
C8 C7 1_555 1_555
H11 C8 1_555 1_555
C9 C8 1_555 1_555
C10 C9 1_555 1_555
H13 C10 1_555 1_555
C11 N10 1_555 1_555
C12 C11 1_555 1_555
H14 C12 1_555 1_555
H15 C12 1_555 1_555
C13 H16 1_555 1_555
H17 C13 1_555 1_555
H18 C13 1_555 1_555
C14 N4 1_555 1_555
C15 C12 1_555 1_555
Cu5 N1 1_555 1_555
N2 C2 1_555 1_555
C3 C4 1_555 1_555
C10 C11 1_555 1_555
C13 C14 1_555 1_555
C14 C15 1_555 1_555
H7 C5 1_555 1_555
H8 C5 1_555 1_555
N9 Cu2 1_555 1_555
N9 N2_2 1_555 1_555
C1_2 H1_2 1_555 1_555
H2_2 C1_2 1_555 1_555
H3_2 C1_2 1_555 1_555
N2_2 H4_2 1_555 1_555
C2_2 C1_2 1_555 1_555
N3 C7_2 1_555 1_555
C3_2 C2_2 1_555 1_555
N4_2 H5_2 1_555 1_555
C4_2 N9 1_555 1_555
C6_2 C3_2 1_555 1_555
H9_2 C6_2 1_555 1_555
H10_2 C6_2 1_555 1_555
C7_2 C6_2 1_555 1_555
C8_2 C7_2 1_555 1_555
H11_2 C8_2 1_555 1_555
C9_2 C8_2 1_555 1_555
C10_2 C9_2 1_555 1_555
H13_2 C10_2 1_555 1_555
C11_2 N3 1_555 1_555
C12_2 C11_2 1_555 1_555
H14_2 C12_2 1_555 1_555
H15_2 C12_2 1_555 1_555
C13_2 H16_2 1_555 1_555
H17_2 C13_2 1_555 1_555
H18_2 C13_2 1_555 1_555
C14_2 N4_2 1_555 1_555
C15_2 C12_2 1_555 1_555
Cu6 N3 1_555 1_555
N2_2 C2_2 1_555 1_555
C3_2 C4_2 1_555 1_555
C10_2 C11_2 1_555 1_555
C13_2 C14_2 1_555 1_555
C14_2 C15_2 1_555 1_555
Cu6 N8_2 1_555 1_555
N7_2 C19_2 1_555 1_555
N8_2 C20 1_555 1_555
C19_2 Cu6 1_555 1_555
C20 Cu4 1_555 1_555
Cu4 N5_2 1_555 1_555
N6_2 Cu4 1_555 1_555
C16_2 N5_2 1_555 1_555
C17_2 C16_2 1_555 1_555
H19_2 C17_2 1_555 1_555
H20_2 C17_2 1_555 1_555
H21_2 C17_2 1_555 1_555
H7_2 C5_2 1_555 1_555
H8_2 C5_2 1_555 1_555

#END
