
###############################################################################
#
# This file contains modified crystal structure data generated from the
# MOF subset of the Cambridge Structural Database (CSD) v543 
# hosted by the Cambridge Crystallographic Data Centre (CCDC).
#
# This work is licensed under the Creative Commons
# Attribution-NonCommercial-ShareAlike 4.0 International License.
# To view a copy of this license, visit
# http://creativecommons.org/licenses/by-nc-sa/4.0/
# or send a letter to
# Creative Commons, PO Box 1866, Mountain View, CA 94042, USA.
#
# CIF created using the CSD Python API on 29 September 2022
# The structure has been converted into the P1 space group
# The structure has a 3D framework
# The original CSD entry BEPVAV is in the triclinic crystal system
# The framework has been calculated to contain at least 10.0% void space
# The void calculation uses a probe of radius 1.32A, grid spacing 0.4
#
###############################################################################

data_BEPVAV
_chemical_formula_moiety         '(C40 H42 Cu6 N16)n'
_symmetry_cell_setting           triclinic
_symmetry_space_group_name_H-M   'P 1'
_symmetry_Int_Tables_number      1
_space_group_name_Hall           'P 1'
loop_
_symmetry_equiv_pos_site_id
_symmetry_equiv_pos_as_xyz
1 x,y,z
_cell_length_a                   11.3700(4)
_cell_length_b                   11.4274(5)
_cell_length_c                   12.1912(6)
_cell_angle_alpha                67.952(4)
_cell_angle_beta                 87.743(3)
_cell_angle_gamma                69.803(3)
_cell_volume                     1370.45
loop_
_atom_site_label
_atom_site_type_symbol
_atom_site_fract_x
_atom_site_fract_y
_atom_site_fract_z
C5 C 0.1573(4) 0.0843(5) 0.0289(4)
H6 H 0.2310 0.0395 0.0882
H8 H 0.0816 0.1165 0.0661
Cu6 Cu 0.45180(4) 0.12349(4) 0.01006(4)
N1 N 0.2778(3) 0.2265(3) 0.9275(3)
C1 C 0.1074(6) 0.5040(5) 0.6507(5)
H1 H 0.0858 0.5855 0.6683
H2 H 0.0338 0.5070 0.6090
H3 H 0.1769 0.4996 0.6004
N2 N 0.2612(3) 0.3385(3) 0.8269(3)
H4 H 0.3170 0.3781 0.8047
C2 C 0.1468(4) 0.3816(4) 0.7647(4)
C3 C 0.0866(4) 0.2943(4) 0.8307(4)
C4 C 0.1735(4) 0.1994(4) 0.9312(4)
H7 H 0.1486 0.0200 0.9975
C8 C 0.0649(4) 0.1204(4) 0.7141(5)
H11 H 0.1465 0.1119 0.7393
C9 C 0.0493(5) 0.0426(5) 0.6574(5)
N3 N 0.8408(3) 0.2273(3) 0.6964(3)
N4 N 0.6304(3) 0.0901(3) 0.3590(4)
H5 H 0.6092 0.1094 0.2839
C6 C 0.9603(4) 0.2992(5) 0.7978(5)
H9 H 0.9094 0.3940 0.7475
H10 H 0.9189 0.2732 0.8715
C7 C 0.9573(4) 0.2122(4) 0.7335(4)
C10 C 0.9317(4) 0.0577(5) 0.6206(6)
H13 H 0.9209 0.0040 0.5810
C11 C 0.8279(4) 0.1516(4) 0.6412(5)
C12 C 0.6914(4) 0.1780(5) 0.6043(6)
H14 H 0.6512 0.1432 0.6769
H15 H 0.6463 0.2769 0.5667
C13 C 0.6294(6) 0.3201(5) 0.3175(7)
H16 H 0.7092 0.3207 0.2842
H17 H 0.6049 0.3818 0.3595
H18 H 0.5638 0.3496 0.2531
C14 C 0.6454(4) 0.1787(4) 0.4036(5)
C15 C 0.6743(4) 0.1164(5) 0.5207(5)
Cu4 Cu 0.68489(4) 0.36753(4) 0.72498(4)
N7 N 0.5313(3) 0.2547(3) 0.9157(3)
N8 N 0.6735(3) 0.5380(3) 0.6063(3)
C19 C 0.5890(4) 0.3052(3) 0.8456(4)
C20 C 0.6596(3) 0.6416(4) 0.5329(4)
Cu5 Cu 0.62899(4) 0.81610(4) 0.41948(4)
N5 N 0.6537(3) 0.9682(3) 0.4494(3)
N6 N 0.5650(3) 0.9130(3) 0.2528(3)
C16 C 0.6794(4) 0.9836(4) 0.5469(5)
C17 C 0.7120(4) 0.8703(5) 0.6638(5)
H19 H 0.6935 0.7950 0.6580
H20 H 0.6623 0.8996 0.7224
H21 H 0.8019 0.8408 0.6887
C18 C 0.5227(3) 0.9856(3) 0.1585(3)
H12 H 0.1209 0.9779 0.6438
Cu2 Cu 0.37101(4) 0.18390(4) 0.58052(4)
N5_2 N 0.3463(3) 0.0318(3) 0.5506(3)
N6_2 N 0.4350(3) 0.0870(3) 0.7472(3)
C16_2 C 0.3206(4) 0.0164(4) 0.4531(5)
C17_2 C 0.2880(4) 0.1297(5) 0.3362(5)
H19_2 H 0.3065 0.2050 0.3420
H20_2 H 0.3377 0.1004 0.2776
H21_2 H 0.1981 0.1592 0.3113
C18_2 C 0.4773(3) 0.0144(3) 0.8415(3)
C21 C 0.3404(3) 0.3584(4) 0.4671(4)
Cu1 Cu 0.31511(4) 0.63247(4) 0.27502(4)
N7_2 N 0.4687(3) 0.7453(3) 0.0843(3)
N8_2 N 0.3265(3) 0.4620(3) 0.3937(3)
C19_2 C 0.4110(4) 0.6948(3) 0.1544(4)
N9 N 0.7222(3) 0.7735(3) 0.0725(3)
N10 N 0.1592(3) 0.7727(3) 0.3036(3)
Cu3 Cu 0.54820(4) 0.87651(4) 0.98994(4)
N4_2 N 0.3696(3) 0.9099(3) 0.6410(4)
H5_2 H 0.3908 0.8906 0.7161
C6_2 C 0.0397(4) 0.7008(5) 0.2022(5)
H9_2 H 0.0906 0.6060 0.2525
H10_2 H 0.0811 0.7268 0.1285
C7_2 C 0.0427(4) 0.7878(4) 0.2665(4)
C10_2 C 0.0683(4) 0.9423(5) 0.3794(6)
H13_2 H 0.0791 0.9960 0.4190
C11_2 C 0.1721(4) 0.8484(4) 0.3588(5)
C12_2 C 0.3086(4) 0.8220(5) 0.3957(6)
H14_2 H 0.3488 0.8568 0.3231
H15_2 H 0.3537 0.7231 0.4333
C13_2 C 0.3706(6) 0.6799(5) 0.6825(7)
H16_2 H 0.2908 0.6793 0.7158
H17_2 H 0.3951 0.6182 0.6405
H18_2 H 0.4362 0.6504 0.7469
C14_2 C 0.3546(4) 0.8213(4) 0.5964(5)
C15_2 C 0.3257(4) 0.8836(5) 0.4793(5)
C1_2 C 0.8926(6) 0.4960(5) 0.3493(5)
H1_2 H 0.9142 0.4145 0.3317
H2_2 H 0.9662 0.4930 0.3910
H3_2 H 0.8231 0.5004 0.3996
N2_2 N 0.7388(3) 0.6615(3) 0.1731(3)
H4_2 H 0.6830 0.6219 0.1953
C2_2 C 0.8532(4) 0.6184(4) 0.2353(4)
C3_2 C 0.9134(4) 0.7057(4) 0.1693(4)
C4_2 C 0.8265(4) 0.8006(4) 0.0688(4)
H7_2 H 0.8514 0.9800 0.0025
C8_2 C 0.9351(4) 0.8796(4) 0.2859(5)
H11_2 H 0.8535 0.8881 0.2607
C9_2 C 0.9507(5) 0.9574(5) 0.3426(5)
C5_2 C 0.8427(4) 0.9157(5) 0.9711(4)
H6_2 H 0.7690 0.9605 0.9118
H8_2 H 0.9184 0.8835 0.9339
H12_2 H 0.8791 0.0221 0.3562
loop_
_geom_bond_atom_site_label_1
_geom_bond_atom_site_label_2
_geom_bond_site_symmetry_1
_geom_bond_site_symmetry_2
H6 C5 1_555 1_555
H8 C5 1_555 1_555
N1 N2 1_555 1_555
C1 H1 1_555 1_555
H2 C1 1_555 1_555
H3 C1 1_555 1_555
N2 H4 1_555 1_555
C2 C1 1_555 1_555
C3 C2 1_555 1_555
C4 N1 1_555 1_555
H11 C8 1_555 1_555
C9 C8 1_555 1_555
N2 C2 1_555 1_555
C3 C4 1_555 1_555
N3 C7 1_555 1_555
N4 H5 1_555 1_555
H9 C6 1_555 1_555
H10 C6 1_555 1_555
C7 C6 1_555 1_555
H13 C10 1_555 1_555
C11 N3 1_555 1_555
C12 C11 1_555 1_555
H14 C12 1_555 1_555
H15 C12 1_555 1_555
C13 H16 1_555 1_555
H17 C13 1_555 1_555
H18 C13 1_555 1_555
C14 N4 1_555 1_555
C15 C12 1_555 1_555
Cu4 N3 1_555 1_555
C10 C11 1_555 1_555
C13 C14 1_555 1_555
C14 C15 1_555 1_555
Cu4 N8 1_555 1_555
N7 C19 1_555 1_555
N8 C20 1_555 1_555
C19 Cu4 1_555 1_555
C20 Cu5 1_555 1_555
Cu5 N5 1_555 1_555
N6 Cu5 1_555 1_555
C16 N5 1_555 1_555
C17 C16 1_555 1_555
H19 C17 1_555 1_555
H20 C17 1_555 1_555
H21 C17 1_555 1_555
N6 C18 1_555 1_555
Cu2 N5_2 1_555 1_555
N6_2 Cu2 1_555 1_555
C16_2 N5_2 1_555 1_555
C17_2 C16_2 1_555 1_555
H19_2 C17_2 1_555 1_555
H20_2 C17_2 1_555 1_555
H21_2 C17_2 1_555 1_555
C21 Cu2 1_555 1_555
N6_2 C18_2 1_555 1_555
Cu1 N8_2 1_555 1_555
N7_2 C19_2 1_555 1_555
N8_2 C21 1_555 1_555
C19_2 Cu1 1_555 1_555
N10 Cu1 1_555 1_555
N10 C7_2 1_555 1_555
N4_2 H5_2 1_555 1_555
H9_2 C6_2 1_555 1_555
H10_2 C6_2 1_555 1_555
C7_2 C6_2 1_555 1_555
H13_2 C10_2 1_555 1_555
C11_2 N10 1_555 1_555
C12_2 C11_2 1_555 1_555
H14_2 C12_2 1_555 1_555
H15_2 C12_2 1_555 1_555
C13_2 H16_2 1_555 1_555
H17_2 C13_2 1_555 1_555
H18_2 C13_2 1_555 1_555
C14_2 N4_2 1_555 1_555
C15_2 C12_2 1_555 1_555
C10_2 C11_2 1_555 1_555
C13_2 C14_2 1_555 1_555
C14_2 C15_2 1_555 1_555
N9 N2_2 1_555 1_555
C1_2 H1_2 1_555 1_555
H2_2 C1_2 1_555 1_555
H3_2 C1_2 1_555 1_555
N2_2 H4_2 1_555 1_555
C2_2 C1_2 1_555 1_555
C3_2 C2_2 1_555 1_555
C4_2 N9 1_555 1_555
H11_2 C8_2 1_555 1_555
C9_2 C8_2 1_555 1_555
N2_2 C2_2 1_555 1_555
C3_2 C4_2 1_555 1_555
H6_2 C5_2 1_555 1_555
H8_2 C5_2 1_555 1_555

#END
