
###############################################################################
#
# This file contains modified crystal structure data generated from the
# MOF subset of the Cambridge Structural Database (CSD) v543 
# hosted by the Cambridge Crystallographic Data Centre (CCDC).
#
# This work is licensed under the Creative Commons
# Attribution-NonCommercial-ShareAlike 4.0 International License.
# To view a copy of this license, visit
# http://creativecommons.org/licenses/by-nc-sa/4.0/
# or send a letter to
# Creative Commons, PO Box 1866, Mountain View, CA 94042, USA.
#
# CIF created using the CSD Python API on 29 September 2022
# The structure has been converted into the P1 space group
# The structure has a 3D framework
# The original CSD entry BEPYIG is in the monoclinic crystal system
# The framework has been calculated to contain at least 10.0% void space
# The void calculation uses a probe of radius 1.32A, grid spacing 0.4
#
###############################################################################

data_BEPYIG
_chemical_formula_moiety         '(C98 H62 Cu8 O34)n'
_symmetry_cell_setting           triclinic
_symmetry_space_group_name_H-M   'P 1'
_symmetry_Int_Tables_number      1
_space_group_name_Hall           'P 1'
loop_
_symmetry_equiv_pos_site_id
_symmetry_equiv_pos_as_xyz
1 x,y,z
_cell_length_a                   17.8091(4)
_cell_length_b                   25.5978(7)
_cell_length_c                   5.7377(2)
_cell_angle_alpha                90
_cell_angle_beta                 98.1557(12)
_cell_angle_gamma                90
_cell_volume                     2589.21
loop_
_atom_site_label
_atom_site_type_symbol
_atom_site_fract_x
_atom_site_fract_y
_atom_site_fract_z
C8 C 0.18126(15) 0.17386(11) 0.0936(5)
H5 H 0.1430 0.1859 0.1801
C9 C 0.22767(15) 0.13232(11) 0.1796(5)
H6 H 0.2220 0.1168 0.3265
C10 C 0.28240(14) 0.11368(10) 0.0495(5)
C13 C 0.33077(14) 0.06810(10) 0.1383(5)
O5 O 0.33061(10) 0.05469(7) 0.3517(3)
Cu8 Cu 0.416466(16) 0.021793(11) 0.54994(5)
O1 O 0.0000 0.50940(9) 0.2500
C1 C -0.0000 0.38586(13) 0.2500
C2 C -0.0000 0.32755(13) 0.2500
C3 C 0.04429(13) 0.30094(9) 0.4341(5)
H1 H 0.0735 0.3195 0.5588
C4 C 0.04441(13) 0.24653(10) 0.4293(4)
C5 C -0.0000 0.21903(13) 0.2500
H2 H 0.0000 0.1819 0.2500
O3 O 0.08718(10) 0.21566(7) 0.5926(3)
C6 C 0.13808(14) 0.24036(10) 0.7785(5)
H3 H 0.1095 0.2553 0.8988
H4 H 0.1670 0.2687 0.7147
C7 C 0.19047(14) 0.19779(10) 0.8830(5)
C11 C 0.29240(15) 0.13766(11) 0.8390(5)
H7 H 0.3297 0.1251 0.7501
C12 C 0.24730(16) 0.18037(11) 0.7588(5)
H8 H 0.2555 0.1977 0.6182
O4 O 0.36882(10) 0.04630(7) 0.9944(3)
O6 O 0.04079(10) 0.40820(6) 0.4192(3)
Cu2 Cu 0.083534(16) 0.478207(11) 0.45006(5)
O11 O 0.0000 0.49060(9) 0.7500
O13 O 0.13118(10) 0.54630(7) 0.5056(3)
O14 O 0.16939(10) 0.44531(7) 0.6483(3)
Cu5 Cu 0.083534(16) 0.521793(11) 0.95006(5)
Cu3 Cu 0.416466(16) 0.978207(11) 0.04994(5)
Cu1 Cu 0.916466(16) 0.478207(11) 0.04994(5)
O1_2 O 1.0000 0.50940(9) 0.2500
O2 O 0.95921(10) 0.40820(6) 0.0808(3)
C1_2 C 1.0000 0.38586(13) 0.2500
C2_2 C 1.0000 0.32755(13) 0.2500
C5_2 C 1.0000 0.21903(13) 0.2500
H2_2 H 1.0000 0.1819 0.2500
C14 C 0.95571(13) 0.30094(9) 0.0659(5)
C15 C 0.95559(13) 0.24653(10) 0.0707(4)
Cu6 Cu 0.916466(16) 0.521793(11) 0.54994(5)
O11_2 O 1.0000 0.49060(9) 0.7500
H9 H 0.9265 0.3195 0.9412
O7 O 0.91282(10) 0.21566(7) 0.9074(3)
C16 C 0.86192(14) 0.24036(10) 0.7215(5)
H10 H 0.8905 0.2553 0.6012
H11 H 0.8330 0.2687 0.7853
C17 C 0.80953(14) 0.19779(10) 0.6170(5)
C18 C 0.81874(15) 0.17386(11) 0.4064(5)
H12 H 0.8570 0.1859 0.3199
C19 C 0.77233(15) 0.13232(11) 0.3204(5)
H13 H 0.7780 0.1168 0.1735
C20 C 0.71760(14) 0.11368(10) 0.4505(5)
C21 C 0.70760(15) 0.13766(11) 0.6610(5)
H14 H 0.6703 0.1251 0.7499
C22 C 0.75270(16) 0.18037(11) 0.7412(5)
H15 H 0.7445 0.1977 0.8818
C23 C 0.66923(14) 0.06810(10) 0.3617(5)
O8 O 0.63118(10) 0.04630(7) 0.5056(3)
O9 O 0.66939(10) 0.05469(7) 0.1483(3)
O12 O 0.86882(10) 0.54630(7) 0.9944(3)
O15 O 0.83061(10) 0.44531(7) 0.8517(3)
Cu7 Cu 0.583534(16) 0.021793(11) 0.95006(5)
Cu4 Cu 0.583534(16) 0.978207(11) 0.45006(5)
O1_3 O 0.5000 0.00940(9) 0.2500
C8_2 C 0.68126(15) 0.67386(11) 0.0936(5)
H5_2 H 0.6430 0.6859 0.1801
C9_2 C 0.72767(15) 0.63232(11) 0.1796(5)
H6_2 H 0.7220 0.6168 0.3265
C10_2 C 0.78240(14) 0.61368(10) 0.0495(5)
C13_2 C 0.83077(14) 0.56810(10) 0.1383(5)
O5_2 O 0.83061(10) 0.55469(7) 0.3517(3)
O2_2 O 0.45921(10) 0.90820(6) 0.0808(3)
C1_3 C 0.5000 0.88586(13) 0.2500
C2_3 C 0.5000 0.82755(13) 0.2500
C3_2 C 0.54429(13) 0.80094(9) 0.4341(5)
H1_2 H 0.5735 0.8195 0.5588
C4_2 C 0.54441(13) 0.74653(10) 0.4293(4)
C5_3 C 0.5000 0.71903(13) 0.2500
H2_3 H 0.5000 0.6819 0.2500
O3_2 O 0.58718(10) 0.71566(7) 0.5926(3)
C6_2 C 0.63808(14) 0.74036(10) 0.7785(5)
H3_2 H 0.6095 0.7553 0.8988
H4_2 H 0.6670 0.7687 0.7147
C7_2 C 0.69047(14) 0.69779(10) 0.8830(5)
C11_2 C 0.79240(15) 0.63766(11) 0.8390(5)
H7_2 H 0.8297 0.6251 0.7501
C12_2 C 0.74730(16) 0.68037(11) 0.7588(5)
H8_2 H 0.7555 0.6977 0.6182
O6_2 O 0.54079(10) 0.90820(6) 0.4192(3)
C14_2 C 0.45571(13) 0.80094(9) 0.0659(5)
C15_2 C 0.45559(13) 0.74653(10) 0.0707(4)
O11_3 O 0.5000 0.99060(9) 0.7500
O14_2 O 0.66939(10) 0.94531(7) 0.6483(3)
H9_2 H 0.4265 0.8195 0.9412
O7_2 O 0.41282(10) 0.71566(7) 0.9074(3)
C16_2 C 0.36192(14) 0.74036(10) 0.7215(5)
H10_2 H 0.3905 0.7553 0.6012
H11_2 H 0.3330 0.7687 0.7853
C17_2 C 0.30953(14) 0.69779(10) 0.6170(5)
C18_2 C 0.31874(15) 0.67386(11) 0.4064(5)
H12_2 H 0.3570 0.6859 0.3199
C19_2 C 0.27233(15) 0.63232(11) 0.3204(5)
H13_2 H 0.2780 0.6168 0.1735
C20_2 C 0.21760(14) 0.61368(10) 0.4505(5)
C21_2 C 0.20760(15) 0.63766(11) 0.6610(5)
H14_2 H 0.1703 0.6251 0.7499
C22_2 C 0.25270(16) 0.68037(11) 0.7412(5)
H15_2 H 0.2445 0.6977 0.8818
C23_2 C 0.16923(14) 0.56810(10) 0.3617(5)
O9_2 O 0.16939(10) 0.55469(7) 0.1483(3)
O15_2 O 0.33061(10) 0.94531(7) 0.8517(3)
H9_3 H 0.0735 0.6805 0.0588
O7_3 O 0.08718(10) 0.78434(7) 0.0926(3)
C16_3 C 0.13808(14) 0.75964(10) 0.2785(5)
H10_3 H 0.1095 0.7447 0.3988
H11_3 H 0.1670 0.7313 0.2147
C17_3 C 0.19047(14) 0.80221(10) 0.3830(5)
C18_3 C 0.18126(15) 0.82614(11) 0.5936(5)
H12_3 H 0.1430 0.8141 0.6801
C19_3 C 0.22767(15) 0.86768(11) 0.6796(5)
H13_3 H 0.2220 0.8832 0.8265
C20_3 C 0.28240(14) 0.88632(10) 0.5495(5)
C21_3 C 0.29240(15) 0.86234(11) 0.3390(5)
H14_3 H 0.3297 0.8749 0.2501
C22_3 C 0.24730(16) 0.81963(11) 0.2588(5)
H15_3 H 0.2555 0.8023 0.1182
C23_3 C 0.33077(14) 0.93190(10) 0.6383(5)
O8_2 O 0.36882(10) 0.95370(7) 0.4944(3)
O12_2 O 0.13118(10) 0.45370(7) 0.0056(3)
O2_3 O 0.04079(10) 0.59180(6) 0.9192(3)
C1_4 C -0.0000 0.61414(13) 0.7500
C2_4 C -0.0000 0.67245(13) 0.7500
C5_4 C -0.0000 0.78097(13) 0.7500
H2_4 H 0.0000 0.8181 0.7500
C14_3 C 0.04429(13) 0.69906(9) 0.9341(5)
C15_3 C 0.04441(13) 0.75347(10) 0.9293(4)
C1_5 C 1.0000 0.61414(13) 0.7500
C2_5 C 1.0000 0.67245(13) 0.7500
C3_3 C 0.95571(13) 0.69906(9) 0.5659(5)
H1_3 H 0.9265 0.6805 0.4412
C4_3 C 0.95559(13) 0.75347(10) 0.5707(4)
C5_5 C 1.0000 0.78097(13) 0.7500
H2_5 H 1.0000 0.8181 0.7500
O3_3 O 0.91282(10) 0.78434(7) 0.4074(3)
C6_3 C 0.86192(14) 0.75964(10) 0.2215(5)
H3_3 H 0.8905 0.7447 0.1012
H4_3 H 0.8330 0.7313 0.2853
C7_3 C 0.80953(14) 0.80221(10) 0.1170(5)
C11_3 C 0.70760(15) 0.86234(11) 0.1610(5)
H7_3 H 0.6703 0.8749 0.2499
C12_3 C 0.75270(16) 0.81963(11) 0.2412(5)
H8_3 H 0.7445 0.8023 0.3818
O4_2 O 0.63118(10) 0.95370(7) 0.0056(3)
O6_3 O 0.95921(10) 0.59180(6) 0.5808(3)
O13_2 O 0.86882(10) 0.45370(7) 0.4944(3)
C8_3 C 0.81874(15) 0.82614(11) 0.9064(5)
H5_3 H 0.8570 0.8141 0.8199
C9_3 C 0.77233(15) 0.86768(11) 0.8204(5)
H6_3 H 0.7780 0.8832 0.6735
C10_3 C 0.71760(14) 0.88632(10) 0.9505(5)
C13_3 C 0.66923(14) 0.93190(10) 0.8617(5)
H9_4 H 0.5735 0.1805 0.0588
O7_4 O 0.58718(10) 0.28434(7) 0.0926(3)
C16_4 C 0.63808(14) 0.25964(10) 0.2785(5)
H10_4 H 0.6095 0.2447 0.3988
H11_4 H 0.6670 0.2313 0.2147
C17_4 C 0.69047(14) 0.30221(10) 0.3830(5)
C18_4 C 0.68126(15) 0.32614(11) 0.5936(5)
H12_4 H 0.6430 0.3141 0.6801
C19_4 C 0.72767(15) 0.36768(11) 0.6796(5)
H13_4 H 0.7220 0.3832 0.8265
C20_4 C 0.78240(14) 0.38632(10) 0.5495(5)
C21_4 C 0.79240(15) 0.36234(11) 0.3390(5)
H14_4 H 0.8297 0.3749 0.2501
C22_4 C 0.74730(16) 0.31963(11) 0.2588(5)
H15_4 H 0.7555 0.3023 0.1182
C23_4 C 0.83077(14) 0.43190(10) 0.6383(5)
O2_4 O 0.54079(10) 0.09180(6) 0.9192(3)
C1_6 C 0.5000 0.11414(13) 0.7500
C2_6 C 0.5000 0.17245(13) 0.7500
C3_4 C 0.45571(13) 0.19906(9) 0.5659(5)
H1_4 H 0.4265 0.1805 0.4412
C4_4 C 0.45559(13) 0.25347(10) 0.5707(4)
C5_6 C 0.5000 0.28097(13) 0.7500
H2_6 H 0.5000 0.3181 0.7500
O3_4 O 0.41282(10) 0.28434(7) 0.4074(3)
C6_4 C 0.36192(14) 0.25964(10) 0.2215(5)
H3_4 H 0.3905 0.2447 0.1012
H4_4 H 0.3330 0.2313 0.2853
C7_4 C 0.30953(14) 0.30221(10) 0.1170(5)
C11_4 C 0.20760(15) 0.36234(11) 0.1610(5)
H7_4 H 0.1703 0.3749 0.2499
C12_4 C 0.25270(16) 0.31963(11) 0.2412(5)
H8_4 H 0.2445 0.3023 0.3818
O6_4 O 0.45921(10) 0.09180(6) 0.5808(3)
C14_4 C 0.54429(13) 0.19906(9) 0.9341(5)
C15_4 C 0.54441(13) 0.25347(10) 0.9293(4)
C8_4 C 0.31874(15) 0.32614(11) 0.9064(5)
H5_4 H 0.3570 0.3141 0.8199
C9_4 C 0.27233(15) 0.36768(11) 0.8204(5)
H6_4 H 0.2780 0.3832 0.6735
C10_4 C 0.21760(14) 0.38632(10) 0.9505(5)
C13_4 C 0.16923(14) 0.43190(10) 0.8617(5)
loop_
_geom_bond_atom_site_label_1
_geom_bond_atom_site_label_2
_geom_bond_site_symmetry_1
_geom_bond_site_symmetry_2
H5 C8 1_555 1_555
C9 C8 1_555 1_555
H6 C9 1_555 1_555
C10 C9 1_555 1_555
C13 C10 1_555 1_555
O5 C13 1_555 1_555
Cu8 O5 1_555 1_555
O1 Cu2 1_555 1_555
C2 C1 1_555 1_555
C3 C2 1_555 1_555
H1 C3 1_555 1_555
C4 C3 1_555 1_555
C5 C4 1_555 1_555
H2 C5 1_555 1_555
O3 C4 1_555 1_555
C6 O3 1_555 1_555
H3 C6 1_555 1_555
H4 C6 1_555 1_555
C7 C6 1_555 1_555
H7 C11 1_555 1_555
C12 C7 1_555 1_555
H8 C12 1_555 1_555
O6 C1 1_555 1_555
Cu2 O6 1_555 1_555
O11 Cu2 1_555 1_555
O13 Cu2 1_555 1_555
O14 Cu2 1_555 1_555
C11 C12 1_555 1_555
Cu5 O11 1_555 1_555
Cu1 O1_2 1_555 1_555
O2 Cu1 1_555 1_555
C1_2 O2 1_555 1_555
C2_2 C1_2 1_555 1_555
H2_2 C5_2 1_555 1_555
C14 C2_2 1_555 1_555
C15 C5_2 1_555 1_555
Cu6 O1_2 1_555 1_555
C14 C15 1_555 1_555
Cu6 O11_2 1_555 1_555
C16 O7 1_555 1_555
H10 C16 1_555 1_555
H11 C16 1_555 1_555
C17 C16 1_555 1_555
C18 C17 1_555 1_555
H12 C18 1_555 1_555
C19 C18 1_555 1_555
H13 C19 1_555 1_555
C20 C19 1_555 1_555
C21 C20 1_555 1_555
H14 C21 1_555 1_555
C22 C17 1_555 1_555
H15 C22 1_555 1_555
C23 C20 1_555 1_555
O8 C23 1_555 1_555
O9 C23 1_555 1_555
C21 C22 1_555 1_555
Cu8 O1_3 1_555 1_555
H5_2 C8_2 1_555 1_555
C9_2 C8_2 1_555 1_555
H6_2 C9_2 1_555 1_555
C10_2 C9_2 1_555 1_555
C13_2 C10_2 1_555 1_555
O5_2 C13_2 1_555 1_555
Cu6 O5_2 1_555 1_555
O2_2 Cu3 1_555 1_555
C1_3 O2_2 1_555 1_555
C2_3 C1_3 1_555 1_555
C3_2 C2_3 1_555 1_555
H1_2 C3_2 1_555 1_555
C4_2 C3_2 1_555 1_555
C5_3 C4_2 1_555 1_555
H2_3 C5_3 1_555 1_555
O3_2 C4_2 1_555 1_555
C6_2 O3_2 1_555 1_555
H3_2 C6_2 1_555 1_555
H4_2 C6_2 1_555 1_555
C7_2 C6_2 1_555 1_555
H7_2 C11_2 1_555 1_555
C12_2 C7_2 1_555 1_555
H8_2 C12_2 1_555 1_555
O6_2 C1_3 1_555 1_555
C14_2 C2_3 1_555 1_555
C15_2 C5_3 1_555 1_555
Cu4 O6_2 1_555 1_555
O11_3 Cu4 1_555 1_555
O14_2 Cu4 1_555 1_555
C11_2 C12_2 1_555 1_555
C14_2 C15_2 1_555 1_555
C16_2 O7_2 1_555 1_555
H10_2 C16_2 1_555 1_555
H11_2 C16_2 1_555 1_555
C17_2 C16_2 1_555 1_555
C18_2 C17_2 1_555 1_555
H12_2 C18_2 1_555 1_555
C19_2 C18_2 1_555 1_555
H13_2 C19_2 1_555 1_555
C20_2 C19_2 1_555 1_555
C21_2 C20_2 1_555 1_555
H14_2 C21_2 1_555 1_555
C22_2 C17_2 1_555 1_555
H15_2 C22_2 1_555 1_555
C23_2 C20_2 1_555 1_555
O13 C23_2 1_555 1_555
O9_2 C23_2 1_555 1_555
C21_2 C22_2 1_555 1_555
C16_3 O7_3 1_555 1_555
H10_3 C16_3 1_555 1_555
H11_3 C16_3 1_555 1_555
C17_3 C16_3 1_555 1_555
C18_3 C17_3 1_555 1_555
H12_3 C18_3 1_555 1_555
C19_3 C18_3 1_555 1_555
H13_3 C19_3 1_555 1_555
C20_3 C19_3 1_555 1_555
C21_3 C20_3 1_555 1_555
H14_3 C21_3 1_555 1_555
C22_3 C17_3 1_555 1_555
H15_3 C22_3 1_555 1_555
C23_3 C20_3 1_555 1_555
O8_2 C23_3 1_555 1_555
O15_2 C23_3 1_555 1_555
C21_3 C22_3 1_555 1_555
O2_3 Cu5 1_555 1_555
C1_4 O2_3 1_555 1_555
C2_4 C1_4 1_555 1_555
H2_4 C5_4 1_555 1_555
C14_3 C2_4 1_555 1_555
C15_3 C5_4 1_555 1_555
C14_3 C15_3 1_555 1_555
C2_5 C1_5 1_555 1_555
C3_3 C2_5 1_555 1_555
H1_3 C3_3 1_555 1_555
C4_3 C3_3 1_555 1_555
C5_5 C4_3 1_555 1_555
H2_5 C5_5 1_555 1_555
O3_3 C4_3 1_555 1_555
C6_3 O3_3 1_555 1_555
H3_3 C6_3 1_555 1_555
H4_3 C6_3 1_555 1_555
C7_3 C6_3 1_555 1_555
H7_3 C11_3 1_555 1_555
C12_3 C7_3 1_555 1_555
H8_3 C12_3 1_555 1_555
O6_3 C1_5 1_555 1_555
Cu6 O6_3 1_555 1_555
O13_2 Cu6 1_555 1_555
C11_3 C12_3 1_555 1_555
H5_3 C8_3 1_555 1_555
C9_3 C8_3 1_555 1_555
H6_3 C9_3 1_555 1_555
C10_3 C9_3 1_555 1_555
C13_3 C10_3 1_555 1_555
O14_2 C13_3 1_555 1_555
C16_4 O7_4 1_555 1_555
H10_4 C16_4 1_555 1_555
H11_4 C16_4 1_555 1_555
C17_4 C16_4 1_555 1_555
C18_4 C17_4 1_555 1_555
H12_4 C18_4 1_555 1_555
C19_4 C18_4 1_555 1_555
H13_4 C19_4 1_555 1_555
C20_4 C19_4 1_555 1_555
C21_4 C20_4 1_555 1_555
H14_4 C21_4 1_555 1_555
C22_4 C17_4 1_555 1_555
H15_4 C22_4 1_555 1_555
C23_4 C20_4 1_555 1_555
O13_2 C23_4 1_555 1_555
O15 C23_4 1_555 1_555
C21_4 C22_4 1_555 1_555
O2_4 Cu7 1_555 1_555
C1_6 O2_4 1_555 1_555
C2_6 C1_6 1_555 1_555
C3_4 C2_6 1_555 1_555
H1_4 C3_4 1_555 1_555
C4_4 C3_4 1_555 1_555
C5_6 C4_4 1_555 1_555
H2_6 C5_6 1_555 1_555
O3_4 C4_4 1_555 1_555
C6_4 O3_4 1_555 1_555
H3_4 C6_4 1_555 1_555
H4_4 C6_4 1_555 1_555
C7_4 C6_4 1_555 1_555
H7_4 C11_4 1_555 1_555
C12_4 C7_4 1_555 1_555
H8_4 C12_4 1_555 1_555
O6_4 C1_6 1_555 1_555
C14_4 C2_6 1_555 1_555
C15_4 C5_6 1_555 1_555
Cu8 O6_4 1_555 1_555
C11_4 C12_4 1_555 1_555
C14_4 C15_4 1_555 1_555
H5_4 C8_4 1_555 1_555
C9_4 C8_4 1_555 1_555
H6_4 C9_4 1_555 1_555
C10_4 C9_4 1_555 1_555
C13_4 C10_4 1_555 1_555
O14 C13_4 1_555 1_555

#END
