
###############################################################################
#
# This file contains modified crystal structure data generated from the
# MOF subset of the Cambridge Structural Database (CSD) v543 
# hosted by the Cambridge Crystallographic Data Centre (CCDC).
#
# This work is licensed under the Creative Commons
# Attribution-NonCommercial-ShareAlike 4.0 International License.
# To view a copy of this license, visit
# http://creativecommons.org/licenses/by-nc-sa/4.0/
# or send a letter to
# Creative Commons, PO Box 1866, Mountain View, CA 94042, USA.
#
# CIF created using the CSD Python API on 29 September 2022
# The structure has been converted into the P1 space group
# The structure has a 3D framework
# The original CSD entry BEQFEK is in the tetragonal crystal system
# The framework has been calculated to contain at least 10.0% void space
# The void calculation uses a probe of radius 1.32A, grid spacing 0.4
#
###############################################################################

data_BEQFEK
_chemical_formula_moiety         '(C496 H400 Co32 N64 O92)n'
_symmetry_cell_setting           triclinic
_symmetry_space_group_name_H-M   'P 1'
_symmetry_Int_Tables_number      1
_space_group_name_Hall           'P 1'
loop_
_symmetry_equiv_pos_site_id
_symmetry_equiv_pos_as_xyz
1 x,y,z
_cell_length_a                   43.939(10)
_cell_length_b                   43.939(10)
_cell_length_c                   8.5387(19)
_cell_angle_alpha                90
_cell_angle_beta                 90
_cell_angle_gamma                90
_cell_volume                     16485.1
loop_
_atom_site_label
_atom_site_type_symbol
_atom_site_fract_x
_atom_site_fract_y
_atom_site_fract_z
H6 H 0.4001 0.0903 0.0795
O4 O 0.38570(4) 0.14423(4) 0.0969(2)
Co8 Co 0.379844(6) 0.176100(6) 0.25572(3)
O7 O 0.53531(5) 0.06878(4) 0.9629(2)
Co3 Co 0.552169(6) 0.095404(6) 0.80706(3)
Co4 Co 0.573900(6) 0.129844(6) 0.49428(3)
C39 C 0.57733(6) 0.06555(6) 0.5129(3)
C40 C 0.58410(6) 0.03473(5) 0.4454(3)
C41 C 0.59547(8) 0.03182(6) 0.2953(4)
H30 H 0.5992 0.0491 0.2358
C42 C 0.60130(9) 0.00337(6) 0.2327(4)
H31 H 0.6090 0.0018 0.1316
C45 C 0.57899(7) 0.00892(6) 0.5339(4)
H33 H 0.5717 0.0107 0.6357
C53 C 0.47367(6) 0.11033(7) 0.8352(3)
H38 H 0.4865 0.0967 0.8929
H39 H 0.4645 0.1246 0.9060
H40 H 0.4580 0.0989 0.7832
C54 C 0.49231(5) 0.12710(5) 0.7161(2)
C55 C 0.48288(5) 0.14883(5) 0.6062(2)
C56 C 0.50912(5) 0.15646(5) 0.5228(3)
C57 C 0.51246(6) 0.17948(7) 0.3926(4)
H41 H 0.5332 0.1798 0.3573
H42 H 0.4994 0.1740 0.3071
H43 H 0.5069 0.1993 0.4306
C58 C 0.44535(7) 0.13270(8) 0.2990(3)
H44 H 0.4296 0.1323 0.2210
H45 H 0.4637 0.1408 0.2540
H46 H 0.4490 0.1124 0.3361
C59 C 0.43553(5) 0.15244(5) 0.4332(3)
C60 C 0.45147(5) 0.15928(5) 0.5708(3)
C61 C 0.43219(5) 0.17737(6) 0.6596(3)
C62 C 0.43681(6) 0.19243(8) 0.8155(3)
H47 H 0.4187 0.2034 0.8438
H48 H 0.4410 0.1772 0.8933
H49 H 0.4536 0.2063 0.8090
N5 N 0.52228(4) 0.12222(4) 0.69954(19)
N6 N 0.53282(4) 0.14025(4) 0.5776(2)
N7 N 0.40788(4) 0.16588(4) 0.4360(2)
N8 N 0.40653(4) 0.18069(4) 0.5764(2)
H50 H 0.3910 0.1910 0.6078
O9 O 0.56877(4) 0.06648(4) 0.6534(2)
O10 O 0.58026(4) 0.08834(4) 0.4234(2)
N9 N 0.58412(4) 0.15788(4) 0.3140(2)
O14 O 0.58925(3) 0.11619(4) 0.8805(2)
O16 O 0.60577(4) 0.13570(4) 0.6531(2)
Co1 Co 0.052169(6) 0.095404(6) 0.69294(3)
C1 C 0.07733(6) 0.06555(6) 0.9871(3)
C7 C 0.07899(7) 0.00892(6) 0.9661(4)
H4 H 0.0717 0.0107 0.8643
C15 C 0.02830(6) 0.07991(6) 0.4022(3)
C16 C 0.01726(6) 0.05667(6) 0.2851(3)
C17 C 0.01690(10) 0.02606(7) 0.3253(3)
H9 H 0.0215 0.0202 0.4272
C18 C 0.00967(10) 0.00419(7) 0.2147(3)
C19 C 0.00290(7) 0.01200(6) 0.0610(3)
C20 C 0.00213(6) 0.04283(6) 0.0240(3)
C21 C 0.00911(6) 0.06497(6) 0.1348(3)
H12 H 0.0083 0.0855 0.1076
C25 C 0.00912(5) 0.15646(5) 0.9772(3)
N1 N 0.02228(4) 0.12222(4) 0.80046(19)
N2 N 0.03282(4) 0.14025(4) 0.9224(2)
O1 O 0.06877(4) 0.06648(4) 0.8466(2)
O5 O 0.03531(5) 0.06878(4) 0.5371(2)
O6 O 0.03002(5) 0.10720(4) 0.3688(2)
O13 O 0.08925(3) 0.11619(4) 0.6195(2)
O15 O 0.10577(4) 0.13570(4) 0.8469(2)
Co2 Co 0.620156(6) 0.323900(6) 0.25572(3)
C1_2 C 0.68445(6) 0.32733(6) 0.2371(3)
C2 C 0.71527(5) 0.33410(6) 0.3046(3)
C3 C 0.71818(6) 0.34547(8) 0.4547(4)
H1 H 0.7009 0.3492 0.5142
C4 C 0.74663(6) 0.35130(9) 0.5173(4)
H2 H 0.7482 0.3590 0.6184
C5 C 0.77301(6) 0.34575(7) 0.4301(4)
C6 C 0.76992(6) 0.33473(7) 0.2787(4)
H3 H 0.7872 0.3311 0.2183
C7_2 C 0.74108(6) 0.32899(7) 0.2161(4)
H4_2 H 0.7393 0.3217 0.1143
C8 C 0.80379(6) 0.35163(7) 0.4986(4)
C9 C 0.80901(6) 0.34698(7) 0.6577(4)
H5 H 0.7934 0.3397 0.7207
C10 C 0.83718(6) 0.35316(7) 0.7231(3)
H6_2 H 0.8403 0.3499 0.8295
C11 C 0.86072(5) 0.36410(6) 0.6309(3)
C12 C 0.85599(6) 0.36821(7) 0.4719(3)
H7 H 0.8718 0.3750 0.4087
C13 C 0.82758(6) 0.36215(8) 0.4064(4)
H8 H 0.8245 0.3652 0.2997
C14 C 0.89096(5) 0.37132(5) 0.7044(3)
C23 C 0.62290(5) 0.24231(5) 0.0339(2)
C24 C 0.60117(5) 0.23288(5) 0.1438(2)
C25_2 C 0.59354(5) 0.25912(5) 0.2272(3)
C26 C 0.57052(7) 0.26246(6) 0.3574(4)
H16 H 0.5702 0.2832 0.3927
H17 H 0.5760 0.2494 0.4429
H18 H 0.5507 0.2569 0.3194
C27 C 0.61730(8) 0.19535(7) 0.4510(3)
H19 H 0.6177 0.1796 0.5290
H20 H 0.6092 0.2137 0.4960
H21 H 0.6376 0.1990 0.4139
C28 C 0.59756(5) 0.18553(5) 0.3168(3)
C29 C 0.59072(5) 0.20147(5) 0.1792(3)
C30 C 0.57263(6) 0.18219(5) 0.0904(3)
N1_2 N 0.62778(4) 0.27228(4) 0.05046(19)
N2_2 N 0.60975(4) 0.28282(4) 0.1724(2)
N4 N 0.56931(4) 0.15653(4) 0.1736(2)
H25 H 0.5590 0.1410 0.1422
O1_2 O 0.68352(4) 0.31877(4) 0.0966(2)
O2 O 0.66166(4) 0.33026(4) 0.3266(2)
O3 O 0.91075(3) 0.38381(4) 0.6195(2)
O4_2 O 0.89423(4) 0.36430(4) 0.8469(2)
Co5 Co 0.947831(6) 0.404596(6) 0.69294(3)
N10 N 0.59212(4) 0.33412(4) 0.4360(2)
O15_2 O 0.61430(4) 0.35577(4) 0.0969(2)
H30_2 H 0.7991 0.1508 0.9858
C42_2 C 0.75337(6) 0.14870(9) 0.9827(4)
H31_2 H 0.7518 0.1410 0.8816
C47 C 0.69099(6) 0.15302(7) 0.8423(4)
H34 H 0.7066 0.1603 0.7793
C48 C 0.66282(6) 0.14684(7) 0.7769(3)
H35 H 0.6597 0.1501 0.6705
C49 C 0.63928(5) 0.13590(6) 0.8691(3)
C52 C 0.60904(5) 0.12868(5) 0.7956(3)
H44_2 H 0.8823 0.3204 0.9710
C1_3 C 0.92267(6) 0.43445(6) 0.9871(3)
H3_2 H 0.9189 0.5372 0.9683
C7_3 C 0.92101(7) 0.49108(6) 0.9661(4)
H4_3 H 0.9283 0.4893 0.8643
C15_2 C 0.97170(6) 0.42009(6) 0.4022(3)
C16_2 C 0.98274(6) 0.44333(6) 0.2851(3)
C17_2 C 0.98310(10) 0.47394(7) 0.3253(3)
H9_2 H 0.9785 0.4798 0.4272
C18_2 C 0.99033(10) 0.49581(7) 0.2147(3)
H10 H 0.9907 0.5162 0.2440
C19_2 C 0.99710(7) 0.48800(6) 0.0610(3)
C20_2 C 0.99787(6) 0.45717(6) 0.0240(3)
C21_2 C 0.99089(6) 0.43503(6) 0.1348(3)
H12_2 H 0.9917 0.4145 0.1076
C25_3 C 0.99088(5) 0.34354(5) 0.9772(3)
N1_3 N 0.97772(4) 0.37778(4) 0.80046(19)
N2_3 N 0.96718(4) 0.35975(4) 0.9224(2)
O1_3 O 0.93123(4) 0.43352(4) 0.8466(2)
O5_2 O 0.96469(5) 0.43122(4) 0.5371(2)
O6_2 O 0.96998(5) 0.39280(4) 0.3688(2)
H28 H 0.9968 0.5488 0.0769
H6_3 H 0.5999 0.4097 0.0795
O7_2 O 0.46469(5) 0.43122(4) 0.9629(2)
Co3_2 Co 0.447831(6) 0.404596(6) 0.80706(3)
Co4_2 Co 0.426100(6) 0.370156(6) 0.49428(3)
C39_2 C 0.42267(6) 0.43445(6) 0.5129(3)
C40_2 C 0.41590(6) 0.46527(5) 0.4454(3)
C41_2 C 0.40453(8) 0.46818(6) 0.2953(4)
H30_3 H 0.4008 0.4509 0.2358
C42_3 C 0.39870(9) 0.49663(6) 0.2327(4)
H31_3 H 0.3910 0.4982 0.1316
C43 C 0.40425(7) 0.52301(6) 0.3199(4)
C44 C 0.41527(7) 0.51992(6) 0.4713(4)
H32 H 0.4189 0.5372 0.5317
C45_2 C 0.42101(7) 0.49108(6) 0.5339(4)
H33_2 H 0.4283 0.4893 0.6357
C46 C 0.39837(7) 0.55379(6) 0.2514(4)
C47_2 C 0.40302(7) 0.55901(6) 0.0923(4)
H34_2 H 0.4103 0.5434 0.0293
C48_2 C 0.39684(7) 0.58718(6) 0.0269(3)
C49_2 C 0.38590(6) 0.61072(5) 0.1191(3)
C50 C 0.38179(7) 0.60599(6) 0.2781(3)
H36 H 0.3750 0.6218 0.3413
C51 C 0.38785(8) 0.57758(6) 0.3436(4)
H37 H 0.3848 0.5745 0.4503
C52_2 C 0.37868(5) 0.64096(5) 0.0456(3)
C53_2 C 0.52633(6) 0.38967(7) 0.8352(3)
H38_2 H 0.5135 0.4033 0.8929
H39_2 H 0.5355 0.3754 0.9060
H40_2 H 0.5420 0.4011 0.7832
C54_2 C 0.50769(5) 0.37290(5) 0.7161(2)
C55_2 C 0.51712(5) 0.35117(5) 0.6062(2)
C56_2 C 0.49088(5) 0.34354(5) 0.5228(3)
C57_2 C 0.48754(6) 0.32052(7) 0.3926(4)
H41_2 H 0.4668 0.3202 0.3573
H42_2 H 0.5006 0.3260 0.3071
H43_2 H 0.4931 0.3007 0.4306
C58_2 C 0.55465(7) 0.36730(8) 0.2990(3)
H44_3 H 0.5704 0.3677 0.2210
H45_2 H 0.5363 0.3592 0.2540
H46_2 H 0.5510 0.3876 0.3361
C59_2 C 0.56447(5) 0.34756(5) 0.4332(3)
C60_2 C 0.54853(5) 0.34072(5) 0.5708(3)
C61_2 C 0.56781(5) 0.32263(6) 0.6596(3)
C62_2 C 0.56319(6) 0.30757(8) 0.8155(3)
H47_2 H 0.5813 0.2966 0.8438
H48_2 H 0.5590 0.3228 0.8933
H49_2 H 0.5464 0.2937 0.8090
N5_2 N 0.47772(4) 0.37778(4) 0.69954(19)
N6_2 N 0.46718(4) 0.35975(4) 0.5776(2)
N8_2 N 0.59347(4) 0.31931(4) 0.5764(2)
H50_2 H 0.6090 0.3090 0.6078
O9_2 O 0.43123(4) 0.43352(4) 0.6534(2)
O10_2 O 0.41974(4) 0.41166(4) 0.4234(2)
O11 O 0.36619(4) 0.66075(3) 0.1305(2)
Co6 Co 0.345404(6) 0.697831(6) 0.05706(3)
N9_2 N 0.41588(4) 0.34212(4) 0.3140(2)
O14_2 O 0.41075(3) 0.38381(4) 0.8805(2)
O16_2 O 0.39423(4) 0.36430(4) 0.6531(2)
C1_4 C 0.31555(6) 0.17267(6) 0.2371(3)
C2_2 C 0.28473(5) 0.16590(6) 0.3046(3)
C3_2 C 0.28182(6) 0.15453(8) 0.4547(4)
H1_2 H 0.2991 0.1508 0.5142
C4_2 C 0.25337(6) 0.14870(9) 0.5173(4)
H2_2 H 0.2518 0.1410 0.6184
C5_2 C 0.22699(6) 0.15425(7) 0.4301(4)
C6_2 C 0.23008(6) 0.16527(7) 0.2787(4)
H3_3 H 0.2128 0.1689 0.2183
C7_4 C 0.25892(6) 0.17101(7) 0.2161(4)
H4_4 H 0.2607 0.1783 0.1143
C8_2 C 0.19621(6) 0.14837(7) 0.4986(4)
C9_2 C 0.19099(6) 0.15302(7) 0.6577(4)
H5_2 H 0.2066 0.1603 0.7207
C10_2 C 0.16282(6) 0.14684(7) 0.7231(3)
H6_4 H 0.1597 0.1501 0.8295
C11_2 C 0.13928(5) 0.13590(6) 0.6309(3)
C12_2 C 0.14401(6) 0.13179(7) 0.4719(3)
H7_2 H 0.1282 0.1250 0.4087
C13_2 C 0.17242(6) 0.13785(8) 0.4064(4)
H8_2 H 0.1755 0.1348 0.2997
C14_2 C 0.10904(5) 0.12868(5) 0.7044(3)
C23_2 C 0.37710(5) 0.25769(5) 0.0339(2)
C24_2 C 0.39883(5) 0.26712(5) 0.1438(2)
C25_4 C 0.40646(5) 0.24088(5) 0.2272(3)
C26_2 C 0.42948(7) 0.23754(6) 0.3574(4)
H16_2 H 0.4298 0.2168 0.3927
H17_2 H 0.4240 0.2506 0.4429
H18_2 H 0.4493 0.2431 0.3194
C27_2 C 0.38270(8) 0.30465(7) 0.4510(3)
H19_2 H 0.3823 0.3204 0.5290
H20_2 H 0.3908 0.2863 0.4960
H21_2 H 0.3624 0.3010 0.4139
C28_2 C 0.40244(5) 0.31447(5) 0.3168(3)
C29_2 C 0.40928(5) 0.29853(5) 0.1792(3)
C30_2 C 0.42737(6) 0.31781(5) 0.0904(3)
N1_4 N 0.37222(4) 0.22772(4) 0.05046(19)
N2_4 N 0.39025(4) 0.21718(4) 0.1724(2)
N4_2 N 0.43069(4) 0.34347(4) 0.1736(2)
H25_2 H 0.4410 0.3590 0.1422
O1_4 O 0.31648(4) 0.18123(4) 0.0966(2)
O2_2 O 0.33834(4) 0.16974(4) 0.3266(2)
H30_4 H 0.2009 0.3492 0.9858
C42_4 C 0.24663(6) 0.35130(9) 0.9827(4)
H31_4 H 0.2482 0.3590 0.8816
C47_3 C 0.30901(6) 0.34698(7) 0.8423(4)
H34_3 H 0.2934 0.3397 0.7793
C48_3 C 0.33718(6) 0.35316(7) 0.7769(3)
H35_2 H 0.3403 0.3499 0.6705
C49_3 C 0.36072(5) 0.36410(6) 0.8691(3)
C52_3 C 0.39096(5) 0.37132(5) 0.7956(3)
H44_4 H 0.1177 0.1796 0.9710
C18_3 C 0.24581(7) 0.75967(10) 0.9647(3)
H10_2 H 0.2662 0.7593 0.9940
C19_3 C 0.23800(6) 0.75290(7) 0.8110(3)
C20_3 C 0.20717(6) 0.75213(6) 0.7740(3)
H11 H 0.2012 0.7468 0.6731
C21_3 C 0.18503(6) 0.75911(6) 0.8848(3)
H12_3 H 0.1645 0.7583 0.8576
C32 C 0.32991(6) 0.72170(6) 0.3478(3)
C33 C 0.30667(6) 0.73274(6) 0.4649(3)
C34 C 0.27606(7) 0.73310(10) 0.4247(3)
H26 H 0.2702 0.7285 0.3228
C35 C 0.25419(7) 0.74033(10) 0.5353(3)
H27 H 0.2338 0.7407 0.5060
C36 C 0.26200(6) 0.74710(7) 0.6890(3)
C37 C 0.29283(6) 0.74787(6) 0.7260(3)
H28_2 H 0.2988 0.7532 0.8269
C38 C 0.31497(6) 0.74089(6) 0.6152(3)
H29 H 0.3355 0.7417 0.6424
O7_3 O 0.31878(4) 0.71469(5) 0.2129(2)
O8 O 0.35720(4) 0.71998(5) 0.3812(2)
C53_3 C 0.36033(7) 0.77633(6) 0.0852(3)
H38_3 H 0.3467 0.7635 0.1429
H39_3 H 0.3746 0.7855 0.1560
H40_3 H 0.3489 0.7920 0.0332
C62_3 C 0.44243(8) 0.81319(6) 0.0655(3)
H47_3 H 0.4534 0.8313 0.0938
H48_3 H 0.4272 0.8090 0.1433
H49_3 H 0.4563 0.7964 0.0590
C5_3 C 0.40425(7) 0.02301(6) 0.6801(4)
C6_3 C 0.41527(7) 0.01992(6) 0.5287(4)
H3_4 H 0.4189 0.0372 0.4683
C8_3 C 0.39837(7) 0.05379(6) 0.7486(4)
C9_3 C 0.40302(7) 0.05901(6) 0.9077(4)
H5_3 H 0.4103 0.0434 0.9707
C10_3 C 0.39684(7) 0.08718(6) 0.9731(3)
C11_3 C 0.38590(6) 0.11072(5) 0.8809(3)
C12_3 C 0.38179(7) 0.10599(6) 0.7219(3)
H7_3 H 0.3750 0.1218 0.6587
C13_3 C 0.38785(8) 0.07758(6) 0.6564(4)
H8_3 H 0.3848 0.0745 0.5497
C14_3 C 0.37868(5) 0.14096(5) 0.9544(3)
O3_2 O 0.36619(4) 0.16075(3) 0.8695(2)
Co5_2 Co 0.345404(6) 0.197831(6) 0.94294(3)
C15_3 C 0.32991(6) 0.22170(6) 0.6522(3)
C16_3 C 0.30667(6) 0.23274(6) 0.5351(3)
C17_3 C 0.27606(7) 0.23310(10) 0.5753(3)
H9_3 H 0.2702 0.2285 0.6772
C18_4 C 0.25419(7) 0.24033(10) 0.4647(3)
H10_3 H 0.2338 0.2407 0.4940
C19_4 C 0.26200(6) 0.24710(7) 0.3110(3)
C20_4 C 0.29283(6) 0.24787(6) 0.2740(3)
H11_2 H 0.2988 0.2532 0.1731
C21_4 C 0.31497(6) 0.24089(6) 0.3848(3)
H12_4 H 0.3355 0.2417 0.3576
C22 C 0.36033(7) 0.27633(6) 0.9148(3)
H13 H 0.3467 0.2635 0.8571
H14 H 0.3746 0.2855 0.8440
H15 H 0.3489 0.2920 0.9668
C31 C 0.44243(8) 0.31319(6) 0.9345(3)
H22 H 0.4534 0.3313 0.9062
H23 H 0.4272 0.3090 0.8567
H24 H 0.4563 0.2964 0.9410
O5_3 O 0.31878(4) 0.21469(5) 0.7871(2)
O6_3 O 0.35720(4) 0.21998(5) 0.6188(2)
C35_2 C 0.24581(7) 0.25967(10) 0.0353(3)
H27_2 H 0.2662 0.2593 0.0060
C36_2 C 0.23800(6) 0.25290(7) 0.1890(3)
C37_2 C 0.20717(6) 0.25213(6) 0.2260(3)
H28_3 H 0.2012 0.2468 0.3269
C38_2 C 0.18503(6) 0.25911(6) 0.1152(3)
H29_2 H 0.1645 0.2583 0.1424
H10_4 H 0.4907 0.0162 0.7440
C32_2 C 0.52830(6) 0.07991(6) 0.0978(3)
C33_2 C 0.51726(6) 0.05667(6) 0.2149(3)
C34_2 C 0.51690(10) 0.02606(7) 0.1747(3)
H26_2 H 0.5215 0.0202 0.0728
C35_3 C 0.50967(10) 0.00419(7) 0.2853(3)
C36_3 C 0.50290(7) 0.01200(6) 0.4390(3)
C37_3 C 0.50213(6) 0.04283(6) 0.4760(3)
H28_4 H 0.4968 0.0488 0.5769
C38_3 C 0.50911(6) 0.06497(6) 0.3652(3)
H29_3 H 0.5083 0.0855 0.3924
O8_2 O 0.53002(5) 0.10720(4) 0.1312(2)
Co1_2 Co 0.447831(6) 0.904596(6) 0.19294(3)
Co2_2 Co 0.426100(6) 0.870156(6) 0.50572(3)
C1_5 C 0.42267(6) 0.93445(6) 0.4871(3)
C2_3 C 0.41590(6) 0.96527(5) 0.5546(3)
C3_3 C 0.40453(8) 0.96818(6) 0.7047(4)
H1_3 H 0.4008 0.9509 0.7642
C4_3 C 0.39870(9) 0.99663(6) 0.7673(4)
H2_3 H 0.3910 0.9982 0.8684
C7_5 C 0.42101(7) 0.99108(6) 0.4661(4)
H4_5 H 0.4283 0.9893 0.3643
C22_2 C 0.52633(6) 0.88967(7) 0.1648(3)
H13_2 H 0.5135 0.9033 0.1071
H14_2 H 0.5355 0.8754 0.0940
H15_2 H 0.5420 0.9011 0.2168
C23_3 C 0.50769(5) 0.87290(5) 0.2839(2)
C24_3 C 0.51712(5) 0.85117(5) 0.3938(2)
C25_5 C 0.49088(5) 0.84354(5) 0.4772(3)
C26_3 C 0.48754(6) 0.82052(7) 0.6074(4)
H16_3 H 0.4668 0.8202 0.6427
H17_3 H 0.5006 0.8260 0.6929
H18_3 H 0.4931 0.8007 0.5694
C27_3 C 0.55465(7) 0.86730(8) 0.7010(3)
H19_3 H 0.5704 0.8677 0.7790
H20_3 H 0.5363 0.8592 0.7460
H21_3 H 0.5510 0.8876 0.6639
C28_3 C 0.56447(5) 0.84756(5) 0.5668(3)
C29_3 C 0.54853(5) 0.84072(5) 0.4292(3)
C30_3 C 0.56781(5) 0.82263(6) 0.3404(3)
C31_2 C 0.56319(6) 0.80757(8) 0.1845(3)
H22_2 H 0.5813 0.7966 0.1562
H23_2 H 0.5590 0.8228 0.1067
H24_2 H 0.5464 0.7937 0.1910
N1_5 N 0.47772(4) 0.87778(4) 0.30046(19)
N2_5 N 0.46718(4) 0.85975(4) 0.4224(2)
N3 N 0.59212(4) 0.83412(4) 0.5640(2)
N4_3 N 0.59347(4) 0.81931(4) 0.4236(2)
H25_3 H 0.6090 0.8090 0.3922
O1_5 O 0.43123(4) 0.93352(4) 0.3466(2)
O2_3 O 0.41974(4) 0.91166(4) 0.5766(2)
O5_4 O 0.46469(5) 0.93122(4) 0.0371(2)
Co10 Co 0.620156(6) 0.823900(6) 0.74428(3)
N10_2 N 0.41588(4) 0.84212(4) 0.6860(2)
O13_2 O 0.41075(3) 0.88381(4) 0.1195(2)
O15_3 O 0.39423(4) 0.86430(4) 0.3469(2)
H35_3 H 0.5999 0.9097 0.9205
O12 O 0.61430(4) 0.85577(4) 0.9031(2)
C32_3 C 0.97170(6) 0.92009(6) 0.5978(3)
C33_3 C 0.98274(6) 0.94333(6) 0.7149(3)
C34_3 C 0.98310(10) 0.97394(7) 0.6747(3)
H26_3 H 0.9785 0.9798 0.5728
C35_4 C 0.99033(10) 0.99581(7) 0.7853(3)
C36_4 C 0.99710(7) 0.98800(6) 0.9390(3)
C37_4 C 0.99787(6) 0.95717(6) 0.9760(3)
C38_4 C 0.99089(6) 0.93503(6) 0.8652(3)
H29_4 H 0.9917 0.9145 0.8924
O7_4 O 0.96469(5) 0.93122(4) 0.4629(2)
O8_3 O 0.96998(5) 0.89280(4) 0.6312(2)
Co3_3 Co 0.947831(6) 0.904596(6) 0.30706(3)
C39_3 C 0.92267(6) 0.93445(6) 0.0129(3)
C45_3 C 0.92101(7) 0.99108(6) 0.0339(4)
H33_3 H 0.9283 0.9893 0.1357
C56_3 C 0.99088(5) 0.84354(5) 0.0228(3)
N5_3 N 0.97772(4) 0.87778(4) 0.19954(19)
N6_3 N 0.96718(4) 0.85975(4) 0.0776(2)
O9_3 O 0.93123(4) 0.93352(4) 0.1534(2)
O14_3 O 0.91075(3) 0.88381(4) 0.3805(2)
O16_3 O 0.89423(4) 0.86430(4) 0.1531(2)
H1_4 H 0.7991 0.6508 0.0142
C4_4 C 0.75337(6) 0.64870(9) 0.0173(4)
H2_4 H 0.7518 0.6410 0.1184
C9_4 C 0.69099(6) 0.65302(7) 0.1577(4)
H5_4 H 0.7066 0.6603 0.2207
C10_4 C 0.66282(6) 0.64684(7) 0.2231(3)
H6_5 H 0.6597 0.6501 0.3295
C11_4 C 0.63928(5) 0.63590(6) 0.1309(3)
C14_4 C 0.60904(5) 0.62868(5) 0.2044(3)
H19_4 H 0.8823 0.8204 0.0290
O3_3 O 0.58925(3) 0.61619(4) 0.1195(2)
O4_3 O 0.60577(4) 0.63570(4) 0.3469(2)
Co5_3 Co 0.552169(6) 0.595404(6) 0.19294(3)
Co8_2 Co 0.573900(6) 0.629844(6) 0.50572(3)
C39_4 C 0.68445(6) 0.82733(6) 0.7629(3)
C40_3 C 0.71527(5) 0.83410(6) 0.6954(3)
C41_3 C 0.71818(6) 0.84547(8) 0.5453(4)
H30_5 H 0.7009 0.8492 0.4858
C42_5 C 0.74663(6) 0.85130(9) 0.4827(4)
H31_5 H 0.7482 0.8590 0.3816
C43_2 C 0.77301(6) 0.84575(7) 0.5699(4)
C44_2 C 0.76992(6) 0.83473(7) 0.7213(4)
H32_2 H 0.7872 0.8311 0.7817
C45_4 C 0.74108(6) 0.82899(7) 0.7839(4)
H33_4 H 0.7393 0.8217 0.8857
C46_2 C 0.80379(6) 0.85163(7) 0.5014(4)
C47_4 C 0.80901(6) 0.84698(7) 0.3423(4)
H34_4 H 0.7934 0.8397 0.2793
C48_4 C 0.83718(6) 0.85316(7) 0.2769(3)
H35_4 H 0.8403 0.8499 0.1705
C49_4 C 0.86072(5) 0.86410(6) 0.3691(3)
C50_2 C 0.85599(6) 0.86821(7) 0.5281(3)
H36_2 H 0.8718 0.8750 0.5913
C51_2 C 0.82758(6) 0.86215(8) 0.5936(4)
H37_2 H 0.8245 0.8652 0.7003
C52_4 C 0.89096(5) 0.87132(5) 0.2956(3)
C54_3 C 0.62290(5) 0.74231(5) 0.9661(2)
C55_3 C 0.60117(5) 0.73288(5) 0.8562(2)
C56_4 C 0.59354(5) 0.75912(5) 0.7728(3)
C57_3 C 0.57052(7) 0.76246(6) 0.6426(4)
H41_3 H 0.5702 0.7832 0.6073
H42_3 H 0.5760 0.7494 0.5571
H43_3 H 0.5507 0.7569 0.6806
C58_3 C 0.61730(8) 0.69535(7) 0.5490(3)
H44_5 H 0.6177 0.6796 0.4710
H45_3 H 0.6092 0.7137 0.5040
H46_3 H 0.6376 0.6990 0.5861
C59_3 C 0.59756(5) 0.68553(5) 0.6832(3)
C60_3 C 0.59072(5) 0.70147(5) 0.8208(3)
C61_3 C 0.57263(6) 0.68219(5) 0.9096(3)
N5_4 N 0.62778(4) 0.77228(4) 0.94954(19)
N6_4 N 0.60975(4) 0.78282(4) 0.8276(2)
N7_2 N 0.58412(4) 0.65788(4) 0.6860(2)
N8_3 N 0.56931(4) 0.65653(4) 0.8264(2)
H50_3 H 0.5590 0.6410 0.8578
O9_4 O 0.68352(4) 0.81877(4) 0.9034(2)
O10_3 O 0.66166(4) 0.83026(4) 0.6734(2)
Co1_3 Co 0.654596(6) 0.302169(6) 0.94294(3)
C15_4 C 0.67009(6) 0.27830(6) 0.6522(3)
C16_4 C 0.69333(6) 0.26726(6) 0.5351(3)
C17_4 C 0.72394(7) 0.26690(10) 0.5753(3)
H9_4 H 0.7298 0.2715 0.6772
C18_5 C 0.74581(7) 0.25967(10) 0.4647(3)
H10_5 H 0.7662 0.2593 0.4940
C19_5 C 0.73800(6) 0.25290(7) 0.3110(3)
C20_5 C 0.70717(6) 0.25213(6) 0.2740(3)
H11_3 H 0.7012 0.2468 0.1731
C21_5 C 0.68503(6) 0.25911(6) 0.3848(3)
H12_5 H 0.6645 0.2583 0.3576
C22_3 C 0.63967(7) 0.22367(6) 0.9148(3)
H13_3 H 0.6533 0.2365 0.8571
H14_3 H 0.6254 0.2145 0.8440
H15_3 H 0.6511 0.2080 0.9668
C31_3 C 0.55757(8) 0.18681(6) 0.9345(3)
H22_3 H 0.5466 0.1687 0.9062
H23_3 H 0.5728 0.1910 0.8567
H24_3 H 0.5437 0.2036 0.9410
O5_5 O 0.68122(4) 0.28531(5) 0.7871(2)
O6_4 O 0.64280(4) 0.28002(5) 0.6188(2)
C35_5 C 0.75419(7) 0.24033(10) 0.0353(3)
H27_3 H 0.7338 0.2407 0.0060
C36_5 C 0.76200(6) 0.24710(7) 0.1890(3)
C37_5 C 0.79283(6) 0.24787(6) 0.2260(3)
H28_5 H 0.7988 0.2532 0.3269
C38_5 C 0.81497(6) 0.24089(6) 0.1152(3)
H29_5 H 0.8355 0.2417 0.1424
O13_3 O 0.63381(4) 0.33925(3) 0.8695(2)
H11_4 H 0.0032 0.4512 0.9231
C32_4 C 0.02830(6) 0.57991(6) 0.5978(3)
C33_4 C 0.01726(6) 0.55667(6) 0.7149(3)
C34_4 C 0.01690(10) 0.52606(7) 0.6747(3)
H26_4 H 0.0215 0.5202 0.5728
C35_6 C 0.00967(10) 0.50419(7) 0.7853(3)
H27_4 H 0.0093 0.4838 0.7560
C36_6 C 0.00290(7) 0.51200(6) 0.9390(3)
C37_6 C 0.00213(6) 0.54283(6) 0.9760(3)
C38_6 C 0.00911(6) 0.56497(6) 0.8652(3)
H29_6 H 0.0083 0.5855 0.8924
O7_5 O 0.03531(5) 0.56878(4) 0.4629(2)
O8_4 O 0.03002(5) 0.60720(4) 0.6312(2)
Co3_4 Co 0.052169(6) 0.595404(6) 0.30706(3)
C39_5 C 0.07733(6) 0.56555(6) 0.0129(3)
H32_3 H 0.0811 0.4628 0.0317
C45_5 C 0.07899(7) 0.50892(6) 0.0339(4)
H33_5 H 0.0717 0.5107 0.1357
C56_5 C 0.00912(5) 0.65646(5) 0.0228(3)
N5_5 N 0.02228(4) 0.62222(4) 0.19954(19)
N6_5 N 0.03282(4) 0.64025(4) 0.0776(2)
O9_5 O 0.06877(4) 0.56648(4) 0.1534(2)
O14_4 O 0.08925(3) 0.61619(4) 0.3805(2)
O16_4 O 0.10577(4) 0.63570(4) 0.1531(2)
C1_6 C 0.57733(6) 0.56555(6) 0.4871(3)
C2_4 C 0.58410(6) 0.53473(5) 0.5546(3)
C3_4 C 0.59547(8) 0.53182(6) 0.7047(4)
H1_5 H 0.5992 0.5491 0.7642
C4_5 C 0.60130(9) 0.50337(6) 0.7673(4)
H2_5 H 0.6090 0.5018 0.8684
C5_4 C 0.59575(7) 0.47699(6) 0.6801(4)
C6_4 C 0.58473(7) 0.48008(6) 0.5287(4)
H3_5 H 0.5811 0.4628 0.4683
C7_6 C 0.57899(7) 0.50892(6) 0.4661(4)
H4_6 H 0.5717 0.5107 0.3643
C8_4 C 0.60163(7) 0.44621(6) 0.7486(4)
C9_5 C 0.59698(7) 0.44099(6) 0.9077(4)
H5_5 H 0.5897 0.4566 0.9707
C10_5 C 0.60316(7) 0.41282(6) 0.9731(3)
C11_5 C 0.61410(6) 0.38928(5) 0.8809(3)
C12_4 C 0.61821(7) 0.39401(6) 0.7219(3)
H7_4 H 0.6250 0.3782 0.6587
C13_4 C 0.61215(8) 0.42242(6) 0.6564(4)
H8_4 H 0.6152 0.4255 0.5497
C14_5 C 0.62132(5) 0.35904(5) 0.9544(3)
C22_4 C 0.47367(6) 0.61033(7) 0.1648(3)
H13_4 H 0.4865 0.5967 0.1071
H14_4 H 0.4645 0.6246 0.0940
H15_4 H 0.4580 0.5989 0.2168
C23_4 C 0.49231(5) 0.62710(5) 0.2839(2)
C24_4 C 0.48288(5) 0.64883(5) 0.3938(2)
C25_6 C 0.50912(5) 0.65646(5) 0.4772(3)
C26_4 C 0.51246(6) 0.67948(7) 0.6074(4)
H16_4 H 0.5332 0.6798 0.6427
H17_4 H 0.4994 0.6740 0.6929
H18_4 H 0.5069 0.6993 0.5694
C27_4 C 0.44535(7) 0.63270(8) 0.7010(3)
H19_5 H 0.4296 0.6323 0.7790
H20_4 H 0.4637 0.6408 0.7460
H21_4 H 0.4490 0.6124 0.6639
C28_4 C 0.43553(5) 0.65244(5) 0.5668(3)
C29_4 C 0.45147(5) 0.65928(5) 0.4292(3)
C30_4 C 0.43219(5) 0.67737(6) 0.3404(3)
C31_4 C 0.43681(6) 0.69243(8) 0.1845(3)
H22_4 H 0.4187 0.7034 0.1562
H23_4 H 0.4410 0.6772 0.1067
H24_4 H 0.4536 0.7063 0.1910
N1_6 N 0.52228(4) 0.62222(4) 0.30046(19)
N2_6 N 0.53282(4) 0.64025(4) 0.4224(2)
N3_2 N 0.40788(4) 0.66588(4) 0.5640(2)
N4_4 N 0.40653(4) 0.68069(4) 0.4236(2)
H25_4 H 0.3910 0.6910 0.3922
O1_6 O 0.56877(4) 0.56648(4) 0.3466(2)
O2_4 O 0.58026(4) 0.58834(4) 0.5766(2)
O5_6 O 0.53531(5) 0.56878(4) 0.0371(2)
Co10_2 Co 0.379844(6) 0.676100(6) 0.74428(3)
H35_5 H 0.4001 0.5903 0.9205
O12_2 O 0.38570(4) 0.64423(4) 0.9031(2)
H1_6 H 0.2009 0.8492 0.0142
C4_6 C 0.24663(6) 0.85130(9) 0.0173(4)
H2_6 H 0.2482 0.8590 0.1184
C9_6 C 0.30901(6) 0.84698(7) 0.1577(4)
H5_6 H 0.2934 0.8397 0.2207
C10_6 C 0.33718(6) 0.85316(7) 0.2231(3)
H6_6 H 0.3403 0.8499 0.3295
C11_6 C 0.36072(5) 0.86410(6) 0.1309(3)
C14_6 C 0.39096(5) 0.87132(5) 0.2044(3)
H19_6 H 0.1177 0.6796 0.0290
C39_6 C 0.31555(6) 0.67267(6) 0.7629(3)
C40_4 C 0.28473(5) 0.66590(6) 0.6954(3)
C41_4 C 0.28182(6) 0.65453(8) 0.5453(4)
H30_6 H 0.2991 0.6508 0.4858
C42_6 C 0.25337(6) 0.64870(9) 0.4827(4)
H31_6 H 0.2518 0.6410 0.3816
C43_3 C 0.22699(6) 0.65425(7) 0.5699(4)
C44_3 C 0.23008(6) 0.66527(7) 0.7213(4)
H32_4 H 0.2128 0.6689 0.7817
C45_6 C 0.25892(6) 0.67101(7) 0.7839(4)
H33_6 H 0.2607 0.6783 0.8857
C46_3 C 0.19621(6) 0.64837(7) 0.5014(4)
C47_5 C 0.19099(6) 0.65302(7) 0.3423(4)
H34_5 H 0.2066 0.6603 0.2793
C48_5 C 0.16282(6) 0.64684(7) 0.2769(3)
H35_6 H 0.1597 0.6501 0.1705
C49_5 C 0.13928(5) 0.63590(6) 0.3691(3)
C50_3 C 0.14401(6) 0.63179(7) 0.5281(3)
H36_3 H 0.1282 0.6250 0.5913
C51_3 C 0.17242(6) 0.63785(8) 0.5936(4)
H37_3 H 0.1755 0.6348 0.7003
C52_5 C 0.10904(5) 0.62868(5) 0.2956(3)
C54_4 C 0.37710(5) 0.75769(5) 0.9661(2)
C55_4 C 0.39883(5) 0.76712(5) 0.8562(2)
C56_6 C 0.40646(5) 0.74088(5) 0.7728(3)
C57_4 C 0.42948(7) 0.73754(6) 0.6426(4)
H41_4 H 0.4298 0.7168 0.6073
H42_4 H 0.4240 0.7506 0.5571
H43_4 H 0.4493 0.7431 0.6806
C58_4 C 0.38270(8) 0.80465(7) 0.5490(3)
H44_6 H 0.3823 0.8204 0.4710
H45_4 H 0.3908 0.7863 0.5040
H46_4 H 0.3624 0.8010 0.5861
C59_4 C 0.40244(5) 0.81447(5) 0.6832(3)
C60_4 C 0.40928(5) 0.79853(5) 0.8208(3)
C61_4 C 0.42737(6) 0.81781(5) 0.9096(3)
N5_6 N 0.37222(4) 0.72772(4) 0.94954(19)
N6_6 N 0.39025(4) 0.71718(4) 0.8276(2)
N8_4 N 0.43069(4) 0.84347(4) 0.8264(2)
H50_4 H 0.4410 0.8590 0.8578
O9_6 O 0.31648(4) 0.68123(4) 0.9034(2)
O10_4 O 0.33834(4) 0.66974(4) 0.6734(2)
C15_5 C 0.47170(6) 0.92009(6) 0.9022(3)
C16_5 C 0.48274(6) 0.94333(6) 0.7851(3)
C17_5 C 0.48310(10) 0.97394(7) 0.8253(3)
H9_5 H 0.4785 0.9798 0.9272
C18_6 C 0.49033(10) 0.99581(7) 0.7147(3)
C19_6 C 0.49710(7) 0.98800(6) 0.5610(3)
C20_6 C 0.49787(6) 0.95717(6) 0.5240(3)
H11_5 H 0.5032 0.9512 0.4231
C21_6 C 0.49089(6) 0.93503(6) 0.6348(3)
H12_6 H 0.4917 0.9145 0.6076
O6_5 O 0.46998(5) 0.89280(4) 0.8688(2)
H27_5 H 0.5093 0.9838 0.2560
C43_4 C 0.59575(7) 0.97699(6) 0.3199(4)
C44_4 C 0.58473(7) 0.98008(6) 0.4713(4)
H32_5 H 0.5811 0.9628 0.5317
C46_4 C 0.60163(7) 0.94621(6) 0.2514(4)
C47_6 C 0.59698(7) 0.94099(6) 0.0923(4)
H34_6 H 0.5897 0.9566 0.0293
C48_6 C 0.60316(7) 0.91282(6) 0.0269(3)
C49_6 C 0.61410(6) 0.88928(5) 0.1191(3)
C50_4 C 0.61821(7) 0.89401(6) 0.2781(3)
H36_4 H 0.6250 0.8782 0.3413
C51_4 C 0.61215(8) 0.92242(6) 0.3436(4)
H37_4 H 0.6152 0.9255 0.4503
C52_6 C 0.62132(5) 0.85904(5) 0.0456(3)
O11_2 O 0.63381(4) 0.83925(3) 0.1305(2)
Co6_2 Co 0.654596(6) 0.802169(6) 0.05706(3)
C18_7 C 0.75419(7) 0.74033(10) 0.9647(3)
H10_6 H 0.7338 0.7407 0.9940
C19_7 C 0.76200(6) 0.74710(7) 0.8110(3)
C20_7 C 0.79283(6) 0.74787(6) 0.7740(3)
H11_6 H 0.7988 0.7532 0.6731
C21_7 C 0.81497(6) 0.74089(6) 0.8848(3)
H12_7 H 0.8355 0.7417 0.8576
C32_5 C 0.67009(6) 0.77830(6) 0.3478(3)
C33_5 C 0.69333(6) 0.76726(6) 0.4649(3)
C34_5 C 0.72394(7) 0.76690(10) 0.4247(3)
H26_5 H 0.7298 0.7715 0.3228
C35_7 C 0.74581(7) 0.75967(10) 0.5353(3)
H27_6 H 0.7662 0.7593 0.5060
C36_7 C 0.73800(6) 0.75290(7) 0.6890(3)
C37_7 C 0.70717(6) 0.75213(6) 0.7260(3)
H28_6 H 0.7012 0.7468 0.8269
C38_7 C 0.68503(6) 0.75911(6) 0.6152(3)
H29_7 H 0.6645 0.7583 0.6424
O7_6 O 0.68122(4) 0.78531(5) 0.2129(2)
O8_5 O 0.64280(4) 0.78002(5) 0.3812(2)
C53_4 C 0.63967(7) 0.72367(6) 0.0852(3)
H38_4 H 0.6533 0.7365 0.1429
H39_4 H 0.6254 0.7145 0.1560
H40_4 H 0.6511 0.7080 0.0332
C62_4 C 0.55757(8) 0.68681(6) 0.0655(3)
H47_4 H 0.5466 0.6687 0.0938
H48_4 H 0.5728 0.6910 0.1433
H49_4 H 0.5437 0.7036 0.0590
Co2_3 Co 0.073900(6) 0.129844(6) 0.00572(3)
C2_5 C 0.08410(6) 0.03473(5) 0.0546(3)
C3_5 C 0.09547(8) 0.03182(6) 0.2047(4)
H1_7 H 0.0992 0.0491 0.2642
C4_7 C 0.10130(9) 0.00337(6) 0.2673(4)
H2_7 H 0.1090 0.0018 0.3684
C26_5 C 0.01246(6) 0.17948(7) 0.1074(4)
H16_5 H 0.0332 0.1798 0.1427
H18_5 H 0.0069 0.1993 0.0694
O2_5 O 0.08026(4) 0.08834(4) 0.0766(2)
N10_3 N 0.08412(4) 0.15788(4) 0.1860(2)
C5_5 C 0.09575(7) 0.97699(6) 0.1801(4)
C6_5 C 0.08473(7) 0.98008(6) 0.0287(4)
C8_5 C 0.10163(7) 0.94621(6) 0.2486(4)
C9_7 C 0.09698(7) 0.94099(6) 0.4077(4)
H5_7 H 0.0897 0.9566 0.4707
C10_7 C 0.10316(7) 0.91282(6) 0.4731(3)
H6_7 H 0.0999 0.9097 0.5795
C11_7 C 0.11410(6) 0.88928(5) 0.3809(3)
C12_5 C 0.11821(7) 0.89401(6) 0.2219(3)
H7_5 H 0.1250 0.8782 0.1587
C13_5 C 0.11215(8) 0.92242(6) 0.1564(4)
H8_5 H 0.1152 0.9255 0.0497
C14_7 C 0.12132(5) 0.85904(5) 0.4544(3)
O3_4 O 0.13381(4) 0.83925(3) 0.3695(2)
O4_4 O 0.11430(4) 0.85577(4) 0.5969(2)
Co5_4 Co 0.154596(6) 0.802169(6) 0.44294(3)
Co8_3 Co 0.120156(6) 0.823900(6) 0.75572(3)
H42_5 H 0.0006 0.8260 0.8071
C58_5 C 0.05465(7) 0.86730(8) 0.7990(3)
H44_7 H 0.0704 0.8677 0.7210
H45_5 H 0.0363 0.8592 0.7540
H46_5 H 0.0510 0.8876 0.8361
C59_5 C 0.06447(5) 0.84756(5) 0.9332(3)
N7_3 N 0.09212(4) 0.83412(4) 0.9360(2)
H17_5 H 0.0006 0.3260 0.1929
C27_5 C 0.05465(7) 0.36730(8) 0.2010(3)
H19_7 H 0.0704 0.3677 0.2790
H20_5 H 0.0363 0.3592 0.2460
H21_5 H 0.0510 0.3876 0.1639
C28_5 C 0.06447(5) 0.34756(5) 0.0668(3)
N3_3 N 0.09212(4) 0.33412(4) 0.0640(2)
Co10_3 Co 0.120156(6) 0.323900(6) 0.24428(3)
Co4_3 Co 0.073900(6) 0.629844(6) 0.99428(3)
C40_5 C 0.08410(6) 0.53473(5) 0.9454(3)
C41_5 C 0.09547(8) 0.53182(6) 0.7953(4)
H30_7 H 0.0992 0.5491 0.7358
C42_7 C 0.10130(9) 0.50337(6) 0.7327(4)
H31_7 H 0.1090 0.5018 0.6316
C43_5 C 0.09575(7) 0.47699(6) 0.8199(4)
C44_5 C 0.08473(7) 0.48008(6) 0.9713(4)
C46_5 C 0.10163(7) 0.44621(6) 0.7514(4)
C47_7 C 0.09698(7) 0.44099(6) 0.5923(4)
H34_7 H 0.0897 0.4566 0.5293
C48_7 C 0.10316(7) 0.41282(6) 0.5269(3)
H35_7 H 0.0999 0.4097 0.4205
C49_7 C 0.11410(6) 0.38928(5) 0.6191(3)
C50_5 C 0.11821(7) 0.39401(6) 0.7781(3)
H36_5 H 0.1250 0.3782 0.8413
C51_5 C 0.11215(8) 0.42242(6) 0.8436(4)
H37_5 H 0.1152 0.4255 0.9503
C52_7 C 0.12132(5) 0.35904(5) 0.5456(3)
C57_5 C 0.01246(6) 0.67948(7) 0.8926(4)
H41_5 H 0.0332 0.6798 0.8573
H43_5 H 0.0069 0.6993 0.9306
O10_5 O 0.08026(4) 0.58834(4) 0.9234(2)
O11_3 O 0.13381(4) 0.33925(3) 0.6305(2)
O12_3 O 0.11430(4) 0.35577(4) 0.4031(2)
Co6_3 Co 0.154596(6) 0.302169(6) 0.55706(3)
N9_3 N 0.08412(4) 0.65788(4) 0.8140(2)
C32_6 C 0.17009(6) 0.27830(6) 0.8478(3)
C33_6 C 0.19333(6) 0.26726(6) 0.9649(3)
C34_6 C 0.22394(7) 0.26690(10) 0.9247(3)
H26_6 H 0.2298 0.2715 0.8228
O7_7 O 0.18122(4) 0.28531(5) 0.7129(2)
O8_6 O 0.14280(4) 0.28002(5) 0.8812(2)
C39_7 C 0.18445(6) 0.32733(6) 0.2629(3)
C40_6 C 0.21527(5) 0.33410(6) 0.1954(3)
C41_6 C 0.21818(6) 0.34547(8) 0.0453(4)
C43_6 C 0.27301(6) 0.34575(7) 0.0699(4)
C44_6 C 0.26992(6) 0.33473(7) 0.2213(4)
H32_6 H 0.2872 0.3311 0.2817
C45_7 C 0.24108(6) 0.32899(7) 0.2839(4)
H33_7 H 0.2393 0.3217 0.3857
C46_6 C 0.30379(6) 0.35163(7) 0.0014(4)
C50_6 C 0.35599(6) 0.36821(7) 0.0281(3)
H36_6 H 0.3718 0.3750 0.0913
C51_6 C 0.32758(6) 0.36215(8) 0.0936(4)
H37_6 H 0.3245 0.3652 0.2003
C53_5 C 0.13967(7) 0.22367(6) 0.5852(3)
H38_5 H 0.1533 0.2365 0.6429
H39_5 H 0.1254 0.2145 0.6560
H40_5 H 0.1511 0.2080 0.5332
C54_5 C 0.12290(5) 0.24231(5) 0.4661(2)
C55_5 C 0.10117(5) 0.23288(5) 0.3562(2)
C56_7 C 0.09354(5) 0.25912(5) 0.2728(3)
C57_6 C 0.07052(7) 0.26246(6) 0.1426(4)
H41_6 H 0.0702 0.2832 0.1073
H42_6 H 0.0760 0.2494 0.0571
H43_6 H 0.0507 0.2569 0.1806
C58_6 C 0.11730(8) 0.19535(7) 0.0490(3)
H45_6 H 0.1092 0.2137 0.0040
H46_6 H 0.1376 0.1990 0.0861
C59_6 C 0.09756(5) 0.18553(5) 0.1832(3)
C60_5 C 0.09072(5) 0.20147(5) 0.3208(3)
C61_5 C 0.07263(6) 0.18219(5) 0.4096(3)
C62_5 C 0.05757(8) 0.18681(6) 0.5655(3)
H47_5 H 0.0466 0.1687 0.5938
H48_5 H 0.0728 0.1910 0.6433
H49_5 H 0.0437 0.2036 0.5590
N5_7 N 0.12778(4) 0.27228(4) 0.44954(19)
N6_7 N 0.10975(4) 0.28282(4) 0.3276(2)
N8_5 N 0.06931(4) 0.15653(4) 0.3264(2)
H50_5 H 0.0590 0.1410 0.3578
O9_7 O 0.18352(4) 0.31877(4) 0.4034(2)
O10_6 O 0.16166(4) 0.33026(4) 0.1734(2)
C1_7 C 0.18445(6) 0.82733(6) 0.7371(3)
C2_6 C 0.21527(5) 0.83410(6) 0.8046(3)
C3_6 C 0.21818(6) 0.84547(8) 0.9547(4)
C5_6 C 0.27301(6) 0.84575(7) 0.9301(4)
C6_6 C 0.26992(6) 0.83473(7) 0.7787(4)
H3_6 H 0.2872 0.8311 0.7183
C7_7 C 0.24108(6) 0.82899(7) 0.7161(4)
H4_7 H 0.2393 0.8217 0.6143
C8_6 C 0.30379(6) 0.85163(7) 0.9986(4)
C12_6 C 0.35599(6) 0.86821(7) 0.9719(3)
H7_6 H 0.3718 0.8750 0.9087
C13_6 C 0.32758(6) 0.86215(8) 0.9064(4)
H8_6 H 0.3245 0.8652 0.7997
C15_6 C 0.17009(6) 0.77830(6) 0.1522(3)
C16_6 C 0.19333(6) 0.76726(6) 0.0351(3)
C17_6 C 0.22394(7) 0.76690(10) 0.0753(3)
H9_6 H 0.2298 0.7715 0.1772
C22_5 C 0.13967(7) 0.72367(6) 0.4148(3)
H13_5 H 0.1533 0.7365 0.3571
H14_5 H 0.1254 0.7145 0.3440
H15_5 H 0.1511 0.7080 0.4668
C23_5 C 0.12290(5) 0.74231(5) 0.5339(2)
C24_5 C 0.10117(5) 0.73288(5) 0.6438(2)
C25_7 C 0.09354(5) 0.75912(5) 0.7272(3)
C26_6 C 0.07052(7) 0.76246(6) 0.8574(4)
H16_6 H 0.0702 0.7832 0.8927
H17_6 H 0.0760 0.7494 0.9429
H18_6 H 0.0507 0.7569 0.8194
C27_6 C 0.11730(8) 0.69535(7) 0.9510(3)
H20_6 H 0.1092 0.7137 0.9960
H21_6 H 0.1376 0.6990 0.9139
C28_6 C 0.09756(5) 0.68553(5) 0.8168(3)
C29_5 C 0.09072(5) 0.70147(5) 0.6792(3)
C30_5 C 0.07263(6) 0.68219(5) 0.5904(3)
C31_5 C 0.05757(8) 0.68681(6) 0.4345(3)
H22_5 H 0.0466 0.6687 0.4062
H23_5 H 0.0728 0.6910 0.3567
H24_5 H 0.0437 0.7036 0.4410
N1_7 N 0.12778(4) 0.77228(4) 0.55046(19)
N2_7 N 0.10975(4) 0.78282(4) 0.6724(2)
N4_5 N 0.06931(4) 0.65653(4) 0.6736(2)
H25_5 H 0.0590 0.6410 0.6422
O1_7 O 0.18352(4) 0.81877(4) 0.5966(2)
O2_6 O 0.16166(4) 0.83026(4) 0.8266(2)
O5_7 O 0.18122(4) 0.78531(5) 0.2871(2)
O6_6 O 0.14280(4) 0.78002(5) 0.1188(2)
H3_7 H 0.0811 0.9628 0.9683
H10_7 H 0.0093 0.9838 0.2440
H28_7 H 0.0032 0.9512 0.0769
C53_6 C 0.02633(6) 0.88967(7) 0.3352(3)
H38_6 H 0.0135 0.9033 0.3929
H39_6 H 0.0355 0.8754 0.4060
H40_6 H 0.0420 0.9011 0.2832
C54_6 C 0.00769(5) 0.87290(5) 0.2161(2)
C55_6 C 0.01712(5) 0.85117(5) 0.1062(2)
C60_6 C 0.04853(5) 0.84072(5) 0.0708(3)
C61_6 C 0.06781(5) 0.82263(6) 0.1596(3)
C62_6 C 0.06319(6) 0.80757(8) 0.3155(3)
H47_6 H 0.0813 0.7966 0.3438
H48_6 H 0.0590 0.8228 0.3933
H49_6 H 0.0464 0.7937 0.3090
N8_6 N 0.09347(4) 0.81931(4) 0.0764(2)
H50_6 H 0.1090 0.8090 0.1078
H17_7 H 0.9994 0.1740 0.1929
C27_7 C 0.94535(7) 0.13270(8) 0.2010(3)
H19_8 H 0.9296 0.1323 0.2790
H20_7 H 0.9637 0.1408 0.2460
H21_7 H 0.9490 0.1124 0.1639
C28_7 C 0.93553(5) 0.15244(5) 0.0668(3)
N3_4 N 0.90788(4) 0.16588(4) 0.0640(2)
Co10_4 Co 0.879844(6) 0.176100(6) 0.24428(3)
C43_7 C 0.90425(7) 0.02301(6) 0.8199(4)
C44_7 C 0.91527(7) 0.01992(6) 0.9713(4)
C46_7 C 0.89837(7) 0.05379(6) 0.7514(4)
C47_8 C 0.90302(7) 0.05901(6) 0.5923(4)
H34_8 H 0.9103 0.0434 0.5293
C48_8 C 0.89684(7) 0.08718(6) 0.5269(3)
H35_8 H 0.9001 0.0903 0.4205
C49_8 C 0.88590(6) 0.11072(5) 0.6191(3)
C50_7 C 0.88179(7) 0.10599(6) 0.7781(3)
H36_7 H 0.8750 0.1218 0.8413
C51_7 C 0.88785(8) 0.07758(6) 0.8436(4)
H37_7 H 0.8848 0.0745 0.9503
C52_8 C 0.87868(5) 0.14096(5) 0.5456(3)
O11_4 O 0.86619(4) 0.16075(3) 0.6305(2)
O12_4 O 0.88570(4) 0.14423(4) 0.4031(2)
Co6_4 Co 0.845404(6) 0.197831(6) 0.55706(3)
Co4_4 Co 0.926100(6) 0.870156(6) 0.99428(3)
C40_7 C 0.91590(6) 0.96527(5) 0.9454(3)
C41_7 C 0.90453(8) 0.96818(6) 0.7953(4)
H30_8 H 0.9008 0.9509 0.7358
C42_8 C 0.89870(9) 0.99663(6) 0.7327(4)
H31_8 H 0.8910 0.9982 0.6316
C57_7 C 0.98754(6) 0.82052(7) 0.8926(4)
H41_7 H 0.9668 0.8202 0.8573
H43_7 H 0.9931 0.8007 0.9306
O10_7 O 0.91974(4) 0.91166(4) 0.9234(2)
N9_4 N 0.91588(4) 0.84212(4) 0.8140(2)
Co1_4 Co 0.845404(6) 0.697831(6) 0.44294(3)
Co2_4 Co 0.879844(6) 0.676100(6) 0.75572(3)
C1_8 C 0.81555(6) 0.67267(6) 0.7371(3)
C2_7 C 0.78473(5) 0.66590(6) 0.8046(3)
C3_7 C 0.78182(6) 0.65453(8) 0.9547(4)
C5_7 C 0.72699(6) 0.65425(7) 0.9301(4)
C6_7 C 0.73008(6) 0.66527(7) 0.7787(4)
H3_8 H 0.7128 0.6689 0.7183
C7_8 C 0.75892(6) 0.67101(7) 0.7161(4)
H4_8 H 0.7607 0.6783 0.6143
C8_7 C 0.69621(6) 0.64837(7) 0.9986(4)
C12_7 C 0.64401(6) 0.63179(7) 0.9719(3)
H7_7 H 0.6282 0.6250 0.9087
C13_7 C 0.67242(6) 0.63785(8) 0.9064(4)
H8_7 H 0.6755 0.6348 0.7997
C15_7 C 0.82991(6) 0.72170(6) 0.1522(3)
C16_7 C 0.80667(6) 0.73274(6) 0.0351(3)
C17_7 C 0.77606(7) 0.73310(10) 0.0753(3)
H9_7 H 0.7702 0.7285 0.1772
C22_6 C 0.86033(7) 0.77633(6) 0.4148(3)
H13_6 H 0.8467 0.7635 0.3571
H14_6 H 0.8746 0.7855 0.3440
H15_6 H 0.8489 0.7920 0.4668
C23_6 C 0.87710(5) 0.75769(5) 0.5339(2)
C24_6 C 0.89883(5) 0.76712(5) 0.6438(2)
C25_8 C 0.90646(5) 0.74088(5) 0.7272(3)
C26_7 C 0.92948(7) 0.73754(6) 0.8574(4)
H16_7 H 0.9298 0.7168 0.8927
H17_8 H 0.9240 0.7506 0.9429
H18_7 H 0.9493 0.7431 0.8194
C27_8 C 0.88270(8) 0.80465(7) 0.9510(3)
H20_8 H 0.8908 0.7863 0.9960
H21_8 H 0.8624 0.8010 0.9139
C28_8 C 0.90244(5) 0.81447(5) 0.8168(3)
C29_6 C 0.90928(5) 0.79853(5) 0.6792(3)
C30_6 C 0.92737(6) 0.81781(5) 0.5904(3)
C31_6 C 0.94243(8) 0.81319(6) 0.4345(3)
H22_6 H 0.9534 0.8313 0.4062
H23_6 H 0.9272 0.8090 0.3567
H24_6 H 0.9563 0.7964 0.4410
N1_8 N 0.87222(4) 0.72772(4) 0.55046(19)
N2_8 N 0.89025(4) 0.71718(4) 0.6724(2)
N4_6 N 0.93069(4) 0.84347(4) 0.6736(2)
H25_6 H 0.9410 0.8590 0.6422
O1_8 O 0.81648(4) 0.68123(4) 0.5966(2)
O2_7 O 0.83834(4) 0.66974(4) 0.8266(2)
O5_8 O 0.81878(4) 0.71469(5) 0.2871(2)
O6_7 O 0.85720(4) 0.71998(5) 0.1188(2)
N10_4 N 0.90788(4) 0.66588(4) 0.9360(2)
O13_4 O 0.86619(4) 0.66075(3) 0.3695(2)
O15_4 O 0.88570(4) 0.64423(4) 0.5969(2)
Co8_4 Co 0.926100(6) 0.370156(6) 0.00572(3)
C32_7 C 0.82991(6) 0.22170(6) 0.8478(3)
C33_7 C 0.80667(6) 0.23274(6) 0.9649(3)
C34_7 C 0.77606(7) 0.23310(10) 0.9247(3)
H26_7 H 0.7702 0.2285 0.8228
O7_8 O 0.81878(4) 0.21469(5) 0.7129(2)
O8_7 O 0.85720(4) 0.21998(5) 0.8812(2)
C39_8 C 0.81555(6) 0.17267(6) 0.2629(3)
C40_8 C 0.78473(5) 0.16590(6) 0.1954(3)
C41_8 C 0.78182(6) 0.15453(8) 0.0453(4)
C43_8 C 0.72699(6) 0.15425(7) 0.0699(4)
C44_8 C 0.73008(6) 0.16527(7) 0.2213(4)
H32_7 H 0.7128 0.1689 0.2817
C45_8 C 0.75892(6) 0.17101(7) 0.2839(4)
H33_8 H 0.7607 0.1783 0.3857
C46_8 C 0.69621(6) 0.14837(7) 0.0014(4)
C50_8 C 0.64401(6) 0.13179(7) 0.0281(3)
H36_8 H 0.6282 0.1250 0.0913
C51_8 C 0.67242(6) 0.13785(8) 0.0936(4)
H37_8 H 0.6755 0.1348 0.2003
C53_7 C 0.86033(7) 0.27633(6) 0.5852(3)
H38_7 H 0.8467 0.2635 0.6429
H39_7 H 0.8746 0.2855 0.6560
H40_7 H 0.8489 0.2920 0.5332
C54_7 C 0.87710(5) 0.25769(5) 0.4661(2)
C55_7 C 0.89883(5) 0.26712(5) 0.3562(2)
C56_8 C 0.90646(5) 0.24088(5) 0.2728(3)
C57_8 C 0.92948(7) 0.23754(6) 0.1426(4)
H41_8 H 0.9298 0.2168 0.1073
H42_7 H 0.9240 0.2506 0.0571
H43_8 H 0.9493 0.2431 0.1806
C58_7 C 0.88270(8) 0.30465(7) 0.0490(3)
H45_7 H 0.8908 0.2863 0.0040
H46_7 H 0.8624 0.3010 0.0861
C59_7 C 0.90244(5) 0.31447(5) 0.1832(3)
C60_7 C 0.90928(5) 0.29853(5) 0.3208(3)
C61_7 C 0.92737(6) 0.31781(5) 0.4096(3)
C62_7 C 0.94243(8) 0.31319(6) 0.5655(3)
H47_7 H 0.9534 0.3313 0.5938
H48_7 H 0.9272 0.3090 0.6433
H49_7 H 0.9563 0.2964 0.5590
N5_8 N 0.87222(4) 0.22772(4) 0.44954(19)
N6_8 N 0.89025(4) 0.21718(4) 0.3276(2)
N7_4 N 0.91588(4) 0.34212(4) 0.1860(2)
N8_7 N 0.93069(4) 0.34347(4) 0.3264(2)
H50_7 H 0.9410 0.3590 0.3578
O9_8 O 0.81648(4) 0.18123(4) 0.4034(2)
O10_8 O 0.83834(4) 0.16974(4) 0.1734(2)
C2_8 C 0.91590(6) 0.46527(5) 0.0546(3)
C3_8 C 0.90453(8) 0.46818(6) 0.2047(4)
H1_8 H 0.9008 0.4509 0.2642
C4_8 C 0.89870(9) 0.49663(6) 0.2673(4)
H2_8 H 0.8910 0.4982 0.3684
C5_8 C 0.90425(7) 0.52301(6) 0.1801(4)
C6_8 C 0.91527(7) 0.51992(6) 0.0287(4)
C8_8 C 0.89837(7) 0.55379(6) 0.2486(4)
C9_8 C 0.90302(7) 0.55901(6) 0.4077(4)
H5_8 H 0.9103 0.5434 0.4707
C10_8 C 0.89684(7) 0.58718(6) 0.4731(3)
H6_8 H 0.9001 0.5903 0.5795
C11_8 C 0.88590(6) 0.61072(5) 0.3809(3)
C12_8 C 0.88179(7) 0.60599(6) 0.2219(3)
H7_8 H 0.8750 0.6218 0.1587
C13_8 C 0.88785(8) 0.57758(6) 0.1564(4)
H8_8 H 0.8848 0.5745 0.0497
C14_8 C 0.87868(5) 0.64096(5) 0.4544(3)
C26_8 C 0.98754(6) 0.32052(7) 0.1074(4)
H16_8 H 0.9668 0.3202 0.1427
H18_8 H 0.9931 0.3007 0.0694
O2_8 O 0.91974(4) 0.41166(4) 0.0766(2)
H42_8 H 0.9994 0.6740 0.8071
C58_8 C 0.94535(7) 0.63270(8) 0.7990(3)
H44_8 H 0.9296 0.6323 0.7210
H45_8 H 0.9637 0.6408 0.7540
H46_8 H 0.9490 0.6124 0.8361
C59_8 C 0.93553(5) 0.65244(5) 0.9332(3)
C22_7 C 0.97367(6) 0.11033(7) 0.6648(3)
H13_7 H 0.9865 0.0967 0.6071
H14_7 H 0.9645 0.1246 0.5940
H15_7 H 0.9580 0.0989 0.7168
C23_7 C 0.99231(5) 0.12710(5) 0.7839(2)
C24_7 C 0.98288(5) 0.14883(5) 0.8938(2)
C29_7 C 0.95147(5) 0.15928(5) 0.9292(3)
C30_7 C 0.93219(5) 0.17737(6) 0.8404(3)
C31_7 C 0.93681(6) 0.19243(8) 0.6845(3)
H22_7 H 0.9187 0.2034 0.6562
H23_7 H 0.9410 0.1772 0.6067
H24_7 H 0.9536 0.2063 0.6910
N4_7 N 0.90653(4) 0.18069(4) 0.9236(2)
H25_7 H 0.8910 0.1910 0.8922
H11_7 H 0.9968 0.0488 0.9231
H27_7 H 0.9907 0.0162 0.7560
H32_8 H 0.9189 0.0372 0.0317
C22_8 C 0.02633(6) 0.38967(7) 0.6648(3)
H13_8 H 0.0135 0.4033 0.6071
H14_8 H 0.0355 0.3754 0.5940
H15_8 H 0.0420 0.4011 0.7168
C23_8 C 0.00769(5) 0.37290(5) 0.7839(2)
C24_8 C 0.01712(5) 0.35117(5) 0.8938(2)
C29_8 C 0.04853(5) 0.34072(5) 0.9292(3)
C30_8 C 0.06781(5) 0.32263(6) 0.8404(3)
C31_8 C 0.06319(6) 0.30757(8) 0.6845(3)
H22_8 H 0.0813 0.2966 0.6562
H23_8 H 0.0590 0.3228 0.6067
H24_8 H 0.0464 0.2937 0.6910
N4_8 N 0.09347(4) 0.31931(4) 0.9236(2)
H25_8 H 0.1090 0.3090 0.8922
C53_8 C 0.97367(6) 0.61033(7) 0.3352(3)
H38_8 H 0.9865 0.5967 0.3929
H39_8 H 0.9645 0.6246 0.4060
H40_8 H 0.9580 0.5989 0.2832
C54_8 C 0.99231(5) 0.62710(5) 0.2161(2)
C55_8 C 0.98288(5) 0.64883(5) 0.1062(2)
C60_8 C 0.95147(5) 0.65928(5) 0.0708(3)
C61_8 C 0.93219(5) 0.67737(6) 0.1596(3)
C62_8 C 0.93681(6) 0.69243(8) 0.3155(3)
H47_8 H 0.9187 0.7034 0.3438
H48_8 H 0.9410 0.6772 0.3933
H49_8 H 0.9536 0.7063 0.3090
N8_8 N 0.90653(4) 0.68069(4) 0.0764(2)
H50_8 H 0.8910 0.6910 0.1078
C15_8 C 0.52830(6) 0.57991(6) 0.9022(3)
C16_8 C 0.51726(6) 0.55667(6) 0.7851(3)
C17_8 C 0.51690(10) 0.52606(7) 0.8253(3)
H9_8 H 0.5215 0.5202 0.9272
C18_8 C 0.50967(10) 0.50419(7) 0.7147(3)
H10_8 H 0.5093 0.4838 0.7440
C19_8 C 0.50290(7) 0.51200(6) 0.5610(3)
C20_8 C 0.50213(6) 0.54283(6) 0.5240(3)
H11_8 H 0.4968 0.5488 0.4231
C21_8 C 0.50911(6) 0.56497(6) 0.6348(3)
H12_8 H 0.5083 0.5855 0.6076
O6_8 O 0.53002(5) 0.60720(4) 0.8688(2)
C32_8 C 0.47170(6) 0.42009(6) 0.0978(3)
C33_8 C 0.48274(6) 0.44333(6) 0.2149(3)
C34_8 C 0.48310(10) 0.47394(7) 0.1747(3)
H26_8 H 0.4785 0.4798 0.0728
C35_8 C 0.49033(10) 0.49581(7) 0.2853(3)
H27_8 H 0.4907 0.5162 0.2560
C36_8 C 0.49710(7) 0.48800(6) 0.4390(3)
C37_8 C 0.49787(6) 0.45717(6) 0.4760(3)
H28_8 H 0.5032 0.4512 0.5769
C38_8 C 0.49089(6) 0.43503(6) 0.3652(3)
H29_8 H 0.4917 0.4145 0.3924
O8_8 O 0.46998(5) 0.39280(4) 0.1312(2)
loop_
_geom_bond_atom_site_label_1
_geom_bond_atom_site_label_2
_geom_bond_site_symmetry_1
_geom_bond_site_symmetry_2
Co8 O4 1_555 1_555
Co3 O7 1_555 1_555
Co4 N6 1_555 1_555
C39 C40 1_555 1_555
C40 C41 1_555 1_555
C41 H30 1_555 1_555
C42 C41 1_555 1_555
H31 C42 1_555 1_555
C45 C40 1_555 1_555
H33 C45 1_555 1_555
C53 H38 1_555 1_555
H39 C53 1_555 1_555
H40 C53 1_555 1_555
C54 C53 1_555 1_555
C55 C54 1_555 1_555
C56 C55 1_555 1_555
C57 C56 1_555 1_555
H41 C57 1_555 1_555
H42 C57 1_555 1_555
H43 C57 1_555 1_555
C58 H44 1_555 1_555
H45 C58 1_555 1_555
H46 C58 1_555 1_555
C59 C58 1_555 1_555
C60 C55 1_555 1_555
C61 C60 1_555 1_555
C62 C61 1_555 1_555
H47 C62 1_555 1_555
H48 C62 1_555 1_555
H49 C62 1_555 1_555
N5 Co3 1_555 1_555
N6 C56 1_555 1_555
N7 C59 1_555 1_555
N8 C61 1_555 1_555
H50 N8 1_555 1_555
O9 Co3 1_555 1_555
O10 Co4 1_555 1_555
Co8 N7 1_555 1_555
N9 Co4 1_555 1_555
O14 Co3 1_555 1_555
O16 Co4 1_555 1_555
C39 O9 1_555 1_555
C39 O10 1_555 1_555
C54 N5 1_555 1_555
C59 C60 1_555 1_555
N5 N6 1_555 1_555
N7 N8 1_555 1_555
Co1 N1 1_555 1_555
H4 C7 1_555 1_555
C15 C16 1_555 1_555
C16 C17 1_555 1_555
C17 H9 1_555 1_555
C18 C17 1_555 1_555
C19 C18 1_555 1_555
C20 C19 1_555 1_555
C21 C16 1_555 1_555
H12 C21 1_555 1_555
N2 C25 1_555 1_555
O1 Co1 1_555 1_555
O5 Co1 1_555 1_555
O6 C15 1_555 1_555
O13 Co1 1_555 1_555
C1 O1 1_555 1_555
C15 O5 1_555 1_555
C20 C21 1_555 1_555
N1 N2 1_555 1_555
Co2 N2_2 1_555 1_555
C1_2 C2 1_555 1_555
C2 C3 1_555 1_555
C3 H1 1_555 1_555
C4 C3 1_555 1_555
H2 C4 1_555 1_555
C5 C4 1_555 1_555
C6 C5 1_555 1_555
H3 C6 1_555 1_555
C7_2 C2 1_555 1_555
H4_2 C7_2 1_555 1_555
C8 C5 1_555 1_555
C9 C8 1_555 1_555
H5 C9 1_555 1_555
C10 C9 1_555 1_555
H6_2 C10 1_555 1_555
C11 C10 1_555 1_555
C12 C11 1_555 1_555
H7 C12 1_555 1_555
C13 C8 1_555 1_555
H8 C13 1_555 1_555
C14 C11 1_555 1_555
C24 C23 1_555 1_555
C25_2 C24 1_555 1_555
C26 C25_2 1_555 1_555
H16 C26 1_555 1_555
H17 C26 1_555 1_555
H18 C26 1_555 1_555
C27 H19 1_555 1_555
H20 C27 1_555 1_555
H21 C27 1_555 1_555
C28 C27 1_555 1_555
C29 C24 1_555 1_555
C30 C29 1_555 1_555
N1_2 C23 1_555 1_555
N2_2 C25_2 1_555 1_555
N9 C28 1_555 1_555
N4 C30 1_555 1_555
H25 N4 1_555 1_555
O2 Co2 1_555 1_555
O3 C14 1_555 1_555
O4_2 C14 1_555 1_555
Co5 O3 1_555 1_555
N10 Co2 1_555 1_555
O15_2 Co2 1_555 1_555
C1_2 O1_2 1_555 1_555
C1_2 O2 1_555 1_555
C6 C7_2 1_555 1_555
C12 C13 1_555 1_555
C28 C29 1_555 1_555
N1_2 N2_2 1_555 1_555
N9 N4 1_555 1_555
H31_2 C42_2 1_555 1_555
H34 C47 1_555 1_555
C48 C47 1_555 1_555
H35 C48 1_555 1_555
C49 C48 1_555 1_555
C52 C49 1_555 1_555
O14 C52 1_555 1_555
O16 C52 1_555 1_555
Co5 N1_3 1_555 1_555
H4_3 C7_3 1_555 1_555
C15_2 C16_2 1_555 1_555
C16_2 C17_2 1_555 1_555
C17_2 H9_2 1_555 1_555
C18_2 C17_2 1_555 1_555
H10 C18_2 1_555 1_555
C19_2 C18_2 1_555 1_555
C20_2 C19_2 1_555 1_555
C21_2 C16_2 1_555 1_555
H12_2 C21_2 1_555 1_555
N2_3 C25_3 1_555 1_555
O1_3 Co5 1_555 1_555
O5_2 Co5 1_555 1_555
O6_2 C15_2 1_555 1_555
C1_3 O1_3 1_555 1_555
C15_2 O5_2 1_555 1_555
C20_2 C21_2 1_555 1_555
N1_3 N2_3 1_555 1_555
Co3_2 O7_2 1_555 1_555
Co4_2 N6_2 1_555 1_555
C39_2 C40_2 1_555 1_555
C40_2 C41_2 1_555 1_555
C41_2 H30_3 1_555 1_555
C42_3 C41_2 1_555 1_555
H31_3 C42_3 1_555 1_555
C43 C42_3 1_555 1_555
C44 C43 1_555 1_555
H32 C44 1_555 1_555
C45_2 C40_2 1_555 1_555
H33_2 C45_2 1_555 1_555
C46 C43 1_555 1_555
C47_2 C46 1_555 1_555
H34_2 C47_2 1_555 1_555
C48_2 C47_2 1_555 1_555
C49_2 C48_2 1_555 1_555
C50 C49_2 1_555 1_555
H36 C50 1_555 1_555
C51 C46 1_555 1_555
H37 C51 1_555 1_555
C52_2 C49_2 1_555 1_555
C53_2 H38_2 1_555 1_555
H39_2 C53_2 1_555 1_555
H40_2 C53_2 1_555 1_555
C54_2 C53_2 1_555 1_555
C55_2 C54_2 1_555 1_555
C56_2 C55_2 1_555 1_555
C57_2 C56_2 1_555 1_555
H41_2 C57_2 1_555 1_555
H42_2 C57_2 1_555 1_555
H43_2 C57_2 1_555 1_555
C58_2 H44_3 1_555 1_555
H45_2 C58_2 1_555 1_555
H46_2 C58_2 1_555 1_555
C59_2 C58_2 1_555 1_555
C60_2 C55_2 1_555 1_555
C61_2 C60_2 1_555 1_555
C62_2 C61_2 1_555 1_555
H47_2 C62_2 1_555 1_555
H48_2 C62_2 1_555 1_555
H49_2 C62_2 1_555 1_555
N5_2 Co3_2 1_555 1_555
N6_2 C56_2 1_555 1_555
N10 C59_2 1_555 1_555
N8_2 C61_2 1_555 1_555
H50_2 N8_2 1_555 1_555
O9_2 Co3_2 1_555 1_555
O10_2 Co4_2 1_555 1_555
O11 C52_2 1_555 1_555
Co6 O11 1_555 1_555
N9_2 Co4_2 1_555 1_555
O14_2 Co3_2 1_555 1_555
O16_2 Co4_2 1_555 1_555
C39_2 O9_2 1_555 1_555
C39_2 O10_2 1_555 1_555
C44 C45_2 1_555 1_555
C50 C51 1_555 1_555
C54_2 N5_2 1_555 1_555
C59_2 C60_2 1_555 1_555
N5_2 N6_2 1_555 1_555
N10 N8_2 1_555 1_555
Co8 N2_4 1_555 1_555
C1_4 C2_2 1_555 1_555
C2_2 C3_2 1_555 1_555
C3_2 H1_2 1_555 1_555
C4_2 C3_2 1_555 1_555
H2_2 C4_2 1_555 1_555
C5_2 C4_2 1_555 1_555
C6_2 C5_2 1_555 1_555
H3_3 C6_2 1_555 1_555
C7_4 C2_2 1_555 1_555
H4_4 C7_4 1_555 1_555
C8_2 C5_2 1_555 1_555
C9_2 C8_2 1_555 1_555
H5_2 C9_2 1_555 1_555
C10_2 C9_2 1_555 1_555
H6_4 C10_2 1_555 1_555
C11_2 C10_2 1_555 1_555
C12_2 C11_2 1_555 1_555
H7_2 C12_2 1_555 1_555
C13_2 C8_2 1_555 1_555
H8_2 C13_2 1_555 1_555
C14_2 C11_2 1_555 1_555
C24_2 C23_2 1_555 1_555
C25_4 C24_2 1_555 1_555
C26_2 C25_4 1_555 1_555
H16_2 C26_2 1_555 1_555
H17_2 C26_2 1_555 1_555
H18_2 C26_2 1_555 1_555
C27_2 H19_2 1_555 1_555
H20_2 C27_2 1_555 1_555
H21_2 C27_2 1_555 1_555
C28_2 C27_2 1_555 1_555
C29_2 C24_2 1_555 1_555
C30_2 C29_2 1_555 1_555
N1_4 C23_2 1_555 1_555
N2_4 C25_4 1_555 1_555
N9_2 C28_2 1_555 1_555
N4_2 C30_2 1_555 1_555
H25_2 N4_2 1_555 1_555
O2_2 Co8 1_555 1_555
O13 C14_2 1_555 1_555
O15 C14_2 1_555 1_555
C1_4 O1_4 1_555 1_555
C1_4 O2_2 1_555 1_555
C6_2 C7_4 1_555 1_555
C12_2 C13_2 1_555 1_555
C28_2 C29_2 1_555 1_555
N1_4 N2_4 1_555 1_555
N9_2 N4_2 1_555 1_555
H31_4 C42_4 1_555 1_555
H34_3 C47_3 1_555 1_555
C48_3 C47_3 1_555 1_555
H35_2 C48_3 1_555 1_555
C49_3 C48_3 1_555 1_555
C52_3 C49_3 1_555 1_555
O14_2 C52_3 1_555 1_555
O16_2 C52_3 1_555 1_555
H10_2 C18_3 1_555 1_555
C19_3 C18_3 1_555 1_555
C20_3 C19_3 1_555 1_555
H11 C20_3 1_555 1_555
H12_3 C21_3 1_555 1_555
C32 C33 1_555 1_555
C33 C34 1_555 1_555
C34 H26 1_555 1_555
C35 C34 1_555 1_555
H27 C35 1_555 1_555
C36 C19_3 1_555 1_555
C37 C36 1_555 1_555
H28_2 C37 1_555 1_555
C38 C33 1_555 1_555
H29 C38 1_555 1_555
O7_3 C32 1_555 1_555
O8 C32 1_555 1_555
Co6 O7_3 1_555 1_555
C53_3 H38_3 1_555 1_555
H39_3 C53_3 1_555 1_555
H40_3 C53_3 1_555 1_555
H47_3 C62_3 1_555 1_555
H48_3 C62_3 1_555 1_555
H49_3 C62_3 1_555 1_555
C20_3 C21_3 1_555 1_555
C35 C36 1_555 1_555
C37 C38 1_555 1_555
C6_3 C5_3 1_555 1_555
H3_4 C6_3 1_555 1_555
C8_3 C5_3 1_555 1_555
C9_3 C8_3 1_555 1_555
H5_3 C9_3 1_555 1_555
C10_3 C9_3 1_555 1_555
C11_3 C10_3 1_555 1_555
C12_3 C11_3 1_555 1_555
H7_3 C12_3 1_555 1_555
C13_3 C8_3 1_555 1_555
H8_3 C13_3 1_555 1_555
C14_3 C11_3 1_555 1_555
O3_2 C14_3 1_555 1_555
Co5_2 O3_2 1_555 1_555
C12_3 C13_3 1_555 1_555
C15_3 C16_3 1_555 1_555
C16_3 C17_3 1_555 1_555
C17_3 H9_3 1_555 1_555
C18_4 C17_3 1_555 1_555
H10_3 C18_4 1_555 1_555
C19_4 C18_4 1_555 1_555
C20_4 C19_4 1_555 1_555
H11_2 C20_4 1_555 1_555
C21_4 C16_3 1_555 1_555
H12_4 C21_4 1_555 1_555
C22 H13 1_555 1_555
H14 C22 1_555 1_555
H15 C22 1_555 1_555
H22 C31 1_555 1_555
H23 C31 1_555 1_555
H24 C31 1_555 1_555
O5_3 Co5_2 1_555 1_555
O6_3 C15_3 1_555 1_555
H27_2 C35_2 1_555 1_555
C36_2 C19_4 1_555 1_555
C37_2 C36_2 1_555 1_555
H28_3 C37_2 1_555 1_555
H29_2 C38_2 1_555 1_555
C15_3 O5_3 1_555 1_555
C20_4 C21_4 1_555 1_555
C35_2 C36_2 1_555 1_555
C37_2 C38_2 1_555 1_555
C32_2 C33_2 1_555 1_555
C33_2 C34_2 1_555 1_555
C34_2 H26_2 1_555 1_555
C35_3 C34_2 1_555 1_555
C37_3 C36_3 1_555 1_555
H28_4 C37_3 1_555 1_555
C38_3 C33_2 1_555 1_555
H29_3 C38_3 1_555 1_555
O8_2 C32_2 1_555 1_555
C35_3 C36_3 1_555 1_555
C37_3 C38_3 1_555 1_555
Co1_2 N1_5 1_555 1_555
Co2_2 N2_5 1_555 1_555
C1_5 C2_3 1_555 1_555
C2_3 C3_3 1_555 1_555
C3_3 H1_3 1_555 1_555
C4_3 C3_3 1_555 1_555
H2_3 C4_3 1_555 1_555
C7_5 C2_3 1_555 1_555
H4_5 C7_5 1_555 1_555
C22_2 H13_2 1_555 1_555
H14_2 C22_2 1_555 1_555
H15_2 C22_2 1_555 1_555
C23_3 C22_2 1_555 1_555
C24_3 C23_3 1_555 1_555
C25_5 C24_3 1_555 1_555
C26_3 C25_5 1_555 1_555
H16_3 C26_3 1_555 1_555
H17_3 C26_3 1_555 1_555
H18_3 C26_3 1_555 1_555
C27_3 H19_3 1_555 1_555
H20_3 C27_3 1_555 1_555
H21_3 C27_3 1_555 1_555
C28_3 C27_3 1_555 1_555
C29_3 C24_3 1_555 1_555
C30_3 C29_3 1_555 1_555
C31_2 C30_3 1_555 1_555
H22_2 C31_2 1_555 1_555
H23_2 C31_2 1_555 1_555
H24_2 C31_2 1_555 1_555
N1_5 C23_3 1_555 1_555
N2_5 C25_5 1_555 1_555
N3 C28_3 1_555 1_555
N4_3 C30_3 1_555 1_555
H25_3 N4_3 1_555 1_555
O1_5 Co1_2 1_555 1_555
O2_3 Co2_2 1_555 1_555
O5_4 Co1_2 1_555 1_555
Co10 N3 1_555 1_555
N10_2 Co2_2 1_555 1_555
O13_2 Co1_2 1_555 1_555
O15_3 Co2_2 1_555 1_555
C1_5 O1_5 1_555 1_555
C1_5 O2_3 1_555 1_555
C28_3 C29_3 1_555 1_555
N1_5 N2_5 1_555 1_555
N3 N4_3 1_555 1_555
Co10 O12 1_555 1_555
C32_3 C33_3 1_555 1_555
C33_3 C34_3 1_555 1_555
C34_3 H26_3 1_555 1_555
C35_4 C34_3 1_555 1_555
C37_4 C36_4 1_555 1_555
C38_4 C33_3 1_555 1_555
H29_4 C38_4 1_555 1_555
O7_4 C32_3 1_555 1_555
O8_3 C32_3 1_555 1_555
Co3_3 O7_4 1_555 1_555
H33_3 C45_3 1_555 1_555
N5_3 Co3_3 1_555 1_555
N6_3 C56_3 1_555 1_555
O9_3 Co3_3 1_555 1_555
O14_3 Co3_3 1_555 1_555
C35_4 C36_4 1_555 1_555
C37_4 C38_4 1_555 1_555
C39_3 O9_3 1_555 1_555
N5_3 N6_3 1_555 1_555
H2_4 C4_4 1_555 1_555
H5_4 C9_4 1_555 1_555
C10_4 C9_4 1_555 1_555
H6_5 C10_4 1_555 1_555
C11_4 C10_4 1_555 1_555
C14_4 C11_4 1_555 1_555
O3_3 C14_4 1_555 1_555
O4_3 C14_4 1_555 1_555
Co5_3 O3_3 1_555 1_555
Co8_2 O4_3 1_555 1_555
Co10 N6_4 1_555 1_555
C39_4 C40_3 1_555 1_555
C40_3 C41_3 1_555 1_555
C41_3 H30_5 1_555 1_555
C42_5 C41_3 1_555 1_555
H31_5 C42_5 1_555 1_555
C43_2 C42_5 1_555 1_555
C44_2 C43_2 1_555 1_555
H32_2 C44_2 1_555 1_555
C45_4 C40_3 1_555 1_555
H33_4 C45_4 1_555 1_555
C46_2 C43_2 1_555 1_555
C47_4 C46_2 1_555 1_555
H34_4 C47_4 1_555 1_555
C48_4 C47_4 1_555 1_555
H35_4 C48_4 1_555 1_555
C49_4 C48_4 1_555 1_555
C50_2 C49_4 1_555 1_555
H36_2 C50_2 1_555 1_555
C51_2 C46_2 1_555 1_555
H37_2 C51_2 1_555 1_555
C52_4 C49_4 1_555 1_555
C55_3 C54_3 1_555 1_555
C56_4 C55_3 1_555 1_555
C57_3 C56_4 1_555 1_555
H41_3 C57_3 1_555 1_555
H42_3 C57_3 1_555 1_555
H43_3 C57_3 1_555 1_555
C58_3 H44_5 1_555 1_555
H45_3 C58_3 1_555 1_555
H46_3 C58_3 1_555 1_555
C59_3 C58_3 1_555 1_555
C60_3 C55_3 1_555 1_555
C61_3 C60_3 1_555 1_555
N6_4 C56_4 1_555 1_555
N7_2 C59_3 1_555 1_555
N8_3 C61_3 1_555 1_555
H50_3 N8_3 1_555 1_555
O10_3 Co10 1_555 1_555
O14_3 C52_4 1_555 1_555
O16_3 C52_4 1_555 1_555
Co8_2 N7_2 1_555 1_555
C39_4 O9_4 1_555 1_555
C39_4 O10_3 1_555 1_555
C44_2 C45_4 1_555 1_555
C50_2 C51_2 1_555 1_555
C54_3 N5_4 1_555 1_555
C59_3 C60_3 1_555 1_555
N5_4 N6_4 1_555 1_555
N7_2 N8_3 1_555 1_555
C15_4 C16_4 1_555 1_555
C16_4 C17_4 1_555 1_555
C17_4 H9_4 1_555 1_555
C18_5 C17_4 1_555 1_555
H10_5 C18_5 1_555 1_555
C19_5 C18_5 1_555 1_555
C20_5 C19_5 1_555 1_555
H11_3 C20_5 1_555 1_555
C21_5 C16_4 1_555 1_555
H12_5 C21_5 1_555 1_555
C22_3 H13_3 1_555 1_555
H14_3 C22_3 1_555 1_555
H15_3 C22_3 1_555 1_555
H22_3 C31_3 1_555 1_555
H23_3 C31_3 1_555 1_555
H24_3 C31_3 1_555 1_555
O5_5 Co1_3 1_555 1_555
O6_4 C15_4 1_555 1_555
H27_3 C35_5 1_555 1_555
C36_5 C19_5 1_555 1_555
C37_5 C36_5 1_555 1_555
H28_5 C37_5 1_555 1_555
H29_5 C38_5 1_555 1_555
O13_3 Co1_3 1_555 1_555
C15_4 O5_5 1_555 1_555
C20_5 C21_5 1_555 1_555
C35_5 C36_5 1_555 1_555
C37_5 C38_5 1_555 1_555
C32_4 C33_4 1_555 1_555
C33_4 C34_4 1_555 1_555
C34_4 H26_4 1_555 1_555
C35_6 C34_4 1_555 1_555
H27_4 C35_6 1_555 1_555
C37_6 C36_6 1_555 1_555
C38_6 C33_4 1_555 1_555
H29_6 C38_6 1_555 1_555
O7_5 C32_4 1_555 1_555
O8_4 C32_4 1_555 1_555
Co3_4 O7_5 1_555 1_555
H33_5 C45_5 1_555 1_555
N5_5 Co3_4 1_555 1_555
N6_5 C56_5 1_555 1_555
O9_5 Co3_4 1_555 1_555
O14_4 Co3_4 1_555 1_555
C35_6 C36_6 1_555 1_555
C37_6 C38_6 1_555 1_555
C39_5 O9_5 1_555 1_555
N5_5 N6_5 1_555 1_555
Co5_3 N1_6 1_555 1_555
Co8_2 N2_6 1_555 1_555
C1_6 C2_4 1_555 1_555
C2_4 C3_4 1_555 1_555
C3_4 H1_5 1_555 1_555
C4_5 C3_4 1_555 1_555
H2_5 C4_5 1_555 1_555
C5_4 C4_5 1_555 1_555
C6_4 C5_4 1_555 1_555
H3_5 C6_4 1_555 1_555
C7_6 C2_4 1_555 1_555
H4_6 C7_6 1_555 1_555
C8_4 C5_4 1_555 1_555
C9_5 C8_4 1_555 1_555
H5_5 C9_5 1_555 1_555
C10_5 C9_5 1_555 1_555
C11_5 C10_5 1_555 1_555
C12_4 C11_5 1_555 1_555
H7_4 C12_4 1_555 1_555
C13_4 C8_4 1_555 1_555
H8_4 C13_4 1_555 1_555
C14_5 C11_5 1_555 1_555
C22_4 H13_4 1_555 1_555
H14_4 C22_4 1_555 1_555
H15_4 C22_4 1_555 1_555
C23_4 C22_4 1_555 1_555
C24_4 C23_4 1_555 1_555
C25_6 C24_4 1_555 1_555
C26_4 C25_6 1_555 1_555
H16_4 C26_4 1_555 1_555
H17_4 C26_4 1_555 1_555
H18_4 C26_4 1_555 1_555
C27_4 H19_5 1_555 1_555
H20_4 C27_4 1_555 1_555
H21_4 C27_4 1_555 1_555
C28_4 C27_4 1_555 1_555
C29_4 C24_4 1_555 1_555
C30_4 C29_4 1_555 1_555
C31_4 C30_4 1_555 1_555
H22_4 C31_4 1_555 1_555
H23_4 C31_4 1_555 1_555
H24_4 C31_4 1_555 1_555
N1_6 C23_4 1_555 1_555
N2_6 C25_6 1_555 1_555
N3_2 C28_4 1_555 1_555
N4_4 C30_4 1_555 1_555
H25_4 N4_4 1_555 1_555
O1_6 Co5_3 1_555 1_555
O2_4 Co8_2 1_555 1_555
O13_3 C14_5 1_555 1_555
O5_6 Co5_3 1_555 1_555
Co10_2 N3_2 1_555 1_555
C1_6 O1_6 1_555 1_555
C1_6 O2_4 1_555 1_555
C6_4 C7_6 1_555 1_555
C12_4 C13_4 1_555 1_555
C28_4 C29_4 1_555 1_555
N1_6 N2_6 1_555 1_555
N3_2 N4_4 1_555 1_555
Co10_2 O12_2 1_555 1_555
H2_6 C4_6 1_555 1_555
H5_6 C9_6 1_555 1_555
C10_6 C9_6 1_555 1_555
H6_6 C10_6 1_555 1_555
C11_6 C10_6 1_555 1_555
C14_6 C11_6 1_555 1_555
O13_2 C14_6 1_555 1_555
O15_3 C14_6 1_555 1_555
Co10_2 N6_6 1_555 1_555
C39_6 C40_4 1_555 1_555
C40_4 C41_4 1_555 1_555
C41_4 H30_6 1_555 1_555
C42_6 C41_4 1_555 1_555
H31_6 C42_6 1_555 1_555
C43_3 C42_6 1_555 1_555
C44_3 C43_3 1_555 1_555
H32_4 C44_3 1_555 1_555
C45_6 C40_4 1_555 1_555
H33_6 C45_6 1_555 1_555
C46_3 C43_3 1_555 1_555
C47_5 C46_3 1_555 1_555
H34_5 C47_5 1_555 1_555
C48_5 C47_5 1_555 1_555
H35_6 C48_5 1_555 1_555
C49_5 C48_5 1_555 1_555
C50_3 C49_5 1_555 1_555
H36_3 C50_3 1_555 1_555
C51_3 C46_3 1_555 1_555
H37_3 C51_3 1_555 1_555
C52_5 C49_5 1_555 1_555
C55_4 C54_4 1_555 1_555
C56_6 C55_4 1_555 1_555
C57_4 C56_6 1_555 1_555
H41_4 C57_4 1_555 1_555
H42_4 C57_4 1_555 1_555
H43_4 C57_4 1_555 1_555
C58_4 H44_6 1_555 1_555
H45_4 C58_4 1_555 1_555
H46_4 C58_4 1_555 1_555
C59_4 C58_4 1_555 1_555
C60_4 C55_4 1_555 1_555
C61_4 C60_4 1_555 1_555
N6_6 C56_6 1_555 1_555
N10_2 C59_4 1_555 1_555
N8_4 C61_4 1_555 1_555
H50_4 N8_4 1_555 1_555
O10_4 Co10_2 1_555 1_555
O14_4 C52_5 1_555 1_555
O16_4 C52_5 1_555 1_555
C39_6 O9_6 1_555 1_555
C39_6 O10_4 1_555 1_555
C44_3 C45_6 1_555 1_555
C50_3 C51_3 1_555 1_555
C54_4 N5_6 1_555 1_555
C59_4 C60_4 1_555 1_555
N5_6 N6_6 1_555 1_555
N10_2 N8_4 1_555 1_555
C15_5 C16_5 1_555 1_555
C16_5 C17_5 1_555 1_555
C17_5 H9_5 1_555 1_555
C18_6 C17_5 1_555 1_555
C19_6 C18_6 1_555 1_555
C20_6 C19_6 1_555 1_555
H11_5 C20_6 1_555 1_555
C21_6 C16_5 1_555 1_555
H12_6 C21_6 1_555 1_555
O6_5 C15_5 1_555 1_555
C20_6 C21_6 1_555 1_555
C44_4 C43_4 1_555 1_555
H32_5 C44_4 1_555 1_555
C46_4 C43_4 1_555 1_555
C47_6 C46_4 1_555 1_555
H34_6 C47_6 1_555 1_555
C48_6 C47_6 1_555 1_555
C49_6 C48_6 1_555 1_555
C50_4 C49_6 1_555 1_555
H36_4 C50_4 1_555 1_555
C51_4 C46_4 1_555 1_555
H37_4 C51_4 1_555 1_555
C52_6 C49_6 1_555 1_555
O11_2 C52_6 1_555 1_555
Co6_2 O11_2 1_555 1_555
C50_4 C51_4 1_555 1_555
H10_6 C18_7 1_555 1_555
C19_7 C18_7 1_555 1_555
C20_7 C19_7 1_555 1_555
H11_6 C20_7 1_555 1_555
H12_7 C21_7 1_555 1_555
C32_5 C33_5 1_555 1_555
C33_5 C34_5 1_555 1_555
C34_5 H26_5 1_555 1_555
C35_7 C34_5 1_555 1_555
H27_6 C35_7 1_555 1_555
C36_7 C19_7 1_555 1_555
C37_7 C36_7 1_555 1_555
H28_6 C37_7 1_555 1_555
C38_7 C33_5 1_555 1_555
H29_7 C38_7 1_555 1_555
O7_6 C32_5 1_555 1_555
O8_5 C32_5 1_555 1_555
Co6_2 O7_6 1_555 1_555
C53_4 H38_4 1_555 1_555
H39_4 C53_4 1_555 1_555
H40_4 C53_4 1_555 1_555
H47_4 C62_4 1_555 1_555
H48_4 C62_4 1_555 1_555
H49_4 C62_4 1_555 1_555
C20_7 C21_7 1_555 1_555
C35_7 C36_7 1_555 1_555
C37_7 C38_7 1_555 1_555
C2_5 C3_5 1_555 1_555
C3_5 H1_7 1_555 1_555
C4_7 C3_5 1_555 1_555
H2_7 C4_7 1_555 1_555
H16_5 C26_5 1_555 1_555
H18_5 C26_5 1_555 1_555
O2_5 Co2_3 1_555 1_555
N10_3 Co2_3 1_555 1_555
C6_5 C5_5 1_555 1_555
C8_5 C5_5 1_555 1_555
C9_7 C8_5 1_555 1_555
H5_7 C9_7 1_555 1_555
C10_7 C9_7 1_555 1_555
H6_7 C10_7 1_555 1_555
C11_7 C10_7 1_555 1_555
C12_5 C11_7 1_555 1_555
H7_5 C12_5 1_555 1_555
C13_5 C8_5 1_555 1_555
H8_5 C13_5 1_555 1_555
C14_7 C11_7 1_555 1_555
O3_4 C14_7 1_555 1_555
O4_4 C14_7 1_555 1_555
Co5_4 O3_4 1_555 1_555
Co8_3 O4_4 1_555 1_555
C12_5 C13_5 1_555 1_555
C58_5 H44_7 1_555 1_555
H45_5 C58_5 1_555 1_555
H46_5 C58_5 1_555 1_555
C59_5 C58_5 1_555 1_555
N7_3 C59_5 1_555 1_555
Co8_3 N7_3 1_555 1_555
C27_5 H19_7 1_555 1_555
H20_5 C27_5 1_555 1_555
H21_5 C27_5 1_555 1_555
C28_5 C27_5 1_555 1_555
N3_3 C28_5 1_555 1_555
Co10_3 N3_3 1_555 1_555
C40_5 C41_5 1_555 1_555
C41_5 H30_7 1_555 1_555
C42_7 C41_5 1_555 1_555
H31_7 C42_7 1_555 1_555
C43_5 C42_7 1_555 1_555
C44_5 C43_5 1_555 1_555
C46_5 C43_5 1_555 1_555
C47_7 C46_5 1_555 1_555
H34_7 C47_7 1_555 1_555
C48_7 C47_7 1_555 1_555
H35_7 C48_7 1_555 1_555
C49_7 C48_7 1_555 1_555
C50_5 C49_7 1_555 1_555
H36_5 C50_5 1_555 1_555
C51_5 C46_5 1_555 1_555
H37_5 C51_5 1_555 1_555
C52_7 C49_7 1_555 1_555
H41_5 C57_5 1_555 1_555
H43_5 C57_5 1_555 1_555
O10_5 Co4_3 1_555 1_555
O11_3 C52_7 1_555 1_555
O12_3 C52_7 1_555 1_555
Co6_3 O11_3 1_555 1_555
Co10_3 O12_3 1_555 1_555
N9_3 Co4_3 1_555 1_555
C50_5 C51_5 1_555 1_555
C32_6 C33_6 1_555 1_555
C33_6 C34_6 1_555 1_555
C34_6 H26_6 1_555 1_555
O7_7 C32_6 1_555 1_555
O8_6 C32_6 1_555 1_555
Co6_3 O7_7 1_555 1_555
Co10_3 N6_7 1_555 1_555
C39_7 C40_6 1_555 1_555
C40_6 C41_6 1_555 1_555
C44_6 C43_6 1_555 1_555
H32_6 C44_6 1_555 1_555
C45_7 C40_6 1_555 1_555
H33_7 C45_7 1_555 1_555
C46_6 C43_6 1_555 1_555
H36_6 C50_6 1_555 1_555
C51_6 C46_6 1_555 1_555
H37_6 C51_6 1_555 1_555
C53_5 H38_5 1_555 1_555
H39_5 C53_5 1_555 1_555
H40_5 C53_5 1_555 1_555
C54_5 C53_5 1_555 1_555
C55_5 C54_5 1_555 1_555
C56_7 C55_5 1_555 1_555
C57_6 C56_7 1_555 1_555
H41_6 C57_6 1_555 1_555
H42_6 C57_6 1_555 1_555
H43_6 C57_6 1_555 1_555
H45_6 C58_6 1_555 1_555
H46_6 C58_6 1_555 1_555
C59_6 C58_6 1_555 1_555
C60_5 C55_5 1_555 1_555
C61_5 C60_5 1_555 1_555
C62_5 C61_5 1_555 1_555
H47_5 C62_5 1_555 1_555
H48_5 C62_5 1_555 1_555
H49_5 C62_5 1_555 1_555
N5_7 Co6_3 1_555 1_555
N6_7 C56_7 1_555 1_555
N10_3 C59_6 1_555 1_555
N8_5 C61_5 1_555 1_555
H50_5 N8_5 1_555 1_555
O9_7 Co6_3 1_555 1_555
O10_6 Co10_3 1_555 1_555
C39_7 O9_7 1_555 1_555
C39_7 O10_6 1_555 1_555
C44_6 C45_7 1_555 1_555
C50_6 C51_6 1_555 1_555
C54_5 N5_7 1_555 1_555
C59_6 C60_5 1_555 1_555
N5_7 N6_7 1_555 1_555
N10_3 N8_5 1_555 1_555
Co5_4 N1_7 1_555 1_555
Co8_3 N2_7 1_555 1_555
C1_7 C2_6 1_555 1_555
C2_6 C3_6 1_555 1_555
C6_6 C5_6 1_555 1_555
H3_6 C6_6 1_555 1_555
C7_7 C2_6 1_555 1_555
H4_7 C7_7 1_555 1_555
C8_6 C5_6 1_555 1_555
H7_6 C12_6 1_555 1_555
C13_6 C8_6 1_555 1_555
H8_6 C13_6 1_555 1_555
C15_6 C16_6 1_555 1_555
C16_6 C17_6 1_555 1_555
C17_6 H9_6 1_555 1_555
C22_5 H13_5 1_555 1_555
H14_5 C22_5 1_555 1_555
H15_5 C22_5 1_555 1_555
C23_5 C22_5 1_555 1_555
C24_5 C23_5 1_555 1_555
C25_7 C24_5 1_555 1_555
C26_6 C25_7 1_555 1_555
H16_6 C26_6 1_555 1_555
H17_6 C26_6 1_555 1_555
H18_6 C26_6 1_555 1_555
H20_6 C27_6 1_555 1_555
H21_6 C27_6 1_555 1_555
C28_6 C27_6 1_555 1_555
C29_5 C24_5 1_555 1_555
C30_5 C29_5 1_555 1_555
C31_5 C30_5 1_555 1_555
H22_5 C31_5 1_555 1_555
H23_5 C31_5 1_555 1_555
H24_5 C31_5 1_555 1_555
N1_7 C23_5 1_555 1_555
N2_7 C25_7 1_555 1_555
N9_3 C28_6 1_555 1_555
N4_5 C30_5 1_555 1_555
H25_5 N4_5 1_555 1_555
O1_7 Co5_4 1_555 1_555
O2_6 Co8_3 1_555 1_555
O5_7 Co5_4 1_555 1_555
O6_6 C15_6 1_555 1_555
C1_7 O1_7 1_555 1_555
C1_7 O2_6 1_555 1_555
C6_6 C7_7 1_555 1_555
C12_6 C13_6 1_555 1_555
C15_6 O5_7 1_555 1_555
C28_6 C29_5 1_555 1_555
N1_7 N2_7 1_555 1_555
N9_3 N4_5 1_555 1_555
C53_6 H38_6 1_555 1_555
H39_6 C53_6 1_555 1_555
H40_6 C53_6 1_555 1_555
C54_6 C53_6 1_555 1_555
C55_6 C54_6 1_555 1_555
C60_6 C55_6 1_555 1_555
C61_6 C60_6 1_555 1_555
C62_6 C61_6 1_555 1_555
H47_6 C62_6 1_555 1_555
H48_6 C62_6 1_555 1_555
H49_6 C62_6 1_555 1_555
N8_6 C61_6 1_555 1_555
H50_6 N8_6 1_555 1_555
C27_7 H19_8 1_555 1_555
H20_7 C27_7 1_555 1_555
H21_7 C27_7 1_555 1_555
C28_7 C27_7 1_555 1_555
N3_4 C28_7 1_555 1_555
Co10_4 N3_4 1_555 1_555
C44_7 C43_7 1_555 1_555
C46_7 C43_7 1_555 1_555
C47_8 C46_7 1_555 1_555
H34_8 C47_8 1_555 1_555
C48_8 C47_8 1_555 1_555
H35_8 C48_8 1_555 1_555
C49_8 C48_8 1_555 1_555
C50_7 C49_8 1_555 1_555
H36_7 C50_7 1_555 1_555
C51_7 C46_7 1_555 1_555
H37_7 C51_7 1_555 1_555
C52_8 C49_8 1_555 1_555
O11_4 C52_8 1_555 1_555
O12_4 C52_8 1_555 1_555
Co6_4 O11_4 1_555 1_555
Co10_4 O12_4 1_555 1_555
C50_7 C51_7 1_555 1_555
C40_7 C41_7 1_555 1_555
C41_7 H30_8 1_555 1_555
C42_8 C41_7 1_555 1_555
H31_8 C42_8 1_555 1_555
H41_7 C57_7 1_555 1_555
H43_7 C57_7 1_555 1_555
O10_7 Co4_4 1_555 1_555
N9_4 Co4_4 1_555 1_555
Co1_4 N1_8 1_555 1_555
Co2_4 N2_8 1_555 1_555
C1_8 C2_7 1_555 1_555
C2_7 C3_7 1_555 1_555
C6_7 C5_7 1_555 1_555
H3_8 C6_7 1_555 1_555
C7_8 C2_7 1_555 1_555
H4_8 C7_8 1_555 1_555
C8_7 C5_7 1_555 1_555
H7_7 C12_7 1_555 1_555
C13_7 C8_7 1_555 1_555
H8_7 C13_7 1_555 1_555
C15_7 C16_7 1_555 1_555
C16_7 C17_7 1_555 1_555
C17_7 H9_7 1_555 1_555
C22_6 H13_6 1_555 1_555
H14_6 C22_6 1_555 1_555
H15_6 C22_6 1_555 1_555
C23_6 C22_6 1_555 1_555
C24_6 C23_6 1_555 1_555
C25_8 C24_6 1_555 1_555
C26_7 C25_8 1_555 1_555
H16_7 C26_7 1_555 1_555
H17_8 C26_7 1_555 1_555
H18_7 C26_7 1_555 1_555
H20_8 C27_8 1_555 1_555
H21_8 C27_8 1_555 1_555
C28_8 C27_8 1_555 1_555
C29_6 C24_6 1_555 1_555
C30_6 C29_6 1_555 1_555
C31_6 C30_6 1_555 1_555
H22_6 C31_6 1_555 1_555
H23_6 C31_6 1_555 1_555
H24_6 C31_6 1_555 1_555
N1_8 C23_6 1_555 1_555
N2_8 C25_8 1_555 1_555
N9_4 C28_8 1_555 1_555
N4_6 C30_6 1_555 1_555
H25_6 N4_6 1_555 1_555
O1_8 Co1_4 1_555 1_555
O2_7 Co2_4 1_555 1_555
O5_8 Co1_4 1_555 1_555
O6_7 C15_7 1_555 1_555
N10_4 Co2_4 1_555 1_555
O13_4 Co1_4 1_555 1_555
O15_4 Co2_4 1_555 1_555
C1_8 O1_8 1_555 1_555
C1_8 O2_7 1_555 1_555
C6_7 C7_8 1_555 1_555
C12_7 C13_7 1_555 1_555
C15_7 O5_8 1_555 1_555
C28_8 C29_6 1_555 1_555
N1_8 N2_8 1_555 1_555
N9_4 N4_6 1_555 1_555
C32_7 C33_7 1_555 1_555
C33_7 C34_7 1_555 1_555
C34_7 H26_7 1_555 1_555
O7_8 C32_7 1_555 1_555
O8_7 C32_7 1_555 1_555
Co6_4 O7_8 1_555 1_555
Co10_4 N6_8 1_555 1_555
C39_8 C40_8 1_555 1_555
C40_8 C41_8 1_555 1_555
C44_8 C43_8 1_555 1_555
H32_7 C44_8 1_555 1_555
C45_8 C40_8 1_555 1_555
H33_8 C45_8 1_555 1_555
C46_8 C43_8 1_555 1_555
H36_8 C50_8 1_555 1_555
C51_8 C46_8 1_555 1_555
H37_8 C51_8 1_555 1_555
C53_7 H38_7 1_555 1_555
H39_7 C53_7 1_555 1_555
H40_7 C53_7 1_555 1_555
C54_7 C53_7 1_555 1_555
C55_7 C54_7 1_555 1_555
C56_8 C55_7 1_555 1_555
C57_8 C56_8 1_555 1_555
H41_8 C57_8 1_555 1_555
H42_7 C57_8 1_555 1_555
H43_8 C57_8 1_555 1_555
H45_7 C58_7 1_555 1_555
H46_7 C58_7 1_555 1_555
C59_7 C58_7 1_555 1_555
C60_7 C55_7 1_555 1_555
C61_7 C60_7 1_555 1_555
C62_7 C61_7 1_555 1_555
H47_7 C62_7 1_555 1_555
H48_7 C62_7 1_555 1_555
H49_7 C62_7 1_555 1_555
N5_8 Co6_4 1_555 1_555
N6_8 C56_8 1_555 1_555
N7_4 C59_7 1_555 1_555
N8_7 C61_7 1_555 1_555
H50_7 N8_7 1_555 1_555
O9_8 Co6_4 1_555 1_555
O10_8 Co10_4 1_555 1_555
Co8_4 N7_4 1_555 1_555
C39_8 O9_8 1_555 1_555
C39_8 O10_8 1_555 1_555
C44_8 C45_8 1_555 1_555
C50_8 C51_8 1_555 1_555
C54_7 N5_8 1_555 1_555
C59_7 C60_7 1_555 1_555
N5_8 N6_8 1_555 1_555
N7_4 N8_7 1_555 1_555
C2_8 C3_8 1_555 1_555
C3_8 H1_8 1_555 1_555
C4_8 C3_8 1_555 1_555
H2_8 C4_8 1_555 1_555
C5_8 C4_8 1_555 1_555
C6_8 C5_8 1_555 1_555
C8_8 C5_8 1_555 1_555
C9_8 C8_8 1_555 1_555
H5_8 C9_8 1_555 1_555
C10_8 C9_8 1_555 1_555
H6_8 C10_8 1_555 1_555
C11_8 C10_8 1_555 1_555
C12_8 C11_8 1_555 1_555
H7_8 C12_8 1_555 1_555
C13_8 C8_8 1_555 1_555
H8_8 C13_8 1_555 1_555
C14_8 C11_8 1_555 1_555
H16_8 C26_8 1_555 1_555
H18_8 C26_8 1_555 1_555
O2_8 Co8_4 1_555 1_555
O13_4 C14_8 1_555 1_555
O15_4 C14_8 1_555 1_555
C12_8 C13_8 1_555 1_555
C58_8 H44_8 1_555 1_555
H45_8 C58_8 1_555 1_555
H46_8 C58_8 1_555 1_555
C59_8 C58_8 1_555 1_555
N10_4 C59_8 1_555 1_555
C22_7 H13_7 1_555 1_555
H14_7 C22_7 1_555 1_555
H15_7 C22_7 1_555 1_555
C23_7 C22_7 1_555 1_555
C24_7 C23_7 1_555 1_555
C29_7 C24_7 1_555 1_555
C30_7 C29_7 1_555 1_555
C31_7 C30_7 1_555 1_555
H22_7 C31_7 1_555 1_555
H23_7 C31_7 1_555 1_555
H24_7 C31_7 1_555 1_555
N4_7 C30_7 1_555 1_555
H25_7 N4_7 1_555 1_555
C22_8 H13_8 1_555 1_555
H14_8 C22_8 1_555 1_555
H15_8 C22_8 1_555 1_555
C23_8 C22_8 1_555 1_555
C24_8 C23_8 1_555 1_555
C29_8 C24_8 1_555 1_555
C30_8 C29_8 1_555 1_555
C31_8 C30_8 1_555 1_555
H22_8 C31_8 1_555 1_555
H23_8 C31_8 1_555 1_555
H24_8 C31_8 1_555 1_555
N4_8 C30_8 1_555 1_555
H25_8 N4_8 1_555 1_555
C53_8 H38_8 1_555 1_555
H39_8 C53_8 1_555 1_555
H40_8 C53_8 1_555 1_555
C54_8 C53_8 1_555 1_555
C55_8 C54_8 1_555 1_555
C60_8 C55_8 1_555 1_555
C61_8 C60_8 1_555 1_555
C62_8 C61_8 1_555 1_555
H47_8 C62_8 1_555 1_555
H48_8 C62_8 1_555 1_555
H49_8 C62_8 1_555 1_555
N8_8 C61_8 1_555 1_555
H50_8 N8_8 1_555 1_555
C15_8 C16_8 1_555 1_555
C16_8 C17_8 1_555 1_555
C17_8 H9_8 1_555 1_555
C18_8 C17_8 1_555 1_555
H10_8 C18_8 1_555 1_555
C19_8 C18_8 1_555 1_555
C20_8 C19_8 1_555 1_555
H11_8 C20_8 1_555 1_555
C21_8 C16_8 1_555 1_555
H12_8 C21_8 1_555 1_555
O6_8 C15_8 1_555 1_555
C32_8 C33_8 1_555 1_555
C33_8 C34_8 1_555 1_555
C34_8 H26_8 1_555 1_555
C35_8 C34_8 1_555 1_555
H27_8 C35_8 1_555 1_555
C36_8 C19_8 1_555 1_555
C37_8 C36_8 1_555 1_555
H28_8 C37_8 1_555 1_555
C38_8 C33_8 1_555 1_555
H29_8 C38_8 1_555 1_555
O8_8 C32_8 1_555 1_555
C20_8 C21_8 1_555 1_555
C35_8 C36_8 1_555 1_555
C37_8 C38_8 1_555 1_555

#END
