
###############################################################################
#
# This file contains modified crystal structure data generated from the
# MOF subset of the Cambridge Structural Database (CSD) v543 
# hosted by the Cambridge Crystallographic Data Centre (CCDC).
#
# This work is licensed under the Creative Commons
# Attribution-NonCommercial-ShareAlike 4.0 International License.
# To view a copy of this license, visit
# http://creativecommons.org/licenses/by-nc-sa/4.0/
# or send a letter to
# Creative Commons, PO Box 1866, Mountain View, CA 94042, USA.
#
# CIF created using the CSD Python API on 29 September 2022
# The structure has been converted into the P1 space group
# The structure has a 3D framework
# The original CSD entry BEQJUF is in the monoclinic crystal system
# The framework has been calculated to contain at least 10.0% void space
# The void calculation uses a probe of radius 1.32A, grid spacing 0.4
# The framework is charged, counterions have been retained in the structure
#
###############################################################################

data_BEQJUF
_chemical_formula_moiety         '(C144 H104 N24 O92 Tb14 6+)n'
_symmetry_cell_setting           triclinic
_symmetry_space_group_name_H-M   'P 1'
_symmetry_Int_Tables_number      1
_space_group_name_Hall           'P 1'
loop_
_symmetry_equiv_pos_site_id
_symmetry_equiv_pos_as_xyz
1 x,y,z
_cell_length_a                   16.1262(8)
_cell_length_b                   21.2556(13)
_cell_length_c                   17.0839(14)
_cell_angle_alpha                90
_cell_angle_beta                 110.461(3)
_cell_angle_gamma                90
_cell_volume                     5486.44
loop_
_atom_site_label
_atom_site_type_symbol
_atom_site_fract_x
_atom_site_fract_y
_atom_site_fract_z
O19 O 0.0669(5) 0.2399(4) 0.3812(5)
O20 O 0.1017(5) 0.2665(4) 0.2734(5)
C36 C 0.0506(7) 0.2390(5) 0.3027(8)
Tb10 Tb 0.18565(3) 0.31374(2) 0.40761(3)
Tb1 Tb 0.62381(5) -0.0000 0.18182(5)
Tb2 Tb 0.68565(3) 0.18626(2) 0.40761(3)
O1 O 0.5230(5) 0.0649(4) 0.2202(5)
O2 O 0.5902(4) 0.1053(4) 0.3465(5)
O3 O 0.3800(6) 0.1588(5) 0.4920(5)
O4 O 0.2750(5) 0.2262(4) 0.4326(5)
O9 O 0.6918(7) 0.0000 0.3323(8)
O10 O 0.5481(5) 0.0680(4) 0.0688(5)
H2 H 0.5019 0.0821 0.0759
H3 H 0.5818 0.0985 0.0671
O11 O 0.7138(11) -0.0000 0.0906(10)
O12 O 0.7891(10) 0.1180(7) 0.4939(7)
H5 H 0.8059 0.0907 0.4659
H6 H 0.7635 0.0987 0.5230
N1 N 0.1463(13) 0.2016(11) 0.1099(12)
N2 N 0.1010(12) 0.2054(11) 0.0209(12)
N3 N 0.2298(6) 0.1688(5) 0.0401(6)
H7 H 0.2751 0.1547 0.0302
C1 C 0.4393(6) 0.1288(5) 0.2765(6)
C2 C 0.4253(7) 0.1459(5) 0.3510(6)
H8 H 0.4692 0.1384 0.4025
C3 C 0.3457(7) 0.1740(5) 0.3471(7)
C4 C 0.2800(7) 0.1860(5) 0.2705(7)
H9 H 0.2276 0.2054 0.2683
C5 C 0.2931(7) 0.1686(6) 0.1969(7)
C6 C 0.3717(7) 0.1391(6) 0.1998(7)
H10 H 0.3791 0.1264 0.1505
C7 C 0.2235(7) 0.1797(7) 0.1149(8)
C15 C 0.5227(7) 0.0979(5) 0.2800(7)
C16 C 0.3326(7) 0.1876(5) 0.4275(7)
H14 H 0.6702 0.0298 0.3523
H15 H 0.7468 0.0324 0.1003
O17 O 0.7106(6) 0.0882(5) 0.2191(6)
O18 O 0.7637(5) 0.1512(4) 0.3281(5)
C26 C 0.8460(8) 0.1838(8) 0.0141(8)
C27 C 0.8288(6) 0.1554(5) 0.2257(7)
C28 C 0.9071(7) 0.1827(5) 0.2784(7)
H22 H 0.9192 0.1834 0.3357
C29 C 0.9670(7) 0.2088(6) 0.2462(7)
C30 C 0.9491(7) 0.2073(6) 0.1596(6)
H23 H 0.9897 0.2240 0.1378
C31 C 0.8714(7) 0.1810(6) 0.1068(7)
C32 C 0.8115(7) 0.1553(6) 0.1392(7)
H24 H 0.7592 0.1377 0.1034
C35 C 0.7626(7) 0.1295(5) 0.2597(7)
Tb6 Tb 0.31435(3) 0.18626(2) 0.59239(3)
O25 O 0.6200(6) 0.1588(5) 0.5080(5)
O27 O 0.7250(5) 0.2262(4) 0.5674(5)
O29 O 0.7750(5) 0.2738(4) 0.4326(5)
O31 O 0.5669(5) 0.2601(4) 0.3812(5)
O33 O 0.6017(5) 0.2335(4) 0.2734(5)
O5 O 0.2894(6) 0.0882(5) 0.7809(6)
O6 O 0.2363(5) 0.1512(4) 0.6719(5)
C8 C 0.1540(8) 0.1838(8) 0.9859(8)
C9 C 0.1712(6) 0.1554(5) 0.7743(7)
C10 C 0.0929(7) 0.1827(5) 0.7216(7)
H11 H 0.0808 0.1834 0.6643
C11 C 0.0330(7) 0.2088(6) 0.7538(7)
C12 C 0.0509(7) 0.2073(6) 0.8404(6)
H12 H 0.0103 0.2240 0.8622
C13 C 0.1286(7) 0.1810(6) 0.8932(7)
C14 C 0.1885(7) 0.1553(6) 0.8608(7)
H13 H 0.2408 0.1377 0.8966
C17 C 0.2374(7) 0.1295(5) 0.7403(7)
O13 O 0.4770(5) 0.0649(4) 0.7798(5)
O14 O 0.4098(4) 0.1053(4) 0.6535(5)
O21 O 0.2109(10) 0.1180(7) 0.5061(7)
H16 H 0.1941 0.0907 0.5341
H17 H 0.2365 0.0987 0.4770
N4 N 0.8537(13) 0.2016(11) 0.8901(12)
N5 N 0.8990(12) 0.2054(11) 0.9791(12)
N6 N 0.7702(6) 0.1688(5) 0.9599(6)
H18 H 0.7249 0.1547 0.9698
C19 C 0.5607(6) 0.1288(5) 0.7235(6)
C20 C 0.5747(7) 0.1459(5) 0.6490(6)
H19 H 0.5308 0.1384 0.5975
C21 C 0.6543(7) 0.1740(5) 0.6529(7)
C22 C 0.7200(7) 0.1860(5) 0.7295(7)
H20 H 0.7724 0.2054 0.7317
C23 C 0.7069(7) 0.1686(6) 0.8031(7)
C24 C 0.6283(7) 0.1391(6) 0.8002(7)
H21 H 0.6209 0.1264 0.8495
C25 C 0.7765(7) 0.1797(7) 0.8851(8)
C33 C 0.4773(7) 0.0979(5) 0.7200(7)
C34 C 0.6674(7) 0.1876(5) 0.5725(7)
Tb4 Tb 0.37619(5) -0.0000 0.81818(5)
Tb8 Tb 0.81435(3) 0.31374(2) 0.59239(3)
O28 O 0.2250(5) 0.2738(4) 0.5674(5)
O32 O 0.4331(5) 0.2601(4) 0.6188(5)
O34 O 0.3983(5) 0.2335(4) 0.7266(5)
Tb1_2 Tb 0.62381(5) 1.0000 0.18182(5)
O9_2 O 0.6918(7) 1.0000 0.3323(8)
H1 H 0.6702 0.9702 0.3523
O11_2 O 0.7138(11) 1.0000 0.0906(10)
H4 H 0.7468 0.9676 0.1003
O22 O 0.5481(5) 0.9320(4) 0.0688(5)
H25 H 0.5019 0.9179 0.0759
H26 H 0.5818 0.9015 0.0671
O23 O 0.5230(5) 0.9351(4) 0.2202(5)
O30 O 0.7106(6) 0.9118(5) 0.2191(6)
Tb4_2 Tb 0.37619(5) 1.0000 0.81818(5)
O7 O 0.9331(5) 0.2399(4) 0.6188(5)
O8 O 0.8983(5) 0.2665(4) 0.7266(5)
C18 C 0.9494(7) 0.2390(5) 0.6973(8)
O9_3 O 0.3082(7) 0.0000 0.6677(8)
O10_2 O 0.4519(5) 0.0680(4) 0.9312(5)
H2_2 H 0.4981 0.0821 0.9241
H3_2 H 0.4182 0.0985 0.9329
O11_3 O 0.2862(11) 0.0000 0.9094(10)
H14_2 H 0.3298 0.0298 0.6477
H15_2 H 0.2532 0.0324 0.8997
O9_4 O 0.3082(7) 1.0000 0.6677(8)
H1_2 H 0.3298 0.9702 0.6477
O11_4 O 0.2862(11) 1.0000 0.9094(10)
H4_2 H 0.2532 0.9676 0.8997
O22_2 O 0.4519(5) 0.9320(4) 0.9312(5)
H25_2 H 0.4981 0.9179 0.9241
H26_2 H 0.4182 0.9015 0.9329
O23_2 O 0.4770(5) 0.9351(4) 0.7798(5)
O30_2 O 0.2894(6) 0.9118(5) 0.7809(6)
Tb1_3 Tb 0.12381(5) 0.5000 0.18182(5)
Tb2_2 Tb 0.18565(3) 0.68626(2) 0.40761(3)
O1_2 O 0.0230(5) 0.5649(4) 0.2202(5)
O2_2 O 0.0902(4) 0.6053(4) 0.3465(5)
O9_5 O 0.1918(7) 0.5000 0.3323(8)
H1_3 H 0.1702 0.4702 0.3523
O10_3 O 0.0481(5) 0.5680(4) 0.0688(5)
H2_3 H 0.0019 0.5821 0.0759
H3_3 H 0.0818 0.5985 0.0671
O11_5 O 0.2138(11) 0.5000 0.0906(10)
H4_3 H 0.2468 0.4676 0.1003
O12_2 O 0.2891(10) 0.6180(7) 0.4939(7)
H5_2 H 0.3059 0.5907 0.4659
H6_2 H 0.2635 0.5987 0.5230
C15_2 C 0.0227(7) 0.5979(5) 0.2800(7)
H14_3 H 0.1702 0.5298 0.3523
H15_3 H 0.2468 0.5324 0.1003
O17_2 O 0.2106(6) 0.5882(5) 0.2191(6)
O18_2 O 0.2637(5) 0.6512(4) 0.3281(5)
O19_2 O 0.5669(5) 0.7399(4) 0.3812(5)
O20_2 O 0.6017(5) 0.7665(4) 0.2734(5)
C26_2 C 0.3460(8) 0.6838(8) 0.0141(8)
C27_2 C 0.3288(6) 0.6554(5) 0.2257(7)
C28_2 C 0.4071(7) 0.6827(5) 0.2784(7)
H22_2 H 0.4192 0.6834 0.3357
C29_2 C 0.4670(7) 0.7088(6) 0.2462(7)
C30_2 C 0.4491(7) 0.7073(6) 0.1596(6)
H23_2 H 0.4897 0.7240 0.1378
C31_2 C 0.3714(7) 0.6810(6) 0.1068(7)
C32_2 C 0.3115(7) 0.6553(6) 0.1392(7)
H24_2 H 0.2592 0.6377 0.1034
C35_2 C 0.2626(7) 0.6295(5) 0.2597(7)
C36_2 C 0.5506(7) 0.7390(5) 0.3027(8)
O22_3 O 0.0481(5) 0.4320(4) 0.0688(5)
H25_3 H 0.0019 0.4179 0.0759
H26_3 H 0.0818 0.4015 0.0671
Tb10_2 Tb 0.68565(3) 0.81374(2) 0.40761(3)
O23_3 O 0.0230(5) 0.4351(4) 0.2202(5)
O25_2 O 0.1200(6) 0.6588(5) 0.5080(5)
O27_2 O 0.2250(5) 0.7262(4) 0.5674(5)
O29_2 O 0.2750(5) 0.7738(4) 0.4326(5)
O30_3 O 0.2106(6) 0.4118(5) 0.2191(6)
O31_2 O 0.0669(5) 0.7601(4) 0.3812(5)
O33_2 O 0.1017(5) 0.7335(4) 0.2734(5)
N4_2 N 0.3537(13) 0.7016(11) 0.8901(12)
N5_2 N 0.3990(12) 0.7054(11) 0.9791(12)
N6_2 N 0.2702(6) 0.6688(5) 0.9599(6)
H18_2 H 0.2249 0.6547 0.9698
C19_2 C 0.0607(6) 0.6288(5) 0.7235(6)
C20_2 C 0.0747(7) 0.6459(5) 0.6490(6)
H19_2 H 0.0308 0.6384 0.5975
C21_2 C 0.1543(7) 0.6740(5) 0.6529(7)
C22_2 C 0.2200(7) 0.6860(5) 0.7295(7)
H20_2 H 0.2724 0.7054 0.7317
C23_2 C 0.2069(7) 0.6686(6) 0.8031(7)
C24_2 C 0.1283(7) 0.6391(6) 0.8002(7)
H21_2 H 0.1209 0.6264 0.8495
C25_2 C 0.2765(7) 0.6797(7) 0.8851(8)
C34_2 C 0.1674(7) 0.6876(5) 0.5725(7)
Tb8_2 Tb 0.31435(3) 0.81374(2) 0.59239(3)
O3_2 O 0.8800(6) 0.6588(5) 0.4920(5)
O4_2 O 0.7750(5) 0.7262(4) 0.4326(5)
N1_2 N 0.6463(13) 0.7016(11) 0.1099(12)
N2_2 N 0.6010(12) 0.7054(11) 0.0209(12)
N3_2 N 0.7298(6) 0.6688(5) 0.0401(6)
H7_2 H 0.7751 0.6547 0.0302
C1_2 C 0.9393(6) 0.6288(5) 0.2765(6)
C2_2 C 0.9253(7) 0.6459(5) 0.3510(6)
H8_2 H 0.9692 0.6384 0.4025
C3_2 C 0.8457(7) 0.6740(5) 0.3471(7)
C4_2 C 0.7800(7) 0.6860(5) 0.2705(7)
H9_2 H 0.7276 0.7054 0.2683
C5_2 C 0.7931(7) 0.6686(6) 0.1969(7)
C6_2 C 0.8717(7) 0.6391(6) 0.1998(7)
H10_2 H 0.8791 0.6264 0.1505
C7_2 C 0.7235(7) 0.6797(7) 0.1149(8)
C16_2 C 0.8326(7) 0.6876(5) 0.4275(7)
Tb6_2 Tb 0.81435(3) 0.68626(2) 0.59239(3)
O5_2 O 0.7894(6) 0.5882(5) 0.7809(6)
O6_2 O 0.7363(5) 0.6512(4) 0.6719(5)
O7_2 O 0.4331(5) 0.7399(4) 0.6188(5)
O8_2 O 0.3983(5) 0.7665(4) 0.7266(5)
C8_2 C 0.6540(8) 0.6838(8) 0.9859(8)
C9_2 C 0.6712(6) 0.6554(5) 0.7743(7)
C10_2 C 0.5929(7) 0.6827(5) 0.7216(7)
H11_2 H 0.5808 0.6834 0.6643
C11_2 C 0.5330(7) 0.7088(6) 0.7538(7)
C12_2 C 0.5509(7) 0.7073(6) 0.8404(6)
H12_2 H 0.5103 0.7240 0.8622
C13_2 C 0.6286(7) 0.6810(6) 0.8932(7)
C14_2 C 0.6885(7) 0.6553(6) 0.8608(7)
H13_2 H 0.7408 0.6377 0.8966
C17_2 C 0.7374(7) 0.6295(5) 0.7403(7)
C18_2 C 0.4494(7) 0.7390(5) 0.6973(8)
O13_2 O 0.9770(5) 0.5649(4) 0.7798(5)
O14_2 O 0.9098(4) 0.6053(4) 0.6535(5)
O21_2 O 0.7109(10) 0.6180(7) 0.5061(7)
H16_2 H 0.6941 0.5907 0.5341
H17_2 H 0.7365 0.5987 0.4770
C33_2 C 0.9773(7) 0.5979(5) 0.7200(7)
Tb4_3 Tb 0.87619(5) 0.5000 0.81818(5)
O28_2 O 0.7250(5) 0.7738(4) 0.5674(5)
O32_2 O 0.9331(5) 0.7601(4) 0.6188(5)
O34_2 O 0.8983(5) 0.7335(4) 0.7266(5)
O9_6 O 0.8082(7) 0.5000 0.6677(8)
H1_4 H 0.8298 0.4702 0.6477
O10_4 O 0.9519(5) 0.5680(4) 0.9312(5)
H2_4 H 0.9981 0.5821 0.9241
H3_4 H 0.9182 0.5985 0.9329
O11_6 O 0.7862(11) 0.5000 0.9094(10)
H4_4 H 0.7532 0.4676 0.8997
H14_4 H 0.8298 0.5298 0.6477
H15_4 H 0.7532 0.5324 0.8997
O22_4 O 0.9519(5) 0.4320(4) 0.9312(5)
H25_4 H 0.9981 0.4179 0.9241
H26_4 H 0.9182 0.4015 0.9329
O23_4 O 0.9770(5) 0.4351(4) 0.7798(5)
O30_4 O 0.7894(6) 0.4118(5) 0.7809(6)
C18_3 C 0.0506(7) 0.7610(5) 0.3027(8)
O6_3 O 0.7637(5) 0.8488(4) 0.3281(5)
C8_3 C 0.8460(8) 0.8162(8) 0.0141(8)
C9_3 C 0.8288(6) 0.8446(5) 0.2257(7)
C10_3 C 0.9071(7) 0.8173(5) 0.2784(7)
H11_3 H 0.9192 0.8166 0.3357
C11_3 C 0.9670(7) 0.7912(6) 0.2462(7)
C12_3 C 0.9491(7) 0.7927(6) 0.1596(6)
H12_3 H 0.9897 0.7760 0.1378
C13_3 C 0.8714(7) 0.8190(6) 0.1068(7)
C14_3 C 0.8115(7) 0.8447(6) 0.1392(7)
H13_3 H 0.7592 0.8623 0.1034
C17_3 C 0.7626(7) 0.8705(5) 0.2597(7)
O14_3 O 0.5902(4) 0.8947(4) 0.3465(5)
O15 O 0.3800(6) 0.8412(5) 0.4920(5)
O21_3 O 0.7891(10) 0.8820(7) 0.4939(7)
H16_3 H 0.8059 0.9093 0.4659
H17_3 H 0.7635 0.9013 0.5230
N4_3 N 0.1463(13) 0.7984(11) 0.1099(12)
N5_3 N 0.1010(12) 0.7946(11) 0.0209(12)
N6_3 N 0.2298(6) 0.8312(5) 0.0401(6)
H18_3 H 0.2751 0.8453 0.0302
C19_3 C 0.4393(6) 0.8712(5) 0.2765(6)
C20_3 C 0.4253(7) 0.8541(5) 0.3510(6)
H19_3 H 0.4692 0.8616 0.4025
C21_3 C 0.3457(7) 0.8260(5) 0.3471(7)
C22_3 C 0.2800(7) 0.8140(5) 0.2705(7)
H20_3 H 0.2276 0.7946 0.2683
C23_3 C 0.2931(7) 0.8314(6) 0.1969(7)
C24_3 C 0.3717(7) 0.8609(6) 0.1998(7)
H21_3 H 0.3791 0.8736 0.1505
C25_3 C 0.2235(7) 0.8203(7) 0.1149(8)
C33_3 C 0.5227(7) 0.9021(5) 0.2800(7)
C34_3 C 0.3326(7) 0.8124(5) 0.4275(7)
O24 O 0.6200(6) 0.8412(5) 0.5080(5)
O2_3 O 0.4098(4) 0.8947(4) 0.6535(5)
O12_3 O 0.2109(10) 0.8820(7) 0.5061(7)
H5_3 H 0.1941 0.9093 0.5341
H6_3 H 0.2365 0.9013 0.4770
N1_3 N 0.8537(13) 0.7984(11) 0.8901(12)
N2_3 N 0.8990(12) 0.7946(11) 0.9791(12)
N3_3 N 0.7702(6) 0.8312(5) 0.9599(6)
H7_3 H 0.7249 0.8453 0.9698
C1_3 C 0.5607(6) 0.8712(5) 0.7235(6)
C2_3 C 0.5747(7) 0.8541(5) 0.6490(6)
H8_3 H 0.5308 0.8616 0.5975
C3_3 C 0.6543(7) 0.8260(5) 0.6529(7)
C4_3 C 0.7200(7) 0.8140(5) 0.7295(7)
H9_3 H 0.7724 0.7946 0.7317
C5_3 C 0.7069(7) 0.8314(6) 0.8031(7)
C6_3 C 0.6283(7) 0.8609(6) 0.8002(7)
H10_3 H 0.6209 0.8736 0.8495
C7_3 C 0.7765(7) 0.8203(7) 0.8851(8)
C15_3 C 0.4773(7) 0.9021(5) 0.7200(7)
C16_3 C 0.6674(7) 0.8124(5) 0.5725(7)
O18_3 O 0.2363(5) 0.8488(4) 0.6719(5)
C26_3 C 0.1540(8) 0.8162(8) 0.9859(8)
C27_3 C 0.1712(6) 0.8446(5) 0.7743(7)
C28_3 C 0.0929(7) 0.8173(5) 0.7216(7)
H22_3 H 0.0808 0.8166 0.6643
C29_3 C 0.0330(7) 0.7912(6) 0.7538(7)
C30_3 C 0.0509(7) 0.7927(6) 0.8404(6)
H23_3 H 0.0103 0.7760 0.8622
C31_3 C 0.1286(7) 0.8190(6) 0.8932(7)
C32_3 C 0.1885(7) 0.8447(6) 0.8608(7)
H24_3 H 0.2408 0.8623 0.8966
C35_3 C 0.2374(7) 0.8705(5) 0.7403(7)
C36_3 C 0.9494(7) 0.7610(5) 0.6973(8)
O6_4 O 0.2637(5) 0.3488(4) 0.3281(5)
C8_4 C 0.3460(8) 0.3162(8) 0.0141(8)
C9_4 C 0.3288(6) 0.3446(5) 0.2257(7)
C10_4 C 0.4071(7) 0.3173(5) 0.2784(7)
H11_4 H 0.4192 0.3166 0.3357
C11_4 C 0.4670(7) 0.2912(6) 0.2462(7)
C12_4 C 0.4491(7) 0.2927(6) 0.1596(6)
H12_4 H 0.4897 0.2760 0.1378
C13_4 C 0.3714(7) 0.3190(6) 0.1068(7)
C14_4 C 0.3115(7) 0.3447(6) 0.1392(7)
H13_4 H 0.2592 0.3623 0.1034
C17_4 C 0.2626(7) 0.3705(5) 0.2597(7)
C18_4 C 0.5506(7) 0.2610(5) 0.3027(8)
O14_4 O 0.0902(4) 0.3947(4) 0.3465(5)
O21_4 O 0.2891(10) 0.3820(7) 0.4939(7)
H16_4 H 0.3059 0.4093 0.4659
H17_4 H 0.2635 0.4013 0.5230
C33_4 C 0.0227(7) 0.4021(5) 0.2800(7)
O24_2 O 0.1200(6) 0.3412(5) 0.5080(5)
N1_4 N 0.3537(13) 0.2984(11) 0.8901(12)
N2_4 N 0.3990(12) 0.2946(11) 0.9791(12)
N3_4 N 0.2702(6) 0.3312(5) 0.9599(6)
H7_4 H 0.2249 0.3453 0.9698
C1_4 C 0.0607(6) 0.3712(5) 0.7235(6)
C2_4 C 0.0747(7) 0.3541(5) 0.6490(6)
H8_4 H 0.0308 0.3616 0.5975
C3_4 C 0.1543(7) 0.3260(5) 0.6529(7)
C4_4 C 0.2200(7) 0.3140(5) 0.7295(7)
H9_4 H 0.2724 0.2946 0.7317
C5_4 C 0.2069(7) 0.3314(6) 0.8031(7)
C6_4 C 0.1283(7) 0.3609(6) 0.8002(7)
H10_4 H 0.1209 0.3736 0.8495
C7_4 C 0.2765(7) 0.3203(7) 0.8851(8)
C16_4 C 0.1674(7) 0.3124(5) 0.5725(7)
O15_2 O 0.8800(6) 0.3412(5) 0.4920(5)
N4_4 N 0.6463(13) 0.2984(11) 0.1099(12)
N5_4 N 0.6010(12) 0.2946(11) 0.0209(12)
N6_4 N 0.7298(6) 0.3312(5) 0.0401(6)
H18_4 H 0.7751 0.3453 0.0302
C19_4 C 0.9393(6) 0.3712(5) 0.2765(6)
C20_4 C 0.9253(7) 0.3541(5) 0.3510(6)
H19_4 H 0.9692 0.3616 0.4025
C21_4 C 0.8457(7) 0.3260(5) 0.3471(7)
C22_4 C 0.7800(7) 0.3140(5) 0.2705(7)
H20_4 H 0.7276 0.2946 0.2683
C23_4 C 0.7931(7) 0.3314(6) 0.1969(7)
C24_4 C 0.8717(7) 0.3609(6) 0.1998(7)
H21_4 H 0.8791 0.3736 0.1505
C25_4 C 0.7235(7) 0.3203(7) 0.1149(8)
C34_4 C 0.8326(7) 0.3124(5) 0.4275(7)
O2_4 O 0.9098(4) 0.3947(4) 0.6535(5)
O12_4 O 0.7109(10) 0.3820(7) 0.5061(7)
H5_4 H 0.6941 0.4093 0.5341
H6_4 H 0.7365 0.4013 0.4770
C15_4 C 0.9773(7) 0.4021(5) 0.7200(7)
O18_4 O 0.7363(5) 0.3488(4) 0.6719(5)
C26_4 C 0.6540(8) 0.3162(8) 0.9859(8)
C27_4 C 0.6712(6) 0.3446(5) 0.7743(7)
C28_4 C 0.5929(7) 0.3173(5) 0.7216(7)
H22_4 H 0.5808 0.3166 0.6643
C29_4 C 0.5330(7) 0.2912(6) 0.7538(7)
C30_4 C 0.5509(7) 0.2927(6) 0.8404(6)
H23_4 H 0.5103 0.2760 0.8622
C31_4 C 0.6286(7) 0.3190(6) 0.8932(7)
C32_4 C 0.6885(7) 0.3447(6) 0.8608(7)
H24_4 H 0.7408 0.3623 0.8966
C35_4 C 0.7374(7) 0.3705(5) 0.7403(7)
C36_4 C 0.4494(7) 0.2610(5) 0.6973(8)
loop_
_geom_bond_atom_site_label_1
_geom_bond_atom_site_label_2
_geom_bond_site_symmetry_1
_geom_bond_site_symmetry_2
O19 C36 1_555 1_555
O20 C36 1_555 1_555
Tb10 O19 1_555 1_555
O20 Tb10 1_555 1_555
Tb1 O1 1_555 1_555
Tb2 O2 1_555 1_555
O1 C15 1_555 1_555
O2 C15 1_555 1_555
O3 C16 1_555 1_555
O4 C16 1_555 1_555
O9 Tb1 1_555 1_555
O10 Tb1 1_555 1_555
H2 O10 1_555 1_555
H3 O10 1_555 1_555
O11 Tb1 1_555 1_555
O12 Tb2 1_555 1_555
H5 O12 1_555 1_555
H6 O12 1_555 1_555
N1 N2 1_555 1_555
N3 H7 1_555 1_555
C1 C2 1_555 1_555
C2 H8 1_555 1_555
C3 C2 1_555 1_555
C4 C3 1_555 1_555
H9 C4 1_555 1_555
C5 C4 1_555 1_555
C6 C1 1_555 1_555
H10 C6 1_555 1_555
C7 N1 1_555 1_555
C15 C1 1_555 1_555
C16 C3 1_555 1_555
H14 O9 1_555 1_555
H15 O11 1_555 1_555
O17 Tb1 1_555 1_555
O18 Tb2 1_555 1_555
C27 C28 1_555 1_555
C28 H22 1_555 1_555
C29 C28 1_555 1_555
C30 C29 1_555 1_555
H23 C30 1_555 1_555
C31 C26 1_555 1_555
C32 C27 1_555 1_555
H24 C32 1_555 1_555
C35 O17 1_555 1_555
Tb6 O3 1_555 1_555
Tb10 O4 1_555 1_555
O25 Tb2 1_555 1_555
O27 Tb2 1_555 1_555
O29 Tb2 1_555 1_555
O31 Tb2 1_555 1_555
O33 Tb2 1_555 1_555
O4 Tb6 1_555 1_555
N3 C7 1_555 1_555
C5 C6 1_555 1_555
C5 C7 1_555 1_555
O18 C35 1_555 1_555
C27 C35 1_555 1_555
C30 C31 1_555 1_555
C31 C32 1_555 1_555
O5 C17 1_555 1_555
O6 C17 1_555 1_555
C9 C10 1_555 1_555
C10 H11 1_555 1_555
C11 C10 1_555 1_555
C12 C11 1_555 1_555
H12 C12 1_555 1_555
C13 C8 1_555 1_555
C14 C9 1_555 1_555
H13 C14 1_555 1_555
C17 C9 1_555 1_555
Tb6 O6 1_555 1_555
O13 C33 1_555 1_555
O14 Tb6 1_555 1_555
O25 C34 1_555 1_555
O27 C34 1_555 1_555
O21 Tb6 1_555 1_555
H16 O21 1_555 1_555
H17 O21 1_555 1_555
N4 N5 1_555 1_555
N6 H18 1_555 1_555
C19 C20 1_555 1_555
C20 H19 1_555 1_555
C21 C20 1_555 1_555
C22 C21 1_555 1_555
H20 C22 1_555 1_555
C23 C22 1_555 1_555
C24 C19 1_555 1_555
H21 C24 1_555 1_555
C25 N4 1_555 1_555
C33 O14 1_555 1_555
C34 C21 1_555 1_555
Tb4 O5 1_555 1_555
Tb8 O27 1_555 1_555
O28 Tb6 1_555 1_555
O32 Tb6 1_555 1_555
O34 Tb6 1_555 1_555
C12 C13 1_555 1_555
C13 C14 1_555 1_555
O13 Tb4 1_555 1_555
N6 C25 1_555 1_555
C19 C33 1_555 1_555
C23 C24 1_555 1_555
C23 C25 1_555 1_555
O9_2 Tb1_2 1_555 1_555
H1 O9_2 1_555 1_555
O11_2 Tb1_2 1_555 1_555
H4 O11_2 1_555 1_555
O22 Tb1_2 1_555 1_555
H25 O22 1_555 1_555
H26 O22 1_555 1_555
O23 Tb1_2 1_555 1_555
O30 Tb1_2 1_555 1_555
O7 C18 1_555 1_555
O8 C18 1_555 1_555
Tb8 O7 1_555 1_555
O8 Tb8 1_555 1_555
O9_3 Tb4 1_555 1_555
O10_2 Tb4 1_555 1_555
H2_2 O10_2 1_555 1_555
H3_2 O10_2 1_555 1_555
O11_3 Tb4 1_555 1_555
H14_2 O9_3 1_555 1_555
H15_2 O11_3 1_555 1_555
O9_4 Tb4_2 1_555 1_555
H1_2 O9_4 1_555 1_555
O11_4 Tb4_2 1_555 1_555
H4_2 O11_4 1_555 1_555
O22_2 Tb4_2 1_555 1_555
H25_2 O22_2 1_555 1_555
H26_2 O22_2 1_555 1_555
O23_2 Tb4_2 1_555 1_555
O30_2 Tb4_2 1_555 1_555
Tb1_3 O1_2 1_555 1_555
Tb2_2 O2_2 1_555 1_555
O1_2 C15_2 1_555 1_555
O2_2 C15_2 1_555 1_555
O9_5 Tb1_3 1_555 1_555
H1_3 O9_5 1_555 1_555
O10_3 Tb1_3 1_555 1_555
H2_3 O10_3 1_555 1_555
H3_3 O10_3 1_555 1_555
O11_5 Tb1_3 1_555 1_555
H4_3 O11_5 1_555 1_555
O12_2 Tb2_2 1_555 1_555
H5_2 O12_2 1_555 1_555
H6_2 O12_2 1_555 1_555
H14_3 O9_5 1_555 1_555
H15_3 O11_5 1_555 1_555
O17_2 Tb1_3 1_555 1_555
O18_2 Tb2_2 1_555 1_555
O19_2 C36_2 1_555 1_555
O20_2 C36_2 1_555 1_555
C27_2 C28_2 1_555 1_555
C28_2 H22_2 1_555 1_555
C29_2 C28_2 1_555 1_555
C30_2 C29_2 1_555 1_555
H23_2 C30_2 1_555 1_555
C31_2 C26_2 1_555 1_555
C32_2 C27_2 1_555 1_555
H24_2 C32_2 1_555 1_555
C35_2 O17_2 1_555 1_555
C36_2 C29_2 1_555 1_555
O22_3 Tb1_3 1_555 1_555
H25_3 O22_3 1_555 1_555
H26_3 O22_3 1_555 1_555
Tb10_2 O19_2 1_555 1_555
O23_3 Tb1_3 1_555 1_555
O25_2 Tb2_2 1_555 1_555
O27_2 Tb2_2 1_555 1_555
O29_2 Tb2_2 1_555 1_555
O30_3 Tb1_3 1_555 1_555
O31_2 Tb2_2 1_555 1_555
O33_2 Tb2_2 1_555 1_555
O18_2 C35_2 1_555 1_555
O20_2 Tb10_2 1_555 1_555
C27_2 C35_2 1_555 1_555
C30_2 C31_2 1_555 1_555
C31_2 C32_2 1_555 1_555
O25_2 C34_2 1_555 1_555
O27_2 C34_2 1_555 1_555
N4_2 N5_2 1_555 1_555
N6_2 H18_2 1_555 1_555
C19_2 C20_2 1_555 1_555
C20_2 H19_2 1_555 1_555
C21_2 C20_2 1_555 1_555
C22_2 C21_2 1_555 1_555
H20_2 C22_2 1_555 1_555
C23_2 C22_2 1_555 1_555
C24_2 C19_2 1_555 1_555
H21_2 C24_2 1_555 1_555
C25_2 N4_2 1_555 1_555
C34_2 C21_2 1_555 1_555
Tb8_2 O27_2 1_555 1_555
N6_2 C25_2 1_555 1_555
C23_2 C24_2 1_555 1_555
C23_2 C25_2 1_555 1_555
O3_2 C16_2 1_555 1_555
O4_2 C16_2 1_555 1_555
N1_2 N2_2 1_555 1_555
N3_2 H7_2 1_555 1_555
C1_2 C2_2 1_555 1_555
C2_2 H8_2 1_555 1_555
C3_2 C2_2 1_555 1_555
C4_2 C3_2 1_555 1_555
H9_2 C4_2 1_555 1_555
C5_2 C4_2 1_555 1_555
C6_2 C1_2 1_555 1_555
H10_2 C6_2 1_555 1_555
C7_2 N1_2 1_555 1_555
C16_2 C3_2 1_555 1_555
Tb6_2 O3_2 1_555 1_555
Tb10_2 O4_2 1_555 1_555
O4_2 Tb6_2 1_555 1_555
N3_2 C7_2 1_555 1_555
C5_2 C6_2 1_555 1_555
C5_2 C7_2 1_555 1_555
O5_2 C17_2 1_555 1_555
O6_2 C17_2 1_555 1_555
O7_2 C18_2 1_555 1_555
O8_2 C18_2 1_555 1_555
C9_2 C10_2 1_555 1_555
C10_2 H11_2 1_555 1_555
C11_2 C10_2 1_555 1_555
C12_2 C11_2 1_555 1_555
H12_2 C12_2 1_555 1_555
C13_2 C8_2 1_555 1_555
C14_2 C9_2 1_555 1_555
H13_2 C14_2 1_555 1_555
C17_2 C9_2 1_555 1_555
C18_2 C11_2 1_555 1_555
Tb6_2 O6_2 1_555 1_555
O13_2 C33_2 1_555 1_555
O14_2 Tb6_2 1_555 1_555
O21_2 Tb6_2 1_555 1_555
H16_2 O21_2 1_555 1_555
H17_2 O21_2 1_555 1_555
C33_2 O14_2 1_555 1_555
Tb4_3 O5_2 1_555 1_555
Tb8_2 O7_2 1_555 1_555
O28_2 Tb6_2 1_555 1_555
O32_2 Tb6_2 1_555 1_555
O34_2 Tb6_2 1_555 1_555
O8_2 Tb8_2 1_555 1_555
C12_2 C13_2 1_555 1_555
C13_2 C14_2 1_555 1_555
O13_2 Tb4_3 1_555 1_555
O9_6 Tb4_3 1_555 1_555
H1_4 O9_6 1_555 1_555
O10_4 Tb4_3 1_555 1_555
H2_4 O10_4 1_555 1_555
H3_4 O10_4 1_555 1_555
O11_6 Tb4_3 1_555 1_555
H4_4 O11_6 1_555 1_555
H14_4 O9_6 1_555 1_555
H15_4 O11_6 1_555 1_555
O22_4 Tb4_3 1_555 1_555
H25_4 O22_4 1_555 1_555
H26_4 O22_4 1_555 1_555
O23_4 Tb4_3 1_555 1_555
O30_4 Tb4_3 1_555 1_555
O31_2 C18_3 1_555 1_555
O33_2 C18_3 1_555 1_555
O30 C17_3 1_555 1_555
O6_3 C17_3 1_555 1_555
C9_3 C10_3 1_555 1_555
C10_3 H11_3 1_555 1_555
C11_3 C10_3 1_555 1_555
C12_3 C11_3 1_555 1_555
H12_3 C12_3 1_555 1_555
C13_3 C8_3 1_555 1_555
C14_3 C9_3 1_555 1_555
H13_3 C14_3 1_555 1_555
C17_3 C9_3 1_555 1_555
Tb10_2 O6_3 1_555 1_555
O23 C33_3 1_555 1_555
O14_3 Tb10_2 1_555 1_555
O15 C34_3 1_555 1_555
O29_2 C34_3 1_555 1_555
O21_3 Tb10_2 1_555 1_555
H16_3 O21_3 1_555 1_555
H17_3 O21_3 1_555 1_555
N4_3 N5_3 1_555 1_555
N6_3 H18_3 1_555 1_555
C19_3 C20_3 1_555 1_555
C20_3 H19_3 1_555 1_555
C21_3 C20_3 1_555 1_555
C22_3 C21_3 1_555 1_555
H20_3 C22_3 1_555 1_555
C23_3 C22_3 1_555 1_555
C24_3 C19_3 1_555 1_555
H21_3 C24_3 1_555 1_555
C25_3 N4_3 1_555 1_555
C33_3 O14_3 1_555 1_555
C34_3 C21_3 1_555 1_555
Tb8_2 O15 1_555 1_555
O24 Tb10_2 1_555 1_555
O28_2 Tb10_2 1_555 1_555
C12_3 C13_3 1_555 1_555
C13_3 C14_3 1_555 1_555
O29_2 Tb8_2 1_555 1_555
N6_3 C25_3 1_555 1_555
C19_3 C33_3 1_555 1_555
C23_3 C24_3 1_555 1_555
C23_3 C25_3 1_555 1_555
Tb8_2 O2_3 1_555 1_555
O23_2 C15_3 1_555 1_555
O2_3 C15_3 1_555 1_555
O24 C16_3 1_555 1_555
O28_2 C16_3 1_555 1_555
O12_3 Tb8_2 1_555 1_555
H5_3 O12_3 1_555 1_555
H6_3 O12_3 1_555 1_555
N1_3 N2_3 1_555 1_555
N3_3 H7_3 1_555 1_555
C1_3 C2_3 1_555 1_555
C2_3 H8_3 1_555 1_555
C3_3 C2_3 1_555 1_555
C4_3 C3_3 1_555 1_555
H9_3 C4_3 1_555 1_555
C5_3 C4_3 1_555 1_555
C6_3 C1_3 1_555 1_555
H10_3 C6_3 1_555 1_555
C7_3 N1_3 1_555 1_555
C15_3 C1_3 1_555 1_555
C16_3 C3_3 1_555 1_555
O18_3 Tb8_2 1_555 1_555
C27_3 C28_3 1_555 1_555
C28_3 H22_3 1_555 1_555
C29_3 C28_3 1_555 1_555
C30_3 C29_3 1_555 1_555
H23_3 C30_3 1_555 1_555
C31_3 C26_3 1_555 1_555
C32_3 C27_3 1_555 1_555
H24_3 C32_3 1_555 1_555
C35_3 O30_2 1_555 1_555
N3_3 C7_3 1_555 1_555
C5_3 C6_3 1_555 1_555
C5_3 C7_3 1_555 1_555
O18_3 C35_3 1_555 1_555
C27_3 C35_3 1_555 1_555
C30_3 C31_3 1_555 1_555
C31_3 C32_3 1_555 1_555
O32_2 C36_3 1_555 1_555
O34_2 C36_3 1_555 1_555
O30_3 C17_4 1_555 1_555
O6_4 C17_4 1_555 1_555
O31 C18_4 1_555 1_555
O33 C18_4 1_555 1_555
C9_4 C10_4 1_555 1_555
C10_4 H11_4 1_555 1_555
C11_4 C10_4 1_555 1_555
C12_4 C11_4 1_555 1_555
H12_4 C12_4 1_555 1_555
C13_4 C8_4 1_555 1_555
C14_4 C9_4 1_555 1_555
H13_4 C14_4 1_555 1_555
C17_4 C9_4 1_555 1_555
C18_4 C11_4 1_555 1_555
Tb10 O6_4 1_555 1_555
O23_3 C33_4 1_555 1_555
O14_4 Tb10 1_555 1_555
O21_4 Tb10 1_555 1_555
H16_4 O21_4 1_555 1_555
H17_4 O21_4 1_555 1_555
C33_4 O14_4 1_555 1_555
O24_2 Tb10 1_555 1_555
O28 Tb10 1_555 1_555
C12_4 C13_4 1_555 1_555
C13_4 C14_4 1_555 1_555
O24_2 C16_4 1_555 1_555
O28 C16_4 1_555 1_555
N1_4 N2_4 1_555 1_555
N3_4 H7_4 1_555 1_555
C1_4 C2_4 1_555 1_555
C2_4 H8_4 1_555 1_555
C3_4 C2_4 1_555 1_555
C4_4 C3_4 1_555 1_555
H9_4 C4_4 1_555 1_555
C5_4 C4_4 1_555 1_555
C6_4 C1_4 1_555 1_555
H10_4 C6_4 1_555 1_555
C7_4 N1_4 1_555 1_555
C16_4 C3_4 1_555 1_555
N3_4 C7_4 1_555 1_555
C5_4 C6_4 1_555 1_555
C5_4 C7_4 1_555 1_555
O15_2 C34_4 1_555 1_555
O29 C34_4 1_555 1_555
N4_4 N5_4 1_555 1_555
N6_4 H18_4 1_555 1_555
C19_4 C20_4 1_555 1_555
C20_4 H19_4 1_555 1_555
C21_4 C20_4 1_555 1_555
C22_4 C21_4 1_555 1_555
H20_4 C22_4 1_555 1_555
C23_4 C22_4 1_555 1_555
C24_4 C19_4 1_555 1_555
H21_4 C24_4 1_555 1_555
C25_4 N4_4 1_555 1_555
C34_4 C21_4 1_555 1_555
Tb8 O15_2 1_555 1_555
O29 Tb8 1_555 1_555
N6_4 C25_4 1_555 1_555
C23_4 C24_4 1_555 1_555
C23_4 C25_4 1_555 1_555
Tb8 O2_4 1_555 1_555
O23_4 C15_4 1_555 1_555
O2_4 C15_4 1_555 1_555
O12_4 Tb8 1_555 1_555
H5_4 O12_4 1_555 1_555
H6_4 O12_4 1_555 1_555
O18_4 Tb8 1_555 1_555
O32 C36_4 1_555 1_555
O34 C36_4 1_555 1_555
C27_4 C28_4 1_555 1_555
C28_4 H22_4 1_555 1_555
C29_4 C28_4 1_555 1_555
C30_4 C29_4 1_555 1_555
H23_4 C30_4 1_555 1_555
C31_4 C26_4 1_555 1_555
C32_4 C27_4 1_555 1_555
H24_4 C32_4 1_555 1_555
C35_4 O30_4 1_555 1_555
C36_4 C29_4 1_555 1_555
O18_4 C35_4 1_555 1_555
C27_4 C35_4 1_555 1_555
C30_4 C31_4 1_555 1_555
C31_4 C32_4 1_555 1_555

#END
