
###############################################################################
#
# This file contains modified crystal structure data generated from the
# MOF subset of the Cambridge Structural Database (CSD) v543 
# hosted by the Cambridge Crystallographic Data Centre (CCDC).
#
# This work is licensed under the Creative Commons
# Attribution-NonCommercial-ShareAlike 4.0 International License.
# To view a copy of this license, visit
# http://creativecommons.org/licenses/by-nc-sa/4.0/
# or send a letter to
# Creative Commons, PO Box 1866, Mountain View, CA 94042, USA.
#
# CIF created using the CSD Python API on 29 September 2022
# The structure has been converted into the P1 space group
# The structure has a 3D framework
# The original CSD entry BEQJOZ is in the monoclinic crystal system
# The framework has been calculated to contain at least 10.0% void space
# The void calculation uses a probe of radius 1.32A, grid spacing 0.4
# The framework is charged, counterions have been retained in the structure
#
###############################################################################

data_BEQJOZ
_chemical_formula_moiety         '(C144 H104 Ho14 N24 O92 6+)n'
_symmetry_cell_setting           triclinic
_symmetry_space_group_name_H-M   'P 1'
_symmetry_Int_Tables_number      1
_space_group_name_Hall           'P 1'
loop_
_symmetry_equiv_pos_site_id
_symmetry_equiv_pos_as_xyz
1 x,y,z
_cell_length_a                   16.0953(17)
_cell_length_b                   21.1889(17)
_cell_length_c                   17.0726(17)
_cell_angle_alpha                90
_cell_angle_beta                 110.494(8)
_cell_angle_gamma                90
_cell_volume                     5453.96
loop_
_atom_site_label
_atom_site_type_symbol
_atom_site_fract_x
_atom_site_fract_y
_atom_site_fract_z
O19 O 0.0683(5) 0.2396(4) 0.3822(5)
O20 O 0.1003(5) 0.2669(4) 0.2736(5)
C36 C 0.0512(7) 0.2376(7) 0.3028(8)
Ho10 Ho 0.18581(3) 0.31379(3) 0.40775(3)
Ho1 Ho 0.62371(5) 0.0000 0.18258(5)
Ho2 Ho 0.68581(3) 0.18621(3) 0.40775(3)
O1 O 0.5238(5) 0.0648(4) 0.2208(5)
O2 O 0.5916(5) 0.1053(4) 0.3480(5)
O3 O 0.3790(6) 0.1583(5) 0.4913(5)
O4 O 0.2745(5) 0.2258(4) 0.4321(5)
O9 O 0.6926(9) -0.0000 0.3324(9)
O10 O 0.5461(10) 0.0651(11) 0.0693(9)
H2 H 0.4999 0.0791 0.0764
H3 H 0.5798 0.0955 0.0676
O11 O 0.7128(13) 0.0000 0.0910(13)
O12 O 0.7879(11) 0.1177(7) 0.4930(7)
H5 H 0.8046 0.0904 0.4650
H6 H 0.7623 0.0985 0.5221
N1 N 0.1436(11) 0.1937(8) 0.1076(10)
N2 N 0.1072(10) 0.2089(9) 0.0235(9)
N3 N 0.2298(10) 0.1675(9) 0.0393(9)
H7 H 0.2746 0.1523 0.0293
C1 C 0.4385(7) 0.1295(5) 0.2764(7)
C2 C 0.4250(7) 0.1462(5) 0.3513(7)
H8 H 0.4688 0.1383 0.4028
C3 C 0.3465(8) 0.1742(5) 0.3471(7)
C4 C 0.2806(8) 0.1850(6) 0.2707(7)
H9 H 0.2275 0.2034 0.2688
C5 C 0.2929(8) 0.1688(6) 0.1970(7)
C6 C 0.3716(7) 0.1395(6) 0.2007(7)
H10 H 0.3790 0.1264 0.1516
C7 C 0.2226(8) 0.1797(7) 0.1140(8)
C15 C 0.5239(7) 0.0987(6) 0.2807(7)
C16 C 0.3328(7) 0.1877(5) 0.4268(8)
H14 H 0.6710 0.0298 0.3524
H15 H 0.7457 0.0324 0.1008
O17 O 0.7103(7) 0.0882(5) 0.2190(7)
O18 O 0.7630(5) 0.1511(5) 0.3283(6)
C26 C 0.8467(9) 0.1842(7) 0.0140(9)
C27 C 0.8291(7) 0.1557(6) 0.2260(8)
C28 C 0.9075(8) 0.1818(6) 0.2790(7)
H22 H 0.9200 0.1814 0.3365
C29 C 0.9674(7) 0.2084(6) 0.2469(7)
C30 C 0.9493(8) 0.2060(7) 0.1590(8)
H23 H 0.9908 0.2211 0.1371
C31 C 0.8716(8) 0.1817(6) 0.1074(7)
C32 C 0.8113(7) 0.1554(6) 0.1395(7)
H24 H 0.7590 0.1376 0.1036
C35 C 0.7620(8) 0.1301(6) 0.2605(7)
Ho6 Ho 0.31419(3) 0.18621(3) 0.59225(3)
O25 O 0.6210(6) 0.1583(5) 0.5087(5)
O27 O 0.7255(5) 0.2258(4) 0.5679(5)
O29 O 0.7745(5) 0.2742(4) 0.4321(5)
O31 O 0.5683(5) 0.2604(4) 0.3822(5)
O33 O 0.6003(5) 0.2331(4) 0.2736(5)
O5 O 0.2897(7) 0.0882(5) 0.7810(7)
O6 O 0.2370(5) 0.1511(5) 0.6717(6)
C8 C 0.1533(9) 0.1842(7) 0.9860(9)
C9 C 0.1709(7) 0.1557(6) 0.7740(8)
C10 C 0.0925(8) 0.1818(6) 0.7210(7)
H11 H 0.0800 0.1814 0.6635
C11 C 0.0326(7) 0.2084(6) 0.7531(7)
C12 C 0.0507(8) 0.2060(7) 0.8410(8)
H12 H 0.0092 0.2211 0.8629
C13 C 0.1284(8) 0.1817(6) 0.8926(7)
C14 C 0.1887(7) 0.1554(6) 0.8605(7)
H13 H 0.2410 0.1376 0.8964
C17 C 0.2380(8) 0.1301(6) 0.7395(7)
O13 O 0.4762(5) 0.0648(4) 0.7792(5)
O14 O 0.4084(5) 0.1053(4) 0.6520(5)
O21 O 0.2121(11) 0.1177(7) 0.5070(7)
H16 H 0.1954 0.0904 0.5350
H17 H 0.2377 0.0985 0.4779
N4 N 0.8564(11) 0.1937(8) 0.8924(10)
N5 N 0.8928(10) 0.2089(9) 0.9765(9)
N6 N 0.7702(10) 0.1675(9) 0.9607(9)
H18 H 0.7254 0.1523 0.9707
C19 C 0.5615(7) 0.1295(5) 0.7236(7)
C20 C 0.5750(7) 0.1462(5) 0.6487(7)
H19 H 0.5312 0.1383 0.5972
C21 C 0.6535(8) 0.1742(5) 0.6529(7)
C22 C 0.7194(8) 0.1850(6) 0.7293(7)
H20 H 0.7725 0.2034 0.7312
C23 C 0.7071(8) 0.1688(6) 0.8030(7)
C24 C 0.6284(7) 0.1395(6) 0.7993(7)
H21 H 0.6210 0.1264 0.8484
C25 C 0.7774(8) 0.1797(7) 0.8860(8)
C33 C 0.4761(7) 0.0987(6) 0.7193(7)
C34 C 0.6672(7) 0.1877(5) 0.5732(8)
Ho4 Ho 0.37629(5) -0.0000 0.81742(5)
Ho8 Ho 0.81419(3) 0.31379(3) 0.59225(3)
O28 O 0.2255(5) 0.2742(4) 0.5679(5)
O32 O 0.4317(5) 0.2604(4) 0.6178(5)
O34 O 0.3997(5) 0.2331(4) 0.7264(5)
Ho1_2 Ho 0.62371(5) 1.0000 0.18258(5)
O9_2 O 0.6926(9) 1.0000 0.3324(9)
H1 H 0.6710 0.9702 0.3524
O11_2 O 0.7128(13) 1.0000 0.0910(13)
H4 H 0.7457 0.9676 0.1008
O22 O 0.5461(10) 0.9349(11) 0.0693(9)
H25 H 0.4999 0.9209 0.0764
H26 H 0.5798 0.9045 0.0676
O23 O 0.5238(5) 0.9352(4) 0.2208(5)
O30 O 0.7103(7) 0.9118(5) 0.2190(7)
Ho4_2 Ho 0.37629(5) 1.0000 0.81742(5)
O7 O 0.9317(5) 0.2396(4) 0.6178(5)
O8 O 0.8997(5) 0.2669(4) 0.7264(5)
C18 C 0.9488(7) 0.2376(7) 0.6972(8)
O9_3 O 0.3074(9) -0.0000 0.6676(9)
O10_2 O 0.4539(10) 0.0651(11) 0.9307(9)
H2_2 H 0.5001 0.0791 0.9236
H3_2 H 0.4202 0.0955 0.9324
O11_3 O 0.2872(13) -0.0000 0.9090(13)
H14_2 H 0.3290 0.0298 0.6476
H15_2 H 0.2543 0.0324 0.8992
O9_4 O 0.3074(9) 1.0000 0.6676(9)
H1_2 H 0.3290 0.9702 0.6476
O11_4 O 0.2872(13) 1.0000 0.9090(13)
H4_2 H 0.2543 0.9676 0.8992
O22_2 O 0.4539(10) 0.9349(11) 0.9307(9)
H25_2 H 0.5001 0.9209 0.9236
H26_2 H 0.4202 0.9045 0.9324
O23_2 O 0.4762(5) 0.9352(4) 0.7792(5)
O30_2 O 0.2897(7) 0.9118(5) 0.7810(7)
Ho1_3 Ho 0.12371(5) 0.5000 0.18258(5)
Ho2_2 Ho 0.18581(3) 0.68621(3) 0.40775(3)
O1_2 O 0.0238(5) 0.5648(4) 0.2208(5)
O2_2 O 0.0916(5) 0.6053(4) 0.3480(5)
O9_5 O 0.1926(9) 0.5000 0.3324(9)
H1_3 H 0.1710 0.4702 0.3524
O10_3 O 0.0461(10) 0.5651(11) 0.0693(9)
H3_3 H 0.0798 0.5955 0.0676
O11_5 O 0.2128(13) 0.5000 0.0910(13)
H4_3 H 0.2457 0.4676 0.1008
O12_2 O 0.2879(11) 0.6177(7) 0.4930(7)
H5_2 H 0.3046 0.5904 0.4650
H6_2 H 0.2623 0.5985 0.5221
C15_2 C 0.0239(7) 0.5987(6) 0.2807(7)
H14_3 H 0.1710 0.5298 0.3524
H15_3 H 0.2457 0.5324 0.1008
O17_2 O 0.2103(7) 0.5882(5) 0.2190(7)
O18_2 O 0.2630(5) 0.6511(5) 0.3283(6)
O19_2 O 0.5683(5) 0.7396(4) 0.3822(5)
O20_2 O 0.6003(5) 0.7669(4) 0.2736(5)
C26_2 C 0.3467(9) 0.6842(7) 0.0140(9)
C27_2 C 0.3291(7) 0.6557(6) 0.2260(8)
C28_2 C 0.4075(8) 0.6818(6) 0.2790(7)
H22_2 H 0.4200 0.6814 0.3365
C29_2 C 0.4674(7) 0.7084(6) 0.2469(7)
C30_2 C 0.4493(8) 0.7060(7) 0.1590(8)
H23_2 H 0.4908 0.7211 0.1371
C31_2 C 0.3716(8) 0.6817(6) 0.1074(7)
C32_2 C 0.3113(7) 0.6554(6) 0.1395(7)
H24_2 H 0.2590 0.6376 0.1036
C35_2 C 0.2620(8) 0.6301(6) 0.2605(7)
C36_2 C 0.5512(7) 0.7376(7) 0.3028(8)
O22_3 O 0.0461(10) 0.4349(11) 0.0693(9)
H26_3 H 0.0798 0.4045 0.0676
Ho10_2 Ho 0.68581(3) 0.81379(3) 0.40775(3)
O23_3 O 0.0238(5) 0.4352(4) 0.2208(5)
O25_2 O 0.1210(6) 0.6583(5) 0.5087(5)
O27_2 O 0.2255(5) 0.7258(4) 0.5679(5)
O29_2 O 0.2745(5) 0.7742(4) 0.4321(5)
O30_3 O 0.2103(7) 0.4118(5) 0.2190(7)
O31_2 O 0.0683(5) 0.7604(4) 0.3822(5)
O33_2 O 0.1003(5) 0.7331(4) 0.2736(5)
N4_2 N 0.3564(11) 0.6937(8) 0.8924(10)
N5_2 N 0.3928(10) 0.7089(9) 0.9765(9)
N6_2 N 0.2702(10) 0.6675(9) 0.9607(9)
H18_2 H 0.2254 0.6523 0.9707
C19_2 C 0.0615(7) 0.6295(5) 0.7236(7)
C20_2 C 0.0750(7) 0.6462(5) 0.6487(7)
H19_2 H 0.0312 0.6383 0.5972
C21_2 C 0.1535(8) 0.6742(5) 0.6529(7)
C22_2 C 0.2194(8) 0.6850(6) 0.7293(7)
H20_2 H 0.2725 0.7034 0.7312
C23_2 C 0.2071(8) 0.6688(6) 0.8030(7)
C24_2 C 0.1284(7) 0.6395(6) 0.7993(7)
H21_2 H 0.1210 0.6264 0.8484
C25_2 C 0.2774(8) 0.6797(7) 0.8860(8)
C34_2 C 0.1672(7) 0.6877(5) 0.5732(8)
Ho8_2 Ho 0.31419(3) 0.81379(3) 0.59225(3)
O3_2 O 0.8790(6) 0.6583(5) 0.4913(5)
O4_2 O 0.7745(5) 0.7258(4) 0.4321(5)
H2_3 H 0.9999 0.5791 0.0764
N1_2 N 0.6436(11) 0.6937(8) 0.1076(10)
N2_2 N 0.6072(10) 0.7089(9) 0.0235(9)
N3_2 N 0.7298(10) 0.6675(9) 0.0393(9)
H7_2 H 0.7746 0.6523 0.0293
C1_2 C 0.9385(7) 0.6295(5) 0.2764(7)
C2_2 C 0.9250(7) 0.6462(5) 0.3513(7)
H8_2 H 0.9688 0.6383 0.4028
C3_2 C 0.8465(8) 0.6742(5) 0.3471(7)
C4_2 C 0.7806(8) 0.6850(6) 0.2707(7)
H9_2 H 0.7275 0.7034 0.2688
C5_2 C 0.7929(8) 0.6688(6) 0.1970(7)
C6_2 C 0.8716(7) 0.6395(6) 0.2007(7)
H10_2 H 0.8790 0.6264 0.1516
C7_2 C 0.7226(8) 0.6797(7) 0.1140(8)
C16_2 C 0.8328(7) 0.6877(5) 0.4268(8)
H25_3 H 0.9999 0.4209 0.0764
Ho6_2 Ho 0.81419(3) 0.68621(3) 0.59225(3)
O5_2 O 0.7897(7) 0.5882(5) 0.7810(7)
O6_2 O 0.7370(5) 0.6511(5) 0.6717(6)
O7_2 O 0.4317(5) 0.7396(4) 0.6178(5)
O8_2 O 0.3997(5) 0.7669(4) 0.7264(5)
C8_2 C 0.6533(9) 0.6842(7) 0.9860(9)
C9_2 C 0.6709(7) 0.6557(6) 0.7740(8)
C10_2 C 0.5925(8) 0.6818(6) 0.7210(7)
H11_2 H 0.5800 0.6814 0.6635
C11_2 C 0.5326(7) 0.7084(6) 0.7531(7)
C12_2 C 0.5507(8) 0.7060(7) 0.8410(8)
H12_2 H 0.5092 0.7211 0.8629
C13_2 C 0.6284(8) 0.6817(6) 0.8926(7)
C14_2 C 0.6887(7) 0.6554(6) 0.8605(7)
H13_2 H 0.7410 0.6376 0.8964
C17_2 C 0.7380(8) 0.6301(6) 0.7395(7)
C18_2 C 0.4488(7) 0.7376(7) 0.6972(8)
O13_2 O 0.9762(5) 0.5648(4) 0.7792(5)
O14_2 O 0.9084(5) 0.6053(4) 0.6520(5)
O21_2 O 0.7121(11) 0.6177(7) 0.5070(7)
H16_2 H 0.6954 0.5904 0.5350
H17_2 H 0.7377 0.5985 0.4779
C33_2 C 0.9761(7) 0.5987(6) 0.7193(7)
Ho4_3 Ho 0.87629(5) 0.5000 0.81742(5)
O28_2 O 0.7255(5) 0.7742(4) 0.5679(5)
O32_2 O 0.9317(5) 0.7604(4) 0.6178(5)
O34_2 O 0.8997(5) 0.7331(4) 0.7264(5)
H2_4 H 0.0001 0.5791 0.9236
H25_4 H 0.0001 0.4209 0.9236
O9_6 O 0.8074(9) 0.5000 0.6676(9)
H1_4 H 0.8290 0.4702 0.6476
O10_4 O 0.9539(10) 0.5651(11) 0.9307(9)
H3_4 H 0.9202 0.5955 0.9324
O11_6 O 0.7872(13) 0.5000 0.9090(13)
H4_4 H 0.7543 0.4676 0.8992
H14_4 H 0.8290 0.5298 0.6476
H15_4 H 0.7543 0.5324 0.8992
O22_4 O 0.9539(10) 0.4349(11) 0.9307(9)
H26_4 H 0.9202 0.4045 0.9324
O23_4 O 0.9762(5) 0.4352(4) 0.7792(5)
O30_4 O 0.7897(7) 0.4118(5) 0.7810(7)
C18_3 C 0.0512(7) 0.7624(7) 0.3028(8)
O6_3 O 0.7630(5) 0.8489(5) 0.3283(6)
C8_3 C 0.8467(9) 0.8158(7) 0.0140(9)
C9_3 C 0.8291(7) 0.8443(6) 0.2260(8)
C10_3 C 0.9075(8) 0.8182(6) 0.2790(7)
H11_3 H 0.9200 0.8186 0.3365
C11_3 C 0.9674(7) 0.7916(6) 0.2469(7)
C12_3 C 0.9493(8) 0.7940(7) 0.1590(8)
H12_3 H 0.9908 0.7789 0.1371
C13_3 C 0.8716(8) 0.8183(6) 0.1074(7)
C14_3 C 0.8113(7) 0.8446(6) 0.1395(7)
H13_3 H 0.7590 0.8624 0.1036
C17_3 C 0.7620(8) 0.8699(6) 0.2605(7)
O14_3 O 0.5916(5) 0.8947(4) 0.3480(5)
O15 O 0.3790(6) 0.8417(5) 0.4913(5)
O21_3 O 0.7879(11) 0.8823(7) 0.4930(7)
H16_3 H 0.8046 0.9096 0.4650
H17_3 H 0.7623 0.9015 0.5221
N4_3 N 0.1436(11) 0.8063(8) 0.1076(10)
N5_3 N 0.1072(10) 0.7911(9) 0.0235(9)
N6_3 N 0.2298(10) 0.8325(9) 0.0393(9)
H18_3 H 0.2746 0.8477 0.0293
C19_3 C 0.4385(7) 0.8705(5) 0.2764(7)
C20_3 C 0.4250(7) 0.8538(5) 0.3513(7)
H19_3 H 0.4688 0.8617 0.4028
C21_3 C 0.3465(8) 0.8258(5) 0.3471(7)
C22_3 C 0.2806(8) 0.8150(6) 0.2707(7)
H20_3 H 0.2275 0.7966 0.2688
C23_3 C 0.2929(8) 0.8312(6) 0.1970(7)
C24_3 C 0.3716(7) 0.8605(6) 0.2007(7)
H21_3 H 0.3790 0.8736 0.1516
C25_3 C 0.2226(8) 0.8203(7) 0.1140(8)
C33_3 C 0.5239(7) 0.9013(6) 0.2807(7)
C34_3 C 0.3328(7) 0.8123(5) 0.4268(8)
O24 O 0.6210(6) 0.8417(5) 0.5087(5)
O2_3 O 0.4084(5) 0.8947(4) 0.6520(5)
O12_3 O 0.2121(11) 0.8823(7) 0.5070(7)
H5_3 H 0.1954 0.9096 0.5350
H6_3 H 0.2377 0.9015 0.4779
N1_3 N 0.8564(11) 0.8063(8) 0.8924(10)
N2_3 N 0.8928(10) 0.7911(9) 0.9765(9)
N3_3 N 0.7702(10) 0.8325(9) 0.9607(9)
H7_3 H 0.7254 0.8477 0.9707
C1_3 C 0.5615(7) 0.8705(5) 0.7236(7)
C2_3 C 0.5750(7) 0.8538(5) 0.6487(7)
H8_3 H 0.5312 0.8617 0.5972
C3_3 C 0.6535(8) 0.8258(5) 0.6529(7)
C4_3 C 0.7194(8) 0.8150(6) 0.7293(7)
H9_3 H 0.7725 0.7966 0.7312
C5_3 C 0.7071(8) 0.8312(6) 0.8030(7)
C6_3 C 0.6284(7) 0.8605(6) 0.7993(7)
H10_3 H 0.6210 0.8736 0.8484
C7_3 C 0.7774(8) 0.8203(7) 0.8860(8)
C15_3 C 0.4761(7) 0.9013(6) 0.7193(7)
C16_3 C 0.6672(7) 0.8123(5) 0.5732(8)
O18_3 O 0.2370(5) 0.8489(5) 0.6717(6)
C26_3 C 0.1533(9) 0.8158(7) 0.9860(9)
C27_3 C 0.1709(7) 0.8443(6) 0.7740(8)
C28_3 C 0.0925(8) 0.8182(6) 0.7210(7)
H22_3 H 0.0800 0.8186 0.6635
C29_3 C 0.0326(7) 0.7916(6) 0.7531(7)
C30_3 C 0.0507(8) 0.7940(7) 0.8410(8)
H23_3 H 0.0092 0.7789 0.8629
C31_3 C 0.1284(8) 0.8183(6) 0.8926(7)
C32_3 C 0.1887(7) 0.8446(6) 0.8605(7)
H24_3 H 0.2410 0.8624 0.8964
C35_3 C 0.2380(8) 0.8699(6) 0.7395(7)
C36_3 C 0.9488(7) 0.7624(7) 0.6972(8)
O6_4 O 0.2630(5) 0.3489(5) 0.3283(6)
C8_4 C 0.3467(9) 0.3158(7) 0.0140(9)
C9_4 C 0.3291(7) 0.3443(6) 0.2260(8)
C10_4 C 0.4075(8) 0.3182(6) 0.2790(7)
H11_4 H 0.4200 0.3186 0.3365
C11_4 C 0.4674(7) 0.2916(6) 0.2469(7)
C12_4 C 0.4493(8) 0.2940(7) 0.1590(8)
H12_4 H 0.4908 0.2789 0.1371
C13_4 C 0.3716(8) 0.3183(6) 0.1074(7)
C14_4 C 0.3113(7) 0.3446(6) 0.1395(7)
H13_4 H 0.2590 0.3624 0.1036
C17_4 C 0.2620(8) 0.3699(6) 0.2605(7)
C18_4 C 0.5512(7) 0.2624(7) 0.3028(8)
O14_4 O 0.0916(5) 0.3947(4) 0.3480(5)
O21_4 O 0.2879(11) 0.3823(7) 0.4930(7)
H16_4 H 0.3046 0.4096 0.4650
H17_4 H 0.2623 0.4015 0.5221
C33_4 C 0.0239(7) 0.4013(6) 0.2807(7)
O24_2 O 0.1210(6) 0.3417(5) 0.5087(5)
N1_4 N 0.3564(11) 0.3063(8) 0.8924(10)
N2_4 N 0.3928(10) 0.2911(9) 0.9765(9)
N3_4 N 0.2702(10) 0.3325(9) 0.9607(9)
H7_4 H 0.2254 0.3477 0.9707
C1_4 C 0.0615(7) 0.3705(5) 0.7236(7)
C2_4 C 0.0750(7) 0.3538(5) 0.6487(7)
H8_4 H 0.0312 0.3617 0.5972
C3_4 C 0.1535(8) 0.3258(5) 0.6529(7)
C4_4 C 0.2194(8) 0.3150(6) 0.7293(7)
H9_4 H 0.2725 0.2966 0.7312
C5_4 C 0.2071(8) 0.3312(6) 0.8030(7)
C6_4 C 0.1284(7) 0.3605(6) 0.7993(7)
H10_4 H 0.1210 0.3736 0.8484
C7_4 C 0.2774(8) 0.3203(7) 0.8860(8)
C16_4 C 0.1672(7) 0.3123(5) 0.5732(8)
O15_2 O 0.8790(6) 0.3417(5) 0.4913(5)
N4_4 N 0.6436(11) 0.3063(8) 0.1076(10)
N5_4 N 0.6072(10) 0.2911(9) 0.0235(9)
N6_4 N 0.7298(10) 0.3325(9) 0.0393(9)
H18_4 H 0.7746 0.3477 0.0293
C19_4 C 0.9385(7) 0.3705(5) 0.2764(7)
C20_4 C 0.9250(7) 0.3538(5) 0.3513(7)
H19_4 H 0.9688 0.3617 0.4028
C21_4 C 0.8465(8) 0.3258(5) 0.3471(7)
C22_4 C 0.7806(8) 0.3150(6) 0.2707(7)
H20_4 H 0.7275 0.2966 0.2688
C23_4 C 0.7929(8) 0.3312(6) 0.1970(7)
C24_4 C 0.8716(7) 0.3605(6) 0.2007(7)
H21_4 H 0.8790 0.3736 0.1516
C25_4 C 0.7226(8) 0.3203(7) 0.1140(8)
C34_4 C 0.8328(7) 0.3123(5) 0.4268(8)
O2_4 O 0.9084(5) 0.3947(4) 0.6520(5)
O12_4 O 0.7121(11) 0.3823(7) 0.5070(7)
H5_4 H 0.6954 0.4096 0.5350
H6_4 H 0.7377 0.4015 0.4779
C15_4 C 0.9761(7) 0.4013(6) 0.7193(7)
O18_4 O 0.7370(5) 0.3489(5) 0.6717(6)
C26_4 C 0.6533(9) 0.3158(7) 0.9860(9)
C27_4 C 0.6709(7) 0.3443(6) 0.7740(8)
C28_4 C 0.5925(8) 0.3182(6) 0.7210(7)
H22_4 H 0.5800 0.3186 0.6635
C29_4 C 0.5326(7) 0.2916(6) 0.7531(7)
C30_4 C 0.5507(8) 0.2940(7) 0.8410(8)
H23_4 H 0.5092 0.2789 0.8629
C31_4 C 0.6284(8) 0.3183(6) 0.8926(7)
C32_4 C 0.6887(7) 0.3446(6) 0.8605(7)
H24_4 H 0.7410 0.3624 0.8964
C35_4 C 0.7380(8) 0.3699(6) 0.7395(7)
C36_4 C 0.4488(7) 0.2624(7) 0.6972(8)
loop_
_geom_bond_atom_site_label_1
_geom_bond_atom_site_label_2
_geom_bond_site_symmetry_1
_geom_bond_site_symmetry_2
O19 C36 1_555 1_555
O20 C36 1_555 1_555
Ho10 O19 1_555 1_555
O20 Ho10 1_555 1_555
Ho1 O1 1_555 1_555
Ho2 O2 1_555 1_555
O1 C15 1_555 1_555
O2 C15 1_555 1_555
O3 C16 1_555 1_555
O4 C16 1_555 1_555
O9 Ho1 1_555 1_555
O10 Ho1 1_555 1_555
H2 O10 1_555 1_555
H3 O10 1_555 1_555
O11 Ho1 1_555 1_555
O12 Ho2 1_555 1_555
H5 O12 1_555 1_555
H6 O12 1_555 1_555
N1 N2 1_555 1_555
N3 H7 1_555 1_555
C1 C2 1_555 1_555
C2 H8 1_555 1_555
C3 C2 1_555 1_555
C4 C3 1_555 1_555
H9 C4 1_555 1_555
C5 C4 1_555 1_555
C6 C1 1_555 1_555
H10 C6 1_555 1_555
C7 N1 1_555 1_555
C15 C1 1_555 1_555
C16 C3 1_555 1_555
H14 O9 1_555 1_555
H15 O11 1_555 1_555
O17 Ho1 1_555 1_555
O18 Ho2 1_555 1_555
C27 C28 1_555 1_555
C28 H22 1_555 1_555
C29 C28 1_555 1_555
C30 C29 1_555 1_555
H23 C30 1_555 1_555
C31 C26 1_555 1_555
C32 C27 1_555 1_555
H24 C32 1_555 1_555
C35 O17 1_555 1_555
Ho6 O3 1_555 1_555
Ho10 O4 1_555 1_555
O25 Ho2 1_555 1_555
O27 Ho2 1_555 1_555
O29 Ho2 1_555 1_555
O31 Ho2 1_555 1_555
O33 Ho2 1_555 1_555
O4 Ho6 1_555 1_555
N3 C7 1_555 1_555
C5 C6 1_555 1_555
C5 C7 1_555 1_555
O18 C35 1_555 1_555
C27 C35 1_555 1_555
C30 C31 1_555 1_555
C31 C32 1_555 1_555
O5 C17 1_555 1_555
O6 C17 1_555 1_555
C9 C10 1_555 1_555
C10 H11 1_555 1_555
C11 C10 1_555 1_555
C12 C11 1_555 1_555
H12 C12 1_555 1_555
C13 C8 1_555 1_555
C14 C9 1_555 1_555
H13 C14 1_555 1_555
C17 C9 1_555 1_555
Ho6 O6 1_555 1_555
O13 C33 1_555 1_555
O14 Ho6 1_555 1_555
O25 C34 1_555 1_555
O27 C34 1_555 1_555
O21 Ho6 1_555 1_555
H16 O21 1_555 1_555
H17 O21 1_555 1_555
N4 N5 1_555 1_555
N6 H18 1_555 1_555
C19 C20 1_555 1_555
C20 H19 1_555 1_555
C21 C20 1_555 1_555
C22 C21 1_555 1_555
H20 C22 1_555 1_555
C23 C22 1_555 1_555
C24 C19 1_555 1_555
H21 C24 1_555 1_555
C25 N4 1_555 1_555
C33 O14 1_555 1_555
C34 C21 1_555 1_555
Ho4 O5 1_555 1_555
Ho8 O27 1_555 1_555
O28 Ho6 1_555 1_555
O32 Ho6 1_555 1_555
O34 Ho6 1_555 1_555
C12 C13 1_555 1_555
C13 C14 1_555 1_555
O13 Ho4 1_555 1_555
N6 C25 1_555 1_555
C19 C33 1_555 1_555
C23 C24 1_555 1_555
C23 C25 1_555 1_555
O9_2 Ho1_2 1_555 1_555
H1 O9_2 1_555 1_555
O11_2 Ho1_2 1_555 1_555
H4 O11_2 1_555 1_555
O22 Ho1_2 1_555 1_555
H25 O22 1_555 1_555
H26 O22 1_555 1_555
O23 Ho1_2 1_555 1_555
O30 Ho1_2 1_555 1_555
O7 C18 1_555 1_555
O8 C18 1_555 1_555
Ho8 O7 1_555 1_555
O8 Ho8 1_555 1_555
O9_3 Ho4 1_555 1_555
O10_2 Ho4 1_555 1_555
H2_2 O10_2 1_555 1_555
H3_2 O10_2 1_555 1_555
O11_3 Ho4 1_555 1_555
H14_2 O9_3 1_555 1_555
H15_2 O11_3 1_555 1_555
O9_4 Ho4_2 1_555 1_555
H1_2 O9_4 1_555 1_555
O11_4 Ho4_2 1_555 1_555
H4_2 O11_4 1_555 1_555
O22_2 Ho4_2 1_555 1_555
H25_2 O22_2 1_555 1_555
H26_2 O22_2 1_555 1_555
O23_2 Ho4_2 1_555 1_555
O30_2 Ho4_2 1_555 1_555
Ho1_3 O1_2 1_555 1_555
Ho2_2 O2_2 1_555 1_555
O1_2 C15_2 1_555 1_555
O2_2 C15_2 1_555 1_555
O9_5 Ho1_3 1_555 1_555
H1_3 O9_5 1_555 1_555
O10_3 Ho1_3 1_555 1_555
H3_3 O10_3 1_555 1_555
O11_5 Ho1_3 1_555 1_555
H4_3 O11_5 1_555 1_555
O12_2 Ho2_2 1_555 1_555
H5_2 O12_2 1_555 1_555
H6_2 O12_2 1_555 1_555
H14_3 O9_5 1_555 1_555
H15_3 O11_5 1_555 1_555
O17_2 Ho1_3 1_555 1_555
O18_2 Ho2_2 1_555 1_555
O19_2 C36_2 1_555 1_555
O20_2 C36_2 1_555 1_555
C27_2 C28_2 1_555 1_555
C28_2 H22_2 1_555 1_555
C29_2 C28_2 1_555 1_555
C30_2 C29_2 1_555 1_555
H23_2 C30_2 1_555 1_555
C31_2 C26_2 1_555 1_555
C32_2 C27_2 1_555 1_555
H24_2 C32_2 1_555 1_555
C35_2 O17_2 1_555 1_555
C36_2 C29_2 1_555 1_555
O22_3 Ho1_3 1_555 1_555
H26_3 O22_3 1_555 1_555
Ho10_2 O19_2 1_555 1_555
O23_3 Ho1_3 1_555 1_555
O25_2 Ho2_2 1_555 1_555
O27_2 Ho2_2 1_555 1_555
O29_2 Ho2_2 1_555 1_555
O30_3 Ho1_3 1_555 1_555
O31_2 Ho2_2 1_555 1_555
O33_2 Ho2_2 1_555 1_555
O18_2 C35_2 1_555 1_555
O20_2 Ho10_2 1_555 1_555
C27_2 C35_2 1_555 1_555
C30_2 C31_2 1_555 1_555
C31_2 C32_2 1_555 1_555
O25_2 C34_2 1_555 1_555
O27_2 C34_2 1_555 1_555
N4_2 N5_2 1_555 1_555
N6_2 H18_2 1_555 1_555
C19_2 C20_2 1_555 1_555
C20_2 H19_2 1_555 1_555
C21_2 C20_2 1_555 1_555
C22_2 C21_2 1_555 1_555
H20_2 C22_2 1_555 1_555
C23_2 C22_2 1_555 1_555
C24_2 C19_2 1_555 1_555
H21_2 C24_2 1_555 1_555
C25_2 N4_2 1_555 1_555
C34_2 C21_2 1_555 1_555
Ho8_2 O27_2 1_555 1_555
N6_2 C25_2 1_555 1_555
C23_2 C24_2 1_555 1_555
C23_2 C25_2 1_555 1_555
O3_2 C16_2 1_555 1_555
O4_2 C16_2 1_555 1_555
N1_2 N2_2 1_555 1_555
N3_2 H7_2 1_555 1_555
C1_2 C2_2 1_555 1_555
C2_2 H8_2 1_555 1_555
C3_2 C2_2 1_555 1_555
C4_2 C3_2 1_555 1_555
H9_2 C4_2 1_555 1_555
C5_2 C4_2 1_555 1_555
C6_2 C1_2 1_555 1_555
H10_2 C6_2 1_555 1_555
C7_2 N1_2 1_555 1_555
C16_2 C3_2 1_555 1_555
Ho6_2 O3_2 1_555 1_555
Ho10_2 O4_2 1_555 1_555
O4_2 Ho6_2 1_555 1_555
N3_2 C7_2 1_555 1_555
C5_2 C6_2 1_555 1_555
C5_2 C7_2 1_555 1_555
O5_2 C17_2 1_555 1_555
O6_2 C17_2 1_555 1_555
O7_2 C18_2 1_555 1_555
O8_2 C18_2 1_555 1_555
C9_2 C10_2 1_555 1_555
C10_2 H11_2 1_555 1_555
C11_2 C10_2 1_555 1_555
C12_2 C11_2 1_555 1_555
H12_2 C12_2 1_555 1_555
C13_2 C8_2 1_555 1_555
C14_2 C9_2 1_555 1_555
H13_2 C14_2 1_555 1_555
C17_2 C9_2 1_555 1_555
C18_2 C11_2 1_555 1_555
Ho6_2 O6_2 1_555 1_555
O13_2 C33_2 1_555 1_555
O14_2 Ho6_2 1_555 1_555
O21_2 Ho6_2 1_555 1_555
H16_2 O21_2 1_555 1_555
H17_2 O21_2 1_555 1_555
C33_2 O14_2 1_555 1_555
Ho4_3 O5_2 1_555 1_555
Ho8_2 O7_2 1_555 1_555
O28_2 Ho6_2 1_555 1_555
O32_2 Ho6_2 1_555 1_555
O34_2 Ho6_2 1_555 1_555
O8_2 Ho8_2 1_555 1_555
C12_2 C13_2 1_555 1_555
C13_2 C14_2 1_555 1_555
O13_2 Ho4_3 1_555 1_555
O9_6 Ho4_3 1_555 1_555
H1_4 O9_6 1_555 1_555
O10_4 Ho4_3 1_555 1_555
H3_4 O10_4 1_555 1_555
O11_6 Ho4_3 1_555 1_555
H4_4 O11_6 1_555 1_555
H14_4 O9_6 1_555 1_555
H15_4 O11_6 1_555 1_555
O22_4 Ho4_3 1_555 1_555
H26_4 O22_4 1_555 1_555
O23_4 Ho4_3 1_555 1_555
O30_4 Ho4_3 1_555 1_555
O31_2 C18_3 1_555 1_555
O33_2 C18_3 1_555 1_555
O30 C17_3 1_555 1_555
O6_3 C17_3 1_555 1_555
C9_3 C10_3 1_555 1_555
C10_3 H11_3 1_555 1_555
C11_3 C10_3 1_555 1_555
C12_3 C11_3 1_555 1_555
H12_3 C12_3 1_555 1_555
C13_3 C8_3 1_555 1_555
C14_3 C9_3 1_555 1_555
H13_3 C14_3 1_555 1_555
C17_3 C9_3 1_555 1_555
Ho10_2 O6_3 1_555 1_555
O23 C33_3 1_555 1_555
O14_3 Ho10_2 1_555 1_555
O15 C34_3 1_555 1_555
O29_2 C34_3 1_555 1_555
O21_3 Ho10_2 1_555 1_555
H16_3 O21_3 1_555 1_555
H17_3 O21_3 1_555 1_555
N4_3 N5_3 1_555 1_555
N6_3 H18_3 1_555 1_555
C19_3 C20_3 1_555 1_555
C20_3 H19_3 1_555 1_555
C21_3 C20_3 1_555 1_555
C22_3 C21_3 1_555 1_555
H20_3 C22_3 1_555 1_555
C23_3 C22_3 1_555 1_555
C24_3 C19_3 1_555 1_555
H21_3 C24_3 1_555 1_555
C25_3 N4_3 1_555 1_555
C33_3 O14_3 1_555 1_555
C34_3 C21_3 1_555 1_555
Ho8_2 O15 1_555 1_555
O24 Ho10_2 1_555 1_555
O28_2 Ho10_2 1_555 1_555
C12_3 C13_3 1_555 1_555
C13_3 C14_3 1_555 1_555
O29_2 Ho8_2 1_555 1_555
N6_3 C25_3 1_555 1_555
C19_3 C33_3 1_555 1_555
C23_3 C24_3 1_555 1_555
C23_3 C25_3 1_555 1_555
Ho8_2 O2_3 1_555 1_555
O23_2 C15_3 1_555 1_555
O2_3 C15_3 1_555 1_555
O24 C16_3 1_555 1_555
O28_2 C16_3 1_555 1_555
O12_3 Ho8_2 1_555 1_555
H5_3 O12_3 1_555 1_555
H6_3 O12_3 1_555 1_555
N1_3 N2_3 1_555 1_555
N3_3 H7_3 1_555 1_555
C1_3 C2_3 1_555 1_555
C2_3 H8_3 1_555 1_555
C3_3 C2_3 1_555 1_555
C4_3 C3_3 1_555 1_555
H9_3 C4_3 1_555 1_555
C5_3 C4_3 1_555 1_555
C6_3 C1_3 1_555 1_555
H10_3 C6_3 1_555 1_555
C7_3 N1_3 1_555 1_555
C15_3 C1_3 1_555 1_555
C16_3 C3_3 1_555 1_555
O18_3 Ho8_2 1_555 1_555
C27_3 C28_3 1_555 1_555
C28_3 H22_3 1_555 1_555
C29_3 C28_3 1_555 1_555
C30_3 C29_3 1_555 1_555
H23_3 C30_3 1_555 1_555
C31_3 C26_3 1_555 1_555
C32_3 C27_3 1_555 1_555
H24_3 C32_3 1_555 1_555
C35_3 O30_2 1_555 1_555
N3_3 C7_3 1_555 1_555
C5_3 C6_3 1_555 1_555
C5_3 C7_3 1_555 1_555
O18_3 C35_3 1_555 1_555
C27_3 C35_3 1_555 1_555
C30_3 C31_3 1_555 1_555
C31_3 C32_3 1_555 1_555
O32_2 C36_3 1_555 1_555
O34_2 C36_3 1_555 1_555
O30_3 C17_4 1_555 1_555
O6_4 C17_4 1_555 1_555
O31 C18_4 1_555 1_555
O33 C18_4 1_555 1_555
C9_4 C10_4 1_555 1_555
C10_4 H11_4 1_555 1_555
C11_4 C10_4 1_555 1_555
C12_4 C11_4 1_555 1_555
H12_4 C12_4 1_555 1_555
C13_4 C8_4 1_555 1_555
C14_4 C9_4 1_555 1_555
H13_4 C14_4 1_555 1_555
C17_4 C9_4 1_555 1_555
C18_4 C11_4 1_555 1_555
Ho10 O6_4 1_555 1_555
O23_3 C33_4 1_555 1_555
O14_4 Ho10 1_555 1_555
O21_4 Ho10 1_555 1_555
H16_4 O21_4 1_555 1_555
H17_4 O21_4 1_555 1_555
C33_4 O14_4 1_555 1_555
O24_2 Ho10 1_555 1_555
O28 Ho10 1_555 1_555
C12_4 C13_4 1_555 1_555
C13_4 C14_4 1_555 1_555
O24_2 C16_4 1_555 1_555
O28 C16_4 1_555 1_555
N1_4 N2_4 1_555 1_555
N3_4 H7_4 1_555 1_555
C1_4 C2_4 1_555 1_555
C2_4 H8_4 1_555 1_555
C3_4 C2_4 1_555 1_555
C4_4 C3_4 1_555 1_555
H9_4 C4_4 1_555 1_555
C5_4 C4_4 1_555 1_555
C6_4 C1_4 1_555 1_555
H10_4 C6_4 1_555 1_555
C7_4 N1_4 1_555 1_555
C16_4 C3_4 1_555 1_555
N3_4 C7_4 1_555 1_555
C5_4 C6_4 1_555 1_555
C5_4 C7_4 1_555 1_555
O15_2 C34_4 1_555 1_555
O29 C34_4 1_555 1_555
N4_4 N5_4 1_555 1_555
N6_4 H18_4 1_555 1_555
C19_4 C20_4 1_555 1_555
C20_4 H19_4 1_555 1_555
C21_4 C20_4 1_555 1_555
C22_4 C21_4 1_555 1_555
H20_4 C22_4 1_555 1_555
C23_4 C22_4 1_555 1_555
C24_4 C19_4 1_555 1_555
H21_4 C24_4 1_555 1_555
C25_4 N4_4 1_555 1_555
C34_4 C21_4 1_555 1_555
Ho8 O15_2 1_555 1_555
O29 Ho8 1_555 1_555
N6_4 C25_4 1_555 1_555
C23_4 C24_4 1_555 1_555
C23_4 C25_4 1_555 1_555
Ho8 O2_4 1_555 1_555
O23_4 C15_4 1_555 1_555
O2_4 C15_4 1_555 1_555
O12_4 Ho8 1_555 1_555
H5_4 O12_4 1_555 1_555
H6_4 O12_4 1_555 1_555
O18_4 Ho8 1_555 1_555
O32 C36_4 1_555 1_555
O34 C36_4 1_555 1_555
C27_4 C28_4 1_555 1_555
C28_4 H22_4 1_555 1_555
C29_4 C28_4 1_555 1_555
C30_4 C29_4 1_555 1_555
H23_4 C30_4 1_555 1_555
C31_4 C26_4 1_555 1_555
C32_4 C27_4 1_555 1_555
H24_4 C32_4 1_555 1_555
C35_4 O30_4 1_555 1_555
C36_4 C29_4 1_555 1_555
O18_4 C35_4 1_555 1_555
C27_4 C35_4 1_555 1_555
C30_4 C31_4 1_555 1_555
C31_4 C32_4 1_555 1_555

#END
