
###############################################################################
#
# This file contains modified crystal structure data generated from the
# MOF subset of the Cambridge Structural Database (CSD) v543 
# hosted by the Cambridge Crystallographic Data Centre (CCDC).
#
# This work is licensed under the Creative Commons
# Attribution-NonCommercial-ShareAlike 4.0 International License.
# To view a copy of this license, visit
# http://creativecommons.org/licenses/by-nc-sa/4.0/
# or send a letter to
# Creative Commons, PO Box 1866, Mountain View, CA 94042, USA.
#
# CIF created using the CSD Python API on 29 September 2022
# The structure has been converted into the P1 space group
# The structure has a 3D framework
# The original CSD entry BEQKAM is in the rhombohedral crystal system
# The original CSD entry BEQKAM is in a Sohncke space group
# The framework has been calculated to contain at least 10.0% void space
# The void calculation uses a probe of radius 1.32A, grid spacing 0.4
# H atom positions have been added when not included in the experimental data
# Generated hydrogen atom positions removed from atoms on special positions
#
###############################################################################

data_BEQKAM
_chemical_formula_moiety         '(C297 H297 O261 Zn63)n'
_symmetry_cell_setting           triclinic
_symmetry_space_group_name_H-M   'P 1'
_symmetry_Int_Tables_number      1
_space_group_name_Hall           'P 1'
loop_
_symmetry_equiv_pos_site_id
_symmetry_equiv_pos_as_xyz
1 x,y,z
_cell_length_a                   28.5408(11)
_cell_length_b                   28.5408(11)
_cell_length_c                   25.5419(18)
_cell_angle_alpha                90
_cell_angle_beta                 90
_cell_angle_gamma                120
_cell_volume                     18018.4
loop_
_atom_site_label
_atom_site_type_symbol
_atom_site_fract_x
_atom_site_fract_y
_atom_site_fract_z
Zn4 Zn 0.42105(6) 0.14097(6) 0.06284(5)
H3 H 0.345445 0.001211 0.143175
O11 O 0.4696(4) 0.1028(4) 0.0704(3)
O14 O 0.3542(4) 0.0688(4) 0.0742(3)
O16 O 0.2218(4) 0.2292(4) 0.1999(3)
C8 C 0.4821(4) 0.0253(4) 0.0690(3)
C11 C 0.4734(4) 0.0171(4) 0.1221(3)
H5 H 0.468031 0.041162 0.142198
C12 C 0.3384(7) 0.2372(5) 0.0620(5)
O22 O 0.2791(5) 0.3648(4) 0.0619(4)
C13 C 0.4814(4) 0.0722(4) 0.0446(4)
H8 H 0.501485 0.000266 0.003006
O23 O 0.3789(5) 0.1844(4) 0.0670(3)
O24 O 0.2445(6) 0.1668(5) 0.1944(4)
C20 C 0.3341(5) 0.0262(5) 0.0454(4)
C22 C 0.3103(6) 0.2148(5) 0.1093(5)
H9 H 0.314441 0.188490 0.126850
C23 C 0.3313(5) 0.2769(5) 0.0368(5)
H10 H 0.349002 0.291677 0.005331
C25 C 0.2979(7) 0.2942(5) 0.0583(5)
C26 C 0.2761(7) 0.2325(6) 0.1296(5)
C29 C 0.3778(6) 0.2230(6) 0.0424(5)
C30 C 0.2422(7) 0.2066(7) 0.1752(6)
C31 C 0.2876(6) 0.3364(5) 0.0311(6)
C32 C 0.2734(7) 0.2748(5) 0.1066(6)
H11 H 0.255297 0.290161 0.123214
O27 O 0.4968(5) 0.2171(5) 0.0662(5)
O28 O 0.4228(6) 0.1440(5) 0.1499(5)
Zn36 Zn 0.18551(6) 0.20374(5) 0.26702(5)
Zn41 Zn 0.22864(6) 0.12252(5) 0.26042(5)
Zn47 Zn 0.28707(8) 0.43821(6) 0.04969(7)
H36 H 0.492125 0.24592 0.0495015
H37 H 0.507721 0.226771 0.103316
H38 H 0.403078 0.162323 0.162367
H39 H 0.405193 0.106614 0.164081
Zn1 Zn 0.47783(5) 0.13127(4) 0.95773(4)
Zn2 Zn 0.43957(5) 0.21555(5) 0.95959(4)
Zn3 Zn 0.35287(6) 0.09012(6) 0.95476(5)
O1 O 0.4230(2) 0.1457(2) 0.9852(2)
O2 O 0.5190(3) 0.2616(3) 0.9514(3)
O3 O 0.5463(3) 0.1990(3) 0.9527(3)
O5 O 0.3979(3) 0.2411(3) 0.9976(3)
C2 C 0.6546(4) 0.2789(4) 0.9521(4)
H2 H 0.646318 0.243019 0.952440
C4 C 0.6133(4) 0.2927(4) 0.9518(4)
O10 O 0.4891(3) 0.0792(3) 0.9947(3)
C5 C 0.5532(4) 0.2475(4) 0.9505(3)
O20 O 0.3278(4) 0.0258(3) 0.9985(3)
O25 O 0.2893(6) 0.3390(5) 0.9834(5)
O30 O 0.2891(7) 0.0964(13) 0.9858(7)
O31 O 0.7384(3) 0.2574(4) 0.9514(3)
O32 O 0.8010(3) 0.3473(4) 0.9527(3)
C34 C 0.7211(4) 0.3757(6) 0.9521(4)
H12 H 0.756981 0.403299 0.952440
C35 C 0.7073(4) 0.3206(6) 0.9518(4)
C36 C 0.7525(4) 0.3057(6) 0.9505(3)
O33 O 0.7426(4) 0.4810(3) 0.9514(3)
O34 O 0.6527(4) 0.4537(3) 0.9527(3)
C37 C 0.6243(6) 0.3454(4) 0.9521(4)
H13 H 0.596701 0.353682 0.952440
C38 C 0.6794(6) 0.3867(4) 0.9518(4)
C39 C 0.6943(6) 0.4468(4) 0.9505(3)
Zn22 Zn 0.86873(4) 0.34656(6) 0.95773(4)
Zn23 Zn 0.65344(6) 0.52217(5) 0.95773(4)
Zn27 Zn 0.78445(5) 0.22402(7) 0.95959(4)
Zn28 Zn 0.77598(7) 0.56043(5) 0.95959(4)
O98 O 0.4657(3) 0.1074(4) 0.8854(3)
O101 O 0.4154(3) 0.2056(4) 0.8865(2)
O104 O 0.3376(3) 0.1280(4) 0.8955(2)
O110 O 0.3774(4) 0.0529(6) 0.8959(3)
H44 H 0.294343 0.13279 0.977936
H45 H 0.2546 0.0682743 0.970015
Zn7 Zn 0.56179(6) 0.84886(5) 0.04969(7)
O4 O 0.5094(4) 0.8742(3) 0.0524(3)
O8 O 0.3083(3) 0.8676(3) 0.2187(3)
C3 C 0.3252(4) 0.9698(5) 0.1238(4)
O9 O 0.4568(3) 0.9179(3) 0.2198(2)
O13 O 0.4570(3) 0.9957(3) 0.2288(2)
O18 O 0.3421(4) 0.9559(4) 0.2292(3)
O19 O 0.2145(4) 0.7806(4) 0.0580(4)
C7 C 0.3133(4) 0.9727(4) 0.0703(3)
C9 C 0.2871(5) 0.9250(6) 0.0437(4)
H4 H 0.283221 0.926809 0.007713
C10 C 0.4725(4) 0.9722(4) 0.1458(3)
C14 C 0.2764(5) 0.8726(5) 0.1167(4)
H6 H 0.263965 0.839416 0.133201
C15 C 0.4629(4) 0.9616(5) 0.2020(4)
C16 C 0.4851(4) 0.9404(4) 0.1146(3)
H7 H 0.487102 0.911912 0.130050
C17 C 0.4941(4) 0.9931(4) 0.0385(4)
C18 C 0.3068(4) 0.9212(5) 0.1458(4)
C19 C 0.4948(4) 0.9492(4) 0.0621(3)
C21 C 0.5080(4) 0.9136(4) 0.0303(4)
C24 C 0.2396(4) 0.8227(5) 0.0333(4)
C27 C 0.3191(5) 0.9124(7) 0.2030(4)
C28 C 0.2656(5) 0.8738(5) 0.0657(5)
O29 O 0.5621(8) 0.8482(6) 0.1430(6)
Zn14 Zn 0.15114(5) 0.71293(8) 0.04969(7)
O40 O 0.1258(3) 0.6352(5) 0.0524(3)
O42 O 0.1324(3) 0.4407(4) 0.2187(3)
C46 C 0.0302(5) 0.3554(6) 0.1238(4)
O43 O 0.0821(3) 0.5389(4) 0.2198(2)
O47 O 0.0043(3) 0.4613(4) 0.2288(2)
O52 O 0.0441(4) 0.3862(6) 0.2292(3)
O53 O 0.2194(4) 0.4339(6) 0.0580(4)
C47 C 0.0273(4) 0.3406(6) 0.0703(3)
C49 C 0.0750(6) 0.3621(8) 0.0437(4)
H17 H 0.073191 0.356412 0.007713
C50 C 0.0278(4) 0.5003(6) 0.1458(3)
C54 C 0.1274(5) 0.4038(7) 0.1167(4)
H19 H 0.160584 0.424549 0.133201
C55 C 0.0384(5) 0.5013(6) 0.2020(4)
C56 C 0.0596(4) 0.5447(6) 0.1146(3)
H20 H 0.088088 0.575190 0.130050
C57 C 0.0069(4) 0.5010(6) 0.0385(4)
C58 C 0.0788(5) 0.3856(6) 0.1458(4)
C59 C 0.0508(4) 0.5456(6) 0.0621(3)
C61 C 0.0864(4) 0.5944(6) 0.0303(4)
C64 C 0.1773(5) 0.4169(6) 0.0333(4)
C67 C 0.0876(7) 0.4067(9) 0.2030(4)
C68 C 0.1262(5) 0.3918(7) 0.0657(5)
O63 O 0.1518(6) 0.7139(10) 0.1430(6)
O76 O 0.0074(6) 0.7782(4) 0.1999(3)
O82 O 0.0857(6) 0.7209(5) 0.0619(4)
C98 C 0.0488(8) 0.7124(6) 0.0311(6)
C99 C 0.0014(9) 0.7266(7) 0.1066(6)
H33 H 0.034864 0.744703 0.123214
Zn24 Zn 0.14450(5) 0.46460(4) 0.29106(4)
Zn26 Zn 0.32011(6) 0.85550(5) 0.29106(4)
Zn29 Zn 0.10624(5) 0.54888(5) 0.29292(4)
Zn31 Zn 0.44265(7) 0.89376(5) 0.29292(4)
Zn32 Zn 0.01954(6) 0.42345(6) 0.28809(5)
Zn34 Zn 0.40392(8) 0.98046(6) 0.28809(5)
Zn38 Zn 0.01824(8) 0.81449(6) 0.26702(5)
O113 O 0.5661(6) 0.7855(4) 0.0580(4)
O117 O 0.6352(4) 0.9143(6) 0.0619(4)
H34 H 0.636667 0.855965 0.00344664
Zn5 Zn 0.51884(6) 0.87041(5) 0.93369(5)
Zn6 Zn 0.56197(6) 0.78919(5) 0.92709(5)
C1 C 0.3761(5) 0.6565(4) 0.9360(4)
H1 H 0.404618 0.649505 0.937932
O6 O 0.4813(3) 0.7441(3) 0.9316(3)
O7 O 0.4501(3) 0.8027(3) 0.9320(3)
C6 C 0.4430(4) 0.7536(4) 0.9308(4)
O12 O 0.5138(4) 0.9219(3) 0.9801(3)
O15 O 0.6351(4) 0.8634(3) 0.9657(3)
O17 O 0.5661(4) 0.8502(3) 0.9675(3)
O21 O 0.2361(5) 0.8260(3) 0.9863(3)
O26 O 0.5713(7) 0.7346(6) 0.8836(5)
C33 C 0.3864(4) 0.7091(4) 0.9346(5)
C40 C 0.3435(4) 0.7196(6) 0.9360(4)
H14 H 0.350495 0.755113 0.937932
O35 O 0.2559(3) 0.7372(4) 0.9316(3)
O36 O 0.1973(3) 0.6474(4) 0.9320(3)
C41 C 0.2464(4) 0.6894(6) 0.9308(4)
C42 C 0.2909(4) 0.6773(6) 0.9346(5)
C43 C 0.2804(6) 0.6239(5) 0.9360(4)
H15 H 0.244887 0.595382 0.937932
O37 O 0.2628(4) 0.5187(3) 0.9316(3)
O38 O 0.3526(4) 0.5499(3) 0.9320(3)
C44 C 0.3106(6) 0.5570(4) 0.9308(4)
C45 C 0.3227(6) 0.6136(4) 0.9346(5)
Zn12 Zn 0.12959(5) 0.64843(8) 0.93369(5)
Zn13 Zn 0.21081(5) 0.77278(8) 0.92709(5)
O46 O 0.0781(3) 0.5919(5) 0.9801(3)
O49 O 0.1366(3) 0.7717(5) 0.9657(3)
O51 O 0.1498(3) 0.7159(5) 0.9675(3)
O55 O 0.1740(3) 0.4101(6) 0.9863(3)
O60 O 0.2654(6) 0.8367(9) 0.8836(5)
O85 O 0.0497(8) 0.7107(6) 0.9834(5)
Zn35 Zn 0.35157(8) 0.48116(6) 0.93369(5)
Zn40 Zn 0.22722(8) 0.43803(6) 0.92709(5)
O106 O 0.5551(4) 0.8959(4) 0.8666(3)
O107 O 0.1041(4) 0.6593(6) 0.8666(3)
O115 O 0.5899(6) 0.7639(5) 0.9863(3)
O118 O 0.5778(6) 0.8335(5) 0.8611(4)
O119 O 0.1665(5) 0.7444(8) 0.8611(4)
Zn11 Zn 0.85903(6) 0.28008(8) 0.06284(5)
H16 H 0.998789 0.344234 0.143175
O45 O 0.8972(4) 0.3668(6) 0.0704(3)
O48 O 0.9312(4) 0.2854(6) 0.0742(3)
C48 C 0.9747(4) 0.4568(6) 0.0690(3)
C51 C 0.9829(4) 0.4563(6) 0.1221(3)
H18 H 0.958838 0.426869 0.142198
C52 C 0.7628(5) 0.1012(9) 0.0620(5)
C53 C 0.9278(4) 0.4092(6) 0.0446(4)
H21 H 0.999734 0.501219 0.003006
O57 O 0.8156(4) 0.1945(6) 0.0670(3)
O58 O 0.8332(5) 0.0777(8) 0.1944(4)
C60 C 0.9738(5) 0.3079(7) 0.0454(4)
C62 C 0.7852(5) 0.0955(8) 0.1093(5)
H22 H 0.811510 0.125951 0.126850
C63 C 0.7231(5) 0.0544(7) 0.0368(5)
H23 H 0.708323 0.057325 0.005331
C65 C 0.7058(5) 0.0037(9) 0.0583(5)
C66 C 0.7675(6) 0.0436(9) 0.1296(5)
C69 C 0.7770(6) 0.1548(8) 0.0424(5)
C70 C 0.7934(7) 0.0356(10) 0.1752(6)
O61 O 0.7829(5) 0.2797(7) 0.0662(5)
O62 O 0.8560(5) 0.2788(8) 0.1499(5)
Zn18 Zn 0.71992(8) 0.57895(6) 0.06284(5)
O66 O 0.3648(5) 0.4906(4) 0.0524(3)
O68 O 0.5593(4) 0.6917(3) 0.2187(3)
C73 C 0.6446(6) 0.6748(4) 0.1238(4)
H25 H 0.655766 0.654555 0.143175
O69 O 0.4611(4) 0.5432(3) 0.2198(2)
O71 O 0.6332(6) 0.5304(4) 0.0704(3)
O73 O 0.5387(4) 0.5430(3) 0.2288(2)
O74 O 0.7146(6) 0.6458(4) 0.0742(3)
O78 O 0.6138(6) 0.6579(4) 0.2292(3)
C74 C 0.6594(6) 0.6867(4) 0.0703(3)
C75 C 0.5432(6) 0.5179(4) 0.0690(3)
C76 C 0.6379(8) 0.7129(5) 0.0437(4)
H26 H 0.643588 0.716779 0.007713
C77 C 0.4997(6) 0.5275(4) 0.1458(3)
C78 C 0.5437(6) 0.5266(4) 0.1221(3)
H27 H 0.573131 0.531969 0.142198
C79 C 0.8988(9) 0.6616(7) 0.0620(5)
C80 C 0.5908(6) 0.5186(4) 0.0446(4)
C81 C 0.5962(7) 0.7236(5) 0.1167(4)
H28 H 0.575451 0.736035 0.133201
C82 C 0.4987(6) 0.5371(4) 0.2020(4)
C83 C 0.4553(6) 0.5149(4) 0.1146(3)
H29 H 0.424810 0.512898 0.130050
C84 C 0.4990(6) 0.5059(4) 0.0385(4)
H30 H 0.498781 0.498515 0.003006
C85 C 0.6144(6) 0.6932(4) 0.1458(4)
O83 O 0.8055(6) 0.6211(5) 0.0670(3)
O84 O 0.9223(8) 0.7555(6) 0.1944(4)
C86 C 0.4544(6) 0.5052(4) 0.0621(3)
C87 C 0.6921(7) 0.6659(5) 0.0454(4)
C88 C 0.4056(6) 0.4920(4) 0.0303(4)
C89 C 0.9045(8) 0.6897(6) 0.1093(5)
H31 H 0.874049 0.685559 0.126850
C90 C 0.9456(7) 0.6687(5) 0.0368(5)
H32 H 0.942675 0.650998 0.005331
C91 C 0.5831(6) 0.7604(4) 0.0333(4)
C92 C 0.9963(9) 0.7021(7) 0.0583(5)
C93 C 0.9564(9) 0.7239(7) 0.1296(5)
C94 C 0.5933(9) 0.6809(5) 0.2030(4)
C95 C 0.6082(7) 0.7344(5) 0.0657(5)
C96 C 0.8452(8) 0.6222(6) 0.0424(5)
C97 C 0.9644(10) 0.7578(7) 0.1752(6)
O87 O 0.7203(7) 0.5032(5) 0.0662(5)
O88 O 0.7212(8) 0.5772(6) 0.1499(5)
O89 O 0.2861(10) 0.4379(8) 0.1430(6)
Zn25 Zn 0.53540(4) 0.67989(6) 0.29106(4)
Zn30 Zn 0.45112(5) 0.55735(7) 0.29292(4)
Zn33 Zn 0.57655(6) 0.59608(8) 0.28809(5)
Zn42 Zn 0.87748(5) 0.10611(8) 0.26042(5)
Zn43 Zn 0.89389(8) 0.77136(6) 0.26042(5)
H52 H 0.75408 0.246205 0.0495015
H53 H 0.773229 0.280951 0.103316
H54 H 0.837677 0.240755 0.162367
H55 H 0.893386 0.298578 0.164081
H58 H 0.234244 0.371191 0.00397015
H62 H 0.753795 0.507875 0.0495015
H63 H 0.719049 0.492279 0.103316
H64 H 0.759245 0.596922 0.162367
H65 H 0.701422 0.594807 0.164081
Zn10 Zn 0.90988(6) 0.26275(8) 0.95476(5)
O39 O 0.8543(2) 0.2773(3) 0.9852(2)
O41 O 0.7589(3) 0.1568(4) 0.9976(3)
O44 O 0.9208(3) 0.4099(4) 0.9947(3)
O54 O 0.9742(3) 0.3020(5) 0.9985(3)
O64 O 0.9036(13) 0.1927(15) 0.9858(7)
Zn17 Zn 0.73725(8) 0.64713(6) 0.95476(5)
O65 O 0.7227(3) 0.5770(2) 0.9852(2)
O67 O 0.8432(4) 0.6021(3) 0.9976(3)
O70 O 0.5901(4) 0.5109(3) 0.9947(3)
O72 O 0.4081(5) 0.4862(4) 0.9801(3)
O75 O 0.2283(5) 0.3649(4) 0.9657(3)
O77 O 0.2841(5) 0.4339(4) 0.9675(3)
O80 O 0.6980(5) 0.6722(4) 0.9985(3)
O86 O 0.1633(9) 0.4287(7) 0.8836(5)
O90 O 0.8073(15) 0.7109(7) 0.9858(7)
O97 O 0.6416(3) 0.5343(3) 0.8854(3)
O99 O 0.8926(4) 0.3584(3) 0.8854(3)
O100 O 0.7901(3) 0.5846(3) 0.8865(2)
O102 O 0.7944(4) 0.2099(3) 0.8865(2)
O103 O 0.7903(3) 0.6624(3) 0.8955(2)
O105 O 0.8720(4) 0.2097(3) 0.8955(2)
O108 O 0.3407(6) 0.4449(4) 0.8666(3)
O109 O 0.6754(4) 0.6226(4) 0.8959(3)
O111 O 0.9471(6) 0.3246(4) 0.8959(3)
O120 O 0.2556(8) 0.4222(6) 0.8611(4)
H48 H 0.86721 0.161552 0.977936
H49 H 0.931726 0.186326 0.970015
H68 H 0.838448 0.705657 0.977936
H69 H 0.813674 0.7454 0.970015
O50 O 0.7708(4) 0.9926(6) 0.1999(3)
C71 C 0.6636(5) 0.9512(8) 0.0311(6)
C72 C 0.7252(5) 0.9986(9) 0.1066(6)
H24 H 0.709839 0.965136 0.123214
Zn37 Zn 0.79626(5) 0.98176(8) 0.26702(5)
O59 O 0.6610(5) 0.9503(8) 0.9834(5)
H34_2 H 0.144035 0.780702 0.00344664
H58_2 H 0.628809 0.863054 0.00397015
H58_3 H 0.136946 0.765756 0.00397015
H34_3 H 0.219298 0.363333 0.00344664
Zn4_2 Zn 0.08772(6) 0.47430(6) 0.39617(5)
Zn7_2 Zn 0.22846(6) 0.18219(5) 0.38302(7)
O1_2 O 0.0897(2) 0.4790(2) 0.3185(2)
O2_2 O 0.1857(3) 0.5949(3) 0.2847(3)
O3_2 O 0.2130(3) 0.5323(3) 0.2860(3)
O4_2 O 0.1761(4) 0.2075(3) 0.3857(3)
O5_2 O 0.0646(3) 0.5744(3) 0.3309(3)
C2_2 C 0.3213(4) 0.6122(4) 0.2854(4)
H2_2 H 0.312985 0.576352 0.285773
O6_2 O 0.1480(3) 0.0774(3) 0.2649(3)
O7_2 O 0.1168(3) 0.1360(3) 0.2653(3)
H3_2 H 0.012112 0.334544 0.476508
O9_2 O 0.1235(3) 0.2512(3) 0.5531(2)
C4_2 C 0.2800(4) 0.6260(4) 0.2851(4)
O10_2 O 0.1558(3) 0.4125(3) 0.3280(3)
C5_2 C 0.2199(4) 0.5808(4) 0.2838(3)
C6_2 C 0.1097(4) 0.0869(4) 0.2641(4)
O11_2 O 0.1363(4) 0.4361(4) 0.4037(3)
O12_2 O 0.1805(4) 0.2552(3) 0.3134(3)
O13_2 O 0.1237(3) 0.3290(3) 0.5621(2)
O14_2 O 0.0209(4) 0.4021(4) 0.4075(3)
O15_2 O 0.3018(4) 0.1967(3) 0.2990(3)
O17_2 O 0.2328(4) 0.1835(3) 0.3008(3)
O18_2 O 0.0088(4) 0.2892(4) 0.5625(3)
C8_2 C 0.1488(4) 0.3586(4) 0.4023(3)
C10_2 C 0.1392(4) 0.3055(4) 0.4791(3)
C11_2 C 0.1401(4) 0.3504(4) 0.4554(3)
H5_2 H 0.134698 0.374495 0.475531
C12_2 C 0.0051(7) 0.5705(5) 0.3953(5)
C13_2 C 0.1481(4) 0.4055(4) 0.3779(4)
C15_2 C 0.1296(4) 0.2949(5) 0.5353(4)
C16_2 C 0.1518(4) 0.2737(4) 0.4479(3)
H7_2 H 0.153769 0.245245 0.463383
C17_2 C 0.1608(4) 0.3264(4) 0.3718(4)
H8_2 H 0.168152 0.333599 0.336339
O23_2 O 0.0456(5) 0.5177(4) 0.4003(3)
C19_2 C 0.1615(4) 0.2825(4) 0.3954(3)
C20_2 C 0.0008(5) 0.3595(5) 0.3787(4)
C21_2 C 0.1747(4) 0.2469(4) 0.3636(4)
H10_2 H 0.015669 0.625010 0.338664
O26_2 O 0.2380(7) 0.0679(6) 0.2169(5)
C29_2 C 0.0445(6) 0.5563(6) 0.3757(5)
O27_2 O 0.1635(5) 0.5504(5) 0.3995(5)
O28_2 O 0.0895(6) 0.4773(5) 0.4832(5)
O29_2 O 0.2288(8) 0.1815(6) 0.4763(6)
C33_2 C 0.0531(4) 0.0424(4) 0.2679(5)
O31_2 O 0.4051(3) 0.5907(4) 0.2847(3)
O32_2 O 0.4677(3) 0.6806(4) 0.2860(3)
C34_2 C 0.3878(4) 0.7090(6) 0.2854(4)
H12_2 H 0.423648 0.736632 0.285773
C35_2 C 0.3740(4) 0.6539(6) 0.2851(4)
C36_2 C 0.4192(4) 0.6390(6) 0.2838(3)
O33_2 O 0.4093(4) 0.8143(3) 0.2847(3)
O34_2 O 0.3194(4) 0.7870(3) 0.2860(3)
C37_2 C 0.2910(6) 0.6787(4) 0.2854(4)
H13_2 H 0.263368 0.687015 0.285773
C38_2 C 0.3461(6) 0.7200(4) 0.2851(4)
C39_2 C 0.3610(6) 0.7801(4) 0.2838(3)
C40_2 C 0.0102(4) 0.0529(6) 0.2693(4)
H14_2 H 0.017162 0.088446 0.271265
Zn31_2 Zn 0.10931(7) 0.22710(5) 0.62626(4)
Zn34_2 Zn 0.07058(8) 0.31380(6) 0.62143(5)
O113_2 O 0.2328(6) 0.1188(4) 0.3913(4)
O115_2 O 0.2566(6) 0.0972(5) 0.3196(3)
O117_2 O 0.3019(4) 0.2476(6) 0.3952(4)
H36_2 H 0.158792 0.579253 0.382835
H37_2 H 0.174388 0.560104 0.43665
H38_2 H 0.0697446 0.495656 0.4957
H39_2 H 0.0718592 0.439948 0.497415
C1_2 C 0.0428(5) 0.9898(4) 0.2693(4)
H1_2 H 0.071285 0.982838 0.271265
O38_2 O 0.0193(4) 0.8832(3) 0.2653(3)
O8_2 O 0.9750(3) 0.2009(3) 0.5520(3)
C3_2 C 0.9919(4) 0.3031(5) 0.4571(4)
O16_2 O 0.8885(4) 0.5625(4) 0.5332(3)
O19_2 O 0.8812(4) 0.1139(4) 0.3913(4)
C7_2 C 0.9800(4) 0.3060(4) 0.4036(3)
C9_2 C 0.9538(5) 0.2583(6) 0.3770(4)
H4_2 H 0.949888 0.260142 0.341046
O20_2 O 0.9945(4) 0.3591(3) 0.3318(3)
O21_2 O 0.9028(5) 0.1593(3) 0.3196(3)
O22_2 O 0.9458(5) 0.6981(4) 0.3952(4)
C14_2 C 0.9431(5) 0.2059(5) 0.4500(4)
H6_2 H 0.930632 0.172749 0.466534
C18_2 C 0.9735(4) 0.2545(5) 0.4791(4)
O24_2 O 0.9112(6) 0.5001(5) 0.5277(4)
C22_2 C 0.9770(6) 0.5481(5) 0.4426(5)
H9_2 H 0.981108 0.521823 0.460183
C23_2 C 0.9980(5) 0.6102(5) 0.3701(5)
C24_2 C 0.9063(4) 0.1560(5) 0.3666(4)
O25_2 O 0.9560(6) 0.6723(5) 0.3167(5)
C25_2 C 0.9646(7) 0.6275(5) 0.3916(5)
C26_2 C 0.9428(7) 0.5658(6) 0.4629(5)
C27_2 C 0.9858(5) 0.2457(7) 0.5363(4)
C28_2 C 0.9323(5) 0.2071(5) 0.3990(5)
C30_2 C 0.9089(7) 0.5399(7) 0.5085(6)
C31_2 C 0.9543(6) 0.6697(5) 0.3644(6)
C32_2 C 0.9401(7) 0.6081(5) 0.4399(6)
H11_2 H 0.921964 0.623494 0.456547
O30_2 O 0.9558(7) 0.4297(13) 0.3191(7)
O35_2 O 0.9226(3) 0.0705(4) 0.2649(3)
C41_2 C 0.9131(4) 0.0227(6) 0.2641(4)
C42_2 C 0.9576(4) 0.0106(6) 0.2679(5)
Zn14_2 Zn 0.81781(5) 0.04626(8) 0.38302(7)
O49_2 O 0.8033(3) 0.1050(5) 0.2990(3)
O51_2 O 0.8165(3) 0.0492(5) 0.3008(3)
O60_2 O 0.9321(6) 0.1700(9) 0.2169(5)
O63_2 O 0.8185(6) 0.0472(10) 0.4763(6)
O68_2 O 0.2260(4) 0.0250(3) 0.5520(3)
C73_2 C 0.3113(6) 0.0081(4) 0.4571(4)
O76_2 O 0.6741(6) 0.1115(4) 0.5332(3)
C74_2 C 0.3261(6) 0.0200(4) 0.4036(3)
C76_2 C 0.3046(8) 0.0462(5) 0.3770(4)
H26_2 H 0.310255 0.050112 0.341046
O80_2 O 0.3647(5) 0.0055(4) 0.3318(3)
O82_2 O 0.7524(6) 0.0542(5) 0.3952(4)
C81_2 C 0.2629(7) 0.0569(5) 0.4500(4)
H28_2 H 0.242118 0.069368 0.466534
C85_2 C 0.2811(6) 0.0265(4) 0.4791(4)
O84_2 O 0.5890(8) 0.0888(6) 0.5277(4)
C89_2 C 0.5712(8) 0.0230(6) 0.4426(5)
H31_2 H 0.540716 0.018892 0.460183
C90_2 C 0.6123(7) 0.0020(5) 0.3701(5)
C91_2 C 0.2498(6) 0.0937(4) 0.3666(4)
O85_2 O 0.7164(8) 0.0440(6) 0.3167(5)
C92_2 C 0.6630(9) 0.0354(7) 0.3916(5)
C93_2 C 0.6231(9) 0.0572(7) 0.4629(5)
C94_2 C 0.2600(9) 0.0142(5) 0.5363(4)
C95_2 C 0.2749(7) 0.0677(5) 0.3990(5)
C97_2 C 0.6311(10) 0.0911(7) 0.5085(6)
C98_2 C 0.7155(8) 0.0457(6) 0.3644(6)
C99_2 C 0.6681(9) 0.0599(7) 0.4399(6)
H33_2 H 0.701531 0.078036 0.456547
O90_2 O 0.4740(15) 0.0442(7) 0.3191(7)
Zn25_2 Zn 0.20206(4) 0.01323(6) 0.62440(4)
Zn26_2 Zn 0.98677(6) 0.18884(5) 0.62440(4)
Zn36_2 Zn 0.85217(6) 0.53708(5) 0.60036(5)
Zn38_2 Zn 0.68490(8) 0.14783(6) 0.60036(5)
Zn41_2 Zn 0.89530(6) 0.45586(5) 0.59376(5)
Zn43_2 Zn 0.56055(8) 0.10470(6) 0.59376(5)
Zn47_2 Zn 0.95374(8) 0.77154(6) 0.38302(7)
H44_2 H 0.961009 0.466124 0.311269
H45_2 H 0.921267 0.401608 0.303349
H68_2 H 0.505115 0.0389908 0.311269
H69_2 H 0.480341 0.0787331 0.303349
O36_2 O 0.8640(3) 0.9807(4) 0.2653(3)
C43_2 C 0.9471(6) 0.9572(5) 0.2693(4)
H15_2 H 0.911554 0.928715 0.271265
O37_2 O 0.9295(4) 0.8520(3) 0.2649(3)
C44_2 C 0.9773(6) 0.8903(4) 0.2641(4)
C45_2 C 0.9894(6) 0.9469(4) 0.2679(5)
Zn11_2 Zn 0.52570(6) 0.61341(8) 0.39617(5)
O39_2 O 0.5210(2) 0.6106(3) 0.3185(2)
O40_2 O 0.7925(3) 0.9685(5) 0.3857(3)
O41_2 O 0.4256(3) 0.4901(4) 0.3309(3)
O42_2 O 0.7991(3) 0.7740(4) 0.5520(3)
C46_2 C 0.6969(5) 0.6887(6) 0.4571(4)
H16_2 H 0.665456 0.677567 0.476508
O43_2 O 0.7488(3) 0.8722(4) 0.5531(2)
O44_2 O 0.5875(3) 0.7432(4) 0.3280(3)
O45_2 O 0.5639(4) 0.7001(6) 0.4037(3)
O46_2 O 0.7448(3) 0.9252(5) 0.3134(3)
O47_2 O 0.6710(3) 0.7946(4) 0.5621(2)
O48_2 O 0.5979(4) 0.6187(6) 0.4075(3)
O50_2 O 0.4375(4) 0.3259(6) 0.5332(3)
O52_2 O 0.7108(4) 0.7195(6) 0.5625(3)
O53_2 O 0.8861(4) 0.7672(6) 0.3913(4)
C47_2 C 0.6940(4) 0.6739(6) 0.4036(3)
C48_2 C 0.6414(4) 0.7901(6) 0.4023(3)
C49_2 C 0.7417(6) 0.6954(8) 0.3770(4)
H17_2 H 0.739858 0.689745 0.341046
C50_2 C 0.6945(4) 0.8336(6) 0.4791(3)
O54_2 O 0.6409(3) 0.6353(5) 0.3318(3)
C51_2 C 0.6496(4) 0.7896(6) 0.4554(3)
H18_2 H 0.625505 0.760202 0.475531
O55_2 O 0.8407(3) 0.7434(6) 0.3196(3)
C52_2 C 0.4295(5) 0.4345(9) 0.3953(5)
C53_2 C 0.5945(4) 0.7425(6) 0.3779(4)
C54_2 C 0.7941(5) 0.7371(7) 0.4500(4)
H19_2 H 0.827251 0.757882 0.466534
C55_2 C 0.7051(5) 0.8346(6) 0.5353(4)
C56_2 C 0.7263(4) 0.8780(6) 0.4479(3)
H20_2 H 0.754755 0.908523 0.463383
C57_2 C 0.6736(4) 0.8343(6) 0.3718(4)
H21_2 H 0.666401 0.834552 0.336339
C58_2 C 0.7455(5) 0.7189(6) 0.4791(4)
O57_2 O 0.4823(4) 0.5278(6) 0.4003(3)
O58_2 O 0.4999(5) 0.4110(8) 0.5277(4)
C59_2 C 0.7175(4) 0.8789(6) 0.3954(3)
C60_2 C 0.6405(5) 0.6412(7) 0.3787(4)
C61_2 C 0.7531(4) 0.9277(6) 0.3636(4)
C62_2 C 0.4519(5) 0.4288(8) 0.4426(5)
H22_2 H 0.478177 0.459284 0.460183
C63_2 C 0.3898(5) 0.3877(7) 0.3701(5)
H23_2 H 0.374990 0.390658 0.338664
C64_2 C 0.8440(5) 0.7502(6) 0.3666(4)
O59_2 O 0.3277(5) 0.2836(8) 0.3167(5)
C65_2 C 0.3725(5) 0.3370(9) 0.3916(5)
C66_2 C 0.4342(6) 0.3769(9) 0.4629(5)
C67_2 C 0.7543(7) 0.7400(9) 0.5363(4)
C68_2 C 0.7929(5) 0.7251(7) 0.3990(5)
C69_2 C 0.4437(6) 0.4881(8) 0.3757(5)
C70_2 C 0.4601(7) 0.3689(10) 0.5085(6)
C71_2 C 0.3303(5) 0.2845(8) 0.3644(6)
C72_2 C 0.3919(5) 0.3319(9) 0.4399(6)
H24_2 H 0.376506 0.298469 0.456547
O61_2 O 0.4496(5) 0.6130(7) 0.3995(5)
O62_2 O 0.5227(5) 0.6121(8) 0.4832(5)
O64_2 O 0.5703(13) 0.5260(15) 0.3191(7)
Zn18_2 Zn 0.38659(8) 0.91228(6) 0.39617(5)
O65_2 O 0.3894(3) 0.9103(2) 0.3185(2)
O66_2 O 0.0315(5) 0.8239(4) 0.3857(3)
O67_2 O 0.5099(4) 0.9354(3) 0.3309(3)
H25_2 H 0.322433 0.987888 0.476508
O69_2 O 0.1278(4) 0.8765(3) 0.5531(2)
O70_2 O 0.2568(4) 0.8442(3) 0.3280(3)
O71_2 O 0.2999(6) 0.8637(4) 0.4037(3)
O72_2 O 0.0748(5) 0.8195(4) 0.3134(3)
O73_2 O 0.2054(4) 0.8763(3) 0.5621(2)
O74_2 O 0.3813(6) 0.9791(4) 0.4075(3)
O78_2 O 0.2805(6) 0.9912(4) 0.5625(3)
C75_2 C 0.2099(6) 0.8512(4) 0.4023(3)
C77_2 C 0.1664(6) 0.8608(4) 0.4791(3)
C78_2 C 0.2104(6) 0.8599(4) 0.4554(3)
H27_2 H 0.239798 0.865302 0.475531
C79_2 C 0.5655(9) 0.9949(7) 0.3953(5)
C80_2 C 0.2575(6) 0.8519(4) 0.3779(4)
C82_2 C 0.1654(6) 0.8704(4) 0.5353(4)
C83_2 C 0.1220(6) 0.8482(4) 0.4479(3)
H29_2 H 0.091477 0.846231 0.463383
C84_2 C 0.1657(6) 0.8392(4) 0.3718(4)
H30_2 H 0.165448 0.831848 0.336339
O83_2 O 0.4722(6) 0.9544(5) 0.4003(3)
C86_2 C 0.1211(6) 0.8385(4) 0.3954(3)
C87_2 C 0.3588(7) 0.9992(5) 0.3787(4)
C88_2 C 0.0723(6) 0.8253(4) 0.3636(4)
H32_2 H 0.609342 0.984331 0.338664
C96_2 C 0.5119(8) 0.9555(6) 0.3757(5)
O87_2 O 0.3870(7) 0.8365(5) 0.3995(5)
O88_2 O 0.3879(8) 0.9105(6) 0.4832(5)
Zn24_2 Zn 0.81116(5) 0.79794(4) 0.62440(4)
Zn29_2 Zn 0.77290(5) 0.88222(5) 0.62626(4)
Zn30_2 Zn 0.11778(5) 0.89069(7) 0.62626(4)
Zn32_2 Zn 0.68620(6) 0.75679(6) 0.62143(5)
Zn33_2 Zn 0.24321(6) 0.92942(8) 0.62143(5)
Zn37_2 Zn 0.46292(5) 0.31510(8) 0.60036(5)
Zn42_2 Zn 0.54414(5) 0.43945(8) 0.59376(5)
H48_2 H 0.533876 0.494885 0.311269
H49_2 H 0.598392 0.519659 0.303349
H52_2 H 0.420747 0.579538 0.382835
H53_2 H 0.439896 0.614284 0.43665
H54_2 H 0.504344 0.574089 0.4957
H55_2 H 0.560052 0.631911 0.497415
H62_2 H 0.420462 0.841208 0.382835
H63_2 H 0.385716 0.825612 0.43665
H64_2 H 0.425911 0.930255 0.4957
H65_2 H 0.368089 0.928141 0.497415
O75_2 O 0.8950(5) 0.6982(4) 0.2990(3)
O77_2 O 0.9508(5) 0.7672(4) 0.3008(3)
O86_2 O 0.8300(9) 0.7620(7) 0.2169(5)
O89_2 O 0.9528(10) 0.7712(8) 0.4763(6)
O32_3 O 0.1343(3) 0.0140(4) 0.6194(3)
C34_3 C 0.0544(4) 0.0424(6) 0.6188(4)
H12_3 H 0.090314 0.069966 0.619107
O33_3 O 0.0759(4) 0.1477(3) 0.6181(3)
C38_3 C 0.0127(6) 0.0534(4) 0.6185(4)
C39_3 C 0.0276(6) 0.1135(4) 0.6172(3)
O31_3 O 0.0717(3) 0.9241(4) 0.6181(3)
C35_3 C 0.0406(4) 0.9873(6) 0.6185(4)
C36_3 C 0.0858(4) 0.9724(6) 0.6172(3)
H35 H 0.00240011 0.536938 0.61495
O22_3 O 0.6124(5) 0.0315(4) 0.7286(4)
O25_3 O 0.6226(6) 0.0057(5) 0.6501(5)
C31_3 C 0.6209(6) 0.0031(5) 0.6978(6)
O34_3 O 0.9860(4) 0.1204(3) 0.6194(3)
C37_3 C 0.9576(6) 0.0121(4) 0.6188(4)
H13_3 H 0.930034 0.020349 0.619107
Zn47_3 Zn 0.62040(8) 0.10488(6) 0.71636(7)
Zn4_3 Zn 0.75438(6) 0.80764(6) 0.72951(5)
Zn7_3 Zn 0.89512(6) 0.51553(5) 0.71636(7)
O1_3 O 0.7563(2) 0.8124(2) 0.6519(2)
O2_3 O 0.8523(3) 0.9283(3) 0.6181(3)
O3_3 O 0.8796(3) 0.8657(3) 0.6194(3)
O4_3 O 0.8427(4) 0.5409(3) 0.7191(3)
C1_3 C 0.7094(5) 0.3232(4) 0.6027(4)
H1_3 H 0.737951 0.316172 0.604599
O5_3 O 0.7312(3) 0.9078(3) 0.6643(3)
C2_3 C 0.9879(4) 0.9456(4) 0.6188(4)
H2_3 H 0.979651 0.909686 0.619107
O6_3 O 0.8146(3) 0.4108(3) 0.5983(3)
O7_3 O 0.7834(3) 0.4694(3) 0.5987(3)
C3_3 C 0.6585(4) 0.6365(5) 0.7905(4)
H3_3 H 0.678778 0.667878 0.809842
C4_3 C 0.9466(4) 0.9594(4) 0.6185(4)
O10_3 O 0.8224(3) 0.7459(3) 0.6614(3)
C5_3 C 0.8865(4) 0.9142(4) 0.6172(3)
C6_3 C 0.7763(4) 0.4203(4) 0.5975(4)
O11_3 O 0.8029(4) 0.7695(4) 0.7371(3)
O12_3 O 0.8471(4) 0.5886(3) 0.6468(3)
O14_3 O 0.6875(4) 0.7355(4) 0.7409(3)
O15_3 O 0.9684(4) 0.5301(3) 0.6324(3)
O17_3 O 0.8994(4) 0.5169(3) 0.6342(3)
O19_3 O 0.5478(4) 0.4473(4) 0.7247(4)
C7_3 C 0.6466(4) 0.6394(4) 0.7370(3)
C8_3 C 0.8154(4) 0.6920(4) 0.7357(3)
C9_3 C 0.6204(5) 0.5917(6) 0.7104(4)
H4_3 H 0.616554 0.593476 0.674380
C10_3 C 0.8058(4) 0.6389(4) 0.8125(3)
O20_3 O 0.6611(4) 0.6925(3) 0.6652(3)
C11_3 C 0.8067(4) 0.6838(4) 0.7888(3)
H5_3 H 0.801364 0.707829 0.808865
O21_3 O 0.5694(5) 0.4927(3) 0.6530(3)
C12_3 C 0.6717(7) 0.9039(5) 0.7287(5)
C13_3 C 0.8147(4) 0.7389(4) 0.7113(4)
C14_3 C 0.6097(5) 0.5393(5) 0.7834(4)
H6_3 H 0.597298 0.506083 0.799868
C15_3 C 0.7962(4) 0.6283(5) 0.8687(4)
C16_3 C 0.8184(4) 0.6071(4) 0.7813(3)
H7_3 H 0.820435 0.578579 0.796717
C17_3 C 0.8274(4) 0.6598(4) 0.7052(4)
H8_3 H 0.834818 0.666933 0.669673
C18_3 C 0.6401(4) 0.5879(5) 0.8125(4)
O23_3 O 0.7122(5) 0.8511(4) 0.7337(3)
C19_3 C 0.8281(4) 0.6159(4) 0.7288(3)
C20_3 C 0.6674(5) 0.6929(5) 0.7121(4)
C21_3 C 0.8413(4) 0.5803(4) 0.6970(4)
C22_3 C 0.6436(6) 0.8815(5) 0.7760(5)
H9_3 H 0.647774 0.855157 0.793517
C23_3 C 0.6646(5) 0.9436(5) 0.7035(5)
H10_3 H 0.682335 0.958344 0.671998
C24_3 C 0.5729(4) 0.4894(5) 0.7000(4)
C25_3 C 0.6312(7) 0.9609(5) 0.7250(5)
C26_3 C 0.6094(7) 0.8992(6) 0.7963(5)
C27_3 C 0.6524(5) 0.5791(7) 0.8697(4)
C28_3 C 0.5989(5) 0.5405(5) 0.7324(5)
O26_3 O 0.9046(7) 0.4013(6) 0.5503(5)
C29_3 C 0.7111(6) 0.8897(6) 0.7091(5)
C30_3 C 0.5755(7) 0.8733(7) 0.8419(6)
C32_3 C 0.6067(7) 0.9415(5) 0.7733(6)
H11_3 H 0.588630 0.956828 0.789881
O27_3 O 0.8301(5) 0.8838(5) 0.7329(5)
O28_3 O 0.7561(6) 0.8107(5) 0.8166(5)
O29_3 O 0.8954(8) 0.5149(6) 0.8097(6)
O30_3 O 0.6224(7) 0.7631(13) 0.6525(7)
C33_3 C 0.7197(4) 0.3758(4) 0.6013(5)
C40_3 C 0.6768(4) 0.3863(6) 0.6027(4)
H14_3 H 0.683828 0.421780 0.604599
O35_3 O 0.5892(3) 0.4039(4) 0.5983(3)
O36_3 O 0.5306(3) 0.3141(4) 0.5987(3)
C41_3 C 0.5797(4) 0.3561(6) 0.5975(4)
C42_3 C 0.6242(4) 0.3440(6) 0.6013(5)
C43_3 C 0.6137(6) 0.2906(5) 0.6027(4)
H15_3 H 0.578220 0.262049 0.604599
O37_3 O 0.5961(4) 0.1854(3) 0.5983(3)
O38_3 O 0.6859(4) 0.2166(3) 0.5987(3)
C44_3 C 0.6439(6) 0.2237(4) 0.5975(4)
C45_3 C 0.6560(6) 0.2803(4) 0.6013(5)
Zn14_3 Zn 0.48447(5) 0.37960(8) 0.71636(7)
O40_3 O 0.4591(3) 0.3019(5) 0.7191(3)
C46_3 C 0.3635(5) 0.0221(6) 0.7905(4)
H16_3 H 0.332122 0.010901 0.809842
O44_3 O 0.2541(3) 0.0766(4) 0.6614(3)
O45_3 O 0.2305(4) 0.0335(6) 0.7371(3)
O46_3 O 0.4114(3) 0.2586(5) 0.6468(3)
O49_3 O 0.4699(3) 0.4384(5) 0.6324(3)
O51_3 O 0.4831(3) 0.3826(5) 0.6342(3)
O53_3 O 0.5527(4) 0.1006(6) 0.7247(4)
C47_3 C 0.3606(4) 0.0073(6) 0.7370(3)
C48_3 C 0.3080(4) 0.1235(6) 0.7357(3)
C49_3 C 0.4083(6) 0.0288(8) 0.7104(4)
H17_3 H 0.406524 0.023079 0.674380
C50_3 C 0.3611(4) 0.1670(6) 0.8125(3)
C51_3 C 0.3162(4) 0.1230(6) 0.7888(3)
H18_3 H 0.292171 0.093536 0.808865
O55_3 O 0.5073(3) 0.0768(6) 0.6530(3)
C53_3 C 0.2611(4) 0.0759(6) 0.7113(4)
C54_3 C 0.4607(5) 0.0705(7) 0.7834(4)
H19_3 H 0.493917 0.091216 0.799868
C55_3 C 0.3717(5) 0.1680(6) 0.8687(4)
C56_3 C 0.3929(4) 0.2114(6) 0.7813(3)
H20_3 H 0.421421 0.241857 0.796717
C57_3 C 0.3402(4) 0.1677(6) 0.7052(4)
H21_3 H 0.333067 0.167886 0.669673
C58_3 C 0.4121(5) 0.0523(6) 0.8125(4)
C59_3 C 0.3841(4) 0.2123(6) 0.7288(3)
C61_3 C 0.4197(4) 0.2611(6) 0.6970(4)
C64_3 C 0.5106(5) 0.0836(6) 0.7000(4)
C67_3 C 0.4209(7) 0.0734(9) 0.8697(4)
C68_3 C 0.4595(5) 0.0585(7) 0.7324(5)
O60_3 O 0.5987(6) 0.5034(9) 0.5503(5)
O63_3 O 0.4851(6) 0.3806(10) 0.8097(6)
Zn18_3 Zn 0.05325(8) 0.24562(6) 0.72951(5)
O65_3 O 0.0560(3) 0.2437(2) 0.6519(2)
O67_3 O 0.1765(4) 0.2688(3) 0.6643(3)
O74_3 O 0.0479(6) 0.3125(4) 0.7409(3)
O80_3 O 0.0313(5) 0.3389(4) 0.6652(3)
C79_3 C 0.2321(9) 0.3283(7) 0.7287(5)
O82_3 O 0.4190(6) 0.3876(5) 0.7286(4)
O83_3 O 0.1388(6) 0.2878(5) 0.7337(3)
C87_3 C 0.0254(7) 0.3326(5) 0.7121(4)
C89_3 C 0.2378(8) 0.3564(6) 0.7760(5)
H31_3 H 0.207382 0.352226 0.793517
C90_3 C 0.2789(7) 0.3354(5) 0.7035(5)
H32_3 H 0.276008 0.317665 0.671998
O85_3 O 0.3830(8) 0.3774(6) 0.6501(5)
C92_3 C 0.3296(9) 0.3688(7) 0.7250(5)
C93_3 C 0.2897(9) 0.3906(7) 0.7963(5)
C96_3 C 0.1785(8) 0.2889(6) 0.7091(5)
C97_3 C 0.2977(10) 0.4245(7) 0.8419(6)
C98_3 C 0.3821(8) 0.3791(6) 0.6978(6)
C99_3 C 0.3347(9) 0.3933(7) 0.7733(6)
H33_3 H 0.368197 0.411370 0.789881
O87_3 O 0.0536(7) 0.1699(5) 0.7329(5)
O88_3 O 0.0545(8) 0.2439(6) 0.8166(5)
O90_3 O 0.1406(15) 0.3776(7) 0.6525(7)
O113_3 O 0.8994(6) 0.4522(4) 0.7247(4)
O115_3 O 0.9232(6) 0.4306(5) 0.6530(3)
O117_3 O 0.9685(4) 0.5810(6) 0.7286(4)
H36_3 H 0.825458 0.912587 0.716168
H37_3 H 0.841055 0.893437 0.769983
H38_3 H 0.736411 0.828989 0.829033
H39_3 H 0.738526 0.773281 0.830748
H44_3 H 0.627676 0.799457 0.644603
H45_3 H 0.587934 0.734941 0.636682
H62_3 H 0.0871283 0.174542 0.716168
H63_3 H 0.0523825 0.158945 0.769983
H64_3 H 0.0925779 0.263589 0.829033
H65_3 H 0.0347553 0.261474 0.830748
H68_3 H 0.171781 0.372324 0.644603
H69_3 H 0.147007 0.412066 0.636682
Zn11_3 Zn 0.19236(6) 0.94675(8) 0.72951(5)
O39_3 O 0.1876(2) 0.9440(3) 0.6519(2)
O41_3 O 0.0922(3) 0.8235(4) 0.6643(3)
O48_3 O 0.2645(4) 0.9521(6) 0.7409(3)
O54_3 O 0.3075(3) 0.9687(5) 0.6652(3)
C52_3 C 0.0961(5) 0.7679(9) 0.7287(5)
O57_3 O 0.1489(4) 0.8612(6) 0.7337(3)
C60_3 C 0.3071(5) 0.9746(7) 0.7121(4)
C62_3 C 0.1185(5) 0.7622(8) 0.7760(5)
H22_3 H 0.144843 0.792618 0.793517
C63_3 C 0.0564(5) 0.7211(7) 0.7035(5)
H23_3 H 0.041656 0.723992 0.671998
C65_3 C 0.0391(5) 0.6704(9) 0.7250(5)
C66_3 C 0.1008(6) 0.7103(9) 0.7963(5)
C69_3 C 0.1103(6) 0.8215(8) 0.7091(5)
C70_3 C 0.1267(7) 0.7023(10) 0.8419(6)
C72_3 C 0.0585(5) 0.6653(9) 0.7733(6)
H24_3 H 0.043172 0.631803 0.789881
O61_3 O 0.1162(5) 0.9464(7) 0.7329(5)
O62_3 O 0.1893(5) 0.9455(8) 0.8166(5)
O64_3 O 0.2369(13) 0.8594(15) 0.6525(7)
H48_3 H 0.200543 0.828219 0.644603
H49_3 H 0.265059 0.852993 0.636682
H52_3 H 0.0874132 0.912872 0.716168
H53_3 H 0.106563 0.947617 0.769983
H54_3 H 0.171011 0.907422 0.829033
H55_3 H 0.226719 0.965245 0.830748
O66_3 O 0.6981(5) 0.1573(4) 0.7191(3)
C73_3 C 0.9779(6) 0.3415(4) 0.7905(4)
H25_3 H 0.989099 0.321222 0.809842
O70_3 O 0.9234(4) 0.1776(3) 0.6614(3)
O71_3 O 0.9665(6) 0.1971(4) 0.7371(3)
O72_3 O 0.7414(5) 0.1529(4) 0.6468(3)
O75_3 O 0.5616(5) 0.0316(4) 0.6324(3)
O77_3 O 0.6174(5) 0.1006(4) 0.6342(3)
C74_3 C 0.9927(6) 0.3534(4) 0.7370(3)
C75_3 C 0.8765(6) 0.1846(4) 0.7357(3)
C76_3 C 0.9712(8) 0.3796(5) 0.7104(4)
H26_3 H 0.976921 0.383446 0.674380
C77_3 C 0.8330(6) 0.1942(4) 0.8125(3)
C78_3 C 0.8770(6) 0.1933(4) 0.7888(3)
H27_3 H 0.906464 0.198636 0.808865
C80_3 C 0.9241(6) 0.1853(4) 0.7113(4)
C81_3 C 0.9295(7) 0.3903(5) 0.7834(4)
H28_3 H 0.908784 0.402702 0.799868
C82_3 C 0.8320(6) 0.2038(4) 0.8687(4)
C83_3 C 0.7886(6) 0.1816(4) 0.7813(3)
H29_3 H 0.758143 0.179565 0.796717
C84_3 C 0.8323(6) 0.1726(4) 0.7052(4)
H30_3 H 0.832114 0.165182 0.669673
C85_3 C 0.9477(6) 0.3599(4) 0.8125(4)
C86_3 C 0.7877(6) 0.1719(4) 0.7288(3)
C88_3 C 0.7389(6) 0.1587(4) 0.6970(4)
C91_3 C 0.9164(6) 0.4271(4) 0.7000(4)
C94_3 C 0.9266(9) 0.3476(5) 0.8697(4)
C95_3 C 0.9415(7) 0.4011(5) 0.7324(5)
O86_3 O 0.4966(9) 0.0954(7) 0.5503(5)
O89_3 O 0.6194(10) 0.1046(8) 0.8097(6)
O59_3 O 0.9943(5) 0.6170(8) 0.6501(5)
C71_3 C 0.9969(5) 0.6179(8) 0.6978(6)
H59 H 0.526477 0.998133 0.626032
H46 H 0.525095 0.999014 0.629814
H46_2 H 0.000985862 0.526081 0.629814
H35_2 H 0.534538 0.9976 0.61495
H59_2 H 0.00186723 0.528345 0.626032
loop_
_geom_bond_atom_site_label_1
_geom_bond_atom_site_label_2
_geom_bond_site_symmetry_1
_geom_bond_site_symmetry_2
O11 Zn4 1_555 1_555
O14 Zn4 1_555 1_555
O16 C30 1_555 1_555
C8 C11 1_555 1_555
C11 H5 1_555 1_555
C12 C22 1_555 1_555
O22 C31 1_555 1_555
O23 Zn4 1_555 1_555
O24 C30 1_555 1_555
C20 O14 1_555 1_555
C22 H9 1_555 1_555
C23 C12 1_555 1_555
H10 C23 1_555 1_555
C25 C23 1_555 1_555
C26 C22 1_555 1_555
C30 C26 1_555 1_555
C31 C25 1_555 1_555
C32 C25 1_555 1_555
H11 C32 1_555 1_555
O27 Zn4 1_555 1_555
O28 Zn4 1_555 1_555
Zn36 O16 1_555 1_555
Zn41 O24 1_555 1_555
Zn47 O22 1_555 1_555
O11 C13 1_555 1_555
C8 C13 1_555 1_555
C12 C29 1_555 1_555
O23 C29 1_555 1_555
C26 C32 1_555 1_555
O27 H36 1_555 1_555
O27 H37 1_555 1_555
O28 H38 1_555 1_555
O28 H39 1_555 1_555
Zn1 O1 1_555 1_555
Zn2 O1 1_555 1_555
Zn3 O1 1_555 1_555
O2 Zn2 1_555 1_555
O3 Zn1 1_555 1_555
O5 Zn2 1_555 1_555
C2 H2 1_555 1_555
C4 C2 1_555 1_555
O10 Zn1 1_555 1_555
C5 O2 1_555 1_555
O20 Zn3 1_555 1_555
O30 Zn3 1_555 1_555
O31 C36 1_555 1_555
O32 C36 1_555 1_555
C34 H12 1_555 1_555
C35 C2 1_555 1_555
C36 C35 1_555 1_555
O33 C39 1_555 1_555
O34 C39 1_555 1_555
C37 C4 1_555 1_555
H13 C37 1_555 1_555
C38 C34 1_555 1_555
C39 C38 1_555 1_555
Zn22 O32 1_555 1_555
Zn23 O34 1_555 1_555
Zn27 O31 1_555 1_555
Zn28 O33 1_555 1_555
O98 Zn1 1_555 1_555
O101 Zn2 1_555 1_555
O104 Zn3 1_555 1_555
O110 Zn3 1_555 1_555
O3 C5 1_555 1_555
C4 C5 1_555 1_555
C34 C35 1_555 1_555
C37 C38 1_555 1_555
O30 H44 1_555 1_555
O30 H45 1_555 1_555
Zn7 O4 1_555 1_555
O4 C21 1_555 1_555
O8 C27 1_555 1_555
O9 C15 1_555 1_555
O13 C15 1_555 1_555
O18 C27 1_555 1_555
O19 C24 1_555 1_555
C7 C3 1_555 1_555
C9 C7 1_555 1_555
H4 C9 1_555 1_555
C14 H6 1_555 1_555
C15 C10 1_555 1_555
C16 C10 1_555 1_555
H7 C16 1_555 1_555
C18 C3 1_555 1_555
C19 C16 1_555 1_555
C24 C28 1_555 1_555
C27 C18 1_555 1_555
C28 C9 1_555 1_555
O29 Zn7 1_555 1_555
Zn14 O19 1_555 1_555
O40 Zn14 1_555 1_555
O42 C67 1_555 1_555
O43 C55 1_555 1_555
O47 C55 1_555 1_555
O52 C67 1_555 1_555
O53 C64 1_555 1_555
C47 C46 1_555 1_555
C49 C47 1_555 1_555
H17 C49 1_555 1_555
C54 H19 1_555 1_555
C55 C50 1_555 1_555
C56 C50 1_555 1_555
H20 C56 1_555 1_555
C58 C46 1_555 1_555
C59 C56 1_555 1_555
C61 O40 1_555 1_555
C64 C68 1_555 1_555
C67 C58 1_555 1_555
C68 C49 1_555 1_555
O63 Zn14 1_555 1_555
O82 Zn14 1_555 1_555
C98 O82 1_555 1_555
H33 C99 1_555 1_555
Zn24 O42 1_555 1_555
Zn26 O8 1_555 1_555
Zn29 O43 1_555 1_555
Zn31 O9 1_555 1_555
Zn32 O47 1_555 1_555
Zn34 O13 1_555 1_555
Zn38 O76 1_555 1_555
Zn47 O53 1_555 1_555
O113 Zn7 1_555 1_555
O117 Zn7 1_555 1_555
O18 Zn34 1_555 1_555
C14 C18 1_555 1_555
C14 C28 1_555 1_555
C17 C19 1_555 1_555
C19 C21 1_555 1_555
O52 Zn32 1_555 1_555
C54 C58 1_555 1_555
C54 C68 1_555 1_555
C57 C59 1_555 1_555
C59 C61 1_555 1_555
Zn5 O7 1_555 1_555
Zn6 O6 1_555 1_555
C1 H1 1_555 1_555
O6 C6 1_555 1_555
O7 C6 1_555 1_555
C6 C33 1_555 1_555
O12 Zn5 1_555 1_555
O15 Zn6 1_555 1_555
O17 Zn5 1_555 1_555
O26 Zn6 1_555 1_555
C33 C1 1_555 1_555
C40 C33 1_555 1_555
H14 C40 1_555 1_555
O35 C41 1_555 1_555
O36 C41 1_555 1_555
C41 C42 1_555 1_555
C42 C40 1_555 1_555
C43 C42 1_555 1_555
H15 C43 1_555 1_555
O37 C44 1_555 1_555
O38 C44 1_555 1_555
C44 C45 1_555 1_555
C45 C1 1_555 1_555
Zn12 O36 1_555 1_555
Zn13 O21 1_555 1_555
O46 Zn12 1_555 1_555
O49 Zn13 1_555 1_555
O51 Zn12 1_555 1_555
O60 Zn13 1_555 1_555
Zn35 O38 1_555 1_555
Zn40 O37 1_555 1_555
O106 Zn5 1_555 1_555
O107 Zn12 1_555 1_555
O115 Zn6 1_555 1_555
O118 Zn6 1_555 1_555
O119 Zn13 1_555 1_555
Zn6 O17 1_555 1_555
O35 Zn13 1_555 1_555
C43 C45 1_555 1_555
Zn13 O51 1_555 1_555
O55 Zn40 1_555 1_555
O45 Zn11 1_555 1_555
O48 Zn11 1_555 1_555
C48 C51 1_555 1_555
C51 H18 1_555 1_555
C52 C62 1_555 1_555
O57 Zn11 1_555 1_555
O58 C70 1_555 1_555
C60 O48 1_555 1_555
C62 H22 1_555 1_555
C63 C52 1_555 1_555
H23 C63 1_555 1_555
C65 C63 1_555 1_555
C66 C62 1_555 1_555
C70 C66 1_555 1_555
O61 Zn11 1_555 1_555
O62 Zn11 1_555 1_555
Zn47 O66 1_555 1_555
O66 C88 1_555 1_555
O68 C94 1_555 1_555
C73 H25 1_555 1_555
O69 C82 1_555 1_555
O71 Zn18 1_555 1_555
O73 C82 1_555 1_555
O74 Zn18 1_555 1_555
O78 C94 1_555 1_555
O113 C91 1_555 1_555
C74 C73 1_555 1_555
C75 C78 1_555 1_555
C76 C74 1_555 1_555
H26 C76 1_555 1_555
C77 C78 1_555 1_555
C78 H27 1_555 1_555
C79 C89 1_555 1_555
C81 H28 1_555 1_555
C82 C77 1_555 1_555
C83 C77 1_555 1_555
H29 C83 1_555 1_555
C84 C75 1_555 1_555
H30 C84 1_555 1_555
C85 C73 1_555 1_555
O83 Zn18 1_555 1_555
O84 C97 1_555 1_555
C86 C83 1_555 1_555
C87 O74 1_555 1_555
C88 C86 1_555 1_555
C89 H31 1_555 1_555
C90 C79 1_555 1_555
H32 C90 1_555 1_555
C91 C95 1_555 1_555
C92 C90 1_555 1_555
C93 C89 1_555 1_555
C94 C85 1_555 1_555
C95 C76 1_555 1_555
C97 C93 1_555 1_555
O87 Zn18 1_555 1_555
O88 Zn18 1_555 1_555
O89 Zn47 1_555 1_555
Zn25 O68 1_555 1_555
Zn30 O69 1_555 1_555
Zn33 O73 1_555 1_555
Zn42 O58 1_555 1_555
Zn43 O84 1_555 1_555
O45 C53 1_555 1_555
C48 C53 1_555 1_555
C52 C69 1_555 1_555
O57 C69 1_555 1_555
O71 C80 1_555 1_555
O78 Zn33 1_555 1_555
C74 C87 1_555 1_555
C75 C80 1_555 1_555
C79 C96 1_555 1_555
C81 C85 1_555 1_555
C81 C95 1_555 1_555
C84 C86 1_555 1_555
O83 C96 1_555 1_555
O61 H52 1_555 1_555
O61 H53 1_555 1_555
O62 H54 1_555 1_555
O62 H55 1_555 1_555
O87 H62 1_555 1_555
O87 H63 1_555 1_555
O88 H64 1_555 1_555
O88 H65 1_555 1_555
Zn22 O39 1_555 1_555
Zn27 O39 1_555 1_555
Zn10 O39 1_555 1_555
O41 Zn27 1_555 1_555
O44 Zn22 1_555 1_555
O54 Zn10 1_555 1_555
O64 Zn10 1_555 1_555
Zn23 O65 1_555 1_555
Zn28 O65 1_555 1_555
Zn17 O65 1_555 1_555
Zn35 O72 1_555 1_555
Zn40 O75 1_555 1_555
O67 Zn28 1_555 1_555
O70 Zn23 1_555 1_555
O77 Zn35 1_555 1_555
O80 Zn17 1_555 1_555
O86 Zn40 1_555 1_555
O90 Zn17 1_555 1_555
O97 Zn23 1_555 1_555
O99 Zn22 1_555 1_555
O100 Zn28 1_555 1_555
O102 Zn27 1_555 1_555
O103 Zn17 1_555 1_555
O105 Zn10 1_555 1_555
O108 Zn35 1_555 1_555
O109 Zn17 1_555 1_555
O111 Zn10 1_555 1_555
O120 Zn40 1_555 1_555
Zn40 O77 1_555 1_555
O64 H48 1_555 1_555
O64 H49 1_555 1_555
O90 H68 1_555 1_555
O90 H69 1_555 1_555
O117 C71 1_555 1_555
H24 C72 1_555 1_555
Zn37 O50 1_555 1_555
Zn24 O1_2 1_555 1_555
Zn29 O1_2 1_555 1_555
Zn32 O1_2 1_555 1_555
Zn4_2 O1_2 1_555 1_555
Zn36 O7_2 1_555 1_555
Zn41 O6_2 1_555 1_555
Zn7_2 O4_2 1_555 1_555
O2_2 Zn29 1_555 1_555
O3_2 Zn24 1_555 1_555
O4_2 C21_2 1_555 1_555
O5_2 Zn29 1_555 1_555
C2_2 H2_2 1_555 1_555
O6_2 C6_2 1_555 1_555
O7_2 C6_2 1_555 1_555
O9_2 C15_2 1_555 1_555
C4_2 C2_2 1_555 1_555
O10_2 Zn24 1_555 1_555
C5_2 O2_2 1_555 1_555
C6_2 C33_2 1_555 1_555
O11_2 Zn4_2 1_555 1_555
O12_2 Zn36 1_555 1_555
O13_2 C15_2 1_555 1_555
O14_2 Zn4_2 1_555 1_555
O15_2 Zn41 1_555 1_555
O17_2 Zn36 1_555 1_555
C8_2 C11_2 1_555 1_555
C10_2 C11_2 1_555 1_555
C11_2 H5_2 1_555 1_555
C13_2 O10_2 1_555 1_555
C15_2 C10_2 1_555 1_555
C16_2 C10_2 1_555 1_555
H7_2 C16_2 1_555 1_555
C17_2 C8_2 1_555 1_555
H8_2 C17_2 1_555 1_555
O23_2 Zn4_2 1_555 1_555
C19_2 C16_2 1_555 1_555
C20_2 O14_2 1_555 1_555
C21_2 O12_2 1_555 1_555
O26_2 Zn41 1_555 1_555
C29_2 O5_2 1_555 1_555
O27_2 Zn4_2 1_555 1_555
O28_2 Zn4_2 1_555 1_555
O29_2 Zn7_2 1_555 1_555
O31_2 C36_2 1_555 1_555
O32_2 C36_2 1_555 1_555
C34_2 H12_2 1_555 1_555
C35_2 C2_2 1_555 1_555
C36_2 C35_2 1_555 1_555
O33_2 C39_2 1_555 1_555
O34_2 C39_2 1_555 1_555
C37_2 C4_2 1_555 1_555
H13_2 C37_2 1_555 1_555
C38_2 C34_2 1_555 1_555
C39_2 C38_2 1_555 1_555
C40_2 C33_2 1_555 1_555
H14_2 C40_2 1_555 1_555
Zn25 O32_2 1_555 1_555
Zn26 O34_2 1_555 1_555
Zn30 O31_2 1_555 1_555
Zn31 O33_2 1_555 1_555
Zn31_2 O9_2 1_555 1_555
Zn34_2 O13_2 1_555 1_555
O113_2 Zn7_2 1_555 1_555
O115_2 Zn41 1_555 1_555
O117_2 Zn7_2 1_555 1_555
Zn41 O17_2 1_555 1_555
Zn7_2 O17_2 1_555 1_555
O3_2 C5_2 1_555 1_555
C4_2 C5_2 1_555 1_555
O11_2 C13_2 1_555 1_555
O18_2 Zn34_2 1_555 1_555
C8_2 C13_2 1_555 1_555
C12_2 C29_2 1_555 1_555
C17_2 C19_2 1_555 1_555
O23_2 C29_2 1_555 1_555
C19_2 C21_2 1_555 1_555
C34_2 C35_2 1_555 1_555
C37_2 C38_2 1_555 1_555
O27_2 H36_2 1_555 1_555
O27_2 H37_2 1_555 1_555
O28_2 H38_2 1_555 1_555
O28_2 H39_2 1_555 1_555
C1_2 H1_2 1_555 1_555
Zn38 O38_2 1_555 1_555
O8_2 C27_2 1_555 1_555
O16_2 C30_2 1_555 1_555
O19_2 C24_2 1_555 1_555
C7_2 C3_2 1_555 1_555
C9_2 C7_2 1_555 1_555
H4_2 C9_2 1_555 1_555
O21_2 C24_2 1_555 1_555
O22_2 C31_2 1_555 1_555
C14_2 H6_2 1_555 1_555
C18_2 C3_2 1_555 1_555
O24_2 C30_2 1_555 1_555
C22_2 H9_2 1_555 1_555
C24_2 C28_2 1_555 1_555
O25_2 C31_2 1_555 1_555
C25_2 C23_2 1_555 1_555
C26_2 C22_2 1_555 1_555
C27_2 C18_2 1_555 1_555
C28_2 C9_2 1_555 1_555
C30_2 C26_2 1_555 1_555
C31_2 C25_2 1_555 1_555
C32_2 C25_2 1_555 1_555
H11_2 C32_2 1_555 1_555
O35_2 C41_2 1_555 1_555
C41_2 C42_2 1_555 1_555
Zn42 O21_2 1_555 1_555
Zn14_2 O19_2 1_555 1_555
O49_2 Zn42 1_555 1_555
O60_2 Zn42 1_555 1_555
O63_2 Zn14_2 1_555 1_555
O68_2 C94_2 1_555 1_555
O76_2 C97_2 1_555 1_555
O113_2 C91_2 1_555 1_555
C74_2 C73_2 1_555 1_555
C76_2 C74_2 1_555 1_555
H26_2 C76_2 1_555 1_555
O115_2 C91_2 1_555 1_555
O82_2 Zn14_2 1_555 1_555
C81_2 H28_2 1_555 1_555
C85_2 C73_2 1_555 1_555
O84_2 C97_2 1_555 1_555
C89_2 H31_2 1_555 1_555
C91_2 C95_2 1_555 1_555
O85_2 C98_2 1_555 1_555
C92_2 C90_2 1_555 1_555
C93_2 C89_2 1_555 1_555
C94_2 C85_2 1_555 1_555
C95_2 C76_2 1_555 1_555
C97_2 C93_2 1_555 1_555
C98_2 O82_2 1_555 1_555
C99_2 C92_2 1_555 1_555
H33_2 C99_2 1_555 1_555
Zn25_2 O68_2 1_555 1_555
Zn26_2 O8_2 1_555 1_555
Zn36_2 O16_2 1_555 1_555
Zn38_2 O76_2 1_555 1_555
Zn41_2 O24_2 1_555 1_555
Zn43_2 O84_2 1_555 1_555
Zn47_2 O22_2 1_555 1_555
C14_2 C18_2 1_555 1_555
C14_2 C28_2 1_555 1_555
C26_2 C32_2 1_555 1_555
O35_2 Zn42 1_555 1_555
Zn42 O51_2 1_555 1_555
Zn14_2 O51_2 1_555 1_555
C81_2 C85_2 1_555 1_555
C81_2 C95_2 1_555 1_555
C92_2 C98_2 1_555 1_555
C93_2 C99_2 1_555 1_555
O30_2 H44_2 1_555 1_555
O30_2 H45_2 1_555 1_555
O90_2 H68_2 1_555 1_555
O90_2 H69_2 1_555 1_555
H15_2 C43_2 1_555 1_555
O37_2 C44_2 1_555 1_555
C44_2 C45_2 1_555 1_555
Zn25 O39_2 1_555 1_555
Zn30 O39_2 1_555 1_555
Zn33 O39_2 1_555 1_555
Zn11_2 O39_2 1_555 1_555
Zn37 O36_2 1_555 1_555
O41_2 Zn30 1_555 1_555
O42_2 C67_2 1_555 1_555
C46_2 H16_2 1_555 1_555
O43_2 C55_2 1_555 1_555
O44_2 Zn25 1_555 1_555
O45_2 Zn11_2 1_555 1_555
O46_2 Zn37 1_555 1_555
O47_2 C55_2 1_555 1_555
O48_2 Zn11_2 1_555 1_555
O50_2 C70_2 1_555 1_555
O52_2 C67_2 1_555 1_555
O53_2 C64_2 1_555 1_555
C47_2 C46_2 1_555 1_555
C48_2 C51_2 1_555 1_555
C49_2 C47_2 1_555 1_555
H17_2 C49_2 1_555 1_555
C50_2 C51_2 1_555 1_555
O54_2 Zn33 1_555 1_555
C51_2 H18_2 1_555 1_555
O55_2 C64_2 1_555 1_555
C52_2 C62_2 1_555 1_555
O117_2 C71_2 1_555 1_555
C53_2 O44_2 1_555 1_555
C54_2 H19_2 1_555 1_555
C55_2 C50_2 1_555 1_555
C56_2 C50_2 1_555 1_555
H20_2 C56_2 1_555 1_555
C57_2 C48_2 1_555 1_555
H21_2 C57_2 1_555 1_555
C58_2 C46_2 1_555 1_555
O57_2 Zn11_2 1_555 1_555
O58_2 C70_2 1_555 1_555
C59_2 C56_2 1_555 1_555
C60_2 O48_2 1_555 1_555
C61_2 O40_2 1_555 1_555
C62_2 H22_2 1_555 1_555
C63_2 C52_2 1_555 1_555
H23_2 C63_2 1_555 1_555
C64_2 C68_2 1_555 1_555
O59_2 C71_2 1_555 1_555
C65_2 C63_2 1_555 1_555
C66_2 C62_2 1_555 1_555
C67_2 C58_2 1_555 1_555
C68_2 C49_2 1_555 1_555
C69_2 O41_2 1_555 1_555
C70_2 C66_2 1_555 1_555
C71_2 C65_2 1_555 1_555
C72_2 C65_2 1_555 1_555
H24_2 C72_2 1_555 1_555
O61_2 Zn11_2 1_555 1_555
O62_2 Zn11_2 1_555 1_555
O64_2 Zn33 1_555 1_555
Zn26 O65_2 1_555 1_555
Zn31 O65_2 1_555 1_555
Zn34 O65_2 1_555 1_555
Zn18_2 O65_2 1_555 1_555
Zn38 O72_2 1_555 1_555
O66_2 C88_2 1_555 1_555
O67_2 Zn31 1_555 1_555
O69_2 C82_2 1_555 1_555
O70_2 Zn26 1_555 1_555
O71_2 Zn18_2 1_555 1_555
O72_2 C88_2 1_555 1_555
O73_2 C82_2 1_555 1_555
O74_2 Zn18_2 1_555 1_555
C75_2 C78_2 1_555 1_555
C77_2 C78_2 1_555 1_555
C78_2 H27_2 1_555 1_555
C80_2 O70_2 1_555 1_555
C82_2 C77_2 1_555 1_555
C83_2 C77_2 1_555 1_555
H29_2 C83_2 1_555 1_555
C84_2 C75_2 1_555 1_555
H30_2 C84_2 1_555 1_555
O83_2 Zn18_2 1_555 1_555
C86_2 C83_2 1_555 1_555
C87_2 O74_2 1_555 1_555
C88_2 C86_2 1_555 1_555
C96_2 O67_2 1_555 1_555
O87_2 Zn18_2 1_555 1_555
O88_2 Zn18_2 1_555 1_555
Zn24_2 O42_2 1_555 1_555
Zn29_2 O43_2 1_555 1_555
Zn30_2 O69_2 1_555 1_555
Zn32_2 O47_2 1_555 1_555
Zn33_2 O73_2 1_555 1_555
Zn37_2 O50_2 1_555 1_555
Zn43 O37_2 1_555 1_555
Zn42_2 O58_2 1_555 1_555
Zn47_2 O53_2 1_555 1_555
C43_2 C45_2 1_555 1_555
O45_2 C53_2 1_555 1_555
O46_2 C61_2 1_555 1_555
O52_2 Zn32_2 1_555 1_555
C47_2 C60_2 1_555 1_555
C48_2 C53_2 1_555 1_555
O54_2 C60_2 1_555 1_555
O55_2 Zn43 1_555 1_555
C52_2 C69_2 1_555 1_555
C54_2 C58_2 1_555 1_555
C54_2 C68_2 1_555 1_555
C57_2 C59_2 1_555 1_555
O57_2 C69_2 1_555 1_555
C59_2 C61_2 1_555 1_555
C66_2 C72_2 1_555 1_555
O71_2 C80_2 1_555 1_555
O78_2 Zn33_2 1_555 1_555
C75_2 C80_2 1_555 1_555
C79_2 C96_2 1_555 1_555
C84_2 C86_2 1_555 1_555
O83_2 C96_2 1_555 1_555
O64_2 H48_2 1_555 1_555
O64_2 H49_2 1_555 1_555
O61_2 H52_2 1_555 1_555
O61_2 H53_2 1_555 1_555
O62_2 H54_2 1_555 1_555
O62_2 H55_2 1_555 1_555
O87_2 H62_2 1_555 1_555
O87_2 H63_2 1_555 1_555
O88_2 H64_2 1_555 1_555
O88_2 H65_2 1_555 1_555
Zn43 O75_2 1_555 1_555
O86_2 Zn43 1_555 1_555
O89_2 Zn47_2 1_555 1_555
Zn43 O77_2 1_555 1_555
Zn47_2 O77_2 1_555 1_555
C34_3 H12_3 1_555 1_555
O33_3 C39_3 1_555 1_555
C38_3 C34_3 1_555 1_555
C39_3 C38_3 1_555 1_555
Zn25_2 O32_3 1_555 1_555
Zn31_2 O33_3 1_555 1_555
O31_3 C36_3 1_555 1_555
C36_3 C35_3 1_555 1_555
Zn30_2 O31_3 1_555 1_555
O22_3 C31_3 1_555 1_555
O25_3 C31_3 1_555 1_555
H13_3 C37_3 1_555 1_555
Zn26_2 O34_3 1_555 1_555
Zn47_3 O22_3 1_555 1_555
Zn24_2 O1_3 1_555 1_555
Zn29_2 O1_3 1_555 1_555
Zn32_2 O1_3 1_555 1_555
Zn4_3 O1_3 1_555 1_555
Zn36_2 O7_3 1_555 1_555
Zn41_2 O6_3 1_555 1_555
Zn7_3 O4_3 1_555 1_555
O2_3 Zn29_2 1_555 1_555
O3_3 Zn24_2 1_555 1_555
O4_3 C21_3 1_555 1_555
C1_3 H1_3 1_555 1_555
O5_3 Zn29_2 1_555 1_555
C2_3 H2_3 1_555 1_555
O6_3 C6_3 1_555 1_555
O7_3 C6_3 1_555 1_555
O97 C27_3 1_555 1_555
C3_3 H3_3 1_555 1_555
O100 C15_3 1_555 1_555
C4_3 C2_3 1_555 1_555
O10_3 Zn24_2 1_555 1_555
C5_3 O2_3 1_555 1_555
C6_3 C33_3 1_555 1_555
O11_3 Zn4_3 1_555 1_555
O12_3 Zn36_2 1_555 1_555
O103 C15_3 1_555 1_555
O14_3 Zn4_3 1_555 1_555
O15_3 Zn41_2 1_555 1_555
O106 C30_3 1_555 1_555
O17_3 Zn36_2 1_555 1_555
O109 C27_3 1_555 1_555
O19_3 C24_3 1_555 1_555
C7_3 C3_3 1_555 1_555
C8_3 C11_3 1_555 1_555
C9_3 C7_3 1_555 1_555
H4_3 C9_3 1_555 1_555
C10_3 C11_3 1_555 1_555
O20_3 Zn32_2 1_555 1_555
C11_3 H5_3 1_555 1_555
O21_3 C24_3 1_555 1_555
C12_3 C22_3 1_555 1_555
C13_3 O10_3 1_555 1_555
C14_3 H6_3 1_555 1_555
C15_3 C10_3 1_555 1_555
C16_3 C10_3 1_555 1_555
H7_3 C16_3 1_555 1_555
C17_3 C8_3 1_555 1_555
H8_3 C17_3 1_555 1_555
C18_3 C3_3 1_555 1_555
O23_3 Zn4_3 1_555 1_555
O118 C30_3 1_555 1_555
C19_3 C16_3 1_555 1_555
C20_3 O14_3 1_555 1_555
C21_3 O12_3 1_555 1_555
C22_3 H9_3 1_555 1_555
C23_3 C12_3 1_555 1_555
H10_3 C23_3 1_555 1_555
C24_3 C28_3 1_555 1_555
C25_3 C23_3 1_555 1_555
C26_3 C22_3 1_555 1_555
C27_3 C18_3 1_555 1_555
C28_3 C9_3 1_555 1_555
O26_3 Zn41_2 1_555 1_555
C29_3 O5_3 1_555 1_555
C30_3 C26_3 1_555 1_555
C32_3 C25_3 1_555 1_555
H11_3 C32_3 1_555 1_555
O27_3 Zn4_3 1_555 1_555
O28_3 Zn4_3 1_555 1_555
O29_3 Zn7_3 1_555 1_555
O30_3 Zn32_2 1_555 1_555
C33_3 C1_3 1_555 1_555
C40_3 C33_3 1_555 1_555
H14_3 C40_3 1_555 1_555
O35_3 C41_3 1_555 1_555
O36_3 C41_3 1_555 1_555
C41_3 C42_3 1_555 1_555
C42_3 C40_3 1_555 1_555
C43_3 C42_3 1_555 1_555
H15_3 C43_3 1_555 1_555
O37_3 C44_3 1_555 1_555
O38_3 C44_3 1_555 1_555
C44_3 C45_3 1_555 1_555
C45_3 C1_3 1_555 1_555
Zn37_2 O36_3 1_555 1_555
Zn42_2 O21_3 1_555 1_555
Zn14_3 O19_3 1_555 1_555
O40_3 Zn14_3 1_555 1_555
O98 C67_3 1_555 1_555
C46_3 H16_3 1_555 1_555
O101 C55_3 1_555 1_555
O44_3 Zn25_2 1_555 1_555
O46_3 Zn37_2 1_555 1_555
O104 C55_3 1_555 1_555
O49_3 Zn42_2 1_555 1_555
O51_3 Zn37_2 1_555 1_555
O110 C67_3 1_555 1_555
O53_3 C64_3 1_555 1_555
C47_3 C46_3 1_555 1_555
C48_3 C51_3 1_555 1_555
C49_3 C47_3 1_555 1_555
H17_3 C49_3 1_555 1_555
C50_3 C51_3 1_555 1_555
C51_3 H18_3 1_555 1_555
O55_3 C64_3 1_555 1_555
C53_3 O44_3 1_555 1_555
C54_3 H19_3 1_555 1_555
C55_3 C50_3 1_555 1_555
C56_3 C50_3 1_555 1_555
H20_3 C56_3 1_555 1_555
C57_3 C48_3 1_555 1_555
H21_3 C57_3 1_555 1_555
C58_3 C46_3 1_555 1_555
C59_3 C56_3 1_555 1_555
C61_3 O40_3 1_555 1_555
C64_3 C68_3 1_555 1_555
C67_3 C58_3 1_555 1_555
C68_3 C49_3 1_555 1_555
O60_3 Zn42_2 1_555 1_555
O63_3 Zn14_3 1_555 1_555
Zn31_2 O65_3 1_555 1_555
Zn34_2 O65_3 1_555 1_555
Zn18_3 O65_3 1_555 1_555
O67_3 Zn31_2 1_555 1_555
O74_3 Zn18_3 1_555 1_555
O108 C97_3 1_555 1_555
O80_3 Zn34_2 1_555 1_555
C79_3 C89_3 1_555 1_555
O82_3 Zn14_3 1_555 1_555
O83_3 Zn18_3 1_555 1_555
O120 C97_3 1_555 1_555
C87_3 O74_3 1_555 1_555
C89_3 H31_3 1_555 1_555
C90_3 C79_3 1_555 1_555
H32_3 C90_3 1_555 1_555
O85_3 C98_3 1_555 1_555
C92_3 C90_3 1_555 1_555
C93_3 C89_3 1_555 1_555
C96_3 O67_3 1_555 1_555
C97_3 C93_3 1_555 1_555
C98_3 O82_3 1_555 1_555
C99_3 C92_3 1_555 1_555
H33_3 C99_3 1_555 1_555
O87_3 Zn18_3 1_555 1_555
O88_3 Zn18_3 1_555 1_555
O90_3 Zn34_2 1_555 1_555
Zn38_2 O38_3 1_555 1_555
Zn43_2 O37_3 1_555 1_555
Zn47_3 O53_3 1_555 1_555
O113_3 Zn7_3 1_555 1_555
O115_3 Zn41_2 1_555 1_555
O117_3 Zn7_3 1_555 1_555
Zn41_2 O17_3 1_555 1_555
Zn7_3 O17_3 1_555 1_555
O3_3 C5_3 1_555 1_555
C4_3 C5_3 1_555 1_555
O11_3 C13_3 1_555 1_555
C7_3 C20_3 1_555 1_555
C8_3 C13_3 1_555 1_555
O20_3 C20_3 1_555 1_555
C12_3 C29_3 1_555 1_555
C14_3 C18_3 1_555 1_555
C14_3 C28_3 1_555 1_555
C17_3 C19_3 1_555 1_555
O23_3 C29_3 1_555 1_555
C19_3 C21_3 1_555 1_555
C26_3 C32_3 1_555 1_555
O35_3 Zn42_2 1_555 1_555
C43_3 C45_3 1_555 1_555
Zn42_2 O51_3 1_555 1_555
Zn14_3 O51_3 1_555 1_555
O45_3 C53_3 1_555 1_555
O46_3 C61_3 1_555 1_555
C48_3 C53_3 1_555 1_555
O55_3 Zn43_2 1_555 1_555
C54_3 C58_3 1_555 1_555
C54_3 C68_3 1_555 1_555
C57_3 C59_3 1_555 1_555
C59_3 C61_3 1_555 1_555
O80_3 C87_3 1_555 1_555
C79_3 C96_3 1_555 1_555
O83_3 C96_3 1_555 1_555
C92_3 C98_3 1_555 1_555
C93_3 C99_3 1_555 1_555
O27_3 H36_3 1_555 1_555
O27_3 H37_3 1_555 1_555
O28_3 H38_3 1_555 1_555
O28_3 H39_3 1_555 1_555
O30_3 H44_3 1_555 1_555
O30_3 H45_3 1_555 1_555
O87_3 H62_3 1_555 1_555
O87_3 H63_3 1_555 1_555
O88_3 H64_3 1_555 1_555
O88_3 H65_3 1_555 1_555
O90_3 H68_3 1_555 1_555
O90_3 H69_3 1_555 1_555
Zn30_2 O39_3 1_555 1_555
Zn33_2 O39_3 1_555 1_555
Zn11_3 O39_3 1_555 1_555
O41_3 Zn30_2 1_555 1_555
O48_3 Zn11_3 1_555 1_555
O107 C70_3 1_555 1_555
O54_3 Zn33_2 1_555 1_555
C52_3 C62_3 1_555 1_555
O57_3 Zn11_3 1_555 1_555
O119 C70_3 1_555 1_555
C60_3 O48_3 1_555 1_555
C62_3 H22_3 1_555 1_555
C63_3 C52_3 1_555 1_555
H23_3 C63_3 1_555 1_555
C65_3 C63_3 1_555 1_555
C66_3 C62_3 1_555 1_555
C69_3 O41_3 1_555 1_555
C70_3 C66_3 1_555 1_555
C72_3 C65_3 1_555 1_555
H24_3 C72_3 1_555 1_555
O61_3 Zn11_3 1_555 1_555
O62_3 Zn11_3 1_555 1_555
O64_3 Zn33_2 1_555 1_555
O54_3 C60_3 1_555 1_555
C52_3 C69_3 1_555 1_555
O57_3 C69_3 1_555 1_555
C66_3 C72_3 1_555 1_555
O64_3 H48_3 1_555 1_555
O64_3 H49_3 1_555 1_555
O61_3 H52_3 1_555 1_555
O61_3 H53_3 1_555 1_555
O62_3 H54_3 1_555 1_555
O62_3 H55_3 1_555 1_555
Zn38_2 O72_3 1_555 1_555
Zn43_2 O75_3 1_555 1_555
Zn47_3 O66_3 1_555 1_555
O66_3 C88_3 1_555 1_555
O99 C94_3 1_555 1_555
C73_3 H25_3 1_555 1_555
O102 C82_3 1_555 1_555
O70_3 Zn26_2 1_555 1_555
O72_3 C88_3 1_555 1_555
O105 C82_3 1_555 1_555
O77_3 Zn38_2 1_555 1_555
O111 C94_3 1_555 1_555
O113_3 C91_3 1_555 1_555
C74_3 C73_3 1_555 1_555
C75_3 C78_3 1_555 1_555
C76_3 C74_3 1_555 1_555
H26_3 C76_3 1_555 1_555
C77_3 C78_3 1_555 1_555
C78_3 H27_3 1_555 1_555
O115_3 C91_3 1_555 1_555
C80_3 O70_3 1_555 1_555
C81_3 H28_3 1_555 1_555
C82_3 C77_3 1_555 1_555
C83_3 C77_3 1_555 1_555
H29_3 C83_3 1_555 1_555
C84_3 C75_3 1_555 1_555
H30_3 C84_3 1_555 1_555
C85_3 C73_3 1_555 1_555
C86_3 C83_3 1_555 1_555
C88_3 C86_3 1_555 1_555
C91_3 C95_3 1_555 1_555
C94_3 C85_3 1_555 1_555
C95_3 C76_3 1_555 1_555
O86_3 Zn43_2 1_555 1_555
O89_3 Zn47_3 1_555 1_555
Zn43_2 O77_3 1_555 1_555
Zn47_3 O77_3 1_555 1_555
O71_3 C80_3 1_555 1_555
C75_3 C80_3 1_555 1_555
C81_3 C85_3 1_555 1_555
C81_3 C95_3 1_555 1_555
C84_3 C86_3 1_555 1_555
O117_3 C71_3 1_555 1_555
O59_3 C71_3 1_555 1_555

#END
