
###############################################################################
#
# This file contains modified crystal structure data generated from the
# MOF subset of the Cambridge Structural Database (CSD) v543 
# hosted by the Cambridge Crystallographic Data Centre (CCDC).
#
# This work is licensed under the Creative Commons
# Attribution-NonCommercial-ShareAlike 4.0 International License.
# To view a copy of this license, visit
# http://creativecommons.org/licenses/by-nc-sa/4.0/
# or send a letter to
# Creative Commons, PO Box 1866, Mountain View, CA 94042, USA.
#
# CIF created using the CSD Python API on 29 September 2022
# The structure has been converted into the P1 space group
# The structure has a 3D framework
# The original CSD entry BERGAI is in the tetragonal crystal system
# The framework has been calculated to contain at least 10.0% void space
# The void calculation uses a probe of radius 1.32A, grid spacing 0.4
#
###############################################################################

data_BERGAI
_chemical_formula_moiety         '(C96 H80 N60 O32 Zn16)n'
_symmetry_cell_setting           triclinic
_symmetry_space_group_name_H-M   'P 1'
_symmetry_Int_Tables_number      1
_space_group_name_Hall           'P 1'
loop_
_symmetry_equiv_pos_site_id
_symmetry_equiv_pos_as_xyz
1 x,y,z
_cell_length_a                   12.700(3)
_cell_length_b                   12.700(3)
_cell_length_c                   25.364(5)
_cell_angle_alpha                90
_cell_angle_beta                 90
_cell_angle_gamma                90
_cell_volume                     4090.96
loop_
_atom_site_label
_atom_site_type_symbol
_atom_site_fract_x
_atom_site_fract_y
_atom_site_fract_z
N9 N 0.0974(2) 0.0016(4) 0.55140(15)
C1 C 0.1904(3) 0.0046(4) 0.58245(12)
N4 N 0.1959(5) 0.0299(7) 0.6302(2)
H4 H 0.2560 0.0323 0.6457
H5 H 0.1395 0.0449 0.6474
Zn3 Zn 0.03855(6) 0.93074(6) 0.43753(3)
N7 N 0.7767(2) 0.0220(4) 0.04945(16)
Zn6 Zn 0.93074(6) 0.03855(6) 0.06247(3)
N2 N 0.8738(3) 0.0268(4) 0.50079(13)
C2 C 0.7630(3) 0.0414(4) 0.50199(14)
H1 H 0.7233 0.0603 0.5313
N3 N 0.7233(2) 0.0220(4) 0.45055(16)
Zn1 Zn 0.96145(6) 0.06926(6) 0.56247(3)
O1 O 0.8536(5) 0.0505(6) 0.6162(2)
C3 C 0.8180(7) 0.0694(7) 0.7073(3)
O2 O 0.9875(5) 0.0881(5) 0.6671(3)
C4 C 0.8563(7) 0.0709(9) 0.7572(4)
H2 H 0.9287 0.0730 0.7626
C5 C 0.7890(8) 0.0693(10) 0.8004(3)
H3 H 0.8164 0.0683 0.8344
C6 C 0.8925(8) 0.0689(7) 0.6612(4)
O3 O 0.6464(5) 0.0505(6) 0.8838(2)
C7 C 0.6820(7) 0.0694(7) 0.7927(3)
O4 O 0.5125(5) 0.0881(5) 0.8329(3)
C8 C 0.6437(7) 0.0709(9) 0.7428(4)
H6 H 0.5713 0.0730 0.7374
C9 C 0.7110(8) 0.0693(10) 0.6996(3)
H7 H 0.6836 0.0683 0.6656
C10 C 0.6075(8) 0.0689(7) 0.8388(4)
N6 N 0.6262(3) 0.0268(4) 0.99921(13)
C12 C 0.7370(3) 0.0414(4) 0.99801(14)
H8 H 0.7767 0.0603 0.9687
Zn2 Zn 0.53855(6) 0.06926(6) 0.93753(3)
N10 N 0.4026(2) 0.0016(4) 0.94860(15)
N11 N 0.9780(4) 0.2233(2) 0.54945(16)
N12 N 0.5220(4) 0.2233(2) 0.95055(16)
Zn4 Zn 0.56926(6) 0.03855(6) 0.43753(3)
C11 C 0.6904(3) 0.9954(4) 0.08245(12)
N5 N 0.5974(2) 0.9984(4) 0.05140(15)
N8 N 0.6959(5) 0.9701(7) 0.1302(2)
H9 H 0.7560 0.9677 0.1457
H10 H 0.6395 0.9551 0.1474
Zn5 Zn 0.46145(6) 0.93074(6) 0.06247(3)
Zn5_2 Zn 0.03855(6) 0.56926(6) 0.06247(3)
N10_2 N 0.0974(2) 0.4984(4) 0.94860(15)
C11_2 C 0.8096(3) 0.5046(4) 0.08245(12)
N5_2 N 0.9026(2) 0.5016(4) 0.05140(15)
N7_2 N 0.7233(2) 0.4780(4) 0.04945(16)
N8_2 N 0.8041(5) 0.5299(7) 0.1302(2)
H9_2 H 0.7440 0.5323 0.1457
H10_2 H 0.8605 0.5449 0.1474
Zn6_2 Zn 0.56926(6) 0.46145(6) 0.06247(3)
C1_2 C 0.6904(3) 0.5046(4) 0.41755(12)
N1 N 0.5974(2) 0.5016(4) 0.44860(15)
N2_2 N 0.6262(3) 0.4732(4) 0.50079(13)
C2_2 C 0.7370(3) 0.4586(4) 0.50199(14)
H1_2 H 0.7767 0.4397 0.5313
N3_2 N 0.7767(2) 0.4780(4) 0.45055(16)
Zn1_2 Zn 0.53855(6) 0.43074(6) 0.56247(3)
O1_2 O 0.6464(5) 0.4495(6) 0.6162(2)
C3_2 C 0.6820(7) 0.4306(7) 0.7073(3)
O2_2 O 0.5125(5) 0.4119(5) 0.6671(3)
C4_2 C 0.6437(7) 0.4291(9) 0.7572(4)
H2_2 H 0.5713 0.4270 0.7626
C5_2 C 0.7110(8) 0.4307(10) 0.8004(3)
H3_2 H 0.6836 0.4317 0.8344
N4_2 N 0.6959(5) 0.5299(7) 0.3698(2)
H4_2 H 0.7560 0.5323 0.3543
H5_2 H 0.6395 0.5449 0.3526
C6_2 C 0.6075(8) 0.4311(7) 0.6612(4)
O3_2 O 0.8536(5) 0.4495(6) 0.8838(2)
C7_2 C 0.8180(7) 0.4306(7) 0.7927(3)
O4_2 O 0.9875(5) 0.4119(5) 0.8329(3)
C8_2 C 0.8563(7) 0.4291(9) 0.7428(4)
H6_2 H 0.9287 0.4270 0.7374
C9_2 C 0.7890(8) 0.4307(10) 0.6996(3)
H7_2 H 0.8164 0.4317 0.6656
C10_2 C 0.8925(8) 0.4311(7) 0.8388(4)
N6_2 N 0.8738(3) 0.4732(4) 0.99921(13)
C12_2 C 0.7630(3) 0.4586(4) 0.99801(14)
H8_2 H 0.7233 0.4397 0.9687
Zn2_2 Zn 0.96145(6) 0.43074(6) 0.93753(3)
N9_2 N 0.4026(2) 0.4984(4) 0.55140(15)
N11_2 N 0.5220(4) 0.2767(2) 0.54945(16)
N12_2 N 0.9780(4) 0.2767(2) 0.95055(16)
Zn3_2 Zn 0.46145(6) 0.56926(6) 0.43753(3)
Zn4_2 Zn 0.93074(6) 0.46145(6) 0.43753(3)
N9_3 N 0.4984(4) 0.0974(2) 0.55140(15)
C11_3 C 0.5046(4) 0.6904(3) 0.08245(12)
N5_3 N 0.5016(4) 0.5974(2) 0.05140(15)
N7_3 N 0.4780(4) 0.7767(2) 0.04945(16)
N8_3 N 0.5299(7) 0.6959(5) 0.1302(2)
H9_3 H 0.5323 0.7560 0.1457
H10_3 H 0.5449 0.6395 0.1474
C1_3 C 0.5046(4) 0.8096(3) 0.41755(12)
N1_2 N 0.5016(4) 0.9026(2) 0.44860(15)
N2_3 N 0.4732(4) 0.8738(3) 0.50079(13)
C2_3 C 0.4586(4) 0.7630(3) 0.50199(14)
H1_3 H 0.4397 0.7233 0.5313
N3_3 N 0.4780(4) 0.7233(2) 0.45055(16)
Zn1_3 Zn 0.43074(6) 0.96145(6) 0.56247(3)
O1_3 O 0.4495(6) 0.8536(5) 0.6162(2)
C3_3 C 0.4306(7) 0.8180(7) 0.7073(3)
O2_3 O 0.4119(5) 0.9875(5) 0.6671(3)
C4_3 C 0.4291(9) 0.8563(7) 0.7572(4)
H2_3 H 0.4270 0.9287 0.7626
C5_3 C 0.4307(10) 0.7890(8) 0.8004(3)
H3_3 H 0.4317 0.8164 0.8344
N4_3 N 0.5299(7) 0.8041(5) 0.3698(2)
H4_3 H 0.5323 0.7440 0.3543
H5_3 H 0.5449 0.8605 0.3526
C6_3 C 0.4311(7) 0.8925(8) 0.6612(4)
O3_3 O 0.4495(6) 0.6464(5) 0.8838(2)
C7_3 C 0.4306(7) 0.6820(7) 0.7927(3)
O4_3 O 0.4119(5) 0.5125(5) 0.8329(3)
C8_3 C 0.4291(9) 0.6437(7) 0.7428(4)
H6_3 H 0.4270 0.5713 0.7374
C9_3 C 0.4307(10) 0.7110(8) 0.6996(3)
H7_3 H 0.4317 0.6836 0.6656
C10_3 C 0.4311(7) 0.6075(8) 0.8388(4)
N6_3 N 0.4732(4) 0.6262(3) 0.99921(13)
C12_3 C 0.4586(4) 0.7370(3) 0.99801(14)
H8_3 H 0.4397 0.7767 0.9687
Zn2_3 Zn 0.43074(6) 0.53855(6) 0.93753(3)
N10_3 N 0.4984(4) 0.4026(2) 0.94860(15)
N11_3 N 0.2767(2) 0.9780(4) 0.54945(16)
N12_3 N 0.2767(2) 0.5220(4) 0.95055(16)
N7_4 N 0.0220(4) 0.7233(2) 0.04945(16)
N2_4 N 0.0268(4) 0.6262(3) 0.50079(13)
C2_4 C 0.0414(4) 0.7370(3) 0.50199(14)
H1_4 H 0.0603 0.7767 0.5313
N3_4 N 0.0220(4) 0.7767(2) 0.45055(16)
Zn1_4 Zn 0.06926(6) 0.53855(6) 0.56247(3)
O1_4 O 0.0505(6) 0.6464(5) 0.6162(2)
C3_4 C 0.0694(7) 0.6820(7) 0.7073(3)
O2_4 O 0.0881(5) 0.5125(5) 0.6671(3)
C4_4 C 0.0709(9) 0.6437(7) 0.7572(4)
H2_4 H 0.0730 0.5713 0.7626
C5_4 C 0.0693(10) 0.7110(8) 0.8004(3)
H3_4 H 0.0683 0.6836 0.8344
C6_4 C 0.0689(7) 0.6075(8) 0.6612(4)
O3_4 O 0.0505(6) 0.8536(5) 0.8838(2)
C7_4 C 0.0694(7) 0.8180(7) 0.7927(3)
O4_4 O 0.0881(5) 0.9875(5) 0.8329(3)
C8_4 C 0.0709(9) 0.8563(7) 0.7428(4)
H6_4 H 0.0730 0.9287 0.7374
C9_4 C 0.0693(10) 0.7890(8) 0.6996(3)
H7_4 H 0.0683 0.8164 0.6656
C10_4 C 0.0689(7) 0.8925(8) 0.8388(4)
N6_4 N 0.0268(4) 0.8738(3) 0.99921(13)
C12_4 C 0.0414(4) 0.7630(3) 0.99801(14)
H8_4 H 0.0603 0.7233 0.9687
Zn2_4 Zn 0.06926(6) 0.96145(6) 0.93753(3)
N9_4 N 0.0016(4) 0.4026(2) 0.55140(15)
N11_4 N 0.2233(2) 0.5220(4) 0.54945(16)
N12_4 N 0.2233(2) 0.9780(4) 0.95055(16)
C1_4 C 0.9954(4) 0.6904(3) 0.41755(12)
N1_3 N 0.9984(4) 0.5974(2) 0.44860(15)
N4_4 N 0.9701(7) 0.6959(5) 0.3698(2)
H4_4 H 0.9677 0.7560 0.3543
H5_4 H 0.9551 0.6395 0.3526
C11_4 C 0.3096(3) 0.0046(4) 0.91755(12)
N8_4 N 0.3041(5) 0.0299(7) 0.8698(2)
H9_4 H 0.2440 0.0323 0.8543
H10_4 H 0.3605 0.0449 0.8526
N2_5 N 0.1262(3) 0.9732(4) 0.49921(13)
C2_5 C 0.2370(3) 0.9586(4) 0.49801(14)
H1_5 H 0.2767 0.9397 0.4687
O1_5 O 0.1464(5) 0.9495(6) 0.3838(2)
C3_5 C 0.1820(7) 0.9306(7) 0.2927(3)
O2_5 O 0.0125(5) 0.9119(5) 0.3329(3)
C4_5 C 0.1437(7) 0.9291(9) 0.2428(4)
H2_5 H 0.0713 0.9270 0.2374
C5_5 C 0.2110(8) 0.9307(10) 0.1996(3)
H3_5 H 0.1836 0.9317 0.1656
C6_5 C 0.1075(8) 0.9311(7) 0.3388(4)
O3_5 O 0.3536(5) 0.9495(6) 0.1162(2)
C7_5 C 0.3180(7) 0.9306(7) 0.2073(3)
O4_5 O 0.4875(5) 0.9119(5) 0.1671(3)
C8_5 C 0.3563(7) 0.9291(9) 0.2572(4)
H6_5 H 0.4287 0.9270 0.2626
C9_5 C 0.2890(8) 0.9307(10) 0.3004(3)
H7_5 H 0.3164 0.9317 0.3344
C10_5 C 0.3925(8) 0.9311(7) 0.1612(4)
N6_5 N 0.3738(3) 0.9732(4) 0.00079(13)
C12_5 C 0.2630(3) 0.9586(4) 0.00199(14)
H8_5 H 0.2233 0.9397 0.0313
C1_5 C 0.3096(3) 0.4954(4) 0.58245(12)
N2_6 N 0.3738(3) 0.5268(4) 0.49921(13)
C2_6 C 0.2630(3) 0.5414(4) 0.49801(14)
H1_6 H 0.2233 0.5603 0.4687
O1_6 O 0.3536(5) 0.5505(6) 0.3838(2)
C3_6 C 0.3180(7) 0.5694(7) 0.2927(3)
O2_6 O 0.4875(5) 0.5881(5) 0.3329(3)
C4_6 C 0.3563(7) 0.5709(9) 0.2428(4)
H2_6 H 0.4287 0.5730 0.2374
C5_6 C 0.2890(8) 0.5693(10) 0.1996(3)
H3_6 H 0.3164 0.5683 0.1656
N4_5 N 0.3041(5) 0.4701(7) 0.6302(2)
H4_5 H 0.2440 0.4677 0.6457
H5_5 H 0.3605 0.4551 0.6474
C6_6 C 0.3925(8) 0.5689(7) 0.3388(4)
O3_6 O 0.1464(5) 0.5505(6) 0.1162(2)
C7_6 C 0.1820(7) 0.5694(7) 0.2073(3)
O4_6 O 0.0125(5) 0.5881(5) 0.1671(3)
C8_6 C 0.1437(7) 0.5709(9) 0.2572(4)
H6_6 H 0.0713 0.5730 0.2626
C9_6 C 0.2110(8) 0.5693(10) 0.3004(3)
H7_6 H 0.1836 0.5683 0.3344
C10_6 C 0.1075(8) 0.5689(7) 0.1612(4)
N6_6 N 0.1262(3) 0.5268(4) 0.00079(13)
C12_6 C 0.2370(3) 0.5414(4) 0.00199(14)
H8_6 H 0.2767 0.5603 0.0313
C11_5 C 0.1904(3) 0.4954(4) 0.91755(12)
N8_5 N 0.1959(5) 0.4701(7) 0.8698(2)
H9_5 H 0.2560 0.4677 0.8543
H10_5 H 0.1395 0.4551 0.8526
C1_6 C 0.4954(4) 0.1904(3) 0.58245(12)
N2_7 N 0.5268(4) 0.1262(3) 0.49921(13)
C2_7 C 0.5414(4) 0.2370(3) 0.49801(14)
H1_7 H 0.5603 0.2767 0.4687
O1_7 O 0.5505(6) 0.1464(5) 0.3838(2)
C3_7 C 0.5694(7) 0.1820(7) 0.2927(3)
O2_7 O 0.5881(5) 0.0125(5) 0.3329(3)
C4_7 C 0.5709(9) 0.1437(7) 0.2428(4)
H2_7 H 0.5730 0.0713 0.2374
C5_7 C 0.5693(10) 0.2110(8) 0.1996(3)
H3_7 H 0.5683 0.1836 0.1656
N4_6 N 0.4701(7) 0.1959(5) 0.6302(2)
H4_6 H 0.4677 0.2560 0.6457
H5_6 H 0.4551 0.1395 0.6474
C6_7 C 0.5689(7) 0.1075(8) 0.3388(4)
O3_7 O 0.5505(6) 0.3536(5) 0.1162(2)
C7_7 C 0.5694(7) 0.3180(7) 0.2073(3)
O4_7 O 0.5881(5) 0.4875(5) 0.1671(3)
C8_7 C 0.5709(9) 0.3563(7) 0.2572(4)
H6_7 H 0.5730 0.4287 0.2626
C9_7 C 0.5693(10) 0.2890(8) 0.3004(3)
H7_7 H 0.5683 0.3164 0.3344
C10_7 C 0.5689(7) 0.3925(8) 0.1612(4)
N6_7 N 0.5268(4) 0.3738(3) 0.00079(13)
C12_7 C 0.5414(4) 0.2630(3) 0.00199(14)
H8_7 H 0.5603 0.2233 0.0313
C11_6 C 0.4954(4) 0.3096(3) 0.91755(12)
N8_6 N 0.4701(7) 0.3041(5) 0.8698(2)
H9_6 H 0.4677 0.2440 0.8543
H10_6 H 0.4551 0.3605 0.8526
C1_7 C 0.0046(4) 0.3096(3) 0.58245(12)
N4_7 N 0.0299(7) 0.3041(5) 0.6302(2)
H4_7 H 0.0323 0.2440 0.6457
H5_7 H 0.0449 0.3605 0.6474
N2_8 N 0.9732(4) 0.3738(3) 0.49921(13)
C2_8 C 0.9586(4) 0.2630(3) 0.49801(14)
H1_8 H 0.9397 0.2233 0.4687
O1_8 O 0.9495(6) 0.3536(5) 0.3838(2)
C3_8 C 0.9306(7) 0.3180(7) 0.2927(3)
O2_8 O 0.9119(5) 0.4875(5) 0.3329(3)
C4_8 C 0.9291(9) 0.3563(7) 0.2428(4)
H2_8 H 0.9270 0.4287 0.2374
C5_8 C 0.9307(10) 0.2890(8) 0.1996(3)
H3_8 H 0.9317 0.3164 0.1656
C6_8 C 0.9311(7) 0.3925(8) 0.3388(4)
O3_8 O 0.9495(6) 0.1464(5) 0.1162(2)
C7_8 C 0.9306(7) 0.1820(7) 0.2073(3)
O4_8 O 0.9119(5) 0.0125(5) 0.1671(3)
C8_8 C 0.9291(9) 0.1437(7) 0.2572(4)
H6_8 H 0.9270 0.0713 0.2626
C9_8 C 0.9307(10) 0.2110(8) 0.3004(3)
H7_8 H 0.9317 0.1836 0.3344
C10_8 C 0.9311(7) 0.1075(8) 0.1612(4)
N6_8 N 0.9732(4) 0.1262(3) 0.00079(13)
C12_8 C 0.9586(4) 0.2370(3) 0.00199(14)
H8_8 H 0.9397 0.2767 0.0313
C1_8 C 0.8096(3) 0.9954(4) 0.41755(12)
N1_4 N 0.9026(2) 0.9984(4) 0.44860(15)
N4_8 N 0.8041(5) 0.9701(7) 0.3698(2)
H4_8 H 0.7440 0.9677 0.3543
H5_8 H 0.8605 0.9551 0.3526
N10_4 N 0.0016(4) 0.0974(2) 0.94860(15)
C11_7 C 0.0046(4) 0.1904(3) 0.91755(12)
N8_7 N 0.0299(7) 0.1959(5) 0.8698(2)
H9_7 H 0.0323 0.2560 0.8543
H10_7 H 0.0449 0.1395 0.8526
C11_8 C 0.9954(4) 0.8096(3) 0.08245(12)
N5_4 N 0.9984(4) 0.9026(2) 0.05140(15)
N8_8 N 0.9701(7) 0.8041(5) 0.1302(2)
H9_8 H 0.9677 0.7440 0.1457
H10_8 H 0.9551 0.8605 0.1474
loop_
_geom_bond_atom_site_label_1
_geom_bond_atom_site_label_2
_geom_bond_site_symmetry_1
_geom_bond_site_symmetry_2
C1 N9 1_555 1_555
N4 C1 1_555 1_555
H4 N4 1_555 1_555
H5 N4 1_555 1_555
Zn6 N7 1_555 1_555
N2 C2 1_555 1_555
C2 H1 1_555 1_555
Zn1 N2 1_555 1_555
O1 Zn1 1_555 1_555
C3 C4 1_555 1_555
O2 C6 1_555 1_555
C4 H2 1_555 1_555
C5 C4 1_555 1_555
H3 C5 1_555 1_555
C6 O1 1_555 1_555
O3 C10 1_555 1_555
C7 C5 1_555 1_555
O4 C10 1_555 1_555
C8 C7 1_555 1_555
H6 C8 1_555 1_555
C9 C3 1_555 1_555
H7 C9 1_555 1_555
C10 C7 1_555 1_555
N6 C12 1_555 1_555
C12 H8 1_555 1_555
Zn2 O3 1_555 1_555
N10 Zn2 1_555 1_555
N11 Zn1 1_555 1_555
N12 Zn2 1_555 1_555
Zn4 N3 1_555 1_555
C2 N3 1_555 1_555
C3 C6 1_555 1_555
C8 C9 1_555 1_555
N6 Zn2 1_555 1_555
C11 N5 1_555 1_555
N8 C11 1_555 1_555
H9 N8 1_555 1_555
H10 N8 1_555 1_555
Zn5 N5 1_555 1_555
C11_2 N5_2 1_555 1_555
N7_2 C11_2 1_555 1_555
N8_2 C11_2 1_555 1_555
H9_2 N8_2 1_555 1_555
H10_2 N8_2 1_555 1_555
Zn6_2 N7_2 1_555 1_555
C1_2 N1 1_555 1_555
N1 N2_2 1_555 1_555
N2_2 C2_2 1_555 1_555
C2_2 H1_2 1_555 1_555
N3_2 C1_2 1_555 1_555
Zn1_2 N2_2 1_555 1_555
O1_2 Zn1_2 1_555 1_555
C3_2 C4_2 1_555 1_555
O2_2 C6_2 1_555 1_555
C4_2 H2_2 1_555 1_555
C5_2 C4_2 1_555 1_555
H3_2 C5_2 1_555 1_555
N4_2 C1_2 1_555 1_555
H4_2 N4_2 1_555 1_555
H5_2 N4_2 1_555 1_555
C6_2 O1_2 1_555 1_555
O3_2 C10_2 1_555 1_555
C7_2 C5_2 1_555 1_555
O4_2 C10_2 1_555 1_555
C8_2 C7_2 1_555 1_555
H6_2 C8_2 1_555 1_555
C9_2 C3_2 1_555 1_555
H7_2 C9_2 1_555 1_555
C10_2 C7_2 1_555 1_555
N6_2 C12_2 1_555 1_555
C12_2 H8_2 1_555 1_555
Zn2_2 O3_2 1_555 1_555
N9_2 Zn1_2 1_555 1_555
N11_2 Zn1_2 1_555 1_555
N12_2 Zn2_2 1_555 1_555
Zn3_2 N1 1_555 1_555
Zn4_2 N3_2 1_555 1_555
C2_2 N3_2 1_555 1_555
C3_2 C6_2 1_555 1_555
C8_2 C9_2 1_555 1_555
N6_2 Zn2_2 1_555 1_555
C11_3 N5_3 1_555 1_555
N7_3 C11_3 1_555 1_555
N8_3 C11_3 1_555 1_555
H9_3 N8_3 1_555 1_555
H10_3 N8_3 1_555 1_555
Zn6_2 N5_3 1_555 1_555
Zn5 N7_3 1_555 1_555
C1_3 N1_2 1_555 1_555
N1_2 N2_3 1_555 1_555
N2_3 C2_3 1_555 1_555
C2_3 H1_3 1_555 1_555
N3_3 C1_3 1_555 1_555
Zn1_3 N2_3 1_555 1_555
O1_3 Zn1_3 1_555 1_555
C3_3 C4_3 1_555 1_555
O2_3 C6_3 1_555 1_555
C4_3 H2_3 1_555 1_555
C5_3 C4_3 1_555 1_555
H3_3 C5_3 1_555 1_555
N4_3 C1_3 1_555 1_555
H4_3 N4_3 1_555 1_555
H5_3 N4_3 1_555 1_555
C6_3 O1_3 1_555 1_555
O3_3 C10_3 1_555 1_555
C7_3 C5_3 1_555 1_555
O4_3 C10_3 1_555 1_555
C8_3 C7_3 1_555 1_555
H6_3 C8_3 1_555 1_555
C9_3 C3_3 1_555 1_555
H7_3 C9_3 1_555 1_555
C10_3 C7_3 1_555 1_555
N6_3 C12_3 1_555 1_555
C12_3 H8_3 1_555 1_555
Zn2_3 O3_3 1_555 1_555
N10_3 Zn2_3 1_555 1_555
N11_3 Zn1_3 1_555 1_555
N12_3 Zn2_3 1_555 1_555
Zn3_2 N3_3 1_555 1_555
C2_3 N3_3 1_555 1_555
C3_3 C6_3 1_555 1_555
C8_3 C9_3 1_555 1_555
N6_3 Zn2_3 1_555 1_555
Zn5_2 N7_4 1_555 1_555
N2_4 C2_4 1_555 1_555
C2_4 H1_4 1_555 1_555
Zn1_4 N2_4 1_555 1_555
O1_4 Zn1_4 1_555 1_555
C3_4 C4_4 1_555 1_555
O2_4 C6_4 1_555 1_555
C4_4 H2_4 1_555 1_555
C5_4 C4_4 1_555 1_555
H3_4 C5_4 1_555 1_555
C6_4 O1_4 1_555 1_555
O3_4 C10_4 1_555 1_555
C7_4 C5_4 1_555 1_555
O4_4 C10_4 1_555 1_555
C8_4 C7_4 1_555 1_555
H6_4 C8_4 1_555 1_555
C9_4 C3_4 1_555 1_555
H7_4 C9_4 1_555 1_555
C10_4 C7_4 1_555 1_555
N6_4 C12_4 1_555 1_555
C12_4 H8_4 1_555 1_555
Zn2_4 O3_4 1_555 1_555
N9_4 Zn1_4 1_555 1_555
N11_4 Zn1_4 1_555 1_555
N12_4 Zn2_4 1_555 1_555
Zn3 N3_4 1_555 1_555
C2_4 N3_4 1_555 1_555
C3_4 C6_4 1_555 1_555
C8_4 C9_4 1_555 1_555
N6_4 Zn2_4 1_555 1_555
C1_4 N1_3 1_555 1_555
N4_4 C1_4 1_555 1_555
H4_4 N4_4 1_555 1_555
H5_4 N4_4 1_555 1_555
Zn4_2 N1_3 1_555 1_555
C11_4 N10 1_555 1_555
N8_4 C11_4 1_555 1_555
H9_4 N8_4 1_555 1_555
H10_4 N8_4 1_555 1_555
N2_5 C2_5 1_555 1_555
C2_5 H1_5 1_555 1_555
Zn3 N2_5 1_555 1_555
O1_5 Zn3 1_555 1_555
C3_5 C4_5 1_555 1_555
O2_5 C6_5 1_555 1_555
C4_5 H2_5 1_555 1_555
C5_5 C4_5 1_555 1_555
H3_5 C5_5 1_555 1_555
C6_5 O1_5 1_555 1_555
O3_5 C10_5 1_555 1_555
C7_5 C5_5 1_555 1_555
O4_5 C10_5 1_555 1_555
C8_5 C7_5 1_555 1_555
H6_5 C8_5 1_555 1_555
C9_5 C3_5 1_555 1_555
H7_5 C9_5 1_555 1_555
C10_5 C7_5 1_555 1_555
N6_5 C12_5 1_555 1_555
C12_5 H8_5 1_555 1_555
Zn5 O3_5 1_555 1_555
C2_5 N11_3 1_555 1_555
C3_5 C6_5 1_555 1_555
C8_5 C9_5 1_555 1_555
N6_5 Zn5 1_555 1_555
C1_5 N9_2 1_555 1_555
N9_2 N2_6 1_555 1_555
N2_6 C2_6 1_555 1_555
C2_6 H1_6 1_555 1_555
N11_4 C1_5 1_555 1_555
Zn3_2 N2_6 1_555 1_555
O1_6 Zn3_2 1_555 1_555
C3_6 C4_6 1_555 1_555
O2_6 C6_6 1_555 1_555
C4_6 H2_6 1_555 1_555
C5_6 C4_6 1_555 1_555
H3_6 C5_6 1_555 1_555
N4_5 C1_5 1_555 1_555
H4_5 N4_5 1_555 1_555
H5_5 N4_5 1_555 1_555
C6_6 O1_6 1_555 1_555
O3_6 C10_6 1_555 1_555
C7_6 C5_6 1_555 1_555
O4_6 C10_6 1_555 1_555
C8_6 C7_6 1_555 1_555
H6_6 C8_6 1_555 1_555
C9_6 C3_6 1_555 1_555
H7_6 C9_6 1_555 1_555
C10_6 C7_6 1_555 1_555
N6_6 C12_6 1_555 1_555
C12_6 H8_6 1_555 1_555
Zn5_2 O3_6 1_555 1_555
C2_6 N11_4 1_555 1_555
C3_6 C6_6 1_555 1_555
C8_6 C9_6 1_555 1_555
N6_6 Zn5_2 1_555 1_555
C11_5 N10_2 1_555 1_555
N12_3 C11_5 1_555 1_555
N8_5 C11_5 1_555 1_555
H9_5 N8_5 1_555 1_555
H10_5 N8_5 1_555 1_555
C1_6 N9_3 1_555 1_555
N9_3 N2_7 1_555 1_555
N2_7 C2_7 1_555 1_555
C2_7 H1_7 1_555 1_555
N11_2 C1_6 1_555 1_555
Zn4 N2_7 1_555 1_555
O1_7 Zn4 1_555 1_555
C3_7 C4_7 1_555 1_555
O2_7 C6_7 1_555 1_555
C4_7 H2_7 1_555 1_555
C5_7 C4_7 1_555 1_555
H3_7 C5_7 1_555 1_555
N4_6 C1_6 1_555 1_555
H4_6 N4_6 1_555 1_555
H5_6 N4_6 1_555 1_555
C6_7 O1_7 1_555 1_555
O3_7 C10_7 1_555 1_555
C7_7 C5_7 1_555 1_555
O4_7 C10_7 1_555 1_555
C8_7 C7_7 1_555 1_555
H6_7 C8_7 1_555 1_555
C9_7 C3_7 1_555 1_555
H7_7 C9_7 1_555 1_555
C10_7 C7_7 1_555 1_555
N6_7 C12_7 1_555 1_555
C12_7 H8_7 1_555 1_555
Zn6_2 O3_7 1_555 1_555
C2_7 N11_2 1_555 1_555
C3_7 C6_7 1_555 1_555
C8_7 C9_7 1_555 1_555
N6_7 Zn6_2 1_555 1_555
C11_6 N10_3 1_555 1_555
N12 C11_6 1_555 1_555
N8_6 C11_6 1_555 1_555
H9_6 N8_6 1_555 1_555
H10_6 N8_6 1_555 1_555
C1_7 N9_4 1_555 1_555
N4_7 C1_7 1_555 1_555
H4_7 N4_7 1_555 1_555
H5_7 N4_7 1_555 1_555
N2_8 C2_8 1_555 1_555
C2_8 H1_8 1_555 1_555
Zn4_2 N2_8 1_555 1_555
O1_8 Zn4_2 1_555 1_555
C3_8 C4_8 1_555 1_555
O2_8 C6_8 1_555 1_555
C4_8 H2_8 1_555 1_555
C5_8 C4_8 1_555 1_555
H3_8 C5_8 1_555 1_555
C6_8 O1_8 1_555 1_555
O3_8 C10_8 1_555 1_555
C7_8 C5_8 1_555 1_555
O4_8 C10_8 1_555 1_555
C8_8 C7_8 1_555 1_555
H6_8 C8_8 1_555 1_555
C9_8 C3_8 1_555 1_555
H7_8 C9_8 1_555 1_555
C10_8 C7_8 1_555 1_555
N6_8 C12_8 1_555 1_555
C12_8 H8_8 1_555 1_555
Zn6 O3_8 1_555 1_555
C2_8 N11 1_555 1_555
C3_8 C6_8 1_555 1_555
C8_8 C9_8 1_555 1_555
N6_8 Zn6 1_555 1_555
C1_8 N1_4 1_555 1_555
N4_8 C1_8 1_555 1_555
H4_8 N4_8 1_555 1_555
H5_8 N4_8 1_555 1_555
C11_7 N10_4 1_555 1_555
N8_7 C11_7 1_555 1_555
H9_7 N8_7 1_555 1_555
H10_7 N8_7 1_555 1_555
C11_8 N5_4 1_555 1_555
N8_8 C11_8 1_555 1_555
H9_8 N8_8 1_555 1_555
H10_8 N8_8 1_555 1_555

#END
