
###############################################################################
#
# This file contains modified crystal structure data generated from the
# MOF subset of the Cambridge Structural Database (CSD) v543 
# hosted by the Cambridge Crystallographic Data Centre (CCDC).
#
# This work is licensed under the Creative Commons
# Attribution-NonCommercial-ShareAlike 4.0 International License.
# To view a copy of this license, visit
# http://creativecommons.org/licenses/by-nc-sa/4.0/
# or send a letter to
# Creative Commons, PO Box 1866, Mountain View, CA 94042, USA.
#
# CIF created using the CSD Python API on 29 September 2022
# The structure has been converted into the P1 space group
# The structure has a 3D framework
# The original CSD entry BERQAS01 is in the trigonal crystal system
# The original CSD entry BERQAS01 is in a Sohncke space group
# The framework has been calculated to contain at least 10.0% void space
# The void calculation uses a probe of radius 1.32A, grid spacing 0.4
# The framework is charged, counterions have been retained in the structure
#
###############################################################################

data_BERQAS01
_chemical_formula_moiety         '(C60 H66 Cd5 N12 O36)n'
_symmetry_cell_setting           triclinic
_symmetry_space_group_name_H-M   'P 1'
_symmetry_Int_Tables_number      1
_space_group_name_Hall           'P 1'
loop_
_symmetry_equiv_pos_site_id
_symmetry_equiv_pos_as_xyz
1 x,y,z
_cell_length_a                   15.0465(5)
_cell_length_b                   15.0465(5)
_cell_length_c                   12.6619(4)
_cell_angle_alpha                90
_cell_angle_beta                 90
_cell_angle_gamma                120
_cell_volume                     2482.56
loop_
_atom_site_label
_atom_site_type_symbol
_atom_site_fract_x
_atom_site_fract_y
_atom_site_fract_z
Cd3 Cd 0.49979(10) -0.000000 0.166666
Cd1 Cd 1.000000 0.49979(10) 0.833333
O1 O 0.9286(8) 0.5722(9) 0.9457(8)
O2 O 0.8628(10) 0.4079(11) 0.9641(11)
C1 C 0.8624(12) 0.4853(12) 0.9840(13)
O13 O 0.9263(14) 0.3523(11) 0.7237(11)
O15 O 0.8498(13) 0.4405(9) 0.7119(8)
O3 O 0.4260(9) 0.0737(14) 0.0571(11)
O4 O 0.5907(10) 0.1502(13) 0.0453(8)
O5 O 0.291(2) 0.1678(27) 0.010(2)
C8 C 0.5002(11) 0.1273(16) 0.0090(12)
O1_2 O 0.6436(12) 0.0714(8) 0.2790(8)
O2_2 O 0.5451(15) 0.1372(10) 0.2974(11)
O5_2 O 0.8322(27) 0.1232(18) 0.676(2)
O6 O 0.949(4) 0.214(3) 0.560(2)
N1 N 0.8629(18) 0.1784(12) 0.5987(14)
C1_2 C 0.6229(17) 0.1376(12) 0.3173(13)
C2 C 0.6870(11) 0.1938(8) 0.4159(7)
C3 C 0.7542(11) 0.1681(10) 0.4638(9)
H1 H 0.760934 0.112741 0.437175
C4 C 0.8116(12) 0.2234(11) 0.5508(9)
C5 C 0.8018(11) 0.3044(8) 0.5898(7)
C6 C 0.7346(9) 0.3301(7) 0.5420(9)
H2 H 0.727912 0.385502 0.568685
C7 C 0.6772(10) 0.2748(9) 0.4550(9)
H3 H 0.631237 0.292403 0.422310
C8_2 C 0.8727(16) 0.3729(12) 0.6756(12)
Cd1_2 Cd -0.000000 0.49979(10) 0.833333
O7 O 0.0714(8) 0.6436(12) 0.7210(8)
O8 O 0.1372(10) 0.5451(15) 0.7026(11)
O9 O 0.3523(11) 0.9263(14) 0.2763(11)
O10 O 0.4405(9) 0.8498(13) 0.2881(8)
O11 O 0.1232(18) 0.8322(27) 0.324(2)
O12 O 0.214(3) 0.949(4) 0.440(2)
N2 N 0.1784(12) 0.8629(18) 0.4013(14)
C9 C 0.1376(12) 0.6229(17) 0.6827(13)
C10 C 0.1938(8) 0.6870(11) 0.5841(7)
C11 C 0.1681(10) 0.7542(11) 0.5362(9)
H4 H 0.112741 0.760934 0.562825
C12 C 0.2234(11) 0.8116(12) 0.4492(9)
C13 C 0.3044(8) 0.8018(11) 0.4102(7)
C14 C 0.3301(7) 0.7346(9) 0.4580(9)
H5 H 0.385502 0.727912 0.431315
C15 C 0.2748(9) 0.6772(10) 0.5450(9)
H6 H 0.292403 0.631237 0.577690
C16 C 0.3729(12) 0.8727(16) 0.3244(12)
Cd3_2 Cd 0.49979(10) 1.000000 0.166666
O14 O 0.0737(14) 0.4260(9) 0.9429(11)
O16 O 0.1502(13) 0.5907(10) 0.9547(8)
O11_2 O 0.1678(27) 0.2910(32) 0.990(2)
C16_2 C 0.1273(16) 0.5002(20) 0.9910(12)
O7_2 O 0.5722(14) 0.9286(8) 0.0543(8)
O8_2 O 0.4079(18) 0.8628(10) 0.0359(11)
C9_2 C 0.4853(21) 0.8624(12) 0.0160(13)
O3_2 O 0.6477(11) 0.5740(9) 0.3904(11)
O4_2 O 0.5595(9) 0.4093(10) 0.3786(8)
O5_3 O 0.8768(18) 0.709(2) 0.343(2)
O6_2 O 0.786(3) 0.735(2) 0.227(2)
N1_2 N 0.8216(12) 0.6845(13) 0.2654(14)
C2_2 C 0.8062(8) 0.4932(8) 0.0826(7)
C3_2 C 0.8319(10) 0.5861(5) 0.1305(9)
H1_2 H 0.887259 0.648193 0.103842
C4_2 C 0.7766(11) 0.5882(5) 0.2175(9)
C5_2 C 0.6956(8) 0.4974(7) 0.2565(7)
C6_2 C 0.6699(7) 0.4045(5) 0.2087(9)
H2_2 H 0.614498 0.342410 0.235352
C7_2 C 0.7252(9) 0.4024(5) 0.1217(9)
H3_2 H 0.707597 0.338834 0.088977
C8_3 C 0.6271(12) 0.4998(11) 0.3423(12)
Cd2 Cd 0.50021(10) 0.50021(10) 0.500000
O1_3 O 0.4278(9) 0.3564(12) 0.6124(8)
O2_3 O 0.5921(11) 0.4549(15) 0.6308(11)
O6_3 O 0.265(2) 0.051(4) 0.894(2)
N1_3 N 0.3155(13) 0.1371(18) 0.9321(14)
C1_3 C 0.5147(12) 0.3771(17) 0.6507(13)
C2_3 C 0.5068(8) 0.3130(11) 0.7493(7)
C3_3 C 0.4139(5) 0.2458(11) 0.7972(9)
H1_3 H 0.351807 0.239066 0.770509
C4_3 C 0.4118(5) 0.1884(12) 0.8842(9)
C5_3 C 0.5026(7) 0.1982(11) 0.9232(7)
C6_3 C 0.5955(5) 0.2654(9) 0.8754(9)
H2_3 H 0.657590 0.272088 0.902019
C7_3 C 0.5976(5) 0.3228(10) 0.7884(9)
H3_3 H 0.661166 0.368763 0.755644
O7_3 O 0.3564(12) 0.4278(14) 0.3876(8)
O8_3 O 0.4549(15) 0.5921(18) 0.3692(11)
O12_2 O 0.051(4) 0.265(5) 0.106(2)
N2_2 N 0.1371(18) 0.3155(22) 0.0679(14)
C9_3 C 0.3771(17) 0.5147(21) 0.3493(13)
C10_2 C 0.3130(11) 0.5068(14) 0.2507(7)
C11_2 C 0.2458(11) 0.4139(15) 0.2028(9)
H4_2 H 0.239066 0.351807 0.229491
C12_2 C 0.1884(12) 0.4118(16) 0.1158(9)
C13_2 C 0.1982(11) 0.5026(14) 0.0768(7)
C14_2 C 0.2654(9) 0.5955(11) 0.1246(9)
H5_2 H 0.272088 0.657590 0.097981
C15_2 C 0.3228(10) 0.5976(13) 0.2116(9)
H6_2 H 0.368763 0.661166 0.244356
O14_2 O 0.5740(9) 0.6477(17) 0.6096(11)
O16_2 O 0.4093(10) 0.5595(16) 0.6214(8)
O11_3 O 0.7090(32) 0.8768(18) 0.657(2)
O12_3 O 0.735(5) 0.786(3) 0.773(2)
N2_3 N 0.6845(22) 0.8216(12) 0.7346(14)
C10_3 C 0.4932(14) 0.8062(8) 0.9174(7)
C11_3 C 0.5861(15) 0.8319(10) 0.8695(9)
H4_3 H 0.648193 0.887259 0.896158
C12_3 C 0.5882(16) 0.7766(11) 0.7825(9)
C13_3 C 0.4974(14) 0.6956(8) 0.7435(7)
C14_3 C 0.4045(11) 0.6699(7) 0.7913(9)
H5_3 H 0.342410 0.614498 0.764648
C15_3 C 0.4024(13) 0.7252(9) 0.8783(9)
H6_3 H 0.338834 0.707597 0.911023
C16_3 C 0.4998(20) 0.6271(12) 0.6577(12)
N3 N 0.811(3) 0.6127(15) 0.687(3)
H7 H 0.828530 0.562730 0.689519
H8 H 0.746353 0.584719 0.712970
C17 C 0.877(3) 0.691(2) 0.759(2)
H9 H 0.870180 0.662128 0.829658
H10 H 0.948745 0.721116 0.735378
H11 H 0.858754 0.745195 0.761060
C18 C 0.808(2) 0.635(2) 0.582(2)
H12 H 0.758446 0.571969 0.545241
H13 H 0.785728 0.685915 0.576526
H14 H 0.875719 0.661835 0.550844
N3_2 N 0.3873(15) 0.1983(34) 0.354(3)
H7_2 H 0.437270 0.265800 0.356186
H8_2 H 0.415281 0.161634 0.379637
C17_2 C 0.309(2) 0.186(4) 0.426(2)
H9_2 H 0.337872 0.208052 0.496325
H10_2 H 0.278884 0.227629 0.402045
H11_2 H 0.254805 0.113559 0.427727
C18_2 C 0.365(2) 0.173(3) 0.249(2)
H12_2 H 0.428031 0.186477 0.211908
H13_2 H 0.314085 0.099813 0.243193
H14_2 H 0.338165 0.213884 0.217511
N3_3 N 0.8017(34) 0.189(3) 0.020(3)
H7_3 H 0.734200 0.171470 0.022852
H8_3 H 0.838366 0.253647 0.046303
C17_3 C 0.814(4) 0.123(3) 0.092(2)
H9_3 H 0.791948 0.129820 0.162991
H10_3 H 0.772371 0.051255 0.068711
H11_3 H 0.886441 0.141246 0.094393
C18_3 C 0.827(3) 0.192(2) 0.915(2)
H12_3 H 0.813523 0.241554 0.878574
H13_3 H 0.900187 0.214272 0.909859
H14_3 H 0.786116 0.124281 0.884177
N3_4 N 0.1983(34) 0.3873(15) 0.646(3)
H7_4 H 0.265800 0.437270 0.643814
H8_4 H 0.161634 0.415281 0.620363
C17_4 C 0.186(4) 0.309(2) 0.574(2)
H9_4 H 0.208052 0.337872 0.503675
H10_4 H 0.227629 0.278884 0.597955
H11_4 H 0.113559 0.254805 0.572273
C18_4 C 0.173(3) 0.365(2) 0.751(2)
H12_4 H 0.186477 0.428031 0.788092
H13_4 H 0.099813 0.314085 0.756807
H14_4 H 0.213884 0.338165 0.782489
C18_5 C 0.192(2) 0.827(3) 0.085(2)
H12_5 H 0.241554 0.813523 0.121426
H13_5 H 0.214272 0.900187 0.090141
H14_5 H 0.124281 0.786116 0.115823
N3_5 N 0.189(3) 0.8017(34) 0.980(3)
H7_5 H 0.171470 0.734200 0.977148
H8_5 H 0.253647 0.838366 0.953697
C17_5 C 0.123(3) 0.814(4) 0.908(2)
H9_5 H 0.129820 0.791948 0.837009
H10_5 H 0.051255 0.772371 0.931289
H11_5 H 0.141246 0.886441 0.905607
N3_6 N 0.6127(15) 0.811(3) 0.313(3)
H7_6 H 0.562730 0.828530 0.310481
H8_6 H 0.584719 0.746353 0.287030
C17_6 C 0.691(2) 0.877(3) 0.241(2)
H9_6 H 0.662128 0.870180 0.170342
H10_6 H 0.721116 0.948745 0.264622
H11_6 H 0.745195 0.858754 0.238940
C18_6 C 0.635(2) 0.808(2) 0.418(2)
H12_6 H 0.571969 0.758446 0.454759
H13_6 H 0.685915 0.785728 0.423474
H14_6 H 0.661835 0.875719 0.449156
loop_
_geom_bond_atom_site_label_1
_geom_bond_atom_site_label_2
_geom_bond_site_symmetry_1
_geom_bond_site_symmetry_2
Cd1 O1 1_555 1_555
O1 C1 1_555 1_555
O2 Cd1 1_555 1_555
C1 O2 1_555 1_555
O13 Cd1 1_555 1_555
O15 Cd1 1_555 1_555
O3 C8 1_555 1_555
O4 C8 1_555 1_555
Cd3 O3 1_555 1_555
O4 Cd3 1_555 1_555
Cd3 O1_2 1_555 1_555
O1_2 C1_2 1_555 1_555
O2_2 Cd3 1_555 1_555
O13 C8_2 1_555 1_555
O15 C8_2 1_555 1_555
O5_2 N1 1_555 1_555
O6 N1 1_555 1_555
N1 C4 1_555 1_555
C1_2 O2_2 1_555 1_555
C2 C1_2 1_555 1_555
C3 C2 1_555 1_555
H1 C3 1_555 1_555
C4 C3 1_555 1_555
C5 C4 1_555 1_555
C6 C5 1_555 1_555
H2 C6 1_555 1_555
C7 C2 1_555 1_555
H3 C7 1_555 1_555
C8_2 C5 1_555 1_555
C6 C7 1_555 1_555
O7 Cd1_2 1_555 1_555
O8 Cd1_2 1_555 1_555
O9 C16 1_555 1_555
O10 C16 1_555 1_555
O11 N2 1_555 1_555
O12 N2 1_555 1_555
N2 C12 1_555 1_555
C9 O7 1_555 1_555
C10 C9 1_555 1_555
C11 C10 1_555 1_555
H4 C11 1_555 1_555
C12 C11 1_555 1_555
C13 C12 1_555 1_555
C14 C13 1_555 1_555
H5 C14 1_555 1_555
C15 C10 1_555 1_555
H6 C15 1_555 1_555
C16 C13 1_555 1_555
Cd3_2 O9 1_555 1_555
O14 Cd1_2 1_555 1_555
O16 Cd1_2 1_555 1_555
O8 C9 1_555 1_555
O10 Cd3_2 1_555 1_555
C14 C15 1_555 1_555
O14 C16_2 1_555 1_555
O16 C16_2 1_555 1_555
O7_2 Cd3_2 1_555 1_555
O8_2 Cd3_2 1_555 1_555
C9_2 O7_2 1_555 1_555
O8_2 C9_2 1_555 1_555
O3_2 C8_3 1_555 1_555
O4_2 C8_3 1_555 1_555
O5_3 N1_2 1_555 1_555
O6_2 N1_2 1_555 1_555
N1_2 C4_2 1_555 1_555
C3_2 C2_2 1_555 1_555
H1_2 C3_2 1_555 1_555
C4_2 C3_2 1_555 1_555
C5_2 C4_2 1_555 1_555
C6_2 C5_2 1_555 1_555
H2_2 C6_2 1_555 1_555
C7_2 C2_2 1_555 1_555
H3_2 C7_2 1_555 1_555
C8_3 C5_2 1_555 1_555
Cd2 O3_2 1_555 1_555
O4_2 Cd2 1_555 1_555
C6_2 C7_2 1_555 1_555
Cd2 O1_3 1_555 1_555
O1_3 C1_3 1_555 1_555
O2_3 Cd2 1_555 1_555
O6_3 N1_3 1_555 1_555
N1_3 C4_3 1_555 1_555
C1_3 O2_3 1_555 1_555
C2_3 C1_3 1_555 1_555
C3_3 C2_3 1_555 1_555
H1_3 C3_3 1_555 1_555
C4_3 C3_3 1_555 1_555
C5_3 C4_3 1_555 1_555
C6_3 C5_3 1_555 1_555
H2_3 C6_3 1_555 1_555
C7_3 C2_3 1_555 1_555
H3_3 C7_3 1_555 1_555
O7_3 Cd2 1_555 1_555
O8_3 Cd2 1_555 1_555
O12_2 N2_2 1_555 1_555
N2_2 C12_2 1_555 1_555
C9_3 O7_3 1_555 1_555
C10_2 C9_3 1_555 1_555
C11_2 C10_2 1_555 1_555
H4_2 C11_2 1_555 1_555
C12_2 C11_2 1_555 1_555
C13_2 C12_2 1_555 1_555
C14_2 C13_2 1_555 1_555
H5_2 C14_2 1_555 1_555
C15_2 C10_2 1_555 1_555
H6_2 C15_2 1_555 1_555
O14_2 Cd2 1_555 1_555
O16_2 Cd2 1_555 1_555
C6_3 C7_3 1_555 1_555
O8_3 C9_3 1_555 1_555
C14_2 C15_2 1_555 1_555
O14_2 C16_3 1_555 1_555
O16_2 C16_3 1_555 1_555
O11_3 N2_3 1_555 1_555
O12_3 N2_3 1_555 1_555
N2_3 C12_3 1_555 1_555
C11_3 C10_3 1_555 1_555
H4_3 C11_3 1_555 1_555
C12_3 C11_3 1_555 1_555
C13_3 C12_3 1_555 1_555
C14_3 C13_3 1_555 1_555
H5_3 C14_3 1_555 1_555
C15_3 C10_3 1_555 1_555
H6_3 C15_3 1_555 1_555
C16_3 C13_3 1_555 1_555
C14_3 C15_3 1_555 1_555
N3 H7 1_555 1_555
H8 N3 1_555 1_555
C17 N3 1_555 1_555
H9 C17 1_555 1_555
H10 C17 1_555 1_555
H11 C17 1_555 1_555
C18 N3 1_555 1_555
H12 C18 1_555 1_555
H13 C18 1_555 1_555
H14 C18 1_555 1_555
N3_2 H7_2 1_555 1_555
H8_2 N3_2 1_555 1_555
C17_2 N3_2 1_555 1_555
H9_2 C17_2 1_555 1_555
H10_2 C17_2 1_555 1_555
H11_2 C17_2 1_555 1_555
C18_2 N3_2 1_555 1_555
H12_2 C18_2 1_555 1_555
H13_2 C18_2 1_555 1_555
H14_2 C18_2 1_555 1_555
N3_3 H7_3 1_555 1_555
H8_3 N3_3 1_555 1_555
C17_3 N3_3 1_555 1_555
H9_3 C17_3 1_555 1_555
H10_3 C17_3 1_555 1_555
H11_3 C17_3 1_555 1_555
H12_3 C18_3 1_555 1_555
H13_3 C18_3 1_555 1_555
H14_3 C18_3 1_555 1_555
N3_4 H7_4 1_555 1_555
H8_4 N3_4 1_555 1_555
C17_4 N3_4 1_555 1_555
H9_4 C17_4 1_555 1_555
H10_4 C17_4 1_555 1_555
H11_4 C17_4 1_555 1_555
C18_4 N3_4 1_555 1_555
H12_4 C18_4 1_555 1_555
H13_4 C18_4 1_555 1_555
H14_4 C18_4 1_555 1_555
H12_5 C18_5 1_555 1_555
H13_5 C18_5 1_555 1_555
H14_5 C18_5 1_555 1_555
N3_5 H7_5 1_555 1_555
H8_5 N3_5 1_555 1_555
C17_5 N3_5 1_555 1_555
H9_5 C17_5 1_555 1_555
H10_5 C17_5 1_555 1_555
H11_5 C17_5 1_555 1_555
N3_6 H7_6 1_555 1_555
H8_6 N3_6 1_555 1_555
C17_6 N3_6 1_555 1_555
H9_6 C17_6 1_555 1_555
H10_6 C17_6 1_555 1_555
H11_6 C17_6 1_555 1_555
C18_6 N3_6 1_555 1_555
H12_6 C18_6 1_555 1_555
H13_6 C18_6 1_555 1_555
H14_6 C18_6 1_555 1_555

#END
