
###############################################################################
#
# This file contains modified crystal structure data generated from the
# MOF subset of the Cambridge Structural Database (CSD) v543 
# hosted by the Cambridge Crystallographic Data Centre (CCDC).
#
# This work is licensed under the Creative Commons
# Attribution-NonCommercial-ShareAlike 4.0 International License.
# To view a copy of this license, visit
# http://creativecommons.org/licenses/by-nc-sa/4.0/
# or send a letter to
# Creative Commons, PO Box 1866, Mountain View, CA 94042, USA.
#
# CIF created using the CSD Python API on 29 September 2022
# The structure has been converted into the P1 space group
# The structure has a 3D framework
# The original CSD entry BETDIP is in the monoclinic crystal system
# The framework has been calculated to contain at least 10.0% void space
# The void calculation uses a probe of radius 1.32A, grid spacing 0.4
# H atom positions have been added when not included in the experimental data
#
###############################################################################

data_BETDIP
_chemical_formula_moiety         '(C152 H136 N16 O64 Tb8)n'
_symmetry_cell_setting           triclinic
_symmetry_space_group_name_H-M   'P 1'
_symmetry_Int_Tables_number      1
_space_group_name_Hall           'P 1'
loop_
_symmetry_equiv_pos_site_id
_symmetry_equiv_pos_as_xyz
1 x,y,z
_cell_length_a                   29.157(2)
_cell_length_b                   13.0903(12)
_cell_length_c                   13.9533(9)
_cell_angle_alpha                90
_cell_angle_beta                 97.576(6)
_cell_angle_gamma                90
_cell_volume                     5279.12
loop_
_atom_site_label
_atom_site_type_symbol
_atom_site_fract_x
_atom_site_fract_y
_atom_site_fract_z
O5 O 0.20003(15) 0.2535(4) 0.1255(3)
O6 O 0.26715(16) 0.1713(5) 0.1611(4)
N1 N 0.09554(18) 0.0939(5) 0.3527(4)
C4 C 0.0040(2) 0.1197(7) 0.4053(5)
H2 H 0.0153 0.0532 0.4052
C5 C 0.0291(3) 0.1968(7) 0.3751(6)
C6 C 0.0120(3) 0.2943(7) 0.3723(8)
H3 H 0.0290 0.3482 0.3515
C8 C 0.0766(3) 0.1828(8) 0.3474(6)
C10 C 0.2157(2) 0.0051(6) 0.3749(4)
C11 C 0.1689(2) 0.0150(5) 0.3852(5)
C12 C 0.1416(2) 0.0848(6) 0.3326(5)
C13 C 0.1599(2) 0.1431(6) 0.2632(5)
H6 H 0.1411 0.1892 0.2255
C14 C 0.2064(2) 0.1322(6) 0.2502(4)
C15 C 0.2345(2) 0.0658(6) 0.3082(4)
H7 H 0.2659 0.0616 0.3027
C16 C 0.2257(2) 0.1910(6) 0.1724(5)
H14 H 0.083(5) 0.246(7) 0.309(9)
Tb5 Tb 0.314461(10) 0.20229(3) 0.04105(2)
Tb2 Tb 0.185539(10) 0.29771(3) 0.95895(2)
O3 O 0.22912(15) 0.8515(4) 0.4675(3)
O4 O 0.28871(15) 0.9508(4) 0.4544(4)
C9 C 0.2463(2) 0.9325(6) 0.4350(5)
H5 H 0.1562 0.9732 0.4287
Tb3 Tb 0.314461(10) 0.79771(3) 0.54105(2)
Tb4 Tb 0.185539(10) 0.70229(3) 0.45895(2)
Tb1 Tb 0.814461(10) 0.29771(3) 0.54105(2)
O1 O 0.87609(17) 0.1807(4) 0.5001(4)
O2 O 0.88509(17) 0.3453(5) 0.4757(4)
O7 O 0.8558(2) 0.2286(6) 0.6836(5)
O8 O 0.8500(2) 0.4417(5) 0.6337(4)
N2 N 0.8823(4) 0.1393(9) 0.8178(8)
C1 C 0.8988(2) 0.2537(7) 0.4732(5)
C2 C 0.9444(2) 0.2344(6) 0.4356(5)
C3 C 0.9617(2) 0.1380(7) 0.4362(5)
H1 H 0.9450 0.0841 0.4576
C7 C 0.9682(3) 0.3116(7) 0.4014(7)
H4 H 0.9555 0.3769 0.3970
C17 C 0.8450(5) 0.1931(11) 0.7601(8)
C18 C 0.9297(4) 0.1319(12) 0.7981(11)
H8 H 0.9476 0.0945 0.8491
H9 H 0.9424 0.1993 0.7944
H10 H 0.9305 0.0972 0.7378
C19 C 0.8649(5) 0.0825(11) 0.8944(9)
H11 H 0.8901 0.0492 0.9333
H12 H 0.8431 0.0322 0.8667
H13 H 0.8499 0.1286 0.9339
O9 O 0.72912(15) 0.3515(4) 0.4675(3)
O10 O 0.77088(15) 0.1485(4) 0.5325(3)
O11 O 0.78871(15) 0.4508(4) 0.4544(4)
O12 O 0.79997(15) 0.2535(4) 0.3745(3)
O13 O 0.76715(16) 0.3287(5) 0.6611(4)
H15 H 0.87071 0.478817 0.594551
H16 H 0.825481 0.488685 0.65023
H17 H 0.810663 0.201653 0.781753
O2_2 O 0.11491(17) 0.3453(5) 0.0243(4)
C1_2 C 0.1012(2) 0.2537(7) 0.0268(5)
C2_2 C 0.0556(2) 0.2344(6) 0.0644(5)
C3_2 C 0.0383(2) 0.1380(7) 0.0638(5)
H1_2 H 0.0550 0.0841 0.0424
C7_2 C 0.0318(3) 0.3116(7) 0.0986(7)
H4_2 H 0.0445 0.3769 0.1030
O9_2 O 0.27088(15) 0.3515(4) 0.0325(3)
O11_2 O 0.21129(15) 0.4508(4) 0.0456(4)
O1_2 O 0.12391(17) 0.1807(4) 0.9999(4)
O7_2 O 0.1442(2) 0.2286(6) 0.8164(5)
O8_2 O 0.1500(2) 0.4417(5) 0.8663(4)
N2_2 N 0.1177(4) 0.1393(9) 0.6822(8)
C17_2 C 0.1550(5) 0.1931(11) 0.7399(8)
C18_2 C 0.0703(4) 0.1319(12) 0.7019(11)
H8_2 H 0.0524 0.0945 0.6509
H9_2 H 0.0576 0.1993 0.7056
H10_2 H 0.0695 0.0972 0.7622
C19_2 C 0.1351(5) 0.0825(11) 0.6056(9)
H11_2 H 0.1099 0.0492 0.5667
H12_2 H 0.1569 0.0322 0.6333
H13_2 H 0.1501 0.1286 0.5661
O10_2 O 0.22912(15) 0.1485(4) 0.9675(3)
O13_2 O 0.23285(16) 0.3287(5) 0.8389(4)
H15_2 H 0.12929 0.478817 0.905449
H16_2 H 0.174519 0.488685 0.84977
H17_2 H 0.189337 0.201653 0.718247
O6_2 O 0.73285(16) 0.1713(5) 0.3389(4)
N1_2 N 0.90446(18) 0.0939(5) 0.1473(4)
C4_2 C 0.9960(2) 0.1197(7) 0.0947(5)
H2_2 H 0.9847 0.0532 0.0948
C5_2 C 0.9709(3) 0.1968(7) 0.1249(6)
C6_2 C 0.9880(3) 0.2943(7) 0.1277(8)
H3_2 H 0.9710 0.3482 0.1485
C8_2 C 0.9234(3) 0.1828(8) 0.1526(6)
C10_2 C 0.7843(2) 0.0051(6) 0.1251(4)
C11_2 C 0.8311(2) 0.0150(5) 0.1148(5)
C12_2 C 0.8584(2) 0.0848(6) 0.1674(5)
C13_2 C 0.8401(2) 0.1431(6) 0.2368(5)
H6_2 H 0.8589 0.1892 0.2745
C14_2 C 0.7936(2) 0.1322(6) 0.2498(4)
C15_2 C 0.7655(2) 0.0658(6) 0.1918(4)
H7_2 H 0.7341 0.0616 0.1973
C16_2 C 0.7743(2) 0.1910(6) 0.3276(5)
H14_2 H 0.917(5) 0.246(7) 0.191(9)
Tb5_2 Tb 0.685539(10) 0.20229(3) 0.45895(2)
O3_2 O 0.77088(15) 0.8515(4) 0.0325(3)
O4_2 O 0.71129(15) 0.9508(4) 0.0456(4)
C9_2 C 0.7537(2) 0.9325(6) 0.0650(5)
H5_2 H 0.8438 0.9732 0.0713
Tb4_2 Tb 0.814461(10) 0.70229(3) 0.04105(2)
Tb3_2 Tb 0.685539(10) 0.79771(3) 0.95895(2)
O1_3 O 0.37609(17) 0.6807(4) 0.5001(4)
O2_3 O 0.38509(17) 0.8453(5) 0.4757(4)
O5_2 O 0.70003(15) 0.7535(4) 0.1255(3)
O6_3 O 0.76715(16) 0.6713(5) 0.1611(4)
O7_3 O 0.3558(2) 0.7286(6) 0.6836(5)
O8_3 O 0.3500(2) 0.9417(5) 0.6337(4)
N1_3 N 0.59554(18) 0.5939(5) 0.3527(4)
N2_3 N 0.3823(4) 0.6393(9) 0.8178(8)
C1_3 C 0.3988(2) 0.7537(7) 0.4732(5)
C2_3 C 0.4444(2) 0.7344(6) 0.4356(5)
C3_3 C 0.4617(2) 0.6380(7) 0.4362(5)
H1_3 H 0.4450 0.5841 0.4576
C4_3 C 0.5040(2) 0.6197(7) 0.4053(5)
H2_3 H 0.5153 0.5532 0.4052
C5_3 C 0.5291(3) 0.6968(7) 0.3751(6)
C6_3 C 0.5120(3) 0.7943(7) 0.3723(8)
H3_3 H 0.5290 0.8482 0.3515
C7_3 C 0.4682(3) 0.8116(7) 0.4014(7)
H4_3 H 0.4555 0.8769 0.3970
C8_3 C 0.5766(3) 0.6828(8) 0.3474(6)
C9_3 C 0.7463(2) 0.4325(6) 0.4350(5)
C10_3 C 0.7157(2) 0.5051(6) 0.3749(4)
C11_3 C 0.6689(2) 0.5150(5) 0.3852(5)
H5_3 H 0.6562 0.4732 0.4287
C12_3 C 0.6416(2) 0.5848(6) 0.3326(5)
C13_3 C 0.6599(2) 0.6431(6) 0.2632(5)
H6_3 H 0.6411 0.6892 0.2255
C14_3 C 0.7064(2) 0.6322(6) 0.2502(4)
C15_3 C 0.7345(2) 0.5658(6) 0.3082(4)
H7_3 H 0.7659 0.5616 0.3027
C16_3 C 0.7257(2) 0.6910(6) 0.1724(5)
C17_3 C 0.3450(5) 0.6931(11) 0.7601(8)
C18_3 C 0.4297(4) 0.6319(12) 0.7981(11)
H8_3 H 0.4476 0.5945 0.8491
H9_3 H 0.4424 0.6993 0.7944
H10_3 H 0.4305 0.5972 0.7378
C19_3 C 0.3649(5) 0.5825(11) 0.8944(9)
H11_3 H 0.3901 0.5492 0.9333
H12_3 H 0.3431 0.5322 0.8667
H13_3 H 0.3499 0.6286 0.9339
H14_3 H 0.583(5) 0.746(7) 0.309(9)
O10_3 O 0.27088(15) 0.6485(4) 0.5325(3)
O12_2 O 0.29997(15) 0.7535(4) 0.3745(3)
O13_3 O 0.26715(16) 0.8287(5) 0.6611(4)
H15_3 H 0.37071 0.978817 0.594551
H16_3 H 0.325481 0.988685 0.65023
H17_3 H 0.310663 0.701653 0.781753
O2_4 O 0.61491(17) 0.8453(5) 0.0243(4)
O6_4 O 0.23285(16) 0.6713(5) 0.3389(4)
N1_4 N 0.40446(18) 0.5939(5) 0.1473(4)
C1_4 C 0.6012(2) 0.7537(7) 0.0268(5)
C2_4 C 0.5556(2) 0.7344(6) 0.0644(5)
C3_4 C 0.5383(2) 0.6380(7) 0.0638(5)
H1_4 H 0.5550 0.5841 0.0424
C4_4 C 0.4960(2) 0.6197(7) 0.0947(5)
H2_4 H 0.4847 0.5532 0.0948
C5_4 C 0.4709(3) 0.6968(7) 0.1249(6)
C6_4 C 0.4880(3) 0.7943(7) 0.1277(8)
H3_4 H 0.4710 0.8482 0.1485
C7_4 C 0.5318(3) 0.8116(7) 0.0986(7)
H4_4 H 0.5445 0.8769 0.1030
C8_4 C 0.4234(3) 0.6828(8) 0.1526(6)
C9_4 C 0.2537(2) 0.4325(6) 0.0650(5)
C10_4 C 0.2843(2) 0.5051(6) 0.1251(4)
C11_4 C 0.3311(2) 0.5150(5) 0.1148(5)
H5_4 H 0.3438 0.4732 0.0713
C12_4 C 0.3584(2) 0.5848(6) 0.1674(5)
C13_4 C 0.3401(2) 0.6431(6) 0.2368(5)
H6_4 H 0.3589 0.6892 0.2745
C14_4 C 0.2936(2) 0.6322(6) 0.2498(4)
C15_4 C 0.2655(2) 0.5658(6) 0.1918(4)
H7_4 H 0.2341 0.5616 0.1973
C16_4 C 0.2743(2) 0.6910(6) 0.3276(5)
H14_4 H 0.417(5) 0.746(7) 0.191(9)
O1_4 O 0.62391(17) 0.6807(4) 0.9999(4)
O7_4 O 0.6442(2) 0.7286(6) 0.8164(5)
O8_4 O 0.6500(2) 0.9417(5) 0.8663(4)
N2_4 N 0.6177(4) 0.6393(9) 0.6822(8)
C17_4 C 0.6550(5) 0.6931(11) 0.7399(8)
C18_4 C 0.5703(4) 0.6319(12) 0.7019(11)
H8_4 H 0.5524 0.5945 0.6509
H9_4 H 0.5576 0.6993 0.7056
H10_4 H 0.5695 0.5972 0.7622
C19_4 C 0.6351(5) 0.5825(11) 0.6056(9)
H11_4 H 0.6099 0.5492 0.5667
H12_4 H 0.6569 0.5322 0.6333
H13_4 H 0.6501 0.6286 0.5661
O10_4 O 0.72912(15) 0.6485(4) 0.9675(3)
O13_4 O 0.73285(16) 0.8287(5) 0.8389(4)
H15_4 H 0.62929 0.978817 0.905449
H16_4 H 0.674519 0.988685 0.84977
H17_4 H 0.689337 0.701653 0.718247
O1_5 O 0.12391(17) 0.8193(4) 0.4999(4)
O2_5 O 0.11491(17) 0.6547(5) 0.5243(4)
O7_5 O 0.1442(2) 0.7714(6) 0.3164(5)
O8_5 O 0.1500(2) 0.5583(5) 0.3663(4)
N2_5 N 0.1177(4) 0.8607(9) 0.1822(8)
C1_5 C 0.1012(2) 0.7463(7) 0.5268(5)
C2_5 C 0.0556(2) 0.7656(6) 0.5644(5)
C3_5 C 0.0383(2) 0.8620(7) 0.5638(5)
H1_5 H 0.0550 0.9159 0.5424
C7_5 C 0.0318(3) 0.6884(7) 0.5986(7)
H4_5 H 0.0445 0.6231 0.6030
C17_5 C 0.1550(5) 0.8069(11) 0.2399(8)
C18_5 C 0.0703(4) 0.8681(12) 0.2019(11)
H8_5 H 0.0524 0.9055 0.1509
H9_5 H 0.0576 0.8007 0.2056
H10_5 H 0.0695 0.9028 0.2622
C19_5 C 0.1351(5) 0.9175(11) 0.1056(9)
H11_5 H 0.1099 0.9508 0.0667
H12_5 H 0.1569 0.9678 0.1333
H13_5 H 0.1501 0.8714 0.0661
O11_3 O 0.21129(15) 0.5492(4) 0.5456(4)
O12_3 O 0.20003(15) 0.7465(4) 0.6255(3)
H15_5 H 0.12929 0.521183 0.405449
H16_5 H 0.174519 0.511315 0.34977
H17_5 H 0.189337 0.798347 0.218247
O4_3 O 0.71129(15) 0.0492(4) 0.5456(4)
C9_5 C 0.7537(2) 0.0675(6) 0.5650(5)
H5_5 H 0.8438 0.0268 0.5713
O5_3 O 0.79997(15) 0.7465(4) 0.8745(3)
N1_5 N 0.90446(18) 0.9061(5) 0.6473(4)
C4_5 C 0.9960(2) 0.8803(7) 0.5947(5)
H2_5 H 0.9847 0.9468 0.5948
C5_5 C 0.9709(3) 0.8032(7) 0.6249(6)
C6_5 C 0.9880(3) 0.7057(7) 0.6277(8)
H3_5 H 0.9710 0.6518 0.6485
C8_5 C 0.9234(3) 0.8172(8) 0.6526(6)
C10_5 C 0.7843(2) 0.9949(6) 0.6251(4)
C11_5 C 0.8311(2) 0.9850(5) 0.6148(5)
C12_5 C 0.8584(2) 0.9152(6) 0.6674(5)
C13_5 C 0.8401(2) 0.8569(6) 0.7368(5)
H6_5 H 0.8589 0.8108 0.7745
C14_5 C 0.7936(2) 0.8678(6) 0.7498(4)
C15_5 C 0.7655(2) 0.9342(6) 0.6918(4)
H7_5 H 0.7341 0.9384 0.6973
C16_5 C 0.7743(2) 0.8090(6) 0.8276(5)
H14_5 H 0.917(5) 0.754(7) 0.691(9)
O4_4 O 0.28871(15) 0.0492(4) 0.9544(4)
C9_6 C 0.2463(2) 0.0675(6) 0.9350(5)
H5_6 H 0.1562 0.0268 0.9287
N1_6 N 0.09554(18) 0.9061(5) 0.8527(4)
C4_6 C 0.0040(2) 0.8803(7) 0.9053(5)
H2_6 H 0.0153 0.9468 0.9052
C5_6 C 0.0291(3) 0.8032(7) 0.8751(6)
C6_6 C 0.0120(3) 0.7057(7) 0.8723(8)
H3_6 H 0.0290 0.6518 0.8515
C8_6 C 0.0766(3) 0.8172(8) 0.8474(6)
C10_6 C 0.2157(2) 0.9949(6) 0.8749(4)
C11_6 C 0.1689(2) 0.9850(5) 0.8852(5)
C12_6 C 0.1416(2) 0.9152(6) 0.8326(5)
C13_6 C 0.1599(2) 0.8569(6) 0.7632(5)
H6_6 H 0.1411 0.8108 0.7255
C14_6 C 0.2064(2) 0.8678(6) 0.7502(4)
C15_6 C 0.2345(2) 0.9342(6) 0.8082(4)
H7_6 H 0.2659 0.9384 0.8027
C16_6 C 0.2257(2) 0.8090(6) 0.6724(5)
H14_6 H 0.083(5) 0.754(7) 0.809(9)
O1_6 O 0.87609(17) 0.8193(4) 0.0001(4)
O7_6 O 0.8558(2) 0.7714(6) 0.1836(5)
O8_6 O 0.8500(2) 0.5583(5) 0.1337(4)
N2_6 N 0.8823(4) 0.8607(9) 0.3178(8)
C17_6 C 0.8450(5) 0.8069(11) 0.2601(8)
C18_6 C 0.9297(4) 0.8681(12) 0.2981(11)
H8_6 H 0.9476 0.9055 0.3491
H9_6 H 0.9424 0.8007 0.2944
H10_6 H 0.9305 0.9028 0.2378
C19_6 C 0.8649(5) 0.9175(11) 0.3944(9)
H11_6 H 0.8901 0.9508 0.4333
H12_6 H 0.8431 0.9678 0.3667
H13_6 H 0.8499 0.8714 0.4339
H15_6 H 0.87071 0.521183 0.0945512
H16_6 H 0.825481 0.511315 0.15023
H17_6 H 0.810663 0.798347 0.281753
O2_6 O 0.88509(17) 0.6547(5) 0.9757(4)
C1_6 C 0.8988(2) 0.7463(7) 0.9732(5)
C2_6 C 0.9444(2) 0.7656(6) 0.9356(5)
C3_6 C 0.9617(2) 0.8620(7) 0.9362(5)
H1_6 H 0.9450 0.9159 0.9576
C7_6 C 0.9682(3) 0.6884(7) 0.9014(7)
H4_6 H 0.9555 0.6231 0.8970
O11_4 O 0.78871(15) 0.5492(4) 0.9544(4)
O1_7 O 0.62391(17) 0.3193(4) 0.4999(4)
O2_7 O 0.61491(17) 0.1547(5) 0.5243(4)
O5_4 O 0.29997(15) 0.2465(4) 0.8745(3)
O7_7 O 0.6442(2) 0.2714(6) 0.3164(5)
O8_7 O 0.6500(2) 0.0583(5) 0.3663(4)
N1_7 N 0.40446(18) 0.4061(5) 0.6473(4)
N2_7 N 0.6177(4) 0.3607(9) 0.1822(8)
C1_7 C 0.6012(2) 0.2463(7) 0.5268(5)
C2_7 C 0.5556(2) 0.2656(6) 0.5644(5)
C3_7 C 0.5383(2) 0.3620(7) 0.5638(5)
H1_7 H 0.5550 0.4159 0.5424
C4_7 C 0.4960(2) 0.3803(7) 0.5947(5)
H2_7 H 0.4847 0.4468 0.5948
C5_7 C 0.4709(3) 0.3032(7) 0.6249(6)
C6_7 C 0.4880(3) 0.2057(7) 0.6277(8)
H3_7 H 0.4710 0.1518 0.6485
C7_7 C 0.5318(3) 0.1884(7) 0.5986(7)
H4_7 H 0.5445 0.1231 0.6030
C8_7 C 0.4234(3) 0.3172(8) 0.6526(6)
C9_7 C 0.2537(2) 0.5675(6) 0.5650(5)
C10_7 C 0.2843(2) 0.4949(6) 0.6251(4)
C11_7 C 0.3311(2) 0.4850(5) 0.6148(5)
H5_7 H 0.3438 0.5268 0.5713
C12_7 C 0.3584(2) 0.4152(6) 0.6674(5)
C13_7 C 0.3401(2) 0.3569(6) 0.7368(5)
H6_7 H 0.3589 0.3108 0.7745
C14_7 C 0.2936(2) 0.3678(6) 0.7498(4)
C15_7 C 0.2655(2) 0.4342(6) 0.6918(4)
H7_7 H 0.2341 0.4384 0.6973
C16_7 C 0.2743(2) 0.3090(6) 0.8276(5)
C17_7 C 0.6550(5) 0.3069(11) 0.2399(8)
C18_7 C 0.5703(4) 0.3681(12) 0.2019(11)
H8_7 H 0.5524 0.4055 0.1509
H9_7 H 0.5576 0.3007 0.2056
H10_7 H 0.5695 0.4028 0.2622
C19_7 C 0.6351(5) 0.4175(11) 0.1056(9)
H11_7 H 0.6099 0.4508 0.0667
H12_7 H 0.6569 0.4678 0.1333
H13_7 H 0.6501 0.3714 0.0661
H14_7 H 0.417(5) 0.254(7) 0.691(9)
O12_4 O 0.70003(15) 0.2465(4) 0.6255(3)
H15_7 H 0.62929 0.0211832 0.405449
H16_7 H 0.674519 0.0113146 0.34977
H17_7 H 0.689337 0.298347 0.218247
O1_8 O 0.37609(17) 0.3193(4) 0.0001(4)
O7_8 O 0.3558(2) 0.2714(6) 0.1836(5)
O8_8 O 0.3500(2) 0.0583(5) 0.1337(4)
N2_8 N 0.3823(4) 0.3607(9) 0.3178(8)
C17_8 C 0.3450(5) 0.3069(11) 0.2601(8)
C18_8 C 0.4297(4) 0.3681(12) 0.2981(11)
H8_8 H 0.4476 0.4055 0.3491
H9_8 H 0.4424 0.3007 0.2944
H10_8 H 0.4305 0.4028 0.2378
C19_8 C 0.3649(5) 0.4175(11) 0.3944(9)
H11_8 H 0.3901 0.4508 0.4333
H12_8 H 0.3431 0.4678 0.3667
H13_8 H 0.3499 0.3714 0.4339
H15_8 H 0.37071 0.0211832 0.0945512
H16_8 H 0.325481 0.0113146 0.15023
H17_8 H 0.310663 0.298347 0.281753
O2_8 O 0.38509(17) 0.1547(5) 0.9757(4)
N1_8 N 0.59554(18) 0.4061(5) 0.8527(4)
C1_8 C 0.3988(2) 0.2463(7) 0.9732(5)
C2_8 C 0.4444(2) 0.2656(6) 0.9356(5)
C3_8 C 0.4617(2) 0.3620(7) 0.9362(5)
H1_8 H 0.4450 0.4159 0.9576
C4_8 C 0.5040(2) 0.3803(7) 0.9053(5)
H2_8 H 0.5153 0.4468 0.9052
C5_8 C 0.5291(3) 0.3032(7) 0.8751(6)
C6_8 C 0.5120(3) 0.2057(7) 0.8723(8)
H3_8 H 0.5290 0.1518 0.8515
C7_8 C 0.4682(3) 0.1884(7) 0.9014(7)
H4_8 H 0.4555 0.1231 0.8970
C8_8 C 0.5766(3) 0.3172(8) 0.8474(6)
C9_8 C 0.7463(2) 0.5675(6) 0.9350(5)
C10_8 C 0.7157(2) 0.4949(6) 0.8749(4)
C11_8 C 0.6689(2) 0.4850(5) 0.8852(5)
H5_8 H 0.6562 0.5268 0.9287
C12_8 C 0.6416(2) 0.4152(6) 0.8326(5)
C13_8 C 0.6599(2) 0.3569(6) 0.7632(5)
H6_8 H 0.6411 0.3108 0.7255
C14_8 C 0.7064(2) 0.3678(6) 0.7502(4)
C15_8 C 0.7345(2) 0.4342(6) 0.8082(4)
H7_8 H 0.7659 0.4384 0.8027
C16_8 C 0.7257(2) 0.3090(6) 0.6724(5)
H14_8 H 0.583(5) 0.254(7) 0.809(9)
loop_
_geom_bond_atom_site_label_1
_geom_bond_atom_site_label_2
_geom_bond_site_symmetry_1
_geom_bond_site_symmetry_2
O5 C16 1_555 1_555
O6 C16 1_555 1_555
N1 C8 1_555 1_555
H2 C4 1_555 1_555
C5 C4 1_555 1_555
C6 C5 1_555 1_555
H3 C6 1_555 1_555
C8 C5 1_555 1_555
C10 C11 1_555 1_555
C12 N1 1_555 1_555
C13 C12 1_555 1_555
H6 C13 1_555 1_555
C14 C13 1_555 1_555
C15 C10 1_555 1_555
H7 C15 1_555 1_555
C16 C14 1_555 1_555
H14 C8 1_555 1_555
Tb5 O6 1_555 1_555
C11 C12 1_555 1_555
C14 C15 1_555 1_555
O3 C9 1_555 1_555
O4 C9 1_555 1_555
Tb3 O3 1_555 1_555
Tb4 O3 1_555 1_555
O4 Tb3 1_555 1_555
Tb1 O1 1_555 1_555
O1 C1 1_555 1_555
O2 Tb1 1_555 1_555
O7 Tb1 1_555 1_555
O8 Tb1 1_555 1_555
N2 C17 1_555 1_555
C1 O2 1_555 1_555
C2 C1 1_555 1_555
C3 C2 1_555 1_555
H1 C3 1_555 1_555
C7 C2 1_555 1_555
H4 C7 1_555 1_555
C17 O7 1_555 1_555
C18 N2 1_555 1_555
H8 C18 1_555 1_555
H9 C18 1_555 1_555
H10 C18 1_555 1_555
C19 N2 1_555 1_555
H11 C19 1_555 1_555
H12 C19 1_555 1_555
H13 C19 1_555 1_555
O9 Tb1 1_555 1_555
O10 Tb1 1_555 1_555
O11 Tb1 1_555 1_555
O12 Tb1 1_555 1_555
O13 Tb1 1_555 1_555
O8 H15 1_555 1_555
O8 H16 1_555 1_555
C17 H17 1_555 1_555
C1_2 O2_2 1_555 1_555
C2_2 C1_2 1_555 1_555
C3_2 C2_2 1_555 1_555
H1_2 C3_2 1_555 1_555
C7_2 C2_2 1_555 1_555
H4_2 C7_2 1_555 1_555
Tb2 O1_2 1_555 1_555
O7_2 Tb2 1_555 1_555
O8_2 Tb2 1_555 1_555
N2_2 C17_2 1_555 1_555
C17_2 O7_2 1_555 1_555
C18_2 N2_2 1_555 1_555
H8_2 C18_2 1_555 1_555
H9_2 C18_2 1_555 1_555
H10_2 C18_2 1_555 1_555
C19_2 N2_2 1_555 1_555
H11_2 C19_2 1_555 1_555
H12_2 C19_2 1_555 1_555
H13_2 C19_2 1_555 1_555
O10_2 Tb2 1_555 1_555
O13_2 Tb2 1_555 1_555
O8_2 H15_2 1_555 1_555
O8_2 H16_2 1_555 1_555
C17_2 H17_2 1_555 1_555
O12 C16_2 1_555 1_555
O6_2 C16_2 1_555 1_555
N1_2 C8_2 1_555 1_555
H2_2 C4_2 1_555 1_555
C5_2 C4_2 1_555 1_555
C6_2 C5_2 1_555 1_555
H3_2 C6_2 1_555 1_555
C8_2 C5_2 1_555 1_555
C10_2 C11_2 1_555 1_555
C12_2 N1_2 1_555 1_555
C13_2 C12_2 1_555 1_555
H6_2 C13_2 1_555 1_555
C14_2 C13_2 1_555 1_555
C15_2 C10_2 1_555 1_555
H7_2 C15_2 1_555 1_555
C16_2 C14_2 1_555 1_555
H14_2 C8_2 1_555 1_555
Tb5_2 O6_2 1_555 1_555
C11_2 C12_2 1_555 1_555
C14_2 C15_2 1_555 1_555
O3_2 C9_2 1_555 1_555
O4_2 C9_2 1_555 1_555
Tb4_2 O3_2 1_555 1_555
Tb3 O1_3 1_555 1_555
O1_3 C1_3 1_555 1_555
O2_3 Tb3 1_555 1_555
O9 C9_3 1_555 1_555
O11 C9_3 1_555 1_555
O5_2 C16_3 1_555 1_555
O6_3 C16_3 1_555 1_555
O7_3 Tb3 1_555 1_555
O8_3 Tb3 1_555 1_555
N1_3 C8_3 1_555 1_555
N2_3 C17_3 1_555 1_555
C1_3 O2_3 1_555 1_555
C2_3 C1_3 1_555 1_555
C3_3 C2_3 1_555 1_555
H1_3 C3_3 1_555 1_555
C4_3 C3_3 1_555 1_555
H2_3 C4_3 1_555 1_555
C5_3 C4_3 1_555 1_555
C6_3 C5_3 1_555 1_555
H3_3 C6_3 1_555 1_555
C7_3 C2_3 1_555 1_555
H4_3 C7_3 1_555 1_555
C8_3 C5_3 1_555 1_555
C9_3 C10_3 1_555 1_555
C10_3 C11_3 1_555 1_555
C11_3 H5_3 1_555 1_555
C12_3 N1_3 1_555 1_555
C13_3 C12_3 1_555 1_555
H6_3 C13_3 1_555 1_555
C14_3 C13_3 1_555 1_555
C15_3 C10_3 1_555 1_555
H7_3 C15_3 1_555 1_555
C16_3 C14_3 1_555 1_555
C17_3 O7_3 1_555 1_555
C18_3 N2_3 1_555 1_555
H8_3 C18_3 1_555 1_555
H9_3 C18_3 1_555 1_555
H10_3 C18_3 1_555 1_555
C19_3 N2_3 1_555 1_555
H11_3 C19_3 1_555 1_555
H12_3 C19_3 1_555 1_555
H13_3 C19_3 1_555 1_555
H14_3 C8_3 1_555 1_555
Tb5_2 O9 1_555 1_555
Tb4_2 O6_3 1_555 1_555
O10_3 Tb3 1_555 1_555
O12_2 Tb3 1_555 1_555
O13_3 Tb3 1_555 1_555
C6_3 C7_3 1_555 1_555
C11_3 C12_3 1_555 1_555
C14_3 C15_3 1_555 1_555
O8_3 H15_3 1_555 1_555
O8_3 H16_3 1_555 1_555
C17_3 H17_3 1_555 1_555
O9_2 C9_4 1_555 1_555
O11_2 C9_4 1_555 1_555
O12_2 C16_4 1_555 1_555
O6_4 C16_4 1_555 1_555
N1_4 C8_4 1_555 1_555
C1_4 O2_4 1_555 1_555
C2_4 C1_4 1_555 1_555
C3_4 C2_4 1_555 1_555
H1_4 C3_4 1_555 1_555
C4_4 C3_4 1_555 1_555
H2_4 C4_4 1_555 1_555
C5_4 C4_4 1_555 1_555
C6_4 C5_4 1_555 1_555
H3_4 C6_4 1_555 1_555
C7_4 C2_4 1_555 1_555
H4_4 C7_4 1_555 1_555
C8_4 C5_4 1_555 1_555
C9_4 C10_4 1_555 1_555
C10_4 C11_4 1_555 1_555
C11_4 H5_4 1_555 1_555
C12_4 N1_4 1_555 1_555
C13_4 C12_4 1_555 1_555
H6_4 C13_4 1_555 1_555
C14_4 C13_4 1_555 1_555
C15_4 C10_4 1_555 1_555
H7_4 C15_4 1_555 1_555
C16_4 C14_4 1_555 1_555
H14_4 C8_4 1_555 1_555
Tb5 O9_2 1_555 1_555
Tb4 O6_4 1_555 1_555
C6_4 C7_4 1_555 1_555
C11_4 C12_4 1_555 1_555
C14_4 C15_4 1_555 1_555
Tb3_2 O1_4 1_555 1_555
O7_4 Tb3_2 1_555 1_555
O8_4 Tb3_2 1_555 1_555
N2_4 C17_4 1_555 1_555
C17_4 O7_4 1_555 1_555
C18_4 N2_4 1_555 1_555
H8_4 C18_4 1_555 1_555
H9_4 C18_4 1_555 1_555
H10_4 C18_4 1_555 1_555
C19_4 N2_4 1_555 1_555
H11_4 C19_4 1_555 1_555
H12_4 C19_4 1_555 1_555
H13_4 C19_4 1_555 1_555
O10_4 Tb3_2 1_555 1_555
O13_4 Tb3_2 1_555 1_555
O8_4 H15_4 1_555 1_555
O8_4 H16_4 1_555 1_555
C17_4 H17_4 1_555 1_555
Tb4 O1_5 1_555 1_555
O1_5 C1_5 1_555 1_555
O2_5 Tb4 1_555 1_555
O7_5 Tb4 1_555 1_555
O8_5 Tb4 1_555 1_555
N2_5 C17_5 1_555 1_555
C1_5 O2_5 1_555 1_555
C2_5 C1_5 1_555 1_555
C3_5 C2_5 1_555 1_555
H1_5 C3_5 1_555 1_555
C7_5 C2_5 1_555 1_555
H4_5 C7_5 1_555 1_555
C17_5 O7_5 1_555 1_555
C18_5 N2_5 1_555 1_555
H8_5 C18_5 1_555 1_555
H9_5 C18_5 1_555 1_555
H10_5 C18_5 1_555 1_555
C19_5 N2_5 1_555 1_555
H11_5 C19_5 1_555 1_555
H12_5 C19_5 1_555 1_555
H13_5 C19_5 1_555 1_555
O10_3 Tb4 1_555 1_555
O11_3 Tb4 1_555 1_555
O12_3 Tb4 1_555 1_555
O8_5 H15_5 1_555 1_555
O8_5 H16_5 1_555 1_555
C17_5 H17_5 1_555 1_555
O10 C9_5 1_555 1_555
O4_3 C9_5 1_555 1_555
Tb5_2 O10 1_555 1_555
O4_3 Tb5_2 1_555 1_555
O5_3 C16_5 1_555 1_555
O13_4 C16_5 1_555 1_555
N1_5 C8_5 1_555 1_555
H2_5 C4_5 1_555 1_555
C5_5 C4_5 1_555 1_555
C6_5 C5_5 1_555 1_555
H3_5 C6_5 1_555 1_555
C8_5 C5_5 1_555 1_555
C10_5 C11_5 1_555 1_555
C12_5 N1_5 1_555 1_555
C13_5 C12_5 1_555 1_555
H6_5 C13_5 1_555 1_555
C14_5 C13_5 1_555 1_555
C15_5 C10_5 1_555 1_555
H7_5 C15_5 1_555 1_555
C16_5 C14_5 1_555 1_555
H14_5 C8_5 1_555 1_555
C11_5 C12_5 1_555 1_555
C14_5 C15_5 1_555 1_555
O10_2 C9_6 1_555 1_555
O4_4 C9_6 1_555 1_555
O12_3 C16_6 1_555 1_555
O13_3 C16_6 1_555 1_555
N1_6 C8_6 1_555 1_555
H2_6 C4_6 1_555 1_555
C5_6 C4_6 1_555 1_555
C6_6 C5_6 1_555 1_555
H3_6 C6_6 1_555 1_555
C8_6 C5_6 1_555 1_555
C10_6 C11_6 1_555 1_555
C12_6 N1_6 1_555 1_555
C13_6 C12_6 1_555 1_555
H6_6 C13_6 1_555 1_555
C14_6 C13_6 1_555 1_555
C15_6 C10_6 1_555 1_555
H7_6 C15_6 1_555 1_555
C16_6 C14_6 1_555 1_555
H14_6 C8_6 1_555 1_555
C11_6 C12_6 1_555 1_555
C14_6 C15_6 1_555 1_555
Tb4_2 O1_6 1_555 1_555
O7_6 Tb4_2 1_555 1_555
O8_6 Tb4_2 1_555 1_555
N2_6 C17_6 1_555 1_555
C17_6 O7_6 1_555 1_555
C18_6 N2_6 1_555 1_555
H8_6 C18_6 1_555 1_555
H9_6 C18_6 1_555 1_555
H10_6 C18_6 1_555 1_555
C19_6 N2_6 1_555 1_555
H11_6 C19_6 1_555 1_555
H12_6 C19_6 1_555 1_555
H13_6 C19_6 1_555 1_555
O8_6 H15_6 1_555 1_555
O8_6 H16_6 1_555 1_555
C17_6 H17_6 1_555 1_555
C1_6 O2_6 1_555 1_555
C2_6 C1_6 1_555 1_555
C3_6 C2_6 1_555 1_555
H1_6 C3_6 1_555 1_555
C7_6 C2_6 1_555 1_555
H4_6 C7_6 1_555 1_555
Tb5_2 O1_7 1_555 1_555
O1_7 C1_7 1_555 1_555
O2_7 Tb5_2 1_555 1_555
O10_3 C9_7 1_555 1_555
O11_3 C9_7 1_555 1_555
O5_4 C16_7 1_555 1_555
O13_2 C16_7 1_555 1_555
O7_7 Tb5_2 1_555 1_555
O8_7 Tb5_2 1_555 1_555
N1_7 C8_7 1_555 1_555
N2_7 C17_7 1_555 1_555
C1_7 O2_7 1_555 1_555
C2_7 C1_7 1_555 1_555
C3_7 C2_7 1_555 1_555
H1_7 C3_7 1_555 1_555
C4_7 C3_7 1_555 1_555
H2_7 C4_7 1_555 1_555
C5_7 C4_7 1_555 1_555
C6_7 C5_7 1_555 1_555
H3_7 C6_7 1_555 1_555
C7_7 C2_7 1_555 1_555
H4_7 C7_7 1_555 1_555
C8_7 C5_7 1_555 1_555
C9_7 C10_7 1_555 1_555
C10_7 C11_7 1_555 1_555
C11_7 H5_7 1_555 1_555
C12_7 N1_7 1_555 1_555
C13_7 C12_7 1_555 1_555
H6_7 C13_7 1_555 1_555
C14_7 C13_7 1_555 1_555
C15_7 C10_7 1_555 1_555
H7_7 C15_7 1_555 1_555
C16_7 C14_7 1_555 1_555
C17_7 O7_7 1_555 1_555
C18_7 N2_7 1_555 1_555
H8_7 C18_7 1_555 1_555
H9_7 C18_7 1_555 1_555
H10_7 C18_7 1_555 1_555
C19_7 N2_7 1_555 1_555
H11_7 C19_7 1_555 1_555
H12_7 C19_7 1_555 1_555
H13_7 C19_7 1_555 1_555
H14_7 C8_7 1_555 1_555
O12_4 Tb5_2 1_555 1_555
C6_7 C7_7 1_555 1_555
C11_7 C12_7 1_555 1_555
C14_7 C15_7 1_555 1_555
O8_7 H15_7 1_555 1_555
O8_7 H16_7 1_555 1_555
C17_7 H17_7 1_555 1_555
Tb5 O1_8 1_555 1_555
O7_8 Tb5 1_555 1_555
O8_8 Tb5 1_555 1_555
N2_8 C17_8 1_555 1_555
C17_8 O7_8 1_555 1_555
C18_8 N2_8 1_555 1_555
H8_8 C18_8 1_555 1_555
H9_8 C18_8 1_555 1_555
H10_8 C18_8 1_555 1_555
C19_8 N2_8 1_555 1_555
H11_8 C19_8 1_555 1_555
H12_8 C19_8 1_555 1_555
H13_8 C19_8 1_555 1_555
O8_8 H15_8 1_555 1_555
O8_8 H16_8 1_555 1_555
C17_8 H17_8 1_555 1_555
O10_4 C9_8 1_555 1_555
O11_4 C9_8 1_555 1_555
O12_4 C16_8 1_555 1_555
O13 C16_8 1_555 1_555
N1_8 C8_8 1_555 1_555
C1_8 O2_8 1_555 1_555
C2_8 C1_8 1_555 1_555
C3_8 C2_8 1_555 1_555
H1_8 C3_8 1_555 1_555
C4_8 C3_8 1_555 1_555
H2_8 C4_8 1_555 1_555
C5_8 C4_8 1_555 1_555
C6_8 C5_8 1_555 1_555
H3_8 C6_8 1_555 1_555
C7_8 C2_8 1_555 1_555
H4_8 C7_8 1_555 1_555
C8_8 C5_8 1_555 1_555
C9_8 C10_8 1_555 1_555
C10_8 C11_8 1_555 1_555
C11_8 H5_8 1_555 1_555
C12_8 N1_8 1_555 1_555
C13_8 C12_8 1_555 1_555
H6_8 C13_8 1_555 1_555
C14_8 C13_8 1_555 1_555
C15_8 C10_8 1_555 1_555
H7_8 C15_8 1_555 1_555
C16_8 C14_8 1_555 1_555
H14_8 C8_8 1_555 1_555
C6_8 C7_8 1_555 1_555
C11_8 C12_8 1_555 1_555
C14_8 C15_8 1_555 1_555

#END
