
###############################################################################
#
# This file contains modified crystal structure data generated from the
# MOF subset of the Cambridge Structural Database (CSD) v543 
# hosted by the Cambridge Crystallographic Data Centre (CCDC).
#
# This work is licensed under the Creative Commons
# Attribution-NonCommercial-ShareAlike 4.0 International License.
# To view a copy of this license, visit
# http://creativecommons.org/licenses/by-nc-sa/4.0/
# or send a letter to
# Creative Commons, PO Box 1866, Mountain View, CA 94042, USA.
#
# CIF created using the CSD Python API on 29 September 2022
# The structure has been converted into the P1 space group
# The structure has a 3D framework
# The original CSD entry BETDUB is in the monoclinic crystal system
# The framework has been calculated to contain at least 10.0% void space
# The void calculation uses a probe of radius 1.32A, grid spacing 0.4
# H atom positions have been added when not included in the experimental data
#
###############################################################################

data_BETDUB
_chemical_formula_moiety         '(C152 H136 Eu8 N16 O64)n'
_symmetry_cell_setting           triclinic
_symmetry_space_group_name_H-M   'P 1'
_symmetry_Int_Tables_number      1
_space_group_name_Hall           'P 1'
loop_
_symmetry_equiv_pos_site_id
_symmetry_equiv_pos_as_xyz
1 x,y,z
_cell_length_a                   29.255(2)
_cell_length_b                   12.6990(19)
_cell_length_c                   14.2602(10)
_cell_angle_alpha                90
_cell_angle_beta                 97.522(8)
_cell_angle_gamma                90
_cell_volume                     5252.21
loop_
_atom_site_label
_atom_site_type_symbol
_atom_site_fract_x
_atom_site_fract_y
_atom_site_fract_z
O3 O 0.2298(2) 0.6440(5) 0.4710(5)
O4 O 0.2880(2) 0.5413(6) 0.4551(5)
O5 O 0.2664(3) 0.3225(7) 0.1621(5)
O6 O 0.1986(2) 0.2427(8) 0.1231(5)
N1 N 0.0953(3) 0.3990(8) 0.3499(5)
C4 C 0.0119(5) 0.1960(10) 0.3765(12)
H2 H 0.0288 0.1395 0.3577
C5 C 0.0296(4) 0.2953(10) 0.3739(8)
C6 C 0.0036(4) 0.3785(11) 0.4034(8)
H3 H 0.0147 0.4470 0.4015
C8 C 0.0764(4) 0.3126(11) 0.3460(8)
H5 H 0.088(4) 0.245(4) 0.336(9)
C9 C 0.2461(3) 0.5620(8) 0.4351(7)
C10 C 0.2158(3) 0.4902(8) 0.3749(6)
C11 C 0.1694(3) 0.4816(9) 0.3845(6)
H6 H 0.1569 0.5246 0.4274
C12 C 0.1414(3) 0.4099(8) 0.3311(6)
C13 C 0.1593(3) 0.3503(9) 0.2617(6)
H7 H 0.1410 0.3019 0.2252
C14 C 0.2058(3) 0.3652(9) 0.2485(6)
C15 C 0.2342(3) 0.4301(8) 0.3068(6)
H8 H 0.2654 0.4341 0.3011
C16 C 0.2256(3) 0.3055(9) 0.1721(7)
Eu3 Eu 0.314484(15) 0.69936(4) 0.54244(3)
Eu4 Eu 0.185516(15) 0.80064(4) 0.45756(3)
Eu5 Eu 0.314484(15) 0.30064(4) 0.04244(3)
Eu2 Eu 0.185516(15) 0.19936(4) 0.95756(3)
Eu1 Eu 0.814484(15) 0.19936(4) 0.54244(3)
O1 O 0.8858(2) 0.1486(7) 0.4800(6)
O2 O 0.8767(3) 0.3181(6) 0.4996(6)
O7 O 0.8464(3) 0.0471(8) 0.6307(7)
O8 O 0.8588(3) 0.2704(8) 0.6826(7)
N2 N 0.8863(7) 0.3558(17) 0.8183(14)
C1 C 0.8999(3) 0.2442(10) 0.4761(7)
C2 C 0.9445(3) 0.2615(10) 0.4352(8)
C3 C 0.9697(4) 0.1776(12) 0.4061(11)
H1 H 0.9582 0.1095 0.4067
C7 C 0.9619(4) 0.3601(11) 0.4353(9)
H4 H 0.9456 0.4159 0.4571
C17 C 0.8481(10) 0.3107(19) 0.758(2)
C18 C 0.8656(9) 0.411(2) 0.8927(18)
H9 H 0.8894 0.4440 0.9357
H10 H 0.8490 0.3620 0.9266
H11 H 0.8447 0.4643 0.8645
C19 C 0.9340(8) 0.372(2) 0.8023(18)
H12 H 0.9510 0.4038 0.8573
H13 H 0.9348 0.4174 0.7487
H14 H 0.9477 0.3054 0.7903
O9 O 0.7298(2) 0.1440(5) 0.4710(5)
O10 O 0.7702(2) 0.3560(5) 0.5290(5)
O11 O 0.7880(2) 0.0413(6) 0.4551(5)
O12 O 0.7664(3) 0.1775(7) 0.6621(5)
O13 O 0.8014(2) 0.2427(8) 0.3769(5)
H15 H 0.877716 0.0642405 0.662758
H16 H 0.826204 0.0276088 0.67876
H17 H 0.812985 0.311133 0.775609
O1_2 O 0.1142(2) 0.1486(7) 0.0200(6)
O2_2 O 0.1233(3) 0.3181(6) 0.0004(6)
C1_2 C 0.1001(3) 0.2442(10) 0.0239(7)
C2_2 C 0.0555(3) 0.2615(10) 0.0648(8)
C3_2 C 0.0303(4) 0.1776(12) 0.0939(11)
H1_2 H 0.0418 0.1095 0.0933
C7_2 C 0.0381(4) 0.3601(11) 0.0647(9)
H4_2 H 0.0544 0.4159 0.0429
O9_2 O 0.2702(2) 0.1440(5) 0.0290(5)
O11_2 O 0.2120(2) 0.0413(6) 0.0449(5)
O7_2 O 0.1536(3) 0.0471(8) 0.8693(7)
O8_2 O 0.1412(3) 0.2704(8) 0.8174(7)
N2_2 N 0.1137(7) 0.3558(17) 0.6817(14)
C17_2 C 0.1519(10) 0.3107(19) 0.742(2)
C18_2 C 0.1344(9) 0.411(2) 0.6073(18)
H9_2 H 0.1106 0.4440 0.5643
H10_2 H 0.1510 0.3620 0.5734
H11_2 H 0.1553 0.4643 0.6355
C19_2 C 0.0660(8) 0.372(2) 0.6977(18)
H12_2 H 0.0490 0.4038 0.6427
H13_2 H 0.0652 0.4174 0.7513
H14_2 H 0.0523 0.3054 0.7097
O10_2 O 0.2298(2) 0.3560(5) 0.9710(5)
O12_2 O 0.2336(3) 0.1775(7) 0.8379(5)
H15_2 H 0.122284 0.0642405 0.837242
H16_2 H 0.173796 0.0276088 0.82124
H17_2 H 0.187015 0.311133 0.724391
O3_2 O 0.7702(2) 0.6440(5) 0.0290(5)
O4_2 O 0.7120(2) 0.5413(6) 0.0449(5)
O5_2 O 0.7336(3) 0.3225(7) 0.3379(5)
N1_2 N 0.9047(3) 0.3990(8) 0.1501(5)
C4_2 C 0.9881(5) 0.1960(10) 0.1235(12)
H2_2 H 0.9712 0.1395 0.1423
C5_2 C 0.9704(4) 0.2953(10) 0.1261(8)
C6_2 C 0.9964(4) 0.3785(11) 0.0966(8)
H3_2 H 0.9853 0.4470 0.0985
C8_2 C 0.9236(4) 0.3126(11) 0.1540(8)
H5_2 H 0.912(4) 0.245(4) 0.164(9)
C9_2 C 0.7539(3) 0.5620(8) 0.0649(7)
C10_2 C 0.7842(3) 0.4902(8) 0.1251(6)
C11_2 C 0.8306(3) 0.4816(9) 0.1155(6)
H6_2 H 0.8431 0.5246 0.0726
C12_2 C 0.8586(3) 0.4099(8) 0.1689(6)
C13_2 C 0.8407(3) 0.3503(9) 0.2383(6)
H7_2 H 0.8590 0.3019 0.2748
C14_2 C 0.7942(3) 0.3652(9) 0.2515(6)
C15_2 C 0.7658(3) 0.4301(8) 0.1932(6)
H8_2 H 0.7346 0.4341 0.1989
C16_2 C 0.7744(3) 0.3055(9) 0.3279(7)
Eu4_2 Eu 0.814484(15) 0.80064(4) 0.04244(3)
Eu5_2 Eu 0.685516(15) 0.30064(4) 0.45756(3)
Eu3_2 Eu 0.685516(15) 0.69936(4) 0.95756(3)
C9_3 C 0.7461(3) 0.0620(8) 0.4351(7)
H6_3 H 0.6569 0.0246 0.4274
O1_3 O 0.3858(2) 0.6486(7) 0.4800(6)
O2_3 O 0.3767(3) 0.8181(6) 0.4996(6)
O5_3 O 0.7664(3) 0.8225(7) 0.1621(5)
O6_2 O 0.6986(2) 0.7427(8) 0.1231(5)
O7_3 O 0.3464(3) 0.5471(8) 0.6307(7)
O8_3 O 0.3588(3) 0.7704(8) 0.6826(7)
N1_3 N 0.5953(3) 0.8990(8) 0.3499(5)
N2_3 N 0.3863(7) 0.8558(17) 0.8183(14)
C1_3 C 0.3999(3) 0.7442(10) 0.4761(7)
C2_3 C 0.4445(3) 0.7615(10) 0.4352(8)
C3_3 C 0.4697(4) 0.6776(12) 0.4061(11)
H1_3 H 0.4582 0.6095 0.4067
C4_3 C 0.5119(5) 0.6960(10) 0.3765(12)
H2_3 H 0.5288 0.6395 0.3577
C5_3 C 0.5296(4) 0.7953(10) 0.3739(8)
C6_3 C 0.5036(4) 0.8785(11) 0.4034(8)
H3_3 H 0.5147 0.9470 0.4015
C7_3 C 0.4619(4) 0.8601(11) 0.4353(9)
H4_3 H 0.4456 0.9159 0.4571
C8_3 C 0.5764(4) 0.8126(11) 0.3460(8)
H5_3 H 0.588(4) 0.745(4) 0.336(9)
C10_3 C 0.7158(3) 0.9902(8) 0.3749(6)
C11_3 C 0.6694(3) 0.9816(9) 0.3845(6)
C12_3 C 0.6414(3) 0.9099(8) 0.3311(6)
C13_3 C 0.6593(3) 0.8503(9) 0.2617(6)
H7_3 H 0.6410 0.8019 0.2252
C14_3 C 0.7058(3) 0.8652(9) 0.2485(6)
C15_3 C 0.7342(3) 0.9301(8) 0.3068(6)
H8_3 H 0.7654 0.9341 0.3011
C16_3 C 0.7256(3) 0.8055(9) 0.1721(7)
C17_3 C 0.3481(10) 0.8107(19) 0.758(2)
C18_3 C 0.3656(9) 0.911(2) 0.8927(18)
H9_3 H 0.3894 0.9440 0.9357
H10_3 H 0.3490 0.8620 0.9266
H11_3 H 0.3447 0.9643 0.8645
C19_3 C 0.4340(8) 0.872(2) 0.8023(18)
H12_3 H 0.4510 0.9038 0.8573
H13_3 H 0.4348 0.9174 0.7487
H14_3 H 0.4477 0.8054 0.7903
O10_3 O 0.2702(2) 0.8560(5) 0.5290(5)
O12_3 O 0.2664(3) 0.6775(7) 0.6621(5)
O13_2 O 0.3014(2) 0.7427(8) 0.3769(5)
H15_3 H 0.377716 0.56424 0.662758
H16_3 H 0.326204 0.527609 0.67876
H17_3 H 0.312985 0.811133 0.775609
C9_4 C 0.2539(3) 0.0620(8) 0.0649(7)
H6_4 H 0.3431 0.0246 0.0726
O1_4 O 0.6142(2) 0.6486(7) 0.0200(6)
O2_4 O 0.6233(3) 0.8181(6) 0.0004(6)
O5_4 O 0.2336(3) 0.8225(7) 0.3379(5)
N1_4 N 0.4047(3) 0.8990(8) 0.1501(5)
C1_4 C 0.6001(3) 0.7442(10) 0.0239(7)
C2_4 C 0.5555(3) 0.7615(10) 0.0648(8)
C3_4 C 0.5303(4) 0.6776(12) 0.0939(11)
H1_4 H 0.5418 0.6095 0.0933
C4_4 C 0.4881(5) 0.6960(10) 0.1235(12)
H2_4 H 0.4712 0.6395 0.1423
C5_4 C 0.4704(4) 0.7953(10) 0.1261(8)
C6_4 C 0.4964(4) 0.8785(11) 0.0966(8)
H3_4 H 0.4853 0.9470 0.0985
C7_4 C 0.5381(4) 0.8601(11) 0.0647(9)
H4_4 H 0.5544 0.9159 0.0429
C8_4 C 0.4236(4) 0.8126(11) 0.1540(8)
H5_4 H 0.412(4) 0.745(4) 0.164(9)
C10_4 C 0.2842(3) 0.9902(8) 0.1251(6)
C11_4 C 0.3306(3) 0.9816(9) 0.1155(6)
C12_4 C 0.3586(3) 0.9099(8) 0.1689(6)
C13_4 C 0.3407(3) 0.8503(9) 0.2383(6)
H7_4 H 0.3590 0.8019 0.2748
C14_4 C 0.2942(3) 0.8652(9) 0.2515(6)
C15_4 C 0.2658(3) 0.9301(8) 0.1932(6)
H8_4 H 0.2346 0.9341 0.1989
C16_4 C 0.2744(3) 0.8055(9) 0.3279(7)
O7_4 O 0.6536(3) 0.5471(8) 0.8693(7)
O8_4 O 0.6412(3) 0.7704(8) 0.8174(7)
N2_4 N 0.6137(7) 0.8558(17) 0.6817(14)
C17_4 C 0.6519(10) 0.8107(19) 0.742(2)
C18_4 C 0.6344(9) 0.911(2) 0.6073(18)
H9_4 H 0.6106 0.9440 0.5643
H10_4 H 0.6510 0.8620 0.5734
H11_4 H 0.6553 0.9643 0.6355
C19_4 C 0.5660(8) 0.872(2) 0.6977(18)
H12_4 H 0.5490 0.9038 0.6427
H13_4 H 0.5652 0.9174 0.7513
H14_4 H 0.5523 0.8054 0.7097
O10_4 O 0.7298(2) 0.8560(5) 0.9710(5)
O12_4 O 0.7336(3) 0.6775(7) 0.8379(5)
H15_4 H 0.622284 0.56424 0.837242
H16_4 H 0.673796 0.527609 0.82124
H17_4 H 0.687015 0.811133 0.724391
O1_5 O 0.1142(2) 0.8514(7) 0.5200(6)
O2_5 O 0.1233(3) 0.6819(6) 0.5004(6)
O7_5 O 0.1536(3) 0.9529(8) 0.3693(7)
O8_5 O 0.1412(3) 0.7296(8) 0.3174(7)
N2_5 N 0.1137(7) 0.6442(17) 0.1817(14)
C1_5 C 0.1001(3) 0.7558(10) 0.5239(7)
C2_5 C 0.0555(3) 0.7385(10) 0.5648(8)
C3_5 C 0.0303(4) 0.8224(12) 0.5939(11)
H1_5 H 0.0418 0.8905 0.5933
C7_5 C 0.0381(4) 0.6399(11) 0.5647(9)
H4_5 H 0.0544 0.5841 0.5429
C17_5 C 0.1519(10) 0.6893(19) 0.242(2)
C18_5 C 0.1344(9) 0.589(2) 0.1073(18)
H9_5 H 0.1106 0.5560 0.0643
H10_5 H 0.1510 0.6380 0.0734
H11_5 H 0.1553 0.5357 0.1355
C19_5 C 0.0660(8) 0.628(2) 0.1977(18)
H12_5 H 0.0490 0.5962 0.1427
H13_5 H 0.0652 0.5826 0.2513
H14_5 H 0.0523 0.6946 0.2097
O11_3 O 0.2120(2) 0.9587(6) 0.5449(5)
O13_3 O 0.1986(2) 0.7573(8) 0.6231(5)
H15_5 H 0.122284 0.93576 0.337242
H16_5 H 0.173796 0.972391 0.32124
H17_5 H 0.187015 0.688867 0.224391
O4_3 O 0.7120(2) 0.4587(6) 0.5449(5)
O6_3 O 0.8014(2) 0.7573(8) 0.8769(5)
N1_5 N 0.9047(3) 0.6010(8) 0.6501(5)
C4_5 C 0.9881(5) 0.8040(10) 0.6235(12)
H2_5 H 0.9712 0.8605 0.6423
C5_5 C 0.9704(4) 0.7047(10) 0.6261(8)
C6_5 C 0.9964(4) 0.6215(11) 0.5966(8)
H3_5 H 0.9853 0.5530 0.5985
C8_5 C 0.9236(4) 0.6874(11) 0.6540(8)
H5_5 H 0.912(4) 0.755(4) 0.664(9)
C9_5 C 0.7539(3) 0.4380(8) 0.5649(7)
C10_5 C 0.7842(3) 0.5098(8) 0.6251(6)
C11_5 C 0.8306(3) 0.5184(9) 0.6155(6)
H6_5 H 0.8431 0.4754 0.5726
C12_5 C 0.8586(3) 0.5901(8) 0.6689(6)
C13_5 C 0.8407(3) 0.6497(9) 0.7383(6)
H7_5 H 0.8590 0.6981 0.7748
C14_5 C 0.7942(3) 0.6348(9) 0.7515(6)
C15_5 C 0.7658(3) 0.5699(8) 0.6932(6)
H8_5 H 0.7346 0.5659 0.6989
C16_5 C 0.7744(3) 0.6945(9) 0.8279(7)
O4_4 O 0.2880(2) 0.4587(6) 0.9551(5)
N1_6 N 0.0953(3) 0.6010(8) 0.8499(5)
C4_6 C 0.0119(5) 0.8040(10) 0.8765(12)
H2_6 H 0.0288 0.8605 0.8577
C5_6 C 0.0296(4) 0.7047(10) 0.8739(8)
C6_6 C 0.0036(4) 0.6215(11) 0.9034(8)
H3_6 H 0.0147 0.5530 0.9015
C8_6 C 0.0764(4) 0.6874(11) 0.8460(8)
H5_6 H 0.088(4) 0.755(4) 0.836(9)
C9_6 C 0.2461(3) 0.4380(8) 0.9351(7)
C10_6 C 0.2158(3) 0.5098(8) 0.8749(6)
C11_6 C 0.1694(3) 0.5184(9) 0.8845(6)
H6_6 H 0.1569 0.4754 0.9274
C12_6 C 0.1414(3) 0.5901(8) 0.8311(6)
C13_6 C 0.1593(3) 0.6497(9) 0.7617(6)
H7_6 H 0.1410 0.6981 0.7252
C14_6 C 0.2058(3) 0.6348(9) 0.7485(6)
C15_6 C 0.2342(3) 0.5699(8) 0.8068(6)
H8_6 H 0.2654 0.5659 0.8011
C16_6 C 0.2256(3) 0.6945(9) 0.6721(7)
O7_6 O 0.8464(3) 0.9529(8) 0.1307(7)
O8_6 O 0.8588(3) 0.7296(8) 0.1826(7)
N2_6 N 0.8863(7) 0.6442(17) 0.3183(14)
C17_6 C 0.8481(10) 0.6893(19) 0.258(2)
C18_6 C 0.8656(9) 0.589(2) 0.3927(18)
H9_6 H 0.8894 0.5560 0.4357
H10_6 H 0.8490 0.6380 0.4266
H11_6 H 0.8447 0.5357 0.3645
C19_6 C 0.9340(8) 0.628(2) 0.3023(18)
H12_6 H 0.9510 0.5962 0.3573
H13_6 H 0.9348 0.5826 0.2487
H14_6 H 0.9477 0.6946 0.2903
H15_6 H 0.877716 0.93576 0.162758
H16_6 H 0.826204 0.972391 0.17876
H17_6 H 0.812985 0.688867 0.275609
O1_6 O 0.8858(2) 0.8514(7) 0.9800(6)
O2_6 O 0.8767(3) 0.6819(6) 0.9996(6)
C1_6 C 0.8999(3) 0.7558(10) 0.9761(7)
C2_6 C 0.9445(3) 0.7385(10) 0.9352(8)
C3_6 C 0.9697(4) 0.8224(12) 0.9061(11)
H1_6 H 0.9582 0.8905 0.9067
C7_6 C 0.9619(4) 0.6399(11) 0.9353(9)
H4_6 H 0.9456 0.5841 0.9571
O11_4 O 0.7880(2) 0.9587(6) 0.9551(5)
O1_7 O 0.6142(2) 0.3514(7) 0.5200(6)
O2_7 O 0.6233(3) 0.1819(6) 0.5004(6)
O6_4 O 0.3014(2) 0.2573(8) 0.8769(5)
O7_7 O 0.6536(3) 0.4529(8) 0.3693(7)
O8_7 O 0.6412(3) 0.2296(8) 0.3174(7)
N1_7 N 0.4047(3) 0.1010(8) 0.6501(5)
N2_7 N 0.6137(7) 0.1442(17) 0.1817(14)
C1_7 C 0.6001(3) 0.2558(10) 0.5239(7)
C2_7 C 0.5555(3) 0.2385(10) 0.5648(8)
C3_7 C 0.5303(4) 0.3224(12) 0.5939(11)
H1_7 H 0.5418 0.3905 0.5933
C4_7 C 0.4881(5) 0.3040(10) 0.6235(12)
H2_7 H 0.4712 0.3605 0.6423
C5_7 C 0.4704(4) 0.2047(10) 0.6261(8)
C6_7 C 0.4964(4) 0.1215(11) 0.5966(8)
H3_7 H 0.4853 0.0530 0.5985
C7_7 C 0.5381(4) 0.1399(11) 0.5647(9)
H4_7 H 0.5544 0.0841 0.5429
C8_7 C 0.4236(4) 0.1874(11) 0.6540(8)
H5_7 H 0.412(4) 0.255(4) 0.664(9)
C10_7 C 0.2842(3) 0.0098(8) 0.6251(6)
C11_7 C 0.3306(3) 0.0184(9) 0.6155(6)
C12_7 C 0.3586(3) 0.0901(8) 0.6689(6)
C13_7 C 0.3407(3) 0.1497(9) 0.7383(6)
H7_7 H 0.3590 0.1981 0.7748
C14_7 C 0.2942(3) 0.1348(9) 0.7515(6)
C15_7 C 0.2658(3) 0.0699(8) 0.6932(6)
H8_7 H 0.2346 0.0659 0.6989
C16_7 C 0.2744(3) 0.1945(9) 0.8279(7)
C17_7 C 0.6519(10) 0.1893(19) 0.242(2)
C18_7 C 0.6344(9) 0.089(2) 0.1073(18)
H9_7 H 0.6106 0.0560 0.0643
H10_7 H 0.6510 0.1380 0.0734
H11_7 H 0.6553 0.0357 0.1355
C19_7 C 0.5660(8) 0.128(2) 0.1977(18)
H12_7 H 0.5490 0.0962 0.1427
H13_7 H 0.5652 0.0826 0.2513
H14_7 H 0.5523 0.1946 0.2097
O13_4 O 0.6986(2) 0.2573(8) 0.6231(5)
H15_7 H 0.622284 0.43576 0.337242
H16_7 H 0.673796 0.472391 0.32124
H17_7 H 0.687015 0.188867 0.224391
C9_7 C 0.2539(3) 0.9380(8) 0.5649(7)
H6_7 H 0.3431 0.9754 0.5726
O7_8 O 0.3464(3) 0.4529(8) 0.1307(7)
O8_8 O 0.3588(3) 0.2296(8) 0.1826(7)
N2_8 N 0.3863(7) 0.1442(17) 0.3183(14)
C17_8 C 0.3481(10) 0.1893(19) 0.258(2)
C18_8 C 0.3656(9) 0.089(2) 0.3927(18)
H9_8 H 0.3894 0.0560 0.4357
H10_8 H 0.3490 0.1380 0.4266
H11_8 H 0.3447 0.0357 0.3645
C19_8 C 0.4340(8) 0.128(2) 0.3023(18)
H12_8 H 0.4510 0.0962 0.3573
H13_8 H 0.4348 0.0826 0.2487
H14_8 H 0.4477 0.1946 0.2903
H15_8 H 0.377716 0.43576 0.162758
H16_8 H 0.326204 0.472391 0.17876
H17_8 H 0.312985 0.188867 0.275609
O1_8 O 0.3858(2) 0.3514(7) 0.9800(6)
O2_8 O 0.3767(3) 0.1819(6) 0.9996(6)
N1_8 N 0.5953(3) 0.1010(8) 0.8499(5)
C1_8 C 0.3999(3) 0.2558(10) 0.9761(7)
C2_8 C 0.4445(3) 0.2385(10) 0.9352(8)
C3_8 C 0.4697(4) 0.3224(12) 0.9061(11)
H1_8 H 0.4582 0.3905 0.9067
C4_8 C 0.5119(5) 0.3040(10) 0.8765(12)
H2_8 H 0.5288 0.3605 0.8577
C5_8 C 0.5296(4) 0.2047(10) 0.8739(8)
C6_8 C 0.5036(4) 0.1215(11) 0.9034(8)
H3_8 H 0.5147 0.0530 0.9015
C7_8 C 0.4619(4) 0.1399(11) 0.9353(9)
H4_8 H 0.4456 0.0841 0.9571
C8_8 C 0.5764(4) 0.1874(11) 0.8460(8)
H5_8 H 0.588(4) 0.255(4) 0.836(9)
C10_8 C 0.7158(3) 0.0098(8) 0.8749(6)
C11_8 C 0.6694(3) 0.0184(9) 0.8845(6)
C12_8 C 0.6414(3) 0.0901(8) 0.8311(6)
C13_8 C 0.6593(3) 0.1497(9) 0.7617(6)
H7_8 H 0.6410 0.1981 0.7252
C14_8 C 0.7058(3) 0.1348(9) 0.7485(6)
C15_8 C 0.7342(3) 0.0699(8) 0.8068(6)
H8_8 H 0.7654 0.0659 0.8011
C16_8 C 0.7256(3) 0.1945(9) 0.6721(7)
C9_8 C 0.7461(3) 0.9380(8) 0.9351(7)
H6_8 H 0.6569 0.9754 0.9274
loop_
_geom_bond_atom_site_label_1
_geom_bond_atom_site_label_2
_geom_bond_site_symmetry_1
_geom_bond_site_symmetry_2
O3 C9 1_555 1_555
O4 C9 1_555 1_555
O5 C16 1_555 1_555
O6 C16 1_555 1_555
N1 C8 1_555 1_555
H2 C4 1_555 1_555
C5 C4 1_555 1_555
C6 C5 1_555 1_555
H3 C6 1_555 1_555
C8 C5 1_555 1_555
H5 C8 1_555 1_555
C9 C10 1_555 1_555
C10 C11 1_555 1_555
C11 H6 1_555 1_555
C12 N1 1_555 1_555
C13 C12 1_555 1_555
H7 C13 1_555 1_555
C14 C13 1_555 1_555
C15 C10 1_555 1_555
H8 C15 1_555 1_555
C16 C14 1_555 1_555
Eu3 O3 1_555 1_555
Eu4 O3 1_555 1_555
Eu5 O5 1_555 1_555
O4 Eu3 1_555 1_555
C11 C12 1_555 1_555
C14 C15 1_555 1_555
Eu1 O1 1_555 1_555
O1 C1 1_555 1_555
O2 Eu1 1_555 1_555
O7 Eu1 1_555 1_555
O8 Eu1 1_555 1_555
N2 C17 1_555 1_555
C1 O2 1_555 1_555
C2 C1 1_555 1_555
C3 C2 1_555 1_555
H1 C3 1_555 1_555
C7 C2 1_555 1_555
H4 C7 1_555 1_555
C17 O8 1_555 1_555
C18 N2 1_555 1_555
H9 C18 1_555 1_555
H10 C18 1_555 1_555
H11 C18 1_555 1_555
C19 N2 1_555 1_555
H12 C19 1_555 1_555
H13 C19 1_555 1_555
H14 C19 1_555 1_555
O9 Eu1 1_555 1_555
O10 Eu1 1_555 1_555
O11 Eu1 1_555 1_555
O12 Eu1 1_555 1_555
O13 Eu1 1_555 1_555
O7 H15 1_555 1_555
O7 H16 1_555 1_555
C17 H17 1_555 1_555
O1_2 C1_2 1_555 1_555
C1_2 O2_2 1_555 1_555
C2_2 C1_2 1_555 1_555
C3_2 C2_2 1_555 1_555
H1_2 C3_2 1_555 1_555
C7_2 C2_2 1_555 1_555
H4_2 C7_2 1_555 1_555
O7_2 Eu2 1_555 1_555
O8_2 Eu2 1_555 1_555
N2_2 C17_2 1_555 1_555
C17_2 O8_2 1_555 1_555
C18_2 N2_2 1_555 1_555
H9_2 C18_2 1_555 1_555
H10_2 C18_2 1_555 1_555
H11_2 C18_2 1_555 1_555
C19_2 N2_2 1_555 1_555
H12_2 C19_2 1_555 1_555
H13_2 C19_2 1_555 1_555
H14_2 C19_2 1_555 1_555
O10_2 Eu2 1_555 1_555
O12_2 Eu2 1_555 1_555
O7_2 H15_2 1_555 1_555
O7_2 H16_2 1_555 1_555
C17_2 H17_2 1_555 1_555
O3_2 C9_2 1_555 1_555
O4_2 C9_2 1_555 1_555
O5_2 C16_2 1_555 1_555
O13 C16_2 1_555 1_555
N1_2 C8_2 1_555 1_555
H2_2 C4_2 1_555 1_555
C5_2 C4_2 1_555 1_555
C6_2 C5_2 1_555 1_555
H3_2 C6_2 1_555 1_555
C8_2 C5_2 1_555 1_555
H5_2 C8_2 1_555 1_555
C9_2 C10_2 1_555 1_555
C10_2 C11_2 1_555 1_555
C11_2 H6_2 1_555 1_555
C12_2 N1_2 1_555 1_555
C13_2 C12_2 1_555 1_555
H7_2 C13_2 1_555 1_555
C14_2 C13_2 1_555 1_555
C15_2 C10_2 1_555 1_555
H8_2 C15_2 1_555 1_555
C16_2 C14_2 1_555 1_555
Eu4_2 O3_2 1_555 1_555
Eu5_2 O5_2 1_555 1_555
C11_2 C12_2 1_555 1_555
C14_2 C15_2 1_555 1_555
O9 C9_3 1_555 1_555
O11 C9_3 1_555 1_555
Eu5_2 O9 1_555 1_555
Eu3 O1_3 1_555 1_555
O1_3 C1_3 1_555 1_555
O2_3 Eu3 1_555 1_555
O5_3 C16_3 1_555 1_555
O6_2 C16_3 1_555 1_555
O7_3 Eu3 1_555 1_555
O8_3 Eu3 1_555 1_555
N1_3 C8_3 1_555 1_555
N2_3 C17_3 1_555 1_555
C1_3 O2_3 1_555 1_555
C2_3 C1_3 1_555 1_555
C3_3 C2_3 1_555 1_555
H1_3 C3_3 1_555 1_555
C4_3 C3_3 1_555 1_555
H2_3 C4_3 1_555 1_555
C5_3 C4_3 1_555 1_555
C6_3 C5_3 1_555 1_555
H3_3 C6_3 1_555 1_555
C7_3 C2_3 1_555 1_555
H4_3 C7_3 1_555 1_555
C8_3 C5_3 1_555 1_555
H5_3 C8_3 1_555 1_555
C10_3 C11_3 1_555 1_555
C12_3 N1_3 1_555 1_555
C13_3 C12_3 1_555 1_555
H7_3 C13_3 1_555 1_555
C14_3 C13_3 1_555 1_555
C15_3 C10_3 1_555 1_555
H8_3 C15_3 1_555 1_555
C16_3 C14_3 1_555 1_555
C17_3 O8_3 1_555 1_555
C18_3 N2_3 1_555 1_555
H9_3 C18_3 1_555 1_555
H10_3 C18_3 1_555 1_555
H11_3 C18_3 1_555 1_555
C19_3 N2_3 1_555 1_555
H12_3 C19_3 1_555 1_555
H13_3 C19_3 1_555 1_555
H14_3 C19_3 1_555 1_555
Eu4_2 O5_3 1_555 1_555
O10_3 Eu3 1_555 1_555
O12_3 Eu3 1_555 1_555
O13_2 Eu3 1_555 1_555
C6_3 C7_3 1_555 1_555
C11_3 C12_3 1_555 1_555
C14_3 C15_3 1_555 1_555
O7_3 H15_3 1_555 1_555
O7_3 H16_3 1_555 1_555
C17_3 H17_3 1_555 1_555
O9_2 C9_4 1_555 1_555
O11_2 C9_4 1_555 1_555
Eu5 O9_2 1_555 1_555
O1_4 C1_4 1_555 1_555
O5_4 C16_4 1_555 1_555
O13_2 C16_4 1_555 1_555
N1_4 C8_4 1_555 1_555
C1_4 O2_4 1_555 1_555
C2_4 C1_4 1_555 1_555
C3_4 C2_4 1_555 1_555
H1_4 C3_4 1_555 1_555
C4_4 C3_4 1_555 1_555
H2_4 C4_4 1_555 1_555
C5_4 C4_4 1_555 1_555
C6_4 C5_4 1_555 1_555
H3_4 C6_4 1_555 1_555
C7_4 C2_4 1_555 1_555
H4_4 C7_4 1_555 1_555
C8_4 C5_4 1_555 1_555
H5_4 C8_4 1_555 1_555
C10_4 C11_4 1_555 1_555
C12_4 N1_4 1_555 1_555
C13_4 C12_4 1_555 1_555
H7_4 C13_4 1_555 1_555
C14_4 C13_4 1_555 1_555
C15_4 C10_4 1_555 1_555
H8_4 C15_4 1_555 1_555
C16_4 C14_4 1_555 1_555
Eu4 O5_4 1_555 1_555
C6_4 C7_4 1_555 1_555
C11_4 C12_4 1_555 1_555
C14_4 C15_4 1_555 1_555
O7_4 Eu3_2 1_555 1_555
O8_4 Eu3_2 1_555 1_555
N2_4 C17_4 1_555 1_555
C17_4 O8_4 1_555 1_555
C18_4 N2_4 1_555 1_555
H9_4 C18_4 1_555 1_555
H10_4 C18_4 1_555 1_555
H11_4 C18_4 1_555 1_555
C19_4 N2_4 1_555 1_555
H12_4 C19_4 1_555 1_555
H13_4 C19_4 1_555 1_555
H14_4 C19_4 1_555 1_555
O10_4 Eu3_2 1_555 1_555
O12_4 Eu3_2 1_555 1_555
O7_4 H15_4 1_555 1_555
O7_4 H16_4 1_555 1_555
C17_4 H17_4 1_555 1_555
Eu4 O1_5 1_555 1_555
O1_5 C1_5 1_555 1_555
O2_5 Eu4 1_555 1_555
O7_5 Eu4 1_555 1_555
O8_5 Eu4 1_555 1_555
N2_5 C17_5 1_555 1_555
C1_5 O2_5 1_555 1_555
C2_5 C1_5 1_555 1_555
C3_5 C2_5 1_555 1_555
H1_5 C3_5 1_555 1_555
C7_5 C2_5 1_555 1_555
H4_5 C7_5 1_555 1_555
C17_5 O8_5 1_555 1_555
C18_5 N2_5 1_555 1_555
H9_5 C18_5 1_555 1_555
H10_5 C18_5 1_555 1_555
H11_5 C18_5 1_555 1_555
C19_5 N2_5 1_555 1_555
H12_5 C19_5 1_555 1_555
H13_5 C19_5 1_555 1_555
H14_5 C19_5 1_555 1_555
O10_3 Eu4 1_555 1_555
O11_3 Eu4 1_555 1_555
O13_3 Eu4 1_555 1_555
O7_5 H15_5 1_555 1_555
O7_5 H16_5 1_555 1_555
C17_5 H17_5 1_555 1_555
O10 C9_5 1_555 1_555
O4_3 C9_5 1_555 1_555
O12_4 C16_5 1_555 1_555
O6_3 C16_5 1_555 1_555
N1_5 C8_5 1_555 1_555
H2_5 C4_5 1_555 1_555
C5_5 C4_5 1_555 1_555
C6_5 C5_5 1_555 1_555
H3_5 C6_5 1_555 1_555
C8_5 C5_5 1_555 1_555
H5_5 C8_5 1_555 1_555
C9_5 C10_5 1_555 1_555
C10_5 C11_5 1_555 1_555
C11_5 H6_5 1_555 1_555
C12_5 N1_5 1_555 1_555
C13_5 C12_5 1_555 1_555
H7_5 C13_5 1_555 1_555
C14_5 C13_5 1_555 1_555
C15_5 C10_5 1_555 1_555
H8_5 C15_5 1_555 1_555
C16_5 C14_5 1_555 1_555
Eu5_2 O10 1_555 1_555
O4_3 Eu5_2 1_555 1_555
C11_5 C12_5 1_555 1_555
C14_5 C15_5 1_555 1_555
O10_2 C9_6 1_555 1_555
O4_4 C9_6 1_555 1_555
O12_3 C16_6 1_555 1_555
O13_3 C16_6 1_555 1_555
N1_6 C8_6 1_555 1_555
H2_6 C4_6 1_555 1_555
C5_6 C4_6 1_555 1_555
C6_6 C5_6 1_555 1_555
H3_6 C6_6 1_555 1_555
C8_6 C5_6 1_555 1_555
H5_6 C8_6 1_555 1_555
C9_6 C10_6 1_555 1_555
C10_6 C11_6 1_555 1_555
C11_6 H6_6 1_555 1_555
C12_6 N1_6 1_555 1_555
C13_6 C12_6 1_555 1_555
H7_6 C13_6 1_555 1_555
C14_6 C13_6 1_555 1_555
C15_6 C10_6 1_555 1_555
H8_6 C15_6 1_555 1_555
C16_6 C14_6 1_555 1_555
C11_6 C12_6 1_555 1_555
C14_6 C15_6 1_555 1_555
O7_6 Eu4_2 1_555 1_555
O8_6 Eu4_2 1_555 1_555
N2_6 C17_6 1_555 1_555
C17_6 O8_6 1_555 1_555
C18_6 N2_6 1_555 1_555
H9_6 C18_6 1_555 1_555
H10_6 C18_6 1_555 1_555
H11_6 C18_6 1_555 1_555
C19_6 N2_6 1_555 1_555
H12_6 C19_6 1_555 1_555
H13_6 C19_6 1_555 1_555
H14_6 C19_6 1_555 1_555
O7_6 H15_6 1_555 1_555
O7_6 H16_6 1_555 1_555
C17_6 H17_6 1_555 1_555
O1_6 C1_6 1_555 1_555
C1_6 O2_6 1_555 1_555
C2_6 C1_6 1_555 1_555
C3_6 C2_6 1_555 1_555
H1_6 C3_6 1_555 1_555
C7_6 C2_6 1_555 1_555
H4_6 C7_6 1_555 1_555
Eu5_2 O1_7 1_555 1_555
O1_7 C1_7 1_555 1_555
O2_7 Eu5_2 1_555 1_555
O12_2 C16_7 1_555 1_555
O6_4 C16_7 1_555 1_555
O7_7 Eu5_2 1_555 1_555
O8_7 Eu5_2 1_555 1_555
N1_7 C8_7 1_555 1_555
N2_7 C17_7 1_555 1_555
C1_7 O2_7 1_555 1_555
C2_7 C1_7 1_555 1_555
C3_7 C2_7 1_555 1_555
H1_7 C3_7 1_555 1_555
C4_7 C3_7 1_555 1_555
H2_7 C4_7 1_555 1_555
C5_7 C4_7 1_555 1_555
C6_7 C5_7 1_555 1_555
H3_7 C6_7 1_555 1_555
C7_7 C2_7 1_555 1_555
H4_7 C7_7 1_555 1_555
C8_7 C5_7 1_555 1_555
H5_7 C8_7 1_555 1_555
C10_7 C11_7 1_555 1_555
C12_7 N1_7 1_555 1_555
C13_7 C12_7 1_555 1_555
H7_7 C13_7 1_555 1_555
C14_7 C13_7 1_555 1_555
C15_7 C10_7 1_555 1_555
H8_7 C15_7 1_555 1_555
C16_7 C14_7 1_555 1_555
C17_7 O8_7 1_555 1_555
C18_7 N2_7 1_555 1_555
H9_7 C18_7 1_555 1_555
H10_7 C18_7 1_555 1_555
H11_7 C18_7 1_555 1_555
C19_7 N2_7 1_555 1_555
H12_7 C19_7 1_555 1_555
H13_7 C19_7 1_555 1_555
H14_7 C19_7 1_555 1_555
O13_4 Eu5_2 1_555 1_555
C6_7 C7_7 1_555 1_555
C11_7 C12_7 1_555 1_555
C14_7 C15_7 1_555 1_555
O7_7 H15_7 1_555 1_555
O7_7 H16_7 1_555 1_555
C17_7 H17_7 1_555 1_555
O10_3 C9_7 1_555 1_555
O11_3 C9_7 1_555 1_555
O7_8 Eu5 1_555 1_555
O8_8 Eu5 1_555 1_555
N2_8 C17_8 1_555 1_555
C17_8 O8_8 1_555 1_555
C18_8 N2_8 1_555 1_555
H9_8 C18_8 1_555 1_555
H10_8 C18_8 1_555 1_555
H11_8 C18_8 1_555 1_555
C19_8 N2_8 1_555 1_555
H12_8 C19_8 1_555 1_555
H13_8 C19_8 1_555 1_555
H14_8 C19_8 1_555 1_555
O7_8 H15_8 1_555 1_555
O7_8 H16_8 1_555 1_555
C17_8 H17_8 1_555 1_555
O1_8 C1_8 1_555 1_555
O12 C16_8 1_555 1_555
O13_4 C16_8 1_555 1_555
N1_8 C8_8 1_555 1_555
C1_8 O2_8 1_555 1_555
C2_8 C1_8 1_555 1_555
C3_8 C2_8 1_555 1_555
H1_8 C3_8 1_555 1_555
C4_8 C3_8 1_555 1_555
H2_8 C4_8 1_555 1_555
C5_8 C4_8 1_555 1_555
C6_8 C5_8 1_555 1_555
H3_8 C6_8 1_555 1_555
C7_8 C2_8 1_555 1_555
H4_8 C7_8 1_555 1_555
C8_8 C5_8 1_555 1_555
H5_8 C8_8 1_555 1_555
C10_8 C11_8 1_555 1_555
C12_8 N1_8 1_555 1_555
C13_8 C12_8 1_555 1_555
H7_8 C13_8 1_555 1_555
C14_8 C13_8 1_555 1_555
C15_8 C10_8 1_555 1_555
H8_8 C15_8 1_555 1_555
C16_8 C14_8 1_555 1_555
C6_8 C7_8 1_555 1_555
C11_8 C12_8 1_555 1_555
C14_8 C15_8 1_555 1_555
O10_4 C9_8 1_555 1_555
O11_4 C9_8 1_555 1_555

#END
