
###############################################################################
#
# This file contains modified crystal structure data generated from the
# MOF subset of the Cambridge Structural Database (CSD) v543 
# hosted by the Cambridge Crystallographic Data Centre (CCDC).
#
# This work is licensed under the Creative Commons
# Attribution-NonCommercial-ShareAlike 4.0 International License.
# To view a copy of this license, visit
# http://creativecommons.org/licenses/by-nc-sa/4.0/
# or send a letter to
# Creative Commons, PO Box 1866, Mountain View, CA 94042, USA.
#
# CIF created using the CSD Python API on 29 September 2022
# The structure has been converted into the P1 space group
# The structure has a 3D framework
# The original CSD entry BETDEL is in the monoclinic crystal system
# The framework has been calculated to contain at least 10.0% void space
# The void calculation uses a probe of radius 1.32A, grid spacing 0.4
# H atom positions have been added when not included in the experimental data
#
###############################################################################

data_BETDEL
_chemical_formula_moiety         '(C152 H136 Dy8 N16 O64)n'
_symmetry_cell_setting           triclinic
_symmetry_space_group_name_H-M   'P 1'
_symmetry_Int_Tables_number      1
_space_group_name_Hall           'P 1'
loop_
_symmetry_equiv_pos_site_id
_symmetry_equiv_pos_as_xyz
1 x,y,z
_cell_length_a                   28.7897(8)
_cell_length_b                   13.9077(7)
_cell_length_c                   13.6093(5)
_cell_angle_alpha                90
_cell_angle_beta                 99.074(3)
_cell_angle_gamma                90
_cell_volume                     5380.95
loop_
_atom_site_label
_atom_site_type_symbol
_atom_site_fract_x
_atom_site_fract_y
_atom_site_fract_z
Dy1 Dy 0.316076(19) 0.20925(5) 0.54109(5)
O1 O 0.3878(4) 0.1744(12) 0.4794(12)
O2 O 0.3775(4) 0.3252(11) 0.5067(10)
O3 O 0.7921(3) 0.5660(8) 0.4480(9)
O4 O 0.7299(3) 0.6546(8) 0.4595(7)
O5 O 0.7697(4) 0.3342(9) 0.1616(8)
O6 O 0.6997(3) 0.2571(9) 0.1246(7)
O7 O 0.3559(5) 0.0798(14) 0.6379(11)
O8 O 0.3547(7) 0.2777(13) 0.6886(16)
N1 N 0.5978(4) 0.4128(12) 0.3508(10)
N2 N 0.3805(12) 0.373(2) 0.828(2)
C1 C 0.4035(7) 0.2529(19) 0.4765(14)
C2 C 0.4471(7) 0.2781(14) 0.4405(15)
C3 C 0.4629(6) 0.3701(17) 0.4400(15)
H1 H 0.4461 0.4194 0.4646
C4 C 0.5057(6) 0.3917(16) 0.4015(16)
H2 H 0.5152 0.4549 0.3941
C5 C 0.5317(7) 0.3158(18) 0.3761(15)
C6 C 0.5171(10) 0.2262(19) 0.373(2)
H3 H 0.5354 0.1772 0.3524
C7 C 0.4709(10) 0.2054(18) 0.403(2)
H4 H 0.4582 0.1437 0.3959
C8 C 0.5789(7) 0.331(2) 0.3498(16)
C9 C 0.7484(5) 0.5784(11) 0.4322(11)
C10 C 0.7192(5) 0.5051(12) 0.3725(11)
C11 C 0.7375(4) 0.4456(10) 0.3050(10)
H5 H 0.7689 0.4512 0.2973
C12 C 0.7091(5) 0.3787(13) 0.2499(11)
C13 C 0.6621(5) 0.3686(13) 0.2634(13)
H6 H 0.6431 0.3238 0.2257
C14 C 0.6442(5) 0.4223(14) 0.3296(12)
C15 C 0.6709(5) 0.4953(12) 0.3835(12)
H7 H 0.6575 0.5361 0.4252
C16 C 0.7280(5) 0.3175(12) 0.1710(11)
C17 C 0.3445(15) 0.313(3) 0.762(3)
C18 C 0.3568(14) 0.419(3) 0.897(3)
H8 H 0.3786 0.4568 0.9415
H9 H 0.3428 0.3713 0.9346
H10 H 0.3327 0.4594 0.8625
C19 C 0.4290(14) 0.373(3) 0.807(3)
H11 H 0.4494 0.4028 0.8607
H12 H 0.4302 0.4081 0.7464
H13 H 0.4391 0.3079 0.7989
Dy3 Dy 0.816076(19) 0.70925(5) 0.54109(5)
Dy4 Dy 0.683924(19) 0.79075(5) 0.45891(5)
Dy5 Dy 0.816076(19) 0.29075(5) 0.04109(5)
O9 O 0.2921(3) 0.0660(8) 0.4480(9)
O10 O 0.2299(3) 0.1546(8) 0.4595(7)
O11 O 0.2701(3) 0.3454(8) 0.5405(7)
O12 O 0.2697(4) 0.1658(9) 0.6616(8)
O13 O 0.3003(3) 0.2571(9) 0.3754(7)
H14 H 0.387322 0.102083 0.670669
H15 H 0.337041 0.0593598 0.689361
H16 H 0.598225 0.269023 0.328645
H17 H 0.30959 0.302161 0.781372
Dy2 Dy 0.683924(19) 0.20925(5) 0.95891(5)
O1_2 O 0.6122(4) 0.1744(12) 0.0206(12)
O3_2 O 0.2079(3) 0.5660(8) 0.0520(9)
O4_2 O 0.2701(3) 0.6546(8) 0.0405(7)
O5_2 O 0.2303(4) 0.3342(9) 0.3384(8)
N1_2 N 0.4022(4) 0.4128(12) 0.1492(10)
C1_2 C 0.5965(7) 0.2529(19) 0.0235(14)
C2_2 C 0.5529(7) 0.2781(14) 0.0595(15)
C3_2 C 0.5371(6) 0.3701(17) 0.0600(15)
H1_2 H 0.5539 0.4194 0.0354
C4_2 C 0.4943(6) 0.3917(16) 0.0985(16)
H2_2 H 0.4848 0.4549 0.1059
C5_2 C 0.4683(7) 0.3158(18) 0.1239(15)
C6_2 C 0.4829(10) 0.2262(19) 0.127(2)
H3_2 H 0.4646 0.1772 0.1476
C7_2 C 0.5291(10) 0.2054(18) 0.097(2)
H4_2 H 0.5418 0.1437 0.1041
C8_2 C 0.4211(7) 0.331(2) 0.1502(16)
C9_2 C 0.2516(5) 0.5784(11) 0.0678(11)
C10_2 C 0.2808(5) 0.5051(12) 0.1275(11)
C11_2 C 0.2625(4) 0.4456(10) 0.1950(10)
H5_2 H 0.2311 0.4512 0.2027
C12_2 C 0.2909(5) 0.3787(13) 0.2501(11)
C13_2 C 0.3379(5) 0.3686(13) 0.2366(13)
H6_2 H 0.3569 0.3238 0.2743
C14_2 C 0.3558(5) 0.4223(14) 0.1704(12)
C15_2 C 0.3291(5) 0.4953(12) 0.1165(12)
H7_2 H 0.3425 0.5361 0.0748
C16_2 C 0.2720(5) 0.3175(12) 0.3290(11)
Dy4_2 Dy 0.316076(19) 0.79075(5) 0.04109(5)
Dy5_2 Dy 0.183924(19) 0.29075(5) 0.45891(5)
O9_2 O 0.7079(3) 0.0660(8) 0.0520(9)
O10_2 O 0.7701(3) 0.1546(8) 0.0405(7)
H16_2 H 0.401775 0.269023 0.171355
O2_2 O 0.6225(4) 0.3252(11) 0.9933(10)
O7_2 O 0.6441(5) 0.0798(14) 0.8621(11)
O8_2 O 0.6453(7) 0.2777(13) 0.8114(16)
N2_2 N 0.6195(12) 0.373(2) 0.672(2)
C17_2 C 0.6555(15) 0.313(3) 0.738(3)
C18_2 C 0.6432(14) 0.419(3) 0.603(3)
H8_2 H 0.6214 0.4568 0.5585
H9_2 H 0.6572 0.3713 0.5654
H10_2 H 0.6673 0.4594 0.6375
C19_2 C 0.5710(14) 0.373(3) 0.693(3)
H11_2 H 0.5506 0.4028 0.6393
H12_2 H 0.5698 0.4081 0.7536
H13_2 H 0.5609 0.3079 0.7011
Dy3_2 Dy 0.183924(19) 0.70925(5) 0.95891(5)
O11_2 O 0.7299(3) 0.3454(8) 0.9595(7)
O12_2 O 0.7303(4) 0.1658(9) 0.8384(8)
H14_2 H 0.612678 0.102083 0.829331
H15_2 H 0.662959 0.0593598 0.810639
H17_2 H 0.69041 0.302161 0.718628
C9_3 C 0.2484(5) 0.0784(11) 0.4322(11)
C10_3 C 0.2192(5) 0.0051(12) 0.3725(11)
H7_3 H 0.1575 0.0361 0.4252
O5_3 O 0.2697(4) 0.8342(9) 0.1616(8)
O6_2 O 0.1997(3) 0.7571(9) 0.1246(7)
N1_3 N 0.0978(4) 0.9128(12) 0.3508(10)
C4_3 C 0.0057(6) 0.8917(16) 0.4015(16)
H2_3 H 0.0152 0.9549 0.3941
C5_3 C 0.0317(7) 0.8158(18) 0.3761(15)
C6_3 C 0.0171(10) 0.7262(19) 0.373(2)
H3_3 H 0.0354 0.6772 0.3524
C8_3 C 0.0789(7) 0.831(2) 0.3498(16)
C11_3 C 0.2375(4) 0.9456(10) 0.3050(10)
H5_3 H 0.2689 0.9512 0.2973
C12_3 C 0.2091(5) 0.8787(13) 0.2499(11)
C13_3 C 0.1621(5) 0.8686(13) 0.2634(13)
H6_3 H 0.1431 0.8238 0.2257
C14_3 C 0.1442(5) 0.9223(14) 0.3296(12)
C15_3 C 0.1709(5) 0.9953(12) 0.3835(12)
C16_3 C 0.2280(5) 0.8175(12) 0.1710(11)
H16_3 H 0.098225 0.769023 0.328645
O1_3 O 0.8878(4) 0.6744(12) 0.4794(12)
O2_3 O 0.8775(4) 0.8252(11) 0.5067(10)
O7_3 O 0.8559(5) 0.5798(14) 0.6379(11)
O8_3 O 0.8547(7) 0.7777(13) 0.6886(16)
N2_3 N 0.8805(12) 0.873(2) 0.828(2)
C1_3 C 0.9035(7) 0.7529(19) 0.4765(14)
C2_3 C 0.9471(7) 0.7781(14) 0.4405(15)
C3_3 C 0.9629(6) 0.8701(17) 0.4400(15)
H1_3 H 0.9461 0.9194 0.4646
C7_3 C 0.9709(10) 0.7054(18) 0.403(2)
H4_3 H 0.9582 0.6437 0.3959
C17_3 C 0.8445(15) 0.813(3) 0.762(3)
C18_3 C 0.8568(14) 0.919(3) 0.897(3)
H8_3 H 0.8786 0.9568 0.9415
H9_3 H 0.8428 0.8713 0.9346
H10_3 H 0.8327 0.9594 0.8625
C19_3 C 0.9290(14) 0.873(3) 0.807(3)
H11_3 H 0.9494 0.9028 0.8607
H12_3 H 0.9302 0.9081 0.7464
H13_3 H 0.9391 0.8079 0.7989
O11_3 O 0.7701(3) 0.8454(8) 0.5405(7)
O12_3 O 0.7697(4) 0.6658(9) 0.6616(8)
O13_2 O 0.8003(3) 0.7571(9) 0.3754(7)
H14_3 H 0.887322 0.602083 0.670669
H15_3 H 0.837041 0.55936 0.689361
H17_3 H 0.80959 0.802161 0.781372
O1_4 O 0.1122(4) 0.6744(12) 0.0206(12)
C1_4 C 0.0965(7) 0.7529(19) 0.0235(14)
C2_4 C 0.0529(7) 0.7781(14) 0.0595(15)
C3_4 C 0.0371(6) 0.8701(17) 0.0600(15)
H1_4 H 0.0539 0.9194 0.0354
C7_4 C 0.0291(10) 0.7054(18) 0.097(2)
H4_4 H 0.0418 0.6437 0.1041
O2_4 O 0.1225(4) 0.8252(11) 0.9933(10)
O7_4 O 0.1441(5) 0.5798(14) 0.8621(11)
O8_4 O 0.1453(7) 0.7777(13) 0.8114(16)
N2_4 N 0.1195(12) 0.873(2) 0.672(2)
C17_4 C 0.1555(15) 0.813(3) 0.738(3)
C18_4 C 0.1432(14) 0.919(3) 0.603(3)
H8_4 H 0.1214 0.9568 0.5585
H9_4 H 0.1572 0.8713 0.5654
H10_4 H 0.1673 0.9594 0.6375
C19_4 C 0.0710(14) 0.873(3) 0.693(3)
H11_4 H 0.0506 0.9028 0.6393
H12_4 H 0.0698 0.9081 0.7536
H13_4 H 0.0609 0.8079 0.7011
O11_4 O 0.2299(3) 0.8454(8) 0.9595(7)
O12_4 O 0.2303(4) 0.6658(9) 0.8384(8)
H14_4 H 0.112678 0.602083 0.829331
H15_4 H 0.162959 0.55936 0.810639
H17_4 H 0.19041 0.802161 0.718628
C9_4 C 0.7516(5) 0.0784(11) 0.0678(11)
C10_4 C 0.7808(5) 0.0051(12) 0.1275(11)
H7_4 H 0.8425 0.0361 0.0748
O5_4 O 0.7303(4) 0.8342(9) 0.3384(8)
N1_4 N 0.9022(4) 0.9128(12) 0.1492(10)
C4_4 C 0.9943(6) 0.8917(16) 0.0985(16)
H2_4 H 0.9848 0.9549 0.1059
C5_4 C 0.9683(7) 0.8158(18) 0.1239(15)
C6_4 C 0.9829(10) 0.7262(19) 0.127(2)
H3_4 H 0.9646 0.6772 0.1476
C8_4 C 0.9211(7) 0.831(2) 0.1502(16)
C11_4 C 0.7625(4) 0.9456(10) 0.1950(10)
H5_4 H 0.7311 0.9512 0.2027
C12_4 C 0.7909(5) 0.8787(13) 0.2501(11)
C13_4 C 0.8379(5) 0.8686(13) 0.2366(13)
H6_4 H 0.8569 0.8238 0.2743
C14_4 C 0.8558(5) 0.9223(14) 0.1704(12)
C15_4 C 0.8291(5) 0.9953(12) 0.1165(12)
C16_4 C 0.7720(5) 0.8175(12) 0.3290(11)
H16_4 H 0.901775 0.769023 0.171355
O1_5 O 0.6122(4) 0.8256(12) 0.5206(12)
O2_5 O 0.6225(4) 0.6748(11) 0.4933(10)
O3_3 O 0.2079(3) 0.4340(8) 0.5520(9)
O6_3 O 0.3003(3) 0.7429(9) 0.8754(7)
O7_5 O 0.6441(5) 0.9202(14) 0.3621(11)
O8_5 O 0.6453(7) 0.7223(13) 0.3114(16)
N1_5 N 0.4022(4) 0.5872(12) 0.6492(10)
N2_5 N 0.6195(12) 0.627(2) 0.172(2)
C1_5 C 0.5965(7) 0.7471(19) 0.5235(14)
C2_5 C 0.5529(7) 0.7219(14) 0.5595(15)
C3_5 C 0.5371(6) 0.6299(17) 0.5600(15)
H1_5 H 0.5539 0.5806 0.5354
C4_5 C 0.4943(6) 0.6083(16) 0.5985(16)
H2_5 H 0.4848 0.5451 0.6059
C5_5 C 0.4683(7) 0.6842(18) 0.6239(15)
C6_5 C 0.4829(10) 0.7738(19) 0.627(2)
H3_5 H 0.4646 0.8228 0.6476
C7_5 C 0.5291(10) 0.7946(18) 0.597(2)
H4_5 H 0.5418 0.8563 0.6041
C8_5 C 0.4211(7) 0.669(2) 0.6502(16)
C9_5 C 0.2516(5) 0.4216(11) 0.5678(11)
C10_5 C 0.2808(5) 0.4949(12) 0.6275(11)
C11_5 C 0.2625(4) 0.5544(10) 0.6950(10)
H5_5 H 0.2311 0.5488 0.7027
C12_5 C 0.2909(5) 0.6213(13) 0.7501(11)
C13_5 C 0.3379(5) 0.6314(13) 0.7366(13)
H6_5 H 0.3569 0.6762 0.7743
C14_5 C 0.3558(5) 0.5777(14) 0.6704(12)
C15_5 C 0.3291(5) 0.5047(12) 0.6165(12)
H7_5 H 0.3425 0.4639 0.5748
C16_5 C 0.2720(5) 0.6825(12) 0.8290(11)
C17_5 C 0.6555(15) 0.687(3) 0.238(3)
C18_5 C 0.6432(14) 0.581(3) 0.103(3)
H8_5 H 0.6214 0.5432 0.0585
H9_5 H 0.6572 0.6287 0.0654
H10_5 H 0.6673 0.5406 0.1375
C19_5 C 0.5710(14) 0.627(3) 0.193(3)
H11_5 H 0.5506 0.5972 0.1393
H12_5 H 0.5698 0.5919 0.2536
H13_5 H 0.5609 0.6921 0.2011
O9_3 O 0.7079(3) 0.9340(8) 0.5520(9)
O13_3 O 0.6997(3) 0.7429(9) 0.6246(7)
H14_5 H 0.612678 0.897917 0.329331
H15_5 H 0.662959 0.94064 0.310639
H16_5 H 0.401775 0.730977 0.671355
H17_5 H 0.69041 0.697839 0.218628
O2_6 O 0.3775(4) 0.6748(11) 0.0067(10)
O7_6 O 0.3559(5) 0.9202(14) 0.1379(11)
O8_6 O 0.3547(7) 0.7223(13) 0.1886(16)
N2_6 N 0.3805(12) 0.627(2) 0.328(2)
C17_6 C 0.3445(15) 0.687(3) 0.262(3)
C18_6 C 0.3568(14) 0.581(3) 0.397(3)
H8_6 H 0.3786 0.5432 0.4415
H9_6 H 0.3428 0.6287 0.4346
H10_6 H 0.3327 0.5406 0.3625
C19_6 C 0.4290(14) 0.627(3) 0.307(3)
H11_6 H 0.4494 0.5972 0.3607
H12_6 H 0.4302 0.5919 0.2464
H13_6 H 0.4391 0.6921 0.2989
H14_6 H 0.387322 0.897917 0.170669
H15_6 H 0.337041 0.94064 0.189361
H17_6 H 0.30959 0.697839 0.281372
O1_6 O 0.3878(4) 0.8256(12) 0.9794(12)
O3_4 O 0.7921(3) 0.4340(8) 0.9480(9)
N1_6 N 0.5978(4) 0.5872(12) 0.8508(10)
C1_6 C 0.4035(7) 0.7471(19) 0.9765(14)
C2_6 C 0.4471(7) 0.7219(14) 0.9405(15)
C3_6 C 0.4629(6) 0.6299(17) 0.9400(15)
H1_6 H 0.4461 0.5806 0.9646
C4_6 C 0.5057(6) 0.6083(16) 0.9015(16)
H2_6 H 0.5152 0.5451 0.8941
C5_6 C 0.5317(7) 0.6842(18) 0.8761(15)
C6_6 C 0.5171(10) 0.7738(19) 0.873(2)
H3_6 H 0.5354 0.8228 0.8524
C7_6 C 0.4709(10) 0.7946(18) 0.903(2)
H4_6 H 0.4582 0.8563 0.8959
C8_6 C 0.5789(7) 0.669(2) 0.8498(16)
C9_6 C 0.7484(5) 0.4216(11) 0.9322(11)
C10_6 C 0.7192(5) 0.4949(12) 0.8725(11)
C11_6 C 0.7375(4) 0.5544(10) 0.8050(10)
H5_6 H 0.7689 0.5488 0.7973
C12_6 C 0.7091(5) 0.6213(13) 0.7499(11)
C13_6 C 0.6621(5) 0.6314(13) 0.7634(13)
H6_6 H 0.6431 0.6762 0.7257
C14_6 C 0.6442(5) 0.5777(14) 0.8296(12)
C15_6 C 0.6709(5) 0.5047(12) 0.8835(12)
H7_6 H 0.6575 0.4639 0.9252
C16_6 C 0.7280(5) 0.6825(12) 0.6710(11)
O9_4 O 0.2921(3) 0.9340(8) 0.9480(9)
H16_6 H 0.598225 0.730977 0.828645
O1_7 O 0.1122(4) 0.3256(12) 0.5206(12)
O2_7 O 0.1225(4) 0.1748(11) 0.4933(10)
O7_7 O 0.1441(5) 0.4202(14) 0.3621(11)
O8_7 O 0.1453(7) 0.2223(13) 0.3114(16)
N2_7 N 0.1195(12) 0.127(2) 0.172(2)
C1_7 C 0.0965(7) 0.2471(19) 0.5235(14)
C2_7 C 0.0529(7) 0.2219(14) 0.5595(15)
C3_7 C 0.0371(6) 0.1299(17) 0.5600(15)
H1_7 H 0.0539 0.0806 0.5354
C7_7 C 0.0291(10) 0.2946(18) 0.597(2)
H4_7 H 0.0418 0.3563 0.6041
C17_7 C 0.1555(15) 0.187(3) 0.238(3)
C18_7 C 0.1432(14) 0.081(3) 0.103(3)
H8_7 H 0.1214 0.0432 0.0585
H9_7 H 0.1572 0.1287 0.0654
H10_7 H 0.1673 0.0406 0.1375
C19_7 C 0.0710(14) 0.127(3) 0.193(3)
H11_7 H 0.0506 0.0972 0.1393
H12_7 H 0.0698 0.0919 0.2536
H13_7 H 0.0609 0.1921 0.2011
O13_4 O 0.1997(3) 0.2429(9) 0.6246(7)
H14_7 H 0.112678 0.397917 0.329331
H15_7 H 0.162959 0.44064 0.310639
H17_7 H 0.19041 0.197839 0.218628
O6_4 O 0.8003(3) 0.2429(9) 0.8754(7)
N1_7 N 0.9022(4) 0.0872(12) 0.6492(10)
C4_7 C 0.9943(6) 0.1083(16) 0.5985(16)
H2_7 H 0.9848 0.0451 0.6059
C5_7 C 0.9683(7) 0.1842(18) 0.6239(15)
C6_7 C 0.9829(10) 0.2738(19) 0.627(2)
H3_7 H 0.9646 0.3228 0.6476
C8_7 C 0.9211(7) 0.169(2) 0.6502(16)
C11_7 C 0.7625(4) 0.0544(10) 0.6950(10)
H5_7 H 0.7311 0.0488 0.7027
C12_7 C 0.7909(5) 0.1213(13) 0.7501(11)
C13_7 C 0.8379(5) 0.1314(13) 0.7366(13)
H6_7 H 0.8569 0.1762 0.7743
C14_7 C 0.8558(5) 0.0777(14) 0.6704(12)
C15_7 C 0.8291(5) 0.0047(12) 0.6165(12)
C16_7 C 0.7720(5) 0.1825(12) 0.8290(11)
H16_7 H 0.901775 0.230977 0.671355
C9_7 C 0.7516(5) 0.9216(11) 0.5678(11)
C10_7 C 0.7808(5) 0.9949(12) 0.6275(11)
H7_7 H 0.8425 0.9639 0.5748
N1_8 N 0.0978(4) 0.0872(12) 0.8508(10)
C4_8 C 0.0057(6) 0.1083(16) 0.9015(16)
H2_8 H 0.0152 0.0451 0.8941
C5_8 C 0.0317(7) 0.1842(18) 0.8761(15)
C6_8 C 0.0171(10) 0.2738(19) 0.873(2)
H3_8 H 0.0354 0.3228 0.8524
C8_8 C 0.0789(7) 0.169(2) 0.8498(16)
C11_8 C 0.2375(4) 0.0544(10) 0.8050(10)
H5_8 H 0.2689 0.0488 0.7973
C12_8 C 0.2091(5) 0.1213(13) 0.7499(11)
C13_8 C 0.1621(5) 0.1314(13) 0.7634(13)
H6_8 H 0.1431 0.1762 0.7257
C14_8 C 0.1442(5) 0.0777(14) 0.8296(12)
C15_8 C 0.1709(5) 0.0047(12) 0.8835(12)
C16_8 C 0.2280(5) 0.1825(12) 0.6710(11)
H16_8 H 0.098225 0.230977 0.828645
C9_8 C 0.2484(5) 0.9216(11) 0.9322(11)
C10_8 C 0.2192(5) 0.9949(12) 0.8725(11)
H7_8 H 0.1575 0.9639 0.9252
O2_8 O 0.8775(4) 0.1748(11) 0.0067(10)
O7_8 O 0.8559(5) 0.4202(14) 0.1379(11)
O8_8 O 0.8547(7) 0.2223(13) 0.1886(16)
N2_8 N 0.8805(12) 0.127(2) 0.328(2)
C17_8 C 0.8445(15) 0.187(3) 0.262(3)
C18_8 C 0.8568(14) 0.081(3) 0.397(3)
H8_8 H 0.8786 0.0432 0.4415
H9_8 H 0.8428 0.1287 0.4346
H10_8 H 0.8327 0.0406 0.3625
C19_8 C 0.9290(14) 0.127(3) 0.307(3)
H11_8 H 0.9494 0.0972 0.3607
H12_8 H 0.9302 0.0919 0.2464
H13_8 H 0.9391 0.1921 0.2989
H14_8 H 0.887322 0.397917 0.170669
H15_8 H 0.837041 0.44064 0.189361
H17_8 H 0.80959 0.197839 0.281372
O1_8 O 0.8878(4) 0.3256(12) 0.9794(12)
C1_8 C 0.9035(7) 0.2471(19) 0.9765(14)
C2_8 C 0.9471(7) 0.2219(14) 0.9405(15)
C3_8 C 0.9629(6) 0.1299(17) 0.9400(15)
H1_8 H 0.9461 0.0806 0.9646
C7_8 C 0.9709(10) 0.2946(18) 0.903(2)
H4_8 H 0.9582 0.3563 0.8959
loop_
_geom_bond_atom_site_label_1
_geom_bond_atom_site_label_2
_geom_bond_site_symmetry_1
_geom_bond_site_symmetry_2
Dy1 O1 1_555 1_555
O1 C1 1_555 1_555
O2 Dy1 1_555 1_555
O3 C9 1_555 1_555
O4 C9 1_555 1_555
O5 C16 1_555 1_555
O6 C16 1_555 1_555
O7 Dy1 1_555 1_555
O8 Dy1 1_555 1_555
N1 C8 1_555 1_555
N2 C17 1_555 1_555
C1 O2 1_555 1_555
C2 C1 1_555 1_555
C3 C2 1_555 1_555
H1 C3 1_555 1_555
C4 C3 1_555 1_555
H2 C4 1_555 1_555
C5 C4 1_555 1_555
C6 C5 1_555 1_555
H3 C6 1_555 1_555
C7 C2 1_555 1_555
H4 C7 1_555 1_555
C8 C5 1_555 1_555
C9 C10 1_555 1_555
C10 C11 1_555 1_555
C11 H5 1_555 1_555
C12 C11 1_555 1_555
C13 C12 1_555 1_555
H6 C13 1_555 1_555
C14 N1 1_555 1_555
C15 C10 1_555 1_555
H7 C15 1_555 1_555
C16 C12 1_555 1_555
C17 O8 1_555 1_555
C18 N2 1_555 1_555
H8 C18 1_555 1_555
H9 C18 1_555 1_555
H10 C18 1_555 1_555
C19 N2 1_555 1_555
H11 C19 1_555 1_555
H12 C19 1_555 1_555
H13 C19 1_555 1_555
Dy3 O3 1_555 1_555
Dy4 O4 1_555 1_555
Dy5 O5 1_555 1_555
O9 Dy1 1_555 1_555
O10 Dy1 1_555 1_555
O11 Dy1 1_555 1_555
O12 Dy1 1_555 1_555
O13 Dy1 1_555 1_555
O4 Dy3 1_555 1_555
C6 C7 1_555 1_555
C13 C14 1_555 1_555
C14 C15 1_555 1_555
O7 H14 1_555 1_555
O7 H15 1_555 1_555
C8 H16 1_555 1_555
C17 H17 1_555 1_555
O1_2 C1_2 1_555 1_555
O3_2 C9_2 1_555 1_555
O4_2 C9_2 1_555 1_555
O5_2 C16_2 1_555 1_555
O13 C16_2 1_555 1_555
N1_2 C8_2 1_555 1_555
C2_2 C1_2 1_555 1_555
C3_2 C2_2 1_555 1_555
H1_2 C3_2 1_555 1_555
C4_2 C3_2 1_555 1_555
H2_2 C4_2 1_555 1_555
C5_2 C4_2 1_555 1_555
C6_2 C5_2 1_555 1_555
H3_2 C6_2 1_555 1_555
C7_2 C2_2 1_555 1_555
H4_2 C7_2 1_555 1_555
C8_2 C5_2 1_555 1_555
C9_2 C10_2 1_555 1_555
C10_2 C11_2 1_555 1_555
C11_2 H5_2 1_555 1_555
C12_2 C11_2 1_555 1_555
C13_2 C12_2 1_555 1_555
H6_2 C13_2 1_555 1_555
C14_2 N1_2 1_555 1_555
C15_2 C10_2 1_555 1_555
H7_2 C15_2 1_555 1_555
C16_2 C12_2 1_555 1_555
Dy4_2 O4_2 1_555 1_555
Dy5_2 O5_2 1_555 1_555
C6_2 C7_2 1_555 1_555
C13_2 C14_2 1_555 1_555
C14_2 C15_2 1_555 1_555
C8_2 H16_2 1_555 1_555
O2_2 Dy2 1_555 1_555
O7_2 Dy2 1_555 1_555
O8_2 Dy2 1_555 1_555
N2_2 C17_2 1_555 1_555
C17_2 O8_2 1_555 1_555
C18_2 N2_2 1_555 1_555
H8_2 C18_2 1_555 1_555
H9_2 C18_2 1_555 1_555
H10_2 C18_2 1_555 1_555
C19_2 N2_2 1_555 1_555
H11_2 C19_2 1_555 1_555
H12_2 C19_2 1_555 1_555
H13_2 C19_2 1_555 1_555
O11_2 Dy2 1_555 1_555
O12_2 Dy2 1_555 1_555
O7_2 H14_2 1_555 1_555
O7_2 H15_2 1_555 1_555
C17_2 H17_2 1_555 1_555
O9 C9_3 1_555 1_555
O10 C9_3 1_555 1_555
C9_3 C10_3 1_555 1_555
Dy5_2 O10 1_555 1_555
O5_3 C16_3 1_555 1_555
O6_2 C16_3 1_555 1_555
N1_3 C8_3 1_555 1_555
H2_3 C4_3 1_555 1_555
C5_3 C4_3 1_555 1_555
C6_3 C5_3 1_555 1_555
H3_3 C6_3 1_555 1_555
C8_3 C5_3 1_555 1_555
C11_3 H5_3 1_555 1_555
C12_3 C11_3 1_555 1_555
C13_3 C12_3 1_555 1_555
H6_3 C13_3 1_555 1_555
C14_3 N1_3 1_555 1_555
C16_3 C12_3 1_555 1_555
Dy4_2 O5_3 1_555 1_555
C13_3 C14_3 1_555 1_555
C14_3 C15_3 1_555 1_555
C8_3 H16_3 1_555 1_555
Dy3 O1_3 1_555 1_555
O1_3 C1_3 1_555 1_555
O2_3 Dy3 1_555 1_555
O7_3 Dy3 1_555 1_555
O8_3 Dy3 1_555 1_555
N2_3 C17_3 1_555 1_555
C1_3 O2_3 1_555 1_555
C2_3 C1_3 1_555 1_555
C3_3 C2_3 1_555 1_555
H1_3 C3_3 1_555 1_555
C7_3 C2_3 1_555 1_555
H4_3 C7_3 1_555 1_555
C17_3 O8_3 1_555 1_555
C18_3 N2_3 1_555 1_555
H8_3 C18_3 1_555 1_555
H9_3 C18_3 1_555 1_555
H10_3 C18_3 1_555 1_555
C19_3 N2_3 1_555 1_555
H11_3 C19_3 1_555 1_555
H12_3 C19_3 1_555 1_555
H13_3 C19_3 1_555 1_555
O11_3 Dy3 1_555 1_555
O12_3 Dy3 1_555 1_555
O13_2 Dy3 1_555 1_555
O7_3 H14_3 1_555 1_555
O7_3 H15_3 1_555 1_555
C17_3 H17_3 1_555 1_555
O1_4 C1_4 1_555 1_555
C2_4 C1_4 1_555 1_555
C3_4 C2_4 1_555 1_555
H1_4 C3_4 1_555 1_555
C7_4 C2_4 1_555 1_555
H4_4 C7_4 1_555 1_555
O2_4 Dy3_2 1_555 1_555
O7_4 Dy3_2 1_555 1_555
O8_4 Dy3_2 1_555 1_555
N2_4 C17_4 1_555 1_555
C17_4 O8_4 1_555 1_555
C18_4 N2_4 1_555 1_555
H8_4 C18_4 1_555 1_555
H9_4 C18_4 1_555 1_555
H10_4 C18_4 1_555 1_555
C19_4 N2_4 1_555 1_555
H11_4 C19_4 1_555 1_555
H12_4 C19_4 1_555 1_555
H13_4 C19_4 1_555 1_555
O11_4 Dy3_2 1_555 1_555
O12_4 Dy3_2 1_555 1_555
O7_4 H14_4 1_555 1_555
O7_4 H15_4 1_555 1_555
C17_4 H17_4 1_555 1_555
O9_2 C9_4 1_555 1_555
O10_2 C9_4 1_555 1_555
C9_4 C10_4 1_555 1_555
Dy5 O10_2 1_555 1_555
O5_4 C16_4 1_555 1_555
O13_2 C16_4 1_555 1_555
N1_4 C8_4 1_555 1_555
H2_4 C4_4 1_555 1_555
C5_4 C4_4 1_555 1_555
C6_4 C5_4 1_555 1_555
H3_4 C6_4 1_555 1_555
C8_4 C5_4 1_555 1_555
C11_4 H5_4 1_555 1_555
C12_4 C11_4 1_555 1_555
C13_4 C12_4 1_555 1_555
H6_4 C13_4 1_555 1_555
C14_4 N1_4 1_555 1_555
C16_4 C12_4 1_555 1_555
Dy4 O5_4 1_555 1_555
C13_4 C14_4 1_555 1_555
C14_4 C15_4 1_555 1_555
C8_4 H16_4 1_555 1_555
Dy4 O1_5 1_555 1_555
O1_5 C1_5 1_555 1_555
O2_5 Dy4 1_555 1_555
O3_3 C9_5 1_555 1_555
O11 C9_5 1_555 1_555
O12_4 C16_5 1_555 1_555
O6_3 C16_5 1_555 1_555
O7_5 Dy4 1_555 1_555
O8_5 Dy4 1_555 1_555
N1_5 C8_5 1_555 1_555
N2_5 C17_5 1_555 1_555
C1_5 O2_5 1_555 1_555
C2_5 C1_5 1_555 1_555
C3_5 C2_5 1_555 1_555
H1_5 C3_5 1_555 1_555
C4_5 C3_5 1_555 1_555
H2_5 C4_5 1_555 1_555
C5_5 C4_5 1_555 1_555
C6_5 C5_5 1_555 1_555
H3_5 C6_5 1_555 1_555
C7_5 C2_5 1_555 1_555
H4_5 C7_5 1_555 1_555
C8_5 C5_5 1_555 1_555
C9_5 C10_5 1_555 1_555
C10_5 C11_5 1_555 1_555
C11_5 H5_5 1_555 1_555
C12_5 C11_5 1_555 1_555
C13_5 C12_5 1_555 1_555
H6_5 C13_5 1_555 1_555
C14_5 N1_5 1_555 1_555
C15_5 C10_5 1_555 1_555
H7_5 C15_5 1_555 1_555
C16_5 C12_5 1_555 1_555
C17_5 O8_5 1_555 1_555
C18_5 N2_5 1_555 1_555
H8_5 C18_5 1_555 1_555
H9_5 C18_5 1_555 1_555
H10_5 C18_5 1_555 1_555
C19_5 N2_5 1_555 1_555
H11_5 C19_5 1_555 1_555
H12_5 C19_5 1_555 1_555
H13_5 C19_5 1_555 1_555
Dy5_2 O3_3 1_555 1_555
O9_3 Dy4 1_555 1_555
O11_3 Dy4 1_555 1_555
O13_3 Dy4 1_555 1_555
O11 Dy5_2 1_555 1_555
C6_5 C7_5 1_555 1_555
C13_5 C14_5 1_555 1_555
C14_5 C15_5 1_555 1_555
O7_5 H14_5 1_555 1_555
O7_5 H15_5 1_555 1_555
C8_5 H16_5 1_555 1_555
C17_5 H17_5 1_555 1_555
O2_6 Dy4_2 1_555 1_555
O7_6 Dy4_2 1_555 1_555
O8_6 Dy4_2 1_555 1_555
N2_6 C17_6 1_555 1_555
C17_6 O8_6 1_555 1_555
C18_6 N2_6 1_555 1_555
H8_6 C18_6 1_555 1_555
H9_6 C18_6 1_555 1_555
H10_6 C18_6 1_555 1_555
C19_6 N2_6 1_555 1_555
H11_6 C19_6 1_555 1_555
H12_6 C19_6 1_555 1_555
H13_6 C19_6 1_555 1_555
O7_6 H14_6 1_555 1_555
O7_6 H15_6 1_555 1_555
C17_6 H17_6 1_555 1_555
O1_6 C1_6 1_555 1_555
O3_4 C9_6 1_555 1_555
O11_2 C9_6 1_555 1_555
O12_3 C16_6 1_555 1_555
O13_3 C16_6 1_555 1_555
N1_6 C8_6 1_555 1_555
C2_6 C1_6 1_555 1_555
C3_6 C2_6 1_555 1_555
H1_6 C3_6 1_555 1_555
C4_6 C3_6 1_555 1_555
H2_6 C4_6 1_555 1_555
C5_6 C4_6 1_555 1_555
C6_6 C5_6 1_555 1_555
H3_6 C6_6 1_555 1_555
C7_6 C2_6 1_555 1_555
H4_6 C7_6 1_555 1_555
C8_6 C5_6 1_555 1_555
C9_6 C10_6 1_555 1_555
C10_6 C11_6 1_555 1_555
C11_6 H5_6 1_555 1_555
C12_6 C11_6 1_555 1_555
C13_6 C12_6 1_555 1_555
H6_6 C13_6 1_555 1_555
C14_6 N1_6 1_555 1_555
C15_6 C10_6 1_555 1_555
H7_6 C15_6 1_555 1_555
C16_6 C12_6 1_555 1_555
C6_6 C7_6 1_555 1_555
C13_6 C14_6 1_555 1_555
C14_6 C15_6 1_555 1_555
C8_6 H16_6 1_555 1_555
Dy5_2 O1_7 1_555 1_555
O1_7 C1_7 1_555 1_555
O2_7 Dy5_2 1_555 1_555
O7_7 Dy5_2 1_555 1_555
O8_7 Dy5_2 1_555 1_555
N2_7 C17_7 1_555 1_555
C1_7 O2_7 1_555 1_555
C2_7 C1_7 1_555 1_555
C3_7 C2_7 1_555 1_555
H1_7 C3_7 1_555 1_555
C7_7 C2_7 1_555 1_555
H4_7 C7_7 1_555 1_555
C17_7 O8_7 1_555 1_555
C18_7 N2_7 1_555 1_555
H8_7 C18_7 1_555 1_555
H9_7 C18_7 1_555 1_555
H10_7 C18_7 1_555 1_555
C19_7 N2_7 1_555 1_555
H11_7 C19_7 1_555 1_555
H12_7 C19_7 1_555 1_555
H13_7 C19_7 1_555 1_555
O13_4 Dy5_2 1_555 1_555
O7_7 H14_7 1_555 1_555
O7_7 H15_7 1_555 1_555
C17_7 H17_7 1_555 1_555
O12_2 C16_7 1_555 1_555
O6_4 C16_7 1_555 1_555
N1_7 C8_7 1_555 1_555
H2_7 C4_7 1_555 1_555
C5_7 C4_7 1_555 1_555
C6_7 C5_7 1_555 1_555
H3_7 C6_7 1_555 1_555
C8_7 C5_7 1_555 1_555
C11_7 H5_7 1_555 1_555
C12_7 C11_7 1_555 1_555
C13_7 C12_7 1_555 1_555
H6_7 C13_7 1_555 1_555
C14_7 N1_7 1_555 1_555
C16_7 C12_7 1_555 1_555
C13_7 C14_7 1_555 1_555
C14_7 C15_7 1_555 1_555
C8_7 H16_7 1_555 1_555
O9_3 C9_7 1_555 1_555
O11_3 C9_7 1_555 1_555
C9_7 C10_7 1_555 1_555
O12 C16_8 1_555 1_555
O13_4 C16_8 1_555 1_555
N1_8 C8_8 1_555 1_555
H2_8 C4_8 1_555 1_555
C5_8 C4_8 1_555 1_555
C6_8 C5_8 1_555 1_555
H3_8 C6_8 1_555 1_555
C8_8 C5_8 1_555 1_555
C11_8 H5_8 1_555 1_555
C12_8 C11_8 1_555 1_555
C13_8 C12_8 1_555 1_555
H6_8 C13_8 1_555 1_555
C14_8 N1_8 1_555 1_555
C16_8 C12_8 1_555 1_555
C13_8 C14_8 1_555 1_555
C14_8 C15_8 1_555 1_555
C8_8 H16_8 1_555 1_555
O9_4 C9_8 1_555 1_555
O11_4 C9_8 1_555 1_555
C9_8 C10_8 1_555 1_555
O2_8 Dy5 1_555 1_555
O7_8 Dy5 1_555 1_555
O8_8 Dy5 1_555 1_555
N2_8 C17_8 1_555 1_555
C17_8 O8_8 1_555 1_555
C18_8 N2_8 1_555 1_555
H8_8 C18_8 1_555 1_555
H9_8 C18_8 1_555 1_555
H10_8 C18_8 1_555 1_555
C19_8 N2_8 1_555 1_555
H11_8 C19_8 1_555 1_555
H12_8 C19_8 1_555 1_555
H13_8 C19_8 1_555 1_555
O7_8 H14_8 1_555 1_555
O7_8 H15_8 1_555 1_555
C17_8 H17_8 1_555 1_555
O1_8 C1_8 1_555 1_555
C2_8 C1_8 1_555 1_555
C3_8 C2_8 1_555 1_555
H1_8 C3_8 1_555 1_555
C7_8 C2_8 1_555 1_555
H4_8 C7_8 1_555 1_555

#END
