
###############################################################################
#
# This file contains modified crystal structure data generated from the
# MOF subset of the Cambridge Structural Database (CSD) v543 
# hosted by the Cambridge Crystallographic Data Centre (CCDC).
#
# This work is licensed under the Creative Commons
# Attribution-NonCommercial-ShareAlike 4.0 International License.
# To view a copy of this license, visit
# http://creativecommons.org/licenses/by-nc-sa/4.0/
# or send a letter to
# Creative Commons, PO Box 1866, Mountain View, CA 94042, USA.
#
# CIF created using the CSD Python API on 29 September 2022
# The structure has been converted into the P1 space group
# The structure has a 3D framework
# The original CSD entry BETFEN is in the monoclinic crystal system
# The framework has been calculated to contain at least 10.0% void space
# The void calculation uses a probe of radius 1.32A, grid spacing 0.4
# H atom positions have been added when not included in the experimental data
#
###############################################################################

data_BETFEN
_chemical_formula_moiety         '(C176 H176 N24 O64 Pr8)n'
_symmetry_cell_setting           triclinic
_symmetry_space_group_name_H-M   'P 1'
_symmetry_Int_Tables_number      1
_space_group_name_Hall           'P 1'
loop_
_symmetry_equiv_pos_site_id
_symmetry_equiv_pos_as_xyz
1 x,y,z
_cell_length_a                   28.877(2)
_cell_length_b                   14.3145(9)
_cell_length_c                   13.6347(14)
_cell_angle_alpha                90
_cell_angle_beta                 99.644(9)
_cell_angle_gamma                90
_cell_volume                     5556.39
loop_
_atom_site_label
_atom_site_type_symbol
_atom_site_fract_x
_atom_site_fract_y
_atom_site_fract_z
O2 O 0.1067(2) 0.1804(5) 0.0177(7)
C1 C 0.0950(3) 0.2624(8) 0.0214(8)
C2 C 0.0501(3) 0.2838(7) 0.0571(8)
C3 C 0.0211(5) 0.2125(7) 0.0808(13)
H1 H 0.0313 0.1510 0.0795
C7 C 0.0361(3) 0.3733(8) 0.0663(9)
H4 H 0.0553 0.4220 0.0524
O9 O 0.26768(19) 0.1507(4) 0.0386(4)
O11 O 0.2056(2) 0.0662(4) 0.0537(5)
O13 O 0.2010(2) 0.2620(5) 0.1299(5)
Pr1 Pr 0.181727(13) 0.21268(3) 0.95680(3)
O1 O 0.1189(2) 0.3276(5) 0.9941(6)
O7 O 0.1418(5) 0.2841(7) 0.8028(10)
O8 O 0.1401(4) 0.0823(7) 0.8561(9)
N2 N 0.1159(7) 0.3811(14) 0.6646(14)
N3 N 0.1157(7) 0.0151(12) 0.6861(11)
C17 C 0.1519(8) 0.3304(17) 0.7319(15)
C18 C 0.0736(8) 0.3886(18) 0.7087(18)
H9 H 0.0687 0.3313 0.7421
H10 H 0.0471 0.4004 0.6574
H11 H 0.0770 0.4391 0.7557
C19 C 0.1488(8) 0.4199(17) 0.6060(17)
H12 H 0.1711 0.3729 0.5953
H13 H 0.1650 0.4718 0.6409
H14 H 0.1321 0.4408 0.5431
C20 C 0.1330(9) 0.0830(15) 0.7627(10)
C21 C 0.1010(9) 0.0245(17) 0.5791(12)
H16 H 0.1266 0.0480 0.5498
H17 H 0.0750 0.0671 0.5660
O10 O 0.23232(19) 0.3493(4) 0.9614(4)
O12 O 0.2285(2) 0.1684(6) 0.8310(5)
H21 H 0.141821 0.149714 0.73215
H22 H 0.188231 0.333071 0.719957
O3 O 0.76768(19) 0.6507(4) 0.0386(4)
O4 O 0.7056(2) 0.5662(4) 0.0537(5)
O5 O 0.7285(2) 0.3316(6) 0.3310(5)
O6 O 0.7990(2) 0.2620(5) 0.3701(5)
N1 N 0.9015(3) 0.4171(6) 0.1493(6)
C4 C 0.9780(5) 0.2300(8) 0.1059(13)
H2 H 0.9577 0.1812 0.1134
C5 C 0.9651(4) 0.3217(8) 0.1198(8)
C6 C 0.9929(4) 0.3935(8) 0.0967(9)
H3 H 0.9833 0.4552 0.1011
C8 C 0.9183(4) 0.3388(8) 0.1446(9)
H5 H 0.900(4) 0.286(5) 0.118(8)
C9 C 0.7490(3) 0.5787(5) 0.0700(6)
C10 C 0.7801(3) 0.5050(6) 0.1280(6)
C11 C 0.7612(3) 0.4458(6) 0.1932(6)
H6 H 0.7298 0.4515 0.2003
C12 C 0.7895(3) 0.3785(6) 0.2473(6)
C13 C 0.8366(3) 0.3702(6) 0.2369(6)
H7 H 0.8561 0.3278 0.2758
C14 C 0.8542(3) 0.4263(6) 0.1672(7)
C15 C 0.8271(3) 0.4969(6) 0.1190(7)
H8 H 0.8404 0.5394 0.0802
C16 C 0.7711(3) 0.3214(7) 0.3215(6)
Pr2 Pr 0.818273(13) 0.21268(3) 0.54320(3)
Pr4 Pr 0.818273(13) 0.78732(3) 0.04320(3)
Pr5 Pr 0.681727(13) 0.28732(3) 0.45680(3)
Pr3 Pr 0.681727(13) 0.71268(3) 0.95680(3)
O3_2 O 0.23232(19) 0.6507(4) 0.4614(4)
O4_2 O 0.2944(2) 0.5662(4) 0.4463(5)
O5_2 O 0.2715(2) 0.3316(6) 0.1690(5)
N1_2 N 0.0985(3) 0.4171(6) 0.3507(6)
C4_2 C 0.0220(5) 0.2300(8) 0.3941(13)
H2_2 H 0.0423 0.1812 0.3866
C5_2 C 0.0349(4) 0.3217(8) 0.3802(8)
C6_2 C 0.0071(4) 0.3935(8) 0.4033(9)
H3_2 H 0.0167 0.4552 0.3989
C8_2 C 0.0817(4) 0.3388(8) 0.3554(9)
H5_2 H 0.100(4) 0.286(5) 0.382(8)
C9_2 C 0.2510(3) 0.5787(5) 0.4300(6)
C10_2 C 0.2199(3) 0.5050(6) 0.3720(6)
C11_2 C 0.2388(3) 0.4458(6) 0.3068(6)
H6_2 H 0.2702 0.4515 0.2997
C12_2 C 0.2105(3) 0.3785(6) 0.2527(6)
C13_2 C 0.1634(3) 0.3702(6) 0.2631(6)
H7_2 H 0.1439 0.3278 0.2242
C14_2 C 0.1458(3) 0.4263(6) 0.3328(7)
C15_2 C 0.1729(3) 0.4969(6) 0.3810(7)
H8_2 H 0.1596 0.5394 0.4198
C16_2 C 0.2289(3) 0.3214(7) 0.1785(6)
Pr3_2 Pr 0.318273(13) 0.71268(3) 0.54320(3)
Pr4_2 Pr 0.181727(13) 0.78732(3) 0.45680(3)
Pr5_2 Pr 0.318273(13) 0.28732(3) 0.04320(3)
O1_2 O 0.8811(2) 0.3276(5) 0.5059(6)
O2_2 O 0.8933(2) 0.1804(5) 0.4823(7)
O7_2 O 0.8582(5) 0.2841(7) 0.6972(10)
O8_2 O 0.8599(4) 0.0823(7) 0.6439(9)
N2_2 N 0.8841(7) 0.3811(14) 0.8354(14)
N3_2 N 0.8843(7) 0.0151(12) 0.8139(11)
C1_2 C 0.9050(3) 0.2624(8) 0.4786(8)
C2_2 C 0.9499(3) 0.2838(7) 0.4429(8)
C3_2 C 0.9789(5) 0.2125(7) 0.4192(13)
H1_2 H 0.9687 0.1510 0.4205
C7_2 C 0.9639(3) 0.3733(8) 0.4337(9)
H4_2 H 0.9447 0.4220 0.4476
C17_2 C 0.8481(8) 0.3304(17) 0.7681(15)
C18_2 C 0.9264(8) 0.3886(18) 0.7913(18)
H9_2 H 0.9313 0.3313 0.7579
H10_2 H 0.9529 0.4004 0.8426
H11_2 H 0.9230 0.4391 0.7443
C19_2 C 0.8512(8) 0.4199(17) 0.8940(17)
H12_2 H 0.8289 0.3729 0.9047
H13_2 H 0.8350 0.4718 0.8591
H14_2 H 0.8679 0.4408 0.9569
C20_2 C 0.8670(9) 0.0830(15) 0.7373(10)
C21_2 C 0.8990(9) 0.0245(17) 0.9209(12)
H16_2 H 0.8734 0.0480 0.9502
H17_2 H 0.9250 0.0671 0.9340
O9_2 O 0.73232(19) 0.1507(4) 0.4614(4)
O10_2 O 0.76768(19) 0.3493(4) 0.5386(4)
O11_2 O 0.7944(2) 0.0662(4) 0.4463(5)
O12_2 O 0.7715(2) 0.1684(6) 0.6690(5)
H21_2 H 0.858179 0.149714 0.76785
H22_2 H 0.811769 0.333071 0.780043
C9_3 C 0.2490(3) 0.0787(5) 0.0700(6)
C10_3 C 0.2801(3) 0.0050(6) 0.1280(6)
H8_3 H 0.3404 0.0394 0.0802
O2_3 O 0.6067(2) 0.6804(5) 0.0177(7)
O5_3 O 0.2285(2) 0.8316(6) 0.3310(5)
O6_2 O 0.2990(2) 0.7620(5) 0.3701(5)
N1_3 N 0.4015(3) 0.9171(6) 0.1493(6)
C1_3 C 0.5950(3) 0.7624(8) 0.0214(8)
C2_3 C 0.5501(3) 0.7838(7) 0.0571(8)
C3_3 C 0.5211(5) 0.7125(7) 0.0808(13)
H1_3 H 0.5313 0.6510 0.0795
C4_3 C 0.4780(5) 0.7300(8) 0.1059(13)
H2_3 H 0.4577 0.6812 0.1134
C5_3 C 0.4651(4) 0.8217(8) 0.1198(8)
C6_3 C 0.4929(4) 0.8935(8) 0.0967(9)
H3_3 H 0.4833 0.9552 0.1011
C7_3 C 0.5361(3) 0.8733(8) 0.0663(9)
H4_3 H 0.5553 0.9220 0.0524
C8_3 C 0.4183(4) 0.8388(8) 0.1446(9)
H5_3 H 0.400(4) 0.786(5) 0.118(8)
C11_3 C 0.2612(3) 0.9458(6) 0.1932(6)
H6_3 H 0.2298 0.9515 0.2003
C12_3 C 0.2895(3) 0.8785(6) 0.2473(6)
C13_3 C 0.3366(3) 0.8702(6) 0.2369(6)
H7_3 H 0.3561 0.8278 0.2758
C14_3 C 0.3542(3) 0.9263(6) 0.1672(7)
C15_3 C 0.3271(3) 0.9969(6) 0.1190(7)
C16_3 C 0.2711(3) 0.8214(7) 0.3215(6)
O13_2 O 0.7010(2) 0.7620(5) 0.1299(5)
O1_3 O 0.6189(2) 0.8276(5) 0.9941(6)
O7_3 O 0.6418(5) 0.7841(7) 0.8028(10)
O8_3 O 0.6401(4) 0.5823(7) 0.8561(9)
N2_3 N 0.6159(7) 0.8811(14) 0.6646(14)
N3_3 N 0.6157(7) 0.5151(12) 0.6861(11)
C17_3 C 0.6519(8) 0.8304(17) 0.7319(15)
C18_3 C 0.5736(8) 0.8886(18) 0.7087(18)
H9_3 H 0.5687 0.8313 0.7421
H10_3 H 0.5471 0.9004 0.6574
H11_3 H 0.5770 0.9391 0.7557
C19_3 C 0.6488(8) 0.9199(17) 0.6060(17)
H12_3 H 0.6711 0.8729 0.5953
H13_3 H 0.6650 0.9718 0.6409
H14_3 H 0.6321 0.9408 0.5431
C20_3 C 0.6330(9) 0.5830(15) 0.7627(10)
C21_3 C 0.6010(9) 0.5245(17) 0.5791(12)
H15 H 0.5916 0.4646 0.5509
H16_3 H 0.6266 0.5480 0.5498
H17_3 H 0.5750 0.5671 0.5660
C22 C 0.6279(9) 0.4347(15) 0.7511(17)
H18 H 0.6394 0.4560 0.8175
H19 H 0.6518 0.3987 0.7274
H20 H 0.6005 0.3966 0.7513
O10_3 O 0.73232(19) 0.8493(4) 0.9614(4)
O12_3 O 0.7285(2) 0.6684(6) 0.8310(5)
H21_3 H 0.641821 0.649714 0.73215
H22_3 H 0.688231 0.833071 0.719957
C9_4 C 0.7510(3) 0.0787(5) 0.4300(6)
C10_4 C 0.7199(3) 0.0050(6) 0.3720(6)
H8_4 H 0.6596 0.0394 0.4198
O1_4 O 0.3811(2) 0.8276(5) 0.5059(6)
O2_4 O 0.3933(2) 0.6804(5) 0.4823(7)
O5_4 O 0.7715(2) 0.8316(6) 0.1690(5)
O7_4 O 0.3582(5) 0.7841(7) 0.6972(10)
O8_4 O 0.3599(4) 0.5823(7) 0.6439(9)
N1_4 N 0.5985(3) 0.9171(6) 0.3507(6)
N2_4 N 0.3841(7) 0.8811(14) 0.8354(14)
N3_4 N 0.3843(7) 0.5151(12) 0.8139(11)
C1_4 C 0.4050(3) 0.7624(8) 0.4786(8)
C2_4 C 0.4499(3) 0.7838(7) 0.4429(8)
C3_4 C 0.4789(5) 0.7125(7) 0.4192(13)
H1_4 H 0.4687 0.6510 0.4205
C4_4 C 0.5220(5) 0.7300(8) 0.3941(13)
H2_4 H 0.5423 0.6812 0.3866
C5_4 C 0.5349(4) 0.8217(8) 0.3802(8)
C6_4 C 0.5071(4) 0.8935(8) 0.4033(9)
H3_4 H 0.5167 0.9552 0.3989
C7_4 C 0.4639(3) 0.8733(8) 0.4337(9)
H4_4 H 0.4447 0.9220 0.4476
C8_4 C 0.5817(4) 0.8388(8) 0.3554(9)
H5_4 H 0.600(4) 0.786(5) 0.382(8)
C11_4 C 0.7388(3) 0.9458(6) 0.3068(6)
H6_4 H 0.7702 0.9515 0.2997
C12_4 C 0.7105(3) 0.8785(6) 0.2527(6)
C13_4 C 0.6634(3) 0.8702(6) 0.2631(6)
H7_4 H 0.6439 0.8278 0.2242
C14_4 C 0.6458(3) 0.9263(6) 0.3328(7)
C15_4 C 0.6729(3) 0.9969(6) 0.3810(7)
C16_4 C 0.7289(3) 0.8214(7) 0.1785(6)
C17_4 C 0.3481(8) 0.8304(17) 0.7681(15)
C18_4 C 0.4264(8) 0.8886(18) 0.7913(18)
H9_4 H 0.4313 0.8313 0.7579
H10_4 H 0.4529 0.9004 0.8426
H11_4 H 0.4230 0.9391 0.7443
C19_4 C 0.3512(8) 0.9199(17) 0.8940(17)
H12_4 H 0.3289 0.8729 0.9047
H13_4 H 0.3350 0.9718 0.8591
H14_4 H 0.3679 0.9408 0.9569
C20_4 C 0.3670(9) 0.5830(15) 0.7373(10)
C21_4 C 0.3990(9) 0.5245(17) 0.9209(12)
H15_2 H 0.4084 0.4646 0.9491
H16_4 H 0.3734 0.5480 0.9502
H17_4 H 0.4250 0.5671 0.9340
C22_2 C 0.3721(9) 0.4347(15) 0.7489(17)
H18_2 H 0.3606 0.4560 0.6825
H19_2 H 0.3482 0.3987 0.7726
H20_2 H 0.3995 0.3966 0.7487
O10_4 O 0.26768(19) 0.8493(4) 0.5386(4)
O12_4 O 0.2715(2) 0.6684(6) 0.6690(5)
H21_4 H 0.358179 0.649714 0.76785
H22_4 H 0.311769 0.833071 0.780043
O4_3 O 0.2944(2) 0.4338(4) 0.9463(5)
O6_3 O 0.2010(2) 0.7380(5) 0.6299(5)
N1_5 N 0.0985(3) 0.5829(6) 0.8507(6)
C4_5 C 0.0220(5) 0.7700(8) 0.8941(13)
H2_5 H 0.0423 0.8188 0.8866
C5_5 C 0.0349(4) 0.6783(8) 0.8802(8)
C6_5 C 0.0071(4) 0.6065(8) 0.9033(9)
H3_5 H 0.0167 0.5448 0.8989
C8_5 C 0.0817(4) 0.6612(8) 0.8554(9)
H5_5 H 0.100(4) 0.714(5) 0.882(8)
C9_5 C 0.2510(3) 0.4213(5) 0.9300(6)
C10_5 C 0.2199(3) 0.4950(6) 0.8720(6)
C11_5 C 0.2388(3) 0.5542(6) 0.8068(6)
H6_5 H 0.2702 0.5485 0.7997
C12_5 C 0.2105(3) 0.6215(6) 0.7527(6)
C13_5 C 0.1634(3) 0.6298(6) 0.7631(6)
H7_5 H 0.1439 0.6722 0.7242
C14_5 C 0.1458(3) 0.5737(6) 0.8328(7)
C15_5 C 0.1729(3) 0.5031(6) 0.8810(7)
H8_5 H 0.1596 0.4606 0.9198
C16_5 C 0.2289(3) 0.6786(7) 0.6785(6)
O1_5 O 0.8811(2) 0.6724(5) 0.0059(6)
O7_5 O 0.8582(5) 0.7159(7) 0.1972(10)
O8_5 O 0.8599(4) 0.9177(7) 0.1439(9)
N2_5 N 0.8841(7) 0.6189(14) 0.3354(14)
N3_5 N 0.8843(7) 0.9849(12) 0.3139(11)
C17_5 C 0.8481(8) 0.6696(17) 0.2681(15)
C18_5 C 0.9264(8) 0.6114(18) 0.2913(18)
H9_5 H 0.9313 0.6687 0.2579
H10_5 H 0.9529 0.5996 0.3426
H11_5 H 0.9230 0.5609 0.2443
C19_5 C 0.8512(8) 0.5801(17) 0.3940(17)
H12_5 H 0.8289 0.6271 0.4047
H13_5 H 0.8350 0.5282 0.3591
H14_5 H 0.8679 0.5592 0.4569
C20_5 C 0.8670(9) 0.9170(15) 0.2373(10)
C21_5 C 0.8990(9) 0.9755(17) 0.4209(12)
H16_5 H 0.8734 0.9520 0.4502
H17_5 H 0.9250 0.9329 0.4340
H21_5 H 0.858179 0.850286 0.26785
H22_5 H 0.811769 0.666929 0.280043
O2_5 O 0.8933(2) 0.8196(5) 0.9823(7)
C1_5 C 0.9050(3) 0.7376(8) 0.9786(8)
C2_5 C 0.9499(3) 0.7162(7) 0.9429(8)
C3_5 C 0.9789(5) 0.7875(7) 0.9192(13)
H1_5 H 0.9687 0.8490 0.9205
C7_5 C 0.9639(3) 0.6267(8) 0.9337(9)
H4_5 H 0.9447 0.5780 0.9476
O11_3 O 0.7944(2) 0.9338(4) 0.9463(5)
O13_3 O 0.7990(2) 0.7380(5) 0.8701(5)
O1_6 O 0.1189(2) 0.6724(5) 0.4941(6)
O2_6 O 0.1067(2) 0.8196(5) 0.5177(7)
O7_6 O 0.1418(5) 0.7159(7) 0.3028(10)
O8_6 O 0.1401(4) 0.9177(7) 0.3561(9)
N2_6 N 0.1159(7) 0.6189(14) 0.1646(14)
N3_6 N 0.1157(7) 0.9849(12) 0.1861(11)
C1_6 C 0.0950(3) 0.7376(8) 0.5214(8)
C2_6 C 0.0501(3) 0.7162(7) 0.5571(8)
C3_6 C 0.0211(5) 0.7875(7) 0.5808(13)
H1_6 H 0.0313 0.8490 0.5795
C7_6 C 0.0361(3) 0.6267(8) 0.5663(9)
H4_6 H 0.0553 0.5780 0.5524
C17_6 C 0.1519(8) 0.6696(17) 0.2319(15)
C18_6 C 0.0736(8) 0.6114(18) 0.2087(18)
H9_6 H 0.0687 0.6687 0.2421
H10_6 H 0.0471 0.5996 0.1574
H11_6 H 0.0770 0.5609 0.2557
C19_6 C 0.1488(8) 0.5801(17) 0.1060(17)
H12_6 H 0.1711 0.6271 0.0953
H13_6 H 0.1650 0.5282 0.1409
H14_6 H 0.1321 0.5592 0.0431
C20_6 C 0.1330(9) 0.9170(15) 0.2627(10)
C21_6 C 0.1010(9) 0.9755(17) 0.0791(12)
H16_6 H 0.1266 0.9520 0.0498
H17_6 H 0.0750 0.9329 0.0660
O11_4 O 0.2056(2) 0.9338(4) 0.5537(5)
H21_6 H 0.141821 0.850286 0.23215
H22_6 H 0.188231 0.666929 0.219957
O4_4 O 0.7056(2) 0.4338(4) 0.5537(5)
N1_6 N 0.9015(3) 0.5829(6) 0.6493(6)
C4_6 C 0.9780(5) 0.7700(8) 0.6059(13)
H2_6 H 0.9577 0.8188 0.6134
C5_6 C 0.9651(4) 0.6783(8) 0.6198(8)
C6_6 C 0.9929(4) 0.6065(8) 0.5967(9)
H3_6 H 0.9833 0.5448 0.6011
C8_6 C 0.9183(4) 0.6612(8) 0.6446(9)
H5_6 H 0.900(4) 0.714(5) 0.618(8)
C9_6 C 0.7490(3) 0.4213(5) 0.5700(6)
C10_6 C 0.7801(3) 0.4950(6) 0.6280(6)
C11_6 C 0.7612(3) 0.5542(6) 0.6932(6)
H6_6 H 0.7298 0.5485 0.7003
C12_6 C 0.7895(3) 0.6215(6) 0.7473(6)
C13_6 C 0.8366(3) 0.6298(6) 0.7369(6)
H7_6 H 0.8561 0.6722 0.7758
C14_6 C 0.8542(3) 0.5737(6) 0.6672(7)
C15_6 C 0.8271(3) 0.5031(6) 0.6190(7)
H8_6 H 0.8404 0.4606 0.5802
C16_6 C 0.7711(3) 0.6786(7) 0.8215(6)
O1_7 O 0.3811(2) 0.1724(5) 0.0059(6)
O7_7 O 0.3582(5) 0.2159(7) 0.1972(10)
O8_7 O 0.3599(4) 0.4177(7) 0.1439(9)
N2_7 N 0.3841(7) 0.1189(14) 0.3354(14)
N3_7 N 0.3843(7) 0.4849(12) 0.3139(11)
C17_7 C 0.3481(8) 0.1696(17) 0.2681(15)
C18_7 C 0.4264(8) 0.1114(18) 0.2913(18)
H9_7 H 0.4313 0.1687 0.2579
H10_7 H 0.4529 0.0996 0.3426
H11_7 H 0.4230 0.0609 0.2443
C19_7 C 0.3512(8) 0.0801(17) 0.3940(17)
H12_7 H 0.3289 0.1271 0.4047
H13_7 H 0.3350 0.0282 0.3591
H14_7 H 0.3679 0.0592 0.4569
C20_7 C 0.3670(9) 0.4170(15) 0.2373(10)
C21_7 C 0.3990(9) 0.4755(17) 0.4209(12)
H15_3 H 0.4084 0.5354 0.4491
H16_7 H 0.3734 0.4520 0.4502
H17_7 H 0.4250 0.4329 0.4340
C22_3 C 0.3721(9) 0.5653(15) 0.2489(17)
H18_3 H 0.3606 0.5440 0.1825
H19_3 H 0.3482 0.6013 0.2726
H20_3 H 0.3995 0.6034 0.2487
H21_7 H 0.358179 0.350286 0.26785
H22_7 H 0.311769 0.166929 0.280043
O2_7 O 0.3933(2) 0.3196(5) 0.9823(7)
O6_4 O 0.7010(2) 0.2380(5) 0.6299(5)
N1_7 N 0.5985(3) 0.0829(6) 0.8507(6)
C1_7 C 0.4050(3) 0.2376(8) 0.9786(8)
C2_7 C 0.4499(3) 0.2162(7) 0.9429(8)
C3_7 C 0.4789(5) 0.2875(7) 0.9192(13)
H1_7 H 0.4687 0.3490 0.9205
C4_7 C 0.5220(5) 0.2700(8) 0.8941(13)
H2_7 H 0.5423 0.3188 0.8866
C5_7 C 0.5349(4) 0.1783(8) 0.8802(8)
C6_7 C 0.5071(4) 0.1065(8) 0.9033(9)
H3_7 H 0.5167 0.0448 0.8989
C7_7 C 0.4639(3) 0.1267(8) 0.9337(9)
H4_7 H 0.4447 0.0780 0.9476
C8_7 C 0.5817(4) 0.1612(8) 0.8554(9)
H5_7 H 0.600(4) 0.214(5) 0.882(8)
C11_7 C 0.7388(3) 0.0542(6) 0.8068(6)
H6_7 H 0.7702 0.0485 0.7997
C12_7 C 0.7105(3) 0.1215(6) 0.7527(6)
C13_7 C 0.6634(3) 0.1298(6) 0.7631(6)
H7_7 H 0.6439 0.1722 0.7242
C14_7 C 0.6458(3) 0.0737(6) 0.8328(7)
C15_7 C 0.6729(3) 0.0031(6) 0.8810(7)
C16_7 C 0.7289(3) 0.1786(7) 0.6785(6)
O13_4 O 0.2990(2) 0.2380(5) 0.8701(5)
C9_7 C 0.7510(3) 0.9213(5) 0.9300(6)
C10_7 C 0.7199(3) 0.9950(6) 0.8720(6)
H8_7 H 0.6596 0.9606 0.9198
O1_8 O 0.6189(2) 0.1724(5) 0.4941(6)
O2_8 O 0.6067(2) 0.3196(5) 0.5177(7)
O7_8 O 0.6418(5) 0.2159(7) 0.3028(10)
O8_8 O 0.6401(4) 0.4177(7) 0.3561(9)
N1_8 N 0.4015(3) 0.0829(6) 0.6493(6)
N2_8 N 0.6159(7) 0.1189(14) 0.1646(14)
N3_8 N 0.6157(7) 0.4849(12) 0.1861(11)
C1_8 C 0.5950(3) 0.2376(8) 0.5214(8)
C2_8 C 0.5501(3) 0.2162(7) 0.5571(8)
C3_8 C 0.5211(5) 0.2875(7) 0.5808(13)
H1_8 H 0.5313 0.3490 0.5795
C4_8 C 0.4780(5) 0.2700(8) 0.6059(13)
H2_8 H 0.4577 0.3188 0.6134
C5_8 C 0.4651(4) 0.1783(8) 0.6198(8)
C6_8 C 0.4929(4) 0.1065(8) 0.5967(9)
H3_8 H 0.4833 0.0448 0.6011
C7_8 C 0.5361(3) 0.1267(8) 0.5663(9)
H4_8 H 0.5553 0.0780 0.5524
C8_8 C 0.4183(4) 0.1612(8) 0.6446(9)
H5_8 H 0.400(4) 0.214(5) 0.618(8)
C11_8 C 0.2612(3) 0.0542(6) 0.6932(6)
H6_8 H 0.2298 0.0485 0.7003
C12_8 C 0.2895(3) 0.1215(6) 0.7473(6)
C13_8 C 0.3366(3) 0.1298(6) 0.7369(6)
H7_8 H 0.3561 0.1722 0.7758
C14_8 C 0.3542(3) 0.0737(6) 0.6672(7)
C15_8 C 0.3271(3) 0.0031(6) 0.6190(7)
C16_8 C 0.2711(3) 0.1786(7) 0.8215(6)
C17_8 C 0.6519(8) 0.1696(17) 0.2319(15)
C18_8 C 0.5736(8) 0.1114(18) 0.2087(18)
H9_8 H 0.5687 0.1687 0.2421
H10_8 H 0.5471 0.0996 0.1574
H11_8 H 0.5770 0.0609 0.2557
C19_8 C 0.6488(8) 0.0801(17) 0.1060(17)
H12_8 H 0.6711 0.1271 0.0953
H13_8 H 0.6650 0.0282 0.1409
H14_8 H 0.6321 0.0592 0.0431
C20_8 C 0.6330(9) 0.4170(15) 0.2627(10)
C21_8 C 0.6010(9) 0.4755(17) 0.0791(12)
H15_4 H 0.5916 0.5354 0.0509
H16_8 H 0.6266 0.4520 0.0498
H17_8 H 0.5750 0.4329 0.0660
C22_4 C 0.6279(9) 0.5653(15) 0.2511(17)
H18_4 H 0.6394 0.5440 0.3175
H19_4 H 0.6518 0.6013 0.2274
H20_4 H 0.6005 0.6034 0.2513
H21_8 H 0.641821 0.350286 0.23215
H22_8 H 0.688231 0.166929 0.219957
C9_8 C 0.2490(3) 0.9213(5) 0.5700(6)
C10_8 C 0.2801(3) 0.9950(6) 0.6280(6)
H8_8 H 0.3404 0.9606 0.5802
H15_5 H 0.0916 0.9646 0.5509
C22_5 C 0.1279(9) 0.9347(15) 0.7511(17)
H18_5 H 0.1394 0.9560 0.8175
H19_5 H 0.1518 0.8987 0.7274
H20_5 H 0.1005 0.8966 0.7513
H15_6 H 0.9084 0.9646 0.9491
C22_6 C 0.8721(9) 0.9347(15) 0.7489(17)
H18_6 H 0.8606 0.9560 0.6825
H19_6 H 0.8482 0.8987 0.7726
H20_6 H 0.8995 0.8966 0.7487
H15_7 H 0.9084 0.0354 0.4491
C22_7 C 0.8721(9) 0.0653(15) 0.2489(17)
H18_7 H 0.8606 0.0440 0.1825
H19_7 H 0.8482 0.1013 0.2726
H20_7 H 0.8995 0.1034 0.2487
H15_8 H 0.0916 0.0354 0.0509
C22_8 C 0.1279(9) 0.0653(15) 0.2511(17)
H18_8 H 0.1394 0.0440 0.3175
H19_8 H 0.1518 0.1013 0.2274
H20_8 H 0.1005 0.1034 0.2513
loop_
_geom_bond_atom_site_label_1
_geom_bond_atom_site_label_2
_geom_bond_site_symmetry_1
_geom_bond_site_symmetry_2
C1 O2 1_555 1_555
C2 C1 1_555 1_555
C3 C2 1_555 1_555
H1 C3 1_555 1_555
C7 C2 1_555 1_555
H4 C7 1_555 1_555
Pr1 O1 1_555 1_555
O7 Pr1 1_555 1_555
O8 Pr1 1_555 1_555
N2 C17 1_555 1_555
N3 C20 1_555 1_555
C17 O7 1_555 1_555
C18 N2 1_555 1_555
H9 C18 1_555 1_555
H10 C18 1_555 1_555
H11 C18 1_555 1_555
C19 N2 1_555 1_555
H12 C19 1_555 1_555
H13 C19 1_555 1_555
H14 C19 1_555 1_555
C20 O8 1_555 1_555
C21 N3 1_555 1_555
H16 C21 1_555 1_555
H17 C21 1_555 1_555
O10 Pr1 1_555 1_555
O12 Pr1 1_555 1_555
C20 H21 1_555 1_555
C17 H22 1_555 1_555
O3 C9 1_555 1_555
O4 C9 1_555 1_555
O5 C16 1_555 1_555
O6 C16 1_555 1_555
N1 C8 1_555 1_555
H2 C4 1_555 1_555
C5 C4 1_555 1_555
C6 C5 1_555 1_555
H3 C6 1_555 1_555
C8 C5 1_555 1_555
H5 C8 1_555 1_555
C9 C10 1_555 1_555
C10 C11 1_555 1_555
C11 H6 1_555 1_555
C12 C11 1_555 1_555
C13 C12 1_555 1_555
H7 C13 1_555 1_555
C14 N1 1_555 1_555
C15 C10 1_555 1_555
H8 C15 1_555 1_555
C16 C12 1_555 1_555
Pr2 O6 1_555 1_555
Pr4 O3 1_555 1_555
Pr5 O5 1_555 1_555
C13 C14 1_555 1_555
C14 C15 1_555 1_555
O3_2 C9_2 1_555 1_555
O4_2 C9_2 1_555 1_555
O5_2 C16_2 1_555 1_555
O13 C16_2 1_555 1_555
N1_2 C8_2 1_555 1_555
H2_2 C4_2 1_555 1_555
C5_2 C4_2 1_555 1_555
C6_2 C5_2 1_555 1_555
H3_2 C6_2 1_555 1_555
C8_2 C5_2 1_555 1_555
H5_2 C8_2 1_555 1_555
C9_2 C10_2 1_555 1_555
C10_2 C11_2 1_555 1_555
C11_2 H6_2 1_555 1_555
C12_2 C11_2 1_555 1_555
C13_2 C12_2 1_555 1_555
H7_2 C13_2 1_555 1_555
C14_2 N1_2 1_555 1_555
C15_2 C10_2 1_555 1_555
H8_2 C15_2 1_555 1_555
C16_2 C12_2 1_555 1_555
Pr3_2 O3_2 1_555 1_555
Pr4_2 O3_2 1_555 1_555
Pr5_2 O5_2 1_555 1_555
O4_2 Pr3_2 1_555 1_555
C13_2 C14_2 1_555 1_555
C14_2 C15_2 1_555 1_555
Pr2 O1_2 1_555 1_555
O1_2 C1_2 1_555 1_555
O2_2 Pr2 1_555 1_555
O7_2 Pr2 1_555 1_555
O8_2 Pr2 1_555 1_555
N2_2 C17_2 1_555 1_555
N3_2 C20_2 1_555 1_555
C1_2 O2_2 1_555 1_555
C2_2 C1_2 1_555 1_555
C3_2 C2_2 1_555 1_555
H1_2 C3_2 1_555 1_555
C7_2 C2_2 1_555 1_555
H4_2 C7_2 1_555 1_555
C17_2 O7_2 1_555 1_555
C18_2 N2_2 1_555 1_555
H9_2 C18_2 1_555 1_555
H10_2 C18_2 1_555 1_555
H11_2 C18_2 1_555 1_555
C19_2 N2_2 1_555 1_555
H12_2 C19_2 1_555 1_555
H13_2 C19_2 1_555 1_555
H14_2 C19_2 1_555 1_555
C20_2 O8_2 1_555 1_555
C21_2 N3_2 1_555 1_555
H16_2 C21_2 1_555 1_555
H17_2 C21_2 1_555 1_555
O9_2 Pr2 1_555 1_555
O10_2 Pr2 1_555 1_555
O11_2 Pr2 1_555 1_555
O12_2 Pr2 1_555 1_555
C20_2 H21_2 1_555 1_555
C17_2 H22_2 1_555 1_555
O9 C9_3 1_555 1_555
O11 C9_3 1_555 1_555
C9_3 C10_3 1_555 1_555
Pr5_2 O9 1_555 1_555
O5_3 C16_3 1_555 1_555
O6_2 C16_3 1_555 1_555
N1_3 C8_3 1_555 1_555
C1_3 O2_3 1_555 1_555
C2_3 C1_3 1_555 1_555
C3_3 C2_3 1_555 1_555
H1_3 C3_3 1_555 1_555
C4_3 C3_3 1_555 1_555
H2_3 C4_3 1_555 1_555
C5_3 C4_3 1_555 1_555
C6_3 C5_3 1_555 1_555
H3_3 C6_3 1_555 1_555
C7_3 C2_3 1_555 1_555
H4_3 C7_3 1_555 1_555
C8_3 C5_3 1_555 1_555
H5_3 C8_3 1_555 1_555
C11_3 H6_3 1_555 1_555
C12_3 C11_3 1_555 1_555
C13_3 C12_3 1_555 1_555
H7_3 C13_3 1_555 1_555
C14_3 N1_3 1_555 1_555
C16_3 C12_3 1_555 1_555
Pr3_2 O6_2 1_555 1_555
Pr4_2 O5_3 1_555 1_555
C6_3 C7_3 1_555 1_555
C13_3 C14_3 1_555 1_555
C14_3 C15_3 1_555 1_555
Pr3 O1_3 1_555 1_555
O7_3 Pr3 1_555 1_555
O8_3 Pr3 1_555 1_555
N2_3 C17_3 1_555 1_555
N3_3 C20_3 1_555 1_555
C17_3 O7_3 1_555 1_555
C18_3 N2_3 1_555 1_555
H9_3 C18_3 1_555 1_555
H10_3 C18_3 1_555 1_555
H11_3 C18_3 1_555 1_555
C19_3 N2_3 1_555 1_555
H12_3 C19_3 1_555 1_555
H13_3 C19_3 1_555 1_555
H14_3 C19_3 1_555 1_555
C20_3 O8_3 1_555 1_555
C21_3 N3_3 1_555 1_555
H15 C21_3 1_555 1_555
H16_3 C21_3 1_555 1_555
H17_3 C21_3 1_555 1_555
C22 N3_3 1_555 1_555
H18 C22 1_555 1_555
H19 C22 1_555 1_555
H20 C22 1_555 1_555
O10_3 Pr3 1_555 1_555
O12_3 Pr3 1_555 1_555
C20_3 H21_3 1_555 1_555
C17_3 H22_3 1_555 1_555
O9_2 C9_4 1_555 1_555
O11_2 C9_4 1_555 1_555
C9_4 C10_4 1_555 1_555
Pr5 O9_2 1_555 1_555
Pr3_2 O1_4 1_555 1_555
O1_4 C1_4 1_555 1_555
O2_4 Pr3_2 1_555 1_555
O5_4 C16_4 1_555 1_555
O13_2 C16_4 1_555 1_555
O7_4 Pr3_2 1_555 1_555
O8_4 Pr3_2 1_555 1_555
N1_4 C8_4 1_555 1_555
N2_4 C17_4 1_555 1_555
N3_4 C20_4 1_555 1_555
C1_4 O2_4 1_555 1_555
C2_4 C1_4 1_555 1_555
C3_4 C2_4 1_555 1_555
H1_4 C3_4 1_555 1_555
C4_4 C3_4 1_555 1_555
H2_4 C4_4 1_555 1_555
C5_4 C4_4 1_555 1_555
C6_4 C5_4 1_555 1_555
H3_4 C6_4 1_555 1_555
C7_4 C2_4 1_555 1_555
H4_4 C7_4 1_555 1_555
C8_4 C5_4 1_555 1_555
H5_4 C8_4 1_555 1_555
C11_4 H6_4 1_555 1_555
C12_4 C11_4 1_555 1_555
C13_4 C12_4 1_555 1_555
H7_4 C13_4 1_555 1_555
C14_4 N1_4 1_555 1_555
C16_4 C12_4 1_555 1_555
C17_4 O7_4 1_555 1_555
C18_4 N2_4 1_555 1_555
H9_4 C18_4 1_555 1_555
H10_4 C18_4 1_555 1_555
H11_4 C18_4 1_555 1_555
C19_4 N2_4 1_555 1_555
H12_4 C19_4 1_555 1_555
H13_4 C19_4 1_555 1_555
H14_4 C19_4 1_555 1_555
C20_4 O8_4 1_555 1_555
C21_4 N3_4 1_555 1_555
H15_2 C21_4 1_555 1_555
H16_4 C21_4 1_555 1_555
H17_4 C21_4 1_555 1_555
C22_2 N3_4 1_555 1_555
H18_2 C22_2 1_555 1_555
H19_2 C22_2 1_555 1_555
H20_2 C22_2 1_555 1_555
Pr4 O5_4 1_555 1_555
O10_4 Pr3_2 1_555 1_555
O12_4 Pr3_2 1_555 1_555
C6_4 C7_4 1_555 1_555
C13_4 C14_4 1_555 1_555
C14_4 C15_4 1_555 1_555
C20_4 H21_4 1_555 1_555
C17_4 H22_4 1_555 1_555
O10 C9_5 1_555 1_555
O4_3 C9_5 1_555 1_555
O12_4 C16_5 1_555 1_555
O6_3 C16_5 1_555 1_555
N1_5 C8_5 1_555 1_555
H2_5 C4_5 1_555 1_555
C5_5 C4_5 1_555 1_555
C6_5 C5_5 1_555 1_555
H3_5 C6_5 1_555 1_555
C8_5 C5_5 1_555 1_555
H5_5 C8_5 1_555 1_555
C9_5 C10_5 1_555 1_555
C10_5 C11_5 1_555 1_555
C11_5 H6_5 1_555 1_555
C12_5 C11_5 1_555 1_555
C13_5 C12_5 1_555 1_555
H7_5 C13_5 1_555 1_555
C14_5 N1_5 1_555 1_555
C15_5 C10_5 1_555 1_555
H8_5 C15_5 1_555 1_555
C16_5 C12_5 1_555 1_555
Pr4_2 O6_3 1_555 1_555
C13_5 C14_5 1_555 1_555
C14_5 C15_5 1_555 1_555
Pr4 O1_5 1_555 1_555
O7_5 Pr4 1_555 1_555
O8_5 Pr4 1_555 1_555
N2_5 C17_5 1_555 1_555
N3_5 C20_5 1_555 1_555
C17_5 O7_5 1_555 1_555
C18_5 N2_5 1_555 1_555
H9_5 C18_5 1_555 1_555
H10_5 C18_5 1_555 1_555
H11_5 C18_5 1_555 1_555
C19_5 N2_5 1_555 1_555
H12_5 C19_5 1_555 1_555
H13_5 C19_5 1_555 1_555
H14_5 C19_5 1_555 1_555
C20_5 O8_5 1_555 1_555
C21_5 N3_5 1_555 1_555
H16_5 C21_5 1_555 1_555
H17_5 C21_5 1_555 1_555
C20_5 H21_5 1_555 1_555
C17_5 H22_5 1_555 1_555
C1_5 O2_5 1_555 1_555
C2_5 C1_5 1_555 1_555
C3_5 C2_5 1_555 1_555
H1_5 C3_5 1_555 1_555
C7_5 C2_5 1_555 1_555
H4_5 C7_5 1_555 1_555
Pr4_2 O1_6 1_555 1_555
O1_6 C1_6 1_555 1_555
O2_6 Pr4_2 1_555 1_555
O7_6 Pr4_2 1_555 1_555
O8_6 Pr4_2 1_555 1_555
N2_6 C17_6 1_555 1_555
N3_6 C20_6 1_555 1_555
C1_6 O2_6 1_555 1_555
C2_6 C1_6 1_555 1_555
C3_6 C2_6 1_555 1_555
H1_6 C3_6 1_555 1_555
C7_6 C2_6 1_555 1_555
H4_6 C7_6 1_555 1_555
C17_6 O7_6 1_555 1_555
C18_6 N2_6 1_555 1_555
H9_6 C18_6 1_555 1_555
H10_6 C18_6 1_555 1_555
H11_6 C18_6 1_555 1_555
C19_6 N2_6 1_555 1_555
H12_6 C19_6 1_555 1_555
H13_6 C19_6 1_555 1_555
H14_6 C19_6 1_555 1_555
C20_6 O8_6 1_555 1_555
C21_6 N3_6 1_555 1_555
H16_6 C21_6 1_555 1_555
H17_6 C21_6 1_555 1_555
O10_4 Pr4_2 1_555 1_555
O11_4 Pr4_2 1_555 1_555
C20_6 H21_6 1_555 1_555
C17_6 H22_6 1_555 1_555
O10_2 C9_6 1_555 1_555
O4_4 C9_6 1_555 1_555
O12_3 C16_6 1_555 1_555
O13_3 C16_6 1_555 1_555
N1_6 C8_6 1_555 1_555
H2_6 C4_6 1_555 1_555
C5_6 C4_6 1_555 1_555
C6_6 C5_6 1_555 1_555
H3_6 C6_6 1_555 1_555
C8_6 C5_6 1_555 1_555
H5_6 C8_6 1_555 1_555
C9_6 C10_6 1_555 1_555
C10_6 C11_6 1_555 1_555
C11_6 H6_6 1_555 1_555
C12_6 C11_6 1_555 1_555
C13_6 C12_6 1_555 1_555
H7_6 C13_6 1_555 1_555
C14_6 N1_6 1_555 1_555
C15_6 C10_6 1_555 1_555
H8_6 C15_6 1_555 1_555
C16_6 C12_6 1_555 1_555
Pr5 O10_2 1_555 1_555
O4_4 Pr5 1_555 1_555
C13_6 C14_6 1_555 1_555
C14_6 C15_6 1_555 1_555
Pr5_2 O1_7 1_555 1_555
O7_7 Pr5_2 1_555 1_555
O8_7 Pr5_2 1_555 1_555
N2_7 C17_7 1_555 1_555
N3_7 C20_7 1_555 1_555
C17_7 O7_7 1_555 1_555
C18_7 N2_7 1_555 1_555
H9_7 C18_7 1_555 1_555
H10_7 C18_7 1_555 1_555
H11_7 C18_7 1_555 1_555
C19_7 N2_7 1_555 1_555
H12_7 C19_7 1_555 1_555
H13_7 C19_7 1_555 1_555
H14_7 C19_7 1_555 1_555
C20_7 O8_7 1_555 1_555
C21_7 N3_7 1_555 1_555
H15_3 C21_7 1_555 1_555
H16_7 C21_7 1_555 1_555
H17_7 C21_7 1_555 1_555
C22_3 N3_7 1_555 1_555
H18_3 C22_3 1_555 1_555
H19_3 C22_3 1_555 1_555
H20_3 C22_3 1_555 1_555
C20_7 H21_7 1_555 1_555
C17_7 H22_7 1_555 1_555
O12_2 C16_7 1_555 1_555
O6_4 C16_7 1_555 1_555
N1_7 C8_7 1_555 1_555
C1_7 O2_7 1_555 1_555
C2_7 C1_7 1_555 1_555
C3_7 C2_7 1_555 1_555
H1_7 C3_7 1_555 1_555
C4_7 C3_7 1_555 1_555
H2_7 C4_7 1_555 1_555
C5_7 C4_7 1_555 1_555
C6_7 C5_7 1_555 1_555
H3_7 C6_7 1_555 1_555
C7_7 C2_7 1_555 1_555
H4_7 C7_7 1_555 1_555
C8_7 C5_7 1_555 1_555
H5_7 C8_7 1_555 1_555
C11_7 H6_7 1_555 1_555
C12_7 C11_7 1_555 1_555
C13_7 C12_7 1_555 1_555
H7_7 C13_7 1_555 1_555
C14_7 N1_7 1_555 1_555
C16_7 C12_7 1_555 1_555
Pr5 O6_4 1_555 1_555
C6_7 C7_7 1_555 1_555
C13_7 C14_7 1_555 1_555
C14_7 C15_7 1_555 1_555
O10_3 C9_7 1_555 1_555
O11_3 C9_7 1_555 1_555
C9_7 C10_7 1_555 1_555
Pr5 O1_8 1_555 1_555
O1_8 C1_8 1_555 1_555
O2_8 Pr5 1_555 1_555
O12 C16_8 1_555 1_555
O13_4 C16_8 1_555 1_555
O7_8 Pr5 1_555 1_555
O8_8 Pr5 1_555 1_555
N1_8 C8_8 1_555 1_555
N2_8 C17_8 1_555 1_555
N3_8 C20_8 1_555 1_555
C1_8 O2_8 1_555 1_555
C2_8 C1_8 1_555 1_555
C3_8 C2_8 1_555 1_555
H1_8 C3_8 1_555 1_555
C4_8 C3_8 1_555 1_555
H2_8 C4_8 1_555 1_555
C5_8 C4_8 1_555 1_555
C6_8 C5_8 1_555 1_555
H3_8 C6_8 1_555 1_555
C7_8 C2_8 1_555 1_555
H4_8 C7_8 1_555 1_555
C8_8 C5_8 1_555 1_555
H5_8 C8_8 1_555 1_555
C11_8 H6_8 1_555 1_555
C12_8 C11_8 1_555 1_555
C13_8 C12_8 1_555 1_555
H7_8 C13_8 1_555 1_555
C14_8 N1_8 1_555 1_555
C16_8 C12_8 1_555 1_555
C17_8 O7_8 1_555 1_555
C18_8 N2_8 1_555 1_555
H9_8 C18_8 1_555 1_555
H10_8 C18_8 1_555 1_555
H11_8 C18_8 1_555 1_555
C19_8 N2_8 1_555 1_555
H12_8 C19_8 1_555 1_555
H13_8 C19_8 1_555 1_555
H14_8 C19_8 1_555 1_555
C20_8 O8_8 1_555 1_555
C21_8 N3_8 1_555 1_555
H15_4 C21_8 1_555 1_555
H16_8 C21_8 1_555 1_555
H17_8 C21_8 1_555 1_555
C22_4 N3_8 1_555 1_555
H18_4 C22_4 1_555 1_555
H19_4 C22_4 1_555 1_555
H20_4 C22_4 1_555 1_555
C6_8 C7_8 1_555 1_555
C13_8 C14_8 1_555 1_555
C14_8 C15_8 1_555 1_555
C20_8 H21_8 1_555 1_555
C17_8 H22_8 1_555 1_555
O10_4 C9_8 1_555 1_555
O11_4 C9_8 1_555 1_555
C9_8 C10_8 1_555 1_555
H18_5 C22_5 1_555 1_555
H19_5 C22_5 1_555 1_555
H20_5 C22_5 1_555 1_555
H18_6 C22_6 1_555 1_555
H19_6 C22_6 1_555 1_555
H20_6 C22_6 1_555 1_555
H18_7 C22_7 1_555 1_555
H19_7 C22_7 1_555 1_555
H20_7 C22_7 1_555 1_555
H18_8 C22_8 1_555 1_555
H19_8 C22_8 1_555 1_555
H20_8 C22_8 1_555 1_555

#END
