
###############################################################################
#
# This file contains modified crystal structure data generated from the
# MOF subset of the Cambridge Structural Database (CSD) v543 
# hosted by the Cambridge Crystallographic Data Centre (CCDC).
#
# This work is licensed under the Creative Commons
# Attribution-NonCommercial-ShareAlike 4.0 International License.
# To view a copy of this license, visit
# http://creativecommons.org/licenses/by-nc-sa/4.0/
# or send a letter to
# Creative Commons, PO Box 1866, Mountain View, CA 94042, USA.
#
# CIF created using the CSD Python API on 29 September 2022
# The structure has been converted into the P1 space group
# The structure has a 3D framework
# The original CSD entry BETFUD is in the monoclinic crystal system
# The framework has been calculated to contain at least 10.0% void space
# The void calculation uses a probe of radius 1.32A, grid spacing 0.4
# H atom positions have been added when not included in the experimental data
#
###############################################################################

data_BETFUD
_chemical_formula_moiety         '(C176 H176 Ce8 N24 O64)n'
_symmetry_cell_setting           triclinic
_symmetry_space_group_name_H-M   'P 1'
_symmetry_Int_Tables_number      1
_space_group_name_Hall           'P 1'
loop_
_symmetry_equiv_pos_site_id
_symmetry_equiv_pos_as_xyz
1 x,y,z
_cell_length_a                   29.0489(12)
_cell_length_b                   14.5685(6)
_cell_length_c                   13.5097(7)
_cell_angle_alpha                90
_cell_angle_beta                 100.119(5)
_cell_angle_gamma                90
_cell_volume                     5628.36
loop_
_atom_site_label
_atom_site_type_symbol
_atom_site_fract_x
_atom_site_fract_y
_atom_site_fract_z
Ce1 Ce 0.318677(11) 0.21403(2) 0.04279(3)
O1 O 0.38127(17) 0.3309(4) 0.0018(5)
O7 O 0.3609(3) 0.2845(5) 0.1963(6)
O8 O 0.3586(2) 0.0827(5) 0.1471(6)
N2 N 0.3826(4) 0.3840(9) 0.3285(10)
N3 N 0.3832(4) 0.0130(7) 0.3105(8)
C17 C 0.3479(5) 0.3272(11) 0.2662(10)
C18 C 0.3614(6) 0.4361(12) 0.3997(12)
H8 H 0.3305 0.4132 0.4004
H9 H 0.3597 0.4996 0.3805
H10 H 0.3800 0.4300 0.4656
C19 C 0.4285(5) 0.3974(12) 0.3023(13)
H11 H 0.4332 0.3534 0.2521
H12 H 0.4520 0.3895 0.3610
H13 H 0.4305 0.4583 0.2762
C20 C 0.3674(5) 0.0870(9) 0.2412(6)
C22 C 0.3988(6) 0.0256(13) 0.4177(9)
H18 H 0.3738 0.0515 0.4468
H19 H 0.4251 0.0664 0.4287
Ce3 Ce 0.818677(11) 0.71403(2) 0.04279(3)
O9 O 0.27290(17) 0.1734(4) 0.1744(4)
O13 O 0.26837(16) 0.3515(3) 0.0372(4)
H21 H 0.31217 0.322249 0.280069
H22 H 0.362648 0.153648 0.274493
O2 O 0.39513(18) 0.1838(4) 0.9878(6)
O3 O 0.77290(17) 0.3266(4) 0.6744(4)
O4 O 0.70252(17) 0.2605(4) 0.6345(4)
O5 O 0.79442(16) 0.5681(3) 0.9453(4)
O6 O 0.73163(16) 0.6485(3) 0.9628(4)
N1 N 0.5992(2) 0.4185(5) 0.8499(5)
C1 C 0.4060(2) 0.2669(5) 0.9808(6)
C2 C 0.4517(2) 0.2862(5) 0.9459(6)
C3 C 0.4801(3) 0.2153(6) 0.9254(9)
H1 H 0.4707 0.1549 0.9319
C4 C 0.5228(3) 0.2329(7) 0.8951(11)
H2 H 0.5418 0.1844 0.8826
C5 C 0.5367(3) 0.3214(6) 0.8836(7)
C6 C 0.5077(3) 0.3948(6) 0.9004(8)
H3 H 0.5165 0.4551 0.8908
C7 C 0.4648(3) 0.3749(6) 0.9325(7)
H4 H 0.4453 0.4228 0.9445
C8 C 0.5828(3) 0.3396(6) 0.8544(7)
C9 C 0.7305(2) 0.3183(5) 0.6834(6)
C10 C 0.7114(2) 0.3787(5) 0.7554(5)
C11 C 0.6648(2) 0.3686(5) 0.7672(5)
H5 H 0.6462 0.3235 0.7316
C12 C 0.6463(2) 0.4267(5) 0.8327(6)
C13 C 0.6737(2) 0.4975(5) 0.8837(6)
H6 H 0.6607 0.5382 0.9241
C14 C 0.7203(2) 0.5061(4) 0.8730(5)
C15 C 0.7392(2) 0.4457(5) 0.8098(5)
H7 H 0.7706 0.4505 0.8042
C16 C 0.7508(2) 0.5784(4) 0.9290(5)
H20 H 0.592(6) 0.274(3) 0.849(14)
Ce2 Ce 0.681323(11) 0.21403(2) 0.45721(3)
Ce4 Ce 0.681323(11) 0.78597(2) 0.95721(3)
Ce5 Ce 0.818677(11) 0.28597(2) 0.54279(3)
O10 O 0.29748(17) 0.2605(4) 0.8655(4)
O11 O 0.29442(16) 0.0681(3) 0.9453(4)
O12 O 0.23163(16) 0.1485(3) 0.9628(4)
O1_2 O 0.61873(17) 0.3309(4) 0.4982(5)
O2_2 O 0.60487(18) 0.1838(4) 0.5122(6)
O3_2 O 0.22710(17) 0.3266(4) 0.8256(4)
O5_2 O 0.20558(16) 0.5681(3) 0.5547(4)
O6_2 O 0.26837(16) 0.6485(3) 0.5372(4)
O7_2 O 0.6391(3) 0.2845(5) 0.3037(6)
O8_2 O 0.6414(2) 0.0827(5) 0.3529(6)
N1_2 N 0.4008(2) 0.4185(5) 0.6501(5)
N2_2 N 0.6174(4) 0.3840(9) 0.1715(10)
N3_2 N 0.6168(4) 0.0130(7) 0.1895(8)
C1_2 C 0.5940(2) 0.2669(5) 0.5192(6)
C2_2 C 0.5483(2) 0.2862(5) 0.5541(6)
C3_2 C 0.5199(3) 0.2153(6) 0.5746(9)
H1_2 H 0.5293 0.1549 0.5681
C4_2 C 0.4772(3) 0.2329(7) 0.6049(11)
H2_2 H 0.4582 0.1844 0.6174
C5_2 C 0.4633(3) 0.3214(6) 0.6164(7)
C6_2 C 0.4923(3) 0.3948(6) 0.5996(8)
H3_2 H 0.4835 0.4551 0.6092
C7_2 C 0.5352(3) 0.3749(6) 0.5675(7)
H4_2 H 0.5547 0.4228 0.5555
C8_2 C 0.4172(3) 0.3396(6) 0.6456(7)
C9_2 C 0.2695(2) 0.3183(5) 0.8166(6)
C10_2 C 0.2886(2) 0.3787(5) 0.7446(5)
C11_2 C 0.3352(2) 0.3686(5) 0.7328(5)
H5_2 H 0.3538 0.3235 0.7684
C12_2 C 0.3537(2) 0.4267(5) 0.6673(6)
C13_2 C 0.3263(2) 0.4975(5) 0.6163(6)
H6_2 H 0.3393 0.5382 0.5759
C14_2 C 0.2797(2) 0.5061(4) 0.6270(5)
C15_2 C 0.2608(2) 0.4457(5) 0.6902(5)
H7_2 H 0.2294 0.4505 0.6958
C16_2 C 0.2492(2) 0.5784(4) 0.5710(5)
C17_2 C 0.6521(5) 0.3272(11) 0.2338(10)
C18_2 C 0.6386(6) 0.4361(12) 0.1003(12)
H8_2 H 0.6695 0.4132 0.0996
H9_2 H 0.6403 0.4996 0.1195
H10_2 H 0.6200 0.4300 0.0344
C19_2 C 0.5715(5) 0.3974(12) 0.1977(13)
H11_2 H 0.5668 0.3534 0.2479
H12_2 H 0.5480 0.3895 0.1390
H13_2 H 0.5695 0.4583 0.2238
C20_2 C 0.6326(5) 0.0870(9) 0.2588(6)
C22_2 C 0.6012(6) 0.0256(13) 0.0823(9)
H18_2 H 0.6262 0.0515 0.0532
H19_2 H 0.5749 0.0664 0.0713
H20_2 H 0.408(6) 0.274(3) 0.651(14)
Ce3_2 Ce 0.181323(11) 0.71403(2) 0.45721(3)
Ce4_2 Ce 0.318677(11) 0.78597(2) 0.54279(3)
Ce5_2 Ce 0.181323(11) 0.28597(2) 0.95721(3)
O9_2 O 0.72710(17) 0.1734(4) 0.3256(4)
O11_2 O 0.70558(16) 0.0681(3) 0.5547(4)
O12_2 O 0.76837(16) 0.1485(3) 0.5372(4)
O13_2 O 0.73163(16) 0.3515(3) 0.4628(4)
H21_2 H 0.68783 0.322249 0.219931
H22_2 H 0.637352 0.153648 0.225507
H6_3 H 0.1607 0.0382 0.9241
C14_3 C 0.2203(2) 0.0061(4) 0.8730(5)
C16_3 C 0.2508(2) 0.0784(4) 0.9290(5)
O3_3 O 0.27290(17) 0.8266(4) 0.6744(4)
O4_2 O 0.20252(17) 0.7605(4) 0.6345(4)
N1_3 N 0.0992(2) 0.9185(5) 0.8499(5)
C4_3 C 0.0228(3) 0.7329(7) 0.8951(11)
H2_3 H 0.0418 0.6844 0.8826
C5_3 C 0.0367(3) 0.8214(6) 0.8836(7)
C6_3 C 0.0077(3) 0.8948(6) 0.9004(8)
H3_3 H 0.0165 0.9551 0.8908
C8_3 C 0.0828(3) 0.8396(6) 0.8544(7)
C9_3 C 0.2305(2) 0.8183(5) 0.6834(6)
C10_3 C 0.2114(2) 0.8787(5) 0.7554(5)
C11_3 C 0.1648(2) 0.8686(5) 0.7672(5)
H5_3 H 0.1462 0.8235 0.7316
C12_3 C 0.1463(2) 0.9267(5) 0.8327(6)
C13_3 C 0.1737(2) 0.9975(5) 0.8837(6)
C15_3 C 0.2392(2) 0.9457(5) 0.8098(5)
H7_3 H 0.2706 0.9505 0.8042
H20_3 H 0.092(6) 0.774(3) 0.849(14)
O1_3 O 0.88127(17) 0.8309(4) 0.0018(5)
O7_3 O 0.8609(3) 0.7845(5) 0.1963(6)
O8_3 O 0.8586(2) 0.5827(5) 0.1471(6)
N2_3 N 0.8826(4) 0.8840(9) 0.3285(10)
N3_3 N 0.8832(4) 0.5130(7) 0.3105(8)
C17_3 C 0.8479(5) 0.8272(11) 0.2662(10)
C18_3 C 0.8614(6) 0.9361(12) 0.3997(12)
H8_3 H 0.8305 0.9132 0.4004
H9_3 H 0.8597 0.9996 0.3805
H10_3 H 0.8800 0.9300 0.4656
C19_3 C 0.9285(5) 0.8974(12) 0.3023(13)
H11_3 H 0.9332 0.8534 0.2521
H12_3 H 0.9520 0.8895 0.3610
H13_3 H 0.9305 0.9583 0.2762
C20_3 C 0.8674(5) 0.5870(9) 0.2412(6)
C21 C 0.8778(7) 0.4277(10) 0.2534(13)
H14 H 0.8881 0.3772 0.2975
H15 H 0.8963 0.4303 0.2012
H16 H 0.8455 0.4193 0.2241
C22_3 C 0.8988(6) 0.5256(13) 0.4177(9)
H17 H 0.9076 0.4674 0.4485
H18_3 H 0.8738 0.5515 0.4468
H19_3 H 0.9251 0.5664 0.4287
O9_3 O 0.77290(17) 0.6734(4) 0.1744(4)
O13_3 O 0.76837(16) 0.8515(3) 0.0372(4)
H21_3 H 0.81217 0.822249 0.280069
H22_3 H 0.862648 0.653648 0.274493
O2_3 O 0.89513(18) 0.6838(4) 0.9878(6)
C1_3 C 0.9060(2) 0.7669(5) 0.9808(6)
C2_3 C 0.9517(2) 0.7862(5) 0.9459(6)
C3_3 C 0.9801(3) 0.7153(6) 0.9254(9)
H1_3 H 0.9707 0.6549 0.9319
C7_3 C 0.9648(3) 0.8749(6) 0.9325(7)
H4_3 H 0.9453 0.9228 0.9445
O10_2 O 0.79748(17) 0.7605(4) 0.8655(4)
O1_4 O 0.11873(17) 0.8309(4) 0.4982(5)
O2_4 O 0.10487(18) 0.6838(4) 0.5122(6)
O7_4 O 0.1391(3) 0.7845(5) 0.3037(6)
O8_4 O 0.1414(2) 0.5827(5) 0.3529(6)
N2_4 N 0.1174(4) 0.8840(9) 0.1715(10)
N3_4 N 0.1168(4) 0.5130(7) 0.1895(8)
C1_4 C 0.0940(2) 0.7669(5) 0.5192(6)
C2_4 C 0.0483(2) 0.7862(5) 0.5541(6)
C3_4 C 0.0199(3) 0.7153(6) 0.5746(9)
H1_4 H 0.0293 0.6549 0.5681
C7_4 C 0.0352(3) 0.8749(6) 0.5675(7)
H4_4 H 0.0547 0.9228 0.5555
C17_4 C 0.1521(5) 0.8272(11) 0.2338(10)
C18_4 C 0.1386(6) 0.9361(12) 0.1003(12)
H8_4 H 0.1695 0.9132 0.0996
H9_4 H 0.1403 0.9996 0.1195
H10_4 H 0.1200 0.9300 0.0344
C19_4 C 0.0715(5) 0.8974(12) 0.1977(13)
H11_4 H 0.0668 0.8534 0.2479
H12_4 H 0.0480 0.8895 0.1390
H13_4 H 0.0695 0.9583 0.2238
C20_4 C 0.1326(5) 0.5870(9) 0.2588(6)
C21_2 C 0.1222(7) 0.4277(10) 0.2466(13)
H14_2 H 0.1119 0.3772 0.2025
H15_2 H 0.1037 0.4303 0.2988
H16_2 H 0.1545 0.4193 0.2759
C22_4 C 0.1012(6) 0.5256(13) 0.0823(9)
H17_2 H 0.0924 0.4674 0.0515
H18_4 H 0.1262 0.5515 0.0532
H19_4 H 0.0749 0.5664 0.0713
O9_4 O 0.22710(17) 0.6734(4) 0.3256(4)
O13_4 O 0.23163(16) 0.8515(3) 0.4628(4)
H21_4 H 0.18783 0.822249 0.219931
H22_4 H 0.137352 0.653648 0.225507
H6_4 H 0.8393 0.0382 0.5759
C14_4 C 0.7797(2) 0.0061(4) 0.6270(5)
C16_4 C 0.7492(2) 0.0784(4) 0.5710(5)
O3_4 O 0.72710(17) 0.8266(4) 0.8256(4)
N1_4 N 0.9008(2) 0.9185(5) 0.6501(5)
C4_4 C 0.9772(3) 0.7329(7) 0.6049(11)
H2_4 H 0.9582 0.6844 0.6174
C5_4 C 0.9633(3) 0.8214(6) 0.6164(7)
C6_4 C 0.9923(3) 0.8948(6) 0.5996(8)
H3_4 H 0.9835 0.9551 0.6092
C8_4 C 0.9172(3) 0.8396(6) 0.6456(7)
C9_4 C 0.7695(2) 0.8183(5) 0.8166(6)
C10_4 C 0.7886(2) 0.8787(5) 0.7446(5)
C11_4 C 0.8352(2) 0.8686(5) 0.7328(5)
H5_4 H 0.8538 0.8235 0.7684
C12_4 C 0.8537(2) 0.9267(5) 0.6673(6)
C13_4 C 0.8263(2) 0.9975(5) 0.6163(6)
C15_4 C 0.7608(2) 0.9457(5) 0.6902(5)
H7_4 H 0.7294 0.9505 0.6958
H20_4 H 0.908(6) 0.774(3) 0.651(14)
O2_5 O 0.60487(18) 0.8162(4) 0.0122(6)
O4_3 O 0.29748(17) 0.7395(4) 0.3655(4)
O5_3 O 0.20558(16) 0.4319(3) 0.0547(4)
N1_5 N 0.4008(2) 0.5815(5) 0.1501(5)
C1_5 C 0.5940(2) 0.7331(5) 0.0192(6)
C2_5 C 0.5483(2) 0.7138(5) 0.0541(6)
C3_5 C 0.5199(3) 0.7847(6) 0.0746(9)
H1_5 H 0.5293 0.8451 0.0681
C4_5 C 0.4772(3) 0.7671(7) 0.1049(11)
H2_5 H 0.4582 0.8156 0.1174
C5_5 C 0.4633(3) 0.6786(6) 0.1164(7)
C6_5 C 0.4923(3) 0.6052(6) 0.0996(8)
H3_5 H 0.4835 0.5449 0.1092
C7_5 C 0.5352(3) 0.6251(6) 0.0675(7)
H4_5 H 0.5547 0.5772 0.0555
C8_5 C 0.4172(3) 0.6604(6) 0.1456(7)
C9_5 C 0.2695(2) 0.6817(5) 0.3166(6)
C10_5 C 0.2886(2) 0.6213(5) 0.2446(5)
C11_5 C 0.3352(2) 0.6314(5) 0.2328(5)
H5_5 H 0.3538 0.6765 0.2684
C12_5 C 0.3537(2) 0.5733(5) 0.1673(6)
C13_5 C 0.3263(2) 0.5025(5) 0.1163(6)
H6_5 H 0.3393 0.4618 0.0759
C14_5 C 0.2797(2) 0.4939(4) 0.1270(5)
C15_5 C 0.2608(2) 0.5543(5) 0.1902(5)
H7_5 H 0.2294 0.5495 0.1958
C16_5 C 0.2492(2) 0.4216(4) 0.0710(5)
H20_5 H 0.408(6) 0.726(3) 0.151(14)
O10_3 O 0.70252(17) 0.7395(4) 0.1345(4)
O11_3 O 0.70558(16) 0.9319(3) 0.0547(4)
O1_5 O 0.61873(17) 0.6691(4) 0.9982(5)
O7_5 O 0.6391(3) 0.7155(5) 0.8037(6)
O8_5 O 0.6414(2) 0.9173(5) 0.8529(6)
N2_5 N 0.6174(4) 0.6160(9) 0.6715(10)
N3_5 N 0.6168(4) 0.9870(7) 0.6895(8)
C17_5 C 0.6521(5) 0.6728(11) 0.7338(10)
C18_5 C 0.6386(6) 0.5639(12) 0.6003(12)
H8_5 H 0.6695 0.5868 0.5996
H9_5 H 0.6403 0.5004 0.6195
H10_5 H 0.6200 0.5700 0.5344
C19_5 C 0.5715(5) 0.6026(12) 0.6977(13)
H11_5 H 0.5668 0.6466 0.7479
H12_5 H 0.5480 0.6105 0.6390
H13_5 H 0.5695 0.5417 0.7238
C20_5 C 0.6326(5) 0.9130(9) 0.7588(6)
C22_5 C 0.6012(6) 0.9744(13) 0.5823(9)
H18_5 H 0.6262 0.9485 0.5532
H19_5 H 0.5749 0.9336 0.5713
H21_5 H 0.68783 0.677751 0.719931
H22_5 H 0.637352 0.846352 0.725507
O1_6 O 0.38127(17) 0.6691(4) 0.5018(5)
O2_6 O 0.39513(18) 0.8162(4) 0.4878(6)
O5_4 O 0.79442(16) 0.4319(3) 0.4453(4)
O7_6 O 0.3609(3) 0.7155(5) 0.6963(6)
O8_6 O 0.3586(2) 0.9173(5) 0.6471(6)
N1_6 N 0.5992(2) 0.5815(5) 0.3499(5)
N2_6 N 0.3826(4) 0.6160(9) 0.8285(10)
N3_6 N 0.3832(4) 0.9870(7) 0.8105(8)
C1_6 C 0.4060(2) 0.7331(5) 0.4808(6)
C2_6 C 0.4517(2) 0.7138(5) 0.4459(6)
C3_6 C 0.4801(3) 0.7847(6) 0.4254(9)
H1_6 H 0.4707 0.8451 0.4319
C4_6 C 0.5228(3) 0.7671(7) 0.3951(11)
H2_6 H 0.5418 0.8156 0.3826
C5_6 C 0.5367(3) 0.6786(6) 0.3836(7)
C6_6 C 0.5077(3) 0.6052(6) 0.4004(8)
H3_6 H 0.5165 0.5449 0.3908
C7_6 C 0.4648(3) 0.6251(6) 0.4325(7)
H4_6 H 0.4453 0.5772 0.4445
C8_6 C 0.5828(3) 0.6604(6) 0.3544(7)
C9_6 C 0.7305(2) 0.6817(5) 0.1834(6)
C10_6 C 0.7114(2) 0.6213(5) 0.2554(5)
C11_6 C 0.6648(2) 0.6314(5) 0.2672(5)
H5_6 H 0.6462 0.6765 0.2316
C12_6 C 0.6463(2) 0.5733(5) 0.3327(6)
C13_6 C 0.6737(2) 0.5025(5) 0.3837(6)
H6_6 H 0.6607 0.4618 0.4241
C14_6 C 0.7203(2) 0.4939(4) 0.3730(5)
C15_6 C 0.7392(2) 0.5543(5) 0.3098(5)
H7_6 H 0.7706 0.5495 0.3042
C16_6 C 0.7508(2) 0.4216(4) 0.4290(5)
C17_6 C 0.3479(5) 0.6728(11) 0.7662(10)
C18_6 C 0.3614(6) 0.5639(12) 0.8997(12)
H8_6 H 0.3305 0.5868 0.9004
H9_6 H 0.3597 0.5004 0.8805
H10_6 H 0.3800 0.5700 0.9656
C19_6 C 0.4285(5) 0.6026(12) 0.8023(13)
H11_6 H 0.4332 0.6466 0.7521
H12_6 H 0.4520 0.6105 0.8610
H13_6 H 0.4305 0.5417 0.7762
C20_6 C 0.3674(5) 0.9130(9) 0.7412(6)
C22_6 C 0.3988(6) 0.9744(13) 0.9177(9)
H18_6 H 0.3738 0.9485 0.9468
H19_6 H 0.4251 0.9336 0.9287
H20_6 H 0.592(6) 0.726(3) 0.349(14)
O11_4 O 0.29442(16) 0.9319(3) 0.4453(4)
H21_6 H 0.31217 0.677751 0.780069
H22_6 H 0.362648 0.846352 0.774493
O2_7 O 0.10487(18) 0.3162(4) 0.0122(6)
C1_7 C 0.0940(2) 0.2331(5) 0.0192(6)
C2_7 C 0.0483(2) 0.2138(5) 0.0541(6)
C3_7 C 0.0199(3) 0.2847(6) 0.0746(9)
H1_7 H 0.0293 0.3451 0.0681
C7_7 C 0.0352(3) 0.1251(6) 0.0675(7)
H4_7 H 0.0547 0.0772 0.0555
O10_4 O 0.20252(17) 0.2395(4) 0.1345(4)
O1_7 O 0.11873(17) 0.1691(4) 0.9982(5)
O7_7 O 0.1391(3) 0.2155(5) 0.8037(6)
O8_7 O 0.1414(2) 0.4173(5) 0.8529(6)
N2_7 N 0.1174(4) 0.1160(9) 0.6715(10)
N3_7 N 0.1168(4) 0.4870(7) 0.6895(8)
C17_7 C 0.1521(5) 0.1728(11) 0.7338(10)
C18_7 C 0.1386(6) 0.0639(12) 0.6003(12)
H8_7 H 0.1695 0.0868 0.5996
H9_7 H 0.1403 0.0004 0.6195
H10_7 H 0.1200 0.0700 0.5344
C19_7 C 0.0715(5) 0.1026(12) 0.6977(13)
H11_7 H 0.0668 0.1466 0.7479
H12_7 H 0.0480 0.1105 0.6390
H13_7 H 0.0695 0.0417 0.7238
C20_7 C 0.1326(5) 0.4130(9) 0.7588(6)
C21_3 C 0.1222(7) 0.5723(10) 0.7466(13)
H14_3 H 0.1119 0.6228 0.7025
H15_3 H 0.1037 0.5697 0.7988
H16_3 H 0.1545 0.5807 0.7759
C22_7 C 0.1012(6) 0.4744(13) 0.5823(9)
H17_3 H 0.0924 0.5326 0.5515
H18_7 H 0.1262 0.4485 0.5532
H19_7 H 0.0749 0.4336 0.5713
H21_7 H 0.18783 0.177751 0.719931
H22_7 H 0.137352 0.346352 0.725507
O4_4 O 0.79748(17) 0.2395(4) 0.3655(4)
N1_7 N 0.9008(2) 0.0815(5) 0.1501(5)
C4_7 C 0.9772(3) 0.2671(7) 0.1049(11)
H2_7 H 0.9582 0.3156 0.1174
C5_7 C 0.9633(3) 0.1786(6) 0.1164(7)
C6_7 C 0.9923(3) 0.1052(6) 0.0996(8)
H3_7 H 0.9835 0.0449 0.1092
C8_7 C 0.9172(3) 0.1604(6) 0.1456(7)
C9_7 C 0.7695(2) 0.1817(5) 0.3166(6)
C10_7 C 0.7886(2) 0.1213(5) 0.2446(5)
C11_7 C 0.8352(2) 0.1314(5) 0.2328(5)
H5_7 H 0.8538 0.1765 0.2684
C12_7 C 0.8537(2) 0.0733(5) 0.1673(6)
C13_7 C 0.8263(2) 0.0025(5) 0.1163(6)
C15_7 C 0.7608(2) 0.0543(5) 0.1902(5)
H7_7 H 0.7294 0.0495 0.1958
H20_7 H 0.908(6) 0.226(3) 0.151(14)
H6_7 H 0.8393 0.9618 0.0759
C14_7 C 0.7797(2) 0.9939(4) 0.1270(5)
C16_7 C 0.7492(2) 0.9216(4) 0.0710(5)
N1_8 N 0.0992(2) 0.0815(5) 0.3499(5)
C4_8 C 0.0228(3) 0.2671(7) 0.3951(11)
H2_8 H 0.0418 0.3156 0.3826
C5_8 C 0.0367(3) 0.1786(6) 0.3836(7)
C6_8 C 0.0077(3) 0.1052(6) 0.4004(8)
H3_8 H 0.0165 0.0449 0.3908
C8_8 C 0.0828(3) 0.1604(6) 0.3544(7)
C9_8 C 0.2305(2) 0.1817(5) 0.1834(6)
C10_8 C 0.2114(2) 0.1213(5) 0.2554(5)
C11_8 C 0.1648(2) 0.1314(5) 0.2672(5)
H5_8 H 0.1462 0.1765 0.2316
C12_8 C 0.1463(2) 0.0733(5) 0.3327(6)
C13_8 C 0.1737(2) 0.0025(5) 0.3837(6)
C15_8 C 0.2392(2) 0.0543(5) 0.3098(5)
H7_8 H 0.2706 0.0495 0.3042
H20_8 H 0.092(6) 0.226(3) 0.349(14)
H6_8 H 0.1607 0.9618 0.4241
C14_8 C 0.2203(2) 0.9939(4) 0.3730(5)
C16_8 C 0.2508(2) 0.9216(4) 0.4290(5)
O1_8 O 0.88127(17) 0.1691(4) 0.5018(5)
O2_8 O 0.89513(18) 0.3162(4) 0.4878(6)
O7_8 O 0.8609(3) 0.2155(5) 0.6963(6)
O8_8 O 0.8586(2) 0.4173(5) 0.6471(6)
N2_8 N 0.8826(4) 0.1160(9) 0.8285(10)
N3_8 N 0.8832(4) 0.4870(7) 0.8105(8)
C1_8 C 0.9060(2) 0.2331(5) 0.4808(6)
C2_8 C 0.9517(2) 0.2138(5) 0.4459(6)
C3_8 C 0.9801(3) 0.2847(6) 0.4254(9)
H1_8 H 0.9707 0.3451 0.4319
C7_8 C 0.9648(3) 0.1251(6) 0.4325(7)
H4_8 H 0.9453 0.0772 0.4445
C17_8 C 0.8479(5) 0.1728(11) 0.7662(10)
C18_8 C 0.8614(6) 0.0639(12) 0.8997(12)
H8_8 H 0.8305 0.0868 0.9004
H9_8 H 0.8597 0.0004 0.8805
H10_8 H 0.8800 0.0700 0.9656
C19_8 C 0.9285(5) 0.1026(12) 0.8023(13)
H11_8 H 0.9332 0.1466 0.7521
H12_8 H 0.9520 0.1105 0.8610
H13_8 H 0.9305 0.0417 0.7762
C20_8 C 0.8674(5) 0.4130(9) 0.7412(6)
C21_4 C 0.8778(7) 0.5723(10) 0.7534(13)
H14_4 H 0.8881 0.6228 0.7975
H15_4 H 0.8963 0.5697 0.7012
H16_4 H 0.8455 0.5807 0.7241
C22_8 C 0.8988(6) 0.4744(13) 0.9177(9)
H17_4 H 0.9076 0.5326 0.9485
H18_8 H 0.8738 0.4485 0.9468
H19_8 H 0.9251 0.4336 0.9287
H21_8 H 0.81217 0.177751 0.780069
H22_8 H 0.862648 0.346352 0.774493
C21_5 C 0.3778(7) 0.9277(10) 0.2534(13)
H14_5 H 0.3881 0.8772 0.2975
H15_5 H 0.3963 0.9303 0.2012
H16_5 H 0.3455 0.9193 0.2241
H17_5 H 0.4076 0.9674 0.4485
C21_6 C 0.6222(7) 0.9277(10) 0.2466(13)
H14_6 H 0.6119 0.8772 0.2025
H15_6 H 0.6037 0.9303 0.2988
H16_6 H 0.6545 0.9193 0.2759
H17_6 H 0.5924 0.9674 0.0515
C21_7 C 0.6222(7) 0.0723(10) 0.7466(13)
H14_7 H 0.6119 0.1228 0.7025
H15_7 H 0.6037 0.0697 0.7988
H16_7 H 0.6545 0.0807 0.7759
H17_7 H 0.5924 0.0326 0.5515
C21_8 C 0.3778(7) 0.0723(10) 0.7534(13)
H14_8 H 0.3881 0.1228 0.7975
H15_8 H 0.3963 0.0697 0.7012
H16_8 H 0.3455 0.0807 0.7241
H17_8 H 0.4076 0.0326 0.9485
loop_
_geom_bond_atom_site_label_1
_geom_bond_atom_site_label_2
_geom_bond_site_symmetry_1
_geom_bond_site_symmetry_2
Ce1 O1 1_555 1_555
O7 Ce1 1_555 1_555
O8 Ce1 1_555 1_555
N2 C17 1_555 1_555
N3 C20 1_555 1_555
C17 O7 1_555 1_555
C18 N2 1_555 1_555
H8 C18 1_555 1_555
H9 C18 1_555 1_555
H10 C18 1_555 1_555
C19 N2 1_555 1_555
H11 C19 1_555 1_555
H12 C19 1_555 1_555
H13 C19 1_555 1_555
C20 O8 1_555 1_555
C22 N3 1_555 1_555
H18 C22 1_555 1_555
H19 C22 1_555 1_555
O9 Ce1 1_555 1_555
O13 Ce1 1_555 1_555
C17 H21 1_555 1_555
C20 H22 1_555 1_555
O3 C9 1_555 1_555
O4 C9 1_555 1_555
O5 C16 1_555 1_555
O6 C16 1_555 1_555
N1 C8 1_555 1_555
C1 O2 1_555 1_555
C2 C1 1_555 1_555
C3 C2 1_555 1_555
H1 C3 1_555 1_555
C4 C3 1_555 1_555
H2 C4 1_555 1_555
C5 C4 1_555 1_555
C6 C5 1_555 1_555
H3 C6 1_555 1_555
C7 C2 1_555 1_555
H4 C7 1_555 1_555
C8 C5 1_555 1_555
C9 C10 1_555 1_555
C10 C11 1_555 1_555
C11 H5 1_555 1_555
C12 N1 1_555 1_555
C13 C12 1_555 1_555
H6 C13 1_555 1_555
C14 C13 1_555 1_555
C15 C10 1_555 1_555
H7 C15 1_555 1_555
C16 C14 1_555 1_555
H20 C8 1_555 1_555
Ce2 O4 1_555 1_555
Ce4 O6 1_555 1_555
Ce5 O3 1_555 1_555
C6 C7 1_555 1_555
C11 C12 1_555 1_555
C14 C15 1_555 1_555
Ce2 O1_2 1_555 1_555
O1_2 C1_2 1_555 1_555
O2_2 Ce2 1_555 1_555
O3_2 C9_2 1_555 1_555
O10 C9_2 1_555 1_555
O5_2 C16_2 1_555 1_555
O6_2 C16_2 1_555 1_555
O7_2 Ce2 1_555 1_555
O8_2 Ce2 1_555 1_555
N1_2 C8_2 1_555 1_555
N2_2 C17_2 1_555 1_555
N3_2 C20_2 1_555 1_555
C1_2 O2_2 1_555 1_555
C2_2 C1_2 1_555 1_555
C3_2 C2_2 1_555 1_555
H1_2 C3_2 1_555 1_555
C4_2 C3_2 1_555 1_555
H2_2 C4_2 1_555 1_555
C5_2 C4_2 1_555 1_555
C6_2 C5_2 1_555 1_555
H3_2 C6_2 1_555 1_555
C7_2 C2_2 1_555 1_555
H4_2 C7_2 1_555 1_555
C8_2 C5_2 1_555 1_555
C9_2 C10_2 1_555 1_555
C10_2 C11_2 1_555 1_555
C11_2 H5_2 1_555 1_555
C12_2 N1_2 1_555 1_555
C13_2 C12_2 1_555 1_555
H6_2 C13_2 1_555 1_555
C14_2 C13_2 1_555 1_555
C15_2 C10_2 1_555 1_555
H7_2 C15_2 1_555 1_555
C16_2 C14_2 1_555 1_555
C17_2 O7_2 1_555 1_555
C18_2 N2_2 1_555 1_555
H8_2 C18_2 1_555 1_555
H9_2 C18_2 1_555 1_555
H10_2 C18_2 1_555 1_555
C19_2 N2_2 1_555 1_555
H11_2 C19_2 1_555 1_555
H12_2 C19_2 1_555 1_555
H13_2 C19_2 1_555 1_555
C20_2 O8_2 1_555 1_555
C22_2 N3_2 1_555 1_555
H18_2 C22_2 1_555 1_555
H19_2 C22_2 1_555 1_555
H20_2 C8_2 1_555 1_555
Ce3_2 O5_2 1_555 1_555
Ce4_2 O6_2 1_555 1_555
Ce5_2 O3_2 1_555 1_555
O9_2 Ce2 1_555 1_555
O11_2 Ce2 1_555 1_555
O12_2 Ce2 1_555 1_555
O13_2 Ce2 1_555 1_555
O6_2 Ce3_2 1_555 1_555
C6_2 C7_2 1_555 1_555
C11_2 C12_2 1_555 1_555
C14_2 C15_2 1_555 1_555
C17_2 H21_2 1_555 1_555
C20_2 H22_2 1_555 1_555
O11 C16_3 1_555 1_555
O12 C16_3 1_555 1_555
C16_3 C14_3 1_555 1_555
Ce5_2 O12 1_555 1_555
O3_3 C9_3 1_555 1_555
O4_2 C9_3 1_555 1_555
N1_3 C8_3 1_555 1_555
H2_3 C4_3 1_555 1_555
C5_3 C4_3 1_555 1_555
C6_3 C5_3 1_555 1_555
H3_3 C6_3 1_555 1_555
C8_3 C5_3 1_555 1_555
C9_3 C10_3 1_555 1_555
C10_3 C11_3 1_555 1_555
C11_3 H5_3 1_555 1_555
C12_3 N1_3 1_555 1_555
C13_3 C12_3 1_555 1_555
C15_3 C10_3 1_555 1_555
H7_3 C15_3 1_555 1_555
H20_3 C8_3 1_555 1_555
Ce3_2 O4_2 1_555 1_555
Ce4_2 O3_3 1_555 1_555
C11_3 C12_3 1_555 1_555
Ce3 O1_3 1_555 1_555
O7_3 Ce3 1_555 1_555
O8_3 Ce3 1_555 1_555
N2_3 C17_3 1_555 1_555
N3_3 C20_3 1_555 1_555
C17_3 O7_3 1_555 1_555
C18_3 N2_3 1_555 1_555
H8_3 C18_3 1_555 1_555
H9_3 C18_3 1_555 1_555
H10_3 C18_3 1_555 1_555
C19_3 N2_3 1_555 1_555
H11_3 C19_3 1_555 1_555
H12_3 C19_3 1_555 1_555
H13_3 C19_3 1_555 1_555
C20_3 O8_3 1_555 1_555
C21 N3_3 1_555 1_555
H14 C21 1_555 1_555
H15 C21 1_555 1_555
H16 C21 1_555 1_555
C22_3 N3_3 1_555 1_555
H17 C22_3 1_555 1_555
H18_3 C22_3 1_555 1_555
H19_3 C22_3 1_555 1_555
O9_3 Ce3 1_555 1_555
O13_3 Ce3 1_555 1_555
C17_3 H21_3 1_555 1_555
C20_3 H22_3 1_555 1_555
C1_3 O2_3 1_555 1_555
C2_3 C1_3 1_555 1_555
C3_3 C2_3 1_555 1_555
H1_3 C3_3 1_555 1_555
C7_3 C2_3 1_555 1_555
H4_3 C7_3 1_555 1_555
Ce3_2 O1_4 1_555 1_555
O1_4 C1_4 1_555 1_555
O2_4 Ce3_2 1_555 1_555
O7_4 Ce3_2 1_555 1_555
O8_4 Ce3_2 1_555 1_555
N2_4 C17_4 1_555 1_555
N3_4 C20_4 1_555 1_555
C1_4 O2_4 1_555 1_555
C2_4 C1_4 1_555 1_555
C3_4 C2_4 1_555 1_555
H1_4 C3_4 1_555 1_555
C7_4 C2_4 1_555 1_555
H4_4 C7_4 1_555 1_555
C17_4 O7_4 1_555 1_555
C18_4 N2_4 1_555 1_555
H8_4 C18_4 1_555 1_555
H9_4 C18_4 1_555 1_555
H10_4 C18_4 1_555 1_555
C19_4 N2_4 1_555 1_555
H11_4 C19_4 1_555 1_555
H12_4 C19_4 1_555 1_555
H13_4 C19_4 1_555 1_555
C20_4 O8_4 1_555 1_555
C21_2 N3_4 1_555 1_555
H14_2 C21_2 1_555 1_555
H15_2 C21_2 1_555 1_555
H16_2 C21_2 1_555 1_555
C22_4 N3_4 1_555 1_555
H17_2 C22_4 1_555 1_555
H18_4 C22_4 1_555 1_555
H19_4 C22_4 1_555 1_555
O9_4 Ce3_2 1_555 1_555
O13_4 Ce3_2 1_555 1_555
C17_4 H21_4 1_555 1_555
C20_4 H22_4 1_555 1_555
O11_2 C16_4 1_555 1_555
O12_2 C16_4 1_555 1_555
C16_4 C14_4 1_555 1_555
Ce5 O12_2 1_555 1_555
O3_4 C9_4 1_555 1_555
O10_2 C9_4 1_555 1_555
N1_4 C8_4 1_555 1_555
H2_4 C4_4 1_555 1_555
C5_4 C4_4 1_555 1_555
C6_4 C5_4 1_555 1_555
H3_4 C6_4 1_555 1_555
C8_4 C5_4 1_555 1_555
C9_4 C10_4 1_555 1_555
C10_4 C11_4 1_555 1_555
C11_4 H5_4 1_555 1_555
C12_4 N1_4 1_555 1_555
C13_4 C12_4 1_555 1_555
C15_4 C10_4 1_555 1_555
H7_4 C15_4 1_555 1_555
H20_4 C8_4 1_555 1_555
Ce4 O3_4 1_555 1_555
C11_4 C12_4 1_555 1_555
O9_4 C9_5 1_555 1_555
O4_3 C9_5 1_555 1_555
O5_3 C16_5 1_555 1_555
O13 C16_5 1_555 1_555
N1_5 C8_5 1_555 1_555
C1_5 O2_5 1_555 1_555
C2_5 C1_5 1_555 1_555
C3_5 C2_5 1_555 1_555
H1_5 C3_5 1_555 1_555
C4_5 C3_5 1_555 1_555
H2_5 C4_5 1_555 1_555
C5_5 C4_5 1_555 1_555
C6_5 C5_5 1_555 1_555
H3_5 C6_5 1_555 1_555
C7_5 C2_5 1_555 1_555
H4_5 C7_5 1_555 1_555
C8_5 C5_5 1_555 1_555
C9_5 C10_5 1_555 1_555
C10_5 C11_5 1_555 1_555
C11_5 H5_5 1_555 1_555
C12_5 N1_5 1_555 1_555
C13_5 C12_5 1_555 1_555
H6_5 C13_5 1_555 1_555
C14_5 C13_5 1_555 1_555
C15_5 C10_5 1_555 1_555
H7_5 C15_5 1_555 1_555
C16_5 C14_5 1_555 1_555
H20_5 C8_5 1_555 1_555
Ce4_2 O4_3 1_555 1_555
C6_5 C7_5 1_555 1_555
C11_5 C12_5 1_555 1_555
C14_5 C15_5 1_555 1_555
Ce4 O1_5 1_555 1_555
O7_5 Ce4 1_555 1_555
O8_5 Ce4 1_555 1_555
N2_5 C17_5 1_555 1_555
N3_5 C20_5 1_555 1_555
C17_5 O7_5 1_555 1_555
C18_5 N2_5 1_555 1_555
H8_5 C18_5 1_555 1_555
H9_5 C18_5 1_555 1_555
H10_5 C18_5 1_555 1_555
C19_5 N2_5 1_555 1_555
H11_5 C19_5 1_555 1_555
H12_5 C19_5 1_555 1_555
H13_5 C19_5 1_555 1_555
C20_5 O8_5 1_555 1_555
C22_5 N3_5 1_555 1_555
H18_5 C22_5 1_555 1_555
H19_5 C22_5 1_555 1_555
C17_5 H21_5 1_555 1_555
C20_5 H22_5 1_555 1_555
Ce4_2 O1_6 1_555 1_555
O1_6 C1_6 1_555 1_555
O2_6 Ce4_2 1_555 1_555
O9_3 C9_6 1_555 1_555
O10_3 C9_6 1_555 1_555
O5_4 C16_6 1_555 1_555
O13_2 C16_6 1_555 1_555
O7_6 Ce4_2 1_555 1_555
O8_6 Ce4_2 1_555 1_555
N1_6 C8_6 1_555 1_555
N2_6 C17_6 1_555 1_555
N3_6 C20_6 1_555 1_555
C1_6 O2_6 1_555 1_555
C2_6 C1_6 1_555 1_555
C3_6 C2_6 1_555 1_555
H1_6 C3_6 1_555 1_555
C4_6 C3_6 1_555 1_555
H2_6 C4_6 1_555 1_555
C5_6 C4_6 1_555 1_555
C6_6 C5_6 1_555 1_555
H3_6 C6_6 1_555 1_555
C7_6 C2_6 1_555 1_555
H4_6 C7_6 1_555 1_555
C8_6 C5_6 1_555 1_555
C9_6 C10_6 1_555 1_555
C10_6 C11_6 1_555 1_555
C11_6 H5_6 1_555 1_555
C12_6 N1_6 1_555 1_555
C13_6 C12_6 1_555 1_555
H6_6 C13_6 1_555 1_555
C14_6 C13_6 1_555 1_555
C15_6 C10_6 1_555 1_555
H7_6 C15_6 1_555 1_555
C16_6 C14_6 1_555 1_555
C17_6 O7_6 1_555 1_555
C18_6 N2_6 1_555 1_555
H8_6 C18_6 1_555 1_555
H9_6 C18_6 1_555 1_555
H10_6 C18_6 1_555 1_555
C19_6 N2_6 1_555 1_555
H11_6 C19_6 1_555 1_555
H12_6 C19_6 1_555 1_555
H13_6 C19_6 1_555 1_555
C20_6 O8_6 1_555 1_555
C22_6 N3_6 1_555 1_555
H18_6 C22_6 1_555 1_555
H19_6 C22_6 1_555 1_555
H20_6 C8_6 1_555 1_555
Ce5 O5_4 1_555 1_555
O11_4 Ce4_2 1_555 1_555
O13_4 Ce4_2 1_555 1_555
O13_2 Ce5 1_555 1_555
C6_6 C7_6 1_555 1_555
C11_6 C12_6 1_555 1_555
C14_6 C15_6 1_555 1_555
C17_6 H21_6 1_555 1_555
C20_6 H22_6 1_555 1_555
C1_7 O2_7 1_555 1_555
C2_7 C1_7 1_555 1_555
C3_7 C2_7 1_555 1_555
H1_7 C3_7 1_555 1_555
C7_7 C2_7 1_555 1_555
H4_7 C7_7 1_555 1_555
Ce5_2 O1_7 1_555 1_555
O7_7 Ce5_2 1_555 1_555
O8_7 Ce5_2 1_555 1_555
N2_7 C17_7 1_555 1_555
N3_7 C20_7 1_555 1_555
C17_7 O7_7 1_555 1_555
C18_7 N2_7 1_555 1_555
H8_7 C18_7 1_555 1_555
H9_7 C18_7 1_555 1_555
H10_7 C18_7 1_555 1_555
C19_7 N2_7 1_555 1_555
H11_7 C19_7 1_555 1_555
H12_7 C19_7 1_555 1_555
H13_7 C19_7 1_555 1_555
C20_7 O8_7 1_555 1_555
C21_3 N3_7 1_555 1_555
H14_3 C21_3 1_555 1_555
H15_3 C21_3 1_555 1_555
H16_3 C21_3 1_555 1_555
C22_7 N3_7 1_555 1_555
H17_3 C22_7 1_555 1_555
H18_7 C22_7 1_555 1_555
H19_7 C22_7 1_555 1_555
C17_7 H21_7 1_555 1_555
C20_7 H22_7 1_555 1_555
O9_2 C9_7 1_555 1_555
O4_4 C9_7 1_555 1_555
N1_7 C8_7 1_555 1_555
H2_7 C4_7 1_555 1_555
C5_7 C4_7 1_555 1_555
C6_7 C5_7 1_555 1_555
H3_7 C6_7 1_555 1_555
C8_7 C5_7 1_555 1_555
C9_7 C10_7 1_555 1_555
C10_7 C11_7 1_555 1_555
C11_7 H5_7 1_555 1_555
C12_7 N1_7 1_555 1_555
C13_7 C12_7 1_555 1_555
C15_7 C10_7 1_555 1_555
H7_7 C15_7 1_555 1_555
H20_7 C8_7 1_555 1_555
Ce5 O4_4 1_555 1_555
C11_7 C12_7 1_555 1_555
O11_3 C16_7 1_555 1_555
O13_3 C16_7 1_555 1_555
C16_7 C14_7 1_555 1_555
O9 C9_8 1_555 1_555
O10_4 C9_8 1_555 1_555
N1_8 C8_8 1_555 1_555
H2_8 C4_8 1_555 1_555
C5_8 C4_8 1_555 1_555
C6_8 C5_8 1_555 1_555
H3_8 C6_8 1_555 1_555
C8_8 C5_8 1_555 1_555
C9_8 C10_8 1_555 1_555
C10_8 C11_8 1_555 1_555
C11_8 H5_8 1_555 1_555
C12_8 N1_8 1_555 1_555
C13_8 C12_8 1_555 1_555
C15_8 C10_8 1_555 1_555
H7_8 C15_8 1_555 1_555
H20_8 C8_8 1_555 1_555
C11_8 C12_8 1_555 1_555
O11_4 C16_8 1_555 1_555
O13_4 C16_8 1_555 1_555
C16_8 C14_8 1_555 1_555
Ce5 O1_8 1_555 1_555
O1_8 C1_8 1_555 1_555
O2_8 Ce5 1_555 1_555
O7_8 Ce5 1_555 1_555
O8_8 Ce5 1_555 1_555
N2_8 C17_8 1_555 1_555
N3_8 C20_8 1_555 1_555
C1_8 O2_8 1_555 1_555
C2_8 C1_8 1_555 1_555
C3_8 C2_8 1_555 1_555
H1_8 C3_8 1_555 1_555
C7_8 C2_8 1_555 1_555
H4_8 C7_8 1_555 1_555
C17_8 O7_8 1_555 1_555
C18_8 N2_8 1_555 1_555
H8_8 C18_8 1_555 1_555
H9_8 C18_8 1_555 1_555
H10_8 C18_8 1_555 1_555
C19_8 N2_8 1_555 1_555
H11_8 C19_8 1_555 1_555
H12_8 C19_8 1_555 1_555
H13_8 C19_8 1_555 1_555
C20_8 O8_8 1_555 1_555
C21_4 N3_8 1_555 1_555
H14_4 C21_4 1_555 1_555
H15_4 C21_4 1_555 1_555
H16_4 C21_4 1_555 1_555
C22_8 N3_8 1_555 1_555
H17_4 C22_8 1_555 1_555
H18_8 C22_8 1_555 1_555
H19_8 C22_8 1_555 1_555
C17_8 H21_8 1_555 1_555
C20_8 H22_8 1_555 1_555
H14_5 C21_5 1_555 1_555
H15_5 C21_5 1_555 1_555
H16_5 C21_5 1_555 1_555
H14_6 C21_6 1_555 1_555
H15_6 C21_6 1_555 1_555
H16_6 C21_6 1_555 1_555
H14_7 C21_7 1_555 1_555
H15_7 C21_7 1_555 1_555
H16_7 C21_7 1_555 1_555
H14_8 C21_8 1_555 1_555
H15_8 C21_8 1_555 1_555
H16_8 C21_8 1_555 1_555

#END
