
###############################################################################
#
# This file contains modified crystal structure data generated from the
# MOF subset of the Cambridge Structural Database (CSD) v543 
# hosted by the Cambridge Crystallographic Data Centre (CCDC).
#
# This work is licensed under the Creative Commons
# Attribution-NonCommercial-ShareAlike 4.0 International License.
# To view a copy of this license, visit
# http://creativecommons.org/licenses/by-nc-sa/4.0/
# or send a letter to
# Creative Commons, PO Box 1866, Mountain View, CA 94042, USA.
#
# CIF created using the CSD Python API on 29 September 2022
# The structure has been converted into the P1 space group
# The structure has a 3D framework
# The original CSD entry BETGAK is in the monoclinic crystal system
# The framework has been calculated to contain at least 10.0% void space
# The void calculation uses a probe of radius 1.32A, grid spacing 0.4
# H atom positions have been added when not included in the experimental data
#
###############################################################################

data_BETGAK
_chemical_formula_moiety         '(C176 H176 La8 N24 O64)n'
_symmetry_cell_setting           triclinic
_symmetry_space_group_name_H-M   'P 1'
_symmetry_Int_Tables_number      1
_space_group_name_Hall           'P 1'
loop_
_symmetry_equiv_pos_site_id
_symmetry_equiv_pos_as_xyz
1 x,y,z
_cell_length_a                   29.0739(10)
_cell_length_b                   14.5356(5)
_cell_length_c                   13.5095(5)
_cell_angle_alpha                90
_cell_angle_beta                 100.097(5)
_cell_angle_gamma                90
_cell_volume                     5620.78
loop_
_atom_site_label
_atom_site_type_symbol
_atom_site_fract_x
_atom_site_fract_y
_atom_site_fract_z
La1 La 0.319192(9) 0.214354(19) 0.54329(2)
O1 O 0.39617(14) 0.1834(3) 0.4880(4)
O2 O 0.38215(14) 0.3310(3) 0.5015(4)
O3 O 0.79421(12) 0.5667(3) 0.4462(3)
O4 O 0.73180(12) 0.6481(2) 0.4627(3)
O5 O 0.70290(13) 0.2601(3) 0.1348(3)
O6 O 0.77278(13) 0.3256(4) 0.1768(3)
O7 O 0.35934(19) 0.0832(4) 0.6480(5)
O8 O 0.3615(2) 0.2858(4) 0.7000(5)
N1 N 0.59992(15) 0.4182(4) 0.3513(4)
N2 N 0.3841(3) 0.0153(7) 0.8106(7)
N3 N 0.3826(4) 0.3863(8) 0.8285(8)
C1 C 0.40701(19) 0.2668(4) 0.4806(5)
C2 C 0.4521(2) 0.2865(4) 0.4447(5)
C3 C 0.4813(3) 0.2149(5) 0.4260(8)
H1 H 0.4729 0.1543 0.4359
C4 C 0.5226(3) 0.2336(5) 0.3928(8)
H2 H 0.5414 0.1854 0.3784
C5 C 0.5361(2) 0.3231(5) 0.3809(5)
C6 C 0.5083(2) 0.3944(5) 0.4009(6)
H3 H 0.5174 0.4549 0.3935
C7 C 0.4661(2) 0.3754(5) 0.4325(6)
H4 H 0.4471 0.4237 0.4456
C8 C 0.5830(2) 0.3393(5) 0.3562(6)
H5 H 0.605(3) 0.290(5) 0.351(8)
C9 C 0.75119(17) 0.5769(3) 0.4306(4)
C10 C 0.72054(17) 0.5048(4) 0.3736(4)
C11 C 0.67373(17) 0.4971(4) 0.3832(5)
H6 H 0.6606 0.5389 0.4223
C12 C 0.64661(18) 0.4257(4) 0.3330(4)
C13 C 0.66476(17) 0.3690(4) 0.2676(4)
H7 H 0.6459 0.3247 0.2311
C14 C 0.71171(17) 0.3781(4) 0.2559(4)
C15 C 0.73962(17) 0.4453(4) 0.3111(4)
H8 H 0.7710 0.4502 0.3060
C16 C 0.73056(19) 0.3167(4) 0.1843(4)
C17 C 0.3687(4) 0.0890(9) 0.7503(9)
C19 C 0.3977(5) 0.0270(10) 0.9191(9)
H13 H 0.3716 0.0497 0.9465
H14 H 0.4231 0.0701 0.9328
C20 C 0.3498(5) 0.3246(11) 0.7601(11)
C21 C 0.3665(5) 0.4354(10) 0.9006(11)
H15 H 0.3911 0.4731 0.9358
H16 H 0.3558 0.3940 0.9471
H17 H 0.3410 0.4738 0.8700
C22 C 0.4287(5) 0.3986(10) 0.8009(11)
H18 H 0.4322 0.3566 0.7479
H19 H 0.4525 0.3867 0.8583
H20 H 0.4317 0.4606 0.7783
La3 La 0.819192(9) 0.714354(19) 0.54329(2)
La4 La 0.680808(9) 0.785646(19) 0.45671(2)
La5 La 0.819192(9) 0.285646(19) 0.04329(2)
O9 O 0.29421(12) 0.0667(3) 0.4462(3)
O10 O 0.23180(12) 0.1481(2) 0.4627(3)
O11 O 0.26820(12) 0.3519(2) 0.5373(3)
O12 O 0.29710(13) 0.2601(3) 0.3652(3)
O13 O 0.27278(13) 0.1744(4) 0.6768(3)
H21 H 0.313654 0.31851 0.770743
H22 H 0.363756 0.154771 0.785587
La2 La 0.680808(9) 0.214354(19) 0.95671(2)
O1_2 O 0.60383(14) 0.1834(3) 0.0120(4)
O3_2 O 0.20579(12) 0.5667(3) 0.0538(3)
O4_2 O 0.26820(12) 0.6481(2) 0.0373(3)
O6_2 O 0.22722(13) 0.3256(4) 0.3232(3)
N1_2 N 0.40008(15) 0.4182(4) 0.1487(4)
C1_2 C 0.59299(19) 0.2668(4) 0.0194(5)
C2_2 C 0.5479(2) 0.2865(4) 0.0553(5)
C3_2 C 0.5187(3) 0.2149(5) 0.0740(8)
H1_2 H 0.5271 0.1543 0.0641
C4_2 C 0.4774(3) 0.2336(5) 0.1072(8)
H2_2 H 0.4586 0.1854 0.1216
C5_2 C 0.4639(2) 0.3231(5) 0.1191(5)
C6_2 C 0.4917(2) 0.3944(5) 0.0991(6)
H3_2 H 0.4826 0.4549 0.1065
C7_2 C 0.5339(2) 0.3754(5) 0.0675(6)
H4_2 H 0.5529 0.4237 0.0544
C8_2 C 0.4170(2) 0.3393(5) 0.1438(6)
H5_2 H 0.395(3) 0.290(5) 0.149(8)
C9_2 C 0.24881(17) 0.5769(3) 0.0694(4)
C10_2 C 0.27946(17) 0.5048(4) 0.1264(4)
C11_2 C 0.32627(17) 0.4971(4) 0.1168(5)
H6_2 H 0.3394 0.5389 0.0777
C12_2 C 0.35339(18) 0.4257(4) 0.1670(4)
C13_2 C 0.33524(17) 0.3690(4) 0.2324(4)
H7_2 H 0.3541 0.3247 0.2689
C14_2 C 0.28829(17) 0.3781(4) 0.2441(4)
C15_2 C 0.26038(17) 0.4453(4) 0.1889(4)
H8_2 H 0.2290 0.4502 0.1940
C16_2 C 0.26944(19) 0.3167(4) 0.3157(4)
La4_2 La 0.319192(9) 0.785646(19) 0.04329(2)
La5_2 La 0.180808(9) 0.285646(19) 0.45671(2)
O9_2 O 0.70579(12) 0.0667(3) 0.0538(3)
O10_2 O 0.76820(12) 0.1481(2) 0.0373(3)
O2_2 O 0.61785(14) 0.3310(3) 0.9985(4)
O7_2 O 0.64066(19) 0.0832(4) 0.8520(5)
O8_2 O 0.6385(2) 0.2858(4) 0.8000(5)
N2_2 N 0.6159(3) 0.0153(7) 0.6894(7)
N3_2 N 0.6174(4) 0.3863(8) 0.6715(8)
C17_2 C 0.6313(4) 0.0890(9) 0.7497(9)
C19_2 C 0.6023(5) 0.0270(10) 0.5809(9)
H13_2 H 0.6284 0.0497 0.5535
H14_2 H 0.5769 0.0701 0.5672
C20_2 C 0.6502(5) 0.3246(11) 0.7399(11)
C21_2 C 0.6335(5) 0.4354(10) 0.5994(11)
H15_2 H 0.6089 0.4731 0.5642
H16_2 H 0.6442 0.3940 0.5529
H17_2 H 0.6590 0.4738 0.6300
C22_2 C 0.5713(5) 0.3986(10) 0.6991(11)
H18_2 H 0.5678 0.3566 0.7521
H19_2 H 0.5475 0.3867 0.6417
H20_2 H 0.5683 0.4606 0.7217
La3_2 La 0.180808(9) 0.714354(19) 0.95671(2)
O11_2 O 0.73180(12) 0.3519(2) 0.9627(3)
O13_2 O 0.72722(13) 0.1744(4) 0.8232(3)
H21_2 H 0.686346 0.31851 0.729257
H22_2 H 0.636244 0.154771 0.714413
C9_3 C 0.25119(17) 0.0769(3) 0.4306(4)
C10_3 C 0.22054(17) 0.0048(4) 0.3736(4)
H6_3 H 0.1606 0.0389 0.4223
O5_2 O 0.20290(13) 0.7601(3) 0.1348(3)
O6_3 O 0.27278(13) 0.8256(4) 0.1768(3)
N1_3 N 0.09992(15) 0.9182(4) 0.3513(4)
C4_3 C 0.0226(3) 0.7336(5) 0.3928(8)
H2_3 H 0.0414 0.6854 0.3784
C5_3 C 0.0361(2) 0.8231(5) 0.3809(5)
C6_3 C 0.0083(2) 0.8944(5) 0.4009(6)
H3_3 H 0.0174 0.9549 0.3935
C8_3 C 0.0830(2) 0.8393(5) 0.3562(6)
H5_3 H 0.105(3) 0.790(5) 0.351(8)
C11_3 C 0.17373(17) 0.9971(4) 0.3832(5)
C12_3 C 0.14661(18) 0.9257(4) 0.3330(4)
C13_3 C 0.16476(17) 0.8690(4) 0.2676(4)
H7_3 H 0.1459 0.8247 0.2311
C14_3 C 0.21171(17) 0.8781(4) 0.2559(4)
C15_3 C 0.23962(17) 0.9453(4) 0.3111(4)
H8_3 H 0.2710 0.9502 0.3060
C16_3 C 0.23056(19) 0.8167(4) 0.1843(4)
O1_3 O 0.89617(14) 0.6834(3) 0.4880(4)
O2_3 O 0.88215(14) 0.8310(3) 0.5015(4)
O7_3 O 0.85934(19) 0.5832(4) 0.6480(5)
O8_3 O 0.8615(2) 0.7858(4) 0.7000(5)
N2_3 N 0.8841(3) 0.5153(7) 0.8106(7)
N3_3 N 0.8826(4) 0.8863(8) 0.8285(8)
C1_3 C 0.90701(19) 0.7668(4) 0.4806(5)
C2_3 C 0.9521(2) 0.7865(4) 0.4447(5)
C3_3 C 0.9813(3) 0.7149(5) 0.4260(8)
H1_3 H 0.9729 0.6543 0.4359
C7_3 C 0.9661(2) 0.8754(5) 0.4325(6)
H4_3 H 0.9471 0.9237 0.4456
C17_3 C 0.8687(4) 0.5890(9) 0.7503(9)
C18 C 0.8767(6) 0.4237(10) 0.7537(13)
H9 H 0.8878 0.3741 0.7985
H10 H 0.8936 0.4243 0.6987
H11 H 0.8440 0.4153 0.7282
C19_3 C 0.8977(5) 0.5270(10) 0.9191(9)
H12 H 0.9075 0.4688 0.9494
H13_3 H 0.8716 0.5497 0.9465
H14_3 H 0.9231 0.5701 0.9328
C20_3 C 0.8498(5) 0.8246(11) 0.7601(11)
C21_3 C 0.8665(5) 0.9354(10) 0.9006(11)
H15_3 H 0.8911 0.9731 0.9358
H16_3 H 0.8558 0.8940 0.9471
H17_3 H 0.8410 0.9738 0.8700
C22_3 C 0.9287(5) 0.8986(10) 0.8009(11)
H18_3 H 0.9322 0.8566 0.7479
H19_3 H 0.9525 0.8867 0.8583
H20_3 H 0.9317 0.9606 0.7783
O11_3 O 0.76820(12) 0.8519(2) 0.5373(3)
O12_2 O 0.79710(13) 0.7601(3) 0.3652(3)
O13_3 O 0.77278(13) 0.6744(4) 0.6768(3)
H21_3 H 0.813654 0.81851 0.770743
H22_3 H 0.863756 0.654771 0.785587
O1_4 O 0.10383(14) 0.6834(3) 0.0120(4)
C1_4 C 0.09299(19) 0.7668(4) 0.0194(5)
C2_4 C 0.0479(2) 0.7865(4) 0.0553(5)
C3_4 C 0.0187(3) 0.7149(5) 0.0740(8)
H1_4 H 0.0271 0.6543 0.0641
C7_4 C 0.0339(2) 0.8754(5) 0.0675(6)
H4_4 H 0.0529 0.9237 0.0544
O2_4 O 0.11785(14) 0.8310(3) 0.9985(4)
O7_4 O 0.14066(19) 0.5832(4) 0.8520(5)
O8_4 O 0.1385(2) 0.7858(4) 0.8000(5)
N2_4 N 0.1159(3) 0.5153(7) 0.6894(7)
N3_4 N 0.1174(4) 0.8863(8) 0.6715(8)
C17_4 C 0.1313(4) 0.5890(9) 0.7497(9)
C18_2 C 0.1233(6) 0.4237(10) 0.7463(13)
H9_2 H 0.1122 0.3741 0.7015
H10_2 H 0.1064 0.4243 0.8013
H11_2 H 0.1560 0.4153 0.7718
C19_4 C 0.1023(5) 0.5270(10) 0.5809(9)
H12_2 H 0.0925 0.4688 0.5506
H13_4 H 0.1284 0.5497 0.5535
H14_4 H 0.0769 0.5701 0.5672
C20_4 C 0.1502(5) 0.8246(11) 0.7399(11)
C21_4 C 0.1335(5) 0.9354(10) 0.5994(11)
H15_4 H 0.1089 0.9731 0.5642
H16_4 H 0.1442 0.8940 0.5529
H17_4 H 0.1590 0.9738 0.6300
C22_4 C 0.0713(5) 0.8986(10) 0.6991(11)
H18_4 H 0.0678 0.8566 0.7521
H19_4 H 0.0475 0.8867 0.6417
H20_4 H 0.0683 0.9606 0.7217
O11_4 O 0.23180(12) 0.8519(2) 0.9627(3)
O13_4 O 0.22722(13) 0.6744(4) 0.8232(3)
H21_4 H 0.186346 0.81851 0.729257
H22_4 H 0.136244 0.654771 0.714413
C9_4 C 0.74881(17) 0.0769(3) 0.0694(4)
C10_4 C 0.77946(17) 0.0048(4) 0.1264(4)
H6_4 H 0.8394 0.0389 0.0777
O6_4 O 0.72722(13) 0.8256(4) 0.3232(3)
N1_4 N 0.90008(15) 0.9182(4) 0.1487(4)
C4_4 C 0.9774(3) 0.7336(5) 0.1072(8)
H2_4 H 0.9586 0.6854 0.1216
C5_4 C 0.9639(2) 0.8231(5) 0.1191(5)
C6_4 C 0.9917(2) 0.8944(5) 0.0991(6)
H3_4 H 0.9826 0.9549 0.1065
C8_4 C 0.9170(2) 0.8393(5) 0.1438(6)
H5_4 H 0.895(3) 0.790(5) 0.149(8)
C11_4 C 0.82627(17) 0.9971(4) 0.1168(5)
C12_4 C 0.85339(18) 0.9257(4) 0.1670(4)
C13_4 C 0.83524(17) 0.8690(4) 0.2324(4)
H7_4 H 0.8541 0.8247 0.2689
C14_4 C 0.78829(17) 0.8781(4) 0.2441(4)
C15_4 C 0.76038(17) 0.9453(4) 0.1889(4)
H8_4 H 0.7290 0.9502 0.1940
C16_4 C 0.76944(19) 0.8167(4) 0.3157(4)
O1_5 O 0.60383(14) 0.8166(3) 0.5120(4)
O2_5 O 0.61785(14) 0.6690(3) 0.4985(4)
O3_3 O 0.20579(12) 0.4333(3) 0.5538(3)
O5_3 O 0.29710(13) 0.7399(3) 0.8652(3)
O7_5 O 0.64066(19) 0.9168(4) 0.3520(5)
O8_5 O 0.6385(2) 0.7142(4) 0.3000(5)
N1_5 N 0.40008(15) 0.5818(4) 0.6487(4)
N2_5 N 0.6159(3) 0.9847(7) 0.1894(7)
N3_5 N 0.6174(4) 0.6137(8) 0.1715(8)
C1_5 C 0.59299(19) 0.7332(4) 0.5194(5)
C2_5 C 0.5479(2) 0.7135(4) 0.5553(5)
C3_5 C 0.5187(3) 0.7851(5) 0.5740(8)
H1_5 H 0.5271 0.8457 0.5641
C4_5 C 0.4774(3) 0.7664(5) 0.6072(8)
H2_5 H 0.4586 0.8146 0.6216
C5_5 C 0.4639(2) 0.6769(5) 0.6191(5)
C6_5 C 0.4917(2) 0.6056(5) 0.5991(6)
H3_5 H 0.4826 0.5451 0.6065
C7_5 C 0.5339(2) 0.6246(5) 0.5675(6)
H4_5 H 0.5529 0.5763 0.5544
C8_5 C 0.4170(2) 0.6607(5) 0.6438(6)
H5_5 H 0.395(3) 0.710(5) 0.649(8)
C9_5 C 0.24881(17) 0.4231(3) 0.5694(4)
C10_5 C 0.27946(17) 0.4952(4) 0.6264(4)
C11_5 C 0.32627(17) 0.5029(4) 0.6168(5)
H6_5 H 0.3394 0.4611 0.5777
C12_5 C 0.35339(18) 0.5743(4) 0.6670(4)
C13_5 C 0.33524(17) 0.6310(4) 0.7324(4)
H7_5 H 0.3541 0.6753 0.7689
C14_5 C 0.28829(17) 0.6219(4) 0.7441(4)
C15_5 C 0.26038(17) 0.5547(4) 0.6889(4)
H8_5 H 0.2290 0.5498 0.6940
C16_5 C 0.26944(19) 0.6833(4) 0.8157(4)
C17_5 C 0.6313(4) 0.9110(9) 0.2497(9)
C19_5 C 0.6023(5) 0.9730(10) 0.0809(9)
H13_5 H 0.6284 0.9503 0.0535
H14_5 H 0.5769 0.9299 0.0672
C20_5 C 0.6502(5) 0.6754(11) 0.2399(11)
C21_5 C 0.6335(5) 0.5646(10) 0.0994(11)
H15_5 H 0.6089 0.5269 0.0642
H16_5 H 0.6442 0.6060 0.0529
H17_5 H 0.6590 0.5262 0.1300
C22_5 C 0.5713(5) 0.6014(10) 0.1991(11)
H18_5 H 0.5678 0.6434 0.2521
H19_5 H 0.5475 0.6133 0.1417
H20_5 H 0.5683 0.5394 0.2217
O9_3 O 0.70579(12) 0.9333(3) 0.5538(3)
O12_3 O 0.70290(13) 0.7399(3) 0.6348(3)
H21_5 H 0.686346 0.68149 0.229257
H22_5 H 0.636244 0.845229 0.214413
O2_6 O 0.38215(14) 0.6690(3) 0.0015(4)
O7_6 O 0.35934(19) 0.9168(4) 0.1480(5)
O8_6 O 0.3615(2) 0.7142(4) 0.2000(5)
N2_6 N 0.3841(3) 0.9847(7) 0.3106(7)
N3_6 N 0.3826(4) 0.6137(8) 0.3285(8)
C17_6 C 0.3687(4) 0.9110(9) 0.2503(9)
C19_6 C 0.3977(5) 0.9730(10) 0.4191(9)
H13_6 H 0.3716 0.9503 0.4465
H14_6 H 0.4231 0.9299 0.4328
C20_6 C 0.3498(5) 0.6754(11) 0.2601(11)
C21_6 C 0.3665(5) 0.5646(10) 0.4006(11)
H15_6 H 0.3911 0.5269 0.4358
H16_6 H 0.3558 0.6060 0.4471
H17_6 H 0.3410 0.5262 0.3700
C22_6 C 0.4287(5) 0.6014(10) 0.3009(11)
H18_6 H 0.4322 0.6434 0.2479
H19_6 H 0.4525 0.6133 0.3583
H20_6 H 0.4317 0.5394 0.2783
H21_6 H 0.313654 0.68149 0.270743
H22_6 H 0.363756 0.845229 0.285587
O1_6 O 0.39617(14) 0.8166(3) 0.9880(4)
O3_4 O 0.79421(12) 0.4333(3) 0.9462(3)
N1_6 N 0.59992(15) 0.5818(4) 0.8513(4)
C1_6 C 0.40701(19) 0.7332(4) 0.9806(5)
C2_6 C 0.4521(2) 0.7135(4) 0.9447(5)
C3_6 C 0.4813(3) 0.7851(5) 0.9260(8)
H1_6 H 0.4729 0.8457 0.9359
C4_6 C 0.5226(3) 0.7664(5) 0.8928(8)
H2_6 H 0.5414 0.8146 0.8784
C5_6 C 0.5361(2) 0.6769(5) 0.8809(5)
C6_6 C 0.5083(2) 0.6056(5) 0.9009(6)
H3_6 H 0.5174 0.5451 0.8935
C7_6 C 0.4661(2) 0.6246(5) 0.9325(6)
H4_6 H 0.4471 0.5763 0.9456
C8_6 C 0.5830(2) 0.6607(5) 0.8562(6)
H5_6 H 0.605(3) 0.710(5) 0.851(8)
C9_6 C 0.75119(17) 0.4231(3) 0.9306(4)
C10_6 C 0.72054(17) 0.4952(4) 0.8736(4)
C11_6 C 0.67373(17) 0.5029(4) 0.8832(5)
H6_6 H 0.6606 0.4611 0.9223
C12_6 C 0.64661(18) 0.5743(4) 0.8330(4)
C13_6 C 0.66476(17) 0.6310(4) 0.7676(4)
H7_6 H 0.6459 0.6753 0.7311
C14_6 C 0.71171(17) 0.6219(4) 0.7559(4)
C15_6 C 0.73962(17) 0.5547(4) 0.8111(4)
H8_6 H 0.7710 0.5498 0.8060
C16_6 C 0.73056(19) 0.6833(4) 0.6843(4)
O9_4 O 0.29421(12) 0.9333(3) 0.9462(3)
O1_7 O 0.10383(14) 0.3166(3) 0.5120(4)
O2_7 O 0.11785(14) 0.1690(3) 0.4985(4)
O7_7 O 0.14066(19) 0.4168(4) 0.3520(5)
O8_7 O 0.1385(2) 0.2142(4) 0.3000(5)
N2_7 N 0.1159(3) 0.4847(7) 0.1894(7)
N3_7 N 0.1174(4) 0.1137(8) 0.1715(8)
C1_7 C 0.09299(19) 0.2332(4) 0.5194(5)
C2_7 C 0.0479(2) 0.2135(4) 0.5553(5)
C3_7 C 0.0187(3) 0.2851(5) 0.5740(8)
H1_7 H 0.0271 0.3457 0.5641
C7_7 C 0.0339(2) 0.1246(5) 0.5675(6)
H4_7 H 0.0529 0.0763 0.5544
C17_7 C 0.1313(4) 0.4110(9) 0.2497(9)
C18_3 C 0.1233(6) 0.5763(10) 0.2463(13)
H9_3 H 0.1122 0.6259 0.2015
H10_3 H 0.1064 0.5757 0.3013
H11_3 H 0.1560 0.5847 0.2718
C19_7 C 0.1023(5) 0.4730(10) 0.0809(9)
H12_3 H 0.0925 0.5312 0.0506
H13_7 H 0.1284 0.4503 0.0535
H14_7 H 0.0769 0.4299 0.0672
C20_7 C 0.1502(5) 0.1754(11) 0.2399(11)
C21_7 C 0.1335(5) 0.0646(10) 0.0994(11)
H15_7 H 0.1089 0.0269 0.0642
H16_7 H 0.1442 0.1060 0.0529
H17_7 H 0.1590 0.0262 0.1300
C22_7 C 0.0713(5) 0.1014(10) 0.1991(11)
H18_7 H 0.0678 0.1434 0.2521
H19_7 H 0.0475 0.1133 0.1417
H20_7 H 0.0683 0.0394 0.2217
O12_4 O 0.20290(13) 0.2399(3) 0.6348(3)
H21_7 H 0.186346 0.18149 0.229257
H22_7 H 0.136244 0.345229 0.214413
O5_4 O 0.79710(13) 0.2399(3) 0.8652(3)
N1_7 N 0.90008(15) 0.0818(4) 0.6487(4)
C4_7 C 0.9774(3) 0.2664(5) 0.6072(8)
H2_7 H 0.9586 0.3146 0.6216
C5_7 C 0.9639(2) 0.1769(5) 0.6191(5)
C6_7 C 0.9917(2) 0.1056(5) 0.5991(6)
H3_7 H 0.9826 0.0451 0.6065
C8_7 C 0.9170(2) 0.1607(5) 0.6438(6)
H5_7 H 0.895(3) 0.210(5) 0.649(8)
C11_7 C 0.82627(17) 0.0029(4) 0.6168(5)
C12_7 C 0.85339(18) 0.0743(4) 0.6670(4)
C13_7 C 0.83524(17) 0.1310(4) 0.7324(4)
H7_7 H 0.8541 0.1753 0.7689
C14_7 C 0.78829(17) 0.1219(4) 0.7441(4)
C15_7 C 0.76038(17) 0.0547(4) 0.6889(4)
H8_7 H 0.7290 0.0498 0.6940
C16_7 C 0.76944(19) 0.1833(4) 0.8157(4)
C9_7 C 0.74881(17) 0.9231(3) 0.5694(4)
C10_7 C 0.77946(17) 0.9952(4) 0.6264(4)
H6_7 H 0.8394 0.9611 0.5777
N1_8 N 0.09992(15) 0.0818(4) 0.8513(4)
C4_8 C 0.0226(3) 0.2664(5) 0.8928(8)
H2_8 H 0.0414 0.3146 0.8784
C5_8 C 0.0361(2) 0.1769(5) 0.8809(5)
C6_8 C 0.0083(2) 0.1056(5) 0.9009(6)
H3_8 H 0.0174 0.0451 0.8935
C8_8 C 0.0830(2) 0.1607(5) 0.8562(6)
H5_8 H 0.105(3) 0.210(5) 0.851(8)
C11_8 C 0.17373(17) 0.0029(4) 0.8832(5)
C12_8 C 0.14661(18) 0.0743(4) 0.8330(4)
C13_8 C 0.16476(17) 0.1310(4) 0.7676(4)
H7_8 H 0.1459 0.1753 0.7311
C14_8 C 0.21171(17) 0.1219(4) 0.7559(4)
C15_8 C 0.23962(17) 0.0547(4) 0.8111(4)
H8_8 H 0.2710 0.0498 0.8060
C16_8 C 0.23056(19) 0.1833(4) 0.6843(4)
C9_8 C 0.25119(17) 0.9231(3) 0.9306(4)
C10_8 C 0.22054(17) 0.9952(4) 0.8736(4)
H6_8 H 0.1606 0.9611 0.9223
O2_8 O 0.88215(14) 0.1690(3) 0.0015(4)
O7_8 O 0.85934(19) 0.4168(4) 0.1480(5)
O8_8 O 0.8615(2) 0.2142(4) 0.2000(5)
N2_8 N 0.8841(3) 0.4847(7) 0.3106(7)
N3_8 N 0.8826(4) 0.1137(8) 0.3285(8)
C17_8 C 0.8687(4) 0.4110(9) 0.2503(9)
C18_4 C 0.8767(6) 0.5763(10) 0.2537(13)
H9_4 H 0.8878 0.6259 0.2985
H10_4 H 0.8936 0.5757 0.1987
H11_4 H 0.8440 0.5847 0.2282
C19_8 C 0.8977(5) 0.4730(10) 0.4191(9)
H12_4 H 0.9075 0.5312 0.4494
H13_8 H 0.8716 0.4503 0.4465
H14_8 H 0.9231 0.4299 0.4328
C20_8 C 0.8498(5) 0.1754(11) 0.2601(11)
C21_8 C 0.8665(5) 0.0646(10) 0.4006(11)
H15_8 H 0.8911 0.0269 0.4358
H16_8 H 0.8558 0.1060 0.4471
H17_8 H 0.8410 0.0262 0.3700
C22_8 C 0.9287(5) 0.1014(10) 0.3009(11)
H18_8 H 0.9322 0.1434 0.2479
H19_8 H 0.9525 0.1133 0.3583
H20_8 H 0.9317 0.0394 0.2783
H21_8 H 0.813654 0.18149 0.270743
H22_8 H 0.863756 0.345229 0.285587
O1_8 O 0.89617(14) 0.3166(3) 0.9880(4)
C1_8 C 0.90701(19) 0.2332(4) 0.9806(5)
C2_8 C 0.9521(2) 0.2135(4) 0.9447(5)
C3_8 C 0.9813(3) 0.2851(5) 0.9260(8)
H1_8 H 0.9729 0.3457 0.9359
C7_8 C 0.9661(2) 0.1246(5) 0.9325(6)
H4_8 H 0.9471 0.0763 0.9456
C18_5 C 0.3767(6) 0.9237(10) 0.7537(13)
H9_5 H 0.3878 0.8741 0.7985
H10_5 H 0.3936 0.9243 0.6987
H11_5 H 0.3440 0.9153 0.7282
H12_5 H 0.4075 0.9688 0.9494
C18_6 C 0.6233(6) 0.9237(10) 0.7463(13)
H9_6 H 0.6122 0.8741 0.7015
H10_6 H 0.6064 0.9243 0.8013
H11_6 H 0.6560 0.9153 0.7718
H12_6 H 0.5925 0.9688 0.5506
C18_7 C 0.6233(6) 0.0763(10) 0.2463(13)
H9_7 H 0.6122 0.1259 0.2015
H10_7 H 0.6064 0.0757 0.3013
H11_7 H 0.6560 0.0847 0.2718
H12_7 H 0.5925 0.0312 0.0506
C18_8 C 0.3767(6) 0.0763(10) 0.2537(13)
H9_8 H 0.3878 0.1259 0.2985
H10_8 H 0.3936 0.0757 0.1987
H11_8 H 0.3440 0.0847 0.2282
H12_8 H 0.4075 0.0312 0.4494
loop_
_geom_bond_atom_site_label_1
_geom_bond_atom_site_label_2
_geom_bond_site_symmetry_1
_geom_bond_site_symmetry_2
La1 O1 1_555 1_555
O1 C1 1_555 1_555
O2 La1 1_555 1_555
O3 C9 1_555 1_555
O4 C9 1_555 1_555
O5 C16 1_555 1_555
O6 C16 1_555 1_555
O7 La1 1_555 1_555
O8 La1 1_555 1_555
N1 C8 1_555 1_555
N2 C17 1_555 1_555
N3 C20 1_555 1_555
C1 O2 1_555 1_555
C2 C1 1_555 1_555
C3 C2 1_555 1_555
H1 C3 1_555 1_555
C4 C3 1_555 1_555
H2 C4 1_555 1_555
C5 C4 1_555 1_555
C6 C5 1_555 1_555
H3 C6 1_555 1_555
C7 C2 1_555 1_555
H4 C7 1_555 1_555
C8 C5 1_555 1_555
H5 C8 1_555 1_555
C9 C10 1_555 1_555
C10 C11 1_555 1_555
C11 H6 1_555 1_555
C12 N1 1_555 1_555
C13 C12 1_555 1_555
H7 C13 1_555 1_555
C14 C13 1_555 1_555
C15 C10 1_555 1_555
H8 C15 1_555 1_555
C16 C14 1_555 1_555
C17 O7 1_555 1_555
C19 N2 1_555 1_555
H13 C19 1_555 1_555
H14 C19 1_555 1_555
C20 O8 1_555 1_555
C21 N3 1_555 1_555
H15 C21 1_555 1_555
H16 C21 1_555 1_555
H17 C21 1_555 1_555
C22 N3 1_555 1_555
H18 C22 1_555 1_555
H19 C22 1_555 1_555
H20 C22 1_555 1_555
La3 O3 1_555 1_555
La4 O4 1_555 1_555
La5 O6 1_555 1_555
O9 La1 1_555 1_555
O10 La1 1_555 1_555
O11 La1 1_555 1_555
O12 La1 1_555 1_555
O13 La1 1_555 1_555
O4 La3 1_555 1_555
C6 C7 1_555 1_555
C11 C12 1_555 1_555
C14 C15 1_555 1_555
C20 H21 1_555 1_555
C17 H22 1_555 1_555
O1_2 C1_2 1_555 1_555
O3_2 C9_2 1_555 1_555
O4_2 C9_2 1_555 1_555
O12 C16_2 1_555 1_555
O6_2 C16_2 1_555 1_555
N1_2 C8_2 1_555 1_555
C2_2 C1_2 1_555 1_555
C3_2 C2_2 1_555 1_555
H1_2 C3_2 1_555 1_555
C4_2 C3_2 1_555 1_555
H2_2 C4_2 1_555 1_555
C5_2 C4_2 1_555 1_555
C6_2 C5_2 1_555 1_555
H3_2 C6_2 1_555 1_555
C7_2 C2_2 1_555 1_555
H4_2 C7_2 1_555 1_555
C8_2 C5_2 1_555 1_555
H5_2 C8_2 1_555 1_555
C9_2 C10_2 1_555 1_555
C10_2 C11_2 1_555 1_555
C11_2 H6_2 1_555 1_555
C12_2 N1_2 1_555 1_555
C13_2 C12_2 1_555 1_555
H7_2 C13_2 1_555 1_555
C14_2 C13_2 1_555 1_555
C15_2 C10_2 1_555 1_555
H8_2 C15_2 1_555 1_555
C16_2 C14_2 1_555 1_555
La4_2 O4_2 1_555 1_555
La5_2 O6_2 1_555 1_555
C6_2 C7_2 1_555 1_555
C11_2 C12_2 1_555 1_555
C14_2 C15_2 1_555 1_555
O2_2 La2 1_555 1_555
O7_2 La2 1_555 1_555
O8_2 La2 1_555 1_555
N2_2 C17_2 1_555 1_555
N3_2 C20_2 1_555 1_555
C17_2 O7_2 1_555 1_555
C19_2 N2_2 1_555 1_555
H13_2 C19_2 1_555 1_555
H14_2 C19_2 1_555 1_555
C20_2 O8_2 1_555 1_555
C21_2 N3_2 1_555 1_555
H15_2 C21_2 1_555 1_555
H16_2 C21_2 1_555 1_555
H17_2 C21_2 1_555 1_555
C22_2 N3_2 1_555 1_555
H18_2 C22_2 1_555 1_555
H19_2 C22_2 1_555 1_555
H20_2 C22_2 1_555 1_555
O11_2 La2 1_555 1_555
O13_2 La2 1_555 1_555
C20_2 H21_2 1_555 1_555
C17_2 H22_2 1_555 1_555
O9 C9_3 1_555 1_555
O10 C9_3 1_555 1_555
C9_3 C10_3 1_555 1_555
La5_2 O10 1_555 1_555
O5_2 C16_3 1_555 1_555
O6_3 C16_3 1_555 1_555
N1_3 C8_3 1_555 1_555
H2_3 C4_3 1_555 1_555
C5_3 C4_3 1_555 1_555
C6_3 C5_3 1_555 1_555
H3_3 C6_3 1_555 1_555
C8_3 C5_3 1_555 1_555
H5_3 C8_3 1_555 1_555
C12_3 N1_3 1_555 1_555
C13_3 C12_3 1_555 1_555
H7_3 C13_3 1_555 1_555
C14_3 C13_3 1_555 1_555
H8_3 C15_3 1_555 1_555
C16_3 C14_3 1_555 1_555
La4_2 O6_3 1_555 1_555
C11_3 C12_3 1_555 1_555
C14_3 C15_3 1_555 1_555
La3 O1_3 1_555 1_555
O1_3 C1_3 1_555 1_555
O2_3 La3 1_555 1_555
O7_3 La3 1_555 1_555
O8_3 La3 1_555 1_555
N2_3 C17_3 1_555 1_555
N3_3 C20_3 1_555 1_555
C1_3 O2_3 1_555 1_555
C2_3 C1_3 1_555 1_555
C3_3 C2_3 1_555 1_555
H1_3 C3_3 1_555 1_555
C7_3 C2_3 1_555 1_555
H4_3 C7_3 1_555 1_555
C17_3 O7_3 1_555 1_555
C18 N2_3 1_555 1_555
H9 C18 1_555 1_555
H10 C18 1_555 1_555
H11 C18 1_555 1_555
C19_3 N2_3 1_555 1_555
H12 C19_3 1_555 1_555
H13_3 C19_3 1_555 1_555
H14_3 C19_3 1_555 1_555
C20_3 O8_3 1_555 1_555
C21_3 N3_3 1_555 1_555
H15_3 C21_3 1_555 1_555
H16_3 C21_3 1_555 1_555
H17_3 C21_3 1_555 1_555
C22_3 N3_3 1_555 1_555
H18_3 C22_3 1_555 1_555
H19_3 C22_3 1_555 1_555
H20_3 C22_3 1_555 1_555
O11_3 La3 1_555 1_555
O12_2 La3 1_555 1_555
O13_3 La3 1_555 1_555
C20_3 H21_3 1_555 1_555
C17_3 H22_3 1_555 1_555
O1_4 C1_4 1_555 1_555
C2_4 C1_4 1_555 1_555
C3_4 C2_4 1_555 1_555
H1_4 C3_4 1_555 1_555
C7_4 C2_4 1_555 1_555
H4_4 C7_4 1_555 1_555
O2_4 La3_2 1_555 1_555
O7_4 La3_2 1_555 1_555
O8_4 La3_2 1_555 1_555
N2_4 C17_4 1_555 1_555
N3_4 C20_4 1_555 1_555
C17_4 O7_4 1_555 1_555
C18_2 N2_4 1_555 1_555
H9_2 C18_2 1_555 1_555
H10_2 C18_2 1_555 1_555
H11_2 C18_2 1_555 1_555
C19_4 N2_4 1_555 1_555
H12_2 C19_4 1_555 1_555
H13_4 C19_4 1_555 1_555
H14_4 C19_4 1_555 1_555
C20_4 O8_4 1_555 1_555
C21_4 N3_4 1_555 1_555
H15_4 C21_4 1_555 1_555
H16_4 C21_4 1_555 1_555
H17_4 C21_4 1_555 1_555
C22_4 N3_4 1_555 1_555
H18_4 C22_4 1_555 1_555
H19_4 C22_4 1_555 1_555
H20_4 C22_4 1_555 1_555
O11_4 La3_2 1_555 1_555
O13_4 La3_2 1_555 1_555
C20_4 H21_4 1_555 1_555
C17_4 H22_4 1_555 1_555
O9_2 C9_4 1_555 1_555
O10_2 C9_4 1_555 1_555
C9_4 C10_4 1_555 1_555
La5 O10_2 1_555 1_555
O12_2 C16_4 1_555 1_555
O6_4 C16_4 1_555 1_555
N1_4 C8_4 1_555 1_555
H2_4 C4_4 1_555 1_555
C5_4 C4_4 1_555 1_555
C6_4 C5_4 1_555 1_555
H3_4 C6_4 1_555 1_555
C8_4 C5_4 1_555 1_555
H5_4 C8_4 1_555 1_555
C12_4 N1_4 1_555 1_555
C13_4 C12_4 1_555 1_555
H7_4 C13_4 1_555 1_555
C14_4 C13_4 1_555 1_555
H8_4 C15_4 1_555 1_555
C16_4 C14_4 1_555 1_555
La4 O6_4 1_555 1_555
C11_4 C12_4 1_555 1_555
C14_4 C15_4 1_555 1_555
La4 O1_5 1_555 1_555
O1_5 C1_5 1_555 1_555
O2_5 La4 1_555 1_555
O3_3 C9_5 1_555 1_555
O11 C9_5 1_555 1_555
O5_3 C16_5 1_555 1_555
O13_4 C16_5 1_555 1_555
O7_5 La4 1_555 1_555
O8_5 La4 1_555 1_555
N1_5 C8_5 1_555 1_555
N2_5 C17_5 1_555 1_555
N3_5 C20_5 1_555 1_555
C1_5 O2_5 1_555 1_555
C2_5 C1_5 1_555 1_555
C3_5 C2_5 1_555 1_555
H1_5 C3_5 1_555 1_555
C4_5 C3_5 1_555 1_555
H2_5 C4_5 1_555 1_555
C5_5 C4_5 1_555 1_555
C6_5 C5_5 1_555 1_555
H3_5 C6_5 1_555 1_555
C7_5 C2_5 1_555 1_555
H4_5 C7_5 1_555 1_555
C8_5 C5_5 1_555 1_555
H5_5 C8_5 1_555 1_555
C9_5 C10_5 1_555 1_555
C10_5 C11_5 1_555 1_555
C11_5 H6_5 1_555 1_555
C12_5 N1_5 1_555 1_555
C13_5 C12_5 1_555 1_555
H7_5 C13_5 1_555 1_555
C14_5 C13_5 1_555 1_555
C15_5 C10_5 1_555 1_555
H8_5 C15_5 1_555 1_555
C16_5 C14_5 1_555 1_555
C17_5 O7_5 1_555 1_555
C19_5 N2_5 1_555 1_555
H13_5 C19_5 1_555 1_555
H14_5 C19_5 1_555 1_555
C20_5 O8_5 1_555 1_555
C21_5 N3_5 1_555 1_555
H15_5 C21_5 1_555 1_555
H16_5 C21_5 1_555 1_555
H17_5 C21_5 1_555 1_555
C22_5 N3_5 1_555 1_555
H18_5 C22_5 1_555 1_555
H19_5 C22_5 1_555 1_555
H20_5 C22_5 1_555 1_555
La5_2 O3_3 1_555 1_555
O9_3 La4 1_555 1_555
O11_3 La4 1_555 1_555
O12_3 La4 1_555 1_555
O11 La5_2 1_555 1_555
C6_5 C7_5 1_555 1_555
C11_5 C12_5 1_555 1_555
C14_5 C15_5 1_555 1_555
C20_5 H21_5 1_555 1_555
C17_5 H22_5 1_555 1_555
O2_6 La4_2 1_555 1_555
O7_6 La4_2 1_555 1_555
O8_6 La4_2 1_555 1_555
N2_6 C17_6 1_555 1_555
N3_6 C20_6 1_555 1_555
C17_6 O7_6 1_555 1_555
C19_6 N2_6 1_555 1_555
H13_6 C19_6 1_555 1_555
H14_6 C19_6 1_555 1_555
C20_6 O8_6 1_555 1_555
C21_6 N3_6 1_555 1_555
H15_6 C21_6 1_555 1_555
H16_6 C21_6 1_555 1_555
H17_6 C21_6 1_555 1_555
C22_6 N3_6 1_555 1_555
H18_6 C22_6 1_555 1_555
H19_6 C22_6 1_555 1_555
H20_6 C22_6 1_555 1_555
C20_6 H21_6 1_555 1_555
C17_6 H22_6 1_555 1_555
O1_6 C1_6 1_555 1_555
O3_4 C9_6 1_555 1_555
O11_2 C9_6 1_555 1_555
O12_3 C16_6 1_555 1_555
O13_3 C16_6 1_555 1_555
N1_6 C8_6 1_555 1_555
C2_6 C1_6 1_555 1_555
C3_6 C2_6 1_555 1_555
H1_6 C3_6 1_555 1_555
C4_6 C3_6 1_555 1_555
H2_6 C4_6 1_555 1_555
C5_6 C4_6 1_555 1_555
C6_6 C5_6 1_555 1_555
H3_6 C6_6 1_555 1_555
C7_6 C2_6 1_555 1_555
H4_6 C7_6 1_555 1_555
C8_6 C5_6 1_555 1_555
H5_6 C8_6 1_555 1_555
C9_6 C10_6 1_555 1_555
C10_6 C11_6 1_555 1_555
C11_6 H6_6 1_555 1_555
C12_6 N1_6 1_555 1_555
C13_6 C12_6 1_555 1_555
H7_6 C13_6 1_555 1_555
C14_6 C13_6 1_555 1_555
C15_6 C10_6 1_555 1_555
H8_6 C15_6 1_555 1_555
C16_6 C14_6 1_555 1_555
C6_6 C7_6 1_555 1_555
C11_6 C12_6 1_555 1_555
C14_6 C15_6 1_555 1_555
La5_2 O1_7 1_555 1_555
O1_7 C1_7 1_555 1_555
O2_7 La5_2 1_555 1_555
O7_7 La5_2 1_555 1_555
O8_7 La5_2 1_555 1_555
N2_7 C17_7 1_555 1_555
N3_7 C20_7 1_555 1_555
C1_7 O2_7 1_555 1_555
C2_7 C1_7 1_555 1_555
C3_7 C2_7 1_555 1_555
H1_7 C3_7 1_555 1_555
C7_7 C2_7 1_555 1_555
H4_7 C7_7 1_555 1_555
C17_7 O7_7 1_555 1_555
C18_3 N2_7 1_555 1_555
H9_3 C18_3 1_555 1_555
H10_3 C18_3 1_555 1_555
H11_3 C18_3 1_555 1_555
C19_7 N2_7 1_555 1_555
H12_3 C19_7 1_555 1_555
H13_7 C19_7 1_555 1_555
H14_7 C19_7 1_555 1_555
C20_7 O8_7 1_555 1_555
C21_7 N3_7 1_555 1_555
H15_7 C21_7 1_555 1_555
H16_7 C21_7 1_555 1_555
H17_7 C21_7 1_555 1_555
C22_7 N3_7 1_555 1_555
H18_7 C22_7 1_555 1_555
H19_7 C22_7 1_555 1_555
H20_7 C22_7 1_555 1_555
O12_4 La5_2 1_555 1_555
C20_7 H21_7 1_555 1_555
C17_7 H22_7 1_555 1_555
O5_4 C16_7 1_555 1_555
O13_2 C16_7 1_555 1_555
N1_7 C8_7 1_555 1_555
H2_7 C4_7 1_555 1_555
C5_7 C4_7 1_555 1_555
C6_7 C5_7 1_555 1_555
H3_7 C6_7 1_555 1_555
C8_7 C5_7 1_555 1_555
H5_7 C8_7 1_555 1_555
C12_7 N1_7 1_555 1_555
C13_7 C12_7 1_555 1_555
H7_7 C13_7 1_555 1_555
C14_7 C13_7 1_555 1_555
H8_7 C15_7 1_555 1_555
C16_7 C14_7 1_555 1_555
C11_7 C12_7 1_555 1_555
C14_7 C15_7 1_555 1_555
O9_3 C9_7 1_555 1_555
O11_3 C9_7 1_555 1_555
C9_7 C10_7 1_555 1_555
O12_4 C16_8 1_555 1_555
O13 C16_8 1_555 1_555
N1_8 C8_8 1_555 1_555
H2_8 C4_8 1_555 1_555
C5_8 C4_8 1_555 1_555
C6_8 C5_8 1_555 1_555
H3_8 C6_8 1_555 1_555
C8_8 C5_8 1_555 1_555
H5_8 C8_8 1_555 1_555
C12_8 N1_8 1_555 1_555
C13_8 C12_8 1_555 1_555
H7_8 C13_8 1_555 1_555
C14_8 C13_8 1_555 1_555
H8_8 C15_8 1_555 1_555
C16_8 C14_8 1_555 1_555
C11_8 C12_8 1_555 1_555
C14_8 C15_8 1_555 1_555
O9_4 C9_8 1_555 1_555
O11_4 C9_8 1_555 1_555
C9_8 C10_8 1_555 1_555
O2_8 La5 1_555 1_555
O7_8 La5 1_555 1_555
O8_8 La5 1_555 1_555
N2_8 C17_8 1_555 1_555
N3_8 C20_8 1_555 1_555
C17_8 O7_8 1_555 1_555
C18_4 N2_8 1_555 1_555
H9_4 C18_4 1_555 1_555
H10_4 C18_4 1_555 1_555
H11_4 C18_4 1_555 1_555
C19_8 N2_8 1_555 1_555
H12_4 C19_8 1_555 1_555
H13_8 C19_8 1_555 1_555
H14_8 C19_8 1_555 1_555
C20_8 O8_8 1_555 1_555
C21_8 N3_8 1_555 1_555
H15_8 C21_8 1_555 1_555
H16_8 C21_8 1_555 1_555
H17_8 C21_8 1_555 1_555
C22_8 N3_8 1_555 1_555
H18_8 C22_8 1_555 1_555
H19_8 C22_8 1_555 1_555
H20_8 C22_8 1_555 1_555
C20_8 H21_8 1_555 1_555
C17_8 H22_8 1_555 1_555
O1_8 C1_8 1_555 1_555
C2_8 C1_8 1_555 1_555
C3_8 C2_8 1_555 1_555
H1_8 C3_8 1_555 1_555
C7_8 C2_8 1_555 1_555
H4_8 C7_8 1_555 1_555
H9_5 C18_5 1_555 1_555
H10_5 C18_5 1_555 1_555
H11_5 C18_5 1_555 1_555
H9_6 C18_6 1_555 1_555
H10_6 C18_6 1_555 1_555
H11_6 C18_6 1_555 1_555
H9_7 C18_7 1_555 1_555
H10_7 C18_7 1_555 1_555
H11_7 C18_7 1_555 1_555
H9_8 C18_8 1_555 1_555
H10_8 C18_8 1_555 1_555
H11_8 C18_8 1_555 1_555

#END
