
###############################################################################
#
# This file contains modified crystal structure data generated from the
# MOF subset of the Cambridge Structural Database (CSD) v543 
# hosted by the Cambridge Crystallographic Data Centre (CCDC).
#
# This work is licensed under the Creative Commons
# Attribution-NonCommercial-ShareAlike 4.0 International License.
# To view a copy of this license, visit
# http://creativecommons.org/licenses/by-nc-sa/4.0/
# or send a letter to
# Creative Commons, PO Box 1866, Mountain View, CA 94042, USA.
#
# CIF created using the CSD Python API on 29 September 2022
# The structure has been converted into the P1 space group
# The structure has a 3D framework
# The original CSD entry BETHIT is in the cubic crystal system
# The framework has been calculated to contain at least 10.0% void space
# The void calculation uses a probe of radius 1.32A, grid spacing 0.4
# The framework is charged, counterions have been retained in the structure
# H atom positions have been added when not included in the experimental data
# Generated hydrogen atom positions removed from atoms on special positions
#
###############################################################################

data_BETHIT
_chemical_formula_moiety         '(C72 H168 Cd24 Cl4 N96 O24 4-)n'
_symmetry_cell_setting           triclinic
_symmetry_space_group_name_H-M   'P 1'
_symmetry_Int_Tables_number      1
_space_group_name_Hall           'P 1'
loop_
_symmetry_equiv_pos_site_id
_symmetry_equiv_pos_as_xyz
1 x,y,z
_cell_length_a                   19.3620(3)
_cell_length_b                   19.3620(3)
_cell_length_c                   19.3620(3)
_cell_angle_alpha                90
_cell_angle_beta                 90
_cell_angle_gamma                90
_cell_volume                     7258.56
loop_
_atom_site_label
_atom_site_type_symbol
_atom_site_fract_x
_atom_site_fract_y
_atom_site_fract_z
Cd5 Cd 0.0000 0.644575(11) 0.5000
Cl3 Cl 0.0000 0.5000 0.5000
O5 O 0.0000 0.76106(17) 0.5000
Cd16 Cd 0.0000 0.355425(11) 0.5000
Cd26 Cd 0.0000 0.5000 0.644575(11)
Cd28 Cd 0.0000 0.5000 0.355425(11)
N99 N 0.08266(7) 0.63415(7) 0.58612(7)
N112 N 0.08266(7) 0.63415(7) 0.41388(7)
Cd8 Cd 0.5000 0.0000 0.355425(11)
O8 O 0.5000 0.0000 0.23894(17)
Cd18 Cd 0.5000 0.0000 0.644575(11)
Cd21 Cd 0.355425(11) 0.0000 0.5000
Cd23 Cd 0.644575(11) 0.0000 0.5000
Cl6 Cl 0.5000 0.0000 0.5000
N102 N 0.41388(7) 0.08266(7) 0.36585(7)
N115 N 0.58612(7) 0.08266(7) 0.36585(7)
Cd13 Cd 0.355425(11) 0.5000 0.0000
Cd14 Cd 0.644575(11) 0.5000 0.0000
Cd19 Cd 0.5000 0.355425(11) 0.0000
Cd20 Cd 0.5000 0.644575(11) 0.0000
Cl1 Cl 0.5000 0.5000 0.0000
N1 N 0.36585(7) 0.41388(7) 0.08266(7)
N2 N 0.32375(8) 0.40471(8) 0.13615(7)
O1 O 0.23894(17) 0.5000 0.0000
C1 C 0.34895(9) 0.34895(9) 0.16773(13)
C2 C 0.31849(10) 0.31849(10) 0.23034(12)
C3 C 0.25984(10) 0.34782(12) 0.25984(10)
H1 H 0.2403 0.3871 0.2403
N3 N 0.08266(7) 0.36585(7) 0.41388(7)
N4 N 0.13615(7) 0.32375(8) 0.40471(8)
C4 C 0.16773(13) 0.34895(9) 0.34895(9)
C5 C 0.23034(12) 0.31849(10) 0.31849(10)
C6 C 0.25984(10) 0.25984(10) 0.34782(12)
H2 H 0.2403 0.2403 0.3871
N6 N 0.40471(8) 0.13615(7) 0.32375(8)
C7 C 0.34895(9) 0.16773(13) 0.34895(9)
C8 C 0.31849(10) 0.23034(12) 0.31849(10)
C9 C 0.34782(12) 0.25984(10) 0.25984(10)
H3 H 0.3871 0.2403 0.2403
N7 N 0.41388(7) 0.36585(7) 0.08266(7)
N8 N 0.40471(8) 0.32375(8) 0.13615(7)
N9 N 0.36585(7) 0.08266(7) 0.41388(7)
N10 N 0.32375(8) 0.13615(7) 0.40471(8)
N11 N 0.08266(7) 0.41388(7) 0.36585(7)
N12 N 0.13615(7) 0.40471(8) 0.32375(8)
N13 N 0.63415(7) 0.58612(7) 0.08266(7)
N14 N 0.67625(8) 0.59529(8) 0.13615(7)
O2 O 0.76106(17) 0.5000 0.0000
C10 C 0.65105(9) 0.65105(9) 0.16773(13)
C11 C 0.68151(10) 0.68151(10) 0.23034(12)
C12 C 0.74016(10) 0.65218(12) 0.25984(10)
H4 H 0.7597 0.6129 0.2403
N15 N 0.91734(7) 0.63415(7) 0.41388(7)
N16 N 0.86385(7) 0.67625(8) 0.40471(8)
C13 C 0.83227(13) 0.65105(9) 0.34895(9)
C14 C 0.76966(12) 0.68151(10) 0.31849(10)
C15 C 0.74016(10) 0.74016(10) 0.34782(12)
H5 H 0.7597 0.7597 0.3871
N17 N 0.58612(7) 0.91734(7) 0.36585(7)
N18 N 0.59529(8) 0.86385(7) 0.32375(8)
C16 C 0.65105(9) 0.83227(13) 0.34895(9)
C17 C 0.68151(10) 0.76966(12) 0.31849(10)
C18 C 0.65218(12) 0.74016(10) 0.25984(10)
H6 H 0.6129 0.7597 0.2403
N19 N 0.58612(7) 0.63415(7) 0.08266(7)
N20 N 0.59529(8) 0.67625(8) 0.13615(7)
N21 N 0.63415(7) 0.91734(7) 0.41388(7)
N22 N 0.67625(8) 0.86385(7) 0.40471(8)
N23 N 0.91734(7) 0.58612(7) 0.36585(7)
N24 N 0.86385(7) 0.59529(8) 0.32375(8)
O3 O 0.0000 0.23894(17) 0.5000
N26 N 0.13615(7) 0.67625(8) 0.59529(8)
C19 C 0.16773(13) 0.65105(9) 0.65105(9)
C20 C 0.23034(12) 0.68151(10) 0.68151(10)
C21 C 0.25984(10) 0.74016(10) 0.65218(12)
H7 H 0.2403 0.7597 0.6129
N27 N 0.41388(7) 0.91734(7) 0.63415(7)
N28 N 0.40471(8) 0.86385(7) 0.67625(8)
C22 C 0.34895(9) 0.83227(13) 0.65105(9)
C23 C 0.31849(10) 0.76966(12) 0.68151(10)
C24 C 0.34782(12) 0.74016(10) 0.74016(10)
H8 H 0.3871 0.7597 0.7597
N29 N 0.36585(7) 0.58612(7) 0.91734(7)
N30 N 0.32375(8) 0.59529(8) 0.86385(7)
C25 C 0.34895(9) 0.65105(9) 0.83227(13)
C26 C 0.31849(10) 0.68151(10) 0.76966(12)
C27 C 0.25984(10) 0.65218(12) 0.74016(10)
H9 H 0.2403 0.6129 0.7597
N31 N 0.08266(7) 0.58612(7) 0.63415(7)
N32 N 0.13615(7) 0.59529(8) 0.67625(8)
N33 N 0.41388(7) 0.63415(7) 0.91734(7)
N34 N 0.40471(8) 0.67625(8) 0.86385(7)
N35 N 0.36585(7) 0.91734(7) 0.58612(7)
N36 N 0.32375(8) 0.86385(7) 0.59529(8)
Cd5_2 Cd 1.0000 0.644575(11) 0.5000
Cl3_2 Cl 1.0000 0.5000 0.5000
O5_2 O 1.0000 0.76106(17) 0.5000
N37 N 0.58612(7) 0.08266(7) 0.63415(7)
N38 N 0.59529(8) 0.13615(7) 0.67625(8)
O7 O 0.5000 0.0000 0.76106(17)
C28 C 0.65105(9) 0.16773(13) 0.65105(9)
C29 C 0.68151(10) 0.23034(12) 0.68151(10)
C30 C 0.65218(12) 0.25984(10) 0.74016(10)
H10 H 0.6129 0.2403 0.7597
N39 N 0.63415(7) 0.41388(7) 0.91734(7)
N40 N 0.67625(8) 0.40471(8) 0.86385(7)
C31 C 0.65105(9) 0.34895(9) 0.83227(13)
C32 C 0.68151(10) 0.31849(10) 0.76966(12)
C33 C 0.74016(10) 0.34782(12) 0.74016(10)
H11 H 0.7597 0.3871 0.7597
N41 N 0.91734(7) 0.36585(7) 0.58612(7)
N42 N 0.86385(7) 0.32375(8) 0.59529(8)
C34 C 0.83227(13) 0.34895(9) 0.65105(9)
C35 C 0.76966(12) 0.31849(10) 0.68151(10)
C36 C 0.74016(10) 0.25984(10) 0.65218(12)
H12 H 0.7597 0.2403 0.6129
N43 N 0.63415(7) 0.08266(7) 0.58612(7)
N44 N 0.67625(8) 0.13615(7) 0.59529(8)
N45 N 0.91734(7) 0.41388(7) 0.63415(7)
N46 N 0.86385(7) 0.40471(8) 0.67625(8)
N47 N 0.58612(7) 0.36585(7) 0.91734(7)
N48 N 0.59529(8) 0.32375(8) 0.86385(7)
Cd8_2 Cd 0.5000 1.0000 0.355425(11)
O8_2 O 0.5000 1.0000 0.23894(17)
O9 O 0.5000 0.23894(17) 0.0000
O10 O 0.5000 0.76106(17) 0.0000
N61 N 0.41388(7) 0.63415(7) 0.08266(7)
N62 N 0.40471(8) 0.67625(8) 0.13615(7)
C46 C 0.34895(9) 0.65105(9) 0.16773(13)
C47 C 0.31849(10) 0.68151(10) 0.23034(12)
C48 C 0.34782(12) 0.74016(10) 0.25984(10)
H16 H 0.3871 0.7597 0.2403
N63 N 0.36585(7) 0.91734(7) 0.41388(7)
N64 N 0.32375(8) 0.86385(7) 0.40471(8)
C49 C 0.34895(9) 0.83227(13) 0.34895(9)
C50 C 0.31849(10) 0.76966(12) 0.31849(10)
C51 C 0.25984(10) 0.74016(10) 0.34782(12)
H17 H 0.2403 0.7597 0.3871
N65 N 0.08266(7) 0.58612(7) 0.36585(7)
N66 N 0.13615(7) 0.59529(8) 0.32375(8)
C52 C 0.16773(13) 0.65105(9) 0.34895(9)
C53 C 0.23034(12) 0.68151(10) 0.31849(10)
C54 C 0.25984(10) 0.65218(12) 0.25984(10)
H18 H 0.2403 0.6129 0.2403
N67 N 0.36585(7) 0.58612(7) 0.08266(7)
N68 N 0.32375(8) 0.59529(8) 0.13615(7)
N70 N 0.13615(7) 0.67625(8) 0.40471(8)
N71 N 0.41388(7) 0.91734(7) 0.36585(7)
N72 N 0.40471(8) 0.86385(7) 0.32375(8)
N73 N 0.58612(7) 0.36585(7) 0.08266(7)
N74 N 0.59529(8) 0.32375(8) 0.13615(7)
C55 C 0.65105(9) 0.34895(9) 0.16773(13)
C56 C 0.68151(10) 0.31849(10) 0.23034(12)
C57 C 0.65218(12) 0.25984(10) 0.25984(10)
H19 H 0.6129 0.2403 0.2403
N75 N 0.63415(7) 0.08266(7) 0.41388(7)
N76 N 0.67625(8) 0.13615(7) 0.40471(8)
C58 C 0.65105(9) 0.16773(13) 0.34895(9)
C59 C 0.68151(10) 0.23034(12) 0.31849(10)
C60 C 0.74016(10) 0.25984(10) 0.34782(12)
H20 H 0.7597 0.2403 0.3871
N77 N 0.91734(7) 0.41388(7) 0.36585(7)
N78 N 0.86385(7) 0.40471(8) 0.32375(8)
C61 C 0.83227(13) 0.34895(9) 0.34895(9)
C62 C 0.76966(12) 0.31849(10) 0.31849(10)
C63 C 0.74016(10) 0.34782(12) 0.25984(10)
H21 H 0.7597 0.3871 0.2403
N79 N 0.63415(7) 0.41388(7) 0.08266(7)
N80 N 0.67625(8) 0.40471(8) 0.13615(7)
N81 N 0.91734(7) 0.36585(7) 0.41388(7)
N82 N 0.86385(7) 0.32375(8) 0.40471(8)
N84 N 0.59529(8) 0.13615(7) 0.32375(8)
N85 N 0.36585(7) 0.08266(7) 0.58612(7)
N86 N 0.32375(8) 0.13615(7) 0.59529(8)
O12 O 0.23894(17) 0.0000 0.5000
C64 C 0.34895(9) 0.16773(13) 0.65105(9)
C65 C 0.31849(10) 0.23034(12) 0.68151(10)
C66 C 0.25984(10) 0.25984(10) 0.65218(12)
H22 H 0.2403 0.2403 0.6129
N87 N 0.08266(7) 0.41388(7) 0.63415(7)
N88 N 0.13615(7) 0.40471(8) 0.67625(8)
C67 C 0.16773(13) 0.34895(9) 0.65105(9)
C68 C 0.23034(12) 0.31849(10) 0.68151(10)
C69 C 0.25984(10) 0.34782(12) 0.74016(10)
H23 H 0.2403 0.3871 0.7597
N89 N 0.41388(7) 0.36585(7) 0.91734(7)
N90 N 0.40471(8) 0.32375(8) 0.86385(7)
C70 C 0.34895(9) 0.34895(9) 0.83227(13)
C71 C 0.31849(10) 0.31849(10) 0.76966(12)
C72 C 0.34782(12) 0.25984(10) 0.74016(10)
H24 H 0.3871 0.2403 0.7597
N91 N 0.41388(7) 0.08266(7) 0.63415(7)
N92 N 0.40471(8) 0.13615(7) 0.67625(8)
N93 N 0.36585(7) 0.41388(7) 0.91734(7)
N94 N 0.32375(8) 0.40471(8) 0.86385(7)
N95 N 0.08266(7) 0.36585(7) 0.58612(7)
N96 N 0.13615(7) 0.32375(8) 0.59529(8)
Cd13_2 Cd 0.355425(11) 0.5000 1.0000
Cd14_2 Cd 0.644575(11) 0.5000 1.0000
Cd16_2 Cd 1.0000 0.355425(11) 0.5000
Cd18_2 Cd 0.5000 1.0000 0.644575(11)
Cd19_2 Cd 0.5000 0.355425(11) 1.0000
Cd20_2 Cd 0.5000 0.644575(11) 1.0000
Cd21_2 Cd 0.355425(11) 1.0000 0.5000
Cd23_2 Cd 0.644575(11) 1.0000 0.5000
Cd26_2 Cd 1.0000 0.5000 0.644575(11)
Cd28_2 Cd 1.0000 0.5000 0.355425(11)
Cl6_2 Cl 0.5000 1.0000 0.5000
N110 N 0.91734(7) 0.63415(7) 0.58612(7)
Cl1_2 Cl 0.5000 0.5000 1.0000
O1_2 O 0.23894(17) 0.5000 1.0000
O2_2 O 0.76106(17) 0.5000 1.0000
O9_2 O 0.5000 0.23894(17) 1.0000
O10_2 O 0.5000 0.76106(17) 1.0000
N105 N 0.58612(7) 0.63415(7) 0.91734(7)
N108 N 0.63415(7) 0.58612(7) 0.91734(7)
O7_2 O 0.5000 1.0000 0.76106(17)
O12_2 O 0.23894(17) 1.0000 0.5000
N113 N 0.58612(7) 0.91734(7) 0.63415(7)
O3_2 O 1.0000 0.23894(17) 0.5000
O12_3 O 0.76106(17) 0.0000 0.5000
N85_2 N 0.63415(7) 0.91734(7) 0.58612(7)
N86_2 N 0.67625(8) 0.86385(7) 0.59529(8)
O12_4 O 0.76106(17) 1.0000 0.5000
C64_2 C 0.65105(9) 0.83227(13) 0.65105(9)
C65_2 C 0.68151(10) 0.76966(12) 0.68151(10)
C66_2 C 0.74016(10) 0.74016(10) 0.65218(12)
H22_2 H 0.7597 0.7597 0.6129
N87_2 N 0.91734(7) 0.58612(7) 0.63415(7)
N88_2 N 0.86385(7) 0.59529(8) 0.67625(8)
C67_2 C 0.83227(13) 0.65105(9) 0.65105(9)
C68_2 C 0.76966(12) 0.68151(10) 0.68151(10)
C69_2 C 0.74016(10) 0.65218(12) 0.74016(10)
H23_2 H 0.7597 0.6129 0.7597
N90_2 N 0.59529(8) 0.67625(8) 0.86385(7)
C70_2 C 0.65105(9) 0.65105(9) 0.83227(13)
C71_2 C 0.68151(10) 0.68151(10) 0.76966(12)
C72_2 C 0.65218(12) 0.74016(10) 0.74016(10)
H24_2 H 0.6129 0.7597 0.7597
N92_2 N 0.59529(8) 0.86385(7) 0.67625(8)
N94_2 N 0.67625(8) 0.59529(8) 0.86385(7)
N96_2 N 0.86385(7) 0.67625(8) 0.59529(8)
O9_3 O 0.0000 0.5000 0.23894(17)
O10_3 O 0.0000 0.5000 0.76106(17)
O9_4 O 1.0000 0.5000 0.23894(17)
O10_4 O 1.0000 0.5000 0.76106(17)
loop_
_geom_bond_atom_site_label_1
_geom_bond_atom_site_label_2
_geom_bond_site_symmetry_1
_geom_bond_site_symmetry_2
Cl3 Cd5 1_555 1_555
O5 Cd5 1_555 1_555
Cd16 Cl3 1_555 1_555
Cd26 Cl3 1_555 1_555
N99 Cd5 1_555 1_555
N112 Cd5 1_555 1_555
Cl3 Cd28 1_555 1_555
O8 Cd8 1_555 1_555
Cl6 Cd8 1_555 1_555
N102 Cd8 1_555 1_555
N115 Cd8 1_555 1_555
Cd18 Cl6 1_555 1_555
Cd21 Cl6 1_555 1_555
Cd23 Cl6 1_555 1_555
Cd13 Cl1 1_555 1_555
Cl1 Cd14 1_555 1_555
N1 Cd13 1_555 1_555
N2 N1 1_555 1_555
O1 Cd13 1_555 1_555
C1 N2 1_555 1_555
C2 C1 1_555 1_555
C3 C2 1_555 1_555
H1 C3 1_555 1_555
N3 N4 1_555 1_555
N4 C4 1_555 1_555
C4 C5 1_555 1_555
C5 C3 1_555 1_555
C6 C5 1_555 1_555
H2 C6 1_555 1_555
N102 N6 1_555 1_555
N6 C7 1_555 1_555
C7 C8 1_555 1_555
C8 C6 1_555 1_555
C9 C2 1_555 1_555
H3 C9 1_555 1_555
N7 N1 1_555 1_555
N8 C1 1_555 1_555
N9 N102 1_555 1_555
N10 C7 1_555 1_555
N11 N3 1_555 1_555
N12 C4 1_555 1_555
Cd14 N13 1_555 1_555
N13 N14 1_555 1_555
N14 C10 1_555 1_555
O2 Cd14 1_555 1_555
C10 C11 1_555 1_555
C11 C12 1_555 1_555
C12 H4 1_555 1_555
N15 N16 1_555 1_555
N16 C13 1_555 1_555
C13 C14 1_555 1_555
C14 C12 1_555 1_555
C15 C14 1_555 1_555
H5 C15 1_555 1_555
N17 N18 1_555 1_555
N18 C16 1_555 1_555
C16 C17 1_555 1_555
C17 C15 1_555 1_555
C18 C11 1_555 1_555
H6 C18 1_555 1_555
N19 N13 1_555 1_555
N20 C10 1_555 1_555
N21 N17 1_555 1_555
N22 C16 1_555 1_555
N23 N15 1_555 1_555
N24 C13 1_555 1_555
Cd16 N3 1_555 1_555
O3 Cd16 1_555 1_555
N26 N99 1_555 1_555
C19 N26 1_555 1_555
C20 C19 1_555 1_555
C21 C20 1_555 1_555
H7 C21 1_555 1_555
N27 N28 1_555 1_555
N28 C22 1_555 1_555
C22 C23 1_555 1_555
C23 C21 1_555 1_555
C24 C23 1_555 1_555
H8 C24 1_555 1_555
N29 N30 1_555 1_555
N30 C25 1_555 1_555
C25 C26 1_555 1_555
C26 C24 1_555 1_555
C27 C20 1_555 1_555
H9 C27 1_555 1_555
N31 N99 1_555 1_555
N32 C19 1_555 1_555
N33 N29 1_555 1_555
N34 C25 1_555 1_555
N35 N27 1_555 1_555
N36 C22 1_555 1_555
Cd5_2 N15 1_555 1_555
Cl3_2 Cd5_2 1_555 1_555
O5_2 Cd5_2 1_555 1_555
Cd18 N37 1_555 1_555
N37 N38 1_555 1_555
N38 C28 1_555 1_555
O7 Cd18 1_555 1_555
C28 C29 1_555 1_555
C29 C30 1_555 1_555
C30 H10 1_555 1_555
N39 N40 1_555 1_555
N40 C31 1_555 1_555
C31 C32 1_555 1_555
C32 C30 1_555 1_555
C33 C32 1_555 1_555
H11 C33 1_555 1_555
N41 N42 1_555 1_555
N42 C34 1_555 1_555
C34 C35 1_555 1_555
C35 C33 1_555 1_555
C36 C29 1_555 1_555
H12 C36 1_555 1_555
N43 N37 1_555 1_555
N44 C28 1_555 1_555
N45 N41 1_555 1_555
N46 C34 1_555 1_555
N47 N39 1_555 1_555
N48 C31 1_555 1_555
Cd8_2 N17 1_555 1_555
O8_2 Cd8_2 1_555 1_555
Cd19 Cl1 1_555 1_555
O9 Cd19 1_555 1_555
Cd20 Cl1 1_555 1_555
O10 Cd20 1_555 1_555
N61 Cd20 1_555 1_555
N62 N61 1_555 1_555
C46 N62 1_555 1_555
C47 C46 1_555 1_555
C48 C47 1_555 1_555
H16 C48 1_555 1_555
N63 N64 1_555 1_555
N64 C49 1_555 1_555
C49 C50 1_555 1_555
C50 C48 1_555 1_555
C51 C50 1_555 1_555
H17 C51 1_555 1_555
N65 N66 1_555 1_555
N66 C52 1_555 1_555
C52 C53 1_555 1_555
C53 C51 1_555 1_555
C54 C47 1_555 1_555
H18 C54 1_555 1_555
N67 Cd13 1_555 1_555
N68 C46 1_555 1_555
N70 C52 1_555 1_555
N71 Cd8_2 1_555 1_555
N72 C49 1_555 1_555
N73 Cd19 1_555 1_555
N74 N73 1_555 1_555
C55 N74 1_555 1_555
C56 C55 1_555 1_555
C57 C56 1_555 1_555
H19 C57 1_555 1_555
N75 N76 1_555 1_555
N76 C58 1_555 1_555
C58 C59 1_555 1_555
C59 C57 1_555 1_555
C60 C59 1_555 1_555
H20 C60 1_555 1_555
N77 N78 1_555 1_555
N78 C61 1_555 1_555
C61 C62 1_555 1_555
C62 C60 1_555 1_555
C63 C56 1_555 1_555
H21 C63 1_555 1_555
N79 Cd14 1_555 1_555
N80 C55 1_555 1_555
N81 N77 1_555 1_555
N82 C61 1_555 1_555
N84 C58 1_555 1_555
Cd21 N9 1_555 1_555
N85 Cd21 1_555 1_555
N86 N85 1_555 1_555
O12 Cd21 1_555 1_555
C64 N86 1_555 1_555
C65 C64 1_555 1_555
C66 C65 1_555 1_555
H22 C66 1_555 1_555
N87 N88 1_555 1_555
N88 C67 1_555 1_555
C67 C68 1_555 1_555
C68 C66 1_555 1_555
C69 C68 1_555 1_555
H23 C69 1_555 1_555
N89 N90 1_555 1_555
N90 C70 1_555 1_555
C70 C71 1_555 1_555
C71 C69 1_555 1_555
C72 C65 1_555 1_555
H24 C72 1_555 1_555
N91 Cd18 1_555 1_555
N92 C64 1_555 1_555
N93 N89 1_555 1_555
N94 C70 1_555 1_555
N95 Cd16 1_555 1_555
N96 C67 1_555 1_555
Cd13_2 N29 1_555 1_555
Cd14_2 N39 1_555 1_555
Cd16_2 Cl3_2 1_555 1_555
Cd18_2 N27 1_555 1_555
Cd19_2 N47 1_555 1_555
Cd20_2 N33 1_555 1_555
Cd21_2 N35 1_555 1_555
Cd23 N43 1_555 1_555
Cd23_2 N21 1_555 1_555
Cd26_2 Cl3_2 1_555 1_555
Cd28 N11 1_555 1_555
Cd28_2 N23 1_555 1_555
Cl6_2 Cd8_2 1_555 1_555
N110 Cd5_2 1_555 1_555
C8 C9 1_555 1_555
N7 N8 1_555 1_555
N7 Cd19 1_555 1_555
N9 N10 1_555 1_555
N11 N12 1_555 1_555
C17 C18 1_555 1_555
N19 N20 1_555 1_555
N19 Cd20 1_555 1_555
N21 N22 1_555 1_555
N23 N24 1_555 1_555
C26 C27 1_555 1_555
N31 N32 1_555 1_555
N31 Cd26 1_555 1_555
N33 N34 1_555 1_555
N35 N36 1_555 1_555
Cl3_2 Cd28_2 1_555 1_555
N41 Cd16_2 1_555 1_555
C35 C36 1_555 1_555
N43 N44 1_555 1_555
N45 N46 1_555 1_555
N45 Cd26_2 1_555 1_555
N47 N48 1_555 1_555
N61 N67 1_555 1_555
N63 N71 1_555 1_555
N63 Cd21_2 1_555 1_555
N65 N112 1_555 1_555
N65 Cd28 1_555 1_555
C53 C54 1_555 1_555
N67 N68 1_555 1_555
N112 N70 1_555 1_555
N71 N72 1_555 1_555
N73 N79 1_555 1_555
N75 N115 1_555 1_555
N75 Cd23 1_555 1_555
N77 Cd28_2 1_555 1_555
C62 C63 1_555 1_555
N79 N80 1_555 1_555
N81 N82 1_555 1_555
N81 Cd16_2 1_555 1_555
N115 N84 1_555 1_555
N85 N91 1_555 1_555
N87 N95 1_555 1_555
N87 Cd26 1_555 1_555
N89 Cd19_2 1_555 1_555
C71 C72 1_555 1_555
N91 N92 1_555 1_555
N93 N94 1_555 1_555
N93 Cd13_2 1_555 1_555
N95 N96 1_555 1_555
Cd18_2 Cl6_2 1_555 1_555
Cd21_2 Cl6_2 1_555 1_555
Cd23_2 Cl6_2 1_555 1_555
Cd13_2 Cl1_2 1_555 1_555
Cl1_2 Cd14_2 1_555 1_555
O1_2 Cd13_2 1_555 1_555
O2_2 Cd14_2 1_555 1_555
Cd19_2 Cl1_2 1_555 1_555
O9_2 Cd19_2 1_555 1_555
Cd20_2 Cl1_2 1_555 1_555
O10_2 Cd20_2 1_555 1_555
N105 Cd20_2 1_555 1_555
N108 Cd14_2 1_555 1_555
N105 N108 1_555 1_555
O7_2 Cd18_2 1_555 1_555
O12_2 Cd21_2 1_555 1_555
N113 Cd18_2 1_555 1_555
O3_2 Cd16_2 1_555 1_555
O12_3 Cd23 1_555 1_555
N85_2 Cd23_2 1_555 1_555
N86_2 N85_2 1_555 1_555
O12_4 Cd23_2 1_555 1_555
C64_2 N86_2 1_555 1_555
C65_2 C64_2 1_555 1_555
C66_2 C65_2 1_555 1_555
H22_2 C66_2 1_555 1_555
N87_2 N88_2 1_555 1_555
N88_2 C67_2 1_555 1_555
C67_2 C68_2 1_555 1_555
C68_2 C66_2 1_555 1_555
C69_2 C68_2 1_555 1_555
H23_2 C69_2 1_555 1_555
N105 N90_2 1_555 1_555
N90_2 C70_2 1_555 1_555
C70_2 C71_2 1_555 1_555
C71_2 C69_2 1_555 1_555
C72_2 C65_2 1_555 1_555
H24_2 C72_2 1_555 1_555
N92_2 C64_2 1_555 1_555
N94_2 C70_2 1_555 1_555
N96_2 C67_2 1_555 1_555
N85_2 N113 1_555 1_555
N87_2 N110 1_555 1_555
N87_2 Cd26_2 1_555 1_555
C71_2 C72_2 1_555 1_555
N113 N92_2 1_555 1_555
N108 N94_2 1_555 1_555
N110 N96_2 1_555 1_555
O9_3 Cd28 1_555 1_555
O10_3 Cd26 1_555 1_555
O9_4 Cd28_2 1_555 1_555
O10_4 Cd26_2 1_555 1_555

#END
