
###############################################################################
#
# This file contains modified crystal structure data generated from the
# MOF subset of the Cambridge Structural Database (CSD) v543 
# hosted by the Cambridge Crystallographic Data Centre (CCDC).
#
# This work is licensed under the Creative Commons
# Attribution-NonCommercial-ShareAlike 4.0 International License.
# To view a copy of this license, visit
# http://creativecommons.org/licenses/by-nc-sa/4.0/
# or send a letter to
# Creative Commons, PO Box 1866, Mountain View, CA 94042, USA.
#
# CIF created using the CSD Python API on 29 September 2022
# The structure has been converted into the P1 space group
# The structure has a 3D framework
# The original CSD entry BETYAD is in the monoclinic crystal system
# The framework has been calculated to contain at least 10.0% void space
# The void calculation uses a probe of radius 1.32A, grid spacing 0.4
#
###############################################################################

data_BETYAD
_chemical_formula_moiety         '(C256 H152 Cd4 N8 O48 Zn8)n'
_symmetry_cell_setting           triclinic
_symmetry_space_group_name_H-M   'P 1'
_symmetry_Int_Tables_number      1
_space_group_name_Hall           'P 1'
loop_
_symmetry_equiv_pos_site_id
_symmetry_equiv_pos_as_xyz
1 x,y,z
_cell_length_a                   16.9958(5)
_cell_length_b                   27.8980(7)
_cell_length_c                   17.6753(8)
_cell_angle_alpha                90
_cell_angle_beta                 106.832(4)
_cell_angle_gamma                90
_cell_volume                     8021.68
loop_
_atom_site_label
_atom_site_type_symbol
_atom_site_fract_x
_atom_site_fract_y
_atom_site_fract_z
Cd6 Cd -0.0000 0.60789(2) 0.2500
Zn3 Zn 0.04971(3) 0.60366(2) 0.45474(3)
O17 O 0.04625(17) 0.56292(10) 0.0855(2)
Cd1 Cd 0.5000 0.10789(2) 0.2500
O1 O 0.08239(15) 0.54918(9) 0.32388(17)
O2 O 0.56880(17) 0.16858(9) 0.32763(19)
O3 O 0.95375(17) 0.56292(10) 0.4145(2)
O4 O 0.15166(16) 0.58067(10) 0.44053(18)
O5 O 0.89346(17) 0.60613(9) 0.30627(19)
O6 O 0.52999(18) 0.17172(10) 0.4381(2)
N1 N 0.0501(2) 0.59873(12) 0.5697(2)
C1 C 0.1479(2) 0.55644(13) 0.3782(2)
C2 C 0.5479(2) 0.24462(14) 0.3784(3)
C3 C 0.5990(2) 0.42660(14) 0.3624(3)
H1 H 0.6487 0.4117 0.3605
C4 C 0.2988(2) 0.47269(14) 0.3250(3)
H2 H 0.2978 0.4447 0.2942
C5 C 0.5193(2) 0.49801(14) 0.3605(3)
H3 H 0.5141 0.5319 0.3577
C6 C 0.5814(2) 0.26945(15) 0.3278(3)
H4 H 0.6058 0.2523 0.2938
C7 C 0.5488(2) 0.19099(15) 0.3804(3)
C8 C 0.8115(2) 0.55324(14) 0.3590(3)
C9 C 0.0205(3) 0.55905(14) 0.5953(3)
H5 H 0.0118 0.5313 0.5628
C10 C 0.3014(2) 0.55333(15) 0.4183(3)
H6 H 0.3023 0.5803 0.4513
C11 C 0.5800(2) 0.31947(14) 0.3258(3)
H7 H 0.6052 0.3362 0.2922
C12 C 0.4529(2) 0.47026(15) 0.3656(3)
C13 C 0.2257(2) 0.49383(14) 0.3268(3)
H8 H 0.1749 0.4808 0.2958
C14 C 0.5415(2) 0.34493(14) 0.3731(3)
C15 C 0.0119(3) 0.59794(15) 0.7128(3)
C16 C 0.2260(2) 0.53405(13) 0.3737(3)
C17 C 0.7363(3) 0.56838(14) 0.3100(3)
H9 H 0.7341 0.5947 0.2752
C18 C 0.5933(2) 0.47670(14) 0.3597(3)
C19 C 0.6665(2) 0.50480(14) 0.3592(3)
C20 C 0.8140(2) 0.51449(15) 0.4103(3)
H10 H 0.8649 0.5049 0.4462
C21 C 0.8912(2) 0.57624(14) 0.3588(3)
C22 C 0.5134(3) 0.26989(16) 0.4288(3)
H11 H 0.4929 0.2531 0.4659
C23 C 0.0025(3) 0.55663(14) 0.6655(3)
C24 C 0.7432(2) 0.49033(15) 0.4089(3)
H13 H 0.7461 0.4633 0.4423
C25 C 0.6637(3) 0.54540(14) 0.3112(3)
H14 H 0.6123 0.5572 0.2795
C26 C 0.5336(3) 0.39823(14) 0.3677(3)
C27 C 0.3742(2) 0.49245(14) 0.3684(3)
C28 C 0.3746(2) 0.53318(15) 0.4146(3)
H15 H 0.4254 0.5471 0.4436
C29 C 0.5089(3) 0.31969(16) 0.4250(3)
H16 H 0.4833 0.3366 0.4582
C30 C 0.4606(2) 0.42031(15) 0.3686(3)
H17 H 0.4152 0.4012 0.3713
C31 C 0.0627(3) 0.63725(15) 0.6173(3)
H18 H 0.0859 0.6651 0.6013
C32 C 0.0441(3) 0.63866(16) 0.6871(3)
H19 H 0.0529 0.6671 0.7180
H21 H 0.0161 0.5275 0.8178
Cd6_2 Cd 1.0000 0.60789(2) 0.2500
Zn5 Zn 0.54971(3) 0.10366(2) 0.45474(3)
Zn7 Zn 0.45029(3) 0.10366(2) 0.04526(3)
O13 O 0.58239(15) 0.04918(9) 0.32388(17)
O14 O 0.41761(15) 0.04918(9) 0.17612(17)
O15 O 0.43120(17) 0.16858(9) 0.17237(19)
O18 O 0.39346(17) 0.10613(9) 0.30627(19)
O19 O 0.60654(17) 0.10613(9) 0.19373(19)
O20 O 0.02999(18) 0.67172(10) 0.4381(2)
Zn2 Zn 0.95029(3) 0.60366(2) 0.04526(3)
O7 O 0.91761(15) 0.54918(9) 0.17612(17)
O10 O 0.84834(16) 0.58067(10) 0.05947(18)
O11 O 0.10654(17) 0.60613(9) 0.19373(19)
O12 O 0.47001(18) 0.17172(10) 0.0619(2)
C38 C 0.8521(2) 0.55644(13) 0.1218(2)
C39 C 0.4521(2) 0.24462(14) 0.1216(3)
C40 C 0.4010(2) 0.42660(14) 0.1376(3)
H24 H 0.3513 0.4117 0.1395
C41 C 0.7012(2) 0.47269(14) 0.1750(3)
H25 H 0.7022 0.4447 0.2058
C42 C 0.4807(2) 0.49801(14) 0.1395(3)
H26 H 0.4859 0.5319 0.1423
C43 C 0.4186(2) 0.26945(15) 0.1722(3)
H27 H 0.3942 0.2523 0.2062
C44 C 0.4512(2) 0.19099(15) 0.1196(3)
C45 C 0.1885(2) 0.55324(14) 0.1410(3)
C46 C 0.6986(2) 0.55333(15) 0.0817(3)
H28 H 0.6977 0.5803 0.0487
C47 C 0.4200(2) 0.31947(14) 0.1742(3)
H29 H 0.3948 0.3362 0.2078
C48 C 0.5471(2) 0.47026(15) 0.1344(3)
C49 C 0.7743(2) 0.49383(14) 0.1732(3)
H30 H 0.8251 0.4808 0.2042
C50 C 0.4585(2) 0.34493(14) 0.1269(3)
C51 C 0.7740(2) 0.53405(13) 0.1263(3)
C52 C 0.2637(3) 0.56838(14) 0.1900(3)
H31 H 0.2659 0.5947 0.2248
C53 C 0.4067(2) 0.47670(14) 0.1403(3)
C54 C 0.3335(2) 0.50480(14) 0.1408(3)
C55 C 0.1860(2) 0.51449(15) 0.0897(3)
H32 H 0.1351 0.5049 0.0538
C56 C 0.1088(2) 0.57624(14) 0.1412(3)
C57 C 0.4866(3) 0.26989(16) 0.0712(3)
H33 H 0.5071 0.2531 0.0341
C58 C 0.2568(2) 0.49033(15) 0.0911(3)
H34 H 0.2539 0.4633 0.0577
C59 C 0.3363(3) 0.54540(14) 0.1888(3)
H35 H 0.3877 0.5572 0.2205
C60 C 0.4664(3) 0.39823(14) 0.1323(3)
C61 C 0.6258(2) 0.49245(14) 0.1316(3)
C62 C 0.6254(2) 0.53318(15) 0.0854(3)
H36 H 0.5746 0.5471 0.0564
C63 C 0.4911(3) 0.31969(16) 0.0750(3)
H37 H 0.5167 0.3366 0.0418
C64 C 0.5394(2) 0.42031(15) 0.1314(3)
H38 H 0.5848 0.4012 0.1287
O21 O 0.97001(18) 0.67172(10) 0.0619(2)
H12 H 0.9839 0.5275 0.6822
N2 N 0.9499(2) 0.59873(12) 0.9303(2)
C33 C 0.9795(3) 0.55905(14) 0.9047(3)
H20 H 0.9882 0.5313 0.9372
C34 C 0.9881(3) 0.59794(15) 0.7872(3)
C35 C 0.9975(3) 0.55663(14) 0.8345(3)
C36 C 0.9373(3) 0.63725(15) 0.8827(3)
H22 H 0.9141 0.6651 0.8987
C37 C 0.9559(3) 0.63866(16) 0.8129(3)
H23 H 0.9471 0.6671 0.7820
O3_2 O 0.45375(17) 0.06292(10) 0.4145(2)
H3_2 H 0.0141 0.0319 0.3577
C8_2 C 0.3115(2) 0.05324(14) 0.3590(3)
C17_2 C 0.2363(3) 0.06838(14) 0.3100(3)
H9_2 H 0.2341 0.0947 0.2752
C19_2 C 0.1665(2) 0.00480(14) 0.3592(3)
C20_2 C 0.3140(2) 0.01449(15) 0.4103(3)
H10_2 H 0.3649 0.0049 0.4462
C21_2 C 0.3912(2) 0.07624(14) 0.3588(3)
C25_2 C 0.1637(3) 0.04540(14) 0.3112(3)
H14_2 H 0.1123 0.0572 0.2795
O2_2 O 0.06880(17) 0.66858(9) 0.32763(19)
C2_2 C 0.0479(2) 0.74462(14) 0.3784(3)
C3_2 C 0.0990(2) 0.92660(14) 0.3624(3)
H1_2 H 0.1487 0.9117 0.3605
C5_2 C 0.0193(2) 0.99801(14) 0.3605(3)
C6_2 C 0.0814(2) 0.76945(15) 0.3278(3)
H4_2 H 0.1058 0.7523 0.2938
C7_2 C 0.0488(2) 0.69099(15) 0.3804(3)
C11_2 C 0.0800(2) 0.81947(14) 0.3258(3)
H7_2 H 0.1052 0.8362 0.2922
C14_2 C 0.0415(2) 0.84493(14) 0.3731(3)
C18_2 C 0.0933(2) 0.97670(14) 0.3597(3)
C22_2 C 0.0134(3) 0.76989(16) 0.4288(3)
C24_2 C 0.2432(2) 0.99033(15) 0.4089(3)
H13_2 H 0.2461 0.9633 0.4423
C26_2 C 0.0336(3) 0.89823(14) 0.3677(3)
C29_2 C 0.0089(3) 0.81969(16) 0.4250(3)
O10_2 O 0.34834(16) 0.08067(10) 0.05947(18)
C38_2 C 0.3521(2) 0.05644(13) 0.1218(2)
C46_2 C 0.1986(2) 0.05333(15) 0.0817(3)
H28_2 H 0.1977 0.0803 0.0487
C51_2 C 0.2740(2) 0.03405(13) 0.1263(3)
C62_2 C 0.1254(2) 0.03318(15) 0.0854(3)
H36_2 H 0.0746 0.0471 0.0564
O17_2 O 0.54625(17) 0.06292(10) 0.0855(2)
O4_2 O 0.65166(16) 0.08067(10) 0.44053(18)
N1_2 N 0.5501(2) 0.09873(12) 0.5697(2)
C1_2 C 0.6479(2) 0.05644(13) 0.3782(2)
C9_2 C 0.5205(3) 0.05905(14) 0.5953(3)
H5_2 H 0.5118 0.0313 0.5628
C10_2 C 0.8014(2) 0.05333(15) 0.4183(3)
H6_2 H 0.8023 0.0803 0.4513
C15_2 C 0.5119(3) 0.09794(15) 0.7128(3)
C16_2 C 0.7260(2) 0.03405(13) 0.3737(3)
C23_2 C 0.5025(3) 0.05663(14) 0.6655(3)
H12_2 H 0.4839 0.0275 0.6822
C28_2 C 0.8746(2) 0.03318(15) 0.4146(3)
H15_2 H 0.9254 0.0471 0.4436
C31_2 C 0.5627(3) 0.13725(15) 0.6173(3)
H18_2 H 0.5859 0.1651 0.6013
C32_2 C 0.5441(3) 0.13866(16) 0.6871(3)
H19_2 H 0.5529 0.1671 0.7180
N2_2 N 0.4499(2) 0.09873(12) 0.9303(2)
C33_2 C 0.4795(3) 0.05905(14) 0.9047(3)
H20_2 H 0.4882 0.0313 0.9372
C34_2 C 0.4881(3) 0.09794(15) 0.7872(3)
C35_2 C 0.4975(3) 0.05663(14) 0.8345(3)
H21_2 H 0.5161 0.0275 0.8178
C36_2 C 0.4373(3) 0.13725(15) 0.8827(3)
H22_2 H 0.4141 0.1651 0.8987
C37_2 C 0.4559(3) 0.13866(16) 0.8129(3)
H23_2 H 0.4471 0.1671 0.7820
C41_2 C 0.2012(2) 0.97269(14) 0.1750(3)
H25_2 H 0.2022 0.9447 0.2058
C48_2 C 0.0471(2) 0.97026(15) 0.1344(3)
C49_2 C 0.2743(2) 0.99383(14) 0.1732(3)
H30_2 H 0.3251 0.9808 0.2042
H33_2 H 0.0071 0.7531 0.0341
C61_2 C 0.1258(2) 0.99245(14) 0.1316(3)
H37_2 H 0.0167 0.8366 0.0418
C64_2 C 0.0394(2) 0.92031(15) 0.1314(3)
H38_2 H 0.0848 0.9012 0.1287
C4_2 C 0.7988(2) 0.97269(14) 0.3250(3)
H2_2 H 0.7978 0.9447 0.2942
C12_2 C 0.9529(2) 0.97026(15) 0.3656(3)
C13_2 C 0.7257(2) 0.99383(14) 0.3268(3)
H8_2 H 0.6749 0.9808 0.2958
H11_2 H 0.9929 0.7531 0.4659
C27_2 C 0.8742(2) 0.99245(14) 0.3684(3)
H16_2 H 0.9833 0.8366 0.4582
C30_2 C 0.9606(2) 0.92031(15) 0.3686(3)
H17_2 H 0.9152 0.9012 0.3713
O15_2 O 0.93120(17) 0.66858(9) 0.17237(19)
H26_2 H 0.9859 0.0319 0.1423
C45_2 C 0.6885(2) 0.05324(14) 0.1410(3)
C52_2 C 0.7637(3) 0.06838(14) 0.1900(3)
H31_2 H 0.7659 0.0947 0.2248
C54_2 C 0.8335(2) 0.00480(14) 0.1408(3)
C55_2 C 0.6860(2) 0.01449(15) 0.0897(3)
H32_2 H 0.6351 0.0049 0.0538
C56_2 C 0.6088(2) 0.07624(14) 0.1412(3)
C59_2 C 0.8363(3) 0.04540(14) 0.1888(3)
H35_2 H 0.8877 0.0572 0.2205
C39_2 C 0.9521(2) 0.74462(14) 0.1216(3)
C40_2 C 0.9010(2) 0.92660(14) 0.1376(3)
H24_2 H 0.8513 0.9117 0.1395
C42_2 C 0.9807(2) 0.99801(14) 0.1395(3)
C43_2 C 0.9186(2) 0.76945(15) 0.1722(3)
H27_2 H 0.8942 0.7523 0.2062
C44_2 C 0.9512(2) 0.69099(15) 0.1196(3)
C47_2 C 0.9200(2) 0.81947(14) 0.1742(3)
H29_2 H 0.8948 0.8362 0.2078
C50_2 C 0.9585(2) 0.84493(14) 0.1269(3)
C53_2 C 0.9067(2) 0.97670(14) 0.1403(3)
C57_2 C 0.9866(3) 0.76989(16) 0.0712(3)
C58_2 C 0.7568(2) 0.99033(15) 0.0911(3)
H34_2 H 0.7539 0.9633 0.0577
C60_2 C 0.9664(3) 0.89823(14) 0.1323(3)
C63_2 C 0.9911(3) 0.81969(16) 0.0750(3)
Cd3 Cd 0.0000 0.39211(2) 0.7500
Zn4 Zn 0.04971(3) 0.39634(2) 0.95474(3)
H12_3 H 0.0161 0.4725 0.3178
N2_3 N 0.0501(2) 0.40127(12) 0.0697(2)
C33_3 C 0.0205(3) 0.44095(14) 0.0953(3)
H20_3 H 0.0118 0.4687 0.0628
C34_3 C 0.0119(3) 0.40206(15) 0.2128(3)
C35_3 C 0.0025(3) 0.44337(14) 0.1655(3)
C36_3 C 0.0627(3) 0.36275(15) 0.1173(3)
H22_3 H 0.0859 0.3349 0.1013
C37_3 C 0.0441(3) 0.36134(16) 0.1871(3)
H23_3 H 0.0529 0.3329 0.2180
O16 O 0.04625(17) 0.43708(10) 0.5855(2)
O7_2 O 0.08239(15) 0.45082(9) 0.82388(17)
O8 O 0.56880(17) 0.83142(9) 0.82763(19)
O9 O 0.95375(17) 0.43708(10) 0.9145(2)
O10_3 O 0.15166(16) 0.41933(10) 0.94053(18)
O11_2 O 0.89346(17) 0.39387(9) 0.80627(19)
O12_2 O 0.52999(18) 0.82828(10) 0.9381(2)
C38_3 C 0.1479(2) 0.44356(13) 0.8782(2)
C39_3 C 0.5479(2) 0.75538(14) 0.8784(3)
C40_3 C 0.5990(2) 0.57340(14) 0.8624(3)
H24_3 H 0.6487 0.5883 0.8605
C41_3 C 0.2988(2) 0.52731(14) 0.8250(3)
H25_3 H 0.2978 0.5553 0.7942
C42_3 C 0.5193(2) 0.50199(14) 0.8605(3)
H26_3 H 0.5141 0.4681 0.8577
C43_3 C 0.5814(2) 0.73055(15) 0.8278(3)
H27_3 H 0.6058 0.7477 0.7938
C44_3 C 0.5488(2) 0.80901(15) 0.8804(3)
C45_3 C 0.8115(2) 0.44676(14) 0.8590(3)
C46_3 C 0.3014(2) 0.44667(15) 0.9183(3)
H28_3 H 0.3023 0.4197 0.9513
C47_3 C 0.5800(2) 0.68053(14) 0.8258(3)
H29_3 H 0.6052 0.6638 0.7922
C48_3 C 0.4529(2) 0.52974(15) 0.8656(3)
C49_3 C 0.2257(2) 0.50617(14) 0.8268(3)
H30_3 H 0.1749 0.5192 0.7958
C50_3 C 0.5415(2) 0.65507(14) 0.8731(3)
C51_3 C 0.2260(2) 0.46595(13) 0.8737(3)
C52_3 C 0.7363(3) 0.43162(14) 0.8100(3)
H31_3 H 0.7341 0.4053 0.7752
C53_3 C 0.5933(2) 0.52330(14) 0.8597(3)
C54_3 C 0.6665(2) 0.49520(14) 0.8592(3)
C55_3 C 0.8140(2) 0.48551(15) 0.9103(3)
H32_3 H 0.8649 0.4951 0.9462
C56_3 C 0.8912(2) 0.42376(14) 0.8588(3)
C57_3 C 0.5134(3) 0.73011(16) 0.9288(3)
H33_3 H 0.4929 0.7469 0.9659
C58_3 C 0.7432(2) 0.50967(15) 0.9089(3)
H34_3 H 0.7461 0.5367 0.9423
C59_3 C 0.6637(3) 0.45460(14) 0.8112(3)
H35_3 H 0.6123 0.4428 0.7795
C60_3 C 0.5336(3) 0.60177(14) 0.8677(3)
C61_3 C 0.3742(2) 0.50755(14) 0.8684(3)
C62_3 C 0.3746(2) 0.46682(15) 0.9146(3)
H36_3 H 0.4254 0.4529 0.9436
C63_3 C 0.5089(3) 0.68031(16) 0.9250(3)
H37_3 H 0.4833 0.6634 0.9582
C64_3 C 0.4606(2) 0.57969(15) 0.8686(3)
H38_3 H 0.4152 0.5988 0.8713
Cd2 Cd 0.5000 0.89211(2) 0.7500
Cd3_2 Cd 1.0000 0.39211(2) 0.7500
Zn6 Zn 0.54971(3) 0.89634(2) 0.95474(3)
O21_2 O 0.02999(18) 0.32828(10) 0.9381(2)
Zn1 Zn 0.95029(3) 0.39634(2) 0.54526(3)
O1_2 O 0.91761(15) 0.45082(9) 0.67612(17)
O2_3 O 0.43120(17) 0.83142(9) 0.67237(19)
O4_3 O 0.84834(16) 0.41933(10) 0.55947(18)
O5_2 O 0.10654(17) 0.39387(9) 0.69373(19)
O6_2 O 0.47001(18) 0.82828(10) 0.5619(2)
N1_3 N 0.9499(2) 0.40127(12) 0.4303(2)
C1_3 C 0.8521(2) 0.44356(13) 0.6218(2)
C2_3 C 0.4521(2) 0.75538(14) 0.6216(3)
C3_3 C 0.4010(2) 0.57340(14) 0.6376(3)
H1_3 H 0.3513 0.5883 0.6395
C4_3 C 0.7012(2) 0.52731(14) 0.6750(3)
H2_3 H 0.7022 0.5553 0.7058
C5_3 C 0.4807(2) 0.50199(14) 0.6395(3)
H3_3 H 0.4859 0.4681 0.6423
C6_3 C 0.4186(2) 0.73055(15) 0.6722(3)
H4_3 H 0.3942 0.7477 0.7062
C7_3 C 0.4512(2) 0.80901(15) 0.6196(3)
C8_3 C 0.1885(2) 0.44676(14) 0.6410(3)
C9_3 C 0.9795(3) 0.44095(14) 0.4047(3)
H5_3 H 0.9882 0.4687 0.4372
C10_3 C 0.6986(2) 0.44667(15) 0.5817(3)
H6_3 H 0.6977 0.4197 0.5487
C11_3 C 0.4200(2) 0.68053(14) 0.6742(3)
H7_3 H 0.3948 0.6638 0.7078
C12_3 C 0.5471(2) 0.52974(15) 0.6344(3)
C13_3 C 0.7743(2) 0.50617(14) 0.6732(3)
H8_3 H 0.8251 0.5192 0.7042
C14_3 C 0.4585(2) 0.65507(14) 0.6269(3)
C15_3 C 0.9881(3) 0.40206(15) 0.2872(3)
C16_3 C 0.7740(2) 0.46595(13) 0.6263(3)
C17_3 C 0.2637(3) 0.43162(14) 0.6900(3)
H9_3 H 0.2659 0.4053 0.7248
C18_3 C 0.4067(2) 0.52330(14) 0.6403(3)
C19_3 C 0.3335(2) 0.49520(14) 0.6408(3)
C20_3 C 0.1860(2) 0.48551(15) 0.5897(3)
H10_3 H 0.1351 0.4951 0.5538
C21_3 C 0.1088(2) 0.42376(14) 0.6412(3)
C22_3 C 0.4866(3) 0.73011(16) 0.5712(3)
H11_3 H 0.5071 0.7469 0.5341
C23_3 C 0.9975(3) 0.44337(14) 0.3345(3)
C24_3 C 0.2568(2) 0.50967(15) 0.5911(3)
H13_3 H 0.2539 0.5367 0.5577
C25_3 C 0.3363(3) 0.45460(14) 0.6888(3)
H14_3 H 0.3877 0.4428 0.7205
C26_3 C 0.4664(3) 0.60177(14) 0.6323(3)
C27_3 C 0.6258(2) 0.50755(14) 0.6316(3)
C28_3 C 0.6254(2) 0.46682(15) 0.5854(3)
H15_3 H 0.5746 0.4529 0.5564
C29_3 C 0.4911(3) 0.68031(16) 0.5750(3)
H16_3 H 0.5167 0.6634 0.5418
C30_3 C 0.5394(2) 0.57969(15) 0.6314(3)
H17_3 H 0.5848 0.5988 0.6287
C31_3 C 0.9373(3) 0.36275(15) 0.3827(3)
H18_3 H 0.9141 0.3349 0.3987
C32_3 C 0.9559(3) 0.36134(16) 0.3129(3)
H19_3 H 0.9471 0.3329 0.2820
H21_3 H 0.9839 0.4725 0.1822
Zn5_2 Zn 0.45029(3) 0.89634(2) 0.54526(3)
O13_2 O 0.41761(15) 0.95082(9) 0.67612(17)
O14_2 O 0.58239(15) 0.95082(9) 0.82388(17)
O18_2 O 0.60654(17) 0.89387(9) 0.69373(19)
O19_2 O 0.39346(17) 0.89387(9) 0.80627(19)
O20_2 O 0.97001(18) 0.32828(10) 0.5619(2)
O8_2 O 0.06880(17) 0.33142(9) 0.82763(19)
C39_4 C 0.0479(2) 0.25538(14) 0.8784(3)
C40_4 C 0.0990(2) 0.07340(14) 0.8624(3)
H24_4 H 0.1487 0.0883 0.8605
C42_4 C 0.0193(2) 0.00199(14) 0.8605(3)
C43_4 C 0.0814(2) 0.23055(15) 0.8278(3)
H27_4 H 0.1058 0.2477 0.7938
C44_4 C 0.0488(2) 0.30901(15) 0.8804(3)
C47_4 C 0.0800(2) 0.18053(14) 0.8258(3)
H29_4 H 0.1052 0.1638 0.7922
C50_4 C 0.0415(2) 0.15507(14) 0.8731(3)
C53_4 C 0.0933(2) 0.02330(14) 0.8597(3)
C57_4 C 0.0134(3) 0.23011(16) 0.9288(3)
C58_4 C 0.2432(2) 0.00967(15) 0.9089(3)
H34_4 H 0.2461 0.0367 0.9423
C60_4 C 0.0336(3) 0.10177(14) 0.8677(3)
C63_4 C 0.0089(3) 0.18031(16) 0.9250(3)
O9_2 O 0.45375(17) 0.93708(10) 0.9145(2)
H26_4 H 0.0141 0.9681 0.8577
C45_4 C 0.3115(2) 0.94676(14) 0.8590(3)
C52_4 C 0.2363(3) 0.93162(14) 0.8100(3)
H31_4 H 0.2341 0.9053 0.7752
C54_4 C 0.1665(2) 0.99520(14) 0.8592(3)
C55_4 C 0.3140(2) 0.98551(15) 0.9103(3)
H32_4 H 0.3649 0.9951 0.9462
C56_4 C 0.3912(2) 0.92376(14) 0.8588(3)
C59_4 C 0.1637(3) 0.95460(14) 0.8112(3)
H35_4 H 0.1123 0.9428 0.7795
C4_4 C 0.2012(2) 0.02731(14) 0.6750(3)
H2_4 H 0.2022 0.0553 0.7058
C12_4 C 0.0471(2) 0.02974(15) 0.6344(3)
C13_4 C 0.2743(2) 0.00617(14) 0.6732(3)
H8_4 H 0.3251 0.0192 0.7042
H11_4 H 0.0071 0.2469 0.5341
C27_4 C 0.1258(2) 0.00755(14) 0.6316(3)
H16_4 H 0.0167 0.1634 0.5418
C30_4 C 0.0394(2) 0.07969(15) 0.6314(3)
H17_4 H 0.0848 0.0988 0.6287
C41_4 C 0.7988(2) 0.02731(14) 0.8250(3)
H25_4 H 0.7978 0.0553 0.7942
C48_4 C 0.9529(2) 0.02974(15) 0.8656(3)
C49_4 C 0.7257(2) 0.00617(14) 0.8268(3)
H30_4 H 0.6749 0.0192 0.7958
H33_4 H 0.9929 0.2469 0.9659
C61_4 C 0.8742(2) 0.00755(14) 0.8684(3)
H37_4 H 0.9833 0.1634 0.9582
C64_4 C 0.9606(2) 0.07969(15) 0.8686(3)
H38_4 H 0.9152 0.0988 0.8713
O4_4 O 0.34834(16) 0.91933(10) 0.55947(18)
N1_4 N 0.4499(2) 0.90127(12) 0.4303(2)
C1_4 C 0.3521(2) 0.94356(13) 0.6218(2)
C9_4 C 0.4795(3) 0.94095(14) 0.4047(3)
H5_4 H 0.4882 0.9687 0.4372
C10_4 C 0.1986(2) 0.94667(15) 0.5817(3)
H6_4 H 0.1977 0.9197 0.5487
C15_4 C 0.4881(3) 0.90206(15) 0.2872(3)
C16_4 C 0.2740(2) 0.96595(13) 0.6263(3)
C23_4 C 0.4975(3) 0.94337(14) 0.3345(3)
H12_4 H 0.5161 0.9725 0.3178
C28_4 C 0.1254(2) 0.96682(15) 0.5854(3)
H15_4 H 0.0746 0.9529 0.5564
C31_4 C 0.4373(3) 0.86275(15) 0.3827(3)
H18_4 H 0.4141 0.8349 0.3987
C32_4 C 0.4559(3) 0.86134(16) 0.3129(3)
H19_4 H 0.4471 0.8329 0.2820
N2_4 N 0.5501(2) 0.90127(12) 0.0697(2)
C33_4 C 0.5205(3) 0.94095(14) 0.0953(3)
H20_4 H 0.5118 0.9687 0.0628
C34_4 C 0.5119(3) 0.90206(15) 0.2128(3)
C35_4 C 0.5025(3) 0.94337(14) 0.1655(3)
H21_4 H 0.4839 0.9725 0.1822
C36_4 C 0.5627(3) 0.86275(15) 0.1173(3)
H22_4 H 0.5859 0.8349 0.1013
C37_4 C 0.5441(3) 0.86134(16) 0.1871(3)
H23_4 H 0.5529 0.8329 0.2180
O16_2 O 0.54625(17) 0.93708(10) 0.5855(2)
O10_4 O 0.65166(16) 0.91933(10) 0.94053(18)
C38_4 C 0.6479(2) 0.94356(13) 0.8782(2)
C46_4 C 0.8014(2) 0.94667(15) 0.9183(3)
H28_4 H 0.8023 0.9197 0.9513
C51_4 C 0.7260(2) 0.96595(13) 0.8737(3)
C62_4 C 0.8746(2) 0.96682(15) 0.9146(3)
H36_4 H 0.9254 0.9529 0.9436
O2_4 O 0.93120(17) 0.33142(9) 0.67237(19)
C2_4 C 0.9521(2) 0.25538(14) 0.6216(3)
C3_4 C 0.9010(2) 0.07340(14) 0.6376(3)
H1_4 H 0.8513 0.0883 0.6395
C5_4 C 0.9807(2) 0.00199(14) 0.6395(3)
C6_4 C 0.9186(2) 0.23055(15) 0.6722(3)
H4_4 H 0.8942 0.2477 0.7062
C7_4 C 0.9512(2) 0.30901(15) 0.6196(3)
C11_4 C 0.9200(2) 0.18053(14) 0.6742(3)
H7_4 H 0.8948 0.1638 0.7078
C14_4 C 0.9585(2) 0.15507(14) 0.6269(3)
C18_4 C 0.9067(2) 0.02330(14) 0.6403(3)
C22_4 C 0.9866(3) 0.23011(16) 0.5712(3)
C24_4 C 0.7568(2) 0.00967(15) 0.5911(3)
H13_4 H 0.7539 0.0367 0.5577
C26_4 C 0.9664(3) 0.10177(14) 0.6323(3)
C29_4 C 0.9911(3) 0.18031(16) 0.5750(3)
H3_4 H 0.9859 0.9681 0.6423
C8_4 C 0.6885(2) 0.94676(14) 0.6410(3)
C17_4 C 0.7637(3) 0.93162(14) 0.6900(3)
H9_4 H 0.7659 0.9053 0.7248
C19_4 C 0.8335(2) 0.99520(14) 0.6408(3)
C20_4 C 0.6860(2) 0.98551(15) 0.5897(3)
H10_4 H 0.6351 0.9951 0.5538
C21_4 C 0.6088(2) 0.92376(14) 0.6412(3)
C25_4 C 0.8363(3) 0.95460(14) 0.6888(3)
H14_4 H 0.8877 0.9428 0.7205
loop_
_geom_bond_atom_site_label_1
_geom_bond_atom_site_label_2
_geom_bond_site_symmetry_1
_geom_bond_site_symmetry_2
Cd6 Zn3 1_555 1_555
Cd1 O2 1_555 1_555
Zn3 O4 1_555 1_555
O1 C1 1_555 1_555
O2 C7 1_555 1_555
O3 C21 1_555 1_555
O4 C1 1_555 1_555
O5 C21 1_555 1_555
O6 C7 1_555 1_555
N1 Zn3 1_555 1_555
C1 C16 1_555 1_555
C2 C6 1_555 1_555
C3 H1 1_555 1_555
C4 H2 1_555 1_555
C5 H3 1_555 1_555
C6 H4 1_555 1_555
C7 C2 1_555 1_555
C8 C17 1_555 1_555
C9 N1 1_555 1_555
H5 C9 1_555 1_555
C10 H6 1_555 1_555
C11 C6 1_555 1_555
H7 C11 1_555 1_555
C12 C5 1_555 1_555
C13 C4 1_555 1_555
H8 C13 1_555 1_555
C14 C11 1_555 1_555
C15 C23 1_555 1_555
C16 C10 1_555 1_555
C17 H9 1_555 1_555
C18 C3 1_555 1_555
C19 C18 1_555 1_555
C20 C8 1_555 1_555
H10 C20 1_555 1_555
C21 C8 1_555 1_555
C22 C2 1_555 1_555
H11 C22 1_555 1_555
C23 C9 1_555 1_555
C24 C19 1_555 1_555
H13 C24 1_555 1_555
C25 C17 1_555 1_555
H14 C25 1_555 1_555
C26 C3 1_555 1_555
C27 C4 1_555 1_555
C28 C10 1_555 1_555
H15 C28 1_555 1_555
C29 C14 1_555 1_555
H16 C29 1_555 1_555
C30 C12 1_555 1_555
H17 C30 1_555 1_555
C31 N1 1_555 1_555
H18 C31 1_555 1_555
C32 C15 1_555 1_555
H19 C32 1_555 1_555
Cd6_2 O5 1_555 1_555
Zn5 Cd1 1_555 1_555
Zn7 Cd1 1_555 1_555
O13 Cd1 1_555 1_555
O14 Cd1 1_555 1_555
O15 Cd1 1_555 1_555
O18 Cd1 1_555 1_555
O19 Cd1 1_555 1_555
O20 Zn3 1_555 1_555
O1 Cd6 1_555 1_555
O6 Zn5 1_555 1_555
C5 C18 1_555 1_555
C12 C27 1_555 1_555
C13 C16 1_555 1_555
C14 C26 1_555 1_555
C19 C25 1_555 1_555
C20 C24 1_555 1_555
C22 C29 1_555 1_555
C26 C30 1_555 1_555
C27 C28 1_555 1_555
C31 C32 1_555 1_555
O7 C38 1_555 1_555
O15 C44 1_555 1_555
O17 C56 1_555 1_555
O10 Zn2 1_555 1_555
O11 C56 1_555 1_555
O12 C44 1_555 1_555
C38 O10 1_555 1_555
C39 C43 1_555 1_555
C40 H24 1_555 1_555
C41 H25 1_555 1_555
C42 H26 1_555 1_555
C43 H27 1_555 1_555
C44 C39 1_555 1_555
C45 C52 1_555 1_555
C46 H28 1_555 1_555
C47 C43 1_555 1_555
H29 C47 1_555 1_555
C48 C42 1_555 1_555
C49 C41 1_555 1_555
H30 C49 1_555 1_555
C50 C47 1_555 1_555
C51 C38 1_555 1_555
C52 H31 1_555 1_555
C53 C40 1_555 1_555
C54 C53 1_555 1_555
C55 C45 1_555 1_555
H32 C55 1_555 1_555
C56 C45 1_555 1_555
C57 C39 1_555 1_555
H33 C57 1_555 1_555
C58 C54 1_555 1_555
H34 C58 1_555 1_555
C59 C52 1_555 1_555
H35 C59 1_555 1_555
C60 C40 1_555 1_555
C61 C41 1_555 1_555
C62 C46 1_555 1_555
H36 C62 1_555 1_555
C63 C50 1_555 1_555
H37 C63 1_555 1_555
C64 C48 1_555 1_555
H38 C64 1_555 1_555
Cd6 O11 1_555 1_555
Cd6_2 Zn2 1_555 1_555
Zn7 O12 1_555 1_555
O21 Zn2 1_555 1_555
O7 Cd6_2 1_555 1_555
C42 C53 1_555 1_555
C46 C51 1_555 1_555
C48 C61 1_555 1_555
C49 C51 1_555 1_555
C50 C60 1_555 1_555
C54 C59 1_555 1_555
C55 C58 1_555 1_555
C57 C63 1_555 1_555
C60 C64 1_555 1_555
C61 C62 1_555 1_555
N2 C33 1_555 1_555
C33 H20 1_555 1_555
C35 C33 1_555 1_555
C36 N2 1_555 1_555
H22 C36 1_555 1_555
C37 C34 1_555 1_555
H23 C37 1_555 1_555
C34 C35 1_555 1_555
C36 C37 1_555 1_555
O3_2 C21_2 1_555 1_555
O18 C21_2 1_555 1_555
C8_2 C17_2 1_555 1_555
C17_2 H9_2 1_555 1_555
C20_2 C8_2 1_555 1_555
H10_2 C20_2 1_555 1_555
C21_2 C8_2 1_555 1_555
C25_2 C17_2 1_555 1_555
H14_2 C25_2 1_555 1_555
Zn5 O3_2 1_555 1_555
C19_2 C25_2 1_555 1_555
Cd6 O2_2 1_555 1_555
O2_2 C7_2 1_555 1_555
O20 C7_2 1_555 1_555
C2_2 C6_2 1_555 1_555
C3_2 H1_2 1_555 1_555
C6_2 H4_2 1_555 1_555
C7_2 C2_2 1_555 1_555
C11_2 C6_2 1_555 1_555
H7_2 C11_2 1_555 1_555
C14_2 C11_2 1_555 1_555
C18_2 C3_2 1_555 1_555
C22_2 C2_2 1_555 1_555
H13_2 C24_2 1_555 1_555
C26_2 C3_2 1_555 1_555
C29_2 C14_2 1_555 1_555
C5_2 C18_2 1_555 1_555
C14_2 C26_2 1_555 1_555
C22_2 C29_2 1_555 1_555
O14 C38_2 1_555 1_555
O10_2 Zn7 1_555 1_555
C38_2 O10_2 1_555 1_555
C46_2 H28_2 1_555 1_555
C51_2 C38_2 1_555 1_555
C62_2 C46_2 1_555 1_555
H36_2 C62_2 1_555 1_555
O17_2 Zn7 1_555 1_555
C46_2 C51_2 1_555 1_555
Zn5 O4_2 1_555 1_555
O13 C1_2 1_555 1_555
O4_2 C1_2 1_555 1_555
N1_2 Zn5 1_555 1_555
C1_2 C16_2 1_555 1_555
C9_2 N1_2 1_555 1_555
H5_2 C9_2 1_555 1_555
C10_2 H6_2 1_555 1_555
C15_2 C23_2 1_555 1_555
C16_2 C10_2 1_555 1_555
C23_2 C9_2 1_555 1_555
H12_2 C23_2 1_555 1_555
C28_2 C10_2 1_555 1_555
H15_2 C28_2 1_555 1_555
C31_2 N1_2 1_555 1_555
H18_2 C31_2 1_555 1_555
C32_2 C15_2 1_555 1_555
H19_2 C32_2 1_555 1_555
N2_2 C33_2 1_555 1_555
C33_2 H20_2 1_555 1_555
C34_2 C15_2 1_555 1_555
C35_2 C33_2 1_555 1_555
H21_2 C35_2 1_555 1_555
C36_2 N2_2 1_555 1_555
H22_2 C36_2 1_555 1_555
C37_2 C34_2 1_555 1_555
H23_2 C37_2 1_555 1_555
C31_2 C32_2 1_555 1_555
C34_2 C35_2 1_555 1_555
C36_2 C37_2 1_555 1_555
C41_2 H25_2 1_555 1_555
C49_2 C41_2 1_555 1_555
H30_2 C49_2 1_555 1_555
C61_2 C41_2 1_555 1_555
C64_2 C48_2 1_555 1_555
H38_2 C64_2 1_555 1_555
C48_2 C61_2 1_555 1_555
C4_2 H2_2 1_555 1_555
C13_2 C4_2 1_555 1_555
H8_2 C13_2 1_555 1_555
C27_2 C4_2 1_555 1_555
C30_2 C12_2 1_555 1_555
H17_2 C30_2 1_555 1_555
O15_2 Cd6_2 1_555 1_555
C12_2 C27_2 1_555 1_555
O17_2 C56_2 1_555 1_555
O19 C56_2 1_555 1_555
C45_2 C52_2 1_555 1_555
C52_2 H31_2 1_555 1_555
C55_2 C45_2 1_555 1_555
H32_2 C55_2 1_555 1_555
C56_2 C45_2 1_555 1_555
C59_2 C52_2 1_555 1_555
H35_2 C59_2 1_555 1_555
C54_2 C59_2 1_555 1_555
O15_2 C44_2 1_555 1_555
O21 C44_2 1_555 1_555
C39_2 C43_2 1_555 1_555
C40_2 H24_2 1_555 1_555
C43_2 H27_2 1_555 1_555
C44_2 C39_2 1_555 1_555
C47_2 C43_2 1_555 1_555
H29_2 C47_2 1_555 1_555
C50_2 C47_2 1_555 1_555
C53_2 C40_2 1_555 1_555
C57_2 C39_2 1_555 1_555
H34_2 C58_2 1_555 1_555
C60_2 C40_2 1_555 1_555
C63_2 C50_2 1_555 1_555
C42_2 C53_2 1_555 1_555
C50_2 C60_2 1_555 1_555
C57_2 C63_2 1_555 1_555
Cd3 Zn4 1_555 1_555
N2_3 C33_3 1_555 1_555
C33_3 H20_3 1_555 1_555
C35_3 C33_3 1_555 1_555
C36_3 N2_3 1_555 1_555
H22_3 C36_3 1_555 1_555
C37_3 C34_3 1_555 1_555
H23_3 C37_3 1_555 1_555
C34_3 C35_3 1_555 1_555
C36_3 C37_3 1_555 1_555
O7_2 C38_3 1_555 1_555
O8 C44_3 1_555 1_555
O9 C56_3 1_555 1_555
O10_3 Zn4 1_555 1_555
O11_2 C56_3 1_555 1_555
O12_2 C44_3 1_555 1_555
C38_3 O10_3 1_555 1_555
C39_3 C43_3 1_555 1_555
C40_3 H24_3 1_555 1_555
C41_3 H25_3 1_555 1_555
C42_3 H26_3 1_555 1_555
C43_3 H27_3 1_555 1_555
C44_3 C39_3 1_555 1_555
C45_3 C52_3 1_555 1_555
C46_3 H28_3 1_555 1_555
C47_3 C43_3 1_555 1_555
H29_3 C47_3 1_555 1_555
C48_3 C42_3 1_555 1_555
C49_3 C41_3 1_555 1_555
H30_3 C49_3 1_555 1_555
C50_3 C47_3 1_555 1_555
C51_3 C38_3 1_555 1_555
C52_3 H31_3 1_555 1_555
C53_3 C40_3 1_555 1_555
C54_3 C53_3 1_555 1_555
C55_3 C45_3 1_555 1_555
H32_3 C55_3 1_555 1_555
C56_3 C45_3 1_555 1_555
C57_3 C39_3 1_555 1_555
H33_3 C57_3 1_555 1_555
C58_3 C54_3 1_555 1_555
H34_3 C58_3 1_555 1_555
C59_3 C52_3 1_555 1_555
H35_3 C59_3 1_555 1_555
C60_3 C40_3 1_555 1_555
C61_3 C41_3 1_555 1_555
C62_3 C46_3 1_555 1_555
H36_3 C62_3 1_555 1_555
C63_3 C50_3 1_555 1_555
H37_3 C63_3 1_555 1_555
C64_3 C48_3 1_555 1_555
H38_3 C64_3 1_555 1_555
Cd2 O8 1_555 1_555
Cd3_2 O11_2 1_555 1_555
Zn6 O12_2 1_555 1_555
O21_2 Zn4 1_555 1_555
O7_2 Cd3 1_555 1_555
C42_3 C53_3 1_555 1_555
C46_3 C51_3 1_555 1_555
C48_3 C61_3 1_555 1_555
C49_3 C51_3 1_555 1_555
C50_3 C60_3 1_555 1_555
C54_3 C59_3 1_555 1_555
C55_3 C58_3 1_555 1_555
C57_3 C63_3 1_555 1_555
C60_3 C64_3 1_555 1_555
C61_3 C62_3 1_555 1_555
Cd2 Zn6 1_555 1_555
Cd2 O2_3 1_555 1_555
Zn1 O4_3 1_555 1_555
O1_2 C1_3 1_555 1_555
O2_3 C7_3 1_555 1_555
O16 C21_3 1_555 1_555
O4_3 C1_3 1_555 1_555
O5_2 C21_3 1_555 1_555
O6_2 C7_3 1_555 1_555
N1_3 Zn1 1_555 1_555
C1_3 C16_3 1_555 1_555
C2_3 C6_3 1_555 1_555
C3_3 H1_3 1_555 1_555
C4_3 H2_3 1_555 1_555
C5_3 H3_3 1_555 1_555
C6_3 H4_3 1_555 1_555
C7_3 C2_3 1_555 1_555
C8_3 C17_3 1_555 1_555
C9_3 N1_3 1_555 1_555
H5_3 C9_3 1_555 1_555
C10_3 H6_3 1_555 1_555
C11_3 C6_3 1_555 1_555
H7_3 C11_3 1_555 1_555
C12_3 C5_3 1_555 1_555
C13_3 C4_3 1_555 1_555
H8_3 C13_3 1_555 1_555
C14_3 C11_3 1_555 1_555
C15_3 C23_3 1_555 1_555
C16_3 C10_3 1_555 1_555
C17_3 H9_3 1_555 1_555
C18_3 C3_3 1_555 1_555
C19_3 C18_3 1_555 1_555
C20_3 C8_3 1_555 1_555
H10_3 C20_3 1_555 1_555
C21_3 C8_3 1_555 1_555
C22_3 C2_3 1_555 1_555
H11_3 C22_3 1_555 1_555
C23_3 C9_3 1_555 1_555
C24_3 C19_3 1_555 1_555
H13_3 C24_3 1_555 1_555
C25_3 C17_3 1_555 1_555
H14_3 C25_3 1_555 1_555
C26_3 C3_3 1_555 1_555
C27_3 C4_3 1_555 1_555
C28_3 C10_3 1_555 1_555
H15_3 C28_3 1_555 1_555
C29_3 C14_3 1_555 1_555
H16_3 C29_3 1_555 1_555
C30_3 C12_3 1_555 1_555
H17_3 C30_3 1_555 1_555
C31_3 N1_3 1_555 1_555
H18_3 C31_3 1_555 1_555
C32_3 C15_3 1_555 1_555
H19_3 C32_3 1_555 1_555
Cd3_2 Zn1 1_555 1_555
Cd3 O5_2 1_555 1_555
Zn5_2 Cd2 1_555 1_555
O13_2 Cd2 1_555 1_555
O14_2 Cd2 1_555 1_555
O18_2 Cd2 1_555 1_555
O19_2 Cd2 1_555 1_555
O20_2 Zn1 1_555 1_555
O1_2 Cd3_2 1_555 1_555
O6_2 Zn5_2 1_555 1_555
C5_3 C18_3 1_555 1_555
C12_3 C27_3 1_555 1_555
C13_3 C16_3 1_555 1_555
C14_3 C26_3 1_555 1_555
C19_3 C25_3 1_555 1_555
C20_3 C24_3 1_555 1_555
C22_3 C29_3 1_555 1_555
C26_3 C30_3 1_555 1_555
C27_3 C28_3 1_555 1_555
C31_3 C32_3 1_555 1_555
O8_2 C44_4 1_555 1_555
O21_2 C44_4 1_555 1_555
C39_4 C43_4 1_555 1_555
C40_4 H24_4 1_555 1_555
C43_4 H27_4 1_555 1_555
C44_4 C39_4 1_555 1_555
C47_4 C43_4 1_555 1_555
H29_4 C47_4 1_555 1_555
C50_4 C47_4 1_555 1_555
C53_4 C40_4 1_555 1_555
C57_4 C39_4 1_555 1_555
H34_4 C58_4 1_555 1_555
C60_4 C40_4 1_555 1_555
C63_4 C50_4 1_555 1_555
Cd3 O8_2 1_555 1_555
C42_4 C53_4 1_555 1_555
C50_4 C60_4 1_555 1_555
C57_4 C63_4 1_555 1_555
O9_2 C56_4 1_555 1_555
O19_2 C56_4 1_555 1_555
C45_4 C52_4 1_555 1_555
C52_4 H31_4 1_555 1_555
C55_4 C45_4 1_555 1_555
H32_4 C55_4 1_555 1_555
C56_4 C45_4 1_555 1_555
C59_4 C52_4 1_555 1_555
H35_4 C59_4 1_555 1_555
Zn6 O9_2 1_555 1_555
C54_4 C59_4 1_555 1_555
C4_4 H2_4 1_555 1_555
C13_4 C4_4 1_555 1_555
H8_4 C13_4 1_555 1_555
C27_4 C4_4 1_555 1_555
C30_4 C12_4 1_555 1_555
H17_4 C30_4 1_555 1_555
C12_4 C27_4 1_555 1_555
C41_4 H25_4 1_555 1_555
C49_4 C41_4 1_555 1_555
H30_4 C49_4 1_555 1_555
C61_4 C41_4 1_555 1_555
C64_4 C48_4 1_555 1_555
H38_4 C64_4 1_555 1_555
C48_4 C61_4 1_555 1_555
Zn5_2 O4_4 1_555 1_555
O13_2 C1_4 1_555 1_555
O4_4 C1_4 1_555 1_555
N1_4 Zn5_2 1_555 1_555
C1_4 C16_4 1_555 1_555
C9_4 N1_4 1_555 1_555
H5_4 C9_4 1_555 1_555
C10_4 H6_4 1_555 1_555
C15_4 C23_4 1_555 1_555
C16_4 C10_4 1_555 1_555
C23_4 C9_4 1_555 1_555
H12_4 C23_4 1_555 1_555
C28_4 C10_4 1_555 1_555
H15_4 C28_4 1_555 1_555
C31_4 N1_4 1_555 1_555
H18_4 C31_4 1_555 1_555
C32_4 C15_4 1_555 1_555
H19_4 C32_4 1_555 1_555
N2_4 C33_4 1_555 1_555
C33_4 H20_4 1_555 1_555
C34_4 C15_4 1_555 1_555
C35_4 C33_4 1_555 1_555
H21_4 C35_4 1_555 1_555
C36_4 N2_4 1_555 1_555
H22_4 C36_4 1_555 1_555
C37_4 C34_4 1_555 1_555
H23_4 C37_4 1_555 1_555
O16_2 Zn5_2 1_555 1_555
C31_4 C32_4 1_555 1_555
C34_4 C35_4 1_555 1_555
C36_4 C37_4 1_555 1_555
O14_2 C38_4 1_555 1_555
O10_4 Zn6 1_555 1_555
C38_4 O10_4 1_555 1_555
C46_4 H28_4 1_555 1_555
C51_4 C38_4 1_555 1_555
C62_4 C46_4 1_555 1_555
H36_4 C62_4 1_555 1_555
C46_4 C51_4 1_555 1_555
Cd3_2 O2_4 1_555 1_555
O2_4 C7_4 1_555 1_555
O20_2 C7_4 1_555 1_555
C2_4 C6_4 1_555 1_555
C3_4 H1_4 1_555 1_555
C6_4 H4_4 1_555 1_555
C7_4 C2_4 1_555 1_555
C11_4 C6_4 1_555 1_555
H7_4 C11_4 1_555 1_555
C14_4 C11_4 1_555 1_555
C18_4 C3_4 1_555 1_555
C22_4 C2_4 1_555 1_555
H13_4 C24_4 1_555 1_555
C26_4 C3_4 1_555 1_555
C29_4 C14_4 1_555 1_555
C5_4 C18_4 1_555 1_555
C14_4 C26_4 1_555 1_555
C22_4 C29_4 1_555 1_555
O16_2 C21_4 1_555 1_555
O18_2 C21_4 1_555 1_555
C8_4 C17_4 1_555 1_555
C17_4 H9_4 1_555 1_555
C20_4 C8_4 1_555 1_555
H10_4 C20_4 1_555 1_555
C21_4 C8_4 1_555 1_555
C25_4 C17_4 1_555 1_555
H14_4 C25_4 1_555 1_555
C19_4 C25_4 1_555 1_555

#END
