
###############################################################################
#
# This file contains modified crystal structure data generated from the
# MOF subset of the Cambridge Structural Database (CSD) v543 
# hosted by the Cambridge Crystallographic Data Centre (CCDC).
#
# This work is licensed under the Creative Commons
# Attribution-NonCommercial-ShareAlike 4.0 International License.
# To view a copy of this license, visit
# http://creativecommons.org/licenses/by-nc-sa/4.0/
# or send a letter to
# Creative Commons, PO Box 1866, Mountain View, CA 94042, USA.
#
# CIF created using the CSD Python API on 29 September 2022
# The structure has been converted into the P1 space group
# The structure has a 3D framework
# The original CSD entry BETZOR is in the monoclinic crystal system
# The framework has been calculated to contain at least 10.0% void space
# The void calculation uses a probe of radius 1.32A, grid spacing 0.4
# H atom positions have been added when not included in the experimental data
#
###############################################################################

data_BETZOR
_chemical_formula_moiety         '(C336 H256 Mn24 O152 P16)n'
_symmetry_cell_setting           triclinic
_symmetry_space_group_name_H-M   'P 1'
_symmetry_Int_Tables_number      1
_space_group_name_Hall           'P 1'
loop_
_symmetry_equiv_pos_site_id
_symmetry_equiv_pos_as_xyz
1 x,y,z
_cell_length_a                   40.229(8)
_cell_length_b                   21.504(4)
_cell_length_c                   15.251(3)
_cell_angle_alpha                90
_cell_angle_beta                 110.11(3)
_cell_angle_gamma                90
_cell_volume                     12389.1
loop_
_atom_site_label
_atom_site_type_symbol
_atom_site_fract_x
_atom_site_fract_y
_atom_site_fract_z
O4 O 0.27593(6) 0.47362(10) 0.18653(15)
O5 O 0.31321(6) 0.48844(10) 0.33250(14)
O9 O 0.30204(6) 0.51117(9) 0.01209(13)
O10 O 0.24728(6) 0.10622(10) 0.04434(14)
O11 O 0.27591(6) 0.17357(10) 0.15674(14)
O19 O 0.47623(7) 0.04400(14) 0.12787(19)
P1 P 0.34203(2) 0.33842(3) 0.00937(5)
C6 C 0.30361(8) 0.46191(13) 0.2532(2)
C7 C 0.32819(8) 0.41436(13) 0.2380(2)
C8 C 0.35553(10) 0.38864(17) 0.3119(2)
H4 H 0.3585 0.4000 0.3743
C9 C 0.37846(10) 0.3465(2) 0.2945(2)
H5 H 0.3968 0.3286 0.3454
C16 C 0.26682(8) 0.15333(13) 0.0749(2)
C17 C 0.28104(8) 0.18618(13) 0.0075(2)
C19 C 0.30225(8) 0.23849(13) 0.0370(2)
H11 H 0.3079 0.2530 0.0992
C23 C 0.32400(8) 0.39659(13) 0.1468(2)
H14 H 0.3048 0.4127 0.0961
C24 C 0.34761(8) 0.35559(14) 0.1296(2)
C25 C 0.37503(10) 0.32986(18) 0.2036(2)
H15 H 0.3911 0.3014 0.1922
C26 C 0.38523(8) 0.31879(14) 0.0074(2)
C27 C 0.39668(8) 0.25836(13) 0.0026(2)
H16 H 0.3813 0.2245 0.0005
C28 C 0.43083(9) 0.24694(14) 0.0010(2)
C29 C 0.45357(9) 0.29667(15) 0.0067(3)
H17 H 0.4770 0.2892 0.0079
C30 C 0.44210(10) 0.35749(16) 0.0108(3)
H18 H 0.4576 0.3914 0.0135
C31 C 0.40839(10) 0.36836(15) 0.0107(2)
H19 H 0.4007 0.4099 0.0130
Mn5 Mn 0.233891(12) 0.542067(19) 0.13991(3)
Mn8 Mn 0.281795(12) 0.54713(2) 0.38798(3)
Mn9 Mn 0.218205(12) 0.04713(2) 0.11202(3)
O26 O 0.52262(7) 0.05722(12) 0.0296(2)
H29 H 0.458474 0.0647147 0.149871
H31 H 0.295787 0.492304 0.0637944
H32 H 0.328181 0.514484 0.0308138
Mn1 Mn 0.233891(12) 0.457933(19) 0.63991(3)
Mn2 Mn 0.281795(12) 0.45287(2) 0.88798(3)
Mn3 Mn 0.466863(13) 0.07050(2) 0.98155(4)
O1 O 0.23551(6) 0.48374(10) 0.34738(14)
O2 O 0.20300(6) 0.48571(10) 0.19544(15)
O3 O 0.25778(5) 0.39486(10) 0.76268(12)
O6 O 0.21778(8) 0.51484(10) 0.51219(15)
O7 O 0.18974(6) 0.39605(9) 0.58671(13)
O8 O 0.23576(6) 0.09617(9) 0.42753(14)
O12 O 0.32715(6) 0.39255(9) 0.94629(14)
O13 O 0.21320(6) 0.17519(10) 0.33088(14)
O14 O 0.47297(7) 0.17365(12) 0.9882(2)
O15 O 0.42273(6) 0.13734(10) 0.98964(17)
O16 O 0.02262(7) 0.44278(12) 0.5296(2)
O17 O 0.46891(9) 0.06444(16) 0.8394(2)
O18 O 0.07138(7) 0.49635(10) 0.55451(19)
P2 P 0.16956(2) 0.34706(3) 0.52107(5)
C1 C 0.18786(8) 0.40178(13) 0.38317(19)
H1 H 0.2096 0.4098 0.4322
C2 C 0.18265(8) 0.42433(13) 0.2932(2)
C3 C 0.15155(9) 0.40964(16) 0.2211(2)
H2 H 0.1479 0.4241 0.1596
C4 C 0.12563(10) 0.37381(18) 0.2385(2)
H3 H 0.1048 0.3625 0.1886
C5 C 0.20947(8) 0.46748(14) 0.2770(2)
C10 C 0.22120(8) 0.14939(13) 0.40833(19)
C11 C 0.19816(8) 0.24128(13) 0.4701(2)
H6 H 0.1927 0.2597 0.4102
C12 C 0.21349(8) 0.18279(13) 0.48673(19)
C13 C 0.22162(8) 0.15527(14) 0.5743(2)
H7 H 0.2320 0.1150 0.5857
C14 C 0.21438(8) 0.18742(14) 0.6448(2)
H8 H 0.2200 0.1688 0.7047
C15 C 0.19920(8) 0.24587(14) 0.6295(2)
H9 H 0.1946 0.2675 0.6784
C18 C 0.27297(8) 0.16498(14) 0.9159(2)
H10 H 0.2583 0.1295 0.8952
C20 C 0.31520(8) 0.26966(13) 0.9756(2)
C21 C 0.30734(9) 0.24796(14) 0.8847(2)
H12 H 0.3164 0.2691 0.8431
C22 C 0.28639(8) 0.19587(14) 0.8547(2)
H13 H 0.2811 0.1811 0.7927
C32 C 0.44302(9) 0.18179(15) 0.9934(2)
C33 C 0.05437(9) 0.44539(15) 0.5416(2)
C34 C 0.07400(8) 0.38730(14) 0.5367(2)
C35 C 0.10856(9) 0.39080(14) 0.5377(2)
H20 H 0.1200 0.4300 0.5439
C36 C 0.12655(8) 0.33666(14) 0.5297(2)
C37 C 0.10990(9) 0.27931(15) 0.5205(2)
H21 H 0.1219 0.2426 0.5139
C38 C 0.07520(9) 0.27604(15) 0.5210(3)
H22 H 0.0640 0.2367 0.5169
C39 C 0.05707(9) 0.32926(14) 0.5274(2)
H23 H 0.0333 0.3267 0.5257
C40 C 0.19069(8) 0.27302(14) 0.5402(2)
C41 C 0.16161(8) 0.36794(13) 0.4012(2)
C42 C 0.13033(9) 0.35467(16) 0.3286(2)
H24 H 0.1121 0.3323 0.3409
Mn6 Mn 0.266109(12) 0.042067(19) 0.36009(3)
Mn10 Mn 0.033137(13) 0.57050(2) 0.51845(4)
O20 O 0.23551(6) 0.51626(10) 0.84738(14)
O21 O 0.20300(6) 0.51429(10) 0.69544(15)
O22 O 0.27593(6) 0.52638(10) 0.68653(15)
O23 O 0.31321(6) 0.51156(10) 0.83250(14)
O24 O 0.26424(6) 0.40383(9) 0.57247(14)
O25 O 0.25272(6) 0.39378(10) 0.95566(14)
H25 H 0.213161 0.487399 0.456899
H26 H 0.195917 0.538228 0.507172
H27 H 0.491858 0.0812326 0.839054
H28 H 0.466594 0.0203037 0.819035
O27 O 0.42862(7) 0.99635(10) 0.94549(19)
Mn11 Mn 0.966863(13) 0.42950(2) 0.48155(4)
Mn11_2 Mn 0.033137(13) 0.42950(2) 0.01845(4)
O1_2 O 0.76449(6) 0.48374(10) 0.15262(14)
O2_2 O 0.79700(6) 0.48571(10) 0.30456(15)
O8_2 O 0.76424(6) 0.09617(9) 0.07247(14)
O13_2 O 0.78680(6) 0.17519(10) 0.16912(14)
C1_2 C 0.81214(8) 0.40178(13) 0.11683(19)
H1_2 H 0.7904 0.4098 0.0678
C2_2 C 0.81735(8) 0.42433(13) 0.2068(2)
C3_2 C 0.84845(9) 0.40964(16) 0.2789(2)
H2_2 H 0.8521 0.4241 0.3404
C4_2 C 0.87437(10) 0.37381(18) 0.2615(2)
H3_2 H 0.8952 0.3625 0.3114
C5_2 C 0.79053(8) 0.46748(14) 0.2230(2)
C10_2 C 0.77880(8) 0.14939(13) 0.09167(19)
C11_2 C 0.80184(8) 0.24128(13) 0.0299(2)
H6_2 H 0.8073 0.2597 0.0898
C12_2 C 0.78651(8) 0.18279(13) 0.01327(19)
C41_2 C 0.83839(8) 0.36794(13) 0.0988(2)
C42_2 C 0.86967(9) 0.35467(16) 0.1714(2)
H24_2 H 0.8879 0.3323 0.1591
Mn4 Mn 0.766109(12) 0.542067(19) 0.36009(3)
Mn6_2 Mn 0.733891(12) 0.042067(19) 0.13991(3)
Mn7 Mn 0.718205(12) 0.54713(2) 0.11202(3)
H25_2 H 0.786839 0.487399 0.0431008
Mn1_2 Mn 0.766109(12) 0.457933(19) 0.86009(3)
Mn2_2 Mn 0.718205(12) 0.45287(2) 0.61202(3)
Mn3_2 Mn 0.533137(13) 0.07050(2) 0.51845(4)
O3_2 O 0.74222(5) 0.39486(10) 0.73732(12)
O4_2 O 0.72407(6) 0.47362(10) 0.31347(15)
O5_2 O 0.68679(6) 0.48844(10) 0.16750(14)
O6_2 O 0.78222(8) 0.51484(10) 0.98781(15)
O7_2 O 0.81026(6) 0.39605(9) 0.91329(13)
O9_2 O 0.69796(6) 0.51117(9) 0.48791(13)
O10_2 O 0.75272(6) 0.10622(10) 0.45566(14)
O11_2 O 0.72409(6) 0.17357(10) 0.34326(14)
O12_2 O 0.67285(6) 0.39255(9) 0.55371(14)
O14_2 O 0.52703(7) 0.17365(12) 0.5118(2)
O15_2 O 0.57727(6) 0.13734(10) 0.51036(17)
O16_2 O 0.97738(7) 0.44278(12) 0.9704(2)
O17_2 O 0.53109(9) 0.06444(16) 0.6606(2)
O18_2 O 0.92862(7) 0.49635(10) 0.94549(19)
O19_2 O 0.52377(7) 0.04400(14) 0.37213(19)
P1_2 P 0.65797(2) 0.33842(3) 0.49063(5)
P2_2 P 0.83044(2) 0.34706(3) 0.97893(5)
C6_2 C 0.69639(8) 0.46191(13) 0.2468(2)
C7_2 C 0.67181(8) 0.41436(13) 0.2620(2)
C8_2 C 0.64447(10) 0.38864(17) 0.1881(2)
H4_2 H 0.6415 0.4000 0.1257
C9_2 C 0.62154(10) 0.3465(2) 0.2055(2)
H5_2 H 0.6032 0.3286 0.1546
C13_2 C 0.77838(8) 0.15527(14) 0.9257(2)
H7_2 H 0.7680 0.1150 0.9143
C14_2 C 0.78562(8) 0.18742(14) 0.8552(2)
H8_2 H 0.7800 0.1688 0.7953
C15_2 C 0.80080(8) 0.24587(14) 0.8705(2)
H9_2 H 0.8054 0.2675 0.8216
C16_2 C 0.73318(8) 0.15333(13) 0.4251(2)
C17_2 C 0.71896(8) 0.18618(13) 0.4925(2)
C18_2 C 0.72703(8) 0.16498(14) 0.5841(2)
H10_2 H 0.7417 0.1295 0.6048
C19_2 C 0.69775(8) 0.23849(13) 0.4630(2)
H11_2 H 0.6921 0.2530 0.4008
C20_2 C 0.68480(8) 0.26966(13) 0.5244(2)
C21_2 C 0.69266(9) 0.24796(14) 0.6153(2)
H12_2 H 0.6836 0.2691 0.6569
C22_2 C 0.71361(8) 0.19587(14) 0.6453(2)
H13_2 H 0.7189 0.1811 0.7073
C23_2 C 0.67600(8) 0.39659(13) 0.3532(2)
H14_2 H 0.6952 0.4127 0.4039
C24_2 C 0.65239(8) 0.35559(14) 0.3704(2)
C25_2 C 0.62497(10) 0.32986(18) 0.2964(2)
H15_2 H 0.6089 0.3014 0.3078
C26_2 C 0.61477(8) 0.31879(14) 0.4926(2)
C27_2 C 0.60332(8) 0.25836(13) 0.4974(2)
H16_2 H 0.6187 0.2245 0.4995
C28_2 C 0.56917(9) 0.24694(14) 0.4990(2)
C29_2 C 0.54643(9) 0.29667(15) 0.4933(3)
H17_2 H 0.5230 0.2892 0.4921
C30_2 C 0.55790(10) 0.35749(16) 0.4892(3)
H18_2 H 0.5424 0.3914 0.4865
C31_2 C 0.59161(10) 0.36836(15) 0.4893(2)
H19_2 H 0.5993 0.4099 0.4870
C32_2 C 0.55698(9) 0.18179(15) 0.5066(2)
C33_2 C 0.94563(9) 0.44539(15) 0.9584(2)
C34_2 C 0.92600(8) 0.38730(14) 0.9633(2)
C35_2 C 0.89144(9) 0.39080(14) 0.9623(2)
H20_2 H 0.8800 0.4300 0.9561
C36_2 C 0.87345(8) 0.33666(14) 0.9703(2)
C37_2 C 0.89010(9) 0.27931(15) 0.9795(2)
H21_2 H 0.8781 0.2426 0.9861
C38_2 C 0.92480(9) 0.27604(15) 0.9790(3)
H22_2 H 0.9360 0.2367 0.9831
C39_2 C 0.94293(9) 0.32926(14) 0.9726(2)
H23_2 H 0.9667 0.3267 0.9743
C40_2 C 0.80931(8) 0.27302(14) 0.9598(2)
Mn9_2 Mn 0.781795(12) 0.04713(2) 0.38798(3)
Mn10_2 Mn 0.966863(13) 0.57050(2) 0.98155(4)
O20_2 O 0.76449(6) 0.51626(10) 0.65262(14)
O21_2 O 0.79700(6) 0.51429(10) 0.80456(15)
O22_2 O 0.72407(6) 0.52638(10) 0.81347(15)
O23_2 O 0.68679(6) 0.51156(10) 0.66750(14)
O24_2 O 0.73576(6) 0.40383(9) 0.92753(14)
O25_2 O 0.74728(6) 0.39378(10) 0.54434(14)
O26_2 O 0.47738(7) 0.05722(12) 0.4704(2)
H26_2 H 0.804083 0.538228 0.992828
H27_2 H 0.508142 0.0812326 0.660946
H28_2 H 0.533406 0.0203037 0.680965
H29_2 H 0.541526 0.0647147 0.350129
H31_2 H 0.704213 0.492304 0.436206
H32_2 H 0.671819 0.514484 0.469186
O27_2 O 0.57138(7) 0.99635(10) 0.55451(19)
H30 H 0.525954 0.998191 0.367929
O26_3 O 0.02262(7) 0.55722(12) 0.0296(2)
O9_3 O 0.80204(6) 0.01117(9) 0.01209(13)
H32_3 H 0.828181 0.0144841 0.0308138
O6_3 O 0.71778(8) 0.01484(10) 0.51219(15)
O20_3 O 0.73551(6) 0.01626(10) 0.84738(14)
O21_3 O 0.70300(6) 0.01429(10) 0.69544(15)
O22_3 O 0.77593(6) 0.02638(10) 0.68653(15)
O23_3 O 0.81321(6) 0.01156(10) 0.83250(14)
H26_3 H 0.695917 0.0382275 0.507172
O4_3 O 0.77593(6) 0.97362(10) 0.18653(15)
O5_3 O 0.81321(6) 0.98844(10) 0.33250(14)
O10_3 O 0.74728(6) 0.60622(10) 0.04434(14)
O11_3 O 0.77591(6) 0.67357(10) 0.15674(14)
O19_3 O 0.97623(7) 0.54400(14) 0.12787(19)
P1_3 P 0.84203(2) 0.83842(3) 0.00937(5)
C6_3 C 0.80361(8) 0.96191(13) 0.2532(2)
C7_3 C 0.82819(8) 0.91436(13) 0.2380(2)
C8_3 C 0.85553(10) 0.88864(17) 0.3119(2)
H4_3 H 0.8585 0.9000 0.3743
C9_3 C 0.87846(10) 0.8465(2) 0.2945(2)
H5_3 H 0.8968 0.8286 0.3454
C16_3 C 0.76682(8) 0.65333(13) 0.0749(2)
C17_3 C 0.78104(8) 0.68618(13) 0.0075(2)
C19_3 C 0.80225(8) 0.73849(13) 0.0370(2)
H11_3 H 0.8079 0.7530 0.0992
C23_3 C 0.82400(8) 0.89659(13) 0.1468(2)
H14_3 H 0.8048 0.9127 0.0961
C24_3 C 0.84761(8) 0.85559(14) 0.1296(2)
C25_3 C 0.87503(10) 0.82986(18) 0.2036(2)
H15_3 H 0.8911 0.8014 0.1922
C26_3 C 0.88523(8) 0.81879(14) 0.0074(2)
C27_3 C 0.89668(8) 0.75836(13) 0.0026(2)
H16_3 H 0.8813 0.7245 0.0005
C28_3 C 0.93083(9) 0.74694(14) 0.0010(2)
C29_3 C 0.95357(9) 0.79667(15) 0.0067(3)
H17_3 H 0.9770 0.7892 0.0079
C30_3 C 0.94210(10) 0.85749(16) 0.0108(3)
H18_3 H 0.9576 0.8914 0.0135
C31_3 C 0.90839(10) 0.86836(15) 0.0107(2)
H19_3 H 0.9007 0.9099 0.0130
H29_3 H 0.958474 0.564715 0.149871
H30_2 H 0.974046 0.498191 0.132071
H31_3 H 0.795787 0.992304 0.0637944
Mn1_3 Mn 0.733891(12) 0.957933(19) 0.63991(3)
Mn2_3 Mn 0.781795(12) 0.95287(2) 0.88798(3)
O1_3 O 0.73551(6) 0.98374(10) 0.34738(14)
O2_3 O 0.70300(6) 0.98571(10) 0.19544(15)
O3_3 O 0.75778(5) 0.89486(10) 0.76268(12)
O7_3 O 0.68974(6) 0.89605(9) 0.58671(13)
O8_3 O 0.73576(6) 0.59617(9) 0.42753(14)
O12_3 O 0.82715(6) 0.89255(9) 0.94629(14)
O13_3 O 0.71320(6) 0.67519(10) 0.33088(14)
O14_3 O 0.97297(7) 0.67365(12) 0.9882(2)
O15_3 O 0.92273(6) 0.63734(10) 0.98964(17)
O16_3 O 0.52262(7) 0.94278(12) 0.5296(2)
O17_3 O 0.96891(9) 0.56444(16) 0.8394(2)
P2_3 P 0.66956(2) 0.84706(3) 0.52107(5)
C1_3 C 0.68786(8) 0.90178(13) 0.38317(19)
H1_3 H 0.7096 0.9098 0.4322
C2_3 C 0.68265(8) 0.92433(13) 0.2932(2)
C3_3 C 0.65155(9) 0.90964(16) 0.2211(2)
H2_3 H 0.6479 0.9241 0.1596
C4_3 C 0.62563(10) 0.87381(18) 0.2385(2)
H3_3 H 0.6048 0.8625 0.1886
C5_3 C 0.70947(8) 0.96748(14) 0.2770(2)
C10_3 C 0.72120(8) 0.64939(13) 0.40833(19)
C11_3 C 0.69816(8) 0.74128(13) 0.4701(2)
H6_3 H 0.6927 0.7597 0.4102
C12_3 C 0.71349(8) 0.68279(13) 0.48673(19)
C13_3 C 0.72162(8) 0.65527(14) 0.5743(2)
H7_3 H 0.7320 0.6150 0.5857
C14_3 C 0.71438(8) 0.68742(14) 0.6448(2)
H8_3 H 0.7200 0.6688 0.7047
C15_3 C 0.69920(8) 0.74587(14) 0.6295(2)
H9_3 H 0.6946 0.7675 0.6784
C18_3 C 0.77297(8) 0.66498(14) 0.9159(2)
H10_3 H 0.7583 0.6295 0.8952
C20_3 C 0.81520(8) 0.76966(13) 0.9756(2)
C21_3 C 0.80734(9) 0.74796(14) 0.8847(2)
H12_3 H 0.8164 0.7691 0.8431
C22_3 C 0.78639(8) 0.69587(14) 0.8547(2)
H13_3 H 0.7811 0.6811 0.7927
C32_3 C 0.94302(9) 0.68179(15) 0.9934(2)
C33_3 C 0.55437(9) 0.94539(15) 0.5416(2)
C34_3 C 0.57400(8) 0.88730(14) 0.5367(2)
C35_3 C 0.60856(9) 0.89080(14) 0.5377(2)
H20_3 H 0.6200 0.9300 0.5439
C36_3 C 0.62655(8) 0.83666(14) 0.5297(2)
C37_3 C 0.60990(9) 0.77931(15) 0.5205(2)
H21_3 H 0.6219 0.7426 0.5139
C38_3 C 0.57520(9) 0.77604(15) 0.5210(3)
H22_3 H 0.5640 0.7367 0.5169
C39_3 C 0.55707(9) 0.82926(14) 0.5274(2)
H23_3 H 0.5333 0.8267 0.5257
C40_3 C 0.69069(8) 0.77302(14) 0.5402(2)
C41_3 C 0.66161(8) 0.86794(13) 0.4012(2)
C42_3 C 0.63033(9) 0.85467(16) 0.3286(2)
H24_3 H 0.6121 0.8323 0.3409
Mn11_3 Mn 0.466863(13) 0.92950(2) 0.48155(4)
O24_3 O 0.76424(6) 0.90383(9) 0.57247(14)
O25_3 O 0.75272(6) 0.89378(10) 0.95566(14)
H25_3 H 0.713161 0.987399 0.456899
H27_3 H 0.991858 0.581233 0.839054
H28_3 H 0.966594 0.520304 0.819035
O6_4 O 0.28222(8) 0.01484(10) 0.98781(15)
O9_4 O 0.19796(6) 0.01117(9) 0.48791(13)
O20_4 O 0.26449(6) 0.01626(10) 0.65262(14)
O21_4 O 0.29700(6) 0.01429(10) 0.80456(15)
O22_4 O 0.22407(6) 0.02638(10) 0.81347(15)
O23_4 O 0.18679(6) 0.01156(10) 0.66750(14)
H26_4 H 0.304083 0.0382275 0.992828
H32_4 H 0.171819 0.0144841 0.469186
O1_4 O 0.26449(6) 0.98374(10) 0.15262(14)
O2_4 O 0.29700(6) 0.98571(10) 0.30456(15)
O8_4 O 0.26424(6) 0.59617(9) 0.07247(14)
O13_4 O 0.28680(6) 0.67519(10) 0.16912(14)
C1_4 C 0.31214(8) 0.90178(13) 0.11683(19)
H1_4 H 0.2904 0.9098 0.0678
C2_4 C 0.31735(8) 0.92433(13) 0.2068(2)
C3_4 C 0.34845(9) 0.90964(16) 0.2789(2)
H2_4 H 0.3521 0.9241 0.3404
C4_4 C 0.37437(10) 0.87381(18) 0.2615(2)
H3_4 H 0.3952 0.8625 0.3114
C5_4 C 0.29053(8) 0.96748(14) 0.2230(2)
C10_4 C 0.27880(8) 0.64939(13) 0.09167(19)
C11_4 C 0.30184(8) 0.74128(13) 0.0299(2)
H6_4 H 0.3073 0.7597 0.0898
C12_4 C 0.28651(8) 0.68279(13) 0.01327(19)
C41_4 C 0.33839(8) 0.86794(13) 0.0988(2)
C42_4 C 0.36967(9) 0.85467(16) 0.1714(2)
H24_4 H 0.3879 0.8323 0.1591
Mn11_4 Mn 0.533137(13) 0.92950(2) 0.01845(4)
H25_4 H 0.286839 0.987399 0.0431008
Mn1_4 Mn 0.266109(12) 0.957933(19) 0.86009(3)
Mn2_4 Mn 0.218205(12) 0.95287(2) 0.61202(3)
O3_4 O 0.24222(5) 0.89486(10) 0.73732(12)
O4_4 O 0.22407(6) 0.97362(10) 0.31347(15)
O5_4 O 0.18679(6) 0.98844(10) 0.16750(14)
O7_4 O 0.31026(6) 0.89605(9) 0.91329(13)
O10_4 O 0.25272(6) 0.60622(10) 0.45566(14)
O11_4 O 0.22409(6) 0.67357(10) 0.34326(14)
O12_4 O 0.17285(6) 0.89255(9) 0.55371(14)
O14_4 O 0.02703(7) 0.67365(12) 0.5118(2)
O15_4 O 0.07727(6) 0.63734(10) 0.51036(17)
O16_4 O 0.47738(7) 0.94278(12) 0.9704(2)
O17_4 O 0.03109(9) 0.56444(16) 0.6606(2)
O19_4 O 0.02377(7) 0.54400(14) 0.37213(19)
P1_4 P 0.15797(2) 0.83842(3) 0.49063(5)
P2_4 P 0.33044(2) 0.84706(3) 0.97893(5)
C6_4 C 0.19639(8) 0.96191(13) 0.2468(2)
C7_4 C 0.17181(8) 0.91436(13) 0.2620(2)
C8_4 C 0.14447(10) 0.88864(17) 0.1881(2)
H4_4 H 0.1415 0.9000 0.1257
C9_4 C 0.12154(10) 0.8465(2) 0.2055(2)
H5_4 H 0.1032 0.8286 0.1546
C13_4 C 0.27838(8) 0.65527(14) 0.9257(2)
H7_4 H 0.2680 0.6150 0.9143
C14_4 C 0.28562(8) 0.68742(14) 0.8552(2)
H8_4 H 0.2800 0.6688 0.7953
C15_4 C 0.30080(8) 0.74587(14) 0.8705(2)
H9_4 H 0.3054 0.7675 0.8216
C16_4 C 0.23318(8) 0.65333(13) 0.4251(2)
C17_4 C 0.21896(8) 0.68618(13) 0.4925(2)
C18_4 C 0.22703(8) 0.66498(14) 0.5841(2)
H10_4 H 0.2417 0.6295 0.6048
C19_4 C 0.19775(8) 0.73849(13) 0.4630(2)
H11_4 H 0.1921 0.7530 0.4008
C20_4 C 0.18480(8) 0.76966(13) 0.5244(2)
C21_4 C 0.19266(9) 0.74796(14) 0.6153(2)
H12_4 H 0.1836 0.7691 0.6569
C22_4 C 0.21361(8) 0.69587(14) 0.6453(2)
H13_4 H 0.2189 0.6811 0.7073
C23_4 C 0.17600(8) 0.89659(13) 0.3532(2)
H14_4 H 0.1952 0.9127 0.4039
C24_4 C 0.15239(8) 0.85559(14) 0.3704(2)
C25_4 C 0.12497(10) 0.82986(18) 0.2964(2)
H15_4 H 0.1089 0.8014 0.3078
C26_4 C 0.11477(8) 0.81879(14) 0.4926(2)
C27_4 C 0.10332(8) 0.75836(13) 0.4974(2)
H16_4 H 0.1187 0.7245 0.4995
C28_4 C 0.06917(9) 0.74694(14) 0.4990(2)
C29_4 C 0.04643(9) 0.79667(15) 0.4933(3)
H17_4 H 0.0230 0.7892 0.4921
C30_4 C 0.05790(10) 0.85749(16) 0.4892(3)
H18_4 H 0.0424 0.8914 0.4865
C31_4 C 0.09161(10) 0.86836(15) 0.4893(2)
H19_4 H 0.0993 0.9099 0.4870
C32_4 C 0.05698(9) 0.68179(15) 0.5066(2)
C33_4 C 0.44563(9) 0.94539(15) 0.9584(2)
C34_4 C 0.42600(8) 0.88730(14) 0.9633(2)
C35_4 C 0.39144(9) 0.89080(14) 0.9623(2)
H20_4 H 0.3800 0.9300 0.9561
C36_4 C 0.37345(8) 0.83666(14) 0.9703(2)
C37_4 C 0.39010(9) 0.77931(15) 0.9795(2)
H21_4 H 0.3781 0.7426 0.9861
C38_4 C 0.42480(9) 0.77604(15) 0.9790(3)
H22_4 H 0.4360 0.7367 0.9831
C39_4 C 0.44293(9) 0.82926(14) 0.9726(2)
H23_4 H 0.4667 0.8267 0.9743
C40_4 C 0.30931(8) 0.77302(14) 0.9598(2)
O24_4 O 0.23576(6) 0.90383(9) 0.92753(14)
O25_4 O 0.24728(6) 0.89378(10) 0.54434(14)
H27_4 H 0.00814174 0.581233 0.660946
H28_4 H 0.0334058 0.520304 0.680965
H29_4 H 0.041526 0.564715 0.350129
H30_3 H 0.0259536 0.498191 0.367929
H31_4 H 0.204213 0.992304 0.436206
O26_4 O 0.97738(7) 0.55722(12) 0.4704(2)
O27_3 O 0.57138(7) 0.00365(10) 0.05451(19)
O3_5 O 0.74222(5) 0.60514(10) 0.23732(12)
O6_5 O 0.78222(8) 0.48516(10) 0.48781(15)
O7_5 O 0.81026(6) 0.60395(9) 0.41329(13)
O12_5 O 0.67285(6) 0.60745(9) 0.05371(14)
O13_5 O 0.78680(6) 0.82481(10) 0.66912(14)
O14_5 O 0.52703(7) 0.82635(12) 0.0118(2)
O15_5 O 0.57727(6) 0.86266(10) 0.01036(17)
O17_5 O 0.53109(9) 0.93556(16) 0.1606(2)
O18_3 O 0.92862(7) 0.50365(10) 0.44549(19)
P2_5 P 0.83044(2) 0.65294(3) 0.47893(5)
C1_5 C 0.81214(8) 0.59822(13) 0.61683(19)
H1_5 H 0.7904 0.5902 0.5678
C2_5 C 0.81735(8) 0.57567(13) 0.7068(2)
C3_5 C 0.84845(9) 0.59036(16) 0.7789(2)
H2_5 H 0.8521 0.5759 0.8404
C4_5 C 0.87437(10) 0.62619(18) 0.7615(2)
H3_5 H 0.8952 0.6375 0.8114
C5_5 C 0.79053(8) 0.53252(14) 0.7230(2)
C10_5 C 0.77880(8) 0.85061(13) 0.59167(19)
C11_5 C 0.80184(8) 0.75872(13) 0.5299(2)
H6_5 H 0.8073 0.7403 0.5898
C12_5 C 0.78651(8) 0.81721(13) 0.51327(19)
C13_5 C 0.77838(8) 0.84473(14) 0.4257(2)
H7_5 H 0.7680 0.8850 0.4143
C14_5 C 0.78562(8) 0.81258(14) 0.3552(2)
H8_5 H 0.7800 0.8312 0.2953
C15_5 C 0.80080(8) 0.75413(14) 0.3705(2)
H9_5 H 0.8054 0.7325 0.3216
C18_5 C 0.72703(8) 0.83502(14) 0.0841(2)
H10_5 H 0.7417 0.8705 0.1048
C20_5 C 0.68480(8) 0.73034(13) 0.0244(2)
C21_5 C 0.69266(9) 0.75204(14) 0.1153(2)
H12_5 H 0.6836 0.7309 0.1569
C22_5 C 0.71361(8) 0.80413(14) 0.1453(2)
H13_5 H 0.7189 0.8189 0.2073
C32_5 C 0.55698(9) 0.81821(15) 0.0066(2)
C33_5 C 0.94563(9) 0.55461(15) 0.4584(2)
C34_5 C 0.92600(8) 0.61270(14) 0.4633(2)
C35_5 C 0.89144(9) 0.60920(14) 0.4623(2)
H20_5 H 0.8800 0.5700 0.4561
C36_5 C 0.87345(8) 0.66334(14) 0.4703(2)
C37_5 C 0.89010(9) 0.72069(15) 0.4795(2)
H21_5 H 0.8781 0.7574 0.4861
C38_5 C 0.92480(9) 0.72396(15) 0.4790(3)
H22_5 H 0.9360 0.7633 0.4831
C39_5 C 0.94293(9) 0.67074(14) 0.4726(2)
H23_5 H 0.9667 0.6733 0.4743
C40_5 C 0.80931(8) 0.72698(14) 0.4598(2)
C41_5 C 0.83839(8) 0.63206(13) 0.5988(2)
C42_5 C 0.86967(9) 0.64533(16) 0.6714(2)
H24_5 H 0.8879 0.6677 0.6591
H25_5 H 0.786839 0.512601 0.543101
H26_5 H 0.804083 0.461772 0.492828
H27_5 H 0.508142 0.918767 0.160946
H28_5 H 0.533406 0.979696 0.180965
O9_5 O 0.69796(6) 0.48883(9) 0.98791(13)
O11_5 O 0.72409(6) 0.82643(10) 0.84326(14)
O19_5 O 0.52377(7) 0.95600(14) 0.87213(19)
P1_5 P 0.65797(2) 0.66158(3) 0.99063(5)
C6_5 C 0.69639(8) 0.53809(13) 0.7468(2)
C7_5 C 0.67181(8) 0.58564(13) 0.7620(2)
C8_5 C 0.64447(10) 0.61136(17) 0.6881(2)
H4_5 H 0.6415 0.6000 0.6257
C9_5 C 0.62154(10) 0.6535(2) 0.7055(2)
H5_5 H 0.6032 0.6714 0.6546
C16_5 C 0.73318(8) 0.84667(13) 0.9251(2)
C17_5 C 0.71896(8) 0.81382(13) 0.9925(2)
C19_5 C 0.69775(8) 0.76151(13) 0.9630(2)
H11_5 H 0.6921 0.7470 0.9008
C23_5 C 0.67600(8) 0.60341(13) 0.8532(2)
H14_5 H 0.6952 0.5873 0.9039
C24_5 C 0.65239(8) 0.64441(14) 0.8704(2)
C25_5 C 0.62497(10) 0.67014(18) 0.7964(2)
H15_5 H 0.6089 0.6986 0.8078
C26_5 C 0.61477(8) 0.68121(14) 0.9926(2)
C27_5 C 0.60332(8) 0.74164(13) 0.9974(2)
H16_5 H 0.6187 0.7755 0.9995
C28_5 C 0.56917(9) 0.75306(14) 0.9990(2)
C29_5 C 0.54643(9) 0.70333(15) 0.9933(3)
H17_5 H 0.5230 0.7108 0.9921
C30_5 C 0.55790(10) 0.64251(16) 0.9892(3)
H18_5 H 0.5424 0.6086 0.9865
C31_5 C 0.59161(10) 0.63164(15) 0.9893(2)
H19_5 H 0.5993 0.5901 0.9870
H29_5 H 0.541526 0.935285 0.850129
H31_5 H 0.704213 0.507696 0.936206
H32_5 H 0.671819 0.485516 0.969186
O27_4 O 0.42862(7) 0.00365(10) 0.44549(19)
H30_4 H 0.474046 0.00180856 0.632071
O3_6 O 0.25778(5) 0.60514(10) 0.26268(12)
O6_6 O 0.21778(8) 0.48516(10) 0.01219(15)
O7_6 O 0.18974(6) 0.60395(9) 0.08671(13)
O9_6 O 0.30204(6) 0.48883(9) 0.51209(13)
O11_6 O 0.27591(6) 0.82643(10) 0.65674(14)
O12_6 O 0.32715(6) 0.60745(9) 0.44629(14)
O14_6 O 0.47297(7) 0.82635(12) 0.4882(2)
O15_6 O 0.42273(6) 0.86266(10) 0.48964(17)
O17_6 O 0.46891(9) 0.93556(16) 0.3394(2)
O18_4 O 0.07138(7) 0.50365(10) 0.05451(19)
O19_6 O 0.47623(7) 0.95600(14) 0.62787(19)
P1_6 P 0.34203(2) 0.66158(3) 0.50937(5)
P2_6 P 0.16956(2) 0.65294(3) 0.02107(5)
C6_6 C 0.30361(8) 0.53809(13) 0.7532(2)
C7_6 C 0.32819(8) 0.58564(13) 0.7380(2)
C8_6 C 0.35553(10) 0.61136(17) 0.8119(2)
H4_6 H 0.3585 0.6000 0.8743
C9_6 C 0.37846(10) 0.6535(2) 0.7945(2)
H5_6 H 0.3968 0.6714 0.8454
C13_6 C 0.22162(8) 0.84473(14) 0.0743(2)
H7_6 H 0.2320 0.8850 0.0857
C14_6 C 0.21438(8) 0.81258(14) 0.1448(2)
H8_6 H 0.2200 0.8312 0.2047
C15_6 C 0.19920(8) 0.75413(14) 0.1295(2)
H9_6 H 0.1946 0.7325 0.1784
C16_6 C 0.26682(8) 0.84667(13) 0.5749(2)
C17_6 C 0.28104(8) 0.81382(13) 0.5075(2)
C18_6 C 0.27297(8) 0.83502(14) 0.4159(2)
H10_6 H 0.2583 0.8705 0.3952
C19_6 C 0.30225(8) 0.76151(13) 0.5370(2)
H11_6 H 0.3079 0.7470 0.5992
C20_6 C 0.31520(8) 0.73034(13) 0.4756(2)
C21_6 C 0.30734(9) 0.75204(14) 0.3847(2)
H12_6 H 0.3164 0.7309 0.3431
C22_6 C 0.28639(8) 0.80413(14) 0.3547(2)
H13_6 H 0.2811 0.8189 0.2927
C23_6 C 0.32400(8) 0.60341(13) 0.6468(2)
H14_6 H 0.3048 0.5873 0.5961
C24_6 C 0.34761(8) 0.64441(14) 0.6296(2)
C25_6 C 0.37503(10) 0.67014(18) 0.7036(2)
H15_6 H 0.3911 0.6986 0.6922
C26_6 C 0.38523(8) 0.68121(14) 0.5074(2)
C27_6 C 0.39668(8) 0.74164(13) 0.5026(2)
H16_6 H 0.3813 0.7755 0.5005
C28_6 C 0.43083(9) 0.75306(14) 0.5010(2)
C29_6 C 0.45357(9) 0.70333(15) 0.5067(3)
H17_6 H 0.4770 0.7108 0.5079
C30_6 C 0.44210(10) 0.64251(16) 0.5108(3)
H18_6 H 0.4576 0.6086 0.5135
C31_6 C 0.40839(10) 0.63164(15) 0.5107(2)
H19_6 H 0.4007 0.5901 0.5130
C32_6 C 0.44302(9) 0.81821(15) 0.4934(2)
C33_6 C 0.05437(9) 0.55461(15) 0.0416(2)
C34_6 C 0.07400(8) 0.61270(14) 0.0367(2)
C35_6 C 0.10856(9) 0.60920(14) 0.0377(2)
H20_6 H 0.1200 0.5700 0.0439
C36_6 C 0.12655(8) 0.66334(14) 0.0297(2)
C37_6 C 0.10990(9) 0.72069(15) 0.0205(2)
H21_6 H 0.1219 0.7574 0.0139
C38_6 C 0.07520(9) 0.72396(15) 0.0210(3)
H22_6 H 0.0640 0.7633 0.0169
C39_6 C 0.05707(9) 0.67074(14) 0.0274(2)
H23_6 H 0.0333 0.6733 0.0257
C40_6 C 0.19069(8) 0.72698(14) 0.0402(2)
H26_6 H 0.195917 0.461772 0.00717193
H27_6 H 0.491858 0.918767 0.339054
H28_6 H 0.466594 0.979696 0.319035
H29_6 H 0.458474 0.935285 0.649871
H31_6 H 0.295787 0.507696 0.563794
H32_6 H 0.328181 0.485516 0.530814
O13_6 O 0.21320(6) 0.82481(10) 0.83088(14)
C1_6 C 0.18786(8) 0.59822(13) 0.88317(19)
H1_6 H 0.2096 0.5902 0.9322
C2_6 C 0.18265(8) 0.57567(13) 0.7932(2)
C3_6 C 0.15155(9) 0.59036(16) 0.7211(2)
H2_6 H 0.1479 0.5759 0.6596
C4_6 C 0.12563(10) 0.62619(18) 0.7385(2)
H3_6 H 0.1048 0.6375 0.6886
C5_6 C 0.20947(8) 0.53252(14) 0.7770(2)
C10_6 C 0.22120(8) 0.85061(13) 0.90833(19)
C11_6 C 0.19816(8) 0.75872(13) 0.9701(2)
H6_6 H 0.1927 0.7403 0.9102
C12_6 C 0.21349(8) 0.81721(13) 0.98673(19)
C41_6 C 0.16161(8) 0.63206(13) 0.9012(2)
C42_6 C 0.13033(9) 0.64533(16) 0.8286(2)
H24_6 H 0.1121 0.6677 0.8409
H25_6 H 0.213161 0.512601 0.956899
O3_7 O 0.24222(5) 0.10514(10) 0.23732(12)
O7_7 O 0.31026(6) 0.10395(9) 0.41329(13)
O12_7 O 0.17285(6) 0.10745(9) 0.05371(14)
O13_7 O 0.28680(6) 0.32481(10) 0.66912(14)
O14_7 O 0.02703(7) 0.32635(12) 0.0118(2)
O15_7 O 0.07727(6) 0.36266(10) 0.01036(17)
O17_7 O 0.03109(9) 0.43556(16) 0.1606(2)
P2_7 P 0.33044(2) 0.15294(3) 0.47893(5)
C1_7 C 0.31214(8) 0.09822(13) 0.61683(19)
H1_7 H 0.2904 0.0902 0.5678
C2_7 C 0.31735(8) 0.07567(13) 0.7068(2)
C3_7 C 0.34845(9) 0.09036(16) 0.7789(2)
H2_7 H 0.3521 0.0759 0.8404
C4_7 C 0.37437(10) 0.12619(18) 0.7615(2)
H3_7 H 0.3952 0.1375 0.8114
C5_7 C 0.29053(8) 0.03252(14) 0.7230(2)
C10_7 C 0.27880(8) 0.35061(13) 0.59167(19)
C11_7 C 0.30184(8) 0.25872(13) 0.5299(2)
H6_7 H 0.3073 0.2403 0.5898
C12_7 C 0.28651(8) 0.31721(13) 0.51327(19)
C13_7 C 0.27838(8) 0.34473(14) 0.4257(2)
H7_7 H 0.2680 0.3850 0.4143
C14_7 C 0.28562(8) 0.31258(14) 0.3552(2)
H8_7 H 0.2800 0.3312 0.2953
C15_7 C 0.30080(8) 0.25413(14) 0.3705(2)
H9_7 H 0.3054 0.2325 0.3216
C18_7 C 0.22703(8) 0.33502(14) 0.0841(2)
H10_7 H 0.2417 0.3705 0.1048
C20_7 C 0.18480(8) 0.23034(13) 0.0244(2)
C21_7 C 0.19266(9) 0.25204(14) 0.1153(2)
H12_7 H 0.1836 0.2309 0.1569
C22_7 C 0.21361(8) 0.30413(14) 0.1453(2)
H13_7 H 0.2189 0.3189 0.2073
C32_7 C 0.05698(9) 0.31821(15) 0.0066(2)
C33_7 C 0.44563(9) 0.05461(15) 0.4584(2)
C34_7 C 0.42600(8) 0.11270(14) 0.4633(2)
C35_7 C 0.39144(9) 0.10920(14) 0.4623(2)
H20_7 H 0.3800 0.0700 0.4561
C36_7 C 0.37345(8) 0.16334(14) 0.4703(2)
C37_7 C 0.39010(9) 0.22069(15) 0.4795(2)
H21_7 H 0.3781 0.2574 0.4861
C38_7 C 0.42480(9) 0.22396(15) 0.4790(3)
H22_7 H 0.4360 0.2633 0.4831
C39_7 C 0.44293(9) 0.17074(14) 0.4726(2)
H23_7 H 0.4667 0.1733 0.4743
C40_7 C 0.30931(8) 0.22698(14) 0.4598(2)
C41_7 C 0.33839(8) 0.13206(13) 0.5988(2)
C42_7 C 0.36967(9) 0.14533(16) 0.6714(2)
H24_7 H 0.3879 0.1677 0.6591
H25_7 H 0.286839 0.0126013 0.543101
H27_7 H 0.00814174 0.418767 0.160946
H28_7 H 0.0334058 0.479696 0.180965
O11_7 O 0.22409(6) 0.32643(10) 0.84326(14)
O19_7 O 0.02377(7) 0.45600(14) 0.87213(19)
P1_7 P 0.15797(2) 0.16158(3) 0.99063(5)
C6_7 C 0.19639(8) 0.03809(13) 0.7468(2)
C7_7 C 0.17181(8) 0.08564(13) 0.7620(2)
C8_7 C 0.14447(10) 0.11136(17) 0.6881(2)
H4_7 H 0.1415 0.1000 0.6257
C9_7 C 0.12154(10) 0.1535(2) 0.7055(2)
H5_7 H 0.1032 0.1714 0.6546
C16_7 C 0.23318(8) 0.34667(13) 0.9251(2)
C17_7 C 0.21896(8) 0.31382(13) 0.9925(2)
C19_7 C 0.19775(8) 0.26151(13) 0.9630(2)
H11_7 H 0.1921 0.2470 0.9008
C23_7 C 0.17600(8) 0.10341(13) 0.8532(2)
H14_7 H 0.1952 0.0873 0.9039
C24_7 C 0.15239(8) 0.14441(14) 0.8704(2)
C25_7 C 0.12497(10) 0.17014(18) 0.7964(2)
H15_7 H 0.1089 0.1986 0.8078
C26_7 C 0.11477(8) 0.18121(14) 0.9926(2)
C27_7 C 0.10332(8) 0.24164(13) 0.9974(2)
H16_7 H 0.1187 0.2755 0.9995
C28_7 C 0.06917(9) 0.25306(14) 0.9990(2)
C29_7 C 0.04643(9) 0.20333(15) 0.9933(3)
H17_7 H 0.0230 0.2108 0.9921
C30_7 C 0.05790(10) 0.14251(16) 0.9892(3)
H18_7 H 0.0424 0.1086 0.9865
C31_7 C 0.09161(10) 0.13164(15) 0.9893(2)
H19_7 H 0.0993 0.0901 0.9870
H29_7 H 0.041526 0.435285 0.850129
H30_5 H 0.0259536 0.501809 0.867929
H31_7 H 0.204213 0.00769573 0.936206
O6_7 O 0.28222(8) 0.98516(10) 0.48781(15)
H26_7 H 0.304083 0.961772 0.492828
O9_7 O 0.19796(6) 0.98883(9) 0.98791(13)
H32_7 H 0.171819 0.985516 0.969186
O3_8 O 0.75778(5) 0.10514(10) 0.26268(12)
O7_8 O 0.68974(6) 0.10395(9) 0.08671(13)
O11_8 O 0.77591(6) 0.32643(10) 0.65674(14)
O12_8 O 0.82715(6) 0.10745(9) 0.44629(14)
O14_8 O 0.97297(7) 0.32635(12) 0.4882(2)
O15_8 O 0.92273(6) 0.36266(10) 0.48964(17)
O17_8 O 0.96891(9) 0.43556(16) 0.3394(2)
O19_8 O 0.97623(7) 0.45600(14) 0.62787(19)
P1_8 P 0.84203(2) 0.16158(3) 0.50937(5)
P2_8 P 0.66956(2) 0.15294(3) 0.02107(5)
C6_8 C 0.80361(8) 0.03809(13) 0.7532(2)
C7_8 C 0.82819(8) 0.08564(13) 0.7380(2)
C8_8 C 0.85553(10) 0.11136(17) 0.8119(2)
H4_8 H 0.8585 0.1000 0.8743
C9_8 C 0.87846(10) 0.1535(2) 0.7945(2)
H5_8 H 0.8968 0.1714 0.8454
C13_8 C 0.72162(8) 0.34473(14) 0.0743(2)
H7_8 H 0.7320 0.3850 0.0857
C14_8 C 0.71438(8) 0.31258(14) 0.1448(2)
H8_8 H 0.7200 0.3312 0.2047
C15_8 C 0.69920(8) 0.25413(14) 0.1295(2)
H9_8 H 0.6946 0.2325 0.1784
C16_8 C 0.76682(8) 0.34667(13) 0.5749(2)
C17_8 C 0.78104(8) 0.31382(13) 0.5075(2)
C18_8 C 0.77297(8) 0.33502(14) 0.4159(2)
H10_8 H 0.7583 0.3705 0.3952
C19_8 C 0.80225(8) 0.26151(13) 0.5370(2)
H11_8 H 0.8079 0.2470 0.5992
C20_8 C 0.81520(8) 0.23034(13) 0.4756(2)
C21_8 C 0.80734(9) 0.25204(14) 0.3847(2)
H12_8 H 0.8164 0.2309 0.3431
C22_8 C 0.78639(8) 0.30413(14) 0.3547(2)
H13_8 H 0.7811 0.3189 0.2927
C23_8 C 0.82400(8) 0.10341(13) 0.6468(2)
H14_8 H 0.8048 0.0873 0.5961
C24_8 C 0.84761(8) 0.14441(14) 0.6296(2)
C25_8 C 0.87503(10) 0.17014(18) 0.7036(2)
H15_8 H 0.8911 0.1986 0.6922
C26_8 C 0.88523(8) 0.18121(14) 0.5074(2)
C27_8 C 0.89668(8) 0.24164(13) 0.5026(2)
H16_8 H 0.8813 0.2755 0.5005
C28_8 C 0.93083(9) 0.25306(14) 0.5010(2)
C29_8 C 0.95357(9) 0.20333(15) 0.5067(3)
H17_8 H 0.9770 0.2108 0.5079
C30_8 C 0.94210(10) 0.14251(16) 0.5108(3)
H18_8 H 0.9576 0.1086 0.5135
C31_8 C 0.90839(10) 0.13164(15) 0.5107(2)
H19_8 H 0.9007 0.0901 0.5130
C32_8 C 0.94302(9) 0.31821(15) 0.4934(2)
C33_8 C 0.55437(9) 0.05461(15) 0.0416(2)
C34_8 C 0.57400(8) 0.11270(14) 0.0367(2)
C35_8 C 0.60856(9) 0.10920(14) 0.0377(2)
H20_8 H 0.6200 0.0700 0.0439
C36_8 C 0.62655(8) 0.16334(14) 0.0297(2)
C37_8 C 0.60990(9) 0.22069(15) 0.0205(2)
H21_8 H 0.6219 0.2574 0.0139
C38_8 C 0.57520(9) 0.22396(15) 0.0210(3)
H22_8 H 0.5640 0.2633 0.0169
C39_8 C 0.55707(9) 0.17074(14) 0.0274(2)
H23_8 H 0.5333 0.1733 0.0257
C40_8 C 0.69069(8) 0.22698(14) 0.0402(2)
H27_8 H 0.991858 0.418767 0.339054
H28_8 H 0.966594 0.479696 0.319035
H29_8 H 0.958474 0.435285 0.649871
H30_6 H 0.974046 0.501809 0.632071
H31_8 H 0.795787 0.00769573 0.563794
O13_8 O 0.71320(6) 0.32481(10) 0.83088(14)
C1_8 C 0.68786(8) 0.09822(13) 0.88317(19)
H1_8 H 0.7096 0.0902 0.9322
C2_8 C 0.68265(8) 0.07567(13) 0.7932(2)
C3_8 C 0.65155(9) 0.09036(16) 0.7211(2)
H2_8 H 0.6479 0.0759 0.6596
C4_8 C 0.62563(10) 0.12619(18) 0.7385(2)
H3_8 H 0.6048 0.1375 0.6886
C5_8 C 0.70947(8) 0.03252(14) 0.7770(2)
C10_8 C 0.72120(8) 0.35061(13) 0.90833(19)
C11_8 C 0.69816(8) 0.25872(13) 0.9701(2)
H6_8 H 0.6927 0.2403 0.9102
C12_8 C 0.71349(8) 0.31721(13) 0.98673(19)
C41_8 C 0.66161(8) 0.13206(13) 0.9012(2)
C42_8 C 0.63033(9) 0.14533(16) 0.8286(2)
H24_8 H 0.6121 0.1677 0.8409
H25_8 H 0.713161 0.0126013 0.956899
O6_8 O 0.71778(8) 0.98516(10) 0.01219(15)
O9_8 O 0.80204(6) 0.98883(9) 0.51209(13)
H26_8 H 0.695917 0.961772 0.00717193
H32_8 H 0.828181 0.985516 0.530814
H30_7 H 0.474046 0.998191 0.132071
H30_8 H 0.525954 0.00180856 0.867929
loop_
_geom_bond_atom_site_label_1
_geom_bond_atom_site_label_2
_geom_bond_site_symmetry_1
_geom_bond_site_symmetry_2
O4 C6 1_555 1_555
O5 C6 1_555 1_555
O10 C16 1_555 1_555
O11 C16 1_555 1_555
C6 C7 1_555 1_555
C7 C8 1_555 1_555
C8 H4 1_555 1_555
C9 C8 1_555 1_555
H5 C9 1_555 1_555
C16 C17 1_555 1_555
C19 C17 1_555 1_555
H11 C19 1_555 1_555
C23 C7 1_555 1_555
H14 C23 1_555 1_555
C24 P1 1_555 1_555
C25 C9 1_555 1_555
H15 C25 1_555 1_555
C26 P1 1_555 1_555
C27 C26 1_555 1_555
H16 C27 1_555 1_555
C28 C27 1_555 1_555
C29 C28 1_555 1_555
H17 C29 1_555 1_555
C30 C29 1_555 1_555
H18 C30 1_555 1_555
C31 C26 1_555 1_555
H19 C31 1_555 1_555
Mn5 O4 1_555 1_555
Mn8 O5 1_555 1_555
Mn9 O10 1_555 1_555
C23 C24 1_555 1_555
C24 C25 1_555 1_555
C30 C31 1_555 1_555
O19 H29 1_555 1_555
O9 H31 1_555 1_555
O9 H32 1_555 1_555
Mn1 O3 1_555 1_555
Mn2 O3 1_555 1_555
Mn3 O14 1_555 1_555
O1 C5 1_555 1_555
O2 C5 1_555 1_555
O6 Mn1 1_555 1_555
O7 Mn1 1_555 1_555
O8 C10 1_555 1_555
O12 Mn2 1_555 1_555
O13 C10 1_555 1_555
O14 C32 1_555 1_555
O15 Mn3 1_555 1_555
O16 C33 1_555 1_555
O17 Mn3 1_555 1_555
O18 C33 1_555 1_555
P2 O7 1_555 1_555
C1 H1 1_555 1_555
C2 C1 1_555 1_555
C3 C2 1_555 1_555
H2 C3 1_555 1_555
C4 C3 1_555 1_555
H3 C4 1_555 1_555
C5 C2 1_555 1_555
C10 C12 1_555 1_555
C11 H6 1_555 1_555
C12 C11 1_555 1_555
C13 C12 1_555 1_555
H7 C13 1_555 1_555
C14 C13 1_555 1_555
H8 C14 1_555 1_555
C15 C14 1_555 1_555
H9 C15 1_555 1_555
C18 H10 1_555 1_555
C21 C20 1_555 1_555
H12 C21 1_555 1_555
C22 C18 1_555 1_555
H13 C22 1_555 1_555
C32 O15 1_555 1_555
C33 C34 1_555 1_555
C34 C35 1_555 1_555
C35 H20 1_555 1_555
C36 P2 1_555 1_555
C37 C36 1_555 1_555
H21 C37 1_555 1_555
C38 C37 1_555 1_555
H22 C38 1_555 1_555
C39 C34 1_555 1_555
H23 C39 1_555 1_555
C40 P2 1_555 1_555
C41 P2 1_555 1_555
C42 C4 1_555 1_555
H24 C42 1_555 1_555
Mn5 O2 1_555 1_555
Mn6 O8 1_555 1_555
Mn8 O1 1_555 1_555
Mn10 O18 1_555 1_555
O20 Mn2 1_555 1_555
O21 Mn1 1_555 1_555
O22 Mn1 1_555 1_555
O23 Mn2 1_555 1_555
O24 Mn1 1_555 1_555
O25 Mn2 1_555 1_555
C1 C41 1_555 1_555
C11 C40 1_555 1_555
C15 C40 1_555 1_555
C21 C22 1_555 1_555
C35 C36 1_555 1_555
C38 C39 1_555 1_555
C41 C42 1_555 1_555
O6 H25 1_555 1_555
O6 H26 1_555 1_555
O17 H27 1_555 1_555
O17 H28 1_555 1_555
O1_2 C5_2 1_555 1_555
O2_2 C5_2 1_555 1_555
O8_2 C10_2 1_555 1_555
O13_2 C10_2 1_555 1_555
C1_2 H1_2 1_555 1_555
C2_2 C1_2 1_555 1_555
C3_2 C2_2 1_555 1_555
H2_2 C3_2 1_555 1_555
C4_2 C3_2 1_555 1_555
H3_2 C4_2 1_555 1_555
C5_2 C2_2 1_555 1_555
C10_2 C12_2 1_555 1_555
C11_2 H6_2 1_555 1_555
C12_2 C11_2 1_555 1_555
C42_2 C4_2 1_555 1_555
H24_2 C42_2 1_555 1_555
Mn4 O2_2 1_555 1_555
Mn6_2 O8_2 1_555 1_555
Mn7 O1_2 1_555 1_555
C1_2 C41_2 1_555 1_555
C41_2 C42_2 1_555 1_555
Mn1_2 O3_2 1_555 1_555
Mn2_2 O3_2 1_555 1_555
Mn3_2 O14_2 1_555 1_555
O4_2 C6_2 1_555 1_555
O5_2 C6_2 1_555 1_555
O6_2 Mn1_2 1_555 1_555
O7_2 Mn1_2 1_555 1_555
O9_2 Mn2_2 1_555 1_555
O10_2 C16_2 1_555 1_555
O11_2 C16_2 1_555 1_555
O12_2 Mn2_2 1_555 1_555
O14_2 C32_2 1_555 1_555
O15_2 Mn3_2 1_555 1_555
O16_2 C33_2 1_555 1_555
O17_2 Mn3_2 1_555 1_555
O18_2 C33_2 1_555 1_555
O19_2 Mn3_2 1_555 1_555
P1_2 O12_2 1_555 1_555
P2_2 O7_2 1_555 1_555
C6_2 C7_2 1_555 1_555
C7_2 C8_2 1_555 1_555
C8_2 H4_2 1_555 1_555
C9_2 C8_2 1_555 1_555
H5_2 C9_2 1_555 1_555
H7_2 C13_2 1_555 1_555
C14_2 C13_2 1_555 1_555
H8_2 C14_2 1_555 1_555
C15_2 C14_2 1_555 1_555
H9_2 C15_2 1_555 1_555
C16_2 C17_2 1_555 1_555
C17_2 C18_2 1_555 1_555
C18_2 H10_2 1_555 1_555
C19_2 C17_2 1_555 1_555
H11_2 C19_2 1_555 1_555
C20_2 P1_2 1_555 1_555
C21_2 C20_2 1_555 1_555
H12_2 C21_2 1_555 1_555
C22_2 C18_2 1_555 1_555
H13_2 C22_2 1_555 1_555
C23_2 C7_2 1_555 1_555
H14_2 C23_2 1_555 1_555
C24_2 P1_2 1_555 1_555
C25_2 C9_2 1_555 1_555
H15_2 C25_2 1_555 1_555
C26_2 P1_2 1_555 1_555
C27_2 C26_2 1_555 1_555
H16_2 C27_2 1_555 1_555
C28_2 C27_2 1_555 1_555
C29_2 C28_2 1_555 1_555
H17_2 C29_2 1_555 1_555
C30_2 C29_2 1_555 1_555
H18_2 C30_2 1_555 1_555
C31_2 C26_2 1_555 1_555
H19_2 C31_2 1_555 1_555
C32_2 O15_2 1_555 1_555
C33_2 C34_2 1_555 1_555
C34_2 C35_2 1_555 1_555
C35_2 H20_2 1_555 1_555
C36_2 P2_2 1_555 1_555
C37_2 C36_2 1_555 1_555
H21_2 C37_2 1_555 1_555
C38_2 C37_2 1_555 1_555
H22_2 C38_2 1_555 1_555
C39_2 C34_2 1_555 1_555
H23_2 C39_2 1_555 1_555
C40_2 P2_2 1_555 1_555
Mn4 O4_2 1_555 1_555
Mn7 O5_2 1_555 1_555
Mn9_2 O10_2 1_555 1_555
Mn10_2 O18_2 1_555 1_555
O20_2 Mn2_2 1_555 1_555
O21_2 Mn1_2 1_555 1_555
O22_2 Mn1_2 1_555 1_555
O23_2 Mn2_2 1_555 1_555
O24_2 Mn1_2 1_555 1_555
O25_2 Mn2_2 1_555 1_555
O26_2 Mn3_2 1_555 1_555
C15_2 C40_2 1_555 1_555
C19_2 C20_2 1_555 1_555
C21_2 C22_2 1_555 1_555
C23_2 C24_2 1_555 1_555
C24_2 C25_2 1_555 1_555
C28_2 C32_2 1_555 1_555
C30_2 C31_2 1_555 1_555
C35_2 C36_2 1_555 1_555
C38_2 C39_2 1_555 1_555
O6_2 H26_2 1_555 1_555
O17_2 H27_2 1_555 1_555
O17_2 H28_2 1_555 1_555
O19_2 H29_2 1_555 1_555
O9_2 H31_2 1_555 1_555
O9_2 H32_2 1_555 1_555
O9_3 H32_3 1_555 1_555
O6_3 H26_3 1_555 1_555
O4_3 C6_3 1_555 1_555
O5_3 C6_3 1_555 1_555
O10_3 C16_3 1_555 1_555
O11_3 C16_3 1_555 1_555
C6_3 C7_3 1_555 1_555
C7_3 C8_3 1_555 1_555
C8_3 H4_3 1_555 1_555
C9_3 C8_3 1_555 1_555
H5_3 C9_3 1_555 1_555
C16_3 C17_3 1_555 1_555
C19_3 C17_3 1_555 1_555
H11_3 C19_3 1_555 1_555
C23_3 C7_3 1_555 1_555
H14_3 C23_3 1_555 1_555
C24_3 P1_3 1_555 1_555
C25_3 C9_3 1_555 1_555
H15_3 C25_3 1_555 1_555
C26_3 P1_3 1_555 1_555
C27_3 C26_3 1_555 1_555
H16_3 C27_3 1_555 1_555
C28_3 C27_3 1_555 1_555
C29_3 C28_3 1_555 1_555
H17_3 C29_3 1_555 1_555
C30_3 C29_3 1_555 1_555
H18_3 C30_3 1_555 1_555
C31_3 C26_3 1_555 1_555
H19_3 C31_3 1_555 1_555
Mn7 O10_3 1_555 1_555
C23_3 C24_3 1_555 1_555
C24_3 C25_3 1_555 1_555
C30_3 C31_3 1_555 1_555
O19_3 H29_3 1_555 1_555
O19_3 H30_2 1_555 1_555
Mn1_3 O3_3 1_555 1_555
Mn2_3 O3_3 1_555 1_555
Mn10_2 O14_3 1_555 1_555
O1_3 C5_3 1_555 1_555
O2_3 C5_3 1_555 1_555
O7_3 Mn1_3 1_555 1_555
O8_3 C10_3 1_555 1_555
O12_3 Mn2_3 1_555 1_555
O13_3 C10_3 1_555 1_555
O14_3 C32_3 1_555 1_555
O15_3 Mn10_2 1_555 1_555
O16_3 C33_3 1_555 1_555
O17_3 Mn10_2 1_555 1_555
O27_2 C33_3 1_555 1_555
P2_3 O7_3 1_555 1_555
C1_3 H1_3 1_555 1_555
C2_3 C1_3 1_555 1_555
C3_3 C2_3 1_555 1_555
H2_3 C3_3 1_555 1_555
C4_3 C3_3 1_555 1_555
H3_3 C4_3 1_555 1_555
C5_3 C2_3 1_555 1_555
C10_3 C12_3 1_555 1_555
C11_3 H6_3 1_555 1_555
C12_3 C11_3 1_555 1_555
C13_3 C12_3 1_555 1_555
H7_3 C13_3 1_555 1_555
C14_3 C13_3 1_555 1_555
H8_3 C14_3 1_555 1_555
C15_3 C14_3 1_555 1_555
H9_3 C15_3 1_555 1_555
C18_3 H10_3 1_555 1_555
C21_3 C20_3 1_555 1_555
H12_3 C21_3 1_555 1_555
C22_3 C18_3 1_555 1_555
H13_3 C22_3 1_555 1_555
C32_3 O15_3 1_555 1_555
C33_3 C34_3 1_555 1_555
C34_3 C35_3 1_555 1_555
C35_3 H20_3 1_555 1_555
C36_3 P2_3 1_555 1_555
C37_3 C36_3 1_555 1_555
H21_3 C37_3 1_555 1_555
C38_3 C37_3 1_555 1_555
H22_3 C38_3 1_555 1_555
C39_3 C34_3 1_555 1_555
H23_3 C39_3 1_555 1_555
C40_3 P2_3 1_555 1_555
C41_3 P2_3 1_555 1_555
C42_3 C4_3 1_555 1_555
H24_3 C42_3 1_555 1_555
Mn4 O8_3 1_555 1_555
Mn11_3 O16_3 1_555 1_555
O24_3 Mn1_3 1_555 1_555
O25_3 Mn2_3 1_555 1_555
C1_3 C41_3 1_555 1_555
C11_3 C40_3 1_555 1_555
C15_3 C40_3 1_555 1_555
C21_3 C22_3 1_555 1_555
C35_3 C36_3 1_555 1_555
C38_3 C39_3 1_555 1_555
C41_3 C42_3 1_555 1_555
O17_3 H27_3 1_555 1_555
O17_3 H28_3 1_555 1_555
O6_4 H26_4 1_555 1_555
O9_4 H32_4 1_555 1_555
O1_4 C5_4 1_555 1_555
O2_4 C5_4 1_555 1_555
O8_4 C10_4 1_555 1_555
O13_4 C10_4 1_555 1_555
C1_4 H1_4 1_555 1_555
C2_4 C1_4 1_555 1_555
C3_4 C2_4 1_555 1_555
H2_4 C3_4 1_555 1_555
C4_4 C3_4 1_555 1_555
H3_4 C4_4 1_555 1_555
C5_4 C2_4 1_555 1_555
C10_4 C12_4 1_555 1_555
C11_4 H6_4 1_555 1_555
C12_4 C11_4 1_555 1_555
C42_4 C4_4 1_555 1_555
H24_4 C42_4 1_555 1_555
Mn5 O8_4 1_555 1_555
C1_4 C41_4 1_555 1_555
C41_4 C42_4 1_555 1_555
Mn1_4 O3_4 1_555 1_555
Mn2_4 O3_4 1_555 1_555
Mn10 O14_4 1_555 1_555
O4_4 C6_4 1_555 1_555
O5_4 C6_4 1_555 1_555
O7_4 Mn1_4 1_555 1_555
O10_4 C16_4 1_555 1_555
O11_4 C16_4 1_555 1_555
O12_4 Mn2_4 1_555 1_555
O14_4 C32_4 1_555 1_555
O15_4 Mn10 1_555 1_555
O16_4 C33_4 1_555 1_555
O17_4 Mn10 1_555 1_555
O27 C33_4 1_555 1_555
O19_4 Mn10 1_555 1_555
P1_4 O12_4 1_555 1_555
P2_4 O7_4 1_555 1_555
C6_4 C7_4 1_555 1_555
C7_4 C8_4 1_555 1_555
C8_4 H4_4 1_555 1_555
C9_4 C8_4 1_555 1_555
H5_4 C9_4 1_555 1_555
H7_4 C13_4 1_555 1_555
C14_4 C13_4 1_555 1_555
H8_4 C14_4 1_555 1_555
C15_4 C14_4 1_555 1_555
H9_4 C15_4 1_555 1_555
C16_4 C17_4 1_555 1_555
C17_4 C18_4 1_555 1_555
C18_4 H10_4 1_555 1_555
C19_4 C17_4 1_555 1_555
H11_4 C19_4 1_555 1_555
C20_4 P1_4 1_555 1_555
C21_4 C20_4 1_555 1_555
H12_4 C21_4 1_555 1_555
C22_4 C18_4 1_555 1_555
H13_4 C22_4 1_555 1_555
C23_4 C7_4 1_555 1_555
H14_4 C23_4 1_555 1_555
C24_4 P1_4 1_555 1_555
C25_4 C9_4 1_555 1_555
H15_4 C25_4 1_555 1_555
C26_4 P1_4 1_555 1_555
C27_4 C26_4 1_555 1_555
H16_4 C27_4 1_555 1_555
C28_4 C27_4 1_555 1_555
C29_4 C28_4 1_555 1_555
H17_4 C29_4 1_555 1_555
C30_4 C29_4 1_555 1_555
H18_4 C30_4 1_555 1_555
C31_4 C26_4 1_555 1_555
H19_4 C31_4 1_555 1_555
C32_4 O15_4 1_555 1_555
C33_4 C34_4 1_555 1_555
C34_4 C35_4 1_555 1_555
C35_4 H20_4 1_555 1_555
C36_4 P2_4 1_555 1_555
C37_4 C36_4 1_555 1_555
H21_4 C37_4 1_555 1_555
C38_4 C37_4 1_555 1_555
H22_4 C38_4 1_555 1_555
C39_4 C34_4 1_555 1_555
H23_4 C39_4 1_555 1_555
C40_4 P2_4 1_555 1_555
Mn8 O10_4 1_555 1_555
O24_4 Mn1_4 1_555 1_555
O25_4 Mn2_4 1_555 1_555
C15_4 C40_4 1_555 1_555
C19_4 C20_4 1_555 1_555
C21_4 C22_4 1_555 1_555
C23_4 C24_4 1_555 1_555
C24_4 C25_4 1_555 1_555
C28_4 C32_4 1_555 1_555
C30_4 C31_4 1_555 1_555
C35_4 C36_4 1_555 1_555
C38_4 C39_4 1_555 1_555
O17_4 H27_4 1_555 1_555
O17_4 H28_4 1_555 1_555
O19_4 H29_4 1_555 1_555
O19_4 H30_3 1_555 1_555
Mn4 O3_5 1_555 1_555
Mn7 O3_5 1_555 1_555
Mn11_4 O14_5 1_555 1_555
O20_2 C5_5 1_555 1_555
O21_2 C5_5 1_555 1_555
O6_5 Mn4 1_555 1_555
O7_5 Mn4 1_555 1_555
O24_3 C10_5 1_555 1_555
O12_5 Mn7 1_555 1_555
O13_5 C10_5 1_555 1_555
O14_5 C32_5 1_555 1_555
O15_5 Mn11_4 1_555 1_555
O26_4 C33_5 1_555 1_555
O17_5 Mn11_4 1_555 1_555
O18_3 C33_5 1_555 1_555
P2_5 O7_5 1_555 1_555
C1_5 H1_5 1_555 1_555
C2_5 C1_5 1_555 1_555
C3_5 C2_5 1_555 1_555
H2_5 C3_5 1_555 1_555
C4_5 C3_5 1_555 1_555
H3_5 C4_5 1_555 1_555
C5_5 C2_5 1_555 1_555
C10_5 C12_5 1_555 1_555
C11_5 H6_5 1_555 1_555
C12_5 C11_5 1_555 1_555
C13_5 C12_5 1_555 1_555
H7_5 C13_5 1_555 1_555
C14_5 C13_5 1_555 1_555
H8_5 C14_5 1_555 1_555
C15_5 C14_5 1_555 1_555
H9_5 C15_5 1_555 1_555
C18_5 H10_5 1_555 1_555
C21_5 C20_5 1_555 1_555
H12_5 C21_5 1_555 1_555
C22_5 C18_5 1_555 1_555
H13_5 C22_5 1_555 1_555
C32_5 O15_5 1_555 1_555
C33_5 C34_5 1_555 1_555
C34_5 C35_5 1_555 1_555
C35_5 H20_5 1_555 1_555
C36_5 P2_5 1_555 1_555
C37_5 C36_5 1_555 1_555
H21_5 C37_5 1_555 1_555
C38_5 C37_5 1_555 1_555
H22_5 C38_5 1_555 1_555
C39_5 C34_5 1_555 1_555
H23_5 C39_5 1_555 1_555
C40_5 P2_5 1_555 1_555
C41_5 P2_5 1_555 1_555
C42_5 C4_5 1_555 1_555
H24_5 C42_5 1_555 1_555
Mn11 O18_3 1_555 1_555
C1_5 C41_5 1_555 1_555
C11_5 C40_5 1_555 1_555
C15_5 C40_5 1_555 1_555
C21_5 C22_5 1_555 1_555
C35_5 C36_5 1_555 1_555
C38_5 C39_5 1_555 1_555
C41_5 C42_5 1_555 1_555
O6_5 H25_5 1_555 1_555
O6_5 H26_5 1_555 1_555
O17_5 H27_5 1_555 1_555
O17_5 H28_5 1_555 1_555
O22_2 C6_5 1_555 1_555
O23_2 C6_5 1_555 1_555
O25_3 C16_5 1_555 1_555
O11_5 C16_5 1_555 1_555
C6_5 C7_5 1_555 1_555
C7_5 C8_5 1_555 1_555
C8_5 H4_5 1_555 1_555
C9_5 C8_5 1_555 1_555
H5_5 C9_5 1_555 1_555
C16_5 C17_5 1_555 1_555
C19_5 C17_5 1_555 1_555
H11_5 C19_5 1_555 1_555
C23_5 C7_5 1_555 1_555
H14_5 C23_5 1_555 1_555
C24_5 P1_5 1_555 1_555
C25_5 C9_5 1_555 1_555
H15_5 C25_5 1_555 1_555
C26_5 P1_5 1_555 1_555
C27_5 C26_5 1_555 1_555
H16_5 C27_5 1_555 1_555
C28_5 C27_5 1_555 1_555
C29_5 C28_5 1_555 1_555
H17_5 C29_5 1_555 1_555
C30_5 C29_5 1_555 1_555
H18_5 C30_5 1_555 1_555
C31_5 C26_5 1_555 1_555
H19_5 C31_5 1_555 1_555
C23_5 C24_5 1_555 1_555
C24_5 C25_5 1_555 1_555
C30_5 C31_5 1_555 1_555
O19_5 H29_5 1_555 1_555
O9_5 H31_5 1_555 1_555
O9_5 H32_5 1_555 1_555
Mn5 O3_6 1_555 1_555
Mn8 O3_6 1_555 1_555
Mn11_3 O14_6 1_555 1_555
O22 C6_6 1_555 1_555
O23 C6_6 1_555 1_555
O6_6 Mn5 1_555 1_555
O7_6 Mn5 1_555 1_555
O9_6 Mn8 1_555 1_555
O25_4 C16_6 1_555 1_555
O11_6 C16_6 1_555 1_555
O12_6 Mn8 1_555 1_555
O14_6 C32_6 1_555 1_555
O15_6 Mn11_3 1_555 1_555
O26_3 C33_6 1_555 1_555
O17_6 Mn11_3 1_555 1_555
O18_4 C33_6 1_555 1_555
O19_6 Mn11_3 1_555 1_555
P1_6 O12_6 1_555 1_555
P2_6 O7_6 1_555 1_555
C6_6 C7_6 1_555 1_555
C7_6 C8_6 1_555 1_555
C8_6 H4_6 1_555 1_555
C9_6 C8_6 1_555 1_555
H5_6 C9_6 1_555 1_555
H7_6 C13_6 1_555 1_555
C14_6 C13_6 1_555 1_555
H8_6 C14_6 1_555 1_555
C15_6 C14_6 1_555 1_555
H9_6 C15_6 1_555 1_555
C16_6 C17_6 1_555 1_555
C17_6 C18_6 1_555 1_555
C18_6 H10_6 1_555 1_555
C19_6 C17_6 1_555 1_555
H11_6 C19_6 1_555 1_555
C20_6 P1_6 1_555 1_555
C21_6 C20_6 1_555 1_555
H12_6 C21_6 1_555 1_555
C22_6 C18_6 1_555 1_555
H13_6 C22_6 1_555 1_555
C23_6 C7_6 1_555 1_555
H14_6 C23_6 1_555 1_555
C24_6 P1_6 1_555 1_555
C25_6 C9_6 1_555 1_555
H15_6 C25_6 1_555 1_555
C26_6 P1_6 1_555 1_555
C27_6 C26_6 1_555 1_555
H16_6 C27_6 1_555 1_555
C28_6 C27_6 1_555 1_555
C29_6 C28_6 1_555 1_555
H17_6 C29_6 1_555 1_555
C30_6 C29_6 1_555 1_555
H18_6 C30_6 1_555 1_555
C31_6 C26_6 1_555 1_555
H19_6 C31_6 1_555 1_555
C32_6 O15_6 1_555 1_555
C33_6 C34_6 1_555 1_555
C34_6 C35_6 1_555 1_555
C35_6 H20_6 1_555 1_555
C36_6 P2_6 1_555 1_555
C37_6 C36_6 1_555 1_555
H21_6 C37_6 1_555 1_555
C38_6 C37_6 1_555 1_555
H22_6 C38_6 1_555 1_555
C39_6 C34_6 1_555 1_555
H23_6 C39_6 1_555 1_555
C40_6 P2_6 1_555 1_555
Mn11_2 O18_4 1_555 1_555
C15_6 C40_6 1_555 1_555
C19_6 C20_6 1_555 1_555
C21_6 C22_6 1_555 1_555
C23_6 C24_6 1_555 1_555
C24_6 C25_6 1_555 1_555
C28_6 C32_6 1_555 1_555
C30_6 C31_6 1_555 1_555
C35_6 C36_6 1_555 1_555
C38_6 C39_6 1_555 1_555
O6_6 H26_6 1_555 1_555
O17_6 H27_6 1_555 1_555
O17_6 H28_6 1_555 1_555
O19_6 H29_6 1_555 1_555
O9_6 H31_6 1_555 1_555
O9_6 H32_6 1_555 1_555
O20 C5_6 1_555 1_555
O21 C5_6 1_555 1_555
O24_4 C10_6 1_555 1_555
O13_6 C10_6 1_555 1_555
C1_6 H1_6 1_555 1_555
C2_6 C1_6 1_555 1_555
C3_6 C2_6 1_555 1_555
H2_6 C3_6 1_555 1_555
C4_6 C3_6 1_555 1_555
H3_6 C4_6 1_555 1_555
C5_6 C2_6 1_555 1_555
C10_6 C12_6 1_555 1_555
C11_6 H6_6 1_555 1_555
C12_6 C11_6 1_555 1_555
C42_6 C4_6 1_555 1_555
H24_6 C42_6 1_555 1_555
C1_6 C41_6 1_555 1_555
C41_6 C42_6 1_555 1_555
Mn6 O3_7 1_555 1_555
Mn9 O3_7 1_555 1_555
Mn11_2 O14_7 1_555 1_555
O20_4 C5_7 1_555 1_555
O21_4 C5_7 1_555 1_555
O7_7 Mn6 1_555 1_555
O24 C10_7 1_555 1_555
O12_7 Mn9 1_555 1_555
O13_7 C10_7 1_555 1_555
O14_7 C32_7 1_555 1_555
O15_7 Mn11_2 1_555 1_555
O26_2 C33_7 1_555 1_555
O17_7 Mn11_2 1_555 1_555
O27_4 C33_7 1_555 1_555
P2_7 O7_7 1_555 1_555
C1_7 H1_7 1_555 1_555
C2_7 C1_7 1_555 1_555
C3_7 C2_7 1_555 1_555
H2_7 C3_7 1_555 1_555
C4_7 C3_7 1_555 1_555
H3_7 C4_7 1_555 1_555
C5_7 C2_7 1_555 1_555
C10_7 C12_7 1_555 1_555
C11_7 H6_7 1_555 1_555
C12_7 C11_7 1_555 1_555
C13_7 C12_7 1_555 1_555
H7_7 C13_7 1_555 1_555
C14_7 C13_7 1_555 1_555
H8_7 C14_7 1_555 1_555
C15_7 C14_7 1_555 1_555
H9_7 C15_7 1_555 1_555
C18_7 H10_7 1_555 1_555
C21_7 C20_7 1_555 1_555
H12_7 C21_7 1_555 1_555
C22_7 C18_7 1_555 1_555
H13_7 C22_7 1_555 1_555
C32_7 O15_7 1_555 1_555
C33_7 C34_7 1_555 1_555
C34_7 C35_7 1_555 1_555
C35_7 H20_7 1_555 1_555
C36_7 P2_7 1_555 1_555
C37_7 C36_7 1_555 1_555
H21_7 C37_7 1_555 1_555
C38_7 C37_7 1_555 1_555
H22_7 C38_7 1_555 1_555
C39_7 C34_7 1_555 1_555
H23_7 C39_7 1_555 1_555
C40_7 P2_7 1_555 1_555
C41_7 P2_7 1_555 1_555
C42_7 C4_7 1_555 1_555
H24_7 C42_7 1_555 1_555
C1_7 C41_7 1_555 1_555
C11_7 C40_7 1_555 1_555
C15_7 C40_7 1_555 1_555
C21_7 C22_7 1_555 1_555
C35_7 C36_7 1_555 1_555
C38_7 C39_7 1_555 1_555
C41_7 C42_7 1_555 1_555
O17_7 H27_7 1_555 1_555
O17_7 H28_7 1_555 1_555
O22_4 C6_7 1_555 1_555
O23_4 C6_7 1_555 1_555
O25 C16_7 1_555 1_555
O11_7 C16_7 1_555 1_555
C6_7 C7_7 1_555 1_555
C7_7 C8_7 1_555 1_555
C8_7 H4_7 1_555 1_555
C9_7 C8_7 1_555 1_555
H5_7 C9_7 1_555 1_555
C16_7 C17_7 1_555 1_555
C19_7 C17_7 1_555 1_555
H11_7 C19_7 1_555 1_555
C23_7 C7_7 1_555 1_555
H14_7 C23_7 1_555 1_555
C24_7 P1_7 1_555 1_555
C25_7 C9_7 1_555 1_555
H15_7 C25_7 1_555 1_555
C26_7 P1_7 1_555 1_555
C27_7 C26_7 1_555 1_555
H16_7 C27_7 1_555 1_555
C28_7 C27_7 1_555 1_555
C29_7 C28_7 1_555 1_555
H17_7 C29_7 1_555 1_555
C30_7 C29_7 1_555 1_555
H18_7 C30_7 1_555 1_555
C31_7 C26_7 1_555 1_555
H19_7 C31_7 1_555 1_555
C23_7 C24_7 1_555 1_555
C24_7 C25_7 1_555 1_555
C30_7 C31_7 1_555 1_555
O19_7 H29_7 1_555 1_555
O19_7 H30_5 1_555 1_555
O6_7 H26_7 1_555 1_555
O9_7 H32_7 1_555 1_555
Mn6_2 O3_8 1_555 1_555
Mn9_2 O3_8 1_555 1_555
Mn11 O14_8 1_555 1_555
O22_3 C6_8 1_555 1_555
O23_3 C6_8 1_555 1_555
O7_8 Mn6_2 1_555 1_555
O25_2 C16_8 1_555 1_555
O11_8 C16_8 1_555 1_555
O12_8 Mn9_2 1_555 1_555
O14_8 C32_8 1_555 1_555
O15_8 Mn11 1_555 1_555
O26 C33_8 1_555 1_555
O17_8 Mn11 1_555 1_555
O27_3 C33_8 1_555 1_555
O19_8 Mn11 1_555 1_555
P1_8 O12_8 1_555 1_555
P2_8 O7_8 1_555 1_555
C6_8 C7_8 1_555 1_555
C7_8 C8_8 1_555 1_555
C8_8 H4_8 1_555 1_555
C9_8 C8_8 1_555 1_555
H5_8 C9_8 1_555 1_555
H7_8 C13_8 1_555 1_555
C14_8 C13_8 1_555 1_555
H8_8 C14_8 1_555 1_555
C15_8 C14_8 1_555 1_555
H9_8 C15_8 1_555 1_555
C16_8 C17_8 1_555 1_555
C17_8 C18_8 1_555 1_555
C18_8 H10_8 1_555 1_555
C19_8 C17_8 1_555 1_555
H11_8 C19_8 1_555 1_555
C20_8 P1_8 1_555 1_555
C21_8 C20_8 1_555 1_555
H12_8 C21_8 1_555 1_555
C22_8 C18_8 1_555 1_555
H13_8 C22_8 1_555 1_555
C23_8 C7_8 1_555 1_555
H14_8 C23_8 1_555 1_555
C24_8 P1_8 1_555 1_555
C25_8 C9_8 1_555 1_555
H15_8 C25_8 1_555 1_555
C26_8 P1_8 1_555 1_555
C27_8 C26_8 1_555 1_555
H16_8 C27_8 1_555 1_555
C28_8 C27_8 1_555 1_555
C29_8 C28_8 1_555 1_555
H17_8 C29_8 1_555 1_555
C30_8 C29_8 1_555 1_555
H18_8 C30_8 1_555 1_555
C31_8 C26_8 1_555 1_555
H19_8 C31_8 1_555 1_555
C32_8 O15_8 1_555 1_555
C33_8 C34_8 1_555 1_555
C34_8 C35_8 1_555 1_555
C35_8 H20_8 1_555 1_555
C36_8 P2_8 1_555 1_555
C37_8 C36_8 1_555 1_555
H21_8 C37_8 1_555 1_555
C38_8 C37_8 1_555 1_555
H22_8 C38_8 1_555 1_555
C39_8 C34_8 1_555 1_555
H23_8 C39_8 1_555 1_555
C40_8 P2_8 1_555 1_555
C15_8 C40_8 1_555 1_555
C19_8 C20_8 1_555 1_555
C21_8 C22_8 1_555 1_555
C23_8 C24_8 1_555 1_555
C24_8 C25_8 1_555 1_555
C28_8 C32_8 1_555 1_555
C30_8 C31_8 1_555 1_555
C35_8 C36_8 1_555 1_555
C38_8 C39_8 1_555 1_555
O17_8 H27_8 1_555 1_555
O17_8 H28_8 1_555 1_555
O19_8 H29_8 1_555 1_555
O19_8 H30_6 1_555 1_555
O20_3 C5_8 1_555 1_555
O21_3 C5_8 1_555 1_555
O24_2 C10_8 1_555 1_555
O13_8 C10_8 1_555 1_555
C1_8 H1_8 1_555 1_555
C2_8 C1_8 1_555 1_555
C3_8 C2_8 1_555 1_555
H2_8 C3_8 1_555 1_555
C4_8 C3_8 1_555 1_555
H3_8 C4_8 1_555 1_555
C5_8 C2_8 1_555 1_555
C10_8 C12_8 1_555 1_555
C11_8 H6_8 1_555 1_555
C12_8 C11_8 1_555 1_555
C42_8 C4_8 1_555 1_555
H24_8 C42_8 1_555 1_555
C1_8 C41_8 1_555 1_555
C41_8 C42_8 1_555 1_555
O6_8 H26_8 1_555 1_555
O9_8 H32_8 1_555 1_555

#END
