
###############################################################################
#
# This file contains modified crystal structure data generated from the
# MOF subset of the Cambridge Structural Database (CSD) v543 
# hosted by the Cambridge Crystallographic Data Centre (CCDC).
#
# This work is licensed under the Creative Commons
# Attribution-NonCommercial-ShareAlike 4.0 International License.
# To view a copy of this license, visit
# http://creativecommons.org/licenses/by-nc-sa/4.0/
# or send a letter to
# Creative Commons, PO Box 1866, Mountain View, CA 94042, USA.
#
# CIF created using the CSD Python API on 29 September 2022
# The structure has been converted into the P1 space group
# The structure has a 3D framework
# The original CSD entry BEVZUZ is in the monoclinic crystal system
# The framework has been calculated to contain at least 10.0% void space
# The void calculation uses a probe of radius 1.32A, grid spacing 0.4
#
###############################################################################

data_BEVZUZ
_chemical_formula_moiety         '(C308 H244 N64 O24 Zn12)n'
_symmetry_cell_setting           triclinic
_symmetry_space_group_name_H-M   'P 1'
_symmetry_Int_Tables_number      1
_space_group_name_Hall           'P 1'
loop_
_symmetry_equiv_pos_site_id
_symmetry_equiv_pos_as_xyz
1 x,y,z
_cell_length_a                   22.1947(6)
_cell_length_b                   12.6975(3)
_cell_length_c                   28.1501(6)
_cell_angle_alpha                90
_cell_angle_beta                 112.1040(10)
_cell_angle_gamma                90
_cell_volume                     7350.11
loop_
_atom_site_label
_atom_site_type_symbol
_atom_site_fract_x
_atom_site_fract_y
_atom_site_fract_z
C58 C 0.1333(2) 0.0094(4) 0.83804(18)
C59 C 0.1702(3) 0.0608(4) 0.8833(2)
H44 H 0.1962 0.0215 0.9126
C60 C 0.1688(3) 0.1707(5) 0.8854(2)
H45 H 0.1932 0.2056 0.9166
C61 C 0.1332(3) 0.2286(4) 0.8437(3)
H46 H 0.1335 0.3033 0.8456
C62 C 0.0971(3) 0.1793(4) 0.7994(2)
H47 H 0.0718 0.2197 0.7703
C63 C 0.0969(3) 0.0702(4) 0.7962(2)
H48 H 0.0715 0.0367 0.7649
H51 H 0.0009 0.0306 0.8996
H83 H 0.3046 0.0329 0.5675
C107 C 0.2191(3) 0.2145(4) 0.44924(18)
H85 H 0.2101 0.1826 0.4168
C108 C 0.2738(3) 0.2766(5) 0.4710(2)
H86 H 0.3022 0.2875 0.4532
C109 C 0.2874(3) 0.3224(5) 0.5181(2)
H87 H 0.3253 0.3643 0.5332
C110 C 0.2453(3) 0.3072(5) 0.5433(2)
H88 H 0.2540 0.3395 0.5757
C111 C 0.1909(3) 0.2456(4) 0.5218(2)
H89 H 0.1623 0.2349 0.5393
C112 C 0.1781(2) 0.1993(4) 0.47460(17)
C113 C 0.1163(2) 0.0419(4) 0.42812(17)
C114 C 0.0501(2) 0.0138(4) 0.41129(17)
C115 C 0.0200(2) 0.0981(4) 0.42846(17)
N23 N 0.1213(2) 0.1374(3) 0.45221(15)
N24 N 0.0629(2) 0.1716(3) 0.45319(15)
Zn9 Zn 0.44875(3) 0.07654(4) 0.631493(19)
Zn3 Zn 0.05125(3) 0.57654(4) 0.868507(19)
C2 C 0.0006(3) 0.7254(5) 0.7078(2)
H2 H 0.0409 0.6917 0.7132
H3 H 0.0357 0.8752 0.7190
H29 H 0.0569 0.0068 0.5334
C41 C 0.0507(2) 0.0921(4) 0.64241(19)
H30 H 0.0729 0.0261 0.6396
H31 H 0.0650 0.1100 0.6792
C42 C 0.0709(3) 0.1800(4) 0.6147(2)
H32 H 0.1182 0.1889 0.6300
H33 H 0.0497 0.2458 0.6180
H34 H 0.0578 0.1619 0.5784
C45 C 0.0213(2) 0.3963(4) 0.73186(18)
H35 H 0.0481 0.3751 0.7140
C46 C 0.0459(2) 0.4609(4) 0.77433(18)
H36 H 0.0898 0.4838 0.7851
C49 C 0.2435(3) 0.5877(4) 0.8292(2)
H39 H 0.2350 0.5645 0.8582
C50 C 0.2771(3) 0.5234(4) 0.8077(2)
H40 H 0.2912 0.4556 0.8218
C51 C 0.2899(3) 0.5568(5) 0.7664(2)
H41 H 0.3123 0.5121 0.7515
C52 C 0.2703(3) 0.6557(5) 0.7463(2)
H42 H 0.2799 0.6797 0.7180
C53 C 0.2366(3) 0.7200(5) 0.7673(2)
H43 H 0.2231 0.7881 0.7534
C54 C 0.2226(2) 0.6851(4) 0.80840(18)
C55 C 0.1357(2) 0.7176(4) 0.84280(16)
C56 C 0.1017(2) 0.8108(4) 0.84571(17)
C57 C 0.1377(2) 0.8939(4) 0.83484(17)
C64 C 0.0406(2) 0.8145(4) 0.85210(16)
C65 C 0.0054(2) 0.9160(4) 0.84912(18)
H50 H 0.0163 0.9657 0.8265
C66 C 0.0241(3) 0.9639(4) 0.90215(19)
H52 H 0.0711 0.9769 0.9167
H53 H 0.0124 0.9152 0.9243
N10 N 0.00999(19) 0.4928(3) 0.80112(14)
N11 N 0.18480(19) 0.7496(3) 0.82799(14)
N12 N 0.1869(2) 0.8582(3) 0.82315(15)
N13 N 0.01588(19) 0.7246(3) 0.86086(14)
O5 O 0.12674(15) 0.6217(2) 0.85017(12)
C78 C 0.0855(3) 0.6480(4) 0.4665(2)
H62 H 0.0965 0.7202 0.4662
C79 C 0.0412(3) 0.6208(4) 0.4874(2)
H63 H 0.0220 0.6738 0.5010
C80 C 0.0243(3) 0.5165(4) 0.4889(2)
C81 C 0.0556(3) 0.4425(5) 0.4698(3)
H64 H 0.0467 0.3696 0.4709
C82 C 0.0990(3) 0.4759(5) 0.4496(3)
H65 H 0.1201 0.4243 0.4369
N17 N 0.1140(2) 0.5775(3) 0.44645(16)
Zn4 Zn 0.17293(3) 0.61485(5) 0.40852(2)
Zn5 Zn 0.16062(3) 0.86017(4) 0.39090(2)
C83 C 0.0561(3) 0.3336(5) 0.3040(2)
H66 H 0.0544 0.4081 0.3067
C85 C 0.0026(4) 0.1658(5) 0.2886(2)
C86 C 0.0601(4) 0.1175(5) 0.2960(2)
H69 H 0.0615 0.0431 0.2934
C87 C 0.1169(3) 0.1760(4) 0.3072(2)
H70 H 0.1568 0.1420 0.3119
C88 C 0.1141(3) 0.2857(4) 0.31160(18)
C89 C 0.1893(3) 0.4349(4) 0.35441(18)
C90 C 0.2552(2) 0.4537(4) 0.36410(18)
C91 C 0.2737(3) 0.3701(4) 0.33903(19)
C92 C 0.3362(3) 0.3422(4) 0.3349(2)
C93 C 0.3713(4) 0.2591(6) 0.3642(3)
H71 H 0.3549 0.2243 0.3867
C94 C 0.4279(4) 0.2256(8) 0.3619(3)
H72 H 0.4502 0.1667 0.3816
C95 C 0.4524(4) 0.2773(7) 0.3312(3)
H73 H 0.4936 0.2567 0.3313
C96 C 0.4198(4) 0.3584(6) 0.2999(3)
H74 H 0.4367 0.3912 0.2772
C97 C 0.3598(4) 0.3919(5) 0.3023(3)
H75 H 0.3362 0.4484 0.2814
C98 C 0.2948(2) 0.5351(4) 0.39760(17)
C99 C 0.3653(2) 0.5423(4) 0.40965(17)
H76 H 0.3758 0.5093 0.3818
H77 H 0.3786 0.6172 0.4122
C100 C 0.4028(3) 0.4865(5) 0.4604(2)
H78 H 0.4496 0.4916 0.4680
H79 H 0.3929 0.5198 0.4879
H80 H 0.3901 0.4121 0.4576
C101 C 0.2760(2) 0.7468(4) 0.46680(17)
C102 C 0.3160(2) 0.8272(4) 0.50359(16)
C103 C 0.3834(2) 0.8264(4) 0.52115(18)
H81 H 0.4053 0.7736 0.5099
C104 C 0.4181(2) 0.9027(4) 0.55503(18)
H82 H 0.4641 0.9023 0.5659
C105 C 0.3254(2) 0.9794(4) 0.55562(17)
C106 C 0.2877(2) 0.9079(4) 0.52098(17)
H84 H 0.2417 0.9135 0.5087
C122 C 0.0211(2) 0.9260(4) 0.37885(17)
C125 C 0.0688(2) 0.7169(4) 0.32551(17)
C126 C 0.0420(2) 0.6371(4) 0.28429(17)
C129 C 0.0529(3) 0.5356(4) 0.21719(18)
H102 H 0.0795 0.5114 0.1997
C130 C 0.0811(2) 0.5977(4) 0.25990(17)
H103 H 0.1262 0.6133 0.2724
H114 H 0.0421 0.0966 0.1658
C149 C 0.0640(2) 0.3605(4) 0.12453(16)
C150 C 0.1313(2) 0.3675(4) 0.12688(16)
C151 C 0.1800(2) 0.2979(4) 0.15577(17)
H119 H 0.1706 0.2441 0.1754
C152 C 0.2411(2) 0.3074(4) 0.15573(17)
H120 H 0.2733 0.2589 0.1756
C153 C 0.2120(2) 0.4510(4) 0.10268(17)
H121 H 0.2233 0.5058 0.0846
C154 C 0.1494(2) 0.4468(4) 0.10054(17)
H122 H 0.1185 0.4976 0.0812
N18 N 0.1722(2) 0.3454(3) 0.32488(15)
N19 N 0.2247(2) 0.3041(3) 0.31631(16)
N20 N 0.2661(2) 0.6010(3) 0.41907(14)
N21 N 0.30781(19) 0.6740(3) 0.45344(14)
N22 N 0.3904(2) 0.9776(3) 0.57352(13)
N25 N 0.06046(19) 0.8611(3) 0.36775(14)
N26 N 0.02776(19) 0.7826(3) 0.33176(14)
N31 N 0.04729(19) 0.2695(3) 0.13937(14)
N32 N 0.25847(19) 0.3815(3) 0.12922(14)
O7 O 0.14793(17) 0.4828(3) 0.36814(13)
O8 O 0.21198(16) 0.7560(2) 0.45099(11)
O9 O 0.16576(16) 0.9976(3) 0.42386(12)
O10 O 0.13236(15) 0.7189(3) 0.35029(11)
O12 O 0.02714(16) 0.4421(2) 0.10898(11)
Zn8 Zn 0.33938(3) 0.36017(4) 0.10910(2)
N34 N 0.1096(2) 0.4776(3) 0.92648(13)
N36 N 0.24153(19) 0.8815(3) 0.37078(14)
Zn1 Zn 0.82707(3) 0.38515(5) 0.59148(2)
Zn2 Zn 0.83938(3) 0.13983(4) 0.60910(2)
C1 C 0.9439(3) 0.6664(5) 0.6960(2)
H1 H 0.9456 0.5919 0.6933
C3 C 0.9974(4) 0.8342(5) 0.7114(2)
C4 C 0.9399(4) 0.8825(5) 0.7040(2)
H4 H 0.9385 0.9569 0.7066
C5 C 0.8831(3) 0.8240(4) 0.6928(2)
H5 H 0.8432 0.8580 0.6881
C6 C 0.8859(3) 0.7143(4) 0.68840(18)
C7 C 0.8107(3) 0.5651(4) 0.64559(18)
C8 C 0.7448(2) 0.5463(4) 0.63590(18)
C9 C 0.7263(3) 0.6299(4) 0.66097(19)
C10 C 0.6638(3) 0.6578(4) 0.6651(2)
C11 C 0.6287(4) 0.7409(6) 0.6358(3)
H6 H 0.6451 0.7757 0.6133
C12 C 0.5721(4) 0.7744(8) 0.6381(3)
H7 H 0.5498 0.8333 0.6184
C13 C 0.5476(4) 0.7227(7) 0.6688(3)
H8 H 0.5064 0.7433 0.6687
C14 C 0.5802(4) 0.6416(6) 0.7001(3)
H9 H 0.5633 0.6088 0.7228
C15 C 0.6402(4) 0.6081(5) 0.6977(3)
H10 H 0.6638 0.5516 0.7186
C16 C 0.7052(2) 0.4649(4) 0.60240(17)
C17 C 0.6347(2) 0.4577(4) 0.59035(17)
H11 H 0.6242 0.4907 0.6182
H12 H 0.6214 0.3828 0.5878
C18 C 0.5972(3) 0.5135(5) 0.5396(2)
H13 H 0.5504 0.5084 0.5320
H14 H 0.6071 0.4802 0.5121
H15 H 0.6099 0.5879 0.5424
C19 C 0.7240(2) 0.2532(4) 0.53320(17)
C20 C 0.6840(2) 0.1728(4) 0.49641(16)
C21 C 0.6166(2) 0.1736(4) 0.47885(18)
H16 H 0.5947 0.2264 0.4901
C22 C 0.5819(2) 0.0973(4) 0.44497(18)
H17 H 0.5359 0.0977 0.4341
C23 C 0.6746(2) 0.0206(4) 0.44438(17)
C24 C 0.7123(2) 0.0921(4) 0.47902(17)
H19 H 0.7583 0.0865 0.4913
C40 C 0.9789(2) 0.0740(4) 0.62115(17)
C43 C 0.9312(2) 0.2831(4) 0.67449(17)
C44 C 0.9580(2) 0.3629(4) 0.71571(17)
C47 C 0.9471(3) 0.4644(4) 0.78281(18)
H37 H 0.9205 0.4886 0.8003
C48 C 0.9189(2) 0.4023(4) 0.74010(17)
H38 H 0.8738 0.3867 0.7276
H49 H 0.9579 0.9034 0.8342
C67 C 0.9360(2) 0.6395(4) 0.87547(16)
C68 C 0.8687(2) 0.6325(4) 0.87312(16)
C69 C 0.8200(2) 0.7021(4) 0.84423(17)
H54 H 0.8294 0.7559 0.8246
C70 C 0.7589(2) 0.6926(4) 0.84427(17)
H55 H 0.7267 0.7411 0.8244
C71 C 0.7880(2) 0.5490(4) 0.89732(17)
H56 H 0.7767 0.4942 0.9154
C72 C 0.8506(2) 0.5532(4) 0.89946(17)
H57 H 0.8815 0.5024 0.9188
C73 C 0.9145(3) 0.3520(4) 0.5335(2)
H58 H 0.9035 0.2798 0.5338
C74 C 0.9588(3) 0.3792(4) 0.5126(2)
H59 H 0.9780 0.3262 0.4990
C75 C 0.9757(3) 0.4835(4) 0.5111(2)
C76 C 0.9444(3) 0.5575(5) 0.5302(3)
H60 H 0.9533 0.6304 0.5291
C77 C 0.9010(3) 0.5241(5) 0.5504(3)
H61 H 0.8799 0.5757 0.5631
N1 N 0.8278(2) 0.6546(3) 0.67512(15)
N2 N 0.7753(2) 0.6959(3) 0.68369(16)
N3 N 0.7339(2) 0.3990(3) 0.58093(14)
N4 N 0.69219(19) 0.3260(3) 0.54656(14)
N5 N 0.6096(2) 0.0224(3) 0.42648(13)
N8 N 0.93954(19) 0.1389(3) 0.63225(14)
N9 N 0.97224(19) 0.2174(3) 0.66824(14)
N14 N 0.95271(19) 0.7305(3) 0.86063(14)
N15 N 0.74153(19) 0.6185(3) 0.87078(14)
N16 N 0.8860(2) 0.4225(3) 0.55355(16)
O1 O 0.85207(17) 0.5172(3) 0.63186(13)
O2 O 0.78802(16) 0.2440(2) 0.54901(11)
O3 O 0.83424(16) 0.0024(3) 0.57614(12)
O4 O 0.86764(15) 0.2811(3) 0.64971(11)
O6 O 0.97286(16) 0.5579(2) 0.89102(11)
Zn6 Zn 0.94875(3) 0.42346(4) 0.131493(19)
C84 C 0.9994(3) 0.2746(5) 0.2922(2)
H67 H 0.9591 0.3083 0.2868
H68 H 0.9643 0.1248 0.2810
H94 H 0.9431 0.9932 0.4666
C123 C 0.9493(2) 0.9079(4) 0.35759(19)
H95 H 0.9271 0.9739 0.3604
H96 H 0.9350 0.8900 0.3208
C124 C 0.9291(3) 0.8200(4) 0.3853(2)
H97 H 0.8818 0.8111 0.3700
H98 H 0.9503 0.7542 0.3820
H99 H 0.9422 0.8381 0.4216
C127 C 0.9787(2) 0.6037(4) 0.26814(18)
H100 H 0.9519 0.6249 0.2860
C128 C 0.9541(2) 0.5391(4) 0.22567(18)
H101 H 0.9102 0.5162 0.2149
C131 C 0.7565(3) 0.4123(4) 0.1708(2)
H104 H 0.7650 0.4355 0.1418
C132 C 0.7229(3) 0.4766(4) 0.1923(2)
H105 H 0.7088 0.5444 0.1782
C133 C 0.7101(3) 0.4432(5) 0.2336(2)
H106 H 0.6877 0.4879 0.2485
C134 C 0.7297(3) 0.3443(5) 0.2537(2)
H107 H 0.7201 0.3203 0.2820
C135 C 0.7634(3) 0.2800(5) 0.2327(2)
H108 H 0.7769 0.2119 0.2466
C136 C 0.7774(2) 0.3149(4) 0.19160(18)
C137 C 0.8643(2) 0.2824(4) 0.15720(16)
C138 C 0.8983(2) 0.1892(4) 0.15429(17)
C139 C 0.8623(2) 0.1061(4) 0.16516(17)
C146 C 0.9594(2) 0.1855(4) 0.14790(16)
C147 C 0.9946(2) 0.0840(4) 0.15088(18)
H115 H 0.9837 0.0343 0.1735
C148 C 0.9759(3) 0.0361(4) 0.09785(19)
H117 H 0.9289 0.0231 0.0833
H118 H 0.9876 0.0848 0.0757
N27 N 0.99001(19) 0.5072(3) 0.19888(14)
N28 N 0.81520(19) 0.2504(3) 0.17201(14)
N29 N 0.8131(2) 0.1418(3) 0.17685(15)
N30 N 0.98412(19) 0.2754(3) 0.13914(14)
O11 O 0.87326(15) 0.3783(2) 0.14983(12)
Zn7 Zn 0.66062(3) 0.63983(4) 0.89090(2)
N33 N 0.8904(2) 0.5224(3) 0.07352(13)
N35 N 0.75847(19) 0.1185(3) 0.62922(14)
H18 H 0.6954 0.9671 0.4325
C25 C 0.7809(3) 0.7855(4) 0.55076(18)
H20 H 0.7899 0.8174 0.5832
C26 C 0.7262(3) 0.7234(5) 0.5290(2)
H21 H 0.6978 0.7125 0.5468
C27 C 0.7126(3) 0.6776(5) 0.4819(2)
H22 H 0.6747 0.6357 0.4668
C28 C 0.7547(3) 0.6928(5) 0.4567(2)
H23 H 0.7460 0.6605 0.4243
C29 C 0.8091(3) 0.7544(4) 0.4782(2)
H24 H 0.8377 0.7651 0.4607
C30 C 0.8219(2) 0.8007(4) 0.52540(17)
C31 C 0.8837(2) 0.9581(4) 0.57188(17)
C32 C 0.9499(2) 0.9862(4) 0.58871(17)
C33 C 0.9800(2) 0.9019(4) 0.57154(17)
N6 N 0.8787(2) 0.8626(3) 0.54779(15)
N7 N 0.9371(2) 0.8284(3) 0.54681(15)
C140 C 0.8667(2) 0.9906(4) 0.16196(18)
C141 C 0.8298(3) 0.9392(4) 0.1167(2)
H109 H 0.8038 0.9785 0.0874
C142 C 0.8312(3) 0.8293(5) 0.1146(2)
H110 H 0.8068 0.7944 0.0834
C143 C 0.8668(3) 0.7714(4) 0.1563(3)
H111 H 0.8665 0.6967 0.1544
C144 C 0.9029(3) 0.8207(4) 0.2006(2)
H112 H 0.9282 0.7803 0.2297
C145 C 0.9031(3) 0.9298(4) 0.2038(2)
H113 H 0.9285 0.9633 0.2351
H116 H 0.9991 0.9694 0.1004
Zn10 Zn 0.55125(3) 0.92346(4) 0.368507(19)
C78_2 C 0.4145(3) 0.1480(4) 0.0335(2)
H62_2 H 0.4035 0.2202 0.0338
C79_2 C 0.4588(3) 0.1208(4) 0.0126(2)
C80_2 C 0.4757(3) 0.0165(4) 0.0111(2)
N17_2 N 0.3860(2) 0.0775(3) 0.05355(16)
Zn4_2 Zn 0.32707(3) 0.11485(5) 0.09148(2)
C98_2 C 0.2052(2) 0.0351(4) 0.10240(17)
C99_2 C 0.1347(2) 0.0423(4) 0.09035(17)
H76_2 H 0.1242 0.0093 0.1182
H77_2 H 0.1214 0.1172 0.0878
H79_2 H 0.1071 0.0198 0.0121
C101_2 C 0.2240(2) 0.2468(4) 0.03320(17)
C107_2 C 0.2809(3) 0.7145(4) 0.05076(18)
H85_2 H 0.2899 0.6826 0.0832
C108_2 C 0.2262(3) 0.7766(5) 0.0290(2)
H86_2 H 0.1978 0.7875 0.0468
C112_2 C 0.3219(2) 0.6993(4) 0.02540(17)
C113_2 C 0.3837(2) 0.5419(4) 0.07188(17)
C114_2 C 0.4499(2) 0.5138(4) 0.08871(17)
C115_2 C 0.4800(2) 0.5981(4) 0.07154(17)
C116 C 0.5479(3) 0.6166(4) 0.07616(19)
C117 C 0.5806(3) 0.7061(4) 0.1028(2)
H90 H 0.5602 0.7511 0.1192
C118 C 0.6429(3) 0.7287(5) 0.1051(2)
H91 H 0.6652 0.7890 0.1232
C119 C 0.6725(3) 0.6638(5) 0.0811(2)
H92 H 0.7151 0.6793 0.0827
C120 C 0.6402(3) 0.5770(5) 0.0549(2)
H93 H 0.6608 0.5323 0.0385
C121 C 0.5786(3) 0.5534(4) 0.05208(19)
H94_2 H 0.5569 0.4932 0.0334
C122_2 C 0.4789(2) 0.4260(4) 0.12115(17)
C123_2 C 0.5507(2) 0.4079(4) 0.14241(19)
H95_2 H 0.5729 0.4739 0.1396
H96_2 H 0.5650 0.3900 0.1792
C124_2 C 0.5709(3) 0.3200(4) 0.1147(2)
H97_2 H 0.6182 0.3111 0.1300
H98_2 H 0.5497 0.2542 0.1180
H99_2 H 0.5578 0.3381 0.0784
C125_2 C 0.4312(2) 0.2169(4) 0.17449(17)
C126_2 C 0.4580(2) 0.1371(4) 0.21571(17)
C127_2 C 0.5213(2) 0.1037(4) 0.23186(18)
H100_2 H 0.5481 0.1249 0.2140
C128_2 C 0.5459(2) 0.0391(4) 0.27433(18)
H101_2 H 0.5898 0.0162 0.2851
C129_2 C 0.4471(3) 0.0356(4) 0.28281(18)
H102_2 H 0.4205 0.0114 0.3003
C130_2 C 0.4189(2) 0.0977(4) 0.24010(17)
H103_2 H 0.3738 0.1133 0.2276
H105_2 H 0.7912 0.0444 0.3218
H121_2 H 0.2767 0.0058 0.4154
N20_2 N 0.2339(2) 0.1010(3) 0.08093(14)
N21_2 N 0.19219(19) 0.1740(3) 0.04656(14)
N23_2 N 0.3787(2) 0.6374(3) 0.04779(15)
N24_2 N 0.4371(2) 0.6716(3) 0.04681(15)
N25_2 N 0.43954(19) 0.3611(3) 0.13225(14)
N26_2 N 0.47224(19) 0.2826(3) 0.16824(14)
N27_2 N 0.50999(19) 0.0072(3) 0.30112(14)
O8_2 O 0.28802(16) 0.2560(2) 0.04901(11)
O9_2 O 0.33424(16) 0.4976(3) 0.07614(12)
O10_2 O 0.36764(15) 0.2189(3) 0.14971(11)
C1_2 C 0.5561(3) 0.1664(5) 0.8040(2)
H1_2 H 0.5544 0.0919 0.8067
C2_2 C 0.4994(3) 0.2254(5) 0.7922(2)
H2_2 H 0.4591 0.1917 0.7868
C3_2 C 0.5026(4) 0.3342(5) 0.7886(2)
H3_2 H 0.4643 0.3752 0.7810
C4_2 C 0.5601(4) 0.3825(5) 0.7960(2)
H4_2 H 0.5615 0.4569 0.7934
C5_2 C 0.6169(3) 0.3240(4) 0.8072(2)
H5_2 H 0.6568 0.3580 0.8119
C6_2 C 0.6141(3) 0.2143(4) 0.81160(18)
C7_2 C 0.6893(3) 0.0651(4) 0.85441(18)
C8_2 C 0.7552(2) 0.0463(4) 0.86410(18)
C9_2 C 0.7737(3) 0.1299(4) 0.83903(19)
C10_2 C 0.8362(3) 0.1578(4) 0.8349(2)
C11_2 C 0.8713(4) 0.2409(6) 0.8642(3)
H6_2 H 0.8549 0.2757 0.8867
C12_2 C 0.9279(4) 0.2744(8) 0.8619(3)
H7_2 H 0.9502 0.3333 0.8816
C13_2 C 0.9524(4) 0.2227(7) 0.8312(3)
H8_2 H 0.9936 0.2433 0.8313
C14_2 C 0.9198(4) 0.1416(6) 0.7999(3)
H9_2 H 0.9367 0.1088 0.7772
C15_2 C 0.8598(4) 0.1081(5) 0.8023(3)
H10_2 H 0.8362 0.0516 0.7814
C18_2 C 0.9028(3) 0.0135(5) 0.9604(2)
H13_2 H 0.9496 0.0084 0.9680
H15_2 H 0.8901 0.0879 0.9576
C49_2 C 0.2565(3) 0.0877(4) 0.6708(2)
H39_2 H 0.2650 0.0645 0.6418
C50_2 C 0.2229(3) 0.0234(4) 0.6923(2)
C51_2 C 0.2101(3) 0.0568(5) 0.7336(2)
H41_2 H 0.1877 0.0121 0.7485
C52_2 C 0.2297(3) 0.1557(5) 0.7537(2)
H42_2 H 0.2201 0.1797 0.7820
C53_2 C 0.2634(3) 0.2200(5) 0.7327(2)
H43_2 H 0.2769 0.2881 0.7466
C54_2 C 0.2774(2) 0.1851(4) 0.69160(18)
C55_2 C 0.3643(2) 0.2176(4) 0.65720(16)
C56_2 C 0.3983(2) 0.3108(4) 0.65429(17)
C57_2 C 0.3623(2) 0.3939(4) 0.66516(17)
C58_2 C 0.3667(2) 0.5094(4) 0.66196(18)
C59_2 C 0.3298(3) 0.5608(4) 0.6167(2)
H44_2 H 0.3038 0.5215 0.5874
C60_2 C 0.3312(3) 0.6707(5) 0.6146(2)
H45_2 H 0.3068 0.7056 0.5834
C61_2 C 0.3668(3) 0.7286(4) 0.6563(3)
H46_2 H 0.3665 0.8033 0.6544
C62_2 C 0.4029(3) 0.6793(4) 0.7006(2)
H47_2 H 0.4282 0.7197 0.7297
C63_2 C 0.4031(3) 0.5702(4) 0.7038(2)
H48_2 H 0.4285 0.5367 0.7351
C64_2 C 0.4594(2) 0.3145(4) 0.64790(16)
C65_2 C 0.4946(2) 0.4160(4) 0.65088(18)
H49_2 H 0.5421 0.4034 0.6658
H50_2 H 0.4837 0.4657 0.6735
C66_2 C 0.4759(3) 0.4639(4) 0.59785(19)
H51_2 H 0.4991 0.5306 0.6004
H52_2 H 0.4289 0.4769 0.5833
H53_2 H 0.4876 0.4152 0.5757
C67_2 C 0.5640(2) 0.1395(4) 0.62453(16)
C68_2 C 0.6313(2) 0.1325(4) 0.62688(16)
C69_2 C 0.6800(2) 0.2021(4) 0.65577(17)
H54_2 H 0.6706 0.2559 0.6754
C70_2 C 0.7411(2) 0.1926(4) 0.65573(17)
H55_2 H 0.7733 0.2411 0.6756
C71_2 C 0.7120(2) 0.0490(4) 0.60268(17)
C72_2 C 0.6494(2) 0.0532(4) 0.60054(17)
H57_2 H 0.6185 0.0024 0.5812
C76_2 C 0.5556(3) 0.0575(5) 0.9698(3)
H60_2 H 0.5467 0.1304 0.9709
C77_2 C 0.5990(3) 0.0241(5) 0.9496(3)
H61_2 H 0.6201 0.0757 0.9369
N1_2 N 0.6722(2) 0.1546(3) 0.82488(15)
N2_2 N 0.7247(2) 0.1959(3) 0.81631(16)
N11_2 N 0.31520(19) 0.2496(3) 0.67201(14)
N12_2 N 0.3131(2) 0.3582(3) 0.67685(15)
N13_2 N 0.48412(19) 0.2246(3) 0.63914(14)
N14_2 N 0.54729(19) 0.2305(3) 0.63937(14)
O1_2 O 0.64793(17) 0.0172(3) 0.86814(13)
O5_2 O 0.37326(15) 0.1217(2) 0.64983(12)
O6_2 O 0.52714(16) 0.0579(2) 0.60898(11)
H63_2 H 0.4780 0.1738 0.9990
C102_2 C 0.1840(2) 0.3272(4) 0.99641(16)
C103_2 C 0.1166(2) 0.3264(4) 0.97885(18)
H81_2 H 0.0947 0.2736 0.9901
C104_2 C 0.0819(2) 0.4027(4) 0.94497(18)
H82_2 H 0.0359 0.4023 0.9341
C105_2 C 0.1746(2) 0.4794(4) 0.94438(17)
H83_2 H 0.1954 0.5329 0.9325
C106_2 C 0.2123(2) 0.4079(4) 0.97902(17)
H84_2 H 0.2583 0.4135 0.9913
C109_2 C 0.2126(3) 0.8224(5) 0.9819(2)
H87_2 H 0.1747 0.8643 0.9668
C110_2 C 0.2547(3) 0.8072(5) 0.9567(2)
H88_2 H 0.2460 0.8395 0.9243
C111_2 C 0.3091(3) 0.7456(4) 0.9782(2)
H89_2 H 0.3377 0.7349 0.9607
C20_2 C 0.8160(2) 0.6728(4) 0.00359(16)
C21_2 C 0.8834(2) 0.6736(4) 0.02115(18)
H16_2 H 0.9053 0.7264 0.0099
C22_2 C 0.9181(2) 0.5973(4) 0.05503(18)
H17_2 H 0.9641 0.5977 0.0659
C23_2 C 0.8254(2) 0.5206(4) 0.05562(17)
H18_2 H 0.8046 0.4671 0.0675
C24_2 C 0.7877(2) 0.5921(4) 0.02098(17)
H19_2 H 0.7417 0.5865 0.0087
C27_2 C 0.7874(3) 0.1776(5) 0.0181(2)
H22_2 H 0.8253 0.1357 0.0332
C28_2 C 0.7453(3) 0.1928(5) 0.0433(2)
H23_2 H 0.7540 0.1605 0.0757
C29_2 C 0.6909(3) 0.2544(4) 0.0218(2)
H24_2 H 0.6623 0.2651 0.0393
H59_2 H 0.5220 0.8262 0.0010
C81_2 C 0.4444(3) 0.9425(5) 0.0302(3)
H64_2 H 0.4533 0.8696 0.0291
C82_2 C 0.4010(3) 0.9759(5) 0.0504(3)
H65_2 H 0.3799 0.9243 0.0631
C83_2 C 0.4439(3) 0.8336(5) 0.1960(2)
H66_2 H 0.4456 0.9081 0.1933
C84_2 C 0.5006(3) 0.7746(5) 0.2078(2)
H67_2 H 0.5409 0.8083 0.2132
C85_2 C 0.4974(4) 0.6658(5) 0.2114(2)
H68_2 H 0.5357 0.6248 0.2190
C86_2 C 0.4399(4) 0.6175(5) 0.2040(2)
H69_2 H 0.4385 0.5431 0.2066
C87_2 C 0.3831(3) 0.6760(4) 0.1928(2)
H70_2 H 0.3432 0.6420 0.1881
C88_2 C 0.3859(3) 0.7857(4) 0.18840(18)
C89_2 C 0.3107(3) 0.9349(4) 0.14559(18)
C90_2 C 0.2448(2) 0.9537(4) 0.13590(18)
C91_2 C 0.2263(3) 0.8701(4) 0.16097(19)
C92_2 C 0.1638(3) 0.8422(4) 0.1651(2)
C93_2 C 0.1287(4) 0.7591(6) 0.1358(3)
H71_2 H 0.1451 0.7243 0.1133
C94_2 C 0.0721(4) 0.7256(8) 0.1381(3)
H72_2 H 0.0498 0.6667 0.1184
C95_2 C 0.0476(4) 0.7773(7) 0.1688(3)
H73_2 H 0.0064 0.7567 0.1687
C96_2 C 0.0802(4) 0.8584(6) 0.2001(3)
H74_2 H 0.0633 0.8912 0.2228
C97_2 C 0.1402(4) 0.8919(5) 0.1977(3)
H75_2 H 0.1638 0.9484 0.2186
C100_2 C 0.0972(3) 0.9865(5) 0.0396(2)
H78_2 H 0.0504 0.9916 0.0320
H80_2 H 0.1099 0.9121 0.0424
C131_2 C 0.7435(3) 0.9123(4) 0.3292(2)
H104_2 H 0.7350 0.9355 0.3582
C132_2 C 0.7771(3) 0.9766(4) 0.3077(2)
C133_2 C 0.7899(3) 0.9432(5) 0.2664(2)
H106_2 H 0.8123 0.9879 0.2515
C134_2 C 0.7703(3) 0.8443(5) 0.2463(2)
H107_2 H 0.7799 0.8203 0.2180
C135_2 C 0.7366(3) 0.7800(5) 0.2673(2)
H108_2 H 0.7231 0.7119 0.2534
C136_2 C 0.7226(2) 0.8149(4) 0.30840(18)
C137_2 C 0.6357(2) 0.7824(4) 0.34280(16)
C138_2 C 0.6017(2) 0.6892(4) 0.34571(17)
C139_2 C 0.6377(2) 0.6061(4) 0.33484(17)
C140_2 C 0.6333(2) 0.4906(4) 0.33804(18)
C141_2 C 0.6702(3) 0.4392(4) 0.3833(2)
H109_2 H 0.6962 0.4785 0.4126
C142_2 C 0.6688(3) 0.3293(5) 0.3854(2)
H110_2 H 0.6932 0.2944 0.4166
C143_2 C 0.6332(3) 0.2714(4) 0.3437(3)
H111_2 H 0.6335 0.1967 0.3456
C144_2 C 0.5971(3) 0.3207(4) 0.2994(2)
H112_2 H 0.5718 0.2803 0.2703
C145_2 C 0.5969(3) 0.4298(4) 0.2962(2)
H113_2 H 0.5715 0.4633 0.2649
C146_2 C 0.5406(2) 0.6855(4) 0.35210(16)
C147_2 C 0.5054(2) 0.5840(4) 0.34912(18)
H114_2 H 0.4579 0.5966 0.3342
H115_2 H 0.5163 0.5343 0.3265
C148_2 C 0.5241(3) 0.5361(4) 0.40215(19)
H116_2 H 0.5009 0.4694 0.3996
H117_2 H 0.5711 0.5231 0.4167
H118_2 H 0.5124 0.5848 0.4243
C149_2 C 0.4360(2) 0.8605(4) 0.37547(16)
C150_2 C 0.3687(2) 0.8675(4) 0.37312(16)
C151_2 C 0.3200(2) 0.7979(4) 0.34423(17)
H119_2 H 0.3294 0.7441 0.3246
C152_2 C 0.2589(2) 0.8074(4) 0.34427(17)
H120_2 H 0.2267 0.7589 0.3244
C153_2 C 0.2880(2) 0.9510(4) 0.39732(17)
C154_2 C 0.3506(2) 0.9468(4) 0.39946(17)
H122_2 H 0.3815 0.9976 0.4188
N18_2 N 0.3278(2) 0.8454(3) 0.17512(15)
N19_2 N 0.2753(2) 0.8041(3) 0.18369(16)
N28_2 N 0.68480(19) 0.7504(3) 0.32799(14)
N29_2 N 0.6869(2) 0.6418(3) 0.32315(15)
N30_2 N 0.51588(19) 0.7754(3) 0.36086(14)
N31_2 N 0.45271(19) 0.7695(3) 0.36063(14)
O7_2 O 0.35207(17) 0.9828(3) 0.13186(13)
O11_2 O 0.62674(15) 0.8783(2) 0.35017(12)
O12_2 O 0.47286(16) 0.9421(2) 0.39102(11)
Zn1_2 Zn 0.67293(3) 0.88515(5) 0.90852(2)
C16_2 C 0.7948(2) 0.9649(4) 0.89760(17)
C17_2 C 0.8653(2) 0.9577(4) 0.90965(17)
H11_2 H 0.8758 0.9907 0.8818
H12_2 H 0.8786 0.8828 0.9122
H14_2 H 0.8929 0.9802 0.9879
C19_2 C 0.7760(2) 0.7532(4) 0.96680(17)
C25_2 C 0.7191(3) 0.2855(4) 0.94924(18)
H20_2 H 0.7101 0.3174 0.9168
C26_2 C 0.7738(3) 0.2234(5) 0.9710(2)
H21_2 H 0.8022 0.2125 0.9532
C30_2 C 0.6781(2) 0.3007(4) 0.97460(17)
C31_2 C 0.6163(2) 0.4581(4) 0.92812(17)
C32_2 C 0.5501(2) 0.4862(4) 0.91129(17)
C33_2 C 0.5200(2) 0.4019(4) 0.92846(17)
C34 C 0.4521(3) 0.3834(4) 0.92384(19)
C35 C 0.4194(3) 0.2939(4) 0.8972(2)
H25 H 0.4398 0.2489 0.8808
C36 C 0.3571(3) 0.2713(5) 0.8949(2)
H26 H 0.3348 0.2110 0.8768
C37 C 0.3275(3) 0.3362(5) 0.9189(2)
H27 H 0.2849 0.3207 0.9173
C38 C 0.3598(3) 0.4230(5) 0.9451(2)
H28 H 0.3392 0.4677 0.9615
C39 C 0.4214(3) 0.4466(4) 0.94792(19)
H29_2 H 0.4431 0.5068 0.9666
C40_2 C 0.5211(2) 0.5740(4) 0.87885(17)
C41_2 C 0.4493(2) 0.5921(4) 0.85759(19)
H30_2 H 0.4271 0.5261 0.8604
H31_2 H 0.4350 0.6100 0.8208
C42_2 C 0.4291(3) 0.6800(4) 0.8853(2)
H32_2 H 0.3818 0.6889 0.8700
H33_2 H 0.4503 0.7458 0.8820
H34_2 H 0.4422 0.6619 0.9216
C43_2 C 0.5688(2) 0.7831(4) 0.82551(17)
C44_2 C 0.5420(2) 0.8629(4) 0.78429(17)
C45_2 C 0.4787(2) 0.8963(4) 0.76814(18)
H35_2 H 0.4519 0.8751 0.7860
C46_2 C 0.4541(2) 0.9609(4) 0.72567(18)
H36_2 H 0.4102 0.9838 0.7149
C47_2 C 0.5529(3) 0.9644(4) 0.71719(18)
H37_2 H 0.5795 0.9886 0.6997
C48_2 C 0.5811(2) 0.9023(4) 0.75990(17)
H38_2 H 0.6262 0.8867 0.7724
H40_2 H 0.2088 0.9556 0.6782
H56_2 H 0.7233 0.9942 0.5846
C73_2 C 0.5855(3) 0.8520(4) 0.9665(2)
H58_2 H 0.5965 0.7798 0.9662
C74_2 C 0.5412(3) 0.8792(4) 0.9874(2)
C75_2 C 0.5243(3) 0.9835(4) 0.9889(2)
N3_2 N 0.7661(2) 0.8990(3) 0.91907(14)
N4_2 N 0.80781(19) 0.8260(3) 0.95344(14)
N6_2 N 0.6213(2) 0.3626(3) 0.95221(15)
N7_2 N 0.5629(2) 0.3284(3) 0.95319(15)
N8_2 N 0.56046(19) 0.6389(3) 0.86775(14)
N9_2 N 0.52776(19) 0.7174(3) 0.83176(14)
N10_2 N 0.49001(19) 0.9928(3) 0.69888(14)
N16_2 N 0.6140(2) 0.9225(3) 0.94645(16)
O2_2 O 0.71198(16) 0.7440(2) 0.95099(11)
O3_2 O 0.66576(16) 0.5024(3) 0.92386(12)
O4_2 O 0.63236(15) 0.7811(3) 0.85029(11)
C34_2 C 0.0479(3) 0.8834(4) 0.57616(19)
C35_2 C 0.0806(3) 0.7939(4) 0.6028(2)
H25_2 H 0.0602 0.7489 0.6192
C36_2 C 0.1429(3) 0.7713(5) 0.6051(2)
H26_2 H 0.1652 0.7110 0.6232
C37_2 C 0.1725(3) 0.8362(5) 0.5811(2)
H27_2 H 0.2151 0.8207 0.5827
C38_2 C 0.1402(3) 0.9230(5) 0.5549(2)
H28_2 H 0.1608 0.9677 0.5385
C39_2 C 0.0786(3) 0.9466(4) 0.55208(19)
C116_2 C 0.9521(3) 0.1166(4) 0.42384(19)
C117_2 C 0.9194(3) 0.2061(4) 0.3972(2)
H90_2 H 0.9398 0.2511 0.3808
C118_2 C 0.8571(3) 0.2287(5) 0.3949(2)
H91_2 H 0.8348 0.2890 0.3768
C119_2 C 0.8275(3) 0.1638(5) 0.4189(2)
H92_2 H 0.7849 0.1793 0.4173
C120_2 C 0.8598(3) 0.0770(5) 0.4451(2)
H93_2 H 0.8392 0.0323 0.4615
C121_2 C 0.9214(3) 0.0534(4) 0.44792(19)
loop_
_geom_bond_atom_site_label_1
_geom_bond_atom_site_label_2
_geom_bond_site_symmetry_1
_geom_bond_site_symmetry_2
C58 C59 1_555 1_555
C59 H44 1_555 1_555
C60 C59 1_555 1_555
H45 C60 1_555 1_555
C61 C60 1_555 1_555
H46 C61 1_555 1_555
C62 C61 1_555 1_555
H47 C62 1_555 1_555
C63 C58 1_555 1_555
H48 C63 1_555 1_555
C107 H85 1_555 1_555
C108 C107 1_555 1_555
H86 C108 1_555 1_555
C109 C108 1_555 1_555
H87 C109 1_555 1_555
C110 C109 1_555 1_555
H88 C110 1_555 1_555
C111 C110 1_555 1_555
H89 C111 1_555 1_555
C112 C107 1_555 1_555
C113 C114 1_555 1_555
C114 C115 1_555 1_555
N23 C112 1_555 1_555
N24 C115 1_555 1_555
C62 C63 1_555 1_555
C111 C112 1_555 1_555
C113 N23 1_555 1_555
N23 N24 1_555 1_555
Zn3 N10 1_555 1_555
H2 C2 1_555 1_555
H30 C41 1_555 1_555
H31 C41 1_555 1_555
C42 C41 1_555 1_555
H32 C42 1_555 1_555
H33 C42 1_555 1_555
H34 C42 1_555 1_555
C45 H35 1_555 1_555
C46 C45 1_555 1_555
H36 C46 1_555 1_555
C49 H39 1_555 1_555
C50 C49 1_555 1_555
H40 C50 1_555 1_555
C51 C50 1_555 1_555
H41 C51 1_555 1_555
C52 C51 1_555 1_555
H42 C52 1_555 1_555
C53 C52 1_555 1_555
H43 C53 1_555 1_555
C54 C49 1_555 1_555
C55 C56 1_555 1_555
C56 C57 1_555 1_555
C64 C56 1_555 1_555
C65 C64 1_555 1_555
H50 C65 1_555 1_555
C66 C65 1_555 1_555
H52 C66 1_555 1_555
H53 C66 1_555 1_555
N10 C46 1_555 1_555
N11 C54 1_555 1_555
N12 C57 1_555 1_555
N13 Zn3 1_555 1_555
O5 Zn3 1_555 1_555
C78 H62 1_555 1_555
C79 C78 1_555 1_555
H63 C79 1_555 1_555
C81 C80 1_555 1_555
H64 C81 1_555 1_555
C82 C81 1_555 1_555
H65 C82 1_555 1_555
N17 C78 1_555 1_555
Zn4 N17 1_555 1_555
Zn5 N25 1_555 1_555
C83 H66 1_555 1_555
C86 C85 1_555 1_555
H69 C86 1_555 1_555
C87 C86 1_555 1_555
H70 C87 1_555 1_555
C88 C83 1_555 1_555
C89 C90 1_555 1_555
C90 C91 1_555 1_555
C91 C92 1_555 1_555
C92 C93 1_555 1_555
C93 H71 1_555 1_555
C94 C93 1_555 1_555
H72 C94 1_555 1_555
C95 C94 1_555 1_555
H73 C95 1_555 1_555
C96 C95 1_555 1_555
H74 C96 1_555 1_555
C97 C92 1_555 1_555
H75 C97 1_555 1_555
C98 C90 1_555 1_555
C99 C98 1_555 1_555
H76 C99 1_555 1_555
H77 C99 1_555 1_555
C100 C99 1_555 1_555
H78 C100 1_555 1_555
H79 C100 1_555 1_555
H80 C100 1_555 1_555
C101 C102 1_555 1_555
C102 C103 1_555 1_555
C103 H81 1_555 1_555
C104 C103 1_555 1_555
H82 C104 1_555 1_555
C106 C102 1_555 1_555
H84 C106 1_555 1_555
C125 C126 1_555 1_555
C129 H102 1_555 1_555
C130 C126 1_555 1_555
H103 C130 1_555 1_555
C149 C150 1_555 1_555
C150 C151 1_555 1_555
C151 H119 1_555 1_555
C152 C151 1_555 1_555
H120 C152 1_555 1_555
C153 H121 1_555 1_555
C154 C150 1_555 1_555
H122 C154 1_555 1_555
N18 C88 1_555 1_555
N19 C91 1_555 1_555
N20 Zn4 1_555 1_555
N21 C101 1_555 1_555
N22 C104 1_555 1_555
N25 C122 1_555 1_555
N26 C125 1_555 1_555
N31 C149 1_555 1_555
N32 C152 1_555 1_555
O7 Zn4 1_555 1_555
O8 Zn4 1_555 1_555
O9 Zn5 1_555 1_555
O10 Zn4 1_555 1_555
Zn8 N32 1_555 1_555
N34 Zn3 1_555 1_555
N36 Zn5 1_555 1_555
C53 C54 1_555 1_555
C55 N11 1_555 1_555
C55 O5 1_555 1_555
C64 N13 1_555 1_555
N11 N12 1_555 1_555
C79 C80 1_555 1_555
C82 N17 1_555 1_555
Zn5 O8 1_555 1_555
Zn5 O10 1_555 1_555
C87 C88 1_555 1_555
C89 N18 1_555 1_555
C89 O7 1_555 1_555
C96 C97 1_555 1_555
C98 N20 1_555 1_555
C101 O8 1_555 1_555
C105 C106 1_555 1_555
C105 N22 1_555 1_555
C125 O10 1_555 1_555
C129 C130 1_555 1_555
C149 O12 1_555 1_555
C153 C154 1_555 1_555
C153 N32 1_555 1_555
N18 N19 1_555 1_555
N20 N21 1_555 1_555
N25 N26 1_555 1_555
Zn1 N3 1_555 1_555
Zn2 N8 1_555 1_555
C1 H1 1_555 1_555
C4 C3 1_555 1_555
H4 C4 1_555 1_555
C5 C4 1_555 1_555
H5 C5 1_555 1_555
C6 C1 1_555 1_555
C7 C8 1_555 1_555
C8 C9 1_555 1_555
C9 C10 1_555 1_555
C10 C11 1_555 1_555
C11 H6 1_555 1_555
C12 C11 1_555 1_555
H7 C12 1_555 1_555
C13 C12 1_555 1_555
H8 C13 1_555 1_555
C14 C13 1_555 1_555
H9 C14 1_555 1_555
C15 C10 1_555 1_555
H10 C15 1_555 1_555
C16 C8 1_555 1_555
C17 C16 1_555 1_555
H11 C17 1_555 1_555
H12 C17 1_555 1_555
C18 C17 1_555 1_555
H13 C18 1_555 1_555
H14 C18 1_555 1_555
H15 C18 1_555 1_555
C19 C20 1_555 1_555
C20 C21 1_555 1_555
C21 H16 1_555 1_555
C22 C21 1_555 1_555
H17 C22 1_555 1_555
C24 C20 1_555 1_555
H19 C24 1_555 1_555
C43 C44 1_555 1_555
C47 H37 1_555 1_555
C48 C44 1_555 1_555
H38 C48 1_555 1_555
C67 C68 1_555 1_555
C68 C69 1_555 1_555
C69 H54 1_555 1_555
C70 C69 1_555 1_555
H55 C70 1_555 1_555
C71 H56 1_555 1_555
C72 C68 1_555 1_555
H57 C72 1_555 1_555
C73 H58 1_555 1_555
C74 C73 1_555 1_555
H59 C74 1_555 1_555
C75 C74 1_555 1_555
C76 C75 1_555 1_555
H60 C76 1_555 1_555
C77 C76 1_555 1_555
H61 C77 1_555 1_555
N1 C6 1_555 1_555
N2 C9 1_555 1_555
N3 C16 1_555 1_555
N4 C19 1_555 1_555
N5 C22 1_555 1_555
N8 C40 1_555 1_555
N9 C43 1_555 1_555
N14 C67 1_555 1_555
N15 C70 1_555 1_555
N16 Zn1 1_555 1_555
O1 Zn1 1_555 1_555
O2 Zn1 1_555 1_555
O3 Zn2 1_555 1_555
O4 Zn1 1_555 1_555
Zn6 N27 1_555 1_555
H67 C84 1_555 1_555
H95 C123 1_555 1_555
H96 C123 1_555 1_555
C124 C123 1_555 1_555
H97 C124 1_555 1_555
H98 C124 1_555 1_555
H99 C124 1_555 1_555
C127 H100 1_555 1_555
C128 C127 1_555 1_555
H101 C128 1_555 1_555
C131 H104 1_555 1_555
C132 C131 1_555 1_555
H105 C132 1_555 1_555
C133 C132 1_555 1_555
H106 C133 1_555 1_555
C134 C133 1_555 1_555
H107 C134 1_555 1_555
C135 C134 1_555 1_555
H108 C135 1_555 1_555
C136 C131 1_555 1_555
C137 C138 1_555 1_555
C138 C139 1_555 1_555
C146 C138 1_555 1_555
C147 C146 1_555 1_555
H115 C147 1_555 1_555
C148 C147 1_555 1_555
H117 C148 1_555 1_555
H118 C148 1_555 1_555
N27 C128 1_555 1_555
N28 C136 1_555 1_555
N29 C139 1_555 1_555
N30 Zn6 1_555 1_555
O11 Zn6 1_555 1_555
Zn7 N15 1_555 1_555
N33 Zn6 1_555 1_555
N35 Zn2 1_555 1_555
Zn2 O2 1_555 1_555
Zn2 O4 1_555 1_555
C5 C6 1_555 1_555
C7 N1 1_555 1_555
C7 O1 1_555 1_555
C14 C15 1_555 1_555
C19 O2 1_555 1_555
C23 C24 1_555 1_555
C23 N5 1_555 1_555
C43 O4 1_555 1_555
C47 C48 1_555 1_555
C67 O6 1_555 1_555
C71 C72 1_555 1_555
C71 N15 1_555 1_555
C73 N16 1_555 1_555
C77 N16 1_555 1_555
N1 N2 1_555 1_555
N3 N4 1_555 1_555
N8 N9 1_555 1_555
C135 C136 1_555 1_555
C137 N28 1_555 1_555
C137 O11 1_555 1_555
C146 N30 1_555 1_555
N28 N29 1_555 1_555
C25 H20 1_555 1_555
C26 C25 1_555 1_555
H21 C26 1_555 1_555
C27 C26 1_555 1_555
H22 C27 1_555 1_555
C28 C27 1_555 1_555
H23 C28 1_555 1_555
C29 C28 1_555 1_555
H24 C29 1_555 1_555
C30 C25 1_555 1_555
C31 C32 1_555 1_555
C32 C33 1_555 1_555
N6 C30 1_555 1_555
N7 C33 1_555 1_555
C140 C141 1_555 1_555
C141 H109 1_555 1_555
C142 C141 1_555 1_555
H110 C142 1_555 1_555
C143 C142 1_555 1_555
H111 C143 1_555 1_555
C144 C143 1_555 1_555
H112 C144 1_555 1_555
C145 C140 1_555 1_555
H113 C145 1_555 1_555
C29 C30 1_555 1_555
C31 N6 1_555 1_555
N6 N7 1_555 1_555
C144 C145 1_555 1_555
C78_2 H62_2 1_555 1_555
C79_2 C78_2 1_555 1_555
N17_2 C78_2 1_555 1_555
Zn4_2 N17_2 1_555 1_555
Zn8 N25_2 1_555 1_555
C99_2 C98_2 1_555 1_555
H76_2 C99_2 1_555 1_555
H77_2 C99_2 1_555 1_555
C107_2 H85_2 1_555 1_555
C108_2 C107_2 1_555 1_555
H86_2 C108_2 1_555 1_555
C112_2 C107_2 1_555 1_555
C113_2 C114_2 1_555 1_555
C114_2 C115_2 1_555 1_555
C115_2 C116 1_555 1_555
C116 C117 1_555 1_555
C117 H90 1_555 1_555
C118 C117 1_555 1_555
H91 C118 1_555 1_555
C119 C118 1_555 1_555
H92 C119 1_555 1_555
C120 C119 1_555 1_555
H93 C120 1_555 1_555
C121 C116 1_555 1_555
H94_2 C121 1_555 1_555
C122_2 C114_2 1_555 1_555
C123_2 C122_2 1_555 1_555
H95_2 C123_2 1_555 1_555
H96_2 C123_2 1_555 1_555
C124_2 C123_2 1_555 1_555
H97_2 C124_2 1_555 1_555
H98_2 C124_2 1_555 1_555
H99_2 C124_2 1_555 1_555
C125_2 C126_2 1_555 1_555
C126_2 C127_2 1_555 1_555
C127_2 H100_2 1_555 1_555
C128_2 C127_2 1_555 1_555
H101_2 C128_2 1_555 1_555
C129_2 H102_2 1_555 1_555
C130_2 C126_2 1_555 1_555
H103_2 C130_2 1_555 1_555
N20_2 Zn4_2 1_555 1_555
N21_2 C101_2 1_555 1_555
N23_2 C112_2 1_555 1_555
N24_2 C115_2 1_555 1_555
N25_2 C122_2 1_555 1_555
N26_2 C125_2 1_555 1_555
N27_2 C128_2 1_555 1_555
O8_2 Zn4_2 1_555 1_555
O9_2 Zn8 1_555 1_555
O10_2 Zn4_2 1_555 1_555
C79_2 C80_2 1_555 1_555
Zn8 O8_2 1_555 1_555
Zn8 O10_2 1_555 1_555
C98_2 N20_2 1_555 1_555
C101_2 O8_2 1_555 1_555
C113_2 N23_2 1_555 1_555
C113_2 O9_2 1_555 1_555
C120 C121 1_555 1_555
C125_2 O10_2 1_555 1_555
C129_2 C130_2 1_555 1_555
C129_2 N27_2 1_555 1_555
N20_2 N21_2 1_555 1_555
N23_2 N24_2 1_555 1_555
N25_2 N26_2 1_555 1_555
C1_2 H1_2 1_555 1_555
C2_2 C1_2 1_555 1_555
H2_2 C2_2 1_555 1_555
C3_2 C2_2 1_555 1_555
H3_2 C3_2 1_555 1_555
C4_2 C3_2 1_555 1_555
H4_2 C4_2 1_555 1_555
C5_2 C4_2 1_555 1_555
H5_2 C5_2 1_555 1_555
C6_2 C1_2 1_555 1_555
C7_2 C8_2 1_555 1_555
C8_2 C9_2 1_555 1_555
C9_2 C10_2 1_555 1_555
C10_2 C11_2 1_555 1_555
C11_2 H6_2 1_555 1_555
C12_2 C11_2 1_555 1_555
H7_2 C12_2 1_555 1_555
C13_2 C12_2 1_555 1_555
H8_2 C13_2 1_555 1_555
C14_2 C13_2 1_555 1_555
H9_2 C14_2 1_555 1_555
C15_2 C10_2 1_555 1_555
H10_2 C15_2 1_555 1_555
H13_2 C18_2 1_555 1_555
H15_2 C18_2 1_555 1_555
C49_2 H39_2 1_555 1_555
C50_2 C49_2 1_555 1_555
C51_2 C50_2 1_555 1_555
H41_2 C51_2 1_555 1_555
C52_2 C51_2 1_555 1_555
H42_2 C52_2 1_555 1_555
C53_2 C52_2 1_555 1_555
H43_2 C53_2 1_555 1_555
C54_2 C49_2 1_555 1_555
C55_2 C56_2 1_555 1_555
C56_2 C57_2 1_555 1_555
C57_2 C58_2 1_555 1_555
C58_2 C59_2 1_555 1_555
C59_2 H44_2 1_555 1_555
C60_2 C59_2 1_555 1_555
H45_2 C60_2 1_555 1_555
C61_2 C60_2 1_555 1_555
H46_2 C61_2 1_555 1_555
C62_2 C61_2 1_555 1_555
H47_2 C62_2 1_555 1_555
C63_2 C58_2 1_555 1_555
H48_2 C63_2 1_555 1_555
C64_2 C56_2 1_555 1_555
C65_2 C64_2 1_555 1_555
H49_2 C65_2 1_555 1_555
H50_2 C65_2 1_555 1_555
C66_2 C65_2 1_555 1_555
H51_2 C66_2 1_555 1_555
H52_2 C66_2 1_555 1_555
H53_2 C66_2 1_555 1_555
C67_2 C68_2 1_555 1_555
C68_2 C69_2 1_555 1_555
C69_2 H54_2 1_555 1_555
C70_2 C69_2 1_555 1_555
H55_2 C70_2 1_555 1_555
C72_2 C68_2 1_555 1_555
H57_2 C72_2 1_555 1_555
H60_2 C76_2 1_555 1_555
C77_2 C76_2 1_555 1_555
H61_2 C77_2 1_555 1_555
N1_2 C6_2 1_555 1_555
N2_2 C9_2 1_555 1_555
N11_2 C54_2 1_555 1_555
N12_2 C57_2 1_555 1_555
N13_2 Zn9 1_555 1_555
N14_2 C67_2 1_555 1_555
N35 C70_2 1_555 1_555
O5_2 Zn9 1_555 1_555
O6_2 Zn9 1_555 1_555
C102_2 C103_2 1_555 1_555
C103_2 H81_2 1_555 1_555
C104_2 C103_2 1_555 1_555
H82_2 C104_2 1_555 1_555
C105_2 H83_2 1_555 1_555
C106_2 C102_2 1_555 1_555
H84_2 C106_2 1_555 1_555
H87_2 C109_2 1_555 1_555
C110_2 C109_2 1_555 1_555
H88_2 C110_2 1_555 1_555
C111_2 C110_2 1_555 1_555
H89_2 C111_2 1_555 1_555
N34 C104_2 1_555 1_555
C5_2 C6_2 1_555 1_555
C7_2 N1_2 1_555 1_555
C7_2 O1_2 1_555 1_555
C14_2 C15_2 1_555 1_555
C53_2 C54_2 1_555 1_555
C55_2 N11_2 1_555 1_555
C55_2 O5_2 1_555 1_555
C62_2 C63_2 1_555 1_555
C64_2 N13_2 1_555 1_555
C67_2 O6_2 1_555 1_555
C71_2 C72_2 1_555 1_555
C71_2 N35 1_555 1_555
N1_2 N2_2 1_555 1_555
N11_2 N12_2 1_555 1_555
N13_2 N14_2 1_555 1_555
C105_2 C106_2 1_555 1_555
C105_2 N34 1_555 1_555
C20_2 C21_2 1_555 1_555
C21_2 H16_2 1_555 1_555
C22_2 C21_2 1_555 1_555
H17_2 C22_2 1_555 1_555
C23_2 H18_2 1_555 1_555
C24_2 C20_2 1_555 1_555
H19_2 C24_2 1_555 1_555
H22_2 C27_2 1_555 1_555
C28_2 C27_2 1_555 1_555
H23_2 C28_2 1_555 1_555
C29_2 C28_2 1_555 1_555
H24_2 C29_2 1_555 1_555
N33 C22_2 1_555 1_555
H64_2 C81_2 1_555 1_555
C82_2 C81_2 1_555 1_555
H65_2 C82_2 1_555 1_555
C83_2 H66_2 1_555 1_555
C84_2 C83_2 1_555 1_555
H67_2 C84_2 1_555 1_555
C85_2 C84_2 1_555 1_555
H68_2 C85_2 1_555 1_555
C86_2 C85_2 1_555 1_555
H69_2 C86_2 1_555 1_555
C87_2 C86_2 1_555 1_555
H70_2 C87_2 1_555 1_555
C88_2 C83_2 1_555 1_555
C89_2 C90_2 1_555 1_555
C90_2 C91_2 1_555 1_555
C91_2 C92_2 1_555 1_555
C92_2 C93_2 1_555 1_555
C93_2 H71_2 1_555 1_555
C94_2 C93_2 1_555 1_555
H72_2 C94_2 1_555 1_555
C95_2 C94_2 1_555 1_555
H73_2 C95_2 1_555 1_555
C96_2 C95_2 1_555 1_555
H74_2 C96_2 1_555 1_555
C97_2 C92_2 1_555 1_555
H75_2 C97_2 1_555 1_555
H78_2 C100_2 1_555 1_555
H80_2 C100_2 1_555 1_555
C131_2 H104_2 1_555 1_555
C132_2 C131_2 1_555 1_555
C133_2 C132_2 1_555 1_555
H106_2 C133_2 1_555 1_555
C134_2 C133_2 1_555 1_555
H107_2 C134_2 1_555 1_555
C135_2 C134_2 1_555 1_555
H108_2 C135_2 1_555 1_555
C136_2 C131_2 1_555 1_555
C137_2 C138_2 1_555 1_555
C138_2 C139_2 1_555 1_555
C139_2 C140_2 1_555 1_555
C140_2 C141_2 1_555 1_555
C141_2 H109_2 1_555 1_555
C142_2 C141_2 1_555 1_555
H110_2 C142_2 1_555 1_555
C143_2 C142_2 1_555 1_555
H111_2 C143_2 1_555 1_555
C144_2 C143_2 1_555 1_555
H112_2 C144_2 1_555 1_555
C145_2 C140_2 1_555 1_555
H113_2 C145_2 1_555 1_555
C146_2 C138_2 1_555 1_555
C147_2 C146_2 1_555 1_555
H114_2 C147_2 1_555 1_555
H115_2 C147_2 1_555 1_555
C148_2 C147_2 1_555 1_555
H116_2 C148_2 1_555 1_555
H117_2 C148_2 1_555 1_555
H118_2 C148_2 1_555 1_555
C149_2 C150_2 1_555 1_555
C150_2 C151_2 1_555 1_555
C151_2 H119_2 1_555 1_555
C152_2 C151_2 1_555 1_555
H120_2 C152_2 1_555 1_555
C154_2 C150_2 1_555 1_555
H122_2 C154_2 1_555 1_555
N18_2 C88_2 1_555 1_555
N19_2 C91_2 1_555 1_555
N28_2 C136_2 1_555 1_555
N29_2 C139_2 1_555 1_555
N30_2 Zn10 1_555 1_555
N31_2 C149_2 1_555 1_555
N36 C152_2 1_555 1_555
O11_2 Zn10 1_555 1_555
O12_2 Zn10 1_555 1_555
C23_2 C24_2 1_555 1_555
C23_2 N33 1_555 1_555
C87_2 C88_2 1_555 1_555
C89_2 N18_2 1_555 1_555
C89_2 O7_2 1_555 1_555
C96_2 C97_2 1_555 1_555
C135_2 C136_2 1_555 1_555
C137_2 N28_2 1_555 1_555
C137_2 O11_2 1_555 1_555
C144_2 C145_2 1_555 1_555
C146_2 N30_2 1_555 1_555
C149_2 O12_2 1_555 1_555
C153_2 C154_2 1_555 1_555
C153_2 N36 1_555 1_555
N18_2 N19_2 1_555 1_555
N28_2 N29_2 1_555 1_555
N30_2 N31_2 1_555 1_555
Zn1_2 N3_2 1_555 1_555
Zn7 N8_2 1_555 1_555
C17_2 C16_2 1_555 1_555
H11_2 C17_2 1_555 1_555
H12_2 C17_2 1_555 1_555
C25_2 H20_2 1_555 1_555
C26_2 C25_2 1_555 1_555
H21_2 C26_2 1_555 1_555
C30_2 C25_2 1_555 1_555
C31_2 C32_2 1_555 1_555
C32_2 C33_2 1_555 1_555
C33_2 C34 1_555 1_555
C34 C35 1_555 1_555
C35 H25 1_555 1_555
C36 C35 1_555 1_555
H26 C36 1_555 1_555
C37 C36 1_555 1_555
H27 C37 1_555 1_555
C38 C37 1_555 1_555
H28 C38 1_555 1_555
C39 C34 1_555 1_555
H29_2 C39 1_555 1_555
C40_2 C32_2 1_555 1_555
C41_2 C40_2 1_555 1_555
H30_2 C41_2 1_555 1_555
H31_2 C41_2 1_555 1_555
C42_2 C41_2 1_555 1_555
H32_2 C42_2 1_555 1_555
H33_2 C42_2 1_555 1_555
H34_2 C42_2 1_555 1_555
C43_2 C44_2 1_555 1_555
C44_2 C45_2 1_555 1_555
C45_2 H35_2 1_555 1_555
C46_2 C45_2 1_555 1_555
H36_2 C46_2 1_555 1_555
C47_2 H37_2 1_555 1_555
C48_2 C44_2 1_555 1_555
H38_2 C48_2 1_555 1_555
C73_2 H58_2 1_555 1_555
C74_2 C73_2 1_555 1_555
C75_2 C74_2 1_555 1_555
N3_2 C16_2 1_555 1_555
N4_2 C19_2 1_555 1_555
N6_2 C30_2 1_555 1_555
N7_2 C33_2 1_555 1_555
N8_2 C40_2 1_555 1_555
N9_2 C43_2 1_555 1_555
N10_2 C46_2 1_555 1_555
N16_2 Zn1_2 1_555 1_555
O2_2 Zn1_2 1_555 1_555
O3_2 Zn7 1_555 1_555
O4_2 Zn1_2 1_555 1_555
Zn7 O2_2 1_555 1_555
Zn7 O4_2 1_555 1_555
C19_2 O2_2 1_555 1_555
C31_2 N6_2 1_555 1_555
C31_2 O3_2 1_555 1_555
C38 C39 1_555 1_555
C43_2 O4_2 1_555 1_555
C47_2 C48_2 1_555 1_555
C47_2 N10_2 1_555 1_555
C73_2 N16_2 1_555 1_555
N3_2 N4_2 1_555 1_555
N6_2 N7_2 1_555 1_555
N8_2 N9_2 1_555 1_555
C34_2 C35_2 1_555 1_555
C35_2 H25_2 1_555 1_555
C36_2 C35_2 1_555 1_555
H26_2 C36_2 1_555 1_555
C37_2 C36_2 1_555 1_555
H27_2 C37_2 1_555 1_555
C38_2 C37_2 1_555 1_555
H28_2 C38_2 1_555 1_555
C39_2 C34_2 1_555 1_555
C38_2 C39_2 1_555 1_555
C116_2 C117_2 1_555 1_555
C117_2 H90_2 1_555 1_555
C118_2 C117_2 1_555 1_555
H91_2 C118_2 1_555 1_555
C119_2 C118_2 1_555 1_555
H92_2 C119_2 1_555 1_555
C120_2 C119_2 1_555 1_555
H93_2 C120_2 1_555 1_555
C121_2 C116_2 1_555 1_555
C120_2 C121_2 1_555 1_555

#END
