
###############################################################################
#
# This file contains modified crystal structure data generated from the
# MOF subset of the Cambridge Structural Database (CSD) v543 
# hosted by the Cambridge Crystallographic Data Centre (CCDC).
#
# This work is licensed under the Creative Commons
# Attribution-NonCommercial-ShareAlike 4.0 International License.
# To view a copy of this license, visit
# http://creativecommons.org/licenses/by-nc-sa/4.0/
# or send a letter to
# Creative Commons, PO Box 1866, Mountain View, CA 94042, USA.
#
# CIF created using the CSD Python API on 29 September 2022
# The structure has been converted into the P1 space group
# The structure has a 3D framework
# The original CSD entry BEWVOQ is in the triclinic crystal system
# The original CSD entry BEWVOQ is in a Sohncke space group
# The framework has been calculated to contain at least 10.0% void space
# The void calculation uses a probe of radius 1.32A, grid spacing 0.4
# The framework is charged, counterions have been retained in the structure
# H atom positions have been added when not included in the experimental data
#
###############################################################################

data_BEWVOQ
_chemical_formula_moiety         '(C100 H88 Cr4 Mn8 N8 O64)n'
_symmetry_cell_setting           triclinic
_symmetry_space_group_name_H-M   'P 1'
_symmetry_Int_Tables_number      1
_space_group_name_Hall           'P 1'
loop_
_symmetry_equiv_pos_site_id
_symmetry_equiv_pos_as_xyz
1 x,y,z
_cell_length_a                   15.2933(9)
_cell_length_b                   15.5985(8)
_cell_length_c                   18.1942(6)
_cell_angle_alpha                64.685(4)
_cell_angle_beta                 77.986(4)
_cell_angle_gamma                61.077(6)
_cell_volume                     3434.1
loop_
_atom_site_label
_atom_site_type_symbol
_atom_site_fract_x
_atom_site_fract_y
_atom_site_fract_z
C22 C 0.0344(7) 0.0405(7) 0.3494(5)
O42 O 0.0092(4) 0.1297(4) 0.3511(3)
C8 C 0.0332(6) 0.5964(6) 0.1098(5)
O14 O 0.0189(4) 0.5248(4) 0.1124(3)
O16 O 0.1183(5) 0.5958(4) 0.1013(3)
Cr6 Cr 0.11159(10) 0.72415(11) 0.10410(8)
C23 C 0.1274(6) 0.7199(6) 0.2524(5)
C24 C 0.1179(7) 0.8274(6) 0.1898(6)
O44 O 0.1201(5) 0.9750(5) 0.3437(4)
O45 O 0.1291(5) 0.7003(5) 0.3252(4)
O46 O 0.1224(5) 0.8887(5) 0.2149(4)
O47 O 0.1285(5) 0.6579(4) 0.2238(4)
O48 O 0.1067(4) 0.8446(4) 0.1163(4)
Mn4 Mn 0.12832(11) 0.83143(11) 0.34396(9)
O51 O 0.1197(5) 0.7622(5) 0.4775(4)
O52 O 0.2848(5) 0.7417(5) 0.3794(4)
C10 C 0.6273(6) 0.0236(7) 0.7797(5)
C11 C 0.4475(7) 0.3826(7) 0.6208(5)
C12 C 0.5339(7) 0.4036(7) 0.6291(5)
C13 C 0.2013(7) 0.7128(7) 0.5094(6)
C14 C 0.2957(7) 0.6977(7) 0.4540(6)
C15 C 0.3540(7) 0.7026(7) 0.6897(5)
C16 C 0.3464(7) 0.6050(7) 0.7548(6)
C17 C 0.7009(6) 0.2421(6) 0.4618(5)
C18 C 0.7931(6) 0.1725(6) 0.5181(5)
C19 C 0.8534(6) 0.3672(7) 0.2144(5)
C20 C 0.8635(6) 0.4030(7) 0.2760(5)
C21 C 0.9495(6) 0.0147(6) 0.3553(5)
O19 O 0.6362(4) 0.0449(4) 0.6399(3)
O20 O 0.6294(5) 0.1092(5) 0.7593(3)
O21 O 0.4680(5) 0.2943(5) 0.6225(4)
O22 O 0.6197(5) 0.3276(5) 0.6426(4)
O23 O 0.3636(5) 0.4575(5) 0.6124(4)
O24 O 0.5091(4) 0.4941(4) 0.6264(4)
O25 O 0.2191(4) 0.6685(5) 0.5854(4)
O26 O 0.3782(5) 0.6403(5) 0.4914(4)
O29 O 0.3644(4) 0.7061(4) 0.6177(3)
O30 O 0.3428(5) 0.5427(5) 0.7287(4)
O31 O 0.3461(6) 0.7724(5) 0.7095(3)
O32 O 0.3414(5) 0.5931(5) 0.8272(4)
O33 O 0.6184(5) 0.2625(5) 0.4950(4)
O34 O 0.7809(4) 0.1445(4) 0.5928(3)
O35 O 0.7202(4) 0.2702(4) 0.3870(3)
O36 O 0.8768(4) 0.1507(4) 0.4825(3)
O37 O 0.8457(5) 0.2797(4) 0.2442(3)
O38 O 0.8723(4) 0.3379(4) 0.3503(3)
O39 O 0.8534(4) 0.4220(4) 0.1412(3)
O40 O 0.8638(5) 0.4892(5) 0.2516(4)
O41 O 0.8643(4) 0.0823(4) 0.3647(4)
Cr3 Cr 0.36262(11) 0.58633(11) 0.61037(9)
Cr4 Cr 0.86340(11) 0.21017(10) 0.36259(8)
Mn3 Mn 0.62620(10) 0.19190(10) 0.62764(8)
Mn5 Mn 0.34800(11) 0.72271(11) 0.84059(8)
Mn6 Mn 0.86162(10) 0.56416(10) 0.11939(8)
C2 C 0.2730(7) 0.6904(6) 0.0046(5)
C5 C 0.6925(7) 0.7116(6) 0.0101(5)
C7 C 0.9463(7) 0.6967(7) 0.1197(5)
O2 O 0.2564(4) 0.6701(4) 0.0798(3)
O11 O 0.7051(4) 0.6633(4) 0.0850(3)
O13 O 0.8593(5) 0.7029(5) 0.1273(5)
O15 O 0.9674(4) 0.7649(4) 0.1176(4)
C1 C 0.1804(7) 0.7656(6) 0.9488(5)
C3 C 0.4497(7) 0.8375(6) 0.8393(4)
C4 C 0.5334(7) 0.7262(7) 0.8443(5)
C6 C 0.7900(7) 0.6910(7) 0.9536(5)
C9 C 0.6387(6) 0.9856(7) 0.7119(5)
O1 O 0.0982(4) 0.7940(4) 0.9847(4)
O3 O 0.1921(5) 0.7919(4) 0.8738(3)
O4 O 0.3559(4) 0.6550(5) 0.9723(4)
O5 O 0.3634(5) 0.8591(5) 0.8314(4)
O6 O 0.5090(5) 0.6624(5) 0.8418(4)
O7 O 0.4816(5) 0.8983(4) 0.8414(3)
O8 O 0.6210(5) 0.7110(5) 0.8500(4)
O9 O 0.6126(5) 0.7764(5) 0.9741(3)
O10 O 0.7717(4) 0.7476(4) 0.8801(3)
O12 O 0.8706(4) 0.6243(5) 0.9867(4)
O17 O 0.6476(5) 0.8916(5) 0.7370(3)
O18 O 0.6241(5) 0.9616(5) 0.8513(3)
O43 O 0.9677(4) 0.9309(5) 0.3515(4)
Cr2 Cr 0.62704(11) 0.83130(11) 0.85502(8)
C25 C 0.3928(7) 0.0959(7) 0.4758(5)
C26 C 0.3760(8) 0.0092(8) 0.5341(6)
C28 C 0.3784(8) 0.0520(8) 0.6445(6)
H3 H 0.3741 0.0358 0.7013
C29 C 0.3930(8) 0.1400(8) 0.5893(5)
H4 H 0.3986 0.1847 0.6088
C30 C 0.3994(7) 0.1625(7) 0.5053(5)
C31 C 0.4112(6) 0.2536(6) 0.4539(5)
H5 H 0.4215 0.2894 0.4799
C32 C 0.4235(8) 0.3925(7) 0.3274(5)
H6 H 0.4939 0.3708 0.3068
C33 C 0.3560(7) 0.4493(7) 0.2569(5)
H7 H 0.2859 0.4824 0.2743
H8 H 0.3720 0.5061 0.2150
C34 C 0.3609(7) 0.4019(7) 0.1464(5)
H9 H 0.3528 0.4714 0.1123
C35 C 0.3639(7) 0.3389(9) 0.1077(6)
C36 C 0.3585(7) 0.3812(9) 0.0214(6)
C38 C 0.3614(8) 0.2248(10) 0.0232(7)
C39 C 0.3687(7) 0.1807(8) 0.1062(6)
H13 H 0.3749 0.1109 0.1348
C40 C 0.3671(7) 0.2368(9) 0.1494(5)
C41 C 0.4038(8) 0.4620(7) 0.3744(6)
H14 H 0.4489 0.4206 0.4212
H15 H 0.3344 0.4862 0.3935
H16 H 0.4155 0.5235 0.3386
N1 N 0.4098(5) 0.2940(5) 0.3763(5)
N2 N 0.3680(6) 0.3746(6) 0.2227(5)
O59 O 0.3982(5) 0.1125(5) 0.3987(4)
O60 O 0.3746(4) 0.1862(4) 0.2324(3)
Mn8 Mn 0.38764(10) 0.23427(10) 0.30859(8)
O61 O 0.5541(4) 0.1565(5) 0.2816(4)
C42 C 0.6352(8) 0.1243(9) 0.3311(8)
O62 O 0.2207(4) 0.2953(5) 0.3393(4)
C43 C 0.1430(12) 0.3679(14) 0.2824(10)
H65 H 0.631822 0.0659187 0.390716
H66 H 0.706053 0.0896001 0.302023
H67 H 0.629002 0.193052 0.337963
H68 H 0.148291 0.335239 0.238482
H69 H 0.0713584 0.382838 0.313707
H70 H 0.149127 0.441893 0.25091
H10 H 0.3544 0.4501 0.9915
C37 C 0.3591(8) 0.3231(10) 0.9786(7)
H11 H 0.3580 0.3512 0.9209
H12 H 0.3577 0.1868 0.9957
H1 H 0.3686 0.9640 0.5163
C27 C 0.3704(8) 0.9899(8) 0.6131(6)
H2 H 0.3603 0.9301 0.6498
C55 C 0.6199(8) 0.0189(10) 0.0145(7)
C57 C 0.6209(9) 0.1693(9) 0.0167(8)
C58 C 0.6166(7) 0.1318(8) 0.1011(6)
H29 H 0.6155 0.1716 0.1290
C59 C 0.6138(7) 0.0314(9) 0.1454(6)
H81 H 0.2839 0.0182807 0.310573
C56 C 0.6195(9) 0.1138(9) 0.9714(7)
H27 H 0.6184 0.1428 0.9137
H28 H 0.6249 0.2344 0.9877
C44 C 0.6074(7) 0.8394(8) 0.4682(6)
C45 C 0.6243(8) 0.8689(8) 0.5253(6)
H17 H 0.6354 0.9296 0.5080
C46 C 0.6246(9) 0.8065(12) 0.6079(8)
H18 H 0.6315 0.8302 0.6456
C47 C 0.6159(9) 0.7174(10) 0.6378(7)
H19 H 0.6207 0.6770 0.6947
C48 C 0.5997(8) 0.6841(10) 0.5845(7)
H20 H 0.5915 0.6213 0.6048
C49 C 0.5955(7) 0.7445(8) 0.4992(6)
C50 C 0.5828(7) 0.7064(7) 0.4473(6)
H21 H 0.5724 0.6447 0.4734
C51 C 0.5672(7) 0.6942(8) 0.3220(6)
H22 H 0.4954 0.7333 0.3056
C52 C 0.6261(10) 0.7082(10) 0.2520(7)
H23 H 0.6052 0.6948 0.2116
H24 H 0.6970 0.6575 0.2657
C53 C 0.6141(10) 0.8723(10) 0.1396(7)
H25 H 0.6138 0.8408 0.1051
C54 C 0.6149(8) 0.9733(9) 0.1020(6)
C60 C 0.5937(10) 0.5768(9) 0.3695(8)
H30 H 0.5511 0.5688 0.4179
H31 H 0.6639 0.5377 0.3861
H32 H 0.5831 0.5487 0.3350
N3 N 0.5832(5) 0.7426(6) 0.3707(4)
N4 N 0.6138(7) 0.8212(7) 0.2165(5)
O63 O 0.6017(6) 0.8981(5) 0.3920(4)
O64 O 0.6106(5) 0.9967(5) 0.2262(4)
Mn9 Mn 0.60138(10) 0.87181(11) 0.30235(9)
O65 O 0.7690(7) 0.7780(7) 0.3205(10)
C61 C 0.8469(14) 0.797(2) 0.2884(10)
O66 O 0.4368(5) 0.9717(5) 0.2873(4)
C62 C 0.3550(8) 0.9514(10) 0.3362(8)
H77 H 0.840226 0.863431 0.299185
H78 H 0.915214 0.726971 0.316387
H79 H 0.849349 0.816229 0.22322
H80 H 0.36123 0.940947 0.398337
H82 H 0.358915 0.879845 0.336129
H26 H 0.6237 0.9792 0.9853
C64 C 0.1216(6) 0.1396(4) 0.0459(4)
H33 H 0.1267 0.0888 0.0275
C65 C 0.1221(6) 0.1157(4) 0.1288(4)
H34 H 0.1276 0.0486 0.1669
C66 C 0.1146(5) 0.1900(5) 0.1558(3)
H35 H 0.1150 0.1737 0.2124
C67 C 0.1066(5) 0.2882(4) 0.0999(4)
H36 H 0.1015 0.3389 0.1184
C68 C 0.1061(5) 0.3120(4) 0.0171(3)
C63 C 0.1136(6) 0.2377(5) 0.9901(3)
C69 C 0.1061(6) 0.4124(6) 0.9619(5)
H37 H 0.1030 0.4574 0.9858
C70 C 0.1251(8) 0.5412(7) 0.8335(6)
H38 H 0.1980 0.5173 0.8206
C71 C 0.0705(9) 0.5893(8) 0.7555(6)
H40 H 0.0895 0.6440 0.7140
C72 C 0.1064(9) 0.5197(11) 0.6495(7)
H41 H 0.1010 0.5868 0.6115
C73 C 0.1221(6) 0.4439(7) 0.6183(5)
C74 C 0.1353(7) 0.4748(7) 0.5345(5)
H42 H 0.1354 0.5414 0.5028
C75 C 0.1481(7) 0.4082(9) 0.4972(4)
H43 H 0.1571 0.4293 0.4399
C76 C 0.1479(6) 0.3107(8) 0.5435(6)
H44 H 0.1567 0.2651 0.5180
C77 C 0.1348(6) 0.2798(6) 0.6273(6)
H45 H 0.1346 0.2131 0.6589
C78 C 0.1219(6) 0.3464(7) 0.6646(4)
C79 C 0.0942(7) 0.6173(7) 0.8745(6)
H46 H 0.1321 0.5812 0.9250
H47 H 0.0226 0.6427 0.8870
H48 H 0.1076 0.6775 0.8382
N5 N 0.1098(5) 0.4459(6) 0.8840(5)
N6 N 0.0986(7) 0.5037(8) 0.7287(5)
O67 O 0.1208(7) 0.2506(5) 0.9118(5)
O68 O 0.1097(5) 0.3108(5) 0.7473(4)
Mn10 Mn 0.10816(10) 0.37091(11) 0.81916(9)
O70 O 0.2797(10) 0.3252(9) 0.7850(7)
C81 C 0.3461(15) 0.2139(11) 0.8047(13)
H71 H 0.322114 0.183585 0.772807
H72 H 0.421877 0.203563 0.786144
H73 H 0.344353 0.170669 0.869996
H39 H 0.9975 0.6228 0.7644
O69 O 0.9419(5) 0.4390(6) 0.8178(5)
C80 C 0.8592(11) 0.5011(12) 0.8511(10)
H74 H 0.857577 0.578135 0.832496
H75 H 0.791778 0.5116 0.829954
H76 H 0.862958 0.462589 0.917139
O73 O 0.0458(5) 0.1528(6) 0.8183(5)
C99 C 0.1171(9) 0.0557(8) 0.8682(10)
H87 H 0.191027 0.052457 0.852157
H88 H 0.101086 0.0471914 0.931464
H86 H 0.114848 0.99165 0.859934
C83 C 0.8629(9) 0.2323(10) 0.0336(8)
H49 H 0.8559 0.3017 0.0183
C84 C 0.8674(10) 0.1710(13) 0.1147(10)
H50 H 0.8643 0.1999 0.1523
C85 C 0.8758(10) 0.0740(14) 0.1438(7)
H51 H 0.8800 0.0337 0.2006
C86 C 0.8783(8) 0.0337(9) 0.0899(7)
C87 C 0.8735(7) 0.0945(9) 0.0040(7)
C82 C 0.8677(8) 0.2009(9) 0.9747(8)
C88 C 0.8722(7) 0.0465(8) 0.9521(6)
C89 C 0.8600(8) 0.0467(8) 0.8211(6)
H54 H 0.7890 0.0880 0.8024
C90 C 0.9237(7) 0.0686(7) 0.7476(6)
H55 H 0.9953 0.0239 0.7622
H56 H 0.9096 0.0530 0.7053
C91 C 0.8967(8) 0.2347(8) 0.6432(7)
H57 H 0.9072 0.2022 0.6062
C92 C 0.8771(6) 0.3486(5) 0.6073(5)
C93 C 0.8647(6) 0.4011(6) 0.5235(5)
H58 H 0.8669 0.3653 0.4915
C94 C 0.8491(6) 0.5059(6) 0.4865(4)
H59 H 0.8406 0.5418 0.4292
C95 C 0.8459(6) 0.5583(5) 0.5333(5)
H60 H 0.8352 0.6299 0.5080
C96 C 0.8583(6) 0.5058(6) 0.6170(5)
H61 H 0.8561 0.5416 0.6490
C97 C 0.8739(6) 0.4010(7) 0.6540(4)
N7 N 0.8707(5) 0.0897(6) 0.8735(5)
N8 N 0.9005(6) 0.1776(7) 0.7183(5)
O71 O 0.8566(6) 0.2604(6) 0.8993(5)
O72 O 0.8832(5) 0.3565(5) 0.7346(4)
Mn11 Mn 0.87892(11) 0.22674(11) 0.80817(9)
O74 O 0.7088(5) 0.3127(5) 0.7783(4)
C100 C 0.6436(9) 0.4032(10) 0.7967(8)
H83 H 0.667686 0.465203 0.7641
H84 H 0.567932 0.431594 0.778311
H85 H 0.64501 0.382443 0.861847
H52 H 0.8833 0.9644 0.1093
H53 H 0.8725 0.9790 0.9771
C98 C 0.8813(9) 0.9275(8) 0.8664(7)
H62 H 0.8351 0.9206 0.9123
H63 H 0.9502 0.8848 0.8864
H64 H 0.8719 0.9028 0.8287
loop_
_geom_bond_atom_site_label_1
_geom_bond_atom_site_label_2
_geom_bond_site_symmetry_1
_geom_bond_site_symmetry_2
C22 O42 1_555 1_555
C8 O14 1_555 1_555
O16 C8 1_555 1_555
O16 Cr6 1_555 1_555
C23 C24 1_555 1_555
C24 O46 1_555 1_555
O45 C23 1_555 1_555
O46 Mn4 1_555 1_555
O47 C23 1_555 1_555
O48 C24 1_555 1_555
O51 Mn4 1_555 1_555
O52 Mn4 1_555 1_555
Cr6 O47 1_555 1_555
O44 Mn4 1_555 1_555
O45 Mn4 1_555 1_555
O48 Cr6 1_555 1_555
C11 C12 1_555 1_555
C12 O22 1_555 1_555
C13 C14 1_555 1_555
C14 O26 1_555 1_555
C15 C16 1_555 1_555
C16 O30 1_555 1_555
C17 C18 1_555 1_555
C18 O34 1_555 1_555
C19 C20 1_555 1_555
C20 O38 1_555 1_555
O20 C10 1_555 1_555
O21 C11 1_555 1_555
O22 Mn3 1_555 1_555
O23 C11 1_555 1_555
O24 C12 1_555 1_555
O25 C13 1_555 1_555
O26 Cr3 1_555 1_555
O51 C13 1_555 1_555
O52 C14 1_555 1_555
O29 C15 1_555 1_555
O30 Cr3 1_555 1_555
O31 C15 1_555 1_555
O32 C16 1_555 1_555
O33 C17 1_555 1_555
O34 Mn3 1_555 1_555
O35 C17 1_555 1_555
O36 C18 1_555 1_555
O37 C19 1_555 1_555
O38 Cr4 1_555 1_555
O39 C19 1_555 1_555
O40 C20 1_555 1_555
O41 C21 1_555 1_555
Cr3 O23 1_555 1_555
Cr4 O35 1_555 1_555
Mn3 O19 1_555 1_555
Mn5 O31 1_555 1_555
Mn6 O39 1_555 1_555
O20 Mn3 1_555 1_555
O21 Mn3 1_555 1_555
O24 Cr3 1_555 1_555
O25 Cr3 1_555 1_555
O29 Cr3 1_555 1_555
O32 Mn5 1_555 1_555
O33 Mn3 1_555 1_555
O36 Cr4 1_555 1_555
O37 Cr4 1_555 1_555
O40 Mn6 1_555 1_555
O41 Cr4 1_555 1_555
C2 O2 1_555 1_555
O2 Cr6 1_555 1_555
O11 C5 1_555 1_555
O13 C7 1_555 1_555
O15 C7 1_555 1_555
Mn6 O11 1_555 1_555
O13 Mn6 1_555 1_555
C3 C4 1_555 1_555
C4 O6 1_555 1_555
C6 O10 1_555 1_555
O1 C1 1_555 1_555
O3 C1 1_555 1_555
O5 C3 1_555 1_555
O6 Mn5 1_555 1_555
O7 C3 1_555 1_555
O8 C4 1_555 1_555
O10 Cr2 1_555 1_555
O12 C6 1_555 1_555
O17 C9 1_555 1_555
O18 Cr2 1_555 1_555
Cr2 O7 1_555 1_555
Mn5 O3 1_555 1_555
O4 Mn5 1_555 1_555
O5 Mn5 1_555 1_555
O8 Cr2 1_555 1_555
O9 Cr2 1_555 1_555
O17 Cr2 1_555 1_555
C25 C26 1_555 1_555
H3 C28 1_555 1_555
C29 C28 1_555 1_555
H4 C29 1_555 1_555
C30 C25 1_555 1_555
C31 C30 1_555 1_555
H5 C31 1_555 1_555
C32 H6 1_555 1_555
C33 C32 1_555 1_555
H7 C33 1_555 1_555
H8 C33 1_555 1_555
C34 H9 1_555 1_555
C35 C34 1_555 1_555
C36 C35 1_555 1_555
C39 C38 1_555 1_555
H13 C39 1_555 1_555
C40 C35 1_555 1_555
C41 C32 1_555 1_555
H14 C41 1_555 1_555
H15 C41 1_555 1_555
H16 C41 1_555 1_555
N1 C31 1_555 1_555
N2 C33 1_555 1_555
O59 C25 1_555 1_555
O60 C40 1_555 1_555
Mn8 N1 1_555 1_555
O61 Mn8 1_555 1_555
C42 O61 1_555 1_555
O62 Mn8 1_555 1_555
C43 O62 1_555 1_555
C29 C30 1_555 1_555
C32 N1 1_555 1_555
C34 N2 1_555 1_555
C39 C40 1_555 1_555
N2 Mn8 1_555 1_555
O59 Mn8 1_555 1_555
O60 Mn8 1_555 1_555
C42 H65 1_555 1_555
C42 H66 1_555 1_555
C42 H67 1_555 1_555
C43 H68 1_555 1_555
C43 H69 1_555 1_555
C43 H70 1_555 1_555
H11 C37 1_555 1_555
H2 C27 1_555 1_555
C58 C57 1_555 1_555
H29 C58 1_555 1_555
C58 C59 1_555 1_555
H27 C56 1_555 1_555
C44 C45 1_555 1_555
C45 H17 1_555 1_555
C46 C45 1_555 1_555
H18 C46 1_555 1_555
C47 C46 1_555 1_555
H19 C47 1_555 1_555
C48 C47 1_555 1_555
H20 C48 1_555 1_555
C49 C44 1_555 1_555
C50 C49 1_555 1_555
H21 C50 1_555 1_555
C51 H22 1_555 1_555
C52 C51 1_555 1_555
H23 C52 1_555 1_555
H24 C52 1_555 1_555
C53 H25 1_555 1_555
C54 C53 1_555 1_555
C60 C51 1_555 1_555
H30 C60 1_555 1_555
H31 C60 1_555 1_555
H32 C60 1_555 1_555
N3 C50 1_555 1_555
N4 C52 1_555 1_555
O63 C44 1_555 1_555
Mn9 N3 1_555 1_555
O65 Mn9 1_555 1_555
C61 O65 1_555 1_555
O66 Mn9 1_555 1_555
C62 O66 1_555 1_555
C48 C49 1_555 1_555
C51 N3 1_555 1_555
C53 N4 1_555 1_555
N4 Mn9 1_555 1_555
O63 Mn9 1_555 1_555
O64 Mn9 1_555 1_555
C61 H77 1_555 1_555
C61 H78 1_555 1_555
C61 H79 1_555 1_555
C62 H80 1_555 1_555
C62 H82 1_555 1_555
C64 H33 1_555 1_555
C65 C64 1_555 1_555
H34 C65 1_555 1_555
C66 C65 1_555 1_555
H35 C66 1_555 1_555
C67 C66 1_555 1_555
H36 C67 1_555 1_555
C67 C68 1_555 1_555
H37 C69 1_555 1_555
C70 H38 1_555 1_555
C71 C70 1_555 1_555
H40 C71 1_555 1_555
C72 H41 1_555 1_555
C73 C72 1_555 1_555
C74 C73 1_555 1_555
H42 C74 1_555 1_555
C75 C74 1_555 1_555
H43 C75 1_555 1_555
C76 C75 1_555 1_555
H44 C76 1_555 1_555
C77 C76 1_555 1_555
H45 C77 1_555 1_555
C78 C73 1_555 1_555
C79 C70 1_555 1_555
H46 C79 1_555 1_555
H47 C79 1_555 1_555
H48 C79 1_555 1_555
N5 C69 1_555 1_555
N6 C71 1_555 1_555
O67 C63 1_555 1_555
O68 C78 1_555 1_555
Mn10 N5 1_555 1_555
O70 Mn10 1_555 1_555
C81 O70 1_555 1_555
C70 N5 1_555 1_555
C72 N6 1_555 1_555
C77 C78 1_555 1_555
N6 Mn10 1_555 1_555
O67 Mn10 1_555 1_555
O68 Mn10 1_555 1_555
C81 H71 1_555 1_555
C81 H72 1_555 1_555
C81 H73 1_555 1_555
C80 O69 1_555 1_555
C80 H74 1_555 1_555
C80 H75 1_555 1_555
C80 H76 1_555 1_555
C99 O73 1_555 1_555
C99 H87 1_555 1_555
C99 H88 1_555 1_555
C83 H49 1_555 1_555
C84 C83 1_555 1_555
H50 C84 1_555 1_555
C85 C84 1_555 1_555
H51 C85 1_555 1_555
C86 C85 1_555 1_555
C86 C87 1_555 1_555
C89 H54 1_555 1_555
C90 C89 1_555 1_555
H55 C90 1_555 1_555
H56 C90 1_555 1_555
C91 H57 1_555 1_555
C92 C91 1_555 1_555
C93 C92 1_555 1_555
H58 C93 1_555 1_555
C94 C93 1_555 1_555
H59 C94 1_555 1_555
C95 C94 1_555 1_555
H60 C95 1_555 1_555
C96 C95 1_555 1_555
H61 C96 1_555 1_555
C97 C92 1_555 1_555
N7 C88 1_555 1_555
N8 C90 1_555 1_555
O71 C82 1_555 1_555
O72 C97 1_555 1_555
Mn11 N7 1_555 1_555
O74 Mn11 1_555 1_555
C100 O74 1_555 1_555
C89 N7 1_555 1_555
C91 N8 1_555 1_555
C96 C97 1_555 1_555
N8 Mn11 1_555 1_555
O71 Mn11 1_555 1_555
O72 Mn11 1_555 1_555
C100 H83 1_555 1_555
C100 H84 1_555 1_555
C100 H85 1_555 1_555
H62 C98 1_555 1_555
H63 C98 1_555 1_555
H64 C98 1_555 1_555

#END
