
###############################################################################
#
# This file contains modified crystal structure data generated from the
# MOF subset of the Cambridge Structural Database (CSD) v543 
# hosted by the Cambridge Crystallographic Data Centre (CCDC).
#
# This work is licensed under the Creative Commons
# Attribution-NonCommercial-ShareAlike 4.0 International License.
# To view a copy of this license, visit
# http://creativecommons.org/licenses/by-nc-sa/4.0/
# or send a letter to
# Creative Commons, PO Box 1866, Mountain View, CA 94042, USA.
#
# CIF created using the CSD Python API on 29 September 2022
# The structure has been converted into the P1 space group
# The structure has a 3D framework
# The original CSD entry BEWWEH is in the orthorhombic crystal system
# The original CSD entry BEWWEH is in a Sohncke space group
# The framework has been calculated to contain at least 10.0% void space
# The void calculation uses a probe of radius 1.32A, grid spacing 0.4
#
###############################################################################

data_BEWWEH
_chemical_formula_moiety         '(C204 H176 Cr8 Mn16 N20 O124)n'
_symmetry_cell_setting           triclinic
_symmetry_space_group_name_H-M   'P 1'
_symmetry_Int_Tables_number      1
_space_group_name_Hall           'P 1'
loop_
_symmetry_equiv_pos_site_id
_symmetry_equiv_pos_as_xyz
1 x,y,z
_cell_length_a                   14.5286(4)
_cell_length_b                   20.8778(7)
_cell_length_c                   22.7570(6)
_cell_angle_alpha                90
_cell_angle_beta                 90
_cell_angle_gamma                90
_cell_volume                     6902.77
loop_
_atom_site_label
_atom_site_type_symbol
_atom_site_fract_x
_atom_site_fract_y
_atom_site_fract_z
C1 C 0.0717(3) 0.5693(2) 0.1299(2)
C2 C 0.1596(3) 0.5887(2) 0.1477(2)
H1 H 0.1652 0.6221 0.1759
C3 C 0.2377(3) 0.5608(3) 0.1257(2)
H2 H 0.2961 0.5734 0.1404
C4 C 0.2325(3) 0.5142(3) 0.0819(3)
H3 H 0.2872 0.4955 0.0669
C5 C 0.1486(3) 0.4954(2) 0.0607(2)
H4 H 0.1445 0.4641 0.0305
C6 C 0.0680(3) 0.5235(2) 0.0845(2)
C7 C 0.9813(3) 0.5090(2) 0.0555(2)
H5 H 0.9846 0.4857 0.0197
C8 C 0.8232(3) 0.5160(2) 0.03127(19)
H7 H 0.8018 0.5585 0.0177
C9 C 0.7432(3) 0.4801(3) 0.0578(2)
H8 H 0.7658 0.4389 0.0736
H9 H 0.6983 0.4704 0.0263
C10 C 0.6943(3) 0.5159(3) 0.1063(2)
H10 H 0.6372 0.4927 0.1166
H11 H 0.6767 0.5589 0.0918
C11 C 0.7150(3) 0.5071(2) 0.2088(2)
H12 H 0.6562 0.4876 0.2059
C12 C 0.7516(3) 0.5149(2) 0.2673(2)
C13 C 0.7073(3) 0.4861(2) 0.3146(2)
H13 H 0.6564 0.4587 0.3071
C14 C 0.7347(4) 0.4961(2) 0.3723(2)
H14 H 0.7046 0.4754 0.4041
C15 C 0.8076(3) 0.5373(2) 0.3816(2)
H15 H 0.8267 0.5457 0.4207
C16 C 0.8530(3) 0.5664(2) 0.3364(2)
H16 H 0.9036 0.5936 0.3451
C17 C 0.8272(3) 0.5573(2) 0.27711(18)
N1 N 0.9004(2) 0.52493(18) 0.07377(15)
N2 N 0.7525(2) 0.52341(17) 0.16098(16)
O1 O 0.99837(18) 0.59543(13) 0.15253(13)
O2 O 0.87079(19) 0.58719(13) 0.23460(12)
Mn1 Mn 0.88000(4) 0.56076(3) 0.15476(3)
N3 N 0.9390(3) 0.4613(2) 0.19255(18)
C18 C 0.9415(4) 0.4368(3) 0.2361(3)
C19 C 0.9382(4) 0.4040(3) 0.2956(2)
H17 H 0.8744 0.4020 0.3093
H18 H 0.9753 0.4283 0.3238
H19 H 0.9629 0.3605 0.2920
O3 O 0.81675(19) 0.64985(13) 0.12535(13)
C20 C 0.8551(3) 0.6944(2) 0.0836(2)
H20 H 0.9037 0.7195 0.1026
H21 H 0.8066 0.7232 0.0696
H22 H 0.8810 0.6707 0.0503
H6 H 0.8461 0.4922 0.9966
C1_2 C 0.4283(3) 0.4307(2) 0.6299(2)
C2_2 C 0.3404(3) 0.4113(2) 0.6477(2)
H1_2 H 0.3348 0.3779 0.6759
C3_2 C 0.2623(3) 0.4392(3) 0.6257(2)
H2_2 H 0.2039 0.4266 0.6404
C4_2 C 0.2675(3) 0.4858(3) 0.5819(3)
H3_2 H 0.2128 0.5045 0.5669
C5_2 C 0.3514(3) 0.5046(2) 0.5607(2)
H4_2 H 0.3555 0.5359 0.5305
C6_2 C 0.4320(3) 0.4765(2) 0.5845(2)
C7_2 C 0.5187(3) 0.4910(2) 0.5555(2)
H5_2 H 0.5154 0.5143 0.5197
C8_2 C 0.6768(3) 0.4840(2) 0.53127(19)
H6_2 H 0.6539 0.5078 0.4966
H7_2 H 0.6982 0.4415 0.5177
C9_2 C 0.7568(3) 0.5199(3) 0.5578(2)
H8_2 H 0.7342 0.5611 0.5736
H9_2 H 0.8017 0.5296 0.5263
C10_2 C 0.8057(3) 0.4841(3) 0.6063(2)
H10_2 H 0.8628 0.5073 0.6166
H11_2 H 0.8233 0.4411 0.5918
C11_2 C 0.7850(3) 0.4929(2) 0.7088(2)
H12_2 H 0.8438 0.5124 0.7059
C12_2 C 0.7484(3) 0.4851(2) 0.7673(2)
C13_2 C 0.7927(3) 0.5139(2) 0.8146(2)
H13_2 H 0.8436 0.5413 0.8071
C14_2 C 0.7653(4) 0.5039(2) 0.8723(2)
H14_2 H 0.7954 0.5246 0.9041
C15_2 C 0.6924(3) 0.4627(2) 0.8816(2)
H15_2 H 0.6733 0.4543 0.9207
C16_2 C 0.6470(3) 0.4336(2) 0.8364(2)
H16_2 H 0.5964 0.4064 0.8451
C17_2 C 0.6728(3) 0.4427(2) 0.77711(18)
N1_2 N 0.5996(2) 0.47507(18) 0.57377(15)
N2_2 N 0.7475(2) 0.47659(17) 0.66098(16)
O1_2 O 0.50163(18) 0.40457(13) 0.65253(13)
O2_2 O 0.62921(19) 0.41281(13) 0.73460(12)
Mn1_2 Mn 0.62000(4) 0.43924(3) 0.65476(3)
N3_2 N 0.5610(3) 0.5387(2) 0.69255(18)
C18_2 C 0.5585(4) 0.5632(3) 0.7361(3)
C19_2 C 0.5618(4) 0.5960(3) 0.7956(2)
H17_2 H 0.6256 0.5980 0.8093
H18_2 H 0.5247 0.5717 0.8238
H19_2 H 0.5371 0.6395 0.7920
O3_2 O 0.68325(19) 0.35015(13) 0.62535(13)
C20_2 C 0.6449(3) 0.3056(2) 0.5836(2)
H20_2 H 0.5963 0.2805 0.6026
H21_2 H 0.6934 0.2768 0.5696
H22_2 H 0.6190 0.3293 0.5503
H6_3 H 0.3461 0.0078 0.0034
H3_3 H 0.7872 0.0045 0.9331
C5_3 C 0.6486(3) 0.0046(2) 0.9393(2)
H4_3 H 0.6445 0.0359 0.9695
H5_3 H 0.4846 0.0143 0.9803
C9_3 C 0.2432(3) 0.0199(3) 0.9422(2)
H8_3 H 0.2658 0.0611 0.9264
H9_3 H 0.1983 0.0296 0.9737
H10_3 H 0.1372 0.0073 0.8834
H12_3 H 0.1562 0.0124 0.7941
C13_3 C 0.2073(3) 0.0139(2) 0.6854(2)
H13_3 H 0.1564 0.0413 0.6929
C14_3 C 0.2347(4) 0.0039(2) 0.6277(2)
H14_3 H 0.2046 0.0246 0.5959
N3_3 N 0.4390(3) 0.0387(2) 0.80745(18)
C18_3 C 0.4415(4) 0.0632(3) 0.7639(3)
C19_3 C 0.4382(4) 0.0960(3) 0.7044(2)
H17_3 H 0.3744 0.0980 0.6907
H18_3 H 0.4753 0.0717 0.6762
H19_3 H 0.4629 0.1395 0.7080
C1_3 C 0.5717(3) 0.9307(2) 0.8701(2)
C2_3 C 0.6596(3) 0.9113(2) 0.8523(2)
H1_3 H 0.6652 0.8779 0.8241
C3_3 C 0.7377(3) 0.9392(3) 0.8743(2)
H2_3 H 0.7961 0.9266 0.8596
C4_3 C 0.7325(3) 0.9858(3) 0.9181(3)
C6_3 C 0.5680(3) 0.9765(2) 0.9155(2)
C7_3 C 0.4813(3) 0.9910(2) 0.9445(2)
C8_3 C 0.3232(3) 0.9840(2) 0.96873(19)
H7_3 H 0.3018 0.9415 0.9823
C10_3 C 0.1943(3) 0.9841(3) 0.8937(2)
H11_3 H 0.1767 0.9411 0.9082
C11_3 C 0.2150(3) 0.9929(2) 0.7912(2)
C12_3 C 0.2516(3) 0.9851(2) 0.7327(2)
C15_3 C 0.3076(3) 0.9627(2) 0.6184(2)
H15_3 H 0.3267 0.9543 0.5793
C16_3 C 0.3530(3) 0.9336(2) 0.6636(2)
H16_3 H 0.4036 0.9064 0.6549
C17_3 C 0.3272(3) 0.9427(2) 0.72289(18)
N1_3 N 0.4004(2) 0.97507(18) 0.92623(15)
N2_3 N 0.2525(2) 0.97659(17) 0.83902(16)
O1_3 O 0.49837(18) 0.90457(13) 0.84747(13)
O2_3 O 0.37079(19) 0.91281(13) 0.76540(12)
Mn1_3 Mn 0.38000(4) 0.93924(3) 0.84524(3)
O3_3 O 0.31675(19) 0.85015(13) 0.87465(13)
C20_3 C 0.3551(3) 0.8056(2) 0.9164(2)
H20_3 H 0.4037 0.7805 0.8974
H21_3 H 0.3066 0.7768 0.9304
H22_3 H 0.3810 0.8293 0.9497
C7_4 C 0.0187(3) 0.0090(2) 0.4445(2)
C8_4 C 0.1768(3) 0.0160(2) 0.46873(19)
H7_4 H 0.1982 0.0585 0.4823
C10_4 C 0.3057(3) 0.0159(3) 0.3937(2)
H11_4 H 0.3233 0.0589 0.4082
C11_4 C 0.2850(3) 0.0071(2) 0.2912(2)
C12_4 C 0.2484(3) 0.0149(2) 0.2327(2)
C15_4 C 0.1924(3) 0.0373(2) 0.1184(2)
H15_4 H 0.1733 0.0457 0.0793
C16_4 C 0.1470(3) 0.0664(2) 0.1636(2)
H16_4 H 0.0964 0.0936 0.1549
C17_4 C 0.1728(3) 0.0573(2) 0.22289(18)
N1_4 N 0.0996(2) 0.02493(18) 0.42623(15)
N2_4 N 0.2475(2) 0.02341(17) 0.33902(16)
O1_4 O 0.00163(18) 0.09543(13) 0.34747(13)
O2_4 O 0.12921(19) 0.08719(13) 0.26540(12)
Mn1_4 Mn 0.12000(4) 0.06076(3) 0.34524(3)
O3_4 O 0.18325(19) 0.14985(13) 0.37465(13)
C20_4 C 0.1449(3) 0.1944(2) 0.4164(2)
H20_4 H 0.0963 0.2195 0.3974
H21_4 H 0.1934 0.2232 0.4304
H22_4 H 0.1190 0.1707 0.4497
H5_4 H 0.0154 0.9857 0.4803
H6_4 H 0.1539 0.9922 0.5034
C9_4 C 0.2568(3) 0.9801(3) 0.4422(2)
H8_4 H 0.2342 0.9389 0.4264
H9_4 H 0.3017 0.9704 0.4737
H10_4 H 0.3628 0.9927 0.3834
H12_4 H 0.3438 0.9876 0.2941
C13_4 C 0.2927(3) 0.9861(2) 0.1854(2)
H13_4 H 0.3436 0.9587 0.1929
C14_4 C 0.2653(4) 0.9961(2) 0.1277(2)
H14_4 H 0.2954 0.9754 0.0959
N3_4 N 0.0610(3) 0.9613(2) 0.30745(18)
C18_4 C 0.0585(4) 0.9368(3) 0.2639(3)
C19_4 C 0.0618(4) 0.9040(3) 0.2044(2)
H17_4 H 0.1256 0.9020 0.1907
H18_4 H 0.0247 0.9283 0.1762
H19_4 H 0.0371 0.8605 0.2080
C1_4 C 0.9283(3) 0.0693(2) 0.3701(2)
C2_4 C 0.8404(3) 0.0887(2) 0.3523(2)
H1_4 H 0.8348 0.1221 0.3241
C3_4 C 0.7623(3) 0.0608(3) 0.3743(2)
H2_4 H 0.7039 0.0734 0.3596
C4_4 C 0.7675(3) 0.0142(3) 0.4181(3)
C6_4 C 0.9320(3) 0.0235(2) 0.4155(2)
H3_4 H 0.7128 0.9955 0.4331
C5_4 C 0.8514(3) 0.9954(2) 0.4393(2)
H4_4 H 0.8555 0.9641 0.4695
C38 C 0.0032(3) 0.7262(2) 0.2466(3)
H40 H 0.0431 0.6886 0.2434
H41 H 0.0296 0.7564 0.2750
C24 C 0.7875(5) 0.0018(3) 0.1681(3)
H25 H 0.7790 0.0462 0.1608
H26 H 0.8087 0.0106 0.2549
C21 C 0.8096(3) 0.8702(3) 0.1886(2)
C22 C 0.7963(4) 0.8929(3) 0.1315(2)
H23 H 0.7963 0.8642 0.0991
C23 C 0.7829(5) 0.9587(3) 0.1228(3)
H24 H 0.7703 0.9739 0.0843
C25 C 0.8042(5) 0.9808(3) 0.2235(3)
C26 C 0.8148(4) 0.9156(3) 0.2345(2)
C27 C 0.8388(4) 0.8949(3) 0.2933(2)
H27 H 0.8552 0.9275 0.3205
C28 C 0.8786(4) 0.8268(3) 0.3714(2)
H28 H 0.8933 0.8686 0.3897
H29 H 0.9369 0.8025 0.3676
C29 C 0.8146(4) 0.7905(3) 0.4112(2)
H30 H 0.7545 0.8128 0.4121
H31 H 0.8401 0.7912 0.4516
C30 C 0.7991(4) 0.7218(3) 0.3932(2)
H32 H 0.8594 0.7002 0.3890
H33 H 0.7645 0.6995 0.4246
C31 C 0.6778(4) 0.6787(2) 0.3373(2)
H34 H 0.6607 0.6612 0.3743
C32 C 0.6219(3) 0.6602(3) 0.2867(2)
C33 C 0.5403(3) 0.6266(3) 0.2960(2)
H35 H 0.5214 0.6177 0.3351
C34 C 0.4873(4) 0.6061(3) 0.2508(3)
H36 H 0.4312 0.5842 0.2582
C35 C 0.5159(4) 0.6175(3) 0.1930(3)
H37 H 0.4790 0.6031 0.1612
C36 C 0.5975(3) 0.6497(3) 0.1819(2)
H38 H 0.6169 0.6565 0.1425
C37 C 0.6519(3) 0.6724(2) 0.2289(2)
N4 N 0.8403(3) 0.8381(2) 0.31223(17)
N5 N 0.7472(3) 0.71598(19) 0.33677(16)
O4 O 0.8223(2) 0.80856(19) 0.19665(13)
O5 O 0.7307(2) 0.70207(15) 0.21711(12)
Mn2 Mn 0.78667(5) 0.76495(4) 0.26475(3)
O6 O 0.91406(19) 0.70691(14) 0.26603(13)
H39 H 0.9981 0.7471 0.2082
O7 O 0.6509(2) 0.81639(16) 0.26576(15)
C39 C 0.5816(6) 0.8178(4) 0.2145(4)
H42 H 0.5309 0.7882 0.2228
H43 H 0.6126 0.8049 0.1782
H44 H 0.5573 0.8613 0.2100
C34_2 C 0.0127(4) 0.3939(3) 0.7508(3)
H36_2 H 0.0688 0.4158 0.7582
H37_2 H 0.0210 0.3969 0.6612
C21_2 C 0.6904(3) 0.1298(3) 0.6886(2)
C22_2 C 0.7037(4) 0.1071(3) 0.6315(2)
H23_2 H 0.7037 0.1358 0.5991
C23_2 C 0.7171(5) 0.0413(3) 0.6228(3)
H24_2 H 0.7297 0.0261 0.5843
C25_2 C 0.6958(5) 0.0192(3) 0.7235(3)
C26_2 C 0.6852(4) 0.0844(3) 0.7345(2)
C27_2 C 0.6612(4) 0.1051(3) 0.7933(2)
H27_2 H 0.6448 0.0725 0.8205
C28_2 C 0.6214(4) 0.1732(3) 0.8714(2)
H28_2 H 0.6067 0.1314 0.8897
H29_2 H 0.5631 0.1975 0.8676
C29_2 C 0.6854(4) 0.2095(3) 0.9112(2)
H30_2 H 0.7455 0.1872 0.9121
H31_2 H 0.6599 0.2088 0.9516
C30_2 C 0.7009(4) 0.2782(3) 0.8932(2)
H32_2 H 0.6406 0.2998 0.8890
H33_2 H 0.7355 0.3005 0.9246
C31_2 C 0.8222(4) 0.3213(2) 0.8373(2)
H34_2 H 0.8393 0.3388 0.8743
C32_2 C 0.8781(3) 0.3398(3) 0.7867(2)
C33_2 C 0.9597(3) 0.3734(3) 0.7960(2)
H35_2 H 0.9786 0.3823 0.8351
C35_2 C 0.9841(4) 0.3825(3) 0.6930(3)
C36_2 C 0.9025(3) 0.3503(3) 0.6819(2)
H38_2 H 0.8831 0.3435 0.6425
C37_2 C 0.8481(3) 0.3276(2) 0.7289(2)
N4_2 N 0.6597(3) 0.1619(2) 0.81223(17)
N5_2 N 0.7528(3) 0.28402(19) 0.83677(16)
O4_2 O 0.6777(2) 0.19144(19) 0.69665(13)
O5_2 O 0.7693(2) 0.29793(15) 0.71711(12)
Mn2_2 Mn 0.71333(5) 0.23505(4) 0.76475(3)
O6_2 O 0.58594(19) 0.29309(14) 0.76603(13)
C38_2 C 0.4968(3) 0.2738(2) 0.7466(3)
H39_2 H 0.5019 0.2529 0.7082
H40_2 H 0.4569 0.3114 0.7434
H41_2 H 0.4704 0.2436 0.7750
O7_2 O 0.8491(2) 0.18361(16) 0.76576(15)
C39_2 C 0.9184(6) 0.1822(4) 0.7145(4)
H42_2 H 0.9691 0.2118 0.7228
H43_2 H 0.8874 0.1951 0.6782
H44_2 H 0.9427 0.1387 0.7100
C24_2 C 0.7125(5) 0.9982(3) 0.6681(3)
H25_2 H 0.7210 0.9538 0.6608
H26_2 H 0.6913 0.9894 0.7549
C21_3 C 0.3096(3) 0.6298(3) 0.8114(2)
C22_3 C 0.2963(4) 0.6071(3) 0.8685(2)
H23_3 H 0.2963 0.6358 0.9009
C23_3 C 0.2829(5) 0.5413(3) 0.8772(3)
H24_3 H 0.2703 0.5261 0.9157
C24_3 C 0.2875(5) 0.4982(3) 0.8319(3)
H25_3 H 0.2790 0.4538 0.8392
C25_3 C 0.3042(5) 0.5192(3) 0.7765(3)
H26_3 H 0.3087 0.4894 0.7451
C26_3 C 0.3148(4) 0.5844(3) 0.7655(2)
C27_3 C 0.3388(4) 0.6051(3) 0.7067(2)
H27_3 H 0.3552 0.5725 0.6795
C28_3 C 0.3786(4) 0.6732(3) 0.6286(2)
H28_3 H 0.3933 0.6314 0.6103
H29_3 H 0.4369 0.6975 0.6324
C29_3 C 0.3146(4) 0.7095(3) 0.5888(2)
H30_3 H 0.2545 0.6872 0.5879
H31_3 H 0.3401 0.7088 0.5484
C30_3 C 0.2991(4) 0.7782(3) 0.6068(2)
H32_3 H 0.3594 0.7998 0.6110
H33_3 H 0.2645 0.8005 0.5754
C31_3 C 0.1778(4) 0.8213(2) 0.6627(2)
H34_3 H 0.1607 0.8388 0.6257
C32_3 C 0.1219(3) 0.8398(3) 0.7133(2)
C33_3 C 0.0403(3) 0.8734(3) 0.7040(2)
H35_3 H 0.0214 0.8823 0.6649
C35_3 C 0.0159(4) 0.8825(3) 0.8070(3)
C36_3 C 0.0975(3) 0.8503(3) 0.8181(2)
H38_3 H 0.1169 0.8435 0.8575
C37_3 C 0.1519(3) 0.8276(2) 0.7711(2)
N4_3 N 0.3403(3) 0.6619(2) 0.68777(17)
N5_3 N 0.2472(3) 0.78402(19) 0.66323(16)
O4_3 O 0.3223(2) 0.69144(19) 0.80335(13)
O5_3 O 0.2307(2) 0.79793(15) 0.78289(12)
Mn2_3 Mn 0.28667(5) 0.73505(4) 0.73525(3)
O6_3 O 0.41406(19) 0.79309(14) 0.73397(13)
C38_3 C 0.5032(3) 0.7738(2) 0.7534(3)
H39_3 H 0.4981 0.7529 0.7918
H40_3 H 0.5431 0.8114 0.7566
H41_3 H 0.5296 0.7436 0.7250
O7_3 O 0.1509(2) 0.68361(16) 0.73424(15)
C39_3 C 0.0816(6) 0.6822(4) 0.7855(4)
H42_3 H 0.0309 0.7118 0.7772
H43_3 H 0.1126 0.6951 0.8218
H44_3 H 0.0573 0.6387 0.7900
C34_3 C 0.9873(4) 0.8939(3) 0.7492(3)
H36_3 H 0.9312 0.9158 0.7418
H37_3 H 0.9790 0.8969 0.8388
C21_4 C 0.1904(3) 0.3702(3) 0.3114(2)
C22_4 C 0.2037(4) 0.3929(3) 0.3685(2)
H23_4 H 0.2037 0.3642 0.4009
C23_4 C 0.2171(5) 0.4587(3) 0.3772(3)
H24_4 H 0.2297 0.4739 0.4157
C24_4 C 0.2125(5) 0.5018(3) 0.3319(3)
H25_4 H 0.2210 0.5462 0.3392
C25_4 C 0.1958(5) 0.4808(3) 0.2765(3)
H26_4 H 0.1913 0.5106 0.2451
C26_4 C 0.1852(4) 0.4156(3) 0.2655(2)
C27_4 C 0.1612(4) 0.3949(3) 0.2067(2)
H27_4 H 0.1448 0.4275 0.1795
C28_4 C 0.1214(4) 0.3268(3) 0.1286(2)
H28_4 H 0.1067 0.3686 0.1103
H29_4 H 0.0631 0.3025 0.1324
C29_4 C 0.1854(4) 0.2905(3) 0.0888(2)
H30_4 H 0.2455 0.3128 0.0879
H31_4 H 0.1599 0.2912 0.0484
C30_4 C 0.2009(4) 0.2218(3) 0.1068(2)
H32_4 H 0.1406 0.2002 0.1110
H33_4 H 0.2355 0.1995 0.0754
C31_4 C 0.3222(4) 0.1787(2) 0.1627(2)
H34_4 H 0.3393 0.1612 0.1257
C32_4 C 0.3781(3) 0.1602(3) 0.2133(2)
C33_4 C 0.4597(3) 0.1266(3) 0.2040(2)
H35_4 H 0.4786 0.1177 0.1649
C34_4 C 0.5127(4) 0.1061(3) 0.2492(3)
H36_4 H 0.5688 0.0842 0.2418
C35_4 C 0.4841(4) 0.1175(3) 0.3070(3)
H37_4 H 0.5210 0.1031 0.3388
C36_4 C 0.4025(3) 0.1497(3) 0.3181(2)
H38_4 H 0.3831 0.1565 0.3575
C37_4 C 0.3481(3) 0.1724(2) 0.2711(2)
N4_4 N 0.1597(3) 0.3381(2) 0.18777(17)
N5_4 N 0.2528(3) 0.21598(19) 0.16323(16)
O4_4 O 0.1777(2) 0.30856(19) 0.30335(13)
O5_4 O 0.2693(2) 0.20207(15) 0.28289(12)
Mn2_4 Mn 0.21333(5) 0.26495(4) 0.23525(3)
O6_4 O 0.08594(19) 0.20691(14) 0.23397(13)
H39_4 H 0.0019 0.2471 0.2918
O7_4 O 0.3491(2) 0.31639(16) 0.23424(15)
C39_4 C 0.4184(6) 0.3178(4) 0.2855(4)
H42_4 H 0.4691 0.2882 0.2772
H43_4 H 0.3874 0.3049 0.3218
H44_4 H 0.4427 0.3613 0.2900
C38_4 C 0.9968(3) 0.2262(2) 0.2534(3)
H40_4 H 0.9569 0.1886 0.2566
H41_4 H 0.9704 0.2564 0.2250
C46 C 0.5541(3) 0.2188(2) 0.42924(18)
C47 C 0.6422(3) 0.1883(2) 0.45803(19)
C48 C 0.3082(3) 0.1562(2) 0.55868(18)
C49 C 0.3758(3) 0.1946(2) 0.59687(19)
O18 O 0.5046(2) 0.04616(16) 0.57208(12)
O19 O 0.5087(2) 0.04788(15) 0.45276(13)
O20 O 0.4794(2) 0.20176(15) 0.44713(13)
O21 O 0.63207(19) 0.15225(15) 0.49945(13)
O22 O 0.57157(18) 0.25941(14) 0.38855(12)
O23 O 0.71796(19) 0.20499(14) 0.43452(12)
O24 O 0.33965(18) 0.12261(15) 0.51977(13)
O25 O 0.4593(2) 0.19012(15) 0.58782(13)
O26 O 0.2236(2) 0.16331(14) 0.57215(12)
O27 O 0.33852(19) 0.22880(14) 0.63803(12)
Mn3 Mn 0.48872(5) 0.12838(4) 0.51468(3)
Cr3 Cr 0.20386(5) 0.23238(4) 0.62993(3)
Cr4 Cr 0.70386(5) 0.26762(4) 0.37007(3)
C40 C 0.3923(3) 0.8266(2) 0.45847(19)
C41 C 0.4743(3) 0.7940(2) 0.42732(19)
C42 C 0.6372(3) 0.7956(2) 0.58850(19)
C43 C 0.7116(3) 0.8376(2) 0.55920(18)
C44 C 0.5188(3) 0.9956(2) 0.54612(19)
C45 C 0.5251(3) 0.9971(2) 0.47811(19)
C50 C 0.3086(3) 0.7220(2) 0.2421(2)
C51 C 0.3144(3) 0.7962(2) 0.2468(2)
O8 O 0.41253(18) 0.86229(14) 0.50230(12)
O9 O 0.5530(2) 0.80942(15) 0.44755(13)
O10 O 0.3143(2) 0.81636(16) 0.44048(13)
O11 O 0.45841(18) 0.75680(15) 0.38658(13)
O12 O 0.5553(2) 0.80572(14) 0.57218(13)
O13 O 0.68139(19) 0.87600(15) 0.52115(12)
O14 O 0.66248(19) 0.75424(15) 0.62517(13)
O15 O 0.7932(2) 0.83097(15) 0.57392(12)
O16 O 0.53077(19) 0.94133(16) 0.56918(12)
O17 O 0.5445(2) 0.94393(15) 0.45464(12)
O28 O 0.3099(2) 0.69056(14) 0.28787(13)
O29 O 0.3183(2) 0.82117(15) 0.29532(13)
O30 O 0.3048(2) 0.69991(14) 0.19041(13)
O31 O 0.3137(2) 0.82530(14) 0.19742(13)
Cr1 Cr 0.29614(5) 0.76762(4) 0.12993(3)
Cr2 Cr 0.54697(5) 0.87224(4) 0.51162(3)
Mn4 Mn 0.31256(5) 0.75019(4) 0.36530(3)
O32 O 0.16248(19) 0.74576(15) 0.37483(13)
O33 O 0.2932(2) 0.66903(15) 0.42608(12)
O34 O 0.42843(18) 0.75941(14) 0.11145(12)
O35 O 0.28204(19) 0.70499(14) 0.06548(12)
O36 O 0.2764(2) 0.83669(14) 0.07215(12)
O37 O 0.16148(19) 0.77120(14) 0.13803(12)
Mn5 Mn 0.81256(5) 0.74981(4) 0.63470(3)
C40_2 C 0.1077(3) 0.1734(2) 0.95847(19)
C41_2 C 0.0257(3) 0.2060(2) 0.92732(19)
C50_2 C 0.1914(3) 0.2780(2) 0.7421(2)
C51_2 C 0.1856(3) 0.2038(2) 0.7468(2)
O10_2 O 0.1857(2) 0.18364(16) 0.94048(13)
O11_2 O 0.04159(18) 0.24320(15) 0.88658(13)
O28_2 O 0.1901(2) 0.30944(14) 0.78787(13)
O29_2 O 0.1817(2) 0.17883(15) 0.79532(13)
O30_2 O 0.1952(2) 0.30009(14) 0.69041(13)
O31_2 O 0.1863(2) 0.17470(14) 0.69742(13)
Mn4_2 Mn 0.18744(5) 0.24981(4) 0.86530(3)
O32_2 O 0.33752(19) 0.25424(15) 0.87483(13)
O33_2 O 0.2068(2) 0.33097(15) 0.92608(12)
O34_2 O 0.07157(18) 0.24059(14) 0.61145(12)
O35_2 O 0.21796(19) 0.29501(14) 0.56548(12)
C48_2 C 0.1918(3) 0.8438(2) 0.05868(18)
C49_2 C 0.1242(3) 0.8054(2) 0.09687(19)
O24_2 O 0.16035(18) 0.87739(15) 0.01977(13)
O25_2 O 0.0407(2) 0.80988(15) 0.08782(13)
Mn3_2 Mn 0.01128(5) 0.87162(4) 0.01468(3)
C42_2 C 0.8628(3) 0.2044(2) 0.08850(19)
C43_2 C 0.7884(3) 0.1624(2) 0.05920(18)
C44_2 C 0.9812(3) 0.0044(2) 0.04612(19)
O12_2 O 0.9447(2) 0.19428(14) 0.07218(13)
O13_2 O 0.81861(19) 0.12400(15) 0.02115(12)
O14_2 O 0.83752(19) 0.24576(15) 0.12517(13)
O15_2 O 0.7068(2) 0.16903(15) 0.07392(12)
O16_2 O 0.96923(19) 0.05867(16) 0.06918(12)
Cr2_2 Cr 0.95303(5) 0.12776(4) 0.01162(3)
Mn5_2 Mn 0.68744(5) 0.25019(4) 0.13470(3)
C46_2 C 0.9459(3) 0.7812(2) 0.92924(18)
C47_2 C 0.8578(3) 0.8117(2) 0.95803(19)
O19_2 O 0.9913(2) 0.95212(15) 0.95276(13)
O21_2 O 0.86793(19) 0.84775(15) 0.99945(13)
O22_2 O 0.92843(18) 0.74059(14) 0.88855(12)
O23_2 O 0.78204(19) 0.79501(14) 0.93452(12)
Cr4_2 Cr 0.79614(5) 0.73238(4) 0.87007(3)
C42_3 C 0.1372(3) 0.7044(2) 0.41150(19)
C43_3 C 0.2116(3) 0.6624(2) 0.44080(18)
C44_3 C 0.0188(3) 0.5044(2) 0.45388(19)
C45_2 C 0.0251(3) 0.5029(2) 0.52189(19)
C46_3 C 0.0541(3) 0.2812(2) 0.57076(18)
C47_3 C 0.1422(3) 0.3117(2) 0.54197(19)
O9_2 O 0.0530(2) 0.69058(15) 0.55245(13)
O12_3 O 0.0553(2) 0.69428(14) 0.42782(13)
O13_3 O 0.18139(19) 0.62400(15) 0.47885(12)
O16_3 O 0.03077(19) 0.55867(16) 0.43082(12)
O17_2 O 0.0445(2) 0.55607(15) 0.54536(12)
O18_2 O 0.0046(2) 0.45384(16) 0.42792(12)
O19_3 O 0.0087(2) 0.45212(15) 0.54724(13)
O21_3 O 0.13207(19) 0.34775(15) 0.50055(13)
Cr2_3 Cr 0.04697(5) 0.62776(4) 0.48838(3)
C40_3 C 0.8923(3) 0.6734(2) 0.54153(19)
C41_3 C 0.9743(3) 0.7060(2) 0.57268(19)
C48_3 C 0.8082(3) 0.3438(2) 0.44132(18)
C49_3 C 0.8758(3) 0.3054(2) 0.40313(19)
C50_3 C 0.8086(3) 0.7780(2) 0.7579(2)
C51_3 C 0.8144(3) 0.7038(2) 0.7532(2)
O8_2 O 0.91253(18) 0.63771(14) 0.49770(12)
O10_3 O 0.8143(2) 0.68364(16) 0.55952(13)
O11_3 O 0.95841(18) 0.74320(15) 0.61342(13)
O20_2 O 0.9794(2) 0.29824(15) 0.55287(13)
O24_3 O 0.83965(18) 0.37739(15) 0.48023(13)
O25_3 O 0.9593(2) 0.30988(15) 0.41218(13)
O26_2 O 0.7236(2) 0.33669(14) 0.42785(12)
O27_2 O 0.83852(19) 0.27120(14) 0.36197(12)
O28_3 O 0.8099(2) 0.80944(14) 0.71213(13)
O29_3 O 0.8183(2) 0.67883(15) 0.70468(13)
O30_3 O 0.8048(2) 0.80009(14) 0.80959(13)
O31_3 O 0.8137(2) 0.67470(14) 0.80258(13)
Mn3_3 Mn 0.98872(5) 0.37162(4) 0.48532(3)
O36_2 O 0.7764(2) 0.66331(14) 0.92785(12)
O37_2 O 0.66148(19) 0.72880(14) 0.86197(12)
C40_4 C 0.6077(3) 0.3266(2) 0.04153(19)
C41_4 C 0.5257(3) 0.2940(2) 0.07268(19)
C45_3 C 0.4749(3) 0.4971(2) 0.02189(19)
C46_4 C 0.4459(3) 0.7188(2) 0.07076(18)
C47_4 C 0.3578(3) 0.6883(2) 0.04197(19)
C50_4 C 0.6914(3) 0.2220(2) 0.2579(2)
C51_4 C 0.6856(3) 0.2962(2) 0.2532(2)
O9_3 O 0.4470(2) 0.30942(15) 0.05245(13)
O10_4 O 0.6857(2) 0.31636(16) 0.05952(13)
O11_4 O 0.54159(18) 0.25680(15) 0.11342(13)
O17_3 O 0.4555(2) 0.44393(15) 0.04536(12)
O19_4 O 0.4913(2) 0.54788(15) 0.04724(13)
O20_3 O 0.5206(2) 0.70176(15) 0.05287(13)
O21_4 O 0.36793(19) 0.65225(15) 0.00055(13)
O28_4 O 0.6901(2) 0.19056(14) 0.21213(13)
O29_4 O 0.6817(2) 0.32117(15) 0.20468(13)
O30_4 O 0.6952(2) 0.19991(14) 0.30959(13)
O31_4 O 0.6863(2) 0.32530(14) 0.30258(13)
C42_4 C 0.3628(3) 0.2956(2) 0.91150(19)
C43_4 C 0.2884(3) 0.3376(2) 0.94080(18)
C44_4 C 0.4812(3) 0.4956(2) 0.95388(19)
C48_4 C 0.6918(3) 0.6562(2) 0.94132(18)
C49_4 C 0.6242(3) 0.6946(2) 0.90313(19)
O8_3 O 0.58747(18) 0.36229(14) 0.99770(12)
O12_4 O 0.4447(2) 0.30572(14) 0.92782(13)
O13_4 O 0.31861(19) 0.37600(15) 0.97885(12)
O16_4 O 0.46923(19) 0.44133(16) 0.93082(12)
O18_3 O 0.4954(2) 0.54616(16) 0.92792(12)
O24_4 O 0.66035(18) 0.62261(15) 0.98023(13)
O25_4 O 0.5407(2) 0.69012(15) 0.91218(13)
Cr2_4 Cr 0.45303(5) 0.37224(4) 0.98838(3)
Mn3_4 Mn 0.51128(5) 0.62838(4) 0.98532(3)
O8_4 O 0.08747(18) 0.13771(14) 0.00230(12)
O20_4 O 0.0206(2) 0.79824(15) 0.94713(13)
C45_4 C 0.9749(3) 0.0029(2) 0.97811(19)
O9_4 O 0.9470(2) 0.19058(15) 0.94755(13)
O17_4 O 0.9555(2) 0.05607(15) 0.95464(12)
O18_4 O 0.9954(2) 0.95384(16) 0.07208(12)
loop_
_geom_bond_atom_site_label_1
_geom_bond_atom_site_label_2
_geom_bond_site_symmetry_1
_geom_bond_site_symmetry_2
C1 C2 1_555 1_555
C2 H1 1_555 1_555
C3 C2 1_555 1_555
H2 C3 1_555 1_555
C4 C3 1_555 1_555
H3 C4 1_555 1_555
C5 C4 1_555 1_555
H4 C5 1_555 1_555
C6 C1 1_555 1_555
C5 C6 1_555 1_555
H5 C7 1_555 1_555
H7 C8 1_555 1_555
C9 C8 1_555 1_555
H8 C9 1_555 1_555
H9 C9 1_555 1_555
C10 C9 1_555 1_555
H10 C10 1_555 1_555
H11 C10 1_555 1_555
C11 H12 1_555 1_555
C12 C11 1_555 1_555
C13 C12 1_555 1_555
H13 C13 1_555 1_555
C14 C13 1_555 1_555
H14 C14 1_555 1_555
C15 C14 1_555 1_555
H15 C15 1_555 1_555
C16 C15 1_555 1_555
H16 C16 1_555 1_555
C17 C12 1_555 1_555
N1 C7 1_555 1_555
N2 C10 1_555 1_555
O2 C17 1_555 1_555
Mn1 N1 1_555 1_555
N3 Mn1 1_555 1_555
C18 N3 1_555 1_555
C19 C18 1_555 1_555
H17 C19 1_555 1_555
H18 C19 1_555 1_555
H19 C19 1_555 1_555
O3 Mn1 1_555 1_555
C20 O3 1_555 1_555
H20 C20 1_555 1_555
H21 C20 1_555 1_555
H22 C20 1_555 1_555
C8 N1 1_555 1_555
C11 N2 1_555 1_555
C16 C17 1_555 1_555
N2 Mn1 1_555 1_555
O1 Mn1 1_555 1_555
O2 Mn1 1_555 1_555
C1_2 C2_2 1_555 1_555
C2_2 H1_2 1_555 1_555
C3_2 C2_2 1_555 1_555
H2_2 C3_2 1_555 1_555
C4_2 C3_2 1_555 1_555
H3_2 C4_2 1_555 1_555
C5_2 C4_2 1_555 1_555
H4_2 C5_2 1_555 1_555
C6_2 C1_2 1_555 1_555
C7_2 C6_2 1_555 1_555
H5_2 C7_2 1_555 1_555
C8_2 H6_2 1_555 1_555
H7_2 C8_2 1_555 1_555
C9_2 C8_2 1_555 1_555
H8_2 C9_2 1_555 1_555
H9_2 C9_2 1_555 1_555
C10_2 C9_2 1_555 1_555
H10_2 C10_2 1_555 1_555
H11_2 C10_2 1_555 1_555
C11_2 H12_2 1_555 1_555
C12_2 C11_2 1_555 1_555
C13_2 C12_2 1_555 1_555
H13_2 C13_2 1_555 1_555
C14_2 C13_2 1_555 1_555
H14_2 C14_2 1_555 1_555
C15_2 C14_2 1_555 1_555
H15_2 C15_2 1_555 1_555
C16_2 C15_2 1_555 1_555
H16_2 C16_2 1_555 1_555
C17_2 C12_2 1_555 1_555
N1_2 C7_2 1_555 1_555
N2_2 C10_2 1_555 1_555
O1_2 C1_2 1_555 1_555
O2_2 C17_2 1_555 1_555
Mn1_2 N1_2 1_555 1_555
N3_2 Mn1_2 1_555 1_555
C18_2 N3_2 1_555 1_555
C19_2 C18_2 1_555 1_555
H17_2 C19_2 1_555 1_555
H18_2 C19_2 1_555 1_555
H19_2 C19_2 1_555 1_555
O3_2 Mn1_2 1_555 1_555
C20_2 O3_2 1_555 1_555
H20_2 C20_2 1_555 1_555
H21_2 C20_2 1_555 1_555
H22_2 C20_2 1_555 1_555
C5_2 C6_2 1_555 1_555
C8_2 N1_2 1_555 1_555
C11_2 N2_2 1_555 1_555
C16_2 C17_2 1_555 1_555
N2_2 Mn1_2 1_555 1_555
O1_2 Mn1_2 1_555 1_555
O2_2 Mn1_2 1_555 1_555
H4_3 C5_3 1_555 1_555
H8_3 C9_3 1_555 1_555
H9_3 C9_3 1_555 1_555
H13_3 C13_3 1_555 1_555
C14_3 C13_3 1_555 1_555
H14_3 C14_3 1_555 1_555
C18_3 N3_3 1_555 1_555
C19_3 C18_3 1_555 1_555
H17_3 C19_3 1_555 1_555
H18_3 C19_3 1_555 1_555
H19_3 C19_3 1_555 1_555
C1_3 C2_3 1_555 1_555
C2_3 H1_3 1_555 1_555
C3_3 C2_3 1_555 1_555
H2_3 C3_3 1_555 1_555
C4_3 C3_3 1_555 1_555
C6_3 C1_3 1_555 1_555
C7_3 C6_3 1_555 1_555
H7_3 C8_3 1_555 1_555
H11_3 C10_3 1_555 1_555
C12_3 C11_3 1_555 1_555
H15_3 C15_3 1_555 1_555
C16_3 C15_3 1_555 1_555
H16_3 C16_3 1_555 1_555
C17_3 C12_3 1_555 1_555
N1_3 C7_3 1_555 1_555
N2_3 C10_3 1_555 1_555
O1_3 C1_3 1_555 1_555
O2_3 C17_3 1_555 1_555
Mn1_3 N1_3 1_555 1_555
O3_3 Mn1_3 1_555 1_555
C20_3 O3_3 1_555 1_555
H20_3 C20_3 1_555 1_555
H21_3 C20_3 1_555 1_555
H22_3 C20_3 1_555 1_555
C8_3 N1_3 1_555 1_555
C11_3 N2_3 1_555 1_555
C16_3 C17_3 1_555 1_555
N2_3 Mn1_3 1_555 1_555
O1_3 Mn1_3 1_555 1_555
O2_3 Mn1_3 1_555 1_555
H7_4 C8_4 1_555 1_555
H11_4 C10_4 1_555 1_555
C12_4 C11_4 1_555 1_555
H15_4 C15_4 1_555 1_555
C16_4 C15_4 1_555 1_555
H16_4 C16_4 1_555 1_555
C17_4 C12_4 1_555 1_555
N1_4 C7_4 1_555 1_555
N2_4 C10_4 1_555 1_555
O2_4 C17_4 1_555 1_555
Mn1_4 N1_4 1_555 1_555
O3_4 Mn1_4 1_555 1_555
C20_4 O3_4 1_555 1_555
H20_4 C20_4 1_555 1_555
H21_4 C20_4 1_555 1_555
H22_4 C20_4 1_555 1_555
C8_4 N1_4 1_555 1_555
C11_4 N2_4 1_555 1_555
C16_4 C17_4 1_555 1_555
N2_4 Mn1_4 1_555 1_555
O1_4 Mn1_4 1_555 1_555
O2_4 Mn1_4 1_555 1_555
H8_4 C9_4 1_555 1_555
H9_4 C9_4 1_555 1_555
H13_4 C13_4 1_555 1_555
C14_4 C13_4 1_555 1_555
H14_4 C14_4 1_555 1_555
C18_4 N3_4 1_555 1_555
C19_4 C18_4 1_555 1_555
H17_4 C19_4 1_555 1_555
H18_4 C19_4 1_555 1_555
H19_4 C19_4 1_555 1_555
C1_4 C2_4 1_555 1_555
C2_4 H1_4 1_555 1_555
C3_4 C2_4 1_555 1_555
H2_4 C3_4 1_555 1_555
C4_4 C3_4 1_555 1_555
C6_4 C1_4 1_555 1_555
H4_4 C5_4 1_555 1_555
H40 C38 1_555 1_555
H41 C38 1_555 1_555
H25 C24 1_555 1_555
C21 C22 1_555 1_555
C22 H23 1_555 1_555
C23 C22 1_555 1_555
H24 C23 1_555 1_555
C26 C21 1_555 1_555
C27 C26 1_555 1_555
H27 C27 1_555 1_555
C28 H28 1_555 1_555
H29 C28 1_555 1_555
C29 C28 1_555 1_555
H30 C29 1_555 1_555
H31 C29 1_555 1_555
C30 C29 1_555 1_555
H32 C30 1_555 1_555
H33 C30 1_555 1_555
C31 H34 1_555 1_555
C32 C31 1_555 1_555
C33 C32 1_555 1_555
H35 C33 1_555 1_555
C34 C33 1_555 1_555
H36 C34 1_555 1_555
C35 C34 1_555 1_555
H37 C35 1_555 1_555
C36 C35 1_555 1_555
H38 C36 1_555 1_555
C37 C32 1_555 1_555
N4 C27 1_555 1_555
N5 C30 1_555 1_555
O4 C21 1_555 1_555
O5 C37 1_555 1_555
Mn2 N4 1_555 1_555
O6 Mn2 1_555 1_555
O7 Mn2 1_555 1_555
C39 O7 1_555 1_555
H42 C39 1_555 1_555
H43 C39 1_555 1_555
H44 C39 1_555 1_555
C25 C26 1_555 1_555
C28 N4 1_555 1_555
C31 N5 1_555 1_555
C36 C37 1_555 1_555
N5 Mn2 1_555 1_555
O4 Mn2 1_555 1_555
O5 Mn2 1_555 1_555
H36_2 C34_2 1_555 1_555
C21_2 C22_2 1_555 1_555
C22_2 H23_2 1_555 1_555
C23_2 C22_2 1_555 1_555
H24_2 C23_2 1_555 1_555
C26_2 C21_2 1_555 1_555
C27_2 C26_2 1_555 1_555
H27_2 C27_2 1_555 1_555
C28_2 H28_2 1_555 1_555
H29_2 C28_2 1_555 1_555
C29_2 C28_2 1_555 1_555
H30_2 C29_2 1_555 1_555
H31_2 C29_2 1_555 1_555
C30_2 C29_2 1_555 1_555
H32_2 C30_2 1_555 1_555
H33_2 C30_2 1_555 1_555
C31_2 H34_2 1_555 1_555
C32_2 C31_2 1_555 1_555
C33_2 C32_2 1_555 1_555
H35_2 C33_2 1_555 1_555
C36_2 C35_2 1_555 1_555
H38_2 C36_2 1_555 1_555
C37_2 C32_2 1_555 1_555
N4_2 C27_2 1_555 1_555
N5_2 C30_2 1_555 1_555
O4_2 C21_2 1_555 1_555
O5_2 C37_2 1_555 1_555
Mn2_2 N4_2 1_555 1_555
O6_2 Mn2_2 1_555 1_555
C38_2 O6_2 1_555 1_555
H39_2 C38_2 1_555 1_555
H40_2 C38_2 1_555 1_555
H41_2 C38_2 1_555 1_555
O7_2 Mn2_2 1_555 1_555
C39_2 O7_2 1_555 1_555
H42_2 C39_2 1_555 1_555
H43_2 C39_2 1_555 1_555
H44_2 C39_2 1_555 1_555
C25_2 C26_2 1_555 1_555
C28_2 N4_2 1_555 1_555
C31_2 N5_2 1_555 1_555
C36_2 C37_2 1_555 1_555
N5_2 Mn2_2 1_555 1_555
O4_2 Mn2_2 1_555 1_555
O5_2 Mn2_2 1_555 1_555
H25_2 C24_2 1_555 1_555
C21_3 C22_3 1_555 1_555
C22_3 H23_3 1_555 1_555
C23_3 C22_3 1_555 1_555
H24_3 C23_3 1_555 1_555
C24_3 C23_3 1_555 1_555
H25_3 C24_3 1_555 1_555
C25_3 C24_3 1_555 1_555
H26_3 C25_3 1_555 1_555
C26_3 C21_3 1_555 1_555
C27_3 C26_3 1_555 1_555
H27_3 C27_3 1_555 1_555
C28_3 H28_3 1_555 1_555
H29_3 C28_3 1_555 1_555
C29_3 C28_3 1_555 1_555
H30_3 C29_3 1_555 1_555
H31_3 C29_3 1_555 1_555
C30_3 C29_3 1_555 1_555
H32_3 C30_3 1_555 1_555
H33_3 C30_3 1_555 1_555
C31_3 H34_3 1_555 1_555
C32_3 C31_3 1_555 1_555
C33_3 C32_3 1_555 1_555
H35_3 C33_3 1_555 1_555
C36_3 C35_3 1_555 1_555
H38_3 C36_3 1_555 1_555
C37_3 C32_3 1_555 1_555
N4_3 C27_3 1_555 1_555
N5_3 C30_3 1_555 1_555
O4_3 C21_3 1_555 1_555
O5_3 C37_3 1_555 1_555
Mn2_3 N4_3 1_555 1_555
O6_3 Mn2_3 1_555 1_555
C38_3 O6_3 1_555 1_555
H39_3 C38_3 1_555 1_555
H40_3 C38_3 1_555 1_555
H41_3 C38_3 1_555 1_555
O7_3 Mn2_3 1_555 1_555
C39_3 O7_3 1_555 1_555
H42_3 C39_3 1_555 1_555
H43_3 C39_3 1_555 1_555
H44_3 C39_3 1_555 1_555
C25_3 C26_3 1_555 1_555
C28_3 N4_3 1_555 1_555
C31_3 N5_3 1_555 1_555
C36_3 C37_3 1_555 1_555
N5_3 Mn2_3 1_555 1_555
O4_3 Mn2_3 1_555 1_555
O5_3 Mn2_3 1_555 1_555
H36_3 C34_3 1_555 1_555
C21_4 C22_4 1_555 1_555
C22_4 H23_4 1_555 1_555
C23_4 C22_4 1_555 1_555
H24_4 C23_4 1_555 1_555
C24_4 C23_4 1_555 1_555
H25_4 C24_4 1_555 1_555
C25_4 C24_4 1_555 1_555
H26_4 C25_4 1_555 1_555
C26_4 C21_4 1_555 1_555
C27_4 C26_4 1_555 1_555
H27_4 C27_4 1_555 1_555
C28_4 H28_4 1_555 1_555
H29_4 C28_4 1_555 1_555
C29_4 C28_4 1_555 1_555
H30_4 C29_4 1_555 1_555
H31_4 C29_4 1_555 1_555
C30_4 C29_4 1_555 1_555
H32_4 C30_4 1_555 1_555
H33_4 C30_4 1_555 1_555
C31_4 H34_4 1_555 1_555
C32_4 C31_4 1_555 1_555
C33_4 C32_4 1_555 1_555
H35_4 C33_4 1_555 1_555
C34_4 C33_4 1_555 1_555
H36_4 C34_4 1_555 1_555
C35_4 C34_4 1_555 1_555
H37_4 C35_4 1_555 1_555
C36_4 C35_4 1_555 1_555
H38_4 C36_4 1_555 1_555
C37_4 C32_4 1_555 1_555
N4_4 C27_4 1_555 1_555
N5_4 C30_4 1_555 1_555
O4_4 C21_4 1_555 1_555
O5_4 C37_4 1_555 1_555
Mn2_4 N4_4 1_555 1_555
O6_4 Mn2_4 1_555 1_555
O7_4 Mn2_4 1_555 1_555
C39_4 O7_4 1_555 1_555
H42_4 C39_4 1_555 1_555
H43_4 C39_4 1_555 1_555
H44_4 C39_4 1_555 1_555
C25_4 C26_4 1_555 1_555
C28_4 N4_4 1_555 1_555
C31_4 N5_4 1_555 1_555
C36_4 C37_4 1_555 1_555
N5_4 Mn2_4 1_555 1_555
O4_4 Mn2_4 1_555 1_555
O5_4 Mn2_4 1_555 1_555
H40_4 C38_4 1_555 1_555
H41_4 C38_4 1_555 1_555
C46 C47 1_555 1_555
C47 O21 1_555 1_555
C48 C49 1_555 1_555
C49 O25 1_555 1_555
O20 C46 1_555 1_555
O21 Mn3 1_555 1_555
O22 C46 1_555 1_555
O23 C47 1_555 1_555
O24 C48 1_555 1_555
O25 Mn3 1_555 1_555
O26 C48 1_555 1_555
O27 C49 1_555 1_555
Mn3 O18 1_555 1_555
Cr3 O26 1_555 1_555
Cr4 O22 1_555 1_555
O19 Mn3 1_555 1_555
O20 Mn3 1_555 1_555
O23 Cr4 1_555 1_555
O24 Mn3 1_555 1_555
O27 Cr3 1_555 1_555
C40 C41 1_555 1_555
C41 O9 1_555 1_555
C42 C43 1_555 1_555
C43 O13 1_555 1_555
C44 C45 1_555 1_555
C45 O17 1_555 1_555
C50 C51 1_555 1_555
C51 O29 1_555 1_555
O8 C40 1_555 1_555
O9 Cr2 1_555 1_555
O10 C40 1_555 1_555
O11 C41 1_555 1_555
O12 C42 1_555 1_555
O13 Cr2 1_555 1_555
O14 C42 1_555 1_555
O15 C43 1_555 1_555
O16 C44 1_555 1_555
O17 Cr2 1_555 1_555
O28 C50 1_555 1_555
O29 Mn4 1_555 1_555
O30 C50 1_555 1_555
O31 C51 1_555 1_555
Cr1 O30 1_555 1_555
Cr2 O8 1_555 1_555
Mn4 O10 1_555 1_555
O32 Mn4 1_555 1_555
O33 Mn4 1_555 1_555
O34 Cr1 1_555 1_555
O35 Cr1 1_555 1_555
O36 Cr1 1_555 1_555
O37 Cr1 1_555 1_555
Mn5 O14 1_555 1_555
O11 Mn4 1_555 1_555
O12 Cr2 1_555 1_555
O15 Mn5 1_555 1_555
O16 Cr2 1_555 1_555
O28 Mn4 1_555 1_555
O31 Cr1 1_555 1_555
C40_2 C41_2 1_555 1_555
C50_2 C51_2 1_555 1_555
C51_2 O29_2 1_555 1_555
O10_2 C40_2 1_555 1_555
O11_2 C41_2 1_555 1_555
O28_2 C50_2 1_555 1_555
O29_2 Mn4_2 1_555 1_555
O30_2 C50_2 1_555 1_555
O31_2 C51_2 1_555 1_555
Cr3 O30_2 1_555 1_555
Mn4_2 O10_2 1_555 1_555
O32_2 Mn4_2 1_555 1_555
O33_2 Mn4_2 1_555 1_555
O34_2 Cr3 1_555 1_555
O35_2 Cr3 1_555 1_555
O11_2 Mn4_2 1_555 1_555
O28_2 Mn4_2 1_555 1_555
O31_2 Cr3 1_555 1_555
C48_2 C49_2 1_555 1_555
C49_2 O25_2 1_555 1_555
O24_2 C48_2 1_555 1_555
O25_2 Mn3_2 1_555 1_555
O36 C48_2 1_555 1_555
O37 C49_2 1_555 1_555
O24_2 Mn3_2 1_555 1_555
C42_2 C43_2 1_555 1_555
C43_2 O13_2 1_555 1_555
O12_2 C42_2 1_555 1_555
O13_2 Cr2_2 1_555 1_555
O14_2 C42_2 1_555 1_555
O15_2 C43_2 1_555 1_555
O16_2 C44_2 1_555 1_555
Mn5_2 O14_2 1_555 1_555
O12_2 Cr2_2 1_555 1_555
O15_2 Mn5_2 1_555 1_555
O16_2 Cr2_2 1_555 1_555
C46_2 C47_2 1_555 1_555
C47_2 O21_2 1_555 1_555
O22_2 C46_2 1_555 1_555
O23_2 C47_2 1_555 1_555
Cr4_2 O22_2 1_555 1_555
O23_2 Cr4_2 1_555 1_555
C42_3 C43_3 1_555 1_555
C43_3 O13_3 1_555 1_555
C44_3 C45_2 1_555 1_555
C45_2 O17_2 1_555 1_555
C46_3 C47_3 1_555 1_555
C47_3 O21_3 1_555 1_555
O9_2 Cr2_3 1_555 1_555
O12_3 C42_3 1_555 1_555
O13_3 Cr2_3 1_555 1_555
O32 C42_3 1_555 1_555
O33 C43_3 1_555 1_555
O16_3 C44_3 1_555 1_555
O17_2 Cr2_3 1_555 1_555
O18_2 C44_3 1_555 1_555
O19_3 C45_2 1_555 1_555
O34_2 C46_3 1_555 1_555
O35_2 C47_3 1_555 1_555
O12_3 Cr2_3 1_555 1_555
O16_3 Cr2_3 1_555 1_555
C40_3 C41_3 1_555 1_555
C48_3 C49_3 1_555 1_555
C49_3 O25_3 1_555 1_555
C50_3 C51_3 1_555 1_555
C51_3 O29_3 1_555 1_555
O8_2 C40_3 1_555 1_555
O10_3 C40_3 1_555 1_555
O11_3 C41_3 1_555 1_555
O24_3 C48_3 1_555 1_555
O25_3 Mn3_3 1_555 1_555
O26_2 C48_3 1_555 1_555
O27_2 C49_3 1_555 1_555
O28_3 C50_3 1_555 1_555
O29_3 Mn5 1_555 1_555
O30_3 C50_3 1_555 1_555
O31_3 C51_3 1_555 1_555
Cr4_2 O30_3 1_555 1_555
Mn5 O10_3 1_555 1_555
O36_2 Cr4_2 1_555 1_555
O37_2 Cr4_2 1_555 1_555
Cr4 O26_2 1_555 1_555
O11_3 Mn5 1_555 1_555
O20_2 Mn3_3 1_555 1_555
O24_3 Mn3_3 1_555 1_555
O27_2 Cr4 1_555 1_555
O28_3 Mn5 1_555 1_555
O31_3 Cr4_2 1_555 1_555
C40_4 C41_4 1_555 1_555
C41_4 O9_3 1_555 1_555
C45_3 O17_3 1_555 1_555
C46_4 C47_4 1_555 1_555
C47_4 O21_4 1_555 1_555
C50_4 C51_4 1_555 1_555
C51_4 O29_4 1_555 1_555
O10_4 C40_4 1_555 1_555
O11_4 C41_4 1_555 1_555
O19_4 C45_3 1_555 1_555
O20_3 C46_4 1_555 1_555
O34 C46_4 1_555 1_555
O35 C47_4 1_555 1_555
O28_4 C50_4 1_555 1_555
O29_4 Mn5_2 1_555 1_555
O30_4 C50_4 1_555 1_555
O31_4 C51_4 1_555 1_555
Cr4 O30_4 1_555 1_555
Mn5_2 O10_4 1_555 1_555
O11_4 Mn5_2 1_555 1_555
O28_4 Mn5_2 1_555 1_555
O31_4 Cr4 1_555 1_555
C42_4 C43_4 1_555 1_555
C43_4 O13_4 1_555 1_555
C48_4 C49_4 1_555 1_555
C49_4 O25_4 1_555 1_555
O12_4 C42_4 1_555 1_555
O13_4 Cr2_4 1_555 1_555
O32_2 C42_4 1_555 1_555
O33_2 C43_4 1_555 1_555
O16_4 C44_4 1_555 1_555
O18_3 C44_4 1_555 1_555
O24_4 C48_4 1_555 1_555
O25_4 Mn3_4 1_555 1_555
O36_2 C48_4 1_555 1_555
O37_2 C49_4 1_555 1_555
Cr2_4 O8_3 1_555 1_555
Mn3_4 O18_3 1_555 1_555
O12_4 Cr2_4 1_555 1_555
O16_4 Cr2_4 1_555 1_555
O24_4 Mn3_4 1_555 1_555
C45_4 O17_4 1_555 1_555

#END
