
###############################################################################
#
# This file contains modified crystal structure data generated from the
# MOF subset of the Cambridge Structural Database (CSD) v543 
# hosted by the Cambridge Crystallographic Data Centre (CCDC).
#
# This work is licensed under the Creative Commons
# Attribution-NonCommercial-ShareAlike 4.0 International License.
# To view a copy of this license, visit
# http://creativecommons.org/licenses/by-nc-sa/4.0/
# or send a letter to
# Creative Commons, PO Box 1866, Mountain View, CA 94042, USA.
#
# CIF created using the CSD Python API on 29 September 2022
# The structure has been converted into the P1 space group
# The structure has a 3D framework
# The original CSD entry BEXMID is in the monoclinic crystal system
# The framework has been calculated to contain at least 10.0% void space
# The void calculation uses a probe of radius 1.32A, grid spacing 0.4
#
###############################################################################

data_BEXMID
_chemical_formula_moiety         '(C160 H112 Co8 N24 O32)n'
_symmetry_cell_setting           triclinic
_symmetry_space_group_name_H-M   'P 1'
_symmetry_Int_Tables_number      1
_space_group_name_Hall           'P 1'
loop_
_symmetry_equiv_pos_site_id
_symmetry_equiv_pos_as_xyz
1 x,y,z
_cell_length_a                   29.8926(8)
_cell_length_b                   11.3003(3)
_cell_length_c                   17.7533(3)
_cell_angle_alpha                90
_cell_angle_beta                 121.548(2)
_cell_angle_gamma                90
_cell_volume                     5110.64
loop_
_atom_site_label
_atom_site_type_symbol
_atom_site_fract_x
_atom_site_fract_y
_atom_site_fract_z
Co1 Co 0.23533(2) 0.28680(4) 0.09498(3)
C1 C 0.20205(14) 0.3093(3) 0.2015(2)
C2 C 0.18966(13) 0.3274(3) 0.2726(2)
C3 C 0.19471(13) 0.4414(3) 0.3065(2)
H1 H 0.1995 0.5048 0.2780
C4 C 0.19277(13) 0.4621(3) 0.3817(2)
C5 C 0.20479(13) 0.5827(3) 0.4223(2)
C6 C 0.18375(15) 0.3667(3) 0.4222(2)
H2 H 0.1828 0.3788 0.4731
C7 C 0.17630(16) 0.2557(3) 0.3869(2)
H3 H 0.1688 0.1940 0.4133
C8 C 0.17950(13) 0.2316(3) 0.3127(2)
C9 C 0.20502(14) 0.0208(3) 0.3394(2)
H4 H 0.2290 0.0426 0.3975
C10 C 0.17349(14) 0.1089(3) 0.2809(2)
C11 C 0.13808(15) 0.0746(3) 0.1941(2)
H5 H 0.1170 0.1304 0.1516
C14 C 0.17052(15) 0.0508(3) 0.0272(2)
H8 H 0.1957 0.0079 0.0757
N1 N 0.17499(12) 0.1685(3) 0.01131(18)
O1 O 0.18369(10) 0.3795(2) 0.13708(14)
O2 O 0.23174(10) 0.2263(2) 0.20872(15)
O3 O 0.20876(9) 0.6661(2) 0.37952(14)
O4 O 0.21114(10) 0.5910(2) 0.49780(14)
Co6 Co 0.26467(2) 0.78680(4) 0.40502(3)
Co8 Co 0.23533(2) 0.71320(4) 0.59498(3)
N8 N 0.29682(11) 0.4071(2) 0.18219(18)
O10 O 0.29124(9) 0.1661(2) 0.12048(14)
C15 C 0.12479(15) 0.0076(3) 0.9629(2)
C16 C 0.13147(15) 0.1941(4) 0.9369(2)
H10 H 0.1236 0.2680 0.9099
C17 C 0.04819(15) 0.0970(4) 0.8255(2)
C18 C 0.0439(2) 0.0951(8) 0.7482(3)
H11 H 0.0743 0.0943 0.7459
C19 C 0.0050(2) 0.0941(9) 0.8314(3)
C20 C 0.0097(3) 0.0881(15) 0.9189(5)
H12 H 0.0199 0.1641 0.9471
H13 H 0.0357 0.0303 0.9552
N2 N 0.09996(12) 0.0993(3) 0.90493(19)
H21 H 0.0235 0.0659 0.5890
O12 O 0.21114(10) 0.4090(2) 0.99780(14)
C12 C 0.13482(16) 0.9564(3) 0.1721(2)
H6 H 0.1104 0.9315 0.1149
C13 C 0.16766(14) 0.8755(3) 0.2347(2)
H7 H 0.1651 0.7963 0.2187
N3 N 0.20318(11) 0.9071(2) 0.31781(18)
H14 H 0.9765 0.0659 0.9110
C21 C 0.82948(15) 0.0508(3) 0.4728(2)
H15 H 0.8043 0.0079 0.4243
C22 C 0.87521(15) 0.0076(3) 0.5371(2)
C23 C 0.86853(15) 0.1941(4) 0.5631(2)
H17 H 0.8764 0.2680 0.5901
C24 C 0.95181(15) 0.0970(4) 0.6745(2)
C25 C 0.9561(2) 0.0951(8) 0.7518(3)
H18 H 0.9257 0.0943 0.7541
C26 C 0.9950(2) 0.0941(9) 0.6686(3)
C27 C 0.9903(3) 0.0881(15) 0.5811(5)
H19 H 0.9801 0.1641 0.5529
H20 H 0.9643 0.0303 0.5448
N4 N 0.82501(12) 0.1685(3) 0.48869(18)
N5 N 0.90004(12) 0.0993(3) 0.59507(19)
Co2 Co 0.76467(2) 0.28680(4) 0.40502(3)
C28 C 0.79795(14) 0.3093(3) 0.2985(2)
C29 C 0.81034(13) 0.3274(3) 0.2274(2)
C30 C 0.80529(13) 0.4414(3) 0.1935(2)
H22 H 0.8005 0.5048 0.2220
C31 C 0.80723(13) 0.4621(3) 0.1183(2)
C32 C 0.79521(13) 0.5827(3) 0.0777(2)
C33 C 0.81625(15) 0.3667(3) 0.0778(2)
H23 H 0.8172 0.3788 0.0269
C34 C 0.82370(16) 0.2557(3) 0.1131(2)
H24 H 0.8312 0.1940 0.0867
C35 C 0.82050(13) 0.2316(3) 0.1873(2)
C36 C 0.79498(14) 0.0208(3) 0.1606(2)
H25 H 0.7710 0.0426 0.1025
C37 C 0.82651(14) 0.1089(3) 0.2191(2)
C38 C 0.86192(15) 0.0746(3) 0.3059(2)
H26 H 0.8830 0.1304 0.3484
O5 O 0.81631(10) 0.3795(2) 0.36292(14)
O6 O 0.76826(10) 0.2263(2) 0.29128(15)
O7 O 0.79124(9) 0.6661(2) 0.12048(14)
O8 O 0.78886(10) 0.5910(2) 0.00220(14)
Co4 Co 0.73533(2) 0.78680(4) 0.09498(3)
N7 N 0.70318(11) 0.4071(2) 0.31781(18)
O9 O 0.70876(9) 0.1661(2) 0.37952(14)
O11 O 0.78886(10) 0.4090(2) 0.50220(14)
Co7 Co 0.76467(2) 0.71320(4) 0.90502(3)
H16 H 0.8877 0.9310 0.5418
C39 C 0.86518(16) 0.9564(3) 0.3279(2)
H27 H 0.8896 0.9315 0.3851
C40 C 0.83234(14) 0.8755(3) 0.2653(2)
H28 H 0.8349 0.7963 0.2813
N6 N 0.79682(11) 0.9071(2) 0.18219(18)
H1_2 H 0.6995 0.0048 0.2780
C5_2 C 0.70479(13) 0.0827(3) 0.4223(2)
O4_2 O 0.71114(10) 0.0910(2) 0.49780(14)
Co8_2 Co 0.73533(2) 0.21320(4) 0.59498(3)
H22_2 H 0.3005 0.0048 0.2220
C32_2 C 0.29521(13) 0.0827(3) 0.0777(2)
O8_2 O 0.28886(10) 0.0910(2) 0.00220(14)
Co7_2 Co 0.26467(2) 0.21320(4) 0.90502(3)
C1_2 C 0.70205(14) 0.8093(3) 0.2015(2)
C2_2 C 0.68966(13) 0.8274(3) 0.2726(2)
C3_2 C 0.69471(13) 0.9414(3) 0.3065(2)
C4_2 C 0.69277(13) 0.9621(3) 0.3817(2)
C6_2 C 0.68375(15) 0.8667(3) 0.4222(2)
H2_2 H 0.6828 0.8788 0.4731
C7_2 C 0.67630(16) 0.7557(3) 0.3869(2)
H3_2 H 0.6688 0.6940 0.4133
C8_2 C 0.67950(13) 0.7316(3) 0.3127(2)
C9_2 C 0.70502(14) 0.5208(3) 0.3394(2)
H4_2 H 0.7290 0.5426 0.3975
C10_2 C 0.67349(14) 0.6089(3) 0.2809(2)
C11_2 C 0.63808(15) 0.5746(3) 0.1941(2)
H5_2 H 0.6170 0.6304 0.1516
C12_2 C 0.63482(16) 0.4564(3) 0.1721(2)
H6_2 H 0.6104 0.4315 0.1149
C13_2 C 0.66766(14) 0.3755(3) 0.2347(2)
H7_2 H 0.6651 0.2963 0.2187
C14_2 C 0.67052(15) 0.5508(3) 0.0272(2)
H8_2 H 0.6957 0.5079 0.0757
N1_2 N 0.67499(12) 0.6685(3) 0.01131(18)
O1_2 O 0.68369(10) 0.8795(2) 0.13708(14)
O2_2 O 0.73174(10) 0.7263(2) 0.20872(15)
C15_2 C 0.62479(15) 0.5076(3) 0.9629(2)
H9 H 0.6123 0.4310 0.9582
C16_2 C 0.63147(15) 0.6941(4) 0.9369(2)
H10_2 H 0.6236 0.7680 0.9099
C17_2 C 0.54819(15) 0.5970(4) 0.8255(2)
C18_2 C 0.5439(2) 0.5951(8) 0.7482(3)
H11_2 H 0.5743 0.5943 0.7459
C19_2 C 0.5050(2) 0.5941(9) 0.8314(3)
C20_2 C 0.5097(3) 0.5881(15) 0.9189(5)
H12_2 H 0.5199 0.6641 0.9471
H13_2 H 0.5357 0.5303 0.9552
H14_2 H 0.4765 0.5659 0.9110
N2_2 N 0.59996(12) 0.5993(3) 0.90493(19)
C21_2 C 0.32948(15) 0.5508(3) 0.4728(2)
H15_2 H 0.3043 0.5079 0.4243
C22_2 C 0.37521(15) 0.5076(3) 0.5371(2)
H16_2 H 0.3877 0.4310 0.5418
C23_2 C 0.36853(15) 0.6941(4) 0.5631(2)
H17_2 H 0.3764 0.7680 0.5901
C24_2 C 0.45181(15) 0.5970(4) 0.6745(2)
C25_2 C 0.4561(2) 0.5951(8) 0.7518(3)
H18_2 H 0.4257 0.5943 0.7541
C26_2 C 0.4950(2) 0.5941(9) 0.6686(3)
C27_2 C 0.4903(3) 0.5881(15) 0.5811(5)
H19_2 H 0.4801 0.6641 0.5529
H20_2 H 0.4643 0.5303 0.5448
H21_2 H 0.5235 0.5659 0.5890
N4_2 N 0.32501(12) 0.6685(3) 0.48869(18)
N5_2 N 0.40004(12) 0.5993(3) 0.59507(19)
C28_2 C 0.29795(14) 0.8093(3) 0.2985(2)
C29_2 C 0.31034(13) 0.8274(3) 0.2274(2)
C30_2 C 0.30529(13) 0.9414(3) 0.1935(2)
C31_2 C 0.30723(13) 0.9621(3) 0.1183(2)
C33_2 C 0.31625(15) 0.8667(3) 0.0778(2)
H23_2 H 0.3172 0.8788 0.0269
C34_2 C 0.32370(16) 0.7557(3) 0.1131(2)
H24_2 H 0.3312 0.6940 0.0867
C35_2 C 0.32050(13) 0.7316(3) 0.1873(2)
C36_2 C 0.29498(14) 0.5208(3) 0.1606(2)
H25_2 H 0.2710 0.5426 0.1025
C37_2 C 0.32651(14) 0.6089(3) 0.2191(2)
C38_2 C 0.36192(15) 0.5746(3) 0.3059(2)
H26_2 H 0.3830 0.6304 0.3484
C39_2 C 0.36518(16) 0.4564(3) 0.3279(2)
H27_2 H 0.3896 0.4315 0.3851
C40_2 C 0.33234(14) 0.3755(3) 0.2653(2)
H28_2 H 0.3349 0.2963 0.2813
O5_2 O 0.31631(10) 0.8795(2) 0.36292(14)
O6_2 O 0.26826(10) 0.7263(2) 0.29128(15)
O11_2 O 0.28886(10) 0.9090(2) 0.50220(14)
O12_2 O 0.71114(10) 0.9090(2) 0.99780(14)
H16_3 H 0.1123 0.0690 0.4582
C39_3 C 0.13482(16) 0.0436(3) 0.6721(2)
H27_3 H 0.1104 0.0685 0.6149
C40_3 C 0.16766(14) 0.1245(3) 0.7347(2)
H28_3 H 0.1651 0.2037 0.7187
N6_2 N 0.20318(11) 0.0929(2) 0.81781(18)
H14_3 H 0.0235 0.9341 0.0890
C21_3 C 0.17052(15) 0.9492(3) 0.5272(2)
H15_3 H 0.1957 0.9921 0.5757
C22_3 C 0.12479(15) 0.9924(3) 0.4629(2)
C23_3 C 0.13147(15) 0.8059(4) 0.4369(2)
H17_3 H 0.1236 0.7320 0.4099
C24_3 C 0.04819(15) 0.9030(4) 0.3255(2)
C25_3 C 0.0439(2) 0.9049(8) 0.2482(3)
H18_3 H 0.0743 0.9057 0.2459
C26_3 C 0.0050(2) 0.9059(9) 0.3314(3)
C27_3 C 0.0097(3) 0.9119(15) 0.4189(5)
H19_3 H 0.0199 0.8359 0.4471
H20_3 H 0.0357 0.9697 0.4552
N4_3 N 0.17499(12) 0.8315(3) 0.51131(18)
N5_3 N 0.09996(12) 0.9007(3) 0.40493(19)
C28_3 C 0.20205(14) 0.6907(3) 0.7015(2)
C29_3 C 0.18966(13) 0.6726(3) 0.7726(2)
C30_3 C 0.19471(13) 0.5586(3) 0.8065(2)
H22_3 H 0.1995 0.4952 0.7780
C31_3 C 0.19277(13) 0.5379(3) 0.8817(2)
C32_3 C 0.20479(13) 0.4173(3) 0.9223(2)
C33_3 C 0.18375(15) 0.6333(3) 0.9222(2)
H23_3 H 0.1828 0.6212 0.9731
C34_3 C 0.17630(16) 0.7443(3) 0.8869(2)
H24_3 H 0.1688 0.8060 0.9133
C35_3 C 0.17950(13) 0.7684(3) 0.8127(2)
C36_3 C 0.20502(14) 0.9792(3) 0.8394(2)
H25_3 H 0.2290 0.9574 0.8975
C37_3 C 0.17349(14) 0.8911(3) 0.7809(2)
C38_3 C 0.13808(15) 0.9254(3) 0.6941(2)
H26_3 H 0.1170 0.8696 0.6516
O5_3 O 0.18369(10) 0.6205(2) 0.63708(14)
O6_3 O 0.23174(10) 0.7737(2) 0.70872(15)
O7_2 O 0.20876(9) 0.3339(2) 0.87952(14)
N7_2 N 0.29682(11) 0.5929(2) 0.68219(18)
O9_2 O 0.29124(9) 0.8339(2) 0.62048(14)
C12_3 C 0.86518(16) 0.0436(3) 0.8279(2)
H6_3 H 0.8896 0.0685 0.8851
C13_3 C 0.83234(14) 0.1245(3) 0.7653(2)
H7_3 H 0.8349 0.2037 0.7813
N3_2 N 0.79682(11) 0.0929(2) 0.68219(18)
C15_3 C 0.87521(15) 0.9924(3) 0.0371(2)
C16_3 C 0.86853(15) 0.8059(4) 0.0631(2)
H10_3 H 0.8764 0.7320 0.0901
C17_3 C 0.95181(15) 0.9030(4) 0.1745(2)
C18_3 C 0.9561(2) 0.9049(8) 0.2518(3)
H11_3 H 0.9257 0.9057 0.2541
C19_3 C 0.9950(2) 0.9059(9) 0.1686(3)
C20_3 C 0.9903(3) 0.9119(15) 0.0811(5)
H12_3 H 0.9801 0.8359 0.0529
H13_3 H 0.9643 0.9697 0.0448
N2_3 N 0.90004(12) 0.9007(3) 0.09507(19)
H21_3 H 0.9765 0.9341 0.4110
C1_3 C 0.79795(14) 0.6907(3) 0.7985(2)
C2_3 C 0.81034(13) 0.6726(3) 0.7274(2)
C3_3 C 0.80529(13) 0.5586(3) 0.6935(2)
H1_3 H 0.8005 0.4952 0.7220
C4_3 C 0.80723(13) 0.5379(3) 0.6183(2)
C5_3 C 0.79521(13) 0.4173(3) 0.5777(2)
C6_3 C 0.81625(15) 0.6333(3) 0.5778(2)
H2_3 H 0.8172 0.6212 0.5269
C7_3 C 0.82370(16) 0.7443(3) 0.6131(2)
H3_3 H 0.8312 0.8060 0.5867
C8_3 C 0.82050(13) 0.7684(3) 0.6873(2)
C9_3 C 0.79498(14) 0.9792(3) 0.6606(2)
H4_3 H 0.7710 0.9574 0.6025
C10_3 C 0.82651(14) 0.8911(3) 0.7191(2)
C11_3 C 0.86192(15) 0.9254(3) 0.8059(2)
H5_3 H 0.8830 0.8696 0.8484
C14_3 C 0.82948(15) 0.9492(3) 0.9728(2)
H8_3 H 0.8043 0.9921 0.9243
N1_3 N 0.82501(12) 0.8315(3) 0.98869(18)
O1_3 O 0.81631(10) 0.6205(2) 0.86292(14)
O2_3 O 0.76826(10) 0.7737(2) 0.79128(15)
O3_2 O 0.79124(9) 0.3339(2) 0.62048(14)
N8_2 N 0.70318(11) 0.5929(2) 0.81781(18)
O10_2 O 0.70876(9) 0.8339(2) 0.87952(14)
C15_4 C 0.37521(15) 0.4924(3) 0.0371(2)
H9_2 H 0.3877 0.5690 0.0418
C16_4 C 0.36853(15) 0.3059(4) 0.0631(2)
H10_4 H 0.3764 0.2320 0.0901
C17_4 C 0.45181(15) 0.4030(4) 0.1745(2)
C18_4 C 0.4561(2) 0.4049(8) 0.2518(3)
H11_4 H 0.4257 0.4057 0.2541
C19_4 C 0.4950(2) 0.4059(9) 0.1686(3)
C20_4 C 0.4903(3) 0.4119(15) 0.0811(5)
H12_4 H 0.4801 0.3359 0.0529
H13_4 H 0.4643 0.4697 0.0448
H14_4 H 0.5235 0.4341 0.0890
N2_4 N 0.40004(12) 0.4007(3) 0.09507(19)
C21_4 C 0.67052(15) 0.4492(3) 0.5272(2)
H15_4 H 0.6957 0.4921 0.5757
C22_4 C 0.62479(15) 0.4924(3) 0.4629(2)
H16_4 H 0.6123 0.5690 0.4582
C23_4 C 0.63147(15) 0.3059(4) 0.4369(2)
H17_4 H 0.6236 0.2320 0.4099
C24_4 C 0.54819(15) 0.4030(4) 0.3255(2)
C25_4 C 0.5439(2) 0.4049(8) 0.2482(3)
H18_4 H 0.5743 0.4057 0.2459
C26_4 C 0.5050(2) 0.4059(9) 0.3314(3)
C27_4 C 0.5097(3) 0.4119(15) 0.4189(5)
H19_4 H 0.5199 0.3359 0.4471
H20_4 H 0.5357 0.4697 0.4552
H21_4 H 0.4765 0.4341 0.4110
N4_4 N 0.67499(12) 0.3315(3) 0.51131(18)
N5_4 N 0.59996(12) 0.4007(3) 0.40493(19)
C28_4 C 0.70205(14) 0.1907(3) 0.7015(2)
C29_4 C 0.68966(13) 0.1726(3) 0.7726(2)
C30_4 C 0.69471(13) 0.0586(3) 0.8065(2)
C31_4 C 0.69277(13) 0.0379(3) 0.8817(2)
C33_4 C 0.68375(15) 0.1333(3) 0.9222(2)
H23_4 H 0.6828 0.1212 0.9731
C34_4 C 0.67630(16) 0.2443(3) 0.8869(2)
H24_4 H 0.6688 0.3060 0.9133
C35_4 C 0.67950(13) 0.2684(3) 0.8127(2)
C36_4 C 0.70502(14) 0.4792(3) 0.8394(2)
H25_4 H 0.7290 0.4574 0.8975
C37_4 C 0.67349(14) 0.3911(3) 0.7809(2)
C38_4 C 0.63808(15) 0.4254(3) 0.6941(2)
H26_4 H 0.6170 0.3696 0.6516
C39_4 C 0.63482(16) 0.5436(3) 0.6721(2)
H27_4 H 0.6104 0.5685 0.6149
C40_4 C 0.66766(14) 0.6245(3) 0.7347(2)
H28_4 H 0.6651 0.7037 0.7187
O5_4 O 0.68369(10) 0.1205(2) 0.63708(14)
O6_4 O 0.73174(10) 0.2737(2) 0.70872(15)
C1_4 C 0.29795(14) 0.1907(3) 0.7985(2)
C2_4 C 0.31034(13) 0.1726(3) 0.7274(2)
C3_4 C 0.30529(13) 0.0586(3) 0.6935(2)
C4_4 C 0.30723(13) 0.0379(3) 0.6183(2)
C6_4 C 0.31625(15) 0.1333(3) 0.5778(2)
H2_4 H 0.3172 0.1212 0.5269
C7_4 C 0.32370(16) 0.2443(3) 0.6131(2)
H3_4 H 0.3312 0.3060 0.5867
C8_4 C 0.32050(13) 0.2684(3) 0.6873(2)
C9_4 C 0.29498(14) 0.4792(3) 0.6606(2)
H4_4 H 0.2710 0.4574 0.6025
C10_4 C 0.32651(14) 0.3911(3) 0.7191(2)
C11_4 C 0.36192(15) 0.4254(3) 0.8059(2)
H5_4 H 0.3830 0.3696 0.8484
C12_4 C 0.36518(16) 0.5436(3) 0.8279(2)
H6_4 H 0.3896 0.5685 0.8851
C13_4 C 0.33234(14) 0.6245(3) 0.7653(2)
H7_4 H 0.3349 0.7037 0.7813
C14_4 C 0.32948(15) 0.4492(3) 0.9728(2)
H8_4 H 0.3043 0.4921 0.9243
N1_4 N 0.32501(12) 0.3315(3) 0.98869(18)
O1_4 O 0.31631(10) 0.1205(2) 0.86292(14)
O2_4 O 0.26826(10) 0.2737(2) 0.79128(15)
H22_4 H 0.6995 0.9952 0.7780
C32_4 C 0.70479(13) 0.9173(3) 0.9223(2)
H1_4 H 0.3005 0.9952 0.7220
C5_4 C 0.29521(13) 0.9173(3) 0.5777(2)
H9_3 H 0.1123 0.9310 0.9582
H9_4 H 0.8877 0.0690 0.0418
loop_
_geom_bond_atom_site_label_1
_geom_bond_atom_site_label_2
_geom_bond_site_symmetry_1
_geom_bond_site_symmetry_2
Co1 N1 1_555 1_555
C1 C2 1_555 1_555
C2 C3 1_555 1_555
C3 H1 1_555 1_555
C4 C3 1_555 1_555
C5 C4 1_555 1_555
C6 C4 1_555 1_555
H2 C6 1_555 1_555
C7 C6 1_555 1_555
H3 C7 1_555 1_555
C8 C2 1_555 1_555
C9 H4 1_555 1_555
C10 C8 1_555 1_555
C11 C10 1_555 1_555
H5 C11 1_555 1_555
C14 H8 1_555 1_555
N1 C14 1_555 1_555
O1 Co1 1_555 1_555
O2 Co1 1_555 1_555
O3 C5 1_555 1_555
O4 C5 1_555 1_555
Co6 O3 1_555 1_555
Co8 O4 1_555 1_555
N8 Co1 1_555 1_555
O10 Co1 1_555 1_555
C1 O1 1_555 1_555
C1 O2 1_555 1_555
C7 C8 1_555 1_555
C9 C10 1_555 1_555
C16 H10 1_555 1_555
C17 C18 1_555 1_555
C18 H11 1_555 1_555
C19 C17 1_555 1_555
C20 C19 1_555 1_555
H12 C20 1_555 1_555
H13 C20 1_555 1_555
N2 C15 1_555 1_555
C16 N2 1_555 1_555
C17 N2 1_555 1_555
H6 C12 1_555 1_555
C13 C12 1_555 1_555
H7 C13 1_555 1_555
Co6 N3 1_555 1_555
C13 N3 1_555 1_555
C21 H15 1_555 1_555
C22 C21 1_555 1_555
C23 H17 1_555 1_555
C24 C25 1_555 1_555
H18 C25 1_555 1_555
C27 C26 1_555 1_555
H19 C27 1_555 1_555
H20 C27 1_555 1_555
N4 C21 1_555 1_555
N5 C22 1_555 1_555
Co2 N4 1_555 1_555
C28 C29 1_555 1_555
C29 C30 1_555 1_555
C30 H22 1_555 1_555
C31 C30 1_555 1_555
C32 C31 1_555 1_555
C33 C31 1_555 1_555
H23 C33 1_555 1_555
C34 C33 1_555 1_555
H24 C34 1_555 1_555
C35 C29 1_555 1_555
C36 H25 1_555 1_555
C37 C35 1_555 1_555
C38 C37 1_555 1_555
H26 C38 1_555 1_555
O5 Co2 1_555 1_555
O6 Co2 1_555 1_555
O7 C32 1_555 1_555
O8 C32 1_555 1_555
Co4 O7 1_555 1_555
N7 Co2 1_555 1_555
O9 Co2 1_555 1_555
O11 Co2 1_555 1_555
C23 N4 1_555 1_555
C23 N5 1_555 1_555
C24 C26 1_555 1_555
C24 N5 1_555 1_555
C28 O5 1_555 1_555
C28 O6 1_555 1_555
C34 C35 1_555 1_555
C36 C37 1_555 1_555
H27 C39 1_555 1_555
C40 C39 1_555 1_555
H28 C40 1_555 1_555
Co4 N6 1_555 1_555
C40 N6 1_555 1_555
O9 C5_2 1_555 1_555
O4_2 C5_2 1_555 1_555
Co8_2 O4_2 1_555 1_555
O10 C32_2 1_555 1_555
O8_2 C32_2 1_555 1_555
Co4 N1_2 1_555 1_555
C1_2 C2_2 1_555 1_555
C2_2 C3_2 1_555 1_555
C4_2 C3_2 1_555 1_555
C6_2 C4_2 1_555 1_555
H2_2 C6_2 1_555 1_555
C7_2 C6_2 1_555 1_555
H3_2 C7_2 1_555 1_555
C8_2 C2_2 1_555 1_555
C9_2 H4_2 1_555 1_555
C10_2 C8_2 1_555 1_555
C11_2 C10_2 1_555 1_555
H5_2 C11_2 1_555 1_555
C12_2 C11_2 1_555 1_555
H6_2 C12_2 1_555 1_555
C13_2 C12_2 1_555 1_555
H7_2 C13_2 1_555 1_555
C14_2 H8_2 1_555 1_555
N1_2 C14_2 1_555 1_555
N7 C9_2 1_555 1_555
O1_2 Co4 1_555 1_555
O2_2 Co4 1_555 1_555
C1_2 O1_2 1_555 1_555
C1_2 O2_2 1_555 1_555
C7_2 C8_2 1_555 1_555
C9_2 C10_2 1_555 1_555
C13_2 N7 1_555 1_555
H9 C15_2 1_555 1_555
C16_2 H10_2 1_555 1_555
C17_2 C18_2 1_555 1_555
C18_2 H11_2 1_555 1_555
C19_2 C17_2 1_555 1_555
C20_2 C19_2 1_555 1_555
H12_2 C20_2 1_555 1_555
H13_2 C20_2 1_555 1_555
H14_2 C20_2 1_555 1_555
N2_2 C15_2 1_555 1_555
C21_2 H15_2 1_555 1_555
C22_2 C21_2 1_555 1_555
H16_2 C22_2 1_555 1_555
C23_2 H17_2 1_555 1_555
C24_2 C25_2 1_555 1_555
C25_2 C19_2 1_555 1_555
H18_2 C25_2 1_555 1_555
C26_2 C18_2 1_555 1_555
C27_2 C26_2 1_555 1_555
H19_2 C27_2 1_555 1_555
H20_2 C27_2 1_555 1_555
H21_2 C27_2 1_555 1_555
N4_2 C21_2 1_555 1_555
N5_2 C22_2 1_555 1_555
Co6 N4_2 1_555 1_555
C28_2 C29_2 1_555 1_555
C29_2 C30_2 1_555 1_555
C31_2 C30_2 1_555 1_555
C33_2 C31_2 1_555 1_555
H23_2 C33_2 1_555 1_555
C34_2 C33_2 1_555 1_555
H24_2 C34_2 1_555 1_555
C35_2 C29_2 1_555 1_555
C36_2 H25_2 1_555 1_555
C37_2 C35_2 1_555 1_555
C38_2 C37_2 1_555 1_555
H26_2 C38_2 1_555 1_555
C39_2 C38_2 1_555 1_555
H27_2 C39_2 1_555 1_555
C40_2 C39_2 1_555 1_555
H28_2 C40_2 1_555 1_555
N8 C36_2 1_555 1_555
O5_2 Co6 1_555 1_555
O6_2 Co6 1_555 1_555
O11_2 Co6 1_555 1_555
C16_2 N2_2 1_555 1_555
C17_2 N2_2 1_555 1_555
C23_2 N4_2 1_555 1_555
C23_2 N5_2 1_555 1_555
C24_2 C26_2 1_555 1_555
C24_2 N5_2 1_555 1_555
C28_2 O5_2 1_555 1_555
C28_2 O6_2 1_555 1_555
C34_2 C35_2 1_555 1_555
C36_2 C37_2 1_555 1_555
C40_2 N8 1_555 1_555
H27_3 C39_3 1_555 1_555
C40_3 C39_3 1_555 1_555
H28_3 C40_3 1_555 1_555
Co7_2 N6_2 1_555 1_555
C40_3 N6_2 1_555 1_555
C21_3 H15_3 1_555 1_555
C22_3 C21_3 1_555 1_555
C23_3 H17_3 1_555 1_555
C24_3 C25_3 1_555 1_555
H18_3 C25_3 1_555 1_555
C27_3 C26_3 1_555 1_555
H19_3 C27_3 1_555 1_555
H20_3 C27_3 1_555 1_555
N4_3 C21_3 1_555 1_555
N5_3 C22_3 1_555 1_555
Co8 N4_3 1_555 1_555
C28_3 C29_3 1_555 1_555
C29_3 C30_3 1_555 1_555
C30_3 H22_3 1_555 1_555
C31_3 C30_3 1_555 1_555
C32_3 C31_3 1_555 1_555
C33_3 C31_3 1_555 1_555
H23_3 C33_3 1_555 1_555
C34_3 C33_3 1_555 1_555
H24_3 C34_3 1_555 1_555
C35_3 C29_3 1_555 1_555
C36_3 H25_3 1_555 1_555
C37_3 C35_3 1_555 1_555
C38_3 C37_3 1_555 1_555
H26_3 C38_3 1_555 1_555
O5_3 Co8 1_555 1_555
O6_3 Co8 1_555 1_555
O7_2 C32_3 1_555 1_555
O12 C32_3 1_555 1_555
Co7_2 O7_2 1_555 1_555
N7_2 Co8 1_555 1_555
O9_2 Co8 1_555 1_555
C23_3 N4_3 1_555 1_555
C23_3 N5_3 1_555 1_555
C24_3 C26_3 1_555 1_555
C24_3 N5_3 1_555 1_555
C28_3 O5_3 1_555 1_555
C28_3 O6_3 1_555 1_555
C34_3 C35_3 1_555 1_555
C36_3 C37_3 1_555 1_555
H6_3 C12_3 1_555 1_555
C13_3 C12_3 1_555 1_555
H7_3 C13_3 1_555 1_555
Co8_2 N3_2 1_555 1_555
C13_3 N3_2 1_555 1_555
C16_3 H10_3 1_555 1_555
C17_3 C18_3 1_555 1_555
C18_3 H11_3 1_555 1_555
C19_3 C17_3 1_555 1_555
C20_3 C19_3 1_555 1_555
H12_3 C20_3 1_555 1_555
H13_3 C20_3 1_555 1_555
N2_3 C15_3 1_555 1_555
C16_3 N2_3 1_555 1_555
C17_3 N2_3 1_555 1_555
Co7 N1_3 1_555 1_555
C1_3 C2_3 1_555 1_555
C2_3 C3_3 1_555 1_555
C3_3 H1_3 1_555 1_555
C4_3 C3_3 1_555 1_555
C5_3 C4_3 1_555 1_555
C6_3 C4_3 1_555 1_555
H2_3 C6_3 1_555 1_555
C7_3 C6_3 1_555 1_555
H3_3 C7_3 1_555 1_555
C8_3 C2_3 1_555 1_555
C9_3 H4_3 1_555 1_555
C10_3 C8_3 1_555 1_555
C11_3 C10_3 1_555 1_555
H5_3 C11_3 1_555 1_555
C14_3 H8_3 1_555 1_555
N1_3 C14_3 1_555 1_555
O1_3 Co7 1_555 1_555
O2_3 Co7 1_555 1_555
O3_2 C5_3 1_555 1_555
O11 C5_3 1_555 1_555
Co8_2 O3_2 1_555 1_555
N8_2 Co7 1_555 1_555
O10_2 Co7 1_555 1_555
C1_3 O1_3 1_555 1_555
C1_3 O2_3 1_555 1_555
C7_3 C8_3 1_555 1_555
C9_3 C10_3 1_555 1_555
H9_2 C15_4 1_555 1_555
C16_4 H10_4 1_555 1_555
C17_4 C18_4 1_555 1_555
C18_4 H11_4 1_555 1_555
C19_4 C17_4 1_555 1_555
C20_4 C19_4 1_555 1_555
H12_4 C20_4 1_555 1_555
H13_4 C20_4 1_555 1_555
H14_4 C20_4 1_555 1_555
N2_4 C15_4 1_555 1_555
C21_4 H15_4 1_555 1_555
C22_4 C21_4 1_555 1_555
H16_4 C22_4 1_555 1_555
C23_4 H17_4 1_555 1_555
C24_4 C25_4 1_555 1_555
C25_4 C19_4 1_555 1_555
H18_4 C25_4 1_555 1_555
C26_4 C18_4 1_555 1_555
C27_4 C26_4 1_555 1_555
H19_4 C27_4 1_555 1_555
H20_4 C27_4 1_555 1_555
H21_4 C27_4 1_555 1_555
N4_4 C21_4 1_555 1_555
N5_4 C22_4 1_555 1_555
Co8_2 N4_4 1_555 1_555
C28_4 C29_4 1_555 1_555
C29_4 C30_4 1_555 1_555
C31_4 C30_4 1_555 1_555
C33_4 C31_4 1_555 1_555
H23_4 C33_4 1_555 1_555
C34_4 C33_4 1_555 1_555
H24_4 C34_4 1_555 1_555
C35_4 C29_4 1_555 1_555
C36_4 H25_4 1_555 1_555
C37_4 C35_4 1_555 1_555
C38_4 C37_4 1_555 1_555
H26_4 C38_4 1_555 1_555
C39_4 C38_4 1_555 1_555
H27_4 C39_4 1_555 1_555
C40_4 C39_4 1_555 1_555
H28_4 C40_4 1_555 1_555
N8_2 C36_4 1_555 1_555
O5_4 Co8_2 1_555 1_555
O6_4 Co8_2 1_555 1_555
C16_4 N2_4 1_555 1_555
C17_4 N2_4 1_555 1_555
C23_4 N4_4 1_555 1_555
C23_4 N5_4 1_555 1_555
C24_4 C26_4 1_555 1_555
C24_4 N5_4 1_555 1_555
C28_4 O5_4 1_555 1_555
C28_4 O6_4 1_555 1_555
C34_4 C35_4 1_555 1_555
C36_4 C37_4 1_555 1_555
C40_4 N8_2 1_555 1_555
Co7_2 N1_4 1_555 1_555
C1_4 C2_4 1_555 1_555
C2_4 C3_4 1_555 1_555
C4_4 C3_4 1_555 1_555
C6_4 C4_4 1_555 1_555
H2_4 C6_4 1_555 1_555
C7_4 C6_4 1_555 1_555
H3_4 C7_4 1_555 1_555
C8_4 C2_4 1_555 1_555
C9_4 H4_4 1_555 1_555
C10_4 C8_4 1_555 1_555
C11_4 C10_4 1_555 1_555
H5_4 C11_4 1_555 1_555
C12_4 C11_4 1_555 1_555
H6_4 C12_4 1_555 1_555
C13_4 C12_4 1_555 1_555
H7_4 C13_4 1_555 1_555
C14_4 H8_4 1_555 1_555
N1_4 C14_4 1_555 1_555
N7_2 C9_4 1_555 1_555
O1_4 Co7_2 1_555 1_555
O2_4 Co7_2 1_555 1_555
C1_4 O1_4 1_555 1_555
C1_4 O2_4 1_555 1_555
C7_4 C8_4 1_555 1_555
C9_4 C10_4 1_555 1_555
C13_4 N7_2 1_555 1_555
O10_2 C32_4 1_555 1_555
O12_2 C32_4 1_555 1_555
O9_2 C5_4 1_555 1_555
O11_2 C5_4 1_555 1_555

#END
