
###############################################################################
#
# This file contains modified crystal structure data generated from the
# MOF subset of the Cambridge Structural Database (CSD) v543 
# hosted by the Cambridge Crystallographic Data Centre (CCDC).
#
# This work is licensed under the Creative Commons
# Attribution-NonCommercial-ShareAlike 4.0 International License.
# To view a copy of this license, visit
# http://creativecommons.org/licenses/by-nc-sa/4.0/
# or send a letter to
# Creative Commons, PO Box 1866, Mountain View, CA 94042, USA.
#
# CIF created using the CSD Python API on 29 September 2022
# The structure has been converted into the P1 space group
# The structure has a 3D framework
# The original CSD entry BEXSEE is in the monoclinic crystal system
# The framework has been calculated to contain at least 10.0% void space
# The void calculation uses a probe of radius 1.32A, grid spacing 0.4
#
###############################################################################

data_BEXSEE
_chemical_formula_moiety         '(C60 H72 Co11 N4 O46)n'
_symmetry_cell_setting           triclinic
_symmetry_space_group_name_H-M   'P 1'
_symmetry_Int_Tables_number      1
_space_group_name_Hall           'P 1'
loop_
_symmetry_equiv_pos_site_id
_symmetry_equiv_pos_as_xyz
1 x,y,z
_cell_length_a                   12.5175(2)
_cell_length_b                   17.8600(3)
_cell_length_c                   12.3435(2)
_cell_angle_alpha                90
_cell_angle_beta                 112.6012(6)
_cell_angle_gamma                90
_cell_volume                     2547.62
loop_
_atom_site_label
_atom_site_type_symbol
_atom_site_fract_x
_atom_site_fract_y
_atom_site_fract_z
Co1 Co 0.0000 0.0000 0.5000
O3 O 0.14158(17) 0.04259(12) 0.31590(17)
C1 C 0.0555(2) 0.08329(15) 0.3079(2)
C2 C 0.0161(2) 0.14214(15) 0.2128(2)
C6 C 0.0377(2) 0.20640(15) 0.0502(2)
C7 C 0.0760(2) 0.15366(16) 0.1397(2)
H5 H 0.1436 0.1252 0.1512
H7 H 0.1846 0.2077 0.0114
N3 N 0.09035(19) 0.08235(13) 0.62886(17)
C9 C 0.1006(2) 0.21637(16) 0.9692(2)
H6 H 0.0888 0.2675 0.9358
O6 O 0.05110(16) 0.16110(12) 0.87773(16)
C10 C 0.1018(2) 0.15274(16) 0.7982(2)
C11 C 0.0506(2) 0.09924(16) 0.7121(2)
C12 C 0.1844(2) 0.11884(16) 0.6293(2)
H9 H 0.2141 0.1066 0.5713
C13 C 0.2397(2) 0.17380(16) 0.7115(2)
C14 C 0.1966(2) 0.19260(16) 0.7973(2)
H10 H 0.2309 0.2312 0.8527
C15 C 0.3467(2) 0.21287(17) 0.7108(2)
O7 O 0.39737(17) 0.18194(12) 0.65209(17)
O8 O 0.37613(17) 0.27250(12) 0.76881(17)
Co6 Co 0.56249(3) 0.20447(2) 0.65740(3)
Co1_2 Co 0.0000 1.0000 0.5000
O1 O 0.16262(16) 0.96162(11) 0.50766(16)
H1 H 0.1523 0.9780 0.4420
H2 H 0.1914 0.9179 0.5209
H20 H 0.0878 0.7155 0.0281
H24 H 0.0157 0.9265 0.2875
H33 H 0.5000 0.8144 0.0028
H34 H 0.5435 0.7445 0.0680
O25 O 0.00178(16) 0.92250(11) 0.62805(15)
C18 C 0.0816(2) 0.81479(16) 0.8027(2)
H19 H 0.1212 0.8213 0.7513
C19 C 0.1218(2) 0.76210(16) 0.8932(2)
C20 C 0.0614(2) 0.75141(16) 0.9668(2)
C23 C 0.2284(2) 0.71735(16) 0.9093(2)
O15 O 0.26617(16) 0.67177(11) 0.99561(16)
O16 O 0.27418(17) 0.72828(12) 0.83616(16)
Co3 Co 0.43751(3) 0.70447(2) 0.84260(3)
O20 O 0.44349(17) 0.60989(12) 0.95313(17)
H27 H 0.3885 0.6228 0.9798
H28 H 0.4309 0.5626 0.9257
O21 O 0.42198(17) 0.80368(12) 0.74267(17)
H29 H 0.3619 0.7993 0.6732
H30 H 0.4887 0.8015 0.7309
O22 O 0.36673(18) 0.64279(13) 0.68730(17)
H31 H 0.3011 0.6157 0.6657
H32 H 0.4165 0.6201 0.6613
O23 O 0.5157(2) 0.76590(13) 0.99660(18)
O26 O 0.60263(17) 0.68194(12) 0.84791(17)
Co4 Co 1.0000 0.5000 0.0000
H1_2 H 0.8477 0.4780 0.0580
O3_2 O 0.85842(17) 0.54259(12) 0.18410(17)
C1_2 C 0.9445(2) 0.58329(15) 0.1921(2)
C2_2 C 0.9839(2) 0.64214(15) 0.2872(2)
C6_2 C 0.9623(2) 0.70640(15) 0.4498(2)
C7_2 C 0.9240(2) 0.65366(16) 0.3603(2)
H5_2 H 0.8564 0.6252 0.3488
C9_2 C 0.8994(2) 0.71637(16) 0.5308(2)
H6_2 H 0.9112 0.7675 0.5642
H7_2 H 0.8154 0.7077 0.4886
O6_2 O 0.94890(16) 0.66110(12) 0.62227(16)
C10_2 C 0.8982(2) 0.65274(16) 0.7018(2)
C11_2 C 0.9494(2) 0.59924(16) 0.7879(2)
N1 N 0.90965(19) 0.58235(13) 0.87114(17)
C12_2 C 0.8156(2) 0.61884(16) 0.8707(2)
H9_2 H 0.7859 0.6066 0.9287
C13_2 C 0.7603(2) 0.67380(16) 0.7885(2)
C14_2 C 0.8034(2) 0.69260(16) 0.7027(2)
H10_2 H 0.7691 0.7312 0.6473
C15_2 C 0.6533(2) 0.71287(17) 0.7892(2)
O8_2 O 0.62387(17) 0.77250(12) 0.73119(17)
O13 O 0.99822(16) 0.42250(11) 0.87195(15)
C18_2 C 0.9184(2) 0.31479(16) 0.6973(2)
H19_2 H 0.8788 0.3213 0.7487
C19_2 C 0.8782(2) 0.26210(16) 0.6068(2)
C20_2 C 0.9386(2) 0.25141(16) 0.5332(2)
H20_2 H 0.9122 0.2155 0.4719
C23_2 C 0.7716(2) 0.21735(16) 0.5907(2)
O15_2 O 0.73383(16) 0.17177(11) 0.50439(16)
O16_2 O 0.72582(17) 0.22828(12) 0.66384(16)
H24_2 H 0.9843 0.4265 0.2125
O20_2 O 0.55651(17) 0.10989(12) 0.54687(17)
H27_2 H 0.6115 0.1228 0.5202
H28_2 H 0.5691 0.0626 0.5743
O21_2 O 0.57802(17) 0.30368(12) 0.75733(17)
H29_2 H 0.6381 0.2993 0.8268
H30_2 H 0.5113 0.3015 0.7691
O22_2 O 0.63327(18) 0.14279(13) 0.81270(17)
H31_2 H 0.6989 0.1157 0.8343
H32_2 H 0.5835 0.1201 0.8387
O23_2 O 0.4843(2) 0.26590(13) 0.50340(18)
H33_2 H 0.5000 0.3144 0.4972
H34_2 H 0.4565 0.2445 0.4320
Co4_2 Co 1.0000 0.5000 1.0000
O1_2 O 0.83738(16) 0.46162(11) 0.99234(16)
H2_2 H 0.8086 0.4179 0.9791
Co1_3 Co 1.0000 0.0000 0.5000
O2 O 0.99822(16) 0.07750(11) 0.37195(15)
C3 C 0.9184(2) 0.18521(16) 0.1973(2)
H3 H 0.8788 0.1787 0.2487
C4 C 0.8782(2) 0.23790(16) 0.1068(2)
C5 C 0.9386(2) 0.24859(16) 0.0332(2)
C8 C 0.7716(2) 0.28265(16) 0.0907(2)
O4 O 0.73383(16) 0.32823(11) 0.00439(16)
O5 O 0.72582(17) 0.27172(12) 0.16384(16)
Co2 Co 0.56249(3) 0.29553(2) 0.15740(3)
O9 O 0.55651(17) 0.39011(12) 0.04687(17)
H11 H 0.6115 0.3772 0.0202
H12 H 0.5691 0.4374 0.0743
O10 O 0.57802(17) 0.19632(12) 0.25733(17)
H13 H 0.6381 0.2007 0.3268
H14 H 0.5113 0.1985 0.2691
O11 O 0.63327(18) 0.35721(13) 0.31270(17)
H15 H 0.6989 0.3843 0.3343
H16 H 0.5835 0.3799 0.3387
O12 O 0.4843(2) 0.23410(13) 0.00340(18)
O24 O 0.83738(16) 0.03838(11) 0.49234(16)
H35 H 0.8477 0.0220 0.5580
H36 H 0.8086 0.0821 0.4791
O27 O 0.39737(17) 0.31806(12) 0.15209(17)
H4 H 0.9122 0.2845 0.9719
H8 H 0.9843 0.0735 0.7125
H17 H 0.5000 0.1856 0.9972
H18 H 0.4565 0.2555 0.9320
Co1_4 Co 1.0000 1.0000 0.5000
C24 C 0.8994(2) 0.78363(16) 0.0308(2)
H22 H 0.9112 0.7325 0.0642
O17 O 0.94890(16) 0.83890(12) 0.12227(16)
C25 C 0.8982(2) 0.84726(16) 0.2018(2)
C26 C 0.9494(2) 0.90076(16) 0.2879(2)
N2 N 0.90965(19) 0.91765(13) 0.37114(17)
C27 C 0.8156(2) 0.88116(16) 0.3707(2)
H25 H 0.7859 0.8934 0.4287
C28 C 0.7603(2) 0.82620(16) 0.2885(2)
C29 C 0.8034(2) 0.80740(16) 0.2027(2)
H26 H 0.7691 0.7688 0.1473
C30 C 0.6533(2) 0.78713(17) 0.2892(2)
O18 O 0.60263(17) 0.81806(12) 0.34791(17)
O19 O 0.62387(17) 0.72750(12) 0.23119(17)
Co5 Co 0.43751(3) 0.79553(2) 0.34260(3)
O14 O 0.85842(17) 0.95741(12) 0.68410(17)
C16 C 0.9445(2) 0.91671(15) 0.6921(2)
C17 C 0.9839(2) 0.85786(15) 0.7872(2)
C21 C 0.9623(2) 0.79360(15) 0.9498(2)
C22 C 0.9240(2) 0.84634(16) 0.8603(2)
H21 H 0.8564 0.8748 0.8488
H23 H 0.8154 0.7923 0.9886
Co4_3 Co -0.0000 0.5000 0.0000
O2_2 O 0.00178(16) 0.57750(11) 0.12805(15)
C3_2 C 0.0816(2) 0.68521(16) 0.3027(2)
H3_2 H 0.1212 0.6787 0.2513
C4_2 C 0.1218(2) 0.73790(16) 0.3932(2)
C5_2 C 0.0614(2) 0.74859(16) 0.4668(2)
H4_2 H 0.0878 0.7845 0.5281
C8_2 C 0.2284(2) 0.78265(16) 0.4093(2)
O4_2 O 0.26617(16) 0.82823(11) 0.49561(16)
O5_2 O 0.27418(17) 0.77172(12) 0.33616(16)
H8_2 H 0.0157 0.5735 0.7875
O9_2 O 0.44349(17) 0.89011(12) 0.45313(17)
H11_2 H 0.3885 0.8772 0.4798
H12_2 H 0.4309 0.9374 0.4257
O10_2 O 0.42198(17) 0.69632(12) 0.24267(17)
H13_2 H 0.3619 0.7007 0.1732
H14_2 H 0.4887 0.6985 0.2309
O11_2 O 0.36673(18) 0.85721(13) 0.18730(17)
H15_2 H 0.3011 0.8843 0.1657
H16_2 H 0.4165 0.8799 0.1613
O12_2 O 0.5157(2) 0.73410(13) 0.49660(18)
H17_2 H 0.5000 0.6856 0.5028
H18_2 H 0.5435 0.7555 0.5680
O14_2 O 0.14158(17) 0.45741(12) 0.81590(17)
C16_2 C 0.0555(2) 0.41671(15) 0.8079(2)
C17_2 C 0.0161(2) 0.35786(15) 0.7128(2)
C21_2 C 0.0377(2) 0.29360(15) 0.5502(2)
C22_2 C 0.0760(2) 0.34634(16) 0.6397(2)
H21_2 H 0.1436 0.3748 0.6512
C24_2 C 0.1006(2) 0.28363(16) 0.4692(2)
H22_2 H 0.0888 0.2325 0.4358
H23_2 H 0.1846 0.2923 0.5114
O17_2 O 0.05110(16) 0.33890(12) 0.37773(16)
C25_2 C 0.1018(2) 0.34726(16) 0.2982(2)
C26_2 C 0.0506(2) 0.40076(16) 0.2121(2)
N2_2 N 0.09035(19) 0.41765(13) 0.12886(17)
C27_2 C 0.1844(2) 0.38116(16) 0.1293(2)
H25_2 H 0.2141 0.3934 0.0713
C28_2 C 0.2397(2) 0.32620(16) 0.2115(2)
C29_2 C 0.1966(2) 0.30740(16) 0.2973(2)
H26_2 H 0.2309 0.2688 0.3527
C30_2 C 0.3467(2) 0.28713(17) 0.2108(2)
O19_2 O 0.37613(17) 0.22750(12) 0.26881(17)
O24_2 O 0.16262(16) 0.53838(11) 0.00766(16)
H36_2 H 0.1914 0.5821 0.0209
Co4_4 Co -0.0000 0.5000 1.0000
H35_2 H 0.1523 0.5220 0.9420
loop_
_geom_bond_atom_site_label_1
_geom_bond_atom_site_label_2
_geom_bond_site_symmetry_1
_geom_bond_site_symmetry_2
O3 C1 1_555 1_555
C2 C1 1_555 1_555
C7 C2 1_555 1_555
H5 C7 1_555 1_555
N3 Co1 1_555 1_555
C6 C7 1_555 1_555
H6 C9 1_555 1_555
O6 C9 1_555 1_555
C10 O6 1_555 1_555
C11 C10 1_555 1_555
N3 C11 1_555 1_555
C12 N3 1_555 1_555
H9 C12 1_555 1_555
C13 C12 1_555 1_555
C14 C10 1_555 1_555
H10 C14 1_555 1_555
C15 C13 1_555 1_555
O7 C15 1_555 1_555
O8 C15 1_555 1_555
Co6 O7 1_555 1_555
C13 C14 1_555 1_555
Co1_2 O1 1_555 1_555
O1 H1 1_555 1_555
H2 O1 1_555 1_555
O25 Co1_2 1_555 1_555
C18 H19 1_555 1_555
C19 C18 1_555 1_555
C20 C19 1_555 1_555
C23 C19 1_555 1_555
O15 C23 1_555 1_555
O16 C23 1_555 1_555
Co3 O16 1_555 1_555
O20 Co3 1_555 1_555
H27 O20 1_555 1_555
H28 O20 1_555 1_555
O21 Co3 1_555 1_555
H29 O21 1_555 1_555
H30 O21 1_555 1_555
O22 Co3 1_555 1_555
H31 O22 1_555 1_555
H32 O22 1_555 1_555
O23 Co3 1_555 1_555
O26 Co3 1_555 1_555
O3_2 C1_2 1_555 1_555
C2_2 C1_2 1_555 1_555
C7_2 C2_2 1_555 1_555
H5_2 C7_2 1_555 1_555
C9_2 C6_2 1_555 1_555
H6_2 C9_2 1_555 1_555
H7_2 C9_2 1_555 1_555
O6_2 C9_2 1_555 1_555
C10_2 O6_2 1_555 1_555
C11_2 C10_2 1_555 1_555
N1 C11_2 1_555 1_555
C12_2 N1 1_555 1_555
H9_2 C12_2 1_555 1_555
C13_2 C12_2 1_555 1_555
C14_2 C10_2 1_555 1_555
H10_2 C14_2 1_555 1_555
C15_2 C13_2 1_555 1_555
O26 C15_2 1_555 1_555
O8_2 C15_2 1_555 1_555
C18_2 H19_2 1_555 1_555
C19_2 C18_2 1_555 1_555
C20_2 C19_2 1_555 1_555
H20_2 C20_2 1_555 1_555
C23_2 C19_2 1_555 1_555
O15_2 C23_2 1_555 1_555
O16_2 C23_2 1_555 1_555
Co6 O16_2 1_555 1_555
O20_2 Co6 1_555 1_555
H27_2 O20_2 1_555 1_555
H28_2 O20_2 1_555 1_555
O21_2 Co6 1_555 1_555
H29_2 O21_2 1_555 1_555
H30_2 O21_2 1_555 1_555
O22_2 Co6 1_555 1_555
H31_2 O22_2 1_555 1_555
H32_2 O22_2 1_555 1_555
O23_2 Co6 1_555 1_555
H33_2 O23_2 1_555 1_555
H34_2 O23_2 1_555 1_555
Co4_2 N1 1_555 1_555
C6_2 C7_2 1_555 1_555
C13_2 C14_2 1_555 1_555
O13 Co4_2 1_555 1_555
Co4_2 O1_2 1_555 1_555
H2_2 O1_2 1_555 1_555
O2 Co1_3 1_555 1_555
H3 C3 1_555 1_555
C4 C3 1_555 1_555
C5 C4 1_555 1_555
C8 C4 1_555 1_555
O4 C8 1_555 1_555
O5 C8 1_555 1_555
Co2 O5 1_555 1_555
O9 Co2 1_555 1_555
H11 O9 1_555 1_555
H12 O9 1_555 1_555
O10 Co2 1_555 1_555
H13 O10 1_555 1_555
H14 O10 1_555 1_555
O11 Co2 1_555 1_555
H15 O11 1_555 1_555
H16 O11 1_555 1_555
O12 Co2 1_555 1_555
O24 Co1_3 1_555 1_555
H35 O24 1_555 1_555
H36 O24 1_555 1_555
O27 Co2 1_555 1_555
H22 C24 1_555 1_555
O17 C24 1_555 1_555
C25 O17 1_555 1_555
C26 C25 1_555 1_555
N2 Co1_4 1_555 1_555
C27 N2 1_555 1_555
H25 C27 1_555 1_555
C28 C27 1_555 1_555
C29 C25 1_555 1_555
H26 C29 1_555 1_555
C30 C28 1_555 1_555
O18 C30 1_555 1_555
O19 C30 1_555 1_555
Co5 O18 1_555 1_555
C26 N2 1_555 1_555
C28 C29 1_555 1_555
O14 C16 1_555 1_555
C16 C17 1_555 1_555
C22 C17 1_555 1_555
H21 C22 1_555 1_555
C21 C22 1_555 1_555
O2_2 Co4_3 1_555 1_555
H3_2 C3_2 1_555 1_555
C4_2 C3_2 1_555 1_555
C5_2 C4_2 1_555 1_555
H4_2 C5_2 1_555 1_555
C8_2 C4_2 1_555 1_555
O4_2 C8_2 1_555 1_555
O5_2 C8_2 1_555 1_555
Co5 O5_2 1_555 1_555
O9_2 Co5 1_555 1_555
H11_2 O9_2 1_555 1_555
H12_2 O9_2 1_555 1_555
O10_2 Co5 1_555 1_555
H13_2 O10_2 1_555 1_555
H14_2 O10_2 1_555 1_555
O11_2 Co5 1_555 1_555
H15_2 O11_2 1_555 1_555
H16_2 O11_2 1_555 1_555
O12_2 Co5 1_555 1_555
H17_2 O12_2 1_555 1_555
H18_2 O12_2 1_555 1_555
O14_2 C16_2 1_555 1_555
C16_2 C17_2 1_555 1_555
C22_2 C17_2 1_555 1_555
H21_2 C22_2 1_555 1_555
C24_2 C21_2 1_555 1_555
H22_2 C24_2 1_555 1_555
H23_2 C24_2 1_555 1_555
O17_2 C24_2 1_555 1_555
C25_2 O17_2 1_555 1_555
C26_2 C25_2 1_555 1_555
N2_2 Co4_3 1_555 1_555
C27_2 N2_2 1_555 1_555
H25_2 C27_2 1_555 1_555
C28_2 C27_2 1_555 1_555
C29_2 C25_2 1_555 1_555
H26_2 C29_2 1_555 1_555
C30_2 C28_2 1_555 1_555
O27 C30_2 1_555 1_555
O19_2 C30_2 1_555 1_555
O24_2 Co4_3 1_555 1_555
H36_2 O24_2 1_555 1_555
C21_2 C22_2 1_555 1_555
C26_2 N2_2 1_555 1_555
C28_2 C29_2 1_555 1_555

#END
