
###############################################################################
#
# This file contains modified crystal structure data generated from the
# MOF subset of the Cambridge Structural Database (CSD) v543 
# hosted by the Cambridge Crystallographic Data Centre (CCDC).
#
# This work is licensed under the Creative Commons
# Attribution-NonCommercial-ShareAlike 4.0 International License.
# To view a copy of this license, visit
# http://creativecommons.org/licenses/by-nc-sa/4.0/
# or send a letter to
# Creative Commons, PO Box 1866, Mountain View, CA 94042, USA.
#
# CIF created using the CSD Python API on 29 September 2022
# The structure has been converted into the P1 space group
# The structure has a 3D framework
# The original CSD entry BEYSEF is in the tetragonal crystal system
# The framework has been calculated to contain at least 10.0% void space
# The void calculation uses a probe of radius 1.32A, grid spacing 0.4
#
###############################################################################

data_BEYSEF
_chemical_formula_moiety         '(C128 H144 Co16 N80 O32)n'
_symmetry_cell_setting           triclinic
_symmetry_space_group_name_H-M   'P 1'
_symmetry_Int_Tables_number      1
_space_group_name_Hall           'P 1'
loop_
_symmetry_equiv_pos_site_id
_symmetry_equiv_pos_as_xyz
1 x,y,z
_cell_length_a                   17.243(3)
_cell_length_b                   17.243(3)
_cell_length_c                   20.157(6)
_cell_angle_alpha                90
_cell_angle_beta                 90
_cell_angle_gamma                90
_cell_volume                     5993.1
loop_
_atom_site_label
_atom_site_type_symbol
_atom_site_fract_x
_atom_site_fract_y
_atom_site_fract_z
Co1 Co 0.03761(2) 0.46924(2) 0.060409(18)
C1 C 0.11616(16) 0.34439(16) 0.13443(14)
H1 H 0.1017 0.3131 0.0989
C2 C 0.12675(16) 0.44150(15) 0.19877(13)
C3 C 0.12740(17) 0.51174(17) 0.23400(15)
C7 C 0.16975(15) 0.38061(15) 0.22415(13)
C8 C 0.21001(19) 0.45287(17) 0.30908(16)
H7 H 0.2395 0.4586 0.3474
N1 N 0.09196(13) 0.41756(13) 0.13986(11)
N2 N 0.08829(16) 0.57536(14) 0.21591(14)
H8 H 0.0911 0.6167 0.2396
H9 H 0.0603 0.5749 0.1806
N3 N 0.17077(16) 0.51505(14) 0.29003(13)
N4 N 0.16279(13) 0.31820(13) 0.18323(11)
N5 N 0.21280(14) 0.38340(13) 0.28063(12)
Co2 Co 0.28076(2) 0.28761(2) 0.310409(18)
Co4 Co 0.21924(2) 0.21239(2) 0.189591(18)
N7 N 0.13340(13) 0.53720(14) 0.03063(12)
C4 C 0.05496(17) 0.38656(17) 0.92993(16)
C5 C 0.0895(2) 0.32221(19) 0.88972(17)
H2 H 0.1325 0.3430 0.8643
H3 H 0.0508 0.3043 0.8583
C6 C 0.1182(2) 0.2534(2) 0.9288(2)
H4 H 0.1393 0.2155 0.8990
H5 H 0.0758 0.2309 0.9530
H6 H 0.1576 0.2699 0.9593
O1 O 0.07272(12) 0.39095(12) 0.98991(10)
O2 O 0.01097(12) 0.43375(12) 0.90030(11)
N6 N 0.93180(13) 0.41279(13) 0.06677(11)
O3 O 0.98903(12) 0.56625(12) 0.09970(11)
Co3 Co 0.96239(2) 0.53076(2) 0.939591(18)
Co1_2 Co 0.46239(2) 0.53076(2) 0.560409(18)
C1_2 C 0.38384(16) 0.65561(16) 0.63443(14)
H1_2 H 0.3983 0.6869 0.5989
C2_2 C 0.37325(16) 0.55850(15) 0.69877(13)
C3_2 C 0.37260(17) 0.48826(17) 0.73400(15)
C4_2 C 0.44504(17) 0.61344(17) 0.42993(16)
C5_2 C 0.4105(2) 0.67779(19) 0.38972(17)
H2_2 H 0.3675 0.6570 0.3643
H3_2 H 0.4492 0.6957 0.3583
C6_2 C 0.3818(2) 0.7466(2) 0.4288(2)
H4_2 H 0.3607 0.7845 0.3990
H5_2 H 0.4242 0.7691 0.4530
H6_2 H 0.3424 0.7301 0.4593
C7_2 C 0.33025(15) 0.61939(15) 0.72415(13)
C8_2 C 0.28999(19) 0.54713(17) 0.80908(16)
H7_2 H 0.2605 0.5414 0.8474
N1_2 N 0.40804(13) 0.58244(13) 0.63986(11)
N2_2 N 0.41171(16) 0.42464(14) 0.71591(14)
H8_2 H 0.4089 0.3833 0.7396
H9_2 H 0.4397 0.4251 0.6806
N3_2 N 0.32923(16) 0.48495(14) 0.79003(13)
N4_2 N 0.33721(13) 0.68180(13) 0.68323(11)
N5_2 N 0.28720(14) 0.61660(13) 0.78063(12)
O1_2 O 0.42728(12) 0.60905(12) 0.48991(10)
O2_2 O 0.48903(12) 0.56625(12) 0.40030(11)
Co2_2 Co 0.21924(2) 0.71239(2) 0.810409(18)
Co3_2 Co 0.53761(2) 0.46924(2) 0.439591(18)
Co4_2 Co 0.28076(2) 0.78761(2) 0.689591(18)
N6_2 N 0.56820(13) 0.58721(13) 0.56677(11)
N7_2 N 0.36660(13) 0.46280(14) 0.53063(12)
O3_2 O 0.51097(12) 0.43375(12) 0.59970(11)
C1_3 C 0.40561(16) 0.36616(16) 0.38443(14)
H1_3 H 0.4369 0.3517 0.3489
C2_3 C 0.30850(15) 0.37675(16) 0.44877(13)
C3_3 C 0.23826(17) 0.37740(17) 0.48400(15)
C4_3 C 0.36344(17) 0.30496(17) 0.17993(16)
C5_3 C 0.42779(19) 0.3395(2) 0.13972(17)
H2_3 H 0.4070 0.3825 0.1143
H3_3 H 0.4457 0.3008 0.1083
C6_3 C 0.4966(2) 0.3682(2) 0.1788(2)
H4_3 H 0.5345 0.3893 0.1490
H5_3 H 0.5191 0.3258 0.2030
H6_3 H 0.4801 0.4076 0.2093
C7_3 C 0.36939(15) 0.41975(15) 0.47415(13)
C8_3 C 0.29713(17) 0.46001(19) 0.55908(16)
H7_3 H 0.2914 0.4895 0.5974
N1_3 N 0.33244(13) 0.34196(13) 0.38986(11)
N2_3 N 0.17464(14) 0.33829(16) 0.46591(14)
H8_3 H 0.1333 0.3411 0.4896
H9_3 H 0.1751 0.3103 0.4306
N3_3 N 0.23495(14) 0.42077(16) 0.54003(13)
N4_3 N 0.43180(13) 0.41279(13) 0.43323(11)
O1_3 O 0.35905(12) 0.32272(12) 0.23991(10)
O2_3 O 0.31625(12) 0.26097(12) 0.15030(11)
N6_3 N 0.33721(13) 0.18180(13) 0.31677(11)
O3_3 O 0.18375(12) 0.23903(12) 0.34970(11)
C8_4 C 0.20287(17) 0.53999(19) 0.05908(16)
H7_4 H 0.2086 0.5105 0.0974
N3_4 N 0.26505(14) 0.57923(16) 0.04003(13)
C1_4 C 0.09439(16) 0.63384(16) 0.88443(14)
H1_4 H 0.0631 0.6483 0.8489
C2_4 C 0.19150(15) 0.62325(16) 0.94877(13)
C3_4 C 0.26174(17) 0.62260(17) 0.98400(15)
C4_4 C 0.13656(17) 0.69504(17) 0.67993(16)
C5_4 C 0.07221(19) 0.6605(2) 0.63972(17)
H2_4 H 0.0930 0.6175 0.6143
H3_4 H 0.0543 0.6992 0.6083
C6_4 C 0.0034(2) 0.6318(2) 0.6788(2)
H6_4 H 0.0199 0.5924 0.7093
C7_4 C 0.13061(15) 0.58025(15) 0.97415(13)
N1_4 N 0.16756(13) 0.65804(13) 0.88986(11)
N2_4 N 0.32536(14) 0.66171(16) 0.96591(14)
H8_4 H 0.3667 0.6589 0.9896
H9_4 H 0.3249 0.6897 0.9306
N4_4 N 0.06820(13) 0.58721(13) 0.93323(11)
O1_4 O 0.14095(12) 0.67728(12) 0.73991(10)
O2_4 O 0.18375(12) 0.73903(12) 0.65030(11)
N6_4 N 0.16279(13) 0.81820(13) 0.81677(11)
O3_4 O 0.31625(12) 0.76097(12) 0.84970(11)
H4_4 H 0.9655 0.6107 0.6490
H5_4 H 0.9809 0.6742 0.7030
C3_5 C 0.62740(17) 0.01174(17) 0.73400(15)
N2_5 N 0.58829(16) 0.07536(14) 0.71591(14)
H8_5 H 0.5911 0.1167 0.7396
H9_5 H 0.5603 0.0749 0.6806
N3_5 N 0.67077(16) 0.01505(14) 0.79003(13)
Co3_3 Co 0.46239(2) 0.03076(2) 0.439591(18)
N7_3 N 0.63340(13) 0.03720(14) 0.53063(12)
O3_5 O 0.48903(12) 0.06625(12) 0.59970(11)
Co1_3 Co 0.53761(2) 0.96924(2) 0.560409(18)
C1_5 C 0.61616(16) 0.84439(16) 0.63443(14)
H1_5 H 0.6017 0.8131 0.5989
C2_5 C 0.62675(16) 0.94150(15) 0.69877(13)
C4_5 C 0.55496(17) 0.88656(17) 0.42993(16)
C5_5 C 0.5895(2) 0.82221(19) 0.38972(17)
H2_5 H 0.6325 0.8430 0.3643
H3_5 H 0.5508 0.8043 0.3583
C6_5 C 0.6182(2) 0.7534(2) 0.4288(2)
H4_5 H 0.6393 0.7155 0.3990
H5_5 H 0.5758 0.7309 0.4530
H6_5 H 0.6576 0.7699 0.4593
C7_5 C 0.66975(15) 0.88061(15) 0.72415(13)
C8_5 C 0.71001(19) 0.95287(17) 0.80908(16)
H7_5 H 0.7395 0.9586 0.8474
N1_5 N 0.59196(13) 0.91756(13) 0.63986(11)
N4_5 N 0.66279(13) 0.81820(13) 0.68323(11)
N5_3 N 0.71280(14) 0.88340(13) 0.78063(12)
O1_5 O 0.57272(12) 0.89095(12) 0.48991(10)
O2_5 O 0.51097(12) 0.93375(12) 0.40030(11)
Co2_3 Co 0.78076(2) 0.78761(2) 0.810409(18)
Co4_3 Co 0.71924(2) 0.71239(2) 0.689591(18)
N6_5 N 0.43180(13) 0.91279(13) 0.56677(11)
N6_6 N 0.06820(13) 0.08721(13) 0.06677(11)
Co3_4 Co 0.03761(2) 0.96924(2) 0.939591(18)
Co1_4 Co 0.96239(2) 0.03076(2) 0.060409(18)
C1_6 C 0.88384(16) 0.15561(16) 0.13443(14)
H1_6 H 0.8983 0.1869 0.0989
C2_6 C 0.87325(16) 0.05850(15) 0.19877(13)
C7_6 C 0.83025(15) 0.11939(15) 0.22415(13)
C8_6 C 0.78999(19) 0.04713(17) 0.30908(16)
H7_6 H 0.7605 0.0414 0.3474
N1_6 N 0.90804(13) 0.08244(13) 0.13986(11)
N4_6 N 0.83721(13) 0.18180(13) 0.18323(11)
N5_4 N 0.78720(14) 0.11660(13) 0.28063(12)
Co2_4 Co 0.71924(2) 0.21239(2) 0.310409(18)
Co4_4 Co 0.78076(2) 0.28761(2) 0.189591(18)
H4_6 H 0.0345 0.8893 0.6490
H5_6 H 0.0191 0.8258 0.7030
C1_7 C 0.90561(16) 0.86616(16) 0.88443(14)
H1_7 H 0.9369 0.8517 0.8489
C2_7 C 0.80850(15) 0.87675(16) 0.94877(13)
C3_6 C 0.73826(17) 0.87740(17) 0.98400(15)
C4_6 C 0.86344(17) 0.80496(17) 0.67993(16)
C5_6 C 0.92779(19) 0.8395(2) 0.63972(17)
H2_6 H 0.9070 0.8825 0.6143
H3_6 H 0.9457 0.8008 0.6083
C6_6 C 0.9966(2) 0.8682(2) 0.6788(2)
H6_6 H 0.9801 0.9076 0.7093
C7_7 C 0.86939(15) 0.91975(15) 0.97415(13)
N1_7 N 0.83244(13) 0.84196(13) 0.88986(11)
N2_6 N 0.67464(14) 0.83829(16) 0.96591(14)
H8_6 H 0.6333 0.8411 0.9896
H9_6 H 0.6751 0.8103 0.9306
N4_7 N 0.93180(13) 0.91279(13) 0.93323(11)
O1_6 O 0.85905(12) 0.82272(12) 0.73991(10)
O2_6 O 0.81625(12) 0.76097(12) 0.65030(11)
N6_7 N 0.83721(13) 0.68180(13) 0.81677(11)
O3_6 O 0.68375(12) 0.73903(12) 0.84970(11)
C1_8 C 0.59439(16) 0.13384(16) 0.38443(14)
H1_8 H 0.5631 0.1483 0.3489
C2_8 C 0.69150(15) 0.12325(16) 0.44877(13)
C3_7 C 0.76174(17) 0.12260(17) 0.48400(15)
C4_7 C 0.63656(17) 0.19504(17) 0.17993(16)
C5_7 C 0.57221(19) 0.1605(2) 0.13972(17)
H2_7 H 0.5930 0.1175 0.1143
H3_7 H 0.5543 0.1992 0.1083
C6_7 C 0.5034(2) 0.1318(2) 0.1788(2)
H4_7 H 0.4655 0.1107 0.1490
H5_7 H 0.4809 0.1742 0.2030
H6_7 H 0.5199 0.0924 0.2093
C7_8 C 0.63061(15) 0.08025(15) 0.47415(13)
C8_7 C 0.70287(17) 0.03999(19) 0.55908(16)
H7_7 H 0.7086 0.0105 0.5974
N1_8 N 0.66756(13) 0.15804(13) 0.38986(11)
N2_7 N 0.82536(14) 0.16171(16) 0.46591(14)
H8_7 H 0.8667 0.1589 0.4896
H9_7 H 0.8249 0.1897 0.4306
N3_6 N 0.76505(14) 0.07923(16) 0.54003(13)
N4_8 N 0.56820(13) 0.08721(13) 0.43323(11)
O1_7 O 0.64095(12) 0.17728(12) 0.23991(10)
O2_7 O 0.68375(12) 0.23903(12) 0.15030(11)
N6_8 N 0.66279(13) 0.31820(13) 0.31677(11)
O3_7 O 0.81625(12) 0.26097(12) 0.34970(11)
C4_8 C 0.94504(17) 0.61344(17) 0.07007(16)
C5_8 C 0.9105(2) 0.67779(19) 0.11028(17)
H2_8 H 0.8675 0.6570 0.1357
H3_8 H 0.9492 0.6957 0.1417
C6_8 C 0.8818(2) 0.7466(2) 0.0712(2)
H4_8 H 0.8607 0.7845 0.1010
H5_8 H 0.9242 0.7691 0.0470
H6_8 H 0.8424 0.7301 0.0407
O1_8 O 0.92728(12) 0.60905(12) 0.01009(10)
C1_9 C 0.88384(16) 0.65561(16) 0.86557(14)
H1_9 H 0.8983 0.6869 0.9011
C2_9 C 0.87325(16) 0.55850(15) 0.80123(13)
C3_8 C 0.87260(17) 0.48826(17) 0.76600(15)
C7_9 C 0.83025(15) 0.61939(15) 0.77585(13)
C8_8 C 0.78999(19) 0.54713(17) 0.69092(16)
H7_8 H 0.7605 0.5414 0.6526
N1_9 N 0.90804(13) 0.58244(13) 0.86014(11)
N2_8 N 0.91171(16) 0.42464(14) 0.78409(14)
H8_8 H 0.9089 0.3833 0.7604
H9_8 H 0.9397 0.4251 0.8194
N3_7 N 0.82923(16) 0.48495(14) 0.70997(13)
N5_5 N 0.78720(14) 0.61660(13) 0.71937(12)
N7_4 N 0.86660(13) 0.46280(14) 0.96937(12)
C1_10 C 0.61616(16) 0.34439(16) 0.36557(14)
H1_10 H 0.6017 0.3131 0.4011
C2_10 C 0.62675(16) 0.44150(15) 0.30123(13)
C3_9 C 0.62740(17) 0.51174(17) 0.26600(15)
C4_9 C 0.55496(17) 0.38656(17) 0.57007(16)
C5_9 C 0.5895(2) 0.32221(19) 0.61028(17)
H2_9 H 0.6325 0.3430 0.6357
H3_9 H 0.5508 0.3043 0.6417
C6_9 C 0.6182(2) 0.2534(2) 0.5712(2)
H4_9 H 0.6393 0.2155 0.6010
H5_9 H 0.5758 0.2309 0.5470
H6_9 H 0.6576 0.2699 0.5407
C7_10 C 0.66975(15) 0.38061(15) 0.27585(13)
C8_9 C 0.71001(19) 0.45287(17) 0.19092(16)
H7_9 H 0.7395 0.4586 0.1526
N1_10 N 0.59196(13) 0.41756(13) 0.36014(11)
N2_9 N 0.58829(16) 0.57536(14) 0.28409(14)
H8_9 H 0.5911 0.6167 0.2604
H9_9 H 0.5603 0.5749 0.3194
N3_8 N 0.67077(16) 0.51505(14) 0.20997(13)
N5_6 N 0.71280(14) 0.38340(13) 0.21937(12)
O1_9 O 0.57272(12) 0.39095(12) 0.51009(10)
N7_5 N 0.63340(13) 0.53720(14) 0.46937(12)
C1_11 C 0.59439(16) 0.63384(16) 0.61557(14)
H1_11 H 0.5631 0.6483 0.6511
C2_11 C 0.69150(15) 0.62325(16) 0.55123(13)
C3_10 C 0.76174(17) 0.62260(17) 0.51600(15)
C4_10 C 0.63656(17) 0.69504(17) 0.82007(16)
C5_10 C 0.57221(19) 0.6605(2) 0.86028(17)
H2_10 H 0.5930 0.6175 0.8857
H3_10 H 0.5543 0.6992 0.8917
C6_10 C 0.5034(2) 0.6318(2) 0.8212(2)
H4_10 H 0.4655 0.6107 0.8510
H5_10 H 0.4809 0.6742 0.7970
H6_10 H 0.5199 0.5924 0.7907
C7_11 C 0.63061(15) 0.58025(15) 0.52585(13)
C8_10 C 0.70287(17) 0.53999(19) 0.44092(16)
H7_10 H 0.7086 0.5105 0.4026
N1_11 N 0.66756(13) 0.65804(13) 0.61014(11)
N2_10 N 0.82536(14) 0.66171(16) 0.53409(14)
H8_10 H 0.8667 0.6589 0.5104
H9_10 H 0.8249 0.6897 0.5694
N3_9 N 0.76505(14) 0.57923(16) 0.45997(13)
O1_10 O 0.64095(12) 0.67728(12) 0.76009(10)
H4_11 H 0.0345 0.3893 0.3510
H5_11 H 0.0191 0.3258 0.2970
C1_12 C 0.90561(16) 0.36616(16) 0.11557(14)
H1_12 H 0.9369 0.3517 0.1511
C2_12 C 0.80850(15) 0.37675(16) 0.05123(13)
C3_11 C 0.73826(17) 0.37740(17) 0.01600(15)
C4_11 C 0.86344(17) 0.30496(17) 0.32007(16)
C5_11 C 0.92779(19) 0.3395(2) 0.36028(17)
H2_11 H 0.9070 0.3825 0.3857
H3_11 H 0.9457 0.3008 0.3917
C6_11 C 0.9966(2) 0.3682(2) 0.3212(2)
H6_11 H 0.9801 0.4076 0.2907
C7_12 C 0.86939(15) 0.41975(15) 0.02585(13)
N1_12 N 0.83244(13) 0.34196(13) 0.11014(11)
N2_11 N 0.67464(14) 0.33829(16) 0.03409(14)
H8_11 H 0.6333 0.3411 0.0104
H9_11 H 0.6751 0.3103 0.0694
O1_11 O 0.85905(12) 0.32272(12) 0.26009(10)
C8_11 C 0.79713(17) 0.46001(19) 0.94092(16)
H7_11 H 0.7914 0.4895 0.9026
N3_10 N 0.73495(14) 0.42077(16) 0.95997(13)
C1_13 C 0.38384(16) 0.15561(16) 0.36557(14)
H1_13 H 0.3983 0.1869 0.4011
C2_13 C 0.37325(16) 0.05850(15) 0.30123(13)
C4_12 C 0.44504(17) 0.11344(17) 0.57007(16)
C5_12 C 0.4105(2) 0.17779(19) 0.61028(17)
H2_12 H 0.3675 0.1570 0.6357
H3_12 H 0.4492 0.1957 0.6417
C6_12 C 0.3818(2) 0.2466(2) 0.5712(2)
H4_12 H 0.3607 0.2845 0.6010
H5_12 H 0.4242 0.2691 0.5470
H6_12 H 0.3424 0.2301 0.5407
C7_13 C 0.33025(15) 0.11939(15) 0.27585(13)
C8_12 C 0.28999(19) 0.04713(17) 0.19092(16)
H7_12 H 0.2605 0.0414 0.1526
N1_13 N 0.40804(13) 0.08244(13) 0.36014(11)
N5_7 N 0.28720(14) 0.11660(13) 0.21937(12)
O1_12 O 0.42728(12) 0.10905(12) 0.51009(10)
C3_12 C 0.37260(17) 0.98826(17) 0.26600(15)
N2_12 N 0.41171(16) 0.92464(14) 0.28409(14)
H8_12 H 0.4089 0.8833 0.2604
H9_12 H 0.4397 0.9251 0.3194
N3_11 N 0.32923(16) 0.98495(14) 0.20997(13)
N7_6 N 0.36660(13) 0.96280(14) 0.46937(12)
C1_14 C 0.11616(16) 0.84439(16) 0.86557(14)
H1_14 H 0.1017 0.8131 0.9011
C2_14 C 0.12675(16) 0.94150(15) 0.80123(13)
C7_14 C 0.16975(15) 0.88061(15) 0.77585(13)
C8_13 C 0.21001(19) 0.95287(17) 0.69092(16)
H7_13 H 0.2395 0.9586 0.6526
N1_14 N 0.09196(13) 0.91756(13) 0.86014(11)
N5_8 N 0.21280(14) 0.88340(13) 0.71937(12)
C1_15 C 0.09439(16) 0.13384(16) 0.11557(14)
H1_15 H 0.0631 0.1483 0.1511
C2_15 C 0.19150(15) 0.12325(16) 0.05123(13)
C3_13 C 0.26174(17) 0.12260(17) 0.01600(15)
C4_13 C 0.13656(17) 0.19504(17) 0.32007(16)
C5_13 C 0.07221(19) 0.1605(2) 0.36028(17)
H2_13 H 0.0930 0.1175 0.3857
H3_13 H 0.0543 0.1992 0.3917
C6_13 C 0.0034(2) 0.1318(2) 0.3212(2)
H6_13 H 0.0199 0.0924 0.2907
C7_15 C 0.13061(15) 0.08025(15) 0.02585(13)
N1_15 N 0.16756(13) 0.15804(13) 0.11014(11)
N2_13 N 0.32536(14) 0.16171(16) 0.03409(14)
H8_13 H 0.3667 0.1589 0.0104
H9_13 H 0.3249 0.1897 0.0694
O1_13 O 0.14095(12) 0.17728(12) 0.26009(10)
H4_13 H 0.9655 0.1107 0.3510
H5_13 H 0.9809 0.1742 0.2970
C1_16 C 0.40561(16) 0.86616(16) 0.61557(14)
H1_16 H 0.4369 0.8517 0.6511
C2_16 C 0.30850(15) 0.87675(16) 0.55123(13)
C3_14 C 0.23826(17) 0.87740(17) 0.51600(15)
C4_14 C 0.36344(17) 0.80496(17) 0.82007(16)
C5_14 C 0.42779(19) 0.8395(2) 0.86028(17)
H2_14 H 0.4070 0.8825 0.8857
H3_14 H 0.4457 0.8008 0.8917
C6_14 C 0.4966(2) 0.8682(2) 0.8212(2)
H4_14 H 0.5345 0.8893 0.8510
H5_14 H 0.5191 0.8258 0.7970
H6_14 H 0.4801 0.9076 0.7907
C7_16 C 0.36939(15) 0.91975(15) 0.52585(13)
C8_14 C 0.29713(17) 0.96001(19) 0.44092(16)
H7_14 H 0.2914 0.9895 0.4026
N1_16 N 0.33244(13) 0.84196(13) 0.61014(11)
N2_14 N 0.17464(14) 0.83829(16) 0.53409(14)
H8_14 H 0.1333 0.8411 0.5104
H9_14 H 0.1751 0.8103 0.5694
N3_12 N 0.23495(14) 0.92077(16) 0.45997(13)
O1_14 O 0.35905(12) 0.82272(12) 0.76009(10)
O3_8 O 0.01097(12) 0.93375(12) 0.09970(11)
C4_15 C 0.05496(17) 0.88656(17) 0.07007(16)
C5_15 C 0.0895(2) 0.82221(19) 0.11028(17)
H2_15 H 0.1325 0.8430 0.1357
H3_15 H 0.0508 0.8043 0.1417
C6_15 C 0.1182(2) 0.7534(2) 0.0712(2)
H4_15 H 0.1393 0.7155 0.1010
H5_15 H 0.0758 0.7309 0.0470
H6_15 H 0.1576 0.7699 0.0407
O1_15 O 0.07272(12) 0.89095(12) 0.01009(10)
C4_16 C 0.94504(17) 0.11344(17) 0.92993(16)
C5_16 C 0.9105(2) 0.17779(19) 0.88972(17)
H2_16 H 0.8675 0.1570 0.8643
H3_16 H 0.9492 0.1957 0.8583
C6_16 C 0.8818(2) 0.2466(2) 0.9288(2)
H4_16 H 0.8607 0.2845 0.8990
H5_16 H 0.9242 0.2691 0.9530
H6_16 H 0.8424 0.2301 0.9593
O1_16 O 0.92728(12) 0.10905(12) 0.98991(10)
O2_8 O 0.98903(12) 0.06625(12) 0.90030(11)
C3_15 C 0.87260(17) 0.98826(17) 0.23400(15)
N2_15 N 0.91171(16) 0.92464(14) 0.21591(14)
H8_15 H 0.9089 0.8833 0.2396
H9_15 H 0.9397 0.9251 0.1806
N3_13 N 0.82923(16) 0.98495(14) 0.29003(13)
N7_7 N 0.86660(13) 0.96280(14) 0.03063(12)
C8_15 C 0.79713(17) 0.96001(19) 0.05908(16)
H7_15 H 0.7914 0.9895 0.0974
N3_14 N 0.73495(14) 0.92077(16) 0.04003(13)
C3_16 C 0.12740(17) 0.01174(17) 0.76600(15)
N2_16 N 0.08829(16) 0.07536(14) 0.78409(14)
H8_16 H 0.0911 0.1167 0.7604
H9_16 H 0.0603 0.0749 0.8194
N3_15 N 0.17077(16) 0.01505(14) 0.70997(13)
N7_8 N 0.13340(13) 0.03720(14) 0.96937(12)
C8_16 C 0.20287(17) 0.03999(19) 0.94092(16)
H7_16 H 0.2086 0.0105 0.9026
N3_16 N 0.26505(14) 0.07923(16) 0.95997(13)
loop_
_geom_bond_atom_site_label_1
_geom_bond_atom_site_label_2
_geom_bond_site_symmetry_1
_geom_bond_site_symmetry_2
Co1 N1 1_555 1_555
C1 H1 1_555 1_555
C2 C3 1_555 1_555
C3 N2 1_555 1_555
C7 C2 1_555 1_555
C8 H7 1_555 1_555
N1 C1 1_555 1_555
N2 H8 1_555 1_555
H9 N2 1_555 1_555
N3 C3 1_555 1_555
N4 C1 1_555 1_555
N5 C7 1_555 1_555
Co2 N5 1_555 1_555
Co4 N4 1_555 1_555
N7 Co1 1_555 1_555
C2 N1 1_555 1_555
C7 N4 1_555 1_555
C8 N3 1_555 1_555
C8 N5 1_555 1_555
C4 C5 1_555 1_555
C5 H2 1_555 1_555
H3 C5 1_555 1_555
C6 C5 1_555 1_555
H4 C6 1_555 1_555
H5 C6 1_555 1_555
H6 C6 1_555 1_555
O2 C4 1_555 1_555
C4 O1 1_555 1_555
Co1_2 N1_2 1_555 1_555
C1_2 H1_2 1_555 1_555
C2_2 C3_2 1_555 1_555
C3_2 N2_2 1_555 1_555
C4_2 C5_2 1_555 1_555
C5_2 H2_2 1_555 1_555
H3_2 C5_2 1_555 1_555
C6_2 C5_2 1_555 1_555
H4_2 C6_2 1_555 1_555
H5_2 C6_2 1_555 1_555
H6_2 C6_2 1_555 1_555
C7_2 C2_2 1_555 1_555
C8_2 H7_2 1_555 1_555
N1_2 C1_2 1_555 1_555
N2_2 H8_2 1_555 1_555
H9_2 N2_2 1_555 1_555
N3_2 C3_2 1_555 1_555
N4_2 C1_2 1_555 1_555
N5_2 C7_2 1_555 1_555
O1_2 Co1_2 1_555 1_555
O2_2 C4_2 1_555 1_555
Co2_2 N5_2 1_555 1_555
Co3_2 O2_2 1_555 1_555
Co4_2 N4_2 1_555 1_555
N6_2 Co1_2 1_555 1_555
N7_2 Co1_2 1_555 1_555
O3_2 Co1_2 1_555 1_555
C2_2 N1_2 1_555 1_555
C4_2 O1_2 1_555 1_555
C7_2 N4_2 1_555 1_555
C8_2 N3_2 1_555 1_555
C8_2 N5_2 1_555 1_555
Co2 N1_3 1_555 1_555
C1_3 H1_3 1_555 1_555
C2_3 C3_3 1_555 1_555
C3_3 N2_3 1_555 1_555
C4_3 C5_3 1_555 1_555
C5_3 H2_3 1_555 1_555
H3_3 C5_3 1_555 1_555
C6_3 C5_3 1_555 1_555
H4_3 C6_3 1_555 1_555
H5_3 C6_3 1_555 1_555
H6_3 C6_3 1_555 1_555
C7_3 C2_3 1_555 1_555
C8_3 H7_3 1_555 1_555
N1_3 C1_3 1_555 1_555
N2_3 H8_3 1_555 1_555
H9_3 N2_3 1_555 1_555
N3_3 C3_3 1_555 1_555
N4_3 C1_3 1_555 1_555
N7_2 C7_3 1_555 1_555
O1_3 Co2 1_555 1_555
O2_3 C4_3 1_555 1_555
Co4 O2_3 1_555 1_555
Co3_2 N4_3 1_555 1_555
N6_3 Co2 1_555 1_555
O3_3 Co2 1_555 1_555
C2_3 N1_3 1_555 1_555
C4_3 O1_3 1_555 1_555
C7_3 N4_3 1_555 1_555
C8_3 N3_3 1_555 1_555
C8_3 N7_2 1_555 1_555
C8_4 H7_4 1_555 1_555
C8_4 N3_4 1_555 1_555
C8_4 N7 1_555 1_555
Co2_2 N1_4 1_555 1_555
C1_4 H1_4 1_555 1_555
C2_4 C3_4 1_555 1_555
C3_4 N2_4 1_555 1_555
C4_4 C5_4 1_555 1_555
C5_4 H2_4 1_555 1_555
H3_4 C5_4 1_555 1_555
C6_4 C5_4 1_555 1_555
H6_4 C6_4 1_555 1_555
C7_4 C2_4 1_555 1_555
N1_4 C1_4 1_555 1_555
N2_4 H8_4 1_555 1_555
H9_4 N2_4 1_555 1_555
N4_4 C1_4 1_555 1_555
O1_4 Co2_2 1_555 1_555
O2_4 C4_4 1_555 1_555
Co4_2 O2_4 1_555 1_555
N6_4 Co2_2 1_555 1_555
O3_4 Co2_2 1_555 1_555
C2_4 N1_4 1_555 1_555
C4_4 O1_4 1_555 1_555
C7_4 N4_4 1_555 1_555
C3_5 N2_5 1_555 1_555
N2_5 H8_5 1_555 1_555
H9_5 N2_5 1_555 1_555
N3_5 C3_5 1_555 1_555
Co1_3 N1_5 1_555 1_555
C1_5 H1_5 1_555 1_555
C4_5 C5_5 1_555 1_555
C5_5 H2_5 1_555 1_555
H3_5 C5_5 1_555 1_555
C6_5 C5_5 1_555 1_555
H4_5 C6_5 1_555 1_555
H5_5 C6_5 1_555 1_555
H6_5 C6_5 1_555 1_555
C7_5 C2_5 1_555 1_555
C8_5 H7_5 1_555 1_555
N1_5 C1_5 1_555 1_555
N4_5 C1_5 1_555 1_555
N5_3 C7_5 1_555 1_555
O1_5 Co1_3 1_555 1_555
O2_5 C4_5 1_555 1_555
Co2_3 N5_3 1_555 1_555
Co4_3 N4_5 1_555 1_555
N6_5 Co1_3 1_555 1_555
C2_5 N1_5 1_555 1_555
C4_5 O1_5 1_555 1_555
C7_5 N4_5 1_555 1_555
C8_5 N5_3 1_555 1_555
Co1_4 N1_6 1_555 1_555
C1_6 H1_6 1_555 1_555
C7_6 C2_6 1_555 1_555
C8_6 H7_6 1_555 1_555
N1_6 C1_6 1_555 1_555
N4_6 C1_6 1_555 1_555
N5_4 C7_6 1_555 1_555
Co2_4 N5_4 1_555 1_555
Co4_4 N4_6 1_555 1_555
C2_6 N1_6 1_555 1_555
C7_6 N4_6 1_555 1_555
C8_6 N5_4 1_555 1_555
Co2_3 N1_7 1_555 1_555
C1_7 H1_7 1_555 1_555
C2_7 C3_6 1_555 1_555
C3_6 N2_6 1_555 1_555
C4_6 C5_6 1_555 1_555
C5_6 H2_6 1_555 1_555
H3_6 C5_6 1_555 1_555
C6_6 C5_6 1_555 1_555
H6_6 C6_6 1_555 1_555
C7_7 C2_7 1_555 1_555
N1_7 C1_7 1_555 1_555
N2_6 H8_6 1_555 1_555
H9_6 N2_6 1_555 1_555
N4_7 C1_7 1_555 1_555
O1_6 Co2_3 1_555 1_555
O2_6 C4_6 1_555 1_555
Co4_3 O2_6 1_555 1_555
N6_7 Co2_3 1_555 1_555
O3_6 Co2_3 1_555 1_555
C2_7 N1_7 1_555 1_555
C4_6 O1_6 1_555 1_555
C7_7 N4_7 1_555 1_555
Co2_4 N1_8 1_555 1_555
C1_8 H1_8 1_555 1_555
C2_8 C3_7 1_555 1_555
C3_7 N2_7 1_555 1_555
C4_7 C5_7 1_555 1_555
C5_7 H2_7 1_555 1_555
H3_7 C5_7 1_555 1_555
C6_7 C5_7 1_555 1_555
H4_7 C6_7 1_555 1_555
H5_7 C6_7 1_555 1_555
H6_7 C6_7 1_555 1_555
C7_8 C2_8 1_555 1_555
C8_7 H7_7 1_555 1_555
N1_8 C1_8 1_555 1_555
N2_7 H8_7 1_555 1_555
H9_7 N2_7 1_555 1_555
N3_6 C3_7 1_555 1_555
N4_8 C1_8 1_555 1_555
N7_3 C7_8 1_555 1_555
O1_7 Co2_4 1_555 1_555
O2_7 C4_7 1_555 1_555
Co4_4 O2_7 1_555 1_555
Co3_3 N4_8 1_555 1_555
N6_8 Co2_4 1_555 1_555
O3_7 Co2_4 1_555 1_555
C2_8 N1_8 1_555 1_555
C4_7 O1_7 1_555 1_555
C7_8 N4_8 1_555 1_555
C8_7 N3_6 1_555 1_555
C8_7 N7_3 1_555 1_555
C4_8 C5_8 1_555 1_555
C5_8 H2_8 1_555 1_555
H3_8 C5_8 1_555 1_555
C6_8 C5_8 1_555 1_555
H4_8 C6_8 1_555 1_555
H5_8 C6_8 1_555 1_555
H6_8 C6_8 1_555 1_555
O3 C4_8 1_555 1_555
C4_8 O1_8 1_555 1_555
Co3 N1_9 1_555 1_555
C1_9 H1_9 1_555 1_555
C2_9 C3_8 1_555 1_555
C3_8 N2_8 1_555 1_555
C7_9 C2_9 1_555 1_555
C8_8 H7_8 1_555 1_555
N1_9 C1_9 1_555 1_555
N2_8 H8_8 1_555 1_555
H9_8 N2_8 1_555 1_555
N3_7 C3_8 1_555 1_555
N6_7 C1_9 1_555 1_555
N5_5 C7_9 1_555 1_555
Co4_3 N5_5 1_555 1_555
N7_4 Co3 1_555 1_555
C2_9 N1_9 1_555 1_555
C7_9 N6_7 1_555 1_555
C8_8 N3_7 1_555 1_555
C8_8 N5_5 1_555 1_555
Co3_2 N1_10 1_555 1_555
C1_10 H1_10 1_555 1_555
C2_10 C3_9 1_555 1_555
C3_9 N2_9 1_555 1_555
C4_9 C5_9 1_555 1_555
C5_9 H2_9 1_555 1_555
H3_9 C5_9 1_555 1_555
C6_9 C5_9 1_555 1_555
H4_9 C6_9 1_555 1_555
H5_9 C6_9 1_555 1_555
H6_9 C6_9 1_555 1_555
C7_10 C2_10 1_555 1_555
C8_9 H7_9 1_555 1_555
N1_10 C1_10 1_555 1_555
N2_9 H8_9 1_555 1_555
H9_9 N2_9 1_555 1_555
N3_8 C3_9 1_555 1_555
N6_8 C1_10 1_555 1_555
N5_6 C7_10 1_555 1_555
O1_9 Co3_2 1_555 1_555
O3_2 C4_9 1_555 1_555
Co4_4 N5_6 1_555 1_555
N7_5 Co3_2 1_555 1_555
C2_10 N1_10 1_555 1_555
C4_9 O1_9 1_555 1_555
C7_10 N6_8 1_555 1_555
C8_9 N3_8 1_555 1_555
C8_9 N5_6 1_555 1_555
Co4_3 N1_11 1_555 1_555
C1_11 H1_11 1_555 1_555
C2_11 C3_10 1_555 1_555
C3_10 N2_10 1_555 1_555
C4_10 C5_10 1_555 1_555
C5_10 H2_10 1_555 1_555
H3_10 C5_10 1_555 1_555
C6_10 C5_10 1_555 1_555
H4_10 C6_10 1_555 1_555
H5_10 C6_10 1_555 1_555
H6_10 C6_10 1_555 1_555
C7_11 C2_11 1_555 1_555
C8_10 H7_10 1_555 1_555
N1_11 C1_11 1_555 1_555
N2_10 H8_10 1_555 1_555
H9_10 N2_10 1_555 1_555
N3_9 C3_10 1_555 1_555
N6_2 C1_11 1_555 1_555
N7_5 C7_11 1_555 1_555
O1_10 Co4_3 1_555 1_555
O3_6 C4_10 1_555 1_555
C2_11 N1_11 1_555 1_555
C4_10 O1_10 1_555 1_555
C7_11 N6_2 1_555 1_555
C8_10 N3_9 1_555 1_555
C8_10 N7_5 1_555 1_555
Co4_4 N1_12 1_555 1_555
C1_12 H1_12 1_555 1_555
C2_12 C3_11 1_555 1_555
C3_11 N2_11 1_555 1_555
C4_11 C5_11 1_555 1_555
C5_11 H2_11 1_555 1_555
H3_11 C5_11 1_555 1_555
C6_11 C5_11 1_555 1_555
H6_11 C6_11 1_555 1_555
C7_12 C2_12 1_555 1_555
N1_12 C1_12 1_555 1_555
N2_11 H8_11 1_555 1_555
H9_11 N2_11 1_555 1_555
N6 C1_12 1_555 1_555
O1_11 Co4_4 1_555 1_555
O3_7 C4_11 1_555 1_555
C2_12 N1_12 1_555 1_555
C4_11 O1_11 1_555 1_555
C7_12 N6 1_555 1_555
C8_11 H7_11 1_555 1_555
C8_11 N3_10 1_555 1_555
C8_11 N7_4 1_555 1_555
Co3_3 N1_13 1_555 1_555
C1_13 H1_13 1_555 1_555
C4_12 C5_12 1_555 1_555
C5_12 H2_12 1_555 1_555
H3_12 C5_12 1_555 1_555
C6_12 C5_12 1_555 1_555
H4_12 C6_12 1_555 1_555
H5_12 C6_12 1_555 1_555
H6_12 C6_12 1_555 1_555
C7_13 C2_13 1_555 1_555
C8_12 H7_12 1_555 1_555
N1_13 C1_13 1_555 1_555
N6_3 C1_13 1_555 1_555
N5_7 C7_13 1_555 1_555
O1_12 Co3_3 1_555 1_555
O3_5 C4_12 1_555 1_555
Co4 N5_7 1_555 1_555
C2_13 N1_13 1_555 1_555
C4_12 O1_12 1_555 1_555
C7_13 N6_3 1_555 1_555
C8_12 N5_7 1_555 1_555
C3_12 N2_12 1_555 1_555
N2_12 H8_12 1_555 1_555
H9_12 N2_12 1_555 1_555
N3_11 C3_12 1_555 1_555
Co3_4 N1_14 1_555 1_555
C1_14 H1_14 1_555 1_555
C7_14 C2_14 1_555 1_555
C8_13 H7_13 1_555 1_555
N1_14 C1_14 1_555 1_555
N6_4 C1_14 1_555 1_555
N5_8 C7_14 1_555 1_555
Co4_2 N5_8 1_555 1_555
C2_14 N1_14 1_555 1_555
C7_14 N6_4 1_555 1_555
C8_13 N5_8 1_555 1_555
Co4 N1_15 1_555 1_555
C1_15 H1_15 1_555 1_555
C2_15 C3_13 1_555 1_555
C3_13 N2_13 1_555 1_555
C4_13 C5_13 1_555 1_555
C5_13 H2_13 1_555 1_555
H3_13 C5_13 1_555 1_555
C6_13 C5_13 1_555 1_555
H6_13 C6_13 1_555 1_555
C7_15 C2_15 1_555 1_555
N1_15 C1_15 1_555 1_555
N2_13 H8_13 1_555 1_555
H9_13 N2_13 1_555 1_555
N6_6 C1_15 1_555 1_555
O1_13 Co4 1_555 1_555
O3_3 C4_13 1_555 1_555
C2_15 N1_15 1_555 1_555
C4_13 O1_13 1_555 1_555
C7_15 N6_6 1_555 1_555
Co4_2 N1_16 1_555 1_555
C1_16 H1_16 1_555 1_555
C2_16 C3_14 1_555 1_555
C3_14 N2_14 1_555 1_555
C4_14 C5_14 1_555 1_555
C5_14 H2_14 1_555 1_555
H3_14 C5_14 1_555 1_555
C6_14 C5_14 1_555 1_555
H4_14 C6_14 1_555 1_555
H5_14 C6_14 1_555 1_555
H6_14 C6_14 1_555 1_555
C7_16 C2_16 1_555 1_555
C8_14 H7_14 1_555 1_555
N1_16 C1_16 1_555 1_555
N2_14 H8_14 1_555 1_555
H9_14 N2_14 1_555 1_555
N3_12 C3_14 1_555 1_555
N6_5 C1_16 1_555 1_555
N7_6 C7_16 1_555 1_555
O1_14 Co4_2 1_555 1_555
O3_4 C4_14 1_555 1_555
C2_16 N1_16 1_555 1_555
C4_14 O1_14 1_555 1_555
C7_16 N6_5 1_555 1_555
C8_14 N3_12 1_555 1_555
C8_14 N7_6 1_555 1_555
C4_15 C5_15 1_555 1_555
C5_15 H2_15 1_555 1_555
H3_15 C5_15 1_555 1_555
C6_15 C5_15 1_555 1_555
H4_15 C6_15 1_555 1_555
H5_15 C6_15 1_555 1_555
H6_15 C6_15 1_555 1_555
O3_8 C4_15 1_555 1_555
C4_15 O1_15 1_555 1_555
C4_16 C5_16 1_555 1_555
C5_16 H2_16 1_555 1_555
H3_16 C5_16 1_555 1_555
C6_16 C5_16 1_555 1_555
H4_16 C6_16 1_555 1_555
H5_16 C6_16 1_555 1_555
H6_16 C6_16 1_555 1_555
O2_8 C4_16 1_555 1_555
C4_16 O1_16 1_555 1_555
C3_15 N2_15 1_555 1_555
N2_15 H8_15 1_555 1_555
H9_15 N2_15 1_555 1_555
N3_13 C3_15 1_555 1_555
C8_15 H7_15 1_555 1_555
C8_15 N3_14 1_555 1_555
C8_15 N7_7 1_555 1_555
C3_16 N2_16 1_555 1_555
N2_16 H8_16 1_555 1_555
H9_16 N2_16 1_555 1_555
N3_15 C3_16 1_555 1_555
C8_16 H7_16 1_555 1_555
C8_16 N3_16 1_555 1_555
C8_16 N7_8 1_555 1_555

#END
