
###############################################################################
#
# This file contains modified crystal structure data generated from the
# MOF subset of the Cambridge Structural Database (CSD) v543 
# hosted by the Cambridge Crystallographic Data Centre (CCDC).
#
# This work is licensed under the Creative Commons
# Attribution-NonCommercial-ShareAlike 4.0 International License.
# To view a copy of this license, visit
# http://creativecommons.org/licenses/by-nc-sa/4.0/
# or send a letter to
# Creative Commons, PO Box 1866, Mountain View, CA 94042, USA.
#
# CIF created using the CSD Python API on 29 September 2022
# The structure has been converted into the P1 space group
# The structure has a 3D framework
# The original CSD entry BIBBUL is in the orthorhombic crystal system
# The original CSD entry BIBBUL is in a Sohncke space group
# The framework has been calculated to contain at least 10.0% void space
# The void calculation uses a probe of radius 1.32A, grid spacing 0.4
#
###############################################################################

data_BIBBUL
_chemical_formula_moiety         '(C96 H96 N24 O16 Zn4)n'
_symmetry_cell_setting           triclinic
_symmetry_space_group_name_H-M   'P 1'
_symmetry_Int_Tables_number      1
_space_group_name_Hall           'P 1'
loop_
_symmetry_equiv_pos_site_id
_symmetry_equiv_pos_as_xyz
1 x,y,z
_cell_length_a                   8.7076(14)
_cell_length_b                   15.686(3)
_cell_length_c                   19.368(3)
_cell_angle_alpha                90
_cell_angle_beta                 90
_cell_angle_gamma                90
_cell_volume                     2645.43
loop_
_atom_site_label
_atom_site_type_symbol
_atom_site_fract_x
_atom_site_fract_y
_atom_site_fract_z
H2 H 0.0584 0.7616 0.0635
O1 O 0.7073(7) 0.0341(4) 0.1142(3)
N7 N 0.4358(6) 0.0698(3) 0.2578(3)
N4 N 0.3026(6) 0.1840(4) 0.2316(4)
H15 H 0.0219 0.1504 0.2762
C19 C 0.0402(10) 0.2168(7) 0.1884(6)
H17 H 0.0339 0.1665 0.1593
C20 C 0.2055(8) 0.2444(5) 0.1919(5)
H18 H 0.2457 0.2493 0.1453
H19 H 0.2111 0.3002 0.2132
C21 C 0.3465(8) 0.1935(5) 0.2987(4)
H20 H 0.3243 0.2393 0.3275
C22 C 0.4294(9) 0.1226(5) 0.3151(4)
H21 H 0.4743 0.1115 0.3577
C23 C 0.3600(8) 0.1096(5) 0.2061(4)
C24 C 0.3350(10) 0.0779(6) 0.1366(4)
H22 H 0.4151 0.0385 0.1247
H23 H 0.3360 0.1248 0.1047
H24 H 0.2375 0.0495 0.1343
O3 O 0.8829(6) 0.0167(4) 0.9055(3)
O4 O 0.7503(5) 0.0201(3) 0.8089(3)
C9 C 0.4763(8) 0.0224(5) 0.8855(5)
H4 H 0.4753 0.0540 0.8449
C10 C 0.3431(10) 0.0088(6) 0.9213(5)
H5 H 0.2509 0.0311 0.9051
C12 C 0.7623(9) 0.0094(5) 0.8741(4)
Zn2 Zn 0.94295(8) 0.03777(5) 0.75761(4)
N6 N 0.6873(7) 0.1585(4) 0.4548(3)
O2 O 0.8554(6) 0.0831(3) 0.6712(3)
C1 C 0.7976(8) 0.0443(5) 0.6207(4)
C2 C 0.7188(8) 0.1023(5) 0.5690(4)
C3 C 0.5996(8) 0.1527(5) 0.5923(4)
H1 H 0.5715 0.1509 0.6386
C4 C 0.5229(9) 0.2048(5) 0.5483(4)
H2_2 H 0.4416 0.2384 0.5635
C5 C 0.5705(10) 0.2063(5) 0.4789(4)
H3 H 0.5189 0.2419 0.4483
C6 C 0.7585(7) 0.1060(4) 0.4992(4)
C7 C 0.8929(8) 0.0584(5) 0.4716(3)
C8 C 0.8861(8) 0.0115(5) 0.4107(4)
Zn1 Zn 0.55705(8) 0.96223(5) 0.25761(4)
N1 N 0.4313(7) 0.8611(3) 0.2869(3)
N2 N 0.2973(6) 0.7431(4) 0.2791(3)
N5 N 0.4747(7) 0.9290(4) 0.0063(3)
O2_2 O 0.6446(6) 0.9169(3) 0.1712(3)
C1_2 C 0.7024(8) 0.9557(5) 0.1207(4)
C2_2 C 0.7812(8) 0.8977(5) 0.0690(4)
C3_2 C 0.9004(8) 0.8473(5) 0.0923(4)
H1_2 H 0.9285 0.8491 0.1386
C4_2 C 0.9771(9) 0.7952(5) 0.0483(4)
H6 H 0.2545 0.9537 0.0047
C13 C 0.4337(8) 0.8206(5) 0.3490(4)
H7 H 0.4833 0.8403 0.3885
C14 C 0.3538(9) 0.7482(5) 0.3445(4)
H8 H 0.3393 0.7085 0.3795
C15 C 0.3458(7) 0.8128(4) 0.2440(4)
C16 C 0.3089(10) 0.8320(6) 0.1727(4)
H9 H 0.2789 0.7806 0.1495
H10 H 0.3973 0.8559 0.1503
H11 H 0.2259 0.8722 0.1712
C17 C 0.2030(7) 0.6735(5) 0.2506(6)
H12 H 0.2135 0.6236 0.2798
H13 H 0.2410 0.6588 0.2050
C18 C 0.0328(9) 0.6973(7) 0.2453(6)
H14 H 0.0229 0.7464 0.2152
H16 H 0.0184 0.7615 0.3340
O5 O 0.7497(5) 0.9799(3) 0.3089(3)
O1_2 O 0.7927(7) 0.9659(4) 0.6142(3)
O3_2 O 0.6171(6) 0.9833(4) 0.4055(3)
C12_2 C 0.7377(9) 0.9906(5) 0.3741(4)
N6_2 N 0.8127(7) 0.8415(4) 0.9548(3)
C5_2 C 0.9295(10) 0.7937(5) 0.9789(4)
H3_2 H 0.9811 0.7581 0.9483
C6_2 C 0.7415(7) 0.8940(4) 0.9992(4)
C7_2 C 0.6071(8) 0.9416(5) 0.9716(3)
C8_2 C 0.6139(8) 0.9885(5) 0.9107(4)
C11 C 0.3460(8) 0.9624(6) 0.9809(4)
N3 N 0.5642(6) 0.5698(3) 0.2422(3)
N4_2 N 0.6974(6) 0.6840(4) 0.2684(4)
H15_2 H 0.9781 0.6504 0.2238
C19_2 C 0.9598(10) 0.7168(7) 0.3116(6)
H17_2 H 0.9661 0.6665 0.3407
C20_2 C 0.7945(8) 0.7444(5) 0.3081(5)
H18_2 H 0.7543 0.7493 0.3547
H19_2 H 0.7889 0.8002 0.2868
C21_2 C 0.6535(8) 0.6935(5) 0.2013(4)
H20_2 H 0.6757 0.7393 0.1725
C22_2 C 0.5706(9) 0.6226(5) 0.1849(4)
H21_2 H 0.5257 0.6115 0.1423
C23_2 C 0.6400(8) 0.6096(5) 0.2939(4)
C24_2 C 0.6650(10) 0.5779(6) 0.3634(4)
H22_2 H 0.5849 0.5385 0.3753
H23_2 H 0.6640 0.6248 0.3953
H24_2 H 0.7625 0.5495 0.3657
Zn3 Zn 0.44295(8) 0.46223(5) 0.24239(4)
Zn3_2 Zn 0.05705(8) 0.53777(5) 0.74239(4)
N1_2 N 0.5687(7) 0.3611(3) 0.2131(3)
N2_2 N 0.7027(6) 0.2431(4) 0.2209(3)
N5_2 N 0.5253(7) 0.4290(4) 0.4937(3)
N6_3 N 0.1873(7) 0.3415(4) 0.5452(3)
O1_3 O 0.2927(7) 0.5341(4) 0.3858(3)
O2_3 O 0.3554(6) 0.4169(3) 0.3288(3)
O3_3 O 0.1171(6) 0.5167(4) 0.5945(3)
O4_2 O 0.2497(5) 0.5201(3) 0.6911(3)
C1_3 C 0.2976(8) 0.4557(5) 0.3793(4)
C2_3 C 0.2188(8) 0.3977(5) 0.4310(4)
C3_3 C 0.0996(8) 0.3473(5) 0.4077(4)
H1_3 H 0.0715 0.3491 0.3614
C4_3 C 0.0229(9) 0.2952(5) 0.4517(4)
C5_3 C 0.0705(10) 0.2937(5) 0.5211(4)
H3_3 H 0.0189 0.2581 0.5517
C6_3 C 0.2585(7) 0.3940(4) 0.5008(4)
C7_3 C 0.3929(8) 0.4416(5) 0.5284(3)
C8_3 C 0.3861(8) 0.4885(5) 0.5893(4)
C9_2 C 0.5237(8) 0.5224(5) 0.6145(5)
H4_2 H 0.5247 0.5540 0.6551
C10_2 C 0.6569(10) 0.5088(6) 0.5787(5)
H5_2 H 0.7491 0.5311 0.5949
C11_2 C 0.6540(8) 0.4624(6) 0.5191(4)
H6_2 H 0.7455 0.4537 0.4953
C12_3 C 0.2377(9) 0.5094(5) 0.6259(4)
C13_2 C 0.5663(8) 0.3206(5) 0.1510(4)
H7_2 H 0.5167 0.3403 0.1115
C14_2 C 0.6462(9) 0.2482(5) 0.1555(4)
H8_2 H 0.6607 0.2085 0.1205
C15_2 C 0.6542(7) 0.3128(4) 0.2560(4)
C16_2 C 0.6911(10) 0.3320(6) 0.3273(4)
H9_2 H 0.7211 0.2806 0.3505
H10_2 H 0.6027 0.3559 0.3497
H11_2 H 0.7741 0.3722 0.3288
C17_2 C 0.7970(7) 0.1735(5) 0.2494(6)
H12_2 H 0.7865 0.1236 0.2202
H13_2 H 0.7590 0.1588 0.2950
C18_2 C 0.9672(9) 0.1973(7) 0.2547(6)
H14_2 H 0.9771 0.2464 0.2848
H16_2 H 0.9816 0.2615 0.1660
O5_2 O 0.2503(5) 0.4799(3) 0.1911(3)
N6_4 N 0.3127(7) 0.6585(4) 0.0452(3)
O3_4 O 0.3829(6) 0.4833(4) 0.0945(3)
C5_4 C 0.4295(10) 0.7063(5) 0.0211(4)
H3_4 H 0.4811 0.7419 0.0517
C6_4 C 0.2415(7) 0.6060(4) 0.0008(4)
C7_4 C 0.1071(8) 0.5584(5) 0.0284(3)
C8_4 C 0.1139(8) 0.5115(5) 0.0893(4)
C12_4 C 0.2623(9) 0.4906(5) 0.1259(4)
O1_4 O 0.2073(7) 0.4659(4) 0.8858(3)
O2_4 O 0.1446(6) 0.5831(3) 0.8288(3)
C1_4 C 0.2024(8) 0.5443(5) 0.8793(4)
C2_4 C 0.2812(8) 0.6023(5) 0.9310(4)
C3_4 C 0.4004(8) 0.6527(5) 0.9077(4)
H1_4 H 0.4285 0.6509 0.8614
C4_4 C 0.4771(9) 0.7048(5) 0.9517(4)
H2_3 H 0.5584 0.7384 0.9365
N1_3 N 0.0687(7) 0.1389(3) 0.7869(3)
N2_3 N 0.2027(6) 0.2569(4) 0.7791(3)
N3_2 N 0.9358(6) 0.4302(3) 0.7422(3)
N4_3 N 0.8026(6) 0.3160(4) 0.7684(4)
N5_3 N 0.0253(7) 0.0710(4) 0.5063(3)
C11_3 C 0.1540(8) 0.0376(6) 0.4809(4)
H6_3 H 0.2455 0.0463 0.5047
C13_3 C 0.0663(8) 0.1794(5) 0.8490(4)
H7_3 H 0.0167 0.1597 0.8885
C14_3 C 0.1462(9) 0.2518(5) 0.8445(4)
H8_3 H 0.1607 0.2915 0.8795
C15_3 C 0.1542(7) 0.1872(4) 0.7440(4)
C16_3 C 0.1911(10) 0.1680(6) 0.6727(4)
H9_3 H 0.2211 0.2194 0.6495
H10_3 H 0.1027 0.1441 0.6503
H11_3 H 0.2741 0.1278 0.6712
C17_3 C 0.2970(7) 0.3265(5) 0.7506(6)
H12_3 H 0.2865 0.3764 0.7798
H13_3 H 0.2590 0.3412 0.7050
C18_3 C 0.4672(9) 0.3027(7) 0.7453(6)
H14_3 H 0.4771 0.2536 0.7152
H15_3 H 0.5219 0.3496 0.7238
C19_3 C 0.5402(10) 0.2832(7) 0.8116(6)
H16_3 H 0.4816 0.2385 0.8340
H17_3 H 0.5339 0.3335 0.8407
C20_3 C 0.7055(8) 0.2556(5) 0.8081(5)
H18_3 H 0.7457 0.2507 0.8547
H19_3 H 0.7111 0.1998 0.7868
C21_3 C 0.8465(8) 0.3065(5) 0.7013(4)
H20_3 H 0.8243 0.2607 0.6725
C22_3 C 0.9294(9) 0.3774(5) 0.6849(4)
H21_3 H 0.9743 0.3885 0.6423
C23_3 C 0.8600(8) 0.3904(5) 0.7939(4)
C24_3 C 0.8350(10) 0.4221(6) 0.8634(4)
H22_3 H 0.9151 0.4615 0.8753
H23_3 H 0.8360 0.3752 0.8953
H24_3 H 0.7375 0.4505 0.8657
C9_3 C 0.0237(8) 0.9776(5) 0.3855(5)
H4_3 H 0.0247 0.9460 0.3449
C10_3 C 0.1569(10) 0.9912(6) 0.4213(5)
H5_3 H 0.2491 0.9689 0.4051
N7_2 N 0.0642(6) 0.9302(3) 0.7578(3)
N1_4 N 0.9313(7) 0.6389(3) 0.7131(3)
N2_4 N 0.7973(6) 0.7569(4) 0.7209(3)
N4_4 N 0.1974(6) 0.8160(4) 0.7316(4)
N5_4 N 0.9747(7) 0.5710(4) 0.9937(3)
H6_4 H 0.7545 0.5463 0.9953
C13_4 C 0.9337(8) 0.6794(5) 0.6510(4)
H7_4 H 0.9833 0.6597 0.6115
C14_4 C 0.8538(9) 0.7518(5) 0.6555(4)
H8_4 H 0.8393 0.7915 0.6205
C15_4 C 0.8458(7) 0.6872(4) 0.7560(4)
C16_4 C 0.8089(10) 0.6680(6) 0.8273(4)
H9_4 H 0.7789 0.7194 0.8505
H10_4 H 0.8973 0.6441 0.8497
H11_4 H 0.7259 0.6278 0.8288
C17_4 C 0.7030(7) 0.8265(5) 0.7494(6)
H12_4 H 0.7135 0.8764 0.7202
H13_4 H 0.7410 0.8412 0.7950
C18_4 C 0.5328(9) 0.8027(7) 0.7547(6)
H14_4 H 0.5229 0.7536 0.7848
H15_4 H 0.4781 0.8496 0.7762
C19_4 C 0.4598(10) 0.7832(7) 0.6884(6)
H16_4 H 0.5184 0.7385 0.6660
H17_4 H 0.4661 0.8335 0.6593
C20_4 C 0.2945(8) 0.7556(5) 0.6919(5)
H18_4 H 0.2543 0.7507 0.6453
H19_4 H 0.2889 0.6998 0.7132
C21_4 C 0.1535(8) 0.8065(5) 0.7987(4)
H20_4 H 0.1757 0.7607 0.8275
C22_4 C 0.0706(9) 0.8774(5) 0.8151(4)
H21_4 H 0.0257 0.8885 0.8577
C23_4 C 0.1400(8) 0.8904(5) 0.7061(4)
C24_4 C 0.1650(10) 0.9221(6) 0.6366(4)
H22_4 H 0.0849 0.9615 0.6247
H23_4 H 0.1640 0.8752 0.6047
H24_4 H 0.2625 0.9505 0.6343
H2_4 H 0.9416 0.2616 0.4365
C9_4 C 0.9763(8) 0.4776(5) 0.1145(5)
H4_4 H 0.9753 0.4460 0.1551
C10_4 C 0.8431(10) 0.4912(6) 0.0787(5)
H5_4 H 0.7509 0.4689 0.0949
C11_4 C 0.8460(8) 0.5376(6) 0.0191(4)
loop_
_geom_bond_atom_site_label_1
_geom_bond_atom_site_label_2
_geom_bond_site_symmetry_1
_geom_bond_site_symmetry_2
N7 C22 1_555 1_555
N4 C20 1_555 1_555
H17 C19 1_555 1_555
C20 C19 1_555 1_555
H18 C20 1_555 1_555
H19 C20 1_555 1_555
C21 N4 1_555 1_555
H20 C21 1_555 1_555
C22 C21 1_555 1_555
H21 C22 1_555 1_555
C23 N7 1_555 1_555
C24 C23 1_555 1_555
H22 C24 1_555 1_555
H23 C24 1_555 1_555
H24 C24 1_555 1_555
N4 C23 1_555 1_555
O3 C12 1_555 1_555
O4 C12 1_555 1_555
H4 C9 1_555 1_555
C10 C9 1_555 1_555
H5 C10 1_555 1_555
Zn2 O4 1_555 1_555
N6 C5 1_555 1_555
O2 Zn2 1_555 1_555
C1 O2 1_555 1_555
C2 C1 1_555 1_555
C3 C2 1_555 1_555
H1 C3 1_555 1_555
C4 C3 1_555 1_555
H2_2 C4 1_555 1_555
C5 C4 1_555 1_555
H3 C5 1_555 1_555
C6 N6 1_555 1_555
C7 C6 1_555 1_555
C8 C7 1_555 1_555
C2 C6 1_555 1_555
Zn1 N1 1_555 1_555
N1 C13 1_555 1_555
N2 C14 1_555 1_555
O2_2 Zn1 1_555 1_555
C1_2 O2_2 1_555 1_555
C2_2 C1_2 1_555 1_555
C3_2 C2_2 1_555 1_555
H1_2 C3_2 1_555 1_555
C4_2 C3_2 1_555 1_555
C13 H7 1_555 1_555
C14 C13 1_555 1_555
H8 C14 1_555 1_555
C15 N1 1_555 1_555
C16 C15 1_555 1_555
H9 C16 1_555 1_555
H10 C16 1_555 1_555
H11 C16 1_555 1_555
C17 N2 1_555 1_555
H12 C17 1_555 1_555
H13 C17 1_555 1_555
C18 C17 1_555 1_555
H14 C18 1_555 1_555
O5 Zn1 1_555 1_555
N2 C15 1_555 1_555
O3_2 C12_2 1_555 1_555
O5 C12_2 1_555 1_555
N6_2 C5_2 1_555 1_555
H3_2 C5_2 1_555 1_555
C6_2 N6_2 1_555 1_555
C7_2 C6_2 1_555 1_555
C8_2 C7_2 1_555 1_555
N3 C22_2 1_555 1_555
N4_2 C20_2 1_555 1_555
H17_2 C19_2 1_555 1_555
C20_2 C19_2 1_555 1_555
H18_2 C20_2 1_555 1_555
H19_2 C20_2 1_555 1_555
C21_2 N4_2 1_555 1_555
H20_2 C21_2 1_555 1_555
C22_2 C21_2 1_555 1_555
H21_2 C22_2 1_555 1_555
C23_2 N3 1_555 1_555
C24_2 C23_2 1_555 1_555
H22_2 C24_2 1_555 1_555
H23_2 C24_2 1_555 1_555
H24_2 C24_2 1_555 1_555
Zn3 N3 1_555 1_555
N4_2 C23_2 1_555 1_555
Zn3 N1_2 1_555 1_555
N1_2 C13_2 1_555 1_555
N2_2 C14_2 1_555 1_555
N5_2 C7_3 1_555 1_555
N6_3 C5_3 1_555 1_555
O1_3 C1_3 1_555 1_555
O2_3 Zn3 1_555 1_555
O3_3 C12_3 1_555 1_555
O4_2 C12_3 1_555 1_555
C1_3 O2_3 1_555 1_555
C2_3 C1_3 1_555 1_555
C3_3 C2_3 1_555 1_555
H1_3 C3_3 1_555 1_555
C4_3 C3_3 1_555 1_555
C5_3 C4_3 1_555 1_555
H3_3 C5_3 1_555 1_555
C6_3 N6_3 1_555 1_555
C7_3 C6_3 1_555 1_555
C8_3 C7_3 1_555 1_555
C9_2 C8_3 1_555 1_555
H4_2 C9_2 1_555 1_555
C10_2 C9_2 1_555 1_555
H5_2 C10_2 1_555 1_555
C11_2 N5_2 1_555 1_555
H6_2 C11_2 1_555 1_555
C12_3 C8_3 1_555 1_555
C13_2 H7_2 1_555 1_555
C14_2 C13_2 1_555 1_555
H8_2 C14_2 1_555 1_555
C15_2 N1_2 1_555 1_555
C16_2 C15_2 1_555 1_555
H9_2 C16_2 1_555 1_555
H10_2 C16_2 1_555 1_555
H11_2 C16_2 1_555 1_555
C17_2 N2_2 1_555 1_555
H12_2 C17_2 1_555 1_555
H13_2 C17_2 1_555 1_555
C18_2 C17_2 1_555 1_555
H14_2 C18_2 1_555 1_555
Zn3_2 O4_2 1_555 1_555
O5_2 Zn3 1_555 1_555
N2_2 C15_2 1_555 1_555
C2_3 C6_3 1_555 1_555
C10_2 C11_2 1_555 1_555
N6_4 C5_4 1_555 1_555
O3_4 C12_4 1_555 1_555
O5_2 C12_4 1_555 1_555
H3_4 C5_4 1_555 1_555
C6_4 N6_4 1_555 1_555
C7_4 C6_4 1_555 1_555
C8_4 C7_4 1_555 1_555
C12_4 C8_4 1_555 1_555
O1_4 C1_4 1_555 1_555
O2_4 Zn3_2 1_555 1_555
C1_4 O2_4 1_555 1_555
C2_4 C1_4 1_555 1_555
C3_4 C2_4 1_555 1_555
H1_4 C3_4 1_555 1_555
C4_4 C3_4 1_555 1_555
H2_3 C4_4 1_555 1_555
N1_3 C13_3 1_555 1_555
N2_3 C14_3 1_555 1_555
N3_2 C22_3 1_555 1_555
N4_3 C20_3 1_555 1_555
C11_3 N5_3 1_555 1_555
H6_3 C11_3 1_555 1_555
C13_3 H7_3 1_555 1_555
C14_3 C13_3 1_555 1_555
H8_3 C14_3 1_555 1_555
C15_3 N1_3 1_555 1_555
C16_3 C15_3 1_555 1_555
H9_3 C16_3 1_555 1_555
H10_3 C16_3 1_555 1_555
H11_3 C16_3 1_555 1_555
C17_3 N2_3 1_555 1_555
H12_3 C17_3 1_555 1_555
H13_3 C17_3 1_555 1_555
C18_3 C17_3 1_555 1_555
H14_3 C18_3 1_555 1_555
H15_3 C18_3 1_555 1_555
C19_3 C18_3 1_555 1_555
H16_3 C19_3 1_555 1_555
H17_3 C19_3 1_555 1_555
C20_3 C19_3 1_555 1_555
H18_3 C20_3 1_555 1_555
H19_3 C20_3 1_555 1_555
C21_3 N4_3 1_555 1_555
H20_3 C21_3 1_555 1_555
C22_3 C21_3 1_555 1_555
H21_3 C22_3 1_555 1_555
C23_3 N3_2 1_555 1_555
C24_3 C23_3 1_555 1_555
H22_3 C24_3 1_555 1_555
H23_3 C24_3 1_555 1_555
H24_3 C24_3 1_555 1_555
N2_3 C15_3 1_555 1_555
N4_3 C23_3 1_555 1_555
H4_3 C9_3 1_555 1_555
C10_3 C9_3 1_555 1_555
H5_3 C10_3 1_555 1_555
N1_4 C13_4 1_555 1_555
N2_4 C14_4 1_555 1_555
N7_2 C22_4 1_555 1_555
N4_4 C20_4 1_555 1_555
C13_4 H7_4 1_555 1_555
C14_4 C13_4 1_555 1_555
H8_4 C14_4 1_555 1_555
C15_4 N1_4 1_555 1_555
C16_4 C15_4 1_555 1_555
H9_4 C16_4 1_555 1_555
H10_4 C16_4 1_555 1_555
H11_4 C16_4 1_555 1_555
C17_4 N2_4 1_555 1_555
H12_4 C17_4 1_555 1_555
H13_4 C17_4 1_555 1_555
C18_4 C17_4 1_555 1_555
H14_4 C18_4 1_555 1_555
H15_4 C18_4 1_555 1_555
C19_4 C18_4 1_555 1_555
H16_4 C19_4 1_555 1_555
H17_4 C19_4 1_555 1_555
C20_4 C19_4 1_555 1_555
H18_4 C20_4 1_555 1_555
H19_4 C20_4 1_555 1_555
C21_4 N4_4 1_555 1_555
H20_4 C21_4 1_555 1_555
C22_4 C21_4 1_555 1_555
H21_4 C22_4 1_555 1_555
C23_4 N7_2 1_555 1_555
C24_4 C23_4 1_555 1_555
H22_4 C24_4 1_555 1_555
H23_4 C24_4 1_555 1_555
H24_4 C24_4 1_555 1_555
N2_4 C15_4 1_555 1_555
N4_4 C23_4 1_555 1_555
H4_4 C9_4 1_555 1_555
C10_4 C9_4 1_555 1_555
H5_4 C10_4 1_555 1_555
C10_4 C11_4 1_555 1_555

#END
