
###############################################################################
#
# This file contains modified crystal structure data generated from the
# MOF subset of the Cambridge Structural Database (CSD) v543 
# hosted by the Cambridge Crystallographic Data Centre (CCDC).
#
# This work is licensed under the Creative Commons
# Attribution-NonCommercial-ShareAlike 4.0 International License.
# To view a copy of this license, visit
# http://creativecommons.org/licenses/by-nc-sa/4.0/
# or send a letter to
# Creative Commons, PO Box 1866, Mountain View, CA 94042, USA.
#
# CIF created using the CSD Python API on 29 September 2022
# The structure has been converted into the P1 space group
# The structure has a 3D framework
# The original CSD entry BIBXUH is in the cubic crystal system
# The framework has been calculated to contain at least 10.0% void space
# The void calculation uses a probe of radius 1.32A, grid spacing 0.4
#
###############################################################################

data_BIBXUH
_chemical_formula_moiety         '(C336 H216 N96 Ni24 O24)n'
_symmetry_cell_setting           triclinic
_symmetry_space_group_name_H-M   'P 1'
_symmetry_Int_Tables_number      1
_space_group_name_Hall           'P 1'
loop_
_symmetry_equiv_pos_site_id
_symmetry_equiv_pos_as_xyz
1 x,y,z
_cell_length_a                   25.3802(16)
_cell_length_b                   25.3802(16)
_cell_length_c                   25.3802(16)
_cell_angle_alpha                90
_cell_angle_beta                 90
_cell_angle_gamma                90
_cell_volume                     16348.8
loop_
_atom_site_label
_atom_site_type_symbol
_atom_site_fract_x
_atom_site_fract_y
_atom_site_fract_z
Ni1 Ni 0.057090(91) 0.057090(91) 0.057090(91)
O1 O 0.086926 0.000 0.000
H1 H 0.124357 0.000 0.000
C1 C 0.288726 0.288726 0.000
C3 C 0.329124 0.329124 0.000
C5 C 0.211274 0.211274 0.000
C7 C 0.170876 0.170876 0.000
C9 C 0.230637 0.230637 0.047430
H6 H 0.217403 0.217403 0.079846
C10 C 0.148604 0.148604 0.043351
H7 H 0.156783 0.156783 0.078950
N3 N 0.112569 0.112569 0.026793
C11 C 0.269363 0.269363 0.047430
H8 H 0.282597 0.282597 0.079846
C12 C 0.351396 0.351396 0.043351
H9 H 0.343217 0.343217 0.078950
N4 N 0.387431 0.387431 0.026793
Ni2 Ni 0.442910(91) 0.442910(91) 0.057090(91)
C13 C 0.211274 0.500 0.288726
C14 C 0.230637 0.547430 0.269363
H10 H 0.217403 0.579846 0.282597
C15 C 0.170876 0.500 0.329124
C16 C 0.148604 0.543351 0.351396
H11 H 0.156783 0.578950 0.343217
N5 N 0.112569 0.526793 0.387431
C17 C 0.288726 0.500 0.211274
C18 C 0.269363 0.547430 0.230637
H12 H 0.282597 0.579846 0.217403
C19 C 0.329124 0.500 0.170876
C20 C 0.351396 0.543351 0.148604
H13 H 0.343217 0.578950 0.156783
N6 N 0.387431 0.526793 0.112569
C21 C 0.269363 0.452570 0.230637
H14 H 0.282597 0.420154 0.217403
C22 C 0.351396 0.456649 0.148604
H15 H 0.343217 0.421050 0.156783
N7 N 0.387431 0.473207 0.112569
C23 C 0.230637 0.452570 0.269363
H16 H 0.217403 0.420154 0.282597
C24 C 0.148604 0.456649 0.351396
H17 H 0.156783 0.421050 0.343217
N8 N 0.112569 0.473207 0.387431
Ni3 Ni 0.442910(91) 0.057090(91) 0.442910(91)
C25 C 0.211274 0.000 0.211274
C27 C 0.170876 0.000 0.170876
C29 C 0.288726 0.000 0.288726
C31 C 0.329124 0.000 0.329124
C33 C 0.269363 0.047430 0.269363
H22 H 0.282597 0.079846 0.282597
C34 C 0.351396 0.043351 0.351396
H23 H 0.343217 0.078950 0.343217
N11 N 0.387431 0.026793 0.387431
C35 C 0.230637 0.047430 0.230637
H24 H 0.217403 0.079846 0.217403
C36 C 0.148604 0.043351 0.148604
H25 H 0.156783 0.078950 0.156783
N12 N 0.112569 0.026793 0.112569
O2 O -0.000 0.086926 0.000
H26 H 0.000 0.124357 0.000
O3 O -0.000 -0.000 0.086926
H27 H 0.000 0.000 0.124357
Ni9 Ni 0.442910(91) 0.557090(91) 0.057090(91)
Ni12 Ni 0.057090(91) 0.442910(91) 0.442910(91)
Ni14 Ni 0.057090(91) 0.557090(91) 0.442910(91)
O5 O 0.413074 0.000 0.500
O6 O 0.413074 0.500 0.000
O7 O 0.500 0.413074 0.000
O8 O 0.500 0.000 0.413074
O9 O 0.500 0.500 0.086926
O10 O 0.500 0.086926 0.500
N13 N 0.026793 0.112569 0.112569
N15 N 0.473207 0.112569 0.387431
N16 N 0.473207 0.387431 0.112569
N17 N 0.387431 0.112569 0.473207
O1_2 O 0.086926 0.000 1.000
H1_2 H 0.124357 0.000 1.000
C1_2 C 0.288726 0.288726 1.000
C2 C 0.269363 0.269363 0.952570
H2 H 0.282597 0.282597 0.920154
C3_2 C 0.329124 0.329124 1.000
C4 C 0.351396 0.351396 0.956649
H3 H 0.343217 0.343217 0.921050
N1 N 0.387431 0.387431 0.973207
C5_2 C 0.211274 0.211274 1.000
C6 C 0.230637 0.230637 0.952570
H4 H 0.217403 0.217403 0.920154
C7_2 C 0.170876 0.170876 1.000
C8 C 0.148604 0.148604 0.956649
H5 H 0.156783 0.156783 0.921050
N2 N 0.112569 0.112569 0.973207
O2_2 O -0.000 0.086926 1.000
H26_2 H 0.000 0.124357 1.000
Ni8 Ni 0.442910(91) 0.442910(91) 0.942910(91)
Ni13 Ni 0.057090(91) 0.057090(91) 0.942910(91)
O6_2 O 0.413074 0.500 1.000
O7_2 O 0.500 0.413074 1.000
O1_3 O 0.086926 1.000 0.000
H1_3 H 0.124357 1.000 0.000
C25_2 C 0.211274 1.000 0.211274
C26 C 0.230637 0.952570 0.230637
H18 H 0.217403 0.920154 0.217403
C27_2 C 0.170876 1.000 0.170876
C28 C 0.148604 0.956649 0.148604
H19 H 0.156783 0.921050 0.156783
N9 N 0.112569 0.973207 0.112569
C29_2 C 0.288726 1.000 0.288726
C30 C 0.269363 0.952570 0.269363
H20 H 0.282597 0.920154 0.282597
C31_2 C 0.329124 1.000 0.329124
C32 C 0.351396 0.956649 0.351396
H21 H 0.343217 0.921050 0.343217
N10 N 0.387431 0.973207 0.387431
O3_2 O -0.000 1.000 0.086926
H27_2 H 0.000 1.000 0.124357
Ni7 Ni 0.442910(91) 0.942910(91) 0.442910(91)
Ni11 Ni 0.057090(91) 0.942910(91) 0.057090(91)
O5_2 O 0.413074 1.000 0.500
O8_2 O 0.500 1.000 0.413074
O1_4 O 0.086926 1.000 1.000
H1_4 H 0.124357 1.000 1.000
Ni10 Ni 0.057090(91) 0.942910(91) 0.942910(91)
Ni4 Ni 0.942910(91) 0.057090(91) 0.057090(91)
O2_3 O 1.000 0.086926 0.000
H26_3 H 1.000 0.124357 0.000
O3_3 O 1.000 -0.000 0.086926
H27_3 H 1.000 0.000 0.124357
O4 O 0.913074 0.000 0.000
N14 N 0.973207 0.112569 0.112569
N18 N 0.887431 0.112569 0.026793
N19 N 0.887431 0.026793 0.112569
O2_4 O 1.000 0.086926 1.000
H26_4 H 1.000 0.124357 1.000
Ni6 Ni 0.942910(91) 0.057090(91) 0.942910(91)
O4_2 O 0.913074 0.000 1.000
O3_4 O 1.000 1.000 0.086926
H27_4 H 1.000 1.000 0.124357
Ni5 Ni 0.942910(91) 0.942910(91) 0.057090(91)
O4_3 O 0.913074 1.000 0.000
O4_4 O 0.913074 1.000 1.000
O2_5 O 0.000 0.913074 0.000
H26_5 H 0.000 0.875643 0.000
N14_2 N 0.026793 0.887431 0.112569
N18_2 N 0.112569 0.887431 0.026793
O2_6 O 0.000 0.913074 1.000
H26_6 H 0.000 0.875643 1.000
H1_5 H 0.875643 0.000 0.000
C25_3 C 0.788726 0.000 0.211274
C26_2 C 0.769363 0.047430 0.230637
H18_2 H 0.782597 0.079846 0.217403
C27_3 C 0.829124 -0.000 0.170876
C28_2 C 0.851396 0.043351 0.148604
H19_2 H 0.843217 0.078950 0.156783
C29_3 C 0.711274 0.000 0.288726
C30_2 C 0.730637 0.047430 0.269363
H20_2 H 0.717403 0.079846 0.282597
C31_3 C 0.670876 0.000 0.329124
C32_2 C 0.648604 0.043351 0.351396
H21_2 H 0.656783 0.078950 0.343217
N10_2 N 0.612569 0.026793 0.387431
Ni7_2 Ni 0.557090(91) 0.057090(91) 0.442910(91)
O5_3 O 0.586926 0.000 0.500
H1_6 H 0.875643 0.000 1.000
H1_7 H 0.875643 1.000 0.000
C1_3 C 0.711274 0.711274 0.000
C3_3 C 0.670876 0.670876 0.000
C5_3 C 0.788726 0.788726 0.000
C7_3 C 0.829124 0.829124 0.000
C9_2 C 0.769363 0.769363 0.047430
H6_2 H 0.782597 0.782597 0.079846
C10_2 C 0.851396 0.851396 0.043351
H7_2 H 0.843217 0.843217 0.078950
N3_2 N 0.887431 0.887431 0.026793
C11_2 C 0.730637 0.730637 0.047430
H8_2 H 0.717403 0.717403 0.079846
C12_2 C 0.648604 0.648604 0.043351
H9_2 H 0.656783 0.656783 0.078950
N4_2 N 0.612569 0.612569 0.026793
Ni2_2 Ni 0.557090(91) 0.557090(91) 0.057090(91)
C13_2 C 0.788726 0.500 0.288726
C14_2 C 0.769363 0.452570 0.269363
H10_2 H 0.782597 0.420154 0.282597
C15_2 C 0.829124 0.500 0.329124
C16_2 C 0.851396 0.456649 0.351396
H11_2 H 0.843217 0.421050 0.343217
N5_2 N 0.887431 0.473207 0.387431
C17_2 C 0.711274 0.500 0.211274
C18_2 C 0.730637 0.452570 0.230637
H12_2 H 0.717403 0.420154 0.217403
C19_2 C 0.670876 0.500 0.170876
C20_2 C 0.648604 0.456649 0.148604
H13_2 H 0.656783 0.421050 0.156783
N6_2 N 0.612569 0.473207 0.112569
C21_2 C 0.730637 0.547430 0.230637
H14_2 H 0.717403 0.579846 0.217403
C22_2 C 0.648604 0.543351 0.148604
H15_2 H 0.656783 0.578950 0.156783
N7_2 N 0.612569 0.526793 0.112569
C23_2 C 0.769363 0.547430 0.269363
H16_2 H 0.782597 0.579846 0.282597
C24_2 C 0.851396 0.543351 0.351396
H17_2 H 0.843217 0.578950 0.343217
N8_2 N 0.887431 0.526793 0.387431
Ni3_2 Ni 0.557090(91) 0.942910(91) 0.442910(91)
C25_4 C 0.788726 1.000 0.211274
C27_4 C 0.829124 1.000 0.170876
C29_4 C 0.711274 1.000 0.288726
C31_4 C 0.670876 1.000 0.329124
C33_2 C 0.730637 0.952570 0.269363
H22_2 H 0.717403 0.920154 0.282597
C34_2 C 0.648604 0.956649 0.351396
H23_2 H 0.656783 0.921050 0.343217
N11_2 N 0.612569 0.973207 0.387431
C35_2 C 0.769363 0.952570 0.230637
H24_2 H 0.782597 0.920154 0.217403
C36_2 C 0.851396 0.956649 0.148604
H25_2 H 0.843217 0.921050 0.156783
N12_2 N 0.887431 0.973207 0.112569
O2_7 O 1.000 0.913074 0.000
H26_7 H 1.000 0.875643 0.000
Ni9_2 Ni 0.557090(91) 0.442910(91) 0.057090(91)
Ni12_2 Ni 0.942910(91) 0.557090(91) 0.442910(91)
Ni14_2 Ni 0.942910(91) 0.442910(91) 0.442910(91)
O5_4 O 0.586926 1.000 0.500
O6_3 O 0.586926 0.500 0.000
O7_3 O 0.500 0.586926 0.000
O10_2 O 0.500 0.913074 0.500
N13_2 N 0.973207 0.887431 0.112569
N15_2 N 0.526793 0.887431 0.387431
N16_2 N 0.526793 0.612569 0.112569
N17_2 N 0.612569 0.887431 0.473207
H1_8 H 0.875643 1.000 1.000
C1_4 C 0.711274 0.711274 1.000
C2_2 C 0.730637 0.730637 0.952570
H2_2 H 0.717403 0.717403 0.920154
C3_4 C 0.670876 0.670876 1.000
C4_2 C 0.648604 0.648604 0.956649
H3_2 H 0.656783 0.656783 0.921050
N1_2 N 0.612569 0.612569 0.973207
C5_4 C 0.788726 0.788726 1.000
C6_2 C 0.769363 0.769363 0.952570
H4_2 H 0.782597 0.782597 0.920154
C7_4 C 0.829124 0.829124 1.000
C8_2 C 0.851396 0.851396 0.956649
H5_2 H 0.843217 0.843217 0.921050
N2_2 N 0.887431 0.887431 0.973207
O2_8 O 1.000 0.913074 1.000
H26_8 H 1.000 0.875643 1.000
Ni8_2 Ni 0.557090(91) 0.557090(91) 0.942910(91)
Ni13_2 Ni 0.942910(91) 0.942910(91) 0.942910(91)
O6_4 O 0.586926 0.500 1.000
O7_4 O 0.500 0.586926 1.000
Ni4_2 Ni 0.057090(91) 0.442910(91) 0.557090(91)
O2_9 O 0.000 0.413074 0.500
H26_9 H -0.000 0.375643 0.500
O3_5 O -0.000 0.500 0.586926
H27_5 H 0.000 0.500 0.624357
Ni5_2 Ni 0.057090(91) 0.557090(91) 0.557090(91)
O4_5 O 0.086926 0.500 0.500
N14_3 N 0.026793 0.387431 0.612569
N18_3 N 0.112569 0.387431 0.526793
N19_2 N 0.112569 0.473207 0.612569
Ni1_2 Ni 0.942910(91) 0.442910(91) 0.557090(91)
O1_5 O 0.913074 0.500 0.500
H1_9 H 0.875643 0.500 0.500
C1_5 C 0.711274 0.211274 0.500
C2_3 C 0.730637 0.230637 0.452570
H2_3 H 0.717403 0.217403 0.420154
C3_5 C 0.670876 0.170876 0.500
C4_3 C 0.648604 0.148604 0.456649
H3_3 H 0.656783 0.156783 0.421050
N1_3 N 0.612569 0.112569 0.473207
C5_5 C 0.788726 0.288726 0.500
C6_3 C 0.769363 0.269363 0.452570
H4_3 H 0.782597 0.282597 0.420154
C7_5 C 0.829124 0.329124 0.500
C8_3 C 0.851396 0.351396 0.456649
H5_3 H 0.843217 0.343217 0.421050
N2_3 N 0.887431 0.387431 0.473207
C9_3 C 0.769363 0.269363 0.547430
H6_3 H 0.782597 0.282597 0.579846
C10_3 C 0.851396 0.351396 0.543351
H7_3 H 0.843217 0.343217 0.578950
N3_3 N 0.887431 0.387431 0.526793
C11_3 C 0.730637 0.230637 0.547430
H8_3 H 0.717403 0.217403 0.579846
C12_3 C 0.648604 0.148604 0.543351
H9_3 H 0.656783 0.156783 0.578950
N4_3 N 0.612569 0.112569 0.526793
Ni2_3 Ni 0.557090(91) 0.057090(91) 0.557090(91)
C13_3 C 0.788726 0.000 0.788726
C15_3 C 0.829124 0.000 0.829124
C17_3 C 0.711274 0.000 0.711274
C19_3 C 0.670876 0.000 0.670876
C21_3 C 0.730637 0.047430 0.730637
H14_3 H 0.717403 0.079846 0.717403
C22_3 C 0.648604 0.043351 0.648604
H15_3 H 0.656783 0.078950 0.656783
N7_3 N 0.612569 0.026793 0.612569
C23_3 C 0.769363 0.047430 0.769363
H16_3 H 0.782597 0.079846 0.782597
C24_3 C 0.851396 0.043351 0.851396
H17_3 H 0.843217 0.078950 0.843217
N8_3 N 0.887431 0.026793 0.887431
Ni3_3 Ni 0.557090(91) 0.442910(91) 0.942910(91)
C25_5 C 0.788726 0.500 0.711274
C26_3 C 0.769363 0.547430 0.730637
H18_3 H 0.782597 0.579846 0.717403
C27_5 C 0.829124 0.500 0.670876
C28_3 C 0.851396 0.543351 0.648604
H19_3 H 0.843217 0.578950 0.656783
N9_2 N 0.887431 0.526793 0.612569
C29_5 C 0.711274 0.500 0.788726
C30_3 C 0.730637 0.547430 0.769363
H20_3 H 0.717403 0.579846 0.782597
C31_5 C 0.670876 0.500 0.829124
C32_3 C 0.648604 0.543351 0.851396
H21_3 H 0.656783 0.578950 0.843217
N10_3 N 0.612569 0.526793 0.887431
C33_3 C 0.730637 0.452570 0.769363
H22_3 H 0.717403 0.420154 0.782597
C34_3 C 0.648604 0.456649 0.851396
H23_3 H 0.656783 0.421050 0.843217
N11_3 N 0.612569 0.473207 0.887431
C35_3 C 0.769363 0.452570 0.730637
H24_3 H 0.782597 0.420154 0.717403
C36_3 C 0.851396 0.456649 0.648604
H25_3 H 0.843217 0.421050 0.656783
N12_3 N 0.887431 0.473207 0.612569
O2_10 O 1.000 0.413074 0.500
H26_10 H 1.000 0.375643 0.500
O3_6 O 1.000 0.500 0.586926
H27_6 H 1.000 0.500 0.624357
Ni11_2 Ni 0.942910(91) 0.557090(91) 0.557090(91)
O8_3 O 0.500 0.500 0.913074
O9_2 O 0.500 0.000 0.586926
N13_3 N 0.973207 0.387431 0.612569
N15_3 N 0.526793 0.387431 0.887431
N16_3 N 0.526793 0.112569 0.612569
N17_3 N 0.612569 0.387431 0.973207
C13_4 C 0.788726 1.000 0.788726
C14_3 C 0.769363 0.952570 0.769363
H10_3 H 0.782597 0.920154 0.782597
C15_4 C 0.829124 1.000 0.829124
C16_3 C 0.851396 0.956649 0.851396
H11_3 H 0.843217 0.921050 0.843217
N5_3 N 0.887431 0.973207 0.887431
C17_4 C 0.711274 1.000 0.711274
C18_3 C 0.730637 0.952570 0.730637
H12_3 H 0.717403 0.920154 0.717403
C19_4 C 0.670876 1.000 0.670876
C20_3 C 0.648604 0.956649 0.648604
H13_3 H 0.656783 0.921050 0.656783
N6_3 N 0.612569 0.973207 0.612569
Ni9_3 Ni 0.557090(91) 0.942910(91) 0.557090(91)
O9_3 O 0.500 1.000 0.586926
O2_11 O 0.000 0.000 0.913074
H26_11 H 0.000 0.000 0.875643
O2_12 O 0.000 1.000 0.913074
H26_12 H 0.000 1.000 0.875643
N14_4 N 0.026793 0.887431 0.887431
N18_4 N 0.112569 0.973207 0.887431
N19_3 N 0.112569 0.887431 0.973207
O2_13 O 1.000 0.000 0.913074
H26_13 H 1.000 0.000 0.875643
C13_5 C 0.788726 0.711274 0.500
C14_4 C 0.769363 0.730637 0.452570
H10_4 H 0.782597 0.717403 0.420154
C15_5 C 0.829124 0.670876 0.500
C16_4 C 0.851396 0.648604 0.456649
H11_4 H 0.843217 0.656783 0.421050
N5_4 N 0.887431 0.612569 0.473207
C17_5 C 0.711274 0.788726 0.500
C18_4 C 0.730637 0.769363 0.452570
H12_4 H 0.717403 0.782597 0.420154
C19_5 C 0.670876 0.829124 0.500
C20_4 C 0.648604 0.851396 0.456649
H13_4 H 0.656783 0.843217 0.421050
C21_4 C 0.730637 0.769363 0.547430
H14_4 H 0.717403 0.782597 0.579846
C22_4 C 0.648604 0.851396 0.543351
H15_4 H 0.656783 0.843217 0.578950
N7_4 N 0.612569 0.887431 0.526793
C23_4 C 0.769363 0.730637 0.547430
H16_4 H 0.782597 0.717403 0.579846
C24_4 C 0.851396 0.648604 0.543351
H17_4 H 0.843217 0.656783 0.578950
N8_4 N 0.887431 0.612569 0.526793
O2_14 O 1.000 1.000 0.913074
H26_14 H 1.000 1.000 0.875643
N13_4 N 0.973207 0.887431 0.887431
N15_4 N 0.526793 0.612569 0.887431
N16_4 N 0.526793 0.887431 0.612569
O2_15 O 0.000 0.500 0.413074
H26_15 H -0.000 0.500 0.375643
N14_5 N 0.026793 0.387431 0.387431
N19_4 N 0.112569 0.387431 0.473207
C13_6 C 0.788726 0.211274 0.000
C15_6 C 0.829124 0.170876 0.000
C17_6 C 0.711274 0.288726 0.000
C19_6 C 0.670876 0.329124 0.000
C21_5 C 0.730637 0.269363 0.047430
H14_5 H 0.717403 0.282597 0.079846
C22_5 C 0.648604 0.351396 0.043351
H15_5 H 0.656783 0.343217 0.078950
N7_5 N 0.612569 0.387431 0.026793
C23_5 C 0.769363 0.230637 0.047430
H16_5 H 0.782597 0.217403 0.079846
C24_5 C 0.851396 0.148604 0.043351
H17_5 H 0.843217 0.156783 0.078950
O2_16 O 1.000 0.500 0.413074
H26_16 H 1.000 0.500 0.375643
N13_5 N 0.973207 0.387431 0.387431
N15_5 N 0.526793 0.112569 0.387431
N16_5 N 0.526793 0.387431 0.112569
C13_7 C 0.788726 0.211274 1.000
C14_5 C 0.769363 0.230637 0.952570
H10_5 H 0.782597 0.217403 0.920154
C15_7 C 0.829124 0.170876 1.000
C16_5 C 0.851396 0.148604 0.956649
H11_5 H 0.843217 0.156783 0.921050
N5_5 N 0.887431 0.112569 0.973207
C17_7 C 0.711274 0.288726 1.000
C18_5 C 0.730637 0.269363 0.952570
H12_5 H 0.717403 0.282597 0.920154
C19_7 C 0.670876 0.329124 1.000
C20_5 C 0.648604 0.351396 0.956649
H13_5 H 0.656783 0.343217 0.921050
O3_7 O -0.000 0.586926 0.500
H27_7 H 0.000 0.624357 0.500
N14_6 N 0.026793 0.612569 0.612569
N18_5 N 0.112569 0.526793 0.612569
N19_5 N 0.112569 0.612569 0.526793
O3_8 O 1.000 0.586926 0.500
H27_8 H 1.000 0.624357 0.500
N13_6 N 0.973207 0.612569 0.612569
N14_7 N 0.026793 0.112569 0.887431
N19_6 N 0.112569 0.026793 0.887431
N13_7 N 0.973207 0.112569 0.887431
N14_8 N 0.026793 0.612569 0.387431
N18_6 N 0.112569 0.612569 0.473207
N13_8 N 0.973207 0.612569 0.387431
H1_10 H 0.375643 0.000 0.500
C25_6 C 0.288726 0.000 0.711274
C26_4 C 0.269363 0.047430 0.730637
H18_4 H 0.282597 0.079846 0.717403
C27_6 C 0.329124 -0.000 0.670876
C28_4 C 0.351396 0.043351 0.648604
H19_4 H 0.343217 0.078950 0.656783
N9_3 N 0.387431 0.026793 0.612569
C29_6 C 0.211274 0.000 0.788726
C30_4 C 0.230637 0.047430 0.769363
H20_4 H 0.217403 0.079846 0.782597
C31_6 C 0.170876 0.000 0.829124
C32_4 C 0.148604 0.043351 0.851396
H21_4 H 0.156783 0.078950 0.843217
H27_9 H 0.500 0.000 0.624357
Ni11_3 Ni 0.442910(91) 0.057090(91) 0.557090(91)
Ni1_3 Ni 0.442910(91) 0.942910(91) 0.557090(91)
H1_11 H 0.375643 1.000 0.500
C1_6 C 0.211274 0.711274 0.500
C2_4 C 0.230637 0.730637 0.452570
H2_4 H 0.217403 0.717403 0.420154
C3_6 C 0.170876 0.670876 0.500
C4_4 C 0.148604 0.648604 0.456649
H3_4 H 0.156783 0.656783 0.421050
C5_6 C 0.288726 0.788726 0.500
C6_4 C 0.269363 0.769363 0.452570
H4_4 H 0.282597 0.782597 0.420154
C7_6 C 0.329124 0.829124 0.500
C8_4 C 0.351396 0.851396 0.456649
H5_4 H 0.343217 0.843217 0.421050
N2_4 N 0.387431 0.887431 0.473207
C9_4 C 0.269363 0.769363 0.547430
H6_4 H 0.282597 0.782597 0.579846
C10_4 C 0.351396 0.851396 0.543351
H7_4 H 0.343217 0.843217 0.578950
N3_4 N 0.387431 0.887431 0.526793
C11_4 C 0.230637 0.730637 0.547430
H8_4 H 0.217403 0.717403 0.579846
C12_4 C 0.148604 0.648604 0.543351
H9_4 H 0.156783 0.656783 0.578950
C13_8 C 0.288726 0.500 0.788726
C14_6 C 0.269363 0.452570 0.769363
H10_6 H 0.282597 0.420154 0.782597
C15_8 C 0.329124 0.500 0.829124
C16_6 C 0.351396 0.456649 0.851396
H11_6 H 0.343217 0.421050 0.843217
N5_6 N 0.387431 0.473207 0.887431
C17_8 C 0.211274 0.500 0.711274
C18_6 C 0.230637 0.452570 0.730637
H12_6 H 0.217403 0.420154 0.717403
C19_8 C 0.170876 0.500 0.670876
C20_6 C 0.148604 0.456649 0.648604
H13_6 H 0.156783 0.421050 0.656783
C21_6 C 0.230637 0.547430 0.730637
H14_6 H 0.217403 0.579846 0.717403
C22_6 C 0.148604 0.543351 0.648604
H15_6 H 0.156783 0.578950 0.656783
C23_6 C 0.269363 0.547430 0.769363
H16_6 H 0.282597 0.579846 0.782597
C24_6 C 0.351396 0.543351 0.851396
H17_6 H 0.343217 0.578950 0.843217
N8_5 N 0.387431 0.526793 0.887431
C25_7 C 0.288726 1.000 0.711274
C27_7 C 0.329124 1.000 0.670876
C29_7 C 0.211274 1.000 0.788726
C31_7 C 0.170876 1.000 0.829124
C33_4 C 0.230637 0.952570 0.769363
H22_4 H 0.217403 0.920154 0.782597
C34_4 C 0.148604 0.956649 0.851396
H23_4 H 0.156783 0.921050 0.843217
C35_4 C 0.269363 0.952570 0.730637
H24_4 H 0.282597 0.920154 0.717403
C36_4 C 0.351396 0.956649 0.648604
H25_4 H 0.343217 0.921050 0.656783
N12_4 N 0.387431 0.973207 0.612569
H26_17 H 0.500 0.875643 0.500
H27_10 H 0.500 1.000 0.624357
Ni12_3 Ni 0.442910(91) 0.557090(91) 0.942910(91)
N13_9 N 0.473207 0.887431 0.612569
H1_12 H 0.375643 0.500 0.000
H26_18 H 0.500 0.375643 0.000
H27_11 H 0.500 0.500 0.124357
H1_13 H 0.375643 0.500 1.000
H26_19 H 0.500 0.375643 1.000
H26_20 H 0.500 0.000 0.375643
C13_9 C 0.288726 0.711274 0.000
C15_9 C 0.329124 0.670876 0.000
C17_9 C 0.211274 0.788726 0.000
C19_9 C 0.170876 0.829124 0.000
C21_7 C 0.230637 0.769363 0.047430
H14_7 H 0.217403 0.782597 0.079846
C22_7 C 0.148604 0.851396 0.043351
H15_7 H 0.156783 0.843217 0.078950
C23_7 C 0.269363 0.730637 0.047430
H16_7 H 0.282597 0.717403 0.079846
C24_7 C 0.351396 0.648604 0.043351
H17_7 H 0.343217 0.656783 0.078950
N8_6 N 0.387431 0.612569 0.026793
H26_21 H 0.500 1.000 0.375643
N13_10 N 0.473207 0.887431 0.387431
C13_10 C 0.288726 0.711274 1.000
C14_7 C 0.269363 0.730637 0.952570
H10_7 H 0.282597 0.717403 0.920154
C15_10 C 0.329124 0.670876 1.000
C16_7 C 0.351396 0.648604 0.956649
H11_7 H 0.343217 0.656783 0.921050
N5_7 N 0.387431 0.612569 0.973207
C17_10 C 0.211274 0.788726 1.000
C18_7 C 0.230637 0.769363 0.952570
H12_7 H 0.217403 0.782597 0.920154
C19_10 C 0.170876 0.829124 1.000
C20_7 C 0.148604 0.851396 0.956649
H13_7 H 0.156783 0.843217 0.921050
C13_11 C 0.288726 0.211274 0.500
C14_8 C 0.269363 0.230637 0.452570
H10_8 H 0.282597 0.217403 0.420154
C15_11 C 0.329124 0.170876 0.500
C16_8 C 0.351396 0.148604 0.456649
H11_8 H 0.343217 0.156783 0.421050
C17_11 C 0.211274 0.288726 0.500
C18_8 C 0.230637 0.269363 0.452570
H12_8 H 0.217403 0.282597 0.420154
C19_11 C 0.170876 0.329124 0.500
C20_8 C 0.148604 0.351396 0.456649
H13_8 H 0.156783 0.343217 0.421050
C21_8 C 0.230637 0.269363 0.547430
H14_8 H 0.217403 0.282597 0.579846
C22_8 C 0.148604 0.351396 0.543351
H15_8 H 0.156783 0.343217 0.578950
C23_8 C 0.269363 0.230637 0.547430
H16_8 H 0.282597 0.217403 0.579846
C24_8 C 0.351396 0.148604 0.543351
H17_8 H 0.343217 0.156783 0.578950
N8_7 N 0.387431 0.112569 0.526793
H26_22 H 0.500 0.500 0.875643
N13_11 N 0.473207 0.387431 0.887431
H27_12 H 0.500 0.124357 0.500
N13_12 N 0.473207 0.112569 0.612569
H27_13 H 0.500 0.624357 0.000
N13_13 N 0.473207 0.612569 0.112569
H27_14 H 0.500 0.624357 1.000
N13_14 N 0.473207 0.612569 0.887431
C25_8 C 0.000 0.788726 0.788726
C26_5 C 0.047430 0.769363 0.769363
H18_5 H 0.079846 0.782597 0.782597
C27_8 C 0.000 0.829124 0.829124
C28_5 C 0.043351 0.851396 0.851396
H19_5 H 0.078950 0.843217 0.843217
C29_8 C 0.000 0.711274 0.711274
C30_5 C 0.047430 0.730637 0.730637
H20_5 H 0.079846 0.717403 0.717403
C31_8 C -0.000 0.670876 0.670876
C32_5 C 0.043351 0.648604 0.648604
H21_5 H 0.078950 0.656783 0.656783
C13_12 C 0.500 0.788726 0.711274
C14_9 C 0.452570 0.769363 0.730637
H10_9 H 0.420154 0.782597 0.717403
C15_12 C 0.500 0.829124 0.670876
C16_9 C 0.456649 0.851396 0.648604
H11_9 H 0.421050 0.843217 0.656783
C17_12 C 0.500 0.711274 0.788726
C18_9 C 0.452570 0.730637 0.769363
H12_9 H 0.420154 0.717403 0.782597
C19_12 C 0.500 0.670876 0.829124
C20_9 C 0.456649 0.648604 0.851396
H13_9 H 0.421050 0.656783 0.843217
C21_9 C 0.547430 0.730637 0.769363
H14_9 H 0.579846 0.717403 0.782597
C22_9 C 0.543351 0.648604 0.851396
H15_9 H 0.578950 0.656783 0.843217
C23_9 C 0.547430 0.769363 0.730637
H16_9 H 0.579846 0.782597 0.717403
C24_9 C 0.543351 0.851396 0.648604
H17_9 H 0.578950 0.843217 0.656783
C25_9 C 1.000 0.788726 0.788726
C27_9 C 1.000 0.829124 0.829124
C29_9 C 1.000 0.711274 0.711274
C31_9 C 1.000 0.670876 0.670876
C33_5 C 0.952570 0.730637 0.730637
H22_5 H 0.920154 0.717403 0.717403
C34_5 C 0.956649 0.648604 0.648604
H23_5 H 0.921050 0.656783 0.656783
C35_5 C 0.952570 0.769363 0.769363
H24_5 H 0.920154 0.782597 0.782597
C36_5 C 0.956649 0.851396 0.851396
H25_5 H 0.921050 0.843217 0.843217
C25_10 C -0.000 0.288726 0.288726
C26_6 C 0.047430 0.269363 0.269363
H18_6 H 0.079846 0.282597 0.282597
C27_10 C 0.000 0.329124 0.329124
C28_6 C 0.043351 0.351396 0.351396
H19_6 H 0.078950 0.343217 0.343217
C29_10 C 0.000 0.211274 0.211274
C30_6 C 0.047430 0.230637 0.230637
H20_6 H 0.079846 0.217403 0.217403
C31_10 C -0.000 0.170876 0.170876
C32_6 C 0.043351 0.148604 0.148604
H21_6 H 0.078950 0.156783 0.156783
C13_13 C 0.500 0.288726 0.211274
C14_10 C 0.452570 0.269363 0.230637
H10_10 H 0.420154 0.282597 0.217403
C15_13 C 0.500 0.329124 0.170876
C16_10 C 0.456649 0.351396 0.148604
H11_10 H 0.421050 0.343217 0.156783
C17_13 C 0.500 0.211274 0.288726
C18_10 C 0.452570 0.230637 0.269363
H12_10 H 0.420154 0.217403 0.282597
C19_13 C 0.500 0.170876 0.329124
C20_10 C 0.456649 0.148604 0.351396
H13_10 H 0.421050 0.156783 0.343217
C21_10 C 0.547430 0.230637 0.269363
H14_10 H 0.579846 0.217403 0.282597
C22_10 C 0.543351 0.148604 0.351396
H15_10 H 0.578950 0.156783 0.343217
C23_10 C 0.547430 0.269363 0.230637
H16_10 H 0.579846 0.282597 0.217403
C24_10 C 0.543351 0.351396 0.148604
H17_10 H 0.578950 0.343217 0.156783
C25_11 C 1.000 0.288726 0.288726
C27_11 C 1.000 0.329124 0.329124
C29_11 C 1.000 0.211274 0.211274
C31_11 C 1.000 0.170876 0.170876
C33_6 C 0.952570 0.230637 0.230637
H22_6 H 0.920154 0.217403 0.217403
C34_6 C 0.956649 0.148604 0.148604
H23_6 H 0.921050 0.156783 0.156783
C35_6 C 0.952570 0.269363 0.269363
H24_6 H 0.920154 0.282597 0.282597
C36_6 C 0.956649 0.351396 0.351396
H25_6 H 0.921050 0.343217 0.343217
C25_12 C 0.000 0.788726 0.211274
C26_7 C 0.047430 0.769363 0.230637
H18_7 H 0.079846 0.782597 0.217403
C27_12 C -0.000 0.829124 0.170876
C28_7 C 0.043351 0.851396 0.148604
H19_7 H 0.078950 0.843217 0.156783
C29_12 C -0.000 0.711274 0.288726
C30_7 C 0.047430 0.730637 0.269363
H20_7 H 0.079846 0.717403 0.282597
C31_12 C 0.000 0.670876 0.329124
C32_7 C 0.043351 0.648604 0.351396
H21_7 H 0.078950 0.656783 0.343217
C13_14 C 0.500 0.711274 0.211274
C14_11 C 0.452570 0.730637 0.230637
H10_11 H 0.420154 0.717403 0.217403
C15_14 C 0.500 0.670876 0.170876
C16_11 C 0.456649 0.648604 0.148604
H11_11 H 0.421050 0.656783 0.156783
C17_14 C 0.500 0.788726 0.288726
C18_11 C 0.452570 0.769363 0.269363
H12_11 H 0.420154 0.782597 0.282597
C19_14 C 0.500 0.829124 0.329124
C20_11 C 0.456649 0.851396 0.351396
H13_11 H 0.421050 0.843217 0.343217
C21_11 C 0.547430 0.769363 0.269363
H14_11 H 0.579846 0.782597 0.282597
C22_11 C 0.543351 0.851396 0.351396
H15_11 H 0.578950 0.843217 0.343217
C23_11 C 0.547430 0.730637 0.230637
H16_11 H 0.579846 0.717403 0.217403
C24_11 C 0.543351 0.648604 0.148604
H17_11 H 0.578950 0.656783 0.156783
C25_13 C 1.000 0.788726 0.211274
C27_13 C 1.000 0.829124 0.170876
C29_13 C 1.000 0.711274 0.288726
C31_13 C 1.000 0.670876 0.329124
C33_7 C 0.952570 0.730637 0.269363
H22_7 H 0.920154 0.717403 0.282597
C34_7 C 0.956649 0.648604 0.351396
H23_7 H 0.921050 0.656783 0.343217
C35_7 C 0.952570 0.769363 0.230637
H24_7 H 0.920154 0.782597 0.217403
C36_7 C 0.956649 0.851396 0.148604
H25_7 H 0.921050 0.843217 0.156783
C25_14 C -0.000 0.288726 0.711274
C26_8 C 0.047430 0.269363 0.730637
H18_8 H 0.079846 0.282597 0.717403
C27_14 C -0.000 0.329124 0.670876
C28_8 C 0.043351 0.351396 0.648604
H19_8 H 0.078950 0.343217 0.656783
C29_14 C 0.000 0.211274 0.788726
C30_8 C 0.047430 0.230637 0.769363
H20_8 H 0.079846 0.217403 0.782597
C31_14 C -0.000 0.170876 0.829124
C32_8 C 0.043351 0.148604 0.851396
H21_8 H 0.078950 0.156783 0.843217
C13_15 C 0.500 0.211274 0.711274
C14_12 C 0.452570 0.230637 0.730637
H10_12 H 0.420154 0.217403 0.717403
C15_15 C 0.500 0.170876 0.670876
C16_12 C 0.456649 0.148604 0.648604
H11_12 H 0.421050 0.156783 0.656783
C17_15 C 0.500 0.288726 0.788726
C18_12 C 0.452570 0.269363 0.769363
H12_12 H 0.420154 0.282597 0.782597
C19_15 C 0.500 0.329124 0.829124
C20_12 C 0.456649 0.351396 0.851396
H13_12 H 0.421050 0.343217 0.843217
C21_12 C 0.547430 0.269363 0.769363
H14_12 H 0.579846 0.282597 0.782597
C22_12 C 0.543351 0.351396 0.851396
H15_12 H 0.578950 0.343217 0.843217
C23_12 C 0.547430 0.230637 0.730637
H16_12 H 0.579846 0.217403 0.717403
C24_12 C 0.543351 0.148604 0.648604
H17_12 H 0.578950 0.156783 0.656783
C25_15 C 1.000 0.288726 0.711274
C27_15 C 1.000 0.329124 0.670876
C29_15 C 1.000 0.211274 0.788726
C31_15 C 1.000 0.170876 0.829124
C33_8 C 0.952570 0.230637 0.769363
H22_8 H 0.920154 0.217403 0.782597
C34_8 C 0.956649 0.148604 0.851396
H23_8 H 0.921050 0.156783 0.843217
C35_8 C 0.952570 0.269363 0.730637
H24_8 H 0.920154 0.282597 0.717403
C36_8 C 0.956649 0.351396 0.648604
H25_8 H 0.921050 0.343217 0.656783
H27_15 H 0.124357 0.500 0.500
H27_16 H 0.624357 0.000 0.500
H27_17 H 0.624357 1.000 0.500
H27_18 H 0.624357 0.500 0.000
H27_19 H 0.624357 0.500 1.000
loop_
_geom_bond_atom_site_label_1
_geom_bond_atom_site_label_2
_geom_bond_site_symmetry_1
_geom_bond_site_symmetry_2
Ni1 O1 1_555 1_555
O1 H1 1_555 1_555
C3 C1 1_555 1_555
C7 C5 1_555 1_555
C9 C5 1_555 1_555
H6 C9 1_555 1_555
C10 C7 1_555 1_555
H7 C10 1_555 1_555
N3 Ni1 1_555 1_555
C11 C1 1_555 1_555
H8 C11 1_555 1_555
C12 C3 1_555 1_555
H9 C12 1_555 1_555
Ni2 N4 1_555 1_555
C13 C14 1_555 1_555
C14 H10 1_555 1_555
C15 C13 1_555 1_555
C16 C15 1_555 1_555
H11 C16 1_555 1_555
N5 C16 1_555 1_555
C17 C18 1_555 1_555
C18 C14 1_555 1_555
H12 C18 1_555 1_555
C19 C17 1_555 1_555
C20 C19 1_555 1_555
H13 C20 1_555 1_555
N6 C20 1_555 1_555
C21 C17 1_555 1_555
H14 C21 1_555 1_555
C22 C19 1_555 1_555
H15 C22 1_555 1_555
N7 Ni2 1_555 1_555
C23 C13 1_555 1_555
H16 C23 1_555 1_555
C24 C15 1_555 1_555
H17 C24 1_555 1_555
N8 N5 1_555 1_555
Ni3 N11 1_555 1_555
C27 C25 1_555 1_555
C31 C29 1_555 1_555
C33 C29 1_555 1_555
H22 C33 1_555 1_555
C34 C31 1_555 1_555
H23 C34 1_555 1_555
C35 C25 1_555 1_555
H24 C35 1_555 1_555
C36 C27 1_555 1_555
H25 C36 1_555 1_555
N12 Ni1 1_555 1_555
O2 Ni1 1_555 1_555
H26 O2 1_555 1_555
O3 Ni1 1_555 1_555
H27 O3 1_555 1_555
Ni9 N6 1_555 1_555
Ni12 N8 1_555 1_555
Ni14 N5 1_555 1_555
O5 Ni3 1_555 1_555
O6 Ni2 1_555 1_555
O7 Ni2 1_555 1_555
O8 Ni3 1_555 1_555
O9 Ni2 1_555 1_555
O10 Ni3 1_555 1_555
N13 Ni1 1_555 1_555
N15 Ni3 1_555 1_555
N16 Ni2 1_555 1_555
N17 Ni3 1_555 1_555
C9 C11 1_555 1_555
C10 N3 1_555 1_555
C12 N4 1_555 1_555
N6 N7 1_555 1_555
C21 C23 1_555 1_555
C22 N7 1_555 1_555
C24 N8 1_555 1_555
C33 C35 1_555 1_555
C34 N11 1_555 1_555
C36 N12 1_555 1_555
Ni9 O6 1_555 1_555
Ni9 O9 1_555 1_555
O1_2 H1_2 1_555 1_555
C1_2 C2 1_555 1_555
C2 H2 1_555 1_555
C3_2 C1_2 1_555 1_555
C4 C3_2 1_555 1_555
H3 C4 1_555 1_555
N1 C4 1_555 1_555
C5_2 C6 1_555 1_555
C6 C2 1_555 1_555
H4 C6 1_555 1_555
C7_2 C5_2 1_555 1_555
C8 C7_2 1_555 1_555
H5 C8 1_555 1_555
N2 C8 1_555 1_555
H26_2 O2_2 1_555 1_555
Ni8 N1 1_555 1_555
Ni13 O1_2 1_555 1_555
N2 Ni13 1_555 1_555
O2_2 Ni13 1_555 1_555
Ni8 O6_2 1_555 1_555
Ni8 O7_2 1_555 1_555
O1_3 H1_3 1_555 1_555
C25_2 C26 1_555 1_555
C26 H18 1_555 1_555
C27_2 C25_2 1_555 1_555
C28 C27_2 1_555 1_555
H19 C28 1_555 1_555
N9 C28 1_555 1_555
C29_2 C30 1_555 1_555
C30 C26 1_555 1_555
H20 C30 1_555 1_555
C31_2 C29_2 1_555 1_555
C32 C31_2 1_555 1_555
H21 C32 1_555 1_555
N10 C32 1_555 1_555
H27_2 O3_2 1_555 1_555
Ni7 N10 1_555 1_555
Ni11 O1_3 1_555 1_555
N9 Ni11 1_555 1_555
O3_2 Ni11 1_555 1_555
Ni7 O5_2 1_555 1_555
Ni7 O8_2 1_555 1_555
O1_4 H1_4 1_555 1_555
Ni10 O1_4 1_555 1_555
Ni4 O2_3 1_555 1_555
H26_3 O2_3 1_555 1_555
H27_3 O3_3 1_555 1_555
O4 Ni4 1_555 1_555
N14 Ni4 1_555 1_555
N18 Ni4 1_555 1_555
N19 Ni4 1_555 1_555
Ni4 O3_3 1_555 1_555
H26_4 O2_4 1_555 1_555
Ni6 O2_4 1_555 1_555
Ni6 O4_2 1_555 1_555
H27_4 O3_4 1_555 1_555
Ni5 O3_4 1_555 1_555
Ni5 O4_3 1_555 1_555
Ni11 O2_5 1_555 1_555
H26_5 O2_5 1_555 1_555
N14_2 Ni11 1_555 1_555
N18_2 Ni11 1_555 1_555
H26_6 O2_6 1_555 1_555
Ni10 O2_6 1_555 1_555
O4 H1_5 1_555 1_555
C25_3 C26_2 1_555 1_555
C26_2 H18_2 1_555 1_555
C27_3 C25_3 1_555 1_555
C28_2 C27_3 1_555 1_555
H19_2 C28_2 1_555 1_555
N19 C28_2 1_555 1_555
C29_3 C30_2 1_555 1_555
C30_2 C26_2 1_555 1_555
H20_2 C30_2 1_555 1_555
C31_3 C29_3 1_555 1_555
C32_2 C31_3 1_555 1_555
H21_2 C32_2 1_555 1_555
N10_2 C32_2 1_555 1_555
Ni7_2 N10_2 1_555 1_555
Ni7_2 O5_3 1_555 1_555
Ni7_2 O8 1_555 1_555
O4_2 H1_6 1_555 1_555
O4_3 H1_7 1_555 1_555
C3_3 C1_3 1_555 1_555
C7_3 C5_3 1_555 1_555
C9_2 C5_3 1_555 1_555
H6_2 C9_2 1_555 1_555
C10_2 C7_3 1_555 1_555
H7_2 C10_2 1_555 1_555
N3_2 Ni5 1_555 1_555
C11_2 C1_3 1_555 1_555
H8_2 C11_2 1_555 1_555
C12_2 C3_3 1_555 1_555
H9_2 C12_2 1_555 1_555
Ni2_2 N4_2 1_555 1_555
C13_2 C14_2 1_555 1_555
C14_2 H10_2 1_555 1_555
C15_2 C13_2 1_555 1_555
C16_2 C15_2 1_555 1_555
H11_2 C16_2 1_555 1_555
N5_2 C16_2 1_555 1_555
C17_2 C18_2 1_555 1_555
C18_2 C14_2 1_555 1_555
H12_2 C18_2 1_555 1_555
C19_2 C17_2 1_555 1_555
C20_2 C19_2 1_555 1_555
H13_2 C20_2 1_555 1_555
N6_2 C20_2 1_555 1_555
C21_2 C17_2 1_555 1_555
H14_2 C21_2 1_555 1_555
C22_2 C19_2 1_555 1_555
H15_2 C22_2 1_555 1_555
N7_2 Ni2_2 1_555 1_555
C23_2 C13_2 1_555 1_555
H16_2 C23_2 1_555 1_555
C24_2 C15_2 1_555 1_555
H17_2 C24_2 1_555 1_555
N8_2 N5_2 1_555 1_555
Ni3_2 N11_2 1_555 1_555
C27_4 C25_4 1_555 1_555
C31_4 C29_4 1_555 1_555
C33_2 C29_4 1_555 1_555
H22_2 C33_2 1_555 1_555
C34_2 C31_4 1_555 1_555
H23_2 C34_2 1_555 1_555
C35_2 C25_4 1_555 1_555
H24_2 C35_2 1_555 1_555
C36_2 C27_4 1_555 1_555
H25_2 C36_2 1_555 1_555
N12_2 Ni5 1_555 1_555
O2_7 Ni5 1_555 1_555
H26_7 O2_7 1_555 1_555
Ni9_2 N6_2 1_555 1_555
Ni12_2 N8_2 1_555 1_555
Ni14_2 N5_2 1_555 1_555
O5_4 Ni3_2 1_555 1_555
O6_3 Ni2_2 1_555 1_555
O7_3 Ni2_2 1_555 1_555
O8_2 Ni3_2 1_555 1_555
O9 Ni2_2 1_555 1_555
O10_2 Ni3_2 1_555 1_555
N13_2 Ni5 1_555 1_555
N15_2 Ni3_2 1_555 1_555
N16_2 Ni2_2 1_555 1_555
N17_2 Ni3_2 1_555 1_555
C9_2 C11_2 1_555 1_555
C10_2 N3_2 1_555 1_555
C12_2 N4_2 1_555 1_555
N6_2 N7_2 1_555 1_555
C21_2 C23_2 1_555 1_555
C22_2 N7_2 1_555 1_555
C24_2 N8_2 1_555 1_555
C33_2 C35_2 1_555 1_555
C34_2 N11_2 1_555 1_555
C36_2 N12_2 1_555 1_555
Ni9_2 O6_3 1_555 1_555
Ni9_2 O9 1_555 1_555
O4_4 H1_8 1_555 1_555
C1_4 C2_2 1_555 1_555
C2_2 H2_2 1_555 1_555
C3_4 C1_4 1_555 1_555
C4_2 C3_4 1_555 1_555
H3_2 C4_2 1_555 1_555
N1_2 C4_2 1_555 1_555
C5_4 C6_2 1_555 1_555
C6_2 C2_2 1_555 1_555
H4_2 C6_2 1_555 1_555
C7_4 C5_4 1_555 1_555
C8_2 C7_4 1_555 1_555
H5_2 C8_2 1_555 1_555
N2_2 C8_2 1_555 1_555
H26_8 O2_8 1_555 1_555
Ni8_2 N1_2 1_555 1_555
Ni13_2 O4_4 1_555 1_555
N2_2 Ni13_2 1_555 1_555
O2_8 Ni13_2 1_555 1_555
Ni8_2 O6_4 1_555 1_555
Ni8_2 O7_4 1_555 1_555
Ni4_2 O2_9 1_555 1_555
H26_9 O2_9 1_555 1_555
H27_5 O3_5 1_555 1_555
Ni5_2 O3_5 1_555 1_555
Ni12 O2_9 1_555 1_555
O4_5 Ni4_2 1_555 1_555
N14_3 Ni4_2 1_555 1_555
N18_3 Ni4_2 1_555 1_555
N19_2 Ni4_2 1_555 1_555
Ni4_2 O3_5 1_555 1_555
Ni5_2 O4_5 1_555 1_555
Ni12 O4_5 1_555 1_555
Ni1_2 O1_5 1_555 1_555
O1_5 H1_9 1_555 1_555
C1_5 C2_3 1_555 1_555
C2_3 H2_3 1_555 1_555
C3_5 C1_5 1_555 1_555
C4_3 C3_5 1_555 1_555
H3_3 C4_3 1_555 1_555
N1_3 C4_3 1_555 1_555
C5_5 C6_3 1_555 1_555
C6_3 C2_3 1_555 1_555
H4_3 C6_3 1_555 1_555
C7_5 C5_5 1_555 1_555
C8_3 C7_5 1_555 1_555
H5_3 C8_3 1_555 1_555
N2_3 C8_3 1_555 1_555
C9_3 C5_5 1_555 1_555
H6_3 C9_3 1_555 1_555
C10_3 C7_5 1_555 1_555
H7_3 C10_3 1_555 1_555
N3_3 Ni1_2 1_555 1_555
C11_3 C1_5 1_555 1_555
H8_3 C11_3 1_555 1_555
C12_3 C3_5 1_555 1_555
H9_3 C12_3 1_555 1_555
N4_3 N1_3 1_555 1_555
Ni2_3 N4_3 1_555 1_555
C15_3 C13_3 1_555 1_555
C19_3 C17_3 1_555 1_555
C21_3 C17_3 1_555 1_555
H14_3 C21_3 1_555 1_555
C22_3 C19_3 1_555 1_555
H15_3 C22_3 1_555 1_555
N7_3 Ni2_3 1_555 1_555
C23_3 C13_3 1_555 1_555
H16_3 C23_3 1_555 1_555
C24_3 C15_3 1_555 1_555
H17_3 C24_3 1_555 1_555
Ni3_3 N11_3 1_555 1_555
C25_5 C26_3 1_555 1_555
C26_3 H18_3 1_555 1_555
C27_5 C25_5 1_555 1_555
C28_3 C27_5 1_555 1_555
H19_3 C28_3 1_555 1_555
N9_2 C28_3 1_555 1_555
C29_5 C30_3 1_555 1_555
C30_3 C26_3 1_555 1_555
H20_3 C30_3 1_555 1_555
C31_5 C29_5 1_555 1_555
C32_3 C31_5 1_555 1_555
H21_3 C32_3 1_555 1_555
N10_3 C32_3 1_555 1_555
C33_3 C29_5 1_555 1_555
H22_3 C33_3 1_555 1_555
C34_3 C31_5 1_555 1_555
H23_3 C34_3 1_555 1_555
N11_3 N10_3 1_555 1_555
C35_3 C25_5 1_555 1_555
H24_3 C35_3 1_555 1_555
C36_3 C27_5 1_555 1_555
H25_3 C36_3 1_555 1_555
N12_3 Ni1_2 1_555 1_555
O2_10 Ni1_2 1_555 1_555
H26_10 O2_10 1_555 1_555
O3_6 Ni1_2 1_555 1_555
H27_6 O3_6 1_555 1_555
Ni8_2 N10_3 1_555 1_555
Ni7_2 N1_3 1_555 1_555
Ni12_2 O1_5 1_555 1_555
Ni11_2 O1_5 1_555 1_555
Ni6 N8_3 1_555 1_555
Ni14_2 O1_5 1_555 1_555
O6_4 Ni3_3 1_555 1_555
O5_3 Ni2_3 1_555 1_555
O10 Ni2_3 1_555 1_555
O8_3 Ni3_3 1_555 1_555
O9_2 Ni2_3 1_555 1_555
O7_2 Ni3_3 1_555 1_555
N13_3 Ni1_2 1_555 1_555
N15_3 Ni3_3 1_555 1_555
N16_3 Ni2_3 1_555 1_555
N17_3 Ni3_3 1_555 1_555
N2_3 N3_3 1_555 1_555
N2_3 Ni14_2 1_555 1_555
C9_3 C11_3 1_555 1_555
C10_3 N3_3 1_555 1_555
C12_3 N4_3 1_555 1_555
C21_3 C23_3 1_555 1_555
C22_3 N7_3 1_555 1_555
C24_3 N8_3 1_555 1_555
N9_2 N12_3 1_555 1_555
N9_2 Ni11_2 1_555 1_555
C33_3 C35_3 1_555 1_555
C34_3 N11_3 1_555 1_555
C36_3 N12_3 1_555 1_555
O2_10 Ni14_2 1_555 1_555
O3_6 Ni11_2 1_555 1_555
Ni8_2 O8_3 1_555 1_555
Ni7_2 O10 1_555 1_555
C13_4 C14_3 1_555 1_555
C14_3 H10_3 1_555 1_555
C15_4 C13_4 1_555 1_555
C16_3 C15_4 1_555 1_555
H11_3 C16_3 1_555 1_555
N5_3 C16_3 1_555 1_555
C17_4 C18_3 1_555 1_555
C18_3 C14_3 1_555 1_555
H12_3 C18_3 1_555 1_555
C19_4 C17_4 1_555 1_555
C20_3 C19_4 1_555 1_555
H13_3 C20_3 1_555 1_555
N6_3 C20_3 1_555 1_555
Ni9_3 N6_3 1_555 1_555
Ni13_2 N5_3 1_555 1_555
Ni9_3 O5_4 1_555 1_555
Ni9_3 O9_3 1_555 1_555
H26_11 O2_11 1_555 1_555
Ni13 O2_11 1_555 1_555
Ni10 O2_12 1_555 1_555
H26_12 O2_12 1_555 1_555
N14_4 Ni10 1_555 1_555
N18_4 Ni10 1_555 1_555
N19_3 Ni10 1_555 1_555
H26_13 O2_13 1_555 1_555
O2_13 Ni6 1_555 1_555
C13_5 C14_4 1_555 1_555
C14_4 H10_4 1_555 1_555
C15_5 C13_5 1_555 1_555
C16_4 C15_5 1_555 1_555
H11_4 C16_4 1_555 1_555
N5_4 C16_4 1_555 1_555
C17_5 C18_4 1_555 1_555
C18_4 C14_4 1_555 1_555
H12_4 C18_4 1_555 1_555
C19_5 C17_5 1_555 1_555
C20_4 C19_5 1_555 1_555
H13_4 C20_4 1_555 1_555
N17_2 C20_4 1_555 1_555
C21_4 C17_5 1_555 1_555
H14_4 C21_4 1_555 1_555
C22_4 C19_5 1_555 1_555
H15_4 C22_4 1_555 1_555
N7_4 Ni9_3 1_555 1_555
C23_4 C13_5 1_555 1_555
H16_4 C23_4 1_555 1_555
C24_4 C15_5 1_555 1_555
H17_4 C24_4 1_555 1_555
N8_4 N5_4 1_555 1_555
O2_14 Ni13_2 1_555 1_555
H26_14 O2_14 1_555 1_555
Ni11_2 N8_4 1_555 1_555
Ni12_2 N5_4 1_555 1_555
O10_2 Ni9_3 1_555 1_555
N13_4 Ni13_2 1_555 1_555
N15_4 Ni8_2 1_555 1_555
N16_4 Ni9_3 1_555 1_555
N17_2 N7_4 1_555 1_555
C21_4 C23_4 1_555 1_555
C22_4 N7_4 1_555 1_555
C24_4 N8_4 1_555 1_555
Ni12 O2_15 1_555 1_555
H26_15 O2_15 1_555 1_555
Ni14 O2_15 1_555 1_555
N14_5 Ni12 1_555 1_555
N19_4 Ni12 1_555 1_555
Ni14 O4_5 1_555 1_555
C15_6 C13_6 1_555 1_555
C19_6 C17_6 1_555 1_555
C21_5 C17_6 1_555 1_555
H14_5 C21_5 1_555 1_555
C22_5 C19_6 1_555 1_555
H15_5 C22_5 1_555 1_555
N7_5 Ni9_2 1_555 1_555
C23_5 C13_6 1_555 1_555
H16_5 C23_5 1_555 1_555
C24_5 C15_6 1_555 1_555
H17_5 C24_5 1_555 1_555
O2_16 Ni14_2 1_555 1_555
H26_16 O2_16 1_555 1_555
O7 Ni9_2 1_555 1_555
N13_5 Ni14_2 1_555 1_555
N15_5 Ni7_2 1_555 1_555
N16_5 Ni9_2 1_555 1_555
C21_5 C23_5 1_555 1_555
C22_5 N7_5 1_555 1_555
C24_5 N18 1_555 1_555
O2_16 Ni12_2 1_555 1_555
C13_7 C14_5 1_555 1_555
C14_5 H10_5 1_555 1_555
C15_7 C13_7 1_555 1_555
C16_5 C15_7 1_555 1_555
H11_5 C16_5 1_555 1_555
N5_5 C16_5 1_555 1_555
C17_7 C18_5 1_555 1_555
C18_5 C14_5 1_555 1_555
H12_5 C18_5 1_555 1_555
C19_7 C17_7 1_555 1_555
C20_5 C19_7 1_555 1_555
H13_5 C20_5 1_555 1_555
N17_3 C20_5 1_555 1_555
Ni6 N5_5 1_555 1_555
H27_7 O3_7 1_555 1_555
Ni14 O3_7 1_555 1_555
N14_6 Ni5_2 1_555 1_555
N18_5 Ni5_2 1_555 1_555
N19_5 Ni5_2 1_555 1_555
Ni5_2 O3_7 1_555 1_555
O3_8 Ni11_2 1_555 1_555
H27_8 O3_8 1_555 1_555
N13_6 Ni11_2 1_555 1_555
O3_8 Ni12_2 1_555 1_555
N14_7 Ni13 1_555 1_555
N19_6 Ni13 1_555 1_555
N13_7 Ni6 1_555 1_555
N14_8 Ni14 1_555 1_555
N18_6 Ni14 1_555 1_555
N13_8 Ni12_2 1_555 1_555
O5 H1_10 1_555 1_555
C25_6 C26_4 1_555 1_555
C26_4 H18_4 1_555 1_555
C27_6 C25_6 1_555 1_555
C28_4 C27_6 1_555 1_555
H19_4 C28_4 1_555 1_555
N9_3 C28_4 1_555 1_555
C29_6 C30_4 1_555 1_555
C30_4 C26_4 1_555 1_555
H20_4 C30_4 1_555 1_555
C31_6 C29_6 1_555 1_555
C32_4 C31_6 1_555 1_555
H21_4 C32_4 1_555 1_555
N19_6 C32_4 1_555 1_555
H27_9 O9_2 1_555 1_555
Ni11_3 O5 1_555 1_555
N9_3 Ni11_3 1_555 1_555
O9_2 Ni11_3 1_555 1_555
Ni1_3 O5_2 1_555 1_555
O5_2 H1_11 1_555 1_555
C1_6 C2_4 1_555 1_555
C2_4 H2_4 1_555 1_555
C3_6 C1_6 1_555 1_555
C4_4 C3_6 1_555 1_555
H3_4 C4_4 1_555 1_555
N18_6 C4_4 1_555 1_555
C5_6 C6_4 1_555 1_555
C6_4 C2_4 1_555 1_555
H4_4 C6_4 1_555 1_555
C7_6 C5_6 1_555 1_555
C8_4 C7_6 1_555 1_555
H5_4 C8_4 1_555 1_555
N2_4 C8_4 1_555 1_555
C9_4 C5_6 1_555 1_555
H6_4 C9_4 1_555 1_555
C10_4 C7_6 1_555 1_555
H7_4 C10_4 1_555 1_555
N3_4 Ni1_3 1_555 1_555
C11_4 C1_6 1_555 1_555
H8_4 C11_4 1_555 1_555
C12_4 C3_6 1_555 1_555
H9_4 C12_4 1_555 1_555
N19_5 N18_6 1_555 1_555
C13_8 C14_6 1_555 1_555
C14_6 H10_6 1_555 1_555
C15_8 C13_8 1_555 1_555
C16_6 C15_8 1_555 1_555
H11_6 C16_6 1_555 1_555
N5_6 C16_6 1_555 1_555
C17_8 C18_6 1_555 1_555
C18_6 C14_6 1_555 1_555
H12_6 C18_6 1_555 1_555
C19_8 C17_8 1_555 1_555
C20_6 C19_8 1_555 1_555
H13_6 C20_6 1_555 1_555
N19_2 C20_6 1_555 1_555
C21_6 C17_8 1_555 1_555
H14_6 C21_6 1_555 1_555
C22_6 C19_8 1_555 1_555
H15_6 C22_6 1_555 1_555
C23_6 C13_8 1_555 1_555
H16_6 C23_6 1_555 1_555
C24_6 C15_8 1_555 1_555
H17_6 C24_6 1_555 1_555
N8_5 N5_6 1_555 1_555
C27_7 C25_7 1_555 1_555
C31_7 C29_7 1_555 1_555
C33_4 C29_7 1_555 1_555
H22_4 C33_4 1_555 1_555
C34_4 C31_7 1_555 1_555
H23_4 C34_4 1_555 1_555
C35_4 C25_7 1_555 1_555
H24_4 C35_4 1_555 1_555
C36_4 C27_7 1_555 1_555
H25_4 C36_4 1_555 1_555
N12_4 Ni1_3 1_555 1_555
O10_2 Ni1_3 1_555 1_555
H26_17 O10_2 1_555 1_555
O9_3 Ni1_3 1_555 1_555
H27_10 O9_3 1_555 1_555
Ni12_3 N8_5 1_555 1_555
Ni8 N5_6 1_555 1_555
N13_9 Ni1_3 1_555 1_555
N2_4 N3_4 1_555 1_555
N2_4 Ni7 1_555 1_555
C9_4 C11_4 1_555 1_555
C10_4 N3_4 1_555 1_555
C12_4 N19_5 1_555 1_555
N19_2 N18_5 1_555 1_555
C21_6 C23_6 1_555 1_555
C22_6 N18_5 1_555 1_555
C24_6 N8_5 1_555 1_555
C33_4 C35_4 1_555 1_555
C34_4 N18_4 1_555 1_555
C36_4 N12_4 1_555 1_555
O10_2 Ni7 1_555 1_555
N13_9 N16_4 1_555 1_555
O6 H1_12 1_555 1_555
H26_18 O7 1_555 1_555
H27_11 O9 1_555 1_555
N16 N16_5 1_555 1_555
O6_2 H1_13 1_555 1_555
H26_19 O7_2 1_555 1_555
Ni12_3 O6_2 1_555 1_555
H26_20 O8 1_555 1_555
C15_9 C13_9 1_555 1_555
C19_9 C17_9 1_555 1_555
C21_7 C17_9 1_555 1_555
H14_7 C21_7 1_555 1_555
C22_7 C19_9 1_555 1_555
H15_7 C22_7 1_555 1_555
C23_7 C13_9 1_555 1_555
H16_7 C23_7 1_555 1_555
C24_7 C15_9 1_555 1_555
H17_7 C24_7 1_555 1_555
H26_21 O8_2 1_555 1_555
Ni9 N8_6 1_555 1_555
N13_10 Ni7 1_555 1_555
C21_7 C23_7 1_555 1_555
C22_7 N18_2 1_555 1_555
C24_7 N8_6 1_555 1_555
N13_10 N15_2 1_555 1_555
C13_10 C14_7 1_555 1_555
C14_7 H10_7 1_555 1_555
C15_10 C13_10 1_555 1_555
C16_7 C15_10 1_555 1_555
H11_7 C16_7 1_555 1_555
N5_7 C16_7 1_555 1_555
C17_10 C18_7 1_555 1_555
C18_7 C14_7 1_555 1_555
H12_7 C18_7 1_555 1_555
C19_10 C17_10 1_555 1_555
C20_7 C19_10 1_555 1_555
H13_7 C20_7 1_555 1_555
N19_3 C20_7 1_555 1_555
Ni12_3 N5_7 1_555 1_555
C13_11 C14_8 1_555 1_555
C14_8 H10_8 1_555 1_555
C15_11 C13_11 1_555 1_555
C16_8 C15_11 1_555 1_555
H11_8 C16_8 1_555 1_555
N17 C16_8 1_555 1_555
C17_11 C18_8 1_555 1_555
C18_8 C14_8 1_555 1_555
H12_8 C18_8 1_555 1_555
C19_11 C17_11 1_555 1_555
C20_8 C19_11 1_555 1_555
H13_8 C20_8 1_555 1_555
N19_4 C20_8 1_555 1_555
C21_8 C17_11 1_555 1_555
H14_8 C21_8 1_555 1_555
C22_8 C19_11 1_555 1_555
H15_8 C22_8 1_555 1_555
C23_8 C13_11 1_555 1_555
H16_8 C23_8 1_555 1_555
C24_8 C15_11 1_555 1_555
H17_8 C24_8 1_555 1_555
N8_7 N17 1_555 1_555
O8_3 Ni8 1_555 1_555
H26_22 O8_3 1_555 1_555
Ni11_3 N8_7 1_555 1_555
N13_11 Ni8 1_555 1_555
N19_4 N18_3 1_555 1_555
C21_8 C23_8 1_555 1_555
C22_8 N18_3 1_555 1_555
C24_8 N8_7 1_555 1_555
O8_3 Ni12_3 1_555 1_555
N13_11 N15_3 1_555 1_555
O10 Ni11_3 1_555 1_555
H27_12 O10 1_555 1_555
N13_12 Ni11_3 1_555 1_555
N13_12 N16_3 1_555 1_555
O7_3 Ni9 1_555 1_555
H27_13 O7_3 1_555 1_555
N13_13 Ni9 1_555 1_555
N13_13 N16_2 1_555 1_555
H27_14 O7_4 1_555 1_555
O7_4 Ni12_3 1_555 1_555
N15 N15_5 1_555 1_555
N13_14 Ni12_3 1_555 1_555
N13_14 N15_4 1_555 1_555
C25_8 C26_5 1_555 1_555
C26_5 H18_5 1_555 1_555
C27_8 C25_8 1_555 1_555
C28_5 C27_8 1_555 1_555
H19_5 C28_5 1_555 1_555
N14_4 C28_5 1_555 1_555
C29_8 C30_5 1_555 1_555
C30_5 C26_5 1_555 1_555
H20_5 C30_5 1_555 1_555
C31_8 C29_8 1_555 1_555
C32_5 C31_8 1_555 1_555
H21_5 C32_5 1_555 1_555
N14_6 C32_5 1_555 1_555
C13_12 C14_9 1_555 1_555
C14_9 H10_9 1_555 1_555
C15_12 C13_12 1_555 1_555
C16_9 C15_12 1_555 1_555
H11_9 C16_9 1_555 1_555
N13_9 C16_9 1_555 1_555
C17_12 C18_9 1_555 1_555
C18_9 C14_9 1_555 1_555
H12_9 C18_9 1_555 1_555
C19_12 C17_12 1_555 1_555
C20_9 C19_12 1_555 1_555
H13_9 C20_9 1_555 1_555
N13_14 C20_9 1_555 1_555
C21_9 C17_12 1_555 1_555
H14_9 C21_9 1_555 1_555
C22_9 C19_12 1_555 1_555
H15_9 C22_9 1_555 1_555
C23_9 C13_12 1_555 1_555
H16_9 C23_9 1_555 1_555
C24_9 C15_12 1_555 1_555
H17_9 C24_9 1_555 1_555
C27_9 C25_9 1_555 1_555
C31_9 C29_9 1_555 1_555
C33_5 C29_9 1_555 1_555
H22_5 C33_5 1_555 1_555
C34_5 C31_9 1_555 1_555
H23_5 C34_5 1_555 1_555
C35_5 C25_9 1_555 1_555
H24_5 C35_5 1_555 1_555
C36_5 C27_9 1_555 1_555
H25_5 C36_5 1_555 1_555
C21_9 C23_9 1_555 1_555
C22_9 N15_4 1_555 1_555
C24_9 N16_4 1_555 1_555
C33_5 C35_5 1_555 1_555
C34_5 N13_6 1_555 1_555
C36_5 N13_4 1_555 1_555
C25_10 C26_6 1_555 1_555
C26_6 H18_6 1_555 1_555
C27_10 C25_10 1_555 1_555
C28_6 C27_10 1_555 1_555
H19_6 C28_6 1_555 1_555
N14_5 C28_6 1_555 1_555
C29_10 C30_6 1_555 1_555
C30_6 C26_6 1_555 1_555
H20_6 C30_6 1_555 1_555
C31_10 C29_10 1_555 1_555
C32_6 C31_10 1_555 1_555
H21_6 C32_6 1_555 1_555
N13 C32_6 1_555 1_555
C13_13 C14_10 1_555 1_555
C14_10 H10_10 1_555 1_555
C15_13 C13_13 1_555 1_555
C16_10 C15_13 1_555 1_555
H11_10 C16_10 1_555 1_555
N16 C16_10 1_555 1_555
C17_13 C18_10 1_555 1_555
C18_10 C14_10 1_555 1_555
H12_10 C18_10 1_555 1_555
C19_13 C17_13 1_555 1_555
C20_10 C19_13 1_555 1_555
H13_10 C20_10 1_555 1_555
N15 C20_10 1_555 1_555
C21_10 C17_13 1_555 1_555
H14_10 C21_10 1_555 1_555
C22_10 C19_13 1_555 1_555
H15_10 C22_10 1_555 1_555
C23_10 C13_13 1_555 1_555
H16_10 C23_10 1_555 1_555
C24_10 C15_13 1_555 1_555
H17_10 C24_10 1_555 1_555
C27_11 C25_11 1_555 1_555
C31_11 C29_11 1_555 1_555
C33_6 C29_11 1_555 1_555
H22_6 C33_6 1_555 1_555
C34_6 C31_11 1_555 1_555
H23_6 C34_6 1_555 1_555
C35_6 C25_11 1_555 1_555
H24_6 C35_6 1_555 1_555
C36_6 C27_11 1_555 1_555
H25_6 C36_6 1_555 1_555
C21_10 C23_10 1_555 1_555
C22_10 N15_5 1_555 1_555
C24_10 N16_5 1_555 1_555
C33_6 C35_6 1_555 1_555
C34_6 N14 1_555 1_555
C36_6 N13_5 1_555 1_555
C25_12 C26_7 1_555 1_555
C26_7 H18_7 1_555 1_555
C27_12 C25_12 1_555 1_555
C28_7 C27_12 1_555 1_555
H19_7 C28_7 1_555 1_555
N14_2 C28_7 1_555 1_555
C29_12 C30_7 1_555 1_555
C30_7 C26_7 1_555 1_555
H20_7 C30_7 1_555 1_555
C31_12 C29_12 1_555 1_555
C32_7 C31_12 1_555 1_555
H21_7 C32_7 1_555 1_555
N14_8 C32_7 1_555 1_555
C13_14 C14_11 1_555 1_555
C14_11 H10_11 1_555 1_555
C15_14 C13_14 1_555 1_555
C16_11 C15_14 1_555 1_555
H11_11 C16_11 1_555 1_555
N13_13 C16_11 1_555 1_555
C17_14 C18_11 1_555 1_555
C18_11 C14_11 1_555 1_555
H12_11 C18_11 1_555 1_555
C19_14 C17_14 1_555 1_555
C20_11 C19_14 1_555 1_555
H13_11 C20_11 1_555 1_555
N13_10 C20_11 1_555 1_555
C21_11 C17_14 1_555 1_555
H14_11 C21_11 1_555 1_555
C22_11 C19_14 1_555 1_555
H15_11 C22_11 1_555 1_555
C23_11 C13_14 1_555 1_555
H16_11 C23_11 1_555 1_555
C24_11 C15_14 1_555 1_555
H17_11 C24_11 1_555 1_555
C27_13 C25_13 1_555 1_555
C31_13 C29_13 1_555 1_555
C33_7 C29_13 1_555 1_555
H22_7 C33_7 1_555 1_555
C34_7 C31_13 1_555 1_555
H23_7 C34_7 1_555 1_555
C35_7 C25_13 1_555 1_555
H24_7 C35_7 1_555 1_555
C36_7 C27_13 1_555 1_555
H25_7 C36_7 1_555 1_555
C21_11 C23_11 1_555 1_555
C22_11 N15_2 1_555 1_555
C24_11 N16_2 1_555 1_555
C33_7 C35_7 1_555 1_555
C34_7 N13_8 1_555 1_555
C36_7 N13_2 1_555 1_555
C25_14 C26_8 1_555 1_555
C26_8 H18_8 1_555 1_555
C27_14 C25_14 1_555 1_555
C28_8 C27_14 1_555 1_555
H19_8 C28_8 1_555 1_555
N14_3 C28_8 1_555 1_555
C29_14 C30_8 1_555 1_555
C30_8 C26_8 1_555 1_555
H20_8 C30_8 1_555 1_555
C31_14 C29_14 1_555 1_555
C32_8 C31_14 1_555 1_555
H21_8 C32_8 1_555 1_555
N14_7 C32_8 1_555 1_555
C13_15 C14_12 1_555 1_555
C14_12 H10_12 1_555 1_555
C15_15 C13_15 1_555 1_555
C16_12 C15_15 1_555 1_555
H11_12 C16_12 1_555 1_555
N13_12 C16_12 1_555 1_555
C17_15 C18_12 1_555 1_555
C18_12 C14_12 1_555 1_555
H12_12 C18_12 1_555 1_555
C19_15 C17_15 1_555 1_555
C20_12 C19_15 1_555 1_555
H13_12 C20_12 1_555 1_555
N13_11 C20_12 1_555 1_555
C21_12 C17_15 1_555 1_555
H14_12 C21_12 1_555 1_555
C22_12 C19_15 1_555 1_555
H15_12 C22_12 1_555 1_555
C23_12 C13_15 1_555 1_555
H16_12 C23_12 1_555 1_555
C24_12 C15_15 1_555 1_555
H17_12 C24_12 1_555 1_555
C27_15 C25_15 1_555 1_555
C31_15 C29_15 1_555 1_555
C33_8 C29_15 1_555 1_555
H22_8 C33_8 1_555 1_555
C34_8 C31_15 1_555 1_555
H23_8 C34_8 1_555 1_555
C35_8 C25_15 1_555 1_555
H24_8 C35_8 1_555 1_555
C36_8 C27_15 1_555 1_555
H25_8 C36_8 1_555 1_555
C21_12 C23_12 1_555 1_555
C22_12 N15_3 1_555 1_555
C24_12 N16_3 1_555 1_555
C33_8 C35_8 1_555 1_555
C34_8 N13_7 1_555 1_555
C36_8 N13_3 1_555 1_555
H27_15 O4_5 1_555 1_555
H27_16 O5_3 1_555 1_555
H27_17 O5_4 1_555 1_555
H27_18 O6_3 1_555 1_555
H27_19 O6_4 1_555 1_555

#END
