
###############################################################################
#
# This file contains modified crystal structure data generated from the
# MOF subset of the Cambridge Structural Database (CSD) v543 
# hosted by the Cambridge Crystallographic Data Centre (CCDC).
#
# This work is licensed under the Creative Commons
# Attribution-NonCommercial-ShareAlike 4.0 International License.
# To view a copy of this license, visit
# http://creativecommons.org/licenses/by-nc-sa/4.0/
# or send a letter to
# Creative Commons, PO Box 1866, Mountain View, CA 94042, USA.
#
# CIF created using the CSD Python API on 29 September 2022
# The structure has been converted into the P1 space group
# The structure has a 3D framework
# The original CSD entry BIBXOB is in the cubic crystal system
# The framework has been calculated to contain at least 10.0% void space
# The void calculation uses a probe of radius 1.32A, grid spacing 0.4
#
###############################################################################

data_BIBXOB
_chemical_formula_moiety         '(C480 H216 N96 Ni24 O24)n'
_symmetry_cell_setting           triclinic
_symmetry_space_group_name_H-M   'P 1'
_symmetry_Int_Tables_number      1
_space_group_name_Hall           'P 1'
loop_
_symmetry_equiv_pos_site_id
_symmetry_equiv_pos_as_xyz
1 x,y,z
_cell_length_a                   32.4617(19)
_cell_length_b                   32.4617(19)
_cell_length_c                   32.4617(19)
_cell_angle_alpha                90
_cell_angle_beta                 90
_cell_angle_gamma                90
_cell_volume                     34206.9
loop_
_atom_site_label
_atom_site_type_symbol
_atom_site_fract_x
_atom_site_fract_y
_atom_site_fract_z
Ni1 Ni 0.04240(19) 0.04240(19) 0.04240(19)
O1 O 0.064159 0.000 0.000
H1 H 0.093425 0.000 0.000
C1 C 0.280278 0.280278 0.000
C3 C 0.312952 0.312952 0.000
C4 C 0.339963 0.339963 0.000
C5 C 0.372637 0.372637 0.000
C7 C 0.219722 0.219722 0.000
C9 C 0.187048 0.187048 0.000
C10 C 0.160037 0.160037 0.000
C11 C 0.127363 0.127363 0.000
C13 C 0.234861 0.234861 0.037083
H6 H 0.224514 0.224514 0.062427
C14 C 0.109950 0.109950 0.033894
H7 H 0.116344 0.116344 0.061727
N3 N 0.081775 0.081775 0.020948
C15 C 0.265139 0.265139 0.037083
H8 H 0.275486 0.275486 0.062427
C16 C 0.390050 0.390050 0.033894
H9 H 0.383656 0.383656 0.061727
N4 N 0.418225 0.418225 0.020948
Ni2 Ni 0.45760(19) 0.45760(19) 0.04240(19)
C17 C 0.219722 0.500 0.280278
C18 C 0.234861 0.537083 0.265139
H10 H 0.224514 0.562427 0.275486
C19 C 0.187048 0.500 0.312952
C20 C 0.160037 0.500 0.339963
C21 C 0.127363 0.500 0.372637
C22 C 0.109950 0.533894 0.390050
H11 H 0.116344 0.561727 0.383656
N5 N 0.081775 0.520948 0.418225
C23 C 0.280278 0.500 0.219722
C24 C 0.265139 0.537083 0.234861
H12 H 0.275486 0.562427 0.224514
C25 C 0.312952 0.500 0.187048
C26 C 0.339963 0.500 0.160037
C27 C 0.372637 0.500 0.127363
C28 C 0.390050 0.533894 0.109950
H13 H 0.383656 0.561727 0.116344
N6 N 0.418225 0.520948 0.081775
C29 C 0.265139 0.462917 0.234861
H14 H 0.275486 0.437573 0.224514
C30 C 0.390050 0.466106 0.109950
H15 H 0.383656 0.438273 0.116344
N7 N 0.418225 0.479052 0.081775
C31 C 0.234861 0.462917 0.265139
H16 H 0.224514 0.437573 0.275486
C32 C 0.109950 0.466106 0.390050
H17 H 0.116344 0.438273 0.383656
N8 N 0.081775 0.479052 0.418225
Ni3 Ni 0.45760(19) 0.04240(19) 0.45760(19)
C33 C 0.219722 -0.000 0.219722
C35 C 0.187048 -0.000 0.187048
C36 C 0.160037 -0.000 0.160037
C37 C 0.127363 -0.000 0.127363
C39 C 0.280278 -0.000 0.280278
C41 C 0.312952 -0.000 0.312952
C42 C 0.339963 -0.000 0.339963
C43 C 0.372637 -0.000 0.372637
C45 C 0.265139 0.037083 0.265139
H22 H 0.275486 0.062427 0.275486
C46 C 0.390050 0.033894 0.390050
H23 H 0.383656 0.061727 0.383656
N11 N 0.418225 0.020948 0.418225
C47 C 0.234861 0.037083 0.234861
H24 H 0.224514 0.062427 0.224514
C48 C 0.109950 0.033894 0.109950
H25 H 0.116344 0.061727 0.116344
N12 N 0.081775 0.020948 0.081775
O2 O -0.000 0.064159 0.000
H26 H 0.000 0.093425 0.000
O3 O -0.000 -0.000 0.064159
H27 H 0.000 0.000 0.093425
Ni9 Ni 0.45760(19) 0.54240(19) 0.04240(19)
Ni12 Ni 0.04240(19) 0.45760(19) 0.45760(19)
Ni14 Ni 0.04240(19) 0.54240(19) 0.45760(19)
O5 O 0.435841 0.000 0.500
O6 O 0.435841 0.500 0.000
O7 O 0.500 0.435841 0.000
O8 O 0.500 -0.000 0.435841
O9 O 0.500 0.500 0.064159
O10 O 0.500 0.064159 0.500
N13 N 0.020948 0.081775 0.081775
N15 N 0.479052 0.081775 0.418225
N16 N 0.479052 0.418225 0.081775
N17 N 0.418225 0.081775 0.479052
O1_2 O 0.064159 0.000 1.000
H1_2 H 0.093425 0.000 1.000
C1_2 C 0.280278 0.280278 1.000
C2 C 0.265139 0.265139 0.962917
H2 H 0.275486 0.275486 0.937573
C3_2 C 0.312952 0.312952 1.000
C4_2 C 0.339963 0.339963 1.000
C5_2 C 0.372637 0.372637 1.000
C6 C 0.390050 0.390050 0.966106
H3 H 0.383656 0.383656 0.938273
N1 N 0.418225 0.418225 0.979052
C7_2 C 0.219722 0.219722 1.000
C8 C 0.234861 0.234861 0.962917
H4 H 0.224514 0.224514 0.937573
C9_2 C 0.187048 0.187048 1.000
C10_2 C 0.160037 0.160037 1.000
C11_2 C 0.127363 0.127363 1.000
C12 C 0.109950 0.109950 0.966106
H5 H 0.116344 0.116344 0.938273
N2 N 0.081775 0.081775 0.979052
O2_2 O 0.000 0.064159 1.000
H26_2 H 0.000 0.093425 1.000
Ni8 Ni 0.45760(19) 0.45760(19) 0.95760(19)
Ni13 Ni 0.04240(19) 0.04240(19) 0.95760(19)
O6_2 O 0.435841 0.500 1.000
O7_2 O 0.500 0.435841 1.000
O1_3 O 0.064159 1.000 0.000
H1_3 H 0.093425 1.000 0.000
C33_2 C 0.219722 1.000 0.219722
C34 C 0.234861 0.962917 0.234861
H18 H 0.224514 0.937573 0.224514
C35_2 C 0.187048 1.000 0.187048
C36_2 C 0.160037 1.000 0.160037
C37_2 C 0.127363 1.000 0.127363
C38 C 0.109950 0.966106 0.109950
H19 H 0.116344 0.938273 0.116344
N9 N 0.081775 0.979052 0.081775
C39_2 C 0.280278 1.000 0.280278
C40 C 0.265139 0.962917 0.265139
H20 H 0.275486 0.937573 0.275486
C41_2 C 0.312952 1.000 0.312952
C42_2 C 0.339963 1.000 0.339963
C43_2 C 0.372637 1.000 0.372637
C44 C 0.390050 0.966106 0.390050
H21 H 0.383656 0.938273 0.383656
N10 N 0.418225 0.979052 0.418225
O3_2 O -0.000 1.000 0.064159
H27_2 H 0.000 1.000 0.093425
Ni7 Ni 0.45760(19) 0.95760(19) 0.45760(19)
Ni11 Ni 0.04240(19) 0.95760(19) 0.04240(19)
O5_2 O 0.435841 1.000 0.500
O8_2 O 0.500 1.000 0.435841
O1_4 O 0.064159 1.000 1.000
H1_4 H 0.093425 1.000 1.000
Ni10 Ni 0.04240(19) 0.95760(19) 0.95760(19)
Ni4 Ni 0.95760(19) 0.04240(19) 0.04240(19)
O2_3 O 1.000 0.064159 0.000
H26_3 H 1.000 0.093425 0.000
O3_3 O 1.000 -0.000 0.064159
H27_3 H 1.000 0.000 0.093425
O4 O 0.935841 0.000 0.000
N14 N 0.979052 0.081775 0.081775
N18 N 0.918225 0.081775 0.020948
N19 N 0.918225 0.020948 0.081775
O2_4 O 1.000 0.064159 1.000
H26_4 H 1.000 0.093425 1.000
Ni6 Ni 0.95760(19) 0.04240(19) 0.95760(19)
O4_2 O 0.935841 0.000 1.000
O3_4 O 1.000 1.000 0.064159
H27_4 H 1.000 1.000 0.093425
Ni5 Ni 0.95760(19) 0.95760(19) 0.04240(19)
O4_3 O 0.935841 1.000 0.000
O4_4 O 0.935841 1.000 1.000
O2_5 O 0.000 0.935841 0.000
H26_5 H -0.000 0.906575 0.000
N14_2 N 0.020948 0.918225 0.081775
N18_2 N 0.081775 0.918225 0.020948
O2_6 O -0.000 0.935841 1.000
H26_6 H -0.000 0.906575 1.000
H1_5 H 0.906575 0.000 0.000
C33_3 C 0.780278 0.000 0.219722
C34_2 C 0.765139 0.037083 0.234861
H18_2 H 0.775486 0.062427 0.224514
C35_3 C 0.812952 0.000 0.187048
C36_3 C 0.839963 0.000 0.160037
C37_3 C 0.872637 0.000 0.127363
C38_2 C 0.890050 0.033894 0.109950
H19_2 H 0.883656 0.061727 0.116344
C39_3 C 0.719722 0.000 0.280278
C40_2 C 0.734861 0.037083 0.265139
H20_2 H 0.724514 0.062427 0.275486
C41_3 C 0.687048 0.000 0.312952
C42_3 C 0.660037 0.000 0.339963
C43_3 C 0.627363 0.000 0.372637
C44_2 C 0.609950 0.033894 0.390050
H21_2 H 0.616344 0.061727 0.383656
N10_2 N 0.581775 0.020948 0.418225
Ni7_2 Ni 0.54240(19) 0.04240(19) 0.45760(19)
O5_3 O 0.564159 0.000 0.500
H1_6 H 0.906575 0.000 1.000
H1_7 H 0.906575 1.000 0.000
C1_3 C 0.719722 0.719722 0.000
C3_3 C 0.687048 0.687048 0.000
C4_3 C 0.660037 0.660037 0.000
C5_3 C 0.627363 0.627363 0.000
C7_3 C 0.780278 0.780278 0.000
C9_3 C 0.812952 0.812952 0.000
C10_3 C 0.839963 0.839963 0.000
C11_3 C 0.872637 0.872637 0.000
C13_2 C 0.765139 0.765139 0.037083
H6_2 H 0.775486 0.775486 0.062427
C14_2 C 0.890050 0.890050 0.033894
H7_2 H 0.883656 0.883656 0.061727
N3_2 N 0.918225 0.918225 0.020948
C15_2 C 0.734861 0.734861 0.037083
H8_2 H 0.724514 0.724514 0.062427
C16_2 C 0.609950 0.609950 0.033894
H9_2 H 0.616344 0.616344 0.061727
N4_2 N 0.581775 0.581775 0.020948
Ni2_2 Ni 0.54240(19) 0.54240(19) 0.04240(19)
C17_2 C 0.780278 0.500 0.280278
C18_2 C 0.765139 0.462917 0.265139
H10_2 H 0.775486 0.437573 0.275486
C19_2 C 0.812952 0.500 0.312952
C20_2 C 0.839963 0.500 0.339963
C21_2 C 0.872637 0.500 0.372637
C22_2 C 0.890050 0.466106 0.390050
H11_2 H 0.883656 0.438273 0.383656
N5_2 N 0.918225 0.479052 0.418225
C23_2 C 0.719722 0.500 0.219722
C24_2 C 0.734861 0.462917 0.234861
H12_2 H 0.724514 0.437573 0.224514
C25_2 C 0.687048 0.500 0.187048
C26_2 C 0.660037 0.500 0.160037
C27_2 C 0.627363 0.500 0.127363
C28_2 C 0.609950 0.466106 0.109950
H13_2 H 0.616344 0.438273 0.116344
N6_2 N 0.581775 0.479052 0.081775
C29_2 C 0.734861 0.537083 0.234861
H14_2 H 0.724514 0.562427 0.224514
C30_2 C 0.609950 0.533894 0.109950
H15_2 H 0.616344 0.561727 0.116344
N7_2 N 0.581775 0.520948 0.081775
C31_2 C 0.765139 0.537083 0.265139
H16_2 H 0.775486 0.562427 0.275486
C32_2 C 0.890050 0.533894 0.390050
H17_2 H 0.883656 0.561727 0.383656
N8_2 N 0.918225 0.520948 0.418225
Ni3_2 Ni 0.54240(19) 0.95760(19) 0.45760(19)
C33_4 C 0.780278 1.000 0.219722
C35_4 C 0.812952 1.000 0.187048
C36_4 C 0.839963 1.000 0.160037
C37_4 C 0.872637 1.000 0.127363
C39_4 C 0.719722 1.000 0.280278
C41_4 C 0.687048 1.000 0.312952
C42_4 C 0.660037 1.000 0.339963
C43_4 C 0.627363 1.000 0.372637
C45_2 C 0.734861 0.962917 0.265139
H22_2 H 0.724514 0.937573 0.275486
C46_2 C 0.609950 0.966106 0.390050
H23_2 H 0.616344 0.938273 0.383656
N11_2 N 0.581775 0.979052 0.418225
C47_2 C 0.765139 0.962917 0.234861
H24_2 H 0.775486 0.937573 0.224514
C48_2 C 0.890050 0.966106 0.109950
H25_2 H 0.883656 0.938273 0.116344
N12_2 N 0.918225 0.979052 0.081775
O2_7 O 1.000 0.935841 0.000
H26_7 H 1.000 0.906575 0.000
Ni9_2 Ni 0.54240(19) 0.45760(19) 0.04240(19)
Ni12_2 Ni 0.95760(19) 0.54240(19) 0.45760(19)
Ni14_2 Ni 0.95760(19) 0.45760(19) 0.45760(19)
O5_4 O 0.564159 1.000 0.500
O6_3 O 0.564159 0.500 0.000
O7_3 O 0.500 0.564159 0.000
O10_2 O 0.500 0.935841 0.500
N13_2 N 0.979052 0.918225 0.081775
N15_2 N 0.520948 0.918225 0.418225
N16_2 N 0.520948 0.581775 0.081775
N17_2 N 0.581775 0.918225 0.479052
H1_8 H 0.906575 1.000 1.000
C1_4 C 0.719722 0.719722 1.000
C2_2 C 0.734861 0.734861 0.962917
H2_2 H 0.724514 0.724514 0.937573
C3_4 C 0.687048 0.687048 1.000
C4_4 C 0.660037 0.660037 1.000
C5_4 C 0.627363 0.627363 1.000
C6_2 C 0.609950 0.609950 0.966106
H3_2 H 0.616344 0.616344 0.938273
N1_2 N 0.581775 0.581775 0.979052
C7_4 C 0.780278 0.780278 1.000
C8_2 C 0.765139 0.765139 0.962917
H4_2 H 0.775486 0.775486 0.937573
C9_4 C 0.812952 0.812952 1.000
C10_4 C 0.839963 0.839963 1.000
C11_4 C 0.872637 0.872637 1.000
C12_2 C 0.890050 0.890050 0.966106
H5_2 H 0.883656 0.883656 0.938273
N2_2 N 0.918225 0.918225 0.979052
O2_8 O 1.000 0.935841 1.000
H26_8 H 1.000 0.906575 1.000
Ni8_2 Ni 0.54240(19) 0.54240(19) 0.95760(19)
Ni13_2 Ni 0.95760(19) 0.95760(19) 0.95760(19)
O6_4 O 0.564159 0.500 1.000
O7_4 O 0.500 0.564159 1.000
Ni4_2 Ni 0.04240(19) 0.45760(19) 0.54240(19)
O2_9 O -0.000 0.435841 0.500
H26_9 H -0.000 0.406575 0.500
O3_5 O -0.000 0.500 0.564159
H27_5 H 0.000 0.500 0.593425
Ni5_2 Ni 0.04240(19) 0.54240(19) 0.54240(19)
O4_5 O 0.064159 0.500 0.500
N14_3 N 0.020948 0.418225 0.581775
N18_3 N 0.081775 0.418225 0.520948
N19_2 N 0.081775 0.479052 0.581775
Ni1_2 Ni 0.95760(19) 0.45760(19) 0.54240(19)
O1_5 O 0.935841 0.500 0.500
H1_9 H 0.906575 0.500 0.500
C1_5 C 0.719722 0.219722 0.500
C2_3 C 0.734861 0.234861 0.462917
H2_3 H 0.724514 0.224514 0.437573
C3_5 C 0.687048 0.187048 0.500
C4_5 C 0.660037 0.160037 0.500
C5_5 C 0.627363 0.127363 0.500
C6_3 C 0.609950 0.109950 0.466106
H3_3 H 0.616344 0.116344 0.438273
N1_3 N 0.581775 0.081775 0.479052
C7_5 C 0.780278 0.280278 0.500
C8_3 C 0.765139 0.265139 0.462917
H4_3 H 0.775486 0.275486 0.437573
C9_5 C 0.812952 0.312952 0.500
C10_5 C 0.839963 0.339963 0.500
C11_5 C 0.872637 0.372637 0.500
C12_3 C 0.890050 0.390050 0.466106
H5_3 H 0.883656 0.383656 0.438273
N2_3 N 0.918225 0.418225 0.479052
C13_3 C 0.765139 0.265139 0.537083
H6_3 H 0.775486 0.275486 0.562427
C14_3 C 0.890050 0.390050 0.533894
H7_3 H 0.883656 0.383656 0.561727
N3_3 N 0.918225 0.418225 0.520948
C15_3 C 0.734861 0.234861 0.537083
H8_3 H 0.724514 0.224514 0.562427
C16_3 C 0.609950 0.109950 0.533894
H9_3 H 0.616344 0.116344 0.561727
N4_3 N 0.581775 0.081775 0.520948
Ni2_3 Ni 0.54240(19) 0.04240(19) 0.54240(19)
C17_3 C 0.780278 -0.000 0.780278
C19_3 C 0.812952 -0.000 0.812952
C20_3 C 0.839963 -0.000 0.839963
C21_3 C 0.872637 -0.000 0.872637
C23_3 C 0.719722 -0.000 0.719722
C25_3 C 0.687048 -0.000 0.687048
C26_3 C 0.660037 -0.000 0.660037
C27_3 C 0.627363 -0.000 0.627363
C29_3 C 0.734861 0.037083 0.734861
H14_3 H 0.724514 0.062427 0.724514
C30_3 C 0.609950 0.033894 0.609950
H15_3 H 0.616344 0.061727 0.616344
N7_3 N 0.581775 0.020948 0.581775
C31_3 C 0.765139 0.037083 0.765139
H16_3 H 0.775486 0.062427 0.775486
C32_3 C 0.890050 0.033894 0.890050
H17_3 H 0.883656 0.061727 0.883656
N8_3 N 0.918225 0.020948 0.918225
Ni3_3 Ni 0.54240(19) 0.45760(19) 0.95760(19)
C33_5 C 0.780278 0.500 0.719722
C34_3 C 0.765139 0.537083 0.734861
H18_3 H 0.775486 0.562427 0.724514
C35_5 C 0.812952 0.500 0.687048
C36_5 C 0.839963 0.500 0.660037
C37_5 C 0.872637 0.500 0.627363
C38_3 C 0.890050 0.533894 0.609950
H19_3 H 0.883656 0.561727 0.616344
N9_2 N 0.918225 0.520948 0.581775
C39_5 C 0.719722 0.500 0.780278
C40_3 C 0.734861 0.537083 0.765139
H20_3 H 0.724514 0.562427 0.775486
C41_5 C 0.687048 0.500 0.812952
C42_5 C 0.660037 0.500 0.839963
C43_5 C 0.627363 0.500 0.872637
C44_3 C 0.609950 0.533894 0.890050
H21_3 H 0.616344 0.561727 0.883656
N10_3 N 0.581775 0.520948 0.918225
C45_3 C 0.734861 0.462917 0.765139
H22_3 H 0.724514 0.437573 0.775486
C46_3 C 0.609950 0.466106 0.890050
H23_3 H 0.616344 0.438273 0.883656
N11_3 N 0.581775 0.479052 0.918225
C47_3 C 0.765139 0.462917 0.734861
H24_3 H 0.775486 0.437573 0.724514
C48_3 C 0.890050 0.466106 0.609950
H25_3 H 0.883656 0.438273 0.616344
N12_3 N 0.918225 0.479052 0.581775
O2_10 O 1.000 0.435841 0.500
H26_10 H 1.000 0.406575 0.500
O3_6 O 1.000 0.500 0.564159
H27_6 H 1.000 0.500 0.593425
Ni11_2 Ni 0.95760(19) 0.54240(19) 0.54240(19)
O8_3 O 0.500 0.500 0.935841
O9_2 O 0.500 -0.000 0.564159
N13_3 N 0.979052 0.418225 0.581775
N15_3 N 0.520948 0.418225 0.918225
N16_3 N 0.520948 0.081775 0.581775
N17_3 N 0.581775 0.418225 0.979052
C17_4 C 0.780278 1.000 0.780278
C18_3 C 0.765139 0.962917 0.765139
H10_3 H 0.775486 0.937573 0.775486
C19_4 C 0.812952 1.000 0.812952
C20_4 C 0.839963 1.000 0.839963
C21_4 C 0.872637 1.000 0.872637
C22_3 C 0.890050 0.966106 0.890050
H11_3 H 0.883656 0.938273 0.883656
N5_3 N 0.918225 0.979052 0.918225
C23_4 C 0.719722 1.000 0.719722
C24_3 C 0.734861 0.962917 0.734861
H12_3 H 0.724514 0.937573 0.724514
C25_4 C 0.687048 1.000 0.687048
C26_4 C 0.660037 1.000 0.660037
C27_4 C 0.627363 1.000 0.627363
C28_3 C 0.609950 0.966106 0.609950
H13_3 H 0.616344 0.938273 0.616344
N6_3 N 0.581775 0.979052 0.581775
Ni9_3 Ni 0.54240(19) 0.95760(19) 0.54240(19)
O9_3 O 0.500 1.000 0.564159
O2_11 O 0.000 0.000 0.935841
H26_11 H -0.000 -0.000 0.906575
O2_12 O 0.000 1.000 0.935841
H26_12 H -0.000 1.000 0.906575
N14_4 N 0.020948 0.918225 0.918225
N18_4 N 0.081775 0.979052 0.918225
N19_3 N 0.081775 0.918225 0.979052
O2_13 O 1.000 0.000 0.935841
H26_13 H 1.000 -0.000 0.906575
C17_5 C 0.780278 0.719722 0.500
C18_4 C 0.765139 0.734861 0.462917
H10_4 H 0.775486 0.724514 0.437573
C19_5 C 0.812952 0.687048 0.500
C20_5 C 0.839963 0.660037 0.500
C21_5 C 0.872637 0.627363 0.500
C22_4 C 0.890050 0.609950 0.466106
H11_4 H 0.883656 0.616344 0.438273
N5_4 N 0.918225 0.581775 0.479052
C23_5 C 0.719722 0.780278 0.500
C24_4 C 0.734861 0.765139 0.462917
H12_4 H 0.724514 0.775486 0.437573
C25_5 C 0.687048 0.812952 0.500
C26_5 C 0.660037 0.839963 0.500
C27_5 C 0.627363 0.872637 0.500
C28_4 C 0.609950 0.890050 0.466106
H13_4 H 0.616344 0.883656 0.438273
C29_4 C 0.734861 0.765139 0.537083
H14_4 H 0.724514 0.775486 0.562427
C30_4 C 0.609950 0.890050 0.533894
H15_4 H 0.616344 0.883656 0.561727
N7_4 N 0.581775 0.918225 0.520948
C31_4 C 0.765139 0.734861 0.537083
H16_4 H 0.775486 0.724514 0.562427
C32_4 C 0.890050 0.609950 0.533894
H17_4 H 0.883656 0.616344 0.561727
N8_4 N 0.918225 0.581775 0.520948
O2_14 O 1.000 1.000 0.935841
H26_14 H 1.000 1.000 0.906575
N13_4 N 0.979052 0.918225 0.918225
N15_4 N 0.520948 0.581775 0.918225
N16_4 N 0.520948 0.918225 0.581775
O2_15 O -0.000 0.500 0.435841
H26_15 H -0.000 0.500 0.406575
N14_5 N 0.020948 0.418225 0.418225
N19_4 N 0.081775 0.418225 0.479052
C17_6 C 0.780278 0.219722 0.000
C19_6 C 0.812952 0.187048 0.000
C20_6 C 0.839963 0.160037 0.000
C21_6 C 0.872637 0.127363 0.000
C23_6 C 0.719722 0.280278 0.000
C25_6 C 0.687048 0.312952 0.000
C26_6 C 0.660037 0.339963 0.000
C27_6 C 0.627363 0.372637 0.000
C29_5 C 0.734861 0.265139 0.037083
H14_5 H 0.724514 0.275486 0.062427
C30_5 C 0.609950 0.390050 0.033894
H15_5 H 0.616344 0.383656 0.061727
N7_5 N 0.581775 0.418225 0.020948
C31_5 C 0.765139 0.234861 0.037083
H16_5 H 0.775486 0.224514 0.062427
C32_5 C 0.890050 0.109950 0.033894
H17_5 H 0.883656 0.116344 0.061727
O2_16 O 1.000 0.500 0.435841
H26_16 H 1.000 0.500 0.406575
N13_5 N 0.979052 0.418225 0.418225
N15_5 N 0.520948 0.081775 0.418225
N16_5 N 0.520948 0.418225 0.081775
C17_7 C 0.780278 0.219722 1.000
C18_5 C 0.765139 0.234861 0.962917
H10_5 H 0.775486 0.224514 0.937573
C19_7 C 0.812952 0.187048 1.000
C20_7 C 0.839963 0.160037 1.000
C21_7 C 0.872637 0.127363 1.000
C22_5 C 0.890050 0.109950 0.966106
H11_5 H 0.883656 0.116344 0.938273
N5_5 N 0.918225 0.081775 0.979052
C23_7 C 0.719722 0.280278 1.000
C24_5 C 0.734861 0.265139 0.962917
H12_5 H 0.724514 0.275486 0.937573
C25_7 C 0.687048 0.312952 1.000
C26_7 C 0.660037 0.339963 1.000
C27_7 C 0.627363 0.372637 1.000
C28_5 C 0.609950 0.390050 0.966106
H13_5 H 0.616344 0.383656 0.938273
O3_7 O -0.000 0.564159 0.500
H27_7 H 0.000 0.593425 0.500
N14_6 N 0.020948 0.581775 0.581775
N18_5 N 0.081775 0.520948 0.581775
N19_5 N 0.081775 0.581775 0.520948
O3_8 O 1.000 0.564159 0.500
H27_8 H 1.000 0.593425 0.500
N13_6 N 0.979052 0.581775 0.581775
N14_7 N 0.020948 0.081775 0.918225
N19_6 N 0.081775 0.020948 0.918225
N13_7 N 0.979052 0.081775 0.918225
N14_8 N 0.020948 0.581775 0.418225
N18_6 N 0.081775 0.581775 0.479052
N13_8 N 0.979052 0.581775 0.418225
H1_10 H 0.406575 0.000 0.500
C33_6 C 0.280278 0.000 0.719722
C34_4 C 0.265139 0.037083 0.734861
H18_4 H 0.275486 0.062427 0.724514
C35_6 C 0.312952 -0.000 0.687048
C36_6 C 0.339963 0.000 0.660037
C37_6 C 0.372637 0.000 0.627363
C38_4 C 0.390050 0.033894 0.609950
H19_4 H 0.383656 0.061727 0.616344
N9_3 N 0.418225 0.020948 0.581775
C39_6 C 0.219722 -0.000 0.780278
C40_4 C 0.234861 0.037083 0.765139
H20_4 H 0.224514 0.062427 0.775486
C41_6 C 0.187048 -0.000 0.812952
C42_6 C 0.160037 0.000 0.839963
C43_6 C 0.127363 0.000 0.872637
C44_4 C 0.109950 0.033894 0.890050
H21_4 H 0.116344 0.061727 0.883656
H27_9 H 0.500 0.000 0.593425
Ni11_3 Ni 0.45760(19) 0.04240(19) 0.54240(19)
Ni1_3 Ni 0.45760(19) 0.95760(19) 0.54240(19)
H1_11 H 0.406575 1.000 0.500
C1_6 C 0.219722 0.719722 0.500
C2_4 C 0.234861 0.734861 0.462917
H2_4 H 0.224514 0.724514 0.437573
C3_6 C 0.187048 0.687048 0.500
C4_6 C 0.160037 0.660037 0.500
C5_6 C 0.127363 0.627363 0.500
C6_4 C 0.109950 0.609950 0.466106
H3_4 H 0.116344 0.616344 0.438273
C7_6 C 0.280278 0.780278 0.500
C8_4 C 0.265139 0.765139 0.462917
H4_4 H 0.275486 0.775486 0.437573
C9_6 C 0.312952 0.812952 0.500
C10_6 C 0.339963 0.839963 0.500
C11_6 C 0.372637 0.872637 0.500
C12_4 C 0.390050 0.890050 0.466106
H5_4 H 0.383656 0.883656 0.438273
N2_4 N 0.418225 0.918225 0.479052
C13_4 C 0.265139 0.765139 0.537083
H6_4 H 0.275486 0.775486 0.562427
C14_4 C 0.390050 0.890050 0.533894
H7_4 H 0.383656 0.883656 0.561727
N3_4 N 0.418225 0.918225 0.520948
C15_4 C 0.234861 0.734861 0.537083
H8_4 H 0.224514 0.724514 0.562427
C16_4 C 0.109950 0.609950 0.533894
H9_4 H 0.116344 0.616344 0.561727
C17_8 C 0.280278 0.500 0.780278
C18_6 C 0.265139 0.462917 0.765139
H10_6 H 0.275486 0.437573 0.775486
C19_8 C 0.312952 0.500 0.812952
C20_8 C 0.339963 0.500 0.839963
C21_8 C 0.372637 0.500 0.872637
C22_6 C 0.390050 0.466106 0.890050
H11_6 H 0.383656 0.438273 0.883656
N5_6 N 0.418225 0.479052 0.918225
C23_8 C 0.219722 0.500 0.719722
C24_6 C 0.234861 0.462917 0.734861
H12_6 H 0.224514 0.437573 0.724514
C25_8 C 0.187048 0.500 0.687048
C26_8 C 0.160037 0.500 0.660037
C27_8 C 0.127363 0.500 0.627363
C28_6 C 0.109950 0.466106 0.609950
H13_6 H 0.116344 0.438273 0.616344
C29_6 C 0.234861 0.537083 0.734861
H14_6 H 0.224514 0.562427 0.724514
C30_6 C 0.109950 0.533894 0.609950
H15_6 H 0.116344 0.561727 0.616344
C31_6 C 0.265139 0.537083 0.765139
H16_6 H 0.275486 0.562427 0.775486
C32_6 C 0.390050 0.533894 0.890050
H17_6 H 0.383656 0.561727 0.883656
N8_5 N 0.418225 0.520948 0.918225
C33_7 C 0.280278 1.000 0.719722
C35_7 C 0.312952 1.000 0.687048
C36_7 C 0.339963 1.000 0.660037
C37_7 C 0.372637 1.000 0.627363
C39_7 C 0.219722 1.000 0.780278
C41_7 C 0.187048 1.000 0.812952
C42_7 C 0.160037 1.000 0.839963
C43_7 C 0.127363 1.000 0.872637
C45_4 C 0.234861 0.962917 0.765139
H22_4 H 0.224514 0.937573 0.775486
C46_4 C 0.109950 0.966106 0.890050
H23_4 H 0.116344 0.938273 0.883656
C47_4 C 0.265139 0.962917 0.734861
H24_4 H 0.275486 0.937573 0.724514
C48_4 C 0.390050 0.966106 0.609950
H25_4 H 0.383656 0.938273 0.616344
N12_4 N 0.418225 0.979052 0.581775
H26_17 H 0.500 0.906575 0.500
H27_10 H 0.500 1.000 0.593425
Ni12_3 Ni 0.45760(19) 0.54240(19) 0.95760(19)
N13_9 N 0.479052 0.918225 0.581775
H1_12 H 0.406575 0.500 0.000
H26_18 H 0.500 0.406575 0.000
H27_11 H 0.500 0.500 0.093425
H1_13 H 0.406575 0.500 1.000
H26_19 H 0.500 0.406575 1.000
H26_20 H 0.500 0.000 0.406575
C17_9 C 0.280278 0.719722 0.000
C19_9 C 0.312952 0.687048 0.000
C20_9 C 0.339963 0.660037 0.000
C21_9 C 0.372637 0.627363 0.000
C23_9 C 0.219722 0.780278 0.000
C25_9 C 0.187048 0.812952 0.000
C26_9 C 0.160037 0.839963 0.000
C27_9 C 0.127363 0.872637 0.000
C29_7 C 0.234861 0.765139 0.037083
H14_7 H 0.224514 0.775486 0.062427
C30_7 C 0.109950 0.890050 0.033894
H15_7 H 0.116344 0.883656 0.061727
C31_7 C 0.265139 0.734861 0.037083
H16_7 H 0.275486 0.724514 0.062427
C32_7 C 0.390050 0.609950 0.033894
H17_7 H 0.383656 0.616344 0.061727
N8_6 N 0.418225 0.581775 0.020948
H26_21 H 0.500 1.000 0.406575
N13_10 N 0.479052 0.918225 0.418225
C17_10 C 0.280278 0.719722 1.000
C18_7 C 0.265139 0.734861 0.962917
H10_7 H 0.275486 0.724514 0.937573
C19_10 C 0.312952 0.687048 1.000
C20_10 C 0.339963 0.660037 1.000
C21_10 C 0.372637 0.627363 1.000
C22_7 C 0.390050 0.609950 0.966106
H11_7 H 0.383656 0.616344 0.938273
N5_7 N 0.418225 0.581775 0.979052
C23_10 C 0.219722 0.780278 1.000
C24_7 C 0.234861 0.765139 0.962917
H12_7 H 0.224514 0.775486 0.937573
C25_10 C 0.187048 0.812952 1.000
C26_10 C 0.160037 0.839963 1.000
C27_10 C 0.127363 0.872637 1.000
C28_7 C 0.109950 0.890050 0.966106
H13_7 H 0.116344 0.883656 0.938273
C17_11 C 0.280278 0.219722 0.500
C18_8 C 0.265139 0.234861 0.462917
H10_8 H 0.275486 0.224514 0.437573
C19_11 C 0.312952 0.187048 0.500
C20_11 C 0.339963 0.160037 0.500
C21_11 C 0.372637 0.127363 0.500
C22_8 C 0.390050 0.109950 0.466106
H11_8 H 0.383656 0.116344 0.438273
C23_11 C 0.219722 0.280278 0.500
C24_8 C 0.234861 0.265139 0.462917
H12_8 H 0.224514 0.275486 0.437573
C25_11 C 0.187048 0.312952 0.500
C26_11 C 0.160037 0.339963 0.500
C27_11 C 0.127363 0.372637 0.500
C28_8 C 0.109950 0.390050 0.466106
H13_8 H 0.116344 0.383656 0.438273
C29_8 C 0.234861 0.265139 0.537083
H14_8 H 0.224514 0.275486 0.562427
C30_8 C 0.109950 0.390050 0.533894
H15_8 H 0.116344 0.383656 0.561727
C31_8 C 0.265139 0.234861 0.537083
H16_8 H 0.275486 0.224514 0.562427
C32_8 C 0.390050 0.109950 0.533894
H17_8 H 0.383656 0.116344 0.561727
N8_7 N 0.418225 0.081775 0.520948
H26_22 H 0.500 0.500 0.906575
N13_11 N 0.479052 0.418225 0.918225
H27_12 H 0.500 0.093425 0.500
N13_12 N 0.479052 0.081775 0.581775
H27_13 H 0.500 0.593425 0.000
N13_13 N 0.479052 0.581775 0.081775
H27_14 H 0.500 0.593425 1.000
N13_14 N 0.479052 0.581775 0.918225
C33_8 C -0.000 0.780278 0.780278
C34_5 C 0.037083 0.765139 0.765139
H18_5 H 0.062427 0.775486 0.775486
C35_8 C -0.000 0.812952 0.812952
C36_8 C -0.000 0.839963 0.839963
C37_8 C 0.000 0.872637 0.872637
C38_5 C 0.033894 0.890050 0.890050
H19_5 H 0.061727 0.883656 0.883656
C39_8 C -0.000 0.719722 0.719722
C40_5 C 0.037083 0.734861 0.734861
H20_5 H 0.062427 0.724514 0.724514
C41_8 C 0.000 0.687048 0.687048
C42_8 C 0.000 0.660037 0.660037
C43_8 C -0.000 0.627363 0.627363
C44_5 C 0.033894 0.609950 0.609950
H21_5 H 0.061727 0.616344 0.616344
C17_12 C 0.500 0.780278 0.719722
C18_9 C 0.462917 0.765139 0.734861
H10_9 H 0.437573 0.775486 0.724514
C19_12 C 0.500 0.812952 0.687048
C20_12 C 0.500 0.839963 0.660037
C21_12 C 0.500 0.872637 0.627363
C22_9 C 0.466106 0.890050 0.609950
H11_9 H 0.438273 0.883656 0.616344
C23_12 C 0.500 0.719722 0.780278
C24_9 C 0.462917 0.734861 0.765139
H12_9 H 0.437573 0.724514 0.775486
C25_12 C 0.500 0.687048 0.812952
C26_12 C 0.500 0.660037 0.839963
C27_12 C 0.500 0.627363 0.872637
C28_9 C 0.466106 0.609950 0.890050
H13_9 H 0.438273 0.616344 0.883656
C29_9 C 0.537083 0.734861 0.765139
H14_9 H 0.562427 0.724514 0.775486
C30_9 C 0.533894 0.609950 0.890050
H15_9 H 0.561727 0.616344 0.883656
C31_9 C 0.537083 0.765139 0.734861
H16_9 H 0.562427 0.775486 0.724514
C32_9 C 0.533894 0.890050 0.609950
H17_9 H 0.561727 0.883656 0.616344
C33_9 C 1.000 0.780278 0.780278
C35_9 C 1.000 0.812952 0.812952
C36_9 C 1.000 0.839963 0.839963
C37_9 C 1.000 0.872637 0.872637
C39_9 C 1.000 0.719722 0.719722
C41_9 C 1.000 0.687048 0.687048
C42_9 C 1.000 0.660037 0.660037
C43_9 C 1.000 0.627363 0.627363
C45_5 C 0.962917 0.734861 0.734861
H22_5 H 0.937573 0.724514 0.724514
C46_5 C 0.966106 0.609950 0.609950
H23_5 H 0.938273 0.616344 0.616344
C47_5 C 0.962917 0.765139 0.765139
H24_5 H 0.937573 0.775486 0.775486
C48_5 C 0.966106 0.890050 0.890050
H25_5 H 0.938273 0.883656 0.883656
C33_10 C 0.000 0.280278 0.280278
C34_6 C 0.037083 0.265139 0.265139
H18_6 H 0.062427 0.275486 0.275486
C35_10 C -0.000 0.312952 0.312952
C36_10 C -0.000 0.339963 0.339963
C37_10 C -0.000 0.372637 0.372637
C38_6 C 0.033894 0.390050 0.390050
H19_6 H 0.061727 0.383656 0.383656
C39_10 C -0.000 0.219722 0.219722
C40_6 C 0.037083 0.234861 0.234861
H20_6 H 0.062427 0.224514 0.224514
C41_10 C 0.000 0.187048 0.187048
C42_10 C -0.000 0.160037 0.160037
C43_10 C 0.000 0.127363 0.127363
C44_6 C 0.033894 0.109950 0.109950
H21_6 H 0.061727 0.116344 0.116344
C17_13 C 0.500 0.280278 0.219722
C18_10 C 0.462917 0.265139 0.234861
H10_10 H 0.437573 0.275486 0.224514
C19_13 C 0.500 0.312952 0.187048
C20_13 C 0.500 0.339963 0.160037
C21_13 C 0.500 0.372637 0.127363
C22_10 C 0.466106 0.390050 0.109950
H11_10 H 0.438273 0.383656 0.116344
C23_13 C 0.500 0.219722 0.280278
C24_10 C 0.462917 0.234861 0.265139
H12_10 H 0.437573 0.224514 0.275486
C25_13 C 0.500 0.187048 0.312952
C26_13 C 0.500 0.160037 0.339963
C27_13 C 0.500 0.127363 0.372637
C28_10 C 0.466106 0.109950 0.390050
H13_10 H 0.438273 0.116344 0.383656
C29_10 C 0.537083 0.234861 0.265139
H14_10 H 0.562427 0.224514 0.275486
C30_10 C 0.533894 0.109950 0.390050
H15_10 H 0.561727 0.116344 0.383656
C31_10 C 0.537083 0.265139 0.234861
H16_10 H 0.562427 0.275486 0.224514
C32_10 C 0.533894 0.390050 0.109950
H17_10 H 0.561727 0.383656 0.116344
C33_11 C 1.000 0.280278 0.280278
C35_11 C 1.000 0.312952 0.312952
C36_11 C 1.000 0.339963 0.339963
C37_11 C 1.000 0.372637 0.372637
C39_11 C 1.000 0.219722 0.219722
C41_11 C 1.000 0.187048 0.187048
C42_11 C 1.000 0.160037 0.160037
C43_11 C 1.000 0.127363 0.127363
C45_6 C 0.962917 0.234861 0.234861
H22_6 H 0.937573 0.224514 0.224514
C46_6 C 0.966106 0.109950 0.109950
H23_6 H 0.938273 0.116344 0.116344
C47_6 C 0.962917 0.265139 0.265139
H24_6 H 0.937573 0.275486 0.275486
C48_6 C 0.966106 0.390050 0.390050
H25_6 H 0.938273 0.383656 0.383656
C33_12 C -0.000 0.780278 0.219722
C34_7 C 0.037083 0.765139 0.234861
H18_7 H 0.062427 0.775486 0.224514
C35_12 C -0.000 0.812952 0.187048
C36_12 C 0.000 0.839963 0.160037
C37_12 C 0.000 0.872637 0.127363
C38_7 C 0.033894 0.890050 0.109950
H19_7 H 0.061727 0.883656 0.116344
C39_12 C 0.000 0.719722 0.280278
C40_7 C 0.037083 0.734861 0.265139
H20_7 H 0.062427 0.724514 0.275486
C41_12 C 0.000 0.687048 0.312952
C42_12 C 0.000 0.660037 0.339963
C43_12 C -0.000 0.627363 0.372637
C44_7 C 0.033894 0.609950 0.390050
H21_7 H 0.061727 0.616344 0.383656
C17_14 C 0.500 0.719722 0.219722
C18_11 C 0.462917 0.734861 0.234861
H10_11 H 0.437573 0.724514 0.224514
C19_14 C 0.500 0.687048 0.187048
C20_14 C 0.500 0.660037 0.160037
C21_14 C 0.500 0.627363 0.127363
C22_11 C 0.466106 0.609950 0.109950
H11_11 H 0.438273 0.616344 0.116344
C23_14 C 0.500 0.780278 0.280278
C24_11 C 0.462917 0.765139 0.265139
H12_11 H 0.437573 0.775486 0.275486
C25_14 C 0.500 0.812952 0.312952
C26_14 C 0.500 0.839963 0.339963
C27_14 C 0.500 0.872637 0.372637
C28_11 C 0.466106 0.890050 0.390050
H13_11 H 0.438273 0.883656 0.383656
C29_11 C 0.537083 0.765139 0.265139
H14_11 H 0.562427 0.775486 0.275486
C30_11 C 0.533894 0.890050 0.390050
H15_11 H 0.561727 0.883656 0.383656
C31_11 C 0.537083 0.734861 0.234861
H16_11 H 0.562427 0.724514 0.224514
C32_11 C 0.533894 0.609950 0.109950
H17_11 H 0.561727 0.616344 0.116344
C33_13 C 1.000 0.780278 0.219722
C35_13 C 1.000 0.812952 0.187048
C36_13 C 1.000 0.839963 0.160037
C37_13 C 1.000 0.872637 0.127363
C39_13 C 1.000 0.719722 0.280278
C41_13 C 1.000 0.687048 0.312952
C42_13 C 1.000 0.660037 0.339963
C43_13 C 1.000 0.627363 0.372637
C45_7 C 0.962917 0.734861 0.265139
H22_7 H 0.937573 0.724514 0.275486
C46_7 C 0.966106 0.609950 0.390050
H23_7 H 0.938273 0.616344 0.383656
C47_7 C 0.962917 0.765139 0.234861
H24_7 H 0.937573 0.775486 0.224514
C48_7 C 0.966106 0.890050 0.109950
H25_7 H 0.938273 0.883656 0.116344
C33_14 C 0.000 0.280278 0.719722
C34_8 C 0.037083 0.265139 0.734861
H18_8 H 0.062427 0.275486 0.724514
C35_14 C -0.000 0.312952 0.687048
C36_14 C 0.000 0.339963 0.660037
C37_14 C -0.000 0.372637 0.627363
C38_8 C 0.033894 0.390050 0.609950
H19_8 H 0.061727 0.383656 0.616344
C39_14 C -0.000 0.219722 0.780278
C40_8 C 0.037083 0.234861 0.765139
H20_8 H 0.062427 0.224514 0.775486
C41_14 C -0.000 0.187048 0.812952
C42_14 C 0.000 0.160037 0.839963
C43_14 C 0.000 0.127363 0.872637
C44_8 C 0.033894 0.109950 0.890050
H21_8 H 0.061727 0.116344 0.883656
C17_15 C 0.500 0.219722 0.719722
C18_12 C 0.462917 0.234861 0.734861
H10_12 H 0.437573 0.224514 0.724514
C19_15 C 0.500 0.187048 0.687048
C20_15 C 0.500 0.160037 0.660037
C21_15 C 0.500 0.127363 0.627363
C22_12 C 0.466106 0.109950 0.609950
H11_12 H 0.438273 0.116344 0.616344
C23_15 C 0.500 0.280278 0.780278
C24_12 C 0.462917 0.265139 0.765139
H12_12 H 0.437573 0.275486 0.775486
C25_15 C 0.500 0.312952 0.812952
C26_15 C 0.500 0.339963 0.839963
C27_15 C 0.500 0.372637 0.872637
C28_12 C 0.466106 0.390050 0.890050
H13_12 H 0.438273 0.383656 0.883656
C29_12 C 0.537083 0.265139 0.765139
H14_12 H 0.562427 0.275486 0.775486
C30_12 C 0.533894 0.390050 0.890050
H15_12 H 0.561727 0.383656 0.883656
C31_12 C 0.537083 0.234861 0.734861
H16_12 H 0.562427 0.224514 0.724514
C32_12 C 0.533894 0.109950 0.609950
H17_12 H 0.561727 0.116344 0.616344
C33_15 C 1.000 0.280278 0.719722
C35_15 C 1.000 0.312952 0.687048
C36_15 C 1.000 0.339963 0.660037
C37_15 C 1.000 0.372637 0.627363
C39_15 C 1.000 0.219722 0.780278
C41_15 C 1.000 0.187048 0.812952
C42_15 C 1.000 0.160037 0.839963
C43_15 C 1.000 0.127363 0.872637
C45_8 C 0.962917 0.234861 0.765139
H22_8 H 0.937573 0.224514 0.775486
C46_8 C 0.966106 0.109950 0.890050
H23_8 H 0.938273 0.116344 0.883656
C47_8 C 0.962917 0.265139 0.734861
H24_8 H 0.937573 0.275486 0.724514
C48_8 C 0.966106 0.390050 0.609950
H25_8 H 0.938273 0.383656 0.616344
H27_15 H 0.093425 0.500 0.500
H27_16 H 0.593425 0.000 0.500
H27_17 H 0.593425 1.000 0.500
H27_18 H 0.593425 0.500 0.000
H27_19 H 0.593425 0.500 1.000
loop_
_geom_bond_atom_site_label_1
_geom_bond_atom_site_label_2
_geom_bond_site_symmetry_1
_geom_bond_site_symmetry_2
Ni1 O1 1_555 1_555
O1 H1 1_555 1_555
C3 C1 1_555 1_555
C4 C3 1_555 1_555
C5 C4 1_555 1_555
C9 C7 1_555 1_555
C10 C9 1_555 1_555
C11 C10 1_555 1_555
C13 C7 1_555 1_555
H6 C13 1_555 1_555
C14 C11 1_555 1_555
H7 C14 1_555 1_555
N3 Ni1 1_555 1_555
C15 C1 1_555 1_555
H8 C15 1_555 1_555
C16 C5 1_555 1_555
H9 C16 1_555 1_555
Ni2 N4 1_555 1_555
C17 C18 1_555 1_555
C18 H10 1_555 1_555
C19 C17 1_555 1_555
C20 C19 1_555 1_555
C21 C20 1_555 1_555
C22 C21 1_555 1_555
H11 C22 1_555 1_555
N5 C22 1_555 1_555
C23 C24 1_555 1_555
C24 C18 1_555 1_555
H12 C24 1_555 1_555
C25 C23 1_555 1_555
C26 C25 1_555 1_555
C27 C26 1_555 1_555
C28 C27 1_555 1_555
H13 C28 1_555 1_555
N6 C28 1_555 1_555
C29 C23 1_555 1_555
H14 C29 1_555 1_555
C30 C27 1_555 1_555
H15 C30 1_555 1_555
N7 Ni2 1_555 1_555
C31 C17 1_555 1_555
H16 C31 1_555 1_555
C32 C21 1_555 1_555
H17 C32 1_555 1_555
N8 N5 1_555 1_555
Ni3 N11 1_555 1_555
C35 C33 1_555 1_555
C36 C35 1_555 1_555
C37 C36 1_555 1_555
C41 C39 1_555 1_555
C42 C41 1_555 1_555
C43 C42 1_555 1_555
C45 C39 1_555 1_555
H22 C45 1_555 1_555
C46 C43 1_555 1_555
H23 C46 1_555 1_555
C47 C33 1_555 1_555
H24 C47 1_555 1_555
C48 C37 1_555 1_555
H25 C48 1_555 1_555
N12 Ni1 1_555 1_555
O2 Ni1 1_555 1_555
H26 O2 1_555 1_555
O3 Ni1 1_555 1_555
H27 O3 1_555 1_555
Ni9 N6 1_555 1_555
Ni12 N8 1_555 1_555
Ni14 N5 1_555 1_555
O5 Ni3 1_555 1_555
O6 Ni2 1_555 1_555
O7 Ni2 1_555 1_555
O8 Ni3 1_555 1_555
O9 Ni2 1_555 1_555
O10 Ni3 1_555 1_555
N13 Ni1 1_555 1_555
N15 Ni3 1_555 1_555
N16 Ni2 1_555 1_555
N17 Ni3 1_555 1_555
C13 C15 1_555 1_555
C14 N3 1_555 1_555
C16 N4 1_555 1_555
N6 N7 1_555 1_555
C29 C31 1_555 1_555
C30 N7 1_555 1_555
C32 N8 1_555 1_555
C45 C47 1_555 1_555
C46 N11 1_555 1_555
C48 N12 1_555 1_555
Ni9 O6 1_555 1_555
Ni9 O9 1_555 1_555
O1_2 H1_2 1_555 1_555
C1_2 C2 1_555 1_555
C2 H2 1_555 1_555
C3_2 C1_2 1_555 1_555
C4_2 C3_2 1_555 1_555
C5_2 C4_2 1_555 1_555
C6 C5_2 1_555 1_555
H3 C6 1_555 1_555
N1 C6 1_555 1_555
C7_2 C8 1_555 1_555
C8 C2 1_555 1_555
H4 C8 1_555 1_555
C9_2 C7_2 1_555 1_555
C10_2 C9_2 1_555 1_555
C11_2 C10_2 1_555 1_555
C12 C11_2 1_555 1_555
H5 C12 1_555 1_555
N2 C12 1_555 1_555
H26_2 O2_2 1_555 1_555
Ni8 N1 1_555 1_555
Ni13 O1_2 1_555 1_555
N2 Ni13 1_555 1_555
O2_2 Ni13 1_555 1_555
Ni8 O6_2 1_555 1_555
Ni8 O7_2 1_555 1_555
O1_3 H1_3 1_555 1_555
C33_2 C34 1_555 1_555
C34 H18 1_555 1_555
C35_2 C33_2 1_555 1_555
C36_2 C35_2 1_555 1_555
C37_2 C36_2 1_555 1_555
C38 C37_2 1_555 1_555
H19 C38 1_555 1_555
N9 C38 1_555 1_555
C39_2 C40 1_555 1_555
C40 C34 1_555 1_555
H20 C40 1_555 1_555
C41_2 C39_2 1_555 1_555
C42_2 C41_2 1_555 1_555
C43_2 C42_2 1_555 1_555
C44 C43_2 1_555 1_555
H21 C44 1_555 1_555
N10 C44 1_555 1_555
H27_2 O3_2 1_555 1_555
Ni7 N10 1_555 1_555
Ni11 O1_3 1_555 1_555
N9 Ni11 1_555 1_555
O3_2 Ni11 1_555 1_555
Ni7 O5_2 1_555 1_555
Ni7 O8_2 1_555 1_555
O1_4 H1_4 1_555 1_555
Ni10 O1_4 1_555 1_555
Ni4 O2_3 1_555 1_555
H26_3 O2_3 1_555 1_555
H27_3 O3_3 1_555 1_555
O4 Ni4 1_555 1_555
N14 Ni4 1_555 1_555
N18 Ni4 1_555 1_555
N19 Ni4 1_555 1_555
Ni4 O3_3 1_555 1_555
H26_4 O2_4 1_555 1_555
Ni6 O2_4 1_555 1_555
Ni6 O4_2 1_555 1_555
H27_4 O3_4 1_555 1_555
Ni5 O3_4 1_555 1_555
Ni5 O4_3 1_555 1_555
Ni11 O2_5 1_555 1_555
H26_5 O2_5 1_555 1_555
N14_2 Ni11 1_555 1_555
N18_2 Ni11 1_555 1_555
H26_6 O2_6 1_555 1_555
Ni10 O2_6 1_555 1_555
O4 H1_5 1_555 1_555
C33_3 C34_2 1_555 1_555
C34_2 H18_2 1_555 1_555
C35_3 C33_3 1_555 1_555
C36_3 C35_3 1_555 1_555
C37_3 C36_3 1_555 1_555
C38_2 C37_3 1_555 1_555
H19_2 C38_2 1_555 1_555
N19 C38_2 1_555 1_555
C39_3 C40_2 1_555 1_555
C40_2 C34_2 1_555 1_555
H20_2 C40_2 1_555 1_555
C41_3 C39_3 1_555 1_555
C42_3 C41_3 1_555 1_555
C43_3 C42_3 1_555 1_555
C44_2 C43_3 1_555 1_555
H21_2 C44_2 1_555 1_555
N10_2 C44_2 1_555 1_555
Ni7_2 N10_2 1_555 1_555
Ni7_2 O5_3 1_555 1_555
Ni7_2 O8 1_555 1_555
O4_2 H1_6 1_555 1_555
O4_3 H1_7 1_555 1_555
C3_3 C1_3 1_555 1_555
C4_3 C3_3 1_555 1_555
C5_3 C4_3 1_555 1_555
C9_3 C7_3 1_555 1_555
C10_3 C9_3 1_555 1_555
C11_3 C10_3 1_555 1_555
C13_2 C7_3 1_555 1_555
H6_2 C13_2 1_555 1_555
C14_2 C11_3 1_555 1_555
H7_2 C14_2 1_555 1_555
N3_2 Ni5 1_555 1_555
C15_2 C1_3 1_555 1_555
H8_2 C15_2 1_555 1_555
C16_2 C5_3 1_555 1_555
H9_2 C16_2 1_555 1_555
Ni2_2 N4_2 1_555 1_555
C17_2 C18_2 1_555 1_555
C18_2 H10_2 1_555 1_555
C19_2 C17_2 1_555 1_555
C20_2 C19_2 1_555 1_555
C21_2 C20_2 1_555 1_555
C22_2 C21_2 1_555 1_555
H11_2 C22_2 1_555 1_555
N5_2 C22_2 1_555 1_555
C23_2 C24_2 1_555 1_555
C24_2 C18_2 1_555 1_555
H12_2 C24_2 1_555 1_555
C25_2 C23_2 1_555 1_555
C26_2 C25_2 1_555 1_555
C27_2 C26_2 1_555 1_555
C28_2 C27_2 1_555 1_555
H13_2 C28_2 1_555 1_555
N6_2 C28_2 1_555 1_555
C29_2 C23_2 1_555 1_555
H14_2 C29_2 1_555 1_555
C30_2 C27_2 1_555 1_555
H15_2 C30_2 1_555 1_555
N7_2 Ni2_2 1_555 1_555
C31_2 C17_2 1_555 1_555
H16_2 C31_2 1_555 1_555
C32_2 C21_2 1_555 1_555
H17_2 C32_2 1_555 1_555
N8_2 N5_2 1_555 1_555
Ni3_2 N11_2 1_555 1_555
C35_4 C33_4 1_555 1_555
C36_4 C35_4 1_555 1_555
C37_4 C36_4 1_555 1_555
C41_4 C39_4 1_555 1_555
C42_4 C41_4 1_555 1_555
C43_4 C42_4 1_555 1_555
C45_2 C39_4 1_555 1_555
H22_2 C45_2 1_555 1_555
C46_2 C43_4 1_555 1_555
H23_2 C46_2 1_555 1_555
C47_2 C33_4 1_555 1_555
H24_2 C47_2 1_555 1_555
C48_2 C37_4 1_555 1_555
H25_2 C48_2 1_555 1_555
N12_2 Ni5 1_555 1_555
O2_7 Ni5 1_555 1_555
H26_7 O2_7 1_555 1_555
Ni9_2 N6_2 1_555 1_555
Ni12_2 N8_2 1_555 1_555
Ni14_2 N5_2 1_555 1_555
O5_4 Ni3_2 1_555 1_555
O6_3 Ni2_2 1_555 1_555
O7_3 Ni2_2 1_555 1_555
O8_2 Ni3_2 1_555 1_555
O9 Ni2_2 1_555 1_555
O10_2 Ni3_2 1_555 1_555
N13_2 Ni5 1_555 1_555
N15_2 Ni3_2 1_555 1_555
N16_2 Ni2_2 1_555 1_555
N17_2 Ni3_2 1_555 1_555
C13_2 C15_2 1_555 1_555
C14_2 N3_2 1_555 1_555
C16_2 N4_2 1_555 1_555
N6_2 N7_2 1_555 1_555
C29_2 C31_2 1_555 1_555
C30_2 N7_2 1_555 1_555
C32_2 N8_2 1_555 1_555
C45_2 C47_2 1_555 1_555
C46_2 N11_2 1_555 1_555
C48_2 N12_2 1_555 1_555
Ni9_2 O6_3 1_555 1_555
Ni9_2 O9 1_555 1_555
O4_4 H1_8 1_555 1_555
C1_4 C2_2 1_555 1_555
C2_2 H2_2 1_555 1_555
C3_4 C1_4 1_555 1_555
C4_4 C3_4 1_555 1_555
C5_4 C4_4 1_555 1_555
C6_2 C5_4 1_555 1_555
H3_2 C6_2 1_555 1_555
N1_2 C6_2 1_555 1_555
C7_4 C8_2 1_555 1_555
C8_2 C2_2 1_555 1_555
H4_2 C8_2 1_555 1_555
C9_4 C7_4 1_555 1_555
C10_4 C9_4 1_555 1_555
C11_4 C10_4 1_555 1_555
C12_2 C11_4 1_555 1_555
H5_2 C12_2 1_555 1_555
N2_2 C12_2 1_555 1_555
H26_8 O2_8 1_555 1_555
Ni8_2 N1_2 1_555 1_555
Ni13_2 O4_4 1_555 1_555
N2_2 Ni13_2 1_555 1_555
O2_8 Ni13_2 1_555 1_555
Ni8_2 O6_4 1_555 1_555
Ni8_2 O7_4 1_555 1_555
Ni4_2 O2_9 1_555 1_555
H26_9 O2_9 1_555 1_555
H27_5 O3_5 1_555 1_555
Ni5_2 O3_5 1_555 1_555
Ni12 O2_9 1_555 1_555
O4_5 Ni4_2 1_555 1_555
N14_3 Ni4_2 1_555 1_555
N18_3 Ni4_2 1_555 1_555
N19_2 Ni4_2 1_555 1_555
Ni4_2 O3_5 1_555 1_555
Ni5_2 O4_5 1_555 1_555
Ni12 O4_5 1_555 1_555
Ni1_2 O1_5 1_555 1_555
O1_5 H1_9 1_555 1_555
C1_5 C2_3 1_555 1_555
C2_3 H2_3 1_555 1_555
C3_5 C1_5 1_555 1_555
C4_5 C3_5 1_555 1_555
C5_5 C4_5 1_555 1_555
C6_3 C5_5 1_555 1_555
H3_3 C6_3 1_555 1_555
N1_3 C6_3 1_555 1_555
C7_5 C8_3 1_555 1_555
C8_3 C2_3 1_555 1_555
H4_3 C8_3 1_555 1_555
C9_5 C7_5 1_555 1_555
C10_5 C9_5 1_555 1_555
C11_5 C10_5 1_555 1_555
C12_3 C11_5 1_555 1_555
H5_3 C12_3 1_555 1_555
N2_3 C12_3 1_555 1_555
C13_3 C7_5 1_555 1_555
H6_3 C13_3 1_555 1_555
C14_3 C11_5 1_555 1_555
H7_3 C14_3 1_555 1_555
N3_3 Ni1_2 1_555 1_555
C15_3 C1_5 1_555 1_555
H8_3 C15_3 1_555 1_555
C16_3 C5_5 1_555 1_555
H9_3 C16_3 1_555 1_555
N4_3 N1_3 1_555 1_555
Ni2_3 N4_3 1_555 1_555
C19_3 C17_3 1_555 1_555
C20_3 C19_3 1_555 1_555
C21_3 C20_3 1_555 1_555
C25_3 C23_3 1_555 1_555
C26_3 C25_3 1_555 1_555
C27_3 C26_3 1_555 1_555
C29_3 C23_3 1_555 1_555
H14_3 C29_3 1_555 1_555
C30_3 C27_3 1_555 1_555
H15_3 C30_3 1_555 1_555
N7_3 Ni2_3 1_555 1_555
C31_3 C17_3 1_555 1_555
H16_3 C31_3 1_555 1_555
C32_3 C21_3 1_555 1_555
H17_3 C32_3 1_555 1_555
Ni3_3 N11_3 1_555 1_555
C33_5 C34_3 1_555 1_555
C34_3 H18_3 1_555 1_555
C35_5 C33_5 1_555 1_555
C36_5 C35_5 1_555 1_555
C37_5 C36_5 1_555 1_555
C38_3 C37_5 1_555 1_555
H19_3 C38_3 1_555 1_555
N9_2 C38_3 1_555 1_555
C39_5 C40_3 1_555 1_555
C40_3 C34_3 1_555 1_555
H20_3 C40_3 1_555 1_555
C41_5 C39_5 1_555 1_555
C42_5 C41_5 1_555 1_555
C43_5 C42_5 1_555 1_555
C44_3 C43_5 1_555 1_555
H21_3 C44_3 1_555 1_555
N10_3 C44_3 1_555 1_555
C45_3 C39_5 1_555 1_555
H22_3 C45_3 1_555 1_555
C46_3 C43_5 1_555 1_555
H23_3 C46_3 1_555 1_555
N11_3 N10_3 1_555 1_555
C47_3 C33_5 1_555 1_555
H24_3 C47_3 1_555 1_555
C48_3 C37_5 1_555 1_555
H25_3 C48_3 1_555 1_555
N12_3 Ni1_2 1_555 1_555
O2_10 Ni1_2 1_555 1_555
H26_10 O2_10 1_555 1_555
O3_6 Ni1_2 1_555 1_555
H27_6 O3_6 1_555 1_555
Ni8_2 N10_3 1_555 1_555
Ni7_2 N1_3 1_555 1_555
Ni12_2 O1_5 1_555 1_555
Ni11_2 O1_5 1_555 1_555
Ni6 N8_3 1_555 1_555
Ni14_2 O1_5 1_555 1_555
O6_4 Ni3_3 1_555 1_555
O5_3 Ni2_3 1_555 1_555
O10 Ni2_3 1_555 1_555
O8_3 Ni3_3 1_555 1_555
O9_2 Ni2_3 1_555 1_555
O7_2 Ni3_3 1_555 1_555
N13_3 Ni1_2 1_555 1_555
N15_3 Ni3_3 1_555 1_555
N16_3 Ni2_3 1_555 1_555
N17_3 Ni3_3 1_555 1_555
N2_3 N3_3 1_555 1_555
N2_3 Ni14_2 1_555 1_555
C13_3 C15_3 1_555 1_555
C14_3 N3_3 1_555 1_555
C16_3 N4_3 1_555 1_555
C29_3 C31_3 1_555 1_555
C30_3 N7_3 1_555 1_555
C32_3 N8_3 1_555 1_555
N9_2 N12_3 1_555 1_555
N9_2 Ni11_2 1_555 1_555
C45_3 C47_3 1_555 1_555
C46_3 N11_3 1_555 1_555
C48_3 N12_3 1_555 1_555
O2_10 Ni14_2 1_555 1_555
O3_6 Ni11_2 1_555 1_555
Ni8_2 O8_3 1_555 1_555
Ni7_2 O10 1_555 1_555
C17_4 C18_3 1_555 1_555
C18_3 H10_3 1_555 1_555
C19_4 C17_4 1_555 1_555
C20_4 C19_4 1_555 1_555
C21_4 C20_4 1_555 1_555
C22_3 C21_4 1_555 1_555
H11_3 C22_3 1_555 1_555
N5_3 C22_3 1_555 1_555
C23_4 C24_3 1_555 1_555
C24_3 C18_3 1_555 1_555
H12_3 C24_3 1_555 1_555
C25_4 C23_4 1_555 1_555
C26_4 C25_4 1_555 1_555
C27_4 C26_4 1_555 1_555
C28_3 C27_4 1_555 1_555
H13_3 C28_3 1_555 1_555
N6_3 C28_3 1_555 1_555
Ni9_3 N6_3 1_555 1_555
Ni13_2 N5_3 1_555 1_555
Ni9_3 O5_4 1_555 1_555
Ni9_3 O9_3 1_555 1_555
H26_11 O2_11 1_555 1_555
Ni13 O2_11 1_555 1_555
Ni10 O2_12 1_555 1_555
H26_12 O2_12 1_555 1_555
N14_4 Ni10 1_555 1_555
N18_4 Ni10 1_555 1_555
N19_3 Ni10 1_555 1_555
H26_13 O2_13 1_555 1_555
O2_13 Ni6 1_555 1_555
C17_5 C18_4 1_555 1_555
C18_4 H10_4 1_555 1_555
C19_5 C17_5 1_555 1_555
C20_5 C19_5 1_555 1_555
C21_5 C20_5 1_555 1_555
C22_4 C21_5 1_555 1_555
H11_4 C22_4 1_555 1_555
N5_4 C22_4 1_555 1_555
C23_5 C24_4 1_555 1_555
C24_4 C18_4 1_555 1_555
H12_4 C24_4 1_555 1_555
C25_5 C23_5 1_555 1_555
C26_5 C25_5 1_555 1_555
C27_5 C26_5 1_555 1_555
C28_4 C27_5 1_555 1_555
H13_4 C28_4 1_555 1_555
N17_2 C28_4 1_555 1_555
C29_4 C23_5 1_555 1_555
H14_4 C29_4 1_555 1_555
C30_4 C27_5 1_555 1_555
H15_4 C30_4 1_555 1_555
N7_4 Ni9_3 1_555 1_555
C31_4 C17_5 1_555 1_555
H16_4 C31_4 1_555 1_555
C32_4 C21_5 1_555 1_555
H17_4 C32_4 1_555 1_555
N8_4 N5_4 1_555 1_555
O2_14 Ni13_2 1_555 1_555
H26_14 O2_14 1_555 1_555
Ni11_2 N8_4 1_555 1_555
Ni12_2 N5_4 1_555 1_555
O10_2 Ni9_3 1_555 1_555
N13_4 Ni13_2 1_555 1_555
N15_4 Ni8_2 1_555 1_555
N16_4 Ni9_3 1_555 1_555
N17_2 N7_4 1_555 1_555
C29_4 C31_4 1_555 1_555
C30_4 N7_4 1_555 1_555
C32_4 N8_4 1_555 1_555
Ni12 O2_15 1_555 1_555
H26_15 O2_15 1_555 1_555
Ni14 O2_15 1_555 1_555
N14_5 Ni12 1_555 1_555
N19_4 Ni12 1_555 1_555
Ni14 O4_5 1_555 1_555
C19_6 C17_6 1_555 1_555
C20_6 C19_6 1_555 1_555
C21_6 C20_6 1_555 1_555
C25_6 C23_6 1_555 1_555
C26_6 C25_6 1_555 1_555
C27_6 C26_6 1_555 1_555
C29_5 C23_6 1_555 1_555
H14_5 C29_5 1_555 1_555
C30_5 C27_6 1_555 1_555
H15_5 C30_5 1_555 1_555
N7_5 Ni9_2 1_555 1_555
C31_5 C17_6 1_555 1_555
H16_5 C31_5 1_555 1_555
C32_5 C21_6 1_555 1_555
H17_5 C32_5 1_555 1_555
O2_16 Ni14_2 1_555 1_555
H26_16 O2_16 1_555 1_555
O7 Ni9_2 1_555 1_555
N13_5 Ni14_2 1_555 1_555
N15_5 Ni7_2 1_555 1_555
N16_5 Ni9_2 1_555 1_555
C29_5 C31_5 1_555 1_555
C30_5 N7_5 1_555 1_555
C32_5 N18 1_555 1_555
O2_16 Ni12_2 1_555 1_555
C17_7 C18_5 1_555 1_555
C18_5 H10_5 1_555 1_555
C19_7 C17_7 1_555 1_555
C20_7 C19_7 1_555 1_555
C21_7 C20_7 1_555 1_555
C22_5 C21_7 1_555 1_555
H11_5 C22_5 1_555 1_555
N5_5 C22_5 1_555 1_555
C23_7 C24_5 1_555 1_555
C24_5 C18_5 1_555 1_555
H12_5 C24_5 1_555 1_555
C25_7 C23_7 1_555 1_555
C26_7 C25_7 1_555 1_555
C27_7 C26_7 1_555 1_555
C28_5 C27_7 1_555 1_555
H13_5 C28_5 1_555 1_555
N17_3 C28_5 1_555 1_555
Ni6 N5_5 1_555 1_555
H27_7 O3_7 1_555 1_555
Ni14 O3_7 1_555 1_555
N14_6 Ni5_2 1_555 1_555
N18_5 Ni5_2 1_555 1_555
N19_5 Ni5_2 1_555 1_555
Ni5_2 O3_7 1_555 1_555
O3_8 Ni11_2 1_555 1_555
H27_8 O3_8 1_555 1_555
N13_6 Ni11_2 1_555 1_555
O3_8 Ni12_2 1_555 1_555
N14_7 Ni13 1_555 1_555
N19_6 Ni13 1_555 1_555
N13_7 Ni6 1_555 1_555
N14_8 Ni14 1_555 1_555
N18_6 Ni14 1_555 1_555
N13_8 Ni12_2 1_555 1_555
O5 H1_10 1_555 1_555
C33_6 C34_4 1_555 1_555
C34_4 H18_4 1_555 1_555
C35_6 C33_6 1_555 1_555
C36_6 C35_6 1_555 1_555
C37_6 C36_6 1_555 1_555
C38_4 C37_6 1_555 1_555
H19_4 C38_4 1_555 1_555
N9_3 C38_4 1_555 1_555
C39_6 C40_4 1_555 1_555
C40_4 C34_4 1_555 1_555
H20_4 C40_4 1_555 1_555
C41_6 C39_6 1_555 1_555
C42_6 C41_6 1_555 1_555
C43_6 C42_6 1_555 1_555
C44_4 C43_6 1_555 1_555
H21_4 C44_4 1_555 1_555
N19_6 C44_4 1_555 1_555
H27_9 O9_2 1_555 1_555
Ni11_3 O5 1_555 1_555
N9_3 Ni11_3 1_555 1_555
O9_2 Ni11_3 1_555 1_555
Ni1_3 O5_2 1_555 1_555
O5_2 H1_11 1_555 1_555
C1_6 C2_4 1_555 1_555
C2_4 H2_4 1_555 1_555
C3_6 C1_6 1_555 1_555
C4_6 C3_6 1_555 1_555
C5_6 C4_6 1_555 1_555
C6_4 C5_6 1_555 1_555
H3_4 C6_4 1_555 1_555
N18_6 C6_4 1_555 1_555
C7_6 C8_4 1_555 1_555
C8_4 C2_4 1_555 1_555
H4_4 C8_4 1_555 1_555
C9_6 C7_6 1_555 1_555
C10_6 C9_6 1_555 1_555
C11_6 C10_6 1_555 1_555
C12_4 C11_6 1_555 1_555
H5_4 C12_4 1_555 1_555
N2_4 C12_4 1_555 1_555
C13_4 C7_6 1_555 1_555
H6_4 C13_4 1_555 1_555
C14_4 C11_6 1_555 1_555
H7_4 C14_4 1_555 1_555
N3_4 Ni1_3 1_555 1_555
C15_4 C1_6 1_555 1_555
H8_4 C15_4 1_555 1_555
C16_4 C5_6 1_555 1_555
H9_4 C16_4 1_555 1_555
N19_5 N18_6 1_555 1_555
C17_8 C18_6 1_555 1_555
C18_6 H10_6 1_555 1_555
C19_8 C17_8 1_555 1_555
C20_8 C19_8 1_555 1_555
C21_8 C20_8 1_555 1_555
C22_6 C21_8 1_555 1_555
H11_6 C22_6 1_555 1_555
N5_6 C22_6 1_555 1_555
C23_8 C24_6 1_555 1_555
C24_6 C18_6 1_555 1_555
H12_6 C24_6 1_555 1_555
C25_8 C23_8 1_555 1_555
C26_8 C25_8 1_555 1_555
C27_8 C26_8 1_555 1_555
C28_6 C27_8 1_555 1_555
H13_6 C28_6 1_555 1_555
N19_2 C28_6 1_555 1_555
C29_6 C23_8 1_555 1_555
H14_6 C29_6 1_555 1_555
C30_6 C27_8 1_555 1_555
H15_6 C30_6 1_555 1_555
C31_6 C17_8 1_555 1_555
H16_6 C31_6 1_555 1_555
C32_6 C21_8 1_555 1_555
H17_6 C32_6 1_555 1_555
N8_5 N5_6 1_555 1_555
C35_7 C33_7 1_555 1_555
C36_7 C35_7 1_555 1_555
C37_7 C36_7 1_555 1_555
C41_7 C39_7 1_555 1_555
C42_7 C41_7 1_555 1_555
C43_7 C42_7 1_555 1_555
C45_4 C39_7 1_555 1_555
H22_4 C45_4 1_555 1_555
C46_4 C43_7 1_555 1_555
H23_4 C46_4 1_555 1_555
C47_4 C33_7 1_555 1_555
H24_4 C47_4 1_555 1_555
C48_4 C37_7 1_555 1_555
H25_4 C48_4 1_555 1_555
N12_4 Ni1_3 1_555 1_555
O10_2 Ni1_3 1_555 1_555
H26_17 O10_2 1_555 1_555
O9_3 Ni1_3 1_555 1_555
H27_10 O9_3 1_555 1_555
Ni12_3 N8_5 1_555 1_555
Ni8 N5_6 1_555 1_555
N13_9 Ni1_3 1_555 1_555
N2_4 N3_4 1_555 1_555
N2_4 Ni7 1_555 1_555
C13_4 C15_4 1_555 1_555
C14_4 N3_4 1_555 1_555
C16_4 N19_5 1_555 1_555
N19_2 N18_5 1_555 1_555
C29_6 C31_6 1_555 1_555
C30_6 N18_5 1_555 1_555
C32_6 N8_5 1_555 1_555
C45_4 C47_4 1_555 1_555
C46_4 N18_4 1_555 1_555
C48_4 N12_4 1_555 1_555
O10_2 Ni7 1_555 1_555
N13_9 N16_4 1_555 1_555
O6 H1_12 1_555 1_555
H26_18 O7 1_555 1_555
H27_11 O9 1_555 1_555
N16 N16_5 1_555 1_555
O6_2 H1_13 1_555 1_555
H26_19 O7_2 1_555 1_555
Ni12_3 O6_2 1_555 1_555
H26_20 O8 1_555 1_555
C19_9 C17_9 1_555 1_555
C20_9 C19_9 1_555 1_555
C21_9 C20_9 1_555 1_555
C25_9 C23_9 1_555 1_555
C26_9 C25_9 1_555 1_555
C27_9 C26_9 1_555 1_555
C29_7 C23_9 1_555 1_555
H14_7 C29_7 1_555 1_555
C30_7 C27_9 1_555 1_555
H15_7 C30_7 1_555 1_555
C31_7 C17_9 1_555 1_555
H16_7 C31_7 1_555 1_555
C32_7 C21_9 1_555 1_555
H17_7 C32_7 1_555 1_555
H26_21 O8_2 1_555 1_555
Ni9 N8_6 1_555 1_555
N13_10 Ni7 1_555 1_555
C29_7 C31_7 1_555 1_555
C30_7 N18_2 1_555 1_555
C32_7 N8_6 1_555 1_555
N13_10 N15_2 1_555 1_555
C17_10 C18_7 1_555 1_555
C18_7 H10_7 1_555 1_555
C19_10 C17_10 1_555 1_555
C20_10 C19_10 1_555 1_555
C21_10 C20_10 1_555 1_555
C22_7 C21_10 1_555 1_555
H11_7 C22_7 1_555 1_555
N5_7 C22_7 1_555 1_555
C23_10 C24_7 1_555 1_555
C24_7 C18_7 1_555 1_555
H12_7 C24_7 1_555 1_555
C25_10 C23_10 1_555 1_555
C26_10 C25_10 1_555 1_555
C27_10 C26_10 1_555 1_555
C28_7 C27_10 1_555 1_555
H13_7 C28_7 1_555 1_555
N19_3 C28_7 1_555 1_555
Ni12_3 N5_7 1_555 1_555
C17_11 C18_8 1_555 1_555
C18_8 H10_8 1_555 1_555
C19_11 C17_11 1_555 1_555
C20_11 C19_11 1_555 1_555
C21_11 C20_11 1_555 1_555
C22_8 C21_11 1_555 1_555
H11_8 C22_8 1_555 1_555
N17 C22_8 1_555 1_555
C23_11 C24_8 1_555 1_555
C24_8 C18_8 1_555 1_555
H12_8 C24_8 1_555 1_555
C25_11 C23_11 1_555 1_555
C26_11 C25_11 1_555 1_555
C27_11 C26_11 1_555 1_555
C28_8 C27_11 1_555 1_555
H13_8 C28_8 1_555 1_555
N19_4 C28_8 1_555 1_555
C29_8 C23_11 1_555 1_555
H14_8 C29_8 1_555 1_555
C30_8 C27_11 1_555 1_555
H15_8 C30_8 1_555 1_555
C31_8 C17_11 1_555 1_555
H16_8 C31_8 1_555 1_555
C32_8 C21_11 1_555 1_555
H17_8 C32_8 1_555 1_555
N8_7 N17 1_555 1_555
O8_3 Ni8 1_555 1_555
H26_22 O8_3 1_555 1_555
Ni11_3 N8_7 1_555 1_555
N13_11 Ni8 1_555 1_555
N19_4 N18_3 1_555 1_555
C29_8 C31_8 1_555 1_555
C30_8 N18_3 1_555 1_555
C32_8 N8_7 1_555 1_555
O8_3 Ni12_3 1_555 1_555
N13_11 N15_3 1_555 1_555
O10 Ni11_3 1_555 1_555
H27_12 O10 1_555 1_555
N13_12 Ni11_3 1_555 1_555
N13_12 N16_3 1_555 1_555
O7_3 Ni9 1_555 1_555
H27_13 O7_3 1_555 1_555
N13_13 Ni9 1_555 1_555
N13_13 N16_2 1_555 1_555
H27_14 O7_4 1_555 1_555
O7_4 Ni12_3 1_555 1_555
N15 N15_5 1_555 1_555
N13_14 Ni12_3 1_555 1_555
N13_14 N15_4 1_555 1_555
C33_8 C34_5 1_555 1_555
C34_5 H18_5 1_555 1_555
C35_8 C33_8 1_555 1_555
C36_8 C35_8 1_555 1_555
C37_8 C36_8 1_555 1_555
C38_5 C37_8 1_555 1_555
H19_5 C38_5 1_555 1_555
N14_4 C38_5 1_555 1_555
C39_8 C40_5 1_555 1_555
C40_5 C34_5 1_555 1_555
H20_5 C40_5 1_555 1_555
C41_8 C39_8 1_555 1_555
C42_8 C41_8 1_555 1_555
C43_8 C42_8 1_555 1_555
C44_5 C43_8 1_555 1_555
H21_5 C44_5 1_555 1_555
N14_6 C44_5 1_555 1_555
C17_12 C18_9 1_555 1_555
C18_9 H10_9 1_555 1_555
C19_12 C17_12 1_555 1_555
C20_12 C19_12 1_555 1_555
C21_12 C20_12 1_555 1_555
C22_9 C21_12 1_555 1_555
H11_9 C22_9 1_555 1_555
N13_9 C22_9 1_555 1_555
C23_12 C24_9 1_555 1_555
C24_9 C18_9 1_555 1_555
H12_9 C24_9 1_555 1_555
C25_12 C23_12 1_555 1_555
C26_12 C25_12 1_555 1_555
C27_12 C26_12 1_555 1_555
C28_9 C27_12 1_555 1_555
H13_9 C28_9 1_555 1_555
N13_14 C28_9 1_555 1_555
C29_9 C23_12 1_555 1_555
H14_9 C29_9 1_555 1_555
C30_9 C27_12 1_555 1_555
H15_9 C30_9 1_555 1_555
C31_9 C17_12 1_555 1_555
H16_9 C31_9 1_555 1_555
C32_9 C21_12 1_555 1_555
H17_9 C32_9 1_555 1_555
C35_9 C33_9 1_555 1_555
C36_9 C35_9 1_555 1_555
C37_9 C36_9 1_555 1_555
C41_9 C39_9 1_555 1_555
C42_9 C41_9 1_555 1_555
C43_9 C42_9 1_555 1_555
C45_5 C39_9 1_555 1_555
H22_5 C45_5 1_555 1_555
C46_5 C43_9 1_555 1_555
H23_5 C46_5 1_555 1_555
C47_5 C33_9 1_555 1_555
H24_5 C47_5 1_555 1_555
C48_5 C37_9 1_555 1_555
H25_5 C48_5 1_555 1_555
C29_9 C31_9 1_555 1_555
C30_9 N15_4 1_555 1_555
C32_9 N16_4 1_555 1_555
C45_5 C47_5 1_555 1_555
C46_5 N13_6 1_555 1_555
C48_5 N13_4 1_555 1_555
C33_10 C34_6 1_555 1_555
C34_6 H18_6 1_555 1_555
C35_10 C33_10 1_555 1_555
C36_10 C35_10 1_555 1_555
C37_10 C36_10 1_555 1_555
C38_6 C37_10 1_555 1_555
H19_6 C38_6 1_555 1_555
N14_5 C38_6 1_555 1_555
C39_10 C40_6 1_555 1_555
C40_6 C34_6 1_555 1_555
H20_6 C40_6 1_555 1_555
C41_10 C39_10 1_555 1_555
C42_10 C41_10 1_555 1_555
C43_10 C42_10 1_555 1_555
C44_6 C43_10 1_555 1_555
H21_6 C44_6 1_555 1_555
N13 C44_6 1_555 1_555
C17_13 C18_10 1_555 1_555
C18_10 H10_10 1_555 1_555
C19_13 C17_13 1_555 1_555
C20_13 C19_13 1_555 1_555
C21_13 C20_13 1_555 1_555
C22_10 C21_13 1_555 1_555
H11_10 C22_10 1_555 1_555
N16 C22_10 1_555 1_555
C23_13 C24_10 1_555 1_555
C24_10 C18_10 1_555 1_555
H12_10 C24_10 1_555 1_555
C25_13 C23_13 1_555 1_555
C26_13 C25_13 1_555 1_555
C27_13 C26_13 1_555 1_555
C28_10 C27_13 1_555 1_555
H13_10 C28_10 1_555 1_555
N15 C28_10 1_555 1_555
C29_10 C23_13 1_555 1_555
H14_10 C29_10 1_555 1_555
C30_10 C27_13 1_555 1_555
H15_10 C30_10 1_555 1_555
C31_10 C17_13 1_555 1_555
H16_10 C31_10 1_555 1_555
C32_10 C21_13 1_555 1_555
H17_10 C32_10 1_555 1_555
C35_11 C33_11 1_555 1_555
C36_11 C35_11 1_555 1_555
C37_11 C36_11 1_555 1_555
C41_11 C39_11 1_555 1_555
C42_11 C41_11 1_555 1_555
C43_11 C42_11 1_555 1_555
C45_6 C39_11 1_555 1_555
H22_6 C45_6 1_555 1_555
C46_6 C43_11 1_555 1_555
H23_6 C46_6 1_555 1_555
C47_6 C33_11 1_555 1_555
H24_6 C47_6 1_555 1_555
C48_6 C37_11 1_555 1_555
H25_6 C48_6 1_555 1_555
C29_10 C31_10 1_555 1_555
C30_10 N15_5 1_555 1_555
C32_10 N16_5 1_555 1_555
C45_6 C47_6 1_555 1_555
C46_6 N14 1_555 1_555
C48_6 N13_5 1_555 1_555
C33_12 C34_7 1_555 1_555
C34_7 H18_7 1_555 1_555
C35_12 C33_12 1_555 1_555
C36_12 C35_12 1_555 1_555
C37_12 C36_12 1_555 1_555
C38_7 C37_12 1_555 1_555
H19_7 C38_7 1_555 1_555
N14_2 C38_7 1_555 1_555
C39_12 C40_7 1_555 1_555
C40_7 C34_7 1_555 1_555
H20_7 C40_7 1_555 1_555
C41_12 C39_12 1_555 1_555
C42_12 C41_12 1_555 1_555
C43_12 C42_12 1_555 1_555
C44_7 C43_12 1_555 1_555
H21_7 C44_7 1_555 1_555
N14_8 C44_7 1_555 1_555
C17_14 C18_11 1_555 1_555
C18_11 H10_11 1_555 1_555
C19_14 C17_14 1_555 1_555
C20_14 C19_14 1_555 1_555
C21_14 C20_14 1_555 1_555
C22_11 C21_14 1_555 1_555
H11_11 C22_11 1_555 1_555
N13_13 C22_11 1_555 1_555
C23_14 C24_11 1_555 1_555
C24_11 C18_11 1_555 1_555
H12_11 C24_11 1_555 1_555
C25_14 C23_14 1_555 1_555
C26_14 C25_14 1_555 1_555
C27_14 C26_14 1_555 1_555
C28_11 C27_14 1_555 1_555
H13_11 C28_11 1_555 1_555
N13_10 C28_11 1_555 1_555
C29_11 C23_14 1_555 1_555
H14_11 C29_11 1_555 1_555
C30_11 C27_14 1_555 1_555
H15_11 C30_11 1_555 1_555
C31_11 C17_14 1_555 1_555
H16_11 C31_11 1_555 1_555
C32_11 C21_14 1_555 1_555
H17_11 C32_11 1_555 1_555
C35_13 C33_13 1_555 1_555
C36_13 C35_13 1_555 1_555
C37_13 C36_13 1_555 1_555
C41_13 C39_13 1_555 1_555
C42_13 C41_13 1_555 1_555
C43_13 C42_13 1_555 1_555
C45_7 C39_13 1_555 1_555
H22_7 C45_7 1_555 1_555
C46_7 C43_13 1_555 1_555
H23_7 C46_7 1_555 1_555
C47_7 C33_13 1_555 1_555
H24_7 C47_7 1_555 1_555
C48_7 C37_13 1_555 1_555
H25_7 C48_7 1_555 1_555
C29_11 C31_11 1_555 1_555
C30_11 N15_2 1_555 1_555
C32_11 N16_2 1_555 1_555
C45_7 C47_7 1_555 1_555
C46_7 N13_8 1_555 1_555
C48_7 N13_2 1_555 1_555
C33_14 C34_8 1_555 1_555
C34_8 H18_8 1_555 1_555
C35_14 C33_14 1_555 1_555
C36_14 C35_14 1_555 1_555
C37_14 C36_14 1_555 1_555
C38_8 C37_14 1_555 1_555
H19_8 C38_8 1_555 1_555
N14_3 C38_8 1_555 1_555
C39_14 C40_8 1_555 1_555
C40_8 C34_8 1_555 1_555
H20_8 C40_8 1_555 1_555
C41_14 C39_14 1_555 1_555
C42_14 C41_14 1_555 1_555
C43_14 C42_14 1_555 1_555
C44_8 C43_14 1_555 1_555
H21_8 C44_8 1_555 1_555
N14_7 C44_8 1_555 1_555
C17_15 C18_12 1_555 1_555
C18_12 H10_12 1_555 1_555
C19_15 C17_15 1_555 1_555
C20_15 C19_15 1_555 1_555
C21_15 C20_15 1_555 1_555
C22_12 C21_15 1_555 1_555
H11_12 C22_12 1_555 1_555
N13_12 C22_12 1_555 1_555
C23_15 C24_12 1_555 1_555
C24_12 C18_12 1_555 1_555
H12_12 C24_12 1_555 1_555
C25_15 C23_15 1_555 1_555
C26_15 C25_15 1_555 1_555
C27_15 C26_15 1_555 1_555
C28_12 C27_15 1_555 1_555
H13_12 C28_12 1_555 1_555
N13_11 C28_12 1_555 1_555
C29_12 C23_15 1_555 1_555
H14_12 C29_12 1_555 1_555
C30_12 C27_15 1_555 1_555
H15_12 C30_12 1_555 1_555
C31_12 C17_15 1_555 1_555
H16_12 C31_12 1_555 1_555
C32_12 C21_15 1_555 1_555
H17_12 C32_12 1_555 1_555
C35_15 C33_15 1_555 1_555
C36_15 C35_15 1_555 1_555
C37_15 C36_15 1_555 1_555
C41_15 C39_15 1_555 1_555
C42_15 C41_15 1_555 1_555
C43_15 C42_15 1_555 1_555
C45_8 C39_15 1_555 1_555
H22_8 C45_8 1_555 1_555
C46_8 C43_15 1_555 1_555
H23_8 C46_8 1_555 1_555
C47_8 C33_15 1_555 1_555
H24_8 C47_8 1_555 1_555
C48_8 C37_15 1_555 1_555
H25_8 C48_8 1_555 1_555
C29_12 C31_12 1_555 1_555
C30_12 N15_3 1_555 1_555
C32_12 N16_3 1_555 1_555
C45_8 C47_8 1_555 1_555
C46_8 N13_7 1_555 1_555
C48_8 N13_3 1_555 1_555
H27_15 O4_5 1_555 1_555
H27_16 O5_3 1_555 1_555
H27_17 O5_4 1_555 1_555
H27_18 O6_3 1_555 1_555
H27_19 O6_4 1_555 1_555

#END
