
###############################################################################
#
# This file contains modified crystal structure data generated from the
# MOF subset of the Cambridge Structural Database (CSD) v543 
# hosted by the Cambridge Crystallographic Data Centre (CCDC).
#
# This work is licensed under the Creative Commons
# Attribution-NonCommercial-ShareAlike 4.0 International License.
# To view a copy of this license, visit
# http://creativecommons.org/licenses/by-nc-sa/4.0/
# or send a letter to
# Creative Commons, PO Box 1866, Mountain View, CA 94042, USA.
#
# CIF created using the CSD Python API on 29 September 2022
# The structure has been converted into the P1 space group
# The structure has a 3D framework
# The original CSD entry BICPUA is in the hexagonal crystal system
# The framework has been calculated to contain at least 10.0% void space
# The void calculation uses a probe of radius 1.32A, grid spacing 0.4
# H atom positions have been added when not included in the experimental data
# Generated hydrogen atom positions removed from atoms on special positions
#
###############################################################################

data_BICPUA
_chemical_formula_moiety         '(C168 H138 O32 Yb6)n'
_symmetry_cell_setting           triclinic
_symmetry_space_group_name_H-M   'P 1'
_symmetry_Int_Tables_number      1
_space_group_name_Hall           'P 1'
loop_
_symmetry_equiv_pos_site_id
_symmetry_equiv_pos_as_xyz
1 x,y,z
_cell_length_a                   19.8480(2)
_cell_length_b                   19.8480(2)
_cell_length_c                   27.8530(5)
_cell_angle_alpha                90
_cell_angle_beta                 90
_cell_angle_gamma                120
_cell_volume                     9502.46
loop_
_atom_site_label
_atom_site_type_symbol
_atom_site_fract_x
_atom_site_fract_y
_atom_site_fract_z
Yb1 Yb 0.41967(3) 0.63427(3) 0.2500
O1 O 0.3562(6) 0.5426(6) 0.1951(3)
O2 O 0.2311(6) 0.5098(5) 0.1946(3)
O3 O 0.3333 0.6667 0.2500
O4 O 0.5138(10) 0.6022(12) 0.2500
C1 C 0.2885(10) 0.5028(8) 0.1805(4)
C2 C 0.2726(7) 0.4434(6) 0.1415(3)
C3 C 0.1996(8) 0.3986(8) 0.1226(5)
H1 H 0.1592 0.4055 0.1336
C4 C 0.1847(7) 0.3441(7) 0.0879(4)
H2 H 0.1345 0.3139 0.0760
C5 C 0.2432(6) 0.3340(6) 0.0709(4)
C6 C 0.3169(7) 0.3792(7) 0.0892(5)
H3 H 0.3576 0.3730 0.0779
C7 C 0.3307(7) 0.4340(7) 0.1244(4)
H4 H 0.3808 0.4647 0.1363
C8 C 0.2848(6) 0.2848(6) 0.0000
H5 H 0.3316 0.3316 0.0000
C9 C 0.2284(6) 0.2727(6) 0.0342(3)
C10 C 0.1589(5) 0.2035(5) 0.0331(3)
H6 H 0.1201 0.1953 0.0550
C11 C 0.1455(6) 0.1455(6) 0.0000
C12 C 0.0699(6) 0.0699(6) 0.0000
C13 C 0.0000 0.0699(6) 0.0000
H7 H 0.0000 0.1168 0.0000
C39 C 0.0699(6) 0.0000 0.0000
H21 H 0.1168 0.0000 0.0000
Yb3 Yb 0.21460(4) 0.58033(3) 0.2500
O16 O 0.0884(16) 0.4862(10) 0.2500
Yb7 Yb 0.36573(3) 0.78540(4) 0.2500
O18 O 0.1864(8) 0.6438(6) 0.3049(3)
O19 O 0.3562(6) 0.5426(6) 0.3049(3)
O20 O 0.1864(8) 0.6438(6) 0.1951(3)
O22 O 0.4902(5) 0.7213(8) 0.1946(3)
O24 O 0.2311(6) 0.5098(5) 0.3054(3)
O25 O 0.4902(5) 0.7213(8) 0.3054(3)
C8_2 C 0.2848(6) 0.2848(6) 1.0000
H5_2 H 0.3316 0.3316 1.0000
C11_2 C 0.1455(6) 0.1455(6) 1.0000
C12_2 C 0.0699(6) 0.0699(6) 1.0000
C13_2 C 0.0000 0.0699(6) 1.0000
H7_2 H 0.0000 0.1168 1.0000
C39_2 C 0.0699(6) 0.0000 1.0000
H21_2 H 0.1168 0.0000 1.0000
O9 O 0.5426(6) 0.3562(6) 0.8049(3)
O10 O 0.5098(5) 0.2311(6) 0.8054(3)
C40 C 0.5028(8) 0.2885(10) 0.8195(4)
C41 C 0.4434(6) 0.2726(7) 0.8585(3)
C42 C 0.3986(8) 0.1996(8) 0.8774(5)
H22 H 0.4055 0.1592 0.8664
C43 C 0.3441(7) 0.1847(7) 0.9121(4)
H23 H 0.3139 0.1345 0.9240
C44 C 0.3340(6) 0.2432(6) 0.9291(4)
C45 C 0.3792(7) 0.3169(7) 0.9108(5)
H24 H 0.3730 0.3576 0.9221
C46 C 0.4340(7) 0.3307(7) 0.8756(4)
H25 H 0.4647 0.3808 0.8637
C47 C 0.2727(6) 0.2284(6) 0.9658(3)
C48 C 0.2035(5) 0.1589(5) 0.9669(3)
H26 H 0.1953 0.1201 0.9450
Yb9 Yb 0.63427(3) 0.41967(3) 0.7500
Yb13 Yb 0.58033(3) 0.21460(4) 0.7500
O8 O 0.2787(8) 0.7689(6) 0.1946(3)
C27 C 0.2143(13) 0.7115(10) 0.1805(4)
C28 C 0.1708(9) 0.7274(7) 0.1415(3)
C29 C 0.1990(11) 0.8004(8) 0.1226(5)
H15 H 0.2463 0.8408 0.1336
C30 C 0.1594(10) 0.8153(7) 0.0879(4)
H16 H 0.1794 0.8655 0.0760
C31 C 0.0908(8) 0.7568(6) 0.0709(4)
C32 C 0.0623(10) 0.6831(7) 0.0892(5)
H17 H 0.0154 0.6424 0.0779
C33 C 0.1033(10) 0.6693(7) 0.1244(4)
H18 H 0.0839 0.6192 0.1363
C34 C 0.0000(8) 0.7152(6) 0.0000
H19 H 0.0000 0.6684 0.0000
C35 C 0.0443(8) 0.7716(6) 0.0342(3)
C36 C 0.0446(7) 0.8411(5) 0.0331(3)
H20 H 0.0752 0.8799 0.0550
C37 C 0.0000(8) 0.8545(6) 0.0000
C38 C 0.0000(8) 0.9301(6) 0.0000
C39_3 C 0.0699(6) 1.0000 0.0000
H21_3 H 0.1168 1.0000 0.0000
C13_3 C 1.0000 0.0699(6) 1.0000
H7_3 H 1.0000 0.1168 1.0000
C21 C 0.7152(6) 0.0000(8) 1.0000
H12 H 0.6684 0.0000 1.0000
C24 C 0.8545(6) 0.0000(8) 1.0000
C25 C 0.9301(6) 0.0000(8) 1.0000
O11 O 0.6438(6) 0.1864(8) 0.8049(3)
O12 O 0.7689(6) 0.2787(8) 0.8054(3)
C49 C 0.7115(10) 0.2143(13) 0.8195(4)
C50 C 0.7274(7) 0.1708(9) 0.8585(3)
C51 C 0.8004(8) 0.1990(11) 0.8774(5)
H27 H 0.8408 0.2463 0.8664
C52 C 0.8153(7) 0.1594(10) 0.9121(4)
H28 H 0.8655 0.1794 0.9240
C53 C 0.7568(6) 0.0908(8) 0.9291(4)
C54 C 0.6831(7) 0.0623(10) 0.9108(5)
H29 H 0.6424 0.0154 0.9221
C55 C 0.6693(7) 0.1033(10) 0.8756(4)
H30 H 0.6192 0.0839 0.8637
C56 C 0.7716(6) 0.0443(8) 0.9658(3)
C57 C 0.8411(5) 0.0446(7) 0.9669(3)
H31 H 0.8799 0.0752 0.9450
Yb11 Yb 0.78540(4) 0.36573(3) 0.7500
O5 O 0.4574(6) 0.8136(8) 0.1951(3)
C14 C 0.4972(8) 0.7857(13) 0.1805(4)
C15 C 0.5566(6) 0.8292(9) 0.1415(3)
C16 C 0.6014(8) 0.8010(11) 0.1226(5)
H8 H 0.5945 0.7537 0.1336
C17 C 0.6559(7) 0.8406(10) 0.0879(4)
H9 H 0.6861 0.8206 0.0760
C18 C 0.6660(6) 0.9092(8) 0.0709(4)
C19 C 0.6208(7) 0.9377(10) 0.0892(5)
H10 H 0.6270 0.9846 0.0779
C20 C 0.5660(7) 0.8967(10) 0.1244(4)
H11 H 0.5353 0.9161 0.1363
C21_2 C 0.7152(6) 1.0000(8) 0.0000
H12_2 H 0.6684 1.0000 0.0000
C22 C 0.7273(6) 0.9557(8) 0.0342(3)
C23 C 0.7965(5) 0.9554(7) 0.0331(3)
H13 H 0.8047 0.9248 0.0550
C24_2 C 0.8545(6) 1.0000(8) 0.0000
C25_2 C 0.9301(6) 1.0000(8) 0.0000
C26 C 0.9301(6) 0.9301(6) 0.0000
H14 H 0.8832 0.8832 0.0000
C34_2 C 1.0000(8) 0.7152(6) 0.0000
H19_2 H 1.0000 0.6684 0.0000
C37_2 C 1.0000(8) 0.8545(6) 0.0000
C38_2 C 1.0000(8) 0.9301(6) 0.0000
C21_3 C 0.7152(6) 1.0000(8) 1.0000
H12_3 H 0.6684 1.0000 1.0000
C24_3 C 0.8545(6) 1.0000(8) 1.0000
C25_3 C 0.9301(6) 1.0000(8) 1.0000
C26_2 C 0.9301(6) 0.9301(6) 1.0000
H14_2 H 0.8832 0.8832 1.0000
C34_3 C 1.0000(8) 0.7152(6) 1.0000
H19_3 H 1.0000 0.6684 1.0000
C37_3 C 1.0000(8) 0.8545(6) 1.0000
C38_3 C 1.0000(8) 0.9301(6) 1.0000
O13 O 0.8136(8) 0.4574(6) 0.8049(3)
O14 O 0.7213(8) 0.4902(5) 0.8054(3)
C58 C 0.7857(13) 0.4972(8) 0.8195(4)
C59 C 0.8292(9) 0.5566(6) 0.8585(3)
C60 C 0.8010(11) 0.6014(8) 0.8774(5)
H32 H 0.7537 0.5945 0.8664
C61 C 0.8406(10) 0.6559(7) 0.9121(4)
H33 H 0.8206 0.6861 0.9240
C62 C 0.9092(8) 0.6660(6) 0.9291(4)
C63 C 0.9377(10) 0.6208(7) 0.9108(5)
H34 H 0.9846 0.6270 0.9221
C64 C 0.8967(10) 0.5660(7) 0.8756(4)
H35 H 0.9161 0.5353 0.8637
C65 C 0.9557(8) 0.7273(6) 0.9658(3)
C66 C 0.9554(7) 0.7965(5) 0.9669(3)
H36 H 0.9248 0.8047 0.9450
C13_4 C 0.0699(6) -0.0000 0.5000
H7_4 H 0.1168 -0.0000 0.5000
C14_2 C 0.2885(15) 0.5028(8) 0.3195(4)
C15_2 C 0.2726(11) 0.4434(6) 0.3585(3)
C16_2 C 0.1996(14) 0.3986(8) 0.3774(5)
H8_2 H 0.1592 0.4055 0.3664
C17_2 C 0.1847(12) 0.3441(7) 0.4121(4)
H9_2 H 0.1345 0.3139 0.4240
C18_2 C 0.2432(10) 0.3340(6) 0.4291(4)
C19_2 C 0.3169(12) 0.3792(7) 0.4108(5)
H10_2 H 0.3576 0.3730 0.4221
C20_2 C 0.3307(12) 0.4340(7) 0.3756(4)
H11_2 H 0.3808 0.4647 0.3637
C21_4 C 0.2848(10) 0.2848(6) 0.5000
H12_4 H 0.3316 0.3316 0.5000
C22_2 C 0.2284(10) 0.2727(6) 0.4658(3)
C23_2 C 0.1589(9) 0.2035(5) 0.4669(3)
H13_2 H 0.1201 0.1953 0.4450
C24_4 C 0.1455(10) 0.1455(6) 0.5000
C25_4 C 0.0699(10) 0.0699(6) 0.5000
C26_3 C 0.0000(8) 0.0699(6) 0.5000
H14_3 H 0.0000 0.1168 0.5000
O11_2 O 0.5426(10) 0.3562(6) 0.6951(3)
O12_2 O 0.5098(10) 0.2311(6) 0.6946(3)
C49_2 C 0.5028(16) 0.2885(10) 0.6805(4)
C50_2 C 0.4434(11) 0.2726(7) 0.6415(3)
C51_2 C 0.3986(14) 0.1996(8) 0.6226(5)
H27_2 H 0.4055 0.1592 0.6336
C52_2 C 0.3441(12) 0.1847(7) 0.5879(4)
H28_2 H 0.3139 0.1345 0.5760
C53_2 C 0.3340(10) 0.2432(6) 0.5709(4)
C54_2 C 0.3792(12) 0.3169(7) 0.5892(5)
H29_2 H 0.3730 0.3576 0.5779
C55_2 C 0.4340(12) 0.3307(7) 0.6244(4)
H30_2 H 0.4647 0.3808 0.6363
C56_2 C 0.2727(10) 0.2284(6) 0.5342(3)
C57_2 C 0.2035(9) 0.1589(5) 0.5331(3)
H31_2 H 0.1953 0.1201 0.5550
O2_2 O 0.2787(8) 0.7689(6) 0.3054(3)
C1_2 C 0.2143(13) 0.7115(10) 0.3195(4)
C2_2 C 0.1708(9) 0.7274(7) 0.3585(3)
C3_2 C 0.1990(11) 0.8004(8) 0.3774(5)
H1_2 H 0.2463 0.8408 0.3664
C4_2 C 0.1594(10) 0.8153(7) 0.4121(4)
H2_2 H 0.1794 0.8655 0.4240
C5_2 C 0.0908(8) 0.7568(6) 0.4291(4)
C6_2 C 0.0623(10) 0.6831(7) 0.4108(5)
H3_2 H 0.0154 0.6424 0.4221
C7_2 C 0.1033(10) 0.6693(7) 0.3756(4)
H4_2 H 0.0839 0.6192 0.3637
C8_3 C 0.0000(8) 0.7152(6) 0.5000
H5_3 H 0.0000 0.6684 0.5000
C9_2 C 0.0443(8) 0.7716(6) 0.4658(3)
C10_2 C 0.0446(7) 0.8411(5) 0.4669(3)
H6_2 H 0.0752 0.8799 0.4450
C11_3 C 0.0000(8) 0.8545(6) 0.5000
C12_3 C -0.0000(8) 0.9301(6) 0.5000
C13_5 C 0.0699(6) 1.0000 0.5000
H7_5 H 0.1168 1.0000 0.5000
O16_2 O 0.3978(19) 0.9116(16) 0.2500
O20_2 O 0.4574(10) 0.8136(8) 0.3049(3)
C26_4 C 1.0000(8) 0.0699(6) 0.5000
H14_4 H 1.0000 0.1168 0.5000
C34_4 C 0.7152(10) 0.0000(8) 0.5000
H19_4 H 0.6684 -0.0000 0.5000
C37_4 C 0.8545(10) 0.0000(8) 0.5000
C38_4 C 0.9301(10) 0.0000(8) 0.5000
O13_2 O 0.6438(10) 0.1864(8) 0.6951(3)
O14_2 O 0.7689(9) 0.2787(8) 0.6946(3)
C58_2 C 0.7115(15) 0.2143(13) 0.6805(4)
C59_2 C 0.7274(11) 0.1708(9) 0.6415(3)
C60_2 C 0.8004(14) 0.1990(11) 0.6226(5)
H32_2 H 0.8408 0.2463 0.6336
C61_2 C 0.8153(12) 0.1594(10) 0.5879(4)
H33_2 H 0.8655 0.1794 0.5760
C62_2 C 0.7568(10) 0.0908(8) 0.5709(4)
C63_2 C 0.6831(12) 0.0623(10) 0.5892(5)
H34_2 H 0.6424 0.0154 0.5779
C64_2 C 0.6693(12) 0.1033(10) 0.6244(4)
H35_2 H 0.6192 0.0839 0.6363
C65_2 C 0.7716(10) 0.0443(8) 0.5342(3)
C66_2 C 0.8411(9) 0.0446(7) 0.5331(3)
H36_2 H 0.8799 0.0752 0.5550
C8_4 C 1.0000(8) 0.7152(6) 0.5000
H5_4 H 1.0000 0.6684 0.5000
C11_4 C 1.0000(8) 0.8545(6) 0.5000
C12_4 C 1.0000(8) 0.9301(6) 0.5000
C27_2 C 0.4972(16) 0.7857(13) 0.3195(4)
C28_2 C 0.5566(11) 0.8292(9) 0.3585(3)
C29_2 C 0.6014(14) 0.8010(11) 0.3774(5)
H15_2 H 0.5945 0.7537 0.3664
C30_2 C 0.6559(12) 0.8406(10) 0.4121(4)
H16_2 H 0.6861 0.8206 0.4240
C31_2 C 0.6660(10) 0.9092(8) 0.4291(4)
C32_2 C 0.6208(12) 0.9377(10) 0.4108(5)
H17_2 H 0.6270 0.9846 0.4221
C33_2 C 0.5660(12) 0.8967(10) 0.3756(4)
H18_2 H 0.5353 0.9161 0.3637
C34_5 C 0.7152(10) 1.0000(8) 0.5000
H19_5 H 0.6684 1.0000 0.5000
C35_2 C 0.7273(10) 0.9557(8) 0.4658(3)
C36_2 C 0.7965(9) 0.9554(7) 0.4669(3)
H20_2 H 0.8047 0.9248 0.4450
C37_5 C 0.8545(10) 1.0000(8) 0.5000
C38_5 C 0.9301(10) 1.0000(8) 0.5000
C39_4 C 0.9301(6) 0.9301(6) 0.5000
H21_4 H 0.8832 0.8832 0.5000
O9_2 O 0.8136(8) 0.4574(6) 0.6951(3)
O10_2 O 0.7213(8) 0.4902(5) 0.6946(3)
C40_2 C 0.7857(13) 0.4972(8) 0.6805(4)
C41_2 C 0.8292(9) 0.5566(6) 0.6415(3)
C42_2 C 0.8010(11) 0.6014(8) 0.6226(5)
H22_2 H 0.7537 0.5945 0.6336
C43_2 C 0.8406(10) 0.6559(7) 0.5879(4)
H23_2 H 0.8206 0.6861 0.5760
C44_2 C 0.9092(8) 0.6660(6) 0.5709(4)
C45_2 C 0.9377(10) 0.6208(7) 0.5892(5)
H24_2 H 0.9846 0.6270 0.5779
C46_2 C 0.8967(10) 0.5660(7) 0.6244(4)
H25_2 H 0.9161 0.5353 0.6363
C47_2 C 0.9557(8) 0.7273(6) 0.5342(3)
C48_2 C 0.9554(7) 0.7965(5) 0.5331(3)
H26_2 H 0.9248 0.8047 0.5550
O3_2 O 0.6667 0.3333 0.7500
O4_2 O 0.6022(12) 0.5138(10) 0.7500
O16_3 O 0.4862(10) 0.0884(16) 0.7500
O4_3 O 0.9116(16) 0.3978(12) 0.7500
C34_6 C 0.0000(8) 0.7152(6) 1.0000
H19_6 H 0.0000 0.6684 1.0000
C37_6 C 0.0000(8) 0.8545(6) 1.0000
C38_6 C -0.0000(8) 0.9301(6) 1.0000
C39_5 C 0.0699(6) 1.0000 1.0000
H21_5 H 0.1168 1.0000 1.0000
C13_6 C 1.0000 0.0699(6) 0.0000
H7_6 H 1.0000 0.1168 0.0000
C21_5 C 0.7152(6) 0.0000(8) 0.0000
H12_5 H 0.6684 0.0000 0.0000
C24_5 C 0.8545(6) 0.0000(8) 0.0000
C25_5 C 0.9301(6) 0.0000(8) 0.0000
loop_
_geom_bond_atom_site_label_1
_geom_bond_atom_site_label_2
_geom_bond_site_symmetry_1
_geom_bond_site_symmetry_2
Yb1 O1 1_555 1_555
O1 C1 1_555 1_555
O2 C1 1_555 1_555
O3 Yb1 1_555 1_555
O4 Yb1 1_555 1_555
C1 C2 1_555 1_555
C2 C3 1_555 1_555
C3 H1 1_555 1_555
C4 C3 1_555 1_555
H2 C4 1_555 1_555
C5 C4 1_555 1_555
C6 C5 1_555 1_555
H3 C6 1_555 1_555
C7 C2 1_555 1_555
H4 C7 1_555 1_555
C8 H5 1_555 1_555
C9 C5 1_555 1_555
C10 C9 1_555 1_555
H6 C10 1_555 1_555
C11 C10 1_555 1_555
C12 C11 1_555 1_555
C13 C12 1_555 1_555
H7 C13 1_555 1_555
C39 C12 1_555 1_555
H21 C39 1_555 1_555
Yb3 O2 1_555 1_555
O16 Yb3 1_555 1_555
Yb7 O3 1_555 1_555
O18 Yb3 1_555 1_555
O19 Yb1 1_555 1_555
O20 Yb3 1_555 1_555
O22 Yb1 1_555 1_555
O24 Yb3 1_555 1_555
O25 Yb1 1_555 1_555
O3 Yb3 1_555 1_555
C6 C7 1_555 1_555
C8 C9 1_555 1_555
C8_2 H5_2 1_555 1_555
C12_2 C11_2 1_555 1_555
C13_2 C12_2 1_555 1_555
H7_2 C13_2 1_555 1_555
C39_2 C12_2 1_555 1_555
H21_2 C39_2 1_555 1_555
O9 C40 1_555 1_555
O10 C40 1_555 1_555
C40 C41 1_555 1_555
C41 C42 1_555 1_555
C42 H22 1_555 1_555
C43 C42 1_555 1_555
H23 C43 1_555 1_555
C44 C43 1_555 1_555
C45 C44 1_555 1_555
H24 C45 1_555 1_555
C46 C41 1_555 1_555
H25 C46 1_555 1_555
C47 C8_2 1_555 1_555
C48 C11_2 1_555 1_555
H26 C48 1_555 1_555
Yb9 O9 1_555 1_555
Yb13 O10 1_555 1_555
C44 C47 1_555 1_555
C45 C46 1_555 1_555
C47 C48 1_555 1_555
O20 C27 1_555 1_555
O8 C27 1_555 1_555
C27 C28 1_555 1_555
C28 C29 1_555 1_555
C29 H15 1_555 1_555
C30 C29 1_555 1_555
H16 C30 1_555 1_555
C31 C30 1_555 1_555
C32 C31 1_555 1_555
H17 C32 1_555 1_555
C33 C28 1_555 1_555
H18 C33 1_555 1_555
C34 H19 1_555 1_555
C35 C31 1_555 1_555
C36 C35 1_555 1_555
H20 C36 1_555 1_555
C37 C36 1_555 1_555
H21_3 C39_3 1_555 1_555
Yb7 O8 1_555 1_555
C32 C33 1_555 1_555
C34 C35 1_555 1_555
C37 C38 1_555 1_555
C38 C39_3 1_555 1_555
H7_3 C13_3 1_555 1_555
C21 H12 1_555 1_555
C25 C13_3 1_555 1_555
O11 C49 1_555 1_555
O12 C49 1_555 1_555
C49 C50 1_555 1_555
C50 C51 1_555 1_555
C51 H27 1_555 1_555
C52 C51 1_555 1_555
H28 C52 1_555 1_555
C53 C52 1_555 1_555
C54 C53 1_555 1_555
H29 C54 1_555 1_555
C55 C50 1_555 1_555
H30 C55 1_555 1_555
C56 C21 1_555 1_555
C57 C24 1_555 1_555
H31 C57 1_555 1_555
Yb11 O12 1_555 1_555
Yb13 O11 1_555 1_555
C24 C25 1_555 1_555
C53 C56 1_555 1_555
C54 C55 1_555 1_555
C56 C57 1_555 1_555
O5 C14 1_555 1_555
O22 C14 1_555 1_555
C14 C15 1_555 1_555
C15 C16 1_555 1_555
C16 H8 1_555 1_555
C17 C16 1_555 1_555
H9 C17 1_555 1_555
C18 C17 1_555 1_555
C19 C18 1_555 1_555
H10 C19 1_555 1_555
C20 C15 1_555 1_555
H11 C20 1_555 1_555
C21_2 H12_2 1_555 1_555
C22 C18 1_555 1_555
C23 C22 1_555 1_555
H13 C23 1_555 1_555
C24_2 C23 1_555 1_555
C26 C25_2 1_555 1_555
H14 C26 1_555 1_555
C34_2 H19_2 1_555 1_555
C38_2 C26 1_555 1_555
Yb7 O5 1_555 1_555
C19 C20 1_555 1_555
C21_2 C22 1_555 1_555
C24_2 C25_2 1_555 1_555
C37_2 C38_2 1_555 1_555
C21_3 H12_3 1_555 1_555
C26_2 C25_3 1_555 1_555
H14_2 C26_2 1_555 1_555
C34_3 H19_3 1_555 1_555
C38_3 C26_2 1_555 1_555
O13 C58 1_555 1_555
O14 C58 1_555 1_555
C58 C59 1_555 1_555
C59 C60 1_555 1_555
C60 H32 1_555 1_555
C61 C60 1_555 1_555
H33 C61 1_555 1_555
C62 C61 1_555 1_555
C63 C62 1_555 1_555
H34 C63 1_555 1_555
C64 C59 1_555 1_555
H35 C64 1_555 1_555
C65 C34_3 1_555 1_555
C66 C37_3 1_555 1_555
H36 C66 1_555 1_555
Yb9 O14 1_555 1_555
Yb11 O13 1_555 1_555
C24_3 C25_3 1_555 1_555
C37_3 C38_3 1_555 1_555
C62 C65 1_555 1_555
C63 C64 1_555 1_555
C65 C66 1_555 1_555
H7_4 C13_4 1_555 1_555
O19 C14_2 1_555 1_555
O24 C14_2 1_555 1_555
C14_2 C15_2 1_555 1_555
C15_2 C16_2 1_555 1_555
C16_2 H8_2 1_555 1_555
C17_2 C16_2 1_555 1_555
H9_2 C17_2 1_555 1_555
C18_2 C17_2 1_555 1_555
C19_2 C18_2 1_555 1_555
H10_2 C19_2 1_555 1_555
C20_2 C15_2 1_555 1_555
H11_2 C20_2 1_555 1_555
C21_4 H12_4 1_555 1_555
C22_2 C18_2 1_555 1_555
C23_2 C22_2 1_555 1_555
H13_2 C23_2 1_555 1_555
C24_4 C23_2 1_555 1_555
C25_4 C13_4 1_555 1_555
C26_3 C25_4 1_555 1_555
H14_3 C26_3 1_555 1_555
O11_2 C49_2 1_555 1_555
O12_2 C49_2 1_555 1_555
C49_2 C50_2 1_555 1_555
C50_2 C51_2 1_555 1_555
C51_2 H27_2 1_555 1_555
C52_2 C51_2 1_555 1_555
H28_2 C52_2 1_555 1_555
C53_2 C52_2 1_555 1_555
C54_2 C53_2 1_555 1_555
H29_2 C54_2 1_555 1_555
C55_2 C50_2 1_555 1_555
H30_2 C55_2 1_555 1_555
C56_2 C21_4 1_555 1_555
C57_2 C24_4 1_555 1_555
H31_2 C57_2 1_555 1_555
Yb13 O12_2 1_555 1_555
Yb9 O11_2 1_555 1_555
C19_2 C20_2 1_555 1_555
C21_4 C22_2 1_555 1_555
C24_4 C25_4 1_555 1_555
C53_2 C56_2 1_555 1_555
C54_2 C55_2 1_555 1_555
C56_2 C57_2 1_555 1_555
O18 C1_2 1_555 1_555
O2_2 C1_2 1_555 1_555
C1_2 C2_2 1_555 1_555
C2_2 C3_2 1_555 1_555
C3_2 H1_2 1_555 1_555
C4_2 C3_2 1_555 1_555
H2_2 C4_2 1_555 1_555
C5_2 C4_2 1_555 1_555
C6_2 C5_2 1_555 1_555
H3_2 C6_2 1_555 1_555
C7_2 C2_2 1_555 1_555
H4_2 C7_2 1_555 1_555
C8_3 H5_3 1_555 1_555
C9_2 C5_2 1_555 1_555
C10_2 C9_2 1_555 1_555
H6_2 C10_2 1_555 1_555
C11_3 C10_2 1_555 1_555
C12_3 C11_3 1_555 1_555
C13_5 C12_3 1_555 1_555
H7_5 C13_5 1_555 1_555
Yb7 O2_2 1_555 1_555
O16_2 Yb7 1_555 1_555
O20_2 Yb7 1_555 1_555
C6_2 C7_2 1_555 1_555
C8_3 C9_2 1_555 1_555
H14_4 C26_4 1_555 1_555
C34_4 H19_4 1_555 1_555
C38_4 C26_4 1_555 1_555
O13_2 C58_2 1_555 1_555
O14_2 C58_2 1_555 1_555
C58_2 C59_2 1_555 1_555
C59_2 C60_2 1_555 1_555
C60_2 H32_2 1_555 1_555
C61_2 C60_2 1_555 1_555
H33_2 C61_2 1_555 1_555
C62_2 C61_2 1_555 1_555
C63_2 C62_2 1_555 1_555
H34_2 C63_2 1_555 1_555
C64_2 C59_2 1_555 1_555
H35_2 C64_2 1_555 1_555
C65_2 C34_4 1_555 1_555
C66_2 C37_4 1_555 1_555
H36_2 C66_2 1_555 1_555
Yb11 O14_2 1_555 1_555
Yb13 O13_2 1_555 1_555
C37_4 C38_4 1_555 1_555
C62_2 C65_2 1_555 1_555
C63_2 C64_2 1_555 1_555
C65_2 C66_2 1_555 1_555
C8_4 H5_4 1_555 1_555
C12_4 C11_4 1_555 1_555
O20_2 C27_2 1_555 1_555
O25 C27_2 1_555 1_555
C27_2 C28_2 1_555 1_555
C28_2 C29_2 1_555 1_555
C29_2 H15_2 1_555 1_555
C30_2 C29_2 1_555 1_555
H16_2 C30_2 1_555 1_555
C31_2 C30_2 1_555 1_555
C32_2 C31_2 1_555 1_555
H17_2 C32_2 1_555 1_555
C33_2 C28_2 1_555 1_555
H18_2 C33_2 1_555 1_555
C34_5 H19_5 1_555 1_555
C35_2 C31_2 1_555 1_555
C36_2 C35_2 1_555 1_555
H20_2 C36_2 1_555 1_555
C37_5 C36_2 1_555 1_555
C39_4 C12_4 1_555 1_555
H21_4 C39_4 1_555 1_555
O9_2 C40_2 1_555 1_555
O10_2 C40_2 1_555 1_555
C40_2 C41_2 1_555 1_555
C41_2 C42_2 1_555 1_555
C42_2 H22_2 1_555 1_555
C43_2 C42_2 1_555 1_555
H23_2 C43_2 1_555 1_555
C44_2 C43_2 1_555 1_555
C45_2 C44_2 1_555 1_555
H24_2 C45_2 1_555 1_555
C46_2 C41_2 1_555 1_555
H25_2 C46_2 1_555 1_555
C47_2 C8_4 1_555 1_555
C48_2 C11_4 1_555 1_555
H26_2 C48_2 1_555 1_555
Yb11 O9_2 1_555 1_555
Yb9 O10_2 1_555 1_555
C32_2 C33_2 1_555 1_555
C34_5 C35_2 1_555 1_555
C37_5 C38_5 1_555 1_555
C38_5 C39_4 1_555 1_555
C44_2 C47_2 1_555 1_555
C45_2 C46_2 1_555 1_555
C47_2 C48_2 1_555 1_555
O3_2 Yb9 1_555 1_555
O4_2 Yb9 1_555 1_555
O16_3 Yb13 1_555 1_555
Yb11 O3_2 1_555 1_555
O3_2 Yb13 1_555 1_555
O4_3 Yb11 1_555 1_555
C34_6 H19_6 1_555 1_555
H21_5 C39_5 1_555 1_555
C37_6 C38_6 1_555 1_555
C38_6 C39_5 1_555 1_555
H7_6 C13_6 1_555 1_555
C21_5 H12_5 1_555 1_555
C25_5 C13_6 1_555 1_555
C24_5 C25_5 1_555 1_555

#END
