
###############################################################################
#
# This file contains modified crystal structure data generated from the
# MOF subset of the Cambridge Structural Database (CSD) v543 
# hosted by the Cambridge Crystallographic Data Centre (CCDC).
#
# This work is licensed under the Creative Commons
# Attribution-NonCommercial-ShareAlike 4.0 International License.
# To view a copy of this license, visit
# http://creativecommons.org/licenses/by-nc-sa/4.0/
# or send a letter to
# Creative Commons, PO Box 1866, Mountain View, CA 94042, USA.
#
# CIF created using the CSD Python API on 29 September 2022
# The structure has been converted into the P1 space group
# The structure has a 3D framework
# The original CSD entry BIDMAE is in the monoclinic crystal system
# The framework has been calculated to contain at least 10.0% void space
# The void calculation uses a probe of radius 1.32A, grid spacing 0.4
# The framework is charged, counterions have been retained in the structure
# H atom positions have been added when not included in the experimental data
#
###############################################################################

data_BIDMAE
_chemical_formula_moiety         '(C120 H280 In48 N40 Ni4 S74 8-)n'
_symmetry_cell_setting           triclinic
_symmetry_space_group_name_H-M   'P 1'
_symmetry_Int_Tables_number      1
_space_group_name_Hall           'P 1'
loop_
_symmetry_equiv_pos_site_id
_symmetry_equiv_pos_as_xyz
1 x,y,z
_cell_length_a                   18.9686(10)
_cell_length_b                   18.8743(9)
_cell_length_c                   26.1162(14)
_cell_angle_alpha                90
_cell_angle_beta                 107.4360(10)
_cell_angle_gamma                90
_cell_volume                     8920.48
loop_
_atom_site_label
_atom_site_type_symbol
_atom_site_fract_x
_atom_site_fract_y
_atom_site_fract_z
C14 C 0.1618(7) 0.0168(8) 0.9225(7)
H28 H 0.1806 0.0444 0.8976
H29 H 0.1896 0.0306 0.9592
C15 C 0.0789(10) 0.0335(12) 0.9125(10)
H30 H 0.0731 0.0838 0.9195
H31 H 0.0520 0.0242 0.8747
H32 H 0.0677 0.0049 0.9849
N1 N 0.3102(5) 0.8134(5) 0.0160(3)
H1 H 0.3299 0.8506 0.0345
C1 C 0.3054(9) 0.7423(7) 0.0373(5)
H7 H 0.2528 0.7371 0.0354
C2 C 0.3478(7) 0.7335(7) 0.0976(5)
H8 H 0.3992 0.7483 0.1038
H9 H 0.3258 0.7647 0.1186
C3 C 0.3467(11) 0.6591(8) 0.1167(6)
H10 H 0.3832 0.6547 0.1521
H11 H 0.2980 0.6496 0.1209
C4 C 0.3616(13) 0.6070(9) 0.0828(6)
H12 H 0.3546 0.5601 0.0966
H13 H 0.4134 0.6109 0.0836
C5 C 0.3114(11) 0.6130(8) 0.0232(6)
H14 H 0.3272 0.5784 0.0009
H15 H 0.2599 0.6027 0.0211
C6 C 0.3172(10) 0.6890(6) 0.0022(5)
H16 H 0.3685 0.6948 0.0009
H66 H 0.359717 0.800835 0.0109437
Ni1 Ni 0.25971(7) 0.80874(7) 0.93124(6)
N2 N 0.2681(5) 0.6983(5) 0.9470(3)
H2 H 0.2466 0.6648 0.9250
N3 N 0.3600(4) 0.8094(5) 0.9103(3)
H3 H 0.4042 0.8044 0.9324
N4 N 0.2140(5) 0.7919(5) 0.8481(3)
H4 H 0.1671 0.7924 0.8307
N5 N 0.2511(4) 0.9204(5) 0.9247(4)
H5 H 0.2875 0.9496 0.9274
N6 N 0.1518(5) 0.8223(5) 0.9409(4)
H6 H 0.1199 0.7884 0.9389
C7 C 0.3417(6) 0.8196(7) 0.8532(5)
H17 H 0.3292 0.8704 0.8467
C8 C 0.4021(5) 0.8054(6) 0.8287(4)
H18 H 0.4203 0.7571 0.8380
H19 H 0.4431 0.8379 0.8447
C9 C 0.3795(7) 0.8136(7) 0.7681(5)
H20 H 0.3714 0.8639 0.7590
H21 H 0.4199 0.7970 0.7550
C10 C 0.3128(8) 0.7743(8) 0.7411(5)
H22 H 0.3234 0.7234 0.7449
H23 H 0.2978 0.7857 0.7027
C11 C 0.2489(6) 0.7915(7) 0.7640(5)
H24 H 0.2339 0.8411 0.7563
H25 H 0.2063 0.7614 0.7468
C12 C 0.2729(6) 0.7793(7) 0.8245(5)
H26 H 0.2856 0.7284 0.8300
C13 C 0.1731(7) 0.9400(6) 0.9149(6)
H27 H 0.1462 0.9278 0.8772
C16 C 0.0465(10) 0.9897(11) 0.9476(10)
C17 C 0.0601(7) 0.9140(8) 0.9438(7)
H34 H 0.0302 0.8968 0.9086
H35 H 0.0439 0.8889 0.9711
C18 C 0.1402(7) 0.8964(7) 0.9512(6)
H36 H 0.1685 0.9069 0.9889
H61 H 0.216939 0.844662 0.841505
H62 H 0.242785 0.916765 0.884545
H63 H 0.173228 0.813652 0.980932
H64 H 0.356208 0.756143 0.904766
H65 H 0.223791 0.700938 0.961108
H33 H 0.9931 0.9979 0.9374
H33_2 H 0.0069 0.4979 0.5626
Ni1_2 Ni 0.74029(7) 0.30874(7) 0.56876(6)
N1_2 N 0.6898(5) 0.3134(5) 0.4840(3)
H1_2 H 0.6701 0.3506 0.4655
N2_2 N 0.7319(5) 0.1983(5) 0.5530(3)
H2_2 H 0.7534 0.1648 0.5750
N3_2 N 0.6400(4) 0.3094(5) 0.5897(3)
H3_2 H 0.5958 0.3044 0.5676
N4_2 N 0.7860(5) 0.2919(5) 0.6519(3)
H4_2 H 0.8329 0.2924 0.6693
N5_2 N 0.7489(4) 0.4204(5) 0.5753(4)
H5_2 H 0.7125 0.4496 0.5726
N6_2 N 0.8482(5) 0.3223(5) 0.5591(4)
H6_2 H 0.8801 0.2884 0.5611
C1_2 C 0.6946(9) 0.2423(7) 0.4627(5)
H7_2 H 0.7472 0.2371 0.4646
C2_2 C 0.6522(7) 0.2335(7) 0.4024(5)
H8_2 H 0.6008 0.2483 0.3962
H9_2 H 0.6742 0.2647 0.3814
C3_2 C 0.6533(11) 0.1591(8) 0.3833(6)
H10_2 H 0.6168 0.1547 0.3479
H11_2 H 0.7020 0.1496 0.3791
C4_2 C 0.6384(13) 0.1070(9) 0.4172(6)
H12_2 H 0.6454 0.0601 0.4034
H13_2 H 0.5866 0.1109 0.4164
C5_2 C 0.6886(11) 0.1130(8) 0.4768(6)
H14_2 H 0.6728 0.0784 0.4991
H15_2 H 0.7401 0.1027 0.4789
C6_2 C 0.6828(10) 0.1890(6) 0.4978(5)
H16_2 H 0.6315 0.1948 0.4991
C7_2 C 0.6583(6) 0.3196(7) 0.6468(5)
H17_2 H 0.6708 0.3704 0.6533
C8_2 C 0.5979(5) 0.3054(6) 0.6713(4)
H18_2 H 0.5797 0.2571 0.6620
H19_2 H 0.5569 0.3379 0.6553
C9_2 C 0.6205(7) 0.3136(7) 0.7319(5)
H20_2 H 0.6286 0.3639 0.7410
H21_2 H 0.5801 0.2970 0.7450
C10_2 C 0.6872(8) 0.2743(8) 0.7589(5)
H22_2 H 0.6766 0.2234 0.7551
H23_2 H 0.7022 0.2857 0.7973
C11_2 C 0.7511(6) 0.2915(7) 0.7360(5)
H24_2 H 0.7661 0.3411 0.7437
H25_2 H 0.7937 0.2614 0.7532
C12_2 C 0.7271(6) 0.2793(7) 0.6755(5)
H26_2 H 0.7144 0.2284 0.6700
C13_2 C 0.8269(7) 0.4400(6) 0.5851(6)
H27_2 H 0.8538 0.4278 0.6228
C14_2 C 0.8382(7) 0.5168(8) 0.5775(7)
H28_2 H 0.8194 0.5444 0.6024
H29_2 H 0.8104 0.5306 0.5408
C15_2 C 0.9211(10) 0.5335(12) 0.5875(10)
H30_2 H 0.9269 0.5838 0.5805
H31_2 H 0.9480 0.5242 0.6253
C16_2 C 0.9535(10) 0.4897(11) 0.5524(10)
H32_2 H 0.9323 0.5049 0.5151
C17_2 C 0.9399(7) 0.4140(8) 0.5562(7)
H34_2 H 0.9698 0.3968 0.5914
H35_2 H 0.9561 0.3889 0.5289
C18_2 C 0.8598(7) 0.3964(7) 0.5488(6)
H36_2 H 0.8315 0.4069 0.5111
H61_2 H 0.783061 0.344662 0.658495
H62_2 H 0.757215 0.416765 0.615455
H63_2 H 0.826772 0.313652 0.519068
H64_2 H 0.643792 0.256143 0.595234
H65_2 H 0.776209 0.200938 0.538892
H66_2 H 0.640283 0.300835 0.489056
H33_3 H 0.0069 0.0021 0.0626
Ni1_3 Ni 0.74029(7) 0.19126(7) 0.06876(6)
N2_3 N 0.7319(5) 0.3017(5) 0.0530(3)
H2_3 H 0.7534 0.3352 0.0750
N3_3 N 0.6400(4) 0.1906(5) 0.0897(3)
H3_3 H 0.5958 0.1956 0.0676
N4_3 N 0.7860(5) 0.2081(5) 0.1519(3)
H4_3 H 0.8329 0.2076 0.1693
N5_3 N 0.7489(4) 0.0796(5) 0.0753(4)
H5_3 H 0.7125 0.0504 0.0726
N6_3 N 0.8482(5) 0.1777(5) 0.0591(4)
H6_3 H 0.8801 0.2116 0.0611
C7_3 C 0.6583(6) 0.1804(7) 0.1468(5)
H17_3 H 0.6708 0.1296 0.1533
C8_3 C 0.5979(5) 0.1946(6) 0.1713(4)
H18_3 H 0.5797 0.2429 0.1620
H19_3 H 0.5569 0.1621 0.1553
C9_3 C 0.6205(7) 0.1864(7) 0.2319(5)
H20_3 H 0.6286 0.1361 0.2410
H21_3 H 0.5801 0.2030 0.2450
C10_3 C 0.6872(8) 0.2257(8) 0.2589(5)
H22_3 H 0.6766 0.2766 0.2551
H23_3 H 0.7022 0.2143 0.2973
C11_3 C 0.7511(6) 0.2085(7) 0.2360(5)
H24_3 H 0.7661 0.1589 0.2437
H25_3 H 0.7937 0.2386 0.2532
C12_3 C 0.7271(6) 0.2207(7) 0.1755(5)
H26_3 H 0.7144 0.2716 0.1700
C13_3 C 0.8269(7) 0.0600(6) 0.0851(6)
H27_3 H 0.8538 0.0722 0.1228
C16_3 C 0.9535(10) 0.0103(11) 0.0524(10)
C17_3 C 0.9399(7) 0.0860(8) 0.0562(7)
H34_3 H 0.9698 0.1032 0.0914
H35_3 H 0.9561 0.1111 0.0289
C18_3 C 0.8598(7) 0.1036(7) 0.0488(6)
H36_3 H 0.8315 0.0931 0.0111
H61_3 H 0.783061 0.155338 0.158495
H62_3 H 0.757215 0.0832349 0.115455
H63_3 H 0.826772 0.186348 0.0190681
H64_3 H 0.643792 0.243857 0.0952342
H65_3 H 0.776209 0.299062 0.038892
N1_3 N 0.6898(5) 0.1866(5) 0.9840(3)
H1_3 H 0.6701 0.1494 0.9655
C1_3 C 0.6946(9) 0.2577(7) 0.9627(5)
H7_3 H 0.7472 0.2629 0.9646
C2_3 C 0.6522(7) 0.2665(7) 0.9024(5)
H8_3 H 0.6008 0.2517 0.8962
H9_3 H 0.6742 0.2353 0.8814
C3_3 C 0.6533(11) 0.3409(8) 0.8833(6)
H10_3 H 0.6168 0.3453 0.8479
H11_3 H 0.7020 0.3504 0.8791
C4_3 C 0.6384(13) 0.3930(9) 0.9172(6)
H12_3 H 0.6454 0.4399 0.9034
H13_3 H 0.5866 0.3891 0.9164
C5_3 C 0.6886(11) 0.3870(8) 0.9768(6)
H14_3 H 0.6728 0.4216 0.9991
H15_3 H 0.7401 0.3973 0.9789
C6_3 C 0.6828(10) 0.3110(6) 0.9978(5)
H16_3 H 0.6315 0.3052 0.9991
H66_3 H 0.640283 0.199165 0.989056
C14_3 C 0.8382(7) 0.9832(8) 0.0775(7)
H28_3 H 0.8194 0.9556 0.1024
H29_3 H 0.8104 0.9694 0.0408
C15_3 C 0.9211(10) 0.9665(12) 0.0875(10)
H30_3 H 0.9269 0.9162 0.0805
H31_3 H 0.9480 0.9758 0.1253
H32_3 H 0.9323 0.9951 0.0151
Ni1_4 Ni 0.25971(7) 0.69126(7) 0.43124(6)
N1_4 N 0.3102(5) 0.6866(5) 0.5160(3)
H1_4 H 0.3299 0.6494 0.5345
N2_4 N 0.2681(5) 0.8017(5) 0.4470(3)
H2_4 H 0.2466 0.8352 0.4250
N3_4 N 0.3600(4) 0.6906(5) 0.4103(3)
H3_4 H 0.4042 0.6956 0.4324
N4_4 N 0.2140(5) 0.7081(5) 0.3481(3)
H4_4 H 0.1671 0.7076 0.3307
N5_4 N 0.2511(4) 0.5796(5) 0.4247(4)
H5_4 H 0.2875 0.5504 0.4274
N6_4 N 0.1518(5) 0.6777(5) 0.4409(4)
H6_4 H 0.1199 0.7116 0.4389
C1_4 C 0.3054(9) 0.7577(7) 0.5373(5)
H7_4 H 0.2528 0.7629 0.5354
C2_4 C 0.3478(7) 0.7665(7) 0.5976(5)
H8_4 H 0.3992 0.7517 0.6038
H9_4 H 0.3258 0.7353 0.6186
C3_4 C 0.3467(11) 0.8409(8) 0.6167(6)
H10_4 H 0.3832 0.8453 0.6521
H11_4 H 0.2980 0.8504 0.6209
C4_4 C 0.3616(13) 0.8930(9) 0.5828(6)
H12_4 H 0.3546 0.9399 0.5966
H13_4 H 0.4134 0.8891 0.5836
C5_4 C 0.3114(11) 0.8870(8) 0.5232(6)
H14_4 H 0.3272 0.9216 0.5009
H15_4 H 0.2599 0.8973 0.5211
C6_4 C 0.3172(10) 0.8110(6) 0.5022(5)
H16_4 H 0.3685 0.8052 0.5009
C7_4 C 0.3417(6) 0.6804(7) 0.3532(5)
H17_4 H 0.3292 0.6296 0.3467
C8_4 C 0.4021(5) 0.6946(6) 0.3287(4)
H18_4 H 0.4203 0.7429 0.3380
H19_4 H 0.4431 0.6621 0.3447
C9_4 C 0.3795(7) 0.6864(7) 0.2681(5)
H20_4 H 0.3714 0.6361 0.2590
H21_4 H 0.4199 0.7030 0.2550
C10_4 C 0.3128(8) 0.7257(8) 0.2411(5)
H22_4 H 0.3234 0.7766 0.2449
H23_4 H 0.2978 0.7143 0.2027
C11_4 C 0.2489(6) 0.7085(7) 0.2640(5)
H24_4 H 0.2339 0.6589 0.2563
H25_4 H 0.2063 0.7386 0.2468
C12_4 C 0.2729(6) 0.7207(7) 0.3245(5)
H26_4 H 0.2856 0.7716 0.3300
C13_4 C 0.1731(7) 0.5600(6) 0.4149(6)
H27_4 H 0.1462 0.5722 0.3772
C14_4 C 0.1618(7) 0.4832(8) 0.4225(7)
H28_4 H 0.1806 0.4556 0.3976
H29_4 H 0.1896 0.4694 0.4592
C15_4 C 0.0789(10) 0.4665(12) 0.4125(10)
H30_4 H 0.0731 0.4162 0.4195
H31_4 H 0.0520 0.4758 0.3747
C16_4 C 0.0465(10) 0.5103(11) 0.4476(10)
H32_4 H 0.0677 0.4951 0.4849
C17_4 C 0.0601(7) 0.5860(8) 0.4438(7)
H34_4 H 0.0302 0.6032 0.4086
H35_4 H 0.0439 0.6111 0.4711
C18_4 C 0.1402(7) 0.6036(7) 0.4512(6)
H36_4 H 0.1685 0.5931 0.4889
H61_4 H 0.216939 0.655338 0.341505
H62_4 H 0.242785 0.583235 0.384545
H63_4 H 0.173228 0.686348 0.480932
H64_4 H 0.356208 0.743857 0.404766
H65_4 H 0.223791 0.799062 0.461108
H66_4 H 0.359717 0.699165 0.510944
H33_4 H 0.9931 0.5021 0.4374
In2 In 0.07046(4) 0.11399(4) 0.25594(3)
In4 In 0.27553(4) 0.09909(3) 0.36329(3)
In5 In 0.01696(4) 0.28639(4) 0.16746(3)
In6 In 0.15900(4) 0.15813(4) 0.13630(3)
In7 In 0.20829(4) 0.27966(4) 0.27149(3)
In8 In 0.30604(4) 0.03200(4) 0.12060(3)
In9 In 0.36684(4) 0.15173(3) 0.24588(3)
In10 In 0.40537(4) 0.25776(3) 0.37352(3)
In11 In 0.43715(3) 0.07288(3) 0.00282(3)
S2 S 0.02486(15) 0.02363(16) 0.30294(14)
S4 S 0.23036(16) 0.00833(15) 0.41011(11)
S6 S 0.11772(13) 0.06008(13) 0.18578(11)
S7 S 0.17097(14) 0.18174(13) 0.32230(10)
S9 S 0.32585(13) 0.04972(12) 0.29214(10)
S10 S 0.38133(14) 0.15750(13) 0.42430(10)
S11 S 0.06454(16) 0.24310(15) 0.09627(11)
S12 S 0.10193(16) 0.35617(15) 0.23912(13)
S13 S 0.19605(14) 0.09429(15) 0.06899(10)
S14 S 0.25910(13) 0.22975(13) 0.20090(10)
S15 S 0.30658(14) 0.34348(13) 0.33563(10)
S17 S 0.41044(14) 0.10237(14) 0.17575(10)
S18 S 0.46404(14) 0.21791(14) 0.30767(11)
N8 N 0.4314(4) 0.1672(4) 0.0565(3)
H38 H 0.4689 0.1839 0.0817
H40 H 0.5825 0.0269 0.1900
C22 C 0.2732(9) 0.2948(9) 0.0526(7)
H46 H 0.2450 0.2680 0.0719
H47 H 0.2743 0.3443 0.0640
C23 C 0.3506(6) 0.2674(6) 0.0690(5)
H48 H 0.3681 0.2621 0.1081
H49 H 0.3828 0.3015 0.0586
C24 C 0.3553(7) 0.1962(7) 0.0428(6)
H50 H 0.3293 0.1633 0.0605
H59 H 0.5679 0.0195 0.2910
S22 S 0.56029(12) 0.02555(12) 0.06438(9)
S24 S 0.49183(12) 0.33666(11) 0.44255(9)
H70 H 0.442976 0.200624 0.0296485
S20 S 0.49183(12) 0.16334(11) 0.94255(9)
N7 N 0.3219(4) 0.1196(4) 0.9644(3)
H37 H 0.2866 0.0986 0.9400
C19 C 0.3160(6) 0.1895(7) 0.9867(5)
H41 H 0.3435 0.2208 0.9690
C20 C 0.2390(6) 0.2197(6) 0.9699(5)
H42 H 0.2054 0.1861 0.9794
H43 H 0.2224 0.2257 0.9308
C21 C 0.2348(9) 0.2912(9) 0.9967(7)
H44 H 0.2547 0.3278 0.9783
H45 H 0.1827 0.3025 0.9915
In14 In 0.40537(4) 0.24224(3) 0.87352(3)
In16 In 0.51190(3) 0.05932(3) 0.89075(3)
H68 H 0.33981 0.142265 0.935311
In1 In 0.13038(4) 0.94747(4) 0.34145(3)
In3 In 0.22495(4) 0.98074(3) 0.22841(3)
In12 In 0.48810(3) 0.94068(3) 0.10925(3)
S1 S 0.08896(14) 0.85341(14) 0.38985(11)
S3 S 0.18376(16) 0.88926(14) 0.27763(11)
S8 S 0.27405(15) 0.92616(13) 0.16280(11)
S16 S 0.36684(12) 0.98627(12) 0.05426(9)
N9 N 0.4527(4) 0.8821(4) 0.1755(3)
H39 H 0.4249 0.8445 0.1700
N10 N 0.5584(5) 0.9872(5) 0.1873(3)
C25 C 0.4835(6) 0.9167(6) 0.2288(4)
H51 H 0.4530 0.9591 0.2291
C26 C 0.4787(6) 0.8694(6) 0.2746(4)
H52 H 0.4268 0.8593 0.2712
H53 H 0.5037 0.8243 0.2732
C27 C 0.5146(9) 0.9056(8) 0.3274(5)
H54 H 0.4866 0.9484 0.3301
H55 H 0.5137 0.8739 0.3569
C28 C 0.5931(9) 0.9255(8) 0.3327(5)
H56 H 0.6217 0.8829 0.3307
H57 H 0.6157 0.9482 0.3675
C29 C 0.5944(9) 0.9759(7) 0.2879(4)
H58 H 0.6455 0.9884 0.2907
C30 C 0.5582(6) 0.9413(6) 0.2341(4)
H60 H 0.5879 0.8988 0.2323
S23 S 0.50817(12) 0.83666(11) 0.05745(9)
H67 H 0.407077 0.913203 0.16797
H69 H 0.602992 0.960562 0.183401
S19 S 0.43971(12) 0.97445(12) 0.93562(9)
In15 In 0.56285(3) 0.92712(3) 0.99718(3)
S5 S 0.96835(14) 0.19156(16) 0.21289(12)
S21 S 0.91104(14) 0.35341(14) 0.11015(11)
In13 In 0.98304(4) 0.78639(4) 0.33254(3)
S5_2 S 0.03165(14) 0.69156(16) 0.28711(12)
In1_2 In 0.86962(4) 0.44747(4) 0.15855(3)
In2_2 In 0.92954(4) 0.61399(4) 0.24406(3)
In3_2 In 0.77505(4) 0.48074(3) 0.27159(3)
In4_2 In 0.72447(4) 0.59909(3) 0.13671(3)
In6_2 In 0.84100(4) 0.65813(4) 0.36370(3)
In7_2 In 0.79171(4) 0.77966(4) 0.22851(3)
In8_2 In 0.69396(4) 0.53200(4) 0.37940(3)
In9_2 In 0.63316(4) 0.65173(3) 0.25412(3)
In10_2 In 0.59463(4) 0.75776(3) 0.12648(3)
In11_2 In 0.56285(3) 0.57288(3) 0.49718(3)
In12_2 In 0.51190(3) 0.44068(3) 0.39075(3)
S2_2 S 0.97514(15) 0.52363(16) 0.19706(14)
S3_2 S 0.81624(16) 0.38926(14) 0.22237(11)
S4_2 S 0.76964(16) 0.50833(15) 0.08989(11)
S6_2 S 0.88228(13) 0.56008(13) 0.31422(11)
S7_2 S 0.82903(14) 0.68174(13) 0.17770(10)
S8_2 S 0.72595(15) 0.42616(13) 0.33720(11)
S9_2 S 0.67415(13) 0.54972(12) 0.20786(10)
S10_2 S 0.61867(14) 0.65750(13) 0.07570(10)
S11_2 S 0.93546(16) 0.74310(15) 0.40373(11)
S12_2 S 0.89807(16) 0.85617(15) 0.26088(13)
S13_2 S 0.80395(14) 0.59429(15) 0.43101(10)
S14_2 S 0.74090(13) 0.72975(13) 0.29910(10)
S15_2 S 0.69342(14) 0.84348(13) 0.16437(10)
S16_2 S 0.63316(12) 0.48627(12) 0.44574(9)
S17_2 S 0.58956(14) 0.60237(14) 0.32425(10)
S18_2 S 0.53596(14) 0.71791(14) 0.19233(11)
S19_2 S 0.56029(12) 0.47445(12) 0.56438(9)
S20_2 S 0.50817(12) 0.66334(11) 0.55745(9)
N7_2 N 0.6781(4) 0.6196(4) 0.5356(3)
H37_2 H 0.7134 0.5986 0.5600
N8_2 N 0.5686(4) 0.6672(4) 0.4435(3)
H38_2 H 0.5311 0.6839 0.4183
N9_2 N 0.5473(4) 0.3821(4) 0.3245(3)
H39_2 H 0.5751 0.3445 0.3300
N10_2 N 0.4416(5) 0.4872(5) 0.3127(3)
H40_2 H 0.4175 0.5269 0.3100
C19_2 C 0.6840(6) 0.6895(7) 0.5133(5)
H41_2 H 0.6565 0.7208 0.5310
C20_2 C 0.7610(6) 0.7197(6) 0.5301(5)
H42_2 H 0.7946 0.6861 0.5206
H43_2 H 0.7776 0.7257 0.5692
C21_2 C 0.7652(9) 0.7912(9) 0.5033(7)
H44_2 H 0.7453 0.8278 0.5217
H45_2 H 0.8173 0.8025 0.5085
C22_2 C 0.7268(9) 0.7948(9) 0.4474(7)
H46_2 H 0.7550 0.7680 0.4281
H47_2 H 0.7257 0.8443 0.4360
C23_2 C 0.6494(6) 0.7674(6) 0.4310(5)
H48_2 H 0.6319 0.7621 0.3919
H49_2 H 0.6172 0.8015 0.4414
C24_2 C 0.6447(7) 0.6962(7) 0.4572(6)
H50_2 H 0.6707 0.6633 0.4395
C25_2 C 0.5165(6) 0.4167(6) 0.2712(4)
H51_2 H 0.5470 0.4591 0.2709
C26_2 C 0.5213(6) 0.3694(6) 0.2254(4)
H52_2 H 0.5732 0.3593 0.2288
H53_2 H 0.4963 0.3243 0.2268
C27_2 C 0.4854(9) 0.4056(8) 0.1726(5)
H54_2 H 0.5134 0.4484 0.1699
H55_2 H 0.4863 0.3739 0.1431
C28_2 C 0.4069(9) 0.4255(8) 0.1673(5)
H56_2 H 0.3783 0.3829 0.1693
H57_2 H 0.3843 0.4482 0.1325
C29_2 C 0.4056(9) 0.4759(7) 0.2121(4)
H58_2 H 0.3545 0.4884 0.2093
H59_2 H 0.4321 0.5195 0.2090
C30_2 C 0.4418(6) 0.4413(6) 0.2659(4)
H60_2 H 0.4121 0.3988 0.2677
In14_2 In 0.59463(4) 0.74224(3) 0.62648(3)
In15_2 In 0.43715(3) 0.42712(3) 0.50282(3)
In16_2 In 0.48810(3) 0.55932(3) 0.60925(3)
S22_2 S 0.43971(12) 0.52555(12) 0.43562(9)
H67_2 H 0.592923 0.413203 0.33203
H68_2 H 0.66019 0.642265 0.564689
H69_2 H 0.397008 0.460562 0.316599
H70_2 H 0.557024 0.700624 0.470351
In13_2 In 0.01696(4) 0.21361(4) 0.66746(3)
S5_3 S 0.03165(14) 0.80844(16) 0.78711(12)
S21_2 S 0.08896(14) 0.64659(14) 0.88985(11)
In1_3 In 0.86962(4) 0.05253(4) 0.65855(3)
In3_3 In 0.77505(4) 0.01926(3) 0.77159(3)
S1_2 S 0.91104(14) 0.14659(14) 0.61015(11)
S3_3 S 0.81624(16) 0.11074(14) 0.72237(11)
S8_3 S 0.72595(15) 0.07384(13) 0.83720(11)
S16_3 S 0.63316(12) 0.01373(12) 0.94574(9)
N9_3 N 0.5473(4) 0.1179(4) 0.8245(3)
H39_3 H 0.5751 0.1555 0.8300
N10_3 N 0.4416(5) 0.0128(5) 0.8127(3)
C25_3 C 0.5165(6) 0.0833(6) 0.7712(4)
H51_3 H 0.5470 0.0409 0.7709
C26_3 C 0.5213(6) 0.1306(6) 0.7254(4)
H52_3 H 0.5732 0.1407 0.7288
H53_3 H 0.4963 0.1757 0.7268
C27_3 C 0.4854(9) 0.0944(8) 0.6726(5)
H54_3 H 0.5134 0.0516 0.6699
H55_3 H 0.4863 0.1261 0.6431
C28_3 C 0.4069(9) 0.0745(8) 0.6673(5)
H56_3 H 0.3783 0.1171 0.6693
H57_3 H 0.3843 0.0518 0.6325
C29_3 C 0.4056(9) 0.0241(7) 0.7121(4)
H58_3 H 0.3545 0.0116 0.7093
C30_3 C 0.4418(6) 0.0587(6) 0.7659(4)
H60_3 H 0.4121 0.1012 0.7677
H67_3 H 0.592923 0.0867971 0.83203
H69_3 H 0.397008 0.0394377 0.816599
N7_3 N 0.6781(4) 0.8804(4) 0.0356(3)
H37_3 H 0.7134 0.9014 0.0600
C19_3 C 0.6840(6) 0.8105(7) 0.0133(5)
H41_3 H 0.6565 0.7792 0.0310
C20_3 C 0.7610(6) 0.7803(6) 0.0301(5)
H42_3 H 0.7946 0.8139 0.0206
H43_3 H 0.7776 0.7743 0.0692
C21_3 C 0.7652(9) 0.7088(9) 0.0033(7)
H44_3 H 0.7453 0.6722 0.0217
H45_3 H 0.8173 0.6975 0.0085
H68_3 H 0.66019 0.857735 0.0646889
In2_3 In 0.92954(4) 0.88601(4) 0.74406(3)
In4_3 In 0.72447(4) 0.90091(3) 0.63671(3)
In5_2 In 0.98304(4) 0.71361(4) 0.83254(3)
In6_3 In 0.84100(4) 0.84187(4) 0.86370(3)
In7_3 In 0.79171(4) 0.72034(4) 0.72851(3)
In8_3 In 0.69396(4) 0.96800(4) 0.87940(3)
In9_3 In 0.63316(4) 0.84827(3) 0.75412(3)
S2_3 S 0.97514(15) 0.97637(16) 0.69706(14)
S4_3 S 0.76964(16) 0.99167(15) 0.58989(11)
S6_3 S 0.88228(13) 0.93992(13) 0.81422(11)
S7_3 S 0.82903(14) 0.81826(13) 0.67770(10)
S9_3 S 0.67415(13) 0.95028(12) 0.70786(10)
S10_3 S 0.61867(14) 0.84250(13) 0.57570(10)
S11_3 S 0.93546(16) 0.75690(15) 0.90373(11)
S12_3 S 0.89807(16) 0.64383(15) 0.76088(13)
S13_3 S 0.80395(14) 0.90571(15) 0.93101(10)
S14_3 S 0.74090(13) 0.77025(13) 0.79910(10)
S15_3 S 0.69342(14) 0.65652(13) 0.66437(10)
S17_3 S 0.58956(14) 0.89763(14) 0.82425(10)
S18_3 S 0.53596(14) 0.78209(14) 0.69233(11)
N8_3 N 0.5686(4) 0.8328(4) 0.9435(3)
H38_3 H 0.5311 0.8161 0.9183
H40_3 H 0.4175 0.9731 0.8100
C22_3 C 0.7268(9) 0.7052(9) 0.9474(7)
H46_3 H 0.7550 0.7320 0.9281
H47_3 H 0.7257 0.6557 0.9360
C23_3 C 0.6494(6) 0.7326(6) 0.9310(5)
H48_3 H 0.6319 0.7379 0.8919
H49_3 H 0.6172 0.6985 0.9414
C24_3 C 0.6447(7) 0.8038(7) 0.9572(6)
H50_3 H 0.6707 0.8367 0.9395
H59_3 H 0.4321 0.9805 0.7090
H70_3 H 0.557024 0.799376 0.970351
In1_4 In 0.13038(4) 0.55253(4) 0.84145(3)
In2_4 In 0.07046(4) 0.38601(4) 0.75594(3)
In3_4 In 0.22495(4) 0.51926(3) 0.72841(3)
In4_4 In 0.27553(4) 0.40091(3) 0.86329(3)
In6_4 In 0.15900(4) 0.34187(4) 0.63630(3)
In7_4 In 0.20829(4) 0.22034(4) 0.77149(3)
In8_4 In 0.30604(4) 0.46800(4) 0.62060(3)
In9_4 In 0.36684(4) 0.34827(3) 0.74588(3)
S2_4 S 0.02486(15) 0.47637(16) 0.80294(14)
S3_4 S 0.18376(16) 0.61074(14) 0.77763(11)
S4_4 S 0.23036(16) 0.49167(15) 0.91011(11)
S6_4 S 0.11772(13) 0.43992(13) 0.68578(11)
S7_4 S 0.17097(14) 0.31826(13) 0.82230(10)
S8_4 S 0.27405(15) 0.57384(13) 0.66280(11)
S9_4 S 0.32585(13) 0.45028(12) 0.79214(10)
S10_4 S 0.38133(14) 0.34250(13) 0.92430(10)
S11_4 S 0.06454(16) 0.25690(15) 0.59627(11)
S12_4 S 0.10193(16) 0.14383(15) 0.73912(13)
S13_4 S 0.19605(14) 0.40571(15) 0.56899(10)
S14_4 S 0.25910(13) 0.27025(13) 0.70090(10)
S15_4 S 0.30658(14) 0.15652(13) 0.83563(10)
S16_4 S 0.36684(12) 0.51373(12) 0.55426(9)
S17_4 S 0.41044(14) 0.39763(14) 0.67575(10)
S18_4 S 0.46404(14) 0.28209(14) 0.80767(11)
N7_4 N 0.3219(4) 0.3804(4) 0.4644(3)
H37_4 H 0.2866 0.4014 0.4400
N8_4 N 0.4314(4) 0.3328(4) 0.5565(3)
H38_4 H 0.4689 0.3161 0.5817
N9_4 N 0.4527(4) 0.6179(4) 0.6755(3)
H39_4 H 0.4249 0.6555 0.6700
N10_4 N 0.5584(5) 0.5128(5) 0.6873(3)
H40_4 H 0.5825 0.4731 0.6900
C19_4 C 0.3160(6) 0.3105(7) 0.4867(5)
H41_4 H 0.3435 0.2792 0.4690
C20_4 C 0.2390(6) 0.2803(6) 0.4699(5)
H42_4 H 0.2054 0.3139 0.4794
H43_4 H 0.2224 0.2743 0.4308
C21_4 C 0.2348(9) 0.2088(9) 0.4967(7)
H44_4 H 0.2547 0.1722 0.4783
H45_4 H 0.1827 0.1975 0.4915
C22_4 C 0.2732(9) 0.2052(9) 0.5526(7)
H46_4 H 0.2450 0.2320 0.5719
H47_4 H 0.2743 0.1557 0.5640
C23_4 C 0.3506(6) 0.2326(6) 0.5690(5)
H48_4 H 0.3681 0.2379 0.6081
H49_4 H 0.3828 0.1985 0.5586
C24_4 C 0.3553(7) 0.3038(7) 0.5428(6)
H50_4 H 0.3293 0.3367 0.5605
C25_4 C 0.4835(6) 0.5833(6) 0.7288(4)
H51_4 H 0.4530 0.5409 0.7291
C26_4 C 0.4787(6) 0.6306(6) 0.7746(4)
H52_4 H 0.4268 0.6407 0.7712
H53_4 H 0.5037 0.6757 0.7732
C27_4 C 0.5146(9) 0.5944(8) 0.8274(5)
H54_4 H 0.4866 0.5516 0.8301
H55_4 H 0.5137 0.6261 0.8569
C28_4 C 0.5931(9) 0.5745(8) 0.8327(5)
H56_4 H 0.6217 0.6171 0.8307
H57_4 H 0.6157 0.5518 0.8675
C29_4 C 0.5944(9) 0.5241(7) 0.7879(4)
H58_4 H 0.6455 0.5116 0.7907
H59_4 H 0.5679 0.4805 0.7910
C30_4 C 0.5582(6) 0.5587(6) 0.7341(4)
H60_4 H 0.5879 0.6012 0.7323
H67_4 H 0.407077 0.586797 0.66797
H68_4 H 0.33981 0.357735 0.435311
H69_4 H 0.602992 0.539438 0.683401
H70_4 H 0.442976 0.299376 0.529649
S5_4 S 0.96835(14) 0.30844(16) 0.71289(12)
loop_
_geom_bond_atom_site_label_1
_geom_bond_atom_site_label_2
_geom_bond_site_symmetry_1
_geom_bond_site_symmetry_2
H28 C14 1_555 1_555
H29 C14 1_555 1_555
C15 C14 1_555 1_555
H30 C15 1_555 1_555
H31 C15 1_555 1_555
N1 H1 1_555 1_555
C1 N1 1_555 1_555
H7 C1 1_555 1_555
C2 C1 1_555 1_555
H8 C2 1_555 1_555
H9 C2 1_555 1_555
C3 C2 1_555 1_555
H10 C3 1_555 1_555
H11 C3 1_555 1_555
C4 C3 1_555 1_555
H12 C4 1_555 1_555
H13 C4 1_555 1_555
C5 C4 1_555 1_555
H14 C5 1_555 1_555
H15 C5 1_555 1_555
H16 C6 1_555 1_555
C1 C6 1_555 1_555
C5 C6 1_555 1_555
N1 H66 1_555 1_555
N2 Ni1 1_555 1_555
H2 N2 1_555 1_555
N3 Ni1 1_555 1_555
H3 N3 1_555 1_555
N4 Ni1 1_555 1_555
H4 N4 1_555 1_555
N5 Ni1 1_555 1_555
H5 N5 1_555 1_555
N6 Ni1 1_555 1_555
H6 N6 1_555 1_555
C7 N3 1_555 1_555
H17 C7 1_555 1_555
C8 C7 1_555 1_555
H18 C8 1_555 1_555
H19 C8 1_555 1_555
C9 C8 1_555 1_555
H20 C9 1_555 1_555
H21 C9 1_555 1_555
C10 C9 1_555 1_555
H22 C10 1_555 1_555
H23 C10 1_555 1_555
C11 C10 1_555 1_555
H24 C11 1_555 1_555
H25 C11 1_555 1_555
C12 N4 1_555 1_555
H26 C12 1_555 1_555
C13 N5 1_555 1_555
H27 C13 1_555 1_555
C17 C16 1_555 1_555
H34 C17 1_555 1_555
H35 C17 1_555 1_555
C18 N6 1_555 1_555
H36 C18 1_555 1_555
C7 C12 1_555 1_555
C11 C12 1_555 1_555
C13 C18 1_555 1_555
C17 C18 1_555 1_555
N4 H61 1_555 1_555
N5 H62 1_555 1_555
N6 H63 1_555 1_555
N3 H64 1_555 1_555
N2 H65 1_555 1_555
Ni1_2 N1_2 1_555 1_555
N1_2 H1_2 1_555 1_555
N2_2 Ni1_2 1_555 1_555
H2_2 N2_2 1_555 1_555
N3_2 Ni1_2 1_555 1_555
H3_2 N3_2 1_555 1_555
N4_2 Ni1_2 1_555 1_555
H4_2 N4_2 1_555 1_555
N5_2 Ni1_2 1_555 1_555
H5_2 N5_2 1_555 1_555
N6_2 Ni1_2 1_555 1_555
H6_2 N6_2 1_555 1_555
C1_2 N1_2 1_555 1_555
H7_2 C1_2 1_555 1_555
C2_2 C1_2 1_555 1_555
H8_2 C2_2 1_555 1_555
H9_2 C2_2 1_555 1_555
C3_2 C2_2 1_555 1_555
H10_2 C3_2 1_555 1_555
H11_2 C3_2 1_555 1_555
C4_2 C3_2 1_555 1_555
H12_2 C4_2 1_555 1_555
H13_2 C4_2 1_555 1_555
C5_2 C4_2 1_555 1_555
H14_2 C5_2 1_555 1_555
H15_2 C5_2 1_555 1_555
C6_2 N2_2 1_555 1_555
H16_2 C6_2 1_555 1_555
C7_2 N3_2 1_555 1_555
H17_2 C7_2 1_555 1_555
C8_2 C7_2 1_555 1_555
H18_2 C8_2 1_555 1_555
H19_2 C8_2 1_555 1_555
C9_2 C8_2 1_555 1_555
H20_2 C9_2 1_555 1_555
H21_2 C9_2 1_555 1_555
C10_2 C9_2 1_555 1_555
H22_2 C10_2 1_555 1_555
H23_2 C10_2 1_555 1_555
C11_2 C10_2 1_555 1_555
H24_2 C11_2 1_555 1_555
H25_2 C11_2 1_555 1_555
C12_2 N4_2 1_555 1_555
H26_2 C12_2 1_555 1_555
C13_2 N5_2 1_555 1_555
H27_2 C13_2 1_555 1_555
C14_2 C13_2 1_555 1_555
H28_2 C14_2 1_555 1_555
H29_2 C14_2 1_555 1_555
C15_2 C14_2 1_555 1_555
H30_2 C15_2 1_555 1_555
H31_2 C15_2 1_555 1_555
C16_2 C15_2 1_555 1_555
H32_2 C16_2 1_555 1_555
C17_2 C16_2 1_555 1_555
H34_2 C17_2 1_555 1_555
H35_2 C17_2 1_555 1_555
C18_2 N6_2 1_555 1_555
H36_2 C18_2 1_555 1_555
C1_2 C6_2 1_555 1_555
C5_2 C6_2 1_555 1_555
C7_2 C12_2 1_555 1_555
C11_2 C12_2 1_555 1_555
C13_2 C18_2 1_555 1_555
C17_2 C18_2 1_555 1_555
N4_2 H61_2 1_555 1_555
N5_2 H62_2 1_555 1_555
N6_2 H63_2 1_555 1_555
N3_2 H64_2 1_555 1_555
N2_2 H65_2 1_555 1_555
N1_2 H66_2 1_555 1_555
N2_3 Ni1_3 1_555 1_555
H2_3 N2_3 1_555 1_555
N3_3 Ni1_3 1_555 1_555
H3_3 N3_3 1_555 1_555
N4_3 Ni1_3 1_555 1_555
H4_3 N4_3 1_555 1_555
N5_3 Ni1_3 1_555 1_555
H5_3 N5_3 1_555 1_555
N6_3 Ni1_3 1_555 1_555
H6_3 N6_3 1_555 1_555
C7_3 N3_3 1_555 1_555
H17_3 C7_3 1_555 1_555
C8_3 C7_3 1_555 1_555
H18_3 C8_3 1_555 1_555
H19_3 C8_3 1_555 1_555
C9_3 C8_3 1_555 1_555
H20_3 C9_3 1_555 1_555
H21_3 C9_3 1_555 1_555
C10_3 C9_3 1_555 1_555
H22_3 C10_3 1_555 1_555
H23_3 C10_3 1_555 1_555
C11_3 C10_3 1_555 1_555
H24_3 C11_3 1_555 1_555
H25_3 C11_3 1_555 1_555
C12_3 N4_3 1_555 1_555
H26_3 C12_3 1_555 1_555
C13_3 N5_3 1_555 1_555
H27_3 C13_3 1_555 1_555
C17_3 C16_3 1_555 1_555
H34_3 C17_3 1_555 1_555
H35_3 C17_3 1_555 1_555
C18_3 N6_3 1_555 1_555
H36_3 C18_3 1_555 1_555
C7_3 C12_3 1_555 1_555
C11_3 C12_3 1_555 1_555
C13_3 C18_3 1_555 1_555
C17_3 C18_3 1_555 1_555
N4_3 H61_3 1_555 1_555
N5_3 H62_3 1_555 1_555
N6_3 H63_3 1_555 1_555
N3_3 H64_3 1_555 1_555
N2_3 H65_3 1_555 1_555
N1_3 H1_3 1_555 1_555
C1_3 N1_3 1_555 1_555
H7_3 C1_3 1_555 1_555
C2_3 C1_3 1_555 1_555
H8_3 C2_3 1_555 1_555
H9_3 C2_3 1_555 1_555
C3_3 C2_3 1_555 1_555
H10_3 C3_3 1_555 1_555
H11_3 C3_3 1_555 1_555
C4_3 C3_3 1_555 1_555
H12_3 C4_3 1_555 1_555
H13_3 C4_3 1_555 1_555
C5_3 C4_3 1_555 1_555
H14_3 C5_3 1_555 1_555
H15_3 C5_3 1_555 1_555
H16_3 C6_3 1_555 1_555
C1_3 C6_3 1_555 1_555
C5_3 C6_3 1_555 1_555
N1_3 H66_3 1_555 1_555
H28_3 C14_3 1_555 1_555
H29_3 C14_3 1_555 1_555
C15_3 C14_3 1_555 1_555
H30_3 C15_3 1_555 1_555
H31_3 C15_3 1_555 1_555
Ni1_4 N1_4 1_555 1_555
N1_4 H1_4 1_555 1_555
N2_4 Ni1_4 1_555 1_555
H2_4 N2_4 1_555 1_555
N3_4 Ni1_4 1_555 1_555
H3_4 N3_4 1_555 1_555
N4_4 Ni1_4 1_555 1_555
H4_4 N4_4 1_555 1_555
N5_4 Ni1_4 1_555 1_555
H5_4 N5_4 1_555 1_555
N6_4 Ni1_4 1_555 1_555
H6_4 N6_4 1_555 1_555
C1_4 N1_4 1_555 1_555
H7_4 C1_4 1_555 1_555
C2_4 C1_4 1_555 1_555
H8_4 C2_4 1_555 1_555
H9_4 C2_4 1_555 1_555
C3_4 C2_4 1_555 1_555
H10_4 C3_4 1_555 1_555
H11_4 C3_4 1_555 1_555
C4_4 C3_4 1_555 1_555
H12_4 C4_4 1_555 1_555
H13_4 C4_4 1_555 1_555
C5_4 C4_4 1_555 1_555
H14_4 C5_4 1_555 1_555
H15_4 C5_4 1_555 1_555
C6_4 N2_4 1_555 1_555
H16_4 C6_4 1_555 1_555
C7_4 N3_4 1_555 1_555
H17_4 C7_4 1_555 1_555
C8_4 C7_4 1_555 1_555
H18_4 C8_4 1_555 1_555
H19_4 C8_4 1_555 1_555
C9_4 C8_4 1_555 1_555
H20_4 C9_4 1_555 1_555
H21_4 C9_4 1_555 1_555
C10_4 C9_4 1_555 1_555
H22_4 C10_4 1_555 1_555
H23_4 C10_4 1_555 1_555
C11_4 C10_4 1_555 1_555
H24_4 C11_4 1_555 1_555
H25_4 C11_4 1_555 1_555
C12_4 N4_4 1_555 1_555
H26_4 C12_4 1_555 1_555
C13_4 N5_4 1_555 1_555
H27_4 C13_4 1_555 1_555
C14_4 C13_4 1_555 1_555
H28_4 C14_4 1_555 1_555
H29_4 C14_4 1_555 1_555
C15_4 C14_4 1_555 1_555
H30_4 C15_4 1_555 1_555
H31_4 C15_4 1_555 1_555
C16_4 C15_4 1_555 1_555
H32_4 C16_4 1_555 1_555
C17_4 C16_4 1_555 1_555
H34_4 C17_4 1_555 1_555
H35_4 C17_4 1_555 1_555
C18_4 N6_4 1_555 1_555
H36_4 C18_4 1_555 1_555
C1_4 C6_4 1_555 1_555
C5_4 C6_4 1_555 1_555
C7_4 C12_4 1_555 1_555
C11_4 C12_4 1_555 1_555
C13_4 C18_4 1_555 1_555
C17_4 C18_4 1_555 1_555
N4_4 H61_4 1_555 1_555
N5_4 H62_4 1_555 1_555
N6_4 H63_4 1_555 1_555
N3_4 H64_4 1_555 1_555
N2_4 H65_4 1_555 1_555
N1_4 H66_4 1_555 1_555
In2 S2 1_555 1_555
In4 S4 1_555 1_555
In6 S6 1_555 1_555
In7 S7 1_555 1_555
In9 S9 1_555 1_555
In10 S10 1_555 1_555
S6 In2 1_555 1_555
S7 In2 1_555 1_555
S10 In4 1_555 1_555
S11 In5 1_555 1_555
S12 In5 1_555 1_555
S13 In6 1_555 1_555
S14 In6 1_555 1_555
S15 In7 1_555 1_555
S17 In8 1_555 1_555
S18 In9 1_555 1_555
N8 In11 1_555 1_555
H38 N8 1_555 1_555
H46 C22 1_555 1_555
H47 C22 1_555 1_555
C23 C22 1_555 1_555
H48 C23 1_555 1_555
H49 C23 1_555 1_555
C24 N8 1_555 1_555
H50 C24 1_555 1_555
S22 In11 1_555 1_555
S24 In10 1_555 1_555
In4 S7 1_555 1_555
In4 S9 1_555 1_555
In6 S11 1_555 1_555
In7 S12 1_555 1_555
In7 S14 1_555 1_555
In8 S13 1_555 1_555
In9 S14 1_555 1_555
In9 S17 1_555 1_555
In10 S15 1_555 1_555
In10 S18 1_555 1_555
C23 C24 1_555 1_555
N8 H70 1_555 1_555
H37 N7 1_555 1_555
C19 N7 1_555 1_555
H41 C19 1_555 1_555
C20 C19 1_555 1_555
H42 C20 1_555 1_555
H43 C20 1_555 1_555
C21 C20 1_555 1_555
H44 C21 1_555 1_555
H45 C21 1_555 1_555
In14 S20 1_555 1_555
S20 In16 1_555 1_555
N7 H68 1_555 1_555
In1 S1 1_555 1_555
In3 S3 1_555 1_555
In12 S16 1_555 1_555
S3 In1 1_555 1_555
S8 In3 1_555 1_555
N9 In12 1_555 1_555
H39 N9 1_555 1_555
N10 In12 1_555 1_555
C25 N9 1_555 1_555
H51 C25 1_555 1_555
C26 C25 1_555 1_555
H52 C26 1_555 1_555
H53 C26 1_555 1_555
C27 C26 1_555 1_555
H54 C27 1_555 1_555
H55 C27 1_555 1_555
C28 C27 1_555 1_555
H56 C28 1_555 1_555
H57 C28 1_555 1_555
C29 C28 1_555 1_555
H58 C29 1_555 1_555
C30 N10 1_555 1_555
H60 C30 1_555 1_555
S23 In12 1_555 1_555
C25 C30 1_555 1_555
C29 C30 1_555 1_555
N9 H67 1_555 1_555
N10 H69 1_555 1_555
In15 S19 1_555 1_555
In1_2 S21 1_555 1_555
In2_2 S2_2 1_555 1_555
In3_2 S3_2 1_555 1_555
In4_2 S4_2 1_555 1_555
In6_2 S6_2 1_555 1_555
In7_2 S7_2 1_555 1_555
In8_2 S8_2 1_555 1_555
In9_2 S9_2 1_555 1_555
In10_2 S10_2 1_555 1_555
In11_2 S16_2 1_555 1_555
In12_2 S16_2 1_555 1_555
S2_2 In1_2 1_555 1_555
S3_2 In1_2 1_555 1_555
S4_2 In1_2 1_555 1_555
S6_2 In2_2 1_555 1_555
S7_2 In2_2 1_555 1_555
S8_2 In3_2 1_555 1_555
S9_2 In3_2 1_555 1_555
S10_2 In4_2 1_555 1_555
S11_2 In13 1_555 1_555
S12_2 In13 1_555 1_555
S13_2 In6_2 1_555 1_555
S14_2 In6_2 1_555 1_555
S15_2 In7_2 1_555 1_555
S16_2 In8_2 1_555 1_555
S17_2 In8_2 1_555 1_555
S18_2 In9_2 1_555 1_555
S19_2 In11_2 1_555 1_555
S20_2 In11_2 1_555 1_555
N7_2 In11_2 1_555 1_555
H37_2 N7_2 1_555 1_555
N8_2 In11_2 1_555 1_555
H38_2 N8_2 1_555 1_555
N9_2 In12_2 1_555 1_555
H39_2 N9_2 1_555 1_555
N10_2 In12_2 1_555 1_555
H40_2 N10_2 1_555 1_555
C19_2 N7_2 1_555 1_555
H41_2 C19_2 1_555 1_555
C20_2 C19_2 1_555 1_555
H42_2 C20_2 1_555 1_555
H43_2 C20_2 1_555 1_555
C21_2 C20_2 1_555 1_555
H44_2 C21_2 1_555 1_555
H45_2 C21_2 1_555 1_555
C22_2 C21_2 1_555 1_555
H46_2 C22_2 1_555 1_555
H47_2 C22_2 1_555 1_555
C23_2 C22_2 1_555 1_555
H48_2 C23_2 1_555 1_555
H49_2 C23_2 1_555 1_555
C24_2 N8_2 1_555 1_555
H50_2 C24_2 1_555 1_555
C25_2 N9_2 1_555 1_555
H51_2 C25_2 1_555 1_555
C26_2 C25_2 1_555 1_555
H52_2 C26_2 1_555 1_555
H53_2 C26_2 1_555 1_555
C27_2 C26_2 1_555 1_555
H54_2 C27_2 1_555 1_555
H55_2 C27_2 1_555 1_555
C28_2 C27_2 1_555 1_555
H56_2 C28_2 1_555 1_555
H57_2 C28_2 1_555 1_555
C29_2 C28_2 1_555 1_555
H58_2 C29_2 1_555 1_555
H59_2 C29_2 1_555 1_555
C30_2 N10_2 1_555 1_555
H60_2 C30_2 1_555 1_555
In14_2 S20_2 1_555 1_555
In15_2 S19_2 1_555 1_555
In16_2 S19_2 1_555 1_555
S22_2 In11_2 1_555 1_555
S24 In12_2 1_555 1_555
S23 In10_2 1_555 1_555
In3_2 S6_2 1_555 1_555
In4_2 S7_2 1_555 1_555
In4_2 S9_2 1_555 1_555
In6_2 S11_2 1_555 1_555
In7_2 S12_2 1_555 1_555
In7_2 S14_2 1_555 1_555
In8_2 S13_2 1_555 1_555
In9_2 S14_2 1_555 1_555
In9_2 S17_2 1_555 1_555
In10_2 S15_2 1_555 1_555
In10_2 S18_2 1_555 1_555
In12_2 S22_2 1_555 1_555
S20_2 In16_2 1_555 1_555
C19_2 C24_2 1_555 1_555
C23_2 C24_2 1_555 1_555
C25_2 C30_2 1_555 1_555
C29_2 C30_2 1_555 1_555
In15_2 S22_2 1_555 1_555
In15_2 S24 1_555 1_555
N9_2 H67_2 1_555 1_555
N7_2 H68_2 1_555 1_555
N10_2 H69_2 1_555 1_555
N8_2 H70_2 1_555 1_555
In1_3 S1_2 1_555 1_555
In3_3 S3_3 1_555 1_555
In16 S16_3 1_555 1_555
S3_3 In1_3 1_555 1_555
S8_3 In3_3 1_555 1_555
N9_3 In16 1_555 1_555
H39_3 N9_3 1_555 1_555
N10_3 In16 1_555 1_555
C25_3 N9_3 1_555 1_555
H51_3 C25_3 1_555 1_555
C26_3 C25_3 1_555 1_555
H52_3 C26_3 1_555 1_555
H53_3 C26_3 1_555 1_555
C27_3 C26_3 1_555 1_555
H54_3 C27_3 1_555 1_555
H55_3 C27_3 1_555 1_555
C28_3 C27_3 1_555 1_555
H56_3 C28_3 1_555 1_555
H57_3 C28_3 1_555 1_555
C29_3 C28_3 1_555 1_555
H58_3 C29_3 1_555 1_555
C30_3 N10_3 1_555 1_555
H60_3 C30_3 1_555 1_555
C25_3 C30_3 1_555 1_555
C29_3 C30_3 1_555 1_555
N9_3 H67_3 1_555 1_555
N10_3 H69_3 1_555 1_555
H37_3 N7_3 1_555 1_555
C19_3 N7_3 1_555 1_555
H41_3 C19_3 1_555 1_555
C20_3 C19_3 1_555 1_555
H42_3 C20_3 1_555 1_555
H43_3 C20_3 1_555 1_555
C21_3 C20_3 1_555 1_555
H44_3 C21_3 1_555 1_555
H45_3 C21_3 1_555 1_555
N7_3 H68_3 1_555 1_555
In2_3 S2_3 1_555 1_555
In4_3 S4_3 1_555 1_555
In6_3 S6_3 1_555 1_555
In7_3 S7_3 1_555 1_555
In9_3 S9_3 1_555 1_555
In14_2 S10_3 1_555 1_555
S6_3 In2_3 1_555 1_555
S7_3 In2_3 1_555 1_555
S10_3 In4_3 1_555 1_555
S11_3 In5_2 1_555 1_555
S12_3 In5_2 1_555 1_555
S13_3 In6_3 1_555 1_555
S14_3 In6_3 1_555 1_555
S15_3 In7_3 1_555 1_555
S17_3 In8_3 1_555 1_555
S18_3 In9_3 1_555 1_555
N8_3 In15 1_555 1_555
H38_3 N8_3 1_555 1_555
H46_3 C22_3 1_555 1_555
H47_3 C22_3 1_555 1_555
C23_3 C22_3 1_555 1_555
H48_3 C23_3 1_555 1_555
H49_3 C23_3 1_555 1_555
C24_3 N8_3 1_555 1_555
H50_3 C24_3 1_555 1_555
In4_3 S7_3 1_555 1_555
In4_3 S9_3 1_555 1_555
In6_3 S11_3 1_555 1_555
In7_3 S12_3 1_555 1_555
In7_3 S14_3 1_555 1_555
In8_3 S13_3 1_555 1_555
In9_3 S14_3 1_555 1_555
In9_3 S17_3 1_555 1_555
In14_2 S15_3 1_555 1_555
In14_2 S18_3 1_555 1_555
C23_3 C24_3 1_555 1_555
N8_3 H70_3 1_555 1_555
In1_4 S21_2 1_555 1_555
In2_4 S2_4 1_555 1_555
In3_4 S3_4 1_555 1_555
In4_4 S4_4 1_555 1_555
In6_4 S6_4 1_555 1_555
In7_4 S7_4 1_555 1_555
In8_4 S8_4 1_555 1_555
In9_4 S9_4 1_555 1_555
In14 S10_4 1_555 1_555
In15_2 S16_4 1_555 1_555
In16_2 S16_4 1_555 1_555
S2_4 In1_4 1_555 1_555
S3_4 In1_4 1_555 1_555
S4_4 In1_4 1_555 1_555
S6_4 In2_4 1_555 1_555
S7_4 In2_4 1_555 1_555
S8_4 In3_4 1_555 1_555
S9_4 In3_4 1_555 1_555
S10_4 In4_4 1_555 1_555
S11_4 In13_2 1_555 1_555
S12_4 In13_2 1_555 1_555
S13_4 In6_4 1_555 1_555
S14_4 In6_4 1_555 1_555
S15_4 In7_4 1_555 1_555
S16_4 In8_4 1_555 1_555
S17_4 In8_4 1_555 1_555
S18_4 In9_4 1_555 1_555
N7_4 In15_2 1_555 1_555
H37_4 N7_4 1_555 1_555
N8_4 In15_2 1_555 1_555
H38_4 N8_4 1_555 1_555
N9_4 In16_2 1_555 1_555
H39_4 N9_4 1_555 1_555
N10_4 In16_2 1_555 1_555
H40_4 N10_4 1_555 1_555
C19_4 N7_4 1_555 1_555
H41_4 C19_4 1_555 1_555
C20_4 C19_4 1_555 1_555
H42_4 C20_4 1_555 1_555
H43_4 C20_4 1_555 1_555
C21_4 C20_4 1_555 1_555
H44_4 C21_4 1_555 1_555
H45_4 C21_4 1_555 1_555
C22_4 C21_4 1_555 1_555
H46_4 C22_4 1_555 1_555
H47_4 C22_4 1_555 1_555
C23_4 C22_4 1_555 1_555
H48_4 C23_4 1_555 1_555
H49_4 C23_4 1_555 1_555
C24_4 N8_4 1_555 1_555
H50_4 C24_4 1_555 1_555
C25_4 N9_4 1_555 1_555
H51_4 C25_4 1_555 1_555
C26_4 C25_4 1_555 1_555
H52_4 C26_4 1_555 1_555
H53_4 C26_4 1_555 1_555
C27_4 C26_4 1_555 1_555
H54_4 C27_4 1_555 1_555
H55_4 C27_4 1_555 1_555
C28_4 C27_4 1_555 1_555
H56_4 C28_4 1_555 1_555
H57_4 C28_4 1_555 1_555
C29_4 C28_4 1_555 1_555
H58_4 C29_4 1_555 1_555
H59_4 C29_4 1_555 1_555
C30_4 N10_4 1_555 1_555
H60_4 C30_4 1_555 1_555
In3_4 S6_4 1_555 1_555
In4_4 S7_4 1_555 1_555
In4_4 S9_4 1_555 1_555
In6_4 S11_4 1_555 1_555
In7_4 S12_4 1_555 1_555
In7_4 S14_4 1_555 1_555
In8_4 S13_4 1_555 1_555
In9_4 S14_4 1_555 1_555
In9_4 S17_4 1_555 1_555
In14 S15_4 1_555 1_555
In14 S18_4 1_555 1_555
C19_4 C24_4 1_555 1_555
C23_4 C24_4 1_555 1_555
C25_4 C30_4 1_555 1_555
C29_4 C30_4 1_555 1_555
N9_4 H67_4 1_555 1_555
N7_4 H68_4 1_555 1_555
N10_4 H69_4 1_555 1_555
N8_4 H70_4 1_555 1_555

#END
