
###############################################################################
#
# This file contains modified crystal structure data generated from the
# MOF subset of the Cambridge Structural Database (CSD) v543 
# hosted by the Cambridge Crystallographic Data Centre (CCDC).
#
# This work is licensed under the Creative Commons
# Attribution-NonCommercial-ShareAlike 4.0 International License.
# To view a copy of this license, visit
# http://creativecommons.org/licenses/by-nc-sa/4.0/
# or send a letter to
# Creative Commons, PO Box 1866, Mountain View, CA 94042, USA.
#
# CIF created using the CSD Python API on 29 September 2022
# The structure has been converted into the P1 space group
# The structure has a 3D framework
# The original CSD entry BIDPAH is in the rhombohedral crystal system
# The framework has been calculated to contain at least 10.0% void space
# The void calculation uses a probe of radius 1.32A, grid spacing 0.4
# The framework is charged, counterions have been retained in the structure
#
###############################################################################

data_BIDPAH
_chemical_formula_moiety         '(C440 H274 In18 N22 O136 12-)n'
_symmetry_cell_setting           triclinic
_symmetry_space_group_name_H-M   'P 1'
_symmetry_Int_Tables_number      1
_space_group_name_Hall           'P 1'
loop_
_symmetry_equiv_pos_site_id
_symmetry_equiv_pos_as_xyz
1 x,y,z
_cell_length_a                   38.2369(10)
_cell_length_b                   38.2369(10)
_cell_length_c                   22.7356(12)
_cell_angle_alpha                90
_cell_angle_beta                 90
_cell_angle_gamma                120
_cell_volume                     28787.4
loop_
_atom_site_label
_atom_site_type_symbol
_atom_site_fract_x
_atom_site_fract_y
_atom_site_fract_z
In1 In 0.411383(7) 0.078050(7) 0.0833
N1 N 0.6667 0.11489(10) 0.0833
O1 O 0.46590(6) 0.07451(6) 0.11442(11)
O2 O 0.46951(6) 0.10389(6) 0.03052(10)
C1 C 0.48486(10) 0.09212(9) 0.07065(19)
C2 C 0.52770(9) 0.10145(9) 0.06055(17)
C3 C 0.54957(10) 0.12221(10) 0.01211(17)
C4 C 0.58938(10) 0.13056(10) 0.00518(17)
C5 C 0.60677(8) 0.11705(8) 0.04489(17)
C6 C 0.58417(9) 0.09582(9) 0.09221(16)
H3 H 0.5953 0.0862 0.1197
C7 C 0.54528(9) 0.08821(8) 0.10053(15)
H4 H 0.5309 0.0740 0.1336
C8 C 0.64917(8) 0.12698(9) 0.03513(15)
H6 H 0.6657 0.1559 0.0293
C9 C 0.6667 0.07817(12) 0.0833
C10 C 0.64557(7) 0.04864(9) 0.04156(13)
H7 H 0.6308 0.0531 0.0130
C11 C 0.64596(8) 0.01348(9) 0.04137(14)
C12 C 0.6667 0.00575(11) 0.0833
O5 O 0.86743(6) 0.27528(8) 0.05225(11)
O6 O 0.86382(6) 0.30105(8) 0.13615(10)
O8 O 0.72743(7) 0.05017(10) 0.21233(10)
C14 C 0.84847(10) 0.27393(13) 0.09602(19)
C15 C 0.80563(9) 0.24042(13) 0.10612(17)
C16 C 0.78376(10) 0.23931(14) 0.15456(17)
H9 H 0.7954 0.2596 0.1829
C17 C 0.74395(10) 0.20785(14) 0.16149(17)
H10 H 0.7290 0.2080 0.1938
C18 C 0.72656(8) 0.17695(11) 0.12178(17)
C19 C 0.74916(9) 0.17832(13) 0.07446(16)
H11 H 0.7380 0.1576 0.0470
C20 C 0.78805(9) 0.20960(12) 0.06614(15)
H12 H 0.8024 0.2098 0.0331
C21 C 0.68416(8) 0.14448(12) 0.13154(15)
H13 H 0.6830 0.1303 0.1675
H14 H 0.6676 0.1569 0.1374
C22 C 0.68776(7) 0.06974(11) 0.12511(13)
H15 H 0.7025 0.0890 0.1537
C23 C 0.68737(8) 0.03419(12) 0.12530(14)
C24 C 0.70992(9) 0.02654(14) 0.17209(17)
In2 In 0.921950(7) 0.333333(10) 0.0833
In4 In 0.744717(7) 0.000000(10) 0.2500
O9 O 0.40784(6) 0.13257(6) 0.05225(11)
O10 O 0.43722(6) 0.13618(6) 0.13615(10)
O11 O 0.37707(6) 0.05040(7) 0.00306(9)
O12 O 0.38373(7) 0.04374(6) 0.16361(9)
O13 O 0.39410(7) 0.01060(7) 0.04566(10)
O14 O 0.34393(7) 0.06077(7) 0.12101(10)
H8 H 0.6667 0.9814 0.0833
O7 O 0.71040(6) 0.99334(9) 0.16973(9)
In4_2 In 0.744717(7) 1.000000(10) 0.2500
O3 O 0.62293(6) 0.94960(7) 0.99694(9)
O4 O 0.60590(7) 0.98940(7) 0.95434(10)
C13 C 0.62341(9) 0.98328(11) 0.99458(17)
In3 In 0.588617(7) 0.921950(7) 0.9167
H8_2 H 0.0186 0.6853 0.0833
O7_2 O 0.00666(9) 0.71707(11) 0.16973(9)
In4_3 In -0.000000(10) 0.744716(12) 0.2500
O3_2 O 0.05040(7) 0.67333(9) 0.99694(9)
O4_2 O 0.01060(7) 0.61650(10) 0.95434(10)
C13_2 C 0.01672(11) 0.64013(14) 0.99458(17)
In3_2 In 0.078050(7) 0.666667(10) 0.9167
N1_2 N 0.88511(10) 0.55181(10) 0.0833
O1_2 O 0.92549(6) 0.39139(8) 0.11442(11)
O2_2 O 0.89611(6) 0.36562(8) 0.03052(10)
C1_2 C 0.90788(9) 0.39274(13) 0.07065(19)
C2_2 C 0.89855(9) 0.42625(13) 0.06055(17)
C3_2 C 0.87779(10) 0.42736(14) 0.01211(17)
C4_2 C 0.86944(10) 0.45882(14) 0.00518(17)
C5_2 C 0.88295(8) 0.48972(11) 0.04489(17)
C6_2 C 0.90418(9) 0.48835(13) 0.09221(16)
H3_2 H 0.9138 0.5091 0.1197
C7_2 C 0.91179(8) 0.45707(12) 0.10053(15)
H4_2 H 0.9260 0.4569 0.1336
C8_2 C 0.87302(9) 0.52219(12) 0.03513(15)
H6_2 H 0.8441 0.5098 0.0293
C9_2 C 0.92183(12) 0.58853(12) 0.0833
C10_2 C 0.95136(9) 0.59693(11) 0.04156(13)
H7_2 H 0.9469 0.5777 0.0130
C11_2 C 0.98652(9) 0.63248(12) 0.04137(14)
C12_2 C 0.99425(11) 0.66095(11) 0.0833
O5_2 O 0.72472(8) 0.59216(10) 0.05225(11)
O6_2 O 0.69895(8) 0.56278(10) 0.13615(10)
O8_2 O 0.94983(10) 0.67727(12) 0.21233(10)
C14_2 C 0.72607(13) 0.57455(16) 0.09602(19)
C15_2 C 0.75958(13) 0.56522(16) 0.10612(17)
C16_2 C 0.76069(14) 0.54446(17) 0.15456(17)
H9_2 H 0.7404 0.5359 0.1829
C17_2 C 0.79215(14) 0.53611(17) 0.16149(17)
H10_2 H 0.7920 0.5211 0.1938
C18_2 C 0.82305(11) 0.54962(14) 0.12178(17)
C19_2 C 0.82168(13) 0.57085(16) 0.07446(16)
H11_2 H 0.8424 0.5805 0.0470
C20_2 C 0.79040(12) 0.57846(15) 0.06614(15)
H12_2 H 0.7902 0.5927 0.0331
C21_2 C 0.85552(12) 0.53969(14) 0.13154(15)
H13_2 H 0.8697 0.5528 0.1675
H14_2 H 0.8431 0.5108 0.1374
C22_2 C 0.93026(11) 0.61803(13) 0.12511(13)
H15_2 H 0.9110 0.6136 0.1537
C23_2 C 0.96581(12) 0.65319(14) 0.12530(14)
C24_2 C 0.97346(14) 0.68339(17) 0.17209(17)
In2_2 In 0.666667(10) 0.588617(12) 0.0833
In4_4 In 1.000000(10) 0.744716(12) 0.2500
O11_2 O 0.94960(7) 0.32667(9) 0.00306(9)
O12_2 O 0.95626(6) 0.34000(9) 0.16361(9)
O13_2 O 0.98940(7) 0.38350(10) 0.04566(10)
O14_2 O 0.93923(7) 0.28317(10) 0.12101(10)
N1_3 N 0.44819(10) 0.3333 0.0833
O1_3 O 0.60861(8) 0.53410(6) 0.11442(11)
O2_3 O 0.63438(8) 0.53049(6) 0.03052(10)
C1_3 C 0.60726(13) 0.51514(10) 0.07065(19)
C2_3 C 0.57375(13) 0.47230(9) 0.06055(17)
C3_3 C 0.57264(14) 0.45043(10) 0.01211(17)
C4_3 C 0.54118(14) 0.41062(10) 0.00518(17)
C5_3 C 0.51028(11) 0.39323(8) 0.04489(17)
C6_3 C 0.51165(13) 0.41583(9) 0.09221(16)
H3_3 H 0.4909 0.4047 0.1197
C7_3 C 0.54293(12) 0.45472(9) 0.10053(15)
H4_3 H 0.5431 0.4691 0.1336
C8_3 C 0.47781(12) 0.35083(8) 0.03513(15)
H6_3 H 0.4902 0.3343 0.0293
C9_3 C 0.41147(12) 0.3333 0.0833
C10_3 C 0.40307(11) 0.35443(7) 0.04156(13)
H7_3 H 0.4223 0.3692 0.0130
C11_3 C 0.36752(12) 0.35404(8) 0.04137(14)
C12_3 C 0.33905(11) 0.3333 0.0833
H8_3 H 0.3147 0.3333 0.0833
O7_3 O 0.28293(11) 0.28960(6) 0.16973(9)
O8_3 O 0.32273(12) 0.27257(7) 0.21233(10)
C14_3 C 0.42545(16) 0.15153(10) 0.09602(19)
C15_3 C 0.43478(16) 0.19437(9) 0.10612(17)
C16_3 C 0.45554(17) 0.21624(10) 0.15456(17)
H9_3 H 0.4641 0.2046 0.1829
C17_3 C 0.46389(17) 0.25605(10) 0.16149(17)
H10_3 H 0.4789 0.2710 0.1938
C18_3 C 0.45038(14) 0.27344(8) 0.12178(17)
C19_3 C 0.42915(16) 0.25084(9) 0.07446(16)
H11_3 H 0.4195 0.2620 0.0470
C20_3 C 0.42154(15) 0.21195(9) 0.06614(15)
H12_3 H 0.4073 0.1976 0.0331
C21_3 C 0.46031(14) 0.31584(8) 0.13154(15)
H13_3 H 0.4472 0.3170 0.1675
H14_3 H 0.4892 0.3324 0.1374
C22_3 C 0.38197(13) 0.31224(7) 0.12511(13)
H15_3 H 0.3864 0.2975 0.1537
C23_3 C 0.34681(14) 0.31263(8) 0.12530(14)
C24_3 C 0.31661(17) 0.29008(9) 0.17209(17)
In4_5 In 0.255284(12) 0.255283(7) 0.2500
O11_3 O 0.67333(9) 0.62293(6) 0.00306(9)
O12_3 O 0.66000(9) 0.61627(7) 0.16361(9)
O13_3 O 0.61650(10) 0.60590(7) 0.04566(10)
O14_3 O 0.71683(10) 0.65607(7) 0.12101(10)
O3_3 O 0.32667(9) 0.37707(6) 0.99694(9)
O4_3 O 0.38350(10) 0.39410(7) 0.95434(10)
H1 H 0.5929 0.4621 0.9838
H2 H 0.5413 0.3957 0.9729
H5 H 0.4636 0.3497 0.9992
C13_3 C 0.35987(14) 0.37659(9) 0.99458(17)
In3_3 In 0.333333(10) 0.411383(7) 0.9167
In1_2 In 0.078050(7) 0.411383(7) 0.4167
N1_4 N 0.11489(10) 0.6667 0.4167
O1_4 O 0.07451(6) 0.46590(6) 0.38558(11)
O2_4 O 0.10389(6) 0.46951(6) 0.46948(10)
C1_4 C 0.09212(9) 0.48486(10) 0.42935(19)
C2_4 C 0.10145(9) 0.52770(9) 0.43945(17)
C3_4 C 0.12221(10) 0.54957(10) 0.48789(17)
H1_2 H 0.1308 0.5379 0.5162
C4_4 C 0.13056(10) 0.58938(10) 0.49482(17)
H2_2 H 0.1456 0.6043 0.5271
C5_4 C 0.11705(8) 0.60677(8) 0.45511(17)
C6_4 C 0.09582(9) 0.58417(9) 0.40779(16)
H3_4 H 0.0862 0.5953 0.3803
C7_4 C 0.08821(8) 0.54528(9) 0.39947(15)
H4_4 H 0.0740 0.5309 0.3664
C8_4 C 0.12698(9) 0.64917(8) 0.46487(15)
H5_2 H 0.1139 0.6503 0.5008
H6_4 H 0.1559 0.6657 0.4707
C9_4 C 0.07817(12) 0.6667 0.4167
C10_4 C 0.04864(9) 0.64557(7) 0.45844(13)
H7_4 H 0.0531 0.6308 0.4870
C11_4 C 0.01348(9) 0.64596(8) 0.45863(14)
C12_4 C 0.00575(11) 0.6667 0.4167
O5_3 O 0.27528(8) 0.86743(6) 0.44775(11)
O6_3 O 0.30105(8) 0.86382(6) 0.36385(10)
O8_4 O 0.05017(10) 0.72743(7) 0.28767(10)
C14_4 C 0.27393(13) 0.84847(10) 0.40398(19)
C15_4 C 0.24042(13) 0.80563(9) 0.39388(17)
C16_4 C 0.23931(14) 0.78376(10) 0.34544(17)
H9_4 H 0.2596 0.7954 0.3171
C17_4 C 0.20785(14) 0.74395(10) 0.33851(17)
H10_4 H 0.2080 0.7290 0.3062
C18_4 C 0.17695(11) 0.72656(8) 0.37822(17)
C19_4 C 0.17832(13) 0.74916(9) 0.42554(16)
H11_4 H 0.1576 0.7380 0.4530
C20_4 C 0.20960(12) 0.78805(9) 0.43386(15)
H12_4 H 0.2098 0.8024 0.4669
C21_4 C 0.14448(12) 0.68416(8) 0.36846(15)
H13_4 H 0.1303 0.6830 0.3325
H14_4 H 0.1569 0.6676 0.3626
C22_4 C 0.06974(11) 0.68776(7) 0.37489(13)
H15_4 H 0.0890 0.7025 0.3463
C23_4 C 0.03419(12) 0.68737(8) 0.37470(14)
C24_4 C 0.02654(14) 0.70992(9) 0.32791(17)
In2_3 In 0.333333(10) 0.921950(7) 0.4167
O9_2 O 0.13257(6) 0.40784(6) 0.44775(11)
O10_2 O 0.13618(6) 0.43722(6) 0.36385(10)
O11_4 O 0.05040(7) 0.37707(6) 0.49694(9)
O12_4 O 0.04374(6) 0.38373(7) 0.33639(9)
O13_4 O 0.01060(7) 0.39410(7) 0.45434(10)
O14_4 O 0.06077(7) 0.34393(7) 0.37899(10)
O3_4 O 0.94960(7) 0.62293(6) 0.50306(9)
O4_4 O 0.98940(7) 0.60590(7) 0.54566(10)
H8_4 H 0.9814 0.6667 0.4167
C13_4 C 0.98328(11) 0.62341(9) 0.50542(17)
O7_4 O 0.99334(9) 0.71040(6) 0.33027(9)
In3_4 In 0.921950(7) 0.588617(7) 0.5833
O3_5 O 0.67333(9) 0.05040(7) 0.50306(9)
O4_5 O 0.61650(10) 0.01060(7) 0.54566(10)
H8_5 H 0.6853 0.0186 0.4167
C13_5 C 0.64013(14) 0.01672(11) 0.50542(17)
O7_5 O 0.71707(11) 0.00666(9) 0.33027(9)
In3_5 In 0.666667(10) 0.078050(7) 0.5833
N1_5 N 0.55181(10) 0.88511(10) 0.4167
O1_5 O 0.39139(8) 0.92549(6) 0.38558(11)
O2_5 O 0.36562(8) 0.89611(6) 0.46948(10)
C1_5 C 0.39274(13) 0.90788(9) 0.42935(19)
C2_5 C 0.42625(13) 0.89855(9) 0.43945(17)
C3_5 C 0.42736(14) 0.87779(10) 0.48789(17)
H1_3 H 0.4071 0.8692 0.5162
C4_5 C 0.45882(14) 0.86944(10) 0.49482(17)
H2_3 H 0.4587 0.8544 0.5271
C5_5 C 0.48972(11) 0.88295(8) 0.45511(17)
C6_5 C 0.48835(13) 0.90418(9) 0.40779(16)
H3_5 H 0.5091 0.9138 0.3803
C7_5 C 0.45707(12) 0.91179(8) 0.39947(15)
H4_5 H 0.4569 0.9260 0.3664
C8_5 C 0.52219(12) 0.87302(9) 0.46487(15)
H5_3 H 0.5364 0.8861 0.5008
H6_5 H 0.5098 0.8441 0.4707
C9_5 C 0.58853(12) 0.92183(12) 0.4167
C10_5 C 0.59693(11) 0.95136(9) 0.45844(13)
H7_5 H 0.5777 0.9469 0.4870
C11_5 C 0.63248(12) 0.98652(9) 0.45863(14)
C12_5 C 0.66095(11) 0.99425(11) 0.4167
O5_4 O 0.59216(10) 0.72472(8) 0.44775(11)
O6_4 O 0.56278(10) 0.69895(8) 0.36385(10)
O8_5 O 0.67727(12) 0.94983(10) 0.28767(10)
C14_5 C 0.57455(16) 0.72607(13) 0.40398(19)
C15_5 C 0.56522(16) 0.75958(13) 0.39388(17)
C16_5 C 0.54446(17) 0.76069(14) 0.34544(17)
H9_5 H 0.5359 0.7404 0.3171
C17_5 C 0.53611(17) 0.79215(14) 0.33851(17)
H10_5 H 0.5211 0.7920 0.3062
C18_5 C 0.54962(14) 0.82305(11) 0.37822(17)
C19_5 C 0.57085(16) 0.82168(13) 0.42554(16)
H11_5 H 0.5805 0.8424 0.4530
C20_5 C 0.57846(15) 0.79040(12) 0.43386(15)
H12_5 H 0.5927 0.7902 0.4669
C21_5 C 0.53969(14) 0.85552(12) 0.36846(15)
H13_5 H 0.5528 0.8697 0.3325
H14_5 H 0.5108 0.8431 0.3626
C22_5 C 0.61803(13) 0.93026(11) 0.37489(13)
H15_5 H 0.6136 0.9110 0.3463
C23_5 C 0.65319(14) 0.96581(12) 0.37470(14)
C24_5 C 0.68339(17) 0.97346(14) 0.32791(17)
In2_4 In 0.588617(12) 0.666667(10) 0.4167
O11_5 O 0.32667(9) 0.94960(7) 0.49694(9)
O12_5 O 0.34000(9) 0.95626(6) 0.33639(9)
O13_5 O 0.38350(10) 0.98940(7) 0.45434(10)
O14_5 O 0.28317(10) 0.93923(7) 0.37899(10)
N1_6 N 0.3333 0.44819(10) 0.4167
O1_6 O 0.53410(6) 0.60861(8) 0.38558(11)
O2_6 O 0.53049(6) 0.63438(8) 0.46948(10)
O3_6 O 0.37707(6) 0.32667(9) 0.50306(9)
O4_6 O 0.39410(7) 0.38350(10) 0.54566(10)
C1_6 C 0.51514(10) 0.60726(13) 0.42935(19)
C2_6 C 0.47230(9) 0.57375(13) 0.43945(17)
C3_6 C 0.45043(10) 0.57264(14) 0.48789(17)
H1_4 H 0.4621 0.5929 0.5162
C4_6 C 0.41062(10) 0.54118(14) 0.49482(17)
H2_4 H 0.3957 0.5413 0.5271
C5_6 C 0.39323(8) 0.51028(11) 0.45511(17)
C6_6 C 0.41583(9) 0.51165(13) 0.40779(16)
H3_6 H 0.4047 0.4909 0.3803
C7_6 C 0.45472(9) 0.54293(12) 0.39947(15)
H4_6 H 0.4691 0.5431 0.3664
C8_6 C 0.35083(8) 0.47781(12) 0.46487(15)
H5_4 H 0.3497 0.4636 0.5008
H6_6 H 0.3343 0.4902 0.4707
C9_6 C 0.3333 0.41147(12) 0.4167
C10_6 C 0.35443(7) 0.40307(11) 0.45844(13)
H7_6 H 0.3692 0.4223 0.4870
C11_6 C 0.35404(8) 0.36752(12) 0.45863(14)
C12_6 C 0.3333 0.33905(11) 0.4167
H8_6 H 0.3333 0.3147 0.4167
C13_6 C 0.37659(9) 0.35987(14) 0.50542(17)
O7_6 O 0.28960(6) 0.28293(11) 0.33027(9)
O8_6 O 0.27257(7) 0.32273(12) 0.28767(10)
C14_6 C 0.15153(10) 0.42545(16) 0.40398(19)
C15_6 C 0.19437(9) 0.43478(16) 0.39388(17)
C16_6 C 0.21624(10) 0.45554(17) 0.34544(17)
H9_6 H 0.2046 0.4641 0.3171
C17_6 C 0.25605(10) 0.46389(17) 0.33851(17)
H10_6 H 0.2710 0.4789 0.3062
C18_6 C 0.27344(8) 0.45038(14) 0.37822(17)
C19_6 C 0.25084(9) 0.42915(16) 0.42554(16)
H11_6 H 0.2620 0.4195 0.4530
C20_6 C 0.21195(9) 0.42154(15) 0.43386(15)
H12_6 H 0.1976 0.4073 0.4669
C21_6 C 0.31584(8) 0.46031(14) 0.36846(15)
H13_6 H 0.3170 0.4472 0.3325
H14_6 H 0.3324 0.4892 0.3626
C22_6 C 0.31224(7) 0.38197(13) 0.37489(13)
H15_6 H 0.2975 0.3864 0.3463
C23_6 C 0.31263(8) 0.34681(14) 0.37470(14)
C24_6 C 0.29008(9) 0.31661(17) 0.32791(17)
In3_6 In 0.411383(7) 0.333333(10) 0.5833
O11_6 O 0.62293(6) 0.67333(9) 0.49694(9)
O12_6 O 0.61627(7) 0.66000(9) 0.33639(9)
O13_6 O 0.60590(7) 0.61650(10) 0.45434(10)
O14_6 O 0.65607(7) 0.71683(10) 0.37899(10)
In2_5 In -0.000000(10) 0.255283(7) 0.7500
N1_7 N 0.78156(10) 0.0000 0.7500
C9_7 C 0.74484(12) 0.0000 0.7500
C12_7 C 0.67242(11) 0.0000 0.7500
H8_7 H 0.6481 0.0000 0.7500
O5_5 O 0.94194(8) 0.20077(6) 0.78109(11)
O6_5 O 0.96771(8) 0.19716(6) 0.69719(10)
O7_7 O 0.66000(9) 0.04374(6) 0.66361(9)
O8_7 O 0.71683(10) 0.06077(7) 0.62101(10)
C14_7 C 0.94059(13) 0.18181(10) 0.73732(19)
C15_7 C 0.90708(13) 0.13897(9) 0.72722(17)
C16_7 C 0.90597(14) 0.11710(10) 0.67878(17)
H9_7 H 0.9262 0.1288 0.6505
C17_7 C 0.87451(14) 0.07729(10) 0.67185(17)
H10_7 H 0.8746 0.0624 0.6396
C18_7 C 0.84361(11) 0.05990(8) 0.71156(17)
C19_7 C 0.84498(13) 0.08250(9) 0.75888(16)
H11_7 H 0.8242 0.0714 0.7864
C20_7 C 0.87626(12) 0.12139(9) 0.76720(15)
H12_7 H 0.8764 0.1358 0.8003
C21_7 C 0.81114(12) 0.01750(8) 0.70180(15)
H13_7 H 0.7969 0.0164 0.6659
H14_7 H 0.8235 0.0010 0.6960
C22_7 C 0.73640(11) 0.02110(7) 0.70823(13)
H15_7 H 0.7556 0.0359 0.6797
C23_7 C 0.70085(12) 0.02071(8) 0.70804(14)
C24_7 C 0.69320(14) 0.04326(9) 0.66125(17)
In2_6 In 1.000000(10) 0.255283(7) 0.7500
In1_3 In 0.744717(7) 0.744716(7) 0.7500
O1_7 O 0.74118(6) 0.79923(6) 0.71891(11)
O2_7 O 0.77056(6) 0.80284(6) 0.80281(10)
O3_7 O 0.61627(7) 0.95626(6) 0.83639(9)
O4_7 O 0.65607(7) 0.93923(7) 0.87899(10)
C1_7 C 0.75879(9) 0.81819(10) 0.76268(19)
C2_7 C 0.76812(9) 0.86103(9) 0.77278(17)
C3_7 C 0.78888(10) 0.88290(10) 0.82122(17)
H1_5 H 0.7975 0.8712 0.8495
C4_7 C 0.79723(10) 0.92271(10) 0.82815(17)
H2_5 H 0.8123 0.9376 0.8604
C5_7 C 0.78372(8) 0.94010(8) 0.78844(17)
C6_7 C 0.76249(9) 0.91750(9) 0.74112(16)
H3_7 H 0.7529 0.9286 0.7136
C7_7 C 0.75488(8) 0.87861(9) 0.73280(15)
H4_7 H 0.7407 0.8642 0.6997
C8_7 C 0.79365(9) 0.98250(8) 0.79820(15)
H5_5 H 0.7806 0.9836 0.8341
H6_7 H 0.8226 0.9990 0.8040
C10_7 C 0.71531(9) 0.97890(7) 0.79177(13)
H7_7 H 0.7198 0.9641 0.8203
C11_7 C 0.68015(9) 0.97929(8) 0.79196(14)
C13_7 C 0.64995(11) 0.95674(9) 0.83875(17)
O9_3 O 0.79923(6) 0.74118(6) 0.78109(11)
O10_3 O 0.80284(6) 0.77056(6) 0.69719(10)
O11_7 O 0.71707(7) 0.71040(6) 0.83027(9)
O12_7 O 0.71040(6) 0.71707(7) 0.66973(9)
O13_7 O 0.67727(7) 0.72743(7) 0.78767(10)
O14_7 O 0.72743(7) 0.67727(7) 0.71233(10)
N1_8 N 0.21848(10) 0.21844(10) 0.7500
O1_8 O 0.05806(8) 0.25882(6) 0.71891(11)
O2_8 O 0.03229(8) 0.22944(6) 0.80281(10)
O3_8 O 0.34000(9) 0.38373(7) 0.83639(9)
O4_8 O 0.28317(10) 0.34393(7) 0.87899(10)
C1_8 C 0.05941(13) 0.24121(9) 0.76268(19)
C2_8 C 0.09292(13) 0.23188(9) 0.77278(17)
C3_8 C 0.09403(14) 0.21112(10) 0.82122(17)
H1_6 H 0.0738 0.2025 0.8495
C4_8 C 0.12549(14) 0.20277(10) 0.82815(17)
H2_6 H 0.1254 0.1877 0.8604
C5_8 C 0.15639(11) 0.21628(8) 0.78844(17)
C6_8 C 0.15502(13) 0.23751(9) 0.74112(16)
H3_8 H 0.1758 0.2471 0.7136
C7_8 C 0.12374(12) 0.24512(8) 0.73280(15)
H4_8 H 0.1236 0.2593 0.6997
C8_8 C 0.18886(12) 0.20635(9) 0.79820(15)
H5_6 H 0.2031 0.2194 0.8341
H6_8 H 0.1765 0.1774 0.8040
C9_8 C 0.25520(12) 0.25516(12) 0.7500
C10_8 C 0.26360(11) 0.28469(9) 0.79177(13)
H7_8 H 0.2444 0.2802 0.8203
C11_8 C 0.29915(12) 0.31985(9) 0.79196(14)
C12_8 C 0.32762(11) 0.32758(11) 0.7500
H8_8 H 0.3520 0.3519 0.7500
C13_8 C 0.30680(14) 0.35005(11) 0.83875(17)
O5_6 O 0.25882(10) 0.05806(8) 0.78109(11)
O6_6 O 0.22944(10) 0.03229(8) 0.69719(10)
O7_8 O 0.38373(11) 0.34000(9) 0.66361(9)
O8_8 O 0.34393(12) 0.28317(10) 0.62101(10)
C14_8 C 0.24121(16) 0.05941(13) 0.73732(19)
C15_8 C 0.23188(16) 0.09292(13) 0.72722(17)
C16_8 C 0.21112(17) 0.09403(14) 0.67878(17)
H9_8 H 0.2025 0.0738 0.6505
C17_8 C 0.20277(17) 0.12549(14) 0.67185(17)
H10_8 H 0.1877 0.1254 0.6396
C18_8 C 0.21628(14) 0.15639(11) 0.71156(17)
C19_8 C 0.23751(16) 0.15502(13) 0.75888(16)
H11_8 H 0.2471 0.1758 0.7864
C20_8 C 0.24512(15) 0.12374(12) 0.76720(15)
H12_8 H 0.2593 0.1236 0.8003
C21_8 C 0.20635(14) 0.18886(12) 0.70180(15)
H13_8 H 0.2194 0.2031 0.6659
H14_8 H 0.1774 0.1765 0.6960
C22_8 C 0.28469(13) 0.26360(11) 0.70823(13)
H15_8 H 0.2802 0.2444 0.6797
C23_8 C 0.31985(14) 0.29915(12) 0.70804(14)
C24_8 C 0.35005(17) 0.30680(14) 0.66125(17)
In2_7 In 0.255284(12) 0.000000(10) 0.7500
O12_8 O 0.00666(9) 0.28960(6) 0.66973(9)
O13_8 O 0.05017(10) 0.32273(7) 0.78767(10)
In2_8 In 0.255284(12) 1.000000(10) 0.7500
O11_8 O 0.99334(9) 0.28293(7) 0.83027(9)
O14_8 O 0.94983(10) 0.27257(7) 0.71233(10)
O11_9 O 0.28960(6) 0.00666(9) 0.83027(9)
O14_9 O 0.32273(7) 0.05017(10) 0.71233(10)
O1_9 O 0.20077(6) 0.94194(8) 0.71891(11)
O2_9 O 0.19716(6) 0.96771(8) 0.80281(10)
O3_9 O 0.04374(6) 0.66000(9) 0.83639(9)
O4_9 O 0.06077(7) 0.71683(10) 0.87899(10)
C1_9 C 0.18181(10) 0.94059(13) 0.76268(19)
C2_9 C 0.13897(9) 0.90708(13) 0.77278(17)
C3_9 C 0.11710(10) 0.90597(14) 0.82122(17)
H1_7 H 0.1288 0.9262 0.8495
C4_9 C 0.07729(10) 0.87451(14) 0.82815(17)
H2_7 H 0.0624 0.8746 0.8604
C5_9 C 0.05990(8) 0.84361(11) 0.78844(17)
C6_9 C 0.08250(9) 0.84498(13) 0.74112(16)
H3_9 H 0.0714 0.8242 0.7136
C7_9 C 0.12139(9) 0.87626(12) 0.73280(15)
H4_9 H 0.1358 0.8764 0.6997
C8_9 C 0.01750(8) 0.81114(12) 0.79820(15)
H5_7 H 0.0164 0.7969 0.8341
H6_9 H 0.0010 0.8235 0.8040
C10_9 C 0.02110(7) 0.73640(11) 0.79177(13)
H7_9 H 0.0359 0.7556 0.8203
C11_9 C 0.02071(8) 0.70085(12) 0.79196(14)
C13_9 C 0.04326(9) 0.69320(14) 0.83875(17)
O12_9 O 0.28293(7) 0.99334(9) 0.66973(9)
O13_9 O 0.27257(7) 0.94983(10) 0.78767(10)
N1_9 N 1.0000 0.78152(10) 0.7500
C9_9 C 1.0000 0.74480(12) 0.7500
C12_9 C 1.0000 0.67238(11) 0.7500
H8_9 H 1.0000 0.6480 0.7500
O7_9 O 0.95626(6) 0.61627(11) 0.66361(9)
O8_9 O 0.93923(7) 0.65607(12) 0.62101(10)
C14_9 C 0.81819(10) 0.75879(16) 0.73732(19)
C15_9 C 0.86103(9) 0.76812(16) 0.72722(17)
C16_9 C 0.88290(10) 0.78888(17) 0.67878(17)
H9_9 H 0.8712 0.7975 0.6505
C17_9 C 0.92271(10) 0.79723(17) 0.67185(17)
H10_9 H 0.9376 0.8123 0.6396
C18_9 C 0.94010(8) 0.78372(14) 0.71156(17)
C19_9 C 0.91750(9) 0.76249(16) 0.75888(16)
H11_9 H 0.9286 0.7529 0.7864
C20_9 C 0.87861(9) 0.75488(15) 0.76720(15)
H12_9 H 0.8642 0.7407 0.8003
C21_9 C 0.98250(8) 0.79365(14) 0.70180(15)
H13_9 H 0.9836 0.7806 0.6659
H14_9 H 0.9990 0.8226 0.6960
C22_9 C 0.97890(7) 0.71531(13) 0.70823(13)
H15_9 H 0.9641 0.7198 0.6797
C23_9 C 0.97929(8) 0.68015(14) 0.70804(14)
C24_9 C 0.95674(9) 0.64995(17) 0.66125(17)
N1_10 N 0.0000 0.78156(10) 0.7500
C9_10 C 0.0000 0.74484(12) 0.7500
C12_10 C 0.0000 0.67242(11) 0.7500
H8_10 H 0.0000 0.6481 0.7500
N1_11 N 0.78152(10) 1.0000 0.7500
C9_11 C 0.74480(12) 1.0000 0.7500
C12_11 C 0.67238(11) 1.0000 0.7500
H8_11 H 0.6480 1.0000 0.7500
C13_10 C 0.37659(9) 0.01672(11) 0.00542(17)
H8_12 H 0.3333 0.0186 0.9167
N1_12 N 0.3333 0.88511(10) 0.9167
O1_10 O 0.53410(6) 0.92549(6) 0.88558(11)
O2_10 O 0.53049(6) 0.89611(6) 0.96948(10)
C1_10 C 0.51514(10) 0.90788(9) 0.92935(19)
C2_10 C 0.47230(9) 0.89855(9) 0.93945(17)
C3_10 C 0.45043(10) 0.87779(10) 0.98789(17)
C4_10 C 0.41062(10) 0.86944(10) 0.99482(17)
C5_10 C 0.39323(8) 0.88295(8) 0.95511(17)
C6_10 C 0.41583(9) 0.90418(9) 0.90779(16)
H3_10 H 0.4047 0.9138 0.8803
C7_10 C 0.45472(9) 0.91179(8) 0.89947(15)
H4_10 H 0.4691 0.9260 0.8664
C8_10 C 0.35083(8) 0.87302(9) 0.96487(15)
H6_10 H 0.3343 0.8441 0.9707
C9_12 C 0.3333 0.92183(12) 0.9167
C10_10 C 0.35443(7) 0.95136(9) 0.95844(13)
H7_10 H 0.3692 0.9469 0.9870
C11_10 C 0.35404(8) 0.98652(9) 0.95863(14)
C12_12 C 0.3333 0.99425(11) 0.9167
O5_7 O 0.13257(6) 0.72472(8) 0.94775(11)
O6_7 O 0.13618(6) 0.69895(8) 0.86385(10)
C14_10 C 0.15153(10) 0.72607(13) 0.90398(19)
C15_10 C 0.19437(9) 0.75958(13) 0.89388(17)
C16_10 C 0.21624(10) 0.76069(14) 0.84544(17)
H9_10 H 0.2046 0.7404 0.8171
C17_10 C 0.25605(10) 0.79215(14) 0.83851(17)
H10_10 H 0.2710 0.7920 0.8062
C18_10 C 0.27344(8) 0.82305(11) 0.87822(17)
C19_10 C 0.25084(9) 0.82168(13) 0.92554(16)
H11_10 H 0.2620 0.8424 0.9530
C20_10 C 0.21195(9) 0.79040(12) 0.93386(15)
H12_10 H 0.1976 0.7902 0.9669
C21_10 C 0.31584(8) 0.85552(12) 0.86846(15)
H13_10 H 0.3170 0.8697 0.8325
H14_10 H 0.3324 0.8431 0.8626
C22_10 C 0.31224(7) 0.93026(11) 0.87489(13)
H15_10 H 0.2975 0.9110 0.8463
C23_10 C 0.31263(8) 0.96581(12) 0.87470(14)
C24_10 C 0.29008(9) 0.97346(14) 0.82791(17)
O9_4 O 0.59216(6) 0.86743(6) 0.94775(11)
O10_4 O 0.56278(6) 0.86382(6) 0.86385(10)
N1_13 N 0.11489(10) 0.44819(10) 0.9167
O1_11 O 0.07451(6) 0.60861(8) 0.88558(11)
O2_11 O 0.10389(6) 0.63438(8) 0.96948(10)
C1_11 C 0.09212(9) 0.60726(13) 0.92935(19)
C2_11 C 0.10145(9) 0.57375(13) 0.93945(17)
C3_11 C 0.12221(10) 0.57264(14) 0.98789(17)
C4_11 C 0.13056(10) 0.54118(14) 0.99482(17)
C5_11 C 0.11705(8) 0.51028(11) 0.95511(17)
C6_11 C 0.09582(9) 0.51165(13) 0.90779(16)
H3_11 H 0.0862 0.4909 0.8803
C7_11 C 0.08821(8) 0.54293(12) 0.89947(15)
H4_11 H 0.0740 0.5431 0.8664
C8_11 C 0.12698(9) 0.47781(12) 0.96487(15)
H6_11 H 0.1559 0.4902 0.9707
C9_13 C 0.07817(12) 0.41147(12) 0.9167
C10_11 C 0.04864(9) 0.40307(11) 0.95844(13)
H7_11 H 0.0531 0.4223 0.9870
C11_11 C 0.01348(9) 0.36752(12) 0.95863(14)
C12_13 C 0.00575(11) 0.33905(11) 0.9167
O5_8 O 0.27528(8) 0.40784(10) 0.94775(11)
O6_8 O 0.30105(8) 0.43722(10) 0.86385(10)
C14_11 C 0.27393(13) 0.42545(16) 0.90398(19)
C15_11 C 0.24042(13) 0.43478(16) 0.89388(17)
C16_11 C 0.23931(14) 0.45554(17) 0.84544(17)
H9_11 H 0.2596 0.4641 0.8171
C17_11 C 0.20785(14) 0.46389(17) 0.83851(17)
H10_11 H 0.2080 0.4789 0.8062
C18_11 C 0.17695(11) 0.45038(14) 0.87822(17)
C19_11 C 0.17832(13) 0.42915(16) 0.92554(16)
H11_11 H 0.1576 0.4195 0.9530
C20_11 C 0.20960(12) 0.42154(15) 0.93386(15)
H12_11 H 0.2098 0.4073 0.9669
C21_11 C 0.14448(12) 0.46031(14) 0.86846(15)
H13_11 H 0.1303 0.4472 0.8325
H14_11 H 0.1569 0.4892 0.8626
C22_11 C 0.06974(11) 0.38197(13) 0.87489(13)
H15_11 H 0.0890 0.3864 0.8463
C23_11 C 0.03419(12) 0.34681(14) 0.87470(14)
C24_11 C 0.02654(14) 0.31661(17) 0.82791(17)
C13_11 C 0.98328(11) 0.35987(14) 0.00542(17)
H8_13 H 0.9814 0.3147 0.9167
H1_8 H 0.4071 0.5379 0.0162
H2_8 H 0.4587 0.6043 0.0271
H5_8 H 0.5364 0.6503 0.0008
C13_12 C 0.64013(14) 0.62341(9) 0.00542(17)
N1_14 N 0.55181(10) 0.6667 0.9167
O1_12 O 0.39139(8) 0.46590(6) 0.88558(11)
O2_12 O 0.36562(8) 0.46951(6) 0.96948(10)
C1_12 C 0.39274(13) 0.48486(10) 0.92935(19)
C2_12 C 0.42625(13) 0.52770(9) 0.93945(17)
C3_12 C 0.42736(14) 0.54957(10) 0.98789(17)
C4_12 C 0.45882(14) 0.58938(10) 0.99482(17)
C5_12 C 0.48972(11) 0.60677(8) 0.95511(17)
C6_12 C 0.48835(13) 0.58417(9) 0.90779(16)
H3_12 H 0.5091 0.5953 0.8803
C7_12 C 0.45707(12) 0.54528(9) 0.89947(15)
H4_12 H 0.4569 0.5309 0.8664
C8_12 C 0.52219(12) 0.64917(8) 0.96487(15)
H6_12 H 0.5098 0.6657 0.9707
C9_14 C 0.58853(12) 0.6667 0.9167
C10_12 C 0.59693(11) 0.64557(7) 0.95844(13)
H7_12 H 0.5777 0.6308 0.9870
C11_12 C 0.63248(12) 0.64596(8) 0.95863(14)
C12_14 C 0.66095(11) 0.6667 0.9167
H8_14 H 0.6853 0.6667 0.9167
C14_12 C 0.57455(16) 0.84847(10) 0.90398(19)
C15_12 C 0.56522(16) 0.80563(9) 0.89388(17)
C16_12 C 0.54446(17) 0.78376(10) 0.84544(17)
H9_12 H 0.5359 0.7954 0.8171
C17_12 C 0.53611(17) 0.74395(10) 0.83851(17)
H10_12 H 0.5211 0.7290 0.8062
C18_12 C 0.54962(14) 0.72656(8) 0.87822(17)
C19_12 C 0.57085(16) 0.74916(9) 0.92554(16)
H11_12 H 0.5805 0.7380 0.9530
C20_12 C 0.57846(15) 0.78805(9) 0.93386(15)
H12_12 H 0.5927 0.8024 0.9669
C21_12 C 0.53969(14) 0.68416(8) 0.86846(15)
H13_12 H 0.5528 0.6830 0.8325
H14_12 H 0.5108 0.6676 0.8626
C22_12 C 0.61803(13) 0.68776(7) 0.87489(13)
H15_12 H 0.6136 0.7025 0.8463
C23_12 C 0.65319(14) 0.68737(8) 0.87470(14)
C24_12 C 0.68339(17) 0.70992(9) 0.82791(17)
H8_15 H 0.0186 0.3333 0.5833
C13_13 C 0.01672(11) 0.37659(9) 0.49458(17)
N1_15 N 0.88511(10) 0.3333 0.5833
O1_13 O 0.92549(6) 0.53410(6) 0.61442(11)
O2_13 O 0.89611(6) 0.53049(6) 0.53052(10)
C1_13 C 0.90788(9) 0.51514(10) 0.57065(19)
C2_13 C 0.89855(9) 0.47230(9) 0.56055(17)
C3_13 C 0.87779(10) 0.45043(10) 0.51211(17)
H1_9 H 0.8692 0.4621 0.4838
C4_13 C 0.86944(10) 0.41062(10) 0.50518(17)
H2_9 H 0.8544 0.3957 0.4729
C5_13 C 0.88295(8) 0.39323(8) 0.54489(17)
C6_13 C 0.90418(9) 0.41583(9) 0.59221(16)
H3_13 H 0.9138 0.4047 0.6197
C7_13 C 0.91179(8) 0.45472(9) 0.60053(15)
H4_13 H 0.9260 0.4691 0.6336
C8_13 C 0.87302(9) 0.35083(8) 0.53513(15)
H5_9 H 0.8861 0.3497 0.4992
H6_13 H 0.8441 0.3343 0.5293
C9_15 C 0.92183(12) 0.3333 0.5833
C10_13 C 0.95136(9) 0.35443(7) 0.54156(13)
H7_13 H 0.9469 0.3692 0.5130
C11_13 C 0.98652(9) 0.35404(8) 0.54137(14)
C12_15 C 0.99425(11) 0.3333 0.5833
O5_9 O 0.72472(8) 0.13257(6) 0.55225(11)
O6_9 O 0.69895(8) 0.13618(6) 0.63615(10)
C14_13 C 0.72607(13) 0.15153(10) 0.59602(19)
C15_13 C 0.75958(13) 0.19437(9) 0.60612(17)
C16_13 C 0.76069(14) 0.21624(10) 0.65456(17)
H9_13 H 0.7404 0.2046 0.6829
C17_13 C 0.79215(14) 0.25605(10) 0.66149(17)
H10_13 H 0.7920 0.2710 0.6938
C18_13 C 0.82305(11) 0.27344(8) 0.62178(17)
C19_13 C 0.82168(13) 0.25084(9) 0.57446(16)
H11_13 H 0.8424 0.2620 0.5470
C20_13 C 0.79040(12) 0.21195(9) 0.56614(15)
H12_13 H 0.7902 0.1976 0.5331
C21_13 C 0.85552(12) 0.31584(8) 0.63154(15)
H13_13 H 0.8697 0.3170 0.6675
H14_13 H 0.8431 0.3324 0.6374
C22_13 C 0.93026(11) 0.31224(7) 0.62511(13)
H15_13 H 0.9110 0.2975 0.6537
C23_13 C 0.96581(12) 0.31263(8) 0.62530(14)
C24_13 C 0.97346(14) 0.29008(9) 0.67209(17)
O9_5 O 0.86743(6) 0.59216(6) 0.55225(11)
O10_5 O 0.86382(6) 0.56278(6) 0.63615(10)
N1_16 N 0.44819(10) 0.11489(10) 0.5833
O1_14 O 0.60861(8) 0.07451(6) 0.61442(11)
O2_14 O 0.63438(8) 0.10389(6) 0.53052(10)
C1_14 C 0.60726(13) 0.09212(9) 0.57065(19)
C2_14 C 0.57375(13) 0.10145(9) 0.56055(17)
C3_14 C 0.57264(14) 0.12221(10) 0.51211(17)
H1_10 H 0.5929 0.1308 0.4838
C4_14 C 0.54118(14) 0.13056(10) 0.50518(17)
H2_10 H 0.5413 0.1456 0.4729
C5_14 C 0.51028(11) 0.11705(8) 0.54489(17)
C6_14 C 0.51165(13) 0.09582(9) 0.59221(16)
H3_14 H 0.4909 0.0862 0.6197
C7_14 C 0.54293(12) 0.08821(8) 0.60053(15)
H4_14 H 0.5431 0.0740 0.6336
C8_14 C 0.47781(12) 0.12698(9) 0.53513(15)
H5_10 H 0.4636 0.1139 0.4992
H6_14 H 0.4902 0.1559 0.5293
C9_16 C 0.41147(12) 0.07817(12) 0.5833
C10_14 C 0.40307(11) 0.04864(9) 0.54156(13)
H7_14 H 0.4223 0.0531 0.5130
C11_14 C 0.36752(12) 0.01348(9) 0.54137(14)
C12_16 C 0.33905(11) 0.00575(11) 0.5833
O5_10 O 0.40784(10) 0.27528(8) 0.55225(11)
O6_10 O 0.43722(10) 0.30105(8) 0.63615(10)
C14_14 C 0.42545(16) 0.27393(13) 0.59602(19)
C15_14 C 0.43478(16) 0.24042(13) 0.60612(17)
C16_14 C 0.45554(17) 0.23931(14) 0.65456(17)
H9_14 H 0.4641 0.2596 0.6829
C17_14 C 0.46389(17) 0.20785(14) 0.66149(17)
H10_14 H 0.4789 0.2080 0.6938
C18_14 C 0.45038(14) 0.17695(11) 0.62178(17)
C19_14 C 0.42915(16) 0.17832(13) 0.57446(16)
H11_14 H 0.4195 0.1576 0.5470
C20_14 C 0.42154(15) 0.20960(12) 0.56614(15)
H12_14 H 0.4073 0.2098 0.5331
C21_14 C 0.46031(14) 0.14448(12) 0.63154(15)
H13_14 H 0.4472 0.1303 0.6675
H14_14 H 0.4892 0.1569 0.6374
C22_14 C 0.38197(13) 0.06974(11) 0.62511(13)
H15_14 H 0.3864 0.0890 0.6537
C23_14 C 0.34681(14) 0.03419(12) 0.62530(14)
C24_14 C 0.31661(17) 0.02654(14) 0.67209(17)
H8_16 H 0.3147 0.9814 0.5833
C13_14 C 0.35987(14) 0.98328(11) 0.49458(17)
N1_17 N 0.6667 0.55181(10) 0.5833
O1_15 O 0.46590(6) 0.39139(8) 0.61442(11)
O2_15 O 0.46951(6) 0.36562(8) 0.53052(10)
C1_15 C 0.48486(10) 0.39274(13) 0.57065(19)
C2_15 C 0.52770(9) 0.42625(13) 0.56055(17)
C3_15 C 0.54957(10) 0.42736(14) 0.51211(17)
H1_11 H 0.5379 0.4071 0.4838
C4_15 C 0.58938(10) 0.45882(14) 0.50518(17)
H2_11 H 0.6043 0.4587 0.4729
C5_15 C 0.60677(8) 0.48972(11) 0.54489(17)
C6_15 C 0.58417(9) 0.48835(13) 0.59221(16)
H3_15 H 0.5953 0.5091 0.6197
C7_15 C 0.54528(9) 0.45707(12) 0.60053(15)
H4_15 H 0.5309 0.4569 0.6336
C8_15 C 0.64917(8) 0.52219(12) 0.53513(15)
H5_11 H 0.6503 0.5364 0.4992
H6_15 H 0.6657 0.5098 0.5293
C9_17 C 0.6667 0.58853(12) 0.5833
C10_15 C 0.64557(7) 0.59693(11) 0.54156(13)
H7_15 H 0.6308 0.5777 0.5130
C11_15 C 0.64596(8) 0.63248(12) 0.54137(14)
C12_17 C 0.6667 0.66095(11) 0.5833
H8_17 H 0.6667 0.6853 0.5833
C13_15 C 0.62341(9) 0.64013(14) 0.49458(17)
C14_15 C 0.84847(10) 0.57455(16) 0.59602(19)
C15_15 C 0.80563(9) 0.56522(16) 0.60612(17)
C16_15 C 0.78376(10) 0.54446(17) 0.65456(17)
H9_15 H 0.7954 0.5359 0.6829
C17_15 C 0.74395(10) 0.53611(17) 0.66149(17)
H10_15 H 0.7290 0.5211 0.6938
C18_15 C 0.72656(8) 0.54962(14) 0.62178(17)
C19_15 C 0.74916(9) 0.57085(16) 0.57446(16)
H11_15 H 0.7380 0.5805 0.5470
C20_15 C 0.78805(9) 0.57846(15) 0.56614(15)
H12_15 H 0.8024 0.5927 0.5331
C21_15 C 0.68416(8) 0.53969(14) 0.63154(15)
H13_15 H 0.6830 0.5528 0.6675
H14_15 H 0.6676 0.5108 0.6374
C22_15 C 0.68776(7) 0.61803(13) 0.62511(13)
H15_15 H 0.7025 0.6136 0.6537
C23_15 C 0.68737(8) 0.65319(14) 0.62530(14)
C24_15 C 0.70992(9) 0.68339(17) 0.67209(17)
O1_16 O 0.25882(6) 0.20077(6) 0.28109(11)
O2_16 O 0.22944(6) 0.19716(6) 0.19719(10)
C1_16 C 0.24121(9) 0.18181(10) 0.23732(19)
C2_16 C 0.23188(9) 0.13897(9) 0.22722(17)
C3_16 C 0.21112(10) 0.11710(10) 0.17878(17)
H1_12 H 0.2025 0.1288 0.1505
C4_16 C 0.20277(10) 0.07729(10) 0.17185(17)
H2_12 H 0.1877 0.0624 0.1396
C5_16 C 0.21628(8) 0.05990(8) 0.21156(17)
C6_16 C 0.23751(9) 0.08250(9) 0.25888(16)
H3_16 H 0.2471 0.0714 0.2864
C7_16 C 0.24512(8) 0.12139(9) 0.26720(15)
H4_16 H 0.2593 0.1358 0.3003
C8_16 C 0.20635(9) 0.01750(8) 0.20180(15)
H5_12 H 0.2194 0.0164 0.1659
H6_16 H 0.1774 0.0010 0.1960
C10_16 C 0.28469(9) 0.02110(7) 0.20823(13)
H7_16 H 0.2802 0.0359 0.1797
C11_16 C 0.31985(9) 0.02071(8) 0.20804(14)
C13_16 C 0.35005(11) 0.04326(9) 0.16125(17)
O9_6 O 0.20077(6) 0.25882(6) 0.21891(11)
O10_6 O 0.19716(6) 0.22944(6) 0.30281(10)
N1_18 N 0.21844(10) 1.0000 0.2500
C9_18 C 0.25516(12) 1.0000 0.2500
C12_18 C 0.32758(11) 1.0000 0.2500
H8_18 H 0.3519 1.0000 0.2500
O5_11 O 0.05806(8) 0.79923(6) 0.21891(11)
O6_11 O 0.03229(8) 0.80284(6) 0.30281(10)
C14_16 C 0.05941(13) 0.81819(10) 0.26268(19)
C15_16 C 0.09292(13) 0.86103(9) 0.27278(17)
C16_16 C 0.09403(14) 0.88290(10) 0.32122(17)
H9_16 H 0.0738 0.8712 0.3495
C17_16 C 0.12549(14) 0.92271(10) 0.32815(17)
H10_16 H 0.1254 0.9376 0.3604
C18_16 C 0.15639(11) 0.94010(8) 0.28844(17)
C19_16 C 0.15502(13) 0.91750(9) 0.24112(16)
H11_16 H 0.1758 0.9286 0.2136
C20_16 C 0.12374(12) 0.87861(9) 0.23280(15)
H12_16 H 0.1236 0.8642 0.1997
C21_16 C 0.18886(12) 0.98250(8) 0.29820(15)
H13_16 H 0.2031 0.9836 0.3341
H14_16 H 0.1765 0.9990 0.3040
C22_16 C 0.26360(11) 0.97890(7) 0.29177(13)
H15_16 H 0.2444 0.9641 0.3203
C23_16 C 0.29915(12) 0.97929(8) 0.29196(14)
C24_16 C 0.30680(14) 0.95674(9) 0.33875(17)
N1_19 N 0.78152(10) 0.78156(10) 0.2500
O1_17 O 0.94194(8) 0.74118(6) 0.28109(11)
O2_17 O 0.96771(8) 0.77056(6) 0.19719(10)
C1_17 C 0.94059(13) 0.75879(9) 0.23732(19)
C2_17 C 0.90708(13) 0.76812(9) 0.22722(17)
C3_17 C 0.90597(14) 0.78888(10) 0.17878(17)
H1_13 H 0.9262 0.7975 0.1505
C4_17 C 0.87451(14) 0.79723(10) 0.17185(17)
H2_13 H 0.8746 0.8123 0.1396
C5_17 C 0.84361(11) 0.78372(8) 0.21156(17)
C6_17 C 0.84498(13) 0.76249(9) 0.25888(16)
H3_17 H 0.8242 0.7529 0.2864
C7_17 C 0.87626(12) 0.75488(8) 0.26720(15)
H4_17 H 0.8764 0.7407 0.3003
C8_17 C 0.81114(12) 0.79365(9) 0.20180(15)
H5_13 H 0.7969 0.7806 0.1659
H6_17 H 0.8235 0.8226 0.1960
C9_19 C 0.74480(12) 0.74484(12) 0.2500
C10_17 C 0.73640(11) 0.71531(9) 0.20823(13)
H7_17 H 0.7556 0.7198 0.1797
C11_17 C 0.70085(12) 0.68015(9) 0.20804(14)
C12_19 C 0.67238(11) 0.67242(11) 0.2500
H8_19 H 0.6480 0.6481 0.2500
C13_17 C 0.69320(14) 0.64995(11) 0.16125(17)
O5_12 O 0.74118(10) 0.94194(8) 0.21891(11)
O6_12 O 0.77056(10) 0.96771(8) 0.30281(10)
C14_17 C 0.75879(16) 0.94059(13) 0.26268(19)
C15_17 C 0.76812(16) 0.90708(13) 0.27278(17)
C16_17 C 0.78888(17) 0.90597(14) 0.32122(17)
H9_17 H 0.7975 0.9262 0.3495
C17_17 C 0.79723(17) 0.87451(14) 0.32815(17)
H10_17 H 0.8123 0.8746 0.3604
C18_17 C 0.78372(14) 0.84361(11) 0.28844(17)
C19_17 C 0.76249(16) 0.84498(13) 0.24112(16)
H11_17 H 0.7529 0.8242 0.2136
C20_17 C 0.75488(15) 0.87626(12) 0.23280(15)
H12_17 H 0.7407 0.8764 0.1997
C21_17 C 0.79365(14) 0.81114(12) 0.29820(15)
H13_17 H 0.7806 0.7969 0.3341
H14_17 H 0.8226 0.8235 0.3040
C22_17 C 0.71531(13) 0.73640(11) 0.29177(13)
H15_17 H 0.7198 0.7556 0.3203
C23_17 C 0.68015(14) 0.70085(12) 0.29196(14)
C24_17 C 0.64995(17) 0.69320(14) 0.33875(17)
N1_20 N 0.0000 0.21848(10) 0.2500
C9_20 C 0.0000 0.25520(12) 0.2500
C12_20 C 0.0000 0.32762(11) 0.2500
H8_20 H 0.0000 0.3520 0.2500
C14_18 C 0.18181(10) 0.24121(16) 0.26268(19)
C15_18 C 0.13897(9) 0.23188(16) 0.27278(17)
C16_18 C 0.11710(10) 0.21112(17) 0.32122(17)
H9_18 H 0.1288 0.2025 0.3495
C17_18 C 0.07729(10) 0.20277(17) 0.32815(17)
H10_18 H 0.0624 0.1877 0.3604
C18_18 C 0.05990(8) 0.21628(14) 0.28844(17)
C19_18 C 0.08250(9) 0.23751(16) 0.24112(16)
H11_18 H 0.0714 0.2471 0.2136
C20_18 C 0.12139(9) 0.24512(15) 0.23280(15)
H12_18 H 0.1358 0.2593 0.1997
C21_18 C 0.01750(8) 0.20635(14) 0.29820(15)
H13_18 H 0.0164 0.2194 0.3341
H14_18 H 0.0010 0.1774 0.3040
C22_18 C 0.02110(7) 0.28469(13) 0.29177(13)
H15_18 H 0.0359 0.2802 0.3203
C23_18 C 0.02071(8) 0.31985(14) 0.29196(14)
C24_18 C 0.04326(9) 0.35005(17) 0.33875(17)
O1_18 O 0.79923(6) 0.05806(8) 0.28109(11)
O2_18 O 0.80284(6) 0.03229(8) 0.19719(10)
C1_18 C 0.81819(10) 0.05941(13) 0.23732(19)
C2_18 C 0.86103(9) 0.09292(13) 0.22722(17)
C3_18 C 0.88290(10) 0.09403(14) 0.17878(17)
H1_14 H 0.8712 0.0738 0.1505
C4_18 C 0.92271(10) 0.12549(14) 0.17185(17)
H2_14 H 0.9376 0.1254 0.1396
C5_18 C 0.94010(8) 0.15639(11) 0.21156(17)
C6_18 C 0.91750(9) 0.15502(13) 0.25888(16)
H3_18 H 0.9286 0.1758 0.2864
C7_18 C 0.87861(9) 0.12374(12) 0.26720(15)
H4_18 H 0.8642 0.1236 0.3003
C8_18 C 0.98250(8) 0.18886(12) 0.20180(15)
H5_14 H 0.9836 0.2031 0.1659
H6_18 H 0.9990 0.1765 0.1960
C10_18 C 0.97890(7) 0.26360(11) 0.20823(13)
H7_18 H 0.9641 0.2444 0.1797
C11_18 C 0.97929(8) 0.29915(12) 0.20804(14)
C13_18 C 0.95674(9) 0.30680(14) 0.16125(17)
N1_21 N 1.0000 0.21844(10) 0.2500
C9_21 C 1.0000 0.25516(12) 0.2500
C12_21 C 1.0000 0.32758(11) 0.2500
H8_21 H 1.0000 0.3519 0.2500
N1_22 N 0.21848(10) 0.0000 0.2500
C9_22 C 0.25520(12) 0.0000 0.2500
C12_22 C 0.32762(11) 0.0000 0.2500
H8_22 H 0.3520 0.0000 0.2500
H1_15 H 0.5379 0.1308 0.9838
H2_15 H 0.6043 0.1456 0.9729
H5_15 H 0.6503 0.1139 0.9992
H1_16 H 0.8692 0.4071 0.9838
H2_16 H 0.8544 0.4587 0.9729
H5_16 H 0.8861 0.5364 0.9992
H1_17 H 0.4621 0.8692 0.0162
H2_17 H 0.3957 0.8544 0.0271
H5_17 H 0.3497 0.8861 0.0008
H1_18 H 0.1308 0.5929 0.0162
H2_18 H 0.1456 0.5413 0.0271
H5_18 H 0.1139 0.4636 0.0008
loop_
_geom_bond_atom_site_label_1
_geom_bond_atom_site_label_2
_geom_bond_site_symmetry_1
_geom_bond_site_symmetry_2
In1 O1 1_555 1_555
N1 C8 1_555 1_555
O1 C1 1_555 1_555
O2 In1 1_555 1_555
C1 O2 1_555 1_555
C2 C1 1_555 1_555
C3 C2 1_555 1_555
C4 C3 1_555 1_555
C5 C4 1_555 1_555
C6 C5 1_555 1_555
H3 C6 1_555 1_555
C7 C2 1_555 1_555
H4 C7 1_555 1_555
C8 C5 1_555 1_555
H6 C8 1_555 1_555
C9 N1 1_555 1_555
C10 C9 1_555 1_555
H7 C10 1_555 1_555
C11 C10 1_555 1_555
C12 C11 1_555 1_555
O5 C14 1_555 1_555
O6 C14 1_555 1_555
O8 C24 1_555 1_555
C14 C15 1_555 1_555
C15 C16 1_555 1_555
C16 H9 1_555 1_555
C17 C16 1_555 1_555
H10 C17 1_555 1_555
C18 C17 1_555 1_555
C19 C18 1_555 1_555
H11 C19 1_555 1_555
C20 C15 1_555 1_555
H12 C20 1_555 1_555
C21 N1 1_555 1_555
H13 C21 1_555 1_555
H14 C21 1_555 1_555
C22 C9 1_555 1_555
H15 C22 1_555 1_555
C23 C12 1_555 1_555
C24 C23 1_555 1_555
In2 O5 1_555 1_555
O9 In1 1_555 1_555
O10 In1 1_555 1_555
O11 In1 1_555 1_555
O12 In1 1_555 1_555
O13 In1 1_555 1_555
O14 In1 1_555 1_555
C6 C7 1_555 1_555
O6 In2 1_555 1_555
O8 In4 1_555 1_555
C18 C21 1_555 1_555
C19 C20 1_555 1_555
C22 C23 1_555 1_555
In4_2 O7 1_555 1_555
O3 C13 1_555 1_555
O4 C13 1_555 1_555
In3 O3 1_555 1_555
O4 In3 1_555 1_555
In4_3 O7_2 1_555 1_555
O3_2 C13_2 1_555 1_555
O4_2 C13_2 1_555 1_555
In3_2 O3_2 1_555 1_555
O4_2 In3_2 1_555 1_555
In2 O1_2 1_555 1_555
N1_2 C8_2 1_555 1_555
O1_2 C1_2 1_555 1_555
O2_2 In2 1_555 1_555
C1_2 O2_2 1_555 1_555
C2_2 C1_2 1_555 1_555
C3_2 C2_2 1_555 1_555
C4_2 C3_2 1_555 1_555
C5_2 C4_2 1_555 1_555
C6_2 C5_2 1_555 1_555
H3_2 C6_2 1_555 1_555
C7_2 C2_2 1_555 1_555
H4_2 C7_2 1_555 1_555
C8_2 C5_2 1_555 1_555
H6_2 C8_2 1_555 1_555
C9_2 N1_2 1_555 1_555
C10_2 C9_2 1_555 1_555
H7_2 C10_2 1_555 1_555
C11_2 C10_2 1_555 1_555
C12_2 C11_2 1_555 1_555
O5_2 C14_2 1_555 1_555
O6_2 C14_2 1_555 1_555
O8_2 C24_2 1_555 1_555
C14_2 C15_2 1_555 1_555
C15_2 C16_2 1_555 1_555
C16_2 H9_2 1_555 1_555
C17_2 C16_2 1_555 1_555
H10_2 C17_2 1_555 1_555
C18_2 C17_2 1_555 1_555
C19_2 C18_2 1_555 1_555
H11_2 C19_2 1_555 1_555
C20_2 C15_2 1_555 1_555
H12_2 C20_2 1_555 1_555
C21_2 N1_2 1_555 1_555
H13_2 C21_2 1_555 1_555
H14_2 C21_2 1_555 1_555
C22_2 C9_2 1_555 1_555
H15_2 C22_2 1_555 1_555
C23_2 C12_2 1_555 1_555
C24_2 C23_2 1_555 1_555
In2_2 O5_2 1_555 1_555
O11_2 In2 1_555 1_555
O12_2 In2 1_555 1_555
O13_2 In2 1_555 1_555
O14_2 In2 1_555 1_555
C6_2 C7_2 1_555 1_555
O6_2 In2_2 1_555 1_555
O8_2 In4_4 1_555 1_555
C18_2 C21_2 1_555 1_555
C19_2 C20_2 1_555 1_555
C22_2 C23_2 1_555 1_555
In2_2 O1_3 1_555 1_555
N1_3 C8_3 1_555 1_555
O1_3 C1_3 1_555 1_555
O2_3 In2_2 1_555 1_555
C1_3 O2_3 1_555 1_555
C2_3 C1_3 1_555 1_555
C3_3 C2_3 1_555 1_555
C4_3 C3_3 1_555 1_555
C5_3 C4_3 1_555 1_555
C6_3 C5_3 1_555 1_555
H3_3 C6_3 1_555 1_555
C7_3 C2_3 1_555 1_555
H4_3 C7_3 1_555 1_555
C8_3 C5_3 1_555 1_555
H6_3 C8_3 1_555 1_555
C9_3 N1_3 1_555 1_555
C10_3 C9_3 1_555 1_555
H7_3 C10_3 1_555 1_555
C11_3 C10_3 1_555 1_555
C12_3 C11_3 1_555 1_555
H8_3 C12_3 1_555 1_555
O9 C14_3 1_555 1_555
O10 C14_3 1_555 1_555
O7_3 C24_3 1_555 1_555
O8_3 C24_3 1_555 1_555
C14_3 C15_3 1_555 1_555
C15_3 C16_3 1_555 1_555
C16_3 H9_3 1_555 1_555
C17_3 C16_3 1_555 1_555
H10_3 C17_3 1_555 1_555
C18_3 C17_3 1_555 1_555
C19_3 C18_3 1_555 1_555
H11_3 C19_3 1_555 1_555
C20_3 C15_3 1_555 1_555
H12_3 C20_3 1_555 1_555
C21_3 N1_3 1_555 1_555
H13_3 C21_3 1_555 1_555
H14_3 C21_3 1_555 1_555
C22_3 C9_3 1_555 1_555
H15_3 C22_3 1_555 1_555
C23_3 C12_3 1_555 1_555
C24_3 C23_3 1_555 1_555
In4_5 O7_3 1_555 1_555
O11_3 In2_2 1_555 1_555
O12_3 In2_2 1_555 1_555
O13_3 In2_2 1_555 1_555
O14_3 In2_2 1_555 1_555
C6_3 C7_3 1_555 1_555
O8_3 In4_5 1_555 1_555
C18_3 C21_3 1_555 1_555
C19_3 C20_3 1_555 1_555
C22_3 C23_3 1_555 1_555
O3_3 C13_3 1_555 1_555
O4_3 C13_3 1_555 1_555
In3_3 O3_3 1_555 1_555
O4_3 In3_3 1_555 1_555
In1_2 O1_4 1_555 1_555
N1_4 C8_4 1_555 1_555
O1_4 C1_4 1_555 1_555
O2_4 In1_2 1_555 1_555
C1_4 O2_4 1_555 1_555
C2_4 C1_4 1_555 1_555
C3_4 C2_4 1_555 1_555
H1_2 C3_4 1_555 1_555
C4_4 C3_4 1_555 1_555
H2_2 C4_4 1_555 1_555
C5_4 C4_4 1_555 1_555
C6_4 C5_4 1_555 1_555
H3_4 C6_4 1_555 1_555
C7_4 C2_4 1_555 1_555
H4_4 C7_4 1_555 1_555
C8_4 C5_4 1_555 1_555
H5_2 C8_4 1_555 1_555
H6_4 C8_4 1_555 1_555
C9_4 N1_4 1_555 1_555
C10_4 C9_4 1_555 1_555
H7_4 C10_4 1_555 1_555
C11_4 C10_4 1_555 1_555
C12_4 C11_4 1_555 1_555
O5_3 C14_4 1_555 1_555
O6_3 C14_4 1_555 1_555
O8_4 C24_4 1_555 1_555
C14_4 C15_4 1_555 1_555
C15_4 C16_4 1_555 1_555
C16_4 H9_4 1_555 1_555
C17_4 C16_4 1_555 1_555
H10_4 C17_4 1_555 1_555
C18_4 C17_4 1_555 1_555
C19_4 C18_4 1_555 1_555
H11_4 C19_4 1_555 1_555
C20_4 C15_4 1_555 1_555
H12_4 C20_4 1_555 1_555
C21_4 N1_4 1_555 1_555
H13_4 C21_4 1_555 1_555
H14_4 C21_4 1_555 1_555
C22_4 C9_4 1_555 1_555
H15_4 C22_4 1_555 1_555
C23_4 C12_4 1_555 1_555
C24_4 C23_4 1_555 1_555
In2_3 O5_3 1_555 1_555
O9_2 In1_2 1_555 1_555
O10_2 In1_2 1_555 1_555
O11_4 In1_2 1_555 1_555
O12_4 In1_2 1_555 1_555
O13_4 In1_2 1_555 1_555
O14_4 In1_2 1_555 1_555
C6_4 C7_4 1_555 1_555
O6_3 In2_3 1_555 1_555
O8_4 In4_3 1_555 1_555
C18_4 C21_4 1_555 1_555
C19_4 C20_4 1_555 1_555
C22_4 C23_4 1_555 1_555
O3_4 C13_4 1_555 1_555
O4_4 C13_4 1_555 1_555
In3_4 O3_4 1_555 1_555
In4_4 O7_4 1_555 1_555
O4_4 In3_4 1_555 1_555
O3_5 C13_5 1_555 1_555
O4_5 C13_5 1_555 1_555
In3_5 O3_5 1_555 1_555
In4 O7_5 1_555 1_555
O4_5 In3_5 1_555 1_555
In2_3 O1_5 1_555 1_555
N1_5 C8_5 1_555 1_555
O1_5 C1_5 1_555 1_555
O2_5 In2_3 1_555 1_555
C1_5 O2_5 1_555 1_555
C2_5 C1_5 1_555 1_555
C3_5 C2_5 1_555 1_555
H1_3 C3_5 1_555 1_555
C4_5 C3_5 1_555 1_555
H2_3 C4_5 1_555 1_555
C5_5 C4_5 1_555 1_555
C6_5 C5_5 1_555 1_555
H3_5 C6_5 1_555 1_555
C7_5 C2_5 1_555 1_555
H4_5 C7_5 1_555 1_555
C8_5 C5_5 1_555 1_555
H5_3 C8_5 1_555 1_555
H6_5 C8_5 1_555 1_555
C9_5 N1_5 1_555 1_555
C10_5 C9_5 1_555 1_555
H7_5 C10_5 1_555 1_555
C11_5 C10_5 1_555 1_555
C12_5 C11_5 1_555 1_555
O5_4 C14_5 1_555 1_555
O6_4 C14_5 1_555 1_555
O8_5 C24_5 1_555 1_555
C14_5 C15_5 1_555 1_555
C15_5 C16_5 1_555 1_555
C16_5 H9_5 1_555 1_555
C17_5 C16_5 1_555 1_555
H10_5 C17_5 1_555 1_555
C18_5 C17_5 1_555 1_555
C19_5 C18_5 1_555 1_555
H11_5 C19_5 1_555 1_555
C20_5 C15_5 1_555 1_555
H12_5 C20_5 1_555 1_555
C21_5 N1_5 1_555 1_555
H13_5 C21_5 1_555 1_555
H14_5 C21_5 1_555 1_555
C22_5 C9_5 1_555 1_555
H15_5 C22_5 1_555 1_555
C23_5 C12_5 1_555 1_555
C24_5 C23_5 1_555 1_555
In2_4 O5_4 1_555 1_555
O11_5 In2_3 1_555 1_555
O12_5 In2_3 1_555 1_555
O13_5 In2_3 1_555 1_555
O14_5 In2_3 1_555 1_555
C6_5 C7_5 1_555 1_555
O6_4 In2_4 1_555 1_555
O8_5 In4_2 1_555 1_555
C18_5 C21_5 1_555 1_555
C19_5 C20_5 1_555 1_555
C22_5 C23_5 1_555 1_555
In2_4 O1_6 1_555 1_555
N1_6 C8_6 1_555 1_555
O1_6 C1_6 1_555 1_555
O2_6 In2_4 1_555 1_555
O3_6 C13_6 1_555 1_555
O4_6 C13_6 1_555 1_555
C1_6 O2_6 1_555 1_555
C2_6 C1_6 1_555 1_555
C3_6 C2_6 1_555 1_555
H1_4 C3_6 1_555 1_555
C4_6 C3_6 1_555 1_555
H2_4 C4_6 1_555 1_555
C5_6 C4_6 1_555 1_555
C6_6 C5_6 1_555 1_555
H3_6 C6_6 1_555 1_555
C7_6 C2_6 1_555 1_555
H4_6 C7_6 1_555 1_555
C8_6 C5_6 1_555 1_555
H5_4 C8_6 1_555 1_555
H6_6 C8_6 1_555 1_555
C9_6 N1_6 1_555 1_555
C10_6 C9_6 1_555 1_555
H7_6 C10_6 1_555 1_555
C11_6 C10_6 1_555 1_555
C12_6 C11_6 1_555 1_555
H8_6 C12_6 1_555 1_555
C13_6 C11_6 1_555 1_555
O9_2 C14_6 1_555 1_555
O10_2 C14_6 1_555 1_555
O7_6 C24_6 1_555 1_555
O8_6 C24_6 1_555 1_555
C14_6 C15_6 1_555 1_555
C15_6 C16_6 1_555 1_555
C16_6 H9_6 1_555 1_555
C17_6 C16_6 1_555 1_555
H10_6 C17_6 1_555 1_555
C18_6 C17_6 1_555 1_555
C19_6 C18_6 1_555 1_555
H11_6 C19_6 1_555 1_555
C20_6 C15_6 1_555 1_555
H12_6 C20_6 1_555 1_555
C21_6 N1_6 1_555 1_555
H13_6 C21_6 1_555 1_555
H14_6 C21_6 1_555 1_555
C22_6 C9_6 1_555 1_555
H15_6 C22_6 1_555 1_555
C23_6 C12_6 1_555 1_555
C24_6 C23_6 1_555 1_555
In3_6 O3_6 1_555 1_555
In4_5 O7_6 1_555 1_555
O11_6 In2_4 1_555 1_555
O12_6 In2_4 1_555 1_555
O13_6 In2_4 1_555 1_555
O14_6 In2_4 1_555 1_555
O4_6 In3_6 1_555 1_555
C6_6 C7_6 1_555 1_555
O8_6 In4_5 1_555 1_555
C18_6 C21_6 1_555 1_555
C19_6 C20_6 1_555 1_555
C22_6 C23_6 1_555 1_555
C9_7 N1_7 1_555 1_555
H8_7 C12_7 1_555 1_555
O5_5 C14_7 1_555 1_555
O6_5 C14_7 1_555 1_555
O7_7 C24_7 1_555 1_555
O8_7 C24_7 1_555 1_555
C14_7 C15_7 1_555 1_555
C15_7 C16_7 1_555 1_555
C16_7 H9_7 1_555 1_555
C17_7 C16_7 1_555 1_555
H10_7 C17_7 1_555 1_555
C18_7 C17_7 1_555 1_555
C19_7 C18_7 1_555 1_555
H11_7 C19_7 1_555 1_555
C20_7 C15_7 1_555 1_555
H12_7 C20_7 1_555 1_555
C21_7 N1_7 1_555 1_555
H13_7 C21_7 1_555 1_555
H14_7 C21_7 1_555 1_555
C22_7 C9_7 1_555 1_555
H15_7 C22_7 1_555 1_555
C23_7 C12_7 1_555 1_555
C24_7 C23_7 1_555 1_555
In2_6 O5_5 1_555 1_555
In3_5 O7_7 1_555 1_555
O6_5 In2_6 1_555 1_555
O8_7 In3_5 1_555 1_555
C18_7 C21_7 1_555 1_555
C19_7 C20_7 1_555 1_555
C22_7 C23_7 1_555 1_555
In1_3 O1_7 1_555 1_555
O1_7 C1_7 1_555 1_555
O2_7 In1_3 1_555 1_555
O3_7 C13_7 1_555 1_555
O4_7 C13_7 1_555 1_555
C1_7 O2_7 1_555 1_555
C2_7 C1_7 1_555 1_555
C3_7 C2_7 1_555 1_555
H1_5 C3_7 1_555 1_555
C4_7 C3_7 1_555 1_555
H2_5 C4_7 1_555 1_555
C5_7 C4_7 1_555 1_555
C6_7 C5_7 1_555 1_555
H3_7 C6_7 1_555 1_555
C7_7 C2_7 1_555 1_555
H4_7 C7_7 1_555 1_555
C8_7 C5_7 1_555 1_555
H5_5 C8_7 1_555 1_555
H6_7 C8_7 1_555 1_555
H7_7 C10_7 1_555 1_555
C11_7 C10_7 1_555 1_555
C13_7 C11_7 1_555 1_555
In3 O3_7 1_555 1_555
O9_3 In1_3 1_555 1_555
O10_3 In1_3 1_555 1_555
O11_7 In1_3 1_555 1_555
O12_7 In1_3 1_555 1_555
O13_7 In1_3 1_555 1_555
O14_7 In1_3 1_555 1_555
O4_7 In3 1_555 1_555
C6_7 C7_7 1_555 1_555
In2_5 O1_8 1_555 1_555
N1_8 C8_8 1_555 1_555
O1_8 C1_8 1_555 1_555
O2_8 In2_5 1_555 1_555
O3_8 C13_8 1_555 1_555
O4_8 C13_8 1_555 1_555
C1_8 O2_8 1_555 1_555
C2_8 C1_8 1_555 1_555
C3_8 C2_8 1_555 1_555
H1_6 C3_8 1_555 1_555
C4_8 C3_8 1_555 1_555
H2_6 C4_8 1_555 1_555
C5_8 C4_8 1_555 1_555
C6_8 C5_8 1_555 1_555
H3_8 C6_8 1_555 1_555
C7_8 C2_8 1_555 1_555
H4_8 C7_8 1_555 1_555
C8_8 C5_8 1_555 1_555
H5_6 C8_8 1_555 1_555
H6_8 C8_8 1_555 1_555
C9_8 N1_8 1_555 1_555
C10_8 C9_8 1_555 1_555
H7_8 C10_8 1_555 1_555
C11_8 C10_8 1_555 1_555
C12_8 C11_8 1_555 1_555
H8_8 C12_8 1_555 1_555
C13_8 C11_8 1_555 1_555
O5_6 C14_8 1_555 1_555
O6_6 C14_8 1_555 1_555
O7_8 C24_8 1_555 1_555
O8_8 C24_8 1_555 1_555
C14_8 C15_8 1_555 1_555
C15_8 C16_8 1_555 1_555
C16_8 H9_8 1_555 1_555
C17_8 C16_8 1_555 1_555
H10_8 C17_8 1_555 1_555
C18_8 C17_8 1_555 1_555
C19_8 C18_8 1_555 1_555
H11_8 C19_8 1_555 1_555
C20_8 C15_8 1_555 1_555
H12_8 C20_8 1_555 1_555
C21_8 N1_8 1_555 1_555
H13_8 C21_8 1_555 1_555
H14_8 C21_8 1_555 1_555
C22_8 C9_8 1_555 1_555
H15_8 C22_8 1_555 1_555
C23_8 C12_8 1_555 1_555
C24_8 C23_8 1_555 1_555
In2_7 O5_6 1_555 1_555
In3_3 O3_8 1_555 1_555
In3_6 O7_8 1_555 1_555
O12_8 In2_5 1_555 1_555
O13_8 In2_5 1_555 1_555
O4_8 In3_3 1_555 1_555
C6_8 C7_8 1_555 1_555
O6_6 In2_7 1_555 1_555
O8_8 In3_6 1_555 1_555
C18_8 C21_8 1_555 1_555
C19_8 C20_8 1_555 1_555
C22_8 C23_8 1_555 1_555
O11_8 In2_6 1_555 1_555
O14_8 In2_6 1_555 1_555
O11_9 In2_7 1_555 1_555
O14_9 In2_7 1_555 1_555
In2_8 O1_9 1_555 1_555
O1_9 C1_9 1_555 1_555
O2_9 In2_8 1_555 1_555
O3_9 C13_9 1_555 1_555
O4_9 C13_9 1_555 1_555
C1_9 O2_9 1_555 1_555
C2_9 C1_9 1_555 1_555
C3_9 C2_9 1_555 1_555
H1_7 C3_9 1_555 1_555
C4_9 C3_9 1_555 1_555
H2_7 C4_9 1_555 1_555
C5_9 C4_9 1_555 1_555
C6_9 C5_9 1_555 1_555
H3_9 C6_9 1_555 1_555
C7_9 C2_9 1_555 1_555
H4_9 C7_9 1_555 1_555
C8_9 C5_9 1_555 1_555
H5_7 C8_9 1_555 1_555
H6_9 C8_9 1_555 1_555
H7_9 C10_9 1_555 1_555
C11_9 C10_9 1_555 1_555
C13_9 C11_9 1_555 1_555
In3_2 O3_9 1_555 1_555
O12_9 In2_8 1_555 1_555
O13_9 In2_8 1_555 1_555
O4_9 In3_2 1_555 1_555
C6_9 C7_9 1_555 1_555
C9_9 N1_9 1_555 1_555
H8_9 C12_9 1_555 1_555
O9_3 C14_9 1_555 1_555
O10_3 C14_9 1_555 1_555
O7_9 C24_9 1_555 1_555
O8_9 C24_9 1_555 1_555
C14_9 C15_9 1_555 1_555
C15_9 C16_9 1_555 1_555
C16_9 H9_9 1_555 1_555
C17_9 C16_9 1_555 1_555
H10_9 C17_9 1_555 1_555
C18_9 C17_9 1_555 1_555
C19_9 C18_9 1_555 1_555
H11_9 C19_9 1_555 1_555
C20_9 C15_9 1_555 1_555
H12_9 C20_9 1_555 1_555
C21_9 N1_9 1_555 1_555
H13_9 C21_9 1_555 1_555
H14_9 C21_9 1_555 1_555
C22_9 C9_9 1_555 1_555
H15_9 C22_9 1_555 1_555
C23_9 C12_9 1_555 1_555
C24_9 C23_9 1_555 1_555
In3_4 O7_9 1_555 1_555
O8_9 In3_4 1_555 1_555
C18_9 C21_9 1_555 1_555
C19_9 C20_9 1_555 1_555
C22_9 C23_9 1_555 1_555
C9_10 N1_10 1_555 1_555
H8_10 C12_10 1_555 1_555
C8_9 N1_10 1_555 1_555
C10_9 C9_10 1_555 1_555
C11_9 C12_10 1_555 1_555
C9_11 N1_11 1_555 1_555
H8_11 C12_11 1_555 1_555
C8_7 N1_11 1_555 1_555
C10_7 C9_11 1_555 1_555
C11_7 C12_11 1_555 1_555
O11 C13_10 1_555 1_555
O13 C13_10 1_555 1_555
In3 O1_10 1_555 1_555
N1_12 C8_10 1_555 1_555
O1_10 C1_10 1_555 1_555
O2_10 In3 1_555 1_555
C1_10 O2_10 1_555 1_555
C2_10 C1_10 1_555 1_555
C3_10 C2_10 1_555 1_555
C4_10 C3_10 1_555 1_555
C5_10 C4_10 1_555 1_555
C6_10 C5_10 1_555 1_555
H3_10 C6_10 1_555 1_555
C7_10 C2_10 1_555 1_555
H4_10 C7_10 1_555 1_555
C8_10 C5_10 1_555 1_555
H6_10 C8_10 1_555 1_555
C9_12 N1_12 1_555 1_555
C10_10 C9_12 1_555 1_555
H7_10 C10_10 1_555 1_555
C11_10 C10_10 1_555 1_555
C12_12 C11_10 1_555 1_555
O5_7 C14_10 1_555 1_555
O6_7 C14_10 1_555 1_555
O13_9 C24_10 1_555 1_555
C14_10 C15_10 1_555 1_555
C15_10 C16_10 1_555 1_555
C16_10 H9_10 1_555 1_555
C17_10 C16_10 1_555 1_555
H10_10 C17_10 1_555 1_555
C18_10 C17_10 1_555 1_555
C19_10 C18_10 1_555 1_555
H11_10 C19_10 1_555 1_555
C20_10 C15_10 1_555 1_555
H12_10 C20_10 1_555 1_555
C21_10 N1_12 1_555 1_555
H13_10 C21_10 1_555 1_555
H14_10 C21_10 1_555 1_555
C22_10 C9_12 1_555 1_555
H15_10 C22_10 1_555 1_555
C23_10 C12_12 1_555 1_555
C24_10 C23_10 1_555 1_555
In3_2 O5_7 1_555 1_555
O9_4 In3 1_555 1_555
O10_4 In3 1_555 1_555
C6_10 C7_10 1_555 1_555
O6_7 In3_2 1_555 1_555
C18_10 C21_10 1_555 1_555
C19_10 C20_10 1_555 1_555
C22_10 C23_10 1_555 1_555
In3_2 O1_11 1_555 1_555
N1_13 C8_11 1_555 1_555
O1_11 C1_11 1_555 1_555
O2_11 In3_2 1_555 1_555
C1_11 O2_11 1_555 1_555
C2_11 C1_11 1_555 1_555
C3_11 C2_11 1_555 1_555
C4_11 C3_11 1_555 1_555
C5_11 C4_11 1_555 1_555
C6_11 C5_11 1_555 1_555
H3_11 C6_11 1_555 1_555
C7_11 C2_11 1_555 1_555
H4_11 C7_11 1_555 1_555
C8_11 C5_11 1_555 1_555
H6_11 C8_11 1_555 1_555
C9_13 N1_13 1_555 1_555
C10_11 C9_13 1_555 1_555
H7_11 C10_11 1_555 1_555
C11_11 C10_11 1_555 1_555
C12_13 C11_11 1_555 1_555
O5_8 C14_11 1_555 1_555
O6_8 C14_11 1_555 1_555
O13_8 C24_11 1_555 1_555
C14_11 C15_11 1_555 1_555
C15_11 C16_11 1_555 1_555
C16_11 H9_11 1_555 1_555
C17_11 C16_11 1_555 1_555
H10_11 C17_11 1_555 1_555
C18_11 C17_11 1_555 1_555
C19_11 C18_11 1_555 1_555
H11_11 C19_11 1_555 1_555
C20_11 C15_11 1_555 1_555
H12_11 C20_11 1_555 1_555
C21_11 N1_13 1_555 1_555
H13_11 C21_11 1_555 1_555
H14_11 C21_11 1_555 1_555
C22_11 C9_13 1_555 1_555
H15_11 C22_11 1_555 1_555
C23_11 C12_13 1_555 1_555
C24_11 C23_11 1_555 1_555
In3_3 O5_8 1_555 1_555
C6_11 C7_11 1_555 1_555
O6_8 In3_3 1_555 1_555
C18_11 C21_11 1_555 1_555
C19_11 C20_11 1_555 1_555
C22_11 C23_11 1_555 1_555
O11_2 C13_11 1_555 1_555
O13_2 C13_11 1_555 1_555
O11_3 C13_12 1_555 1_555
O13_3 C13_12 1_555 1_555
In3_3 O1_12 1_555 1_555
N1_14 C8_12 1_555 1_555
O1_12 C1_12 1_555 1_555
O2_12 In3_3 1_555 1_555
C1_12 O2_12 1_555 1_555
C2_12 C1_12 1_555 1_555
C3_12 C2_12 1_555 1_555
C4_12 C3_12 1_555 1_555
C5_12 C4_12 1_555 1_555
C6_12 C5_12 1_555 1_555
H3_12 C6_12 1_555 1_555
C7_12 C2_12 1_555 1_555
H4_12 C7_12 1_555 1_555
C8_12 C5_12 1_555 1_555
H6_12 C8_12 1_555 1_555
C9_14 N1_14 1_555 1_555
C10_12 C9_14 1_555 1_555
H7_12 C10_12 1_555 1_555
C11_12 C10_12 1_555 1_555
C12_14 C11_12 1_555 1_555
H8_14 C12_14 1_555 1_555
O9_4 C14_12 1_555 1_555
O10_4 C14_12 1_555 1_555
O11_7 C24_12 1_555 1_555
O13_7 C24_12 1_555 1_555
C14_12 C15_12 1_555 1_555
C15_12 C16_12 1_555 1_555
C16_12 H9_12 1_555 1_555
C17_12 C16_12 1_555 1_555
H10_12 C17_12 1_555 1_555
C18_12 C17_12 1_555 1_555
C19_12 C18_12 1_555 1_555
H11_12 C19_12 1_555 1_555
C20_12 C15_12 1_555 1_555
H12_12 C20_12 1_555 1_555
C21_12 N1_14 1_555 1_555
H13_12 C21_12 1_555 1_555
H14_12 C21_12 1_555 1_555
C22_12 C9_14 1_555 1_555
H15_12 C22_12 1_555 1_555
C23_12 C12_14 1_555 1_555
C24_12 C23_12 1_555 1_555
C6_12 C7_12 1_555 1_555
C18_12 C21_12 1_555 1_555
C19_12 C20_12 1_555 1_555
C22_12 C23_12 1_555 1_555
O11_4 C13_13 1_555 1_555
O13_4 C13_13 1_555 1_555
In3_4 O1_13 1_555 1_555
N1_15 C8_13 1_555 1_555
O1_13 C1_13 1_555 1_555
O2_13 In3_4 1_555 1_555
C1_13 O2_13 1_555 1_555
C2_13 C1_13 1_555 1_555
C3_13 C2_13 1_555 1_555
H1_9 C3_13 1_555 1_555
C4_13 C3_13 1_555 1_555
H2_9 C4_13 1_555 1_555
C5_13 C4_13 1_555 1_555
C6_13 C5_13 1_555 1_555
H3_13 C6_13 1_555 1_555
C7_13 C2_13 1_555 1_555
H4_13 C7_13 1_555 1_555
C8_13 C5_13 1_555 1_555
H5_9 C8_13 1_555 1_555
H6_13 C8_13 1_555 1_555
C9_15 N1_15 1_555 1_555
C10_13 C9_15 1_555 1_555
H7_13 C10_13 1_555 1_555
C11_13 C10_13 1_555 1_555
C12_15 C11_13 1_555 1_555
O5_9 C14_13 1_555 1_555
O6_9 C14_13 1_555 1_555
O14_8 C24_13 1_555 1_555
C14_13 C15_13 1_555 1_555
C15_13 C16_13 1_555 1_555
C16_13 H9_13 1_555 1_555
C17_13 C16_13 1_555 1_555
H10_13 C17_13 1_555 1_555
C18_13 C17_13 1_555 1_555
C19_13 C18_13 1_555 1_555
H11_13 C19_13 1_555 1_555
C20_13 C15_13 1_555 1_555
H12_13 C20_13 1_555 1_555
C21_13 N1_15 1_555 1_555
H13_13 C21_13 1_555 1_555
H14_13 C21_13 1_555 1_555
C22_13 C9_15 1_555 1_555
H15_13 C22_13 1_555 1_555
C23_13 C12_15 1_555 1_555
C24_13 C23_13 1_555 1_555
In3_5 O5_9 1_555 1_555
O9_5 In3_4 1_555 1_555
O10_5 In3_4 1_555 1_555
C6_13 C7_13 1_555 1_555
O6_9 In3_5 1_555 1_555
C18_13 C21_13 1_555 1_555
C19_13 C20_13 1_555 1_555
C22_13 C23_13 1_555 1_555
In3_5 O1_14 1_555 1_555
N1_16 C8_14 1_555 1_555
O1_14 C1_14 1_555 1_555
O2_14 In3_5 1_555 1_555
C1_14 O2_14 1_555 1_555
C2_14 C1_14 1_555 1_555
C3_14 C2_14 1_555 1_555
H1_10 C3_14 1_555 1_555
C4_14 C3_14 1_555 1_555
H2_10 C4_14 1_555 1_555
C5_14 C4_14 1_555 1_555
C6_14 C5_14 1_555 1_555
H3_14 C6_14 1_555 1_555
C7_14 C2_14 1_555 1_555
H4_14 C7_14 1_555 1_555
C8_14 C5_14 1_555 1_555
H5_10 C8_14 1_555 1_555
H6_14 C8_14 1_555 1_555
C9_16 N1_16 1_555 1_555
C10_14 C9_16 1_555 1_555
H7_14 C10_14 1_555 1_555
C11_14 C10_14 1_555 1_555
C12_16 C11_14 1_555 1_555
O5_10 C14_14 1_555 1_555
O6_10 C14_14 1_555 1_555
O14_9 C24_14 1_555 1_555
C14_14 C15_14 1_555 1_555
C15_14 C16_14 1_555 1_555
C16_14 H9_14 1_555 1_555
C17_14 C16_14 1_555 1_555
H10_14 C17_14 1_555 1_555
C18_14 C17_14 1_555 1_555
C19_14 C18_14 1_555 1_555
H11_14 C19_14 1_555 1_555
C20_14 C15_14 1_555 1_555
H12_14 C20_14 1_555 1_555
C21_14 N1_16 1_555 1_555
H13_14 C21_14 1_555 1_555
H14_14 C21_14 1_555 1_555
C22_14 C9_16 1_555 1_555
H15_14 C22_14 1_555 1_555
C23_14 C12_16 1_555 1_555
C24_14 C23_14 1_555 1_555
In3_6 O5_10 1_555 1_555
C6_14 C7_14 1_555 1_555
O6_10 In3_6 1_555 1_555
C18_14 C21_14 1_555 1_555
C19_14 C20_14 1_555 1_555
C22_14 C23_14 1_555 1_555
O11_5 C13_14 1_555 1_555
O13_5 C13_14 1_555 1_555
In3_6 O1_15 1_555 1_555
N1_17 C8_15 1_555 1_555
O1_15 C1_15 1_555 1_555
O2_15 In3_6 1_555 1_555
O11_6 C13_15 1_555 1_555
O13_6 C13_15 1_555 1_555
C1_15 O2_15 1_555 1_555
C2_15 C1_15 1_555 1_555
C3_15 C2_15 1_555 1_555
H1_11 C3_15 1_555 1_555
C4_15 C3_15 1_555 1_555
H2_11 C4_15 1_555 1_555
C5_15 C4_15 1_555 1_555
C6_15 C5_15 1_555 1_555
H3_15 C6_15 1_555 1_555
C7_15 C2_15 1_555 1_555
H4_15 C7_15 1_555 1_555
C8_15 C5_15 1_555 1_555
H5_11 C8_15 1_555 1_555
H6_15 C8_15 1_555 1_555
C9_17 N1_17 1_555 1_555
C10_15 C9_17 1_555 1_555
H7_15 C10_15 1_555 1_555
C11_15 C10_15 1_555 1_555
C12_17 C11_15 1_555 1_555
H8_17 C12_17 1_555 1_555
C13_15 C11_15 1_555 1_555
O9_5 C14_15 1_555 1_555
O10_5 C14_15 1_555 1_555
O12_7 C24_15 1_555 1_555
O14_7 C24_15 1_555 1_555
C14_15 C15_15 1_555 1_555
C15_15 C16_15 1_555 1_555
C16_15 H9_15 1_555 1_555
C17_15 C16_15 1_555 1_555
H10_15 C17_15 1_555 1_555
C18_15 C17_15 1_555 1_555
C19_15 C18_15 1_555 1_555
H11_15 C19_15 1_555 1_555
C20_15 C15_15 1_555 1_555
H12_15 C20_15 1_555 1_555
C21_15 N1_17 1_555 1_555
H13_15 C21_15 1_555 1_555
H14_15 C21_15 1_555 1_555
C22_15 C9_17 1_555 1_555
H15_15 C22_15 1_555 1_555
C23_15 C12_17 1_555 1_555
C24_15 C23_15 1_555 1_555
C6_15 C7_15 1_555 1_555
C18_15 C21_15 1_555 1_555
C19_15 C20_15 1_555 1_555
C22_15 C23_15 1_555 1_555
In4_5 O1_16 1_555 1_555
O1_16 C1_16 1_555 1_555
O2_16 In4_5 1_555 1_555
O12 C13_16 1_555 1_555
O14 C13_16 1_555 1_555
C1_16 O2_16 1_555 1_555
C2_16 C1_16 1_555 1_555
C3_16 C2_16 1_555 1_555
H1_12 C3_16 1_555 1_555
C4_16 C3_16 1_555 1_555
H2_12 C4_16 1_555 1_555
C5_16 C4_16 1_555 1_555
C6_16 C5_16 1_555 1_555
H3_16 C6_16 1_555 1_555
C7_16 C2_16 1_555 1_555
H4_16 C7_16 1_555 1_555
C8_16 C5_16 1_555 1_555
H5_12 C8_16 1_555 1_555
H6_16 C8_16 1_555 1_555
H7_16 C10_16 1_555 1_555
C11_16 C10_16 1_555 1_555
C13_16 C11_16 1_555 1_555
O9_6 In4_5 1_555 1_555
O10_6 In4_5 1_555 1_555
C6_16 C7_16 1_555 1_555
C9_18 N1_18 1_555 1_555
H8_18 C12_18 1_555 1_555
O5_11 C14_16 1_555 1_555
O6_11 C14_16 1_555 1_555
O12_5 C24_16 1_555 1_555
O14_5 C24_16 1_555 1_555
C14_16 C15_16 1_555 1_555
C15_16 C16_16 1_555 1_555
C16_16 H9_16 1_555 1_555
C17_16 C16_16 1_555 1_555
H10_16 C17_16 1_555 1_555
C18_16 C17_16 1_555 1_555
C19_16 C18_16 1_555 1_555
H11_16 C19_16 1_555 1_555
C20_16 C15_16 1_555 1_555
H12_16 C20_16 1_555 1_555
C21_16 N1_18 1_555 1_555
H13_16 C21_16 1_555 1_555
H14_16 C21_16 1_555 1_555
C22_16 C9_18 1_555 1_555
H15_16 C22_16 1_555 1_555
C23_16 C12_18 1_555 1_555
C24_16 C23_16 1_555 1_555
In4_3 O5_11 1_555 1_555
O6_11 In4_3 1_555 1_555
C18_16 C21_16 1_555 1_555
C19_16 C20_16 1_555 1_555
C22_16 C23_16 1_555 1_555
In4_4 O1_17 1_555 1_555
N1_19 C8_17 1_555 1_555
O1_17 C1_17 1_555 1_555
O2_17 In4_4 1_555 1_555
O12_3 C13_17 1_555 1_555
O14_3 C13_17 1_555 1_555
C1_17 O2_17 1_555 1_555
C2_17 C1_17 1_555 1_555
C3_17 C2_17 1_555 1_555
H1_13 C3_17 1_555 1_555
C4_17 C3_17 1_555 1_555
H2_13 C4_17 1_555 1_555
C5_17 C4_17 1_555 1_555
C6_17 C5_17 1_555 1_555
H3_17 C6_17 1_555 1_555
C7_17 C2_17 1_555 1_555
H4_17 C7_17 1_555 1_555
C8_17 C5_17 1_555 1_555
H5_13 C8_17 1_555 1_555
H6_17 C8_17 1_555 1_555
C9_19 N1_19 1_555 1_555
C10_17 C9_19 1_555 1_555
H7_17 C10_17 1_555 1_555
C11_17 C10_17 1_555 1_555
C12_19 C11_17 1_555 1_555
H8_19 C12_19 1_555 1_555
C13_17 C11_17 1_555 1_555
O5_12 C14_17 1_555 1_555
O6_12 C14_17 1_555 1_555
O12_6 C24_17 1_555 1_555
O14_6 C24_17 1_555 1_555
C14_17 C15_17 1_555 1_555
C15_17 C16_17 1_555 1_555
C16_17 H9_17 1_555 1_555
C17_17 C16_17 1_555 1_555
H10_17 C17_17 1_555 1_555
C18_17 C17_17 1_555 1_555
C19_17 C18_17 1_555 1_555
H11_17 C19_17 1_555 1_555
C20_17 C15_17 1_555 1_555
H12_17 C20_17 1_555 1_555
C21_17 N1_19 1_555 1_555
H13_17 C21_17 1_555 1_555
H14_17 C21_17 1_555 1_555
C22_17 C9_19 1_555 1_555
H15_17 C22_17 1_555 1_555
C23_17 C12_19 1_555 1_555
C24_17 C23_17 1_555 1_555
In4_2 O5_12 1_555 1_555
C6_17 C7_17 1_555 1_555
O6_12 In4_2 1_555 1_555
C18_17 C21_17 1_555 1_555
C19_17 C20_17 1_555 1_555
C22_17 C23_17 1_555 1_555
C9_20 N1_20 1_555 1_555
H8_20 C12_20 1_555 1_555
O9_6 C14_18 1_555 1_555
O10_6 C14_18 1_555 1_555
O12_4 C24_18 1_555 1_555
O14_4 C24_18 1_555 1_555
C14_18 C15_18 1_555 1_555
C15_18 C16_18 1_555 1_555
C16_18 H9_18 1_555 1_555
C17_18 C16_18 1_555 1_555
H10_18 C17_18 1_555 1_555
C18_18 C17_18 1_555 1_555
C19_18 C18_18 1_555 1_555
H11_18 C19_18 1_555 1_555
C20_18 C15_18 1_555 1_555
H12_18 C20_18 1_555 1_555
C21_18 N1_20 1_555 1_555
H13_18 C21_18 1_555 1_555
H14_18 C21_18 1_555 1_555
C22_18 C9_20 1_555 1_555
H15_18 C22_18 1_555 1_555
C23_18 C12_20 1_555 1_555
C24_18 C23_18 1_555 1_555
C18_18 C21_18 1_555 1_555
C19_18 C20_18 1_555 1_555
C22_18 C23_18 1_555 1_555
In4 O1_18 1_555 1_555
O1_18 C1_18 1_555 1_555
O2_18 In4 1_555 1_555
O12_2 C13_18 1_555 1_555
O14_2 C13_18 1_555 1_555
C1_18 O2_18 1_555 1_555
C2_18 C1_18 1_555 1_555
C3_18 C2_18 1_555 1_555
H1_14 C3_18 1_555 1_555
C4_18 C3_18 1_555 1_555
H2_14 C4_18 1_555 1_555
C5_18 C4_18 1_555 1_555
C6_18 C5_18 1_555 1_555
H3_18 C6_18 1_555 1_555
C7_18 C2_18 1_555 1_555
H4_18 C7_18 1_555 1_555
C8_18 C5_18 1_555 1_555
H5_14 C8_18 1_555 1_555
H6_18 C8_18 1_555 1_555
H7_18 C10_18 1_555 1_555
C11_18 C10_18 1_555 1_555
C13_18 C11_18 1_555 1_555
C6_18 C7_18 1_555 1_555
C9_21 N1_21 1_555 1_555
H8_21 C12_21 1_555 1_555
C8_18 N1_21 1_555 1_555
C10_18 C9_21 1_555 1_555
C11_18 C12_21 1_555 1_555
C9_22 N1_22 1_555 1_555
H8_22 C12_22 1_555 1_555
C8_16 N1_22 1_555 1_555
C10_16 C9_22 1_555 1_555
C11_16 C12_22 1_555 1_555

#END
