
###############################################################################
#
# This file contains modified crystal structure data generated from the
# MOF subset of the Cambridge Structural Database (CSD) v543 
# hosted by the Cambridge Crystallographic Data Centre (CCDC).
#
# This work is licensed under the Creative Commons
# Attribution-NonCommercial-ShareAlike 4.0 International License.
# To view a copy of this license, visit
# http://creativecommons.org/licenses/by-nc-sa/4.0/
# or send a letter to
# Creative Commons, PO Box 1866, Mountain View, CA 94042, USA.
#
# CIF created using the CSD Python API on 29 September 2022
# The structure has been converted into the P1 space group
# The structure has a 3D framework
# The original CSD entry BIFKEI is in the triclinic crystal system
# The framework has been calculated to contain at least 10.0% void space
# The void calculation uses a probe of radius 1.32A, grid spacing 0.4
#
###############################################################################

data_BIFKEI
_chemical_formula_moiety         '(C62 H46 Cl6 Cu6 F12 N20 O14 S4)n'
_symmetry_cell_setting           triclinic
_symmetry_space_group_name_H-M   'P 1'
_symmetry_Int_Tables_number      1
_space_group_name_Hall           'P 1'
loop_
_symmetry_equiv_pos_site_id
_symmetry_equiv_pos_as_xyz
1 x,y,z
_cell_length_a                   12.287(8)
_cell_length_b                   12.916(8)
_cell_length_c                   18.199(12)
_cell_angle_alpha                86.733(8)
_cell_angle_beta                 70.443(8)
_cell_angle_gamma                80.146(8)
_cell_volume                     2681.39
loop_
_atom_site_label
_atom_site_type_symbol
_atom_site_fract_x
_atom_site_fract_y
_atom_site_fract_z
_atom_site_U_iso_or_equiv
_atom_site_thermal_displace_type
N11 N 0.3014(5) 0.4146(9) 0.8990(6) 0.0691 Uani
C32 C 0.2256(9) 0.3415(7) 0.9151(10) 0.1531 Uani
H24 H 0.2543 0.2719 0.8997 0.1840 Uiso
C33 C 0.1069(8) 0.3723(9) 0.9544(10) 0.1324 Uani
H25 H 0.0562 0.3234 0.9652 0.1600 Uiso
C34 C 0.0640(5) 0.4763(10) 0.9775(7) 0.0615 Uani
C35 C 0.1398(8) 0.5495(8) 0.9613(10) 0.1330 Uani
H26 H 0.1111 0.6190 0.9768 0.1620 Uiso
C36 C 0.2585(8) 0.5186(9) 0.9220(10) 0.1583 Uani
H27 H 0.3092 0.5675 0.9112 0.1880 Uiso
Cu7 Cu 0.47070(12) 0.36855(16) 0.83854(9) 0.0542 Uani
C17 C 0.0912(11) 0.0005(9) 0.3364(8) 0.0845 Uani
F1 F 0.461(2) 0.0439(14) 0.2208(11) 0.2092 Uani
F2 F 0.663(2) 0.003(2) 0.1698(17) 0.2280 Uiso
F3 F 0.5304(19) 0.1000(17) 0.1108(13) 0.1800 Uiso
N12 N 0.6014(10) 0.1662(9) 0.6012(6) 0.0748 Uani
C37 C 0.5161(12) 0.1060(13) 0.6407(4) 0.1041 Uani
H28 H 0.4847 0.1090 0.6948 0.1230 Uiso
C38 C 0.4776(12) 0.0414(13) 0.5993(6) 0.1287 Uani
H29 H 0.4205 0.0011 0.6258 0.1550 Uiso
C39 C 0.5245(11) 0.0369(12) 0.5185(6) 0.0809 Uani
C40 C 0.6098(14) 0.0971(15) 0.4789(4) 0.1869 Uani
H30 H 0.6412 0.0941 0.4248 0.2260 Uiso
C41 C 0.6483(13) 0.1618(13) 0.5203(6) 0.1394 Uani
H31 H 0.7054 0.2021 0.4938 0.1680 Uiso
Cu9 Cu 0.64441(15) 0.25428(17) 0.67521(10) 0.0631 Uani
N14 N 0.8262(10) 0.1472(12) 0.8975(7) 0.0598 Uani
C47 C 0.7952(15) 0.066(2) 0.9338(17) 0.1212 Uani
H36 H 0.7303 0.0429 0.9290 0.1440 Uiso
C48 C 0.8539(17) 0.007(3) 0.9824(14) 0.1221 Uani
C49 C 0.9635(12) 0.0336(18) 0.9813(11) 0.0826 Uani
C50 C 0.998(2) 0.109(2) 0.9316(13) 0.1030 Uani
C51 C 0.9177(17) 0.174(2) 0.9000(12) 0.1054 Uani
H39 H 0.9344 0.2402 0.8805 0.1280 Uiso
Cu8 Cu 0.72428(14) 0.22262(16) 0.83746(10) 0.0601 Uani
H10 H 0.9407 0.6749 0.4983 0.2960 Uiso
H22 H 0.9249 0.8793 0.0831 0.1250 Uiso
F4 F 0.951(2) 0.479(4) 0.2254(16) 0.3216 Uani
F5 F 0.9814(17) 0.5225(19) 0.3258(10) 0.1887 Uani
N13 N 0.7792(10) 0.3469(11) 0.5911(8) 0.0868 Uani
C42 C 0.8947(12) 0.2980(9) 0.5592(11) 0.1624 Uani
H32 H 0.9135 0.2254 0.5620 0.1950 Uiso
C43 C 0.9820(9) 0.3578(11) 0.5231(13) 0.2459 Uani
C44 C 0.9539(9) 0.4664(11) 0.5188(10) 0.0901 Uani
C45 C 0.8384(10) 0.5152(9) 0.5508(10) 0.1184 Uani
H34 H 0.8196 0.5879 0.5480 0.1400 Uiso
C46 C 0.7511(7) 0.4555(11) 0.5869(9) 0.1186 Uani
H35 H 0.6738 0.4882 0.6083 0.1400 Uiso
H37 H 0.8223 0.9526 0.0137 0.1470 Uiso
N15 N 0.8108(9) 0.1405(8) 0.7439(6) 0.0769 Uani
N16 N 0.7646(8) 0.1441(8) 0.6819(6) 0.0601 Uani
C52 C 0.8251(12) 0.0569(10) 0.6322(7) 0.1392 Uani
H40 H 0.8122 0.0404 0.5870 0.1690 Uiso
C54 C 0.9000(9) 0.0512(9) 0.7326(7) 0.0813 Uani
H41 H 0.9447 0.0302 0.7648 0.0980 Uiso
N17 N 0.5117(7) 0.3474(9) 0.9311(4) 0.0663 Uani
N18 N 0.6237(6) 0.2939(8) 0.9293(4) 0.0615 Uani
O8 O 0.6357(7) 0.3177(8) 0.7770(5) 0.0491 Uani
H44 H 0.6740 0.3800 0.7630 0.0590 Uiso
N19 N 0.5124(9) 0.3592(9) 0.6765(6) 0.0463 Uani
N20 N 0.4446(10) 0.4181(12) 0.7397(7) 0.0694 Uani
S3 S 0.4643(4) 0.1055(4) 0.8794(3) 0.0808 Uani
S4 S 0.8409(5) 0.4694(6) 0.8002(3) 0.0969 Uani
C58 C 0.3581(13) 0.4807(17) 0.7270(11) 0.0860 Uani
H45 H 0.2925 0.5122 0.7665 0.1030 Uiso
C59 C 0.3753(12) 0.496(3) 0.6433(12) 0.1164 Uani
C60 C 0.472(3) 0.415(3) 0.6139(14) 0.1398 Uani
H46 H 0.5073 0.3989 0.5613 0.1640 Uiso
Cl6 Cl 0.2994(6) 0.5583(8) 0.5957(4) 0.1518 Uani
O9 O 0.4453(11) 0.1892(10) 0.8234(7) 0.0788 Uani
O10 O 0.3698(13) 0.1154(14) 0.9547(8) 0.1138 Uani
O11 O 0.5793(15) 0.0802(15) 0.8857(10) 0.1274 Uani
O12 O 0.7968(15) 0.5279(18) 0.8684(9) 0.1397 Uani
O13 O 0.8745(17) 0.3531(15) 0.8084(12) 0.1425 Uani
O14 O 0.7549(15) 0.4948(18) 0.7496(9) 0.1490 Uani
C61 C 0.445(2) 0.0045(17) 0.8507(16) 0.2200 Uiso
C62 C 0.9628(15) 0.568(2) 0.7321(12) 0.2601 Uani
F12 F 0.995(2) 0.6754(16) 0.7430(16) 2.9800 Uani
H21 H 0.1777 0.0474 0.9863 0.1470 Uiso
H38 H 0.0751 0.1207 0.9169 0.1250 Uiso
N1 N 0.6986(5) 0.5854(9) 0.1010(6) 0.0691 Uani
C1 C 0.7744(9) 0.6585(7) 0.0849(10) 0.1531 Uani
H1 H 0.7457 0.7281 0.1003 0.1840 Uiso
C2 C 0.8931(8) 0.6277(9) 0.0456(10) 0.1324 Uani
H2 H 0.9438 0.6766 0.0348 0.1600 Uiso
C3 C 0.9360(5) 0.5237(10) 0.0225(7) 0.0615 Uani
C4 C 0.8602(8) 0.4505(8) 0.0387(10) 0.1330 Uani
H3 H 0.8889 0.3810 0.0232 0.1620 Uiso
C5 C 0.7415(8) 0.4814(9) 0.0780(10) 0.1583 Uani
H4 H 0.6908 0.4325 0.0888 0.1880 Uiso
N2 N 0.3986(10) 0.8338(9) 0.3988(6) 0.0748 Uani
C6 C 0.4839(12) 0.8940(13) 0.3593(4) 0.1041 Uani
H5 H 0.5153 0.8910 0.3052 0.1230 Uiso
C7 C 0.5224(12) 0.9586(13) 0.4007(6) 0.1287 Uani
H6 H 0.5795 0.9989 0.3742 0.1550 Uiso
C8 C 0.4755(11) 0.9631(12) 0.4815(6) 0.0809 Uani
C9 C 0.3902(14) 0.9029(15) 0.5211(4) 0.1869 Uani
H7 H 0.3588 0.9059 0.5752 0.2260 Uiso
C10 C 0.3517(13) 0.8382(13) 0.4797(6) 0.1394 Uani
H8 H 0.2946 0.7979 0.5062 0.1680 Uiso
N3 N 0.2208(10) 0.6531(11) 0.4089(8) 0.0868 Uani
C11 C 0.1053(12) 0.7020(9) 0.4408(11) 0.1624 Uani
H9 H 0.0865 0.7746 0.4380 0.1950 Uiso
C12 C 0.0180(9) 0.6422(11) 0.4769(13) 0.2459 Uani
C13 C 0.0461(9) 0.5336(11) 0.4812(10) 0.0901 Uani
C14 C 0.1616(10) 0.4848(9) 0.4492(10) 0.1184 Uani
H11 H 0.1804 0.4121 0.4520 0.1400 Uiso
C15 C 0.2489(7) 0.5445(11) 0.4131(9) 0.1186 Uani
H12 H 0.3262 0.5118 0.3917 0.1400 Uiso
N4 N 0.1892(9) 0.8595(8) 0.2561(6) 0.0769 Uani
N5 N 0.2354(8) 0.8559(8) 0.3181(6) 0.0601 Uani
C16 C 0.1749(12) 0.9431(10) 0.3678(7) 0.1392 Uani
H13 H 0.1878 0.9596 0.4130 0.1690 Uiso
C18 C 0.1000(9) 0.9488(9) 0.2674(7) 0.0813 Uani
H14 H 0.0553 0.9698 0.2352 0.0980 Uiso
N6 N 0.4883(7) 0.6526(9) 0.0689(4) 0.0663 Uani
N7 N 0.3763(6) 0.7061(8) 0.0707(4) 0.0615 Uani
Cu1 Cu 0.52930(12) 0.63145(16) 0.16146(9) 0.0542 Uani
Cu2 Cu 0.27572(14) 0.77738(16) 0.16254(10) 0.0601 Uani
Cu3 Cu 0.35559(15) 0.74572(17) 0.32479(10) 0.0631 Uani
O1 O 0.3643(7) 0.6823(8) 0.2230(5) 0.0491 Uani
H17 H 0.3260 0.6200 0.2370 0.0590 Uiso
N8 N 0.4876(9) 0.6408(9) 0.3235(6) 0.0463 Uani
N9 N 0.5554(10) 0.5819(12) 0.2603(7) 0.0694 Uani
N10 N 0.1738(10) 0.8528(12) 0.1025(7) 0.0598 Uani
S1 S 0.5357(4) 0.8945(4) 0.1206(3) 0.0808 Uani
S2 S 0.1591(5) 0.5306(6) 0.1998(3) 0.0969 Uani
C22 C 0.6419(13) 0.5193(17) 0.2730(11) 0.0860 Uani
H18 H 0.7075 0.4878 0.2335 0.1030 Uiso
C23 C 0.6247(12) 0.504(3) 0.3567(12) 0.1164 Uani
C24 C 0.528(3) 0.585(3) 0.3861(14) 0.1398 Uani
H19 H 0.4927 0.6011 0.4387 0.1640 Uiso
C25 C 0.2048(15) 0.934(2) 0.0662(17) 0.1212 Uani
H20 H 0.2697 0.9571 0.0710 0.1440 Uiso
C26 C 0.1461(17) 0.993(3) 0.0176(14) 0.1221 Uani
C27 C 0.0365(12) 0.9664(18) 0.0187(11) 0.0826 Uani
C28 C 0.002(2) 0.891(2) 0.0684(13) 0.1030 Uani
C29 C 0.0823(17) 0.826(2) 0.1000(12) 0.1054 Uani
H23 H 0.0656 0.7598 0.1195 0.1280 Uiso
Cl3 Cl 0.7006(6) 0.4417(8) 0.4043(4) 0.1518 Uani
O2 O 0.5547(11) 0.8108(10) 0.1766(7) 0.0788 Uani
O3 O 0.6302(13) 0.8846(14) 0.0453(8) 0.1138 Uani
O4 O 0.4207(15) 0.9198(15) 0.1143(10) 0.1274 Uani
O5 O 0.2032(15) 0.4721(18) 0.1316(9) 0.1397 Uani
O6 O 0.1255(17) 0.6469(15) 0.1916(12) 0.1425 Uani
O7 O 0.2451(15) 0.5052(18) 0.2504(9) 0.1490 Uani
C30 C 0.555(2) 0.9955(17) 0.1493(16) 0.2200 Uiso
C31 C 0.0372(15) 0.432(2) 0.2679(12) 0.2601 Uani
F6 F 0.005(2) 0.3246(16) 0.2570(16) 2.9800 Uani
H33 H 0.0593 0.3251 0.5017 0.2960 Uiso
F10 F 0.049(2) 0.521(4) 0.7746(16) 0.3216 Uani
F11 F 0.0186(17) 0.4775(19) 0.6742(10) 0.1887 Uani
C53 C 0.9088(11) 0.9995(9) 0.6636(8) 0.0845 Uani
F7 F 0.539(2) 0.9561(14) 0.7792(11) 0.2092 Uani
F8 F 0.337(2) 0.997(2) 0.8302(17) 0.2280 Uiso
F9 F 0.4696(19) 0.9000(17) 0.8892(13) 0.1800 Uiso
C19 C 0.3695(7) 0.7028(9) 0.9946(5) 0.0644 Uani
H15 H 0.3057 0.7318 0.9794 0.0770 Uiso
C20 C 0.4772(9) 0.6473(10) 0.9457(4) 0.0601 Uani
C21 C 0.5506(6) 0.6163(9) 0.9917(5) 0.0777 Uani
H16 H 0.6263 0.5788 0.9742 0.0930 Uiso
Cl1 Cl 0.5110(4) 0.6315(5) 0.8492(2) 0.0918 Uani
Cl5 Cl 0.0070(10) 0.9006(9) 0.6178(7) 0.2123 Uani
Cl2 Cl 0.9930(10) 0.0994(9) 0.3822(7) 0.2123 Uani
C55 C 0.6305(7) 0.2972(9) 0.0054(5) 0.0644 Uani
H42 H 0.6943 0.2682 0.0206 0.0770 Uiso
C56 C 0.5228(9) 0.3527(10) 0.0543(4) 0.0601 Uani
C57 C 0.4494(6) 0.3837(9) 0.0083(5) 0.0777 Uani
H43 H 0.3737 0.4212 0.0258 0.0930 Uiso
Cl4 Cl 0.4890(4) 0.3685(5) 0.1508(2) 0.0918 Uani
loop_
_atom_site_aniso_label
_atom_site_aniso_U_11
_atom_site_aniso_U_22
_atom_site_aniso_U_33
_atom_site_aniso_U_23
_atom_site_aniso_U_13
_atom_site_aniso_U_12
N11 0.032 0.101 0.064 -0.012 -0.017 0.023
C32 0.027 0.11 0.28 -0.02 -0.001 0.007
C33 0.096 0.1 0.16 0.014 0.015 -0.027
C34 0.03 0.096 0.06 -0.006 -0.019 -0.004
C35 0.051 0.12 0.21 -0.12 -0.005 -0.004
C36 0.068 0.089 0.23 0.047 0.055 -0.006
Cu7 0.0325 0.0771 0.0503 -0.0038 -0.0141 0.0003
C17 0.073 0.088 0.105 0.041 -0.048 -0.022
F1 0.3 0.125 0.124 -0.027 0.035 -0.03
N12 0.07 0.101 0.058 -0.028 -0.031 0.003
C37 0.136 0.14 0.047 -0.024 -0.028 -0.048
C38 0.17 0.19 0.081 0.056 -0.063 -0.15
C39 0.056 0.111 0.07 -0.044 0.008 -0.043
C40 0.2 0.33 0.077 -0.06 -0.015 -0.21
C41 0.27 0.11 0.068 0.032 -0.071 -0.09
Cu9 0.0502 0.0847 0.0591 -0.0143 -0.023 -0.0087
N14 0.053 0.069 0.066 0.01 -0.038 0.001
C47 0.041 0.13 0.2 0.07 -0.061 -0.013
C48 0.065 0.21 0.113 0.003 -0.033 -0.074
C49 0.031 0.139 0.079 -0.022 -0.024 0.002
C50 0.115 0.12 0.105 0.062 -0.067 -0.06
C51 0.072 0.16 0.099 0.067 -0.05 -0.036
Cu8 0.0463 0.0772 0.0564 -0.0062 -0.0237 0.007
F4 0.15 0.66 0.22 0.19 -0.111 -0.2
F5 0.161 0.3 0.097 0.003 0.004 -0.112
N13 0.078 0.095 0.102 0.022 -0.044 -0.031
C42 0.14 0.13 0.16 -0.07 0.06 -0.07
C43 0.093 0.12 0.39 0.01 0.1 -0.028
C44 0.047 0.073 0.129 -0.032 0.016 -0.034
C45 0.064 0.115 0.15 0.068 -0.013 -0.012
C46 0.095 0.13 0.099 0.049 0.007 -0.029
N15 0.082 0.069 0.082 0.001 -0.043 0.014
N16 0.052 0.051 0.075 -0.01 -0.02 -0.001
C52 0.15 0.19 0.084 -0.02 -0.062 0.01
C54 0.06 0.084 0.08 0.006 -0.018 0.029
N17 0.046 0.105 0.054 0.001 -0.021 -0.02
N18 0.07 0.054 0.065 0.005 -0.032 -0.004
O8 0.044 0.069 0.038 0.009 -0.013 -0.023
N19 0.043 0.054 0.049 0.025 -0.025 -0.015
N20 0.05 0.111 0.045 0.004 -0.026 0.013
S3 0.066 0.093 0.082 0.011 -0.022 -0.018
S4 0.078 0.129 0.085 -0.01 -0.022 -0.027
C58 0.042 0.125 0.078 0.035 -0.015 0
C59 0.022 0.24 0.085 -0.042 -0.011 -0.015
C60 0.18 0.21 0.095 0.069 -0.109 -0.1
Cl6 0.095 0.227 0.121 0.065 -0.049 0.013
O9 0.094 0.077 0.083 0.014 -0.053 -0.017
O10 0.096 0.145 0.085 0.038 -0.015 -0.021
O11 0.126 0.158 0.153 0.079 -0.107 -0.071
O12 0.1 0.23 0.087 -0.038 -0.021 -0.029
O13 0.143 0.109 0.175 0.067 -0.07 -0.005
O14 0.111 0.24 0.095 -0.055 0.016 -0.11
C62 0.087 0.68 0.057 0.01 -0.015 -0.2
F12 2 2 2 2 1.73 2
N1 0.032 0.101 0.064 -0.012 -0.017 0.023
C1 0.027 0.11 0.28 -0.02 -0.001 0.007
C2 0.096 0.1 0.16 0.014 0.015 -0.027
C3 0.03 0.096 0.06 -0.006 -0.019 -0.004
C4 0.051 0.12 0.21 -0.12 -0.005 -0.004
C5 0.068 0.089 0.23 0.047 0.055 -0.006
N2 0.07 0.101 0.058 -0.028 -0.031 0.003
C6 0.136 0.14 0.047 -0.024 -0.028 -0.048
C7 0.17 0.19 0.081 0.056 -0.063 -0.15
C8 0.056 0.111 0.07 -0.044 0.008 -0.043
C9 0.2 0.33 0.077 -0.06 -0.015 -0.21
C10 0.27 0.11 0.068 0.032 -0.071 -0.09
N3 0.078 0.095 0.102 0.022 -0.044 -0.031
C11 0.14 0.13 0.16 -0.07 0.06 -0.07
C12 0.093 0.12 0.39 0.01 0.1 -0.028
C13 0.047 0.073 0.129 -0.032 0.016 -0.034
C14 0.064 0.115 0.15 0.068 -0.013 -0.012
C15 0.095 0.13 0.099 0.049 0.007 -0.029
N4 0.082 0.069 0.082 0.001 -0.043 0.014
N5 0.052 0.051 0.075 -0.01 -0.02 -0.001
C16 0.15 0.19 0.084 -0.02 -0.062 0.01
C18 0.06 0.084 0.08 0.006 -0.018 0.029
N6 0.046 0.105 0.054 0.001 -0.021 -0.02
N7 0.07 0.054 0.065 0.005 -0.032 -0.004
Cu1 0.0325 0.0771 0.0503 -0.0038 -0.0141 0.0003
Cu2 0.0463 0.0772 0.0564 -0.0062 -0.0237 0.007
Cu3 0.0502 0.0847 0.0591 -0.0143 -0.023 -0.0087
O1 0.044 0.069 0.038 0.009 -0.013 -0.023
N8 0.043 0.054 0.049 0.025 -0.025 -0.015
N9 0.05 0.111 0.045 0.004 -0.026 0.013
N10 0.053 0.069 0.066 0.01 -0.038 0.001
S1 0.066 0.093 0.082 0.011 -0.022 -0.018
S2 0.078 0.129 0.085 -0.01 -0.022 -0.027
C22 0.042 0.125 0.078 0.035 -0.015 0
C23 0.022 0.24 0.085 -0.042 -0.011 -0.015
C24 0.18 0.21 0.095 0.069 -0.109 -0.1
C25 0.041 0.13 0.2 0.07 -0.061 -0.013
C26 0.065 0.21 0.113 0.003 -0.033 -0.074
C27 0.031 0.139 0.079 -0.022 -0.024 0.002
C28 0.115 0.12 0.105 0.062 -0.067 -0.06
C29 0.072 0.16 0.099 0.067 -0.05 -0.036
Cl3 0.095 0.227 0.121 0.065 -0.049 0.013
O2 0.094 0.077 0.083 0.014 -0.053 -0.017
O3 0.096 0.145 0.085 0.038 -0.015 -0.021
O4 0.126 0.158 0.153 0.079 -0.107 -0.071
O5 0.1 0.23 0.087 -0.038 -0.021 -0.029
O6 0.143 0.109 0.175 0.067 -0.07 -0.005
O7 0.111 0.24 0.095 -0.055 0.016 -0.11
C31 0.087 0.68 0.057 0.01 -0.015 -0.2
F6 2 2 2 2 1.73 2
F10 0.15 0.66 0.22 0.19 -0.111 -0.2
F11 0.161 0.3 0.097 0.003 0.004 -0.112
C53 0.073 0.088 0.105 0.041 -0.048 -0.022
F7 0.3 0.125 0.124 -0.027 0.035 -0.03
C19 0.044 0.084 0.069 0.002 -0.026 -0.006
C20 0.079 0.069 0.03 0 -0.011 -0.02
C21 0.067 0.072 0.085 -0.036 -0.016 0.006
Cl1 0.087 0.132 0.058 -0.004 -0.023 -0.023
Cl5 0.212 0.185 0.218 -0.11 -0.102 0.126
Cl2 0.212 0.185 0.218 -0.11 -0.102 0.126
C55 0.044 0.084 0.069 0.002 -0.026 -0.006
C56 0.079 0.069 0.03 0 -0.011 -0.02
C57 0.067 0.072 0.085 -0.036 -0.016 0.006
Cl4 0.087 0.132 0.058 -0.004 -0.023 -0.023
loop_
_geom_bond_atom_site_label_1
_geom_bond_atom_site_label_2
_geom_bond_site_symmetry_1
_geom_bond_site_symmetry_2
N11 C32 1_555 1_555
C32 H24 1_555 1_555
C33 C32 1_555 1_555
H25 C33 1_555 1_555
C35 C34 1_555 1_555
H26 C35 1_555 1_555
C36 N11 1_555 1_555
H27 C36 1_555 1_555
Cu7 N11 1_555 1_555
C33 C34 1_555 1_555
C35 C36 1_555 1_555
N12 C37 1_555 1_555
C37 H28 1_555 1_555
C38 C37 1_555 1_555
H29 C38 1_555 1_555
C40 C39 1_555 1_555
H30 C40 1_555 1_555
C41 N12 1_555 1_555
H31 C41 1_555 1_555
Cu9 N12 1_555 1_555
C38 C39 1_555 1_555
C40 C41 1_555 1_555
N14 C47 1_555 1_555
C47 H36 1_555 1_555
C48 C47 1_555 1_555
C50 C49 1_555 1_555
C51 N14 1_555 1_555
H39 C51 1_555 1_555
Cu8 N14 1_555 1_555
C48 C49 1_555 1_555
C50 C51 1_555 1_555
N13 C42 1_555 1_555
C42 H32 1_555 1_555
C43 C42 1_555 1_555
C45 C44 1_555 1_555
H34 C45 1_555 1_555
C46 N13 1_555 1_555
H35 C46 1_555 1_555
N15 N16 1_555 1_555
N16 C52 1_555 1_555
C52 H40 1_555 1_555
C54 N15 1_555 1_555
H41 C54 1_555 1_555
N17 N18 1_555 1_555
Cu7 N17 1_555 1_555
Cu8 N15 1_555 1_555
Cu9 N13 1_555 1_555
O8 Cu7 1_555 1_555
H44 O8 1_555 1_555
N19 Cu9 1_555 1_555
N20 Cu7 1_555 1_555
S3 O9 1_555 1_555
S4 O12 1_555 1_555
C58 N20 1_555 1_555
H45 C58 1_555 1_555
C59 C58 1_555 1_555
C60 N19 1_555 1_555
H46 C60 1_555 1_555
Cl6 C59 1_555 1_555
O9 Cu7 1_555 1_555
O10 S3 1_555 1_555
O11 Cu8 1_555 1_555
O13 Cu8 1_555 1_555
O14 S4 1_555 1_555
C61 S3 1_555 1_555
C62 S4 1_555 1_555
F12 C62 1_555 1_555
C43 C44 1_555 1_555
C45 C46 1_555 1_555
N16 Cu9 1_555 1_555
N18 Cu8 1_555 1_555
Cu8 O8 1_555 1_555
Cu9 O8 1_555 1_555
N19 N20 1_555 1_555
S3 O11 1_555 1_555
S4 O13 1_555 1_555
C59 C60 1_555 1_555
N1 C1 1_555 1_555
C1 H1 1_555 1_555
C2 C1 1_555 1_555
H2 C2 1_555 1_555
C3 C2 1_555 1_555
C4 C3 1_555 1_555
H3 C4 1_555 1_555
C5 N1 1_555 1_555
H4 C5 1_555 1_555
N2 C6 1_555 1_555
C6 H5 1_555 1_555
C7 C6 1_555 1_555
H6 C7 1_555 1_555
C8 C7 1_555 1_555
C9 C8 1_555 1_555
H7 C9 1_555 1_555
C10 N2 1_555 1_555
H8 C10 1_555 1_555
N3 C11 1_555 1_555
C11 H9 1_555 1_555
C12 C11 1_555 1_555
C13 C12 1_555 1_555
C14 C13 1_555 1_555
H11 C14 1_555 1_555
C15 N3 1_555 1_555
H12 C15 1_555 1_555
N4 N5 1_555 1_555
N5 C16 1_555 1_555
C16 H13 1_555 1_555
C18 N4 1_555 1_555
H14 C18 1_555 1_555
N6 N7 1_555 1_555
Cu1 N1 1_555 1_555
Cu2 N4 1_555 1_555
Cu3 N2 1_555 1_555
O1 Cu1 1_555 1_555
H17 O1 1_555 1_555
N8 Cu3 1_555 1_555
N9 Cu1 1_555 1_555
N10 Cu2 1_555 1_555
S1 O2 1_555 1_555
S2 O5 1_555 1_555
C22 N9 1_555 1_555
H18 C22 1_555 1_555
C23 C22 1_555 1_555
C24 N8 1_555 1_555
H19 C24 1_555 1_555
C25 N10 1_555 1_555
H20 C25 1_555 1_555
C26 C25 1_555 1_555
C27 C26 1_555 1_555
C28 C27 1_555 1_555
C29 N10 1_555 1_555
H23 C29 1_555 1_555
Cl3 C23 1_555 1_555
O2 Cu1 1_555 1_555
O3 S1 1_555 1_555
O4 Cu2 1_555 1_555
O6 Cu2 1_555 1_555
O7 S2 1_555 1_555
C30 S1 1_555 1_555
C31 S2 1_555 1_555
F6 C31 1_555 1_555
C4 C5 1_555 1_555
C9 C10 1_555 1_555
N3 Cu3 1_555 1_555
C14 C15 1_555 1_555
N5 Cu3 1_555 1_555
N6 Cu1 1_555 1_555
N7 Cu2 1_555 1_555
Cu2 O1 1_555 1_555
Cu3 O1 1_555 1_555
N8 N9 1_555 1_555
S1 O4 1_555 1_555
S2 O6 1_555 1_555
C23 C24 1_555 1_555
C28 C29 1_555 1_555
C19 H15 1_555 1_555
C20 C19 1_555 1_555
H16 C21 1_555 1_555
Cl1 C20 1_555 1_555
C20 C21 1_555 1_555
C55 H42 1_555 1_555
C56 C55 1_555 1_555
H43 C57 1_555 1_555
Cl4 C56 1_555 1_555
C56 C57 1_555 1_555

#END
