
###############################################################################
#
# This file contains modified crystal structure data generated from the
# MOF subset of the Cambridge Structural Database (CSD) v543 
# hosted by the Cambridge Crystallographic Data Centre (CCDC).
#
# This work is licensed under the Creative Commons
# Attribution-NonCommercial-ShareAlike 4.0 International License.
# To view a copy of this license, visit
# http://creativecommons.org/licenses/by-nc-sa/4.0/
# or send a letter to
# Creative Commons, PO Box 1866, Mountain View, CA 94042, USA.
#
# CIF created using the CSD Python API on 29 September 2022
# The structure has been converted into the P1 space group
# The structure has a 3D framework
# The original CSD entry BIFNOW is in the hexagonal crystal system
# The framework has been calculated to contain at least 10.0% void space
# The void calculation uses a probe of radius 1.32A, grid spacing 0.4
# The framework is charged, counterions have been retained in the structure
# H atom positions have been added when not included in the experimental data
#
###############################################################################

data_BIFNOW
_chemical_formula_moiety         '(C60 H96 N24 O120 Th26 17+)n'
_symmetry_cell_setting           triclinic
_symmetry_space_group_name_H-M   'P 1'
_symmetry_Int_Tables_number      1
_space_group_name_Hall           'P 1'
loop_
_symmetry_equiv_pos_site_id
_symmetry_equiv_pos_as_xyz
1 x,y,z
_cell_length_a                   19.4484(13)
_cell_length_b                   19.4484(13)
_cell_length_c                   12.9293(7)
_cell_angle_alpha                90
_cell_angle_beta                 90
_cell_angle_gamma                120
_cell_volume                     4235.19
loop_
_atom_site_label
_atom_site_type_symbol
_atom_site_fract_x
_atom_site_fract_y
_atom_site_fract_z
Th5 Th 0.33304(5) 0.33304(5) 0.0000
Th1 Th 0.33304(5) 0.33304(5) 0.5000
O1 O 0.3374(7) 0.4066(7) 0.6628(9)
O2 O 0.3118(7) 0.2583(7) 0.6628(9)
O3 O 0.1892(6) 0.2627(6) 0.5470(9)
O4 O 0.2644(6) 0.4148(6) 0.4892(8)
O5 O 0.4134(7) 0.4708(7) 0.4275(10)
C1 C 0.3260(16) 0.3718(15) 0.7500
C2 C 0.3159(14) 0.2897(14) 0.7500
C3 C 0.1474(7) 0.2948(14) 0.5357(19)
C4 C 0.1924(7) 0.3848(14) 0.499(2)
C5 C 0.4844(7) 0.5156(7) 0.461(2)
O6 O 0.3374(7) 0.4066(7) 0.8372(9)
O7 O 0.3118(7) 0.2583(7) 0.8372(9)
O8 O 0.0735(8) 0.2627(6) 0.5470(9)
O9 O 0.1504(8) 0.4148(6) 0.4892(8)
O10 O 0.4708(7) 0.4134(7) 0.5725(10)
C6 C 0.5156(7) 0.4844(7) 0.539(2)
O11 O 0.5866(7) 0.5292(7) 0.5725(10)
O12 O 0.5292(7) 0.5866(7) 0.4275(10)
O13 O 0.2627(6) 0.1892(6) 0.4530(9)
O14 O 0.4148(6) 0.2644(6) 0.5108(8)
C7 C 0.2948(14) 0.1474(7) 0.4643(19)
C8 C 0.3848(14) 0.1924(7) 0.501(2)
O15 O 0.2627(6) 0.0735(8) 0.4530(9)
O16 O 0.4148(6) 0.1504(8) 0.5108(8)
Th2 Th 0.66696(5) 0.66696(5) 0.5000
O17 O 0.4066(7) 0.3374(7) 0.3372(9)
O18 O 0.2583(7) 0.3118(7) 0.3372(9)
C9 C 0.3718(15) 0.3260(16) 0.2500
C10 C 0.2897(14) 0.3159(14) 0.2500
O19 O 0.4066(7) 0.3374(7) 0.1628(9)
O20 O 0.2583(7) 0.3118(7) 0.1628(9)
Th3 Th 0.33304(5) 0.00000(7) 0.5000
Th5_2 Th 0.33304(5) 0.33304(5) 1.0000
Th6 Th 0.00000(7) 0.33304(5) 0.5000
O21 O 0.6626(7) 0.5934(7) 0.3372(9)
O22 O 0.5934(7) 0.6626(7) 0.6628(9)
O23 O 0.6882(7) 0.7417(7) 0.3372(9)
O24 O 0.7417(7) 0.6882(7) 0.6628(9)
O25 O 0.8108(6) 0.7373(6) 0.4530(9)
O26 O 0.7373(6) 0.8108(6) 0.5470(9)
O27 O 0.7356(6) 0.5852(6) 0.5108(8)
O28 O 0.5852(6) 0.7356(6) 0.4892(8)
Th3_2 Th 0.33304(5) 1.00000(7) 0.5000
Th6_2 Th 1.00000(7) 0.33304(5) 0.5000
Th1_2 Th 0.00000(7) 0.33304(5) 0.0000
O2_2 O 0.0535(10) 0.3118(7) 0.1628(9)
C2_2 C 0.0262(20) 0.3159(14) 0.2500
O7_2 O 0.0535(10) 0.3118(7) 0.3372(9)
O10_2 O 0.0574(10) 0.4708(7) 0.0725(10)
C6_2 C 0.0312(10) 0.5156(7) 0.039(2)
O11_2 O 0.0574(10) 0.5866(7) 0.0725(10)
O14_2 O 0.1504(8) 0.4148(6) 0.0108(8)
C8_2 C 0.1924(16) 0.3848(14) 0.001(2)
O16_2 O 0.2644(10) 0.4148(6) 0.0108(8)
Th2_2 Th 0.00000(7) 0.66696(5) 0.0000
O24_2 O 0.0535(10) 0.7417(7) 0.1628(9)
O27_2 O 0.1504(8) 0.7356(6) 0.0108(8)
Th1_3 Th 0.00000(7) 0.33304(5) 1.0000
O13_2 O 0.0735(8) 0.2627(6) 0.9530(9)
C7_2 C 0.1474(16) 0.2948(14) 0.9643(19)
O15_2 O 0.1892(10) 0.2627(6) 0.9530(9)
Th2_3 Th 0.00000(7) 0.66696(5) 1.0000
O17_2 O 0.0692(10) 0.4066(7) 0.8372(9)
C9_2 C 0.0458(22) 0.3718(15) 0.7500
O19_2 O 0.0692(10) 0.4066(7) 0.6628(9)
O21_2 O 0.0692(10) 0.6626(7) 0.8372(9)
O25_2 O 0.0735(8) 0.8108(6) 0.9530(9)
Th1_4 Th 1.00000(7) 0.33304(5) 0.0000
O1_2 O 0.9308(10) 0.3374(7) 0.1628(9)
O3_2 O 0.9265(8) 0.1892(6) 0.0470(9)
C1_2 C 0.9542(22) 0.3260(16) 0.2500
C3_2 C 0.8526(16) 0.1474(7) 0.0357(19)
O6_2 O 0.9308(10) 0.3374(7) 0.3372(9)
O8_2 O 0.8108(10) 0.0735(8) 0.0470(9)
Th2_4 Th 1.00000(7) 0.66696(5) 0.0000
Th6_3 Th 0.66696(9) 0.00000(7) 0.0000
O22_2 O 0.9308(10) 0.5934(7) 0.1628(9)
O26_2 O 0.9265(8) 0.7373(6) 0.0470(9)
Th1_5 Th 1.00000(7) 0.33304(5) 1.0000
O4_2 O 0.8496(8) 0.2644(6) 0.9892(8)
O5_2 O 0.9426(10) 0.4134(7) 0.9275(10)
C4_2 C 0.8076(16) 0.1924(7) 0.999(2)
C5_2 C 0.9688(10) 0.4844(7) 0.961(2)
O9_2 O 0.7356(10) 0.1504(8) 0.9892(8)
O12_2 O 0.9426(10) 0.5292(7) 0.9275(10)
Th2_5 Th 1.00000(7) 0.66696(5) 1.0000
O18_2 O 0.9465(10) 0.2583(7) 0.8372(9)
C10_2 C 0.9738(20) 0.2897(14) 0.7500
O20_2 O 0.9465(10) 0.2583(7) 0.6628(9)
Th6_4 Th 0.66696(9) 0.00000(7) 1.0000
O23_2 O 0.9465(10) 0.6882(7) 0.8372(9)
O28_2 O 0.8496(8) 0.5852(6) 0.9892(8)
Th6_5 Th 0.66696(9) 1.00000(7) 0.0000
Th6_6 Th 0.66696(9) 1.00000(7) 1.0000
Th1_6 Th 0.66696(5) 0.00000(7) 0.5000
O2_3 O 0.7417(7) 0.0535(10) 0.6628(9)
C2_3 C 0.7103(14) 0.0262(20) 0.7500
O7_3 O 0.7417(7) 0.0535(10) 0.8372(9)
O10_3 O 0.5866(7) 0.0574(10) 0.5725(10)
C6_3 C 0.5156(7) 0.0312(10) 0.539(2)
O11_3 O 0.4708(7) 0.0574(10) 0.5725(10)
O13_3 O 0.8108(6) 0.0735(8) 0.4530(9)
O14_3 O 0.7356(6) 0.1504(8) 0.5108(8)
C7_3 C 0.8526(7) 0.1474(16) 0.4643(19)
C8_3 C 0.8076(7) 0.1924(16) 0.501(2)
O15_3 O 0.9265(8) 0.1892(10) 0.4530(9)
O16_3 O 0.8496(8) 0.2644(10) 0.5108(8)
O17_3 O 0.6626(7) 0.0692(10) 0.3372(9)
C9_3 C 0.6740(16) 0.0458(22) 0.2500
O19_3 O 0.6626(7) 0.0692(10) 0.1628(9)
O21_3 O 0.4066(7) 0.0692(10) 0.3372(9)
O24_3 O 0.3118(7) 0.0535(10) 0.6628(9)
Th1_7 Th 0.66696(5) 1.00000(7) 0.5000
O1_3 O 0.5934(7) 0.9308(10) 0.6628(9)
O3_3 O 0.7373(6) 0.9265(8) 0.5470(9)
O4_3 O 0.5852(6) 0.8496(8) 0.4892(8)
O5_3 O 0.5292(7) 0.9426(10) 0.4275(10)
C1_3 C 0.6282(15) 0.9542(22) 0.7500
C3_3 C 0.7052(14) 0.8526(16) 0.5357(19)
C4_3 C 0.6152(14) 0.8076(16) 0.499(2)
C5_3 C 0.4844(7) 0.9688(10) 0.461(2)
O6_3 O 0.5934(7) 0.9308(10) 0.8372(9)
O12_3 O 0.4134(7) 0.9426(10) 0.4275(10)
O18_3 O 0.6882(7) 0.9465(10) 0.3372(9)
C10_3 C 0.6841(14) 0.9738(20) 0.2500
O20_3 O 0.6882(7) 0.9465(10) 0.1628(9)
O22_3 O 0.3374(7) 0.9308(10) 0.6628(9)
O23_3 O 0.2583(7) 0.9465(10) 0.3372(9)
O26_3 O 0.1892(6) 0.9265(8) 0.5470(9)
O28_3 O 0.2644(6) 0.8496(8) 0.4892(8)
Th1_8 Th 0.66696(5) 0.66696(5) 0.0000
O1_4 O 0.6626(7) 0.5934(7) 0.1628(9)
O2_4 O 0.6882(7) 0.7417(7) 0.1628(9)
O3_4 O 0.8108(6) 0.7373(6) 0.0470(9)
C1_4 C 0.6740(16) 0.6282(15) 0.2500
C2_4 C 0.6841(14) 0.7103(14) 0.2500
C3_4 C 0.8526(7) 0.7052(14) 0.0357(19)
O10_4 O 0.5292(7) 0.5866(7) 0.0725(10)
C6_4 C 0.4844(7) 0.5156(7) 0.039(2)
O11_4 O 0.4134(7) 0.4708(7) 0.0725(10)
O14_4 O 0.5852(6) 0.7356(6) 0.0108(8)
C8_4 C 0.6152(14) 0.8076(7) 0.001(2)
O16_4 O 0.5852(6) 0.8496(8) 0.0108(8)
O26_4 O 0.2627(6) 0.1892(6) 0.0470(9)
Th1_9 Th 0.66696(5) 0.66696(5) 1.0000
O4_4 O 0.7356(6) 0.5852(6) 0.9892(8)
O5_4 O 0.5866(7) 0.5292(7) 0.9275(10)
C4_4 C 0.8076(7) 0.6152(14) 0.999(2)
C5_4 C 0.5156(7) 0.4844(7) 0.961(2)
O12_4 O 0.4708(7) 0.4134(7) 0.9275(10)
O13_4 O 0.7373(6) 0.8108(6) 0.9530(9)
C7_4 C 0.7052(14) 0.8526(7) 0.9643(19)
O15_4 O 0.7373(6) 0.9265(8) 0.9530(9)
O17_4 O 0.5934(7) 0.6626(7) 0.8372(9)
O18_4 O 0.7417(7) 0.6882(7) 0.8372(9)
C9_4 C 0.6282(15) 0.6740(16) 0.7500
C10_4 C 0.7103(14) 0.6841(14) 0.7500
O28_4 O 0.4148(6) 0.2644(6) 0.9892(8)
Th1_10 Th -0.00000(7) 0.66696(5) 0.5000
O1_5 O 0.0692(10) 0.6626(7) 0.6628(9)
O3_5 O 0.0735(8) 0.8108(6) 0.5470(9)
O4_5 O 0.1504(8) 0.7356(6) 0.4892(8)
O5_5 O 0.0574(10) 0.5866(7) 0.4275(10)
C1_5 C 0.0458(22) 0.6740(16) 0.7500
C3_5 C 0.1474(16) 0.8526(7) 0.5357(19)
C4_5 C 0.1924(16) 0.8076(7) 0.499(2)
C5_5 C 0.0312(10) 0.5156(7) 0.461(2)
O12_5 O 0.0574(10) 0.4708(7) 0.4275(10)
O18_5 O 0.0535(10) 0.7417(7) 0.3372(9)
C10_5 C 0.0262(20) 0.7103(14) 0.2500
Th1_11 Th 1.00000(7) 0.66696(5) 0.5000
O2_5 O 0.9465(10) 0.6882(7) 0.6628(9)
C2_5 C 0.9738(20) 0.6841(14) 0.7500
O10_5 O 0.9426(10) 0.5292(7) 0.5725(10)
C6_5 C 0.9688(10) 0.4844(7) 0.539(2)
O11_5 O 0.9426(10) 0.4134(7) 0.5725(10)
O13_5 O 0.9265(8) 0.7373(6) 0.4530(9)
O14_5 O 0.8496(8) 0.5852(6) 0.5108(8)
C7_5 C 0.8526(16) 0.7052(14) 0.4643(19)
C8_5 C 0.8076(16) 0.6152(14) 0.501(2)
O17_5 O 0.9308(10) 0.5934(7) 0.3372(9)
C9_5 C 0.9542(22) 0.6282(15) 0.2500
Th1_12 Th 0.33304(5) -0.00000(7) 0.0000
O1_6 O 0.4066(7) 0.0692(10) 0.1628(9)
O3_6 O 0.2627(6) 0.0735(8) 0.0470(9)
C1_6 C 0.3718(15) 0.0458(22) 0.2500
C3_6 C 0.2948(14) 0.1474(16) 0.0357(19)
Th1_13 Th 0.33304(5) -0.00000(7) 1.0000
O4_6 O 0.4148(6) 0.1504(8) 0.9892(8)
O5_6 O 0.4708(7) 0.0574(10) 0.9275(10)
C4_6 C 0.3848(14) 0.1924(16) 0.999(2)
C5_6 C 0.5156(7) 0.0312(10) 0.961(2)
O12_6 O 0.5866(7) 0.0574(10) 0.9275(10)
O18_6 O 0.3118(7) 0.0535(10) 0.8372(9)
C10_6 C 0.3159(14) 0.0262(20) 0.7500
Th1_14 Th 0.33304(5) 1.00000(7) 0.0000
O2_6 O 0.2583(7) 0.9465(10) 0.1628(9)
C2_6 C 0.2897(14) 0.9738(20) 0.2500
O10_6 O 0.4134(7) 0.9426(10) 0.0725(10)
C6_6 C 0.4844(7) 0.9688(10) 0.039(2)
O11_6 O 0.5292(7) 0.9426(10) 0.0725(10)
O14_6 O 0.2644(6) 0.8496(8) 0.0108(8)
C8_6 C 0.1924(7) 0.8076(16) 0.001(2)
Th1_15 Th 0.33304(5) 1.00000(7) 1.0000
O13_6 O 0.1892(6) 0.9265(8) 0.9530(9)
C7_6 C 0.1474(7) 0.8526(16) 0.9643(19)
O17_6 O 0.3374(7) 0.9308(10) 0.8372(9)
C9_6 C 0.3260(16) 0.9542(22) 0.7500
N1 N 0.349(2) 0.557(2) 0.663(3)
H1 H 0.401189 0.557 0.663
H2 H 0.356206 0.606205 0.625993
H3 H 0.307001 0.507795 0.625993
H4 H 0.331604 0.557 0.737014
N1_2 N 0.792(3) 0.349(2) 0.163(3)
H1_2 H 0.844189 0.401189 0.163
H2_2 H 0.750001 0.356206 0.125993
H3_2 H 0.799206 0.307001 0.125993
H4_2 H 0.774604 0.331604 0.237014
N1_3 N 0.443(2) 0.792(3) 0.663(3)
H1_3 H 0.443 0.844189 0.663
H2_3 H 0.393795 0.750001 0.625993
H3_3 H 0.492205 0.799206 0.625993
H4_3 H 0.443 0.774604 0.737014
N1_4 N 0.651(2) 0.443(2) 0.163(3)
H1_4 H 0.598811 0.443 0.163
H2_4 H 0.643794 0.393795 0.125993
H3_4 H 0.692999 0.492205 0.125993
H4_4 H 0.668396 0.443 0.237014
N1_5 N 0.208(3) 0.651(2) 0.663(3)
H1_5 H 0.155811 0.598811 0.663
H2_5 H 0.249999 0.643794 0.625993
H3_5 H 0.200794 0.692999 0.625993
H4_5 H 0.225396 0.668396 0.737014
N1_6 N 0.557(2) 0.208(3) 0.163(3)
H1_6 H 0.557 0.155811 0.163
H2_6 H 0.606205 0.249999 0.125993
H3_6 H 0.507795 0.200794 0.125993
H4_6 H 0.557 0.225396 0.237014
N1_7 N 0.792(3) 0.443(2) 0.337(3)
H1_7 H 0.844189 0.443 0.337
H2_7 H 0.750001 0.393795 0.374007
H3_7 H 0.799206 0.492205 0.374007
H4_7 H 0.774604 0.443 0.262986
N1_8 N 0.651(2) 0.208(3) 0.337(3)
H1_8 H 0.598811 0.155811 0.337
H2_8 H 0.643794 0.249999 0.374007
H3_8 H 0.692999 0.200794 0.374007
H4_8 H 0.668396 0.225396 0.262986
N1_9 N 0.557(2) 0.349(2) 0.337(3)
H1_9 H 0.557 0.401189 0.337
H2_9 H 0.606205 0.356206 0.374007
H3_9 H 0.507795 0.307001 0.374007
H4_9 H 0.557 0.331604 0.262986
N1_10 N 0.443(2) 0.651(2) 0.837(3)
H1_10 H 0.443 0.598811 0.837
H2_10 H 0.393795 0.643794 0.874007
H3_10 H 0.492205 0.692999 0.874007
H4_10 H 0.443 0.668396 0.762986
N1_11 N 0.208(3) 0.557(2) 0.837(3)
H1_11 H 0.155811 0.557 0.837
H2_11 H 0.249999 0.606205 0.874007
H3_11 H 0.200794 0.507795 0.874007
H4_11 H 0.225396 0.557 0.762986
N1_12 N 0.349(2) 0.792(3) 0.837(3)
H1_12 H 0.401189 0.844189 0.837
H2_12 H 0.356206 0.750001 0.874007
H3_12 H 0.307001 0.799206 0.874007
H4_12 H 0.331604 0.774604 0.762986
N1_13 N 0.651(2) 0.443(2) 0.337(3)
H1_13 H 0.598811 0.443 0.337
H2_13 H 0.643794 0.393795 0.374007
H3_13 H 0.692999 0.492205 0.374007
H4_13 H 0.668396 0.443 0.262986
N1_14 N 0.208(3) 0.651(2) 0.837(3)
H1_14 H 0.155811 0.598811 0.837
H2_14 H 0.249999 0.643794 0.874007
H3_14 H 0.200794 0.692999 0.874007
H4_14 H 0.225396 0.668396 0.762986
N1_15 N 0.557(2) 0.208(3) 0.337(3)
H1_15 H 0.557 0.155811 0.337
H2_15 H 0.606205 0.249999 0.374007
H3_15 H 0.507795 0.200794 0.374007
H4_15 H 0.557 0.225396 0.262986
N1_16 N 0.349(2) 0.557(2) 0.837(3)
H1_16 H 0.401189 0.557 0.837
H2_16 H 0.356206 0.606205 0.874007
H3_16 H 0.307001 0.507795 0.874007
H4_16 H 0.331604 0.557 0.762986
N1_17 N 0.792(3) 0.349(2) 0.337(3)
H1_17 H 0.844189 0.401189 0.337
H2_17 H 0.750001 0.356206 0.374007
H3_17 H 0.799206 0.307001 0.374007
H4_17 H 0.774604 0.331604 0.262986
N1_18 N 0.443(2) 0.792(3) 0.837(3)
H1_18 H 0.443 0.844189 0.837
H2_18 H 0.393795 0.750001 0.874007
H3_18 H 0.492205 0.799206 0.874007
H4_18 H 0.443 0.774604 0.762986
N1_19 N 0.208(3) 0.557(2) 0.663(3)
H1_19 H 0.155811 0.557 0.663
H2_19 H 0.249999 0.606205 0.625993
H3_19 H 0.200794 0.507795 0.625993
H4_19 H 0.225396 0.557 0.737014
N1_20 N 0.349(2) 0.792(3) 0.663(3)
H1_20 H 0.401189 0.844189 0.663
H2_20 H 0.356206 0.750001 0.625993
H3_20 H 0.307001 0.799206 0.625993
H4_20 H 0.331604 0.774604 0.737014
N1_21 N 0.443(2) 0.651(2) 0.663(3)
H1_21 H 0.443 0.598811 0.663
H2_21 H 0.393795 0.643794 0.625993
H3_21 H 0.492205 0.692999 0.625993
H4_21 H 0.443 0.668396 0.737014
N1_22 N 0.557(2) 0.349(2) 0.163(3)
H1_22 H 0.557 0.401189 0.163
H2_22 H 0.606205 0.356206 0.125993
H3_22 H 0.507795 0.307001 0.125993
H4_22 H 0.557 0.331604 0.237014
N1_23 N 0.792(3) 0.443(2) 0.163(3)
H1_23 H 0.844189 0.443 0.163
H2_23 H 0.750001 0.393795 0.125993
H3_23 H 0.799206 0.492205 0.125993
H4_23 H 0.774604 0.443 0.237014
N1_24 N 0.651(2) 0.208(3) 0.163(3)
H1_24 H 0.598811 0.155811 0.163
H2_24 H 0.643794 0.249999 0.125993
H3_24 H 0.692999 0.200794 0.125993
H4_24 H 0.668396 0.225396 0.237014
loop_
_geom_bond_atom_site_label_1
_geom_bond_atom_site_label_2
_geom_bond_site_symmetry_1
_geom_bond_site_symmetry_2
Th1 O1 1_555 1_555
O1 C1 1_555 1_555
O2 Th1 1_555 1_555
O3 Th1 1_555 1_555
O4 Th1 1_555 1_555
O5 Th1 1_555 1_555
C1 C2 1_555 1_555
C2 O2 1_555 1_555
C3 O3 1_555 1_555
C4 O4 1_555 1_555
C5 O5 1_555 1_555
O6 C1 1_555 1_555
O7 C2 1_555 1_555
O8 C3 1_555 1_555
O9 C4 1_555 1_555
O10 Th1 1_555 1_555
C6 C5 1_555 1_555
O11 C6 1_555 1_555
O12 C5 1_555 1_555
O13 Th1 1_555 1_555
O14 Th1 1_555 1_555
C7 O13 1_555 1_555
C8 O14 1_555 1_555
O15 C7 1_555 1_555
O16 C8 1_555 1_555
Th2 O11 1_555 1_555
O17 Th1 1_555 1_555
O18 Th1 1_555 1_555
C9 O17 1_555 1_555
C10 O18 1_555 1_555
O19 C9 1_555 1_555
O20 C10 1_555 1_555
Th3 O15 1_555 1_555
Th5 O19 1_555 1_555
Th5_2 O6 1_555 1_555
Th6 O8 1_555 1_555
O21 Th2 1_555 1_555
O22 Th2 1_555 1_555
O23 Th2 1_555 1_555
O24 Th2 1_555 1_555
O25 Th2 1_555 1_555
O26 Th2 1_555 1_555
O27 Th2 1_555 1_555
O28 Th2 1_555 1_555
C3 C4 1_555 1_555
O7 Th5_2 1_555 1_555
O9 Th6 1_555 1_555
O10 C6 1_555 1_555
O12 Th2 1_555 1_555
C7 C8 1_555 1_555
O16 Th3 1_555 1_555
C9 C10 1_555 1_555
O20 Th5 1_555 1_555
O2_2 Th1_2 1_555 1_555
C2_2 O2_2 1_555 1_555
O7_2 C2_2 1_555 1_555
O10_2 Th1_2 1_555 1_555
O11_2 C6_2 1_555 1_555
O14_2 Th1_2 1_555 1_555
C8_2 O14_2 1_555 1_555
O16_2 C8_2 1_555 1_555
Th2_2 O11_2 1_555 1_555
O24_2 Th2_2 1_555 1_555
O27_2 Th2_2 1_555 1_555
O7_2 Th6 1_555 1_555
O10_2 C6_2 1_555 1_555
O16_2 Th5 1_555 1_555
O13_2 Th1_3 1_555 1_555
C7_2 O13_2 1_555 1_555
O15_2 C7_2 1_555 1_555
O17_2 Th1_3 1_555 1_555
C9_2 O17_2 1_555 1_555
O19_2 C9_2 1_555 1_555
Th5_2 O15_2 1_555 1_555
Th6 O19_2 1_555 1_555
O21_2 Th2_3 1_555 1_555
O25_2 Th2_3 1_555 1_555
Th1_4 O1_2 1_555 1_555
O1_2 C1_2 1_555 1_555
O3_2 Th1_4 1_555 1_555
C3_2 O3_2 1_555 1_555
O6_2 C1_2 1_555 1_555
O8_2 C3_2 1_555 1_555
Th6_2 O6_2 1_555 1_555
Th6_3 O8_2 1_555 1_555
O22_2 Th2_4 1_555 1_555
O26_2 Th2_4 1_555 1_555
O4_2 Th1_5 1_555 1_555
O5_2 Th1_5 1_555 1_555
C4_2 O4_2 1_555 1_555
C5_2 O5_2 1_555 1_555
O9_2 C4_2 1_555 1_555
O12_2 C5_2 1_555 1_555
O18_2 Th1_5 1_555 1_555
C10_2 O18_2 1_555 1_555
O20_2 C10_2 1_555 1_555
O23_2 Th2_5 1_555 1_555
O28_2 Th2_5 1_555 1_555
O9_2 Th6_4 1_555 1_555
O12_2 Th2_5 1_555 1_555
O20_2 Th6_2 1_555 1_555
O2_3 Th1_6 1_555 1_555
C2_3 O2_3 1_555 1_555
O7_3 C2_3 1_555 1_555
O10_3 Th1_6 1_555 1_555
O11_3 C6_3 1_555 1_555
O13_3 Th1_6 1_555 1_555
O14_3 Th1_6 1_555 1_555
C7_3 O13_3 1_555 1_555
C8_3 O14_3 1_555 1_555
O15_3 C7_3 1_555 1_555
O16_3 C8_3 1_555 1_555
Th3 O11_3 1_555 1_555
O17_3 Th1_6 1_555 1_555
C9_3 O17_3 1_555 1_555
O19_3 C9_3 1_555 1_555
Th6_2 O15_3 1_555 1_555
Th6_3 O19_3 1_555 1_555
O21_3 Th3 1_555 1_555
O24_3 Th3 1_555 1_555
O7_3 Th6_4 1_555 1_555
O10_3 C6_3 1_555 1_555
C7_3 C8_3 1_555 1_555
O16_3 Th6_2 1_555 1_555
Th1_7 O1_3 1_555 1_555
O1_3 C1_3 1_555 1_555
O3_3 Th1_7 1_555 1_555
O4_3 Th1_7 1_555 1_555
O5_3 Th1_7 1_555 1_555
C3_3 O3_3 1_555 1_555
C4_3 O4_3 1_555 1_555
C5_3 O5_3 1_555 1_555
O6_3 C1_3 1_555 1_555
O26 C3_3 1_555 1_555
O28 C4_3 1_555 1_555
O12_3 C5_3 1_555 1_555
O18_3 Th1_7 1_555 1_555
C10_3 O18_3 1_555 1_555
O20_3 C10_3 1_555 1_555
Th6_6 O6_3 1_555 1_555
O22_3 Th3_2 1_555 1_555
O23_3 Th3_2 1_555 1_555
O26_3 Th3_2 1_555 1_555
O28_3 Th3_2 1_555 1_555
C3_3 C4_3 1_555 1_555
O12_3 Th3_2 1_555 1_555
O20_3 Th6_5 1_555 1_555
Th1_8 O1_4 1_555 1_555
O1_4 C1_4 1_555 1_555
O2_4 Th1_8 1_555 1_555
O3_4 Th1_8 1_555 1_555
C1_4 C2_4 1_555 1_555
C2_4 O2_4 1_555 1_555
C3_4 O3_4 1_555 1_555
O21 C1_4 1_555 1_555
O23 C2_4 1_555 1_555
O26_2 C3_4 1_555 1_555
O10_4 Th1_8 1_555 1_555
O11_4 C6_4 1_555 1_555
O14_4 Th1_8 1_555 1_555
C8_4 O14_4 1_555 1_555
O16_4 C8_4 1_555 1_555
Th5 O11_4 1_555 1_555
O26_4 Th5 1_555 1_555
O10_4 C6_4 1_555 1_555
O16_4 Th6_5 1_555 1_555
O4_4 Th1_9 1_555 1_555
O5_4 Th1_9 1_555 1_555
C4_4 O4_4 1_555 1_555
C5_4 O5_4 1_555 1_555
O28_2 C4_4 1_555 1_555
O12_4 C5_4 1_555 1_555
O13_4 Th1_9 1_555 1_555
C7_4 O13_4 1_555 1_555
O15_4 C7_4 1_555 1_555
O17_4 Th1_9 1_555 1_555
O18_4 Th1_9 1_555 1_555
C9_4 O17_4 1_555 1_555
C10_4 O18_4 1_555 1_555
O22 C9_4 1_555 1_555
O24 C10_4 1_555 1_555
Th6_6 O15_4 1_555 1_555
O28_4 Th5_2 1_555 1_555
O12_4 Th5_2 1_555 1_555
C9_4 C10_4 1_555 1_555
Th1_10 O1_5 1_555 1_555
O1_5 C1_5 1_555 1_555
O3_5 Th1_10 1_555 1_555
O4_5 Th1_10 1_555 1_555
O5_5 Th1_10 1_555 1_555
C3_5 O3_5 1_555 1_555
C4_5 O4_5 1_555 1_555
C5_5 O5_5 1_555 1_555
O21_2 C1_5 1_555 1_555
O26_3 C3_5 1_555 1_555
O28_3 C4_5 1_555 1_555
O12_5 C5_5 1_555 1_555
O18_5 Th1_10 1_555 1_555
C10_5 O18_5 1_555 1_555
O24_2 C10_5 1_555 1_555
C3_5 C4_5 1_555 1_555
O12_5 Th6 1_555 1_555
O2_5 Th1_11 1_555 1_555
C2_5 O2_5 1_555 1_555
O23_2 C2_5 1_555 1_555
O10_5 Th1_11 1_555 1_555
O11_5 C6_5 1_555 1_555
O13_5 Th1_11 1_555 1_555
O14_5 Th1_11 1_555 1_555
C7_5 O13_5 1_555 1_555
C8_5 O14_5 1_555 1_555
O25 C7_5 1_555 1_555
O27 C8_5 1_555 1_555
Th6_2 O11_5 1_555 1_555
O17_5 Th1_11 1_555 1_555
C9_5 O17_5 1_555 1_555
O22_2 C9_5 1_555 1_555
O10_5 C6_5 1_555 1_555
C7_5 C8_5 1_555 1_555
Th1_12 O1_6 1_555 1_555
O1_6 C1_6 1_555 1_555
O3_6 Th1_12 1_555 1_555
C3_6 O3_6 1_555 1_555
O21_3 C1_6 1_555 1_555
O26_4 C3_6 1_555 1_555
O4_6 Th1_13 1_555 1_555
O5_6 Th1_13 1_555 1_555
C4_6 O4_6 1_555 1_555
C5_6 O5_6 1_555 1_555
O28_4 C4_6 1_555 1_555
O12_6 C5_6 1_555 1_555
O18_6 Th1_13 1_555 1_555
C10_6 O18_6 1_555 1_555
O24_3 C10_6 1_555 1_555
O12_6 Th6_4 1_555 1_555
O2_6 Th1_14 1_555 1_555
C2_6 O2_6 1_555 1_555
O23_3 C2_6 1_555 1_555
O10_6 Th1_14 1_555 1_555
O11_6 C6_6 1_555 1_555
O14_6 Th1_14 1_555 1_555
C8_6 O14_6 1_555 1_555
O27_2 C8_6 1_555 1_555
Th6_5 O11_6 1_555 1_555
O10_6 C6_6 1_555 1_555
O13_6 Th1_15 1_555 1_555
C7_6 O13_6 1_555 1_555
O25_2 C7_6 1_555 1_555
O17_6 Th1_15 1_555 1_555
C9_6 O17_6 1_555 1_555
O22_3 C9_6 1_555 1_555
N1 H1 1_555 1_555
N1 H2 1_555 1_555
N1 H3 1_555 1_555
N1 H4 1_555 1_555
N1_2 H1_2 1_555 1_555
N1_2 H2_2 1_555 1_555
N1_2 H3_2 1_555 1_555
N1_2 H4_2 1_555 1_555
N1_3 H1_3 1_555 1_555
N1_3 H2_3 1_555 1_555
N1_3 H3_3 1_555 1_555
N1_3 H4_3 1_555 1_555
N1_4 H1_4 1_555 1_555
N1_4 H2_4 1_555 1_555
N1_4 H3_4 1_555 1_555
N1_4 H4_4 1_555 1_555
N1_5 H1_5 1_555 1_555
N1_5 H2_5 1_555 1_555
N1_5 H3_5 1_555 1_555
N1_5 H4_5 1_555 1_555
N1_6 H1_6 1_555 1_555
N1_6 H2_6 1_555 1_555
N1_6 H3_6 1_555 1_555
N1_6 H4_6 1_555 1_555
N1_7 H1_7 1_555 1_555
N1_7 H2_7 1_555 1_555
N1_7 H3_7 1_555 1_555
N1_7 H4_7 1_555 1_555
N1_8 H1_8 1_555 1_555
N1_8 H2_8 1_555 1_555
N1_8 H3_8 1_555 1_555
N1_8 H4_8 1_555 1_555
N1_9 H1_9 1_555 1_555
N1_9 H2_9 1_555 1_555
N1_9 H3_9 1_555 1_555
N1_9 H4_9 1_555 1_555
N1_10 H1_10 1_555 1_555
N1_10 H2_10 1_555 1_555
N1_10 H3_10 1_555 1_555
N1_10 H4_10 1_555 1_555
N1_11 H1_11 1_555 1_555
N1_11 H2_11 1_555 1_555
N1_11 H3_11 1_555 1_555
N1_11 H4_11 1_555 1_555
N1_12 H1_12 1_555 1_555
N1_12 H2_12 1_555 1_555
N1_12 H3_12 1_555 1_555
N1_12 H4_12 1_555 1_555
N1_13 H1_13 1_555 1_555
N1_13 H2_13 1_555 1_555
N1_13 H3_13 1_555 1_555
N1_13 H4_13 1_555 1_555
N1_14 H1_14 1_555 1_555
N1_14 H2_14 1_555 1_555
N1_14 H3_14 1_555 1_555
N1_14 H4_14 1_555 1_555
N1_15 H1_15 1_555 1_555
N1_15 H2_15 1_555 1_555
N1_15 H3_15 1_555 1_555
N1_15 H4_15 1_555 1_555
N1_16 H1_16 1_555 1_555
N1_16 H2_16 1_555 1_555
N1_16 H3_16 1_555 1_555
N1_16 H4_16 1_555 1_555
N1_17 H1_17 1_555 1_555
N1_17 H2_17 1_555 1_555
N1_17 H3_17 1_555 1_555
N1_17 H4_17 1_555 1_555
N1_18 H1_18 1_555 1_555
N1_18 H2_18 1_555 1_555
N1_18 H3_18 1_555 1_555
N1_18 H4_18 1_555 1_555
N1_19 H1_19 1_555 1_555
N1_19 H2_19 1_555 1_555
N1_19 H3_19 1_555 1_555
N1_19 H4_19 1_555 1_555
N1_20 H1_20 1_555 1_555
N1_20 H2_20 1_555 1_555
N1_20 H3_20 1_555 1_555
N1_20 H4_20 1_555 1_555
N1_21 H1_21 1_555 1_555
N1_21 H2_21 1_555 1_555
N1_21 H3_21 1_555 1_555
N1_21 H4_21 1_555 1_555
N1_22 H1_22 1_555 1_555
N1_22 H2_22 1_555 1_555
N1_22 H3_22 1_555 1_555
N1_22 H4_22 1_555 1_555
N1_23 H1_23 1_555 1_555
N1_23 H2_23 1_555 1_555
N1_23 H3_23 1_555 1_555
N1_23 H4_23 1_555 1_555
N1_24 H1_24 1_555 1_555
N1_24 H2_24 1_555 1_555
N1_24 H3_24 1_555 1_555
N1_24 H4_24 1_555 1_555

#END
