
###############################################################################
#
# This file contains modified crystal structure data generated from the
# MOF subset of the Cambridge Structural Database (CSD) v543 
# hosted by the Cambridge Crystallographic Data Centre (CCDC).
#
# This work is licensed under the Creative Commons
# Attribution-NonCommercial-ShareAlike 4.0 International License.
# To view a copy of this license, visit
# http://creativecommons.org/licenses/by-nc-sa/4.0/
# or send a letter to
# Creative Commons, PO Box 1866, Mountain View, CA 94042, USA.
#
# CIF created using the CSD Python API on 29 September 2022
# The structure has been converted into the P1 space group
# The structure has a 3D framework
# The original CSD entry BIFPAK is in the monoclinic crystal system
# The framework has been calculated to contain at least 10.0% void space
# The void calculation uses a probe of radius 1.32A, grid spacing 0.4
# The framework is charged, counterions have been retained in the structure
# H atom positions have been added when not included in the experimental data
#
###############################################################################

data_BIFPAK
_chemical_formula_moiety         '(C36 H48 Ca4 N12 O71 Th4)n'
_symmetry_cell_setting           triclinic
_symmetry_space_group_name_H-M   'P 1'
_symmetry_Int_Tables_number      1
_space_group_name_Hall           'P 1'
loop_
_symmetry_equiv_pos_site_id
_symmetry_equiv_pos_as_xyz
1 x,y,z
_cell_length_a                   10.9641(8)
_cell_length_b                   16.3075(11)
_cell_length_c                   15.0633(10)
_cell_angle_alpha                90
_cell_angle_beta                 104.075(4)
_cell_angle_gamma                90
_cell_volume                     2612.42
loop_
_atom_site_label
_atom_site_type_symbol
_atom_site_fract_x
_atom_site_fract_y
_atom_site_fract_z
Ca4 Ca 0.04524(9) 0.78718(6) 0.41795(6)
Th1 Th 0.51549(2) 0.60694(2) 0.32148(2)
Ca1 Ca 0.45476(9) 0.28718(6) 0.08205(6)
O1 O 0.3829(4) 0.5183(3) 0.4009(3)
O2 O 0.3776(4) 0.4413(3) 0.5222(3)
O3 O 0.5709(5) 0.5716(3) 0.1725(3)
O4 O 0.5202(5) 0.7216(3) 0.2118(3)
O5 O 0.7467(4) 0.6001(2) 0.3393(3)
O6 O 0.6412(4) 0.7279(3) 0.3958(3)
O7 O 0.5802(4) 0.4616(2) 0.3145(3)
O8 O 0.3605(4) 0.5157(3) 0.2157(3)
O9 O 0.4282(4) 0.6832(3) 0.4415(3)
O10 O 0.3061(4) 0.6675(3) 0.2690(3)
O11 O 0.5722(6) 0.6070(3) 0.0302(3)
O12 O 0.5408(5) 0.7651(3) 0.0750(3)
O13 O 0.9361(4) 0.6604(3) 0.3792(3)
O14 O 0.8237(4) 0.7960(3) 0.4263(3)
O15 O 0.5693(4) 0.3536(3) 0.2221(3)
O16 O 0.3369(4) 0.4014(3) 0.1314(3)
O17 O 0.2543(4) 0.7321(3) 0.4775(3)
O18 O 0.1348(4) 0.7246(3) 0.2980(3)
C1 C 0.4303(5) 0.4883(3) 0.4779(3)
C2 C 0.5636(6) 0.6219(4) 0.1090(4)
C3 C 0.5395(6) 0.7115(3) 0.1331(4)
C4 C 0.8199(5) 0.6589(3) 0.3701(4)
C5 C 0.7574(5) 0.7354(3) 0.4004(4)
C6 C 0.5273(5) 0.4173(3) 0.2477(4)
C7 C 0.3961(5) 0.4469(3) 0.1923(4)
C8 C 0.3146(5) 0.7061(3) 0.4224(4)
C9 C 0.2436(5) 0.6991(3) 0.3208(3)
O19 O 0.6171(4) 0.4817(3) 0.5991(3)
C10 C 0.5697(5) 0.5117(3) 0.5221(3)
O20 O 0.6224(4) 0.5587(3) 0.4778(3)
Th3 Th 0.48451(2) 0.39306(2) 0.67852(2)
O39 O 0.5639(4) 0.1604(3) 0.1208(3)
O41 O 0.6763(4) 0.2960(3) 0.0737(3)
O43 O 0.2457(4) 0.2321(3) 0.0225(3)
O45 O 0.3652(4) 0.2246(3) 0.2020(3)
Ca2 Ca 0.54524(9) 0.71282(6) 0.91795(6)
O21 O 0.4291(5) 0.4284(3) 0.8275(3)
O22 O 0.4798(5) 0.2784(3) 0.7882(3)
O23 O 0.2533(4) 0.3999(2) 0.6607(3)
O24 O 0.3588(4) 0.2721(3) 0.6042(3)
O25 O 0.4198(4) 0.5384(2) 0.6855(3)
O26 O 0.6395(4) 0.4843(3) 0.7843(3)
O27 O 0.5718(4) 0.3168(3) 0.5585(3)
O28 O 0.6939(4) 0.3325(3) 0.7310(3)
O29 O 0.4278(6) 0.3930(3) 0.9698(3)
O30 O 0.4592(5) 0.2349(3) 0.9250(3)
O31 O 0.0639(4) 0.3396(3) 0.6208(3)
O32 O 0.1763(4) 0.2040(3) 0.5737(3)
O33 O 0.4307(4) 0.6464(3) 0.7779(3)
O34 O 0.6631(4) 0.5986(3) 0.8686(3)
O35 O 0.7457(4) 0.2679(3) 0.5225(3)
O36 O 0.8652(4) 0.2754(3) 0.7020(3)
C11 C 0.4364(6) 0.3781(4) 0.8910(4)
C12 C 0.4605(6) 0.2885(3) 0.8669(4)
C13 C 0.1801(5) 0.3411(3) 0.6299(4)
C14 C 0.2426(5) 0.2646(3) 0.5996(4)
C15 C 0.4727(5) 0.5827(3) 0.7523(4)
C16 C 0.6039(5) 0.5531(3) 0.8077(4)
C17 C 0.6854(5) 0.2939(3) 0.5776(4)
C18 C 0.7564(5) 0.3009(3) 0.6792(3)
Ca6 Ca 0.95476(9) 0.21282(6) 0.58205(6)
O40 O 0.4361(4) 0.8396(3) 0.8792(3)
O42 O 0.3237(4) 0.7040(3) 0.9263(3)
O44 O 0.7543(4) 0.7679(3) 0.9775(3)
O46 O 0.6348(4) 0.7754(3) 0.7980(3)
O1_2 O 0.1171(4) 0.0183(3) 0.0991(3)
O8_2 O 0.1395(4) 0.0157(3) 0.2843(3)
O9_2 O 0.0718(4) 0.1832(3) 0.0585(3)
O10_2 O 0.1939(4) 0.1675(3) 0.2310(3)
C8_2 C 0.1854(5) 0.2061(3) 0.0776(4)
C9_2 C 0.2564(5) 0.1991(3) 0.1792(3)
O25_2 O 0.0802(4) 0.0384(2) 0.8145(3)
O33_2 O 0.0693(4) 0.1464(3) 0.7221(3)
C15_2 C 0.0273(5) 0.0827(3) 0.7477(4)
O16_2 O 0.1631(4) 0.9014(3) 0.3686(3)
C1_2 C 0.0697(5) 0.9883(3) 0.0221(3)
C7_2 C 0.1039(5) 0.9469(3) 0.3077(4)
Th2 Th 0.01549(2) 0.89306(2) 0.82148(2)
O21_2 O 0.0709(5) 0.9284(3) 0.6725(3)
O22_2 O 0.0202(5) 0.7784(3) 0.7118(3)
O23_2 O 0.2467(4) 0.8999(2) 0.8393(3)
O24_2 O 0.1412(4) 0.7721(3) 0.8958(3)
O29_2 O 0.0722(6) 0.8930(3) 0.5302(3)
O30_2 O 0.0408(5) 0.7349(3) 0.5750(3)
C11_2 C 0.0636(6) 0.8781(4) 0.6090(4)
C12_2 C 0.0395(6) 0.7885(3) 0.6331(4)
C13_2 C 0.3199(5) 0.8411(3) 0.8701(4)
C14_2 C 0.2574(5) 0.7646(3) 0.9004(4)
O38 O 0.1224(4) 0.9413(3) 0.9778(3)
Th1_2 Th 0.98451(2) 0.10694(2) 0.17852(2)
O3_2 O 0.9291(5) 0.0716(3) 0.3275(3)
O4_2 O 0.9798(5) 0.2216(3) 0.2882(3)
O5_2 O 0.7533(4) 0.1001(2) 0.1607(3)
O6_2 O 0.8588(4) 0.2279(3) 0.1042(3)
O11_2 O 0.9278(6) 0.1070(3) 0.4698(3)
O12_2 O 0.9592(5) 0.2651(3) 0.4250(3)
C2_2 C 0.9364(6) 0.1219(4) 0.3910(4)
C3_2 C 0.9605(6) 0.2115(3) 0.3669(4)
C4_2 C 0.6801(5) 0.1589(3) 0.1299(4)
C5_2 C 0.7426(5) 0.2354(3) 0.0996(4)
O20_2 O 0.8776(4) 0.0587(3) 0.0222(3)
O34_2 O 0.8369(4) 0.0986(3) 0.6314(3)
C16_2 C 0.8961(5) 0.0531(3) 0.6923(4)
C10_2 C 0.9303(5) 0.0117(3) 0.9779(3)
O7_2 O 0.9198(4) 0.9616(2) 0.1855(3)
O15_2 O 0.9307(4) 0.8536(3) 0.2779(3)
C6_2 C 0.9727(5) 0.9173(3) 0.2523(4)
O26_2 O 0.8605(4) 0.9843(3) 0.7157(3)
O27_2 O 0.9282(4) 0.8168(3) 0.9415(3)
O28_2 O 0.8061(4) 0.8325(3) 0.7690(3)
C17_2 C 0.8146(5) 0.7939(3) 0.9224(4)
C18_2 C 0.7436(5) 0.8009(3) 0.8208(3)
O37 O 0.8829(4) 0.9817(3) 0.9009(3)
N1 N 0.6138(9) 0.7343(5) 0.6049(6)
H1 H 0.706375 0.7343 0.6049
H2 H 0.572 0.78512 0.572153
H3 H 0.572 0.68348 0.572153
H4 H 0.604825 0.7343 0.670395
N1_2 N 0.8862(9) 0.2343(5) 0.8951(6)
H1_2 H 0.793625 0.2343 0.8951
H2_2 H 0.928 0.28512 0.927847
H3_2 H 0.928 0.18348 0.927847
H4_2 H 0.895175 0.2343 0.829605
N1_3 N 0.3862(9) 0.2657(5) 0.3951(6)
H1_3 H 0.293625 0.2657 0.3951
H2_3 H 0.428 0.21488 0.427847
H3_3 H 0.428 0.31652 0.427847
H4_3 H 0.395175 0.2657 0.329605
N1_4 N 0.1138(9) 0.7657(5) 0.1049(6)
H1_4 H 0.206375 0.7657 0.1049
H2_4 H 0.0720003 0.71488 0.0721525
H3_4 H 0.0720003 0.81652 0.0721525
H4_4 H 0.104825 0.7657 0.170395
N2 N 0.8364(12) 0.4258(8) 0.4095(8)
H5 H 0.928975 0.4258 0.4095
H6 H 0.7946 0.47662 0.376753
H7 H 0.7946 0.37498 0.376753
H8 H 0.827425 0.4258 0.474995
N2_2 N 0.6636(12) 0.9258(8) 0.0905(8)
H5_2 H 0.571025 0.9258 0.0905
H6_2 H 0.7054 0.97662 0.123247
H7_2 H 0.7054 0.87498 0.123247
H8_2 H 0.672575 0.9258 0.0250051
N2_3 N 0.1636(12) 0.5742(8) 0.5905(8)
H5_3 H 0.0710251 0.5742 0.5905
H6_3 H 0.2054 0.52338 0.623247
H7_3 H 0.2054 0.62502 0.623247
H8_3 H 0.172575 0.5742 0.525005
N2_4 N 0.3364(12) 0.0742(8) 0.9095(8)
H5_4 H 0.428975 0.0742 0.9095
H6_4 H 0.2946 0.0233802 0.876753
H7_4 H 0.2946 0.12502 0.876753
H8_4 H 0.327425 0.0742 0.974995
H12 H 0.265325 0.5376 0.0228949
N3 N 0.2743(8) 0.5376(5) 0.9574(6)
H9 H 0.366875 0.5376 0.9574
H10 H 0.2325 0.58842 0.924653
H11 H 0.2325 0.48678 0.924653
N3_2 N 0.2257(8) 0.0376(5) 0.5426(6)
H9_2 H 0.133125 0.0376 0.5426
H10_2 H 0.2675 0.0884198 0.575347
H12_2 H 0.234675 0.0376 0.477105
H11_2 H 0.2675 0.98678 0.575347
N3_3 N 0.7257(8) 0.4624(5) 0.0426(6)
H9_3 H 0.633125 0.4624 0.0426
H10_3 H 0.7675 0.41158 0.0753475
H11_3 H 0.7675 0.51322 0.0753475
H12_3 H 0.734675 0.4624 0.977105
H11_4 H 0.7325 0.0132198 0.424653
N3_4 N 0.7743(8) 0.9624(5) 0.4574(6)
H9_4 H 0.866875 0.9624 0.4574
H10_4 H 0.7325 0.91158 0.424653
H12_4 H 0.765325 0.9624 0.522895
loop_
_geom_bond_atom_site_label_1
_geom_bond_atom_site_label_2
_geom_bond_site_symmetry_1
_geom_bond_site_symmetry_2
Th1 O1 1_555 1_555
Ca1 O15 1_555 1_555
O1 C1 1_555 1_555
O2 C1 1_555 1_555
O3 Th1 1_555 1_555
O4 Th1 1_555 1_555
O5 Th1 1_555 1_555
O6 Th1 1_555 1_555
O7 Th1 1_555 1_555
O8 Th1 1_555 1_555
O9 Th1 1_555 1_555
O10 Th1 1_555 1_555
O11 C2 1_555 1_555
O12 C3 1_555 1_555
O13 C4 1_555 1_555
O14 C5 1_555 1_555
O15 C6 1_555 1_555
O16 Ca1 1_555 1_555
O17 C8 1_555 1_555
O18 C9 1_555 1_555
C1 C10 1_555 1_555
C2 O3 1_555 1_555
C3 O4 1_555 1_555
C4 O5 1_555 1_555
C5 O6 1_555 1_555
C6 O7 1_555 1_555
C7 O8 1_555 1_555
C8 O9 1_555 1_555
C9 O10 1_555 1_555
O19 C10 1_555 1_555
C10 O20 1_555 1_555
O20 Th1 1_555 1_555
Th3 O2 1_555 1_555
Ca4 O17 1_555 1_555
O39 Ca1 1_555 1_555
O41 Ca1 1_555 1_555
O43 Ca1 1_555 1_555
O45 Ca1 1_555 1_555
O16 C7 1_555 1_555
O18 Ca4 1_555 1_555
C2 C3 1_555 1_555
C4 C5 1_555 1_555
C6 C7 1_555 1_555
C8 C9 1_555 1_555
O19 Th3 1_555 1_555
Th3 O21 1_555 1_555
O21 C11 1_555 1_555
O22 Th3 1_555 1_555
O23 Th3 1_555 1_555
O24 Th3 1_555 1_555
O25 Th3 1_555 1_555
O26 Th3 1_555 1_555
O27 Th3 1_555 1_555
O28 Th3 1_555 1_555
O31 C13 1_555 1_555
O32 C14 1_555 1_555
O33 Ca2 1_555 1_555
O34 Ca2 1_555 1_555
O35 C17 1_555 1_555
O36 C18 1_555 1_555
C11 O29 1_555 1_555
C12 O22 1_555 1_555
C13 O23 1_555 1_555
C14 O24 1_555 1_555
C15 O25 1_555 1_555
C16 O26 1_555 1_555
C17 O27 1_555 1_555
C18 O28 1_555 1_555
Ca6 O35 1_555 1_555
O40 Ca2 1_555 1_555
O42 Ca2 1_555 1_555
O44 Ca2 1_555 1_555
O46 Ca2 1_555 1_555
O30 C12 1_555 1_555
O33 C15 1_555 1_555
O34 C16 1_555 1_555
O36 Ca6 1_555 1_555
C11 C12 1_555 1_555
C13 C14 1_555 1_555
C15 C16 1_555 1_555
C17 C18 1_555 1_555
O43 C8_2 1_555 1_555
O45 C9_2 1_555 1_555
C8_2 O9_2 1_555 1_555
C9_2 O10_2 1_555 1_555
C15_2 O25_2 1_555 1_555
C8_2 C9_2 1_555 1_555
O33_2 C15_2 1_555 1_555
O16_2 Ca4 1_555 1_555
Th2 O21_2 1_555 1_555
O21_2 C11_2 1_555 1_555
O22_2 Th2 1_555 1_555
O23_2 Th2 1_555 1_555
O24_2 Th2 1_555 1_555
O29_2 Ca4 1_555 1_555
O30_2 Ca4 1_555 1_555
O40 C13_2 1_555 1_555
O42 C14_2 1_555 1_555
C11_2 O29_2 1_555 1_555
C12_2 O22_2 1_555 1_555
C13_2 O23_2 1_555 1_555
C14_2 O24_2 1_555 1_555
O38 Th2 1_555 1_555
O16_2 C7_2 1_555 1_555
O30_2 C12_2 1_555 1_555
C11_2 C12_2 1_555 1_555
C13_2 C14_2 1_555 1_555
O3_2 Th1_2 1_555 1_555
O4_2 Th1_2 1_555 1_555
O5_2 Th1_2 1_555 1_555
O6_2 Th1_2 1_555 1_555
O11_2 C2_2 1_555 1_555
O12_2 C3_2 1_555 1_555
O39 C4_2 1_555 1_555
O41 C5_2 1_555 1_555
C2_2 O3_2 1_555 1_555
C3_2 O4_2 1_555 1_555
C4_2 O5_2 1_555 1_555
C5_2 O6_2 1_555 1_555
O20_2 Th1_2 1_555 1_555
Ca6 O11_2 1_555 1_555
O34_2 Ca6 1_555 1_555
O12_2 Ca6 1_555 1_555
C2_2 C3_2 1_555 1_555
C4_2 C5_2 1_555 1_555
O34_2 C16_2 1_555 1_555
O15_2 C6_2 1_555 1_555
C6_2 O7_2 1_555 1_555
O44 C17_2 1_555 1_555
O46 C18_2 1_555 1_555
C17_2 O27_2 1_555 1_555
C18_2 O28_2 1_555 1_555
C17_2 C18_2 1_555 1_555
N1 H1 1_555 1_555
N1 H2 1_555 1_555
N1 H3 1_555 1_555
N1 H4 1_555 1_555
N1_2 H1_2 1_555 1_555
N1_2 H2_2 1_555 1_555
N1_2 H3_2 1_555 1_555
N1_2 H4_2 1_555 1_555
N1_3 H1_3 1_555 1_555
N1_3 H2_3 1_555 1_555
N1_3 H3_3 1_555 1_555
N1_3 H4_3 1_555 1_555
N1_4 H1_4 1_555 1_555
N1_4 H2_4 1_555 1_555
N1_4 H3_4 1_555 1_555
N1_4 H4_4 1_555 1_555
N2 H5 1_555 1_555
N2 H6 1_555 1_555
N2 H7 1_555 1_555
N2 H8 1_555 1_555
N2_2 H5_2 1_555 1_555
N2_2 H6_2 1_555 1_555
N2_2 H7_2 1_555 1_555
N2_2 H8_2 1_555 1_555
N2_3 H5_3 1_555 1_555
N2_3 H6_3 1_555 1_555
N2_3 H7_3 1_555 1_555
N2_3 H8_3 1_555 1_555
N2_4 H5_4 1_555 1_555
N2_4 H6_4 1_555 1_555
N2_4 H7_4 1_555 1_555
N2_4 H8_4 1_555 1_555
N3 H9 1_555 1_555
N3 H10 1_555 1_555
N3 H11 1_555 1_555
N3_2 H9_2 1_555 1_555
N3_2 H10_2 1_555 1_555
N3_2 H12_2 1_555 1_555
N3_3 H9_3 1_555 1_555
N3_3 H10_3 1_555 1_555
N3_3 H11_3 1_555 1_555
N3_4 H9_4 1_555 1_555
N3_4 H10_4 1_555 1_555
N3_4 H12_4 1_555 1_555

#END
