
###############################################################################
#
# This file contains modified crystal structure data generated from the
# MOF subset of the Cambridge Structural Database (CSD) v543 
# hosted by the Cambridge Crystallographic Data Centre (CCDC).
#
# This work is licensed under the Creative Commons
# Attribution-NonCommercial-ShareAlike 4.0 International License.
# To view a copy of this license, visit
# http://creativecommons.org/licenses/by-nc-sa/4.0/
# or send a letter to
# Creative Commons, PO Box 1866, Mountain View, CA 94042, USA.
#
# CIF created using the CSD Python API on 29 September 2022
# The structure has been converted into the P1 space group
# The structure has a 3D framework
# The original CSD entry BIFPOY is in the orthorhombic crystal system
# The framework has been calculated to contain at least 10.0% void space
# The void calculation uses a probe of radius 1.32A, grid spacing 0.4
# The framework is charged, counterions have been retained in the structure
# H atom positions have been added when not included in the experimental data
#
###############################################################################

data_BIFPOY
_chemical_formula_moiety         '(C38 H62 Ca6 N14 O70 Th6 10+)n'
_symmetry_cell_setting           triclinic
_symmetry_space_group_name_H-M   'P 1'
_symmetry_Int_Tables_number      1
_space_group_name_Hall           'P 1'
loop_
_symmetry_equiv_pos_site_id
_symmetry_equiv_pos_as_xyz
1 x,y,z
_cell_length_a                   8.9032(9)
_cell_length_b                   14.9223(13)
_cell_length_c                   18.1553(19)
_cell_angle_alpha                90
_cell_angle_beta                 90
_cell_angle_gamma                90
_cell_volume                     2412.04
loop_
_atom_site_label
_atom_site_type_symbol
_atom_site_fract_x
_atom_site_fract_y
_atom_site_fract_z
Ca1 Ca -0.0000 0.5000 0.72918(7)
O1 O 0.0680(6) 0.1094(3) 0.5000
O5 O 0.0246(5) 0.2659(3) 0.5768(3)
O9 O 0.0871(5) 0.3717(4) 0.6584(3)
C1 C 0.0756(8) 0.0251(5) 0.5000
Ca2 Ca -0.0000 0.5000 0.27082(7)
O31 O 0.0246(5) 0.2659(3) 0.4232(3)
O35 O 0.0871(5) 0.3717(4) 0.3416(3)
Ca5 Ca 0.5000 0.0000 0.77082(7)
Ca8 Ca 0.5000 0.0000 0.22918(7)
O38 O 0.2446(5) 0.4608(3) 0.2141(2)
O39 O 0.2446(5) 0.4608(3) 0.7859(2)
O41 O 0.0234(5) 0.6098(3) 0.1711(2)
O44 O 0.0234(5) 0.6098(3) 0.8289(2)
O47 O 0.1956(6) 0.5690(4) 0.6553(4)
O48 O 0.1956(6) 0.5690(4) 0.3447(4)
O2 O 0.1925(6) 0.9795(4) 0.5000
Th2 Th 0.17414(3) 0.80920(2) 0.5000
O13 O 0.1453(5) 0.8805(3) 0.3748(2)
O14 O 0.4073(5) 0.8359(4) 0.4284(3)
O16 O 0.2522(6) 0.6769(4) 0.5757(4)
O17 O 0.2554(5) 0.9608(3) 0.2859(2)
O18 O 0.5234(5) 0.8902(3) 0.3289(2)
C7 C 0.2575(6) 0.9098(4) 0.3400(3)
C8 C 0.4109(6) 0.8762(4) 0.3675(3)
C9 C 0.1653(7) 0.6349(4) 0.6167(4)
C10 C 0.0020(7) 0.6677(4) 0.6172(3)
O21 O 0.1453(5) 0.8805(3) 0.6252(2)
O22 O 0.4073(5) 0.8359(4) 0.5716(3)
O24 O 0.2522(6) 0.6769(4) 0.4243(4)
O25 O 0.2554(5) 0.9608(3) 0.7141(2)
O26 O 0.5234(5) 0.8902(3) 0.6711(2)
C11 C 0.2575(6) 0.9098(4) 0.6600(3)
C12 C 0.4109(6) 0.8762(4) 0.6325(3)
C13 C 0.1653(7) 0.6349(4) 0.3833(4)
C14 C 0.0020(7) 0.6677(4) 0.3828(3)
Ca5_2 Ca 0.5000 1.0000 0.77082(7)
Ca8_2 Ca 0.5000 1.0000 0.22918(7)
Th1 Th 0.82586(3) 0.19080(2) 0.5000
Ca1_2 Ca 1.0000 0.5000 0.72918(7)
O3 O 0.8547(5) 0.1195(3) 0.3748(2)
O4 O 0.5927(5) 0.1641(4) 0.4284(3)
O6 O 0.7478(6) 0.3231(4) 0.5757(4)
O7 O 0.7446(5) 0.0392(3) 0.2859(2)
O8 O 0.4766(5) 0.1098(3) 0.3289(2)
O10 O 0.8044(6) 0.4310(4) 0.6553(4)
C2 C 0.7425(6) 0.0902(4) 0.3400(3)
C3 C 0.5891(6) 0.1238(4) 0.3675(3)
C4 C 0.8347(7) 0.3651(4) 0.6167(4)
C5 C 0.9980(7) 0.3323(4) 0.6172(3)
O12 O 0.8075(6) 0.0205(4) 0.5000
Ca2_2 Ca 1.0000 0.5000 0.27082(7)
O29 O 0.8547(5) 0.1195(3) 0.6252(2)
O30 O 0.5927(5) 0.1641(4) 0.5716(3)
O32 O 0.7478(6) 0.3231(4) 0.4243(4)
O33 O 0.7446(5) 0.0392(3) 0.7141(2)
O34 O 0.4766(5) 0.1098(3) 0.6711(2)
O36 O 0.8044(6) 0.4310(4) 0.3447(4)
C15 C 0.7425(6) 0.0902(4) 0.6600(3)
C16 C 0.5891(6) 0.1238(4) 0.6325(3)
C17 C 0.8347(7) 0.3651(4) 0.3833(4)
C18 C 0.9980(7) 0.3323(4) 0.3828(3)
O37 O 0.7554(5) 0.5392(3) 0.2141(2)
O40 O 0.7554(5) 0.5392(3) 0.7859(2)
O42 O 0.9766(5) 0.3902(3) 0.1711(2)
O43 O 0.9766(5) 0.3902(3) 0.8289(2)
O45 O 0.9129(5) 0.6283(4) 0.6584(3)
O46 O 0.9129(5) 0.6283(4) 0.3416(3)
O11 O 0.9320(6) 0.8906(3) 0.5000
C6 C 0.9244(8) 0.9749(5) 0.5000
O15 O 0.9754(5) 0.7341(3) 0.5768(3)
O23 O 0.9754(5) 0.7341(3) 0.4232(3)
O46_2 O 0.5871(5) 0.1283(4) 0.1584(3)
O48_2 O 0.3044(6) 0.0690(4) 0.1553(4)
O45_2 O 0.5871(5) 0.1283(4) 0.8416(3)
O47_2 O 0.3044(6) 0.0690(4) 0.8447(4)
Th1_2 Th 0.67414(3) 0.69080(2) 0.0000
O1_2 O 0.4320(6) 0.6094(3) 0.0000
O2_2 O 0.3075(6) 0.4795(4) 0.0000
O3_2 O 0.6453(5) 0.6195(3) 0.1252(2)
O4_2 O 0.9073(5) 0.6641(4) 0.0716(3)
C1_2 C 0.4244(8) 0.5251(5) 0.0000
C2_2 C 0.7575(6) 0.5902(4) 0.1600(3)
C3_2 C 0.9109(6) 0.6238(4) 0.1325(3)
O11_2 O 0.5680(6) 0.3906(3) 0.0000
O12_2 O 0.6925(6) 0.5205(4) 0.0000
C6_2 C 0.5756(8) 0.4749(5) 0.0000
Th2_2 Th 0.32586(3) 0.30920(2) 0.0000
O13_2 O 0.3547(5) 0.3805(3) 0.1252(2)
O14_2 O 0.0927(5) 0.3359(4) 0.0716(3)
C7_2 C 0.2425(6) 0.4098(4) 0.1600(3)
C8_2 C 0.0891(6) 0.3762(4) 0.1325(3)
O23_2 O 0.5246(5) 0.2341(3) 0.0768(3)
O24_2 O 0.2478(6) 0.1769(4) 0.0757(4)
C13_2 C 0.3347(7) 0.1349(4) 0.1167(4)
C14_2 C 0.4980(7) 0.1677(4) 0.1172(3)
O31_2 O 0.4754(5) 0.7659(3) 0.0768(3)
O32_2 O 0.7522(6) 0.8231(4) 0.0757(4)
O35_2 O 0.4129(5) 0.8717(4) 0.1584(3)
O36_2 O 0.6956(6) 0.9310(4) 0.1553(4)
C17_2 C 0.6653(7) 0.8651(4) 0.1167(4)
C18_2 C 0.5020(7) 0.8323(4) 0.1172(3)
Th1_3 Th 0.67414(3) 0.69080(2) 1.0000
O1_3 O 0.4320(6) 0.6094(3) 1.0000
O2_3 O 0.3075(6) 0.4795(4) 1.0000
O5_2 O 0.4754(5) 0.7659(3) 0.9232(3)
O6_2 O 0.7522(6) 0.8231(4) 0.9243(4)
O9_2 O 0.4129(5) 0.8717(4) 0.8416(3)
O10_2 O 0.6956(6) 0.9310(4) 0.8447(4)
C1_3 C 0.4244(8) 0.5251(5) 1.0000
C4_2 C 0.6653(7) 0.8651(4) 0.8833(4)
C5_2 C 0.5020(7) 0.8323(4) 0.8828(3)
O11_3 O 0.5680(6) 0.3906(3) 1.0000
O12_3 O 0.6925(6) 0.5205(4) 1.0000
C6_3 C 0.5756(8) 0.4749(5) 1.0000
Th2_3 Th 0.32586(3) 0.30920(2) 1.0000
O15_2 O 0.5246(5) 0.2341(3) 0.9232(3)
O16_2 O 0.2478(6) 0.1769(4) 0.9243(4)
C9_2 C 0.3347(7) 0.1349(4) 0.8833(4)
C10_2 C 0.4980(7) 0.1677(4) 0.8828(3)
O21_2 O 0.3547(5) 0.3805(3) 0.8748(2)
O22_2 O 0.0927(5) 0.3359(4) 0.9284(3)
C11_2 C 0.2425(6) 0.4098(4) 0.8400(3)
C12_2 C 0.0891(6) 0.3762(4) 0.8675(3)
O29_2 O 0.6453(5) 0.6195(3) 0.8748(2)
O30_2 O 0.9073(5) 0.6641(4) 0.9284(3)
C15_2 C 0.7575(6) 0.5902(4) 0.8400(3)
C16_2 C 0.9109(6) 0.6238(4) 0.8675(3)
N1 N 0.3198(12) 0.2306(8) 0.5000
H1 H 0.433804 0.2306 0.5
H2 H 0.281799 0.286137 0.473645
H3 H 0.281799 0.175063 0.473645
H4 H 0.281799 0.2306 0.552709
H2_2 H 0.281799 0.286137 0.526355
H3_2 H 0.281799 0.175063 0.526355
H4_2 H 0.281799 0.2306 0.447291
N1_2 N 0.6802(12) 0.7694(8) 0.5000
H1_2 H 0.566196 0.7694 0.5
H2_3 H 0.718201 0.713863 0.473645
H3_3 H 0.718201 0.824937 0.473645
H4_3 H 0.718201 0.7694 0.552709
H2_4 H 0.718201 0.713863 0.526355
H3_4 H 0.718201 0.824937 0.526355
H4_4 H 0.718201 0.7694 0.447291
N1_3 N 0.1802(12) 0.7306(8) 0.0000
H1_3 H 0.066196 0.7306 0
H2_5 H 0.218201 0.786137 0.0263546
H3_5 H 0.218201 0.675063 0.0263546
H4_5 H 0.218201 0.7306 0.0527092
N1_4 N 0.1802(12) 0.7306(8) 1.0000
H1_4 H 0.066196 0.7306 1
H4_6 H 0.218201 0.7306 0.947291
H2_6 H 0.218201 0.786137 0.973645
H3_6 H 0.218201 0.675063 0.973645
N1_5 N 0.8198(12) 0.2694(8) 0.0000
H1_5 H 0.933804 0.2694 0
H2_7 H 0.781799 0.213863 0.0263546
H3_7 H 0.781799 0.324937 0.0263546
H4_7 H 0.781799 0.2694 0.0527092
N1_6 N 0.8198(12) 0.2694(8) 1.0000
H1_6 H 0.933804 0.2694 1
H4_8 H 0.781799 0.2694 0.947291
H2_8 H 0.781799 0.213863 0.973645
H3_8 H 0.781799 0.324937 0.973645
N2 N 0.2964(9) 0.2512(5) 0.2686(4)
H5 H 0.410404 0.2512 0.2686
H6 H 0.258399 0.306737 0.242245
H7 H 0.258399 0.195663 0.242245
H8 H 0.258399 0.2512 0.321309
N2_2 N 0.7036(9) 0.7488(5) 0.2686(4)
H5_2 H 0.589596 0.7488 0.2686
H6_2 H 0.741601 0.693263 0.242245
H7_2 H 0.741601 0.804337 0.242245
H8_2 H 0.741601 0.7488 0.321309
N2_3 N 0.2036(9) 0.7512(5) 0.2314(4)
H5_3 H 0.089596 0.7512 0.2314
H6_3 H 0.241601 0.806737 0.257755
H7_3 H 0.241601 0.695663 0.257755
H8_3 H 0.241601 0.7512 0.178691
N2_4 N 0.7964(9) 0.2488(5) 0.2314(4)
H5_4 H 0.910404 0.2488 0.2314
H6_4 H 0.758399 0.193263 0.257755
H7_4 H 0.758399 0.304337 0.257755
H8_4 H 0.758399 0.2488 0.178691
N2_5 N 0.7036(9) 0.7488(5) 0.7314(4)
H5_5 H 0.589596 0.7488 0.7314
H6_5 H 0.741601 0.693263 0.757755
H7_5 H 0.741601 0.804337 0.757755
H8_5 H 0.741601 0.7488 0.678691
N2_6 N 0.2964(9) 0.2512(5) 0.7314(4)
H5_6 H 0.410404 0.2512 0.7314
H6_6 H 0.258399 0.306737 0.757755
H7_6 H 0.258399 0.195663 0.757755
H8_6 H 0.258399 0.2512 0.678691
N2_7 N 0.7964(9) 0.2488(5) 0.7686(4)
H5_7 H 0.910404 0.2488 0.7686
H6_7 H 0.758399 0.193263 0.742245
H7_7 H 0.758399 0.304337 0.742245
H8_7 H 0.758399 0.2488 0.821309
N2_8 N 0.2036(9) 0.7512(5) 0.7686(4)
H5_8 H 0.089596 0.7512 0.7686
H6_8 H 0.241601 0.806737 0.742245
H7_8 H 0.241601 0.695663 0.742245
H8_8 H 0.241601 0.7512 0.821309
loop_
_geom_bond_atom_site_label_1
_geom_bond_atom_site_label_2
_geom_bond_site_symmetry_1
_geom_bond_site_symmetry_2
Ca1 O9 1_555 1_555
O1 C1 1_555 1_555
Ca2 O35 1_555 1_555
O38 Ca2 1_555 1_555
O39 Ca1 1_555 1_555
O41 Ca2 1_555 1_555
O44 Ca1 1_555 1_555
O47 Ca1 1_555 1_555
O48 Ca2 1_555 1_555
Th2 O2 1_555 1_555
O13 Th2 1_555 1_555
O14 Th2 1_555 1_555
O16 Th2 1_555 1_555
O17 C7 1_555 1_555
O18 C8 1_555 1_555
O47 C9 1_555 1_555
C7 O13 1_555 1_555
C8 O14 1_555 1_555
C9 O16 1_555 1_555
O21 Th2 1_555 1_555
O22 Th2 1_555 1_555
O24 Th2 1_555 1_555
O25 C11 1_555 1_555
O26 C12 1_555 1_555
O48 C13 1_555 1_555
C11 O21 1_555 1_555
C12 O22 1_555 1_555
C13 O24 1_555 1_555
Ca5_2 O25 1_555 1_555
Ca8_2 O17 1_555 1_555
O18 Ca8_2 1_555 1_555
C7 C8 1_555 1_555
C9 C10 1_555 1_555
O26 Ca5_2 1_555 1_555
C11 C12 1_555 1_555
C13 C14 1_555 1_555
O3 Th1 1_555 1_555
O4 Th1 1_555 1_555
O6 Th1 1_555 1_555
O7 C2 1_555 1_555
O8 C3 1_555 1_555
O10 Ca1_2 1_555 1_555
C2 O3 1_555 1_555
C3 O4 1_555 1_555
C4 O6 1_555 1_555
O12 Th1 1_555 1_555
O29 Th1 1_555 1_555
O30 Th1 1_555 1_555
O32 Th1 1_555 1_555
O33 C15 1_555 1_555
O34 C16 1_555 1_555
O36 Ca2_2 1_555 1_555
C15 O29 1_555 1_555
C16 O30 1_555 1_555
C17 O32 1_555 1_555
Ca5 O33 1_555 1_555
Ca8 O7 1_555 1_555
O37 Ca2_2 1_555 1_555
O40 Ca1_2 1_555 1_555
O42 Ca2_2 1_555 1_555
O43 Ca1_2 1_555 1_555
O45 Ca1_2 1_555 1_555
O46 Ca2_2 1_555 1_555
O8 Ca8 1_555 1_555
O10 C4 1_555 1_555
C2 C3 1_555 1_555
C4 C5 1_555 1_555
O34 Ca5 1_555 1_555
O36 C17 1_555 1_555
C15 C16 1_555 1_555
C17 C18 1_555 1_555
O11 C6 1_555 1_555
O46_2 Ca8 1_555 1_555
O48_2 Ca8 1_555 1_555
O45_2 Ca5 1_555 1_555
O47_2 Ca5 1_555 1_555
Th1_2 O1_2 1_555 1_555
O1_2 C1_2 1_555 1_555
O2_2 C1_2 1_555 1_555
O3_2 Th1_2 1_555 1_555
O4_2 Th1_2 1_555 1_555
O37 C2_2 1_555 1_555
C1_2 C6_2 1_555 1_555
C2_2 O3_2 1_555 1_555
C3_2 O4_2 1_555 1_555
O11_2 C6_2 1_555 1_555
O12_2 Th1_2 1_555 1_555
C6_2 O12_2 1_555 1_555
Th2_2 O2_2 1_555 1_555
O13_2 Th2_2 1_555 1_555
O14_2 Th2_2 1_555 1_555
O38 C7_2 1_555 1_555
C7_2 O13_2 1_555 1_555
C8_2 O14_2 1_555 1_555
O23_2 Th2_2 1_555 1_555
O24_2 Th2_2 1_555 1_555
O46_2 C14_2 1_555 1_555
O48_2 C13_2 1_555 1_555
C13_2 O24_2 1_555 1_555
C14_2 O23_2 1_555 1_555
Ca8_2 O35_2 1_555 1_555
O31_2 Th1_2 1_555 1_555
O32_2 Th1_2 1_555 1_555
O35_2 C18_2 1_555 1_555
O36_2 Ca8_2 1_555 1_555
C17_2 O32_2 1_555 1_555
C18_2 O31_2 1_555 1_555
C2_2 C3_2 1_555 1_555
O11_2 Th2_2 1_555 1_555
C7_2 C8_2 1_555 1_555
C13_2 C14_2 1_555 1_555
O36_2 C17_2 1_555 1_555
C17_2 C18_2 1_555 1_555
Th1_3 O1_3 1_555 1_555
Ca5_2 O9_2 1_555 1_555
O1_3 C1_3 1_555 1_555
O2_3 C1_3 1_555 1_555
O5_2 Th1_3 1_555 1_555
O6_2 Th1_3 1_555 1_555
O9_2 C5_2 1_555 1_555
O10_2 Ca5_2 1_555 1_555
C1_3 C6_3 1_555 1_555
C4_2 O6_2 1_555 1_555
C5_2 O5_2 1_555 1_555
O11_3 C6_3 1_555 1_555
O12_3 Th1_3 1_555 1_555
C6_3 O12_3 1_555 1_555
Th2_3 O2_3 1_555 1_555
O15_2 Th2_3 1_555 1_555
O16_2 Th2_3 1_555 1_555
O45_2 C10_2 1_555 1_555
O47_2 C9_2 1_555 1_555
C9_2 O16_2 1_555 1_555
C10_2 O15_2 1_555 1_555
O21_2 Th2_3 1_555 1_555
O22_2 Th2_3 1_555 1_555
O39 C11_2 1_555 1_555
C11_2 O21_2 1_555 1_555
C12_2 O22_2 1_555 1_555
O29_2 Th1_3 1_555 1_555
O30_2 Th1_3 1_555 1_555
O40 C15_2 1_555 1_555
C15_2 O29_2 1_555 1_555
C16_2 O30_2 1_555 1_555
O10_2 C4_2 1_555 1_555
C4_2 C5_2 1_555 1_555
O11_3 Th2_3 1_555 1_555
C9_2 C10_2 1_555 1_555
C11_2 C12_2 1_555 1_555
C15_2 C16_2 1_555 1_555
N1 H1 1_555 1_555
N1 H2 1_555 1_555
N1 H3 1_555 1_555
N1 H4 1_555 1_555
N1 H2_2 1_555 1_555
N1 H3_2 1_555 1_555
N1 H4_2 1_555 1_555
N1_2 H1_2 1_555 1_555
N1_2 H2_3 1_555 1_555
N1_2 H3_3 1_555 1_555
N1_2 H4_3 1_555 1_555
N1_2 H2_4 1_555 1_555
N1_2 H3_4 1_555 1_555
N1_2 H4_4 1_555 1_555
N1_3 H1_3 1_555 1_555
N1_3 H2_5 1_555 1_555
N1_3 H3_5 1_555 1_555
N1_3 H4_5 1_555 1_555
N1_4 H1_4 1_555 1_555
N1_4 H4_6 1_555 1_555
N1_4 H2_6 1_555 1_555
N1_4 H3_6 1_555 1_555
N1_5 H1_5 1_555 1_555
N1_5 H2_7 1_555 1_555
N1_5 H3_7 1_555 1_555
N1_5 H4_7 1_555 1_555
N1_6 H1_6 1_555 1_555
N1_6 H4_8 1_555 1_555
N1_6 H2_8 1_555 1_555
N1_6 H3_8 1_555 1_555
N2 H5 1_555 1_555
N2 H6 1_555 1_555
N2 H7 1_555 1_555
N2 H8 1_555 1_555
N2_2 H5_2 1_555 1_555
N2_2 H6_2 1_555 1_555
N2_2 H7_2 1_555 1_555
N2_2 H8_2 1_555 1_555
N2_3 H5_3 1_555 1_555
N2_3 H6_3 1_555 1_555
N2_3 H7_3 1_555 1_555
N2_3 H8_3 1_555 1_555
N2_4 H5_4 1_555 1_555
N2_4 H6_4 1_555 1_555
N2_4 H7_4 1_555 1_555
N2_4 H8_4 1_555 1_555
N2_5 H5_5 1_555 1_555
N2_5 H6_5 1_555 1_555
N2_5 H7_5 1_555 1_555
N2_5 H8_5 1_555 1_555
N2_6 H5_6 1_555 1_555
N2_6 H6_6 1_555 1_555
N2_6 H7_6 1_555 1_555
N2_6 H8_6 1_555 1_555
N2_7 H5_7 1_555 1_555
N2_7 H6_7 1_555 1_555
N2_7 H7_7 1_555 1_555
N2_7 H8_7 1_555 1_555
N2_8 H5_8 1_555 1_555
N2_8 H6_8 1_555 1_555
N2_8 H7_8 1_555 1_555
N2_8 H8_8 1_555 1_555

#END
