
###############################################################################
#
# This file contains modified crystal structure data generated from the
# MOF subset of the Cambridge Structural Database (CSD) v543 
# hosted by the Cambridge Crystallographic Data Centre (CCDC).
#
# This work is licensed under the Creative Commons
# Attribution-NonCommercial-ShareAlike 4.0 International License.
# To view a copy of this license, visit
# http://creativecommons.org/licenses/by-nc-sa/4.0/
# or send a letter to
# Creative Commons, PO Box 1866, Mountain View, CA 94042, USA.
#
# CIF created using the CSD Python API on 29 September 2022
# The structure has been converted into the P1 space group
# The structure has a 3D framework
# The original CSD entry BIFSOB is in the orthorhombic crystal system
# The framework has been calculated to contain at least 10.0% void space
# The void calculation uses a probe of radius 1.32A, grid spacing 0.4
# The framework is charged, counterions have been retained in the structure
#
###############################################################################

data_BIFSOB
_chemical_formula_moiety         '(C336 H192 N16 O128 U16 16-)n'
_symmetry_cell_setting           triclinic
_symmetry_space_group_name_H-M   'P 1'
_symmetry_Int_Tables_number      1
_space_group_name_Hall           'P 1'
loop_
_symmetry_equiv_pos_site_id
_symmetry_equiv_pos_as_xyz
1 x,y,z
_cell_length_a                   8.3019(4)
_cell_length_b                   27.9965(13)
_cell_length_c                   51.493(3)
_cell_angle_alpha                90
_cell_angle_beta                 90
_cell_angle_gamma                90
_cell_volume                     11968.2
loop_
_atom_site_label
_atom_site_type_symbol
_atom_site_fract_x
_atom_site_fract_y
_atom_site_fract_z
O8 O 0.0646(13) 0.3989(4) 0.50030(17)
O10 O 0.0028(13) 0.2957(3) 0.49539(12)
U1 U 0.8750 0.3750 0.50005(2)
O1 O 0.6854(13) 0.3511(4) 0.50030(17)
C1 C 0.773(2) 0.4569(4) 0.4721(2)
N1 N 0.6250 0.6250 0.4150(2)
O2 O 0.8285(13) 0.4214(3) 0.46004(13)
C2 C 0.6168(18) 0.5323(4) 0.4658(2)
H1 H 0.5667 0.5275 0.4817
O3 O 0.7472(13) 0.4543(3) 0.49539(12)
C3 C 0.7283(16) 0.5004(4) 0.45694(19)
O4 O 0.5757(9) 0.5890(3) 0.29254(14)
C4 C 0.5783(17) 0.5725(4) 0.45055(19)
H2 H 0.4941 0.5923 0.4556
C5 C 0.7748(14) 0.5511(4) 0.41974(19)
H3 H 0.8290 0.5575 0.4043
C6 C 0.6611(13) 0.5826(3) 0.42892(17)
C7 C 0.8084(15) 0.5097(4) 0.43355(19)
H4 H 0.8841 0.4881 0.4273
C8 C 0.5734(14) 0.5850(3) 0.37409(18)
H5 H 0.5412 0.5579 0.3832
C9 C 0.6250 0.6250 0.3872(2)
C10 C 0.5701(13) 0.5855(3) 0.34704(18)
H6 H 0.5307 0.5592 0.3380
C11 C 0.6250 0.6250 0.3336(2)
C12 C 0.6250 0.6250 0.3047(2)
C13 C 0.477(2) 0.7931(4) 0.4721(2)
O5 O 0.4215(13) 0.8286(3) 0.46004(13)
C14 C 0.6332(18) 0.7177(4) 0.4658(2)
H7 H 0.6833 0.7225 0.4817
O6 O 0.5028(13) 0.7957(3) 0.49539(12)
C15 C 0.5217(16) 0.7496(4) 0.45694(19)
O7 O 0.6743(9) 0.6610(3) 0.29254(14)
C16 C 0.6717(17) 0.6775(4) 0.45055(19)
H8 H 0.7559 0.6577 0.4556
C17 C 0.4752(14) 0.6989(4) 0.41974(19)
H9 H 0.4210 0.6925 0.4043
C18 C 0.5889(13) 0.6674(3) 0.42892(17)
C19 C 0.4416(15) 0.7403(4) 0.43355(19)
H10 H 0.3659 0.7619 0.4273
C20 C 0.6766(14) 0.6650(3) 0.37409(18)
H11 H 0.7088 0.6921 0.3832
C21 C 0.6799(13) 0.6645(3) 0.34704(18)
H12 H 0.7193 0.6908 0.3380
U2 U 0.3750 0.8750 0.50005(2)
U3 U 0.6250 0.6250 0.25005(2)
O9 O 0.9215(13) 0.3286(3) 0.46004(13)
O11 O 0.8257(9) 0.4110(3) 0.54254(14)
O12 O 0.9243(9) 0.3390(3) 0.54254(14)
N1_2 N 0.1250 0.1250 0.4150(2)
C2_2 C 0.1332(18) 0.2177(4) 0.4658(2)
H1_2 H 0.1833 0.2225 0.4817
C3_2 C 0.0217(16) 0.2496(4) 0.45694(19)
O4_2 O 0.1743(9) 0.1610(3) 0.29254(14)
C4_2 C 0.1717(17) 0.1775(4) 0.45055(19)
H2_2 H 0.2559 0.1577 0.4556
C6_2 C 0.0889(13) 0.1674(3) 0.42892(17)
C8_2 C 0.1766(14) 0.1650(3) 0.37409(18)
H5_2 H 0.2088 0.1921 0.3832
C9_2 C 0.1250 0.1250 0.3872(2)
C10_2 C 0.1799(13) 0.1645(3) 0.34704(18)
H6_2 H 0.2193 0.1908 0.3380
C11_2 C 0.1250 0.1250 0.3336(2)
C12_2 C 0.1250 0.1250 0.3047(2)
C14_2 C 0.1168(18) 0.0323(4) 0.4658(2)
H7_2 H 0.0667 0.0275 0.4817
C15_2 C 0.2283(16) 0.0004(4) 0.45694(19)
O7_2 O 0.0757(9) 0.0890(3) 0.29254(14)
C16_2 C 0.0783(17) 0.0725(4) 0.45055(19)
C17_2 C 0.2748(14) 0.0511(4) 0.41974(19)
H9_2 H 0.3290 0.0575 0.4043
C18_2 C 0.1611(13) 0.0826(3) 0.42892(17)
C19_2 C 0.3084(15) 0.0097(4) 0.43355(19)
C20_2 C 0.0734(14) 0.0850(3) 0.37409(18)
H11_2 H 0.0412 0.0579 0.3832
C21_2 C 0.0701(13) 0.0855(3) 0.34704(18)
H12_2 H 0.0307 0.0592 0.3380
U3_2 U 0.1250 0.1250 0.25005(2)
C13_2 C 0.273(2) 0.9569(4) 0.4721(2)
O5_2 O 0.3285(13) 0.9214(3) 0.46004(13)
O6_2 O 0.2472(13) 0.9543(3) 0.49539(12)
H10_2 H 0.3841 0.9881 0.4273
C1_2 C 0.977(2) 0.2931(4) 0.4721(2)
C5_2 C 0.9752(14) 0.1989(4) 0.41974(19)
H3_2 H 0.9210 0.1925 0.4043
C7_2 C 0.9416(15) 0.2403(4) 0.43355(19)
H4_2 H 0.8659 0.2619 0.4273
H8_2 H 0.9941 0.0923 0.4556
O8_2 O 0.0646(13) 0.8989(4) 0.00030(17)
O10_2 O 0.0028(13) 0.7957(3) 0.99539(12)
U2_2 U 0.3750 0.3750 0.00005(2)
N1_3 N 0.6250 0.1250 0.9150(2)
C2_3 C 0.6168(18) 0.0323(4) 0.9658(2)
H1_3 H 0.5667 0.0275 0.9817
C3_3 C 0.7283(16) 0.0004(4) 0.95694(19)
O4_3 O 0.5757(9) 0.0890(3) 0.79254(14)
C4_3 C 0.5783(17) 0.0725(4) 0.95055(19)
H2_3 H 0.4941 0.0923 0.9556
C5_3 C 0.7748(14) 0.0511(4) 0.91974(19)
H3_3 H 0.8290 0.0575 0.9043
C6_3 C 0.6611(13) 0.0826(3) 0.92892(17)
C7_3 C 0.8084(15) 0.0097(4) 0.93355(19)
C8_3 C 0.5734(14) 0.0850(3) 0.87409(18)
H5_3 H 0.5412 0.0579 0.8832
C9_3 C 0.6250 0.1250 0.8872(2)
C10_3 C 0.5701(13) 0.0855(3) 0.84704(18)
H6_3 H 0.5307 0.0592 0.8380
C11_3 C 0.6250 0.1250 0.8336(2)
C12_3 C 0.6250 0.1250 0.8047(2)
C13_3 C 0.477(2) 0.2931(4) 0.9721(2)
O5_3 O 0.4215(13) 0.3286(3) 0.96004(13)
C14_3 C 0.6332(18) 0.2177(4) 0.9658(2)
H7_3 H 0.6833 0.2225 0.9817
O6_3 O 0.5028(13) 0.2957(3) 0.99539(12)
C15_3 C 0.5217(16) 0.2496(4) 0.95694(19)
O7_3 O 0.6743(9) 0.1610(3) 0.79254(14)
C16_3 C 0.6717(17) 0.1775(4) 0.95055(19)
H8_3 H 0.7559 0.1577 0.9556
C17_3 C 0.4752(14) 0.1989(4) 0.91974(19)
H9_3 H 0.4210 0.1925 0.9043
C18_3 C 0.5889(13) 0.1674(3) 0.92892(17)
C19_3 C 0.4416(15) 0.2403(4) 0.93355(19)
H10_3 H 0.3659 0.2619 0.9273
C20_3 C 0.6766(14) 0.1650(3) 0.87409(18)
H11_3 H 0.7088 0.1921 0.8832
C21_3 C 0.6799(13) 0.1645(3) 0.84704(18)
H12_3 H 0.7193 0.1908 0.8380
U3_3 U 0.6250 0.1250 0.75005(2)
U1_2 U 0.8750 0.8750 0.00005(2)
O1_2 O 0.6854(13) 0.8511(4) 0.00030(17)
O11_2 O 0.8257(9) 0.9110(3) 0.04254(14)
O12_2 O 0.9243(9) 0.8390(3) 0.04254(14)
N1_4 N 0.1250 0.6250 0.9150(2)
C2_4 C 0.1332(18) 0.7177(4) 0.9658(2)
H1_4 H 0.1833 0.7225 0.9817
C3_4 C 0.0217(16) 0.7496(4) 0.95694(19)
O4_4 O 0.1743(9) 0.6610(3) 0.79254(14)
C4_4 C 0.1717(17) 0.6775(4) 0.95055(19)
H2_4 H 0.2559 0.6577 0.9556
C6_4 C 0.0889(13) 0.6674(3) 0.92892(17)
C8_4 C 0.1766(14) 0.6650(3) 0.87409(18)
H5_4 H 0.2088 0.6921 0.8832
C9_4 C 0.1250 0.6250 0.8872(2)
C10_4 C 0.1799(13) 0.6645(3) 0.84704(18)
H6_4 H 0.2193 0.6908 0.8380
C11_4 C 0.1250 0.6250 0.8336(2)
C12_4 C 0.1250 0.6250 0.8047(2)
C13_4 C 0.273(2) 0.4569(4) 0.9721(2)
O5_4 O 0.3285(13) 0.4214(3) 0.96004(13)
C14_4 C 0.1168(18) 0.5323(4) 0.9658(2)
H7_4 H 0.0667 0.5275 0.9817
O6_4 O 0.2472(13) 0.4543(3) 0.99539(12)
C15_4 C 0.2283(16) 0.5004(4) 0.95694(19)
O7_4 O 0.0757(9) 0.5890(3) 0.79254(14)
C16_4 C 0.0783(17) 0.5725(4) 0.95055(19)
C17_4 C 0.2748(14) 0.5511(4) 0.91974(19)
H9_4 H 0.3290 0.5575 0.9043
C18_4 C 0.1611(13) 0.5826(3) 0.92892(17)
C19_4 C 0.3084(15) 0.5097(4) 0.93355(19)
H10_4 H 0.3841 0.4881 0.9273
C20_4 C 0.0734(14) 0.5850(3) 0.87409(18)
H11_4 H 0.0412 0.5579 0.8832
C21_4 C 0.0701(13) 0.5855(3) 0.84704(18)
H12_4 H 0.0307 0.5592 0.8380
U3_4 U 0.1250 0.6250 0.75005(2)
O1_3 O 0.1854(13) 0.3511(4) 0.00030(17)
O8_3 O 0.5646(13) 0.3989(4) 0.00030(17)
O11_3 O 0.3257(9) 0.4110(3) 0.04254(14)
O12_3 O 0.4243(9) 0.3390(3) 0.04254(14)
O1_4 O 0.1854(13) 0.8511(4) 0.50030(17)
O8_4 O 0.5646(13) 0.8989(4) 0.50030(17)
O11_4 O 0.3257(9) 0.9110(3) 0.54254(14)
O12_4 O 0.4243(9) 0.8390(3) 0.54254(14)
C1_3 C 0.023(2) 0.5431(4) 0.7221(2)
O2_2 O 0.0785(13) 0.5786(3) 0.71004(13)
C5_4 C 0.0248(14) 0.4489(4) 0.66974(19)
H3_4 H 0.0790 0.4425 0.6543
C7_4 C 0.0584(15) 0.4903(4) 0.68355(19)
H4_3 H 0.1341 0.5119 0.6773
H8_4 H 0.0059 0.3423 0.7056
O8_5 O 0.3146(13) 0.6011(4) 0.75030(17)
O9_2 O 0.1715(13) 0.6714(3) 0.71004(13)
O10_3 O 0.2528(13) 0.7043(3) 0.74539(12)
O1_5 O 0.9354(13) 0.6489(4) 0.75030(17)
N1_5 N 0.8750 0.3750 0.6650(2)
C2_5 C 0.8668(18) 0.4677(4) 0.7158(2)
H1_5 H 0.8167 0.4725 0.7317
O3_2 O 0.9972(13) 0.5457(3) 0.74539(12)
C3_5 C 0.9783(16) 0.4996(4) 0.70694(19)
C4_5 C 0.8283(17) 0.4275(4) 0.70055(19)
H2_5 H 0.7441 0.4077 0.7056
C6_5 C 0.9111(13) 0.4174(3) 0.67892(17)
C8_5 C 0.8234(14) 0.4150(3) 0.62409(18)
H5_5 H 0.7912 0.4421 0.6332
C9_5 C 0.8750 0.3750 0.6372(2)
C10_5 C 0.8201(13) 0.4145(3) 0.59704(18)
H6_5 H 0.7807 0.4408 0.5880
C11_5 C 0.8750 0.3750 0.5836(2)
C12_5 C 0.8750 0.3750 0.5547(2)
C13_5 C 0.727(2) 0.2069(4) 0.7221(2)
O5_5 O 0.6715(13) 0.1714(3) 0.71004(13)
C14_5 C 0.8832(18) 0.2823(4) 0.7158(2)
H7_5 H 0.9333 0.2775 0.7317
O6_5 O 0.7528(13) 0.2043(3) 0.74539(12)
C15_5 C 0.7717(16) 0.2504(4) 0.70694(19)
C16_5 C 0.9217(17) 0.3225(4) 0.70055(19)
C17_5 C 0.7252(14) 0.3011(4) 0.66974(19)
H9_5 H 0.6710 0.3075 0.6543
C18_5 C 0.8389(13) 0.3326(3) 0.67892(17)
C19_5 C 0.6916(15) 0.2597(4) 0.68355(19)
H10_5 H 0.6159 0.2381 0.6773
C20_5 C 0.9266(14) 0.3350(3) 0.62409(18)
H11_5 H 0.9588 0.3079 0.6332
C21_5 C 0.9299(13) 0.3355(3) 0.59704(18)
H12_5 H 0.9693 0.3092 0.5880
C13_6 C 0.523(2) 0.0431(4) 0.7221(2)
O5_6 O 0.5785(13) 0.0786(3) 0.71004(13)
O6_6 O 0.4972(13) 0.0457(3) 0.74539(12)
H10_6 H 0.6341 0.0119 0.6773
C1_4 C 0.227(2) 0.7069(4) 0.7221(2)
N1_6 N 0.3750 0.8750 0.6650(2)
C2_6 C 0.3832(18) 0.7823(4) 0.7158(2)
H1_6 H 0.4333 0.7775 0.7317
C3_6 C 0.2717(16) 0.7504(4) 0.70694(19)
C4_6 C 0.4217(17) 0.8225(4) 0.70055(19)
H2_6 H 0.5059 0.8423 0.7056
C5_5 C 0.2252(14) 0.8011(4) 0.66974(19)
H3_5 H 0.1710 0.8075 0.6543
C6_6 C 0.3389(13) 0.8326(3) 0.67892(17)
C7_5 C 0.1916(15) 0.7597(4) 0.68355(19)
H4_4 H 0.1159 0.7381 0.6773
C8_6 C 0.4266(14) 0.8350(3) 0.62409(18)
H5_6 H 0.4588 0.8079 0.6332
C9_6 C 0.3750 0.8750 0.6372(2)
C10_6 C 0.4299(13) 0.8355(3) 0.59704(18)
H6_6 H 0.4693 0.8092 0.5880
C11_6 C 0.3750 0.8750 0.5836(2)
C12_6 C 0.3750 0.8750 0.5547(2)
C14_6 C 0.3668(18) 0.9677(4) 0.7158(2)
H7_6 H 0.3167 0.9725 0.7317
C15_6 C 0.4783(16) 0.9996(4) 0.70694(19)
C16_6 C 0.3283(17) 0.9275(4) 0.70055(19)
H8_5 H 0.2441 0.9077 0.7056
C17_6 C 0.5248(14) 0.9489(4) 0.66974(19)
H9_6 H 0.5790 0.9425 0.6543
C18_6 C 0.4111(13) 0.9174(3) 0.67892(17)
C19_6 C 0.5584(15) 0.9903(4) 0.68355(19)
C20_6 C 0.3234(14) 0.9150(3) 0.62409(18)
H11_6 H 0.2912 0.9421 0.6332
C21_6 C 0.3201(13) 0.9145(3) 0.59704(18)
H12_6 H 0.2807 0.9408 0.5880
C1_5 C 0.023(2) 0.0431(4) 0.2221(2)
O2_3 O 0.0785(13) 0.0786(3) 0.21004(13)
H4_5 H 0.1341 0.0119 0.1773
O8_6 O 0.3146(13) 0.1011(4) 0.25030(17)
O9_3 O 0.1715(13) 0.1714(3) 0.21004(13)
O10_4 O 0.2528(13) 0.2043(3) 0.24539(12)
N1_7 N 0.8750 0.8750 0.1650(2)
C2_7 C 0.8668(18) 0.9677(4) 0.2158(2)
H1_7 H 0.8167 0.9725 0.2317
C3_7 C 0.9783(16) 0.9996(4) 0.20694(19)
C4_7 C 0.8283(17) 0.9275(4) 0.20055(19)
H2_7 H 0.7441 0.9077 0.2056
C6_7 C 0.9111(13) 0.9174(3) 0.17892(17)
C8_7 C 0.8234(14) 0.9150(3) 0.12409(18)
H5_7 H 0.7912 0.9421 0.1332
C9_7 C 0.8750 0.8750 0.1372(2)
C10_7 C 0.8201(13) 0.9145(3) 0.09704(18)
H6_7 H 0.7807 0.9408 0.0880
C11_7 C 0.8750 0.8750 0.0836(2)
C12_7 C 0.8750 0.8750 0.0547(2)
C13_7 C 0.727(2) 0.7069(4) 0.2221(2)
O5_7 O 0.6715(13) 0.6714(3) 0.21004(13)
C14_7 C 0.8832(18) 0.7823(4) 0.2158(2)
H7_7 H 0.9333 0.7775 0.2317
O6_7 O 0.7528(13) 0.7043(3) 0.24539(12)
C15_7 C 0.7717(16) 0.7504(4) 0.20694(19)
C16_7 C 0.9217(17) 0.8225(4) 0.20055(19)
C17_7 C 0.7252(14) 0.8011(4) 0.16974(19)
H9_7 H 0.6710 0.8075 0.1543
C18_7 C 0.8389(13) 0.8326(3) 0.17892(17)
C19_7 C 0.6916(15) 0.7597(4) 0.18355(19)
H10_7 H 0.6159 0.7381 0.1773
C20_7 C 0.9266(14) 0.8350(3) 0.12409(18)
H11_7 H 0.9588 0.8079 0.1332
C21_7 C 0.9299(13) 0.8355(3) 0.09704(18)
H12_7 H 0.9693 0.8092 0.0880
C1_6 C 0.227(2) 0.2069(4) 0.2221(2)
N1_8 N 0.3750 0.3750 0.1650(2)
C2_8 C 0.3832(18) 0.2823(4) 0.2158(2)
H1_8 H 0.4333 0.2775 0.2317
C3_8 C 0.2717(16) 0.2504(4) 0.20694(19)
C4_8 C 0.4217(17) 0.3225(4) 0.20055(19)
H2_8 H 0.5059 0.3423 0.2056
C5_6 C 0.2252(14) 0.3011(4) 0.16974(19)
H3_6 H 0.1710 0.3075 0.1543
C6_8 C 0.3389(13) 0.3326(3) 0.17892(17)
C7_6 C 0.1916(15) 0.2597(4) 0.18355(19)
H4_6 H 0.1159 0.2381 0.1773
C8_8 C 0.4266(14) 0.3350(3) 0.12409(18)
H5_8 H 0.4588 0.3079 0.1332
C9_8 C 0.3750 0.3750 0.1372(2)
C10_8 C 0.4299(13) 0.3355(3) 0.09704(18)
H6_8 H 0.4693 0.3092 0.0880
C11_8 C 0.3750 0.3750 0.0836(2)
C12_8 C 0.3750 0.3750 0.0547(2)
C13_8 C 0.523(2) 0.5431(4) 0.2221(2)
O5_8 O 0.5785(13) 0.5786(3) 0.21004(13)
C14_8 C 0.3668(18) 0.4677(4) 0.2158(2)
H7_8 H 0.3167 0.4725 0.2317
O6_8 O 0.4972(13) 0.5457(3) 0.24539(12)
C15_8 C 0.4783(16) 0.4996(4) 0.20694(19)
C16_8 C 0.3283(17) 0.4275(4) 0.20055(19)
H8_6 H 0.2441 0.4077 0.2056
C17_8 C 0.5248(14) 0.4489(4) 0.16974(19)
H9_8 H 0.5790 0.4425 0.1543
C18_8 C 0.4111(13) 0.4174(3) 0.17892(17)
C19_8 C 0.5584(15) 0.4903(4) 0.18355(19)
H10_8 H 0.6341 0.5119 0.1773
C20_8 C 0.3234(14) 0.4150(3) 0.12409(18)
H11_8 H 0.2912 0.4421 0.1332
C21_8 C 0.3201(13) 0.4145(3) 0.09704(18)
H12_8 H 0.2807 0.4408 0.0880
O1_6 O 0.4354(13) 0.6489(4) 0.25030(17)
O8_7 O 0.8146(13) 0.6011(4) 0.25030(17)
O1_7 O 0.4354(13) 0.1489(4) 0.75030(17)
O8_8 O 0.8146(13) 0.1011(4) 0.75030(17)
O1_8 O 0.0646(13) 0.3511(4) 0.24970(17)
N1_9 N 0.1250 0.6250 0.3350(2)
C2_9 C 0.1332(18) 0.5323(4) 0.2842(2)
H1_9 H 0.1833 0.5275 0.2683
O3_3 O 0.0028(13) 0.4543(3) 0.25461(12)
C3_9 C 0.0217(16) 0.5004(4) 0.29306(19)
O4_5 O 0.1743(9) 0.5890(3) 0.45746(14)
C4_9 C 0.1717(17) 0.5725(4) 0.29945(19)
H2_9 H 0.2559 0.5923 0.2944
C6_9 C 0.0889(13) 0.5826(3) 0.32108(17)
C8_9 C 0.1766(14) 0.5850(3) 0.37591(18)
H5_9 H 0.2088 0.5579 0.3668
C9_9 C 0.1250 0.6250 0.3628(2)
C10_9 C 0.1799(13) 0.5855(3) 0.40296(18)
H6_9 H 0.2193 0.5592 0.4120
C11_9 C 0.1250 0.6250 0.4164(2)
C12_9 C 0.1250 0.6250 0.4453(2)
C13_9 C 0.273(2) 0.7931(4) 0.2779(2)
O5_9 O 0.3285(13) 0.8286(3) 0.28996(13)
C14_9 C 0.1168(18) 0.7177(4) 0.2842(2)
H7_9 H 0.0667 0.7225 0.2683
O6_9 O 0.2472(13) 0.7957(3) 0.25461(12)
C15_9 C 0.2283(16) 0.7496(4) 0.29306(19)
O7_5 O 0.0757(9) 0.6610(3) 0.45746(14)
C16_9 C 0.0783(17) 0.6775(4) 0.29945(19)
C17_9 C 0.2748(14) 0.6989(4) 0.33026(19)
H9_9 H 0.3290 0.6925 0.3457
C18_9 C 0.1611(13) 0.6674(3) 0.32108(17)
C19_9 C 0.3084(15) 0.7403(4) 0.31645(19)
H10_9 H 0.3841 0.7619 0.3227
C20_9 C 0.0734(14) 0.6650(3) 0.37591(18)
H11_9 H 0.0412 0.6921 0.3668
C21_9 C 0.0701(13) 0.6645(3) 0.40296(18)
H12_9 H 0.0307 0.6908 0.4120
U2_3 U 0.3750 0.8750 0.24995(2)
U3_5 U 0.1250 0.6250 0.49995(2)
U1_3 U 0.8750 0.3750 0.24995(2)
C1_7 C 0.977(2) 0.4569(4) 0.2779(2)
O2_4 O 0.9215(13) 0.4214(3) 0.28996(13)
C5_7 C 0.9752(14) 0.5511(4) 0.33026(19)
H3_7 H 0.9210 0.5575 0.3457
C7_7 C 0.9416(15) 0.5097(4) 0.31645(19)
H4_7 H 0.8659 0.4881 0.3227
H8_7 H 0.9941 0.6577 0.2944
O8_9 O 0.6854(13) 0.3989(4) 0.24970(17)
O9_4 O 0.8285(13) 0.3286(3) 0.28996(13)
O10_5 O 0.7472(13) 0.2957(3) 0.25461(12)
O11_5 O 0.9243(9) 0.4110(3) 0.20746(14)
O12_5 O 0.8257(9) 0.3390(3) 0.20746(14)
C1_8 C 0.773(2) 0.2931(4) 0.2779(2)
N1_10 N 0.6250 0.1250 0.3350(2)
C2_10 C 0.6168(18) 0.2177(4) 0.2842(2)
H1_10 H 0.5667 0.2225 0.2683
C3_10 C 0.7283(16) 0.2496(4) 0.29306(19)
O4_6 O 0.5757(9) 0.1610(3) 0.45746(14)
C4_10 C 0.5783(17) 0.1775(4) 0.29945(19)
H2_10 H 0.4941 0.1577 0.2944
C5_8 C 0.7748(14) 0.1989(4) 0.33026(19)
H3_8 H 0.8290 0.1925 0.3457
C6_10 C 0.6611(13) 0.1674(3) 0.32108(17)
C7_8 C 0.8084(15) 0.2403(4) 0.31645(19)
H4_8 H 0.8841 0.2619 0.3227
C8_10 C 0.5734(14) 0.1650(3) 0.37591(18)
H5_10 H 0.5412 0.1921 0.3668
C9_10 C 0.6250 0.1250 0.3628(2)
C10_10 C 0.5701(13) 0.1645(3) 0.40296(18)
H6_10 H 0.5307 0.1908 0.4120
C11_10 C 0.6250 0.1250 0.4164(2)
C12_10 C 0.6250 0.1250 0.4453(2)
C14_10 C 0.6332(18) 0.0323(4) 0.2842(2)
H7_10 H 0.6833 0.0275 0.2683
C15_10 C 0.5217(16) 0.0004(4) 0.29306(19)
O7_6 O 0.6743(9) 0.0890(3) 0.45746(14)
C16_10 C 0.6717(17) 0.0725(4) 0.29945(19)
H8_8 H 0.7559 0.0923 0.2944
C17_10 C 0.4752(14) 0.0511(4) 0.33026(19)
H9_10 H 0.4210 0.0575 0.3457
C18_10 C 0.5889(13) 0.0826(3) 0.32108(17)
C19_10 C 0.4416(15) 0.0097(4) 0.31645(19)
C20_10 C 0.6766(14) 0.0850(3) 0.37591(18)
H11_10 H 0.7088 0.0579 0.3668
C21_10 C 0.6799(13) 0.0855(3) 0.40296(18)
H12_10 H 0.7193 0.0592 0.4120
U3_6 U 0.6250 0.1250 0.49995(2)
C13_10 C 0.477(2) 0.9569(4) 0.2779(2)
O5_10 O 0.4215(13) 0.9214(3) 0.28996(13)
O6_10 O 0.5028(13) 0.9543(3) 0.25461(12)
H10_10 H 0.3659 0.9881 0.3227
N1_11 N 0.1250 0.1250 0.8350(2)
C2_11 C 0.1332(18) 0.0323(4) 0.7842(2)
H1_11 H 0.1833 0.0275 0.7683
C3_11 C 0.0217(16) 0.0004(4) 0.79306(19)
O4_7 O 0.1743(9) 0.0890(3) 0.95746(14)
C4_11 C 0.1717(17) 0.0725(4) 0.79945(19)
H2_11 H 0.2559 0.0923 0.7944
C6_11 C 0.0889(13) 0.0826(3) 0.82108(17)
C8_11 C 0.1766(14) 0.0850(3) 0.87591(18)
H5_11 H 0.2088 0.0579 0.8668
C9_11 C 0.1250 0.1250 0.8628(2)
C10_11 C 0.1799(13) 0.0855(3) 0.90296(18)
H6_11 H 0.2193 0.0592 0.9120
C11_11 C 0.1250 0.1250 0.9164(2)
C12_11 C 0.1250 0.1250 0.9453(2)
C13_11 C 0.273(2) 0.2931(4) 0.7779(2)
O5_11 O 0.3285(13) 0.3286(3) 0.78996(13)
C14_11 C 0.1168(18) 0.2177(4) 0.7842(2)
H7_11 H 0.0667 0.2225 0.7683
O6_11 O 0.2472(13) 0.2957(3) 0.75461(12)
C15_11 C 0.2283(16) 0.2496(4) 0.79306(19)
O7_7 O 0.0757(9) 0.1610(3) 0.95746(14)
C16_11 C 0.0783(17) 0.1775(4) 0.79945(19)
C17_11 C 0.2748(14) 0.1989(4) 0.83026(19)
H9_11 H 0.3290 0.1925 0.8457
C18_11 C 0.1611(13) 0.1674(3) 0.82108(17)
C19_11 C 0.3084(15) 0.2403(4) 0.81645(19)
H10_11 H 0.3841 0.2619 0.8227
C20_11 C 0.0734(14) 0.1650(3) 0.87591(18)
H11_11 H 0.0412 0.1921 0.8668
C21_11 C 0.0701(13) 0.1645(3) 0.90296(18)
H12_11 H 0.0307 0.1908 0.9120
U2_4 U 0.3750 0.3750 0.74995(2)
U3_7 U 0.1250 0.1250 0.99995(2)
U1_4 U 0.8750 0.8750 0.74995(2)
C1_9 C 0.977(2) 0.9569(4) 0.7779(2)
O2_5 O 0.9215(13) 0.9214(3) 0.78996(13)
H4_9 H 0.8659 0.9881 0.8227
O8_10 O 0.6854(13) 0.8989(4) 0.74970(17)
O9_5 O 0.8285(13) 0.8286(3) 0.78996(13)
O10_6 O 0.7472(13) 0.7957(3) 0.75461(12)
O11_6 O 0.9243(9) 0.9110(3) 0.70746(14)
O12_6 O 0.8257(9) 0.8390(3) 0.70746(14)
C1_10 C 0.773(2) 0.7931(4) 0.7779(2)
N1_12 N 0.6250 0.6250 0.8350(2)
C2_12 C 0.6168(18) 0.7177(4) 0.7842(2)
H1_12 H 0.5667 0.7225 0.7683
C3_12 C 0.7283(16) 0.7496(4) 0.79306(19)
O4_8 O 0.5757(9) 0.6610(3) 0.95746(14)
C4_12 C 0.5783(17) 0.6775(4) 0.79945(19)
H2_12 H 0.4941 0.6577 0.7944
C5_9 C 0.7748(14) 0.6989(4) 0.83026(19)
H3_9 H 0.8290 0.6925 0.8457
C6_12 C 0.6611(13) 0.6674(3) 0.82108(17)
C7_9 C 0.8084(15) 0.7403(4) 0.81645(19)
H4_10 H 0.8841 0.7619 0.8227
C8_12 C 0.5734(14) 0.6650(3) 0.87591(18)
H5_12 H 0.5412 0.6921 0.8668
C9_12 C 0.6250 0.6250 0.8628(2)
C10_12 C 0.5701(13) 0.6645(3) 0.90296(18)
H6_12 H 0.5307 0.6908 0.9120
C11_12 C 0.6250 0.6250 0.9164(2)
C12_12 C 0.6250 0.6250 0.9453(2)
C13_12 C 0.477(2) 0.4569(4) 0.7779(2)
O5_12 O 0.4215(13) 0.4214(3) 0.78996(13)
C14_12 C 0.6332(18) 0.5323(4) 0.7842(2)
H7_12 H 0.6833 0.5275 0.7683
O6_12 O 0.5028(13) 0.4543(3) 0.75461(12)
C15_12 C 0.5217(16) 0.5004(4) 0.79306(19)
O7_8 O 0.6743(9) 0.5890(3) 0.95746(14)
C16_12 C 0.6717(17) 0.5725(4) 0.79945(19)
H8_9 H 0.7559 0.5923 0.7944
C17_12 C 0.4752(14) 0.5511(4) 0.83026(19)
H9_12 H 0.4210 0.5575 0.8457
C18_12 C 0.5889(13) 0.5826(3) 0.82108(17)
C19_12 C 0.4416(15) 0.5097(4) 0.81645(19)
H10_12 H 0.3659 0.4881 0.8227
C20_12 C 0.6766(14) 0.5850(3) 0.87591(18)
H11_12 H 0.7088 0.5579 0.8668
C21_12 C 0.6799(13) 0.5855(3) 0.90296(18)
H12_12 H 0.7193 0.5592 0.9120
U3_8 U 0.6250 0.6250 0.99995(2)
O1_9 O 0.5646(13) 0.3511(4) 0.74970(17)
O8_11 O 0.1854(13) 0.3989(4) 0.74970(17)
O11_7 O 0.4243(9) 0.4110(3) 0.70746(14)
O12_7 O 0.3257(9) 0.3390(3) 0.70746(14)
O1_10 O 0.5646(13) 0.8511(4) 0.24970(17)
O8_12 O 0.1854(13) 0.8989(4) 0.24970(17)
O11_8 O 0.4243(9) 0.9110(3) 0.20746(14)
O12_8 O 0.3257(9) 0.8390(3) 0.20746(14)
O1_11 O 0.3146(13) 0.6489(4) 0.49970(17)
C1_11 C 0.227(2) 0.5431(4) 0.5279(2)
N1_13 N 0.3750 0.3750 0.5850(2)
O2_6 O 0.1715(13) 0.5786(3) 0.53996(13)
C2_13 C 0.3832(18) 0.4677(4) 0.5342(2)
H1_13 H 0.4333 0.4725 0.5183
O3_4 O 0.2528(13) 0.5457(3) 0.50461(12)
C3_13 C 0.2717(16) 0.4996(4) 0.54306(19)
C4_13 C 0.4217(17) 0.4275(4) 0.54945(19)
H2_13 H 0.5059 0.4077 0.5444
C5_10 C 0.2252(14) 0.4489(4) 0.58026(19)
H3_10 H 0.1710 0.4425 0.5957
C6_13 C 0.3389(13) 0.4174(3) 0.57108(17)
C7_10 C 0.1916(15) 0.4903(4) 0.56645(19)
H4_11 H 0.1159 0.5119 0.5727
C8_13 C 0.4266(14) 0.4150(3) 0.62591(18)
H5_13 H 0.4588 0.4421 0.6168
C9_13 C 0.3750 0.3750 0.6128(2)
C10_13 C 0.4299(13) 0.4145(3) 0.65296(18)
H6_13 H 0.4693 0.4408 0.6620
C11_13 C 0.3750 0.3750 0.6664(2)
C12_13 C 0.3750 0.3750 0.6953(2)
C13_13 C 0.523(2) 0.2069(4) 0.5279(2)
O5_13 O 0.5785(13) 0.1714(3) 0.53996(13)
C14_13 C 0.3668(18) 0.2823(4) 0.5342(2)
H7_13 H 0.3167 0.2775 0.5183
O6_13 O 0.4972(13) 0.2043(3) 0.50461(12)
C15_13 C 0.4783(16) 0.2504(4) 0.54306(19)
C16_13 C 0.3283(17) 0.3225(4) 0.54945(19)
H8_10 H 0.2441 0.3423 0.5444
C17_13 C 0.5248(14) 0.3011(4) 0.58026(19)
H9_13 H 0.5790 0.3075 0.5957
C18_13 C 0.4111(13) 0.3326(3) 0.57108(17)
C19_13 C 0.5584(15) 0.2597(4) 0.56645(19)
H10_13 H 0.6341 0.2381 0.5727
C20_13 C 0.3234(14) 0.3350(3) 0.62591(18)
H11_13 H 0.2912 0.3079 0.6168
C21_13 C 0.3201(13) 0.3355(3) 0.65296(18)
H12_13 H 0.2807 0.3092 0.6620
O9_6 O 0.0785(13) 0.6714(3) 0.53996(13)
O8_13 O 0.9354(13) 0.6011(4) 0.49970(17)
O10_7 O 0.9972(13) 0.7043(3) 0.50461(12)
C1_12 C 0.023(2) 0.7069(4) 0.5279(2)
C5_11 C 0.0248(14) 0.8011(4) 0.58026(19)
H3_11 H 0.0790 0.8075 0.5957
C7_11 C 0.0584(15) 0.7597(4) 0.56645(19)
H4_12 H 0.1341 0.7381 0.5727
H8_11 H 0.0059 0.9077 0.5444
C13_14 C 0.727(2) 0.0431(4) 0.5279(2)
O5_14 O 0.6715(13) 0.0786(3) 0.53996(13)
O6_14 O 0.7528(13) 0.0457(3) 0.50461(12)
H10_14 H 0.6159 0.0119 0.5727
N1_14 N 0.8750 0.8750 0.5850(2)
C2_14 C 0.8668(18) 0.7823(4) 0.5342(2)
H1_14 H 0.8167 0.7775 0.5183
C3_14 C 0.9783(16) 0.7504(4) 0.54306(19)
C4_14 C 0.8283(17) 0.8225(4) 0.54945(19)
H2_14 H 0.7441 0.8423 0.5444
C6_14 C 0.9111(13) 0.8326(3) 0.57108(17)
C8_14 C 0.8234(14) 0.8350(3) 0.62591(18)
H5_14 H 0.7912 0.8079 0.6168
C9_14 C 0.8750 0.8750 0.6128(2)
C10_14 C 0.8201(13) 0.8355(3) 0.65296(18)
H6_14 H 0.7807 0.8092 0.6620
C11_14 C 0.8750 0.8750 0.6664(2)
C12_14 C 0.8750 0.8750 0.6953(2)
C14_14 C 0.8832(18) 0.9677(4) 0.5342(2)
H7_14 H 0.9333 0.9725 0.5183
C15_14 C 0.7717(16) 0.9996(4) 0.54306(19)
C16_14 C 0.9217(17) 0.9275(4) 0.54945(19)
C17_14 C 0.7252(14) 0.9489(4) 0.58026(19)
H9_14 H 0.6710 0.9425 0.5957
C18_14 C 0.8389(13) 0.9174(3) 0.57108(17)
C19_14 C 0.6916(15) 0.9903(4) 0.56645(19)
C20_14 C 0.9266(14) 0.9150(3) 0.62591(18)
H11_14 H 0.9588 0.9421 0.6168
C21_14 C 0.9299(13) 0.9145(3) 0.65296(18)
H12_14 H 0.9693 0.9408 0.6620
O1_12 O 0.3146(13) 0.1489(4) 0.99970(17)
N1_15 N 0.3750 0.8750 0.0850(2)
C2_15 C 0.3832(18) 0.9677(4) 0.0342(2)
H1_15 H 0.4333 0.9725 0.0183
C3_15 C 0.2717(16) 0.9996(4) 0.04306(19)
C4_15 C 0.4217(17) 0.9275(4) 0.04945(19)
H2_15 H 0.5059 0.9077 0.0444
C5_12 C 0.2252(14) 0.9489(4) 0.08026(19)
H3_12 H 0.1710 0.9425 0.0957
C6_15 C 0.3389(13) 0.9174(3) 0.07108(17)
C7_12 C 0.1916(15) 0.9903(4) 0.06645(19)
C8_15 C 0.4266(14) 0.9150(3) 0.12591(18)
H5_15 H 0.4588 0.9421 0.1168
C9_15 C 0.3750 0.8750 0.1128(2)
C10_15 C 0.4299(13) 0.9145(3) 0.15296(18)
H6_15 H 0.4693 0.9408 0.1620
C11_15 C 0.3750 0.8750 0.1664(2)
C12_15 C 0.3750 0.8750 0.1953(2)
C13_15 C 0.523(2) 0.7069(4) 0.0279(2)
O5_15 O 0.5785(13) 0.6714(3) 0.03996(13)
C14_15 C 0.3668(18) 0.7823(4) 0.0342(2)
H7_15 H 0.3167 0.7775 0.0183
O6_15 O 0.4972(13) 0.7043(3) 0.00461(12)
C15_15 C 0.4783(16) 0.7504(4) 0.04306(19)
C16_15 C 0.3283(17) 0.8225(4) 0.04945(19)
H8_12 H 0.2441 0.8423 0.0444
C17_15 C 0.5248(14) 0.8011(4) 0.08026(19)
H9_15 H 0.5790 0.8075 0.0957
C18_15 C 0.4111(13) 0.8326(3) 0.07108(17)
C19_15 C 0.5584(15) 0.7597(4) 0.06645(19)
H10_15 H 0.6341 0.7381 0.0727
C20_15 C 0.3234(14) 0.8350(3) 0.12591(18)
H11_15 H 0.2912 0.8079 0.1168
C21_15 C 0.3201(13) 0.8355(3) 0.15296(18)
H12_15 H 0.2807 0.8092 0.1620
O10_8 O 0.9972(13) 0.2043(3) 0.00461(12)
O8_14 O 0.9354(13) 0.1011(4) 0.99970(17)
N1_16 N 0.8750 0.3750 0.0850(2)
C2_16 C 0.8668(18) 0.2823(4) 0.0342(2)
H1_16 H 0.8167 0.2775 0.0183
C3_16 C 0.9783(16) 0.2504(4) 0.04306(19)
C4_16 C 0.8283(17) 0.3225(4) 0.04945(19)
H2_16 H 0.7441 0.3423 0.0444
C6_16 C 0.9111(13) 0.3326(3) 0.07108(17)
C8_16 C 0.8234(14) 0.3350(3) 0.12591(18)
H5_16 H 0.7912 0.3079 0.1168
C9_16 C 0.8750 0.3750 0.1128(2)
C10_16 C 0.8201(13) 0.3355(3) 0.15296(18)
H6_16 H 0.7807 0.3092 0.1620
C11_16 C 0.8750 0.3750 0.1664(2)
C12_16 C 0.8750 0.3750 0.1953(2)
C13_16 C 0.727(2) 0.5431(4) 0.0279(2)
O5_16 O 0.6715(13) 0.5786(3) 0.03996(13)
C14_16 C 0.8832(18) 0.4677(4) 0.0342(2)
H7_16 H 0.9333 0.4725 0.0183
O6_16 O 0.7528(13) 0.5457(3) 0.00461(12)
C15_16 C 0.7717(16) 0.4996(4) 0.04306(19)
C16_16 C 0.9217(17) 0.4275(4) 0.04945(19)
C17_16 C 0.7252(14) 0.4489(4) 0.08026(19)
H9_16 H 0.6710 0.4425 0.0957
C18_16 C 0.8389(13) 0.4174(3) 0.07108(17)
C19_16 C 0.6916(15) 0.4903(4) 0.06645(19)
H10_16 H 0.6159 0.5119 0.0727
C20_16 C 0.9266(14) 0.4150(3) 0.12591(18)
H11_16 H 0.9588 0.4421 0.1168
C21_16 C 0.9299(13) 0.4145(3) 0.15296(18)
H12_16 H 0.9693 0.4408 0.1620
O1_13 O 0.8146(13) 0.6489(4) 0.99970(17)
O8_15 O 0.4354(13) 0.6011(4) 0.99970(17)
O1_14 O 0.8146(13) 0.1489(4) 0.49970(17)
O8_16 O 0.4354(13) 0.1011(4) 0.49970(17)
C1_13 C 0.773(2) 0.9569(4) 0.9721(2)
O2_7 O 0.8285(13) 0.9214(3) 0.96004(13)
O3_5 O 0.7472(13) 0.9543(3) 0.99539(12)
H4_13 H 0.8841 0.9881 0.9273
O9_7 O 0.9215(13) 0.8286(3) 0.96004(13)
C1_14 C 0.977(2) 0.7931(4) 0.9721(2)
C5_13 C 0.9752(14) 0.6989(4) 0.91974(19)
H3_13 H 0.9210 0.6925 0.9043
C7_13 C 0.9416(15) 0.7403(4) 0.93355(19)
H4_14 H 0.8659 0.7619 0.9273
H8_13 H 0.9941 0.5923 0.9556
O1_15 O 0.0646(13) 0.8511(4) 0.74970(17)
O3_6 O 0.0028(13) 0.9543(3) 0.75461(12)
C5_14 C 0.9752(14) 0.0511(4) 0.83026(19)
H3_14 H 0.9210 0.0575 0.8457
C7_14 C 0.9416(15) 0.0097(4) 0.81645(19)
H8_14 H 0.9941 0.1577 0.7944
C1_15 C 0.227(2) 0.0431(4) 0.0279(2)
O2_8 O 0.1715(13) 0.0786(3) 0.03996(13)
O3_7 O 0.2528(13) 0.0457(3) 0.00461(12)
H4_15 H 0.1159 0.0119 0.0727
O9_8 O 0.0785(13) 0.1714(3) 0.03996(13)
C1_16 C 0.023(2) 0.2069(4) 0.0279(2)
C5_15 C 0.0248(14) 0.3011(4) 0.08026(19)
H3_15 H 0.0790 0.3075 0.0957
C7_15 C 0.0584(15) 0.2597(4) 0.06645(19)
H4_16 H 0.1341 0.2381 0.0727
H8_15 H 0.0059 0.4077 0.0444
C5_16 C 0.0248(14) 0.9489(4) 0.16974(19)
H3_16 H 0.0790 0.9425 0.1543
C7_16 C 0.0584(15) 0.9903(4) 0.18355(19)
H8_16 H 0.0059 0.8423 0.2056
O1_16 O 0.9354(13) 0.1489(4) 0.25030(17)
O3_8 O 0.9972(13) 0.0457(3) 0.24539(12)
loop_
_geom_bond_atom_site_label_1
_geom_bond_atom_site_label_2
_geom_bond_site_symmetry_1
_geom_bond_site_symmetry_2
U1 O1 1_555 1_555
C1 O2 1_555 1_555
N1 C6 1_555 1_555
O2 U1 1_555 1_555
C2 H1 1_555 1_555
O3 U1 1_555 1_555
C3 C1 1_555 1_555
O4 C12 1_555 1_555
C4 C2 1_555 1_555
H2 C4 1_555 1_555
C5 H3 1_555 1_555
C6 C4 1_555 1_555
C7 C3 1_555 1_555
H4 C7 1_555 1_555
C8 H5 1_555 1_555
C9 N1 1_555 1_555
C10 C8 1_555 1_555
H6 C10 1_555 1_555
C11 C10 1_555 1_555
C12 C11 1_555 1_555
C13 O5 1_555 1_555
O5 U2 1_555 1_555
C14 H7 1_555 1_555
O6 C13 1_555 1_555
C15 C13 1_555 1_555
O7 C12 1_555 1_555
C16 C14 1_555 1_555
H8 C16 1_555 1_555
C17 H9 1_555 1_555
C18 N1 1_555 1_555
C19 C15 1_555 1_555
H10 C19 1_555 1_555
C20 C9 1_555 1_555
H11 C20 1_555 1_555
C21 C11 1_555 1_555
H12 C21 1_555 1_555
U2 O6 1_555 1_555
U3 O4 1_555 1_555
O9 U1 1_555 1_555
O11 U1 1_555 1_555
O12 U1 1_555 1_555
C1 O3 1_555 1_555
C2 C3 1_555 1_555
C5 C6 1_555 1_555
C5 C7 1_555 1_555
C8 C9 1_555 1_555
C14 C15 1_555 1_555
O7 U3 1_555 1_555
C16 C18 1_555 1_555
C17 C18 1_555 1_555
C17 C19 1_555 1_555
C20 C21 1_555 1_555
N1_2 C6_2 1_555 1_555
C2_2 H1_2 1_555 1_555
O4_2 C12_2 1_555 1_555
C4_2 C2_2 1_555 1_555
H2_2 C4_2 1_555 1_555
C6_2 C4_2 1_555 1_555
C8_2 H5_2 1_555 1_555
C9_2 N1_2 1_555 1_555
C10_2 C8_2 1_555 1_555
H6_2 C10_2 1_555 1_555
C11_2 C10_2 1_555 1_555
C12_2 C11_2 1_555 1_555
C14_2 H7_2 1_555 1_555
O7_2 C12_2 1_555 1_555
C16_2 C14_2 1_555 1_555
C17_2 H9_2 1_555 1_555
C18_2 N1_2 1_555 1_555
C19_2 C15_2 1_555 1_555
C20_2 C9_2 1_555 1_555
H11_2 C20_2 1_555 1_555
C21_2 C11_2 1_555 1_555
H12_2 C21_2 1_555 1_555
U3_2 O4_2 1_555 1_555
C2_2 C3_2 1_555 1_555
C8_2 C9_2 1_555 1_555
C14_2 C15_2 1_555 1_555
O7_2 U3_2 1_555 1_555
C16_2 C18_2 1_555 1_555
C17_2 C18_2 1_555 1_555
C17_2 C19_2 1_555 1_555
C20_2 C21_2 1_555 1_555
C13_2 O5_2 1_555 1_555
O5_2 U2 1_555 1_555
O6_2 C13_2 1_555 1_555
U2 O6_2 1_555 1_555
C1_2 O9 1_555 1_555
C5_2 H3_2 1_555 1_555
H4_2 C7_2 1_555 1_555
C5_2 C7_2 1_555 1_555
N1_3 C6_3 1_555 1_555
C2_3 H1_3 1_555 1_555
O4_3 C12_3 1_555 1_555
C4_3 C2_3 1_555 1_555
H2_3 C4_3 1_555 1_555
C5_3 H3_3 1_555 1_555
C6_3 C4_3 1_555 1_555
C7_3 C3_3 1_555 1_555
C8_3 H5_3 1_555 1_555
C9_3 N1_3 1_555 1_555
C10_3 C8_3 1_555 1_555
H6_3 C10_3 1_555 1_555
C11_3 C10_3 1_555 1_555
C12_3 C11_3 1_555 1_555
C13_3 O5_3 1_555 1_555
C14_3 H7_3 1_555 1_555
O6_3 C13_3 1_555 1_555
C15_3 C13_3 1_555 1_555
O7_3 C12_3 1_555 1_555
C16_3 C14_3 1_555 1_555
H8_3 C16_3 1_555 1_555
C17_3 H9_3 1_555 1_555
C18_3 N1_3 1_555 1_555
C19_3 C15_3 1_555 1_555
H10_3 C19_3 1_555 1_555
C20_3 C9_3 1_555 1_555
H11_3 C20_3 1_555 1_555
C21_3 C11_3 1_555 1_555
H12_3 C21_3 1_555 1_555
U3_3 O4_3 1_555 1_555
C2_3 C3_3 1_555 1_555
C5_3 C6_3 1_555 1_555
C5_3 C7_3 1_555 1_555
C8_3 C9_3 1_555 1_555
C14_3 C15_3 1_555 1_555
O7_3 U3_3 1_555 1_555
C16_3 C18_3 1_555 1_555
C17_3 C18_3 1_555 1_555
C17_3 C19_3 1_555 1_555
C20_3 C21_3 1_555 1_555
U1_2 O1_2 1_555 1_555
O11_2 U1_2 1_555 1_555
O12_2 U1_2 1_555 1_555
N1_4 C6_4 1_555 1_555
C2_4 H1_4 1_555 1_555
O4_4 C12_4 1_555 1_555
C4_4 C2_4 1_555 1_555
H2_4 C4_4 1_555 1_555
C6_4 C4_4 1_555 1_555
C8_4 H5_4 1_555 1_555
C9_4 N1_4 1_555 1_555
C10_4 C8_4 1_555 1_555
H6_4 C10_4 1_555 1_555
C11_4 C10_4 1_555 1_555
C12_4 C11_4 1_555 1_555
C13_4 O5_4 1_555 1_555
C14_4 H7_4 1_555 1_555
O6_4 C13_4 1_555 1_555
C15_4 C13_4 1_555 1_555
O7_4 C12_4 1_555 1_555
C16_4 C14_4 1_555 1_555
C17_4 H9_4 1_555 1_555
C18_4 N1_4 1_555 1_555
C19_4 C15_4 1_555 1_555
H10_4 C19_4 1_555 1_555
C20_4 C9_4 1_555 1_555
H11_4 C20_4 1_555 1_555
C21_4 C11_4 1_555 1_555
H12_4 C21_4 1_555 1_555
U3_4 O4_4 1_555 1_555
C2_4 C3_4 1_555 1_555
C8_4 C9_4 1_555 1_555
C14_4 C15_4 1_555 1_555
O7_4 U3_4 1_555 1_555
C16_4 C18_4 1_555 1_555
C17_4 C18_4 1_555 1_555
C17_4 C19_4 1_555 1_555
C20_4 C21_4 1_555 1_555
U2_2 O1_3 1_555 1_555
O8_3 U2_2 1_555 1_555
O11_3 U2_2 1_555 1_555
O12_3 U2_2 1_555 1_555
U2 O1_4 1_555 1_555
O8_4 U2 1_555 1_555
O11_4 U2 1_555 1_555
O12_4 U2 1_555 1_555
C1_3 O2_2 1_555 1_555
O2_2 U3_4 1_555 1_555
C5_4 H3_4 1_555 1_555
H4_3 C7_4 1_555 1_555
O8_5 U3_4 1_555 1_555
O9_2 U3_4 1_555 1_555
O10_3 U3_4 1_555 1_555
C5_4 C7_4 1_555 1_555
N1_5 C6_5 1_555 1_555
C2_5 H1_5 1_555 1_555
O11 C12_5 1_555 1_555
C4_5 C2_5 1_555 1_555
H2_5 C4_5 1_555 1_555
C6_5 C4_5 1_555 1_555
C8_5 H5_5 1_555 1_555
C9_5 N1_5 1_555 1_555
C10_5 C8_5 1_555 1_555
H6_5 C10_5 1_555 1_555
C11_5 C10_5 1_555 1_555
C12_5 C11_5 1_555 1_555
C13_5 O5_5 1_555 1_555
O5_5 U3_3 1_555 1_555
C14_5 H7_5 1_555 1_555
O6_5 C13_5 1_555 1_555
C15_5 C13_5 1_555 1_555
O12 C12_5 1_555 1_555
C16_5 C14_5 1_555 1_555
C17_5 H9_5 1_555 1_555
C18_5 N1_5 1_555 1_555
C19_5 C15_5 1_555 1_555
H10_5 C19_5 1_555 1_555
C20_5 C9_5 1_555 1_555
H11_5 C20_5 1_555 1_555
C21_5 C11_5 1_555 1_555
H12_5 C21_5 1_555 1_555
U3_3 O6_5 1_555 1_555
C2_5 C3_5 1_555 1_555
C8_5 C9_5 1_555 1_555
C14_5 C15_5 1_555 1_555
C16_5 C18_5 1_555 1_555
C17_5 C18_5 1_555 1_555
C17_5 C19_5 1_555 1_555
C20_5 C21_5 1_555 1_555
C13_6 O5_6 1_555 1_555
O5_6 U3_3 1_555 1_555
O6_6 C13_6 1_555 1_555
U3_3 O6_6 1_555 1_555
C1_4 O9_2 1_555 1_555
N1_6 C6_6 1_555 1_555
C2_6 H1_6 1_555 1_555
C3_6 C1_4 1_555 1_555
O12_4 C12_6 1_555 1_555
C4_6 C2_6 1_555 1_555
H2_6 C4_6 1_555 1_555
C5_5 H3_5 1_555 1_555
C6_6 C4_6 1_555 1_555
C7_5 C3_6 1_555 1_555
H4_4 C7_5 1_555 1_555
C8_6 H5_6 1_555 1_555
C9_6 N1_6 1_555 1_555
C10_6 C8_6 1_555 1_555
H6_6 C10_6 1_555 1_555
C11_6 C10_6 1_555 1_555
C12_6 C11_6 1_555 1_555
C14_6 H7_6 1_555 1_555
O11_4 C12_6 1_555 1_555
C16_6 C14_6 1_555 1_555
H8_5 C16_6 1_555 1_555
C17_6 H9_6 1_555 1_555
C18_6 N1_6 1_555 1_555
C19_6 C15_6 1_555 1_555
C20_6 C9_6 1_555 1_555
H11_6 C20_6 1_555 1_555
C21_6 C11_6 1_555 1_555
H12_6 C21_6 1_555 1_555
C1_4 O10_3 1_555 1_555
C2_6 C3_6 1_555 1_555
C5_5 C6_6 1_555 1_555
C5_5 C7_5 1_555 1_555
C8_6 C9_6 1_555 1_555
C14_6 C15_6 1_555 1_555
C16_6 C18_6 1_555 1_555
C17_6 C18_6 1_555 1_555
C17_6 C19_6 1_555 1_555
C20_6 C21_6 1_555 1_555
C1_5 O2_3 1_555 1_555
O2_3 U3_2 1_555 1_555
O8_6 U3_2 1_555 1_555
O9_3 U3_2 1_555 1_555
O10_4 U3_2 1_555 1_555
N1_7 C6_7 1_555 1_555
C2_7 H1_7 1_555 1_555
O11_2 C12_7 1_555 1_555
C4_7 C2_7 1_555 1_555
H2_7 C4_7 1_555 1_555
C6_7 C4_7 1_555 1_555
C8_7 H5_7 1_555 1_555
C9_7 N1_7 1_555 1_555
C10_7 C8_7 1_555 1_555
H6_7 C10_7 1_555 1_555
C11_7 C10_7 1_555 1_555
C12_7 C11_7 1_555 1_555
C13_7 O5_7 1_555 1_555
O5_7 U3 1_555 1_555
C14_7 H7_7 1_555 1_555
O6_7 C13_7 1_555 1_555
C15_7 C13_7 1_555 1_555
O12_2 C12_7 1_555 1_555
C16_7 C14_7 1_555 1_555
C17_7 H9_7 1_555 1_555
C18_7 N1_7 1_555 1_555
C19_7 C15_7 1_555 1_555
H10_7 C19_7 1_555 1_555
C20_7 C9_7 1_555 1_555
H11_7 C20_7 1_555 1_555
C21_7 C11_7 1_555 1_555
H12_7 C21_7 1_555 1_555
U3 O6_7 1_555 1_555
C2_7 C3_7 1_555 1_555
C8_7 C9_7 1_555 1_555
C14_7 C15_7 1_555 1_555
C16_7 C18_7 1_555 1_555
C17_7 C18_7 1_555 1_555
C17_7 C19_7 1_555 1_555
C20_7 C21_7 1_555 1_555
C1_6 O9_3 1_555 1_555
N1_8 C6_8 1_555 1_555
C2_8 H1_8 1_555 1_555
C3_8 C1_6 1_555 1_555
O12_3 C12_8 1_555 1_555
C4_8 C2_8 1_555 1_555
H2_8 C4_8 1_555 1_555
C5_6 H3_6 1_555 1_555
C6_8 C4_8 1_555 1_555
C7_6 C3_8 1_555 1_555
H4_6 C7_6 1_555 1_555
C8_8 H5_8 1_555 1_555
C9_8 N1_8 1_555 1_555
C10_8 C8_8 1_555 1_555
H6_8 C10_8 1_555 1_555
C11_8 C10_8 1_555 1_555
C12_8 C11_8 1_555 1_555
C13_8 O5_8 1_555 1_555
O5_8 U3 1_555 1_555
C14_8 H7_8 1_555 1_555
O6_8 C13_8 1_555 1_555
C15_8 C13_8 1_555 1_555
O11_3 C12_8 1_555 1_555
C16_8 C14_8 1_555 1_555
H8_6 C16_8 1_555 1_555
C17_8 H9_8 1_555 1_555
C18_8 N1_8 1_555 1_555
C19_8 C15_8 1_555 1_555
H10_8 C19_8 1_555 1_555
C20_8 C9_8 1_555 1_555
H11_8 C20_8 1_555 1_555
C21_8 C11_8 1_555 1_555
H12_8 C21_8 1_555 1_555
U3 O6_8 1_555 1_555
C1_6 O10_4 1_555 1_555
C2_8 C3_8 1_555 1_555
C5_6 C6_8 1_555 1_555
C5_6 C7_6 1_555 1_555
C8_8 C9_8 1_555 1_555
C14_8 C15_8 1_555 1_555
C16_8 C18_8 1_555 1_555
C17_8 C18_8 1_555 1_555
C17_8 C19_8 1_555 1_555
C20_8 C21_8 1_555 1_555
U3 O1_6 1_555 1_555
O8_7 U3 1_555 1_555
U3_3 O1_7 1_555 1_555
O8_8 U3_3 1_555 1_555
N1_9 C6_9 1_555 1_555
C2_9 H1_9 1_555 1_555
O4_5 C12_9 1_555 1_555
C4_9 C2_9 1_555 1_555
H2_9 C4_9 1_555 1_555
C6_9 C4_9 1_555 1_555
C8_9 H5_9 1_555 1_555
C9_9 N1_9 1_555 1_555
C10_9 C8_9 1_555 1_555
H6_9 C10_9 1_555 1_555
C11_9 C10_9 1_555 1_555
C12_9 C11_9 1_555 1_555
C13_9 O5_9 1_555 1_555
O5_9 U2_3 1_555 1_555
C14_9 H7_9 1_555 1_555
O6_9 C13_9 1_555 1_555
C15_9 C13_9 1_555 1_555
O7_5 C12_9 1_555 1_555
C16_9 C14_9 1_555 1_555
C17_9 H9_9 1_555 1_555
C18_9 N1_9 1_555 1_555
C19_9 C15_9 1_555 1_555
H10_9 C19_9 1_555 1_555
C20_9 C9_9 1_555 1_555
H11_9 C20_9 1_555 1_555
C21_9 C11_9 1_555 1_555
H12_9 C21_9 1_555 1_555
U2_3 O6_9 1_555 1_555
U3_5 O4_5 1_555 1_555
C2_9 C3_9 1_555 1_555
C8_9 C9_9 1_555 1_555
C14_9 C15_9 1_555 1_555
O7_5 U3_5 1_555 1_555
C16_9 C18_9 1_555 1_555
C17_9 C18_9 1_555 1_555
C17_9 C19_9 1_555 1_555
C20_9 C21_9 1_555 1_555
C1_7 O2_4 1_555 1_555
O2_4 U1_3 1_555 1_555
C5_7 H3_7 1_555 1_555
H4_7 C7_7 1_555 1_555
O8_9 U1_3 1_555 1_555
O9_4 U1_3 1_555 1_555
O10_5 U1_3 1_555 1_555
O11_5 U1_3 1_555 1_555
O12_5 U1_3 1_555 1_555
C5_7 C7_7 1_555 1_555
C1_8 O9_4 1_555 1_555
N1_10 C6_10 1_555 1_555
C2_10 H1_10 1_555 1_555
C3_10 C1_8 1_555 1_555
O4_6 C12_10 1_555 1_555
C4_10 C2_10 1_555 1_555
H2_10 C4_10 1_555 1_555
C5_8 H3_8 1_555 1_555
C6_10 C4_10 1_555 1_555
C7_8 C3_10 1_555 1_555
H4_8 C7_8 1_555 1_555
C8_10 H5_10 1_555 1_555
C9_10 N1_10 1_555 1_555
C10_10 C8_10 1_555 1_555
H6_10 C10_10 1_555 1_555
C11_10 C10_10 1_555 1_555
C12_10 C11_10 1_555 1_555
C14_10 H7_10 1_555 1_555
O7_6 C12_10 1_555 1_555
C16_10 C14_10 1_555 1_555
H8_8 C16_10 1_555 1_555
C17_10 H9_10 1_555 1_555
C18_10 N1_10 1_555 1_555
C19_10 C15_10 1_555 1_555
C20_10 C9_10 1_555 1_555
H11_10 C20_10 1_555 1_555
C21_10 C11_10 1_555 1_555
H12_10 C21_10 1_555 1_555
U3_6 O4_6 1_555 1_555
C1_8 O10_5 1_555 1_555
C2_10 C3_10 1_555 1_555
C5_8 C6_10 1_555 1_555
C5_8 C7_8 1_555 1_555
C8_10 C9_10 1_555 1_555
C14_10 C15_10 1_555 1_555
O7_6 U3_6 1_555 1_555
C16_10 C18_10 1_555 1_555
C17_10 C18_10 1_555 1_555
C17_10 C19_10 1_555 1_555
C20_10 C21_10 1_555 1_555
C13_10 O5_10 1_555 1_555
O5_10 U2_3 1_555 1_555
O6_10 C13_10 1_555 1_555
U2_3 O6_10 1_555 1_555
N1_11 C6_11 1_555 1_555
C2_11 H1_11 1_555 1_555
O4_7 C12_11 1_555 1_555
C4_11 C2_11 1_555 1_555
H2_11 C4_11 1_555 1_555
C6_11 C4_11 1_555 1_555
C8_11 H5_11 1_555 1_555
C9_11 N1_11 1_555 1_555
C10_11 C8_11 1_555 1_555
H6_11 C10_11 1_555 1_555
C11_11 C10_11 1_555 1_555
C12_11 C11_11 1_555 1_555
C13_11 O5_11 1_555 1_555
O5_11 U2_4 1_555 1_555
C14_11 H7_11 1_555 1_555
O6_11 C13_11 1_555 1_555
C15_11 C13_11 1_555 1_555
O7_7 C12_11 1_555 1_555
C16_11 C14_11 1_555 1_555
C17_11 H9_11 1_555 1_555
C18_11 N1_11 1_555 1_555
C19_11 C15_11 1_555 1_555
H10_11 C19_11 1_555 1_555
C20_11 C9_11 1_555 1_555
H11_11 C20_11 1_555 1_555
C21_11 C11_11 1_555 1_555
H12_11 C21_11 1_555 1_555
U2_4 O6_11 1_555 1_555
U3_7 O4_7 1_555 1_555
C2_11 C3_11 1_555 1_555
C8_11 C9_11 1_555 1_555
C14_11 C15_11 1_555 1_555
O7_7 U3_7 1_555 1_555
C16_11 C18_11 1_555 1_555
C17_11 C18_11 1_555 1_555
C17_11 C19_11 1_555 1_555
C20_11 C21_11 1_555 1_555
C1_9 O2_5 1_555 1_555
O2_5 U1_4 1_555 1_555
O8_10 U1_4 1_555 1_555
O9_5 U1_4 1_555 1_555
O10_6 U1_4 1_555 1_555
O11_6 U1_4 1_555 1_555
O12_6 U1_4 1_555 1_555
C1_10 O9_5 1_555 1_555
N1_12 C6_12 1_555 1_555
C2_12 H1_12 1_555 1_555
C3_12 C1_10 1_555 1_555
O4_8 C12_12 1_555 1_555
C4_12 C2_12 1_555 1_555
H2_12 C4_12 1_555 1_555
C5_9 H3_9 1_555 1_555
C6_12 C4_12 1_555 1_555
C7_9 C3_12 1_555 1_555
H4_10 C7_9 1_555 1_555
C8_12 H5_12 1_555 1_555
C9_12 N1_12 1_555 1_555
C10_12 C8_12 1_555 1_555
H6_12 C10_12 1_555 1_555
C11_12 C10_12 1_555 1_555
C12_12 C11_12 1_555 1_555
C13_12 O5_12 1_555 1_555
O5_12 U2_4 1_555 1_555
C14_12 H7_12 1_555 1_555
O6_12 C13_12 1_555 1_555
C15_12 C13_12 1_555 1_555
O7_8 C12_12 1_555 1_555
C16_12 C14_12 1_555 1_555
H8_9 C16_12 1_555 1_555
C17_12 H9_12 1_555 1_555
C18_12 N1_12 1_555 1_555
C19_12 C15_12 1_555 1_555
H10_12 C19_12 1_555 1_555
C20_12 C9_12 1_555 1_555
H11_12 C20_12 1_555 1_555
C21_12 C11_12 1_555 1_555
H12_12 C21_12 1_555 1_555
U2_4 O6_12 1_555 1_555
U3_8 O4_8 1_555 1_555
C1_10 O10_6 1_555 1_555
C2_12 C3_12 1_555 1_555
C5_9 C6_12 1_555 1_555
C5_9 C7_9 1_555 1_555
C8_12 C9_12 1_555 1_555
C14_12 C15_12 1_555 1_555
O7_8 U3_8 1_555 1_555
C16_12 C18_12 1_555 1_555
C17_12 C18_12 1_555 1_555
C17_12 C19_12 1_555 1_555
C20_12 C21_12 1_555 1_555
U2_4 O1_9 1_555 1_555
O8_11 U2_4 1_555 1_555
O11_7 U2_4 1_555 1_555
O12_7 U2_4 1_555 1_555
U2_3 O1_10 1_555 1_555
O8_12 U2_3 1_555 1_555
O11_8 U2_3 1_555 1_555
O12_8 U2_3 1_555 1_555
U3_5 O1_11 1_555 1_555
C1_11 O2_6 1_555 1_555
N1_13 C6_13 1_555 1_555
O2_6 U3_5 1_555 1_555
C2_13 H1_13 1_555 1_555
O3_4 U3_5 1_555 1_555
C3_13 C1_11 1_555 1_555
O11_7 C12_13 1_555 1_555
C4_13 C2_13 1_555 1_555
H2_13 C4_13 1_555 1_555
C5_10 H3_10 1_555 1_555
C6_13 C4_13 1_555 1_555
C7_10 C3_13 1_555 1_555
H4_11 C7_10 1_555 1_555
C8_13 H5_13 1_555 1_555
C9_13 N1_13 1_555 1_555
C10_13 C8_13 1_555 1_555
H6_13 C10_13 1_555 1_555
C11_13 C10_13 1_555 1_555
C12_13 C11_13 1_555 1_555
C13_13 O5_13 1_555 1_555
O5_13 U3_6 1_555 1_555
C14_13 H7_13 1_555 1_555
O6_13 C13_13 1_555 1_555
C15_13 C13_13 1_555 1_555
O12_7 C12_13 1_555 1_555
C16_13 C14_13 1_555 1_555
H8_10 C16_13 1_555 1_555
C17_13 H9_13 1_555 1_555
C18_13 N1_13 1_555 1_555
C19_13 C15_13 1_555 1_555
H10_13 C19_13 1_555 1_555
C20_13 C9_13 1_555 1_555
H11_13 C20_13 1_555 1_555
C21_13 C11_13 1_555 1_555
H12_13 C21_13 1_555 1_555
U3_6 O6_13 1_555 1_555
O9_6 U3_5 1_555 1_555
C1_11 O3_4 1_555 1_555
C2_13 C3_13 1_555 1_555
C5_10 C6_13 1_555 1_555
C5_10 C7_10 1_555 1_555
C8_13 C9_13 1_555 1_555
C14_13 C15_13 1_555 1_555
C16_13 C18_13 1_555 1_555
C17_13 C18_13 1_555 1_555
C17_13 C19_13 1_555 1_555
C20_13 C21_13 1_555 1_555
C1_12 O9_6 1_555 1_555
C5_11 H3_11 1_555 1_555
H4_12 C7_11 1_555 1_555
C5_11 C7_11 1_555 1_555
C13_14 O5_14 1_555 1_555
O5_14 U3_6 1_555 1_555
O6_14 C13_14 1_555 1_555
U3_6 O6_14 1_555 1_555
N1_14 C6_14 1_555 1_555
C2_14 H1_14 1_555 1_555
O12_6 C12_14 1_555 1_555
C4_14 C2_14 1_555 1_555
H2_14 C4_14 1_555 1_555
C6_14 C4_14 1_555 1_555
C8_14 H5_14 1_555 1_555
C9_14 N1_14 1_555 1_555
C10_14 C8_14 1_555 1_555
H6_14 C10_14 1_555 1_555
C11_14 C10_14 1_555 1_555
C12_14 C11_14 1_555 1_555
C14_14 H7_14 1_555 1_555
O11_6 C12_14 1_555 1_555
C16_14 C14_14 1_555 1_555
C17_14 H9_14 1_555 1_555
C18_14 N1_14 1_555 1_555
C19_14 C15_14 1_555 1_555
C20_14 C9_14 1_555 1_555
H11_14 C20_14 1_555 1_555
C21_14 C11_14 1_555 1_555
H12_14 C21_14 1_555 1_555
C2_14 C3_14 1_555 1_555
C8_14 C9_14 1_555 1_555
C14_14 C15_14 1_555 1_555
C16_14 C18_14 1_555 1_555
C17_14 C18_14 1_555 1_555
C17_14 C19_14 1_555 1_555
C20_14 C21_14 1_555 1_555
U3_7 O1_12 1_555 1_555
N1_15 C6_15 1_555 1_555
C2_15 H1_15 1_555 1_555
O11_8 C12_15 1_555 1_555
C4_15 C2_15 1_555 1_555
H2_15 C4_15 1_555 1_555
C5_12 H3_12 1_555 1_555
C6_15 C4_15 1_555 1_555
C7_12 C3_15 1_555 1_555
C8_15 H5_15 1_555 1_555
C9_15 N1_15 1_555 1_555
C10_15 C8_15 1_555 1_555
H6_15 C10_15 1_555 1_555
C11_15 C10_15 1_555 1_555
C12_15 C11_15 1_555 1_555
C13_15 O5_15 1_555 1_555
C14_15 H7_15 1_555 1_555
O6_15 C13_15 1_555 1_555
C15_15 C13_15 1_555 1_555
O12_8 C12_15 1_555 1_555
C16_15 C14_15 1_555 1_555
H8_12 C16_15 1_555 1_555
C17_15 H9_15 1_555 1_555
C18_15 N1_15 1_555 1_555
C19_15 C15_15 1_555 1_555
H10_15 C19_15 1_555 1_555
C20_15 C9_15 1_555 1_555
H11_15 C20_15 1_555 1_555
C21_15 C11_15 1_555 1_555
H12_15 C21_15 1_555 1_555
C2_15 C3_15 1_555 1_555
C5_12 C6_15 1_555 1_555
C5_12 C7_12 1_555 1_555
C8_15 C9_15 1_555 1_555
C14_15 C15_15 1_555 1_555
C16_15 C18_15 1_555 1_555
C17_15 C18_15 1_555 1_555
C17_15 C19_15 1_555 1_555
C20_15 C21_15 1_555 1_555
N1_16 C6_16 1_555 1_555
C2_16 H1_16 1_555 1_555
O12_5 C12_16 1_555 1_555
C4_16 C2_16 1_555 1_555
H2_16 C4_16 1_555 1_555
C6_16 C4_16 1_555 1_555
C8_16 H5_16 1_555 1_555
C9_16 N1_16 1_555 1_555
C10_16 C8_16 1_555 1_555
H6_16 C10_16 1_555 1_555
C11_16 C10_16 1_555 1_555
C12_16 C11_16 1_555 1_555
C13_16 O5_16 1_555 1_555
C14_16 H7_16 1_555 1_555
O6_16 C13_16 1_555 1_555
C15_16 C13_16 1_555 1_555
O11_5 C12_16 1_555 1_555
C16_16 C14_16 1_555 1_555
C17_16 H9_16 1_555 1_555
C18_16 N1_16 1_555 1_555
C19_16 C15_16 1_555 1_555
H10_16 C19_16 1_555 1_555
C20_16 C9_16 1_555 1_555
H11_16 C20_16 1_555 1_555
C21_16 C11_16 1_555 1_555
H12_16 C21_16 1_555 1_555
C2_16 C3_16 1_555 1_555
C8_16 C9_16 1_555 1_555
C14_16 C15_16 1_555 1_555
C16_16 C18_16 1_555 1_555
C17_16 C18_16 1_555 1_555
C17_16 C19_16 1_555 1_555
C20_16 C21_16 1_555 1_555
U3_8 O1_13 1_555 1_555
O8_15 U3_8 1_555 1_555
U3_6 O1_14 1_555 1_555
O8_16 U3_6 1_555 1_555
C1_13 O2_7 1_555 1_555
C1_13 O3_5 1_555 1_555
C1_14 O9_7 1_555 1_555
C5_13 H3_13 1_555 1_555
H4_14 C7_13 1_555 1_555
C5_13 C7_13 1_555 1_555
C5_14 H3_14 1_555 1_555
C5_14 C7_14 1_555 1_555
C1_15 O2_8 1_555 1_555
C1_15 O3_7 1_555 1_555
C1_16 O9_8 1_555 1_555
C5_15 H3_15 1_555 1_555
H4_16 C7_15 1_555 1_555
C5_15 C7_15 1_555 1_555
C5_16 H3_16 1_555 1_555
C5_16 C7_16 1_555 1_555

#END
