
###############################################################################
#
# This file contains modified crystal structure data generated from the
# MOF subset of the Cambridge Structural Database (CSD) v543 
# hosted by the Cambridge Crystallographic Data Centre (CCDC).
#
# This work is licensed under the Creative Commons
# Attribution-NonCommercial-ShareAlike 4.0 International License.
# To view a copy of this license, visit
# http://creativecommons.org/licenses/by-nc-sa/4.0/
# or send a letter to
# Creative Commons, PO Box 1866, Mountain View, CA 94042, USA.
#
# CIF created using the CSD Python API on 29 September 2022
# The structure has been converted into the P1 space group
# The structure has a 3D framework
# The original CSD entry BIGWOG is in the cubic crystal system
# The original CSD entry BIGWOG is in a Sohncke space group
# The framework has been calculated to contain at least 10.0% void space
# The void calculation uses a probe of radius 1.32A, grid spacing 0.4
# H atom positions have been added when not included in the experimental data
# Generated hydrogen atom positions removed from atoms on special positions
#
###############################################################################

data_BIGWOG
_chemical_formula_moiety         '(C864 H864 N96 O652 Zn172)n'
_symmetry_cell_setting           triclinic
_symmetry_space_group_name_H-M   'P 1'
_symmetry_Int_Tables_number      1
_space_group_name_Hall           'P 1'
loop_
_symmetry_equiv_pos_site_id
_symmetry_equiv_pos_as_xyz
1 x,y,z
_cell_length_a                   39.0815(5)
_cell_length_b                   39.0815(5)
_cell_length_c                   39.0815(5)
_cell_angle_alpha                90
_cell_angle_beta                 90
_cell_angle_gamma                90
_cell_volume                     59691.7
loop_
_atom_site_label
_atom_site_type_symbol
_atom_site_fract_x
_atom_site_fract_y
_atom_site_fract_z
Zn1 Zn 0.500000 0.21975(6) 0.500000
Zn2 Zn 0.500000 0.29635(6) 0.500000
Zn3 Zn 0.37476(4) 0.12524(4) 0.37476(4)
Zn4 Zn 0.32368(4) 0.17632(4) 0.32368(4)
O1 O 0.3834(2) 0.1725(2) 0.3874(2)
O2 O 0.3433(3) 0.2026(3) 0.3606(3)
O3 O 0.4631(2) 0.23055(19) 0.4649(2)
O4 O 0.4554(3) 0.2866(2) 0.4771(3)
O5 O 0.3491(2) 0.3192(3) 0.4116(2)
O6 O 0.500000 0.3459(4) 0.500000
O7 O 0.500000 0.1702(5) 0.500000
O8 O 0.4045(3) 0.0955(3) 0.4045(3)
O9 O 0.2969(4) 0.2031(4) 0.2969(4)
N1 N 0.3824(2) 0.3327(2) 0.3633(3)
C1 C 0.3768(3) 0.2300(4) 0.4014(3)
C2 C 0.3584(4) 0.2610(4) 0.3966(3)
H1 H 0.339354 0.262500 0.381553
C3 C 0.3701(3) 0.2895(4) 0.4155(3)
C4 C 0.3972(4) 0.2903(3) 0.4361(3)
H2 H 0.403494 0.310596 0.447895
C5 C 0.4167(3) 0.2591(4) 0.4399(3)
C6 C 0.4062(4) 0.2304(3) 0.4229(3)
H3 H 0.419114 0.209937 0.425493
C7 C 0.3680(5) 0.2004(4) 0.3801(4)
C8 C 0.4466(4) 0.2583(4) 0.4613(4)
C9 C 0.3575(3) 0.3395(3) 0.3860(3)
O10 O 0.3874(2) 0.3834(2) 0.1725(2)
O11 O 0.3606(3) 0.3433(3) 0.2026(3)
O12 O 0.4649(2) 0.4631(2) 0.23055(19)
O13 O 0.4771(3) 0.4554(3) 0.2866(2)
O14 O 0.4116(2) 0.3491(2) 0.3192(3)
N2 N 0.3633(3) 0.3824(2) 0.3327(2)
C10 C 0.4014(3) 0.3768(3) 0.2300(4)
C11 C 0.3966(3) 0.3584(4) 0.2610(4)
H4 H 0.381553 0.339354 0.262500
C12 C 0.4155(3) 0.3701(3) 0.2895(4)
C13 C 0.4361(3) 0.3972(4) 0.2903(3)
H5 H 0.447895 0.403494 0.310596
C14 C 0.4399(3) 0.4167(3) 0.2591(4)
C15 C 0.4229(3) 0.4062(4) 0.2304(3)
H6 H 0.425493 0.419114 0.209937
C16 C 0.3801(4) 0.3680(5) 0.2004(4)
C17 C 0.4613(4) 0.4466(4) 0.2583(4)
C18 C 0.3860(3) 0.3575(3) 0.3395(3)
O15 O 0.1725(2) 0.3874(2) 0.3834(2)
O16 O 0.2026(3) 0.3606(3) 0.3433(3)
O17 O 0.23055(19) 0.4649(2) 0.4631(2)
O18 O 0.2866(2) 0.4771(3) 0.4554(3)
O19 O 0.3192(3) 0.4116(2) 0.3491(2)
N3 N 0.3327(2) 0.3633(3) 0.3824(2)
C19 C 0.2300(4) 0.4014(3) 0.3768(3)
C20 C 0.2610(4) 0.3966(3) 0.3584(4)
H7 H 0.262500 0.381553 0.339354
C21 C 0.2895(4) 0.4155(3) 0.3701(3)
C22 C 0.2903(3) 0.4361(3) 0.3972(4)
H8 H 0.310596 0.447895 0.403494
C23 C 0.2591(4) 0.4399(3) 0.4167(3)
C24 C 0.2304(3) 0.4229(3) 0.4062(4)
H9 H 0.209937 0.425493 0.419114
C25 C 0.2004(4) 0.3801(4) 0.3680(5)
C26 C 0.2583(4) 0.4613(4) 0.4466(4)
C27 C 0.3395(3) 0.3860(3) 0.3575(3)
Zn5 Zn 0.78025(6) 0.500000 0.500000
Zn6 Zn 0.70365(6) 0.500000 0.500000
O20 O 0.8275(2) 0.3834(2) 0.3874(2)
O21 O 0.7974(3) 0.3433(3) 0.3606(3)
O22 O 0.76945(19) 0.4631(2) 0.4649(2)
O23 O 0.7134(2) 0.4554(3) 0.4771(3)
O24 O 0.6808(3) 0.3491(2) 0.4116(2)
O25 O 0.6541(4) 0.500000 0.500000
O26 O 0.8298(5) 0.500000 0.500000
N4 N 0.6673(2) 0.3824(2) 0.3633(3)
C28 C 0.7700(4) 0.3768(3) 0.4014(3)
C29 C 0.7390(4) 0.3584(4) 0.3966(3)
H10 H 0.737500 0.339354 0.381553
C30 C 0.7105(4) 0.3701(3) 0.4155(3)
C31 C 0.7097(3) 0.3972(4) 0.4361(3)
H11 H 0.689404 0.403494 0.447895
C32 C 0.7409(4) 0.4167(3) 0.4399(3)
C33 C 0.7696(3) 0.4062(4) 0.4229(3)
H12 H 0.790063 0.419114 0.425493
C34 C 0.7996(4) 0.3680(5) 0.3801(4)
C35 C 0.7417(4) 0.4466(4) 0.4613(4)
C36 C 0.6605(3) 0.3575(3) 0.3860(3)
O27 O 0.6166(2) 0.3874(2) 0.1725(2)
O28 O 0.6567(3) 0.3606(3) 0.2026(3)
O29 O 0.5369(2) 0.4649(2) 0.23055(19)
O30 O 0.5446(3) 0.4771(3) 0.2866(2)
O31 O 0.6509(2) 0.4116(2) 0.3192(3)
N5 N 0.6176(2) 0.3633(3) 0.3327(2)
C37 C 0.6232(3) 0.4014(3) 0.2300(4)
C38 C 0.6416(4) 0.3966(3) 0.2610(4)
H13 H 0.660646 0.381553 0.262500
C39 C 0.6299(3) 0.4155(3) 0.2895(4)
C40 C 0.6028(4) 0.4361(3) 0.2903(3)
H14 H 0.596506 0.447895 0.310596
C41 C 0.5833(3) 0.4399(3) 0.2591(4)
C42 C 0.5938(4) 0.4229(3) 0.2304(3)
H15 H 0.580886 0.425493 0.209937
C43 C 0.6320(5) 0.3801(4) 0.2004(4)
C44 C 0.5534(4) 0.4613(4) 0.2583(4)
C45 C 0.6425(3) 0.3860(3) 0.3395(3)
O32 O 0.6126(2) 0.1725(2) 0.3834(2)
O33 O 0.6394(3) 0.2026(3) 0.3433(3)
O34 O 0.5351(2) 0.23055(19) 0.4631(2)
O35 O 0.5229(3) 0.2866(2) 0.4554(3)
O36 O 0.5884(2) 0.3192(3) 0.3491(2)
N6 N 0.6367(3) 0.3327(2) 0.3824(2)
C46 C 0.5986(3) 0.2300(4) 0.3768(3)
C47 C 0.6034(3) 0.2610(4) 0.3584(4)
H16 H 0.618447 0.262500 0.339354
C48 C 0.5845(3) 0.2895(4) 0.3701(3)
C49 C 0.5639(3) 0.2903(3) 0.3972(4)
H17 H 0.552105 0.310596 0.403494
C50 C 0.5601(3) 0.2591(4) 0.4167(3)
C51 C 0.5771(3) 0.2304(3) 0.4062(4)
H18 H 0.574507 0.209937 0.419114
C52 C 0.6199(4) 0.2004(4) 0.3680(5)
C53 C 0.5387(4) 0.2583(4) 0.4466(4)
C54 C 0.6140(3) 0.3395(3) 0.3575(3)
Zn7 Zn 0.500000 0.78025(6) 0.500000
Zn8 Zn 0.500000 0.70365(6) 0.500000
O37 O 0.6166(2) 0.8275(2) 0.3874(2)
O38 O 0.6567(3) 0.7974(3) 0.3606(3)
O39 O 0.5369(2) 0.76945(19) 0.4649(2)
O40 O 0.5446(3) 0.7134(2) 0.4771(3)
O41 O 0.6509(2) 0.6808(3) 0.4116(2)
O42 O 0.500000 0.6541(4) 0.500000
O43 O 0.500000 0.8298(5) 0.500000
N7 N 0.6176(2) 0.6673(2) 0.3633(3)
C55 C 0.6232(3) 0.7700(4) 0.4014(3)
C56 C 0.6416(4) 0.7390(4) 0.3966(3)
H19 H 0.660646 0.737500 0.381553
C57 C 0.6299(3) 0.7105(4) 0.4155(3)
C58 C 0.6028(4) 0.7097(3) 0.4361(3)
H20 H 0.596506 0.689404 0.447895
C59 C 0.5833(3) 0.7409(4) 0.4399(3)
C60 C 0.5938(4) 0.7696(3) 0.4229(3)
H21 H 0.580886 0.790063 0.425493
C61 C 0.6320(5) 0.7996(4) 0.3801(4)
C62 C 0.5534(4) 0.7417(4) 0.4613(4)
C63 C 0.6425(3) 0.6605(3) 0.3860(3)
O44 O 0.6126(2) 0.6166(2) 0.1725(2)
O45 O 0.6394(3) 0.6567(3) 0.2026(3)
O46 O 0.5351(2) 0.5369(2) 0.23055(19)
O47 O 0.5229(3) 0.5446(3) 0.2866(2)
O48 O 0.5884(2) 0.6509(2) 0.3192(3)
N8 N 0.6367(3) 0.6176(2) 0.3327(2)
C64 C 0.5986(3) 0.6232(3) 0.2300(4)
C65 C 0.6034(3) 0.6416(4) 0.2610(4)
H22 H 0.618447 0.660646 0.262500
C66 C 0.5845(3) 0.6299(3) 0.2895(4)
C67 C 0.5639(3) 0.6028(4) 0.2903(3)
H23 H 0.552105 0.596506 0.310596
C68 C 0.5601(3) 0.5833(3) 0.2591(4)
C69 C 0.5771(3) 0.5938(4) 0.2304(3)
H24 H 0.574507 0.580886 0.209937
C70 C 0.6199(4) 0.6320(5) 0.2004(4)
C71 C 0.5387(4) 0.5534(4) 0.2583(4)
C72 C 0.6140(3) 0.6425(3) 0.3395(3)
O49 O 0.8275(2) 0.6126(2) 0.3834(2)
O50 O 0.7974(3) 0.6394(3) 0.3433(3)
O51 O 0.76945(19) 0.5351(2) 0.4631(2)
O52 O 0.7134(2) 0.5229(3) 0.4554(3)
O53 O 0.6808(3) 0.5884(2) 0.3491(2)
N9 N 0.6673(2) 0.6367(3) 0.3824(2)
C73 C 0.7700(4) 0.5986(3) 0.3768(3)
C74 C 0.7390(4) 0.6034(3) 0.3584(4)
H25 H 0.737500 0.618447 0.339354
C75 C 0.7105(4) 0.5845(3) 0.3701(3)
C76 C 0.7097(3) 0.5639(3) 0.3972(4)
H26 H 0.689404 0.552105 0.403494
C77 C 0.7409(4) 0.5601(3) 0.4167(3)
C78 C 0.7696(3) 0.5771(3) 0.4062(4)
H27 H 0.790063 0.574507 0.419114
C79 C 0.7996(4) 0.6199(4) 0.3680(5)
C80 C 0.7417(4) 0.5387(4) 0.4466(4)
C81 C 0.6605(3) 0.6140(3) 0.3575(3)
O54 O 0.1725(2) 0.6166(2) 0.3874(2)
O55 O 0.2026(3) 0.6567(3) 0.3606(3)
O56 O 0.23055(19) 0.5369(2) 0.4649(2)
O57 O 0.2866(2) 0.5446(3) 0.4771(3)
O58 O 0.3192(3) 0.6509(2) 0.4116(2)
N10 N 0.3327(2) 0.6176(2) 0.3633(3)
C82 C 0.2300(4) 0.6232(3) 0.4014(3)
C83 C 0.2610(4) 0.6416(4) 0.3966(3)
H28 H 0.262500 0.660646 0.381553
C84 C 0.2895(4) 0.6299(3) 0.4155(3)
C85 C 0.2903(3) 0.6028(4) 0.4361(3)
H29 H 0.310596 0.596506 0.447895
C86 C 0.2591(4) 0.5833(3) 0.4399(3)
C87 C 0.2304(3) 0.5938(4) 0.4229(3)
H30 H 0.209937 0.580886 0.425493
C88 C 0.2004(4) 0.6320(5) 0.3801(4)
C89 C 0.2583(4) 0.5534(4) 0.4613(4)
C90 C 0.3395(3) 0.6425(3) 0.3860(3)
O59 O 0.3834(2) 0.6126(2) 0.1725(2)
O60 O 0.3433(3) 0.6394(3) 0.2026(3)
O61 O 0.4631(2) 0.5351(2) 0.23055(19)
O62 O 0.4554(3) 0.5229(3) 0.2866(2)
O63 O 0.3491(2) 0.5884(2) 0.3192(3)
N11 N 0.3824(2) 0.6367(3) 0.3327(2)
C91 C 0.3768(3) 0.5986(3) 0.2300(4)
C92 C 0.3584(4) 0.6034(3) 0.2610(4)
H31 H 0.339354 0.618447 0.262500
C93 C 0.3701(3) 0.5845(3) 0.2895(4)
C94 C 0.3972(4) 0.5639(3) 0.2903(3)
H32 H 0.403494 0.552105 0.310596
C95 C 0.4167(3) 0.5601(3) 0.2591(4)
C96 C 0.4062(4) 0.5771(3) 0.2304(3)
H33 H 0.419114 0.574507 0.209937
C97 C 0.3680(5) 0.6199(4) 0.2004(4)
C98 C 0.4466(4) 0.5387(4) 0.2583(4)
C99 C 0.3575(3) 0.6140(3) 0.3395(3)
O64 O 0.3874(2) 0.8275(2) 0.3834(2)
O65 O 0.3606(3) 0.7974(3) 0.3433(3)
O66 O 0.4649(2) 0.76945(19) 0.4631(2)
O67 O 0.4771(3) 0.7134(2) 0.4554(3)
O68 O 0.4116(2) 0.6808(3) 0.3491(2)
N12 N 0.3633(3) 0.6673(2) 0.3824(2)
C100 C 0.4014(3) 0.7700(4) 0.3768(3)
C101 C 0.3966(3) 0.7390(4) 0.3584(4)
H34 H 0.381553 0.737500 0.339354
C102 C 0.4155(3) 0.7105(4) 0.3701(3)
C103 C 0.4361(3) 0.7097(3) 0.3972(4)
H35 H 0.447895 0.689404 0.403494
C104 C 0.4399(3) 0.7409(4) 0.4167(3)
C105 C 0.4229(3) 0.7696(3) 0.4062(4)
H36 H 0.425493 0.790063 0.419114
C106 C 0.3801(4) 0.7996(4) 0.3680(5)
C107 C 0.4613(4) 0.7417(4) 0.4466(4)
C108 C 0.3860(3) 0.6605(3) 0.3575(3)
Zn9 Zn 0.62524(4) 0.12524(4) 0.37476(4)
Zn10 Zn 0.67632(4) 0.17632(4) 0.32368(4)
O69 O 0.5955(3) 0.0955(3) 0.4045(3)
O70 O 0.7031(4) 0.2031(4) 0.2969(4)
Zn11 Zn 0.37476(4) 0.37476(4) 0.12524(4)
O71 O 0.4045(3) 0.4045(3) 0.0955(3)
Zn12 Zn 0.32368(4) 0.32368(4) 0.17632(4)
O72 O 0.2969(4) 0.2969(4) 0.2031(4)
Zn13 Zn 0.12524(4) 0.37476(4) 0.37476(4)
O73 O 0.0955(3) 0.4045(3) 0.4045(3)
Zn14 Zn 0.17632(4) 0.32368(4) 0.32368(4)
O74 O 0.2031(4) 0.2969(4) 0.2969(4)
Zn15 Zn 0.21975(6) 0.500000 0.500000
Zn16 Zn 0.500000 0.500000 0.21975(6)
Zn17 Zn 0.29635(6) 0.500000 0.500000
Zn18 Zn 0.500000 0.500000 0.29635(6)
Zn19 Zn 0.87476(4) 0.37476(4) 0.37476(4)
Zn20 Zn 0.62524(4) 0.87476(4) 0.37476(4)
Zn21 Zn 0.12524(4) 0.62524(4) 0.37476(4)
Zn22 Zn 0.37476(4) 0.62524(4) 0.12524(4)
Zn23 Zn 0.87476(4) 0.62524(4) 0.37476(4)
Zn24 Zn 0.62524(4) 0.62524(4) 0.12524(4)
Zn25 Zn 0.62524(4) 0.37476(4) 0.12524(4)
Zn26 Zn 0.37476(4) 0.87476(4) 0.37476(4)
Zn27 Zn 0.82368(4) 0.32368(4) 0.32368(4)
Zn28 Zn 0.67632(4) 0.82368(4) 0.32368(4)
Zn29 Zn 0.17632(4) 0.67632(4) 0.32368(4)
Zn30 Zn 0.32368(4) 0.67632(4) 0.17632(4)
Zn31 Zn 0.82368(4) 0.67632(4) 0.32368(4)
Zn32 Zn 0.67632(4) 0.67632(4) 0.17632(4)
Zn33 Zn 0.67632(4) 0.32368(4) 0.17632(4)
Zn34 Zn 0.32368(4) 0.82368(4) 0.32368(4)
O75 O 0.3834(2) 0.3275(2) 0.1126(2)
O76 O 0.3874(2) 0.1166(2) 0.3275(2)
O77 O 0.6166(2) 0.1126(2) 0.3275(2)
O78 O 0.3275(2) 0.3874(2) 0.1166(2)
O79 O 0.1126(2) 0.3834(2) 0.3275(2)
O80 O 0.1166(2) 0.3275(2) 0.3874(2)
O81 O 0.6725(2) 0.1166(2) 0.3874(2)
O82 O 0.3275(2) 0.1126(2) 0.3834(2)
O83 O 0.3433(3) 0.2974(3) 0.1394(3)
O84 O 0.3606(3) 0.1567(3) 0.2974(3)
O85 O 0.6567(3) 0.1394(3) 0.2974(3)
O86 O 0.2974(3) 0.3606(3) 0.1567(3)
O87 O 0.1394(3) 0.3433(3) 0.2974(3)
O88 O 0.1567(3) 0.2974(3) 0.3606(3)
O89 O 0.7026(3) 0.1567(3) 0.3606(3)
O90 O 0.2974(3) 0.1394(3) 0.3433(3)
O91 O 0.4631(2) 0.76945(19) 0.5351(2)
O92 O 0.4649(2) 0.23055(19) 0.5369(2)
O93 O 0.5369(2) 0.23055(19) 0.5351(2)
O94 O 0.76945(19) 0.4649(2) 0.5369(2)
O95 O 0.76945(19) 0.5369(2) 0.5351(2)
O96 O 0.5351(2) 0.76945(19) 0.5369(2)
O97 O 0.4554(3) 0.7134(2) 0.5229(3)
O98 O 0.4771(3) 0.2866(2) 0.5446(3)
O99 O 0.5446(3) 0.2866(2) 0.5229(3)
O100 O 0.7134(2) 0.4771(3) 0.5446(3)
O101 O 0.7134(2) 0.5446(3) 0.5229(3)
O102 O 0.5229(3) 0.7134(2) 0.5446(3)
O8_2 O 0.9045(3) 0.4045(3) 0.4045(3)
O9_2 O 0.7969(4) 0.2969(4) 0.2969(4)
O42_2 O 0.3459(4) 0.500000 0.500000
O43_2 O 0.1702(5) 0.500000 0.500000
O69_2 O 0.9045(3) 0.5955(3) 0.4045(3)
O70_2 O 0.7969(4) 0.7031(4) 0.2969(4)
O71_2 O 0.5955(3) 0.4045(3) 0.0955(3)
O72_2 O 0.7031(4) 0.2969(4) 0.2031(4)
O75_2 O 0.6725(2) 0.3834(2) 0.1126(2)
O76_2 O 0.8834(2) 0.3874(2) 0.3275(2)
O77_2 O 0.8874(2) 0.6166(2) 0.3275(2)
O78_2 O 0.6126(2) 0.3275(2) 0.1166(2)
O81_2 O 0.8834(2) 0.6725(2) 0.3874(2)
O82_2 O 0.8874(2) 0.3275(2) 0.3834(2)
O83_2 O 0.7026(3) 0.3433(3) 0.1394(3)
O84_2 O 0.8433(3) 0.3606(3) 0.2974(3)
O85_2 O 0.8606(3) 0.6567(3) 0.2974(3)
O86_2 O 0.6394(3) 0.2974(3) 0.1567(3)
O89_2 O 0.8433(3) 0.7026(3) 0.3606(3)
O90_2 O 0.8606(3) 0.2974(3) 0.3433(3)
O91_2 O 0.23055(19) 0.4631(2) 0.5351(2)
O96_2 O 0.23055(19) 0.5351(2) 0.5369(2)
O97_2 O 0.2866(2) 0.4554(3) 0.5229(3)
O102_2 O 0.2866(2) 0.5229(3) 0.5446(3)
O8_3 O 0.5955(3) 0.9045(3) 0.4045(3)
O9_3 O 0.7031(4) 0.7969(4) 0.2969(4)
O69_3 O 0.4045(3) 0.9045(3) 0.4045(3)
O70_3 O 0.2969(4) 0.7969(4) 0.2969(4)
O71_3 O 0.5955(3) 0.5955(3) 0.0955(3)
O72_3 O 0.7031(4) 0.7031(4) 0.2031(4)
O75_3 O 0.6166(2) 0.6725(2) 0.1126(2)
O76_3 O 0.6126(2) 0.8834(2) 0.3275(2)
O77_3 O 0.3834(2) 0.8874(2) 0.3275(2)
O78_3 O 0.6725(2) 0.6126(2) 0.1166(2)
O81_3 O 0.3275(2) 0.8834(2) 0.3874(2)
O82_3 O 0.6725(2) 0.8874(2) 0.3834(2)
O83_3 O 0.6567(3) 0.7026(3) 0.1394(3)
O84_3 O 0.6394(3) 0.8433(3) 0.2974(3)
O85_3 O 0.3433(3) 0.8606(3) 0.2974(3)
O86_3 O 0.7026(3) 0.6394(3) 0.1567(3)
O89_3 O 0.2974(3) 0.8433(3) 0.3606(3)
O90_3 O 0.7026(3) 0.8606(3) 0.3433(3)
O8_4 O 0.0955(3) 0.5955(3) 0.4045(3)
O9_4 O 0.2031(4) 0.7031(4) 0.2969(4)
O71_4 O 0.4045(3) 0.5955(3) 0.0955(3)
O72_4 O 0.2969(4) 0.7031(4) 0.2031(4)
O75_4 O 0.3275(2) 0.6166(2) 0.1126(2)
O76_4 O 0.1166(2) 0.6126(2) 0.3275(2)
O78_4 O 0.3874(2) 0.6725(2) 0.1166(2)
O82_4 O 0.1126(2) 0.6725(2) 0.3834(2)
O83_4 O 0.2974(3) 0.6567(3) 0.1394(3)
O84_4 O 0.1567(3) 0.6394(3) 0.2974(3)
O86_4 O 0.3606(3) 0.7026(3) 0.1567(3)
O90_4 O 0.1394(3) 0.7026(3) 0.3433(3)
O6_2 O 0.500000 0.500000 0.3459(4)
O7_2 O 0.500000 0.500000 0.1702(5)
Zn7_2 Zn 0.500000 0.500000 0.78025(6)
Zn8_2 Zn 0.500000 0.500000 0.70365(6)
O37_2 O 0.6166(2) 0.6126(2) 0.8275(2)
O38_2 O 0.6567(3) 0.6394(3) 0.7974(3)
O39_2 O 0.5369(2) 0.5351(2) 0.76945(19)
O40_2 O 0.5446(3) 0.5229(3) 0.7134(2)
O41_2 O 0.6509(2) 0.5884(2) 0.6808(3)
O42_3 O 0.500000 0.500000 0.6541(4)
O43_3 O 0.500000 0.500000 0.8298(5)
N7_2 N 0.6176(2) 0.6367(3) 0.6673(2)
C55_2 C 0.6232(3) 0.5986(3) 0.7700(4)
C56_2 C 0.6416(4) 0.6034(3) 0.7390(4)
H19_2 H 0.660646 0.618447 0.737500
C57_2 C 0.6299(3) 0.5845(3) 0.7105(4)
C58_2 C 0.6028(4) 0.5639(3) 0.7097(3)
H20_2 H 0.596506 0.552105 0.689404
C59_2 C 0.5833(3) 0.5601(3) 0.7409(4)
C60_2 C 0.5938(4) 0.5771(3) 0.7696(3)
H21_2 H 0.580886 0.574507 0.790063
C61_2 C 0.6320(5) 0.6199(4) 0.7996(4)
C62_2 C 0.5534(4) 0.5387(4) 0.7417(4)
C63_2 C 0.6425(3) 0.6140(3) 0.6605(3)
O44_2 O 0.6126(2) 0.8275(2) 0.6166(2)
O45_2 O 0.6394(3) 0.7974(3) 0.6567(3)
O48_2 O 0.5884(2) 0.6808(3) 0.6509(2)
N8_2 N 0.6367(3) 0.6673(2) 0.6176(2)
C64_2 C 0.5986(3) 0.7700(4) 0.6232(3)
C65_2 C 0.6034(3) 0.7390(4) 0.6416(4)
H22_2 H 0.618447 0.737500 0.660646
C66_2 C 0.5845(3) 0.7105(4) 0.6299(3)
C67_2 C 0.5639(3) 0.7097(3) 0.6028(4)
H23_2 H 0.552105 0.689404 0.596506
C68_2 C 0.5601(3) 0.7409(4) 0.5833(3)
C69_2 C 0.5771(3) 0.7696(3) 0.5938(4)
H24_2 H 0.574507 0.790063 0.580886
C70_2 C 0.6199(4) 0.7996(4) 0.6320(5)
C71_2 C 0.5387(4) 0.7417(4) 0.5534(4)
C72_2 C 0.6140(3) 0.6605(3) 0.6425(3)
O49_2 O 0.8275(2) 0.6166(2) 0.6126(2)
O50_2 O 0.7974(3) 0.6567(3) 0.6394(3)
O53_2 O 0.6808(3) 0.6509(2) 0.5884(2)
N9_2 N 0.6673(2) 0.6176(2) 0.6367(3)
C73_2 C 0.7700(4) 0.6232(3) 0.5986(3)
C74_2 C 0.7390(4) 0.6416(4) 0.6034(3)
H25_2 H 0.737500 0.660646 0.618447
C75_2 C 0.7105(4) 0.6299(3) 0.5845(3)
C76_2 C 0.7097(3) 0.6028(4) 0.5639(3)
H26_2 H 0.689404 0.596506 0.552105
C77_2 C 0.7409(4) 0.5833(3) 0.5601(3)
C78_2 C 0.7696(3) 0.5938(4) 0.5771(3)
H27_2 H 0.790063 0.580886 0.574507
C79_2 C 0.7996(4) 0.6320(5) 0.6199(4)
C80_2 C 0.7417(4) 0.5534(4) 0.5387(4)
C81_2 C 0.6605(3) 0.6425(3) 0.6140(3)
O54_2 O 0.1725(2) 0.6126(2) 0.6166(2)
O55_2 O 0.2026(3) 0.6394(3) 0.6567(3)
O58_2 O 0.3192(3) 0.5884(2) 0.6509(2)
N10_2 N 0.3327(2) 0.6367(3) 0.6176(2)
C82_2 C 0.2300(4) 0.5986(3) 0.6232(3)
C83_2 C 0.2610(4) 0.6034(3) 0.6416(4)
H28_2 H 0.262500 0.618447 0.660646
C84_2 C 0.2895(4) 0.5845(3) 0.6299(3)
C85_2 C 0.2903(3) 0.5639(3) 0.6028(4)
H29_2 H 0.310596 0.552105 0.596506
C86_2 C 0.2591(4) 0.5601(3) 0.5833(3)
C87_2 C 0.2304(3) 0.5771(3) 0.5938(4)
H30_2 H 0.209937 0.574507 0.580886
C88_2 C 0.2004(4) 0.6199(4) 0.6320(5)
C89_2 C 0.2583(4) 0.5387(4) 0.5534(4)
C90_2 C 0.3395(3) 0.6140(3) 0.6425(3)
O59_2 O 0.3834(2) 0.8275(2) 0.6126(2)
O60_2 O 0.3433(3) 0.7974(3) 0.6394(3)
O63_2 O 0.3491(2) 0.6808(3) 0.5884(2)
N11_2 N 0.3824(2) 0.6673(2) 0.6367(3)
C91_2 C 0.3768(3) 0.7700(4) 0.5986(3)
C92_2 C 0.3584(4) 0.7390(4) 0.6034(3)
H31_2 H 0.339354 0.737500 0.618447
C93_2 C 0.3701(3) 0.7105(4) 0.5845(3)
C94_2 C 0.3972(4) 0.7097(3) 0.5639(3)
H32_2 H 0.403494 0.689404 0.552105
C95_2 C 0.4167(3) 0.7409(4) 0.5601(3)
C96_2 C 0.4062(4) 0.7696(3) 0.5771(3)
H33_2 H 0.419114 0.790063 0.574507
C97_2 C 0.3680(5) 0.7996(4) 0.6199(4)
C98_2 C 0.4466(4) 0.7417(4) 0.5387(4)
C99_2 C 0.3575(3) 0.6605(3) 0.6140(3)
O64_2 O 0.3874(2) 0.6166(2) 0.8275(2)
O65_2 O 0.3606(3) 0.6567(3) 0.7974(3)
O66_2 O 0.4649(2) 0.5369(2) 0.76945(19)
O67_2 O 0.4771(3) 0.5446(3) 0.7134(2)
O68_2 O 0.4116(2) 0.6509(2) 0.6808(3)
N12_2 N 0.3633(3) 0.6176(2) 0.6673(2)
C100_2 C 0.4014(3) 0.6232(3) 0.7700(4)
C101_2 C 0.3966(3) 0.6416(4) 0.7390(4)
H34_2 H 0.381553 0.660646 0.737500
C102_2 C 0.4155(3) 0.6299(3) 0.7105(4)
C103_2 C 0.4361(3) 0.6028(4) 0.7097(3)
H35_2 H 0.447895 0.596506 0.689404
C104_2 C 0.4399(3) 0.5833(3) 0.7409(4)
C105_2 C 0.4229(3) 0.5938(4) 0.7696(3)
H36_2 H 0.425493 0.580886 0.790063
C106_2 C 0.3801(4) 0.6320(5) 0.7996(4)
C107_2 C 0.4613(4) 0.5534(4) 0.7417(4)
C108_2 C 0.3860(3) 0.6425(3) 0.6605(3)
Zn20_2 Zn 0.62524(4) 0.62524(4) 0.87476(4)
Zn21_2 Zn 0.12524(4) 0.62524(4) 0.62524(4)
Zn22_2 Zn 0.37476(4) 0.87476(4) 0.62524(4)
Zn23_2 Zn 0.87476(4) 0.62524(4) 0.62524(4)
Zn24_2 Zn 0.62524(4) 0.87476(4) 0.62524(4)
Zn26_2 Zn 0.37476(4) 0.62524(4) 0.87476(4)
Zn28_2 Zn 0.67632(4) 0.67632(4) 0.82368(4)
Zn29_2 Zn 0.17632(4) 0.67632(4) 0.67632(4)
Zn30_2 Zn 0.32368(4) 0.82368(4) 0.67632(4)
Zn31_2 Zn 0.82368(4) 0.67632(4) 0.67632(4)
Zn32_2 Zn 0.67632(4) 0.82368(4) 0.67632(4)
Zn34_2 Zn 0.32368(4) 0.67632(4) 0.82368(4)
O91_3 O 0.4631(2) 0.4649(2) 0.76945(19)
O96_3 O 0.5351(2) 0.4631(2) 0.76945(19)
O97_3 O 0.4554(3) 0.4771(3) 0.7134(2)
O102_3 O 0.5229(3) 0.4554(3) 0.7134(2)
O8_5 O 0.4045(3) 0.9045(3) 0.5955(3)
O9_5 O 0.2969(4) 0.7969(4) 0.7031(4)
O37_3 O 0.6166(2) 0.1725(2) 0.6126(2)
O38_3 O 0.6567(3) 0.2026(3) 0.6394(3)
O41_3 O 0.6509(2) 0.3192(3) 0.5884(2)
N7_3 N 0.6176(2) 0.3327(2) 0.6367(3)
C55_3 C 0.6232(3) 0.2300(4) 0.5986(3)
C56_3 C 0.6416(4) 0.2610(4) 0.6034(3)
H19_3 H 0.660646 0.262500 0.618447
C57_3 C 0.6299(3) 0.2895(4) 0.5845(3)
C58_3 C 0.6028(4) 0.2903(3) 0.5639(3)
H20_3 H 0.596506 0.310596 0.552105
C59_3 C 0.5833(3) 0.2591(4) 0.5601(3)
C60_3 C 0.5938(4) 0.2304(3) 0.5771(3)
H21_3 H 0.580886 0.209937 0.574507
C61_3 C 0.6320(5) 0.2004(4) 0.6199(4)
C62_3 C 0.5534(4) 0.2583(4) 0.5387(4)
C63_3 C 0.6425(3) 0.3395(3) 0.6140(3)
O44_3 O 0.6126(2) 0.3834(2) 0.8275(2)
O45_3 O 0.6394(3) 0.3433(3) 0.7974(3)
O48_3 O 0.5884(2) 0.3491(2) 0.6808(3)
N8_3 N 0.6367(3) 0.3824(2) 0.6673(2)
C64_3 C 0.5986(3) 0.3768(3) 0.7700(4)
C65_3 C 0.6034(3) 0.3584(4) 0.7390(4)
H22_3 H 0.618447 0.339354 0.737500
C66_3 C 0.5845(3) 0.3701(3) 0.7105(4)
C67_3 C 0.5639(3) 0.3972(4) 0.7097(3)
H23_3 H 0.552105 0.403494 0.689404
C68_3 C 0.5601(3) 0.4167(3) 0.7409(4)
C69_3 C 0.5771(3) 0.4062(4) 0.7696(3)
H24_3 H 0.574507 0.419114 0.790063
C70_3 C 0.6199(4) 0.3680(5) 0.7996(4)
C71_3 C 0.5387(4) 0.4466(4) 0.7417(4)
C72_3 C 0.6140(3) 0.3575(3) 0.6605(3)
O49_3 O 0.8275(2) 0.3874(2) 0.6166(2)
O50_3 O 0.7974(3) 0.3606(3) 0.6567(3)
O53_3 O 0.6808(3) 0.4116(2) 0.6509(2)
N9_3 N 0.6673(2) 0.3633(3) 0.6176(2)
C73_3 C 0.7700(4) 0.4014(3) 0.6232(3)
C74_3 C 0.7390(4) 0.3966(3) 0.6416(4)
H25_3 H 0.737500 0.381553 0.660646
C75_3 C 0.7105(4) 0.4155(3) 0.6299(3)
C76_3 C 0.7097(3) 0.4361(3) 0.6028(4)
H26_3 H 0.689404 0.447895 0.596506
C77_3 C 0.7409(4) 0.4399(3) 0.5833(3)
C78_3 C 0.7696(3) 0.4229(3) 0.5938(4)
H27_3 H 0.790063 0.425493 0.580886
C79_3 C 0.7996(4) 0.3801(4) 0.6320(5)
C80_3 C 0.7417(4) 0.4613(4) 0.5534(4)
C81_3 C 0.6605(3) 0.3860(3) 0.6425(3)
O54_3 O 0.1725(2) 0.3834(2) 0.6126(2)
O55_3 O 0.2026(3) 0.3433(3) 0.6394(3)
O58_3 O 0.3192(3) 0.3491(2) 0.5884(2)
N10_3 N 0.3327(2) 0.3824(2) 0.6367(3)
C82_3 C 0.2300(4) 0.3768(3) 0.5986(3)
C83_3 C 0.2610(4) 0.3584(4) 0.6034(3)
H28_3 H 0.262500 0.339354 0.618447
C84_3 C 0.2895(4) 0.3701(3) 0.5845(3)
C85_3 C 0.2903(3) 0.3972(4) 0.5639(3)
H29_3 H 0.310596 0.403494 0.552105
C86_3 C 0.2591(4) 0.4167(3) 0.5601(3)
C87_3 C 0.2304(3) 0.4062(4) 0.5771(3)
H30_3 H 0.209937 0.419114 0.574507
C88_3 C 0.2004(4) 0.3680(5) 0.6199(4)
C89_3 C 0.2583(4) 0.4466(4) 0.5387(4)
C90_3 C 0.3395(3) 0.3575(3) 0.6140(3)
O59_3 O 0.3834(2) 0.3874(2) 0.8275(2)
O60_3 O 0.3433(3) 0.3606(3) 0.7974(3)
O63_3 O 0.3491(2) 0.4116(2) 0.6808(3)
N11_3 N 0.3824(2) 0.3633(3) 0.6673(2)
C91_3 C 0.3768(3) 0.4014(3) 0.7700(4)
C92_3 C 0.3584(4) 0.3966(3) 0.7390(4)
H31_3 H 0.339354 0.381553 0.737500
C93_3 C 0.3701(3) 0.4155(3) 0.7105(4)
C94_3 C 0.3972(4) 0.4361(3) 0.7097(3)
H32_3 H 0.403494 0.447895 0.689404
C95_3 C 0.4167(3) 0.4399(3) 0.7409(4)
C96_3 C 0.4062(4) 0.4229(3) 0.7696(3)
H33_3 H 0.419114 0.425493 0.790063
C97_3 C 0.3680(5) 0.3801(4) 0.7996(4)
C98_3 C 0.4466(4) 0.4613(4) 0.7417(4)
C99_3 C 0.3575(3) 0.3860(3) 0.6605(3)
O64_3 O 0.3874(2) 0.1725(2) 0.6166(2)
O65_3 O 0.3606(3) 0.2026(3) 0.6567(3)
O68_3 O 0.4116(2) 0.3192(3) 0.6509(2)
N12_3 N 0.3633(3) 0.3327(2) 0.6176(2)
C100_3 C 0.4014(3) 0.2300(4) 0.6232(3)
C101_3 C 0.3966(3) 0.2610(4) 0.6416(4)
H34_3 H 0.381553 0.262500 0.660646
C102_3 C 0.4155(3) 0.2895(4) 0.6299(3)
C103_3 C 0.4361(3) 0.2903(3) 0.6028(4)
H35_3 H 0.447895 0.310596 0.596506
C104_3 C 0.4399(3) 0.2591(4) 0.5833(3)
C105_3 C 0.4229(3) 0.2304(3) 0.5938(4)
H36_3 H 0.425493 0.209937 0.580886
C106_3 C 0.3801(4) 0.2004(4) 0.6320(5)
C107_3 C 0.4613(4) 0.2583(4) 0.5534(4)
C108_3 C 0.3860(3) 0.3395(3) 0.6425(3)
O69_4 O 0.5955(3) 0.9045(3) 0.5955(3)
O70_4 O 0.7031(4) 0.7969(4) 0.7031(4)
O71_5 O 0.4045(3) 0.5955(3) 0.9045(3)
O72_5 O 0.2969(4) 0.7031(4) 0.7969(4)
O73_2 O 0.0955(3) 0.5955(3) 0.5955(3)
O74_2 O 0.2031(4) 0.7031(4) 0.7031(4)
Zn20_3 Zn 0.62524(4) 0.12524(4) 0.62524(4)
Zn21_3 Zn 0.12524(4) 0.37476(4) 0.62524(4)
Zn22_3 Zn 0.37476(4) 0.37476(4) 0.87476(4)
Zn23_3 Zn 0.87476(4) 0.37476(4) 0.62524(4)
Zn24_3 Zn 0.62524(4) 0.37476(4) 0.87476(4)
Zn26_3 Zn 0.37476(4) 0.12524(4) 0.62524(4)
Zn28_3 Zn 0.67632(4) 0.17632(4) 0.67632(4)
Zn29_3 Zn 0.17632(4) 0.32368(4) 0.67632(4)
Zn30_3 Zn 0.32368(4) 0.32368(4) 0.82368(4)
Zn31_3 Zn 0.82368(4) 0.32368(4) 0.67632(4)
Zn32_3 Zn 0.67632(4) 0.32368(4) 0.82368(4)
Zn34_3 Zn 0.32368(4) 0.17632(4) 0.67632(4)
O75_5 O 0.3834(2) 0.6725(2) 0.8874(2)
O76_5 O 0.3874(2) 0.8834(2) 0.6725(2)
O77_4 O 0.6166(2) 0.8874(2) 0.6725(2)
O78_5 O 0.3275(2) 0.6126(2) 0.8834(2)
O79_2 O 0.1126(2) 0.6166(2) 0.6725(2)
O80_2 O 0.1166(2) 0.6725(2) 0.6126(2)
O81_4 O 0.6725(2) 0.8834(2) 0.6126(2)
O82_5 O 0.3275(2) 0.8874(2) 0.6166(2)
O83_5 O 0.3433(3) 0.7026(3) 0.8606(3)
O84_5 O 0.3606(3) 0.8433(3) 0.7026(3)
O85_4 O 0.6567(3) 0.8606(3) 0.7026(3)
O86_5 O 0.2974(3) 0.6394(3) 0.8433(3)
O87_2 O 0.1394(3) 0.6567(3) 0.7026(3)
O88_2 O 0.1567(3) 0.7026(3) 0.6394(3)
O89_4 O 0.7026(3) 0.8433(3) 0.6394(3)
O90_5 O 0.2974(3) 0.8606(3) 0.6567(3)
O8_6 O 0.4045(3) 0.4045(3) 0.9045(3)
O9_6 O 0.2969(4) 0.2969(4) 0.7969(4)
O69_5 O 0.5955(3) 0.4045(3) 0.9045(3)
O70_5 O 0.7031(4) 0.2969(4) 0.7969(4)
O71_6 O 0.4045(3) 0.0955(3) 0.5955(3)
O72_6 O 0.2969(4) 0.2031(4) 0.7031(4)
O73_3 O 0.0955(3) 0.4045(3) 0.5955(3)
O74_3 O 0.2031(4) 0.2969(4) 0.7031(4)
O75_6 O 0.3834(2) 0.1126(2) 0.6725(2)
O76_6 O 0.3874(2) 0.3275(2) 0.8834(2)
O77_5 O 0.6166(2) 0.3275(2) 0.8874(2)
O78_6 O 0.3275(2) 0.1166(2) 0.6126(2)
O79_3 O 0.1126(2) 0.3275(2) 0.6166(2)
O80_3 O 0.1166(2) 0.3874(2) 0.6725(2)
O81_5 O 0.6725(2) 0.3874(2) 0.8834(2)
O82_6 O 0.3275(2) 0.3834(2) 0.8874(2)
O83_6 O 0.3433(3) 0.1394(3) 0.7026(3)
O84_6 O 0.3606(3) 0.2974(3) 0.8433(3)
O85_5 O 0.6567(3) 0.2974(3) 0.8606(3)
O86_6 O 0.2974(3) 0.1567(3) 0.6394(3)
O87_3 O 0.1394(3) 0.2974(3) 0.6567(3)
O88_3 O 0.1567(3) 0.3606(3) 0.7026(3)
O89_5 O 0.7026(3) 0.3606(3) 0.8433(3)
O90_6 O 0.2974(3) 0.3433(3) 0.8606(3)
O8_7 O 0.5955(3) 0.0955(3) 0.5955(3)
O9_7 O 0.7031(4) 0.2031(4) 0.7031(4)
O73_4 O 0.9045(3) 0.4045(3) 0.5955(3)
O74_4 O 0.7969(4) 0.2969(4) 0.7031(4)
O76_7 O 0.6126(2) 0.1166(2) 0.6725(2)
O79_4 O 0.8874(2) 0.3834(2) 0.6725(2)
O80_4 O 0.8834(2) 0.3275(2) 0.6126(2)
O82_7 O 0.6725(2) 0.1126(2) 0.6166(2)
O84_7 O 0.6394(3) 0.1567(3) 0.7026(3)
O87_4 O 0.8606(3) 0.3433(3) 0.7026(3)
O88_4 O 0.8433(3) 0.2974(3) 0.6394(3)
O90_7 O 0.7026(3) 0.1394(3) 0.6567(3)
O69_6 O 0.9045(3) 0.5955(3) 0.5955(3)
O70_6 O 0.7969(4) 0.7031(4) 0.7031(4)
O77_6 O 0.8874(2) 0.6725(2) 0.6166(2)
O81_6 O 0.8834(2) 0.6126(2) 0.6725(2)
O85_6 O 0.8606(3) 0.7026(3) 0.6567(3)
O89_6 O 0.8433(3) 0.6394(3) 0.7026(3)
O69_7 O 0.5955(3) 0.5955(3) 0.9045(3)
O70_7 O 0.7031(4) 0.7031(4) 0.7969(4)
O77_7 O 0.6725(2) 0.6166(2) 0.8874(2)
O81_7 O 0.6126(2) 0.6725(2) 0.8834(2)
O85_7 O 0.7026(3) 0.6567(3) 0.8606(3)
O89_7 O 0.6394(3) 0.7026(3) 0.8433(3)
Zn5_2 Zn 0.78025(6) -0.000000 0.000000
Zn6_2 Zn 0.70365(6) -0.000000 0.000000
O25_2 O 0.6541(4) -0.000000 0.000000
O26_2 O 0.8298(5) -0.000000 0.000000
Zn7_3 Zn 0.500000 0.28025(6) 0.000000
Zn8_3 Zn 0.500000 0.20365(6) 0.000000
O42_4 O 0.500000 0.1541(4) 0.000000
O43_4 O 0.500000 0.3298(5) 0.000000
Zn15_2 Zn 0.21975(6) -0.000000 0.000000
Zn17_2 Zn 0.29635(6) -0.000000 0.000000
O91_4 O 0.4631(2) 0.26945(19) 0.0351(2)
O95_2 O 0.76945(19) 0.0369(2) 0.0351(2)
O96_4 O 0.5351(2) 0.26945(19) 0.0369(2)
O97_4 O 0.4554(3) 0.2134(2) 0.0229(3)
O101_2 O 0.7134(2) 0.0446(3) 0.0229(3)
O102_4 O 0.5229(3) 0.2134(2) 0.0446(3)
H58 H 0.838269 0.017357 0.0165103
H60 H 0.645631 0.0213104 0.0109419
Zn5_3 Zn 0.78025(6) -0.000000 1.000000
Zn6_3 Zn 0.70365(6) -0.000000 1.000000
O25_3 O 0.6541(4) -0.000000 1.000000
O26_3 O 0.8298(5) -0.000000 1.000000
Zn7_4 Zn 0.500000 0.28025(6) 1.000000
Zn8_4 Zn 0.500000 0.20365(6) 1.000000
O39_3 O 0.5369(2) 0.26945(19) 0.9649(2)
O40_3 O 0.5446(3) 0.2134(2) 0.9771(3)
O41_4 O 0.6509(2) 0.1808(3) 0.9116(2)
O42_5 O 0.500000 0.1541(4) 1.000000
O43_5 O 0.500000 0.3298(5) 1.000000
N7_4 N 0.6176(2) 0.1673(2) 0.8633(3)
C55_4 C 0.6232(3) 0.2700(4) 0.9014(3)
C56_4 C 0.6416(4) 0.2390(4) 0.8966(3)
H19_4 H 0.660646 0.237500 0.881553
C57_4 C 0.6299(3) 0.2105(4) 0.9155(3)
C58_4 C 0.6028(4) 0.2097(3) 0.9361(3)
H20_4 H 0.596506 0.189404 0.947895
C59_4 C 0.5833(3) 0.2409(4) 0.9399(3)
C60_4 C 0.5938(4) 0.2696(3) 0.9229(3)
H21_4 H 0.580886 0.290063 0.925493
C61_4 C 0.6320(5) 0.2996(4) 0.8801(4)
C62_4 C 0.5534(4) 0.2417(4) 0.9613(4)
C63_4 C 0.6425(3) 0.1605(3) 0.8860(3)
O46_2 O 0.5351(2) 0.0369(2) 0.73055(19)
O47_2 O 0.5229(3) 0.0446(3) 0.7866(2)
O48_4 O 0.5884(2) 0.1509(2) 0.8192(3)
N8_4 N 0.6367(3) 0.1176(2) 0.8327(2)
C64_4 C 0.5986(3) 0.1232(3) 0.7300(4)
C65_4 C 0.6034(3) 0.1416(4) 0.7610(4)
H22_4 H 0.618447 0.160646 0.762500
C66_4 C 0.5845(3) 0.1299(3) 0.7895(4)
C67_4 C 0.5639(3) 0.1028(4) 0.7903(3)
H23_4 H 0.552105 0.096506 0.810596
C68_4 C 0.5601(3) 0.0833(3) 0.7591(4)
C69_4 C 0.5771(3) 0.0938(4) 0.7304(3)
H24_4 H 0.574507 0.080886 0.709937
C70_4 C 0.6199(4) 0.1320(5) 0.7004(4)
C71_4 C 0.5387(4) 0.0534(4) 0.7583(4)
C72_4 C 0.6140(3) 0.1425(3) 0.8395(3)
O49_4 O 0.8275(2) 0.1126(2) 0.8834(2)
O50_4 O 0.7974(3) 0.1394(3) 0.8433(3)
O51_2 O 0.76945(19) 0.0351(2) 0.9631(2)
O52_2 O 0.7134(2) 0.0229(3) 0.9554(3)
O53_4 O 0.6808(3) 0.0884(2) 0.8491(2)
N9_4 N 0.6673(2) 0.1367(3) 0.8824(2)
C73_4 C 0.7700(4) 0.0986(3) 0.8768(3)
C74_4 C 0.7390(4) 0.1034(3) 0.8584(4)
H25_4 H 0.737500 0.118447 0.839354
C75_4 C 0.7105(4) 0.0845(3) 0.8701(3)
C76_4 C 0.7097(3) 0.0639(3) 0.8972(4)
H26_4 H 0.689404 0.052105 0.903494
C77_4 C 0.7409(4) 0.0601(3) 0.9167(3)
C78_4 C 0.7696(3) 0.0771(3) 0.9062(4)
H27_4 H 0.790063 0.074507 0.919114
C79_4 C 0.7996(4) 0.1199(4) 0.8680(5)
C80_4 C 0.7417(4) 0.0387(4) 0.9466(4)
C81_4 C 0.6605(3) 0.1140(3) 0.8575(3)
O54_4 O 0.1725(2) 0.1166(2) 0.8874(2)
O55_4 O 0.2026(3) 0.1567(3) 0.8606(3)
O56_2 O 0.23055(19) 0.0369(2) 0.9649(2)
O57_2 O 0.2866(2) 0.0446(3) 0.9771(3)
O58_4 O 0.3192(3) 0.1509(2) 0.9116(2)
N10_4 N 0.3327(2) 0.1176(2) 0.8633(3)
C82_4 C 0.2300(4) 0.1232(3) 0.9014(3)
C83_4 C 0.2610(4) 0.1416(4) 0.8966(3)
H28_4 H 0.262500 0.160646 0.881553
C84_4 C 0.2895(4) 0.1299(3) 0.9155(3)
C85_4 C 0.2903(3) 0.1028(4) 0.9361(3)
H29_4 H 0.310596 0.096506 0.947895
C86_4 C 0.2591(4) 0.0833(3) 0.9399(3)
C87_4 C 0.2304(3) 0.0938(4) 0.9229(3)
H30_4 H 0.209937 0.080886 0.925493
C88_4 C 0.2004(4) 0.1320(5) 0.8801(4)
C89_4 C 0.2583(4) 0.0534(4) 0.9613(4)
C90_4 C 0.3395(3) 0.1425(3) 0.8860(3)
O61_2 O 0.4631(2) 0.0351(2) 0.73055(19)
O62_2 O 0.4554(3) 0.0229(3) 0.7866(2)
O63_4 O 0.3491(2) 0.0884(2) 0.8192(3)
N11_4 N 0.3824(2) 0.1367(3) 0.8327(2)
C91_4 C 0.3768(3) 0.0986(3) 0.7300(4)
C92_4 C 0.3584(4) 0.1034(3) 0.7610(4)
H31_4 H 0.339354 0.118447 0.762500
C93_4 C 0.3701(3) 0.0845(3) 0.7895(4)
C94_4 C 0.3972(4) 0.0639(3) 0.7903(3)
H32_4 H 0.403494 0.052105 0.810596
C95_4 C 0.4167(3) 0.0601(3) 0.7591(4)
C96_4 C 0.4062(4) 0.0771(3) 0.7304(3)
H33_4 H 0.419114 0.074507 0.709937
C97_4 C 0.3680(5) 0.1199(4) 0.7004(4)
C98_4 C 0.4466(4) 0.0387(4) 0.7583(4)
C99_4 C 0.3575(3) 0.1140(3) 0.8395(3)
O66_3 O 0.4649(2) 0.26945(19) 0.9631(2)
O67_3 O 0.4771(3) 0.2134(2) 0.9554(3)
O68_4 O 0.4116(2) 0.1808(3) 0.8491(2)
N12_4 N 0.3633(3) 0.1673(2) 0.8824(2)
C100_4 C 0.4014(3) 0.2700(4) 0.8768(3)
C101_4 C 0.3966(3) 0.2390(4) 0.8584(4)
H34_4 H 0.381553 0.237500 0.839354
C102_4 C 0.4155(3) 0.2105(4) 0.8701(3)
C103_4 C 0.4361(3) 0.2097(3) 0.8972(4)
H35_4 H 0.447895 0.189404 0.903494
C104_4 C 0.4399(3) 0.2409(4) 0.9167(3)
C105_4 C 0.4229(3) 0.2696(3) 0.9062(4)
H36_4 H 0.425493 0.290063 0.919114
C106_4 C 0.3801(4) 0.2996(4) 0.8680(5)
C107_4 C 0.4613(4) 0.2417(4) 0.9466(4)
C108_4 C 0.3860(3) 0.1605(3) 0.8575(3)
Zn15_3 Zn 0.21975(6) -0.000000 1.000000
Zn16_2 Zn 0.500000 0.000000 0.71975(6)
Zn17_3 Zn 0.29635(6) -0.000000 1.000000
Zn18_2 Zn 0.500000 -0.000000 0.79635(6)
Zn21_4 Zn 0.12524(4) 0.12524(4) 0.87476(4)
Zn23_4 Zn 0.87476(4) 0.12524(4) 0.87476(4)
Zn29_4 Zn 0.17632(4) 0.17632(4) 0.82368(4)
Zn31_4 Zn 0.82368(4) 0.17632(4) 0.82368(4)
H57 H 0.838269 0.00561986 0.976713
Zn1_2 Zn 0.500000 0.71975(6) 0.000000
Zn2_2 Zn 0.500000 0.79635(6) 0.000000
O6_3 O 0.500000 0.8459(4) 0.000000
O7_3 O 0.500000 0.6702(5) 0.000000
Zn5_4 Zn 0.78025(6) 1.000000 0.000000
Zn6_4 Zn 0.70365(6) 1.000000 0.000000
O25_4 O 0.6541(4) 1.000000 0.000000
O26_4 O 0.8298(5) 1.000000 0.000000
Zn15_4 Zn 0.21975(6) 1.000000 0.000000
Zn17_4 Zn 0.29635(6) 1.000000 0.000000
O92_2 O 0.4649(2) 0.73055(19) 0.0369(2)
O93_2 O 0.5369(2) 0.73055(19) 0.0351(2)
O94_2 O 0.76945(19) 0.9649(2) 0.0369(2)
O98_2 O 0.4771(3) 0.7866(2) 0.0446(3)
O99_2 O 0.5446(3) 0.7866(2) 0.0229(3)
O100_2 O 0.7134(2) 0.9771(3) 0.0446(3)
H59 H 0.645631 0.979869 0.0129844
Zn1_3 Zn 0.500000 0.71975(6) 1.000000
Zn2_3 Zn 0.500000 0.79635(6) 1.000000
O3_2 O 0.4631(2) 0.73055(19) 0.9649(2)
O4_2 O 0.4554(3) 0.7866(2) 0.9771(3)
O5_2 O 0.3491(2) 0.8192(3) 0.9116(2)
O6_4 O 0.500000 0.8459(4) 1.000000
O7_4 O 0.500000 0.6702(5) 1.000000
N1_2 N 0.3824(2) 0.8327(2) 0.8633(3)
C1_2 C 0.3768(3) 0.7300(4) 0.9014(3)
C2_2 C 0.3584(4) 0.7610(4) 0.8966(3)
H1_2 H 0.339354 0.762500 0.881553
C3_2 C 0.3701(3) 0.7895(4) 0.9155(3)
C4_2 C 0.3972(4) 0.7903(3) 0.9361(3)
H2_2 H 0.403494 0.810596 0.947895
C5_2 C 0.4167(3) 0.7591(4) 0.9399(3)
C6_2 C 0.4062(4) 0.7304(3) 0.9229(3)
H3_2 H 0.419114 0.709937 0.925493
C7_2 C 0.3680(5) 0.7004(4) 0.8801(4)
C8_2 C 0.4466(4) 0.7583(4) 0.9613(4)
C9_2 C 0.3575(3) 0.8395(3) 0.8860(3)
O12_2 O 0.4649(2) 0.9631(2) 0.73055(19)
O13_2 O 0.4771(3) 0.9554(3) 0.7866(2)
O14_2 O 0.4116(2) 0.8491(2) 0.8192(3)
N2_2 N 0.3633(3) 0.8824(2) 0.8327(2)
C10_2 C 0.4014(3) 0.8768(3) 0.7300(4)
C11_2 C 0.3966(3) 0.8584(4) 0.7610(4)
H4_2 H 0.381553 0.839354 0.762500
C12_2 C 0.4155(3) 0.8701(3) 0.7895(4)
C13_2 C 0.4361(3) 0.8972(4) 0.7903(3)
H5_2 H 0.447895 0.903494 0.810596
C14_2 C 0.4399(3) 0.9167(3) 0.7591(4)
C15_2 C 0.4229(3) 0.9062(4) 0.7304(3)
H6_2 H 0.425493 0.919114 0.709937
C16_2 C 0.3801(4) 0.8680(5) 0.7004(4)
C17_2 C 0.4613(4) 0.9466(4) 0.7583(4)
C18_2 C 0.3860(3) 0.8575(3) 0.8395(3)
O15_2 O 0.1725(2) 0.8874(2) 0.8834(2)
O16_2 O 0.2026(3) 0.8606(3) 0.8433(3)
O17_2 O 0.23055(19) 0.9649(2) 0.9631(2)
O18_2 O 0.2866(2) 0.9771(3) 0.9554(3)
O19_2 O 0.3192(3) 0.9116(2) 0.8491(2)
N3_2 N 0.3327(2) 0.8633(3) 0.8824(2)
C19_2 C 0.2300(4) 0.9014(3) 0.8768(3)
C20_2 C 0.2610(4) 0.8966(3) 0.8584(4)
H7_2 H 0.262500 0.881553 0.839354
C21_2 C 0.2895(4) 0.9155(3) 0.8701(3)
C22_2 C 0.2903(3) 0.9361(3) 0.8972(4)
H8_2 H 0.310596 0.947895 0.903494
C23_2 C 0.2591(4) 0.9399(3) 0.9167(3)
C24_2 C 0.2304(3) 0.9229(3) 0.9062(4)
H9_2 H 0.209937 0.925493 0.919114
C25_2 C 0.2004(4) 0.8801(4) 0.8680(5)
C26_2 C 0.2583(4) 0.9613(4) 0.9466(4)
C27_2 C 0.3395(3) 0.8860(3) 0.8575(3)
Zn5_5 Zn 0.78025(6) 1.000000 1.000000
Zn6_5 Zn 0.70365(6) 1.000000 1.000000
O20_2 O 0.8275(2) 0.8834(2) 0.8874(2)
O21_2 O 0.7974(3) 0.8433(3) 0.8606(3)
O22_2 O 0.76945(19) 0.9631(2) 0.9649(2)
O23_2 O 0.7134(2) 0.9554(3) 0.9771(3)
O24_2 O 0.6808(3) 0.8491(2) 0.9116(2)
O25_5 O 0.6541(4) 1.000000 1.000000
O26_5 O 0.8298(5) 1.000000 1.000000
N4_2 N 0.6673(2) 0.8824(2) 0.8633(3)
C28_2 C 0.7700(4) 0.8768(3) 0.9014(3)
C29_2 C 0.7390(4) 0.8584(4) 0.8966(3)
H10_2 H 0.737500 0.839354 0.881553
C30_2 C 0.7105(4) 0.8701(3) 0.9155(3)
C31_2 C 0.7097(3) 0.8972(4) 0.9361(3)
H11_2 H 0.689404 0.903494 0.947895
C32_2 C 0.7409(4) 0.9167(3) 0.9399(3)
C33_2 C 0.7696(3) 0.9062(4) 0.9229(3)
H12_2 H 0.790063 0.919114 0.925493
C34_2 C 0.7996(4) 0.8680(5) 0.8801(4)
C35_2 C 0.7417(4) 0.9466(4) 0.9613(4)
C36_2 C 0.6605(3) 0.8575(3) 0.8860(3)
O29_2 O 0.5369(2) 0.9649(2) 0.73055(19)
O30_2 O 0.5446(3) 0.9771(3) 0.7866(2)
O31_2 O 0.6509(2) 0.9116(2) 0.8192(3)
N5_2 N 0.6176(2) 0.8633(3) 0.8327(2)
C37_2 C 0.6232(3) 0.9014(3) 0.7300(4)
C38_2 C 0.6416(4) 0.8966(3) 0.7610(4)
H13_2 H 0.660646 0.881553 0.762500
C39_2 C 0.6299(3) 0.9155(3) 0.7895(4)
C40_2 C 0.6028(4) 0.9361(3) 0.7903(3)
H14_2 H 0.596506 0.947895 0.810596
C41_2 C 0.5833(3) 0.9399(3) 0.7591(4)
C42_2 C 0.5938(4) 0.9229(3) 0.7304(3)
H15_2 H 0.580886 0.925493 0.709937
C43_2 C 0.6320(5) 0.8801(4) 0.7004(4)
C44_2 C 0.5534(4) 0.9613(4) 0.7583(4)
C45_2 C 0.6425(3) 0.8860(3) 0.8395(3)
O34_2 O 0.5351(2) 0.73055(19) 0.9631(2)
O35_2 O 0.5229(3) 0.7866(2) 0.9554(3)
O36_2 O 0.5884(2) 0.8192(3) 0.8491(2)
N6_2 N 0.6367(3) 0.8327(2) 0.8824(2)
C46_2 C 0.5986(3) 0.7300(4) 0.8768(3)
C47_2 C 0.6034(3) 0.7610(4) 0.8584(4)
H16_2 H 0.618447 0.762500 0.839354
C48_2 C 0.5845(3) 0.7895(4) 0.8701(3)
C49_2 C 0.5639(3) 0.7903(3) 0.8972(4)
H17_2 H 0.552105 0.810596 0.903494
C50_2 C 0.5601(3) 0.7591(4) 0.9167(3)
C51_2 C 0.5771(3) 0.7304(3) 0.9062(4)
H18_2 H 0.574507 0.709937 0.919114
C52_2 C 0.6199(4) 0.7004(4) 0.8680(5)
C53_2 C 0.5387(4) 0.7583(4) 0.9466(4)
C54_2 C 0.6140(3) 0.8395(3) 0.8575(3)
Zn13_2 Zn 0.12524(4) 0.87476(4) 0.87476(4)
O73_5 O 0.0955(3) 0.9045(3) 0.9045(3)
Zn14_2 Zn 0.17632(4) 0.82368(4) 0.82368(4)
O74_5 O 0.2031(4) 0.7969(4) 0.7969(4)
Zn15_5 Zn 0.21975(6) 1.000000 1.000000
Zn16_3 Zn 0.500000 1.000000 0.71975(6)
Zn17_5 Zn 0.29635(6) 1.000000 1.000000
Zn18_3 Zn 0.500000 1.000000 0.79635(6)
Zn19_2 Zn 0.87476(4) 0.87476(4) 0.87476(4)
Zn27_2 Zn 0.82368(4) 0.82368(4) 0.82368(4)
O79_5 O 0.1126(2) 0.8834(2) 0.8275(2)
O80_5 O 0.1166(2) 0.8275(2) 0.8874(2)
O87_5 O 0.1394(3) 0.8433(3) 0.7974(3)
O88_5 O 0.1567(3) 0.7974(3) 0.8606(3)
O42_6 O 0.3459(4) -0.000000 0.000000
O43_6 O 0.1702(5) 0.000000 0.000000
O96_5 O 0.23055(19) 0.0351(2) 0.0369(2)
O102_5 O 0.2866(2) 0.0229(3) 0.0446(3)
H61 H 0.354369 0.0201311 0.0129844
O42_7 O 0.3459(4) -0.000000 1.000000
O43_7 O 0.1702(5) 0.000000 1.000000
O69_8 O 0.9045(3) 0.0955(3) 0.9045(3)
O70_8 O 0.7969(4) 0.2031(4) 0.7969(4)
O77_8 O 0.8874(2) 0.1166(2) 0.8275(2)
O81_8 O 0.8834(2) 0.1725(2) 0.8874(2)
O85_8 O 0.8606(3) 0.1567(3) 0.7974(3)
O89_8 O 0.8433(3) 0.2026(3) 0.8606(3)
O42_8 O 0.3459(4) 1.000000 0.000000
O43_8 O 0.1702(5) 1.000000 0.000000
O91_5 O 0.23055(19) 0.9631(2) 0.0351(2)
O97_5 O 0.2866(2) 0.9554(3) 0.0229(3)
H62 H 0.354369 0.97869 0.0109419
H64 H 0.161731 0.982643 0.0165103
O8_8 O 0.9045(3) 0.9045(3) 0.9045(3)
O9_8 O 0.7969(4) 0.7969(4) 0.7969(4)
O42_9 O 0.3459(4) 1.000000 1.000000
O43_9 O 0.1702(5) 1.000000 1.000000
O76_8 O 0.8834(2) 0.8874(2) 0.8275(2)
O82_8 O 0.8874(2) 0.8275(2) 0.8834(2)
O84_8 O 0.8433(3) 0.8606(3) 0.7974(3)
O90_8 O 0.8606(3) 0.7974(3) 0.8433(3)
H63 H 0.161731 0.99438 0.976713
O8_9 O 0.0955(3) 0.0955(3) 0.9045(3)
O9_9 O 0.2031(4) 0.2031(4) 0.7969(4)
O76_9 O 0.1166(2) 0.1126(2) 0.8275(2)
O82_9 O 0.1126(2) 0.1725(2) 0.8834(2)
O84_9 O 0.1567(3) 0.1394(3) 0.7974(3)
O90_9 O 0.1394(3) 0.2026(3) 0.8433(3)
Zn7_5 Zn 0.500000 0.000000 0.28025(6)
Zn8_5 Zn 0.500000 0.000000 0.20365(6)
O39_4 O 0.5369(2) 0.0351(2) 0.26945(19)
O40_4 O 0.5446(3) 0.0229(3) 0.2134(2)
O41_5 O 0.6509(2) 0.0884(2) 0.1808(3)
O42_10 O 0.500000 0.000000 0.1541(4)
O43_10 O 0.500000 0.000000 0.3298(5)
N7_5 N 0.6176(2) 0.1367(3) 0.1673(2)
C55_5 C 0.6232(3) 0.0986(3) 0.2700(4)
C56_5 C 0.6416(4) 0.1034(3) 0.2390(4)
H19_5 H 0.660646 0.118447 0.237500
C57_5 C 0.6299(3) 0.0845(3) 0.2105(4)
C58_5 C 0.6028(4) 0.0639(3) 0.2097(3)
H20_5 H 0.596506 0.052105 0.189404
C59_5 C 0.5833(3) 0.0601(3) 0.2409(4)
C60_5 C 0.5938(4) 0.0771(3) 0.2696(3)
H21_5 H 0.580886 0.074507 0.290063
C61_5 C 0.6320(5) 0.1199(4) 0.2996(4)
C62_5 C 0.5534(4) 0.0387(4) 0.2417(4)
C63_5 C 0.6425(3) 0.1140(3) 0.1605(3)
O48_5 O 0.5884(2) 0.1808(3) 0.1509(2)
N8_5 N 0.6367(3) 0.1673(2) 0.1176(2)
C64_5 C 0.5986(3) 0.2700(4) 0.1232(3)
C65_5 C 0.6034(3) 0.2390(4) 0.1416(4)
H22_5 H 0.618447 0.237500 0.160646
C66_5 C 0.5845(3) 0.2105(4) 0.1299(3)
C67_5 C 0.5639(3) 0.2097(3) 0.1028(4)
H23_5 H 0.552105 0.189404 0.096506
C68_5 C 0.5601(3) 0.2409(4) 0.0833(3)
C69_5 C 0.5771(3) 0.2696(3) 0.0938(4)
H24_5 H 0.574507 0.290063 0.080886
C70_5 C 0.6199(4) 0.2996(4) 0.1320(5)
C71_5 C 0.5387(4) 0.2417(4) 0.0534(4)
C72_5 C 0.6140(3) 0.1605(3) 0.1425(3)
O49_5 O 0.8275(2) 0.1166(2) 0.1126(2)
O50_5 O 0.7974(3) 0.1567(3) 0.1394(3)
O53_5 O 0.6808(3) 0.1509(2) 0.0884(2)
N9_5 N 0.6673(2) 0.1176(2) 0.1367(3)
C73_5 C 0.7700(4) 0.1232(3) 0.0986(3)
C74_5 C 0.7390(4) 0.1416(4) 0.1034(3)
H25_5 H 0.737500 0.160646 0.118447
C75_5 C 0.7105(4) 0.1299(3) 0.0845(3)
C76_5 C 0.7097(3) 0.1028(4) 0.0639(3)
H26_5 H 0.689404 0.096506 0.052105
C77_5 C 0.7409(4) 0.0833(3) 0.0601(3)
C78_5 C 0.7696(3) 0.0938(4) 0.0771(3)
H27_5 H 0.790063 0.080886 0.074507
C79_5 C 0.7996(4) 0.1320(5) 0.1199(4)
C80_5 C 0.7417(4) 0.0534(4) 0.0387(4)
C81_5 C 0.6605(3) 0.1425(3) 0.1140(3)
O54_5 O 0.1725(2) 0.1126(2) 0.1166(2)
O55_5 O 0.2026(3) 0.1394(3) 0.1567(3)
O58_5 O 0.3192(3) 0.0884(2) 0.1509(2)
N10_5 N 0.3327(2) 0.1367(3) 0.1176(2)
C82_5 C 0.2300(4) 0.0986(3) 0.1232(3)
C83_5 C 0.2610(4) 0.1034(3) 0.1416(4)
H28_5 H 0.262500 0.118447 0.160646
C84_5 C 0.2895(4) 0.0845(3) 0.1299(3)
C85_5 C 0.2903(3) 0.0639(3) 0.1028(4)
H29_5 H 0.310596 0.052105 0.096506
C86_5 C 0.2591(4) 0.0601(3) 0.0833(3)
C87_5 C 0.2304(3) 0.0771(3) 0.0938(4)
H30_5 H 0.209937 0.074507 0.080886
C88_5 C 0.2004(4) 0.1199(4) 0.1320(5)
C89_5 C 0.2583(4) 0.0387(4) 0.0534(4)
C90_5 C 0.3395(3) 0.1140(3) 0.1425(3)
O63_5 O 0.3491(2) 0.1808(3) 0.0884(2)
N11_5 N 0.3824(2) 0.1673(2) 0.1367(3)
C91_5 C 0.3768(3) 0.2700(4) 0.0986(3)
C92_5 C 0.3584(4) 0.2390(4) 0.1034(3)
H31_5 H 0.339354 0.237500 0.118447
C93_5 C 0.3701(3) 0.2105(4) 0.0845(3)
C94_5 C 0.3972(4) 0.2097(3) 0.0639(3)
H32_5 H 0.403494 0.189404 0.052105
C95_5 C 0.4167(3) 0.2409(4) 0.0601(3)
C96_5 C 0.4062(4) 0.2696(3) 0.0771(3)
H33_5 H 0.419114 0.290063 0.074507
C97_5 C 0.3680(5) 0.2996(4) 0.1199(4)
C98_5 C 0.4466(4) 0.2417(4) 0.0387(4)
C99_5 C 0.3575(3) 0.1605(3) 0.1140(3)
O66_4 O 0.4649(2) 0.0369(2) 0.26945(19)
O67_4 O 0.4771(3) 0.0446(3) 0.2134(2)
O68_5 O 0.4116(2) 0.1509(2) 0.1808(3)
N12_5 N 0.3633(3) 0.1176(2) 0.1673(2)
C100_5 C 0.4014(3) 0.1232(3) 0.2700(4)
C101_5 C 0.3966(3) 0.1416(4) 0.2390(4)
H34_5 H 0.381553 0.160646 0.237500
C102_5 C 0.4155(3) 0.1299(3) 0.2105(4)
C103_5 C 0.4361(3) 0.1028(4) 0.2097(3)
H35_5 H 0.447895 0.096506 0.189404
C104_5 C 0.4399(3) 0.0833(3) 0.2409(4)
C105_5 C 0.4229(3) 0.0938(4) 0.2696(3)
H36_5 H 0.425493 0.080886 0.290063
C106_5 C 0.3801(4) 0.1320(5) 0.2996(4)
C107_5 C 0.4613(4) 0.0534(4) 0.2417(4)
C108_5 C 0.3860(3) 0.1425(3) 0.1605(3)
Zn21_5 Zn 0.12524(4) 0.12524(4) 0.12524(4)
Zn23_5 Zn 0.87476(4) 0.12524(4) 0.12524(4)
Zn29_5 Zn 0.17632(4) 0.17632(4) 0.17632(4)
Zn31_5 Zn 0.82368(4) 0.17632(4) 0.17632(4)
H57_2 H 0.838269 0.0232868 0.00561986
O6_5 O 0.500000 0.000000 0.8459(4)
O7_5 O 0.500000 0.000000 0.6702(5)
Zn7_6 Zn 0.500000 1.000000 0.28025(6)
Zn8_6 Zn 0.500000 1.000000 0.20365(6)
O42_11 O 0.500000 1.000000 0.1541(4)
O43_11 O 0.500000 1.000000 0.3298(5)
O91_6 O 0.4631(2) 0.9649(2) 0.26945(19)
O96_6 O 0.5351(2) 0.9631(2) 0.26945(19)
O97_6 O 0.4554(3) 0.9771(3) 0.2134(2)
O102_6 O 0.5229(3) 0.9554(3) 0.2134(2)
H58_2 H 0.838269 0.98349 0.017357
H60_2 H 0.645631 0.989058 0.0213104
O6_6 O 0.500000 1.000000 0.8459(4)
O7_6 O 0.500000 1.000000 0.6702(5)
H59_2 H 0.645631 0.987016 0.979869
O73_6 O 0.0955(3) 0.0955(3) 0.0955(3)
O74_6 O 0.2031(4) 0.2031(4) 0.2031(4)
O79_6 O 0.1126(2) 0.1166(2) 0.1725(2)
O80_6 O 0.1166(2) 0.1725(2) 0.1126(2)
O87_6 O 0.1394(3) 0.1567(3) 0.2026(3)
O88_6 O 0.1567(3) 0.2026(3) 0.1394(3)
H59_3 H 0.645631 0.0201311 0.987016
O41_6 O 0.6509(2) 0.8192(3) 0.0884(2)
N7_6 N 0.6176(2) 0.8327(2) 0.1367(3)
C55_6 C 0.6232(3) 0.7300(4) 0.0986(3)
C56_6 C 0.6416(4) 0.7610(4) 0.1034(3)
H19_6 H 0.660646 0.762500 0.118447
C57_6 C 0.6299(3) 0.7895(4) 0.0845(3)
C58_6 C 0.6028(4) 0.7903(3) 0.0639(3)
H20_6 H 0.596506 0.810596 0.052105
C59_6 C 0.5833(3) 0.7591(4) 0.0601(3)
C60_6 C 0.5938(4) 0.7304(3) 0.0771(3)
H21_6 H 0.580886 0.709937 0.074507
C61_6 C 0.6320(5) 0.7004(4) 0.1199(4)
C62_6 C 0.5534(4) 0.7583(4) 0.0387(4)
C63_6 C 0.6425(3) 0.8395(3) 0.1140(3)
O48_6 O 0.5884(2) 0.8491(2) 0.1808(3)
N8_6 N 0.6367(3) 0.8824(2) 0.1673(2)
C64_6 C 0.5986(3) 0.8768(3) 0.2700(4)
C65_6 C 0.6034(3) 0.8584(4) 0.2390(4)
H22_6 H 0.618447 0.839354 0.237500
C66_6 C 0.5845(3) 0.8701(3) 0.2105(4)
C67_6 C 0.5639(3) 0.8972(4) 0.2097(3)
H23_6 H 0.552105 0.903494 0.189404
C68_6 C 0.5601(3) 0.9167(3) 0.2409(4)
C69_6 C 0.5771(3) 0.9062(4) 0.2696(3)
H24_6 H 0.574507 0.919114 0.290063
C70_6 C 0.6199(4) 0.8680(5) 0.2996(4)
C71_6 C 0.5387(4) 0.9466(4) 0.2417(4)
C72_6 C 0.6140(3) 0.8575(3) 0.1605(3)
O49_6 O 0.8275(2) 0.8874(2) 0.1166(2)
O50_6 O 0.7974(3) 0.8606(3) 0.1567(3)
O53_6 O 0.6808(3) 0.9116(2) 0.1509(2)
N9_6 N 0.6673(2) 0.8633(3) 0.1176(2)
C73_6 C 0.7700(4) 0.9014(3) 0.1232(3)
C74_6 C 0.7390(4) 0.8966(3) 0.1416(4)
H25_6 H 0.737500 0.881553 0.160646
C75_6 C 0.7105(4) 0.9155(3) 0.1299(3)
C76_6 C 0.7097(3) 0.9361(3) 0.1028(4)
H26_6 H 0.689404 0.947895 0.096506
C77_6 C 0.7409(4) 0.9399(3) 0.0833(3)
C78_6 C 0.7696(3) 0.9229(3) 0.0938(4)
H27_6 H 0.790063 0.925493 0.080886
C79_6 C 0.7996(4) 0.8801(4) 0.1320(5)
C80_6 C 0.7417(4) 0.9613(4) 0.0534(4)
C81_6 C 0.6605(3) 0.8860(3) 0.1425(3)
O54_6 O 0.1725(2) 0.8834(2) 0.1126(2)
O55_6 O 0.2026(3) 0.8433(3) 0.1394(3)
O58_6 O 0.3192(3) 0.8491(2) 0.0884(2)
N10_6 N 0.3327(2) 0.8824(2) 0.1367(3)
C82_6 C 0.2300(4) 0.8768(3) 0.0986(3)
C83_6 C 0.2610(4) 0.8584(4) 0.1034(3)
H28_6 H 0.262500 0.839354 0.118447
C84_6 C 0.2895(4) 0.8701(3) 0.0845(3)
C85_6 C 0.2903(3) 0.8972(4) 0.0639(3)
H29_6 H 0.310596 0.903494 0.052105
C86_6 C 0.2591(4) 0.9167(3) 0.0601(3)
C87_6 C 0.2304(3) 0.9062(4) 0.0771(3)
H30_6 H 0.209937 0.919114 0.074507
C88_6 C 0.2004(4) 0.8680(5) 0.1199(4)
C89_6 C 0.2583(4) 0.9466(4) 0.0387(4)
C90_6 C 0.3395(3) 0.8575(3) 0.1140(3)
O63_6 O 0.3491(2) 0.9116(2) 0.1808(3)
N11_6 N 0.3824(2) 0.8633(3) 0.1673(2)
C91_6 C 0.3768(3) 0.9014(3) 0.2700(4)
C92_6 C 0.3584(4) 0.8966(3) 0.2390(4)
H31_6 H 0.339354 0.881553 0.237500
C93_6 C 0.3701(3) 0.9155(3) 0.2105(4)
C94_6 C 0.3972(4) 0.9361(3) 0.2097(3)
H32_6 H 0.403494 0.947895 0.189404
C95_6 C 0.4167(3) 0.9399(3) 0.2409(4)
C96_6 C 0.4062(4) 0.9229(3) 0.2696(3)
H33_6 H 0.419114 0.925493 0.290063
C97_6 C 0.3680(5) 0.8801(4) 0.2996(4)
C98_6 C 0.4466(4) 0.9613(4) 0.2417(4)
C99_6 C 0.3575(3) 0.8860(3) 0.1605(3)
O68_6 O 0.4116(2) 0.8192(3) 0.1509(2)
N12_6 N 0.3633(3) 0.8327(2) 0.1176(2)
C100_6 C 0.4014(3) 0.7300(4) 0.1232(3)
C101_6 C 0.3966(3) 0.7610(4) 0.1416(4)
H34_6 H 0.381553 0.762500 0.160646
C102_6 C 0.4155(3) 0.7895(4) 0.1299(3)
C103_6 C 0.4361(3) 0.7903(3) 0.1028(4)
H35_6 H 0.447895 0.810596 0.096506
C104_6 C 0.4399(3) 0.7591(4) 0.0833(3)
C105_6 C 0.4229(3) 0.7304(3) 0.0938(4)
H36_6 H 0.425493 0.709937 0.080886
C106_6 C 0.3801(4) 0.7004(4) 0.1320(5)
C107_6 C 0.4613(4) 0.7583(4) 0.0534(4)
C108_6 C 0.3860(3) 0.8395(3) 0.1425(3)
Zn21_6 Zn 0.12524(4) 0.87476(4) 0.12524(4)
Zn23_6 Zn 0.87476(4) 0.87476(4) 0.12524(4)
Zn29_6 Zn 0.17632(4) 0.82368(4) 0.17632(4)
Zn31_6 Zn 0.82368(4) 0.82368(4) 0.17632(4)
H57_3 H 0.838269 0.99438 0.0232868
H58_3 H 0.838269 0.982643 0.98349
H60_3 H 0.645631 0.97869 0.989058
H59_4 H 0.645631 0.0129844 0.0201311
H58_4 H 0.838269 0.0165103 0.982643
H60_4 H 0.645631 0.0109419 0.97869
O73_7 O 0.0955(3) 0.9045(3) 0.0955(3)
O74_7 O 0.2031(4) 0.7969(4) 0.2031(4)
O79_7 O 0.1126(2) 0.8275(2) 0.1166(2)
O80_7 O 0.1166(2) 0.8874(2) 0.1725(2)
O87_7 O 0.1394(3) 0.7974(3) 0.1567(3)
O88_7 O 0.1567(3) 0.8606(3) 0.2026(3)
H57_4 H 0.838269 0.976713 0.99438
H57_5 H 0.161731 0.00561986 0.0232868
H58_5 H 0.161731 0.017357 0.98349
H60_5 H 0.354369 0.0213104 0.989058
O73_8 O 0.9045(3) 0.9045(3) 0.0955(3)
O74_8 O 0.7969(4) 0.7969(4) 0.2031(4)
O79_8 O 0.8874(2) 0.8834(2) 0.1725(2)
O80_8 O 0.8834(2) 0.8275(2) 0.1126(2)
O87_8 O 0.8606(3) 0.8433(3) 0.2026(3)
O88_8 O 0.8433(3) 0.7974(3) 0.1394(3)
H59_5 H 0.354369 0.979869 0.987016
H50 H 0.354369 0.0109419 0.0213104
H56 H 0.161731 0.0165103 0.017357
H49 H 0.354369 0.0129844 0.979869
H55 H 0.161731 0.976713 0.00561986
O69_9 O 0.9045(3) 0.0955(3) 0.0955(3)
O70_9 O 0.7969(4) 0.2031(4) 0.2031(4)
O77_9 O 0.8874(2) 0.1725(2) 0.1166(2)
O81_9 O 0.8834(2) 0.1126(2) 0.1725(2)
O85_9 O 0.8606(3) 0.2026(3) 0.1567(3)
O89_9 O 0.8433(3) 0.1394(3) 0.2026(3)
H63_2 H 0.161731 0.0232868 0.99438
H61_2 H 0.354369 0.987016 0.0201311
H62_2 H 0.354369 0.989058 0.97869
H64_2 H 0.161731 0.98349 0.982643
Zn1_4 Zn -0.000000 0.21975(6) 0.000000
Zn2_4 Zn -0.000000 0.29635(6) 0.000000
O6_7 O -0.000000 0.3459(4) 0.000000
O7_7 O -0.000000 0.1702(5) 0.000000
Zn5_6 Zn 0.28025(6) 0.500000 0.000000
Zn6_6 Zn 0.20365(6) 0.500000 0.000000
O25_6 O 0.1541(4) 0.500000 0.000000
O26_6 O 0.3298(5) 0.500000 0.000000
Zn7_7 Zn 0.000000 0.78025(6) 0.000000
Zn8_7 Zn -0.000000 0.70365(6) 0.000000
O42_12 O -0.000000 0.6541(4) 0.000000
O43_12 O 0.000000 0.8298(5) 0.000000
O93_3 O 0.0369(2) 0.23055(19) 0.0351(2)
O94_3 O 0.26945(19) 0.4649(2) 0.0369(2)
O95_3 O 0.26945(19) 0.5369(2) 0.0351(2)
O96_7 O 0.0351(2) 0.76945(19) 0.0369(2)
O99_3 O 0.0446(3) 0.2866(2) 0.0229(3)
O100_3 O 0.2134(2) 0.4771(3) 0.0446(3)
O101_3 O 0.2134(2) 0.5446(3) 0.0229(3)
O102_7 O 0.0229(3) 0.7134(2) 0.0446(3)
H50_2 H 0.0213104 0.354369 0.0109419
H56_2 H 0.017357 0.161731 0.0165103
H61_3 H 0.0201311 0.645631 0.0129844
Zn1_5 Zn -0.000000 0.21975(6) 1.000000
Zn2_5 Zn -0.000000 0.29635(6) 1.000000
O6_8 O -0.000000 0.3459(4) 1.000000
O7_8 O -0.000000 0.1702(5) 1.000000
Zn5_7 Zn 0.28025(6) 0.500000 1.000000
Zn6_7 Zn 0.20365(6) 0.500000 1.000000
O22_3 O 0.26945(19) 0.4631(2) 0.9649(2)
O23_3 O 0.2134(2) 0.4554(3) 0.9771(3)
O24_3 O 0.1808(3) 0.3491(2) 0.9116(2)
O25_7 O 0.1541(4) 0.500000 1.000000
O26_7 O 0.3298(5) 0.500000 1.000000
N4_3 N 0.1673(2) 0.3824(2) 0.8633(3)
C28_3 C 0.2700(4) 0.3768(3) 0.9014(3)
C29_3 C 0.2390(4) 0.3584(4) 0.8966(3)
H10_3 H 0.237500 0.339354 0.881553
C30_3 C 0.2105(4) 0.3701(3) 0.9155(3)
C31_3 C 0.2097(3) 0.3972(4) 0.9361(3)
H11_3 H 0.189404 0.403494 0.947895
C32_3 C 0.2409(4) 0.4167(3) 0.9399(3)
C33_3 C 0.2696(3) 0.4062(4) 0.9229(3)
H12_3 H 0.290063 0.419114 0.925493
C34_3 C 0.2996(4) 0.3680(5) 0.8801(4)
C35_3 C 0.2417(4) 0.4466(4) 0.9613(4)
C36_3 C 0.1605(3) 0.3575(3) 0.8860(3)
O29_3 O 0.0369(2) 0.4649(2) 0.73055(19)
O30_3 O 0.0446(3) 0.4771(3) 0.7866(2)
O31_3 O 0.1509(2) 0.4116(2) 0.8192(3)
N5_3 N 0.1176(2) 0.3633(3) 0.8327(2)
C37_3 C 0.1232(3) 0.4014(3) 0.7300(4)
C38_3 C 0.1416(4) 0.3966(3) 0.7610(4)
H13_3 H 0.160646 0.381553 0.762500
C39_3 C 0.1299(3) 0.4155(3) 0.7895(4)
C40_3 C 0.1028(4) 0.4361(3) 0.7903(3)
H14_3 H 0.096506 0.447895 0.810596
C41_3 C 0.0833(3) 0.4399(3) 0.7591(4)
C42_3 C 0.0938(4) 0.4229(3) 0.7304(3)
H15_3 H 0.080886 0.425493 0.709937
C43_3 C 0.1320(5) 0.3801(4) 0.7004(4)
C44_3 C 0.0534(4) 0.4613(4) 0.7583(4)
C45_3 C 0.1425(3) 0.3860(3) 0.8395(3)
O34_3 O 0.0351(2) 0.23055(19) 0.9631(2)
O35_3 O 0.0229(3) 0.2866(2) 0.9554(3)
O36_3 O 0.0884(2) 0.3192(3) 0.8491(2)
N6_3 N 0.1367(3) 0.3327(2) 0.8824(2)
C46_3 C 0.0986(3) 0.2300(4) 0.8768(3)
C47_3 C 0.1034(3) 0.2610(4) 0.8584(4)
H16_3 H 0.118447 0.262500 0.839354
C48_3 C 0.0845(3) 0.2895(4) 0.8701(3)
C49_3 C 0.0639(3) 0.2903(3) 0.8972(4)
H17_3 H 0.052105 0.310596 0.903494
C50_3 C 0.0601(3) 0.2591(4) 0.9167(3)
C51_3 C 0.0771(3) 0.2304(3) 0.9062(4)
H18_3 H 0.074507 0.209937 0.919114
C52_3 C 0.1199(4) 0.2004(4) 0.8680(5)
C53_3 C 0.0387(4) 0.2583(4) 0.9466(4)
C54_3 C 0.1140(3) 0.3395(3) 0.8575(3)
Zn7_8 Zn 0.000000 0.78025(6) 1.000000
Zn8_8 Zn -0.000000 0.70365(6) 1.000000
O39_5 O 0.0369(2) 0.76945(19) 0.9649(2)
O40_5 O 0.0446(3) 0.7134(2) 0.9771(3)
O41_7 O 0.1509(2) 0.6808(3) 0.9116(2)
O42_13 O -0.000000 0.6541(4) 1.000000
O43_13 O 0.000000 0.8298(5) 1.000000
N7_7 N 0.1176(2) 0.6673(2) 0.8633(3)
C55_7 C 0.1232(3) 0.7700(4) 0.9014(3)
C56_7 C 0.1416(4) 0.7390(4) 0.8966(3)
H19_7 H 0.160646 0.737500 0.881553
C57_7 C 0.1299(3) 0.7105(4) 0.9155(3)
C58_7 C 0.1028(4) 0.7097(3) 0.9361(3)
H20_7 H 0.096506 0.689404 0.947895
C59_7 C 0.0833(3) 0.7409(4) 0.9399(3)
C60_7 C 0.0938(4) 0.7696(3) 0.9229(3)
H21_7 H 0.080886 0.790063 0.925493
C61_7 C 0.1320(5) 0.7996(4) 0.8801(4)
C62_7 C 0.0534(4) 0.7417(4) 0.9613(4)
C63_7 C 0.1425(3) 0.6605(3) 0.8860(3)
O46_3 O 0.0351(2) 0.5369(2) 0.73055(19)
O47_3 O 0.0229(3) 0.5446(3) 0.7866(2)
O48_7 O 0.0884(2) 0.6509(2) 0.8192(3)
N8_7 N 0.1367(3) 0.6176(2) 0.8327(2)
C64_7 C 0.0986(3) 0.6232(3) 0.7300(4)
C65_7 C 0.1034(3) 0.6416(4) 0.7610(4)
H22_7 H 0.118447 0.660646 0.762500
C66_7 C 0.0845(3) 0.6299(3) 0.7895(4)
C67_7 C 0.0639(3) 0.6028(4) 0.7903(3)
H23_7 H 0.052105 0.596506 0.810596
C68_7 C 0.0601(3) 0.5833(3) 0.7591(4)
C69_7 C 0.0771(3) 0.5938(4) 0.7304(3)
H24_7 H 0.074507 0.580886 0.709937
C70_7 C 0.1199(4) 0.6320(5) 0.7004(4)
C71_7 C 0.0387(4) 0.5534(4) 0.7583(4)
C72_7 C 0.1140(3) 0.6425(3) 0.8395(3)
O51_3 O 0.26945(19) 0.5351(2) 0.9631(2)
O52_3 O 0.2134(2) 0.5229(3) 0.9554(3)
O53_7 O 0.1808(3) 0.5884(2) 0.8491(2)
N9_7 N 0.1673(2) 0.6367(3) 0.8824(2)
C73_7 C 0.2700(4) 0.5986(3) 0.8768(3)
C74_7 C 0.2390(4) 0.6034(3) 0.8584(4)
H25_7 H 0.237500 0.618447 0.839354
C75_7 C 0.2105(4) 0.5845(3) 0.8701(3)
C76_7 C 0.2097(3) 0.5639(3) 0.8972(4)
H26_7 H 0.189404 0.552105 0.903494
C77_7 C 0.2409(4) 0.5601(3) 0.9167(3)
C78_7 C 0.2696(3) 0.5771(3) 0.9062(4)
H27_7 H 0.290063 0.574507 0.919114
C79_7 C 0.2996(4) 0.6199(4) 0.8680(5)
C80_7 C 0.2417(4) 0.5387(4) 0.9466(4)
C81_7 C 0.1605(3) 0.6140(3) 0.8575(3)
Zn16_4 Zn -0.000000 0.500000 0.71975(6)
Zn18_4 Zn -0.000000 0.500000 0.79635(6)
H55_2 H 0.00561986 0.161731 0.976713
Zn1_6 Zn 1.000000 0.21975(6) 0.000000
Zn2_6 Zn 1.000000 0.29635(6) 0.000000
O6_9 O 1.000000 0.3459(4) 0.000000
O7_9 O 1.000000 0.1702(5) 0.000000
Zn7_9 Zn 1.000000 0.78025(6) 0.000000
Zn8_9 Zn 1.000000 0.70365(6) 0.000000
O42_14 O 1.000000 0.6541(4) 0.000000
O43_14 O 1.000000 0.8298(5) 0.000000
Zn15_6 Zn 0.71975(6) 0.500000 0.000000
Zn17_6 Zn 0.79635(6) 0.500000 0.000000
O91_7 O 0.9631(2) 0.76945(19) 0.0351(2)
O92_3 O 0.9649(2) 0.23055(19) 0.0369(2)
O97_7 O 0.9554(3) 0.7134(2) 0.0229(3)
O98_3 O 0.9771(3) 0.2866(2) 0.0446(3)
H49_2 H 0.979869 0.354369 0.0129844
H62_3 H 0.97869 0.645631 0.0109419
H64_3 H 0.982643 0.838269 0.0165103
Zn1_7 Zn 1.000000 0.21975(6) 1.000000
Zn2_7 Zn 1.000000 0.29635(6) 1.000000
O3_3 O 0.9631(2) 0.23055(19) 0.9649(2)
O4_3 O 0.9554(3) 0.2866(2) 0.9771(3)
O5_3 O 0.8491(2) 0.3192(3) 0.9116(2)
O6_10 O 1.000000 0.3459(4) 1.000000
O7_10 O 1.000000 0.1702(5) 1.000000
N1_3 N 0.8824(2) 0.3327(2) 0.8633(3)
C1_3 C 0.8768(3) 0.2300(4) 0.9014(3)
C2_3 C 0.8584(4) 0.2610(4) 0.8966(3)
H1_3 H 0.839354 0.262500 0.881553
C3_3 C 0.8701(3) 0.2895(4) 0.9155(3)
C4_3 C 0.8972(4) 0.2903(3) 0.9361(3)
H2_3 H 0.903494 0.310596 0.947895
C5_3 C 0.9167(3) 0.2591(4) 0.9399(3)
C6_3 C 0.9062(4) 0.2304(3) 0.9229(3)
H3_3 H 0.919114 0.209937 0.925493
C7_3 C 0.8680(5) 0.2004(4) 0.8801(4)
C8_3 C 0.9466(4) 0.2583(4) 0.9613(4)
C9_3 C 0.8575(3) 0.3395(3) 0.8860(3)
O12_3 O 0.9649(2) 0.4631(2) 0.73055(19)
O13_3 O 0.9771(3) 0.4554(3) 0.7866(2)
O14_3 O 0.9116(2) 0.3491(2) 0.8192(3)
N2_3 N 0.8633(3) 0.3824(2) 0.8327(2)
C10_3 C 0.9014(3) 0.3768(3) 0.7300(4)
C11_3 C 0.8966(3) 0.3584(4) 0.7610(4)
H4_3 H 0.881553 0.339354 0.762500
C12_3 C 0.9155(3) 0.3701(3) 0.7895(4)
C13_3 C 0.9361(3) 0.3972(4) 0.7903(3)
H5_3 H 0.947895 0.403494 0.810596
C14_3 C 0.9399(3) 0.4167(3) 0.7591(4)
C15_3 C 0.9229(3) 0.4062(4) 0.7304(3)
H6_3 H 0.925493 0.419114 0.709937
C16_3 C 0.8801(4) 0.3680(5) 0.7004(4)
C17_3 C 0.9613(4) 0.4466(4) 0.7583(4)
C18_3 C 0.8860(3) 0.3575(3) 0.8395(3)
O17_3 O 0.73055(19) 0.4649(2) 0.9631(2)
O18_3 O 0.7866(2) 0.4771(3) 0.9554(3)
O19_3 O 0.8192(3) 0.4116(2) 0.8491(2)
N3_3 N 0.8327(2) 0.3633(3) 0.8824(2)
C19_3 C 0.7300(4) 0.4014(3) 0.8768(3)
C20_3 C 0.7610(4) 0.3966(3) 0.8584(4)
H7_3 H 0.762500 0.381553 0.839354
C21_3 C 0.7895(4) 0.4155(3) 0.8701(3)
C22_3 C 0.7903(3) 0.4361(3) 0.8972(4)
H8_3 H 0.810596 0.447895 0.903494
C23_3 C 0.7591(4) 0.4399(3) 0.9167(3)
C24_3 C 0.7304(3) 0.4229(3) 0.9062(4)
H9_3 H 0.709937 0.425493 0.919114
C25_3 C 0.7004(4) 0.3801(4) 0.8680(5)
C26_3 C 0.7583(4) 0.4613(4) 0.9466(4)
C27_3 C 0.8395(3) 0.3860(3) 0.8575(3)
Zn7_10 Zn 1.000000 0.78025(6) 1.000000
Zn8_10 Zn 1.000000 0.70365(6) 1.000000
O42_15 O 1.000000 0.6541(4) 1.000000
O43_15 O 1.000000 0.8298(5) 1.000000
O56_3 O 0.73055(19) 0.5369(2) 0.9649(2)
O57_3 O 0.7866(2) 0.5446(3) 0.9771(3)
O58_7 O 0.8192(3) 0.6509(2) 0.9116(2)
N10_7 N 0.8327(2) 0.6176(2) 0.8633(3)
C82_7 C 0.7300(4) 0.6232(3) 0.9014(3)
C83_7 C 0.7610(4) 0.6416(4) 0.8966(3)
H28_7 H 0.762500 0.660646 0.881553
C84_7 C 0.7895(4) 0.6299(3) 0.9155(3)
C85_7 C 0.7903(3) 0.6028(4) 0.9361(3)
H29_7 H 0.810596 0.596506 0.947895
C86_7 C 0.7591(4) 0.5833(3) 0.9399(3)
C87_7 C 0.7304(3) 0.5938(4) 0.9229(3)
H30_7 H 0.709937 0.580886 0.925493
C88_7 C 0.7004(4) 0.6320(5) 0.8801(4)
C89_7 C 0.7583(4) 0.5534(4) 0.9613(4)
C90_7 C 0.8395(3) 0.6425(3) 0.8860(3)
O61_3 O 0.9631(2) 0.5351(2) 0.73055(19)
O62_3 O 0.9554(3) 0.5229(3) 0.7866(2)
O63_7 O 0.8491(2) 0.5884(2) 0.8192(3)
N11_7 N 0.8824(2) 0.6367(3) 0.8327(2)
C91_7 C 0.8768(3) 0.5986(3) 0.7300(4)
C92_7 C 0.8584(4) 0.6034(3) 0.7610(4)
H31_7 H 0.839354 0.618447 0.762500
C93_7 C 0.8701(3) 0.5845(3) 0.7895(4)
C94_7 C 0.8972(4) 0.5639(3) 0.7903(3)
H32_7 H 0.903494 0.552105 0.810596
C95_7 C 0.9167(3) 0.5601(3) 0.7591(4)
C96_7 C 0.9062(4) 0.5771(3) 0.7304(3)
H33_7 H 0.919114 0.574507 0.709937
C97_7 C 0.8680(5) 0.6199(4) 0.7004(4)
C98_7 C 0.9466(4) 0.5387(4) 0.7583(4)
C99_7 C 0.8575(3) 0.6140(3) 0.8395(3)
O66_5 O 0.9649(2) 0.76945(19) 0.9631(2)
O67_5 O 0.9771(3) 0.7134(2) 0.9554(3)
O68_7 O 0.9116(2) 0.6808(3) 0.8491(2)
N12_7 N 0.8633(3) 0.6673(2) 0.8824(2)
C100_7 C 0.9014(3) 0.7700(4) 0.8768(3)
C101_7 C 0.8966(3) 0.7390(4) 0.8584(4)
H34_7 H 0.881553 0.737500 0.839354
C102_7 C 0.9155(3) 0.7105(4) 0.8701(3)
C103_7 C 0.9361(3) 0.7097(3) 0.8972(4)
H35_7 H 0.947895 0.689404 0.903494
C104_7 C 0.9399(3) 0.7409(4) 0.9167(3)
C105_7 C 0.9229(3) 0.7696(3) 0.9062(4)
H36_7 H 0.925493 0.790063 0.919114
C106_7 C 0.8801(4) 0.7996(4) 0.8680(5)
C107_7 C 0.9613(4) 0.7417(4) 0.9466(4)
C108_7 C 0.8860(3) 0.6605(3) 0.8575(3)
Zn15_7 Zn 0.71975(6) 0.500000 1.000000
Zn16_5 Zn 1.000000 0.500000 0.71975(6)
Zn17_7 Zn 0.79635(6) 0.500000 1.000000
Zn18_5 Zn 1.000000 0.500000 0.79635(6)
H63_3 H 0.99438 0.838269 0.976713
O42_16 O 0.8459(4) 0.500000 0.000000
O43_16 O 0.6702(5) 0.500000 0.000000
O91_8 O 0.73055(19) 0.4631(2) 0.0351(2)
O96_8 O 0.73055(19) 0.5351(2) 0.0369(2)
O97_8 O 0.7866(2) 0.4554(3) 0.0229(3)
O102_8 O 0.7866(2) 0.5229(3) 0.0446(3)
O42_17 O 0.8459(4) 0.500000 1.000000
O43_17 O 0.6702(5) 0.500000 1.000000
Zn7_11 Zn 0.000000 0.500000 0.28025(6)
Zn8_11 Zn -0.000000 0.500000 0.20365(6)
O39_6 O 0.0369(2) 0.5351(2) 0.26945(19)
O40_6 O 0.0446(3) 0.5229(3) 0.2134(2)
O41_8 O 0.1509(2) 0.5884(2) 0.1808(3)
O42_18 O -0.000000 0.500000 0.1541(4)
O43_18 O 0.000000 0.500000 0.3298(5)
N7_8 N 0.1176(2) 0.6367(3) 0.1673(2)
C55_8 C 0.1232(3) 0.5986(3) 0.2700(4)
C56_8 C 0.1416(4) 0.6034(3) 0.2390(4)
H19_8 H 0.160646 0.618447 0.237500
C57_8 C 0.1299(3) 0.5845(3) 0.2105(4)
C58_8 C 0.1028(4) 0.5639(3) 0.2097(3)
H20_8 H 0.096506 0.552105 0.189404
C59_8 C 0.0833(3) 0.5601(3) 0.2409(4)
C60_8 C 0.0938(4) 0.5771(3) 0.2696(3)
H21_8 H 0.080886 0.574507 0.290063
C61_8 C 0.1320(5) 0.6199(4) 0.2996(4)
C62_8 C 0.0534(4) 0.5387(4) 0.2417(4)
C63_8 C 0.1425(3) 0.6140(3) 0.1605(3)
O48_8 O 0.0884(2) 0.6808(3) 0.1509(2)
N8_8 N 0.1367(3) 0.6673(2) 0.1176(2)
C64_8 C 0.0986(3) 0.7700(4) 0.1232(3)
C65_8 C 0.1034(3) 0.7390(4) 0.1416(4)
H22_8 H 0.118447 0.737500 0.160646
C66_8 C 0.0845(3) 0.7105(4) 0.1299(3)
C67_8 C 0.0639(3) 0.7097(3) 0.1028(4)
H23_8 H 0.052105 0.689404 0.096506
C68_8 C 0.0601(3) 0.7409(4) 0.0833(3)
C69_8 C 0.0771(3) 0.7696(3) 0.0938(4)
H24_8 H 0.074507 0.790063 0.080886
C70_8 C 0.1199(4) 0.7996(4) 0.1320(5)
C71_8 C 0.0387(4) 0.7417(4) 0.0534(4)
C72_8 C 0.1140(3) 0.6605(3) 0.1425(3)
O53_8 O 0.1808(3) 0.6509(2) 0.0884(2)
N9_8 N 0.1673(2) 0.6176(2) 0.1367(3)
C73_8 C 0.2700(4) 0.6232(3) 0.0986(3)
C74_8 C 0.2390(4) 0.6416(4) 0.1034(3)
H25_8 H 0.237500 0.660646 0.118447
C75_8 C 0.2105(4) 0.6299(3) 0.0845(3)
C76_8 C 0.2097(3) 0.6028(4) 0.0639(3)
H26_8 H 0.189404 0.596506 0.052105
C77_8 C 0.2409(4) 0.5833(3) 0.0601(3)
C78_8 C 0.2696(3) 0.5938(4) 0.0771(3)
H27_8 H 0.290063 0.580886 0.074507
C79_8 C 0.2996(4) 0.6320(5) 0.1199(4)
C80_8 C 0.2417(4) 0.5534(4) 0.0387(4)
C81_8 C 0.1605(3) 0.6425(3) 0.1140(3)
O96_9 O 0.0351(2) 0.4631(2) 0.26945(19)
O102_9 O 0.0229(3) 0.4554(3) 0.2134(2)
O6_11 O -0.000000 0.500000 0.8459(4)
O7_11 O -0.000000 0.500000 0.6702(5)
Zn7_12 Zn 1.000000 0.500000 0.28025(6)
Zn8_12 Zn 1.000000 0.500000 0.20365(6)
O42_19 O 1.000000 0.500000 0.1541(4)
O43_19 O 1.000000 0.500000 0.3298(5)
O58_8 O 0.8192(3) 0.5884(2) 0.1509(2)
N10_8 N 0.8327(2) 0.6367(3) 0.1176(2)
C82_8 C 0.7300(4) 0.5986(3) 0.1232(3)
C83_8 C 0.7610(4) 0.6034(3) 0.1416(4)
H28_8 H 0.762500 0.618447 0.160646
C84_8 C 0.7895(4) 0.5845(3) 0.1299(3)
C85_8 C 0.7903(3) 0.5639(3) 0.1028(4)
H29_8 H 0.810596 0.552105 0.096506
C86_8 C 0.7591(4) 0.5601(3) 0.0833(3)
C87_8 C 0.7304(3) 0.5771(3) 0.0938(4)
H30_8 H 0.709937 0.574507 0.080886
C88_8 C 0.7004(4) 0.6199(4) 0.1320(5)
C89_8 C 0.7583(4) 0.5387(4) 0.0534(4)
C90_8 C 0.8395(3) 0.6140(3) 0.1425(3)
O63_8 O 0.8491(2) 0.6808(3) 0.0884(2)
N11_8 N 0.8824(2) 0.6673(2) 0.1367(3)
C91_8 C 0.8768(3) 0.7700(4) 0.0986(3)
C92_8 C 0.8584(4) 0.7390(4) 0.1034(3)
H31_8 H 0.839354 0.737500 0.118447
C93_8 C 0.8701(3) 0.7105(4) 0.0845(3)
C94_8 C 0.8972(4) 0.7097(3) 0.0639(3)
H32_8 H 0.903494 0.689404 0.052105
C95_8 C 0.9167(3) 0.7409(4) 0.0601(3)
C96_8 C 0.9062(4) 0.7696(3) 0.0771(3)
H33_8 H 0.919114 0.790063 0.074507
C97_8 C 0.8680(5) 0.7996(4) 0.1199(4)
C98_8 C 0.9466(4) 0.7417(4) 0.0387(4)
C99_8 C 0.8575(3) 0.6605(3) 0.1140(3)
O66_6 O 0.9649(2) 0.5369(2) 0.26945(19)
O67_6 O 0.9771(3) 0.5446(3) 0.2134(2)
O68_8 O 0.9116(2) 0.6509(2) 0.1808(3)
N12_8 N 0.8633(3) 0.6176(2) 0.1673(2)
C100_8 C 0.9014(3) 0.6232(3) 0.2700(4)
C101_8 C 0.8966(3) 0.6416(4) 0.2390(4)
H34_8 H 0.881553 0.660646 0.237500
C102_8 C 0.9155(3) 0.6299(3) 0.2105(4)
C103_8 C 0.9361(3) 0.6028(4) 0.2097(3)
H35_8 H 0.947895 0.596506 0.189404
C104_8 C 0.9399(3) 0.5833(3) 0.2409(4)
C105_8 C 0.9229(3) 0.5938(4) 0.2696(3)
H36_8 H 0.925493 0.580886 0.290063
C106_8 C 0.8801(4) 0.6320(5) 0.2996(4)
C107_8 C 0.9613(4) 0.5534(4) 0.2417(4)
C108_8 C 0.8860(3) 0.6425(3) 0.1605(3)
O91_9 O 0.9631(2) 0.4649(2) 0.26945(19)
O97_9 O 0.9554(3) 0.4771(3) 0.2134(2)
O6_12 O 1.000000 0.500000 0.8459(4)
O7_12 O 1.000000 0.500000 0.6702(5)
O41_9 O 0.1509(2) 0.3192(3) 0.0884(2)
N7_9 N 0.1176(2) 0.3327(2) 0.1367(3)
C55_9 C 0.1232(3) 0.2300(4) 0.0986(3)
C56_9 C 0.1416(4) 0.2610(4) 0.1034(3)
H19_9 H 0.160646 0.262500 0.118447
C57_9 C 0.1299(3) 0.2895(4) 0.0845(3)
C58_9 C 0.1028(4) 0.2903(3) 0.0639(3)
H20_9 H 0.096506 0.310596 0.052105
C59_9 C 0.0833(3) 0.2591(4) 0.0601(3)
C60_9 C 0.0938(4) 0.2304(3) 0.0771(3)
H21_9 H 0.080886 0.209937 0.074507
C61_9 C 0.1320(5) 0.2004(4) 0.1199(4)
C62_9 C 0.0534(4) 0.2583(4) 0.0387(4)
C63_9 C 0.1425(3) 0.3395(3) 0.1140(3)
O48_9 O 0.0884(2) 0.3491(2) 0.1808(3)
N8_9 N 0.1367(3) 0.3824(2) 0.1673(2)
C64_9 C 0.0986(3) 0.3768(3) 0.2700(4)
C65_9 C 0.1034(3) 0.3584(4) 0.2390(4)
H22_9 H 0.118447 0.339354 0.237500
C66_9 C 0.0845(3) 0.3701(3) 0.2105(4)
C67_9 C 0.0639(3) 0.3972(4) 0.2097(3)
H23_9 H 0.052105 0.403494 0.189404
C68_9 C 0.0601(3) 0.4167(3) 0.2409(4)
C69_9 C 0.0771(3) 0.4062(4) 0.2696(3)
H24_9 H 0.074507 0.419114 0.290063
C70_9 C 0.1199(4) 0.3680(5) 0.2996(4)
C71_9 C 0.0387(4) 0.4466(4) 0.2417(4)
C72_9 C 0.1140(3) 0.3575(3) 0.1605(3)
O53_9 O 0.1808(3) 0.4116(2) 0.1509(2)
N9_9 N 0.1673(2) 0.3633(3) 0.1176(2)
C73_9 C 0.2700(4) 0.4014(3) 0.1232(3)
C74_9 C 0.2390(4) 0.3966(3) 0.1416(4)
H25_9 H 0.237500 0.381553 0.160646
C75_9 C 0.2105(4) 0.4155(3) 0.1299(3)
C76_9 C 0.2097(3) 0.4361(3) 0.1028(4)
H26_9 H 0.189404 0.447895 0.096506
C77_9 C 0.2409(4) 0.4399(3) 0.0833(3)
C78_9 C 0.2696(3) 0.4229(3) 0.0938(4)
H27_9 H 0.290063 0.425493 0.080886
C79_9 C 0.2996(4) 0.3801(4) 0.1320(5)
C80_9 C 0.2417(4) 0.4613(4) 0.0534(4)
C81_9 C 0.1605(3) 0.3860(3) 0.1425(3)
H55_3 H 0.00561986 0.838269 0.0232868
H50_3 H 0.0213104 0.645631 0.989058
H56_3 H 0.017357 0.838269 0.98349
H61_4 H 0.0201311 0.354369 0.987016
O58_9 O 0.8192(3) 0.3491(2) 0.0884(2)
N10_9 N 0.8327(2) 0.3824(2) 0.1367(3)
C82_9 C 0.7300(4) 0.3768(3) 0.0986(3)
C83_9 C 0.7610(4) 0.3584(4) 0.1034(3)
H28_9 H 0.762500 0.339354 0.118447
C84_9 C 0.7895(4) 0.3701(3) 0.0845(3)
C85_9 C 0.7903(3) 0.3972(4) 0.0639(3)
H29_9 H 0.810596 0.403494 0.052105
C86_9 C 0.7591(4) 0.4167(3) 0.0601(3)
C87_9 C 0.7304(3) 0.4062(4) 0.0771(3)
H30_9 H 0.709937 0.419114 0.074507
C88_9 C 0.7004(4) 0.3680(5) 0.1199(4)
C89_9 C 0.7583(4) 0.4466(4) 0.0387(4)
C90_9 C 0.8395(3) 0.3575(3) 0.1140(3)
O63_9 O 0.8491(2) 0.4116(2) 0.1808(3)
N11_9 N 0.8824(2) 0.3633(3) 0.1673(2)
C91_9 C 0.8768(3) 0.4014(3) 0.2700(4)
C92_9 C 0.8584(4) 0.3966(3) 0.2390(4)
H31_9 H 0.839354 0.381553 0.237500
C93_9 C 0.8701(3) 0.4155(3) 0.2105(4)
C94_9 C 0.8972(4) 0.4361(3) 0.2097(3)
H32_9 H 0.903494 0.447895 0.189404
C95_9 C 0.9167(3) 0.4399(3) 0.2409(4)
C96_9 C 0.9062(4) 0.4229(3) 0.2696(3)
H33_9 H 0.919114 0.425493 0.290063
C97_9 C 0.8680(5) 0.3801(4) 0.2996(4)
C98_9 C 0.9466(4) 0.4613(4) 0.2417(4)
C99_9 C 0.8575(3) 0.3860(3) 0.1605(3)
O68_9 O 0.9116(2) 0.3192(3) 0.1509(2)
N12_9 N 0.8633(3) 0.3327(2) 0.1176(2)
C100_9 C 0.9014(3) 0.2300(4) 0.1232(3)
C101_9 C 0.8966(3) 0.2610(4) 0.1416(4)
H34_9 H 0.881553 0.262500 0.160646
C102_9 C 0.9155(3) 0.2895(4) 0.1299(3)
C103_9 C 0.9361(3) 0.2903(3) 0.1028(4)
H35_9 H 0.947895 0.310596 0.096506
C104_9 C 0.9399(3) 0.2591(4) 0.0833(3)
C105_9 C 0.9229(3) 0.2304(3) 0.0938(4)
H36_9 H 0.925493 0.209937 0.080886
C106_9 C 0.8801(4) 0.2004(4) 0.1320(5)
C107_9 C 0.9613(4) 0.2583(4) 0.0534(4)
C108_9 C 0.8860(3) 0.3395(3) 0.1425(3)
H63_4 H 0.99438 0.161731 0.0232868
H49_3 H 0.979869 0.645631 0.987016
H62_4 H 0.97869 0.354369 0.989058
H64_4 H 0.982643 0.161731 0.98349
H49_4 H 0.0129844 0.354369 0.0201311
H62_5 H 0.0109419 0.645631 0.0213104
H64_5 H 0.0165103 0.838269 0.017357
H50_4 H 0.0109419 0.354369 0.97869
H56_4 H 0.0165103 0.161731 0.982643
H61_5 H 0.0129844 0.645631 0.979869
H63_5 H 0.976713 0.838269 0.00561986
H55_4 H 0.976713 0.161731 0.99438
H55_5 H 0.0232868 0.161731 0.00561986
H63_6 H 0.0232868 0.838269 0.99438
H50_5 H 0.989058 0.354369 0.0213104
H56_5 H 0.98349 0.161731 0.017357
H61_6 H 0.987016 0.645631 0.0201311
H49_5 H 0.987016 0.354369 0.979869
H62_6 H 0.989058 0.645631 0.97869
H64_6 H 0.98349 0.838269 0.982643
Zn5_8 Zn 0.28025(6) -0.000000 0.500000
Zn6_8 Zn 0.20365(6) -0.000000 0.500000
O25_8 O 0.1541(4) -0.000000 0.500000
O26_8 O 0.3298(5) -0.000000 0.500000
Zn7_13 Zn 0.000000 0.28025(6) 0.500000
Zn8_13 Zn -0.000000 0.20365(6) 0.500000
O39_7 O 0.0369(2) 0.26945(19) 0.4649(2)
O40_7 O 0.0446(3) 0.2134(2) 0.4771(3)
O41_10 O 0.1509(2) 0.1808(3) 0.4116(2)
O42_20 O -0.000000 0.1541(4) 0.500000
O43_20 O 0.000000 0.3298(5) 0.500000
N7_10 N 0.1176(2) 0.1673(2) 0.3633(3)
C55_10 C 0.1232(3) 0.2700(4) 0.4014(3)
C56_10 C 0.1416(4) 0.2390(4) 0.3966(3)
H19_10 H 0.160646 0.237500 0.381553
C57_10 C 0.1299(3) 0.2105(4) 0.4155(3)
C58_10 C 0.1028(4) 0.2097(3) 0.4361(3)
H20_10 H 0.096506 0.189404 0.447895
C59_10 C 0.0833(3) 0.2409(4) 0.4399(3)
C60_10 C 0.0938(4) 0.2696(3) 0.4229(3)
H21_10 H 0.080886 0.290063 0.425493
C61_10 C 0.1320(5) 0.2996(4) 0.3801(4)
C62_10 C 0.0534(4) 0.2417(4) 0.4613(4)
C63_10 C 0.1425(3) 0.1605(3) 0.3860(3)
O46_4 O 0.0351(2) 0.0369(2) 0.23055(19)
O47_4 O 0.0229(3) 0.0446(3) 0.2866(2)
O48_10 O 0.0884(2) 0.1509(2) 0.3192(3)
N8_10 N 0.1367(3) 0.1176(2) 0.3327(2)
C64_10 C 0.0986(3) 0.1232(3) 0.2300(4)
C65_10 C 0.1034(3) 0.1416(4) 0.2610(4)
H22_10 H 0.118447 0.160646 0.262500
C66_10 C 0.0845(3) 0.1299(3) 0.2895(4)
C67_10 C 0.0639(3) 0.1028(4) 0.2903(3)
H23_10 H 0.052105 0.096506 0.310596
C68_10 C 0.0601(3) 0.0833(3) 0.2591(4)
C69_10 C 0.0771(3) 0.0938(4) 0.2304(3)
H24_10 H 0.074507 0.080886 0.209937
C70_10 C 0.1199(4) 0.1320(5) 0.2004(4)
C71_10 C 0.0387(4) 0.0534(4) 0.2583(4)
C72_10 C 0.1140(3) 0.1425(3) 0.3395(3)
O51_4 O 0.26945(19) 0.0351(2) 0.4631(2)
O52_4 O 0.2134(2) 0.0229(3) 0.4554(3)
O53_10 O 0.1808(3) 0.0884(2) 0.3491(2)
N9_10 N 0.1673(2) 0.1367(3) 0.3824(2)
C73_10 C 0.2700(4) 0.0986(3) 0.3768(3)
C74_10 C 0.2390(4) 0.1034(3) 0.3584(4)
H25_10 H 0.237500 0.118447 0.339354
C75_10 C 0.2105(4) 0.0845(3) 0.3701(3)
C76_10 C 0.2097(3) 0.0639(3) 0.3972(4)
H26_10 H 0.189404 0.052105 0.403494
C77_10 C 0.2409(4) 0.0601(3) 0.4167(3)
C78_10 C 0.2696(3) 0.0771(3) 0.4062(4)
H27_10 H 0.290063 0.074507 0.419114
C79_10 C 0.2996(4) 0.1199(4) 0.3680(5)
C80_10 C 0.2417(4) 0.0387(4) 0.4466(4)
C81_10 C 0.1605(3) 0.1140(3) 0.3575(3)
Zn16_6 Zn -0.000000 -0.000000 0.21975(6)
Zn18_6 Zn -0.000000 0.000000 0.29635(6)
O95_4 O 0.26945(19) 0.0369(2) 0.5351(2)
O96_10 O 0.0351(2) 0.26945(19) 0.5369(2)
O101_4 O 0.2134(2) 0.0446(3) 0.5229(3)
O102_10 O 0.0229(3) 0.2134(2) 0.5446(3)
Zn1_8 Zn -0.000000 0.71975(6) 0.500000
Zn2_8 Zn -0.000000 0.79635(6) 0.500000
O6_13 O -0.000000 0.8459(4) 0.500000
O7_13 O -0.000000 0.6702(5) 0.500000
Zn5_9 Zn 0.28025(6) 1.000000 0.500000
Zn6_9 Zn 0.20365(6) 1.000000 0.500000
O22_4 O 0.26945(19) 0.9631(2) 0.4649(2)
O23_4 O 0.2134(2) 0.9554(3) 0.4771(3)
O24_4 O 0.1808(3) 0.8491(2) 0.4116(2)
O25_9 O 0.1541(4) 1.000000 0.500000
O26_9 O 0.3298(5) 1.000000 0.500000
N4_4 N 0.1673(2) 0.8824(2) 0.3633(3)
C28_4 C 0.2700(4) 0.8768(3) 0.4014(3)
C29_4 C 0.2390(4) 0.8584(4) 0.3966(3)
H10_4 H 0.237500 0.839354 0.381553
C30_4 C 0.2105(4) 0.8701(3) 0.4155(3)
C31_4 C 0.2097(3) 0.8972(4) 0.4361(3)
H11_4 H 0.189404 0.903494 0.447895
C32_4 C 0.2409(4) 0.9167(3) 0.4399(3)
C33_4 C 0.2696(3) 0.9062(4) 0.4229(3)
H12_4 H 0.290063 0.919114 0.425493
C34_4 C 0.2996(4) 0.8680(5) 0.3801(4)
C35_4 C 0.2417(4) 0.9466(4) 0.4613(4)
C36_4 C 0.1605(3) 0.8575(3) 0.3860(3)
O29_4 O 0.0369(2) 0.9649(2) 0.23055(19)
O30_4 O 0.0446(3) 0.9771(3) 0.2866(2)
O31_4 O 0.1509(2) 0.9116(2) 0.3192(3)
N5_4 N 0.1176(2) 0.8633(3) 0.3327(2)
C37_4 C 0.1232(3) 0.9014(3) 0.2300(4)
C38_4 C 0.1416(4) 0.8966(3) 0.2610(4)
H13_4 H 0.160646 0.881553 0.262500
C39_4 C 0.1299(3) 0.9155(3) 0.2895(4)
C40_4 C 0.1028(4) 0.9361(3) 0.2903(3)
H14_4 H 0.096506 0.947895 0.310596
C41_4 C 0.0833(3) 0.9399(3) 0.2591(4)
C42_4 C 0.0938(4) 0.9229(3) 0.2304(3)
H15_4 H 0.080886 0.925493 0.209937
C43_4 C 0.1320(5) 0.8801(4) 0.2004(4)
C44_4 C 0.0534(4) 0.9613(4) 0.2583(4)
C45_4 C 0.1425(3) 0.8860(3) 0.3395(3)
O34_4 O 0.0351(2) 0.73055(19) 0.4631(2)
O35_4 O 0.0229(3) 0.7866(2) 0.4554(3)
O36_4 O 0.0884(2) 0.8192(3) 0.3491(2)
N6_4 N 0.1367(3) 0.8327(2) 0.3824(2)
C46_4 C 0.0986(3) 0.7300(4) 0.3768(3)
C47_4 C 0.1034(3) 0.7610(4) 0.3584(4)
H16_4 H 0.118447 0.762500 0.339354
C48_4 C 0.0845(3) 0.7895(4) 0.3701(3)
C49_4 C 0.0639(3) 0.7903(3) 0.3972(4)
H17_4 H 0.052105 0.810596 0.403494
C50_4 C 0.0601(3) 0.7591(4) 0.4167(3)
C51_4 C 0.0771(3) 0.7304(3) 0.4062(4)
H18_4 H 0.074507 0.709937 0.419114
C52_4 C 0.1199(4) 0.7004(4) 0.3680(5)
C53_4 C 0.0387(4) 0.7583(4) 0.4466(4)
C54_4 C 0.1140(3) 0.8395(3) 0.3575(3)
Zn16_7 Zn -0.000000 1.000000 0.21975(6)
Zn18_7 Zn -0.000000 1.000000 0.29635(6)
O93_4 O 0.0369(2) 0.73055(19) 0.5351(2)
O94_4 O 0.26945(19) 0.9649(2) 0.5369(2)
O99_4 O 0.0446(3) 0.7866(2) 0.5229(3)
O100_4 O 0.2134(2) 0.9771(3) 0.5446(3)
Zn7_14 Zn 1.000000 0.28025(6) 0.500000
Zn8_14 Zn 1.000000 0.20365(6) 0.500000
O42_21 O 1.000000 0.1541(4) 0.500000
O43_21 O 1.000000 0.3298(5) 0.500000
O56_4 O 0.73055(19) 0.0369(2) 0.4649(2)
O57_4 O 0.7866(2) 0.0446(3) 0.4771(3)
O58_10 O 0.8192(3) 0.1509(2) 0.4116(2)
N10_10 N 0.8327(2) 0.1176(2) 0.3633(3)
C82_10 C 0.7300(4) 0.1232(3) 0.4014(3)
C83_10 C 0.7610(4) 0.1416(4) 0.3966(3)
H28_10 H 0.762500 0.160646 0.381553
C84_10 C 0.7895(4) 0.1299(3) 0.4155(3)
C85_10 C 0.7903(3) 0.1028(4) 0.4361(3)
H29_10 H 0.810596 0.096506 0.447895
C86_10 C 0.7591(4) 0.0833(3) 0.4399(3)
C87_10 C 0.7304(3) 0.0938(4) 0.4229(3)
H30_10 H 0.709937 0.080886 0.425493
C88_10 C 0.7004(4) 0.1320(5) 0.3801(4)
C89_10 C 0.7583(4) 0.0534(4) 0.4613(4)
C90_10 C 0.8395(3) 0.1425(3) 0.3860(3)
O61_4 O 0.9631(2) 0.0351(2) 0.23055(19)
O62_4 O 0.9554(3) 0.0229(3) 0.2866(2)
O63_10 O 0.8491(2) 0.0884(2) 0.3192(3)
N11_10 N 0.8824(2) 0.1367(3) 0.3327(2)
C91_10 C 0.8768(3) 0.0986(3) 0.2300(4)
C92_10 C 0.8584(4) 0.1034(3) 0.2610(4)
H31_10 H 0.839354 0.118447 0.262500
C93_10 C 0.8701(3) 0.0845(3) 0.2895(4)
C94_10 C 0.8972(4) 0.0639(3) 0.2903(3)
H32_10 H 0.903494 0.052105 0.310596
C95_10 C 0.9167(3) 0.0601(3) 0.2591(4)
C96_10 C 0.9062(4) 0.0771(3) 0.2304(3)
H33_10 H 0.919114 0.074507 0.209937
C97_10 C 0.8680(5) 0.1199(4) 0.2004(4)
C98_10 C 0.9466(4) 0.0387(4) 0.2583(4)
C99_10 C 0.8575(3) 0.1140(3) 0.3395(3)
O66_7 O 0.9649(2) 0.26945(19) 0.4631(2)
O67_7 O 0.9771(3) 0.2134(2) 0.4554(3)
O68_10 O 0.9116(2) 0.1808(3) 0.3491(2)
N12_10 N 0.8633(3) 0.1673(2) 0.3824(2)
C100_10 C 0.9014(3) 0.2700(4) 0.3768(3)
C101_10 C 0.8966(3) 0.2390(4) 0.3584(4)
H34_10 H 0.881553 0.237500 0.339354
C102_10 C 0.9155(3) 0.2105(4) 0.3701(3)
C103_10 C 0.9361(3) 0.2097(3) 0.3972(4)
H35_10 H 0.947895 0.189404 0.403494
C104_10 C 0.9399(3) 0.2409(4) 0.4167(3)
C105_10 C 0.9229(3) 0.2696(3) 0.4062(4)
H36_10 H 0.925493 0.290063 0.419114
C106_10 C 0.8801(4) 0.2996(4) 0.3680(5)
C107_10 C 0.9613(4) 0.2417(4) 0.4466(4)
C108_10 C 0.8860(3) 0.1605(3) 0.3575(3)
Zn15_8 Zn 0.71975(6) -0.000000 0.500000
Zn16_8 Zn 1.000000 -0.000000 0.21975(6)
Zn17_8 Zn 0.79635(6) -0.000000 0.500000
Zn18_8 Zn 1.000000 0.000000 0.29635(6)
O91_10 O 0.9631(2) 0.26945(19) 0.5351(2)
O97_10 O 0.9554(3) 0.2134(2) 0.5229(3)
Zn1_9 Zn 1.000000 0.71975(6) 0.500000
Zn2_9 Zn 1.000000 0.79635(6) 0.500000
O3_4 O 0.9631(2) 0.73055(19) 0.4649(2)
O4_4 O 0.9554(3) 0.7866(2) 0.4771(3)
O5_4 O 0.8491(2) 0.8192(3) 0.4116(2)
O6_14 O 1.000000 0.8459(4) 0.500000
O7_14 O 1.000000 0.6702(5) 0.500000
N1_4 N 0.8824(2) 0.8327(2) 0.3633(3)
C1_4 C 0.8768(3) 0.7300(4) 0.4014(3)
C2_4 C 0.8584(4) 0.7610(4) 0.3966(3)
H1_4 H 0.839354 0.762500 0.381553
C3_4 C 0.8701(3) 0.7895(4) 0.4155(3)
C4_4 C 0.8972(4) 0.7903(3) 0.4361(3)
H2_4 H 0.903494 0.810596 0.447895
C5_4 C 0.9167(3) 0.7591(4) 0.4399(3)
C6_4 C 0.9062(4) 0.7304(3) 0.4229(3)
H3_4 H 0.919114 0.709937 0.425493
C7_4 C 0.8680(5) 0.7004(4) 0.3801(4)
C8_4 C 0.9466(4) 0.7583(4) 0.4613(4)
C9_4 C 0.8575(3) 0.8395(3) 0.3860(3)
O12_4 O 0.9649(2) 0.9631(2) 0.23055(19)
O13_4 O 0.9771(3) 0.9554(3) 0.2866(2)
O14_4 O 0.9116(2) 0.8491(2) 0.3192(3)
N2_4 N 0.8633(3) 0.8824(2) 0.3327(2)
C10_4 C 0.9014(3) 0.8768(3) 0.2300(4)
C11_4 C 0.8966(3) 0.8584(4) 0.2610(4)
H4_4 H 0.881553 0.839354 0.262500
C12_4 C 0.9155(3) 0.8701(3) 0.2895(4)
C13_4 C 0.9361(3) 0.8972(4) 0.2903(3)
H5_4 H 0.947895 0.903494 0.310596
C14_4 C 0.9399(3) 0.9167(3) 0.2591(4)
C15_4 C 0.9229(3) 0.9062(4) 0.2304(3)
H6_4 H 0.925493 0.919114 0.209937
C16_4 C 0.8801(4) 0.8680(5) 0.2004(4)
C17_4 C 0.9613(4) 0.9466(4) 0.2583(4)
C18_4 C 0.8860(3) 0.8575(3) 0.3395(3)
O17_4 O 0.73055(19) 0.9649(2) 0.4631(2)
O18_4 O 0.7866(2) 0.9771(3) 0.4554(3)
O19_4 O 0.8192(3) 0.9116(2) 0.3491(2)
N3_4 N 0.8327(2) 0.8633(3) 0.3824(2)
C19_4 C 0.7300(4) 0.9014(3) 0.3768(3)
C20_4 C 0.7610(4) 0.8966(3) 0.3584(4)
H7_4 H 0.762500 0.881553 0.339354
C21_4 C 0.7895(4) 0.9155(3) 0.3701(3)
C22_4 C 0.7903(3) 0.9361(3) 0.3972(4)
H8_4 H 0.810596 0.947895 0.403494
C23_4 C 0.7591(4) 0.9399(3) 0.4167(3)
C24_4 C 0.7304(3) 0.9229(3) 0.4062(4)
H9_4 H 0.709937 0.925493 0.419114
C25_4 C 0.7004(4) 0.8801(4) 0.3680(5)
C26_4 C 0.7583(4) 0.9613(4) 0.4466(4)
C27_4 C 0.8395(3) 0.8860(3) 0.3575(3)
Zn15_9 Zn 0.71975(6) 1.000000 0.500000
Zn16_9 Zn 1.000000 1.000000 0.21975(6)
Zn17_9 Zn 0.79635(6) 1.000000 0.500000
Zn18_9 Zn 1.000000 1.000000 0.29635(6)
O92_4 O 0.9649(2) 0.73055(19) 0.5369(2)
O98_4 O 0.9771(3) 0.7866(2) 0.5446(3)
O42_22 O 0.8459(4) -0.000000 0.500000
O43_22 O 0.6702(5) 0.000000 0.500000
O96_11 O 0.73055(19) 0.0351(2) 0.5369(2)
O102_11 O 0.7866(2) 0.0229(3) 0.5446(3)
O42_23 O 0.8459(4) 1.000000 0.500000
O43_23 O 0.6702(5) 1.000000 0.500000
O91_11 O 0.73055(19) 0.9631(2) 0.5351(2)
O97_11 O 0.7866(2) 0.9554(3) 0.5229(3)
O6_15 O -0.000000 0.000000 0.3459(4)
O7_15 O -0.000000 0.000000 0.1702(5)
Zn7_15 Zn 0.000000 0.000000 0.78025(6)
Zn8_15 Zn -0.000000 0.000000 0.70365(6)
O39_8 O 0.0369(2) 0.0351(2) 0.76945(19)
O40_8 O 0.0446(3) 0.0229(3) 0.7134(2)
O41_11 O 0.1509(2) 0.0884(2) 0.6808(3)
O42_24 O -0.000000 0.000000 0.6541(4)
O43_24 O 0.000000 -0.000000 0.8298(5)
N7_11 N 0.1176(2) 0.1367(3) 0.6673(2)
C55_11 C 0.1232(3) 0.0986(3) 0.7700(4)
C56_11 C 0.1416(4) 0.1034(3) 0.7390(4)
H19_11 H 0.160646 0.118447 0.737500
C57_11 C 0.1299(3) 0.0845(3) 0.7105(4)
C58_11 C 0.1028(4) 0.0639(3) 0.7097(3)
H20_11 H 0.096506 0.052105 0.689404
C59_11 C 0.0833(3) 0.0601(3) 0.7409(4)
C60_11 C 0.0938(4) 0.0771(3) 0.7696(3)
H21_11 H 0.080886 0.074507 0.790063
C61_11 C 0.1320(5) 0.1199(4) 0.7996(4)
C62_11 C 0.0534(4) 0.0387(4) 0.7417(4)
C63_11 C 0.1425(3) 0.1140(3) 0.6605(3)
O48_11 O 0.0884(2) 0.1808(3) 0.6509(2)
N8_11 N 0.1367(3) 0.1673(2) 0.6176(2)
C64_11 C 0.0986(3) 0.2700(4) 0.6232(3)
C65_11 C 0.1034(3) 0.2390(4) 0.6416(4)
H22_11 H 0.118447 0.237500 0.660646
C66_11 C 0.0845(3) 0.2105(4) 0.6299(3)
C67_11 C 0.0639(3) 0.2097(3) 0.6028(4)
H23_11 H 0.052105 0.189404 0.596506
C68_11 C 0.0601(3) 0.2409(4) 0.5833(3)
C69_11 C 0.0771(3) 0.2696(3) 0.5938(4)
H24_11 H 0.074507 0.290063 0.580886
C70_11 C 0.1199(4) 0.2996(4) 0.6320(5)
C71_11 C 0.0387(4) 0.2417(4) 0.5534(4)
C72_11 C 0.1140(3) 0.1605(3) 0.6425(3)
O53_11 O 0.1808(3) 0.1509(2) 0.5884(2)
N9_11 N 0.1673(2) 0.1176(2) 0.6367(3)
C73_11 C 0.2700(4) 0.1232(3) 0.5986(3)
C74_11 C 0.2390(4) 0.1416(4) 0.6034(3)
H25_11 H 0.237500 0.160646 0.618447
C75_11 C 0.2105(4) 0.1299(3) 0.5845(3)
C76_11 C 0.2097(3) 0.1028(4) 0.5639(3)
H26_11 H 0.189404 0.096506 0.552105
C77_11 C 0.2409(4) 0.0833(3) 0.5601(3)
C78_11 C 0.2696(3) 0.0938(4) 0.5771(3)
H27_11 H 0.290063 0.080886 0.574507
C79_11 C 0.2996(4) 0.1320(5) 0.6199(4)
C80_11 C 0.2417(4) 0.0534(4) 0.5387(4)
C81_11 C 0.1605(3) 0.1425(3) 0.6140(3)
H55_6 H 0.00561986 0.0232868 0.161731
O6_16 O -0.000000 1.000000 0.3459(4)
O7_16 O -0.000000 1.000000 0.1702(5)
Zn7_16 Zn 0.000000 1.000000 0.78025(6)
Zn8_16 Zn -0.000000 1.000000 0.70365(6)
O42_25 O -0.000000 1.000000 0.6541(4)
O43_25 O 0.000000 1.000000 0.8298(5)
O96_12 O 0.0351(2) 0.9631(2) 0.76945(19)
O102_12 O 0.0229(3) 0.9554(3) 0.7134(2)
H50_6 H 0.0213104 0.989058 0.354369
H56_6 H 0.017357 0.98349 0.161731
H61_7 H 0.0201311 0.987016 0.645631
O6_17 O 1.000000 0.000000 0.3459(4)
O7_17 O 1.000000 0.000000 0.1702(5)
Zn7_17 Zn 1.000000 0.000000 0.78025(6)
Zn8_17 Zn 1.000000 0.000000 0.70365(6)
O42_26 O 1.000000 0.000000 0.6541(4)
O43_26 O 1.000000 -0.000000 0.8298(5)
O58_11 O 0.8192(3) 0.0884(2) 0.6509(2)
N10_11 N 0.8327(2) 0.1367(3) 0.6176(2)
C82_11 C 0.7300(4) 0.0986(3) 0.6232(3)
C83_11 C 0.7610(4) 0.1034(3) 0.6416(4)
H28_11 H 0.762500 0.118447 0.660646
C84_11 C 0.7895(4) 0.0845(3) 0.6299(3)
C85_11 C 0.7903(3) 0.0639(3) 0.6028(4)
H29_11 H 0.810596 0.052105 0.596506
C86_11 C 0.7591(4) 0.0601(3) 0.5833(3)
C87_11 C 0.7304(3) 0.0771(3) 0.5938(4)
H30_11 H 0.709937 0.074507 0.580886
C88_11 C 0.7004(4) 0.1199(4) 0.6320(5)
C89_11 C 0.7583(4) 0.0387(4) 0.5534(4)
C90_11 C 0.8395(3) 0.1140(3) 0.6425(3)
O63_11 O 0.8491(2) 0.1808(3) 0.5884(2)
N11_11 N 0.8824(2) 0.1673(2) 0.6367(3)
C91_11 C 0.8768(3) 0.2700(4) 0.5986(3)
C92_11 C 0.8584(4) 0.2390(4) 0.6034(3)
H31_11 H 0.839354 0.237500 0.618447
C93_11 C 0.8701(3) 0.2105(4) 0.5845(3)
C94_11 C 0.8972(4) 0.2097(3) 0.5639(3)
H32_11 H 0.903494 0.189404 0.552105
C95_11 C 0.9167(3) 0.2409(4) 0.5601(3)
C96_11 C 0.9062(4) 0.2696(3) 0.5771(3)
H33_11 H 0.919114 0.290063 0.574507
C97_11 C 0.8680(5) 0.2996(4) 0.6199(4)
C98_11 C 0.9466(4) 0.2417(4) 0.5387(4)
C99_11 C 0.8575(3) 0.1605(3) 0.6140(3)
O66_8 O 0.9649(2) 0.0369(2) 0.76945(19)
O67_8 O 0.9771(3) 0.0446(3) 0.7134(2)
O68_11 O 0.9116(2) 0.1509(2) 0.6808(3)
N12_11 N 0.8633(3) 0.1176(2) 0.6673(2)
C100_11 C 0.9014(3) 0.1232(3) 0.7700(4)
C101_11 C 0.8966(3) 0.1416(4) 0.7390(4)
H34_11 H 0.881553 0.160646 0.737500
C102_11 C 0.9155(3) 0.1299(3) 0.7105(4)
C103_11 C 0.9361(3) 0.1028(4) 0.7097(3)
H35_11 H 0.947895 0.096506 0.689404
C104_11 C 0.9399(3) 0.0833(3) 0.7409(4)
C105_11 C 0.9229(3) 0.0938(4) 0.7696(3)
H36_11 H 0.925493 0.080886 0.790063
C106_11 C 0.8801(4) 0.1320(5) 0.7996(4)
C107_11 C 0.9613(4) 0.0534(4) 0.7417(4)
C108_11 C 0.8860(3) 0.1425(3) 0.6605(3)
H63_7 H 0.99438 0.0232868 0.838269
O6_18 O 1.000000 1.000000 0.3459(4)
O7_18 O 1.000000 1.000000 0.1702(5)
Zn7_18 Zn 1.000000 1.000000 0.78025(6)
Zn8_18 Zn 1.000000 1.000000 0.70365(6)
O42_27 O 1.000000 1.000000 0.6541(4)
O43_27 O 1.000000 1.000000 0.8298(5)
O91_12 O 0.9631(2) 0.9649(2) 0.76945(19)
O97_12 O 0.9554(3) 0.9771(3) 0.7134(2)
H49_6 H 0.979869 0.987016 0.354369
H62_7 H 0.97869 0.989058 0.645631
H64_7 H 0.982643 0.98349 0.838269
O41_12 O 0.1509(2) 0.8192(3) 0.5884(2)
N7_12 N 0.1176(2) 0.8327(2) 0.6367(3)
C55_12 C 0.1232(3) 0.7300(4) 0.5986(3)
C56_12 C 0.1416(4) 0.7610(4) 0.6034(3)
H19_12 H 0.160646 0.762500 0.618447
C57_12 C 0.1299(3) 0.7895(4) 0.5845(3)
C58_12 C 0.1028(4) 0.7903(3) 0.5639(3)
H20_12 H 0.096506 0.810596 0.552105
C59_12 C 0.0833(3) 0.7591(4) 0.5601(3)
C60_12 C 0.0938(4) 0.7304(3) 0.5771(3)
H21_12 H 0.080886 0.709937 0.574507
C61_12 C 0.1320(5) 0.7004(4) 0.6199(4)
C62_12 C 0.0534(4) 0.7583(4) 0.5387(4)
C63_12 C 0.1425(3) 0.8395(3) 0.6140(3)
O48_12 O 0.0884(2) 0.8491(2) 0.6808(3)
N8_12 N 0.1367(3) 0.8824(2) 0.6673(2)
C64_12 C 0.0986(3) 0.8768(3) 0.7700(4)
C65_12 C 0.1034(3) 0.8584(4) 0.7390(4)
H22_12 H 0.118447 0.839354 0.737500
C66_12 C 0.0845(3) 0.8701(3) 0.7105(4)
C67_12 C 0.0639(3) 0.8972(4) 0.7097(3)
H23_12 H 0.052105 0.903494 0.689404
C68_12 C 0.0601(3) 0.9167(3) 0.7409(4)
C69_12 C 0.0771(3) 0.9062(4) 0.7696(3)
H24_12 H 0.074507 0.919114 0.790063
C70_12 C 0.1199(4) 0.8680(5) 0.7996(4)
C71_12 C 0.0387(4) 0.9466(4) 0.7417(4)
C72_12 C 0.1140(3) 0.8575(3) 0.6605(3)
O53_12 O 0.1808(3) 0.9116(2) 0.6509(2)
N9_12 N 0.1673(2) 0.8633(3) 0.6176(2)
C73_12 C 0.2700(4) 0.9014(3) 0.6232(3)
C74_12 C 0.2390(4) 0.8966(3) 0.6416(4)
H25_12 H 0.237500 0.881553 0.660646
C75_12 C 0.2105(4) 0.9155(3) 0.6299(3)
C76_12 C 0.2097(3) 0.9361(3) 0.6028(4)
H26_12 H 0.189404 0.947895 0.596506
C77_12 C 0.2409(4) 0.9399(3) 0.5833(3)
C78_12 C 0.2696(3) 0.9229(3) 0.5938(4)
H27_12 H 0.290063 0.925493 0.580886
C79_12 C 0.2996(4) 0.8801(4) 0.6320(5)
C80_12 C 0.2417(4) 0.9613(4) 0.5534(4)
C81_12 C 0.1605(3) 0.8860(3) 0.6425(3)
O58_12 O 0.8192(3) 0.8491(2) 0.5884(2)
N10_12 N 0.8327(2) 0.8824(2) 0.6367(3)
C82_12 C 0.7300(4) 0.8768(3) 0.5986(3)
C83_12 C 0.7610(4) 0.8584(4) 0.6034(3)
H28_12 H 0.762500 0.839354 0.618447
C84_12 C 0.7895(4) 0.8701(3) 0.5845(3)
C85_12 C 0.7903(3) 0.8972(4) 0.5639(3)
H29_12 H 0.810596 0.903494 0.552105
C86_12 C 0.7591(4) 0.9167(3) 0.5601(3)
C87_12 C 0.7304(3) 0.9062(4) 0.5771(3)
H30_12 H 0.709937 0.919114 0.574507
C88_12 C 0.7004(4) 0.8680(5) 0.6199(4)
C89_12 C 0.7583(4) 0.9466(4) 0.5387(4)
C90_12 C 0.8395(3) 0.8575(3) 0.6140(3)
O63_12 O 0.8491(2) 0.9116(2) 0.6808(3)
N11_12 N 0.8824(2) 0.8633(3) 0.6673(2)
C91_12 C 0.8768(3) 0.9014(3) 0.7700(4)
C92_12 C 0.8584(4) 0.8966(3) 0.7390(4)
H31_12 H 0.839354 0.881553 0.737500
C93_12 C 0.8701(3) 0.9155(3) 0.7105(4)
C94_12 C 0.8972(4) 0.9361(3) 0.7097(3)
H32_12 H 0.903494 0.947895 0.689404
C95_12 C 0.9167(3) 0.9399(3) 0.7409(4)
C96_12 C 0.9062(4) 0.9229(3) 0.7696(3)
H33_12 H 0.919114 0.925493 0.790063
C97_12 C 0.8680(5) 0.8801(4) 0.7996(4)
C98_12 C 0.9466(4) 0.9613(4) 0.7417(4)
C99_12 C 0.8575(3) 0.8860(3) 0.6605(3)
O68_12 O 0.9116(2) 0.8192(3) 0.6509(2)
N12_12 N 0.8633(3) 0.8327(2) 0.6176(2)
C100_12 C 0.9014(3) 0.7300(4) 0.6232(3)
C101_12 C 0.8966(3) 0.7610(4) 0.6416(4)
H34_12 H 0.881553 0.762500 0.660646
C102_12 C 0.9155(3) 0.7895(4) 0.6299(3)
C103_12 C 0.9361(3) 0.7903(3) 0.6028(4)
H35_12 H 0.947895 0.810596 0.596506
C104_12 C 0.9399(3) 0.7591(4) 0.5833(3)
C105_12 C 0.9229(3) 0.7304(3) 0.5938(4)
H36_12 H 0.925493 0.709937 0.580886
C106_12 C 0.8801(4) 0.7004(4) 0.6320(5)
C107_12 C 0.9613(4) 0.7583(4) 0.5534(4)
C108_12 C 0.8860(3) 0.8395(3) 0.6425(3)
H50_7 H 0.0213104 0.0109419 0.645631
H56_7 H 0.017357 0.0165103 0.838269
H61_8 H 0.0201311 0.0129844 0.354369
H55_7 H 0.00561986 0.976713 0.838269
H49_7 H 0.979869 0.0129844 0.645631
H62_8 H 0.97869 0.0109419 0.354369
H64_8 H 0.982643 0.0165103 0.161731
H63_8 H 0.99438 0.976713 0.161731
H58_6 H 0.0165103 0.017357 0.161731
H60_6 H 0.0109419 0.0213104 0.354369
H59_6 H 0.0129844 0.979869 0.354369
H57_6 H 0.976713 0.00561986 0.161731
H57_7 H 0.0232868 0.00561986 0.838269
H58_7 H 0.98349 0.017357 0.838269
H60_7 H 0.989058 0.0213104 0.645631
H59_7 H 0.987016 0.979869 0.645631
H61_9 H 0.0129844 0.0201311 0.645631
H62_9 H 0.0109419 0.97869 0.645631
H64_9 H 0.0165103 0.982643 0.838269
H63_9 H 0.976713 0.99438 0.838269
H55_8 H 0.0232868 0.99438 0.161731
H49_8 H 0.987016 0.0201311 0.354369
H50_8 H 0.989058 0.97869 0.354369
H56_8 H 0.98349 0.982643 0.161731
loop_
_geom_bond_atom_site_label_1
_geom_bond_atom_site_label_2
_geom_bond_site_symmetry_1
_geom_bond_site_symmetry_2
Zn1 O3 1_555 1_555
Zn2 O4 1_555 1_555
Zn3 O1 1_555 1_555
Zn4 O2 1_555 1_555
O1 C7 1_555 1_555
O2 C7 1_555 1_555
O3 C8 1_555 1_555
O4 C8 1_555 1_555
O5 C3 1_555 1_555
O6 Zn2 1_555 1_555
O7 Zn1 1_555 1_555
O8 Zn3 1_555 1_555
O9 Zn4 1_555 1_555
N1 C9 1_555 1_555
C1 C2 1_555 1_555
C2 H1 1_555 1_555
C3 C2 1_555 1_555
C4 C3 1_555 1_555
H2 C4 1_555 1_555
C5 C4 1_555 1_555
C6 C1 1_555 1_555
H3 C6 1_555 1_555
C7 C1 1_555 1_555
C8 C5 1_555 1_555
C9 O5 1_555 1_555
O10 C16 1_555 1_555
O11 C16 1_555 1_555
O12 C17 1_555 1_555
O13 C17 1_555 1_555
O14 C12 1_555 1_555
N2 C18 1_555 1_555
C10 C11 1_555 1_555
C11 H4 1_555 1_555
C12 C11 1_555 1_555
C13 C12 1_555 1_555
H5 C13 1_555 1_555
C14 C13 1_555 1_555
C15 C10 1_555 1_555
H6 C15 1_555 1_555
C16 C10 1_555 1_555
C17 C14 1_555 1_555
C18 N1 1_555 1_555
O15 C25 1_555 1_555
O16 C25 1_555 1_555
O17 C26 1_555 1_555
O18 C26 1_555 1_555
O19 C21 1_555 1_555
N3 C9 1_555 1_555
C19 C20 1_555 1_555
C20 H7 1_555 1_555
C21 C20 1_555 1_555
C22 C21 1_555 1_555
H8 C22 1_555 1_555
C23 C22 1_555 1_555
C24 C19 1_555 1_555
H9 C24 1_555 1_555
C25 C19 1_555 1_555
C26 C23 1_555 1_555
C27 N2 1_555 1_555
Zn5 O22 1_555 1_555
Zn6 O23 1_555 1_555
O20 C34 1_555 1_555
O21 C34 1_555 1_555
O22 C35 1_555 1_555
O23 C35 1_555 1_555
O24 C30 1_555 1_555
O25 Zn6 1_555 1_555
O26 Zn5 1_555 1_555
N4 C36 1_555 1_555
C28 C29 1_555 1_555
C29 H10 1_555 1_555
C30 C29 1_555 1_555
C31 C30 1_555 1_555
H11 C31 1_555 1_555
C32 C31 1_555 1_555
C33 C28 1_555 1_555
H12 C33 1_555 1_555
C34 C28 1_555 1_555
C35 C32 1_555 1_555
C36 O24 1_555 1_555
O27 C43 1_555 1_555
O28 C43 1_555 1_555
O29 C44 1_555 1_555
O30 C44 1_555 1_555
O31 C39 1_555 1_555
N5 C45 1_555 1_555
C37 C38 1_555 1_555
C38 H13 1_555 1_555
C39 C38 1_555 1_555
C40 C39 1_555 1_555
H14 C40 1_555 1_555
C41 C40 1_555 1_555
C42 C37 1_555 1_555
H15 C42 1_555 1_555
C43 C37 1_555 1_555
C44 C41 1_555 1_555
C45 N4 1_555 1_555
O32 C52 1_555 1_555
O33 C52 1_555 1_555
O34 Zn1 1_555 1_555
O35 Zn2 1_555 1_555
O36 C48 1_555 1_555
N6 C36 1_555 1_555
C46 C47 1_555 1_555
C47 H16 1_555 1_555
C48 C47 1_555 1_555
C49 C48 1_555 1_555
H17 C49 1_555 1_555
C50 C49 1_555 1_555
C51 C46 1_555 1_555
H18 C51 1_555 1_555
C52 C46 1_555 1_555
C53 O34 1_555 1_555
C54 N5 1_555 1_555
Zn7 O39 1_555 1_555
Zn8 O40 1_555 1_555
O37 C61 1_555 1_555
O38 C61 1_555 1_555
O39 C62 1_555 1_555
O40 C62 1_555 1_555
O41 C57 1_555 1_555
O42 Zn8 1_555 1_555
O43 Zn7 1_555 1_555
N7 C63 1_555 1_555
C55 C56 1_555 1_555
C56 H19 1_555 1_555
C57 C56 1_555 1_555
C58 C57 1_555 1_555
H20 C58 1_555 1_555
C59 C58 1_555 1_555
C60 C55 1_555 1_555
H21 C60 1_555 1_555
C61 C55 1_555 1_555
C62 C59 1_555 1_555
C63 O41 1_555 1_555
O44 C70 1_555 1_555
O45 C70 1_555 1_555
O46 C71 1_555 1_555
O47 C71 1_555 1_555
O48 C66 1_555 1_555
N8 C72 1_555 1_555
C64 C65 1_555 1_555
C65 H22 1_555 1_555
C66 C65 1_555 1_555
C67 C66 1_555 1_555
H23 C67 1_555 1_555
C68 C67 1_555 1_555
C69 C64 1_555 1_555
H24 C69 1_555 1_555
C70 C64 1_555 1_555
C71 C68 1_555 1_555
C72 N7 1_555 1_555
O49 C79 1_555 1_555
O50 C79 1_555 1_555
O51 Zn5 1_555 1_555
O52 Zn6 1_555 1_555
O53 C75 1_555 1_555
N9 C63 1_555 1_555
C73 C74 1_555 1_555
C74 H25 1_555 1_555
C75 C74 1_555 1_555
C76 C75 1_555 1_555
H26 C76 1_555 1_555
C77 C76 1_555 1_555
C78 C73 1_555 1_555
H27 C78 1_555 1_555
C79 C73 1_555 1_555
C80 O51 1_555 1_555
C81 N8 1_555 1_555
O54 C88 1_555 1_555
O55 C88 1_555 1_555
O56 C89 1_555 1_555
O57 C89 1_555 1_555
O58 C84 1_555 1_555
N10 C90 1_555 1_555
C82 C83 1_555 1_555
C83 H28 1_555 1_555
C84 C83 1_555 1_555
C85 C84 1_555 1_555
H29 C85 1_555 1_555
C86 C85 1_555 1_555
C87 C82 1_555 1_555
H30 C87 1_555 1_555
C88 C82 1_555 1_555
C89 C86 1_555 1_555
C90 O58 1_555 1_555
O59 C97 1_555 1_555
O60 C97 1_555 1_555
O61 C98 1_555 1_555
O62 C98 1_555 1_555
O63 C93 1_555 1_555
N11 C99 1_555 1_555
C91 C92 1_555 1_555
C92 H31 1_555 1_555
C93 C92 1_555 1_555
C94 C93 1_555 1_555
H32 C94 1_555 1_555
C95 C94 1_555 1_555
C96 C91 1_555 1_555
H33 C96 1_555 1_555
C97 C91 1_555 1_555
C98 C95 1_555 1_555
C99 N10 1_555 1_555
O64 C106 1_555 1_555
O65 C106 1_555 1_555
O66 Zn7 1_555 1_555
O67 Zn8 1_555 1_555
O68 C102 1_555 1_555
N12 C90 1_555 1_555
C100 C101 1_555 1_555
C101 H34 1_555 1_555
C102 C101 1_555 1_555
C103 C102 1_555 1_555
H35 C103 1_555 1_555
C104 C103 1_555 1_555
C105 C100 1_555 1_555
H36 C105 1_555 1_555
C106 C100 1_555 1_555
C107 O66 1_555 1_555
C108 N11 1_555 1_555
Zn9 O32 1_555 1_555
Zn10 O33 1_555 1_555
O69 Zn9 1_555 1_555
O70 Zn10 1_555 1_555
Zn11 O10 1_555 1_555
O71 Zn11 1_555 1_555
Zn12 O11 1_555 1_555
O72 Zn12 1_555 1_555
Zn13 O15 1_555 1_555
O73 Zn13 1_555 1_555
Zn14 O16 1_555 1_555
O74 Zn14 1_555 1_555
Zn15 O17 1_555 1_555
Zn16 O12 1_555 1_555
Zn17 O18 1_555 1_555
Zn18 O13 1_555 1_555
Zn19 O20 1_555 1_555
Zn20 O37 1_555 1_555
Zn21 O54 1_555 1_555
Zn22 O59 1_555 1_555
Zn23 O49 1_555 1_555
Zn24 O44 1_555 1_555
Zn25 O27 1_555 1_555
Zn26 O64 1_555 1_555
Zn27 O21 1_555 1_555
Zn28 O38 1_555 1_555
Zn29 O55 1_555 1_555
Zn30 O60 1_555 1_555
Zn31 O50 1_555 1_555
Zn32 O45 1_555 1_555
Zn33 O28 1_555 1_555
Zn34 O65 1_555 1_555
O75 Zn11 1_555 1_555
O76 Zn3 1_555 1_555
O77 Zn9 1_555 1_555
O78 Zn11 1_555 1_555
O79 Zn13 1_555 1_555
O80 Zn13 1_555 1_555
O81 Zn9 1_555 1_555
O82 Zn3 1_555 1_555
O83 Zn12 1_555 1_555
O84 Zn4 1_555 1_555
O85 Zn10 1_555 1_555
O86 Zn12 1_555 1_555
O87 Zn14 1_555 1_555
O88 Zn14 1_555 1_555
O89 Zn10 1_555 1_555
O90 Zn4 1_555 1_555
O91 Zn7 1_555 1_555
O92 Zn1 1_555 1_555
O93 Zn1 1_555 1_555
O94 Zn5 1_555 1_555
O95 Zn5 1_555 1_555
O96 Zn7 1_555 1_555
O97 Zn8 1_555 1_555
O98 Zn2 1_555 1_555
O99 Zn2 1_555 1_555
O100 Zn6 1_555 1_555
O101 Zn6 1_555 1_555
O102 Zn8 1_555 1_555
C5 C6 1_555 1_555
O14 C18 1_555 1_555
C14 C15 1_555 1_555
O19 C27 1_555 1_555
N3 C27 1_555 1_555
C23 C24 1_555 1_555
C32 C33 1_555 1_555
O29 Zn16 1_555 1_555
O30 Zn18 1_555 1_555
O31 C45 1_555 1_555
C41 C42 1_555 1_555
O35 C53 1_555 1_555
O36 C54 1_555 1_555
N6 C54 1_555 1_555
C50 C51 1_555 1_555
C50 C53 1_555 1_555
C59 C60 1_555 1_555
O46 Zn16 1_555 1_555
O47 Zn18 1_555 1_555
O48 C72 1_555 1_555
C68 C69 1_555 1_555
O52 C80 1_555 1_555
O53 C81 1_555 1_555
N9 C81 1_555 1_555
C77 C78 1_555 1_555
C77 C80 1_555 1_555
O56 Zn15 1_555 1_555
O57 Zn17 1_555 1_555
C86 C87 1_555 1_555
O61 Zn16 1_555 1_555
O62 Zn18 1_555 1_555
O63 C99 1_555 1_555
C95 C96 1_555 1_555
O67 C107 1_555 1_555
O68 C108 1_555 1_555
N12 C108 1_555 1_555
C104 C105 1_555 1_555
C104 C107 1_555 1_555
O8_2 Zn19 1_555 1_555
O9_2 Zn27 1_555 1_555
O42_2 Zn17 1_555 1_555
O43_2 Zn15 1_555 1_555
O69_2 Zn23 1_555 1_555
O70_2 Zn31 1_555 1_555
O71_2 Zn25 1_555 1_555
O72_2 Zn33 1_555 1_555
O75_2 Zn25 1_555 1_555
O76_2 Zn19 1_555 1_555
O77_2 Zn23 1_555 1_555
O78_2 Zn25 1_555 1_555
O81_2 Zn23 1_555 1_555
O82_2 Zn19 1_555 1_555
O83_2 Zn33 1_555 1_555
O84_2 Zn27 1_555 1_555
O85_2 Zn31 1_555 1_555
O86_2 Zn33 1_555 1_555
O89_2 Zn31 1_555 1_555
O90_2 Zn27 1_555 1_555
O91_2 Zn15 1_555 1_555
O96_2 Zn15 1_555 1_555
O97_2 Zn17 1_555 1_555
O102_2 Zn17 1_555 1_555
O8_3 Zn20 1_555 1_555
O9_3 Zn28 1_555 1_555
O69_3 Zn26 1_555 1_555
O70_3 Zn34 1_555 1_555
O71_3 Zn24 1_555 1_555
O72_3 Zn32 1_555 1_555
O75_3 Zn24 1_555 1_555
O76_3 Zn20 1_555 1_555
O77_3 Zn26 1_555 1_555
O78_3 Zn24 1_555 1_555
O81_3 Zn26 1_555 1_555
O82_3 Zn20 1_555 1_555
O83_3 Zn32 1_555 1_555
O84_3 Zn28 1_555 1_555
O85_3 Zn34 1_555 1_555
O86_3 Zn32 1_555 1_555
O89_3 Zn34 1_555 1_555
O90_3 Zn28 1_555 1_555
O8_4 Zn21 1_555 1_555
O9_4 Zn29 1_555 1_555
O71_4 Zn22 1_555 1_555
O72_4 Zn30 1_555 1_555
O75_4 Zn22 1_555 1_555
O76_4 Zn21 1_555 1_555
O78_4 Zn22 1_555 1_555
O82_4 Zn21 1_555 1_555
O83_4 Zn30 1_555 1_555
O84_4 Zn29 1_555 1_555
O86_4 Zn30 1_555 1_555
O90_4 Zn29 1_555 1_555
O6_2 Zn18 1_555 1_555
O7_2 Zn16 1_555 1_555
Zn7_2 O39_2 1_555 1_555
Zn8_2 O40_2 1_555 1_555
O37_2 C61_2 1_555 1_555
O38_2 C61_2 1_555 1_555
O39_2 C62_2 1_555 1_555
O40_2 C62_2 1_555 1_555
O41_2 C57_2 1_555 1_555
O42_3 Zn8_2 1_555 1_555
O43_3 Zn7_2 1_555 1_555
N7_2 C63_2 1_555 1_555
C55_2 C56_2 1_555 1_555
C56_2 H19_2 1_555 1_555
C57_2 C56_2 1_555 1_555
C58_2 C57_2 1_555 1_555
H20_2 C58_2 1_555 1_555
C59_2 C58_2 1_555 1_555
C60_2 C55_2 1_555 1_555
H21_2 C60_2 1_555 1_555
C61_2 C55_2 1_555 1_555
C62_2 C59_2 1_555 1_555
C63_2 O41_2 1_555 1_555
O44_2 C70_2 1_555 1_555
O45_2 C70_2 1_555 1_555
O96 C71_2 1_555 1_555
O102 C71_2 1_555 1_555
O48_2 C66_2 1_555 1_555
N8_2 C72_2 1_555 1_555
C64_2 C65_2 1_555 1_555
C65_2 H22_2 1_555 1_555
C66_2 C65_2 1_555 1_555
C67_2 C66_2 1_555 1_555
H23_2 C67_2 1_555 1_555
C68_2 C67_2 1_555 1_555
C69_2 C64_2 1_555 1_555
H24_2 C69_2 1_555 1_555
C70_2 C64_2 1_555 1_555
C71_2 C68_2 1_555 1_555
C72_2 N7_2 1_555 1_555
O49_2 C79_2 1_555 1_555
O50_2 C79_2 1_555 1_555
O53_2 C75_2 1_555 1_555
N9_2 C63_2 1_555 1_555
C73_2 C74_2 1_555 1_555
C74_2 H25_2 1_555 1_555
C75_2 C74_2 1_555 1_555
C76_2 C75_2 1_555 1_555
H26_2 C76_2 1_555 1_555
C77_2 C76_2 1_555 1_555
C78_2 C73_2 1_555 1_555
H27_2 C78_2 1_555 1_555
C79_2 C73_2 1_555 1_555
C80_2 O95 1_555 1_555
C81_2 N8_2 1_555 1_555
O54_2 C88_2 1_555 1_555
O55_2 C88_2 1_555 1_555
O96_2 C89_2 1_555 1_555
O102_2 C89_2 1_555 1_555
O58_2 C84_2 1_555 1_555
N10_2 C90_2 1_555 1_555
C82_2 C83_2 1_555 1_555
C83_2 H28_2 1_555 1_555
C84_2 C83_2 1_555 1_555
C85_2 C84_2 1_555 1_555
H29_2 C85_2 1_555 1_555
C86_2 C85_2 1_555 1_555
C87_2 C82_2 1_555 1_555
H30_2 C87_2 1_555 1_555
C88_2 C82_2 1_555 1_555
C89_2 C86_2 1_555 1_555
C90_2 O58_2 1_555 1_555
O59_2 C97_2 1_555 1_555
O60_2 C97_2 1_555 1_555
O91 C98_2 1_555 1_555
O97 C98_2 1_555 1_555
O63_2 C93_2 1_555 1_555
N11_2 C99_2 1_555 1_555
C91_2 C92_2 1_555 1_555
C92_2 H31_2 1_555 1_555
C93_2 C92_2 1_555 1_555
C94_2 C93_2 1_555 1_555
H32_2 C94_2 1_555 1_555
C95_2 C94_2 1_555 1_555
C96_2 C91_2 1_555 1_555
H33_2 C96_2 1_555 1_555
C97_2 C91_2 1_555 1_555
C98_2 C95_2 1_555 1_555
C99_2 N10_2 1_555 1_555
O64_2 C106_2 1_555 1_555
O65_2 C106_2 1_555 1_555
O66_2 Zn7_2 1_555 1_555
O67_2 Zn8_2 1_555 1_555
O68_2 C102_2 1_555 1_555
N12_2 C90_2 1_555 1_555
C100_2 C101_2 1_555 1_555
C101_2 H34_2 1_555 1_555
C102_2 C101_2 1_555 1_555
C103_2 C102_2 1_555 1_555
H35_2 C103_2 1_555 1_555
C104_2 C103_2 1_555 1_555
C105_2 C100_2 1_555 1_555
H36_2 C105_2 1_555 1_555
C106_2 C100_2 1_555 1_555
C107_2 O66_2 1_555 1_555
C108_2 N11_2 1_555 1_555
Zn20_2 O37_2 1_555 1_555
Zn21_2 O54_2 1_555 1_555
Zn22_2 O59_2 1_555 1_555
Zn23_2 O49_2 1_555 1_555
Zn24_2 O44_2 1_555 1_555
Zn26_2 O64_2 1_555 1_555
Zn28_2 O38_2 1_555 1_555
Zn29_2 O55_2 1_555 1_555
Zn30_2 O60_2 1_555 1_555
Zn31_2 O50_2 1_555 1_555
Zn32_2 O45_2 1_555 1_555
Zn34_2 O65_2 1_555 1_555
O91_3 Zn7_2 1_555 1_555
O96_3 Zn7_2 1_555 1_555
O97_3 Zn8_2 1_555 1_555
O102_3 Zn8_2 1_555 1_555
C59_2 C60_2 1_555 1_555
O48_2 C72_2 1_555 1_555
C68_2 C69_2 1_555 1_555
O101 C80_2 1_555 1_555
O53_2 C81_2 1_555 1_555
N9_2 C81_2 1_555 1_555
C77_2 C78_2 1_555 1_555
C77_2 C80_2 1_555 1_555
C86_2 C87_2 1_555 1_555
O63_2 C99_2 1_555 1_555
C95_2 C96_2 1_555 1_555
O67_2 C107_2 1_555 1_555
O68_2 C108_2 1_555 1_555
N12_2 C108_2 1_555 1_555
C104_2 C105_2 1_555 1_555
C104_2 C107_2 1_555 1_555
O8_5 Zn22_2 1_555 1_555
O9_5 Zn30_2 1_555 1_555
O37_3 C61_3 1_555 1_555
O38_3 C61_3 1_555 1_555
O93 C62_3 1_555 1_555
O99 C62_3 1_555 1_555
O41_3 C57_3 1_555 1_555
N7_3 C63_3 1_555 1_555
C55_3 C56_3 1_555 1_555
C56_3 H19_3 1_555 1_555
C57_3 C56_3 1_555 1_555
C58_3 C57_3 1_555 1_555
H20_3 C58_3 1_555 1_555
C59_3 C58_3 1_555 1_555
C60_3 C55_3 1_555 1_555
H21_3 C60_3 1_555 1_555
C61_3 C55_3 1_555 1_555
C62_3 C59_3 1_555 1_555
C63_3 O41_3 1_555 1_555
O44_3 C70_3 1_555 1_555
O45_3 C70_3 1_555 1_555
O96_3 C71_3 1_555 1_555
O102_3 C71_3 1_555 1_555
O48_3 C66_3 1_555 1_555
N8_3 C72_3 1_555 1_555
C64_3 C65_3 1_555 1_555
C65_3 H22_3 1_555 1_555
C66_3 C65_3 1_555 1_555
C67_3 C66_3 1_555 1_555
H23_3 C67_3 1_555 1_555
C68_3 C67_3 1_555 1_555
C69_3 C64_3 1_555 1_555
H24_3 C69_3 1_555 1_555
C70_3 C64_3 1_555 1_555
C71_3 C68_3 1_555 1_555
C72_3 N7_3 1_555 1_555
O49_3 C79_3 1_555 1_555
O50_3 C79_3 1_555 1_555
O53_3 C75_3 1_555 1_555
N9_3 C63_3 1_555 1_555
C73_3 C74_3 1_555 1_555
C74_3 H25_3 1_555 1_555
C75_3 C74_3 1_555 1_555
C76_3 C75_3 1_555 1_555
H26_3 C76_3 1_555 1_555
C77_3 C76_3 1_555 1_555
C78_3 C73_3 1_555 1_555
H27_3 C78_3 1_555 1_555
C79_3 C73_3 1_555 1_555
C80_3 O94 1_555 1_555
C81_3 N8_3 1_555 1_555
O54_3 C88_3 1_555 1_555
O55_3 C88_3 1_555 1_555
O91_2 C89_3 1_555 1_555
O97_2 C89_3 1_555 1_555
O58_3 C84_3 1_555 1_555
N10_3 C90_3 1_555 1_555
C82_3 C83_3 1_555 1_555
C83_3 H28_3 1_555 1_555
C84_3 C83_3 1_555 1_555
C85_3 C84_3 1_555 1_555
H29_3 C85_3 1_555 1_555
C86_3 C85_3 1_555 1_555
C87_3 C82_3 1_555 1_555
H30_3 C87_3 1_555 1_555
C88_3 C82_3 1_555 1_555
C89_3 C86_3 1_555 1_555
C90_3 O58_3 1_555 1_555
O59_3 C97_3 1_555 1_555
O60_3 C97_3 1_555 1_555
O91_3 C98_3 1_555 1_555
O97_3 C98_3 1_555 1_555
O63_3 C93_3 1_555 1_555
N11_3 C99_3 1_555 1_555
C91_3 C92_3 1_555 1_555
C92_3 H31_3 1_555 1_555
C93_3 C92_3 1_555 1_555
C94_3 C93_3 1_555 1_555
H32_3 C94_3 1_555 1_555
C95_3 C94_3 1_555 1_555
C96_3 C91_3 1_555 1_555
H33_3 C96_3 1_555 1_555
C97_3 C91_3 1_555 1_555
C98_3 C95_3 1_555 1_555
C99_3 N10_3 1_555 1_555
O64_3 C106_3 1_555 1_555
O65_3 C106_3 1_555 1_555
O68_3 C102_3 1_555 1_555
N12_3 C90_3 1_555 1_555
C100_3 C101_3 1_555 1_555
C101_3 H34_3 1_555 1_555
C102_3 C101_3 1_555 1_555
C103_3 C102_3 1_555 1_555
H35_3 C103_3 1_555 1_555
C104_3 C103_3 1_555 1_555
C105_3 C100_3 1_555 1_555
H36_3 C105_3 1_555 1_555
C106_3 C100_3 1_555 1_555
C107_3 O92 1_555 1_555
C108_3 N11_3 1_555 1_555
O69_4 Zn24_2 1_555 1_555
O70_4 Zn32_2 1_555 1_555
O71_5 Zn26_2 1_555 1_555
O72_5 Zn34_2 1_555 1_555
O73_2 Zn21_2 1_555 1_555
O74_2 Zn29_2 1_555 1_555
Zn20_3 O37_3 1_555 1_555
Zn21_3 O54_3 1_555 1_555
Zn22_3 O59_3 1_555 1_555
Zn23_3 O49_3 1_555 1_555
Zn24_3 O44_3 1_555 1_555
Zn26_3 O64_3 1_555 1_555
Zn28_3 O38_3 1_555 1_555
Zn29_3 O55_3 1_555 1_555
Zn30_3 O60_3 1_555 1_555
Zn31_3 O50_3 1_555 1_555
Zn32_3 O45_3 1_555 1_555
Zn34_3 O65_3 1_555 1_555
O75_5 Zn26_2 1_555 1_555
O76_5 Zn22_2 1_555 1_555
O77_4 Zn24_2 1_555 1_555
O78_5 Zn26_2 1_555 1_555
O79_2 Zn21_2 1_555 1_555
O80_2 Zn21_2 1_555 1_555
O81_4 Zn24_2 1_555 1_555
O82_5 Zn22_2 1_555 1_555
O83_5 Zn34_2 1_555 1_555
O84_5 Zn30_2 1_555 1_555
O85_4 Zn32_2 1_555 1_555
O86_5 Zn34_2 1_555 1_555
O87_2 Zn29_2 1_555 1_555
O88_2 Zn29_2 1_555 1_555
O89_4 Zn32_2 1_555 1_555
O90_5 Zn30_2 1_555 1_555
C59_3 C60_3 1_555 1_555
O48_3 C72_3 1_555 1_555
C68_3 C69_3 1_555 1_555
O100 C80_3 1_555 1_555
O53_3 C81_3 1_555 1_555
N9_3 C81_3 1_555 1_555
C77_3 C78_3 1_555 1_555
C77_3 C80_3 1_555 1_555
C86_3 C87_3 1_555 1_555
O63_3 C99_3 1_555 1_555
C95_3 C96_3 1_555 1_555
O98 C107_3 1_555 1_555
O68_3 C108_3 1_555 1_555
N12_3 C108_3 1_555 1_555
C104_3 C105_3 1_555 1_555
C104_3 C107_3 1_555 1_555
O8_6 Zn22_3 1_555 1_555
O9_6 Zn30_3 1_555 1_555
O69_5 Zn24_3 1_555 1_555
O70_5 Zn32_3 1_555 1_555
O71_6 Zn26_3 1_555 1_555
O72_6 Zn34_3 1_555 1_555
O73_3 Zn21_3 1_555 1_555
O74_3 Zn29_3 1_555 1_555
O75_6 Zn26_3 1_555 1_555
O76_6 Zn22_3 1_555 1_555
O77_5 Zn24_3 1_555 1_555
O78_6 Zn26_3 1_555 1_555
O79_3 Zn21_3 1_555 1_555
O80_3 Zn21_3 1_555 1_555
O81_5 Zn24_3 1_555 1_555
O82_6 Zn22_3 1_555 1_555
O83_6 Zn34_3 1_555 1_555
O84_6 Zn30_3 1_555 1_555
O85_5 Zn32_3 1_555 1_555
O86_6 Zn34_3 1_555 1_555
O87_3 Zn29_3 1_555 1_555
O88_3 Zn29_3 1_555 1_555
O89_5 Zn32_3 1_555 1_555
O90_6 Zn30_3 1_555 1_555
O8_7 Zn20_3 1_555 1_555
O9_7 Zn28_3 1_555 1_555
O73_4 Zn23_3 1_555 1_555
O74_4 Zn31_3 1_555 1_555
O76_7 Zn20_3 1_555 1_555
O79_4 Zn23_3 1_555 1_555
O80_4 Zn23_3 1_555 1_555
O82_7 Zn20_3 1_555 1_555
O84_7 Zn28_3 1_555 1_555
O87_4 Zn31_3 1_555 1_555
O88_4 Zn31_3 1_555 1_555
O90_7 Zn28_3 1_555 1_555
O69_6 Zn23_2 1_555 1_555
O70_6 Zn31_2 1_555 1_555
O77_6 Zn23_2 1_555 1_555
O81_6 Zn23_2 1_555 1_555
O85_6 Zn31_2 1_555 1_555
O89_6 Zn31_2 1_555 1_555
O69_7 Zn20_2 1_555 1_555
O70_7 Zn28_2 1_555 1_555
O77_7 Zn20_2 1_555 1_555
O81_7 Zn20_2 1_555 1_555
O85_7 Zn28_2 1_555 1_555
O89_7 Zn28_2 1_555 1_555
O25_2 Zn6_2 1_555 1_555
O26_2 Zn5_2 1_555 1_555
O42_4 Zn8_3 1_555 1_555
O43_4 Zn7_3 1_555 1_555
O91_4 Zn7_3 1_555 1_555
O95_2 Zn5_2 1_555 1_555
O96_4 Zn7_3 1_555 1_555
O97_4 Zn8_3 1_555 1_555
O101_2 Zn6_2 1_555 1_555
O102_4 Zn8_3 1_555 1_555
O26_2 H58 1_555 1_555
O25_2 H60 1_555 1_555
O25_3 Zn6_3 1_555 1_555
O26_3 Zn5_3 1_555 1_555
Zn7_4 O39_3 1_555 1_555
Zn8_4 O40_3 1_555 1_555
O77_5 C61_4 1_555 1_555
O85_5 C61_4 1_555 1_555
O39_3 C62_4 1_555 1_555
O40_3 C62_4 1_555 1_555
O41_4 C57_4 1_555 1_555
O42_5 Zn8_4 1_555 1_555
O43_5 Zn7_4 1_555 1_555
N7_4 C63_4 1_555 1_555
C55_4 C56_4 1_555 1_555
C56_4 H19_4 1_555 1_555
C57_4 C56_4 1_555 1_555
C58_4 C57_4 1_555 1_555
H20_4 C58_4 1_555 1_555
C59_4 C58_4 1_555 1_555
C60_4 C55_4 1_555 1_555
H21_4 C60_4 1_555 1_555
C61_4 C55_4 1_555 1_555
C62_4 C59_4 1_555 1_555
C63_4 O41_4 1_555 1_555
O76_7 C70_4 1_555 1_555
O84_7 C70_4 1_555 1_555
O46_2 C71_4 1_555 1_555
O47_2 C71_4 1_555 1_555
O48_4 C66_4 1_555 1_555
N8_4 C72_4 1_555 1_555
C64_4 C65_4 1_555 1_555
C65_4 H22_4 1_555 1_555
C66_4 C65_4 1_555 1_555
C67_4 C66_4 1_555 1_555
H23_4 C67_4 1_555 1_555
C68_4 C67_4 1_555 1_555
C69_4 C64_4 1_555 1_555
H24_4 C69_4 1_555 1_555
C70_4 C64_4 1_555 1_555
C71_4 C68_4 1_555 1_555
C72_4 N7_4 1_555 1_555
O49_4 C79_4 1_555 1_555
O50_4 C79_4 1_555 1_555
O51_2 Zn5_3 1_555 1_555
O52_2 Zn6_3 1_555 1_555
O53_4 C75_4 1_555 1_555
N9_4 C63_4 1_555 1_555
C73_4 C74_4 1_555 1_555
C74_4 H25_4 1_555 1_555
C75_4 C74_4 1_555 1_555
C76_4 C75_4 1_555 1_555
H26_4 C76_4 1_555 1_555
C77_4 C76_4 1_555 1_555
C78_4 C73_4 1_555 1_555
H27_4 C78_4 1_555 1_555
C79_4 C73_4 1_555 1_555
C80_4 O51_2 1_555 1_555
C81_4 N8_4 1_555 1_555
O54_4 C88_4 1_555 1_555
O55_4 C88_4 1_555 1_555
O56_2 C89_4 1_555 1_555
O57_2 C89_4 1_555 1_555
O58_4 C84_4 1_555 1_555
N10_4 C90_4 1_555 1_555
C82_4 C83_4 1_555 1_555
C83_4 H28_4 1_555 1_555
C84_4 C83_4 1_555 1_555
C85_4 C84_4 1_555 1_555
H29_4 C85_4 1_555 1_555
C86_4 C85_4 1_555 1_555
C87_4 C82_4 1_555 1_555
H30_4 C87_4 1_555 1_555
C88_4 C82_4 1_555 1_555
C89_4 C86_4 1_555 1_555
C90_4 O58_4 1_555 1_555
O75_6 C97_4 1_555 1_555
O83_6 C97_4 1_555 1_555
O61_2 C98_4 1_555 1_555
O62_2 C98_4 1_555 1_555
O63_4 C93_4 1_555 1_555
N11_4 C99_4 1_555 1_555
C91_4 C92_4 1_555 1_555
C92_4 H31_4 1_555 1_555
C93_4 C92_4 1_555 1_555
C94_4 C93_4 1_555 1_555
H32_4 C94_4 1_555 1_555
C95_4 C94_4 1_555 1_555
C96_4 C91_4 1_555 1_555
H33_4 C96_4 1_555 1_555
C97_4 C91_4 1_555 1_555
C98_4 C95_4 1_555 1_555
C99_4 N10_4 1_555 1_555
O76_6 C106_4 1_555 1_555
O84_6 C106_4 1_555 1_555
O66_3 Zn7_4 1_555 1_555
O67_3 Zn8_4 1_555 1_555
O68_4 C102_4 1_555 1_555
N12_4 C90_4 1_555 1_555
C100_4 C101_4 1_555 1_555
C101_4 H34_4 1_555 1_555
C102_4 C101_4 1_555 1_555
C103_4 C102_4 1_555 1_555
H35_4 C103_4 1_555 1_555
C104_4 C103_4 1_555 1_555
C105_4 C100_4 1_555 1_555
H36_4 C105_4 1_555 1_555
C106_4 C100_4 1_555 1_555
C107_4 O66_3 1_555 1_555
C108_4 N11_4 1_555 1_555
Zn21_4 O54_4 1_555 1_555
Zn23_4 O49_4 1_555 1_555
Zn29_4 O55_4 1_555 1_555
Zn31_4 O50_4 1_555 1_555
C59_4 C60_4 1_555 1_555
O46_2 Zn16_2 1_555 1_555
O47_2 Zn18_2 1_555 1_555
O48_4 C72_4 1_555 1_555
C68_4 C69_4 1_555 1_555
O52_2 C80_4 1_555 1_555
O53_4 C81_4 1_555 1_555
N9_4 C81_4 1_555 1_555
C77_4 C78_4 1_555 1_555
C77_4 C80_4 1_555 1_555
O56_2 Zn15_3 1_555 1_555
O57_2 Zn17_3 1_555 1_555
C86_4 C87_4 1_555 1_555
O61_2 Zn16_2 1_555 1_555
O62_2 Zn18_2 1_555 1_555
O63_4 C99_4 1_555 1_555
C95_4 C96_4 1_555 1_555
O67_3 C107_4 1_555 1_555
O68_4 C108_4 1_555 1_555
N12_4 C108_4 1_555 1_555
C104_4 C105_4 1_555 1_555
C104_4 C107_4 1_555 1_555
O26_3 H57 1_555 1_555
O6_3 Zn2_2 1_555 1_555
O7_3 Zn1_2 1_555 1_555
O25_4 Zn6_4 1_555 1_555
O26_4 Zn5_4 1_555 1_555
O92_2 Zn1_2 1_555 1_555
O93_2 Zn1_2 1_555 1_555
O94_2 Zn5_4 1_555 1_555
O98_2 Zn2_2 1_555 1_555
O99_2 Zn2_2 1_555 1_555
O100_2 Zn6_4 1_555 1_555
O25_4 H59 1_555 1_555
Zn1_3 O3_2 1_555 1_555
Zn2_3 O4_2 1_555 1_555
O75_5 C7_2 1_555 1_555
O83_5 C7_2 1_555 1_555
O3_2 C8_2 1_555 1_555
O4_2 C8_2 1_555 1_555
O5_2 C3_2 1_555 1_555
O6_4 Zn2_3 1_555 1_555
O7_4 Zn1_3 1_555 1_555
N1_2 C9_2 1_555 1_555
C1_2 C2_2 1_555 1_555
C2_2 H1_2 1_555 1_555
C3_2 C2_2 1_555 1_555
C4_2 C3_2 1_555 1_555
H2_2 C4_2 1_555 1_555
C5_2 C4_2 1_555 1_555
C6_2 C1_2 1_555 1_555
H3_2 C6_2 1_555 1_555
C7_2 C1_2 1_555 1_555
C8_2 C5_2 1_555 1_555
C9_2 O5_2 1_555 1_555
O76_5 C16_2 1_555 1_555
O84_5 C16_2 1_555 1_555
O12_2 C17_2 1_555 1_555
O13_2 C17_2 1_555 1_555
O14_2 C12_2 1_555 1_555
N2_2 C18_2 1_555 1_555
C10_2 C11_2 1_555 1_555
C11_2 H4_2 1_555 1_555
C12_2 C11_2 1_555 1_555
C13_2 C12_2 1_555 1_555
H5_2 C13_2 1_555 1_555
C14_2 C13_2 1_555 1_555
C15_2 C10_2 1_555 1_555
H6_2 C15_2 1_555 1_555
C16_2 C10_2 1_555 1_555
C17_2 C14_2 1_555 1_555
C18_2 N1_2 1_555 1_555
O15_2 C25_2 1_555 1_555
O16_2 C25_2 1_555 1_555
O17_2 C26_2 1_555 1_555
O18_2 C26_2 1_555 1_555
O19_2 C21_2 1_555 1_555
N3_2 C9_2 1_555 1_555
C19_2 C20_2 1_555 1_555
C20_2 H7_2 1_555 1_555
C21_2 C20_2 1_555 1_555
C22_2 C21_2 1_555 1_555
H8_2 C22_2 1_555 1_555
C23_2 C22_2 1_555 1_555
C24_2 C19_2 1_555 1_555
H9_2 C24_2 1_555 1_555
C25_2 C19_2 1_555 1_555
C26_2 C23_2 1_555 1_555
C27_2 N2_2 1_555 1_555
Zn5_5 O22_2 1_555 1_555
Zn6_5 O23_2 1_555 1_555
O20_2 C34_2 1_555 1_555
O21_2 C34_2 1_555 1_555
O22_2 C35_2 1_555 1_555
O23_2 C35_2 1_555 1_555
O24_2 C30_2 1_555 1_555
O25_5 Zn6_5 1_555 1_555
O26_5 Zn5_5 1_555 1_555
N4_2 C36_2 1_555 1_555
C28_2 C29_2 1_555 1_555
C29_2 H10_2 1_555 1_555
C30_2 C29_2 1_555 1_555
C31_2 C30_2 1_555 1_555
H11_2 C31_2 1_555 1_555
C32_2 C31_2 1_555 1_555
C33_2 C28_2 1_555 1_555
H12_2 C33_2 1_555 1_555
C34_2 C28_2 1_555 1_555
C35_2 C32_2 1_555 1_555
C36_2 O24_2 1_555 1_555
O77_4 C43_2 1_555 1_555
O85_4 C43_2 1_555 1_555
O29_2 C44_2 1_555 1_555
O30_2 C44_2 1_555 1_555
O31_2 C39_2 1_555 1_555
N5_2 C45_2 1_555 1_555
C37_2 C38_2 1_555 1_555
C38_2 H13_2 1_555 1_555
C39_2 C38_2 1_555 1_555
C40_2 C39_2 1_555 1_555
H14_2 C40_2 1_555 1_555
C41_2 C40_2 1_555 1_555
C42_2 C37_2 1_555 1_555
H15_2 C42_2 1_555 1_555
C43_2 C37_2 1_555 1_555
C44_2 C41_2 1_555 1_555
C45_2 N4_2 1_555 1_555
O81_7 C52_2 1_555 1_555
O89_7 C52_2 1_555 1_555
O34_2 Zn1_3 1_555 1_555
O35_2 Zn2_3 1_555 1_555
O36_2 C48_2 1_555 1_555
N6_2 C36_2 1_555 1_555
C46_2 C47_2 1_555 1_555
C47_2 H16_2 1_555 1_555
C48_2 C47_2 1_555 1_555
C49_2 C48_2 1_555 1_555
H17_2 C49_2 1_555 1_555
C50_2 C49_2 1_555 1_555
C51_2 C46_2 1_555 1_555
H18_2 C51_2 1_555 1_555
C52_2 C46_2 1_555 1_555
C53_2 O34_2 1_555 1_555
C54_2 N5_2 1_555 1_555
Zn13_2 O15_2 1_555 1_555
O73_5 Zn13_2 1_555 1_555
Zn14_2 O16_2 1_555 1_555
O74_5 Zn14_2 1_555 1_555
Zn15_5 O17_2 1_555 1_555
Zn16_3 O12_2 1_555 1_555
Zn17_5 O18_2 1_555 1_555
Zn18_3 O13_2 1_555 1_555
Zn19_2 O20_2 1_555 1_555
Zn27_2 O21_2 1_555 1_555
O79_5 Zn13_2 1_555 1_555
O80_5 Zn13_2 1_555 1_555
O87_5 Zn14_2 1_555 1_555
O88_5 Zn14_2 1_555 1_555
C5_2 C6_2 1_555 1_555
O14_2 C18_2 1_555 1_555
C14_2 C15_2 1_555 1_555
O19_2 C27_2 1_555 1_555
N3_2 C27_2 1_555 1_555
C23_2 C24_2 1_555 1_555
C32_2 C33_2 1_555 1_555
O29_2 Zn16_3 1_555 1_555
O30_2 Zn18_3 1_555 1_555
O31_2 C45_2 1_555 1_555
C41_2 C42_2 1_555 1_555
O35_2 C53_2 1_555 1_555
O36_2 C54_2 1_555 1_555
N6_2 C54_2 1_555 1_555
C50_2 C51_2 1_555 1_555
C50_2 C53_2 1_555 1_555
O42_6 Zn17_2 1_555 1_555
O43_6 Zn15_2 1_555 1_555
O96_5 Zn15_2 1_555 1_555
O102_5 Zn17_2 1_555 1_555
O42_6 H61 1_555 1_555
O42_7 Zn17_3 1_555 1_555
O43_7 Zn15_3 1_555 1_555
O69_8 Zn23_4 1_555 1_555
O70_8 Zn31_4 1_555 1_555
O77_8 Zn23_4 1_555 1_555
O81_8 Zn23_4 1_555 1_555
O85_8 Zn31_4 1_555 1_555
O89_8 Zn31_4 1_555 1_555
O42_8 Zn17_4 1_555 1_555
O43_8 Zn15_4 1_555 1_555
O91_5 Zn15_4 1_555 1_555
O97_5 Zn17_4 1_555 1_555
O42_8 H62 1_555 1_555
O43_8 H64 1_555 1_555
O8_8 Zn19_2 1_555 1_555
O9_8 Zn27_2 1_555 1_555
O42_9 Zn17_5 1_555 1_555
O43_9 Zn15_5 1_555 1_555
O76_8 Zn19_2 1_555 1_555
O82_8 Zn19_2 1_555 1_555
O84_8 Zn27_2 1_555 1_555
O90_8 Zn27_2 1_555 1_555
O43_9 H63 1_555 1_555
O8_9 Zn21_4 1_555 1_555
O9_9 Zn29_4 1_555 1_555
O76_9 Zn21_4 1_555 1_555
O82_9 Zn21_4 1_555 1_555
O84_9 Zn29_4 1_555 1_555
O90_9 Zn29_4 1_555 1_555
Zn7_5 O39_4 1_555 1_555
Zn8_5 O40_4 1_555 1_555
O77 C61_5 1_555 1_555
O85 C61_5 1_555 1_555
O39_4 C62_5 1_555 1_555
O40_4 C62_5 1_555 1_555
O41_5 C57_5 1_555 1_555
O42_10 Zn8_5 1_555 1_555
O43_10 Zn7_5 1_555 1_555
N7_5 C63_5 1_555 1_555
C55_5 C56_5 1_555 1_555
C56_5 H19_5 1_555 1_555
C57_5 C56_5 1_555 1_555
C58_5 C57_5 1_555 1_555
H20_5 C58_5 1_555 1_555
C59_5 C58_5 1_555 1_555
C60_5 C55_5 1_555 1_555
H21_5 C60_5 1_555 1_555
C61_5 C55_5 1_555 1_555
C62_5 C59_5 1_555 1_555
C63_5 O41_5 1_555 1_555
O78_2 C70_5 1_555 1_555
O86_2 C70_5 1_555 1_555
O96_4 C71_5 1_555 1_555
O102_4 C71_5 1_555 1_555
O48_5 C66_5 1_555 1_555
N8_5 C72_5 1_555 1_555
C64_5 C65_5 1_555 1_555
C65_5 H22_5 1_555 1_555
C66_5 C65_5 1_555 1_555
C67_5 C66_5 1_555 1_555
H23_5 C67_5 1_555 1_555
C68_5 C67_5 1_555 1_555
C69_5 C64_5 1_555 1_555
H24_5 C69_5 1_555 1_555
C70_5 C64_5 1_555 1_555
C71_5 C68_5 1_555 1_555
C72_5 N7_5 1_555 1_555
O49_5 C79_5 1_555 1_555
O50_5 C79_5 1_555 1_555
O53_5 C75_5 1_555 1_555
N9_5 C63_5 1_555 1_555
C73_5 C74_5 1_555 1_555
C74_5 H25_5 1_555 1_555
C75_5 C74_5 1_555 1_555
C76_5 C75_5 1_555 1_555
H26_5 C76_5 1_555 1_555
C77_5 C76_5 1_555 1_555
C78_5 C73_5 1_555 1_555
H27_5 C78_5 1_555 1_555
C79_5 C73_5 1_555 1_555
C80_5 O95_2 1_555 1_555
C81_5 N8_5 1_555 1_555
O54_5 C88_5 1_555 1_555
O55_5 C88_5 1_555 1_555
O96_5 C89_5 1_555 1_555
O102_5 C89_5 1_555 1_555
O58_5 C84_5 1_555 1_555
N10_5 C90_5 1_555 1_555
C82_5 C83_5 1_555 1_555
C83_5 H28_5 1_555 1_555
C84_5 C83_5 1_555 1_555
C85_5 C84_5 1_555 1_555
H29_5 C85_5 1_555 1_555
C86_5 C85_5 1_555 1_555
C87_5 C82_5 1_555 1_555
H30_5 C87_5 1_555 1_555
C88_5 C82_5 1_555 1_555
C89_5 C86_5 1_555 1_555
C90_5 O58_5 1_555 1_555
O75 C97_5 1_555 1_555
O83 C97_5 1_555 1_555
O91_4 C98_5 1_555 1_555
O97_4 C98_5 1_555 1_555
O63_5 C93_5 1_555 1_555
N11_5 C99_5 1_555 1_555
C91_5 C92_5 1_555 1_555
C92_5 H31_5 1_555 1_555
C93_5 C92_5 1_555 1_555
C94_5 C93_5 1_555 1_555
H32_5 C94_5 1_555 1_555
C95_5 C94_5 1_555 1_555
C96_5 C91_5 1_555 1_555
H33_5 C96_5 1_555 1_555
C97_5 C91_5 1_555 1_555
C98_5 C95_5 1_555 1_555
C99_5 N10_5 1_555 1_555
O76 C106_5 1_555 1_555
O84 C106_5 1_555 1_555
O66_4 Zn7_5 1_555 1_555
O67_4 Zn8_5 1_555 1_555
O68_5 C102_5 1_555 1_555
N12_5 C90_5 1_555 1_555
C100_5 C101_5 1_555 1_555
C101_5 H34_5 1_555 1_555
C102_5 C101_5 1_555 1_555
C103_5 C102_5 1_555 1_555
H35_5 C103_5 1_555 1_555
C104_5 C103_5 1_555 1_555
C105_5 C100_5 1_555 1_555
H36_5 C105_5 1_555 1_555
C106_5 C100_5 1_555 1_555
C107_5 O66_4 1_555 1_555
C108_5 N11_5 1_555 1_555
Zn21_5 O54_5 1_555 1_555
Zn23_5 O49_5 1_555 1_555
Zn29_5 O55_5 1_555 1_555
Zn31_5 O50_5 1_555 1_555
C59_5 C60_5 1_555 1_555
O48_5 C72_5 1_555 1_555
C68_5 C69_5 1_555 1_555
O101_2 C80_5 1_555 1_555
O53_5 C81_5 1_555 1_555
N9_5 C81_5 1_555 1_555
C77_5 C78_5 1_555 1_555
C77_5 C80_5 1_555 1_555
C86_5 C87_5 1_555 1_555
O63_5 C99_5 1_555 1_555
C95_5 C96_5 1_555 1_555
O67_4 C107_5 1_555 1_555
O68_5 C108_5 1_555 1_555
N12_5 C108_5 1_555 1_555
C104_5 C105_5 1_555 1_555
C104_5 C107_5 1_555 1_555
O26_2 H57_2 1_555 1_555
O6_5 Zn18_2 1_555 1_555
O7_5 Zn16_2 1_555 1_555
O42_11 Zn8_6 1_555 1_555
O43_11 Zn7_6 1_555 1_555
O91_6 Zn7_6 1_555 1_555
O96_6 Zn7_6 1_555 1_555
O97_6 Zn8_6 1_555 1_555
O102_6 Zn8_6 1_555 1_555
O26_4 H58_2 1_555 1_555
O25_4 H60_2 1_555 1_555
O6_6 Zn18_3 1_555 1_555
O7_6 Zn16_3 1_555 1_555
O25_5 H59_2 1_555 1_555
O73_6 Zn21_5 1_555 1_555
O74_6 Zn29_5 1_555 1_555
O79_6 Zn21_5 1_555 1_555
O80_6 Zn21_5 1_555 1_555
O87_6 Zn29_5 1_555 1_555
O88_6 Zn29_5 1_555 1_555
O25_3 H59_3 1_555 1_555
O75_3 C61_6 1_555 1_555
O83_3 C61_6 1_555 1_555
O93_2 C62_6 1_555 1_555
O99_2 C62_6 1_555 1_555
O41_6 C57_6 1_555 1_555
N7_6 C63_6 1_555 1_555
C55_6 C56_6 1_555 1_555
C56_6 H19_6 1_555 1_555
C57_6 C56_6 1_555 1_555
C58_6 C57_6 1_555 1_555
H20_6 C58_6 1_555 1_555
C59_6 C58_6 1_555 1_555
C60_6 C55_6 1_555 1_555
H21_6 C60_6 1_555 1_555
C61_6 C55_6 1_555 1_555
C62_6 C59_6 1_555 1_555
C63_6 O41_6 1_555 1_555
O76_3 C70_6 1_555 1_555
O84_3 C70_6 1_555 1_555
O96_6 C71_6 1_555 1_555
O102_6 C71_6 1_555 1_555
O48_6 C66_6 1_555 1_555
N8_6 C72_6 1_555 1_555
C64_6 C65_6 1_555 1_555
C65_6 H22_6 1_555 1_555
C66_6 C65_6 1_555 1_555
C67_6 C66_6 1_555 1_555
H23_6 C67_6 1_555 1_555
C68_6 C67_6 1_555 1_555
C69_6 C64_6 1_555 1_555
H24_6 C69_6 1_555 1_555
C70_6 C64_6 1_555 1_555
C71_6 C68_6 1_555 1_555
C72_6 N7_6 1_555 1_555
O49_6 C79_6 1_555 1_555
O50_6 C79_6 1_555 1_555
O53_6 C75_6 1_555 1_555
N9_6 C63_6 1_555 1_555
C73_6 C74_6 1_555 1_555
C74_6 H25_6 1_555 1_555
C75_6 C74_6 1_555 1_555
C76_6 C75_6 1_555 1_555
H26_6 C76_6 1_555 1_555
C77_6 C76_6 1_555 1_555
C78_6 C73_6 1_555 1_555
H27_6 C78_6 1_555 1_555
C79_6 C73_6 1_555 1_555
C80_6 O94_2 1_555 1_555
C81_6 N8_6 1_555 1_555
O54_6 C88_6 1_555 1_555
O55_6 C88_6 1_555 1_555
O91_5 C89_6 1_555 1_555
O97_5 C89_6 1_555 1_555
O58_6 C84_6 1_555 1_555
N10_6 C90_6 1_555 1_555
C82_6 C83_6 1_555 1_555
C83_6 H28_6 1_555 1_555
C84_6 C83_6 1_555 1_555
C85_6 C84_6 1_555 1_555
H29_6 C85_6 1_555 1_555
C86_6 C85_6 1_555 1_555
C87_6 C82_6 1_555 1_555
H30_6 C87_6 1_555 1_555
C88_6 C82_6 1_555 1_555
C89_6 C86_6 1_555 1_555
C90_6 O58_6 1_555 1_555
O77_3 C97_6 1_555 1_555
O85_3 C97_6 1_555 1_555
O91_6 C98_6 1_555 1_555
O97_6 C98_6 1_555 1_555
O63_6 C93_6 1_555 1_555
N11_6 C99_6 1_555 1_555
C91_6 C92_6 1_555 1_555
C92_6 H31_6 1_555 1_555
C93_6 C92_6 1_555 1_555
C94_6 C93_6 1_555 1_555
H32_6 C94_6 1_555 1_555
C95_6 C94_6 1_555 1_555
C96_6 C91_6 1_555 1_555
H33_6 C96_6 1_555 1_555
C97_6 C91_6 1_555 1_555
C98_6 C95_6 1_555 1_555
C99_6 N10_6 1_555 1_555
O78_4 C106_6 1_555 1_555
O86_4 C106_6 1_555 1_555
O68_6 C102_6 1_555 1_555
N12_6 C90_6 1_555 1_555
C100_6 C101_6 1_555 1_555
C101_6 H34_6 1_555 1_555
C102_6 C101_6 1_555 1_555
C103_6 C102_6 1_555 1_555
H35_6 C103_6 1_555 1_555
C104_6 C103_6 1_555 1_555
C105_6 C100_6 1_555 1_555
H36_6 C105_6 1_555 1_555
C106_6 C100_6 1_555 1_555
C107_6 O92_2 1_555 1_555
C108_6 N11_6 1_555 1_555
Zn21_6 O54_6 1_555 1_555
Zn23_6 O49_6 1_555 1_555
Zn29_6 O55_6 1_555 1_555
Zn31_6 O50_6 1_555 1_555
C59_6 C60_6 1_555 1_555
O48_6 C72_6 1_555 1_555
C68_6 C69_6 1_555 1_555
O100_2 C80_6 1_555 1_555
O53_6 C81_6 1_555 1_555
N9_6 C81_6 1_555 1_555
C77_6 C78_6 1_555 1_555
C77_6 C80_6 1_555 1_555
C86_6 C87_6 1_555 1_555
O63_6 C99_6 1_555 1_555
C95_6 C96_6 1_555 1_555
O98_2 C107_6 1_555 1_555
O68_6 C108_6 1_555 1_555
N12_6 C108_6 1_555 1_555
C104_6 C105_6 1_555 1_555
C104_6 C107_6 1_555 1_555
O26_4 H57_3 1_555 1_555
O26_5 H58_3 1_555 1_555
O25_5 H60_3 1_555 1_555
O25_2 H59_4 1_555 1_555
O26_3 H58_4 1_555 1_555
O25_3 H60_4 1_555 1_555
O73_7 Zn21_6 1_555 1_555
O74_7 Zn29_6 1_555 1_555
O79_7 Zn21_6 1_555 1_555
O80_7 Zn21_6 1_555 1_555
O87_7 Zn29_6 1_555 1_555
O88_7 Zn29_6 1_555 1_555
O26_5 H57_4 1_555 1_555
O43_6 H57_5 1_555 1_555
O43_7 H58_5 1_555 1_555
O42_7 H60_5 1_555 1_555
O73_8 Zn23_6 1_555 1_555
O74_8 Zn31_6 1_555 1_555
O79_8 Zn23_6 1_555 1_555
O80_8 Zn23_6 1_555 1_555
O87_8 Zn31_6 1_555 1_555
O88_8 Zn31_6 1_555 1_555
O42_9 H59_5 1_555 1_555
O42_6 H50 1_555 1_555
O43_6 H56 1_555 1_555
O42_7 H49 1_555 1_555
O43_8 H55 1_555 1_555
O69_9 Zn23_5 1_555 1_555
O70_9 Zn31_5 1_555 1_555
O77_9 Zn23_5 1_555 1_555
O81_9 Zn23_5 1_555 1_555
O85_9 Zn31_5 1_555 1_555
O89_9 Zn31_5 1_555 1_555
O43_7 H63_2 1_555 1_555
O42_8 H61_2 1_555 1_555
O42_9 H62_2 1_555 1_555
O43_9 H64_2 1_555 1_555
O6_7 Zn2_4 1_555 1_555
O7_7 Zn1_4 1_555 1_555
O25_6 Zn6_6 1_555 1_555
O26_6 Zn5_6 1_555 1_555
O42_12 Zn8_7 1_555 1_555
O43_12 Zn7_7 1_555 1_555
O93_3 Zn1_4 1_555 1_555
O94_3 Zn5_6 1_555 1_555
O95_3 Zn5_6 1_555 1_555
O96_7 Zn7_7 1_555 1_555
O99_3 Zn2_4 1_555 1_555
O100_3 Zn6_6 1_555 1_555
O101_3 Zn6_6 1_555 1_555
O102_7 Zn8_7 1_555 1_555
O6_7 H50_2 1_555 1_555
O7_7 H56_2 1_555 1_555
O42_12 H61_3 1_555 1_555
O6_8 Zn2_5 1_555 1_555
O7_8 Zn1_5 1_555 1_555
Zn5_7 O22_3 1_555 1_555
Zn6_7 O23_3 1_555 1_555
O82_6 C34_3 1_555 1_555
O90_6 C34_3 1_555 1_555
O22_3 C35_3 1_555 1_555
O23_3 C35_3 1_555 1_555
O24_3 C30_3 1_555 1_555
O25_7 Zn6_7 1_555 1_555
O26_7 Zn5_7 1_555 1_555
N4_3 C36_3 1_555 1_555
C28_3 C29_3 1_555 1_555
C29_3 H10_3 1_555 1_555
C30_3 C29_3 1_555 1_555
C31_3 C30_3 1_555 1_555
H11_3 C31_3 1_555 1_555
C32_3 C31_3 1_555 1_555
C33_3 C28_3 1_555 1_555
H12_3 C33_3 1_555 1_555
C34_3 C28_3 1_555 1_555
C35_3 C32_3 1_555 1_555
C36_3 O24_3 1_555 1_555
O80_3 C43_3 1_555 1_555
O88_3 C43_3 1_555 1_555
O29_3 C44_3 1_555 1_555
O30_3 C44_3 1_555 1_555
O31_3 C39_3 1_555 1_555
N5_3 C45_3 1_555 1_555
C37_3 C38_3 1_555 1_555
C38_3 H13_3 1_555 1_555
C39_3 C38_3 1_555 1_555
C40_3 C39_3 1_555 1_555
H14_3 C40_3 1_555 1_555
C41_3 C40_3 1_555 1_555
C42_3 C37_3 1_555 1_555
H15_3 C42_3 1_555 1_555
C43_3 C37_3 1_555 1_555
C44_3 C41_3 1_555 1_555
C45_3 N4_3 1_555 1_555
O82_9 C52_3 1_555 1_555
O90_9 C52_3 1_555 1_555
O34_3 Zn1_5 1_555 1_555
O35_3 Zn2_5 1_555 1_555
O36_3 C48_3 1_555 1_555
N6_3 C36_3 1_555 1_555
C46_3 C47_3 1_555 1_555
C47_3 H16_3 1_555 1_555
C48_3 C47_3 1_555 1_555
C49_3 C48_3 1_555 1_555
H17_3 C49_3 1_555 1_555
C50_3 C49_3 1_555 1_555
C51_3 C46_3 1_555 1_555
H18_3 C51_3 1_555 1_555
C52_3 C46_3 1_555 1_555
C53_3 O34_3 1_555 1_555
C54_3 N5_3 1_555 1_555
Zn7_8 O39_5 1_555 1_555
Zn8_8 O40_5 1_555 1_555
O80_5 C61_7 1_555 1_555
O88_5 C61_7 1_555 1_555
O39_5 C62_7 1_555 1_555
O40_5 C62_7 1_555 1_555
O41_7 C57_7 1_555 1_555
O42_13 Zn8_8 1_555 1_555
O43_13 Zn7_8 1_555 1_555
N7_7 C63_7 1_555 1_555
C55_7 C56_7 1_555 1_555
C56_7 H19_7 1_555 1_555
C57_7 C56_7 1_555 1_555
C58_7 C57_7 1_555 1_555
H20_7 C58_7 1_555 1_555
C59_7 C58_7 1_555 1_555
C60_7 C55_7 1_555 1_555
H21_7 C60_7 1_555 1_555
C61_7 C55_7 1_555 1_555
C62_7 C59_7 1_555 1_555
C63_7 O41_7 1_555 1_555
O79_2 C70_7 1_555 1_555
O87_2 C70_7 1_555 1_555
O46_3 C71_7 1_555 1_555
O47_3 C71_7 1_555 1_555
O48_7 C66_7 1_555 1_555
N8_7 C72_7 1_555 1_555
C64_7 C65_7 1_555 1_555
C65_7 H22_7 1_555 1_555
C66_7 C65_7 1_555 1_555
C67_7 C66_7 1_555 1_555
H23_7 C67_7 1_555 1_555
C68_7 C67_7 1_555 1_555
C69_7 C64_7 1_555 1_555
H24_7 C69_7 1_555 1_555
C70_7 C64_7 1_555 1_555
C71_7 C68_7 1_555 1_555
C72_7 N7_7 1_555 1_555
O78_5 C79_7 1_555 1_555
O86_5 C79_7 1_555 1_555
O51_3 Zn5_7 1_555 1_555
O52_3 Zn6_7 1_555 1_555
O53_7 C75_7 1_555 1_555
N9_7 C63_7 1_555 1_555
C73_7 C74_7 1_555 1_555
C74_7 H25_7 1_555 1_555
C75_7 C74_7 1_555 1_555
C76_7 C75_7 1_555 1_555
H26_7 C76_7 1_555 1_555
C77_7 C76_7 1_555 1_555
C78_7 C73_7 1_555 1_555
H27_7 C78_7 1_555 1_555
C79_7 C73_7 1_555 1_555
C80_7 O51_3 1_555 1_555
C81_7 N8_7 1_555 1_555
C32_3 C33_3 1_555 1_555
O29_3 Zn16_4 1_555 1_555
O30_3 Zn18_4 1_555 1_555
O31_3 C45_3 1_555 1_555
C41_3 C42_3 1_555 1_555
O35_3 C53_3 1_555 1_555
O36_3 C54_3 1_555 1_555
N6_3 C54_3 1_555 1_555
C50_3 C51_3 1_555 1_555
C50_3 C53_3 1_555 1_555
C59_7 C60_7 1_555 1_555
O46_3 Zn16_4 1_555 1_555
O47_3 Zn18_4 1_555 1_555
O48_7 C72_7 1_555 1_555
C68_7 C69_7 1_555 1_555
O52_3 C80_7 1_555 1_555
O53_7 C81_7 1_555 1_555
N9_7 C81_7 1_555 1_555
C77_7 C78_7 1_555 1_555
C77_7 C80_7 1_555 1_555
O7_8 H55_2 1_555 1_555
O6_9 Zn2_6 1_555 1_555
O7_9 Zn1_6 1_555 1_555
O42_14 Zn8_9 1_555 1_555
O43_14 Zn7_9 1_555 1_555
O91_7 Zn7_9 1_555 1_555
O92_3 Zn1_6 1_555 1_555
O97_7 Zn8_9 1_555 1_555
O98_3 Zn2_6 1_555 1_555
O6_9 H49_2 1_555 1_555
O42_14 H62_3 1_555 1_555
O43_14 H64_3 1_555 1_555
Zn1_7 O3_3 1_555 1_555
Zn2_7 O4_3 1_555 1_555
O81_8 C7_3 1_555 1_555
O89_8 C7_3 1_555 1_555
O3_3 C8_3 1_555 1_555
O4_3 C8_3 1_555 1_555
O5_3 C3_3 1_555 1_555
O6_10 Zn2_7 1_555 1_555
O7_10 Zn1_7 1_555 1_555
N1_3 C9_3 1_555 1_555
C1_3 C2_3 1_555 1_555
C2_3 H1_3 1_555 1_555
C3_3 C2_3 1_555 1_555
C4_3 C3_3 1_555 1_555
H2_3 C4_3 1_555 1_555
C5_3 C4_3 1_555 1_555
C6_3 C1_3 1_555 1_555
H3_3 C6_3 1_555 1_555
C7_3 C1_3 1_555 1_555
C8_3 C5_3 1_555 1_555
C9_3 O5_3 1_555 1_555
O79_4 C16_3 1_555 1_555
O87_4 C16_3 1_555 1_555
O12_3 C17_3 1_555 1_555
O13_3 C17_3 1_555 1_555
O14_3 C12_3 1_555 1_555
N2_3 C18_3 1_555 1_555
C10_3 C11_3 1_555 1_555
C11_3 H4_3 1_555 1_555
C12_3 C11_3 1_555 1_555
C13_3 C12_3 1_555 1_555
H5_3 C13_3 1_555 1_555
C14_3 C13_3 1_555 1_555
C15_3 C10_3 1_555 1_555
H6_3 C15_3 1_555 1_555
C16_3 C10_3 1_555 1_555
C17_3 C14_3 1_555 1_555
C18_3 N1_3 1_555 1_555
O81_5 C25_3 1_555 1_555
O89_5 C25_3 1_555 1_555
O17_3 C26_3 1_555 1_555
O18_3 C26_3 1_555 1_555
O19_3 C21_3 1_555 1_555
N3_3 C9_3 1_555 1_555
C19_3 C20_3 1_555 1_555
C20_3 H7_3 1_555 1_555
C21_3 C20_3 1_555 1_555
C22_3 C21_3 1_555 1_555
H8_3 C22_3 1_555 1_555
C23_3 C22_3 1_555 1_555
C24_3 C19_3 1_555 1_555
H9_3 C24_3 1_555 1_555
C25_3 C19_3 1_555 1_555
C26_3 C23_3 1_555 1_555
C27_3 N2_3 1_555 1_555
O42_15 Zn8_10 1_555 1_555
O43_15 Zn7_10 1_555 1_555
O77_7 C88_7 1_555 1_555
O85_7 C88_7 1_555 1_555
O56_3 C89_7 1_555 1_555
O57_3 C89_7 1_555 1_555
O58_7 C84_7 1_555 1_555
N10_7 C90_7 1_555 1_555
C82_7 C83_7 1_555 1_555
C83_7 H28_7 1_555 1_555
C84_7 C83_7 1_555 1_555
C85_7 C84_7 1_555 1_555
H29_7 C85_7 1_555 1_555
C86_7 C85_7 1_555 1_555
C87_7 C82_7 1_555 1_555
H30_7 C87_7 1_555 1_555
C88_7 C82_7 1_555 1_555
C89_7 C86_7 1_555 1_555
C90_7 O58_7 1_555 1_555
O81_6 C97_7 1_555 1_555
O89_6 C97_7 1_555 1_555
O61_3 C98_7 1_555 1_555
O62_3 C98_7 1_555 1_555
O63_7 C93_7 1_555 1_555
N11_7 C99_7 1_555 1_555
C91_7 C92_7 1_555 1_555
C92_7 H31_7 1_555 1_555
C93_7 C92_7 1_555 1_555
C94_7 C93_7 1_555 1_555
H32_7 C94_7 1_555 1_555
C95_7 C94_7 1_555 1_555
C96_7 C91_7 1_555 1_555
H33_7 C96_7 1_555 1_555
C97_7 C91_7 1_555 1_555
C98_7 C95_7 1_555 1_555
C99_7 N10_7 1_555 1_555
O82_8 C106_7 1_555 1_555
O90_8 C106_7 1_555 1_555
O66_5 Zn7_10 1_555 1_555
O67_5 Zn8_10 1_555 1_555
O68_7 C102_7 1_555 1_555
N12_7 C90_7 1_555 1_555
C100_7 C101_7 1_555 1_555
C101_7 H34_7 1_555 1_555
C102_7 C101_7 1_555 1_555
C103_7 C102_7 1_555 1_555
H35_7 C103_7 1_555 1_555
C104_7 C103_7 1_555 1_555
C105_7 C100_7 1_555 1_555
H36_7 C105_7 1_555 1_555
C106_7 C100_7 1_555 1_555
C107_7 O66_5 1_555 1_555
C108_7 N11_7 1_555 1_555
Zn15_7 O17_3 1_555 1_555
Zn16_5 O12_3 1_555 1_555
Zn17_7 O18_3 1_555 1_555
Zn18_5 O13_3 1_555 1_555
C5_3 C6_3 1_555 1_555
O14_3 C18_3 1_555 1_555
C14_3 C15_3 1_555 1_555
O19_3 C27_3 1_555 1_555
N3_3 C27_3 1_555 1_555
C23_3 C24_3 1_555 1_555
O56_3 Zn15_7 1_555 1_555
O57_3 Zn17_7 1_555 1_555
C86_7 C87_7 1_555 1_555
O61_3 Zn16_5 1_555 1_555
O62_3 Zn18_5 1_555 1_555
O63_7 C99_7 1_555 1_555
C95_7 C96_7 1_555 1_555
O67_5 C107_7 1_555 1_555
O68_7 C108_7 1_555 1_555
N12_7 C108_7 1_555 1_555
C104_7 C105_7 1_555 1_555
C104_7 C107_7 1_555 1_555
O43_15 H63_3 1_555 1_555
O42_16 Zn17_6 1_555 1_555
O43_16 Zn15_6 1_555 1_555
O91_8 Zn15_6 1_555 1_555
O96_8 Zn15_6 1_555 1_555
O97_8 Zn17_6 1_555 1_555
O102_8 Zn17_6 1_555 1_555
O42_17 Zn17_7 1_555 1_555
O43_17 Zn15_7 1_555 1_555
Zn7_11 O39_6 1_555 1_555
Zn8_11 O40_6 1_555 1_555
O76_4 C61_8 1_555 1_555
O84_4 C61_8 1_555 1_555
O39_6 C62_8 1_555 1_555
O40_6 C62_8 1_555 1_555
O41_8 C57_8 1_555 1_555
O42_18 Zn8_11 1_555 1_555
O43_18 Zn7_11 1_555 1_555
N7_8 C63_8 1_555 1_555
C55_8 C56_8 1_555 1_555
C56_8 H19_8 1_555 1_555
C57_8 C56_8 1_555 1_555
C58_8 C57_8 1_555 1_555
H20_8 C58_8 1_555 1_555
C59_8 C58_8 1_555 1_555
C60_8 C55_8 1_555 1_555
H21_8 C60_8 1_555 1_555
C61_8 C55_8 1_555 1_555
C62_8 C59_8 1_555 1_555
C63_8 O41_8 1_555 1_555
O79_7 C70_8 1_555 1_555
O87_7 C70_8 1_555 1_555
O96_7 C71_8 1_555 1_555
O102_7 C71_8 1_555 1_555
O48_8 C66_8 1_555 1_555
N8_8 C72_8 1_555 1_555
C64_8 C65_8 1_555 1_555
C65_8 H22_8 1_555 1_555
C66_8 C65_8 1_555 1_555
C67_8 C66_8 1_555 1_555
H23_8 C67_8 1_555 1_555
C68_8 C67_8 1_555 1_555
C69_8 C64_8 1_555 1_555
H24_8 C69_8 1_555 1_555
C70_8 C64_8 1_555 1_555
C71_8 C68_8 1_555 1_555
C72_8 N7_8 1_555 1_555
O75_4 C79_8 1_555 1_555
O83_4 C79_8 1_555 1_555
O53_8 C75_8 1_555 1_555
N9_8 C63_8 1_555 1_555
C73_8 C74_8 1_555 1_555
C74_8 H25_8 1_555 1_555
C75_8 C74_8 1_555 1_555
C76_8 C75_8 1_555 1_555
H26_8 C76_8 1_555 1_555
C77_8 C76_8 1_555 1_555
C78_8 C73_8 1_555 1_555
H27_8 C78_8 1_555 1_555
C79_8 C73_8 1_555 1_555
C80_8 O95_3 1_555 1_555
C81_8 N8_8 1_555 1_555
O96_9 Zn7_11 1_555 1_555
O102_9 Zn8_11 1_555 1_555
C59_8 C60_8 1_555 1_555
O48_8 C72_8 1_555 1_555
C68_8 C69_8 1_555 1_555
O101_3 C80_8 1_555 1_555
O53_8 C81_8 1_555 1_555
N9_8 C81_8 1_555 1_555
C77_8 C78_8 1_555 1_555
C77_8 C80_8 1_555 1_555
O6_11 Zn18_4 1_555 1_555
O7_11 Zn16_4 1_555 1_555
O42_19 Zn8_12 1_555 1_555
O43_19 Zn7_12 1_555 1_555
O78_3 C88_8 1_555 1_555
O86_3 C88_8 1_555 1_555
O96_8 C89_8 1_555 1_555
O102_8 C89_8 1_555 1_555
O58_8 C84_8 1_555 1_555
N10_8 C90_8 1_555 1_555
C82_8 C83_8 1_555 1_555
C83_8 H28_8 1_555 1_555
C84_8 C83_8 1_555 1_555
C85_8 C84_8 1_555 1_555
H29_8 C85_8 1_555 1_555
C86_8 C85_8 1_555 1_555
C87_8 C82_8 1_555 1_555
H30_8 C87_8 1_555 1_555
C88_8 C82_8 1_555 1_555
C89_8 C86_8 1_555 1_555
C90_8 O58_8 1_555 1_555
O80_8 C97_8 1_555 1_555
O88_8 C97_8 1_555 1_555
O91_7 C98_8 1_555 1_555
O97_7 C98_8 1_555 1_555
O63_8 C93_8 1_555 1_555
N11_8 C99_8 1_555 1_555
C91_8 C92_8 1_555 1_555
C92_8 H31_8 1_555 1_555
C93_8 C92_8 1_555 1_555
C94_8 C93_8 1_555 1_555
H32_8 C94_8 1_555 1_555
C95_8 C94_8 1_555 1_555
C96_8 C91_8 1_555 1_555
H33_8 C96_8 1_555 1_555
C97_8 C91_8 1_555 1_555
C98_8 C95_8 1_555 1_555
C99_8 N10_8 1_555 1_555
O77_2 C106_8 1_555 1_555
O85_2 C106_8 1_555 1_555
O66_6 Zn7_12 1_555 1_555
O67_6 Zn8_12 1_555 1_555
O68_8 C102_8 1_555 1_555
N12_8 C90_8 1_555 1_555
C100_8 C101_8 1_555 1_555
C101_8 H34_8 1_555 1_555
C102_8 C101_8 1_555 1_555
C103_8 C102_8 1_555 1_555
H35_8 C103_8 1_555 1_555
C104_8 C103_8 1_555 1_555
C105_8 C100_8 1_555 1_555
H36_8 C105_8 1_555 1_555
C106_8 C100_8 1_555 1_555
C107_8 O66_6 1_555 1_555
C108_8 N11_8 1_555 1_555
O91_9 Zn7_12 1_555 1_555
O97_9 Zn8_12 1_555 1_555
C86_8 C87_8 1_555 1_555
O63_8 C99_8 1_555 1_555
C95_8 C96_8 1_555 1_555
O67_6 C107_8 1_555 1_555
O68_8 C108_8 1_555 1_555
N12_8 C108_8 1_555 1_555
C104_8 C105_8 1_555 1_555
C104_8 C107_8 1_555 1_555
O6_12 Zn18_5 1_555 1_555
O7_12 Zn16_5 1_555 1_555
O80_6 C61_9 1_555 1_555
O88_6 C61_9 1_555 1_555
O93_3 C62_9 1_555 1_555
O99_3 C62_9 1_555 1_555
O41_9 C57_9 1_555 1_555
N7_9 C63_9 1_555 1_555
C55_9 C56_9 1_555 1_555
C56_9 H19_9 1_555 1_555
C57_9 C56_9 1_555 1_555
C58_9 C57_9 1_555 1_555
H20_9 C58_9 1_555 1_555
C59_9 C58_9 1_555 1_555
C60_9 C55_9 1_555 1_555
H21_9 C60_9 1_555 1_555
C61_9 C55_9 1_555 1_555
C62_9 C59_9 1_555 1_555
C63_9 O41_9 1_555 1_555
O79 C70_9 1_555 1_555
O87 C70_9 1_555 1_555
O96_9 C71_9 1_555 1_555
O102_9 C71_9 1_555 1_555
O48_9 C66_9 1_555 1_555
N8_9 C72_9 1_555 1_555
C64_9 C65_9 1_555 1_555
C65_9 H22_9 1_555 1_555
C66_9 C65_9 1_555 1_555
C67_9 C66_9 1_555 1_555
H23_9 C67_9 1_555 1_555
C68_9 C67_9 1_555 1_555
C69_9 C64_9 1_555 1_555
H24_9 C69_9 1_555 1_555
C70_9 C64_9 1_555 1_555
C71_9 C68_9 1_555 1_555
C72_9 N7_9 1_555 1_555
O78 C79_9 1_555 1_555
O86 C79_9 1_555 1_555
O53_9 C75_9 1_555 1_555
N9_9 C63_9 1_555 1_555
C73_9 C74_9 1_555 1_555
C74_9 H25_9 1_555 1_555
C75_9 C74_9 1_555 1_555
C76_9 C75_9 1_555 1_555
H26_9 C76_9 1_555 1_555
C77_9 C76_9 1_555 1_555
C78_9 C73_9 1_555 1_555
H27_9 C78_9 1_555 1_555
C79_9 C73_9 1_555 1_555
C80_9 O94_3 1_555 1_555
C81_9 N8_9 1_555 1_555
C59_9 C60_9 1_555 1_555
O48_9 C72_9 1_555 1_555
C68_9 C69_9 1_555 1_555
O100_3 C80_9 1_555 1_555
O53_9 C81_9 1_555 1_555
N9_9 C81_9 1_555 1_555
C77_9 C78_9 1_555 1_555
C77_9 C80_9 1_555 1_555
O43_12 H55_3 1_555 1_555
O42_13 H50_3 1_555 1_555
O43_13 H56_3 1_555 1_555
O6_8 H61_4 1_555 1_555
O75_2 C88_9 1_555 1_555
O83_2 C88_9 1_555 1_555
O91_8 C89_9 1_555 1_555
O97_8 C89_9 1_555 1_555
O58_9 C84_9 1_555 1_555
N10_9 C90_9 1_555 1_555
C82_9 C83_9 1_555 1_555
C83_9 H28_9 1_555 1_555
C84_9 C83_9 1_555 1_555
C85_9 C84_9 1_555 1_555
H29_9 C85_9 1_555 1_555
C86_9 C85_9 1_555 1_555
C87_9 C82_9 1_555 1_555
H30_9 C87_9 1_555 1_555
C88_9 C82_9 1_555 1_555
C89_9 C86_9 1_555 1_555
C90_9 O58_9 1_555 1_555
O76_2 C97_9 1_555 1_555
O84_2 C97_9 1_555 1_555
O91_9 C98_9 1_555 1_555
O97_9 C98_9 1_555 1_555
O63_9 C93_9 1_555 1_555
N11_9 C99_9 1_555 1_555
C91_9 C92_9 1_555 1_555
C92_9 H31_9 1_555 1_555
C93_9 C92_9 1_555 1_555
C94_9 C93_9 1_555 1_555
H32_9 C94_9 1_555 1_555
C95_9 C94_9 1_555 1_555
C96_9 C91_9 1_555 1_555
H33_9 C96_9 1_555 1_555
C97_9 C91_9 1_555 1_555
C98_9 C95_9 1_555 1_555
C99_9 N10_9 1_555 1_555
O77_9 C106_9 1_555 1_555
O85_9 C106_9 1_555 1_555
O68_9 C102_9 1_555 1_555
N12_9 C90_9 1_555 1_555
C100_9 C101_9 1_555 1_555
C101_9 H34_9 1_555 1_555
C102_9 C101_9 1_555 1_555
C103_9 C102_9 1_555 1_555
H35_9 C103_9 1_555 1_555
C104_9 C103_9 1_555 1_555
C105_9 C100_9 1_555 1_555
H36_9 C105_9 1_555 1_555
C106_9 C100_9 1_555 1_555
C107_9 O92_3 1_555 1_555
C108_9 N11_9 1_555 1_555
C86_9 C87_9 1_555 1_555
O63_9 C99_9 1_555 1_555
C95_9 C96_9 1_555 1_555
O98_3 C107_9 1_555 1_555
O68_9 C108_9 1_555 1_555
N12_9 C108_9 1_555 1_555
C104_9 C105_9 1_555 1_555
C104_9 C107_9 1_555 1_555
O7_9 H63_4 1_555 1_555
O42_15 H49_3 1_555 1_555
O6_10 H62_4 1_555 1_555
O7_10 H64_4 1_555 1_555
O6_7 H49_4 1_555 1_555
O42_12 H62_5 1_555 1_555
O43_12 H64_5 1_555 1_555
O6_8 H50_4 1_555 1_555
O7_8 H56_4 1_555 1_555
O42_13 H61_5 1_555 1_555
O43_14 H63_5 1_555 1_555
O7_10 H55_4 1_555 1_555
O7_7 H55_5 1_555 1_555
O43_13 H63_6 1_555 1_555
O6_9 H50_5 1_555 1_555
O7_9 H56_5 1_555 1_555
O42_14 H61_6 1_555 1_555
O6_10 H49_5 1_555 1_555
O42_15 H62_6 1_555 1_555
O43_15 H64_6 1_555 1_555
O25_8 Zn6_8 1_555 1_555
O26_8 Zn5_8 1_555 1_555
Zn7_13 O39_7 1_555 1_555
Zn8_13 O40_7 1_555 1_555
O80 C61_10 1_555 1_555
O88 C61_10 1_555 1_555
O39_7 C62_10 1_555 1_555
O40_7 C62_10 1_555 1_555
O41_10 C57_10 1_555 1_555
O42_20 Zn8_13 1_555 1_555
O43_20 Zn7_13 1_555 1_555
N7_10 C63_10 1_555 1_555
C55_10 C56_10 1_555 1_555
C56_10 H19_10 1_555 1_555
C57_10 C56_10 1_555 1_555
C58_10 C57_10 1_555 1_555
H20_10 C58_10 1_555 1_555
C59_10 C58_10 1_555 1_555
C60_10 C55_10 1_555 1_555
H21_10 C60_10 1_555 1_555
C61_10 C55_10 1_555 1_555
C62_10 C59_10 1_555 1_555
C63_10 O41_10 1_555 1_555
O79_6 C70_10 1_555 1_555
O87_6 C70_10 1_555 1_555
O46_4 C71_10 1_555 1_555
O47_4 C71_10 1_555 1_555
O48_10 C66_10 1_555 1_555
N8_10 C72_10 1_555 1_555
C64_10 C65_10 1_555 1_555
C65_10 H22_10 1_555 1_555
C66_10 C65_10 1_555 1_555
C67_10 C66_10 1_555 1_555
H23_10 C67_10 1_555 1_555
C68_10 C67_10 1_555 1_555
C69_10 C64_10 1_555 1_555
H24_10 C69_10 1_555 1_555
C70_10 C64_10 1_555 1_555
C71_10 C68_10 1_555 1_555
C72_10 N7_10 1_555 1_555
O82 C79_10 1_555 1_555
O90 C79_10 1_555 1_555
O51_4 Zn5_8 1_555 1_555
O52_4 Zn6_8 1_555 1_555
O53_10 C75_10 1_555 1_555
N9_10 C63_10 1_555 1_555
C73_10 C74_10 1_555 1_555
C74_10 H25_10 1_555 1_555
C75_10 C74_10 1_555 1_555
C76_10 C75_10 1_555 1_555
H26_10 C76_10 1_555 1_555
C77_10 C76_10 1_555 1_555
C78_10 C73_10 1_555 1_555
H27_10 C78_10 1_555 1_555
C79_10 C73_10 1_555 1_555
C80_10 O51_4 1_555 1_555
C81_10 N8_10 1_555 1_555
O95_4 Zn5_8 1_555 1_555
O96_10 Zn7_13 1_555 1_555
O101_4 Zn6_8 1_555 1_555
O102_10 Zn8_13 1_555 1_555
C59_10 C60_10 1_555 1_555
O46_4 Zn16_6 1_555 1_555
O47_4 Zn18_6 1_555 1_555
O48_10 C72_10 1_555 1_555
C68_10 C69_10 1_555 1_555
O52_4 C80_10 1_555 1_555
O53_10 C81_10 1_555 1_555
N9_10 C81_10 1_555 1_555
C77_10 C78_10 1_555 1_555
C77_10 C80_10 1_555 1_555
O6_13 Zn2_8 1_555 1_555
O7_13 Zn1_8 1_555 1_555
Zn5_9 O22_4 1_555 1_555
Zn6_9 O23_4 1_555 1_555
O81_3 C34_4 1_555 1_555
O89_3 C34_4 1_555 1_555
O22_4 C35_4 1_555 1_555
O23_4 C35_4 1_555 1_555
O24_4 C30_4 1_555 1_555
O25_9 Zn6_9 1_555 1_555
O26_9 Zn5_9 1_555 1_555
N4_4 C36_4 1_555 1_555
C28_4 C29_4 1_555 1_555
C29_4 H10_4 1_555 1_555
C30_4 C29_4 1_555 1_555
C31_4 C30_4 1_555 1_555
H11_4 C31_4 1_555 1_555
C32_4 C31_4 1_555 1_555
C33_4 C28_4 1_555 1_555
H12_4 C33_4 1_555 1_555
C34_4 C28_4 1_555 1_555
C35_4 C32_4 1_555 1_555
C36_4 O24_4 1_555 1_555
O80_7 C43_4 1_555 1_555
O88_7 C43_4 1_555 1_555
O29_4 C44_4 1_555 1_555
O30_4 C44_4 1_555 1_555
O31_4 C39_4 1_555 1_555
N5_4 C45_4 1_555 1_555
C37_4 C38_4 1_555 1_555
C38_4 H13_4 1_555 1_555
C39_4 C38_4 1_555 1_555
C40_4 C39_4 1_555 1_555
H14_4 C40_4 1_555 1_555
C41_4 C40_4 1_555 1_555
C42_4 C37_4 1_555 1_555
H15_4 C42_4 1_555 1_555
C43_4 C37_4 1_555 1_555
C44_4 C41_4 1_555 1_555
C45_4 N4_4 1_555 1_555
O82_4 C52_4 1_555 1_555
O90_4 C52_4 1_555 1_555
O34_4 Zn1_8 1_555 1_555
O35_4 Zn2_8 1_555 1_555
O36_4 C48_4 1_555 1_555
N6_4 C36_4 1_555 1_555
C46_4 C47_4 1_555 1_555
C47_4 H16_4 1_555 1_555
C48_4 C47_4 1_555 1_555
C49_4 C48_4 1_555 1_555
H17_4 C49_4 1_555 1_555
C50_4 C49_4 1_555 1_555
C51_4 C46_4 1_555 1_555
H18_4 C51_4 1_555 1_555
C52_4 C46_4 1_555 1_555
C53_4 O34_4 1_555 1_555
C54_4 N5_4 1_555 1_555
O93_4 Zn1_8 1_555 1_555
O94_4 Zn5_9 1_555 1_555
O99_4 Zn2_8 1_555 1_555
O100_4 Zn6_9 1_555 1_555
C32_4 C33_4 1_555 1_555
O29_4 Zn16_7 1_555 1_555
O30_4 Zn18_7 1_555 1_555
O31_4 C45_4 1_555 1_555
C41_4 C42_4 1_555 1_555
O35_4 C53_4 1_555 1_555
O36_4 C54_4 1_555 1_555
N6_4 C54_4 1_555 1_555
C50_4 C51_4 1_555 1_555
C50_4 C53_4 1_555 1_555
O42_21 Zn8_14 1_555 1_555
O43_21 Zn7_14 1_555 1_555
O81 C88_10 1_555 1_555
O89 C88_10 1_555 1_555
O56_4 C89_10 1_555 1_555
O57_4 C89_10 1_555 1_555
O58_10 C84_10 1_555 1_555
N10_10 C90_10 1_555 1_555
C82_10 C83_10 1_555 1_555
C83_10 H28_10 1_555 1_555
C84_10 C83_10 1_555 1_555
C85_10 C84_10 1_555 1_555
H29_10 C85_10 1_555 1_555
C86_10 C85_10 1_555 1_555
C87_10 C82_10 1_555 1_555
H30_10 C87_10 1_555 1_555
C88_10 C82_10 1_555 1_555
C89_10 C86_10 1_555 1_555
C90_10 O58_10 1_555 1_555
O81_9 C97_10 1_555 1_555
O89_9 C97_10 1_555 1_555
O61_4 C98_10 1_555 1_555
O62_4 C98_10 1_555 1_555
O63_10 C93_10 1_555 1_555
N11_10 C99_10 1_555 1_555
C91_10 C92_10 1_555 1_555
C92_10 H31_10 1_555 1_555
C93_10 C92_10 1_555 1_555
C94_10 C93_10 1_555 1_555
H32_10 C94_10 1_555 1_555
C95_10 C94_10 1_555 1_555
C96_10 C91_10 1_555 1_555
H33_10 C96_10 1_555 1_555
C97_10 C91_10 1_555 1_555
C98_10 C95_10 1_555 1_555
C99_10 N10_10 1_555 1_555
O82_2 C106_10 1_555 1_555
O90_2 C106_10 1_555 1_555
O66_7 Zn7_14 1_555 1_555
O67_7 Zn8_14 1_555 1_555
O68_10 C102_10 1_555 1_555
N12_10 C90_10 1_555 1_555
C100_10 C101_10 1_555 1_555
C101_10 H34_10 1_555 1_555
C102_10 C101_10 1_555 1_555
C103_10 C102_10 1_555 1_555
H35_10 C103_10 1_555 1_555
C104_10 C103_10 1_555 1_555
C105_10 C100_10 1_555 1_555
H36_10 C105_10 1_555 1_555
C106_10 C100_10 1_555 1_555
C107_10 O66_7 1_555 1_555
C108_10 N11_10 1_555 1_555
O91_10 Zn7_14 1_555 1_555
O97_10 Zn8_14 1_555 1_555
O56_4 Zn15_8 1_555 1_555
O57_4 Zn17_8 1_555 1_555
C86_10 C87_10 1_555 1_555
O61_4 Zn16_8 1_555 1_555
O62_4 Zn18_8 1_555 1_555
O63_10 C99_10 1_555 1_555
C95_10 C96_10 1_555 1_555
O67_7 C107_10 1_555 1_555
O68_10 C108_10 1_555 1_555
N12_10 C108_10 1_555 1_555
C104_10 C105_10 1_555 1_555
C104_10 C107_10 1_555 1_555
Zn1_9 O3_4 1_555 1_555
Zn2_9 O4_4 1_555 1_555
O81_2 C7_4 1_555 1_555
O89_2 C7_4 1_555 1_555
O3_4 C8_4 1_555 1_555
O4_4 C8_4 1_555 1_555
O5_4 C3_4 1_555 1_555
O6_14 Zn2_9 1_555 1_555
O7_14 Zn1_9 1_555 1_555
N1_4 C9_4 1_555 1_555
C1_4 C2_4 1_555 1_555
C2_4 H1_4 1_555 1_555
C3_4 C2_4 1_555 1_555
C4_4 C3_4 1_555 1_555
H2_4 C4_4 1_555 1_555
C5_4 C4_4 1_555 1_555
C6_4 C1_4 1_555 1_555
H3_4 C6_4 1_555 1_555
C7_4 C1_4 1_555 1_555
C8_4 C5_4 1_555 1_555
C9_4 O5_4 1_555 1_555
O79_8 C16_4 1_555 1_555
O87_8 C16_4 1_555 1_555
O12_4 C17_4 1_555 1_555
O13_4 C17_4 1_555 1_555
O14_4 C12_4 1_555 1_555
N2_4 C18_4 1_555 1_555
C10_4 C11_4 1_555 1_555
C11_4 H4_4 1_555 1_555
C12_4 C11_4 1_555 1_555
C13_4 C12_4 1_555 1_555
H5_4 C13_4 1_555 1_555
C14_4 C13_4 1_555 1_555
C15_4 C10_4 1_555 1_555
H6_4 C15_4 1_555 1_555
C16_4 C10_4 1_555 1_555
C17_4 C14_4 1_555 1_555
C18_4 N1_4 1_555 1_555
O82_3 C25_4 1_555 1_555
O90_3 C25_4 1_555 1_555
O17_4 C26_4 1_555 1_555
O18_4 C26_4 1_555 1_555
O19_4 C21_4 1_555 1_555
N3_4 C9_4 1_555 1_555
C19_4 C20_4 1_555 1_555
C20_4 H7_4 1_555 1_555
C21_4 C20_4 1_555 1_555
C22_4 C21_4 1_555 1_555
H8_4 C22_4 1_555 1_555
C23_4 C22_4 1_555 1_555
C24_4 C19_4 1_555 1_555
H9_4 C24_4 1_555 1_555
C25_4 C19_4 1_555 1_555
C26_4 C23_4 1_555 1_555
C27_4 N2_4 1_555 1_555
Zn15_9 O17_4 1_555 1_555
Zn16_9 O12_4 1_555 1_555
Zn17_9 O18_4 1_555 1_555
Zn18_9 O13_4 1_555 1_555
O92_4 Zn1_9 1_555 1_555
O98_4 Zn2_9 1_555 1_555
C5_4 C6_4 1_555 1_555
O14_4 C18_4 1_555 1_555
C14_4 C15_4 1_555 1_555
O19_4 C27_4 1_555 1_555
N3_4 C27_4 1_555 1_555
C23_4 C24_4 1_555 1_555
O42_22 Zn17_8 1_555 1_555
O43_22 Zn15_8 1_555 1_555
O96_11 Zn15_8 1_555 1_555
O102_11 Zn17_8 1_555 1_555
O42_23 Zn17_9 1_555 1_555
O43_23 Zn15_9 1_555 1_555
O91_11 Zn15_9 1_555 1_555
O97_11 Zn17_9 1_555 1_555
O6_15 Zn18_6 1_555 1_555
O7_15 Zn16_6 1_555 1_555
Zn7_15 O39_8 1_555 1_555
Zn8_15 O40_8 1_555 1_555
O76_9 C61_11 1_555 1_555
O84_9 C61_11 1_555 1_555
O39_8 C62_11 1_555 1_555
O40_8 C62_11 1_555 1_555
O41_11 C57_11 1_555 1_555
O42_24 Zn8_15 1_555 1_555
O43_24 Zn7_15 1_555 1_555
N7_11 C63_11 1_555 1_555
C55_11 C56_11 1_555 1_555
C56_11 H19_11 1_555 1_555
C57_11 C56_11 1_555 1_555
C58_11 C57_11 1_555 1_555
H20_11 C58_11 1_555 1_555
C59_11 C58_11 1_555 1_555
C60_11 C55_11 1_555 1_555
H21_11 C60_11 1_555 1_555
C61_11 C55_11 1_555 1_555
C62_11 C59_11 1_555 1_555
C63_11 O41_11 1_555 1_555
O79_3 C70_11 1_555 1_555
O87_3 C70_11 1_555 1_555
O96_10 C71_11 1_555 1_555
O102_10 C71_11 1_555 1_555
O48_11 C66_11 1_555 1_555
N8_11 C72_11 1_555 1_555
C64_11 C65_11 1_555 1_555
C65_11 H22_11 1_555 1_555
C66_11 C65_11 1_555 1_555
C67_11 C66_11 1_555 1_555
H23_11 C67_11 1_555 1_555
C68_11 C67_11 1_555 1_555
C69_11 C64_11 1_555 1_555
H24_11 C69_11 1_555 1_555
C70_11 C64_11 1_555 1_555
C71_11 C68_11 1_555 1_555
C72_11 N7_11 1_555 1_555
O78_6 C79_11 1_555 1_555
O86_6 C79_11 1_555 1_555
O53_11 C75_11 1_555 1_555
N9_11 C63_11 1_555 1_555
C73_11 C74_11 1_555 1_555
C74_11 H25_11 1_555 1_555
C75_11 C74_11 1_555 1_555
C76_11 C75_11 1_555 1_555
H26_11 C76_11 1_555 1_555
C77_11 C76_11 1_555 1_555
C78_11 C73_11 1_555 1_555
H27_11 C78_11 1_555 1_555
C79_11 C73_11 1_555 1_555
C80_11 O95_4 1_555 1_555
C81_11 N8_11 1_555 1_555
C59_11 C60_11 1_555 1_555
O48_11 C72_11 1_555 1_555
C68_11 C69_11 1_555 1_555
O101_4 C80_11 1_555 1_555
O53_11 C81_11 1_555 1_555
N9_11 C81_11 1_555 1_555
C77_11 C78_11 1_555 1_555
C77_11 C80_11 1_555 1_555
O7_15 H55_6 1_555 1_555
O6_16 Zn18_7 1_555 1_555
O7_16 Zn16_7 1_555 1_555
O42_25 Zn8_16 1_555 1_555
O43_25 Zn7_16 1_555 1_555
O96_12 Zn7_16 1_555 1_555
O102_12 Zn8_16 1_555 1_555
O6_16 H50_6 1_555 1_555
O7_16 H56_6 1_555 1_555
O42_25 H61_7 1_555 1_555
O6_17 Zn18_8 1_555 1_555
O7_17 Zn16_8 1_555 1_555
O42_26 Zn8_17 1_555 1_555
O43_26 Zn7_17 1_555 1_555
O82_7 C88_11 1_555 1_555
O90_7 C88_11 1_555 1_555
O96_11 C89_11 1_555 1_555
O102_11 C89_11 1_555 1_555
O58_11 C84_11 1_555 1_555
N10_11 C90_11 1_555 1_555
C82_11 C83_11 1_555 1_555
C83_11 H28_11 1_555 1_555
C84_11 C83_11 1_555 1_555
C85_11 C84_11 1_555 1_555
H29_11 C85_11 1_555 1_555
C86_11 C85_11 1_555 1_555
C87_11 C82_11 1_555 1_555
H30_11 C87_11 1_555 1_555
C88_11 C82_11 1_555 1_555
C89_11 C86_11 1_555 1_555
C90_11 O58_11 1_555 1_555
O80_4 C97_11 1_555 1_555
O88_4 C97_11 1_555 1_555
O91_10 C98_11 1_555 1_555
O97_10 C98_11 1_555 1_555
O63_11 C93_11 1_555 1_555
N11_11 C99_11 1_555 1_555
C91_11 C92_11 1_555 1_555
C92_11 H31_11 1_555 1_555
C93_11 C92_11 1_555 1_555
C94_11 C93_11 1_555 1_555
H32_11 C94_11 1_555 1_555
C95_11 C94_11 1_555 1_555
C96_11 C91_11 1_555 1_555
H33_11 C96_11 1_555 1_555
C97_11 C91_11 1_555 1_555
C98_11 C95_11 1_555 1_555
C99_11 N10_11 1_555 1_555
O77_8 C106_11 1_555 1_555
O85_8 C106_11 1_555 1_555
O66_8 Zn7_17 1_555 1_555
O67_8 Zn8_17 1_555 1_555
O68_11 C102_11 1_555 1_555
N12_11 C90_11 1_555 1_555
C100_11 C101_11 1_555 1_555
C101_11 H34_11 1_555 1_555
C102_11 C101_11 1_555 1_555
C103_11 C102_11 1_555 1_555
H35_11 C103_11 1_555 1_555
C104_11 C103_11 1_555 1_555
C105_11 C100_11 1_555 1_555
H36_11 C105_11 1_555 1_555
C106_11 C100_11 1_555 1_555
C107_11 O66_8 1_555 1_555
C108_11 N11_11 1_555 1_555
C86_11 C87_11 1_555 1_555
O63_11 C99_11 1_555 1_555
C95_11 C96_11 1_555 1_555
O67_8 C107_11 1_555 1_555
O68_11 C108_11 1_555 1_555
N12_11 C108_11 1_555 1_555
C104_11 C105_11 1_555 1_555
C104_11 C107_11 1_555 1_555
O43_26 H63_7 1_555 1_555
O6_18 Zn18_9 1_555 1_555
O7_18 Zn16_9 1_555 1_555
O42_27 Zn8_18 1_555 1_555
O43_27 Zn7_18 1_555 1_555
O91_12 Zn7_18 1_555 1_555
O97_12 Zn8_18 1_555 1_555
O6_18 H49_6 1_555 1_555
O42_27 H62_7 1_555 1_555
O43_27 H64_7 1_555 1_555
O80_2 C61_12 1_555 1_555
O88_2 C61_12 1_555 1_555
O93_4 C62_12 1_555 1_555
O99_4 C62_12 1_555 1_555
O41_12 C57_12 1_555 1_555
N7_12 C63_12 1_555 1_555
C55_12 C56_12 1_555 1_555
C56_12 H19_12 1_555 1_555
C57_12 C56_12 1_555 1_555
C58_12 C57_12 1_555 1_555
H20_12 C58_12 1_555 1_555
C59_12 C58_12 1_555 1_555
C60_12 C55_12 1_555 1_555
H21_12 C60_12 1_555 1_555
C61_12 C55_12 1_555 1_555
C62_12 C59_12 1_555 1_555
C63_12 O41_12 1_555 1_555
O79_5 C70_12 1_555 1_555
O87_5 C70_12 1_555 1_555
O96_12 C71_12 1_555 1_555
O102_12 C71_12 1_555 1_555
O48_12 C66_12 1_555 1_555
N8_12 C72_12 1_555 1_555
C64_12 C65_12 1_555 1_555
C65_12 H22_12 1_555 1_555
C66_12 C65_12 1_555 1_555
C67_12 C66_12 1_555 1_555
H23_12 C67_12 1_555 1_555
C68_12 C67_12 1_555 1_555
C69_12 C64_12 1_555 1_555
H24_12 C69_12 1_555 1_555
C70_12 C64_12 1_555 1_555
C71_12 C68_12 1_555 1_555
C72_12 N7_12 1_555 1_555
O82_5 C79_12 1_555 1_555
O90_5 C79_12 1_555 1_555
O53_12 C75_12 1_555 1_555
N9_12 C63_12 1_555 1_555
C73_12 C74_12 1_555 1_555
C74_12 H25_12 1_555 1_555
C75_12 C74_12 1_555 1_555
C76_12 C75_12 1_555 1_555
H26_12 C76_12 1_555 1_555
C77_12 C76_12 1_555 1_555
C78_12 C73_12 1_555 1_555
H27_12 C78_12 1_555 1_555
C79_12 C73_12 1_555 1_555
C80_12 O94_4 1_555 1_555
C81_12 N8_12 1_555 1_555
C59_12 C60_12 1_555 1_555
O48_12 C72_12 1_555 1_555
C68_12 C69_12 1_555 1_555
O100_4 C80_12 1_555 1_555
O53_12 C81_12 1_555 1_555
N9_12 C81_12 1_555 1_555
C77_12 C78_12 1_555 1_555
C77_12 C80_12 1_555 1_555
O81_4 C88_12 1_555 1_555
O89_4 C88_12 1_555 1_555
O91_11 C89_12 1_555 1_555
O97_11 C89_12 1_555 1_555
O58_12 C84_12 1_555 1_555
N10_12 C90_12 1_555 1_555
C82_12 C83_12 1_555 1_555
C83_12 H28_12 1_555 1_555
C84_12 C83_12 1_555 1_555
C85_12 C84_12 1_555 1_555
H29_12 C85_12 1_555 1_555
C86_12 C85_12 1_555 1_555
C87_12 C82_12 1_555 1_555
H30_12 C87_12 1_555 1_555
C88_12 C82_12 1_555 1_555
C89_12 C86_12 1_555 1_555
C90_12 O58_12 1_555 1_555
O76_8 C97_12 1_555 1_555
O84_8 C97_12 1_555 1_555
O91_12 C98_12 1_555 1_555
O97_12 C98_12 1_555 1_555
O63_12 C93_12 1_555 1_555
N11_12 C99_12 1_555 1_555
C91_12 C92_12 1_555 1_555
C92_12 H31_12 1_555 1_555
C93_12 C92_12 1_555 1_555
C94_12 C93_12 1_555 1_555
H32_12 C94_12 1_555 1_555
C95_12 C94_12 1_555 1_555
C96_12 C91_12 1_555 1_555
H33_12 C96_12 1_555 1_555
C97_12 C91_12 1_555 1_555
C98_12 C95_12 1_555 1_555
C99_12 N10_12 1_555 1_555
O77_6 C106_12 1_555 1_555
O85_6 C106_12 1_555 1_555
O68_12 C102_12 1_555 1_555
N12_12 C90_12 1_555 1_555
C100_12 C101_12 1_555 1_555
C101_12 H34_12 1_555 1_555
C102_12 C101_12 1_555 1_555
C103_12 C102_12 1_555 1_555
H35_12 C103_12 1_555 1_555
C104_12 C103_12 1_555 1_555
C105_12 C100_12 1_555 1_555
H36_12 C105_12 1_555 1_555
C106_12 C100_12 1_555 1_555
C107_12 O92_4 1_555 1_555
C108_12 N11_12 1_555 1_555
C86_12 C87_12 1_555 1_555
O63_12 C99_12 1_555 1_555
C95_12 C96_12 1_555 1_555
O98_4 C107_12 1_555 1_555
O68_12 C108_12 1_555 1_555
N12_12 C108_12 1_555 1_555
C104_12 C105_12 1_555 1_555
C104_12 C107_12 1_555 1_555
O42_24 H50_7 1_555 1_555
O43_24 H56_7 1_555 1_555
O6_15 H61_8 1_555 1_555
O43_25 H55_7 1_555 1_555
O42_26 H49_7 1_555 1_555
O6_17 H62_8 1_555 1_555
O7_17 H64_8 1_555 1_555
O7_18 H63_8 1_555 1_555
O7_15 H58_6 1_555 1_555
O6_15 H60_6 1_555 1_555
O6_16 H59_6 1_555 1_555
O7_17 H57_6 1_555 1_555
O43_24 H57_7 1_555 1_555
O43_26 H58_7 1_555 1_555
O42_26 H60_7 1_555 1_555
O42_27 H59_7 1_555 1_555
O42_24 H61_9 1_555 1_555
O42_25 H62_9 1_555 1_555
O43_25 H64_9 1_555 1_555
O43_27 H63_9 1_555 1_555
O7_16 H55_8 1_555 1_555
O6_17 H49_8 1_555 1_555
O6_18 H50_8 1_555 1_555
O7_18 H56_8 1_555 1_555

#END
