
###############################################################################
#
# This file contains modified crystal structure data generated from the
# MOF subset of the Cambridge Structural Database (CSD) v543 
# hosted by the Cambridge Crystallographic Data Centre (CCDC).
#
# This work is licensed under the Creative Commons
# Attribution-NonCommercial-ShareAlike 4.0 International License.
# To view a copy of this license, visit
# http://creativecommons.org/licenses/by-nc-sa/4.0/
# or send a letter to
# Creative Commons, PO Box 1866, Mountain View, CA 94042, USA.
#
# CIF created using the CSD Python API on 29 September 2022
# The structure has been converted into the P1 space group
# The structure has a 3D framework
# The original CSD entry BIHBAX is in the tetragonal crystal system
# The original CSD entry BIHBAX is in a Sohncke space group
# The framework has been calculated to contain at least 10.0% void space
# The void calculation uses a probe of radius 1.32A, grid spacing 0.4
# The framework is charged, counterions have been retained in the structure
# H atom positions have been added when not included in the experimental data
#
###############################################################################

data_BIHBAX
_chemical_formula_moiety         '(C288 H240 Ag18 Cr24 N48 O128 29+)n'
_symmetry_cell_setting           triclinic
_symmetry_space_group_name_H-M   'P 1'
_symmetry_Int_Tables_number      1
_space_group_name_Hall           'P 1'
loop_
_symmetry_equiv_pos_site_id
_symmetry_equiv_pos_as_xyz
1 x,y,z
_cell_length_a                   24.620(6)
_cell_length_b                   24.620(6)
_cell_length_c                   83.68(2)
_cell_angle_alpha                90
_cell_angle_beta                 90
_cell_angle_gamma                90
_cell_volume                     50722.2
loop_
_atom_site_label
_atom_site_type_symbol
_atom_site_fract_x
_atom_site_fract_y
_atom_site_fract_z
Ag1 Ag 0.00456(13) 0.00456(13) 0.0000
Ag4 Ag 0.06967(15) 0.51908(16) 0.01079(5)
C16 C 0.0079(6) 0.4383(8) 0.0293(2)
H10 H 0.0372 0.4480 0.0361
N3 N 0.0041(8) 0.4617(6) 0.0149(3)
Ag1_2 Ag 0.00456(13) 0.00456(13) 1.0000
N16 N 0.1259(6) 0.5670(7) 0.9980(2)
N17 N 0.0673(5) 0.9529(6) 0.9929(2)
N15 N 0.5670(7) 0.1259(6) 0.0020(2)
Ag6 Ag 0.51908(16) 0.06967(15) 0.98921(5)
C52 C 0.4383(8) 0.0079(6) 0.9707(2)
H34 H 0.4480 0.0372 0.9639
N9 N 0.4617(6) 0.0041(8) 0.9851(3)
Cr1 Cr 0.78735(19) 0.29120(19) 0.01820(5)
Cr2 Cr 0.8441(2) 0.27463(19) 0.05395(5)
Cr3 Cr 0.7138(2) 0.2965(2) 0.05030(6)
Ag2 Ag 0.59376(14) 0.59376(14) 0.0000
Ag3 Ag 0.79051(18) 0.51751(15) 0.13078(4)
O2 O 0.6366(10) 0.3139(10) 0.0622(2)
O3 O 0.9122(6) 0.2563(5) 0.06888(15)
O4 O 0.7742(8) 0.2886(6) 0.0400(2)
O5 O 0.7447(7) 0.3592(7) 0.01856(18)
O6 O 0.6902(6) 0.3604(6) 0.03852(17)
C1 C 0.7055(9) 0.3795(7) 0.0258(3)
C2 C 0.6793(6) 0.4302(4) 0.01985(17)
C3 C 0.6403(6) 0.4569(6) 0.02904(15)
H1 H 0.6294 0.4424 0.0391
C4 C 0.6175(6) 0.5050(6) 0.0235(2)
H2 H 0.5901 0.5221 0.0296
N1 N 0.6327(7) 0.5279(5) 0.0097(2)
C5 C 0.6710(7) 0.5030(6) 0.00103(16)
C6 C 0.6947(6) 0.4542(6) 0.00566(16)
O7 O 0.7413(7) 0.3343(7) 0.0676(2)
O8 O 0.8291(7) 0.3301(6) 0.07075(16)
C7 C 0.7828(8) 0.3495(6) 0.07345(16)
C8 C 0.7837(7) 0.3952(5) 0.08484(14)
C9 C 0.7382(6) 0.4271(6) 0.08813(17)
H5 H 0.7062 0.4234 0.0819
C10 C 0.7401(6) 0.4644(6) 0.10060(18)
H6 H 0.7094 0.4868 0.1025
N2 N 0.7837(7) 0.4699(6) 0.11000(16)
C11 C 0.8268(6) 0.4385(7) 0.10709(16)
H7 H 0.8577 0.4416 0.1138
C12 C 0.8284(6) 0.4013(6) 0.09460(16)
H8 H 0.8601 0.3801 0.0928
O9 O 0.8891(6) 0.3261(6) 0.04399(17)
O10 O 0.8486(7) 0.3331(7) 0.02013(19)
C13 C 0.8853(8) 0.3452(7) 0.0305(2)
C14 C 0.9263(7) 0.3866(6) 0.0250(2)
C15 C 0.9705(8) 0.4001(8) 0.03462(16)
H9 H 0.9751 0.3832 0.0448
C17 C 0.9624(9) 0.4479(7) 0.00553(18)
C18 C 0.9227(7) 0.4110(8) 0.01022(19)
H12 H 0.8933 0.4028 0.0033
O11 O 0.7187(7) 0.2341(7) 0.06426(17)
O12 O 0.8029(8) 0.2208(8) 0.06520(18)
C19 C 0.7565(9) 0.2097(6) 0.06902(19)
C20 C 0.7504(7) 0.1613(6) 0.07903(17)
C21 C 0.6995(6) 0.1461(7) 0.0848(2)
H13 H 0.6681 0.1663 0.0820
C22 C 0.6950(8) 0.1012(8) 0.0948(2)
H14 H 0.6603 0.0920 0.0990
N4 N 0.7378(11) 0.0706(6) 0.09876(17)
C23 C 0.7864(9) 0.0844(6) 0.0929(2)
H15 H 0.8169 0.0624 0.0955
C24 C 0.7942(6) 0.1295(7) 0.0832(2)
H16 H 0.8296 0.1383 0.0794
O13 O 0.7245(6) 0.2480(6) 0.01400(15)
O14 O 0.6812(7) 0.2463(6) 0.0361(2)
C25 C 0.6860(7) 0.2320(6) 0.0221(2)
C26 C 0.6446(6) 0.1955(6) 0.01528(16)
C29 C 0.5619(6) 0.1447(7) 0.0169(2)
H19 H 0.5314 0.1336 0.0230
C30 C 0.5994(6) 0.1797(7) 0.02384(15)
H20 H 0.5940 0.1926 0.0344
O15 O 0.8272(6) 0.2241(6) 0.01615(16)
O16 O 0.8662(6) 0.2129(6) 0.03943(19)
C31 C 0.8590(7) 0.2002(6) 0.0254(2)
C32 C 0.8909(5) 0.1535(4) 0.01888(18)
C33 C 0.9320(6) 0.1299(7) 0.02801(13)
H21 H 0.9391 0.1426 0.0385
C34 C 0.9625(5) 0.0877(6) 0.0216(2)
H22 H 0.9912 0.0727 0.0278
N6 N 0.9529(6) 0.0673(5) 0.0071(2)
C36 C 0.8813(5) 0.1322(6) 0.00390(17)
O17 O 0.2995(5) 0.8024(5) 0.00569(14)
H27 H 0.5193 0.6826 0.0087
H28 H 0.4375 0.7213 0.0009
H35 H 0.4639 0.9598 0.0048
C63 C 0.1748(6) 0.6505(6) 0.00014(16)
H41 H 0.1838 0.6817 0.0063
C64 C 0.1410(6) 0.6107(8) 0.00642(16)
H42 H 0.1282 0.6146 0.0171
C71 C 0.0890(6) 0.9127(7) 0.00153(15)
H47 H 0.0743 0.9052 0.0118
H48 H 0.1469 0.8535 0.0027
Ag9 Ag 0.70949(18) 0.01751(15) 0.11922(4)
N14 N 0.7622(11) 0.5706(6) 0.15124(17)
H49 H 0.9236 0.218093 0.0670906
H50 H 0.942743 0.281044 0.0662224
H53 H 0.607675 0.31864 0.0540483
H54 H 0.626979 0.283236 0.06937
H59 H 0.315856 0.838884 0.00725175
H60 H 0.263261 0.801212 0.0108878
Ag2_2 Ag 0.59376(14) 0.59376(14) 1.0000
O1 O 0.8024(5) 0.2995(5) 0.99431(14)
H3 H 0.6826 0.5193 0.9913
H4 H 0.7213 0.4375 0.9991
H11 H 0.9598 0.4639 0.9952
C27 C 0.6505(6) 0.1748(6) 0.99986(16)
H17 H 0.6817 0.1838 0.9937
C28 C 0.6107(8) 0.1410(6) 0.99358(16)
H18 H 0.6146 0.1282 0.9829
C35 C 0.9127(7) 0.0890(6) 0.99847(15)
H23 H 0.9052 0.0743 0.9882
H24 H 0.8535 0.1469 0.9973
Cr4 Cr 0.29120(19) 0.78735(19) 0.98180(5)
Cr5 Cr 0.27463(19) 0.8441(2) 0.94605(5)
Cr6 Cr 0.2965(2) 0.7138(2) 0.94970(6)
Ag5 Ag 0.51751(15) 0.79051(18) 0.86922(4)
O18 O 0.3139(10) 0.6366(10) 0.9378(2)
O19 O 0.2563(5) 0.9122(6) 0.93112(15)
O20 O 0.2886(6) 0.7742(8) 0.9600(2)
O21 O 0.3592(7) 0.7447(7) 0.98144(18)
O22 O 0.3604(6) 0.6902(6) 0.96148(17)
C37 C 0.3795(7) 0.7055(9) 0.9742(3)
C38 C 0.4302(4) 0.6793(6) 0.98015(17)
C39 C 0.4569(6) 0.6403(6) 0.97096(15)
H25 H 0.4424 0.6294 0.9609
C40 C 0.5050(6) 0.6175(6) 0.9765(2)
H26 H 0.5221 0.5901 0.9704
N7 N 0.5279(5) 0.6327(7) 0.9903(2)
C41 C 0.5030(6) 0.6710(7) 0.99897(16)
C42 C 0.4542(6) 0.6947(6) 0.99434(16)
O23 O 0.3343(7) 0.7413(7) 0.9324(2)
O24 O 0.3301(6) 0.8291(7) 0.92925(16)
C43 C 0.3495(6) 0.7828(8) 0.92655(16)
C44 C 0.3952(5) 0.7837(7) 0.91516(14)
C45 C 0.4271(6) 0.7382(6) 0.91187(17)
H29 H 0.4234 0.7062 0.9181
C46 C 0.4644(6) 0.7401(6) 0.89940(18)
H30 H 0.4868 0.7094 0.8975
N8 N 0.4699(6) 0.7837(7) 0.89000(16)
C47 C 0.4385(7) 0.8268(6) 0.89291(16)
H31 H 0.4416 0.8577 0.8862
C48 C 0.4013(6) 0.8284(6) 0.90540(16)
H32 H 0.3801 0.8601 0.9072
O25 O 0.3261(6) 0.8891(6) 0.95601(17)
O26 O 0.3331(7) 0.8486(7) 0.97987(19)
C49 C 0.3452(7) 0.8853(8) 0.9695(2)
C50 C 0.3866(6) 0.9263(7) 0.9750(2)
C51 C 0.4001(8) 0.9705(8) 0.96538(16)
H33 H 0.3832 0.9751 0.9552
C53 C 0.4479(7) 0.9624(9) 0.99447(18)
C54 C 0.4110(8) 0.9227(7) 0.98978(19)
H36 H 0.4028 0.8933 0.9967
O27 O 0.2341(7) 0.7187(7) 0.93574(17)
O28 O 0.2208(8) 0.8029(8) 0.93480(18)
C55 C 0.2097(6) 0.7565(9) 0.93098(19)
C56 C 0.1613(6) 0.7504(7) 0.92097(17)
C57 C 0.1461(7) 0.6995(6) 0.9152(2)
H37 H 0.1663 0.6681 0.9180
C58 C 0.1012(8) 0.6950(8) 0.9052(2)
H38 H 0.0920 0.6603 0.9010
N10 N 0.0706(6) 0.7378(11) 0.90124(17)
C59 C 0.0844(6) 0.7864(9) 0.9071(2)
H39 H 0.0624 0.8169 0.9045
C60 C 0.1295(7) 0.7942(6) 0.9168(2)
H40 H 0.1383 0.8296 0.9206
O29 O 0.2480(6) 0.7245(6) 0.98600(15)
O30 O 0.2463(6) 0.6812(7) 0.9639(2)
C61 C 0.2320(6) 0.6860(7) 0.9779(2)
C62 C 0.1955(6) 0.6446(6) 0.98472(16)
C65 C 0.1447(7) 0.5619(6) 0.9831(2)
H43 H 0.1336 0.5314 0.9770
C66 C 0.1797(7) 0.5994(6) 0.97616(15)
H44 H 0.1926 0.5940 0.9656
O31 O 0.2241(6) 0.8272(6) 0.98385(16)
O32 O 0.2129(6) 0.8662(6) 0.96057(19)
C67 C 0.2002(6) 0.8590(7) 0.9746(2)
C68 C 0.1535(4) 0.8909(5) 0.98112(18)
C69 C 0.1299(7) 0.9320(6) 0.97199(13)
H45 H 0.1426 0.9391 0.9615
C70 C 0.0877(6) 0.9625(5) 0.9784(2)
H46 H 0.0727 0.9912 0.9722
C72 C 0.1322(6) 0.8813(5) 0.99610(17)
Ag8 Ag 0.01751(15) 0.70949(18) 0.88078(4)
N13 N 0.5706(6) 0.7622(11) 0.84876(17)
H51 H 0.838884 0.315856 0.992748
H52 H 0.801212 0.263261 0.989112
H55 H 0.31864 0.607675 0.945952
H56 H 0.283236 0.626979 0.93063
H57 H 0.218093 0.9236 0.932909
H58 H 0.281044 0.942743 0.933778
Cr1_2 Cr 0.21265(19) 0.70880(19) 0.51820(5)
Cr2_2 Cr 0.1559(2) 0.72537(19) 0.55395(5)
Cr3_2 Cr 0.2862(2) 0.7035(2) 0.55030(6)
Ag2_3 Ag 0.40624(14) 0.40624(14) 0.5000
Ag3_2 Ag 0.20949(18) 0.48249(15) 0.63078(4)
O1_2 O 0.1976(5) 0.7005(5) 0.49431(14)
O2_2 O 0.3634(10) 0.6861(10) 0.5622(2)
O3_2 O 0.0878(6) 0.7437(5) 0.56888(15)
O4_2 O 0.2258(8) 0.7114(6) 0.5400(2)
O5_2 O 0.2553(7) 0.6408(7) 0.51856(18)
O6_2 O 0.3098(6) 0.6396(6) 0.53852(17)
C1_2 C 0.2945(9) 0.6205(7) 0.5258(3)
C2_2 C 0.3207(6) 0.5698(4) 0.51985(17)
C3_2 C 0.3597(6) 0.5431(6) 0.52904(15)
H1_2 H 0.3706 0.5576 0.5391
C4_2 C 0.3825(6) 0.4950(6) 0.5235(2)
H2_2 H 0.4099 0.4779 0.5296
N1_2 N 0.3673(7) 0.4721(5) 0.5097(2)
C5_2 C 0.3290(7) 0.4970(6) 0.50103(16)
H3_2 H 0.3174 0.4807 0.4913
C6_2 C 0.3053(6) 0.5458(6) 0.50566(16)
H4_2 H 0.2787 0.5625 0.4991
O7_2 O 0.2587(7) 0.6657(7) 0.5676(2)
O8_2 O 0.1709(7) 0.6699(6) 0.57075(16)
C7_2 C 0.2172(8) 0.6505(6) 0.57345(16)
C8_2 C 0.2163(7) 0.6048(5) 0.58484(14)
C9_2 C 0.2618(6) 0.5729(6) 0.58813(17)
H5_2 H 0.2938 0.5766 0.5819
C10_2 C 0.2599(6) 0.5356(6) 0.60060(18)
H6_2 H 0.2906 0.5132 0.6025
N2_2 N 0.2163(7) 0.5301(6) 0.61000(16)
C11_2 C 0.1732(6) 0.5615(7) 0.60709(16)
H7_2 H 0.1423 0.5584 0.6138
C12_2 C 0.1716(6) 0.5987(6) 0.59460(16)
H8_2 H 0.1399 0.6199 0.5928
O9_2 O 0.1109(6) 0.6739(6) 0.54399(17)
O10_2 O 0.1514(7) 0.6669(7) 0.52013(19)
C13_2 C 0.1147(8) 0.6548(7) 0.5305(2)
C14_2 C 0.0737(7) 0.6134(6) 0.5250(2)
C15_2 C 0.0295(8) 0.5999(8) 0.53462(16)
H9_2 H 0.0249 0.6168 0.5448
C17_2 C 0.0376(9) 0.5521(7) 0.50553(18)
H11_2 H 0.0402 0.5361 0.4952
C18_2 C 0.0773(7) 0.5890(8) 0.51022(19)
H12_2 H 0.1067 0.5972 0.5033
O11_2 O 0.2813(7) 0.7659(7) 0.56426(17)
O12_2 O 0.1971(8) 0.7792(8) 0.56520(18)
C19_2 C 0.2435(9) 0.7903(6) 0.56902(19)
C20_2 C 0.2496(7) 0.8387(6) 0.57903(17)
C21_2 C 0.3005(6) 0.8539(7) 0.5848(2)
H13_2 H 0.3319 0.8337 0.5820
C22_2 C 0.3050(8) 0.8988(8) 0.5948(2)
H14_2 H 0.3397 0.9080 0.5990
N4_2 N 0.2622(11) 0.9294(6) 0.59876(17)
C23_2 C 0.2136(9) 0.9156(6) 0.5929(2)
H15_2 H 0.1831 0.9376 0.5955
C24_2 C 0.2058(6) 0.8705(7) 0.5832(2)
H16_2 H 0.1704 0.8617 0.5794
O13_2 O 0.2755(6) 0.7520(6) 0.51400(15)
O14_2 O 0.3188(7) 0.7537(6) 0.5361(2)
C25_2 C 0.3140(7) 0.7680(6) 0.5221(2)
C26_2 C 0.3554(6) 0.8045(6) 0.51528(16)
C27_2 C 0.3495(6) 0.8252(6) 0.49986(16)
H17_2 H 0.3183 0.8162 0.4937
C28_2 C 0.3893(8) 0.8590(6) 0.49358(16)
H18_2 H 0.3854 0.8718 0.4829
N5 N 0.4330(7) 0.8741(6) 0.5020(2)
C29_2 C 0.4381(6) 0.8553(7) 0.5169(2)
H19_2 H 0.4686 0.8664 0.5230
C30_2 C 0.4006(6) 0.8203(7) 0.52384(15)
H20_2 H 0.4060 0.8074 0.5344
O15_2 O 0.1728(6) 0.7759(6) 0.51615(16)
O16_2 O 0.1338(6) 0.7871(6) 0.53943(19)
C31_2 C 0.1410(7) 0.7998(6) 0.5254(2)
C32_2 C 0.1091(5) 0.8465(4) 0.51888(18)
C33_2 C 0.0680(6) 0.8701(7) 0.52801(13)
H21_2 H 0.0609 0.8574 0.5385
C34_2 C 0.0375(5) 0.9123(6) 0.5216(2)
H22_2 H 0.0088 0.9273 0.5278
N6_2 N 0.0471(6) 0.9327(5) 0.5071(2)
C35_2 C 0.0873(7) 0.9110(6) 0.49847(15)
H23_2 H 0.0948 0.9257 0.4882
C36_2 C 0.1187(5) 0.8678(6) 0.50390(17)
H24_2 H 0.1465 0.8531 0.4973
Cr4_2 Cr 0.70880(19) 0.21265(19) 0.48180(5)
Cr5_2 Cr 0.72537(19) 0.1559(2) 0.44605(5)
Cr6_2 Cr 0.7035(2) 0.2862(2) 0.44970(6)
Ag5_2 Ag 0.48249(15) 0.20949(18) 0.36922(4)
O17_2 O 0.7005(5) 0.1976(5) 0.50569(14)
O18_2 O 0.6861(10) 0.3634(10) 0.4378(2)
O19_2 O 0.7437(5) 0.0878(6) 0.43112(15)
O20_2 O 0.7114(6) 0.2258(8) 0.4600(2)
O21_2 O 0.6408(7) 0.2553(7) 0.48144(18)
O22_2 O 0.6396(6) 0.3098(6) 0.46148(17)
C37_2 C 0.6205(7) 0.2945(9) 0.4742(3)
C38_2 C 0.5698(4) 0.3207(6) 0.48015(17)
C39_2 C 0.5431(6) 0.3597(6) 0.47096(15)
H25_2 H 0.5576 0.3706 0.4609
C40_2 C 0.4950(6) 0.3825(6) 0.4765(2)
H26_2 H 0.4779 0.4099 0.4704
N7_2 N 0.4721(5) 0.3673(7) 0.4903(2)
C41_2 C 0.4970(6) 0.3290(7) 0.49897(16)
H27_2 H 0.4807 0.3174 0.5087
C42_2 C 0.5458(6) 0.3053(6) 0.49434(16)
H28_2 H 0.5625 0.2787 0.5009
O23_2 O 0.6657(7) 0.2587(7) 0.4324(2)
O24_2 O 0.6699(6) 0.1709(7) 0.42925(16)
C43_2 C 0.6505(6) 0.2172(8) 0.42655(16)
C44_2 C 0.6048(5) 0.2163(7) 0.41516(14)
C45_2 C 0.5729(6) 0.2618(6) 0.41187(17)
H29_2 H 0.5766 0.2938 0.4181
C46_2 C 0.5356(6) 0.2599(6) 0.39940(18)
H30_2 H 0.5132 0.2906 0.3975
N8_2 N 0.5301(6) 0.2163(7) 0.39000(16)
C47_2 C 0.5615(7) 0.1732(6) 0.39291(16)
H31_2 H 0.5584 0.1423 0.3862
C48_2 C 0.5987(6) 0.1716(6) 0.40540(16)
H32_2 H 0.6199 0.1399 0.4072
O25_2 O 0.6739(6) 0.1109(6) 0.45601(17)
O26_2 O 0.6669(7) 0.1514(7) 0.47987(19)
C49_2 C 0.6548(7) 0.1147(8) 0.4695(2)
C50_2 C 0.6134(6) 0.0737(7) 0.4750(2)
C51_2 C 0.5999(8) 0.0295(8) 0.46538(16)
H33_2 H 0.6168 0.0249 0.4552
C53_2 C 0.5521(7) 0.0376(9) 0.49447(18)
H35_2 H 0.5361 0.0402 0.5048
C54_2 C 0.5890(8) 0.0773(7) 0.48978(19)
H36_2 H 0.5972 0.1067 0.4967
O27_2 O 0.7659(7) 0.2813(7) 0.43574(17)
O28_2 O 0.7792(8) 0.1971(8) 0.43480(18)
C55_2 C 0.7903(6) 0.2435(9) 0.43098(19)
C56_2 C 0.8387(6) 0.2496(7) 0.42097(17)
C57_2 C 0.8539(7) 0.3005(6) 0.4152(2)
H37_2 H 0.8337 0.3319 0.4180
C58_2 C 0.8988(8) 0.3050(8) 0.4052(2)
H38_2 H 0.9080 0.3397 0.4010
N10_2 N 0.9294(6) 0.2622(11) 0.40124(17)
C59_2 C 0.9156(6) 0.2136(9) 0.4071(2)
H39_2 H 0.9376 0.1831 0.4045
C60_2 C 0.8705(7) 0.2058(6) 0.4168(2)
H40_2 H 0.8617 0.1704 0.4206
O29_2 O 0.7520(6) 0.2755(6) 0.48600(15)
O30_2 O 0.7537(6) 0.3188(7) 0.4639(2)
C61_2 C 0.7680(6) 0.3140(7) 0.4779(2)
C62_2 C 0.8045(6) 0.3554(6) 0.48472(16)
C63_2 C 0.8252(6) 0.3495(6) 0.50014(16)
H41_2 H 0.8162 0.3183 0.5063
C64_2 C 0.8590(6) 0.3893(8) 0.50642(16)
H42_2 H 0.8718 0.3854 0.5171
N11 N 0.8741(6) 0.4330(7) 0.4980(2)
C65_2 C 0.8553(7) 0.4381(6) 0.4831(2)
H43_2 H 0.8664 0.4686 0.4770
C66_2 C 0.8203(7) 0.4006(6) 0.47616(15)
H44_2 H 0.8074 0.4060 0.4656
O31_2 O 0.7759(6) 0.1728(6) 0.48385(16)
O32_2 O 0.7871(6) 0.1338(6) 0.46057(19)
C67_2 C 0.7998(6) 0.1410(7) 0.4746(2)
C68_2 C 0.8465(4) 0.1091(5) 0.48112(18)
C69_2 C 0.8701(7) 0.0680(6) 0.47199(13)
H45_2 H 0.8574 0.0609 0.4615
C70_2 C 0.9123(6) 0.0375(5) 0.4784(2)
H46_2 H 0.9273 0.0088 0.4722
N12 N 0.9327(5) 0.0471(6) 0.4929(2)
C71_2 C 0.9110(6) 0.0873(7) 0.50153(15)
H47_2 H 0.9257 0.0948 0.5118
C72_2 C 0.8678(6) 0.1187(5) 0.49610(17)
H48_2 H 0.8531 0.1465 0.5027
Ag8_2 Ag 0.98249(15) 0.29051(18) 0.38078(4)
Ag9_2 Ag 0.29051(18) 0.98249(15) 0.61922(4)
Ag10 Ag 0.93033(15) 0.48092(16) 0.51079(5)
Ag11 Ag 0.48092(16) 0.93033(15) 0.48921(5)
N13_2 N 0.4294(6) 0.2378(11) 0.34876(17)
N14_2 N 0.2378(11) 0.4294(6) 0.65124(17)
H49_2 H 0.0763996 0.781907 0.567091
H50_2 H 0.0572565 0.718956 0.566222
H51_2 H 0.161116 0.684144 0.492748
H52_2 H 0.198788 0.736739 0.489112
H53_2 H 0.392325 0.68136 0.554048
H54_2 H 0.373021 0.716764 0.56937
H55_2 H 0.68136 0.392325 0.445952
H56_2 H 0.716764 0.373021 0.43063
H57_2 H 0.781907 0.0763996 0.432909
H58_2 H 0.718956 0.0572565 0.433778
H59_2 H 0.684144 0.161116 0.507252
H60_2 H 0.736739 0.198788 0.510888
C52_2 C 0.5617(8) 0.9921(6) 0.4707(2)
H34_2 H 0.5520 0.9628 0.4639
N9_2 N 0.5383(6) 0.9959(8) 0.4851(3)
Ag7 Ag 0.99544(13) 0.99544(13) 0.5000
C16_2 C 0.9921(6) 0.5617(8) 0.5293(2)
H10_2 H 0.9628 0.5520 0.5361
N3_2 N 0.9959(8) 0.5383(6) 0.5149(3)
Cr1_3 Cr 0.20880(19) 0.28735(19) 0.26820(5)
Cr2_3 Cr 0.22537(19) 0.3441(2) 0.30395(5)
Cr3_3 Cr 0.2035(2) 0.2138(2) 0.30030(6)
Ag1_3 Ag 0.49544(13) 0.50456(13) 0.2500
O1_3 O 0.2005(5) 0.3024(5) 0.24431(14)
O2_3 O 0.1861(10) 0.1366(10) 0.3122(2)
O3_3 O 0.2437(5) 0.4122(6) 0.31888(15)
O4_3 O 0.2114(6) 0.2742(8) 0.2900(2)
O5_3 O 0.1408(7) 0.2447(7) 0.26856(18)
O6_3 O 0.1396(6) 0.1902(6) 0.28852(17)
C1_3 C 0.1205(7) 0.2055(9) 0.2758(3)
C2_3 C 0.0698(4) 0.1793(6) 0.26985(17)
C3_3 C 0.0431(6) 0.1403(6) 0.27904(15)
H1_3 H 0.0576 0.1294 0.2891
C6_3 C 0.0458(6) 0.1947(6) 0.25566(16)
H4_3 H 0.0625 0.2213 0.2491
O7_3 O 0.1657(7) 0.2413(7) 0.3176(2)
O8_3 O 0.1699(6) 0.3291(7) 0.32075(16)
C7_3 C 0.1505(6) 0.2828(8) 0.32345(16)
C8_3 C 0.1048(5) 0.2837(7) 0.33484(14)
C9_3 C 0.0729(6) 0.2382(6) 0.33813(17)
H5_3 H 0.0766 0.2062 0.3319
C10_3 C 0.0356(6) 0.2401(6) 0.35060(18)
H6_3 H 0.0132 0.2094 0.3525
N2_3 N 0.0301(6) 0.2837(7) 0.36000(16)
C11_3 C 0.0615(7) 0.3268(6) 0.35709(16)
H7_3 H 0.0584 0.3577 0.3638
C12_3 C 0.0987(6) 0.3284(6) 0.34460(16)
H8_3 H 0.1199 0.3601 0.3428
O9_3 O 0.1739(6) 0.3891(6) 0.29399(17)
O10_3 O 0.1669(7) 0.3486(7) 0.27013(19)
C13_3 C 0.1548(7) 0.3853(8) 0.2805(2)
C14_3 C 0.1134(6) 0.4263(7) 0.2750(2)
C15_3 C 0.0999(8) 0.4705(8) 0.28462(16)
H9_3 H 0.1168 0.4751 0.2948
C16_3 C 0.0617(8) 0.5079(6) 0.2793(2)
H10_3 H 0.0520 0.5372 0.2861
N3_3 N 0.0383(6) 0.5041(8) 0.2649(3)
C17_3 C 0.0521(7) 0.4624(9) 0.25553(18)
H11_3 H 0.0361 0.4598 0.2452
C18_3 C 0.0890(8) 0.4227(7) 0.26022(19)
H12_3 H 0.0972 0.3933 0.2533
O11_3 O 0.2659(7) 0.2187(7) 0.31426(17)
O12_3 O 0.2792(8) 0.3029(8) 0.31520(18)
C19_3 C 0.2903(6) 0.2565(9) 0.31902(19)
C20_3 C 0.3387(6) 0.2504(7) 0.32903(17)
C21_3 C 0.3539(7) 0.1995(6) 0.3348(2)
H13_3 H 0.3337 0.1681 0.3320
C22_3 C 0.3988(8) 0.1950(8) 0.3448(2)
H14_3 H 0.4080 0.1603 0.3490
C23_3 C 0.4156(6) 0.2864(9) 0.3429(2)
H15_3 H 0.4376 0.3169 0.3455
C24_3 C 0.3705(7) 0.2942(6) 0.3332(2)
H16_3 H 0.3617 0.3296 0.3294
O13_3 O 0.2520(6) 0.2245(6) 0.26400(15)
O14_3 O 0.2537(6) 0.1812(7) 0.2861(2)
C25_3 C 0.2680(6) 0.1860(7) 0.2721(2)
C26_3 C 0.3045(6) 0.1446(6) 0.26528(16)
C27_3 C 0.3252(6) 0.1505(6) 0.24986(16)
H17_3 H 0.3162 0.1817 0.2437
C28_3 C 0.3590(6) 0.1107(8) 0.24358(16)
H18_3 H 0.3718 0.1146 0.2329
N5_2 N 0.3741(6) 0.0670(7) 0.2520(2)
C29_3 C 0.3553(7) 0.0619(6) 0.2669(2)
H19_3 H 0.3664 0.0314 0.2730
C30_3 C 0.3203(7) 0.0994(6) 0.27384(15)
H20_3 H 0.3074 0.0940 0.2844
O15_3 O 0.2759(6) 0.3272(6) 0.26615(16)
O16_3 O 0.2871(6) 0.3662(6) 0.28943(19)
C31_3 C 0.2998(6) 0.3590(7) 0.2754(2)
C32_3 C 0.3465(4) 0.3909(5) 0.26888(18)
C33_3 C 0.3701(7) 0.4320(6) 0.27801(13)
H21_3 H 0.3574 0.4391 0.2885
C34_3 C 0.4123(6) 0.4625(5) 0.2716(2)
H22_3 H 0.4273 0.4912 0.2778
N6_3 N 0.4327(5) 0.4529(6) 0.2571(2)
C35_3 C 0.4110(6) 0.4127(7) 0.24847(15)
H23_3 H 0.4257 0.4052 0.2382
C36_3 C 0.3678(6) 0.3813(5) 0.25390(17)
H24_3 H 0.3531 0.3535 0.2473
Ag11_2 Ag 0.43033(15) 0.01908(16) 0.23921(5)
N17_2 N 0.5471(6) 0.5673(5) 0.2429(2)
H49_3 H 0.281907 0.4236 0.317091
H50_3 H 0.218956 0.442743 0.316222
H51_3 H 0.184144 0.338884 0.242748
H52_3 H 0.236739 0.301212 0.239112
H53_3 H 0.18136 0.107675 0.304048
H54_3 H 0.216764 0.126979 0.31937
Ag2_4 Ag 0.90624(14) 0.09376(14) 0.2500
Ag4_2 Ag 0.98092(16) 0.56967(15) 0.26079(5)
C4_3 C 0.9950(6) 0.1175(6) 0.2735(2)
H2_3 H 0.9779 0.0901 0.2796
N1_3 N 0.9721(5) 0.1327(7) 0.2597(2)
C5_3 C 0.9970(6) 0.1710(7) 0.25103(16)
H3_3 H 0.9807 0.1826 0.2413
C40_3 C 0.8825(6) 0.0050(6) 0.2265(2)
H26_3 H 0.9099 0.0221 0.2204
N7_3 N 0.8673(7) 0.0279(5) 0.2403(2)
C41_3 C 0.8290(7) 0.0030(6) 0.24897(16)
H27_3 H 0.8174 0.0193 0.2587
N16_2 N 0.9330(7) 0.6259(6) 0.2480(2)
Cr4_3 Cr 0.71265(19) 0.79120(19) 0.23180(5)
Cr5_3 Cr 0.6559(2) 0.77463(19) 0.19605(5)
Cr6_3 Cr 0.7862(2) 0.7965(2) 0.19970(6)
O17_3 O 0.6976(5) 0.7995(5) 0.25569(14)
O18_3 O 0.8634(10) 0.8139(10) 0.1878(2)
O19_3 O 0.5878(6) 0.7563(5) 0.18112(15)
O20_3 O 0.7258(8) 0.7886(6) 0.2100(2)
O21_3 O 0.7553(7) 0.8592(7) 0.23144(18)
O22_3 O 0.8098(6) 0.8604(6) 0.21148(17)
C37_3 C 0.7945(9) 0.8795(7) 0.2242(3)
C38_3 C 0.8207(6) 0.9302(4) 0.23015(17)
C39_3 C 0.8597(6) 0.9569(6) 0.22096(15)
H25_3 H 0.8706 0.9424 0.2109
C42_3 C 0.8053(6) 0.9542(6) 0.24434(16)
H28_3 H 0.7787 0.9375 0.2509
O23_3 O 0.7587(7) 0.8343(7) 0.1824(2)
O24_3 O 0.6709(7) 0.8301(6) 0.17925(16)
C43_3 C 0.7172(8) 0.8495(6) 0.17655(16)
C44_3 C 0.7163(7) 0.8952(5) 0.16516(14)
C45_3 C 0.7618(6) 0.9271(6) 0.16187(17)
H29_3 H 0.7938 0.9234 0.1681
C46_3 C 0.7599(6) 0.9644(6) 0.14940(18)
H30_3 H 0.7906 0.9868 0.1475
N8_3 N 0.7163(7) 0.9699(6) 0.14000(16)
C47_3 C 0.6732(6) 0.9385(7) 0.14291(16)
H31_3 H 0.6423 0.9416 0.1362
C48_3 C 0.6716(6) 0.9013(6) 0.15540(16)
H32_3 H 0.6399 0.8801 0.1572
O25_3 O 0.6109(6) 0.8261(6) 0.20601(17)
O26_3 O 0.6514(7) 0.8331(7) 0.22987(19)
C49_3 C 0.6147(8) 0.8452(7) 0.2195(2)
C50_3 C 0.5737(7) 0.8866(6) 0.2250(2)
C51_3 C 0.5295(8) 0.9001(8) 0.21538(16)
H33_3 H 0.5249 0.8832 0.2052
C52_3 C 0.4921(6) 0.9383(8) 0.2207(2)
H34_3 H 0.4628 0.9480 0.2139
N9_3 N 0.4959(8) 0.9617(6) 0.2351(3)
C53_3 C 0.5376(9) 0.9479(7) 0.24447(18)
H35_3 H 0.5402 0.9639 0.2548
C54_3 C 0.5773(7) 0.9110(8) 0.23978(19)
H36_3 H 0.6067 0.9028 0.2467
O27_3 O 0.7813(7) 0.7341(7) 0.18574(17)
O28_3 O 0.6971(8) 0.7208(8) 0.18480(18)
C55_3 C 0.7435(9) 0.7097(6) 0.18098(19)
C56_3 C 0.7496(7) 0.6613(6) 0.17097(17)
C57_3 C 0.8005(6) 0.6461(7) 0.1652(2)
H37_3 H 0.8319 0.6663 0.1680
C58_3 C 0.8050(8) 0.6012(8) 0.1552(2)
H38_3 H 0.8397 0.5920 0.1510
C59_3 C 0.7136(9) 0.5844(6) 0.1571(2)
H39_3 H 0.6831 0.5624 0.1545
C60_3 C 0.7058(6) 0.6295(7) 0.1668(2)
H40_3 H 0.6704 0.6383 0.1706
O29_3 O 0.7755(6) 0.7480(6) 0.23600(15)
O30_3 O 0.8188(7) 0.7463(6) 0.2139(2)
C61_3 C 0.8140(7) 0.7320(6) 0.2279(2)
C62_3 C 0.8554(6) 0.6955(6) 0.23472(16)
C63_3 C 0.8495(6) 0.6748(6) 0.25014(16)
H41_3 H 0.8183 0.6838 0.2563
C64_3 C 0.8893(8) 0.6410(6) 0.25642(16)
H42_3 H 0.8854 0.6282 0.2671
C65_3 C 0.9381(6) 0.6447(7) 0.2331(2)
H43_3 H 0.9686 0.6336 0.2270
C66_3 C 0.9006(6) 0.6797(7) 0.22616(15)
H44_3 H 0.9060 0.6926 0.2156
O31_3 O 0.6728(6) 0.7241(6) 0.23385(16)
O32_3 O 0.6338(6) 0.7129(6) 0.21057(19)
C67_3 C 0.6410(7) 0.7002(6) 0.2246(2)
C68_3 C 0.6091(5) 0.6535(4) 0.23112(18)
C69_3 C 0.5680(6) 0.6299(7) 0.22199(13)
H45_3 H 0.5609 0.6426 0.2115
C70_3 C 0.5375(5) 0.5877(6) 0.2284(2)
H46_3 H 0.5088 0.5727 0.2222
C71_3 C 0.5873(7) 0.5890(6) 0.25153(15)
H47_3 H 0.5948 0.5743 0.2618
C72_3 C 0.6187(5) 0.6322(6) 0.24610(17)
H48_3 H 0.6465 0.6469 0.2527
H55_3 H 0.892325 0.81864 0.195952
H56_3 H 0.873021 0.783236 0.18063
H57_3 H 0.5764 0.718093 0.182909
H58_3 H 0.557257 0.781044 0.183778
H59_3 H 0.661116 0.815856 0.257252
H60_3 H 0.698788 0.763261 0.260888
Cr4_4 Cr 0.28735(19) 0.20880(19) 0.73180(5)
Cr5_4 Cr 0.3441(2) 0.22537(19) 0.69605(5)
Cr6_4 Cr 0.2138(2) 0.2035(2) 0.69970(6)
O17_4 O 0.3024(5) 0.2005(5) 0.75569(14)
O18_4 O 0.1366(10) 0.1861(10) 0.6878(2)
O19_4 O 0.4122(6) 0.2437(5) 0.68112(15)
O20_4 O 0.2742(8) 0.2114(6) 0.7100(2)
O21_4 O 0.2447(7) 0.1408(7) 0.73144(18)
O22_4 O 0.1902(6) 0.1396(6) 0.71148(17)
C37_4 C 0.2055(9) 0.1205(7) 0.7242(3)
C38_4 C 0.1793(6) 0.0698(4) 0.73015(17)
C39_4 C 0.1403(6) 0.0431(6) 0.72096(15)
H25_4 H 0.1294 0.0576 0.7109
C42_4 C 0.1947(6) 0.0458(6) 0.74434(16)
H28_4 H 0.2213 0.0625 0.7509
O23_4 O 0.2413(7) 0.1657(7) 0.6824(2)
O24_4 O 0.3291(7) 0.1699(6) 0.67925(16)
C43_4 C 0.2828(8) 0.1505(6) 0.67655(16)
C44_4 C 0.2837(7) 0.1048(5) 0.66516(14)
C45_4 C 0.2382(6) 0.0729(6) 0.66187(17)
H29_4 H 0.2062 0.0766 0.6681
C46_4 C 0.2401(6) 0.0356(6) 0.64940(18)
H30_4 H 0.2094 0.0132 0.6475
N8_4 N 0.2837(7) 0.0301(6) 0.64000(16)
C47_4 C 0.3268(6) 0.0615(7) 0.64291(16)
H31_4 H 0.3577 0.0584 0.6362
C48_4 C 0.3284(6) 0.0987(6) 0.65540(16)
H32_4 H 0.3601 0.1199 0.6572
O25_4 O 0.3891(6) 0.1739(6) 0.70601(17)
O26_4 O 0.3486(7) 0.1669(7) 0.72987(19)
C49_4 C 0.3853(8) 0.1548(7) 0.7195(2)
C50_4 C 0.4263(7) 0.1134(6) 0.7250(2)
C51_4 C 0.4705(8) 0.0999(8) 0.71538(16)
H33_4 H 0.4751 0.1168 0.7052
C52_4 C 0.5079(6) 0.0617(8) 0.7207(2)
H34_4 H 0.5372 0.0520 0.7139
N9_4 N 0.5041(8) 0.0383(6) 0.7351(3)
C53_4 C 0.4624(9) 0.0521(7) 0.74447(18)
H35_4 H 0.4598 0.0361 0.7548
C54_4 C 0.4227(7) 0.0890(8) 0.73978(19)
H36_4 H 0.3933 0.0972 0.7467
O27_4 O 0.2187(7) 0.2659(7) 0.68574(17)
O28_4 O 0.3029(8) 0.2792(8) 0.68480(18)
C55_4 C 0.2565(9) 0.2903(6) 0.68098(19)
C56_4 C 0.2504(7) 0.3387(6) 0.67097(17)
C57_4 C 0.1995(6) 0.3539(7) 0.6652(2)
H37_4 H 0.1681 0.3337 0.6680
C58_4 C 0.1950(8) 0.3988(8) 0.6552(2)
H38_4 H 0.1603 0.4080 0.6510
C59_4 C 0.2864(9) 0.4156(6) 0.6571(2)
H39_4 H 0.3169 0.4376 0.6545
C60_4 C 0.2942(6) 0.3705(7) 0.6668(2)
H40_4 H 0.3296 0.3617 0.6706
O29_4 O 0.2245(6) 0.2520(6) 0.73600(15)
O30_4 O 0.1812(7) 0.2537(6) 0.7139(2)
C61_4 C 0.1860(7) 0.2680(6) 0.7279(2)
C62_4 C 0.1446(6) 0.3045(6) 0.73472(16)
C63_4 C 0.1505(6) 0.3252(6) 0.75014(16)
H41_4 H 0.1817 0.3162 0.7563
C64_4 C 0.1107(8) 0.3590(6) 0.75642(16)
H42_4 H 0.1146 0.3718 0.7671
N11_2 N 0.0670(7) 0.3741(6) 0.7480(2)
C65_4 C 0.0619(6) 0.3553(7) 0.7331(2)
H43_4 H 0.0314 0.3664 0.7270
C66_4 C 0.0994(6) 0.3203(7) 0.72616(15)
H44_4 H 0.0940 0.3074 0.7156
O31_4 O 0.3272(6) 0.2759(6) 0.73385(16)
O32_4 O 0.3662(6) 0.2871(6) 0.71057(19)
C67_4 C 0.3590(7) 0.2998(6) 0.7246(2)
C68_4 C 0.3909(5) 0.3465(4) 0.73112(18)
C69_4 C 0.4320(6) 0.3701(7) 0.72199(13)
H45_4 H 0.4391 0.3574 0.7115
C70_4 C 0.4625(5) 0.4123(6) 0.7284(2)
H46_4 H 0.4912 0.4273 0.7222
N12_2 N 0.4529(6) 0.4327(5) 0.7429(2)
C71_4 C 0.4127(7) 0.4110(6) 0.75153(15)
H47_4 H 0.4052 0.4257 0.7618
C72_4 C 0.3813(5) 0.3678(6) 0.74610(17)
H48_4 H 0.3535 0.3531 0.7527
Ag7_2 Ag 0.50456(13) 0.49544(13) 0.7500
Ag10_2 Ag 0.01908(16) 0.43033(15) 0.76079(5)
H55_4 H 0.107675 0.18136 0.695952
H56_4 H 0.126979 0.216764 0.68063
H57_4 H 0.4236 0.281907 0.682909
H58_4 H 0.442743 0.218956 0.683778
H59_4 H 0.338884 0.184144 0.757252
H60_4 H 0.301212 0.236739 0.760888
Ag2_5 Ag 0.09376(14) 0.90624(14) 0.7500
C4_4 C 0.0050(6) 0.8825(6) 0.7735(2)
H2_4 H 0.0221 0.9099 0.7796
N1_4 N 0.0279(5) 0.8673(7) 0.7597(2)
C5_4 C 0.0030(6) 0.8290(7) 0.75103(16)
H3_4 H 0.0193 0.8174 0.7413
Ag6_2 Ag 0.56967(15) 0.98092(16) 0.73921(5)
C40_4 C 0.1175(6) 0.9950(6) 0.7265(2)
H26_4 H 0.0901 0.9779 0.7204
N7_4 N 0.1327(7) 0.9721(5) 0.7403(2)
C41_4 C 0.1710(7) 0.9970(6) 0.74897(16)
H27_4 H 0.1826 0.9807 0.7587
N15_2 N 0.6259(6) 0.9330(7) 0.7520(2)
Cr1_4 Cr 0.79120(19) 0.71265(19) 0.76820(5)
Cr2_4 Cr 0.77463(19) 0.6559(2) 0.80395(5)
Cr3_4 Cr 0.7965(2) 0.7862(2) 0.80030(6)
O1_4 O 0.7995(5) 0.6976(5) 0.74431(14)
O2_4 O 0.8139(10) 0.8634(10) 0.8122(2)
O3_4 O 0.7563(5) 0.5878(6) 0.81888(15)
O4_4 O 0.7886(6) 0.7258(8) 0.7900(2)
O5_4 O 0.8592(7) 0.7553(7) 0.76856(18)
O6_4 O 0.8604(6) 0.8098(6) 0.78852(17)
C1_4 C 0.8795(7) 0.7945(9) 0.7758(3)
C2_4 C 0.9302(4) 0.8207(6) 0.76985(17)
C3_4 C 0.9569(6) 0.8597(6) 0.77904(15)
H1_4 H 0.9424 0.8706 0.7891
C6_4 C 0.9542(6) 0.8053(6) 0.75566(16)
H4_4 H 0.9375 0.7787 0.7491
O7_4 O 0.8343(7) 0.7587(7) 0.8176(2)
O8_4 O 0.8301(6) 0.6709(7) 0.82075(16)
C7_4 C 0.8495(6) 0.7172(8) 0.82345(16)
C8_4 C 0.8952(5) 0.7163(7) 0.83484(14)
C9_4 C 0.9271(6) 0.7618(6) 0.83813(17)
H5_4 H 0.9234 0.7938 0.8319
C10_4 C 0.9644(6) 0.7599(6) 0.85060(18)
H6_4 H 0.9868 0.7906 0.8525
N2_4 N 0.9699(6) 0.7163(7) 0.86000(16)
C11_4 C 0.9385(7) 0.6732(6) 0.85709(16)
H7_4 H 0.9416 0.6423 0.8638
C12_4 C 0.9013(6) 0.6716(6) 0.84460(16)
H8_4 H 0.8801 0.6399 0.8428
O9_4 O 0.8261(6) 0.6109(6) 0.79399(17)
O10_4 O 0.8331(7) 0.6514(7) 0.77013(19)
C13_4 C 0.8452(7) 0.6147(8) 0.7805(2)
C14_4 C 0.8866(6) 0.5737(7) 0.7750(2)
C15_4 C 0.9001(8) 0.5295(8) 0.78462(16)
H9_4 H 0.8832 0.5249 0.7948
C16_4 C 0.9383(8) 0.4921(6) 0.7793(2)
H10_4 H 0.9480 0.4628 0.7861
N3_4 N 0.9617(6) 0.4959(8) 0.7649(3)
C17_4 C 0.9479(7) 0.5376(9) 0.75553(18)
H11_4 H 0.9639 0.5402 0.7452
C18_4 C 0.9110(8) 0.5773(7) 0.76022(19)
H12_4 H 0.9028 0.6067 0.7533
O11_4 O 0.7341(7) 0.7813(7) 0.81426(17)
O12_4 O 0.7208(8) 0.6971(8) 0.81520(18)
C19_4 C 0.7097(6) 0.7435(9) 0.81902(19)
C20_4 C 0.6613(6) 0.7496(7) 0.82903(17)
C21_4 C 0.6461(7) 0.8005(6) 0.8348(2)
H13_4 H 0.6663 0.8319 0.8320
C22_4 C 0.6012(8) 0.8050(8) 0.8448(2)
H14_4 H 0.5920 0.8397 0.8490
C23_4 C 0.5844(6) 0.7136(9) 0.8429(2)
H15_4 H 0.5624 0.6831 0.8455
C24_4 C 0.6295(7) 0.7058(6) 0.8332(2)
H16_4 H 0.6383 0.6704 0.8294
O13_4 O 0.7480(6) 0.7755(6) 0.76400(15)
O14_4 O 0.7463(6) 0.8188(7) 0.7861(2)
C25_4 C 0.7320(6) 0.8140(7) 0.7721(2)
C26_4 C 0.6955(6) 0.8554(6) 0.76528(16)
C27_4 C 0.6748(6) 0.8495(6) 0.74986(16)
H17_4 H 0.6838 0.8183 0.7437
C28_4 C 0.6410(6) 0.8893(8) 0.74358(16)
H18_4 H 0.6282 0.8854 0.7329
C29_4 C 0.6447(7) 0.9381(6) 0.7669(2)
H19_4 H 0.6336 0.9686 0.7730
C30_4 C 0.6797(7) 0.9006(6) 0.77384(15)
H20_4 H 0.6926 0.9060 0.7844
O15_4 O 0.7241(6) 0.6728(6) 0.76615(16)
O16_4 O 0.7129(6) 0.6338(6) 0.78943(19)
C31_4 C 0.7002(6) 0.6410(7) 0.7754(2)
C32_4 C 0.6535(4) 0.6091(5) 0.76888(18)
C33_4 C 0.6299(7) 0.5680(6) 0.77801(13)
H21_4 H 0.6426 0.5609 0.7885
C34_4 C 0.5877(6) 0.5375(5) 0.7716(2)
H22_4 H 0.5727 0.5088 0.7778
N6_4 N 0.5673(5) 0.5471(6) 0.7571(2)
C35_4 C 0.5890(6) 0.5873(7) 0.74847(15)
H23_4 H 0.5743 0.5948 0.7382
C36_4 C 0.6322(6) 0.6187(5) 0.75390(17)
H24_4 H 0.6469 0.6465 0.7473
H49_4 H 0.718093 0.5764 0.817091
H50_4 H 0.781044 0.557257 0.816222
H51_4 H 0.815856 0.661116 0.742748
H52_4 H 0.763261 0.698788 0.739112
H53_4 H 0.81864 0.892325 0.804048
H54_4 H 0.783236 0.873021 0.81937
loop_
_geom_bond_atom_site_label_1
_geom_bond_atom_site_label_2
_geom_bond_site_symmetry_1
_geom_bond_site_symmetry_2
Ag4 N3 1_555 1_555
H10 C16 1_555 1_555
N3 C16 1_555 1_555
Ag6 N9 1_555 1_555
H34 C52 1_555 1_555
N9 C52 1_555 1_555
Cr2 O3 1_555 1_555
Cr3 O2 1_555 1_555
Ag2 N1 1_555 1_555
Ag3 N2 1_555 1_555
O4 Cr1 1_555 1_555
O5 Cr1 1_555 1_555
O6 Cr3 1_555 1_555
C1 O5 1_555 1_555
C2 C1 1_555 1_555
C3 C2 1_555 1_555
H1 C3 1_555 1_555
C4 C3 1_555 1_555
H2 C4 1_555 1_555
N1 C4 1_555 1_555
C5 N1 1_555 1_555
C6 C2 1_555 1_555
O7 Cr3 1_555 1_555
O8 Cr2 1_555 1_555
C7 O7 1_555 1_555
C8 C7 1_555 1_555
C9 C8 1_555 1_555
H5 C9 1_555 1_555
C10 C9 1_555 1_555
H6 C10 1_555 1_555
N2 C10 1_555 1_555
C11 N2 1_555 1_555
H7 C11 1_555 1_555
C12 C8 1_555 1_555
H8 C12 1_555 1_555
O9 Cr2 1_555 1_555
O10 Cr1 1_555 1_555
C13 O9 1_555 1_555
C14 C13 1_555 1_555
C15 C14 1_555 1_555
H9 C15 1_555 1_555
C18 C14 1_555 1_555
H12 C18 1_555 1_555
O11 Cr3 1_555 1_555
O12 Cr2 1_555 1_555
C19 O11 1_555 1_555
C20 C19 1_555 1_555
C21 C20 1_555 1_555
H13 C21 1_555 1_555
C22 C21 1_555 1_555
H14 C22 1_555 1_555
N4 C22 1_555 1_555
C23 N4 1_555 1_555
H15 C23 1_555 1_555
C24 C20 1_555 1_555
H16 C24 1_555 1_555
O13 Cr1 1_555 1_555
O14 Cr3 1_555 1_555
C25 O13 1_555 1_555
C26 C25 1_555 1_555
C29 N15 1_555 1_555
H19 C29 1_555 1_555
C30 C26 1_555 1_555
H20 C30 1_555 1_555
O15 Cr1 1_555 1_555
O16 Cr2 1_555 1_555
C31 O15 1_555 1_555
C32 C31 1_555 1_555
C33 C32 1_555 1_555
H21 C33 1_555 1_555
C34 C33 1_555 1_555
H22 C34 1_555 1_555
N6 C34 1_555 1_555
C36 C32 1_555 1_555
H41 C63 1_555 1_555
C64 C63 1_555 1_555
H42 C64 1_555 1_555
H47 C71 1_555 1_555
Ag9 N4 1_555 1_555
N14 Ag3 1_555 1_555
Cr2 O4 1_555 1_555
Cr3 O4 1_555 1_555
O6 C1 1_555 1_555
C5 C6 1_555 1_555
O8 C7 1_555 1_555
C11 C12 1_555 1_555
O10 C13 1_555 1_555
C17 C18 1_555 1_555
O12 C19 1_555 1_555
C23 C24 1_555 1_555
O14 C25 1_555 1_555
C29 C30 1_555 1_555
O16 C31 1_555 1_555
O3 H49 1_555 1_555
O3 H50 1_555 1_555
O2 H53 1_555 1_555
O2 H54 1_555 1_555
O17 H59 1_555 1_555
O17 H60 1_555 1_555
H17 C27 1_555 1_555
C28 C27 1_555 1_555
H18 C28 1_555 1_555
H23 C35 1_555 1_555
Cr5 O19 1_555 1_555
Cr6 O18 1_555 1_555
Ag5 N8 1_555 1_555
O20 Cr4 1_555 1_555
O21 Cr4 1_555 1_555
O22 Cr6 1_555 1_555
C37 O21 1_555 1_555
C38 C37 1_555 1_555
C39 C38 1_555 1_555
H25 C39 1_555 1_555
C40 C39 1_555 1_555
H26 C40 1_555 1_555
N7 Ag2_2 1_555 1_555
C41 N7 1_555 1_555
C42 C38 1_555 1_555
O23 Cr6 1_555 1_555
O24 Cr5 1_555 1_555
C43 O23 1_555 1_555
C44 C43 1_555 1_555
C45 C44 1_555 1_555
H29 C45 1_555 1_555
C46 C45 1_555 1_555
H30 C46 1_555 1_555
N8 C46 1_555 1_555
C47 N8 1_555 1_555
H31 C47 1_555 1_555
C48 C44 1_555 1_555
H32 C48 1_555 1_555
O25 Cr5 1_555 1_555
O26 Cr4 1_555 1_555
C49 O25 1_555 1_555
C50 C49 1_555 1_555
C51 C50 1_555 1_555
H33 C51 1_555 1_555
C54 C50 1_555 1_555
H36 C54 1_555 1_555
O27 Cr6 1_555 1_555
O28 Cr5 1_555 1_555
C55 O27 1_555 1_555
C56 C55 1_555 1_555
C57 C56 1_555 1_555
H37 C57 1_555 1_555
C58 C57 1_555 1_555
H38 C58 1_555 1_555
N10 C58 1_555 1_555
C59 N10 1_555 1_555
H39 C59 1_555 1_555
C60 C56 1_555 1_555
H40 C60 1_555 1_555
O29 Cr4 1_555 1_555
O30 Cr6 1_555 1_555
C61 O29 1_555 1_555
C62 C61 1_555 1_555
C65 N16 1_555 1_555
H43 C65 1_555 1_555
C66 C62 1_555 1_555
H44 C66 1_555 1_555
O31 Cr4 1_555 1_555
O32 Cr5 1_555 1_555
C67 O31 1_555 1_555
C68 C67 1_555 1_555
C69 C68 1_555 1_555
H45 C69 1_555 1_555
C70 C69 1_555 1_555
H46 C70 1_555 1_555
N17 C70 1_555 1_555
C72 C68 1_555 1_555
Ag8 N10 1_555 1_555
N13 Ag5 1_555 1_555
Cr5 O20 1_555 1_555
Cr6 O20 1_555 1_555
O22 C37 1_555 1_555
C40 N7 1_555 1_555
C41 C42 1_555 1_555
O24 C43 1_555 1_555
C47 C48 1_555 1_555
O26 C49 1_555 1_555
C53 C54 1_555 1_555
O28 C55 1_555 1_555
C59 C60 1_555 1_555
O30 C61 1_555 1_555
C65 C66 1_555 1_555
O32 C67 1_555 1_555
O1 H51 1_555 1_555
O1 H52 1_555 1_555
O18 H55 1_555 1_555
O18 H56 1_555 1_555
O19 H57 1_555 1_555
O19 H58 1_555 1_555
Cr1_2 O1_2 1_555 1_555
Cr2_2 O3_2 1_555 1_555
Cr3_2 O2_2 1_555 1_555
Ag2_3 N1_2 1_555 1_555
Ag3_2 N2_2 1_555 1_555
O4_2 Cr1_2 1_555 1_555
O5_2 Cr1_2 1_555 1_555
O6_2 Cr3_2 1_555 1_555
C1_2 O5_2 1_555 1_555
C2_2 C1_2 1_555 1_555
C3_2 C2_2 1_555 1_555
H1_2 C3_2 1_555 1_555
C4_2 C3_2 1_555 1_555
H2_2 C4_2 1_555 1_555
N1_2 C4_2 1_555 1_555
C5_2 N1_2 1_555 1_555
H3_2 C5_2 1_555 1_555
C6_2 C2_2 1_555 1_555
H4_2 C6_2 1_555 1_555
O7_2 Cr3_2 1_555 1_555
O8_2 Cr2_2 1_555 1_555
C7_2 O7_2 1_555 1_555
C8_2 C7_2 1_555 1_555
C9_2 C8_2 1_555 1_555
H5_2 C9_2 1_555 1_555
C10_2 C9_2 1_555 1_555
H6_2 C10_2 1_555 1_555
N2_2 C10_2 1_555 1_555
C11_2 N2_2 1_555 1_555
H7_2 C11_2 1_555 1_555
C12_2 C8_2 1_555 1_555
H8_2 C12_2 1_555 1_555
O9_2 Cr2_2 1_555 1_555
O10_2 Cr1_2 1_555 1_555
C13_2 O9_2 1_555 1_555
C14_2 C13_2 1_555 1_555
C15_2 C14_2 1_555 1_555
H9_2 C15_2 1_555 1_555
H11_2 C17_2 1_555 1_555
C18_2 C14_2 1_555 1_555
H12_2 C18_2 1_555 1_555
O11_2 Cr3_2 1_555 1_555
O12_2 Cr2_2 1_555 1_555
C19_2 O11_2 1_555 1_555
C20_2 C19_2 1_555 1_555
C21_2 C20_2 1_555 1_555
H13_2 C21_2 1_555 1_555
C22_2 C21_2 1_555 1_555
H14_2 C22_2 1_555 1_555
N4_2 C22_2 1_555 1_555
C23_2 N4_2 1_555 1_555
H15_2 C23_2 1_555 1_555
C24_2 C20_2 1_555 1_555
H16_2 C24_2 1_555 1_555
O13_2 Cr1_2 1_555 1_555
O14_2 Cr3_2 1_555 1_555
C25_2 O13_2 1_555 1_555
C26_2 C25_2 1_555 1_555
C27_2 C26_2 1_555 1_555
H17_2 C27_2 1_555 1_555
C28_2 C27_2 1_555 1_555
H18_2 C28_2 1_555 1_555
N5 C28_2 1_555 1_555
C29_2 N5 1_555 1_555
H19_2 C29_2 1_555 1_555
C30_2 C26_2 1_555 1_555
H20_2 C30_2 1_555 1_555
O15_2 Cr1_2 1_555 1_555
O16_2 Cr2_2 1_555 1_555
C31_2 O15_2 1_555 1_555
C32_2 C31_2 1_555 1_555
C33_2 C32_2 1_555 1_555
H21_2 C33_2 1_555 1_555
C34_2 C33_2 1_555 1_555
H22_2 C34_2 1_555 1_555
N6_2 C34_2 1_555 1_555
C35_2 N6_2 1_555 1_555
H23_2 C35_2 1_555 1_555
C36_2 C32_2 1_555 1_555
H24_2 C36_2 1_555 1_555
Cr4_2 O17_2 1_555 1_555
Cr5_2 O19_2 1_555 1_555
Cr6_2 O18_2 1_555 1_555
Ag5_2 N8_2 1_555 1_555
O20_2 Cr4_2 1_555 1_555
O21_2 Cr4_2 1_555 1_555
O22_2 Cr6_2 1_555 1_555
C37_2 O21_2 1_555 1_555
C38_2 C37_2 1_555 1_555
C39_2 C38_2 1_555 1_555
H25_2 C39_2 1_555 1_555
C40_2 C39_2 1_555 1_555
H26_2 C40_2 1_555 1_555
N7_2 Ag2_3 1_555 1_555
C41_2 N7_2 1_555 1_555
H27_2 C41_2 1_555 1_555
C42_2 C38_2 1_555 1_555
H28_2 C42_2 1_555 1_555
O23_2 Cr6_2 1_555 1_555
O24_2 Cr5_2 1_555 1_555
C43_2 O23_2 1_555 1_555
C44_2 C43_2 1_555 1_555
C45_2 C44_2 1_555 1_555
H29_2 C45_2 1_555 1_555
C46_2 C45_2 1_555 1_555
H30_2 C46_2 1_555 1_555
N8_2 C46_2 1_555 1_555
C47_2 N8_2 1_555 1_555
H31_2 C47_2 1_555 1_555
C48_2 C44_2 1_555 1_555
H32_2 C48_2 1_555 1_555
O25_2 Cr5_2 1_555 1_555
O26_2 Cr4_2 1_555 1_555
C49_2 O25_2 1_555 1_555
C50_2 C49_2 1_555 1_555
C51_2 C50_2 1_555 1_555
H33_2 C51_2 1_555 1_555
H35_2 C53_2 1_555 1_555
C54_2 C50_2 1_555 1_555
H36_2 C54_2 1_555 1_555
O27_2 Cr6_2 1_555 1_555
O28_2 Cr5_2 1_555 1_555
C55_2 O27_2 1_555 1_555
C56_2 C55_2 1_555 1_555
C57_2 C56_2 1_555 1_555
H37_2 C57_2 1_555 1_555
C58_2 C57_2 1_555 1_555
H38_2 C58_2 1_555 1_555
N10_2 C58_2 1_555 1_555
C59_2 N10_2 1_555 1_555
H39_2 C59_2 1_555 1_555
C60_2 C56_2 1_555 1_555
H40_2 C60_2 1_555 1_555
O29_2 Cr4_2 1_555 1_555
O30_2 Cr6_2 1_555 1_555
C61_2 O29_2 1_555 1_555
C62_2 C61_2 1_555 1_555
C63_2 C62_2 1_555 1_555
H41_2 C63_2 1_555 1_555
C64_2 C63_2 1_555 1_555
H42_2 C64_2 1_555 1_555
N11 C64_2 1_555 1_555
C65_2 N11 1_555 1_555
H43_2 C65_2 1_555 1_555
C66_2 C62_2 1_555 1_555
H44_2 C66_2 1_555 1_555
O31_2 Cr4_2 1_555 1_555
O32_2 Cr5_2 1_555 1_555
C67_2 O31_2 1_555 1_555
C68_2 C67_2 1_555 1_555
C69_2 C68_2 1_555 1_555
H45_2 C69_2 1_555 1_555
C70_2 C69_2 1_555 1_555
H46_2 C70_2 1_555 1_555
N12 C70_2 1_555 1_555
C71_2 N12 1_555 1_555
H47_2 C71_2 1_555 1_555
C72_2 C68_2 1_555 1_555
H48_2 C72_2 1_555 1_555
Ag8_2 N10_2 1_555 1_555
Ag9_2 N4_2 1_555 1_555
Ag10 N11 1_555 1_555
Ag11 N5 1_555 1_555
N13_2 Ag5_2 1_555 1_555
N14_2 Ag3_2 1_555 1_555
Cr2_2 O4_2 1_555 1_555
Cr3_2 O4_2 1_555 1_555
O6_2 C1_2 1_555 1_555
C5_2 C6_2 1_555 1_555
O8_2 C7_2 1_555 1_555
C11_2 C12_2 1_555 1_555
O10_2 C13_2 1_555 1_555
C17_2 C18_2 1_555 1_555
O12_2 C19_2 1_555 1_555
C23_2 C24_2 1_555 1_555
O14_2 C25_2 1_555 1_555
C29_2 C30_2 1_555 1_555
O16_2 C31_2 1_555 1_555
C35_2 C36_2 1_555 1_555
Cr5_2 O20_2 1_555 1_555
Cr6_2 O20_2 1_555 1_555
O22_2 C37_2 1_555 1_555
C40_2 N7_2 1_555 1_555
C41_2 C42_2 1_555 1_555
O24_2 C43_2 1_555 1_555
C47_2 C48_2 1_555 1_555
O26_2 C49_2 1_555 1_555
C53_2 C54_2 1_555 1_555
O28_2 C55_2 1_555 1_555
C59_2 C60_2 1_555 1_555
O30_2 C61_2 1_555 1_555
C65_2 C66_2 1_555 1_555
O32_2 C67_2 1_555 1_555
C71_2 C72_2 1_555 1_555
O3_2 H49_2 1_555 1_555
O3_2 H50_2 1_555 1_555
O1_2 H51_2 1_555 1_555
O1_2 H52_2 1_555 1_555
O2_2 H53_2 1_555 1_555
O2_2 H54_2 1_555 1_555
O18_2 H55_2 1_555 1_555
O18_2 H56_2 1_555 1_555
O19_2 H57_2 1_555 1_555
O19_2 H58_2 1_555 1_555
O17_2 H59_2 1_555 1_555
O17_2 H60_2 1_555 1_555
Ag11 N9_2 1_555 1_555
H34_2 C52_2 1_555 1_555
N9_2 C52_2 1_555 1_555
Ag10 N3_2 1_555 1_555
H10_2 C16_2 1_555 1_555
N3_2 C16_2 1_555 1_555
Cr1_3 O1_3 1_555 1_555
Cr2_3 O3_3 1_555 1_555
Cr3_3 O2_3 1_555 1_555
Ag1_3 N6_3 1_555 1_555
O4_3 Cr1_3 1_555 1_555
O5_3 Cr1_3 1_555 1_555
O6_3 Cr3_3 1_555 1_555
C1_3 O5_3 1_555 1_555
C2_3 C1_3 1_555 1_555
C3_3 C2_3 1_555 1_555
H1_3 C3_3 1_555 1_555
C6_3 C2_3 1_555 1_555
H4_3 C6_3 1_555 1_555
O7_3 Cr3_3 1_555 1_555
O8_3 Cr2_3 1_555 1_555
C7_3 O7_3 1_555 1_555
C8_3 C7_3 1_555 1_555
C9_3 C8_3 1_555 1_555
H5_3 C9_3 1_555 1_555
C10_3 C9_3 1_555 1_555
H6_3 C10_3 1_555 1_555
N2_3 C10_3 1_555 1_555
C11_3 N2_3 1_555 1_555
H7_3 C11_3 1_555 1_555
C12_3 C8_3 1_555 1_555
H8_3 C12_3 1_555 1_555
O9_3 Cr2_3 1_555 1_555
O10_3 Cr1_3 1_555 1_555
C13_3 O9_3 1_555 1_555
C14_3 C13_3 1_555 1_555
C15_3 C14_3 1_555 1_555
H9_3 C15_3 1_555 1_555
C16_3 C15_3 1_555 1_555
H10_3 C16_3 1_555 1_555
N3_3 C16_3 1_555 1_555
C17_3 N3_3 1_555 1_555
H11_3 C17_3 1_555 1_555
C18_3 C14_3 1_555 1_555
H12_3 C18_3 1_555 1_555
O11_3 Cr3_3 1_555 1_555
O12_3 Cr2_3 1_555 1_555
C19_3 O11_3 1_555 1_555
C20_3 C19_3 1_555 1_555
C21_3 C20_3 1_555 1_555
H13_3 C21_3 1_555 1_555
C22_3 C21_3 1_555 1_555
H14_3 C22_3 1_555 1_555
N13_2 C22_3 1_555 1_555
C23_3 N13_2 1_555 1_555
H15_3 C23_3 1_555 1_555
C24_3 C20_3 1_555 1_555
H16_3 C24_3 1_555 1_555
O13_3 Cr1_3 1_555 1_555
O14_3 Cr3_3 1_555 1_555
C25_3 O13_3 1_555 1_555
C26_3 C25_3 1_555 1_555
C27_3 C26_3 1_555 1_555
H17_3 C27_3 1_555 1_555
C28_3 C27_3 1_555 1_555
H18_3 C28_3 1_555 1_555
N5_2 C28_3 1_555 1_555
C29_3 N5_2 1_555 1_555
H19_3 C29_3 1_555 1_555
C30_3 C26_3 1_555 1_555
H20_3 C30_3 1_555 1_555
O15_3 Cr1_3 1_555 1_555
O16_3 Cr2_3 1_555 1_555
C31_3 O15_3 1_555 1_555
C32_3 C31_3 1_555 1_555
C33_3 C32_3 1_555 1_555
H21_3 C33_3 1_555 1_555
C34_3 C33_3 1_555 1_555
H22_3 C34_3 1_555 1_555
N6_3 C34_3 1_555 1_555
C35_3 N6_3 1_555 1_555
H23_3 C35_3 1_555 1_555
C36_3 C32_3 1_555 1_555
H24_3 C36_3 1_555 1_555
Ag11_2 N5_2 1_555 1_555
N17_2 Ag1_3 1_555 1_555
Cr2_3 O4_3 1_555 1_555
Cr3_3 O4_3 1_555 1_555
O6_3 C1_3 1_555 1_555
O8_3 C7_3 1_555 1_555
C11_3 C12_3 1_555 1_555
O10_3 C13_3 1_555 1_555
C17_3 C18_3 1_555 1_555
O12_3 C19_3 1_555 1_555
C23_3 C24_3 1_555 1_555
O14_3 C25_3 1_555 1_555
C29_3 C30_3 1_555 1_555
O16_3 C31_3 1_555 1_555
C35_3 C36_3 1_555 1_555
O3_3 H49_3 1_555 1_555
O3_3 H50_3 1_555 1_555
O1_3 H51_3 1_555 1_555
O1_3 H52_3 1_555 1_555
O2_3 H53_3 1_555 1_555
O2_3 H54_3 1_555 1_555
Ag2_4 N1_3 1_555 1_555
H2_3 C4_3 1_555 1_555
N1_3 C4_3 1_555 1_555
C5_3 N1_3 1_555 1_555
H3_3 C5_3 1_555 1_555
H26_3 C40_3 1_555 1_555
N7_3 Ag2_4 1_555 1_555
C41_3 N7_3 1_555 1_555
H27_3 C41_3 1_555 1_555
N16_2 Ag4_2 1_555 1_555
C40_3 N7_3 1_555 1_555
Cr4_3 O17_3 1_555 1_555
Cr5_3 O19_3 1_555 1_555
Cr6_3 O18_3 1_555 1_555
O20_3 Cr4_3 1_555 1_555
O21_3 Cr4_3 1_555 1_555
O22_3 Cr6_3 1_555 1_555
C37_3 O21_3 1_555 1_555
C38_3 C37_3 1_555 1_555
C39_3 C38_3 1_555 1_555
H25_3 C39_3 1_555 1_555
C42_3 C38_3 1_555 1_555
H28_3 C42_3 1_555 1_555
O23_3 Cr6_3 1_555 1_555
O24_3 Cr5_3 1_555 1_555
C43_3 O23_3 1_555 1_555
C44_3 C43_3 1_555 1_555
C45_3 C44_3 1_555 1_555
H29_3 C45_3 1_555 1_555
C46_3 C45_3 1_555 1_555
H30_3 C46_3 1_555 1_555
N8_3 C46_3 1_555 1_555
C47_3 N8_3 1_555 1_555
H31_3 C47_3 1_555 1_555
C48_3 C44_3 1_555 1_555
H32_3 C48_3 1_555 1_555
O25_3 Cr5_3 1_555 1_555
O26_3 Cr4_3 1_555 1_555
C49_3 O25_3 1_555 1_555
C50_3 C49_3 1_555 1_555
C51_3 C50_3 1_555 1_555
H33_3 C51_3 1_555 1_555
C52_3 C51_3 1_555 1_555
H34_3 C52_3 1_555 1_555
N9_3 C52_3 1_555 1_555
C53_3 N9_3 1_555 1_555
H35_3 C53_3 1_555 1_555
C54_3 C50_3 1_555 1_555
H36_3 C54_3 1_555 1_555
O27_3 Cr6_3 1_555 1_555
O28_3 Cr5_3 1_555 1_555
C55_3 O27_3 1_555 1_555
C56_3 C55_3 1_555 1_555
C57_3 C56_3 1_555 1_555
H37_3 C57_3 1_555 1_555
C58_3 C57_3 1_555 1_555
H38_3 C58_3 1_555 1_555
N14 C58_3 1_555 1_555
C59_3 N14 1_555 1_555
H39_3 C59_3 1_555 1_555
C60_3 C56_3 1_555 1_555
H40_3 C60_3 1_555 1_555
O29_3 Cr4_3 1_555 1_555
O30_3 Cr6_3 1_555 1_555
C61_3 O29_3 1_555 1_555
C62_3 C61_3 1_555 1_555
C63_3 C62_3 1_555 1_555
H41_3 C63_3 1_555 1_555
C64_3 C63_3 1_555 1_555
H42_3 C64_3 1_555 1_555
N16_2 C64_3 1_555 1_555
C65_3 N16_2 1_555 1_555
H43_3 C65_3 1_555 1_555
C66_3 C62_3 1_555 1_555
H44_3 C66_3 1_555 1_555
O31_3 Cr4_3 1_555 1_555
O32_3 Cr5_3 1_555 1_555
C67_3 O31_3 1_555 1_555
C68_3 C67_3 1_555 1_555
C69_3 C68_3 1_555 1_555
H45_3 C69_3 1_555 1_555
C70_3 C69_3 1_555 1_555
H46_3 C70_3 1_555 1_555
N17_2 C70_3 1_555 1_555
C71_3 N17_2 1_555 1_555
H47_3 C71_3 1_555 1_555
C72_3 C68_3 1_555 1_555
H48_3 C72_3 1_555 1_555
Cr5_3 O20_3 1_555 1_555
Cr6_3 O20_3 1_555 1_555
O22_3 C37_3 1_555 1_555
O24_3 C43_3 1_555 1_555
C47_3 C48_3 1_555 1_555
O26_3 C49_3 1_555 1_555
C53_3 C54_3 1_555 1_555
O28_3 C55_3 1_555 1_555
C59_3 C60_3 1_555 1_555
O30_3 C61_3 1_555 1_555
C65_3 C66_3 1_555 1_555
O32_3 C67_3 1_555 1_555
C71_3 C72_3 1_555 1_555
O18_3 H55_3 1_555 1_555
O18_3 H56_3 1_555 1_555
O19_3 H57_3 1_555 1_555
O19_3 H58_3 1_555 1_555
O17_3 H59_3 1_555 1_555
O17_3 H60_3 1_555 1_555
Cr4_4 O17_4 1_555 1_555
Cr5_4 O19_4 1_555 1_555
Cr6_4 O18_4 1_555 1_555
O20_4 Cr4_4 1_555 1_555
O21_4 Cr4_4 1_555 1_555
O22_4 Cr6_4 1_555 1_555
C37_4 O21_4 1_555 1_555
C38_4 C37_4 1_555 1_555
C39_4 C38_4 1_555 1_555
H25_4 C39_4 1_555 1_555
C42_4 C38_4 1_555 1_555
H28_4 C42_4 1_555 1_555
O23_4 Cr6_4 1_555 1_555
O24_4 Cr5_4 1_555 1_555
C43_4 O23_4 1_555 1_555
C44_4 C43_4 1_555 1_555
C45_4 C44_4 1_555 1_555
H29_4 C45_4 1_555 1_555
C46_4 C45_4 1_555 1_555
H30_4 C46_4 1_555 1_555
N8_4 C46_4 1_555 1_555
C47_4 N8_4 1_555 1_555
H31_4 C47_4 1_555 1_555
C48_4 C44_4 1_555 1_555
H32_4 C48_4 1_555 1_555
O25_4 Cr5_4 1_555 1_555
O26_4 Cr4_4 1_555 1_555
C49_4 O25_4 1_555 1_555
C50_4 C49_4 1_555 1_555
C51_4 C50_4 1_555 1_555
H33_4 C51_4 1_555 1_555
C52_4 C51_4 1_555 1_555
H34_4 C52_4 1_555 1_555
N9_4 C52_4 1_555 1_555
C53_4 N9_4 1_555 1_555
H35_4 C53_4 1_555 1_555
C54_4 C50_4 1_555 1_555
H36_4 C54_4 1_555 1_555
O27_4 Cr6_4 1_555 1_555
O28_4 Cr5_4 1_555 1_555
C55_4 O27_4 1_555 1_555
C56_4 C55_4 1_555 1_555
C57_4 C56_4 1_555 1_555
H37_4 C57_4 1_555 1_555
C58_4 C57_4 1_555 1_555
H38_4 C58_4 1_555 1_555
N14_2 C58_4 1_555 1_555
C59_4 N14_2 1_555 1_555
H39_4 C59_4 1_555 1_555
C60_4 C56_4 1_555 1_555
H40_4 C60_4 1_555 1_555
O29_4 Cr4_4 1_555 1_555
O30_4 Cr6_4 1_555 1_555
C61_4 O29_4 1_555 1_555
C62_4 C61_4 1_555 1_555
C63_4 C62_4 1_555 1_555
H41_4 C63_4 1_555 1_555
C64_4 C63_4 1_555 1_555
H42_4 C64_4 1_555 1_555
N11_2 C64_4 1_555 1_555
C65_4 N11_2 1_555 1_555
H43_4 C65_4 1_555 1_555
C66_4 C62_4 1_555 1_555
H44_4 C66_4 1_555 1_555
O31_4 Cr4_4 1_555 1_555
O32_4 Cr5_4 1_555 1_555
C67_4 O31_4 1_555 1_555
C68_4 C67_4 1_555 1_555
C69_4 C68_4 1_555 1_555
H45_4 C69_4 1_555 1_555
C70_4 C69_4 1_555 1_555
H46_4 C70_4 1_555 1_555
N12_2 C70_4 1_555 1_555
C71_4 N12_2 1_555 1_555
H47_4 C71_4 1_555 1_555
C72_4 C68_4 1_555 1_555
H48_4 C72_4 1_555 1_555
Ag7_2 N12_2 1_555 1_555
Ag10_2 N11_2 1_555 1_555
Cr5_4 O20_4 1_555 1_555
Cr6_4 O20_4 1_555 1_555
O22_4 C37_4 1_555 1_555
O24_4 C43_4 1_555 1_555
C47_4 C48_4 1_555 1_555
O26_4 C49_4 1_555 1_555
C53_4 C54_4 1_555 1_555
O28_4 C55_4 1_555 1_555
C59_4 C60_4 1_555 1_555
O30_4 C61_4 1_555 1_555
C65_4 C66_4 1_555 1_555
O32_4 C67_4 1_555 1_555
C71_4 C72_4 1_555 1_555
O18_4 H55_4 1_555 1_555
O18_4 H56_4 1_555 1_555
O19_4 H57_4 1_555 1_555
O19_4 H58_4 1_555 1_555
O17_4 H59_4 1_555 1_555
O17_4 H60_4 1_555 1_555
Ag2_5 N1_4 1_555 1_555
H2_4 C4_4 1_555 1_555
N1_4 C4_4 1_555 1_555
C5_4 N1_4 1_555 1_555
H3_4 C5_4 1_555 1_555
H26_4 C40_4 1_555 1_555
N7_4 Ag2_5 1_555 1_555
C41_4 N7_4 1_555 1_555
H27_4 C41_4 1_555 1_555
N15_2 Ag6_2 1_555 1_555
C40_4 N7_4 1_555 1_555
Cr1_4 O1_4 1_555 1_555
Cr2_4 O3_4 1_555 1_555
Cr3_4 O2_4 1_555 1_555
Ag7_2 N6_4 1_555 1_555
O4_4 Cr1_4 1_555 1_555
O5_4 Cr1_4 1_555 1_555
O6_4 Cr3_4 1_555 1_555
C1_4 O5_4 1_555 1_555
C2_4 C1_4 1_555 1_555
C3_4 C2_4 1_555 1_555
H1_4 C3_4 1_555 1_555
C6_4 C2_4 1_555 1_555
H4_4 C6_4 1_555 1_555
O7_4 Cr3_4 1_555 1_555
O8_4 Cr2_4 1_555 1_555
C7_4 O7_4 1_555 1_555
C8_4 C7_4 1_555 1_555
C9_4 C8_4 1_555 1_555
H5_4 C9_4 1_555 1_555
C10_4 C9_4 1_555 1_555
H6_4 C10_4 1_555 1_555
N2_4 C10_4 1_555 1_555
C11_4 N2_4 1_555 1_555
H7_4 C11_4 1_555 1_555
C12_4 C8_4 1_555 1_555
H8_4 C12_4 1_555 1_555
O9_4 Cr2_4 1_555 1_555
O10_4 Cr1_4 1_555 1_555
C13_4 O9_4 1_555 1_555
C14_4 C13_4 1_555 1_555
C15_4 C14_4 1_555 1_555
H9_4 C15_4 1_555 1_555
C16_4 C15_4 1_555 1_555
H10_4 C16_4 1_555 1_555
N3_4 C16_4 1_555 1_555
C17_4 N3_4 1_555 1_555
H11_4 C17_4 1_555 1_555
C18_4 C14_4 1_555 1_555
H12_4 C18_4 1_555 1_555
O11_4 Cr3_4 1_555 1_555
O12_4 Cr2_4 1_555 1_555
C19_4 O11_4 1_555 1_555
C20_4 C19_4 1_555 1_555
C21_4 C20_4 1_555 1_555
H13_4 C21_4 1_555 1_555
C22_4 C21_4 1_555 1_555
H14_4 C22_4 1_555 1_555
N13 C22_4 1_555 1_555
C23_4 N13 1_555 1_555
H15_4 C23_4 1_555 1_555
C24_4 C20_4 1_555 1_555
H16_4 C24_4 1_555 1_555
O13_4 Cr1_4 1_555 1_555
O14_4 Cr3_4 1_555 1_555
C25_4 O13_4 1_555 1_555
C26_4 C25_4 1_555 1_555
C27_4 C26_4 1_555 1_555
H17_4 C27_4 1_555 1_555
C28_4 C27_4 1_555 1_555
H18_4 C28_4 1_555 1_555
N15_2 C28_4 1_555 1_555
C29_4 N15_2 1_555 1_555
H19_4 C29_4 1_555 1_555
C30_4 C26_4 1_555 1_555
H20_4 C30_4 1_555 1_555
O15_4 Cr1_4 1_555 1_555
O16_4 Cr2_4 1_555 1_555
C31_4 O15_4 1_555 1_555
C32_4 C31_4 1_555 1_555
C33_4 C32_4 1_555 1_555
H21_4 C33_4 1_555 1_555
C34_4 C33_4 1_555 1_555
H22_4 C34_4 1_555 1_555
N6_4 C34_4 1_555 1_555
C35_4 N6_4 1_555 1_555
H23_4 C35_4 1_555 1_555
C36_4 C32_4 1_555 1_555
H24_4 C36_4 1_555 1_555
Cr2_4 O4_4 1_555 1_555
Cr3_4 O4_4 1_555 1_555
O6_4 C1_4 1_555 1_555
O8_4 C7_4 1_555 1_555
C11_4 C12_4 1_555 1_555
O10_4 C13_4 1_555 1_555
C17_4 C18_4 1_555 1_555
O12_4 C19_4 1_555 1_555
C23_4 C24_4 1_555 1_555
O14_4 C25_4 1_555 1_555
C29_4 C30_4 1_555 1_555
O16_4 C31_4 1_555 1_555
C35_4 C36_4 1_555 1_555
O3_4 H49_4 1_555 1_555
O3_4 H50_4 1_555 1_555
O1_4 H51_4 1_555 1_555
O1_4 H52_4 1_555 1_555
O2_4 H53_4 1_555 1_555
O2_4 H54_4 1_555 1_555

#END
