
###############################################################################
#
# This file contains modified crystal structure data generated from the
# MOF subset of the Cambridge Structural Database (CSD) v543 
# hosted by the Cambridge Crystallographic Data Centre (CCDC).
#
# This work is licensed under the Creative Commons
# Attribution-NonCommercial-ShareAlike 4.0 International License.
# To view a copy of this license, visit
# http://creativecommons.org/licenses/by-nc-sa/4.0/
# or send a letter to
# Creative Commons, PO Box 1866, Mountain View, CA 94042, USA.
#
# CIF created using the CSD Python API on 29 September 2022
# The structure has been converted into the P1 space group
# The structure has a 3D framework
# The original CSD entry BIHQAM is in the tetragonal crystal system
# The framework has been calculated to contain at least 10.0% void space
# The void calculation uses a probe of radius 1.32A, grid spacing 0.4
#
###############################################################################

data_BIHQAM
_chemical_formula_moiety         '(C24 H16 Mo7 N24 O27 Zn10)n'
_symmetry_cell_setting           triclinic
_symmetry_space_group_name_H-M   'P 1'
_symmetry_Int_Tables_number      1
_space_group_name_Hall           'P 1'
loop_
_symmetry_equiv_pos_site_id
_symmetry_equiv_pos_as_xyz
1 x,y,z
_cell_length_a                   13.6272(2)
_cell_length_b                   13.6272(2)
_cell_length_c                   10.0246(3)
_cell_angle_alpha                90
_cell_angle_beta                 90
_cell_angle_gamma                90
_cell_volume                     1861.57
loop_
_atom_site_label
_atom_site_type_symbol
_atom_site_fract_x
_atom_site_fract_y
_atom_site_fract_z
Mo1 Mo 0.5000 0.0000 0.2500
Zn1 Zn 0.5000 0.18884(5) 0.0000
O2 O 0.5195(4) 0.1049(3) 0.1530(5)
N2 N 0.3734(4) 0.2564(4) 0.0403(5)
C2 C 0.3113(5) 0.2401(6) 0.1428(9)
H1 H 0.3160 0.1888 0.2037
N3 N 0.2564(4) 0.3734(4) 0.0403(5)
C3 C 0.2401(6) 0.3113(5) 0.1428(9)
H2 H 0.1888 0.3160 0.2037
Zn2 Zn 0.18884(5) 0.5000 0.0000
O4 O 0.3411(4) 0.5473(4) 0.1759(6)
N4 N 0.3801(5) 0.6199(5) 0.1309(8)
C4 C 0.3361(4) 0.6639(4) 0.0109(19)
O6 O 0.4527(4) 0.6589(4) 0.1759(6)
O8 O 0.3951(3) 0.0195(4) 0.3470(5)
Zn4 Zn 0.5000 0.81116(5) 0.0000
Zn5 Zn 0.31116(5) 0.0000 0.5000
O10 O 0.1049(3) 0.5195(4) 0.1530(5)
Zn1_2 Zn 0.5000 0.18884(5) 1.0000
O1 O 0.4527(4) 0.3411(4) 0.8241(6)
N1 N 0.3801(5) 0.3801(5) 0.8691(8)
C1 C 0.3361(4) 0.3361(4) 0.9891(19)
O3 O 0.3411(4) 0.4527(4) 0.8241(6)
Zn2_2 Zn 0.18884(5) 0.5000 1.0000
O5 O 0.1049(3) 0.4805(4) 0.8470(5)
N5 N 0.2564(4) 0.6266(4) 0.9597(5)
C5 C 0.2401(6) 0.6887(5) 0.8572(9)
H3 H 0.1888 0.6840 0.7963
N6 N 0.3734(4) 0.7436(4) 0.9597(5)
C6 C 0.3113(5) 0.7599(6) 0.8572(9)
H4 H 0.3160 0.8112 0.7963
Mo2 Mo 0.0000 0.5000 0.7500
Zn4_2 Zn 0.5000 0.81116(5) 1.0000
O9 O 0.4805(4) 0.1049(3) 0.8470(5)
N7 N 0.6266(4) 0.2564(4) 0.9597(5)
Mo1_2 Mo 0.5000 1.0000 0.2500
O7 O 0.4805(4) 0.8951(3) 0.1530(5)
Zn5_2 Zn 0.31116(5) 1.0000 0.5000
O11 O 0.6049(3) 0.9805(4) 0.3470(5)
Mo2_2 Mo 1.0000 0.5000 0.7500
N5_2 N 0.6266(4) 0.7436(4) 0.0403(5)
C5_2 C 0.6887(5) 0.7599(6) 0.1428(9)
H3_2 H 0.6840 0.8112 0.2037
N6_2 N 0.7436(4) 0.6266(4) 0.0403(5)
C6_2 C 0.7599(6) 0.6887(5) 0.1428(9)
H4_2 H 0.8112 0.6840 0.2037
Zn4_3 Zn 0.81116(5) 0.5000 0.0000
O4_2 O 0.5473(4) 0.6589(4) 0.8241(6)
N4_2 N 0.6199(5) 0.6199(5) 0.8691(8)
C4_2 C 0.6639(4) 0.6639(4) 0.9891(19)
O6_2 O 0.6589(4) 0.5473(4) 0.8241(6)
O8_2 O 0.0195(4) 0.6049(3) 0.6530(5)
Zn4_4 Zn 0.81116(5) 0.5000 1.0000
Zn5_3 Zn 0.0000 0.68884(5) 0.5000
O10_2 O 0.5195(4) 0.8951(3) 0.8470(5)
O7_2 O 0.8951(3) 0.5195(4) 0.8470(5)
Zn5_4 Zn 1.0000 0.68884(5) 0.5000
O11_2 O 0.9805(4) 0.3951(3) 0.6530(5)
Zn5_5 Zn 0.68884(5) 0.0000 0.5000
O4_3 O 0.6589(4) 0.4527(4) 0.1759(6)
N4_3 N 0.6199(5) 0.3801(5) 0.1309(8)
C4_3 C 0.6639(4) 0.3361(4) 0.0109(19)
O6_3 O 0.5473(4) 0.3411(4) 0.1759(6)
Zn5_6 Zn 0.68884(5) 1.0000 0.5000
O10_3 O 0.8951(3) 0.4805(4) 0.1530(5)
N5_3 N 0.7436(4) 0.3734(4) 0.9597(5)
C5_3 C 0.7599(6) 0.3113(5) 0.8572(9)
H3_3 H 0.8112 0.3160 0.7963
C6_3 C 0.6887(5) 0.2401(6) 0.8572(9)
H4_3 H 0.6840 0.1888 0.7963
Zn5_7 Zn 0.0000 0.31116(5) 0.5000
Zn5_8 Zn 1.0000 0.31116(5) 0.5000
Mo1_3 Mo 0.5000 0.0000 0.7500
O11_3 O 0.6049(3) 0.0195(4) 0.6530(5)
Mo2_3 Mo 0.0000 0.5000 0.2500
Mo1_4 Mo 0.5000 1.0000 0.7500
O8_3 O 0.3951(3) 0.9805(4) 0.6530(5)
Mo2_4 Mo 1.0000 0.5000 0.2500
O11_4 O 0.0195(4) 0.3951(3) 0.3470(5)
O8_4 O 0.9805(4) 0.6049(3) 0.3470(5)
N7_2 N 0.1266(4) 0.7564(4) 0.4597(5)
O4_4 O 0.8411(4) 0.0473(4) 0.6759(6)
N4_4 N 0.8801(5) 0.1199(5) 0.6309(8)
N5_4 N 0.7564(4) 0.1266(4) 0.4597(5)
C4_4 C 0.8361(4) 0.1639(4) 0.5109(19)
C5_4 C 0.7401(6) 0.1887(5) 0.3572(9)
H3_4 H 0.6888 0.1840 0.2963
O6_4 O 0.9527(4) 0.1589(4) 0.6759(6)
N6_3 N 0.8734(4) 0.2436(4) 0.4597(5)
C6_4 C 0.8113(5) 0.2599(6) 0.3572(9)
H4_4 H 0.8160 0.3112 0.2963
O1_2 O 0.9527(4) 0.8411(4) 0.3241(6)
N1_2 N 0.8801(5) 0.8801(5) 0.3691(8)
N2_2 N 0.8734(4) 0.7564(4) 0.5403(5)
C1_2 C 0.8361(4) 0.8361(4) 0.4891(19)
C2_2 C 0.8113(5) 0.7401(6) 0.6428(9)
H1_2 H 0.8160 0.6888 0.7037
O3_2 O 0.8411(4) 0.9527(4) 0.3241(6)
N3_2 N 0.7564(4) 0.8734(4) 0.5403(5)
C3_2 C 0.7401(6) 0.8113(5) 0.6428(9)
H2_2 H 0.6888 0.8160 0.7037
O4_5 O 0.0473(4) 0.1589(4) 0.3241(6)
N4_5 N 0.1199(5) 0.1199(5) 0.3691(8)
N5_5 N 0.1266(4) 0.2436(4) 0.5403(5)
C4_5 C 0.1639(4) 0.1639(4) 0.4891(19)
C5_5 C 0.1887(5) 0.2599(6) 0.6428(9)
H3_5 H 0.1840 0.3112 0.7037
O6_5 O 0.1589(4) 0.0473(4) 0.3241(6)
N6_4 N 0.2436(4) 0.1266(4) 0.5403(5)
C6_5 C 0.2599(6) 0.1887(5) 0.6428(9)
H4_5 H 0.3112 0.1840 0.7037
O4_6 O 0.1589(4) 0.9527(4) 0.6759(6)
N4_6 N 0.1199(5) 0.8801(5) 0.6309(8)
N5_6 N 0.2436(4) 0.8734(4) 0.4597(5)
C4_6 C 0.1639(4) 0.8361(4) 0.5109(19)
C5_6 C 0.2599(6) 0.8113(5) 0.3572(9)
H3_6 H 0.3112 0.8160 0.2963
O6_6 O 0.0473(4) 0.8411(4) 0.6759(6)
C6_6 C 0.1887(5) 0.7401(6) 0.3572(9)
H4_6 H 0.1840 0.6888 0.2963
loop_
_geom_bond_atom_site_label_1
_geom_bond_atom_site_label_2
_geom_bond_site_symmetry_1
_geom_bond_site_symmetry_2
Mo1 O2 1_555 1_555
Zn1 O2 1_555 1_555
N2 Zn1 1_555 1_555
C2 N2 1_555 1_555
H1 C2 1_555 1_555
C3 C2 1_555 1_555
H2 C3 1_555 1_555
Zn2 N3 1_555 1_555
O4 N4 1_555 1_555
N4 C4 1_555 1_555
O6 N4 1_555 1_555
O8 Mo1 1_555 1_555
Zn5 O8 1_555 1_555
O10 Zn2 1_555 1_555
N3 C3 1_555 1_555
O1 N1 1_555 1_555
N1 C1 1_555 1_555
O3 N1 1_555 1_555
O5 Zn2_2 1_555 1_555
N5 Zn2_2 1_555 1_555
C5 N5 1_555 1_555
H3 C5 1_555 1_555
C6 C5 1_555 1_555
H4 C6 1_555 1_555
Mo2 O5 1_555 1_555
Zn4_2 N6 1_555 1_555
O9 Zn1_2 1_555 1_555
N7 Zn1_2 1_555 1_555
N6 C6 1_555 1_555
O7 Mo1_2 1_555 1_555
Zn4 O7 1_555 1_555
O11 Mo1_2 1_555 1_555
N5_2 Zn4 1_555 1_555
C5_2 N5_2 1_555 1_555
H3_2 C5_2 1_555 1_555
C6_2 C5_2 1_555 1_555
H4_2 C6_2 1_555 1_555
Zn4_3 N6_2 1_555 1_555
N6_2 C6_2 1_555 1_555
O4_2 N4_2 1_555 1_555
N4_2 C4_2 1_555 1_555
O6_2 N4_2 1_555 1_555
O8_2 Mo2 1_555 1_555
Zn5_3 O8_2 1_555 1_555
O10_2 Zn4_2 1_555 1_555
O7_2 Mo2_2 1_555 1_555
Zn4_4 O7_2 1_555 1_555
O11_2 Mo2_2 1_555 1_555
O4_3 N4_3 1_555 1_555
N4_3 C4_3 1_555 1_555
O6_3 N4_3 1_555 1_555
Zn5_6 O11 1_555 1_555
O10_3 Zn4_3 1_555 1_555
N5_3 Zn4_4 1_555 1_555
C5_3 N5_3 1_555 1_555
H3_3 C5_3 1_555 1_555
C6_3 C5_3 1_555 1_555
H4_3 C6_3 1_555 1_555
N7 C6_3 1_555 1_555
Zn5_8 O11_2 1_555 1_555
O9 Mo1_3 1_555 1_555
O11_3 Mo1_3 1_555 1_555
Mo2_3 O10 1_555 1_555
Mo1_4 O10_2 1_555 1_555
O8_3 Mo1_4 1_555 1_555
Zn5_2 O8_3 1_555 1_555
O11_4 Mo2_3 1_555 1_555
Mo2_4 O10_3 1_555 1_555
O8_4 Mo2_4 1_555 1_555
Zn5_4 O8_4 1_555 1_555
Zn5_5 O11_3 1_555 1_555
Zn5_7 O11_4 1_555 1_555
N7_2 Zn5_3 1_555 1_555
O4_4 N4_4 1_555 1_555
N4_4 C4_4 1_555 1_555
N5_4 Zn5_5 1_555 1_555
C4_4 N5_4 1_555 1_555
C5_4 N5_4 1_555 1_555
H3_4 C5_4 1_555 1_555
O6_4 N4_4 1_555 1_555
N6_3 C4_4 1_555 1_555
C6_4 C5_4 1_555 1_555
H4_4 C6_4 1_555 1_555
Zn5_8 N6_3 1_555 1_555
N6_3 C6_4 1_555 1_555
O1_2 N1_2 1_555 1_555
N1_2 C1_2 1_555 1_555
N2_2 Zn5_4 1_555 1_555
C1_2 N2_2 1_555 1_555
C2_2 N2_2 1_555 1_555
H1_2 C2_2 1_555 1_555
O3_2 N1_2 1_555 1_555
N3_2 C1_2 1_555 1_555
C3_2 C2_2 1_555 1_555
H2_2 C3_2 1_555 1_555
Zn5_6 N3_2 1_555 1_555
N3_2 C3_2 1_555 1_555
O4_5 N4_5 1_555 1_555
N4_5 C4_5 1_555 1_555
N5_5 Zn5_7 1_555 1_555
C4_5 N5_5 1_555 1_555
C5_5 N5_5 1_555 1_555
H3_5 C5_5 1_555 1_555
O6_5 N4_5 1_555 1_555
N6_4 C4_5 1_555 1_555
C6_5 C5_5 1_555 1_555
H4_5 C6_5 1_555 1_555
Zn5 N6_4 1_555 1_555
N6_4 C6_5 1_555 1_555
O4_6 N4_6 1_555 1_555
N4_6 C4_6 1_555 1_555
N5_6 Zn5_2 1_555 1_555
C4_6 N5_6 1_555 1_555
C5_6 N5_6 1_555 1_555
H3_6 C5_6 1_555 1_555
O6_6 N4_6 1_555 1_555
N7_2 C4_6 1_555 1_555
C6_6 C5_6 1_555 1_555
H4_6 C6_6 1_555 1_555
N7_2 C6_6 1_555 1_555

#END
