
###############################################################################
#
# This file contains modified crystal structure data generated from the
# MOF subset of the Cambridge Structural Database (CSD) v543 
# hosted by the Cambridge Crystallographic Data Centre (CCDC).
#
# This work is licensed under the Creative Commons
# Attribution-NonCommercial-ShareAlike 4.0 International License.
# To view a copy of this license, visit
# http://creativecommons.org/licenses/by-nc-sa/4.0/
# or send a letter to
# Creative Commons, PO Box 1866, Mountain View, CA 94042, USA.
#
# CIF created using the CSD Python API on 29 September 2022
# The structure has been converted into the P1 space group
# The structure has a 3D framework
# The original CSD entry BIHRUI is in the tetragonal crystal system
# The framework has been calculated to contain at least 10.0% void space
# The void calculation uses a probe of radius 1.32A, grid spacing 0.4
# H atom positions have been added when not included in the experimental data
# Generated hydrogen atom positions removed from atoms on special positions
#
###############################################################################

data_BIHRUI
_chemical_formula_moiety         '(C400 H264 Cu40 O136)n'
_symmetry_cell_setting           triclinic
_symmetry_space_group_name_H-M   'P 1'
_symmetry_Int_Tables_number      1
_space_group_name_Hall           'P 1'
loop_
_symmetry_equiv_pos_site_id
_symmetry_equiv_pos_as_xyz
1 x,y,z
_cell_length_a                   31.038(2)
_cell_length_b                   31.038(2)
_cell_length_c                   20.6449(18)
_cell_angle_alpha                90
_cell_angle_beta                 90
_cell_angle_gamma                90
_cell_volume                     19888.4
loop_
_atom_site_label
_atom_site_type_symbol
_atom_site_fract_x
_atom_site_fract_y
_atom_site_fract_z
O12 O 0.24135(19) 0.09462(15) 0.4336(2)
O15 O 0.3099(2) 0.08113(18) 0.4336(3)
C36 C 0.2737(3) 0.0719(4) 0.4215(5)
C38 C 0.3023(6) 0.0119(4) 0.3606(8)
H16 H 0.3293 0.0200 0.3759
C39 C 0.2242(5) 0.0216(4) 0.3656(6)
H17 H 0.2006 0.0374 0.3802
C45 C 0.2638(5) 0.0331(3) 0.3755(5)
Cu5 Cu 0.24081(4) 0.14125(4) 0.5000
Cu9 Cu 0.32493(5) 0.12599(5) 0.5000
Cu2 Cu -0.0000 0.5000 0.18594(6)
O8 O -0.0000 0.5000 0.0830(4)
O10 O 0.31482(13) 0.75332(16) 0.0655(2)
O11 O 0.03744(17) 0.54894(15) 0.1902(2)
O13 O 0.03972(17) 0.55163(18) 0.2986(3)
O14 O 0.33009(14) 0.82455(16) 0.0659(2)
C26 C 0.2759(3) 0.8017(3) 0.1346(4)
C27 C 0.2483(3) 0.7679(3) 0.1467(3)
H12 H 0.2529 0.7423 0.1244
C28 C 0.2712(4) 0.8413(2) 0.1679(5)
H13 H 0.2879 0.8654 0.1587
C29 C 0.0791(3) 0.6021(3) 0.2382(5)
C30 C 0.1337(3) 0.6740(4) 0.2258(6)
C31 C 0.2135(4) 0.7694(3) 0.1905(5)
C32 C 0.0514(3) 0.5647(3) 0.2469(4)
C33 C 0.1006(3) 0.6122(4) 0.1739(4)
H14 H 0.0971 0.5949 0.1375
C34 C 0.1159(3) 0.6618(4) 0.2856(5)
H15 H 0.1207 0.6784 0.3223
C35 C 0.3111(3) 0.7907(3) 0.0823(4)
C37 C 0.2376(4) 0.8411(5) 0.2181(5)
C40 C 0.1824(3) 0.7367(3) 0.2088(4)
C41 C 0.0909(3) 0.6246(4) 0.2896(5)
H18 H 0.0822 0.6152 0.3303
C42 C 0.2085(4) 0.8097(5) 0.2243(7)
H19 H 0.1847 0.8139 0.2509
C43 C 0.1625(3) 0.7095(4) 0.2171(4)
C44 C 0.2201(4) 0.9811(4) 0.3288(6)
H20 H 0.1934 0.9700 0.3170
C46 C 0.2603(6) 0.9593(4) 0.3120(5)
C47 C 0.1263(3) 0.6499(4) 0.1735(6)
H21 H 0.1387 0.6583 0.1345
C48 C 0.2953(4) 0.9784(7) 0.3215(10)
H22 H 0.3190 0.9681 0.2988
C49 C 0.2470(4) 0.9183(4) 0.2737(6)
C50 C 0.2425(4) 0.8865(3) 0.2535(5)
Cu4 Cu 0.35875(4) 0.74081(4) 0.0000
Cu7 Cu 0.0000 0.5000 0.31406(6)
Cu8 Cu 0.37401(5) 0.82493(5) 0.0000
O20 O 0.05163(18) 0.46028(17) 0.2014(3)
H26 H 0.0183274 0.523957 0.066967
Cu4_2 Cu 0.35875(4) 0.74081(4) 1.0000
Cu8_2 Cu 0.37401(5) 0.82493(5) 1.0000
Cu1 Cu 0.64125(4) 0.25919(4) 0.0000
Cu2_2 Cu 1.0000 0.5000 0.18594(6)
Cu3 Cu 0.62599(5) 0.17507(5) 0.0000
O1 O 0.6523(2) 0.3280(2) 0.0000
O2 O 0.68518(13) 0.24668(16) 0.0655(2)
O3 O 0.96256(17) 0.45106(15) 0.1902(2)
O5 O 0.96028(17) 0.44837(18) 0.2986(3)
O6 O 0.66991(14) 0.17545(16) 0.0659(2)
C1 C 0.7241(3) 0.1983(3) 0.1346(4)
C2 C 0.7517(3) 0.2321(3) 0.1467(3)
H1 H 0.7471 0.2577 0.1244
C3 C 0.7288(4) 0.1587(2) 0.1679(5)
H2 H 0.7121 0.1346 0.1587
C4 C 0.9209(3) 0.3979(3) 0.2382(5)
C5 C 0.8663(3) 0.3260(4) 0.2258(6)
O8_2 O 1.0000 0.5000 0.0830(4)
C6 C 0.7865(4) 0.2306(3) 0.1905(5)
C7 C 0.9486(3) 0.4353(3) 0.2469(4)
C8 C 0.8994(3) 0.3878(4) 0.1739(4)
H3 H 0.9029 0.4051 0.1375
C9 C 0.8841(3) 0.3382(4) 0.2856(5)
H4 H 0.8793 0.3216 0.3223
C10 C 0.6889(3) 0.2093(3) 0.0823(4)
C12 C 0.7624(4) 0.1589(5) 0.2181(5)
C15 C 0.8176(3) 0.2633(3) 0.2088(4)
C16 C 0.9091(3) 0.3754(4) 0.2896(5)
H7 H 0.9178 0.3848 0.3303
C17 C 0.7915(4) 0.1903(5) 0.2243(7)
H8 H 0.8153 0.1861 0.2509
C18 C 0.8375(3) 0.2905(4) 0.2171(4)
C19 C 0.7799(4) 0.0189(4) 0.3288(6)
H9 H 0.8066 0.0300 0.3170
O9 O 0.6168(3) 0.1040(3) 0.0000
C21 C 0.7397(6) 0.0407(4) 0.3120(5)
C22 C 0.8737(3) 0.3501(4) 0.1735(6)
H10 H 0.8613 0.3417 0.1345
C23 C 0.7047(4) 0.0216(7) 0.3215(10)
H11 H 0.6810 0.0319 0.2988
C24 C 0.7530(4) 0.0817(4) 0.2737(6)
C25 C 0.7575(4) 0.1135(3) 0.2535(5)
Cu7_2 Cu 1.0000 0.5000 0.31406(6)
O18 O 0.59462(15) 0.25865(19) 0.0664(2)
O19 O 0.94837(18) 0.53972(17) 0.2014(3)
O23 O 0.58113(18) 0.1901(2) 0.0664(3)
H23 H 0.6391 0.340921 0.0392727
H24 H 0.683773 0.333747 5.55355e-18
H25 H 0.970089 0.503894 0.066967
H27 H 0.63039 0.0914896 0.0392727
H28 H 0.585518 0.0972919 5.55355e-18
Cu1_2 Cu 0.64125(4) 0.25919(4) 1.0000
Cu3_2 Cu 0.62599(5) 0.17507(5) 1.0000
O1_2 O 0.6523(2) 0.3280(2) 1.0000
O9_2 O 0.6168(3) 0.1040(3) 1.0000
O16 O 0.68518(13) 0.24668(16) 0.9345(2)
O17 O 0.59462(15) 0.25865(19) 0.9336(2)
O21 O 0.66991(14) 0.17545(16) 0.9341(2)
O22 O 0.58113(18) 0.1901(2) 0.9336(3)
H24_2 H 0.683773 0.333747 1
H28_2 H 0.585518 0.0972919 1
O4 O 0.75865(19) 0.90538(15) 0.4336(2)
O7 O 0.6901(2) 0.91887(18) 0.4336(3)
C11 C 0.7263(3) 0.9281(4) 0.4215(5)
C13 C 0.6977(6) 0.9881(4) 0.3606(8)
H5 H 0.6707 0.9800 0.3759
C14 C 0.7758(5) 0.9784(4) 0.3656(6)
H6 H 0.7994 0.9626 0.3802
C20 C 0.7362(5) 0.9669(3) 0.3755(5)
Cu6 Cu 0.75919(4) 0.85875(4) 0.5000
Cu10 Cu 0.67507(5) 0.87401(5) 0.5000
O1_3 O 0.3477(2) 0.6720(2) 0.0000
O9_3 O 0.3832(3) 0.8960(3) 0.0000
O18_2 O 0.40538(15) 0.74135(19) 0.0664(2)
O23_2 O 0.41887(18) 0.8099(2) 0.0664(3)
H23_2 H 0.3609 0.659079 0.0392727
H24_3 H 0.316227 0.666253 5.55355e-18
H25_2 H 0.029911 0.496106 0.066967
H27_2 H 0.36961 0.90851 0.0392727
H28_3 H 0.414482 0.902708 5.55355e-18
O1_4 O 0.3477(2) 0.6720(2) 1.0000
O9_4 O 0.3832(3) 0.8960(3) 1.0000
O16_2 O 0.31482(13) 0.75332(16) 0.9345(2)
O17_2 O 0.40538(15) 0.74135(19) 0.9336(2)
O21_2 O 0.33009(14) 0.82455(16) 0.9341(2)
O22_2 O 0.41887(18) 0.8099(2) 0.9336(3)
H24_4 H 0.316227 0.666253 1
H28_4 H 0.414482 0.902708 1
H26_2 H 0.981673 0.476043 0.066967
Cu2_3 Cu 0.0000 0.5000 0.68594(6)
O1_5 O 0.1720(2) 0.1523(2) 0.5000
O2_2 O 0.25332(16) 0.18518(13) 0.5655(2)
O3_2 O 0.04894(15) 0.46256(17) 0.6902(2)
O5_2 O 0.05163(18) 0.46028(17) 0.7986(3)
O6_2 O 0.32455(16) 0.16991(14) 0.5659(2)
C1_2 C 0.3017(3) 0.2241(3) 0.6346(4)
C2_2 C 0.2679(3) 0.2517(3) 0.6467(3)
H1_2 H 0.2423 0.2471 0.6244
C3_2 C 0.3413(2) 0.2288(4) 0.6679(5)
H2_2 H 0.3654 0.2121 0.6587
C4_2 C 0.1021(3) 0.4209(3) 0.7382(5)
C5_2 C 0.1740(4) 0.3663(3) 0.7258(6)
O8_3 O -0.0000 0.5000 0.5830(4)
C6_2 C 0.2694(3) 0.2865(4) 0.6905(5)
C7_2 C 0.0647(3) 0.4486(3) 0.7469(4)
C8_2 C 0.1122(4) 0.3994(3) 0.6739(4)
H3_2 H 0.0949 0.4029 0.6375
C9_2 C 0.1618(4) 0.3841(3) 0.7856(5)
H4_2 H 0.1784 0.3793 0.8223
C10_2 C 0.2907(3) 0.1889(3) 0.5823(4)
C11_2 C 0.5719(4) 0.2263(3) 0.9215(5)
C12_2 C 0.3411(5) 0.2624(4) 0.7181(5)
C13_2 C 0.5119(4) 0.1977(6) 0.8606(8)
H5_2 H 0.5200 0.1707 0.8759
C14_2 C 0.5216(4) 0.2758(5) 0.8656(6)
H6_2 H 0.5374 0.2994 0.8802
C15_2 C 0.2367(3) 0.3176(3) 0.7088(4)
C16_2 C 0.1246(4) 0.4091(3) 0.7896(5)
H7_2 H 0.1152 0.4178 0.8303
C17_2 C 0.3097(5) 0.2915(4) 0.7243(7)
H8_2 H 0.3139 0.3153 0.7509
C18_2 C 0.2095(4) 0.3375(3) 0.7171(4)
C19_2 C 0.4811(4) 0.2799(4) 0.8288(6)
H9_2 H 0.4700 0.3066 0.8170
C20_2 C 0.5331(3) 0.2362(5) 0.8755(5)
O9_5 O 0.3960(3) 0.1168(3) 0.5000
C21_2 C 0.4593(4) 0.2397(6) 0.8120(5)
C22_2 C 0.1499(4) 0.3737(3) 0.6735(6)
H10_2 H 0.1583 0.3613 0.6345
C23_2 C 0.4784(7) 0.2047(4) 0.8215(10)
H11_2 H 0.4681 0.1810 0.7988
C24_2 C 0.4183(4) 0.2530(4) 0.7737(6)
C25_2 C 0.3865(3) 0.2575(4) 0.7535(5)
Cu7_3 Cu 0.0000 0.5000 0.81406(6)
O16_3 O 0.25332(16) 0.18518(13) 0.4345(2)
O18_3 O 0.24135(19) 0.09462(15) 0.5664(2)
O20_2 O 0.03972(17) 0.55163(18) 0.7014(3)
O21_3 O 0.32455(16) 0.16991(14) 0.4341(2)
O23_3 O 0.3099(2) 0.08113(18) 0.5664(3)
Cu2_4 Cu 1.0000 0.5000 0.68594(6)
O8_4 O 1.0000 0.5000 0.5830(4)
O10_2 O 0.74668(16) 0.81482(13) 0.5655(2)
O11_2 O 0.95106(15) 0.53744(17) 0.6902(2)
O13_2 O 0.94837(18) 0.53972(17) 0.7986(3)
O14_2 O 0.67545(16) 0.83009(14) 0.5659(2)
C26_2 C 0.6983(3) 0.7759(3) 0.6346(4)
C27_2 C 0.7321(3) 0.7483(3) 0.6467(3)
H12_2 H 0.7577 0.7529 0.6244
C28_2 C 0.6587(2) 0.7712(4) 0.6679(5)
H13_2 H 0.6346 0.7879 0.6587
C29_2 C 0.8979(3) 0.5791(3) 0.7382(5)
C30_2 C 0.8260(4) 0.6337(3) 0.7258(6)
C31_2 C 0.7306(3) 0.7135(4) 0.6905(5)
C32_2 C 0.9353(3) 0.5514(3) 0.7469(4)
C33_2 C 0.8878(4) 0.6006(3) 0.6739(4)
H14_2 H 0.9051 0.5971 0.6375
C34_2 C 0.8382(4) 0.6159(3) 0.7856(5)
H15_2 H 0.8216 0.6207 0.8223
C35_2 C 0.7093(3) 0.8111(3) 0.5823(4)
C36_2 C 0.4281(4) 0.7737(3) 0.9215(5)
C37_2 C 0.6589(5) 0.7376(4) 0.7181(5)
C38_2 C 0.4881(4) 0.8023(6) 0.8606(8)
H16_2 H 0.4800 0.8293 0.8759
C39_2 C 0.4784(4) 0.7242(5) 0.8656(6)
H17_2 H 0.4626 0.7006 0.8802
C40_2 C 0.7633(3) 0.6824(3) 0.7088(4)
C41_2 C 0.8754(4) 0.5909(3) 0.7896(5)
H18_2 H 0.8848 0.5822 0.8303
C42_2 C 0.6903(5) 0.7085(4) 0.7243(7)
H19_2 H 0.6861 0.6847 0.7509
C43_2 C 0.7905(4) 0.6625(3) 0.7171(4)
C44_2 C 0.5189(4) 0.7201(4) 0.8288(6)
H20_2 H 0.5300 0.6934 0.8170
C45_2 C 0.4669(3) 0.7638(5) 0.8755(5)
C46_2 C 0.5407(4) 0.7603(6) 0.8120(5)
C47_2 C 0.8501(4) 0.6263(3) 0.6735(6)
H21_2 H 0.8417 0.6387 0.6345
C48_2 C 0.5216(7) 0.7953(4) 0.8215(10)
H22_2 H 0.5319 0.8190 0.7988
C49_2 C 0.5817(4) 0.7470(4) 0.7737(6)
C50_2 C 0.6135(3) 0.7425(4) 0.7535(5)
Cu7_4 Cu 1.0000 0.5000 0.81406(6)
O19_2 O 0.96028(17) 0.44837(18) 0.7014(3)
H25_3 H 0.996106 0.470089 0.566967
H26_3 H 0.976043 0.518327 0.566967
H25_4 H 0.0038936 0.529911 0.566967
H26_4 H 0.0239569 0.481673 0.566967
O1_6 O 0.8280(2) 0.8477(2) 0.5000
O9_6 O 0.6040(3) 0.8832(3) 0.5000
O16_4 O 0.74668(16) 0.81482(13) 0.4345(2)
O18_4 O 0.75865(19) 0.90538(15) 0.5664(2)
O21_4 O 0.67545(16) 0.83009(14) 0.4341(2)
O23_4 O 0.6901(2) 0.91887(18) 0.5664(3)
C11_3 C 0.2737(3) 0.0719(4) 0.5785(5)
C13_3 C 0.3023(6) 0.0119(4) 0.6394(8)
H5_3 H 0.3293 0.0200 0.6241
C14_3 C 0.2242(5) 0.0216(4) 0.6344(6)
H6_3 H 0.2006 0.0374 0.6198
C20_3 C 0.2638(5) 0.0331(3) 0.6245(5)
O3_3 O 0.03744(17) 0.54894(15) 0.8098(2)
C1_3 C 0.2759(3) 0.8017(3) 0.8654(4)
C2_3 C 0.2483(3) 0.7679(3) 0.8533(3)
H1_3 H 0.2529 0.7423 0.8756
C3_3 C 0.2712(4) 0.8413(2) 0.8321(5)
H2_3 H 0.2879 0.8654 0.8413
C4_3 C 0.0791(3) 0.6021(3) 0.7618(5)
C5_3 C 0.1337(3) 0.6740(4) 0.7742(6)
O8_5 O -0.0000 0.5000 0.9170(4)
C6_3 C 0.2135(4) 0.7694(3) 0.8095(5)
C7_3 C 0.0514(3) 0.5647(3) 0.7531(4)
C8_3 C 0.1006(3) 0.6122(4) 0.8261(4)
H3_3 H 0.0971 0.5949 0.8625
C9_3 C 0.1159(3) 0.6618(4) 0.7144(5)
H4_3 H 0.1207 0.6784 0.6777
C10_3 C 0.3111(3) 0.7907(3) 0.9177(4)
C12_3 C 0.2376(4) 0.8411(5) 0.7819(5)
C15_3 C 0.1824(3) 0.7367(3) 0.7912(4)
C16_3 C 0.0909(3) 0.6246(4) 0.7104(5)
H7_3 H 0.0822 0.6152 0.6697
C17_3 C 0.2085(4) 0.8097(5) 0.7757(7)
H8_3 H 0.1847 0.8139 0.7491
C18_3 C 0.1625(3) 0.7095(4) 0.7829(4)
C19_3 C 0.2201(4) 0.9811(4) 0.6712(6)
H9_3 H 0.1934 0.9700 0.6830
C21_3 C 0.2603(6) 0.9593(4) 0.6880(5)
C22_3 C 0.1263(3) 0.6499(4) 0.8265(6)
H10_3 H 0.1387 0.6583 0.8655
C23_3 C 0.2953(4) 0.9784(7) 0.6785(10)
H11_3 H 0.3190 0.9681 0.7012
C24_3 C 0.2470(4) 0.9183(4) 0.7263(6)
C25_3 C 0.2425(4) 0.8865(3) 0.7465(5)
H23_3 H 0.3609 0.659079 0.960727
H25_5 H 0.029911 0.496106 0.933033
H27_3 H 0.36961 0.90851 0.960727
O8_6 O 1.0000 0.5000 0.9170(4)
O11_3 O 0.96256(17) 0.45106(15) 0.8098(2)
C26_3 C 0.7241(3) 0.1983(3) 0.8654(4)
C27_3 C 0.7517(3) 0.2321(3) 0.8533(3)
H12_3 H 0.7471 0.2577 0.8756
C28_3 C 0.7288(4) 0.1587(2) 0.8321(5)
H13_3 H 0.7121 0.1346 0.8413
C29_3 C 0.9209(3) 0.3979(3) 0.7618(5)
C30_3 C 0.8663(3) 0.3260(4) 0.7742(6)
C31_3 C 0.7865(4) 0.2306(3) 0.8095(5)
C32_3 C 0.9486(3) 0.4353(3) 0.7531(4)
C33_3 C 0.8994(3) 0.3878(4) 0.8261(4)
H14_3 H 0.9029 0.4051 0.8625
C34_3 C 0.8841(3) 0.3382(4) 0.7144(5)
H15_3 H 0.8793 0.3216 0.6777
C35_3 C 0.6889(3) 0.2093(3) 0.9177(4)
C37_3 C 0.7624(4) 0.1589(5) 0.7819(5)
C40_3 C 0.8176(3) 0.2633(3) 0.7912(4)
C41_3 C 0.9091(3) 0.3754(4) 0.7104(5)
H18_3 H 0.9178 0.3848 0.6697
C42_3 C 0.7915(4) 0.1903(5) 0.7757(7)
H19_3 H 0.8153 0.1861 0.7491
C43_3 C 0.8375(3) 0.2905(4) 0.7829(4)
C44_3 C 0.7799(4) 0.0189(4) 0.6712(6)
H20_3 H 0.8066 0.0300 0.6830
C46_3 C 0.7397(6) 0.0407(4) 0.6880(5)
C47_3 C 0.8737(3) 0.3501(4) 0.8265(6)
H21_3 H 0.8613 0.3417 0.8655
C48_3 C 0.7047(4) 0.0216(7) 0.6785(10)
H22_3 H 0.6810 0.0319 0.7012
C49_3 C 0.7530(4) 0.0817(4) 0.7263(6)
C50_3 C 0.7575(4) 0.1135(3) 0.7465(5)
H26_5 H 0.981673 0.476043 0.933033
C36_3 C 0.7263(3) 0.9281(4) 0.5785(5)
C38_3 C 0.6977(6) 0.9881(4) 0.6394(8)
H16_3 H 0.6707 0.9800 0.6241
C39_3 C 0.7758(5) 0.9784(4) 0.6344(6)
H17_3 H 0.7994 0.9626 0.6198
C45_3 C 0.7362(5) 0.9669(3) 0.6245(5)
H26_6 H 0.0183274 0.523957 0.933033
H23_4 H 0.6391 0.340921 0.960727
H25_6 H 0.970089 0.503894 0.933033
H27_4 H 0.63039 0.0914896 0.960727
O8_7 O -0.0000 0.5000 0.4170(4)
O11_4 O 0.04894(15) 0.46256(17) 0.3098(2)
C26_4 C 0.3017(3) 0.2241(3) 0.3654(4)
C27_4 C 0.2679(3) 0.2517(3) 0.3533(3)
H12_4 H 0.2423 0.2471 0.3756
C28_4 C 0.3413(2) 0.2288(4) 0.3321(5)
H13_4 H 0.3654 0.2121 0.3413
C29_4 C 0.1021(3) 0.4209(3) 0.2618(5)
C30_4 C 0.1740(4) 0.3663(3) 0.2742(6)
C31_4 C 0.2694(3) 0.2865(4) 0.3095(5)
C32_4 C 0.0647(3) 0.4486(3) 0.2531(4)
C33_4 C 0.1122(4) 0.3994(3) 0.3261(4)
H14_4 H 0.0949 0.4029 0.3625
C34_4 C 0.1618(4) 0.3841(3) 0.2144(5)
H15_4 H 0.1784 0.3793 0.1777
C35_4 C 0.2907(3) 0.1889(3) 0.4177(4)
C36_4 C 0.5719(4) 0.2263(3) 0.0785(5)
C37_4 C 0.3411(5) 0.2624(4) 0.2819(5)
C38_4 C 0.5119(4) 0.1977(6) 0.1394(8)
H16_4 H 0.5200 0.1707 0.1241
C39_4 C 0.5216(4) 0.2758(5) 0.1344(6)
H17_4 H 0.5374 0.2994 0.1198
C40_4 C 0.2367(3) 0.3176(3) 0.2912(4)
C41_4 C 0.1246(4) 0.4091(3) 0.2104(5)
H18_4 H 0.1152 0.4178 0.1697
C42_4 C 0.3097(5) 0.2915(4) 0.2757(7)
H19_4 H 0.3139 0.3153 0.2491
C43_4 C 0.2095(4) 0.3375(3) 0.2829(4)
C44_4 C 0.4811(4) 0.2799(4) 0.1712(6)
H20_4 H 0.4700 0.3066 0.1830
C45_4 C 0.5331(3) 0.2362(5) 0.1245(5)
C46_4 C 0.4593(4) 0.2397(6) 0.1880(5)
C47_4 C 0.1499(4) 0.3737(3) 0.3265(6)
H21_4 H 0.1583 0.3613 0.3655
C48_4 C 0.4784(7) 0.2047(4) 0.1785(10)
H22_4 H 0.4681 0.1810 0.2012
C49_4 C 0.4183(4) 0.2530(4) 0.2263(6)
C50_4 C 0.3865(3) 0.2575(4) 0.2465(5)
H25_7 H 0.0038936 0.529911 0.433033
H26_7 H 0.0239569 0.481673 0.433033
O3_4 O 0.95106(15) 0.53744(17) 0.3098(2)
C1_4 C 0.6983(3) 0.7759(3) 0.3654(4)
C2_4 C 0.7321(3) 0.7483(3) 0.3533(3)
H1_4 H 0.7577 0.7529 0.3756
C3_4 C 0.6587(2) 0.7712(4) 0.3321(5)
H2_4 H 0.6346 0.7879 0.3413
C4_4 C 0.8979(3) 0.5791(3) 0.2618(5)
C5_4 C 0.8260(4) 0.6337(3) 0.2742(6)
O8_8 O 1.0000 0.5000 0.4170(4)
C6_4 C 0.7306(3) 0.7135(4) 0.3095(5)
C7_4 C 0.9353(3) 0.5514(3) 0.2531(4)
C8_4 C 0.8878(4) 0.6006(3) 0.3261(4)
H3_4 H 0.9051 0.5971 0.3625
C9_4 C 0.8382(4) 0.6159(3) 0.2144(5)
H4_4 H 0.8216 0.6207 0.1777
C10_4 C 0.7093(3) 0.8111(3) 0.4177(4)
C11_4 C 0.4281(4) 0.7737(3) 0.0785(5)
C12_4 C 0.6589(5) 0.7376(4) 0.2819(5)
C13_4 C 0.4881(4) 0.8023(6) 0.1394(8)
H5_4 H 0.4800 0.8293 0.1241
C14_4 C 0.4784(4) 0.7242(5) 0.1344(6)
H6_4 H 0.4626 0.7006 0.1198
C15_4 C 0.7633(3) 0.6824(3) 0.2912(4)
C16_4 C 0.8754(4) 0.5909(3) 0.2104(5)
H7_4 H 0.8848 0.5822 0.1697
C17_4 C 0.6903(5) 0.7085(4) 0.2757(7)
H8_4 H 0.6861 0.6847 0.2491
C18_4 C 0.7905(4) 0.6625(3) 0.2829(4)
C19_4 C 0.5189(4) 0.7201(4) 0.1712(6)
H9_4 H 0.5300 0.6934 0.1830
C20_4 C 0.4669(3) 0.7638(5) 0.1245(5)
C21_4 C 0.5407(4) 0.7603(6) 0.1880(5)
C22_4 C 0.8501(4) 0.6263(3) 0.3265(6)
H10_4 H 0.8417 0.6387 0.3655
C23_4 C 0.5216(7) 0.7953(4) 0.1785(10)
H11_4 H 0.5319 0.8190 0.2012
C24_4 C 0.5817(4) 0.7470(4) 0.2263(6)
C25_4 C 0.6135(3) 0.7425(4) 0.2465(5)
H25_8 H 0.996106 0.470089 0.433033
H26_8 H 0.976043 0.518327 0.433033
O4_2 O 0.09462(15) 0.75865(19) 0.4336(2)
O7_2 O 0.08113(18) 0.6901(2) 0.4336(3)
C11_5 C 0.0719(4) 0.7263(3) 0.4215(5)
C13_5 C 0.0119(4) 0.6977(6) 0.3606(8)
H5_5 H 0.0200 0.6707 0.3759
C14_5 C 0.0216(4) 0.7758(5) 0.3656(6)
H6_5 H 0.0374 0.7994 0.3802
C20_5 C 0.0331(3) 0.7362(5) 0.3755(5)
Cu6_2 Cu 0.14125(4) 0.75919(4) 0.5000
Cu10_2 Cu 0.12599(5) 0.67507(5) 0.5000
Cu2_5 Cu 0.5000 0.0000 0.18594(6)
O8_9 O 0.5000 0.0000 0.0830(4)
O10_3 O 0.24668(16) 0.31482(13) 0.0655(2)
O11_5 O 0.45106(15) 0.03744(17) 0.1902(2)
O13_3 O 0.44837(18) 0.03972(17) 0.2986(3)
O14_3 O 0.17545(16) 0.33009(14) 0.0659(2)
C26_5 C 0.1983(3) 0.2759(3) 0.1346(4)
C27_5 C 0.2321(3) 0.2483(3) 0.1467(3)
H12_5 H 0.2577 0.2529 0.1244
C28_5 C 0.1587(2) 0.2712(4) 0.1679(5)
H13_5 H 0.1346 0.2879 0.1587
C29_5 C 0.3979(3) 0.0791(3) 0.2382(5)
C30_5 C 0.3260(4) 0.1337(3) 0.2258(6)
C31_5 C 0.2306(3) 0.2135(4) 0.1905(5)
C32_5 C 0.4353(3) 0.0514(3) 0.2469(4)
C33_5 C 0.3878(4) 0.1006(3) 0.1739(4)
H14_5 H 0.4051 0.0971 0.1375
C34_5 C 0.3382(4) 0.1159(3) 0.2856(5)
H15_5 H 0.3216 0.1207 0.3223
C35_5 C 0.2093(3) 0.3111(3) 0.0823(4)
C37_5 C 0.1589(5) 0.2376(4) 0.2181(5)
C40_5 C 0.2633(3) 0.1824(3) 0.2088(4)
C41_5 C 0.3754(4) 0.0909(3) 0.2896(5)
H18_5 H 0.3848 0.0822 0.3303
C42_5 C 0.1903(5) 0.2085(4) 0.2243(7)
H19_5 H 0.1861 0.1847 0.2509
C43_5 C 0.2905(4) 0.1625(3) 0.2171(4)
C44_5 C 0.0189(4) 0.2201(4) 0.3288(6)
H20_5 H 0.0300 0.1934 0.3170
C46_5 C 0.0407(4) 0.2603(6) 0.3120(5)
C47_5 C 0.3501(4) 0.1263(3) 0.1735(6)
H21_5 H 0.3417 0.1387 0.1345
C48_5 C 0.0216(7) 0.2953(4) 0.3215(10)
H22_5 H 0.0319 0.3190 0.2988
C49_5 C 0.0817(4) 0.2470(4) 0.2737(6)
C50_5 C 0.1135(3) 0.2425(4) 0.2535(5)
Cu4_3 Cu 0.25919(4) 0.35875(4) 0.0000
Cu7_5 Cu 0.5000 0.0000 0.31406(6)
Cu8_3 Cu 0.17507(5) 0.37401(5) 0.0000
O20_3 O 0.53972(17) 0.05163(18) 0.2014(3)
H26_9 H 0.476043 0.0183274 0.066967
Cu4_4 Cu 0.25919(4) 0.35875(4) 1.0000
Cu8_4 Cu 0.17507(5) 0.37401(5) 1.0000
Cu1_3 Cu 0.74081(4) 0.64125(4) 0.0000
Cu2_6 Cu 0.5000 1.0000 0.18594(6)
Cu3_3 Cu 0.82493(5) 0.62599(5) 0.0000
O1_7 O 0.6720(2) 0.6523(2) 0.0000
O2_3 O 0.75332(16) 0.68518(13) 0.0655(2)
O3_5 O 0.54894(15) 0.96256(17) 0.1902(2)
O5_3 O 0.55163(18) 0.96028(17) 0.2986(3)
O6_3 O 0.82455(16) 0.66991(14) 0.0659(2)
C1_5 C 0.8017(3) 0.7241(3) 0.1346(4)
C2_5 C 0.7679(3) 0.7517(3) 0.1467(3)
H1_5 H 0.7423 0.7471 0.1244
C3_5 C 0.8413(2) 0.7288(4) 0.1679(5)
H2_5 H 0.8654 0.7121 0.1587
C4_5 C 0.6021(3) 0.9209(3) 0.2382(5)
C5_5 C 0.6740(4) 0.8663(3) 0.2258(6)
O8_10 O 0.5000 1.0000 0.0830(4)
C6_5 C 0.7694(3) 0.7865(4) 0.1905(5)
C7_5 C 0.5647(3) 0.9486(3) 0.2469(4)
C8_5 C 0.6122(4) 0.8994(3) 0.1739(4)
H3_5 H 0.5949 0.9029 0.1375
C9_5 C 0.6618(4) 0.8841(3) 0.2856(5)
H4_5 H 0.6784 0.8793 0.3223
C10_5 C 0.7907(3) 0.6889(3) 0.0823(4)
C12_5 C 0.8411(5) 0.7624(4) 0.2181(5)
C15_5 C 0.7367(3) 0.8176(3) 0.2088(4)
C16_5 C 0.6246(4) 0.9091(3) 0.2896(5)
H7_5 H 0.6152 0.9178 0.3303
C17_5 C 0.8097(5) 0.7915(4) 0.2243(7)
H8_5 H 0.8139 0.8153 0.2509
C18_5 C 0.7095(4) 0.8375(3) 0.2171(4)
C19_5 C 0.9811(4) 0.7799(4) 0.3288(6)
H9_5 H 0.9700 0.8066 0.3170
O9_7 O 0.8960(3) 0.6168(3) 0.0000
C21_5 C 0.9593(4) 0.7397(6) 0.3120(5)
C22_5 C 0.6499(4) 0.8737(3) 0.1735(6)
H10_5 H 0.6583 0.8613 0.1345
C23_5 C 0.9784(7) 0.7047(4) 0.3215(10)
H11_5 H 0.9681 0.6810 0.2988
C24_5 C 0.9183(4) 0.7530(4) 0.2737(6)
C25_5 C 0.8865(3) 0.7575(4) 0.2535(5)
Cu7_6 Cu 0.5000 1.0000 0.31406(6)
O18_5 O 0.74135(19) 0.59462(15) 0.0664(2)
O19_3 O 0.46028(17) 0.94837(18) 0.2014(3)
O23_5 O 0.8099(2) 0.58113(18) 0.0664(3)
H23_5 H 0.659079 0.6391 0.0392727
H24_5 H 0.666253 0.683773 5.55355e-18
H25_9 H 0.496106 0.970089 0.066967
H27_5 H 0.90851 0.63039 0.0392727
H28_5 H 0.902708 0.585518 5.55355e-18
Cu1_4 Cu 0.74081(4) 0.64125(4) 1.0000
Cu3_4 Cu 0.82493(5) 0.62599(5) 1.0000
O1_8 O 0.6720(2) 0.6523(2) 1.0000
O9_8 O 0.8960(3) 0.6168(3) 1.0000
O16_5 O 0.75332(16) 0.68518(13) 0.9345(2)
O17_3 O 0.74135(19) 0.59462(15) 0.9336(2)
O21_5 O 0.82455(16) 0.66991(14) 0.9341(2)
O22_3 O 0.8099(2) 0.58113(18) 0.9336(3)
H24_6 H 0.666253 0.683773 1
H28_6 H 0.902708 0.585518 1
O12_2 O 0.90538(15) 0.24135(19) 0.4336(2)
O15_2 O 0.91887(18) 0.3099(2) 0.4336(3)
C36_5 C 0.9281(4) 0.2737(3) 0.4215(5)
C38_5 C 0.9881(4) 0.3023(6) 0.3606(8)
H16_5 H 0.9800 0.3293 0.3759
C39_5 C 0.9784(4) 0.2242(5) 0.3656(6)
H17_5 H 0.9626 0.2006 0.3802
C45_5 C 0.9669(3) 0.2638(5) 0.3755(5)
Cu5_2 Cu 0.85875(4) 0.24081(4) 0.5000
Cu9_2 Cu 0.87401(5) 0.32493(5) 0.5000
O1_9 O 0.3280(2) 0.3477(2) 0.0000
O9_9 O 0.1040(3) 0.3832(3) 0.0000
O18_6 O 0.25865(19) 0.40538(15) 0.0664(2)
O23_6 O 0.1901(2) 0.41887(18) 0.0664(3)
H23_6 H 0.340921 0.3609 0.0392727
H24_7 H 0.333747 0.316227 5.55355e-18
H25_10 H 0.503894 0.029911 0.066967
H27_6 H 0.0914896 0.36961 0.0392727
H28_7 H 0.0972919 0.414482 5.55355e-18
O1_10 O 0.3280(2) 0.3477(2) 1.0000
O9_10 O 0.1040(3) 0.3832(3) 1.0000
O16_6 O 0.24668(16) 0.31482(13) 0.9345(2)
O17_4 O 0.25865(19) 0.40538(15) 0.9336(2)
O21_6 O 0.17545(16) 0.33009(14) 0.9341(2)
O22_4 O 0.1901(2) 0.41887(18) 0.9336(3)
H24_8 H 0.333747 0.316227 1
H28_8 H 0.0972919 0.414482 1
H26_10 H 0.523957 0.981673 0.066967
Cu2_7 Cu 0.5000 0.0000 0.68594(6)
O8_11 O 0.5000 0.0000 0.5830(4)
O10_4 O 0.81482(13) 0.25332(16) 0.5655(2)
O11_6 O 0.53744(17) 0.04894(15) 0.6902(2)
O13_4 O 0.53972(17) 0.05163(18) 0.7986(3)
O14_4 O 0.83009(14) 0.32455(16) 0.5659(2)
C26_6 C 0.7759(3) 0.3017(3) 0.6346(4)
C27_6 C 0.7483(3) 0.2679(3) 0.6467(3)
H12_6 H 0.7529 0.2423 0.6244
C28_6 C 0.7712(4) 0.3413(2) 0.6679(5)
H13_6 H 0.7879 0.3654 0.6587
C29_6 C 0.5791(3) 0.1021(3) 0.7382(5)
C30_6 C 0.6337(3) 0.1740(4) 0.7258(6)
C31_6 C 0.7135(4) 0.2694(3) 0.6905(5)
C32_6 C 0.5514(3) 0.0647(3) 0.7469(4)
C33_6 C 0.6006(3) 0.1122(4) 0.6739(4)
H14_6 H 0.5971 0.0949 0.6375
C34_6 C 0.6159(3) 0.1618(4) 0.7856(5)
H15_6 H 0.6207 0.1784 0.8223
C35_6 C 0.8111(3) 0.2907(3) 0.5823(4)
C36_6 C 0.7737(3) 0.5719(4) 0.9215(5)
C37_6 C 0.7376(4) 0.3411(5) 0.7181(5)
C38_6 C 0.8023(6) 0.5119(4) 0.8606(8)
H16_6 H 0.8293 0.5200 0.8759
C39_6 C 0.7242(5) 0.5216(4) 0.8656(6)
H17_6 H 0.7006 0.5374 0.8802
C40_6 C 0.6824(3) 0.2367(3) 0.7088(4)
C41_6 C 0.5909(3) 0.1246(4) 0.7896(5)
H18_6 H 0.5822 0.1152 0.8303
C42_6 C 0.7085(4) 0.3097(5) 0.7243(7)
H19_6 H 0.6847 0.3139 0.7509
C43_6 C 0.6625(3) 0.2095(4) 0.7171(4)
C44_6 C 0.7201(4) 0.4811(4) 0.8288(6)
H20_6 H 0.6934 0.4700 0.8170
C45_6 C 0.7638(5) 0.5331(3) 0.8755(5)
C46_6 C 0.7603(6) 0.4593(4) 0.8120(5)
C47_6 C 0.6263(3) 0.1499(4) 0.6735(6)
H21_6 H 0.6387 0.1583 0.6345
C48_6 C 0.7953(4) 0.4784(7) 0.8215(10)
H22_6 H 0.8190 0.4681 0.7988
C49_6 C 0.7470(4) 0.4183(4) 0.7737(6)
C50_6 C 0.7425(4) 0.3865(3) 0.7535(5)
Cu7_7 Cu 0.5000 0.0000 0.81406(6)
O19_4 O 0.44837(18) 0.03972(17) 0.7014(3)
H25_11 H 0.470089 0.0038936 0.566967
H26_11 H 0.518327 0.0239569 0.566967
Cu2_8 Cu 0.5000 1.0000 0.68594(6)
O1_11 O 0.1523(2) 0.8280(2) 0.5000
O2_4 O 0.18518(13) 0.74668(16) 0.5655(2)
O3_6 O 0.46256(17) 0.95106(15) 0.6902(2)
O5_4 O 0.46028(17) 0.94837(18) 0.7986(3)
O6_4 O 0.16991(14) 0.67545(16) 0.5659(2)
C1_6 C 0.2241(3) 0.6983(3) 0.6346(4)
C2_6 C 0.2517(3) 0.7321(3) 0.6467(3)
H1_6 H 0.2471 0.7577 0.6244
C3_6 C 0.2288(4) 0.6587(2) 0.6679(5)
H2_6 H 0.2121 0.6346 0.6587
C4_6 C 0.4209(3) 0.8979(3) 0.7382(5)
C5_6 C 0.3663(3) 0.8260(4) 0.7258(6)
O8_12 O 0.5000 1.0000 0.5830(4)
C6_6 C 0.2865(4) 0.7306(3) 0.6905(5)
C7_6 C 0.4486(3) 0.9353(3) 0.7469(4)
C8_6 C 0.3994(3) 0.8878(4) 0.6739(4)
H3_6 H 0.4029 0.9051 0.6375
C9_6 C 0.3841(3) 0.8382(4) 0.7856(5)
H4_6 H 0.3793 0.8216 0.8223
C10_6 C 0.1889(3) 0.7093(3) 0.5823(4)
C11_6 C 0.2263(3) 0.4281(4) 0.9215(5)
C12_6 C 0.2624(4) 0.6589(5) 0.7181(5)
C13_6 C 0.1977(6) 0.4881(4) 0.8606(8)
H5_6 H 0.1707 0.4800 0.8759
C14_6 C 0.2758(5) 0.4784(4) 0.8656(6)
H6_6 H 0.2994 0.4626 0.8802
C15_6 C 0.3176(3) 0.7633(3) 0.7088(4)
C16_6 C 0.4091(3) 0.8754(4) 0.7896(5)
H7_6 H 0.4178 0.8848 0.8303
C17_6 C 0.2915(4) 0.6903(5) 0.7243(7)
H8_6 H 0.3153 0.6861 0.7509
C18_6 C 0.3375(3) 0.7905(4) 0.7171(4)
C19_6 C 0.2799(4) 0.5189(4) 0.8288(6)
H9_6 H 0.3066 0.5300 0.8170
C20_6 C 0.2362(5) 0.4669(3) 0.8755(5)
O9_11 O 0.1168(3) 0.6040(3) 0.5000
C21_6 C 0.2397(6) 0.5407(4) 0.8120(5)
C22_6 C 0.3737(3) 0.8501(4) 0.6735(6)
H10_6 H 0.3613 0.8417 0.6345
C23_6 C 0.2047(4) 0.5216(7) 0.8215(10)
H11_6 H 0.1810 0.5319 0.7988
C24_6 C 0.2530(4) 0.5817(4) 0.7737(6)
C25_6 C 0.2575(4) 0.6135(3) 0.7535(5)
Cu7_8 Cu 0.5000 1.0000 0.81406(6)
O16_7 O 0.18518(13) 0.74668(16) 0.4345(2)
O18_7 O 0.09462(15) 0.75865(19) 0.5664(2)
O20_4 O 0.55163(18) 0.96028(17) 0.7014(3)
O21_7 O 0.16991(14) 0.67545(16) 0.4341(2)
O23_7 O 0.08113(18) 0.6901(2) 0.5664(3)
O1_12 O 0.8477(2) 0.1720(2) 0.5000
O9_12 O 0.8832(3) 0.3960(3) 0.5000
O16_8 O 0.81482(13) 0.25332(16) 0.4345(2)
O18_8 O 0.90538(15) 0.24135(19) 0.5664(2)
O21_8 O 0.83009(14) 0.32455(16) 0.4341(2)
O23_8 O 0.91887(18) 0.3099(2) 0.5664(3)
H25_12 H 0.529911 0.996106 0.566967
H26_12 H 0.481673 0.976043 0.566967
C36_7 C 0.0719(4) 0.7263(3) 0.5785(5)
C38_7 C 0.0119(4) 0.6977(6) 0.6394(8)
H16_7 H 0.0200 0.6707 0.6241
C39_7 C 0.0216(4) 0.7758(5) 0.6344(6)
H17_7 H 0.0374 0.7994 0.6198
C45_7 C 0.0331(3) 0.7362(5) 0.6245(5)
O3_7 O 0.45106(15) 0.03744(17) 0.8098(2)
C1_7 C 0.1983(3) 0.2759(3) 0.8654(4)
C2_7 C 0.2321(3) 0.2483(3) 0.8533(3)
H1_7 H 0.2577 0.2529 0.8756
C3_7 C 0.1587(2) 0.2712(4) 0.8321(5)
H2_7 H 0.1346 0.2879 0.8413
C4_7 C 0.3979(3) 0.0791(3) 0.7618(5)
C5_7 C 0.3260(4) 0.1337(3) 0.7742(6)
O8_13 O 0.5000 0.0000 0.9170(4)
C6_7 C 0.2306(3) 0.2135(4) 0.8095(5)
C7_7 C 0.4353(3) 0.0514(3) 0.7531(4)
C8_7 C 0.3878(4) 0.1006(3) 0.8261(4)
H3_7 H 0.4051 0.0971 0.8625
C9_7 C 0.3382(4) 0.1159(3) 0.7144(5)
H4_7 H 0.3216 0.1207 0.6777
C10_7 C 0.2093(3) 0.3111(3) 0.9177(4)
C12_7 C 0.1589(5) 0.2376(4) 0.7819(5)
C15_7 C 0.2633(3) 0.1824(3) 0.7912(4)
C16_7 C 0.3754(4) 0.0909(3) 0.7104(5)
H7_7 H 0.3848 0.0822 0.6697
C17_7 C 0.1903(5) 0.2085(4) 0.7757(7)
H8_7 H 0.1861 0.1847 0.7491
C18_7 C 0.2905(4) 0.1625(3) 0.7829(4)
C19_7 C 0.0189(4) 0.2201(4) 0.6712(6)
H9_7 H 0.0300 0.1934 0.6830
C21_7 C 0.0407(4) 0.2603(6) 0.6880(5)
C22_7 C 0.3501(4) 0.1263(3) 0.8265(6)
H10_7 H 0.3417 0.1387 0.8655
C23_7 C 0.0216(7) 0.2953(4) 0.6785(10)
H11_7 H 0.0319 0.3190 0.7012
C24_7 C 0.0817(4) 0.2470(4) 0.7263(6)
C25_7 C 0.1135(3) 0.2425(4) 0.7465(5)
H23_7 H 0.340921 0.3609 0.960727
H25_13 H 0.503894 0.029911 0.933033
H27_7 H 0.0914896 0.36961 0.960727
O8_14 O 0.5000 1.0000 0.9170(4)
O11_7 O 0.54894(15) 0.96256(17) 0.8098(2)
C26_7 C 0.8017(3) 0.7241(3) 0.8654(4)
C27_7 C 0.7679(3) 0.7517(3) 0.8533(3)
H12_7 H 0.7423 0.7471 0.8756
C28_7 C 0.8413(2) 0.7288(4) 0.8321(5)
H13_7 H 0.8654 0.7121 0.8413
C29_7 C 0.6021(3) 0.9209(3) 0.7618(5)
C30_7 C 0.6740(4) 0.8663(3) 0.7742(6)
C31_7 C 0.7694(3) 0.7865(4) 0.8095(5)
C32_7 C 0.5647(3) 0.9486(3) 0.7531(4)
C33_7 C 0.6122(4) 0.8994(3) 0.8261(4)
H14_7 H 0.5949 0.9029 0.8625
C34_7 C 0.6618(4) 0.8841(3) 0.7144(5)
H15_7 H 0.6784 0.8793 0.6777
C35_7 C 0.7907(3) 0.6889(3) 0.9177(4)
C37_7 C 0.8411(5) 0.7624(4) 0.7819(5)
C40_7 C 0.7367(3) 0.8176(3) 0.7912(4)
C41_7 C 0.6246(4) 0.9091(3) 0.7104(5)
H18_7 H 0.6152 0.9178 0.6697
C42_7 C 0.8097(5) 0.7915(4) 0.7757(7)
H19_7 H 0.8139 0.8153 0.7491
C43_7 C 0.7095(4) 0.8375(3) 0.7829(4)
C44_7 C 0.9811(4) 0.7799(4) 0.6712(6)
H20_7 H 0.9700 0.8066 0.6830
C46_7 C 0.9593(4) 0.7397(6) 0.6880(5)
C47_7 C 0.6499(4) 0.8737(3) 0.8265(6)
H21_7 H 0.6583 0.8613 0.8655
C48_7 C 0.9784(7) 0.7047(4) 0.6785(10)
H22_7 H 0.9681 0.6810 0.7012
C49_7 C 0.9183(4) 0.7530(4) 0.7263(6)
C50_7 C 0.8865(3) 0.7575(4) 0.7465(5)
H26_13 H 0.523957 0.981673 0.933033
C11_7 C 0.9281(4) 0.2737(3) 0.5785(5)
C13_7 C 0.9881(4) 0.3023(6) 0.6394(8)
H5_7 H 0.9800 0.3293 0.6241
C14_7 C 0.9784(4) 0.2242(5) 0.6344(6)
H6_7 H 0.9626 0.2006 0.6198
C20_7 C 0.9669(3) 0.2638(5) 0.6245(5)
H26_14 H 0.476043 0.0183274 0.933033
H23_8 H 0.659079 0.6391 0.960727
H25_14 H 0.496106 0.970089 0.933033
H27_8 H 0.90851 0.63039 0.960727
O3_8 O 0.53744(17) 0.04894(15) 0.3098(2)
C1_8 C 0.7759(3) 0.3017(3) 0.3654(4)
C2_8 C 0.7483(3) 0.2679(3) 0.3533(3)
H1_8 H 0.7529 0.2423 0.3756
C3_8 C 0.7712(4) 0.3413(2) 0.3321(5)
H2_8 H 0.7879 0.3654 0.3413
C4_8 C 0.5791(3) 0.1021(3) 0.2618(5)
C5_8 C 0.6337(3) 0.1740(4) 0.2742(6)
O8_15 O 0.5000 0.0000 0.4170(4)
C6_8 C 0.7135(4) 0.2694(3) 0.3095(5)
C7_8 C 0.5514(3) 0.0647(3) 0.2531(4)
C8_8 C 0.6006(3) 0.1122(4) 0.3261(4)
H3_8 H 0.5971 0.0949 0.3625
C9_8 C 0.6159(3) 0.1618(4) 0.2144(5)
H4_8 H 0.6207 0.1784 0.1777
C10_8 C 0.8111(3) 0.2907(3) 0.4177(4)
C11_8 C 0.7737(3) 0.5719(4) 0.0785(5)
C12_8 C 0.7376(4) 0.3411(5) 0.2819(5)
C13_8 C 0.8023(6) 0.5119(4) 0.1394(8)
H5_8 H 0.8293 0.5200 0.1241
C14_8 C 0.7242(5) 0.5216(4) 0.1344(6)
H6_8 H 0.7006 0.5374 0.1198
C15_8 C 0.6824(3) 0.2367(3) 0.2912(4)
C16_8 C 0.5909(3) 0.1246(4) 0.2104(5)
H7_8 H 0.5822 0.1152 0.1697
C17_8 C 0.7085(4) 0.3097(5) 0.2757(7)
H8_8 H 0.6847 0.3139 0.2491
C18_8 C 0.6625(3) 0.2095(4) 0.2829(4)
C19_8 C 0.7201(4) 0.4811(4) 0.1712(6)
H9_8 H 0.6934 0.4700 0.1830
C20_8 C 0.7638(5) 0.5331(3) 0.1245(5)
C21_8 C 0.7603(6) 0.4593(4) 0.1880(5)
C22_8 C 0.6263(3) 0.1499(4) 0.3265(6)
H10_8 H 0.6387 0.1583 0.3655
C23_8 C 0.7953(4) 0.4784(7) 0.1785(10)
H11_8 H 0.8190 0.4681 0.2012
C24_8 C 0.7470(4) 0.4183(4) 0.2263(6)
C25_8 C 0.7425(4) 0.3865(3) 0.2465(5)
O8_16 O 0.5000 1.0000 0.4170(4)
O11_8 O 0.46256(17) 0.95106(15) 0.3098(2)
C26_8 C 0.2241(3) 0.6983(3) 0.3654(4)
C27_8 C 0.2517(3) 0.7321(3) 0.3533(3)
H12_8 H 0.2471 0.7577 0.3756
C28_8 C 0.2288(4) 0.6587(2) 0.3321(5)
H13_8 H 0.2121 0.6346 0.3413
C29_8 C 0.4209(3) 0.8979(3) 0.2618(5)
C30_8 C 0.3663(3) 0.8260(4) 0.2742(6)
C31_8 C 0.2865(4) 0.7306(3) 0.3095(5)
C32_8 C 0.4486(3) 0.9353(3) 0.2531(4)
C33_8 C 0.3994(3) 0.8878(4) 0.3261(4)
H14_8 H 0.4029 0.9051 0.3625
C34_8 C 0.3841(3) 0.8382(4) 0.2144(5)
H15_8 H 0.3793 0.8216 0.1777
C35_8 C 0.1889(3) 0.7093(3) 0.4177(4)
C36_8 C 0.2263(3) 0.4281(4) 0.0785(5)
C37_8 C 0.2624(4) 0.6589(5) 0.2819(5)
C38_8 C 0.1977(6) 0.4881(4) 0.1394(8)
H16_8 H 0.1707 0.4800 0.1241
C39_8 C 0.2758(5) 0.4784(4) 0.1344(6)
H17_8 H 0.2994 0.4626 0.1198
C40_8 C 0.3176(3) 0.7633(3) 0.2912(4)
C41_8 C 0.4091(3) 0.8754(4) 0.2104(5)
H18_8 H 0.4178 0.8848 0.1697
C42_8 C 0.2915(4) 0.6903(5) 0.2757(7)
H19_8 H 0.3153 0.6861 0.2491
C43_8 C 0.3375(3) 0.7905(4) 0.2829(4)
C44_8 C 0.2799(4) 0.5189(4) 0.1712(6)
H20_8 H 0.3066 0.5300 0.1830
C45_8 C 0.2362(5) 0.4669(3) 0.1245(5)
C46_8 C 0.2397(6) 0.5407(4) 0.1880(5)
C47_8 C 0.3737(3) 0.8501(4) 0.3265(6)
H21_8 H 0.3613 0.8417 0.3655
C48_8 C 0.2047(4) 0.5216(7) 0.1785(10)
H22_8 H 0.1810 0.5319 0.2012
C49_8 C 0.2530(4) 0.5817(4) 0.2263(6)
C50_8 C 0.2575(4) 0.6135(3) 0.2465(5)
H25_15 H 0.529911 0.996106 0.433033
H26_15 H 0.481673 0.976043 0.433033
H25_16 H 0.470089 0.0038936 0.433033
H26_16 H 0.518327 0.0239569 0.433033
loop_
_geom_bond_atom_site_label_1
_geom_bond_atom_site_label_2
_geom_bond_site_symmetry_1
_geom_bond_site_symmetry_2
O12 C36 1_555 1_555
O15 C36 1_555 1_555
C36 C45 1_555 1_555
C38 H16 1_555 1_555
C39 H17 1_555 1_555
C45 C38 1_555 1_555
Cu5 O12 1_555 1_555
Cu9 O15 1_555 1_555
C39 C45 1_555 1_555
Cu5 Cu9 1_555 1_555
O8 Cu2 1_555 1_555
O10 C35 1_555 1_555
O11 Cu2 1_555 1_555
O13 C32 1_555 1_555
O14 C35 1_555 1_555
C26 C27 1_555 1_555
C27 H12 1_555 1_555
C28 C26 1_555 1_555
H13 C28 1_555 1_555
C29 C32 1_555 1_555
C30 C34 1_555 1_555
C31 C27 1_555 1_555
C32 O11 1_555 1_555
C33 C29 1_555 1_555
H14 C33 1_555 1_555
C34 H15 1_555 1_555
C35 C26 1_555 1_555
C37 C28 1_555 1_555
C40 C31 1_555 1_555
C41 C29 1_555 1_555
H18 C41 1_555 1_555
C42 C31 1_555 1_555
H19 C42 1_555 1_555
C43 C30 1_555 1_555
H20 C44 1_555 1_555
C46 C44 1_555 1_555
C47 C30 1_555 1_555
H21 C47 1_555 1_555
H22 C48 1_555 1_555
C49 C46 1_555 1_555
C50 C37 1_555 1_555
Cu4 O10 1_555 1_555
Cu7 Cu2 1_555 1_555
Cu8 O14 1_555 1_555
O20 Cu2 1_555 1_555
O13 Cu7 1_555 1_555
C33 C47 1_555 1_555
C34 C41 1_555 1_555
C37 C42 1_555 1_555
C40 C43 1_555 1_555
C46 C48 1_555 1_555
C49 C50 1_555 1_555
Cu4 Cu8 1_555 1_555
O8 H26 1_555 1_555
Cu4_2 Cu8_2 1_555 1_555
Cu1 Cu3 1_555 1_555
Cu2_2 O3 1_555 1_555
Cu3 O6 1_555 1_555
O1 Cu1 1_555 1_555
O2 Cu1 1_555 1_555
O3 C7 1_555 1_555
O5 C7 1_555 1_555
O6 C10 1_555 1_555
C1 C2 1_555 1_555
C2 H1 1_555 1_555
C3 C1 1_555 1_555
H2 C3 1_555 1_555
C4 C7 1_555 1_555
C5 C9 1_555 1_555
O8_2 Cu2_2 1_555 1_555
C6 C2 1_555 1_555
C8 C4 1_555 1_555
H3 C8 1_555 1_555
C9 H4 1_555 1_555
C10 O2 1_555 1_555
C12 C3 1_555 1_555
C15 C6 1_555 1_555
C16 C4 1_555 1_555
H7 C16 1_555 1_555
C17 C6 1_555 1_555
H8 C17 1_555 1_555
C18 C5 1_555 1_555
H9 C19 1_555 1_555
O9 Cu3 1_555 1_555
C21 C19 1_555 1_555
C22 C5 1_555 1_555
H10 C22 1_555 1_555
H11 C23 1_555 1_555
C24 C21 1_555 1_555
C25 C12 1_555 1_555
Cu7_2 Cu2_2 1_555 1_555
O18 Cu1 1_555 1_555
O19 Cu2_2 1_555 1_555
O23 Cu3 1_555 1_555
O5 Cu7_2 1_555 1_555
C1 C10 1_555 1_555
C8 C22 1_555 1_555
C9 C16 1_555 1_555
C12 C17 1_555 1_555
C15 C18 1_555 1_555
C21 C23 1_555 1_555
C24 C25 1_555 1_555
O1 H23 1_555 1_555
O1 H24 1_555 1_555
O8_2 H25 1_555 1_555
O9 H27 1_555 1_555
O9 H28 1_555 1_555
Cu1_2 Cu3_2 1_555 1_555
O1_2 Cu1_2 1_555 1_555
O9_2 Cu3_2 1_555 1_555
O16 Cu1_2 1_555 1_555
O17 Cu1_2 1_555 1_555
O21 Cu3_2 1_555 1_555
O22 Cu3_2 1_555 1_555
O1_2 H24_2 1_555 1_555
O9_2 H28_2 1_555 1_555
O4 C11 1_555 1_555
O7 C11 1_555 1_555
C11 C20 1_555 1_555
C13 H5 1_555 1_555
C14 H6 1_555 1_555
C20 C13 1_555 1_555
Cu6 O4 1_555 1_555
Cu10 O7 1_555 1_555
C14 C20 1_555 1_555
Cu6 Cu10 1_555 1_555
O1_3 Cu4 1_555 1_555
O9_3 Cu8 1_555 1_555
O18_2 Cu4 1_555 1_555
O23_2 Cu8 1_555 1_555
O1_3 H23_2 1_555 1_555
O1_3 H24_3 1_555 1_555
O8 H25_2 1_555 1_555
O9_3 H27_2 1_555 1_555
O9_3 H28_3 1_555 1_555
O1_4 Cu4_2 1_555 1_555
O9_4 Cu8_2 1_555 1_555
O16_2 Cu4_2 1_555 1_555
O17_2 Cu4_2 1_555 1_555
O21_2 Cu8_2 1_555 1_555
O22_2 Cu8_2 1_555 1_555
O1_4 H24_4 1_555 1_555
O9_4 H28_4 1_555 1_555
O8_2 H26_2 1_555 1_555
Cu2_3 O3_2 1_555 1_555
Cu9 O6_2 1_555 1_555
O1_5 Cu5 1_555 1_555
O2_2 Cu5 1_555 1_555
O3_2 C7_2 1_555 1_555
O17 C11_2 1_555 1_555
O5_2 C7_2 1_555 1_555
O6_2 C10_2 1_555 1_555
O22 C11_2 1_555 1_555
C1_2 C2_2 1_555 1_555
C2_2 H1_2 1_555 1_555
C3_2 C1_2 1_555 1_555
H2_2 C3_2 1_555 1_555
C4_2 C7_2 1_555 1_555
C5_2 C9_2 1_555 1_555
O8_3 Cu2_3 1_555 1_555
C6_2 C2_2 1_555 1_555
C8_2 C4_2 1_555 1_555
H3_2 C8_2 1_555 1_555
C9_2 H4_2 1_555 1_555
C10_2 O2_2 1_555 1_555
C11_2 C20_2 1_555 1_555
C12_2 C3_2 1_555 1_555
C13_2 H5_2 1_555 1_555
C14_2 H6_2 1_555 1_555
C15_2 C6_2 1_555 1_555
C16_2 C4_2 1_555 1_555
H7_2 C16_2 1_555 1_555
C17_2 C6_2 1_555 1_555
H8_2 C17_2 1_555 1_555
C18_2 C5_2 1_555 1_555
C19_2 C14_2 1_555 1_555
H9_2 C19_2 1_555 1_555
C20_2 C13_2 1_555 1_555
O9_5 Cu9 1_555 1_555
C21_2 C19_2 1_555 1_555
C22_2 C5_2 1_555 1_555
H10_2 C22_2 1_555 1_555
C23_2 C13_2 1_555 1_555
H11_2 C23_2 1_555 1_555
C24_2 C21_2 1_555 1_555
C25_2 C12_2 1_555 1_555
Cu7_3 Cu2_3 1_555 1_555
O16_3 Cu5 1_555 1_555
O18_3 Cu5 1_555 1_555
O20_2 Cu2_3 1_555 1_555
O21_3 Cu9 1_555 1_555
O23_3 Cu9 1_555 1_555
O5_2 Cu7_3 1_555 1_555
C1_2 C10_2 1_555 1_555
C8_2 C22_2 1_555 1_555
C9_2 C16_2 1_555 1_555
C12_2 C17_2 1_555 1_555
C14_2 C20_2 1_555 1_555
C15_2 C18_2 1_555 1_555
C21_2 C23_2 1_555 1_555
C24_2 C25_2 1_555 1_555
O8_4 Cu2_4 1_555 1_555
O10_2 C35_2 1_555 1_555
O11_2 Cu2_4 1_555 1_555
O17_2 C36_2 1_555 1_555
O13_2 C32_2 1_555 1_555
O14_2 C35_2 1_555 1_555
O22_2 C36_2 1_555 1_555
C26_2 C27_2 1_555 1_555
C27_2 H12_2 1_555 1_555
C28_2 C26_2 1_555 1_555
H13_2 C28_2 1_555 1_555
C29_2 C32_2 1_555 1_555
C30_2 C34_2 1_555 1_555
C31_2 C27_2 1_555 1_555
C32_2 O11_2 1_555 1_555
C33_2 C29_2 1_555 1_555
H14_2 C33_2 1_555 1_555
C34_2 H15_2 1_555 1_555
C35_2 C26_2 1_555 1_555
C36_2 C45_2 1_555 1_555
C37_2 C28_2 1_555 1_555
C38_2 H16_2 1_555 1_555
C39_2 H17_2 1_555 1_555
C40_2 C31_2 1_555 1_555
C41_2 C29_2 1_555 1_555
H18_2 C41_2 1_555 1_555
C42_2 C31_2 1_555 1_555
H19_2 C42_2 1_555 1_555
C43_2 C30_2 1_555 1_555
C44_2 C39_2 1_555 1_555
H20_2 C44_2 1_555 1_555
C45_2 C38_2 1_555 1_555
C46_2 C44_2 1_555 1_555
C47_2 C30_2 1_555 1_555
H21_2 C47_2 1_555 1_555
C48_2 C38_2 1_555 1_555
H22_2 C48_2 1_555 1_555
C49_2 C46_2 1_555 1_555
C50_2 C37_2 1_555 1_555
Cu6 O10_2 1_555 1_555
Cu7_4 Cu2_4 1_555 1_555
Cu10 O14_2 1_555 1_555
O19_2 Cu2_4 1_555 1_555
O13_2 Cu7_4 1_555 1_555
C33_2 C47_2 1_555 1_555
C34_2 C41_2 1_555 1_555
C37_2 C42_2 1_555 1_555
C39_2 C45_2 1_555 1_555
C40_2 C43_2 1_555 1_555
C46_2 C48_2 1_555 1_555
C49_2 C50_2 1_555 1_555
O8_4 H25_3 1_555 1_555
O8_4 H26_3 1_555 1_555
O8_3 H25_4 1_555 1_555
O8_3 H26_4 1_555 1_555
O1_6 Cu6 1_555 1_555
O9_6 Cu10 1_555 1_555
O16_4 Cu6 1_555 1_555
O18_4 Cu6 1_555 1_555
O21_4 Cu10 1_555 1_555
O23_4 Cu10 1_555 1_555
O18_3 C11_3 1_555 1_555
O23_3 C11_3 1_555 1_555
C11_3 C20_3 1_555 1_555
C13_3 H5_3 1_555 1_555
C14_3 H6_3 1_555 1_555
C20_3 C13_3 1_555 1_555
C14_3 C20_3 1_555 1_555
Cu7_3 O3_3 1_555 1_555
O3_3 C7_3 1_555 1_555
O20_2 C7_3 1_555 1_555
O21_2 C10_3 1_555 1_555
C1_3 C2_3 1_555 1_555
C2_3 H1_3 1_555 1_555
C3_3 C1_3 1_555 1_555
H2_3 C3_3 1_555 1_555
C4_3 C7_3 1_555 1_555
C5_3 C9_3 1_555 1_555
O8_5 Cu7_3 1_555 1_555
C6_3 C2_3 1_555 1_555
C8_3 C4_3 1_555 1_555
H3_3 C8_3 1_555 1_555
C9_3 H4_3 1_555 1_555
C10_3 O16_2 1_555 1_555
C12_3 C3_3 1_555 1_555
C15_3 C6_3 1_555 1_555
C16_3 C4_3 1_555 1_555
H7_3 C16_3 1_555 1_555
C17_3 C6_3 1_555 1_555
H8_3 C17_3 1_555 1_555
C18_3 C5_3 1_555 1_555
H9_3 C19_3 1_555 1_555
C21_3 C19_3 1_555 1_555
C22_3 C5_3 1_555 1_555
H10_3 C22_3 1_555 1_555
H11_3 C23_3 1_555 1_555
C24_3 C21_3 1_555 1_555
C25_3 C12_3 1_555 1_555
C1_3 C10_3 1_555 1_555
C8_3 C22_3 1_555 1_555
C9_3 C16_3 1_555 1_555
C12_3 C17_3 1_555 1_555
C15_3 C18_3 1_555 1_555
C21_3 C23_3 1_555 1_555
C24_3 C25_3 1_555 1_555
O1_4 H23_3 1_555 1_555
O8_5 H25_5 1_555 1_555
O9_4 H27_3 1_555 1_555
O8_6 Cu7_4 1_555 1_555
O16 C35_3 1_555 1_555
O11_3 Cu7_4 1_555 1_555
O19_2 C32_3 1_555 1_555
O21 C35_3 1_555 1_555
C26_3 C27_3 1_555 1_555
C27_3 H12_3 1_555 1_555
C28_3 C26_3 1_555 1_555
H13_3 C28_3 1_555 1_555
C29_3 C32_3 1_555 1_555
C30_3 C34_3 1_555 1_555
C31_3 C27_3 1_555 1_555
C32_3 O11_3 1_555 1_555
C33_3 C29_3 1_555 1_555
H14_3 C33_3 1_555 1_555
C34_3 H15_3 1_555 1_555
C35_3 C26_3 1_555 1_555
C37_3 C28_3 1_555 1_555
C40_3 C31_3 1_555 1_555
C41_3 C29_3 1_555 1_555
H18_3 C41_3 1_555 1_555
C42_3 C31_3 1_555 1_555
H19_3 C42_3 1_555 1_555
C43_3 C30_3 1_555 1_555
H20_3 C44_3 1_555 1_555
C46_3 C44_3 1_555 1_555
C47_3 C30_3 1_555 1_555
H21_3 C47_3 1_555 1_555
H22_3 C48_3 1_555 1_555
C49_3 C46_3 1_555 1_555
C50_3 C37_3 1_555 1_555
C33_3 C47_3 1_555 1_555
C34_3 C41_3 1_555 1_555
C37_3 C42_3 1_555 1_555
C40_3 C43_3 1_555 1_555
C46_3 C48_3 1_555 1_555
C49_3 C50_3 1_555 1_555
O8_6 H26_5 1_555 1_555
O18_4 C36_3 1_555 1_555
O23_4 C36_3 1_555 1_555
C36_3 C45_3 1_555 1_555
C38_3 H16_3 1_555 1_555
C39_3 H17_3 1_555 1_555
C45_3 C38_3 1_555 1_555
C39_3 C45_3 1_555 1_555
O8_5 H26_6 1_555 1_555
O1_2 H23_4 1_555 1_555
O8_6 H25_6 1_555 1_555
O9_2 H27_4 1_555 1_555
O8_7 Cu7 1_555 1_555
O16_3 C35_4 1_555 1_555
O11_4 Cu7 1_555 1_555
O18 C36_4 1_555 1_555
O20 C32_4 1_555 1_555
O21_3 C35_4 1_555 1_555
O23 C36_4 1_555 1_555
C26_4 C27_4 1_555 1_555
C27_4 H12_4 1_555 1_555
C28_4 C26_4 1_555 1_555
H13_4 C28_4 1_555 1_555
C29_4 C32_4 1_555 1_555
C30_4 C34_4 1_555 1_555
C31_4 C27_4 1_555 1_555
C32_4 O11_4 1_555 1_555
C33_4 C29_4 1_555 1_555
H14_4 C33_4 1_555 1_555
C34_4 H15_4 1_555 1_555
C35_4 C26_4 1_555 1_555
C36_4 C45_4 1_555 1_555
C37_4 C28_4 1_555 1_555
C38_4 H16_4 1_555 1_555
C39_4 H17_4 1_555 1_555
C40_4 C31_4 1_555 1_555
C41_4 C29_4 1_555 1_555
H18_4 C41_4 1_555 1_555
C42_4 C31_4 1_555 1_555
H19_4 C42_4 1_555 1_555
C43_4 C30_4 1_555 1_555
C44_4 C39_4 1_555 1_555
H20_4 C44_4 1_555 1_555
C45_4 C38_4 1_555 1_555
C46_4 C44_4 1_555 1_555
C47_4 C30_4 1_555 1_555
H21_4 C47_4 1_555 1_555
C48_4 C38_4 1_555 1_555
H22_4 C48_4 1_555 1_555
C49_4 C46_4 1_555 1_555
C50_4 C37_4 1_555 1_555
C33_4 C47_4 1_555 1_555
C34_4 C41_4 1_555 1_555
C37_4 C42_4 1_555 1_555
C39_4 C45_4 1_555 1_555
C40_4 C43_4 1_555 1_555
C46_4 C48_4 1_555 1_555
C49_4 C50_4 1_555 1_555
O8_7 H25_7 1_555 1_555
O8_7 H26_7 1_555 1_555
Cu7_2 O3_4 1_555 1_555
O3_4 C7_4 1_555 1_555
O18_2 C11_4 1_555 1_555
O19 C7_4 1_555 1_555
O21_4 C10_4 1_555 1_555
O23_2 C11_4 1_555 1_555
C1_4 C2_4 1_555 1_555
C2_4 H1_4 1_555 1_555
C3_4 C1_4 1_555 1_555
H2_4 C3_4 1_555 1_555
C4_4 C7_4 1_555 1_555
C5_4 C9_4 1_555 1_555
O8_8 Cu7_2 1_555 1_555
C6_4 C2_4 1_555 1_555
C8_4 C4_4 1_555 1_555
H3_4 C8_4 1_555 1_555
C9_4 H4_4 1_555 1_555
C10_4 O16_4 1_555 1_555
C11_4 C20_4 1_555 1_555
C12_4 C3_4 1_555 1_555
C13_4 H5_4 1_555 1_555
C14_4 H6_4 1_555 1_555
C15_4 C6_4 1_555 1_555
C16_4 C4_4 1_555 1_555
H7_4 C16_4 1_555 1_555
C17_4 C6_4 1_555 1_555
H8_4 C17_4 1_555 1_555
C18_4 C5_4 1_555 1_555
C19_4 C14_4 1_555 1_555
H9_4 C19_4 1_555 1_555
C20_4 C13_4 1_555 1_555
C21_4 C19_4 1_555 1_555
C22_4 C5_4 1_555 1_555
H10_4 C22_4 1_555 1_555
C23_4 C13_4 1_555 1_555
H11_4 C23_4 1_555 1_555
C24_4 C21_4 1_555 1_555
C25_4 C12_4 1_555 1_555
C1_4 C10_4 1_555 1_555
C8_4 C22_4 1_555 1_555
C9_4 C16_4 1_555 1_555
C12_4 C17_4 1_555 1_555
C14_4 C20_4 1_555 1_555
C15_4 C18_4 1_555 1_555
C21_4 C23_4 1_555 1_555
C24_4 C25_4 1_555 1_555
O8_8 H25_8 1_555 1_555
O8_8 H26_8 1_555 1_555
O4_2 C11_5 1_555 1_555
O7_2 C11_5 1_555 1_555
C11_5 C20_5 1_555 1_555
C13_5 H5_5 1_555 1_555
C14_5 H6_5 1_555 1_555
C20_5 C13_5 1_555 1_555
Cu6_2 O4_2 1_555 1_555
Cu10_2 O7_2 1_555 1_555
C14_5 C20_5 1_555 1_555
Cu6_2 Cu10_2 1_555 1_555
O8_9 Cu2_5 1_555 1_555
O10_3 C35_5 1_555 1_555
O11_5 Cu2_5 1_555 1_555
O13_3 C32_5 1_555 1_555
O14_3 C35_5 1_555 1_555
C26_5 C27_5 1_555 1_555
C27_5 H12_5 1_555 1_555
C28_5 C26_5 1_555 1_555
H13_5 C28_5 1_555 1_555
C29_5 C32_5 1_555 1_555
C30_5 C34_5 1_555 1_555
C31_5 C27_5 1_555 1_555
C32_5 O11_5 1_555 1_555
C33_5 C29_5 1_555 1_555
H14_5 C33_5 1_555 1_555
C34_5 H15_5 1_555 1_555
C35_5 C26_5 1_555 1_555
C37_5 C28_5 1_555 1_555
C40_5 C31_5 1_555 1_555
C41_5 C29_5 1_555 1_555
H18_5 C41_5 1_555 1_555
C42_5 C31_5 1_555 1_555
H19_5 C42_5 1_555 1_555
C43_5 C30_5 1_555 1_555
H20_5 C44_5 1_555 1_555
C46_5 C44_5 1_555 1_555
C47_5 C30_5 1_555 1_555
H21_5 C47_5 1_555 1_555
H22_5 C48_5 1_555 1_555
C49_5 C46_5 1_555 1_555
C50_5 C37_5 1_555 1_555
Cu4_3 O10_3 1_555 1_555
Cu7_5 Cu2_5 1_555 1_555
Cu8_3 O14_3 1_555 1_555
O20_3 Cu2_5 1_555 1_555
O13_3 Cu7_5 1_555 1_555
C33_5 C47_5 1_555 1_555
C34_5 C41_5 1_555 1_555
C37_5 C42_5 1_555 1_555
C40_5 C43_5 1_555 1_555
C46_5 C48_5 1_555 1_555
C49_5 C50_5 1_555 1_555
Cu4_3 Cu8_3 1_555 1_555
O8_9 H26_9 1_555 1_555
Cu4_4 Cu8_4 1_555 1_555
Cu1_3 Cu3_3 1_555 1_555
Cu2_6 O3_5 1_555 1_555
Cu3_3 O6_3 1_555 1_555
O1_7 Cu1_3 1_555 1_555
O2_3 Cu1_3 1_555 1_555
O3_5 C7_5 1_555 1_555
O5_3 C7_5 1_555 1_555
O6_3 C10_5 1_555 1_555
C1_5 C2_5 1_555 1_555
C2_5 H1_5 1_555 1_555
C3_5 C1_5 1_555 1_555
H2_5 C3_5 1_555 1_555
C4_5 C7_5 1_555 1_555
C5_5 C9_5 1_555 1_555
O8_10 Cu2_6 1_555 1_555
C6_5 C2_5 1_555 1_555
C8_5 C4_5 1_555 1_555
H3_5 C8_5 1_555 1_555
C9_5 H4_5 1_555 1_555
C10_5 O2_3 1_555 1_555
C12_5 C3_5 1_555 1_555
C15_5 C6_5 1_555 1_555
C16_5 C4_5 1_555 1_555
H7_5 C16_5 1_555 1_555
C17_5 C6_5 1_555 1_555
H8_5 C17_5 1_555 1_555
C18_5 C5_5 1_555 1_555
H9_5 C19_5 1_555 1_555
O9_7 Cu3_3 1_555 1_555
C21_5 C19_5 1_555 1_555
C22_5 C5_5 1_555 1_555
H10_5 C22_5 1_555 1_555
H11_5 C23_5 1_555 1_555
C24_5 C21_5 1_555 1_555
C25_5 C12_5 1_555 1_555
Cu7_6 Cu2_6 1_555 1_555
O18_5 Cu1_3 1_555 1_555
O19_3 Cu2_6 1_555 1_555
O23_5 Cu3_3 1_555 1_555
O5_3 Cu7_6 1_555 1_555
C1_5 C10_5 1_555 1_555
C8_5 C22_5 1_555 1_555
C9_5 C16_5 1_555 1_555
C12_5 C17_5 1_555 1_555
C15_5 C18_5 1_555 1_555
C21_5 C23_5 1_555 1_555
C24_5 C25_5 1_555 1_555
O1_7 H23_5 1_555 1_555
O1_7 H24_5 1_555 1_555
O8_10 H25_9 1_555 1_555
O9_7 H27_5 1_555 1_555
O9_7 H28_5 1_555 1_555
Cu1_4 Cu3_4 1_555 1_555
O1_8 Cu1_4 1_555 1_555
O9_8 Cu3_4 1_555 1_555
O16_5 Cu1_4 1_555 1_555
O17_3 Cu1_4 1_555 1_555
O21_5 Cu3_4 1_555 1_555
O22_3 Cu3_4 1_555 1_555
O1_8 H24_6 1_555 1_555
O9_8 H28_6 1_555 1_555
O12_2 C36_5 1_555 1_555
O15_2 C36_5 1_555 1_555
C36_5 C45_5 1_555 1_555
C38_5 H16_5 1_555 1_555
C39_5 H17_5 1_555 1_555
C45_5 C38_5 1_555 1_555
Cu5_2 O12_2 1_555 1_555
Cu9_2 O15_2 1_555 1_555
C39_5 C45_5 1_555 1_555
Cu5_2 Cu9_2 1_555 1_555
O1_9 Cu4_3 1_555 1_555
O9_9 Cu8_3 1_555 1_555
O18_6 Cu4_3 1_555 1_555
O23_6 Cu8_3 1_555 1_555
O1_9 H23_6 1_555 1_555
O1_9 H24_7 1_555 1_555
O8_9 H25_10 1_555 1_555
O9_9 H27_6 1_555 1_555
O9_9 H28_7 1_555 1_555
O1_10 Cu4_4 1_555 1_555
O9_10 Cu8_4 1_555 1_555
O16_6 Cu4_4 1_555 1_555
O17_4 Cu4_4 1_555 1_555
O21_6 Cu8_4 1_555 1_555
O22_4 Cu8_4 1_555 1_555
O1_10 H24_8 1_555 1_555
O9_10 H28_8 1_555 1_555
O8_10 H26_10 1_555 1_555
O8_11 Cu2_7 1_555 1_555
O10_4 C35_6 1_555 1_555
O11_6 Cu2_7 1_555 1_555
O17_3 C36_6 1_555 1_555
O13_4 C32_6 1_555 1_555
O14_4 C35_6 1_555 1_555
O22_3 C36_6 1_555 1_555
C26_6 C27_6 1_555 1_555
C27_6 H12_6 1_555 1_555
C28_6 C26_6 1_555 1_555
H13_6 C28_6 1_555 1_555
C29_6 C32_6 1_555 1_555
C30_6 C34_6 1_555 1_555
C31_6 C27_6 1_555 1_555
C32_6 O11_6 1_555 1_555
C33_6 C29_6 1_555 1_555
H14_6 C33_6 1_555 1_555
C34_6 H15_6 1_555 1_555
C35_6 C26_6 1_555 1_555
C36_6 C45_6 1_555 1_555
C37_6 C28_6 1_555 1_555
C38_6 H16_6 1_555 1_555
C39_6 H17_6 1_555 1_555
C40_6 C31_6 1_555 1_555
C41_6 C29_6 1_555 1_555
H18_6 C41_6 1_555 1_555
C42_6 C31_6 1_555 1_555
H19_6 C42_6 1_555 1_555
C43_6 C30_6 1_555 1_555
C44_6 C39_6 1_555 1_555
H20_6 C44_6 1_555 1_555
C45_6 C38_6 1_555 1_555
C46_6 C44_6 1_555 1_555
C47_6 C30_6 1_555 1_555
H21_6 C47_6 1_555 1_555
C48_6 C38_6 1_555 1_555
H22_6 C48_6 1_555 1_555
C49_6 C46_6 1_555 1_555
C50_6 C37_6 1_555 1_555
Cu5_2 O10_4 1_555 1_555
Cu7_7 Cu2_7 1_555 1_555
Cu9_2 O14_4 1_555 1_555
O19_4 Cu2_7 1_555 1_555
O13_4 Cu7_7 1_555 1_555
C33_6 C47_6 1_555 1_555
C34_6 C41_6 1_555 1_555
C37_6 C42_6 1_555 1_555
C39_6 C45_6 1_555 1_555
C40_6 C43_6 1_555 1_555
C46_6 C48_6 1_555 1_555
C49_6 C50_6 1_555 1_555
O8_11 H25_11 1_555 1_555
O8_11 H26_11 1_555 1_555
Cu2_8 O3_6 1_555 1_555
Cu10_2 O6_4 1_555 1_555
O1_11 Cu6_2 1_555 1_555
O2_4 Cu6_2 1_555 1_555
O3_6 C7_6 1_555 1_555
O17_4 C11_6 1_555 1_555
O5_4 C7_6 1_555 1_555
O6_4 C10_6 1_555 1_555
O22_4 C11_6 1_555 1_555
C1_6 C2_6 1_555 1_555
C2_6 H1_6 1_555 1_555
C3_6 C1_6 1_555 1_555
H2_6 C3_6 1_555 1_555
C4_6 C7_6 1_555 1_555
C5_6 C9_6 1_555 1_555
O8_12 Cu2_8 1_555 1_555
C6_6 C2_6 1_555 1_555
C8_6 C4_6 1_555 1_555
H3_6 C8_6 1_555 1_555
C9_6 H4_6 1_555 1_555
C10_6 O2_4 1_555 1_555
C11_6 C20_6 1_555 1_555
C12_6 C3_6 1_555 1_555
C13_6 H5_6 1_555 1_555
C14_6 H6_6 1_555 1_555
C15_6 C6_6 1_555 1_555
C16_6 C4_6 1_555 1_555
H7_6 C16_6 1_555 1_555
C17_6 C6_6 1_555 1_555
H8_6 C17_6 1_555 1_555
C18_6 C5_6 1_555 1_555
C19_6 C14_6 1_555 1_555
H9_6 C19_6 1_555 1_555
C20_6 C13_6 1_555 1_555
O9_11 Cu10_2 1_555 1_555
C21_6 C19_6 1_555 1_555
C22_6 C5_6 1_555 1_555
H10_6 C22_6 1_555 1_555
C23_6 C13_6 1_555 1_555
H11_6 C23_6 1_555 1_555
C24_6 C21_6 1_555 1_555
C25_6 C12_6 1_555 1_555
Cu7_8 Cu2_8 1_555 1_555
O16_7 Cu6_2 1_555 1_555
O18_7 Cu6_2 1_555 1_555
O20_4 Cu2_8 1_555 1_555
O21_7 Cu10_2 1_555 1_555
O23_7 Cu10_2 1_555 1_555
O5_4 Cu7_8 1_555 1_555
C1_6 C10_6 1_555 1_555
C8_6 C22_6 1_555 1_555
C9_6 C16_6 1_555 1_555
C12_6 C17_6 1_555 1_555
C14_6 C20_6 1_555 1_555
C15_6 C18_6 1_555 1_555
C21_6 C23_6 1_555 1_555
C24_6 C25_6 1_555 1_555
O1_12 Cu5_2 1_555 1_555
O9_12 Cu9_2 1_555 1_555
O16_8 Cu5_2 1_555 1_555
O18_8 Cu5_2 1_555 1_555
O21_8 Cu9_2 1_555 1_555
O23_8 Cu9_2 1_555 1_555
O8_12 H25_12 1_555 1_555
O8_12 H26_12 1_555 1_555
O18_7 C36_7 1_555 1_555
O23_7 C36_7 1_555 1_555
C36_7 C45_7 1_555 1_555
C38_7 H16_7 1_555 1_555
C39_7 H17_7 1_555 1_555
C45_7 C38_7 1_555 1_555
C39_7 C45_7 1_555 1_555
Cu7_7 O3_7 1_555 1_555
O3_7 C7_7 1_555 1_555
O19_4 C7_7 1_555 1_555
O21_6 C10_7 1_555 1_555
C1_7 C2_7 1_555 1_555
C2_7 H1_7 1_555 1_555
C3_7 C1_7 1_555 1_555
H2_7 C3_7 1_555 1_555
C4_7 C7_7 1_555 1_555
C5_7 C9_7 1_555 1_555
O8_13 Cu7_7 1_555 1_555
C6_7 C2_7 1_555 1_555
C8_7 C4_7 1_555 1_555
H3_7 C8_7 1_555 1_555
C9_7 H4_7 1_555 1_555
C10_7 O16_6 1_555 1_555
C12_7 C3_7 1_555 1_555
C15_7 C6_7 1_555 1_555
C16_7 C4_7 1_555 1_555
H7_7 C16_7 1_555 1_555
C17_7 C6_7 1_555 1_555
H8_7 C17_7 1_555 1_555
C18_7 C5_7 1_555 1_555
H9_7 C19_7 1_555 1_555
C21_7 C19_7 1_555 1_555
C22_7 C5_7 1_555 1_555
H10_7 C22_7 1_555 1_555
H11_7 C23_7 1_555 1_555
C24_7 C21_7 1_555 1_555
C25_7 C12_7 1_555 1_555
C1_7 C10_7 1_555 1_555
C8_7 C22_7 1_555 1_555
C9_7 C16_7 1_555 1_555
C12_7 C17_7 1_555 1_555
C15_7 C18_7 1_555 1_555
C21_7 C23_7 1_555 1_555
C24_7 C25_7 1_555 1_555
O1_10 H23_7 1_555 1_555
O8_13 H25_13 1_555 1_555
O9_10 H27_7 1_555 1_555
O8_14 Cu7_8 1_555 1_555
O16_5 C35_7 1_555 1_555
O11_7 Cu7_8 1_555 1_555
O20_4 C32_7 1_555 1_555
O21_5 C35_7 1_555 1_555
C26_7 C27_7 1_555 1_555
C27_7 H12_7 1_555 1_555
C28_7 C26_7 1_555 1_555
H13_7 C28_7 1_555 1_555
C29_7 C32_7 1_555 1_555
C30_7 C34_7 1_555 1_555
C31_7 C27_7 1_555 1_555
C32_7 O11_7 1_555 1_555
C33_7 C29_7 1_555 1_555
H14_7 C33_7 1_555 1_555
C34_7 H15_7 1_555 1_555
C35_7 C26_7 1_555 1_555
C37_7 C28_7 1_555 1_555
C40_7 C31_7 1_555 1_555
C41_7 C29_7 1_555 1_555
H18_7 C41_7 1_555 1_555
C42_7 C31_7 1_555 1_555
H19_7 C42_7 1_555 1_555
C43_7 C30_7 1_555 1_555
H20_7 C44_7 1_555 1_555
C46_7 C44_7 1_555 1_555
C47_7 C30_7 1_555 1_555
H21_7 C47_7 1_555 1_555
H22_7 C48_7 1_555 1_555
C49_7 C46_7 1_555 1_555
C50_7 C37_7 1_555 1_555
C33_7 C47_7 1_555 1_555
C34_7 C41_7 1_555 1_555
C37_7 C42_7 1_555 1_555
C40_7 C43_7 1_555 1_555
C46_7 C48_7 1_555 1_555
C49_7 C50_7 1_555 1_555
O8_14 H26_13 1_555 1_555
O18_8 C11_7 1_555 1_555
O23_8 C11_7 1_555 1_555
C11_7 C20_7 1_555 1_555
C13_7 H5_7 1_555 1_555
C14_7 H6_7 1_555 1_555
C20_7 C13_7 1_555 1_555
C14_7 C20_7 1_555 1_555
O8_13 H26_14 1_555 1_555
O1_8 H23_8 1_555 1_555
O8_14 H25_14 1_555 1_555
O9_8 H27_8 1_555 1_555
Cu7_5 O3_8 1_555 1_555
O3_8 C7_8 1_555 1_555
O18_5 C11_8 1_555 1_555
O20_3 C7_8 1_555 1_555
O21_8 C10_8 1_555 1_555
O23_5 C11_8 1_555 1_555
C1_8 C2_8 1_555 1_555
C2_8 H1_8 1_555 1_555
C3_8 C1_8 1_555 1_555
H2_8 C3_8 1_555 1_555
C4_8 C7_8 1_555 1_555
C5_8 C9_8 1_555 1_555
O8_15 Cu7_5 1_555 1_555
C6_8 C2_8 1_555 1_555
C8_8 C4_8 1_555 1_555
H3_8 C8_8 1_555 1_555
C9_8 H4_8 1_555 1_555
C10_8 O16_8 1_555 1_555
C11_8 C20_8 1_555 1_555
C12_8 C3_8 1_555 1_555
C13_8 H5_8 1_555 1_555
C14_8 H6_8 1_555 1_555
C15_8 C6_8 1_555 1_555
C16_8 C4_8 1_555 1_555
H7_8 C16_8 1_555 1_555
C17_8 C6_8 1_555 1_555
H8_8 C17_8 1_555 1_555
C18_8 C5_8 1_555 1_555
C19_8 C14_8 1_555 1_555
H9_8 C19_8 1_555 1_555
C20_8 C13_8 1_555 1_555
C21_8 C19_8 1_555 1_555
C22_8 C5_8 1_555 1_555
H10_8 C22_8 1_555 1_555
C23_8 C13_8 1_555 1_555
H11_8 C23_8 1_555 1_555
C24_8 C21_8 1_555 1_555
C25_8 C12_8 1_555 1_555
C1_8 C10_8 1_555 1_555
C8_8 C22_8 1_555 1_555
C9_8 C16_8 1_555 1_555
C12_8 C17_8 1_555 1_555
C14_8 C20_8 1_555 1_555
C15_8 C18_8 1_555 1_555
C21_8 C23_8 1_555 1_555
C24_8 C25_8 1_555 1_555
O8_16 Cu7_6 1_555 1_555
O16_7 C35_8 1_555 1_555
O11_8 Cu7_6 1_555 1_555
O18_6 C36_8 1_555 1_555
O19_3 C32_8 1_555 1_555
O21_7 C35_8 1_555 1_555
O23_6 C36_8 1_555 1_555
C26_8 C27_8 1_555 1_555
C27_8 H12_8 1_555 1_555
C28_8 C26_8 1_555 1_555
H13_8 C28_8 1_555 1_555
C29_8 C32_8 1_555 1_555
C30_8 C34_8 1_555 1_555
C31_8 C27_8 1_555 1_555
C32_8 O11_8 1_555 1_555
C33_8 C29_8 1_555 1_555
H14_8 C33_8 1_555 1_555
C34_8 H15_8 1_555 1_555
C35_8 C26_8 1_555 1_555
C36_8 C45_8 1_555 1_555
C37_8 C28_8 1_555 1_555
C38_8 H16_8 1_555 1_555
C39_8 H17_8 1_555 1_555
C40_8 C31_8 1_555 1_555
C41_8 C29_8 1_555 1_555
H18_8 C41_8 1_555 1_555
C42_8 C31_8 1_555 1_555
H19_8 C42_8 1_555 1_555
C43_8 C30_8 1_555 1_555
C44_8 C39_8 1_555 1_555
H20_8 C44_8 1_555 1_555
C45_8 C38_8 1_555 1_555
C46_8 C44_8 1_555 1_555
C47_8 C30_8 1_555 1_555
H21_8 C47_8 1_555 1_555
C48_8 C38_8 1_555 1_555
H22_8 C48_8 1_555 1_555
C49_8 C46_8 1_555 1_555
C50_8 C37_8 1_555 1_555
C33_8 C47_8 1_555 1_555
C34_8 C41_8 1_555 1_555
C37_8 C42_8 1_555 1_555
C39_8 C45_8 1_555 1_555
C40_8 C43_8 1_555 1_555
C46_8 C48_8 1_555 1_555
C49_8 C50_8 1_555 1_555
O8_16 H25_15 1_555 1_555
O8_16 H26_15 1_555 1_555
O8_15 H25_16 1_555 1_555
O8_15 H26_16 1_555 1_555

#END
