
###############################################################################
#
# This file contains modified crystal structure data generated from the
# MOF subset of the Cambridge Structural Database (CSD) v543 
# hosted by the Cambridge Crystallographic Data Centre (CCDC).
#
# This work is licensed under the Creative Commons
# Attribution-NonCommercial-ShareAlike 4.0 International License.
# To view a copy of this license, visit
# http://creativecommons.org/licenses/by-nc-sa/4.0/
# or send a letter to
# Creative Commons, PO Box 1866, Mountain View, CA 94042, USA.
#
# CIF created using the CSD Python API on 29 September 2022
# The structure has been converted into the P1 space group
# The structure has a 3D framework
# The original CSD entry BIJDUV is in the orthorhombic crystal system
# The original CSD entry BIJDUV is in a Sohncke space group
# The framework has been calculated to contain at least 10.0% void space
# The void calculation uses a probe of radius 1.32A, grid spacing 0.4
# H atom positions have been added when not included in the experimental data
#
###############################################################################

data_BIJDUV
_chemical_formula_moiety         '(C280 H360 Br4 Cd8 N24 O48 Ti8)n'
_symmetry_cell_setting           triclinic
_symmetry_space_group_name_H-M   'P 1'
_symmetry_Int_Tables_number      1
_space_group_name_Hall           'P 1'
loop_
_symmetry_equiv_pos_site_id
_symmetry_equiv_pos_as_xyz
1 x,y,z
_cell_length_a                   34.4419(13)
_cell_length_b                   16.7622(8)
_cell_length_c                   18.4473(8)
_cell_angle_alpha                90
_cell_angle_beta                 90
_cell_angle_gamma                90
_cell_volume                     10650
loop_
_atom_site_label
_atom_site_type_symbol
_atom_site_fract_x
_atom_site_fract_y
_atom_site_fract_z
Cd1 Cd 0.0000 0.5000 0.58940(6)
Br1 Br 0.0000 0.5000 0.44943(10)
O9 O 0.0000 0.5000 0.7182(8)
Ti3 Ti 0.17775(6) 0.34691(13) 0.17004(11)
Ti4 Ti 0.16174(6) 0.22486(13) 0.32796(12)
Cd3 Cd 0.00581(2) 0.37731(6) 0.74984(5)
N7 N 0.1260(2) 0.2790(6) 0.1371(5)
N8 N 0.2034(3) 0.2389(6) 0.1117(6)
N9 N 0.1368(3) 0.3407(6) 0.3615(5)
N10 N 0.2106(2) 0.2823(5) 0.3901(5)
O15 O 0.1673(2) 0.4000(4) 0.0799(4)
O16 O 0.2293(2) 0.3795(5) 0.1687(4)
O17 O 0.1529(2) 0.4265(5) 0.2232(4)
O18 O 0.17896(18) 0.2819(4) 0.2498(4)
O19 O 0.0129(2) 0.3676(6) 0.6165(5)
O20 O 0.0343(2) 0.2748(7) 0.6927(5)
O21 O 0.1381(2) 0.1923(5) 0.4184(4)
O22 O 0.19693(19) 0.1397(5) 0.3236(4)
O23 O 0.1193(2) 0.1892(5) 0.2742(4)
C74 C 0.1042(2) 0.3677(5) 0.0398(3)
C75 C 0.14017(18) 0.4027(5) 0.0270(3)
H93 H 0.1900 0.5352 0.0408
H97 H 0.2227 0.4062 0.0116
C82 C 0.0959(3) 0.3344(8) 0.1156(7)
H98 H 0.0946 0.3779 0.1501
H99 H 0.0710 0.3074 0.1155
C83 C 0.1347(3) 0.2138(7) 0.0866(7)
H100 H 0.1384 0.2384 0.0389
C84 C 0.1019(4) 0.1541(9) 0.0784(8)
H101 H 0.0792 0.1811 0.0594
H102 H 0.0953 0.1327 0.1256
C85 C 0.1132(4) 0.0837(10) 0.0264(9)
H103 H 0.0931 0.0431 0.0280
C86 C 0.1511(4) 0.0479(8) 0.0477(8)
H105 H 0.1582 0.0074 0.0126
H106 H 0.1482 0.0220 0.0945
C87 C 0.1840(3) 0.1106(8) 0.0525(7)
H107 H 0.2079 0.0852 0.0681
H108 H 0.1884 0.1342 0.0052
C88 C 0.1726(3) 0.1745(7) 0.1059(6)
H109 H 0.1698 0.1496 0.1537
C89 C 0.2368(3) 0.2098(7) 0.1497(7)
H110 H 0.2469 0.1642 0.1233
H111 H 0.2284 0.1907 0.1968
C90 C 0.26987(16) 0.2675(4) 0.1615(5)
C91 C 0.3066(2) 0.2339(4) 0.1683(5)
H112 H 0.3097 0.1790 0.1638
C92 C 0.33856(15) 0.2823(5) 0.1817(5)
C93 C 0.33382(18) 0.3643(5) 0.1884(5)
H113 H 0.3552 0.3967 0.1973
C94 C 0.2971(2) 0.3979(4) 0.1816(5)
C95 C 0.26513(16) 0.3496(4) 0.1682(5)
C96 C 0.2926(3) 0.4908(7) 0.1896(6)
C97 C 0.2721(4) 0.5254(7) 0.1218(7)
H114 H 0.2695 0.5822 0.1269
H115 H 0.2468 0.5019 0.1170
H116 H 0.2872 0.5137 0.0794
C98 C 0.3318(4) 0.5363(8) 0.1963(11)
H117 H 0.3268 0.5924 0.2016
H118 H 0.3471 0.5274 0.1535
H119 H 0.3457 0.5172 0.2380
C99 C 0.2709(4) 0.5066(10) 0.2578(8)
H120 H 0.2680 0.5631 0.2643
H121 H 0.2849 0.4846 0.2981
H122 H 0.2457 0.4823 0.2549
N11 N 0.4474(2) 0.1723(6) 0.2336(7)
C100 C 0.4219(3) 0.1354(6) 0.1858(7)
H123 H 0.4282 0.0862 0.1656
C101 C 0.3869(3) 0.1719(7) 0.1681(7)
H124 H 0.3699 0.1472 0.1361
C102 C 0.3774(2) 0.2454(7) 0.1983(8)
C103 C 0.4029(3) 0.2823(6) 0.2461(7)
H125 H 0.3966 0.3314 0.2663
C104 C 0.4379(3) 0.2457(7) 0.2638(6)
H126 H 0.4549 0.2704 0.2958
C105 C 0.0336(4) 0.3074(9) 0.6290(8)
C106 C 0.05986(19) 0.2722(5) 0.5705(3)
C107 C 0.0810(2) 0.2029(5) 0.5831(3)
H127 H 0.0776 0.1749 0.6262
C108 C 0.1071(2) 0.1755(4) 0.5314(4)
C109 C 0.11211(19) 0.2173(4) 0.4670(3)
C110 C 0.0910(2) 0.2866(4) 0.4544(3)
C111 C 0.0649(2) 0.3140(4) 0.5061(4)
H128 H 0.0507 0.3604 0.4977
C112 C 0.1280(4) 0.0910(8) 0.5454(8)
C113 C 0.1731(4) 0.1010(10) 0.5394(9)
H129 H 0.1854 0.0505 0.5480
H130 H 0.1818 0.1390 0.5747
H131 H 0.1796 0.1195 0.4917
C114 C 0.1133(5) 0.0337(9) 0.4866(10)
H133 H 0.1202 0.0542 0.4397
H134 H 0.0856 0.0288 0.4900
C115 C 0.1150(7) 0.0554(11) 0.6222(9)
H135 H 0.1275 0.0051 0.6299
H136 H 0.0873 0.0481 0.6226
H137 H 0.1222 0.0918 0.6600
C116 C 0.1608(3) 0.3830(8) 0.4156(7)
H138 H 0.1564 0.3595 0.4635
C117 C 0.1510(4) 0.4745(7) 0.4185(8)
H139 H 0.1539 0.4978 0.3706
H140 H 0.1243 0.4820 0.4340
C118 C 0.1779(4) 0.5143(9) 0.4703(7)
H141 H 0.1735 0.4923 0.5183
H142 H 0.1716 0.5707 0.4722
C119 C 0.2200(3) 0.5052(8) 0.4516(7)
H143 H 0.2360 0.5319 0.4875
H144 H 0.2252 0.5288 0.4046
C120 C 0.2292(4) 0.4164(8) 0.4502(7)
H145 H 0.2254 0.3941 0.4982
H146 H 0.2562 0.4087 0.4368
C121 C 0.2025(3) 0.3719(8) 0.3947(7)
H147 H 0.2065 0.3953 0.3466
C122 C 0.2487(3) 0.2704(7) 0.3520(6)
H148 H 0.2465 0.2901 0.3028
H149 H 0.2685 0.3015 0.3765
C123 C 0.26118(19) 0.1848(3) 0.3500(4)
C124 C 0.30040(17) 0.1678(4) 0.3587(4)
H150 H 0.3178 0.2085 0.3697
C125 C 0.31364(13) 0.0899(4) 0.3511(4)
C126 C 0.28766(19) 0.0290(3) 0.3347(4)
C127 C 0.24844(17) 0.0461(4) 0.3259(4)
C128 C 0.23520(13) 0.1240(4) 0.3336(4)
H152 H 0.2154 0.0002 0.1984
H153 H 0.1825 0.0409 0.2440
H156 H 0.1771 0.0161 0.3758
N12 N 0.43422(15) 0.0306(5) 0.3921(5)
C133 C 0.41907(19) 0.1022(4) 0.4175(4)
H161 H 0.4347 0.1370 0.4438
C134 C 0.3806(2) 0.1218(4) 0.4035(5)
H162 H 0.3704 0.1697 0.4205
C135 C 0.35723(15) 0.0698(5) 0.3642(5)
C138 C 0.1437(4) 0.5037(11) 0.2050(8)
H165 H 0.1305 0.5287 0.2448
H166 H 0.1270 0.5035 0.1633
H167 H 0.1670 0.5326 0.1941
C139 C 0.0890(4) 0.1345(10) 0.2920(9)
H168 H 0.0712 0.1305 0.2521
H169 H 0.0754 0.1532 0.3341
H170 H 0.0999 0.0829 0.3018
C140 C 0.0952(3) 0.3296(8) 0.3833(6)
H171 H 0.0819 0.2997 0.3459
H172 H 0.0829 0.3815 0.3869
Cd5 Cd 0.5000 -0.0000 0.41060(6)
Cd9 Cd 0.50581(2) 0.12269(6) 0.25016(5)
O25 O 0.0646(3) 0.4199(8) 0.7985(7)
O27 O 0.0246(3) 0.3601(7) 0.8683(6)
N13 N 0.0526(2) 0.6723(6) 0.7664(7)
N15 N 0.06578(15) 0.5306(5) 0.6079(5)
H177 H 0.116097 0.252363 0.182922
H178 H 0.136507 0.375591 0.316534
H179 H 0.211991 0.258827 0.440753
H180 H 0.211519 0.255526 0.0610113
C71 C 0.0561(4) 0.3930(9) 0.8583(9)
C72 C 0.08513(18) 0.3966(5) 0.9170(4)
C73 C 0.07668(16) 0.3647(5) 0.9847(4)
H87 H 0.0526 0.3413 0.9932
C76 C 0.14861(16) 0.4345(5) 0.9593(4)
C77 C 0.1211(2) 0.4315(5) 0.9043(3)
H88 H 0.1267 0.4528 0.8589
C78 C 0.1889(3) 0.4751(8) 0.9432(7)
C79 C 0.1924(3) 0.4976(10) 0.8615(7)
H89 H 0.2172 0.5221 0.8529
H90 H 0.1721 0.5343 0.8489
H91 H 0.1901 0.4504 0.8325
C80 C 0.1915(4) 0.5501(8) 0.9907(8)
H92 H 0.2158 0.5766 0.9818
H94 H 0.1705 0.5854 0.9791
C81 C 0.2233(3) 0.4197(7) 0.9611(7)
H95 H 0.2472 0.4465 0.9500
H96 H 0.2214 0.3719 0.9326
H104 H 0.1148 0.1034 0.9770
H132 H 0.1251 0.9823 0.4933
H151 H 0.2965 0.9769 0.3295
C129 C 0.2204(3) 0.9750(7) 0.3086(7)
C130 C 0.1975(3) 0.9931(9) 0.2378(7)
H154 H 0.1804 0.9493 0.2271
C131 C 0.1913(4) 0.9671(9) 0.3707(8)
H155 H 0.1736 0.9244 0.3605
H157 H 0.2050 0.9559 0.4150
C132 C 0.2403(4) 0.8962(8) 0.3002(7)
H158 H 0.2589 0.8994 0.2617
H159 H 0.2214 0.8559 0.2891
H160 H 0.2533 0.8828 0.3446
C136 C 0.3724(2) 0.9982(5) 0.3389(5)
H163 H 0.3568 0.9634 0.3126
C137 C 0.4109(2) 0.9786(4) 0.3528(5)
H164 H 0.4210 0.9307 0.3358
Cd5_2 Cd 0.5000 1.0000 0.41060(6)
H46 H 0.8749 0.0177 0.4933
H65 H 0.7035 0.0231 0.3295
C59 C 0.7796(3) 0.0250(7) 0.3086(7)
C60 C 0.8025(3) 0.0069(9) 0.2378(7)
H68 H 0.8196 0.0507 0.2271
C61 C 0.8087(4) 0.0329(9) 0.3707(8)
H69 H 0.8264 0.0756 0.3605
H71 H 0.7950 0.0441 0.4150
C62 C 0.7597(4) 0.1038(8) 0.3002(7)
H72 H 0.7411 0.1006 0.2617
H73 H 0.7786 0.1441 0.2891
H74 H 0.7467 0.1172 0.3446
C66 C 0.6276(2) 0.0018(5) 0.3389(5)
H77 H 0.6432 0.0366 0.3126
C67 C 0.5891(2) 0.0214(4) 0.3528(5)
H78 H 0.5790 0.0693 0.3358
Ti1 Ti 0.82225(6) 0.65309(13) 0.17004(11)
Ti2 Ti 0.83826(6) 0.77514(13) 0.32796(12)
Cd1_2 Cd 1.0000 0.5000 0.58940(6)
Cd2 Cd 0.99419(2) 0.62269(6) 0.74984(5)
Br1_2 Br 1.0000 0.5000 0.44943(10)
N1 N 0.8740(2) 0.7210(6) 0.1371(5)
N2 N 0.7966(3) 0.7611(6) 0.1117(6)
N3 N 0.8632(3) 0.6593(6) 0.3615(5)
N4 N 0.7894(2) 0.7177(5) 0.3901(5)
O3 O 0.8327(2) 0.6000(4) 0.0799(4)
O4 O 0.7707(2) 0.6205(5) 0.1687(4)
O5 O 0.8471(2) 0.5735(5) 0.2232(4)
O6 O 0.82104(18) 0.7181(4) 0.2498(4)
O7 O 0.9871(2) 0.6324(6) 0.6165(5)
O8 O 0.9657(2) 0.7252(7) 0.6927(5)
O9_2 O 1.0000 0.5000 0.7182(8)
O10 O 0.8619(2) 0.8077(5) 0.4184(4)
O11 O 0.80307(19) 0.8603(5) 0.3236(4)
O12 O 0.8807(2) 0.8108(5) 0.2742(4)
C4 C 0.8958(2) 0.6323(5) 0.0398(3)
C5 C 0.85983(18) 0.5973(5) 0.0270(3)
H7 H 0.8100 0.4648 0.0408
H11 H 0.7773 0.5938 0.0116
C12 C 0.9041(3) 0.6656(8) 0.1156(7)
H12 H 0.9054 0.6221 0.1501
H13 H 0.9290 0.6926 0.1155
C13 C 0.8653(3) 0.7862(7) 0.0866(7)
H14 H 0.8616 0.7616 0.0389
C14 C 0.8981(4) 0.8459(9) 0.0784(8)
H15 H 0.9208 0.8189 0.0594
H16 H 0.9047 0.8673 0.1256
C15 C 0.8868(4) 0.9163(10) 0.0264(9)
H17 H 0.9069 0.9569 0.0280
C16 C 0.8489(4) 0.9521(8) 0.0477(8)
H19 H 0.8418 0.9926 0.0126
H20 H 0.8518 0.9780 0.0945
C17 C 0.8160(3) 0.8894(8) 0.0525(7)
H21 H 0.7921 0.9148 0.0681
H22 H 0.8116 0.8658 0.0052
C18 C 0.8274(3) 0.8255(7) 0.1059(6)
H23 H 0.8302 0.8504 0.1537
C19 C 0.7632(3) 0.7902(7) 0.1497(7)
H24 H 0.7531 0.8358 0.1233
H25 H 0.7716 0.8093 0.1968
C20 C 0.73013(16) 0.7325(4) 0.1615(5)
C21 C 0.6934(2) 0.7661(4) 0.1683(5)
H26 H 0.6903 0.8210 0.1638
C22 C 0.66144(15) 0.7177(5) 0.1817(5)
C23 C 0.66618(18) 0.6357(5) 0.1884(5)
H27 H 0.6448 0.6033 0.1973
C24 C 0.7029(2) 0.6021(4) 0.1816(5)
C25 C 0.73487(16) 0.6504(4) 0.1682(5)
C26 C 0.7074(3) 0.5092(7) 0.1896(6)
C27 C 0.7279(4) 0.4746(7) 0.1218(7)
H28 H 0.7305 0.4178 0.1269
H29 H 0.7532 0.4981 0.1170
H30 H 0.7128 0.4863 0.0794
C28 C 0.6682(4) 0.4637(8) 0.1963(11)
H31 H 0.6732 0.4076 0.2016
H32 H 0.6529 0.4726 0.1535
H33 H 0.6543 0.4828 0.2380
C29 C 0.7291(4) 0.4934(10) 0.2578(8)
H34 H 0.7320 0.4369 0.2643
H35 H 0.7151 0.5154 0.2981
H36 H 0.7543 0.5177 0.2549
N5 N 0.5526(2) 0.8277(6) 0.2336(7)
C30 C 0.5781(3) 0.8646(6) 0.1858(7)
H37 H 0.5718 0.9138 0.1656
C31 C 0.6131(3) 0.8281(7) 0.1681(7)
H38 H 0.6301 0.8528 0.1361
C32 C 0.6226(2) 0.7546(7) 0.1983(8)
C33 C 0.5971(3) 0.7177(6) 0.2461(7)
H39 H 0.6034 0.6686 0.2663
C34 C 0.5621(3) 0.7543(7) 0.2638(6)
H40 H 0.5451 0.7296 0.2958
C35 C 0.9664(4) 0.6926(9) 0.6290(8)
C36 C 0.94014(19) 0.7278(5) 0.5705(3)
C37 C 0.9190(2) 0.7971(5) 0.5831(3)
H41 H 0.9224 0.8251 0.6262
C38 C 0.8929(2) 0.8245(4) 0.5314(4)
C39 C 0.88789(19) 0.7827(4) 0.4670(3)
C40 C 0.9090(2) 0.7134(4) 0.4544(3)
C41 C 0.9351(2) 0.6860(4) 0.5061(4)
H42 H 0.9493 0.6396 0.4977
C42 C 0.8720(4) 0.9090(8) 0.5454(8)
C43 C 0.8269(4) 0.8990(10) 0.5394(9)
H43 H 0.8146 0.9495 0.5480
H44 H 0.8182 0.8610 0.5747
H45 H 0.8204 0.8805 0.4917
C44 C 0.8867(5) 0.9663(9) 0.4866(10)
H47 H 0.8798 0.9458 0.4397
H48 H 0.9144 0.9712 0.4900
C45 C 0.8850(7) 0.9446(11) 0.6222(9)
H49 H 0.8725 0.9949 0.6299
H50 H 0.9127 0.9519 0.6226
H51 H 0.8778 0.9082 0.6600
C46 C 0.8392(3) 0.6170(8) 0.4156(7)
H52 H 0.8436 0.6405 0.4635
C47 C 0.8490(4) 0.5255(7) 0.4185(8)
H53 H 0.8461 0.5022 0.3706
H54 H 0.8757 0.5180 0.4340
C48 C 0.8221(4) 0.4857(9) 0.4703(7)
H55 H 0.8265 0.5077 0.5183
H56 H 0.8284 0.4293 0.4722
C49 C 0.7800(3) 0.4948(8) 0.4516(7)
H57 H 0.7640 0.4681 0.4875
H58 H 0.7748 0.4712 0.4046
C50 C 0.7708(4) 0.5836(8) 0.4502(7)
H59 H 0.7746 0.6059 0.4982
H60 H 0.7438 0.5913 0.4368
C51 C 0.7975(3) 0.6281(8) 0.3947(7)
H61 H 0.7935 0.6047 0.3466
C52 C 0.7513(3) 0.7296(7) 0.3520(6)
H62 H 0.7535 0.7099 0.3028
H63 H 0.7315 0.6985 0.3765
C53 C 0.73882(19) 0.8152(3) 0.3500(4)
C54 C 0.69960(17) 0.8322(4) 0.3587(4)
H64 H 0.6822 0.7915 0.3697
C55 C 0.68636(13) 0.9101(4) 0.3511(4)
C56 C 0.71234(19) 0.9710(3) 0.3347(4)
C57 C 0.75156(17) 0.9539(4) 0.3259(4)
C58 C 0.76480(13) 0.8760(4) 0.3336(4)
H66 H 0.7846 0.9998 0.1984
H67 H 0.8175 0.9591 0.2440
H70 H 0.8229 0.9839 0.3758
N6 N 0.56578(15) 0.9694(5) 0.3921(5)
C63 C 0.58093(19) 0.8978(4) 0.4175(4)
H75 H 0.5653 0.8630 0.4438
C64 C 0.6194(2) 0.8782(4) 0.4035(5)
H76 H 0.6296 0.8303 0.4205
C65 C 0.64277(15) 0.9302(5) 0.3642(5)
C68 C 0.8563(4) 0.4963(11) 0.2050(8)
H79 H 0.8695 0.4713 0.2448
H80 H 0.8730 0.4965 0.1633
H81 H 0.8330 0.4674 0.1941
C69 C 0.9110(4) 0.8655(10) 0.2920(9)
H82 H 0.9288 0.8695 0.2521
H83 H 0.9246 0.8468 0.3341
H84 H 0.9001 0.9171 0.3018
C70 C 0.9048(3) 0.6704(8) 0.3833(6)
H85 H 0.9181 0.7003 0.3459
H86 H 0.9171 0.6185 0.3869
Cd8 Cd 0.49419(2) 0.87731(6) 0.25016(5)
O24 O 0.9354(3) 0.5801(8) 0.7985(7)
O26 O 0.9754(3) 0.6399(7) 0.8683(6)
N14 N 0.9474(2) 0.3277(6) 0.7664(7)
N16 N 0.93422(15) 0.4694(5) 0.6079(5)
H173 H 0.883903 0.747637 0.182922
H174 H 0.863493 0.624409 0.316534
H175 H 0.788481 0.744474 0.0610113
H176 H 0.788009 0.741173 0.440753
C1 C 0.9439(4) 0.6070(9) 0.8583(9)
C2 C 0.91487(18) 0.6034(5) 0.9170(4)
C3 C 0.92332(16) 0.6353(5) 0.9847(4)
H1 H 0.9474 0.6587 0.9932
C6 C 0.85139(16) 0.5655(5) 0.9593(4)
C7 C 0.8789(2) 0.5685(5) 0.9043(3)
H2 H 0.8733 0.5472 0.8589
C8 C 0.8111(3) 0.5249(8) 0.9432(7)
C9 C 0.8076(3) 0.5024(10) 0.8615(7)
H3 H 0.7828 0.4779 0.8529
H4 H 0.8279 0.4657 0.8489
H5 H 0.8099 0.5496 0.8325
C10 C 0.8085(4) 0.4499(8) 0.9907(8)
H6 H 0.7842 0.4234 0.9818
H8 H 0.8295 0.4146 0.9791
C11 C 0.7767(3) 0.5803(7) 0.9611(7)
H9 H 0.7528 0.5535 0.9500
H10 H 0.7786 0.6281 0.9326
H18 H 0.8852 0.8966 0.9770
H3_2 H 0.2828 0.0221 0.1471
H4_2 H 0.3279 0.0343 0.1511
C10_2 C 0.3085(4) 0.0501(8) 0.0093(8)
H6_2 H 0.2842 0.0766 0.0182
H8_2 H 0.3295 0.0854 0.0209
O13 O 0.5646(3) 0.0801(8) 0.2015(7)
O14 O 0.5246(3) 0.1399(7) 0.1317(6)
C71_2 C 0.5561(4) 0.1070(9) 0.1417(9)
C72_2 C 0.58513(18) 0.1034(5) 0.0830(4)
C73_2 C 0.57668(16) 0.1353(5) 0.0153(4)
H87_2 H 0.5526 0.1587 0.0068
C76_2 C 0.64861(16) 0.0655(5) 0.0407(4)
C77_2 C 0.6211(2) 0.0685(5) 0.0957(3)
H88_2 H 0.6267 0.0472 0.1411
C78_2 C 0.6889(3) 0.0249(8) 0.0568(7)
C79_2 C 0.6924(3) 0.0024(10) 0.1385(7)
H91_2 H 0.6901 0.0496 0.1675
C81_2 C 0.7233(3) 0.0803(7) 0.0389(7)
H95_2 H 0.7472 0.0535 0.0500
H96_2 H 0.7214 0.1281 0.0674
H104_2 H 0.6148 0.3966 0.0230
Br1_3 Br 0.5000 0.0000 0.55057(10)
O9_3 O 0.5000 0.0000 0.2818(8)
H7_2 H 0.3100 0.0352 0.9592
C27_2 C 0.2279(4) 0.0254(7) 0.8782(7)
H28_2 H 0.2305 0.0822 0.8731
H29_2 H 0.2532 0.0019 0.8830
H30_2 H 0.2128 0.0137 0.9206
C28_2 C 0.1682(4) 0.0363(8) 0.8037(11)
H31_2 H 0.1732 0.0924 0.7984
H32_2 H 0.1529 0.0274 0.8465
H33_2 H 0.1543 0.0172 0.7620
C29_2 C 0.2291(4) 0.0066(10) 0.7422(8)
H34_2 H 0.2320 0.0631 0.7357
C48_2 C 0.3221(4) 0.0143(9) 0.5297(7)
H56_2 H 0.3284 0.0707 0.5278
C49_2 C 0.2800(3) 0.0052(8) 0.5484(7)
H57_2 H 0.2640 0.0319 0.5125
H58_2 H 0.2748 0.0288 0.5954
C68_2 C 0.3563(4) 0.0037(11) 0.7950(8)
H79_2 H 0.3695 0.0287 0.7552
H80_2 H 0.3730 0.0035 0.8367
H81_2 H 0.3330 0.0326 0.8059
Ti3_2 Ti 0.67775(6) 0.15309(13) 0.82996(11)
Ti4_2 Ti 0.66174(6) 0.27514(13) 0.67204(12)
N7_2 N 0.6260(2) 0.2210(6) 0.8629(5)
N8_2 N 0.7034(3) 0.2611(6) 0.8883(6)
N9_2 N 0.6368(3) 0.1593(6) 0.6385(5)
N10_2 N 0.7106(2) 0.2177(5) 0.6099(5)
O15_2 O 0.6673(2) 0.1000(4) 0.9201(4)
O16_2 O 0.7293(2) 0.1205(5) 0.8313(4)
O17_2 O 0.6529(2) 0.0735(5) 0.7768(4)
O18_2 O 0.67896(18) 0.2181(4) 0.7502(4)
O19_2 O 0.5129(2) 0.1324(6) 0.3835(5)
O20_2 O 0.5343(2) 0.2252(7) 0.3073(5)
O21_2 O 0.6381(2) 0.3077(5) 0.5816(4)
O22_2 O 0.69693(19) 0.3603(5) 0.6764(4)
O23_2 O 0.6193(2) 0.3108(5) 0.7258(4)
C74_2 C 0.6042(2) 0.1323(5) 0.9602(3)
C75_2 C 0.64017(18) 0.0973(5) 0.9730(3)
H97_2 H 0.7227 0.0938 0.9884
C82_2 C 0.5959(3) 0.1656(8) 0.8844(7)
H98_2 H 0.5946 0.1221 0.8499
H99_2 H 0.5710 0.1926 0.8845
C83_2 C 0.6347(3) 0.2862(7) 0.9134(7)
H100_2 H 0.6384 0.2616 0.9611
C84_2 C 0.6019(4) 0.3459(9) 0.9216(8)
H101_2 H 0.5792 0.3189 0.9406
H102_2 H 0.5953 0.3673 0.8744
C85_2 C 0.6132(4) 0.4163(10) 0.9736(9)
H103_2 H 0.5931 0.4569 0.9720
C86_2 C 0.6511(4) 0.4521(8) 0.9523(8)
H105_2 H 0.6582 0.4926 0.9874
H106_2 H 0.6482 0.4780 0.9055
C87_2 C 0.6840(3) 0.3894(8) 0.9475(7)
H107_2 H 0.7079 0.4148 0.9319
H108_2 H 0.6884 0.3658 0.9948
C88_2 C 0.6726(3) 0.3255(7) 0.8941(6)
H109_2 H 0.6698 0.3504 0.8463
C89_2 C 0.7368(3) 0.2902(7) 0.8503(7)
H110_2 H 0.7469 0.3358 0.8767
H111_2 H 0.7284 0.3093 0.8032
C90_2 C 0.76987(16) 0.2325(4) 0.8385(5)
C91_2 C 0.8066(2) 0.2661(4) 0.8317(5)
H112_2 H 0.8097 0.3210 0.8362
C92_2 C 0.83856(15) 0.2177(5) 0.8183(5)
C93_2 C 0.83382(18) 0.1357(5) 0.8116(5)
H113_2 H 0.8552 0.1033 0.8027
C94_2 C 0.7971(2) 0.1021(4) 0.8184(5)
C95_2 C 0.76513(16) 0.1504(4) 0.8318(5)
C96_2 C 0.7926(3) 0.0092(7) 0.8104(6)
H121_2 H 0.7849 0.0154 0.7019
H122_2 H 0.7457 0.0177 0.7451
C100_2 C 0.9219(3) 0.3646(6) 0.8142(7)
H123_2 H 0.9282 0.4138 0.8344
C101_2 C 0.8869(3) 0.3281(7) 0.8319(7)
H124_2 H 0.8699 0.3528 0.8639
C102_2 C 0.8774(2) 0.2546(7) 0.8017(8)
C103_2 C 0.9029(3) 0.2177(6) 0.7539(7)
H125_2 H 0.8966 0.1686 0.7337
C104_2 C 0.9379(3) 0.2543(7) 0.7362(6)
H126_2 H 0.9549 0.2296 0.7042
C105_2 C 0.5336(4) 0.1926(9) 0.3710(8)
C106_2 C 0.55986(19) 0.2278(5) 0.4295(3)
C107_2 C 0.5810(2) 0.2971(5) 0.4169(3)
H127_2 H 0.5776 0.3251 0.3738
C108_2 C 0.6071(2) 0.3245(4) 0.4686(4)
C109_2 C 0.61211(19) 0.2827(4) 0.5330(3)
C110_2 C 0.5910(2) 0.2134(4) 0.5456(3)
C111_2 C 0.5649(2) 0.1860(4) 0.4939(4)
H128_2 H 0.5507 0.1396 0.5023
C112_2 C 0.6280(4) 0.4090(8) 0.4546(8)
C113_2 C 0.6731(4) 0.3990(10) 0.4606(9)
H129_2 H 0.6854 0.4495 0.4520
H130_2 H 0.6818 0.3610 0.4253
H131_2 H 0.6796 0.3805 0.5083
C114_2 C 0.6133(5) 0.4663(9) 0.5134(10)
H132_2 H 0.6251 0.5177 0.5067
H133_2 H 0.6202 0.4458 0.5603
H134_2 H 0.5856 0.4712 0.5100
C115_2 C 0.6150(7) 0.4446(11) 0.3778(9)
H135_2 H 0.6275 0.4949 0.3701
H136_2 H 0.5873 0.4519 0.3774
H137_2 H 0.6222 0.4082 0.3400
C116_2 C 0.6608(3) 0.1170(8) 0.5844(7)
H138_2 H 0.6564 0.1405 0.5365
C117_2 C 0.6510(4) 0.0255(7) 0.5815(8)
H139_2 H 0.6539 0.0022 0.6294
H140_2 H 0.6243 0.0180 0.5660
H141_2 H 0.6735 0.0077 0.4817
C120_2 C 0.7292(4) 0.0836(8) 0.5498(7)
H145_2 H 0.7254 0.1059 0.5018
H146_2 H 0.7562 0.0913 0.5632
C121_2 C 0.7025(3) 0.1281(8) 0.6053(7)
H147_2 H 0.7065 0.1047 0.6534
C122_2 C 0.7487(3) 0.2296(7) 0.6480(6)
H148_2 H 0.7465 0.2099 0.6972
H149_2 H 0.7685 0.1985 0.6235
C123_2 C 0.76118(19) 0.3152(3) 0.6500(4)
C124_2 C 0.80040(17) 0.3322(4) 0.6413(4)
H150_2 H 0.8178 0.2915 0.6303
C125_2 C 0.81364(13) 0.4101(4) 0.6489(4)
C126_2 C 0.78766(19) 0.4710(3) 0.6653(4)
H151_2 H 0.7965 0.5231 0.6705
C127_2 C 0.74844(17) 0.4539(4) 0.6741(4)
C128_2 C 0.73520(13) 0.3760(4) 0.6664(4)
C129_2 C 0.7204(3) 0.5250(7) 0.6914(7)
C130_2 C 0.6975(3) 0.5069(9) 0.7622(7)
H152_2 H 0.7154 0.4998 0.8016
H153_2 H 0.6825 0.4591 0.7560
H154_2 H 0.6804 0.5507 0.7729
C131_2 C 0.6913(4) 0.5329(9) 0.6293(8)
H155_2 H 0.6736 0.5756 0.6395
H156_2 H 0.6771 0.4839 0.6242
H157_2 H 0.7050 0.5441 0.5850
C132_2 C 0.7403(4) 0.6038(8) 0.6998(7)
H158_2 H 0.7589 0.6006 0.7383
H159_2 H 0.7214 0.6441 0.7109
H160_2 H 0.7533 0.6172 0.6554
C133_2 C 0.91907(19) 0.3978(4) 0.5825(4)
H161_2 H 0.9347 0.3630 0.5562
C134_2 C 0.8806(2) 0.3782(4) 0.5965(5)
H162_2 H 0.8704 0.3303 0.5795
C135_2 C 0.85723(15) 0.4302(5) 0.6358(5)
C136_2 C 0.8724(2) 0.5018(5) 0.6611(5)
H163_2 H 0.8568 0.5366 0.6874
C137_2 C 0.9109(2) 0.5214(4) 0.6472(5)
H164_2 H 0.9210 0.5693 0.6642
C139_2 C 0.5890(4) 0.3655(10) 0.7080(9)
H168_2 H 0.5712 0.3695 0.7479
H169_2 H 0.5754 0.3468 0.6659
H170_2 H 0.5999 0.4171 0.6982
C140_2 C 0.5952(3) 0.1704(8) 0.6167(6)
H171_2 H 0.5819 0.2003 0.6541
H172_2 H 0.5829 0.1185 0.6131
H177_2 H 0.616097 0.247637 0.817078
H178_2 H 0.636507 0.124409 0.683466
H179_2 H 0.711991 0.241173 0.559247
H180_2 H 0.711519 0.244474 0.938989
O1 O 0.4354(3) 0.9199(8) 0.2015(7)
O2 O 0.4754(3) 0.8601(7) 0.1317(6)
C1_2 C 0.4439(4) 0.8930(9) 0.1417(9)
C2_2 C 0.41487(18) 0.8966(5) 0.0830(4)
C3_2 C 0.42332(16) 0.8647(5) 0.0153(4)
H1_2 H 0.4474 0.8413 0.0068
C6_2 C 0.35139(16) 0.9345(5) 0.0407(4)
C7_2 C 0.3789(2) 0.9315(5) 0.0957(3)
H2_2 H 0.3733 0.9528 0.1411
C8_2 C 0.3111(3) 0.9751(8) 0.0568(7)
C9_2 C 0.3076(3) 0.9976(10) 0.1385(7)
H5_2 H 0.3099 0.9504 0.1675
C11_2 C 0.2767(3) 0.9197(7) 0.0389(7)
H9_2 H 0.2528 0.9465 0.0500
H10_2 H 0.2786 0.8719 0.0674
H18_2 H 0.3852 0.6034 0.0230
H89_2 H 0.7172 0.9779 0.1471
H90_2 H 0.6721 0.9657 0.1511
C80_2 C 0.6915(4) 0.9499(8) 0.0093(8)
H92_2 H 0.7158 0.9234 0.0182
H94_2 H 0.6705 0.9146 0.0209
Ti1_2 Ti 0.32225(6) 0.84691(13) 0.82996(11)
Ti2_2 Ti 0.33826(6) 0.72486(13) 0.67204(12)
Br1_4 Br 0.5000 1.0000 0.55057(10)
N1_2 N 0.3740(2) 0.7790(6) 0.8629(5)
N2_2 N 0.2966(3) 0.7389(6) 0.8883(6)
N3_2 N 0.3632(3) 0.8407(6) 0.6385(5)
N4_2 N 0.2894(2) 0.7823(5) 0.6099(5)
O3_2 O 0.3327(2) 0.9000(4) 0.9201(4)
O4_2 O 0.2707(2) 0.8795(5) 0.8313(4)
O5_2 O 0.3471(2) 0.9265(5) 0.7768(4)
O6_2 O 0.32104(18) 0.7819(4) 0.7502(4)
O7_2 O 0.4871(2) 0.8676(6) 0.3835(5)
O8_2 O 0.4657(2) 0.7748(7) 0.3073(5)
O9_4 O 0.5000 1.0000 0.2818(8)
O10_2 O 0.3619(2) 0.6923(5) 0.5816(4)
O11_2 O 0.30307(19) 0.6397(5) 0.6764(4)
O12_2 O 0.3807(2) 0.6892(5) 0.7258(4)
C4_2 C 0.3958(2) 0.8677(5) 0.9602(3)
C5_2 C 0.35983(18) 0.9027(5) 0.9730(3)
H11_2 H 0.2773 0.9062 0.9884
C12_2 C 0.4041(3) 0.8344(8) 0.8844(7)
H12_2 H 0.4054 0.8779 0.8499
H13_2 H 0.4290 0.8074 0.8845
C13_2 C 0.3653(3) 0.7138(7) 0.9134(7)
H14_2 H 0.3616 0.7384 0.9611
C14_2 C 0.3981(4) 0.6541(9) 0.9216(8)
H15_2 H 0.4208 0.6811 0.9406
H16_2 H 0.4047 0.6327 0.8744
C15_2 C 0.3868(4) 0.5837(10) 0.9736(9)
H17_2 H 0.4069 0.5431 0.9720
C16_2 C 0.3489(4) 0.5479(8) 0.9523(8)
H19_2 H 0.3418 0.5074 0.9874
H20_2 H 0.3518 0.5220 0.9055
C17_2 C 0.3160(3) 0.6106(8) 0.9475(7)
H21_2 H 0.2921 0.5852 0.9319
H22_2 H 0.3116 0.6342 0.9948
C18_2 C 0.3274(3) 0.6745(7) 0.8941(6)
H23_2 H 0.3302 0.6496 0.8463
C19_2 C 0.2632(3) 0.7098(7) 0.8503(7)
H24_2 H 0.2531 0.6642 0.8767
H25_2 H 0.2716 0.6907 0.8032
C20_2 C 0.23013(16) 0.7675(4) 0.8385(5)
C21_2 C 0.1934(2) 0.7339(4) 0.8317(5)
H26_2 H 0.1903 0.6790 0.8362
C22_2 C 0.16144(15) 0.7823(5) 0.8183(5)
C23_2 C 0.16618(18) 0.8643(5) 0.8116(5)
H27_2 H 0.1448 0.8967 0.8027
C24_2 C 0.2029(2) 0.8979(4) 0.8184(5)
C25_2 C 0.23487(16) 0.8496(4) 0.8318(5)
C26_2 C 0.2074(3) 0.9908(7) 0.8104(6)
H35_2 H 0.2151 0.9846 0.7019
H36_2 H 0.2543 0.9823 0.7451
C30_2 C 0.0781(3) 0.6354(6) 0.8142(7)
H37_2 H 0.0718 0.5862 0.8344
C31_2 C 0.1131(3) 0.6719(7) 0.8319(7)
H38_2 H 0.1301 0.6472 0.8639
C32_2 C 0.1226(2) 0.7454(7) 0.8017(8)
C33_2 C 0.0971(3) 0.7823(6) 0.7539(7)
H39_2 H 0.1034 0.8314 0.7337
C34_2 C 0.0621(3) 0.7457(7) 0.7362(6)
H40_2 H 0.0451 0.7704 0.7042
C35_2 C 0.4664(4) 0.8074(9) 0.3710(8)
C36_2 C 0.44014(19) 0.7722(5) 0.4295(3)
C37_2 C 0.4190(2) 0.7029(5) 0.4169(3)
H41_2 H 0.4224 0.6749 0.3738
C38_2 C 0.3929(2) 0.6755(4) 0.4686(4)
C39_2 C 0.38789(19) 0.7173(4) 0.5330(3)
C40_2 C 0.4090(2) 0.7866(4) 0.5456(3)
C41_2 C 0.4351(2) 0.8140(4) 0.4939(4)
H42_2 H 0.4493 0.8604 0.5023
C42_2 C 0.3720(4) 0.5910(8) 0.4546(8)
C43_2 C 0.3269(4) 0.6010(10) 0.4606(9)
H43_2 H 0.3146 0.5505 0.4520
H44_2 H 0.3182 0.6390 0.4253
H45_2 H 0.3204 0.6195 0.5083
C44_2 C 0.3867(5) 0.5337(9) 0.5134(10)
H46_2 H 0.3749 0.4823 0.5067
H47_2 H 0.3798 0.5542 0.5603
H48_2 H 0.4144 0.5288 0.5100
C45_2 C 0.3850(7) 0.5554(11) 0.3778(9)
H49_2 H 0.3725 0.5051 0.3701
H50_2 H 0.4127 0.5481 0.3774
H51_2 H 0.3778 0.5918 0.3400
C46_2 C 0.3392(3) 0.8830(8) 0.5844(7)
H52_2 H 0.3436 0.8595 0.5365
C47_2 C 0.3490(4) 0.9745(7) 0.5815(8)
H53_2 H 0.3461 0.9978 0.6294
H54_2 H 0.3757 0.9820 0.5660
H55_2 H 0.3265 0.9923 0.4817
C50_2 C 0.2708(4) 0.9164(8) 0.5498(7)
H59_2 H 0.2746 0.8941 0.5018
H60_2 H 0.2438 0.9087 0.5632
C51_2 C 0.2975(3) 0.8719(8) 0.6053(7)
H61_2 H 0.2935 0.8953 0.6534
C52_2 C 0.2513(3) 0.7704(7) 0.6480(6)
H62_2 H 0.2535 0.7901 0.6972
H63_2 H 0.2315 0.8015 0.6235
C53_2 C 0.23882(19) 0.6848(3) 0.6500(4)
C54_2 C 0.19960(17) 0.6678(4) 0.6413(4)
H64_2 H 0.1822 0.7085 0.6303
C55_2 C 0.18636(13) 0.5899(4) 0.6489(4)
C56_2 C 0.21234(19) 0.5290(3) 0.6653(4)
H65_2 H 0.2035 0.4769 0.6705
C57_2 C 0.25156(17) 0.5461(4) 0.6741(4)
C58_2 C 0.26480(13) 0.6240(4) 0.6664(4)
C59_2 C 0.2796(3) 0.4750(7) 0.6914(7)
C60_2 C 0.3025(3) 0.4931(9) 0.7622(7)
H66_2 H 0.2846 0.5002 0.8016
H67_2 H 0.3175 0.5409 0.7560
H68_2 H 0.3196 0.4493 0.7729
C61_2 C 0.3087(4) 0.4671(9) 0.6293(8)
H69_2 H 0.3264 0.4244 0.6395
H70_2 H 0.3229 0.5161 0.6242
H71_2 H 0.2950 0.4559 0.5850
C62_2 C 0.2597(4) 0.3962(8) 0.6998(7)
H72_2 H 0.2411 0.3994 0.7383
H73_2 H 0.2786 0.3559 0.7109
H74_2 H 0.2467 0.3828 0.6554
C63_2 C 0.08093(19) 0.6022(4) 0.5825(4)
H75_2 H 0.0653 0.6370 0.5562
C64_2 C 0.1194(2) 0.6218(4) 0.5965(5)
H76_2 H 0.1296 0.6697 0.5795
C65_2 C 0.14277(15) 0.5698(5) 0.6358(5)
C66_2 C 0.1276(2) 0.4982(5) 0.6611(5)
H77_2 H 0.1432 0.4634 0.6874
C67_2 C 0.0891(2) 0.4786(4) 0.6472(5)
H78_2 H 0.0790 0.4307 0.6642
C69_2 C 0.4110(4) 0.6345(10) 0.7080(9)
H82_2 H 0.4288 0.6305 0.7479
H83_2 H 0.4246 0.6532 0.6659
H84_2 H 0.4001 0.5829 0.6982
C70_2 C 0.4048(3) 0.8296(8) 0.6167(6)
H85_2 H 0.4181 0.7997 0.6541
H86_2 H 0.4171 0.8815 0.6131
H93_2 H 0.6900 0.9648 0.9592
C97_2 C 0.7721(4) 0.9746(7) 0.8782(7)
H114_2 H 0.7695 0.9178 0.8731
H115_2 H 0.7468 0.9981 0.8830
H116_2 H 0.7872 0.9863 0.9206
C98_2 C 0.8318(4) 0.9637(8) 0.8037(11)
H117_2 H 0.8268 0.9076 0.7984
H118_2 H 0.8471 0.9726 0.8465
H119_2 H 0.8457 0.9828 0.7620
C99_2 C 0.7709(4) 0.9934(10) 0.7422(8)
H120_2 H 0.7680 0.9369 0.7357
C118_2 C 0.6779(4) 0.9857(9) 0.5297(7)
H142_2 H 0.6716 0.9293 0.5278
C119_2 C 0.7200(3) 0.9948(8) 0.5484(7)
H143_2 H 0.7360 0.9681 0.5125
H144_2 H 0.7252 0.9712 0.5954
C138_2 C 0.6437(4) 0.9963(11) 0.7950(8)
H165_2 H 0.6305 0.9713 0.7552
H166_2 H 0.6270 0.9965 0.8367
H167_2 H 0.6670 0.9674 0.8059
H173_2 H 0.383903 0.752363 0.817078
H174_2 H 0.363493 0.875591 0.683466
H175_2 H 0.288481 0.755526 0.938989
H176_2 H 0.288009 0.758827 0.559247
loop_
_geom_bond_atom_site_label_1
_geom_bond_atom_site_label_2
_geom_bond_site_symmetry_1
_geom_bond_site_symmetry_2
Cd1 Br1 1_555 1_555
O9 Cd1 1_555 1_555
Ti3 N7 1_555 1_555
Ti4 N9 1_555 1_555
Cd3 O9 1_555 1_555
N7 C82 1_555 1_555
N8 Ti3 1_555 1_555
N9 C116 1_555 1_555
N10 Ti4 1_555 1_555
O15 Ti3 1_555 1_555
O16 Ti3 1_555 1_555
O17 Ti3 1_555 1_555
O18 Ti3 1_555 1_555
O19 Cd1 1_555 1_555
O20 Cd3 1_555 1_555
O21 Ti4 1_555 1_555
O22 Ti4 1_555 1_555
O23 Ti4 1_555 1_555
C75 O15 1_555 1_555
C82 C74 1_555 1_555
H98 C82 1_555 1_555
H99 C82 1_555 1_555
C83 N7 1_555 1_555
H100 C83 1_555 1_555
C84 C83 1_555 1_555
H101 C84 1_555 1_555
H102 C84 1_555 1_555
C85 C84 1_555 1_555
H103 C85 1_555 1_555
C86 C85 1_555 1_555
H105 C86 1_555 1_555
H106 C86 1_555 1_555
C87 C86 1_555 1_555
H107 C87 1_555 1_555
H108 C87 1_555 1_555
C88 N8 1_555 1_555
H109 C88 1_555 1_555
C89 N8 1_555 1_555
H110 C89 1_555 1_555
H111 C89 1_555 1_555
C90 C89 1_555 1_555
C91 C90 1_555 1_555
H112 C91 1_555 1_555
C92 C91 1_555 1_555
C93 C92 1_555 1_555
H113 C93 1_555 1_555
C94 C93 1_555 1_555
C95 O16 1_555 1_555
C96 C94 1_555 1_555
C97 C96 1_555 1_555
H114 C97 1_555 1_555
H115 C97 1_555 1_555
H116 C97 1_555 1_555
C98 C96 1_555 1_555
H117 C98 1_555 1_555
H118 C98 1_555 1_555
H119 C98 1_555 1_555
C99 C96 1_555 1_555
H120 C99 1_555 1_555
H121 C99 1_555 1_555
H122 C99 1_555 1_555
N11 C100 1_555 1_555
C100 H123 1_555 1_555
C101 C100 1_555 1_555
H124 C101 1_555 1_555
C102 C92 1_555 1_555
C103 C102 1_555 1_555
H125 C103 1_555 1_555
C104 N11 1_555 1_555
H126 C104 1_555 1_555
C105 O19 1_555 1_555
C106 C105 1_555 1_555
C107 C106 1_555 1_555
H127 C107 1_555 1_555
C108 C107 1_555 1_555
C109 O21 1_555 1_555
C110 C109 1_555 1_555
C111 C106 1_555 1_555
H128 C111 1_555 1_555
C112 C108 1_555 1_555
C113 C112 1_555 1_555
H129 C113 1_555 1_555
H130 C113 1_555 1_555
H131 C113 1_555 1_555
C114 C112 1_555 1_555
H133 C114 1_555 1_555
H134 C114 1_555 1_555
C115 C112 1_555 1_555
H135 C115 1_555 1_555
H136 C115 1_555 1_555
H137 C115 1_555 1_555
C116 H138 1_555 1_555
C117 C116 1_555 1_555
H139 C117 1_555 1_555
H140 C117 1_555 1_555
C118 C117 1_555 1_555
H141 C118 1_555 1_555
H142 C118 1_555 1_555
C119 C118 1_555 1_555
H143 C119 1_555 1_555
H144 C119 1_555 1_555
C120 C119 1_555 1_555
H145 C120 1_555 1_555
H146 C120 1_555 1_555
C121 N10 1_555 1_555
H147 C121 1_555 1_555
C122 N10 1_555 1_555
H148 C122 1_555 1_555
H149 C122 1_555 1_555
C123 C122 1_555 1_555
C124 C123 1_555 1_555
H150 C124 1_555 1_555
C125 C124 1_555 1_555
C126 C125 1_555 1_555
C127 C126 1_555 1_555
C128 O22 1_555 1_555
N12 C133 1_555 1_555
C133 H161 1_555 1_555
C134 C133 1_555 1_555
H162 C134 1_555 1_555
C135 C125 1_555 1_555
C138 O17 1_555 1_555
H165 C138 1_555 1_555
H166 C138 1_555 1_555
H167 C138 1_555 1_555
C139 O23 1_555 1_555
H168 C139 1_555 1_555
H169 C139 1_555 1_555
H170 C139 1_555 1_555
C140 N9 1_555 1_555
H171 C140 1_555 1_555
H172 C140 1_555 1_555
Cd5 N12 1_555 1_555
Cd9 N11 1_555 1_555
O25 Cd3 1_555 1_555
O27 Cd3 1_555 1_555
N15 Cd1 1_555 1_555
Ti4 O18 1_555 1_555
Cd3 O19 1_555 1_555
O20 C105 1_555 1_555
C74 C75 1_555 1_555
C83 C88 1_555 1_555
C87 C88 1_555 1_555
C90 C95 1_555 1_555
C94 C95 1_555 1_555
C101 C102 1_555 1_555
C103 C104 1_555 1_555
C108 C109 1_555 1_555
C110 C111 1_555 1_555
C110 C140 1_555 1_555
C116 C121 1_555 1_555
C120 C121 1_555 1_555
C123 C128 1_555 1_555
C127 C128 1_555 1_555
C134 C135 1_555 1_555
N7 H177 1_555 1_555
N9 H178 1_555 1_555
N10 H179 1_555 1_555
N8 H180 1_555 1_555
O25 C71 1_555 1_555
O27 C71 1_555 1_555
C71 C72 1_555 1_555
C72 C73 1_555 1_555
C73 H87 1_555 1_555
C77 C72 1_555 1_555
H88 C77 1_555 1_555
C78 C76 1_555 1_555
C79 C78 1_555 1_555
H89 C79 1_555 1_555
H90 C79 1_555 1_555
H91 C79 1_555 1_555
C80 C78 1_555 1_555
H92 C80 1_555 1_555
H94 C80 1_555 1_555
C81 C78 1_555 1_555
H95 C81 1_555 1_555
H96 C81 1_555 1_555
C76 C77 1_555 1_555
C130 C129 1_555 1_555
H154 C130 1_555 1_555
C131 C129 1_555 1_555
H155 C131 1_555 1_555
H157 C131 1_555 1_555
C132 C129 1_555 1_555
H158 C132 1_555 1_555
H159 C132 1_555 1_555
H160 C132 1_555 1_555
H163 C136 1_555 1_555
H164 C137 1_555 1_555
C136 C137 1_555 1_555
C60 C59 1_555 1_555
H68 C60 1_555 1_555
C61 C59 1_555 1_555
H69 C61 1_555 1_555
H71 C61 1_555 1_555
C62 C59 1_555 1_555
H72 C62 1_555 1_555
H73 C62 1_555 1_555
H74 C62 1_555 1_555
H77 C66 1_555 1_555
H78 C67 1_555 1_555
C66 C67 1_555 1_555
Ti1 N1 1_555 1_555
Ti2 N3 1_555 1_555
Cd1_2 Br1_2 1_555 1_555
Cd2 O7 1_555 1_555
N1 C12 1_555 1_555
N2 Ti1 1_555 1_555
N3 C46 1_555 1_555
N4 Ti2 1_555 1_555
O3 Ti1 1_555 1_555
O4 Ti1 1_555 1_555
O5 Ti1 1_555 1_555
O6 Ti1 1_555 1_555
O7 Cd1_2 1_555 1_555
O8 Cd2 1_555 1_555
O9_2 Cd1_2 1_555 1_555
O10 Ti2 1_555 1_555
O11 Ti2 1_555 1_555
O12 Ti2 1_555 1_555
C5 O3 1_555 1_555
C12 C4 1_555 1_555
H12 C12 1_555 1_555
H13 C12 1_555 1_555
C13 N1 1_555 1_555
H14 C13 1_555 1_555
C14 C13 1_555 1_555
H15 C14 1_555 1_555
H16 C14 1_555 1_555
C15 C14 1_555 1_555
H17 C15 1_555 1_555
C16 C15 1_555 1_555
H19 C16 1_555 1_555
H20 C16 1_555 1_555
C17 C16 1_555 1_555
H21 C17 1_555 1_555
H22 C17 1_555 1_555
C18 N2 1_555 1_555
H23 C18 1_555 1_555
C19 N2 1_555 1_555
H24 C19 1_555 1_555
H25 C19 1_555 1_555
C20 C19 1_555 1_555
C21 C20 1_555 1_555
H26 C21 1_555 1_555
C22 C21 1_555 1_555
C23 C22 1_555 1_555
H27 C23 1_555 1_555
C24 C23 1_555 1_555
C25 O4 1_555 1_555
C26 C24 1_555 1_555
C27 C26 1_555 1_555
H28 C27 1_555 1_555
H29 C27 1_555 1_555
H30 C27 1_555 1_555
C28 C26 1_555 1_555
H31 C28 1_555 1_555
H32 C28 1_555 1_555
H33 C28 1_555 1_555
C29 C26 1_555 1_555
H34 C29 1_555 1_555
H35 C29 1_555 1_555
H36 C29 1_555 1_555
N5 C30 1_555 1_555
C30 H37 1_555 1_555
C31 C30 1_555 1_555
H38 C31 1_555 1_555
C32 C22 1_555 1_555
C33 C32 1_555 1_555
H39 C33 1_555 1_555
C34 N5 1_555 1_555
H40 C34 1_555 1_555
C35 O7 1_555 1_555
C36 C35 1_555 1_555
C37 C36 1_555 1_555
H41 C37 1_555 1_555
C38 C37 1_555 1_555
C39 O10 1_555 1_555
C40 C39 1_555 1_555
C41 C36 1_555 1_555
H42 C41 1_555 1_555
C42 C38 1_555 1_555
C43 C42 1_555 1_555
H43 C43 1_555 1_555
H44 C43 1_555 1_555
H45 C43 1_555 1_555
C44 C42 1_555 1_555
H47 C44 1_555 1_555
H48 C44 1_555 1_555
C45 C42 1_555 1_555
H49 C45 1_555 1_555
H50 C45 1_555 1_555
H51 C45 1_555 1_555
C46 H52 1_555 1_555
C47 C46 1_555 1_555
H53 C47 1_555 1_555
H54 C47 1_555 1_555
C48 C47 1_555 1_555
H55 C48 1_555 1_555
H56 C48 1_555 1_555
C49 C48 1_555 1_555
H57 C49 1_555 1_555
H58 C49 1_555 1_555
C50 C49 1_555 1_555
H59 C50 1_555 1_555
H60 C50 1_555 1_555
C51 N4 1_555 1_555
H61 C51 1_555 1_555
C52 N4 1_555 1_555
H62 C52 1_555 1_555
H63 C52 1_555 1_555
C53 C52 1_555 1_555
C54 C53 1_555 1_555
H64 C54 1_555 1_555
C55 C54 1_555 1_555
C56 C55 1_555 1_555
C57 C56 1_555 1_555
C58 O11 1_555 1_555
N6 C63 1_555 1_555
C63 H75 1_555 1_555
C64 C63 1_555 1_555
H76 C64 1_555 1_555
C65 C55 1_555 1_555
C68 O5 1_555 1_555
H79 C68 1_555 1_555
H80 C68 1_555 1_555
H81 C68 1_555 1_555
C69 O12 1_555 1_555
H82 C69 1_555 1_555
H83 C69 1_555 1_555
H84 C69 1_555 1_555
C70 N3 1_555 1_555
H85 C70 1_555 1_555
H86 C70 1_555 1_555
Cd5_2 N6 1_555 1_555
Cd8 N5 1_555 1_555
O24 Cd2 1_555 1_555
O26 Cd2 1_555 1_555
N16 Cd1_2 1_555 1_555
Ti2 O6 1_555 1_555
Cd2 O9_2 1_555 1_555
O8 C35 1_555 1_555
C4 C5 1_555 1_555
C13 C18 1_555 1_555
C17 C18 1_555 1_555
C20 C25 1_555 1_555
C24 C25 1_555 1_555
C31 C32 1_555 1_555
C33 C34 1_555 1_555
C38 C39 1_555 1_555
C40 C41 1_555 1_555
C40 C70 1_555 1_555
C46 C51 1_555 1_555
C50 C51 1_555 1_555
C53 C58 1_555 1_555
C57 C58 1_555 1_555
C64 C65 1_555 1_555
N1 H173 1_555 1_555
N3 H174 1_555 1_555
N2 H175 1_555 1_555
N4 H176 1_555 1_555
O24 C1 1_555 1_555
O26 C1 1_555 1_555
C1 C2 1_555 1_555
C2 C3 1_555 1_555
C3 H1 1_555 1_555
C7 C2 1_555 1_555
H2 C7 1_555 1_555
C8 C6 1_555 1_555
C9 C8 1_555 1_555
H3 C9 1_555 1_555
H4 C9 1_555 1_555
H5 C9 1_555 1_555
C10 C8 1_555 1_555
H6 C10 1_555 1_555
H8 C10 1_555 1_555
C11 C8 1_555 1_555
H9 C11 1_555 1_555
H10 C11 1_555 1_555
C6 C7 1_555 1_555
H6_2 C10_2 1_555 1_555
H8_2 C10_2 1_555 1_555
O13 C71_2 1_555 1_555
O14 C71_2 1_555 1_555
C71_2 C72_2 1_555 1_555
C72_2 C73_2 1_555 1_555
C73_2 H87_2 1_555 1_555
C77_2 C72_2 1_555 1_555
H88_2 C77_2 1_555 1_555
C78_2 C76_2 1_555 1_555
C79_2 C78_2 1_555 1_555
H91_2 C79_2 1_555 1_555
C81_2 C78_2 1_555 1_555
H95_2 C81_2 1_555 1_555
H96_2 C81_2 1_555 1_555
Cd9 O13 1_555 1_555
O14 Cd9 1_555 1_555
C76_2 C77_2 1_555 1_555
Cd5 Br1_3 1_555 1_555
O9_3 Cd5 1_555 1_555
H28_2 C27_2 1_555 1_555
H29_2 C27_2 1_555 1_555
H30_2 C27_2 1_555 1_555
H31_2 C28_2 1_555 1_555
H32_2 C28_2 1_555 1_555
H33_2 C28_2 1_555 1_555
H34_2 C29_2 1_555 1_555
H56_2 C48_2 1_555 1_555
C49_2 C48_2 1_555 1_555
H57_2 C49_2 1_555 1_555
H58_2 C49_2 1_555 1_555
H79_2 C68_2 1_555 1_555
H80_2 C68_2 1_555 1_555
H81_2 C68_2 1_555 1_555
Ti3_2 N7_2 1_555 1_555
Ti4_2 N9_2 1_555 1_555
Cd9 O9_3 1_555 1_555
N7_2 C82_2 1_555 1_555
N8_2 Ti3_2 1_555 1_555
N9_2 C116_2 1_555 1_555
N10_2 Ti4_2 1_555 1_555
O15_2 Ti3_2 1_555 1_555
O16_2 Ti3_2 1_555 1_555
O17_2 Ti3_2 1_555 1_555
O18_2 Ti3_2 1_555 1_555
O19_2 Cd5 1_555 1_555
O20_2 Cd9 1_555 1_555
O21_2 Ti4_2 1_555 1_555
O22_2 Ti4_2 1_555 1_555
O23_2 Ti4_2 1_555 1_555
C75_2 O15_2 1_555 1_555
C82_2 C74_2 1_555 1_555
H98_2 C82_2 1_555 1_555
H99_2 C82_2 1_555 1_555
C83_2 N7_2 1_555 1_555
H100_2 C83_2 1_555 1_555
C84_2 C83_2 1_555 1_555
H101_2 C84_2 1_555 1_555
H102_2 C84_2 1_555 1_555
C85_2 C84_2 1_555 1_555
H103_2 C85_2 1_555 1_555
C86_2 C85_2 1_555 1_555
H105_2 C86_2 1_555 1_555
H106_2 C86_2 1_555 1_555
C87_2 C86_2 1_555 1_555
H107_2 C87_2 1_555 1_555
H108_2 C87_2 1_555 1_555
C88_2 N8_2 1_555 1_555
H109_2 C88_2 1_555 1_555
C89_2 N8_2 1_555 1_555
H110_2 C89_2 1_555 1_555
H111_2 C89_2 1_555 1_555
C90_2 C89_2 1_555 1_555
C91_2 C90_2 1_555 1_555
H112_2 C91_2 1_555 1_555
C92_2 C91_2 1_555 1_555
C93_2 C92_2 1_555 1_555
H113_2 C93_2 1_555 1_555
C94_2 C93_2 1_555 1_555
C95_2 O16_2 1_555 1_555
C96_2 C94_2 1_555 1_555
N14 C100_2 1_555 1_555
C100_2 H123_2 1_555 1_555
C101_2 C100_2 1_555 1_555
H124_2 C101_2 1_555 1_555
C102_2 C92_2 1_555 1_555
C103_2 C102_2 1_555 1_555
H125_2 C103_2 1_555 1_555
C104_2 N14 1_555 1_555
H126_2 C104_2 1_555 1_555
C105_2 O19_2 1_555 1_555
C106_2 C105_2 1_555 1_555
C107_2 C106_2 1_555 1_555
H127_2 C107_2 1_555 1_555
C108_2 C107_2 1_555 1_555
C109_2 O21_2 1_555 1_555
C110_2 C109_2 1_555 1_555
C111_2 C106_2 1_555 1_555
H128_2 C111_2 1_555 1_555
C112_2 C108_2 1_555 1_555
C113_2 C112_2 1_555 1_555
H129_2 C113_2 1_555 1_555
H130_2 C113_2 1_555 1_555
H131_2 C113_2 1_555 1_555
C114_2 C112_2 1_555 1_555
H132_2 C114_2 1_555 1_555
H133_2 C114_2 1_555 1_555
H134_2 C114_2 1_555 1_555
C115_2 C112_2 1_555 1_555
H135_2 C115_2 1_555 1_555
H136_2 C115_2 1_555 1_555
H137_2 C115_2 1_555 1_555
C116_2 H138_2 1_555 1_555
C117_2 C116_2 1_555 1_555
H139_2 C117_2 1_555 1_555
H140_2 C117_2 1_555 1_555
H145_2 C120_2 1_555 1_555
H146_2 C120_2 1_555 1_555
C121_2 N10_2 1_555 1_555
H147_2 C121_2 1_555 1_555
C122_2 N10_2 1_555 1_555
H148_2 C122_2 1_555 1_555
H149_2 C122_2 1_555 1_555
C123_2 C122_2 1_555 1_555
C124_2 C123_2 1_555 1_555
H150_2 C124_2 1_555 1_555
C125_2 C124_2 1_555 1_555
C126_2 C125_2 1_555 1_555
H151_2 C126_2 1_555 1_555
C127_2 C126_2 1_555 1_555
C128_2 O22_2 1_555 1_555
C129_2 C127_2 1_555 1_555
C130_2 C129_2 1_555 1_555
H152_2 C130_2 1_555 1_555
H153_2 C130_2 1_555 1_555
H154_2 C130_2 1_555 1_555
C131_2 C129_2 1_555 1_555
H155_2 C131_2 1_555 1_555
H156_2 C131_2 1_555 1_555
H157_2 C131_2 1_555 1_555
C132_2 C129_2 1_555 1_555
H158_2 C132_2 1_555 1_555
H159_2 C132_2 1_555 1_555
H160_2 C132_2 1_555 1_555
N16 C133_2 1_555 1_555
C133_2 H161_2 1_555 1_555
C134_2 C133_2 1_555 1_555
H162_2 C134_2 1_555 1_555
C135_2 C125_2 1_555 1_555
C136_2 C135_2 1_555 1_555
H163_2 C136_2 1_555 1_555
C137_2 N16 1_555 1_555
H164_2 C137_2 1_555 1_555
C139_2 O23_2 1_555 1_555
H168_2 C139_2 1_555 1_555
H169_2 C139_2 1_555 1_555
H170_2 C139_2 1_555 1_555
C140_2 N9_2 1_555 1_555
H171_2 C140_2 1_555 1_555
H172_2 C140_2 1_555 1_555
Ti4_2 O18_2 1_555 1_555
Cd9 O19_2 1_555 1_555
O20_2 C105_2 1_555 1_555
C74_2 C75_2 1_555 1_555
C83_2 C88_2 1_555 1_555
C87_2 C88_2 1_555 1_555
C90_2 C95_2 1_555 1_555
C94_2 C95_2 1_555 1_555
C101_2 C102_2 1_555 1_555
C103_2 C104_2 1_555 1_555
C108_2 C109_2 1_555 1_555
C110_2 C111_2 1_555 1_555
C110_2 C140_2 1_555 1_555
C116_2 C121_2 1_555 1_555
C120_2 C121_2 1_555 1_555
C123_2 C128_2 1_555 1_555
C127_2 C128_2 1_555 1_555
C134_2 C135_2 1_555 1_555
C136_2 C137_2 1_555 1_555
N7_2 H177_2 1_555 1_555
N9_2 H178_2 1_555 1_555
N10_2 H179_2 1_555 1_555
N8_2 H180_2 1_555 1_555
O1 C1_2 1_555 1_555
O2 C1_2 1_555 1_555
C1_2 C2_2 1_555 1_555
C2_2 C3_2 1_555 1_555
C3_2 H1_2 1_555 1_555
C7_2 C2_2 1_555 1_555
H2_2 C7_2 1_555 1_555
C8_2 C6_2 1_555 1_555
C9_2 C8_2 1_555 1_555
H5_2 C9_2 1_555 1_555
C11_2 C8_2 1_555 1_555
H9_2 C11_2 1_555 1_555
H10_2 C11_2 1_555 1_555
H92_2 C80_2 1_555 1_555
H94_2 C80_2 1_555 1_555
Cd8 O1 1_555 1_555
O2 Cd8 1_555 1_555
C6_2 C7_2 1_555 1_555
Ti1_2 N1_2 1_555 1_555
Ti2_2 N3_2 1_555 1_555
Cd5_2 Br1_4 1_555 1_555
Cd8 O7_2 1_555 1_555
N1_2 C12_2 1_555 1_555
N2_2 Ti1_2 1_555 1_555
N3_2 C46_2 1_555 1_555
N4_2 Ti2_2 1_555 1_555
O3_2 Ti1_2 1_555 1_555
O4_2 Ti1_2 1_555 1_555
O5_2 Ti1_2 1_555 1_555
O6_2 Ti1_2 1_555 1_555
O7_2 Cd5_2 1_555 1_555
O8_2 Cd8 1_555 1_555
O9_4 Cd5_2 1_555 1_555
O10_2 Ti2_2 1_555 1_555
O11_2 Ti2_2 1_555 1_555
O12_2 Ti2_2 1_555 1_555
C5_2 O3_2 1_555 1_555
C12_2 C4_2 1_555 1_555
H12_2 C12_2 1_555 1_555
H13_2 C12_2 1_555 1_555
C13_2 N1_2 1_555 1_555
H14_2 C13_2 1_555 1_555
C14_2 C13_2 1_555 1_555
H15_2 C14_2 1_555 1_555
H16_2 C14_2 1_555 1_555
C15_2 C14_2 1_555 1_555
H17_2 C15_2 1_555 1_555
C16_2 C15_2 1_555 1_555
H19_2 C16_2 1_555 1_555
H20_2 C16_2 1_555 1_555
C17_2 C16_2 1_555 1_555
H21_2 C17_2 1_555 1_555
H22_2 C17_2 1_555 1_555
C18_2 N2_2 1_555 1_555
H23_2 C18_2 1_555 1_555
C19_2 N2_2 1_555 1_555
H24_2 C19_2 1_555 1_555
H25_2 C19_2 1_555 1_555
C20_2 C19_2 1_555 1_555
C21_2 C20_2 1_555 1_555
H26_2 C21_2 1_555 1_555
C22_2 C21_2 1_555 1_555
C23_2 C22_2 1_555 1_555
H27_2 C23_2 1_555 1_555
C24_2 C23_2 1_555 1_555
C25_2 O4_2 1_555 1_555
C26_2 C24_2 1_555 1_555
N13 C30_2 1_555 1_555
C30_2 H37_2 1_555 1_555
C31_2 C30_2 1_555 1_555
H38_2 C31_2 1_555 1_555
C32_2 C22_2 1_555 1_555
C33_2 C32_2 1_555 1_555
H39_2 C33_2 1_555 1_555
C34_2 N13 1_555 1_555
H40_2 C34_2 1_555 1_555
C35_2 O7_2 1_555 1_555
C36_2 C35_2 1_555 1_555
C37_2 C36_2 1_555 1_555
H41_2 C37_2 1_555 1_555
C38_2 C37_2 1_555 1_555
C39_2 O10_2 1_555 1_555
C40_2 C39_2 1_555 1_555
C41_2 C36_2 1_555 1_555
H42_2 C41_2 1_555 1_555
C42_2 C38_2 1_555 1_555
C43_2 C42_2 1_555 1_555
H43_2 C43_2 1_555 1_555
H44_2 C43_2 1_555 1_555
H45_2 C43_2 1_555 1_555
C44_2 C42_2 1_555 1_555
H46_2 C44_2 1_555 1_555
H47_2 C44_2 1_555 1_555
H48_2 C44_2 1_555 1_555
C45_2 C42_2 1_555 1_555
H49_2 C45_2 1_555 1_555
H50_2 C45_2 1_555 1_555
H51_2 C45_2 1_555 1_555
C46_2 H52_2 1_555 1_555
C47_2 C46_2 1_555 1_555
H53_2 C47_2 1_555 1_555
H54_2 C47_2 1_555 1_555
H59_2 C50_2 1_555 1_555
H60_2 C50_2 1_555 1_555
C51_2 N4_2 1_555 1_555
H61_2 C51_2 1_555 1_555
C52_2 N4_2 1_555 1_555
H62_2 C52_2 1_555 1_555
H63_2 C52_2 1_555 1_555
C53_2 C52_2 1_555 1_555
C54_2 C53_2 1_555 1_555
H64_2 C54_2 1_555 1_555
C55_2 C54_2 1_555 1_555
C56_2 C55_2 1_555 1_555
H65_2 C56_2 1_555 1_555
C57_2 C56_2 1_555 1_555
C58_2 O11_2 1_555 1_555
C59_2 C57_2 1_555 1_555
C60_2 C59_2 1_555 1_555
H66_2 C60_2 1_555 1_555
H67_2 C60_2 1_555 1_555
H68_2 C60_2 1_555 1_555
C61_2 C59_2 1_555 1_555
H69_2 C61_2 1_555 1_555
H70_2 C61_2 1_555 1_555
H71_2 C61_2 1_555 1_555
C62_2 C59_2 1_555 1_555
H72_2 C62_2 1_555 1_555
H73_2 C62_2 1_555 1_555
H74_2 C62_2 1_555 1_555
N15 C63_2 1_555 1_555
C63_2 H75_2 1_555 1_555
C64_2 C63_2 1_555 1_555
H76_2 C64_2 1_555 1_555
C65_2 C55_2 1_555 1_555
C66_2 C65_2 1_555 1_555
H77_2 C66_2 1_555 1_555
C67_2 N15 1_555 1_555
H78_2 C67_2 1_555 1_555
C69_2 O12_2 1_555 1_555
H82_2 C69_2 1_555 1_555
H83_2 C69_2 1_555 1_555
H84_2 C69_2 1_555 1_555
C70_2 N3_2 1_555 1_555
H85_2 C70_2 1_555 1_555
H86_2 C70_2 1_555 1_555
H114_2 C97_2 1_555 1_555
H115_2 C97_2 1_555 1_555
H116_2 C97_2 1_555 1_555
H117_2 C98_2 1_555 1_555
H118_2 C98_2 1_555 1_555
H119_2 C98_2 1_555 1_555
H120_2 C99_2 1_555 1_555
H142_2 C118_2 1_555 1_555
C119_2 C118_2 1_555 1_555
H143_2 C119_2 1_555 1_555
H144_2 C119_2 1_555 1_555
H165_2 C138_2 1_555 1_555
H166_2 C138_2 1_555 1_555
H167_2 C138_2 1_555 1_555
Ti2_2 O6_2 1_555 1_555
Cd8 O9_4 1_555 1_555
O8_2 C35_2 1_555 1_555
C4_2 C5_2 1_555 1_555
C13_2 C18_2 1_555 1_555
C17_2 C18_2 1_555 1_555
C20_2 C25_2 1_555 1_555
C24_2 C25_2 1_555 1_555
C31_2 C32_2 1_555 1_555
C33_2 C34_2 1_555 1_555
C38_2 C39_2 1_555 1_555
C40_2 C41_2 1_555 1_555
C40_2 C70_2 1_555 1_555
C46_2 C51_2 1_555 1_555
C50_2 C51_2 1_555 1_555
C53_2 C58_2 1_555 1_555
C57_2 C58_2 1_555 1_555
C64_2 C65_2 1_555 1_555
C66_2 C67_2 1_555 1_555
N1_2 H173_2 1_555 1_555
N3_2 H174_2 1_555 1_555
N2_2 H175_2 1_555 1_555
N4_2 H176_2 1_555 1_555

#END
