
###############################################################################
#
# This file contains modified crystal structure data generated from the
# MOF subset of the Cambridge Structural Database (CSD) v543 
# hosted by the Cambridge Crystallographic Data Centre (CCDC).
#
# This work is licensed under the Creative Commons
# Attribution-NonCommercial-ShareAlike 4.0 International License.
# To view a copy of this license, visit
# http://creativecommons.org/licenses/by-nc-sa/4.0/
# or send a letter to
# Creative Commons, PO Box 1866, Mountain View, CA 94042, USA.
#
# CIF created using the CSD Python API on 29 September 2022
# The structure has been converted into the P1 space group
# The structure has a 3D framework
# The original CSD entry BIJZIG is in the triclinic crystal system
# The framework has been calculated to contain at least 10.0% void space
# The void calculation uses a probe of radius 1.32A, grid spacing 0.4
#
###############################################################################

data_BIJZIG
_chemical_formula_moiety         '(C240 H216 N12 O25 Zn8)n'
_symmetry_cell_setting           triclinic
_symmetry_space_group_name_H-M   'P 1'
_symmetry_Int_Tables_number      1
_space_group_name_Hall           'P 1'
loop_
_symmetry_equiv_pos_site_id
_symmetry_equiv_pos_as_xyz
1 x,y,z
_cell_length_a                   22.5696(8)
_cell_length_b                   22.7345(8)
_cell_length_c                   22.7582(8)
_cell_angle_alpha                89.484(2)
_cell_angle_beta                 75.944(2)
_cell_angle_gamma                87.829(2)
_cell_volume                     11319.7
loop_
_atom_site_label
_atom_site_type_symbol
_atom_site_fract_x
_atom_site_fract_y
_atom_site_fract_z
C31 C 0.1160(3) 0.8974(4) 0.1151(3)
H24 H 0.1040 0.8713 0.0862
H25 H 0.1067 0.9384 0.1059
H26 H 0.1599 0.8919 0.1119
C32 C 0.0803(3) 0.8824(3) 0.1801(3)
C33 C 0.0943(3) 0.8189(4) 0.2001(5)
H27 H 0.0811 0.7904 0.1742
H28 H 0.1383 0.8132 0.1963
H29 H 0.0723 0.8129 0.2423
C34 C 0.1013(3) 0.9242(3) 0.2211(3)
H30 H 0.1452 0.9174 0.2173
H31 H 0.0934 0.9648 0.2095
H32 H 0.0791 0.9175 0.2631
C35 C 0.0116(3) 0.8903(3) 0.1834(2)
H33 H 0.0064 0.8197 0.1297
H62 H 0.0554 0.9507 0.0053
H85 H 0.7338 0.2377 0.0058
H90 H 0.7429 0.3612 0.0228
Zn3 Zn 0.71791(2) 0.88111(2) 0.70368(2)
O5 O 0.63527(13) 0.89004(15) 0.69521(13)
O6 O 0.64152(15) 0.96384(16) 0.62811(17)
O9 O 0.73155(16) 0.06162(13) 0.61825(16)
O10 O 0.79539(19) 0.05787(14) 0.68143(17)
O11 O 0.74027(18) 0.79912(15) 0.69195(17)
O12 O 0.81116(18) 0.79654(15) 0.60230(17)
N3 N 0.35087(18) 0.8832(2) 0.5848(2)
N4 N 0.20577(18) 0.8884(2) 0.6807(2)
N5 N 0.7765(6) 0.3699(3) 0.7016(5)
C21 C 0.4642(6) 0.0799(6) 0.1412(8)
H11 H 0.4815 0.0868 0.1759
H12 H 0.4865 0.1022 0.1062
H13 H 0.4210 0.0927 0.1511
C22 C 0.4298(6) 0.0032(7) 0.1844(7)
H14 H 0.4491 0.0123 0.2173
H15 H 0.3909 0.0256 0.1902
C23 C 0.4452(4) 0.0073(6) 0.0771(5)
H18 H 0.4018 0.0197 0.0867
H19 H 0.4673 0.0291 0.0417
C24 C 0.4696(5) 0.0190(6) 0.1270(5)
C26 C 0.5834(5) 0.0203(5) 0.0781(4)
H20 H 0.5761 0.0528 0.0540
H21 H 0.6776 0.0169 0.0427
C41 C 0.6133(2) 0.9226(2) 0.6601(2)
C42 C 0.5508(2) 0.9117(2) 0.6540(2)
C43 C 0.5289(2) 0.9416(3) 0.6083(2)
H37 H 0.5535 0.9688 0.5822
C44 C 0.4707(2) 0.9303(3) 0.6025(3)
H38 H 0.4559 0.9494 0.5713
C45 C 0.4329(2) 0.8913(3) 0.6413(3)
C46 C 0.4564(2) 0.8627(3) 0.6850(2)
H39 H 0.4320 0.8355 0.7113
C47 C 0.5152(2) 0.8728(3) 0.6912(2)
H40 H 0.5304 0.8525 0.7214
C48 C 0.3702(2) 0.8841(3) 0.6385(3)
C49 C 0.3214(2) 0.8853(3) 0.6871(3)
H41 H 0.3223 0.8848 0.7286
C50 C 0.2691(2) 0.8874(3) 0.6637(3)
C51 C 0.2870(2) 0.8847(3) 0.6018(3)
C52 C 0.2353(2) 0.8833(3) 0.5775(3)
H42 H 0.2347 0.8801 0.5360
C53 C 0.1862(2) 0.8875(3) 0.6264(3)
C54 C 0.1213(2) 0.8954(3) 0.6262(3)
C55 C 0.0857(2) 0.9408(3) 0.6584(3)
H43 H 0.1036 0.9667 0.6811
C56 C 0.0255(2) 0.9492(3) 0.6583(3)
H44 H 0.0017 0.9805 0.6808
C58 C 0.0343(2) 0.8656(3) 0.5911(3)
H45 H 0.0166 0.8394 0.5683
C59 C 0.0949(2) 0.8591(3) 0.5914(3)
H46 H 0.1195 0.8291 0.5674
C61 C 0.5407(5) 0.9007(6) 0.3263(5)
H47 H 0.5668 0.8972 0.3550
H48 H 0.5658 0.8956 0.2849
H49 H 0.5201 0.9398 0.3303
C62 C 0.5267(7) 0.7937(5) 0.3321(6)
H50 H 0.4968 0.7627 0.3407
H51 H 0.5513 0.7896 0.2904
H52 H 0.5534 0.7902 0.3601
C63 C 0.4524(4) 0.8588(6) 0.2958(4)
H53 H 0.4219 0.8282 0.3050
H54 H 0.4315 0.8976 0.2997
H55 H 0.4772 0.8535 0.2543
C64 C 0.4934(4) 0.8539(4) 0.3399(4)
C65 C 0.4544(3) 0.8606(4) 0.4047(3)
C66 C 0.4664(3) 0.8260(3) 0.4527(3)
H56 H 0.4985 0.7968 0.4439
C67 C 0.4336(3) 0.8329(3) 0.5107(3)
H57 H 0.4429 0.8090 0.5420
C68 C 0.3865(2) 0.8753(3) 0.5240(3)
C69 C 0.3731(2) 0.9096(2) 0.4778(3)
H58 H 0.3405 0.9383 0.4867
C70 C 0.4067(3) 0.9021(3) 0.4197(3)
H59 H 0.3971 0.9260 0.3886
C71 C 0.0819(4) 0.9503(4) 0.9642(4)
H60 H 0.1239 0.9397 0.9659
H61 H 0.0806 0.9894 0.9460
C72 C 0.0580(5) 0.8414(5) 0.9563(4)
H63 H 0.0996 0.8289 0.9582
H64 H 0.0316 0.8436 0.9974
H65 H 0.0422 0.8129 0.9325
C74 C 0.0593(4) 0.9043(4) 0.9252(3)
C75 C 0.1008(3) 0.8997(3) 0.8611(3)
C76 C 0.0857(3) 0.8610(4) 0.8195(3)
H69 H 0.0510 0.8375 0.8324
C77 C 0.1202(3) 0.8562(3) 0.7600(3)
H70 H 0.1091 0.8300 0.7325
C78 C 0.1708(2) 0.8901(3) 0.7414(3)
C79 C 0.1870(3) 0.9261(3) 0.7826(3)
H71 H 0.2224 0.9488 0.7703
C80 C 0.1528(3) 0.9296(3) 0.8408(3)
H72 H 0.1660 0.9541 0.8684
C81 C 0.7633(3) 0.0857(2) 0.6500(3)
C82 C 0.7627(3) 0.1509(2) 0.6523(3)
C83 C 0.7281(4) 0.1836(2) 0.6203(4)
H73 H 0.7037 0.1641 0.5984
C84 C 0.7286(5) 0.2436(3) 0.6199(5)
H74 H 0.7057 0.2659 0.5970
C85 C 0.7631(5) 0.2717(3) 0.6535(5)
C86 C 0.7974(5) 0.2386(3) 0.6832(4)
H75 H 0.8212 0.2583 0.7056
C87 C 0.7998(4) 0.1785(3) 0.6831(3)
H76 H 0.8257 0.1566 0.7032
C88 C 0.7613(6) 0.3358(4) 0.6590(6)
C89 C 0.7663(7) 0.3699(4) 0.6048(6)
H77 H 0.7645 0.3558 0.5661
C90 C 0.7777(5) 0.4276(2) 0.6818(4)
C91 C 0.7743(5) 0.4286(2) 0.6203(4)
N6 N 0.7721(6) 0.4883(3) 0.6020(4)
C92 C 0.7741(5) 0.52421(18) 0.6521(4)
C93 C 0.7776(5) 0.4867(3) 0.7015(3)
H78 H 0.7795 0.4990 0.7407
C94 C 0.7770(6) 0.5853(3) 0.6447(6)
C95 C 0.8093(5) 0.6144(3) 0.5996(5)
H79 H 0.8322 0.5933 0.5652
C96 C 0.8114(4) 0.6760(3) 0.5999(4)
H80 H 0.8377 0.6954 0.5671
C97 C 0.7757(4) 0.7089(3) 0.6477(3)
C98 C 0.7388(5) 0.6793(3) 0.6939(5)
H81 H 0.7136 0.7007 0.7269
C99 C 0.7373(6) 0.6172(3) 0.6935(5)
H82 H 0.7103 0.5970 0.7251
C100 C 0.7761(3) 0.7727(2) 0.6470(3)
C101 C 0.7368(11) 0.2503(9) 0.9639(9)
H83 H 0.6960 0.2613 0.9587
H84 H 0.7546 0.2180 0.9363
C102 C 0.8433(8) 0.3011(11) 0.9534(9)
H86 H 0.8609 0.3396 0.9426
H87 H 0.8456 0.2910 0.9948
H88 H 0.8663 0.2712 0.9253
C103 C 0.7421(11) 0.3602(9) 0.9799(7)
H89 H 0.6997 0.3598 0.9765
H91 H 0.7616 0.3950 0.9593
C104 C 0.7776(9) 0.3033(8) 0.9498(7)
C105 C 0.7313(6) 0.3031(5) 0.8551(6)
H92 H 0.7011 0.2779 0.8770
C106 C 0.7767(6) 0.3223(5) 0.8813(4)
C107 C 0.8209(6) 0.3592(6) 0.8492(5)
H93 H 0.8519 0.3724 0.8671
C108 C 0.8197(6) 0.3769(5) 0.7908(5)
H94 H 0.8499 0.4021 0.7689
C109 C 0.7743(6) 0.3577(5) 0.7646(4)
C110 C 0.7301(6) 0.3208(6) 0.7967(6)
H95 H 0.6991 0.3076 0.7788
C111 C 0.7638(7) 0.5017(6) 0.5434(5)
C112 C 0.8004(6) 0.4724(5) 0.4935(6)
H96 H 0.8291 0.4425 0.4990
C113 C 0.7950(7) 0.4869(6) 0.4355(5)
H97 H 0.8200 0.4669 0.4014
C114 C 0.7530(7) 0.5307(6) 0.4275(5)
C115 C 0.7164(6) 0.5600(5) 0.4774(6)
H98 H 0.6877 0.5899 0.4719
C116 C 0.7218(6) 0.5454(6) 0.5354(5)
H99 H 0.6968 0.5654 0.5695
C117 C 0.7483(10) 0.5467(8) 0.3611(7)
C118 C 0.7626(11) 0.6089(7) 0.3509(9)
H100 H 0.7600 0.6202 0.3099
H101 H 0.7332 0.6331 0.3806
H102 H 0.8040 0.6149 0.3554
C119 C 0.6871(8) 0.5287(9) 0.3448(10)
H103 H 0.6810 0.4866 0.3529
H104 H 0.6525 0.5516 0.3696
H105 H 0.6898 0.5366 0.3019
C120 C 0.8019(9) 0.5051(8) 0.3221(10)
H106 H 0.7913 0.4638 0.3296
H107 H 0.8071 0.5139 0.2790
H108 H 0.8401 0.5120 0.3338
Zn6 Zn 0.82838(2) 0.87826(2) 0.58581(2)
Zn7 Zn 0.72676(2) 0.97952(2) 0.60334(2)
O15 O 0.71725(13) 0.89998(14) 0.78681(12)
O21 O 0.77275(11) 0.92802(11) 0.64457(11)
O3 O 0.75072(18) 0.96819(17) 0.51735(14)
O4 O 0.82196(16) 0.89315(16) 0.50418(14)
N1 N 0.71551(19) 0.9307(2) 0.10372(17)
N2 N 0.82327(19) 0.9081(2) 0.18683(17)
H2 H 0.6800 0.8831 0.0004
C8 C 0.7656(2) 0.9238(3) 0.0539(2)
C9 C 0.8185(2) 0.9111(3) 0.0730(2)
H5 H 0.8587 0.9042 0.0485
C10 C 0.7996(3) 0.9108(3) 0.1364(2)
C11 C 0.7381(3) 0.9241(3) 0.1537(2)
C12 C 0.7219(3) 0.9315(3) 0.2179(2)
H6 H 0.6824 0.9414 0.2423
C13 C 0.7741(3) 0.9216(3) 0.2376(2)
C14 C 0.7804(3) 0.9222(3) 0.3001(2)
C15 C 0.8212(3) 0.8850(3) 0.3214(2)
H7 H 0.8482 0.8588 0.2943
C16 C 0.8223(3) 0.8864(3) 0.3818(2)
H8 H 0.8484 0.8594 0.3967
C17 C 0.7854(3) 0.9270(3) 0.4209(2)
C18 C 0.7455(3) 0.9636(3) 0.3985(2)
H9 H 0.7196 0.9913 0.4247
C19 C 0.7428(3) 0.9606(3) 0.3397(2)
H10 H 0.7143 0.9854 0.3257
C20 C 0.7866(3) 0.9293(3) 0.4856(2)
H16 H 0.4224 0.9610 0.1846
H17 H 0.4494 0.9650 0.0683
C25 C 0.5344(4) 0.9972(6) 0.1171(5)
C27 C 0.6451(4) 0.9992(4) 0.0710(3)
C28 C 0.6561(3) 0.9529(4) 0.1060(2)
C29 C 0.6070(3) 0.9260(5) 0.1448(3)
H22 H 0.6124 0.8918 0.1676
C30 C 0.5484(4) 0.9529(6) 0.1479(4)
H23 H 0.5152 0.9362 0.1762
C36 C 0.9827(3) 0.8509(3) 0.1525(3)
C37 C 0.9208(3) 0.8566(3) 0.1546(3)
H34 H 0.9020 0.8286 0.1350
C38 C 0.8874(3) 0.9025(3) 0.1848(2)
C39 C 0.9160(3) 0.9421(3) 0.2113(3)
H35 H 0.8933 0.9756 0.2307
C40 C 0.9752(3) 0.9356(3) 0.2111(3)
H36 H 0.9926 0.9642 0.2313
Zn11 Zn 0.81886(2) 0.97658(2) 0.68467(2)
O17 O 0.91148(14) 0.88476(17) 0.59305(16)
O1 O 0.79820(17) 0.95863(16) 0.76972(14)
C1 C 0.7572(2) 0.9291(2) 0.80343(19)
C2 C 0.7568(2) 0.9270(2) 0.8694(2)
C3 C 0.7107(2) 0.9013(2) 0.91168(19)
H1 H 0.6780 0.8842 0.8993
C4 C 0.7121(2) 0.9006(3) 0.9714(2)
C5 C 0.7604(2) 0.9254(3) 0.9903(2)
C6 C 0.8075(3) 0.9482(3) 0.9475(2)
H3 H 0.8418 0.9624 0.9595
C7 C 0.8060(3) 0.9509(3) 0.8874(2)
H4 H 0.8379 0.9687 0.8585
O7 O 0.90396(15) 0.96043(19) 0.65917(18)
C57 C 0.9994(2) 0.9109(3) 0.6244(3)
C60 C 0.9333(2) 0.9192(3) 0.6259(2)
C73 C 0.9966(4) 0.9209(5) 0.9234(4)
H66 H 0.9709 0.9236 0.9648
H67 H 0.9959 0.9592 0.9033
H68 H 0.9809 0.8912 0.9008
Zn4 Zn 0.18114(2) 0.02342(2) 0.31533(2)
O7_2 O 0.09604(15) 0.03957(19) 0.34083(18)
O8 O 0.08852(14) 0.11524(17) 0.40695(16)
C57_2 C 0.0006(2) 0.0891(3) 0.3756(3)
C60_2 C 0.0667(2) 0.0808(3) 0.3741(2)
C73_2 C 0.0034(4) 0.0791(5) 0.0766(4)
H66_2 H 0.0291 0.0764 0.0352
H67_2 H 0.0041 0.0408 0.0967
H68_2 H 0.0191 0.1088 0.0992
Zn5 Zn 0.17162(2) 0.12174(2) 0.41419(2)
O14 O 0.20180(17) 0.04137(16) 0.23028(14)
O20 O 0.22725(11) 0.07198(11) 0.35543(11)
O18 O 0.20461(19) 0.94213(14) 0.31857(17)
O2 O 0.28275(13) 0.10002(14) 0.21319(12)
C1_2 C 0.2428(2) 0.0709(2) 0.19657(19)
C2_2 C 0.2432(2) 0.0730(2) 0.1306(2)
C3_2 C 0.2893(2) 0.0987(2) 0.08832(19)
H1_2 H 0.3220 0.1158 0.1007
C4_2 C 0.2879(2) 0.0994(3) 0.0286(2)
C5_2 C 0.2396(2) 0.0746(3) 0.0097(2)
C6_2 C 0.1925(3) 0.0518(3) 0.0525(2)
H3_2 H 0.1582 0.0376 0.0405
C7_2 C 0.1940(3) 0.0491(3) 0.1126(2)
H4_2 H 0.1621 0.0313 0.1415
Zn8 Zn 0.28209(2) 0.11889(2) 0.29632(2)
Zn2 Zn 0.27324(2) 0.02048(2) 0.39666(2)
O3_2 O 0.24928(18) 0.03181(17) 0.48265(14)
O4_2 O 0.17804(16) 0.10685(16) 0.49582(14)
N1_2 N 0.28449(19) 0.0693(2) 0.89628(17)
N2_2 N 0.17673(19) 0.0919(2) 0.81317(17)
H2_2 H 0.3200 0.1169 0.9996
C8_2 C 0.2344(2) 0.0762(3) 0.9461(2)
C9_2 C 0.1815(2) 0.0889(3) 0.9270(2)
H5_2 H 0.1413 0.0958 0.9515
C10_2 C 0.2004(3) 0.0892(3) 0.8636(2)
C11_2 C 0.2619(3) 0.0759(3) 0.8463(2)
C12_2 C 0.2781(3) 0.0685(3) 0.7821(2)
H6_2 H 0.3176 0.0586 0.7577
C13_2 C 0.2259(3) 0.0784(3) 0.7624(2)
C14_2 C 0.2196(3) 0.0778(3) 0.6999(2)
C15_2 C 0.1788(3) 0.1150(3) 0.6786(2)
H7_2 H 0.1518 0.1412 0.7057
C16_2 C 0.1777(3) 0.1136(3) 0.6182(2)
H8_2 H 0.1516 0.1406 0.6033
C17_2 C 0.2146(3) 0.0730(3) 0.5791(2)
C18_2 C 0.2545(3) 0.0364(3) 0.6015(2)
H9_2 H 0.2804 0.0087 0.5753
C19_2 C 0.2572(3) 0.0394(3) 0.6603(2)
H10_2 H 0.2857 0.0146 0.6743
C20_2 C 0.2134(3) 0.0707(3) 0.5144(2)
H16_2 H 0.5776 0.0390 0.8154
H17_2 H 0.5506 0.0350 0.9317
C25_2 C 0.4656(4) 0.0028(6) 0.8829(5)
C27_2 C 0.3549(4) 0.0008(4) 0.9290(3)
C28_2 C 0.3439(3) 0.0471(4) 0.8940(2)
C29_2 C 0.3930(3) 0.0740(5) 0.8552(3)
H22_2 H 0.3876 0.1082 0.8324
C30_2 C 0.4516(4) 0.0471(6) 0.8521(4)
H23_2 H 0.4848 0.0638 0.8238
C36_2 C 0.0173(3) 0.1491(3) 0.8475(3)
C37_2 C 0.0792(3) 0.1434(3) 0.8454(3)
H34_2 H 0.0980 0.1714 0.8650
C38_2 C 0.1126(3) 0.0975(3) 0.8152(2)
C39_2 C 0.0840(3) 0.0579(3) 0.7887(3)
H35_2 H 0.1067 0.0244 0.7693
C40_2 C 0.0248(3) 0.0644(3) 0.7889(3)
H36_2 H 0.0074 0.0358 0.7687
O16 O 0.35848(15) 0.03616(16) 0.37189(17)
O19 O 0.18884(18) 0.20346(15) 0.39770(17)
O5_2 O 0.36473(13) 0.10996(15) 0.30479(13)
O9_2 O 0.26845(16) 0.93838(13) 0.38175(16)
O11_2 O 0.25973(18) 0.20088(15) 0.30805(17)
N3_2 N 0.64913(18) 0.1168(2) 0.4152(2)
N4_2 N 0.79423(18) 0.1116(2) 0.3193(2)
N5_2 N 0.2235(6) 0.6301(3) 0.2984(5)
C21_2 C 0.5358(6) 0.9201(6) 0.8588(8)
H11_2 H 0.5185 0.9132 0.8241
H12_2 H 0.5135 0.8978 0.8938
H13_2 H 0.5790 0.9073 0.8489
C22_2 C 0.5702(6) 0.9968(7) 0.8156(7)
H14_2 H 0.5509 0.9877 0.7827
H15_2 H 0.6091 0.9744 0.8098
C23_2 C 0.5548(4) 0.9927(6) 0.9229(5)
H18_2 H 0.5982 0.9803 0.9133
H19_2 H 0.5327 0.9709 0.9583
C24_2 C 0.5304(5) 0.9810(6) 0.8730(5)
C26_2 C 0.4166(5) 0.9797(5) 0.9219(4)
H20_2 H 0.4239 0.9472 0.9460
H21_2 H 0.3224 0.9831 0.9573
C41_2 C 0.3867(2) 0.0774(2) 0.3399(2)
C42_2 C 0.4492(2) 0.0883(2) 0.3460(2)
C43_2 C 0.4711(2) 0.0584(3) 0.3917(2)
H37_2 H 0.4465 0.0312 0.4178
C44_2 C 0.5293(2) 0.0697(3) 0.3975(3)
H38_2 H 0.5441 0.0506 0.4287
C45_2 C 0.5671(2) 0.1087(3) 0.3587(3)
C46_2 C 0.5436(2) 0.1373(3) 0.3150(2)
H39_2 H 0.5680 0.1645 0.2887
C47_2 C 0.4848(2) 0.1272(3) 0.3088(2)
H40_2 H 0.4696 0.1475 0.2786
C48_2 C 0.6298(2) 0.1159(3) 0.3615(3)
C49_2 C 0.6786(2) 0.1147(3) 0.3129(3)
H41_2 H 0.6777 0.1152 0.2714
C50_2 C 0.7309(2) 0.1126(3) 0.3363(3)
C51_2 C 0.7130(2) 0.1153(3) 0.3982(3)
C52_2 C 0.7647(2) 0.1167(3) 0.4225(3)
H42_2 H 0.7653 0.1199 0.4640
C53_2 C 0.8138(2) 0.1125(3) 0.3736(3)
C54_2 C 0.8787(2) 0.1046(3) 0.3738(3)
C55_2 C 0.9143(2) 0.0592(3) 0.3416(3)
H43_2 H 0.8964 0.0333 0.3189
C56_2 C 0.9745(2) 0.0508(3) 0.3417(3)
H44_2 H 0.9983 0.0195 0.3192
C58_2 C 0.9657(2) 0.1344(3) 0.4089(3)
H45_2 H 0.9834 0.1606 0.4317
C59_2 C 0.9051(2) 0.1409(3) 0.4086(3)
H46_2 H 0.8805 0.1709 0.4326
C61_2 C 0.4593(5) 0.0993(6) 0.6737(5)
H47_2 H 0.4332 0.1028 0.6450
H48_2 H 0.4342 0.1044 0.7151
H49_2 H 0.4799 0.0602 0.6697
C62_2 C 0.4733(7) 0.2063(5) 0.6679(6)
H50_2 H 0.5032 0.2373 0.6593
H51_2 H 0.4487 0.2104 0.7096
H52_2 H 0.4466 0.2098 0.6399
C63_2 C 0.5476(4) 0.1412(6) 0.7042(4)
H53_2 H 0.5781 0.1718 0.6950
H54_2 H 0.5685 0.1024 0.7003
H55_2 H 0.5228 0.1465 0.7457
C64_2 C 0.5066(4) 0.1461(4) 0.6601(4)
C65_2 C 0.5456(3) 0.1394(4) 0.5953(3)
C66_2 C 0.5336(3) 0.1740(3) 0.5473(3)
H56_2 H 0.5015 0.2032 0.5561
C67_2 C 0.5664(3) 0.1671(3) 0.4893(3)
H57_2 H 0.5571 0.1910 0.4580
C68_2 C 0.6135(2) 0.1247(3) 0.4760(3)
C69_2 C 0.6269(2) 0.0904(2) 0.5222(3)
H58_2 H 0.6595 0.0617 0.5133
C70_2 C 0.5933(3) 0.0979(3) 0.5803(3)
H59_2 H 0.6029 0.0740 0.6114
C71_2 C 0.9181(4) 0.0497(4) 0.0358(4)
H60_2 H 0.8761 0.0603 0.0341
H61_2 H 0.9194 0.0106 0.0540
C72_2 C 0.9420(5) 0.1586(5) 0.0437(4)
H63_2 H 0.9004 0.1711 0.0418
H64_2 H 0.9684 0.1564 0.0026
H65_2 H 0.9578 0.1871 0.0675
C74_2 C 0.9407(4) 0.0957(4) 0.0748(3)
C75_2 C 0.8992(3) 0.1003(3) 0.1389(3)
C76_2 C 0.9143(3) 0.1390(4) 0.1805(3)
H69_2 H 0.9490 0.1625 0.1676
C77_2 C 0.8798(3) 0.1438(3) 0.2400(3)
H70_2 H 0.8909 0.1700 0.2675
C78_2 C 0.8292(2) 0.1099(3) 0.2586(3)
C79_2 C 0.8130(3) 0.0739(3) 0.2174(3)
H71_2 H 0.7776 0.0512 0.2297
C80_2 C 0.8472(3) 0.0704(3) 0.1592(3)
H72_2 H 0.8340 0.0459 0.1316
C81_2 C 0.2367(3) 0.9143(2) 0.3500(3)
C82_2 C 0.2373(3) 0.8491(2) 0.3477(3)
C83_2 C 0.2719(4) 0.8164(2) 0.3797(4)
H73_2 H 0.2963 0.8359 0.4016
C84_2 C 0.2714(5) 0.7564(3) 0.3801(5)
H74_2 H 0.2943 0.7341 0.4030
C85_2 C 0.2369(5) 0.7283(3) 0.3465(5)
C86_2 C 0.2026(5) 0.7614(3) 0.3168(4)
H75_2 H 0.1788 0.7417 0.2944
C87_2 C 0.2002(4) 0.8215(3) 0.3169(3)
H76_2 H 0.1743 0.8434 0.2968
C88_2 C 0.2387(6) 0.6642(4) 0.3410(6)
C89_2 C 0.2337(7) 0.6301(4) 0.3952(6)
H77_2 H 0.2355 0.6442 0.4339
C90_2 C 0.2223(5) 0.5724(2) 0.3182(4)
C91_2 C 0.2257(5) 0.5714(2) 0.3797(4)
N6_2 N 0.2279(6) 0.5117(3) 0.3980(4)
C92_2 C 0.2259(5) 0.47579(18) 0.3479(4)
C93_2 C 0.2224(5) 0.5133(3) 0.2985(3)
H78_2 H 0.2205 0.5010 0.2593
C94_2 C 0.2230(6) 0.4147(3) 0.3553(6)
C95_2 C 0.1907(5) 0.3856(3) 0.4004(5)
H79_2 H 0.1678 0.4067 0.4348
C96_2 C 0.1886(4) 0.3240(3) 0.4001(4)
H80_2 H 0.1623 0.3046 0.4329
C97_2 C 0.2243(4) 0.2911(3) 0.3523(3)
C98_2 C 0.2612(5) 0.3207(3) 0.3061(5)
H81_2 H 0.2864 0.2993 0.2731
C99_2 C 0.2627(6) 0.3828(3) 0.3065(5)
H82_2 H 0.2897 0.4030 0.2749
C100_2 C 0.2239(3) 0.2273(2) 0.3530(3)
C101_2 C 0.2632(11) 0.7497(9) 0.0361(9)
H83_2 H 0.3040 0.7387 0.0413
H84_2 H 0.2454 0.7820 0.0637
C102_2 C 0.1567(8) 0.6989(11) 0.0466(9)
H86_2 H 0.1391 0.6604 0.0574
H87_2 H 0.1544 0.7090 0.0052
H88_2 H 0.1337 0.7288 0.0747
C103_2 C 0.2579(11) 0.6398(9) 0.0201(7)
H89_2 H 0.3003 0.6402 0.0235
H91_2 H 0.2384 0.6050 0.0407
C104_2 C 0.2224(9) 0.6967(8) 0.0502(7)
C105_2 C 0.2687(6) 0.6969(5) 0.1449(6)
H92_2 H 0.2989 0.7221 0.1230
C106_2 C 0.2233(6) 0.6777(5) 0.1187(4)
C107_2 C 0.1791(6) 0.6408(6) 0.1508(5)
H93_2 H 0.1481 0.6276 0.1329
C108_2 C 0.1803(6) 0.6231(5) 0.2092(5)
H94_2 H 0.1501 0.5979 0.2311
C109_2 C 0.2257(6) 0.6423(5) 0.2354(4)
C110_2 C 0.2699(6) 0.6792(6) 0.2033(6)
H95_2 H 0.3009 0.6924 0.2212
C111_2 C 0.2362(7) 0.4983(6) 0.4566(5)
C112_2 C 0.1996(6) 0.5276(5) 0.5065(6)
H96_2 H 0.1709 0.5575 0.5010
C113_2 C 0.2050(7) 0.5131(6) 0.5645(5)
H97_2 H 0.1800 0.5331 0.5986
C114_2 C 0.2470(7) 0.4693(6) 0.5725(5)
C115_2 C 0.2836(6) 0.4400(5) 0.5226(6)
H98_2 H 0.3123 0.4101 0.5281
C116_2 C 0.2782(6) 0.4546(6) 0.4646(5)
H99_2 H 0.3032 0.4346 0.4305
C117_2 C 0.2517(10) 0.4533(8) 0.6389(7)
C118_2 C 0.2374(11) 0.3911(7) 0.6491(9)
H100_2 H 0.2400 0.3798 0.6901
H101_2 H 0.2668 0.3669 0.6194
H102_2 H 0.1960 0.3851 0.6446
C119_2 C 0.3129(8) 0.4713(9) 0.6552(10)
H103_2 H 0.3190 0.5134 0.6471
H104_2 H 0.3475 0.4484 0.6304
H105_2 H 0.3102 0.4634 0.6981
C120_2 C 0.1981(9) 0.4949(8) 0.6779(10)
H106_2 H 0.2087 0.5362 0.6704
H107_2 H 0.1929 0.4861 0.7210
H108_2 H 0.1599 0.4880 0.6662
H62_2 H 0.9446 0.0493 0.9947
H85_2 H 0.2662 0.7623 0.9942
H90_2 H 0.2571 0.6388 0.9772
C31_2 C 0.8840(3) 0.1026(4) 0.8849(3)
H24_2 H 0.8960 0.1287 0.9138
H25_2 H 0.8933 0.0616 0.8941
H26_2 H 0.8401 0.1081 0.8881
C32_2 C 0.9197(3) 0.1176(3) 0.8199(3)
C33_2 C 0.9057(3) 0.1811(4) 0.7999(5)
H27_2 H 0.9189 0.2096 0.8258
H28_2 H 0.8617 0.1868 0.8037
H29_2 H 0.9277 0.1871 0.7577
C34_2 C 0.8987(3) 0.0758(3) 0.7789(3)
H30_2 H 0.8548 0.0826 0.7827
H31_2 H 0.9066 0.0352 0.7905
H32_2 H 0.9209 0.0825 0.7369
C35_2 C 0.9884(3) 0.1097(3) 0.8166(2)
H33_2 H 0.9936 0.1803 0.8703
loop_
_geom_bond_atom_site_label_1
_geom_bond_atom_site_label_2
_geom_bond_site_symmetry_1
_geom_bond_site_symmetry_2
C31 H24 1_555 1_555
H25 C31 1_555 1_555
H26 C31 1_555 1_555
C32 C31 1_555 1_555
C33 C32 1_555 1_555
H27 C33 1_555 1_555
H28 C33 1_555 1_555
H29 C33 1_555 1_555
C34 C32 1_555 1_555
H30 C34 1_555 1_555
H31 C34 1_555 1_555
H32 C34 1_555 1_555
C35 C32 1_555 1_555
Zn3 O5 1_555 1_555
O5 C41 1_555 1_555
O6 C41 1_555 1_555
O10 C81 1_555 1_555
O11 Zn3 1_555 1_555
O12 C100 1_555 1_555
N3 C48 1_555 1_555
N4 C50 1_555 1_555
N5 C88 1_555 1_555
C21 H11 1_555 1_555
H12 C21 1_555 1_555
H13 C21 1_555 1_555
C22 H14 1_555 1_555
H15 C22 1_555 1_555
H18 C23 1_555 1_555
H19 C23 1_555 1_555
C24 C21 1_555 1_555
H20 C26 1_555 1_555
C41 C42 1_555 1_555
C42 C43 1_555 1_555
C43 H37 1_555 1_555
C44 C43 1_555 1_555
H38 C44 1_555 1_555
C45 C44 1_555 1_555
C46 C45 1_555 1_555
H39 C46 1_555 1_555
C47 C42 1_555 1_555
H40 C47 1_555 1_555
C48 C45 1_555 1_555
C49 C48 1_555 1_555
H41 C49 1_555 1_555
C50 C49 1_555 1_555
C51 N3 1_555 1_555
C52 C51 1_555 1_555
H42 C52 1_555 1_555
C53 N4 1_555 1_555
C54 C53 1_555 1_555
C55 C54 1_555 1_555
H43 C55 1_555 1_555
C56 C55 1_555 1_555
H44 C56 1_555 1_555
H45 C58 1_555 1_555
C59 C54 1_555 1_555
H46 C59 1_555 1_555
C61 H47 1_555 1_555
H48 C61 1_555 1_555
H49 C61 1_555 1_555
C62 H50 1_555 1_555
H51 C62 1_555 1_555
H52 C62 1_555 1_555
C63 H53 1_555 1_555
H54 C63 1_555 1_555
H55 C63 1_555 1_555
C64 C61 1_555 1_555
C65 C64 1_555 1_555
C66 C65 1_555 1_555
H56 C66 1_555 1_555
C67 C66 1_555 1_555
H57 C67 1_555 1_555
C68 N3 1_555 1_555
C69 C68 1_555 1_555
H58 C69 1_555 1_555
C70 C65 1_555 1_555
H59 C70 1_555 1_555
C71 H60 1_555 1_555
H61 C71 1_555 1_555
C72 H63 1_555 1_555
H64 C72 1_555 1_555
H65 C72 1_555 1_555
C74 C71 1_555 1_555
C75 C74 1_555 1_555
C76 C75 1_555 1_555
H69 C76 1_555 1_555
C77 C76 1_555 1_555
H70 C77 1_555 1_555
C78 N4 1_555 1_555
C79 C78 1_555 1_555
H71 C79 1_555 1_555
C80 C75 1_555 1_555
H72 C80 1_555 1_555
C81 O9 1_555 1_555
C82 C81 1_555 1_555
C83 C82 1_555 1_555
H73 C83 1_555 1_555
C84 C83 1_555 1_555
H74 C84 1_555 1_555
C85 C84 1_555 1_555
C86 C85 1_555 1_555
H75 C86 1_555 1_555
C87 C82 1_555 1_555
H76 C87 1_555 1_555
C88 C85 1_555 1_555
C89 C88 1_555 1_555
H77 C89 1_555 1_555
C90 N5 1_555 1_555
C91 C89 1_555 1_555
N6 C91 1_555 1_555
C92 N6 1_555 1_555
C93 C90 1_555 1_555
H78 C93 1_555 1_555
C94 C92 1_555 1_555
C95 C94 1_555 1_555
H79 C95 1_555 1_555
C96 C95 1_555 1_555
H80 C96 1_555 1_555
C97 C96 1_555 1_555
C98 C97 1_555 1_555
H81 C98 1_555 1_555
C99 C94 1_555 1_555
H82 C99 1_555 1_555
C100 O11 1_555 1_555
C101 H83 1_555 1_555
H84 C101 1_555 1_555
C102 H86 1_555 1_555
H87 C102 1_555 1_555
H88 C102 1_555 1_555
C103 H89 1_555 1_555
H91 C103 1_555 1_555
C104 C101 1_555 1_555
C105 H92 1_555 1_555
C106 C104 1_555 1_555
C107 C106 1_555 1_555
H93 C107 1_555 1_555
C108 C107 1_555 1_555
H94 C108 1_555 1_555
C109 N5 1_555 1_555
C110 C105 1_555 1_555
H95 C110 1_555 1_555
C111 N6 1_555 1_555
C112 C111 1_555 1_555
H96 C112 1_555 1_555
C113 C112 1_555 1_555
H97 C113 1_555 1_555
C114 C113 1_555 1_555
C115 C114 1_555 1_555
H98 C115 1_555 1_555
C116 C111 1_555 1_555
H99 C116 1_555 1_555
C117 C114 1_555 1_555
C118 C117 1_555 1_555
H100 C118 1_555 1_555
H101 C118 1_555 1_555
H102 C118 1_555 1_555
C119 C117 1_555 1_555
H103 C119 1_555 1_555
H104 C119 1_555 1_555
H105 C119 1_555 1_555
C120 C117 1_555 1_555
H106 C120 1_555 1_555
H107 C120 1_555 1_555
H108 C120 1_555 1_555
Zn6 O12 1_555 1_555
Zn7 O6 1_555 1_555
O15 Zn3 1_555 1_555
O21 Zn3 1_555 1_555
C22 C24 1_555 1_555
C23 C24 1_555 1_555
C46 C47 1_555 1_555
C50 C51 1_555 1_555
C52 C53 1_555 1_555
C58 C59 1_555 1_555
C62 C64 1_555 1_555
C63 C64 1_555 1_555
C67 C68 1_555 1_555
C69 C70 1_555 1_555
C72 C74 1_555 1_555
C77 C78 1_555 1_555
C79 C80 1_555 1_555
C86 C87 1_555 1_555
C90 C91 1_555 1_555
C92 C93 1_555 1_555
C97 C100 1_555 1_555
C98 C99 1_555 1_555
C102 C104 1_555 1_555
C103 C104 1_555 1_555
C105 C106 1_555 1_555
C108 C109 1_555 1_555
C109 C110 1_555 1_555
C115 C116 1_555 1_555
Zn6 O21 1_555 1_555
Zn7 O21 1_555 1_555
Zn6 O4 1_555 1_555
Zn7 O3 1_555 1_555
O3 C20 1_555 1_555
O4 C20 1_555 1_555
N1 C8 1_555 1_555
N2 C10 1_555 1_555
C9 C8 1_555 1_555
H5 C9 1_555 1_555
C10 C9 1_555 1_555
C11 N1 1_555 1_555
C12 C11 1_555 1_555
H6 C12 1_555 1_555
C13 N2 1_555 1_555
C14 C13 1_555 1_555
C15 C14 1_555 1_555
H7 C15 1_555 1_555
C16 C15 1_555 1_555
H8 C16 1_555 1_555
C17 C16 1_555 1_555
C18 C17 1_555 1_555
H9 C18 1_555 1_555
C19 C14 1_555 1_555
H10 C19 1_555 1_555
C20 C17 1_555 1_555
C28 N1 1_555 1_555
C29 C28 1_555 1_555
H22 C29 1_555 1_555
C30 C25 1_555 1_555
H23 C30 1_555 1_555
C37 C36 1_555 1_555
H34 C37 1_555 1_555
C38 N2 1_555 1_555
C39 C38 1_555 1_555
H35 C39 1_555 1_555
H36 C40 1_555 1_555
O17 Zn6 1_555 1_555
O21 Zn11 1_555 1_555
C10 C11 1_555 1_555
C12 C13 1_555 1_555
C18 C19 1_555 1_555
C27 C28 1_555 1_555
C29 C30 1_555 1_555
C37 C38 1_555 1_555
C39 C40 1_555 1_555
O1 C1 1_555 1_555
O15 C1 1_555 1_555
C1 C2 1_555 1_555
C2 C3 1_555 1_555
C3 H1 1_555 1_555
C4 C3 1_555 1_555
C5 C4 1_555 1_555
C6 C5 1_555 1_555
H3 C6 1_555 1_555
C7 C2 1_555 1_555
H4 C7 1_555 1_555
Zn11 O1 1_555 1_555
C6 C7 1_555 1_555
Zn11 O7 1_555 1_555
O7 C60 1_555 1_555
O17 C60 1_555 1_555
C60 C57 1_555 1_555
C73 H66 1_555 1_555
H67 C73 1_555 1_555
H68 C73 1_555 1_555
Zn4 O7_2 1_555 1_555
O7_2 C60_2 1_555 1_555
O8 C60_2 1_555 1_555
C60_2 C57_2 1_555 1_555
C73_2 H66_2 1_555 1_555
H67_2 C73_2 1_555 1_555
H68_2 C73_2 1_555 1_555
Zn5 O8 1_555 1_555
O14 Zn4 1_555 1_555
O20 Zn4 1_555 1_555
Zn5 O20 1_555 1_555
O14 C1_2 1_555 1_555
O2 C1_2 1_555 1_555
C1_2 C2_2 1_555 1_555
C2_2 C3_2 1_555 1_555
C3_2 H1_2 1_555 1_555
C4_2 C3_2 1_555 1_555
C5_2 C4_2 1_555 1_555
C6_2 C5_2 1_555 1_555
H3_2 C6_2 1_555 1_555
C7_2 C2_2 1_555 1_555
H4_2 C7_2 1_555 1_555
Zn8 O2 1_555 1_555
C6_2 C7_2 1_555 1_555
Zn5 O4_2 1_555 1_555
Zn2 O3_2 1_555 1_555
O3_2 C20_2 1_555 1_555
O4_2 C20_2 1_555 1_555
N1_2 C8_2 1_555 1_555
N2_2 C10_2 1_555 1_555
C9_2 C8_2 1_555 1_555
H5_2 C9_2 1_555 1_555
C10_2 C9_2 1_555 1_555
C11_2 N1_2 1_555 1_555
C12_2 C11_2 1_555 1_555
H6_2 C12_2 1_555 1_555
C13_2 N2_2 1_555 1_555
C14_2 C13_2 1_555 1_555
C15_2 C14_2 1_555 1_555
H7_2 C15_2 1_555 1_555
C16_2 C15_2 1_555 1_555
H8_2 C16_2 1_555 1_555
C17_2 C16_2 1_555 1_555
C18_2 C17_2 1_555 1_555
H9_2 C18_2 1_555 1_555
C19_2 C14_2 1_555 1_555
H10_2 C19_2 1_555 1_555
C20_2 C17_2 1_555 1_555
C28_2 N1_2 1_555 1_555
C29_2 C28_2 1_555 1_555
H22_2 C29_2 1_555 1_555
C30_2 C25_2 1_555 1_555
H23_2 C30_2 1_555 1_555
C37_2 C36_2 1_555 1_555
H34_2 C37_2 1_555 1_555
C38_2 N2_2 1_555 1_555
C39_2 C38_2 1_555 1_555
H35_2 C39_2 1_555 1_555
H36_2 C40_2 1_555 1_555
Zn8 O20 1_555 1_555
O16 Zn2 1_555 1_555
O19 Zn5 1_555 1_555
Zn2 O20 1_555 1_555
C10_2 C11_2 1_555 1_555
C12_2 C13_2 1_555 1_555
C18_2 C19_2 1_555 1_555
C27_2 C28_2 1_555 1_555
C29_2 C30_2 1_555 1_555
C37_2 C38_2 1_555 1_555
C39_2 C40_2 1_555 1_555
Zn8 O5_2 1_555 1_555
O5_2 C41_2 1_555 1_555
O16 C41_2 1_555 1_555
O18 C81_2 1_555 1_555
O11_2 Zn8 1_555 1_555
O19 C100_2 1_555 1_555
N3_2 C48_2 1_555 1_555
N4_2 C50_2 1_555 1_555
N5_2 C88_2 1_555 1_555
C21_2 H11_2 1_555 1_555
H12_2 C21_2 1_555 1_555
H13_2 C21_2 1_555 1_555
C22_2 H14_2 1_555 1_555
H15_2 C22_2 1_555 1_555
H18_2 C23_2 1_555 1_555
H19_2 C23_2 1_555 1_555
C24_2 C21_2 1_555 1_555
H20_2 C26_2 1_555 1_555
C41_2 C42_2 1_555 1_555
C42_2 C43_2 1_555 1_555
C43_2 H37_2 1_555 1_555
C44_2 C43_2 1_555 1_555
H38_2 C44_2 1_555 1_555
C45_2 C44_2 1_555 1_555
C46_2 C45_2 1_555 1_555
H39_2 C46_2 1_555 1_555
C47_2 C42_2 1_555 1_555
H40_2 C47_2 1_555 1_555
C48_2 C45_2 1_555 1_555
C49_2 C48_2 1_555 1_555
H41_2 C49_2 1_555 1_555
C50_2 C49_2 1_555 1_555
C51_2 N3_2 1_555 1_555
C52_2 C51_2 1_555 1_555
H42_2 C52_2 1_555 1_555
C53_2 N4_2 1_555 1_555
C54_2 C53_2 1_555 1_555
C55_2 C54_2 1_555 1_555
H43_2 C55_2 1_555 1_555
C56_2 C55_2 1_555 1_555
H44_2 C56_2 1_555 1_555
H45_2 C58_2 1_555 1_555
C59_2 C54_2 1_555 1_555
H46_2 C59_2 1_555 1_555
C61_2 H47_2 1_555 1_555
H48_2 C61_2 1_555 1_555
H49_2 C61_2 1_555 1_555
C62_2 H50_2 1_555 1_555
H51_2 C62_2 1_555 1_555
H52_2 C62_2 1_555 1_555
C63_2 H53_2 1_555 1_555
H54_2 C63_2 1_555 1_555
H55_2 C63_2 1_555 1_555
C64_2 C61_2 1_555 1_555
C65_2 C64_2 1_555 1_555
C66_2 C65_2 1_555 1_555
H56_2 C66_2 1_555 1_555
C67_2 C66_2 1_555 1_555
H57_2 C67_2 1_555 1_555
C68_2 N3_2 1_555 1_555
C69_2 C68_2 1_555 1_555
H58_2 C69_2 1_555 1_555
C70_2 C65_2 1_555 1_555
H59_2 C70_2 1_555 1_555
C71_2 H60_2 1_555 1_555
H61_2 C71_2 1_555 1_555
C72_2 H63_2 1_555 1_555
H64_2 C72_2 1_555 1_555
H65_2 C72_2 1_555 1_555
C74_2 C71_2 1_555 1_555
C75_2 C74_2 1_555 1_555
C76_2 C75_2 1_555 1_555
H69_2 C76_2 1_555 1_555
C77_2 C76_2 1_555 1_555
H70_2 C77_2 1_555 1_555
C78_2 N4_2 1_555 1_555
C79_2 C78_2 1_555 1_555
H71_2 C79_2 1_555 1_555
C80_2 C75_2 1_555 1_555
H72_2 C80_2 1_555 1_555
C81_2 O9_2 1_555 1_555
C82_2 C81_2 1_555 1_555
C83_2 C82_2 1_555 1_555
H73_2 C83_2 1_555 1_555
C84_2 C83_2 1_555 1_555
H74_2 C84_2 1_555 1_555
C85_2 C84_2 1_555 1_555
C86_2 C85_2 1_555 1_555
H75_2 C86_2 1_555 1_555
C87_2 C82_2 1_555 1_555
H76_2 C87_2 1_555 1_555
C88_2 C85_2 1_555 1_555
C89_2 C88_2 1_555 1_555
H77_2 C89_2 1_555 1_555
C90_2 N5_2 1_555 1_555
C91_2 C89_2 1_555 1_555
N6_2 C91_2 1_555 1_555
C92_2 N6_2 1_555 1_555
C93_2 C90_2 1_555 1_555
H78_2 C93_2 1_555 1_555
C94_2 C92_2 1_555 1_555
C95_2 C94_2 1_555 1_555
H79_2 C95_2 1_555 1_555
C96_2 C95_2 1_555 1_555
H80_2 C96_2 1_555 1_555
C97_2 C96_2 1_555 1_555
C98_2 C97_2 1_555 1_555
H81_2 C98_2 1_555 1_555
C99_2 C94_2 1_555 1_555
H82_2 C99_2 1_555 1_555
C100_2 O11_2 1_555 1_555
C101_2 H83_2 1_555 1_555
H84_2 C101_2 1_555 1_555
C102_2 H86_2 1_555 1_555
H87_2 C102_2 1_555 1_555
H88_2 C102_2 1_555 1_555
C103_2 H89_2 1_555 1_555
H91_2 C103_2 1_555 1_555
C104_2 C101_2 1_555 1_555
C105_2 H92_2 1_555 1_555
C106_2 C104_2 1_555 1_555
C107_2 C106_2 1_555 1_555
H93_2 C107_2 1_555 1_555
C108_2 C107_2 1_555 1_555
H94_2 C108_2 1_555 1_555
C109_2 N5_2 1_555 1_555
C110_2 C105_2 1_555 1_555
H95_2 C110_2 1_555 1_555
C111_2 N6_2 1_555 1_555
C112_2 C111_2 1_555 1_555
H96_2 C112_2 1_555 1_555
C113_2 C112_2 1_555 1_555
H97_2 C113_2 1_555 1_555
C114_2 C113_2 1_555 1_555
C115_2 C114_2 1_555 1_555
H98_2 C115_2 1_555 1_555
C116_2 C111_2 1_555 1_555
H99_2 C116_2 1_555 1_555
C117_2 C114_2 1_555 1_555
C118_2 C117_2 1_555 1_555
H100_2 C118_2 1_555 1_555
H101_2 C118_2 1_555 1_555
H102_2 C118_2 1_555 1_555
C119_2 C117_2 1_555 1_555
H103_2 C119_2 1_555 1_555
H104_2 C119_2 1_555 1_555
H105_2 C119_2 1_555 1_555
C120_2 C117_2 1_555 1_555
H106_2 C120_2 1_555 1_555
H107_2 C120_2 1_555 1_555
H108_2 C120_2 1_555 1_555
C22_2 C24_2 1_555 1_555
C23_2 C24_2 1_555 1_555
C46_2 C47_2 1_555 1_555
C50_2 C51_2 1_555 1_555
C52_2 C53_2 1_555 1_555
C58_2 C59_2 1_555 1_555
C62_2 C64_2 1_555 1_555
C63_2 C64_2 1_555 1_555
C67_2 C68_2 1_555 1_555
C69_2 C70_2 1_555 1_555
C72_2 C74_2 1_555 1_555
C77_2 C78_2 1_555 1_555
C79_2 C80_2 1_555 1_555
C86_2 C87_2 1_555 1_555
C90_2 C91_2 1_555 1_555
C92_2 C93_2 1_555 1_555
C97_2 C100_2 1_555 1_555
C98_2 C99_2 1_555 1_555
C102_2 C104_2 1_555 1_555
C103_2 C104_2 1_555 1_555
C105_2 C106_2 1_555 1_555
C108_2 C109_2 1_555 1_555
C109_2 C110_2 1_555 1_555
C115_2 C116_2 1_555 1_555
C31_2 H24_2 1_555 1_555
H25_2 C31_2 1_555 1_555
H26_2 C31_2 1_555 1_555
C32_2 C31_2 1_555 1_555
C33_2 C32_2 1_555 1_555
H27_2 C33_2 1_555 1_555
H28_2 C33_2 1_555 1_555
H29_2 C33_2 1_555 1_555
C34_2 C32_2 1_555 1_555
H30_2 C34_2 1_555 1_555
H31_2 C34_2 1_555 1_555
H32_2 C34_2 1_555 1_555
C35_2 C32_2 1_555 1_555

#END
