
###############################################################################
#
# This file contains modified crystal structure data generated from the
# MOF subset of the Cambridge Structural Database (CSD) v543 
# hosted by the Cambridge Crystallographic Data Centre (CCDC).
#
# This work is licensed under the Creative Commons
# Attribution-NonCommercial-ShareAlike 4.0 International License.
# To view a copy of this license, visit
# http://creativecommons.org/licenses/by-nc-sa/4.0/
# or send a letter to
# Creative Commons, PO Box 1866, Mountain View, CA 94042, USA.
#
# CIF created using the CSD Python API on 29 September 2022
# The structure has been converted into the P1 space group
# The structure has a 3D framework
# The original CSD entry BIJZEC is in the orthorhombic crystal system
# The framework has been calculated to contain at least 10.0% void space
# The void calculation uses a probe of radius 1.32A, grid spacing 0.4
# The framework is charged, counterions have been retained in the structure
#
###############################################################################

data_BIJZEC
_chemical_formula_moiety         '(C320 H288 Ag3 F56 N32 Sb12 9-)n'
_symmetry_cell_setting           triclinic
_symmetry_space_group_name_H-M   'P 1'
_symmetry_Int_Tables_number      1
_space_group_name_Hall           'P 1'
loop_
_symmetry_equiv_pos_site_id
_symmetry_equiv_pos_as_xyz
1 x,y,z
_cell_length_a                   10.7985(3)
_cell_length_b                   29.4144(9)
_cell_length_c                   25.9424(8)
_cell_angle_alpha                90
_cell_angle_beta                 90
_cell_angle_gamma                90
_cell_volume                     8240.12
loop_
_atom_site_label
_atom_site_type_symbol
_atom_site_fract_x
_atom_site_fract_y
_atom_site_fract_z
Sb1 Sb -0.0000 0.50573(8) 0.2500
F1 F 0.0618(16) 0.5037(6) 0.3076(4)
F3 F -0.0000 0.4475(5) 0.2500
F4 F -0.0000 0.5626(4) 0.2500
F6 F 0.1375(12) 0.5062(5) 0.2188(6)
Sb1_2 Sb 1.0000 0.50573(8) 0.2500
F2 F 0.8625(12) 0.5062(5) 0.2812(6)
F3_2 F 1.0000 0.4475(5) 0.2500
F4_2 F 1.0000 0.5626(4) 0.2500
F5 F 0.9382(16) 0.5037(6) 0.1924(4)
Sb1_3 Sb 0.5000 0.49427(8) 0.2500
F1_2 F 0.4382(16) 0.4963(6) 0.3076(4)
F2_2 F 0.6375(12) 0.4938(5) 0.2812(6)
F3_3 F 0.5000 0.5525(5) 0.2500
F4_3 F 0.5000 0.4374(4) 0.2500
F5_2 F 0.5618(16) 0.4963(6) 0.1924(4)
F6_2 F 0.3625(12) 0.4938(5) 0.2188(6)
Sb1_4 Sb 0.5000 0.00573(8) 0.2500
F1_3 F 0.5618(16) 0.0037(6) 0.3076(4)
F2_3 F 0.3625(12) 0.0062(5) 0.2812(6)
F4_4 F 0.5000 0.0626(4) 0.2500
F5_3 F 0.4382(16) 0.0037(6) 0.1924(4)
F6_3 F 0.6375(12) 0.0062(5) 0.2188(6)
F3_4 F 0.5000 0.9475(5) 0.2500
F3_5 F 0.0000 0.0525(5) 0.2500
Sb1_5 Sb 0.0000 0.99427(8) 0.2500
F2_4 F 0.1375(12) 0.9938(5) 0.2812(6)
F4_5 F 0.0000 0.9374(4) 0.2500
F5_4 F 0.0618(16) 0.9963(6) 0.1924(4)
F3_6 F 1.0000 0.0525(5) 0.2500
Sb1_6 Sb 1.0000 0.99427(8) 0.2500
F1_4 F 0.9382(16) 0.9963(6) 0.3076(4)
F4_6 F 1.0000 0.9374(4) 0.2500
F6_4 F 0.8625(12) 0.9938(5) 0.2188(6)
Sb1_7 Sb -0.0000 0.49427(8) 0.7500
F2_5 F 0.1375(12) 0.4938(5) 0.7188(6)
F3_7 F -0.0000 0.5525(5) 0.7500
F4_7 F 0.0000 0.4374(4) 0.7500
F5_5 F 0.0618(16) 0.4963(6) 0.8076(4)
Sb1_8 Sb 1.0000 0.49427(8) 0.7500
F1_5 F 0.9382(16) 0.4963(6) 0.6924(4)
F3_8 F 1.0000 0.5525(5) 0.7500
F4_8 F 1.0000 0.4374(4) 0.7500
F6_5 F 0.8625(12) 0.4938(5) 0.7812(6)
Sb1_9 Sb 0.5000 0.50573(8) 0.7500
F1_6 F 0.5618(16) 0.5037(6) 0.6924(4)
F2_6 F 0.3625(12) 0.5062(5) 0.7188(6)
F3_9 F 0.5000 0.4475(5) 0.7500
F4_9 F 0.5000 0.5626(4) 0.7500
F5_6 F 0.4382(16) 0.5037(6) 0.8076(4)
F6_6 F 0.6375(12) 0.5062(5) 0.7812(6)
F3_10 F 0.5000 0.0525(5) 0.7500
Sb1_10 Sb 0.5000 0.99427(8) 0.7500
F1_7 F 0.4382(16) 0.9963(6) 0.6924(4)
F2_7 F 0.6375(12) 0.9938(5) 0.7188(6)
F4_10 F 0.5000 0.9374(4) 0.7500
F5_7 F 0.5618(16) 0.9963(6) 0.8076(4)
F6_7 F 0.3625(12) 0.9938(5) 0.7812(6)
Sb1_11 Sb -0.0000 0.00573(8) 0.7500
F1_8 F 0.0618(16) 0.0037(6) 0.6924(4)
F4_11 F -0.0000 0.0626(4) 0.7500
F6_8 F 0.1375(12) 0.0062(5) 0.7812(6)
F3_11 F -0.0000 0.9475(5) 0.7500
Sb1_12 Sb 1.0000 0.00573(8) 0.7500
F2_8 F 0.8625(12) 0.0062(5) 0.7188(6)
F4_12 F 1.0000 0.0626(4) 0.7500
F5_8 F 0.9382(16) 0.0037(6) 0.8076(4)
F3_12 F 1.0000 0.9475(5) 0.7500
H45 H 0.0074 0.5958 0.0820
N7 N 0.4004(5) 0.29720(16) 0.19519(18)
C61 C 0.3521(5) 0.32300(18) 0.1695(2)
C62 C 0.2921(5) 0.35569(18) 0.1368(2)
C63 C 0.2808(5) 0.40009(19) 0.1541(2)
H55 H 0.3119 0.4086 0.1870
C64 C 0.2239(6) 0.43182(18) 0.12290(19)
H56 H 0.2173 0.4623 0.1346
C65 C 0.1753(5) 0.42022(17) 0.0742(2)
C66 C 0.1870(5) 0.37481(17) 0.0583(2)
H57 H 0.1551 0.3658 0.0257
C67 C 0.2442(6) 0.34308(19) 0.0893(2)
H58 H 0.2508 0.3124 0.0781
C68 C 0.1101(5) 0.45505(17) 0.04464(19)
C69 C 0.0470(5) 0.49209(17) 0.0641(2)
H59 H 0.0444 0.5020 0.0989
Ag3 Ag 0.5000 0.2500 0.2500
H9 H 0.9926 0.5958 0.4180
N3 N 0.5996(5) 0.29720(16) 0.30481(18)
N4 N 0.9111(4) 0.45165(13) 0.50865(16)
C21 C 0.6479(5) 0.32300(18) 0.3305(2)
C22 C 0.7079(5) 0.35569(18) 0.3632(2)
C23 C 0.7192(5) 0.40009(19) 0.3459(2)
H19 H 0.6881 0.4086 0.3130
C24 C 0.7761(6) 0.43182(18) 0.37710(19)
H20 H 0.7827 0.4623 0.3654
C25 C 0.8247(5) 0.42022(17) 0.4258(2)
C26 C 0.8130(5) 0.37481(17) 0.4417(2)
H21 H 0.8449 0.3658 0.4743
C27 C 0.7558(6) 0.34308(19) 0.4107(2)
H22 H 0.7492 0.3124 0.4219
C28 C 0.8899(5) 0.45505(17) 0.45536(19)
C29 C 0.9530(5) 0.49209(17) 0.4359(2)
H23 H 0.9556 0.5020 0.4011
C30 C 0.9876(5) 0.48793(18) 0.5217(2)
C31 C 0.8500(5) 0.42380(17) 0.54614(19)
C32 C 0.7228(5) 0.4202(2) 0.5474(2)
H24 H 0.6737 0.4364 0.5232
C33 C 0.6667(5) 0.3929(2) 0.5839(2)
H25 H 0.5790 0.3903 0.5840
C34 C 0.7344(6) 0.3693(2) 0.6203(2)
C35 C 0.8632(6) 0.3749(3) 0.6191(3)
H26 H 0.9126 0.3600 0.6443
C36 C 0.9198(6) 0.4014(2) 0.5824(3)
C37 C 0.6743(7) 0.3398(3) 0.6623(3)
C38 C 0.5380(8) 0.3391(4) 0.6611(4)
H28 H 0.5099 0.3280 0.6275
H29 H 0.5072 0.3189 0.6883
H30 H 0.5062 0.3699 0.6668
C39 C 0.7292(10) 0.2943(4) 0.6608(6)
H31 H 0.8197 0.2969 0.6608
H32 H 0.7023 0.2770 0.6911
H33 H 0.7022 0.2786 0.6294
C40 C 0.7111(13) 0.3592(7) 0.7162(4)
H34 H 0.7965 0.3704 0.7150
H35 H 0.6553 0.3842 0.7253
H36 H 0.7045 0.3351 0.7422
N3_2 N 0.4004(5) 0.20280(16) 0.30481(18)
N4_2 N 0.0889(4) 0.04835(13) 0.50865(16)
C21_2 C 0.3521(5) 0.17700(18) 0.3305(2)
C22_2 C 0.2921(5) 0.14431(18) 0.3632(2)
C23_2 C 0.2808(5) 0.09991(19) 0.3459(2)
H19_2 H 0.3119 0.0914 0.3130
C24_2 C 0.2239(6) 0.06818(18) 0.37710(19)
H20_2 H 0.2173 0.0377 0.3654
C25_2 C 0.1753(5) 0.07978(17) 0.4258(2)
C26_2 C 0.1870(5) 0.12519(17) 0.4417(2)
H21_2 H 0.1551 0.1342 0.4743
C27_2 C 0.2442(6) 0.15692(19) 0.4107(2)
H22_2 H 0.2508 0.1876 0.4219
C28_2 C 0.1101(5) 0.04495(17) 0.45536(19)
C29_2 C 0.0470(5) 0.00791(17) 0.4359(2)
C30_2 C 0.0124(5) 0.01207(18) 0.5217(2)
C31_2 C 0.1500(5) 0.07620(17) 0.54614(19)
C32_2 C 0.2772(5) 0.0798(2) 0.5474(2)
H24_2 H 0.3263 0.0636 0.5232
C33_2 C 0.3333(5) 0.1071(2) 0.5839(2)
H25_2 H 0.4210 0.1097 0.5840
C34_2 C 0.2656(6) 0.1307(2) 0.6203(2)
C35_2 C 0.1368(6) 0.1251(3) 0.6191(3)
H26_2 H 0.0874 0.1400 0.6443
C36_2 C 0.0802(6) 0.0986(2) 0.5824(3)
C37_2 C 0.3257(7) 0.1602(3) 0.6623(3)
C38_2 C 0.4620(8) 0.1609(4) 0.6611(4)
H28_2 H 0.4901 0.1720 0.6275
H29_2 H 0.4928 0.1811 0.6883
H30_2 H 0.4938 0.1301 0.6668
C39_2 C 0.2708(10) 0.2057(4) 0.6608(6)
H31_2 H 0.1803 0.2031 0.6608
H32_2 H 0.2977 0.2230 0.6911
H33_2 H 0.2978 0.2214 0.6294
C40_2 C 0.2889(13) 0.1408(7) 0.7162(4)
H34_2 H 0.2035 0.1296 0.7150
H35_2 H 0.3447 0.1158 0.7253
H36_2 H 0.2955 0.1649 0.7422
N7_2 N 0.5996(5) 0.20280(16) 0.19519(18)
C61_2 C 0.6479(5) 0.17700(18) 0.1695(2)
C62_2 C 0.7079(5) 0.14431(18) 0.1368(2)
C63_2 C 0.7192(5) 0.09991(19) 0.1541(2)
H55_2 H 0.6881 0.0914 0.1870
C64_2 C 0.7761(6) 0.06818(18) 0.12290(19)
H56_2 H 0.7827 0.0377 0.1346
C65_2 C 0.8247(5) 0.07978(17) 0.0742(2)
C66_2 C 0.8130(5) 0.12519(17) 0.0583(2)
H57_2 H 0.8449 0.1342 0.0257
C67_2 C 0.7558(6) 0.15692(19) 0.0893(2)
H58_2 H 0.7492 0.1876 0.0781
C68_2 C 0.8899(5) 0.04495(17) 0.04464(19)
C69_2 C 0.9530(5) 0.00791(17) 0.0641(2)
N8 N 0.0889(4) 0.45165(13) 0.99135(16)
C70 C 0.0124(5) 0.48793(18) 0.9783(2)
C71 C 0.1500(5) 0.42380(17) 0.95386(19)
C72 C 0.2772(5) 0.4202(2) 0.9526(2)
H60 H 0.3263 0.4364 0.9768
C73 C 0.3333(5) 0.3929(2) 0.9161(2)
H61 H 0.4210 0.3903 0.9160
C74 C 0.2656(6) 0.3693(2) 0.8797(2)
C75 C 0.1368(6) 0.3749(3) 0.8809(3)
H62 H 0.0874 0.3600 0.8557
C76 C 0.0802(6) 0.4014(2) 0.9176(3)
C77 C 0.3257(7) 0.3398(3) 0.8377(3)
C78 C 0.4620(8) 0.3391(4) 0.8389(4)
H64 H 0.4901 0.3280 0.8725
H65 H 0.4928 0.3189 0.8117
H66 H 0.4938 0.3699 0.8332
C79 C 0.2708(10) 0.2943(4) 0.8392(6)
H67 H 0.1803 0.2969 0.8392
H68 H 0.2977 0.2770 0.8089
H69 H 0.2978 0.2786 0.8706
C80 C 0.2889(13) 0.3592(7) 0.7838(4)
H70 H 0.2035 0.3704 0.7850
H71 H 0.3447 0.3842 0.7747
H72 H 0.2955 0.3351 0.7578
N6 N 0.9111(4) 0.54835(13) 0.00865(16)
C50 C 0.9876(5) 0.51207(18) 0.0217(2)
C51 C 0.8500(5) 0.57620(17) 0.04614(19)
C52 C 0.7228(5) 0.5798(2) 0.0474(2)
H42 H 0.6737 0.5636 0.0232
C53 C 0.6667(5) 0.6071(2) 0.0839(2)
H43 H 0.5790 0.6097 0.0840
C54 C 0.7344(6) 0.6307(2) 0.1203(2)
C55 C 0.8632(6) 0.6251(3) 0.1191(3)
H44 H 0.9126 0.6400 0.1443
C56 C 0.9198(6) 0.5986(2) 0.0824(3)
C57 C 0.6743(7) 0.6602(3) 0.1623(3)
C58 C 0.5380(8) 0.6609(4) 0.1611(4)
H46 H 0.5099 0.6720 0.1275
H47 H 0.5072 0.6811 0.1883
H48 H 0.5062 0.6301 0.1668
C59 C 0.7292(10) 0.7057(4) 0.1608(6)
H49 H 0.8197 0.7031 0.1608
H50 H 0.7023 0.7230 0.1911
H51 H 0.7022 0.7214 0.1294
C60 C 0.7111(13) 0.6408(7) 0.2162(4)
H52 H 0.7965 0.6296 0.2150
H53 H 0.6553 0.6158 0.2253
H54 H 0.7045 0.6649 0.2422
Ag1 Ag 0.5000 0.7500 0.7500
N1 N 0.4004(5) 0.70280(16) 0.69519(18)
N2 N 0.0889(4) 0.54835(13) 0.49135(16)
C1 C 0.3521(5) 0.67700(18) 0.6695(2)
C2 C 0.2921(5) 0.64431(18) 0.6368(2)
C3 C 0.2808(5) 0.59991(19) 0.6541(2)
H1 H 0.3119 0.5914 0.6870
C4 C 0.2239(6) 0.56818(18) 0.62290(19)
H2 H 0.2173 0.5377 0.6346
C5 C 0.1753(5) 0.57978(17) 0.5742(2)
C6 C 0.1870(5) 0.62519(17) 0.5583(2)
H3 H 0.1551 0.6342 0.5257
C7 C 0.2442(6) 0.65692(19) 0.5893(2)
H4 H 0.2508 0.6876 0.5781
C8 C 0.1101(5) 0.54495(17) 0.54464(19)
C9 C 0.0470(5) 0.50791(17) 0.5641(2)
H5 H 0.0444 0.4980 0.5989
C10 C 0.0124(5) 0.51207(18) 0.4783(2)
C11 C 0.1500(5) 0.57620(17) 0.45386(19)
C12 C 0.2772(5) 0.5798(2) 0.4526(2)
H6 H 0.3263 0.5636 0.4768
C13 C 0.3333(5) 0.6071(2) 0.4161(2)
H7 H 0.4210 0.6097 0.4160
C14 C 0.2656(6) 0.6307(2) 0.3797(2)
C15 C 0.1368(6) 0.6251(3) 0.3809(3)
H8 H 0.0874 0.6400 0.3557
C16 C 0.0802(6) 0.5986(2) 0.4176(3)
C17 C 0.3257(7) 0.6602(3) 0.3377(3)
C18 C 0.4620(8) 0.6609(4) 0.3389(4)
H10 H 0.4901 0.6720 0.3725
H11 H 0.4928 0.6811 0.3117
H12 H 0.4938 0.6301 0.3332
C19 C 0.2708(10) 0.7057(4) 0.3392(6)
H13 H 0.1803 0.7031 0.3392
H14 H 0.2977 0.7230 0.3089
H15 H 0.2978 0.7214 0.3706
C20 C 0.2889(13) 0.6408(7) 0.2838(4)
H16 H 0.2035 0.6296 0.2850
H17 H 0.3447 0.6158 0.2747
H18 H 0.2955 0.6649 0.2578
H27 H 0.0074 0.4042 0.5820
N5 N 0.5996(5) 0.70280(16) 0.80481(18)
C41 C 0.6479(5) 0.67700(18) 0.8305(2)
C42 C 0.7079(5) 0.64431(18) 0.8632(2)
C43 C 0.7192(5) 0.59991(19) 0.8459(2)
H37 H 0.6881 0.5914 0.8130
C44 C 0.7761(6) 0.56818(18) 0.87710(19)
H38 H 0.7827 0.5377 0.8654
C45 C 0.8247(5) 0.57978(17) 0.9258(2)
C46 C 0.8130(5) 0.62519(17) 0.9417(2)
H39 H 0.8449 0.6342 0.9743
C47 C 0.7558(6) 0.65692(19) 0.9107(2)
H40 H 0.7492 0.6876 0.9219
C48 C 0.8899(5) 0.54495(17) 0.95536(19)
C49 C 0.9530(5) 0.50791(17) 0.9359(2)
H41 H 0.9556 0.4980 0.9011
H63 H 0.9926 0.4042 0.9180
N9 N 0.5996(5) 0.79720(16) 0.69519(18)
N10 N 0.4004(5) 0.79720(16) 0.80481(18)
N2_2 N 0.9111(4) 0.95165(13) 0.49135(16)
C1_2 C 0.6479(5) 0.82300(18) 0.6695(2)
C2_2 C 0.7079(5) 0.85569(18) 0.6368(2)
C3_2 C 0.7192(5) 0.90009(19) 0.6541(2)
H1_2 H 0.6881 0.9086 0.6870
C4_2 C 0.7761(6) 0.93182(18) 0.62290(19)
H2_2 H 0.7827 0.9623 0.6346
C5_2 C 0.8247(5) 0.92022(17) 0.5742(2)
C6_2 C 0.8130(5) 0.87481(17) 0.5583(2)
H3_2 H 0.8449 0.8658 0.5257
C7_2 C 0.7558(6) 0.84308(19) 0.5893(2)
H4_2 H 0.7492 0.8124 0.5781
C8_2 C 0.8899(5) 0.95505(17) 0.54464(19)
C9_2 C 0.9530(5) 0.99209(17) 0.5641(2)
C10_2 C 0.9876(5) 0.98793(18) 0.4783(2)
C11_2 C 0.8500(5) 0.92380(17) 0.45386(19)
C12_2 C 0.7228(5) 0.9202(2) 0.4526(2)
H6_2 H 0.6737 0.9364 0.4768
C13_2 C 0.6667(5) 0.8929(2) 0.4161(2)
H7_2 H 0.5790 0.8903 0.4160
C14_2 C 0.7344(6) 0.8693(2) 0.3797(2)
C15_2 C 0.8632(6) 0.8749(3) 0.3809(3)
H8_2 H 0.9126 0.8600 0.3557
C16_2 C 0.9198(6) 0.9014(2) 0.4176(3)
C17_2 C 0.6743(7) 0.8398(3) 0.3377(3)
C18_2 C 0.5380(8) 0.8391(4) 0.3389(4)
H10_2 H 0.5099 0.8280 0.3725
H11_2 H 0.5072 0.8189 0.3117
H12_2 H 0.5062 0.8699 0.3332
C19_2 C 0.7292(10) 0.7943(4) 0.3392(6)
H13_2 H 0.8197 0.7969 0.3392
H14_2 H 0.7023 0.7770 0.3089
H15_2 H 0.7022 0.7786 0.3706
C20_2 C 0.7111(13) 0.8592(7) 0.2838(4)
H16_2 H 0.7965 0.8704 0.2850
H17_2 H 0.6553 0.8842 0.2747
H18_2 H 0.7045 0.8351 0.2578
C41_2 C 0.3521(5) 0.82300(18) 0.8305(2)
C42_2 C 0.2921(5) 0.85569(18) 0.8632(2)
C43_2 C 0.2808(5) 0.90009(19) 0.8459(2)
H37_2 H 0.3119 0.9086 0.8130
C44_2 C 0.2239(6) 0.93182(18) 0.87710(19)
H38_2 H 0.2173 0.9623 0.8654
C45_2 C 0.1753(5) 0.92022(17) 0.9258(2)
C46_2 C 0.1870(5) 0.87481(17) 0.9417(2)
H39_2 H 0.1551 0.8658 0.9743
C47_2 C 0.2442(6) 0.84308(19) 0.9107(2)
H40_2 H 0.2508 0.8124 0.9219
C48_2 C 0.1101(5) 0.95505(17) 0.95536(19)
C49_2 C 0.0470(5) 0.99209(17) 0.9359(2)
Ag2 Ag -0.0000 0.7500 0.2500
N6_2 N 0.5889(4) 0.45165(13) 0.00865(16)
C50_2 C 0.5124(5) 0.48793(18) 0.0217(2)
C51_2 C 0.6500(5) 0.42380(17) 0.04614(19)
C52_2 C 0.7772(5) 0.4202(2) 0.0474(2)
H42_2 H 0.8263 0.4364 0.0232
C53_2 C 0.8333(5) 0.3929(2) 0.0839(2)
H43_2 H 0.9210 0.3903 0.0840
C54_2 C 0.7656(6) 0.3693(2) 0.1203(2)
C55_2 C 0.6368(6) 0.3749(3) 0.1191(3)
H44_2 H 0.5874 0.3600 0.1443
C56_2 C 0.5802(6) 0.4014(2) 0.0824(3)
H45_2 H 0.4926 0.4042 0.0820
C57_2 C 0.8257(7) 0.3398(3) 0.1623(3)
C58_2 C 0.9620(8) 0.3391(4) 0.1611(4)
H46_2 H 0.9901 0.3280 0.1275
H47_2 H 0.9928 0.3189 0.1883
H48_2 H 0.9938 0.3699 0.1668
C59_2 C 0.7708(10) 0.2943(4) 0.1608(6)
H49_2 H 0.6803 0.2969 0.1608
H50_2 H 0.7977 0.2770 0.1911
H51_2 H 0.7978 0.2786 0.1294
C60_2 C 0.7889(13) 0.3592(7) 0.2162(4)
H52_2 H 0.7035 0.3704 0.2150
H53_2 H 0.8447 0.3842 0.2253
H54_2 H 0.7955 0.3351 0.2422
N7_3 N 0.0996(5) 0.70280(16) 0.19519(18)
C61_3 C 0.1479(5) 0.67700(18) 0.1695(2)
C62_3 C 0.2079(5) 0.64431(18) 0.1368(2)
C63_3 C 0.2192(5) 0.59991(19) 0.1541(2)
H55_3 H 0.1881 0.5914 0.1870
C64_3 C 0.2761(6) 0.56818(18) 0.12290(19)
H56_3 H 0.2827 0.5377 0.1346
C65_3 C 0.3247(5) 0.57978(17) 0.0742(2)
C66_3 C 0.3130(5) 0.62519(17) 0.0583(2)
H57_3 H 0.3449 0.6342 0.0257
C67_3 C 0.2558(6) 0.65692(19) 0.0893(2)
H58_3 H 0.2492 0.6876 0.0781
C68_3 C 0.3899(5) 0.54495(17) 0.04464(19)
C69_3 C 0.4530(5) 0.50791(17) 0.0641(2)
H59_2 H 0.4556 0.4980 0.0989
H5_2 H 0.5444 0.9980 0.5989
N3_3 N 0.0996(5) 0.79720(16) 0.30481(18)
N4_3 N 0.4111(4) 0.95165(13) 0.50865(16)
C21_3 C 0.1479(5) 0.82300(18) 0.3305(2)
C22_3 C 0.2079(5) 0.85569(18) 0.3632(2)
C23_3 C 0.2192(5) 0.90009(19) 0.3459(2)
H19_3 H 0.1881 0.9086 0.3130
C24_3 C 0.2761(6) 0.93182(18) 0.37710(19)
H20_3 H 0.2827 0.9623 0.3654
C25_3 C 0.3247(5) 0.92022(17) 0.4258(2)
C26_3 C 0.3130(5) 0.87481(17) 0.4417(2)
H21_3 H 0.3449 0.8658 0.4743
C27_3 C 0.2558(6) 0.84308(19) 0.4107(2)
H22_3 H 0.2492 0.8124 0.4219
C28_3 C 0.3899(5) 0.95505(17) 0.45536(19)
C29_3 C 0.4530(5) 0.99209(17) 0.4359(2)
C30_3 C 0.4876(5) 0.98793(18) 0.5217(2)
C31_3 C 0.3500(5) 0.92380(17) 0.54614(19)
C32_3 C 0.2228(5) 0.9202(2) 0.5474(2)
H24_3 H 0.1737 0.9364 0.5232
C33_3 C 0.1667(5) 0.8929(2) 0.5839(2)
H25_3 H 0.0790 0.8903 0.5840
C34_3 C 0.2344(6) 0.8693(2) 0.6203(2)
C35_3 C 0.3632(6) 0.8749(3) 0.6191(3)
H26_3 H 0.4126 0.8600 0.6443
C36_3 C 0.4198(6) 0.9014(2) 0.5824(3)
H27_2 H 0.5074 0.9042 0.5820
C37_3 C 0.1743(7) 0.8398(3) 0.6623(3)
C38_3 C 0.0380(8) 0.8391(4) 0.6611(4)
H28_3 H 0.0099 0.8280 0.6275
H29_3 H 0.0072 0.8189 0.6883
H30_3 H 0.0062 0.8699 0.6668
C39_3 C 0.2292(10) 0.7943(4) 0.6608(6)
H31_3 H 0.3197 0.7969 0.6608
H32_3 H 0.2023 0.7770 0.6911
H33_3 H 0.2022 0.7786 0.6294
C40_3 C 0.2111(13) 0.8592(7) 0.7162(4)
H34_3 H 0.2965 0.8704 0.7150
H35_3 H 0.1553 0.8842 0.7253
H36_3 H 0.2045 0.8351 0.7422
Ag1_2 Ag -0.0000 0.2500 0.7500
N1_2 N 0.0996(5) 0.29720(16) 0.69519(18)
N2_3 N 0.4111(4) 0.45165(13) 0.49135(16)
C1_3 C 0.1479(5) 0.32300(18) 0.6695(2)
C2_3 C 0.2079(5) 0.35569(18) 0.6368(2)
C3_3 C 0.2192(5) 0.40009(19) 0.6541(2)
H1_3 H 0.1881 0.4086 0.6870
C4_3 C 0.2761(6) 0.43182(18) 0.62290(19)
H2_3 H 0.2827 0.4623 0.6346
C5_3 C 0.3247(5) 0.42022(17) 0.5742(2)
C6_3 C 0.3130(5) 0.37481(17) 0.5583(2)
H3_3 H 0.3449 0.3658 0.5257
C7_3 C 0.2558(6) 0.34308(19) 0.5893(2)
H4_3 H 0.2492 0.3124 0.5781
C8_3 C 0.3899(5) 0.45505(17) 0.54464(19)
C9_3 C 0.4530(5) 0.49209(17) 0.5641(2)
H5_3 H 0.4556 0.5020 0.5989
C10_3 C 0.4876(5) 0.48793(18) 0.4783(2)
C11_3 C 0.3500(5) 0.42380(17) 0.45386(19)
C12_3 C 0.2228(5) 0.4202(2) 0.4526(2)
H6_3 H 0.1737 0.4364 0.4768
C13_3 C 0.1667(5) 0.3929(2) 0.4161(2)
H7_3 H 0.0790 0.3903 0.4160
C14_3 C 0.2344(6) 0.3693(2) 0.3797(2)
C15_3 C 0.3632(6) 0.3749(3) 0.3809(3)
H8_3 H 0.4126 0.3600 0.3557
C16_3 C 0.4198(6) 0.4014(2) 0.4176(3)
H9_2 H 0.5074 0.4042 0.4180
C17_3 C 0.1743(7) 0.3398(3) 0.3377(3)
C18_3 C 0.0380(8) 0.3391(4) 0.3389(4)
H10_3 H 0.0099 0.3280 0.3725
H11_3 H 0.0072 0.3189 0.3117
H12_3 H 0.0062 0.3699 0.3332
C19_3 C 0.2292(10) 0.2943(4) 0.3392(6)
H13_3 H 0.3197 0.2969 0.3392
H14_3 H 0.2023 0.2770 0.3089
H15_3 H 0.2022 0.2786 0.3706
C20_3 C 0.2111(13) 0.3592(7) 0.2838(4)
H16_3 H 0.2965 0.3704 0.2850
H17_3 H 0.1553 0.3842 0.2747
H18_3 H 0.2045 0.3351 0.2578
N3_4 N 0.9004(5) 0.70280(16) 0.30481(18)
N4_4 N 0.5889(4) 0.54835(13) 0.50865(16)
C21_4 C 0.8521(5) 0.67700(18) 0.3305(2)
C22_4 C 0.7921(5) 0.64431(18) 0.3632(2)
C23_4 C 0.7808(5) 0.59991(19) 0.3459(2)
H19_4 H 0.8119 0.5914 0.3130
C24_4 C 0.7239(6) 0.56818(18) 0.37710(19)
H20_4 H 0.7173 0.5377 0.3654
C25_4 C 0.6753(5) 0.57978(17) 0.4258(2)
C26_4 C 0.6870(5) 0.62519(17) 0.4417(2)
H21_4 H 0.6551 0.6342 0.4743
C27_4 C 0.7442(6) 0.65692(19) 0.4107(2)
H22_4 H 0.7508 0.6876 0.4219
C28_4 C 0.6101(5) 0.54495(17) 0.45536(19)
C29_4 C 0.5470(5) 0.50791(17) 0.4359(2)
H23_2 H 0.5444 0.4980 0.4011
C30_4 C 0.5124(5) 0.51207(18) 0.5217(2)
C31_4 C 0.6500(5) 0.57620(17) 0.54614(19)
C32_4 C 0.7772(5) 0.5798(2) 0.5474(2)
H24_4 H 0.8263 0.5636 0.5232
C33_4 C 0.8333(5) 0.6071(2) 0.5839(2)
H25_4 H 0.9210 0.6097 0.5840
C34_4 C 0.7656(6) 0.6307(2) 0.6203(2)
C35_4 C 0.6368(6) 0.6251(3) 0.6191(3)
H26_4 H 0.5874 0.6400 0.6443
C36_4 C 0.5802(6) 0.5986(2) 0.5824(3)
H27_3 H 0.4926 0.5958 0.5820
C37_4 C 0.8257(7) 0.6602(3) 0.6623(3)
C38_4 C 0.9620(8) 0.6609(4) 0.6611(4)
H28_4 H 0.9901 0.6720 0.6275
H29_4 H 0.9928 0.6811 0.6883
H30_4 H 0.9938 0.6301 0.6668
C39_4 C 0.7708(10) 0.7057(4) 0.6608(6)
H31_4 H 0.6803 0.7031 0.6608
H32_4 H 0.7977 0.7230 0.6911
H33_4 H 0.7978 0.7214 0.6294
C40_4 C 0.7889(13) 0.6408(7) 0.7162(4)
H34_4 H 0.7035 0.6296 0.7150
H35_4 H 0.8447 0.6158 0.7253
H36_4 H 0.7955 0.6649 0.7422
Ag2_2 Ag 1.0000 0.7500 0.2500
N10_2 N 0.0996(5) 0.20280(16) 0.80481(18)
C41_3 C 0.1479(5) 0.17700(18) 0.8305(2)
C42_3 C 0.2079(5) 0.14431(18) 0.8632(2)
C43_3 C 0.2192(5) 0.09991(19) 0.8459(2)
H37_3 H 0.1881 0.0914 0.8130
C44_3 C 0.2761(6) 0.06818(18) 0.87710(19)
H38_3 H 0.2827 0.0377 0.8654
C45_3 C 0.3247(5) 0.07978(17) 0.9258(2)
C46_3 C 0.3130(5) 0.12519(17) 0.9417(2)
H39_3 H 0.3449 0.1342 0.9743
C47_3 C 0.2558(6) 0.15692(19) 0.9107(2)
H40_3 H 0.2492 0.1876 0.9219
C48_3 C 0.3899(5) 0.04495(17) 0.95536(19)
C49_3 C 0.4530(5) 0.00791(17) 0.9359(2)
N7_4 N 0.9004(5) 0.79720(16) 0.19519(18)
C61_4 C 0.8521(5) 0.82300(18) 0.1695(2)
C62_4 C 0.7921(5) 0.85569(18) 0.1368(2)
C63_4 C 0.7808(5) 0.90009(19) 0.1541(2)
H55_4 H 0.8119 0.9086 0.1870
C64_4 C 0.7239(6) 0.93182(18) 0.12290(19)
H56_4 H 0.7173 0.9623 0.1346
C65_4 C 0.6753(5) 0.92022(17) 0.0742(2)
C66_4 C 0.6870(5) 0.87481(17) 0.0583(2)
H57_4 H 0.6551 0.8658 0.0257
C67_4 C 0.7442(6) 0.84308(19) 0.0893(2)
H58_4 H 0.7508 0.8124 0.0781
C68_4 C 0.6101(5) 0.95505(17) 0.04464(19)
C69_4 C 0.5470(5) 0.99209(17) 0.0641(2)
Ag1_3 Ag 1.0000 0.2500 0.7500
N5_2 N 0.9004(5) 0.29720(16) 0.80481(18)
C41_4 C 0.8521(5) 0.32300(18) 0.8305(2)
C42_4 C 0.7921(5) 0.35569(18) 0.8632(2)
C43_4 C 0.7808(5) 0.40009(19) 0.8459(2)
H37_4 H 0.8119 0.4086 0.8130
C44_4 C 0.7239(6) 0.43182(18) 0.87710(19)
H38_4 H 0.7173 0.4623 0.8654
C45_4 C 0.6753(5) 0.42022(17) 0.9258(2)
C46_4 C 0.6870(5) 0.37481(17) 0.9417(2)
H39_4 H 0.6551 0.3658 0.9743
C47_4 C 0.7442(6) 0.34308(19) 0.9107(2)
H40_4 H 0.7508 0.3124 0.9219
C48_4 C 0.6101(5) 0.45505(17) 0.95536(19)
C49_4 C 0.5470(5) 0.49209(17) 0.9359(2)
H41_2 H 0.5444 0.5020 0.9011
N8_2 N 0.4111(4) 0.54835(13) 0.99135(16)
C70_2 C 0.4876(5) 0.51207(18) 0.9783(2)
C71_2 C 0.3500(5) 0.57620(17) 0.95386(19)
C72_2 C 0.2228(5) 0.5798(2) 0.9526(2)
H60_2 H 0.1737 0.5636 0.9768
C73_2 C 0.1667(5) 0.6071(2) 0.9161(2)
H61_2 H 0.0790 0.6097 0.9160
C74_2 C 0.2344(6) 0.6307(2) 0.8797(2)
C75_2 C 0.3632(6) 0.6251(3) 0.8809(3)
H62_2 H 0.4126 0.6400 0.8557
C76_2 C 0.4198(6) 0.5986(2) 0.9176(3)
H63_2 H 0.5074 0.5958 0.9180
C77_2 C 0.1743(7) 0.6602(3) 0.8377(3)
C78_2 C 0.0380(8) 0.6609(4) 0.8389(4)
H64_2 H 0.0099 0.6720 0.8725
H65_2 H 0.0072 0.6811 0.8117
H66_2 H 0.0062 0.6301 0.8332
C79_2 C 0.2292(10) 0.7057(4) 0.8392(6)
H67_2 H 0.3197 0.7031 0.8392
H68_2 H 0.2023 0.7230 0.8089
H69_2 H 0.2022 0.7214 0.8706
C80_2 C 0.2111(13) 0.6408(7) 0.7838(4)
H70_2 H 0.2965 0.6296 0.7850
H71_2 H 0.1553 0.6158 0.7747
H72_2 H 0.2045 0.6649 0.7578
N9_2 N 0.9004(5) 0.20280(16) 0.69519(18)
N2_4 N 0.5889(4) 0.04835(13) 0.49135(16)
C1_4 C 0.8521(5) 0.17700(18) 0.6695(2)
C2_4 C 0.7921(5) 0.14431(18) 0.6368(2)
C3_4 C 0.7808(5) 0.09991(19) 0.6541(2)
H1_4 H 0.8119 0.0914 0.6870
C4_4 C 0.7239(6) 0.06818(18) 0.62290(19)
H2_4 H 0.7173 0.0377 0.6346
C5_4 C 0.6753(5) 0.07978(17) 0.5742(2)
C6_4 C 0.6870(5) 0.12519(17) 0.5583(2)
H3_4 H 0.6551 0.1342 0.5257
C7_4 C 0.7442(6) 0.15692(19) 0.5893(2)
H4_4 H 0.7508 0.1876 0.5781
C8_4 C 0.6101(5) 0.04495(17) 0.54464(19)
C9_4 C 0.5470(5) 0.00791(17) 0.5641(2)
C10_4 C 0.5124(5) 0.01207(18) 0.4783(2)
C11_4 C 0.6500(5) 0.07620(17) 0.45386(19)
C12_4 C 0.7772(5) 0.0798(2) 0.4526(2)
H6_4 H 0.8263 0.0636 0.4768
C13_4 C 0.8333(5) 0.1071(2) 0.4161(2)
H7_4 H 0.9210 0.1097 0.4160
C14_4 C 0.7656(6) 0.1307(2) 0.3797(2)
C15_4 C 0.6368(6) 0.1251(3) 0.3809(3)
H8_4 H 0.5874 0.1400 0.3557
C16_4 C 0.5802(6) 0.0986(2) 0.4176(3)
H9_3 H 0.4926 0.0958 0.4180
C17_4 C 0.8257(7) 0.1602(3) 0.3377(3)
C18_4 C 0.9620(8) 0.1609(4) 0.3389(4)
H10_4 H 0.9901 0.1720 0.3725
H11_4 H 0.9928 0.1811 0.3117
H12_4 H 0.9938 0.1301 0.3332
C19_4 C 0.7708(10) 0.2057(4) 0.3392(6)
H13_4 H 0.6803 0.2031 0.3392
H14_4 H 0.7977 0.2230 0.3089
H15_4 H 0.7978 0.2214 0.3706
C20_4 C 0.7889(13) 0.1408(7) 0.2838(4)
H16_4 H 0.7035 0.1296 0.2850
H17_4 H 0.8447 0.1158 0.2747
H18_4 H 0.7955 0.1649 0.2578
H23_3 H 0.4556 0.0020 0.4011
N6_3 N 0.4111(4) 0.04835(13) 0.00865(16)
C50_3 C 0.4876(5) 0.01207(18) 0.0217(2)
C51_3 C 0.3500(5) 0.07620(17) 0.04614(19)
C52_3 C 0.2228(5) 0.0798(2) 0.0474(2)
H42_3 H 0.1737 0.0636 0.0232
C53_3 C 0.1667(5) 0.1071(2) 0.0839(2)
H43_3 H 0.0790 0.1097 0.0840
C54_3 C 0.2344(6) 0.1307(2) 0.1203(2)
C55_3 C 0.3632(6) 0.1251(3) 0.1191(3)
H44_3 H 0.4126 0.1400 0.1443
C56_3 C 0.4198(6) 0.0986(2) 0.0824(3)
H45_3 H 0.5074 0.0958 0.0820
C57_3 C 0.1743(7) 0.1602(3) 0.1623(3)
C58_3 C 0.0380(8) 0.1609(4) 0.1611(4)
H46_3 H 0.0099 0.1720 0.1275
H47_3 H 0.0072 0.1811 0.1883
H48_3 H 0.0062 0.1301 0.1668
C59_3 C 0.2292(10) 0.2057(4) 0.1608(6)
H49_3 H 0.3197 0.2031 0.1608
H50_3 H 0.2023 0.2230 0.1911
H51_3 H 0.2022 0.2214 0.1294
C60_3 C 0.2111(13) 0.1408(7) 0.2162(4)
H52_3 H 0.2965 0.1296 0.2150
H53_3 H 0.1553 0.1158 0.2253
H54_3 H 0.2045 0.1649 0.2422
H59_3 H 0.5444 0.0020 0.0989
H41_3 H 0.4556 0.9980 0.9011
N8_3 N 0.5889(4) 0.95165(13) 0.99135(16)
C70_3 C 0.5124(5) 0.98793(18) 0.9783(2)
C71_3 C 0.6500(5) 0.92380(17) 0.95386(19)
C72_3 C 0.7772(5) 0.9202(2) 0.9526(2)
H60_3 H 0.8263 0.9364 0.9768
C73_3 C 0.8333(5) 0.8929(2) 0.9161(2)
H61_3 H 0.9210 0.8903 0.9160
C74_3 C 0.7656(6) 0.8693(2) 0.8797(2)
C75_3 C 0.6368(6) 0.8749(3) 0.8809(3)
H62_3 H 0.5874 0.8600 0.8557
C76_3 C 0.5802(6) 0.9014(2) 0.9176(3)
H63_3 H 0.4926 0.9042 0.9180
C77_3 C 0.8257(7) 0.8398(3) 0.8377(3)
C78_3 C 0.9620(8) 0.8391(4) 0.8389(4)
H64_3 H 0.9901 0.8280 0.8725
H65_3 H 0.9928 0.8189 0.8117
H66_3 H 0.9938 0.8699 0.8332
C79_3 C 0.7708(10) 0.7943(4) 0.8392(6)
H67_3 H 0.6803 0.7969 0.8392
H68_3 H 0.7977 0.7770 0.8089
H69_3 H 0.7978 0.7786 0.8706
C80_3 C 0.7889(13) 0.8592(7) 0.7838(4)
H70_3 H 0.7035 0.8704 0.7850
H71_3 H 0.8447 0.8842 0.7747
H72_3 H 0.7955 0.8351 0.7578
H9_4 H 0.0074 0.9042 0.4180
H23_4 H 0.0444 0.9980 0.4011
H45_4 H 0.9926 0.9042 0.0820
H59_4 H 0.9556 0.9980 0.0989
H5_4 H 0.9556 0.0020 0.5989
H27_4 H 0.9926 0.0958 0.5820
H41_4 H 0.0444 0.0020 0.9011
H63_4 H 0.0074 0.0958 0.9180
N6_4 N 0.0889(4) 0.95165(13) 0.00865(16)
C50_4 C 0.0124(5) 0.98793(18) 0.0217(2)
C51_4 C 0.1500(5) 0.92380(17) 0.04614(19)
C52_4 C 0.2772(5) 0.9202(2) 0.0474(2)
H42_4 H 0.3263 0.9364 0.0232
C53_4 C 0.3333(5) 0.8929(2) 0.0839(2)
H43_4 H 0.4210 0.8903 0.0840
C54_4 C 0.2656(6) 0.8693(2) 0.1203(2)
C55_4 C 0.1368(6) 0.8749(3) 0.1191(3)
H44_4 H 0.0874 0.8600 0.1443
C56_4 C 0.0802(6) 0.9014(2) 0.0824(3)
C57_4 C 0.3257(7) 0.8398(3) 0.1623(3)
C58_4 C 0.4620(8) 0.8391(4) 0.1611(4)
H46_4 H 0.4901 0.8280 0.1275
H47_4 H 0.4928 0.8189 0.1883
H48_4 H 0.4938 0.8699 0.1668
C59_4 C 0.2708(10) 0.7943(4) 0.1608(6)
H49_4 H 0.1803 0.7969 0.1608
H50_4 H 0.2977 0.7770 0.1911
H51_4 H 0.2978 0.7786 0.1294
C60_4 C 0.2889(13) 0.8592(7) 0.2162(4)
H52_4 H 0.2035 0.8704 0.2150
H53_4 H 0.3447 0.8842 0.2253
H54_4 H 0.2955 0.8351 0.2422
N8_4 N 0.9111(4) 0.04835(13) 0.99135(16)
C70_4 C 0.9876(5) 0.01207(18) 0.9783(2)
C71_4 C 0.8500(5) 0.07620(17) 0.95386(19)
C72_4 C 0.7228(5) 0.0798(2) 0.9526(2)
H60_4 H 0.6737 0.0636 0.9768
C73_4 C 0.6667(5) 0.1071(2) 0.9161(2)
H61_4 H 0.5790 0.1097 0.9160
C74_4 C 0.7344(6) 0.1307(2) 0.8797(2)
C75_4 C 0.8632(6) 0.1251(3) 0.8809(3)
H62_4 H 0.9126 0.1400 0.8557
C76_4 C 0.9198(6) 0.0986(2) 0.9176(3)
C77_4 C 0.6743(7) 0.1602(3) 0.8377(3)
C78_4 C 0.5380(8) 0.1609(4) 0.8389(4)
H64_4 H 0.5099 0.1720 0.8725
H65_4 H 0.5072 0.1811 0.8117
H66_4 H 0.5062 0.1301 0.8332
C79_4 C 0.7292(10) 0.2057(4) 0.8392(6)
H67_4 H 0.8197 0.2031 0.8392
H68_4 H 0.7023 0.2230 0.8089
H69_4 H 0.7022 0.2214 0.8706
C80_4 C 0.7111(13) 0.1408(7) 0.7838(4)
H70_4 H 0.7965 0.1296 0.7850
H71_4 H 0.6553 0.1158 0.7747
H72_4 H 0.7045 0.1649 0.7578
loop_
_geom_bond_atom_site_label_1
_geom_bond_atom_site_label_2
_geom_bond_site_symmetry_1
_geom_bond_site_symmetry_2
Sb1 F1 1_555 1_555
F3 Sb1 1_555 1_555
F4 Sb1 1_555 1_555
F6 Sb1 1_555 1_555
F2 Sb1_2 1_555 1_555
F3_2 Sb1_2 1_555 1_555
F4_2 Sb1_2 1_555 1_555
F5 Sb1_2 1_555 1_555
Sb1_3 F1_2 1_555 1_555
F2_2 Sb1_3 1_555 1_555
F3_3 Sb1_3 1_555 1_555
F4_3 Sb1_3 1_555 1_555
F5_2 Sb1_3 1_555 1_555
F6_2 Sb1_3 1_555 1_555
Sb1_4 F1_3 1_555 1_555
F2_3 Sb1_4 1_555 1_555
F4_4 Sb1_4 1_555 1_555
F5_3 Sb1_4 1_555 1_555
F6_3 Sb1_4 1_555 1_555
F2_4 Sb1_5 1_555 1_555
F4_5 Sb1_5 1_555 1_555
F5_4 Sb1_5 1_555 1_555
Sb1_6 F1_4 1_555 1_555
F4_6 Sb1_6 1_555 1_555
F6_4 Sb1_6 1_555 1_555
F2_5 Sb1_7 1_555 1_555
F3_7 Sb1_7 1_555 1_555
F4_7 Sb1_7 1_555 1_555
F5_5 Sb1_7 1_555 1_555
Sb1_8 F1_5 1_555 1_555
F3_8 Sb1_8 1_555 1_555
F4_8 Sb1_8 1_555 1_555
F6_5 Sb1_8 1_555 1_555
Sb1_9 F1_6 1_555 1_555
F2_6 Sb1_9 1_555 1_555
F3_9 Sb1_9 1_555 1_555
F4_9 Sb1_9 1_555 1_555
F5_6 Sb1_9 1_555 1_555
F6_6 Sb1_9 1_555 1_555
Sb1_10 F1_7 1_555 1_555
F2_7 Sb1_10 1_555 1_555
F4_10 Sb1_10 1_555 1_555
F5_7 Sb1_10 1_555 1_555
F6_7 Sb1_10 1_555 1_555
Sb1_11 F1_8 1_555 1_555
F4_11 Sb1_11 1_555 1_555
F6_8 Sb1_11 1_555 1_555
F2_8 Sb1_12 1_555 1_555
F4_12 Sb1_12 1_555 1_555
F5_8 Sb1_12 1_555 1_555
N7 C61 1_555 1_555
C61 C62 1_555 1_555
C62 C63 1_555 1_555
C63 H55 1_555 1_555
C64 C63 1_555 1_555
H56 C64 1_555 1_555
C65 C64 1_555 1_555
C66 C65 1_555 1_555
H57 C66 1_555 1_555
C67 C62 1_555 1_555
H58 C67 1_555 1_555
C68 C65 1_555 1_555
H59 C69 1_555 1_555
Ag3 N7 1_555 1_555
C66 C67 1_555 1_555
C68 C69 1_555 1_555
N3 C21 1_555 1_555
N4 C28 1_555 1_555
C21 C22 1_555 1_555
C22 C23 1_555 1_555
C23 H19 1_555 1_555
C24 C23 1_555 1_555
H20 C24 1_555 1_555
C25 C24 1_555 1_555
C26 C25 1_555 1_555
H21 C26 1_555 1_555
C27 C22 1_555 1_555
H22 C27 1_555 1_555
C28 C25 1_555 1_555
H23 C29 1_555 1_555
C31 N4 1_555 1_555
C32 C31 1_555 1_555
H24 C32 1_555 1_555
C33 C32 1_555 1_555
H25 C33 1_555 1_555
C34 C33 1_555 1_555
C35 C34 1_555 1_555
H26 C35 1_555 1_555
C36 C31 1_555 1_555
C37 C34 1_555 1_555
C38 C37 1_555 1_555
H28 C38 1_555 1_555
H29 C38 1_555 1_555
H30 C38 1_555 1_555
C39 C37 1_555 1_555
H31 C39 1_555 1_555
H32 C39 1_555 1_555
H33 C39 1_555 1_555
C40 C37 1_555 1_555
H34 C40 1_555 1_555
H35 C40 1_555 1_555
H36 C40 1_555 1_555
Ag3 N3 1_555 1_555
N4 C30 1_555 1_555
C26 C27 1_555 1_555
C28 C29 1_555 1_555
C35 C36 1_555 1_555
N3_2 C21_2 1_555 1_555
N4_2 C28_2 1_555 1_555
C21_2 C22_2 1_555 1_555
C22_2 C23_2 1_555 1_555
C23_2 H19_2 1_555 1_555
C24_2 C23_2 1_555 1_555
H20_2 C24_2 1_555 1_555
C25_2 C24_2 1_555 1_555
C26_2 C25_2 1_555 1_555
H21_2 C26_2 1_555 1_555
C27_2 C22_2 1_555 1_555
H22_2 C27_2 1_555 1_555
C28_2 C25_2 1_555 1_555
C31_2 N4_2 1_555 1_555
C32_2 C31_2 1_555 1_555
H24_2 C32_2 1_555 1_555
C33_2 C32_2 1_555 1_555
H25_2 C33_2 1_555 1_555
C34_2 C33_2 1_555 1_555
C35_2 C34_2 1_555 1_555
H26_2 C35_2 1_555 1_555
C36_2 C31_2 1_555 1_555
C37_2 C34_2 1_555 1_555
C38_2 C37_2 1_555 1_555
H28_2 C38_2 1_555 1_555
H29_2 C38_2 1_555 1_555
H30_2 C38_2 1_555 1_555
C39_2 C37_2 1_555 1_555
H31_2 C39_2 1_555 1_555
H32_2 C39_2 1_555 1_555
H33_2 C39_2 1_555 1_555
C40_2 C37_2 1_555 1_555
H34_2 C40_2 1_555 1_555
H35_2 C40_2 1_555 1_555
H36_2 C40_2 1_555 1_555
Ag3 N3_2 1_555 1_555
N4_2 C30_2 1_555 1_555
C26_2 C27_2 1_555 1_555
C28_2 C29_2 1_555 1_555
C35_2 C36_2 1_555 1_555
N7_2 C61_2 1_555 1_555
C61_2 C62_2 1_555 1_555
C62_2 C63_2 1_555 1_555
C63_2 H55_2 1_555 1_555
C64_2 C63_2 1_555 1_555
H56_2 C64_2 1_555 1_555
C65_2 C64_2 1_555 1_555
C66_2 C65_2 1_555 1_555
H57_2 C66_2 1_555 1_555
C67_2 C62_2 1_555 1_555
H58_2 C67_2 1_555 1_555
C68_2 C65_2 1_555 1_555
Ag3 N7_2 1_555 1_555
C66_2 C67_2 1_555 1_555
C68_2 C69_2 1_555 1_555
C71 N8 1_555 1_555
C72 C71 1_555 1_555
H60 C72 1_555 1_555
C73 C72 1_555 1_555
H61 C73 1_555 1_555
C74 C73 1_555 1_555
C75 C74 1_555 1_555
H62 C75 1_555 1_555
C76 C71 1_555 1_555
C77 C74 1_555 1_555
C78 C77 1_555 1_555
H64 C78 1_555 1_555
H65 C78 1_555 1_555
H66 C78 1_555 1_555
C79 C77 1_555 1_555
H67 C79 1_555 1_555
H68 C79 1_555 1_555
H69 C79 1_555 1_555
C80 C77 1_555 1_555
H70 C80 1_555 1_555
H71 C80 1_555 1_555
H72 C80 1_555 1_555
N8 C70 1_555 1_555
C75 C76 1_555 1_555
C50 N6 1_555 1_555
C51 N6 1_555 1_555
C52 C51 1_555 1_555
H42 C52 1_555 1_555
C53 C52 1_555 1_555
H43 C53 1_555 1_555
C54 C53 1_555 1_555
C55 C54 1_555 1_555
H44 C55 1_555 1_555
C56 C51 1_555 1_555
C57 C54 1_555 1_555
C58 C57 1_555 1_555
H46 C58 1_555 1_555
H47 C58 1_555 1_555
H48 C58 1_555 1_555
C59 C57 1_555 1_555
H49 C59 1_555 1_555
H50 C59 1_555 1_555
H51 C59 1_555 1_555
C60 C57 1_555 1_555
H52 C60 1_555 1_555
H53 C60 1_555 1_555
H54 C60 1_555 1_555
C55 C56 1_555 1_555
Ag1 N1 1_555 1_555
N1 C1 1_555 1_555
N2 C8 1_555 1_555
C1 C2 1_555 1_555
C2 C3 1_555 1_555
C3 H1 1_555 1_555
C4 C3 1_555 1_555
H2 C4 1_555 1_555
C5 C4 1_555 1_555
C6 C5 1_555 1_555
H3 C6 1_555 1_555
C7 C2 1_555 1_555
H4 C7 1_555 1_555
C8 C5 1_555 1_555
C9 C8 1_555 1_555
H5 C9 1_555 1_555
C10 N2 1_555 1_555
C11 N2 1_555 1_555
C12 C11 1_555 1_555
H6 C12 1_555 1_555
C13 C12 1_555 1_555
H7 C13 1_555 1_555
C14 C13 1_555 1_555
C15 C14 1_555 1_555
H8 C15 1_555 1_555
C16 C11 1_555 1_555
C17 C14 1_555 1_555
C18 C17 1_555 1_555
H10 C18 1_555 1_555
H11 C18 1_555 1_555
H12 C18 1_555 1_555
C19 C17 1_555 1_555
H13 C19 1_555 1_555
H14 C19 1_555 1_555
H15 C19 1_555 1_555
C20 C17 1_555 1_555
H16 C20 1_555 1_555
H17 C20 1_555 1_555
H18 C20 1_555 1_555
N5 Ag1 1_555 1_555
C41 N5 1_555 1_555
C42 C41 1_555 1_555
C43 C42 1_555 1_555
H37 C43 1_555 1_555
C44 C43 1_555 1_555
H38 C44 1_555 1_555
C45 C44 1_555 1_555
C46 C45 1_555 1_555
H39 C46 1_555 1_555
C47 C42 1_555 1_555
H40 C47 1_555 1_555
C48 C45 1_555 1_555
C49 C48 1_555 1_555
H41 C49 1_555 1_555
N9 Ag1 1_555 1_555
N10 Ag1 1_555 1_555
C6 C7 1_555 1_555
C15 C16 1_555 1_555
C46 C47 1_555 1_555
N9 C1_2 1_555 1_555
N2_2 C8_2 1_555 1_555
C1_2 C2_2 1_555 1_555
C2_2 C3_2 1_555 1_555
C3_2 H1_2 1_555 1_555
C4_2 C3_2 1_555 1_555
H2_2 C4_2 1_555 1_555
C5_2 C4_2 1_555 1_555
C6_2 C5_2 1_555 1_555
H3_2 C6_2 1_555 1_555
C7_2 C2_2 1_555 1_555
H4_2 C7_2 1_555 1_555
C8_2 C5_2 1_555 1_555
C9_2 C8_2 1_555 1_555
C10_2 N2_2 1_555 1_555
C11_2 N2_2 1_555 1_555
C12_2 C11_2 1_555 1_555
H6_2 C12_2 1_555 1_555
C13_2 C12_2 1_555 1_555
H7_2 C13_2 1_555 1_555
C14_2 C13_2 1_555 1_555
C15_2 C14_2 1_555 1_555
H8_2 C15_2 1_555 1_555
C16_2 C11_2 1_555 1_555
C17_2 C14_2 1_555 1_555
C18_2 C17_2 1_555 1_555
H10_2 C18_2 1_555 1_555
H11_2 C18_2 1_555 1_555
H12_2 C18_2 1_555 1_555
C19_2 C17_2 1_555 1_555
H13_2 C19_2 1_555 1_555
H14_2 C19_2 1_555 1_555
H15_2 C19_2 1_555 1_555
C20_2 C17_2 1_555 1_555
H16_2 C20_2 1_555 1_555
H17_2 C20_2 1_555 1_555
H18_2 C20_2 1_555 1_555
C41_2 N10 1_555 1_555
C42_2 C41_2 1_555 1_555
C43_2 C42_2 1_555 1_555
H37_2 C43_2 1_555 1_555
C44_2 C43_2 1_555 1_555
H38_2 C44_2 1_555 1_555
C45_2 C44_2 1_555 1_555
C46_2 C45_2 1_555 1_555
H39_2 C46_2 1_555 1_555
C47_2 C42_2 1_555 1_555
H40_2 C47_2 1_555 1_555
C48_2 C45_2 1_555 1_555
C49_2 C48_2 1_555 1_555
C6_2 C7_2 1_555 1_555
C15_2 C16_2 1_555 1_555
C46_2 C47_2 1_555 1_555
C50_2 N6_2 1_555 1_555
C51_2 N6_2 1_555 1_555
C52_2 C51_2 1_555 1_555
H42_2 C52_2 1_555 1_555
C53_2 C52_2 1_555 1_555
H43_2 C53_2 1_555 1_555
C54_2 C53_2 1_555 1_555
C55_2 C54_2 1_555 1_555
H44_2 C55_2 1_555 1_555
C56_2 C51_2 1_555 1_555
H45_2 C56_2 1_555 1_555
C57_2 C54_2 1_555 1_555
C58_2 C57_2 1_555 1_555
H46_2 C58_2 1_555 1_555
H47_2 C58_2 1_555 1_555
H48_2 C58_2 1_555 1_555
C59_2 C57_2 1_555 1_555
H49_2 C59_2 1_555 1_555
H50_2 C59_2 1_555 1_555
H51_2 C59_2 1_555 1_555
C60_2 C57_2 1_555 1_555
H52_2 C60_2 1_555 1_555
H53_2 C60_2 1_555 1_555
H54_2 C60_2 1_555 1_555
N7_3 C61_3 1_555 1_555
C61_3 C62_3 1_555 1_555
C62_3 C63_3 1_555 1_555
C63_3 H55_3 1_555 1_555
C64_3 C63_3 1_555 1_555
H56_3 C64_3 1_555 1_555
C65_3 C64_3 1_555 1_555
C66_3 C65_3 1_555 1_555
H57_3 C66_3 1_555 1_555
C67_3 C62_3 1_555 1_555
H58_3 C67_3 1_555 1_555
C68_3 C65_3 1_555 1_555
C69_3 C50_2 1_555 1_555
H59_2 C69_3 1_555 1_555
Ag2 N7_3 1_555 1_555
C55_2 C56_2 1_555 1_555
C66_3 C67_3 1_555 1_555
C68_3 C69_3 1_555 1_555
N3_3 C21_3 1_555 1_555
N4_3 C28_3 1_555 1_555
C21_3 C22_3 1_555 1_555
C22_3 C23_3 1_555 1_555
C23_3 H19_3 1_555 1_555
C24_3 C23_3 1_555 1_555
H20_3 C24_3 1_555 1_555
C25_3 C24_3 1_555 1_555
C26_3 C25_3 1_555 1_555
H21_3 C26_3 1_555 1_555
C27_3 C22_3 1_555 1_555
H22_3 C27_3 1_555 1_555
C28_3 C25_3 1_555 1_555
C31_3 N4_3 1_555 1_555
C32_3 C31_3 1_555 1_555
H24_3 C32_3 1_555 1_555
C33_3 C32_3 1_555 1_555
H25_3 C33_3 1_555 1_555
C34_3 C33_3 1_555 1_555
C35_3 C34_3 1_555 1_555
H26_3 C35_3 1_555 1_555
C36_3 C31_3 1_555 1_555
H27_2 C36_3 1_555 1_555
C37_3 C34_3 1_555 1_555
C38_3 C37_3 1_555 1_555
H28_3 C38_3 1_555 1_555
H29_3 C38_3 1_555 1_555
H30_3 C38_3 1_555 1_555
C39_3 C37_3 1_555 1_555
H31_3 C39_3 1_555 1_555
H32_3 C39_3 1_555 1_555
H33_3 C39_3 1_555 1_555
C40_3 C37_3 1_555 1_555
H34_3 C40_3 1_555 1_555
H35_3 C40_3 1_555 1_555
H36_3 C40_3 1_555 1_555
Ag2 N3_3 1_555 1_555
N4_3 C30_3 1_555 1_555
C26_3 C27_3 1_555 1_555
C28_3 C29_3 1_555 1_555
C35_3 C36_3 1_555 1_555
Ag1_2 N1_2 1_555 1_555
N1_2 C1_3 1_555 1_555
N2_3 C8_3 1_555 1_555
C1_3 C2_3 1_555 1_555
C2_3 C3_3 1_555 1_555
C3_3 H1_3 1_555 1_555
C4_3 C3_3 1_555 1_555
H2_3 C4_3 1_555 1_555
C5_3 C4_3 1_555 1_555
C6_3 C5_3 1_555 1_555
H3_3 C6_3 1_555 1_555
C7_3 C2_3 1_555 1_555
H4_3 C7_3 1_555 1_555
C8_3 C5_3 1_555 1_555
C9_3 C8_3 1_555 1_555
H5_3 C9_3 1_555 1_555
C10_3 N2_3 1_555 1_555
C11_3 N2_3 1_555 1_555
C12_3 C11_3 1_555 1_555
H6_3 C12_3 1_555 1_555
C13_3 C12_3 1_555 1_555
H7_3 C13_3 1_555 1_555
C14_3 C13_3 1_555 1_555
C15_3 C14_3 1_555 1_555
H8_3 C15_3 1_555 1_555
C16_3 C11_3 1_555 1_555
H9_2 C16_3 1_555 1_555
C17_3 C14_3 1_555 1_555
C18_3 C17_3 1_555 1_555
H10_3 C18_3 1_555 1_555
H11_3 C18_3 1_555 1_555
H12_3 C18_3 1_555 1_555
C19_3 C17_3 1_555 1_555
H13_3 C19_3 1_555 1_555
H14_3 C19_3 1_555 1_555
H15_3 C19_3 1_555 1_555
C20_3 C17_3 1_555 1_555
H16_3 C20_3 1_555 1_555
H17_3 C20_3 1_555 1_555
H18_3 C20_3 1_555 1_555
N3_4 C21_4 1_555 1_555
N4_4 C28_4 1_555 1_555
C21_4 C22_4 1_555 1_555
C22_4 C23_4 1_555 1_555
C23_4 H19_4 1_555 1_555
C24_4 C23_4 1_555 1_555
H20_4 C24_4 1_555 1_555
C25_4 C24_4 1_555 1_555
C26_4 C25_4 1_555 1_555
H21_4 C26_4 1_555 1_555
C27_4 C22_4 1_555 1_555
H22_4 C27_4 1_555 1_555
C28_4 C25_4 1_555 1_555
C29_4 C10_3 1_555 1_555
H23_2 C29_4 1_555 1_555
C30_4 C9_3 1_555 1_555
C31_4 N4_4 1_555 1_555
C32_4 C31_4 1_555 1_555
H24_4 C32_4 1_555 1_555
C33_4 C32_4 1_555 1_555
H25_4 C33_4 1_555 1_555
C34_4 C33_4 1_555 1_555
C35_4 C34_4 1_555 1_555
H26_4 C35_4 1_555 1_555
C36_4 C31_4 1_555 1_555
H27_3 C36_4 1_555 1_555
C37_4 C34_4 1_555 1_555
C38_4 C37_4 1_555 1_555
H28_4 C38_4 1_555 1_555
H29_4 C38_4 1_555 1_555
H30_4 C38_4 1_555 1_555
C39_4 C37_4 1_555 1_555
H31_4 C39_4 1_555 1_555
H32_4 C39_4 1_555 1_555
H33_4 C39_4 1_555 1_555
C40_4 C37_4 1_555 1_555
H34_4 C40_4 1_555 1_555
H35_4 C40_4 1_555 1_555
H36_4 C40_4 1_555 1_555
Ag2_2 N3_4 1_555 1_555
N10_2 Ag1_2 1_555 1_555
C6_3 C7_3 1_555 1_555
C10_3 C30_4 1_555 1_555
C15_3 C16_3 1_555 1_555
N4_4 C30_4 1_555 1_555
C26_4 C27_4 1_555 1_555
C28_4 C29_4 1_555 1_555
C35_4 C36_4 1_555 1_555
C41_3 N10_2 1_555 1_555
C42_3 C41_3 1_555 1_555
C43_3 C42_3 1_555 1_555
H37_3 C43_3 1_555 1_555
C44_3 C43_3 1_555 1_555
H38_3 C44_3 1_555 1_555
C45_3 C44_3 1_555 1_555
C46_3 C45_3 1_555 1_555
H39_3 C46_3 1_555 1_555
C47_3 C42_3 1_555 1_555
H40_3 C47_3 1_555 1_555
C48_3 C45_3 1_555 1_555
C49_3 C48_3 1_555 1_555
C46_3 C47_3 1_555 1_555
N7_4 C61_4 1_555 1_555
C61_4 C62_4 1_555 1_555
C62_4 C63_4 1_555 1_555
C63_4 H55_4 1_555 1_555
C64_4 C63_4 1_555 1_555
H56_4 C64_4 1_555 1_555
C65_4 C64_4 1_555 1_555
C66_4 C65_4 1_555 1_555
H57_4 C66_4 1_555 1_555
C67_4 C62_4 1_555 1_555
H58_4 C67_4 1_555 1_555
C68_4 C65_4 1_555 1_555
Ag2_2 N7_4 1_555 1_555
C66_4 C67_4 1_555 1_555
C68_4 C69_4 1_555 1_555
N5_2 Ag1_3 1_555 1_555
C41_4 N5_2 1_555 1_555
C42_4 C41_4 1_555 1_555
C43_4 C42_4 1_555 1_555
H37_4 C43_4 1_555 1_555
C44_4 C43_4 1_555 1_555
H38_4 C44_4 1_555 1_555
C45_4 C44_4 1_555 1_555
C46_4 C45_4 1_555 1_555
H39_4 C46_4 1_555 1_555
C47_4 C42_4 1_555 1_555
H40_4 C47_4 1_555 1_555
C48_4 C45_4 1_555 1_555
C49_4 C48_4 1_555 1_555
H41_2 C49_4 1_555 1_555
C70_2 C49_4 1_555 1_555
C71_2 N8_2 1_555 1_555
C72_2 C71_2 1_555 1_555
H60_2 C72_2 1_555 1_555
C73_2 C72_2 1_555 1_555
H61_2 C73_2 1_555 1_555
C74_2 C73_2 1_555 1_555
C75_2 C74_2 1_555 1_555
H62_2 C75_2 1_555 1_555
C76_2 C71_2 1_555 1_555
H63_2 C76_2 1_555 1_555
C77_2 C74_2 1_555 1_555
C78_2 C77_2 1_555 1_555
H64_2 C78_2 1_555 1_555
H65_2 C78_2 1_555 1_555
H66_2 C78_2 1_555 1_555
C79_2 C77_2 1_555 1_555
H67_2 C79_2 1_555 1_555
H68_2 C79_2 1_555 1_555
H69_2 C79_2 1_555 1_555
C80_2 C77_2 1_555 1_555
H70_2 C80_2 1_555 1_555
H71_2 C80_2 1_555 1_555
H72_2 C80_2 1_555 1_555
N9_2 Ag1_3 1_555 1_555
C46_4 C47_4 1_555 1_555
N8_2 C70_2 1_555 1_555
C75_2 C76_2 1_555 1_555
N9_2 C1_4 1_555 1_555
N2_4 C8_4 1_555 1_555
C1_4 C2_4 1_555 1_555
C2_4 C3_4 1_555 1_555
C3_4 H1_4 1_555 1_555
C4_4 C3_4 1_555 1_555
H2_4 C4_4 1_555 1_555
C5_4 C4_4 1_555 1_555
C6_4 C5_4 1_555 1_555
H3_4 C6_4 1_555 1_555
C7_4 C2_4 1_555 1_555
H4_4 C7_4 1_555 1_555
C8_4 C5_4 1_555 1_555
C9_4 C8_4 1_555 1_555
C10_4 N2_4 1_555 1_555
C11_4 N2_4 1_555 1_555
C12_4 C11_4 1_555 1_555
H6_4 C12_4 1_555 1_555
C13_4 C12_4 1_555 1_555
H7_4 C13_4 1_555 1_555
C14_4 C13_4 1_555 1_555
C15_4 C14_4 1_555 1_555
H8_4 C15_4 1_555 1_555
C16_4 C11_4 1_555 1_555
H9_3 C16_4 1_555 1_555
C17_4 C14_4 1_555 1_555
C18_4 C17_4 1_555 1_555
H10_4 C18_4 1_555 1_555
H11_4 C18_4 1_555 1_555
H12_4 C18_4 1_555 1_555
C19_4 C17_4 1_555 1_555
H13_4 C19_4 1_555 1_555
H14_4 C19_4 1_555 1_555
H15_4 C19_4 1_555 1_555
C20_4 C17_4 1_555 1_555
H16_4 C20_4 1_555 1_555
H17_4 C20_4 1_555 1_555
H18_4 C20_4 1_555 1_555
C6_4 C7_4 1_555 1_555
C15_4 C16_4 1_555 1_555
C50_3 N6_3 1_555 1_555
C51_3 N6_3 1_555 1_555
C52_3 C51_3 1_555 1_555
H42_3 C52_3 1_555 1_555
C53_3 C52_3 1_555 1_555
H43_3 C53_3 1_555 1_555
C54_3 C53_3 1_555 1_555
C55_3 C54_3 1_555 1_555
H44_3 C55_3 1_555 1_555
C56_3 C51_3 1_555 1_555
H45_3 C56_3 1_555 1_555
C57_3 C54_3 1_555 1_555
C58_3 C57_3 1_555 1_555
H46_3 C58_3 1_555 1_555
H47_3 C58_3 1_555 1_555
H48_3 C58_3 1_555 1_555
C59_3 C57_3 1_555 1_555
H49_3 C59_3 1_555 1_555
H50_3 C59_3 1_555 1_555
H51_3 C59_3 1_555 1_555
C60_3 C57_3 1_555 1_555
H52_3 C60_3 1_555 1_555
H53_3 C60_3 1_555 1_555
H54_3 C60_3 1_555 1_555
C55_3 C56_3 1_555 1_555
C71_3 N8_3 1_555 1_555
C72_3 C71_3 1_555 1_555
H60_3 C72_3 1_555 1_555
C73_3 C72_3 1_555 1_555
H61_3 C73_3 1_555 1_555
C74_3 C73_3 1_555 1_555
C75_3 C74_3 1_555 1_555
H62_3 C75_3 1_555 1_555
C76_3 C71_3 1_555 1_555
H63_3 C76_3 1_555 1_555
C77_3 C74_3 1_555 1_555
C78_3 C77_3 1_555 1_555
H64_3 C78_3 1_555 1_555
H65_3 C78_3 1_555 1_555
H66_3 C78_3 1_555 1_555
C79_3 C77_3 1_555 1_555
H67_3 C79_3 1_555 1_555
H68_3 C79_3 1_555 1_555
H69_3 C79_3 1_555 1_555
C80_3 C77_3 1_555 1_555
H70_3 C80_3 1_555 1_555
H71_3 C80_3 1_555 1_555
H72_3 C80_3 1_555 1_555
N8_3 C70_3 1_555 1_555
C75_3 C76_3 1_555 1_555
C50_4 N6_4 1_555 1_555
C51_4 N6_4 1_555 1_555
C52_4 C51_4 1_555 1_555
H42_4 C52_4 1_555 1_555
C53_4 C52_4 1_555 1_555
H43_4 C53_4 1_555 1_555
C54_4 C53_4 1_555 1_555
C55_4 C54_4 1_555 1_555
H44_4 C55_4 1_555 1_555
C56_4 C51_4 1_555 1_555
C57_4 C54_4 1_555 1_555
C58_4 C57_4 1_555 1_555
H46_4 C58_4 1_555 1_555
H47_4 C58_4 1_555 1_555
H48_4 C58_4 1_555 1_555
C59_4 C57_4 1_555 1_555
H49_4 C59_4 1_555 1_555
H50_4 C59_4 1_555 1_555
H51_4 C59_4 1_555 1_555
C60_4 C57_4 1_555 1_555
H52_4 C60_4 1_555 1_555
H53_4 C60_4 1_555 1_555
H54_4 C60_4 1_555 1_555
C55_4 C56_4 1_555 1_555
C71_4 N8_4 1_555 1_555
C72_4 C71_4 1_555 1_555
H60_4 C72_4 1_555 1_555
C73_4 C72_4 1_555 1_555
H61_4 C73_4 1_555 1_555
C74_4 C73_4 1_555 1_555
C75_4 C74_4 1_555 1_555
H62_4 C75_4 1_555 1_555
C76_4 C71_4 1_555 1_555
C77_4 C74_4 1_555 1_555
C78_4 C77_4 1_555 1_555
H64_4 C78_4 1_555 1_555
H65_4 C78_4 1_555 1_555
H66_4 C78_4 1_555 1_555
C79_4 C77_4 1_555 1_555
H67_4 C79_4 1_555 1_555
H68_4 C79_4 1_555 1_555
H69_4 C79_4 1_555 1_555
C80_4 C77_4 1_555 1_555
H70_4 C80_4 1_555 1_555
H71_4 C80_4 1_555 1_555
H72_4 C80_4 1_555 1_555
N8_4 C70_4 1_555 1_555
C75_4 C76_4 1_555 1_555

#END
