
###############################################################################
#
# This file contains modified crystal structure data generated from the
# MOF subset of the Cambridge Structural Database (CSD) v543 
# hosted by the Cambridge Crystallographic Data Centre (CCDC).
#
# This work is licensed under the Creative Commons
# Attribution-NonCommercial-ShareAlike 4.0 International License.
# To view a copy of this license, visit
# http://creativecommons.org/licenses/by-nc-sa/4.0/
# or send a letter to
# Creative Commons, PO Box 1866, Mountain View, CA 94042, USA.
#
# CIF created using the CSD Python API on 29 September 2022
# The structure has been converted into the P1 space group
# The structure has a 3D framework
# The original CSD entry BIKMUG is in the rhombohedral crystal system
# The framework has been calculated to contain at least 10.0% void space
# The void calculation uses a probe of radius 1.32A, grid spacing 0.4
#
###############################################################################

data_BIKMUG
_chemical_formula_moiety         '(C360 H216 O88 Zr18)n'
_symmetry_cell_setting           triclinic
_symmetry_space_group_name_H-M   'P 1'
_symmetry_Int_Tables_number      1
_space_group_name_Hall           'P 1'
loop_
_symmetry_equiv_pos_site_id
_symmetry_equiv_pos_as_xyz
1 x,y,z
_cell_length_a                   30.2962(6)
_cell_length_b                   30.2962(6)
_cell_length_c                   15.0605(5)
_cell_angle_alpha                90
_cell_angle_beta                 90
_cell_angle_gamma                120
_cell_volume                     11971.4
loop_
_atom_site_label
_atom_site_type_symbol
_atom_site_fract_x
_atom_site_fract_y
_atom_site_fract_z
Zr1 Zr 0.07276(2) 0.05828(2) 0.09496(2)
O1 O 0.05857(4) 0.09686(4) 0.20869(9)
O3 O 0.21651(4) 0.52614(4) 0.60418(8)
O4 O 0.25446(4) 0.51649(4) 0.72709(8)
O5 O 0.000000 -0.000000 0.14121(19)
C1 C 0.01817(6) 0.09382(6) 0.23929(14)
C2 C 0.02397(7) 0.12536(7) 0.32008(16)
C3 C 0.06877(7) 0.17036(7) 0.33677(14)
H1 H 0.095790 0.182845 0.294836
C4 C 0.07441(7) 0.19711(7) 0.41360(14)
H2 H 0.104853 0.228664 0.422870
C5 C 0.03656(8) 0.17900(8) 0.47803(17)
C8 C 0.04421(8) 0.20497(7) 0.56471(16)
C9 C 0.07393(8) 0.25784(7) 0.57155(15)
H5 H 0.087967 0.277542 0.519305
C10 C 0.08347(9) 0.28242(7) 0.65359(15)
C11 C 0.06287(10) 0.25291(8) 0.73035(16)
H6 H 0.068988 0.269027 0.786702
C12 C 0.03366(9) 0.20041(8) 0.72425(17)
H7 H 0.020142 0.180605 0.776556
C13 C 0.02405(9) 0.17664(7) 0.64270(17)
H8 H 0.003493 0.140598 0.639334
C14 C 0.11752(9) 0.33879(7) 0.65832(14)
C15 C 0.11448(9) 0.37042(8) 0.59637(15)
H9 H 0.089226 0.356358 0.551252
C16 C 0.14785(8) 0.42274(7) 0.59877(15)
H10 H 0.145199 0.444111 0.555474
C17 C 0.18466(7) 0.44368(6) 0.66356(13)
C18 C 0.18779(12) 0.41254(9) 0.72656(17)
H11 H 0.212900 0.426642 0.771901
C19 C 0.15413(13) 0.36045(8) 0.72364(17)
H12 H 0.156358 0.339191 0.767673
C20 C 0.22137(6) 0.49982(6) 0.66539(11)
O11 O 0.01439(5) 0.07210(9) 0.04717(11)
O13 O 0.09248(6) 0.02691(4) 0.21107(9)
C46 C 0.14378(16) 0.00859(11) 0.4579(2)
H27 H 0.158444 0.035861 0.499348
C47 C 0.12436(16) 0.01513(11) 0.3792(2)
H28 H 0.127029 0.047063 0.366238
Zr6 Zr 0.31885(3) 0.59391(2) 0.76163(2)
Zr10 Zr 0.26057(2) 0.60839(2) 0.57171(2)
O17 O 0.11682(4) 0.14053(4) 0.06249(8)
O21 O 0.15018(4) 0.07130(6) 0.06042(8)
O5_2 O 0.000000 1.000000 0.14121(19)
O6 O 0.05771(7) 0.98561(5) 0.04717(11)
O12 O 0.03829(6) 0.94143(4) 0.20869(9)
O14 O 0.30963(6) 0.78349(4) 0.60418(8)
O15 O 0.26203(6) 0.74554(4) 0.72709(8)
C41 C 0.07565(8) 0.98183(6) 0.23929(14)
C42 C 0.10139(10) 0.97603(7) 0.32008(16)
C43 C 0.10159(10) 0.93123(7) 0.33677(14)
H25 H 0.087055 0.904210 0.294836
C44 C 0.12270(10) 0.92559(7) 0.41360(14)
H26 H 0.123811 0.895147 0.422870
C45 C 0.14244(11) 0.96344(8) 0.47803(17)
C48 C 0.16076(11) 0.95579(8) 0.56471(16)
C49 C 0.18391(11) 0.92607(8) 0.57155(15)
H29 H 0.189575 0.912033 0.519305
C50 C 0.19895(11) 0.91653(9) 0.65359(15)
C51 C 0.19004(13) 0.93713(10) 0.73035(16)
H30 H 0.200039 0.931012 0.786702
C52 C 0.16675(12) 0.96634(9) 0.72425(17)
H31 H 0.160463 0.979858 0.776556
C53 C 0.15259(11) 0.97595(9) 0.64270(17)
H32 H 0.137105 0.996507 0.639334
C54 C 0.22127(11) 0.88248(9) 0.65832(14)
C55 C 0.25594(12) 0.88552(9) 0.59637(15)
H33 H 0.267132 0.910774 0.551252
C56 C 0.27489(11) 0.85215(8) 0.59877(15)
H34 H 0.298912 0.854801 0.555474
C57 C 0.25902(9) 0.81534(7) 0.66356(13)
C58 C 0.22475(15) 0.81221(12) 0.72656(17)
H35 H 0.213742 0.787100 0.771901
C59 C 0.20632(15) 0.84587(13) 0.72364(17)
H36 H 0.182833 0.843642 0.767673
C60 C 0.27845(8) 0.77863(6) 0.66539(11)
Zr5 Zr 0.27505(2) 0.68115(3) 0.76163(2)
Zr12 Zr 0.34781(3) 0.73943(2) 0.57171(2)
O19 O 0.02370(6) 0.88318(4) 0.06249(8)
O2 O 0.97309(4) 0.06557(4) 0.21107(9)
O5_3 O 1.000000 -0.000000 0.14121(19)
C6 C 0.99141(11) 0.13519(11) 0.4579(2)
H3 H 0.964139 0.122583 0.499348
C7 C 0.98487(11) 0.10923(11) 0.3792(2)
H4 H 0.952937 0.079966 0.366238
Zr2 Zr 0.94172(2) 0.01448(3) 0.09496(2)
O22 O 0.92870(6) 0.07887(4) 0.06042(8)
O5_4 O 1.000000 1.000000 0.14121(19)
O7 O 0.90314(4) 0.96171(6) 0.20869(9)
O8 O 0.93443(4) 0.90752(6) 0.21107(9)
O9 O 0.47386(4) 0.69037(6) 0.60418(8)
O10 O 0.48351(4) 0.73797(6) 0.72709(8)
C21 C 0.90618(6) 0.92435(8) 0.23929(14)
C22 C 0.87464(7) 0.89861(10) 0.32008(16)
C23 C 0.82964(7) 0.89841(10) 0.33677(14)
H13 H 0.817155 0.912945 0.294836
C24 C 0.80289(7) 0.87730(10) 0.41360(14)
H14 H 0.771336 0.876189 0.422870
C25 C 0.82100(8) 0.85756(11) 0.47803(17)
C26 C 0.86481(11) 0.85622(16) 0.4579(2)
H15 H 0.877417 0.841556 0.499348
C27 C 0.89077(11) 0.87564(16) 0.3792(2)
H16 H 0.920034 0.872971 0.366238
C28 C 0.79503(7) 0.83924(11) 0.56471(16)
C29 C 0.74216(7) 0.81609(11) 0.57155(15)
H17 H 0.722458 0.810425 0.519305
C30 C 0.71758(7) 0.80105(11) 0.65359(15)
C31 C 0.74709(8) 0.80996(13) 0.73035(16)
H18 H 0.730973 0.799961 0.786702
C32 C 0.79959(8) 0.83325(12) 0.72425(17)
H19 H 0.819395 0.839537 0.776556
C33 C 0.82336(7) 0.84741(11) 0.64270(17)
H20 H 0.859402 0.862895 0.639334
C34 C 0.66121(7) 0.77873(11) 0.65832(14)
C35 C 0.62958(8) 0.74406(12) 0.59637(15)
H21 H 0.643642 0.732868 0.551252
C36 C 0.57726(7) 0.72511(11) 0.59877(15)
H22 H 0.555889 0.701088 0.555474
C37 C 0.55632(6) 0.74098(9) 0.66356(13)
C38 C 0.58746(9) 0.77525(15) 0.72656(17)
H23 H 0.573358 0.786258 0.771901
C39 C 0.63955(8) 0.79368(15) 0.72364(17)
H24 H 0.660809 0.817167 0.767673
C40 C 0.50018(6) 0.72155(8) 0.66539(11)
Zr3 Zr 0.98552(3) 0.92724(2) 0.09496(2)
O16 O 0.92790(9) 0.94229(7) 0.04717(11)
Zr4 Zr 0.40609(2) 0.72495(2) 0.76163(2)
Zr11 Zr 0.39161(2) 0.65219(3) 0.57171(2)
O18 O 0.85947(4) 0.97630(6) 0.06249(8)
O20 O 0.92113(4) 0.84982(4) 0.06042(8)
C11_2 C 0.72954(10) 0.58624(8) 0.06368(16)
H6_2 H 0.735655 0.602360 0.120035
C12_2 C 0.70033(9) 0.53374(8) 0.05758(17)
H7_2 H 0.686809 0.513938 0.109889
C18_2 C 0.85446(12) 0.74587(9) 0.05989(17)
H11_2 H 0.879567 0.759975 0.105234
C19_2 C 0.82080(13) 0.69378(8) 0.05697(17)
H12_2 H 0.823025 0.672524 0.101006
C31_2 C 0.41376(8) 0.14329(13) 0.06368(16)
H18_2 H 0.397640 0.133294 0.120035
C32_2 C 0.46626(8) 0.16658(12) 0.05758(17)
H19_2 H 0.486062 0.172870 0.109889
C38_2 C 0.25413(9) 0.10858(15) 0.05989(17)
H23_2 H 0.240025 0.119591 0.105234
C39_2 C 0.30622(8) 0.12701(15) 0.05697(17)
H24_2 H 0.327476 0.150500 0.101006
C51_2 C 0.85671(13) 0.27046(10) 0.06368(16)
H30_2 H 0.866706 0.264345 0.120035
C52_2 C 0.83342(12) 0.29967(9) 0.05758(17)
H31_2 H 0.827130 0.313191 0.109889
C58_2 C 0.89142(15) 0.14554(12) 0.05989(17)
H35_2 H 0.880409 0.120433 0.105234
C59_2 C 0.87299(15) 0.17920(13) 0.05697(17)
H36_2 H 0.849500 0.176975 0.101006
O1_2 O 0.39190(4) 0.76353(4) 0.87536(9)
O2_2 O 0.30642(4) 0.73224(4) 0.87774(9)
O5_5 O 0.333333 0.666667 0.80788(19)
O6_2 O 0.39104(7) 0.65228(5) 0.71384(11)
C1_2 C 0.35150(6) 0.76049(6) 0.90596(14)
C2_2 C 0.35730(7) 0.79203(7) 0.98675(16)
H1_2 H 0.429123 0.849512 0.961503
O7_2 O 0.23647(4) 0.62838(6) 0.87536(9)
O8_2 O 0.26776(4) 0.57419(6) 0.87774(9)
O11_2 O 0.34772(5) 0.73877(9) 0.71384(11)
C21_2 C 0.23951(6) 0.59102(8) 0.90596(14)
C22_2 C 0.20797(7) 0.56528(10) 0.98675(16)
H13_2 H 0.150488 0.579612 0.961503
O12_2 O 0.37162(6) 0.60810(4) 0.87536(9)
O13_2 O 0.42581(6) 0.69358(4) 0.87774(9)
O16_2 O 0.26123(9) 0.60896(7) 0.71384(11)
C41_2 C 0.40898(8) 0.64850(6) 0.90596(14)
C42_2 C 0.43472(10) 0.64270(7) 0.98675(16)
H25_2 H 0.420388 0.570877 0.961503
O17_2 O 0.45016(4) 0.80719(4) 0.72915(8)
O18_2 O 0.19281(4) 0.64296(6) 0.72915(8)
O19_2 O 0.35704(6) 0.54984(4) 0.72915(8)
O23 O 0.27562(7) 0.68106(5) 0.61950(11)
O24 O 0.31894(5) 0.59457(9) 0.61950(11)
O25 O 0.40543(9) 0.72438(7) 0.61950(11)
O1_3 O 0.27476(4) 0.56981(4) 0.45798(9)
O2_3 O 0.36024(4) 0.60110(4) 0.45560(9)
O5_6 O 0.333333 0.666667 0.52546(19)
C1_3 C 0.31516(6) 0.57285(6) 0.42738(14)
C2_3 C 0.30936(7) 0.54131(7) 0.34659(16)
C3_2 C 0.26456(7) 0.49631(7) 0.32990(14)
H1_3 H 0.237543 0.483822 0.371831
C4_2 C 0.25892(7) 0.46956(7) 0.25307(14)
H2_2 H 0.228480 0.438003 0.243797
C5_2 C 0.29677(8) 0.48767(8) 0.18864(17)
C6_2 C 0.34192(11) 0.53148(11) 0.2088(2)
H3_2 H 0.369194 0.544084 0.167319
C7_2 C 0.34846(11) 0.55744(11) 0.2875(2)
H4_2 H 0.380396 0.586701 0.300429
C8_2 C 0.28912(8) 0.46170(7) 0.10196(16)
C9_2 C 0.25940(8) 0.40883(7) 0.09512(15)
H5_2 H 0.245366 0.389125 0.147362
C10_2 C 0.24986(9) 0.38425(7) 0.01308(15)
C13_2 C 0.30928(9) 0.49003(7) 0.02397(17)
H8_2 H 0.329840 0.526069 0.027333
C14_2 C 0.21581(9) 0.32788(7) 0.00835(14)
C15_2 C 0.21885(9) 0.29625(8) 0.07030(15)
H9_2 H 0.244107 0.310309 0.115415
C16_2 C 0.18548(8) 0.24393(7) 0.06790(15)
H10_2 H 0.188134 0.222556 0.111193
C17_2 C 0.14867(7) 0.22299(6) 0.00311(13)
C20_2 C 0.11196(6) 0.16685(6) 0.00128(11)
O7_3 O 0.43019(4) 0.70496(6) 0.45798(9)
O8_3 O 0.39890(4) 0.75915(6) 0.45560(9)
C21_3 C 0.42715(6) 0.74232(8) 0.42738(14)
C22_3 C 0.45869(7) 0.76806(10) 0.34659(16)
C23_2 C 0.50369(7) 0.76826(10) 0.32990(14)
H13_3 H 0.516178 0.753722 0.371831
C24_2 C 0.53044(7) 0.78937(10) 0.25307(14)
H14_2 H 0.561997 0.790478 0.243797
C25_2 C 0.51233(8) 0.80911(11) 0.18864(17)
C26_2 C 0.46852(11) 0.81045(16) 0.2088(2)
H15_2 H 0.455916 0.825111 0.167319
C27_2 C 0.44256(11) 0.79103(16) 0.2875(2)
H16_2 H 0.413299 0.793696 0.300429
C28_2 C 0.53830(7) 0.82743(11) 0.10196(16)
C29_2 C 0.59117(7) 0.85058(11) 0.09512(15)
H17_2 H 0.610875 0.856242 0.147362
C30_2 C 0.61575(7) 0.86562(11) 0.01308(15)
C33_2 C 0.50997(7) 0.81926(11) 0.02397(17)
H20_2 H 0.473931 0.803772 0.027333
C34_2 C 0.67212(7) 0.88794(11) 0.00835(14)
C35_2 C 0.70375(8) 0.92261(12) 0.07030(15)
H21_2 H 0.689691 0.933799 0.115415
C36_2 C 0.75607(7) 0.94156(11) 0.06790(15)
H22_2 H 0.777444 0.965579 0.111193
C37_2 C 0.77701(6) 0.92569(9) 0.00311(13)
C40_2 C 0.83315(6) 0.94512(8) 0.00128(11)
O12_3 O 0.29504(6) 0.72524(4) 0.45798(9)
O13_3 O 0.24085(6) 0.63976(4) 0.45560(9)
C41_3 C 0.25768(8) 0.68484(6) 0.42738(14)
C42_3 C 0.23194(10) 0.69064(7) 0.34659(16)
C43_2 C 0.23174(10) 0.73544(7) 0.32990(14)
H25_3 H 0.246278 0.762457 0.371831
C44_2 C 0.21063(10) 0.74108(7) 0.25307(14)
H26_2 H 0.209522 0.771520 0.243797
C45_2 C 0.19089(11) 0.70323(8) 0.18864(17)
C46_2 C 0.18955(16) 0.65808(11) 0.2088(2)
H27_2 H 0.174889 0.630806 0.167319
C47_2 C 0.20897(16) 0.65154(11) 0.2875(2)
H28_2 H 0.206304 0.619604 0.300429
C48_2 C 0.17257(11) 0.71088(8) 0.10196(16)
C49_2 C 0.14942(11) 0.74060(8) 0.09512(15)
H29_2 H 0.143758 0.754634 0.147362
C50_2 C 0.13438(11) 0.75014(9) 0.01308(15)
C53_2 C 0.18074(11) 0.69072(9) 0.02397(17)
H32_2 H 0.196228 0.670160 0.027333
C54_2 C 0.11206(11) 0.78419(9) 0.00835(14)
C55_2 C 0.07739(12) 0.78115(9) 0.07030(15)
H33_2 H 0.066201 0.755893 0.115415
C56_2 C 0.05844(11) 0.81452(8) 0.06790(15)
H34_2 H 0.034421 0.811866 0.111193
C57_2 C 0.07431(9) 0.85133(7) 0.00311(13)
C60_2 C 0.05488(8) 0.88804(6) 0.00128(11)
O20_2 O 0.41221(4) 0.81684(4) 0.60624(8)
O21_2 O 0.18316(4) 0.59536(6) 0.60624(8)
O22_2 O 0.40464(6) 0.58779(4) 0.60624(8)
C34_3 C 0.00546(7) 0.55460(11) 0.67501(14)
C35_3 C 0.03709(8) 0.58927(12) 0.73696(15)
H21_3 H 0.023025 0.600465 0.782081
C36_3 C 0.08941(7) 0.60822(11) 0.73456(15)
H22_3 H 0.110778 0.632245 0.777859
C37_3 C 0.11035(6) 0.59235(9) 0.66977(13)
C38_3 C 0.07921(9) 0.55808(15) 0.60677(17)
H23_3 H 0.093309 0.547075 0.561432
C39_3 C 0.02712(8) 0.53965(15) 0.60969(17)
H24_3 H 0.005858 0.516166 0.565660
C40_3 C 0.16649(6) 0.61178(8) 0.66794(11)
C3_3 C 0.59790(7) 0.16297(7) 0.99656(14)
C4_3 C 0.59226(7) 0.13622(7) 0.91973(14)
H2_3 H 0.561814 0.104669 0.910463
C5_3 C 0.63011(8) 0.15433(8) 0.85530(17)
C6_3 C 0.67526(11) 0.19814(11) 0.8754(2)
H3_3 H 0.702528 0.210750 0.833985
C7_3 C 0.68180(11) 0.22410(11) 0.9541(2)
H4_3 H 0.713730 0.253367 0.967095
C8_3 C 0.62246(8) 0.12836(7) 0.76862(16)
C9_3 C 0.59274(8) 0.07549(7) 0.76178(15)
H5_3 H 0.578700 0.055791 0.814028
C10_3 C 0.58320(9) 0.05091(7) 0.67974(15)
C11_3 C 0.60380(10) 0.08042(8) 0.60298(16)
H6_3 H 0.597679 0.064306 0.546631
C12_3 C 0.63301(9) 0.13292(8) 0.60908(17)
H7_3 H 0.646525 0.152728 0.556777
C13_3 C 0.64262(9) 0.15669(7) 0.69063(17)
H8_3 H 0.663174 0.192735 0.693999
C23_3 C 0.83703(7) 0.43492(10) 0.99656(14)
C24_3 C 0.86378(7) 0.45603(10) 0.91973(14)
H14_3 H 0.895331 0.457144 0.910463
C25_3 C 0.84567(8) 0.47577(11) 0.85530(17)
C26_3 C 0.80186(11) 0.47711(16) 0.8754(2)
H15_3 H 0.789250 0.491777 0.833985
C27_3 C 0.77590(11) 0.45769(16) 0.9541(2)
H16_3 H 0.746633 0.460362 0.967095
C28_3 C 0.87164(7) 0.49409(11) 0.76862(16)
C29_3 C 0.92451(7) 0.51724(11) 0.76178(15)
H17_3 H 0.944209 0.522908 0.814028
C30_3 C 0.94909(7) 0.53228(11) 0.67974(15)
C31_3 C 0.91958(8) 0.52337(13) 0.60298(16)
H18_3 H 0.935694 0.533372 0.546631
C32_3 C 0.86708(8) 0.50008(12) 0.60908(17)
H19_3 H 0.847272 0.493796 0.556777
C33_3 C 0.84331(7) 0.48592(11) 0.69063(17)
H20_3 H 0.807265 0.470438 0.693999
C43_3 C 0.56508(10) 0.40210(7) 0.99656(14)
C44_3 C 0.54397(10) 0.40774(7) 0.91973(14)
H26_3 H 0.542856 0.438186 0.910463
C45_3 C 0.52423(11) 0.36989(8) 0.85530(17)
C46_3 C 0.52289(16) 0.32474(11) 0.8754(2)
H27_3 H 0.508223 0.297472 0.833985
C47_3 C 0.54231(16) 0.31820(11) 0.9541(2)
H28_3 H 0.539638 0.286270 0.967095
C48_3 C 0.50591(11) 0.37754(8) 0.76862(16)
C49_3 C 0.48276(11) 0.40726(8) 0.76178(15)
H29_3 H 0.477092 0.421300 0.814028
C50_3 C 0.46772(11) 0.41680(9) 0.67974(15)
C51_3 C 0.47663(13) 0.39620(10) 0.60298(16)
H30_3 H 0.466628 0.402321 0.546631
C52_3 C 0.49992(12) 0.36699(9) 0.60908(17)
H31_3 H 0.506204 0.353475 0.556777
C53_3 C 0.51408(11) 0.35738(9) 0.69063(17)
H32_3 H 0.529562 0.336826 0.693999
C54_3 C 0.44540(11) 0.45085(9) 0.67501(14)
C55_3 C 0.41073(12) 0.44781(9) 0.73696(15)
H33_3 H 0.399535 0.422559 0.782081
C56_3 C 0.39178(11) 0.48118(8) 0.73456(15)
H34_3 H 0.367755 0.478532 0.777859
C57_3 C 0.40765(9) 0.51799(7) 0.66977(13)
C58_3 C 0.44192(15) 0.52112(12) 0.60677(17)
H35_3 H 0.452925 0.546233 0.561432
C59_3 C 0.46035(15) 0.48746(13) 0.60969(17)
H36_3 H 0.483834 0.489691 0.565660
C60_3 C 0.38822(8) 0.55470(6) 0.66794(11)
C14_3 C 0.54915(9) 0.99454(7) 0.67501(14)
C15_3 C 0.55219(9) 0.96291(8) 0.73696(15)
H9_3 H 0.577441 0.976975 0.782081
C16_3 C 0.51882(8) 0.91059(7) 0.73456(15)
H10_3 H 0.521468 0.889222 0.777859
C17_3 C 0.48201(7) 0.88965(6) 0.66977(13)
C18_3 C 0.47888(12) 0.92079(9) 0.60677(17)
H11_3 H 0.453767 0.906691 0.561432
C19_3 C 0.51254(13) 0.97288(8) 0.60969(17)
H12_3 H 0.510309 0.994142 0.565660
C20_3 C 0.44530(6) 0.83351(6) 0.66794(11)
Zr9 Zr 0.01448(3) 0.07276(2) 0.90504(2)
O25_2 O 0.07210(9) 0.05771(7) 0.95283(11)
Zr8 Zr 0.05828(2) 0.98552(3) 0.90504(2)
O23_2 O 0.94229(7) 0.01439(5) 0.95283(11)
Zr7 Zr 0.92724(2) 0.94172(2) 0.90504(2)
O24_2 O 0.98561(5) 0.92790(9) 0.95283(11)
Zr1_2 Zr 0.73943(2) 0.39161(2) 0.42829(2)
O1_4 O 0.72524(4) 0.43019(4) 0.54202(9)
O2_4 O 0.63976(4) 0.39890(4) 0.54440(9)
O3_2 O 0.88318(4) 0.85947(4) 0.93751(8)
O5_7 O 0.666667 0.333333 0.47454(19)
O6_3 O 0.72438(7) 0.31894(5) 0.38050(11)
C1_4 C 0.68484(6) 0.42715(6) 0.57262(14)
C2_4 C 0.69064(7) 0.45869(7) 0.65341(16)
C3_4 C 0.73544(7) 0.50369(7) 0.67010(14)
H1_4 H 0.762457 0.516178 0.628169
C4_4 C 0.74108(7) 0.53044(7) 0.74693(14)
H2_4 H 0.771520 0.561997 0.756203
C5_4 C 0.70323(8) 0.51233(8) 0.81136(17)
C6_4 C 0.65808(11) 0.46852(11) 0.7912(2)
H3_4 H 0.630806 0.455916 0.832681
C7_4 C 0.65154(11) 0.44256(11) 0.7125(2)
H4_4 H 0.619604 0.413299 0.699571
C8_4 C 0.71088(8) 0.53830(7) 0.89804(16)
C9_4 C 0.74060(8) 0.59117(7) 0.90488(15)
H5_4 H 0.754634 0.610875 0.852638
C10_4 C 0.75014(9) 0.61575(7) 0.98692(15)
C13_4 C 0.69072(9) 0.50997(7) 0.97603(17)
H8_4 H 0.670160 0.473931 0.972667
C14_4 C 0.78419(9) 0.67212(7) 0.99165(14)
C15_4 C 0.78115(9) 0.70375(8) 0.92970(15)
H9_4 H 0.755893 0.689691 0.884585
C16_4 C 0.81452(8) 0.75607(7) 0.93210(15)
H10_4 H 0.811866 0.777444 0.888807
C17_4 C 0.85133(7) 0.77701(6) 0.99689(13)
C20_4 C 0.88804(6) 0.83315(6) 0.99872(11)
Zr2_2 Zr 0.60839(2) 0.34781(3) 0.42829(2)
O7_4 O 0.56981(4) 0.29504(6) 0.54202(9)
O8_4 O 0.60110(4) 0.24085(6) 0.54440(9)
O9_2 O 0.14053(4) 0.02370(6) 0.93751(8)
O11_3 O 0.68106(5) 0.40543(9) 0.38050(11)
C21_4 C 0.57285(6) 0.25768(8) 0.57262(14)
C22_4 C 0.54131(7) 0.23194(10) 0.65341(16)
C23_4 C 0.49631(7) 0.23174(10) 0.67010(14)
H13_4 H 0.483822 0.246278 0.628169
C24_4 C 0.46956(7) 0.21063(10) 0.74693(14)
H14_4 H 0.438003 0.209522 0.756203
C25_4 C 0.48767(8) 0.19089(11) 0.81136(17)
C26_4 C 0.53148(11) 0.18955(16) 0.7912(2)
H15_4 H 0.544084 0.174889 0.832681
C27_4 C 0.55744(11) 0.20897(16) 0.7125(2)
H16_4 H 0.586701 0.206304 0.699571
C28_4 C 0.46170(7) 0.17257(11) 0.89804(16)
C29_4 C 0.40883(7) 0.14942(11) 0.90488(15)
H17_4 H 0.389125 0.143758 0.852638
C30_4 C 0.38425(7) 0.13438(11) 0.98692(15)
C33_4 C 0.49003(7) 0.18074(11) 0.97603(17)
H20_4 H 0.526069 0.196228 0.972667
C34_4 C 0.32788(7) 0.11206(11) 0.99165(14)
C35_4 C 0.29625(8) 0.07739(12) 0.92970(15)
H21_4 H 0.310309 0.066201 0.884585
C36_4 C 0.24393(7) 0.05844(11) 0.93210(15)
H22_4 H 0.222556 0.034421 0.888807
C37_4 C 0.22299(6) 0.07431(9) 0.99689(13)
C40_4 C 0.16685(6) 0.05488(8) 0.99872(11)
Zr3_2 Zr 0.65219(3) 0.26057(2) 0.42829(2)
O12_4 O 0.70496(6) 0.27476(4) 0.54202(9)
O13_4 O 0.75915(6) 0.36024(4) 0.54440(9)
O14_2 O 0.97630(6) 0.11682(4) 0.93751(8)
O16_3 O 0.59457(9) 0.27562(7) 0.38050(11)
C41_4 C 0.74232(8) 0.31516(6) 0.57262(14)
C42_4 C 0.76806(10) 0.30936(7) 0.65341(16)
C43_4 C 0.76826(10) 0.26456(7) 0.67010(14)
H25_4 H 0.753722 0.237543 0.628169
C44_4 C 0.78937(10) 0.25892(7) 0.74693(14)
H26_4 H 0.790478 0.228480 0.756203
C45_4 C 0.80911(11) 0.29677(8) 0.81136(17)
C46_4 C 0.81045(16) 0.34192(11) 0.7912(2)
H27_4 H 0.825111 0.369194 0.832681
C47_4 C 0.79103(16) 0.34846(11) 0.7125(2)
H28_4 H 0.793696 0.380396 0.699571
C48_4 C 0.82743(11) 0.28912(8) 0.89804(16)
C49_4 C 0.85058(11) 0.25940(8) 0.90488(15)
H29_4 H 0.856242 0.245366 0.852638
C50_4 C 0.86562(11) 0.24986(9) 0.98692(15)
C53_4 C 0.81926(11) 0.30928(9) 0.97603(17)
H32_4 H 0.803772 0.329840 0.972667
C54_4 C 0.88794(11) 0.21581(9) 0.99165(14)
C55_4 C 0.92261(12) 0.21885(9) 0.92970(15)
H33_4 H 0.933799 0.244107 0.884585
C56_4 C 0.94156(11) 0.18548(8) 0.93210(15)
H34_4 H 0.965579 0.188134 0.888807
C57_4 C 0.92569(9) 0.14867(7) 0.99689(13)
C60_4 C 0.94512(8) 0.11196(6) 0.99872(11)
Zr7_2 Zr 0.59391(2) 0.27505(2) 0.23837(2)
Zr8_2 Zr 0.72495(2) 0.31885(3) 0.23837(2)
Zr9_2 Zr 0.68115(3) 0.40609(2) 0.23837(2)
O17_3 O 0.78349(4) 0.47386(4) 0.39582(8)
O18_3 O 0.52614(4) 0.30963(6) 0.39582(8)
O19_3 O 0.69037(6) 0.21651(4) 0.39582(8)
O20_3 O 0.58779(4) 0.18316(4) 0.39376(8)
O21_3 O 0.81684(4) 0.40464(6) 0.39376(8)
O22_3 O 0.59536(6) 0.41221(4) 0.39376(8)
O23_3 O 0.60896(7) 0.34772(5) 0.28616(11)
O24_3 O 0.65228(5) 0.26123(9) 0.28616(11)
O25_3 O 0.73877(9) 0.39104(7) 0.28616(11)
O3_3 O 0.54984(4) 0.19281(4) 0.27085(8)
C14_5 C 0.45085(9) 0.00546(7) 0.32499(14)
C15_5 C 0.44781(9) 0.03709(8) 0.26304(15)
H9_5 H 0.422559 0.023025 0.217919
C16_5 C 0.48118(8) 0.08941(7) 0.26544(15)
H10_5 H 0.478532 0.110778 0.222141
C17_5 C 0.51799(7) 0.11035(6) 0.33023(13)
C18_4 C 0.52112(12) 0.07921(9) 0.39323(17)
H11_4 H 0.546233 0.093309 0.438568
C19_4 C 0.48746(13) 0.02712(8) 0.39031(17)
H12_4 H 0.489691 0.005858 0.434340
C20_5 C 0.55470(6) 0.16649(6) 0.33206(11)
C3_5 C 0.40210(7) 0.83703(7) 0.00344(14)
C4_5 C 0.40774(7) 0.86378(7) 0.08027(14)
H2_5 H 0.438186 0.895331 0.089537
C5_5 C 0.36989(8) 0.84567(8) 0.14470(17)
C6_5 C 0.32474(11) 0.80186(11) 0.1246(2)
H3_5 H 0.297472 0.789250 0.166015
C7_5 C 0.31820(11) 0.77590(11) 0.0459(2)
H4_5 H 0.286270 0.746633 0.032905
C8_5 C 0.37754(8) 0.87164(7) 0.23138(16)
C9_5 C 0.40726(8) 0.92451(7) 0.23822(15)
H5_5 H 0.421300 0.944209 0.185972
C10_5 C 0.41680(9) 0.94909(7) 0.32026(15)
C11_4 C 0.39620(10) 0.91958(8) 0.39702(16)
H6_4 H 0.402321 0.935694 0.453369
C12_4 C 0.36699(9) 0.86708(8) 0.39092(17)
H7_4 H 0.353475 0.847272 0.443223
C13_5 C 0.35738(9) 0.84331(7) 0.30937(17)
H8_5 H 0.336826 0.807265 0.306001
C23_5 C 0.16297(7) 0.56508(10) 0.00344(14)
C24_5 C 0.13622(7) 0.54397(10) 0.08027(14)
H14_5 H 0.104669 0.542856 0.089537
C25_5 C 0.15433(8) 0.52423(11) 0.14470(17)
C26_5 C 0.19814(11) 0.52289(16) 0.1246(2)
H15_5 H 0.210750 0.508223 0.166015
C27_5 C 0.22410(11) 0.54231(16) 0.0459(2)
H16_5 H 0.253367 0.539638 0.032905
C28_5 C 0.12836(7) 0.50591(11) 0.23138(16)
C29_5 C 0.07549(7) 0.48276(11) 0.23822(15)
H17_5 H 0.055791 0.477092 0.185972
C30_5 C 0.05091(7) 0.46772(11) 0.32026(15)
C31_4 C 0.08042(8) 0.47663(13) 0.39702(16)
H18_4 H 0.064306 0.466628 0.453369
C32_4 C 0.13292(8) 0.49992(12) 0.39092(17)
H19_4 H 0.152728 0.506204 0.443223
C33_5 C 0.15669(7) 0.51408(11) 0.30937(17)
H20_5 H 0.192735 0.529562 0.306001
O14_3 O 0.64296(6) 0.45016(4) 0.27085(8)
C43_5 C 0.43492(10) 0.59790(7) 0.00344(14)
C44_5 C 0.45603(10) 0.59226(7) 0.08027(14)
H26_5 H 0.457144 0.561814 0.089537
C45_5 C 0.47577(11) 0.63011(8) 0.14470(17)
C46_5 C 0.47711(16) 0.67526(11) 0.1246(2)
H27_5 H 0.491777 0.702528 0.166015
C47_5 C 0.45769(16) 0.68180(11) 0.0459(2)
H28_5 H 0.460362 0.713730 0.032905
C48_5 C 0.49409(11) 0.62246(8) 0.23138(16)
C49_5 C 0.51724(11) 0.59274(8) 0.23822(15)
H29_5 H 0.522908 0.578700 0.185972
C50_5 C 0.53228(11) 0.58320(9) 0.32026(15)
C51_4 C 0.52337(13) 0.60380(10) 0.39702(16)
H30_4 H 0.533372 0.597679 0.453369
C52_4 C 0.50008(12) 0.63301(9) 0.39092(17)
H31_4 H 0.493796 0.646525 0.443223
C53_5 C 0.48592(11) 0.64262(9) 0.30937(17)
H32_5 H 0.470438 0.663174 0.306001
C54_5 C 0.55460(11) 0.54915(9) 0.32499(14)
C55_5 C 0.58927(12) 0.55219(9) 0.26304(15)
H33_5 H 0.600465 0.577441 0.217919
C56_5 C 0.60822(11) 0.51882(8) 0.26544(15)
H34_5 H 0.632245 0.521468 0.222141
C57_5 C 0.59235(9) 0.48201(7) 0.33023(13)
C58_4 C 0.55808(15) 0.47888(12) 0.39323(17)
H35_4 H 0.547075 0.453767 0.438568
C59_4 C 0.53965(15) 0.51254(13) 0.39031(17)
H36_4 H 0.516166 0.510309 0.434340
C60_5 C 0.61178(8) 0.44530(6) 0.33206(11)
O9_3 O 0.80719(4) 0.35704(6) 0.27085(8)
C34_5 C 0.99454(7) 0.44540(11) 0.32499(14)
C35_5 C 0.96291(8) 0.41073(12) 0.26304(15)
H21_5 H 0.976975 0.399535 0.217919
C36_5 C 0.91059(7) 0.39178(11) 0.26544(15)
H22_5 H 0.889222 0.367755 0.222141
C37_5 C 0.88965(6) 0.40765(9) 0.33023(13)
C38_4 C 0.92079(9) 0.44192(15) 0.39323(17)
H23_4 H 0.906691 0.452925 0.438568
C39_4 C 0.97288(8) 0.46035(15) 0.39031(17)
H24_4 H 0.994142 0.483834 0.434340
C40_5 C 0.83351(6) 0.38822(8) 0.33206(11)
O5_8 O 0.000000 0.000000 0.85879(19)
O7_5 O 0.09686(4) 0.03829(6) 0.79131(9)
O8_5 O 0.06557(4) 0.09248(6) 0.78893(9)
O10_2 O 0.51649(4) 0.26203(6) 0.27291(8)
C21_5 C 0.09382(6) 0.07565(8) 0.76071(14)
C22_5 C 0.12536(7) 0.10139(10) 0.67992(16)
C23_6 C 0.17036(7) 0.10159(10) 0.66323(14)
H13_5 H 0.182845 0.087055 0.705164
C24_6 C 0.19711(7) 0.12270(10) 0.58640(14)
H14_6 H 0.228664 0.123811 0.577130
C25_6 C 0.17900(8) 0.14244(11) 0.52197(17)
C26_6 C 0.13519(11) 0.14378(16) 0.5421(2)
H15_6 H 0.122583 0.158444 0.500652
C27_6 C 0.10923(11) 0.12436(16) 0.6208(2)
H16_6 H 0.079966 0.127029 0.633762
C28_6 C 0.20497(7) 0.16076(11) 0.43529(16)
C29_6 C 0.25784(7) 0.18391(11) 0.42845(15)
H17_6 H 0.277542 0.189575 0.480695
C30_6 C 0.28242(7) 0.19895(11) 0.34641(15)
C31_5 C 0.25291(8) 0.19004(13) 0.26965(16)
H18_5 H 0.269027 0.200039 0.213298
C32_5 C 0.20041(8) 0.16675(12) 0.27575(17)
H19_5 H 0.180605 0.160463 0.223444
C33_6 C 0.17664(7) 0.15259(11) 0.35730(17)
H20_6 H 0.140598 0.137105 0.360666
C34_6 C 0.33879(7) 0.22127(11) 0.34168(14)
C35_6 C 0.37042(8) 0.25594(12) 0.40363(15)
H21_6 H 0.356358 0.267132 0.448748
C36_6 C 0.42274(7) 0.27489(11) 0.40123(15)
H22_6 H 0.444111 0.298912 0.444526
C37_6 C 0.44368(6) 0.25902(9) 0.33644(13)
C38_5 C 0.41254(9) 0.22475(15) 0.27344(17)
H23_5 H 0.426642 0.213742 0.228099
C39_5 C 0.36045(8) 0.20632(15) 0.27636(17)
H24_5 H 0.339191 0.182833 0.232327
C40_6 C 0.49982(6) 0.27845(8) 0.33461(11)
O20_4 O 0.07887(4) 0.15018(4) 0.93958(8)
O2_5 O 0.02691(4) 0.93443(4) 0.78893(9)
O5_9 O 0.000000 1.000000 0.85879(19)
C6_6 C 0.00859(11) 0.86481(11) 0.5421(2)
H3_6 H 0.035861 0.877417 0.500652
C7_6 C 0.01513(11) 0.89077(11) 0.6208(2)
H4_6 H 0.047063 0.920034 0.633762
O22_4 O 0.07130(6) 0.92113(4) 0.93958(8)
O5_10 O 1.000000 0.000000 0.85879(19)
O12_5 O 0.96171(6) 0.05857(4) 0.79131(9)
O15_2 O 0.73797(6) 0.25446(4) 0.27291(8)
C41_5 C 0.92435(8) 0.01817(6) 0.76071(14)
C42_5 C 0.89861(10) 0.02397(7) 0.67992(16)
C43_6 C 0.89841(10) 0.06877(7) 0.66323(14)
H25_5 H 0.912945 0.095790 0.705164
C44_6 C 0.87730(10) 0.07441(7) 0.58640(14)
H26_6 H 0.876189 0.104853 0.577130
C45_6 C 0.85756(11) 0.03656(8) 0.52197(17)
C48_6 C 0.83924(11) 0.04421(8) 0.43529(16)
C49_6 C 0.81609(11) 0.07393(8) 0.42845(15)
H29_6 H 0.810425 0.087967 0.480695
C50_6 C 0.80105(11) 0.08347(9) 0.34641(15)
C51_5 C 0.80996(13) 0.06287(10) 0.26965(16)
H30_5 H 0.799961 0.068988 0.213298
C52_5 C 0.83325(12) 0.03366(9) 0.27575(17)
H31_5 H 0.839537 0.020142 0.223444
C53_6 C 0.84741(11) 0.02405(9) 0.35730(17)
H32_6 H 0.862895 0.003493 0.360666
C54_6 C 0.77873(11) 0.11752(9) 0.34168(14)
C55_6 C 0.74406(12) 0.11448(9) 0.40363(15)
H33_6 H 0.732868 0.089226 0.448748
C56_6 C 0.72511(11) 0.14785(8) 0.40123(15)
H34_6 H 0.701088 0.145199 0.444526
C57_6 C 0.74098(9) 0.18466(7) 0.33644(13)
C58_5 C 0.77525(15) 0.18779(12) 0.27344(17)
H35_5 H 0.786258 0.212900 0.228099
C59_5 C 0.79368(15) 0.15413(13) 0.27636(17)
H36_5 H 0.817167 0.156358 0.232327
C60_6 C 0.72155(8) 0.22137(6) 0.33461(11)
O1_5 O 0.94143(4) 0.90314(4) 0.79131(9)
O4_2 O 0.74554(4) 0.48351(4) 0.27291(8)
O5_11 O 1.000000 1.000000 0.85879(19)
C1_5 C 0.98183(6) 0.90618(6) 0.76071(14)
C2_5 C 0.97603(7) 0.87464(7) 0.67992(16)
C3_6 C 0.93123(7) 0.82964(7) 0.66323(14)
H1_5 H 0.904210 0.817155 0.705164
C4_6 C 0.92559(7) 0.80289(7) 0.58640(14)
H2_6 H 0.895147 0.771336 0.577130
C5_6 C 0.96344(8) 0.82100(8) 0.52197(17)
C8_6 C 0.95579(8) 0.79503(7) 0.43529(16)
C9_6 C 0.92607(8) 0.74216(7) 0.42845(15)
H5_6 H 0.912033 0.722458 0.480695
C10_6 C 0.91653(9) 0.71758(7) 0.34641(15)
C11_5 C 0.93713(10) 0.74709(8) 0.26965(16)
H6_5 H 0.931012 0.730973 0.213298
C12_5 C 0.96634(9) 0.79959(8) 0.27575(17)
H7_5 H 0.979858 0.819395 0.223444
C13_6 C 0.97595(9) 0.82336(7) 0.35730(17)
H8_6 H 0.996507 0.859402 0.360666
C14_6 C 0.88248(9) 0.66121(7) 0.34168(14)
C15_6 C 0.88552(9) 0.62958(8) 0.40363(15)
H9_6 H 0.910774 0.643642 0.448748
C16_6 C 0.85215(8) 0.57726(7) 0.40123(15)
H10_6 H 0.854801 0.555889 0.444526
C17_6 C 0.81534(7) 0.55632(6) 0.33644(13)
C18_5 C 0.81221(12) 0.58746(9) 0.27344(17)
H11_5 H 0.787100 0.573358 0.228099
C19_5 C 0.84587(13) 0.63955(8) 0.27636(17)
H12_5 H 0.843642 0.660809 0.232327
C20_6 C 0.77863(6) 0.50018(6) 0.33461(11)
O13_5 O 0.90752(6) 0.97309(4) 0.78893(9)
C46_6 C 0.85622(16) 0.99141(11) 0.5421(2)
H27_6 H 0.841556 0.964139 0.500652
C47_6 C 0.87564(16) 0.98487(11) 0.6208(2)
H28_6 H 0.872971 0.952937 0.633762
O21_4 O 0.84982(4) 0.92870(6) 0.93958(8)
C11_6 C 0.27046(10) 0.41376(8) 0.93632(16)
H6_6 H 0.264345 0.397640 0.879965
C12_6 C 0.29967(9) 0.46626(8) 0.94242(17)
H7_6 H 0.313191 0.486062 0.890111
C18_6 C 0.14554(12) 0.25413(9) 0.94011(17)
H11_6 H 0.120433 0.240025 0.894766
C19_6 C 0.17920(13) 0.30622(8) 0.94303(17)
H12_6 H 0.176975 0.327476 0.898994
C31_6 C 0.58624(8) 0.85671(13) 0.93632(16)
H18_6 H 0.602360 0.866706 0.879965
C32_6 C 0.53374(8) 0.83342(12) 0.94242(17)
H19_6 H 0.513938 0.827130 0.890111
C38_6 C 0.74587(9) 0.89142(15) 0.94011(17)
H23_6 H 0.759975 0.880409 0.894766
C39_6 C 0.69378(8) 0.87299(15) 0.94303(17)
H24_6 H 0.672524 0.849500 0.898994
C51_6 C 0.14329(13) 0.72954(10) 0.93632(16)
H30_6 H 0.133294 0.735655 0.879965
C52_6 C 0.16658(12) 0.70033(9) 0.94242(17)
H31_6 H 0.172870 0.686809 0.890111
C58_6 C 0.10858(15) 0.85446(12) 0.94011(17)
H35_6 H 0.119591 0.879567 0.894766
C59_6 C 0.12701(15) 0.82080(13) 0.94303(17)
H36_6 H 0.150500 0.823025 0.898994
O1_6 O 0.60810(4) 0.23647(4) 0.12464(9)
O2_6 O 0.69358(4) 0.26776(4) 0.12226(9)
O5_12 O 0.666667 0.333333 0.19212(19)
C1_6 C 0.64850(6) 0.23951(6) 0.09404(14)
C2_6 C 0.64270(7) 0.20797(7) 0.01325(16)
H1_6 H 0.570877 0.150488 0.038497
O7_6 O 0.76353(4) 0.37162(6) 0.12464(9)
O8_6 O 0.73224(4) 0.42581(6) 0.12226(9)
C21_6 C 0.76049(6) 0.40898(8) 0.09404(14)
C22_6 C 0.79203(7) 0.43472(10) 0.01325(16)
H13_6 H 0.849512 0.420388 0.038497
O12_6 O 0.62838(6) 0.39190(4) 0.12464(9)
O13_6 O 0.57419(6) 0.30642(4) 0.12226(9)
C41_6 C 0.59102(8) 0.35150(6) 0.09404(14)
C42_6 C 0.56528(10) 0.35730(7) 0.01325(16)
H25_6 H 0.579612 0.429123 0.038497
loop_
_geom_bond_atom_site_label_1
_geom_bond_atom_site_label_2
_geom_bond_site_symmetry_1
_geom_bond_site_symmetry_2
Zr1 O1 1_555 1_555
O1 C1 1_555 1_555
O3 C20 1_555 1_555
O4 C20 1_555 1_555
O5 Zr1 1_555 1_555
C1 C2 1_555 1_555
C2 C3 1_555 1_555
C3 H1 1_555 1_555
C4 C3 1_555 1_555
H2 C4 1_555 1_555
C5 C4 1_555 1_555
C8 C5 1_555 1_555
C9 C8 1_555 1_555
H5 C9 1_555 1_555
C10 C9 1_555 1_555
C11 C10 1_555 1_555
H6 C11 1_555 1_555
C12 C11 1_555 1_555
H7 C12 1_555 1_555
C13 C8 1_555 1_555
H8 C13 1_555 1_555
C14 C10 1_555 1_555
C15 C14 1_555 1_555
H9 C15 1_555 1_555
C16 C15 1_555 1_555
H10 C16 1_555 1_555
C17 C16 1_555 1_555
C18 C17 1_555 1_555
H11 C18 1_555 1_555
C19 C14 1_555 1_555
H12 C19 1_555 1_555
C20 C17 1_555 1_555
O11 Zr1 1_555 1_555
O13 Zr1 1_555 1_555
H27 C46 1_555 1_555
H28 C47 1_555 1_555
Zr6 O4 1_555 1_555
Zr10 O3 1_555 1_555
O17 Zr1 1_555 1_555
O21 Zr1 1_555 1_555
C12 C13 1_555 1_555
C18 C19 1_555 1_555
C46 C47 1_555 1_555
O14 C60 1_555 1_555
O15 C60 1_555 1_555
C41 O12 1_555 1_555
C42 C41 1_555 1_555
C43 C42 1_555 1_555
H25 C43 1_555 1_555
C44 C43 1_555 1_555
H26 C44 1_555 1_555
C45 C44 1_555 1_555
C48 C45 1_555 1_555
C49 C48 1_555 1_555
H29 C49 1_555 1_555
C50 C49 1_555 1_555
C51 C50 1_555 1_555
H30 C51 1_555 1_555
C52 C51 1_555 1_555
H31 C52 1_555 1_555
C53 C48 1_555 1_555
H32 C53 1_555 1_555
C54 C50 1_555 1_555
C55 C54 1_555 1_555
H33 C55 1_555 1_555
C56 C55 1_555 1_555
H34 C56 1_555 1_555
C57 C56 1_555 1_555
C58 C57 1_555 1_555
H35 C58 1_555 1_555
C59 C54 1_555 1_555
H36 C59 1_555 1_555
C60 C57 1_555 1_555
Zr5 O15 1_555 1_555
Zr12 O14 1_555 1_555
C52 C53 1_555 1_555
C58 C59 1_555 1_555
H3 C6 1_555 1_555
H4 C7 1_555 1_555
Zr2 O2 1_555 1_555
O22 Zr2 1_555 1_555
O5_3 Zr2 1_555 1_555
C6 C7 1_555 1_555
O8 C21 1_555 1_555
O9 C40 1_555 1_555
O10 C40 1_555 1_555
C21 O7 1_555 1_555
C22 C21 1_555 1_555
C23 C22 1_555 1_555
H13 C23 1_555 1_555
C24 C23 1_555 1_555
H14 C24 1_555 1_555
C25 C24 1_555 1_555
C26 C25 1_555 1_555
H15 C26 1_555 1_555
C27 C22 1_555 1_555
H16 C27 1_555 1_555
C28 C25 1_555 1_555
C29 C28 1_555 1_555
H17 C29 1_555 1_555
C30 C29 1_555 1_555
C31 C30 1_555 1_555
H18 C31 1_555 1_555
C32 C31 1_555 1_555
H19 C32 1_555 1_555
C33 C28 1_555 1_555
H20 C33 1_555 1_555
C34 C30 1_555 1_555
C35 C34 1_555 1_555
H21 C35 1_555 1_555
C36 C35 1_555 1_555
H22 C36 1_555 1_555
C37 C36 1_555 1_555
C38 C37 1_555 1_555
H23 C38 1_555 1_555
C39 C34 1_555 1_555
H24 C39 1_555 1_555
C40 C37 1_555 1_555
Zr3 O5_4 1_555 1_555
Zr4 O10 1_555 1_555
Zr11 O9 1_555 1_555
O20 Zr3 1_555 1_555
O8 Zr3 1_555 1_555
C26 C27 1_555 1_555
C32 C33 1_555 1_555
C38 C39 1_555 1_555
Zr3 O16 1_555 1_555
H6_2 C11_2 1_555 1_555
C12_2 C11_2 1_555 1_555
H7_2 C12_2 1_555 1_555
H11_2 C18_2 1_555 1_555
H12_2 C19_2 1_555 1_555
H18_2 C31_2 1_555 1_555
C32_2 C31_2 1_555 1_555
H19_2 C32_2 1_555 1_555
H23_2 C38_2 1_555 1_555
H24_2 C39_2 1_555 1_555
H30_2 C51_2 1_555 1_555
C52_2 C51_2 1_555 1_555
H31_2 C52_2 1_555 1_555
H35_2 C58_2 1_555 1_555
H36_2 C59_2 1_555 1_555
C18_2 C19_2 1_555 1_555
C38_2 C39_2 1_555 1_555
C58_2 C59_2 1_555 1_555
Zr4 O1_2 1_555 1_555
O1_2 C1_2 1_555 1_555
O2_2 C1_2 1_555 1_555
O5_5 Zr4 1_555 1_555
O6_2 Zr4 1_555 1_555
C1_2 C2_2 1_555 1_555
Zr5 O2_2 1_555 1_555
O7_2 Zr5 1_555 1_555
O8_2 C21_2 1_555 1_555
O11_2 Zr4 1_555 1_555
C21_2 O7_2 1_555 1_555
C22_2 C21_2 1_555 1_555
Zr6 O5_5 1_555 1_555
O12_2 Zr6 1_555 1_555
O13_2 Zr4 1_555 1_555
O16_2 Zr5 1_555 1_555
C41_2 O12_2 1_555 1_555
C42_2 C41_2 1_555 1_555
Zr10 O16_2 1_555 1_555
Zr11 O6_2 1_555 1_555
Zr12 O11_2 1_555 1_555
O17_2 Zr4 1_555 1_555
O18_2 Zr5 1_555 1_555
O19_2 Zr6 1_555 1_555
O23 Zr5 1_555 1_555
O24 Zr6 1_555 1_555
O25 Zr4 1_555 1_555
O5_5 Zr5 1_555 1_555
O6_2 Zr6 1_555 1_555
Zr5 O11_2 1_555 1_555
O8_2 Zr6 1_555 1_555
Zr6 O16_2 1_555 1_555
O13_2 C41_2 1_555 1_555
Zr10 O23 1_555 1_555
Zr10 O24 1_555 1_555
Zr11 O24 1_555 1_555
Zr11 O25 1_555 1_555
Zr12 O23 1_555 1_555
Zr12 O25 1_555 1_555
Zr10 O1_3 1_555 1_555
O1_3 C1_3 1_555 1_555
O2_3 C1_3 1_555 1_555
O17 C20_2 1_555 1_555
O5_6 Zr10 1_555 1_555
C1_3 C2_3 1_555 1_555
C2_3 C3_2 1_555 1_555
C3_2 H1_3 1_555 1_555
C4_2 C3_2 1_555 1_555
H2_2 C4_2 1_555 1_555
C5_2 C4_2 1_555 1_555
C6_2 C5_2 1_555 1_555
H3_2 C6_2 1_555 1_555
C7_2 C2_3 1_555 1_555
H4_2 C7_2 1_555 1_555
C8_2 C5_2 1_555 1_555
C9_2 C8_2 1_555 1_555
H5_2 C9_2 1_555 1_555
C10_2 C9_2 1_555 1_555
C13_2 C8_2 1_555 1_555
H8_2 C13_2 1_555 1_555
C14_2 C10_2 1_555 1_555
C15_2 C14_2 1_555 1_555
H9_2 C15_2 1_555 1_555
C16_2 C15_2 1_555 1_555
H10_2 C16_2 1_555 1_555
C17_2 C16_2 1_555 1_555
C20_2 C17_2 1_555 1_555
Zr11 O2_3 1_555 1_555
O7_3 Zr11 1_555 1_555
O8_3 C21_3 1_555 1_555
O18 C40_2 1_555 1_555
C21_3 O7_3 1_555 1_555
C22_3 C21_3 1_555 1_555
C23_2 C22_3 1_555 1_555
H13_3 C23_2 1_555 1_555
C24_2 C23_2 1_555 1_555
H14_2 C24_2 1_555 1_555
C25_2 C24_2 1_555 1_555
C26_2 C25_2 1_555 1_555
H15_2 C26_2 1_555 1_555
C27_2 C22_3 1_555 1_555
H16_2 C27_2 1_555 1_555
C28_2 C25_2 1_555 1_555
C29_2 C28_2 1_555 1_555
H17_2 C29_2 1_555 1_555
C30_2 C29_2 1_555 1_555
C33_2 C28_2 1_555 1_555
H20_2 C33_2 1_555 1_555
C34_2 C30_2 1_555 1_555
C35_2 C34_2 1_555 1_555
H21_2 C35_2 1_555 1_555
C36_2 C35_2 1_555 1_555
H22_2 C36_2 1_555 1_555
C37_2 C36_2 1_555 1_555
C40_2 C37_2 1_555 1_555
Zr12 O5_6 1_555 1_555
O12_3 Zr12 1_555 1_555
O13_3 Zr10 1_555 1_555
O19 C60_2 1_555 1_555
C41_3 O12_3 1_555 1_555
C42_3 C41_3 1_555 1_555
C43_2 C42_3 1_555 1_555
H25_3 C43_2 1_555 1_555
C44_2 C43_2 1_555 1_555
H26_2 C44_2 1_555 1_555
C45_2 C44_2 1_555 1_555
C46_2 C45_2 1_555 1_555
H27_2 C46_2 1_555 1_555
C47_2 C42_3 1_555 1_555
H28_2 C47_2 1_555 1_555
C48_2 C45_2 1_555 1_555
C49_2 C48_2 1_555 1_555
H29_2 C49_2 1_555 1_555
C50_2 C49_2 1_555 1_555
C53_2 C48_2 1_555 1_555
H32_2 C53_2 1_555 1_555
C54_2 C50_2 1_555 1_555
C55_2 C54_2 1_555 1_555
H33_2 C55_2 1_555 1_555
C56_2 C55_2 1_555 1_555
H34_2 C56_2 1_555 1_555
C57_2 C56_2 1_555 1_555
C60_2 C57_2 1_555 1_555
O20_2 Zr12 1_555 1_555
O21_2 Zr10 1_555 1_555
O22_2 Zr11 1_555 1_555
O5_6 Zr11 1_555 1_555
C6_2 C7_2 1_555 1_555
O8_3 Zr12 1_555 1_555
C26_2 C27_2 1_555 1_555
O13_3 C41_3 1_555 1_555
C46_2 C47_2 1_555 1_555
O18_2 C40_3 1_555 1_555
O21_2 C40_3 1_555 1_555
C35_3 C34_3 1_555 1_555
H21_3 C35_3 1_555 1_555
C36_3 C35_3 1_555 1_555
H22_3 C36_3 1_555 1_555
C37_3 C36_3 1_555 1_555
C38_3 C37_3 1_555 1_555
H23_3 C38_3 1_555 1_555
C39_3 C34_3 1_555 1_555
H24_3 C39_3 1_555 1_555
C40_3 C37_3 1_555 1_555
C38_3 C39_3 1_555 1_555
C4_3 C3_3 1_555 1_555
H2_3 C4_3 1_555 1_555
C5_3 C4_3 1_555 1_555
C6_3 C5_3 1_555 1_555
H3_3 C6_3 1_555 1_555
H4_3 C7_3 1_555 1_555
C8_3 C5_3 1_555 1_555
C9_3 C8_3 1_555 1_555
H5_3 C9_3 1_555 1_555
C10_3 C9_3 1_555 1_555
C11_3 C10_3 1_555 1_555
H6_3 C11_3 1_555 1_555
C12_3 C11_3 1_555 1_555
H7_3 C12_3 1_555 1_555
C13_3 C8_3 1_555 1_555
H8_3 C13_3 1_555 1_555
C24_3 C23_3 1_555 1_555
H14_3 C24_3 1_555 1_555
C25_3 C24_3 1_555 1_555
C26_3 C25_3 1_555 1_555
H15_3 C26_3 1_555 1_555
H16_3 C27_3 1_555 1_555
C28_3 C25_3 1_555 1_555
C29_3 C28_3 1_555 1_555
H17_3 C29_3 1_555 1_555
C30_3 C29_3 1_555 1_555
C31_3 C30_3 1_555 1_555
H18_3 C31_3 1_555 1_555
C32_3 C31_3 1_555 1_555
H19_3 C32_3 1_555 1_555
C33_3 C28_3 1_555 1_555
H20_3 C33_3 1_555 1_555
O19_2 C60_3 1_555 1_555
O22_2 C60_3 1_555 1_555
C44_3 C43_3 1_555 1_555
H26_3 C44_3 1_555 1_555
C45_3 C44_3 1_555 1_555
C46_3 C45_3 1_555 1_555
H27_3 C46_3 1_555 1_555
H28_3 C47_3 1_555 1_555
C48_3 C45_3 1_555 1_555
C49_3 C48_3 1_555 1_555
H29_3 C49_3 1_555 1_555
C50_3 C49_3 1_555 1_555
C51_3 C50_3 1_555 1_555
H30_3 C51_3 1_555 1_555
C52_3 C51_3 1_555 1_555
H31_3 C52_3 1_555 1_555
C53_3 C48_3 1_555 1_555
H32_3 C53_3 1_555 1_555
C54_3 C50_3 1_555 1_555
C55_3 C54_3 1_555 1_555
H33_3 C55_3 1_555 1_555
C56_3 C55_3 1_555 1_555
H34_3 C56_3 1_555 1_555
C57_3 C56_3 1_555 1_555
C58_3 C57_3 1_555 1_555
H35_3 C58_3 1_555 1_555
C59_3 C54_3 1_555 1_555
H36_3 C59_3 1_555 1_555
C60_3 C57_3 1_555 1_555
C6_3 C7_3 1_555 1_555
C12_3 C13_3 1_555 1_555
C26_3 C27_3 1_555 1_555
C32_3 C33_3 1_555 1_555
C46_3 C47_3 1_555 1_555
C52_3 C53_3 1_555 1_555
C58_3 C59_3 1_555 1_555
O17_2 C20_3 1_555 1_555
O20_2 C20_3 1_555 1_555
C15_3 C14_3 1_555 1_555
H9_3 C15_3 1_555 1_555
C16_3 C15_3 1_555 1_555
H10_3 C16_3 1_555 1_555
C17_3 C16_3 1_555 1_555
C18_3 C17_3 1_555 1_555
H11_3 C18_3 1_555 1_555
C19_3 C14_3 1_555 1_555
H12_3 C19_3 1_555 1_555
C20_3 C17_3 1_555 1_555
C18_3 C19_3 1_555 1_555
Zr9 O25_2 1_555 1_555
Zr7 O24_2 1_555 1_555
Zr1_2 O1_4 1_555 1_555
O1_4 C1_4 1_555 1_555
O2_4 C1_4 1_555 1_555
O3_2 C20_4 1_555 1_555
O5_7 Zr1_2 1_555 1_555
O6_3 Zr1_2 1_555 1_555
C1_4 C2_4 1_555 1_555
C2_4 C3_4 1_555 1_555
C3_4 H1_4 1_555 1_555
C4_4 C3_4 1_555 1_555
H2_4 C4_4 1_555 1_555
C5_4 C4_4 1_555 1_555
C6_4 C5_4 1_555 1_555
H3_4 C6_4 1_555 1_555
C7_4 C2_4 1_555 1_555
H4_4 C7_4 1_555 1_555
C8_4 C5_4 1_555 1_555
C9_4 C8_4 1_555 1_555
H5_4 C9_4 1_555 1_555
C10_4 C9_4 1_555 1_555
C13_4 C8_4 1_555 1_555
H8_4 C13_4 1_555 1_555
C14_4 C10_4 1_555 1_555
C15_4 C14_4 1_555 1_555
H9_4 C15_4 1_555 1_555
C16_4 C15_4 1_555 1_555
H10_4 C16_4 1_555 1_555
C17_4 C16_4 1_555 1_555
C20_4 C17_4 1_555 1_555
Zr2_2 O2_4 1_555 1_555
O7_4 Zr2_2 1_555 1_555
O8_4 C21_4 1_555 1_555
O9_2 C40_4 1_555 1_555
O11_3 Zr1_2 1_555 1_555
C21_4 O7_4 1_555 1_555
C22_4 C21_4 1_555 1_555
C23_4 C22_4 1_555 1_555
H13_4 C23_4 1_555 1_555
C24_4 C23_4 1_555 1_555
H14_4 C24_4 1_555 1_555
C25_4 C24_4 1_555 1_555
C26_4 C25_4 1_555 1_555
H15_4 C26_4 1_555 1_555
C27_4 C22_4 1_555 1_555
H16_4 C27_4 1_555 1_555
C28_4 C25_4 1_555 1_555
C29_4 C28_4 1_555 1_555
H17_4 C29_4 1_555 1_555
C30_4 C29_4 1_555 1_555
C33_4 C28_4 1_555 1_555
H20_4 C33_4 1_555 1_555
C34_4 C30_4 1_555 1_555
C35_4 C34_4 1_555 1_555
H21_4 C35_4 1_555 1_555
C36_4 C35_4 1_555 1_555
H22_4 C36_4 1_555 1_555
C37_4 C36_4 1_555 1_555
C40_4 C37_4 1_555 1_555
Zr3_2 O5_7 1_555 1_555
O12_4 Zr3_2 1_555 1_555
O13_4 Zr1_2 1_555 1_555
O14_2 C60_4 1_555 1_555
O16_3 Zr2_2 1_555 1_555
C41_4 O12_4 1_555 1_555
C42_4 C41_4 1_555 1_555
C43_4 C42_4 1_555 1_555
H25_4 C43_4 1_555 1_555
C44_4 C43_4 1_555 1_555
H26_4 C44_4 1_555 1_555
C45_4 C44_4 1_555 1_555
C46_4 C45_4 1_555 1_555
H27_4 C46_4 1_555 1_555
C47_4 C42_4 1_555 1_555
H28_4 C47_4 1_555 1_555
C48_4 C45_4 1_555 1_555
C49_4 C48_4 1_555 1_555
H29_4 C49_4 1_555 1_555
C50_4 C49_4 1_555 1_555
C53_4 C48_4 1_555 1_555
H32_4 C53_4 1_555 1_555
C54_4 C50_4 1_555 1_555
C55_4 C54_4 1_555 1_555
H33_4 C55_4 1_555 1_555
C56_4 C55_4 1_555 1_555
H34_4 C56_4 1_555 1_555
C57_4 C56_4 1_555 1_555
C60_4 C57_4 1_555 1_555
Zr7_2 O16_3 1_555 1_555
Zr8_2 O6_3 1_555 1_555
Zr9_2 O11_3 1_555 1_555
Zr7 O3_2 1_555 1_555
O17_3 Zr1_2 1_555 1_555
O18_3 Zr2_2 1_555 1_555
O19_3 Zr3_2 1_555 1_555
O20_3 Zr3_2 1_555 1_555
O21_3 Zr1_2 1_555 1_555
O22_3 Zr2_2 1_555 1_555
O23_3 Zr2_2 1_555 1_555
O24_3 Zr3_2 1_555 1_555
O25_3 Zr1_2 1_555 1_555
O5_7 Zr2_2 1_555 1_555
O6_3 Zr3_2 1_555 1_555
C6_4 C7_4 1_555 1_555
Zr2_2 O11_3 1_555 1_555
O8_4 Zr3_2 1_555 1_555
C26_4 C27_4 1_555 1_555
Zr3_2 O16_3 1_555 1_555
O13_4 C41_4 1_555 1_555
C46_4 C47_4 1_555 1_555
Zr7_2 O23_3 1_555 1_555
Zr7_2 O24_3 1_555 1_555
Zr8_2 O24_3 1_555 1_555
Zr8_2 O25_3 1_555 1_555
Zr9_2 O23_3 1_555 1_555
Zr9_2 O25_3 1_555 1_555
O3_3 C20_5 1_555 1_555
O20_3 C20_5 1_555 1_555
C15_5 C14_5 1_555 1_555
H9_5 C15_5 1_555 1_555
C16_5 C15_5 1_555 1_555
H10_5 C16_5 1_555 1_555
C17_5 C16_5 1_555 1_555
C18_4 C17_5 1_555 1_555
H11_4 C18_4 1_555 1_555
C19_4 C14_5 1_555 1_555
H12_4 C19_4 1_555 1_555
C20_5 C17_5 1_555 1_555
Zr7_2 O3_3 1_555 1_555
C18_4 C19_4 1_555 1_555
C4_5 C3_5 1_555 1_555
H2_5 C4_5 1_555 1_555
C5_5 C4_5 1_555 1_555
C6_5 C5_5 1_555 1_555
H3_5 C6_5 1_555 1_555
H4_5 C7_5 1_555 1_555
C8_5 C5_5 1_555 1_555
C9_5 C8_5 1_555 1_555
H5_5 C9_5 1_555 1_555
C10_5 C9_5 1_555 1_555
C11_4 C10_5 1_555 1_555
H6_4 C11_4 1_555 1_555
C12_4 C11_4 1_555 1_555
H7_4 C12_4 1_555 1_555
C13_5 C8_5 1_555 1_555
H8_5 C13_5 1_555 1_555
C24_5 C23_5 1_555 1_555
H14_5 C24_5 1_555 1_555
C25_5 C24_5 1_555 1_555
C26_5 C25_5 1_555 1_555
H15_5 C26_5 1_555 1_555
H16_5 C27_5 1_555 1_555
C28_5 C25_5 1_555 1_555
C29_5 C28_5 1_555 1_555
H17_5 C29_5 1_555 1_555
C30_5 C29_5 1_555 1_555
C31_4 C30_5 1_555 1_555
H18_4 C31_4 1_555 1_555
C32_4 C31_4 1_555 1_555
H19_4 C32_4 1_555 1_555
C33_5 C28_5 1_555 1_555
H20_5 C33_5 1_555 1_555
O14_3 C60_5 1_555 1_555
O22_3 C60_5 1_555 1_555
C44_5 C43_5 1_555 1_555
H26_5 C44_5 1_555 1_555
C45_5 C44_5 1_555 1_555
C46_5 C45_5 1_555 1_555
H27_5 C46_5 1_555 1_555
H28_5 C47_5 1_555 1_555
C48_5 C45_5 1_555 1_555
C49_5 C48_5 1_555 1_555
H29_5 C49_5 1_555 1_555
C50_5 C49_5 1_555 1_555
C51_4 C50_5 1_555 1_555
H30_4 C51_4 1_555 1_555
C52_4 C51_4 1_555 1_555
H31_4 C52_4 1_555 1_555
C53_5 C48_5 1_555 1_555
H32_5 C53_5 1_555 1_555
C54_5 C50_5 1_555 1_555
C55_5 C54_5 1_555 1_555
H33_5 C55_5 1_555 1_555
C56_5 C55_5 1_555 1_555
H34_5 C56_5 1_555 1_555
C57_5 C56_5 1_555 1_555
C58_4 C57_5 1_555 1_555
H35_4 C58_4 1_555 1_555
C59_4 C54_5 1_555 1_555
H36_4 C59_4 1_555 1_555
C60_5 C57_5 1_555 1_555
Zr9_2 O14_3 1_555 1_555
C6_5 C7_5 1_555 1_555
C12_4 C13_5 1_555 1_555
C26_5 C27_5 1_555 1_555
C32_4 C33_5 1_555 1_555
C46_5 C47_5 1_555 1_555
C52_4 C53_5 1_555 1_555
C58_4 C59_4 1_555 1_555
O9_3 C40_5 1_555 1_555
O21_3 C40_5 1_555 1_555
C35_5 C34_5 1_555 1_555
H21_5 C35_5 1_555 1_555
C36_5 C35_5 1_555 1_555
H22_5 C36_5 1_555 1_555
C37_5 C36_5 1_555 1_555
C38_4 C37_5 1_555 1_555
H23_4 C38_4 1_555 1_555
C39_4 C34_5 1_555 1_555
H24_4 C39_4 1_555 1_555
C40_5 C37_5 1_555 1_555
Zr8_2 O9_3 1_555 1_555
C38_4 C39_4 1_555 1_555
O8_5 C21_5 1_555 1_555
O18_3 C40_6 1_555 1_555
O10_2 C40_6 1_555 1_555
C21_5 O7_5 1_555 1_555
C22_5 C21_5 1_555 1_555
C23_6 C22_5 1_555 1_555
H13_5 C23_6 1_555 1_555
C24_6 C23_6 1_555 1_555
H14_6 C24_6 1_555 1_555
C25_6 C24_6 1_555 1_555
C26_6 C25_6 1_555 1_555
H15_6 C26_6 1_555 1_555
C27_6 C22_5 1_555 1_555
H16_6 C27_6 1_555 1_555
C28_6 C25_6 1_555 1_555
C29_6 C28_6 1_555 1_555
H17_6 C29_6 1_555 1_555
C30_6 C29_6 1_555 1_555
C31_5 C30_6 1_555 1_555
H18_5 C31_5 1_555 1_555
C32_5 C31_5 1_555 1_555
H19_5 C32_5 1_555 1_555
C33_6 C28_6 1_555 1_555
H20_6 C33_6 1_555 1_555
C34_6 C30_6 1_555 1_555
C35_6 C34_6 1_555 1_555
H21_6 C35_6 1_555 1_555
C36_6 C35_6 1_555 1_555
H22_6 C36_6 1_555 1_555
C37_6 C36_6 1_555 1_555
C38_5 C37_6 1_555 1_555
H23_5 C38_5 1_555 1_555
C39_5 C34_6 1_555 1_555
H24_5 C39_5 1_555 1_555
C40_6 C37_6 1_555 1_555
Zr9 O5_8 1_555 1_555
Zr7_2 O10_2 1_555 1_555
O20_4 Zr9 1_555 1_555
O8_5 Zr9 1_555 1_555
C26_6 C27_6 1_555 1_555
C32_5 C33_6 1_555 1_555
C38_5 C39_5 1_555 1_555
H3_6 C6_6 1_555 1_555
H4_6 C7_6 1_555 1_555
Zr8 O2_5 1_555 1_555
O22_4 Zr8 1_555 1_555
O5_9 Zr8 1_555 1_555
C6_6 C7_6 1_555 1_555
O19_3 C60_6 1_555 1_555
O15_2 C60_6 1_555 1_555
C41_5 O12_5 1_555 1_555
C42_5 C41_5 1_555 1_555
C43_6 C42_5 1_555 1_555
H25_5 C43_6 1_555 1_555
C44_6 C43_6 1_555 1_555
H26_6 C44_6 1_555 1_555
C45_6 C44_6 1_555 1_555
C48_6 C45_6 1_555 1_555
C49_6 C48_6 1_555 1_555
H29_6 C49_6 1_555 1_555
C50_6 C49_6 1_555 1_555
C51_5 C50_6 1_555 1_555
H30_5 C51_5 1_555 1_555
C52_5 C51_5 1_555 1_555
H31_5 C52_5 1_555 1_555
C53_6 C48_6 1_555 1_555
H32_6 C53_6 1_555 1_555
C54_6 C50_6 1_555 1_555
C55_6 C54_6 1_555 1_555
H33_6 C55_6 1_555 1_555
C56_6 C55_6 1_555 1_555
H34_6 C56_6 1_555 1_555
C57_6 C56_6 1_555 1_555
C58_5 C57_6 1_555 1_555
H35_5 C58_5 1_555 1_555
C59_5 C54_6 1_555 1_555
H36_5 C59_5 1_555 1_555
C60_6 C57_6 1_555 1_555
Zr8_2 O15_2 1_555 1_555
C52_5 C53_6 1_555 1_555
C58_5 C59_5 1_555 1_555
Zr7 O1_5 1_555 1_555
O1_5 C1_5 1_555 1_555
O17_3 C20_6 1_555 1_555
O4_2 C20_6 1_555 1_555
O5_11 Zr7 1_555 1_555
C1_5 C2_5 1_555 1_555
C2_5 C3_6 1_555 1_555
C3_6 H1_5 1_555 1_555
C4_6 C3_6 1_555 1_555
H2_6 C4_6 1_555 1_555
C5_6 C4_6 1_555 1_555
C8_6 C5_6 1_555 1_555
C9_6 C8_6 1_555 1_555
H5_6 C9_6 1_555 1_555
C10_6 C9_6 1_555 1_555
C11_5 C10_6 1_555 1_555
H6_5 C11_5 1_555 1_555
C12_5 C11_5 1_555 1_555
H7_5 C12_5 1_555 1_555
C13_6 C8_6 1_555 1_555
H8_6 C13_6 1_555 1_555
C14_6 C10_6 1_555 1_555
C15_6 C14_6 1_555 1_555
H9_6 C15_6 1_555 1_555
C16_6 C15_6 1_555 1_555
H10_6 C16_6 1_555 1_555
C17_6 C16_6 1_555 1_555
C18_5 C17_6 1_555 1_555
H11_5 C18_5 1_555 1_555
C19_5 C14_6 1_555 1_555
H12_5 C19_5 1_555 1_555
C20_6 C17_6 1_555 1_555
O13_5 Zr7 1_555 1_555
H27_6 C46_6 1_555 1_555
H28_6 C47_6 1_555 1_555
Zr9_2 O4_2 1_555 1_555
O21_4 Zr7 1_555 1_555
C12_5 C13_6 1_555 1_555
C18_5 C19_5 1_555 1_555
C46_6 C47_6 1_555 1_555
H6_6 C11_6 1_555 1_555
C12_6 C11_6 1_555 1_555
H7_6 C12_6 1_555 1_555
H11_6 C18_6 1_555 1_555
H12_6 C19_6 1_555 1_555
H18_6 C31_6 1_555 1_555
C32_6 C31_6 1_555 1_555
H19_6 C32_6 1_555 1_555
H23_6 C38_6 1_555 1_555
H24_6 C39_6 1_555 1_555
H30_6 C51_6 1_555 1_555
C52_6 C51_6 1_555 1_555
H31_6 C52_6 1_555 1_555
H35_6 C58_6 1_555 1_555
H36_6 C59_6 1_555 1_555
C18_6 C19_6 1_555 1_555
C38_6 C39_6 1_555 1_555
C58_6 C59_6 1_555 1_555
Zr7_2 O1_6 1_555 1_555
O1_6 C1_6 1_555 1_555
O2_6 C1_6 1_555 1_555
O5_12 Zr7_2 1_555 1_555
C1_6 C2_6 1_555 1_555
Zr8_2 O2_6 1_555 1_555
O7_6 Zr8_2 1_555 1_555
O8_6 C21_6 1_555 1_555
C21_6 O7_6 1_555 1_555
C22_6 C21_6 1_555 1_555
Zr9_2 O5_12 1_555 1_555
O12_6 Zr9_2 1_555 1_555
O13_6 Zr7_2 1_555 1_555
C41_6 O12_6 1_555 1_555
C42_6 C41_6 1_555 1_555
O5_12 Zr8_2 1_555 1_555
O8_6 Zr9_2 1_555 1_555
O13_6 C41_6 1_555 1_555

#END
