
###############################################################################
#
# This file contains modified crystal structure data generated from the
# MOF subset of the Cambridge Structural Database (CSD) v543 
# hosted by the Cambridge Crystallographic Data Centre (CCDC).
#
# This work is licensed under the Creative Commons
# Attribution-NonCommercial-ShareAlike 4.0 International License.
# To view a copy of this license, visit
# http://creativecommons.org/licenses/by-nc-sa/4.0/
# or send a letter to
# Creative Commons, PO Box 1866, Mountain View, CA 94042, USA.
#
# CIF created using the CSD Python API on 29 September 2022
# The structure has been converted into the P1 space group
# The structure has a 3D framework
# The original CSD entry BIKMEQ is in the rhombohedral crystal system
# The framework has been calculated to contain at least 10.0% void space
# The void calculation uses a probe of radius 1.32A, grid spacing 0.4
#
###############################################################################

data_BIKMEQ
_chemical_formula_moiety         '(C360 H216 O88 Zr18)n'
_symmetry_cell_setting           triclinic
_symmetry_space_group_name_H-M   'P 1'
_symmetry_Int_Tables_number      1
_space_group_name_Hall           'P 1'
loop_
_symmetry_equiv_pos_site_id
_symmetry_equiv_pos_as_xyz
1 x,y,z
_cell_length_a                   30.6044(4)
_cell_length_b                   30.6044(4)
_cell_length_c                   14.9016(3)
_cell_angle_alpha                90
_cell_angle_beta                 90
_cell_angle_gamma                120
_cell_volume                     12087.4
loop_
_atom_site_label
_atom_site_type_symbol
_atom_site_fract_x
_atom_site_fract_y
_atom_site_fract_z
Zr1 Zr 0.07285(2) 0.01612(2) 0.09610(2)
O1 O 0.09006(7) 0.06635(7) 0.21455(12)
O2 O 0.03524(7) 0.09553(6) 0.21022(12)
O3 O 0.31240(7) 0.52851(6) 0.60555(11)
O4 O 0.26557(7) 0.51878(6) 0.72833(12)
O5 O -0.0000 -0.0000 0.1417(2)
C1 C 0.07249(11) 0.09333(10) 0.24287(19)
C2 C 0.09690(11) 0.12530(11) 0.3233(2)
C3 C 0.09722(12) 0.16959(11) 0.3373(2)
H1 H 0.0833 0.1811 0.2943
C4 C 0.11805(12) 0.19770(11) 0.4146(2)
H2 H 0.1190 0.2283 0.4218
C5 C 0.13733(13) 0.18087(12) 0.4807(2)
C6 C 0.13773(17) 0.13667(14) 0.4653(3)
H3 H 0.1512 0.1247 0.5083
C7 C 0.11812(16) 0.10959(14) 0.3859(2)
H4 H 0.1197 0.0804 0.3758
C8 C 0.15600(13) 0.20793(11) 0.5675(2)
C9 C 0.17973(12) 0.26031(11) 0.5715(2)
H5 H 0.1850 0.2785 0.5188
C10 C 0.19587(13) 0.28617(11) 0.6528(2)
C11 C 0.18820(14) 0.25848(12) 0.7306(2)
H6 H 0.1993 0.2751 0.7853
C12 C 0.16418(15) 0.20623(12) 0.7278(2)
H7 H 0.1586 0.1880 0.7806
C13 C 0.14868(14) 0.18137(12) 0.6474(2)
H8 H 0.1331 0.1464 0.6460
C14 C 0.21922(14) 0.34190(11) 0.6561(2)
C15 C 0.25254(15) 0.37229(12) 0.5925(2)
H9 H 0.2619 0.3581 0.5464
C16 C 0.27288(14) 0.42453(12) 0.5956(2)
H10 H 0.2953 0.4447 0.5513
C17 C 0.26026(11) 0.44649(10) 0.66304(19)
C18 C 0.22731(16) 0.41633(12) 0.7264(2)
H11 H 0.2181 0.4304 0.7728
C19 C 0.20721(17) 0.36435(13) 0.7226(3)
H12 H 0.1848 0.3443 0.7671
C20 C 0.28121(10) 0.50183(10) 0.66556(18)
O11 O 0.05560(9) 0.07153(11) 0.04703(13)
Zr6 Zr 0.27660(3) 0.59382(2) 0.76277(2)
Zr11 Zr 0.34945(2) 0.60994(3) 0.57057(2)
O17 O 0.02093(7) 0.13816(6) 0.06112(11)
O21 O 0.14789(6) 0.08012(9) 0.06166(12)
O5_2 O -0.0000 1.0000 0.1417(2)
O6 O 0.01593(7) 0.94440(9) 0.04703(13)
O13 O 0.06029(9) 0.96476(7) 0.21022(12)
O14 O 0.21611(9) 0.68760(7) 0.60555(11)
O15 O 0.25321(9) 0.73443(7) 0.72833(12)
C41 C 0.02084(15) 0.92751(11) 0.24287(19)
C42 C 0.02840(16) 0.90310(11) 0.3233(2)
C43 C 0.07237(16) 0.90278(12) 0.3373(2)
H25 H 0.0978 0.9167 0.2943
C44 C 0.07965(16) 0.88195(12) 0.4146(2)
H26 H 0.1093 0.8810 0.4218
C45 C 0.04354(18) 0.86267(13) 0.4807(2)
C48 C 0.05193(17) 0.84400(13) 0.5675(2)
C49 C 0.08058(16) 0.82027(12) 0.5715(2)
H29 H 0.0935 0.8150 0.5188
C50 C 0.09030(17) 0.80413(13) 0.6528(2)
C51 C 0.07028(18) 0.81180(14) 0.7306(2)
H30 H 0.0758 0.8007 0.7853
C52 C 0.04205(19) 0.83582(15) 0.7278(2)
H31 H 0.0294 0.8414 0.7806
C53 C 0.03269(18) 0.85132(14) 0.6474(2)
H32 H 0.0133 0.8669 0.6460
C54 C 0.12268(18) 0.78078(14) 0.6561(2)
C55 C 0.11975(19) 0.74746(15) 0.5925(2)
H33 H 0.0962 0.7381 0.5464
C56 C 0.15165(18) 0.72712(14) 0.5956(2)
H34 H 0.1494 0.7047 0.5513
C57 C 0.18623(15) 0.73974(11) 0.66304(19)
C58 C 0.18902(20) 0.77269(16) 0.7264(2)
H35 H 0.2123 0.7819 0.7728
C59 C 0.15714(21) 0.79279(17) 0.7226(3)
H36 H 0.1595 0.8152 0.7671
C60 C 0.22062(14) 0.71879(10) 0.66556(18)
Zr5 Zr 0.31721(2) 0.72340(3) 0.76277(2)
Zr10 Zr 0.26048(2) 0.65055(2) 0.57057(2)
O19 O 0.11722(9) 0.97907(7) 0.06112(11)
O5_3 O 1.0000 -0.0000 0.1417(2)
Zr2 Zr 0.98388(2) 0.05673(3) 0.09610(2)
O7 O 0.93365(7) 0.02371(10) 0.21455(12)
C26 C 0.86333(14) 0.00106(22) 0.4653(3)
H15 H 0.8753 0.0265 0.5083
C27 C 0.89041(14) 0.00853(21) 0.3859(2)
H16 H 0.9196 0.0393 0.3758
O22 O 0.91988(9) 0.06776(7) 0.06166(12)
O5_4 O 1.0000 1.0000 0.1417(2)
O8 O 0.90447(6) 0.93971(9) 0.21022(12)
O9 O 0.47149(6) 0.78389(9) 0.60555(11)
O10 O 0.48122(6) 0.74679(9) 0.72833(12)
C21 C 0.90667(10) 0.97916(15) 0.24287(19)
C22 C 0.87470(11) 0.97160(16) 0.3233(2)
C23 C 0.83041(11) 0.92763(16) 0.3373(2)
H13 H 0.8189 0.9022 0.2943
C24 C 0.80230(11) 0.92035(16) 0.4146(2)
H14 H 0.7717 0.8907 0.4218
C25 C 0.81913(12) 0.95646(18) 0.4807(2)
C28 C 0.79207(11) 0.94807(17) 0.5675(2)
C29 C 0.73969(11) 0.91942(16) 0.5715(2)
H17 H 0.7215 0.9065 0.5188
C30 C 0.71383(11) 0.90970(17) 0.6528(2)
C31 C 0.74152(12) 0.92972(18) 0.7306(2)
H18 H 0.7249 0.9242 0.7853
C32 C 0.79377(12) 0.95795(19) 0.7278(2)
H19 H 0.8120 0.9706 0.7806
C33 C 0.81863(12) 0.96731(18) 0.6474(2)
H20 H 0.8536 0.9867 0.6460
C34 C 0.65810(11) 0.87732(18) 0.6561(2)
C35 C 0.62771(12) 0.88025(19) 0.5925(2)
H21 H 0.6419 0.9038 0.5464
C36 C 0.57547(12) 0.84835(18) 0.5956(2)
H22 H 0.5553 0.8506 0.5513
C37 C 0.55351(10) 0.81377(15) 0.66304(19)
C38 C 0.58367(12) 0.81098(20) 0.7264(2)
H23 H 0.5696 0.7877 0.7728
C39 C 0.63565(13) 0.84286(21) 0.7226(3)
H24 H 0.6557 0.8405 0.7671
C40 C 0.49817(10) 0.77938(14) 0.66556(18)
Zr3 Zr 0.94327(3) 0.92715(2) 0.09610(2)
O12 O 0.97629(10) 0.90994(7) 0.21455(12)
O16 O 0.92847(11) 0.98407(7) 0.04703(13)
C46 C 0.99894(22) 0.86227(17) 0.4653(3)
H27 H 0.9735 0.8488 0.5083
C47 C 0.99147(21) 0.88188(16) 0.3859(2)
H28 H 0.9607 0.8803 0.3758
Zr4 Zr 0.40618(2) 0.68279(2) 0.76277(2)
Zr12 Zr 0.39006(3) 0.73952(2) 0.57057(2)
O18 O 0.86184(6) 0.88278(9) 0.06112(11)
O20 O 0.93224(7) 0.85211(6) 0.06166(12)
C11_2 C 0.85487(14) 0.59181(12) 0.0639(2)
H6_2 H 0.8660 0.6084 0.1186
C12_2 C 0.83085(15) 0.53956(12) 0.0611(2)
H7_2 H 0.8253 0.5213 0.1139
C18_2 C 0.89398(16) 0.74966(12) 0.0597(2)
H11_2 H 0.8848 0.7637 0.1061
C19_2 C 0.87388(17) 0.69768(13) 0.0559(3)
H12_2 H 0.8515 0.6776 0.1004
C31_2 C 0.40819(12) 0.26305(18) 0.0639(2)
H18_2 H 0.3916 0.2575 0.1186
C32_2 C 0.46044(12) 0.29128(19) 0.0611(2)
H19_2 H 0.4787 0.3039 0.1139
C38_2 C 0.25034(12) 0.14431(20) 0.0597(2)
H23_2 H 0.2363 0.1210 0.1061
C39_2 C 0.30232(13) 0.17619(21) 0.0559(3)
H24_2 H 0.3224 0.1738 0.1004
C51_2 C 0.73695(18) 0.14513(14) 0.0639(2)
H30_2 H 0.7425 0.1340 0.1186
C52_2 C 0.70872(19) 0.16915(15) 0.0611(2)
H31_2 H 0.6961 0.1747 0.1139
C58_2 C 0.85569(20) 0.10602(16) 0.0597(2)
H35_2 H 0.8790 0.1152 0.1061
C59_2 C 0.82381(21) 0.12612(17) 0.0559(3)
H36_2 H 0.8262 0.1485 0.1004
O1_2 O 0.42339(7) 0.73302(7) 0.88122(12)
O2_2 O 0.36857(7) 0.76220(6) 0.87689(12)
O5_5 O 0.3333 0.6667 0.8084(2)
O6_2 O 0.34926(7) 0.61107(9) 0.71370(13)
C1_2 C 0.40582(11) 0.76000(10) 0.90954(19)
C2_2 C 0.43023(11) 0.79197(11) 0.9900(2)
H1_2 H 0.4166 0.8478 0.9610
O7_2 O 0.26698(7) 0.69038(10) 0.88122(12)
O8_2 O 0.23780(6) 0.60638(9) 0.87689(12)
O11_2 O 0.38893(9) 0.73820(11) 0.71370(13)
C21_2 C 0.24000(10) 0.64583(15) 0.90954(19)
C22_2 C 0.20803(11) 0.63827(16) 0.9900(2)
H13_2 H 0.1522 0.5689 0.9610
O12_2 O 0.30962(10) 0.57661(7) 0.88122(12)
O13_2 O 0.39362(9) 0.63143(7) 0.87689(12)
O16_2 O 0.26180(11) 0.65074(7) 0.71370(13)
C41_2 C 0.35417(15) 0.59418(11) 0.90954(19)
C42_2 C 0.36173(16) 0.56977(11) 0.9900(2)
H25_2 H 0.4311 0.5834 0.9610
O17_2 O 0.35427(7) 0.80482(6) 0.72778(11)
O18_2 O 0.19518(6) 0.54944(9) 0.72778(11)
O19_2 O 0.45056(9) 0.64573(7) 0.72778(11)
O23 O 0.31740(7) 0.72227(9) 0.61964(13)
O24 O 0.27773(9) 0.59514(11) 0.61964(13)
O25 O 0.40486(11) 0.68260(7) 0.61964(13)
O1_3 O 0.24327(7) 0.60032(7) 0.45212(12)
O2_3 O 0.29809(7) 0.57114(6) 0.45645(12)
O5_6 O 0.3333 0.6667 0.5250(2)
C1_3 C 0.26084(11) 0.57334(10) 0.42380(19)
C2_3 C 0.23643(11) 0.54137(11) 0.3434(2)
C3_2 C 0.23611(12) 0.49708(11) 0.3294(2)
H1_3 H 0.2500 0.4856 0.3724
C4_2 C 0.21528(12) 0.46897(11) 0.2521(2)
H2_2 H 0.2143 0.4384 0.2449
C5_2 C 0.19600(13) 0.48580(12) 0.1860(2)
C6_2 C 0.19560(17) 0.53000(14) 0.2014(3)
H3_2 H 0.1821 0.5420 0.1584
C7_2 C 0.21521(16) 0.55708(14) 0.2808(2)
H4_2 H 0.2136 0.5863 0.2909
C8_2 C 0.17733(13) 0.45874(11) 0.0992(2)
C9_2 C 0.15360(12) 0.40636(11) 0.0952(2)
H5_2 H 0.1483 0.3882 0.1479
C10_2 C 0.13746(13) 0.38050(11) 0.0139(2)
C13_2 C 0.18465(14) 0.48530(12) 0.0193(2)
H8_2 H 0.2002 0.5203 0.0207
C14_2 C 0.11411(14) 0.32477(11) 0.0106(2)
C15_2 C 0.08079(15) 0.29438(12) 0.0742(2)
H9_2 H 0.0714 0.3086 0.1203
C16_2 C 0.06045(14) 0.24214(12) 0.0711(2)
H10_2 H 0.0380 0.2220 0.1154
C17_2 C 0.07307(11) 0.22018(10) 0.00363(19)
C20_2 C 0.05212(10) 0.16484(10) 0.00111(18)
O7_3 O 0.39968(7) 0.64296(10) 0.45212(12)
O8_3 O 0.42886(6) 0.72696(9) 0.45645(12)
C21_3 C 0.42666(10) 0.68751(15) 0.42380(19)
C22_3 C 0.45863(11) 0.69507(16) 0.3434(2)
C23_2 C 0.50292(11) 0.73904(16) 0.3294(2)
H13_3 H 0.5144 0.7645 0.3724
C24_2 C 0.53103(11) 0.74632(16) 0.2521(2)
H14_2 H 0.5616 0.7760 0.2449
C25_2 C 0.51420(12) 0.71021(18) 0.1860(2)
C26_2 C 0.47000(14) 0.66561(22) 0.2014(3)
H15_2 H 0.4580 0.6402 0.1584
C27_2 C 0.44292(14) 0.65814(21) 0.2808(2)
H16_2 H 0.4137 0.6274 0.2909
C28_2 C 0.54126(11) 0.71860(17) 0.0992(2)
C29_2 C 0.59364(11) 0.74725(16) 0.0952(2)
H17_2 H 0.6118 0.7602 0.1479
C30_2 C 0.61950(11) 0.75697(17) 0.0139(2)
C33_2 C 0.51470(12) 0.69936(18) 0.0193(2)
H20_2 H 0.4797 0.6800 0.0207
C34_2 C 0.67523(11) 0.78935(18) 0.0106(2)
C35_2 C 0.70562(12) 0.78642(19) 0.0742(2)
H21_2 H 0.6914 0.7629 0.1203
C36_2 C 0.75786(12) 0.81832(18) 0.0711(2)
H22_2 H 0.7780 0.8161 0.1154
C37_2 C 0.77982(10) 0.85290(15) 0.00363(19)
C40_2 C 0.83516(10) 0.88729(14) 0.00111(18)
O12_3 O 0.35704(10) 0.75673(7) 0.45212(12)
O13_3 O 0.27304(9) 0.70191(7) 0.45645(12)
C41_3 C 0.31249(15) 0.73916(11) 0.42380(19)
C42_3 C 0.30493(16) 0.76357(11) 0.3434(2)
C43_2 C 0.26096(16) 0.76389(12) 0.3294(2)
H25_3 H 0.2355 0.7500 0.3724
C44_2 C 0.25368(16) 0.78472(12) 0.2521(2)
H26_2 H 0.2240 0.7857 0.2449
C45_2 C 0.28979(18) 0.80400(13) 0.1860(2)
C46_2 C 0.33439(22) 0.80440(17) 0.2014(3)
H27_2 H 0.3598 0.8179 0.1584
C47_2 C 0.34186(21) 0.78479(16) 0.2808(2)
H28_2 H 0.3726 0.7864 0.2909
C48_2 C 0.28140(17) 0.82267(13) 0.0992(2)
C49_2 C 0.25275(16) 0.84640(12) 0.0952(2)
H29_2 H 0.2398 0.8517 0.1479
C50_2 C 0.24303(17) 0.86254(13) 0.0139(2)
C53_2 C 0.30064(18) 0.81535(14) 0.0193(2)
H32_2 H 0.3200 0.7998 0.0207
C54_2 C 0.21065(18) 0.88589(14) 0.0106(2)
C55_2 C 0.21358(19) 0.91921(15) 0.0742(2)
H33_2 H 0.2371 0.9286 0.1203
C56_2 C 0.18168(18) 0.93955(14) 0.0711(2)
H34_2 H 0.1839 0.9620 0.1154
C57_2 C 0.14710(15) 0.92693(11) 0.00363(19)
C60_2 C 0.11271(14) 0.94788(10) 0.00111(18)
O20_2 O 0.40110(7) 0.81455(6) 0.60500(12)
O21_2 O 0.18545(6) 0.58654(9) 0.60500(12)
O22_2 O 0.41346(9) 0.59890(7) 0.60500(12)
C34_3 C 0.00857(11) 0.45601(18) 0.6772(2)
C35_3 C 0.03896(12) 0.45308(19) 0.7408(2)
H21_3 H 0.0248 0.4295 0.7869
C36_3 C 0.09120(12) 0.48498(18) 0.7377(2)
H22_3 H 0.1114 0.4827 0.7820
C37_3 C 0.11316(10) 0.51956(15) 0.67029(19)
C38_3 C 0.08300(12) 0.52235(20) 0.6069(2)
H23_3 H 0.0971 0.5456 0.5605
C39_3 C 0.03102(13) 0.49047(21) 0.6107(3)
H24_3 H 0.0110 0.4928 0.5662
C40_3 C 0.16850(10) 0.55395(14) 0.66777(18)
C3_3 C 0.56945(12) 0.16374(11) 0.9960(2)
C4_3 C 0.54862(12) 0.13563(11) 0.9187(2)
H2_3 H 0.5477 0.1050 0.9115
C5_3 C 0.52934(13) 0.15246(12) 0.8526(2)
C6_3 C 0.52894(17) 0.19666(14) 0.8680(3)
H3_3 H 0.5155 0.2086 0.8250
C7_3 C 0.54855(16) 0.22374(14) 0.9474(2)
H4_3 H 0.5470 0.2529 0.9575
C8_3 C 0.51067(13) 0.12540(11) 0.7658(2)
C9_3 C 0.48694(12) 0.07302(11) 0.7618(2)
H5_3 H 0.4817 0.0548 0.8145
C10_3 C 0.47080(13) 0.04716(11) 0.6805(2)
C11_3 C 0.47847(14) 0.07485(12) 0.6027(2)
H6_3 H 0.4674 0.0582 0.5480
C12_3 C 0.50249(15) 0.12710(12) 0.6055(2)
H7_3 H 0.5081 0.1453 0.5527
C13_3 C 0.51799(14) 0.15196(12) 0.6859(2)
H8_3 H 0.5336 0.1869 0.6873
C23_3 C 0.83626(11) 0.40570(16) 0.9960(2)
C24_3 C 0.86437(11) 0.41298(16) 0.9187(2)
H14_3 H 0.8950 0.4426 0.9115
C25_3 C 0.84754(12) 0.37687(18) 0.8526(2)
C26_3 C 0.80334(14) 0.33227(22) 0.8680(3)
H15_3 H 0.7914 0.3068 0.8250
C27_3 C 0.77626(14) 0.32480(21) 0.9474(2)
H16_3 H 0.7471 0.2940 0.9575
C28_3 C 0.87460(11) 0.38526(17) 0.7658(2)
C29_3 C 0.92698(11) 0.41391(16) 0.7618(2)
H17_3 H 0.9452 0.4268 0.8145
C30_3 C 0.95284(11) 0.42363(17) 0.6805(2)
C31_3 C 0.92515(12) 0.40361(18) 0.6027(2)
H18_3 H 0.9418 0.4091 0.5480
C32_3 C 0.87290(12) 0.37538(19) 0.6055(2)
H19_3 H 0.8547 0.3627 0.5527
C33_3 C 0.84804(12) 0.36602(18) 0.6859(2)
H20_3 H 0.8131 0.3466 0.6873
C43_3 C 0.59430(16) 0.43055(12) 0.9960(2)
C44_3 C 0.58702(16) 0.45138(12) 0.9187(2)
H26_3 H 0.5574 0.4523 0.9115
C45_3 C 0.62313(18) 0.47066(13) 0.8526(2)
C46_3 C 0.66773(22) 0.47106(17) 0.8680(3)
H27_3 H 0.6932 0.4845 0.8250
C47_3 C 0.67520(21) 0.45145(16) 0.9474(2)
H28_3 H 0.7060 0.4530 0.9575
C48_3 C 0.61474(17) 0.48933(13) 0.7658(2)
C49_3 C 0.58609(16) 0.51306(12) 0.7618(2)
H29_3 H 0.5732 0.5183 0.8145
C50_3 C 0.57637(17) 0.52920(13) 0.6805(2)
C51_3 C 0.59639(18) 0.52153(14) 0.6027(2)
H30_3 H 0.5909 0.5326 0.5480
C52_3 C 0.62462(19) 0.49751(15) 0.6055(2)
H31_3 H 0.6373 0.4919 0.5527
C53_3 C 0.63398(18) 0.48201(14) 0.6859(2)
H32_3 H 0.6534 0.4664 0.6873
C54_3 C 0.54399(18) 0.55255(14) 0.6772(2)
C55_3 C 0.54692(19) 0.58587(15) 0.7408(2)
H33_3 H 0.5705 0.5952 0.7869
C56_3 C 0.51502(18) 0.60621(14) 0.7377(2)
H34_3 H 0.5173 0.6286 0.7820
C57_3 C 0.48044(15) 0.59359(11) 0.67029(19)
C58_3 C 0.47765(20) 0.56064(16) 0.6069(2)
H35_3 H 0.4544 0.5514 0.5605
C59_3 C 0.50953(21) 0.54054(17) 0.6107(3)
H36_3 H 0.5072 0.5181 0.5662
C60_3 C 0.44605(14) 0.61454(10) 0.66777(18)
C14_3 C 0.44745(14) 0.99143(11) 0.6772(2)
C15_3 C 0.41413(15) 0.96104(12) 0.7408(2)
H9_3 H 0.4048 0.9752 0.7869
C16_3 C 0.39379(14) 0.90880(12) 0.7377(2)
H10_3 H 0.3714 0.8886 0.7820
C17_3 C 0.40641(11) 0.88684(10) 0.67029(19)
C18_3 C 0.43936(16) 0.91700(12) 0.6069(2)
H11_3 H 0.4486 0.9029 0.5605
C19_3 C 0.45946(17) 0.96898(13) 0.6107(3)
H12_3 H 0.4819 0.9890 0.5662
C20_3 C 0.38546(10) 0.83150(10) 0.66777(18)
Zr9 Zr 0.05673(3) 0.07285(2) 0.90390(2)
O25_2 O 0.07153(11) 0.01593(7) 0.95297(13)
Zr8 Zr 0.01612(2) 0.94327(3) 0.90390(2)
O23_2 O 0.98407(7) 0.05560(9) 0.95297(13)
Zr7 Zr 0.92715(2) 0.98388(2) 0.90390(2)
O24_2 O 0.94440(9) 0.92847(11) 0.95297(13)
Zr1_2 Zr 0.73952(2) 0.34945(2) 0.42943(2)
O1_4 O 0.75673(7) 0.39968(7) 0.54788(12)
O2_4 O 0.70191(7) 0.42886(6) 0.54355(12)
O3_2 O 0.97907(7) 0.86184(6) 0.93888(11)
O5_7 O 0.6667 0.3333 0.4750(2)
O6_3 O 0.68260(7) 0.27773(9) 0.38036(13)
C1_4 C 0.73916(11) 0.42666(10) 0.57620(19)
C2_4 C 0.76357(11) 0.45863(11) 0.6566(2)
C3_4 C 0.76389(12) 0.50292(11) 0.6706(2)
H1_4 H 0.7500 0.5144 0.6276
C4_4 C 0.78472(12) 0.53103(11) 0.7479(2)
H2_4 H 0.7857 0.5616 0.7551
C5_4 C 0.80400(13) 0.51420(12) 0.8140(2)
C6_4 C 0.80440(17) 0.47000(14) 0.7986(3)
H3_4 H 0.8179 0.4580 0.8416
C7_4 C 0.78479(16) 0.44292(14) 0.7192(2)
H4_4 H 0.7864 0.4137 0.7091
C8_4 C 0.82267(13) 0.54126(11) 0.9008(2)
C9_4 C 0.84640(12) 0.59364(11) 0.9048(2)
H5_4 H 0.8517 0.6118 0.8521
C10_4 C 0.86254(13) 0.61950(11) 0.9861(2)
C13_4 C 0.81535(14) 0.51470(12) 0.9807(2)
H8_4 H 0.7998 0.4797 0.9793
C14_4 C 0.88589(14) 0.67523(11) 0.9894(2)
C15_4 C 0.91921(15) 0.70562(12) 0.9258(2)
H9_4 H 0.9286 0.6914 0.8797
C16_4 C 0.93955(14) 0.75786(12) 0.9289(2)
H10_4 H 0.9620 0.7780 0.8846
C17_4 C 0.92693(11) 0.77982(10) 0.99637(19)
C20_4 C 0.94788(10) 0.83516(10) 0.99889(18)
Zr2_2 Zr 0.65055(2) 0.39006(3) 0.42943(2)
O7_4 O 0.60032(7) 0.35704(10) 0.54788(12)
O8_4 O 0.57114(6) 0.27304(9) 0.54355(12)
O9_2 O 0.13816(6) 0.11722(9) 0.93888(11)
O11_3 O 0.72227(9) 0.40486(11) 0.38036(13)
C21_4 C 0.57334(10) 0.31249(15) 0.57620(19)
C22_4 C 0.54137(11) 0.30493(16) 0.6566(2)
C23_4 C 0.49708(11) 0.26096(16) 0.6706(2)
H13_4 H 0.4856 0.2355 0.6276
C24_4 C 0.46897(11) 0.25368(16) 0.7479(2)
H14_4 H 0.4384 0.2240 0.7551
C25_4 C 0.48580(12) 0.28979(18) 0.8140(2)
C26_4 C 0.53000(14) 0.33439(22) 0.7986(3)
H15_4 H 0.5420 0.3598 0.8416
C27_4 C 0.55708(14) 0.34186(21) 0.7192(2)
H16_4 H 0.5863 0.3726 0.7091
C28_4 C 0.45874(11) 0.28140(17) 0.9008(2)
C29_4 C 0.40636(11) 0.25275(16) 0.9048(2)
H17_4 H 0.3882 0.2398 0.8521
C30_4 C 0.38050(11) 0.24303(17) 0.9861(2)
C33_4 C 0.48530(12) 0.30064(18) 0.9807(2)
H20_4 H 0.5203 0.3200 0.9793
C34_4 C 0.32477(11) 0.21065(18) 0.9894(2)
C35_4 C 0.29438(12) 0.21358(19) 0.9258(2)
H21_4 H 0.3086 0.2371 0.8797
C36_4 C 0.24214(12) 0.18168(18) 0.9289(2)
H22_4 H 0.2220 0.1839 0.8846
C37_4 C 0.22018(10) 0.14710(15) 0.99637(19)
C40_4 C 0.16484(10) 0.11271(14) 0.99889(18)
Zr3_2 Zr 0.60994(3) 0.26048(2) 0.42943(2)
O12_4 O 0.64296(10) 0.24327(7) 0.54788(12)
O13_4 O 0.72696(9) 0.29809(7) 0.54355(12)
O14_2 O 0.88278(9) 0.02093(7) 0.93888(11)
O16_3 O 0.59514(11) 0.31740(7) 0.38036(13)
C41_4 C 0.68751(15) 0.26084(11) 0.57620(19)
C42_4 C 0.69507(16) 0.23643(11) 0.6566(2)
C43_4 C 0.73904(16) 0.23611(12) 0.6706(2)
H25_4 H 0.7645 0.2500 0.6276
C44_4 C 0.74632(16) 0.21528(12) 0.7479(2)
H26_4 H 0.7760 0.2143 0.7551
C45_4 C 0.71021(18) 0.19600(13) 0.8140(2)
C46_4 C 0.66561(22) 0.19560(17) 0.7986(3)
H27_4 H 0.6402 0.1821 0.8416
C47_4 C 0.65814(21) 0.21521(16) 0.7192(2)
H28_4 H 0.6274 0.2136 0.7091
C48_4 C 0.71860(17) 0.17733(13) 0.9008(2)
C49_4 C 0.74725(16) 0.15360(12) 0.9048(2)
H29_4 H 0.7602 0.1483 0.8521
C50_4 C 0.75697(17) 0.13746(13) 0.9861(2)
C53_4 C 0.69936(18) 0.18465(14) 0.9807(2)
H32_4 H 0.6800 0.2002 0.9793
C54_4 C 0.78935(18) 0.11411(14) 0.9894(2)
C55_4 C 0.78642(19) 0.08079(15) 0.9258(2)
H33_4 H 0.7629 0.0714 0.8797
C56_4 C 0.81832(18) 0.06045(14) 0.9289(2)
H34_4 H 0.8161 0.0380 0.8846
C57_4 C 0.85290(15) 0.07307(11) 0.99637(19)
C60_4 C 0.88729(14) 0.05212(10) 0.99889(18)
Zr7_2 Zr 0.59382(2) 0.31721(2) 0.23723(2)
Zr8_2 Zr 0.68279(2) 0.27660(3) 0.23723(2)
Zr9_2 Zr 0.72340(3) 0.40618(2) 0.23723(2)
O17_3 O 0.68760(7) 0.47149(6) 0.39445(11)
O18_3 O 0.52851(6) 0.21611(9) 0.39445(11)
O19_3 O 0.78389(9) 0.31240(7) 0.39445(11)
O20_3 O 0.59890(7) 0.18545(6) 0.39500(12)
O21_3 O 0.81455(6) 0.41346(9) 0.39500(12)
O22_3 O 0.58654(9) 0.40110(7) 0.39500(12)
O23_3 O 0.65074(7) 0.38893(9) 0.28630(13)
O24_3 O 0.61107(9) 0.26180(11) 0.28630(13)
O25_3 O 0.73820(11) 0.34926(7) 0.28630(13)
O3_3 O 0.64573(7) 0.19518(6) 0.27222(11)
C14_5 C 0.55255(14) 0.00857(11) 0.3228(2)
C15_5 C 0.58587(15) 0.03896(12) 0.2592(2)
H9_5 H 0.5952 0.0248 0.2131
C16_5 C 0.60621(14) 0.09120(12) 0.2623(2)
H10_5 H 0.6286 0.1114 0.2180
C17_5 C 0.59359(11) 0.11316(10) 0.32971(19)
C18_4 C 0.56064(16) 0.08300(12) 0.3931(2)
H11_4 H 0.5514 0.0971 0.4395
C19_4 C 0.54054(17) 0.03102(13) 0.3893(3)
H12_4 H 0.5181 0.0110 0.4338
C20_5 C 0.61454(10) 0.16850(10) 0.33223(18)
C3_5 C 0.43055(12) 0.83626(11) 0.0040(2)
C4_5 C 0.45138(12) 0.86437(11) 0.0813(2)
H2_5 H 0.4523 0.8950 0.0885
C5_5 C 0.47066(13) 0.84754(12) 0.1474(2)
C6_5 C 0.47106(17) 0.80334(14) 0.1320(3)
H3_5 H 0.4845 0.7914 0.1750
C7_5 C 0.45145(16) 0.77626(14) 0.0526(2)
H4_5 H 0.4530 0.7471 0.0425
C8_5 C 0.48933(13) 0.87460(11) 0.2342(2)
C9_5 C 0.51306(12) 0.92698(11) 0.2382(2)
H5_5 H 0.5183 0.9452 0.1855
C10_5 C 0.52920(13) 0.95284(11) 0.3195(2)
C11_4 C 0.52153(14) 0.92515(12) 0.3973(2)
H6_4 H 0.5326 0.9418 0.4520
C12_4 C 0.49751(15) 0.87290(12) 0.3945(2)
H7_4 H 0.4919 0.8547 0.4473
C13_5 C 0.48201(14) 0.84804(12) 0.3141(2)
H8_5 H 0.4664 0.8131 0.3127
C23_5 C 0.16374(11) 0.59430(16) 0.0040(2)
C24_5 C 0.13563(11) 0.58702(16) 0.0813(2)
H14_5 H 0.1050 0.5574 0.0885
C25_5 C 0.15246(12) 0.62313(18) 0.1474(2)
C26_5 C 0.19666(14) 0.66773(22) 0.1320(3)
H15_5 H 0.2086 0.6932 0.1750
C27_5 C 0.22374(14) 0.67520(21) 0.0526(2)
H16_5 H 0.2529 0.7060 0.0425
C28_5 C 0.12540(11) 0.61474(17) 0.2342(2)
C29_5 C 0.07302(11) 0.58609(16) 0.2382(2)
H17_5 H 0.0548 0.5732 0.1855
C30_5 C 0.04716(11) 0.57637(17) 0.3195(2)
C31_4 C 0.07485(12) 0.59639(18) 0.3973(2)
H18_4 H 0.0582 0.5909 0.4520
C32_4 C 0.12710(12) 0.62462(19) 0.3945(2)
H19_4 H 0.1453 0.6373 0.4473
C33_5 C 0.15196(12) 0.63398(18) 0.3141(2)
H20_5 H 0.1869 0.6534 0.3127
O14_3 O 0.54944(9) 0.35427(7) 0.27222(11)
C43_5 C 0.40570(16) 0.56945(12) 0.0040(2)
C44_5 C 0.41298(16) 0.54862(12) 0.0813(2)
H26_5 H 0.4426 0.5477 0.0885
C45_5 C 0.37687(18) 0.52934(13) 0.1474(2)
C46_5 C 0.33227(22) 0.52894(17) 0.1320(3)
H27_5 H 0.3068 0.5155 0.1750
C47_5 C 0.32480(21) 0.54855(16) 0.0526(2)
H28_5 H 0.2940 0.5470 0.0425
C48_5 C 0.38526(17) 0.51067(13) 0.2342(2)
C49_5 C 0.41391(16) 0.48694(12) 0.2382(2)
H29_5 H 0.4268 0.4817 0.1855
C50_5 C 0.42363(17) 0.47080(13) 0.3195(2)
C51_4 C 0.40361(18) 0.47847(14) 0.3973(2)
H30_4 H 0.4091 0.4674 0.4520
C52_4 C 0.37538(19) 0.50249(15) 0.3945(2)
H31_4 H 0.3627 0.5081 0.4473
C53_5 C 0.36602(18) 0.51799(14) 0.3141(2)
H32_5 H 0.3466 0.5336 0.3127
C54_5 C 0.45601(18) 0.44745(14) 0.3228(2)
C55_5 C 0.45308(19) 0.41413(15) 0.2592(2)
H33_5 H 0.4295 0.4048 0.2131
C56_5 C 0.48498(18) 0.39379(14) 0.2623(2)
H34_5 H 0.4827 0.3714 0.2180
C57_5 C 0.51956(15) 0.40641(11) 0.32971(19)
C58_4 C 0.52235(20) 0.43936(16) 0.3931(2)
H35_4 H 0.5456 0.4486 0.4395
C59_4 C 0.49047(21) 0.45946(17) 0.3893(3)
H36_4 H 0.4928 0.4819 0.4338
C60_5 C 0.55395(14) 0.38546(10) 0.33223(18)
O9_3 O 0.80482(6) 0.45056(9) 0.27222(11)
C34_5 C 0.99143(11) 0.54399(18) 0.3228(2)
C35_5 C 0.96104(12) 0.54692(19) 0.2592(2)
H21_5 H 0.9752 0.5705 0.2131
C36_5 C 0.90880(12) 0.51502(18) 0.2623(2)
H22_5 H 0.8886 0.5173 0.2180
C37_5 C 0.88684(10) 0.48044(15) 0.32971(19)
C38_4 C 0.91700(12) 0.47765(20) 0.3931(2)
H23_4 H 0.9029 0.4544 0.4395
C39_4 C 0.96898(13) 0.50953(21) 0.3893(3)
H24_4 H 0.9890 0.5072 0.4338
C40_5 C 0.83150(10) 0.44605(14) 0.33223(18)
O5_8 O 0.0000 0.0000 0.8583(2)
O8_5 O 0.09553(6) 0.06029(9) 0.78978(12)
O10_2 O 0.51878(6) 0.25321(9) 0.27167(12)
C21_5 C 0.09333(10) 0.02084(15) 0.75713(19)
C22_5 C 0.12530(11) 0.02840(16) 0.6767(2)
C23_6 C 0.16959(11) 0.07237(16) 0.6627(2)
H13_5 H 0.1811 0.0978 0.7057
C24_6 C 0.19770(11) 0.07965(16) 0.5854(2)
H14_6 H 0.2283 0.1093 0.5782
C25_6 C 0.18087(12) 0.04354(18) 0.5193(2)
C28_6 C 0.20793(11) 0.05193(17) 0.4325(2)
C29_6 C 0.26031(11) 0.08058(16) 0.4285(2)
H17_6 H 0.2785 0.0935 0.4812
C30_6 C 0.28617(11) 0.09030(17) 0.3472(2)
C31_5 C 0.25848(12) 0.07028(18) 0.2694(2)
H18_5 H 0.2751 0.0758 0.2147
C32_5 C 0.20623(12) 0.04205(19) 0.2722(2)
H19_5 H 0.1880 0.0294 0.2194
C33_6 C 0.18137(12) 0.03269(18) 0.3526(2)
H20_6 H 0.1464 0.0133 0.3540
C34_6 C 0.34190(11) 0.12268(18) 0.3439(2)
C35_6 C 0.37229(12) 0.11975(19) 0.4075(2)
H21_6 H 0.3581 0.0962 0.4536
C36_6 C 0.42453(12) 0.15165(18) 0.4044(2)
H22_6 H 0.4447 0.1494 0.4487
C37_6 C 0.44649(10) 0.18623(15) 0.33696(19)
C38_5 C 0.41633(12) 0.18902(20) 0.2736(2)
H23_5 H 0.4304 0.2123 0.2272
C39_5 C 0.36435(13) 0.15714(21) 0.2774(3)
H24_5 H 0.3443 0.1595 0.2329
C40_6 C 0.50183(10) 0.22062(14) 0.33444(18)
O12_5 O 0.02371(10) 0.09006(7) 0.78545(12)
C46_6 C 0.00106(22) 0.13773(17) 0.5347(3)
H27_6 H 0.0265 0.1512 0.4917
C47_6 C 0.00853(21) 0.11812(16) 0.6141(2)
H28_6 H 0.0393 0.1197 0.6242
O20_4 O 0.06776(7) 0.14789(6) 0.93834(12)
O5_9 O -0.0000 1.0000 0.8583(2)
O7_5 O 0.06635(7) 0.97629(10) 0.78545(12)
C26_6 C 0.13667(14) 0.99894(22) 0.5347(3)
H15_6 H 0.1247 0.9735 0.4917
C27_6 C 0.10959(14) 0.99147(21) 0.6141(2)
H16_6 H 0.0804 0.9607 0.6242
O22_4 O 0.08012(9) 0.93224(7) 0.93834(12)
O5_10 O 1.0000 0.0000 0.8583(2)
O13_5 O 0.93971(9) 0.03524(7) 0.78978(12)
O15_2 O 0.74679(9) 0.26557(7) 0.27167(12)
C41_5 C 0.97916(15) 0.07249(11) 0.75713(19)
C42_5 C 0.97160(16) 0.09690(11) 0.6767(2)
C43_6 C 0.92763(16) 0.09722(12) 0.6627(2)
H25_5 H 0.9022 0.0833 0.7057
C44_6 C 0.92035(16) 0.11805(12) 0.5854(2)
H26_6 H 0.8907 0.1190 0.5782
C45_6 C 0.95646(18) 0.13733(13) 0.5193(2)
C48_6 C 0.94807(17) 0.15600(13) 0.4325(2)
C49_6 C 0.91942(16) 0.17973(12) 0.4285(2)
H29_6 H 0.9065 0.1850 0.4812
C50_6 C 0.90970(17) 0.19587(13) 0.3472(2)
C51_5 C 0.92972(18) 0.18820(14) 0.2694(2)
H30_5 H 0.9242 0.1993 0.2147
C52_5 C 0.95795(19) 0.16418(15) 0.2722(2)
H31_5 H 0.9706 0.1586 0.2194
C53_6 C 0.96731(18) 0.14868(14) 0.3526(2)
H32_6 H 0.9867 0.1331 0.3540
C54_6 C 0.87732(18) 0.21922(14) 0.3439(2)
C55_6 C 0.88025(19) 0.25254(15) 0.4075(2)
H33_6 H 0.9038 0.2619 0.4536
C56_6 C 0.84835(18) 0.27288(14) 0.4044(2)
H34_6 H 0.8506 0.2953 0.4487
C57_6 C 0.81377(15) 0.26026(11) 0.33696(19)
C58_5 C 0.81098(20) 0.22731(16) 0.2736(2)
H35_5 H 0.7877 0.2181 0.2272
C59_5 C 0.84286(21) 0.20721(17) 0.2774(3)
H36_5 H 0.8405 0.1848 0.2329
C60_6 C 0.77938(14) 0.28121(10) 0.33444(18)
O1_5 O 0.90994(7) 0.93365(7) 0.78545(12)
O2_5 O 0.96476(7) 0.90447(6) 0.78978(12)
O4_2 O 0.73443(7) 0.48122(6) 0.27167(12)
O5_11 O 1.0000 1.0000 0.8583(2)
C1_5 C 0.92751(11) 0.90667(10) 0.75713(19)
C2_5 C 0.90310(11) 0.87470(11) 0.6767(2)
C3_6 C 0.90278(12) 0.83041(11) 0.6627(2)
H1_5 H 0.9167 0.8189 0.7057
C4_6 C 0.88195(12) 0.80230(11) 0.5854(2)
H2_6 H 0.8810 0.7717 0.5782
C5_6 C 0.86267(13) 0.81913(12) 0.5193(2)
C6_6 C 0.86227(17) 0.86333(14) 0.5347(3)
H3_6 H 0.8488 0.8753 0.4917
C7_6 C 0.88188(16) 0.89041(14) 0.6141(2)
H4_6 H 0.8803 0.9196 0.6242
C8_6 C 0.84400(13) 0.79207(11) 0.4325(2)
C9_6 C 0.82027(12) 0.73969(11) 0.4285(2)
H5_6 H 0.8150 0.7215 0.4812
C10_6 C 0.80413(13) 0.71383(11) 0.3472(2)
C11_5 C 0.81180(14) 0.74152(12) 0.2694(2)
H6_5 H 0.8007 0.7249 0.2147
C12_5 C 0.83582(15) 0.79377(12) 0.2722(2)
H7_5 H 0.8414 0.8120 0.2194
C13_6 C 0.85132(14) 0.81863(12) 0.3526(2)
H8_6 H 0.8669 0.8536 0.3540
C14_6 C 0.78078(14) 0.65810(11) 0.3439(2)
C15_6 C 0.74746(15) 0.62771(12) 0.4075(2)
H9_6 H 0.7381 0.6419 0.4536
C16_6 C 0.72712(14) 0.57547(12) 0.4044(2)
H10_6 H 0.7047 0.5553 0.4487
C17_6 C 0.73974(11) 0.55351(10) 0.33696(19)
C18_5 C 0.77269(16) 0.58367(12) 0.2736(2)
H11_5 H 0.7819 0.5696 0.2272
C19_5 C 0.79279(17) 0.63565(13) 0.2774(3)
H12_5 H 0.8152 0.6557 0.2329
C20_6 C 0.71879(10) 0.49817(10) 0.33444(18)
O21_4 O 0.85211(6) 0.91988(9) 0.93834(12)
C11_6 C 0.14513(14) 0.40819(12) 0.9361(2)
H6_6 H 0.1340 0.3916 0.8814
C12_6 C 0.16915(15) 0.46044(12) 0.9389(2)
H7_6 H 0.1747 0.4787 0.8861
C18_6 C 0.10602(16) 0.25034(12) 0.9403(2)
H11_6 H 0.1152 0.2363 0.8939
C19_6 C 0.12612(17) 0.30232(13) 0.9441(3)
H12_6 H 0.1485 0.3224 0.8996
C31_6 C 0.59181(12) 0.73695(18) 0.9361(2)
H18_6 H 0.6084 0.7425 0.8814
C32_6 C 0.53956(12) 0.70872(19) 0.9389(2)
H19_6 H 0.5213 0.6961 0.8861
C38_6 C 0.74966(12) 0.85569(20) 0.9403(2)
H23_6 H 0.7637 0.8790 0.8939
C39_6 C 0.69768(13) 0.82381(21) 0.9441(3)
H24_6 H 0.6776 0.8262 0.8996
C51_6 C 0.26305(18) 0.85487(14) 0.9361(2)
H30_6 H 0.2575 0.8660 0.8814
C52_6 C 0.29128(19) 0.83085(15) 0.9389(2)
H31_6 H 0.3039 0.8253 0.8861
C58_6 C 0.14431(20) 0.89398(16) 0.9403(2)
H35_6 H 0.1210 0.8848 0.8939
C59_6 C 0.17619(21) 0.87388(17) 0.9441(3)
H36_6 H 0.1738 0.8515 0.8996
O1_6 O 0.57661(7) 0.26698(7) 0.11878(12)
O2_6 O 0.63143(7) 0.23780(6) 0.12311(12)
O5_12 O 0.6667 0.3333 0.1916(2)
C1_6 C 0.59418(11) 0.24000(10) 0.09046(19)
C2_6 C 0.56977(11) 0.20803(11) 0.0100(2)
H1_6 H 0.5834 0.1522 0.0390
O7_6 O 0.73302(7) 0.30962(10) 0.11878(12)
O8_6 O 0.76220(6) 0.39362(9) 0.12311(12)
C21_6 C 0.76000(10) 0.35417(15) 0.09046(19)
C22_6 C 0.79197(11) 0.36173(16) 0.0100(2)
H13_6 H 0.8478 0.4311 0.0390
O12_6 O 0.69038(10) 0.42339(7) 0.11878(12)
O13_6 O 0.60638(9) 0.36857(7) 0.12311(12)
C41_6 C 0.64583(15) 0.40582(11) 0.09046(19)
C42_6 C 0.63827(16) 0.43023(11) 0.0100(2)
H25_6 H 0.5689 0.4166 0.0390
loop_
_geom_bond_atom_site_label_1
_geom_bond_atom_site_label_2
_geom_bond_site_symmetry_1
_geom_bond_site_symmetry_2
Zr1 O1 1_555 1_555
O1 C1 1_555 1_555
O2 C1 1_555 1_555
O3 C20 1_555 1_555
O4 C20 1_555 1_555
O5 Zr1 1_555 1_555
C1 C2 1_555 1_555
C2 C3 1_555 1_555
C3 H1 1_555 1_555
C4 C3 1_555 1_555
H2 C4 1_555 1_555
C5 C4 1_555 1_555
C6 C5 1_555 1_555
H3 C6 1_555 1_555
C7 C2 1_555 1_555
H4 C7 1_555 1_555
C8 C5 1_555 1_555
C9 C8 1_555 1_555
H5 C9 1_555 1_555
C10 C9 1_555 1_555
C11 C10 1_555 1_555
H6 C11 1_555 1_555
C12 C11 1_555 1_555
H7 C12 1_555 1_555
C13 C8 1_555 1_555
H8 C13 1_555 1_555
C14 C10 1_555 1_555
C15 C14 1_555 1_555
H9 C15 1_555 1_555
C16 C15 1_555 1_555
H10 C16 1_555 1_555
C17 C16 1_555 1_555
C18 C17 1_555 1_555
H11 C18 1_555 1_555
C19 C14 1_555 1_555
H12 C19 1_555 1_555
C20 C17 1_555 1_555
O11 Zr1 1_555 1_555
Zr6 O4 1_555 1_555
Zr11 O3 1_555 1_555
O21 Zr1 1_555 1_555
C6 C7 1_555 1_555
C12 C13 1_555 1_555
C18 C19 1_555 1_555
O14 C60 1_555 1_555
O15 C60 1_555 1_555
C42 C41 1_555 1_555
C43 C42 1_555 1_555
H25 C43 1_555 1_555
C44 C43 1_555 1_555
H26 C44 1_555 1_555
C45 C44 1_555 1_555
C48 C45 1_555 1_555
C49 C48 1_555 1_555
H29 C49 1_555 1_555
C50 C49 1_555 1_555
C51 C50 1_555 1_555
H30 C51 1_555 1_555
C52 C51 1_555 1_555
H31 C52 1_555 1_555
C53 C48 1_555 1_555
H32 C53 1_555 1_555
C54 C50 1_555 1_555
C55 C54 1_555 1_555
H33 C55 1_555 1_555
C56 C55 1_555 1_555
H34 C56 1_555 1_555
C57 C56 1_555 1_555
C58 C57 1_555 1_555
H35 C58 1_555 1_555
C59 C54 1_555 1_555
H36 C59 1_555 1_555
C60 C57 1_555 1_555
Zr5 O15 1_555 1_555
Zr10 O14 1_555 1_555
O13 C41 1_555 1_555
C52 C53 1_555 1_555
C58 C59 1_555 1_555
O7 Zr2 1_555 1_555
H15 C26 1_555 1_555
H16 C27 1_555 1_555
O22 Zr2 1_555 1_555
O5_3 Zr2 1_555 1_555
C26 C27 1_555 1_555
O8 C21 1_555 1_555
O9 C40 1_555 1_555
O10 C40 1_555 1_555
C22 C21 1_555 1_555
C23 C22 1_555 1_555
H13 C23 1_555 1_555
C24 C23 1_555 1_555
H14 C24 1_555 1_555
C25 C24 1_555 1_555
C28 C25 1_555 1_555
C29 C28 1_555 1_555
H17 C29 1_555 1_555
C30 C29 1_555 1_555
C31 C30 1_555 1_555
H18 C31 1_555 1_555
C32 C31 1_555 1_555
H19 C32 1_555 1_555
C33 C28 1_555 1_555
H20 C33 1_555 1_555
C34 C30 1_555 1_555
C35 C34 1_555 1_555
H21 C35 1_555 1_555
C36 C35 1_555 1_555
H22 C36 1_555 1_555
C37 C36 1_555 1_555
C38 C37 1_555 1_555
H23 C38 1_555 1_555
C39 C34 1_555 1_555
H24 C39 1_555 1_555
C40 C37 1_555 1_555
Zr3 O5_4 1_555 1_555
O12 Zr3 1_555 1_555
H27 C46 1_555 1_555
H28 C47 1_555 1_555
Zr4 O10 1_555 1_555
Zr12 O9 1_555 1_555
O18 Zr3 1_555 1_555
O20 Zr3 1_555 1_555
O8 Zr3 1_555 1_555
C32 C33 1_555 1_555
C38 C39 1_555 1_555
Zr3 O16 1_555 1_555
C46 C47 1_555 1_555
H6_2 C11_2 1_555 1_555
C12_2 C11_2 1_555 1_555
H7_2 C12_2 1_555 1_555
H11_2 C18_2 1_555 1_555
H12_2 C19_2 1_555 1_555
H18_2 C31_2 1_555 1_555
C32_2 C31_2 1_555 1_555
H19_2 C32_2 1_555 1_555
H23_2 C38_2 1_555 1_555
H24_2 C39_2 1_555 1_555
H30_2 C51_2 1_555 1_555
C52_2 C51_2 1_555 1_555
H31_2 C52_2 1_555 1_555
H35_2 C58_2 1_555 1_555
H36_2 C59_2 1_555 1_555
C18_2 C19_2 1_555 1_555
C38_2 C39_2 1_555 1_555
C58_2 C59_2 1_555 1_555
Zr4 O1_2 1_555 1_555
O1_2 C1_2 1_555 1_555
O2_2 C1_2 1_555 1_555
O5_5 Zr4 1_555 1_555
O6_2 Zr4 1_555 1_555
C1_2 C2_2 1_555 1_555
Zr5 O2_2 1_555 1_555
O7_2 Zr5 1_555 1_555
O8_2 C21_2 1_555 1_555
O11_2 Zr4 1_555 1_555
C21_2 O7_2 1_555 1_555
C22_2 C21_2 1_555 1_555
Zr6 O5_5 1_555 1_555
O12_2 Zr6 1_555 1_555
O13_2 Zr4 1_555 1_555
O16_2 Zr5 1_555 1_555
C41_2 O12_2 1_555 1_555
C42_2 C41_2 1_555 1_555
Zr10 O16_2 1_555 1_555
Zr11 O6_2 1_555 1_555
Zr12 O11_2 1_555 1_555
O17_2 Zr5 1_555 1_555
O18_2 Zr6 1_555 1_555
O19_2 Zr4 1_555 1_555
O23 Zr5 1_555 1_555
O24 Zr6 1_555 1_555
O25 Zr4 1_555 1_555
O5_5 Zr5 1_555 1_555
O6_2 Zr6 1_555 1_555
Zr5 O11_2 1_555 1_555
O8_2 Zr6 1_555 1_555
Zr6 O16_2 1_555 1_555
O13_2 C41_2 1_555 1_555
Zr10 O23 1_555 1_555
Zr10 O24 1_555 1_555
Zr11 O24 1_555 1_555
Zr11 O25 1_555 1_555
Zr12 O23 1_555 1_555
Zr12 O25 1_555 1_555
Zr10 O1_3 1_555 1_555
O1_3 C1_3 1_555 1_555
O2_3 C1_3 1_555 1_555
O17 C20_2 1_555 1_555
O5_6 Zr10 1_555 1_555
C1_3 C2_3 1_555 1_555
C2_3 C3_2 1_555 1_555
C3_2 H1_3 1_555 1_555
C4_2 C3_2 1_555 1_555
H2_2 C4_2 1_555 1_555
C5_2 C4_2 1_555 1_555
C6_2 C5_2 1_555 1_555
H3_2 C6_2 1_555 1_555
C7_2 C2_3 1_555 1_555
H4_2 C7_2 1_555 1_555
C8_2 C5_2 1_555 1_555
C9_2 C8_2 1_555 1_555
H5_2 C9_2 1_555 1_555
C10_2 C9_2 1_555 1_555
C13_2 C8_2 1_555 1_555
H8_2 C13_2 1_555 1_555
C14_2 C10_2 1_555 1_555
C15_2 C14_2 1_555 1_555
H9_2 C15_2 1_555 1_555
C16_2 C15_2 1_555 1_555
H10_2 C16_2 1_555 1_555
C17_2 C16_2 1_555 1_555
C20_2 C17_2 1_555 1_555
Zr11 O2_3 1_555 1_555
O7_3 Zr11 1_555 1_555
O8_3 C21_3 1_555 1_555
O18 C40_2 1_555 1_555
C21_3 O7_3 1_555 1_555
C22_3 C21_3 1_555 1_555
C23_2 C22_3 1_555 1_555
H13_3 C23_2 1_555 1_555
C24_2 C23_2 1_555 1_555
H14_2 C24_2 1_555 1_555
C25_2 C24_2 1_555 1_555
C26_2 C25_2 1_555 1_555
H15_2 C26_2 1_555 1_555
C27_2 C22_3 1_555 1_555
H16_2 C27_2 1_555 1_555
C28_2 C25_2 1_555 1_555
C29_2 C28_2 1_555 1_555
H17_2 C29_2 1_555 1_555
C30_2 C29_2 1_555 1_555
C33_2 C28_2 1_555 1_555
H20_2 C33_2 1_555 1_555
C34_2 C30_2 1_555 1_555
C35_2 C34_2 1_555 1_555
H21_2 C35_2 1_555 1_555
C36_2 C35_2 1_555 1_555
H22_2 C36_2 1_555 1_555
C37_2 C36_2 1_555 1_555
C40_2 C37_2 1_555 1_555
Zr12 O5_6 1_555 1_555
O12_3 Zr12 1_555 1_555
O13_3 Zr10 1_555 1_555
O19 C60_2 1_555 1_555
C41_3 O12_3 1_555 1_555
C42_3 C41_3 1_555 1_555
C43_2 C42_3 1_555 1_555
H25_3 C43_2 1_555 1_555
C44_2 C43_2 1_555 1_555
H26_2 C44_2 1_555 1_555
C45_2 C44_2 1_555 1_555
C46_2 C45_2 1_555 1_555
H27_2 C46_2 1_555 1_555
C47_2 C42_3 1_555 1_555
H28_2 C47_2 1_555 1_555
C48_2 C45_2 1_555 1_555
C49_2 C48_2 1_555 1_555
H29_2 C49_2 1_555 1_555
C50_2 C49_2 1_555 1_555
C53_2 C48_2 1_555 1_555
H32_2 C53_2 1_555 1_555
C54_2 C50_2 1_555 1_555
C55_2 C54_2 1_555 1_555
H33_2 C55_2 1_555 1_555
C56_2 C55_2 1_555 1_555
H34_2 C56_2 1_555 1_555
C57_2 C56_2 1_555 1_555
C60_2 C57_2 1_555 1_555
O20_2 Zr12 1_555 1_555
O21_2 Zr10 1_555 1_555
O22_2 Zr11 1_555 1_555
O5_6 Zr11 1_555 1_555
C6_2 C7_2 1_555 1_555
O8_3 Zr12 1_555 1_555
C26_2 C27_2 1_555 1_555
O13_3 C41_3 1_555 1_555
C46_2 C47_2 1_555 1_555
O18_2 C40_3 1_555 1_555
O21_2 C40_3 1_555 1_555
C35_3 C34_3 1_555 1_555
H21_3 C35_3 1_555 1_555
C36_3 C35_3 1_555 1_555
H22_3 C36_3 1_555 1_555
C37_3 C36_3 1_555 1_555
C38_3 C37_3 1_555 1_555
H23_3 C38_3 1_555 1_555
C39_3 C34_3 1_555 1_555
H24_3 C39_3 1_555 1_555
C40_3 C37_3 1_555 1_555
C38_3 C39_3 1_555 1_555
C4_3 C3_3 1_555 1_555
H2_3 C4_3 1_555 1_555
C5_3 C4_3 1_555 1_555
C6_3 C5_3 1_555 1_555
H3_3 C6_3 1_555 1_555
H4_3 C7_3 1_555 1_555
C8_3 C5_3 1_555 1_555
C9_3 C8_3 1_555 1_555
H5_3 C9_3 1_555 1_555
C10_3 C9_3 1_555 1_555
C11_3 C10_3 1_555 1_555
H6_3 C11_3 1_555 1_555
C12_3 C11_3 1_555 1_555
H7_3 C12_3 1_555 1_555
C13_3 C8_3 1_555 1_555
H8_3 C13_3 1_555 1_555
C24_3 C23_3 1_555 1_555
H14_3 C24_3 1_555 1_555
C25_3 C24_3 1_555 1_555
C26_3 C25_3 1_555 1_555
H15_3 C26_3 1_555 1_555
H16_3 C27_3 1_555 1_555
C28_3 C25_3 1_555 1_555
C29_3 C28_3 1_555 1_555
H17_3 C29_3 1_555 1_555
C30_3 C29_3 1_555 1_555
C31_3 C30_3 1_555 1_555
H18_3 C31_3 1_555 1_555
C32_3 C31_3 1_555 1_555
H19_3 C32_3 1_555 1_555
C33_3 C28_3 1_555 1_555
H20_3 C33_3 1_555 1_555
O19_2 C60_3 1_555 1_555
O22_2 C60_3 1_555 1_555
C44_3 C43_3 1_555 1_555
H26_3 C44_3 1_555 1_555
C45_3 C44_3 1_555 1_555
C46_3 C45_3 1_555 1_555
H27_3 C46_3 1_555 1_555
H28_3 C47_3 1_555 1_555
C48_3 C45_3 1_555 1_555
C49_3 C48_3 1_555 1_555
H29_3 C49_3 1_555 1_555
C50_3 C49_3 1_555 1_555
C51_3 C50_3 1_555 1_555
H30_3 C51_3 1_555 1_555
C52_3 C51_3 1_555 1_555
H31_3 C52_3 1_555 1_555
C53_3 C48_3 1_555 1_555
H32_3 C53_3 1_555 1_555
C54_3 C50_3 1_555 1_555
C55_3 C54_3 1_555 1_555
H33_3 C55_3 1_555 1_555
C56_3 C55_3 1_555 1_555
H34_3 C56_3 1_555 1_555
C57_3 C56_3 1_555 1_555
C58_3 C57_3 1_555 1_555
H35_3 C58_3 1_555 1_555
C59_3 C54_3 1_555 1_555
H36_3 C59_3 1_555 1_555
C60_3 C57_3 1_555 1_555
C6_3 C7_3 1_555 1_555
C12_3 C13_3 1_555 1_555
C26_3 C27_3 1_555 1_555
C32_3 C33_3 1_555 1_555
C46_3 C47_3 1_555 1_555
C52_3 C53_3 1_555 1_555
C58_3 C59_3 1_555 1_555
O17_2 C20_3 1_555 1_555
O20_2 C20_3 1_555 1_555
C15_3 C14_3 1_555 1_555
H9_3 C15_3 1_555 1_555
C16_3 C15_3 1_555 1_555
H10_3 C16_3 1_555 1_555
C17_3 C16_3 1_555 1_555
C18_3 C17_3 1_555 1_555
H11_3 C18_3 1_555 1_555
C19_3 C14_3 1_555 1_555
H12_3 C19_3 1_555 1_555
C20_3 C17_3 1_555 1_555
C18_3 C19_3 1_555 1_555
Zr9 O25_2 1_555 1_555
Zr7 O24_2 1_555 1_555
Zr1_2 O1_4 1_555 1_555
O1_4 C1_4 1_555 1_555
O2_4 C1_4 1_555 1_555
O3_2 C20_4 1_555 1_555
O5_7 Zr1_2 1_555 1_555
O6_3 Zr1_2 1_555 1_555
C1_4 C2_4 1_555 1_555
C2_4 C3_4 1_555 1_555
C3_4 H1_4 1_555 1_555
C4_4 C3_4 1_555 1_555
H2_4 C4_4 1_555 1_555
C5_4 C4_4 1_555 1_555
C6_4 C5_4 1_555 1_555
H3_4 C6_4 1_555 1_555
C7_4 C2_4 1_555 1_555
H4_4 C7_4 1_555 1_555
C8_4 C5_4 1_555 1_555
C9_4 C8_4 1_555 1_555
H5_4 C9_4 1_555 1_555
C10_4 C9_4 1_555 1_555
C13_4 C8_4 1_555 1_555
H8_4 C13_4 1_555 1_555
C14_4 C10_4 1_555 1_555
C15_4 C14_4 1_555 1_555
H9_4 C15_4 1_555 1_555
C16_4 C15_4 1_555 1_555
H10_4 C16_4 1_555 1_555
C17_4 C16_4 1_555 1_555
C20_4 C17_4 1_555 1_555
Zr2_2 O2_4 1_555 1_555
O7_4 Zr2_2 1_555 1_555
O8_4 C21_4 1_555 1_555
O9_2 C40_4 1_555 1_555
O11_3 Zr1_2 1_555 1_555
C21_4 O7_4 1_555 1_555
C22_4 C21_4 1_555 1_555
C23_4 C22_4 1_555 1_555
H13_4 C23_4 1_555 1_555
C24_4 C23_4 1_555 1_555
H14_4 C24_4 1_555 1_555
C25_4 C24_4 1_555 1_555
C26_4 C25_4 1_555 1_555
H15_4 C26_4 1_555 1_555
C27_4 C22_4 1_555 1_555
H16_4 C27_4 1_555 1_555
C28_4 C25_4 1_555 1_555
C29_4 C28_4 1_555 1_555
H17_4 C29_4 1_555 1_555
C30_4 C29_4 1_555 1_555
C33_4 C28_4 1_555 1_555
H20_4 C33_4 1_555 1_555
C34_4 C30_4 1_555 1_555
C35_4 C34_4 1_555 1_555
H21_4 C35_4 1_555 1_555
C36_4 C35_4 1_555 1_555
H22_4 C36_4 1_555 1_555
C37_4 C36_4 1_555 1_555
C40_4 C37_4 1_555 1_555
Zr3_2 O5_7 1_555 1_555
O12_4 Zr3_2 1_555 1_555
O13_4 Zr1_2 1_555 1_555
O14_2 C60_4 1_555 1_555
O16_3 Zr2_2 1_555 1_555
C41_4 O12_4 1_555 1_555
C42_4 C41_4 1_555 1_555
C43_4 C42_4 1_555 1_555
H25_4 C43_4 1_555 1_555
C44_4 C43_4 1_555 1_555
H26_4 C44_4 1_555 1_555
C45_4 C44_4 1_555 1_555
C46_4 C45_4 1_555 1_555
H27_4 C46_4 1_555 1_555
C47_4 C42_4 1_555 1_555
H28_4 C47_4 1_555 1_555
C48_4 C45_4 1_555 1_555
C49_4 C48_4 1_555 1_555
H29_4 C49_4 1_555 1_555
C50_4 C49_4 1_555 1_555
C53_4 C48_4 1_555 1_555
H32_4 C53_4 1_555 1_555
C54_4 C50_4 1_555 1_555
C55_4 C54_4 1_555 1_555
H33_4 C55_4 1_555 1_555
C56_4 C55_4 1_555 1_555
H34_4 C56_4 1_555 1_555
C57_4 C56_4 1_555 1_555
C60_4 C57_4 1_555 1_555
Zr7_2 O16_3 1_555 1_555
Zr8_2 O6_3 1_555 1_555
Zr9_2 O11_3 1_555 1_555
Zr9 O9_2 1_555 1_555
O17_3 Zr2_2 1_555 1_555
O18_3 Zr3_2 1_555 1_555
O19_3 Zr1_2 1_555 1_555
O20_3 Zr3_2 1_555 1_555
O21_3 Zr1_2 1_555 1_555
O22_3 Zr2_2 1_555 1_555
O23_3 Zr2_2 1_555 1_555
O24_3 Zr3_2 1_555 1_555
O25_3 Zr1_2 1_555 1_555
O5_7 Zr2_2 1_555 1_555
O6_3 Zr3_2 1_555 1_555
C6_4 C7_4 1_555 1_555
Zr2_2 O11_3 1_555 1_555
O8_4 Zr3_2 1_555 1_555
C26_4 C27_4 1_555 1_555
Zr3_2 O16_3 1_555 1_555
O13_4 C41_4 1_555 1_555
C46_4 C47_4 1_555 1_555
Zr7_2 O23_3 1_555 1_555
Zr7_2 O24_3 1_555 1_555
Zr8_2 O24_3 1_555 1_555
Zr8_2 O25_3 1_555 1_555
Zr9_2 O23_3 1_555 1_555
Zr9_2 O25_3 1_555 1_555
O3_3 C20_5 1_555 1_555
O20_3 C20_5 1_555 1_555
C15_5 C14_5 1_555 1_555
H9_5 C15_5 1_555 1_555
C16_5 C15_5 1_555 1_555
H10_5 C16_5 1_555 1_555
C17_5 C16_5 1_555 1_555
C18_4 C17_5 1_555 1_555
H11_4 C18_4 1_555 1_555
C19_4 C14_5 1_555 1_555
H12_4 C19_4 1_555 1_555
C20_5 C17_5 1_555 1_555
Zr8_2 O3_3 1_555 1_555
C18_4 C19_4 1_555 1_555
C4_5 C3_5 1_555 1_555
H2_5 C4_5 1_555 1_555
C5_5 C4_5 1_555 1_555
C6_5 C5_5 1_555 1_555
H3_5 C6_5 1_555 1_555
H4_5 C7_5 1_555 1_555
C8_5 C5_5 1_555 1_555
C9_5 C8_5 1_555 1_555
H5_5 C9_5 1_555 1_555
C10_5 C9_5 1_555 1_555
C11_4 C10_5 1_555 1_555
H6_4 C11_4 1_555 1_555
C12_4 C11_4 1_555 1_555
H7_4 C12_4 1_555 1_555
C13_5 C8_5 1_555 1_555
H8_5 C13_5 1_555 1_555
C24_5 C23_5 1_555 1_555
H14_5 C24_5 1_555 1_555
C25_5 C24_5 1_555 1_555
C26_5 C25_5 1_555 1_555
H15_5 C26_5 1_555 1_555
H16_5 C27_5 1_555 1_555
C28_5 C25_5 1_555 1_555
C29_5 C28_5 1_555 1_555
H17_5 C29_5 1_555 1_555
C30_5 C29_5 1_555 1_555
C31_4 C30_5 1_555 1_555
H18_4 C31_4 1_555 1_555
C32_4 C31_4 1_555 1_555
H19_4 C32_4 1_555 1_555
C33_5 C28_5 1_555 1_555
H20_5 C33_5 1_555 1_555
O14_3 C60_5 1_555 1_555
O22_3 C60_5 1_555 1_555
C44_5 C43_5 1_555 1_555
H26_5 C44_5 1_555 1_555
C45_5 C44_5 1_555 1_555
C46_5 C45_5 1_555 1_555
H27_5 C46_5 1_555 1_555
H28_5 C47_5 1_555 1_555
C48_5 C45_5 1_555 1_555
C49_5 C48_5 1_555 1_555
H29_5 C49_5 1_555 1_555
C50_5 C49_5 1_555 1_555
C51_4 C50_5 1_555 1_555
H30_4 C51_4 1_555 1_555
C52_4 C51_4 1_555 1_555
H31_4 C52_4 1_555 1_555
C53_5 C48_5 1_555 1_555
H32_5 C53_5 1_555 1_555
C54_5 C50_5 1_555 1_555
C55_5 C54_5 1_555 1_555
H33_5 C55_5 1_555 1_555
C56_5 C55_5 1_555 1_555
H34_5 C56_5 1_555 1_555
C57_5 C56_5 1_555 1_555
C58_4 C57_5 1_555 1_555
H35_4 C58_4 1_555 1_555
C59_4 C54_5 1_555 1_555
H36_4 C59_4 1_555 1_555
C60_5 C57_5 1_555 1_555
Zr7_2 O14_3 1_555 1_555
C6_5 C7_5 1_555 1_555
C12_4 C13_5 1_555 1_555
C26_5 C27_5 1_555 1_555
C32_4 C33_5 1_555 1_555
C46_5 C47_5 1_555 1_555
C52_4 C53_5 1_555 1_555
C58_4 C59_4 1_555 1_555
O9_3 C40_5 1_555 1_555
O21_3 C40_5 1_555 1_555
C35_5 C34_5 1_555 1_555
H21_5 C35_5 1_555 1_555
C36_5 C35_5 1_555 1_555
H22_5 C36_5 1_555 1_555
C37_5 C36_5 1_555 1_555
C38_4 C37_5 1_555 1_555
H23_4 C38_4 1_555 1_555
C39_4 C34_5 1_555 1_555
H24_4 C39_4 1_555 1_555
C40_5 C37_5 1_555 1_555
Zr9_2 O9_3 1_555 1_555
C38_4 C39_4 1_555 1_555
O8_5 C21_5 1_555 1_555
O18_3 C40_6 1_555 1_555
O10_2 C40_6 1_555 1_555
C22_5 C21_5 1_555 1_555
C23_6 C22_5 1_555 1_555
H13_5 C23_6 1_555 1_555
C24_6 C23_6 1_555 1_555
H14_6 C24_6 1_555 1_555
C25_6 C24_6 1_555 1_555
C28_6 C25_6 1_555 1_555
C29_6 C28_6 1_555 1_555
H17_6 C29_6 1_555 1_555
C30_6 C29_6 1_555 1_555
C31_5 C30_6 1_555 1_555
H18_5 C31_5 1_555 1_555
C32_5 C31_5 1_555 1_555
H19_5 C32_5 1_555 1_555
C33_6 C28_6 1_555 1_555
H20_6 C33_6 1_555 1_555
C34_6 C30_6 1_555 1_555
C35_6 C34_6 1_555 1_555
H21_6 C35_6 1_555 1_555
C36_6 C35_6 1_555 1_555
H22_6 C36_6 1_555 1_555
C37_6 C36_6 1_555 1_555
C38_5 C37_6 1_555 1_555
H23_5 C38_5 1_555 1_555
C39_5 C34_6 1_555 1_555
H24_5 C39_5 1_555 1_555
C40_6 C37_6 1_555 1_555
Zr9 O5_8 1_555 1_555
O12_5 Zr9 1_555 1_555
H27_6 C46_6 1_555 1_555
H28_6 C47_6 1_555 1_555
Zr7_2 O10_2 1_555 1_555
O20_4 Zr9 1_555 1_555
O8_5 Zr9 1_555 1_555
C32_5 C33_6 1_555 1_555
C38_5 C39_5 1_555 1_555
C46_6 C47_6 1_555 1_555
O7_5 Zr8 1_555 1_555
H15_6 C26_6 1_555 1_555
H16_6 C27_6 1_555 1_555
O22_4 Zr8 1_555 1_555
O5_9 Zr8 1_555 1_555
C26_6 C27_6 1_555 1_555
O19_3 C60_6 1_555 1_555
O15_2 C60_6 1_555 1_555
C42_5 C41_5 1_555 1_555
C43_6 C42_5 1_555 1_555
H25_5 C43_6 1_555 1_555
C44_6 C43_6 1_555 1_555
H26_6 C44_6 1_555 1_555
C45_6 C44_6 1_555 1_555
C48_6 C45_6 1_555 1_555
C49_6 C48_6 1_555 1_555
H29_6 C49_6 1_555 1_555
C50_6 C49_6 1_555 1_555
C51_5 C50_6 1_555 1_555
H30_5 C51_5 1_555 1_555
C52_5 C51_5 1_555 1_555
H31_5 C52_5 1_555 1_555
C53_6 C48_6 1_555 1_555
H32_6 C53_6 1_555 1_555
C54_6 C50_6 1_555 1_555
C55_6 C54_6 1_555 1_555
H33_6 C55_6 1_555 1_555
C56_6 C55_6 1_555 1_555
H34_6 C56_6 1_555 1_555
C57_6 C56_6 1_555 1_555
C58_5 C57_6 1_555 1_555
H35_5 C58_5 1_555 1_555
C59_5 C54_6 1_555 1_555
H36_5 C59_5 1_555 1_555
C60_6 C57_6 1_555 1_555
Zr8_2 O15_2 1_555 1_555
O13_5 C41_5 1_555 1_555
C52_5 C53_6 1_555 1_555
C58_5 C59_5 1_555 1_555
Zr7 O1_5 1_555 1_555
O1_5 C1_5 1_555 1_555
O2_5 C1_5 1_555 1_555
O17_3 C20_6 1_555 1_555
O4_2 C20_6 1_555 1_555
O5_11 Zr7 1_555 1_555
C1_5 C2_5 1_555 1_555
C2_5 C3_6 1_555 1_555
C3_6 H1_5 1_555 1_555
C4_6 C3_6 1_555 1_555
H2_6 C4_6 1_555 1_555
C5_6 C4_6 1_555 1_555
C6_6 C5_6 1_555 1_555
H3_6 C6_6 1_555 1_555
C7_6 C2_5 1_555 1_555
H4_6 C7_6 1_555 1_555
C8_6 C5_6 1_555 1_555
C9_6 C8_6 1_555 1_555
H5_6 C9_6 1_555 1_555
C10_6 C9_6 1_555 1_555
C11_5 C10_6 1_555 1_555
H6_5 C11_5 1_555 1_555
C12_5 C11_5 1_555 1_555
H7_5 C12_5 1_555 1_555
C13_6 C8_6 1_555 1_555
H8_6 C13_6 1_555 1_555
C14_6 C10_6 1_555 1_555
C15_6 C14_6 1_555 1_555
H9_6 C15_6 1_555 1_555
C16_6 C15_6 1_555 1_555
H10_6 C16_6 1_555 1_555
C17_6 C16_6 1_555 1_555
C18_5 C17_6 1_555 1_555
H11_5 C18_5 1_555 1_555
C19_5 C14_6 1_555 1_555
H12_5 C19_5 1_555 1_555
C20_6 C17_6 1_555 1_555
Zr9_2 O4_2 1_555 1_555
O21_4 Zr7 1_555 1_555
C6_6 C7_6 1_555 1_555
C12_5 C13_6 1_555 1_555
C18_5 C19_5 1_555 1_555
H6_6 C11_6 1_555 1_555
C12_6 C11_6 1_555 1_555
H7_6 C12_6 1_555 1_555
H11_6 C18_6 1_555 1_555
H12_6 C19_6 1_555 1_555
H18_6 C31_6 1_555 1_555
C32_6 C31_6 1_555 1_555
H19_6 C32_6 1_555 1_555
H23_6 C38_6 1_555 1_555
H24_6 C39_6 1_555 1_555
H30_6 C51_6 1_555 1_555
C52_6 C51_6 1_555 1_555
H31_6 C52_6 1_555 1_555
H35_6 C58_6 1_555 1_555
H36_6 C59_6 1_555 1_555
C18_6 C19_6 1_555 1_555
C38_6 C39_6 1_555 1_555
C58_6 C59_6 1_555 1_555
Zr7_2 O1_6 1_555 1_555
O1_6 C1_6 1_555 1_555
O2_6 C1_6 1_555 1_555
O5_12 Zr7_2 1_555 1_555
C1_6 C2_6 1_555 1_555
Zr8_2 O2_6 1_555 1_555
O7_6 Zr8_2 1_555 1_555
O8_6 C21_6 1_555 1_555
C21_6 O7_6 1_555 1_555
C22_6 C21_6 1_555 1_555
Zr9_2 O5_12 1_555 1_555
O12_6 Zr9_2 1_555 1_555
O13_6 Zr7_2 1_555 1_555
C41_6 O12_6 1_555 1_555
C42_6 C41_6 1_555 1_555
O5_12 Zr8_2 1_555 1_555
O8_6 Zr9_2 1_555 1_555
O13_6 C41_6 1_555 1_555

#END
