
###############################################################################
#
# This file contains modified crystal structure data generated from the
# MOF subset of the Cambridge Structural Database (CSD) v543 
# hosted by the Cambridge Crystallographic Data Centre (CCDC).
#
# This work is licensed under the Creative Commons
# Attribution-NonCommercial-ShareAlike 4.0 International License.
# To view a copy of this license, visit
# http://creativecommons.org/licenses/by-nc-sa/4.0/
# or send a letter to
# Creative Commons, PO Box 1866, Mountain View, CA 94042, USA.
#
# CIF created using the CSD Python API on 29 September 2022
# The structure has been converted into the P1 space group
# The structure has a 3D framework
# The original CSD entry BIKMEQ01 is in the rhombohedral crystal system
# The framework has been calculated to contain at least 10.0% void space
# The void calculation uses a probe of radius 1.32A, grid spacing 0.4
#
###############################################################################

data_BIKMEQ01
_chemical_formula_moiety         '(C360 H216 O88 Zr18)n'
_symmetry_cell_setting           triclinic
_symmetry_space_group_name_H-M   'P 1'
_symmetry_Int_Tables_number      1
_space_group_name_Hall           'P 1'
loop_
_symmetry_equiv_pos_site_id
_symmetry_equiv_pos_as_xyz
1 x,y,z
_cell_length_a                   30.6549(5)
_cell_length_b                   30.6549(5)
_cell_length_c                   15.0473(3)
_cell_angle_alpha                90
_cell_angle_beta                 90
_cell_angle_gamma                120
_cell_volume                     12245.9
loop_
_atom_site_label
_atom_site_type_symbol
_atom_site_fract_x
_atom_site_fract_y
_atom_site_fract_z
Zr1 Zr 0.07194(2) 0.05747(2) 0.09483(2)
O1 O 0.05873(10) 0.09496(10) 0.20952(16)
O3 O 0.21792(10) 0.52726(9) 0.60286(17)
O4 O 0.25577(10) 0.51789(9) 0.72720(18)
O5 O -0.0000 -0.0000 0.1408(4)
C1 C 0.01928(14) 0.09293(14) 0.2400(2)
C2 C 0.02643(16) 0.12507(16) 0.3197(3)
C3 C 0.07226(15) 0.16807(15) 0.3351(3)
H1 H 0.0982 0.1782 0.2941
C4 C 0.07965(16) 0.19619(15) 0.4115(3)
H2 H 0.1101 0.2258 0.4198
C5 C 0.04259(17) 0.18107(16) 0.4756(3)
C8 C 0.05217(18) 0.20788(16) 0.5621(3)
C9 C 0.08247(19) 0.25989(16) 0.5666(3)
H5 H 0.0957 0.2782 0.5145
C10 C 0.0934(2) 0.28520(16) 0.6474(3)
C11 C 0.0733(2) 0.25772(17) 0.7247(3)
H6 H 0.0803 0.2742 0.7792
C12 C 0.0428(2) 0.20571(18) 0.7210(3)
H7 H 0.0293 0.1873 0.7729
C13 C 0.03273(19) 0.18150(17) 0.6400(3)
H8 H 0.0124 0.1467 0.6378
C14 C 0.1272(2) 0.34119(15) 0.6501(3)
C15 C 0.1239(2) 0.37198(17) 0.5878(3)
H9 H 0.1003 0.3579 0.5424
C16 C 0.1552(2) 0.42398(17) 0.5912(3)
H10 H 0.1524 0.4442 0.5482
C17 C 0.19041(17) 0.44559(15) 0.6582(3)
C18 C 0.1946(2) 0.41496(17) 0.7199(3)
H11 H 0.2185 0.4291 0.7648
C19 C 0.1635(3) 0.36322(17) 0.7157(3)
H12 H 0.1671 0.3429 0.7577
C20 C 0.22416(14) 0.50134(14) 0.6628(2)
O11 O 0.01432(10) 0.07135(16) 0.0468(2)
O13 O 0.09134(14) 0.02546(10) 0.21153(17)
C46 C 0.1418(3) 0.0029(2) 0.4574(4)
H27 H 0.1572 0.0289 0.4986
C47 C 0.1230(3) 0.0114(2) 0.3790(4)
H28 H 0.1273 0.0431 0.3675
Zr6 Zr 0.31886(3) 0.59473(2) 0.76150(2)
Zr10 Zr 0.26139(2) 0.60920(2) 0.57184(2)
O17 O 0.11541(10) 0.13941(9) 0.06381(17)
O21 O 0.14878(9) 0.07121(13) 0.06053(18)
O5_2 O -0.0000 1.0000 0.1408(4)
O6 O 0.05703(13) 0.98568(10) 0.0468(2)
O12 O 0.03623(14) 0.94127(10) 0.20952(16)
O14 O 0.30934(13) 0.78208(10) 0.60286(17)
O15 O 0.26212(13) 0.74423(10) 0.72720(18)
C41 C 0.07365(20) 0.98072(14) 0.2400(2)
C42 C 0.09864(23) 0.97357(16) 0.3197(3)
C43 C 0.09581(21) 0.92774(15) 0.3351(3)
H25 H 0.0800 0.9018 0.2941
C44 C 0.11654(22) 0.92035(16) 0.4115(3)
H26 H 0.1157 0.8899 0.4198
C45 C 0.13848(23) 0.95741(17) 0.4756(3)
C48 C 0.15571(24) 0.94783(18) 0.5621(3)
C49 C 0.17742(25) 0.91753(19) 0.5666(3)
H29 H 0.1825 0.9043 0.5145
C50 C 0.19180(26) 0.9066(2) 0.6474(3)
C51 C 0.18442(26) 0.9267(2) 0.7247(3)
H30 H 0.1939 0.9197 0.7792
C52 C 0.16291(27) 0.9572(2) 0.7210(3)
H31 H 0.1580 0.9707 0.7729
C53 C 0.14877(25) 0.96727(19) 0.6400(3)
H32 H 0.1343 0.9876 0.6378
C54 C 0.21399(25) 0.8728(2) 0.6501(3)
C55 C 0.24808(26) 0.8761(2) 0.5878(3)
H33 H 0.2576 0.8997 0.5424
C56 C 0.26878(26) 0.8448(2) 0.5912(3)
H34 H 0.2918 0.8476 0.5482
C57 C 0.25518(23) 0.80959(17) 0.6582(3)
C58 C 0.22036(26) 0.8054(2) 0.7199(3)
H35 H 0.2106 0.7815 0.7648
C59 C 0.19972(34) 0.8365(3) 0.7157(3)
H36 H 0.1758 0.8329 0.7577
C60 C 0.27718(20) 0.77584(14) 0.6628(2)
Zr5 Zr 0.27586(2) 0.68114(3) 0.76150(2)
Zr12 Zr 0.34780(3) 0.73861(2) 0.57184(2)
O19 O 0.02399(13) 0.88459(10) 0.06381(17)
O2 O 0.97454(10) 0.06588(10) 0.21153(17)
O5_3 O 1.0000 -0.0000 0.1408(4)
C6 C 0.9971(2) 0.1389(2) 0.4574(4)
H3 H 0.9711 0.1283 0.4986
C7 C 0.9886(2) 0.1116(2) 0.3790(4)
H4 H 0.9569 0.0842 0.3675
Zr2 Zr 0.94253(2) 0.01447(3) 0.09483(2)
O22 O 0.92879(13) 0.07756(10) 0.06053(18)
O5_4 O 1.0000 1.0000 0.1408(4)
O7 O 0.90504(10) 0.96377(14) 0.20952(16)
O8 O 0.93412(10) 0.90866(14) 0.21153(17)
O9 O 0.47274(9) 0.69066(13) 0.60286(17)
O10 O 0.48211(9) 0.73788(13) 0.72720(18)
C21 C 0.90707(14) 0.92635(20) 0.2400(2)
C22 C 0.87493(16) 0.90136(23) 0.3197(3)
C23 C 0.83193(15) 0.90419(21) 0.3351(3)
H13 H 0.8218 0.9200 0.2941
C24 C 0.80381(15) 0.88346(22) 0.4115(3)
H14 H 0.7742 0.8843 0.4198
C25 C 0.81893(16) 0.86152(23) 0.4756(3)
C26 C 0.8611(2) 0.8582(3) 0.4574(4)
H15 H 0.8717 0.8428 0.4986
C27 C 0.8884(2) 0.8770(3) 0.3790(4)
H16 H 0.9158 0.8727 0.3675
C28 C 0.79212(16) 0.84429(24) 0.5621(3)
C29 C 0.74011(16) 0.82258(25) 0.5666(3)
H17 H 0.7218 0.8175 0.5145
C30 C 0.71480(16) 0.80820(26) 0.6474(3)
C31 C 0.74228(17) 0.81558(26) 0.7247(3)
H18 H 0.7258 0.8061 0.7792
C32 C 0.79429(18) 0.83709(27) 0.7210(3)
H19 H 0.8127 0.8420 0.7729
C33 C 0.81850(17) 0.85123(25) 0.6400(3)
H20 H 0.8533 0.8657 0.6378
C34 C 0.65881(15) 0.78601(25) 0.6501(3)
C35 C 0.62802(17) 0.75192(26) 0.5878(3)
H21 H 0.6421 0.7424 0.5424
C36 C 0.57602(17) 0.73122(26) 0.5912(3)
H22 H 0.5558 0.7082 0.5482
C37 C 0.55441(15) 0.74482(23) 0.6582(3)
C38 C 0.58504(17) 0.77964(26) 0.7199(3)
H23 H 0.5709 0.7894 0.7648
C39 C 0.63678(17) 0.80028(34) 0.7157(3)
H24 H 0.6571 0.8242 0.7577
C40 C 0.49866(14) 0.72282(20) 0.6628(2)
Zr3 Zr 0.98553(3) 0.92806(2) 0.09483(2)
O16 O 0.92865(16) 0.94297(13) 0.0468(2)
Zr4 Zr 0.40527(2) 0.72414(2) 0.76150(2)
Zr11 Zr 0.39080(2) 0.65220(3) 0.57184(2)
O18 O 0.86059(9) 0.97601(13) 0.06381(17)
O20 O 0.92244(10) 0.85122(9) 0.06053(18)
C11_2 C 0.7400(2) 0.59105(17) 0.0580(3)
H6_2 H 0.7470 0.6075 0.1125
C12_2 C 0.7095(2) 0.53904(18) 0.0543(3)
H7_2 H 0.6960 0.5206 0.1062
C18_2 C 0.8613(2) 0.74829(17) 0.0532(3)
H11_2 H 0.8852 0.7624 0.0981
C19_2 C 0.8302(3) 0.69655(17) 0.0490(3)
H12_2 H 0.8338 0.6762 0.0910
C31_2 C 0.40895(17) 0.14891(26) 0.0580(3)
H18_2 H 0.3925 0.1394 0.1125
C32_2 C 0.46096(18) 0.17042(27) 0.0543(3)
H19_2 H 0.4794 0.1753 0.1062
C38_2 C 0.25171(17) 0.11297(26) 0.0532(3)
H23_2 H 0.2376 0.1227 0.0981
C39_2 C 0.30345(17) 0.13361(34) 0.0490(3)
H24_2 H 0.3238 0.1575 0.0910
C51_2 C 0.85109(26) 0.2600(2) 0.0580(3)
H30_2 H 0.8606 0.2530 0.1125
C52_2 C 0.82958(27) 0.2905(2) 0.0543(3)
H31_2 H 0.8247 0.3040 0.1062
C58_2 C 0.88703(26) 0.1387(2) 0.0532(3)
H35_2 H 0.8773 0.1148 0.0981
C59_2 C 0.86639(34) 0.1698(3) 0.0490(3)
H36_2 H 0.8425 0.1662 0.0910
O1_2 O 0.39206(10) 0.76163(10) 0.87619(16)
O2_2 O 0.30787(10) 0.73255(10) 0.87820(17)
O5_5 O 0.3333 0.6667 0.8075(4)
O6_2 O 0.39036(13) 0.65235(10) 0.7135(2)
C1_2 C 0.35261(14) 0.75960(14) 0.9067(2)
C2_2 C 0.35976(16) 0.79174(16) 0.9864(3)
H1_2 H 0.4315 0.8449 0.9608
O7_2 O 0.23837(10) 0.63044(14) 0.87619(16)
O8_2 O 0.26745(10) 0.57533(14) 0.87820(17)
O11_2 O 0.34765(10) 0.73802(16) 0.7135(2)
C21_2 C 0.24040(14) 0.59302(20) 0.9067(2)
C22_2 C 0.20826(16) 0.56803(23) 0.9864(3)
H13_2 H 0.1551 0.5867 0.9608
O12_2 O 0.36956(14) 0.60794(10) 0.87619(16)
O13_2 O 0.42467(14) 0.69213(10) 0.87820(17)
O16_2 O 0.26198(16) 0.60964(13) 0.7135(2)
C41_2 C 0.40698(20) 0.64739(14) 0.9067(2)
C42_2 C 0.43197(23) 0.64024(16) 0.9864(3)
H25_2 H 0.4133 0.5685 0.9608
O17_2 O 0.44875(10) 0.80607(9) 0.73047(17)
O18_2 O 0.19393(9) 0.64267(13) 0.73047(17)
O19_2 O 0.35733(13) 0.55125(10) 0.73047(17)
O23 O 0.27630(13) 0.68099(10) 0.6199(2)
O24 O 0.31901(10) 0.59532(16) 0.6199(2)
O25 O 0.40468(16) 0.72370(13) 0.6199(2)
O1_3 O 0.27460(10) 0.57171(10) 0.45715(16)
O2_3 O 0.35879(10) 0.60079(10) 0.45514(17)
O5_6 O 0.3333 0.6667 0.5259(4)
C1_3 C 0.31405(14) 0.57374(14) 0.4267(2)
C2_3 C 0.30690(16) 0.54160(16) 0.3470(3)
C3_2 C 0.26107(15) 0.49860(15) 0.3316(3)
H1_3 H 0.2351 0.4885 0.3726
C4_2 C 0.25368(16) 0.47048(15) 0.2552(3)
H2_2 H 0.2232 0.4409 0.2469
C5_2 C 0.29074(17) 0.48560(16) 0.1911(3)
C6_2 C 0.3362(2) 0.5278(2) 0.2093(4)
H3_2 H 0.3622 0.5384 0.1681
C7_2 C 0.3447(2) 0.5551(2) 0.2877(4)
H4_2 H 0.3764 0.5825 0.2992
C8_2 C 0.28116(18) 0.45879(16) 0.1046(3)
C9_2 C 0.25086(19) 0.40678(16) 0.1001(3)
H5_2 H 0.2376 0.3885 0.1522
C10_2 C 0.2399(2) 0.38147(16) 0.0193(3)
C13_2 C 0.30060(19) 0.48517(17) 0.0267(3)
H8_2 H 0.3209 0.5200 0.0289
C14_2 C 0.2061(2) 0.32548(15) 0.0166(3)
C15_2 C 0.2094(2) 0.29469(17) 0.0789(3)
H9_2 H 0.2330 0.3088 0.1243
C16_2 C 0.1781(2) 0.24269(17) 0.0755(3)
H10_2 H 0.1809 0.2225 0.1185
C17_2 C 0.14292(17) 0.22108(15) 0.0085(3)
C20_2 C 0.10917(14) 0.16533(14) 0.0039(2)
O7_3 O 0.42829(10) 0.70290(14) 0.45715(16)
O8_3 O 0.39921(10) 0.75801(14) 0.45514(17)
C21_3 C 0.42626(14) 0.74032(20) 0.4267(2)
C22_3 C 0.45840(16) 0.76531(23) 0.3470(3)
C23_2 C 0.50140(15) 0.76248(21) 0.3316(3)
H13_3 H 0.5115 0.7467 0.3726
C24_2 C 0.52952(15) 0.78321(22) 0.2552(3)
H14_2 H 0.5591 0.7824 0.2469
C25_2 C 0.51440(16) 0.80515(23) 0.1911(3)
C26_2 C 0.4722(2) 0.8085(3) 0.2093(4)
H15_2 H 0.4616 0.8239 0.1681
C27_2 C 0.4449(2) 0.7897(3) 0.2877(4)
H16_2 H 0.4175 0.7940 0.2992
C28_2 C 0.54121(16) 0.82238(24) 0.1046(3)
C29_2 C 0.59322(16) 0.84409(25) 0.1001(3)
H17_2 H 0.6115 0.8492 0.1522
C30_2 C 0.61853(16) 0.85847(26) 0.0193(3)
C33_2 C 0.51483(17) 0.81544(25) 0.0267(3)
H20_2 H 0.4800 0.8010 0.0289
C34_2 C 0.67452(15) 0.88066(25) 0.0166(3)
C35_2 C 0.70531(17) 0.91475(26) 0.0789(3)
H21_2 H 0.6912 0.9243 0.1243
C36_2 C 0.75731(17) 0.93545(26) 0.0755(3)
H22_2 H 0.7775 0.9585 0.1185
C37_2 C 0.77892(15) 0.92185(23) 0.0085(3)
C40_2 C 0.83467(14) 0.94385(20) 0.0039(2)
O12_3 O 0.29710(14) 0.72540(10) 0.45715(16)
O13_3 O 0.24199(14) 0.64121(10) 0.45514(17)
C41_3 C 0.25968(20) 0.68595(14) 0.4267(2)
C42_3 C 0.23469(23) 0.69310(16) 0.3470(3)
C43_2 C 0.23752(21) 0.73893(15) 0.3316(3)
H25_3 H 0.2533 0.7649 0.3726
C44_2 C 0.21679(22) 0.74632(16) 0.2552(3)
H26_2 H 0.2176 0.7768 0.2469
C45_2 C 0.19485(23) 0.70926(17) 0.1911(3)
C46_2 C 0.1915(3) 0.6638(2) 0.2093(4)
H27_2 H 0.1761 0.6378 0.1681
C47_2 C 0.2103(3) 0.6553(2) 0.2877(4)
H28_2 H 0.2060 0.6236 0.2992
C48_2 C 0.17762(24) 0.71884(18) 0.1046(3)
C49_2 C 0.15591(25) 0.74914(19) 0.1001(3)
H29_2 H 0.1508 0.7624 0.1522
C50_2 C 0.14153(26) 0.7601(2) 0.0193(3)
C53_2 C 0.18456(25) 0.69940(19) 0.0267(3)
H32_2 H 0.1990 0.6791 0.0289
C54_2 C 0.11934(25) 0.7939(2) 0.0166(3)
C55_2 C 0.08525(26) 0.7906(2) 0.0789(3)
H33_2 H 0.0757 0.7670 0.1243
C56_2 C 0.06455(26) 0.8219(2) 0.0755(3)
H34_2 H 0.0415 0.8191 0.1185
C57_2 C 0.07815(23) 0.85708(17) 0.0085(3)
C60_2 C 0.05615(20) 0.89083(14) 0.0039(2)
O20_2 O 0.41090(10) 0.81544(9) 0.60613(18)
O21_2 O 0.18456(9) 0.59545(13) 0.60613(18)
O22_2 O 0.40455(13) 0.58910(10) 0.60613(18)
C34_3 C 0.00786(15) 0.54732(25) 0.6832(3)
C35_3 C 0.03865(17) 0.58141(26) 0.7455(3)
H21_3 H 0.0246 0.5909 0.7909
C36_3 C 0.09065(17) 0.60211(26) 0.7421(3)
H22_3 H 0.1109 0.6251 0.7851
C37_3 C 0.11226(15) 0.58851(23) 0.6751(3)
C38_3 C 0.08163(17) 0.55369(26) 0.6134(3)
H23_3 H 0.0958 0.5439 0.5685
C39_3 C 0.02989(17) 0.53305(34) 0.6176(3)
H24_3 H 0.0096 0.5091 0.5756
C40_3 C 0.16801(14) 0.61051(20) 0.6705(2)
C3_3 C 0.59441(15) 0.16526(15) 0.9982(3)
C4_3 C 0.58702(16) 0.13714(15) 0.9218(3)
H2_3 H 0.5566 0.1075 0.9135
C5_3 C 0.62408(17) 0.15226(16) 0.8577(3)
C6_3 C 0.6696(2) 0.1944(2) 0.8759(4)
H3_3 H 0.6956 0.2050 0.8347
C7_3 C 0.6781(2) 0.2217(2) 0.9543(4)
H4_3 H 0.7098 0.2491 0.9658
C8_3 C 0.61450(18) 0.12545(16) 0.7712(3)
C9_3 C 0.58420(19) 0.07344(16) 0.7667(3)
H5_3 H 0.5710 0.0551 0.8188
C10_3 C 0.5733(2) 0.04813(16) 0.6859(3)
C11_3 C 0.5934(2) 0.07561(17) 0.6086(3)
H6_3 H 0.5864 0.0591 0.5541
C12_3 C 0.6239(2) 0.12762(18) 0.6123(3)
H7_3 H 0.6374 0.1460 0.5604
C13_3 C 0.63394(19) 0.15183(17) 0.6933(3)
H8_3 H 0.6543 0.1866 0.6955
C23_3 C 0.83474(15) 0.42914(21) 0.9982(3)
C24_3 C 0.86286(15) 0.44987(22) 0.9218(3)
H14_3 H 0.8925 0.4490 0.9135
C25_3 C 0.84774(16) 0.47181(23) 0.8577(3)
C26_3 C 0.8056(2) 0.4751(3) 0.8759(4)
H15_3 H 0.7950 0.4905 0.8347
C27_3 C 0.7783(2) 0.4563(3) 0.9543(4)
H16_3 H 0.7509 0.4606 0.9658
C28_3 C 0.87455(16) 0.48904(24) 0.7712(3)
C29_3 C 0.92656(16) 0.51075(25) 0.7667(3)
H17_3 H 0.9449 0.5158 0.8188
C30_3 C 0.95187(16) 0.52513(26) 0.6859(3)
C31_3 C 0.92439(17) 0.51775(26) 0.6086(3)
H18_3 H 0.9409 0.5272 0.5541
C32_3 C 0.87238(18) 0.49624(27) 0.6123(3)
H19_3 H 0.8540 0.4913 0.5604
C33_3 C 0.84817(17) 0.48210(25) 0.6933(3)
H20_3 H 0.8134 0.4676 0.6955
C43_3 C 0.57086(21) 0.40559(15) 0.9982(3)
C44_3 C 0.55013(22) 0.41298(16) 0.9218(3)
H26_3 H 0.5510 0.4434 0.9135
C45_3 C 0.52819(23) 0.37592(17) 0.8577(3)
C46_3 C 0.5249(3) 0.3304(2) 0.8759(4)
H27_3 H 0.5095 0.3044 0.8347
C47_3 C 0.5437(3) 0.3219(2) 0.9543(4)
H28_3 H 0.5394 0.2902 0.9658
C48_3 C 0.51096(24) 0.38550(18) 0.7712(3)
C49_3 C 0.48925(25) 0.41580(19) 0.7667(3)
H29_3 H 0.4842 0.4290 0.8188
C50_3 C 0.47487(26) 0.4267(2) 0.6859(3)
C51_3 C 0.48225(26) 0.4066(2) 0.6086(3)
H30_3 H 0.4728 0.4136 0.5541
C52_3 C 0.50376(27) 0.3761(2) 0.6123(3)
H31_3 H 0.5087 0.3626 0.5604
C53_3 C 0.51790(25) 0.36606(19) 0.6933(3)
H32_3 H 0.5324 0.3457 0.6955
C54_3 C 0.45268(25) 0.4605(2) 0.6832(3)
C55_3 C 0.41859(26) 0.4572(2) 0.7455(3)
H33_3 H 0.4091 0.4336 0.7909
C56_3 C 0.39789(26) 0.4885(2) 0.7421(3)
H34_3 H 0.3749 0.4857 0.7851
C57_3 C 0.41149(23) 0.52374(17) 0.6751(3)
C58_3 C 0.44631(26) 0.5279(2) 0.6134(3)
H35_3 H 0.4561 0.5518 0.5685
C59_3 C 0.46695(34) 0.4968(3) 0.6176(3)
H36_3 H 0.4909 0.5004 0.5756
C60_3 C 0.38949(20) 0.55749(14) 0.6705(2)
C14_3 C 0.5395(2) 0.99214(15) 0.6832(3)
C15_3 C 0.5428(2) 0.96135(17) 0.7455(3)
H9_3 H 0.5664 0.9754 0.7909
C16_3 C 0.5115(2) 0.90935(17) 0.7421(3)
H10_3 H 0.5143 0.8891 0.7851
C17_3 C 0.47626(17) 0.88774(15) 0.6751(3)
C18_3 C 0.4721(2) 0.91837(17) 0.6134(3)
H11_3 H 0.4482 0.9042 0.5685
C19_3 C 0.5032(3) 0.97011(17) 0.6176(3)
H12_3 H 0.4996 0.9904 0.5756
C20_3 C 0.44251(14) 0.83199(14) 0.6705(2)
Zr9 Zr 0.01447(3) 0.07194(2) 0.90517(2)
O25_2 O 0.07135(16) 0.05703(13) 0.9532(2)
Zr8 Zr 0.05747(2) 0.98553(3) 0.90517(2)
O23_2 O 0.94297(13) 0.01432(10) 0.9532(2)
Zr7 Zr 0.92806(2) 0.94253(2) 0.90517(2)
O24_2 O 0.98568(10) 0.92865(16) 0.9532(2)
Zr1_2 Zr 0.73861(2) 0.39080(2) 0.42816(2)
O1_4 O 0.72540(10) 0.42829(10) 0.54285(16)
O2_4 O 0.64121(10) 0.39921(10) 0.54486(17)
O3_2 O 0.88459(10) 0.86059(9) 0.93619(17)
O5_7 O 0.6667 0.3333 0.4741(4)
O6_3 O 0.72370(13) 0.31901(10) 0.3801(2)
C1_4 C 0.68595(14) 0.42626(14) 0.5733(2)
C2_4 C 0.69310(16) 0.45840(16) 0.6530(3)
C3_4 C 0.73893(15) 0.50140(15) 0.6684(3)
H1_4 H 0.7649 0.5115 0.6274
C4_4 C 0.74632(16) 0.52952(15) 0.7448(3)
H2_4 H 0.7768 0.5591 0.7531
C5_4 C 0.70926(17) 0.51440(16) 0.8089(3)
C6_4 C 0.6638(2) 0.4722(2) 0.7907(4)
H3_4 H 0.6378 0.4616 0.8319
C7_4 C 0.6553(2) 0.4449(2) 0.7123(4)
H4_4 H 0.6236 0.4175 0.7008
C8_4 C 0.71884(18) 0.54121(16) 0.8954(3)
C9_4 C 0.74914(19) 0.59322(16) 0.8999(3)
H5_4 H 0.7624 0.6115 0.8478
C10_4 C 0.7601(2) 0.61853(16) 0.9807(3)
C13_4 C 0.69940(19) 0.51483(17) 0.9733(3)
H8_4 H 0.6791 0.4800 0.9711
C14_4 C 0.7939(2) 0.67452(15) 0.9834(3)
C15_4 C 0.7906(2) 0.70531(17) 0.9211(3)
H9_4 H 0.7670 0.6912 0.8757
C16_4 C 0.8219(2) 0.75731(17) 0.9245(3)
H10_4 H 0.8191 0.7775 0.8815
C17_4 C 0.85708(17) 0.77892(15) 0.9915(3)
C20_4 C 0.89083(14) 0.83467(14) 0.9961(2)
Zr2_2 Zr 0.60920(2) 0.34780(3) 0.42816(2)
O7_4 O 0.57171(10) 0.29710(14) 0.54285(16)
O8_4 O 0.60079(10) 0.24199(14) 0.54486(17)
O9_2 O 0.13941(9) 0.02399(13) 0.93619(17)
O11_3 O 0.68099(10) 0.40468(16) 0.3801(2)
C21_4 C 0.57374(14) 0.25968(20) 0.5733(2)
C22_4 C 0.54160(16) 0.23469(23) 0.6530(3)
C23_4 C 0.49860(15) 0.23752(21) 0.6684(3)
H13_4 H 0.4885 0.2533 0.6274
C24_4 C 0.47048(15) 0.21679(22) 0.7448(3)
H14_4 H 0.4409 0.2176 0.7531
C25_4 C 0.48560(16) 0.19485(23) 0.8089(3)
C26_4 C 0.5278(2) 0.1915(3) 0.7907(4)
H15_4 H 0.5384 0.1761 0.8319
C27_4 C 0.5551(2) 0.2103(3) 0.7123(4)
H16_4 H 0.5825 0.2060 0.7008
C28_4 C 0.45879(16) 0.17762(24) 0.8954(3)
C29_4 C 0.40678(16) 0.15591(25) 0.8999(3)
H17_4 H 0.3885 0.1508 0.8478
C30_4 C 0.38147(16) 0.14153(26) 0.9807(3)
C33_4 C 0.48517(17) 0.18456(25) 0.9733(3)
H20_4 H 0.5200 0.1990 0.9711
C34_4 C 0.32548(15) 0.11934(25) 0.9834(3)
C35_4 C 0.29469(17) 0.08525(26) 0.9211(3)
H21_4 H 0.3088 0.0757 0.8757
C36_4 C 0.24269(17) 0.06455(26) 0.9245(3)
H22_4 H 0.2225 0.0415 0.8815
C37_4 C 0.22108(15) 0.07815(23) 0.9915(3)
C40_4 C 0.16533(14) 0.05615(20) 0.9961(2)
Zr3_2 Zr 0.65220(3) 0.26139(2) 0.42816(2)
O12_4 O 0.70290(14) 0.27460(10) 0.54285(16)
O13_4 O 0.75801(14) 0.35879(10) 0.54486(17)
O14_2 O 0.97601(13) 0.11541(10) 0.93619(17)
O16_3 O 0.59532(16) 0.27630(13) 0.3801(2)
C41_4 C 0.74032(20) 0.31405(14) 0.5733(2)
C42_4 C 0.76531(23) 0.30690(16) 0.6530(3)
C43_4 C 0.76248(21) 0.26107(15) 0.6684(3)
H25_4 H 0.7467 0.2351 0.6274
C44_4 C 0.78321(22) 0.25368(16) 0.7448(3)
H26_4 H 0.7824 0.2232 0.7531
C45_4 C 0.80515(23) 0.29074(17) 0.8089(3)
C46_4 C 0.8085(3) 0.3362(2) 0.7907(4)
H27_4 H 0.8239 0.3622 0.8319
C47_4 C 0.7897(3) 0.3447(2) 0.7123(4)
H28_4 H 0.7940 0.3764 0.7008
C48_4 C 0.82238(24) 0.28116(18) 0.8954(3)
C49_4 C 0.84409(25) 0.25086(19) 0.8999(3)
H29_4 H 0.8492 0.2376 0.8478
C50_4 C 0.85847(26) 0.2399(2) 0.9807(3)
C53_4 C 0.81544(25) 0.30060(19) 0.9733(3)
H32_4 H 0.8010 0.3209 0.9711
C54_4 C 0.88066(25) 0.2061(2) 0.9834(3)
C55_4 C 0.91475(26) 0.2094(2) 0.9211(3)
H33_4 H 0.9243 0.2330 0.8757
C56_4 C 0.93545(26) 0.1781(2) 0.9245(3)
H34_4 H 0.9585 0.1809 0.8815
C57_4 C 0.92185(23) 0.14292(17) 0.9915(3)
C60_4 C 0.94385(20) 0.10917(14) 0.9961(2)
Zr7_2 Zr 0.59473(2) 0.27586(2) 0.23850(2)
Zr8_2 Zr 0.72414(2) 0.31886(3) 0.23850(2)
Zr9_2 Zr 0.68114(3) 0.40527(2) 0.23850(2)
O17_3 O 0.78208(10) 0.47274(9) 0.39714(17)
O18_3 O 0.52726(9) 0.30934(13) 0.39714(17)
O19_3 O 0.69066(13) 0.21792(10) 0.39714(17)
O20_3 O 0.58910(10) 0.18456(9) 0.39387(18)
O21_3 O 0.81544(9) 0.40455(13) 0.39387(18)
O22_3 O 0.59545(13) 0.41090(10) 0.39387(18)
O23_3 O 0.60964(13) 0.34765(10) 0.2865(2)
O24_3 O 0.65235(10) 0.26198(16) 0.2865(2)
O25_3 O 0.73802(16) 0.39036(13) 0.2865(2)
O3_3 O 0.55125(10) 0.19393(9) 0.26953(17)
C14_5 C 0.4605(2) 0.00786(15) 0.3168(3)
C15_5 C 0.4572(2) 0.03865(17) 0.2545(3)
H9_5 H 0.4336 0.0246 0.2091
C16_5 C 0.4885(2) 0.09065(17) 0.2579(3)
H10_5 H 0.4857 0.1109 0.2149
C17_5 C 0.52374(17) 0.11226(15) 0.3249(3)
C18_4 C 0.5279(2) 0.08163(17) 0.3866(3)
H11_4 H 0.5518 0.0958 0.4315
C19_4 C 0.4968(3) 0.02989(17) 0.3824(3)
H12_4 H 0.5004 0.0096 0.4244
C20_5 C 0.55749(14) 0.16801(14) 0.3295(2)
C3_5 C 0.40559(15) 0.83474(15) 0.0018(3)
C4_5 C 0.41298(16) 0.86286(15) 0.0782(3)
H2_5 H 0.4434 0.8925 0.0865
C5_5 C 0.37592(17) 0.84774(16) 0.1423(3)
C6_5 C 0.3304(2) 0.8056(2) 0.1241(4)
H3_5 H 0.3044 0.7950 0.1653
C7_5 C 0.3219(2) 0.7783(2) 0.0457(4)
H4_5 H 0.2902 0.7509 0.0342
C8_5 C 0.38550(18) 0.87455(16) 0.2288(3)
C9_5 C 0.41580(19) 0.92656(16) 0.2333(3)
H5_5 H 0.4290 0.9449 0.1812
C10_5 C 0.4267(2) 0.95187(16) 0.3141(3)
C11_4 C 0.4066(2) 0.92439(17) 0.3914(3)
H6_4 H 0.4136 0.9409 0.4459
C12_4 C 0.3761(2) 0.87238(18) 0.3877(3)
H7_4 H 0.3626 0.8540 0.4396
C13_5 C 0.36606(19) 0.84817(17) 0.3067(3)
H8_5 H 0.3457 0.8134 0.3045
C23_5 C 0.16526(15) 0.57086(21) 0.0018(3)
C24_5 C 0.13714(15) 0.55013(22) 0.0782(3)
H14_5 H 0.1075 0.5510 0.0865
C25_5 C 0.15226(16) 0.52819(23) 0.1423(3)
C26_5 C 0.1944(2) 0.5249(3) 0.1241(4)
H15_5 H 0.2050 0.5095 0.1653
C27_5 C 0.2217(2) 0.5437(3) 0.0457(4)
H16_5 H 0.2491 0.5394 0.0342
C28_5 C 0.12545(16) 0.51096(24) 0.2288(3)
C29_5 C 0.07344(16) 0.48925(25) 0.2333(3)
H17_5 H 0.0551 0.4842 0.1812
C30_5 C 0.04813(16) 0.47487(26) 0.3141(3)
C31_4 C 0.07561(17) 0.48225(26) 0.3914(3)
H18_4 H 0.0591 0.4728 0.4459
C32_4 C 0.12762(18) 0.50376(27) 0.3877(3)
H19_4 H 0.1460 0.5087 0.4396
C33_5 C 0.15183(17) 0.51790(25) 0.3067(3)
H20_5 H 0.1866 0.5324 0.3045
O14_3 O 0.64267(13) 0.44875(10) 0.26953(17)
C43_5 C 0.42914(21) 0.59441(15) 0.0018(3)
C44_5 C 0.44987(22) 0.58702(16) 0.0782(3)
H26_5 H 0.4490 0.5566 0.0865
C45_5 C 0.47181(23) 0.62408(17) 0.1423(3)
C46_5 C 0.4751(3) 0.6696(2) 0.1241(4)
H27_5 H 0.4905 0.6956 0.1653
C47_5 C 0.4563(3) 0.6781(2) 0.0457(4)
H28_5 H 0.4606 0.7098 0.0342
C48_5 C 0.48904(24) 0.61450(18) 0.2288(3)
C49_5 C 0.51075(25) 0.58420(19) 0.2333(3)
H29_5 H 0.5158 0.5710 0.1812
C50_5 C 0.52513(26) 0.5733(2) 0.3141(3)
C51_4 C 0.51775(26) 0.5934(2) 0.3914(3)
H30_4 H 0.5272 0.5864 0.4459
C52_4 C 0.49624(27) 0.6239(2) 0.3877(3)
H31_4 H 0.4913 0.6374 0.4396
C53_5 C 0.48210(25) 0.63394(19) 0.3067(3)
H32_5 H 0.4676 0.6543 0.3045
C54_5 C 0.54732(25) 0.5395(2) 0.3168(3)
C55_5 C 0.58141(26) 0.5428(2) 0.2545(3)
H33_5 H 0.5909 0.5664 0.2091
C56_5 C 0.60211(26) 0.5115(2) 0.2579(3)
H34_5 H 0.6251 0.5143 0.2149
C57_5 C 0.58851(23) 0.47626(17) 0.3249(3)
C58_4 C 0.55369(26) 0.4721(2) 0.3866(3)
H35_4 H 0.5439 0.4482 0.4315
C59_4 C 0.53305(34) 0.5032(3) 0.3824(3)
H36_4 H 0.5091 0.4996 0.4244
C60_5 C 0.61051(20) 0.44251(14) 0.3295(2)
O9_3 O 0.80607(9) 0.35733(13) 0.26953(17)
C34_5 C 0.99214(15) 0.45268(25) 0.3168(3)
C35_5 C 0.96135(17) 0.41859(26) 0.2545(3)
H21_5 H 0.9754 0.4091 0.2091
C36_5 C 0.90935(17) 0.39789(26) 0.2579(3)
H22_5 H 0.8891 0.3749 0.2149
C37_5 C 0.88774(15) 0.41149(23) 0.3249(3)
C38_4 C 0.91837(17) 0.44631(26) 0.3866(3)
H23_4 H 0.9042 0.4561 0.4315
C39_4 C 0.97011(17) 0.46695(34) 0.3824(3)
H24_4 H 0.9904 0.4909 0.4244
C40_5 C 0.83199(14) 0.38949(20) 0.3295(2)
O5_8 O -0.0000 -0.0000 0.8592(4)
O7_5 O 0.09496(10) 0.03623(14) 0.79048(16)
O8_5 O 0.06588(10) 0.09134(14) 0.78847(17)
O10_2 O 0.51789(9) 0.26212(13) 0.27280(18)
C21_5 C 0.09293(14) 0.07365(20) 0.7600(2)
C22_5 C 0.12507(16) 0.09864(23) 0.6803(3)
C23_6 C 0.16807(15) 0.09581(21) 0.6649(3)
H13_5 H 0.1782 0.0800 0.7059
C24_6 C 0.19619(15) 0.11654(22) 0.5885(3)
H14_6 H 0.2258 0.1157 0.5802
C25_6 C 0.18107(16) 0.13848(23) 0.5244(3)
C26_6 C 0.1389(2) 0.1418(3) 0.5426(4)
H15_6 H 0.1283 0.1572 0.5014
C27_6 C 0.1116(2) 0.1230(3) 0.6210(4)
H16_6 H 0.0842 0.1273 0.6325
C28_6 C 0.20788(16) 0.15571(24) 0.4379(3)
C29_6 C 0.25989(16) 0.17742(25) 0.4334(3)
H17_6 H 0.2782 0.1825 0.4855
C30_6 C 0.28520(16) 0.19180(26) 0.3526(3)
C31_5 C 0.25772(17) 0.18442(26) 0.2753(3)
H18_5 H 0.2742 0.1939 0.2208
C32_5 C 0.20571(18) 0.16291(27) 0.2790(3)
H19_5 H 0.1873 0.1580 0.2271
C33_6 C 0.18150(17) 0.14877(25) 0.3600(3)
H20_6 H 0.1467 0.1343 0.3622
C34_6 C 0.34119(15) 0.21399(25) 0.3499(3)
C35_6 C 0.37198(17) 0.24808(26) 0.4122(3)
H21_6 H 0.3579 0.2576 0.4576
C36_6 C 0.42398(17) 0.26878(26) 0.4088(3)
H22_6 H 0.4442 0.2918 0.4518
C37_6 C 0.44559(15) 0.25518(23) 0.3418(3)
C38_5 C 0.41496(17) 0.22036(26) 0.2801(3)
H23_5 H 0.4291 0.2106 0.2352
C39_5 C 0.36322(17) 0.19972(34) 0.2843(3)
H24_5 H 0.3429 0.1758 0.2423
C40_6 C 0.50134(14) 0.27718(20) 0.3372(2)
O20_4 O 0.07756(10) 0.14878(9) 0.93947(18)
O2_5 O 0.02546(10) 0.93412(10) 0.78847(17)
O5_9 O -0.0000 1.0000 0.8592(4)
C6_6 C 0.0029(2) 0.8611(2) 0.5426(4)
H3_6 H 0.0289 0.8717 0.5014
C7_6 C 0.0114(2) 0.8884(2) 0.6210(4)
H4_6 H 0.0431 0.9158 0.6325
O22_4 O 0.07121(13) 0.92244(10) 0.93947(18)
O5_10 O 1.0000 -0.0000 0.8592(4)
O12_5 O 0.96377(14) 0.05873(10) 0.79048(16)
O15_2 O 0.73788(13) 0.25577(10) 0.27280(18)
C41_5 C 0.92635(20) 0.01928(14) 0.7600(2)
C42_5 C 0.90136(23) 0.02643(16) 0.6803(3)
C43_6 C 0.90419(21) 0.07226(15) 0.6649(3)
H25_5 H 0.9200 0.0982 0.7059
C44_6 C 0.88346(22) 0.07965(16) 0.5885(3)
H26_6 H 0.8843 0.1101 0.5802
C45_6 C 0.86152(23) 0.04259(17) 0.5244(3)
C48_6 C 0.84429(24) 0.05217(18) 0.4379(3)
C49_6 C 0.82258(25) 0.08247(19) 0.4334(3)
H29_6 H 0.8175 0.0957 0.4855
C50_6 C 0.80820(26) 0.0934(2) 0.3526(3)
C51_5 C 0.81558(26) 0.0733(2) 0.2753(3)
H30_5 H 0.8061 0.0803 0.2208
C52_5 C 0.83709(27) 0.0428(2) 0.2790(3)
H31_5 H 0.8420 0.0293 0.2271
C53_6 C 0.85123(25) 0.03273(19) 0.3600(3)
H32_6 H 0.8657 0.0124 0.3622
C54_6 C 0.78601(25) 0.1272(2) 0.3499(3)
C55_6 C 0.75192(26) 0.1239(2) 0.4122(3)
H33_6 H 0.7424 0.1003 0.4576
C56_6 C 0.73122(26) 0.1552(2) 0.4088(3)
H34_6 H 0.7082 0.1524 0.4518
C57_6 C 0.74482(23) 0.19041(17) 0.3418(3)
C58_5 C 0.77964(26) 0.1946(2) 0.2801(3)
H35_5 H 0.7894 0.2185 0.2352
C59_5 C 0.80028(34) 0.1635(3) 0.2843(3)
H36_5 H 0.8242 0.1671 0.2423
C60_6 C 0.72282(20) 0.22416(14) 0.3372(2)
O1_5 O 0.94127(10) 0.90504(10) 0.79048(16)
O4_2 O 0.74423(10) 0.48211(9) 0.27280(18)
O5_11 O 1.0000 1.0000 0.8592(4)
C1_5 C 0.98072(14) 0.90707(14) 0.7600(2)
C2_5 C 0.97357(16) 0.87493(16) 0.6803(3)
C3_6 C 0.92774(15) 0.83193(15) 0.6649(3)
H1_5 H 0.9018 0.8218 0.7059
C4_6 C 0.92035(16) 0.80381(15) 0.5885(3)
H2_6 H 0.8899 0.7742 0.5802
C5_6 C 0.95741(17) 0.81893(16) 0.5244(3)
C8_6 C 0.94783(18) 0.79212(16) 0.4379(3)
C9_6 C 0.91753(19) 0.74011(16) 0.4334(3)
H5_6 H 0.9043 0.7218 0.4855
C10_6 C 0.9066(2) 0.71480(16) 0.3526(3)
C11_5 C 0.9267(2) 0.74228(17) 0.2753(3)
H6_5 H 0.9197 0.7258 0.2208
C12_5 C 0.9572(2) 0.79429(18) 0.2790(3)
H7_5 H 0.9707 0.8127 0.2271
C13_6 C 0.96727(19) 0.81850(17) 0.3600(3)
H8_6 H 0.9876 0.8533 0.3622
C14_6 C 0.8728(2) 0.65881(15) 0.3499(3)
C15_6 C 0.8761(2) 0.62802(17) 0.4122(3)
H9_6 H 0.8997 0.6421 0.4576
C16_6 C 0.8448(2) 0.57602(17) 0.4088(3)
H10_6 H 0.8476 0.5558 0.4518
C17_6 C 0.80959(17) 0.55441(15) 0.3418(3)
C18_5 C 0.8054(2) 0.58504(17) 0.2801(3)
H11_5 H 0.7815 0.5709 0.2352
C19_5 C 0.8365(3) 0.63678(17) 0.2843(3)
H12_5 H 0.8329 0.6571 0.2423
C20_6 C 0.77584(14) 0.49866(14) 0.3372(2)
O13_5 O 0.90866(14) 0.97454(10) 0.78847(17)
C46_6 C 0.8582(3) 0.9971(2) 0.5426(4)
H27_6 H 0.8428 0.9711 0.5014
C47_6 C 0.8770(3) 0.9886(2) 0.6210(4)
H28_6 H 0.8727 0.9569 0.6325
O21_4 O 0.85122(9) 0.92879(13) 0.93947(18)
C11_6 C 0.2600(2) 0.40895(17) 0.9420(3)
H6_6 H 0.2530 0.3925 0.8875
C12_6 C 0.2905(2) 0.46096(18) 0.9457(3)
H7_6 H 0.3040 0.4794 0.8938
C18_6 C 0.1387(2) 0.25171(17) 0.9468(3)
H11_6 H 0.1148 0.2376 0.9019
C19_6 C 0.1698(3) 0.30345(17) 0.9510(3)
H12_6 H 0.1662 0.3238 0.9090
C31_6 C 0.59105(17) 0.85109(26) 0.9420(3)
H18_6 H 0.6075 0.8606 0.8875
C32_6 C 0.53904(18) 0.82958(27) 0.9457(3)
H19_6 H 0.5206 0.8247 0.8938
C38_6 C 0.74829(17) 0.88703(26) 0.9468(3)
H23_6 H 0.7624 0.8773 0.9019
C39_6 C 0.69655(17) 0.86639(34) 0.9510(3)
H24_6 H 0.6762 0.8425 0.9090
C51_6 C 0.14891(26) 0.7400(2) 0.9420(3)
H30_6 H 0.1394 0.7470 0.8875
C52_6 C 0.17042(27) 0.7095(2) 0.9457(3)
H31_6 H 0.1753 0.6960 0.8938
C58_6 C 0.11297(26) 0.8613(2) 0.9468(3)
H35_6 H 0.1227 0.8852 0.9019
C59_6 C 0.13361(34) 0.8302(3) 0.9510(3)
H36_6 H 0.1575 0.8338 0.9090
O1_6 O 0.60794(10) 0.23837(10) 0.12381(16)
O2_6 O 0.69213(10) 0.26745(10) 0.12180(17)
O5_12 O 0.6667 0.3333 0.1925(4)
C1_6 C 0.64739(14) 0.24040(14) 0.0933(2)
C2_6 C 0.64024(16) 0.20826(16) 0.0136(3)
H1_6 H 0.5685 0.1551 0.0392
O7_6 O 0.76163(10) 0.36956(14) 0.12381(16)
O8_6 O 0.73255(10) 0.42467(14) 0.12180(17)
C21_6 C 0.75960(14) 0.40698(20) 0.0933(2)
C22_6 C 0.79174(16) 0.43197(23) 0.0136(3)
H13_6 H 0.8449 0.4133 0.0392
O12_6 O 0.63044(14) 0.39206(10) 0.12381(16)
O13_6 O 0.57533(14) 0.30787(10) 0.12180(17)
C41_6 C 0.59302(20) 0.35261(14) 0.0933(2)
C42_6 C 0.56803(23) 0.35976(16) 0.0136(3)
H25_6 H 0.5867 0.4315 0.0392
loop_
_geom_bond_atom_site_label_1
_geom_bond_atom_site_label_2
_geom_bond_site_symmetry_1
_geom_bond_site_symmetry_2
Zr1 O1 1_555 1_555
O1 C1 1_555 1_555
O3 C20 1_555 1_555
O4 C20 1_555 1_555
O5 Zr1 1_555 1_555
C1 C2 1_555 1_555
C2 C3 1_555 1_555
C3 H1 1_555 1_555
C4 C3 1_555 1_555
H2 C4 1_555 1_555
C5 C4 1_555 1_555
C8 C5 1_555 1_555
C9 C8 1_555 1_555
H5 C9 1_555 1_555
C10 C9 1_555 1_555
C11 C10 1_555 1_555
H6 C11 1_555 1_555
C12 C11 1_555 1_555
H7 C12 1_555 1_555
C13 C8 1_555 1_555
H8 C13 1_555 1_555
C14 C10 1_555 1_555
C15 C14 1_555 1_555
H9 C15 1_555 1_555
C16 C15 1_555 1_555
H10 C16 1_555 1_555
C17 C16 1_555 1_555
C18 C17 1_555 1_555
H11 C18 1_555 1_555
C19 C14 1_555 1_555
H12 C19 1_555 1_555
C20 C17 1_555 1_555
O11 Zr1 1_555 1_555
O13 Zr1 1_555 1_555
H27 C46 1_555 1_555
H28 C47 1_555 1_555
Zr6 O4 1_555 1_555
Zr10 O3 1_555 1_555
O17 Zr1 1_555 1_555
O21 Zr1 1_555 1_555
C12 C13 1_555 1_555
C18 C19 1_555 1_555
C46 C47 1_555 1_555
O14 C60 1_555 1_555
O15 C60 1_555 1_555
C41 O12 1_555 1_555
C42 C41 1_555 1_555
C43 C42 1_555 1_555
H25 C43 1_555 1_555
C44 C43 1_555 1_555
H26 C44 1_555 1_555
C45 C44 1_555 1_555
C48 C45 1_555 1_555
C49 C48 1_555 1_555
H29 C49 1_555 1_555
C50 C49 1_555 1_555
C51 C50 1_555 1_555
H30 C51 1_555 1_555
C52 C51 1_555 1_555
H31 C52 1_555 1_555
C53 C48 1_555 1_555
H32 C53 1_555 1_555
C54 C50 1_555 1_555
C55 C54 1_555 1_555
H33 C55 1_555 1_555
C56 C55 1_555 1_555
H34 C56 1_555 1_555
C57 C56 1_555 1_555
C58 C57 1_555 1_555
H35 C58 1_555 1_555
C59 C54 1_555 1_555
H36 C59 1_555 1_555
C60 C57 1_555 1_555
Zr5 O15 1_555 1_555
Zr12 O14 1_555 1_555
C52 C53 1_555 1_555
C58 C59 1_555 1_555
H3 C6 1_555 1_555
H4 C7 1_555 1_555
Zr2 O2 1_555 1_555
O22 Zr2 1_555 1_555
O5_3 Zr2 1_555 1_555
C6 C7 1_555 1_555
O8 C21 1_555 1_555
O9 C40 1_555 1_555
O10 C40 1_555 1_555
C21 O7 1_555 1_555
C22 C21 1_555 1_555
C23 C22 1_555 1_555
H13 C23 1_555 1_555
C24 C23 1_555 1_555
H14 C24 1_555 1_555
C25 C24 1_555 1_555
C26 C25 1_555 1_555
H15 C26 1_555 1_555
C27 C22 1_555 1_555
H16 C27 1_555 1_555
C28 C25 1_555 1_555
C29 C28 1_555 1_555
H17 C29 1_555 1_555
C30 C29 1_555 1_555
C31 C30 1_555 1_555
H18 C31 1_555 1_555
C32 C31 1_555 1_555
H19 C32 1_555 1_555
C33 C28 1_555 1_555
H20 C33 1_555 1_555
C34 C30 1_555 1_555
C35 C34 1_555 1_555
H21 C35 1_555 1_555
C36 C35 1_555 1_555
H22 C36 1_555 1_555
C37 C36 1_555 1_555
C38 C37 1_555 1_555
H23 C38 1_555 1_555
C39 C34 1_555 1_555
H24 C39 1_555 1_555
C40 C37 1_555 1_555
Zr3 O5_4 1_555 1_555
Zr4 O10 1_555 1_555
Zr11 O9 1_555 1_555
O20 Zr3 1_555 1_555
O8 Zr3 1_555 1_555
C26 C27 1_555 1_555
C32 C33 1_555 1_555
C38 C39 1_555 1_555
Zr3 O16 1_555 1_555
H6_2 C11_2 1_555 1_555
C12_2 C11_2 1_555 1_555
H7_2 C12_2 1_555 1_555
H11_2 C18_2 1_555 1_555
H12_2 C19_2 1_555 1_555
H18_2 C31_2 1_555 1_555
C32_2 C31_2 1_555 1_555
H19_2 C32_2 1_555 1_555
H23_2 C38_2 1_555 1_555
H24_2 C39_2 1_555 1_555
H30_2 C51_2 1_555 1_555
C52_2 C51_2 1_555 1_555
H31_2 C52_2 1_555 1_555
H35_2 C58_2 1_555 1_555
H36_2 C59_2 1_555 1_555
C18_2 C19_2 1_555 1_555
C38_2 C39_2 1_555 1_555
C58_2 C59_2 1_555 1_555
Zr4 O1_2 1_555 1_555
O1_2 C1_2 1_555 1_555
O2_2 C1_2 1_555 1_555
O5_5 Zr4 1_555 1_555
O6_2 Zr4 1_555 1_555
C1_2 C2_2 1_555 1_555
Zr5 O2_2 1_555 1_555
O7_2 Zr5 1_555 1_555
O8_2 C21_2 1_555 1_555
O11_2 Zr4 1_555 1_555
C21_2 O7_2 1_555 1_555
C22_2 C21_2 1_555 1_555
Zr6 O5_5 1_555 1_555
O12_2 Zr6 1_555 1_555
O13_2 Zr4 1_555 1_555
O16_2 Zr5 1_555 1_555
C41_2 O12_2 1_555 1_555
C42_2 C41_2 1_555 1_555
Zr10 O16_2 1_555 1_555
Zr11 O6_2 1_555 1_555
Zr12 O11_2 1_555 1_555
O17_2 Zr4 1_555 1_555
O18_2 Zr5 1_555 1_555
O19_2 Zr6 1_555 1_555
O23 Zr5 1_555 1_555
O24 Zr6 1_555 1_555
O25 Zr4 1_555 1_555
O5_5 Zr5 1_555 1_555
O6_2 Zr6 1_555 1_555
Zr5 O11_2 1_555 1_555
O8_2 Zr6 1_555 1_555
Zr6 O16_2 1_555 1_555
O13_2 C41_2 1_555 1_555
Zr10 O23 1_555 1_555
Zr10 O24 1_555 1_555
Zr11 O24 1_555 1_555
Zr11 O25 1_555 1_555
Zr12 O23 1_555 1_555
Zr12 O25 1_555 1_555
Zr10 O1_3 1_555 1_555
O1_3 C1_3 1_555 1_555
O2_3 C1_3 1_555 1_555
O17 C20_2 1_555 1_555
O5_6 Zr10 1_555 1_555
C1_3 C2_3 1_555 1_555
C2_3 C3_2 1_555 1_555
C3_2 H1_3 1_555 1_555
C4_2 C3_2 1_555 1_555
H2_2 C4_2 1_555 1_555
C5_2 C4_2 1_555 1_555
C6_2 C5_2 1_555 1_555
H3_2 C6_2 1_555 1_555
C7_2 C2_3 1_555 1_555
H4_2 C7_2 1_555 1_555
C8_2 C5_2 1_555 1_555
C9_2 C8_2 1_555 1_555
H5_2 C9_2 1_555 1_555
C10_2 C9_2 1_555 1_555
C13_2 C8_2 1_555 1_555
H8_2 C13_2 1_555 1_555
C14_2 C10_2 1_555 1_555
C15_2 C14_2 1_555 1_555
H9_2 C15_2 1_555 1_555
C16_2 C15_2 1_555 1_555
H10_2 C16_2 1_555 1_555
C17_2 C16_2 1_555 1_555
C20_2 C17_2 1_555 1_555
Zr11 O2_3 1_555 1_555
O7_3 Zr11 1_555 1_555
O8_3 C21_3 1_555 1_555
O18 C40_2 1_555 1_555
C21_3 O7_3 1_555 1_555
C22_3 C21_3 1_555 1_555
C23_2 C22_3 1_555 1_555
H13_3 C23_2 1_555 1_555
C24_2 C23_2 1_555 1_555
H14_2 C24_2 1_555 1_555
C25_2 C24_2 1_555 1_555
C26_2 C25_2 1_555 1_555
H15_2 C26_2 1_555 1_555
C27_2 C22_3 1_555 1_555
H16_2 C27_2 1_555 1_555
C28_2 C25_2 1_555 1_555
C29_2 C28_2 1_555 1_555
H17_2 C29_2 1_555 1_555
C30_2 C29_2 1_555 1_555
C33_2 C28_2 1_555 1_555
H20_2 C33_2 1_555 1_555
C34_2 C30_2 1_555 1_555
C35_2 C34_2 1_555 1_555
H21_2 C35_2 1_555 1_555
C36_2 C35_2 1_555 1_555
H22_2 C36_2 1_555 1_555
C37_2 C36_2 1_555 1_555
C40_2 C37_2 1_555 1_555
Zr12 O5_6 1_555 1_555
O12_3 Zr12 1_555 1_555
O13_3 Zr10 1_555 1_555
O19 C60_2 1_555 1_555
C41_3 O12_3 1_555 1_555
C42_3 C41_3 1_555 1_555
C43_2 C42_3 1_555 1_555
H25_3 C43_2 1_555 1_555
C44_2 C43_2 1_555 1_555
H26_2 C44_2 1_555 1_555
C45_2 C44_2 1_555 1_555
C46_2 C45_2 1_555 1_555
H27_2 C46_2 1_555 1_555
C47_2 C42_3 1_555 1_555
H28_2 C47_2 1_555 1_555
C48_2 C45_2 1_555 1_555
C49_2 C48_2 1_555 1_555
H29_2 C49_2 1_555 1_555
C50_2 C49_2 1_555 1_555
C53_2 C48_2 1_555 1_555
H32_2 C53_2 1_555 1_555
C54_2 C50_2 1_555 1_555
C55_2 C54_2 1_555 1_555
H33_2 C55_2 1_555 1_555
C56_2 C55_2 1_555 1_555
H34_2 C56_2 1_555 1_555
C57_2 C56_2 1_555 1_555
C60_2 C57_2 1_555 1_555
O20_2 Zr12 1_555 1_555
O21_2 Zr10 1_555 1_555
O22_2 Zr11 1_555 1_555
O5_6 Zr11 1_555 1_555
C6_2 C7_2 1_555 1_555
O8_3 Zr12 1_555 1_555
C26_2 C27_2 1_555 1_555
O13_3 C41_3 1_555 1_555
C46_2 C47_2 1_555 1_555
O18_2 C40_3 1_555 1_555
O21_2 C40_3 1_555 1_555
C35_3 C34_3 1_555 1_555
H21_3 C35_3 1_555 1_555
C36_3 C35_3 1_555 1_555
H22_3 C36_3 1_555 1_555
C37_3 C36_3 1_555 1_555
C38_3 C37_3 1_555 1_555
H23_3 C38_3 1_555 1_555
C39_3 C34_3 1_555 1_555
H24_3 C39_3 1_555 1_555
C40_3 C37_3 1_555 1_555
C38_3 C39_3 1_555 1_555
C4_3 C3_3 1_555 1_555
H2_3 C4_3 1_555 1_555
C5_3 C4_3 1_555 1_555
C6_3 C5_3 1_555 1_555
H3_3 C6_3 1_555 1_555
H4_3 C7_3 1_555 1_555
C8_3 C5_3 1_555 1_555
C9_3 C8_3 1_555 1_555
H5_3 C9_3 1_555 1_555
C10_3 C9_3 1_555 1_555
C11_3 C10_3 1_555 1_555
H6_3 C11_3 1_555 1_555
C12_3 C11_3 1_555 1_555
H7_3 C12_3 1_555 1_555
C13_3 C8_3 1_555 1_555
H8_3 C13_3 1_555 1_555
C24_3 C23_3 1_555 1_555
H14_3 C24_3 1_555 1_555
C25_3 C24_3 1_555 1_555
C26_3 C25_3 1_555 1_555
H15_3 C26_3 1_555 1_555
H16_3 C27_3 1_555 1_555
C28_3 C25_3 1_555 1_555
C29_3 C28_3 1_555 1_555
H17_3 C29_3 1_555 1_555
C30_3 C29_3 1_555 1_555
C31_3 C30_3 1_555 1_555
H18_3 C31_3 1_555 1_555
C32_3 C31_3 1_555 1_555
H19_3 C32_3 1_555 1_555
C33_3 C28_3 1_555 1_555
H20_3 C33_3 1_555 1_555
O19_2 C60_3 1_555 1_555
O22_2 C60_3 1_555 1_555
C44_3 C43_3 1_555 1_555
H26_3 C44_3 1_555 1_555
C45_3 C44_3 1_555 1_555
C46_3 C45_3 1_555 1_555
H27_3 C46_3 1_555 1_555
H28_3 C47_3 1_555 1_555
C48_3 C45_3 1_555 1_555
C49_3 C48_3 1_555 1_555
H29_3 C49_3 1_555 1_555
C50_3 C49_3 1_555 1_555
C51_3 C50_3 1_555 1_555
H30_3 C51_3 1_555 1_555
C52_3 C51_3 1_555 1_555
H31_3 C52_3 1_555 1_555
C53_3 C48_3 1_555 1_555
H32_3 C53_3 1_555 1_555
C54_3 C50_3 1_555 1_555
C55_3 C54_3 1_555 1_555
H33_3 C55_3 1_555 1_555
C56_3 C55_3 1_555 1_555
H34_3 C56_3 1_555 1_555
C57_3 C56_3 1_555 1_555
C58_3 C57_3 1_555 1_555
H35_3 C58_3 1_555 1_555
C59_3 C54_3 1_555 1_555
H36_3 C59_3 1_555 1_555
C60_3 C57_3 1_555 1_555
C6_3 C7_3 1_555 1_555
C12_3 C13_3 1_555 1_555
C26_3 C27_3 1_555 1_555
C32_3 C33_3 1_555 1_555
C46_3 C47_3 1_555 1_555
C52_3 C53_3 1_555 1_555
C58_3 C59_3 1_555 1_555
O17_2 C20_3 1_555 1_555
O20_2 C20_3 1_555 1_555
C15_3 C14_3 1_555 1_555
H9_3 C15_3 1_555 1_555
C16_3 C15_3 1_555 1_555
H10_3 C16_3 1_555 1_555
C17_3 C16_3 1_555 1_555
C18_3 C17_3 1_555 1_555
H11_3 C18_3 1_555 1_555
C19_3 C14_3 1_555 1_555
H12_3 C19_3 1_555 1_555
C20_3 C17_3 1_555 1_555
C18_3 C19_3 1_555 1_555
Zr9 O25_2 1_555 1_555
Zr7 O24_2 1_555 1_555
Zr1_2 O1_4 1_555 1_555
O1_4 C1_4 1_555 1_555
O2_4 C1_4 1_555 1_555
O3_2 C20_4 1_555 1_555
O5_7 Zr1_2 1_555 1_555
O6_3 Zr1_2 1_555 1_555
C1_4 C2_4 1_555 1_555
C2_4 C3_4 1_555 1_555
C3_4 H1_4 1_555 1_555
C4_4 C3_4 1_555 1_555
H2_4 C4_4 1_555 1_555
C5_4 C4_4 1_555 1_555
C6_4 C5_4 1_555 1_555
H3_4 C6_4 1_555 1_555
C7_4 C2_4 1_555 1_555
H4_4 C7_4 1_555 1_555
C8_4 C5_4 1_555 1_555
C9_4 C8_4 1_555 1_555
H5_4 C9_4 1_555 1_555
C10_4 C9_4 1_555 1_555
C13_4 C8_4 1_555 1_555
H8_4 C13_4 1_555 1_555
C14_4 C10_4 1_555 1_555
C15_4 C14_4 1_555 1_555
H9_4 C15_4 1_555 1_555
C16_4 C15_4 1_555 1_555
H10_4 C16_4 1_555 1_555
C17_4 C16_4 1_555 1_555
C20_4 C17_4 1_555 1_555
Zr2_2 O2_4 1_555 1_555
O7_4 Zr2_2 1_555 1_555
O8_4 C21_4 1_555 1_555
O9_2 C40_4 1_555 1_555
O11_3 Zr1_2 1_555 1_555
C21_4 O7_4 1_555 1_555
C22_4 C21_4 1_555 1_555
C23_4 C22_4 1_555 1_555
H13_4 C23_4 1_555 1_555
C24_4 C23_4 1_555 1_555
H14_4 C24_4 1_555 1_555
C25_4 C24_4 1_555 1_555
C26_4 C25_4 1_555 1_555
H15_4 C26_4 1_555 1_555
C27_4 C22_4 1_555 1_555
H16_4 C27_4 1_555 1_555
C28_4 C25_4 1_555 1_555
C29_4 C28_4 1_555 1_555
H17_4 C29_4 1_555 1_555
C30_4 C29_4 1_555 1_555
C33_4 C28_4 1_555 1_555
H20_4 C33_4 1_555 1_555
C34_4 C30_4 1_555 1_555
C35_4 C34_4 1_555 1_555
H21_4 C35_4 1_555 1_555
C36_4 C35_4 1_555 1_555
H22_4 C36_4 1_555 1_555
C37_4 C36_4 1_555 1_555
C40_4 C37_4 1_555 1_555
Zr3_2 O5_7 1_555 1_555
O12_4 Zr3_2 1_555 1_555
O13_4 Zr1_2 1_555 1_555
O14_2 C60_4 1_555 1_555
O16_3 Zr2_2 1_555 1_555
C41_4 O12_4 1_555 1_555
C42_4 C41_4 1_555 1_555
C43_4 C42_4 1_555 1_555
H25_4 C43_4 1_555 1_555
C44_4 C43_4 1_555 1_555
H26_4 C44_4 1_555 1_555
C45_4 C44_4 1_555 1_555
C46_4 C45_4 1_555 1_555
H27_4 C46_4 1_555 1_555
C47_4 C42_4 1_555 1_555
H28_4 C47_4 1_555 1_555
C48_4 C45_4 1_555 1_555
C49_4 C48_4 1_555 1_555
H29_4 C49_4 1_555 1_555
C50_4 C49_4 1_555 1_555
C53_4 C48_4 1_555 1_555
H32_4 C53_4 1_555 1_555
C54_4 C50_4 1_555 1_555
C55_4 C54_4 1_555 1_555
H33_4 C55_4 1_555 1_555
C56_4 C55_4 1_555 1_555
H34_4 C56_4 1_555 1_555
C57_4 C56_4 1_555 1_555
C60_4 C57_4 1_555 1_555
Zr7_2 O16_3 1_555 1_555
Zr8_2 O6_3 1_555 1_555
Zr9_2 O11_3 1_555 1_555
Zr7 O3_2 1_555 1_555
O17_3 Zr1_2 1_555 1_555
O18_3 Zr2_2 1_555 1_555
O19_3 Zr3_2 1_555 1_555
O20_3 Zr3_2 1_555 1_555
O21_3 Zr1_2 1_555 1_555
O22_3 Zr2_2 1_555 1_555
O23_3 Zr2_2 1_555 1_555
O24_3 Zr3_2 1_555 1_555
O25_3 Zr1_2 1_555 1_555
O5_7 Zr2_2 1_555 1_555
O6_3 Zr3_2 1_555 1_555
C6_4 C7_4 1_555 1_555
Zr2_2 O11_3 1_555 1_555
O8_4 Zr3_2 1_555 1_555
C26_4 C27_4 1_555 1_555
Zr3_2 O16_3 1_555 1_555
O13_4 C41_4 1_555 1_555
C46_4 C47_4 1_555 1_555
Zr7_2 O23_3 1_555 1_555
Zr7_2 O24_3 1_555 1_555
Zr8_2 O24_3 1_555 1_555
Zr8_2 O25_3 1_555 1_555
Zr9_2 O23_3 1_555 1_555
Zr9_2 O25_3 1_555 1_555
O3_3 C20_5 1_555 1_555
O20_3 C20_5 1_555 1_555
C15_5 C14_5 1_555 1_555
H9_5 C15_5 1_555 1_555
C16_5 C15_5 1_555 1_555
H10_5 C16_5 1_555 1_555
C17_5 C16_5 1_555 1_555
C18_4 C17_5 1_555 1_555
H11_4 C18_4 1_555 1_555
C19_4 C14_5 1_555 1_555
H12_4 C19_4 1_555 1_555
C20_5 C17_5 1_555 1_555
Zr7_2 O3_3 1_555 1_555
C18_4 C19_4 1_555 1_555
C4_5 C3_5 1_555 1_555
H2_5 C4_5 1_555 1_555
C5_5 C4_5 1_555 1_555
C6_5 C5_5 1_555 1_555
H3_5 C6_5 1_555 1_555
H4_5 C7_5 1_555 1_555
C8_5 C5_5 1_555 1_555
C9_5 C8_5 1_555 1_555
H5_5 C9_5 1_555 1_555
C10_5 C9_5 1_555 1_555
C11_4 C10_5 1_555 1_555
H6_4 C11_4 1_555 1_555
C12_4 C11_4 1_555 1_555
H7_4 C12_4 1_555 1_555
C13_5 C8_5 1_555 1_555
H8_5 C13_5 1_555 1_555
C24_5 C23_5 1_555 1_555
H14_5 C24_5 1_555 1_555
C25_5 C24_5 1_555 1_555
C26_5 C25_5 1_555 1_555
H15_5 C26_5 1_555 1_555
H16_5 C27_5 1_555 1_555
C28_5 C25_5 1_555 1_555
C29_5 C28_5 1_555 1_555
H17_5 C29_5 1_555 1_555
C30_5 C29_5 1_555 1_555
C31_4 C30_5 1_555 1_555
H18_4 C31_4 1_555 1_555
C32_4 C31_4 1_555 1_555
H19_4 C32_4 1_555 1_555
C33_5 C28_5 1_555 1_555
H20_5 C33_5 1_555 1_555
O14_3 C60_5 1_555 1_555
O22_3 C60_5 1_555 1_555
C44_5 C43_5 1_555 1_555
H26_5 C44_5 1_555 1_555
C45_5 C44_5 1_555 1_555
C46_5 C45_5 1_555 1_555
H27_5 C46_5 1_555 1_555
H28_5 C47_5 1_555 1_555
C48_5 C45_5 1_555 1_555
C49_5 C48_5 1_555 1_555
H29_5 C49_5 1_555 1_555
C50_5 C49_5 1_555 1_555
C51_4 C50_5 1_555 1_555
H30_4 C51_4 1_555 1_555
C52_4 C51_4 1_555 1_555
H31_4 C52_4 1_555 1_555
C53_5 C48_5 1_555 1_555
H32_5 C53_5 1_555 1_555
C54_5 C50_5 1_555 1_555
C55_5 C54_5 1_555 1_555
H33_5 C55_5 1_555 1_555
C56_5 C55_5 1_555 1_555
H34_5 C56_5 1_555 1_555
C57_5 C56_5 1_555 1_555
C58_4 C57_5 1_555 1_555
H35_4 C58_4 1_555 1_555
C59_4 C54_5 1_555 1_555
H36_4 C59_4 1_555 1_555
C60_5 C57_5 1_555 1_555
Zr9_2 O14_3 1_555 1_555
C6_5 C7_5 1_555 1_555
C12_4 C13_5 1_555 1_555
C26_5 C27_5 1_555 1_555
C32_4 C33_5 1_555 1_555
C46_5 C47_5 1_555 1_555
C52_4 C53_5 1_555 1_555
C58_4 C59_4 1_555 1_555
O9_3 C40_5 1_555 1_555
O21_3 C40_5 1_555 1_555
C35_5 C34_5 1_555 1_555
H21_5 C35_5 1_555 1_555
C36_5 C35_5 1_555 1_555
H22_5 C36_5 1_555 1_555
C37_5 C36_5 1_555 1_555
C38_4 C37_5 1_555 1_555
H23_4 C38_4 1_555 1_555
C39_4 C34_5 1_555 1_555
H24_4 C39_4 1_555 1_555
C40_5 C37_5 1_555 1_555
Zr8_2 O9_3 1_555 1_555
C38_4 C39_4 1_555 1_555
O8_5 C21_5 1_555 1_555
O18_3 C40_6 1_555 1_555
O10_2 C40_6 1_555 1_555
C21_5 O7_5 1_555 1_555
C22_5 C21_5 1_555 1_555
C23_6 C22_5 1_555 1_555
H13_5 C23_6 1_555 1_555
C24_6 C23_6 1_555 1_555
H14_6 C24_6 1_555 1_555
C25_6 C24_6 1_555 1_555
C26_6 C25_6 1_555 1_555
H15_6 C26_6 1_555 1_555
C27_6 C22_5 1_555 1_555
H16_6 C27_6 1_555 1_555
C28_6 C25_6 1_555 1_555
C29_6 C28_6 1_555 1_555
H17_6 C29_6 1_555 1_555
C30_6 C29_6 1_555 1_555
C31_5 C30_6 1_555 1_555
H18_5 C31_5 1_555 1_555
C32_5 C31_5 1_555 1_555
H19_5 C32_5 1_555 1_555
C33_6 C28_6 1_555 1_555
H20_6 C33_6 1_555 1_555
C34_6 C30_6 1_555 1_555
C35_6 C34_6 1_555 1_555
H21_6 C35_6 1_555 1_555
C36_6 C35_6 1_555 1_555
H22_6 C36_6 1_555 1_555
C37_6 C36_6 1_555 1_555
C38_5 C37_6 1_555 1_555
H23_5 C38_5 1_555 1_555
C39_5 C34_6 1_555 1_555
H24_5 C39_5 1_555 1_555
C40_6 C37_6 1_555 1_555
Zr9 O5_8 1_555 1_555
Zr7_2 O10_2 1_555 1_555
O20_4 Zr9 1_555 1_555
O8_5 Zr9 1_555 1_555
C26_6 C27_6 1_555 1_555
C32_5 C33_6 1_555 1_555
C38_5 C39_5 1_555 1_555
H3_6 C6_6 1_555 1_555
H4_6 C7_6 1_555 1_555
Zr8 O2_5 1_555 1_555
O22_4 Zr8 1_555 1_555
O5_9 Zr8 1_555 1_555
C6_6 C7_6 1_555 1_555
O19_3 C60_6 1_555 1_555
O15_2 C60_6 1_555 1_555
C41_5 O12_5 1_555 1_555
C42_5 C41_5 1_555 1_555
C43_6 C42_5 1_555 1_555
H25_5 C43_6 1_555 1_555
C44_6 C43_6 1_555 1_555
H26_6 C44_6 1_555 1_555
C45_6 C44_6 1_555 1_555
C48_6 C45_6 1_555 1_555
C49_6 C48_6 1_555 1_555
H29_6 C49_6 1_555 1_555
C50_6 C49_6 1_555 1_555
C51_5 C50_6 1_555 1_555
H30_5 C51_5 1_555 1_555
C52_5 C51_5 1_555 1_555
H31_5 C52_5 1_555 1_555
C53_6 C48_6 1_555 1_555
H32_6 C53_6 1_555 1_555
C54_6 C50_6 1_555 1_555
C55_6 C54_6 1_555 1_555
H33_6 C55_6 1_555 1_555
C56_6 C55_6 1_555 1_555
H34_6 C56_6 1_555 1_555
C57_6 C56_6 1_555 1_555
C58_5 C57_6 1_555 1_555
H35_5 C58_5 1_555 1_555
C59_5 C54_6 1_555 1_555
H36_5 C59_5 1_555 1_555
C60_6 C57_6 1_555 1_555
Zr8_2 O15_2 1_555 1_555
C52_5 C53_6 1_555 1_555
C58_5 C59_5 1_555 1_555
Zr7 O1_5 1_555 1_555
O1_5 C1_5 1_555 1_555
O17_3 C20_6 1_555 1_555
O4_2 C20_6 1_555 1_555
O5_11 Zr7 1_555 1_555
C1_5 C2_5 1_555 1_555
C2_5 C3_6 1_555 1_555
C3_6 H1_5 1_555 1_555
C4_6 C3_6 1_555 1_555
H2_6 C4_6 1_555 1_555
C5_6 C4_6 1_555 1_555
C8_6 C5_6 1_555 1_555
C9_6 C8_6 1_555 1_555
H5_6 C9_6 1_555 1_555
C10_6 C9_6 1_555 1_555
C11_5 C10_6 1_555 1_555
H6_5 C11_5 1_555 1_555
C12_5 C11_5 1_555 1_555
H7_5 C12_5 1_555 1_555
C13_6 C8_6 1_555 1_555
H8_6 C13_6 1_555 1_555
C14_6 C10_6 1_555 1_555
C15_6 C14_6 1_555 1_555
H9_6 C15_6 1_555 1_555
C16_6 C15_6 1_555 1_555
H10_6 C16_6 1_555 1_555
C17_6 C16_6 1_555 1_555
C18_5 C17_6 1_555 1_555
H11_5 C18_5 1_555 1_555
C19_5 C14_6 1_555 1_555
H12_5 C19_5 1_555 1_555
C20_6 C17_6 1_555 1_555
O13_5 Zr7 1_555 1_555
H27_6 C46_6 1_555 1_555
H28_6 C47_6 1_555 1_555
Zr9_2 O4_2 1_555 1_555
O21_4 Zr7 1_555 1_555
C12_5 C13_6 1_555 1_555
C18_5 C19_5 1_555 1_555
C46_6 C47_6 1_555 1_555
H6_6 C11_6 1_555 1_555
C12_6 C11_6 1_555 1_555
H7_6 C12_6 1_555 1_555
H11_6 C18_6 1_555 1_555
H12_6 C19_6 1_555 1_555
H18_6 C31_6 1_555 1_555
C32_6 C31_6 1_555 1_555
H19_6 C32_6 1_555 1_555
H23_6 C38_6 1_555 1_555
H24_6 C39_6 1_555 1_555
H30_6 C51_6 1_555 1_555
C52_6 C51_6 1_555 1_555
H31_6 C52_6 1_555 1_555
H35_6 C58_6 1_555 1_555
H36_6 C59_6 1_555 1_555
C18_6 C19_6 1_555 1_555
C38_6 C39_6 1_555 1_555
C58_6 C59_6 1_555 1_555
Zr7_2 O1_6 1_555 1_555
O1_6 C1_6 1_555 1_555
O2_6 C1_6 1_555 1_555
O5_12 Zr7_2 1_555 1_555
C1_6 C2_6 1_555 1_555
Zr8_2 O2_6 1_555 1_555
O7_6 Zr8_2 1_555 1_555
O8_6 C21_6 1_555 1_555
C21_6 O7_6 1_555 1_555
C22_6 C21_6 1_555 1_555
Zr9_2 O5_12 1_555 1_555
O12_6 Zr9_2 1_555 1_555
O13_6 Zr7_2 1_555 1_555
C41_6 O12_6 1_555 1_555
C42_6 C41_6 1_555 1_555
O5_12 Zr8_2 1_555 1_555
O8_6 Zr9_2 1_555 1_555
O13_6 C41_6 1_555 1_555

#END
