
###############################################################################
#
# This file contains modified crystal structure data generated from the
# MOF subset of the Cambridge Structural Database (CSD) v543 
# hosted by the Cambridge Crystallographic Data Centre (CCDC).
#
# This work is licensed under the Creative Commons
# Attribution-NonCommercial-ShareAlike 4.0 International License.
# To view a copy of this license, visit
# http://creativecommons.org/licenses/by-nc-sa/4.0/
# or send a letter to
# Creative Commons, PO Box 1866, Mountain View, CA 94042, USA.
#
# CIF created using the CSD Python API on 29 September 2022
# The structure has been converted into the P1 space group
# The structure has a 3D framework
# The original CSD entry BIKMOA is in the rhombohedral crystal system
# The framework has been calculated to contain at least 10.0% void space
# The void calculation uses a probe of radius 1.32A, grid spacing 0.4
#
###############################################################################

data_BIKMOA
_chemical_formula_moiety         '(C360 H216 O92 Zr18)n'
_symmetry_cell_setting           triclinic
_symmetry_space_group_name_H-M   'P 1'
_symmetry_Int_Tables_number      1
_space_group_name_Hall           'P 1'
loop_
_symmetry_equiv_pos_site_id
_symmetry_equiv_pos_as_xyz
1 x,y,z
_cell_length_a                   30.2410(3)
_cell_length_b                   30.2410(3)
_cell_length_c                   14.7824(3)
_cell_angle_alpha                90
_cell_angle_beta                 90
_cell_angle_gamma                120
_cell_volume                     11707.6
loop_
_atom_site_label
_atom_site_type_symbol
_atom_site_fract_x
_atom_site_fract_y
_atom_site_fract_z
Zr1 Zr 0.07321(2) 0.05784(2) 0.09667(2)
O1 O 0.06025(9) 0.09742(9) 0.21201(18)
O3 O 0.21501(9) 0.52647(8) 0.60452(16)
O4 O 0.25289(9) 0.51700(9) 0.72983(17)
O5 O 0.0000 0.0000 0.1431(4)
C1 C 0.01969(14) 0.09379(14) 0.2451(3)
C2 C 0.02572(15) 0.12405(15) 0.3290(3)
C3 C 0.06809(15) 0.17183(15) 0.3414(3)
H1 H 0.0934 0.1862 0.2956
C4 C 0.07373(15) 0.19884(14) 0.4205(3)
H2 H 0.1022 0.2323 0.4271
C5 C 0.03813(15) 0.17761(15) 0.4903(3)
C8 C 0.04513(15) 0.20405(15) 0.5781(3)
C9 C 0.07202(16) 0.25723(15) 0.5832(3)
H5 H 0.0850 0.2766 0.5293
C10 C 0.08024(17) 0.28255(15) 0.6660(3)
C11 C 0.06066(19) 0.25402(16) 0.7445(3)
H6 H 0.0652 0.2708 0.8009
C12 C 0.03445(19) 0.20097(16) 0.7407(3)
H7 H 0.0218 0.1815 0.7947
C13 C 0.02675(16) 0.17651(15) 0.6583(3)
H8 H 0.0086 0.1403 0.6563
C14 C 0.11287(18) 0.33918(15) 0.6691(3)
C15 C 0.11281(18) 0.36965(15) 0.5996(3)
H9 H 0.0894 0.3547 0.5510
C16 C 0.14677(18) 0.42217(15) 0.6000(3)
H10 H 0.1460 0.4427 0.5520
C17 C 0.18118(15) 0.44449(13) 0.6692(3)
C18 C 0.1781(2) 0.41543(18) 0.7428(4)
H11 H 0.1995 0.4310 0.7937
C19 C 0.1436(2) 0.36326(18) 0.7429(4)
H12 H 0.1411 0.3437 0.7949
C20 C 0.21931(13) 0.50050(13) 0.6678(2)
O11 O 0.01544(11) 0.07261(19) 0.0480(3)
O13 O 0.09125(13) 0.02539(9) 0.21601(19)
C46 C 0.13341(26) 0.00417(18) 0.4766(4)
H27 H 0.1428 0.0289 0.5232
C47 C 0.11407(27) 0.01067(18) 0.3965(4)
H28 H 0.1115 0.0404 0.3876
Zr6 Zr 0.31796(3) 0.59346(2) 0.76334(2)
Zr10 Zr 0.26012(2) 0.60883(2) 0.57000(2)
O17 O 0.11832(9) 0.14020(8) 0.06215(16)
O21 O 0.14967(9) 0.06922(13) 0.06316(17)
O5_2 O -0.0000 1.0000 0.1431(4)
O6 O 0.05717(16) 0.98456(11) 0.0480(3)
O12 O 0.03717(13) 0.93975(9) 0.21201(18)
O14 O 0.31146(12) 0.78499(9) 0.60452(16)
O15 O 0.26411(13) 0.74711(9) 0.72983(17)
C41 C 0.07410(20) 0.98031(14) 0.2451(3)
C42 C 0.09833(21) 0.97428(15) 0.3290(3)
C43 C 0.10374(21) 0.93191(15) 0.3414(3)
H25 H 0.0928 0.9066 0.2956
C44 C 0.12511(21) 0.92627(15) 0.4205(3)
H26 H 0.1301 0.8978 0.4271
C45 C 0.13948(21) 0.96187(15) 0.4903(3)
C48 C 0.15892(21) 0.95487(15) 0.5781(3)
C49 C 0.18521(22) 0.92798(16) 0.5832(3)
H29 H 0.1916 0.9150 0.5293
C50 C 0.20231(23) 0.91976(17) 0.6660(3)
C51 C 0.19336(25) 0.93934(19) 0.7445(3)
H30 H 0.2056 0.9348 0.8009
C52 C 0.16652(25) 0.96555(19) 0.7407(3)
H31 H 0.1597 0.9782 0.7947
C53 C 0.14976(22) 0.97325(16) 0.6583(3)
H32 H 0.1317 0.9914 0.6563
C54 C 0.22631(23) 0.88713(18) 0.6691(3)
C55 C 0.25684(23) 0.88719(18) 0.5996(3)
H33 H 0.2653 0.9106 0.5510
C56 C 0.27540(23) 0.85323(18) 0.6000(3)
H34 H 0.2967 0.8540 0.5520
C57 C 0.26331(20) 0.81882(15) 0.6692(3)
C58 C 0.23733(27) 0.8219(2) 0.7428(4)
H35 H 0.2315 0.8005 0.7937
C59 C 0.21966(27) 0.8564(2) 0.7429(4)
H36 H 0.2026 0.8589 0.7949
C60 C 0.28119(18) 0.78069(13) 0.6678(2)
Zr5 Zr 0.27549(2) 0.68204(3) 0.76334(2)
Zr12 Zr 0.34870(3) 0.73988(2) 0.57000(2)
O19 O 0.02187(12) 0.88168(9) 0.06215(16)
O2 O 0.97461(9) 0.06586(9) 0.21601(19)
O5_3 O 1.0000 0.0000 0.1431(4)
C6 C 0.99583(18) 0.12924(19) 0.4766(4)
H3 H 0.9711 0.1139 0.5232
C7 C 0.98933(18) 0.1034(2) 0.3965(4)
H4 H 0.9596 0.0711 0.3876
Zr2 Zr 0.94216(2) 0.01537(3) 0.09667(2)
O22 O 0.93078(13) 0.08044(9) 0.06316(17)
O5_4 O 1.0000 1.0000 0.1431(4)
O7 O 0.90258(9) 0.96283(13) 0.21201(18)
O8 O 0.93414(9) 0.90875(13) 0.21601(19)
O9 O 0.47353(8) 0.68854(12) 0.60452(16)
O10 O 0.48300(9) 0.73589(13) 0.72983(17)
C21 C 0.90621(14) 0.92590(20) 0.2451(3)
C22 C 0.87595(15) 0.90167(21) 0.3290(3)
C23 C 0.82817(15) 0.89626(21) 0.3414(3)
H13 H 0.8138 0.9072 0.2956
C24 C 0.80116(14) 0.87489(21) 0.4205(3)
H14 H 0.7677 0.8699 0.4271
C25 C 0.82239(15) 0.86052(21) 0.4903(3)
C26 C 0.87076(19) 0.86659(26) 0.4766(4)
H15 H 0.8861 0.8572 0.5232
C27 C 0.8966(2) 0.88593(27) 0.3965(4)
H16 H 0.9289 0.8885 0.3876
C28 C 0.79595(15) 0.84108(21) 0.5781(3)
C29 C 0.74277(15) 0.81479(22) 0.5832(3)
H17 H 0.7234 0.8084 0.5293
C30 C 0.71745(15) 0.79769(23) 0.6660(3)
C31 C 0.74598(16) 0.80664(25) 0.7445(3)
H18 H 0.7292 0.7944 0.8009
C32 C 0.79903(16) 0.83348(25) 0.7407(3)
H19 H 0.8185 0.8403 0.7947
C33 C 0.82349(15) 0.85024(22) 0.6583(3)
H20 H 0.8597 0.8683 0.6563
C34 C 0.66082(15) 0.77369(23) 0.6691(3)
C35 C 0.63035(15) 0.74316(23) 0.5996(3)
H21 H 0.6453 0.7347 0.5510
C36 C 0.57783(15) 0.72460(23) 0.6000(3)
H22 H 0.5573 0.7033 0.5520
C37 C 0.55551(13) 0.73669(20) 0.6692(3)
C38 C 0.58457(18) 0.76267(27) 0.7428(4)
H23 H 0.5690 0.7685 0.7937
C39 C 0.63674(18) 0.78034(27) 0.7429(4)
H24 H 0.6563 0.7974 0.7949
C40 C 0.49950(13) 0.71881(18) 0.6678(2)
Zr3 Zr 0.98463(3) 0.92679(2) 0.09667(2)
O16 O 0.92739(19) 0.94283(16) 0.0480(3)
Zr4 Zr 0.40654(2) 0.72451(2) 0.76334(2)
Zr11 Zr 0.39117(2) 0.65130(3) 0.57000(2)
O18 O 0.85980(8) 0.97813(12) 0.06215(16)
O20 O 0.91956(9) 0.85033(9) 0.06316(17)
C11_2 C 0.72733(19) 0.58735(16) 0.0778(3)
H6_2 H 0.7319 0.6041 0.1342
C12_2 C 0.70112(19) 0.53430(16) 0.0740(3)
H7_2 H 0.6885 0.5148 0.1280
C14_2 C 0.77954(18) 0.67251(15) 0.0024(3)
C17_2 C 0.84785(15) 0.77782(13) 0.0025(3)
C18_2 C 0.8448(2) 0.74876(18) 0.0761(4)
H11_2 H 0.8662 0.7643 0.1270
C19_2 C 0.8103(2) 0.69659(18) 0.0762(4)
H12_2 H 0.8078 0.6770 0.1282
C20_2 C 0.88598(13) 0.83383(13) 0.0011(2)
C31_2 C 0.41265(16) 0.13997(25) 0.0778(3)
H18_2 H 0.3959 0.1277 0.1342
C32_2 C 0.46570(16) 0.16681(25) 0.0740(3)
H19_2 H 0.4852 0.1736 0.1280
C34_2 C 0.32749(15) 0.10702(23) 0.0024(3)
C37_2 C 0.22218(13) 0.07002(20) 0.0025(3)
C38_2 C 0.25124(18) 0.09600(27) 0.0761(4)
H23_2 H 0.2357 0.1018 0.1270
C39_2 C 0.30341(18) 0.11367(27) 0.0762(4)
H24_2 H 0.3230 0.1307 0.1282
C40_2 C 0.16617(13) 0.05214(18) 0.0011(2)
C51_2 C 0.86003(25) 0.27267(19) 0.0778(3)
H30_2 H 0.8723 0.2681 0.1342
C52_2 C 0.83319(25) 0.29888(19) 0.0740(3)
H31_2 H 0.8264 0.3115 0.1280
C54_2 C 0.89298(23) 0.22046(18) 0.0024(3)
C57_2 C 0.92998(20) 0.15215(15) 0.0025(3)
C58_2 C 0.90400(27) 0.1552(2) 0.0761(4)
H35_2 H 0.8982 0.1338 0.1270
C59_2 C 0.88633(27) 0.1897(2) 0.0762(4)
H36_2 H 0.8693 0.1922 0.1282
C60_2 C 0.94786(18) 0.11402(13) 0.0011(2)
O1_2 O 0.39358(9) 0.76409(9) 0.87868(18)
O2_2 O 0.30794(9) 0.73253(9) 0.88268(19)
O5_5 O 0.3333 0.6667 0.8098(4)
O6_2 O 0.39050(16) 0.65123(11) 0.7147(3)
C1_2 C 0.35302(14) 0.76046(14) 0.9118(3)
C2_2 C 0.35905(15) 0.79072(15) 0.9957(3)
H1_2 H 0.4267 0.8529 0.9623
O7_2 O 0.23591(9) 0.62950(13) 0.87868(18)
O8_2 O 0.26747(9) 0.57542(13) 0.88268(19)
O11_2 O 0.34877(11) 0.73928(19) 0.7147(3)
C21_2 C 0.23954(14) 0.59257(20) 0.9118(3)
C22_2 C 0.20928(15) 0.56834(21) 0.9957(3)
H13_2 H 0.1471 0.5739 0.9623
O12_2 O 0.37050(13) 0.60642(9) 0.87868(18)
O13_2 O 0.42458(13) 0.69206(9) 0.88268(19)
O16_2 O 0.26072(19) 0.60950(16) 0.7147(3)
C41_2 C 0.40743(20) 0.64698(14) 0.9118(3)
C42_2 C 0.43166(21) 0.64095(15) 0.9957(3)
H25_2 H 0.4261 0.5733 0.9623
O17_2 O 0.45166(9) 0.80686(8) 0.72881(16)
O18_2 O 0.19314(8) 0.64479(12) 0.72881(16)
O19_2 O 0.35521(12) 0.54834(9) 0.72881(16)
O23 O 0.27616(16) 0.68211(11) 0.6187(3)
O24 O 0.31789(11) 0.59406(19) 0.6187(3)
O25 O 0.40594(19) 0.72384(16) 0.6187(3)
O1_3 O 0.27308(9) 0.56925(9) 0.45466(18)
O2_3 O 0.35872(9) 0.60081(9) 0.45066(19)
O5_6 O 0.3333 0.6667 0.5236(4)
C1_3 C 0.31364(14) 0.57288(14) 0.4216(3)
C2_3 C 0.30761(15) 0.54262(15) 0.3377(3)
C3_2 C 0.26524(15) 0.49484(15) 0.3253(3)
H1_3 H 0.2399 0.4805 0.3711
C4_2 C 0.25960(15) 0.46783(14) 0.2462(3)
H2_2 H 0.2311 0.4344 0.2396
C5_2 C 0.29520(15) 0.48906(15) 0.1764(3)
C6_2 C 0.33750(18) 0.53743(19) 0.1901(4)
H3_2 H 0.3622 0.5528 0.1435
C7_2 C 0.34400(18) 0.5633(2) 0.2702(4)
H4_2 H 0.3737 0.5956 0.2791
C8_2 C 0.28820(15) 0.46262(15) 0.0886(3)
C9_2 C 0.26131(16) 0.40944(15) 0.0835(3)
H5_2 H 0.2483 0.3901 0.1374
C10_2 C 0.25309(17) 0.38412(15) 0.0007(3)
C13_2 C 0.30658(16) 0.49016(15) 0.0084(3)
H8_2 H 0.3247 0.5264 0.0104
C15_2 C 0.22052(18) 0.29702(15) 0.0671(3)
H9_2 H 0.2439 0.3120 0.1157
C16_2 C 0.18656(18) 0.24450(15) 0.0667(3)
H10_2 H 0.1873 0.2240 0.1147
O7_3 O 0.43075(9) 0.70384(13) 0.45466(18)
O8_3 O 0.39919(9) 0.75792(13) 0.45066(19)
C21_3 C 0.42712(14) 0.74077(20) 0.4216(3)
C22_3 C 0.45738(15) 0.76500(21) 0.3377(3)
C23_2 C 0.50516(15) 0.77041(21) 0.3253(3)
H13_3 H 0.5195 0.7595 0.3711
C24_2 C 0.53217(14) 0.79178(21) 0.2462(3)
H14_2 H 0.5656 0.7968 0.2396
C25_2 C 0.51094(15) 0.80615(21) 0.1764(3)
C26_2 C 0.46257(19) 0.80008(26) 0.1901(4)
H15_2 H 0.4472 0.8095 0.1435
C27_2 C 0.4367(2) 0.78074(27) 0.2702(4)
H16_2 H 0.4044 0.7782 0.2791
C28_2 C 0.53738(15) 0.82559(21) 0.0886(3)
C29_2 C 0.59056(15) 0.85188(22) 0.0835(3)
H17_2 H 0.6099 0.8583 0.1374
C30_2 C 0.61588(15) 0.86898(23) 0.0007(3)
C33_2 C 0.50984(15) 0.81643(22) 0.0084(3)
H20_2 H 0.4736 0.7984 0.0104
C35_2 C 0.70298(15) 0.92351(23) 0.0671(3)
H21_2 H 0.6880 0.9320 0.1157
C36_2 C 0.75550(15) 0.94207(23) 0.0667(3)
H22_2 H 0.7760 0.9634 0.1147
O12_3 O 0.29616(13) 0.72692(9) 0.45466(18)
O13_3 O 0.24208(13) 0.64128(9) 0.45066(19)
C41_3 C 0.25923(20) 0.68636(14) 0.4216(3)
C42_3 C 0.23500(21) 0.69239(15) 0.3377(3)
C43_2 C 0.22959(21) 0.73476(15) 0.3253(3)
H25_3 H 0.2405 0.7601 0.3711
C44_2 C 0.20822(21) 0.74040(15) 0.2462(3)
H26_2 H 0.2032 0.7689 0.2396
C45_2 C 0.19385(21) 0.70480(15) 0.1764(3)
C46_2 C 0.19992(26) 0.66250(18) 0.1901(4)
H27_2 H 0.1905 0.6378 0.1435
C47_2 C 0.21926(27) 0.65600(18) 0.2702(4)
H28_2 H 0.2218 0.6263 0.2791
C48_2 C 0.17441(21) 0.71180(15) 0.0886(3)
C49_2 C 0.14812(22) 0.73869(16) 0.0835(3)
H29_2 H 0.1417 0.7517 0.1374
C50_2 C 0.13102(23) 0.74691(17) 0.0007(3)
C53_2 C 0.18357(22) 0.69342(16) 0.0084(3)
H32_2 H 0.2016 0.6753 0.0104
C55_2 C 0.07649(23) 0.77948(18) 0.0671(3)
H33_2 H 0.0680 0.7561 0.1157
C56_2 C 0.05793(23) 0.81344(18) 0.0667(3)
H34_2 H 0.0366 0.8127 0.1147
O20_2 O 0.41378(9) 0.81633(9) 0.60350(17)
O21_2 O 0.18367(9) 0.59744(13) 0.60350(17)
O22_2 O 0.40256(13) 0.58622(9) 0.60350(17)
C34_3 C 0.00585(15) 0.55964(23) 0.6642(3)
C35_3 C 0.03632(15) 0.59017(23) 0.7337(3)
H21_3 H 0.0214 0.5986 0.7823
C36_3 C 0.08884(15) 0.60873(23) 0.7333(3)
H22_3 H 0.1094 0.6300 0.7813
C37_3 C 0.11116(13) 0.59664(20) 0.6641(3)
C38_3 C 0.08210(18) 0.57066(27) 0.5905(4)
H23_3 H 0.0977 0.5648 0.5396
C39_3 C 0.02993(18) 0.55299(27) 0.5904(4)
H24_3 H 0.0104 0.5359 0.5384
C40_3 C 0.16717(13) 0.61452(18) 0.6655(2)
C3_3 C 0.59858(15) 0.16150(15) 0.9919(3)
C4_3 C 0.59294(15) 0.13449(14) 0.9128(3)
H2_3 H 0.5645 0.1010 0.9062
C5_3 C 0.62854(15) 0.15572(15) 0.8430(3)
C6_3 C 0.67084(18) 0.20409(19) 0.8567(4)
H3_3 H 0.6956 0.2194 0.8101
C7_3 C 0.67734(18) 0.2299(2) 0.9368(4)
H4_3 H 0.7071 0.2622 0.9457
C8_3 C 0.62154(15) 0.12928(15) 0.7552(3)
C9_3 C 0.59465(16) 0.07610(15) 0.7501(3)
H5_3 H 0.5817 0.0567 0.8040
C10_3 C 0.58643(17) 0.05078(15) 0.6673(3)
C11_3 C 0.60601(19) 0.07931(16) 0.5888(3)
H6_3 H 0.6015 0.0625 0.5324
C12_3 C 0.63222(19) 0.13236(16) 0.5926(3)
H7_3 H 0.6449 0.1518 0.5386
C13_3 C 0.63992(16) 0.15682(15) 0.6750(3)
H8_3 H 0.6581 0.1930 0.6770
C23_3 C 0.83850(15) 0.43707(21) 0.9919(3)
C24_3 C 0.86551(14) 0.45844(21) 0.9128(3)
H14_3 H 0.8990 0.4634 0.9062
C25_3 C 0.84428(15) 0.47281(21) 0.8430(3)
C26_3 C 0.79591(19) 0.46674(26) 0.8567(4)
H15_3 H 0.7806 0.4761 0.8101
C27_3 C 0.7701(2) 0.44740(27) 0.9368(4)
H16_3 H 0.7378 0.4448 0.9457
C28_3 C 0.87072(15) 0.49225(21) 0.7552(3)
C29_3 C 0.92390(15) 0.51854(22) 0.7501(3)
H17_3 H 0.9433 0.5249 0.8040
C30_3 C 0.94922(15) 0.53564(23) 0.6673(3)
C31_3 C 0.92069(16) 0.52669(25) 0.5888(3)
H18_3 H 0.9375 0.5389 0.5324
C32_3 C 0.86764(16) 0.49985(25) 0.5926(3)
H19_3 H 0.8482 0.4930 0.5386
C33_3 C 0.84318(15) 0.48309(22) 0.6750(3)
H20_3 H 0.8070 0.4650 0.6770
C43_3 C 0.56293(21) 0.40142(15) 0.9919(3)
C44_3 C 0.54156(21) 0.40706(15) 0.9128(3)
H26_3 H 0.5366 0.4355 0.9062
C45_3 C 0.52719(21) 0.37146(15) 0.8430(3)
C46_3 C 0.53326(26) 0.32916(18) 0.8567(4)
H27_3 H 0.5239 0.3044 0.8101
C47_3 C 0.55260(27) 0.32266(18) 0.9368(4)
H28_3 H 0.5552 0.2929 0.9457
C48_3 C 0.50775(21) 0.37846(15) 0.7552(3)
C49_3 C 0.48146(22) 0.40535(16) 0.7501(3)
H29_3 H 0.4751 0.4183 0.8040
C50_3 C 0.46436(23) 0.41357(17) 0.6673(3)
C51_3 C 0.47331(25) 0.39399(19) 0.5888(3)
H30_3 H 0.4611 0.3985 0.5324
C52_3 C 0.50015(25) 0.36778(19) 0.5926(3)
H31_3 H 0.5070 0.3551 0.5386
C53_3 C 0.51691(22) 0.36008(16) 0.6750(3)
H32_3 H 0.5350 0.3419 0.6770
C54_3 C 0.44036(23) 0.44620(18) 0.6642(3)
C55_3 C 0.40983(23) 0.44614(18) 0.7337(3)
H33_3 H 0.4014 0.4227 0.7823
C56_3 C 0.39127(23) 0.48010(18) 0.7333(3)
H34_3 H 0.3700 0.4793 0.7813
C57_3 C 0.40336(20) 0.51451(15) 0.6641(3)
C58_3 C 0.42934(27) 0.5114(2) 0.5905(4)
H35_3 H 0.4352 0.5328 0.5396
C59_3 C 0.44701(27) 0.4769(2) 0.5904(4)
H36_3 H 0.4641 0.4744 0.5384
C60_3 C 0.38548(18) 0.55264(13) 0.6655(2)
C14_3 C 0.55380(18) 0.99415(15) 0.6642(3)
C15_3 C 0.55386(18) 0.96368(15) 0.7337(3)
H9_3 H 0.5773 0.9786 0.7823
C16_3 C 0.51990(18) 0.91116(15) 0.7333(3)
H10_3 H 0.5207 0.8906 0.7813
C17_3 C 0.48549(15) 0.88884(13) 0.6641(3)
C18_3 C 0.4886(2) 0.91790(18) 0.5905(4)
H11_3 H 0.4672 0.9023 0.5396
C19_3 C 0.5231(2) 0.97007(18) 0.5904(4)
H12_3 H 0.5256 0.9896 0.5384
C20_3 C 0.44736(13) 0.83283(13) 0.6655(2)
Zr9 Zr 0.01537(3) 0.07321(2) 0.90333(2)
O25_2 O 0.07261(19) 0.05717(16) 0.9520(3)
Zr8 Zr 0.05784(2) 0.98463(3) 0.90333(2)
O23_2 O 0.94283(16) 0.01544(11) 0.9520(3)
Zr7 Zr 0.92679(2) 0.94216(2) 0.90333(2)
O24_2 O 0.98456(11) 0.92739(19) 0.9520(3)
Zr1_2 Zr 0.73988(2) 0.39117(2) 0.43000(2)
O1_4 O 0.72692(9) 0.43075(9) 0.54534(18)
O2_4 O 0.64128(9) 0.39919(9) 0.54934(19)
O3_2 O 0.88168(9) 0.85980(8) 0.93785(16)
O5_7 O 0.6667 0.3333 0.4764(4)
O6_3 O 0.72384(16) 0.31789(11) 0.3813(3)
C1_4 C 0.68636(14) 0.42712(14) 0.5784(3)
C2_4 C 0.69239(15) 0.45738(15) 0.6623(3)
C3_4 C 0.73476(15) 0.50516(15) 0.6747(3)
H1_4 H 0.7601 0.5195 0.6289
C4_4 C 0.74040(15) 0.53217(14) 0.7538(3)
H2_4 H 0.7689 0.5656 0.7604
C5_4 C 0.70480(15) 0.51094(15) 0.8236(3)
C6_4 C 0.66250(18) 0.46257(19) 0.8099(4)
H3_4 H 0.6378 0.4472 0.8565
C7_4 C 0.65600(18) 0.4367(2) 0.7298(4)
H4_4 H 0.6263 0.4044 0.7209
C8_4 C 0.71180(15) 0.53738(15) 0.9114(3)
C9_4 C 0.73869(16) 0.59056(15) 0.9165(3)
H5_4 H 0.7517 0.6099 0.8626
C10_4 C 0.74691(17) 0.61588(15) 0.9993(3)
C13_4 C 0.69342(16) 0.50984(15) 0.9916(3)
H8_4 H 0.6753 0.4736 0.9896
C15_4 C 0.77948(18) 0.70298(15) 0.9329(3)
H9_4 H 0.7561 0.6880 0.8843
C16_4 C 0.81344(18) 0.75550(15) 0.9333(3)
H10_4 H 0.8127 0.7760 0.8853
Zr2_2 Zr 0.60883(2) 0.34870(3) 0.43000(2)
O7_4 O 0.56925(9) 0.29616(13) 0.54534(18)
O8_4 O 0.60081(9) 0.24208(13) 0.54934(19)
O9_2 O 0.14020(8) 0.02187(12) 0.93785(16)
O11_3 O 0.68211(11) 0.40594(19) 0.3813(3)
C21_4 C 0.57288(14) 0.25923(20) 0.5784(3)
C22_4 C 0.54262(15) 0.23500(21) 0.6623(3)
C23_4 C 0.49484(15) 0.22959(21) 0.6747(3)
H13_4 H 0.4805 0.2405 0.6289
C24_4 C 0.46783(14) 0.20822(21) 0.7538(3)
H14_4 H 0.4344 0.2032 0.7604
C25_4 C 0.48906(15) 0.19385(21) 0.8236(3)
C26_4 C 0.53743(19) 0.19992(26) 0.8099(4)
H15_4 H 0.5528 0.1905 0.8565
C27_4 C 0.5633(2) 0.21926(27) 0.7298(4)
H16_4 H 0.5956 0.2218 0.7209
C28_4 C 0.46262(15) 0.17441(21) 0.9114(3)
C29_4 C 0.40944(15) 0.14812(22) 0.9165(3)
H17_4 H 0.3901 0.1417 0.8626
C30_4 C 0.38412(15) 0.13102(23) 0.9993(3)
C33_4 C 0.49016(15) 0.18357(22) 0.9916(3)
H20_4 H 0.5264 0.2016 0.9896
C35_4 C 0.29702(15) 0.07649(23) 0.9329(3)
H21_4 H 0.3120 0.0680 0.8843
C36_4 C 0.24450(15) 0.05793(23) 0.9333(3)
H22_4 H 0.2240 0.0366 0.8853
Zr3_2 Zr 0.65130(3) 0.26012(2) 0.43000(2)
O12_4 O 0.70384(13) 0.27308(9) 0.54534(18)
O13_4 O 0.75792(13) 0.35872(9) 0.54934(19)
O14_2 O 0.97813(12) 0.11832(9) 0.93785(16)
O16_3 O 0.59406(19) 0.27616(16) 0.3813(3)
C41_4 C 0.74077(20) 0.31364(14) 0.5784(3)
C42_4 C 0.76500(21) 0.30761(15) 0.6623(3)
C43_4 C 0.77041(21) 0.26524(15) 0.6747(3)
H25_4 H 0.7595 0.2399 0.6289
C44_4 C 0.79178(21) 0.25960(15) 0.7538(3)
H26_4 H 0.7968 0.2311 0.7604
C45_4 C 0.80615(21) 0.29520(15) 0.8236(3)
C46_4 C 0.80008(26) 0.33750(18) 0.8099(4)
H27_4 H 0.8095 0.3622 0.8565
C47_4 C 0.78074(27) 0.34400(18) 0.7298(4)
H28_4 H 0.7782 0.3737 0.7209
C48_4 C 0.82559(21) 0.28820(15) 0.9114(3)
C49_4 C 0.85188(22) 0.26131(16) 0.9165(3)
H29_4 H 0.8583 0.2483 0.8626
C50_4 C 0.86898(23) 0.25309(17) 0.9993(3)
C53_4 C 0.81643(22) 0.30658(16) 0.9916(3)
H32_4 H 0.7984 0.3247 0.9896
C55_4 C 0.92351(23) 0.22052(18) 0.9329(3)
H33_4 H 0.9320 0.2439 0.8843
C56_4 C 0.94207(23) 0.18656(18) 0.9333(3)
H34_4 H 0.9634 0.1873 0.8853
Zr7_2 Zr 0.59346(2) 0.27549(2) 0.23666(2)
Zr8_2 Zr 0.72451(2) 0.31796(3) 0.23666(2)
Zr9_2 Zr 0.68204(3) 0.40654(2) 0.23666(2)
O17_3 O 0.78499(9) 0.47353(8) 0.39548(16)
O18_3 O 0.52647(8) 0.31146(12) 0.39548(16)
O19_3 O 0.68854(12) 0.21501(9) 0.39548(16)
O20_3 O 0.58622(9) 0.18367(9) 0.39650(17)
O21_3 O 0.81633(9) 0.40256(13) 0.39650(17)
O22_3 O 0.59744(13) 0.41378(9) 0.39650(17)
O23_3 O 0.60950(16) 0.34877(11) 0.2853(3)
O24_3 O 0.65123(11) 0.26072(19) 0.2853(3)
O25_3 O 0.73928(19) 0.39050(16) 0.2853(3)
O3_3 O 0.54834(9) 0.19314(8) 0.27119(16)
C14_4 C 0.44620(18) 0.00585(15) 0.3358(3)
C15_5 C 0.44614(18) 0.03632(15) 0.2663(3)
H9_5 H 0.4227 0.0214 0.2177
C16_5 C 0.48010(18) 0.08884(15) 0.2667(3)
H10_5 H 0.4793 0.1094 0.2187
C17_4 C 0.51451(15) 0.11116(13) 0.3359(3)
C18_4 C 0.5114(2) 0.08210(18) 0.4095(4)
H11_4 H 0.5328 0.0977 0.4604
C19_4 C 0.4769(2) 0.02993(18) 0.4096(4)
H12_4 H 0.4744 0.0104 0.4616
C20_4 C 0.55264(13) 0.16717(13) 0.3345(2)
C3_5 C 0.40142(15) 0.83850(15) 0.0081(3)
C4_5 C 0.40706(15) 0.86551(14) 0.0872(3)
H2_5 H 0.4355 0.8990 0.0938
C5_5 C 0.37146(15) 0.84428(15) 0.1570(3)
C6_5 C 0.32916(18) 0.79591(19) 0.1433(4)
H3_5 H 0.3044 0.7806 0.1899
C7_5 C 0.32266(18) 0.7701(2) 0.0632(4)
H4_5 H 0.2929 0.7378 0.0543
C8_5 C 0.37846(15) 0.87072(15) 0.2448(3)
C9_5 C 0.40535(16) 0.92390(15) 0.2499(3)
H5_5 H 0.4183 0.9433 0.1960
C10_5 C 0.41357(17) 0.94922(15) 0.3327(3)
C11_4 C 0.39399(19) 0.92069(16) 0.4112(3)
H6_4 H 0.3985 0.9375 0.4676
C12_4 C 0.36778(19) 0.86764(16) 0.4074(3)
H7_4 H 0.3551 0.8482 0.4614
C13_5 C 0.36008(16) 0.84318(15) 0.3250(3)
H8_5 H 0.3419 0.8070 0.3230
C23_5 C 0.16150(15) 0.56293(21) 0.0081(3)
C24_5 C 0.13449(14) 0.54156(21) 0.0872(3)
H14_5 H 0.1010 0.5366 0.0938
C25_5 C 0.15572(15) 0.52719(21) 0.1570(3)
C26_5 C 0.20409(19) 0.53326(26) 0.1433(4)
H15_5 H 0.2194 0.5239 0.1899
C27_5 C 0.2299(2) 0.55260(27) 0.0632(4)
H16_5 H 0.2622 0.5552 0.0543
C28_5 C 0.12928(15) 0.50775(21) 0.2448(3)
C29_5 C 0.07610(15) 0.48146(22) 0.2499(3)
H17_5 H 0.0567 0.4751 0.1960
C30_5 C 0.05078(15) 0.46436(23) 0.3327(3)
C31_4 C 0.07931(16) 0.47331(25) 0.4112(3)
H18_4 H 0.0625 0.4611 0.4676
C32_4 C 0.13236(16) 0.50015(25) 0.4074(3)
H19_4 H 0.1518 0.5070 0.4614
C33_5 C 0.15682(15) 0.51691(22) 0.3250(3)
H20_5 H 0.1930 0.5350 0.3230
O14_3 O 0.64479(12) 0.45166(9) 0.27119(16)
C43_5 C 0.43707(21) 0.59858(15) 0.0081(3)
C44_5 C 0.45844(21) 0.59294(15) 0.0872(3)
H26_5 H 0.4634 0.5645 0.0938
C45_5 C 0.47281(21) 0.62854(15) 0.1570(3)
C46_5 C 0.46674(26) 0.67084(18) 0.1433(4)
H27_5 H 0.4761 0.6956 0.1899
C47_5 C 0.44740(27) 0.67734(18) 0.0632(4)
H28_5 H 0.4448 0.7071 0.0543
C48_5 C 0.49225(21) 0.62154(15) 0.2448(3)
C49_5 C 0.51854(22) 0.59465(16) 0.2499(3)
H29_5 H 0.5249 0.5817 0.1960
C50_5 C 0.53564(23) 0.58643(17) 0.3327(3)
C51_4 C 0.52669(25) 0.60601(19) 0.4112(3)
H30_4 H 0.5389 0.6015 0.4676
C52_4 C 0.49985(25) 0.63222(19) 0.4074(3)
H31_4 H 0.4930 0.6449 0.4614
C53_5 C 0.48309(22) 0.63992(16) 0.3250(3)
H32_5 H 0.4650 0.6581 0.3230
C54_4 C 0.55964(23) 0.55380(18) 0.3358(3)
C55_5 C 0.59017(23) 0.55386(18) 0.2663(3)
H33_5 H 0.5986 0.5773 0.2177
C56_5 C 0.60873(23) 0.51990(18) 0.2667(3)
H34_5 H 0.6300 0.5207 0.2187
C57_4 C 0.59664(20) 0.48549(15) 0.3359(3)
C58_4 C 0.57066(27) 0.4886(2) 0.4095(4)
H35_4 H 0.5648 0.4672 0.4604
C59_4 C 0.55299(27) 0.5231(2) 0.4096(4)
H36_4 H 0.5359 0.5256 0.4616
C60_4 C 0.61452(18) 0.44736(13) 0.3345(2)
O9_3 O 0.80686(8) 0.35521(12) 0.27119(16)
C34_4 C 0.99415(15) 0.44036(23) 0.3358(3)
C35_5 C 0.96368(15) 0.40983(23) 0.2663(3)
H21_5 H 0.9786 0.4014 0.2177
C36_5 C 0.91116(15) 0.39127(23) 0.2667(3)
H22_5 H 0.8906 0.3700 0.2187
C37_4 C 0.88884(13) 0.40336(20) 0.3359(3)
C38_4 C 0.91790(18) 0.42934(27) 0.4095(4)
H23_4 H 0.9023 0.4352 0.4604
C39_4 C 0.97007(18) 0.44701(27) 0.4096(4)
H24_4 H 0.9896 0.4641 0.4616
C40_4 C 0.83283(13) 0.38548(18) 0.3345(2)
O5_8 O 0.0000 0.0000 0.8569(4)
O7_5 O 0.09742(9) 0.03717(13) 0.78799(18)
O8_5 O 0.06586(9) 0.09125(13) 0.78399(19)
O10_2 O 0.51700(9) 0.26411(13) 0.27017(17)
C21_5 C 0.09379(14) 0.07410(20) 0.7549(3)
C22_5 C 0.12405(15) 0.09833(21) 0.6710(3)
C23_6 C 0.17183(15) 0.10374(21) 0.6586(3)
H13_5 H 0.1862 0.0928 0.7044
C24_6 C 0.19884(14) 0.12511(21) 0.5795(3)
H14_6 H 0.2323 0.1301 0.5729
C25_6 C 0.17761(15) 0.13948(21) 0.5097(3)
C26_6 C 0.12924(19) 0.13341(26) 0.5234(4)
H15_6 H 0.1139 0.1428 0.4768
C27_6 C 0.1034(2) 0.11407(27) 0.6035(4)
H16_6 H 0.0711 0.1115 0.6124
C28_6 C 0.20405(15) 0.15892(21) 0.4219(3)
C29_6 C 0.25723(15) 0.18521(22) 0.4168(3)
H17_6 H 0.2766 0.1916 0.4707
C30_6 C 0.28255(15) 0.20231(23) 0.3340(3)
C31_5 C 0.25402(16) 0.19336(25) 0.2555(3)
H18_5 H 0.2708 0.2056 0.1991
C32_5 C 0.20097(16) 0.16652(25) 0.2593(3)
H19_5 H 0.1815 0.1597 0.2053
C33_6 C 0.17651(15) 0.14976(22) 0.3417(3)
H20_6 H 0.1403 0.1317 0.3437
C34_5 C 0.33918(15) 0.22631(23) 0.3309(3)
C35_6 C 0.36965(15) 0.25684(23) 0.4004(3)
H21_6 H 0.3547 0.2653 0.4490
C36_6 C 0.42217(15) 0.27540(23) 0.4000(3)
H22_6 H 0.4427 0.2967 0.4480
C37_5 C 0.44449(13) 0.26331(20) 0.3308(3)
C38_5 C 0.41543(18) 0.23733(27) 0.2572(4)
H23_5 H 0.4310 0.2315 0.2063
C39_5 C 0.36326(18) 0.21966(27) 0.2571(4)
H24_5 H 0.3437 0.2026 0.2051
C40_5 C 0.50050(13) 0.28119(18) 0.3322(2)
O20_4 O 0.08044(9) 0.14967(9) 0.93684(17)
O2_5 O 0.02539(9) 0.93414(9) 0.78399(19)
O5_9 O -0.0000 1.0000 0.8569(4)
C6_6 C 0.00417(18) 0.87076(19) 0.5234(4)
H3_6 H 0.0289 0.8861 0.4768
C7_6 C 0.01067(18) 0.8966(2) 0.6035(4)
H4_6 H 0.0404 0.9289 0.6124
O22_4 O 0.06922(13) 0.91956(9) 0.93684(17)
O5_10 O 1.0000 0.0000 0.8569(4)
O12_5 O 0.96283(13) 0.06025(9) 0.78799(18)
O15_2 O 0.73589(13) 0.25289(9) 0.27017(17)
C41_5 C 0.92590(20) 0.01969(14) 0.7549(3)
C42_5 C 0.90167(21) 0.02572(15) 0.6710(3)
C43_6 C 0.89626(21) 0.06809(15) 0.6586(3)
H25_5 H 0.9072 0.0934 0.7044
C44_6 C 0.87489(21) 0.07373(15) 0.5795(3)
H26_6 H 0.8699 0.1022 0.5729
C45_6 C 0.86052(21) 0.03813(15) 0.5097(3)
C48_6 C 0.84108(21) 0.04513(15) 0.4219(3)
C49_6 C 0.81479(22) 0.07202(16) 0.4168(3)
H29_6 H 0.8084 0.0850 0.4707
C50_6 C 0.79769(23) 0.08024(17) 0.3340(3)
C51_5 C 0.80664(25) 0.06066(19) 0.2555(3)
H30_5 H 0.7944 0.0652 0.1991
C52_5 C 0.83348(25) 0.03445(19) 0.2593(3)
H31_5 H 0.8403 0.0218 0.2053
C53_6 C 0.85024(22) 0.02675(16) 0.3417(3)
H32_6 H 0.8683 0.0086 0.3437
C54_5 C 0.77369(23) 0.11287(18) 0.3309(3)
C55_6 C 0.74316(23) 0.11281(18) 0.4004(3)
H33_6 H 0.7347 0.0894 0.4490
C56_6 C 0.72460(23) 0.14677(18) 0.4000(3)
H34_6 H 0.7033 0.1460 0.4480
C57_5 C 0.73669(20) 0.18118(15) 0.3308(3)
C58_5 C 0.76267(27) 0.1781(2) 0.2572(4)
H35_5 H 0.7685 0.1995 0.2063
C59_5 C 0.78034(27) 0.1436(2) 0.2571(4)
H36_5 H 0.7974 0.1411 0.2051
C60_5 C 0.71881(18) 0.21931(13) 0.3322(2)
O1_5 O 0.93975(9) 0.90258(9) 0.78799(18)
O4_2 O 0.74711(9) 0.48300(9) 0.27017(17)
O5_11 O 1.0000 1.0000 0.8569(4)
C1_5 C 0.98031(14) 0.90621(14) 0.7549(3)
C2_5 C 0.97428(15) 0.87595(15) 0.6710(3)
C3_6 C 0.93191(15) 0.82817(15) 0.6586(3)
H1_5 H 0.9066 0.8138 0.7044
C4_6 C 0.92627(15) 0.80116(14) 0.5795(3)
H2_6 H 0.8978 0.7677 0.5729
C5_6 C 0.96187(15) 0.82239(15) 0.5097(3)
C8_6 C 0.95487(15) 0.79595(15) 0.4219(3)
C9_6 C 0.92798(16) 0.74277(15) 0.4168(3)
H5_6 H 0.9150 0.7234 0.4707
C10_6 C 0.91976(17) 0.71745(15) 0.3340(3)
C11_5 C 0.93934(19) 0.74598(16) 0.2555(3)
H6_5 H 0.9348 0.7292 0.1991
C12_5 C 0.96555(19) 0.79903(16) 0.2593(3)
H7_5 H 0.9782 0.8185 0.2053
C13_6 C 0.97325(16) 0.82349(15) 0.3417(3)
H8_6 H 0.9914 0.8597 0.3437
C14_5 C 0.88713(18) 0.66082(15) 0.3309(3)
C15_6 C 0.88719(18) 0.63035(15) 0.4004(3)
H9_6 H 0.9106 0.6453 0.4490
C16_6 C 0.85323(18) 0.57783(15) 0.4000(3)
H10_6 H 0.8540 0.5573 0.4480
C17_5 C 0.81882(15) 0.55551(13) 0.3308(3)
C18_5 C 0.8219(2) 0.58457(18) 0.2572(4)
H11_5 H 0.8005 0.5690 0.2063
C19_5 C 0.8564(2) 0.63674(18) 0.2571(4)
H12_5 H 0.8589 0.6563 0.2051
C20_5 C 0.78069(13) 0.49950(13) 0.3322(2)
O13_5 O 0.90875(13) 0.97461(9) 0.78399(19)
C46_6 C 0.86659(26) 0.99583(18) 0.5234(4)
H27_6 H 0.8572 0.9711 0.4768
C47_6 C 0.88593(27) 0.98933(18) 0.6035(4)
H28_6 H 0.8885 0.9596 0.6124
O21_4 O 0.85033(9) 0.93078(13) 0.93684(17)
C11_6 C 0.27267(19) 0.41265(16) 0.9222(3)
H6_6 H 0.2681 0.3959 0.8658
C12_6 C 0.29888(19) 0.46570(16) 0.9260(3)
H7_6 H 0.3115 0.4852 0.8720
C14_6 C 0.22046(18) 0.32749(15) 0.9976(3)
C17_6 C 0.15215(15) 0.22218(13) 0.9975(3)
C18_6 C 0.1552(2) 0.25124(18) 0.9239(4)
H11_6 H 0.1338 0.2357 0.8730
C19_6 C 0.1897(2) 0.30341(18) 0.9238(4)
H12_6 H 0.1922 0.3230 0.8718
C20_6 C 0.11402(13) 0.16617(13) 0.9989(2)
C31_6 C 0.58735(16) 0.86003(25) 0.9222(3)
H18_6 H 0.6041 0.8723 0.8658
C32_6 C 0.53430(16) 0.83319(25) 0.9260(3)
H19_6 H 0.5148 0.8264 0.8720
C34_6 C 0.67251(15) 0.89298(23) 0.9976(3)
C37_6 C 0.77782(13) 0.92998(20) 0.9975(3)
C38_6 C 0.74876(18) 0.90400(27) 0.9239(4)
H23_6 H 0.7643 0.8982 0.8730
C39_6 C 0.69659(18) 0.88633(27) 0.9238(4)
H24_6 H 0.6770 0.8693 0.8718
C40_6 C 0.83383(13) 0.94786(18) 0.9989(2)
C51_6 C 0.13997(25) 0.72733(19) 0.9222(3)
H30_6 H 0.1277 0.7319 0.8658
C52_6 C 0.16681(25) 0.70112(19) 0.9260(3)
H31_6 H 0.1736 0.6885 0.8720
C54_6 C 0.10702(23) 0.77954(18) 0.9976(3)
C57_6 C 0.07002(20) 0.84785(15) 0.9975(3)
C58_6 C 0.09600(27) 0.8448(2) 0.9239(4)
H35_6 H 0.1018 0.8662 0.8730
C59_6 C 0.11367(27) 0.8103(2) 0.9238(4)
H36_6 H 0.1307 0.8078 0.8718
C60_6 C 0.05214(18) 0.88598(13) 0.9989(2)
O1_6 O 0.60642(9) 0.23591(9) 0.12132(18)
O2_6 O 0.69206(9) 0.26747(9) 0.11732(19)
O5_12 O 0.6667 0.3333 0.1902(4)
C1_6 C 0.64698(14) 0.23954(14) 0.0882(3)
C2_6 C 0.64095(15) 0.20928(15) 0.0043(3)
H1_6 H 0.5733 0.1471 0.0377
O7_6 O 0.76409(9) 0.37050(13) 0.12132(18)
O8_6 O 0.73253(9) 0.42458(13) 0.11732(19)
C21_6 C 0.76046(14) 0.40743(20) 0.0882(3)
C22_6 C 0.79072(15) 0.43166(21) 0.0043(3)
H13_6 H 0.8529 0.4261 0.0377
O12_6 O 0.62950(13) 0.39358(9) 0.12132(18)
O13_6 O 0.57542(13) 0.30794(9) 0.11732(19)
C41_6 C 0.59257(20) 0.35302(14) 0.0882(3)
C42_6 C 0.56834(21) 0.35905(15) 0.0043(3)
H25_6 H 0.5739 0.4267 0.0377
loop_
_geom_bond_atom_site_label_1
_geom_bond_atom_site_label_2
_geom_bond_site_symmetry_1
_geom_bond_site_symmetry_2
Zr1 O1 1_555 1_555
O1 C1 1_555 1_555
O3 C20 1_555 1_555
O4 C20 1_555 1_555
O5 Zr1 1_555 1_555
C1 C2 1_555 1_555
C2 C3 1_555 1_555
C3 H1 1_555 1_555
C4 C3 1_555 1_555
H2 C4 1_555 1_555
C5 C4 1_555 1_555
C8 C5 1_555 1_555
C9 C8 1_555 1_555
H5 C9 1_555 1_555
C10 C9 1_555 1_555
C11 C10 1_555 1_555
H6 C11 1_555 1_555
C12 C11 1_555 1_555
H7 C12 1_555 1_555
C13 C8 1_555 1_555
H8 C13 1_555 1_555
C14 C10 1_555 1_555
C15 C14 1_555 1_555
H9 C15 1_555 1_555
C16 C15 1_555 1_555
H10 C16 1_555 1_555
C17 C16 1_555 1_555
C18 C17 1_555 1_555
H11 C18 1_555 1_555
C19 C14 1_555 1_555
H12 C19 1_555 1_555
C20 C17 1_555 1_555
O11 Zr1 1_555 1_555
O13 Zr1 1_555 1_555
H27 C46 1_555 1_555
H28 C47 1_555 1_555
Zr6 O4 1_555 1_555
Zr10 O3 1_555 1_555
O17 Zr1 1_555 1_555
O21 Zr1 1_555 1_555
C12 C13 1_555 1_555
C18 C19 1_555 1_555
C46 C47 1_555 1_555
O14 C60 1_555 1_555
O15 C60 1_555 1_555
C41 O12 1_555 1_555
C42 C41 1_555 1_555
C43 C42 1_555 1_555
H25 C43 1_555 1_555
C44 C43 1_555 1_555
H26 C44 1_555 1_555
C45 C44 1_555 1_555
C48 C45 1_555 1_555
C49 C48 1_555 1_555
H29 C49 1_555 1_555
C50 C49 1_555 1_555
C51 C50 1_555 1_555
H30 C51 1_555 1_555
C52 C51 1_555 1_555
H31 C52 1_555 1_555
C53 C48 1_555 1_555
H32 C53 1_555 1_555
C54 C50 1_555 1_555
C55 C54 1_555 1_555
H33 C55 1_555 1_555
C56 C55 1_555 1_555
H34 C56 1_555 1_555
C57 C56 1_555 1_555
C58 C57 1_555 1_555
H35 C58 1_555 1_555
C59 C54 1_555 1_555
H36 C59 1_555 1_555
C60 C57 1_555 1_555
Zr5 O15 1_555 1_555
Zr12 O14 1_555 1_555
C52 C53 1_555 1_555
C58 C59 1_555 1_555
H3 C6 1_555 1_555
H4 C7 1_555 1_555
Zr2 O2 1_555 1_555
O22 Zr2 1_555 1_555
O5_3 Zr2 1_555 1_555
C6 C7 1_555 1_555
O8 C21 1_555 1_555
O9 C40 1_555 1_555
O10 C40 1_555 1_555
C21 O7 1_555 1_555
C22 C21 1_555 1_555
C23 C22 1_555 1_555
H13 C23 1_555 1_555
C24 C23 1_555 1_555
H14 C24 1_555 1_555
C25 C24 1_555 1_555
C26 C25 1_555 1_555
H15 C26 1_555 1_555
C27 C22 1_555 1_555
H16 C27 1_555 1_555
C28 C25 1_555 1_555
C29 C28 1_555 1_555
H17 C29 1_555 1_555
C30 C29 1_555 1_555
C31 C30 1_555 1_555
H18 C31 1_555 1_555
C32 C31 1_555 1_555
H19 C32 1_555 1_555
C33 C28 1_555 1_555
H20 C33 1_555 1_555
C34 C30 1_555 1_555
C35 C34 1_555 1_555
H21 C35 1_555 1_555
C36 C35 1_555 1_555
H22 C36 1_555 1_555
C37 C36 1_555 1_555
C38 C37 1_555 1_555
H23 C38 1_555 1_555
C39 C34 1_555 1_555
H24 C39 1_555 1_555
C40 C37 1_555 1_555
Zr3 O5_4 1_555 1_555
Zr4 O10 1_555 1_555
Zr11 O9 1_555 1_555
O20 Zr3 1_555 1_555
O8 Zr3 1_555 1_555
C26 C27 1_555 1_555
C32 C33 1_555 1_555
C38 C39 1_555 1_555
Zr3 O16 1_555 1_555
O20 C20_2 1_555 1_555
H6_2 C11_2 1_555 1_555
C12_2 C11_2 1_555 1_555
H7_2 C12_2 1_555 1_555
C18_2 C17_2 1_555 1_555
H11_2 C18_2 1_555 1_555
C19_2 C14_2 1_555 1_555
H12_2 C19_2 1_555 1_555
C20_2 C17_2 1_555 1_555
O21 C40_2 1_555 1_555
H18_2 C31_2 1_555 1_555
C32_2 C31_2 1_555 1_555
H19_2 C32_2 1_555 1_555
C38_2 C37_2 1_555 1_555
H23_2 C38_2 1_555 1_555
C39_2 C34_2 1_555 1_555
H24_2 C39_2 1_555 1_555
C40_2 C37_2 1_555 1_555
O22 C60_2 1_555 1_555
H30_2 C51_2 1_555 1_555
C52_2 C51_2 1_555 1_555
H31_2 C52_2 1_555 1_555
C58_2 C57_2 1_555 1_555
H35_2 C58_2 1_555 1_555
C59_2 C54_2 1_555 1_555
H36_2 C59_2 1_555 1_555
C60_2 C57_2 1_555 1_555
C18_2 C19_2 1_555 1_555
C38_2 C39_2 1_555 1_555
C58_2 C59_2 1_555 1_555
Zr4 O1_2 1_555 1_555
O1_2 C1_2 1_555 1_555
O2_2 C1_2 1_555 1_555
O5_5 Zr4 1_555 1_555
O6_2 Zr4 1_555 1_555
C1_2 C2_2 1_555 1_555
Zr5 O2_2 1_555 1_555
O7_2 Zr5 1_555 1_555
O8_2 C21_2 1_555 1_555
O11_2 Zr4 1_555 1_555
C21_2 O7_2 1_555 1_555
C22_2 C21_2 1_555 1_555
Zr6 O5_5 1_555 1_555
O12_2 Zr6 1_555 1_555
O13_2 Zr4 1_555 1_555
O16_2 Zr5 1_555 1_555
C41_2 O12_2 1_555 1_555
C42_2 C41_2 1_555 1_555
Zr10 O16_2 1_555 1_555
Zr11 O6_2 1_555 1_555
Zr12 O11_2 1_555 1_555
O17_2 Zr4 1_555 1_555
O18_2 Zr5 1_555 1_555
O19_2 Zr6 1_555 1_555
O23 Zr5 1_555 1_555
O24 Zr6 1_555 1_555
O25 Zr4 1_555 1_555
O5_5 Zr5 1_555 1_555
O6_2 Zr6 1_555 1_555
Zr5 O11_2 1_555 1_555
O8_2 Zr6 1_555 1_555
Zr6 O16_2 1_555 1_555
O13_2 C41_2 1_555 1_555
Zr10 O23 1_555 1_555
Zr10 O24 1_555 1_555
Zr11 O24 1_555 1_555
Zr11 O25 1_555 1_555
Zr12 O23 1_555 1_555
Zr12 O25 1_555 1_555
Zr10 O1_3 1_555 1_555
O1_3 C1_3 1_555 1_555
O2_3 C1_3 1_555 1_555
O5_6 Zr10 1_555 1_555
C1_3 C2_3 1_555 1_555
C2_3 C3_2 1_555 1_555
C3_2 H1_3 1_555 1_555
C4_2 C3_2 1_555 1_555
H2_2 C4_2 1_555 1_555
C5_2 C4_2 1_555 1_555
C6_2 C5_2 1_555 1_555
H3_2 C6_2 1_555 1_555
C7_2 C2_3 1_555 1_555
H4_2 C7_2 1_555 1_555
C8_2 C5_2 1_555 1_555
C9_2 C8_2 1_555 1_555
H5_2 C9_2 1_555 1_555
C10_2 C9_2 1_555 1_555
C13_2 C8_2 1_555 1_555
H8_2 C13_2 1_555 1_555
H9_2 C15_2 1_555 1_555
C16_2 C15_2 1_555 1_555
H10_2 C16_2 1_555 1_555
Zr11 O2_3 1_555 1_555
O7_3 Zr11 1_555 1_555
O8_3 C21_3 1_555 1_555
C21_3 O7_3 1_555 1_555
C22_3 C21_3 1_555 1_555
C23_2 C22_3 1_555 1_555
H13_3 C23_2 1_555 1_555
C24_2 C23_2 1_555 1_555
H14_2 C24_2 1_555 1_555
C25_2 C24_2 1_555 1_555
C26_2 C25_2 1_555 1_555
H15_2 C26_2 1_555 1_555
C27_2 C22_3 1_555 1_555
H16_2 C27_2 1_555 1_555
C28_2 C25_2 1_555 1_555
C29_2 C28_2 1_555 1_555
H17_2 C29_2 1_555 1_555
C30_2 C29_2 1_555 1_555
C33_2 C28_2 1_555 1_555
H20_2 C33_2 1_555 1_555
H21_2 C35_2 1_555 1_555
C36_2 C35_2 1_555 1_555
H22_2 C36_2 1_555 1_555
Zr12 O5_6 1_555 1_555
O12_3 Zr12 1_555 1_555
O13_3 Zr10 1_555 1_555
C41_3 O12_3 1_555 1_555
C42_3 C41_3 1_555 1_555
C43_2 C42_3 1_555 1_555
H25_3 C43_2 1_555 1_555
C44_2 C43_2 1_555 1_555
H26_2 C44_2 1_555 1_555
C45_2 C44_2 1_555 1_555
C46_2 C45_2 1_555 1_555
H27_2 C46_2 1_555 1_555
C47_2 C42_3 1_555 1_555
H28_2 C47_2 1_555 1_555
C48_2 C45_2 1_555 1_555
C49_2 C48_2 1_555 1_555
H29_2 C49_2 1_555 1_555
C50_2 C49_2 1_555 1_555
C53_2 C48_2 1_555 1_555
H32_2 C53_2 1_555 1_555
H33_2 C55_2 1_555 1_555
C56_2 C55_2 1_555 1_555
H34_2 C56_2 1_555 1_555
O20_2 Zr12 1_555 1_555
O21_2 Zr10 1_555 1_555
O22_2 Zr11 1_555 1_555
O5_6 Zr11 1_555 1_555
C6_2 C7_2 1_555 1_555
O8_3 Zr12 1_555 1_555
C26_2 C27_2 1_555 1_555
O13_3 C41_3 1_555 1_555
C46_2 C47_2 1_555 1_555
O18_2 C40_3 1_555 1_555
O21_2 C40_3 1_555 1_555
C35_3 C34_3 1_555 1_555
H21_3 C35_3 1_555 1_555
C36_3 C35_3 1_555 1_555
H22_3 C36_3 1_555 1_555
C37_3 C36_3 1_555 1_555
C38_3 C37_3 1_555 1_555
H23_3 C38_3 1_555 1_555
C39_3 C34_3 1_555 1_555
H24_3 C39_3 1_555 1_555
C40_3 C37_3 1_555 1_555
C38_3 C39_3 1_555 1_555
C4_3 C3_3 1_555 1_555
H2_3 C4_3 1_555 1_555
C5_3 C4_3 1_555 1_555
C6_3 C5_3 1_555 1_555
H3_3 C6_3 1_555 1_555
H4_3 C7_3 1_555 1_555
C8_3 C5_3 1_555 1_555
C9_3 C8_3 1_555 1_555
H5_3 C9_3 1_555 1_555
C10_3 C9_3 1_555 1_555
C11_3 C10_3 1_555 1_555
H6_3 C11_3 1_555 1_555
C12_3 C11_3 1_555 1_555
H7_3 C12_3 1_555 1_555
C13_3 C8_3 1_555 1_555
H8_3 C13_3 1_555 1_555
C24_3 C23_3 1_555 1_555
H14_3 C24_3 1_555 1_555
C25_3 C24_3 1_555 1_555
C26_3 C25_3 1_555 1_555
H15_3 C26_3 1_555 1_555
H16_3 C27_3 1_555 1_555
C28_3 C25_3 1_555 1_555
C29_3 C28_3 1_555 1_555
H17_3 C29_3 1_555 1_555
C30_3 C29_3 1_555 1_555
C31_3 C30_3 1_555 1_555
H18_3 C31_3 1_555 1_555
C32_3 C31_3 1_555 1_555
H19_3 C32_3 1_555 1_555
C33_3 C28_3 1_555 1_555
H20_3 C33_3 1_555 1_555
O19_2 C60_3 1_555 1_555
O22_2 C60_3 1_555 1_555
C44_3 C43_3 1_555 1_555
H26_3 C44_3 1_555 1_555
C45_3 C44_3 1_555 1_555
C46_3 C45_3 1_555 1_555
H27_3 C46_3 1_555 1_555
H28_3 C47_3 1_555 1_555
C48_3 C45_3 1_555 1_555
C49_3 C48_3 1_555 1_555
H29_3 C49_3 1_555 1_555
C50_3 C49_3 1_555 1_555
C51_3 C50_3 1_555 1_555
H30_3 C51_3 1_555 1_555
C52_3 C51_3 1_555 1_555
H31_3 C52_3 1_555 1_555
C53_3 C48_3 1_555 1_555
H32_3 C53_3 1_555 1_555
C54_3 C50_3 1_555 1_555
C55_3 C54_3 1_555 1_555
H33_3 C55_3 1_555 1_555
C56_3 C55_3 1_555 1_555
H34_3 C56_3 1_555 1_555
C57_3 C56_3 1_555 1_555
C58_3 C57_3 1_555 1_555
H35_3 C58_3 1_555 1_555
C59_3 C54_3 1_555 1_555
H36_3 C59_3 1_555 1_555
C60_3 C57_3 1_555 1_555
C6_3 C7_3 1_555 1_555
C12_3 C13_3 1_555 1_555
C26_3 C27_3 1_555 1_555
C32_3 C33_3 1_555 1_555
C46_3 C47_3 1_555 1_555
C52_3 C53_3 1_555 1_555
C58_3 C59_3 1_555 1_555
O17_2 C20_3 1_555 1_555
O20_2 C20_3 1_555 1_555
C15_3 C14_3 1_555 1_555
H9_3 C15_3 1_555 1_555
C16_3 C15_3 1_555 1_555
H10_3 C16_3 1_555 1_555
C17_3 C16_3 1_555 1_555
C18_3 C17_3 1_555 1_555
H11_3 C18_3 1_555 1_555
C19_3 C14_3 1_555 1_555
H12_3 C19_3 1_555 1_555
C20_3 C17_3 1_555 1_555
C18_3 C19_3 1_555 1_555
Zr9 O25_2 1_555 1_555
Zr7 O24_2 1_555 1_555
Zr1_2 O1_4 1_555 1_555
O1_4 C1_4 1_555 1_555
O2_4 C1_4 1_555 1_555
O5_7 Zr1_2 1_555 1_555
O6_3 Zr1_2 1_555 1_555
C1_4 C2_4 1_555 1_555
C2_4 C3_4 1_555 1_555
C3_4 H1_4 1_555 1_555
C4_4 C3_4 1_555 1_555
H2_4 C4_4 1_555 1_555
C5_4 C4_4 1_555 1_555
C6_4 C5_4 1_555 1_555
H3_4 C6_4 1_555 1_555
C7_4 C2_4 1_555 1_555
H4_4 C7_4 1_555 1_555
C8_4 C5_4 1_555 1_555
C9_4 C8_4 1_555 1_555
H5_4 C9_4 1_555 1_555
C10_4 C9_4 1_555 1_555
C13_4 C8_4 1_555 1_555
H8_4 C13_4 1_555 1_555
H9_4 C15_4 1_555 1_555
C16_4 C15_4 1_555 1_555
H10_4 C16_4 1_555 1_555
Zr2_2 O2_4 1_555 1_555
O7_4 Zr2_2 1_555 1_555
O8_4 C21_4 1_555 1_555
O11_3 Zr1_2 1_555 1_555
C21_4 O7_4 1_555 1_555
C22_4 C21_4 1_555 1_555
C23_4 C22_4 1_555 1_555
H13_4 C23_4 1_555 1_555
C24_4 C23_4 1_555 1_555
H14_4 C24_4 1_555 1_555
C25_4 C24_4 1_555 1_555
C26_4 C25_4 1_555 1_555
H15_4 C26_4 1_555 1_555
C27_4 C22_4 1_555 1_555
H16_4 C27_4 1_555 1_555
C28_4 C25_4 1_555 1_555
C29_4 C28_4 1_555 1_555
H17_4 C29_4 1_555 1_555
C30_4 C29_4 1_555 1_555
C33_4 C28_4 1_555 1_555
H20_4 C33_4 1_555 1_555
H21_4 C35_4 1_555 1_555
C36_4 C35_4 1_555 1_555
H22_4 C36_4 1_555 1_555
Zr3_2 O5_7 1_555 1_555
O12_4 Zr3_2 1_555 1_555
O13_4 Zr1_2 1_555 1_555
O16_3 Zr2_2 1_555 1_555
C41_4 O12_4 1_555 1_555
C42_4 C41_4 1_555 1_555
C43_4 C42_4 1_555 1_555
H25_4 C43_4 1_555 1_555
C44_4 C43_4 1_555 1_555
H26_4 C44_4 1_555 1_555
C45_4 C44_4 1_555 1_555
C46_4 C45_4 1_555 1_555
H27_4 C46_4 1_555 1_555
C47_4 C42_4 1_555 1_555
H28_4 C47_4 1_555 1_555
C48_4 C45_4 1_555 1_555
C49_4 C48_4 1_555 1_555
H29_4 C49_4 1_555 1_555
C50_4 C49_4 1_555 1_555
C53_4 C48_4 1_555 1_555
H32_4 C53_4 1_555 1_555
H33_4 C55_4 1_555 1_555
C56_4 C55_4 1_555 1_555
H34_4 C56_4 1_555 1_555
Zr7_2 O16_3 1_555 1_555
Zr8_2 O6_3 1_555 1_555
Zr9_2 O11_3 1_555 1_555
Zr7 O3_2 1_555 1_555
O17_3 Zr1_2 1_555 1_555
O18_3 Zr2_2 1_555 1_555
O19_3 Zr3_2 1_555 1_555
O20_3 Zr3_2 1_555 1_555
O21_3 Zr1_2 1_555 1_555
O22_3 Zr2_2 1_555 1_555
O23_3 Zr2_2 1_555 1_555
O24_3 Zr3_2 1_555 1_555
O25_3 Zr1_2 1_555 1_555
O5_7 Zr2_2 1_555 1_555
O6_3 Zr3_2 1_555 1_555
C6_4 C7_4 1_555 1_555
Zr2_2 O11_3 1_555 1_555
O8_4 Zr3_2 1_555 1_555
C26_4 C27_4 1_555 1_555
Zr3_2 O16_3 1_555 1_555
O13_4 C41_4 1_555 1_555
C46_4 C47_4 1_555 1_555
Zr7_2 O23_3 1_555 1_555
Zr7_2 O24_3 1_555 1_555
Zr8_2 O24_3 1_555 1_555
Zr8_2 O25_3 1_555 1_555
Zr9_2 O23_3 1_555 1_555
Zr9_2 O25_3 1_555 1_555
O3_3 C20_4 1_555 1_555
O20_3 C20_4 1_555 1_555
C15_5 C14_4 1_555 1_555
H9_5 C15_5 1_555 1_555
C16_5 C15_5 1_555 1_555
H10_5 C16_5 1_555 1_555
C17_4 C16_5 1_555 1_555
C18_4 C17_4 1_555 1_555
H11_4 C18_4 1_555 1_555
C19_4 C14_4 1_555 1_555
H12_4 C19_4 1_555 1_555
C20_4 C17_4 1_555 1_555
Zr7_2 O3_3 1_555 1_555
C18_4 C19_4 1_555 1_555
C4_5 C3_5 1_555 1_555
H2_5 C4_5 1_555 1_555
C5_5 C4_5 1_555 1_555
C6_5 C5_5 1_555 1_555
H3_5 C6_5 1_555 1_555
H4_5 C7_5 1_555 1_555
C8_5 C5_5 1_555 1_555
C9_5 C8_5 1_555 1_555
H5_5 C9_5 1_555 1_555
C10_5 C9_5 1_555 1_555
C11_4 C10_5 1_555 1_555
H6_4 C11_4 1_555 1_555
C12_4 C11_4 1_555 1_555
H7_4 C12_4 1_555 1_555
C13_5 C8_5 1_555 1_555
H8_5 C13_5 1_555 1_555
C24_5 C23_5 1_555 1_555
H14_5 C24_5 1_555 1_555
C25_5 C24_5 1_555 1_555
C26_5 C25_5 1_555 1_555
H15_5 C26_5 1_555 1_555
H16_5 C27_5 1_555 1_555
C28_5 C25_5 1_555 1_555
C29_5 C28_5 1_555 1_555
H17_5 C29_5 1_555 1_555
C30_5 C29_5 1_555 1_555
C31_4 C30_5 1_555 1_555
H18_4 C31_4 1_555 1_555
C32_4 C31_4 1_555 1_555
H19_4 C32_4 1_555 1_555
C33_5 C28_5 1_555 1_555
H20_5 C33_5 1_555 1_555
O14_3 C60_4 1_555 1_555
O22_3 C60_4 1_555 1_555
C44_5 C43_5 1_555 1_555
H26_5 C44_5 1_555 1_555
C45_5 C44_5 1_555 1_555
C46_5 C45_5 1_555 1_555
H27_5 C46_5 1_555 1_555
H28_5 C47_5 1_555 1_555
C48_5 C45_5 1_555 1_555
C49_5 C48_5 1_555 1_555
H29_5 C49_5 1_555 1_555
C50_5 C49_5 1_555 1_555
C51_4 C50_5 1_555 1_555
H30_4 C51_4 1_555 1_555
C52_4 C51_4 1_555 1_555
H31_4 C52_4 1_555 1_555
C53_5 C48_5 1_555 1_555
H32_5 C53_5 1_555 1_555
C54_4 C50_5 1_555 1_555
C55_5 C54_4 1_555 1_555
H33_5 C55_5 1_555 1_555
C56_5 C55_5 1_555 1_555
H34_5 C56_5 1_555 1_555
C57_4 C56_5 1_555 1_555
C58_4 C57_4 1_555 1_555
H35_4 C58_4 1_555 1_555
C59_4 C54_4 1_555 1_555
H36_4 C59_4 1_555 1_555
C60_4 C57_4 1_555 1_555
Zr9_2 O14_3 1_555 1_555
C6_5 C7_5 1_555 1_555
C12_4 C13_5 1_555 1_555
C26_5 C27_5 1_555 1_555
C32_4 C33_5 1_555 1_555
C46_5 C47_5 1_555 1_555
C52_4 C53_5 1_555 1_555
C58_4 C59_4 1_555 1_555
O9_3 C40_4 1_555 1_555
O21_3 C40_4 1_555 1_555
C35_5 C34_4 1_555 1_555
H21_5 C35_5 1_555 1_555
C36_5 C35_5 1_555 1_555
H22_5 C36_5 1_555 1_555
C37_4 C36_5 1_555 1_555
C38_4 C37_4 1_555 1_555
H23_4 C38_4 1_555 1_555
C39_4 C34_4 1_555 1_555
H24_4 C39_4 1_555 1_555
C40_4 C37_4 1_555 1_555
Zr8_2 O9_3 1_555 1_555
C38_4 C39_4 1_555 1_555
O8_5 C21_5 1_555 1_555
O18_3 C40_5 1_555 1_555
O10_2 C40_5 1_555 1_555
C21_5 O7_5 1_555 1_555
C22_5 C21_5 1_555 1_555
C23_6 C22_5 1_555 1_555
H13_5 C23_6 1_555 1_555
C24_6 C23_6 1_555 1_555
H14_6 C24_6 1_555 1_555
C25_6 C24_6 1_555 1_555
C26_6 C25_6 1_555 1_555
H15_6 C26_6 1_555 1_555
C27_6 C22_5 1_555 1_555
H16_6 C27_6 1_555 1_555
C28_6 C25_6 1_555 1_555
C29_6 C28_6 1_555 1_555
H17_6 C29_6 1_555 1_555
C30_6 C29_6 1_555 1_555
C31_5 C30_6 1_555 1_555
H18_5 C31_5 1_555 1_555
C32_5 C31_5 1_555 1_555
H19_5 C32_5 1_555 1_555
C33_6 C28_6 1_555 1_555
H20_6 C33_6 1_555 1_555
C34_5 C30_6 1_555 1_555
C35_6 C34_5 1_555 1_555
H21_6 C35_6 1_555 1_555
C36_6 C35_6 1_555 1_555
H22_6 C36_6 1_555 1_555
C37_5 C36_6 1_555 1_555
C38_5 C37_5 1_555 1_555
H23_5 C38_5 1_555 1_555
C39_5 C34_5 1_555 1_555
H24_5 C39_5 1_555 1_555
C40_5 C37_5 1_555 1_555
Zr9 O5_8 1_555 1_555
Zr7_2 O10_2 1_555 1_555
O20_4 Zr9 1_555 1_555
O8_5 Zr9 1_555 1_555
C26_6 C27_6 1_555 1_555
C32_5 C33_6 1_555 1_555
C38_5 C39_5 1_555 1_555
H3_6 C6_6 1_555 1_555
H4_6 C7_6 1_555 1_555
Zr8 O2_5 1_555 1_555
O22_4 Zr8 1_555 1_555
O5_9 Zr8 1_555 1_555
C6_6 C7_6 1_555 1_555
O19_3 C60_5 1_555 1_555
O15_2 C60_5 1_555 1_555
C41_5 O12_5 1_555 1_555
C42_5 C41_5 1_555 1_555
C43_6 C42_5 1_555 1_555
H25_5 C43_6 1_555 1_555
C44_6 C43_6 1_555 1_555
H26_6 C44_6 1_555 1_555
C45_6 C44_6 1_555 1_555
C48_6 C45_6 1_555 1_555
C49_6 C48_6 1_555 1_555
H29_6 C49_6 1_555 1_555
C50_6 C49_6 1_555 1_555
C51_5 C50_6 1_555 1_555
H30_5 C51_5 1_555 1_555
C52_5 C51_5 1_555 1_555
H31_5 C52_5 1_555 1_555
C53_6 C48_6 1_555 1_555
H32_6 C53_6 1_555 1_555
C54_5 C50_6 1_555 1_555
C55_6 C54_5 1_555 1_555
H33_6 C55_6 1_555 1_555
C56_6 C55_6 1_555 1_555
H34_6 C56_6 1_555 1_555
C57_5 C56_6 1_555 1_555
C58_5 C57_5 1_555 1_555
H35_5 C58_5 1_555 1_555
C59_5 C54_5 1_555 1_555
H36_5 C59_5 1_555 1_555
C60_5 C57_5 1_555 1_555
Zr8_2 O15_2 1_555 1_555
C52_5 C53_6 1_555 1_555
C58_5 C59_5 1_555 1_555
Zr7 O1_5 1_555 1_555
O1_5 C1_5 1_555 1_555
O17_3 C20_5 1_555 1_555
O4_2 C20_5 1_555 1_555
O5_11 Zr7 1_555 1_555
C1_5 C2_5 1_555 1_555
C2_5 C3_6 1_555 1_555
C3_6 H1_5 1_555 1_555
C4_6 C3_6 1_555 1_555
H2_6 C4_6 1_555 1_555
C5_6 C4_6 1_555 1_555
C8_6 C5_6 1_555 1_555
C9_6 C8_6 1_555 1_555
H5_6 C9_6 1_555 1_555
C10_6 C9_6 1_555 1_555
C11_5 C10_6 1_555 1_555
H6_5 C11_5 1_555 1_555
C12_5 C11_5 1_555 1_555
H7_5 C12_5 1_555 1_555
C13_6 C8_6 1_555 1_555
H8_6 C13_6 1_555 1_555
C14_5 C10_6 1_555 1_555
C15_6 C14_5 1_555 1_555
H9_6 C15_6 1_555 1_555
C16_6 C15_6 1_555 1_555
H10_6 C16_6 1_555 1_555
C17_5 C16_6 1_555 1_555
C18_5 C17_5 1_555 1_555
H11_5 C18_5 1_555 1_555
C19_5 C14_5 1_555 1_555
H12_5 C19_5 1_555 1_555
C20_5 C17_5 1_555 1_555
O13_5 Zr7 1_555 1_555
H27_6 C46_6 1_555 1_555
H28_6 C47_6 1_555 1_555
Zr9_2 O4_2 1_555 1_555
O21_4 Zr7 1_555 1_555
C12_5 C13_6 1_555 1_555
C18_5 C19_5 1_555 1_555
C46_6 C47_6 1_555 1_555
O20_4 C20_6 1_555 1_555
H6_6 C11_6 1_555 1_555
C12_6 C11_6 1_555 1_555
H7_6 C12_6 1_555 1_555
C18_6 C17_6 1_555 1_555
H11_6 C18_6 1_555 1_555
C19_6 C14_6 1_555 1_555
H12_6 C19_6 1_555 1_555
C20_6 C17_6 1_555 1_555
O21_4 C40_6 1_555 1_555
H18_6 C31_6 1_555 1_555
C32_6 C31_6 1_555 1_555
H19_6 C32_6 1_555 1_555
C38_6 C37_6 1_555 1_555
H23_6 C38_6 1_555 1_555
C39_6 C34_6 1_555 1_555
H24_6 C39_6 1_555 1_555
C40_6 C37_6 1_555 1_555
O22_4 C60_6 1_555 1_555
H30_6 C51_6 1_555 1_555
C52_6 C51_6 1_555 1_555
H31_6 C52_6 1_555 1_555
C58_6 C57_6 1_555 1_555
H35_6 C58_6 1_555 1_555
C59_6 C54_6 1_555 1_555
H36_6 C59_6 1_555 1_555
C60_6 C57_6 1_555 1_555
C18_6 C19_6 1_555 1_555
C38_6 C39_6 1_555 1_555
C58_6 C59_6 1_555 1_555
Zr7_2 O1_6 1_555 1_555
O1_6 C1_6 1_555 1_555
O2_6 C1_6 1_555 1_555
O5_12 Zr7_2 1_555 1_555
C1_6 C2_6 1_555 1_555
Zr8_2 O2_6 1_555 1_555
O7_6 Zr8_2 1_555 1_555
O8_6 C21_6 1_555 1_555
C21_6 O7_6 1_555 1_555
C22_6 C21_6 1_555 1_555
Zr9_2 O5_12 1_555 1_555
O12_6 Zr9_2 1_555 1_555
O13_6 Zr7_2 1_555 1_555
C41_6 O12_6 1_555 1_555
C42_6 C41_6 1_555 1_555
O5_12 Zr8_2 1_555 1_555
O8_6 Zr9_2 1_555 1_555
O13_6 C41_6 1_555 1_555

#END
