
###############################################################################
#
# This file contains modified crystal structure data generated from the
# MOF subset of the Cambridge Structural Database (CSD) v543 
# hosted by the Cambridge Crystallographic Data Centre (CCDC).
#
# This work is licensed under the Creative Commons
# Attribution-NonCommercial-ShareAlike 4.0 International License.
# To view a copy of this license, visit
# http://creativecommons.org/licenses/by-nc-sa/4.0/
# or send a letter to
# Creative Commons, PO Box 1866, Mountain View, CA 94042, USA.
#
# CIF created using the CSD Python API on 29 September 2022
# The structure has been converted into the P1 space group
# The structure has a 3D framework
# The original CSD entry BIKNER is in the rhombohedral crystal system
# The framework has been calculated to contain at least 10.0% void space
# The void calculation uses a probe of radius 1.32A, grid spacing 0.4
#
###############################################################################

data_BIKNER
_chemical_formula_moiety         '(C360 H216 O87 Zr18)n'
_symmetry_cell_setting           triclinic
_symmetry_space_group_name_H-M   'P 1'
_symmetry_Int_Tables_number      1
_space_group_name_Hall           'P 1'
loop_
_symmetry_equiv_pos_site_id
_symmetry_equiv_pos_as_xyz
1 x,y,z
_cell_length_a                   30.3525(4)
_cell_length_b                   30.3525(4)
_cell_length_c                   14.9329(3)
_cell_angle_alpha                90
_cell_angle_beta                 90
_cell_angle_gamma                120
_cell_volume                     11914.2
loop_
_atom_site_label
_atom_site_type_symbol
_atom_site_fract_x
_atom_site_fract_y
_atom_site_fract_z
O14 O 0.26684(14) 0.57570(10) 0.38069(17)
O15 O 0.23688(13) 0.63096(9) 0.37696(17)
C48 C 0.05013(25) 0.46997(18) 0.8250(3)
C49 C 0.07832(27) 0.47897(19) 0.9032(3)
H29 H 0.0613 0.4681 0.9592
C50 C 0.13107(27) 0.50368(19) 0.9003(3)
H30 H 0.1500 0.5098 0.9540
C51 C 0.15604(24) 0.51945(17) 0.8189(3)
H31 H 0.1922 0.5363 0.8174
C52 C 0.12891(23) 0.51101(17) 0.7388(3)
C53 C 0.07576(23) 0.48587(17) 0.7433(3)
H32 H 0.0567 0.4795 0.6896
C54 C 0.15571(23) 0.52996(17) 0.6526(3)
C55 C 0.20287(28) 0.5340(2) 0.6390(4)
H33 H 0.2174 0.5235 0.6848
C56 C 0.22919(28) 0.5533(2) 0.5592(4)
H34 H 0.2607 0.5545 0.5501
C57 C 0.20989(22) 0.57048(16) 0.4935(3)
C58 C 0.16303(21) 0.56723(15) 0.5056(3)
H35 H 0.1496 0.5794 0.4608
C59 C 0.13584(22) 0.54594(16) 0.5840(3)
H36 H 0.1030 0.5422 0.5909
C60 C 0.24005(20) 0.59396(14) 0.4104(3)
Zr5 Zr 0.27602(2) 0.68247(2) 0.26249(2)
Zr7 Zr 0.31753(2) 0.59354(3) 0.26249(2)
Zr1 Zr 0.60935(2) 0.34914(2) 0.92916(2)
O1 O 0.59768(9) 0.41345(9) 0.89523(16)
O2 O 0.64513(9) 0.45143(9) 0.77125(16)
O3 O 0.42430(10) 0.69114(10) 0.38069(17)
O4 O 0.36904(9) 0.60592(9) 0.37696(17)
O5 O 0.6667 0.3333 0.9754(4)
O6 O 0.61025(16) 0.34905(11) 0.7855(3)
C1 C 0.61388(14) 0.44622(14) 0.8324(2)
C2 C 0.59367(16) 0.48216(16) 0.8307(3)
C3 C 0.5584(3) 0.4775(3) 0.8935(4)
H1 H 0.5474 0.4518 0.9380
C4 C 0.5388(3) 0.5104(3) 0.8920(4)
H2 H 0.5148 0.5072 0.9361
C5 C 0.55392(19) 0.54762(19) 0.8274(3)
C6 C 0.5890(2) 0.5519(2) 0.7644(3)
H3 H 0.5999 0.5775 0.7196
C7 C 0.6085(2) 0.51928(19) 0.7660(3)
H4 H 0.6325 0.5225 0.7218
C8 C 0.53003(18) 0.58016(18) 0.8250(3)
C9 C 0.52103(19) 0.59935(19) 0.9032(3)
H5 H 0.5319 0.5932 0.9592
C10 C 0.49632(19) 0.62739(19) 0.9003(3)
H6 H 0.4902 0.6402 0.9540
C11 C 0.48055(17) 0.63659(17) 0.8189(3)
H7 H 0.4637 0.6559 0.8174
C12 C 0.48899(17) 0.61790(16) 0.7388(3)
C13 C 0.51413(17) 0.58989(16) 0.7433(3)
H8 H 0.5205 0.5772 0.6896
C14 C 0.47004(17) 0.62575(16) 0.6526(3)
C15 C 0.4660(2) 0.66887(19) 0.6390(4)
H9 H 0.4765 0.6939 0.6848
C16 C 0.4467(2) 0.67589(19) 0.5592(4)
H10 H 0.4455 0.7062 0.5501
C17 C 0.42952(16) 0.63941(15) 0.4935(3)
C18 C 0.43277(15) 0.59580(15) 0.5056(3)
H11 H 0.4206 0.5702 0.4608
C19 C 0.45406(16) 0.58990(15) 0.5840(3)
H12 H 0.4578 0.5608 0.5909
C20 C 0.40604(14) 0.64609(14) 0.4104(3)
Zr2 Zr 0.65086(2) 0.26021(3) 0.92916(2)
O7 O 0.58655(9) 0.18423(13) 0.89523(16)
O8 O 0.54857(9) 0.19370(13) 0.77125(16)
O11 O 0.65095(11) 0.26120(19) 0.7855(3)
C21 C 0.55378(14) 0.16766(20) 0.8324(2)
C22 C 0.51784(16) 0.11151(23) 0.8307(3)
C23 C 0.5225(3) 0.0809(4) 0.8935(4)
H13 H 0.5482 0.0956 0.9380
C24 C 0.4896(3) 0.0284(4) 0.8920(4)
H14 H 0.4928 0.0076 0.9361
C25 C 0.45238(19) 0.00630(27) 0.8274(3)
C26 C 0.4481(2) 0.0371(3) 0.7644(3)
H15 H 0.4225 0.0224 0.7196
C27 C 0.48072(19) 0.08922(28) 0.7660(3)
H16 H 0.4775 0.1100 0.7218
Zr3 Zr 0.73979(3) 0.39065(2) 0.92916(2)
O12 O 0.81577(13) 0.40232(9) 0.89523(16)
O13 O 0.80630(13) 0.35487(9) 0.77125(16)
O16 O 0.73880(19) 0.38975(16) 0.7855(3)
C41 C 0.83234(20) 0.38612(14) 0.8324(2)
C42 C 0.88849(23) 0.40633(16) 0.8307(3)
C43 C 0.9191(4) 0.4416(3) 0.8935(4)
H25 H 0.9044 0.4526 0.9380
C44 C 0.9716(4) 0.4612(3) 0.8920(4)
H26 H 0.9924 0.4852 0.9361
C45 C 0.99370(27) 0.44608(19) 0.8274(3)
C46 C 0.9629(3) 0.4110(2) 0.7644(3)
H27 H 0.9776 0.4001 0.7196
C47 C 0.91078(28) 0.3915(2) 0.7660(3)
H28 H 0.8900 0.3675 0.7218
Zr9 Zr 0.40646(3) 0.72398(2) 0.26249(2)
Zr10 Zr 0.72398(2) 0.31753(2) 0.73751(2)
Zr11 Zr 0.68247(2) 0.40646(3) 0.73751(2)
Zr12 Zr 0.59354(3) 0.27602(2) 0.73751(2)
O17 O 0.68820(9) 0.21524(9) 0.89542(16)
O18 O 0.78476(9) 0.47297(13) 0.89542(16)
O19 O 0.52703(13) 0.31180(9) 0.89542(16)
O26 O 0.72308(16) 0.31762(11) 0.8812(3)
O27 O 0.68238(11) 0.40547(19) 0.8812(3)
O28 O 0.59453(19) 0.27692(16) 0.8812(3)
O9 O 0.30886(10) 0.73316(14) 0.38069(17)
O10 O 0.39408(9) 0.76312(13) 0.37696(17)
C28 C 0.41984(18) 0.94987(25) 0.8250(3)
C29 C 0.40065(19) 0.92168(27) 0.9032(3)
H17 H 0.4068 0.9387 0.9592
C30 C 0.37261(19) 0.86893(27) 0.9003(3)
H18 H 0.3598 0.8500 0.9540
C31 C 0.36341(17) 0.84396(24) 0.8189(3)
H19 H 0.3441 0.8078 0.8174
C32 C 0.38210(16) 0.87109(23) 0.7388(3)
C33 C 0.41011(16) 0.92424(23) 0.7433(3)
H20 H 0.4228 0.9433 0.6896
C34 C 0.37425(16) 0.84429(23) 0.6526(3)
C35 C 0.33113(19) 0.79713(28) 0.6390(4)
H21 H 0.3061 0.7826 0.6848
C36 C 0.32411(19) 0.77081(28) 0.5592(4)
H22 H 0.2938 0.7393 0.5501
C37 C 0.36059(15) 0.79011(22) 0.4935(3)
C38 C 0.40420(15) 0.83697(21) 0.5056(3)
H23 H 0.4298 0.8504 0.4608
C39 C 0.41010(15) 0.86416(22) 0.5840(3)
H24 H 0.4392 0.8970 0.5909
C40 C 0.35391(14) 0.75995(20) 0.4104(3)
O1_2 O 0.26435(9) 0.74678(9) 0.22856(16)
O2_2 O 0.31180(9) 0.78476(9) 0.10458(16)
O5_2 O 0.3334 0.6666 0.3087(4)
O6_2 O 0.27692(16) 0.68238(11) 0.1188(3)
C1_2 C 0.28055(14) 0.77955(14) 0.1657(2)
C2_2 C 0.26034(16) 0.81549(16) 0.1640(3)
C3_2 C 0.2251(3) 0.8108(3) 0.2268(4)
H1_2 H 0.2141 0.7851 0.2713
C4_2 C 0.2055(3) 0.8437(3) 0.2253(4)
H2_2 H 0.1815 0.8405 0.2694
C5_2 C 0.22059(19) 0.88095(19) 0.1607(3)
C6_2 C 0.2557(2) 0.8852(2) 0.0977(3)
H3_2 H 0.2666 0.9108 0.0529
C7_2 C 0.2752(2) 0.85261(19) 0.0993(3)
H4_2 H 0.2992 0.8558 0.0551
C8_2 C 0.19670(18) 0.91349(18) 0.1583(3)
C9_2 C 0.18770(19) 0.93268(19) 0.2365(3)
H5_2 H 0.1986 0.9265 0.2925
C10_2 C 0.16299(19) 0.96072(19) 0.2336(3)
H6_2 H 0.1569 0.9735 0.2873
C11_2 C 0.14722(17) 0.96992(17) 0.1522(3)
H7_2 H 0.1304 0.9892 0.1507
C12_2 C 0.15566(17) 0.95123(16) 0.0721(3)
C13_2 C 0.18080(17) 0.92322(16) 0.0766(3)
H8_2 H 0.1872 0.9105 0.0229
O7_2 O 0.25322(9) 0.51756(13) 0.22856(16)
O8_2 O 0.21524(9) 0.52703(13) 0.10458(16)
O11_2 O 0.31762(11) 0.59453(19) 0.1188(3)
C21_2 C 0.22045(14) 0.50099(20) 0.1657(2)
C22_2 C 0.18451(16) 0.44484(23) 0.1640(3)
C23_2 C 0.1892(3) 0.4142(4) 0.2268(4)
H13_2 H 0.2149 0.4289 0.2713
C24_2 C 0.1563(3) 0.3617(4) 0.2253(4)
H14_2 H 0.1595 0.3409 0.2694
C25_2 C 0.11905(19) 0.33963(27) 0.1607(3)
C26_2 C 0.1148(2) 0.3704(3) 0.0977(3)
H15_2 H 0.0892 0.3557 0.0529
C27_2 C 0.14739(19) 0.42255(28) 0.0993(3)
H16_2 H 0.1442 0.4433 0.0551
C28_2 C 0.08651(18) 0.28320(25) 0.1583(3)
C29_2 C 0.06732(19) 0.25501(27) 0.2365(3)
H17_2 H 0.0735 0.2720 0.2925
C30_2 C 0.03928(19) 0.20226(27) 0.2336(3)
H18_2 H 0.0265 0.1833 0.2873
C31_2 C 0.03008(17) 0.17729(24) 0.1522(3)
H19_2 H 0.0108 0.1411 0.1507
C32_2 C 0.04877(16) 0.20442(23) 0.0721(3)
C33_2 C 0.07678(16) 0.25757(23) 0.0766(3)
H20_2 H 0.0895 0.2766 0.0229
O12_2 O 0.48244(13) 0.73565(9) 0.22856(16)
O13_2 O 0.47297(13) 0.68820(9) 0.10458(16)
O16_2 O 0.40547(19) 0.72308(16) 0.1188(3)
C41_2 C 0.49901(20) 0.71945(14) 0.1657(2)
C42_2 C 0.55516(23) 0.73966(16) 0.1640(3)
C43_2 C 0.5858(4) 0.7749(3) 0.2268(4)
H25_2 H 0.5711 0.7859 0.2713
C44_2 C 0.6383(4) 0.7945(3) 0.2253(4)
H26_2 H 0.6591 0.8185 0.2694
C45_2 C 0.66037(27) 0.77941(19) 0.1607(3)
C46_2 C 0.6296(3) 0.7443(2) 0.0977(3)
H27_2 H 0.6443 0.7334 0.0529
C47_2 C 0.57745(28) 0.7248(2) 0.0993(3)
H28_2 H 0.5567 0.7008 0.0551
C48_2 C 0.71680(25) 0.80330(18) 0.1583(3)
C49_2 C 0.74499(27) 0.81230(19) 0.2365(3)
H29_2 H 0.7280 0.8014 0.2925
C50_2 C 0.79774(27) 0.83701(19) 0.2336(3)
H30_2 H 0.8167 0.8431 0.2873
C51_2 C 0.82271(24) 0.85278(17) 0.1522(3)
H31_2 H 0.8589 0.8696 0.1507
C52_2 C 0.79558(23) 0.84434(17) 0.0721(3)
C53_2 C 0.74243(23) 0.81920(17) 0.0766(3)
H32_2 H 0.7234 0.8128 0.0229
H33_2 H 0.8841 0.8568 0.0181
Zr10_2 Zr 0.39065(2) 0.65086(2) 0.07084(2)
Zr11_2 Zr 0.34914(2) 0.73979(3) 0.07084(2)
Zr12_2 Zr 0.26021(3) 0.60935(2) 0.07084(2)
O17_2 O 0.35487(9) 0.54857(9) 0.22875(16)
O18_2 O 0.45143(9) 0.80630(13) 0.22875(16)
O19_2 O 0.19370(13) 0.64513(9) 0.22875(16)
O26_2 O 0.38975(16) 0.65095(11) 0.2145(3)
O27_2 O 0.34905(11) 0.73880(19) 0.2145(3)
O28_2 O 0.26120(19) 0.61025(16) 0.2145(3)
O9_2 O 0.69114(10) 0.26684(14) 0.61931(17)
O10_2 O 0.60592(9) 0.23688(13) 0.62304(17)
C28_3 C 0.58016(18) 0.05013(25) 0.1750(3)
C29_3 C 0.59935(19) 0.07832(27) 0.0968(3)
H17_3 H 0.5932 0.0613 0.0408
C30_3 C 0.62739(19) 0.13107(27) 0.0997(3)
H18_3 H 0.6402 0.1500 0.0460
C31_3 C 0.63659(17) 0.15604(24) 0.1811(3)
H19_3 H 0.6559 0.1922 0.1826
C32_3 C 0.61790(16) 0.12891(23) 0.2612(3)
C33_3 C 0.58989(16) 0.07576(23) 0.2567(3)
H20_3 H 0.5772 0.0567 0.3104
C34_2 C 0.62575(16) 0.15571(23) 0.3474(3)
C35_2 C 0.66887(19) 0.20287(28) 0.3610(4)
H21_2 H 0.6939 0.2174 0.3152
C36_2 C 0.67589(19) 0.22919(28) 0.4408(4)
H22_2 H 0.7062 0.2607 0.4499
C37_2 C 0.63941(15) 0.20989(22) 0.5065(3)
C38_2 C 0.59580(15) 0.16303(21) 0.4944(3)
H23_2 H 0.5702 0.1496 0.5392
C39_2 C 0.58990(15) 0.13584(22) 0.4160(3)
H24_2 H 0.5608 0.1030 0.4091
C40_2 C 0.64609(14) 0.24005(20) 0.5896(3)
O1_3 O 0.40232(9) 0.58655(9) 0.10477(16)
O3_2 O 0.57570(10) 0.30886(10) 0.61931(17)
O4_2 O 0.63096(9) 0.39408(9) 0.62304(17)
O5_3 O 0.3333 0.6667 0.0246(4)
C1_3 C 0.38612(14) 0.55378(14) 0.1676(2)
C2_3 C 0.40633(16) 0.51784(16) 0.1693(3)
C3_3 C 0.4416(3) 0.5225(3) 0.1065(4)
H1_3 H 0.4526 0.5482 0.0620
C4_3 C 0.4612(3) 0.4896(3) 0.1080(4)
H2_3 H 0.4852 0.4928 0.0639
C5_3 C 0.44608(19) 0.45238(19) 0.1726(3)
C6_3 C 0.4110(2) 0.4481(2) 0.2356(3)
H3_3 H 0.4001 0.4225 0.2804
C7_3 C 0.3915(2) 0.48072(19) 0.2340(3)
H4_3 H 0.3675 0.4775 0.2782
C8_3 C 0.46997(18) 0.41984(18) 0.1750(3)
C9_3 C 0.47897(19) 0.40065(19) 0.0968(3)
H5_3 H 0.4681 0.4068 0.0408
C10_3 C 0.50368(19) 0.37261(19) 0.0997(3)
H6_3 H 0.5098 0.3598 0.0460
C11_3 C 0.51945(17) 0.36341(17) 0.1811(3)
H7_3 H 0.5363 0.3441 0.1826
C12_3 C 0.51101(17) 0.38210(16) 0.2612(3)
C13_3 C 0.48587(17) 0.41011(16) 0.2567(3)
H8_3 H 0.4795 0.4228 0.3104
C14_2 C 0.52996(17) 0.37425(16) 0.3474(3)
C15_2 C 0.5340(2) 0.33113(19) 0.3610(4)
H9_2 H 0.5235 0.3061 0.3152
C16_2 C 0.5533(2) 0.32411(19) 0.4408(4)
H10_2 H 0.5545 0.2938 0.4499
C17_2 C 0.57048(16) 0.36059(15) 0.5065(3)
C18_2 C 0.56723(15) 0.40420(15) 0.4944(3)
H11_2 H 0.5794 0.4298 0.5392
C19_2 C 0.54594(16) 0.41010(15) 0.4160(3)
H12_2 H 0.5422 0.4392 0.4091
C20_2 C 0.59396(14) 0.35391(14) 0.5896(3)
O7_3 O 0.41345(9) 0.81577(13) 0.10477(16)
C21_3 C 0.44622(14) 0.83234(20) 0.1676(2)
C22_3 C 0.48216(16) 0.88849(23) 0.1693(3)
C23_3 C 0.4775(3) 0.9191(4) 0.1065(4)
H13_3 H 0.4518 0.9044 0.0620
C24_3 C 0.5104(3) 0.9716(4) 0.1080(4)
H14_3 H 0.5072 0.9924 0.0639
C25_3 C 0.54762(19) 0.99370(27) 0.1726(3)
C26_3 C 0.5519(2) 0.9629(3) 0.2356(3)
H15_3 H 0.5775 0.9776 0.2804
C27_3 C 0.51928(19) 0.91078(28) 0.2340(3)
H16_3 H 0.5225 0.8900 0.2782
O12_3 O 0.18423(13) 0.59768(9) 0.10477(16)
C41_3 C 0.16766(20) 0.61388(14) 0.1676(2)
C42_3 C 0.11151(23) 0.59367(16) 0.1693(3)
C43_3 C 0.0809(4) 0.5584(3) 0.1065(4)
H25_3 H 0.0956 0.5474 0.0620
C44_3 C 0.0284(4) 0.5388(3) 0.1080(4)
H26_3 H 0.0076 0.5148 0.0639
C45_3 C 0.00630(27) 0.55392(19) 0.1726(3)
C46_3 C 0.0371(3) 0.5890(2) 0.2356(3)
H27_3 H 0.0224 0.5999 0.2804
C47_3 C 0.08922(28) 0.6085(2) 0.2340(3)
H28_3 H 0.1100 0.6325 0.2782
O14_2 O 0.73316(14) 0.42430(10) 0.61931(17)
O15_2 O 0.76312(13) 0.36904(9) 0.62304(17)
C48_3 C 0.94987(25) 0.53003(18) 0.1750(3)
C49_3 C 0.92168(27) 0.52103(19) 0.0968(3)
H29_3 H 0.9387 0.5319 0.0408
C50_3 C 0.86893(27) 0.49632(19) 0.0997(3)
H30_3 H 0.8500 0.4902 0.0460
C51_3 C 0.84396(24) 0.48055(17) 0.1811(3)
H31_3 H 0.8078 0.4637 0.1826
C52_3 C 0.87109(23) 0.48899(17) 0.2612(3)
C53_3 C 0.92424(23) 0.51413(17) 0.2567(3)
H32_3 H 0.9433 0.5205 0.3104
C54_2 C 0.84429(23) 0.47004(17) 0.3474(3)
C55_2 C 0.79713(28) 0.4660(2) 0.3610(4)
H33_3 H 0.7826 0.4765 0.3152
C56_2 C 0.77081(28) 0.4467(2) 0.4408(4)
H34_2 H 0.7393 0.4455 0.4499
C57_2 C 0.79011(22) 0.42952(16) 0.5065(3)
C58_2 C 0.83697(21) 0.43277(15) 0.4944(3)
H35_2 H 0.8504 0.4206 0.5392
C59_2 C 0.86416(22) 0.45406(16) 0.4160(3)
H36_2 H 0.8970 0.4578 0.4091
C60_2 C 0.75995(20) 0.40604(14) 0.5896(3)
O1_4 O 0.73565(9) 0.25322(9) 0.77144(16)
O5_4 O 0.6666 0.3334 0.6913(4)
C1_4 C 0.71945(14) 0.22045(14) 0.8343(2)
C2_4 C 0.73966(16) 0.18451(16) 0.8360(3)
C3_4 C 0.7749(3) 0.1892(3) 0.7732(4)
H1_4 H 0.7859 0.2149 0.7287
C4_4 C 0.7945(3) 0.1563(3) 0.7747(4)
H2_4 H 0.8185 0.1595 0.7306
C5_4 C 0.77941(19) 0.11905(19) 0.8393(3)
C6_4 C 0.7443(2) 0.1148(2) 0.9023(3)
H3_4 H 0.7334 0.0892 0.9471
C7_4 C 0.7248(2) 0.14739(19) 0.9007(3)
H4_4 H 0.7008 0.1442 0.9449
C8_4 C 0.80330(18) 0.08651(18) 0.8417(3)
C9_4 C 0.81230(19) 0.06732(19) 0.7635(3)
H5_4 H 0.8014 0.0735 0.7075
C10_4 C 0.83701(19) 0.03928(19) 0.7664(3)
H6_4 H 0.8431 0.0265 0.7127
C11_4 C 0.85278(17) 0.03008(17) 0.8478(3)
H7_4 H 0.8696 0.0108 0.8493
C12_4 C 0.84434(17) 0.04877(16) 0.9279(3)
C13_4 C 0.81920(17) 0.07678(16) 0.9234(3)
H8_4 H 0.8128 0.0895 0.9771
O7_4 O 0.74678(9) 0.48244(13) 0.77144(16)
C21_4 C 0.77955(14) 0.49901(20) 0.8343(2)
C22_4 C 0.81549(16) 0.55516(23) 0.8360(3)
C23_4 C 0.8108(3) 0.5858(4) 0.7732(4)
H13_4 H 0.7851 0.5711 0.7287
C24_4 C 0.8437(3) 0.6383(4) 0.7747(4)
H14_4 H 0.8405 0.6591 0.7306
C25_4 C 0.88095(19) 0.66037(27) 0.8393(3)
C26_4 C 0.8852(2) 0.6296(3) 0.9023(3)
H15_4 H 0.9108 0.6443 0.9471
C27_4 C 0.85261(19) 0.57745(28) 0.9007(3)
H16_4 H 0.8558 0.5567 0.9449
C28_4 C 0.91349(18) 0.71680(25) 0.8417(3)
C29_4 C 0.93268(19) 0.74499(27) 0.7635(3)
H17_4 H 0.9265 0.7280 0.7075
C30_4 C 0.96072(19) 0.79774(27) 0.7664(3)
H18_4 H 0.9735 0.8167 0.7127
C31_4 C 0.96992(17) 0.82271(24) 0.8478(3)
H19_4 H 0.9892 0.8589 0.8493
C32_4 C 0.95123(16) 0.79558(23) 0.9279(3)
C33_4 C 0.92322(16) 0.74243(23) 0.9234(3)
H20_4 H 0.9105 0.7234 0.9771
O12_4 O 0.51756(13) 0.26435(9) 0.77144(16)
C41_4 C 0.50099(20) 0.28055(14) 0.8343(2)
C42_4 C 0.44484(23) 0.26034(16) 0.8360(3)
C43_4 C 0.4142(4) 0.2251(3) 0.7732(4)
H25_4 H 0.4289 0.2141 0.7287
C44_4 C 0.3617(4) 0.2055(3) 0.7747(4)
H26_4 H 0.3409 0.1815 0.7306
C45_4 C 0.33963(27) 0.22059(19) 0.8393(3)
C46_4 C 0.3704(3) 0.2557(2) 0.9023(3)
H27_4 H 0.3557 0.2666 0.9471
C47_4 C 0.42255(28) 0.2752(2) 0.9007(3)
H28_4 H 0.4433 0.2992 0.9449
C48_4 C 0.28320(25) 0.19670(18) 0.8417(3)
C49_4 C 0.25501(27) 0.18770(19) 0.7635(3)
H29_4 H 0.2720 0.1986 0.7075
C50_4 C 0.20226(27) 0.16299(19) 0.7664(3)
H30_4 H 0.1833 0.1569 0.7127
C51_4 C 0.17729(24) 0.14722(17) 0.8478(3)
H31_4 H 0.1411 0.1304 0.8493
C52_4 C 0.20442(23) 0.15566(17) 0.9279(3)
C53_4 C 0.25757(23) 0.18080(17) 0.9234(3)
H32_4 H 0.2766 0.1872 0.9771
H33_4 H 0.1159 0.1432 0.9819
O20 O 0.75763(10) 0.35781(10) 0.04736(17)
O21 O 0.64219(10) 0.39983(14) 0.04736(17)
O22 O 0.60017(14) 0.24237(10) 0.04736(17)
O23 O 0.70237(9) 0.27259(9) 0.04363(17)
O24 O 0.72741(9) 0.42979(13) 0.04363(17)
O25 O 0.57021(13) 0.29763(9) 0.04363(17)
O3_3 O 0.09097(10) 0.02447(10) 0.71402(17)
C15_3 C 0.1327(2) 0.00220(19) 0.9723(4)
C16_3 C 0.1134(2) 0.00922(19) 0.8925(4)
H10_3 H 0.1122 0.0395 0.8834
Zr5_2 Zr 0.94268(2) 0.01581(2) 0.59583(2)
Zr9_2 Zr 0.07312(3) 0.05732(2) 0.59583(2)
O4_3 O 0.03571(9) 0.93925(9) 0.71029(17)
C14_3 C 0.13671(17) 0.95908(16) 0.9859(3)
C17_3 C 0.09619(16) 0.97274(15) 0.8268(3)
C18_3 C 0.09944(15) 0.92913(15) 0.8389(3)
H11_3 H 0.0873 0.9035 0.7941
C19_3 C 0.12073(16) 0.92323(15) 0.9173(3)
H12_3 H 0.1245 0.8941 0.9242
C20_3 C 0.07271(14) 0.97942(14) 0.7437(3)
O10_3 O 0.06075(9) 0.09645(13) 0.71029(17)
C34_3 C 0.04092(16) 0.17762(23) 0.9859(3)
C37_3 C 0.02726(15) 0.12344(22) 0.8268(3)
C38_3 C 0.07087(15) 0.17030(21) 0.8389(3)
H23_3 H 0.0965 0.1837 0.7941
C39_3 C 0.07677(15) 0.19749(22) 0.9173(3)
H24_3 H 0.1059 0.2303 0.9242
C40_3 C 0.02058(14) 0.09328(20) 0.7437(3)
O14_3 O 0.93351(14) 0.90903(10) 0.71402(17)
O15_3 O 0.90355(13) 0.96429(9) 0.71029(17)
C54_3 C 0.82238(23) 0.86329(17) 0.9859(3)
C55_3 C 0.86954(28) 0.8673(2) 0.9723(4)
C56_3 C 0.89586(28) 0.8866(2) 0.8925(4)
H34_3 H 0.9274 0.8878 0.8834
C57_3 C 0.87656(22) 0.90381(16) 0.8268(3)
C58_3 C 0.82970(21) 0.90056(15) 0.8389(3)
H35_3 H 0.8163 0.9127 0.7941
C59_3 C 0.80251(22) 0.87927(16) 0.9173(3)
H36_3 H 0.7697 0.8755 0.9242
C60_3 C 0.90672(20) 0.92729(14) 0.7437(3)
Zr7_2 Zr 0.98419(2) 0.92688(3) 0.59583(2)
O9_3 O 0.97553(10) 0.06649(14) 0.71402(17)
C35_3 C 0.99780(19) 0.13046(28) 0.9723(4)
C36_3 C 0.99078(19) 0.10414(28) 0.8925(4)
H22_3 H 0.9605 0.0726 0.8834
O12_5 O 0.14910(13) 0.06899(9) 0.56190(16)
O13_3 O 0.13963(13) 0.02154(9) 0.43792(16)
O16_3 O 0.07213(19) 0.05642(16) 0.4522(3)
C41_5 C 0.16567(20) 0.05279(14) 0.4991(2)
C42_5 C 0.22182(23) 0.07300(16) 0.4974(3)
C43_5 C 0.2524(4) 0.1083(3) 0.5602(4)
H25_5 H 0.2377 0.1193 0.6047
C44_5 C 0.3049(4) 0.1279(3) 0.5587(4)
H26_5 H 0.3257 0.1519 0.6028
C45_5 C 0.32703(27) 0.11275(19) 0.4941(3)
C46_5 C 0.2962(3) 0.0777(2) 0.4311(3)
H27_5 H 0.3109 0.0668 0.3863
C47_5 C 0.24411(28) 0.0582(2) 0.4327(3)
H28_5 H 0.2233 0.0342 0.3885
C48_5 C 0.38346(25) 0.13664(18) 0.4917(3)
C49_5 C 0.41165(27) 0.14564(19) 0.5699(3)
H29_5 H 0.3946 0.1348 0.6259
C50_5 C 0.46440(27) 0.17035(19) 0.5670(3)
H30_5 H 0.4833 0.1765 0.6207
C51_5 C 0.48937(24) 0.18612(17) 0.4856(3)
H31_5 H 0.5255 0.2030 0.4841
C52_5 C 0.46224(23) 0.17768(17) 0.4055(3)
C53_5 C 0.40909(23) 0.15254(17) 0.4100(3)
H32_5 H 0.3900 0.1462 0.3563
C54_4 C 0.48904(23) 0.19663(17) 0.3193(3)
C55_4 C 0.53620(28) 0.2007(2) 0.3057(4)
H33_5 H 0.5507 0.1902 0.3515
C56_4 C 0.56252(28) 0.2200(2) 0.2259(4)
H34_4 H 0.5940 0.2212 0.2168
C57_4 C 0.54322(22) 0.23715(16) 0.1602(3)
C58_4 C 0.49636(21) 0.23390(15) 0.1723(3)
H35_4 H 0.4829 0.2461 0.1275
C59_4 C 0.46917(22) 0.21261(16) 0.2507(3)
H36_4 H 0.4363 0.2089 0.2576
C60_4 C 0.57338(20) 0.26063(14) 0.0771(3)
Zr11_3 Zr 0.01581(2) 0.07312(3) 0.40417(2)
O18_3 O 0.11810(9) 0.13963(13) 0.56208(16)
O27_3 O 0.01572(11) 0.07213(19) 0.5478(3)
O5_5 O 0.0000 1.0000 0.6421(4)
Zr10_3 Zr 0.05732(2) 0.98419(2) 0.40417(2)
O17_3 O 0.02154(9) 0.88190(9) 0.56208(16)
O26_3 O 0.05642(16) 0.98428(11) 0.5478(3)
O1_5 O 0.93101(9) 0.08012(9) 0.56190(16)
O2_3 O 0.97846(9) 0.11810(9) 0.43792(16)
O6_3 O 0.94358(16) 0.01572(11) 0.4522(3)
C1_5 C 0.94721(14) 0.11289(14) 0.4991(2)
C2_5 C 0.92700(16) 0.14883(16) 0.4974(3)
C3_5 C 0.8917(3) 0.1442(3) 0.5602(4)
H1_5 H 0.8807 0.1185 0.6047
C4_5 C 0.8721(3) 0.1771(3) 0.5587(4)
H2_5 H 0.8481 0.1739 0.6028
C5_5 C 0.88725(19) 0.21429(19) 0.4941(3)
C6_5 C 0.9223(2) 0.2186(2) 0.4311(3)
H3_5 H 0.9332 0.2442 0.3863
C7_5 C 0.9418(2) 0.18595(19) 0.4327(3)
H4_5 H 0.9658 0.1892 0.3885
C8_5 C 0.86336(18) 0.24683(18) 0.4917(3)
C9_5 C 0.85436(19) 0.26602(19) 0.5699(3)
H5_5 H 0.8652 0.2599 0.6259
C10_5 C 0.82965(19) 0.29406(19) 0.5670(3)
H6_5 H 0.8235 0.3069 0.6207
C11_5 C 0.81388(17) 0.30326(17) 0.4856(3)
H7_5 H 0.7970 0.3226 0.4841
C12_5 C 0.82232(17) 0.28457(16) 0.4055(3)
C13_5 C 0.84746(17) 0.25656(16) 0.4100(3)
H8_5 H 0.8538 0.2439 0.3563
C14_4 C 0.80337(17) 0.29242(16) 0.3193(3)
C15_4 C 0.7993(2) 0.33554(19) 0.3057(4)
H9_3 H 0.8098 0.3606 0.3515
C16_4 C 0.7800(2) 0.34256(19) 0.2259(4)
H10_4 H 0.7788 0.3729 0.2168
C17_4 C 0.76285(16) 0.30608(15) 0.1602(3)
C18_4 C 0.76610(15) 0.26247(15) 0.1723(3)
H11_4 H 0.7539 0.2369 0.1275
C19_4 C 0.78739(16) 0.25657(15) 0.2507(3)
H12_4 H 0.7911 0.2275 0.2576
C20_4 C 0.73937(14) 0.31276(14) 0.0771(3)
O7_5 O 0.91988(9) 0.85090(13) 0.56190(16)
O8_3 O 0.88190(9) 0.86037(13) 0.43792(16)
O11_3 O 0.98428(11) 0.92787(19) 0.4522(3)
C21_5 C 0.88711(14) 0.83433(20) 0.4991(2)
C22_5 C 0.85117(16) 0.77818(23) 0.4974(3)
C23_5 C 0.8558(3) 0.7476(4) 0.5602(4)
H13_5 H 0.8815 0.7623 0.6047
C24_5 C 0.8229(3) 0.6951(4) 0.5587(4)
H14_5 H 0.8261 0.6743 0.6028
C25_5 C 0.78571(19) 0.67297(27) 0.4941(3)
C26_5 C 0.7814(2) 0.7038(3) 0.4311(3)
H15_5 H 0.7558 0.6891 0.3863
C27_5 C 0.81405(19) 0.75589(28) 0.4327(3)
H16_5 H 0.8108 0.7767 0.3885
C28_5 C 0.75317(18) 0.61654(25) 0.4917(3)
C29_5 C 0.73398(19) 0.58835(27) 0.5699(3)
H17_5 H 0.7401 0.6054 0.6259
C30_5 C 0.70594(19) 0.53560(27) 0.5670(3)
H18_5 H 0.6931 0.5167 0.6207
C31_5 C 0.69674(17) 0.51063(24) 0.4856(3)
H19_5 H 0.6774 0.4745 0.4841
C32_5 C 0.71543(16) 0.53776(23) 0.4055(3)
C33_5 C 0.74344(16) 0.59091(23) 0.4100(3)
H20_5 H 0.7561 0.6100 0.3563
C34_4 C 0.70758(16) 0.51096(23) 0.3193(3)
C35_4 C 0.66446(19) 0.46380(28) 0.3057(4)
H21_3 H 0.6394 0.4493 0.3515
C36_4 C 0.65744(19) 0.43748(28) 0.2259(4)
H22_4 H 0.6271 0.4060 0.2168
C37_4 C 0.69392(15) 0.45678(22) 0.1602(3)
C38_4 C 0.73753(15) 0.50364(21) 0.1723(3)
H23_4 H 0.7631 0.5171 0.1275
C39_4 C 0.74343(15) 0.53083(22) 0.2507(3)
H24_4 H 0.7725 0.5637 0.2576
C40_4 C 0.68724(14) 0.42662(20) 0.0771(3)
Zr12_3 Zr 0.92688(3) 0.94268(2) 0.40417(2)
O19_3 O 0.86037(13) 0.97846(9) 0.56208(16)
O28_3 O 0.92787(19) 0.94358(16) 0.5478(3)
O5_6 O 0.0000 0.0001 0.6421(4)
O5_7 O 0.9999 1.0000 0.6421(4)
O20_2 O 0.24237(10) 0.64219(10) 0.95264(17)
O21_2 O 0.35781(10) 0.60017(14) 0.95264(17)
O22_2 O 0.39983(14) 0.75763(10) 0.95264(17)
O23_2 O 0.29763(9) 0.72741(9) 0.95637(17)
O24_2 O 0.27259(9) 0.57021(13) 0.95637(17)
O25_2 O 0.42979(13) 0.70237(9) 0.95637(17)
O9_4 O 0.02447(10) 0.93351(14) 0.28598(17)
C35_5 C 0.00220(19) 0.86954(28) 0.0277(4)
C36_5 C 0.00922(19) 0.89586(28) 0.1075(4)
H22_5 H 0.0395 0.9274 0.1166
O4_4 O 0.96429(9) 0.06075(9) 0.28971(17)
C14_5 C 0.86329(17) 0.04092(16) 0.0141(3)
C17_5 C 0.90381(16) 0.02726(15) 0.1732(3)
C18_5 C 0.90056(15) 0.07087(15) 0.1611(3)
H11_5 H 0.9127 0.0965 0.2059
C19_5 C 0.87927(16) 0.07677(15) 0.0827(3)
H12_5 H 0.8755 0.1059 0.0758
C20_5 C 0.92729(14) 0.02058(14) 0.2563(3)
O10_4 O 0.93925(9) 0.90355(13) 0.28971(17)
C34_5 C 0.95908(16) 0.82238(23) 0.0141(3)
C37_5 C 0.97274(15) 0.87656(22) 0.1732(3)
C38_5 C 0.92913(15) 0.82970(21) 0.1611(3)
H23_5 H 0.9035 0.8163 0.2059
C39_5 C 0.92323(15) 0.80251(22) 0.0827(3)
H24_5 H 0.8941 0.7697 0.0758
C40_5 C 0.97942(14) 0.90672(20) 0.2563(3)
O14_4 O 0.06649(14) 0.09097(10) 0.28598(17)
O15_4 O 0.09645(13) 0.03571(9) 0.28971(17)
C54_5 C 0.17762(23) 0.13671(17) 0.0141(3)
C55_5 C 0.13046(28) 0.1327(2) 0.0277(4)
C56_5 C 0.10414(28) 0.1134(2) 0.1075(4)
H34_5 H 0.0726 0.1122 0.1166
C57_5 C 0.12344(22) 0.09619(16) 0.1732(3)
C58_5 C 0.17030(21) 0.09944(15) 0.1611(3)
H35_5 H 0.1837 0.0873 0.2059
C59_5 C 0.19749(22) 0.12073(16) 0.0827(3)
H36_5 H 0.2303 0.1245 0.0758
C60_5 C 0.09328(20) 0.07271(14) 0.2563(3)
O3_4 O 0.90903(10) 0.97553(10) 0.28598(17)
C15_5 C 0.8673(2) 0.99780(19) 0.0277(4)
C16_5 C 0.8866(2) 0.99078(19) 0.1075(4)
H10_5 H 0.8878 0.9605 0.1166
O7_6 O 0.08012(9) 0.14910(13) 0.43810(16)
C21_6 C 0.11289(14) 0.16567(20) 0.5009(2)
C22_6 C 0.14883(16) 0.22182(23) 0.5026(3)
C23_6 C 0.1442(3) 0.2524(4) 0.4398(4)
H13_6 H 0.1185 0.2377 0.3953
C24_6 C 0.1771(3) 0.3049(4) 0.4413(4)
H14_6 H 0.1739 0.3257 0.3972
C25_6 C 0.21429(19) 0.32703(27) 0.5059(3)
C26_6 C 0.2186(2) 0.2962(3) 0.5689(3)
H15_6 H 0.2442 0.3109 0.6137
C27_6 C 0.18595(19) 0.24411(28) 0.5673(3)
H16_6 H 0.1892 0.2233 0.6115
C28_6 C 0.24683(18) 0.38346(25) 0.5083(3)
C29_6 C 0.26602(19) 0.41165(27) 0.4301(3)
H17_6 H 0.2599 0.3946 0.3741
C30_6 C 0.29406(19) 0.46440(27) 0.4330(3)
H18_6 H 0.3069 0.4833 0.3793
C31_6 C 0.30326(17) 0.48937(24) 0.5144(3)
H19_6 H 0.3226 0.5255 0.5159
C32_6 C 0.28457(16) 0.46224(23) 0.5945(3)
C33_6 C 0.25656(16) 0.40909(23) 0.5900(3)
H20_6 H 0.2439 0.3900 0.6437
C34_6 C 0.29242(16) 0.48904(23) 0.6807(3)
C35_6 C 0.33554(19) 0.53620(28) 0.6943(4)
H21_4 H 0.3606 0.5507 0.6485
C36_6 C 0.34256(19) 0.56252(28) 0.7741(4)
H22_6 H 0.3729 0.5940 0.7832
C37_6 C 0.30608(15) 0.54322(22) 0.8398(3)
C38_6 C 0.26247(15) 0.49636(21) 0.8277(3)
H23_6 H 0.2369 0.4829 0.8725
C39_6 C 0.25657(15) 0.46917(22) 0.7493(3)
H24_6 H 0.2275 0.4363 0.7424
C40_6 C 0.31276(14) 0.57338(20) 0.9229(3)
O1_6 O 0.06899(9) 0.91988(9) 0.43810(16)
C1_6 C 0.05279(14) 0.88711(14) 0.5009(2)
C2_6 C 0.07300(16) 0.85117(16) 0.5026(3)
C3_6 C 0.1083(3) 0.8558(3) 0.4398(4)
H1_6 H 0.1193 0.8815 0.3953
C4_6 C 0.1279(3) 0.8229(3) 0.4413(4)
H2_6 H 0.1519 0.8261 0.3972
C5_6 C 0.11275(19) 0.78571(19) 0.5059(3)
C6_6 C 0.0777(2) 0.7814(2) 0.5689(3)
H3_6 H 0.0668 0.7558 0.6137
C7_6 C 0.0582(2) 0.81405(19) 0.5673(3)
H4_6 H 0.0342 0.8108 0.6115
C8_6 C 0.13664(18) 0.75317(18) 0.5083(3)
C9_6 C 0.14564(19) 0.73398(19) 0.4301(3)
H5_6 H 0.1348 0.7401 0.3741
C10_6 C 0.17035(19) 0.70594(19) 0.4330(3)
H6_6 H 0.1765 0.6931 0.3793
C11_6 C 0.18612(17) 0.69674(17) 0.5144(3)
H7_6 H 0.2030 0.6774 0.5159
C12_6 C 0.17768(17) 0.71543(16) 0.5945(3)
C13_6 C 0.15254(17) 0.74344(16) 0.5900(3)
H8_6 H 0.1462 0.7561 0.6437
C14_6 C 0.19663(17) 0.70758(16) 0.6807(3)
C15_6 C 0.2007(2) 0.66446(19) 0.6943(4)
H9_4 H 0.1902 0.6394 0.6485
C16_6 C 0.2200(2) 0.65744(19) 0.7741(4)
H10_6 H 0.2212 0.6271 0.7832
C17_6 C 0.23715(16) 0.69392(15) 0.8398(3)
C18_6 C 0.23390(15) 0.73753(15) 0.8277(3)
H11_6 H 0.2461 0.7631 0.8725
C19_6 C 0.21261(16) 0.74343(15) 0.7493(3)
H12_6 H 0.2089 0.7725 0.7424
C20_6 C 0.26063(14) 0.68724(14) 0.9229(3)
O5_8 O 1.0000 0.0000 0.3579(4)
O12_6 O 0.85090(13) 0.93101(9) 0.43810(16)
C41_6 C 0.83433(20) 0.94721(14) 0.5009(2)
C42_6 C 0.77818(23) 0.92700(16) 0.5026(3)
C43_6 C 0.7476(4) 0.8917(3) 0.4398(4)
H25_6 H 0.7623 0.8807 0.3953
C44_6 C 0.6951(4) 0.8721(3) 0.4413(4)
H26_6 H 0.6743 0.8481 0.3972
C45_6 C 0.67297(27) 0.88725(19) 0.5059(3)
C46_6 C 0.7038(3) 0.9223(2) 0.5689(3)
H27_6 H 0.6891 0.9332 0.6137
C47_6 C 0.75589(28) 0.9418(2) 0.5673(3)
H28_6 H 0.7767 0.9658 0.6115
C48_6 C 0.61654(25) 0.86336(18) 0.5083(3)
C49_6 C 0.58835(27) 0.85436(19) 0.4301(3)
H29_6 H 0.6054 0.8652 0.3741
C50_6 C 0.53560(27) 0.82965(19) 0.4330(3)
H30_6 H 0.5167 0.8235 0.3793
C51_6 C 0.51063(24) 0.81388(17) 0.5144(3)
H31_6 H 0.4745 0.7970 0.5159
C52_6 C 0.53776(23) 0.82232(17) 0.5945(3)
C53_6 C 0.59091(23) 0.84746(17) 0.5900(3)
H32_6 H 0.6100 0.8538 0.6437
C54_6 C 0.51096(23) 0.80337(17) 0.6807(3)
C55_6 C 0.46380(28) 0.7993(2) 0.6943(4)
H33_6 H 0.4493 0.8098 0.6485
C56_6 C 0.43748(28) 0.7800(2) 0.7741(4)
H34_6 H 0.4060 0.7788 0.7832
C57_6 C 0.45678(22) 0.76285(16) 0.8398(3)
C58_6 C 0.50364(21) 0.76610(15) 0.8277(3)
H35_6 H 0.5171 0.7539 0.8725
C59_6 C 0.53083(22) 0.78739(16) 0.7493(3)
H36_6 H 0.5637 0.7911 0.7424
C60_6 C 0.42662(20) 0.73937(14) 0.9229(3)
O5_9 O 1.0000 0.9999 0.3579(4)
O5_10 O 0.0001 0.0000 0.3579(4)
H9_5 H 0.1432 0.0272 0.0181
H21_5 H 0.9728 0.1159 0.0181
H21_6 H 0.0272 0.8841 0.9819
H9_6 H 0.8568 0.9728 0.9819
loop_
_geom_bond_atom_site_label_1
_geom_bond_atom_site_label_2
_geom_bond_site_symmetry_1
_geom_bond_site_symmetry_2
O14 C60 1_555 1_555
O15 C60 1_555 1_555
C49 C48 1_555 1_555
H29 C49 1_555 1_555
C50 C49 1_555 1_555
H30 C50 1_555 1_555
C51 C50 1_555 1_555
H31 C51 1_555 1_555
C52 C51 1_555 1_555
C53 C48 1_555 1_555
H32 C53 1_555 1_555
C54 C52 1_555 1_555
C55 C54 1_555 1_555
H33 C55 1_555 1_555
C56 C55 1_555 1_555
H34 C56 1_555 1_555
C57 C56 1_555 1_555
C58 C57 1_555 1_555
H35 C58 1_555 1_555
C59 C54 1_555 1_555
H36 C59 1_555 1_555
C60 C57 1_555 1_555
Zr5 O15 1_555 1_555
Zr7 O14 1_555 1_555
C52 C53 1_555 1_555
C58 C59 1_555 1_555
Zr1 O1 1_555 1_555
O1 C1 1_555 1_555
O2 C1 1_555 1_555
O3 C20 1_555 1_555
O4 C20 1_555 1_555
O5 Zr1 1_555 1_555
O6 Zr1 1_555 1_555
C1 C2 1_555 1_555
C2 C3 1_555 1_555
C3 H1 1_555 1_555
C4 C3 1_555 1_555
H2 C4 1_555 1_555
C5 C4 1_555 1_555
C6 C5 1_555 1_555
H3 C6 1_555 1_555
C7 C2 1_555 1_555
H4 C7 1_555 1_555
C8 C5 1_555 1_555
C9 C8 1_555 1_555
H5 C9 1_555 1_555
C10 C9 1_555 1_555
H6 C10 1_555 1_555
C11 C10 1_555 1_555
H7 C11 1_555 1_555
C12 C11 1_555 1_555
C13 C8 1_555 1_555
H8 C13 1_555 1_555
C14 C12 1_555 1_555
C15 C14 1_555 1_555
H9 C15 1_555 1_555
C16 C15 1_555 1_555
H10 C16 1_555 1_555
C17 C16 1_555 1_555
C18 C17 1_555 1_555
H11 C18 1_555 1_555
C19 C14 1_555 1_555
H12 C19 1_555 1_555
C20 C17 1_555 1_555
Zr2 O5 1_555 1_555
O7 Zr2 1_555 1_555
O8 C21 1_555 1_555
O11 Zr2 1_555 1_555
C21 O7 1_555 1_555
C22 C21 1_555 1_555
C23 C22 1_555 1_555
H13 C23 1_555 1_555
C24 C23 1_555 1_555
H14 C24 1_555 1_555
C25 C24 1_555 1_555
C26 C25 1_555 1_555
H15 C26 1_555 1_555
C27 C22 1_555 1_555
H16 C27 1_555 1_555
Zr3 O5 1_555 1_555
O12 Zr3 1_555 1_555
O13 C41 1_555 1_555
O16 Zr3 1_555 1_555
C41 O12 1_555 1_555
C42 C41 1_555 1_555
C43 C42 1_555 1_555
H25 C43 1_555 1_555
C44 C43 1_555 1_555
H26 C44 1_555 1_555
C45 C44 1_555 1_555
C46 C45 1_555 1_555
H27 C46 1_555 1_555
C47 C42 1_555 1_555
H28 C47 1_555 1_555
Zr7 O4 1_555 1_555
Zr9 O3 1_555 1_555
Zr10 O11 1_555 1_555
Zr11 O2 1_555 1_555
Zr12 O6 1_555 1_555
O17 Zr2 1_555 1_555
O18 Zr3 1_555 1_555
O19 Zr1 1_555 1_555
O26 Zr2 1_555 1_555
O27 Zr1 1_555 1_555
O28 Zr1 1_555 1_555
O6 Zr11 1_555 1_555
C6 C7 1_555 1_555
C12 C13 1_555 1_555
C18 C19 1_555 1_555
Zr2 O28 1_555 1_555
O8 Zr12 1_555 1_555
O11 Zr12 1_555 1_555
C26 C27 1_555 1_555
Zr3 O26 1_555 1_555
Zr3 O27 1_555 1_555
O13 Zr10 1_555 1_555
O16 Zr10 1_555 1_555
O16 Zr11 1_555 1_555
C46 C47 1_555 1_555
Zr10 O26 1_555 1_555
Zr11 O27 1_555 1_555
Zr12 O28 1_555 1_555
O9 C40 1_555 1_555
O10 C40 1_555 1_555
C29 C28 1_555 1_555
H17 C29 1_555 1_555
C30 C29 1_555 1_555
H18 C30 1_555 1_555
C31 C30 1_555 1_555
H19 C31 1_555 1_555
C32 C31 1_555 1_555
C33 C28 1_555 1_555
H20 C33 1_555 1_555
C34 C32 1_555 1_555
C35 C34 1_555 1_555
H21 C35 1_555 1_555
C36 C35 1_555 1_555
H22 C36 1_555 1_555
C37 C36 1_555 1_555
C38 C37 1_555 1_555
H23 C38 1_555 1_555
C39 C34 1_555 1_555
H24 C39 1_555 1_555
C40 C37 1_555 1_555
Zr5 O9 1_555 1_555
Zr9 O10 1_555 1_555
C32 C33 1_555 1_555
C38 C39 1_555 1_555
Zr5 O1_2 1_555 1_555
O1_2 C1_2 1_555 1_555
O2_2 C1_2 1_555 1_555
O5_2 Zr5 1_555 1_555
O6_2 Zr5 1_555 1_555
C1_2 C2_2 1_555 1_555
C2_2 C3_2 1_555 1_555
C3_2 H1_2 1_555 1_555
C4_2 C3_2 1_555 1_555
H2_2 C4_2 1_555 1_555
C5_2 C4_2 1_555 1_555
C6_2 C5_2 1_555 1_555
H3_2 C6_2 1_555 1_555
C7_2 C2_2 1_555 1_555
H4_2 C7_2 1_555 1_555
C8_2 C5_2 1_555 1_555
C9_2 C8_2 1_555 1_555
H5_2 C9_2 1_555 1_555
C10_2 C9_2 1_555 1_555
H6_2 C10_2 1_555 1_555
C11_2 C10_2 1_555 1_555
H7_2 C11_2 1_555 1_555
C12_2 C11_2 1_555 1_555
C13_2 C8_2 1_555 1_555
H8_2 C13_2 1_555 1_555
Zr7 O5_2 1_555 1_555
O7_2 Zr7 1_555 1_555
O8_2 C21_2 1_555 1_555
O11_2 Zr7 1_555 1_555
C21_2 O7_2 1_555 1_555
C22_2 C21_2 1_555 1_555
C23_2 C22_2 1_555 1_555
H13_2 C23_2 1_555 1_555
C24_2 C23_2 1_555 1_555
H14_2 C24_2 1_555 1_555
C25_2 C24_2 1_555 1_555
C26_2 C25_2 1_555 1_555
H15_2 C26_2 1_555 1_555
C27_2 C22_2 1_555 1_555
H16_2 C27_2 1_555 1_555
C28_2 C25_2 1_555 1_555
C29_2 C28_2 1_555 1_555
H17_2 C29_2 1_555 1_555
C30_2 C29_2 1_555 1_555
H18_2 C30_2 1_555 1_555
C31_2 C30_2 1_555 1_555
H19_2 C31_2 1_555 1_555
C32_2 C31_2 1_555 1_555
C33_2 C28_2 1_555 1_555
H20_2 C33_2 1_555 1_555
Zr9 O5_2 1_555 1_555
O12_2 Zr9 1_555 1_555
O13_2 C41_2 1_555 1_555
O16_2 Zr9 1_555 1_555
C41_2 O12_2 1_555 1_555
C42_2 C41_2 1_555 1_555
C43_2 C42_2 1_555 1_555
H25_2 C43_2 1_555 1_555
C44_2 C43_2 1_555 1_555
H26_2 C44_2 1_555 1_555
C45_2 C44_2 1_555 1_555
C46_2 C45_2 1_555 1_555
H27_2 C46_2 1_555 1_555
C47_2 C42_2 1_555 1_555
H28_2 C47_2 1_555 1_555
C48_2 C45_2 1_555 1_555
C49_2 C48_2 1_555 1_555
H29_2 C49_2 1_555 1_555
C50_2 C49_2 1_555 1_555
H30_2 C50_2 1_555 1_555
C51_2 C50_2 1_555 1_555
H31_2 C51_2 1_555 1_555
C52_2 C51_2 1_555 1_555
C53_2 C48_2 1_555 1_555
H32_2 C53_2 1_555 1_555
Zr10_2 O11_2 1_555 1_555
Zr11_2 O2_2 1_555 1_555
Zr12_2 O6_2 1_555 1_555
O17_2 Zr7 1_555 1_555
O18_2 Zr9 1_555 1_555
O19_2 Zr5 1_555 1_555
O26_2 Zr7 1_555 1_555
O27_2 Zr5 1_555 1_555
O28_2 Zr5 1_555 1_555
O6_2 Zr11_2 1_555 1_555
C6_2 C7_2 1_555 1_555
C12_2 C13_2 1_555 1_555
Zr7 O28_2 1_555 1_555
O8_2 Zr12_2 1_555 1_555
O11_2 Zr12_2 1_555 1_555
C26_2 C27_2 1_555 1_555
C32_2 C33_2 1_555 1_555
Zr9 O26_2 1_555 1_555
Zr9 O27_2 1_555 1_555
O13_2 Zr10_2 1_555 1_555
O16_2 Zr10_2 1_555 1_555
O16_2 Zr11_2 1_555 1_555
C46_2 C47_2 1_555 1_555
C52_2 C53_2 1_555 1_555
Zr10_2 O26_2 1_555 1_555
Zr11_2 O27_2 1_555 1_555
Zr12_2 O28_2 1_555 1_555
O9_2 C40_2 1_555 1_555
O10_2 C40_2 1_555 1_555
C29_3 C28_3 1_555 1_555
H17_3 C29_3 1_555 1_555
C30_3 C29_3 1_555 1_555
H18_3 C30_3 1_555 1_555
C31_3 C30_3 1_555 1_555
H19_3 C31_3 1_555 1_555
C32_3 C31_3 1_555 1_555
C33_3 C28_3 1_555 1_555
H20_3 C33_3 1_555 1_555
C34_2 C32_3 1_555 1_555
C35_2 C34_2 1_555 1_555
H21_2 C35_2 1_555 1_555
C36_2 C35_2 1_555 1_555
H22_2 C36_2 1_555 1_555
C37_2 C36_2 1_555 1_555
C38_2 C37_2 1_555 1_555
H23_2 C38_2 1_555 1_555
C39_2 C34_2 1_555 1_555
H24_2 C39_2 1_555 1_555
C40_2 C37_2 1_555 1_555
Zr10 O9_2 1_555 1_555
Zr12 O10_2 1_555 1_555
C32_3 C33_3 1_555 1_555
C38_2 C39_2 1_555 1_555
Zr10_2 O1_3 1_555 1_555
O1_3 C1_3 1_555 1_555
O17_2 C1_3 1_555 1_555
O3_2 C20_2 1_555 1_555
O4_2 C20_2 1_555 1_555
O5_3 Zr10_2 1_555 1_555
C1_3 C2_3 1_555 1_555
C2_3 C3_3 1_555 1_555
C3_3 H1_3 1_555 1_555
C4_3 C3_3 1_555 1_555
H2_3 C4_3 1_555 1_555
C5_3 C4_3 1_555 1_555
C6_3 C5_3 1_555 1_555
H3_3 C6_3 1_555 1_555
C7_3 C2_3 1_555 1_555
H4_3 C7_3 1_555 1_555
C8_3 C5_3 1_555 1_555
C9_3 C8_3 1_555 1_555
H5_3 C9_3 1_555 1_555
C10_3 C9_3 1_555 1_555
H6_3 C10_3 1_555 1_555
C11_3 C10_3 1_555 1_555
H7_3 C11_3 1_555 1_555
C12_3 C11_3 1_555 1_555
C13_3 C8_3 1_555 1_555
H8_3 C13_3 1_555 1_555
C14_2 C12_3 1_555 1_555
C15_2 C14_2 1_555 1_555
H9_2 C15_2 1_555 1_555
C16_2 C15_2 1_555 1_555
H10_2 C16_2 1_555 1_555
C17_2 C16_2 1_555 1_555
C18_2 C17_2 1_555 1_555
H11_2 C18_2 1_555 1_555
C19_2 C14_2 1_555 1_555
H12_2 C19_2 1_555 1_555
C20_2 C17_2 1_555 1_555
Zr11_2 O5_3 1_555 1_555
O7_3 Zr11_2 1_555 1_555
O18_2 C21_3 1_555 1_555
C21_3 O7_3 1_555 1_555
C22_3 C21_3 1_555 1_555
C23_3 C22_3 1_555 1_555
H13_3 C23_3 1_555 1_555
C24_3 C23_3 1_555 1_555
H14_3 C24_3 1_555 1_555
C25_3 C24_3 1_555 1_555
C26_3 C25_3 1_555 1_555
H15_3 C26_3 1_555 1_555
C27_3 C22_3 1_555 1_555
H16_3 C27_3 1_555 1_555
Zr12_2 O5_3 1_555 1_555
O12_3 Zr12_2 1_555 1_555
O19_2 C41_3 1_555 1_555
C41_3 O12_3 1_555 1_555
C42_3 C41_3 1_555 1_555
C43_3 C42_3 1_555 1_555
H25_3 C43_3 1_555 1_555
C44_3 C43_3 1_555 1_555
H26_3 C44_3 1_555 1_555
C45_3 C44_3 1_555 1_555
C46_3 C45_3 1_555 1_555
H27_3 C46_3 1_555 1_555
C47_3 C42_3 1_555 1_555
H28_3 C47_3 1_555 1_555
Zr11 O4_2 1_555 1_555
Zr12 O3_2 1_555 1_555
C6_3 C7_3 1_555 1_555
C12_3 C13_3 1_555 1_555
C18_2 C19_2 1_555 1_555
C26_3 C27_3 1_555 1_555
C46_3 C47_3 1_555 1_555
O14_2 C60_2 1_555 1_555
O15_2 C60_2 1_555 1_555
C49_3 C48_3 1_555 1_555
H29_3 C49_3 1_555 1_555
C50_3 C49_3 1_555 1_555
H30_3 C50_3 1_555 1_555
C51_3 C50_3 1_555 1_555
H31_3 C51_3 1_555 1_555
C52_3 C51_3 1_555 1_555
C53_3 C48_3 1_555 1_555
H32_3 C53_3 1_555 1_555
C54_2 C52_3 1_555 1_555
C55_2 C54_2 1_555 1_555
H33_3 C55_2 1_555 1_555
C56_2 C55_2 1_555 1_555
H34_2 C56_2 1_555 1_555
C57_2 C56_2 1_555 1_555
C58_2 C57_2 1_555 1_555
H35_2 C58_2 1_555 1_555
C59_2 C54_2 1_555 1_555
H36_2 C59_2 1_555 1_555
C60_2 C57_2 1_555 1_555
Zr10 O15_2 1_555 1_555
Zr11 O14_2 1_555 1_555
C52_3 C53_3 1_555 1_555
C58_2 C59_2 1_555 1_555
Zr10 O1_4 1_555 1_555
O1_4 C1_4 1_555 1_555
O17 C1_4 1_555 1_555
O5_4 Zr10 1_555 1_555
C1_4 C2_4 1_555 1_555
C2_4 C3_4 1_555 1_555
C3_4 H1_4 1_555 1_555
C4_4 C3_4 1_555 1_555
H2_4 C4_4 1_555 1_555
C5_4 C4_4 1_555 1_555
C6_4 C5_4 1_555 1_555
H3_4 C6_4 1_555 1_555
C7_4 C2_4 1_555 1_555
H4_4 C7_4 1_555 1_555
C8_4 C5_4 1_555 1_555
C9_4 C8_4 1_555 1_555
H5_4 C9_4 1_555 1_555
C10_4 C9_4 1_555 1_555
H6_4 C10_4 1_555 1_555
C11_4 C10_4 1_555 1_555
H7_4 C11_4 1_555 1_555
C12_4 C11_4 1_555 1_555
C13_4 C8_4 1_555 1_555
H8_4 C13_4 1_555 1_555
Zr11 O5_4 1_555 1_555
O7_4 Zr11 1_555 1_555
O18 C21_4 1_555 1_555
C21_4 O7_4 1_555 1_555
C22_4 C21_4 1_555 1_555
C23_4 C22_4 1_555 1_555
H13_4 C23_4 1_555 1_555
C24_4 C23_4 1_555 1_555
H14_4 C24_4 1_555 1_555
C25_4 C24_4 1_555 1_555
C26_4 C25_4 1_555 1_555
H15_4 C26_4 1_555 1_555
C27_4 C22_4 1_555 1_555
H16_4 C27_4 1_555 1_555
C28_4 C25_4 1_555 1_555
C29_4 C28_4 1_555 1_555
H17_4 C29_4 1_555 1_555
C30_4 C29_4 1_555 1_555
H18_4 C30_4 1_555 1_555
C31_4 C30_4 1_555 1_555
H19_4 C31_4 1_555 1_555
C32_4 C31_4 1_555 1_555
C33_4 C28_4 1_555 1_555
H20_4 C33_4 1_555 1_555
Zr12 O5_4 1_555 1_555
O12_4 Zr12 1_555 1_555
O19 C41_4 1_555 1_555
C41_4 O12_4 1_555 1_555
C42_4 C41_4 1_555 1_555
C43_4 C42_4 1_555 1_555
H25_4 C43_4 1_555 1_555
C44_4 C43_4 1_555 1_555
H26_4 C44_4 1_555 1_555
C45_4 C44_4 1_555 1_555
C46_4 C45_4 1_555 1_555
H27_4 C46_4 1_555 1_555
C47_4 C42_4 1_555 1_555
H28_4 C47_4 1_555 1_555
C48_4 C45_4 1_555 1_555
C49_4 C48_4 1_555 1_555
H29_4 C49_4 1_555 1_555
C50_4 C49_4 1_555 1_555
H30_4 C50_4 1_555 1_555
C51_4 C50_4 1_555 1_555
H31_4 C51_4 1_555 1_555
C52_4 C51_4 1_555 1_555
C53_4 C48_4 1_555 1_555
H32_4 C53_4 1_555 1_555
C6_4 C7_4 1_555 1_555
C12_4 C13_4 1_555 1_555
C26_4 C27_4 1_555 1_555
C32_4 C33_4 1_555 1_555
C46_4 C47_4 1_555 1_555
C52_4 C53_4 1_555 1_555
C16_3 C15_3 1_555 1_555
H10_3 C16_3 1_555 1_555
Zr9_2 O3_3 1_555 1_555
O4_3 C20_3 1_555 1_555
C18_3 C17_3 1_555 1_555
H11_3 C18_3 1_555 1_555
C19_3 C14_3 1_555 1_555
H12_3 C19_3 1_555 1_555
C20_3 C17_3 1_555 1_555
O10_3 C40_3 1_555 1_555
C38_3 C37_3 1_555 1_555
H23_3 C38_3 1_555 1_555
C39_3 C34_3 1_555 1_555
H24_3 C39_3 1_555 1_555
C40_3 C37_3 1_555 1_555
O14_3 C60_3 1_555 1_555
O15_3 C60_3 1_555 1_555
C55_3 C54_3 1_555 1_555
C56_3 C55_3 1_555 1_555
H34_3 C56_3 1_555 1_555
C57_3 C56_3 1_555 1_555
C58_3 C57_3 1_555 1_555
H35_3 C58_3 1_555 1_555
C59_3 C54_3 1_555 1_555
H36_3 C59_3 1_555 1_555
C60_3 C57_3 1_555 1_555
Zr7_2 O14_3 1_555 1_555
Zr9_2 O10_3 1_555 1_555
C18_3 C19_3 1_555 1_555
C38_3 C39_3 1_555 1_555
C58_3 C59_3 1_555 1_555
C36_3 C35_3 1_555 1_555
H22_3 C36_3 1_555 1_555
Zr5_2 O9_3 1_555 1_555
O12_5 Zr9_2 1_555 1_555
O13_3 C41_5 1_555 1_555
O22 C60_4 1_555 1_555
O25 C60_4 1_555 1_555
O16_3 Zr9_2 1_555 1_555
C41_5 O12_5 1_555 1_555
C42_5 C41_5 1_555 1_555
C43_5 C42_5 1_555 1_555
H25_5 C43_5 1_555 1_555
C44_5 C43_5 1_555 1_555
H26_5 C44_5 1_555 1_555
C45_5 C44_5 1_555 1_555
C46_5 C45_5 1_555 1_555
H27_5 C46_5 1_555 1_555
C47_5 C42_5 1_555 1_555
H28_5 C47_5 1_555 1_555
C48_5 C45_5 1_555 1_555
C49_5 C48_5 1_555 1_555
H29_5 C49_5 1_555 1_555
C50_5 C49_5 1_555 1_555
H30_5 C50_5 1_555 1_555
C51_5 C50_5 1_555 1_555
H31_5 C51_5 1_555 1_555
C52_5 C51_5 1_555 1_555
C53_5 C48_5 1_555 1_555
H32_5 C53_5 1_555 1_555
C54_4 C52_5 1_555 1_555
C55_4 C54_4 1_555 1_555
H33_5 C55_4 1_555 1_555
C56_4 C55_4 1_555 1_555
H34_4 C56_4 1_555 1_555
C57_4 C56_4 1_555 1_555
C58_4 C57_4 1_555 1_555
H35_4 C58_4 1_555 1_555
C59_4 C54_4 1_555 1_555
H36_4 C59_4 1_555 1_555
C60_4 C57_4 1_555 1_555
O18_3 Zr9_2 1_555 1_555
Zr9_2 O27_3 1_555 1_555
O16_3 Zr11_3 1_555 1_555
C46_5 C47_5 1_555 1_555
C52_5 C53_5 1_555 1_555
C58_4 C59_4 1_555 1_555
Zr11_3 O27_3 1_555 1_555
Zr10_3 O26_3 1_555 1_555
Zr5_2 O1_5 1_555 1_555
O1_5 C1_5 1_555 1_555
O2_3 C1_5 1_555 1_555
O20 C20_4 1_555 1_555
O23 C20_4 1_555 1_555
O6_3 Zr5_2 1_555 1_555
C1_5 C2_5 1_555 1_555
C2_5 C3_5 1_555 1_555
C3_5 H1_5 1_555 1_555
C4_5 C3_5 1_555 1_555
H2_5 C4_5 1_555 1_555
C5_5 C4_5 1_555 1_555
C6_5 C5_5 1_555 1_555
H3_5 C6_5 1_555 1_555
C7_5 C2_5 1_555 1_555
H4_5 C7_5 1_555 1_555
C8_5 C5_5 1_555 1_555
C9_5 C8_5 1_555 1_555
H5_5 C9_5 1_555 1_555
C10_5 C9_5 1_555 1_555
H6_5 C10_5 1_555 1_555
C11_5 C10_5 1_555 1_555
H7_5 C11_5 1_555 1_555
C12_5 C11_5 1_555 1_555
C13_5 C8_5 1_555 1_555
H8_5 C13_5 1_555 1_555
C14_4 C12_5 1_555 1_555
C15_4 C14_4 1_555 1_555
H9_3 C15_4 1_555 1_555
C16_4 C15_4 1_555 1_555
H10_4 C16_4 1_555 1_555
C17_4 C16_4 1_555 1_555
C18_4 C17_4 1_555 1_555
H11_4 C18_4 1_555 1_555
C19_4 C14_4 1_555 1_555
H12_4 C19_4 1_555 1_555
C20_4 C17_4 1_555 1_555
C6_5 C7_5 1_555 1_555
C12_5 C13_5 1_555 1_555
C18_4 C19_4 1_555 1_555
O7_5 Zr7_2 1_555 1_555
O8_3 C21_5 1_555 1_555
O21 C40_4 1_555 1_555
O24 C40_4 1_555 1_555
O11_3 Zr7_2 1_555 1_555
C21_5 O7_5 1_555 1_555
C22_5 C21_5 1_555 1_555
C23_5 C22_5 1_555 1_555
H13_5 C23_5 1_555 1_555
C24_5 C23_5 1_555 1_555
H14_5 C24_5 1_555 1_555
C25_5 C24_5 1_555 1_555
C26_5 C25_5 1_555 1_555
H15_5 C26_5 1_555 1_555
C27_5 C22_5 1_555 1_555
H16_5 C27_5 1_555 1_555
C28_5 C25_5 1_555 1_555
C29_5 C28_5 1_555 1_555
H17_5 C29_5 1_555 1_555
C30_5 C29_5 1_555 1_555
H18_5 C30_5 1_555 1_555
C31_5 C30_5 1_555 1_555
H19_5 C31_5 1_555 1_555
C32_5 C31_5 1_555 1_555
C33_5 C28_5 1_555 1_555
H20_5 C33_5 1_555 1_555
C34_4 C32_5 1_555 1_555
C35_4 C34_4 1_555 1_555
H21_3 C35_4 1_555 1_555
C36_4 C35_4 1_555 1_555
H22_4 C36_4 1_555 1_555
C37_4 C36_4 1_555 1_555
C38_4 C37_4 1_555 1_555
H23_4 C38_4 1_555 1_555
C39_4 C34_4 1_555 1_555
H24_4 C39_4 1_555 1_555
C40_4 C37_4 1_555 1_555
Zr7_2 O28_3 1_555 1_555
O8_3 Zr12_3 1_555 1_555
O11_3 Zr12_3 1_555 1_555
C26_5 C27_5 1_555 1_555
C32_5 C33_5 1_555 1_555
C38_4 C39_4 1_555 1_555
Zr12_3 O28_3 1_555 1_555
Zr9_2 O5_6 1_555 1_555
Zr7_2 O5_7 1_555 1_555
C36_5 C35_5 1_555 1_555
H22_5 C36_5 1_555 1_555
Zr10_3 O9_4 1_555 1_555
O4_4 C20_5 1_555 1_555
C18_5 C17_5 1_555 1_555
H11_5 C18_5 1_555 1_555
C19_5 C14_5 1_555 1_555
H12_5 C19_5 1_555 1_555
C20_5 C17_5 1_555 1_555
O10_4 C40_5 1_555 1_555
C38_5 C37_5 1_555 1_555
H23_5 C38_5 1_555 1_555
C39_5 C34_5 1_555 1_555
H24_5 C39_5 1_555 1_555
C40_5 C37_5 1_555 1_555
O14_4 C60_5 1_555 1_555
O15_4 C60_5 1_555 1_555
C55_5 C54_5 1_555 1_555
C56_5 C55_5 1_555 1_555
H34_5 C56_5 1_555 1_555
C57_5 C56_5 1_555 1_555
C58_5 C57_5 1_555 1_555
H35_5 C58_5 1_555 1_555
C59_5 C54_5 1_555 1_555
H36_5 C59_5 1_555 1_555
C60_5 C57_5 1_555 1_555
Zr11_3 O14_4 1_555 1_555
Zr12_3 O10_4 1_555 1_555
C18_5 C19_5 1_555 1_555
C38_5 C39_5 1_555 1_555
C58_5 C59_5 1_555 1_555
C16_5 C15_5 1_555 1_555
H10_5 C16_5 1_555 1_555
Zr12_3 O3_4 1_555 1_555
O7_6 Zr11_3 1_555 1_555
O18_3 C21_6 1_555 1_555
O21_2 C40_6 1_555 1_555
O24_2 C40_6 1_555 1_555
C21_6 O7_6 1_555 1_555
C22_6 C21_6 1_555 1_555
C23_6 C22_6 1_555 1_555
H13_6 C23_6 1_555 1_555
C24_6 C23_6 1_555 1_555
H14_6 C24_6 1_555 1_555
C25_6 C24_6 1_555 1_555
C26_6 C25_6 1_555 1_555
H15_6 C26_6 1_555 1_555
C27_6 C22_6 1_555 1_555
H16_6 C27_6 1_555 1_555
C28_6 C25_6 1_555 1_555
C29_6 C28_6 1_555 1_555
H17_6 C29_6 1_555 1_555
C30_6 C29_6 1_555 1_555
H18_6 C30_6 1_555 1_555
C31_6 C30_6 1_555 1_555
H19_6 C31_6 1_555 1_555
C32_6 C31_6 1_555 1_555
C33_6 C28_6 1_555 1_555
H20_6 C33_6 1_555 1_555
C34_6 C32_6 1_555 1_555
C35_6 C34_6 1_555 1_555
H21_4 C35_6 1_555 1_555
C36_6 C35_6 1_555 1_555
H22_6 C36_6 1_555 1_555
C37_6 C36_6 1_555 1_555
C38_6 C37_6 1_555 1_555
H23_6 C38_6 1_555 1_555
C39_6 C34_6 1_555 1_555
H24_6 C39_6 1_555 1_555
C40_6 C37_6 1_555 1_555
C26_6 C27_6 1_555 1_555
C32_6 C33_6 1_555 1_555
C38_6 C39_6 1_555 1_555
Zr10_3 O1_6 1_555 1_555
O1_6 C1_6 1_555 1_555
O17_3 C1_6 1_555 1_555
O20_2 C20_6 1_555 1_555
O23_2 C20_6 1_555 1_555
C1_6 C2_6 1_555 1_555
C2_6 C3_6 1_555 1_555
C3_6 H1_6 1_555 1_555
C4_6 C3_6 1_555 1_555
H2_6 C4_6 1_555 1_555
C5_6 C4_6 1_555 1_555
C6_6 C5_6 1_555 1_555
H3_6 C6_6 1_555 1_555
C7_6 C2_6 1_555 1_555
H4_6 C7_6 1_555 1_555
C8_6 C5_6 1_555 1_555
C9_6 C8_6 1_555 1_555
H5_6 C9_6 1_555 1_555
C10_6 C9_6 1_555 1_555
H6_6 C10_6 1_555 1_555
C11_6 C10_6 1_555 1_555
H7_6 C11_6 1_555 1_555
C12_6 C11_6 1_555 1_555
C13_6 C8_6 1_555 1_555
H8_6 C13_6 1_555 1_555
C14_6 C12_6 1_555 1_555
C15_6 C14_6 1_555 1_555
H9_4 C15_6 1_555 1_555
C16_6 C15_6 1_555 1_555
H10_6 C16_6 1_555 1_555
C17_6 C16_6 1_555 1_555
C18_6 C17_6 1_555 1_555
H11_6 C18_6 1_555 1_555
C19_6 C14_6 1_555 1_555
H12_6 C19_6 1_555 1_555
C20_6 C17_6 1_555 1_555
C6_6 C7_6 1_555 1_555
C12_6 C13_6 1_555 1_555
C18_6 C19_6 1_555 1_555
O12_6 Zr12_3 1_555 1_555
O19_3 C41_6 1_555 1_555
O22_2 C60_6 1_555 1_555
O25_2 C60_6 1_555 1_555
C41_6 O12_6 1_555 1_555
C42_6 C41_6 1_555 1_555
C43_6 C42_6 1_555 1_555
H25_6 C43_6 1_555 1_555
C44_6 C43_6 1_555 1_555
H26_6 C44_6 1_555 1_555
C45_6 C44_6 1_555 1_555
C46_6 C45_6 1_555 1_555
H27_6 C46_6 1_555 1_555
C47_6 C42_6 1_555 1_555
H28_6 C47_6 1_555 1_555
C48_6 C45_6 1_555 1_555
C49_6 C48_6 1_555 1_555
H29_6 C49_6 1_555 1_555
C50_6 C49_6 1_555 1_555
H30_6 C50_6 1_555 1_555
C51_6 C50_6 1_555 1_555
H31_6 C51_6 1_555 1_555
C52_6 C51_6 1_555 1_555
C53_6 C48_6 1_555 1_555
H32_6 C53_6 1_555 1_555
C54_6 C52_6 1_555 1_555
C55_6 C54_6 1_555 1_555
H33_6 C55_6 1_555 1_555
C56_6 C55_6 1_555 1_555
H34_6 C56_6 1_555 1_555
C57_6 C56_6 1_555 1_555
C58_6 C57_6 1_555 1_555
H35_6 C58_6 1_555 1_555
C59_6 C54_6 1_555 1_555
H36_6 C59_6 1_555 1_555
C60_6 C57_6 1_555 1_555
C46_6 C47_6 1_555 1_555
C52_6 C53_6 1_555 1_555
C58_6 C59_6 1_555 1_555
Zr12_3 O5_9 1_555 1_555
Zr11_3 O5_10 1_555 1_555

#END
