
###############################################################################
#
# This file contains modified crystal structure data generated from the
# MOF subset of the Cambridge Structural Database (CSD) v543 
# hosted by the Cambridge Crystallographic Data Centre (CCDC).
#
# This work is licensed under the Creative Commons
# Attribution-NonCommercial-ShareAlike 4.0 International License.
# To view a copy of this license, visit
# http://creativecommons.org/licenses/by-nc-sa/4.0/
# or send a letter to
# Creative Commons, PO Box 1866, Mountain View, CA 94042, USA.
#
# CIF created using the CSD Python API on 29 September 2022
# The structure has been converted into the P1 space group
# The structure has a 3D framework
# The original CSD entry BIKNOB is in the rhombohedral crystal system
# The framework has been calculated to contain at least 10.0% void space
# The void calculation uses a probe of radius 1.32A, grid spacing 0.4
#
###############################################################################

data_BIKNOB
_chemical_formula_moiety         '(C432 H252 O90 Zr18)n'
_symmetry_cell_setting           triclinic
_symmetry_space_group_name_H-M   'P 1'
_symmetry_Int_Tables_number      1
_space_group_name_Hall           'P 1'
loop_
_symmetry_equiv_pos_site_id
_symmetry_equiv_pos_as_xyz
1 x,y,z
_cell_length_a                   34.3618(9)
_cell_length_b                   34.3618(9)
_cell_length_c                   15.0065(6)
_cell_angle_alpha                90
_cell_angle_beta                 90
_cell_angle_gamma                120
_cell_volume                     15344.8
loop_
_atom_site_label
_atom_site_type_symbol
_atom_site_fract_x
_atom_site_fract_y
_atom_site_fract_z
O2 O 0.13199(11) 0.06691(12) 0.0653(2)
C1 C 0.14719(16) 0.09812(18) 0.0063(3)
C2 C 0.19598(17) 0.13275(19) 0.0165(3)
C5 C 0.28692(18) 0.1949(2) 0.0335(4)
C6 C 0.26439(18) 0.1632(2) 0.0990(4)
H3 H 0.2803 0.1627 0.1505
C7 C 0.21900(19) 0.1321(2) 0.0910(4)
H4 H 0.2039 0.1105 0.1365
C8 C 0.33635(19) 0.2253(2) 0.0396(4)
C11 C 0.43142(19) 0.2780(2) 0.0505(4)
C12 C 0.4045(2) 0.2696(2) 0.1266(4)
H6 H 0.4184 0.2817 0.1825
C13 C 0.3584(2) 0.2440(2) 0.1214(4)
H7 H 0.3410 0.2388 0.1738
C17 C 0.4797(2) 0.3031(3) 0.0517(5)
H10 H 0.4951 0.3149 0.1063
Zr5 Zr 0.06365(2) 0.01153(3) 0.09476(3)
O27 O 0.05206(17) 0.06344(22) 0.0474(4)
O26 O 0.01138(14) 0.94794(17) 0.0474(4)
O8 O 0.93309(12) 0.06508(16) 0.0653(2)
C25 C 0.90188(18) 0.04907(24) 0.0063(3)
C26 C 0.86725(19) 0.06323(25) 0.0165(3)
C29 C 0.8051(2) 0.09202(27) 0.0335(4)
C30 C 0.8368(2) 0.10119(27) 0.0990(4)
H17 H 0.8373 0.1176 0.1505
C31 C 0.8679(2) 0.08690(28) 0.0910(4)
H18 H 0.8895 0.0934 0.1365
C32 C 0.7747(2) 0.11105(28) 0.0396(4)
C35 C 0.7220(2) 0.15342(28) 0.0505(4)
C36 C 0.7304(2) 0.1349(3) 0.1266(4)
H20 H 0.7183 0.1367 0.1825
C37 C 0.7560(2) 0.1144(3) 0.1214(4)
H21 H 0.7612 0.1022 0.1738
C41 C 0.6969(3) 0.1766(4) 0.0517(5)
H24 H 0.6851 0.1802 0.1063
Zr6 Zr 0.98847(3) 0.05212(2) 0.09476(3)
O13 O 0.93492(16) 0.86801(11) 0.0653(2)
C49 C 0.95093(24) 0.85281(16) 0.0063(3)
C50 C 0.93677(25) 0.80402(17) 0.0165(3)
C53 C 0.90798(27) 0.71308(18) 0.0335(4)
C54 C 0.89881(27) 0.73561(18) 0.0990(4)
H31 H 0.8824 0.7197 0.1505
C55 C 0.91310(28) 0.78100(19) 0.0910(4)
H32 H 0.9066 0.7961 0.1365
C56 C 0.88895(28) 0.66365(19) 0.0396(4)
C59 C 0.84658(28) 0.56858(19) 0.0505(4)
C60 C 0.8651(3) 0.5955(2) 0.1266(4)
H34 H 0.8633 0.5816 0.1825
C61 C 0.8856(3) 0.6416(2) 0.1214(4)
H35 H 0.8978 0.6590 0.1738
C65 C 0.8234(4) 0.5203(2) 0.0517(5)
H38 H 0.8198 0.5049 0.1063
Zr4 Zr 0.94788(2) 0.93635(2) 0.09476(3)
O28 O 0.93656(22) 0.98862(14) 0.0474(4)
O3 O 0.27691(12) 0.69092(12) 0.8801(2)
O4 O 0.24779(12) 0.61515(12) 0.8750(2)
H12 H 0.1743 0.5821 0.9598
C21 C 0.22414(19) 0.6456(2) 0.9878(4)
C24 C 0.25186(17) 0.65098(18) 0.9079(4)
Zr8 Zr 0.28121(2) 0.60302(2) 0.76143(3)
Zr12 Zr 0.32180(3) 0.71879(2) 0.76143(3)
O9 O 0.30908(12) 0.58598(17) 0.8801(2)
O10 O 0.38485(12) 0.63263(17) 0.8750(2)
H26 H 0.4179 0.5921 0.9598
C45 C 0.3544(2) 0.57850(28) 0.9878(4)
C48 C 0.34902(18) 0.60087(25) 0.9079(4)
Zr10 Zr 0.39698(2) 0.67820(3) 0.76143(3)
O14 O 0.41402(17) 0.72309(12) 0.8801(2)
O15 O 0.36737(17) 0.75221(12) 0.8750(2)
H40 H 0.4079 0.8257 0.9598
C69 C 0.42150(28) 0.77586(19) 0.9878(4)
C72 C 0.39913(25) 0.74814(17) 0.9079(4)
O3_2 O 0.94357(12) 0.02426(12) 0.2135(2)
C22 C 0.9053(3) 0.0128(3) 0.3821(7)
H13 H 0.9323 0.0404 0.3723
C23 C 0.8799(3) 0.0063(3) 0.4596(7)
H14 H 0.8900 0.0299 0.5021
Zr1 Zr 0.38545(2) 0.73032(2) 0.57191(3)
O1 O 0.45878(11) 0.76911(12) 0.6073(2)
O2_2 O 0.46532(11) 0.73358(12) 0.7320(2)
O4_2 O 0.91445(12) 0.94849(12) 0.2084(2)
O5 O 0.3333 0.6667 0.5272(4)
O6 O 0.32195(14) 0.71873(17) 0.6193(4)
C1_2 C 0.48052(16) 0.76479(18) 0.6730(3)
C2_2 C 0.52931(17) 0.79942(19) 0.6832(3)
C3 C 0.5502(2) 0.8316(2) 0.6178(4)
H1 H 0.5339 0.8327 0.5677
C4 C 0.5963(2) 0.8627(2) 0.6270(4)
H2 H 0.6112 0.8849 0.5822
C5_2 C 0.62025(18) 0.8616(2) 0.7002(4)
C6_2 C 0.59772(18) 0.8299(2) 0.7657(4)
H3_2 H 0.6136 0.8294 0.8172
C7_2 C 0.55233(19) 0.7988(2) 0.7577(4)
H4_2 H 0.5372 0.7772 0.8032
C8_2 C 0.66968(19) 0.8920(2) 0.7063(4)
C9 C 0.69528(19) 0.9014(2) 0.6295(4)
H5 H 0.6808 0.8902 0.5738
C10 C 0.74277(19) 0.9274(2) 0.6332(4)
C11_2 C 0.76475(19) 0.9447(2) 0.7172(4)
C12_2 C 0.7378(2) 0.9363(2) 0.7933(4)
H6_2 H 0.7517 0.9484 0.8492
C13_2 C 0.6917(2) 0.9107(2) 0.7881(4)
H7_2 H 0.6743 0.9055 0.8405
C14 C 0.76845(19) 0.9354(2) 0.5555(4)
H8 H 0.7538 0.9243 0.4999
C15 C 0.8148(2) 0.9595(2) 0.5591(5)
C16 C 0.8365(2) 0.9766(2) 0.6423(5)
H9 H 0.8684 0.9933 0.6444
C17_2 C 0.8130(2) 0.9698(3) 0.7184(5)
H10_2 H 0.8284 0.9816 0.7730
C18 C 0.8404(2) 0.9666(2) 0.4757(5)
C19 C 0.82612(17) 0.93361(18) 0.4125(4)
H11 H 0.7985 0.9064 0.4212
C20 C 0.85115(17) 0.93912(17) 0.3357(4)
H12_2 H 0.8409 0.9155 0.2932
C21_2 C 0.89080(19) 0.9790(2) 0.3212(4)
C24_2 C 0.91852(17) 0.98432(18) 0.2413(4)
Zr2 Zr 0.26968(2) 0.65514(3) 0.57191(3)
O7 O 0.23089(12) 0.68968(16) 0.6073(2)
O8_2 O 0.26642(12) 0.73175(16) 0.7320(2)
O10_2 O 0.05151(12) 0.96597(17) 0.2084(2)
O11 O 0.28127(17) 0.60323(22) 0.6193(4)
C25_2 C 0.23521(18) 0.71574(24) 0.6730(3)
C26_2 C 0.20058(19) 0.72990(25) 0.6832(3)
C27 C 0.1684(2) 0.7187(3) 0.6178(4)
H15 H 0.1673 0.7013 0.5677
C28 C 0.1373(2) 0.7337(3) 0.6270(4)
H16 H 0.1151 0.7264 0.5822
C29_2 C 0.1384(2) 0.75869(27) 0.7002(4)
C30_2 C 0.1701(2) 0.76786(27) 0.7657(4)
H17_2 H 0.1706 0.7843 0.8172
C31_2 C 0.2012(2) 0.75357(28) 0.7577(4)
H18_2 H 0.2228 0.7601 0.8032
C32_2 C 0.1080(2) 0.77772(28) 0.7063(4)
C33 C 0.0986(2) 0.79392(28) 0.6295(4)
H19 H 0.1098 0.7907 0.5738
C34 C 0.0726(2) 0.81541(28) 0.6332(4)
C35_2 C 0.0553(2) 0.82009(28) 0.7172(4)
C36_2 C 0.0637(2) 0.8016(3) 0.7933(4)
H20_2 H 0.0516 0.8034 0.8492
C37_2 C 0.0893(2) 0.7811(3) 0.7881(4)
H21_2 H 0.0945 0.7689 0.8405
C38 C 0.0646(2) 0.83309(28) 0.5555(4)
H22 H 0.0757 0.8296 0.4999
C39 C 0.0405(2) 0.8554(3) 0.5591(5)
C40 C 0.0234(2) 0.8600(3) 0.6423(5)
H23 H 0.0067 0.8752 0.6444
C41_2 C 0.0302(3) 0.8433(4) 0.7184(5)
H24_2 H 0.0184 0.8469 0.7730
C42 C 0.0334(2) 0.8739(3) 0.4757(5)
C43 C 0.06639(18) 0.89252(25) 0.4125(4)
H25 H 0.0936 0.8922 0.4212
C44 C 0.06088(17) 0.91204(24) 0.3357(4)
H26_2 H 0.0845 0.9255 0.2932
C45_2 C 0.0210(2) 0.91184(28) 0.3212(4)
C48_2 C 0.01568(18) 0.93421(25) 0.2413(4)
Zr3 Zr 0.34486(3) 0.61455(2) 0.57191(3)
O12 O 0.31032(16) 0.54122(11) 0.6073(2)
O13_2 O 0.26825(16) 0.53468(11) 0.7320(2)
O14_2 O 0.08068(17) 0.05643(12) 0.2135(2)
O15_2 O 0.03403(17) 0.08555(12) 0.2084(2)
O16 O 0.39677(22) 0.67805(14) 0.6193(4)
C49_2 C 0.28426(24) 0.51948(16) 0.6730(3)
C50_2 C 0.27010(25) 0.47069(17) 0.6832(3)
C51 C 0.2813(3) 0.4498(2) 0.6178(4)
H29 H 0.2987 0.4661 0.5677
C52 C 0.2663(3) 0.4037(2) 0.6270(4)
H30 H 0.2736 0.3888 0.5822
C53_2 C 0.24131(27) 0.37975(18) 0.7002(4)
C54_2 C 0.23214(27) 0.40228(18) 0.7657(4)
H31_2 H 0.2157 0.3864 0.8172
C55_2 C 0.24643(28) 0.44767(19) 0.7577(4)
H32_2 H 0.2399 0.4628 0.8032
C56_2 C 0.22228(28) 0.33032(19) 0.7063(4)
C57 C 0.20608(28) 0.30472(19) 0.6295(4)
H33 H 0.2093 0.3192 0.5738
C58 C 0.18459(28) 0.25723(19) 0.6332(4)
C59_2 C 0.17991(28) 0.23525(19) 0.7172(4)
C60_2 C 0.1984(3) 0.2622(2) 0.7933(4)
H34_2 H 0.1966 0.2483 0.8492
C61_2 C 0.2189(3) 0.3083(2) 0.7881(4)
H35_2 H 0.2311 0.3257 0.8405
C62 C 0.16691(28) 0.23155(19) 0.5555(4)
H36 H 0.1704 0.2462 0.4999
C63 C 0.1446(3) 0.1852(2) 0.5591(5)
C64 C 0.1400(3) 0.1635(2) 0.6423(5)
H37 H 0.1248 0.1316 0.6444
C65_2 C 0.1567(4) 0.1870(2) 0.7184(5)
H38_2 H 0.1531 0.1716 0.7730
C66 C 0.1261(3) 0.1596(2) 0.4757(5)
C67 C 0.10748(25) 0.17388(17) 0.4125(4)
H39 H 0.1078 0.2015 0.4212
C68 C 0.08796(24) 0.14885(17) 0.3357(4)
H40_2 H 0.0745 0.1591 0.2932
C69_2 C 0.08816(28) 0.10920(19) 0.3212(4)
C70 C 0.1074(4) 0.0947(3) 0.3821(7)
H41 H 0.1080 0.0677 0.3723
C71 C 0.1263(4) 0.1201(3) 0.4596(7)
H42 H 0.1398 0.1100 0.5021
C72_2 C 0.06579(25) 0.08148(17) 0.2413(4)
O17 O 0.20134(11) 0.59976(12) 0.6014(2)
O18 O 0.40024(12) 0.60159(16) 0.6014(2)
O19 O 0.39841(16) 0.79866(11) 0.6014(2)
O20 O 0.38976(12) 0.64241(12) 0.4532(2)
O21 O 0.35759(12) 0.74735(17) 0.4532(2)
O22 O 0.25265(17) 0.61024(12) 0.4532(2)
O23 O 0.41888(12) 0.71818(12) 0.4583(2)
O24 O 0.28182(12) 0.70070(17) 0.4583(2)
O25 O 0.29930(17) 0.58112(12) 0.4583(2)
O26_2 O 0.34471(14) 0.61461(17) 0.7141(4)
O27_2 O 0.38539(17) 0.73011(22) 0.7141(4)
O28_2 O 0.26989(22) 0.65529(14) 0.7141(4)
O9_2 O 0.97574(12) 0.91932(17) 0.2135(2)
C46 C 0.9872(3) 0.8926(4) 0.3821(7)
H27 H 0.9596 0.8920 0.3723
C47 C 0.9937(3) 0.8737(4) 0.4596(7)
H28 H 0.9701 0.8602 0.5021
O5_2 O -0.0000 0.0000 0.1395(4)
O12_2 O 0.02301(16) 0.12545(11) 0.0594(2)
C51_2 C 0.0520(3) 0.2169(2) 0.0489(4)
H29_2 H 0.0346 0.2006 0.0990
C52_2 C 0.0670(3) 0.2630(2) 0.0397(4)
H30_2 H 0.0597 0.2779 0.0845
C57_2 C 0.12725(28) 0.36195(19) 0.0372(4)
H33_2 H 0.1240 0.3475 0.0929
C58_2 C 0.14874(28) 0.40944(19) 0.0335(4)
C62_2 C 0.16642(28) 0.43512(19) 0.1112(4)
H36_2 H 0.1629 0.4205 0.1668
C63_2 C 0.1887(3) 0.4815(2) 0.1076(5)
C64_2 C 0.1933(3) 0.5032(2) 0.0244(5)
H37_2 H 0.2085 0.5351 0.0223
C66_2 C 0.2072(3) 0.5071(2) 0.1910(5)
C67_2 C 0.22585(25) 0.49279(17) 0.2542(4)
H39_2 H 0.2255 0.4652 0.2455
C68_2 C 0.24537(24) 0.51782(17) 0.3310(4)
H40_3 H 0.2588 0.5076 0.3735
C69_3 C 0.24517(28) 0.55747(19) 0.3455(4)
C70_2 C 0.2259(4) 0.5720(3) 0.2846(7)
H41_2 H 0.2253 0.5990 0.2944
C71_2 C 0.2070(4) 0.5466(3) 0.2071(7)
H42_2 H 0.1935 0.5567 0.1646
C72_3 C 0.26754(25) 0.58519(17) 0.4254(4)
O5_3 O -0.0000 1.0000 0.1395(4)
O7_2 O 0.10244(12) 0.97699(16) 0.0594(2)
C27_2 C 0.1649(2) 0.9480(3) 0.0489(4)
H15_2 H 0.1660 0.9654 0.0990
C28_2 C 0.1960(2) 0.9330(3) 0.0397(4)
H16_2 H 0.2182 0.9403 0.0845
C33_2 C 0.2347(2) 0.87275(28) 0.0372(4)
H19_2 H 0.2235 0.8760 0.0929
C34_2 C 0.2607(2) 0.85126(28) 0.0335(4)
C38_2 C 0.2687(2) 0.83358(28) 0.1112(4)
H22_2 H 0.2576 0.8371 0.1668
C39_2 C 0.2928(2) 0.8113(3) 0.1076(5)
C40_2 C 0.3099(2) 0.8067(3) 0.0244(5)
H23_2 H 0.3266 0.7915 0.0223
C42_2 C 0.2999(2) 0.7928(3) 0.1910(5)
C43_2 C 0.26694(18) 0.77415(25) 0.2542(4)
H25_2 H 0.2397 0.7745 0.2455
C44_2 C 0.27245(17) 0.75463(24) 0.3310(4)
H26_3 H 0.2488 0.7412 0.3735
C45_3 C 0.3123(2) 0.75483(28) 0.3455(4)
C46_2 C 0.3461(3) 0.7741(4) 0.2846(7)
H27_2 H 0.3737 0.7747 0.2944
C47_2 C 0.3396(3) 0.7930(4) 0.2071(7)
H28_2 H 0.3632 0.8065 0.1646
C48_3 C 0.31765(18) 0.73246(25) 0.4254(4)
O5_4 O 1.0000 0.0000 0.1395(4)
O1_2 O 0.87455(11) 0.89756(12) 0.0594(2)
O5_5 O 1.0000 1.0000 0.1395(4)
C3_2 C 0.7831(2) 0.8351(2) 0.0489(4)
H1_2 H 0.7994 0.8340 0.0990
C4_2 C 0.7370(2) 0.8040(2) 0.0397(4)
H2_2 H 0.7221 0.7818 0.0845
C9_2 C 0.63805(19) 0.7653(2) 0.0372(4)
H5_2 H 0.6525 0.7765 0.0929
C10_2 C 0.59056(19) 0.7393(2) 0.0335(4)
C14_2 C 0.56488(19) 0.7313(2) 0.1112(4)
H8_2 H 0.5795 0.7424 0.1668
C15_2 C 0.5185(2) 0.7072(2) 0.1076(5)
C16_2 C 0.4968(2) 0.6901(2) 0.0244(5)
H9_2 H 0.4649 0.6734 0.0223
C18_2 C 0.4929(2) 0.7001(2) 0.1910(5)
C19_2 C 0.50721(17) 0.73306(18) 0.2542(4)
H11_2 H 0.5348 0.7603 0.2455
C20_2 C 0.48218(17) 0.72755(17) 0.3310(4)
H12_3 H 0.4924 0.7512 0.3735
C21_3 C 0.44253(19) 0.6877(2) 0.3455(4)
C22_2 C 0.4280(3) 0.6539(3) 0.2846(7)
H13_2 H 0.4010 0.6263 0.2944
C23_2 C 0.4534(3) 0.6604(3) 0.2071(7)
H14_2 H 0.4433 0.6368 0.1646
C24_3 C 0.41481(17) 0.68235(18) 0.4254(4)
O1_3 O 0.20788(11) 0.56423(12) 0.7261(2)
O5_6 O 0.3333 0.6667 0.8062(4)
C1_3 C 0.18614(16) 0.56855(18) 0.6604(3)
C2_3 C 0.13735(17) 0.53392(19) 0.6502(3)
C3_3 C 0.1164(2) 0.5018(2) 0.7156(4)
H1_3 H 0.1327 0.5007 0.7657
C4_3 C 0.0703(2) 0.4707(2) 0.7064(4)
H2_3 H 0.0554 0.4485 0.7512
C5_3 C 0.04641(18) 0.4718(2) 0.6332(4)
C6_3 C 0.06894(18) 0.5035(2) 0.5677(4)
H3_3 H 0.0530 0.5040 0.5162
C7_3 C 0.11433(19) 0.5346(2) 0.5757(4)
H4_3 H 0.1294 0.5562 0.5302
O7_3 O 0.43577(12) 0.64366(16) 0.7261(2)
C25_3 C 0.43145(18) 0.61760(24) 0.6604(3)
C26_3 C 0.46608(19) 0.60344(25) 0.6502(3)
C27_3 C 0.4982(2) 0.6147(3) 0.7156(4)
H15_3 H 0.4993 0.6321 0.7657
C28_3 C 0.5293(2) 0.5997(3) 0.7064(4)
H16_3 H 0.5515 0.6070 0.7512
C29_3 C 0.5282(2) 0.57465(27) 0.6332(4)
C30_3 C 0.4965(2) 0.56548(27) 0.5677(4)
H17_3 H 0.4960 0.5491 0.5162
C31_3 C 0.4654(2) 0.57977(28) 0.5757(4)
H18_3 H 0.4438 0.5733 0.5302
C32_3 C 0.5586(2) 0.55562(28) 0.6271(4)
C33_3 C 0.5680(2) 0.53942(28) 0.7039(4)
H19_3 H 0.5568 0.5427 0.7596
C34_3 C 0.5940(2) 0.51793(28) 0.7002(4)
C35_3 C 0.6113(2) 0.51325(28) 0.6162(4)
C36_3 C 0.6029(2) 0.5318(3) 0.5401(4)
H20_3 H 0.6150 0.5300 0.4842
C37_3 C 0.5773(2) 0.5523(3) 0.5453(4)
H21_3 H 0.5721 0.5645 0.4929
C38_3 C 0.6020(2) 0.50025(28) 0.7779(4)
H22_3 H 0.5909 0.5038 0.8335
C39_3 C 0.6261(2) 0.4780(3) 0.7743(5)
C40_3 C 0.6432(2) 0.4734(3) 0.6911(5)
H23_3 H 0.6599 0.4582 0.6890
C41_3 C 0.6364(3) 0.4901(4) 0.6150(5)
H24_3 H 0.6482 0.4865 0.5604
C42_3 C 0.6332(2) 0.4595(3) 0.8577(5)
C43_3 C 0.60027(18) 0.44082(25) 0.9209(4)
H25_3 H 0.5730 0.4412 0.9122
C44_3 C 0.60578(17) 0.42130(24) 0.9977(4)
C46_3 C 0.6794(3) 0.4408(4) 0.9513(7)
H27_3 H 0.7070 0.4414 0.9611
C47_3 C 0.6729(3) 0.4597(4) 0.8738(7)
H28_3 H 0.6965 0.4732 0.8313
O12_3 O 0.35634(16) 0.79212(11) 0.7261(2)
C49_3 C 0.38240(24) 0.81386(16) 0.6604(3)
C50_3 C 0.39656(25) 0.86265(17) 0.6502(3)
C51_3 C 0.3853(3) 0.8836(2) 0.7156(4)
H29_3 H 0.3679 0.8673 0.7657
C52_3 C 0.4003(3) 0.9297(2) 0.7064(4)
H30_3 H 0.3930 0.9446 0.7512
C53_3 C 0.42535(27) 0.95359(18) 0.6332(4)
C54_3 C 0.43452(27) 0.93106(18) 0.5677(4)
H31_3 H 0.4509 0.9470 0.5162
C55_3 C 0.42023(28) 0.88567(19) 0.5757(4)
H32_3 H 0.4267 0.8706 0.5302
Zr1_2 Zr 0.05212(2) 0.06365(2) 0.90524(3)
O1_4 O 0.12545(11) 0.10244(12) 0.9406(2)
O3_3 O 0.61024(12) 0.35759(12) 0.5468(2)
O4_3 O 0.58112(12) 0.28182(12) 0.5417(2)
O5_7 O -0.0000 0.0000 0.8605(4)
C3_4 C 0.2169(2) 0.1649(2) 0.9511(4)
H1_4 H 0.2006 0.1660 0.9010
C4_4 C 0.2630(2) 0.1960(2) 0.9603(4)
H2_4 H 0.2779 0.2182 0.9155
C9_3 C 0.36195(19) 0.2347(2) 0.9628(4)
H5_3 H 0.3475 0.2235 0.9071
C10_3 C 0.40944(19) 0.2607(2) 0.9665(4)
C14_3 C 0.43512(19) 0.2687(2) 0.8888(4)
H8_3 H 0.4205 0.2576 0.8332
C15_3 C 0.4815(2) 0.2928(2) 0.8924(5)
C16_3 C 0.5032(2) 0.3099(2) 0.9756(5)
H9_3 H 0.5351 0.3266 0.9777
C18_3 C 0.5071(2) 0.2999(2) 0.8090(5)
C19_3 C 0.49279(17) 0.26694(18) 0.7458(4)
H11_3 H 0.4652 0.2397 0.7545
C20_3 C 0.51782(17) 0.27245(17) 0.6690(4)
H12_4 H 0.5076 0.2488 0.6265
C21_4 C 0.55747(19) 0.3123(2) 0.6545(4)
C22_3 C 0.5720(3) 0.3461(3) 0.7154(7)
H13_3 H 0.5990 0.3737 0.7056
C23_3 C 0.5466(3) 0.3396(3) 0.7929(7)
H14_3 H 0.5567 0.3632 0.8354
C24_4 C 0.58519(17) 0.31765(18) 0.5746(4)
O16_2 O 0.06344(22) 0.01138(14) 0.9526(4)
Zr8_2 Zr 0.61455(2) 0.26968(2) 0.42809(3)
Zr12_2 Zr 0.65514(3) 0.38545(2) 0.42809(3)
O19_2 O 0.06508(16) 0.13199(11) 0.9347(2)
O21_2 O 0.02426(12) 0.08068(17) 0.7865(2)
O23_2 O 0.08555(12) 0.05151(12) 0.7916(2)
O5_8 O -0.0000 1.0000 0.8605(4)
Zr3_2 Zr 0.01153(3) 0.94788(2) 0.90524(3)
O18_2 O 0.06691(12) 0.93492(16) 0.9347(2)
O20_2 O 0.05643(12) 0.97574(12) 0.7865(2)
O5_9 O 1.0000 0.0000 0.8605(4)
O6_2 O 0.98862(14) 0.05206(17) 0.9526(4)
O7_4 O 0.89756(12) 0.02301(16) 0.9406(2)
O9_3 O 0.64241(12) 0.25265(17) 0.5468(2)
O10_3 O 0.71818(12) 0.29930(17) 0.5417(2)
C27_4 C 0.8351(2) 0.0520(3) 0.9511(4)
H15_4 H 0.8340 0.0346 0.9010
C28_4 C 0.8040(2) 0.0670(3) 0.9603(4)
H16_4 H 0.7818 0.0597 0.9155
C33_4 C 0.7653(2) 0.12725(28) 0.9628(4)
H19_4 H 0.7765 0.1240 0.9071
C34_4 C 0.7393(2) 0.14874(28) 0.9665(4)
C38_4 C 0.7313(2) 0.16642(28) 0.8888(4)
H22_4 H 0.7424 0.1629 0.8332
C39_4 C 0.7072(2) 0.1887(3) 0.8924(5)
C40_4 C 0.6901(2) 0.1933(3) 0.9756(5)
H23_4 H 0.6734 0.2085 0.9777
C42_4 C 0.7001(2) 0.2072(3) 0.8090(5)
C43_4 C 0.73306(18) 0.22585(25) 0.7458(4)
H25_4 H 0.7603 0.2255 0.7545
C44_4 C 0.72755(17) 0.24537(24) 0.6690(4)
H26_4 H 0.7512 0.2588 0.6265
C45_4 C 0.6877(2) 0.24517(28) 0.6545(4)
C46_4 C 0.6539(3) 0.2259(4) 0.7154(7)
H27_4 H 0.6263 0.2253 0.7056
C47_4 C 0.6604(3) 0.2070(4) 0.7929(7)
H28_4 H 0.6368 0.1935 0.8354
C48_4 C 0.68235(18) 0.26754(25) 0.5746(4)
Zr10_2 Zr 0.73032(2) 0.34486(3) 0.42809(3)
O24_2 O 0.94849(12) 0.03403(17) 0.7916(2)
O5_10 O 1.0000 1.0000 0.8605(4)
Zr2_2 Zr 0.93635(2) 0.98847(3) 0.90524(3)
O11_2 O 0.94794(17) 0.93656(22) 0.9526(4)
O12_4 O 0.97699(16) 0.87455(11) 0.9406(2)
O14_3 O 0.74735(17) 0.38976(12) 0.5468(2)
O15_3 O 0.70070(17) 0.41888(12) 0.5417(2)
C51_4 C 0.9480(3) 0.7831(2) 0.9511(4)
H29_4 H 0.9654 0.7994 0.9010
C52_4 C 0.9330(3) 0.7370(2) 0.9603(4)
H30_4 H 0.9403 0.7221 0.9155
C57_3 C 0.87275(28) 0.63805(19) 0.9628(4)
H33_3 H 0.8760 0.6525 0.9071
C58_3 C 0.85126(28) 0.59056(19) 0.9665(4)
C62_3 C 0.83358(28) 0.56488(19) 0.8888(4)
H36_3 H 0.8371 0.5795 0.8332
C63_3 C 0.8113(3) 0.5185(2) 0.8924(5)
C64_3 C 0.8067(3) 0.4968(2) 0.9756(5)
H37_3 H 0.7915 0.4649 0.9777
C66_3 C 0.7928(3) 0.4929(2) 0.8090(5)
C67_3 C 0.77415(25) 0.50721(17) 0.7458(4)
H39_3 H 0.7745 0.5348 0.7545
C68_3 C 0.75463(24) 0.48218(17) 0.6690(4)
H40_4 H 0.7412 0.4924 0.6265
C69_4 C 0.75483(28) 0.44253(19) 0.6545(4)
C70_3 C 0.7741(4) 0.4280(3) 0.7154(7)
H41_3 H 0.7747 0.4010 0.7056
C71_3 C 0.7930(4) 0.4534(3) 0.7929(7)
H42_3 H 0.8065 0.4433 0.8354
C72_4 C 0.73246(25) 0.41481(17) 0.5746(4)
O17_2 O 0.86801(11) 0.93309(12) 0.9347(2)
O22_2 O 0.91932(17) 0.94357(12) 0.7865(2)
O25_2 O 0.96597(17) 0.91445(12) 0.7916(2)
Zr1_3 Zr 0.71879(2) 0.39698(2) 0.23857(3)
O1_5 O 0.79212(11) 0.43577(12) 0.2739(2)
O2_3 O 0.79866(11) 0.40024(12) 0.3986(2)
O5_11 O 0.6667 0.3333 0.1938(4)
O6_3 O 0.65529(14) 0.38539(17) 0.2859(4)
C1_4 C 0.81386(16) 0.43145(18) 0.3396(3)
C2_4 C 0.86265(17) 0.46608(19) 0.3498(3)
C3_5 C 0.8836(2) 0.4982(2) 0.2844(4)
H1_5 H 0.8673 0.4993 0.2343
C4_5 C 0.9297(2) 0.5293(2) 0.2936(4)
H2_5 H 0.9446 0.5515 0.2488
C5_4 C 0.95359(18) 0.5282(2) 0.3668(4)
C6_4 C 0.93106(18) 0.4965(2) 0.4323(4)
H3_4 H 0.9470 0.4960 0.4838
C7_4 C 0.88567(19) 0.4654(2) 0.4243(4)
H4_4 H 0.8706 0.4438 0.4698
Zr2_3 Zr 0.60302(2) 0.32180(3) 0.23857(3)
O7_5 O 0.56423(12) 0.35634(16) 0.2739(2)
O8_3 O 0.59976(12) 0.39841(16) 0.3986(2)
O11_3 O 0.61461(17) 0.26989(22) 0.2859(4)
C25_4 C 0.56855(18) 0.38240(24) 0.3396(3)
C26_4 C 0.53392(19) 0.39656(25) 0.3498(3)
C27_5 C 0.5018(2) 0.3853(3) 0.2844(4)
H15_5 H 0.5007 0.3679 0.2343
C28_5 C 0.4707(2) 0.4003(3) 0.2936(4)
H16_5 H 0.4485 0.3930 0.2488
C29_4 C 0.4718(2) 0.42535(27) 0.3668(4)
C30_4 C 0.5035(2) 0.43452(27) 0.4323(4)
H17_4 H 0.5040 0.4509 0.4838
C31_4 C 0.5346(2) 0.42023(28) 0.4243(4)
H18_4 H 0.5562 0.4267 0.4698
C32_4 C 0.4414(2) 0.44438(28) 0.3729(4)
C33_5 C 0.4320(2) 0.46058(28) 0.2961(4)
H19_5 H 0.4432 0.4573 0.2404
C34_5 C 0.4060(2) 0.48207(28) 0.2998(4)
C35_4 C 0.3887(2) 0.48675(28) 0.3838(4)
C36_4 C 0.3971(2) 0.4682(3) 0.4599(4)
H20_4 H 0.3850 0.4700 0.5158
C37_4 C 0.4227(2) 0.4477(3) 0.4547(4)
H21_4 H 0.4279 0.4355 0.5071
C38_5 C 0.3980(2) 0.49975(28) 0.2221(4)
H22_5 H 0.4091 0.4962 0.1665
C39_5 C 0.3739(2) 0.5220(3) 0.2257(5)
C40_5 C 0.3568(2) 0.5266(3) 0.3089(5)
H23_5 H 0.3401 0.5418 0.3110
C41_4 C 0.3636(3) 0.5099(4) 0.3850(5)
H24_4 H 0.3518 0.5135 0.4396
C42_5 C 0.3668(2) 0.5405(3) 0.1423(5)
C43_5 C 0.39973(18) 0.55918(25) 0.0791(4)
H25_5 H 0.4270 0.5588 0.0878
C44_5 C 0.39422(17) 0.57870(24) 0.0023(4)
C46_5 C 0.3206(3) 0.5592(4) 0.0487(7)
H27_5 H 0.2930 0.5586 0.0389
C47_5 C 0.3271(3) 0.5403(4) 0.1262(7)
H28_5 H 0.3035 0.5268 0.1687
Zr3_3 Zr 0.67820(3) 0.28121(2) 0.23857(3)
O12_5 O 0.64366(16) 0.20788(11) 0.2739(2)
O13_3 O 0.60159(16) 0.20134(11) 0.3986(2)
O16_3 O 0.73011(22) 0.34471(14) 0.2859(4)
C49_4 C 0.61760(24) 0.18614(16) 0.3396(3)
C50_4 C 0.60344(25) 0.13735(17) 0.3498(3)
C51_5 C 0.6147(3) 0.1164(2) 0.2844(4)
H29_5 H 0.6321 0.1327 0.2343
C52_5 C 0.5997(3) 0.0703(2) 0.2936(4)
H30_5 H 0.6070 0.0554 0.2488
C53_4 C 0.57465(27) 0.04641(18) 0.3668(4)
C54_4 C 0.56548(27) 0.06894(18) 0.4323(4)
H31_4 H 0.5491 0.0530 0.4838
C55_4 C 0.57977(28) 0.11433(19) 0.4243(4)
H32_4 H 0.5733 0.1294 0.4698
O17_3 O 0.53468(11) 0.26642(12) 0.2680(2)
O18_3 O 0.73358(12) 0.26825(16) 0.2680(2)
O19_3 O 0.73175(16) 0.46532(11) 0.2680(2)
O20_3 O 0.72309(12) 0.30908(12) 0.1199(2)
O21_3 O 0.69092(12) 0.41402(17) 0.1199(2)
O22_3 O 0.58598(17) 0.27691(12) 0.1199(2)
O23_3 O 0.75221(12) 0.38485(12) 0.1250(2)
O24_3 O 0.61515(12) 0.36737(17) 0.1250(2)
O25_3 O 0.63263(17) 0.24779(12) 0.1250(2)
O26_3 O 0.67805(14) 0.28127(17) 0.3807(4)
O27_3 O 0.71873(17) 0.39677(22) 0.3807(4)
O28_3 O 0.60323(22) 0.32195(14) 0.3807(4)
C49_5 C 0.04907(24) 0.14719(16) 0.9937(3)
C50_5 C 0.06323(25) 0.19598(17) 0.9835(3)
C53_5 C 0.09202(27) 0.28692(18) 0.9665(4)
C54_5 C 0.10119(27) 0.26439(18) 0.9010(4)
H31_5 H 0.1176 0.2803 0.8495
C55_5 C 0.08690(28) 0.21900(19) 0.9090(4)
H32_5 H 0.0934 0.2039 0.8635
C56_3 C 0.11105(28) 0.33635(19) 0.9604(4)
C59_3 C 0.15342(28) 0.43142(19) 0.9495(4)
C60_3 C 0.1349(3) 0.4045(2) 0.8734(4)
H34_3 H 0.1367 0.4184 0.8175
C61_3 C 0.1144(3) 0.3584(2) 0.8786(4)
H35_3 H 0.1022 0.3410 0.8262
C65_3 C 0.1766(4) 0.4797(2) 0.9483(5)
H38_3 H 0.1802 0.4951 0.8937
C25_5 C 0.09812(18) 0.95093(24) 0.9937(3)
C26_5 C 0.13275(19) 0.93677(25) 0.9835(3)
C29_5 C 0.1949(2) 0.90798(27) 0.9665(4)
C30_5 C 0.1632(2) 0.89881(27) 0.9010(4)
H17_5 H 0.1627 0.8824 0.8495
C31_5 C 0.1321(2) 0.91310(28) 0.9090(4)
H18_5 H 0.1105 0.9066 0.8635
C32_5 C 0.2253(2) 0.88895(28) 0.9604(4)
C35_5 C 0.2780(2) 0.84658(28) 0.9495(4)
C36_5 C 0.2696(2) 0.8651(3) 0.8734(4)
H20_5 H 0.2817 0.8633 0.8175
C37_5 C 0.2440(2) 0.8856(3) 0.8786(4)
H21_5 H 0.2388 0.8978 0.8262
C41_5 C 0.3031(3) 0.8234(4) 0.9483(5)
H24_5 H 0.3149 0.8198 0.8937
C1_5 C 0.85281(16) 0.90188(18) 0.9937(3)
C2_5 C 0.80402(17) 0.86725(19) 0.9835(3)
C5_5 C 0.71308(18) 0.8051(2) 0.9665(4)
C6_5 C 0.73561(18) 0.8368(2) 0.9010(4)
H3_5 H 0.7197 0.8373 0.8495
C7_5 C 0.78100(19) 0.8679(2) 0.9090(4)
H4_5 H 0.7961 0.8895 0.8635
C8_3 C 0.66365(19) 0.7747(2) 0.9604(4)
C11_3 C 0.56858(19) 0.7220(2) 0.9495(4)
C12_3 C 0.5955(2) 0.7304(2) 0.8734(4)
H6_3 H 0.5816 0.7183 0.8175
C13_3 C 0.6416(2) 0.7560(2) 0.8786(4)
H7_3 H 0.6590 0.7612 0.8262
C17_3 C 0.5203(2) 0.6969(3) 0.9483(5)
H10_3 H 0.5049 0.6851 0.8937
H40_5 H 0.5921 0.1743 0.0402
C69_5 C 0.57850(28) 0.22414(19) 0.0122(4)
C72_5 C 0.60087(25) 0.25186(17) 0.0921(4)
H26_5 H 0.5821 0.4079 0.0402
C45_5 C 0.6456(2) 0.42150(28) 0.0122(4)
C48_5 C 0.65098(18) 0.39913(25) 0.0921(4)
H12_5 H 0.8257 0.4179 0.0402
C21_5 C 0.77586(19) 0.3544(2) 0.0122(4)
C24_5 C 0.74814(17) 0.34902(18) 0.0921(4)
C46_6 C 0.0128(3) 0.1074(4) 0.6179(7)
H27_6 H 0.0404 0.1080 0.6277
C47_6 C 0.0063(3) 0.1263(4) 0.5404(7)
H28_6 H 0.0299 0.1398 0.4979
O1_6 O 0.54122(11) 0.23089(12) 0.3927(2)
O5_12 O 0.6667 0.3333 0.4728(4)
C1_6 C 0.51948(16) 0.23521(18) 0.3270(3)
C2_6 C 0.47069(17) 0.20058(19) 0.3168(3)
C3_6 C 0.4498(2) 0.1684(2) 0.3822(4)
H1_6 H 0.4661 0.1673 0.4323
C4_6 C 0.4037(2) 0.1373(2) 0.3730(4)
H2_6 H 0.3888 0.1151 0.4178
C5_6 C 0.37975(18) 0.1384(2) 0.2998(4)
C6_6 C 0.40228(18) 0.1701(2) 0.2343(4)
H3_6 H 0.3864 0.1706 0.1828
C7_6 C 0.44767(19) 0.2012(2) 0.2423(4)
H4_6 H 0.4628 0.2228 0.1968
C8_4 C 0.33032(19) 0.1080(2) 0.2937(4)
C9_4 C 0.30472(19) 0.0986(2) 0.3705(4)
H5_4 H 0.3192 0.1098 0.4262
C10_4 C 0.25723(19) 0.0726(2) 0.3668(4)
C11_4 C 0.23525(19) 0.0553(2) 0.2828(4)
C12_4 C 0.2622(2) 0.0637(2) 0.2067(4)
H6_4 H 0.2483 0.0516 0.1508
C13_4 C 0.3083(2) 0.0893(2) 0.2119(4)
H7_4 H 0.3257 0.0945 0.1595
C14_4 C 0.23155(19) 0.0646(2) 0.4445(4)
H8_4 H 0.2462 0.0757 0.5001
C15_4 C 0.1852(2) 0.0405(2) 0.4409(5)
C16_4 C 0.1635(2) 0.0234(2) 0.3577(5)
H9_4 H 0.1316 0.0067 0.3556
C17_4 C 0.1870(2) 0.0302(3) 0.2816(5)
H10_4 H 0.1716 0.0184 0.2270
C18_4 C 0.1596(2) 0.0334(2) 0.5243(5)
C19_4 C 0.17388(17) 0.06639(18) 0.5875(4)
H11_4 H 0.2015 0.0936 0.5788
C20_4 C 0.14885(17) 0.06088(17) 0.6643(4)
H12_6 H 0.1591 0.0845 0.7068
C21_6 C 0.10920(19) 0.0210(2) 0.6788(4)
C24_6 C 0.08148(17) 0.01568(18) 0.7587(4)
O7_6 O 0.76911(12) 0.31032(16) 0.3927(2)
C25_6 C 0.76479(18) 0.28426(24) 0.3270(3)
C26_6 C 0.79942(19) 0.27010(25) 0.3168(3)
C27_6 C 0.8316(2) 0.2813(3) 0.3822(4)
H15_6 H 0.8327 0.2987 0.4323
C28_6 C 0.8627(2) 0.2663(3) 0.3730(4)
H16_6 H 0.8849 0.2736 0.4178
C29_6 C 0.8616(2) 0.24131(27) 0.2998(4)
C30_6 C 0.8299(2) 0.23214(27) 0.2343(4)
H17_6 H 0.8294 0.2157 0.1828
C31_6 C 0.7988(2) 0.24643(28) 0.2423(4)
H18_6 H 0.7772 0.2399 0.1968
C32_6 C 0.8920(2) 0.22228(28) 0.2937(4)
C33_6 C 0.9014(2) 0.20608(28) 0.3705(4)
H19_6 H 0.8902 0.2093 0.4262
C34_6 C 0.9274(2) 0.18459(28) 0.3668(4)
C35_6 C 0.9447(2) 0.17991(28) 0.2828(4)
C36_6 C 0.9363(2) 0.1984(3) 0.2067(4)
H20_6 H 0.9484 0.1966 0.1508
C37_6 C 0.9107(2) 0.2189(3) 0.2119(4)
H21_6 H 0.9055 0.2311 0.1595
C38_6 C 0.9354(2) 0.16691(28) 0.4445(4)
H22_6 H 0.9243 0.1704 0.5001
C39_6 C 0.9595(2) 0.1446(3) 0.4409(5)
C40_6 C 0.9766(2) 0.1400(3) 0.3577(5)
H23_6 H 0.9933 0.1248 0.3556
C41_6 C 0.9698(3) 0.1567(4) 0.2816(5)
H24_6 H 0.9816 0.1531 0.2270
C42_6 C 0.9666(2) 0.1261(3) 0.5243(5)
C43_6 C 0.93361(18) 0.10748(25) 0.5875(4)
H25_6 H 0.9064 0.1078 0.5788
C44_6 C 0.93912(17) 0.08796(24) 0.6643(4)
H26_6 H 0.9155 0.0745 0.7068
C45_6 C 0.9790(2) 0.08816(28) 0.6788(4)
C48_6 C 0.98432(18) 0.06579(25) 0.7587(4)
O12_6 O 0.68968(16) 0.45878(11) 0.3927(2)
C49_6 C 0.71574(24) 0.48052(16) 0.3270(3)
C50_6 C 0.72990(25) 0.52931(17) 0.3168(3)
C51_6 C 0.7187(3) 0.5502(2) 0.3822(4)
H29_6 H 0.7013 0.5339 0.4323
C52_6 C 0.7337(3) 0.5963(2) 0.3730(4)
H30_6 H 0.7264 0.6112 0.4178
C53_6 C 0.75869(27) 0.62025(18) 0.2998(4)
C54_6 C 0.76786(27) 0.59772(18) 0.2343(4)
H31_6 H 0.7843 0.6136 0.1828
C55_6 C 0.75357(28) 0.55233(19) 0.2423(4)
H32_6 H 0.7601 0.5372 0.1968
C56_4 C 0.77772(28) 0.66968(19) 0.2937(4)
C57_4 C 0.79392(28) 0.69528(19) 0.3705(4)
H33_4 H 0.7907 0.6808 0.4262
C58_4 C 0.81541(28) 0.74277(19) 0.3668(4)
C59_4 C 0.82009(28) 0.76475(19) 0.2828(4)
C60_4 C 0.8016(3) 0.7378(2) 0.2067(4)
H34_4 H 0.8034 0.7517 0.1508
C61_4 C 0.7811(3) 0.6917(2) 0.2119(4)
H35_4 H 0.7689 0.6743 0.1595
C62_4 C 0.83309(28) 0.76845(19) 0.4445(4)
H36_4 H 0.8296 0.7538 0.5001
C63_4 C 0.8554(3) 0.8148(2) 0.4409(5)
C64_4 C 0.8600(3) 0.8365(2) 0.3577(5)
H37_4 H 0.8752 0.8684 0.3556
C65_4 C 0.8433(4) 0.8130(2) 0.2816(5)
H38_4 H 0.8469 0.8284 0.2270
C66_4 C 0.8739(3) 0.8404(2) 0.5243(5)
C67_4 C 0.89252(25) 0.82612(17) 0.5875(4)
H39_4 H 0.8922 0.7985 0.5788
C68_4 C 0.91204(24) 0.85115(17) 0.6643(4)
H40_6 H 0.9255 0.8409 0.7068
C69_6 C 0.91184(28) 0.89080(19) 0.6788(4)
C70_4 C 0.8926(4) 0.9053(3) 0.6179(7)
H41_4 H 0.8920 0.9323 0.6277
C71_4 C 0.8737(4) 0.8799(3) 0.5404(7)
H42_4 H 0.8602 0.8900 0.4979
C72_6 C 0.93421(25) 0.91852(17) 0.7587(4)
C22_4 C 0.0947(3) 0.9872(3) 0.6179(7)
H13_4 H 0.0677 0.9596 0.6277
C23_4 C 0.1201(3) 0.9937(3) 0.5404(7)
H14_4 H 0.1100 0.9701 0.4979
C8_5 C 0.00302(19) 0.5586(2) 0.3729(4)
C9_5 C 0.02862(19) 0.5680(2) 0.2961(4)
H5_5 H 0.0142 0.5568 0.2404
C10_5 C 0.07611(19) 0.5940(2) 0.2998(4)
C11_5 C 0.09809(19) 0.6113(2) 0.3838(4)
C12_5 C 0.0712(2) 0.6029(2) 0.4599(4)
H6_5 H 0.0851 0.6150 0.5158
C13_5 C 0.0251(2) 0.5773(2) 0.4547(4)
H7_5 H 0.0077 0.5721 0.5071
C14_5 C 0.10179(19) 0.6020(2) 0.2221(4)
H8_5 H 0.0872 0.5909 0.1665
C15_5 C 0.1482(2) 0.6261(2) 0.2257(5)
C16_5 C 0.1699(2) 0.6432(2) 0.3089(5)
H9_5 H 0.2018 0.6599 0.3110
C17_5 C 0.1464(2) 0.6364(3) 0.3850(5)
H10_5 H 0.1618 0.6482 0.4396
C18_5 C 0.1738(2) 0.6332(2) 0.1423(5)
C19_5 C 0.15946(17) 0.60027(18) 0.0791(4)
H11_5 H 0.1319 0.5730 0.0878
C20_5 C 0.18449(17) 0.60578(17) 0.0023(4)
C22_5 C 0.2387(3) 0.6794(3) 0.0487(7)
H13_5 H 0.2657 0.7070 0.0389
C23_5 C 0.2133(3) 0.6729(3) 0.1262(7)
H14_5 H 0.2234 0.6965 0.1687
C56_5 C 0.55562(28) 0.99698(19) 0.3729(4)
C57_5 C 0.53942(28) 0.97138(19) 0.2961(4)
H33_5 H 0.5427 0.9858 0.2404
C58_5 C 0.51793(28) 0.92389(19) 0.2998(4)
C59_5 C 0.51325(28) 0.90191(19) 0.3838(4)
C60_5 C 0.5318(3) 0.9288(2) 0.4599(4)
H34_5 H 0.5300 0.9149 0.5158
C61_5 C 0.5523(3) 0.9749(2) 0.4547(4)
H35_5 H 0.5645 0.9923 0.5071
C62_5 C 0.50025(28) 0.89821(19) 0.2221(4)
H36_5 H 0.5038 0.9128 0.1665
C63_5 C 0.4780(3) 0.8518(2) 0.2257(5)
C64_5 C 0.4734(3) 0.8301(2) 0.3089(5)
H37_5 H 0.4582 0.7982 0.3110
C65_5 C 0.4901(4) 0.8536(2) 0.3850(5)
H38_5 H 0.4865 0.8382 0.4396
C66_5 C 0.4595(3) 0.8262(2) 0.1423(5)
C67_5 C 0.44082(25) 0.84054(17) 0.0791(4)
H39_5 H 0.4412 0.8681 0.0878
C68_5 C 0.42130(24) 0.81551(17) 0.0023(4)
C70_5 C 0.4408(4) 0.7613(3) 0.0487(7)
H41_5 H 0.4414 0.7343 0.0389
C71_5 C 0.4597(4) 0.7867(3) 0.1262(7)
H42_5 H 0.4732 0.7766 0.1687
C56_6 C 0.44438(28) 0.00302(19) 0.6271(4)
C57_6 C 0.46058(28) 0.02862(19) 0.7039(4)
H33_6 H 0.4573 0.0142 0.7596
C58_6 C 0.48207(28) 0.07611(19) 0.7002(4)
C59_6 C 0.48675(28) 0.09809(19) 0.6162(4)
C60_6 C 0.4682(3) 0.0712(2) 0.5401(4)
H34_6 H 0.4700 0.0851 0.4842
C61_6 C 0.4477(3) 0.0251(2) 0.5453(4)
H35_6 H 0.4355 0.0077 0.4929
C62_6 C 0.49975(28) 0.10179(19) 0.7779(4)
H36_6 H 0.4962 0.0872 0.8335
C63_6 C 0.5220(3) 0.1482(2) 0.7743(5)
C64_6 C 0.5266(3) 0.1699(2) 0.6911(5)
H37_6 H 0.5418 0.2018 0.6890
C65_6 C 0.5099(4) 0.1464(2) 0.6150(5)
H38_6 H 0.5135 0.1618 0.5604
C66_6 C 0.5405(3) 0.1738(2) 0.8577(5)
C67_6 C 0.55918(25) 0.15946(17) 0.9209(4)
H39_6 H 0.5588 0.1319 0.9122
C68_6 C 0.57870(24) 0.18449(17) 0.9977(4)
C70_6 C 0.5592(4) 0.2387(3) 0.9513(7)
H41_6 H 0.5586 0.2657 0.9611
C71_6 C 0.5403(4) 0.2133(3) 0.8738(7)
H42_6 H 0.5268 0.2234 0.8313
C8_6 C 0.99698(19) 0.4414(2) 0.6271(4)
C9_6 C 0.97138(19) 0.4320(2) 0.7039(4)
H5_6 H 0.9858 0.4432 0.7596
C10_6 C 0.92389(19) 0.4060(2) 0.7002(4)
C11_6 C 0.90191(19) 0.3887(2) 0.6162(4)
C12_6 C 0.9288(2) 0.3971(2) 0.5401(4)
H6_6 H 0.9149 0.3850 0.4842
C13_6 C 0.9749(2) 0.4227(2) 0.5453(4)
H7_6 H 0.9923 0.4279 0.4929
C14_6 C 0.89821(19) 0.3980(2) 0.7779(4)
H8_6 H 0.9128 0.4091 0.8335
C15_6 C 0.8518(2) 0.3739(2) 0.7743(5)
C16_6 C 0.8301(2) 0.3568(2) 0.6911(5)
H9_6 H 0.7982 0.3401 0.6890
C17_6 C 0.8536(2) 0.3636(3) 0.6150(5)
H10_6 H 0.8382 0.3518 0.5604
C18_6 C 0.8262(2) 0.3668(2) 0.8577(5)
C19_6 C 0.84054(17) 0.39973(18) 0.9209(4)
H11_6 H 0.8681 0.4270 0.9122
C20_6 C 0.81551(17) 0.39422(17) 0.9977(4)
C22_6 C 0.7613(3) 0.3206(3) 0.9513(7)
H13_6 H 0.7343 0.2930 0.9611
C23_6 C 0.7867(3) 0.3271(3) 0.8738(7)
H14_6 H 0.7766 0.3035 0.8313
loop_
_geom_bond_atom_site_label_1
_geom_bond_atom_site_label_2
_geom_bond_site_symmetry_1
_geom_bond_site_symmetry_2
O2 C1 1_555 1_555
C1 C2 1_555 1_555
C6 C5 1_555 1_555
H3 C6 1_555 1_555
C7 C2 1_555 1_555
H4 C7 1_555 1_555
C8 C5 1_555 1_555
C12 C11 1_555 1_555
H6 C12 1_555 1_555
C13 C8 1_555 1_555
H7 C13 1_555 1_555
C17 C11 1_555 1_555
H10 C17 1_555 1_555
Zr5 O2 1_555 1_555
C6 C7 1_555 1_555
C12 C13 1_555 1_555
Zr5 O27 1_555 1_555
O8 C25 1_555 1_555
C26 C25 1_555 1_555
C30 C29 1_555 1_555
H17 C30 1_555 1_555
C31 C26 1_555 1_555
H18 C31 1_555 1_555
C32 C29 1_555 1_555
C36 C35 1_555 1_555
H20 C36 1_555 1_555
C37 C32 1_555 1_555
H21 C37 1_555 1_555
C41 C35 1_555 1_555
H24 C41 1_555 1_555
O8 Zr6 1_555 1_555
C30 C31 1_555 1_555
C36 C37 1_555 1_555
O13 C49 1_555 1_555
C50 C49 1_555 1_555
C54 C53 1_555 1_555
H31 C54 1_555 1_555
C55 C50 1_555 1_555
H32 C55 1_555 1_555
C56 C53 1_555 1_555
C60 C59 1_555 1_555
H34 C60 1_555 1_555
C61 C56 1_555 1_555
H35 C61 1_555 1_555
C65 C59 1_555 1_555
H38 C65 1_555 1_555
O13 Zr4 1_555 1_555
C54 C55 1_555 1_555
C60 C61 1_555 1_555
Zr4 O28 1_555 1_555
O3 C24 1_555 1_555
O4 C24 1_555 1_555
C24 C21 1_555 1_555
Zr8 O4 1_555 1_555
Zr12 O3 1_555 1_555
O9 C48 1_555 1_555
O10 C48 1_555 1_555
C48 C45 1_555 1_555
Zr8 O9 1_555 1_555
Zr10 O10 1_555 1_555
O14 C72 1_555 1_555
O15 C72 1_555 1_555
C72 C69 1_555 1_555
Zr10 O14 1_555 1_555
Zr12 O15 1_555 1_555
H13 C22 1_555 1_555
H14 C23 1_555 1_555
Zr6 O3_2 1_555 1_555
C22 C23 1_555 1_555
Zr1 O1 1_555 1_555
O1 C1_2 1_555 1_555
O2_2 C1_2 1_555 1_555
O4_2 C24_2 1_555 1_555
O5 Zr1 1_555 1_555
O6 Zr1 1_555 1_555
C1_2 C2_2 1_555 1_555
C2_2 C3 1_555 1_555
C3 H1 1_555 1_555
C4 C3 1_555 1_555
H2 C4 1_555 1_555
C5_2 C4 1_555 1_555
C6_2 C5_2 1_555 1_555
H3_2 C6_2 1_555 1_555
C7_2 C2_2 1_555 1_555
H4_2 C7_2 1_555 1_555
C8_2 C5_2 1_555 1_555
C9 C8_2 1_555 1_555
H5 C9 1_555 1_555
C10 C9 1_555 1_555
C11_2 C10 1_555 1_555
C12_2 C11_2 1_555 1_555
H6_2 C12_2 1_555 1_555
C13_2 C8_2 1_555 1_555
H7_2 C13_2 1_555 1_555
C14 C10 1_555 1_555
H8 C14 1_555 1_555
C15 C14 1_555 1_555
C16 C15 1_555 1_555
H9 C16 1_555 1_555
C17_2 C11_2 1_555 1_555
H10_2 C17_2 1_555 1_555
C18 C15 1_555 1_555
C19 C18 1_555 1_555
H11 C19 1_555 1_555
C20 C19 1_555 1_555
H12_2 C20 1_555 1_555
C21_2 C20 1_555 1_555
C24_2 C21_2 1_555 1_555
Zr2 O5 1_555 1_555
O7 Zr2 1_555 1_555
O8_2 C25_2 1_555 1_555
O10_2 C48_2 1_555 1_555
O11 Zr2 1_555 1_555
C25_2 O7 1_555 1_555
C26_2 C25_2 1_555 1_555
C27 C26_2 1_555 1_555
H15 C27 1_555 1_555
C28 C27 1_555 1_555
H16 C28 1_555 1_555
C29_2 C28 1_555 1_555
C30_2 C29_2 1_555 1_555
H17_2 C30_2 1_555 1_555
C31_2 C26_2 1_555 1_555
H18_2 C31_2 1_555 1_555
C32_2 C29_2 1_555 1_555
C33 C32_2 1_555 1_555
H19 C33 1_555 1_555
C34 C33 1_555 1_555
C35_2 C34 1_555 1_555
C36_2 C35_2 1_555 1_555
H20_2 C36_2 1_555 1_555
C37_2 C32_2 1_555 1_555
H21_2 C37_2 1_555 1_555
C38 C34 1_555 1_555
H22 C38 1_555 1_555
C39 C38 1_555 1_555
C40 C39 1_555 1_555
H23 C40 1_555 1_555
C41_2 C35_2 1_555 1_555
H24_2 C41_2 1_555 1_555
C42 C39 1_555 1_555
C43 C42 1_555 1_555
H25 C43 1_555 1_555
C44 C43 1_555 1_555
H26_2 C44 1_555 1_555
C45_2 C44 1_555 1_555
C48_2 C45_2 1_555 1_555
Zr3 O5 1_555 1_555
O12 Zr3 1_555 1_555
O13_2 C49_2 1_555 1_555
O14_2 C72_2 1_555 1_555
O15_2 C72_2 1_555 1_555
O16 Zr1 1_555 1_555
C49_2 O12 1_555 1_555
C50_2 C49_2 1_555 1_555
C51 C50_2 1_555 1_555
H29 C51 1_555 1_555
C52 C51 1_555 1_555
H30 C52 1_555 1_555
C53_2 C52 1_555 1_555
C54_2 C53_2 1_555 1_555
H31_2 C54_2 1_555 1_555
C55_2 C50_2 1_555 1_555
H32_2 C55_2 1_555 1_555
C56_2 C53_2 1_555 1_555
C57 C56_2 1_555 1_555
H33 C57 1_555 1_555
C58 C57 1_555 1_555
C59_2 C58 1_555 1_555
C60_2 C59_2 1_555 1_555
H34_2 C60_2 1_555 1_555
C61_2 C56_2 1_555 1_555
H35_2 C61_2 1_555 1_555
C62 C58 1_555 1_555
H36 C62 1_555 1_555
C63 C62 1_555 1_555
C64 C63 1_555 1_555
H37 C64 1_555 1_555
C65_2 C59_2 1_555 1_555
H38_2 C65_2 1_555 1_555
C66 C63 1_555 1_555
C67 C66 1_555 1_555
H39 C67 1_555 1_555
C68 C67 1_555 1_555
H40_2 C68 1_555 1_555
C69_2 C68 1_555 1_555
C70 C69_2 1_555 1_555
H41 C70 1_555 1_555
C71 C66 1_555 1_555
H42 C71 1_555 1_555
C72_2 C69_2 1_555 1_555
Zr8 O11 1_555 1_555
Zr10 O2_2 1_555 1_555
Zr12 O6 1_555 1_555
Zr4 O4_2 1_555 1_555
Zr5 O14_2 1_555 1_555
O17 Zr2 1_555 1_555
O18 Zr3 1_555 1_555
O19 Zr1 1_555 1_555
O20 Zr3 1_555 1_555
O21 Zr1 1_555 1_555
O22 Zr2 1_555 1_555
O23 Zr1 1_555 1_555
O24 Zr2 1_555 1_555
O25 Zr3 1_555 1_555
O26_2 Zr3 1_555 1_555
O27_2 Zr1 1_555 1_555
O28_2 Zr2 1_555 1_555
O6 Zr2 1_555 1_555
C6_2 C7_2 1_555 1_555
C12_2 C13_2 1_555 1_555
C16 C17_2 1_555 1_555
O8_2 Zr12 1_555 1_555
O11 Zr3 1_555 1_555
C30_2 C31_2 1_555 1_555
C36_2 C37_2 1_555 1_555
C40 C41_2 1_555 1_555
Zr3 O16 1_555 1_555
O13_2 Zr8 1_555 1_555
O16 Zr10 1_555 1_555
C54_2 C55_2 1_555 1_555
C60_2 C61_2 1_555 1_555
C64 C65_2 1_555 1_555
C70 C71 1_555 1_555
Zr8 O26_2 1_555 1_555
Zr8 O28_2 1_555 1_555
Zr10 O26_2 1_555 1_555
Zr10 O27_2 1_555 1_555
Zr12 O27_2 1_555 1_555
Zr12 O28_2 1_555 1_555
H27 C46 1_555 1_555
H28 C47 1_555 1_555
Zr4 O9_2 1_555 1_555
C46 C47 1_555 1_555
Zr5 O5_2 1_555 1_555
O22 C72_3 1_555 1_555
O25 C72_3 1_555 1_555
H29_2 C51_2 1_555 1_555
C52_2 C51_2 1_555 1_555
H30_2 C52_2 1_555 1_555
H33_2 C57_2 1_555 1_555
C58_2 C57_2 1_555 1_555
C62_2 C58_2 1_555 1_555
H36_2 C62_2 1_555 1_555
C63_2 C62_2 1_555 1_555
C64_2 C63_2 1_555 1_555
H37_2 C64_2 1_555 1_555
C66_2 C63_2 1_555 1_555
C67_2 C66_2 1_555 1_555
H39_2 C67_2 1_555 1_555
C68_2 C67_2 1_555 1_555
H40_3 C68_2 1_555 1_555
C69_3 C68_2 1_555 1_555
C70_2 C69_3 1_555 1_555
H41_2 C70_2 1_555 1_555
C71_2 C66_2 1_555 1_555
H42_2 C71_2 1_555 1_555
C72_3 C69_3 1_555 1_555
C70_2 C71_2 1_555 1_555
O21 C48_3 1_555 1_555
O24 C48_3 1_555 1_555
H15_2 C27_2 1_555 1_555
C28_2 C27_2 1_555 1_555
H16_2 C28_2 1_555 1_555
H19_2 C33_2 1_555 1_555
C34_2 C33_2 1_555 1_555
C38_2 C34_2 1_555 1_555
H22_2 C38_2 1_555 1_555
C39_2 C38_2 1_555 1_555
C40_2 C39_2 1_555 1_555
H23_2 C40_2 1_555 1_555
C42_2 C39_2 1_555 1_555
C43_2 C42_2 1_555 1_555
H25_2 C43_2 1_555 1_555
C44_2 C43_2 1_555 1_555
H26_3 C44_2 1_555 1_555
C45_3 C44_2 1_555 1_555
C46_2 C45_3 1_555 1_555
H27_2 C46_2 1_555 1_555
C47_2 C42_2 1_555 1_555
H28_2 C47_2 1_555 1_555
C48_3 C45_3 1_555 1_555
C46_2 C47_2 1_555 1_555
Zr6 O5_4 1_555 1_555
Zr4 O1_2 1_555 1_555
O20 C24_3 1_555 1_555
O23 C24_3 1_555 1_555
O5_5 Zr4 1_555 1_555
C3_2 H1_2 1_555 1_555
C4_2 C3_2 1_555 1_555
H2_2 C4_2 1_555 1_555
H5_2 C9_2 1_555 1_555
C10_2 C9_2 1_555 1_555
C14_2 C10_2 1_555 1_555
H8_2 C14_2 1_555 1_555
C15_2 C14_2 1_555 1_555
C16_2 C15_2 1_555 1_555
H9_2 C16_2 1_555 1_555
C18_2 C15_2 1_555 1_555
C19_2 C18_2 1_555 1_555
H11_2 C19_2 1_555 1_555
C20_2 C19_2 1_555 1_555
H12_3 C20_2 1_555 1_555
C21_3 C20_2 1_555 1_555
C22_2 C21_3 1_555 1_555
H13_2 C22_2 1_555 1_555
C23_2 C18_2 1_555 1_555
H14_2 C23_2 1_555 1_555
C24_3 C21_3 1_555 1_555
C22_2 C23_2 1_555 1_555
Zr8 O1_3 1_555 1_555
O1_3 C1_3 1_555 1_555
O17 C1_3 1_555 1_555
O5_6 Zr8 1_555 1_555
C1_3 C2_3 1_555 1_555
C2_3 C3_3 1_555 1_555
C3_3 H1_3 1_555 1_555
C4_3 C3_3 1_555 1_555
H2_3 C4_3 1_555 1_555
C5_3 C4_3 1_555 1_555
C6_3 C5_3 1_555 1_555
H3_3 C6_3 1_555 1_555
C7_3 C2_3 1_555 1_555
H4_3 C7_3 1_555 1_555
Zr10 O5_6 1_555 1_555
O7_3 Zr10 1_555 1_555
O18 C25_3 1_555 1_555
C25_3 O7_3 1_555 1_555
C26_3 C25_3 1_555 1_555
C27_3 C26_3 1_555 1_555
H15_3 C27_3 1_555 1_555
C28_3 C27_3 1_555 1_555
H16_3 C28_3 1_555 1_555
C29_3 C28_3 1_555 1_555
C30_3 C29_3 1_555 1_555
H17_3 C30_3 1_555 1_555
C31_3 C26_3 1_555 1_555
H18_3 C31_3 1_555 1_555
C32_3 C29_3 1_555 1_555
C33_3 C32_3 1_555 1_555
H19_3 C33_3 1_555 1_555
C34_3 C33_3 1_555 1_555
C35_3 C34_3 1_555 1_555
C36_3 C35_3 1_555 1_555
H20_3 C36_3 1_555 1_555
C37_3 C32_3 1_555 1_555
H21_3 C37_3 1_555 1_555
C38_3 C34_3 1_555 1_555
H22_3 C38_3 1_555 1_555
C39_3 C38_3 1_555 1_555
C40_3 C39_3 1_555 1_555
H23_3 C40_3 1_555 1_555
C41_3 C35_3 1_555 1_555
H24_3 C41_3 1_555 1_555
C42_3 C39_3 1_555 1_555
C43_3 C42_3 1_555 1_555
H25_3 C43_3 1_555 1_555
C44_3 C43_3 1_555 1_555
H27_3 C46_3 1_555 1_555
C47_3 C42_3 1_555 1_555
H28_3 C47_3 1_555 1_555
Zr12 O5_6 1_555 1_555
O12_3 Zr12 1_555 1_555
O19 C49_3 1_555 1_555
C49_3 O12_3 1_555 1_555
C50_3 C49_3 1_555 1_555
C51_3 C50_3 1_555 1_555
H29_3 C51_3 1_555 1_555
C52_3 C51_3 1_555 1_555
H30_3 C52_3 1_555 1_555
C53_3 C52_3 1_555 1_555
C54_3 C53_3 1_555 1_555
H31_3 C54_3 1_555 1_555
C55_3 C50_3 1_555 1_555
H32_3 C55_3 1_555 1_555
C6_3 C7_3 1_555 1_555
C30_3 C31_3 1_555 1_555
C36_3 C37_3 1_555 1_555
C40_3 C41_3 1_555 1_555
C46_3 C47_3 1_555 1_555
C54_3 C55_3 1_555 1_555
Zr1_2 O1_4 1_555 1_555
O3_3 C24_4 1_555 1_555
O4_3 C24_4 1_555 1_555
O5_7 Zr1_2 1_555 1_555
C3_4 H1_4 1_555 1_555
C4_4 C3_4 1_555 1_555
H2_4 C4_4 1_555 1_555
H5_3 C9_3 1_555 1_555
C10_3 C9_3 1_555 1_555
C14_3 C10_3 1_555 1_555
H8_3 C14_3 1_555 1_555
C15_3 C14_3 1_555 1_555
C16_3 C15_3 1_555 1_555
H9_3 C16_3 1_555 1_555
C18_3 C15_3 1_555 1_555
C19_3 C18_3 1_555 1_555
H11_3 C19_3 1_555 1_555
C20_3 C19_3 1_555 1_555
H12_4 C20_3 1_555 1_555
C21_4 C20_3 1_555 1_555
C22_3 C21_4 1_555 1_555
H13_3 C22_3 1_555 1_555
C23_3 C18_3 1_555 1_555
H14_3 C23_3 1_555 1_555
C24_4 C21_4 1_555 1_555
O16_2 Zr1_2 1_555 1_555
Zr8_2 O4_3 1_555 1_555
Zr12_2 O3_3 1_555 1_555
O19_2 Zr1_2 1_555 1_555
O21_2 Zr1_2 1_555 1_555
O23_2 Zr1_2 1_555 1_555
C22_3 C23_3 1_555 1_555
Zr3_2 O5_8 1_555 1_555
O18_2 Zr3_2 1_555 1_555
O20_2 Zr3_2 1_555 1_555
O9_3 C48_4 1_555 1_555
O10_3 C48_4 1_555 1_555
H15_4 C27_4 1_555 1_555
C28_4 C27_4 1_555 1_555
H16_4 C28_4 1_555 1_555
H19_4 C33_4 1_555 1_555
C34_4 C33_4 1_555 1_555
C38_4 C34_4 1_555 1_555
H22_4 C38_4 1_555 1_555
C39_4 C38_4 1_555 1_555
C40_4 C39_4 1_555 1_555
H23_4 C40_4 1_555 1_555
C42_4 C39_4 1_555 1_555
C43_4 C42_4 1_555 1_555
H25_4 C43_4 1_555 1_555
C44_4 C43_4 1_555 1_555
H26_4 C44_4 1_555 1_555
C45_4 C44_4 1_555 1_555
C46_4 C45_4 1_555 1_555
H27_4 C46_4 1_555 1_555
C47_4 C42_4 1_555 1_555
H28_4 C47_4 1_555 1_555
C48_4 C45_4 1_555 1_555
Zr8_2 O9_3 1_555 1_555
Zr10_2 O10_3 1_555 1_555
C46_4 C47_4 1_555 1_555
Zr2_2 O5_10 1_555 1_555
O11_2 Zr2_2 1_555 1_555
O14_3 C72_4 1_555 1_555
O15_3 C72_4 1_555 1_555
H29_4 C51_4 1_555 1_555
C52_4 C51_4 1_555 1_555
H30_4 C52_4 1_555 1_555
H33_3 C57_3 1_555 1_555
C58_3 C57_3 1_555 1_555
C62_3 C58_3 1_555 1_555
H36_3 C62_3 1_555 1_555
C63_3 C62_3 1_555 1_555
C64_3 C63_3 1_555 1_555
H37_3 C64_3 1_555 1_555
C66_3 C63_3 1_555 1_555
C67_3 C66_3 1_555 1_555
H39_3 C67_3 1_555 1_555
C68_3 C67_3 1_555 1_555
H40_4 C68_3 1_555 1_555
C69_4 C68_3 1_555 1_555
C70_3 C69_4 1_555 1_555
H41_3 C70_3 1_555 1_555
C71_3 C66_3 1_555 1_555
H42_3 C71_3 1_555 1_555
C72_4 C69_4 1_555 1_555
Zr10_2 O14_3 1_555 1_555
Zr12_2 O15_3 1_555 1_555
O17_2 Zr2_2 1_555 1_555
O22_2 Zr2_2 1_555 1_555
C70_3 C71_3 1_555 1_555
Zr1_3 O1_5 1_555 1_555
O1_5 C1_4 1_555 1_555
O2_3 C1_4 1_555 1_555
O5_11 Zr1_3 1_555 1_555
O6_3 Zr1_3 1_555 1_555
C1_4 C2_4 1_555 1_555
C2_4 C3_5 1_555 1_555
C3_5 H1_5 1_555 1_555
C4_5 C3_5 1_555 1_555
H2_5 C4_5 1_555 1_555
C5_4 C4_5 1_555 1_555
C6_4 C5_4 1_555 1_555
H3_4 C6_4 1_555 1_555
C7_4 C2_4 1_555 1_555
H4_4 C7_4 1_555 1_555
Zr2_3 O5_11 1_555 1_555
O7_5 Zr2_3 1_555 1_555
O8_3 C25_4 1_555 1_555
O11_3 Zr2_3 1_555 1_555
C25_4 O7_5 1_555 1_555
C26_4 C25_4 1_555 1_555
C27_5 C26_4 1_555 1_555
H15_5 C27_5 1_555 1_555
C28_5 C27_5 1_555 1_555
H16_5 C28_5 1_555 1_555
C29_4 C28_5 1_555 1_555
C30_4 C29_4 1_555 1_555
H17_4 C30_4 1_555 1_555
C31_4 C26_4 1_555 1_555
H18_4 C31_4 1_555 1_555
C32_4 C29_4 1_555 1_555
C33_5 C32_4 1_555 1_555
H19_5 C33_5 1_555 1_555
C34_5 C33_5 1_555 1_555
C35_4 C34_5 1_555 1_555
C36_4 C35_4 1_555 1_555
H20_4 C36_4 1_555 1_555
C37_4 C32_4 1_555 1_555
H21_4 C37_4 1_555 1_555
C38_5 C34_5 1_555 1_555
H22_5 C38_5 1_555 1_555
C39_5 C38_5 1_555 1_555
C40_5 C39_5 1_555 1_555
H23_5 C40_5 1_555 1_555
C41_4 C35_4 1_555 1_555
H24_4 C41_4 1_555 1_555
C42_5 C39_5 1_555 1_555
C43_5 C42_5 1_555 1_555
H25_5 C43_5 1_555 1_555
C44_5 C43_5 1_555 1_555
H27_5 C46_5 1_555 1_555
C47_5 C42_5 1_555 1_555
H28_5 C47_5 1_555 1_555
Zr3_3 O5_11 1_555 1_555
O12_5 Zr3_3 1_555 1_555
O13_3 C49_4 1_555 1_555
O16_3 Zr1_3 1_555 1_555
C49_4 O12_5 1_555 1_555
C50_4 C49_4 1_555 1_555
C51_5 C50_4 1_555 1_555
H29_5 C51_5 1_555 1_555
C52_5 C51_5 1_555 1_555
H30_5 C52_5 1_555 1_555
C53_4 C52_5 1_555 1_555
C54_4 C53_4 1_555 1_555
H31_4 C54_4 1_555 1_555
C55_4 C50_4 1_555 1_555
H32_4 C55_4 1_555 1_555
Zr8_2 O11_3 1_555 1_555
Zr10_2 O2_3 1_555 1_555
Zr12_2 O6_3 1_555 1_555
O17_3 Zr2_3 1_555 1_555
O18_3 Zr3_3 1_555 1_555
O19_3 Zr1_3 1_555 1_555
O20_3 Zr3_3 1_555 1_555
O21_3 Zr1_3 1_555 1_555
O22_3 Zr2_3 1_555 1_555
O23_3 Zr1_3 1_555 1_555
O24_3 Zr2_3 1_555 1_555
O25_3 Zr3_3 1_555 1_555
O26_3 Zr3_3 1_555 1_555
O27_3 Zr1_3 1_555 1_555
O28_3 Zr2_3 1_555 1_555
O6_3 Zr2_3 1_555 1_555
C6_4 C7_4 1_555 1_555
O8_3 Zr12_2 1_555 1_555
O11_3 Zr3_3 1_555 1_555
C30_4 C31_4 1_555 1_555
C36_4 C37_4 1_555 1_555
C40_5 C41_4 1_555 1_555
C46_5 C47_5 1_555 1_555
Zr3_3 O16_3 1_555 1_555
O13_3 Zr8_2 1_555 1_555
O16_3 Zr10_2 1_555 1_555
C54_4 C55_4 1_555 1_555
Zr8_2 O26_3 1_555 1_555
Zr8_2 O28_3 1_555 1_555
Zr10_2 O26_3 1_555 1_555
Zr10_2 O27_3 1_555 1_555
Zr12_2 O27_3 1_555 1_555
Zr12_2 O28_3 1_555 1_555
O19_2 C49_5 1_555 1_555
C50_5 C49_5 1_555 1_555
C54_5 C53_5 1_555 1_555
H31_5 C54_5 1_555 1_555
C55_5 C50_5 1_555 1_555
H32_5 C55_5 1_555 1_555
C56_3 C53_5 1_555 1_555
C60_3 C59_3 1_555 1_555
H34_3 C60_3 1_555 1_555
C61_3 C56_3 1_555 1_555
H35_3 C61_3 1_555 1_555
C65_3 C59_3 1_555 1_555
H38_3 C65_3 1_555 1_555
C54_5 C55_5 1_555 1_555
C60_3 C61_3 1_555 1_555
O18_2 C25_5 1_555 1_555
C26_5 C25_5 1_555 1_555
C30_5 C29_5 1_555 1_555
H17_5 C30_5 1_555 1_555
C31_5 C26_5 1_555 1_555
H18_5 C31_5 1_555 1_555
C32_5 C29_5 1_555 1_555
C36_5 C35_5 1_555 1_555
H20_5 C36_5 1_555 1_555
C37_5 C32_5 1_555 1_555
H21_5 C37_5 1_555 1_555
C41_5 C35_5 1_555 1_555
H24_5 C41_5 1_555 1_555
C30_5 C31_5 1_555 1_555
C36_5 C37_5 1_555 1_555
O17_2 C1_5 1_555 1_555
C1_5 C2_5 1_555 1_555
C6_5 C5_5 1_555 1_555
H3_5 C6_5 1_555 1_555
C7_5 C2_5 1_555 1_555
H4_5 C7_5 1_555 1_555
C8_3 C5_5 1_555 1_555
C12_3 C11_3 1_555 1_555
H6_3 C12_3 1_555 1_555
C13_3 C8_3 1_555 1_555
H7_3 C13_3 1_555 1_555
C17_3 C11_3 1_555 1_555
H10_3 C17_3 1_555 1_555
C6_5 C7_5 1_555 1_555
C12_3 C13_3 1_555 1_555
O22_3 C72_5 1_555 1_555
O25_3 C72_5 1_555 1_555
C72_5 C69_5 1_555 1_555
O21_3 C48_5 1_555 1_555
O24_3 C48_5 1_555 1_555
C48_5 C45_5 1_555 1_555
O20_3 C24_5 1_555 1_555
O23_3 C24_5 1_555 1_555
C24_5 C21_5 1_555 1_555
H27_6 C46_6 1_555 1_555
H28_6 C47_6 1_555 1_555
C46_6 C47_6 1_555 1_555
Zr8_2 O1_6 1_555 1_555
O1_6 C1_6 1_555 1_555
O17_3 C1_6 1_555 1_555
O23_2 C24_6 1_555 1_555
O5_12 Zr8_2 1_555 1_555
C1_6 C2_6 1_555 1_555
C2_6 C3_6 1_555 1_555
C3_6 H1_6 1_555 1_555
C4_6 C3_6 1_555 1_555
H2_6 C4_6 1_555 1_555
C5_6 C4_6 1_555 1_555
C6_6 C5_6 1_555 1_555
H3_6 C6_6 1_555 1_555
C7_6 C2_6 1_555 1_555
H4_6 C7_6 1_555 1_555
C8_4 C5_6 1_555 1_555
C9_4 C8_4 1_555 1_555
H5_4 C9_4 1_555 1_555
C10_4 C9_4 1_555 1_555
C11_4 C10_4 1_555 1_555
C12_4 C11_4 1_555 1_555
H6_4 C12_4 1_555 1_555
C13_4 C8_4 1_555 1_555
H7_4 C13_4 1_555 1_555
C14_4 C10_4 1_555 1_555
H8_4 C14_4 1_555 1_555
C15_4 C14_4 1_555 1_555
C16_4 C15_4 1_555 1_555
H9_4 C16_4 1_555 1_555
C17_4 C11_4 1_555 1_555
H10_4 C17_4 1_555 1_555
C18_4 C15_4 1_555 1_555
C19_4 C18_4 1_555 1_555
H11_4 C19_4 1_555 1_555
C20_4 C19_4 1_555 1_555
H12_6 C20_4 1_555 1_555
C21_6 C20_4 1_555 1_555
C24_6 C21_6 1_555 1_555
Zr10_2 O5_12 1_555 1_555
O7_6 Zr10_2 1_555 1_555
O18_3 C25_6 1_555 1_555
O24_2 C48_6 1_555 1_555
C25_6 O7_6 1_555 1_555
C26_6 C25_6 1_555 1_555
C27_6 C26_6 1_555 1_555
H15_6 C27_6 1_555 1_555
C28_6 C27_6 1_555 1_555
H16_6 C28_6 1_555 1_555
C29_6 C28_6 1_555 1_555
C30_6 C29_6 1_555 1_555
H17_6 C30_6 1_555 1_555
C31_6 C26_6 1_555 1_555
H18_6 C31_6 1_555 1_555
C32_6 C29_6 1_555 1_555
C33_6 C32_6 1_555 1_555
H19_6 C33_6 1_555 1_555
C34_6 C33_6 1_555 1_555
C35_6 C34_6 1_555 1_555
C36_6 C35_6 1_555 1_555
H20_6 C36_6 1_555 1_555
C37_6 C32_6 1_555 1_555
H21_6 C37_6 1_555 1_555
C38_6 C34_6 1_555 1_555
H22_6 C38_6 1_555 1_555
C39_6 C38_6 1_555 1_555
C40_6 C39_6 1_555 1_555
H23_6 C40_6 1_555 1_555
C41_6 C35_6 1_555 1_555
H24_6 C41_6 1_555 1_555
C42_6 C39_6 1_555 1_555
C43_6 C42_6 1_555 1_555
H25_6 C43_6 1_555 1_555
C44_6 C43_6 1_555 1_555
H26_6 C44_6 1_555 1_555
C45_6 C44_6 1_555 1_555
C48_6 C45_6 1_555 1_555
Zr12_2 O5_12 1_555 1_555
O12_6 Zr12_2 1_555 1_555
O19_3 C49_6 1_555 1_555
O22_2 C72_6 1_555 1_555
O25_2 C72_6 1_555 1_555
C49_6 O12_6 1_555 1_555
C50_6 C49_6 1_555 1_555
C51_6 C50_6 1_555 1_555
H29_6 C51_6 1_555 1_555
C52_6 C51_6 1_555 1_555
H30_6 C52_6 1_555 1_555
C53_6 C52_6 1_555 1_555
C54_6 C53_6 1_555 1_555
H31_6 C54_6 1_555 1_555
C55_6 C50_6 1_555 1_555
H32_6 C55_6 1_555 1_555
C56_4 C53_6 1_555 1_555
C57_4 C56_4 1_555 1_555
H33_4 C57_4 1_555 1_555
C58_4 C57_4 1_555 1_555
C59_4 C58_4 1_555 1_555
C60_4 C59_4 1_555 1_555
H34_4 C60_4 1_555 1_555
C61_4 C56_4 1_555 1_555
H35_4 C61_4 1_555 1_555
C62_4 C58_4 1_555 1_555
H36_4 C62_4 1_555 1_555
C63_4 C62_4 1_555 1_555
C64_4 C63_4 1_555 1_555
H37_4 C64_4 1_555 1_555
C65_4 C59_4 1_555 1_555
H38_4 C65_4 1_555 1_555
C66_4 C63_4 1_555 1_555
C67_4 C66_4 1_555 1_555
H39_4 C67_4 1_555 1_555
C68_4 C67_4 1_555 1_555
H40_6 C68_4 1_555 1_555
C69_6 C68_4 1_555 1_555
C70_4 C69_6 1_555 1_555
H41_4 C70_4 1_555 1_555
C71_4 C66_4 1_555 1_555
H42_4 C71_4 1_555 1_555
C72_6 C69_6 1_555 1_555
C6_6 C7_6 1_555 1_555
C12_4 C13_4 1_555 1_555
C16_4 C17_4 1_555 1_555
C30_6 C31_6 1_555 1_555
C36_6 C37_6 1_555 1_555
C40_6 C41_6 1_555 1_555
C54_6 C55_6 1_555 1_555
C60_4 C61_4 1_555 1_555
C64_4 C65_4 1_555 1_555
C70_4 C71_4 1_555 1_555
H13_4 C22_4 1_555 1_555
H14_4 C23_4 1_555 1_555
C22_4 C23_4 1_555 1_555
C9_5 C8_5 1_555 1_555
H5_5 C9_5 1_555 1_555
C10_5 C9_5 1_555 1_555
C11_5 C10_5 1_555 1_555
C12_5 C11_5 1_555 1_555
H6_5 C12_5 1_555 1_555
C13_5 C8_5 1_555 1_555
H7_5 C13_5 1_555 1_555
C14_5 C10_5 1_555 1_555
H8_5 C14_5 1_555 1_555
C15_5 C14_5 1_555 1_555
C16_5 C15_5 1_555 1_555
H9_5 C16_5 1_555 1_555
C17_5 C11_5 1_555 1_555
H10_5 C17_5 1_555 1_555
C18_5 C15_5 1_555 1_555
C19_5 C18_5 1_555 1_555
H11_5 C19_5 1_555 1_555
C20_5 C19_5 1_555 1_555
H13_5 C22_5 1_555 1_555
C23_5 C18_5 1_555 1_555
H14_5 C23_5 1_555 1_555
C12_5 C13_5 1_555 1_555
C16_5 C17_5 1_555 1_555
C22_5 C23_5 1_555 1_555
C57_5 C56_5 1_555 1_555
H33_5 C57_5 1_555 1_555
C58_5 C57_5 1_555 1_555
C59_5 C58_5 1_555 1_555
C60_5 C59_5 1_555 1_555
H34_5 C60_5 1_555 1_555
C61_5 C56_5 1_555 1_555
H35_5 C61_5 1_555 1_555
C62_5 C58_5 1_555 1_555
H36_5 C62_5 1_555 1_555
C63_5 C62_5 1_555 1_555
C64_5 C63_5 1_555 1_555
H37_5 C64_5 1_555 1_555
C65_5 C59_5 1_555 1_555
H38_5 C65_5 1_555 1_555
C66_5 C63_5 1_555 1_555
C67_5 C66_5 1_555 1_555
H39_5 C67_5 1_555 1_555
C68_5 C67_5 1_555 1_555
H41_5 C70_5 1_555 1_555
C71_5 C66_5 1_555 1_555
H42_5 C71_5 1_555 1_555
C60_5 C61_5 1_555 1_555
C64_5 C65_5 1_555 1_555
C70_5 C71_5 1_555 1_555
C57_6 C56_6 1_555 1_555
H33_6 C57_6 1_555 1_555
C58_6 C57_6 1_555 1_555
C59_6 C58_6 1_555 1_555
C60_6 C59_6 1_555 1_555
H34_6 C60_6 1_555 1_555
C61_6 C56_6 1_555 1_555
H35_6 C61_6 1_555 1_555
C62_6 C58_6 1_555 1_555
H36_6 C62_6 1_555 1_555
C63_6 C62_6 1_555 1_555
C64_6 C63_6 1_555 1_555
H37_6 C64_6 1_555 1_555
C65_6 C59_6 1_555 1_555
H38_6 C65_6 1_555 1_555
C66_6 C63_6 1_555 1_555
C67_6 C66_6 1_555 1_555
H39_6 C67_6 1_555 1_555
C68_6 C67_6 1_555 1_555
H41_6 C70_6 1_555 1_555
C71_6 C66_6 1_555 1_555
H42_6 C71_6 1_555 1_555
C60_6 C61_6 1_555 1_555
C64_6 C65_6 1_555 1_555
C70_6 C71_6 1_555 1_555
C9_6 C8_6 1_555 1_555
H5_6 C9_6 1_555 1_555
C10_6 C9_6 1_555 1_555
C11_6 C10_6 1_555 1_555
C12_6 C11_6 1_555 1_555
H6_6 C12_6 1_555 1_555
C13_6 C8_6 1_555 1_555
H7_6 C13_6 1_555 1_555
C14_6 C10_6 1_555 1_555
H8_6 C14_6 1_555 1_555
C15_6 C14_6 1_555 1_555
C16_6 C15_6 1_555 1_555
H9_6 C16_6 1_555 1_555
C17_6 C11_6 1_555 1_555
H10_6 C17_6 1_555 1_555
C18_6 C15_6 1_555 1_555
C19_6 C18_6 1_555 1_555
H11_6 C19_6 1_555 1_555
C20_6 C19_6 1_555 1_555
H13_6 C22_6 1_555 1_555
C23_6 C18_6 1_555 1_555
H14_6 C23_6 1_555 1_555
C12_6 C13_6 1_555 1_555
C16_6 C17_6 1_555 1_555
C22_6 C23_6 1_555 1_555

#END
