
###############################################################################
#
# This file contains modified crystal structure data generated from the
# MOF subset of the Cambridge Structural Database (CSD) v543 
# hosted by the Cambridge Crystallographic Data Centre (CCDC).
#
# This work is licensed under the Creative Commons
# Attribution-NonCommercial-ShareAlike 4.0 International License.
# To view a copy of this license, visit
# http://creativecommons.org/licenses/by-nc-sa/4.0/
# or send a letter to
# Creative Commons, PO Box 1866, Mountain View, CA 94042, USA.
#
# CIF created using the CSD Python API on 29 September 2022
# The structure has been converted into the P1 space group
# The structure has a 3D framework
# The original CSD entry BIMDEF is in the monoclinic crystal system
# The framework has been calculated to contain at least 10.0% void space
# The void calculation uses a probe of radius 1.32A, grid spacing 0.4
#
###############################################################################

data_BIMDEF
_chemical_formula_moiety         '(C60 H64 Cu8 O40)n'
_symmetry_cell_setting           triclinic
_symmetry_space_group_name_H-M   'P 1'
_symmetry_Int_Tables_number      1
_space_group_name_Hall           'P 1'
loop_
_symmetry_equiv_pos_site_id
_symmetry_equiv_pos_as_xyz
1 x,y,z
_cell_length_a                   12.9658(2)
_cell_length_b                   11.220
_cell_length_c                   14.3359(2)
_cell_angle_alpha                90
_cell_angle_beta                 93.8570(10)
_cell_angle_gamma                90
_cell_volume                     2080.81
loop_
_atom_site_label
_atom_site_type_symbol
_atom_site_fract_x
_atom_site_fract_y
_atom_site_fract_z
Cu1 Cu 0.1843(1) 0.1614(1) 0.4900(1)
O1 O 0.1038(2) 0.2726(2) 0.4067(2)
O2 O 0.2204(2) 0.4193(2) 0.4181(2)
O5 O 0.0982(3) 0.0065(3) 0.4447(4)
C1 C 0.1366(2) 0.3743(3) 0.3855(2)
C2 C 0.0687(2) 0.4506(3) 0.3168(2)
C6 C 0.1375(2) 0.5312(3) 0.2597(2)
C7 C -0.0000 0.3719(4) 0.2500
C8 C -0.0000 0.6905(4) 0.2500
H2 H 0.0640(60) 0.0100(70) 0.4090(60)
H3 H 0.0436 0.5813 0.4174
H5 H 0.1814 0.5820 0.3025
H6 H 0.1833 0.4812 0.2233
H8 H 0.0440 0.3201 0.2133
H10 H 0.0434 0.7422 0.2927
C12 C 0.0002(2) 0.5304(3) 0.1255(2)
C13 C 0.0695(2) 0.6100(2) 0.1929(2)
C14 C 0.1377(2) 0.6800(3) 0.1281(2)
O8 O 0.1063(2) 0.7784(2) 0.0951(2)
O9 O 0.2196(2) 0.6287(2) 0.1077(2)
H12 H 0.0441 0.4802 0.0875
Cu3 Cu 0.3157(1) 0.3386(1) 0.5100(1)
O11 O 0.2796(2) 0.0807(2) 0.5819(2)
O12 O 0.1063(2) 0.2216(2) 0.5951(2)
O13 O 0.2804(2) 0.1287(2) 0.3923(2)
Cu8 Cu 0.3157(1) 0.6614(1) 0.0100(1)
Cu7 Cu 0.1843(1) 0.8386(1) 0.9900(1)
O3 O 0.8937(2) 0.7784(2) 0.4049(2)
O4 O 0.7804(2) 0.6287(2) 0.3923(2)
C3 C 0.9998(2) 0.5304(3) 0.3745(2)
C4 C 0.9305(2) 0.6100(2) 0.3071(2)
C5 C 0.8623(2) 0.6800(3) 0.3719(2)
C7_2 C 1.0000 0.3719(4) 0.2500
C8_2 C 1.0000 0.6905(4) 0.2500
H4 H 0.9559 0.4802 0.4125
H7 H 0.9560 0.3201 0.2867
H9 H 0.9566 0.7421 0.2073
C9 C 0.8625(2) 0.5312(3) 0.2403(2)
C10 C 0.9313(2) 0.4506(3) 0.1832(2)
C11 C 0.8634(2) 0.3743(3) 0.1145(2)
O6 O 0.8962(2) 0.2726(2) 0.0933(2)
O7 O 0.7796(2) 0.4193(2) 0.0819(2)
H11 H 0.9564 0.5813 0.0826
H13 H 0.8186 0.5820 0.1975
H14 H 0.8167 0.4812 0.2767
Cu2 Cu 0.8157(1) 0.1614(1) 0.0100(1)
O10 O 0.9018(3) 0.0065(3) 0.0553(4)
H16 H 0.9360(60) 0.0100(70) 0.0910(60)
Cu4 Cu 0.8157(1) 0.8386(1) 0.5100(1)
Cu5 Cu 0.6843(1) 0.6614(1) 0.4900(1)
O16 O 0.7196(2) 0.1287(2) 0.1077(2)
Cu6 Cu 0.6843(1) 0.3386(1) 0.9900(1)
O14 O 0.7204(2) 0.0807(2) 0.9181(2)
O15 O 0.8937(2) 0.2216(2) 0.9049(2)
O3_2 O 0.3937(2) 0.2784(2) 0.4049(2)
C3_2 C 0.4998(2) 0.0304(3) 0.3745(2)
C4_2 C 0.4305(2) 0.1100(2) 0.3071(2)
C5_2 C 0.3623(2) 0.1800(3) 0.3719(2)
C6_2 C 0.6375(2) 0.0312(3) 0.2597(2)
C8_3 C 0.5000 0.1905(4) 0.2500
H3_2 H 0.5436 0.0813 0.4174
H5_2 H 0.6814 0.0820 0.3025
H9_2 H 0.4566 0.2421 0.2073
H10_2 H 0.5434 0.2422 0.2927
C9_2 C 0.3625(2) 0.0312(3) 0.2403(2)
C12_2 C 0.5002(2) 0.0304(3) 0.1255(2)
C13_2 C 0.5695(2) 0.1100(2) 0.1929(2)
C14_2 C 0.6377(2) 0.1800(3) 0.1281(2)
O8_2 O 0.6063(2) 0.2784(2) 0.0951(2)
H11_2 H 0.4564 0.0813 0.0826
H13_2 H 0.3186 0.0820 0.1975
O1_2 O 0.6038(2) 0.7726(2) 0.4067(2)
O2_2 O 0.7204(2) 0.9193(2) 0.4181(2)
O5_2 O 0.5982(3) 0.5065(3) 0.4447(4)
C1_2 C 0.6366(2) 0.8743(3) 0.3855(2)
C2_2 C 0.5687(2) 0.9506(3) 0.3168(2)
C7_3 C 0.5000 0.8719(4) 0.2500
H1 H 0.5890(50) 0.4600(60) 0.4900(50)
H2_2 H 0.5640(60) 0.5100(70) 0.4090(60)
H4_2 H 0.4559 0.9802 0.4125
H6_2 H 0.6833 0.9812 0.2233
H7_2 H 0.4560 0.8201 0.2867
H8_2 H 0.5440 0.8201 0.2133
C10_2 C 0.4313(2) 0.9506(3) 0.1832(2)
C11_2 C 0.3634(2) 0.8743(3) 0.1145(2)
O6_2 O 0.3962(2) 0.7726(2) 0.0933(2)
O7_2 O 0.2796(2) 0.9193(2) 0.0819(2)
H12_2 H 0.5441 0.9802 0.0875
H14_2 H 0.3167 0.9812 0.2767
O10_2 O 0.4018(3) 0.5065(3) 0.0553(4)
H15 H 0.4110(50) 0.4600(60) 0.0100(50)
H16_2 H 0.4360(60) 0.5100(70) 0.0910(60)
O11_2 O 0.7796(2) 0.5807(2) 0.5819(2)
O12_2 O 0.6063(2) 0.7216(2) 0.5951(2)
O14_2 O 0.2204(2) 0.5807(2) 0.9181(2)
O15_2 O 0.3937(2) 0.7216(2) 0.9049(2)
O4_2 O 0.2196(2) 0.3713(2) 0.6077(2)
C3_3 C 0.0002(2) 0.4696(3) 0.6255(2)
C4_3 C 0.0695(2) 0.3900(2) 0.6929(2)
C5_3 C 0.1377(2) 0.3200(3) 0.6281(2)
C7_4 C -0.0000 0.6281(4) 0.7500
C8_4 C -0.0000 0.3095(4) 0.7500
H4_3 H 0.0441 0.5198 0.5875
H7_3 H 0.0440 0.6799 0.7133
H9_3 H 0.0434 0.2579 0.7927
C9_3 C 0.1375(2) 0.4688(3) 0.7597(2)
C10_3 C 0.0687(2) 0.5494(3) 0.8168(2)
C11_3 C 0.1366(2) 0.6257(3) 0.8855(2)
O6_3 O 0.1038(2) 0.7274(2) 0.9067(2)
H11_3 H 0.0436 0.4187 0.9174
H13_3 H 0.1814 0.4180 0.8025
H14_3 H 0.1833 0.5188 0.7233
O10_3 O 0.0982(3) 0.9935(3) 0.9447(4)
H16_3 H 0.0640(60) 0.9900(70) 0.9090(60)
O16_2 O 0.2804(2) 0.8713(2) 0.8923(2)
O1_3 O 0.8962(2) 0.7274(2) 0.5933(2)
O5_3 O 0.9018(3) 0.9935(3) 0.5553(4)
C1_3 C 0.8634(2) 0.6257(3) 0.6145(2)
C2_3 C 0.9313(2) 0.5494(3) 0.6832(2)
C6_3 C 0.8625(2) 0.4688(3) 0.7403(2)
C7_5 C 1.0000 0.6281(4) 0.7500
C8_5 C 1.0000 0.3095(4) 0.7500
H2_3 H 0.9360(60) 0.9900(70) 0.5910(60)
H3_3 H 0.9564 0.4187 0.5826
H5_3 H 0.8186 0.4180 0.6975
H6_3 H 0.8167 0.5188 0.7767
H8_3 H 0.9560 0.6799 0.7867
H10_3 H 0.9566 0.2578 0.7073
C12_3 C 0.9998(2) 0.4696(3) 0.8745(2)
C13_3 C 0.9305(2) 0.3900(2) 0.8071(2)
C14_3 C 0.8623(2) 0.3200(3) 0.8719(2)
O9_2 O 0.7804(2) 0.3713(2) 0.8923(2)
H12_3 H 0.9559 0.5198 0.9125
O13_2 O 0.7196(2) 0.8713(2) 0.6077(2)
O1_4 O 0.3962(2) 0.2274(2) 0.5933(2)
O5_4 O 0.4018(3) 0.4935(3) 0.5553(4)
C1_4 C 0.3634(2) 0.1257(3) 0.6145(2)
C2_4 C 0.4313(2) 0.0494(3) 0.6832(2)
C7_6 C 0.5000 0.1281(4) 0.7500
H1_2 H 0.4110(50) 0.5400(60) 0.5100(50)
H2_4 H 0.4360(60) 0.4900(70) 0.5910(60)
H4_4 H 0.5441 0.0198 0.5875
H6_4 H 0.3167 0.0188 0.7767
H7_4 H 0.5440 0.1799 0.7133
H8_4 H 0.4560 0.1799 0.7867
C10_4 C 0.5687(2) 0.0494(3) 0.8168(2)
C11_4 C 0.6366(2) 0.1257(3) 0.8855(2)
O6_4 O 0.6038(2) 0.2274(2) 0.9067(2)
H12_4 H 0.4559 0.0198 0.9125
H14_4 H 0.6833 0.0188 0.7233
O10_4 O 0.5982(3) 0.4935(3) 0.9447(4)
H15_2 H 0.5890(50) 0.5400(60) 0.9900(50)
H16_4 H 0.5640(60) 0.4900(70) 0.9090(60)
C3_4 C 0.5002(2) 0.9696(3) 0.6255(2)
C4_4 C 0.5695(2) 0.8900(2) 0.6929(2)
C5_4 C 0.6377(2) 0.8200(3) 0.6281(2)
C6_4 C 0.3625(2) 0.9688(3) 0.7403(2)
C8_6 C 0.5000 0.8095(4) 0.7500
H3_4 H 0.4564 0.9187 0.5826
H5_4 H 0.3186 0.9180 0.6975
H9_4 H 0.5434 0.7579 0.7927
H10_4 H 0.4566 0.7578 0.7073
C9_4 C 0.6375(2) 0.9688(3) 0.7597(2)
C12_4 C 0.4998(2) 0.9696(3) 0.8745(2)
C13_4 C 0.4305(2) 0.8900(2) 0.8071(2)
C14_4 C 0.3623(2) 0.8200(3) 0.8719(2)
H11_4 H 0.5436 0.9187 0.9174
H13_4 H 0.6814 0.9180 0.8025
H1_3 H 0.0890(50) 0.9600(60) 0.4900(50)
H15_3 H 0.9110(50) 0.9600(60) 0.0100(50)
H15_4 H 0.0890(50) 0.0400(60) 0.9900(50)
H1_4 H 0.9110(50) 0.0400(60) 0.5100(50)
loop_
_geom_bond_atom_site_label_1
_geom_bond_atom_site_label_2
_geom_bond_site_symmetry_1
_geom_bond_site_symmetry_2
Cu1 O1 1_555 1_555
O1 C1 1_555 1_555
O2 C1 1_555 1_555
O5 Cu1 1_555 1_555
C1 C2 1_555 1_555
C6 C2 1_555 1_555
C7 C2 1_555 1_555
H2 O5 1_555 1_555
H5 C6 1_555 1_555
H6 C6 1_555 1_555
H8 C7 1_555 1_555
H10 C8 1_555 1_555
C13 C6 1_555 1_555
C14 C13 1_555 1_555
O8 C14 1_555 1_555
O9 C14 1_555 1_555
H12 C12 1_555 1_555
Cu3 Cu1 1_555 1_555
O11 Cu1 1_555 1_555
O12 Cu1 1_555 1_555
O13 Cu1 1_555 1_555
Cu8 O9 1_555 1_555
O2 Cu3 1_555 1_555
C8 C13 1_555 1_555
C12 C13 1_555 1_555
O3 C5 1_555 1_555
O4 C5 1_555 1_555
C3 C4 1_555 1_555
C4 C5 1_555 1_555
C8_2 C4 1_555 1_555
H4 C3 1_555 1_555
H7 C7_2 1_555 1_555
H9 C8_2 1_555 1_555
C9 C4 1_555 1_555
C10 C7_2 1_555 1_555
C11 C10 1_555 1_555
O6 C11 1_555 1_555
O7 C11 1_555 1_555
H13 C9 1_555 1_555
H14 C9 1_555 1_555
Cu2 O6 1_555 1_555
O10 Cu2 1_555 1_555
H16 O10 1_555 1_555
Cu4 O3 1_555 1_555
Cu5 O4 1_555 1_555
O16 Cu2 1_555 1_555
C9 C10 1_555 1_555
Cu4 Cu5 1_555 1_555
O3_2 C5_2 1_555 1_555
O13 C5_2 1_555 1_555
C3_2 C4_2 1_555 1_555
C4_2 C5_2 1_555 1_555
C8_3 C4_2 1_555 1_555
H3_2 C3_2 1_555 1_555
H5_2 C6_2 1_555 1_555
H9_2 C8_3 1_555 1_555
H10_2 C8_3 1_555 1_555
C9_2 C4_2 1_555 1_555
C13_2 C6_2 1_555 1_555
C14_2 C13_2 1_555 1_555
O8_2 C14_2 1_555 1_555
O16 C14_2 1_555 1_555
H11_2 C12_2 1_555 1_555
H13_2 C9_2 1_555 1_555
Cu3 O3_2 1_555 1_555
C8_3 C13_2 1_555 1_555
C12_2 C13_2 1_555 1_555
Cu5 O1_2 1_555 1_555
O1_2 C1_2 1_555 1_555
O2_2 C1_2 1_555 1_555
O5_2 Cu5 1_555 1_555
C1_2 C2_2 1_555 1_555
C7_3 C2_2 1_555 1_555
H1 O5_2 1_555 1_555
H2_2 O5_2 1_555 1_555
H7_2 C7_3 1_555 1_555
H8_2 C7_3 1_555 1_555
C10_2 C7_3 1_555 1_555
C11_2 C10_2 1_555 1_555
O6_2 C11_2 1_555 1_555
O7_2 C11_2 1_555 1_555
Cu8 O6_2 1_555 1_555
O10_2 Cu8 1_555 1_555
H15 O10_2 1_555 1_555
H16_2 O10_2 1_555 1_555
O11_2 Cu5 1_555 1_555
O12_2 Cu5 1_555 1_555
O2_2 Cu4 1_555 1_555
O12 C5_3 1_555 1_555
O4_2 C5_3 1_555 1_555
C3_3 C4_3 1_555 1_555
C4_3 C5_3 1_555 1_555
C8_4 C4_3 1_555 1_555
H4_3 C3_3 1_555 1_555
H7_3 C7_4 1_555 1_555
H9_3 C8_4 1_555 1_555
C9_3 C4_3 1_555 1_555
C10_3 C7_4 1_555 1_555
C11_3 C10_3 1_555 1_555
O6_3 C11_3 1_555 1_555
O14_2 C11_3 1_555 1_555
H13_3 C9_3 1_555 1_555
H14_3 C9_3 1_555 1_555
Cu7 O6_3 1_555 1_555
O10_3 Cu7 1_555 1_555
H16_3 O10_3 1_555 1_555
Cu3 O4_2 1_555 1_555
O16_2 Cu7 1_555 1_555
C9_3 C10_3 1_555 1_555
Cu4 O1_3 1_555 1_555
O1_3 C1_3 1_555 1_555
O11_2 C1_3 1_555 1_555
O5_3 Cu4 1_555 1_555
C1_3 C2_3 1_555 1_555
C6_3 C2_3 1_555 1_555
C7_5 C2_3 1_555 1_555
H2_3 O5_3 1_555 1_555
H5_3 C6_3 1_555 1_555
H6_3 C6_3 1_555 1_555
H8_3 C7_5 1_555 1_555
H10_3 C8_5 1_555 1_555
C13_3 C6_3 1_555 1_555
C14_3 C13_3 1_555 1_555
O15 C14_3 1_555 1_555
O9_2 C14_3 1_555 1_555
H12_3 C12_3 1_555 1_555
O13_2 Cu4 1_555 1_555
Cu6 O9_2 1_555 1_555
C8_5 C13_3 1_555 1_555
C12_3 C13_3 1_555 1_555
Cu3 O1_4 1_555 1_555
O1_4 C1_4 1_555 1_555
O11 C1_4 1_555 1_555
O5_4 Cu3 1_555 1_555
C1_4 C2_4 1_555 1_555
C7_6 C2_4 1_555 1_555
H1_2 O5_4 1_555 1_555
H2_4 O5_4 1_555 1_555
H7_4 C7_6 1_555 1_555
H8_4 C7_6 1_555 1_555
C10_4 C7_6 1_555 1_555
C11_4 C10_4 1_555 1_555
O6_4 C11_4 1_555 1_555
O14 C11_4 1_555 1_555
Cu6 O6_4 1_555 1_555
O10_4 Cu6 1_555 1_555
H15_2 O10_4 1_555 1_555
H16_4 O10_4 1_555 1_555
O12_2 C5_4 1_555 1_555
O13_2 C5_4 1_555 1_555
C3_4 C4_4 1_555 1_555
C4_4 C5_4 1_555 1_555
C8_6 C4_4 1_555 1_555
H3_4 C3_4 1_555 1_555
H5_4 C6_4 1_555 1_555
H9_4 C8_6 1_555 1_555
H10_4 C8_6 1_555 1_555
C9_4 C4_4 1_555 1_555
C13_4 C6_4 1_555 1_555
C14_4 C13_4 1_555 1_555
O15_2 C14_4 1_555 1_555
O16_2 C14_4 1_555 1_555
H11_4 C12_4 1_555 1_555
H13_4 C9_4 1_555 1_555
C8_6 C13_4 1_555 1_555
C12_4 C13_4 1_555 1_555

#END
