
###############################################################################
#
# This file contains modified crystal structure data generated from the
# MOF subset of the Cambridge Structural Database (CSD) v543 
# hosted by the Cambridge Crystallographic Data Centre (CCDC).
#
# This work is licensed under the Creative Commons
# Attribution-NonCommercial-ShareAlike 4.0 International License.
# To view a copy of this license, visit
# http://creativecommons.org/licenses/by-nc-sa/4.0/
# or send a letter to
# Creative Commons, PO Box 1866, Mountain View, CA 94042, USA.
#
# CIF created using the CSD Python API on 29 September 2022
# The structure has been converted into the P1 space group
# The structure has a 3D framework
# The original CSD entry BIPLIX is in the triclinic crystal system
# The framework has been calculated to contain at least 10.0% void space
# The void calculation uses a probe of radius 1.32A, grid spacing 0.4
# H atom positions have been added when not included in the experimental data
#
###############################################################################

data_BIPLIX
_chemical_formula_moiety         '(C168 H100 Co4 N24 O60 Zn10)n'
_symmetry_cell_setting           triclinic
_symmetry_space_group_name_H-M   'P 1'
_symmetry_Int_Tables_number      1
_space_group_name_Hall           'P 1'
loop_
_symmetry_equiv_pos_site_id
_symmetry_equiv_pos_as_xyz
1 x,y,z
_cell_length_a                   16.082(5)
_cell_length_b                   17.074(5)
_cell_length_c                   27.878(5)
_cell_angle_alpha                92.586(5)
_cell_angle_beta                 105.969(5)
_cell_angle_gamma                117.000(5)
_cell_volume                     6426.87
loop_
_atom_site_label
_atom_site_type_symbol
_atom_site_fract_x
_atom_site_fract_y
_atom_site_fract_z
O37 O 0.7065(5) 0.0328(5) 0.3233(3)
C59 C 0.9159(7) 0.0087(7) 0.3201(4)
C60 C 0.8614(6) 0.0490(6) 0.3246(3)
C62 C 0.9005(7) 0.1406(7) 0.3251(4)
H32 H 0.8616 0.1684 0.3269
C63 C 0.9932(7) 0.1912(6) 0.3230(4)
H6 H 0.3577 0.0019 0.9981
C42 C 0.2893(7) 0.0601(6) 0.8009(4)
C43 C 0.4203(6) 0.3267(6) 0.6457(3)
C44 C 0.4133(6) 0.3263(6) 0.5904(3)
C45 C 0.4143(6) 0.2580(6) 0.5631(4)
H23 H 0.4194 0.2117 0.5791
C46 C 0.4082(7) 0.2558(6) 0.5129(3)
H24 H 0.4053 0.2064 0.4939
C47 C 0.4061(6) 0.3265(5) 0.4895(3)
C48 C 0.4073(6) 0.3959(6) 0.5178(3)
H25 H 0.4059 0.4443 0.5028
C49 C 0.4108(6) 0.3954(6) 0.5685(3)
H26 H 0.4113 0.4432 0.5876
C50 C 0.4673(6) 0.3607(6) 0.4199(3)
C51 C 0.4307(5) 0.3455(5) 0.3632(3)
C52 C 0.4863(7) 0.3754(7) 0.3311(4)
H27 H 0.5557 0.4144 0.3448
C53 C 0.4398(8) 0.3481(8) 0.2795(4)
H28 H 0.4776 0.3661 0.2572
C54 C 0.3398(7) 0.2953(7) 0.2599(4)
H29 H 0.3078 0.2786 0.2241
C55 C 0.2846(6) 0.2660(6) 0.2920(3)
C56 C 0.1779(6) 0.2101(6) 0.2811(4)
C57 C 0.0495(6) 0.1484(6) 0.3194(3)
C58 C 0.0101(7) 0.0569(7) 0.3177(4)
H30 H 0.0473 0.0279 0.3148
H33 H 0.0196 0.2538 0.3240
C65 C 0.3676(7) 0.0135(7) 0.3079(4)
C67 C 0.2318(8) 0.0261(9) 0.3191(5)
H35 H 0.1628 0.0064 0.3079
C68 C 0.2977(6) 0.1018(6) 0.3597(4)
C69 C 0.3976(7) 0.1342(6) 0.3701(4)
H36 H 0.4431 0.1872 0.3951
C70 C 0.4335(7) 0.0910(7) 0.3449(5)
H37 H 0.5028 0.1143 0.3529
C71 C 0.2169(7) 0.0914(6) 0.4180(4)
C72 C 0.1712(7) 0.1334(7) 0.4434(4)
C73 C 0.1195(9) 0.0998(7) 0.4750(5)
H38 H 0.1059 0.0426 0.4830
C74 C 0.0875(10) 0.1508(8) 0.4951(5)
H39 H 0.0536 0.1297 0.5188
C75 C 0.1026(8) 0.2312(7) 0.4822(4)
H40 H 0.0797 0.2663 0.4961
C76 C 0.1532(6) 0.2593(6) 0.4478(3)
C77 C 0.1786(6) 0.3451(5) 0.4288(4)
C78 C 0.2575(6) 0.4337(5) 0.3769(3)
C79 C 0.3222(6) 0.5191(6) 0.4103(4)
H41 H 0.3532 0.5231 0.4453
C80 C 0.3386(6) 0.5953(6) 0.3908(3)
H42 H 0.3763 0.6520 0.4134
C81 C 0.3026(6) 0.5922(5) 0.3402(3)
C82 C 0.2449(7) 0.5092(6) 0.3065(3)
H43 H 0.2202 0.5064 0.2710
C83 C 0.2239(6) 0.4307(6) 0.3255(3)
H44 H 0.1859 0.3743 0.3026
C84 C 0.3252(7) 0.6767(7) 0.3202(4)
N7 N 0.3904(5) 0.3202(4) 0.4376(2)
N8 N 0.3330(5) 0.2942(4) 0.3433(3)
N9 N 0.1510(5) 0.2011(5) 0.3220(3)
N10 N 0.2293(4) 0.3538(4) 0.3971(2)
N11 N 0.1851(5) 0.2100(5) 0.4298(3)
N12 N 0.2606(5) 0.1409(5) 0.3882(3)
O3 O 0.1578(6) 0.2137(7) 0.7512(4)
O5 O 0.2346(7) 0.2325(5) 0.8671(3)
O7 O 0.5457(5) 0.9018(5) 0.3760(3)
O14 O 0.3760(4) 0.0926(4) 0.7962(2)
O15 O 0.2461(4) 0.1031(4) 0.8055(3)
O16 O 0.3615(4) 0.2449(4) 0.7550(2)
O17 O 0.4370(4) 0.2607(4) 0.8642(2)
O18 O 0.1200(5) 0.1753(5) 0.2351(3)
O19 O 0.5543(4) 0.4004(4) 0.4459(2)
O20 O 0.2110(6) 0.0179(5) 0.4271(4)
O21 O 0.1497(5) 0.3979(4) 0.4412(3)
O22 O 0.3893(5) 0.3720(5) 0.6642(2)
O23 O 0.4564(6) 0.2859(5) 0.6696(3)
O26 O 0.2996(4) 0.6682(4) 0.2723(2)
O27 O 0.3685(5) 0.7488(5) 0.3502(3)
O30 O 0.4970(4) 0.8134(3) 0.2674(2)
Co2 Co 0.25804(7) 0.25439(7) 0.38569(4)
Zn1 Zn 0.41551(7) 0.36207(6) 0.73604(4)
Zn2 Zn 0.47203(6) 0.21738(6) 0.79810(4)
Zn3 Zn 0.28991(7) 0.23499(7) 0.80717(4)
Zn4 Zn 0.35300(6) 0.77531(6) 0.24348(4)
Zn5 Zn 0.57437(7) 0.93078(7) 0.31092(4)
O31 O 0.3477(5) 0.4265(4) 0.7531(3)
O32 O 0.3512(5) 0.3724(4) 0.8238(3)
O33 O 0.5534(4) 0.4475(4) 0.7762(3)
O34 O 0.5857(4) 0.3464(4) 0.8138(3)
O35 O 0.5790(4) 0.1898(4) 0.8436(2)
O36 O 0.2781(4) 0.7444(4) 0.1711(2)
O38 O 0.7233(5) 0.9135(6) 0.3246(3)
O39 O 0.4949(5) 0.9930(4) 0.2926(3)
O40 O 0.3375(5) 0.8763(5) 0.2658(3)
O41 O 0.5030(4) 0.1866(3) 0.7326(2)
Zn10 Zn 0.52797(6) 0.78262(6) 0.20190(4)
H45 H 0.144183 0.26328 0.758716
H46 H 0.165556 0.212069 0.7171
H47 H 0.174731 0.173622 0.861475
H48 H 0.285743 0.241583 0.899684
H49 H 0.567748 0.858282 0.387998
H50 H 0.581759 0.9576 0.402406
C22 C 0.3284(7) 0.7625(6) 0.1404(3)
C23 C 0.2753(6) 0.7236(6) 0.0871(3)
C24 C 0.1721(6) 0.6788(6) 0.0674(3)
H12 H 0.1349 0.6768 0.0890
C25 C 0.1239(6) 0.6373(6) 0.0167(3)
H13 H 0.0539 0.6111 0.0032
C27 C 0.2785(6) 0.6762(6) 0.0046(3)
C28 C 0.3243(6) 0.7181(6) 0.0557(3)
H15 H 0.3943 0.7445 0.0694
O12 O 0.4210(4) 0.8102(4) 0.1564(2)
C1 C 0.3370(6) 0.4234(6) 0.7964(4)
C2 C 0.3116(6) 0.4888(6) 0.8159(4)
C3 C 0.3067(8) 0.4936(7) 0.8653(4)
H1 H 0.3204 0.4556 0.8862
C4 C 0.2818(8) 0.5536(7) 0.8835(4)
H2 H 0.2719 0.5518 0.9155
C5 C 0.2711(6) 0.6158(6) 0.8567(4)
C6 C 0.2720(9) 0.6076(7) 0.8085(4)
H3 H 0.2584 0.6460 0.7879
C7 C 0.2917(8) 0.5460(8) 0.7880(4)
H4 H 0.2916 0.5429 0.7538
C8 C 0.3282(7) 0.7580(7) 0.9040(4)
C9 C 0.2970(6) 0.8148(5) 0.9257(3)
C10 C 0.3576(7) 0.8981(7) 0.9574(4)
H5 H 0.4273 0.9248 0.9656
C11 C 0.3167(8) 0.9436(7) 0.9774(5)
C12 C 0.2143(8) 0.9009(6) 0.9661(4)
H7 H 0.1834 0.9293 0.9786
C13 C 0.1578(6) 0.8134(6) 0.9353(4)
C14 C 0.0493(7) 0.7575(6) 0.9195(4)
C26 C 0.1755(6) 0.6333(6) 0.9857(3)
H14 H 0.3159 0.6767 0.9834
C29 C 0.0812(6) 0.5049(6) 0.9193(3)
C30 C 0.0306(6) 0.4766(5) 0.8616(3)
C34 C 0.0133(6) 0.5364(5) 0.7889(3)
C35 C 0.0465(6) 0.6236(5) 0.7726(3)
C36 C 0.1432(5) 0.7835(5) 0.8052(3)
C37 C 0.0992(6) 0.8344(5) 0.8099(4)
H19 H 0.0362 0.8085 0.8143
C38 C 0.1479(7) 0.9233(6) 0.8081(4)
H20 H 0.1178 0.9591 0.8112
C39 C 0.2377(5) 0.9619(5) 0.8020(3)
C40 C 0.2805(6) 0.9103(6) 0.7953(4)
H21 H 0.3420 0.9364 0.7892
C41 C 0.2335(6) 0.8197(6) 0.7974(4)
H22 H 0.2628 0.7835 0.7935
C64 C 0.4024(8) 0.9562(7) 0.2864(4)
C66 C 0.2678(8) 0.9826(8) 0.2968(5)
H34 H 0.2225 0.9285 0.2726
N1 N 0.2517(5) 0.6783(5) 0.8784(3)
N2 N 0.2015(5) 0.7752(4) 0.9176(3)
N3 N 0.0177(4) 0.6785(4) 0.8909(3)
N4 N 0.0984(5) 0.6916(4) 0.8116(3)
N5 N 0.0469(4) 0.5453(4) 0.8385(3)
N6 N 0.1251(5) 0.5923(4) 0.9320(3)
O1 O 0.4161(5) 0.7825(5) 0.9086(3)
O4 O 0.0269(5) 0.6290(4) 0.7265(2)
O6 O 0.0754(5) 0.4471(4) 0.9461(2)
Co1 Co 0.12351(8) 0.66048(7) 0.87833(4)
C15 C 0.9155(6) 0.6165(6) 0.8698(3)
C16 C 0.8551(6) 0.6296(6) 0.8291(3)
H8 H 0.8824 0.6813 0.8150
C17 C 0.7571(6) 0.5697(5) 0.8089(3)
H9 H 0.7161 0.5810 0.7816
C18 C 0.7164(6) 0.4921(6) 0.8277(3)
C19 C 0.7755(7) 0.4811(6) 0.8684(4)
H10 H 0.7473 0.4299 0.8828
C20 C 0.8770(6) 0.5419(6) 0.8904(4)
H11 H 0.9175 0.5317 0.9185
C21 C 0.6103(6) 0.4225(6) 0.8043(3)
C31 C 0.9740(7) 0.3895(6) 0.8338(4)
H16 H 0.9630 0.3392 0.8497
C32 C 0.9350(7) 0.3799(6) 0.7825(4)
H17 H 0.8925 0.3209 0.7627
C33 C 0.9538(7) 0.4508(6) 0.7580(4)
H18 H 0.9279 0.4422 0.7220
H31 H 0.8884 0.9459 0.3187
C61 C 0.7566(8) 0.9956(8) 0.3240(4)
O2 O 0.9931(5) 0.7823(5) 0.9307(3)
C15_2 C 0.0845(6) 0.3835(6) 0.1302(3)
C16_2 C 0.1449(6) 0.3704(6) 0.1709(3)
H8_2 H 0.1176 0.3187 0.1850
C17_2 C 0.2429(6) 0.4303(5) 0.1911(3)
H9_2 H 0.2839 0.4190 0.2184
C18_2 C 0.2836(6) 0.5079(6) 0.1723(3)
C19_2 C 0.2245(7) 0.5189(6) 0.1316(4)
H10_2 H 0.2527 0.5701 0.1172
C20_2 C 0.1230(6) 0.4581(6) 0.1096(4)
H11_2 H 0.0825 0.4683 0.0815
C21_2 C 0.3897(6) 0.5775(6) 0.1957(3)
C31_2 C 0.0260(7) 0.6105(6) 0.1662(4)
H16_2 H 0.0370 0.6608 0.1503
C32_2 C 0.0650(7) 0.6201(6) 0.2175(4)
H17_2 H 0.1075 0.6791 0.2373
C33_2 C 0.0462(7) 0.5492(6) 0.2420(4)
H18_2 H 0.0721 0.5578 0.2780
H31_2 H 0.1116 0.0541 0.6813
C61_2 C 0.2434(8) 0.0044(8) 0.6760(4)
O2_2 O 0.0069(5) 0.2177(5) 0.0693(3)
O10 O 0.4466(4) 0.5525(4) 0.2238(3)
O11 O 0.4143(4) 0.6536(4) 0.1862(3)
O25 O 0.2767(5) 0.0865(6) 0.6754(3)
Zn6 Zn 0.58449(7) 0.63793(6) 0.26396(4)
Zn14 Zn 0.42563(7) 0.06922(7) 0.68908(4)
C1_2 C 0.6630(6) 0.5766(6) 0.2036(4)
C2_2 C 0.6884(6) 0.5112(6) 0.1841(4)
C3_2 C 0.6933(8) 0.5064(7) 0.1347(4)
H1_2 H 0.6796 0.5444 0.1138
C4_2 C 0.7182(8) 0.4464(7) 0.1165(4)
H2_2 H 0.7281 0.4482 0.0845
C5_2 C 0.7289(6) 0.3842(6) 0.1433(4)
C6_2 C 0.7280(9) 0.3924(7) 0.1915(4)
H3_2 H 0.7416 0.3540 0.2121
C7_2 C 0.7083(8) 0.4540(8) 0.2120(4)
H4_2 H 0.7084 0.4571 0.2462
C8_2 C 0.6718(7) 0.2420(7) 0.0960(4)
C9_2 C 0.7030(6) 0.1852(5) 0.0743(3)
C10_2 C 0.6424(7) 0.1019(7) 0.0426(4)
H5_2 H 0.5727 0.0752 0.0344
C11_2 C 0.6833(8) 0.0564(7) 0.0226(5)
C12_2 C 0.7857(8) 0.0991(6) 0.0339(4)
H7_2 H 0.8166 0.0707 0.0214
C13_2 C 0.8422(6) 0.1866(6) 0.0647(4)
C14_2 C 0.9507(7) 0.2425(6) 0.0805(4)
C26_2 C 0.8245(6) 0.3667(6) 0.0143(3)
H14_2 H 0.6841 0.3233 0.0166
C29_2 C 0.9188(6) 0.4951(6) 0.0807(3)
C30_2 C 0.9694(6) 0.5234(5) 0.1384(3)
C34_2 C 0.9867(6) 0.4636(5) 0.2111(3)
C35_2 C 0.9535(6) 0.3764(5) 0.2274(3)
C36_2 C 0.8568(5) 0.2165(5) 0.1948(3)
C37_2 C 0.9008(6) 0.1656(5) 0.1901(4)
H19_2 H 0.9638 0.1915 0.1857
C38_2 C 0.8521(7) 0.0767(6) 0.1919(4)
H20_2 H 0.8822 0.0409 0.1888
C39_2 C 0.7623(5) 0.0381(5) 0.1980(3)
C40_2 C 0.7195(6) 0.0897(6) 0.2047(4)
H21_2 H 0.6580 0.0636 0.2108
C41_2 C 0.7665(6) 0.1803(6) 0.2026(4)
H22_2 H 0.7372 0.2165 0.2065
C64_2 C 0.5976(8) 0.0438(7) 0.7136(4)
C66_2 C 0.7322(8) 0.0174(8) 0.7032(5)
H34_2 H 0.7775 0.0715 0.7274
N1_2 N 0.7483(5) 0.3217(5) 0.1216(3)
N2_2 N 0.7985(5) 0.2248(4) 0.0824(3)
N3_2 N 0.9823(4) 0.3215(4) 0.1091(3)
N4_2 N 0.9016(5) 0.3084(4) 0.1884(3)
N5_2 N 0.9531(4) 0.4547(4) 0.1615(3)
N6_2 N 0.8749(5) 0.4077(4) 0.0680(3)
O1_2 O 0.5839(5) 0.2175(5) 0.0914(3)
O4_2 O 0.9731(5) 0.3710(4) 0.2735(2)
O6_2 O 0.9246(5) 0.5529(4) 0.0539(2)
O8 O 0.6523(5) 0.5735(4) 0.2469(3)
O9 O 0.6488(5) 0.6276(4) 0.1762(3)
O28 O 0.5051(5) 0.0070(4) 0.7074(3)
O29 O 0.6625(5) 0.1237(5) 0.7342(3)
Co1_2 Co 0.87649(8) 0.33952(7) 0.12167(4)
Zn11 Zn 0.71009(7) 0.76501(7) 0.19283(4)
Zn12 Zn 0.64700(6) 0.22469(6) 0.75652(4)
C22_2 C 0.6716(7) 0.2375(6) 0.8596(3)
C23_2 C 0.7247(6) 0.2764(6) 0.9129(3)
C24_2 C 0.8279(6) 0.3212(6) 0.9326(3)
H12_2 H 0.8651 0.3232 0.9110
C25_2 C 0.8761(6) 0.3627(6) 0.9833(3)
H13_2 H 0.9461 0.3889 0.9968
C27_2 C 0.7215(6) 0.3238(6) 0.9954(3)
C28_2 C 0.6757(6) 0.2819(6) 0.9443(3)
H15_2 H 0.6057 0.2555 0.9306
O13 O 0.7219(4) 0.2556(4) 0.8289(2)
H6_2 H 0.6423 0.9981 0.0019
C42_2 C 0.7107(7) 0.9399(6) 0.1991(4)
C43_2 C 0.5797(6) 0.6733(6) 0.3543(3)
C44_2 C 0.5867(6) 0.6737(6) 0.4096(3)
C45_2 C 0.5857(6) 0.7420(6) 0.4369(4)
H23_2 H 0.5806 0.7883 0.4209
C46_2 C 0.5918(7) 0.7442(6) 0.4871(3)
H24_2 H 0.5947 0.7936 0.5061
C47_2 C 0.5939(6) 0.6735(5) 0.5105(3)
C48_2 C 0.5927(6) 0.6041(6) 0.4822(3)
H25_2 H 0.5941 0.5557 0.4972
C49_2 C 0.5892(6) 0.6046(6) 0.4315(3)
H26_2 H 0.5887 0.5568 0.4124
C50_2 C 0.5327(6) 0.6393(6) 0.5801(3)
C51_2 C 0.5693(5) 0.6545(5) 0.6368(3)
C52_2 C 0.5137(7) 0.6246(7) 0.6689(4)
H27_2 H 0.4443 0.5856 0.6552
C53_2 C 0.5602(8) 0.6519(8) 0.7205(4)
H28_2 H 0.5224 0.6339 0.7428
C54_2 C 0.6602(7) 0.7047(7) 0.7401(4)
H29_2 H 0.6922 0.7214 0.7759
C55_2 C 0.7154(6) 0.7340(6) 0.7080(3)
C56_2 C 0.8221(6) 0.7899(6) 0.7189(4)
C57_2 C 0.9505(6) 0.8516(6) 0.6806(3)
C58_2 C 0.9899(7) 0.9431(7) 0.6823(4)
H30_2 H 0.9527 0.9721 0.6852
H33_2 H 0.9804 0.7462 0.6760
C65_2 C 0.6324(7) 0.9865(7) 0.6921(4)
C67_2 C 0.7682(8) 0.9739(9) 0.6809(5)
H35_2 H 0.8372 0.9936 0.6921
C68_2 C 0.7023(6) 0.8982(6) 0.6403(4)
C69_2 C 0.6024(7) 0.8658(6) 0.6299(4)
H36_2 H 0.5569 0.8128 0.6049
C70_2 C 0.5665(7) 0.9090(7) 0.6551(5)
H37_2 H 0.4972 0.8857 0.6471
C71_2 C 0.7831(7) 0.9086(6) 0.5820(4)
C72_2 C 0.8288(7) 0.8666(7) 0.5566(4)
C73_2 C 0.8805(9) 0.9002(7) 0.5250(5)
H38_2 H 0.8941 0.9574 0.5170
C74_2 C 0.9125(10) 0.8492(8) 0.5049(5)
H39_2 H 0.9464 0.8703 0.4812
C75_2 C 0.8974(8) 0.7688(7) 0.5178(4)
H40_2 H 0.9203 0.7337 0.5039
C76_2 C 0.8468(6) 0.7407(6) 0.5522(3)
C77_2 C 0.8214(6) 0.6549(5) 0.5712(4)
C78_2 C 0.7425(6) 0.5663(5) 0.6231(3)
C79_2 C 0.6778(6) 0.4809(6) 0.5897(4)
H41_2 H 0.6468 0.4769 0.5547
C80_2 C 0.6614(6) 0.4047(6) 0.6092(3)
H42_2 H 0.6237 0.3480 0.5866
C81_2 C 0.6974(6) 0.4078(5) 0.6598(3)
C82_2 C 0.7551(7) 0.4908(6) 0.6935(3)
H43_2 H 0.7798 0.4936 0.7290
C83_2 C 0.7761(6) 0.5693(6) 0.6745(3)
H44_2 H 0.8141 0.6257 0.6974
C84_2 C 0.6748(7) 0.3233(7) 0.6798(4)
N7_2 N 0.6096(5) 0.6798(4) 0.5624(2)
N8_2 N 0.6670(5) 0.7058(4) 0.6567(3)
N9_2 N 0.8490(5) 0.7989(5) 0.6780(3)
N10_2 N 0.7707(4) 0.6462(4) 0.6029(2)
N11_2 N 0.8149(5) 0.7900(5) 0.5702(3)
N12_2 N 0.7394(5) 0.8591(5) 0.6118(3)
O3_2 O 0.8422(6) 0.7863(7) 0.2488(4)
O5_2 O 0.7654(7) 0.7675(5) 0.1329(3)
O7_2 O 0.4543(5) 0.0982(5) 0.6240(3)
O14_2 O 0.6240(4) 0.9074(4) 0.2038(2)
O15_2 O 0.7539(4) 0.8969(4) 0.1945(3)
O16_2 O 0.6385(4) 0.7551(4) 0.2450(2)
O17_2 O 0.5630(4) 0.7393(4) 0.1358(2)
O18_2 O 0.8800(5) 0.8247(5) 0.7649(3)
O19_2 O 0.4457(4) 0.5996(4) 0.5541(2)
O20_2 O 0.7890(6) 0.9821(5) 0.5729(4)
O21_2 O 0.8503(5) 0.6021(4) 0.5588(3)
O22_2 O 0.6107(5) 0.6280(5) 0.3358(2)
O23_2 O 0.5436(6) 0.7141(5) 0.3304(3)
O26_2 O 0.7004(4) 0.3318(4) 0.7277(2)
O27_2 O 0.6315(5) 0.2512(5) 0.6498(3)
Co2_2 Co 0.74196(7) 0.74561(7) 0.61431(4)
H45_2 H 0.855817 0.73672 0.241284
H46_2 H 0.834444 0.787931 0.2829
H47_2 H 0.825269 0.826378 0.138525
H48_2 H 0.714257 0.758417 0.100316
H49_2 H 0.432252 0.141718 0.612002
H50_2 H 0.418241 0.0424002 0.597594
C59_2 C 0.0841(7) 0.9913(7) 0.6799(4)
C60_2 C 0.1386(6) 0.9510(6) 0.6754(3)
C62_2 C 0.0995(7) 0.8594(7) 0.6749(4)
H32_2 H 0.1384 0.8316 0.6731
C63_2 C 0.0068(7) 0.8088(6) 0.6770(4)
O24 O 0.2935(5) 0.9672(5) 0.6767(3)
loop_
_geom_bond_atom_site_label_1
_geom_bond_atom_site_label_2
_geom_bond_site_symmetry_1
_geom_bond_site_symmetry_2
C60 C59 1_555 1_555
C62 C60 1_555 1_555
H32 C62 1_555 1_555
C62 C63 1_555 1_555
C43 C44 1_555 1_555
C44 C45 1_555 1_555
C45 H23 1_555 1_555
C46 C45 1_555 1_555
H24 C46 1_555 1_555
C47 C46 1_555 1_555
C48 C47 1_555 1_555
H25 C48 1_555 1_555
C49 C44 1_555 1_555
H26 C49 1_555 1_555
C50 C51 1_555 1_555
C51 C52 1_555 1_555
C52 H27 1_555 1_555
C53 C52 1_555 1_555
H28 C53 1_555 1_555
C54 C53 1_555 1_555
H29 C54 1_555 1_555
C55 C54 1_555 1_555
C56 C55 1_555 1_555
C57 C58 1_555 1_555
C58 H30 1_555 1_555
H35 C67 1_555 1_555
C68 C67 1_555 1_555
C69 C68 1_555 1_555
H36 C69 1_555 1_555
C70 C65 1_555 1_555
H37 C70 1_555 1_555
C71 C72 1_555 1_555
C72 C73 1_555 1_555
C73 H38 1_555 1_555
C74 C73 1_555 1_555
H39 C74 1_555 1_555
C75 C74 1_555 1_555
H40 C75 1_555 1_555
C76 C75 1_555 1_555
C77 C76 1_555 1_555
C78 C79 1_555 1_555
C79 H41 1_555 1_555
C80 C79 1_555 1_555
H42 C80 1_555 1_555
C81 C80 1_555 1_555
C82 C81 1_555 1_555
H43 C82 1_555 1_555
C83 C78 1_555 1_555
H44 C83 1_555 1_555
C84 C81 1_555 1_555
N7 C47 1_555 1_555
N8 C51 1_555 1_555
N9 C56 1_555 1_555
N10 C77 1_555 1_555
N11 C72 1_555 1_555
N12 C68 1_555 1_555
O3 Zn3 1_555 1_555
O5 Zn3 1_555 1_555
O7 Zn5 1_555 1_555
O14 C42 1_555 1_555
O15 C42 1_555 1_555
O16 Zn1 1_555 1_555
O17 Zn2 1_555 1_555
O18 C56 1_555 1_555
O19 C50 1_555 1_555
O20 C71 1_555 1_555
O21 C77 1_555 1_555
O22 C43 1_555 1_555
O23 C43 1_555 1_555
O26 C84 1_555 1_555
O27 C84 1_555 1_555
O30 Zn4 1_555 1_555
Co2 N7 1_555 1_555
Zn1 O22 1_555 1_555
Zn2 O14 1_555 1_555
Zn3 O15 1_555 1_555
Zn4 O26 1_555 1_555
Zn5 O30 1_555 1_555
O31 Zn1 1_555 1_555
O32 Zn3 1_555 1_555
O33 Zn1 1_555 1_555
O34 Zn2 1_555 1_555
O35 Zn2 1_555 1_555
O36 Zn4 1_555 1_555
O38 Zn5 1_555 1_555
O39 Zn5 1_555 1_555
O40 Zn4 1_555 1_555
O41 Zn2 1_555 1_555
Zn10 O30 1_555 1_555
C48 C49 1_555 1_555
C50 N7 1_555 1_555
C55 N8 1_555 1_555
C57 N9 1_555 1_555
C69 C70 1_555 1_555
C71 N12 1_555 1_555
C76 N11 1_555 1_555
C78 N10 1_555 1_555
C82 C83 1_555 1_555
N8 Co2 1_555 1_555
N9 Co2 1_555 1_555
N10 Co2 1_555 1_555
N11 Co2 1_555 1_555
N12 Co2 1_555 1_555
O16 Zn2 1_555 1_555
O16 Zn3 1_555 1_555
O17 Zn3 1_555 1_555
O3 H45 1_555 1_555
O3 H46 1_555 1_555
O5 H47 1_555 1_555
O5 H48 1_555 1_555
O7 H49 1_555 1_555
O7 H50 1_555 1_555
C22 C23 1_555 1_555
C23 C24 1_555 1_555
C24 H12 1_555 1_555
C25 C24 1_555 1_555
H13 C25 1_555 1_555
C28 C23 1_555 1_555
H15 C28 1_555 1_555
O12 C22 1_555 1_555
O36 C22 1_555 1_555
Zn10 O12 1_555 1_555
C27 C28 1_555 1_555
C1 C2 1_555 1_555
C2 C3 1_555 1_555
C3 H1 1_555 1_555
C4 C3 1_555 1_555
H2 C4 1_555 1_555
C5 C4 1_555 1_555
C6 C5 1_555 1_555
H3 C6 1_555 1_555
C7 C2 1_555 1_555
H4 C7 1_555 1_555
C8 C9 1_555 1_555
C9 C10 1_555 1_555
C10 H5 1_555 1_555
C11 C10 1_555 1_555
C12 C11 1_555 1_555
H7 C12 1_555 1_555
C13 C12 1_555 1_555
C14 C13 1_555 1_555
C29 C30 1_555 1_555
C35 C34 1_555 1_555
C36 C37 1_555 1_555
C37 H19 1_555 1_555
C38 C37 1_555 1_555
H20 C38 1_555 1_555
C39 C38 1_555 1_555
C40 C39 1_555 1_555
H21 C40 1_555 1_555
C41 C36 1_555 1_555
H22 C41 1_555 1_555
C66 H34 1_555 1_555
N1 C5 1_555 1_555
N2 C9 1_555 1_555
N3 C14 1_555 1_555
N4 C35 1_555 1_555
N5 C30 1_555 1_555
N6 C26 1_555 1_555
O1 C8 1_555 1_555
O4 C35 1_555 1_555
O6 C29 1_555 1_555
O31 C1 1_555 1_555
O32 C1 1_555 1_555
O39 C64 1_555 1_555
O40 C64 1_555 1_555
Co1 N1 1_555 1_555
C6 C7 1_555 1_555
C8 N1 1_555 1_555
C13 N2 1_555 1_555
C29 N6 1_555 1_555
C34 N5 1_555 1_555
C36 N4 1_555 1_555
C40 C41 1_555 1_555
N2 Co1 1_555 1_555
N3 Co1 1_555 1_555
N4 Co1 1_555 1_555
N5 Co1 1_555 1_555
N6 Co1 1_555 1_555
C15 C16 1_555 1_555
C16 H8 1_555 1_555
C17 C16 1_555 1_555
H9 C17 1_555 1_555
C18 C17 1_555 1_555
C19 C18 1_555 1_555
H10 C19 1_555 1_555
C20 C15 1_555 1_555
H11 C20 1_555 1_555
C21 C18 1_555 1_555
C31 H16 1_555 1_555
C32 C31 1_555 1_555
H17 C32 1_555 1_555
C33 C32 1_555 1_555
H18 C33 1_555 1_555
O33 C21 1_555 1_555
O34 C21 1_555 1_555
O38 C61 1_555 1_555
C19 C20 1_555 1_555
C15_2 C16_2 1_555 1_555
C16_2 H8_2 1_555 1_555
C17_2 C16_2 1_555 1_555
H9_2 C17_2 1_555 1_555
C18_2 C17_2 1_555 1_555
C19_2 C18_2 1_555 1_555
H10_2 C19_2 1_555 1_555
C20_2 C15_2 1_555 1_555
H11_2 C20_2 1_555 1_555
C21_2 C18_2 1_555 1_555
C31_2 H16_2 1_555 1_555
C32_2 C31_2 1_555 1_555
H17_2 C32_2 1_555 1_555
C33_2 C32_2 1_555 1_555
H18_2 C33_2 1_555 1_555
O10 C21_2 1_555 1_555
O11 C21_2 1_555 1_555
O25 C61_2 1_555 1_555
Zn6 O10 1_555 1_555
Zn10 O11 1_555 1_555
C19_2 C20_2 1_555 1_555
O25 Zn14 1_555 1_555
C1_2 C2_2 1_555 1_555
C2_2 C3_2 1_555 1_555
C3_2 H1_2 1_555 1_555
C4_2 C3_2 1_555 1_555
H2_2 C4_2 1_555 1_555
C5_2 C4_2 1_555 1_555
C6_2 C5_2 1_555 1_555
H3_2 C6_2 1_555 1_555
C7_2 C2_2 1_555 1_555
H4_2 C7_2 1_555 1_555
C8_2 C9_2 1_555 1_555
C9_2 C10_2 1_555 1_555
C10_2 H5_2 1_555 1_555
C11_2 C10_2 1_555 1_555
C12_2 C11_2 1_555 1_555
H7_2 C12_2 1_555 1_555
C13_2 C12_2 1_555 1_555
C14_2 C13_2 1_555 1_555
C29_2 C30_2 1_555 1_555
C35_2 C34_2 1_555 1_555
C36_2 C37_2 1_555 1_555
C37_2 H19_2 1_555 1_555
C38_2 C37_2 1_555 1_555
H20_2 C38_2 1_555 1_555
C39_2 C38_2 1_555 1_555
C40_2 C39_2 1_555 1_555
H21_2 C40_2 1_555 1_555
C41_2 C36_2 1_555 1_555
H22_2 C41_2 1_555 1_555
C66_2 H34_2 1_555 1_555
N1_2 C5_2 1_555 1_555
N2_2 C9_2 1_555 1_555
N3_2 C14_2 1_555 1_555
N4_2 C35_2 1_555 1_555
N5_2 C30_2 1_555 1_555
N6_2 C26_2 1_555 1_555
O1_2 C8_2 1_555 1_555
O4_2 C35_2 1_555 1_555
O6_2 C29_2 1_555 1_555
O8 C1_2 1_555 1_555
O9 C1_2 1_555 1_555
O28 C64_2 1_555 1_555
O29 C64_2 1_555 1_555
Co1_2 N1_2 1_555 1_555
Zn6 O8 1_555 1_555
Zn11 O9 1_555 1_555
Zn12 O29 1_555 1_555
Zn14 O28 1_555 1_555
C6_2 C7_2 1_555 1_555
C8_2 N1_2 1_555 1_555
C13_2 N2_2 1_555 1_555
C29_2 N6_2 1_555 1_555
C34_2 N5_2 1_555 1_555
C36_2 N4_2 1_555 1_555
C40_2 C41_2 1_555 1_555
N2_2 Co1_2 1_555 1_555
N3_2 Co1_2 1_555 1_555
N4_2 Co1_2 1_555 1_555
N5_2 Co1_2 1_555 1_555
N6_2 Co1_2 1_555 1_555
C22_2 C23_2 1_555 1_555
C23_2 C24_2 1_555 1_555
C24_2 H12_2 1_555 1_555
C25_2 C24_2 1_555 1_555
H13_2 C25_2 1_555 1_555
C28_2 C23_2 1_555 1_555
H15_2 C28_2 1_555 1_555
O35 C22_2 1_555 1_555
O13 C22_2 1_555 1_555
Zn12 O13 1_555 1_555
C27_2 C28_2 1_555 1_555
C43_2 C44_2 1_555 1_555
C44_2 C45_2 1_555 1_555
C45_2 H23_2 1_555 1_555
C46_2 C45_2 1_555 1_555
H24_2 C46_2 1_555 1_555
C47_2 C46_2 1_555 1_555
C48_2 C47_2 1_555 1_555
H25_2 C48_2 1_555 1_555
C49_2 C44_2 1_555 1_555
H26_2 C49_2 1_555 1_555
C50_2 C51_2 1_555 1_555
C51_2 C52_2 1_555 1_555
C52_2 H27_2 1_555 1_555
C53_2 C52_2 1_555 1_555
H28_2 C53_2 1_555 1_555
C54_2 C53_2 1_555 1_555
H29_2 C54_2 1_555 1_555
C55_2 C54_2 1_555 1_555
C56_2 C55_2 1_555 1_555
C57_2 C58_2 1_555 1_555
C58_2 H30_2 1_555 1_555
H35_2 C67_2 1_555 1_555
C68_2 C67_2 1_555 1_555
C69_2 C68_2 1_555 1_555
H36_2 C69_2 1_555 1_555
C70_2 C65_2 1_555 1_555
H37_2 C70_2 1_555 1_555
C71_2 C72_2 1_555 1_555
C72_2 C73_2 1_555 1_555
C73_2 H38_2 1_555 1_555
C74_2 C73_2 1_555 1_555
H39_2 C74_2 1_555 1_555
C75_2 C74_2 1_555 1_555
H40_2 C75_2 1_555 1_555
C76_2 C75_2 1_555 1_555
C77_2 C76_2 1_555 1_555
C78_2 C79_2 1_555 1_555
C79_2 H41_2 1_555 1_555
C80_2 C79_2 1_555 1_555
H42_2 C80_2 1_555 1_555
C81_2 C80_2 1_555 1_555
C82_2 C81_2 1_555 1_555
H43_2 C82_2 1_555 1_555
C83_2 C78_2 1_555 1_555
H44_2 C83_2 1_555 1_555
C84_2 C81_2 1_555 1_555
N7_2 C47_2 1_555 1_555
N8_2 C51_2 1_555 1_555
N9_2 C56_2 1_555 1_555
N10_2 C77_2 1_555 1_555
N11_2 C72_2 1_555 1_555
N12_2 C68_2 1_555 1_555
O3_2 Zn11 1_555 1_555
O5_2 Zn11 1_555 1_555
O7_2 Zn14 1_555 1_555
O14_2 C42_2 1_555 1_555
O15_2 C42_2 1_555 1_555
O16_2 Zn6 1_555 1_555
O17_2 Zn10 1_555 1_555
O18_2 C56_2 1_555 1_555
O19_2 C50_2 1_555 1_555
O20_2 C71_2 1_555 1_555
O21_2 C77_2 1_555 1_555
O22_2 C43_2 1_555 1_555
O23_2 C43_2 1_555 1_555
O26_2 C84_2 1_555 1_555
O27_2 C84_2 1_555 1_555
O41 Zn12 1_555 1_555
Co2_2 N7_2 1_555 1_555
Zn6 O22_2 1_555 1_555
Zn10 O14_2 1_555 1_555
Zn11 O15_2 1_555 1_555
Zn12 O26_2 1_555 1_555
Zn14 O41 1_555 1_555
C48_2 C49_2 1_555 1_555
C50_2 N7_2 1_555 1_555
C55_2 N8_2 1_555 1_555
C57_2 N9_2 1_555 1_555
C69_2 C70_2 1_555 1_555
C71_2 N12_2 1_555 1_555
C76_2 N11_2 1_555 1_555
C78_2 N10_2 1_555 1_555
C82_2 C83_2 1_555 1_555
N8_2 Co2_2 1_555 1_555
N9_2 Co2_2 1_555 1_555
N10_2 Co2_2 1_555 1_555
N11_2 Co2_2 1_555 1_555
N12_2 Co2_2 1_555 1_555
O16_2 Zn10 1_555 1_555
O16_2 Zn11 1_555 1_555
O17_2 Zn11 1_555 1_555
O3_2 H45_2 1_555 1_555
O3_2 H46_2 1_555 1_555
O5_2 H47_2 1_555 1_555
O5_2 H48_2 1_555 1_555
O7_2 H49_2 1_555 1_555
O7_2 H50_2 1_555 1_555
C60_2 C59_2 1_555 1_555
C62_2 C60_2 1_555 1_555
H32_2 C62_2 1_555 1_555
C62_2 C63_2 1_555 1_555

#END
