
###############################################################################
#
# This file contains modified crystal structure data generated from the
# MOF subset of the Cambridge Structural Database (CSD) v543 
# hosted by the Cambridge Crystallographic Data Centre (CCDC).
#
# This work is licensed under the Creative Commons
# Attribution-NonCommercial-ShareAlike 4.0 International License.
# To view a copy of this license, visit
# http://creativecommons.org/licenses/by-nc-sa/4.0/
# or send a letter to
# Creative Commons, PO Box 1866, Mountain View, CA 94042, USA.
#
# CIF created using the CSD Python API on 29 September 2022
# The structure has been converted into the P1 space group
# The structure has a 3D framework
# The original CSD entry BIPLAQ is in the cubic crystal system
# The framework has been calculated to contain at least 10.0% void space
# The void calculation uses a probe of radius 1.32A, grid spacing 0.4
# H atom positions have been added when not included in the experimental data
# Generated hydrogen atom positions removed from atoms on special positions
#
###############################################################################

data_BIPLAQ
_chemical_formula_moiety         '(C576 H1008 Cu24 N72 O186 Zr48)n'
_symmetry_cell_setting           triclinic
_symmetry_space_group_name_H-M   'P 1'
_symmetry_Int_Tables_number      1
_space_group_name_Hall           'P 1'
loop_
_symmetry_equiv_pos_site_id
_symmetry_equiv_pos_as_xyz
1 x,y,z
_cell_length_a                   38.4520(7)
_cell_length_b                   38.4520(7)
_cell_length_c                   38.4520(7)
_cell_angle_alpha                90
_cell_angle_beta                 90
_cell_angle_gamma                90
_cell_volume                     56853.4
loop_
_atom_site_label
_atom_site_type_symbol
_atom_site_fract_x
_atom_site_fract_y
_atom_site_fract_z
Cu2 Cu 0.000000 0.750000 0.500000
N5 N -0.000000 0.7498(2) 0.55187(17)
O18 O 0.18603(13) 0.72259(14) 0.67180(13)
C61 C 0.16813(17) 0.750000 0.66813(17)
C62 C 0.14077(16) 0.750000 0.64077(16)
C63 C 0.13596(19) 0.7205(2) 0.6211(2)
H31 H 0.149828 0.700404 0.625072
C64 C 0.11106(19) 0.7203(2) 0.5958(2)
H32 H 0.107705 0.700158 0.581968
C65 C 0.09028(17) 0.750000 0.59028(17)
C66 C 0.06310(16) 0.750000 0.56310(16)
C67 C 0.02838(15) 0.7487(2) 0.57318(14)
C68 C 0.01749(16) 0.7471(2) 0.60903(15)
H33 H 0.032208 0.746223 0.628856
O19 O 0.17180(13) 0.77741(14) 0.68603(13)
N7 N 0.05187(17) 0.7502(2) 0.500000
C69 C 0.1211(2) 0.7795(2) 0.63596(19)
H34 H 0.125072 0.799596 0.649828
C70 C 0.0958(2) 0.7797(2) 0.61106(19)
H35 H 0.081968 0.799842 0.607705
C71 C 0.07318(14) 0.7513(2) 0.52838(15)
C72 C 0.10903(15) 0.7529(2) 0.51749(16)
H36 H 0.128856 0.753777 0.532208
O21 O 0.17180(13) 0.77741(14) 0.31397(13)
C81 C 0.16813(17) 0.750000 0.33187(17)
C82 C 0.14077(16) 0.750000 0.35923(16)
C83 C 0.1211(2) 0.7795(2) 0.36404(19)
H40 H 0.125072 0.799596 0.350172
C84 C 0.0958(2) 0.7797(2) 0.38894(19)
H41 H 0.081968 0.799842 0.392295
C85 C 0.09028(17) 0.750000 0.40972(17)
C86 C 0.06310(16) 0.750000 0.43690(16)
C87 C 0.07318(14) 0.7513(2) 0.47162(15)
C88 C 0.10903(15) 0.7529(2) 0.48251(16)
H42 H 0.128856 0.753777 0.467792
N8 N -0.000000 0.7498(2) 0.44813(17)
O23 O 0.18603(13) 0.72259(14) 0.32820(13)
C93 C 0.13596(19) 0.7205(2) 0.3789(2)
H46 H 0.149828 0.700404 0.374928
C94 C 0.11106(19) 0.7203(2) 0.4042(2)
H47 H 0.107705 0.700158 0.418032
C95 C 0.02838(15) 0.7487(2) 0.42682(14)
C96 C 0.01749(16) 0.7471(2) 0.39097(15)
H48 H 0.032208 0.746223 0.371144
Zr13 Zr 0.22792(2) 0.70717(2) 0.29283(2)
Zr19 Zr 0.22792(2) 0.70717(2) 0.70717(2)
Zr24 Zr 0.20717(2) 0.79283(2) 0.72792(2)
Zr31 Zr 0.20717(2) 0.79283(2) 0.27208(2)
Cu3 Cu 0.500000 0.000000 0.750000
N9 N 0.55187(17) 0.000000 0.7498(2)
O28 O 0.67180(13) 0.18603(13) 0.72259(14)
C109 C 0.66813(17) 0.16813(17) 0.750000
C110 C 0.64077(16) 0.14077(16) 0.750000
C111 C 0.6211(2) 0.13596(19) 0.7205(2)
H55 H 0.625072 0.149828 0.700404
C112 C 0.5958(2) 0.11106(19) 0.7203(2)
H56 H 0.581968 0.107705 0.700158
C113 C 0.59028(17) 0.09028(17) 0.750000
C114 C 0.56310(16) 0.06310(16) 0.750000
C115 C 0.57318(14) 0.02838(15) 0.7487(2)
C116 C 0.60903(15) 0.01749(16) 0.7471(2)
H57 H 0.628856 0.032208 0.746223
O29 O 0.68603(13) 0.17180(13) 0.77741(14)
N11 N 0.500000 0.05187(17) 0.7502(2)
C117 C 0.63596(19) 0.1211(2) 0.7795(2)
H58 H 0.649828 0.125072 0.799596
C118 C 0.61106(19) 0.0958(2) 0.7797(2)
H59 H 0.607705 0.081968 0.799842
C119 C 0.52838(15) 0.07318(14) 0.7513(2)
C120 C 0.51749(16) 0.10903(15) 0.7529(2)
H60 H 0.532208 0.128856 0.753777
O31 O 0.31397(13) 0.17180(13) 0.77741(14)
C129 C 0.33187(17) 0.16813(17) 0.750000
C130 C 0.35923(16) 0.14077(16) 0.750000
C131 C 0.36404(19) 0.1211(2) 0.7795(2)
H64 H 0.350172 0.125072 0.799596
C132 C 0.38894(19) 0.0958(2) 0.7797(2)
H65 H 0.392295 0.081968 0.799842
C133 C 0.40972(17) 0.09028(17) 0.750000
C134 C 0.43690(16) 0.06310(16) 0.750000
C135 C 0.47162(15) 0.07318(14) 0.7513(2)
C136 C 0.48251(16) 0.10903(15) 0.7529(2)
H66 H 0.467792 0.128856 0.753777
N12 N 0.44813(17) 0.000000 0.7498(2)
O33 O 0.32820(13) 0.18603(13) 0.72259(14)
C141 C 0.3789(2) 0.13596(19) 0.7205(2)
H70 H 0.374928 0.149828 0.700404
C142 C 0.4042(2) 0.11106(19) 0.7203(2)
H71 H 0.418032 0.107705 0.700158
C143 C 0.42682(14) 0.02838(15) 0.7487(2)
C144 C 0.39097(15) 0.01749(16) 0.7471(2)
H72 H 0.371144 0.032208 0.746223
Zr9 Zr 0.70717(2) 0.22792(2) 0.70717(2)
O44 O 0.6717(3) 0.2468(4) 0.6717(3)
O45 O 0.7416(2) 0.1940(3) 0.7416(2)
Zr14 Zr 0.29283(2) 0.22792(2) 0.70717(2)
Zr23 Zr 0.79283(2) 0.20717(2) 0.72792(2)
Zr28 Zr 0.72792(2) 0.20717(2) 0.79283(2)
Zr33 Zr 0.27208(2) 0.20717(2) 0.79283(2)
O57 O 0.72259(14) 0.18603(13) 0.67180(13)
O68 O 0.71736(16) 0.28264(16) 0.71736(16)
O73 O 0.7584(2) 0.2416(2) 0.6940(3)
O76 O 0.6940(3) 0.2416(2) 0.7584(2)
Cu1 Cu 0.750000 0.500000 0.000000
N1 N 0.7498(2) 0.55187(17) 0.000000
O6 O 0.72259(14) 0.67180(13) 0.18603(13)
C13 C 0.750000 0.66813(17) 0.16813(17)
C14 C 0.750000 0.64077(16) 0.14077(16)
C15 C 0.7205(2) 0.6211(2) 0.13596(19)
H7 H 0.700404 0.625072 0.149828
C16 C 0.7203(2) 0.5958(2) 0.11106(19)
H8 H 0.700158 0.581968 0.107705
C17 C 0.750000 0.59028(17) 0.09028(17)
C18 C 0.750000 0.56310(16) 0.06310(16)
C19 C 0.7487(2) 0.57318(14) 0.02838(15)
C20 C 0.7471(2) 0.60903(15) 0.01749(16)
H9 H 0.746223 0.628856 0.032208
O7 O 0.77741(14) 0.68603(13) 0.17180(13)
N3 N 0.7502(2) 0.500000 0.05187(17)
C21 C 0.7795(2) 0.63596(19) 0.1211(2)
H10 H 0.799596 0.649828 0.125072
C22 C 0.7797(2) 0.61106(19) 0.0958(2)
H11 H 0.799842 0.607705 0.081968
C23 C 0.7513(2) 0.52838(15) 0.07318(14)
C24 C 0.7529(2) 0.51749(16) 0.10903(15)
H12 H 0.753777 0.532208 0.128856
O9 O 0.77741(14) 0.31397(13) 0.17180(13)
C33 C 0.750000 0.33187(17) 0.16813(17)
C34 C 0.750000 0.35923(16) 0.14077(16)
C35 C 0.7795(2) 0.36404(19) 0.1211(2)
H16 H 0.799596 0.350172 0.125072
C36 C 0.7797(2) 0.38894(19) 0.0958(2)
H17 H 0.799842 0.392295 0.081968
C37 C 0.750000 0.40972(17) 0.09028(17)
C38 C 0.750000 0.43690(16) 0.06310(16)
C39 C 0.7513(2) 0.47162(15) 0.07318(14)
C40 C 0.7529(2) 0.48251(16) 0.10903(15)
H18 H 0.753777 0.467792 0.128856
N4 N 0.7498(2) 0.44813(17) 0.000000
O11 O 0.72259(14) 0.32820(13) 0.18603(13)
C45 C 0.7205(2) 0.3789(2) 0.13596(19)
H22 H 0.700404 0.374928 0.149828
C46 C 0.7203(2) 0.4042(2) 0.11106(19)
H23 H 0.700158 0.418032 0.107705
C47 C 0.7487(2) 0.42682(14) 0.02838(15)
C48 C 0.7471(2) 0.39097(15) 0.01749(16)
H24 H 0.746223 0.371144 0.032208
Zr2 Zr 0.70717(2) 0.29283(2) 0.22792(2)
O12 O 0.6717(3) 0.3283(3) 0.2468(4)
O13 O 0.7416(2) 0.2584(2) 0.1940(3)
Zr5 Zr 0.70717(2) 0.70717(2) 0.22792(2)
O34 O 0.6717(3) 0.6717(3) 0.2468(4)
O35 O 0.71736(16) 0.71736(16) 0.28264(16)
O36 O 0.7416(2) 0.7416(2) 0.1940(3)
Zr7 Zr 0.70717(2) 0.77208(2) 0.29283(2)
O40 O 0.6717(3) 0.7532(4) 0.3283(3)
O41 O 0.7416(2) 0.8060(3) 0.2584(2)
Zr12 Zr 0.79283(2) 0.72792(2) 0.20717(2)
O51 O 0.8283(3) 0.7468(4) 0.1717(3)
O52 O 0.7584(2) 0.6940(3) 0.2416(2)
Zr17 Zr 0.77208(2) 0.70717(2) 0.29283(2)
Zr21 Zr 0.79283(2) 0.79283(2) 0.27208(2)
Zr26 Zr 0.72792(2) 0.79283(2) 0.20717(2)
Zr32 Zr 0.79283(2) 0.27208(2) 0.20717(2)
Zr34 Zr 0.72792(2) 0.20717(2) 0.20717(2)
O53 O 0.67180(13) 0.72259(14) 0.18603(13)
O55 O 0.72259(14) 0.81397(13) 0.32820(13)
O58 O 0.82820(13) 0.68603(13) 0.22259(14)
O60 O 0.67180(13) 0.81397(13) 0.27741(14)
O62 O 0.67180(13) 0.27741(14) 0.18603(13)
O67 O 0.71736(16) 0.28264(16) 0.28264(16)
O69 O 0.78264(16) 0.78264(16) 0.21736(16)
O70 O 0.8060(3) 0.7416(2) 0.2584(2)
O71 O 0.7584(2) 0.7584(2) 0.3060(3)
O74 O 0.6940(3) 0.7584(2) 0.2416(2)
O79 O 0.7584(2) 0.3060(3) 0.2416(2)
O80 O 0.6940(3) 0.2416(2) 0.2416(2)
Zr1 Zr 0.70717(2) 0.70717(2) 0.77208(2)
Cu1_2 Cu 0.750000 0.500000 1.000000
O1 O 0.72259(14) 0.67180(13) 0.81397(13)
O2 O 0.6717(3) 0.6717(3) 0.7532(4)
O3 O 0.71736(16) 0.71736(16) 0.71736(16)
O4 O 0.7416(2) 0.7416(2) 0.8060(3)
N1_2 N 0.7498(2) 0.55187(17) 1.000000
C1 C 0.750000 0.66813(17) 0.83187(17)
C2 C 0.750000 0.64077(16) 0.85923(16)
C3 C 0.7205(2) 0.6211(2) 0.86404(19)
H1 H 0.700404 0.625072 0.850172
C4 C 0.7203(2) 0.5958(2) 0.88894(19)
H2 H 0.700158 0.581968 0.892295
C5 C 0.750000 0.59028(17) 0.90972(17)
C6 C 0.750000 0.56310(16) 0.93690(16)
C7 C 0.7487(2) 0.57318(14) 0.97162(15)
C8 C 0.7471(2) 0.60903(15) 0.98251(16)
H3 H 0.746223 0.628856 0.967792
O5 O 0.77741(14) 0.68603(13) 0.82820(13)
N2 N 0.7502(2) 0.500000 0.94813(17)
C9 C 0.7795(2) 0.63596(19) 0.8789(2)
H4 H 0.799596 0.649828 0.874928
C10 C 0.7797(2) 0.61106(19) 0.9042(2)
H5 H 0.799842 0.607705 0.918032
C11 C 0.7513(2) 0.52838(15) 0.92682(14)
C12 C 0.7529(2) 0.51749(16) 0.89097(15)
H6 H 0.753777 0.532208 0.871144
O8 O 0.77741(14) 0.31397(13) 0.82820(13)
C25 C 0.750000 0.33187(17) 0.83187(17)
C26 C 0.750000 0.35923(16) 0.85923(16)
C27 C 0.7795(2) 0.36404(19) 0.8789(2)
H13 H 0.799596 0.350172 0.874928
C28 C 0.7797(2) 0.38894(19) 0.9042(2)
H14 H 0.799842 0.392295 0.918032
C29 C 0.750000 0.40972(17) 0.90972(17)
C30 C 0.750000 0.43690(16) 0.93690(16)
C31 C 0.7513(2) 0.47162(15) 0.92682(14)
C32 C 0.7529(2) 0.48251(16) 0.89097(15)
H15 H 0.753777 0.467792 0.871144
O10 O 0.72259(14) 0.32820(13) 0.81397(13)
N4_2 N 0.7498(2) 0.44813(17) 1.000000
C41 C 0.7205(2) 0.3789(2) 0.86404(19)
H19 H 0.700404 0.374928 0.850172
C42 C 0.7203(2) 0.4042(2) 0.88894(19)
H20 H 0.700158 0.418032 0.892295
C43 C 0.7487(2) 0.42682(14) 0.97162(15)
C44 C 0.7471(2) 0.39097(15) 0.98251(16)
H21 H 0.746223 0.371144 0.967792
Zr3 Zr 0.77208(2) 0.70717(2) 0.70717(2)
Cu2_2 Cu 1.000000 0.750000 0.500000
O14 O 0.81397(13) 0.72259(14) 0.67180(13)
O15 O 0.7532(4) 0.6717(3) 0.6717(3)
O16 O 0.8060(3) 0.7416(2) 0.7416(2)
N5_2 N 1.000000 0.7498(2) 0.55187(17)
C49 C 0.83187(17) 0.750000 0.66813(17)
C50 C 0.85923(16) 0.750000 0.64077(16)
C51 C 0.86404(19) 0.7205(2) 0.6211(2)
H25 H 0.850172 0.700404 0.625072
C52 C 0.88894(19) 0.7203(2) 0.5958(2)
H26 H 0.892295 0.700158 0.581968
C53 C 0.90972(17) 0.750000 0.59028(17)
C54 C 0.93690(16) 0.750000 0.56310(16)
C55 C 0.97162(15) 0.7487(2) 0.57318(14)
C56 C 0.98251(16) 0.7471(2) 0.60903(15)
H27 H 0.967792 0.746223 0.628856
O17 O 0.82820(13) 0.77741(14) 0.68603(13)
N6 N 0.94813(17) 0.7502(2) 0.500000
C57 C 0.8789(2) 0.7795(2) 0.63596(19)
H28 H 0.874928 0.799596 0.649828
C58 C 0.9042(2) 0.7797(2) 0.61106(19)
H29 H 0.918032 0.799842 0.607705
C59 C 0.92682(14) 0.7513(2) 0.52838(15)
C60 C 0.89097(15) 0.7529(2) 0.51749(16)
H30 H 0.871144 0.753777 0.532208
O20 O 0.82820(13) 0.77741(14) 0.31397(13)
C73 C 0.83187(17) 0.750000 0.33187(17)
C74 C 0.85923(16) 0.750000 0.35923(16)
C75 C 0.8789(2) 0.7795(2) 0.36404(19)
H37 H 0.874928 0.799596 0.350172
C76 C 0.9042(2) 0.7797(2) 0.38894(19)
H38 H 0.918032 0.799842 0.392295
C77 C 0.90972(17) 0.750000 0.40972(17)
C78 C 0.93690(16) 0.750000 0.43690(16)
C79 C 0.92682(14) 0.7513(2) 0.47162(15)
C80 C 0.89097(15) 0.7529(2) 0.48251(16)
H39 H 0.871144 0.753777 0.467792
O22 O 0.81397(13) 0.72259(14) 0.32820(13)
N8_2 N 1.000000 0.7498(2) 0.44813(17)
C89 C 0.86404(19) 0.7205(2) 0.3789(2)
H43 H 0.850172 0.700404 0.374928
C90 C 0.88894(19) 0.7203(2) 0.4042(2)
H44 H 0.892295 0.700158 0.418032
C91 C 0.97162(15) 0.7487(2) 0.42682(14)
C92 C 0.98251(16) 0.7471(2) 0.39097(15)
H45 H 0.967792 0.746223 0.371144
Zr4 Zr 0.70717(2) 0.77208(2) 0.70717(2)
Cu3_2 Cu 0.500000 1.000000 0.750000
O24 O 0.67180(13) 0.81397(13) 0.72259(14)
O25 O 0.6717(3) 0.7532(4) 0.6717(3)
O26 O 0.7416(2) 0.8060(3) 0.7416(2)
N9_2 N 0.55187(17) 1.000000 0.7498(2)
C97 C 0.66813(17) 0.83187(17) 0.750000
C98 C 0.64077(16) 0.85923(16) 0.750000
C99 C 0.6211(2) 0.86404(19) 0.7205(2)
H49 H 0.625072 0.850172 0.700404
C100 C 0.5958(2) 0.88894(19) 0.7203(2)
H50 H 0.581968 0.892295 0.700158
C101 C 0.59028(17) 0.90972(17) 0.750000
C102 C 0.56310(16) 0.93690(16) 0.750000
C103 C 0.57318(14) 0.97162(15) 0.7487(2)
C104 C 0.60903(15) 0.98251(16) 0.7471(2)
H51 H 0.628856 0.967792 0.746223
O27 O 0.68603(13) 0.82820(13) 0.77741(14)
N10 N 0.500000 0.94813(17) 0.7502(2)
C105 C 0.63596(19) 0.8789(2) 0.7795(2)
H52 H 0.649828 0.874928 0.799596
C106 C 0.61106(19) 0.9042(2) 0.7797(2)
H53 H 0.607705 0.918032 0.799842
C107 C 0.52838(15) 0.92682(14) 0.7513(2)
C108 C 0.51749(16) 0.89097(15) 0.7529(2)
H54 H 0.532208 0.871144 0.753777
O30 O 0.31397(13) 0.82820(13) 0.77741(14)
C121 C 0.33187(17) 0.83187(17) 0.750000
C122 C 0.35923(16) 0.85923(16) 0.750000
C123 C 0.36404(19) 0.8789(2) 0.7795(2)
H61 H 0.350172 0.874928 0.799596
C124 C 0.38894(19) 0.9042(2) 0.7797(2)
H62 H 0.392295 0.918032 0.799842
C125 C 0.40972(17) 0.90972(17) 0.750000
C126 C 0.43690(16) 0.93690(16) 0.750000
C127 C 0.47162(15) 0.92682(14) 0.7513(2)
C128 C 0.48251(16) 0.89097(15) 0.7529(2)
H63 H 0.467792 0.871144 0.753777
O32 O 0.32820(13) 0.81397(13) 0.72259(14)
N12_2 N 0.44813(17) 1.000000 0.7498(2)
C137 C 0.3789(2) 0.86404(19) 0.7205(2)
H67 H 0.374928 0.850172 0.700404
C138 C 0.4042(2) 0.88894(19) 0.7203(2)
H68 H 0.418032 0.892295 0.700158
C139 C 0.42682(14) 0.97162(15) 0.7487(2)
C140 C 0.39097(15) 0.98251(16) 0.7471(2)
H69 H 0.371144 0.967792 0.746223
Zr6 Zr 0.70717(2) 0.29283(2) 0.77208(2)
O37 O 0.6717(3) 0.3283(3) 0.7532(4)
O39 O 0.7416(2) 0.2584(2) 0.8060(3)
Zr10 Zr 0.72792(2) 0.79283(2) 0.79283(2)
O46 O 0.7468(4) 0.8283(3) 0.8283(3)
O47 O 0.78264(16) 0.78264(16) 0.78264(16)
O48 O 0.6940(3) 0.7584(2) 0.7584(2)
Zr11 Zr 0.79283(2) 0.72792(2) 0.79283(2)
O49 O 0.8283(3) 0.7468(4) 0.8283(3)
O50 O 0.7584(2) 0.6940(3) 0.7584(2)
Zr15 Zr 0.29283(2) 0.77208(2) 0.70717(2)
Zr18 Zr 0.77208(2) 0.29283(2) 0.70717(2)
Zr25 Zr 0.27208(2) 0.79283(2) 0.79283(2)
Zr29 Zr 0.79283(2) 0.27208(2) 0.79283(2)
Zr30 Zr 0.79283(2) 0.79283(2) 0.72792(2)
O54 O 0.67180(13) 0.27741(14) 0.81397(13)
O61 O 0.67180(13) 0.72259(14) 0.81397(13)
O63 O 0.72259(14) 0.81397(13) 0.67180(13)
O64 O 0.81397(13) 0.67180(13) 0.72259(14)
O65 O 0.68603(13) 0.77741(14) 0.82820(13)
O66 O 0.82820(13) 0.68603(13) 0.77741(14)
O77 O 0.7584(2) 0.3060(3) 0.7584(2)
O78 O 0.7584(2) 0.7584(2) 0.6940(3)
Cu1_3 Cu 0.250000 0.500000 0.000000
N1_3 N 0.2502(2) 0.44813(17) 0.000000
O6_2 O 0.27741(14) 0.32820(13) 0.18603(13)
C13_2 C 0.250000 0.33187(17) 0.16813(17)
C14_2 C 0.250000 0.35923(16) 0.14077(16)
C15_2 C 0.2795(2) 0.3789(2) 0.13596(19)
H7_2 H 0.299596 0.374928 0.149828
C16_2 C 0.2797(2) 0.4042(2) 0.11106(19)
H8_2 H 0.299842 0.418032 0.107705
C17_2 C 0.250000 0.40972(17) 0.09028(17)
C18_2 C 0.250000 0.43690(16) 0.06310(16)
C19_2 C 0.2513(2) 0.42682(14) 0.02838(15)
C20_2 C 0.2529(2) 0.39097(15) 0.01749(16)
H9_2 H 0.253777 0.371144 0.032208
O7_2 O 0.22259(14) 0.31397(13) 0.17180(13)
N3_2 N 0.2498(2) 0.500000 0.05187(17)
C21_2 C 0.2205(2) 0.36404(19) 0.1211(2)
H10_2 H 0.200404 0.350172 0.125072
C22_2 C 0.2203(2) 0.38894(19) 0.0958(2)
H11_2 H 0.200158 0.392295 0.081968
C23_2 C 0.2487(2) 0.47162(15) 0.07318(14)
C24_2 C 0.2471(2) 0.48251(16) 0.10903(15)
H12_2 H 0.246223 0.467792 0.128856
O9_2 O 0.22259(14) 0.68603(13) 0.17180(13)
C33_2 C 0.250000 0.66813(17) 0.16813(17)
C34_2 C 0.250000 0.64077(16) 0.14077(16)
C35_2 C 0.2205(2) 0.63596(19) 0.1211(2)
H16_2 H 0.200404 0.649828 0.125072
C36_2 C 0.2203(2) 0.61106(19) 0.0958(2)
H17_2 H 0.200158 0.607705 0.081968
C37_2 C 0.250000 0.59028(17) 0.09028(17)
C38_2 C 0.250000 0.56310(16) 0.06310(16)
C39_2 C 0.2487(2) 0.52838(15) 0.07318(14)
C40_2 C 0.2471(2) 0.51749(16) 0.10903(15)
H18_2 H 0.246223 0.532208 0.128856
N4_3 N 0.2502(2) 0.55187(17) 0.000000
O11_2 O 0.27741(14) 0.67180(13) 0.18603(13)
C45_2 C 0.2795(2) 0.6211(2) 0.13596(19)
H22_2 H 0.299596 0.625072 0.149828
C46_2 C 0.2797(2) 0.5958(2) 0.11106(19)
H23_2 H 0.299842 0.581968 0.107705
C47_2 C 0.2513(2) 0.57318(14) 0.02838(15)
C48_2 C 0.2529(2) 0.60903(15) 0.01749(16)
H24_2 H 0.253777 0.628856 0.032208
Zr2_2 Zr 0.29283(2) 0.70717(2) 0.22792(2)
O12_2 O 0.3283(3) 0.6717(3) 0.2468(4)
O13_2 O 0.2584(2) 0.7416(2) 0.1940(3)
Zr5_2 Zr 0.29283(2) 0.29283(2) 0.22792(2)
O34_2 O 0.3283(3) 0.3283(3) 0.2468(4)
O35_2 O 0.28264(16) 0.28264(16) 0.28264(16)
O36_2 O 0.2584(2) 0.2584(2) 0.1940(3)
Zr7_2 Zr 0.29283(2) 0.22792(2) 0.29283(2)
O40_2 O 0.3283(3) 0.2468(4) 0.3283(3)
O41_2 O 0.2584(2) 0.1940(3) 0.2584(2)
Zr12_2 Zr 0.20717(2) 0.27208(2) 0.20717(2)
O51_2 O 0.1717(3) 0.2532(4) 0.1717(3)
O52_2 O 0.2416(2) 0.3060(3) 0.2416(2)
Zr17_2 Zr 0.22792(2) 0.29283(2) 0.29283(2)
Zr21_2 Zr 0.20717(2) 0.20717(2) 0.27208(2)
Zr26_2 Zr 0.27208(2) 0.20717(2) 0.20717(2)
Zr32_2 Zr 0.20717(2) 0.72792(2) 0.20717(2)
Zr34_2 Zr 0.27208(2) 0.79283(2) 0.20717(2)
O53_2 O 0.32820(13) 0.27741(14) 0.18603(13)
O55_2 O 0.27741(14) 0.18603(13) 0.32820(13)
O58_2 O 0.17180(13) 0.31397(13) 0.22259(14)
O60_2 O 0.32820(13) 0.18603(13) 0.27741(14)
O62_2 O 0.32820(13) 0.72259(14) 0.18603(13)
O67_2 O 0.28264(16) 0.71736(16) 0.28264(16)
O69_2 O 0.21736(16) 0.21736(16) 0.21736(16)
O70_2 O 0.1940(3) 0.2584(2) 0.2584(2)
O71_2 O 0.2416(2) 0.2416(2) 0.3060(3)
O74_2 O 0.3060(3) 0.2416(2) 0.2416(2)
O79_2 O 0.2416(2) 0.6940(3) 0.2416(2)
O80_2 O 0.3060(3) 0.7584(2) 0.2416(2)
Zr1_2 Zr 0.29283(2) 0.29283(2) 0.77208(2)
Cu1_4 Cu 0.250000 0.500000 1.000000
O1_2 O 0.27741(14) 0.32820(13) 0.81397(13)
O2_2 O 0.3283(3) 0.3283(3) 0.7532(4)
O3_2 O 0.28264(16) 0.28264(16) 0.71736(16)
O4_2 O 0.2584(2) 0.2584(2) 0.8060(3)
N1_4 N 0.2502(2) 0.44813(17) 1.000000
C1_2 C 0.250000 0.33187(17) 0.83187(17)
C2_2 C 0.250000 0.35923(16) 0.85923(16)
C3_2 C 0.2795(2) 0.3789(2) 0.86404(19)
H1_2 H 0.299596 0.374928 0.850172
C4_2 C 0.2797(2) 0.4042(2) 0.88894(19)
H2_2 H 0.299842 0.418032 0.892295
C5_2 C 0.250000 0.40972(17) 0.90972(17)
C6_2 C 0.250000 0.43690(16) 0.93690(16)
C7_2 C 0.2513(2) 0.42682(14) 0.97162(15)
C8_2 C 0.2529(2) 0.39097(15) 0.98251(16)
H3_2 H 0.253777 0.371144 0.967792
O5_2 O 0.22259(14) 0.31397(13) 0.82820(13)
N2_2 N 0.2498(2) 0.500000 0.94813(17)
C9_2 C 0.2205(2) 0.36404(19) 0.8789(2)
H4_2 H 0.200404 0.350172 0.874928
C10_2 C 0.2203(2) 0.38894(19) 0.9042(2)
H5_2 H 0.200158 0.392295 0.918032
C11_2 C 0.2487(2) 0.47162(15) 0.92682(14)
C12_2 C 0.2471(2) 0.48251(16) 0.89097(15)
H6_2 H 0.246223 0.467792 0.871144
O8_2 O 0.22259(14) 0.68603(13) 0.82820(13)
C25_2 C 0.250000 0.66813(17) 0.83187(17)
C26_2 C 0.250000 0.64077(16) 0.85923(16)
C27_2 C 0.2205(2) 0.63596(19) 0.8789(2)
H13_2 H 0.200404 0.649828 0.874928
C28_2 C 0.2203(2) 0.61106(19) 0.9042(2)
H14_2 H 0.200158 0.607705 0.918032
C29_2 C 0.250000 0.59028(17) 0.90972(17)
C30_2 C 0.250000 0.56310(16) 0.93690(16)
C31_2 C 0.2487(2) 0.52838(15) 0.92682(14)
C32_2 C 0.2471(2) 0.51749(16) 0.89097(15)
H15_2 H 0.246223 0.532208 0.871144
O10_2 O 0.27741(14) 0.67180(13) 0.81397(13)
N4_4 N 0.2502(2) 0.55187(17) 1.000000
C41_2 C 0.2795(2) 0.6211(2) 0.86404(19)
H19_2 H 0.299596 0.625072 0.850172
C42_2 C 0.2797(2) 0.5958(2) 0.88894(19)
H20_2 H 0.299842 0.581968 0.892295
C43_2 C 0.2513(2) 0.57318(14) 0.97162(15)
C44_2 C 0.2529(2) 0.60903(15) 0.98251(16)
H21_2 H 0.253777 0.628856 0.967792
Zr3_2 Zr 0.22792(2) 0.29283(2) 0.70717(2)
Cu2_3 Cu 0.000000 0.250000 0.500000
O14_2 O 0.18603(13) 0.27741(14) 0.67180(13)
O15_2 O 0.2468(4) 0.3283(3) 0.6717(3)
O16_2 O 0.1940(3) 0.2584(2) 0.7416(2)
N5_3 N -0.000000 0.2502(2) 0.55187(17)
C49_2 C 0.16813(17) 0.250000 0.66813(17)
C50_2 C 0.14077(16) 0.250000 0.64077(16)
C51_2 C 0.13596(19) 0.2795(2) 0.6211(2)
H25_2 H 0.149828 0.299596 0.625072
C52_2 C 0.11106(19) 0.2797(2) 0.5958(2)
H26_2 H 0.107705 0.299842 0.581968
C53_2 C 0.09028(17) 0.250000 0.59028(17)
C54_2 C 0.06310(16) 0.250000 0.56310(16)
C55_2 C 0.02838(15) 0.2513(2) 0.57318(14)
C56_2 C 0.01749(16) 0.2529(2) 0.60903(15)
H27_2 H 0.032208 0.253777 0.628856
O17_2 O 0.17180(13) 0.22259(14) 0.68603(13)
N6_2 N 0.05187(17) 0.2498(2) 0.500000
C57_2 C 0.1211(2) 0.2205(2) 0.63596(19)
H28_2 H 0.125072 0.200404 0.649828
C58_2 C 0.0958(2) 0.2203(2) 0.61106(19)
H29_2 H 0.081968 0.200158 0.607705
C59_2 C 0.07318(14) 0.2487(2) 0.52838(15)
C60_2 C 0.10903(15) 0.2471(2) 0.51749(16)
H30_2 H 0.128856 0.246223 0.532208
O20_2 O 0.17180(13) 0.22259(14) 0.31397(13)
C73_2 C 0.16813(17) 0.250000 0.33187(17)
C74_2 C 0.14077(16) 0.250000 0.35923(16)
C75_2 C 0.1211(2) 0.2205(2) 0.36404(19)
H37_2 H 0.125072 0.200404 0.350172
C76_2 C 0.0958(2) 0.2203(2) 0.38894(19)
H38_2 H 0.081968 0.200158 0.392295
C77_2 C 0.09028(17) 0.250000 0.40972(17)
C78_2 C 0.06310(16) 0.250000 0.43690(16)
C79_2 C 0.07318(14) 0.2487(2) 0.47162(15)
C80_2 C 0.10903(15) 0.2471(2) 0.48251(16)
H39_2 H 0.128856 0.246223 0.467792
O22_2 O 0.18603(13) 0.27741(14) 0.32820(13)
N8_3 N -0.000000 0.2502(2) 0.44813(17)
C89_2 C 0.13596(19) 0.2795(2) 0.3789(2)
H43_2 H 0.149828 0.299596 0.374928
C90_2 C 0.11106(19) 0.2797(2) 0.4042(2)
H44_2 H 0.107705 0.299842 0.418032
C91_2 C 0.02838(15) 0.2513(2) 0.42682(14)
C92_2 C 0.01749(16) 0.2529(2) 0.39097(15)
H45_2 H 0.032208 0.253777 0.371144
O25_2 O 0.3283(3) 0.2468(4) 0.6717(3)
O26_2 O 0.2584(2) 0.1940(3) 0.7416(2)
Zr6_2 Zr 0.29283(2) 0.70717(2) 0.77208(2)
O37_2 O 0.3283(3) 0.6717(3) 0.7532(4)
O38 O 0.28264(16) 0.71736(16) 0.71736(16)
O39_2 O 0.2584(2) 0.7416(2) 0.8060(3)
O42 O 0.3283(3) 0.7532(4) 0.6717(3)
O43 O 0.2584(2) 0.8060(3) 0.7416(2)
O46_2 O 0.2532(4) 0.1717(3) 0.8283(3)
O47_2 O 0.21736(16) 0.21736(16) 0.78264(16)
O48_2 O 0.3060(3) 0.2416(2) 0.7584(2)
Zr11_2 Zr 0.20717(2) 0.27208(2) 0.79283(2)
O49_2 O 0.1717(3) 0.2532(4) 0.8283(3)
O50_2 O 0.2416(2) 0.3060(3) 0.7584(2)
Zr29_2 Zr 0.20717(2) 0.72792(2) 0.79283(2)
Zr30_2 Zr 0.20717(2) 0.20717(2) 0.72792(2)
O54_2 O 0.32820(13) 0.72259(14) 0.81397(13)
O56 O 0.27741(14) 0.81397(13) 0.67180(13)
O61_2 O 0.32820(13) 0.27741(14) 0.81397(13)
O63_2 O 0.27741(14) 0.18603(13) 0.67180(13)
O64_2 O 0.18603(13) 0.32820(13) 0.72259(14)
O65_2 O 0.31397(13) 0.22259(14) 0.82820(13)
O66_2 O 0.17180(13) 0.31397(13) 0.77741(14)
O72 O 0.2416(2) 0.7584(2) 0.6940(3)
O75 O 0.3060(3) 0.7584(2) 0.7584(2)
O77_2 O 0.2416(2) 0.6940(3) 0.7584(2)
O78_2 O 0.2416(2) 0.2416(2) 0.6940(3)
Cu2_4 Cu 1.000000 0.250000 0.500000
N5_4 N 1.000000 0.2502(2) 0.55187(17)
O18_2 O 0.81397(13) 0.27741(14) 0.67180(13)
C61_2 C 0.83187(17) 0.250000 0.66813(17)
C62_2 C 0.85923(16) 0.250000 0.64077(16)
C63_2 C 0.86404(19) 0.2795(2) 0.6211(2)
H31_2 H 0.850172 0.299596 0.625072
C64_2 C 0.88894(19) 0.2797(2) 0.5958(2)
H32_2 H 0.892295 0.299842 0.581968
C65_2 C 0.90972(17) 0.250000 0.59028(17)
C66_2 C 0.93690(16) 0.250000 0.56310(16)
C67_2 C 0.97162(15) 0.2513(2) 0.57318(14)
C68_2 C 0.98251(16) 0.2529(2) 0.60903(15)
H33_2 H 0.967792 0.253777 0.628856
O19_2 O 0.82820(13) 0.22259(14) 0.68603(13)
N7_2 N 0.94813(17) 0.2498(2) 0.500000
C69_2 C 0.8789(2) 0.2205(2) 0.63596(19)
H34_2 H 0.874928 0.200404 0.649828
C70_2 C 0.9042(2) 0.2203(2) 0.61106(19)
H35_2 H 0.918032 0.200158 0.607705
C71_2 C 0.92682(14) 0.2487(2) 0.52838(15)
C72_2 C 0.89097(15) 0.2471(2) 0.51749(16)
H36_2 H 0.871144 0.246223 0.532208
O21_2 O 0.82820(13) 0.22259(14) 0.31397(13)
C81_2 C 0.83187(17) 0.250000 0.33187(17)
C82_2 C 0.85923(16) 0.250000 0.35923(16)
C83_2 C 0.8789(2) 0.2205(2) 0.36404(19)
H40_2 H 0.874928 0.200404 0.350172
C84_2 C 0.9042(2) 0.2203(2) 0.38894(19)
H41_2 H 0.918032 0.200158 0.392295
C85_2 C 0.90972(17) 0.250000 0.40972(17)
C86_2 C 0.93690(16) 0.250000 0.43690(16)
C87_2 C 0.92682(14) 0.2487(2) 0.47162(15)
C88_2 C 0.89097(15) 0.2471(2) 0.48251(16)
H42_2 H 0.871144 0.246223 0.467792
N8_4 N 1.000000 0.2502(2) 0.44813(17)
O23_2 O 0.81397(13) 0.27741(14) 0.32820(13)
C93_2 C 0.86404(19) 0.2795(2) 0.3789(2)
H46_2 H 0.850172 0.299596 0.374928
C94_2 C 0.88894(19) 0.2797(2) 0.4042(2)
H47_2 H 0.892295 0.299842 0.418032
C95_2 C 0.97162(15) 0.2513(2) 0.42682(14)
C96_2 C 0.98251(16) 0.2529(2) 0.39097(15)
H48_2 H 0.967792 0.253777 0.371144
Zr13_2 Zr 0.77208(2) 0.29283(2) 0.29283(2)
Zr31_2 Zr 0.79283(2) 0.20717(2) 0.27208(2)
Cu3_3 Cu 0.500000 0.000000 0.250000
N9_3 N 0.44813(17) 0.000000 0.2502(2)
C109_2 C 0.33187(17) 0.16813(17) 0.250000
C110_2 C 0.35923(16) 0.14077(16) 0.250000
C111_2 C 0.3789(2) 0.13596(19) 0.2795(2)
H55_2 H 0.374928 0.149828 0.299596
C112_2 C 0.4042(2) 0.11106(19) 0.2797(2)
H56_2 H 0.418032 0.107705 0.299842
C113_2 C 0.40972(17) 0.09028(17) 0.250000
C114_2 C 0.43690(16) 0.06310(16) 0.250000
C115_2 C 0.42682(14) 0.02838(15) 0.2513(2)
C116_2 C 0.39097(15) 0.01749(16) 0.2529(2)
H57_2 H 0.371144 0.032208 0.253777
O29_2 O 0.31397(13) 0.17180(13) 0.22259(14)
N11_2 N 0.500000 0.05187(17) 0.2498(2)
C117_2 C 0.36404(19) 0.1211(2) 0.2205(2)
H58_2 H 0.350172 0.125072 0.200404
C118_2 C 0.38894(19) 0.0958(2) 0.2203(2)
H59_2 H 0.392295 0.081968 0.200158
C119_2 C 0.47162(15) 0.07318(14) 0.2487(2)
C120_2 C 0.48251(16) 0.10903(15) 0.2471(2)
H60_2 H 0.467792 0.128856 0.246223
O31_2 O 0.68603(13) 0.17180(13) 0.22259(14)
C129_2 C 0.66813(17) 0.16813(17) 0.250000
C130_2 C 0.64077(16) 0.14077(16) 0.250000
C131_2 C 0.63596(19) 0.1211(2) 0.2205(2)
H64_2 H 0.649828 0.125072 0.200404
C132_2 C 0.61106(19) 0.0958(2) 0.2203(2)
H65_2 H 0.607705 0.081968 0.200158
C133_2 C 0.59028(17) 0.09028(17) 0.250000
C134_2 C 0.56310(16) 0.06310(16) 0.250000
C135_2 C 0.52838(15) 0.07318(14) 0.2487(2)
C136_2 C 0.51749(16) 0.10903(15) 0.2471(2)
H66_2 H 0.532208 0.128856 0.246223
N12_3 N 0.55187(17) 0.000000 0.2502(2)
O33_2 O 0.67180(13) 0.18603(13) 0.27741(14)
C141_2 C 0.6211(2) 0.13596(19) 0.2795(2)
H70_2 H 0.625072 0.149828 0.299596
C142_2 C 0.5958(2) 0.11106(19) 0.2797(2)
H71_2 H 0.581968 0.107705 0.299842
C143_2 C 0.57318(14) 0.02838(15) 0.2513(2)
C144_2 C 0.60903(15) 0.01749(16) 0.2529(2)
H72_2 H 0.628856 0.032208 0.253777
Zr14_2 Zr 0.70717(2) 0.22792(2) 0.29283(2)
O15_3 O 0.2468(4) 0.6717(3) 0.3283(3)
O16_3 O 0.1940(3) 0.7416(2) 0.2584(2)
Zr4_2 Zr 0.29283(2) 0.77208(2) 0.29283(2)
Cu3_4 Cu 0.500000 1.000000 0.250000
O24_2 O 0.32820(13) 0.81397(13) 0.27741(14)
O25_3 O 0.3283(3) 0.7532(4) 0.3283(3)
O26_3 O 0.2584(2) 0.8060(3) 0.2584(2)
N9_4 N 0.44813(17) 1.000000 0.2502(2)
C97_2 C 0.33187(17) 0.83187(17) 0.250000
C98_2 C 0.35923(16) 0.85923(16) 0.250000
C99_2 C 0.3789(2) 0.86404(19) 0.2795(2)
H49_2 H 0.374928 0.850172 0.299596
C100_2 C 0.4042(2) 0.88894(19) 0.2797(2)
H50_2 H 0.418032 0.892295 0.299842
C101_2 C 0.40972(17) 0.90972(17) 0.250000
C102_2 C 0.43690(16) 0.93690(16) 0.250000
C103_2 C 0.42682(14) 0.97162(15) 0.2513(2)
C104_2 C 0.39097(15) 0.98251(16) 0.2529(2)
H51_2 H 0.371144 0.967792 0.253777
O27_2 O 0.31397(13) 0.82820(13) 0.22259(14)
N10_2 N 0.500000 0.94813(17) 0.2498(2)
C105_2 C 0.36404(19) 0.8789(2) 0.2205(2)
H52_2 H 0.350172 0.874928 0.200404
C106_2 C 0.38894(19) 0.9042(2) 0.2203(2)
H53_2 H 0.392295 0.918032 0.200158
C107_2 C 0.47162(15) 0.92682(14) 0.2487(2)
C108_2 C 0.48251(16) 0.89097(15) 0.2471(2)
H54_2 H 0.467792 0.871144 0.246223
O30_2 O 0.68603(13) 0.82820(13) 0.22259(14)
C121_2 C 0.66813(17) 0.83187(17) 0.250000
C122_2 C 0.64077(16) 0.85923(16) 0.250000
C123_2 C 0.63596(19) 0.8789(2) 0.2205(2)
H61_2 H 0.649828 0.874928 0.200404
C124_2 C 0.61106(19) 0.9042(2) 0.2203(2)
H62_2 H 0.607705 0.918032 0.200158
C125_2 C 0.59028(17) 0.90972(17) 0.250000
C126_2 C 0.56310(16) 0.93690(16) 0.250000
C127_2 C 0.52838(15) 0.92682(14) 0.2487(2)
C128_2 C 0.51749(16) 0.89097(15) 0.2471(2)
H63_2 H 0.532208 0.871144 0.246223
N12_4 N 0.55187(17) 1.000000 0.2502(2)
C137_2 C 0.6211(2) 0.86404(19) 0.2795(2)
H67_2 H 0.625072 0.850172 0.299596
C138_2 C 0.5958(2) 0.88894(19) 0.2797(2)
H68_2 H 0.581968 0.892295 0.299842
C139_2 C 0.57318(14) 0.97162(15) 0.2513(2)
C140_2 C 0.60903(15) 0.98251(16) 0.2529(2)
H69_2 H 0.628856 0.967792 0.253777
O46_3 O 0.2532(4) 0.8283(3) 0.1717(3)
O47_3 O 0.21736(16) 0.78264(16) 0.21736(16)
O49_3 O 0.1717(3) 0.7468(4) 0.1717(3)
O63_3 O 0.27741(14) 0.81397(13) 0.32820(13)
O64_3 O 0.18603(13) 0.67180(13) 0.27741(14)
O65_3 O 0.31397(13) 0.77741(14) 0.17180(13)
O66_3 O 0.17180(13) 0.68603(13) 0.22259(14)
O78_3 O 0.2416(2) 0.7584(2) 0.3060(3)
O51_3 O 0.1717(3) 0.7468(4) 0.8283(3)
O58_3 O 0.17180(13) 0.68603(13) 0.77741(14)
O69_3 O 0.21736(16) 0.78264(16) 0.78264(16)
O70_3 O 0.1940(3) 0.7416(2) 0.7416(2)
O15_4 O 0.7532(4) 0.3283(3) 0.3283(3)
O16_4 O 0.8060(3) 0.2584(2) 0.2584(2)
O25_4 O 0.6717(3) 0.2468(4) 0.3283(3)
O26_4 O 0.7416(2) 0.1940(3) 0.2584(2)
O46_4 O 0.7468(4) 0.1717(3) 0.1717(3)
O47_4 O 0.78264(16) 0.21736(16) 0.21736(16)
O49_4 O 0.8283(3) 0.2532(4) 0.1717(3)
O63_4 O 0.72259(14) 0.18603(13) 0.32820(13)
O64_4 O 0.81397(13) 0.32820(13) 0.27741(14)
O65_4 O 0.68603(13) 0.22259(14) 0.17180(13)
O66_4 O 0.82820(13) 0.31397(13) 0.22259(14)
O78_4 O 0.7584(2) 0.2416(2) 0.3060(3)
O51_4 O 0.8283(3) 0.2532(4) 0.8283(3)
O58_4 O 0.82820(13) 0.31397(13) 0.77741(14)
O69_4 O 0.78264(16) 0.21736(16) 0.78264(16)
O70_4 O 0.8060(3) 0.2584(2) 0.7416(2)
O34_3 O 0.2468(4) 0.6717(3) 0.6717(3)
O51_5 O 0.1717(3) 0.8283(3) 0.7468(4)
O53_3 O 0.18603(13) 0.67180(13) 0.72259(14)
O58_5 O 0.22259(14) 0.82820(13) 0.68603(13)
O37_3 O 0.7532(4) 0.6717(3) 0.3283(3)
O49_5 O 0.8283(3) 0.8283(3) 0.7468(4)
O54_3 O 0.81397(13) 0.67180(13) 0.27741(14)
O66_5 O 0.77741(14) 0.82820(13) 0.68603(13)
O34_4 O 0.2468(4) 0.3283(3) 0.3283(3)
O51_6 O 0.1717(3) 0.1717(3) 0.2532(4)
O53_4 O 0.18603(13) 0.32820(13) 0.27741(14)
O58_6 O 0.22259(14) 0.17180(13) 0.31397(13)
O37_4 O 0.7532(4) 0.3283(3) 0.6717(3)
O49_6 O 0.8283(3) 0.1717(3) 0.2532(4)
O54_4 O 0.81397(13) 0.32820(13) 0.72259(14)
O66_6 O 0.77741(14) 0.17180(13) 0.31397(13)
O49_7 O 0.1717(3) 0.1717(3) 0.7468(4)
O66_7 O 0.22259(14) 0.17180(13) 0.68603(13)
O51_7 O 0.8283(3) 0.1717(3) 0.7468(4)
O58_7 O 0.77741(14) 0.17180(13) 0.68603(13)
O49_8 O 0.1717(3) 0.8283(3) 0.2532(4)
O66_8 O 0.22259(14) 0.82820(13) 0.31397(13)
O51_8 O 0.8283(3) 0.8283(3) 0.2532(4)
O58_8 O 0.77741(14) 0.82820(13) 0.31397(13)
O51_9 O 0.7468(4) 0.1717(3) 0.8283(3)
O58_9 O 0.68603(13) 0.22259(14) 0.82820(13)
O51_10 O 0.2532(4) 0.1717(3) 0.1717(3)
O58_10 O 0.31397(13) 0.22259(14) 0.17180(13)
O51_11 O 0.7468(4) 0.8283(3) 0.1717(3)
O58_11 O 0.68603(13) 0.77741(14) 0.17180(13)
O51_12 O 0.2532(4) 0.8283(3) 0.8283(3)
O58_12 O 0.31397(13) 0.77741(14) 0.82820(13)
Cu3_5 Cu -0.000000 0.500000 0.250000
N9_5 N -0.000000 0.55187(17) 0.2502(2)
C109_3 C 0.16813(17) 0.66813(17) 0.250000
C110_3 C 0.14077(16) 0.64077(16) 0.250000
C111_3 C 0.13596(19) 0.6211(2) 0.2795(2)
H55_3 H 0.149828 0.625072 0.299596
C112_3 C 0.11106(19) 0.5958(2) 0.2797(2)
H56_3 H 0.107705 0.581968 0.299842
C113_3 C 0.09028(17) 0.59028(17) 0.250000
C114_3 C 0.06310(16) 0.56310(16) 0.250000
C115_3 C 0.02838(15) 0.57318(14) 0.2513(2)
C116_3 C 0.01749(16) 0.60903(15) 0.2529(2)
H57_3 H 0.032208 0.628856 0.253777
N11_3 N 0.05187(17) 0.500000 0.2498(2)
C117_3 C 0.1211(2) 0.63596(19) 0.2205(2)
H58_3 H 0.125072 0.649828 0.200404
C118_3 C 0.0958(2) 0.61106(19) 0.2203(2)
H59_3 H 0.081968 0.607705 0.200158
C119_3 C 0.07318(14) 0.52838(15) 0.2487(2)
C120_3 C 0.10903(15) 0.51749(16) 0.2471(2)
H60_3 H 0.128856 0.532208 0.246223
C129_3 C 0.16813(17) 0.33187(17) 0.250000
C130_3 C 0.14077(16) 0.35923(16) 0.250000
C131_3 C 0.1211(2) 0.36404(19) 0.2205(2)
H64_3 H 0.125072 0.350172 0.200404
C132_3 C 0.0958(2) 0.38894(19) 0.2203(2)
H65_3 H 0.081968 0.392295 0.200158
C133_3 C 0.09028(17) 0.40972(17) 0.250000
C134_3 C 0.06310(16) 0.43690(16) 0.250000
C135_3 C 0.07318(14) 0.47162(15) 0.2487(2)
C136_3 C 0.10903(15) 0.48251(16) 0.2471(2)
H66_3 H 0.128856 0.467792 0.246223
N12_5 N -0.000000 0.44813(17) 0.2502(2)
C141_3 C 0.13596(19) 0.3789(2) 0.2795(2)
H70_3 H 0.149828 0.374928 0.299596
C142_3 C 0.11106(19) 0.4042(2) 0.2797(2)
H71_3 H 0.107705 0.418032 0.299842
C143_3 C 0.02838(15) 0.42682(14) 0.2513(2)
C144_3 C 0.01749(16) 0.39097(15) 0.2529(2)
H72_3 H 0.032208 0.371144 0.253777
Cu2_5 Cu 0.750000 0.000000 0.500000
N5_5 N 0.7498(2) -0.000000 0.44813(17)
C61_3 C 0.750000 0.16813(17) 0.33187(17)
C62_3 C 0.750000 0.14077(16) 0.35923(16)
C63_3 C 0.7205(2) 0.13596(19) 0.3789(2)
H31_3 H 0.700404 0.149828 0.374928
C64_3 C 0.7203(2) 0.11106(19) 0.4042(2)
H32_3 H 0.700158 0.107705 0.418032
C65_3 C 0.750000 0.09028(17) 0.40972(17)
C66_3 C 0.750000 0.06310(16) 0.43690(16)
C67_3 C 0.7487(2) 0.02838(15) 0.42682(14)
C68_3 C 0.7471(2) 0.01749(16) 0.39097(15)
H33_3 H 0.746223 0.032208 0.371144
N7_3 N 0.7502(2) 0.05187(17) 0.500000
C69_3 C 0.7795(2) 0.1211(2) 0.36404(19)
H34_3 H 0.799596 0.125072 0.350172
C70_3 C 0.7797(2) 0.0958(2) 0.38894(19)
H35_3 H 0.799842 0.081968 0.392295
C71_3 C 0.7513(2) 0.07318(14) 0.47162(15)
C72_3 C 0.7529(2) 0.10903(15) 0.48251(16)
H36_3 H 0.753777 0.128856 0.467792
C81_3 C 0.750000 0.16813(17) 0.66813(17)
C82_3 C 0.750000 0.14077(16) 0.64077(16)
C83_3 C 0.7795(2) 0.1211(2) 0.63596(19)
H40_3 H 0.799596 0.125072 0.649828
C84_3 C 0.7797(2) 0.0958(2) 0.61106(19)
H41_3 H 0.799842 0.081968 0.607705
C85_3 C 0.750000 0.09028(17) 0.59028(17)
C86_3 C 0.750000 0.06310(16) 0.56310(16)
C87_3 C 0.7513(2) 0.07318(14) 0.52838(15)
C88_3 C 0.7529(2) 0.10903(15) 0.51749(16)
H42_3 H 0.753777 0.128856 0.532208
N8_5 N 0.7498(2) 0.000000 0.55187(17)
C93_3 C 0.7205(2) 0.13596(19) 0.6211(2)
H46_3 H 0.700404 0.149828 0.625072
C94_3 C 0.7203(2) 0.11106(19) 0.5958(2)
H47_3 H 0.700158 0.107705 0.581968
C95_3 C 0.7487(2) 0.02838(15) 0.57318(14)
C96_3 C 0.7471(2) 0.01749(16) 0.60903(15)
H48_3 H 0.746223 0.032208 0.628856
Cu1_5 Cu 0.500000 0.750000 0.000000
N1_5 N 0.55187(17) 0.7498(2) 0.000000
C1_3 C 0.66813(17) 0.750000 0.16813(17)
C2_3 C 0.64077(16) 0.750000 0.14077(16)
C3_3 C 0.6211(2) 0.7205(2) 0.13596(19)
H1_3 H 0.625072 0.700404 0.149828
C4_3 C 0.5958(2) 0.7203(2) 0.11106(19)
H2_3 H 0.581968 0.700158 0.107705
C5_3 C 0.59028(17) 0.750000 0.09028(17)
C6_3 C 0.56310(16) 0.750000 0.06310(16)
C7_3 C 0.57318(14) 0.7487(2) 0.02838(15)
C8_3 C 0.60903(15) 0.7471(2) 0.01749(16)
H3_3 H 0.628856 0.746223 0.032208
N2_3 N 0.500000 0.7502(2) 0.05187(17)
C9_3 C 0.63596(19) 0.7795(2) 0.1211(2)
H4_3 H 0.649828 0.799596 0.125072
C10_3 C 0.61106(19) 0.7797(2) 0.0958(2)
H5_3 H 0.607705 0.799842 0.081968
C11_3 C 0.52838(15) 0.7513(2) 0.07318(14)
C12_3 C 0.51749(16) 0.7529(2) 0.10903(15)
H6_3 H 0.532208 0.753777 0.128856
C25_3 C 0.33187(17) 0.750000 0.16813(17)
C26_3 C 0.35923(16) 0.750000 0.14077(16)
C27_3 C 0.36404(19) 0.7795(2) 0.1211(2)
H13_3 H 0.350172 0.799596 0.125072
C28_3 C 0.38894(19) 0.7797(2) 0.0958(2)
H14_3 H 0.392295 0.799842 0.081968
C29_3 C 0.40972(17) 0.750000 0.09028(17)
C30_3 C 0.43690(16) 0.750000 0.06310(16)
C31_3 C 0.47162(15) 0.7513(2) 0.07318(14)
C32_3 C 0.48251(16) 0.7529(2) 0.10903(15)
H15_3 H 0.467792 0.753777 0.128856
N4_5 N 0.44813(17) 0.7498(2) 0.000000
C41_3 C 0.3789(2) 0.7205(2) 0.13596(19)
H19_3 H 0.374928 0.700404 0.149828
C42_3 C 0.4042(2) 0.7203(2) 0.11106(19)
H20_3 H 0.418032 0.700158 0.107705
C43_3 C 0.42682(14) 0.7487(2) 0.02838(15)
C44_3 C 0.39097(15) 0.7471(2) 0.01749(16)
H21_3 H 0.371144 0.746223 0.032208
Cu2_6 Cu 0.750000 1.000000 0.500000
N5_6 N 0.7498(2) 1.000000 0.44813(17)
C49_3 C 0.750000 0.83187(17) 0.33187(17)
C50_3 C 0.750000 0.85923(16) 0.35923(16)
C51_3 C 0.7205(2) 0.86404(19) 0.3789(2)
H25_3 H 0.700404 0.850172 0.374928
C52_3 C 0.7203(2) 0.88894(19) 0.4042(2)
H26_3 H 0.700158 0.892295 0.418032
C53_3 C 0.750000 0.90972(17) 0.40972(17)
C54_3 C 0.750000 0.93690(16) 0.43690(16)
C55_3 C 0.7487(2) 0.97162(15) 0.42682(14)
C56_3 C 0.7471(2) 0.98251(16) 0.39097(15)
H27_3 H 0.746223 0.967792 0.371144
N6_3 N 0.7502(2) 0.94813(17) 0.500000
C57_3 C 0.7795(2) 0.8789(2) 0.36404(19)
H28_3 H 0.799596 0.874928 0.350172
C58_3 C 0.7797(2) 0.9042(2) 0.38894(19)
H29_3 H 0.799842 0.918032 0.392295
C59_3 C 0.7513(2) 0.92682(14) 0.47162(15)
C60_3 C 0.7529(2) 0.89097(15) 0.48251(16)
H30_3 H 0.753777 0.871144 0.467792
C73_3 C 0.750000 0.83187(17) 0.66813(17)
C74_3 C 0.750000 0.85923(16) 0.64077(16)
C75_3 C 0.7795(2) 0.8789(2) 0.63596(19)
H37_3 H 0.799596 0.874928 0.649828
C76_3 C 0.7797(2) 0.9042(2) 0.61106(19)
H38_3 H 0.799842 0.918032 0.607705
C77_3 C 0.750000 0.90972(17) 0.59028(17)
C78_3 C 0.750000 0.93690(16) 0.56310(16)
C79_3 C 0.7513(2) 0.92682(14) 0.52838(15)
C80_3 C 0.7529(2) 0.89097(15) 0.51749(16)
H39_3 H 0.753777 0.871144 0.532208
N8_6 N 0.7498(2) 1.000000 0.55187(17)
C89_3 C 0.7205(2) 0.86404(19) 0.6211(2)
H43_3 H 0.700404 0.850172 0.625072
C90_3 C 0.7203(2) 0.88894(19) 0.5958(2)
H44_3 H 0.700158 0.892295 0.581968
C91_3 C 0.7487(2) 0.97162(15) 0.57318(14)
C92_3 C 0.7471(2) 0.98251(16) 0.60903(15)
H45_3 H 0.746223 0.967792 0.628856
Cu3_6 Cu 1.000000 0.500000 0.250000
N9_6 N 1.000000 0.55187(17) 0.2502(2)
C97_3 C 0.83187(17) 0.66813(17) 0.250000
C98_3 C 0.85923(16) 0.64077(16) 0.250000
C99_3 C 0.86404(19) 0.6211(2) 0.2795(2)
H49_3 H 0.850172 0.625072 0.299596
C100_3 C 0.88894(19) 0.5958(2) 0.2797(2)
H50_3 H 0.892295 0.581968 0.299842
C101_3 C 0.90972(17) 0.59028(17) 0.250000
C102_3 C 0.93690(16) 0.56310(16) 0.250000
C103_3 C 0.97162(15) 0.57318(14) 0.2513(2)
C104_3 C 0.98251(16) 0.60903(15) 0.2529(2)
H51_3 H 0.967792 0.628856 0.253777
N10_3 N 0.94813(17) 0.500000 0.2498(2)
C105_3 C 0.8789(2) 0.63596(19) 0.2205(2)
H52_3 H 0.874928 0.649828 0.200404
C106_3 C 0.9042(2) 0.61106(19) 0.2203(2)
H53_3 H 0.918032 0.607705 0.200158
C107_3 C 0.92682(14) 0.52838(15) 0.2487(2)
C108_3 C 0.89097(15) 0.51749(16) 0.2471(2)
H54_3 H 0.871144 0.532208 0.246223
C121_3 C 0.83187(17) 0.33187(17) 0.250000
C122_3 C 0.85923(16) 0.35923(16) 0.250000
C123_3 C 0.8789(2) 0.36404(19) 0.2205(2)
H61_3 H 0.874928 0.350172 0.200404
C124_3 C 0.9042(2) 0.38894(19) 0.2203(2)
H62_3 H 0.918032 0.392295 0.200158
C125_3 C 0.90972(17) 0.40972(17) 0.250000
C126_3 C 0.93690(16) 0.43690(16) 0.250000
C127_3 C 0.92682(14) 0.47162(15) 0.2487(2)
C128_3 C 0.89097(15) 0.48251(16) 0.2471(2)
H63_3 H 0.871144 0.467792 0.246223
N12_6 N 1.000000 0.44813(17) 0.2502(2)
C137_3 C 0.86404(19) 0.3789(2) 0.2795(2)
H67_3 H 0.850172 0.374928 0.299596
C138_3 C 0.88894(19) 0.4042(2) 0.2797(2)
H68_3 H 0.892295 0.418032 0.299842
C139_3 C 0.97162(15) 0.42682(14) 0.2513(2)
C140_3 C 0.98251(16) 0.39097(15) 0.2529(2)
H69_3 H 0.967792 0.371144 0.253777
Cu1_6 Cu 0.500000 0.750000 1.000000
N1_6 N 0.55187(17) 0.7498(2) 1.000000
C13_3 C 0.66813(17) 0.750000 0.83187(17)
C14_3 C 0.64077(16) 0.750000 0.85923(16)
C15_3 C 0.6211(2) 0.7205(2) 0.86404(19)
H7_3 H 0.625072 0.700404 0.850172
C16_3 C 0.5958(2) 0.7203(2) 0.88894(19)
H8_3 H 0.581968 0.700158 0.892295
C17_3 C 0.59028(17) 0.750000 0.90972(17)
C18_3 C 0.56310(16) 0.750000 0.93690(16)
C19_3 C 0.57318(14) 0.7487(2) 0.97162(15)
C20_3 C 0.60903(15) 0.7471(2) 0.98251(16)
H9_3 H 0.628856 0.746223 0.967792
N3_3 N 0.500000 0.7502(2) 0.94813(17)
C21_3 C 0.63596(19) 0.7795(2) 0.8789(2)
H10_3 H 0.649828 0.799596 0.874928
C22_3 C 0.61106(19) 0.7797(2) 0.9042(2)
H11_3 H 0.607705 0.799842 0.918032
C23_3 C 0.52838(15) 0.7513(2) 0.92682(14)
C24_3 C 0.51749(16) 0.7529(2) 0.89097(15)
H12_3 H 0.532208 0.753777 0.871144
C33_3 C 0.33187(17) 0.750000 0.83187(17)
C34_3 C 0.35923(16) 0.750000 0.85923(16)
C35_3 C 0.36404(19) 0.7795(2) 0.8789(2)
H16_3 H 0.350172 0.799596 0.874928
C36_3 C 0.38894(19) 0.7797(2) 0.9042(2)
H17_3 H 0.392295 0.799842 0.918032
C37_3 C 0.40972(17) 0.750000 0.90972(17)
C38_3 C 0.43690(16) 0.750000 0.93690(16)
C39_3 C 0.47162(15) 0.7513(2) 0.92682(14)
C40_3 C 0.48251(16) 0.7529(2) 0.89097(15)
H18_3 H 0.467792 0.753777 0.871144
N4_6 N 0.44813(17) 0.7498(2) 1.000000
C45_3 C 0.3789(2) 0.7205(2) 0.86404(19)
H22_3 H 0.374928 0.700404 0.850172
C46_3 C 0.4042(2) 0.7203(2) 0.88894(19)
H23_3 H 0.418032 0.700158 0.892295
C47_3 C 0.42682(14) 0.7487(2) 0.97162(15)
C48_3 C 0.39097(15) 0.7471(2) 0.98251(16)
H24_3 H 0.371144 0.746223 0.967792
Cu1_7 Cu 0.500000 0.250000 0.000000
N1_7 N 0.44813(17) 0.2502(2) 0.000000
C1_4 C 0.33187(17) 0.250000 0.16813(17)
C2_4 C 0.35923(16) 0.250000 0.14077(16)
C3_4 C 0.3789(2) 0.2795(2) 0.13596(19)
H1_4 H 0.374928 0.299596 0.149828
C4_4 C 0.4042(2) 0.2797(2) 0.11106(19)
H2_4 H 0.418032 0.299842 0.107705
C5_4 C 0.40972(17) 0.250000 0.09028(17)
C6_4 C 0.43690(16) 0.250000 0.06310(16)
C7_4 C 0.42682(14) 0.2513(2) 0.02838(15)
C8_4 C 0.39097(15) 0.2529(2) 0.01749(16)
H3_4 H 0.371144 0.253777 0.032208
N2_4 N 0.500000 0.2498(2) 0.05187(17)
C9_4 C 0.36404(19) 0.2205(2) 0.1211(2)
H4_4 H 0.350172 0.200404 0.125072
C10_4 C 0.38894(19) 0.2203(2) 0.0958(2)
H5_4 H 0.392295 0.200158 0.081968
C11_4 C 0.47162(15) 0.2487(2) 0.07318(14)
C12_4 C 0.48251(16) 0.2471(2) 0.10903(15)
H6_4 H 0.467792 0.246223 0.128856
C25_4 C 0.66813(17) 0.250000 0.16813(17)
C26_4 C 0.64077(16) 0.250000 0.14077(16)
C27_4 C 0.63596(19) 0.2205(2) 0.1211(2)
H13_4 H 0.649828 0.200404 0.125072
C28_4 C 0.61106(19) 0.2203(2) 0.0958(2)
H14_4 H 0.607705 0.200158 0.081968
C29_4 C 0.59028(17) 0.250000 0.09028(17)
C30_4 C 0.56310(16) 0.250000 0.06310(16)
C31_4 C 0.52838(15) 0.2487(2) 0.07318(14)
C32_4 C 0.51749(16) 0.2471(2) 0.10903(15)
H15_4 H 0.532208 0.246223 0.128856
N4_7 N 0.55187(17) 0.2502(2) 0.000000
C41_4 C 0.6211(2) 0.2795(2) 0.13596(19)
H19_4 H 0.625072 0.299596 0.149828
C42_4 C 0.5958(2) 0.2797(2) 0.11106(19)
H20_4 H 0.581968 0.299842 0.107705
C43_4 C 0.57318(14) 0.2513(2) 0.02838(15)
C44_4 C 0.60903(15) 0.2529(2) 0.01749(16)
H21_4 H 0.628856 0.253777 0.032208
Cu2_7 Cu 0.250000 0.000000 0.500000
N5_7 N 0.2502(2) -0.000000 0.44813(17)
C49_4 C 0.250000 0.16813(17) 0.33187(17)
C50_4 C 0.250000 0.14077(16) 0.35923(16)
C51_4 C 0.2795(2) 0.13596(19) 0.3789(2)
H25_4 H 0.299596 0.149828 0.374928
C52_4 C 0.2797(2) 0.11106(19) 0.4042(2)
H26_4 H 0.299842 0.107705 0.418032
C53_4 C 0.250000 0.09028(17) 0.40972(17)
C54_4 C 0.250000 0.06310(16) 0.43690(16)
C55_4 C 0.2513(2) 0.02838(15) 0.42682(14)
C56_4 C 0.2529(2) 0.01749(16) 0.39097(15)
H27_4 H 0.253777 0.032208 0.371144
N6_4 N 0.2498(2) 0.05187(17) 0.500000
C57_4 C 0.2205(2) 0.1211(2) 0.36404(19)
H28_4 H 0.200404 0.125072 0.350172
C58_4 C 0.2203(2) 0.0958(2) 0.38894(19)
H29_4 H 0.200158 0.081968 0.392295
C59_4 C 0.2487(2) 0.07318(14) 0.47162(15)
C60_4 C 0.2471(2) 0.10903(15) 0.48251(16)
H30_4 H 0.246223 0.128856 0.467792
C73_4 C 0.250000 0.16813(17) 0.66813(17)
C74_4 C 0.250000 0.14077(16) 0.64077(16)
C75_4 C 0.2205(2) 0.1211(2) 0.63596(19)
H37_4 H 0.200404 0.125072 0.649828
C76_4 C 0.2203(2) 0.0958(2) 0.61106(19)
H38_4 H 0.200158 0.081968 0.607705
C77_4 C 0.250000 0.09028(17) 0.59028(17)
C78_4 C 0.250000 0.06310(16) 0.56310(16)
C79_4 C 0.2487(2) 0.07318(14) 0.52838(15)
C80_4 C 0.2471(2) 0.10903(15) 0.51749(16)
H39_4 H 0.246223 0.128856 0.532208
N8_7 N 0.2502(2) 0.000000 0.55187(17)
C89_4 C 0.2795(2) 0.13596(19) 0.6211(2)
H43_4 H 0.299596 0.149828 0.625072
C90_4 C 0.2797(2) 0.11106(19) 0.5958(2)
H44_4 H 0.299842 0.107705 0.581968
C91_4 C 0.2513(2) 0.02838(15) 0.57318(14)
C92_4 C 0.2529(2) 0.01749(16) 0.60903(15)
H45_4 H 0.253777 0.032208 0.628856
Cu1_8 Cu 0.500000 0.250000 1.000000
N1_8 N 0.44813(17) 0.2502(2) 1.000000
C13_4 C 0.33187(17) 0.250000 0.83187(17)
C14_4 C 0.35923(16) 0.250000 0.85923(16)
C15_4 C 0.3789(2) 0.2795(2) 0.86404(19)
H7_4 H 0.374928 0.299596 0.850172
C16_4 C 0.4042(2) 0.2797(2) 0.88894(19)
H8_4 H 0.418032 0.299842 0.892295
C17_4 C 0.40972(17) 0.250000 0.90972(17)
C18_4 C 0.43690(16) 0.250000 0.93690(16)
C19_4 C 0.42682(14) 0.2513(2) 0.97162(15)
C20_4 C 0.39097(15) 0.2529(2) 0.98251(16)
H9_4 H 0.371144 0.253777 0.967792
N3_4 N 0.500000 0.2498(2) 0.94813(17)
C21_4 C 0.36404(19) 0.2205(2) 0.8789(2)
H10_4 H 0.350172 0.200404 0.874928
C22_4 C 0.38894(19) 0.2203(2) 0.9042(2)
H11_4 H 0.392295 0.200158 0.918032
C23_4 C 0.47162(15) 0.2487(2) 0.92682(14)
C24_4 C 0.48251(16) 0.2471(2) 0.89097(15)
H12_4 H 0.467792 0.246223 0.871144
C33_4 C 0.66813(17) 0.250000 0.83187(17)
C34_4 C 0.64077(16) 0.250000 0.85923(16)
C35_4 C 0.63596(19) 0.2205(2) 0.8789(2)
H16_4 H 0.649828 0.200404 0.874928
C36_4 C 0.61106(19) 0.2203(2) 0.9042(2)
H17_4 H 0.607705 0.200158 0.918032
C37_4 C 0.59028(17) 0.250000 0.90972(17)
C38_4 C 0.56310(16) 0.250000 0.93690(16)
C39_4 C 0.52838(15) 0.2487(2) 0.92682(14)
C40_4 C 0.51749(16) 0.2471(2) 0.89097(15)
H18_4 H 0.532208 0.246223 0.871144
N4_8 N 0.55187(17) 0.2502(2) 1.000000
C45_4 C 0.6211(2) 0.2795(2) 0.86404(19)
H22_4 H 0.625072 0.299596 0.850172
C46_4 C 0.5958(2) 0.2797(2) 0.88894(19)
H23_4 H 0.581968 0.299842 0.892295
C47_4 C 0.57318(14) 0.2513(2) 0.97162(15)
C48_4 C 0.60903(15) 0.2529(2) 0.98251(16)
H24_4 H 0.628856 0.253777 0.967792
Cu2_8 Cu 0.250000 1.000000 0.500000
N5_8 N 0.2502(2) 1.000000 0.44813(17)
C61_4 C 0.250000 0.83187(17) 0.33187(17)
C62_4 C 0.250000 0.85923(16) 0.35923(16)
C63_4 C 0.2795(2) 0.86404(19) 0.3789(2)
H31_4 H 0.299596 0.850172 0.374928
C64_4 C 0.2797(2) 0.88894(19) 0.4042(2)
H32_4 H 0.299842 0.892295 0.418032
C65_4 C 0.250000 0.90972(17) 0.40972(17)
C66_4 C 0.250000 0.93690(16) 0.43690(16)
C67_4 C 0.2513(2) 0.97162(15) 0.42682(14)
C68_4 C 0.2529(2) 0.98251(16) 0.39097(15)
H33_4 H 0.253777 0.967792 0.371144
N7_4 N 0.2498(2) 0.94813(17) 0.500000
C69_4 C 0.2205(2) 0.8789(2) 0.36404(19)
H34_4 H 0.200404 0.874928 0.350172
C70_4 C 0.2203(2) 0.9042(2) 0.38894(19)
H35_4 H 0.200158 0.918032 0.392295
C71_4 C 0.2487(2) 0.92682(14) 0.47162(15)
C72_4 C 0.2471(2) 0.89097(15) 0.48251(16)
H36_4 H 0.246223 0.871144 0.467792
C81_4 C 0.250000 0.83187(17) 0.66813(17)
C82_4 C 0.250000 0.85923(16) 0.64077(16)
C83_4 C 0.2205(2) 0.8789(2) 0.63596(19)
H40_4 H 0.200404 0.874928 0.649828
C84_4 C 0.2203(2) 0.9042(2) 0.61106(19)
H41_4 H 0.200158 0.918032 0.607705
C85_4 C 0.250000 0.90972(17) 0.59028(17)
C86_4 C 0.250000 0.93690(16) 0.56310(16)
C87_4 C 0.2487(2) 0.92682(14) 0.52838(15)
C88_4 C 0.2471(2) 0.89097(15) 0.51749(16)
H42_4 H 0.246223 0.871144 0.532208
N8_8 N 0.2502(2) 1.000000 0.55187(17)
C93_4 C 0.2795(2) 0.86404(19) 0.6211(2)
H46_4 H 0.299596 0.850172 0.625072
C94_4 C 0.2797(2) 0.88894(19) 0.5958(2)
H47_4 H 0.299842 0.892295 0.581968
C95_4 C 0.2513(2) 0.97162(15) 0.57318(14)
C96_4 C 0.2529(2) 0.98251(16) 0.60903(15)
H48_4 H 0.253777 0.967792 0.628856
Cu3_7 Cu 0.000000 0.500000 0.750000
N9_7 N -0.000000 0.44813(17) 0.7498(2)
C109_4 C 0.16813(17) 0.33187(17) 0.750000
C110_4 C 0.14077(16) 0.35923(16) 0.750000
C111_4 C 0.13596(19) 0.3789(2) 0.7205(2)
H55_4 H 0.149828 0.374928 0.700404
C112_4 C 0.11106(19) 0.4042(2) 0.7203(2)
H56_4 H 0.107705 0.418032 0.700158
C113_4 C 0.09028(17) 0.40972(17) 0.750000
C114_4 C 0.06310(16) 0.43690(16) 0.750000
C115_4 C 0.02838(15) 0.42682(14) 0.7487(2)
C116_4 C 0.01749(16) 0.39097(15) 0.7471(2)
H57_4 H 0.032208 0.371144 0.746223
N11_4 N 0.05187(17) 0.500000 0.7502(2)
C117_4 C 0.1211(2) 0.36404(19) 0.7795(2)
H58_4 H 0.125072 0.350172 0.799596
C118_4 C 0.0958(2) 0.38894(19) 0.7797(2)
H59_4 H 0.081968 0.392295 0.799842
C119_4 C 0.07318(14) 0.47162(15) 0.7513(2)
C120_4 C 0.10903(15) 0.48251(16) 0.7529(2)
H60_4 H 0.128856 0.467792 0.753777
C129_4 C 0.16813(17) 0.66813(17) 0.750000
C130_4 C 0.14077(16) 0.64077(16) 0.750000
C131_4 C 0.1211(2) 0.63596(19) 0.7795(2)
H64_4 H 0.125072 0.649828 0.799596
C132_4 C 0.0958(2) 0.61106(19) 0.7797(2)
H65_4 H 0.081968 0.607705 0.799842
C133_4 C 0.09028(17) 0.59028(17) 0.750000
C134_4 C 0.06310(16) 0.56310(16) 0.750000
C135_4 C 0.07318(14) 0.52838(15) 0.7513(2)
C136_4 C 0.10903(15) 0.51749(16) 0.7529(2)
H66_4 H 0.128856 0.532208 0.753777
N12_7 N -0.000000 0.55187(17) 0.7498(2)
C141_4 C 0.13596(19) 0.6211(2) 0.7205(2)
H70_4 H 0.149828 0.625072 0.700404
C142_4 C 0.11106(19) 0.5958(2) 0.7203(2)
H71_4 H 0.107705 0.581968 0.700158
C143_4 C 0.02838(15) 0.57318(14) 0.7487(2)
C144_4 C 0.01749(16) 0.60903(15) 0.7471(2)
H72_4 H 0.032208 0.628856 0.746223
Cu3_8 Cu 1.000000 0.500000 0.750000
N9_8 N 1.000000 0.44813(17) 0.7498(2)
C97_4 C 0.83187(17) 0.33187(17) 0.750000
C98_4 C 0.85923(16) 0.35923(16) 0.750000
C99_4 C 0.86404(19) 0.3789(2) 0.7205(2)
H49_4 H 0.850172 0.374928 0.700404
C100_4 C 0.88894(19) 0.4042(2) 0.7203(2)
H50_4 H 0.892295 0.418032 0.700158
C101_4 C 0.90972(17) 0.40972(17) 0.750000
C102_4 C 0.93690(16) 0.43690(16) 0.750000
C103_4 C 0.97162(15) 0.42682(14) 0.7487(2)
C104_4 C 0.98251(16) 0.39097(15) 0.7471(2)
H51_4 H 0.967792 0.371144 0.746223
N10_4 N 0.94813(17) 0.500000 0.7502(2)
C105_4 C 0.8789(2) 0.36404(19) 0.7795(2)
H52_4 H 0.874928 0.350172 0.799596
C106_4 C 0.9042(2) 0.38894(19) 0.7797(2)
H53_4 H 0.918032 0.392295 0.799842
C107_4 C 0.92682(14) 0.47162(15) 0.7513(2)
C108_4 C 0.89097(15) 0.48251(16) 0.7529(2)
H54_4 H 0.871144 0.467792 0.753777
C121_4 C 0.83187(17) 0.66813(17) 0.750000
C122_4 C 0.85923(16) 0.64077(16) 0.750000
C123_4 C 0.8789(2) 0.63596(19) 0.7795(2)
H61_4 H 0.874928 0.649828 0.799596
C124_4 C 0.9042(2) 0.61106(19) 0.7797(2)
H62_4 H 0.918032 0.607705 0.799842
C125_4 C 0.90972(17) 0.59028(17) 0.750000
C126_4 C 0.93690(16) 0.56310(16) 0.750000
C127_4 C 0.92682(14) 0.52838(15) 0.7513(2)
C128_4 C 0.89097(15) 0.51749(16) 0.7529(2)
H63_4 H 0.871144 0.532208 0.753777
N12_8 N 1.000000 0.55187(17) 0.7498(2)
C137_4 C 0.86404(19) 0.6211(2) 0.7205(2)
H67_4 H 0.850172 0.625072 0.700404
C138_4 C 0.88894(19) 0.5958(2) 0.7203(2)
H68_4 H 0.892295 0.581968 0.700158
C139_4 C 0.97162(15) 0.57318(14) 0.7487(2)
C140_4 C 0.98251(16) 0.60903(15) 0.7471(2)
H69_4 H 0.967792 0.628856 0.746223
loop_
_geom_bond_atom_site_label_1
_geom_bond_atom_site_label_2
_geom_bond_site_symmetry_1
_geom_bond_site_symmetry_2
Cu2 N5 1_555 1_555
O18 C61 1_555 1_555
C61 C62 1_555 1_555
C62 C63 1_555 1_555
C63 H31 1_555 1_555
C64 C63 1_555 1_555
H32 C64 1_555 1_555
C65 C64 1_555 1_555
C66 C65 1_555 1_555
C67 N5 1_555 1_555
H33 C68 1_555 1_555
O19 C61 1_555 1_555
N7 Cu2 1_555 1_555
C69 C62 1_555 1_555
H34 C69 1_555 1_555
C70 C65 1_555 1_555
H35 C70 1_555 1_555
C71 C66 1_555 1_555
C72 C71 1_555 1_555
H36 C72 1_555 1_555
O21 C81 1_555 1_555
C81 C82 1_555 1_555
C82 C83 1_555 1_555
C83 H40 1_555 1_555
C84 C83 1_555 1_555
H41 C84 1_555 1_555
C85 C84 1_555 1_555
C86 C85 1_555 1_555
C87 N7 1_555 1_555
C88 C72 1_555 1_555
H42 C88 1_555 1_555
N8 Cu2 1_555 1_555
O23 C81 1_555 1_555
C93 C82 1_555 1_555
H46 C93 1_555 1_555
C94 C85 1_555 1_555
H47 C94 1_555 1_555
C95 C86 1_555 1_555
H48 C96 1_555 1_555
Zr13 O23 1_555 1_555
Zr19 O18 1_555 1_555
Zr24 O19 1_555 1_555
Zr31 O21 1_555 1_555
C66 C67 1_555 1_555
C67 C68 1_555 1_555
N7 C71 1_555 1_555
C69 C70 1_555 1_555
C86 C87 1_555 1_555
C87 C88 1_555 1_555
N8 C95 1_555 1_555
C93 C94 1_555 1_555
C95 C96 1_555 1_555
Cu3 N9 1_555 1_555
O28 C109 1_555 1_555
C109 C110 1_555 1_555
C110 C111 1_555 1_555
C111 H55 1_555 1_555
C112 C111 1_555 1_555
H56 C112 1_555 1_555
C113 C112 1_555 1_555
C114 C113 1_555 1_555
C115 N9 1_555 1_555
H57 C116 1_555 1_555
O29 C109 1_555 1_555
N11 Cu3 1_555 1_555
C117 C110 1_555 1_555
H58 C117 1_555 1_555
C118 C113 1_555 1_555
H59 C118 1_555 1_555
C119 C114 1_555 1_555
C120 C119 1_555 1_555
H60 C120 1_555 1_555
O31 C129 1_555 1_555
C129 C130 1_555 1_555
C130 C131 1_555 1_555
C131 H64 1_555 1_555
C132 C131 1_555 1_555
H65 C132 1_555 1_555
C133 C132 1_555 1_555
C134 C133 1_555 1_555
C135 N11 1_555 1_555
C136 C120 1_555 1_555
H66 C136 1_555 1_555
N12 Cu3 1_555 1_555
O33 C129 1_555 1_555
C141 C130 1_555 1_555
H70 C141 1_555 1_555
C142 C133 1_555 1_555
H71 C142 1_555 1_555
C143 C134 1_555 1_555
H72 C144 1_555 1_555
Zr9 O28 1_555 1_555
O44 Zr9 1_555 1_555
O45 Zr9 1_555 1_555
Zr14 O33 1_555 1_555
Zr23 O45 1_555 1_555
Zr28 O29 1_555 1_555
Zr33 O31 1_555 1_555
O57 Zr9 1_555 1_555
O68 Zr9 1_555 1_555
O73 Zr9 1_555 1_555
O76 Zr9 1_555 1_555
C114 C115 1_555 1_555
C115 C116 1_555 1_555
N11 C119 1_555 1_555
C117 C118 1_555 1_555
C134 C135 1_555 1_555
C135 C136 1_555 1_555
N12 C143 1_555 1_555
C141 C142 1_555 1_555
C143 C144 1_555 1_555
O45 Zr28 1_555 1_555
Zr23 O73 1_555 1_555
Zr28 O76 1_555 1_555
Cu1 N1 1_555 1_555
O6 C13 1_555 1_555
C13 C14 1_555 1_555
C14 C15 1_555 1_555
C15 H7 1_555 1_555
C16 C15 1_555 1_555
H8 C16 1_555 1_555
C17 C16 1_555 1_555
C18 C17 1_555 1_555
C19 N1 1_555 1_555
H9 C20 1_555 1_555
O7 C13 1_555 1_555
N3 Cu1 1_555 1_555
C21 C14 1_555 1_555
H10 C21 1_555 1_555
C22 C17 1_555 1_555
H11 C22 1_555 1_555
C23 C18 1_555 1_555
C24 C23 1_555 1_555
H12 C24 1_555 1_555
O9 C33 1_555 1_555
C33 C34 1_555 1_555
C34 C35 1_555 1_555
C35 H16 1_555 1_555
C36 C35 1_555 1_555
H17 C36 1_555 1_555
C37 C36 1_555 1_555
C38 C37 1_555 1_555
C39 N3 1_555 1_555
C40 C24 1_555 1_555
H18 C40 1_555 1_555
N4 Cu1 1_555 1_555
O11 C33 1_555 1_555
C45 C34 1_555 1_555
H22 C45 1_555 1_555
C46 C37 1_555 1_555
H23 C46 1_555 1_555
C47 C38 1_555 1_555
H24 C48 1_555 1_555
Zr2 O11 1_555 1_555
O12 Zr2 1_555 1_555
O13 Zr2 1_555 1_555
Zr5 O6 1_555 1_555
O34 Zr5 1_555 1_555
O35 Zr5 1_555 1_555
O36 Zr5 1_555 1_555
Zr7 O35 1_555 1_555
O40 Zr7 1_555 1_555
O41 Zr7 1_555 1_555
Zr12 O7 1_555 1_555
O51 Zr12 1_555 1_555
O52 Zr5 1_555 1_555
Zr17 O35 1_555 1_555
Zr21 O41 1_555 1_555
Zr26 O36 1_555 1_555
Zr32 O9 1_555 1_555
Zr34 O13 1_555 1_555
O53 Zr5 1_555 1_555
O55 Zr7 1_555 1_555
O58 Zr12 1_555 1_555
O60 Zr7 1_555 1_555
O62 Zr2 1_555 1_555
O67 Zr2 1_555 1_555
O69 Zr12 1_555 1_555
O70 Zr12 1_555 1_555
O71 Zr7 1_555 1_555
O74 Zr5 1_555 1_555
O79 Zr2 1_555 1_555
O80 Zr2 1_555 1_555
C18 C19 1_555 1_555
C19 C20 1_555 1_555
N3 C23 1_555 1_555
C21 C22 1_555 1_555
C38 C39 1_555 1_555
C39 C40 1_555 1_555
N4 C47 1_555 1_555
C45 C46 1_555 1_555
C47 C48 1_555 1_555
O13 Zr32 1_555 1_555
O36 Zr12 1_555 1_555
Zr7 O74 1_555 1_555
O41 Zr26 1_555 1_555
Zr12 O52 1_555 1_555
O52 Zr17 1_555 1_555
Zr17 O70 1_555 1_555
Zr17 O71 1_555 1_555
Zr21 O69 1_555 1_555
Zr21 O70 1_555 1_555
Zr21 O71 1_555 1_555
Zr26 O69 1_555 1_555
Zr26 O74 1_555 1_555
Zr32 O79 1_555 1_555
Zr34 O80 1_555 1_555
Zr1 O1 1_555 1_555
Cu1_2 N1_2 1_555 1_555
O1 C1 1_555 1_555
O2 Zr1 1_555 1_555
O3 Zr1 1_555 1_555
O4 Zr1 1_555 1_555
N1_2 C7 1_555 1_555
C1 C2 1_555 1_555
C2 C3 1_555 1_555
C3 H1 1_555 1_555
C4 C3 1_555 1_555
H2 C4 1_555 1_555
C5 C4 1_555 1_555
C6 C5 1_555 1_555
C7 C6 1_555 1_555
C8 C7 1_555 1_555
H3 C8 1_555 1_555
O5 C1 1_555 1_555
N2 Cu1_2 1_555 1_555
C9 C2 1_555 1_555
H4 C9 1_555 1_555
C10 C5 1_555 1_555
H5 C10 1_555 1_555
C11 C6 1_555 1_555
C12 C11 1_555 1_555
H6 C12 1_555 1_555
O8 C25 1_555 1_555
C25 C26 1_555 1_555
C26 C27 1_555 1_555
C27 H13 1_555 1_555
C28 C27 1_555 1_555
H14 C28 1_555 1_555
C29 C28 1_555 1_555
C30 C29 1_555 1_555
C31 N2 1_555 1_555
C32 C12 1_555 1_555
H15 C32 1_555 1_555
O10 C25 1_555 1_555
N4_2 Cu1_2 1_555 1_555
C41 C26 1_555 1_555
H19 C41 1_555 1_555
C42 C29 1_555 1_555
H20 C42 1_555 1_555
C43 C30 1_555 1_555
C44 C43 1_555 1_555
H21 C44 1_555 1_555
Zr3 O3 1_555 1_555
Cu2_2 N5_2 1_555 1_555
O14 Zr3 1_555 1_555
O15 Zr3 1_555 1_555
O16 Zr3 1_555 1_555
N5_2 C55 1_555 1_555
C49 O14 1_555 1_555
C50 C49 1_555 1_555
C51 C50 1_555 1_555
H25 C51 1_555 1_555
C52 C51 1_555 1_555
H26 C52 1_555 1_555
C53 C52 1_555 1_555
C54 C53 1_555 1_555
C55 C54 1_555 1_555
C56 C55 1_555 1_555
H27 C56 1_555 1_555
O17 C49 1_555 1_555
N6 Cu2_2 1_555 1_555
C57 C50 1_555 1_555
H28 C57 1_555 1_555
C58 C53 1_555 1_555
H29 C58 1_555 1_555
C59 C54 1_555 1_555
C60 C59 1_555 1_555
H30 C60 1_555 1_555
O20 C73 1_555 1_555
C73 C74 1_555 1_555
C74 C75 1_555 1_555
C75 H37 1_555 1_555
C76 C75 1_555 1_555
H38 C76 1_555 1_555
C77 C76 1_555 1_555
C78 C77 1_555 1_555
C79 N6 1_555 1_555
C80 C60 1_555 1_555
H39 C80 1_555 1_555
O22 C73 1_555 1_555
N8_2 Cu2_2 1_555 1_555
C89 C74 1_555 1_555
H43 C89 1_555 1_555
C90 C77 1_555 1_555
H44 C90 1_555 1_555
C91 C78 1_555 1_555
C92 C91 1_555 1_555
H45 C92 1_555 1_555
Zr4 O3 1_555 1_555
Cu3_2 N9_2 1_555 1_555
O24 Zr4 1_555 1_555
O25 Zr4 1_555 1_555
O26 Zr4 1_555 1_555
N9_2 C103 1_555 1_555
C97 O24 1_555 1_555
C98 C97 1_555 1_555
C99 C98 1_555 1_555
H49 C99 1_555 1_555
C100 C99 1_555 1_555
H50 C100 1_555 1_555
C101 C100 1_555 1_555
C102 C101 1_555 1_555
C103 C102 1_555 1_555
C104 C103 1_555 1_555
H51 C104 1_555 1_555
O27 C97 1_555 1_555
N10 Cu3_2 1_555 1_555
C105 C98 1_555 1_555
H52 C105 1_555 1_555
C106 C101 1_555 1_555
H53 C106 1_555 1_555
C107 C102 1_555 1_555
C108 C107 1_555 1_555
H54 C108 1_555 1_555
O30 C121 1_555 1_555
C121 C122 1_555 1_555
C122 C123 1_555 1_555
C123 H61 1_555 1_555
C124 C123 1_555 1_555
H62 C124 1_555 1_555
C125 C124 1_555 1_555
C126 C125 1_555 1_555
C127 N10 1_555 1_555
C128 C108 1_555 1_555
H63 C128 1_555 1_555
O32 C121 1_555 1_555
N12_2 Cu3_2 1_555 1_555
C137 C122 1_555 1_555
H67 C137 1_555 1_555
C138 C125 1_555 1_555
H68 C138 1_555 1_555
C139 C126 1_555 1_555
C140 C139 1_555 1_555
H69 C140 1_555 1_555
Zr6 O10 1_555 1_555
O37 Zr6 1_555 1_555
O68 Zr6 1_555 1_555
O39 Zr6 1_555 1_555
Zr10 O4 1_555 1_555
O46 Zr10 1_555 1_555
O47 Zr10 1_555 1_555
O48 Zr1 1_555 1_555
Zr11 O4 1_555 1_555
O49 Zr11 1_555 1_555
O50 Zr1 1_555 1_555
Zr15 O32 1_555 1_555
Zr17 O22 1_555 1_555
Zr18 O68 1_555 1_555
Zr21 O20 1_555 1_555
Zr25 O30 1_555 1_555
Zr28 O39 1_555 1_555
Zr29 O8 1_555 1_555
Zr30 O16 1_555 1_555
O54 Zr6 1_555 1_555
O61 Zr1 1_555 1_555
O63 Zr4 1_555 1_555
O64 Zr3 1_555 1_555
O65 Zr10 1_555 1_555
O66 Zr11 1_555 1_555
O76 Zr6 1_555 1_555
O77 Zr6 1_555 1_555
O78 Zr3 1_555 1_555
O5 Zr11 1_555 1_555
N2 C11 1_555 1_555
C9 C10 1_555 1_555
C30 C31 1_555 1_555
C31 C32 1_555 1_555
N4_2 C43 1_555 1_555
C41 C42 1_555 1_555
Zr3 O50 1_555 1_555
O16 Zr11 1_555 1_555
O17 Zr30 1_555 1_555
N6 C59 1_555 1_555
C57 C58 1_555 1_555
C78 C79 1_555 1_555
C79 C80 1_555 1_555
N8_2 C91 1_555 1_555
C89 C90 1_555 1_555
Zr4 O48 1_555 1_555
Zr4 O78 1_555 1_555
O26 Zr10 1_555 1_555
O26 Zr30 1_555 1_555
O27 Zr10 1_555 1_555
N10 C107 1_555 1_555
C105 C106 1_555 1_555
C126 C127 1_555 1_555
C127 C128 1_555 1_555
N12_2 C139 1_555 1_555
C137 C138 1_555 1_555
O39 Zr29 1_555 1_555
Zr10 O48 1_555 1_555
O47 Zr11 1_555 1_555
O47 Zr30 1_555 1_555
Zr11 O50 1_555 1_555
Zr18 O73 1_555 1_555
Zr18 O77 1_555 1_555
Zr29 O77 1_555 1_555
Zr30 O78 1_555 1_555
Cu1_3 N1_3 1_555 1_555
O6_2 C13_2 1_555 1_555
C13_2 C14_2 1_555 1_555
C14_2 C15_2 1_555 1_555
C15_2 H7_2 1_555 1_555
C16_2 C15_2 1_555 1_555
H8_2 C16_2 1_555 1_555
C17_2 C16_2 1_555 1_555
C18_2 C17_2 1_555 1_555
C19_2 N1_3 1_555 1_555
H9_2 C20_2 1_555 1_555
O7_2 C13_2 1_555 1_555
N3_2 Cu1_3 1_555 1_555
C21_2 C14_2 1_555 1_555
H10_2 C21_2 1_555 1_555
C22_2 C17_2 1_555 1_555
H11_2 C22_2 1_555 1_555
C23_2 C18_2 1_555 1_555
C24_2 C23_2 1_555 1_555
H12_2 C24_2 1_555 1_555
O9_2 C33_2 1_555 1_555
C33_2 C34_2 1_555 1_555
C34_2 C35_2 1_555 1_555
C35_2 H16_2 1_555 1_555
C36_2 C35_2 1_555 1_555
H17_2 C36_2 1_555 1_555
C37_2 C36_2 1_555 1_555
C38_2 C37_2 1_555 1_555
C39_2 N3_2 1_555 1_555
C40_2 C24_2 1_555 1_555
H18_2 C40_2 1_555 1_555
N4_3 Cu1_3 1_555 1_555
O11_2 C33_2 1_555 1_555
C45_2 C34_2 1_555 1_555
H22_2 C45_2 1_555 1_555
C46_2 C37_2 1_555 1_555
H23_2 C46_2 1_555 1_555
C47_2 C38_2 1_555 1_555
H24_2 C48_2 1_555 1_555
Zr2_2 O11_2 1_555 1_555
O12_2 Zr2_2 1_555 1_555
O13_2 Zr2_2 1_555 1_555
Zr5_2 O6_2 1_555 1_555
O34_2 Zr5_2 1_555 1_555
O35_2 Zr5_2 1_555 1_555
O36_2 Zr5_2 1_555 1_555
Zr7_2 O35_2 1_555 1_555
O40_2 Zr7_2 1_555 1_555
O41_2 Zr7_2 1_555 1_555
Zr12_2 O7_2 1_555 1_555
O51_2 Zr12_2 1_555 1_555
O52_2 Zr5_2 1_555 1_555
Zr17_2 O35_2 1_555 1_555
Zr21_2 O41_2 1_555 1_555
Zr26_2 O36_2 1_555 1_555
Zr32_2 O9_2 1_555 1_555
Zr34_2 O13_2 1_555 1_555
O53_2 Zr5_2 1_555 1_555
O55_2 Zr7_2 1_555 1_555
O58_2 Zr12_2 1_555 1_555
O60_2 Zr7_2 1_555 1_555
O62_2 Zr2_2 1_555 1_555
O67_2 Zr2_2 1_555 1_555
O69_2 Zr12_2 1_555 1_555
O70_2 Zr12_2 1_555 1_555
O71_2 Zr7_2 1_555 1_555
O74_2 Zr5_2 1_555 1_555
O79_2 Zr2_2 1_555 1_555
O80_2 Zr2_2 1_555 1_555
C18_2 C19_2 1_555 1_555
C19_2 C20_2 1_555 1_555
N3_2 C23_2 1_555 1_555
C21_2 C22_2 1_555 1_555
C38_2 C39_2 1_555 1_555
C39_2 C40_2 1_555 1_555
N4_3 C47_2 1_555 1_555
C45_2 C46_2 1_555 1_555
C47_2 C48_2 1_555 1_555
O13_2 Zr32_2 1_555 1_555
O36_2 Zr12_2 1_555 1_555
Zr7_2 O74_2 1_555 1_555
O41_2 Zr26_2 1_555 1_555
Zr12_2 O52_2 1_555 1_555
O52_2 Zr17_2 1_555 1_555
Zr17_2 O70_2 1_555 1_555
Zr17_2 O71_2 1_555 1_555
Zr21_2 O69_2 1_555 1_555
Zr21_2 O70_2 1_555 1_555
Zr21_2 O71_2 1_555 1_555
Zr26_2 O69_2 1_555 1_555
Zr26_2 O74_2 1_555 1_555
Zr32_2 O79_2 1_555 1_555
Zr34_2 O80_2 1_555 1_555
Zr1_2 O1_2 1_555 1_555
Cu1_4 N1_4 1_555 1_555
O1_2 C1_2 1_555 1_555
O2_2 Zr1_2 1_555 1_555
O3_2 Zr1_2 1_555 1_555
O4_2 Zr1_2 1_555 1_555
N1_4 C7_2 1_555 1_555
C1_2 C2_2 1_555 1_555
C2_2 C3_2 1_555 1_555
C3_2 H1_2 1_555 1_555
C4_2 C3_2 1_555 1_555
H2_2 C4_2 1_555 1_555
C5_2 C4_2 1_555 1_555
C6_2 C5_2 1_555 1_555
C7_2 C6_2 1_555 1_555
C8_2 C7_2 1_555 1_555
H3_2 C8_2 1_555 1_555
O5_2 C1_2 1_555 1_555
N2_2 Cu1_4 1_555 1_555
C9_2 C2_2 1_555 1_555
H4_2 C9_2 1_555 1_555
C10_2 C5_2 1_555 1_555
H5_2 C10_2 1_555 1_555
C11_2 C6_2 1_555 1_555
C12_2 C11_2 1_555 1_555
H6_2 C12_2 1_555 1_555
O8_2 C25_2 1_555 1_555
C25_2 C26_2 1_555 1_555
C26_2 C27_2 1_555 1_555
C27_2 H13_2 1_555 1_555
C28_2 C27_2 1_555 1_555
H14_2 C28_2 1_555 1_555
C29_2 C28_2 1_555 1_555
C30_2 C29_2 1_555 1_555
C31_2 N2_2 1_555 1_555
C32_2 C12_2 1_555 1_555
H15_2 C32_2 1_555 1_555
O10_2 C25_2 1_555 1_555
N4_4 Cu1_4 1_555 1_555
C41_2 C26_2 1_555 1_555
H19_2 C41_2 1_555 1_555
C42_2 C29_2 1_555 1_555
H20_2 C42_2 1_555 1_555
C43_2 C30_2 1_555 1_555
C44_2 C43_2 1_555 1_555
H21_2 C44_2 1_555 1_555
Zr3_2 O3_2 1_555 1_555
Cu2_3 N5_3 1_555 1_555
O14_2 Zr3_2 1_555 1_555
O15_2 Zr3_2 1_555 1_555
O16_2 Zr3_2 1_555 1_555
N5_3 C55_2 1_555 1_555
C49_2 O14_2 1_555 1_555
C50_2 C49_2 1_555 1_555
C51_2 C50_2 1_555 1_555
H25_2 C51_2 1_555 1_555
C52_2 C51_2 1_555 1_555
H26_2 C52_2 1_555 1_555
C53_2 C52_2 1_555 1_555
C54_2 C53_2 1_555 1_555
C55_2 C54_2 1_555 1_555
C56_2 C55_2 1_555 1_555
H27_2 C56_2 1_555 1_555
O17_2 C49_2 1_555 1_555
N6_2 Cu2_3 1_555 1_555
C57_2 C50_2 1_555 1_555
H28_2 C57_2 1_555 1_555
C58_2 C53_2 1_555 1_555
H29_2 C58_2 1_555 1_555
C59_2 C54_2 1_555 1_555
C60_2 C59_2 1_555 1_555
H30_2 C60_2 1_555 1_555
O20_2 C73_2 1_555 1_555
C73_2 C74_2 1_555 1_555
C74_2 C75_2 1_555 1_555
C75_2 H37_2 1_555 1_555
C76_2 C75_2 1_555 1_555
H38_2 C76_2 1_555 1_555
C77_2 C76_2 1_555 1_555
C78_2 C77_2 1_555 1_555
C79_2 N6_2 1_555 1_555
C80_2 C60_2 1_555 1_555
H39_2 C80_2 1_555 1_555
O22_2 C73_2 1_555 1_555
N8_3 Cu2_3 1_555 1_555
C89_2 C74_2 1_555 1_555
H43_2 C89_2 1_555 1_555
C90_2 C77_2 1_555 1_555
H44_2 C90_2 1_555 1_555
C91_2 C78_2 1_555 1_555
C92_2 C91_2 1_555 1_555
H45_2 C92_2 1_555 1_555
Zr14 O3_2 1_555 1_555
O25_2 Zr14 1_555 1_555
O26_2 Zr14 1_555 1_555
Zr6_2 O10_2 1_555 1_555
O37_2 Zr6_2 1_555 1_555
O38 Zr6_2 1_555 1_555
O39_2 Zr6_2 1_555 1_555
Zr15 O38 1_555 1_555
O42 Zr15 1_555 1_555
O43 Zr15 1_555 1_555
Zr33 O4_2 1_555 1_555
O46_2 Zr33 1_555 1_555
O47_2 Zr33 1_555 1_555
O48_2 Zr1_2 1_555 1_555
Zr11_2 O4_2 1_555 1_555
O49_2 Zr11_2 1_555 1_555
O50_2 Zr1_2 1_555 1_555
Zr17_2 O22_2 1_555 1_555
Zr19 O38 1_555 1_555
Zr21_2 O20_2 1_555 1_555
Zr24 O43 1_555 1_555
Zr25 O39_2 1_555 1_555
Zr29_2 O8_2 1_555 1_555
Zr30_2 O16_2 1_555 1_555
O54_2 Zr6_2 1_555 1_555
O56 Zr15 1_555 1_555
O61_2 Zr1_2 1_555 1_555
O63_2 Zr14 1_555 1_555
O64_2 Zr3_2 1_555 1_555
O65_2 Zr33 1_555 1_555
O66_2 Zr11_2 1_555 1_555
O72 Zr15 1_555 1_555
O75 Zr6_2 1_555 1_555
O77_2 Zr6_2 1_555 1_555
O78_2 Zr3_2 1_555 1_555
O5_2 Zr11_2 1_555 1_555
N2_2 C11_2 1_555 1_555
C9_2 C10_2 1_555 1_555
C30_2 C31_2 1_555 1_555
C31_2 C32_2 1_555 1_555
N4_4 C43_2 1_555 1_555
C41_2 C42_2 1_555 1_555
Zr3_2 O50_2 1_555 1_555
O16_2 Zr11_2 1_555 1_555
O17_2 Zr30_2 1_555 1_555
N6_2 C59_2 1_555 1_555
C57_2 C58_2 1_555 1_555
C78_2 C79_2 1_555 1_555
C79_2 C80_2 1_555 1_555
N8_3 C91_2 1_555 1_555
C89_2 C90_2 1_555 1_555
Zr14 O48_2 1_555 1_555
Zr14 O78_2 1_555 1_555
O26_2 Zr33 1_555 1_555
O26_2 Zr30_2 1_555 1_555
O39_2 Zr29_2 1_555 1_555
Zr15 O75 1_555 1_555
O43 Zr25 1_555 1_555
Zr33 O48_2 1_555 1_555
O47_2 Zr11_2 1_555 1_555
O47_2 Zr30_2 1_555 1_555
Zr11_2 O50_2 1_555 1_555
Zr19 O72 1_555 1_555
Zr19 O77_2 1_555 1_555
Zr24 O72 1_555 1_555
Zr25 O75 1_555 1_555
Zr29_2 O77_2 1_555 1_555
Zr30_2 O78_2 1_555 1_555
Cu2_4 N5_4 1_555 1_555
O18_2 C61_2 1_555 1_555
C61_2 C62_2 1_555 1_555
C62_2 C63_2 1_555 1_555
C63_2 H31_2 1_555 1_555
C64_2 C63_2 1_555 1_555
H32_2 C64_2 1_555 1_555
C65_2 C64_2 1_555 1_555
C66_2 C65_2 1_555 1_555
C67_2 N5_4 1_555 1_555
H33_2 C68_2 1_555 1_555
O19_2 C61_2 1_555 1_555
N7_2 Cu2_4 1_555 1_555
C69_2 C62_2 1_555 1_555
H34_2 C69_2 1_555 1_555
C70_2 C65_2 1_555 1_555
H35_2 C70_2 1_555 1_555
C71_2 C66_2 1_555 1_555
C72_2 C71_2 1_555 1_555
H36_2 C72_2 1_555 1_555
O21_2 C81_2 1_555 1_555
C81_2 C82_2 1_555 1_555
C82_2 C83_2 1_555 1_555
C83_2 H40_2 1_555 1_555
C84_2 C83_2 1_555 1_555
H41_2 C84_2 1_555 1_555
C85_2 C84_2 1_555 1_555
C86_2 C85_2 1_555 1_555
C87_2 N7_2 1_555 1_555
C88_2 C72_2 1_555 1_555
H42_2 C88_2 1_555 1_555
N8_4 Cu2_4 1_555 1_555
O23_2 C81_2 1_555 1_555
C93_2 C82_2 1_555 1_555
H46_2 C93_2 1_555 1_555
C94_2 C85_2 1_555 1_555
H47_2 C94_2 1_555 1_555
C95_2 C86_2 1_555 1_555
H48_2 C96_2 1_555 1_555
Zr13_2 O23_2 1_555 1_555
Zr18 O18_2 1_555 1_555
Zr23 O19_2 1_555 1_555
Zr31_2 O21_2 1_555 1_555
C66_2 C67_2 1_555 1_555
C67_2 C68_2 1_555 1_555
N7_2 C71_2 1_555 1_555
C69_2 C70_2 1_555 1_555
C86_2 C87_2 1_555 1_555
C87_2 C88_2 1_555 1_555
N8_4 C95_2 1_555 1_555
C93_2 C94_2 1_555 1_555
C95_2 C96_2 1_555 1_555
Cu3_3 N9_3 1_555 1_555
O60_2 C109_2 1_555 1_555
C109_2 C110_2 1_555 1_555
C110_2 C111_2 1_555 1_555
C111_2 H55_2 1_555 1_555
C112_2 C111_2 1_555 1_555
H56_2 C112_2 1_555 1_555
C113_2 C112_2 1_555 1_555
C114_2 C113_2 1_555 1_555
C115_2 N9_3 1_555 1_555
H57_2 C116_2 1_555 1_555
O29_2 C109_2 1_555 1_555
N11_2 Cu3_3 1_555 1_555
C117_2 C110_2 1_555 1_555
H58_2 C117_2 1_555 1_555
C118_2 C113_2 1_555 1_555
H59_2 C118_2 1_555 1_555
C119_2 C114_2 1_555 1_555
C120_2 C119_2 1_555 1_555
H60_2 C120_2 1_555 1_555
O31_2 C129_2 1_555 1_555
C129_2 C130_2 1_555 1_555
C130_2 C131_2 1_555 1_555
C131_2 H64_2 1_555 1_555
C132_2 C131_2 1_555 1_555
H65_2 C132_2 1_555 1_555
C133_2 C132_2 1_555 1_555
C134_2 C133_2 1_555 1_555
C135_2 N11_2 1_555 1_555
C136_2 C120_2 1_555 1_555
H66_2 C136_2 1_555 1_555
N12_3 Cu3_3 1_555 1_555
O33_2 C129_2 1_555 1_555
C141_2 C130_2 1_555 1_555
H70_2 C141_2 1_555 1_555
C142_2 C133_2 1_555 1_555
H71_2 C142_2 1_555 1_555
C143_2 C134_2 1_555 1_555
H72_2 C144_2 1_555 1_555
Zr14_2 O33_2 1_555 1_555
Zr26_2 O29_2 1_555 1_555
Zr34 O31_2 1_555 1_555
C114_2 C115_2 1_555 1_555
C115_2 C116_2 1_555 1_555
N11_2 C119_2 1_555 1_555
C117_2 C118_2 1_555 1_555
C134_2 C135_2 1_555 1_555
C135_2 C136_2 1_555 1_555
N12_3 C143_2 1_555 1_555
C141_2 C142_2 1_555 1_555
C143_2 C144_2 1_555 1_555
Zr13 O67_2 1_555 1_555
O15_3 Zr13 1_555 1_555
O16_3 Zr13 1_555 1_555
Zr4_2 O67_2 1_555 1_555
Cu3_4 N9_4 1_555 1_555
O24_2 Zr4_2 1_555 1_555
O25_3 Zr4_2 1_555 1_555
O26_3 Zr4_2 1_555 1_555
N9_4 C103_2 1_555 1_555
C97_2 O24_2 1_555 1_555
C98_2 C97_2 1_555 1_555
C99_2 C98_2 1_555 1_555
H49_2 C99_2 1_555 1_555
C100_2 C99_2 1_555 1_555
H50_2 C100_2 1_555 1_555
C101_2 C100_2 1_555 1_555
C102_2 C101_2 1_555 1_555
C103_2 C102_2 1_555 1_555
C104_2 C103_2 1_555 1_555
H51_2 C104_2 1_555 1_555
O27_2 C97_2 1_555 1_555
N10_2 Cu3_4 1_555 1_555
C105_2 C98_2 1_555 1_555
H52_2 C105_2 1_555 1_555
C106_2 C101_2 1_555 1_555
H53_2 C106_2 1_555 1_555
C107_2 C102_2 1_555 1_555
C108_2 C107_2 1_555 1_555
H54_2 C108_2 1_555 1_555
O30_2 C121_2 1_555 1_555
C121_2 C122_2 1_555 1_555
C122_2 C123_2 1_555 1_555
C123_2 H61_2 1_555 1_555
C124_2 C123_2 1_555 1_555
H62_2 C124_2 1_555 1_555
C125_2 C124_2 1_555 1_555
C126_2 C125_2 1_555 1_555
C127_2 N10_2 1_555 1_555
C128_2 C108_2 1_555 1_555
H63_2 C128_2 1_555 1_555
O60 C121_2 1_555 1_555
N12_4 Cu3_4 1_555 1_555
C137_2 C122_2 1_555 1_555
H67_2 C137_2 1_555 1_555
C138_2 C125_2 1_555 1_555
H68_2 C138_2 1_555 1_555
C139_2 C126_2 1_555 1_555
C140_2 C139_2 1_555 1_555
H69_2 C140_2 1_555 1_555
O46_3 Zr34_2 1_555 1_555
O47_3 Zr34_2 1_555 1_555
O49_3 Zr32_2 1_555 1_555
Zr26 O30_2 1_555 1_555
Zr31 O16_3 1_555 1_555
O63_3 Zr4_2 1_555 1_555
O64_3 Zr13 1_555 1_555
O65_3 Zr34_2 1_555 1_555
O66_3 Zr32_2 1_555 1_555
O78_3 Zr13 1_555 1_555
Zr13 O79_2 1_555 1_555
O16_3 Zr32_2 1_555 1_555
Zr4_2 O80_2 1_555 1_555
Zr4_2 O78_3 1_555 1_555
O26_3 Zr34_2 1_555 1_555
O26_3 Zr31 1_555 1_555
O27_2 Zr34_2 1_555 1_555
N10_2 C107_2 1_555 1_555
C105_2 C106_2 1_555 1_555
C126_2 C127_2 1_555 1_555
C127_2 C128_2 1_555 1_555
N12_4 C139_2 1_555 1_555
C137_2 C138_2 1_555 1_555
O47_3 Zr32_2 1_555 1_555
O47_3 Zr31 1_555 1_555
Zr31 O78_3 1_555 1_555
O51_3 Zr29_2 1_555 1_555
O58_3 Zr29_2 1_555 1_555
O69_3 Zr29_2 1_555 1_555
O70_3 Zr29_2 1_555 1_555
Zr19 O70_3 1_555 1_555
Zr24 O69_3 1_555 1_555
Zr24 O70_3 1_555 1_555
Zr25 O69_3 1_555 1_555
Zr13_2 O67 1_555 1_555
O15_4 Zr13_2 1_555 1_555
O16_4 Zr13_2 1_555 1_555
Zr14_2 O67 1_555 1_555
O25_4 Zr14_2 1_555 1_555
O26_4 Zr14_2 1_555 1_555
O46_4 Zr34 1_555 1_555
O47_4 Zr34 1_555 1_555
O49_4 Zr32 1_555 1_555
Zr31_2 O16_4 1_555 1_555
O63_4 Zr14_2 1_555 1_555
O64_4 Zr13_2 1_555 1_555
O65_4 Zr34 1_555 1_555
O66_4 Zr32 1_555 1_555
O78_4 Zr13_2 1_555 1_555
Zr13_2 O79 1_555 1_555
O16_4 Zr32 1_555 1_555
Zr14_2 O80 1_555 1_555
Zr14_2 O78_4 1_555 1_555
O26_4 Zr34 1_555 1_555
O26_4 Zr31_2 1_555 1_555
O47_4 Zr32 1_555 1_555
O47_4 Zr31_2 1_555 1_555
Zr31_2 O78_4 1_555 1_555
O51_4 Zr29 1_555 1_555
O58_4 Zr29 1_555 1_555
O69_4 Zr29 1_555 1_555
O70_4 Zr29 1_555 1_555
Zr18 O70_4 1_555 1_555
Zr23 O69_4 1_555 1_555
Zr23 O70_4 1_555 1_555
Zr28 O69_4 1_555 1_555
O34_3 Zr19 1_555 1_555
O51_5 Zr24 1_555 1_555
O53_3 Zr19 1_555 1_555
O58_5 Zr24 1_555 1_555
O37_3 Zr17 1_555 1_555
O49_5 Zr30 1_555 1_555
O54_3 Zr17 1_555 1_555
O66_5 Zr30 1_555 1_555
O34_4 Zr17_2 1_555 1_555
O51_6 Zr21_2 1_555 1_555
O53_4 Zr17_2 1_555 1_555
O58_6 Zr21_2 1_555 1_555
O37_4 Zr18 1_555 1_555
O49_6 Zr31_2 1_555 1_555
O54_4 Zr18 1_555 1_555
O66_6 Zr31_2 1_555 1_555
O49_7 Zr30_2 1_555 1_555
O66_7 Zr30_2 1_555 1_555
O51_7 Zr23 1_555 1_555
O58_7 Zr23 1_555 1_555
O49_8 Zr31 1_555 1_555
O66_8 Zr31 1_555 1_555
O51_8 Zr21 1_555 1_555
O58_8 Zr21 1_555 1_555
O51_9 Zr28 1_555 1_555
O58_9 Zr28 1_555 1_555
O51_10 Zr26_2 1_555 1_555
O58_10 Zr26_2 1_555 1_555
O51_11 Zr26 1_555 1_555
O58_11 Zr26 1_555 1_555
O51_12 Zr25 1_555 1_555
O58_12 Zr25 1_555 1_555
Cu3_5 N9_5 1_555 1_555
O64_3 C109_3 1_555 1_555
C109_3 C110_3 1_555 1_555
C110_3 C111_3 1_555 1_555
C111_3 H55_3 1_555 1_555
C112_3 C111_3 1_555 1_555
H56_3 C112_3 1_555 1_555
C113_3 C112_3 1_555 1_555
C114_3 C113_3 1_555 1_555
C115_3 N9_5 1_555 1_555
H57_3 C116_3 1_555 1_555
O66_3 C109_3 1_555 1_555
N11_3 Cu3_5 1_555 1_555
C117_3 C110_3 1_555 1_555
H58_3 C117_3 1_555 1_555
C118_3 C113_3 1_555 1_555
H59_3 C118_3 1_555 1_555
C119_3 C114_3 1_555 1_555
C120_3 C119_3 1_555 1_555
H60_3 C120_3 1_555 1_555
O58_2 C129_3 1_555 1_555
C129_3 C130_3 1_555 1_555
C130_3 C131_3 1_555 1_555
C131_3 H64_3 1_555 1_555
C132_3 C131_3 1_555 1_555
H65_3 C132_3 1_555 1_555
C133_3 C132_3 1_555 1_555
C134_3 C133_3 1_555 1_555
C135_3 N11_3 1_555 1_555
C136_3 C120_3 1_555 1_555
H66_3 C136_3 1_555 1_555
N12_5 Cu3_5 1_555 1_555
O53_4 C129_3 1_555 1_555
C141_3 C130_3 1_555 1_555
H70_3 C141_3 1_555 1_555
C142_3 C133_3 1_555 1_555
H71_3 C142_3 1_555 1_555
C143_3 C134_3 1_555 1_555
H72_3 C144_3 1_555 1_555
C114_3 C115_3 1_555 1_555
C115_3 C116_3 1_555 1_555
N11_3 C119_3 1_555 1_555
C117_3 C118_3 1_555 1_555
C134_3 C135_3 1_555 1_555
C135_3 C136_3 1_555 1_555
N12_5 C143_3 1_555 1_555
C141_3 C142_3 1_555 1_555
C143_3 C144_3 1_555 1_555
Cu2_5 N5_5 1_555 1_555
O63_4 C61_3 1_555 1_555
C61_3 C62_3 1_555 1_555
C62_3 C63_3 1_555 1_555
C63_3 H31_3 1_555 1_555
C64_3 C63_3 1_555 1_555
H32_3 C64_3 1_555 1_555
C65_3 C64_3 1_555 1_555
C66_3 C65_3 1_555 1_555
C67_3 N5_5 1_555 1_555
H33_3 C68_3 1_555 1_555
O66_6 C61_3 1_555 1_555
N7_3 Cu2_5 1_555 1_555
C69_3 C62_3 1_555 1_555
H34_3 C69_3 1_555 1_555
C70_3 C65_3 1_555 1_555
H35_3 C70_3 1_555 1_555
C71_3 C66_3 1_555 1_555
C72_3 C71_3 1_555 1_555
H36_3 C72_3 1_555 1_555
O58_7 C81_3 1_555 1_555
C81_3 C82_3 1_555 1_555
C82_3 C83_3 1_555 1_555
C83_3 H40_3 1_555 1_555
C84_3 C83_3 1_555 1_555
H41_3 C84_3 1_555 1_555
C85_3 C84_3 1_555 1_555
C86_3 C85_3 1_555 1_555
C87_3 N7_3 1_555 1_555
C88_3 C72_3 1_555 1_555
H42_3 C88_3 1_555 1_555
N8_5 Cu2_5 1_555 1_555
O57 C81_3 1_555 1_555
C93_3 C82_3 1_555 1_555
H46_3 C93_3 1_555 1_555
C94_3 C85_3 1_555 1_555
H47_3 C94_3 1_555 1_555
C95_3 C86_3 1_555 1_555
H48_3 C96_3 1_555 1_555
C66_3 C67_3 1_555 1_555
C67_3 C68_3 1_555 1_555
N7_3 C71_3 1_555 1_555
C69_3 C70_3 1_555 1_555
C86_3 C87_3 1_555 1_555
C87_3 C88_3 1_555 1_555
N8_5 C95_3 1_555 1_555
C93_3 C94_3 1_555 1_555
C95_3 C96_3 1_555 1_555
Cu1_5 N1_5 1_555 1_555
O53 C1_3 1_555 1_555
N1_5 C7_3 1_555 1_555
C1_3 C2_3 1_555 1_555
C2_3 C3_3 1_555 1_555
C3_3 H1_3 1_555 1_555
C4_3 C3_3 1_555 1_555
H2_3 C4_3 1_555 1_555
C5_3 C4_3 1_555 1_555
C6_3 C5_3 1_555 1_555
C7_3 C6_3 1_555 1_555
C8_3 C7_3 1_555 1_555
H3_3 C8_3 1_555 1_555
O58_11 C1_3 1_555 1_555
N2_3 Cu1_5 1_555 1_555
C9_3 C2_3 1_555 1_555
H4_3 C9_3 1_555 1_555
C10_3 C5_3 1_555 1_555
H5_3 C10_3 1_555 1_555
C11_3 C6_3 1_555 1_555
C12_3 C11_3 1_555 1_555
H6_3 C12_3 1_555 1_555
O65_3 C25_3 1_555 1_555
C25_3 C26_3 1_555 1_555
C26_3 C27_3 1_555 1_555
C27_3 H13_3 1_555 1_555
C28_3 C27_3 1_555 1_555
H14_3 C28_3 1_555 1_555
C29_3 C28_3 1_555 1_555
C30_3 C29_3 1_555 1_555
C31_3 N2_3 1_555 1_555
C32_3 C12_3 1_555 1_555
H15_3 C32_3 1_555 1_555
O62_2 C25_3 1_555 1_555
N4_5 Cu1_5 1_555 1_555
C41_3 C26_3 1_555 1_555
H19_3 C41_3 1_555 1_555
C42_3 C29_3 1_555 1_555
H20_3 C42_3 1_555 1_555
C43_3 C30_3 1_555 1_555
C44_3 C43_3 1_555 1_555
H21_3 C44_3 1_555 1_555
Cu2_6 N5_6 1_555 1_555
N5_6 C55_3 1_555 1_555
C49_3 O55 1_555 1_555
C50_3 C49_3 1_555 1_555
C51_3 C50_3 1_555 1_555
H25_3 C51_3 1_555 1_555
C52_3 C51_3 1_555 1_555
H26_3 C52_3 1_555 1_555
C53_3 C52_3 1_555 1_555
C54_3 C53_3 1_555 1_555
C55_3 C54_3 1_555 1_555
C56_3 C55_3 1_555 1_555
H27_3 C56_3 1_555 1_555
O58_8 C49_3 1_555 1_555
N6_3 Cu2_6 1_555 1_555
C57_3 C50_3 1_555 1_555
H28_3 C57_3 1_555 1_555
C58_3 C53_3 1_555 1_555
H29_3 C58_3 1_555 1_555
C59_3 C54_3 1_555 1_555
C60_3 C59_3 1_555 1_555
H30_3 C60_3 1_555 1_555
O66_5 C73_3 1_555 1_555
C73_3 C74_3 1_555 1_555
C74_3 C75_3 1_555 1_555
C75_3 H37_3 1_555 1_555
C76_3 C75_3 1_555 1_555
H38_3 C76_3 1_555 1_555
C77_3 C76_3 1_555 1_555
C78_3 C77_3 1_555 1_555
C79_3 N6_3 1_555 1_555
C80_3 C60_3 1_555 1_555
H39_3 C80_3 1_555 1_555
O63 C73_3 1_555 1_555
N8_6 Cu2_6 1_555 1_555
C89_3 C74_3 1_555 1_555
H43_3 C89_3 1_555 1_555
C90_3 C77_3 1_555 1_555
H44_3 C90_3 1_555 1_555
C91_3 C78_3 1_555 1_555
C92_3 C91_3 1_555 1_555
H45_3 C92_3 1_555 1_555
Cu3_6 N9_6 1_555 1_555
N9_6 C103_3 1_555 1_555
C97_3 O54_3 1_555 1_555
C98_3 C97_3 1_555 1_555
C99_3 C98_3 1_555 1_555
H49_3 C99_3 1_555 1_555
C100_3 C99_3 1_555 1_555
H50_3 C100_3 1_555 1_555
C101_3 C100_3 1_555 1_555
C102_3 C101_3 1_555 1_555
C103_3 C102_3 1_555 1_555
C104_3 C103_3 1_555 1_555
H51_3 C104_3 1_555 1_555
O58 C97_3 1_555 1_555
N10_3 Cu3_6 1_555 1_555
C105_3 C98_3 1_555 1_555
H52_3 C105_3 1_555 1_555
C106_3 C101_3 1_555 1_555
H53_3 C106_3 1_555 1_555
C107_3 C102_3 1_555 1_555
C108_3 C107_3 1_555 1_555
H54_3 C108_3 1_555 1_555
O66_4 C121_3 1_555 1_555
C121_3 C122_3 1_555 1_555
C122_3 C123_3 1_555 1_555
C123_3 H61_3 1_555 1_555
C124_3 C123_3 1_555 1_555
H62_3 C124_3 1_555 1_555
C125_3 C124_3 1_555 1_555
C126_3 C125_3 1_555 1_555
C127_3 N10_3 1_555 1_555
C128_3 C108_3 1_555 1_555
H63_3 C128_3 1_555 1_555
O64_4 C121_3 1_555 1_555
N12_6 Cu3_6 1_555 1_555
C137_3 C122_3 1_555 1_555
H67_3 C137_3 1_555 1_555
C138_3 C125_3 1_555 1_555
H68_3 C138_3 1_555 1_555
C139_3 C126_3 1_555 1_555
C140_3 C139_3 1_555 1_555
H69_3 C140_3 1_555 1_555
N2_3 C11_3 1_555 1_555
C9_3 C10_3 1_555 1_555
C30_3 C31_3 1_555 1_555
C31_3 C32_3 1_555 1_555
N4_5 C43_3 1_555 1_555
C41_3 C42_3 1_555 1_555
N6_3 C59_3 1_555 1_555
C57_3 C58_3 1_555 1_555
C78_3 C79_3 1_555 1_555
C79_3 C80_3 1_555 1_555
N8_6 C91_3 1_555 1_555
C89_3 C90_3 1_555 1_555
N10_3 C107_3 1_555 1_555
C105_3 C106_3 1_555 1_555
C126_3 C127_3 1_555 1_555
C127_3 C128_3 1_555 1_555
N12_6 C139_3 1_555 1_555
C137_3 C138_3 1_555 1_555
Cu1_6 N1_6 1_555 1_555
O61 C13_3 1_555 1_555
C13_3 C14_3 1_555 1_555
C14_3 C15_3 1_555 1_555
C15_3 H7_3 1_555 1_555
C16_3 C15_3 1_555 1_555
H8_3 C16_3 1_555 1_555
C17_3 C16_3 1_555 1_555
C18_3 C17_3 1_555 1_555
C19_3 N1_6 1_555 1_555
H9_3 C20_3 1_555 1_555
O65 C13_3 1_555 1_555
N3_3 Cu1_6 1_555 1_555
C21_3 C14_3 1_555 1_555
H10_3 C21_3 1_555 1_555
C22_3 C17_3 1_555 1_555
H11_3 C22_3 1_555 1_555
C23_3 C18_3 1_555 1_555
C24_3 C23_3 1_555 1_555
H12_3 C24_3 1_555 1_555
O58_12 C33_3 1_555 1_555
C33_3 C34_3 1_555 1_555
C34_3 C35_3 1_555 1_555
C35_3 H16_3 1_555 1_555
C36_3 C35_3 1_555 1_555
H17_3 C36_3 1_555 1_555
C37_3 C36_3 1_555 1_555
C38_3 C37_3 1_555 1_555
C39_3 N3_3 1_555 1_555
C40_3 C24_3 1_555 1_555
H18_3 C40_3 1_555 1_555
N4_6 Cu1_6 1_555 1_555
O54_2 C33_3 1_555 1_555
C45_3 C34_3 1_555 1_555
H22_3 C45_3 1_555 1_555
C46_3 C37_3 1_555 1_555
H23_3 C46_3 1_555 1_555
C47_3 C38_3 1_555 1_555
H24_3 C48_3 1_555 1_555
C18_3 C19_3 1_555 1_555
C19_3 C20_3 1_555 1_555
N3_3 C23_3 1_555 1_555
C21_3 C22_3 1_555 1_555
C38_3 C39_3 1_555 1_555
C39_3 C40_3 1_555 1_555
N4_6 C47_3 1_555 1_555
C45_3 C46_3 1_555 1_555
C47_3 C48_3 1_555 1_555
Cu1_7 N1_7 1_555 1_555
O53_2 C1_4 1_555 1_555
N1_7 C7_4 1_555 1_555
C1_4 C2_4 1_555 1_555
C2_4 C3_4 1_555 1_555
C3_4 H1_4 1_555 1_555
C4_4 C3_4 1_555 1_555
H2_4 C4_4 1_555 1_555
C5_4 C4_4 1_555 1_555
C6_4 C5_4 1_555 1_555
C7_4 C6_4 1_555 1_555
C8_4 C7_4 1_555 1_555
H3_4 C8_4 1_555 1_555
O58_10 C1_4 1_555 1_555
N2_4 Cu1_7 1_555 1_555
C9_4 C2_4 1_555 1_555
H4_4 C9_4 1_555 1_555
C10_4 C5_4 1_555 1_555
H5_4 C10_4 1_555 1_555
C11_4 C6_4 1_555 1_555
C12_4 C11_4 1_555 1_555
H6_4 C12_4 1_555 1_555
O65_4 C25_4 1_555 1_555
C25_4 C26_4 1_555 1_555
C26_4 C27_4 1_555 1_555
C27_4 H13_4 1_555 1_555
C28_4 C27_4 1_555 1_555
H14_4 C28_4 1_555 1_555
C29_4 C28_4 1_555 1_555
C30_4 C29_4 1_555 1_555
C31_4 N2_4 1_555 1_555
C32_4 C12_4 1_555 1_555
H15_4 C32_4 1_555 1_555
O62 C25_4 1_555 1_555
N4_7 Cu1_7 1_555 1_555
C41_4 C26_4 1_555 1_555
H19_4 C41_4 1_555 1_555
C42_4 C29_4 1_555 1_555
H20_4 C42_4 1_555 1_555
C43_4 C30_4 1_555 1_555
C44_4 C43_4 1_555 1_555
H21_4 C44_4 1_555 1_555
Cu2_7 N5_7 1_555 1_555
N5_7 C55_4 1_555 1_555
C49_4 O55_2 1_555 1_555
C50_4 C49_4 1_555 1_555
C51_4 C50_4 1_555 1_555
H25_4 C51_4 1_555 1_555
C52_4 C51_4 1_555 1_555
H26_4 C52_4 1_555 1_555
C53_4 C52_4 1_555 1_555
C54_4 C53_4 1_555 1_555
C55_4 C54_4 1_555 1_555
C56_4 C55_4 1_555 1_555
H27_4 C56_4 1_555 1_555
O58_6 C49_4 1_555 1_555
N6_4 Cu2_7 1_555 1_555
C57_4 C50_4 1_555 1_555
H28_4 C57_4 1_555 1_555
C58_4 C53_4 1_555 1_555
H29_4 C58_4 1_555 1_555
C59_4 C54_4 1_555 1_555
C60_4 C59_4 1_555 1_555
H30_4 C60_4 1_555 1_555
O66_7 C73_4 1_555 1_555
C73_4 C74_4 1_555 1_555
C74_4 C75_4 1_555 1_555
C75_4 H37_4 1_555 1_555
C76_4 C75_4 1_555 1_555
H38_4 C76_4 1_555 1_555
C77_4 C76_4 1_555 1_555
C78_4 C77_4 1_555 1_555
C79_4 N6_4 1_555 1_555
C80_4 C60_4 1_555 1_555
H39_4 C80_4 1_555 1_555
O63_2 C73_4 1_555 1_555
N8_7 Cu2_7 1_555 1_555
C89_4 C74_4 1_555 1_555
H43_4 C89_4 1_555 1_555
C90_4 C77_4 1_555 1_555
H44_4 C90_4 1_555 1_555
C91_4 C78_4 1_555 1_555
C92_4 C91_4 1_555 1_555
H45_4 C92_4 1_555 1_555
N2_4 C11_4 1_555 1_555
C9_4 C10_4 1_555 1_555
C30_4 C31_4 1_555 1_555
C31_4 C32_4 1_555 1_555
N4_7 C43_4 1_555 1_555
C41_4 C42_4 1_555 1_555
N6_4 C59_4 1_555 1_555
C57_4 C58_4 1_555 1_555
C78_4 C79_4 1_555 1_555
C79_4 C80_4 1_555 1_555
N8_7 C91_4 1_555 1_555
C89_4 C90_4 1_555 1_555
Cu1_8 N1_8 1_555 1_555
O61_2 C13_4 1_555 1_555
C13_4 C14_4 1_555 1_555
C14_4 C15_4 1_555 1_555
C15_4 H7_4 1_555 1_555
C16_4 C15_4 1_555 1_555
H8_4 C16_4 1_555 1_555
C17_4 C16_4 1_555 1_555
C18_4 C17_4 1_555 1_555
C19_4 N1_8 1_555 1_555
H9_4 C20_4 1_555 1_555
O65_2 C13_4 1_555 1_555
N3_4 Cu1_8 1_555 1_555
C21_4 C14_4 1_555 1_555
H10_4 C21_4 1_555 1_555
C22_4 C17_4 1_555 1_555
H11_4 C22_4 1_555 1_555
C23_4 C18_4 1_555 1_555
C24_4 C23_4 1_555 1_555
H12_4 C24_4 1_555 1_555
O58_9 C33_4 1_555 1_555
C33_4 C34_4 1_555 1_555
C34_4 C35_4 1_555 1_555
C35_4 H16_4 1_555 1_555
C36_4 C35_4 1_555 1_555
H17_4 C36_4 1_555 1_555
C37_4 C36_4 1_555 1_555
C38_4 C37_4 1_555 1_555
C39_4 N3_4 1_555 1_555
C40_4 C24_4 1_555 1_555
H18_4 C40_4 1_555 1_555
N4_8 Cu1_8 1_555 1_555
O54 C33_4 1_555 1_555
C45_4 C34_4 1_555 1_555
H22_4 C45_4 1_555 1_555
C46_4 C37_4 1_555 1_555
H23_4 C46_4 1_555 1_555
C47_4 C38_4 1_555 1_555
H24_4 C48_4 1_555 1_555
C18_4 C19_4 1_555 1_555
C19_4 C20_4 1_555 1_555
N3_4 C23_4 1_555 1_555
C21_4 C22_4 1_555 1_555
C38_4 C39_4 1_555 1_555
C39_4 C40_4 1_555 1_555
N4_8 C47_4 1_555 1_555
C45_4 C46_4 1_555 1_555
C47_4 C48_4 1_555 1_555
Cu2_8 N5_8 1_555 1_555
O63_3 C61_4 1_555 1_555
C61_4 C62_4 1_555 1_555
C62_4 C63_4 1_555 1_555
C63_4 H31_4 1_555 1_555
C64_4 C63_4 1_555 1_555
H32_4 C64_4 1_555 1_555
C65_4 C64_4 1_555 1_555
C66_4 C65_4 1_555 1_555
C67_4 N5_8 1_555 1_555
H33_4 C68_4 1_555 1_555
O66_8 C61_4 1_555 1_555
N7_4 Cu2_8 1_555 1_555
C69_4 C62_4 1_555 1_555
H34_4 C69_4 1_555 1_555
C70_4 C65_4 1_555 1_555
H35_4 C70_4 1_555 1_555
C71_4 C66_4 1_555 1_555
C72_4 C71_4 1_555 1_555
H36_4 C72_4 1_555 1_555
O58_5 C81_4 1_555 1_555
C81_4 C82_4 1_555 1_555
C82_4 C83_4 1_555 1_555
C83_4 H40_4 1_555 1_555
C84_4 C83_4 1_555 1_555
H41_4 C84_4 1_555 1_555
C85_4 C84_4 1_555 1_555
C86_4 C85_4 1_555 1_555
C87_4 N7_4 1_555 1_555
C88_4 C72_4 1_555 1_555
H42_4 C88_4 1_555 1_555
N8_8 Cu2_8 1_555 1_555
O56 C81_4 1_555 1_555
C93_4 C82_4 1_555 1_555
H46_4 C93_4 1_555 1_555
C94_4 C85_4 1_555 1_555
H47_4 C94_4 1_555 1_555
C95_4 C86_4 1_555 1_555
H48_4 C96_4 1_555 1_555
C66_4 C67_4 1_555 1_555
C67_4 C68_4 1_555 1_555
N7_4 C71_4 1_555 1_555
C69_4 C70_4 1_555 1_555
C86_4 C87_4 1_555 1_555
C87_4 C88_4 1_555 1_555
N8_8 C95_4 1_555 1_555
C93_4 C94_4 1_555 1_555
C95_4 C96_4 1_555 1_555
Cu3_7 N9_7 1_555 1_555
O64_2 C109_4 1_555 1_555
C109_4 C110_4 1_555 1_555
C110_4 C111_4 1_555 1_555
C111_4 H55_4 1_555 1_555
C112_4 C111_4 1_555 1_555
H56_4 C112_4 1_555 1_555
C113_4 C112_4 1_555 1_555
C114_4 C113_4 1_555 1_555
C115_4 N9_7 1_555 1_555
H57_4 C116_4 1_555 1_555
O66_2 C109_4 1_555 1_555
N11_4 Cu3_7 1_555 1_555
C117_4 C110_4 1_555 1_555
H58_4 C117_4 1_555 1_555
C118_4 C113_4 1_555 1_555
H59_4 C118_4 1_555 1_555
C119_4 C114_4 1_555 1_555
C120_4 C119_4 1_555 1_555
H60_4 C120_4 1_555 1_555
O58_3 C129_4 1_555 1_555
C129_4 C130_4 1_555 1_555
C130_4 C131_4 1_555 1_555
C131_4 H64_4 1_555 1_555
C132_4 C131_4 1_555 1_555
H65_4 C132_4 1_555 1_555
C133_4 C132_4 1_555 1_555
C134_4 C133_4 1_555 1_555
C135_4 N11_4 1_555 1_555
C136_4 C120_4 1_555 1_555
H66_4 C136_4 1_555 1_555
N12_7 Cu3_7 1_555 1_555
O53_3 C129_4 1_555 1_555
C141_4 C130_4 1_555 1_555
H70_4 C141_4 1_555 1_555
C142_4 C133_4 1_555 1_555
H71_4 C142_4 1_555 1_555
C143_4 C134_4 1_555 1_555
H72_4 C144_4 1_555 1_555
C114_4 C115_4 1_555 1_555
C115_4 C116_4 1_555 1_555
N11_4 C119_4 1_555 1_555
C117_4 C118_4 1_555 1_555
C134_4 C135_4 1_555 1_555
C135_4 C136_4 1_555 1_555
N12_7 C143_4 1_555 1_555
C141_4 C142_4 1_555 1_555
C143_4 C144_4 1_555 1_555
Cu3_8 N9_8 1_555 1_555
N9_8 C103_4 1_555 1_555
C97_4 O54_4 1_555 1_555
C98_4 C97_4 1_555 1_555
C99_4 C98_4 1_555 1_555
H49_4 C99_4 1_555 1_555
C100_4 C99_4 1_555 1_555
H50_4 C100_4 1_555 1_555
C101_4 C100_4 1_555 1_555
C102_4 C101_4 1_555 1_555
C103_4 C102_4 1_555 1_555
C104_4 C103_4 1_555 1_555
H51_4 C104_4 1_555 1_555
O58_4 C97_4 1_555 1_555
N10_4 Cu3_8 1_555 1_555
C105_4 C98_4 1_555 1_555
H52_4 C105_4 1_555 1_555
C106_4 C101_4 1_555 1_555
H53_4 C106_4 1_555 1_555
C107_4 C102_4 1_555 1_555
C108_4 C107_4 1_555 1_555
H54_4 C108_4 1_555 1_555
O66 C121_4 1_555 1_555
C121_4 C122_4 1_555 1_555
C122_4 C123_4 1_555 1_555
C123_4 H61_4 1_555 1_555
C124_4 C123_4 1_555 1_555
H62_4 C124_4 1_555 1_555
C125_4 C124_4 1_555 1_555
C126_4 C125_4 1_555 1_555
C127_4 N10_4 1_555 1_555
C128_4 C108_4 1_555 1_555
H63_4 C128_4 1_555 1_555
O64 C121_4 1_555 1_555
N12_8 Cu3_8 1_555 1_555
C137_4 C122_4 1_555 1_555
H67_4 C137_4 1_555 1_555
C138_4 C125_4 1_555 1_555
H68_4 C138_4 1_555 1_555
C139_4 C126_4 1_555 1_555
C140_4 C139_4 1_555 1_555
H69_4 C140_4 1_555 1_555
N10_4 C107_4 1_555 1_555
C105_4 C106_4 1_555 1_555
C126_4 C127_4 1_555 1_555
C127_4 C128_4 1_555 1_555
N12_8 C139_4 1_555 1_555
C137_4 C138_4 1_555 1_555

#END
