
###############################################################################
#
# This file contains modified crystal structure data generated from the
# MOF subset of the Cambridge Structural Database (CSD) v543 
# hosted by the Cambridge Crystallographic Data Centre (CCDC).
#
# This work is licensed under the Creative Commons
# Attribution-NonCommercial-ShareAlike 4.0 International License.
# To view a copy of this license, visit
# http://creativecommons.org/licenses/by-nc-sa/4.0/
# or send a letter to
# Creative Commons, PO Box 1866, Mountain View, CA 94042, USA.
#
# CIF created using the CSD Python API on 29 September 2022
# The structure has been converted into the P1 space group
# The structure has a 3D framework
# The original CSD entry BIPSUQ is in the hexagonal crystal system
# The framework has been calculated to contain at least 10.0% void space
# The void calculation uses a probe of radius 1.32A, grid spacing 0.4
# H atom positions have been added when not included in the experimental data
# Generated hydrogen atom positions removed from atoms on special positions
#
###############################################################################

data_BIPSUQ
_chemical_formula_moiety         '(C480 H480 Cu42 N24 O168)n'
_symmetry_cell_setting           triclinic
_symmetry_space_group_name_H-M   'P 1'
_symmetry_Int_Tables_number      1
_space_group_name_Hall           'P 1'
loop_
_symmetry_equiv_pos_site_id
_symmetry_equiv_pos_as_xyz
1 x,y,z
_cell_length_a                   33.7831(10)
_cell_length_b                   33.7831(10)
_cell_length_c                   43.456(3)
_cell_angle_alpha                90
_cell_angle_beta                 90
_cell_angle_gamma                120
_cell_volume                     42951.6
loop_
_atom_site_label
_atom_site_type_symbol
_atom_site_fract_x
_atom_site_fract_y
_atom_site_fract_z
Cu9 Cu 0.52124(2) 0.47876(2) 0.01088(3)
O1 O 0.45037(17) 0.46784(19) 0.53840(11)
O2 O 0.4865(2) 0.4308(2) 0.52048(11)
O3 O 0.4365(3) 0.2773(2) 0.55961(17)
O4 O 0.3870(3) 0.2498(3) 0.59758(18)
C1 C 0.2620(4) 0.3826(3) 0.6951(3)
C2 C 0.2246(4) 0.3840(3) 0.6850(3)
C3 C 0.37911(19) 0.3669(3) 0.60166(12)
C4 C 0.3817(2) 0.3271(2) 0.60067(13)
H1 H 0.3645 0.3032 0.6145
C5 C 0.4098(2) 0.3228(2) 0.57922(16)
C6 C 0.43533(19) 0.3582(3) 0.55877(13)
H2 H 0.4543 0.3552 0.5443
C7 C 0.43271(19) 0.3979(2) 0.55976(13)
C8 C 0.4046(2) 0.4023(2) 0.58121(16)
H3 H 0.4028 0.4291 0.5819
C9 C 0.2114(2) 0.3833(3) 0.65244(19)
H4 H 0.2278 0.3830 0.6350
C10 C 0.3156(3) 0.3828(3) 0.73437(16)
H5 H 0.3375 0.3827 0.7212
C11 C 0.2743(4) 0.3830(3) 0.7259(3)
C12 C 0.4589(3) 0.4355(3) 0.5369(2)
C13 C 0.4109(5) 0.2825(5) 0.5782(3)
C14 C 0.2926(3) 0.3788(4) 0.66932(13)
C15 C 0.3342(4) 0.4164(2) 0.66129(19)
H6 H 0.3438 0.4449 0.6707
C16 C 0.3618(2) 0.4120(2) 0.6394(2)
H7 H 0.3899 0.4375 0.6339
C17 C 0.3476(2) 0.3700(3) 0.62547(13)
C18 C 0.3059(3) 0.3323(2) 0.63351(16)
H8 H 0.2963 0.3039 0.6241
C19 C 0.27839(19) 0.3367(3) 0.65543(17)
H9 H 0.2502 0.3112 0.6609
Cu1 Cu 0.47876(2) 0.52124(2) 0.51088(3)
O5 O 0.44458(10) 0.55542(10) 0.53122(14)
Cu2 Cu 0.38211(13) 0.19106(7) 0.59988(8)
Cu3 Cu 0.44310(10) 0.22155(5) 0.55586(6)
O6 O 0.4374(6) 0.2187(3) 0.6264(3)
O7 O 0.3905(5) 0.1953(2) 0.5273(3)
O8 O 0.4955(4) 0.24773(18) 0.5160(2)
C20 C 0.3509(7) 0.1754(3) 0.5366(5)
H10 H 0.3271 0.1636 0.5220
C21 C 0.4789(7) 0.2395(4) 0.6184(4)
H11 H 0.5023 0.2511 0.6333
O9 O 0.3373(5) 0.1686(2) 0.6385(3)
O10 O 0.3410(5) 0.1705(2) 0.5640(4)
O11 O 0.4879(4) 0.2440(2) 0.5911(3)
N1 N 0.19232(18) 0.3846(4) 0.7040(2)
N2 N 0.2508(4) 0.3853(3) 0.7500
Cu4 Cu 0.19193(4) 0.38385(8) 0.7500
O12 O 0.45037(17) 0.46784(19) 0.96160(11)
O13 O 0.4865(2) 0.4308(2) 0.97952(11)
O14 O 0.4365(3) 0.2773(2) 0.94039(17)
O15 O 0.3870(3) 0.2498(3) 0.90242(18)
C22 C 0.2620(4) 0.3826(3) 0.8049(3)
C23 C 0.2246(4) 0.3840(3) 0.8150(3)
C24 C 0.37911(19) 0.3669(3) 0.89834(12)
C25 C 0.3817(2) 0.3271(2) 0.89933(13)
H12 H 0.3645 0.3032 0.8855
C26 C 0.4098(2) 0.3228(2) 0.92078(16)
C27 C 0.43533(19) 0.3582(3) 0.94123(13)
H13 H 0.4543 0.3552 0.9557
C28 C 0.43271(19) 0.3979(2) 0.94024(13)
C29 C 0.4046(2) 0.4023(2) 0.91879(16)
H14 H 0.4028 0.4291 0.9181
C30 C 0.2114(2) 0.3833(3) 0.84756(19)
H15 H 0.2278 0.3830 0.8650
C31 C 0.3156(3) 0.3828(3) 0.76563(16)
H16 H 0.3375 0.3827 0.7788
C32 C 0.2743(4) 0.3830(3) 0.7741(3)
C33 C 0.4589(3) 0.4355(3) 0.9631(2)
C34 C 0.4109(5) 0.2825(5) 0.9218(3)
C35 C 0.2926(3) 0.3788(4) 0.83068(13)
C36 C 0.3342(4) 0.4164(2) 0.83871(19)
H17 H 0.3438 0.4449 0.8293
C37 C 0.3618(2) 0.4120(2) 0.8606(2)
H18 H 0.3899 0.4375 0.8661
C38 C 0.3476(2) 0.3700(3) 0.87453(13)
C39 C 0.3059(3) 0.3323(2) 0.86649(16)
H19 H 0.2963 0.3039 0.8759
C40 C 0.27839(19) 0.3367(3) 0.84457(17)
H20 H 0.2502 0.3112 0.8391
N3 N 0.19228(44) 0.3846(4) 0.7960(2)
O16 O 0.01747(25) 0.46784(19) 0.53840(11)
C41 C 0.1206(5) 0.3826(3) 0.6951(3)
C42 C 0.1594(5) 0.3840(3) 0.6850(3)
H23 H 0.0263 0.4291 0.5819
C49 C 0.1719(4) 0.3833(3) 0.65244(19)
H24 H 0.1552 0.3830 0.6350
C50 C 0.0672(4) 0.3828(3) 0.73437(16)
H25 H 0.0452 0.3827 0.7212
C51 C 0.1087(5) 0.3830(3) 0.7259(3)
C54 C 0.0862(5) 0.3788(4) 0.66932(13)
C55 C 0.0822(4) 0.4164(2) 0.66129(19)
H26 H 0.1011 0.4449 0.6707
C56 C 0.0502(3) 0.4120(2) 0.6394(2)
H27 H 0.0476 0.4375 0.6339
C57 C 0.0224(4) 0.3700(3) 0.62547(13)
C58 C 0.0264(4) 0.3323(2) 0.63351(16)
H28 H 0.0076 0.3039 0.6241
C59 C 0.05831(36) 0.3367(3) 0.65543(17)
H29 H 0.0610 0.3112 0.6609
N4 N 0.1345(5) 0.3853(3) 0.7500
O20 O 0.01747(25) 0.46784(19) 0.96160(11)
C60 C 0.1206(5) 0.3826(3) 0.8049(3)
C61 C 0.1594(5) 0.3840(3) 0.8150(3)
H32 H 0.0263 0.4291 0.9181
C68 C 0.1719(4) 0.3833(3) 0.84756(19)
H33 H 0.1552 0.3830 0.8650
C69 C 0.0672(4) 0.3828(3) 0.76563(16)
H34 H 0.0452 0.3827 0.7788
C70 C 0.1087(5) 0.3830(3) 0.7741(3)
C73 C 0.0862(5) 0.3788(4) 0.83068(13)
C74 C 0.0822(4) 0.4164(2) 0.83871(19)
H35 H 0.1011 0.4449 0.8293
C75 C 0.0502(3) 0.4120(2) 0.8606(2)
H36 H 0.0476 0.4375 0.8661
C76 C 0.0224(4) 0.3700(3) 0.87453(13)
C77 C 0.0264(4) 0.3323(2) 0.86649(16)
H37 H 0.0076 0.3039 0.8759
C78 C 0.05831(36) 0.3367(3) 0.84457(17)
H38 H 0.0610 0.3112 0.8391
Cu7 Cu 0.52124(2) 0.47876(2) 0.48912(3)
O30 O 0.55542(10) 0.44458(10) 0.46878(14)
O31 O 0.46784(19) 0.45037(17) 0.46160(11)
O32 O 0.54963(17) 0.53216(19) 0.46160(11)
O33 O 0.53216(19) 0.54963(17) 0.53840(11)
O34 O 0.4308(2) 0.4865(2) 0.47952(11)
O35 O 0.5135(2) 0.5692(2) 0.47952(11)
O36 O 0.5692(2) 0.5135(2) 0.52048(11)
O38 O 0.4365(3) 0.1592(4) 0.55961(17)
O40 O 0.3870(3) 0.1372(4) 0.59758(18)
Cu8 Cu 0.04248(3) 0.52124(2) 0.51088(3)
Cu12 Cu 0.47876(2) 0.52124(2) 0.98912(3)
Cu13 Cu 0.04248(3) 0.52124(2) 0.98912(3)
Cu15 Cu 0.38211(13) 0.19105(15) 0.90012(8)
Cu17 Cu 0.44310(10) 0.22155(11) 0.94414(6)
Cu10 Cu 0.95752(3) 0.47876(2) 0.01088(3)
O17 O 0.9443(3) 0.4308(2) 0.52048(11)
O18 O 0.8408(4) 0.2773(2) 0.55961(17)
O19 O 0.8628(4) 0.2498(3) 0.59758(18)
C43 C 0.98779(36) 0.3669(3) 0.60166(12)
C44 C 0.9454(3) 0.3271(2) 0.60067(13)
H21 H 0.9387 0.3032 0.6145
C45 C 0.9130(3) 0.3228(2) 0.57922(16)
C46 C 0.92287(36) 0.3582(3) 0.55877(13)
H22 H 0.9009 0.3552 0.5443
C47 C 0.96519(28) 0.3979(2) 0.55976(13)
C48 C 0.9977(3) 0.4023(2) 0.58121(16)
C52 C 0.9766(4) 0.4355(3) 0.5369(2)
C53 C 0.8716(7) 0.2825(5) 0.5782(3)
O21 O 0.9443(3) 0.4308(2) 0.97952(11)
O22 O 0.8408(4) 0.2773(2) 0.94039(17)
O23 O 0.8628(4) 0.2498(3) 0.90242(18)
C62 C 0.98779(36) 0.3669(3) 0.89834(12)
C63 C 0.9454(3) 0.3271(2) 0.89933(13)
H30 H 0.9387 0.3032 0.8855
C64 C 0.9130(3) 0.3228(2) 0.92078(16)
C65 C 0.92287(36) 0.3582(3) 0.94123(13)
H31 H 0.9009 0.3552 0.9557
C66 C 0.96519(28) 0.3979(2) 0.94024(13)
C67 C 0.9977(3) 0.4023(2) 0.91879(16)
C71 C 0.9766(4) 0.4355(3) 0.9631(2)
C72 C 0.8716(7) 0.2825(5) 0.9218(3)
Cu5 Cu 0.80894(7) 0.19105(15) 0.59988(8)
Cu6 Cu 0.77845(5) 0.22155(11) 0.55586(6)
O24 O 0.7813(3) 0.2187(7) 0.6264(3)
O25 O 0.8047(2) 0.1952(5) 0.5273(3)
O26 O 0.75227(18) 0.24777(44) 0.5160(2)
C79 C 0.8246(3) 0.1755(8) 0.5366(5)
H39 H 0.8364 0.1635 0.5220
C80 C 0.7605(4) 0.2394(8) 0.6184(4)
H40 H 0.7489 0.2512 0.6333
O27 O 0.8314(2) 0.1687(5) 0.6385(3)
O28 O 0.8295(2) 0.1705(5) 0.5640(4)
O29 O 0.7560(2) 0.2439(4) 0.5911(3)
O37 O 0.7227(2) 0.1592(4) 0.55961(17)
O39 O 0.7502(3) 0.1372(4) 0.59758(18)
Cu11 Cu 0.95752(3) 0.47876(2) 0.48912(3)
Cu14 Cu 0.80895(15) 0.19106(7) 0.90012(8)
Cu16 Cu 0.77845(11) 0.22155(5) 0.94414(6)
Cu9_2 Cu 0.52124(2) 0.04248(3) 0.01088(3)
O2_2 O 0.5692(2) 0.0557(3) 0.52048(11)
C3_2 C 0.6331(3) 0.01221(36) 0.60166(12)
C4_2 C 0.6729(2) 0.0546(3) 0.60067(13)
H1_2 H 0.6968 0.0613 0.6145
C5_2 C 0.6772(2) 0.0870(3) 0.57922(16)
C6_2 C 0.6418(3) 0.07713(36) 0.55877(13)
H2_2 H 0.6448 0.0991 0.5443
C7_2 C 0.6021(2) 0.03481(28) 0.55976(13)
C8_2 C 0.5977(2) 0.0023(3) 0.58121(16)
C12_2 C 0.5645(3) 0.0234(4) 0.5369(2)
C13_2 C 0.7175(5) 0.1284(7) 0.5782(3)
O13_2 O 0.5692(2) 0.0557(3) 0.97952(11)
O14_2 O 0.7227(2) 0.1592(4) 0.94039(17)
O15_2 O 0.7502(3) 0.1372(4) 0.90242(18)
C24_2 C 0.6331(3) 0.01221(36) 0.89834(12)
C25_2 C 0.6729(2) 0.0546(3) 0.89933(13)
H12_2 H 0.6968 0.0613 0.8855
C26_2 C 0.6772(2) 0.0870(3) 0.92078(16)
C27_2 C 0.6418(3) 0.07713(36) 0.94123(13)
H13_2 H 0.6448 0.0991 0.9557
C28_2 C 0.6021(2) 0.03481(28) 0.94024(13)
C29_2 C 0.5977(2) 0.0023(3) 0.91879(16)
C33_2 C 0.5645(3) 0.0234(4) 0.9631(2)
C34_2 C 0.7175(5) 0.1284(7) 0.9218(3)
Cu7_2 Cu 0.52124(2) 0.04248(3) 0.48912(3)
O30_2 O 0.55542(10) 0.11084(14) 0.46878(14)
O31_2 O 0.54963(17) 0.01747(25) 0.46160(11)
O32_2 O 0.46784(19) 0.01747(25) 0.46160(11)
O36_2 O 0.4865(2) 0.0557(3) 0.52048(11)
O1_2 O 0.53216(19) 0.98253(25) 0.53840(11)
C1_2 C 0.6174(3) 0.8794(5) 0.6951(3)
C2_2 C 0.6160(3) 0.8406(5) 0.6850(3)
H3_2 H 0.5709 0.9737 0.5819
C9_2 C 0.6167(3) 0.8281(4) 0.65244(19)
H4_2 H 0.6170 0.8448 0.6350
C10_2 C 0.6172(3) 0.9328(4) 0.73437(16)
H5_2 H 0.6173 0.9548 0.7212
C11_2 C 0.6170(3) 0.8913(5) 0.7259(3)
C14_2 C 0.6212(4) 0.9138(5) 0.66932(13)
C15_2 C 0.5836(2) 0.9178(4) 0.66129(19)
H6_2 H 0.5551 0.8989 0.6707
C16_2 C 0.5880(2) 0.9498(3) 0.6394(2)
H7_2 H 0.5625 0.9524 0.6339
C17_2 C 0.6300(3) 0.9776(4) 0.62547(13)
C18_2 C 0.6677(2) 0.9736(4) 0.63351(16)
H8_2 H 0.6961 0.9924 0.6241
C19_2 C 0.6633(3) 0.94169(36) 0.65543(17)
H9_2 H 0.6888 0.9390 0.6609
Cu1_2 Cu 0.47876(2) 0.95752(3) 0.51088(3)
O5_2 O 0.44458(10) 0.88916(14) 0.53122(14)
N1_2 N 0.6154(4) 0.80772(44) 0.7040(2)
N2_2 N 0.6147(3) 0.8655(5) 0.7500
Cu4_2 Cu 0.61615(8) 0.80808(9) 0.7500
O12_2 O 0.53216(19) 0.98253(25) 0.96160(11)
C22_2 C 0.6174(3) 0.8794(5) 0.8049(3)
C23_2 C 0.6160(3) 0.8406(5) 0.8150(3)
H14_2 H 0.5709 0.9737 0.9181
C30_2 C 0.6167(3) 0.8281(4) 0.84756(19)
H15_2 H 0.6170 0.8448 0.8650
C31_2 C 0.6172(3) 0.9328(4) 0.76563(16)
H16_2 H 0.6173 0.9548 0.7788
C32_2 C 0.6170(3) 0.8913(5) 0.7741(3)
C35_2 C 0.6212(4) 0.9138(5) 0.83068(13)
C36_2 C 0.5836(2) 0.9178(4) 0.83871(19)
H17_2 H 0.5551 0.8989 0.8293
C37_2 C 0.5880(2) 0.9498(3) 0.8606(2)
H18_2 H 0.5625 0.9524 0.8661
C38_2 C 0.6300(3) 0.9776(4) 0.87453(13)
C39_2 C 0.6677(2) 0.9736(4) 0.86649(16)
H19_2 H 0.6961 0.9924 0.8759
C40_2 C 0.6633(3) 0.94169(36) 0.84457(17)
H20_2 H 0.6888 0.9390 0.8391
N3_2 N 0.6154(4) 0.80768(59) 0.7960(2)
O18_2 O 0.7227(2) 0.5635(4) 0.55961(17)
O19_2 O 0.7502(3) 0.6130(5) 0.59758(18)
C41_2 C 0.6174(3) 0.7380(6) 0.6951(3)
C42_2 C 0.6160(3) 0.7754(6) 0.6850(3)
C43_2 C 0.6331(3) 0.62089(47) 0.60166(12)
C44_2 C 0.6729(2) 0.6183(4) 0.60067(13)
H21_2 H 0.6968 0.6355 0.6145
C45_2 C 0.6772(2) 0.5902(4) 0.57922(16)
C46_2 C 0.6418(3) 0.56467(47) 0.55877(13)
H22_2 H 0.6448 0.5457 0.5443
C47_2 C 0.6021(2) 0.56729(34) 0.55976(13)
C48_2 C 0.5977(2) 0.5954(4) 0.58121(16)
H23_2 H 0.5709 0.5972 0.5819
C49_2 C 0.6167(3) 0.7886(5) 0.65244(19)
H24_2 H 0.6170 0.7722 0.6350
C50_2 C 0.6172(3) 0.6844(5) 0.73437(16)
H25_2 H 0.6173 0.6625 0.7212
C51_2 C 0.6170(3) 0.7257(6) 0.7259(3)
C52_2 C 0.5645(3) 0.5411(5) 0.5369(2)
C53_2 C 0.7175(5) 0.5891(9) 0.5782(3)
C54_2 C 0.6212(4) 0.7074(6) 0.66932(13)
C55_2 C 0.5836(2) 0.6658(4) 0.66129(19)
H26_2 H 0.5551 0.6562 0.6707
C56_2 C 0.5880(2) 0.6382(4) 0.6394(2)
H27_2 H 0.5625 0.6101 0.6339
C57_2 C 0.6300(3) 0.6524(5) 0.62547(13)
C58_2 C 0.6677(2) 0.6941(4) 0.63351(16)
H28_2 H 0.6961 0.7037 0.6241
C59_2 C 0.6633(3) 0.72161(47) 0.65543(17)
H29_2 H 0.6888 0.7498 0.6609
N4_2 N 0.6147(3) 0.7492(6) 0.7500
O20_2 O 0.53216(19) 0.54963(31) 0.96160(11)
O21_2 O 0.5692(2) 0.5135(4) 0.97952(11)
O22_2 O 0.7227(2) 0.5635(4) 0.94039(17)
O23_2 O 0.7502(3) 0.6130(5) 0.90242(18)
C60_2 C 0.6174(3) 0.7380(6) 0.8049(3)
C61_2 C 0.6160(3) 0.7754(6) 0.8150(3)
C62_2 C 0.6331(3) 0.62089(47) 0.89834(12)
C63_2 C 0.6729(2) 0.6183(4) 0.89933(13)
H30_2 H 0.6968 0.6355 0.8855
C64_2 C 0.6772(2) 0.5902(4) 0.92078(16)
C65_2 C 0.6418(3) 0.56467(47) 0.94123(13)
H31_2 H 0.6448 0.5457 0.9557
C66_2 C 0.6021(2) 0.56729(34) 0.94024(13)
C67_2 C 0.5977(2) 0.5954(4) 0.91879(16)
H32_2 H 0.5709 0.5972 0.9181
C68_2 C 0.6167(3) 0.7886(5) 0.84756(19)
H33_2 H 0.6170 0.7722 0.8650
C69_2 C 0.6172(3) 0.6844(5) 0.76563(16)
H34_2 H 0.6173 0.6625 0.7788
C70_2 C 0.6170(3) 0.7257(6) 0.7741(3)
C71_2 C 0.5645(3) 0.5411(5) 0.9631(2)
C72_2 C 0.7175(5) 0.5891(9) 0.9218(3)
C73_2 C 0.6212(4) 0.7074(6) 0.83068(13)
C74_2 C 0.5836(2) 0.6658(4) 0.83871(19)
H35_2 H 0.5551 0.6562 0.8293
C75_2 C 0.5880(2) 0.6382(4) 0.8606(2)
H36_2 H 0.5625 0.6101 0.8661
C76_2 C 0.6300(3) 0.6524(5) 0.87453(13)
C77_2 C 0.6677(2) 0.6941(4) 0.86649(16)
H37_2 H 0.6961 0.7037 0.8759
C78_2 C 0.6633(3) 0.72161(47) 0.84457(17)
H38_2 H 0.6888 0.7498 0.8391
Cu5_2 Cu 0.80895(15) 0.61789(17) 0.59988(8)
Cu6_2 Cu 0.77845(11) 0.55690(12) 0.55586(6)
O24_2 O 0.7813(7) 0.5626(8) 0.6264(3)
O25_2 O 0.8048(5) 0.6095(5) 0.5273(3)
O26_2 O 0.75223(44) 0.50450(48) 0.5160(2)
C79_2 C 0.8245(8) 0.6491(9) 0.5366(5)
H39_2 H 0.8365 0.6729 0.5220
C80_2 C 0.7606(8) 0.5211(9) 0.6184(4)
H40_2 H 0.7488 0.4977 0.6333
O27_2 O 0.8313(5) 0.6627(5) 0.6385(3)
O28_2 O 0.8295(5) 0.6590(5) 0.5640(4)
O29_2 O 0.7561(4) 0.5121(4) 0.5911(3)
O33_2 O 0.45037(17) 0.98253(25) 0.53840(11)
O34_2 O 0.5135(2) 0.9443(3) 0.47952(11)
O35_2 O 0.4308(2) 0.9443(3) 0.47952(11)
O37_2 O 0.8408(4) 0.5635(4) 0.55961(17)
O39_2 O 0.8628(4) 0.6130(5) 0.59758(18)
Cu12_2 Cu 0.47876(2) 0.95752(3) 0.98912(3)
Cu14_2 Cu 0.80894(7) 0.61789(17) 0.90012(8)
Cu16_2 Cu 0.77845(5) 0.55690(12) 0.94414(6)
C43_3 C 0.37911(47) 0.01221(36) 0.60166(12)
C44_3 C 0.3817(4) 0.0546(3) 0.60067(13)
H21_3 H 0.3645 0.0613 0.6145
C45_3 C 0.4098(4) 0.0870(3) 0.57922(16)
C46_3 C 0.43533(47) 0.07713(36) 0.55877(13)
H22_3 H 0.4543 0.0991 0.5443
C47_3 C 0.43271(34) 0.03481(28) 0.55976(13)
C48_3 C 0.4046(4) 0.0023(3) 0.58121(16)
C52_3 C 0.4589(5) 0.0234(4) 0.5369(2)
C53_3 C 0.4109(9) 0.1284(7) 0.5782(3)
O21_3 O 0.4865(4) 0.0557(3) 0.97952(11)
O22_3 O 0.4365(4) 0.1592(4) 0.94039(17)
O23_3 O 0.3870(5) 0.1372(4) 0.90242(18)
C62_3 C 0.37911(47) 0.01221(36) 0.89834(12)
C63_3 C 0.3817(4) 0.0546(3) 0.89933(13)
H30_3 H 0.3645 0.0613 0.8855
C64_3 C 0.4098(4) 0.0870(3) 0.92078(16)
C65_3 C 0.43533(47) 0.07713(36) 0.94123(13)
H31_3 H 0.4543 0.0991 0.9557
C66_3 C 0.43271(34) 0.03481(28) 0.94024(13)
C67_3 C 0.4046(4) 0.0023(3) 0.91879(16)
C71_3 C 0.4589(5) 0.0234(4) 0.9631(2)
C72_3 C 0.4109(9) 0.1284(7) 0.9218(3)
O1_3 O 0.01747(25) 0.54963(17) 0.53840(11)
C1_3 C 0.1206(5) 0.7380(4) 0.6951(3)
C2_3 C 0.1594(5) 0.7754(4) 0.6850(3)
H3_3 H 0.0263 0.5972 0.5819
C9_3 C 0.1719(4) 0.7886(2) 0.65244(19)
H4_3 H 0.1552 0.7722 0.6350
C10_3 C 0.0672(4) 0.6844(3) 0.73437(16)
H5_3 H 0.0452 0.6625 0.7212
C11_3 C 0.1087(5) 0.7257(4) 0.7259(3)
C14_3 C 0.0862(5) 0.7074(3) 0.66932(13)
C15_3 C 0.0822(4) 0.6658(4) 0.66129(19)
H6_3 H 0.1011 0.6562 0.6707
C16_3 C 0.0502(3) 0.6382(2) 0.6394(2)
H7_3 H 0.0476 0.6101 0.6339
C17_3 C 0.0224(4) 0.6524(2) 0.62547(13)
C18_3 C 0.0264(4) 0.6941(3) 0.63351(16)
H8_3 H 0.0076 0.7037 0.6241
C19_3 C 0.05831(36) 0.72161(19) 0.65543(17)
H9_3 H 0.0610 0.7498 0.6609
O5_3 O 0.11084(14) 0.55542(10) 0.53122(14)
N1_3 N 0.19228(44) 0.80768(18) 0.7040(2)
N2_3 N 0.1345(5) 0.7492(4) 0.7500
Cu4_3 Cu 0.19192(9) 0.80807(4) 0.7500
O12_3 O 0.01747(25) 0.54963(17) 0.96160(11)
C22_3 C 0.1206(5) 0.7380(4) 0.8049(3)
C23_3 C 0.1594(5) 0.7754(4) 0.8150(3)
H14_3 H 0.0263 0.5972 0.9181
C30_3 C 0.1719(4) 0.7886(2) 0.84756(19)
H15_3 H 0.1552 0.7722 0.8650
C31_3 C 0.0672(4) 0.6844(3) 0.76563(16)
H16_3 H 0.0452 0.6625 0.7788
C32_3 C 0.1087(5) 0.7257(4) 0.7741(3)
C35_3 C 0.0862(5) 0.7074(3) 0.83068(13)
C36_3 C 0.0822(4) 0.6658(4) 0.83871(19)
H17_3 H 0.1011 0.6562 0.8293
C37_3 C 0.0502(3) 0.6382(2) 0.8606(2)
H18_3 H 0.0476 0.6101 0.8661
C38_3 C 0.0224(4) 0.6524(2) 0.87453(13)
C39_3 C 0.0264(4) 0.6941(3) 0.86649(16)
H19_3 H 0.0076 0.7037 0.8759
C40_3 C 0.05831(36) 0.72161(19) 0.84457(17)
H20_3 H 0.0610 0.7498 0.8391
N3_3 N 0.19232(59) 0.80772(44) 0.7960(2)
C41_3 C 0.2620(6) 0.8794(5) 0.6951(3)
C42_3 C 0.2246(6) 0.8406(5) 0.6850(3)
H23_3 H 0.4028 0.9737 0.5819
C49_3 C 0.2114(5) 0.8281(4) 0.65244(19)
H24_3 H 0.2278 0.8448 0.6350
C50_3 C 0.3156(5) 0.9328(4) 0.73437(16)
H25_3 H 0.3375 0.9548 0.7212
C51_3 C 0.2743(6) 0.8913(5) 0.7259(3)
C54_3 C 0.2926(6) 0.9138(5) 0.66932(13)
C55_3 C 0.3342(4) 0.9178(4) 0.66129(19)
H26_3 H 0.3438 0.8989 0.6707
C56_3 C 0.3618(4) 0.9498(3) 0.6394(2)
H27_3 H 0.3899 0.9524 0.6339
C57_3 C 0.3476(5) 0.9776(4) 0.62547(13)
C58_3 C 0.3059(4) 0.9736(4) 0.63351(16)
H28_3 H 0.2963 0.9924 0.6241
C59_3 C 0.27839(47) 0.94169(36) 0.65543(17)
H29_3 H 0.2502 0.9390 0.6609
N4_3 N 0.2508(6) 0.8655(5) 0.7500
O20_3 O 0.45037(31) 0.98253(25) 0.96160(11)
C60_3 C 0.2620(6) 0.8794(5) 0.8049(3)
C61_3 C 0.2246(6) 0.8406(5) 0.8150(3)
H32_3 H 0.4028 0.9737 0.9181
C68_3 C 0.2114(5) 0.8281(4) 0.84756(19)
H33_3 H 0.2278 0.8448 0.8650
C69_3 C 0.3156(5) 0.9328(4) 0.76563(16)
H34_3 H 0.3375 0.9548 0.7788
C70_3 C 0.2743(6) 0.8913(5) 0.7741(3)
C73_3 C 0.2926(6) 0.9138(5) 0.83068(13)
C74_3 C 0.3342(4) 0.9178(4) 0.83871(19)
H35_3 H 0.3438 0.8989 0.8293
C75_3 C 0.3618(4) 0.9498(3) 0.8606(2)
H36_3 H 0.3899 0.9524 0.8661
C76_3 C 0.3476(5) 0.9776(4) 0.87453(13)
C77_3 C 0.3059(4) 0.9736(4) 0.86649(16)
H37_3 H 0.2963 0.9924 0.8759
C78_3 C 0.27839(47) 0.94169(36) 0.84457(17)
H38_3 H 0.2502 0.9390 0.8391
O34_3 O 0.0557(3) 0.5692(2) 0.47952(11)
O35_3 O 0.0557(3) 0.4865(2) 0.47952(11)
O2_3 O 0.9443(3) 0.5135(2) 0.52048(11)
C3_3 C 0.98779(36) 0.62089(19) 0.60166(12)
C4_3 C 0.9454(3) 0.6183(2) 0.60067(13)
H1_3 H 0.9387 0.6355 0.6145
C5_3 C 0.9130(3) 0.5902(2) 0.57922(16)
C6_3 C 0.92287(36) 0.56467(19) 0.55877(13)
H2_3 H 0.9009 0.5457 0.5443
C7_3 C 0.96519(28) 0.56729(19) 0.55976(13)
C8_3 C 0.9977(3) 0.5954(2) 0.58121(16)
C12_3 C 0.9766(4) 0.5411(3) 0.5369(2)
C13_3 C 0.8716(7) 0.5891(5) 0.5782(3)
O13_3 O 0.9443(3) 0.5135(2) 0.97952(11)
O14_3 O 0.8408(4) 0.5635(3) 0.94039(17)
O15_3 O 0.8628(4) 0.6130(3) 0.90242(18)
C24_3 C 0.98779(36) 0.62089(19) 0.89834(12)
C25_3 C 0.9454(3) 0.6183(2) 0.89933(13)
H12_3 H 0.9387 0.6355 0.8855
C26_3 C 0.9130(3) 0.5902(2) 0.92078(16)
C27_3 C 0.92287(36) 0.56467(19) 0.94123(13)
H13_3 H 0.9009 0.5457 0.9557
C28_3 C 0.96519(28) 0.56729(19) 0.94024(13)
C29_3 C 0.9977(3) 0.5954(2) 0.91879(16)
C33_3 C 0.9766(4) 0.5411(3) 0.9631(2)
C34_3 C 0.8716(7) 0.5891(5) 0.9218(3)
O30_3 O 0.88916(14) 0.44458(10) 0.46878(14)
O31_3 O 0.98253(25) 0.53216(19) 0.46160(11)
O32_3 O 0.98253(25) 0.45037(17) 0.46160(11)
O17_2 O 0.0557(3) 0.5692(2) 0.02048(11)
O18_3 O 0.1592(4) 0.7227(2) 0.05961(17)
O19_3 O 0.1372(4) 0.7502(3) 0.09758(18)
C43_4 C 0.01221(36) 0.6331(3) 0.10166(12)
C44_4 C 0.0546(3) 0.6729(2) 0.10067(13)
H21_4 H 0.0613 0.6968 0.1145
C45_4 C 0.0870(3) 0.6772(2) 0.07922(16)
C46_4 C 0.07713(36) 0.6418(3) 0.05877(13)
H22_4 H 0.0991 0.6448 0.0443
C47_4 C 0.03481(28) 0.6021(2) 0.05976(13)
C48_4 C 0.0023(3) 0.5977(2) 0.08121(16)
C52_4 C 0.0234(4) 0.5645(3) 0.0369(2)
C53_4 C 0.1284(7) 0.7175(5) 0.0782(3)
O22_4 O 0.1592(4) 0.7227(2) 0.44039(17)
O23_4 O 0.1372(4) 0.7502(3) 0.40242(18)
C62_4 C 0.01221(36) 0.6331(3) 0.39834(12)
C63_4 C 0.0546(3) 0.6729(2) 0.39933(13)
H30_4 H 0.0613 0.6968 0.3855
C64_4 C 0.0870(3) 0.6772(2) 0.42078(16)
C65_4 C 0.07713(36) 0.6418(3) 0.44123(13)
H31_4 H 0.0991 0.6448 0.4557
C66_4 C 0.03481(28) 0.6021(2) 0.44024(13)
C67_4 C 0.0023(3) 0.5977(2) 0.41879(16)
C71_4 C 0.0234(4) 0.5645(3) 0.4631(2)
C72_4 C 0.1284(7) 0.7175(5) 0.4218(3)
Cu5_3 Cu 0.19106(7) 0.80895(15) 0.09988(8)
Cu6_3 Cu 0.22155(5) 0.77845(11) 0.05586(6)
O24_3 O 0.2187(3) 0.7813(7) 0.1264(3)
O25_3 O 0.1953(2) 0.8048(5) 0.0273(3)
O26_3 O 0.24773(18) 0.75223(44) 0.0160(2)
C79_3 C 0.1754(3) 0.8245(8) 0.0366(5)
H39_3 H 0.1636 0.8365 0.0220
C80_3 C 0.2395(4) 0.7606(8) 0.1184(4)
H40_3 H 0.2511 0.7488 0.1333
O27_3 O 0.1686(2) 0.8313(5) 0.1385(3)
O28_3 O 0.1705(2) 0.8295(5) 0.0640(4)
O29_3 O 0.2440(2) 0.7561(4) 0.0911(3)
O37_3 O 0.2773(2) 0.8408(4) 0.05961(17)
O39_3 O 0.2498(3) 0.8628(4) 0.09758(18)
Cu14_3 Cu 0.19105(15) 0.80894(7) 0.40012(8)
Cu16_3 Cu 0.22155(11) 0.77845(5) 0.44414(6)
H51 H 0.227577 0.74555 0.997804
O1_4 O 0.54963(17) 0.53216(19) 0.03840(11)
O2_4 O 0.5135(2) 0.5692(2) 0.02048(11)
O3_2 O 0.5635(3) 0.7227(2) 0.05961(17)
O4_2 O 0.6130(3) 0.7502(3) 0.09758(18)
C1_4 C 0.7380(4) 0.6174(3) 0.1951(3)
C2_4 C 0.7754(4) 0.6160(3) 0.1850(3)
C3_4 C 0.62089(19) 0.6331(3) 0.10166(12)
C4_4 C 0.6183(2) 0.6729(2) 0.10067(13)
H1_4 H 0.6355 0.6968 0.1145
C5_4 C 0.5902(2) 0.6772(2) 0.07922(16)
C6_4 C 0.56467(19) 0.6418(3) 0.05877(13)
H2_4 H 0.5457 0.6448 0.0443
C7_4 C 0.56729(19) 0.6021(2) 0.05976(13)
C8_4 C 0.5954(2) 0.5977(2) 0.08121(16)
H3_4 H 0.5972 0.5709 0.0819
C9_4 C 0.7886(2) 0.6167(3) 0.15244(19)
H4_4 H 0.7722 0.6170 0.1350
C10_4 C 0.6844(3) 0.6172(3) 0.23437(16)
H5_4 H 0.6625 0.6173 0.2212
C11_4 C 0.7257(4) 0.6170(3) 0.2259(3)
C12_4 C 0.5411(3) 0.5645(3) 0.0369(2)
C13_4 C 0.5891(5) 0.7175(5) 0.0782(3)
C14_4 C 0.7074(3) 0.6212(4) 0.16932(13)
C15_4 C 0.6658(4) 0.5836(2) 0.16129(19)
H6_4 H 0.6562 0.5551 0.1707
C16_4 C 0.6382(2) 0.5880(2) 0.1394(2)
H7_4 H 0.6101 0.5625 0.1339
C17_4 C 0.6524(2) 0.6300(3) 0.12547(13)
C18_4 C 0.6941(3) 0.6677(2) 0.13351(16)
H8_4 H 0.7037 0.6961 0.1241
C19_4 C 0.72161(19) 0.6633(3) 0.15543(17)
H9_4 H 0.7498 0.6888 0.1609
O5_4 O 0.55542(10) 0.44458(10) 0.03122(14)
Cu2_2 Cu 0.61789(13) 0.80894(7) 0.09988(8)
Cu3_2 Cu 0.55690(10) 0.77845(5) 0.05586(6)
O6_2 O 0.5626(6) 0.7813(3) 0.1264(3)
O7_2 O 0.6095(5) 0.8047(2) 0.0273(3)
O8_2 O 0.5045(4) 0.75227(18) 0.0160(2)
C20_2 C 0.6491(7) 0.8246(3) 0.0366(5)
H10_2 H 0.6729 0.8364 0.0220
C21_2 C 0.5211(7) 0.7605(4) 0.1184(4)
H11_2 H 0.4977 0.7489 0.1333
O9_2 O 0.6627(5) 0.8314(2) 0.1385(3)
O10_2 O 0.6590(5) 0.8295(2) 0.0640(4)
O11_2 O 0.5121(4) 0.7560(2) 0.0911(3)
N1_4 N 0.80768(18) 0.6154(4) 0.2040(2)
N2_4 N 0.7492(4) 0.6147(3) 0.2500
Cu4_4 Cu 0.80807(4) 0.61615(8) 0.2500
O14_4 O 0.5635(3) 0.7227(2) 0.44039(17)
O15_4 O 0.6130(3) 0.7502(3) 0.40242(18)
C22_4 C 0.7380(4) 0.6174(3) 0.3049(3)
C23_4 C 0.7754(4) 0.6160(3) 0.3150(3)
C24_4 C 0.62089(19) 0.6331(3) 0.39834(12)
C25_4 C 0.6183(2) 0.6729(2) 0.39933(13)
H12_4 H 0.6355 0.6968 0.3855
C26_4 C 0.5902(2) 0.6772(2) 0.42078(16)
C27_4 C 0.56467(19) 0.6418(3) 0.44123(13)
H13_4 H 0.5457 0.6448 0.4557
C28_4 C 0.56729(19) 0.6021(2) 0.44024(13)
C29_4 C 0.5954(2) 0.5977(2) 0.41879(16)
H14_4 H 0.5972 0.5709 0.4181
C30_4 C 0.7886(2) 0.6167(3) 0.34756(19)
H15_4 H 0.7722 0.6170 0.3650
C31_4 C 0.6844(3) 0.6172(3) 0.26563(16)
H16_4 H 0.6625 0.6173 0.2788
C32_4 C 0.7257(4) 0.6170(3) 0.2741(3)
C33_4 C 0.5411(3) 0.5645(3) 0.4631(2)
C34_4 C 0.5891(5) 0.7175(5) 0.4218(3)
C35_4 C 0.7074(3) 0.6212(4) 0.33068(13)
C36_4 C 0.6658(4) 0.5836(2) 0.33871(19)
H17_4 H 0.6562 0.5551 0.3293
C37_4 C 0.6382(2) 0.5880(2) 0.3606(2)
H18_4 H 0.6101 0.5625 0.3661
C38_4 C 0.6524(2) 0.6300(3) 0.37453(13)
C39_4 C 0.6941(3) 0.6677(2) 0.36649(16)
H19_4 H 0.7037 0.6961 0.3759
C40_4 C 0.72161(19) 0.6633(3) 0.34457(17)
H20_4 H 0.7498 0.6888 0.3391
N3_4 N 0.80772(44) 0.6154(4) 0.2960(2)
O16_2 O 0.98253(25) 0.53216(19) 0.03840(11)
C41_4 C 0.8794(5) 0.6174(3) 0.1951(3)
C42_4 C 0.8406(5) 0.6160(3) 0.1850(3)
H23_4 H 0.9737 0.5709 0.0819
C49_4 C 0.8281(4) 0.6167(3) 0.15244(19)
H24_4 H 0.8448 0.6170 0.1350
C50_4 C 0.9328(4) 0.6172(3) 0.23437(16)
H25_4 H 0.9548 0.6173 0.2212
C51_4 C 0.8913(5) 0.6170(3) 0.2259(3)
C54_4 C 0.9138(5) 0.6212(4) 0.16932(13)
C55_4 C 0.9178(4) 0.5836(2) 0.16129(19)
H26_4 H 0.8989 0.5551 0.1707
C56_4 C 0.9498(3) 0.5880(2) 0.1394(2)
H27_4 H 0.9524 0.5625 0.1339
C57_4 C 0.9776(4) 0.6300(3) 0.12547(13)
C58_4 C 0.9736(4) 0.6677(2) 0.13351(16)
H28_4 H 0.9924 0.6961 0.1241
C59_4 C 0.94169(36) 0.6633(3) 0.15543(17)
H29_4 H 0.9390 0.6888 0.1609
N4_4 N 0.8655(5) 0.6147(3) 0.2500
C60_4 C 0.8794(5) 0.6174(3) 0.3049(3)
C61_4 C 0.8406(5) 0.6160(3) 0.3150(3)
H32_4 H 0.9737 0.5709 0.4181
C68_4 C 0.8281(4) 0.6167(3) 0.34756(19)
H33_4 H 0.8448 0.6170 0.3650
C69_4 C 0.9328(4) 0.6172(3) 0.26563(16)
H34_4 H 0.9548 0.6173 0.2788
C70_4 C 0.8913(5) 0.6170(3) 0.2741(3)
C73_4 C 0.9138(5) 0.6212(4) 0.33068(13)
C74_4 C 0.9178(4) 0.5836(2) 0.33871(19)
H35_4 H 0.8989 0.5551 0.3293
C75_4 C 0.9498(3) 0.5880(2) 0.3606(2)
H36_4 H 0.9524 0.5625 0.3661
C76_4 C 0.9776(4) 0.6300(3) 0.37453(13)
C77_4 C 0.9736(4) 0.6677(2) 0.36649(16)
H37_4 H 0.9924 0.6961 0.3759
C78_4 C 0.94169(36) 0.6633(3) 0.34457(17)
H38_4 H 0.9390 0.6888 0.3391
O33_3 O 0.46784(19) 0.45037(17) 0.03840(11)
O36_3 O 0.4308(2) 0.4865(2) 0.02048(11)
O38_2 O 0.5635(3) 0.8408(4) 0.05961(17)
O40_2 O 0.6130(3) 0.8628(4) 0.09758(18)
Cu15_2 Cu 0.61789(13) 0.80895(15) 0.40012(8)
Cu17_2 Cu 0.55690(10) 0.77845(11) 0.44414(6)
O30_4 O 0.44458(10) 0.55542(10) 0.96878(14)
O1_5 O 0.46784(19) 0.01747(25) 0.03840(11)
C1_5 C 0.3826(3) 0.1206(5) 0.1951(3)
C2_5 C 0.3840(3) 0.1594(5) 0.1850(3)
H3_5 H 0.4291 0.0263 0.0819
C9_5 C 0.3833(3) 0.1719(4) 0.15244(19)
H4_5 H 0.3830 0.1552 0.1350
C10_5 C 0.3828(3) 0.0672(4) 0.23437(16)
H5_5 H 0.3827 0.0452 0.2212
C11_5 C 0.3830(3) 0.1087(5) 0.2259(3)
C14_5 C 0.3788(4) 0.0862(5) 0.16932(13)
C15_5 C 0.4164(2) 0.0822(4) 0.16129(19)
H6_5 H 0.4449 0.1011 0.1707
C16_5 C 0.4120(2) 0.0502(3) 0.1394(2)
H7_5 H 0.4375 0.0476 0.1339
C17_5 C 0.3700(3) 0.0224(4) 0.12547(13)
C18_5 C 0.3323(2) 0.0264(4) 0.13351(16)
H8_5 H 0.3039 0.0076 0.1241
C19_5 C 0.3367(3) 0.05831(36) 0.15543(17)
H9_5 H 0.3112 0.0610 0.1609
O5_5 O 0.55542(10) 0.11084(14) 0.03122(14)
N1_5 N 0.3846(4) 0.19228(44) 0.2040(2)
N2_5 N 0.3853(3) 0.1345(5) 0.2500
Cu4_5 Cu 0.38385(8) 0.19192(9) 0.2500
C22_5 C 0.3826(3) 0.1206(5) 0.3049(3)
C23_5 C 0.3840(3) 0.1594(5) 0.3150(3)
H14_5 H 0.4291 0.0263 0.4181
C30_5 C 0.3833(3) 0.1719(4) 0.34756(19)
H15_5 H 0.3830 0.1552 0.3650
C31_5 C 0.3828(3) 0.0672(4) 0.26563(16)
H16_5 H 0.3827 0.0452 0.2788
C32_5 C 0.3830(3) 0.1087(5) 0.2741(3)
C35_5 C 0.3788(4) 0.0862(5) 0.33068(13)
C36_5 C 0.4164(2) 0.0822(4) 0.33871(19)
H17_5 H 0.4449 0.1011 0.3293
C37_5 C 0.4120(2) 0.0502(3) 0.3606(2)
H18_5 H 0.4375 0.0476 0.3661
C38_5 C 0.3700(3) 0.0224(4) 0.37453(13)
C39_5 C 0.3323(2) 0.0264(4) 0.36649(16)
H19_5 H 0.3039 0.0076 0.3759
C40_5 C 0.3367(3) 0.05831(36) 0.34457(17)
H20_5 H 0.3112 0.0610 0.3391
N3_5 N 0.3846(4) 0.19232(59) 0.2960(2)
O18_4 O 0.2773(2) 0.4365(4) 0.05961(17)
O19_4 O 0.2498(3) 0.3870(5) 0.09758(18)
C41_5 C 0.3826(3) 0.2620(6) 0.1951(3)
C42_5 C 0.3840(3) 0.2246(6) 0.1850(3)
C43_5 C 0.3669(3) 0.37911(47) 0.10166(12)
C44_5 C 0.3271(2) 0.3817(4) 0.10067(13)
H21_5 H 0.3032 0.3645 0.1145
C45_5 C 0.3228(2) 0.4098(4) 0.07922(16)
C46_5 C 0.3582(3) 0.43533(47) 0.05877(13)
H22_5 H 0.3552 0.4543 0.0443
C47_5 C 0.3979(2) 0.43271(34) 0.05976(13)
C48_5 C 0.4023(2) 0.4046(4) 0.08121(16)
H23_5 H 0.4291 0.4028 0.0819
C49_5 C 0.3833(3) 0.2114(5) 0.15244(19)
H24_5 H 0.3830 0.2278 0.1350
C50_5 C 0.3828(3) 0.3156(5) 0.23437(16)
H25_5 H 0.3827 0.3375 0.2212
C51_5 C 0.3830(3) 0.2743(6) 0.2259(3)
C52_5 C 0.4355(3) 0.4589(5) 0.0369(2)
C53_5 C 0.2825(5) 0.4109(9) 0.0782(3)
C54_5 C 0.3788(4) 0.2926(6) 0.16932(13)
C55_5 C 0.4164(2) 0.3342(4) 0.16129(19)
H26_5 H 0.4449 0.3438 0.1707
C56_5 C 0.4120(2) 0.3618(4) 0.1394(2)
H27_5 H 0.4375 0.3899 0.1339
C57_5 C 0.3700(3) 0.3476(5) 0.12547(13)
C58_5 C 0.3323(2) 0.3059(4) 0.13351(16)
H28_5 H 0.3039 0.2963 0.1241
C59_5 C 0.3367(3) 0.27839(47) 0.15543(17)
H29_5 H 0.3112 0.2502 0.1609
N4_5 N 0.3853(3) 0.2508(6) 0.2500
O22_5 O 0.2773(2) 0.4365(4) 0.44039(17)
O23_5 O 0.2498(3) 0.3870(5) 0.40242(18)
C60_5 C 0.3826(3) 0.2620(6) 0.3049(3)
C61_5 C 0.3840(3) 0.2246(6) 0.3150(3)
C62_5 C 0.3669(3) 0.37911(47) 0.39834(12)
C63_5 C 0.3271(2) 0.3817(4) 0.39933(13)
H30_5 H 0.3032 0.3645 0.3855
C64_5 C 0.3228(2) 0.4098(4) 0.42078(16)
C65_5 C 0.3582(3) 0.43533(47) 0.44123(13)
H31_5 H 0.3552 0.4543 0.4557
C66_5 C 0.3979(2) 0.43271(34) 0.44024(13)
C67_5 C 0.4023(2) 0.4046(4) 0.41879(16)
H32_5 H 0.4291 0.4028 0.4181
C68_5 C 0.3833(3) 0.2114(5) 0.34756(19)
H33_5 H 0.3830 0.2278 0.3650
C69_5 C 0.3828(3) 0.3156(5) 0.26563(16)
H34_5 H 0.3827 0.3375 0.2788
C70_5 C 0.3830(3) 0.2743(6) 0.2741(3)
C71_5 C 0.4355(3) 0.4589(5) 0.4631(2)
C72_5 C 0.2825(5) 0.4109(9) 0.4218(3)
C73_5 C 0.3788(4) 0.2926(6) 0.33068(13)
C74_5 C 0.4164(2) 0.3342(4) 0.33871(19)
H35_5 H 0.4449 0.3438 0.3293
C75_5 C 0.4120(2) 0.3618(4) 0.3606(2)
H36_5 H 0.4375 0.3899 0.3661
C76_5 C 0.3700(3) 0.3476(5) 0.37453(13)
C77_5 C 0.3323(2) 0.3059(4) 0.36649(16)
H37_5 H 0.3039 0.2963 0.3759
C78_5 C 0.3367(3) 0.27839(47) 0.34457(17)
H38_5 H 0.3112 0.2502 0.3391
Cu5_4 Cu 0.19105(15) 0.38211(17) 0.09988(8)
Cu6_4 Cu 0.22155(11) 0.44310(12) 0.05586(6)
O24_4 O 0.2187(7) 0.4374(8) 0.1264(3)
O25_4 O 0.1952(5) 0.3905(5) 0.0273(3)
O26_4 O 0.24777(44) 0.49550(48) 0.0160(2)
C79_4 C 0.1755(8) 0.3509(9) 0.0366(5)
H39_4 H 0.1635 0.3271 0.0220
C80_4 C 0.2394(8) 0.4789(9) 0.1184(4)
H40_4 H 0.2512 0.5023 0.1333
O27_4 O 0.1687(5) 0.3373(5) 0.1385(3)
O28_4 O 0.1705(5) 0.3410(5) 0.0640(4)
O29_4 O 0.2439(4) 0.4879(4) 0.0911(3)
O33_4 O 0.54963(17) 0.01747(25) 0.03840(11)
O37_4 O 0.1592(4) 0.4365(4) 0.05961(17)
O39_4 O 0.1372(4) 0.3870(5) 0.09758(18)
Cu14_4 Cu 0.19106(7) 0.38211(17) 0.40012(8)
Cu16_4 Cu 0.22155(5) 0.44310(12) 0.44414(6)
H51_2 H 0.25445 0.482027 0.997804
O2_5 O 0.4308(2) 0.9443(3) 0.02048(11)
C3_5 C 0.3669(3) 0.98779(36) 0.10166(12)
C4_5 C 0.3271(2) 0.9454(3) 0.10067(13)
H1_5 H 0.3032 0.9387 0.1145
C5_5 C 0.3228(2) 0.9130(3) 0.07922(16)
C6_5 C 0.3582(3) 0.92287(36) 0.05877(13)
H2_5 H 0.3552 0.9009 0.0443
C7_5 C 0.3979(2) 0.96519(28) 0.05976(13)
C8_5 C 0.4023(2) 0.9977(3) 0.08121(16)
C12_5 C 0.4355(3) 0.9766(4) 0.0369(2)
C13_5 C 0.2825(5) 0.8716(7) 0.0782(3)
O14_5 O 0.2773(2) 0.8408(4) 0.44039(17)
O15_5 O 0.2498(3) 0.8628(4) 0.40242(18)
C24_5 C 0.3669(3) 0.98779(36) 0.39834(12)
C25_5 C 0.3271(2) 0.9454(3) 0.39933(13)
H12_5 H 0.3032 0.9387 0.3855
C26_5 C 0.3228(2) 0.9130(3) 0.42078(16)
C27_5 C 0.3582(3) 0.92287(36) 0.44123(13)
H13_5 H 0.3552 0.9009 0.4557
C28_5 C 0.3979(2) 0.96519(28) 0.44024(13)
C29_5 C 0.4023(2) 0.9977(3) 0.41879(16)
C33_5 C 0.4355(3) 0.9766(4) 0.4631(2)
C34_5 C 0.2825(5) 0.8716(7) 0.4218(3)
O36_4 O 0.5135(2) 0.9443(3) 0.02048(11)
O30_5 O 0.44458(10) 0.88916(14) 0.96878(14)
O2_6 O 0.0557(3) 0.4865(2) 0.02048(11)
C3_6 C 0.01221(36) 0.37911(19) 0.10166(12)
C4_6 C 0.0546(3) 0.3817(2) 0.10067(13)
H1_6 H 0.0613 0.3645 0.1145
C5_6 C 0.0870(3) 0.4098(2) 0.07922(16)
C6_6 C 0.07713(36) 0.43533(19) 0.05877(13)
H2_6 H 0.0991 0.4543 0.0443
C7_6 C 0.03481(28) 0.43271(19) 0.05976(13)
C8_6 C 0.0023(3) 0.4046(2) 0.08121(16)
C12_6 C 0.0234(4) 0.4589(3) 0.0369(2)
C13_6 C 0.1284(7) 0.4109(5) 0.0782(3)
O14_6 O 0.1592(4) 0.4365(3) 0.44039(17)
O15_6 O 0.1372(4) 0.3870(3) 0.40242(18)
C24_6 C 0.01221(36) 0.37911(19) 0.39834(12)
C25_6 C 0.0546(3) 0.3817(2) 0.39933(13)
H12_6 H 0.0613 0.3645 0.3855
C26_6 C 0.0870(3) 0.4098(2) 0.42078(16)
C27_6 C 0.07713(36) 0.43533(19) 0.44123(13)
H13_6 H 0.0991 0.4543 0.4557
C28_6 C 0.03481(28) 0.43271(19) 0.44024(13)
C29_6 C 0.0023(3) 0.4046(2) 0.41879(16)
C33_6 C 0.0234(4) 0.4589(3) 0.4631(2)
C34_6 C 0.1284(7) 0.4109(5) 0.4218(3)
O30_6 O 0.11084(14) 0.55542(10) 0.96878(14)
O1_6 O 0.98253(25) 0.45037(17) 0.03840(11)
C1_6 C 0.8794(5) 0.2620(4) 0.1951(3)
C2_6 C 0.8406(5) 0.2246(4) 0.1850(3)
H3_6 H 0.9737 0.4028 0.0819
C9_6 C 0.8281(4) 0.2114(2) 0.15244(19)
H4_6 H 0.8448 0.2278 0.1350
C10_6 C 0.9328(4) 0.3156(3) 0.23437(16)
H5_6 H 0.9548 0.3375 0.2212
C11_6 C 0.8913(5) 0.2743(4) 0.2259(3)
C14_6 C 0.9138(5) 0.2926(3) 0.16932(13)
C15_6 C 0.9178(4) 0.3342(4) 0.16129(19)
H6_6 H 0.8989 0.3438 0.1707
C16_6 C 0.9498(3) 0.3618(2) 0.1394(2)
H7_6 H 0.9524 0.3899 0.1339
C17_6 C 0.9776(4) 0.3476(2) 0.12547(13)
C18_6 C 0.9736(4) 0.3059(3) 0.13351(16)
H8_6 H 0.9924 0.2963 0.1241
C19_6 C 0.94169(36) 0.27839(19) 0.15543(17)
H9_6 H 0.9390 0.2502 0.1609
O5_6 O 0.88916(14) 0.44458(10) 0.03122(14)
N1_6 N 0.80772(44) 0.19232(18) 0.2040(2)
N2_6 N 0.8655(5) 0.2508(4) 0.2500
Cu4_6 Cu 0.80808(9) 0.19193(4) 0.2500
C22_6 C 0.8794(5) 0.2620(4) 0.3049(3)
C23_6 C 0.8406(5) 0.2246(4) 0.3150(3)
H14_6 H 0.9737 0.4028 0.4181
C30_6 C 0.8281(4) 0.2114(2) 0.34756(19)
H15_6 H 0.8448 0.2278 0.3650
C31_6 C 0.9328(4) 0.3156(3) 0.26563(16)
H16_6 H 0.9548 0.3375 0.2788
C32_6 C 0.8913(5) 0.2743(4) 0.2741(3)
C35_6 C 0.9138(5) 0.2926(3) 0.33068(13)
C36_6 C 0.9178(4) 0.3342(4) 0.33871(19)
H17_6 H 0.8989 0.3438 0.3293
C37_6 C 0.9498(3) 0.3618(2) 0.3606(2)
H18_6 H 0.9524 0.3899 0.3661
C38_6 C 0.9776(4) 0.3476(2) 0.37453(13)
C39_6 C 0.9736(4) 0.3059(3) 0.36649(16)
H19_6 H 0.9924 0.2963 0.3759
C40_6 C 0.94169(36) 0.27839(19) 0.34457(17)
H20_6 H 0.9390 0.2502 0.3391
N3_6 N 0.80768(59) 0.19228(44) 0.2960(2)
C41_6 C 0.7380(6) 0.1206(5) 0.1951(3)
C42_6 C 0.7754(6) 0.1594(5) 0.1850(3)
H23_6 H 0.5972 0.0263 0.0819
C49_6 C 0.7886(5) 0.1719(4) 0.15244(19)
H24_6 H 0.7722 0.1552 0.1350
C50_6 C 0.6844(5) 0.0672(4) 0.23437(16)
H25_6 H 0.6625 0.0452 0.2212
C51_6 C 0.7257(6) 0.1087(5) 0.2259(3)
C54_6 C 0.7074(6) 0.0862(5) 0.16932(13)
C55_6 C 0.6658(4) 0.0822(4) 0.16129(19)
H26_6 H 0.6562 0.1011 0.1707
C56_6 C 0.6382(4) 0.0502(3) 0.1394(2)
H27_6 H 0.6101 0.0476 0.1339
C57_6 C 0.6524(5) 0.0224(4) 0.12547(13)
C58_6 C 0.6941(4) 0.0264(4) 0.13351(16)
H28_6 H 0.7037 0.0076 0.1241
C59_6 C 0.72161(47) 0.05831(36) 0.15543(17)
H29_6 H 0.7498 0.0610 0.1609
N4_6 N 0.7492(6) 0.1345(5) 0.2500
C60_6 C 0.7380(6) 0.1206(5) 0.3049(3)
C61_6 C 0.7754(6) 0.1594(5) 0.3150(3)
H32_6 H 0.5972 0.0263 0.4181
C68_6 C 0.7886(5) 0.1719(4) 0.34756(19)
H33_6 H 0.7722 0.1552 0.3650
C69_6 C 0.6844(5) 0.0672(4) 0.26563(16)
H34_6 H 0.6625 0.0452 0.2788
C70_6 C 0.7257(6) 0.1087(5) 0.2741(3)
C73_6 C 0.7074(6) 0.0862(5) 0.33068(13)
C74_6 C 0.6658(4) 0.0822(4) 0.33871(19)
H35_6 H 0.6562 0.1011 0.3293
C75_6 C 0.6382(4) 0.0502(3) 0.3606(2)
H36_6 H 0.6101 0.0476 0.3661
C76_6 C 0.6524(5) 0.0224(4) 0.37453(13)
C77_6 C 0.6941(4) 0.0264(4) 0.36649(16)
H37_6 H 0.7037 0.0076 0.3759
C78_6 C 0.72161(47) 0.05831(36) 0.34457(17)
H38_6 H 0.7498 0.0610 0.3391
C43_6 C 0.62089(47) 0.98779(36) 0.10166(12)
C44_6 C 0.6183(4) 0.9454(3) 0.10067(13)
H21_6 H 0.6355 0.9387 0.1145
C45_6 C 0.5902(4) 0.9130(3) 0.07922(16)
C46_6 C 0.56467(47) 0.92287(36) 0.05877(13)
H22_6 H 0.5457 0.9009 0.0443
C47_6 C 0.56729(34) 0.96519(28) 0.05976(13)
C48_6 C 0.5954(4) 0.9977(3) 0.08121(16)
C52_6 C 0.5411(5) 0.9766(4) 0.0369(2)
C53_6 C 0.5891(9) 0.8716(7) 0.0782(3)
O22_6 O 0.5635(4) 0.8408(4) 0.44039(17)
O23_6 O 0.6130(5) 0.8628(4) 0.40242(18)
C62_6 C 0.62089(47) 0.98779(36) 0.39834(12)
C63_6 C 0.6183(4) 0.9454(3) 0.39933(13)
H30_6 H 0.6355 0.9387 0.3855
C64_6 C 0.5902(4) 0.9130(3) 0.42078(16)
C65_6 C 0.56467(47) 0.92287(36) 0.44123(13)
H31_6 H 0.5457 0.9009 0.4557
C66_6 C 0.56729(34) 0.96519(28) 0.44024(13)
C67_6 C 0.5954(4) 0.9977(3) 0.41879(16)
C71_6 C 0.5411(5) 0.9766(4) 0.4631(2)
C72_6 C 0.5891(9) 0.8716(7) 0.4218(3)
H51_3 H 0.517973 0.772423 0.997804
O6_3 O 0.2187(3) 0.4374(6) 0.3736(3)
O7_3 O 0.1953(2) 0.3905(5) 0.4727(3)
O8_3 O 0.24773(18) 0.4955(4) 0.4840(2)
C20_3 C 0.1754(3) 0.3509(7) 0.4634(5)
H10_3 H 0.1636 0.3271 0.4780
C21_3 C 0.2395(4) 0.4789(7) 0.3816(4)
H11_3 H 0.2511 0.5023 0.3667
O9_3 O 0.1686(2) 0.3373(5) 0.3615(3)
O10_3 O 0.1705(2) 0.3410(5) 0.4360(4)
O11_3 O 0.2440(2) 0.4879(4) 0.4089(3)
O24_5 O 0.2187(7) 0.7813(3) 0.3736(3)
O25_5 O 0.1952(5) 0.8047(2) 0.4727(3)
O26_5 O 0.24777(44) 0.75227(18) 0.4840(2)
C79_5 C 0.1755(8) 0.8246(3) 0.4634(5)
H39_5 H 0.1635 0.8364 0.4780
C80_5 C 0.2394(8) 0.7605(4) 0.3816(4)
H40_5 H 0.2512 0.7489 0.3667
O27_5 O 0.1687(5) 0.8314(2) 0.3615(3)
O28_5 O 0.1705(5) 0.8295(2) 0.4360(4)
O29_5 O 0.2439(4) 0.7560(2) 0.4089(3)
O24_6 O 0.5626(8) 0.7813(7) 0.3736(3)
O25_6 O 0.6095(5) 0.8048(5) 0.4727(3)
O26_6 O 0.50450(48) 0.75223(44) 0.4840(2)
C79_6 C 0.6491(9) 0.8245(8) 0.4634(5)
H39_6 H 0.6729 0.8365 0.4780
C80_6 C 0.5211(9) 0.7606(8) 0.3816(4)
H40_6 H 0.4977 0.7488 0.3667
O27_6 O 0.6627(5) 0.8313(5) 0.3615(3)
O28_6 O 0.6590(5) 0.8295(5) 0.4360(4)
O29_6 O 0.5121(4) 0.7561(4) 0.4089(3)
H51_4 H 0.74555 0.227577 0.00219583
O24_7 O 0.7813(7) 0.2187(3) 0.8736(3)
O25_7 O 0.8048(5) 0.1953(2) 0.9727(3)
O26_7 O 0.75223(44) 0.24773(18) 0.9840(2)
C79_7 C 0.8245(8) 0.1754(3) 0.9634(5)
H39_7 H 0.8365 0.1636 0.9780
C80_7 C 0.7606(8) 0.2395(4) 0.8816(4)
H40_7 H 0.7488 0.2511 0.8667
O27_7 O 0.8313(5) 0.1686(2) 0.8615(3)
O28_7 O 0.8295(5) 0.1705(2) 0.9360(4)
O29_7 O 0.7561(4) 0.2440(2) 0.9089(3)
O6_4 O 0.7813(3) 0.5626(6) 0.8736(3)
O7_4 O 0.8047(2) 0.6095(5) 0.9727(3)
O8_4 O 0.75227(18) 0.5045(4) 0.9840(2)
C20_4 C 0.8246(3) 0.6491(7) 0.9634(5)
H10_4 H 0.8364 0.6729 0.9780
C21_4 C 0.7605(4) 0.5211(7) 0.8816(4)
H11_4 H 0.7489 0.4977 0.8667
O9_4 O 0.8314(2) 0.6627(5) 0.8615(3)
O10_4 O 0.8295(2) 0.6590(5) 0.9360(4)
O11_4 O 0.7560(2) 0.5121(4) 0.9089(3)
H51_5 H 0.482027 0.25445 0.00219583
O24_8 O 0.4374(8) 0.2187(7) 0.8736(3)
O25_8 O 0.3905(5) 0.1952(5) 0.9727(3)
O26_8 O 0.49550(48) 0.24777(44) 0.9840(2)
C79_8 C 0.3509(9) 0.1755(8) 0.9634(5)
H39_8 H 0.3271 0.1635 0.9780
C80_8 C 0.4789(9) 0.2394(8) 0.8816(4)
H40_8 H 0.5023 0.2512 0.8667
O27_8 O 0.3373(5) 0.1687(5) 0.8615(3)
O28_8 O 0.3410(5) 0.1705(5) 0.9360(4)
O29_8 O 0.4879(4) 0.2439(4) 0.9089(3)
H51_6 H 0.772423 0.517973 0.00219583
H51_7 H 0.772423 0.25445 0.00219583
H51_8 H 0.74555 0.517973 0.00219583
H51_9 H 0.482027 0.227577 0.00219583
H51_10 H 0.25445 0.772423 0.997804
H51_11 H 0.517973 0.74555 0.997804
H51_12 H 0.227577 0.482027 0.997804
loop_
_geom_bond_atom_site_label_1
_geom_bond_atom_site_label_2
_geom_bond_site_symmetry_1
_geom_bond_site_symmetry_2
O1 C12 1_555 1_555
O2 C12 1_555 1_555
O3 C13 1_555 1_555
O4 C13 1_555 1_555
C1 C2 1_555 1_555
C2 C9 1_555 1_555
C3 C4 1_555 1_555
C4 H1 1_555 1_555
C5 C4 1_555 1_555
C6 C5 1_555 1_555
H2 C6 1_555 1_555
C7 C6 1_555 1_555
C8 C3 1_555 1_555
H3 C8 1_555 1_555
C9 H4 1_555 1_555
C10 H5 1_555 1_555
C11 C1 1_555 1_555
C12 C7 1_555 1_555
C13 C5 1_555 1_555
C14 C1 1_555 1_555
C15 C14 1_555 1_555
H6 C15 1_555 1_555
C16 C15 1_555 1_555
H7 C16 1_555 1_555
C17 C3 1_555 1_555
C18 C17 1_555 1_555
H8 C18 1_555 1_555
C19 C14 1_555 1_555
H9 C19 1_555 1_555
Cu1 O1 1_555 1_555
O5 Cu1 1_555 1_555
Cu2 O4 1_555 1_555
Cu3 O3 1_555 1_555
O6 Cu2 1_555 1_555
O7 Cu3 1_555 1_555
O8 Cu3 1_555 1_555
C20 O7 1_555 1_555
H10 C20 1_555 1_555
C21 O6 1_555 1_555
H11 C21 1_555 1_555
O9 Cu2 1_555 1_555
O10 Cu2 1_555 1_555
O11 Cu3 1_555 1_555
N1 C2 1_555 1_555
N2 C11 1_555 1_555
Cu4 N1 1_555 1_555
O12 C33 1_555 1_555
O13 C33 1_555 1_555
O14 C34 1_555 1_555
O15 C34 1_555 1_555
C22 C23 1_555 1_555
C23 C30 1_555 1_555
C24 C25 1_555 1_555
C25 H12 1_555 1_555
C26 C25 1_555 1_555
C27 C26 1_555 1_555
H13 C27 1_555 1_555
C28 C27 1_555 1_555
C29 C24 1_555 1_555
H14 C29 1_555 1_555
C30 H15 1_555 1_555
C31 C10 1_555 1_555
H16 C31 1_555 1_555
C32 N2 1_555 1_555
C33 C28 1_555 1_555
C34 C26 1_555 1_555
C35 C22 1_555 1_555
C36 C35 1_555 1_555
H17 C36 1_555 1_555
C37 C36 1_555 1_555
H18 C37 1_555 1_555
C38 C24 1_555 1_555
C39 C38 1_555 1_555
H19 C39 1_555 1_555
C40 C35 1_555 1_555
H20 C40 1_555 1_555
N3 Cu4 1_555 1_555
C41 C42 1_555 1_555
C42 N1 1_555 1_555
C49 C9 1_555 1_555
H24 C49 1_555 1_555
C50 H25 1_555 1_555
C51 C41 1_555 1_555
C54 C41 1_555 1_555
C55 C54 1_555 1_555
H26 C55 1_555 1_555
C56 C55 1_555 1_555
H27 C56 1_555 1_555
C58 C57 1_555 1_555
H28 C58 1_555 1_555
C59 C54 1_555 1_555
H29 C59 1_555 1_555
N4 Cu4 1_555 1_555
C60 C61 1_555 1_555
C61 N3 1_555 1_555
C68 C30 1_555 1_555
H33 C68 1_555 1_555
C69 C50 1_555 1_555
H34 C69 1_555 1_555
C70 N4 1_555 1_555
C73 C60 1_555 1_555
C74 C73 1_555 1_555
H35 C74 1_555 1_555
C75 C74 1_555 1_555
H36 C75 1_555 1_555
C77 C76 1_555 1_555
H37 C77 1_555 1_555
C78 C73 1_555 1_555
H38 C78 1_555 1_555
Cu7 O2 1_555 1_555
O30 Cu7 1_555 1_555
O31 Cu7 1_555 1_555
O32 Cu7 1_555 1_555
O33 Cu1 1_555 1_555
O34 Cu1 1_555 1_555
O35 Cu1 1_555 1_555
O36 Cu7 1_555 1_555
O38 Cu3 1_555 1_555
O40 Cu2 1_555 1_555
Cu8 O16 1_555 1_555
Cu12 O12 1_555 1_555
Cu13 O20 1_555 1_555
Cu15 O15 1_555 1_555
Cu17 O14 1_555 1_555
C7 C8 1_555 1_555
C10 C11 1_555 1_555
C16 C17 1_555 1_555
C18 C19 1_555 1_555
C20 O10 1_555 1_555
C21 O11 1_555 1_555
N2 Cu4 1_555 1_555
C22 C32 1_555 1_555
C23 N3 1_555 1_555
C28 C29 1_555 1_555
C31 C32 1_555 1_555
C37 C38 1_555 1_555
C39 C40 1_555 1_555
C42 C49 1_555 1_555
C50 C51 1_555 1_555
C51 N4 1_555 1_555
C56 C57 1_555 1_555
C58 C59 1_555 1_555
C60 C70 1_555 1_555
C61 C68 1_555 1_555
C69 C70 1_555 1_555
C75 C76 1_555 1_555
C77 C78 1_555 1_555
O17 C52 1_555 1_555
O18 C53 1_555 1_555
O19 C53 1_555 1_555
C43 C44 1_555 1_555
C44 H21 1_555 1_555
C45 C44 1_555 1_555
C46 C45 1_555 1_555
H22 C46 1_555 1_555
C47 C46 1_555 1_555
C48 C43 1_555 1_555
C52 C47 1_555 1_555
C53 C45 1_555 1_555
O21 C71 1_555 1_555
O22 C72 1_555 1_555
O23 C72 1_555 1_555
C62 C63 1_555 1_555
C63 H30 1_555 1_555
C64 C63 1_555 1_555
C65 C64 1_555 1_555
H31 C65 1_555 1_555
C66 C65 1_555 1_555
C67 C62 1_555 1_555
C71 C66 1_555 1_555
C72 C64 1_555 1_555
Cu5 O19 1_555 1_555
Cu6 O18 1_555 1_555
O24 Cu5 1_555 1_555
O25 Cu6 1_555 1_555
O26 Cu6 1_555 1_555
C79 O25 1_555 1_555
H39 C79 1_555 1_555
C80 O24 1_555 1_555
H40 C80 1_555 1_555
O27 Cu5 1_555 1_555
O28 Cu5 1_555 1_555
O29 Cu6 1_555 1_555
O37 Cu6 1_555 1_555
O39 Cu5 1_555 1_555
Cu11 O17 1_555 1_555
Cu14 O23 1_555 1_555
Cu16 O22 1_555 1_555
C47 C48 1_555 1_555
C66 C67 1_555 1_555
C79 O28 1_555 1_555
C80 O29 1_555 1_555
O2_2 C12_2 1_555 1_555
O37 C13_2 1_555 1_555
O39 C13_2 1_555 1_555
C3_2 C4_2 1_555 1_555
C4_2 H1_2 1_555 1_555
C5_2 C4_2 1_555 1_555
C6_2 C5_2 1_555 1_555
H2_2 C6_2 1_555 1_555
C7_2 C6_2 1_555 1_555
C8_2 C3_2 1_555 1_555
C12_2 C7_2 1_555 1_555
C13_2 C5_2 1_555 1_555
O13_2 C33_2 1_555 1_555
O14_2 C34_2 1_555 1_555
O15_2 C34_2 1_555 1_555
C24_2 C25_2 1_555 1_555
C25_2 H12_2 1_555 1_555
C26_2 C25_2 1_555 1_555
C27_2 C26_2 1_555 1_555
H13_2 C27_2 1_555 1_555
C28_2 C27_2 1_555 1_555
C29_2 C24_2 1_555 1_555
C33_2 C28_2 1_555 1_555
C34_2 C26_2 1_555 1_555
Cu7_2 O2_2 1_555 1_555
O30_2 Cu7_2 1_555 1_555
O31_2 Cu7_2 1_555 1_555
O32_2 Cu7_2 1_555 1_555
O36_2 Cu7_2 1_555 1_555
Cu14 O15_2 1_555 1_555
Cu16 O14_2 1_555 1_555
C7_2 C8_2 1_555 1_555
C28_2 C29_2 1_555 1_555
C1_2 C2_2 1_555 1_555
C2_2 C9_2 1_555 1_555
C9_2 H4_2 1_555 1_555
C10_2 H5_2 1_555 1_555
C11_2 C1_2 1_555 1_555
C14_2 C1_2 1_555 1_555
C15_2 C14_2 1_555 1_555
H6_2 C15_2 1_555 1_555
C16_2 C15_2 1_555 1_555
H7_2 C16_2 1_555 1_555
C18_2 C17_2 1_555 1_555
H8_2 C18_2 1_555 1_555
C19_2 C14_2 1_555 1_555
H9_2 C19_2 1_555 1_555
Cu1_2 O1_2 1_555 1_555
O5_2 Cu1_2 1_555 1_555
N1_2 C2_2 1_555 1_555
N2_2 C11_2 1_555 1_555
Cu4_2 N1_2 1_555 1_555
C22_2 C23_2 1_555 1_555
C23_2 C30_2 1_555 1_555
C30_2 H15_2 1_555 1_555
C31_2 C10_2 1_555 1_555
H16_2 C31_2 1_555 1_555
C32_2 N2_2 1_555 1_555
C35_2 C22_2 1_555 1_555
C36_2 C35_2 1_555 1_555
H17_2 C36_2 1_555 1_555
C37_2 C36_2 1_555 1_555
H18_2 C37_2 1_555 1_555
C39_2 C38_2 1_555 1_555
H19_2 C39_2 1_555 1_555
C40_2 C35_2 1_555 1_555
H20_2 C40_2 1_555 1_555
N3_2 Cu4_2 1_555 1_555
O33 C52_2 1_555 1_555
O36 C52_2 1_555 1_555
O18_2 C53_2 1_555 1_555
O19_2 C53_2 1_555 1_555
C41_2 C42_2 1_555 1_555
C42_2 N1_2 1_555 1_555
C43_2 C44_2 1_555 1_555
C44_2 H21_2 1_555 1_555
C45_2 C44_2 1_555 1_555
C46_2 C45_2 1_555 1_555
H22_2 C46_2 1_555 1_555
C47_2 C46_2 1_555 1_555
C48_2 C43_2 1_555 1_555
H23_2 C48_2 1_555 1_555
C49_2 C9_2 1_555 1_555
H24_2 C49_2 1_555 1_555
C50_2 H25_2 1_555 1_555
C51_2 C41_2 1_555 1_555
C52_2 C47_2 1_555 1_555
C53_2 C45_2 1_555 1_555
C54_2 C41_2 1_555 1_555
C55_2 C54_2 1_555 1_555
H26_2 C55_2 1_555 1_555
C56_2 C55_2 1_555 1_555
H27_2 C56_2 1_555 1_555
C57_2 C43_2 1_555 1_555
C58_2 C57_2 1_555 1_555
H28_2 C58_2 1_555 1_555
C59_2 C54_2 1_555 1_555
H29_2 C59_2 1_555 1_555
N4_2 Cu4_2 1_555 1_555
O20_2 C71_2 1_555 1_555
O21_2 C71_2 1_555 1_555
O22_2 C72_2 1_555 1_555
O23_2 C72_2 1_555 1_555
C60_2 C61_2 1_555 1_555
C61_2 N3_2 1_555 1_555
C62_2 C63_2 1_555 1_555
C63_2 H30_2 1_555 1_555
C64_2 C63_2 1_555 1_555
C65_2 C64_2 1_555 1_555
H31_2 C65_2 1_555 1_555
C66_2 C65_2 1_555 1_555
C67_2 C62_2 1_555 1_555
H32_2 C67_2 1_555 1_555
C68_2 C30_2 1_555 1_555
H33_2 C68_2 1_555 1_555
C69_2 C50_2 1_555 1_555
H34_2 C69_2 1_555 1_555
C70_2 N4_2 1_555 1_555
C71_2 C66_2 1_555 1_555
C72_2 C64_2 1_555 1_555
C73_2 C60_2 1_555 1_555
C74_2 C73_2 1_555 1_555
H35_2 C74_2 1_555 1_555
C75_2 C74_2 1_555 1_555
H36_2 C75_2 1_555 1_555
C76_2 C62_2 1_555 1_555
C77_2 C76_2 1_555 1_555
H37_2 C77_2 1_555 1_555
C78_2 C73_2 1_555 1_555
H38_2 C78_2 1_555 1_555
Cu5_2 O19_2 1_555 1_555
Cu6_2 O18_2 1_555 1_555
O24_2 Cu5_2 1_555 1_555
O25_2 Cu6_2 1_555 1_555
O26_2 Cu6_2 1_555 1_555
C79_2 O25_2 1_555 1_555
H39_2 C79_2 1_555 1_555
C80_2 O24_2 1_555 1_555
H40_2 C80_2 1_555 1_555
O27_2 Cu5_2 1_555 1_555
O28_2 Cu5_2 1_555 1_555
O29_2 Cu6_2 1_555 1_555
O33_2 Cu1_2 1_555 1_555
O34_2 Cu1_2 1_555 1_555
O35_2 Cu1_2 1_555 1_555
O37_2 Cu6_2 1_555 1_555
O39_2 Cu5_2 1_555 1_555
Cu12_2 O12_2 1_555 1_555
Cu12 O20_2 1_555 1_555
Cu14_2 O23_2 1_555 1_555
Cu16_2 O22_2 1_555 1_555
C10_2 C11_2 1_555 1_555
C16_2 C17_2 1_555 1_555
C18_2 C19_2 1_555 1_555
N2_2 Cu4_2 1_555 1_555
C22_2 C32_2 1_555 1_555
C23_2 N3_2 1_555 1_555
C31_2 C32_2 1_555 1_555
C37_2 C38_2 1_555 1_555
C39_2 C40_2 1_555 1_555
C42_2 C49_2 1_555 1_555
C47_2 C48_2 1_555 1_555
C50_2 C51_2 1_555 1_555
C51_2 N4_2 1_555 1_555
C56_2 C57_2 1_555 1_555
C58_2 C59_2 1_555 1_555
C60_2 C70_2 1_555 1_555
C61_2 C68_2 1_555 1_555
C66_2 C67_2 1_555 1_555
C69_2 C70_2 1_555 1_555
C75_2 C76_2 1_555 1_555
C77_2 C78_2 1_555 1_555
C79_2 O28_2 1_555 1_555
C80_2 O29_2 1_555 1_555
O36_2 C52_3 1_555 1_555
O38 C53_3 1_555 1_555
O40 C53_3 1_555 1_555
C43_3 C44_3 1_555 1_555
C44_3 H21_3 1_555 1_555
C45_3 C44_3 1_555 1_555
C46_3 C45_3 1_555 1_555
H22_3 C46_3 1_555 1_555
C47_3 C46_3 1_555 1_555
C48_3 C43_3 1_555 1_555
C52_3 C47_3 1_555 1_555
C53_3 C45_3 1_555 1_555
O21_3 C71_3 1_555 1_555
O22_3 C72_3 1_555 1_555
O23_3 C72_3 1_555 1_555
C62_3 C63_3 1_555 1_555
C63_3 H30_3 1_555 1_555
C64_3 C63_3 1_555 1_555
C65_3 C64_3 1_555 1_555
H31_3 C65_3 1_555 1_555
C66_3 C65_3 1_555 1_555
C67_3 C62_3 1_555 1_555
C71_3 C66_3 1_555 1_555
C72_3 C64_3 1_555 1_555
Cu15 O23_3 1_555 1_555
Cu17 O22_3 1_555 1_555
C47_3 C48_3 1_555 1_555
C66_3 C67_3 1_555 1_555
C1_3 C2_3 1_555 1_555
C2_3 C9_3 1_555 1_555
C9_3 H4_3 1_555 1_555
C10_3 H5_3 1_555 1_555
C11_3 C1_3 1_555 1_555
C14_3 C1_3 1_555 1_555
C15_3 C14_3 1_555 1_555
H6_3 C15_3 1_555 1_555
C16_3 C15_3 1_555 1_555
H7_3 C16_3 1_555 1_555
C18_3 C17_3 1_555 1_555
H8_3 C18_3 1_555 1_555
C19_3 C14_3 1_555 1_555
H9_3 C19_3 1_555 1_555
Cu8 O1_3 1_555 1_555
O5_3 Cu8 1_555 1_555
N1_3 C2_3 1_555 1_555
N2_3 C11_3 1_555 1_555
Cu4_3 N1_3 1_555 1_555
C22_3 C23_3 1_555 1_555
C23_3 C30_3 1_555 1_555
C30_3 H15_3 1_555 1_555
C31_3 C10_3 1_555 1_555
H16_3 C31_3 1_555 1_555
C32_3 N2_3 1_555 1_555
C35_3 C22_3 1_555 1_555
C36_3 C35_3 1_555 1_555
H17_3 C36_3 1_555 1_555
C37_3 C36_3 1_555 1_555
H18_3 C37_3 1_555 1_555
C39_3 C38_3 1_555 1_555
H19_3 C39_3 1_555 1_555
C40_3 C35_3 1_555 1_555
H20_3 C40_3 1_555 1_555
N3_3 Cu4_3 1_555 1_555
C41_3 C42_3 1_555 1_555
C42_3 N1_3 1_555 1_555
C49_3 C9_3 1_555 1_555
H24_3 C49_3 1_555 1_555
C50_3 H25_3 1_555 1_555
C51_3 C41_3 1_555 1_555
C54_3 C41_3 1_555 1_555
C55_3 C54_3 1_555 1_555
H26_3 C55_3 1_555 1_555
C56_3 C55_3 1_555 1_555
H27_3 C56_3 1_555 1_555
C58_3 C57_3 1_555 1_555
H28_3 C58_3 1_555 1_555
C59_3 C54_3 1_555 1_555
H29_3 C59_3 1_555 1_555
N4_3 Cu4_3 1_555 1_555
C60_3 C61_3 1_555 1_555
C61_3 N3_3 1_555 1_555
C68_3 C30_3 1_555 1_555
H33_3 C68_3 1_555 1_555
C69_3 C50_3 1_555 1_555
H34_3 C69_3 1_555 1_555
C70_3 N4_3 1_555 1_555
C73_3 C60_3 1_555 1_555
C74_3 C73_3 1_555 1_555
H35_3 C74_3 1_555 1_555
C75_3 C74_3 1_555 1_555
H36_3 C75_3 1_555 1_555
C77_3 C76_3 1_555 1_555
H37_3 C77_3 1_555 1_555
C78_3 C73_3 1_555 1_555
H38_3 C78_3 1_555 1_555
O34_3 Cu8 1_555 1_555
O35_3 Cu8 1_555 1_555
Cu13 O12_3 1_555 1_555
Cu12_2 O20_3 1_555 1_555
C10_3 C11_3 1_555 1_555
C16_3 C17_3 1_555 1_555
C18_3 C19_3 1_555 1_555
N2_3 Cu4_3 1_555 1_555
C22_3 C32_3 1_555 1_555
C23_3 N3_3 1_555 1_555
C31_3 C32_3 1_555 1_555
C37_3 C38_3 1_555 1_555
C39_3 C40_3 1_555 1_555
C42_3 C49_3 1_555 1_555
C50_3 C51_3 1_555 1_555
C51_3 N4_3 1_555 1_555
C56_3 C57_3 1_555 1_555
C58_3 C59_3 1_555 1_555
C60_3 C70_3 1_555 1_555
C61_3 C68_3 1_555 1_555
C69_3 C70_3 1_555 1_555
C75_3 C76_3 1_555 1_555
C77_3 C78_3 1_555 1_555
O2_3 C12_3 1_555 1_555
O37_2 C13_3 1_555 1_555
O39_2 C13_3 1_555 1_555
C3_3 C4_3 1_555 1_555
C4_3 H1_3 1_555 1_555
C5_3 C4_3 1_555 1_555
C6_3 C5_3 1_555 1_555
H2_3 C6_3 1_555 1_555
C7_3 C6_3 1_555 1_555
C8_3 C3_3 1_555 1_555
C12_3 C7_3 1_555 1_555
C13_3 C5_3 1_555 1_555
O13_3 C33_3 1_555 1_555
O14_3 C34_3 1_555 1_555
O15_3 C34_3 1_555 1_555
C24_3 C25_3 1_555 1_555
C25_3 H12_3 1_555 1_555
C26_3 C25_3 1_555 1_555
C27_3 C26_3 1_555 1_555
H13_3 C27_3 1_555 1_555
C28_3 C27_3 1_555 1_555
C29_3 C24_3 1_555 1_555
C33_3 C28_3 1_555 1_555
C34_3 C26_3 1_555 1_555
Cu11 O2_3 1_555 1_555
O30_3 Cu11 1_555 1_555
O31_3 Cu11 1_555 1_555
O32_3 Cu11 1_555 1_555
Cu14_2 O15_3 1_555 1_555
Cu16_2 O14_3 1_555 1_555
C7_3 C8_3 1_555 1_555
C28_3 C29_3 1_555 1_555
O17_2 C52_4 1_555 1_555
O18_3 C53_4 1_555 1_555
O19_3 C53_4 1_555 1_555
C43_4 C44_4 1_555 1_555
C44_4 H21_4 1_555 1_555
C45_4 C44_4 1_555 1_555
C46_4 C45_4 1_555 1_555
H22_4 C46_4 1_555 1_555
C47_4 C46_4 1_555 1_555
C48_4 C43_4 1_555 1_555
C52_4 C47_4 1_555 1_555
C53_4 C45_4 1_555 1_555
O34_3 C71_4 1_555 1_555
O22_4 C72_4 1_555 1_555
O23_4 C72_4 1_555 1_555
C62_4 C63_4 1_555 1_555
C63_4 H30_4 1_555 1_555
C64_4 C63_4 1_555 1_555
C65_4 C64_4 1_555 1_555
H31_4 C65_4 1_555 1_555
C66_4 C65_4 1_555 1_555
C67_4 C62_4 1_555 1_555
C71_4 C66_4 1_555 1_555
C72_4 C64_4 1_555 1_555
Cu5_3 O19_3 1_555 1_555
Cu6_3 O18_3 1_555 1_555
O24_3 Cu5_3 1_555 1_555
O25_3 Cu6_3 1_555 1_555
O26_3 Cu6_3 1_555 1_555
C79_3 O25_3 1_555 1_555
H39_3 C79_3 1_555 1_555
C80_3 O24_3 1_555 1_555
H40_3 C80_3 1_555 1_555
O27_3 Cu5_3 1_555 1_555
O28_3 Cu5_3 1_555 1_555
O29_3 Cu6_3 1_555 1_555
O37_3 Cu6_3 1_555 1_555
O39_3 Cu5_3 1_555 1_555
Cu14_3 O23_4 1_555 1_555
Cu16_3 O22_4 1_555 1_555
C47_4 C48_4 1_555 1_555
C66_4 C67_4 1_555 1_555
C79_3 O28_3 1_555 1_555
C80_3 O29_3 1_555 1_555
O1_4 C12_4 1_555 1_555
O2_4 C12_4 1_555 1_555
O3_2 C13_4 1_555 1_555
O4_2 C13_4 1_555 1_555
C1_4 C2_4 1_555 1_555
C2_4 C9_4 1_555 1_555
C3_4 C4_4 1_555 1_555
C4_4 H1_4 1_555 1_555
C5_4 C4_4 1_555 1_555
C6_4 C5_4 1_555 1_555
H2_4 C6_4 1_555 1_555
C7_4 C6_4 1_555 1_555
C8_4 C3_4 1_555 1_555
H3_4 C8_4 1_555 1_555
C9_4 H4_4 1_555 1_555
C10_4 H5_4 1_555 1_555
C11_4 C1_4 1_555 1_555
C12_4 C7_4 1_555 1_555
C13_4 C5_4 1_555 1_555
C14_4 C1_4 1_555 1_555
C15_4 C14_4 1_555 1_555
H6_4 C15_4 1_555 1_555
C16_4 C15_4 1_555 1_555
H7_4 C16_4 1_555 1_555
C17_4 C3_4 1_555 1_555
C18_4 C17_4 1_555 1_555
H8_4 C18_4 1_555 1_555
C19_4 C14_4 1_555 1_555
H9_4 C19_4 1_555 1_555
Cu9 O1_4 1_555 1_555
O5_4 Cu9 1_555 1_555
Cu2_2 O4_2 1_555 1_555
Cu3_2 O3_2 1_555 1_555
O6_2 Cu2_2 1_555 1_555
O7_2 Cu3_2 1_555 1_555
O8_2 Cu3_2 1_555 1_555
C20_2 O7_2 1_555 1_555
H10_2 C20_2 1_555 1_555
C21_2 O6_2 1_555 1_555
H11_2 C21_2 1_555 1_555
O9_2 Cu2_2 1_555 1_555
O10_2 Cu2_2 1_555 1_555
O11_2 Cu3_2 1_555 1_555
N1_4 C2_4 1_555 1_555
N2_4 C11_4 1_555 1_555
Cu4_4 N1_4 1_555 1_555
O32 C33_4 1_555 1_555
O35 C33_4 1_555 1_555
O14_4 C34_4 1_555 1_555
O15_4 C34_4 1_555 1_555
C22_4 C23_4 1_555 1_555
C23_4 C30_4 1_555 1_555
C24_4 C25_4 1_555 1_555
C25_4 H12_4 1_555 1_555
C26_4 C25_4 1_555 1_555
C27_4 C26_4 1_555 1_555
H13_4 C27_4 1_555 1_555
C28_4 C27_4 1_555 1_555
C29_4 C24_4 1_555 1_555
H14_4 C29_4 1_555 1_555
C30_4 H15_4 1_555 1_555
C31_4 C10_4 1_555 1_555
H16_4 C31_4 1_555 1_555
C32_4 N2_4 1_555 1_555
C33_4 C28_4 1_555 1_555
C34_4 C26_4 1_555 1_555
C35_4 C22_4 1_555 1_555
C36_4 C35_4 1_555 1_555
H17_4 C36_4 1_555 1_555
C37_4 C36_4 1_555 1_555
H18_4 C37_4 1_555 1_555
C38_4 C24_4 1_555 1_555
C39_4 C38_4 1_555 1_555
H19_4 C39_4 1_555 1_555
C40_4 C35_4 1_555 1_555
H20_4 C40_4 1_555 1_555
N3_4 Cu4_4 1_555 1_555
C41_4 C42_4 1_555 1_555
C42_4 N1_4 1_555 1_555
C49_4 C9_4 1_555 1_555
H24_4 C49_4 1_555 1_555
C50_4 H25_4 1_555 1_555
C51_4 C41_4 1_555 1_555
C54_4 C41_4 1_555 1_555
C55_4 C54_4 1_555 1_555
H26_4 C55_4 1_555 1_555
C56_4 C55_4 1_555 1_555
H27_4 C56_4 1_555 1_555
C58_4 C57_4 1_555 1_555
H28_4 C58_4 1_555 1_555
C59_4 C54_4 1_555 1_555
H29_4 C59_4 1_555 1_555
N4_4 Cu4_4 1_555 1_555
C60_4 C61_4 1_555 1_555
C61_4 N3_4 1_555 1_555
C68_4 C30_4 1_555 1_555
H33_4 C68_4 1_555 1_555
C69_4 C50_4 1_555 1_555
H34_4 C69_4 1_555 1_555
C70_4 N4_4 1_555 1_555
C73_4 C60_4 1_555 1_555
C74_4 C73_4 1_555 1_555
H35_4 C74_4 1_555 1_555
C75_4 C74_4 1_555 1_555
H36_4 C75_4 1_555 1_555
C77_4 C76_4 1_555 1_555
H37_4 C77_4 1_555 1_555
C78_4 C73_4 1_555 1_555
H38_4 C78_4 1_555 1_555
O33_3 Cu9 1_555 1_555
O38_2 Cu3_2 1_555 1_555
O40_2 Cu2_2 1_555 1_555
Cu10 O16_2 1_555 1_555
Cu15_2 O15_4 1_555 1_555
Cu17_2 O14_4 1_555 1_555
C7_4 C8_4 1_555 1_555
C10_4 C11_4 1_555 1_555
C16_4 C17_4 1_555 1_555
C18_4 C19_4 1_555 1_555
C20_2 O10_2 1_555 1_555
C21_2 O11_2 1_555 1_555
N2_4 Cu4_4 1_555 1_555
C22_4 C32_4 1_555 1_555
C23_4 N3_4 1_555 1_555
C28_4 C29_4 1_555 1_555
C31_4 C32_4 1_555 1_555
C37_4 C38_4 1_555 1_555
C39_4 C40_4 1_555 1_555
C42_4 C49_4 1_555 1_555
C50_4 C51_4 1_555 1_555
C51_4 N4_4 1_555 1_555
C56_4 C57_4 1_555 1_555
C58_4 C59_4 1_555 1_555
C60_4 C70_4 1_555 1_555
C61_4 C68_4 1_555 1_555
C69_4 C70_4 1_555 1_555
C75_4 C76_4 1_555 1_555
C77_4 C78_4 1_555 1_555
O30_4 Cu12 1_555 1_555
C1_5 C2_5 1_555 1_555
C2_5 C9_5 1_555 1_555
C9_5 H4_5 1_555 1_555
C10_5 H5_5 1_555 1_555
C11_5 C1_5 1_555 1_555
C14_5 C1_5 1_555 1_555
C15_5 C14_5 1_555 1_555
H6_5 C15_5 1_555 1_555
C16_5 C15_5 1_555 1_555
H7_5 C16_5 1_555 1_555
C18_5 C17_5 1_555 1_555
H8_5 C18_5 1_555 1_555
C19_5 C14_5 1_555 1_555
H9_5 C19_5 1_555 1_555
Cu9_2 O1_5 1_555 1_555
O5_5 Cu9_2 1_555 1_555
N1_5 C2_5 1_555 1_555
N2_5 C11_5 1_555 1_555
Cu4_5 N1_5 1_555 1_555
C22_5 C23_5 1_555 1_555
C23_5 C30_5 1_555 1_555
C30_5 H15_5 1_555 1_555
C31_5 C10_5 1_555 1_555
H16_5 C31_5 1_555 1_555
C32_5 N2_5 1_555 1_555
C35_5 C22_5 1_555 1_555
C36_5 C35_5 1_555 1_555
H17_5 C36_5 1_555 1_555
C37_5 C36_5 1_555 1_555
H18_5 C37_5 1_555 1_555
C39_5 C38_5 1_555 1_555
H19_5 C39_5 1_555 1_555
C40_5 C35_5 1_555 1_555
H20_5 C40_5 1_555 1_555
N3_5 Cu4_5 1_555 1_555
O33_3 C52_5 1_555 1_555
O36_3 C52_5 1_555 1_555
O18_4 C53_5 1_555 1_555
O19_4 C53_5 1_555 1_555
C41_5 C42_5 1_555 1_555
C42_5 N1_5 1_555 1_555
C43_5 C44_5 1_555 1_555
C44_5 H21_5 1_555 1_555
C45_5 C44_5 1_555 1_555
C46_5 C45_5 1_555 1_555
H22_5 C46_5 1_555 1_555
C47_5 C46_5 1_555 1_555
C48_5 C43_5 1_555 1_555
H23_5 C48_5 1_555 1_555
C49_5 C9_5 1_555 1_555
H24_5 C49_5 1_555 1_555
C50_5 H25_5 1_555 1_555
C51_5 C41_5 1_555 1_555
C52_5 C47_5 1_555 1_555
C53_5 C45_5 1_555 1_555
C54_5 C41_5 1_555 1_555
C55_5 C54_5 1_555 1_555
H26_5 C55_5 1_555 1_555
C56_5 C55_5 1_555 1_555
H27_5 C56_5 1_555 1_555
C57_5 C43_5 1_555 1_555
C58_5 C57_5 1_555 1_555
H28_5 C58_5 1_555 1_555
C59_5 C54_5 1_555 1_555
H29_5 C59_5 1_555 1_555
N4_5 Cu4_5 1_555 1_555
O31 C71_5 1_555 1_555
O34 C71_5 1_555 1_555
O22_5 C72_5 1_555 1_555
O23_5 C72_5 1_555 1_555
C60_5 C61_5 1_555 1_555
C61_5 N3_5 1_555 1_555
C62_5 C63_5 1_555 1_555
C63_5 H30_5 1_555 1_555
C64_5 C63_5 1_555 1_555
C65_5 C64_5 1_555 1_555
H31_5 C65_5 1_555 1_555
C66_5 C65_5 1_555 1_555
C67_5 C62_5 1_555 1_555
H32_5 C67_5 1_555 1_555
C68_5 C30_5 1_555 1_555
H33_5 C68_5 1_555 1_555
C69_5 C50_5 1_555 1_555
H34_5 C69_5 1_555 1_555
C70_5 N4_5 1_555 1_555
C71_5 C66_5 1_555 1_555
C72_5 C64_5 1_555 1_555
C73_5 C60_5 1_555 1_555
C74_5 C73_5 1_555 1_555
H35_5 C74_5 1_555 1_555
C75_5 C74_5 1_555 1_555
H36_5 C75_5 1_555 1_555
C76_5 C62_5 1_555 1_555
C77_5 C76_5 1_555 1_555
H37_5 C77_5 1_555 1_555
C78_5 C73_5 1_555 1_555
H38_5 C78_5 1_555 1_555
Cu5_4 O19_4 1_555 1_555
Cu6_4 O18_4 1_555 1_555
O24_4 Cu5_4 1_555 1_555
O25_4 Cu6_4 1_555 1_555
O26_4 Cu6_4 1_555 1_555
C79_4 O25_4 1_555 1_555
H39_4 C79_4 1_555 1_555
C80_4 O24_4 1_555 1_555
H40_4 C80_4 1_555 1_555
O27_4 Cu5_4 1_555 1_555
O28_4 Cu5_4 1_555 1_555
O29_4 Cu6_4 1_555 1_555
O33_4 Cu9_2 1_555 1_555
O37_4 Cu6_4 1_555 1_555
O39_4 Cu5_4 1_555 1_555
Cu14_4 O23_5 1_555 1_555
Cu16_4 O22_5 1_555 1_555
C10_5 C11_5 1_555 1_555
C16_5 C17_5 1_555 1_555
C18_5 C19_5 1_555 1_555
N2_5 Cu4_5 1_555 1_555
C22_5 C32_5 1_555 1_555
C23_5 N3_5 1_555 1_555
C31_5 C32_5 1_555 1_555
C37_5 C38_5 1_555 1_555
C39_5 C40_5 1_555 1_555
C42_5 C49_5 1_555 1_555
C47_5 C48_5 1_555 1_555
C50_5 C51_5 1_555 1_555
C51_5 N4_5 1_555 1_555
C56_5 C57_5 1_555 1_555
C58_5 C59_5 1_555 1_555
C60_5 C70_5 1_555 1_555
C61_5 C68_5 1_555 1_555
C66_5 C67_5 1_555 1_555
C69_5 C70_5 1_555 1_555
C75_5 C76_5 1_555 1_555
C77_5 C78_5 1_555 1_555
C79_4 O28_4 1_555 1_555
C80_4 O29_4 1_555 1_555
O2_5 C12_5 1_555 1_555
O37_3 C13_5 1_555 1_555
O39_3 C13_5 1_555 1_555
C3_5 C4_5 1_555 1_555
C4_5 H1_5 1_555 1_555
C5_5 C4_5 1_555 1_555
C6_5 C5_5 1_555 1_555
H2_5 C6_5 1_555 1_555
C7_5 C6_5 1_555 1_555
C8_5 C3_5 1_555 1_555
C12_5 C7_5 1_555 1_555
C13_5 C5_5 1_555 1_555
O35_2 C33_5 1_555 1_555
O14_5 C34_5 1_555 1_555
O15_5 C34_5 1_555 1_555
C24_5 C25_5 1_555 1_555
C25_5 H12_5 1_555 1_555
C26_5 C25_5 1_555 1_555
C27_5 C26_5 1_555 1_555
H13_5 C27_5 1_555 1_555
C28_5 C27_5 1_555 1_555
C29_5 C24_5 1_555 1_555
C33_5 C28_5 1_555 1_555
C34_5 C26_5 1_555 1_555
Cu14_3 O15_5 1_555 1_555
Cu16_3 O14_5 1_555 1_555
C7_5 C8_5 1_555 1_555
C28_5 C29_5 1_555 1_555
O30_5 Cu12_2 1_555 1_555
O2_6 C12_6 1_555 1_555
O37_4 C13_6 1_555 1_555
O39_4 C13_6 1_555 1_555
C3_6 C4_6 1_555 1_555
C4_6 H1_6 1_555 1_555
C5_6 C4_6 1_555 1_555
C6_6 C5_6 1_555 1_555
H2_6 C6_6 1_555 1_555
C7_6 C6_6 1_555 1_555
C8_6 C3_6 1_555 1_555
C12_6 C7_6 1_555 1_555
C13_6 C5_6 1_555 1_555
O35_3 C33_6 1_555 1_555
O14_6 C34_6 1_555 1_555
O15_6 C34_6 1_555 1_555
C24_6 C25_6 1_555 1_555
C25_6 H12_6 1_555 1_555
C26_6 C25_6 1_555 1_555
C27_6 C26_6 1_555 1_555
H13_6 C27_6 1_555 1_555
C28_6 C27_6 1_555 1_555
C29_6 C24_6 1_555 1_555
C33_6 C28_6 1_555 1_555
C34_6 C26_6 1_555 1_555
Cu14_4 O15_6 1_555 1_555
Cu16_4 O14_6 1_555 1_555
C7_6 C8_6 1_555 1_555
C28_6 C29_6 1_555 1_555
O30_6 Cu13 1_555 1_555
C1_6 C2_6 1_555 1_555
C2_6 C9_6 1_555 1_555
C9_6 H4_6 1_555 1_555
C10_6 H5_6 1_555 1_555
C11_6 C1_6 1_555 1_555
C14_6 C1_6 1_555 1_555
C15_6 C14_6 1_555 1_555
H6_6 C15_6 1_555 1_555
C16_6 C15_6 1_555 1_555
H7_6 C16_6 1_555 1_555
C18_6 C17_6 1_555 1_555
H8_6 C18_6 1_555 1_555
C19_6 C14_6 1_555 1_555
H9_6 C19_6 1_555 1_555
Cu10 O1_6 1_555 1_555
O5_6 Cu10 1_555 1_555
N1_6 C2_6 1_555 1_555
N2_6 C11_6 1_555 1_555
Cu4_6 N1_6 1_555 1_555
C22_6 C23_6 1_555 1_555
C23_6 C30_6 1_555 1_555
C30_6 H15_6 1_555 1_555
C31_6 C10_6 1_555 1_555
H16_6 C31_6 1_555 1_555
C32_6 N2_6 1_555 1_555
C35_6 C22_6 1_555 1_555
C36_6 C35_6 1_555 1_555
H17_6 C36_6 1_555 1_555
C37_6 C36_6 1_555 1_555
H18_6 C37_6 1_555 1_555
C39_6 C38_6 1_555 1_555
H19_6 C39_6 1_555 1_555
C40_6 C35_6 1_555 1_555
H20_6 C40_6 1_555 1_555
N3_6 Cu4_6 1_555 1_555
C41_6 C42_6 1_555 1_555
C42_6 N1_6 1_555 1_555
C49_6 C9_6 1_555 1_555
H24_6 C49_6 1_555 1_555
C50_6 H25_6 1_555 1_555
C51_6 C41_6 1_555 1_555
C54_6 C41_6 1_555 1_555
C55_6 C54_6 1_555 1_555
H26_6 C55_6 1_555 1_555
C56_6 C55_6 1_555 1_555
H27_6 C56_6 1_555 1_555
C58_6 C57_6 1_555 1_555
H28_6 C58_6 1_555 1_555
C59_6 C54_6 1_555 1_555
H29_6 C59_6 1_555 1_555
N4_6 Cu4_6 1_555 1_555
C60_6 C61_6 1_555 1_555
C61_6 N3_6 1_555 1_555
C68_6 C30_6 1_555 1_555
H33_6 C68_6 1_555 1_555
C69_6 C50_6 1_555 1_555
H34_6 C69_6 1_555 1_555
C70_6 N4_6 1_555 1_555
C73_6 C60_6 1_555 1_555
C74_6 C73_6 1_555 1_555
H35_6 C74_6 1_555 1_555
C75_6 C74_6 1_555 1_555
H36_6 C75_6 1_555 1_555
C77_6 C76_6 1_555 1_555
H37_6 C77_6 1_555 1_555
C78_6 C73_6 1_555 1_555
H38_6 C78_6 1_555 1_555
C10_6 C11_6 1_555 1_555
C16_6 C17_6 1_555 1_555
C18_6 C19_6 1_555 1_555
N2_6 Cu4_6 1_555 1_555
C22_6 C32_6 1_555 1_555
C23_6 N3_6 1_555 1_555
C31_6 C32_6 1_555 1_555
C37_6 C38_6 1_555 1_555
C39_6 C40_6 1_555 1_555
C42_6 C49_6 1_555 1_555
C50_6 C51_6 1_555 1_555
C51_6 N4_6 1_555 1_555
C56_6 C57_6 1_555 1_555
C58_6 C59_6 1_555 1_555
C60_6 C70_6 1_555 1_555
C61_6 C68_6 1_555 1_555
C69_6 C70_6 1_555 1_555
C75_6 C76_6 1_555 1_555
C77_6 C78_6 1_555 1_555
O36_4 C52_6 1_555 1_555
O38_2 C53_6 1_555 1_555
O40_2 C53_6 1_555 1_555
C43_6 C44_6 1_555 1_555
C44_6 H21_6 1_555 1_555
C45_6 C44_6 1_555 1_555
C46_6 C45_6 1_555 1_555
H22_6 C46_6 1_555 1_555
C47_6 C46_6 1_555 1_555
C48_6 C43_6 1_555 1_555
C52_6 C47_6 1_555 1_555
C53_6 C45_6 1_555 1_555
O34_2 C71_6 1_555 1_555
O22_6 C72_6 1_555 1_555
O23_6 C72_6 1_555 1_555
C62_6 C63_6 1_555 1_555
C63_6 H30_6 1_555 1_555
C64_6 C63_6 1_555 1_555
C65_6 C64_6 1_555 1_555
H31_6 C65_6 1_555 1_555
C66_6 C65_6 1_555 1_555
C67_6 C62_6 1_555 1_555
C71_6 C66_6 1_555 1_555
C72_6 C64_6 1_555 1_555
Cu15_2 O23_6 1_555 1_555
Cu17_2 O22_6 1_555 1_555
C47_6 C48_6 1_555 1_555
C66_6 C67_6 1_555 1_555
O6_3 Cu14_4 1_555 1_555
O7_3 Cu16_4 1_555 1_555
O8_3 Cu16_4 1_555 1_555
C20_3 O7_3 1_555 1_555
H10_3 C20_3 1_555 1_555
C21_3 O6_3 1_555 1_555
H11_3 C21_3 1_555 1_555
O9_3 Cu14_4 1_555 1_555
O10_3 Cu14_4 1_555 1_555
O11_3 Cu16_4 1_555 1_555
C20_3 O10_3 1_555 1_555
C21_3 O11_3 1_555 1_555
O24_5 Cu14_3 1_555 1_555
O25_5 Cu16_3 1_555 1_555
O26_5 Cu16_3 1_555 1_555
C79_5 O25_5 1_555 1_555
H39_5 C79_5 1_555 1_555
C80_5 O24_5 1_555 1_555
H40_5 C80_5 1_555 1_555
O27_5 Cu14_3 1_555 1_555
O28_5 Cu14_3 1_555 1_555
O29_5 Cu16_3 1_555 1_555
C79_5 O28_5 1_555 1_555
C80_5 O29_5 1_555 1_555
O24_6 Cu15_2 1_555 1_555
O25_6 Cu17_2 1_555 1_555
O26_6 Cu17_2 1_555 1_555
C79_6 O25_6 1_555 1_555
H39_6 C79_6 1_555 1_555
C80_6 O24_6 1_555 1_555
H40_6 C80_6 1_555 1_555
O27_6 Cu15_2 1_555 1_555
O28_6 Cu15_2 1_555 1_555
O29_6 Cu17_2 1_555 1_555
C79_6 O28_6 1_555 1_555
C80_6 O29_6 1_555 1_555
O24_7 Cu14 1_555 1_555
O25_7 Cu16 1_555 1_555
O26_7 Cu16 1_555 1_555
C79_7 O25_7 1_555 1_555
H39_7 C79_7 1_555 1_555
C80_7 O24_7 1_555 1_555
H40_7 C80_7 1_555 1_555
O27_7 Cu14 1_555 1_555
O28_7 Cu14 1_555 1_555
O29_7 Cu16 1_555 1_555
C79_7 O28_7 1_555 1_555
C80_7 O29_7 1_555 1_555
O6_4 Cu14_2 1_555 1_555
O7_4 Cu16_2 1_555 1_555
O8_4 Cu16_2 1_555 1_555
C20_4 O7_4 1_555 1_555
H10_4 C20_4 1_555 1_555
C21_4 O6_4 1_555 1_555
H11_4 C21_4 1_555 1_555
O9_4 Cu14_2 1_555 1_555
O10_4 Cu14_2 1_555 1_555
O11_4 Cu16_2 1_555 1_555
C20_4 O10_4 1_555 1_555
C21_4 O11_4 1_555 1_555
O24_8 Cu15 1_555 1_555
O25_8 Cu17 1_555 1_555
O26_8 Cu17 1_555 1_555
C79_8 O25_8 1_555 1_555
H39_8 C79_8 1_555 1_555
C80_8 O24_8 1_555 1_555
H40_8 C80_8 1_555 1_555
O27_8 Cu15 1_555 1_555
O28_8 Cu15 1_555 1_555
O29_8 Cu17 1_555 1_555
C79_8 O28_8 1_555 1_555
C80_8 O29_8 1_555 1_555

#END
