
###############################################################################
#
# This file contains modified crystal structure data generated from the
# MOF subset of the Cambridge Structural Database (CSD) v543 
# hosted by the Cambridge Crystallographic Data Centre (CCDC).
#
# This work is licensed under the Creative Commons
# Attribution-NonCommercial-ShareAlike 4.0 International License.
# To view a copy of this license, visit
# http://creativecommons.org/licenses/by-nc-sa/4.0/
# or send a letter to
# Creative Commons, PO Box 1866, Mountain View, CA 94042, USA.
#
# CIF created using the CSD Python API on 29 September 2022
# The structure has been converted into the P1 space group
# The structure has a 3D framework
# The original CSD entry BIPXOQ is in the monoclinic crystal system
# The framework has been calculated to contain at least 10.0% void space
# The void calculation uses a probe of radius 1.32A, grid spacing 0.4
#
###############################################################################

data_BIPXOQ
_chemical_formula_moiety         '(C120 H120 Co15 N24 O68 S8)n'
_symmetry_cell_setting           triclinic
_symmetry_space_group_name_H-M   'P 1'
_symmetry_Int_Tables_number      1
_space_group_name_Hall           'P 1'
loop_
_symmetry_equiv_pos_site_id
_symmetry_equiv_pos_as_xyz
1 x,y,z
_cell_length_a                   16.075
_cell_length_b                   18.529
_cell_length_c                   17.861
_cell_angle_alpha                90
_cell_angle_beta                 90.47
_cell_angle_gamma                90
_cell_volume                     5319.79
loop_
_atom_site_label
_atom_site_type_symbol
_atom_site_fract_x
_atom_site_fract_y
_atom_site_fract_z
Co9 Co 0.35613(4) 0.02714(3) 0.02163(4)
Co1 Co 0.14514(3) 0.02965(3) 0.48297(4)
C1 C 0.3663(3) 0.3132(3) 0.5075(3)
C2 C 0.3194(3) 0.2430(3) 0.5098(4)
C3 C 0.2446(3) 0.2396(3) 0.5464(4)
H1 H 0.2241 0.2801 0.5709
C4 C 0.2005(3) 0.1764(3) 0.5468(4)
H2 H 0.1514 0.1745 0.5739
C5 C 0.2984(3) 0.1204(3) 0.4769(4)
H3 H 0.3181 0.0791 0.4534
C6 C 0.3469(3) 0.1819(3) 0.4756(4)
H4 H 0.3981 0.1816 0.4516
H5 H 0.1677 0.0240 0.8603
H6 H 0.0815 0.0173 0.7575
N1 N 0.2244(2) 0.1175(2) 0.5103(3)
O1 O 0.03296(17) 0.09512(17) 0.4798(2)
O2 O 0.06879(17) 0.02695(16) 0.5860(2)
O4 O 0.01745(19) 0.14845(18) 0.6035(2)
O9 O 0.44287(19) 0.31028(18) 0.4956(2)
O10 O 0.3237(2) 0.36888(18) 0.5194(2)
S1 S 0.00728(7) 0.08403(6) 0.55999(8)
Co7 Co 0.35613(4) 0.47286(3) 0.52163(4)
Co13 Co 0.54227(4) 0.36438(3) 0.54323(4)
O27 O 0.17404(19) 0.0528(2) 0.3758(2)
Co2 Co 0.04127(4) 0.92037(3) 0.62110(4)
C7 C 0.2886(3) 0.9337(3) 0.9051(3)
C8 C 0.2262(3) 0.9291(3) 0.8421(3)
C9 C 0.1703(3) 0.9844(3) 0.8285(4)
C10 C 0.1184(3) 0.9795(3) 0.7664(4)
C11 C 0.1690(3) 0.8697(3) 0.7350(3)
H7 H 0.1670 0.8290 0.7045
C12 C 0.2242(3) 0.8706(3) 0.7939(3)
H8 H 0.2603 0.8320 0.8015
C19 C 0.2122(3) 0.8956(3) 0.5406(3)
C20 C 0.2754(3) 0.8367(3) 0.5299(3)
C21 C 0.3547(3) 0.8497(3) 0.5024(3)
H13 H 0.3727 0.8967 0.4941
C22 C 0.4056(3) 0.7926(3) 0.4876(3)
H14 H 0.4584 0.8023 0.4693
C23 C 0.3092(3) 0.7111(3) 0.5279(3)
H15 H 0.2935 0.6637 0.5379
C24 C 0.2544(3) 0.7658(3) 0.5444(3)
H16 H 0.2031 0.7551 0.5654
H21 H 0.0244 0.7146 0.7262
N2 N 0.1178(2) 0.9248(2) 0.7192(3)
N4 N 0.3843(2) 0.7231(2) 0.4979(3)
O11 O 0.35207(19) 0.89504(18) 0.8980(2)
O12 O 0.27165(19) 0.97445(19) 0.9583(2)
O15 O 0.14603(19) 0.87850(19) 0.5707(2)
O16 O 0.23177(18) 0.95732(17) 0.5160(2)
O17 O 0.0103(2) 0.8151(2) 0.6507(2)
Co10 Co 0.45773(4) 0.63562(3) 0.45677(4)
Co12 Co 0.45773(4) 0.86438(3) 0.95677(4)
O20 O 0.07729(17) 0.94337(17) 0.4370(2)
Co4 Co 0.54227(4) 0.13562(3) 0.04323(4)
C28 C 0.5338(5) 0.2077(4) 0.1929(6)
H24 H 0.5889 0.1936 0.1994
C29 C 0.4135(7) 0.2625(7) 0.2533(7)
H25 H 0.4093 0.3138 0.2597
H26 H 0.3860 0.2386 0.2938
H27 H 0.3877 0.2488 0.2067
C30 C 0.5436(6) 0.2557(5) 0.3193(6)
H28 H 0.5952 0.2298 0.3168
H29 H 0.5128 0.2395 0.3619
H30 H 0.5547 0.3064 0.3239
N6 N 0.4962(4) 0.2427(3) 0.2527(4)
O6 O 0.46943(17) 0.04757(16) 0.0872(2)
O18 O 0.5038(3) 0.1948(2) 0.1377(3)
N7 N 0.6157(2) 0.2231(2) 0.0021(3)
O25 O 0.64793(19) 0.10496(18) 0.1020(2)
O26 O 0.72835(19) 0.02555(19) 0.0417(2)
C17 C 0.7962(3) 0.0013(3) 0.8791(4)
H11 H 0.8177 0.0229 0.9220
H12 H 0.9013 0.0127 0.8192
O3 O 0.92271(17) 0.05663(17) 0.5630(2)
Co6 Co 0.95873(4) 0.07963(3) 0.37890(4)
O22 O 0.56863(17) 0.06990(17) 0.9501(2)
O23 O 0.44287(19) 0.18972(18) 0.9956(2)
O5 O 0.57692(17) 0.95538(17) 0.0784(2)
O7 O 0.43137(17) 0.93010(17) 0.0499(2)
O8 O 0.4771(2) 0.95013(19) 0.1776(2)
S2 S 0.49165(7) 0.96918(6) 0.10099(8)
Co3 Co 0.64387(4) 0.97286(3) 0.97837(4)
C13 C 0.8674(3) 0.9554(3) 0.6833(4)
C14 C 0.8173(3) 0.9631(3) 0.7536(3)
C15 C 0.7364(3) 0.9383(3) 0.7545(4)
H9 H 0.7134 0.9168 0.7120
C16 C 0.6897(3) 0.9454(3) 0.8188(4)
H10 H 0.6360 0.9267 0.8192
C18 C 0.8472(3) 0.9951(3) 0.8173(4)
C25 C 0.9420(4) 0.7886(4) 0.6436(5)
H17 H 0.9049 0.8128 0.6122
C26 C 0.8317(6) 0.7036(6) 0.6624(8)
H18 H 0.7969 0.7422 0.6446
H19 H 0.8099 0.6852 0.7084
H20 H 0.8328 0.6658 0.6257
C27 C 0.9750(8) 0.6867(6) 0.7175(8)
H22 H 0.9887 0.6442 0.6895
H23 H 0.9513 0.6730 0.7645
N3 N 0.7185(2) 0.9779(2) 0.8801(3)
N5 N 0.9145(4) 0.7301(3) 0.6748(5)
O13 O 0.94466(18) 0.95553(19) 0.6896(2)
O14 O 0.82596(19) 0.9472(2) 0.6242(2)
Co5 Co 0.85486(3) 0.97035(3) 0.51703(4)
O19 O 0.96704(17) 0.90488(17) 0.5202(2)
O21 O 0.53057(17) 0.95243(16) 0.9128(2)
O24 O 0.6763(2) 0.86888(18) 0.9806(2)
Co6_2 Co 0.04127(4) 0.57963(3) 0.12110(4)
C13_2 C 0.1326(3) 0.4554(3) 0.8167(4)
C14_2 C 0.1827(3) 0.4631(3) 0.7464(3)
C15_2 C 0.2636(3) 0.4383(3) 0.7455(4)
H9_2 H 0.2866 0.4168 0.7880
C16_2 C 0.3103(3) 0.4454(3) 0.6812(4)
H10_2 H 0.3640 0.4267 0.6808
C17_2 C 0.2038(3) 0.5013(3) 0.6209(4)
H11_2 H 0.1823 0.5229 0.5780
C18_2 C 0.1528(3) 0.4951(3) 0.6827(4)
H12_2 H 0.0987 0.5127 0.6808
C25_2 C 0.0580(4) 0.2886(4) 0.8564(5)
H17_2 H 0.0951 0.3128 0.8878
C26_2 C 0.1683(6) 0.2036(6) 0.8376(8)
H18_2 H 0.2031 0.2422 0.8554
H19_2 H 0.1901 0.1852 0.7916
H20_2 H 0.1672 0.1658 0.8743
C27_2 C 0.0250(8) 0.1867(6) 0.7825(8)
H22_2 H 0.0113 0.1442 0.8105
H23_2 H 0.0487 0.1730 0.7355
C28_2 C 0.4662(5) 0.7077(4) 0.3071(6)
H24_2 H 0.4111 0.6936 0.3006
C29_2 C 0.5865(7) 0.7625(7) 0.2467(7)
H25_2 H 0.5907 0.8138 0.2403
H26_2 H 0.6140 0.7386 0.2062
H27_2 H 0.6123 0.7488 0.2933
C30_2 C 0.4564(6) 0.7557(5) 0.1807(6)
H28_2 H 0.4048 0.7298 0.1832
H29_2 H 0.4872 0.7395 0.1381
H30_2 H 0.4453 0.8064 0.1761
N3_2 N 0.2815(2) 0.4779(2) 0.6199(3)
N5_2 N 0.0855(4) 0.2301(3) 0.8252(5)
N6_2 N 0.5038(4) 0.7427(3) 0.2473(4)
O3_2 O 0.07729(17) 0.55663(17) 0.9370(2)
O5_2 O 0.42308(17) 0.45538(17) 0.4216(2)
O6_2 O 0.53057(17) 0.54757(16) 0.4128(2)
O7_2 O 0.56863(17) 0.43010(17) 0.4501(2)
O8_2 O 0.5229(2) 0.45013(19) 0.3224(2)
O13_2 O 0.05534(18) 0.45553(19) 0.8104(2)
O14_2 O 0.17404(19) 0.4472(2) 0.8758(2)
O18_2 O 0.4962(3) 0.6948(2) 0.3623(3)
S2_2 S 0.50835(7) 0.46918(6) 0.39901(8)
Co5_2 Co 0.14514(3) 0.47035(3) 0.98297(4)
Co8 Co 0.64387(4) 0.52714(3) 0.47837(4)
O19_2 O 0.03296(17) 0.40488(17) 0.9798(2)
O21_2 O 0.46943(17) 0.45243(16) 0.5872(2)
O22_2 O 0.43137(17) 0.56990(17) 0.5499(2)
O23_2 O 0.55713(19) 0.68972(18) 0.5044(2)
O25_2 O 0.35207(19) 0.60496(18) 0.3980(2)
O26_2 O 0.27165(19) 0.52555(19) 0.4583(2)
Co1_2 Co 0.85486(3) 0.52965(3) 0.01703(4)
C5_2 C 0.7016(3) 0.6204(3) 0.0231(4)
H3_2 H 0.6819 0.5791 0.0466
C6_2 C 0.6531(3) 0.6819(3) 0.0244(4)
H4_2 H 0.6019 0.6816 0.0484
H13_2 H 0.6273 0.3967 0.0059
C22_2 C 0.5944(3) 0.2926(3) 0.0124(3)
H14_2 H 0.5416 0.3023 0.0307
O1_2 O 0.96704(17) 0.59512(17) 0.0202(2)
O9_2 O 0.55713(19) 0.81028(18) 0.0044(2)
O20_2 O 0.92271(17) 0.44337(17) 0.0630(2)
O27_2 O 0.82596(19) 0.5528(2) 0.1242(2)
Co2_2 Co 0.95873(4) 0.42037(3) 0.87890(4)
C1_2 C 0.6337(3) 0.8132(3) 0.9925(3)
C2_2 C 0.6806(3) 0.7430(3) 0.9902(4)
C3_2 C 0.7554(3) 0.7396(3) 0.9536(4)
H1_2 H 0.7759 0.7801 0.9291
C4_2 C 0.7995(3) 0.6764(3) 0.9532(4)
H2_2 H 0.8486 0.6745 0.9261
C7_2 C 0.7114(3) 0.4337(3) 0.5949(3)
C8_2 C 0.7738(3) 0.4291(3) 0.6579(3)
C9_2 C 0.8297(3) 0.4844(3) 0.6715(4)
H5_2 H 0.8323 0.5240 0.6397
C10_2 C 0.8816(3) 0.4795(3) 0.7336(4)
H6_2 H 0.9185 0.5173 0.7425
C11_2 C 0.8310(3) 0.3697(3) 0.7650(3)
H7_2 H 0.8330 0.3290 0.7955
C12_2 C 0.7758(3) 0.3706(3) 0.7061(3)
H8_2 H 0.7397 0.3320 0.6985
C19_2 C 0.7878(3) 0.3956(3) 0.9594(3)
C20_2 C 0.7246(3) 0.3367(3) 0.9701(3)
C21_2 C 0.6453(3) 0.3497(3) 0.9976(3)
C23_2 C 0.6908(3) 0.2111(3) 0.9721(3)
H15_2 H 0.7065 0.1637 0.9621
C24_2 C 0.7456(3) 0.2658(3) 0.9556(3)
H16_2 H 0.7969 0.2551 0.9346
H21_2 H 0.9756 0.2146 0.7738
N1_2 N 0.7756(2) 0.6175(2) 0.9897(3)
N2_2 N 0.8822(2) 0.4248(2) 0.7808(3)
O2_2 O 0.93121(17) 0.52695(16) 0.9140(2)
O4_2 O 0.98255(19) 0.64845(18) 0.8965(2)
O11_2 O 0.64793(19) 0.39504(18) 0.6020(2)
O12_2 O 0.72835(19) 0.47445(19) 0.5417(2)
O15_2 O 0.85397(19) 0.37850(19) 0.9293(2)
O16_2 O 0.76823(18) 0.45732(17) 0.9840(2)
O17_2 O 0.9897(2) 0.3151(2) 0.8493(2)
S1_2 S 0.99272(7) 0.58403(6) 0.94001(8)
C13_3 C 0.1326(3) 0.0446(3) 0.3167(4)
C14_3 C 0.1827(3) 0.0369(3) 0.2464(3)
C15_3 C 0.2636(3) 0.0617(3) 0.2455(4)
H9_3 H 0.2866 0.0832 0.2880
C16_3 C 0.3103(3) 0.0546(3) 0.1812(4)
H10_3 H 0.3640 0.0733 0.1808
C18_3 C 0.1528(3) 0.0049(3) 0.1827(4)
C25_3 C 0.0580(4) 0.2114(4) 0.3564(5)
H17_3 H 0.0951 0.1872 0.3878
C26_3 C 0.1683(6) 0.2964(6) 0.3376(8)
H18_3 H 0.2031 0.2578 0.3554
H19_3 H 0.1901 0.3148 0.2916
H20_3 H 0.1672 0.3342 0.3743
C27_3 C 0.0250(8) 0.3133(6) 0.2825(8)
H22_3 H 0.0113 0.3558 0.3105
H23_3 H 0.0487 0.3270 0.2355
N3_3 N 0.2815(2) 0.0221(2) 0.1199(3)
N5_3 N 0.0855(4) 0.2699(3) 0.3252(5)
O13_3 O 0.05534(18) 0.04447(19) 0.3104(2)
O24_2 O 0.3237(2) 0.13112(18) 0.0194(2)
O5_3 O 0.42308(17) 0.04462(17) 0.9216(2)
O8_3 O 0.5229(2) 0.04987(19) 0.8224(2)
S2_3 S 0.50835(7) 0.03082(6) 0.89901(8)
C17_3 C 0.2038(3) 0.9987(3) 0.1209(4)
H11_3 H 0.1823 0.9771 0.0780
H12_3 H 0.0987 0.9873 0.1808
C28_3 C 0.4662(5) 0.7923(4) 0.8071(6)
H24_3 H 0.4111 0.8064 0.8006
C29_3 C 0.5865(7) 0.7375(7) 0.7467(7)
H25_3 H 0.5907 0.6862 0.7403
H26_3 H 0.6140 0.7614 0.7062
H27_3 H 0.6123 0.7512 0.7933
C30_3 C 0.4564(6) 0.7443(5) 0.6807(6)
H28_3 H 0.4048 0.7702 0.6832
H29_3 H 0.4872 0.7605 0.6381
H30_3 H 0.4453 0.6936 0.6761
N6_3 N 0.5038(4) 0.7573(3) 0.7473(4)
O18_3 O 0.4962(3) 0.8052(2) 0.8623(3)
N7_2 N 0.3843(2) 0.7769(2) 0.9979(3)
C7_3 C 0.7114(3) 0.0663(3) 0.0949(3)
C8_3 C 0.7738(3) 0.0709(3) 0.1579(3)
C9_3 C 0.8297(3) 0.0156(3) 0.1715(4)
C10_3 C 0.8816(3) 0.0205(3) 0.2336(4)
C11_3 C 0.8310(3) 0.1303(3) 0.2650(3)
H7_3 H 0.8330 0.1710 0.2955
C12_3 C 0.7758(3) 0.1294(3) 0.2061(3)
H8_3 H 0.7397 0.1680 0.1985
C19_3 C 0.7878(3) 0.1044(3) 0.4594(3)
C20_3 C 0.7246(3) 0.1633(3) 0.4701(3)
C21_3 C 0.6453(3) 0.1503(3) 0.4976(3)
H13_3 H 0.6273 0.1033 0.5059
C22_3 C 0.5944(3) 0.2074(3) 0.5124(3)
H14_3 H 0.5416 0.1977 0.5307
C23_3 C 0.6908(3) 0.2889(3) 0.4721(3)
H15_3 H 0.7065 0.3363 0.4621
C24_3 C 0.7456(3) 0.2342(3) 0.4556(3)
H16_3 H 0.7969 0.2449 0.4346
H21_3 H 0.9756 0.2854 0.2738
N2_3 N 0.8822(2) 0.0752(2) 0.2808(3)
N4_2 N 0.6157(2) 0.2769(2) 0.5021(3)
O15_3 O 0.85397(19) 0.12150(19) 0.4293(2)
O16_3 O 0.76823(18) 0.04268(17) 0.4840(2)
O17_3 O 0.9897(2) 0.1849(2) 0.3493(2)
C1_3 C 0.6337(3) 0.6868(3) 0.4925(3)
C2_3 C 0.6806(3) 0.7570(3) 0.4902(4)
C3_3 C 0.7554(3) 0.7604(3) 0.4536(4)
H1_3 H 0.7759 0.7199 0.4291
C4_3 C 0.7995(3) 0.8236(3) 0.4532(4)
H2_3 H 0.8486 0.8255 0.4261
C5_3 C 0.7016(3) 0.8796(3) 0.5231(4)
H3_3 H 0.6819 0.9209 0.5466
C6_3 C 0.6531(3) 0.8181(3) 0.5244(4)
H4_3 H 0.6019 0.8184 0.5484
H5_3 H 0.8323 0.9760 0.1397
H6_3 H 0.9185 0.9827 0.2425
N1_3 N 0.7756(2) 0.8825(2) 0.4897(3)
O2_3 O 0.93121(17) 0.97305(16) 0.4140(2)
O4_3 O 0.98255(19) 0.85155(18) 0.3965(2)
O10_2 O 0.6763(2) 0.63112(18) 0.4806(2)
S1_3 S 0.99272(7) 0.91597(6) 0.44001(8)
C1_4 C 0.3663(3) 0.1868(3) 0.0075(3)
C2_4 C 0.3194(3) 0.2570(3) 0.0098(4)
C3_4 C 0.2446(3) 0.2604(3) 0.0464(4)
H1_4 H 0.2241 0.2199 0.0709
C4_4 C 0.2005(3) 0.3236(3) 0.0468(4)
H2_4 H 0.1514 0.3255 0.0739
C7_4 C 0.2886(3) 0.5663(3) 0.4051(3)
C8_4 C 0.2262(3) 0.5709(3) 0.3421(3)
C9_4 C 0.1703(3) 0.5156(3) 0.3285(4)
H5_4 H 0.1677 0.4760 0.3603
C10_4 C 0.1184(3) 0.5205(3) 0.2664(4)
H6_4 H 0.0815 0.4827 0.2575
C11_4 C 0.1690(3) 0.6303(3) 0.2350(3)
H7_4 H 0.1670 0.6710 0.2045
C12_4 C 0.2242(3) 0.6294(3) 0.2939(3)
H8_4 H 0.2603 0.6680 0.3015
C19_4 C 0.2122(3) 0.6044(3) 0.0406(3)
C20_4 C 0.2754(3) 0.6633(3) 0.0299(3)
C21_4 C 0.3547(3) 0.6503(3) 0.0024(3)
C23_4 C 0.3092(3) 0.7889(3) 0.0279(3)
H15_4 H 0.2935 0.8363 0.0379
C24_4 C 0.2544(3) 0.7342(3) 0.0444(3)
H16_4 H 0.2031 0.7449 0.0654
H21_4 H 0.0244 0.7854 0.2262
N1_4 N 0.2244(2) 0.3825(2) 0.0103(3)
N2_4 N 0.1178(2) 0.5752(2) 0.2192(3)
O2_4 O 0.06879(17) 0.47305(16) 0.0860(2)
O4_4 O 0.01745(19) 0.35155(18) 0.1035(2)
O15_4 O 0.14603(19) 0.62150(19) 0.0707(2)
O16_4 O 0.23177(18) 0.54268(17) 0.0160(2)
O17_4 O 0.0103(2) 0.6849(2) 0.1507(2)
S1_4 S 0.00728(7) 0.41597(6) 0.05999(8)
C5_4 C 0.2984(3) 0.3796(3) 0.9769(4)
H3_4 H 0.3181 0.4209 0.9534
C6_4 C 0.3469(3) 0.3181(3) 0.9756(4)
H4_4 H 0.3981 0.3184 0.9516
H13_4 H 0.3727 0.6033 0.9941
C22_4 C 0.4056(3) 0.7074(3) 0.9876(3)
H14_4 H 0.4584 0.6977 0.9693
C13_4 C 0.8674(3) 0.5446(3) 0.1833(4)
C14_4 C 0.8173(3) 0.5369(3) 0.2536(3)
C15_4 C 0.7364(3) 0.5617(3) 0.2545(4)
H9_4 H 0.7134 0.5832 0.2120
C16_4 C 0.6897(3) 0.5546(3) 0.3188(4)
H10_4 H 0.6360 0.5733 0.3192
C17_4 C 0.7962(3) 0.4987(3) 0.3791(4)
H11_4 H 0.8177 0.4771 0.4220
C18_4 C 0.8472(3) 0.5049(3) 0.3173(4)
H12_4 H 0.9013 0.4873 0.3192
C25_4 C 0.9420(4) 0.7114(4) 0.1436(5)
H17_4 H 0.9049 0.6872 0.1122
C26_4 C 0.8317(6) 0.7964(6) 0.1624(8)
H18_4 H 0.7969 0.7578 0.1446
H19_4 H 0.8099 0.8148 0.2084
H20_4 H 0.8328 0.8342 0.1257
C27_4 C 0.9750(8) 0.8133(6) 0.2175(8)
H22_4 H 0.9887 0.8558 0.1895
H23_4 H 0.9513 0.8270 0.2645
C28_4 C 0.5338(5) 0.2923(4) 0.6929(6)
H24_4 H 0.5889 0.3064 0.6994
C29_4 C 0.4135(7) 0.2375(7) 0.7533(7)
H25_4 H 0.4093 0.1862 0.7597
H26_4 H 0.3860 0.2614 0.7938
H27_4 H 0.3877 0.2512 0.7067
C30_4 C 0.5436(6) 0.2443(5) 0.8193(6)
H28_4 H 0.5952 0.2702 0.8168
H29_4 H 0.5128 0.2605 0.8619
H30_4 H 0.5547 0.1936 0.8239
N3_4 N 0.7185(2) 0.5221(2) 0.3801(3)
N5_4 N 0.9145(4) 0.7699(3) 0.1748(5)
N6_4 N 0.4962(4) 0.2573(3) 0.7527(4)
O5_4 O 0.57692(17) 0.54462(17) 0.5784(2)
O8_4 O 0.4771(2) 0.54987(19) 0.6776(2)
O13_4 O 0.94466(18) 0.54447(19) 0.1896(2)
O18_4 O 0.5038(3) 0.3052(2) 0.6377(3)
S2_4 S 0.49165(7) 0.53082(6) 0.60099(8)
loop_
_geom_bond_atom_site_label_1
_geom_bond_atom_site_label_2
_geom_bond_site_symmetry_1
_geom_bond_site_symmetry_2
Co1 N1 1_555 1_555
C1 C2 1_555 1_555
C2 C3 1_555 1_555
C3 H1 1_555 1_555
C4 C3 1_555 1_555
H2 C4 1_555 1_555
C5 H3 1_555 1_555
C6 C2 1_555 1_555
H4 C6 1_555 1_555
N1 C4 1_555 1_555
O1 Co1 1_555 1_555
O2 Co1 1_555 1_555
O4 S1 1_555 1_555
O9 C1 1_555 1_555
O10 C1 1_555 1_555
S1 O1 1_555 1_555
Co7 O10 1_555 1_555
Co13 O9 1_555 1_555
O27 Co1 1_555 1_555
C5 C6 1_555 1_555
C5 N1 1_555 1_555
O2 S1 1_555 1_555
Co2 N2 1_555 1_555
C7 C8 1_555 1_555
C8 C9 1_555 1_555
C10 C9 1_555 1_555
C11 H7 1_555 1_555
C12 C8 1_555 1_555
H8 C12 1_555 1_555
C19 C20 1_555 1_555
C20 C21 1_555 1_555
C21 H13 1_555 1_555
C22 C21 1_555 1_555
H14 C22 1_555 1_555
C23 H15 1_555 1_555
C24 C20 1_555 1_555
H16 C24 1_555 1_555
N2 C10 1_555 1_555
N4 C22 1_555 1_555
O11 C7 1_555 1_555
O12 C7 1_555 1_555
O15 Co2 1_555 1_555
O17 Co2 1_555 1_555
Co10 N4 1_555 1_555
Co12 O11 1_555 1_555
C11 C12 1_555 1_555
C11 N2 1_555 1_555
C19 O15 1_555 1_555
C19 O16 1_555 1_555
C23 C24 1_555 1_555
C23 N4 1_555 1_555
Co4 O6 1_555 1_555
C28 H24 1_555 1_555
C29 H25 1_555 1_555
H26 C29 1_555 1_555
H27 C29 1_555 1_555
C30 H28 1_555 1_555
H29 C30 1_555 1_555
H30 C30 1_555 1_555
N6 C28 1_555 1_555
O18 Co4 1_555 1_555
Co9 O6 1_555 1_555
N7 Co4 1_555 1_555
O25 Co4 1_555 1_555
C28 O18 1_555 1_555
C29 N6 1_555 1_555
C30 N6 1_555 1_555
C17 H11 1_555 1_555
O7 S2 1_555 1_555
O8 S2 1_555 1_555
S2 O5 1_555 1_555
Co3 N3 1_555 1_555
C13 C14 1_555 1_555
C14 C15 1_555 1_555
C15 H9 1_555 1_555
C16 C15 1_555 1_555
H10 C16 1_555 1_555
C18 C14 1_555 1_555
C25 H17 1_555 1_555
C26 H18 1_555 1_555
H19 C26 1_555 1_555
H20 C26 1_555 1_555
H22 C27 1_555 1_555
H23 C27 1_555 1_555
N3 C16 1_555 1_555
N5 C25 1_555 1_555
O14 C13 1_555 1_555
O21 Co3 1_555 1_555
O24 Co3 1_555 1_555
C13 O13 1_555 1_555
C26 N5 1_555 1_555
C27 N5 1_555 1_555
O14 Co5 1_555 1_555
Co5 O19 1_555 1_555
Co12 O21 1_555 1_555
Co7 N3_2 1_555 1_555
Co10 O6_2 1_555 1_555
C13_2 C14_2 1_555 1_555
C14_2 C15_2 1_555 1_555
C15_2 H9_2 1_555 1_555
C16_2 C15_2 1_555 1_555
H10_2 C16_2 1_555 1_555
C17_2 H11_2 1_555 1_555
C18_2 C14_2 1_555 1_555
H12_2 C18_2 1_555 1_555
C25_2 H17_2 1_555 1_555
C26_2 H18_2 1_555 1_555
H19_2 C26_2 1_555 1_555
H20_2 C26_2 1_555 1_555
H22_2 C27_2 1_555 1_555
H23_2 C27_2 1_555 1_555
C28_2 H24_2 1_555 1_555
C29_2 H25_2 1_555 1_555
H26_2 C29_2 1_555 1_555
H27_2 C29_2 1_555 1_555
C30_2 H28_2 1_555 1_555
H29_2 C30_2 1_555 1_555
H30_2 C30_2 1_555 1_555
N3_2 C16_2 1_555 1_555
N5_2 C25_2 1_555 1_555
N6_2 C28_2 1_555 1_555
O5_2 Co7 1_555 1_555
O6_2 S2_2 1_555 1_555
O7_2 S2_2 1_555 1_555
O8_2 S2_2 1_555 1_555
O14_2 C13_2 1_555 1_555
O18_2 Co10 1_555 1_555
S2_2 O5_2 1_555 1_555
Co5_2 O3_2 1_555 1_555
Co8 O6_2 1_555 1_555
Co13 O7_2 1_555 1_555
O21_2 Co7 1_555 1_555
O22_2 Co7 1_555 1_555
O23_2 Co10 1_555 1_555
O25_2 Co10 1_555 1_555
O26_2 Co7 1_555 1_555
Co10 O22_2 1_555 1_555
C13_2 O13_2 1_555 1_555
C17_2 C18_2 1_555 1_555
C17_2 N3_2 1_555 1_555
C26_2 N5_2 1_555 1_555
C27_2 N5_2 1_555 1_555
C28_2 O18_2 1_555 1_555
C29_2 N6_2 1_555 1_555
C30_2 N6_2 1_555 1_555
O7_2 Co8 1_555 1_555
O14_2 Co5_2 1_555 1_555
Co5_2 O19_2 1_555 1_555
Co13 O21_2 1_555 1_555
C5_2 H3_2 1_555 1_555
H4_2 C6_2 1_555 1_555
H14_2 C22_2 1_555 1_555
N7 C22_2 1_555 1_555
O1_2 Co1_2 1_555 1_555
O20_2 Co1_2 1_555 1_555
O27_2 Co1_2 1_555 1_555
C5_2 C6_2 1_555 1_555
Co2_2 N2_2 1_555 1_555
C1_2 C2_2 1_555 1_555
C2_2 C3_2 1_555 1_555
C3_2 H1_2 1_555 1_555
C4_2 C3_2 1_555 1_555
H2_2 C4_2 1_555 1_555
C7_2 C8_2 1_555 1_555
C8_2 C9_2 1_555 1_555
C9_2 H5_2 1_555 1_555
C10_2 C9_2 1_555 1_555
H6_2 C10_2 1_555 1_555
C11_2 H7_2 1_555 1_555
C12_2 C8_2 1_555 1_555
H8_2 C12_2 1_555 1_555
C19_2 C20_2 1_555 1_555
C20_2 C21_2 1_555 1_555
C23_2 H15_2 1_555 1_555
C24_2 C20_2 1_555 1_555
H16_2 C24_2 1_555 1_555
N1_2 C4_2 1_555 1_555
N2_2 C10_2 1_555 1_555
O4_2 S1_2 1_555 1_555
O24 C1_2 1_555 1_555
O11_2 C7_2 1_555 1_555
O12_2 C7_2 1_555 1_555
O15_2 Co2_2 1_555 1_555
O17_2 Co2_2 1_555 1_555
Co8 O12_2 1_555 1_555
Co13 O11_2 1_555 1_555
Co2_2 O2_2 1_555 1_555
C11_2 C12_2 1_555 1_555
C11_2 N2_2 1_555 1_555
C19_2 O15_2 1_555 1_555
C19_2 O16_2 1_555 1_555
C23_2 C24_2 1_555 1_555
O2_2 S1_2 1_555 1_555
Co9 N3_3 1_555 1_555
C13_3 C14_3 1_555 1_555
C14_3 C15_3 1_555 1_555
C15_3 H9_3 1_555 1_555
C16_3 C15_3 1_555 1_555
H10_3 C16_3 1_555 1_555
C18_3 C14_3 1_555 1_555
C25_3 H17_3 1_555 1_555
C26_3 H18_3 1_555 1_555
H19_3 C26_3 1_555 1_555
H20_3 C26_3 1_555 1_555
H22_3 C27_3 1_555 1_555
H23_3 C27_3 1_555 1_555
N3_3 C16_3 1_555 1_555
N5_3 C25_3 1_555 1_555
O27 C13_3 1_555 1_555
O24_2 Co9 1_555 1_555
C13_3 O13_3 1_555 1_555
C26_3 N5_3 1_555 1_555
C27_3 N5_3 1_555 1_555
O22 S2_3 1_555 1_555
O8_3 S2_3 1_555 1_555
S2_3 O5_3 1_555 1_555
C17_3 H11_3 1_555 1_555
C28_3 H24_3 1_555 1_555
C29_3 H25_3 1_555 1_555
H26_3 C29_3 1_555 1_555
H27_3 C29_3 1_555 1_555
C30_3 H28_3 1_555 1_555
H29_3 C30_3 1_555 1_555
H30_3 C30_3 1_555 1_555
N6_3 C28_3 1_555 1_555
O18_3 Co12 1_555 1_555
N7_2 Co12 1_555 1_555
C28_3 O18_3 1_555 1_555
C29_3 N6_3 1_555 1_555
C30_3 N6_3 1_555 1_555
Co6 N2_3 1_555 1_555
C7_3 C8_3 1_555 1_555
C8_3 C9_3 1_555 1_555
C10_3 C9_3 1_555 1_555
C11_3 H7_3 1_555 1_555
C12_3 C8_3 1_555 1_555
H8_3 C12_3 1_555 1_555
C19_3 C20_3 1_555 1_555
C20_3 C21_3 1_555 1_555
C21_3 H13_3 1_555 1_555
C22_3 C21_3 1_555 1_555
H14_3 C22_3 1_555 1_555
C23_3 H15_3 1_555 1_555
C24_3 C20_3 1_555 1_555
H16_3 C24_3 1_555 1_555
N2_3 C10_3 1_555 1_555
N4_2 C22_3 1_555 1_555
O25 C7_3 1_555 1_555
O26 C7_3 1_555 1_555
O15_3 Co6 1_555 1_555
O17_3 Co6 1_555 1_555
Co13 N4_2 1_555 1_555
C11_3 C12_3 1_555 1_555
C11_3 N2_3 1_555 1_555
C19_3 O15_3 1_555 1_555
C19_3 O16_3 1_555 1_555
C23_3 C24_3 1_555 1_555
C23_3 N4_2 1_555 1_555
Co5 N1_3 1_555 1_555
C1_3 C2_3 1_555 1_555
C2_3 C3_3 1_555 1_555
C3_3 H1_3 1_555 1_555
C4_3 C3_3 1_555 1_555
H2_3 C4_3 1_555 1_555
C5_3 H3_3 1_555 1_555
C6_3 C2_3 1_555 1_555
H4_3 C6_3 1_555 1_555
N1_3 C4_3 1_555 1_555
O2_3 Co5 1_555 1_555
O4_3 S1_3 1_555 1_555
O23_2 C1_3 1_555 1_555
O10_2 C1_3 1_555 1_555
S1_3 O19 1_555 1_555
Co8 O10_2 1_555 1_555
C5_3 C6_3 1_555 1_555
C5_3 N1_3 1_555 1_555
O2_3 S1_3 1_555 1_555
Co6_2 N2_4 1_555 1_555
C1_4 C2_4 1_555 1_555
C2_4 C3_4 1_555 1_555
C3_4 H1_4 1_555 1_555
C4_4 C3_4 1_555 1_555
H2_4 C4_4 1_555 1_555
C7_4 C8_4 1_555 1_555
C8_4 C9_4 1_555 1_555
C9_4 H5_4 1_555 1_555
C10_4 C9_4 1_555 1_555
H6_4 C10_4 1_555 1_555
C11_4 H7_4 1_555 1_555
C12_4 C8_4 1_555 1_555
H8_4 C12_4 1_555 1_555
C19_4 C20_4 1_555 1_555
C20_4 C21_4 1_555 1_555
C23_4 H15_4 1_555 1_555
C24_4 C20_4 1_555 1_555
H16_4 C24_4 1_555 1_555
N1_4 C4_4 1_555 1_555
N2_4 C10_4 1_555 1_555
O4_4 S1_4 1_555 1_555
O24_2 C1_4 1_555 1_555
O25_2 C7_4 1_555 1_555
O26_2 C7_4 1_555 1_555
O15_4 Co6_2 1_555 1_555
O17_4 Co6_2 1_555 1_555
Co6_2 O2_4 1_555 1_555
C11_4 C12_4 1_555 1_555
C11_4 N2_4 1_555 1_555
C19_4 O15_4 1_555 1_555
C19_4 O16_4 1_555 1_555
C23_4 C24_4 1_555 1_555
O2_4 S1_4 1_555 1_555
C5_4 H3_4 1_555 1_555
H4_4 C6_4 1_555 1_555
H14_4 C22_4 1_555 1_555
N7_2 C22_4 1_555 1_555
C5_4 C6_4 1_555 1_555
Co8 N3_4 1_555 1_555
C13_4 C14_4 1_555 1_555
C14_4 C15_4 1_555 1_555
C15_4 H9_4 1_555 1_555
C16_4 C15_4 1_555 1_555
H10_4 C16_4 1_555 1_555
C17_4 H11_4 1_555 1_555
C18_4 C14_4 1_555 1_555
H12_4 C18_4 1_555 1_555
C25_4 H17_4 1_555 1_555
C26_4 H18_4 1_555 1_555
H19_4 C26_4 1_555 1_555
H20_4 C26_4 1_555 1_555
H22_4 C27_4 1_555 1_555
H23_4 C27_4 1_555 1_555
C28_4 H24_4 1_555 1_555
C29_4 H25_4 1_555 1_555
H26_4 C29_4 1_555 1_555
H27_4 C29_4 1_555 1_555
C30_4 H28_4 1_555 1_555
H29_4 C30_4 1_555 1_555
H30_4 C30_4 1_555 1_555
N3_4 C16_4 1_555 1_555
N5_4 C25_4 1_555 1_555
N6_4 C28_4 1_555 1_555
O5_4 Co8 1_555 1_555
O21_2 S2_4 1_555 1_555
O22_2 S2_4 1_555 1_555
O8_4 S2_4 1_555 1_555
O27_2 C13_4 1_555 1_555
O18_4 Co13 1_555 1_555
S2_4 O5_4 1_555 1_555
C13_4 O13_4 1_555 1_555
C17_4 C18_4 1_555 1_555
C17_4 N3_4 1_555 1_555
C26_4 N5_4 1_555 1_555
C27_4 N5_4 1_555 1_555
C28_4 O18_4 1_555 1_555
C29_4 N6_4 1_555 1_555
C30_4 N6_4 1_555 1_555

#END
