
###############################################################################
#
# This file contains modified crystal structure data generated from the
# MOF subset of the Cambridge Structural Database (CSD) v543 
# hosted by the Cambridge Crystallographic Data Centre (CCDC).
#
# This work is licensed under the Creative Commons
# Attribution-NonCommercial-ShareAlike 4.0 International License.
# To view a copy of this license, visit
# http://creativecommons.org/licenses/by-nc-sa/4.0/
# or send a letter to
# Creative Commons, PO Box 1866, Mountain View, CA 94042, USA.
#
# CIF created using the CSD Python API on 29 September 2022
# The structure has been converted into the P1 space group
# The structure has a 3D framework
# The original CSD entry BIQHIU is in the monoclinic crystal system
# The framework has been calculated to contain at least 10.0% void space
# The void calculation uses a probe of radius 1.32A, grid spacing 0.4
#
###############################################################################

data_BIQHIU
_chemical_formula_moiety         '(C172 H64 Fe20 N112 Zn24)n'
_symmetry_cell_setting           triclinic
_symmetry_space_group_name_H-M   'P 1'
_symmetry_Int_Tables_number      1
_space_group_name_Hall           'P 1'
loop_
_symmetry_equiv_pos_site_id
_symmetry_equiv_pos_as_xyz
1 x,y,z
_cell_length_a                   13.4237(18)
_cell_length_b                   20.496(2)
_cell_length_c                   23.570(4)
_cell_angle_alpha                90
_cell_angle_beta                 98.472(7)
_cell_angle_gamma                90
_cell_volume                     6414.1
loop_
_atom_site_label
_atom_site_type_symbol
_atom_site_fract_x
_atom_site_fract_y
_atom_site_fract_z
N29 N 0.0310(11) 0.5658(7) 0.4109(7)
Zn9 Zn 0.11952(19) 0.40996(9) 0.63250(10)
C1 C 0.6422(14) 0.4366(8) 0.4562(8)
C2 C 0.8074(11) 0.5104(8) 0.4597(7)
C3 C 0.8965(14) 0.4352(7) 0.5558(9)
C4 C 0.7253(11) 0.3633(8) 0.5471(7)
C5 C 0.8204(11) 0.3732(7) 0.4562(7)
C6 C 0.2884(12) 0.5039(7) 0.4448(7)
C7 C 0.6321(14) 0.6345(8) 0.2961(9)
C8 C 0.4610(13) 0.5715(8) 0.2991(8)
C9 C 0.4584(11) 0.7037(7) 0.3023(8)
C10 C 0.6281(14) 0.2678(7) 0.2976(9)
C11 C 0.4539(11) 0.3318(7) 0.2950(7)
C12 C 0.5471(11) 0.2037(8) 0.2007(7)
C13 C 0.8548(14) 0.4556(8) 0.3125(8)
H1 H 0.8515 0.4418 0.3498
C14 C 0.8506(13) 0.4084(8) 0.2704(8)
H2 H 0.8450 0.3644 0.2791
C15 C 0.8551(14) 0.4294(8) 0.2136(9)
C16 C 0.8597(13) 0.4951(8) 0.2052(8)
H3 H 0.8588 0.5107 0.1681
C17 C 0.8655(14) 0.5396(8) 0.2503(8)
H4 H 0.8710 0.5839 0.2427
C18 C 0.8545(14) 0.3801(9) 0.1677(9)
C19 C 0.8086(13) 0.3198(9) 0.1706(9)
H5 H 0.7787 0.3071 0.2020
C20 C 0.8103(15) 0.2804(9) 0.1240(9)
H6 H 0.7768 0.2407 0.1234
C21 C 0.8978(14) 0.3506(9) 0.0784(9)
H7 H 0.9285 0.3610 0.0467
C22 C 0.9002(13) 0.3970(9) 0.1216(9)
H8 H 0.9312 0.4373 0.1193
N1 N 0.5655(11) 0.4409(6) 0.4259(7)
N2 N 0.8240(10) 0.5527(7) 0.4320(7)
N3 N 0.9690(11) 0.4342(7) 0.5891(7)
N4 N 0.6971(10) 0.3200(6) 0.5701(6)
N5 N 0.8479(10) 0.3332(6) 0.4289(6)
N6 N 0.3281(10) 0.4690(6) 0.4164(7)
N7 N 0.7093(12) 0.6278(7) 0.3242(7)
N8 N 0.4431(11) 0.5284(7) 0.3253(7)
N9 N 0.4282(11) 0.7356(6) 0.3338(6)
N10 N 0.7062(11) 0.2675(7) 0.3270(8)
N11 N 0.4266(10) 0.3709(6) 0.3261(6)
N12 N 0.5750(10) 0.1682(6) 0.1691(6)
N13 N 0.8633(9) 0.5203(6) 0.3035(6)
N14 N 0.8563(12) 0.2947(7) 0.0795(8)
Fe1 Fe 0.76864(17) 0.43751(9) 0.50529(10)
Fe2 Fe 0.5000 0.63791(14) 0.2500
Fe3 Fe 0.5000 0.26663(14) 0.2500
Zn1 Zn 0.43806(14) 0.44892(8) 0.37325(8)
Zn2 Zn 0.88048(19) 0.59004(9) 0.36750(10)
Zn3 Zn 0.67697(14) 0.24496(8) 0.61762(8)
C23 C 0.3578(14) 0.4366(8) 0.0438(8)
C24 C 0.1926(11) 0.5104(8) 0.0403(7)
C27 C 0.1796(11) 0.3732(7) 0.0438(7)
C28 C 0.7116(12) 0.5039(7) 0.0552(7)
C29 C 0.3679(14) 0.6345(8) 0.2039(9)
C30 C 0.5390(13) 0.5715(8) 0.2009(8)
C31 C 0.5416(11) 0.7037(7) 0.1977(8)
C32 C 0.3719(14) 0.2678(7) 0.2024(9)
C33 C 0.5461(11) 0.3318(7) 0.2050(7)
C34 C 0.4529(11) 0.2037(8) 0.2993(7)
C35 C 0.1452(14) 0.4556(8) 0.1875(8)
H9 H 0.1485 0.4418 0.1502
C36 C 0.1494(13) 0.4084(8) 0.2296(8)
H10 H 0.1550 0.3644 0.2209
C37 C 0.1449(14) 0.4294(8) 0.2864(9)
C38 C 0.1403(13) 0.4951(8) 0.2948(8)
H11 H 0.1412 0.5107 0.3319
C39 C 0.1345(14) 0.5396(8) 0.2497(8)
H12 H 0.1290 0.5839 0.2573
C40 C 0.1455(14) 0.3801(9) 0.3323(9)
C41 C 0.1914(13) 0.3198(9) 0.3294(9)
H13 H 0.2213 0.3071 0.2980
C42 C 0.1897(15) 0.2804(9) 0.3760(9)
H14 H 0.2232 0.2407 0.3766
C43 C 0.1022(14) 0.3506(9) 0.4216(9)
H15 H 0.0715 0.3610 0.4533
C44 C 0.0998(13) 0.3970(9) 0.3784(9)
H16 H 0.0688 0.4373 0.3807
N15 N 0.4345(11) 0.4409(6) 0.0741(7)
N16 N 0.1760(10) 0.5527(7) 0.0680(7)
N19 N 0.1521(10) 0.3332(6) 0.0711(6)
N20 N 0.6719(10) 0.4690(6) 0.0836(7)
N21 N 0.2907(12) 0.6278(7) 0.1758(7)
N22 N 0.5569(11) 0.5284(7) 0.1747(7)
N23 N 0.5718(11) 0.7356(6) 0.1662(6)
N24 N 0.2938(11) 0.2675(7) 0.1730(8)
N25 N 0.5734(10) 0.3709(6) 0.1739(6)
N26 N 0.4250(10) 0.1682(6) 0.3309(6)
N27 N 0.1367(9) 0.5203(6) 0.1965(6)
N28 N 0.1437(12) 0.2947(7) 0.4205(8)
Zn4 Zn 0.56194(14) 0.44892(8) 0.12675(8)
Zn5 Zn 0.11952(19) 0.59004(9) 0.13250(10)
C45 C 0.7116(12) 0.4961(7) 0.5552(7)
N31 N 0.6521(10) 0.1668(6) 0.5711(6)
N33 N 0.5718(11) 0.2644(6) 0.6662(6)
N35 N 0.7938(11) 0.2325(7) 0.6730(8)
N37 N 0.0750(10) 0.6682(6) 0.1691(6)
N38 N 0.9250(10) 0.6682(6) 0.3309(6)
Fe5 Fe 0.23136(17) 0.56249(9) 0.49471(10)
Fe6 Fe 0.76864(17) 0.56249(9) 0.00529(10)
Zn7 Zn 0.38048(19) 0.09004(9) 0.36750(10)
Zn8 Zn 0.61952(19) 0.09004(9) 0.13250(10)
Zn11 Zn 0.32303(14) 0.75504(8) 0.38238(8)
Zn12 Zn 0.67697(14) 0.75504(8) 0.11762(8)
Zn13 Zn 0.82303(14) 0.25504(8) 0.38238(8)
Zn14 Zn 0.17697(14) 0.25504(8) 0.11762(8)
C25 C 0.1035(14) 0.4352(7) 0.9442(9)
C26 C 0.2747(11) 0.3633(8) 0.9529(7)
N17 N 0.0310(11) 0.4342(7) 0.9109(7)
N18 N 0.3029(10) 0.3200(6) 0.9299(6)
Fe4 Fe 0.23136(17) 0.43751(9) 0.99471(10)
Zn6 Zn 0.32303(14) 0.24496(8) 0.88238(8)
C46 C 0.2884(12) 0.4961(7) 0.9448(7)
N32 N 0.3479(10) 0.1668(6) 0.9289(6)
N34 N 0.4282(11) 0.2644(6) 0.8338(6)
N36 N 0.2062(11) 0.2325(7) 0.8270(8)
N30 N 0.9690(11) 0.5658(7) 0.0891(7)
Zn10 Zn 0.88048(19) 0.40996(9) 0.86750(10)
C2_2 C 0.3074(11) 0.0104(8) 0.4597(7)
C7_2 C 0.1321(14) 0.1345(8) 0.2961(9)
H3_2 H 0.3588 0.0107 0.1681
C17_2 C 0.3655(14) 0.0396(8) 0.2503(8)
H4_2 H 0.3710 0.0839 0.2427
N2_2 N 0.3240(10) 0.0527(7) 0.4320(7)
N7_2 N 0.2093(12) 0.1278(7) 0.3242(7)
N13_2 N 0.3633(9) 0.0203(6) 0.3035(6)
Fe2_2 Fe 0.0000 0.13791(14) 0.2500
C28_2 C 0.2116(12) 0.0039(7) 0.0552(7)
C30_2 C 0.0390(13) 0.0715(8) 0.2009(8)
C31_2 C 0.0416(11) 0.2037(7) 0.1977(8)
N22_2 N 0.0569(11) 0.0284(7) 0.1747(7)
N23_2 N 0.0718(11) 0.2356(6) 0.1662(6)
N29_2 N 0.5310(11) 0.0658(7) 0.4109(7)
Fe6_2 Fe 0.26864(17) 0.06249(9) 0.00529(10)
C1_2 C 0.1422(14) 0.9366(8) 0.4562(8)
C3_2 C 0.3965(14) 0.9352(7) 0.5558(9)
C4_2 C 0.2253(11) 0.8633(8) 0.5471(7)
C5_2 C 0.3204(11) 0.8732(7) 0.4562(7)
C10_2 C 0.1281(14) 0.7678(7) 0.2976(9)
C12_2 C 0.0471(11) 0.7037(8) 0.2007(7)
C13_2 C 0.3548(14) 0.9556(8) 0.3125(8)
H1_2 H 0.3515 0.9418 0.3498
C14_2 C 0.3506(13) 0.9084(8) 0.2704(8)
H2_2 H 0.3450 0.8644 0.2791
C15_2 C 0.3551(14) 0.9294(8) 0.2136(9)
C16_2 C 0.3597(13) 0.9951(8) 0.2052(8)
C18_2 C 0.3545(14) 0.8801(9) 0.1677(9)
C19_2 C 0.3086(13) 0.8198(9) 0.1706(9)
H5_2 H 0.2787 0.8071 0.2020
C20_2 C 0.3103(15) 0.7804(9) 0.1240(9)
H6_2 H 0.2768 0.7407 0.1234
C21_2 C 0.3978(14) 0.8506(9) 0.0784(9)
H7_2 H 0.4285 0.8610 0.0467
C22_2 C 0.4002(13) 0.8970(9) 0.1216(9)
H8_2 H 0.4312 0.9373 0.1193
N1_2 N 0.0655(11) 0.9409(6) 0.4259(7)
N3_2 N 0.4690(11) 0.9342(7) 0.5891(7)
N4_2 N 0.1971(10) 0.8200(6) 0.5701(6)
N5_2 N 0.3479(10) 0.8332(6) 0.4289(6)
N10_2 N 0.2062(11) 0.7675(7) 0.3270(8)
N14_2 N 0.3563(12) 0.7947(7) 0.0795(8)
Fe1_2 Fe 0.26864(17) 0.93751(9) 0.50529(10)
Fe3_2 Fe 0.0000 0.76663(14) 0.2500
Zn3_2 Zn 0.17697(14) 0.74496(8) 0.61762(8)
C33_2 C 0.0461(11) 0.8318(7) 0.2050(7)
N20_2 N 0.1719(10) 0.9690(6) 0.0836(7)
N25_2 N 0.0734(10) 0.8709(6) 0.1739(6)
Zn4_2 Zn 0.06194(14) 0.94892(8) 0.12675(8)
C45_2 C 0.2116(12) 0.9961(7) 0.5552(7)
N31_2 N 0.1521(10) 0.6668(6) 0.5711(6)
N33_2 N 0.0718(11) 0.7644(6) 0.6662(6)
N35_2 N 0.2938(11) 0.7325(7) 0.6730(8)
Zn9_2 Zn 0.61952(19) 0.90996(9) 0.63250(10)
C6_2 C 0.7884(12) 0.0039(7) 0.4448(7)
C8_2 C 0.9610(13) 0.0715(8) 0.2991(8)
C9_2 C 0.9584(11) 0.2037(7) 0.3023(8)
N8_2 N 0.9431(11) 0.0284(7) 0.3253(7)
N9_2 N 0.9282(11) 0.2356(6) 0.3338(6)
Fe2_3 Fe 1.0000 0.13791(14) 0.2500
C24_2 C 0.6926(11) 0.0104(8) 0.0403(7)
C29_2 C 0.8679(14) 0.1345(8) 0.2039(9)
H11_2 H 0.6412 0.0107 0.3319
C39_2 C 0.6345(14) 0.0396(8) 0.2497(8)
H12_2 H 0.6290 0.0839 0.2573
N16_2 N 0.6760(10) 0.0527(7) 0.0680(7)
N21_2 N 0.7907(12) 0.1278(7) 0.1758(7)
N27_2 N 0.6367(9) 0.0203(6) 0.1965(6)
N30_2 N 0.4690(11) 0.0658(7) 0.0891(7)
Fe5_2 Fe 0.73136(17) 0.06249(9) 0.49471(10)
C11_2 C 0.9539(11) 0.8318(7) 0.2950(7)
N6_2 N 0.8281(10) 0.9690(6) 0.4164(7)
N11_2 N 0.9266(10) 0.8709(6) 0.3261(6)
Fe3_3 Fe 1.0000 0.76663(14) 0.2500
Zn1_2 Zn 0.93806(14) 0.94892(8) 0.37325(8)
C23_2 C 0.8578(14) 0.9366(8) 0.0438(8)
C27_2 C 0.6796(11) 0.8732(7) 0.0438(7)
C32_2 C 0.8719(14) 0.7678(7) 0.2024(9)
C34_2 C 0.9529(11) 0.7037(8) 0.2993(7)
C35_2 C 0.6452(14) 0.9556(8) 0.1875(8)
H9_2 H 0.6485 0.9418 0.1502
C36_2 C 0.6494(13) 0.9084(8) 0.2296(8)
H10_2 H 0.6550 0.8644 0.2209
C37_2 C 0.6449(14) 0.9294(8) 0.2864(9)
C38_2 C 0.6403(13) 0.9951(8) 0.2948(8)
C40_2 C 0.6455(14) 0.8801(9) 0.3323(9)
C41_2 C 0.6914(13) 0.8198(9) 0.3294(9)
H13_2 H 0.7213 0.8071 0.2980
C42_2 C 0.6897(15) 0.7804(9) 0.3760(9)
H14_2 H 0.7232 0.7407 0.3766
C43_2 C 0.6022(14) 0.8506(9) 0.4216(9)
H15_2 H 0.5715 0.8610 0.4533
C44_2 C 0.5998(13) 0.8970(9) 0.3784(9)
H16_2 H 0.5688 0.9373 0.3807
N15_2 N 0.9345(11) 0.9409(6) 0.0741(7)
N19_2 N 0.6521(10) 0.8332(6) 0.0711(6)
N24_2 N 0.7938(11) 0.7675(7) 0.1730(8)
N28_2 N 0.6437(12) 0.7947(7) 0.4205(8)
C25_2 C 0.6035(14) 0.9352(7) 0.9442(9)
C26_2 C 0.7747(11) 0.8633(8) 0.9529(7)
N17_2 N 0.5310(11) 0.9342(7) 0.9109(7)
N18_2 N 0.8029(10) 0.8200(6) 0.9299(6)
Fe4_2 Fe 0.73136(17) 0.93751(9) 0.99471(10)
Zn6_2 Zn 0.82303(14) 0.74496(8) 0.88238(8)
C46_2 C 0.7884(12) 0.9961(7) 0.9448(7)
N32_2 N 0.8479(10) 0.6668(6) 0.9289(6)
N34_2 N 0.9282(11) 0.7644(6) 0.8338(6)
N36_2 N 0.7062(11) 0.7325(7) 0.8270(8)
Zn10_2 Zn 0.38048(19) 0.90996(9) 0.86750(10)
C25_3 C 0.8965(14) 0.5648(7) 0.0558(9)
C26_3 C 0.7253(11) 0.6367(8) 0.0471(7)
N18_3 N 0.6971(10) 0.6800(6) 0.0701(6)
C1_3 C 0.3578(14) 0.5634(8) 0.5438(8)
C2_3 C 0.1926(11) 0.4896(8) 0.5403(7)
C3_3 C 0.1035(14) 0.5648(7) 0.4442(9)
C4_3 C 0.2747(11) 0.6367(8) 0.4529(7)
C5_3 C 0.1796(11) 0.6268(7) 0.5438(7)
C7_3 C 0.3679(14) 0.3655(8) 0.7039(9)
C8_3 C 0.5390(13) 0.4285(8) 0.7009(8)
C9_3 C 0.5416(11) 0.2963(7) 0.6977(8)
C10_3 C 0.3719(14) 0.7322(7) 0.7024(9)
C11_3 C 0.5461(11) 0.6682(7) 0.7050(7)
C12_3 C 0.4529(11) 0.7963(8) 0.7993(7)
C13_3 C 0.1452(14) 0.5444(8) 0.6875(8)
H1_3 H 0.1485 0.5582 0.6502
C14_3 C 0.1494(13) 0.5916(8) 0.7296(8)
H2_3 H 0.1550 0.6356 0.7209
C15_3 C 0.1449(14) 0.5706(8) 0.7864(9)
C16_3 C 0.1403(13) 0.5049(8) 0.7948(8)
H3_3 H 0.1412 0.4893 0.8319
C17_3 C 0.1345(14) 0.4604(8) 0.7497(8)
H4_3 H 0.1290 0.4161 0.7573
C18_3 C 0.1455(14) 0.6199(9) 0.8323(9)
C19_3 C 0.1914(13) 0.6802(9) 0.8294(9)
H5_3 H 0.2213 0.6929 0.7980
C20_3 C 0.1897(15) 0.7196(9) 0.8760(9)
H6_3 H 0.2232 0.7593 0.8766
C21_3 C 0.1022(14) 0.6494(9) 0.9216(9)
H7_3 H 0.0715 0.6390 0.9533
C22_3 C 0.0998(13) 0.6030(9) 0.8784(9)
H8_3 H 0.0688 0.5627 0.8807
N1_3 N 0.4345(11) 0.5591(6) 0.5741(7)
N2_3 N 0.1760(10) 0.4473(7) 0.5680(7)
N4_3 N 0.3029(10) 0.6800(6) 0.4299(6)
N6_3 N 0.6719(10) 0.5310(6) 0.5836(7)
N7_3 N 0.2907(12) 0.3722(7) 0.6758(7)
N8_3 N 0.5569(11) 0.4716(7) 0.6747(7)
N11_3 N 0.5734(10) 0.6291(6) 0.6739(6)
N12_2 N 0.4250(10) 0.8318(6) 0.8309(6)
N13_3 N 0.1367(9) 0.4797(6) 0.6965(6)
N14_3 N 0.1437(12) 0.7053(7) 0.9205(8)
Fe2_4 Fe 0.5000 0.36209(14) 0.7500
Fe3_4 Fe 0.5000 0.73337(14) 0.7500
Zn1_3 Zn 0.56194(14) 0.55108(8) 0.62675(8)
C23_3 C 0.6422(14) 0.5634(8) 0.9562(8)
C24_3 C 0.8074(11) 0.4896(8) 0.9597(7)
C27_3 C 0.8204(11) 0.6268(7) 0.9562(7)
C29_3 C 0.6321(14) 0.3655(8) 0.7961(9)
C30_3 C 0.4610(13) 0.4285(8) 0.7991(8)
C31_3 C 0.4584(11) 0.2963(7) 0.8023(8)
C32_3 C 0.6281(14) 0.7322(7) 0.7976(9)
C33_3 C 0.4539(11) 0.6682(7) 0.7950(7)
C34_3 C 0.5471(11) 0.7963(8) 0.7007(7)
C35_3 C 0.8548(14) 0.5444(8) 0.8125(8)
H9_3 H 0.8515 0.5582 0.8498
C36_3 C 0.8506(13) 0.5916(8) 0.7704(8)
H10_3 H 0.8450 0.6356 0.7791
C37_3 C 0.8551(14) 0.5706(8) 0.7136(9)
C38_3 C 0.8597(13) 0.5049(8) 0.7052(8)
H11_3 H 0.8588 0.4893 0.6681
C39_3 C 0.8655(14) 0.4604(8) 0.7503(8)
H12_3 H 0.8710 0.4161 0.7427
C40_3 C 0.8545(14) 0.6199(9) 0.6677(9)
C41_3 C 0.8086(13) 0.6802(9) 0.6706(9)
H13_3 H 0.7787 0.6929 0.7020
C42_3 C 0.8103(15) 0.7196(9) 0.6240(9)
H14_3 H 0.7768 0.7593 0.6234
C43_3 C 0.8978(14) 0.6494(9) 0.5784(9)
H15_3 H 0.9285 0.6390 0.5467
C44_3 C 0.9002(13) 0.6030(9) 0.6216(9)
H16_3 H 0.9312 0.5627 0.6193
N15_3 N 0.5655(11) 0.5591(6) 0.9259(7)
N16_3 N 0.8240(10) 0.4473(7) 0.9320(7)
N20_3 N 0.3281(10) 0.5310(6) 0.9164(7)
N21_3 N 0.7093(12) 0.3722(7) 0.8242(7)
N22_3 N 0.4431(11) 0.4716(7) 0.8253(7)
N25_3 N 0.4266(10) 0.6291(6) 0.8261(6)
N26_2 N 0.5750(10) 0.8318(6) 0.6691(6)
N27_3 N 0.8633(9) 0.4797(6) 0.8035(6)
N28_3 N 0.8563(12) 0.7053(7) 0.5795(8)
Zn4_3 Zn 0.43806(14) 0.55108(8) 0.87325(8)
N37_2 N 0.9250(10) 0.3318(6) 0.8309(6)
N38_2 N 0.0750(10) 0.3318(6) 0.6691(6)
C25_4 C 0.3965(14) 0.0648(7) 0.0558(9)
C26_4 C 0.2253(11) 0.1367(8) 0.0471(7)
N18_4 N 0.1971(10) 0.1800(6) 0.0701(6)
C11_4 C 0.0461(11) 0.1682(7) 0.7050(7)
N6_4 N 0.1719(10) 0.0310(6) 0.5836(7)
N11_4 N 0.0734(10) 0.1291(6) 0.6739(6)
Fe3_5 Fe -0.0000 0.23337(14) 0.7500
Zn1_4 Zn 0.06194(14) 0.05108(8) 0.62675(8)
C23_4 C 0.1422(14) 0.0634(8) 0.9562(8)
C27_4 C 0.3204(11) 0.1268(7) 0.9562(7)
C32_4 C 0.1281(14) 0.2322(7) 0.7976(9)
C34_4 C 0.0471(11) 0.2963(8) 0.7007(7)
C35_4 C 0.3548(14) 0.0444(8) 0.8125(8)
H9_4 H 0.3515 0.0582 0.8498
C36_4 C 0.3506(13) 0.0916(8) 0.7704(8)
H10_4 H 0.3450 0.1356 0.7791
C37_4 C 0.3551(14) 0.0706(8) 0.7136(9)
C38_4 C 0.3597(13) 0.0049(8) 0.7052(8)
C40_4 C 0.3545(14) 0.1199(9) 0.6677(9)
C41_4 C 0.3086(13) 0.1802(9) 0.6706(9)
H13_4 H 0.2787 0.1929 0.7020
C42_4 C 0.3103(15) 0.2196(9) 0.6240(9)
H14_4 H 0.2768 0.2593 0.6234
C43_4 C 0.3978(14) 0.1494(9) 0.5784(9)
H15_4 H 0.4285 0.1390 0.5467
C44_4 C 0.4002(13) 0.1030(9) 0.6216(9)
H16_4 H 0.4312 0.0627 0.6193
N15_4 N 0.0655(11) 0.0591(6) 0.9259(7)
N28_4 N 0.3563(12) 0.2053(7) 0.5795(8)
C8_4 C 0.0390(13) 0.9285(8) 0.7009(8)
C9_4 C 0.0416(11) 0.7963(7) 0.6977(8)
N8_4 N 0.0569(11) 0.9716(7) 0.6747(7)
Fe2_5 Fe -0.0000 0.86209(14) 0.7500
C24_4 C 0.3074(11) 0.9896(8) 0.9597(7)
C29_4 C 0.1321(14) 0.8655(8) 0.7961(9)
H11_4 H 0.3588 0.9893 0.6681
C39_4 C 0.3655(14) 0.9604(8) 0.7503(8)
H12_4 H 0.3710 0.9161 0.7427
N16_4 N 0.3240(10) 0.9473(7) 0.9320(7)
N21_4 N 0.2093(12) 0.8722(7) 0.8242(7)
N27_4 N 0.3633(9) 0.9797(6) 0.8035(6)
C1_4 C 0.8578(14) 0.0634(8) 0.5438(8)
C3_4 C 0.6035(14) 0.0648(7) 0.4442(9)
C4_4 C 0.7747(11) 0.1367(8) 0.4529(7)
C5_4 C 0.6796(11) 0.1268(7) 0.5438(7)
C10_4 C 0.8719(14) 0.2322(7) 0.7024(9)
C12_4 C 0.9529(11) 0.2963(8) 0.7993(7)
C13_4 C 0.6452(14) 0.0444(8) 0.6875(8)
H1_4 H 0.6485 0.0582 0.6502
C14_4 C 0.6494(13) 0.0916(8) 0.7296(8)
H2_4 H 0.6550 0.1356 0.7209
C15_4 C 0.6449(14) 0.0706(8) 0.7864(9)
C16_4 C 0.6403(13) 0.0049(8) 0.7948(8)
C18_4 C 0.6455(14) 0.1199(9) 0.8323(9)
C19_4 C 0.6914(13) 0.1802(9) 0.8294(9)
H5_4 H 0.7213 0.1929 0.7980
C20_4 C 0.6897(15) 0.2196(9) 0.8760(9)
H6_4 H 0.7232 0.2593 0.8766
C21_4 C 0.6022(14) 0.1494(9) 0.9216(9)
H7_4 H 0.5715 0.1390 0.9533
C22_4 C 0.5998(13) 0.1030(9) 0.8784(9)
H8_4 H 0.5688 0.0627 0.8807
N1_4 N 0.9345(11) 0.0591(6) 0.5741(7)
N4_4 N 0.8029(10) 0.1800(6) 0.4299(6)
N14_4 N 0.6437(12) 0.2053(7) 0.9205(8)
Fe3_6 Fe 1.0000 0.23337(14) 0.7500
C33_4 C 0.9539(11) 0.1682(7) 0.7950(7)
N20_4 N 0.8281(10) 0.0310(6) 0.9164(7)
N25_4 N 0.9266(10) 0.1291(6) 0.8261(6)
Zn4_4 Zn 0.93806(14) 0.05108(8) 0.87325(8)
C2_4 C 0.6926(11) 0.9896(8) 0.5403(7)
C7_4 C 0.8679(14) 0.8655(8) 0.7039(9)
H3_4 H 0.6412 0.9893 0.8319
C17_4 C 0.6345(14) 0.9604(8) 0.7497(8)
H4_4 H 0.6290 0.9161 0.7573
N2_4 N 0.6760(10) 0.9473(7) 0.5680(7)
N7_4 N 0.7907(12) 0.8722(7) 0.6758(7)
N13_4 N 0.6367(9) 0.9797(6) 0.6965(6)
Fe2_6 Fe 1.0000 0.86209(14) 0.7500
C30_4 C 0.9610(13) 0.9285(8) 0.7991(8)
C31_4 C 0.9584(11) 0.7963(7) 0.8023(8)
N22_4 N 0.9431(11) 0.9716(7) 0.8253(7)
loop_
_geom_bond_atom_site_label_1
_geom_bond_atom_site_label_2
_geom_bond_site_symmetry_1
_geom_bond_site_symmetry_2
C1 N1 1_555 1_555
C2 N2 1_555 1_555
C3 N3 1_555 1_555
C4 N4 1_555 1_555
C5 N5 1_555 1_555
C6 N6 1_555 1_555
C7 N7 1_555 1_555
C8 N8 1_555 1_555
C9 N9 1_555 1_555
C10 N10 1_555 1_555
C11 N11 1_555 1_555
C12 N12 1_555 1_555
C13 H1 1_555 1_555
C14 C13 1_555 1_555
H2 C14 1_555 1_555
C15 C14 1_555 1_555
C16 C15 1_555 1_555
H3 C16 1_555 1_555
C17 C16 1_555 1_555
H4 C17 1_555 1_555
C18 C15 1_555 1_555
C19 C18 1_555 1_555
H5 C19 1_555 1_555
C20 C19 1_555 1_555
H6 C20 1_555 1_555
C21 H7 1_555 1_555
C22 C18 1_555 1_555
H8 C22 1_555 1_555
N1 Zn1 1_555 1_555
N2 Zn2 1_555 1_555
N4 Zn3 1_555 1_555
N5 Zn13 1_555 1_555
N6 Zn1 1_555 1_555
N7 Zn2 1_555 1_555
N8 Zn1 1_555 1_555
N9 Zn11 1_555 1_555
N10 Zn13 1_555 1_555
N11 Zn1 1_555 1_555
N12 Zn8 1_555 1_555
N13 C13 1_555 1_555
N14 C20 1_555 1_555
Fe1 C1 1_555 1_555
Fe2 C7 1_555 1_555
Fe3 C10 1_555 1_555
Zn2 N13 1_555 1_555
Zn3 N31 1_555 1_555
C23 N15 1_555 1_555
C24 N16 1_555 1_555
C27 N19 1_555 1_555
C28 N20 1_555 1_555
C29 Fe2 1_555 1_555
C30 Fe2 1_555 1_555
C31 Fe2 1_555 1_555
C32 Fe3 1_555 1_555
C33 Fe3 1_555 1_555
C34 Fe3 1_555 1_555
C35 H9 1_555 1_555
C36 C35 1_555 1_555
H10 C36 1_555 1_555
C37 C36 1_555 1_555
C38 C37 1_555 1_555
H11 C38 1_555 1_555
C39 C38 1_555 1_555
H12 C39 1_555 1_555
C40 C37 1_555 1_555
C41 C40 1_555 1_555
H13 C41 1_555 1_555
C42 C41 1_555 1_555
H14 C42 1_555 1_555
C43 H15 1_555 1_555
C44 C40 1_555 1_555
H16 C44 1_555 1_555
N15 Zn4 1_555 1_555
N16 Zn5 1_555 1_555
N19 Zn14 1_555 1_555
N20 Zn4 1_555 1_555
N21 C29 1_555 1_555
N22 C30 1_555 1_555
N23 C31 1_555 1_555
N24 C32 1_555 1_555
N25 C33 1_555 1_555
N26 C34 1_555 1_555
N27 C35 1_555 1_555
N28 C42 1_555 1_555
Zn4 N22 1_555 1_555
Zn5 N21 1_555 1_555
C45 Fe1 1_555 1_555
N33 Zn3 1_555 1_555
N35 Zn3 1_555 1_555
N37 Zn5 1_555 1_555
N38 Zn2 1_555 1_555
Fe5 C6 1_555 1_555
Fe6 C28 1_555 1_555
Zn7 N26 1_555 1_555
Zn12 N23 1_555 1_555
Zn14 N24 1_555 1_555
C2 Fe1 1_555 1_555
C3 Fe1 1_555 1_555
C4 Fe1 1_555 1_555
C5 Fe1 1_555 1_555
C8 Fe2 1_555 1_555
C9 Fe2 1_555 1_555
C11 Fe3 1_555 1_555
C12 Fe3 1_555 1_555
C17 N13 1_555 1_555
C21 C22 1_555 1_555
C21 N14 1_555 1_555
C39 N27 1_555 1_555
C43 C44 1_555 1_555
C43 N28 1_555 1_555
N25 Zn4 1_555 1_555
N27 Zn5 1_555 1_555
C25 N17 1_555 1_555
C26 N18 1_555 1_555
N18 Zn6 1_555 1_555
Zn6 N32 1_555 1_555
C46 Fe4 1_555 1_555
N34 Zn6 1_555 1_555
N36 Zn6 1_555 1_555
C25 Fe4 1_555 1_555
C26 Fe4 1_555 1_555
C2_2 N2_2 1_555 1_555
C7_2 N7_2 1_555 1_555
H4_2 C17_2 1_555 1_555
N2_2 Zn7 1_555 1_555
N7_2 Zn7 1_555 1_555
Fe2_2 C7_2 1_555 1_555
Zn7 N13_2 1_555 1_555
C30_2 Fe2_2 1_555 1_555
C31_2 Fe2_2 1_555 1_555
N22_2 C30_2 1_555 1_555
N23_2 C31_2 1_555 1_555
N29_2 Zn7 1_555 1_555
Fe6_2 C28_2 1_555 1_555
Zn14 N23_2 1_555 1_555
C17_2 N13_2 1_555 1_555
C1_2 N1_2 1_555 1_555
C3_2 N3_2 1_555 1_555
C4_2 N4_2 1_555 1_555
C5_2 N5_2 1_555 1_555
C10_2 N10_2 1_555 1_555
C12_2 N37 1_555 1_555
C13_2 H1_2 1_555 1_555
C14_2 C13_2 1_555 1_555
H2_2 C14_2 1_555 1_555
C15_2 C14_2 1_555 1_555
C16_2 C15_2 1_555 1_555
C18_2 C15_2 1_555 1_555
C19_2 C18_2 1_555 1_555
H5_2 C19_2 1_555 1_555
C20_2 C19_2 1_555 1_555
H6_2 C20_2 1_555 1_555
C21_2 H7_2 1_555 1_555
C22_2 C18_2 1_555 1_555
H8_2 C22_2 1_555 1_555
N3_2 Zn9_2 1_555 1_555
N4_2 Zn3_2 1_555 1_555
N5_2 Zn11 1_555 1_555
N10_2 Zn11 1_555 1_555
N14_2 C20_2 1_555 1_555
Fe1_2 C1_2 1_555 1_555
Fe3_2 C10_2 1_555 1_555
Zn3_2 N31_2 1_555 1_555
C33_2 Fe3_2 1_555 1_555
N20_2 Zn4_2 1_555 1_555
N25_2 C33_2 1_555 1_555
C45_2 Fe1_2 1_555 1_555
N33_2 Zn3_2 1_555 1_555
N35_2 Zn3_2 1_555 1_555
C3_2 Fe1_2 1_555 1_555
C4_2 Fe1_2 1_555 1_555
C5_2 Fe1_2 1_555 1_555
C12_2 Fe3_2 1_555 1_555
C21_2 C22_2 1_555 1_555
C21_2 N14_2 1_555 1_555
N25_2 Zn4_2 1_555 1_555
C8_2 N8_2 1_555 1_555
C9_2 N9_2 1_555 1_555
N9_2 Zn13 1_555 1_555
C24_2 N16_2 1_555 1_555
C29_2 Fe2_3 1_555 1_555
H12_2 C39_2 1_555 1_555
N16_2 Zn8 1_555 1_555
N21_2 C29_2 1_555 1_555
Zn8 N21_2 1_555 1_555
N30_2 Zn8 1_555 1_555
Fe5_2 C6_2 1_555 1_555
C8_2 Fe2_3 1_555 1_555
C9_2 Fe2_3 1_555 1_555
C39_2 N27_2 1_555 1_555
N27_2 Zn8 1_555 1_555
C11_2 N11_2 1_555 1_555
N6_2 Zn1_2 1_555 1_555
N11_2 Zn1_2 1_555 1_555
C23_2 N15_2 1_555 1_555
C27_2 N19_2 1_555 1_555
C32_2 Fe3_3 1_555 1_555
C34_2 Fe3_3 1_555 1_555
C35_2 H9_2 1_555 1_555
C36_2 C35_2 1_555 1_555
H10_2 C36_2 1_555 1_555
C37_2 C36_2 1_555 1_555
C38_2 C37_2 1_555 1_555
C40_2 C37_2 1_555 1_555
C41_2 C40_2 1_555 1_555
H13_2 C41_2 1_555 1_555
C42_2 C41_2 1_555 1_555
H14_2 C42_2 1_555 1_555
C43_2 H15_2 1_555 1_555
C44_2 C40_2 1_555 1_555
H16_2 C44_2 1_555 1_555
N19_2 Zn12 1_555 1_555
N24_2 C32_2 1_555 1_555
N38 C34_2 1_555 1_555
N28_2 C42_2 1_555 1_555
Zn12 N24_2 1_555 1_555
C11_2 Fe3_3 1_555 1_555
C43_2 C44_2 1_555 1_555
C43_2 N28_2 1_555 1_555
C25_2 N17_2 1_555 1_555
C26_2 N18_2 1_555 1_555
N17_2 Zn10_2 1_555 1_555
N18_2 Zn6_2 1_555 1_555
Zn6_2 N32_2 1_555 1_555
C46_2 Fe4_2 1_555 1_555
N34_2 Zn6_2 1_555 1_555
N36_2 Zn6_2 1_555 1_555
C25_2 Fe4_2 1_555 1_555
C26_2 Fe4_2 1_555 1_555
C25_3 N30 1_555 1_555
C26_3 N18_3 1_555 1_555
N18_3 Zn12 1_555 1_555
C25_3 Fe6 1_555 1_555
C26_3 Fe6 1_555 1_555
C1_3 N1_3 1_555 1_555
C2_3 N2_3 1_555 1_555
C3_3 N29 1_555 1_555
C4_3 N4_3 1_555 1_555
C5_3 N31_2 1_555 1_555
C45 N6_3 1_555 1_555
C7_3 N7_3 1_555 1_555
C8_3 N8_3 1_555 1_555
C9_3 N33 1_555 1_555
C10_3 N35_2 1_555 1_555
C11_3 N11_3 1_555 1_555
C12_3 N12_2 1_555 1_555
C13_3 H1_3 1_555 1_555
C14_3 C13_3 1_555 1_555
H2_3 C14_3 1_555 1_555
C15_3 C14_3 1_555 1_555
C16_3 C15_3 1_555 1_555
H3_3 C16_3 1_555 1_555
C17_3 C16_3 1_555 1_555
H4_3 C17_3 1_555 1_555
C18_3 C15_3 1_555 1_555
C19_3 C18_3 1_555 1_555
H5_3 C19_3 1_555 1_555
C20_3 C19_3 1_555 1_555
H6_3 C20_3 1_555 1_555
C21_3 H7_3 1_555 1_555
C22_3 C18_3 1_555 1_555
H8_3 C22_3 1_555 1_555
N1_3 Zn1_3 1_555 1_555
N2_3 Zn9 1_555 1_555
N4_3 Zn11 1_555 1_555
N6_3 Zn1_3 1_555 1_555
N7_3 Zn9 1_555 1_555
N8_3 Zn1_3 1_555 1_555
N11_3 Zn1_3 1_555 1_555
N12_2 Zn10_2 1_555 1_555
N13_3 C13_3 1_555 1_555
N14_3 C20_3 1_555 1_555
Fe5 C1_3 1_555 1_555
Fe2_4 C7_3 1_555 1_555
Fe3_4 C10_3 1_555 1_555
Zn9 N13_3 1_555 1_555
C23_3 N15_3 1_555 1_555
C24_3 N16_3 1_555 1_555
C27_3 N32_2 1_555 1_555
C46 N20_3 1_555 1_555
C29_3 Fe2_4 1_555 1_555
C30_3 Fe2_4 1_555 1_555
C31_3 Fe2_4 1_555 1_555
C32_3 Fe3_4 1_555 1_555
C33_3 Fe3_4 1_555 1_555
C34_3 Fe3_4 1_555 1_555
C35_3 H9_3 1_555 1_555
C36_3 C35_3 1_555 1_555
H10_3 C36_3 1_555 1_555
C37_3 C36_3 1_555 1_555
C38_3 C37_3 1_555 1_555
H11_3 C38_3 1_555 1_555
C39_3 C38_3 1_555 1_555
H12_3 C39_3 1_555 1_555
C40_3 C37_3 1_555 1_555
C41_3 C40_3 1_555 1_555
H13_3 C41_3 1_555 1_555
C42_3 C41_3 1_555 1_555
H14_3 C42_3 1_555 1_555
C43_3 H15_3 1_555 1_555
C44_3 C40_3 1_555 1_555
H16_3 C44_3 1_555 1_555
N15_3 Zn4_3 1_555 1_555
N16_3 Zn10 1_555 1_555
N20_3 Zn4_3 1_555 1_555
N21_3 C29_3 1_555 1_555
N22_3 C30_3 1_555 1_555
N34 C31_3 1_555 1_555
N36_2 C32_3 1_555 1_555
N25_3 C33_3 1_555 1_555
N26_2 C34_3 1_555 1_555
N27_3 C35_3 1_555 1_555
N28_3 C42_3 1_555 1_555
Zn4_3 N22_3 1_555 1_555
Zn10 N21_3 1_555 1_555
N37_2 Zn10 1_555 1_555
N38_2 Zn9 1_555 1_555
Zn9_2 N26_2 1_555 1_555
C2_3 Fe5 1_555 1_555
C3_3 Fe5 1_555 1_555
C4_3 Fe5 1_555 1_555
C5_3 Fe5 1_555 1_555
C8_3 Fe2_4 1_555 1_555
C9_3 Fe2_4 1_555 1_555
C11_3 Fe3_4 1_555 1_555
C12_3 Fe3_4 1_555 1_555
C17_3 N13_3 1_555 1_555
C21_3 C22_3 1_555 1_555
C21_3 N14_3 1_555 1_555
C39_3 N27_3 1_555 1_555
C43_3 C44_3 1_555 1_555
C43_3 N28_3 1_555 1_555
N25_3 Zn4_3 1_555 1_555
N27_3 Zn10 1_555 1_555
C25_4 N30_2 1_555 1_555
C26_4 N18_4 1_555 1_555
N18_4 Zn14 1_555 1_555
C25_4 Fe6_2 1_555 1_555
C26_4 Fe6_2 1_555 1_555
C11_4 N11_4 1_555 1_555
N6_4 Zn1_4 1_555 1_555
N11_4 Zn1_4 1_555 1_555
C23_4 N15_4 1_555 1_555
C27_4 N32 1_555 1_555
C32_4 Fe3_5 1_555 1_555
C34_4 Fe3_5 1_555 1_555
C35_4 H9_4 1_555 1_555
C36_4 C35_4 1_555 1_555
H10_4 C36_4 1_555 1_555
C37_4 C36_4 1_555 1_555
C38_4 C37_4 1_555 1_555
C40_4 C37_4 1_555 1_555
C41_4 C40_4 1_555 1_555
H13_4 C41_4 1_555 1_555
C42_4 C41_4 1_555 1_555
H14_4 C42_4 1_555 1_555
C43_4 H15_4 1_555 1_555
C44_4 C40_4 1_555 1_555
H16_4 C44_4 1_555 1_555
N36 C32_4 1_555 1_555
N38_2 C34_4 1_555 1_555
N28_4 C42_4 1_555 1_555
C11_4 Fe3_5 1_555 1_555
C43_4 C44_4 1_555 1_555
C43_4 N28_4 1_555 1_555
C8_4 N8_4 1_555 1_555
C9_4 N33_2 1_555 1_555
C24_4 N16_4 1_555 1_555
C29_4 Fe2_5 1_555 1_555
H12_4 C39_4 1_555 1_555
N16_4 Zn10_2 1_555 1_555
N21_4 C29_4 1_555 1_555
Zn10_2 N21_4 1_555 1_555
C8_4 Fe2_5 1_555 1_555
C9_4 Fe2_5 1_555 1_555
C39_4 N27_4 1_555 1_555
N27_4 Zn10_2 1_555 1_555
C1_4 N1_4 1_555 1_555
C3_4 N29_2 1_555 1_555
C4_4 N4_4 1_555 1_555
C5_4 N31 1_555 1_555
C10_4 N35 1_555 1_555
C12_4 N37_2 1_555 1_555
C13_4 H1_4 1_555 1_555
C14_4 C13_4 1_555 1_555
H2_4 C14_4 1_555 1_555
C15_4 C14_4 1_555 1_555
C16_4 C15_4 1_555 1_555
C18_4 C15_4 1_555 1_555
C19_4 C18_4 1_555 1_555
H5_4 C19_4 1_555 1_555
C20_4 C19_4 1_555 1_555
H6_4 C20_4 1_555 1_555
C21_4 H7_4 1_555 1_555
C22_4 C18_4 1_555 1_555
H8_4 C22_4 1_555 1_555
N4_4 Zn13 1_555 1_555
N14_4 C20_4 1_555 1_555
Fe5_2 C1_4 1_555 1_555
Fe3_6 C10_4 1_555 1_555
C33_4 Fe3_6 1_555 1_555
N20_4 Zn4_4 1_555 1_555
N25_4 C33_4 1_555 1_555
C3_4 Fe5_2 1_555 1_555
C4_4 Fe5_2 1_555 1_555
C5_4 Fe5_2 1_555 1_555
C12_4 Fe3_6 1_555 1_555
C21_4 C22_4 1_555 1_555
C21_4 N14_4 1_555 1_555
N25_4 Zn4_4 1_555 1_555
C2_4 N2_4 1_555 1_555
C7_4 N7_4 1_555 1_555
H4_4 C17_4 1_555 1_555
N2_4 Zn9_2 1_555 1_555
N7_4 Zn9_2 1_555 1_555
Fe2_6 C7_4 1_555 1_555
Zn9_2 N13_4 1_555 1_555
C30_4 Fe2_6 1_555 1_555
C31_4 Fe2_6 1_555 1_555
N22_4 C30_4 1_555 1_555
N34_2 C31_4 1_555 1_555
C17_4 N13_4 1_555 1_555

#END
