
###############################################################################
#
# This file contains modified crystal structure data generated from the
# MOF subset of the Cambridge Structural Database (CSD) v543 
# hosted by the Cambridge Crystallographic Data Centre (CCDC).
#
# This work is licensed under the Creative Commons
# Attribution-NonCommercial-ShareAlike 4.0 International License.
# To view a copy of this license, visit
# http://creativecommons.org/licenses/by-nc-sa/4.0/
# or send a letter to
# Creative Commons, PO Box 1866, Mountain View, CA 94042, USA.
#
# CIF created using the CSD Python API on 29 September 2022
# The structure has been converted into the P1 space group
# The structure has a 3D framework
# The original CSD entry BIQVII is in the monoclinic crystal system
# The framework has been calculated to contain at least 10.0% void space
# The void calculation uses a probe of radius 1.32A, grid spacing 0.4
#
###############################################################################

data_BIQVII
_chemical_formula_moiety         '(C192 H88 Ce8 O118)n'
_symmetry_cell_setting           triclinic
_symmetry_space_group_name_H-M   'P 1'
_symmetry_Int_Tables_number      1
_space_group_name_Hall           'P 1'
loop_
_symmetry_equiv_pos_site_id
_symmetry_equiv_pos_as_xyz
1 x,y,z
_cell_length_a                   29.349(7)
_cell_length_b                   10.144(3)
_cell_length_c                   18.028(5)
_cell_angle_alpha                90
_cell_angle_beta                 104.217(3)
_cell_angle_gamma                90
_cell_volume                     5202.84
loop_
_atom_site_label
_atom_site_type_symbol
_atom_site_fract_x
_atom_site_fract_y
_atom_site_fract_z
O11 O 0.05244(11) 0.2035(3) 0.03973(18)
O13 O -0.00000(5) 0.01302(14) 0.25000(8)
H9 H 0.0721(12) 0.265(3) 0.048(2)
H10 H 0.0035(11) 0.418(3) 0.096(3)
C33 C 0.08664(11) 0.2098(3) 0.2780(2)
C34 C 0.43004(11) 0.3870(3) 0.4201(2)
C35 C 0.13918(11) 0.2192(3) 0.29186(19)
C36 C 0.15962(11) 0.2826(3) 0.24025(19)
H15 H 0.1410 0.3133 0.1941
C37 C 0.20813(11) 0.3004(3) 0.25754(18)
C38 C 0.23104(11) 0.3760(4) 0.20768(18)
C39 C 0.30549(11) 0.3531(3) 0.30140(18)
C40 C 0.35223(10) 0.3868(3) 0.32306(18)
H16 H 0.3656 0.4384 0.2914
C41 C 0.37936(11) 0.3423(3) 0.39358(19)
C42 C 0.35988(11) 0.2627(3) 0.44075(19)
H17 H 0.3782 0.2331 0.4874
C43 C 0.31244(11) 0.2277(3) 0.41720(18)
C44 C 0.29041(11) 0.1439(3) 0.46503(19)
C45 C 0.21503(11) 0.1806(3) 0.37504(18)
C46 C 0.16694(11) 0.1677(3) 0.35975(19)
H18 H 0.1531 0.1251 0.3943
C47 C 0.23591(11) 0.2493(3) 0.32581(18)
C48 C 0.28538(11) 0.2751(3) 0.34787(18)
Ce2 Ce 0.003370(6) 0.12684(2) 0.381143(10)
O20 O 0.07072(8) 0.1895(3) 0.33543(14)
O21 O 0.06227(8) 0.2252(2) 0.21078(14)
O22 O 0.45137(8) 0.3614(3) 0.48735(13)
O23 O 0.44748(8) 0.4479(3) 0.37377(14)
O24 O 0.21163(8) 0.4199(2) 0.14556(14)
O25 O 0.31002(8) 0.0882(2) 0.52283(14)
O27 O 0.01834(12) 0.3674(3) 0.4049(2)
O28 O 0.24187(5) 0.12946(14) 0.44288(8)
O29 O 0.27858(5) 0.39838(14) 0.23151(8)
H22 H 0.0403(12) 0.404(4) 0.392(2)
Ce4 Ce 0.503370(6) 0.62684(2) 0.381143(10)
Ce7 Ce 0.496630(6) 0.37316(2) 0.618857(10)
O31 O 0.04863(8) 0.1386(3) 0.51265(13)
H7 H 0.0231 0.9627 0.2603
O32 O 0.05252(8) 0.9479(3) 0.12623(14)
O34 O 0.06036(8) 0.9343(2) 0.40984(13)
C1 C 0.91336(11) 0.2098(3) 0.2220(2)
C2 C 0.56996(11) 0.3870(3) 0.0799(2)
C3 C 0.86082(11) 0.2192(3) 0.20814(19)
C4 C 0.84038(11) 0.2826(3) 0.25975(19)
H1 H 0.8590 0.3133 0.3059
C5 C 0.79187(11) 0.3004(3) 0.24246(18)
C6 C 0.76896(11) 0.3760(4) 0.29232(18)
C7 C 0.69451(11) 0.3531(3) 0.19860(18)
C8 C 0.64777(10) 0.3868(3) 0.17694(18)
H2 H 0.6344 0.4384 0.2086
C9 C 0.62064(11) 0.3423(3) 0.10642(19)
C10 C 0.64012(11) 0.2627(3) 0.05925(19)
H3 H 0.6218 0.2331 0.0126
C11 C 0.68756(11) 0.2277(3) 0.08280(18)
C12 C 0.70959(11) 0.1439(3) 0.03497(19)
C13 C 0.78497(11) 0.1806(3) 0.12496(18)
C14 C 0.83306(11) 0.1677(3) 0.14025(19)
H4 H 0.8469 0.1251 0.1057
C15 C 0.76409(11) 0.2493(3) 0.17419(18)
C16 C 0.71462(11) 0.2751(3) 0.15213(18)
Ce1 Ce 0.996630(6) 0.12684(2) 0.118857(10)
O1 O 0.92928(8) 0.1895(3) 0.16457(14)
O2 O 0.93773(8) 0.2252(2) 0.28922(14)
O3 O 0.54863(8) 0.3614(3) 0.01265(13)
O4 O 0.55252(8) 0.4479(3) 0.12623(14)
O5 O 0.78837(8) 0.4199(2) 0.35444(14)
O12 O 0.98166(12) 0.3674(3) 0.0951(2)
O13_2 O 1.00000(5) 0.01302(14) 0.25000(8)
O14 O 0.75813(5) 0.12946(14) 0.05712(8)
O15 O 0.72142(5) 0.39838(14) 0.26849(8)
H11 H 0.9597(12) 0.404(4) 0.108(2)
O26 O 0.94756(11) 0.2035(3) 0.46027(18)
H19 H 0.9458(13) 0.164(3) 0.5006(15)
H20 H 0.9279(12) 0.265(3) 0.452(2)
H21 H 0.9965(11) 0.418(3) 0.404(3)
Ce3 Ce 0.496630(6) 0.62684(2) 0.118857(10)
O6 O 0.68998(8) 0.0882(2) 0.97717(14)
Ce6 Ce 0.503370(6) 0.37316(2) 0.881143(10)
O30 O 0.95137(8) 0.1386(3) 0.98735(13)
C17 C 0.91388(11) 0.8825(4) 0.1292(2)
C18 C 0.86508(11) 0.8385(3) 0.08847(19)
C19 C 0.84408(11) 0.8849(3) 0.01507(19)
C23 C 0.77375(11) 0.7672(3) 0.01806(19)
C24 C 0.84040(11) 0.7555(3) 0.12610(19)
H6 H 0.8544 0.7255 0.1752
O7 O 0.93964(8) 0.9343(2) 0.09016(13)
O8 O 0.92552(8) 0.8671(3) 0.20019(14)
H12 H 0.6392 0.5612 0.0106
C28 C 0.70152(11) 0.6497(3) 0.01888(18)
C29 C 0.76791(11) 0.6302(4) 0.1285(2)
C30 C 0.79493(11) 0.7175(3) 0.09034(18)
O18 O 0.78238(8) 0.5836(2) 0.19144(14)
O19 O 0.72235(7) 0.5991(2) 0.09080(13)
H14 H 0.9769 0.9627 0.2397
O33 O 0.94748(8) 0.9479(3) 0.37377(14)
H5 H 0.8608 0.9388 0.9894
C20 C 0.79848(11) 0.8503(3) 0.98112(18)
C21 C 0.73209(11) 0.8698(4) 0.8715(2)
C22 C 0.70507(11) 0.7825(3) 0.90966(18)
O9 O 0.71762(8) 0.9164(2) 0.80856(14)
O10 O 0.77765(7) 0.9009(2) 0.90920(13)
C25 C 0.58612(11) 0.6175(4) 0.8708(2)
C26 C 0.63492(11) 0.6615(3) 0.91153(19)
C27 C 0.65592(11) 0.6151(3) 0.98493(19)
C31 C 0.72625(11) 0.7328(3) 0.98194(19)
C32 C 0.65960(11) 0.7445(3) 0.87390(19)
H13 H 0.6456 0.7745 0.8248
O16 O 0.56036(8) 0.5657(2) 0.90984(13)
O17 O 0.57448(8) 0.6329(3) 0.79981(14)
C17_2 C 0.08612(11) 0.8825(4) 0.3708(2)
C18_2 C 0.13492(11) 0.8385(3) 0.41153(19)
C19_2 C 0.15592(11) 0.8849(3) 0.48493(19)
H5_2 H 0.1392 0.9388 0.5106
C20_2 C 0.20152(11) 0.8503(3) 0.51888(18)
C21_2 C 0.26791(11) 0.8698(4) 0.6285(2)
C22_2 C 0.29493(11) 0.7825(3) 0.59034(18)
C23_2 C 0.22625(11) 0.7672(3) 0.48194(19)
C24_2 C 0.15960(11) 0.7555(3) 0.37390(19)
H6_2 H 0.1456 0.7255 0.3248
O8_2 O 0.07448(8) 0.8671(3) 0.29981(14)
O9_2 O 0.28238(8) 0.9164(2) 0.69144(14)
O10_2 O 0.22235(7) 0.9009(2) 0.59080(13)
C25_2 C 0.41388(11) 0.6175(4) 0.6292(2)
C26_2 C 0.36508(11) 0.6615(3) 0.58847(19)
C27_2 C 0.34408(11) 0.6151(3) 0.51507(19)
H12_2 H 0.3608 0.5612 0.4894
C28_2 C 0.29848(11) 0.6497(3) 0.48112(18)
C29_2 C 0.23209(11) 0.6302(4) 0.3715(2)
C30_2 C 0.20507(11) 0.7175(3) 0.40966(18)
C31_2 C 0.27375(11) 0.7328(3) 0.51806(19)
C32_2 C 0.34040(11) 0.7445(3) 0.62610(19)
H13_2 H 0.3544 0.7745 0.6752
O16_2 O 0.43964(8) 0.5657(2) 0.59016(13)
O17_2 O 0.42552(8) 0.6329(3) 0.70019(14)
O18_2 O 0.21762(8) 0.5836(2) 0.30856(14)
O19_2 O 0.27765(7) 0.5991(2) 0.40920(13)
C1_2 C 0.41336(11) 0.7098(3) 0.2220(2)
C2_2 C 0.06996(11) 0.8870(3) 0.0799(2)
C3_2 C 0.36082(11) 0.7192(3) 0.20814(19)
C4_2 C 0.34038(11) 0.7826(3) 0.25975(19)
H1_2 H 0.3590 0.8133 0.3059
C5_2 C 0.29187(11) 0.8004(3) 0.24246(18)
C6_2 C 0.26896(11) 0.8760(4) 0.29232(18)
C7_2 C 0.19451(11) 0.8531(3) 0.19860(18)
C8_2 C 0.14777(10) 0.8868(3) 0.17694(18)
H2_2 H 0.1344 0.9384 0.2086
C9_2 C 0.12064(11) 0.8423(3) 0.10642(19)
C10_2 C 0.14012(11) 0.7627(3) 0.05925(19)
H3_2 H 0.1218 0.7331 0.0126
C11_2 C 0.18756(11) 0.7277(3) 0.08280(18)
C12_2 C 0.20959(11) 0.6439(3) 0.03497(19)
C13_2 C 0.28497(11) 0.6806(3) 0.12496(18)
C14_2 C 0.33306(11) 0.6677(3) 0.14025(19)
H4_2 H 0.3469 0.6251 0.1057
C15_2 C 0.26409(11) 0.7493(3) 0.17419(18)
C16_2 C 0.21462(11) 0.7751(3) 0.15213(18)
C17_3 C 0.41388(11) 0.3825(4) 0.1292(2)
C18_3 C 0.36508(11) 0.3385(3) 0.08847(19)
C19_3 C 0.34408(11) 0.3849(3) 0.01507(19)
C23_3 C 0.27375(11) 0.2672(3) 0.01806(19)
C24_3 C 0.34040(11) 0.2555(3) 0.12610(19)
H6_3 H 0.3544 0.2255 0.1752
O1_2 O 0.42928(8) 0.6895(3) 0.16457(14)
O2_2 O 0.43773(8) 0.7252(2) 0.28922(14)
O3_2 O 0.04863(8) 0.8614(3) 0.01265(13)
O5_2 O 0.28837(8) 0.9199(2) 0.35444(14)
O7_2 O 0.43964(8) 0.4343(2) 0.09016(13)
O8_3 O 0.42552(8) 0.3671(3) 0.20019(14)
O11_2 O 0.55244(11) 0.7035(3) 0.03973(18)
O12_2 O 0.48166(12) 0.8674(3) 0.0951(2)
O13_3 O 0.50000(5) 0.51302(14) 0.25000(8)
O14_2 O 0.25813(5) 0.62946(14) 0.05712(8)
O15_2 O 0.22142(5) 0.89838(14) 0.26849(8)
H7_2 H 0.5231 0.4627 0.2603
H9_2 H 0.5721(12) 0.765(3) 0.048(2)
H10_2 H 0.5035(11) 0.918(3) 0.096(3)
H11_2 H 0.4597(12) 0.904(4) 0.108(2)
H12_3 H 0.1392 0.0612 0.0106
C28_3 C 0.20152(11) 0.1497(3) 0.01888(18)
C29_3 C 0.26791(11) 0.1302(4) 0.1285(2)
C30_3 C 0.29493(11) 0.2175(3) 0.09034(18)
O18_3 O 0.28238(8) 0.0836(2) 0.19144(14)
O19_3 O 0.22235(7) 0.0991(2) 0.09080(13)
H14_2 H 0.4769 0.4627 0.2397
C33_2 C 0.58664(11) 0.7098(3) 0.2780(2)
C34_2 C 0.93004(11) 0.8870(3) 0.4201(2)
C35_2 C 0.63918(11) 0.7192(3) 0.29186(19)
C36_2 C 0.65962(11) 0.7826(3) 0.24025(19)
H15_2 H 0.6410 0.8133 0.1941
C37_2 C 0.70813(11) 0.8004(3) 0.25754(18)
C38_2 C 0.73104(11) 0.8760(4) 0.20768(18)
C39_2 C 0.80549(11) 0.8531(3) 0.30140(18)
C40_2 C 0.85223(10) 0.8868(3) 0.32306(18)
H16_2 H 0.8656 0.9384 0.2914
C41_2 C 0.87936(11) 0.8423(3) 0.39358(19)
C42_2 C 0.85988(11) 0.7627(3) 0.44075(19)
H17_2 H 0.8782 0.7331 0.4874
C43_2 C 0.81244(11) 0.7277(3) 0.41720(18)
C44_2 C 0.79041(11) 0.6439(3) 0.46503(19)
C45_2 C 0.71503(11) 0.6806(3) 0.37504(18)
C46_2 C 0.66694(11) 0.6677(3) 0.35975(19)
H18_2 H 0.6531 0.6251 0.3943
C47_2 C 0.73591(11) 0.7493(3) 0.32581(18)
C48_2 C 0.78538(11) 0.7751(3) 0.34787(18)
O20_2 O 0.57072(8) 0.6895(3) 0.33543(14)
O21_2 O 0.56227(8) 0.7252(2) 0.21078(14)
O22_2 O 0.95137(8) 0.8614(3) 0.48735(13)
O24_2 O 0.71163(8) 0.9199(2) 0.14556(14)
O25_2 O 0.81002(8) 0.5882(2) 0.52283(14)
O26_2 O 0.44756(11) 0.7035(3) 0.46027(18)
O27_2 O 0.51834(12) 0.8674(3) 0.4049(2)
O28_2 O 0.74187(5) 0.62946(14) 0.44288(8)
O29_2 O 0.77858(5) 0.89838(14) 0.23151(8)
H19_2 H 0.4458(13) 0.664(3) 0.5006(15)
H20_2 H 0.4279(12) 0.765(3) 0.452(2)
H21_2 H 0.4965(11) 0.918(3) 0.404(3)
H22_2 H 0.5403(12) 0.904(4) 0.392(2)
Ce7_2 Ce 0.996630(6) 0.87316(2) 0.618857(10)
O31_2 O 0.54863(8) 0.6386(3) 0.51265(13)
O34_2 O 0.56036(8) 0.4343(2) 0.40984(13)
H5_3 H 0.3608 0.4388 0.9894
C20_3 C 0.29848(11) 0.3503(3) 0.98112(18)
C21_3 C 0.23209(11) 0.3698(4) 0.8715(2)
C22_3 C 0.20507(11) 0.2825(3) 0.90966(18)
O6_2 O 0.18998(8) 0.5882(2) 0.97717(14)
O9_3 O 0.21762(8) 0.4164(2) 0.80856(14)
O10_3 O 0.27765(7) 0.4009(2) 0.90920(13)
H8 H 0.5542(13) 0.664(3) 0.9994(15)
C25_3 C 0.08612(11) 0.1175(4) 0.8708(2)
C26_3 C 0.13492(11) 0.1615(3) 0.91153(19)
C27_3 C 0.15592(11) 0.1151(3) 0.98493(19)
C31_3 C 0.22625(11) 0.2328(3) 0.98194(19)
C32_3 C 0.15960(11) 0.2445(3) 0.87390(19)
H13_3 H 0.1456 0.2745 0.8248
O16_3 O 0.06036(8) 0.0657(2) 0.90984(13)
O17_3 O 0.07448(8) 0.1329(3) 0.79981(14)
Ce6_2 Ce 0.003370(6) 0.87316(2) 0.881143(10)
O30_2 O 0.45137(8) 0.6386(3) 0.98735(13)
C17_4 C 0.58612(11) 0.3825(4) 0.3708(2)
C18_4 C 0.63492(11) 0.3385(3) 0.41153(19)
C19_4 C 0.65592(11) 0.3849(3) 0.48493(19)
H5_4 H 0.6392 0.4388 0.5106
C20_4 C 0.70152(11) 0.3503(3) 0.51888(18)
C21_4 C 0.76791(11) 0.3698(4) 0.6285(2)
C22_4 C 0.79493(11) 0.2825(3) 0.59034(18)
C23_4 C 0.72625(11) 0.2672(3) 0.48194(19)
C24_4 C 0.65960(11) 0.2555(3) 0.37390(19)
H6_4 H 0.6456 0.2255 0.3248
O8_4 O 0.57448(8) 0.3671(3) 0.29981(14)
O9_4 O 0.78238(8) 0.4164(2) 0.69144(14)
O10_4 O 0.72235(7) 0.4009(2) 0.59080(13)
C25_4 C 0.91388(11) 0.1175(4) 0.6292(2)
C26_4 C 0.86508(11) 0.1615(3) 0.58847(19)
C27_4 C 0.84408(11) 0.1151(3) 0.51507(19)
H12_4 H 0.8608 0.0612 0.4894
C28_4 C 0.79848(11) 0.1497(3) 0.48112(18)
C29_4 C 0.73209(11) 0.1302(4) 0.3715(2)
C30_4 C 0.70507(11) 0.2175(3) 0.40966(18)
C31_4 C 0.77375(11) 0.2328(3) 0.51806(19)
C32_4 C 0.84040(11) 0.2445(3) 0.62610(19)
H13_4 H 0.8544 0.2745 0.6752
O16_4 O 0.93964(8) 0.0657(2) 0.59016(13)
O17_4 O 0.92552(8) 0.1329(3) 0.70019(14)
O18_4 O 0.71762(8) 0.0836(2) 0.30856(14)
O19_4 O 0.77765(7) 0.0991(2) 0.40920(13)
H14_3 H 0.0231 0.0373 0.7603
O33_2 O 0.05252(8) 0.0521(3) 0.62623(14)
O6_3 O 0.31002(8) 0.9118(2) 0.02283(14)
C1_3 C 0.08664(11) 0.7902(3) 0.7780(2)
C2_3 C 0.43004(11) 0.6130(3) 0.9201(2)
C3_3 C 0.13918(11) 0.7808(3) 0.79186(19)
C4_3 C 0.15962(11) 0.7174(3) 0.74025(19)
H1_3 H 0.1410 0.6867 0.6941
C5_3 C 0.20813(11) 0.6996(3) 0.75754(18)
C6_3 C 0.23104(11) 0.6240(4) 0.70768(18)
C7_3 C 0.30549(11) 0.6469(3) 0.80140(18)
C8_3 C 0.35223(10) 0.6132(3) 0.82306(18)
H2_3 H 0.3656 0.5616 0.7914
C9_3 C 0.37936(11) 0.6577(3) 0.89358(19)
C10_3 C 0.35988(11) 0.7373(3) 0.94075(19)
H3_3 H 0.3782 0.7669 0.9874
C11_3 C 0.31244(11) 0.7723(3) 0.91720(18)
C12_3 C 0.29041(11) 0.8561(3) 0.96503(19)
C13_3 C 0.21503(11) 0.8194(3) 0.87504(18)
C14_3 C 0.16694(11) 0.8323(3) 0.85975(19)
H4_3 H 0.1531 0.8749 0.8943
C15_3 C 0.23591(11) 0.7507(3) 0.82581(18)
C16_3 C 0.28538(11) 0.7249(3) 0.84787(18)
O1_3 O 0.07072(8) 0.8105(3) 0.83543(14)
O2_3 O 0.06227(8) 0.7748(2) 0.71078(14)
O4_2 O 0.44748(8) 0.5521(3) 0.87377(14)
O5_3 O 0.21163(8) 0.5801(2) 0.64556(14)
O12_3 O 0.01834(12) 0.6326(3) 0.9049(2)
O13_4 O -0.00000(5) 0.98698(14) 0.75000(8)
O14_3 O 0.24187(5) 0.87054(14) 0.94288(8)
O15_3 O 0.27858(5) 0.60162(14) 0.73151(8)
H11_3 H 0.0403(12) 0.596(4) 0.892(2)
O26_3 O 0.05244(11) 0.7965(3) 0.53973(18)
H19_3 H 0.0542(13) 0.836(3) 0.4994(15)
H20_3 H 0.0721(12) 0.735(3) 0.548(2)
H21_3 H 0.0035(11) 0.582(3) 0.596(3)
H7_3 H 0.9769 0.0373 0.7397
O32_2 O 0.94748(8) 0.0521(3) 0.87377(14)
O11_3 O 0.94756(11) 0.7965(3) 0.96027(18)
O13_5 O 1.00000(5) 0.98698(14) 0.75000(8)
H9_3 H 0.9279(12) 0.735(3) 0.952(2)
H10_3 H 0.9965(11) 0.582(3) 0.904(3)
C33_3 C 0.91336(11) 0.7902(3) 0.7220(2)
C34_3 C 0.56996(11) 0.6130(3) 0.5799(2)
C35_3 C 0.86082(11) 0.7808(3) 0.70814(19)
C36_3 C 0.84038(11) 0.7174(3) 0.75975(19)
H15_3 H 0.8590 0.6867 0.8059
C37_3 C 0.79187(11) 0.6996(3) 0.74246(18)
C38_3 C 0.76896(11) 0.6240(4) 0.79232(18)
C39_3 C 0.69451(11) 0.6469(3) 0.69860(18)
C40_3 C 0.64777(10) 0.6132(3) 0.67694(18)
H16_3 H 0.6344 0.5616 0.7086
C41_3 C 0.62064(11) 0.6577(3) 0.60642(19)
C42_3 C 0.64012(11) 0.7373(3) 0.55925(19)
H17_3 H 0.6218 0.7669 0.5126
C43_3 C 0.68756(11) 0.7723(3) 0.58280(18)
C44_3 C 0.70959(11) 0.8561(3) 0.53497(19)
C45_3 C 0.78497(11) 0.8194(3) 0.62496(18)
C46_3 C 0.83306(11) 0.8323(3) 0.64025(19)
H18_3 H 0.8469 0.8749 0.6057
C47_3 C 0.76409(11) 0.7507(3) 0.67419(18)
C48_3 C 0.71462(11) 0.7249(3) 0.65213(18)
O20_3 O 0.92928(8) 0.8105(3) 0.66457(14)
O21_3 O 0.93773(8) 0.7748(2) 0.78922(14)
O23_2 O 0.55252(8) 0.5521(3) 0.62623(14)
O24_3 O 0.78837(8) 0.5801(2) 0.85444(14)
O25_3 O 0.68998(8) 0.9118(2) 0.47717(14)
O27_3 O 0.98166(12) 0.6326(3) 0.5951(2)
O28_3 O 0.75813(5) 0.87054(14) 0.55712(8)
O29_3 O 0.72142(5) 0.60162(14) 0.76849(8)
H22_3 H 0.9597(12) 0.596(4) 0.608(2)
O6_4 O 0.81002(8) 0.4118(2) 0.02283(14)
H8_2 H 0.4458(13) 0.336(3) 0.0006(15)
C1_4 C 0.58664(11) 0.2902(3) 0.7780(2)
C2_4 C 0.93004(11) 0.1130(3) 0.9201(2)
C3_4 C 0.63918(11) 0.2808(3) 0.79186(19)
C4_4 C 0.65962(11) 0.2174(3) 0.74025(19)
H1_4 H 0.6410 0.1867 0.6941
C5_4 C 0.70813(11) 0.1996(3) 0.75754(18)
C6_4 C 0.73104(11) 0.1240(4) 0.70768(18)
C7_4 C 0.80549(11) 0.1469(3) 0.80140(18)
C8_4 C 0.85223(10) 0.1132(3) 0.82306(18)
H2_4 H 0.8656 0.0616 0.7914
C9_4 C 0.87936(11) 0.1577(3) 0.89358(19)
C10_4 C 0.85988(11) 0.2373(3) 0.94075(19)
H3_4 H 0.8782 0.2669 0.9874
C11_4 C 0.81244(11) 0.2723(3) 0.91720(18)
C12_4 C 0.79041(11) 0.3561(3) 0.96503(19)
C13_4 C 0.71503(11) 0.3194(3) 0.87504(18)
C14_4 C 0.66694(11) 0.3323(3) 0.85975(19)
H4_4 H 0.6531 0.3749 0.8943
C15_4 C 0.73591(11) 0.2507(3) 0.82581(18)
C16_4 C 0.78538(11) 0.2249(3) 0.84787(18)
O1_4 O 0.57072(8) 0.3105(3) 0.83543(14)
O2_4 O 0.56227(8) 0.2748(2) 0.71078(14)
O5_4 O 0.71163(8) 0.0801(2) 0.64556(14)
O11_4 O 0.44756(11) 0.2965(3) 0.96027(18)
O12_4 O 0.51834(12) 0.1326(3) 0.9049(2)
O13_6 O 0.50000(5) 0.48698(14) 0.75000(8)
O14_4 O 0.74187(5) 0.37054(14) 0.94288(8)
O15_4 O 0.77858(5) 0.10162(14) 0.73151(8)
H7_4 H 0.4769 0.5373 0.7397
H9_4 H 0.4279(12) 0.235(3) 0.952(2)
H10_4 H 0.4965(11) 0.082(3) 0.904(3)
H11_4 H 0.5403(12) 0.096(4) 0.892(2)
H14_4 H 0.5231 0.5373 0.7603
C33_4 C 0.41336(11) 0.2902(3) 0.7220(2)
C34_4 C 0.06996(11) 0.1130(3) 0.5799(2)
C35_4 C 0.36082(11) 0.2808(3) 0.70814(19)
C36_4 C 0.34038(11) 0.2174(3) 0.75975(19)
H15_4 H 0.3590 0.1867 0.8059
C37_4 C 0.29187(11) 0.1996(3) 0.74246(18)
C38_4 C 0.26896(11) 0.1240(4) 0.79232(18)
C39_4 C 0.19451(11) 0.1469(3) 0.69860(18)
C40_4 C 0.14777(10) 0.1132(3) 0.67694(18)
H16_4 H 0.1344 0.0616 0.7086
C41_4 C 0.12064(11) 0.1577(3) 0.60642(19)
C42_4 C 0.14012(11) 0.2373(3) 0.55925(19)
H17_4 H 0.1218 0.2669 0.5126
C43_4 C 0.18756(11) 0.2723(3) 0.58280(18)
C44_4 C 0.20959(11) 0.3561(3) 0.53497(19)
C45_4 C 0.28497(11) 0.3194(3) 0.62496(18)
C46_4 C 0.33306(11) 0.3323(3) 0.64025(19)
H18_4 H 0.3469 0.3749 0.6057
C47_4 C 0.26409(11) 0.2507(3) 0.67419(18)
C48_4 C 0.21462(11) 0.2249(3) 0.65213(18)
O20_4 O 0.42928(8) 0.3105(3) 0.66457(14)
O21_4 O 0.43773(8) 0.2748(2) 0.78922(14)
O24_4 O 0.28837(8) 0.0801(2) 0.85444(14)
O25_4 O 0.18998(8) 0.4118(2) 0.47717(14)
O26_4 O 0.55244(11) 0.2965(3) 0.53973(18)
O27_4 O 0.48166(12) 0.1326(3) 0.5951(2)
O28_4 O 0.25813(5) 0.37054(14) 0.55712(8)
O29_4 O 0.22142(5) 0.10162(14) 0.76849(8)
H19_4 H 0.5542(13) 0.336(3) 0.4994(15)
H20_4 H 0.5721(12) 0.235(3) 0.548(2)
H21_4 H 0.5035(11) 0.082(3) 0.596(3)
H22_4 H 0.4597(12) 0.096(4) 0.608(2)
H8_3 H 0.0542(13) 0.164(3) 0.9994(15)
H8_4 H 0.9458(13) 0.836(3) 0.0006(15)
loop_
_geom_bond_atom_site_label_1
_geom_bond_atom_site_label_2
_geom_bond_site_symmetry_1
_geom_bond_site_symmetry_2
H9 O11 1_555 1_555
C33 C35 1_555 1_555
C34 C41 1_555 1_555
C35 C36 1_555 1_555
C36 H15 1_555 1_555
C37 C36 1_555 1_555
C38 C37 1_555 1_555
C39 C40 1_555 1_555
C40 H16 1_555 1_555
C41 C40 1_555 1_555
C42 C41 1_555 1_555
H17 C42 1_555 1_555
C43 C42 1_555 1_555
C44 C43 1_555 1_555
C45 C46 1_555 1_555
C46 C35 1_555 1_555
H18 C46 1_555 1_555
C47 C37 1_555 1_555
C48 C39 1_555 1_555
O20 C33 1_555 1_555
O22 C34 1_555 1_555
O23 C34 1_555 1_555
O24 C38 1_555 1_555
O25 C44 1_555 1_555
O27 Ce2 1_555 1_555
O28 C44 1_555 1_555
O29 C38 1_555 1_555
H22 O27 1_555 1_555
Ce4 O23 1_555 1_555
Ce7 O22 1_555 1_555
O31 Ce2 1_555 1_555
O13 Ce2 1_555 1_555
C33 O21 1_555 1_555
C39 O29 1_555 1_555
C43 C48 1_555 1_555
C45 C47 1_555 1_555
C45 O28 1_555 1_555
C47 C48 1_555 1_555
Ce2 O20 1_555 1_555
C1 C3 1_555 1_555
C2 C9 1_555 1_555
C3 C4 1_555 1_555
C4 H1 1_555 1_555
C5 C4 1_555 1_555
C6 C5 1_555 1_555
C7 C8 1_555 1_555
C8 H2 1_555 1_555
C9 C8 1_555 1_555
C10 C9 1_555 1_555
H3 C10 1_555 1_555
C11 C10 1_555 1_555
C12 C11 1_555 1_555
C13 C14 1_555 1_555
C14 C3 1_555 1_555
H4 C14 1_555 1_555
C15 C5 1_555 1_555
C16 C7 1_555 1_555
Ce1 O1 1_555 1_555
O1 C1 1_555 1_555
O2 C1 1_555 1_555
O3 C2 1_555 1_555
O4 C2 1_555 1_555
O5 C6 1_555 1_555
O12 Ce1 1_555 1_555
O13_2 Ce1 1_555 1_555
O14 C12 1_555 1_555
O15 C6 1_555 1_555
H11 O12 1_555 1_555
H19 O26 1_555 1_555
H20 O26 1_555 1_555
Ce3 O4 1_555 1_555
C7 O15 1_555 1_555
C11 C16 1_555 1_555
C13 C15 1_555 1_555
C13 O14 1_555 1_555
C15 C16 1_555 1_555
C17 C18 1_555 1_555
C18 C19 1_555 1_555
C24 C18 1_555 1_555
H6 C24 1_555 1_555
O7 C17 1_555 1_555
O8 C17 1_555 1_555
C29 C30 1_555 1_555
C30 C23 1_555 1_555
O18 C29 1_555 1_555
O19 C28 1_555 1_555
C24 C30 1_555 1_555
C29 O19 1_555 1_555
C21 C22 1_555 1_555
C22 C31 1_555 1_555
O9 C21 1_555 1_555
O10 C20 1_555 1_555
C25 C26 1_555 1_555
C26 C27 1_555 1_555
C32 C22 1_555 1_555
H13 C32 1_555 1_555
O16 C25 1_555 1_555
O17 C25 1_555 1_555
Ce6 O16 1_555 1_555
C21 O10 1_555 1_555
C26 C32 1_555 1_555
C17_2 C18_2 1_555 1_555
C18_2 C19_2 1_555 1_555
C19_2 H5_2 1_555 1_555
C20_2 C19_2 1_555 1_555
C21_2 C22_2 1_555 1_555
C22_2 C31_2 1_555 1_555
C23_2 C20_2 1_555 1_555
C24_2 C18_2 1_555 1_555
H6_2 C24_2 1_555 1_555
O34 C17_2 1_555 1_555
O8_2 C17_2 1_555 1_555
O9_2 C21_2 1_555 1_555
O10_2 C20_2 1_555 1_555
C25_2 C26_2 1_555 1_555
C26_2 C27_2 1_555 1_555
C27_2 H12_2 1_555 1_555
C28_2 C27_2 1_555 1_555
C29_2 C30_2 1_555 1_555
C30_2 C23_2 1_555 1_555
C31_2 C23_2 1_555 1_555
C32_2 C22_2 1_555 1_555
H13_2 C32_2 1_555 1_555
O16_2 C25_2 1_555 1_555
O17_2 C25_2 1_555 1_555
O18_2 C29_2 1_555 1_555
O19_2 C28_2 1_555 1_555
Ce7 O16_2 1_555 1_555
C21_2 O10_2 1_555 1_555
C24_2 C30_2 1_555 1_555
C26_2 C32_2 1_555 1_555
C28_2 C31_2 1_555 1_555
C29_2 O19_2 1_555 1_555
C1_2 C3_2 1_555 1_555
C2_2 C9_2 1_555 1_555
C3_2 C4_2 1_555 1_555
C4_2 H1_2 1_555 1_555
C5_2 C4_2 1_555 1_555
C6_2 C5_2 1_555 1_555
C7_2 C8_2 1_555 1_555
C8_2 H2_2 1_555 1_555
C9_2 C8_2 1_555 1_555
C10_2 C9_2 1_555 1_555
H3_2 C10_2 1_555 1_555
C11_2 C10_2 1_555 1_555
C12_2 C11_2 1_555 1_555
C13_2 C14_2 1_555 1_555
C14_2 C3_2 1_555 1_555
H4_2 C14_2 1_555 1_555
C15_2 C5_2 1_555 1_555
C16_2 C7_2 1_555 1_555
C17_3 C18_3 1_555 1_555
C18_3 C19_3 1_555 1_555
C24_3 C18_3 1_555 1_555
H6_3 C24_3 1_555 1_555
Ce3 O1_2 1_555 1_555
O1_2 C1_2 1_555 1_555
O2_2 C1_2 1_555 1_555
O3_2 C2_2 1_555 1_555
O32 C2_2 1_555 1_555
O5_2 C6_2 1_555 1_555
O7_2 C17_3 1_555 1_555
O8_3 C17_3 1_555 1_555
O11_2 Ce3 1_555 1_555
O12_2 Ce3 1_555 1_555
O13_3 Ce3 1_555 1_555
O14_2 C12_2 1_555 1_555
O15_2 C6_2 1_555 1_555
H7_2 O13_3 1_555 1_555
H9_2 O11_2 1_555 1_555
H10_2 O12_2 1_555 1_555
H11_2 O12_2 1_555 1_555
C29_3 C30_3 1_555 1_555
C30_3 C23_3 1_555 1_555
O18_3 C29_3 1_555 1_555
O19_3 C28_3 1_555 1_555
H14_2 O13_3 1_555 1_555
C33_2 C35_2 1_555 1_555
C34_2 C41_2 1_555 1_555
C35_2 C36_2 1_555 1_555
C36_2 H15_2 1_555 1_555
C37_2 C36_2 1_555 1_555
C38_2 C37_2 1_555 1_555
C39_2 C40_2 1_555 1_555
C40_2 H16_2 1_555 1_555
C41_2 C40_2 1_555 1_555
C42_2 C41_2 1_555 1_555
H17_2 C42_2 1_555 1_555
C43_2 C42_2 1_555 1_555
C44_2 C43_2 1_555 1_555
C45_2 C46_2 1_555 1_555
C46_2 C35_2 1_555 1_555
H18_2 C46_2 1_555 1_555
C47_2 C37_2 1_555 1_555
C48_2 C39_2 1_555 1_555
Ce4 O2_2 1_555 1_555
O20_2 C33_2 1_555 1_555
O21_2 Ce3 1_555 1_555
O22_2 C34_2 1_555 1_555
O33 C34_2 1_555 1_555
O24_2 C38_2 1_555 1_555
O25_2 C44_2 1_555 1_555
O26_2 Ce4 1_555 1_555
O27_2 Ce4 1_555 1_555
O28_2 C44_2 1_555 1_555
O29_2 C38_2 1_555 1_555
H19_2 O26_2 1_555 1_555
H20_2 O26_2 1_555 1_555
H21_2 O27_2 1_555 1_555
H22_2 O27_2 1_555 1_555
Ce7_2 O22_2 1_555 1_555
O31_2 Ce4 1_555 1_555
O34_2 Ce4 1_555 1_555
C7_2 O15_2 1_555 1_555
C11_2 C16_2 1_555 1_555
C13_2 C15_2 1_555 1_555
C13_2 O14_2 1_555 1_555
C15_2 C16_2 1_555 1_555
C24_3 C30_3 1_555 1_555
Ce3 O7_2 1_555 1_555
O13_3 Ce4 1_555 1_555
C29_3 O19_3 1_555 1_555
C33_2 O21_2 1_555 1_555
C39_2 O29_2 1_555 1_555
C43_2 C48_2 1_555 1_555
C45_2 C47_2 1_555 1_555
C45_2 O28_2 1_555 1_555
C47_2 C48_2 1_555 1_555
Ce4 O20_2 1_555 1_555
C21_3 C22_3 1_555 1_555
C22_3 C31_3 1_555 1_555
O9_3 C21_3 1_555 1_555
O10_3 C20_3 1_555 1_555
C25_3 C26_3 1_555 1_555
C26_3 C27_3 1_555 1_555
C32_3 C22_3 1_555 1_555
H13_3 C32_3 1_555 1_555
O16_3 C25_3 1_555 1_555
O17_3 C25_3 1_555 1_555
C21_3 O10_3 1_555 1_555
C26_3 C32_3 1_555 1_555
C17_4 C18_4 1_555 1_555
C18_4 C19_4 1_555 1_555
C19_4 H5_4 1_555 1_555
C20_4 C19_4 1_555 1_555
C21_4 C22_4 1_555 1_555
C22_4 C31_4 1_555 1_555
C23_4 C20_4 1_555 1_555
C24_4 C18_4 1_555 1_555
H6_4 C24_4 1_555 1_555
O34_2 C17_4 1_555 1_555
O8_4 C17_4 1_555 1_555
O9_4 C21_4 1_555 1_555
O10_4 C20_4 1_555 1_555
C25_4 C26_4 1_555 1_555
C26_4 C27_4 1_555 1_555
C27_4 H12_4 1_555 1_555
C28_4 C27_4 1_555 1_555
C29_4 C30_4 1_555 1_555
C30_4 C23_4 1_555 1_555
C31_4 C23_4 1_555 1_555
C32_4 C22_4 1_555 1_555
H13_4 C32_4 1_555 1_555
O16_4 C25_4 1_555 1_555
O17_4 C25_4 1_555 1_555
O18_4 C29_4 1_555 1_555
O19_4 C28_4 1_555 1_555
C21_4 O10_4 1_555 1_555
C24_4 C30_4 1_555 1_555
C26_4 C32_4 1_555 1_555
C28_4 C31_4 1_555 1_555
C29_4 O19_4 1_555 1_555
C1_3 C3_3 1_555 1_555
C2_3 C9_3 1_555 1_555
C3_3 C4_3 1_555 1_555
C4_3 H1_3 1_555 1_555
C5_3 C4_3 1_555 1_555
C6_3 C5_3 1_555 1_555
C7_3 C8_3 1_555 1_555
C8_3 H2_3 1_555 1_555
C9_3 C8_3 1_555 1_555
C10_3 C9_3 1_555 1_555
H3_3 C10_3 1_555 1_555
C11_3 C10_3 1_555 1_555
C12_3 C11_3 1_555 1_555
C13_3 C14_3 1_555 1_555
C14_3 C3_3 1_555 1_555
H4_3 C14_3 1_555 1_555
C15_3 C5_3 1_555 1_555
C16_3 C7_3 1_555 1_555
Ce6_2 O1_3 1_555 1_555
O1_3 C1_3 1_555 1_555
O2_3 C1_3 1_555 1_555
O30_2 C2_3 1_555 1_555
O4_2 C2_3 1_555 1_555
O5_3 C6_3 1_555 1_555
O12_3 Ce6_2 1_555 1_555
O13_4 Ce6_2 1_555 1_555
O14_3 C12_3 1_555 1_555
O15_3 C6_3 1_555 1_555
H11_3 O12_3 1_555 1_555
H19_3 O26_3 1_555 1_555
H20_3 O26_3 1_555 1_555
Ce6 O4_2 1_555 1_555
C7_3 O15_3 1_555 1_555
C11_3 C16_3 1_555 1_555
C13_3 C15_3 1_555 1_555
C13_3 O14_3 1_555 1_555
C15_3 C16_3 1_555 1_555
H9_3 O11_3 1_555 1_555
C33_3 C35_3 1_555 1_555
C34_3 C41_3 1_555 1_555
C35_3 C36_3 1_555 1_555
C36_3 H15_3 1_555 1_555
C37_3 C36_3 1_555 1_555
C38_3 C37_3 1_555 1_555
C39_3 C40_3 1_555 1_555
C40_3 H16_3 1_555 1_555
C41_3 C40_3 1_555 1_555
C42_3 C41_3 1_555 1_555
H17_3 C42_3 1_555 1_555
C43_3 C42_3 1_555 1_555
C44_3 C43_3 1_555 1_555
C45_3 C46_3 1_555 1_555
C46_3 C35_3 1_555 1_555
H18_3 C46_3 1_555 1_555
C47_3 C37_3 1_555 1_555
C48_3 C39_3 1_555 1_555
O20_3 C33_3 1_555 1_555
O31_2 C34_3 1_555 1_555
O23_2 C34_3 1_555 1_555
O24_3 C38_3 1_555 1_555
O25_3 C44_3 1_555 1_555
O27_3 Ce7_2 1_555 1_555
O28_3 C44_3 1_555 1_555
O29_3 C38_3 1_555 1_555
H22_3 O27_3 1_555 1_555
Ce7 O23_2 1_555 1_555
O13_5 Ce7_2 1_555 1_555
C33_3 O21_3 1_555 1_555
C39_3 O29_3 1_555 1_555
C43_3 C48_3 1_555 1_555
C45_3 C47_3 1_555 1_555
C45_3 O28_3 1_555 1_555
C47_3 C48_3 1_555 1_555
Ce7_2 O20_3 1_555 1_555
C1_4 C3_4 1_555 1_555
C2_4 C9_4 1_555 1_555
C3_4 C4_4 1_555 1_555
C4_4 H1_4 1_555 1_555
C5_4 C4_4 1_555 1_555
C6_4 C5_4 1_555 1_555
C7_4 C8_4 1_555 1_555
C8_4 H2_4 1_555 1_555
C9_4 C8_4 1_555 1_555
C10_4 C9_4 1_555 1_555
H3_4 C10_4 1_555 1_555
C11_4 C10_4 1_555 1_555
C12_4 C11_4 1_555 1_555
C13_4 C14_4 1_555 1_555
C14_4 C3_4 1_555 1_555
H4_4 C14_4 1_555 1_555
C15_4 C5_4 1_555 1_555
C16_4 C7_4 1_555 1_555
Ce6 O1_4 1_555 1_555
O1_4 C1_4 1_555 1_555
O2_4 C1_4 1_555 1_555
O30 C2_4 1_555 1_555
O32_2 C2_4 1_555 1_555
O5_4 C6_4 1_555 1_555
O11_4 Ce6 1_555 1_555
O12_4 Ce6 1_555 1_555
O13_6 Ce6 1_555 1_555
O14_4 C12_4 1_555 1_555
O15_4 C6_4 1_555 1_555
H7_4 O13_6 1_555 1_555
H9_4 O11_4 1_555 1_555
H10_4 O12_4 1_555 1_555
H11_4 O12_4 1_555 1_555
H14_4 O13_6 1_555 1_555
C33_4 C35_4 1_555 1_555
C34_4 C41_4 1_555 1_555
C35_4 C36_4 1_555 1_555
C36_4 H15_4 1_555 1_555
C37_4 C36_4 1_555 1_555
C38_4 C37_4 1_555 1_555
C39_4 C40_4 1_555 1_555
C40_4 H16_4 1_555 1_555
C41_4 C40_4 1_555 1_555
C42_4 C41_4 1_555 1_555
H17_4 C42_4 1_555 1_555
C43_4 C42_4 1_555 1_555
C44_4 C43_4 1_555 1_555
C45_4 C46_4 1_555 1_555
C46_4 C35_4 1_555 1_555
H18_4 C46_4 1_555 1_555
C47_4 C37_4 1_555 1_555
C48_4 C39_4 1_555 1_555
Ce7 O2_4 1_555 1_555
O20_4 C33_4 1_555 1_555
O21_4 Ce6 1_555 1_555
O31 C34_4 1_555 1_555
O33_2 C34_4 1_555 1_555
O24_4 C38_4 1_555 1_555
O25_4 C44_4 1_555 1_555
O26_4 Ce7 1_555 1_555
O27_4 Ce7 1_555 1_555
O28_4 C44_4 1_555 1_555
O29_4 C38_4 1_555 1_555
H19_4 O26_4 1_555 1_555
H20_4 O26_4 1_555 1_555
H21_4 O27_4 1_555 1_555
H22_4 O27_4 1_555 1_555
C7_4 O15_4 1_555 1_555
C11_4 C16_4 1_555 1_555
C13_4 C15_4 1_555 1_555
C13_4 O14_4 1_555 1_555
C15_4 C16_4 1_555 1_555
O13_6 Ce7 1_555 1_555
C33_4 O21_4 1_555 1_555
C39_4 O29_4 1_555 1_555
C43_4 C48_4 1_555 1_555
C45_4 C47_4 1_555 1_555
C45_4 O28_4 1_555 1_555
C47_4 C48_4 1_555 1_555
Ce7 O20_4 1_555 1_555

#END
