
###############################################################################
#
# This file contains modified crystal structure data generated from the
# MOF subset of the Cambridge Structural Database (CSD) v543 
# hosted by the Cambridge Crystallographic Data Centre (CCDC).
#
# This work is licensed under the Creative Commons
# Attribution-NonCommercial-ShareAlike 4.0 International License.
# To view a copy of this license, visit
# http://creativecommons.org/licenses/by-nc-sa/4.0/
# or send a letter to
# Creative Commons, PO Box 1866, Mountain View, CA 94042, USA.
#
# CIF created using the CSD Python API on 29 September 2022
# The structure has been converted into the P1 space group
# The structure has a 3D framework
# The original CSD entry BIRBIQ is in the triclinic crystal system
# The framework has been calculated to contain at least 10.0% void space
# The void calculation uses a probe of radius 1.32A, grid spacing 0.4
# The framework is charged, counterions have been retained in the structure
# H atom positions have been added when not included in the experimental data
#
###############################################################################

data_BIRBIQ
_chemical_formula_moiety         '(C122 H66 Eu4 N2 O38 4-)n'
_symmetry_cell_setting           triclinic
_symmetry_space_group_name_H-M   'P 1'
_symmetry_Int_Tables_number      1
_space_group_name_Hall           'P 1'
loop_
_symmetry_equiv_pos_site_id
_symmetry_equiv_pos_as_xyz
1 x,y,z
_cell_length_a                   10.5930(4)
_cell_length_b                   15.5318(8)
_cell_length_c                   21.2702(9)
_cell_angle_alpha                71.268(4)
_cell_angle_beta                 79.790(3)
_cell_angle_gamma                85.077(4)
_cell_volume                     3260.13
loop_
_atom_site_label
_atom_site_type_symbol
_atom_site_fract_x
_atom_site_fract_y
_atom_site_fract_z
O5 O 0.4308(3) 0.1765(2) 0.17392(14)
O11 O 0.3703(3) 0.1447(2) 0.08962(14)
C6 C 0.3722(4) 0.0247(3) 0.1942(2)
C41 C 0.3935(4) 0.1214(3) 0.1497(2)
H18 H 0.424442 0.042265 0.276799
Eu5 Eu 0.41254(2) 0.30647(2) 0.07197(2)
O13 O 0.9180(3) 0.4487(2) 0.87285(15)
O16 O 0.9462(3) 0.4886(3) 0.95758(15)
C39 C 0.9882(4) 0.4802(3) 0.89995(19)
Eu8 Eu 0.82777(2) 0.32739(2) 0.85838(2)
O1 O 0.4394(3) 0.3460(2) 0.95594(14)
O2 O 0.0295(3) 0.3262(3) 0.78150(15)
O4 O 0.2006(3) 0.2956(2) 0.04169(14)
O6 O 0.4783(3) 0.3603(2) 0.15746(13)
O8 O 0.2027(3) 0.2962(2) 0.14489(14)
O9 O 0.5873(3) 0.4111(2) 0.05608(13)
O10 O 0.0387(3) 0.2619(3) 0.88926(15)
O12 O 0.3216(3) 0.4562(2) 0.05178(14)
O17 O 0.3877(4) 0.3180(4) 0.47940(18)
C1 C 0.5732(4) 0.4027(3) 0.1181(2)
C4 C 0.7875(4) 0.4663(3) 0.10753(18)
H1 H 0.802967 0.472316 0.060963
C5 C 0.1427(4) 0.2893(3) 0.1003(2)
C7 C 0.4300(4) 0.3377(3) 0.8478(2)
C8 C 0.6474(4) 0.4293(3) 0.2146(2)
H2 H 0.566343 0.409760 0.240526
C9 C 0.8586(4) 0.4791(3) 0.20577(19)
H3 H 0.924188 0.493138 0.225768
C10 C 0.4301(4) 0.3436(3) 0.73142(19)
C12 C 0.3009(4) 0.3164(3) 0.86427(19)
H4 H 0.257097 0.306824 0.908873
C13 C 0.0031(4) 0.2704(3) 0.1181(2)
C15 C 0.4984(4) 0.3648(3) 0.66065(19)
C17 C 0.4928(4) 0.3507(3) 0.7821(2)
H6 H 0.581120 0.364936 0.771462
C18 C 0.2362(4) 0.3091(3) 0.8141(2)
C19 C 0.0946(4) 0.2967(3) 0.8293(2)
C20 C 0.5896(4) 0.3922(3) 0.4289(2)
C21 C 0.7412(4) 0.4503(3) 0.2456(2)
C23 C 0.6079(5) 0.3983(3) 0.3617(2)
H7 H 0.548109 0.372836 0.344749
C24 C 0.6754(5) 0.4290(4) 0.4559(2)
C25 C 0.3005(4) 0.3233(3) 0.7484(2)
H8 H 0.255123 0.318942 0.714865
C26 C 0.6795(5) 0.4345(4) 0.5761(2)
H9 H 0.757701 0.465663 0.564754
C29 C 0.6704(4) 0.4363(3) 0.14616(19)
C33 C 0.7157(4) 0.4426(3) 0.3186(2)
C36 C 0.5009(4) 0.3501(3) 0.8996(2)
C37 C 0.8826(4) 0.4877(3) 0.13744(19)
C43 C 0.4493(4) 0.3410(3) 0.6114(2)
H15 H 0.371987 0.308759 0.622725
C44 C 0.6293(5) 0.4119(4) 0.5278(2)
C48 C 0.7819(5) 0.4734(4) 0.4141(2)
H17 H 0.840671 0.499522 0.431221
C52 C 0.4821(5) 0.3520(4) 0.4839(2)
C53 C 0.5149(5) 0.3652(3) 0.5463(2)
C56 C 0.6131(5) 0.4105(4) 0.6418(2)
H23 H 0.647557 0.426049 0.674843
C57 C 0.8009(5) 0.4789(3) 0.3463(2)
H24 H 0.874474 0.508410 0.317670
O18 O 0.6188(3) 0.3664(3) 0.88105(14)
O23 O 0.6114(3) 0.2324(2) 0.04773(13)
H26 H 0.304164 0.479984 0.00479243
H27 H 0.382536 0.496162 0.0587688
O3 O 0.7773(3) 0.2707(2) 0.77163(14)
O14 O 0.8014(3) 0.4561(2) 0.76327(15)
O15 O 0.7608(5) 0.1746(3) 0.87289(17)
C2 C 0.7476(5) 0.1956(3) 0.8115(2)
C3 C 0.6179(5) 0.1394(4) 0.4862(2)
C11 C 0.8140(4) 0.2276(3) 0.20358(19)
C14 C 0.6314(5) 0.1703(4) 0.2988(2)
H5 H 0.583865 0.161342 0.267623
C16 C 0.7538(4) 0.2056(3) 0.2753(2)
C22 C 0.7288(4) 0.2505(3) 0.03109(19)
C27 C 0.6988(5) 0.1267(3) 0.7864(2)
C28 C 0.7661(5) 0.1972(4) 0.3894(2)
C30 C 0.6454(5) 0.1583(3) 0.4118(2)
C31 C 0.9328(4) 0.2724(3) 0.06776(19)
H10 H 0.972224 0.289340 0.021970
C32 C 0.8201(5) 0.2208(4) 0.3227(2)
H11 H 0.902031 0.247390 0.308482
C34 C 0.9441(4) 0.2505(3) 0.1838(2)
H12 H 0.992527 0.252279 0.216908
C35 C 0.7246(5) 0.1558(4) 0.5741(2)
H13 H 0.794089 0.177636 0.586786
C38 C 0.6256(5) 0.1107(3) 0.6224(2)
C40 C 0.7202(5) 0.1682(4) 0.5069(2)
C42 C 0.6726(5) 0.0390(3) 0.8299(2)
H14 H 0.685009 0.022750 0.875440
C45 C 0.8046(4) 0.2493(3) 0.08563(19)
C46 C 0.5151(6) 0.0987(4) 0.5338(2)
H16 H 0.442015 0.082109 0.520688
C47 C 0.6349(5) 0.0878(3) 0.6953(2)
C49 C 0.6080(5) 0.0007(3) 0.7391(2)
C50 C 0.5221(5) 0.0829(4) 0.6019(2)
H19 H 0.454373 0.052239 0.635100
C51 C 0.6795(5) 0.1512(3) 0.7198(2)
H20 H 0.696737 0.211265 0.690885
C54 C 0.7464(4) 0.2263(3) 0.15286(19)
H21 H 0.659157 0.209442 0.164498
C55 C 0.5769(5) 0.1480(4) 0.3659(2)
H22 H 0.492396 0.125716 0.380007
C58 C 0.7633(6) 0.5386(5) 0.7631(3)
H25 H 0.725104 0.548228 0.804274
C59 C 0.7340(8) 0.7016(6) 0.7076(4)
C60 C 0.8173(5) 0.2085(4) 0.4471(2)
N1 N 0.7759(6) 0.6087(4) 0.7077(2)
C61 C 0.8337(8) 0.5972(6) 0.6419(3)
O20 O 0.9205(6) 0.2363(6) 0.4452(2)
O27 O 0.7911(3) 0.2670(3) 0.97297(14)
H28 H 0.93136 0.56953 0.644319
H29 H 0.83523 0.662913 0.602828
H30 H 0.776912 0.55072 0.630282
H31 H 0.631422 0.703256 0.726051
H32 H 0.753708 0.748205 0.656591
H33 H 0.785877 0.722057 0.740084
O19 O 0.2089(3) 0.7330(3) 0.02703(14)
Eu7 Eu 0.17223(2) 0.67261(2) 0.14162(2)
O3_2 O 0.2227(3) 0.7293(2) 0.22837(14)
O7 O 0.3886(3) 0.7676(2) 0.95227(13)
O14_2 O 0.1986(3) 0.5439(2) 0.23673(15)
O15_2 O 0.2392(5) 0.8254(3) 0.12711(17)
C2_2 C 0.2524(5) 0.8044(3) 0.1885(2)
C3_2 C 0.3821(5) 0.8606(4) 0.5138(2)
C11_2 C 0.1860(4) 0.7724(3) 0.79642(19)
C14_2 C 0.3686(5) 0.8297(4) 0.7012(2)
H5_2 H 0.416135 0.838658 0.732377
C16_2 C 0.2462(4) 0.7944(3) 0.7247(2)
C22_2 C 0.2712(4) 0.7495(3) 0.96891(19)
C27_2 C 0.3012(5) 0.8733(3) 0.2136(2)
C28_2 C 0.2339(5) 0.8028(4) 0.6106(2)
C30_2 C 0.3546(5) 0.8417(3) 0.5882(2)
C31_2 C 0.0672(4) 0.7276(3) 0.93224(19)
H10_2 H 0.027776 0.710660 0.978030
C32_2 C 0.1799(5) 0.7792(4) 0.6773(2)
H11_2 H 0.097969 0.752610 0.691518
C34_2 C 0.0559(4) 0.7495(3) 0.8162(2)
H12_2 H 0.007473 0.747721 0.783092
C35_2 C 0.2754(5) 0.8442(4) 0.4259(2)
H13_2 H 0.205911 0.822364 0.413214
C38_2 C 0.3744(5) 0.8893(3) 0.3776(2)
C40_2 C 0.2798(5) 0.8318(4) 0.4931(2)
C42_2 C 0.3274(5) 0.9610(3) 0.1701(2)
H14_2 H 0.314991 0.977250 0.124560
C45_2 C 0.1954(4) 0.7507(3) 0.91437(19)
C46_2 C 0.4849(6) 0.9013(4) 0.4662(2)
H16_2 H 0.557985 0.917891 0.479312
C47_2 C 0.3651(5) 0.9122(3) 0.3047(2)
C49_2 C 0.3920(5) 0.9993(3) 0.2609(2)
C50_2 C 0.4779(5) 0.9171(4) 0.3981(2)
H19_2 H 0.545627 0.947761 0.364900
C51_2 C 0.3205(5) 0.8488(3) 0.2802(2)
H20_2 H 0.303263 0.788735 0.309115
C54_2 C 0.2536(4) 0.7737(3) 0.84714(19)
H21_2 H 0.340843 0.790558 0.835502
C55_2 C 0.4231(5) 0.8520(4) 0.6341(2)
H22_2 H 0.507604 0.874284 0.619993
C58_2 C 0.2367(6) 0.4614(5) 0.2369(3)
H25_2 H 0.274896 0.451772 0.195726
C59_2 C 0.2660(8) 0.2984(6) 0.2924(4)
C60_2 C 0.1827(5) 0.7915(4) 0.5529(2)
N1_2 N 0.2241(6) 0.3913(4) 0.2923(2)
C61_2 C 0.1663(8) 0.4028(6) 0.3581(3)
O20_2 O 0.0795(6) 0.7637(6) 0.5548(2)
Eu4 Eu 0.58746(2) 0.69353(2) 0.92803(2)
O25 O 0.0820(3) 0.5513(2) 0.12715(15)
O26 O 0.3812(3) 0.6336(3) 0.11895(14)
H28_2 H 0.0686401 0.43047 0.355681
H29_2 H 0.16477 0.337087 0.397172
H30_2 H 0.223088 0.44928 0.369718
H31_2 H 0.368578 0.296744 0.273949
H32_2 H 0.246292 0.251795 0.343409
H33_2 H 0.214123 0.277943 0.259916
O21 O 0.5606(3) 0.6540(2) 0.04406(14)
O2_2 O 0.9705(3) 0.6738(3) 0.21850(15)
O4_2 O 0.7994(3) 0.7044(2) 0.95831(14)
O6_2 O 0.5217(3) 0.6397(2) 0.84254(13)
O8_2 O 0.7973(3) 0.7038(2) 0.85511(14)
O9_2 O 0.4127(3) 0.5889(2) 0.94392(13)
O10_2 O 0.9613(3) 0.7381(3) 0.11074(15)
O12_2 O 0.6784(3) 0.5438(2) 0.94822(14)
O17_2 O 0.6123(4) 0.6820(4) 0.52060(18)
C1_2 C 0.4268(4) 0.5973(3) 0.8819(2)
C4_2 C 0.2125(4) 0.5337(3) 0.89247(18)
H1_2 H 0.197033 0.527684 0.939037
C5_2 C 0.8573(4) 0.7107(3) 0.8997(2)
C7_2 C 0.5700(4) 0.6623(3) 0.1522(2)
C8_2 C 0.3526(4) 0.5707(3) 0.7854(2)
H2_2 H 0.433657 0.590240 0.759474
C9_2 C 0.1414(4) 0.5209(3) 0.79423(19)
H3_2 H 0.075812 0.506862 0.774232
C10_2 C 0.5699(4) 0.6564(3) 0.26858(19)
C12_2 C 0.6991(4) 0.6836(3) 0.13573(19)
H4_2 H 0.742903 0.693176 0.091127
C13_2 C 0.9969(4) 0.7296(3) 0.8819(2)
C15_2 C 0.5016(4) 0.6352(3) 0.33935(19)
C17_2 C 0.5072(4) 0.6493(3) 0.2179(2)
H6_2 H 0.418880 0.635064 0.228538
C18_2 C 0.7638(4) 0.6909(3) 0.1859(2)
C19_2 C 0.9054(4) 0.7033(3) 0.1707(2)
C20_2 C 0.4104(4) 0.6078(3) 0.5711(2)
C21_2 C 0.2588(4) 0.5497(3) 0.7544(2)
C23_2 C 0.3921(5) 0.6017(3) 0.6383(2)
H7_2 H 0.451891 0.627164 0.655251
C24_2 C 0.3246(5) 0.5710(4) 0.5441(2)
C25_2 C 0.6995(4) 0.6767(3) 0.2516(2)
H8_2 H 0.744877 0.681058 0.285135
C26_2 C 0.3205(5) 0.5655(4) 0.4239(2)
H9_2 H 0.242299 0.534337 0.435246
C29_2 C 0.3296(4) 0.5637(3) 0.85384(19)
C33_2 C 0.2843(4) 0.5574(3) 0.6814(2)
C36_2 C 0.4991(4) 0.6499(3) 0.1004(2)
C37_2 C 0.1174(4) 0.5123(3) 0.86256(19)
C43_2 C 0.5507(4) 0.6590(3) 0.3886(2)
H15_2 H 0.628013 0.691241 0.377275
C44_2 C 0.3707(5) 0.5881(4) 0.4722(2)
C48_2 C 0.2181(5) 0.5266(4) 0.5859(2)
H17_2 H 0.159329 0.500478 0.568779
C52_2 C 0.5179(5) 0.6480(4) 0.5161(2)
C53_2 C 0.4851(5) 0.6348(3) 0.4537(2)
C56_2 C 0.3869(5) 0.5895(4) 0.3582(2)
H23_2 H 0.352443 0.573951 0.325157
C57_2 C 0.1991(5) 0.5211(3) 0.6537(2)
H24_2 H 0.125526 0.491590 0.682330
O22 O 0.5692(3) 0.8235(2) 0.82608(14)
O24 O 0.6297(3) 0.8553(2) 0.91038(14)
H26_2 H 0.695836 0.520016 0.995208
H27_2 H 0.617464 0.503838 0.941231
O16_2 O 0.0538(3) 0.5114(3) 0.04242(15)
C39_2 C 0.0118(4) 0.5198(3) 0.10005(19)
C6_2 C 0.6278(4) 0.9753(3) 0.8058(2)
C41_2 C 0.6065(4) 0.8786(3) 0.8503(2)
H18_2 H 0.575558 0.957735 0.723201
loop_
_geom_bond_atom_site_label_1
_geom_bond_atom_site_label_2
_geom_bond_site_symmetry_1
_geom_bond_site_symmetry_2
O5 C41 1_555 1_555
O11 C41 1_555 1_555
C6 C41 1_555 1_555
Eu5 O5 1_555 1_555
O11 Eu5 1_555 1_555
O13 C39 1_555 1_555
O16 C39 1_555 1_555
Eu8 O13 1_555 1_555
Eu5 O4 1_555 1_555
O1 C36 1_555 1_555
O2 C19 1_555 1_555
O4 C5 1_555 1_555
O6 Eu5 1_555 1_555
O8 Eu5 1_555 1_555
O9 Eu5 1_555 1_555
O12 Eu5 1_555 1_555
O17 C52 1_555 1_555
C1 O6 1_555 1_555
C4 H1 1_555 1_555
C5 O8 1_555 1_555
C7 C12 1_555 1_555
C8 H2 1_555 1_555
C9 H3 1_555 1_555
C10 C15 1_555 1_555
C12 H4 1_555 1_555
C13 C5 1_555 1_555
C15 C43 1_555 1_555
C17 C7 1_555 1_555
H6 C17 1_555 1_555
C18 C12 1_555 1_555
C19 O10 1_555 1_555
C20 C23 1_555 1_555
C21 C8 1_555 1_555
C23 H7 1_555 1_555
C24 C20 1_555 1_555
C25 C10 1_555 1_555
H8 C25 1_555 1_555
C26 H9 1_555 1_555
C29 C1 1_555 1_555
C33 C21 1_555 1_555
C36 C7 1_555 1_555
C37 C4 1_555 1_555
C43 H15 1_555 1_555
C44 C24 1_555 1_555
C48 C24 1_555 1_555
H17 C48 1_555 1_555
C52 C20 1_555 1_555
C53 C43 1_555 1_555
C56 C15 1_555 1_555
H23 C56 1_555 1_555
C57 C33 1_555 1_555
H24 C57 1_555 1_555
O18 C36 1_555 1_555
Eu8 O18 1_555 1_555
O23 Eu5 1_555 1_555
O9 C1 1_555 1_555
C4 C29 1_555 1_555
C8 C29 1_555 1_555
C9 C21 1_555 1_555
C9 C37 1_555 1_555
C10 C17 1_555 1_555
C18 C19 1_555 1_555
C18 C25 1_555 1_555
C23 C33 1_555 1_555
C26 C44 1_555 1_555
C26 C56 1_555 1_555
C44 C53 1_555 1_555
C48 C57 1_555 1_555
C52 C53 1_555 1_555
O12 H26 1_555 1_555
O12 H27 1_555 1_555
O3 Eu8 1_555 1_555
O23 C22 1_555 1_555
O14 Eu8 1_555 1_555
O15 Eu8 1_555 1_555
C2 O3 1_555 1_555
C3 C30 1_555 1_555
C11 C16 1_555 1_555
C14 H5 1_555 1_555
C16 C14 1_555 1_555
C22 C45 1_555 1_555
C27 C2 1_555 1_555
C28 C30 1_555 1_555
C30 C55 1_555 1_555
H10 C31 1_555 1_555
C32 C16 1_555 1_555
H11 C32 1_555 1_555
C34 C11 1_555 1_555
H12 C34 1_555 1_555
C35 H13 1_555 1_555
C38 C35 1_555 1_555
C40 C3 1_555 1_555
H14 C42 1_555 1_555
C45 C31 1_555 1_555
C46 C3 1_555 1_555
H16 C46 1_555 1_555
C47 C38 1_555 1_555
C50 C38 1_555 1_555
H19 C50 1_555 1_555
C51 C27 1_555 1_555
H20 C51 1_555 1_555
C54 C11 1_555 1_555
H21 C54 1_555 1_555
C55 C14 1_555 1_555
H22 C55 1_555 1_555
C58 O14 1_555 1_555
H25 C58 1_555 1_555
C59 N1 1_555 1_555
C60 C28 1_555 1_555
N1 C58 1_555 1_555
C61 N1 1_555 1_555
O20 C60 1_555 1_555
O27 Eu8 1_555 1_555
O15 C2 1_555 1_555
C27 C42 1_555 1_555
C28 C32 1_555 1_555
C35 C40 1_555 1_555
C40 C60 1_555 1_555
C45 C54 1_555 1_555
C46 C50 1_555 1_555
C47 C49 1_555 1_555
C47 C51 1_555 1_555
C61 H28 1_555 1_555
C61 H29 1_555 1_555
C61 H30 1_555 1_555
C59 H31 1_555 1_555
C59 H32 1_555 1_555
C59 H33 1_555 1_555
Eu7 O19 1_555 1_555
O3_2 Eu7 1_555 1_555
O7 C22_2 1_555 1_555
O14_2 Eu7 1_555 1_555
O15_2 Eu7 1_555 1_555
C2_2 O3_2 1_555 1_555
C3_2 C30_2 1_555 1_555
C11_2 C16_2 1_555 1_555
C14_2 H5_2 1_555 1_555
C16_2 C14_2 1_555 1_555
C22_2 C45_2 1_555 1_555
C27_2 C2_2 1_555 1_555
C28_2 C30_2 1_555 1_555
C30_2 C55_2 1_555 1_555
H10_2 C31_2 1_555 1_555
C32_2 C16_2 1_555 1_555
H11_2 C32_2 1_555 1_555
C34_2 C11_2 1_555 1_555
H12_2 C34_2 1_555 1_555
C35_2 H13_2 1_555 1_555
C38_2 C35_2 1_555 1_555
C40_2 C3_2 1_555 1_555
H14_2 C42_2 1_555 1_555
C45_2 C31_2 1_555 1_555
C46_2 C3_2 1_555 1_555
H16_2 C46_2 1_555 1_555
C47_2 C38_2 1_555 1_555
C50_2 C38_2 1_555 1_555
H19_2 C50_2 1_555 1_555
C51_2 C27_2 1_555 1_555
H20_2 C51_2 1_555 1_555
C54_2 C11_2 1_555 1_555
H21_2 C54_2 1_555 1_555
C55_2 C14_2 1_555 1_555
H22_2 C55_2 1_555 1_555
C58_2 O14_2 1_555 1_555
H25_2 C58_2 1_555 1_555
C59_2 N1_2 1_555 1_555
C60_2 C28_2 1_555 1_555
N1_2 C58_2 1_555 1_555
C61_2 N1_2 1_555 1_555
O20_2 C60_2 1_555 1_555
Eu4 O7 1_555 1_555
O25 Eu7 1_555 1_555
O26 Eu7 1_555 1_555
O15_2 C2_2 1_555 1_555
C27_2 C42_2 1_555 1_555
C28_2 C32_2 1_555 1_555
C35_2 C40_2 1_555 1_555
C40_2 C60_2 1_555 1_555
C45_2 C54_2 1_555 1_555
C46_2 C50_2 1_555 1_555
C47_2 C49_2 1_555 1_555
C47_2 C51_2 1_555 1_555
C61_2 H28_2 1_555 1_555
C61_2 H29_2 1_555 1_555
C61_2 H30_2 1_555 1_555
C59_2 H31_2 1_555 1_555
C59_2 H32_2 1_555 1_555
C59_2 H33_2 1_555 1_555
Eu4 O4_2 1_555 1_555
O21 C36_2 1_555 1_555
O2_2 C19_2 1_555 1_555
O4_2 C5_2 1_555 1_555
O6_2 Eu4 1_555 1_555
O8_2 Eu4 1_555 1_555
O9_2 Eu4 1_555 1_555
O12_2 Eu4 1_555 1_555
O17_2 C52_2 1_555 1_555
C1_2 O6_2 1_555 1_555
C4_2 H1_2 1_555 1_555
C5_2 O8_2 1_555 1_555
C7_2 C12_2 1_555 1_555
C8_2 H2_2 1_555 1_555
C9_2 H3_2 1_555 1_555
C10_2 C15_2 1_555 1_555
C12_2 H4_2 1_555 1_555
C13_2 C5_2 1_555 1_555
C15_2 C43_2 1_555 1_555
C17_2 C7_2 1_555 1_555
H6_2 C17_2 1_555 1_555
C18_2 C12_2 1_555 1_555
C19_2 O10_2 1_555 1_555
C20_2 C23_2 1_555 1_555
C21_2 C8_2 1_555 1_555
C23_2 H7_2 1_555 1_555
C24_2 C20_2 1_555 1_555
C25_2 C10_2 1_555 1_555
H8_2 C25_2 1_555 1_555
C26_2 H9_2 1_555 1_555
C29_2 C1_2 1_555 1_555
C33_2 C21_2 1_555 1_555
C36_2 C7_2 1_555 1_555
C37_2 C4_2 1_555 1_555
C43_2 H15_2 1_555 1_555
C44_2 C24_2 1_555 1_555
C48_2 C24_2 1_555 1_555
H17_2 C48_2 1_555 1_555
C52_2 C20_2 1_555 1_555
C53_2 C43_2 1_555 1_555
C56_2 C15_2 1_555 1_555
H23_2 C56_2 1_555 1_555
C57_2 C33_2 1_555 1_555
H24_2 C57_2 1_555 1_555
O26 C36_2 1_555 1_555
O22 Eu4 1_555 1_555
O24 Eu4 1_555 1_555
O9_2 C1_2 1_555 1_555
C4_2 C29_2 1_555 1_555
C8_2 C29_2 1_555 1_555
C9_2 C21_2 1_555 1_555
C9_2 C37_2 1_555 1_555
C10_2 C17_2 1_555 1_555
C18_2 C19_2 1_555 1_555
C18_2 C25_2 1_555 1_555
C23_2 C33_2 1_555 1_555
C26_2 C44_2 1_555 1_555
C26_2 C56_2 1_555 1_555
C44_2 C53_2 1_555 1_555
C48_2 C57_2 1_555 1_555
C52_2 C53_2 1_555 1_555
O12_2 H26_2 1_555 1_555
O12_2 H27_2 1_555 1_555
O25 C39_2 1_555 1_555
O16_2 C39_2 1_555 1_555
O22 C41_2 1_555 1_555
O24 C41_2 1_555 1_555
C6_2 C41_2 1_555 1_555

#END
