
###############################################################################
#
# This file contains modified crystal structure data generated from the
# MOF subset of the Cambridge Structural Database (CSD) v543 
# hosted by the Cambridge Crystallographic Data Centre (CCDC).
#
# This work is licensed under the Creative Commons
# Attribution-NonCommercial-ShareAlike 4.0 International License.
# To view a copy of this license, visit
# http://creativecommons.org/licenses/by-nc-sa/4.0/
# or send a letter to
# Creative Commons, PO Box 1866, Mountain View, CA 94042, USA.
#
# CIF created using the CSD Python API on 29 September 2022
# The structure has been converted into the P1 space group
# The structure has a 3D framework
# The original CSD entry BIRBUC is in the triclinic crystal system
# The framework has been calculated to contain at least 10.0% void space
# The void calculation uses a probe of radius 1.32A, grid spacing 0.4
# The framework is charged, counterions have been retained in the structure
# H atom positions have been added when not included in the experimental data
#
###############################################################################

data_BIRBUC
_chemical_formula_moiety         '(C122 H66 Dy4 N2 O38 4-)n'
_symmetry_cell_setting           triclinic
_symmetry_space_group_name_H-M   'P 1'
_symmetry_Int_Tables_number      1
_space_group_name_Hall           'P 1'
loop_
_symmetry_equiv_pos_site_id
_symmetry_equiv_pos_as_xyz
1 x,y,z
_cell_length_a                   10.5924(2)
_cell_length_b                   15.1775(5)
_cell_length_c                   21.2599(6)
_cell_angle_alpha                71.994(3)
_cell_angle_beta                 79.331(2)
_cell_angle_gamma                82.276(2)
_cell_volume                     3183.38
loop_
_atom_site_label
_atom_site_type_symbol
_atom_site_fract_x
_atom_site_fract_y
_atom_site_fract_z
O8 O 0.4522(3) 0.1696(3) 0.17456(16)
O15 O 0.3897(4) 0.1348(3) 0.09242(17)
C33 C 0.3747(6) 0.0213(4) 0.1994(2)
H11 H 0.428745 0.038165 0.281479
C49 C 0.4086(5) 0.1147(4) 0.1522(2)
Dy5 Dy 0.42712(2) 0.30040(2) 0.07048(2)
O11 O 0.9227(4) 0.4441(3) 0.87464(18)
O16 O 0.9461(4) 0.4878(4) 0.9583(2)
C34 C 0.9894(5) 0.4785(4) 0.9015(2)
Dy8 Dy 0.84633(2) 0.32071(2) 0.85604(2)
O2 O 0.4865(3) 0.3576(2) 0.15622(16)
O3 O 0.4567(3) 0.3408(3) 0.95479(16)
O4 O 0.5966(3) 0.4061(2) 0.05522(15)
O6 O 0.2167(3) 0.2891(3) 0.03749(17)
O7 O 0.2157(3) 0.2902(3) 0.14084(17)
O9 O 0.0479(3) 0.3173(3) 0.78050(17)
O10 O 0.0618(4) 0.2566(3) 0.88813(18)
O12 O 0.6348(3) 0.3621(3) 0.88017(16)
O18 O 0.3263(3) 0.4545(3) 0.05078(17)
O20 O 0.3950(4) 0.3221(4) 0.4771(2)
C2 C 0.4457(5) 0.3349(4) 0.8457(2)
C3 C 0.5812(5) 0.3999(4) 0.1164(2)
C4 C 0.4464(5) 0.3421(4) 0.7293(2)
C5 C 0.5079(4) 0.3491(4) 0.7802(2)
H2 H 0.595127 0.363963 0.769704
C6 C 0.3186(5) 0.3123(4) 0.8628(2)
H3 H 0.275584 0.301886 0.907486
C8 C 0.1144(5) 0.2901(4) 0.8286(3)
C9 C 0.8603(5) 0.4794(4) 0.2046(2)
H4 H 0.925439 0.492981 0.224675
C10 C 0.5122(5) 0.3633(4) 0.6589(2)
C11 C 0.0199(5) 0.2616(4) 0.1132(2)
C12 C 0.1592(5) 0.2830(4) 0.0958(2)
C13 C 0.6125(5) 0.4012(4) 0.3598(2)
H5 H 0.552060 0.377739 0.342464
C15 C 0.6830(5) 0.4288(4) 0.4546(2)
C18 C 0.7433(5) 0.4504(4) 0.2444(2)
C23 C 0.6535(5) 0.4282(3) 0.2129(2)
H6 H 0.573858 0.407706 0.238734
C24 C 0.5954(5) 0.3944(4) 0.4273(2)
C26 C 0.6753(4) 0.4348(3) 0.1455(2)
C28 C 0.2558(5) 0.3053(4) 0.8129(2)
C29 C 0.5169(5) 0.3459(4) 0.8983(2)
C31 C 0.3183(5) 0.3188(4) 0.7480(2)
H8 H 0.273380 0.312098 0.715174
C32 C 0.5256(5) 0.3667(4) 0.5441(3)
C35 C 0.8825(5) 0.4887(3) 0.1365(2)
C36 C 0.7907(4) 0.4659(4) 0.1061(2)
H9 H 0.806316 0.471364 0.059680
C37 C 0.6899(6) 0.4317(5) 0.5752(3)
H10 H 0.767164 0.462230 0.564102
C40 C 0.4617(5) 0.3421(4) 0.6091(2)
H13 H 0.384732 0.311353 0.620045
C44 C 0.4908(5) 0.3548(4) 0.4827(2)
C46 C 0.7202(5) 0.4432(4) 0.3169(2)
C50 C 0.6396(5) 0.4109(4) 0.5260(2)
H20 H 0.009418 0.245410 0.211908
C54 C 0.6264(5) 0.4076(4) 0.6403(3)
H21 H 0.661767 0.421707 0.673698
C56 C 0.8055(5) 0.4782(4) 0.3446(2)
H22 H 0.878069 0.507135 0.316218
C57 C 0.7874(5) 0.4721(5) 0.4125(3)
H23 H 0.846093 0.497287 0.429694
O26 O 0.6304(3) 0.2207(2) 0.04565(15)
H26 H 0.265233 0.459581 0.0912465
H27 H 0.278634 0.469046 0.0122494
O1 O 0.7990(3) 0.2688(2) 0.76464(17)
O13 O 0.8133(4) 0.4547(3) 0.76288(19)
O17 O 0.7916(4) 0.1675(3) 0.86404(18)
O19 O 0.9294(5) 0.2352(5) 0.4414(2)
C1 C 0.8359(5) 0.2162(4) 0.3178(3)
H1 H 0.916944 0.242038 0.304294
C7 C 0.7490(5) 0.2382(3) 0.0282(2)
C14 C 0.6317(6) 0.1379(4) 0.4803(2)
C16 C 0.6367(6) 0.1098(4) 0.6161(2)
C17 C 0.8308(5) 0.2208(4) 0.1987(2)
C19 C 0.7712(5) 0.1917(4) 0.8034(2)
C20 C 0.7318(6) 0.1658(4) 0.5014(3)
C21 C 0.7718(5) 0.2006(4) 0.2702(2)
C22 C 0.8232(5) 0.2388(3) 0.0818(2)
C25 C 0.9517(5) 0.2614(4) 0.0635(2)
H7 H 0.991231 0.276293 0.018037
C27 C 0.7807(5) 0.1940(4) 0.3834(3)
C30 C 0.6591(5) 0.1566(4) 0.4064(2)
C38 C 0.6087(5) 0.0034(4) 0.7338(2)
C39 C 0.6972(5) 0.1489(4) 0.7119(3)
H12 H 0.720347 0.207379 0.682039
C41 C 0.5277(6) 0.1005(5) 0.5269(3)
H14 H 0.455265 0.085180 0.513078
C42 C 0.5325(6) 0.0863(5) 0.5940(3)
H15 H 0.462597 0.059721 0.626224
C43 C 0.6471(5) 0.1684(4) 0.2927(3)
H16 H 0.599426 0.161721 0.261041
C45 C 0.7354(6) 0.1529(4) 0.5683(2)
H17 H 0.804538 0.173267 0.581497
C47 C 0.7659(5) 0.2187(3) 0.1484(2)
H18 H 0.679089 0.202882 0.159886
C48 C 0.6458(5) 0.0879(4) 0.6886(2)
C51 C 0.6788(6) 0.0407(4) 0.8230(2)
H19 H 0.690341 0.025113 0.868488
C52 C 0.7153(5) 0.1257(4) 0.7784(2)
C53 C 0.9614(5) 0.2432(4) 0.1789(2)
C55 C 0.8300(6) 0.2043(5) 0.4423(3)
C58 C 0.5926(6) 0.1464(5) 0.3596(3)
H24 H 0.509187 0.124336 0.373107
N1 N 0.7748(6) 0.6096(4) 0.7107(3)
C59 C 0.7691(7) 0.5375(5) 0.7649(4)
H25 H 0.731328 0.546793 0.806788
C60 C 0.8331(8) 0.5991(6) 0.6432(4)
C61 C 0.7249(9) 0.7036(6) 0.7124(4)
O22 O 0.8072(3) 0.2516(3) 0.97015(16)
H28 H 0.933425 0.571704 0.643973
H29 H 0.828125 0.666597 0.605607
H30 H 0.780048 0.551381 0.631047
H31 H 0.622187 0.704394 0.731642
H32 H 0.740155 0.751342 0.66202
H33 H 0.775196 0.725069 0.744803
O5 O 0.1928(3) 0.7484(3) 0.02985(16)
Dy7 Dy 0.15367(2) 0.67929(2) 0.14396(2)
O1_2 O 0.2010(3) 0.7312(2) 0.23536(17)
O13_2 O 0.1867(4) 0.5453(3) 0.23712(19)
O14 O 0.3696(3) 0.7793(2) 0.95435(15)
O17_2 O 0.2084(4) 0.8325(3) 0.13596(18)
O19_2 O 0.0706(5) 0.7648(5) 0.5586(2)
C1_2 C 0.1641(5) 0.7838(4) 0.6822(3)
H1_2 H 0.083056 0.757962 0.695706
C7_2 C 0.2510(5) 0.7618(3) 0.9718(2)
C14_2 C 0.3683(6) 0.8621(4) 0.5197(2)
C16_2 C 0.3633(6) 0.8902(4) 0.3839(2)
C17_2 C 0.1692(5) 0.7792(4) 0.8013(2)
C19_2 C 0.2288(5) 0.8083(4) 0.1966(2)
C20_2 C 0.2682(6) 0.8342(4) 0.4986(3)
C21_2 C 0.2282(5) 0.7994(4) 0.7298(2)
C22_2 C 0.1768(5) 0.7612(3) 0.9182(2)
C25_2 C 0.0483(5) 0.7386(4) 0.9365(2)
H7_2 H 0.008769 0.723707 0.981963
C27_2 C 0.2193(5) 0.8060(4) 0.6166(3)
C30_2 C 0.3409(5) 0.8434(4) 0.5936(2)
C38_2 C 0.3913(5) 0.9966(4) 0.2662(2)
C39_2 C 0.3028(5) 0.8511(4) 0.2881(3)
H12_2 H 0.279653 0.792621 0.317961
C41_2 C 0.4723(6) 0.8995(5) 0.4731(3)
H14_2 H 0.544735 0.914820 0.486922
C42_2 C 0.4675(6) 0.9137(5) 0.4060(3)
H15_2 H 0.537403 0.940279 0.373776
C43_2 C 0.3529(5) 0.8316(4) 0.7073(3)
H16_2 H 0.400574 0.838279 0.738959
C45_2 C 0.2646(6) 0.8471(4) 0.4317(2)
H17_2 H 0.195462 0.826733 0.418503
C47_2 C 0.2341(5) 0.7813(3) 0.8516(2)
H18_2 H 0.320911 0.797118 0.840114
C48_2 C 0.3542(5) 0.9121(4) 0.3114(2)
C51_2 C 0.3212(6) 0.9593(4) 0.1770(2)
H19_2 H 0.309659 0.974887 0.131512
C52_2 C 0.2847(5) 0.8743(4) 0.2216(2)
C53_2 C 0.0386(5) 0.7568(4) 0.8211(2)
C55_2 C 0.1700(6) 0.7957(5) 0.5577(3)
C58_2 C 0.4074(6) 0.8536(5) 0.6404(3)
H24_2 H 0.490813 0.875664 0.626893
N1_2 N 0.2252(6) 0.3904(4) 0.2893(3)
C59_2 C 0.2309(7) 0.4625(5) 0.2351(4)
H25_2 H 0.268672 0.453207 0.193212
C60_2 C 0.1669(8) 0.4009(6) 0.3568(4)
C61_2 C 0.2751(9) 0.2964(6) 0.2876(4)
Dy4 Dy 0.57288(2) 0.69960(2) 0.92952(2)
O24 O 0.0773(4) 0.5559(3) 0.12536(18)
O25 O 0.3652(3) 0.6379(3) 0.11983(16)
H28_2 H 0.0665753 0.428296 0.356027
H29_2 H 0.171875 0.333403 0.394393
H30_2 H 0.219952 0.448619 0.368953
H31_2 H 0.377813 0.295606 0.268358
H32_2 H 0.259845 0.248658 0.33798
H33_2 H 0.224804 0.274931 0.255197
O21 O 0.5433(3) 0.6592(3) 0.04521(16)
O2_2 O 0.5135(3) 0.6424(2) 0.84378(16)
O4_2 O 0.4034(3) 0.5939(2) 0.94478(15)
O6_2 O 0.7833(3) 0.7109(3) 0.96251(17)
O7_2 O 0.7843(3) 0.7098(3) 0.85916(17)
O9_2 O 0.9521(3) 0.6827(3) 0.21950(17)
O10_2 O 0.9382(4) 0.7434(3) 0.11187(18)
O18_2 O 0.6737(3) 0.5455(3) 0.94922(17)
O20_2 O 0.6050(4) 0.6779(4) 0.5229(2)
C2_2 C 0.5543(5) 0.6651(4) 0.1543(2)
C3_2 C 0.4188(5) 0.6001(4) 0.8836(2)
C4_2 C 0.5536(5) 0.6579(4) 0.2707(2)
C5_2 C 0.4921(4) 0.6509(4) 0.2198(2)
H2_2 H 0.404873 0.636037 0.230296
C6_2 C 0.6814(5) 0.6877(4) 0.1372(2)
H3_2 H 0.724416 0.698114 0.092514
C8_2 C 0.8856(5) 0.7099(4) 0.1714(3)
C9_2 C 0.1397(5) 0.5206(4) 0.7954(2)
H4_2 H 0.074561 0.507019 0.775325
C10_2 C 0.4878(5) 0.6367(4) 0.3411(2)
C11_2 C 0.9801(5) 0.7384(4) 0.8868(2)
C12_2 C 0.8408(5) 0.7170(4) 0.9042(2)
C13_2 C 0.3875(5) 0.5988(4) 0.6402(2)
H5_2 H 0.447940 0.622261 0.657536
C15_2 C 0.3170(5) 0.5712(4) 0.5454(2)
C18_2 C 0.2567(5) 0.5496(4) 0.7556(2)
C23_2 C 0.3465(5) 0.5718(3) 0.7871(2)
H6_2 H 0.426142 0.592294 0.761266
C24_2 C 0.4046(5) 0.6056(4) 0.5727(2)
C26_2 C 0.3247(4) 0.5652(3) 0.8545(2)
C28_2 C 0.7442(5) 0.6947(4) 0.1871(2)
C29_2 C 0.4831(5) 0.6541(4) 0.1017(2)
C31_2 C 0.6817(5) 0.6812(4) 0.2520(2)
H8_2 H 0.726620 0.687902 0.284826
C32_2 C 0.4744(5) 0.6333(4) 0.4559(3)
C35_2 C 0.1175(5) 0.5113(3) 0.8635(2)
C36_2 C 0.2093(4) 0.5341(4) 0.8939(2)
H9_2 H 0.193684 0.528636 0.940320
C37_2 C 0.3101(6) 0.5683(5) 0.4248(3)
H10_2 H 0.232836 0.537770 0.435898
C40_2 C 0.5383(5) 0.6579(4) 0.3909(2)
H13_2 H 0.615268 0.688647 0.379955
C44_2 C 0.5092(5) 0.6452(4) 0.5173(2)
C46_2 C 0.2798(5) 0.5568(4) 0.6831(2)
C50_2 C 0.3604(5) 0.5891(4) 0.4740(2)
H20_2 H 0.990582 0.754590 0.788092
C54_2 C 0.3736(5) 0.5924(4) 0.3597(3)
H21_2 H 0.338233 0.578293 0.326302
C56_2 C 0.1945(5) 0.5218(4) 0.6554(2)
H22_2 H 0.121931 0.492865 0.683782
C57_2 C 0.2126(5) 0.5279(5) 0.5875(3)
H23_2 H 0.153907 0.502713 0.570306
O23 O 0.5478(3) 0.8304(3) 0.82544(16)
O27 O 0.6103(4) 0.8652(3) 0.90758(17)
H26_2 H 0.734767 0.540419 0.908754
H27_2 H 0.721366 0.530954 0.987751
O16_2 O 0.0539(4) 0.5122(4) 0.0417(2)
C34_2 C 0.0106(5) 0.5215(4) 0.0985(2)
C33_2 C 0.6253(6) 0.9787(4) 0.8006(2)
H11_2 H 0.571255 0.961835 0.718521
C49_2 C 0.5914(5) 0.8853(4) 0.8478(2)
loop_
_geom_bond_atom_site_label_1
_geom_bond_atom_site_label_2
_geom_bond_site_symmetry_1
_geom_bond_site_symmetry_2
O8 C49 1_555 1_555
O15 C49 1_555 1_555
C49 C33 1_555 1_555
Dy5 O8 1_555 1_555
O15 Dy5 1_555 1_555
O11 C34 1_555 1_555
O16 C34 1_555 1_555
Dy8 O11 1_555 1_555
Dy5 O2 1_555 1_555
O2 C3 1_555 1_555
O3 C29 1_555 1_555
O4 Dy5 1_555 1_555
O6 Dy5 1_555 1_555
O7 Dy5 1_555 1_555
O12 C29 1_555 1_555
O18 Dy5 1_555 1_555
O20 C44 1_555 1_555
C2 C5 1_555 1_555
C3 O4 1_555 1_555
C4 C5 1_555 1_555
C5 H2 1_555 1_555
C6 C2 1_555 1_555
H3 C6 1_555 1_555
C8 O9 1_555 1_555
C9 H4 1_555 1_555
C10 C4 1_555 1_555
C11 C12 1_555 1_555
C12 O6 1_555 1_555
C13 H5 1_555 1_555
C15 C24 1_555 1_555
C18 C9 1_555 1_555
C23 C18 1_555 1_555
H6 C23 1_555 1_555
C24 C13 1_555 1_555
C26 C3 1_555 1_555
C28 C6 1_555 1_555
C29 C2 1_555 1_555
C31 C4 1_555 1_555
H8 C31 1_555 1_555
C32 C40 1_555 1_555
C35 C9 1_555 1_555
C36 C26 1_555 1_555
H9 C36 1_555 1_555
C37 H10 1_555 1_555
C40 C10 1_555 1_555
H13 C40 1_555 1_555
C44 C24 1_555 1_555
C46 C13 1_555 1_555
C50 C15 1_555 1_555
C54 C10 1_555 1_555
H21 C54 1_555 1_555
C56 C46 1_555 1_555
H22 C56 1_555 1_555
C57 C15 1_555 1_555
H23 C57 1_555 1_555
Dy8 O12 1_555 1_555
O26 Dy5 1_555 1_555
O7 C12 1_555 1_555
O10 C8 1_555 1_555
C8 C28 1_555 1_555
C18 C46 1_555 1_555
C23 C26 1_555 1_555
C28 C31 1_555 1_555
C32 C44 1_555 1_555
C32 C50 1_555 1_555
C35 C36 1_555 1_555
C37 C50 1_555 1_555
C37 C54 1_555 1_555
C56 C57 1_555 1_555
O18 H26 1_555 1_555
O18 H27 1_555 1_555
Dy8 O1 1_555 1_555
O1 C19 1_555 1_555
O13 Dy8 1_555 1_555
O26 C7 1_555 1_555
O17 Dy8 1_555 1_555
O19 C55 1_555 1_555
C1 H1 1_555 1_555
C7 C22 1_555 1_555
C14 C20 1_555 1_555
C16 C42 1_555 1_555
C17 C21 1_555 1_555
C19 O17 1_555 1_555
C20 C45 1_555 1_555
C21 C1 1_555 1_555
C22 C25 1_555 1_555
H7 C25 1_555 1_555
C27 C1 1_555 1_555
C30 C14 1_555 1_555
C39 H12 1_555 1_555
C41 C14 1_555 1_555
H14 C41 1_555 1_555
C42 C41 1_555 1_555
H15 C42 1_555 1_555
C43 C21 1_555 1_555
H16 C43 1_555 1_555
C45 C16 1_555 1_555
H17 C45 1_555 1_555
C47 C17 1_555 1_555
H18 C47 1_555 1_555
C48 C16 1_555 1_555
H19 C51 1_555 1_555
C52 C19 1_555 1_555
C55 C20 1_555 1_555
C58 C30 1_555 1_555
H24 C58 1_555 1_555
N1 C59 1_555 1_555
C59 O13 1_555 1_555
H25 C59 1_555 1_555
C60 N1 1_555 1_555
C61 N1 1_555 1_555
O22 Dy8 1_555 1_555
C17 C53 1_555 1_555
C22 C47 1_555 1_555
C27 C30 1_555 1_555
C27 C55 1_555 1_555
C38 C48 1_555 1_555
C39 C48 1_555 1_555
C39 C52 1_555 1_555
C43 C58 1_555 1_555
C51 C52 1_555 1_555
C60 H28 1_555 1_555
C60 H29 1_555 1_555
C60 H30 1_555 1_555
C61 H31 1_555 1_555
C61 H32 1_555 1_555
C61 H33 1_555 1_555
Dy7 O5 1_555 1_555
Dy7 O1_2 1_555 1_555
O1_2 C19_2 1_555 1_555
O13_2 Dy7 1_555 1_555
O14 C7_2 1_555 1_555
O17_2 Dy7 1_555 1_555
O19_2 C55_2 1_555 1_555
C1_2 H1_2 1_555 1_555
C7_2 C22_2 1_555 1_555
C14_2 C20_2 1_555 1_555
C16_2 C42_2 1_555 1_555
C17_2 C21_2 1_555 1_555
C19_2 O17_2 1_555 1_555
C20_2 C45_2 1_555 1_555
C21_2 C1_2 1_555 1_555
C22_2 C25_2 1_555 1_555
H7_2 C25_2 1_555 1_555
C27_2 C1_2 1_555 1_555
C30_2 C14_2 1_555 1_555
C39_2 H12_2 1_555 1_555
C41_2 C14_2 1_555 1_555
H14_2 C41_2 1_555 1_555
C42_2 C41_2 1_555 1_555
H15_2 C42_2 1_555 1_555
C43_2 C21_2 1_555 1_555
H16_2 C43_2 1_555 1_555
C45_2 C16_2 1_555 1_555
H17_2 C45_2 1_555 1_555
C47_2 C17_2 1_555 1_555
H18_2 C47_2 1_555 1_555
C48_2 C16_2 1_555 1_555
H19_2 C51_2 1_555 1_555
C52_2 C19_2 1_555 1_555
C55_2 C20_2 1_555 1_555
C58_2 C30_2 1_555 1_555
H24_2 C58_2 1_555 1_555
N1_2 C59_2 1_555 1_555
C59_2 O13_2 1_555 1_555
H25_2 C59_2 1_555 1_555
C60_2 N1_2 1_555 1_555
C61_2 N1_2 1_555 1_555
Dy4 O14 1_555 1_555
O24 Dy7 1_555 1_555
O25 Dy7 1_555 1_555
C17_2 C53_2 1_555 1_555
C22_2 C47_2 1_555 1_555
C27_2 C30_2 1_555 1_555
C27_2 C55_2 1_555 1_555
C38_2 C48_2 1_555 1_555
C39_2 C48_2 1_555 1_555
C39_2 C52_2 1_555 1_555
C43_2 C58_2 1_555 1_555
C51_2 C52_2 1_555 1_555
C60_2 H28_2 1_555 1_555
C60_2 H29_2 1_555 1_555
C60_2 H30_2 1_555 1_555
C61_2 H31_2 1_555 1_555
C61_2 H32_2 1_555 1_555
C61_2 H33_2 1_555 1_555
Dy4 O2_2 1_555 1_555
O2_2 C3_2 1_555 1_555
O21 C29_2 1_555 1_555
O4_2 Dy4 1_555 1_555
O6_2 Dy4 1_555 1_555
O7_2 Dy4 1_555 1_555
O25 C29_2 1_555 1_555
O18_2 Dy4 1_555 1_555
O20_2 C44_2 1_555 1_555
C2_2 C5_2 1_555 1_555
C3_2 O4_2 1_555 1_555
C4_2 C5_2 1_555 1_555
C5_2 H2_2 1_555 1_555
C6_2 C2_2 1_555 1_555
H3_2 C6_2 1_555 1_555
C8_2 O9_2 1_555 1_555
C9_2 H4_2 1_555 1_555
C10_2 C4_2 1_555 1_555
C11_2 C12_2 1_555 1_555
C12_2 O6_2 1_555 1_555
C13_2 H5_2 1_555 1_555
C15_2 C24_2 1_555 1_555
C18_2 C9_2 1_555 1_555
C23_2 C18_2 1_555 1_555
H6_2 C23_2 1_555 1_555
C24_2 C13_2 1_555 1_555
C26_2 C3_2 1_555 1_555
C28_2 C6_2 1_555 1_555
C29_2 C2_2 1_555 1_555
C31_2 C4_2 1_555 1_555
H8_2 C31_2 1_555 1_555
C32_2 C40_2 1_555 1_555
C35_2 C9_2 1_555 1_555
C36_2 C26_2 1_555 1_555
H9_2 C36_2 1_555 1_555
C37_2 H10_2 1_555 1_555
C40_2 C10_2 1_555 1_555
H13_2 C40_2 1_555 1_555
C44_2 C24_2 1_555 1_555
C46_2 C13_2 1_555 1_555
C50_2 C15_2 1_555 1_555
C54_2 C10_2 1_555 1_555
H21_2 C54_2 1_555 1_555
C56_2 C46_2 1_555 1_555
H22_2 C56_2 1_555 1_555
C57_2 C15_2 1_555 1_555
H23_2 C57_2 1_555 1_555
O23 Dy4 1_555 1_555
O27 Dy4 1_555 1_555
O7_2 C12_2 1_555 1_555
O10_2 C8_2 1_555 1_555
C8_2 C28_2 1_555 1_555
C18_2 C46_2 1_555 1_555
C23_2 C26_2 1_555 1_555
C28_2 C31_2 1_555 1_555
C32_2 C44_2 1_555 1_555
C32_2 C50_2 1_555 1_555
C35_2 C36_2 1_555 1_555
C37_2 C50_2 1_555 1_555
C37_2 C54_2 1_555 1_555
C56_2 C57_2 1_555 1_555
O18_2 H26_2 1_555 1_555
O18_2 H27_2 1_555 1_555
O24 C34_2 1_555 1_555
O16_2 C34_2 1_555 1_555
O23 C49_2 1_555 1_555
O27 C49_2 1_555 1_555
C49_2 C33_2 1_555 1_555

#END
