
###############################################################################
#
# This file contains modified crystal structure data generated from the
# MOF subset of the Cambridge Structural Database (CSD) v543 
# hosted by the Cambridge Crystallographic Data Centre (CCDC).
#
# This work is licensed under the Creative Commons
# Attribution-NonCommercial-ShareAlike 4.0 International License.
# To view a copy of this license, visit
# http://creativecommons.org/licenses/by-nc-sa/4.0/
# or send a letter to
# Creative Commons, PO Box 1866, Mountain View, CA 94042, USA.
#
# CIF created using the CSD Python API on 29 September 2022
# The structure has been converted into the P1 space group
# The structure has a 3D framework
# The original CSD entry BIRBOW is in the triclinic crystal system
# The framework has been calculated to contain at least 10.0% void space
# The void calculation uses a probe of radius 1.32A, grid spacing 0.4
# The framework is charged, counterions have been retained in the structure
# H atom positions have been added when not included in the experimental data
#
###############################################################################

data_BIRBOW
_chemical_formula_moiety         '(C122 H66 N2 O38 Tb4 4-)n'
_symmetry_cell_setting           triclinic
_symmetry_space_group_name_H-M   'P 1'
_symmetry_Int_Tables_number      1
_space_group_name_Hall           'P 1'
loop_
_symmetry_equiv_pos_site_id
_symmetry_equiv_pos_as_xyz
1 x,y,z
_cell_length_a                   10.5886(3)
_cell_length_b                   15.1959(6)
_cell_length_c                   21.2747(8)
_cell_angle_alpha                71.860(3)
_cell_angle_beta                 79.293(3)
_cell_angle_gamma                82.292(3)
_cell_volume                     3185.71
loop_
_atom_site_label
_atom_site_type_symbol
_atom_site_fract_x
_atom_site_fract_y
_atom_site_fract_z
O11 O 0.1918(3) 0.2482(2) 0.02995(13)
Tb7 Tb 0.15390(2) 0.17917(2) 0.14393(2)
O6 O 0.2008(3) 0.2310(2) 0.23558(13)
O7 O 0.2080(3) 0.3329(2) 0.13628(14)
O10 O 0.1868(3) 0.0458(2) 0.23691(14)
O12 O 0.3696(2) 0.2794(2) 0.95427(12)
O13 O 0.0697(4) 0.2652(4) 0.55866(18)
O14 O 0.4511(3) 0.6700(2) 0.17428(13)
O15 O 0.3887(3) 0.6350(2) 0.09228(13)
C30 C 0.2202(4) 0.3062(3) 0.6161(2)
C31 C 0.4664(5) 0.4141(4) 0.4054(2)
H13 H 0.5362 0.4410 0.3732
C32 C 0.3637(5) 0.3906(3) 0.38363(19)
C33 C 0.4708(5) 0.3997(4) 0.4733(2)
H14 H 0.5429 0.4157 0.4869
C34 C 0.2639(5) 0.3473(3) 0.4319(2)
H15 H 0.1947 0.3269 0.4187
C35 C 0.3687(4) 0.3619(3) 0.51978(19)
C36 C 0.2673(4) 0.3348(3) 0.4985(2)
C37 C 0.3398(4) 0.3431(3) 0.59363(19)
C38 C 0.1698(5) 0.2954(4) 0.5579(2)
C39 C 0.2290(4) 0.2994(3) 0.72983(18)
C40 C 0.3515(4) 0.3325(4) 0.7073(2)
H16 H 0.3980 0.3407 0.7389
C41 C 0.4080(5) 0.3538(4) 0.6404(2)
H17 H 0.4918 0.3753 0.6268
C42 C 0.1653(4) 0.2840(3) 0.68200(19)
H18 H 0.0842 0.2582 0.6956
C43 C 0.1678(4) 0.2793(3) 0.80118(19)
C44 C 0.2349(4) 0.2816(3) 0.85152(18)
H19 H 0.3216 0.2978 0.8399
C45 C 0.1770(3) 0.2608(3) 0.91806(18)
C46 C 0.0495(4) 0.2377(3) 0.93656(18)
H20 H 0.0105 0.2223 0.9822
C48 C 0.0398(4) 0.2567(3) 0.82066(18)
C50 C 0.2516(4) 0.2619(3) 0.97177(18)
C51 C 0.3540(4) 0.4127(3) 0.3111(2)
C52 C 0.3017(4) 0.3514(3) 0.2880(2)
H22 H 0.2769 0.2934 0.3181
C53 C 0.2856(4) 0.3746(3) 0.22108(19)
C54 C 0.3209(4) 0.4599(3) 0.17666(19)
H23 H 0.3087 0.4758 0.1312
C55 C 0.3743(4) 0.5220(3) 0.19909(19)
C56 C 0.3909(4) 0.4974(3) 0.26621(19)
H24 H 0.4279 0.5390 0.2816
C57 C 0.4080(4) 0.6144(3) 0.15267(18)
C58 C 0.2276(4) 0.3084(3) 0.19694(19)
Tb4 Tb 0.57332(2) 0.19934(2) 0.92952(2)
Tb5 Tb 0.42668(2) 0.80066(2) 0.07048(2)
O25 O 0.0774(3) 0.0556(2) 0.12545(14)
O26 O 0.3662(3) 0.1389(2) 0.11966(13)
O27 O 0.5446(3) 0.1585(2) 0.04521(13)
O1 O 0.7843(3) 0.2103(2) 0.96264(13)
O2 O 0.7835(3) 0.2093(2) 0.85938(13)
O3 O 0.4037(3) 0.0934(2) 0.94490(12)
O4 O 0.5128(2) 0.1419(2) 0.84394(13)
O5 O 0.6738(3) 0.0453(2) 0.94936(13)
O8 O 0.9525(3) 0.1821(2) 0.21903(14)
O9 O 0.9385(3) 0.2429(3) 0.11228(14)
O18 O 0.6049(3) 0.1774(3) 0.52263(15)
C1 C 0.4876(4) 0.1370(3) 0.34055(19)
C2 C 0.5381(4) 0.1581(3) 0.39050(19)
H1 H 0.6151 0.1890 0.3795
C3 C 0.4750(4) 0.1334(3) 0.45534(19)
C4 C 0.5098(4) 0.1455(3) 0.51781(19)
C5 C 0.4045(4) 0.1057(3) 0.57258(19)
C6 C 0.3865(4) 0.0998(3) 0.63968(19)
H2 H 0.4460 0.1246 0.6567
C7 C 0.2803(4) 0.0569(3) 0.68286(19)
C8 C 0.1954(4) 0.0216(3) 0.65517(19)
C9 C 0.2132(4) 0.0278(4) 0.5873(2)
H4 H 0.1546 0.0026 0.5700
C10 C 0.3175(4) 0.0711(3) 0.54582(18)
C11 C 0.3607(4) 0.0892(3) 0.4732(2)
C12 C 0.3095(4) 0.0679(4) 0.4251(2)
H5 H 0.2322 0.0374 0.4365
C13 C 0.3732(4) 0.0919(4) 0.3598(2)
H6 H 0.3379 0.0772 0.3268
C14 C 0.5538(4) 0.1579(3) 0.27031(19)
C15 C 0.4917(4) 0.1504(3) 0.21970(18)
H7 H 0.4049 0.1345 0.2305
C16 C 0.5540(4) 0.1654(3) 0.15386(19)
C17 C 0.6817(4) 0.1872(3) 0.13728(18)
H8 H 0.7251 0.1971 0.0926
C18 C 0.7452(4) 0.1944(3) 0.18702(19)
C19 C 0.6822(4) 0.1806(3) 0.25237(18)
H9 H 0.7270 0.1865 0.2854
C20 C 0.8859(4) 0.2090(3) 0.17166(19)
C21 C 0.4833(4) 0.1539(3) 0.10172(18)
C22 C 0.2563(4) 0.0492(3) 0.75555(18)
C23 C 0.3478(4) 0.0716(3) 0.78652(18)
H10 H 0.4277 0.0915 0.7607
C24 C 0.3247(4) 0.0655(3) 0.85442(18)
C25 C 0.2091(4) 0.0345(3) 0.89350(17)
H11 H 0.1935 0.0291 0.9399
C26 C 0.1165(4) 0.0115(3) 0.86360(17)
C27 C 0.1407(4) 0.0200(3) 0.79541(18)
H12 H 0.0762 0.0054 0.7755
C29 C 0.4204(3) 0.1006(3) 0.88299(18)
C47 C 0.9804(4) 0.2377(3) 0.88659(19)
H21 H 0.9921 0.2543 0.7876
C49 C 0.8415(4) 0.2168(3) 0.90428(19)
O23 O 0.5489(3) 0.3300(2) 0.82572(13)
O24 O 0.6113(3) 0.3650(2) 0.90772(13)
H31 H 0.690171 0.0212924 0.996431
H32 H 0.61628 0.00472657 0.94129
O16 O 0.9459(3) 0.9885(3) 0.95841(15)
O17 O 0.9226(3) 0.9444(2) 0.87455(14)
C28 C 0.9890(4) 0.9788(3) 0.90113(18)
Tb8 Tb 0.84610(2) 0.82083(2) 0.85607(2)
O16_2 O 0.0541(3) 0.0115(3) 0.04159(15)
C28_2 C 0.0110(4) 0.0212(3) 0.09887(18)
O1_2 O 0.2157(3) 0.7897(2) 0.03736(13)
O2_2 O 0.2165(3) 0.7907(2) 0.14062(13)
O3_2 O 0.5963(3) 0.9066(2) 0.05510(12)
O4_2 O 0.4872(2) 0.8581(2) 0.15606(13)
O5_2 O 0.3262(3) 0.9547(2) 0.05064(13)
O8_2 O 0.0475(3) 0.8179(2) 0.78097(14)
O9_2 O 0.0615(3) 0.7571(3) 0.88772(14)
O18_2 O 0.3951(3) 0.8226(3) 0.47737(15)
O19 O 0.6338(3) 0.8611(2) 0.88034(13)
O20 O 0.4554(3) 0.8415(2) 0.95479(13)
C1_2 C 0.5124(4) 0.8630(3) 0.65945(19)
C2_2 C 0.4619(4) 0.8419(3) 0.60950(19)
H1_2 H 0.3849 0.8110 0.6205
C3_2 C 0.5250(4) 0.8666(3) 0.54466(19)
C4_2 C 0.4902(4) 0.8545(3) 0.48219(19)
C5_2 C 0.5955(4) 0.8943(3) 0.42742(19)
C6_2 C 0.6135(4) 0.9002(3) 0.36032(19)
H2_2 H 0.5540 0.8754 0.3433
C7_2 C 0.7197(4) 0.9431(3) 0.31714(19)
C8_2 C 0.8046(4) 0.9784(3) 0.34483(19)
C9_2 C 0.7868(4) 0.9722(4) 0.4127(2)
H4_2 H 0.8454 0.9974 0.4300
C10_2 C 0.6825(4) 0.9289(3) 0.45418(18)
C11_2 C 0.6393(4) 0.9108(3) 0.5268(2)
C12_2 C 0.6905(4) 0.9321(4) 0.5749(2)
H5_2 H 0.7678 0.9626 0.5635
C13_2 C 0.6268(4) 0.9081(4) 0.6402(2)
H6_2 H 0.6621 0.9228 0.6732
C14_2 C 0.4462(4) 0.8421(3) 0.72969(19)
C15_2 C 0.5083(4) 0.8496(3) 0.78030(18)
H7_2 H 0.5951 0.8655 0.7695
C16_2 C 0.4460(4) 0.8346(3) 0.84614(19)
C17_2 C 0.3183(4) 0.8128(3) 0.86272(18)
H8_2 H 0.2749 0.8029 0.9074
C18_2 C 0.2548(4) 0.8056(3) 0.81298(19)
C19_2 C 0.3178(4) 0.8194(3) 0.74763(18)
H9_2 H 0.2730 0.8135 0.7146
C20_2 C 0.1141(4) 0.7910(3) 0.82834(19)
C21_2 C 0.5167(4) 0.8461(3) 0.89828(18)
C22_2 C 0.7437(4) 0.9508(3) 0.24445(18)
C23_2 C 0.6522(4) 0.9284(3) 0.21348(18)
H10_2 H 0.5723 0.9085 0.2393
C24_2 C 0.6753(4) 0.9345(3) 0.14558(18)
C25_2 C 0.7909(4) 0.9655(3) 0.10650(17)
H11_2 H 0.8065 0.9709 0.0601
C26_2 C 0.8835(4) 0.9885(3) 0.13640(17)
C27_2 C 0.8593(4) 0.9800(3) 0.20459(18)
H12_2 H 0.9238 0.9946 0.2245
C29_2 C 0.5796(3) 0.8994(3) 0.11701(18)
C47_2 C 0.0196(4) 0.7623(3) 0.11341(19)
H21_2 H 0.0079 0.7457 0.2124
C49_2 C 0.1585(4) 0.7832(3) 0.09572(19)
O22 O 0.6304(2) 0.7206(2) 0.04573(12)
H31_2 H 0.309829 0.978708 0.0035686
H32_2 H 0.38372 0.995273 0.0587098
O6_2 O 0.7992(3) 0.7690(2) 0.76442(13)
O7_2 O 0.7920(3) 0.6671(2) 0.86372(14)
O10_2 O 0.8132(3) 0.9542(2) 0.76309(14)
O13_2 O 0.9303(4) 0.7348(4) 0.44134(18)
C30_2 C 0.7798(4) 0.6938(3) 0.3839(2)
C31_2 C 0.5336(5) 0.5859(4) 0.5946(2)
H13_2 H 0.4638 0.5590 0.6268
C32_2 C 0.6363(5) 0.6094(3) 0.61637(19)
C33_2 C 0.5292(5) 0.6003(4) 0.5267(2)
H14_2 H 0.4571 0.5843 0.5131
C34_2 C 0.7361(5) 0.6527(3) 0.5681(2)
H15_2 H 0.8053 0.6731 0.5813
C35_2 C 0.6313(4) 0.6381(3) 0.48022(19)
C36_2 C 0.7327(4) 0.6652(3) 0.5015(2)
C37_2 C 0.6602(4) 0.6569(3) 0.40637(19)
C38_2 C 0.8302(5) 0.7046(4) 0.4421(2)
C39_2 C 0.7710(4) 0.7006(3) 0.27017(18)
C40_2 C 0.6485(4) 0.6675(4) 0.2927(2)
H16_2 H 0.6020 0.6593 0.2611
C41_2 C 0.5920(5) 0.6462(4) 0.3596(2)
H17_2 H 0.5082 0.6247 0.3732
C42_2 C 0.8347(4) 0.7160(3) 0.31800(19)
H18_2 H 0.9158 0.7418 0.3044
C43_2 C 0.8322(4) 0.7207(3) 0.19882(19)
C44_2 C 0.7651(4) 0.7184(3) 0.14848(18)
H19_2 H 0.6784 0.7022 0.1601
C45_2 C 0.8230(3) 0.7392(3) 0.08194(18)
C46_2 C 0.9505(4) 0.7623(3) 0.06344(18)
H20_2 H 0.9895 0.7777 0.0178
C48_2 C 0.9602(4) 0.7433(3) 0.17934(18)
C50_2 C 0.7484(4) 0.7381(3) 0.02823(18)
C51_2 C 0.6460(4) 0.5873(3) 0.6889(2)
C52_2 C 0.6983(4) 0.6486(3) 0.7120(2)
H22_2 H 0.7231 0.7066 0.6819
C53_2 C 0.7144(4) 0.6254(3) 0.77892(19)
C54_2 C 0.6791(4) 0.5401(3) 0.82334(19)
H23_2 H 0.6913 0.5242 0.8688
C55_2 C 0.6257(4) 0.4780(3) 0.80091(19)
C56_2 C 0.6091(4) 0.5026(3) 0.73379(19)
H24_2 H 0.5721 0.4610 0.7184
C57_2 C 0.5920(4) 0.3856(3) 0.84733(18)
C58_2 C 0.7724(4) 0.6916(3) 0.80306(19)
O21 O 0.8082(3) 0.7518(2) 0.97005(13)
N1 N 0.2247(5) 0.8908(3) 0.2896(2)
C59 C 0.2323(6) 0.9629(4) 0.2346(3)
C60 C 0.1673(7) 0.8994(6) 0.3572(3)
H25 H 0.1319 0.9636 0.3531
H26 H 0.2341 0.8828 0.3861
H27 H 0.0982 0.8575 0.3767
C61 C 0.2745(7) 0.7960(5) 0.2878(3)
H28 H 0.3059 0.7964 0.2414
H29 H 0.2052 0.7541 0.3068
H30 H 0.3454 0.7744 0.3141
H33 H 0.277358 0.952336 0.186859
H3 H 0.1230 0.9924 0.6837
H3_2 H 0.8770 0.0076 0.3163
N1_2 N 0.7753(5) 0.1092(3) 0.7104(2)
C59_2 C 0.7677(6) 0.0371(4) 0.7654(3)
C60_2 C 0.8327(7) 0.1006(6) 0.6428(3)
H25_2 H 0.8681 0.0364 0.6469
H26_2 H 0.7659 0.1172 0.6139
H27_2 H 0.9018 0.1425 0.6233
C61_2 C 0.7255(7) 0.2040(5) 0.7122(3)
H28_2 H 0.6941 0.2036 0.7586
H29_2 H 0.7948 0.2459 0.6932
H30_2 H 0.6546 0.2256 0.6859
H33_2 H 0.722642 0.047664 0.813141
loop_
_geom_bond_atom_site_label_1
_geom_bond_atom_site_label_2
_geom_bond_site_symmetry_1
_geom_bond_site_symmetry_2
Tb7 O11 1_555 1_555
Tb7 O6 1_555 1_555
O6 C58 1_555 1_555
O7 Tb7 1_555 1_555
O10 Tb7 1_555 1_555
O12 C50 1_555 1_555
O13 C38 1_555 1_555
O14 C57 1_555 1_555
O15 C57 1_555 1_555
C30 C37 1_555 1_555
C31 H13 1_555 1_555
C32 C31 1_555 1_555
C33 C31 1_555 1_555
H14 C33 1_555 1_555
C34 C32 1_555 1_555
H15 C34 1_555 1_555
C35 C33 1_555 1_555
C36 C34 1_555 1_555
C37 C35 1_555 1_555
C38 C30 1_555 1_555
C39 C40 1_555 1_555
C40 H16 1_555 1_555
C41 C37 1_555 1_555
H17 C41 1_555 1_555
C42 C30 1_555 1_555
H18 C42 1_555 1_555
C43 C39 1_555 1_555
C44 C43 1_555 1_555
H19 C44 1_555 1_555
C45 C44 1_555 1_555
C46 C45 1_555 1_555
H20 C46 1_555 1_555
C48 C43 1_555 1_555
C50 C45 1_555 1_555
C51 C32 1_555 1_555
C52 C51 1_555 1_555
H22 C52 1_555 1_555
C53 C52 1_555 1_555
C54 C53 1_555 1_555
H23 C54 1_555 1_555
C55 C54 1_555 1_555
C56 C51 1_555 1_555
H24 C56 1_555 1_555
C57 C55 1_555 1_555
C58 O7 1_555 1_555
Tb4 O12 1_555 1_555
Tb5 O14 1_555 1_555
O25 Tb7 1_555 1_555
O26 Tb7 1_555 1_555
O15 Tb5 1_555 1_555
C35 C36 1_555 1_555
C36 C38 1_555 1_555
C39 C42 1_555 1_555
C40 C41 1_555 1_555
C53 C58 1_555 1_555
C55 C56 1_555 1_555
Tb4 O1 1_555 1_555
O1 C49 1_555 1_555
O2 Tb4 1_555 1_555
O3 Tb4 1_555 1_555
O4 Tb4 1_555 1_555
O5 Tb4 1_555 1_555
O18 C4 1_555 1_555
O26 C21 1_555 1_555
O27 C21 1_555 1_555
C1 C2 1_555 1_555
C2 H1 1_555 1_555
C3 C2 1_555 1_555
C4 C3 1_555 1_555
C5 C4 1_555 1_555
C6 C5 1_555 1_555
H2 C6 1_555 1_555
C7 C6 1_555 1_555
C8 C7 1_555 1_555
C9 C8 1_555 1_555
H4 C9 1_555 1_555
C10 C5 1_555 1_555
C11 C3 1_555 1_555
C12 C11 1_555 1_555
H5 C12 1_555 1_555
C13 C1 1_555 1_555
H6 C13 1_555 1_555
C14 C1 1_555 1_555
C15 C14 1_555 1_555
H7 C15 1_555 1_555
C16 C15 1_555 1_555
C17 C16 1_555 1_555
H8 C17 1_555 1_555
C18 C17 1_555 1_555
C19 C14 1_555 1_555
H9 C19 1_555 1_555
C20 O8 1_555 1_555
C21 C16 1_555 1_555
C22 C7 1_555 1_555
C23 C22 1_555 1_555
H10 C23 1_555 1_555
C24 C23 1_555 1_555
C25 C24 1_555 1_555
H11 C25 1_555 1_555
C26 C25 1_555 1_555
C27 C22 1_555 1_555
H12 C27 1_555 1_555
C29 O3 1_555 1_555
C49 O2 1_555 1_555
O23 Tb4 1_555 1_555
O24 Tb4 1_555 1_555
O4 C29 1_555 1_555
O9 C20 1_555 1_555
C9 C10 1_555 1_555
C10 C11 1_555 1_555
C12 C13 1_555 1_555
C18 C19 1_555 1_555
C18 C20 1_555 1_555
C24 C29 1_555 1_555
C26 C27 1_555 1_555
C47 C49 1_555 1_555
O5 H31 1_555 1_555
O5 H32 1_555 1_555
O16 C28 1_555 1_555
O17 C28 1_555 1_555
Tb8 O17 1_555 1_555
O16_2 C28_2 1_555 1_555
O25 C28_2 1_555 1_555
Tb5 O1_2 1_555 1_555
O1_2 C49_2 1_555 1_555
O2_2 Tb5 1_555 1_555
O3_2 Tb5 1_555 1_555
O4_2 Tb5 1_555 1_555
O5_2 Tb5 1_555 1_555
O18_2 C4_2 1_555 1_555
O19 C21_2 1_555 1_555
O20 C21_2 1_555 1_555
C1_2 C2_2 1_555 1_555
C2_2 H1_2 1_555 1_555
C3_2 C2_2 1_555 1_555
C4_2 C3_2 1_555 1_555
C5_2 C4_2 1_555 1_555
C6_2 C5_2 1_555 1_555
H2_2 C6_2 1_555 1_555
C7_2 C6_2 1_555 1_555
C8_2 C7_2 1_555 1_555
C9_2 C8_2 1_555 1_555
H4_2 C9_2 1_555 1_555
C10_2 C5_2 1_555 1_555
C11_2 C3_2 1_555 1_555
C12_2 C11_2 1_555 1_555
H5_2 C12_2 1_555 1_555
C13_2 C1_2 1_555 1_555
H6_2 C13_2 1_555 1_555
C14_2 C1_2 1_555 1_555
C15_2 C14_2 1_555 1_555
H7_2 C15_2 1_555 1_555
C16_2 C15_2 1_555 1_555
C17_2 C16_2 1_555 1_555
H8_2 C17_2 1_555 1_555
C18_2 C17_2 1_555 1_555
C19_2 C14_2 1_555 1_555
H9_2 C19_2 1_555 1_555
C20_2 O8_2 1_555 1_555
C21_2 C16_2 1_555 1_555
C22_2 C7_2 1_555 1_555
C23_2 C22_2 1_555 1_555
H10_2 C23_2 1_555 1_555
C24_2 C23_2 1_555 1_555
C25_2 C24_2 1_555 1_555
H11_2 C25_2 1_555 1_555
C26_2 C25_2 1_555 1_555
C27_2 C22_2 1_555 1_555
H12_2 C27_2 1_555 1_555
C29_2 O3_2 1_555 1_555
C49_2 O2_2 1_555 1_555
Tb8 O19 1_555 1_555
O22 Tb5 1_555 1_555
O4_2 C29_2 1_555 1_555
O9_2 C20_2 1_555 1_555
C9_2 C10_2 1_555 1_555
C10_2 C11_2 1_555 1_555
C12_2 C13_2 1_555 1_555
C18_2 C19_2 1_555 1_555
C18_2 C20_2 1_555 1_555
C24_2 C29_2 1_555 1_555
C26_2 C27_2 1_555 1_555
C47_2 C49_2 1_555 1_555
O5_2 H31_2 1_555 1_555
O5_2 H32_2 1_555 1_555
Tb8 O6_2 1_555 1_555
O6_2 C58_2 1_555 1_555
O7_2 Tb8 1_555 1_555
O10_2 Tb8 1_555 1_555
O22 C50_2 1_555 1_555
O13_2 C38_2 1_555 1_555
O23 C57_2 1_555 1_555
O24 C57_2 1_555 1_555
C30_2 C37_2 1_555 1_555
C31_2 H13_2 1_555 1_555
C32_2 C31_2 1_555 1_555
C33_2 C31_2 1_555 1_555
H14_2 C33_2 1_555 1_555
C34_2 C32_2 1_555 1_555
H15_2 C34_2 1_555 1_555
C35_2 C33_2 1_555 1_555
C36_2 C34_2 1_555 1_555
C37_2 C35_2 1_555 1_555
C38_2 C30_2 1_555 1_555
C39_2 C40_2 1_555 1_555
C40_2 H16_2 1_555 1_555
C41_2 C37_2 1_555 1_555
H17_2 C41_2 1_555 1_555
C42_2 C30_2 1_555 1_555
H18_2 C42_2 1_555 1_555
C43_2 C39_2 1_555 1_555
C44_2 C43_2 1_555 1_555
H19_2 C44_2 1_555 1_555
C45_2 C44_2 1_555 1_555
C46_2 C45_2 1_555 1_555
H20_2 C46_2 1_555 1_555
C48_2 C43_2 1_555 1_555
C50_2 C45_2 1_555 1_555
C51_2 C32_2 1_555 1_555
C52_2 C51_2 1_555 1_555
H22_2 C52_2 1_555 1_555
C53_2 C52_2 1_555 1_555
C54_2 C53_2 1_555 1_555
H23_2 C54_2 1_555 1_555
C55_2 C54_2 1_555 1_555
C56_2 C51_2 1_555 1_555
H24_2 C56_2 1_555 1_555
C57_2 C55_2 1_555 1_555
C58_2 O7_2 1_555 1_555
O21 Tb8 1_555 1_555
C35_2 C36_2 1_555 1_555
C36_2 C38_2 1_555 1_555
C39_2 C42_2 1_555 1_555
C40_2 C41_2 1_555 1_555
C53_2 C58_2 1_555 1_555
C55_2 C56_2 1_555 1_555
N1 C59 1_555 1_555
C60 N1 1_555 1_555
H25 C60 1_555 1_555
H26 C60 1_555 1_555
H27 C60 1_555 1_555
C61 N1 1_555 1_555
H28 C61 1_555 1_555
H29 C61 1_555 1_555
H30 C61 1_555 1_555
C59 H33 1_555 1_555
N1_2 C59_2 1_555 1_555
C60_2 N1_2 1_555 1_555
H25_2 C60_2 1_555 1_555
H26_2 C60_2 1_555 1_555
H27_2 C60_2 1_555 1_555
C61_2 N1_2 1_555 1_555
H28_2 C61_2 1_555 1_555
H29_2 C61_2 1_555 1_555
H30_2 C61_2 1_555 1_555
C59_2 H33_2 1_555 1_555

#END
