
###############################################################################
#
# This file contains modified crystal structure data generated from the
# MOF subset of the Cambridge Structural Database (CSD) v543 
# hosted by the Cambridge Crystallographic Data Centre (CCDC).
#
# This work is licensed under the Creative Commons
# Attribution-NonCommercial-ShareAlike 4.0 International License.
# To view a copy of this license, visit
# http://creativecommons.org/licenses/by-nc-sa/4.0/
# or send a letter to
# Creative Commons, PO Box 1866, Mountain View, CA 94042, USA.
#
# CIF created using the CSD Python API on 29 September 2022
# The structure has been converted into the P1 space group
# The structure has a 3D framework
# The original CSD entry BIRCAJ is in the triclinic crystal system
# The framework has been calculated to contain at least 10.0% void space
# The void calculation uses a probe of radius 1.32A, grid spacing 0.4
# The framework is charged, counterions have been retained in the structure
# H atom positions have been added when not included in the experimental data
#
###############################################################################

data_BIRCAJ
_chemical_formula_moiety         '(C122 H66 Gd4 N2 O38 4-)n'
_symmetry_cell_setting           triclinic
_symmetry_space_group_name_H-M   'P 1'
_symmetry_Int_Tables_number      1
_space_group_name_Hall           'P 1'
loop_
_symmetry_equiv_pos_site_id
_symmetry_equiv_pos_as_xyz
1 x,y,z
_cell_length_a                   10.6040(3)
_cell_length_b                   15.2602(6)
_cell_length_c                   21.2690(8)
_cell_angle_alpha                71.882(4)
_cell_angle_beta                 79.392(3)
_cell_angle_gamma                82.535(3)
_cell_volume                     3205.44
loop_
_atom_site_label
_atom_site_type_symbol
_atom_site_fract_x
_atom_site_fract_y
_atom_site_fract_z
O9 O 0.1934(7) 0.2514(5) 0.0278(3)
Gd7 Gd 0.15351(5) 0.17985(4) 0.14406(2)
O1 O 0.1869(8) 0.0461(6) 0.2380(4)
O3 O 0.2034(7) 0.2307(5) 0.2363(4)
O4 O 0.4492(7) 0.6701(6) 0.1754(3)
O7 O 0.3705(6) 0.2797(5) 0.9539(3)
O13 O 0.2063(9) 0.3333(6) 0.1371(4)
O15 O 0.3875(7) 0.6359(6) 0.0933(3)
C2 C 0.3919(11) 0.4963(7) 0.2664(5)
H2 H 0.4296 0.5379 0.2814
C4 C 0.2548(9) 0.2617(7) 0.9708(5)
C6 C 0.3740(11) 0.5206(7) 0.2001(5)
O20 O 0.0729(10) 0.2632(9) 0.5587(5)
C11 C 0.2379(9) 0.2809(7) 0.8517(5)
H5 H 0.3249 0.2963 0.8405
C13 C 0.3207(11) 0.4590(7) 0.1776(5)
H6 H 0.3085 0.4749 0.1321
C14 C 0.1775(9) 0.2604(7) 0.9174(5)
C16 C 0.3557(11) 0.4121(7) 0.3118(5)
C23 C 0.0528(10) 0.2373(7) 0.9357(5)
H9 H 0.0140 0.2229 0.9814
C24 C 0.1688(10) 0.2787(7) 0.8011(5)
C26 C 0.2300(10) 0.2999(8) 0.7294(5)
C27 C 0.0405(10) 0.2575(8) 0.8201(5)
C29 C 0.3535(11) 0.3312(9) 0.7072(5)
H11 H 0.4010 0.3369 0.7393
C32 C 0.2276(11) 0.3093(7) 0.1970(5)
C37 C 0.3714(10) 0.3608(7) 0.5198(5)
C40 C 0.3033(11) 0.3518(7) 0.2881(5)
H15 H 0.2792 0.2937 0.3178
C41 C 0.1672(10) 0.2838(7) 0.6818(5)
H16 H 0.0867 0.2573 0.6952
C42 C 0.3419(10) 0.3437(8) 0.5935(5)
C45 C 0.2858(10) 0.3753(7) 0.2215(5)
C47 C 0.2227(11) 0.3064(8) 0.6164(5)
C48 C 0.4068(11) 0.6125(8) 0.1537(5)
C49 C 0.3658(12) 0.3896(8) 0.3843(5)
C50 C 0.4103(11) 0.3544(9) 0.6399(5)
H19 H 0.4935 0.3768 0.6264
C51 C 0.1724(11) 0.2939(9) 0.5583(5)
C52 C 0.4718(12) 0.4002(10) 0.4728(6)
H20 H 0.5429 0.4178 0.4862
C53 C 0.4680(12) 0.4139(8) 0.4056(6)
H21 H 0.5377 0.4407 0.3733
C54 C 0.2684(11) 0.3351(7) 0.4979(5)
C56 C 0.2656(12) 0.3472(8) 0.4321(5)
H23 H 0.1964 0.3270 0.4188
Gd4 Gd 0.57436(5) 0.19890(4) 0.92923(2)
Gd5 Gd 0.42564(5) 0.80110(4) 0.07077(2)
O25 O 0.3665(7) 0.1386(6) 0.1202(4)
O26 O 0.0768(7) 0.0552(6) 0.1260(4)
O24 O 0.5455(7) 0.1574(6) 0.0471(3)
O2 O 0.5122(6) 0.1411(5) 0.8429(3)
O5 O 0.9516(7) 0.1848(6) 0.2193(4)
O6 O 0.7866(7) 0.2071(6) 0.8589(4)
O8 O 0.6757(6) 0.0434(5) 0.9490(3)
O11 O 0.7864(7) 0.2096(5) 0.9619(3)
O16 O 0.4030(6) 0.0923(5) 0.9447(3)
O17 O 0.6037(9) 0.1786(8) 0.5221(4)
O18 O 0.9373(8) 0.2427(7) 0.1131(4)
C1 C 0.6818(9) 0.1872(7) 0.1378(5)
H1 H 0.7251 0.1977 0.0931
C3 C 0.1166(9) 0.0108(7) 0.8631(5)
C5 C 0.9833(9) 0.2352(7) 0.8867(5)
C7 C 0.7433(10) 0.1935(7) 0.1875(5)
C8 C 0.5548(9) 0.1651(7) 0.1546(5)
C9 C 0.4920(9) 0.1500(8) 0.2199(5)
H3 H 0.4053 0.1340 0.2306
C10 C 0.6810(10) 0.1796(7) 0.2529(5)
H4 H 0.7264 0.1852 0.2858
C12 C 0.4211(9) 0.1002(8) 0.8826(5)
C17 C 0.8850(10) 0.2100(7) 0.1720(5)
C18 C 0.3467(9) 0.0697(7) 0.7870(5)
H7 H 0.4269 0.0890 0.7613
C19 C 0.2078(9) 0.0344(7) 0.8932(5)
H8 H 0.1912 0.0300 0.9395
C20 C 0.3252(9) 0.0650(6) 0.8540(5)
C21 C 0.8445(10) 0.2164(8) 0.9033(5)
C22 C 0.5548(9) 0.1580(8) 0.2709(5)
C25 C 0.4842(10) 0.1543(6) 0.1016(5)
H10 H 0.9913 0.2585 0.7868
C28 C 0.4884(10) 0.1361(7) 0.3408(5)
C30 C 0.4745(10) 0.1319(8) 0.4562(5)
C31 C 0.2793(9) 0.0559(8) 0.6833(5)
C33 C 0.3874(10) 0.0979(7) 0.6400(5)
H12 H 0.4476 0.1219 0.6571
C34 C 0.3170(10) 0.0709(9) 0.5454(5)
C35 C 0.1403(10) 0.0188(7) 0.7952(5)
H13 H 0.0758 0.0043 0.7752
C36 C 0.5378(10) 0.1576(8) 0.3905(5)
H14 H 0.6139 0.1893 0.3795
C38 C 0.2572(10) 0.0477(7) 0.7551(5)
C39 C 0.4051(10) 0.1041(7) 0.5733(5)
C43 C 0.3612(10) 0.0885(8) 0.4735(5)
C44 C 0.3738(10) 0.0911(9) 0.3598(5)
H17 H 0.3384 0.0767 0.3266
C46 C 0.3104(11) 0.0668(10) 0.4255(5)
H18 H 0.2336 0.0358 0.4371
C55 C 0.2121(10) 0.0283(9) 0.5875(5)
H22 H 0.1518 0.0048 0.5702
C57 C 0.5105(11) 0.1451(8) 0.5181(5)
C58 C 0.1961(10) 0.0205(9) 0.6552(5)
O21 O 0.5508(7) 0.3299(6) 0.8246(3)
O27 O 0.6125(7) 0.3641(6) 0.9067(3)
H26 H 0.735967 0.0384861 0.908348
H27 H 0.723987 0.0288867 0.987282
O14 O 0.9232(7) 0.9448(6) 0.8740(4)
O19 O 0.9467(7) 0.9879(8) 0.9579(4)
C15 C 0.9903(10) 0.9781(7) 0.9021(5)
Gd8 Gd 0.84649(5) 0.82015(4) 0.85594(2)
O19_2 O 0.0533(7) 0.0121(8) 0.0421(4)
C15_2 C 0.0097(10) 0.0219(7) 0.0979(5)
O2_2 O 0.4878(6) 0.8589(5) 0.1571(3)
O5_2 O 0.0484(7) 0.8152(6) 0.7807(4)
O6_2 O 0.2134(7) 0.7929(6) 0.1411(4)
O8_2 O 0.3243(6) 0.9566(5) 0.0510(3)
O10 O 0.4545(7) 0.8426(6) 0.9529(3)
O11_2 O 0.2136(7) 0.7904(5) 0.0381(3)
O12 O 0.6335(7) 0.8614(6) 0.8798(4)
O16_2 O 0.5970(6) 0.9077(5) 0.0553(3)
O17_2 O 0.3963(9) 0.8214(8) 0.4779(4)
O18_2 O 0.0627(8) 0.7573(7) 0.8869(4)
C1_2 C 0.3182(9) 0.8128(7) 0.8622(5)
H1_2 H 0.2749 0.8023 0.9069
C3_2 C 0.8834(9) 0.9892(7) 0.1369(5)
C5_2 C 0.0167(9) 0.7648(7) 0.1133(5)
C7_2 C 0.2567(10) 0.8065(7) 0.8125(5)
C8_2 C 0.4452(9) 0.8349(7) 0.8454(5)
C9_2 C 0.5080(9) 0.8500(8) 0.7801(5)
H3_2 H 0.5947 0.8660 0.7694
C10_2 C 0.3190(10) 0.8204(7) 0.7471(5)
H4_2 H 0.2736 0.8148 0.7142
C12_2 C 0.5789(9) 0.8998(8) 0.1174(5)
C17_2 C 0.1150(10) 0.7900(7) 0.8280(5)
C18_2 C 0.6533(9) 0.9303(7) 0.2130(5)
H7_2 H 0.5731 0.9110 0.2387
C19_2 C 0.7922(9) 0.9656(7) 0.1068(5)
H8_2 H 0.8088 0.9700 0.0605
C20_2 C 0.6748(9) 0.9350(6) 0.1460(5)
C21_2 C 0.1555(10) 0.7836(8) 0.0967(5)
C22_2 C 0.4452(9) 0.8420(8) 0.7291(5)
C25_2 C 0.5158(10) 0.8457(6) 0.8984(5)
H10_2 H 0.0087 0.7415 0.2132
C28_2 C 0.5116(10) 0.8639(7) 0.6592(5)
C30_2 C 0.5255(10) 0.8681(8) 0.5438(5)
C31_2 C 0.7207(9) 0.9441(8) 0.3167(5)
C33_2 C 0.6126(10) 0.9021(7) 0.3600(5)
H12_2 H 0.5524 0.8781 0.3429
C34_2 C 0.6830(10) 0.9291(9) 0.4546(5)
C35_2 C 0.8597(10) 0.9812(7) 0.2048(5)
H13_2 H 0.9242 0.9957 0.2248
C36_2 C 0.4622(10) 0.8424(8) 0.6095(5)
H14_2 H 0.3861 0.8107 0.6205
C38_2 C 0.7428(10) 0.9523(7) 0.2449(5)
C39_2 C 0.5949(10) 0.8959(7) 0.4267(5)
C43_2 C 0.6388(10) 0.9115(8) 0.5265(5)
C44_2 C 0.6262(10) 0.9089(9) 0.6402(5)
H17_2 H 0.6616 0.9233 0.6734
C46_2 C 0.6896(11) 0.9332(10) 0.5745(5)
H18_2 H 0.7664 0.9642 0.5629
C55_2 C 0.7879(10) 0.9717(9) 0.4125(5)
H22_2 H 0.8482 0.9952 0.4298
C57_2 C 0.4895(11) 0.8549(8) 0.4819(5)
C58_2 C 0.8039(10) 0.9795(9) 0.3448(5)
O22 O 0.6295(6) 0.7203(5) 0.0461(3)
H26_2 H 0.264033 0.961514 0.091652
H27_2 H 0.276013 0.971113 0.0127183
O1_2 O 0.8131(8) 0.9539(6) 0.7620(4)
O3_2 O 0.7966(7) 0.7693(5) 0.7637(4)
O13_2 O 0.7937(9) 0.6667(6) 0.8629(4)
C2_2 C 0.6081(11) 0.5037(7) 0.7336(5)
H2_2 H 0.5704 0.4621 0.7186
C4_2 C 0.7452(9) 0.7383(7) 0.0292(5)
C6_2 C 0.6260(11) 0.4794(7) 0.7999(5)
O20_2 O 0.9271(10) 0.7368(9) 0.4413(5)
C11_2 C 0.7621(9) 0.7191(7) 0.1483(5)
H5_2 H 0.6751 0.7037 0.1595
C13_2 C 0.6793(11) 0.5410(7) 0.8224(5)
H6_2 H 0.6915 0.5251 0.8679
C14_2 C 0.8225(9) 0.7396(7) 0.0826(5)
C16_2 C 0.6443(11) 0.5879(7) 0.6882(5)
C23_2 C 0.9472(10) 0.7627(7) 0.0643(5)
H9_2 H 0.9860 0.7771 0.0186
C24_2 C 0.8312(10) 0.7213(7) 0.1989(5)
C26_2 C 0.7700(10) 0.7001(8) 0.2706(5)
C27_2 C 0.9595(10) 0.7425(8) 0.1799(5)
C29_2 C 0.6465(11) 0.6688(9) 0.2928(5)
H11_2 H 0.5990 0.6631 0.2607
C32_2 C 0.7724(11) 0.6907(7) 0.8030(5)
C37_2 C 0.6286(10) 0.6392(7) 0.4802(5)
C40_2 C 0.6967(11) 0.6482(7) 0.7119(5)
H15_2 H 0.7208 0.7063 0.6822
C41_2 C 0.8328(10) 0.7162(7) 0.3182(5)
H16_2 H 0.9133 0.7427 0.3048
C42_2 C 0.6581(10) 0.6563(8) 0.4065(5)
C45_2 C 0.7142(10) 0.6247(7) 0.7785(5)
C47_2 C 0.7773(11) 0.6936(8) 0.3836(5)
C48_2 C 0.5932(11) 0.3875(8) 0.8463(5)
C49_2 C 0.6342(12) 0.6104(8) 0.6157(5)
C50_2 C 0.5897(11) 0.6456(9) 0.3601(5)
H19_2 H 0.5065 0.6232 0.3736
C51_2 C 0.8276(11) 0.7061(9) 0.4417(5)
C52_2 C 0.5282(12) 0.5998(10) 0.5272(6)
H20_2 H 0.4571 0.5822 0.5138
C53_2 C 0.5320(12) 0.5861(8) 0.5944(6)
H21_2 H 0.4623 0.5593 0.6267
C54_2 C 0.7316(11) 0.6649(7) 0.5021(5)
C56_2 C 0.7344(12) 0.6528(8) 0.5679(5)
H23_2 H 0.8036 0.6730 0.5812
O23 O 0.8066(7) 0.7486(5) 0.9722(3)
N1 N 0.2259(13) 0.8917(11) 0.2890(7)
C59 C 0.1666(18) 0.8961(14) 0.3594(9)
C60 C 0.2770(19) 0.7981(13) 0.2862(10)
C61 C 0.2313(16) 0.9625(16) 0.2361(8)
H25 H 0.2689 0.9537 0.1942
H28 H 0.239337 0.872632 0.392365
H29 H 0.13125 0.967054 0.35734
H30 H 0.0870587 0.851741 0.37854
H31 H 0.199567 0.751835 0.303964
H32 H 0.317301 0.80066 0.23478
H33 H 0.351846 0.772726 0.317789
H24 H 0.1252 0.9895 0.6837
H24_2 H 0.8748 0.0105 0.3163
N1_2 N 0.7741(13) 0.1083(11) 0.7110(7)
C59_2 C 0.8334(18) 0.1039(14) 0.6406(9)
C60_2 C 0.7230(19) 0.2019(13) 0.7138(10)
C61_2 C 0.7687(16) 0.0375(16) 0.7639(8)
H25_2 H 0.7311 0.0463 0.8058
H28_2 H 0.760663 0.127368 0.607635
H29_2 H 0.86875 0.0329455 0.64266
H30_2 H 0.912941 0.148259 0.62146
H31_2 H 0.800433 0.248165 0.696036
H32_2 H 0.682699 0.19934 0.76522
H33_2 H 0.648154 0.227274 0.682211
loop_
_geom_bond_atom_site_label_1
_geom_bond_atom_site_label_2
_geom_bond_site_symmetry_1
_geom_bond_site_symmetry_2
Gd7 O9 1_555 1_555
Gd7 O1 1_555 1_555
O3 Gd7 1_555 1_555
O4 C48 1_555 1_555
O7 C4 1_555 1_555
O13 Gd7 1_555 1_555
O15 C48 1_555 1_555
C2 H2 1_555 1_555
C4 C14 1_555 1_555
C6 C2 1_555 1_555
O20 C51 1_555 1_555
C11 H5 1_555 1_555
C13 C6 1_555 1_555
H6 C13 1_555 1_555
C14 C11 1_555 1_555
C16 C2 1_555 1_555
H9 C23 1_555 1_555
C24 C11 1_555 1_555
C26 C24 1_555 1_555
C29 C26 1_555 1_555
H11 C29 1_555 1_555
C32 O3 1_555 1_555
C37 C42 1_555 1_555
C40 C16 1_555 1_555
H15 C40 1_555 1_555
C41 C26 1_555 1_555
H16 C41 1_555 1_555
C42 C47 1_555 1_555
C45 C13 1_555 1_555
C47 C41 1_555 1_555
C48 C6 1_555 1_555
C49 C16 1_555 1_555
C50 C29 1_555 1_555
H19 C50 1_555 1_555
C51 C47 1_555 1_555
C52 C37 1_555 1_555
H20 C52 1_555 1_555
C53 C49 1_555 1_555
H21 C53 1_555 1_555
C54 C37 1_555 1_555
C56 C49 1_555 1_555
H23 C56 1_555 1_555
Gd4 O7 1_555 1_555
Gd5 O4 1_555 1_555
O25 Gd7 1_555 1_555
O26 Gd7 1_555 1_555
O13 C32 1_555 1_555
O15 Gd5 1_555 1_555
C14 C23 1_555 1_555
C24 C27 1_555 1_555
C32 C45 1_555 1_555
C40 C45 1_555 1_555
C42 C50 1_555 1_555
C51 C54 1_555 1_555
C52 C53 1_555 1_555
C54 C56 1_555 1_555
Gd4 O2 1_555 1_555
O2 C12 1_555 1_555
O6 Gd4 1_555 1_555
O8 Gd4 1_555 1_555
O24 C25 1_555 1_555
O11 Gd4 1_555 1_555
O25 C25 1_555 1_555
O16 Gd4 1_555 1_555
O17 C57 1_555 1_555
C1 H1 1_555 1_555
C5 C21 1_555 1_555
C7 C1 1_555 1_555
C8 C1 1_555 1_555
C9 C8 1_555 1_555
H3 C9 1_555 1_555
C10 C7 1_555 1_555
H4 C10 1_555 1_555
C12 O16 1_555 1_555
C17 O5 1_555 1_555
C18 H7 1_555 1_555
C19 C3 1_555 1_555
H8 C19 1_555 1_555
C20 C12 1_555 1_555
C21 O6 1_555 1_555
C22 C9 1_555 1_555
C25 C8 1_555 1_555
C28 C22 1_555 1_555
C30 C36 1_555 1_555
C31 C33 1_555 1_555
C33 H12 1_555 1_555
C34 C39 1_555 1_555
C35 C3 1_555 1_555
H13 C35 1_555 1_555
C36 C28 1_555 1_555
H14 C36 1_555 1_555
C38 C18 1_555 1_555
C39 C33 1_555 1_555
C43 C30 1_555 1_555
C44 C28 1_555 1_555
H17 C44 1_555 1_555
C46 C43 1_555 1_555
H18 C46 1_555 1_555
C55 C34 1_555 1_555
H22 C55 1_555 1_555
C57 C30 1_555 1_555
C58 C31 1_555 1_555
O21 Gd4 1_555 1_555
O27 Gd4 1_555 1_555
O11 C21 1_555 1_555
O18 C17 1_555 1_555
C7 C17 1_555 1_555
C10 C22 1_555 1_555
C18 C20 1_555 1_555
C19 C20 1_555 1_555
C31 C38 1_555 1_555
C34 C43 1_555 1_555
C35 C38 1_555 1_555
C39 C57 1_555 1_555
C44 C46 1_555 1_555
C55 C58 1_555 1_555
O8 H26 1_555 1_555
O8 H27 1_555 1_555
O14 C15 1_555 1_555
O19 C15 1_555 1_555
Gd8 O14 1_555 1_555
O26 C15_2 1_555 1_555
O19_2 C15_2 1_555 1_555
Gd5 O2_2 1_555 1_555
O2_2 C12_2 1_555 1_555
O6_2 Gd5 1_555 1_555
O8_2 Gd5 1_555 1_555
O10 C25_2 1_555 1_555
O11_2 Gd5 1_555 1_555
O12 C25_2 1_555 1_555
O16_2 Gd5 1_555 1_555
O17_2 C57_2 1_555 1_555
C1_2 H1_2 1_555 1_555
C5_2 C21_2 1_555 1_555
C7_2 C1_2 1_555 1_555
C8_2 C1_2 1_555 1_555
C9_2 C8_2 1_555 1_555
H3_2 C9_2 1_555 1_555
C10_2 C7_2 1_555 1_555
H4_2 C10_2 1_555 1_555
C12_2 O16_2 1_555 1_555
C17_2 O5_2 1_555 1_555
C18_2 H7_2 1_555 1_555
C19_2 C3_2 1_555 1_555
H8_2 C19_2 1_555 1_555
C20_2 C12_2 1_555 1_555
C21_2 O6_2 1_555 1_555
C22_2 C9_2 1_555 1_555
C25_2 C8_2 1_555 1_555
C28_2 C22_2 1_555 1_555
C30_2 C36_2 1_555 1_555
C31_2 C33_2 1_555 1_555
C33_2 H12_2 1_555 1_555
C34_2 C39_2 1_555 1_555
C35_2 C3_2 1_555 1_555
H13_2 C35_2 1_555 1_555
C36_2 C28_2 1_555 1_555
H14_2 C36_2 1_555 1_555
C38_2 C18_2 1_555 1_555
C39_2 C33_2 1_555 1_555
C43_2 C30_2 1_555 1_555
C44_2 C28_2 1_555 1_555
H17_2 C44_2 1_555 1_555
C46_2 C43_2 1_555 1_555
H18_2 C46_2 1_555 1_555
C55_2 C34_2 1_555 1_555
H22_2 C55_2 1_555 1_555
C57_2 C30_2 1_555 1_555
C58_2 C31_2 1_555 1_555
Gd8 O12 1_555 1_555
O22 Gd5 1_555 1_555
O11_2 C21_2 1_555 1_555
O18_2 C17_2 1_555 1_555
C7_2 C17_2 1_555 1_555
C10_2 C22_2 1_555 1_555
C18_2 C20_2 1_555 1_555
C19_2 C20_2 1_555 1_555
C31_2 C38_2 1_555 1_555
C34_2 C43_2 1_555 1_555
C35_2 C38_2 1_555 1_555
C39_2 C57_2 1_555 1_555
C44_2 C46_2 1_555 1_555
C55_2 C58_2 1_555 1_555
O8_2 H26_2 1_555 1_555
O8_2 H27_2 1_555 1_555
Gd8 O1_2 1_555 1_555
O3_2 Gd8 1_555 1_555
O21 C48_2 1_555 1_555
O22 C4_2 1_555 1_555
O13_2 Gd8 1_555 1_555
O27 C48_2 1_555 1_555
C2_2 H2_2 1_555 1_555
C4_2 C14_2 1_555 1_555
C6_2 C2_2 1_555 1_555
O20_2 C51_2 1_555 1_555
C11_2 H5_2 1_555 1_555
C13_2 C6_2 1_555 1_555
H6_2 C13_2 1_555 1_555
C14_2 C11_2 1_555 1_555
C16_2 C2_2 1_555 1_555
H9_2 C23_2 1_555 1_555
C24_2 C11_2 1_555 1_555
C26_2 C24_2 1_555 1_555
C29_2 C26_2 1_555 1_555
H11_2 C29_2 1_555 1_555
C32_2 O3_2 1_555 1_555
C37_2 C42_2 1_555 1_555
C40_2 C16_2 1_555 1_555
H15_2 C40_2 1_555 1_555
C41_2 C26_2 1_555 1_555
H16_2 C41_2 1_555 1_555
C42_2 C47_2 1_555 1_555
C45_2 C13_2 1_555 1_555
C47_2 C41_2 1_555 1_555
C48_2 C6_2 1_555 1_555
C49_2 C16_2 1_555 1_555
C50_2 C29_2 1_555 1_555
H19_2 C50_2 1_555 1_555
C51_2 C47_2 1_555 1_555
C52_2 C37_2 1_555 1_555
H20_2 C52_2 1_555 1_555
C53_2 C49_2 1_555 1_555
H21_2 C53_2 1_555 1_555
C54_2 C37_2 1_555 1_555
C56_2 C49_2 1_555 1_555
H23_2 C56_2 1_555 1_555
O23 Gd8 1_555 1_555
O13_2 C32_2 1_555 1_555
C14_2 C23_2 1_555 1_555
C24_2 C27_2 1_555 1_555
C32_2 C45_2 1_555 1_555
C40_2 C45_2 1_555 1_555
C42_2 C50_2 1_555 1_555
C51_2 C54_2 1_555 1_555
C52_2 C53_2 1_555 1_555
C54_2 C56_2 1_555 1_555
N1 C59 1_555 1_555
C60 N1 1_555 1_555
C61 N1 1_555 1_555
H25 C61 1_555 1_555
C59 H28 1_555 1_555
C59 H29 1_555 1_555
C59 H30 1_555 1_555
C60 H31 1_555 1_555
C60 H32 1_555 1_555
C60 H33 1_555 1_555
N1_2 C59_2 1_555 1_555
C60_2 N1_2 1_555 1_555
C61_2 N1_2 1_555 1_555
H25_2 C61_2 1_555 1_555
C59_2 H28_2 1_555 1_555
C59_2 H29_2 1_555 1_555
C59_2 H30_2 1_555 1_555
C60_2 H31_2 1_555 1_555
C60_2 H32_2 1_555 1_555
C60_2 H33_2 1_555 1_555

#END
