
###############################################################################
#
# This file contains modified crystal structure data generated from the
# MOF subset of the Cambridge Structural Database (CSD) v543 
# hosted by the Cambridge Crystallographic Data Centre (CCDC).
#
# This work is licensed under the Creative Commons
# Attribution-NonCommercial-ShareAlike 4.0 International License.
# To view a copy of this license, visit
# http://creativecommons.org/licenses/by-nc-sa/4.0/
# or send a letter to
# Creative Commons, PO Box 1866, Mountain View, CA 94042, USA.
#
# CIF created using the CSD Python API on 29 September 2022
# The structure has been converted into the P1 space group
# The structure has a 3D framework
# The original CSD entry BIRMUM is in the monoclinic crystal system
# The framework has been calculated to contain at least 10.0% void space
# The void calculation uses a probe of radius 1.32A, grid spacing 0.4
#
###############################################################################

data_BIRMUM
_chemical_formula_moiety         '(C188 H164 Mn8 N4 O39)n'
_symmetry_cell_setting           triclinic
_symmetry_space_group_name_H-M   'P 1'
_symmetry_Int_Tables_number      1
_space_group_name_Hall           'P 1'
loop_
_symmetry_equiv_pos_site_id
_symmetry_equiv_pos_as_xyz
1 x,y,z
_cell_length_a                   21.075(2)
_cell_length_b                   7.0239(7)
_cell_length_c                   31.990(3)
_cell_angle_alpha                90
_cell_angle_beta                 104.356(2)
_cell_angle_gamma                90
_cell_volume                     4587.57
loop_
_atom_site_label
_atom_site_type_symbol
_atom_site_fract_x
_atom_site_fract_y
_atom_site_fract_z
Mn1 Mn 0.30068(3) 0.11129(9) 0.250539(19)
Mn2 Mn 0.24495(3) 0.60247(9) 0.232685(19)
O1 O 0.34489(16) 0.0157(5) 0.20062(10)
O2 O 0.20951(15) 0.1347(4) 0.20509(9)
O3 O 0.33549(15) 0.4060(4) 0.23780(9)
O6 O 0.19827(16) 0.4267(4) 0.17720(9)
O7 O 0.38471(16) 0.0169(5) 0.30199(10)
N1 N 0.42608(19) 0.4047(6) 0.21191(13)
C16 C 0.0308(2) 0.3681(7) 0.03094(14)
C18 C 0.1876(2) 0.2526(6) 0.17448(14)
C23 C 0.1098(2) 0.2992(7) 0.10148(13)
H7 H 0.1151 0.4299 0.1055
C25 C 0.0676(2) 0.2314(7) 0.06426(14)
C27 C 0.1447(2) 0.1749(6) 0.13328(14)
C29 C 0.3634(2) 0.4151(6) 0.20724(15)
H10 H 0.3371 0.4304 0.1794
C38 C 0.0613(3) 0.0375(8) 0.05828(17)
O9 O 0.16512(16) 0.7949(5) 0.22709(11)
H31 H 0.1312 0.8264 0.2350
H32 H 0.1727 0.8817 0.2103
C45 C 0.4554(3) 0.4044(8) 0.17489(17)
H33 H 0.4740 0.2814 0.1723
H34 H 0.4892 0.4994 0.1790
H35 H 0.4223 0.4320 0.1490
C46 C 0.4681(3) 0.3715(11) 0.2547(2)
H36 H 0.4578 0.4615 0.2746
H37 H 0.5131 0.3864 0.2539
H38 H 0.4612 0.2446 0.2638
C54 C 0.0659(2) 0.4875(7) 0.01103(15)
H43 H 0.1114 0.4790 0.0188
O14 O 0.69101(16) 0.2005(5) 0.71992(9)
C59 C 0.4643(2) 0.1499(7) 0.51299(14)
C60 C 0.6415(2) 0.1371(7) 0.69236(13)
C61 C 0.5290(2) 0.1121(7) 0.53657(13)
C62 C 0.6173(2) 0.2414(7) 0.65096(13)
C63 C 0.5824(2) 0.1382(7) 0.61518(13)
H50 H 0.5728 0.0105 0.6182
C64 C 0.5622(2) 0.2262(7) 0.57515(13)
C65 C 0.4374(2) 0.0367(7) 0.47706(14)
H51 H 0.3948 0.0622 0.4614
C66 C 0.5758(2) 0.4200(7) 0.57234(15)
H52 H 0.5618 0.4818 0.5459
C67 C 0.6302(2) 0.4326(7) 0.64716(15)
H53 H 0.6529 0.5010 0.6711
C68 C 0.6092(2) 0.5215(7) 0.60773(16)
H54 H 0.6178 0.6502 0.6050
C69 C 0.4217(3) 0.2957(8) 0.52727(16)
H55 H 0.4397 0.4203 0.5259
H56 H 0.3783 0.2905 0.5087
H57 H 0.4198 0.2693 0.5564
Mn11 Mn 0.75505(3) 0.39753(9) 0.767315(19)
O21 O 0.27833(15) 0.7630(4) 0.18550(9)
O24 O 0.20653(17) 0.4641(5) 0.27883(10)
O26 O 0.30899(16) 0.7995(5) 0.28008(9)
O30 O 0.26405(16) 0.2035(5) 0.30270(9)
C2 C 0.3215(2) 0.8736(6) 0.17817(13)
C3 C 0.2923(2) 0.5820(7) 0.03045(13)
C4 C 0.3480(2) 0.8274(6) 0.13973(13)
C6 C 0.4107(2) 0.8827(7) 0.13917(14)
H2 H 0.4359 0.9540 0.1617
C7 C 0.5357(2) 0.8501(7) 0.48701(14)
C8 C 0.3585(2) 0.8629(7) 0.30764(13)
C9 C 0.4710(2) 0.8879(7) 0.46343(13)
C10 C 0.3827(2) 0.7586(7) 0.34904(13)
C11 C 0.2656(2) 0.3993(7) 0.03157(14)
C12 C 0.3327(2) 0.6797(7) 0.06925(14)
C17 C 0.3096(2) 0.7240(7) 0.10517(13)
H3 H 0.2679 0.6844 0.1063
C22 C 0.4176(2) 0.8618(7) 0.38482(13)
H6 H 0.4272 0.9895 0.3818
C24 C 0.3972(3) 0.7327(7) 0.07003(15)
H8 H 0.4144 0.7013 0.0468
C30 C 0.4378(2) 0.7738(7) 0.42485(13)
C31 C 0.5626(2) 0.9633(7) 0.52294(14)
H11 H 0.6052 0.9378 0.5386
C32 C 0.4242(2) 0.5800(7) 0.42766(15)
H12 H 0.4382 0.5182 0.4541
C34 C 0.3698(2) 0.5674(7) 0.35284(15)
H14 H 0.3471 0.4990 0.3289
C36 C 0.3908(2) 0.4785(7) 0.39227(16)
H16 H 0.3822 0.3498 0.3950
C37 C 0.0969(3) 0.9117(8) 0.08825(18)
H17 H 0.0929 0.7812 0.0834
H18 H 0.0325 0.9903 0.0336
C39 C 0.5783(3) 0.7043(8) 0.47273(16)
H19 H 0.5603 0.5797 0.4741
H20 H 0.6217 0.7095 0.4913
H21 H 0.5802 0.7307 0.4436
C41 C 0.4355(3) 0.8306(7) 0.10459(15)
H23 H 0.4784 0.8620 0.1047
C42 C 0.1386(3) 0.9815(7) 0.12568(16)
H24 H 0.1627 0.8970 0.1459
C43 C 0.2745(3) 0.2838(9) 0.07238(16)
H25 H 0.2610 0.1549 0.0652
H26 H 0.2483 0.3375 0.0901
H27 H 0.3197 0.2857 0.0879
O13 O 0.61529(16) 0.9831(5) 0.69801(10)
Mn6 Mn 0.69932(3) 0.88871(9) 0.749461(19)
C55 C 0.9031(3) 0.0883(8) 0.91175(18)
H44 H 0.9071 0.2188 0.9166
H45 H 0.9675 0.0097 0.9664
C57 C 0.8614(3) 0.0185(7) 0.87432(16)
H46 H 0.8373 0.1030 0.8541
O17 O 0.72167(15) 0.2370(4) 0.81450(9)
C71 C 0.6785(2) 0.1264(6) 0.82183(13)
C72 C 0.7077(2) 0.4180(7) 0.96955(13)
C73 C 0.6520(2) 0.1726(6) 0.86027(13)
C75 C 0.5893(2) 0.1173(7) 0.86083(14)
H59 H 0.5641 0.0460 0.8383
C76 C 0.7344(2) 0.6007(7) 0.96843(14)
C77 C 0.6673(2) 0.3203(7) 0.93075(14)
C80 C 0.6904(2) 0.2760(7) 0.89483(13)
H60 H 0.7321 0.3156 0.8937
C84 C 0.6028(3) 0.2673(7) 0.92997(15)
H63 H 0.5856 0.2987 0.9532
C90 C 0.5645(3) 0.1694(7) 0.89541(15)
H68 H 0.5216 0.1380 0.8953
C91 C 0.7255(3) 0.7162(9) 0.92762(16)
H69 H 0.7390 0.8451 0.9348
H70 H 0.7517 0.6625 0.9099
H71 H 0.6803 0.7143 0.9121
C35 C 0.9341(2) 0.5125(7) 0.98897(15)
H15 H 0.8886 0.5210 0.9812
O11 O 0.79049(15) 0.8653(4) 0.79491(9)
O12 O 0.80173(16) 0.5733(4) 0.82280(9)
C49 C 0.9692(2) 0.6319(7) 0.96906(14)
C50 C 0.8124(2) 0.7474(6) 0.82552(14)
C51 C 0.8902(2) 0.7008(7) 0.89852(13)
H42 H 0.8849 0.5701 0.8945
C52 C 0.9324(2) 0.7686(7) 0.93574(14)
C53 C 0.8553(2) 0.8251(6) 0.86672(14)
C56 C 0.9387(3) 0.9625(8) 0.94172(17)
O15 O 0.65511(16) 0.9843(5) 0.79938(10)
O16 O 0.66451(15) 0.5940(4) 0.76220(9)
N2 N 0.57392(19) 0.5953(6) 0.78809(13)
C87 C 0.6366(2) 0.5849(6) 0.79276(15)
H65 H 0.6629 0.5696 0.8206
O19 O 0.83488(16) 0.2051(5) 0.77291(11)
H75 H 0.8688 0.1736 0.7650
H76 H 0.8273 0.1183 0.7897
C93 C 0.5446(3) 0.5956(8) 0.82511(17)
H77 H 0.5260 0.7186 0.8277
H78 H 0.5108 0.5006 0.8210
H79 H 0.5777 0.5680 0.8510
C94 C 0.5319(3) 0.6285(11) 0.7453(2)
H80 H 0.5422 0.5385 0.7254
H81 H 0.4869 0.6136 0.7461
H82 H 0.5388 0.7554 0.7362
O23 O 0.79347(17) 0.5359(5) 0.72117(10)
O29 O 0.73595(16) 0.7965(5) 0.69730(9)
C70 C 0.1346(3) 0.4200(7) 0.34099(14)
H58 H 0.1155 0.4938 0.3170
C74 C 0.1915(2) 0.3199(7) 0.34238(13)
C76_2 C 0.2656(2) 0.1007(7) 0.53157(14)
C78 C 0.1924(2) 0.2011(7) 0.41342(14)
C81 C 0.2249(2) 0.0932(7) 0.45291(14)
C82 C 0.1060(3) 0.4097(8) 0.37563(16)
H61 H 0.0675 0.4761 0.3748
C83 C 0.2193(2) 0.2105(7) 0.37799(13)
H62 H 0.2570 0.1412 0.3783
C86 C 0.2227(2) 0.3283(7) 0.30499(13)
C88 C 0.1347(3) 0.3005(8) 0.41152(15)
H66 H 0.1152 0.2938 0.4345
C89 C 0.2332(2) 0.1838(7) 0.49290(14)
H67 H 0.2162 0.3056 0.4935
C91_2 C 0.2745(3) 0.2162(9) 0.57238(16)
H69_2 H 0.2610 0.3451 0.5652
H70_2 H 0.2483 0.1625 0.5901
H71_2 H 0.3197 0.2143 0.5879
H53_2 H 0.3471 0.0010 0.8289
C68_2 C 0.3908(2) 0.0215(7) 0.89227(16)
H54_2 H 0.3822 0.1502 0.8950
C1 C 0.8654(3) 0.5800(7) 0.65901(14)
H1 H 0.8845 0.5062 0.6830
C5 C 0.8085(2) 0.6801(7) 0.65762(13)
C11_2 C 0.7344(2) 0.8993(7) 0.46843(14)
C13 C 0.8076(2) 0.7989(7) 0.58658(14)
C19 C 0.7751(2) 0.9068(7) 0.54709(14)
C20 C 0.8940(3) 0.5903(8) 0.62437(16)
H4 H 0.9325 0.5239 0.6252
C21 C 0.7807(2) 0.7895(7) 0.62201(13)
H5 H 0.7430 0.8588 0.6217
C28 C 0.7773(2) 0.6717(7) 0.69501(13)
C33 C 0.8653(3) 0.6995(8) 0.58848(15)
H13 H 0.8848 0.7062 0.5655
H14_2 H 0.6529 0.9990 0.1711
C36_2 C 0.6092(2) 0.9785(7) 0.10773(16)
H16_2 H 0.6178 0.8498 0.1050
C40 C 0.7668(2) 0.8162(7) 0.50710(14)
H22 H 0.7838 0.6944 0.5065
C43_2 C 0.7255(3) 0.7838(9) 0.42762(16)
H25_2 H 0.7390 0.6549 0.4348
H26_2 H 0.7517 0.8375 0.4099
H27_2 H 0.6803 0.7857 0.4121
C48 C 0.0370(2) 0.6204(7) 0.97985(15)
C58 C 0.0804(3) 0.7386(10) 0.9587(2)
H47 H 0.0677 0.7192 0.9281
H48 H 0.0758 0.8708 0.9650
H49 H 0.1252 0.7007 0.9697
O5 O 0.20653(17) 0.0359(5) 0.77883(10)
C1_2 C 0.1346(3) 0.0800(7) 0.84099(14)
H1_2 H 0.1155 0.0062 0.8170
C5_2 C 0.1915(2) 0.1801(7) 0.84238(13)
C13_2 C 0.1924(2) 0.2989(7) 0.91342(14)
C14 C 0.2496(2) 0.5911(7) 0.95197(14)
C19_2 C 0.2249(2) 0.4068(7) 0.95291(14)
C20_2 C 0.1060(3) 0.0903(8) 0.87563(16)
H4_2 H 0.0675 0.0239 0.8748
C21_2 C 0.2193(2) 0.2895(7) 0.87799(13)
H5_2 H 0.2570 0.3588 0.8783
C26 C 0.2822(2) 0.6735(7) 0.99033(14)
H9 H 0.2985 0.7962 0.9896
C28_2 C 0.2227(2) 0.1717(7) 0.80499(13)
C33_2 C 0.1347(3) 0.1995(8) 0.91152(15)
H13_2 H 0.1152 0.2062 0.9345
C40_2 C 0.2332(2) 0.3162(7) 0.99290(14)
H22_2 H 0.2162 0.1944 0.9935
C44 C 0.2397(3) 0.7136(8) 0.91113(16)
H28 H 0.2378 0.8454 0.9186
H29 H 0.1996 0.6779 0.8911
H30 H 0.2757 0.6940 0.8982
O10 O 0.26405(16) 0.2965(5) 0.80270(9)
Mn7 Mn 0.30068(3) 0.38871(9) 0.750539(19)
Mn12 Mn 0.24495(3) 0.89753(9) 0.732685(19)
C35_2 C 0.0659(2) 0.0125(7) 0.51103(15)
H15_2 H 0.1114 0.0210 0.5188
O11_2 O 0.20951(15) 0.3653(4) 0.70509(9)
O12_2 O 0.19827(16) 0.0733(4) 0.67720(9)
C49_2 C 0.0308(2) 0.1319(7) 0.53094(14)
C50_2 C 0.1876(2) 0.2474(6) 0.67448(14)
C51_2 C 0.1098(2) 0.2008(7) 0.60148(13)
H42_2 H 0.1151 0.0701 0.6055
C52_2 C 0.0676(2) 0.2686(7) 0.56426(14)
C53_2 C 0.1447(2) 0.3251(6) 0.63328(14)
C55_2 C 0.0969(3) 0.5883(8) 0.58825(18)
H44_2 H 0.0929 0.7188 0.5834
C56_2 C 0.0613(3) 0.4625(8) 0.55828(17)
H45_2 H 0.0325 0.5097 0.5336
C57_2 C 0.1386(3) 0.5185(7) 0.62568(16)
H46_2 H 0.1627 0.6030 0.6459
O15_2 O 0.34489(16) 0.4843(5) 0.70062(10)
O16_2 O 0.33549(15) 0.0940(4) 0.73780(9)
O17_2 O 0.27833(15) 0.7370(4) 0.68550(9)
C71_2 C 0.3215(2) 0.6264(6) 0.67817(13)
C72_2 C 0.2923(2) 0.9180(7) 0.53045(13)
C73_2 C 0.3480(2) 0.6726(6) 0.63973(13)
C75_2 C 0.4107(2) 0.6173(7) 0.63917(14)
H59_2 H 0.4359 0.5460 0.6617
N2_2 N 0.42608(19) 0.0953(6) 0.71191(13)
C77_2 C 0.3327(2) 0.8203(7) 0.56925(14)
C79 C 0.2496(2) 0.9089(7) 0.45197(14)
C80_2 C 0.3096(2) 0.7760(7) 0.60517(13)
H60_2 H 0.2679 0.8156 0.6063
C84_2 C 0.3972(3) 0.7673(7) 0.57003(15)
H63_2 H 0.4144 0.7987 0.5468
C85 C 0.2822(2) 0.8265(7) 0.49033(14)
H64 H 0.2985 0.7038 0.4896
C87_2 C 0.3634(2) 0.0849(6) 0.70724(15)
H65_2 H 0.3371 0.0696 0.6794
C90_2 C 0.4355(3) 0.6694(7) 0.60459(15)
H68_2 H 0.4784 0.6380 0.6047
C92 C 0.2397(3) 0.7864(8) 0.41113(16)
H72 H 0.2378 0.6546 0.4186
H73 H 0.1996 0.8221 0.3911
H74 H 0.2757 0.8060 0.3982
C93_2 C 0.4554(3) 0.0956(8) 0.67489(17)
H77_2 H 0.4740 0.2186 0.6723
H78_2 H 0.4892 0.0006 0.6790
H79_2 H 0.4223 0.0680 0.6490
C94_2 C 0.4681(3) 0.1285(11) 0.7547(2)
H80_2 H 0.4578 0.0385 0.7746
H81_2 H 0.5131 0.1136 0.7539
H82_2 H 0.4612 0.2554 0.7638
O25 O 0.38471(16) 0.4831(5) 0.80199(10)
O28 O 0.30899(16) 0.7005(5) 0.78008(9)
C15 C 0.0370(2) 0.8796(7) 0.47985(15)
C47 C 0.0804(3) 0.7614(10) 0.4587(2)
H39 H 0.0677 0.7808 0.4281
H40 H 0.0758 0.6292 0.4650
H41 H 0.1252 0.7993 0.4697
O19_2 O 0.16512(16) 0.7051(5) 0.72709(11)
H75_2 H 0.1312 0.6736 0.7350
H76_2 H 0.1727 0.6183 0.7103
C31_2 C 0.4374(2) 0.4633(7) 0.97706(14)
H11_2 H 0.3948 0.4378 0.9614
C59_2 C 0.5357(2) 0.6499(7) 0.98701(14)
C60_2 C 0.3585(2) 0.6371(7) 0.80764(13)
C61_2 C 0.4710(2) 0.6121(7) 0.96343(13)
C62_2 C 0.3827(2) 0.7414(7) 0.84904(13)
C63_2 C 0.4176(2) 0.6382(7) 0.88482(13)
H50_2 H 0.4272 0.5105 0.8818
C64_2 C 0.4378(2) 0.7262(7) 0.92485(13)
C66_2 C 0.4242(2) 0.9200(7) 0.92766(15)
H52_2 H 0.4382 0.9818 0.9541
C67_2 C 0.3698(2) 0.9326(7) 0.85284(15)
C69_2 C 0.5783(3) 0.7957(8) 0.97273(16)
H55_2 H 0.5603 0.9203 0.9741
H56_2 H 0.6217 0.7905 0.9913
H57_2 H 0.5802 0.7693 0.9436
Mn9 Mn 0.75505(3) 0.10247(9) 0.267315(19)
O18 O 0.79347(17) 0.9641(5) 0.22117(10)
C70_2 C 0.8654(3) 0.9200(7) 0.15901(14)
H58_2 H 0.8845 0.9938 0.1830
C74_2 C 0.8085(2) 0.8199(7) 0.15762(13)
C78_2 C 0.8076(2) 0.7011(7) 0.08658(14)
C79_2 C 0.7504(2) 0.4089(7) 0.04803(14)
C81_2 C 0.7751(2) 0.5932(7) 0.04709(14)
C82_2 C 0.8940(3) 0.9097(8) 0.12437(16)
H61_2 H 0.9325 0.9761 0.1252
C83_2 C 0.7807(2) 0.7105(7) 0.12201(13)
H62_2 H 0.7430 0.6412 0.1217
C85_2 C 0.7178(2) 0.3265(7) 0.00967(14)
H64_2 H 0.7015 0.2038 0.0104
C86_2 C 0.7773(2) 0.8283(7) 0.19501(13)
C88_2 C 0.8653(3) 0.8005(8) 0.08848(15)
H66_2 H 0.8848 0.7938 0.0655
C89_2 C 0.7668(2) 0.6838(7) 0.00710(14)
H67_2 H 0.7838 0.8056 0.0065
C92_2 C 0.7603(3) 0.2864(8) 0.08887(16)
H72_2 H 0.7622 0.1546 0.0814
H73_2 H 0.8004 0.3221 0.1089
H74_2 H 0.7243 0.3060 0.1018
O20 O 0.73595(16) 0.7035(5) 0.19730(9)
Mn5 Mn 0.69932(3) 0.61129(9) 0.249461(19)
O9_2 O 0.83488(16) 0.2949(5) 0.27291(11)
H31_2 H 0.8688 0.3264 0.2650
H32_2 H 0.8273 0.3817 0.2897
C48_2 C 0.9630(2) 0.1204(7) 0.52015(15)
C58_2 C 0.9196(3) 0.2386(10) 0.5413(2)
H47_2 H 0.9323 0.2192 0.5719
H48_2 H 0.9242 0.3708 0.5350
H49_2 H 0.8748 0.2007 0.5303
O21_2 O 0.72167(15) 0.2630(4) 0.31450(9)
O26_2 O 0.69101(16) 0.2995(5) 0.21992(9)
O1_2 O 0.65511(16) 0.5157(5) 0.29938(10)
O2_2 O 0.79049(15) 0.6347(4) 0.29491(9)
O3_2 O 0.66451(15) 0.9060(4) 0.26220(9)
C2_2 C 0.6785(2) 0.3736(6) 0.32183(13)
C3_2 C 0.7077(2) 0.0820(7) 0.46955(13)
O6_2 O 0.80173(16) 0.9267(4) 0.32280(9)
O7_2 O 0.61529(16) 0.5169(5) 0.19801(10)
C4_2 C 0.6520(2) 0.3274(6) 0.36027(13)
C6_2 C 0.5893(2) 0.3827(7) 0.36083(14)
H2_2 H 0.5641 0.4540 0.3383
C7_2 C 0.4643(2) 0.3501(7) 0.01299(14)
C8_2 C 0.6415(2) 0.3629(7) 0.19236(13)
N1_2 N 0.57392(19) 0.9047(6) 0.28809(13)
C9_2 C 0.5290(2) 0.3879(7) 0.03657(13)
C10_2 C 0.6173(2) 0.2586(7) 0.15096(13)
C12_2 C 0.6673(2) 0.1797(7) 0.43075(14)
C14_2 C 0.7504(2) 0.0911(7) 0.54803(14)
C16_2 C 0.9692(2) 0.8681(7) 0.46906(14)
C17_2 C 0.6904(2) 0.2240(7) 0.39483(13)
H3_2 H 0.7321 0.1844 0.3937
C18_2 C 0.8124(2) 0.7526(6) 0.32552(14)
C22_2 C 0.5824(2) 0.3618(7) 0.11518(13)
H6_2 H 0.5728 0.4895 0.1182
C23_2 C 0.8902(2) 0.7992(7) 0.39852(13)
H7_2 H 0.8849 0.9299 0.3945
C24_2 C 0.6028(3) 0.2327(7) 0.42997(15)
H8_2 H 0.5856 0.2013 0.4532
C25_2 C 0.9324(2) 0.7314(7) 0.43574(14)
C26_2 C 0.7178(2) 0.1735(7) 0.50967(14)
H9_2 H 0.7015 0.2962 0.5104
C27_2 C 0.8553(2) 0.6749(6) 0.36672(14)
C29_2 C 0.6366(2) 0.9151(6) 0.29276(15)
H10_2 H 0.6629 0.9304 0.3206
C30_2 C 0.5622(2) 0.2738(7) 0.07515(13)
C32_2 C 0.5758(2) 0.0800(7) 0.07234(15)
H12_2 H 0.5618 0.0182 0.0459
C34_2 C 0.6302(2) 0.0674(7) 0.14716(15)
C37_2 C 0.9031(3) 0.4117(8) 0.41175(18)
H17_2 H 0.9071 0.2812 0.4166
C38_2 C 0.9387(3) 0.5375(8) 0.44172(17)
H18_2 H 0.9675 0.4903 0.4664
C39_2 C 0.4217(3) 0.2043(8) 0.02727(16)
H19_2 H 0.4397 0.0797 0.0259
H20_2 H 0.3783 0.2095 0.0087
H21_2 H 0.4198 0.2307 0.0564
C41_2 C 0.5645(3) 0.3306(7) 0.39541(15)
H23_2 H 0.5216 0.3620 0.3953
C42_2 C 0.8614(3) 0.4815(7) 0.37432(16)
H24_2 H 0.8373 0.3970 0.3541
C44_2 C 0.7603(3) 0.2136(8) 0.58887(16)
H28_2 H 0.7622 0.3454 0.5814
H29_2 H 0.8004 0.1779 0.6089
H30_2 H 0.7243 0.1940 0.6018
C45_2 C 0.5446(3) 0.9044(8) 0.32511(17)
H33_2 H 0.5260 0.7814 0.3277
H34_2 H 0.5108 0.9994 0.3210
H35_2 H 0.5777 0.9320 0.3510
C46_2 C 0.5319(3) 0.8715(11) 0.2453(2)
H36_2 H 0.5422 0.9615 0.2254
H37_2 H 0.4869 0.8864 0.2461
H38_2 H 0.5388 0.7446 0.2362
C54_2 C 0.9341(2) 0.9875(7) 0.48897(15)
H43_2 H 0.8886 0.9790 0.4812
C65_2 C 0.5626(2) 0.5367(7) 0.02294(14)
H51_2 H 0.6052 0.5622 0.0386
C15_2 C 0.9630(2) 0.3796(7) 0.02015(15)
C47_2 C 0.9196(3) 0.2614(10) 0.0413(2)
H39_2 H 0.9323 0.2808 0.0719
H40_2 H 0.9242 0.1292 0.0350
H41_2 H 0.8748 0.2993 0.0303
loop_
_geom_bond_atom_site_label_1
_geom_bond_atom_site_label_2
_geom_bond_site_symmetry_1
_geom_bond_site_symmetry_2
Mn1 O1 1_555 1_555
Mn2 O3 1_555 1_555
O2 Mn1 1_555 1_555
O3 Mn1 1_555 1_555
O6 Mn2 1_555 1_555
O7 Mn1 1_555 1_555
N1 C29 1_555 1_555
C16 C25 1_555 1_555
C18 O2 1_555 1_555
C23 H7 1_555 1_555
C25 C23 1_555 1_555
C27 C18 1_555 1_555
C29 O3 1_555 1_555
H10 C29 1_555 1_555
C38 C25 1_555 1_555
O9 Mn2 1_555 1_555
H31 O9 1_555 1_555
H32 O9 1_555 1_555
C45 N1 1_555 1_555
H33 C45 1_555 1_555
H34 C45 1_555 1_555
H35 C45 1_555 1_555
C46 N1 1_555 1_555
H36 C46 1_555 1_555
H37 C46 1_555 1_555
H38 C46 1_555 1_555
C54 C16 1_555 1_555
H43 C54 1_555 1_555
O14 C60 1_555 1_555
C59 C61 1_555 1_555
C60 C62 1_555 1_555
C62 C63 1_555 1_555
C63 H50 1_555 1_555
C64 C61 1_555 1_555
H51 C65 1_555 1_555
C66 C64 1_555 1_555
H52 C66 1_555 1_555
C67 C62 1_555 1_555
H53 C67 1_555 1_555
C68 C66 1_555 1_555
H54 C68 1_555 1_555
C69 C59 1_555 1_555
H55 C69 1_555 1_555
H56 C69 1_555 1_555
H57 C69 1_555 1_555
Mn11 O14 1_555 1_555
O21 Mn2 1_555 1_555
O24 Mn2 1_555 1_555
O26 Mn2 1_555 1_555
O30 Mn1 1_555 1_555
O6 C18 1_555 1_555
C23 C27 1_555 1_555
C59 C65 1_555 1_555
C63 C64 1_555 1_555
C67 C68 1_555 1_555
O21 C2 1_555 1_555
C2 C4 1_555 1_555
C3 C11 1_555 1_555
C4 C6 1_555 1_555
C6 H2 1_555 1_555
C7 C9 1_555 1_555
C9 C30 1_555 1_555
C10 C8 1_555 1_555
C12 C3 1_555 1_555
C17 C4 1_555 1_555
H3 C17 1_555 1_555
C22 C10 1_555 1_555
H6 C22 1_555 1_555
C24 C12 1_555 1_555
H8 C24 1_555 1_555
C30 C22 1_555 1_555
C31 C7 1_555 1_555
H11 C31 1_555 1_555
C32 C30 1_555 1_555
H12 C32 1_555 1_555
C34 C10 1_555 1_555
H14 C34 1_555 1_555
C36 C32 1_555 1_555
H16 C36 1_555 1_555
C37 H17 1_555 1_555
C39 C7 1_555 1_555
H19 C39 1_555 1_555
H20 C39 1_555 1_555
H21 C39 1_555 1_555
C41 C6 1_555 1_555
H23 C41 1_555 1_555
H24 C42 1_555 1_555
C43 C11 1_555 1_555
H25 C43 1_555 1_555
H26 C43 1_555 1_555
H27 C43 1_555 1_555
Mn6 O13 1_555 1_555
O26 C8 1_555 1_555
C12 C17 1_555 1_555
C24 C41 1_555 1_555
C34 C36 1_555 1_555
C37 C42 1_555 1_555
C55 H44 1_555 1_555
H46 C57 1_555 1_555
O17 C71 1_555 1_555
C72 C76 1_555 1_555
C73 C71 1_555 1_555
C75 C73 1_555 1_555
H59 C75 1_555 1_555
C77 C72 1_555 1_555
C80 C73 1_555 1_555
H60 C80 1_555 1_555
C84 C77 1_555 1_555
H63 C84 1_555 1_555
C90 C75 1_555 1_555
H68 C90 1_555 1_555
C91 C76 1_555 1_555
H69 C91 1_555 1_555
H70 C91 1_555 1_555
H71 C91 1_555 1_555
Mn11 O17 1_555 1_555
C55 C57 1_555 1_555
C77 C80 1_555 1_555
C84 C90 1_555 1_555
H15 C35 1_555 1_555
O11 C50 1_555 1_555
O12 C50 1_555 1_555
C49 C35 1_555 1_555
C50 C53 1_555 1_555
C51 H42 1_555 1_555
C52 C49 1_555 1_555
C53 C51 1_555 1_555
C56 C52 1_555 1_555
Mn6 O11 1_555 1_555
Mn11 O12 1_555 1_555
O15 Mn6 1_555 1_555
O16 Mn6 1_555 1_555
N2 C87 1_555 1_555
C87 O16 1_555 1_555
H65 C87 1_555 1_555
O19 Mn11 1_555 1_555
H75 O19 1_555 1_555
H76 O19 1_555 1_555
C93 N2 1_555 1_555
H77 C93 1_555 1_555
H78 C93 1_555 1_555
H79 C93 1_555 1_555
C94 N2 1_555 1_555
H80 C94 1_555 1_555
H81 C94 1_555 1_555
H82 C94 1_555 1_555
O23 Mn11 1_555 1_555
O29 Mn6 1_555 1_555
C51 C52 1_555 1_555
Mn11 O16 1_555 1_555
O24 C86 1_555 1_555
C70 H58 1_555 1_555
C74 C70 1_555 1_555
C76_2 C89 1_555 1_555
C78 C81 1_555 1_555
C81 C89 1_555 1_555
C82 C70 1_555 1_555
H61 C82 1_555 1_555
C83 C74 1_555 1_555
H62 C83 1_555 1_555
C86 C74 1_555 1_555
C88 C78 1_555 1_555
H66 C88 1_555 1_555
C89 H67 1_555 1_555
C91_2 C76_2 1_555 1_555
H69_2 C91_2 1_555 1_555
H70_2 C91_2 1_555 1_555
H71_2 C91_2 1_555 1_555
O30 C86 1_555 1_555
C78 C83 1_555 1_555
C82 C88 1_555 1_555
H54_2 C68_2 1_555 1_555
O23 C28 1_555 1_555
C1 H1 1_555 1_555
C5 C1 1_555 1_555
C11_2 C40 1_555 1_555
C13 C19 1_555 1_555
C19 C40 1_555 1_555
C20 C1 1_555 1_555
H4 C20 1_555 1_555
C21 C5 1_555 1_555
H5 C21 1_555 1_555
C28 C5 1_555 1_555
C33 C13 1_555 1_555
H13 C33 1_555 1_555
H16_2 C36_2 1_555 1_555
C40 H22 1_555 1_555
C43_2 C11_2 1_555 1_555
H25_2 C43_2 1_555 1_555
H26_2 C43_2 1_555 1_555
H27_2 C43_2 1_555 1_555
O29 C28 1_555 1_555
C13 C21 1_555 1_555
C20 C33 1_555 1_555
C58 C48 1_555 1_555
H47 C58 1_555 1_555
H48 C58 1_555 1_555
H49 C58 1_555 1_555
O5 C28_2 1_555 1_555
C1_2 H1_2 1_555 1_555
C5_2 C1_2 1_555 1_555
C13_2 C19_2 1_555 1_555
C14 C19_2 1_555 1_555
C19_2 C40_2 1_555 1_555
C20_2 C1_2 1_555 1_555
H4_2 C20_2 1_555 1_555
C21_2 C5_2 1_555 1_555
H5_2 C21_2 1_555 1_555
H9 C26 1_555 1_555
C28_2 C5_2 1_555 1_555
C33_2 C13_2 1_555 1_555
H13_2 C33_2 1_555 1_555
C40_2 H22_2 1_555 1_555
C44 C14 1_555 1_555
H28 C44 1_555 1_555
H29 C44 1_555 1_555
H30 C44 1_555 1_555
O10 C28_2 1_555 1_555
Mn7 O10 1_555 1_555
C13_2 C21_2 1_555 1_555
C14 C26 1_555 1_555
C20_2 C33_2 1_555 1_555
H15_2 C35_2 1_555 1_555
O11_2 C50_2 1_555 1_555
O12_2 C50_2 1_555 1_555
C49_2 C35_2 1_555 1_555
C50_2 C53_2 1_555 1_555
C51_2 H42_2 1_555 1_555
C52_2 C49_2 1_555 1_555
C53_2 C51_2 1_555 1_555
C55_2 H44_2 1_555 1_555
C56_2 C52_2 1_555 1_555
H45_2 C56_2 1_555 1_555
C57_2 C53_2 1_555 1_555
H46_2 C57_2 1_555 1_555
Mn7 O11_2 1_555 1_555
O15_2 Mn7 1_555 1_555
O16_2 Mn7 1_555 1_555
O17_2 C71_2 1_555 1_555
C71_2 O15_2 1_555 1_555
C73_2 C71_2 1_555 1_555
C75_2 C73_2 1_555 1_555
H59_2 C75_2 1_555 1_555
N2_2 C87_2 1_555 1_555
C77_2 C72_2 1_555 1_555
C80_2 C73_2 1_555 1_555
H60_2 C80_2 1_555 1_555
C84_2 C77_2 1_555 1_555
H63_2 C84_2 1_555 1_555
C85 C72_2 1_555 1_555
H64 C85 1_555 1_555
C87_2 O16_2 1_555 1_555
H65_2 C87_2 1_555 1_555
C90_2 C75_2 1_555 1_555
H68_2 C90_2 1_555 1_555
C92 C79 1_555 1_555
H72 C92 1_555 1_555
H73 C92 1_555 1_555
H74 C92 1_555 1_555
C93_2 N2_2 1_555 1_555
H77_2 C93_2 1_555 1_555
H78_2 C93_2 1_555 1_555
H79_2 C93_2 1_555 1_555
C94_2 N2_2 1_555 1_555
H80_2 C94_2 1_555 1_555
H81_2 C94_2 1_555 1_555
H82_2 C94_2 1_555 1_555
Mn12 O17_2 1_555 1_555
O25 Mn7 1_555 1_555
O28 Mn7 1_555 1_555
C51_2 C52_2 1_555 1_555
C55_2 C56_2 1_555 1_555
C55_2 C57_2 1_555 1_555
C77_2 C80_2 1_555 1_555
C79 C85 1_555 1_555
C84_2 C90_2 1_555 1_555
Mn12 O28 1_555 1_555
C47 C15 1_555 1_555
H39 C47 1_555 1_555
H40 C47 1_555 1_555
H41 C47 1_555 1_555
O19_2 Mn12 1_555 1_555
H75_2 O19_2 1_555 1_555
H76_2 O19_2 1_555 1_555
H11_2 C31_2 1_555 1_555
O25 C60_2 1_555 1_555
O28 C60_2 1_555 1_555
C59_2 C61_2 1_555 1_555
C60_2 C62_2 1_555 1_555
C61_2 C31_2 1_555 1_555
C62_2 C63_2 1_555 1_555
C63_2 H50_2 1_555 1_555
C64_2 C61_2 1_555 1_555
C66_2 C64_2 1_555 1_555
H52_2 C66_2 1_555 1_555
C67_2 C62_2 1_555 1_555
C69_2 C59_2 1_555 1_555
H55_2 C69_2 1_555 1_555
H56_2 C69_2 1_555 1_555
H57_2 C69_2 1_555 1_555
C63_2 C64_2 1_555 1_555
O18 C86_2 1_555 1_555
C70_2 H58_2 1_555 1_555
C74_2 C70_2 1_555 1_555
C78_2 C81_2 1_555 1_555
C79_2 C81_2 1_555 1_555
C81_2 C89_2 1_555 1_555
C82_2 C70_2 1_555 1_555
H61_2 C82_2 1_555 1_555
C83_2 C74_2 1_555 1_555
H62_2 C83_2 1_555 1_555
H64_2 C85_2 1_555 1_555
C86_2 C74_2 1_555 1_555
C88_2 C78_2 1_555 1_555
H66_2 C88_2 1_555 1_555
C89_2 H67_2 1_555 1_555
C92_2 C79_2 1_555 1_555
H72_2 C92_2 1_555 1_555
H73_2 C92_2 1_555 1_555
H74_2 C92_2 1_555 1_555
O20 C86_2 1_555 1_555
Mn5 O20 1_555 1_555
C78_2 C83_2 1_555 1_555
C79_2 C85_2 1_555 1_555
C82_2 C88_2 1_555 1_555
O9_2 Mn9 1_555 1_555
H31_2 O9_2 1_555 1_555
H32_2 O9_2 1_555 1_555
C58_2 C48_2 1_555 1_555
H47_2 C58_2 1_555 1_555
H48_2 C58_2 1_555 1_555
H49_2 C58_2 1_555 1_555
O21_2 Mn9 1_555 1_555
O26_2 Mn9 1_555 1_555
Mn5 O1_2 1_555 1_555
O1_2 C2_2 1_555 1_555
O2_2 Mn5 1_555 1_555
O3_2 Mn5 1_555 1_555
O21_2 C2_2 1_555 1_555
C2_2 C4_2 1_555 1_555
O7_2 Mn5 1_555 1_555
C4_2 C6_2 1_555 1_555
O26_2 Mn5 1_555 1_555
C6_2 H2_2 1_555 1_555
C7_2 C9_2 1_555 1_555
C8_2 O7_2 1_555 1_555
N1_2 C29_2 1_555 1_555
C9_2 C30_2 1_555 1_555
C10_2 C8_2 1_555 1_555
C12_2 C3_2 1_555 1_555
C16_2 C25_2 1_555 1_555
C17_2 C4_2 1_555 1_555
H3_2 C17_2 1_555 1_555
C18_2 O2_2 1_555 1_555
C22_2 C10_2 1_555 1_555
H6_2 C22_2 1_555 1_555
C23_2 H7_2 1_555 1_555
C24_2 C12_2 1_555 1_555
H8_2 C24_2 1_555 1_555
C25_2 C23_2 1_555 1_555
C26_2 C3_2 1_555 1_555
H9_2 C26_2 1_555 1_555
C27_2 C18_2 1_555 1_555
C29_2 O3_2 1_555 1_555
H10_2 C29_2 1_555 1_555
C30_2 C22_2 1_555 1_555
C32_2 C30_2 1_555 1_555
H12_2 C32_2 1_555 1_555
C34_2 C10_2 1_555 1_555
C37_2 H17_2 1_555 1_555
C38_2 C25_2 1_555 1_555
H18_2 C38_2 1_555 1_555
C39_2 C7_2 1_555 1_555
H19_2 C39_2 1_555 1_555
H20_2 C39_2 1_555 1_555
H21_2 C39_2 1_555 1_555
C41_2 C6_2 1_555 1_555
H23_2 C41_2 1_555 1_555
C42_2 C27_2 1_555 1_555
H24_2 C42_2 1_555 1_555
C44_2 C14_2 1_555 1_555
H28_2 C44_2 1_555 1_555
H29_2 C44_2 1_555 1_555
H30_2 C44_2 1_555 1_555
C45_2 N1_2 1_555 1_555
H33_2 C45_2 1_555 1_555
H34_2 C45_2 1_555 1_555
H35_2 C45_2 1_555 1_555
C46_2 N1_2 1_555 1_555
H36_2 C46_2 1_555 1_555
H37_2 C46_2 1_555 1_555
H38_2 C46_2 1_555 1_555
C54_2 C16_2 1_555 1_555
H43_2 C54_2 1_555 1_555
C65_2 C9_2 1_555 1_555
H51_2 C65_2 1_555 1_555
O6_2 C18_2 1_555 1_555
O26_2 C8_2 1_555 1_555
C12_2 C17_2 1_555 1_555
C14_2 C26_2 1_555 1_555
C23_2 C27_2 1_555 1_555
C24_2 C41_2 1_555 1_555
C37_2 C38_2 1_555 1_555
C37_2 C42_2 1_555 1_555
C47_2 C15_2 1_555 1_555
H39_2 C47_2 1_555 1_555
H40_2 C47_2 1_555 1_555
H41_2 C47_2 1_555 1_555

#END
