
###############################################################################
#
# This file contains modified crystal structure data generated from the
# MOF subset of the Cambridge Structural Database (CSD) v543 
# hosted by the Cambridge Crystallographic Data Centre (CCDC).
#
# This work is licensed under the Creative Commons
# Attribution-NonCommercial-ShareAlike 4.0 International License.
# To view a copy of this license, visit
# http://creativecommons.org/licenses/by-nc-sa/4.0/
# or send a letter to
# Creative Commons, PO Box 1866, Mountain View, CA 94042, USA.
#
# CIF created using the CSD Python API on 29 September 2022
# The structure has been converted into the P1 space group
# The structure has a 3D framework
# The original CSD entry BIRNAT is in the triclinic crystal system
# The framework has been calculated to contain at least 10.0% void space
# The void calculation uses a probe of radius 1.32A, grid spacing 0.4
#
###############################################################################

data_BIRNAT
_chemical_formula_moiety         '(C80 H60 Cd2 N8 O8)n'
_symmetry_cell_setting           triclinic
_symmetry_space_group_name_H-M   'P 1'
_symmetry_Int_Tables_number      1
_space_group_name_Hall           'P 1'
loop_
_symmetry_equiv_pos_site_id
_symmetry_equiv_pos_as_xyz
1 x,y,z
_cell_length_a                   10.551(3)
_cell_length_b                   12.280(3)
_cell_length_c                   14.417(4)
_cell_angle_alpha                82.256(5)
_cell_angle_beta                 88.642(5)
_cell_angle_gamma                79.904(4)
_cell_volume                     1822.26
loop_
_atom_site_label
_atom_site_type_symbol
_atom_site_fract_x
_atom_site_fract_y
_atom_site_fract_z
_atom_site_U_iso_or_equiv
_atom_site_thermal_displace_type
C26 C 0.0602(6) 0.0380(5) 0.0724(4) 0.0396 Uani
C39 C 0.1321(6) 0.0692(5) 0.1509(4) 0.0554 Uani
H25 H 0.1304 0.0150 0.2053 0.0830 Uiso
H26 H 0.0920 0.1414 0.1652 0.0830 Uiso
H27 H 0.2197 0.0711 0.1322 0.0830 Uiso
C55 C 0.1158(5) 0.0335(5) 0.9862(4) 0.0412 Uani
H40 H 0.1948 0.0568 0.9759 0.0500 Uiso
C60 C 0.2258(7) 0.0834(5) 0.6883(5) 0.0581 Uani
H42 H 0.2431 0.1493 0.6546 0.0700 Uiso
C61 C 0.1605(6) 0.0867(5) 0.7711(4) 0.0476 Uani
H43 H 0.1372 0.1547 0.7941 0.0570 Uiso
H29 H 0.6834 0.1910 0.0147 0.0820 Uiso
H32 H 0.4140 0.0606 0.2396 0.0540 Uiso
C49 C 0.5464(5) 0.0465(5) 0.0695(4) 0.0388 Uani
H34 H 0.5786 0.0779 0.1172 0.0460 Uiso
N5 N 0.2141(5) 0.5956(4) 0.5074(3) 0.0444 Uani
N7 N 0.0814(5) 0.6208(4) 0.3888(3) 0.0408 Uani
C63 C 0.2013(6) 0.5942(5) 0.4179(5) 0.0481 Uani
H47 H 0.2705 0.5761 0.3783 0.0580 Uiso
C64 C 0.0321(6) 0.6292(5) 0.2951(4) 0.0436 Uani
C71 C 0.0078(6) 0.6426(6) 0.4672(5) 0.0583 Uani
C72 C 0.0965(7) 0.6258(5) 0.5391(4) 0.0521 Uani
H52 H 0.0761 0.6345 0.6011 0.0630 Uiso
C73 C 0.1037(6) 0.6635(5) 0.2189(5) 0.0508 Uani
H53 H 0.1843 0.6815 0.2276 0.0610 Uiso
C76 C 0.0551(6) 0.6711(5) 0.1296(4) 0.0525 Uani
H56 H 0.1040 0.6931 0.0782 0.0630 Uiso
Cd7 Cd 0.40055(4) 0.59022(3) 0.58902(3) 0.0321 Uani
O7 O 0.3366(4) 0.7798(3) 0.5874(3) 0.0566 Uani
O8 O 0.2687(4) 0.6867(4) 0.7138(3) 0.0578 Uani
C52 C 0.1691(5) 0.8910(5) 0.7863(4) 0.0397 Uani
H39 H 0.1493 0.8258 0.8194 0.0480 Uiso
C53 C 0.2395(5) 0.8849(5) 0.7025(4) 0.0358 Uani
C54 C 0.0598(5) 0.9956(4) 0.9130(4) 0.0381 Uani
C57 C 0.2825(6) 0.7767(5) 0.6667(5) 0.0403 Uani
C58 C 0.1282(5) 0.9921(5) 0.8212(4) 0.0347 Uani
C59 C 0.2669(6) 0.9823(5) 0.6537(4) 0.0486 Uani
H41 H 0.3127 0.9808 0.5978 0.0580 Uiso
Cd1 Cd 0.59945(4) 0.40978(3) 0.41098(3) 0.0321 Uani
O1 O 0.4841(4) 0.3970(3) 0.5580(3) 0.0423 Uani
O2 O 0.4170(4) 0.4254(3) 0.6977(3) 0.0492 Uani
O3 O 0.6634(4) 0.2202(3) 0.4126(3) 0.0566 Uani
N2 N 0.4131(4) 0.3768(4) 0.3503(3) 0.0422 Uani
O4 O 0.7313(4) 0.3133(4) 0.2862(3) 0.0578 Uani
C1 C 0.4907(5) 0.2004(4) 0.7709(4) 0.0349 Uani
H1 H 0.4597 0.2507 0.8124 0.0420 Uiso
N4 N 0.2799(5) 0.3462(4) 0.2445(3) 0.0446 Uani
C2 C 0.5601(5) 0.0943(4) 0.9768(4) 0.0371 Uani
C3 C 0.8309(5) 0.1090(5) 0.2137(4) 0.0397 Uani
H2 H 0.8507 0.1742 0.1806 0.0480 Uiso
C4 C 0.7605(5) 0.1151(5) 0.2975(4) 0.0358 Uani
C5 C 0.5021(5) 0.2394(4) 0.6763(4) 0.0348 Uani
C7 C 0.5251(5) 0.0879(5) 0.8044(4) 0.0350 Uani
C8 C 0.5649(6) 0.0154(5) 0.7397(4) 0.0447 Uani
C9 C 0.5742(6) 0.0516(5) 0.6471(4) 0.0454 Uani
H5 H 0.5996 0.0001 0.6056 0.0540 Uiso
C11 C 0.2248(6) 0.3451(5) 0.1544(4) 0.0405 Uani
C14 C 0.5134(5) 0.0463(4) 0.9064(4) 0.0355 Uani
C15 C 0.3839(6) 0.3911(5) 0.2610(4) 0.0443 Uani
H7 H 0.4295 0.4280 0.2145 0.0530 Uiso
C16 C 0.4637(5) 0.3625(4) 0.6414(4) 0.0292 Uani
C19 C 0.9402(5) 0.0044(4) 0.0870(4) 0.0381 Uani
C20 C 0.0413(6) 0.3676(5) 0.0569(4) 0.0478 Uani
C22 C 0.5465(6) 0.1634(5) 0.6139(4) 0.0432 Uani
H11 H 0.5571 0.1882 0.5508 0.0520 Uiso
C27 C 0.7175(6) 0.2233(5) 0.3333(5) 0.0403 Uani
C28 C 0.0927(6) 0.3679(5) 0.1431(4) 0.0518 Uani
H15 H 0.0392 0.3834 0.1936 0.0620 Uiso
C29 C 0.8718(5) 0.0079(5) 0.1788(4) 0.0347 Uani
C30 C 0.3034(6) 0.3198(6) 0.0804(5) 0.0587 Uani
H16 H 0.3921 0.3016 0.0883 0.0700 Uiso
C34 C 0.7331(6) 0.0177(5) 0.3463(4) 0.0486 Uani
H20 H 0.6873 0.0192 0.4022 0.0580 Uiso
C35 C 0.3260(7) 0.3175(6) 0.3930(4) 0.0585 Uani
H21 H 0.3238 0.2937 0.4570 0.0700 Uiso
C37 C 0.2418(6) 0.2976(5) 0.3291(5) 0.0548 Uani
H23 H 0.1733 0.2592 0.3407 0.0660 Uiso
C40 C 0.6335(6) 0.1898(5) 0.9602(4) 0.0543 Uani
H28 H 0.6898 0.1806 0.9074 0.0820 Uiso
H30 H 0.5740 0.2588 0.9477 0.0820 Uiso
O10 O 0.5159(4) 0.6030(3) 0.4420(3) 0.0423 Uani
O12 O 0.5830(4) 0.5746(3) 0.3023(3) 0.0492 Uani
N9 N 0.7859(5) 0.4044(4) 0.4926(3) 0.0444 Uani
C41 C 0.5093(5) 0.7996(4) 0.2291(4) 0.0349 Uani
H31 H 0.5403 0.7493 0.1876 0.0420 Uiso
C42 C 0.4399(5) 0.9057(4) 0.0232(4) 0.0371 Uani
C43 C 0.4979(5) 0.7606(4) 0.3237(4) 0.0348 Uani
C44 C 0.4749(5) 0.9121(5) 0.1956(4) 0.0350 Uani
C45 C 0.4351(6) 0.9846(5) 0.2603(4) 0.0447 Uani
C46 C 0.4258(6) 0.9484(5) 0.3529(4) 0.0454 Uani
H33 H 0.4004 0.9999 0.3944 0.0540 Uiso
C47 C 0.4866(5) 0.9537(4) 0.0936(4) 0.0355 Uani
C48 C 0.5363(5) 0.6375(4) 0.3586(4) 0.0292 Uani
C50 C 0.4535(6) 0.8366(5) 0.3861(4) 0.0432 Uani
H35 H 0.4429 0.8118 0.4492 0.0520 Uiso
C51 C 0.3665(6) 0.8102(5) 0.0398(4) 0.0543 Uani
H36 H 0.3102 0.8194 0.0926 0.0820 Uiso
H38 H 0.4260 0.7412 0.0523 0.0820 Uiso
N6 N 0.5869(4) 0.6232(4) 0.6497(3) 0.0422 Uani
N8 N 0.7201(5) 0.6538(4) 0.7555(3) 0.0446 Uani
C65 C 0.7752(6) 0.6549(5) 0.8456(4) 0.0405 Uani
C68 C 0.6161(6) 0.6089(5) 0.7390(4) 0.0443 Uani
H49 H 0.5705 0.5720 0.7855 0.0530 Uiso
C70 C 0.9587(6) 0.6324(5) 0.9431(4) 0.0478 Uani
C74 C 0.9073(6) 0.6321(5) 0.8569(4) 0.0518 Uani
H54 H 0.9608 0.6166 0.8064 0.0620 Uiso
C75 C 0.6966(6) 0.6802(6) 0.9196(5) 0.0587 Uani
H55 H 0.6079 0.6984 0.9117 0.0700 Uiso
C79 C 0.6740(7) 0.6825(6) 0.6070(4) 0.0585 Uani
H59 H 0.6762 0.7063 0.5430 0.0700 Uiso
C80 C 0.7582(6) 0.7024(5) 0.6709(5) 0.0548 Uani
H60 H 0.8267 0.7408 0.6593 0.0660 Uiso
N3 N 0.9186(5) 0.3792(4) 0.6112(3) 0.0408 Uani
C6 C 0.7987(6) 0.4058(5) 0.5821(5) 0.0481 Uani
H3 H 0.7295 0.4239 0.6217 0.0580 Uiso
C10 C 0.9679(6) 0.3708(5) 0.7049(4) 0.0436 Uani
C23 C 0.9922(6) 0.3574(6) 0.5328(5) 0.0583 Uani
C24 C 0.9035(7) 0.3742(5) 0.4609(4) 0.0521 Uani
H13 H 0.9239 0.3655 0.3989 0.0630 Uiso
C25 C 0.8963(6) 0.3365(5) 0.7811(5) 0.0508 Uani
H14 H 0.8157 0.3185 0.7724 0.0610 Uiso
C31 C 0.9449(6) 0.3289(5) 0.8704(4) 0.0525 Uani
H17 H 0.8960 0.3069 0.9218 0.0630 Uiso
H50 H 0.0477 0.6177 0.9503 0.0570 Uiso
C12 C 0.1180(6) 0.3460(5) 0.9800(4) 0.0437 Uani
C13 C 0.0866(6) 0.3962(5) 0.7164(4) 0.0424 Uani
H6 H 0.1350 0.4189 0.6650 0.0510 Uiso
C18 C 0.0652(6) 0.3536(5) 0.8844(4) 0.0407 Uani
H12 H 0.0810 0.3363 0.5293 0.0700 Uiso
C32 C 0.2487(6) 0.3216(6) 0.9940(4) 0.0584 Uani
H18 H 0.3023 0.3058 0.9436 0.0700 Uiso
C33 C 0.1335(6) 0.3874(5) 0.8064(4) 0.0467 Uani
H19 H 0.2145 0.4049 0.8145 0.0560 Uiso
C66 C 0.8820(6) 0.6540(5) 0.0200(4) 0.0437 Uani
C67 C 0.9134(6) 0.6038(5) 0.2836(4) 0.0424 Uani
H48 H 0.8650 0.5811 0.3350 0.0510 Uiso
C69 C 0.9348(6) 0.6464(5) 0.1156(4) 0.0407 Uani
H51 H 0.9190 0.6637 0.4707 0.0700 Uiso
C77 C 0.7513(6) 0.6784(6) 0.0060(4) 0.0584 Uani
H57 H 0.6977 0.6942 0.0564 0.0700 Uiso
C78 C 0.8665(6) 0.6126(5) 0.1936(4) 0.0467 Uani
H58 H 0.7855 0.5951 0.1855 0.0560 Uiso
H4 H 0.5860 0.9394 0.7604 0.0540 Uiso
C17 C 0.4536(5) 0.9535(5) 0.9305(4) 0.0388 Uani
H8 H 0.4214 0.9221 0.8828 0.0460 Uiso
C21 C 0.8842(5) 0.9665(5) 0.0138(4) 0.0412 Uani
H10 H 0.8052 0.9432 0.0241 0.0500 Uiso
C36 C 0.7742(7) 0.9166(5) 0.3117(5) 0.0581 Uani
H22 H 0.7569 0.8507 0.3454 0.0700 Uiso
C38 C 0.8395(6) 0.9133(5) 0.2289(4) 0.0476 Uani
H24 H 0.8628 0.8453 0.2059 0.0570 Uiso
H37 H 0.3166 0.8090 0.9853 0.0820 Uiso
C56 C 0.9398(6) 0.9620(5) 0.9276(4) 0.0396 Uani
C62 C 0.8679(6) 0.9308(5) 0.8491(4) 0.0554 Uani
H44 H 0.8696 0.9850 0.7947 0.0830 Uiso
H45 H 0.9080 0.8586 0.8348 0.0830 Uiso
H46 H 0.7803 0.9289 0.8678 0.0830 Uiso
H9 H 0.9523 0.3823 0.0497 0.0570 Uiso
loop_
_atom_site_aniso_label
_atom_site_aniso_U_11
_atom_site_aniso_U_22
_atom_site_aniso_U_33
_atom_site_aniso_U_23
_atom_site_aniso_U_13
_atom_site_aniso_U_12
C26 0.039 0.041 0.04 -0.019 -0.004 0.001
C39 0.048 0.075 0.049 -0.024 -0.001 -0.014
C55 0.037 0.048 0.043 -0.017 0.004 -0.012
C60 0.087 0.037 0.054 -0.003 0.013 -0.025
C61 0.05 0.044 0.049 -0.021 0.013 0.001
C49 0.043 0.037 0.032 0.003 -0.008 0
N5 0.059 0.047 0.025 -0.008 -0.004 0
N7 0.034 0.047 0.04 -0.006 -0.009 -0.002
C63 0.049 0.058 0.037 -0.013 -0.002 -0.003
C64 0.055 0.044 0.032 -0.004 -0.014 -0.008
C71 0.041 0.091 0.042 -0.019 -0.003 -0.001
C72 0.058 0.064 0.036 -0.013 0.011 -0.012
C73 0.042 0.064 0.048 -0.01 0.002 -0.012
C76 0.053 0.079 0.027 -0.008 -0.004 -0.014
Cd7 0.0382 0.0336 0.0227 -0.00229 -0.00389 -0.0018
O7 0.08 0.049 0.04 -0.016 0.014 -0.003
O8 0.089 0.039 0.045 -0.014 0.011 -0.005
C52 0.051 0.033 0.037 -0.006 -0.003 -0.011
C53 0.034 0.044 0.028 -0.008 0.002 -0.001
C54 0.04 0.036 0.037 -0.013 -0.001 0.003
C57 0.047 0.04 0.034 -0.018 0 0.002
C58 0.03 0.041 0.033 -0.009 0 -0.003
C59 0.051 0.056 0.039 -0.01 0.012 -0.009
Cd1 0.0382 0.0336 0.0227 -0.00229 -0.00389 -0.0018
O1 0.055 0.044 0.022 0.0078 0.0027 -0.002
O2 0.078 0.033 0.031 0.004 0.013 -0.002
O3 0.08 0.049 0.04 -0.016 0.014 -0.003
N2 0.042 0.051 0.034 -0.007 0.002 -0.008
O4 0.089 0.039 0.045 -0.014 0.011 -0.005
C1 0.049 0.037 0.017 -0.003 0.007 -0.004
N4 0.055 0.048 0.032 -0.004 -0.004 -0.013
C2 0.047 0.025 0.034 0.011 0.004 -0.004
C3 0.051 0.033 0.037 -0.006 -0.003 -0.011
C4 0.034 0.044 0.028 -0.008 0.002 -0.001
C5 0.044 0.034 0.026 0 0.002 -0.009
C7 0.037 0.033 0.031 0.006 0.002 -0.003
C8 0.054 0.031 0.045 0.002 0.008 -0.003
C9 0.065 0.04 0.028 -0.004 0.01 -0.002
C11 0.037 0.049 0.034 -0.008 -0.014 0
C14 0.044 0.03 0.027 0.007 -0.002 0.001
C15 0.049 0.052 0.034 -0.003 -0.002 -0.016
C16 0.022 0.032 0.029 0.005 0 0.001
C19 0.04 0.036 0.037 -0.013 -0.001 0.003
C20 0.038 0.057 0.046 -0.014 -0.006 0.005
C22 0.051 0.044 0.03 0.005 0.005 -0.004
C27 0.047 0.04 0.034 -0.018 0 0.002
C28 0.06 0.062 0.032 -0.019 -0.003 0.003
C29 0.03 0.041 0.033 -0.009 0 -0.003
C30 0.042 0.094 0.042 -0.015 -0.002 -0.012
C34 0.051 0.056 0.039 -0.01 0.012 -0.009
C35 0.076 0.078 0.027 -0.001 -0.008 -0.032
C37 0.052 0.067 0.046 0.006 -0.008 -0.021
C40 0.075 0.045 0.042 0.008 0.003 -0.019
O10 0.055 0.044 0.022 0.0078 0.0027 -0.002
O12 0.078 0.033 0.031 0.004 0.013 -0.002
N9 0.059 0.047 0.025 -0.008 -0.004 0
C41 0.049 0.037 0.017 -0.003 0.007 -0.004
C42 0.047 0.025 0.034 0.011 0.004 -0.004
C43 0.044 0.034 0.026 0 0.002 -0.009
C44 0.037 0.033 0.031 0.006 0.002 -0.003
C45 0.054 0.031 0.045 0.002 0.008 -0.003
C46 0.065 0.04 0.028 -0.004 0.01 -0.002
C47 0.044 0.03 0.027 0.007 -0.002 0.001
C48 0.022 0.032 0.029 0.005 0 0.001
C50 0.051 0.044 0.03 0.005 0.005 -0.004
C51 0.075 0.045 0.042 0.008 0.003 -0.019
N6 0.042 0.051 0.034 -0.007 0.002 -0.008
N8 0.055 0.048 0.032 -0.004 -0.004 -0.013
C65 0.037 0.049 0.034 -0.008 -0.014 0
C68 0.049 0.052 0.034 -0.003 -0.002 -0.016
C70 0.038 0.057 0.046 -0.014 -0.006 0.005
C74 0.06 0.062 0.032 -0.019 -0.003 0.003
C75 0.042 0.094 0.042 -0.015 -0.002 -0.012
C79 0.076 0.078 0.027 -0.001 -0.008 -0.032
C80 0.052 0.067 0.046 0.006 -0.008 -0.021
N3 0.034 0.047 0.04 -0.006 -0.009 -0.002
C6 0.049 0.058 0.037 -0.013 -0.002 -0.003
C10 0.055 0.044 0.032 -0.004 -0.014 -0.008
C23 0.041 0.091 0.042 -0.019 -0.003 -0.001
C24 0.058 0.064 0.036 -0.013 0.011 -0.012
C25 0.042 0.064 0.048 -0.01 0.002 -0.012
C31 0.053 0.079 0.027 -0.008 -0.004 -0.014
C12 0.041 0.051 0.041 -0.009 -0.012 -0.009
C13 0.037 0.048 0.042 -0.004 -0.012 -0.007
C18 0.031 0.05 0.04 -0.013 -0.012 0.003
C32 0.054 0.087 0.033 -0.015 -0.002 -0.003
C33 0.038 0.054 0.05 -0.01 -0.014 -0.009
C66 0.041 0.051 0.041 -0.009 -0.012 -0.009
C67 0.037 0.048 0.042 -0.004 -0.012 -0.007
C69 0.031 0.05 0.04 -0.013 -0.012 0.003
C77 0.054 0.087 0.033 -0.015 -0.002 -0.003
C78 0.038 0.054 0.05 -0.01 -0.014 -0.009
C17 0.043 0.037 0.032 0.003 -0.008 0
C21 0.037 0.048 0.043 -0.017 0.004 -0.012
C36 0.087 0.037 0.054 -0.003 0.013 -0.025
C38 0.05 0.044 0.049 -0.021 0.013 0.001
C56 0.039 0.041 0.04 -0.019 -0.004 0.001
C62 0.048 0.075 0.049 -0.024 -0.001 -0.014
loop_
_geom_bond_atom_site_label_1
_geom_bond_atom_site_label_2
_geom_bond_site_symmetry_1
_geom_bond_site_symmetry_2
C39 C26 1_555 1_555
H25 C39 1_555 1_555
H26 C39 1_555 1_555
H27 C39 1_555 1_555
H40 C55 1_555 1_555
H42 C60 1_555 1_555
H43 C61 1_555 1_555
C60 C61 1_555 1_555
H34 C49 1_555 1_555
N5 C63 1_555 1_555
N7 C63 1_555 1_555
C63 H47 1_555 1_555
C64 N7 1_555 1_555
C71 N7 1_555 1_555
C72 N5 1_555 1_555
H52 C72 1_555 1_555
C73 C64 1_555 1_555
H53 C73 1_555 1_555
C76 C73 1_555 1_555
H56 C76 1_555 1_555
Cd7 N5 1_555 1_555
C71 C72 1_555 1_555
O7 C57 1_555 1_555
O8 C57 1_555 1_555
C52 H39 1_555 1_555
C53 C52 1_555 1_555
C57 C53 1_555 1_555
C58 C52 1_555 1_555
C59 C53 1_555 1_555
H41 C59 1_555 1_555
Cd7 O7 1_555 1_555
O8 Cd7 1_555 1_555
C54 C58 1_555 1_555
Cd1 O1 1_555 1_555
O1 C16 1_555 1_555
O2 C16 1_555 1_555
O3 Cd1 1_555 1_555
N2 Cd1 1_555 1_555
O4 Cd1 1_555 1_555
C1 H1 1_555 1_555
N4 C11 1_555 1_555
C2 C14 1_555 1_555
C3 H2 1_555 1_555
C4 C3 1_555 1_555
C5 C1 1_555 1_555
C7 C1 1_555 1_555
C8 C7 1_555 1_555
C9 C8 1_555 1_555
H5 C9 1_555 1_555
C11 C28 1_555 1_555
C14 C7 1_555 1_555
C15 N2 1_555 1_555
H7 C15 1_555 1_555
C16 C5 1_555 1_555
C22 C5 1_555 1_555
H11 C22 1_555 1_555
C27 O3 1_555 1_555
C28 C20 1_555 1_555
H15 C28 1_555 1_555
C29 C3 1_555 1_555
C30 C11 1_555 1_555
H16 C30 1_555 1_555
C34 C4 1_555 1_555
H20 C34 1_555 1_555
C35 N2 1_555 1_555
H21 C35 1_555 1_555
C37 N4 1_555 1_555
H23 C37 1_555 1_555
C40 C2 1_555 1_555
H28 C40 1_555 1_555
H30 C40 1_555 1_555
Cd7 O1 1_555 1_555
O10 Cd1 1_555 1_555
O12 Cd1 1_555 1_555
N9 Cd1 1_555 1_555
O2 Cd7 1_555 1_555
O4 C27 1_555 1_555
N4 C15 1_555 1_555
C4 C27 1_555 1_555
C9 C22 1_555 1_555
C19 C29 1_555 1_555
C35 C37 1_555 1_555
Cd7 O10 1_555 1_555
O10 C48 1_555 1_555
O12 C48 1_555 1_555
C41 H31 1_555 1_555
C43 C41 1_555 1_555
C44 C41 1_555 1_555
C45 C44 1_555 1_555
C46 C45 1_555 1_555
H33 C46 1_555 1_555
C47 C42 1_555 1_555
C48 C43 1_555 1_555
C50 C43 1_555 1_555
H35 C50 1_555 1_555
C51 C42 1_555 1_555
H36 C51 1_555 1_555
H38 C51 1_555 1_555
N6 Cd7 1_555 1_555
N8 C65 1_555 1_555
C65 C74 1_555 1_555
C68 N6 1_555 1_555
H49 C68 1_555 1_555
C74 C70 1_555 1_555
H54 C74 1_555 1_555
C75 C65 1_555 1_555
H55 C75 1_555 1_555
C79 N6 1_555 1_555
H59 C79 1_555 1_555
C80 N8 1_555 1_555
H60 C80 1_555 1_555
C44 C47 1_555 1_555
C46 C50 1_555 1_555
N8 C68 1_555 1_555
C79 C80 1_555 1_555
N9 C6 1_555 1_555
N3 C6 1_555 1_555
C6 H3 1_555 1_555
C10 N3 1_555 1_555
C23 N3 1_555 1_555
C24 N9 1_555 1_555
H13 C24 1_555 1_555
C25 C10 1_555 1_555
H14 C25 1_555 1_555
C31 C25 1_555 1_555
H17 C31 1_555 1_555
C23 C24 1_555 1_555
C12 C18 1_555 1_555
H6 C13 1_555 1_555
C32 C12 1_555 1_555
H18 C32 1_555 1_555
C33 C13 1_555 1_555
H19 C33 1_555 1_555
C18 C33 1_555 1_555
C66 C69 1_555 1_555
H48 C67 1_555 1_555
C77 C66 1_555 1_555
H57 C77 1_555 1_555
C78 C67 1_555 1_555
H58 C78 1_555 1_555
C69 C78 1_555 1_555
H8 C17 1_555 1_555
C21 H10 1_555 1_555
H22 C36 1_555 1_555
H24 C38 1_555 1_555
C36 C38 1_555 1_555
C62 C56 1_555 1_555
H44 C62 1_555 1_555
H45 C62 1_555 1_555
H46 C62 1_555 1_555

#END
