
###############################################################################
#
# This file contains modified crystal structure data generated from the
# MOF subset of the Cambridge Structural Database (CSD) v543 
# hosted by the Cambridge Crystallographic Data Centre (CCDC).
#
# This work is licensed under the Creative Commons
# Attribution-NonCommercial-ShareAlike 4.0 International License.
# To view a copy of this license, visit
# http://creativecommons.org/licenses/by-nc-sa/4.0/
# or send a letter to
# Creative Commons, PO Box 1866, Mountain View, CA 94042, USA.
#
# CIF created using the CSD Python API on 29 September 2022
# The structure has been converted into the P1 space group
# The structure has a 3D framework
# The original CSD entry BIRSIG is in the orthorhombic crystal system
# The framework has been calculated to contain at least 10.0% void space
# The void calculation uses a probe of radius 1.32A, grid spacing 0.4
# H atom positions have been added when not included in the experimental data
# Generated hydrogen atom positions removed from atoms on special positions
#
###############################################################################

data_BIRSIG
_chemical_formula_moiety         '(C102 H86 N8 Ni16 O52)n'
_symmetry_cell_setting           triclinic
_symmetry_space_group_name_H-M   'P 1'
_symmetry_Int_Tables_number      1
_space_group_name_Hall           'P 1'
loop_
_symmetry_equiv_pos_site_id
_symmetry_equiv_pos_as_xyz
1 x,y,z
_cell_length_a                   13.722(2)
_cell_length_b                   19.730(3)
_cell_length_c                   12.988(2)
_cell_angle_alpha                90
_cell_angle_beta                 90
_cell_angle_gamma                90
_cell_volume                     3516.31
loop_
_atom_site_label
_atom_site_type_symbol
_atom_site_fract_x
_atom_site_fract_y
_atom_site_fract_z
C10 C -0.0000 -0.0000 0.4731(7)
H5 H 0.0000 -0.0000 0.5447
C13 C 0.0000 0.0000 0.2578(5)
H7 H 0.0000 -0.0000 0.1862
O14 O 0.1851(2) 0.03621(16) 0.1701(2)
C26 C 0.1842(3) 0.0099(2) 0.2577(3)
C27 C 0.0862(4) 0.0001(4) 0.4183(5)
C28 C 0.0879(3) 0.0029(2) 0.3120(4)
Ni11 Ni 0.29906(3) 0.09776(2) 0.11406(4)
Ni14 Ni 0.39774(3) 0.02599(2) 0.29301(4)
C10_2 C 0.0000 1.0000 0.4731(7)
H5_2 H 0.0000 1.0000 0.5447
C13_2 C 0.0000 1.0000 0.2578(5)
H7_2 H 0.0000 1.0000 0.1862
O15 O 0.2581(2) 0.99140(15) 0.3080(3)
H18 H 0.1449 0.9983 0.4540
Ni8 Ni 0.5000 -0.0000 0.03623(5)
Ni4 Ni 0.52400(4) 0.11487(2) 0.43914(4)
O2 O 0.6138(2) 0.05438(16) 0.5281(2)
H4 H 0.6110 0.0063 0.7243
O6 O 0.7419(2) 0.00860(15) 0.3080(3)
C10_3 C 1.0000 -0.0000 0.4731(7)
H5_3 H 1.0000 -0.0000 0.5447
H6 H 0.8551 0.0017 0.4540
C13_3 C 1.0000 0.0000 0.2578(5)
H7_3 H 1.0000 -0.0000 0.1862
O9 O 0.5446(2) 0.09839(15) 0.0455(3)
O10 O 0.4147(2) 0.16287(15) 0.0799(3)
N2 N 0.7004(3) 0.32096(16) 0.0992(3)
C20 C 0.5034(3) 0.1530(2) 0.0663(3)
C21 C 0.7307(4) 0.2591(3) 0.0844(7)
H12 H 0.7974 0.2514 0.0800
C22 C 0.6690(4) 0.2051(3) 0.0751(6)
H13 H 0.6950 0.1620 0.0663
C23 C 0.5705(3) 0.2129(2) 0.0783(4)
C24 C 0.5386(4) 0.2780(3) 0.0935(6)
H14 H 0.4722 0.2875 0.0961
C25 C 0.6058(4) 0.3292(2) 0.1048(6)
H15 H 0.5824 0.3727 0.1172
H16 H 0.6529 0.0203 0.1282
O12 O 0.53663(18) 0.06460(13) 0.3046(2)
H17 H 0.5530 0.0947 0.2472
O13 O 0.4977(5) 0.1606(3) 0.5718(4)
O16 O 0.4049(2) 0.04491(15) 0.4492(2)
O18 O 0.2694(2) 0.07166(18) 0.9672(2)
O19 O 0.4035(2) 0.01819(19) 0.9152(3)
C29 C 0.3754(3) 0.0084(2) 0.5231(3)
C30 C 0.3268(3) 0.0492(2) 0.9008(3)
C31 C 0.3251(3) 0.0431(2) 0.6101(4)
C32 C 0.2617(5) 0.0969(3) 0.5864(4)
H19 H 0.2517 0.1096 0.5183
C33 C 0.2144(6) 0.1307(5) 0.6650(5)
H20 H 0.1703 0.1651 0.6498
C34 C 0.2327(5) 0.1133(4) 0.7669(4)
H21 H 0.2010 0.1362 0.8197
C35 C 0.2981(3) 0.0618(2) 0.7902(3)
C36 C 0.3442(3) 0.0277(2) 0.7094(3)
O20 O 0.3306(2) 0.12104(14) 0.2749(2)
O21 O 0.4272(2) 0.18133(15) 0.3767(3)
N3 N 0.1321(3) 0.31670(18) 0.4032(3)
C37 C 0.3513(3) 0.1713(2) 0.3281(3)
C38 C 0.2226(3) 0.3367(2) 0.3828(4)
H23 H 0.2376 0.3826 0.3872
C39 C 0.2957(3) 0.2914(2) 0.3551(4)
H24 H 0.3590 0.3065 0.3436
C40 C 0.2728(3) 0.2241(2) 0.3450(3)
C41 C 0.1779(3) 0.2039(2) 0.3626(4)
H25 H 0.1596 0.1589 0.3528
C42 C 0.1111(4) 0.2510(3) 0.3946(4)
H26 H 0.0485 0.2365 0.4109
O24 O 0.3900(2) 0.01891(14) 0.1381(2)
Ni13 Ni 0.79906(3) 0.40224(2) 0.11406(4)
Ni15 Ni 0.02400(4) 0.38513(2) 0.43914(4)
N6 N 0.6321(3) 0.18330(18) 0.4032(3)
N7 N 0.2004(3) 0.17904(16) 0.0992(3)
Ni8_2 Ni 0.5000 1.0000 0.03623(5)
Ni9 Ni 0.70094(3) 0.90224(2) 0.11406(4)
Ni3 Ni 0.60226(3) 0.97401(2) 0.29301(4)
O1 O 0.5951(2) 0.95509(15) 0.4492(2)
O3 O 0.7306(2) 0.92834(18) 0.9672(2)
O4 O 0.5965(2) 0.98181(19) 0.9152(3)
C1 C 0.6246(3) 0.9916(2) 0.5231(3)
C2 C 0.6732(3) 0.9508(2) 0.9008(3)
C3 C 0.6749(3) 0.9569(2) 0.6101(4)
C4 C 0.7383(5) 0.9031(3) 0.5864(4)
H1 H 0.7483 0.8904 0.5183
C5 C 0.7856(6) 0.8693(5) 0.6650(5)
H2 H 0.8297 0.8349 0.6498
C6 C 0.7673(5) 0.8867(4) 0.7669(4)
H3 H 0.7990 0.8638 0.8197
C7 C 0.7019(3) 0.9382(2) 0.7902(3)
C8 C 0.6558(3) 0.9723(2) 0.7094(3)
O5 O 0.8149(2) 0.96379(16) 0.1701(2)
C9 C 0.8158(3) 0.9901(2) 0.2577(3)
C10_4 C 1.0000 1.0000 0.4731(7)
H5_4 H 1.0000 1.0000 0.5447
C11 C 0.9138(4) 0.9999(4) 0.4183(5)
C12 C 0.9121(3) 0.9971(2) 0.3120(4)
C13_4 C 1.0000 1.0000 0.2578(5)
H7_4 H 1.0000 1.0000 0.1862
O7 O 0.6694(2) 0.87896(14) 0.2749(2)
O8 O 0.5728(2) 0.81867(15) 0.3767(3)
N1 N 0.8679(3) 0.68330(18) 0.4032(3)
C14 C 0.6487(3) 0.8287(2) 0.3281(3)
C15 C 0.7774(3) 0.6633(2) 0.3828(4)
H8 H 0.7624 0.6174 0.3872
C16 C 0.7043(3) 0.7086(2) 0.3551(4)
H9 H 0.6410 0.6935 0.3436
C17 C 0.7272(3) 0.7759(2) 0.3450(3)
C18 C 0.8221(3) 0.7961(2) 0.3626(4)
H10 H 0.8404 0.8411 0.3528
C19 C 0.8889(4) 0.7490(3) 0.3946(4)
H11 H 0.9515 0.7635 0.4109
O11 O 0.6100(2) 0.98109(14) 0.1381(2)
Ni7 Ni 0.47600(4) 0.88513(2) 0.43914(4)
O17 O 0.3862(2) 0.94562(16) 0.5281(2)
H22 H 0.3890 0.9937 0.7243
O22 O 0.4554(2) 0.90161(15) 0.0455(3)
O23 O 0.5853(2) 0.83713(15) 0.0799(3)
N4 N 0.2996(3) 0.67904(16) 0.0992(3)
C43 C 0.4966(3) 0.8470(2) 0.0663(3)
C44 C 0.2693(4) 0.7409(3) 0.0844(7)
H27 H 0.2026 0.7486 0.0800
C45 C 0.3310(4) 0.7949(3) 0.0751(6)
H28 H 0.3050 0.8380 0.0663
C46 C 0.4295(3) 0.7871(2) 0.0783(4)
C47 C 0.4614(4) 0.7220(3) 0.0935(6)
H29 H 0.5278 0.7125 0.0961
C48 C 0.3942(4) 0.6708(2) 0.1048(6)
H30 H 0.4176 0.6273 0.1172
H31 H 0.3471 0.9797 0.1282
O25 O 0.46337(18) 0.93540(13) 0.3046(2)
H32 H 0.4470 0.9053 0.2472
O26 O 0.5023(5) 0.8394(3) 0.5718(4)
Ni12 Ni 0.20094(3) 0.59776(2) 0.11406(4)
Ni16 Ni 0.97600(4) 0.61487(2) 0.43914(4)
N5 N 0.3679(3) 0.81670(18) 0.4032(3)
N8 N 0.7996(3) 0.82096(16) 0.0992(3)
Ni8_3 Ni -0.0000 0.5000 0.03623(5)
Ni3_2 Ni 0.10226(3) 0.52599(2) 0.29301(4)
O1_2 O 0.0951(2) 0.54491(15) 0.4492(2)
O2_2 O 0.1138(2) 0.44562(16) 0.5281(2)
O3_2 O 0.2306(2) 0.57166(18) 0.9672(2)
O4_2 O 0.0965(2) 0.51819(19) 0.9152(3)
C1_2 C 0.1246(3) 0.5084(2) 0.5231(3)
C2_2 C 0.1732(3) 0.5492(2) 0.9008(3)
C3_2 C 0.1749(3) 0.5431(2) 0.6101(4)
C4_2 C 0.2383(5) 0.5969(3) 0.5864(4)
H1_2 H 0.2483 0.6096 0.5183
C5_2 C 0.2856(6) 0.6307(5) 0.6650(5)
H2_2 H 0.3297 0.6651 0.6498
C6_2 C 0.2673(5) 0.6133(4) 0.7669(4)
H3_2 H 0.2990 0.6362 0.8197
C7_2 C 0.2019(3) 0.5618(2) 0.7902(3)
C8_2 C 0.1558(3) 0.5277(2) 0.7094(3)
H4_2 H 0.1110 0.4937 0.7243
O5_2 O 0.3149(2) 0.53621(16) 0.1701(2)
O6_2 O 0.2419(2) 0.49140(15) 0.3080(3)
C9_2 C 0.3158(3) 0.5099(2) 0.2577(3)
C10_5 C 0.5000 0.5000 0.4731(7)
H5_5 H 0.5000 0.5000 0.5447
C11_2 C 0.4138(4) 0.5001(4) 0.4183(5)
H6_2 H 0.3551 0.4983 0.4540
C12_2 C 0.4121(3) 0.5029(2) 0.3120(4)
C13_5 C 0.5000 0.5000 0.2578(5)
H7_5 H 0.5000 0.5000 0.1862
O7_2 O 0.1694(2) 0.62104(14) 0.2749(2)
O8_2 O 0.0728(2) 0.68133(15) 0.3767(3)
C14_2 C 0.1487(3) 0.6713(2) 0.3281(3)
C15_2 C 0.2774(3) 0.8367(2) 0.3828(4)
H8_2 H 0.2624 0.8826 0.3872
C16_2 C 0.2043(3) 0.7914(2) 0.3551(4)
H9_2 H 0.1410 0.8065 0.3436
C17_2 C 0.2272(3) 0.7241(2) 0.3450(3)
C18_2 C 0.3221(3) 0.7039(2) 0.3626(4)
H10_2 H 0.3404 0.6589 0.3528
C19_2 C 0.3889(4) 0.7510(3) 0.3946(4)
H11_2 H 0.4515 0.7365 0.4109
O9_2 O 0.0446(2) 0.40161(15) 0.0455(3)
C20_2 C 0.0034(3) 0.3470(2) 0.0663(3)
C21_2 C 0.2307(4) 0.2409(3) 0.0844(7)
H12_2 H 0.2974 0.2486 0.0800
C22_2 C 0.1690(4) 0.2949(3) 0.0751(6)
H13_2 H 0.1950 0.3380 0.0663
C23_2 C 0.0705(3) 0.2871(2) 0.0783(4)
C24_2 C 0.0386(4) 0.2220(3) 0.0935(6)
C25_2 C 0.1058(4) 0.1708(2) 0.1048(6)
H15_2 H 0.0824 0.1273 0.1172
O11_2 O 0.1100(2) 0.51891(14) 0.1381(2)
H16_2 H 0.1529 0.4797 0.1282
O12_2 O 0.03663(18) 0.43540(13) 0.3046(2)
H17_2 H 0.0530 0.4053 0.2472
O14_2 O 0.6851(2) 0.46379(16) 0.1701(2)
O15_2 O 0.7581(2) 0.50860(15) 0.3080(3)
C26_2 C 0.6842(3) 0.4901(2) 0.2577(3)
C27_2 C 0.5862(4) 0.4999(4) 0.4183(5)
H18_2 H 0.6449 0.5017 0.4540
C28_2 C 0.5879(3) 0.4971(2) 0.3120(4)
O23_2 O 0.0853(2) 0.66287(15) 0.0799(3)
H29_2 H 0.0278 0.7875 0.0961
O26_2 O 0.0023(5) 0.6606(3) 0.5718(4)
Ni14_2 Ni 0.89774(3) 0.47401(2) 0.29301(4)
H33 H 0.0595268 0.321096 0.60018
Ni8_4 Ni 1.0000 0.5000 0.03623(5)
O10_2 O 0.9147(2) 0.33713(15) 0.0799(3)
H14_2 H 0.9722 0.2125 0.0961
O13_2 O 0.9977(5) 0.3394(3) 0.5718(4)
O16_2 O 0.9049(2) 0.45509(15) 0.4492(2)
O17_2 O 0.8862(2) 0.55438(16) 0.5281(2)
O18_2 O 0.7694(2) 0.42834(18) 0.9672(2)
O19_2 O 0.9035(2) 0.48181(19) 0.9152(3)
C29_2 C 0.8754(3) 0.4916(2) 0.5231(3)
C30_2 C 0.8268(3) 0.4508(2) 0.9008(3)
C31_2 C 0.8251(3) 0.4569(2) 0.6101(4)
C32_2 C 0.7617(5) 0.4031(3) 0.5864(4)
H19_2 H 0.7517 0.3904 0.5183
C33_2 C 0.7144(6) 0.3693(5) 0.6650(5)
H20_2 H 0.6703 0.3349 0.6498
C34_2 C 0.7327(5) 0.3867(4) 0.7669(4)
H21_2 H 0.7010 0.3638 0.8197
C35_2 C 0.7981(3) 0.4382(2) 0.7902(3)
C36_2 C 0.8442(3) 0.4723(2) 0.7094(3)
H22_2 H 0.8890 0.5063 0.7243
O20_2 O 0.8306(2) 0.37896(14) 0.2749(2)
O21_2 O 0.9272(2) 0.31867(15) 0.3767(3)
C37_2 C 0.8513(3) 0.3287(2) 0.3281(3)
C38_2 C 0.7226(3) 0.1633(2) 0.3828(4)
H23_2 H 0.7376 0.1174 0.3872
C39_2 C 0.7957(3) 0.2086(2) 0.3551(4)
H24_2 H 0.8590 0.1935 0.3436
C40_2 C 0.7728(3) 0.2759(2) 0.3450(3)
C41_2 C 0.6779(3) 0.2961(2) 0.3626(4)
H25_2 H 0.6596 0.3411 0.3528
C42_2 C 0.6111(4) 0.2490(3) 0.3946(4)
H26_2 H 0.5485 0.2635 0.4109
O22_2 O 0.9554(2) 0.59839(15) 0.0455(3)
C43_2 C 0.9966(3) 0.6530(2) 0.0663(3)
C44_2 C 0.7693(4) 0.7591(3) 0.0844(7)
H27_2 H 0.7026 0.7514 0.0800
C45_2 C 0.8310(4) 0.7051(3) 0.0751(6)
H28_2 H 0.8050 0.6620 0.0663
C46_2 C 0.9295(3) 0.7129(2) 0.0783(4)
C47_2 C 0.9614(4) 0.7780(3) 0.0935(6)
C48_2 C 0.8942(4) 0.8292(2) 0.1048(6)
H30_2 H 0.9176 0.8727 0.1172
O24_2 O 0.8900(2) 0.48109(14) 0.1381(2)
H31_2 H 0.8471 0.5203 0.1282
O25_2 O 0.96337(18) 0.56460(13) 0.3046(2)
H32_2 H 0.9470 0.5947 0.2472
H34 H 0.950944 0.301686 0.560711
H35 H 0.998515 0.62702 0.628609
H36 H 0.953133 0.696762 0.583172
H34_2 H 0.0490562 0.698314 0.560711
H35_2 H 0.00148536 0.37298 0.628609
H36_2 H 0.0468665 0.303238 0.583172
H33_2 H 0.940473 0.678904 0.60018
loop_
_geom_bond_atom_site_label_1
_geom_bond_atom_site_label_2
_geom_bond_site_symmetry_1
_geom_bond_site_symmetry_2
C10 H5 1_555 1_555
H7 C13 1_555 1_555
O14 C26 1_555 1_555
C26 C28 1_555 1_555
C27 C10 1_555 1_555
C28 C13 1_555 1_555
Ni11 O14 1_555 1_555
C27 C28 1_555 1_555
C10_2 H5_2 1_555 1_555
H7_2 C13_2 1_555 1_555
Ni8 O9 1_555 1_555
Ni4 O2 1_555 1_555
C10_3 H5_3 1_555 1_555
H7_3 C13_3 1_555 1_555
O9 C20 1_555 1_555
O10 C20 1_555 1_555
N2 C21 1_555 1_555
C20 C23 1_555 1_555
C21 H12 1_555 1_555
C22 C21 1_555 1_555
H13 C22 1_555 1_555
C23 C22 1_555 1_555
C24 C23 1_555 1_555
H14 C24 1_555 1_555
C25 N2 1_555 1_555
H15 C25 1_555 1_555
H17 O12 1_555 1_555
O13 Ni4 1_555 1_555
Ni11 O10 1_555 1_555
Ni14 O12 1_555 1_555
O16 Ni4 1_555 1_555
O18 C30 1_555 1_555
O19 C30 1_555 1_555
C29 O16 1_555 1_555
C30 C35 1_555 1_555
C31 C29 1_555 1_555
C32 C31 1_555 1_555
H19 C32 1_555 1_555
C33 C32 1_555 1_555
H20 C33 1_555 1_555
C34 C33 1_555 1_555
H21 C34 1_555 1_555
C35 C34 1_555 1_555
C36 C31 1_555 1_555
O20 Ni11 1_555 1_555
O21 Ni4 1_555 1_555
N3 C38 1_555 1_555
C37 O20 1_555 1_555
C38 H23 1_555 1_555
C39 C38 1_555 1_555
H24 C39 1_555 1_555
C40 C37 1_555 1_555
C41 C40 1_555 1_555
H25 C41 1_555 1_555
C42 N3 1_555 1_555
H26 C42 1_555 1_555
O24 Ni8 1_555 1_555
Ni13 N2 1_555 1_555
Ni15 N3 1_555 1_555
N6 Ni4 1_555 1_555
N7 Ni11 1_555 1_555
Ni4 O12 1_555 1_555
C24 C25 1_555 1_555
Ni11 O24 1_555 1_555
Ni14 O16 1_555 1_555
Ni14 O20 1_555 1_555
Ni14 O24 1_555 1_555
C35 C36 1_555 1_555
O21 C37 1_555 1_555
C39 C40 1_555 1_555
C41 C42 1_555 1_555
Ni9 O5 1_555 1_555
Ni3 O1 1_555 1_555
O1 C1 1_555 1_555
O3 C2 1_555 1_555
O4 C2 1_555 1_555
C1 C3 1_555 1_555
C2 C7 1_555 1_555
C3 C4 1_555 1_555
C4 H1 1_555 1_555
C5 C4 1_555 1_555
H2 C5 1_555 1_555
C6 C5 1_555 1_555
H3 C6 1_555 1_555
C7 C6 1_555 1_555
C8 C3 1_555 1_555
O5 C9 1_555 1_555
C10_4 H5_4 1_555 1_555
C11 C10_4 1_555 1_555
C12 C9 1_555 1_555
C13_4 C12 1_555 1_555
H7_4 C13_4 1_555 1_555
O7 Ni9 1_555 1_555
O8 C14 1_555 1_555
N1 C15 1_555 1_555
C14 O7 1_555 1_555
C15 H8 1_555 1_555
C16 C15 1_555 1_555
H9 C16 1_555 1_555
C17 C14 1_555 1_555
C18 C17 1_555 1_555
H10 C18 1_555 1_555
C19 N1 1_555 1_555
H11 C19 1_555 1_555
O11 Ni8_2 1_555 1_555
Ni7 O1 1_555 1_555
O17 Ni7 1_555 1_555
O22 Ni8_2 1_555 1_555
O23 Ni9 1_555 1_555
N4 C44 1_555 1_555
C43 O22 1_555 1_555
C44 H27 1_555 1_555
C45 C44 1_555 1_555
H28 C45 1_555 1_555
C46 C43 1_555 1_555
C47 C46 1_555 1_555
H29 C47 1_555 1_555
C48 N4 1_555 1_555
H30 C48 1_555 1_555
O25 Ni3 1_555 1_555
H32 O25 1_555 1_555
O26 Ni7 1_555 1_555
Ni12 N4 1_555 1_555
Ni16 N1 1_555 1_555
N5 Ni7 1_555 1_555
N8 Ni9 1_555 1_555
Ni9 O11 1_555 1_555
Ni3 O7 1_555 1_555
Ni3 O11 1_555 1_555
C7 C8 1_555 1_555
C11 C12 1_555 1_555
O8 Ni7 1_555 1_555
C16 C17 1_555 1_555
C18 C19 1_555 1_555
Ni7 O25 1_555 1_555
O23 C43 1_555 1_555
C45 C46 1_555 1_555
C47 C48 1_555 1_555
Ni8_3 O9_2 1_555 1_555
Ni12 O5_2 1_555 1_555
Ni3_2 O1_2 1_555 1_555
Ni15 O2_2 1_555 1_555
O1_2 C1_2 1_555 1_555
O2_2 C1_2 1_555 1_555
O3_2 C2_2 1_555 1_555
O4_2 C2_2 1_555 1_555
C1_2 C3_2 1_555 1_555
C2_2 C7_2 1_555 1_555
C3_2 C4_2 1_555 1_555
C4_2 H1_2 1_555 1_555
C5_2 C4_2 1_555 1_555
H2_2 C5_2 1_555 1_555
C6_2 C5_2 1_555 1_555
H3_2 C6_2 1_555 1_555
C7_2 C6_2 1_555 1_555
C8_2 C3_2 1_555 1_555
H4_2 C8_2 1_555 1_555
O5_2 C9_2 1_555 1_555
O6_2 Ni3_2 1_555 1_555
C9_2 O6_2 1_555 1_555
C10_5 H5_5 1_555 1_555
C11_2 C10_5 1_555 1_555
H6_2 C11_2 1_555 1_555
C12_2 C9_2 1_555 1_555
C13_5 C12_2 1_555 1_555
H7_5 C13_5 1_555 1_555
O7_2 Ni12 1_555 1_555
O8_2 C14_2 1_555 1_555
N5 C15_2 1_555 1_555
C14_2 O7_2 1_555 1_555
C15_2 H8_2 1_555 1_555
C16_2 C15_2 1_555 1_555
H9_2 C16_2 1_555 1_555
C17_2 C14_2 1_555 1_555
C18_2 C17_2 1_555 1_555
H10_2 C18_2 1_555 1_555
C19_2 N5 1_555 1_555
H11_2 C19_2 1_555 1_555
O9_2 C20_2 1_555 1_555
N7 C21_2 1_555 1_555
C20_2 C23_2 1_555 1_555
C21_2 H12_2 1_555 1_555
C22_2 C21_2 1_555 1_555
H13_2 C22_2 1_555 1_555
C23_2 C22_2 1_555 1_555
C24_2 C23_2 1_555 1_555
C25_2 N7 1_555 1_555
H15_2 C25_2 1_555 1_555
O11_2 Ni8_3 1_555 1_555
H16_2 O11_2 1_555 1_555
O12_2 Ni3_2 1_555 1_555
H17_2 O12_2 1_555 1_555
O14_2 C26_2 1_555 1_555
O15_2 C26_2 1_555 1_555
C26_2 C28_2 1_555 1_555
C27_2 C10_5 1_555 1_555
H18_2 C27_2 1_555 1_555
C28_2 C13_5 1_555 1_555
O23_2 Ni12 1_555 1_555
Ni13 O14_2 1_555 1_555
Ni14_2 O15_2 1_555 1_555
Ni12 O11_2 1_555 1_555
Ni3_2 O7_2 1_555 1_555
Ni3_2 O11_2 1_555 1_555
Ni15 O12_2 1_555 1_555
C7_2 C8_2 1_555 1_555
C11_2 C12_2 1_555 1_555
C16_2 C17_2 1_555 1_555
C18_2 C19_2 1_555 1_555
C24_2 C25_2 1_555 1_555
C27_2 C28_2 1_555 1_555
Ni13 O10_2 1_555 1_555
O17_2 Ni16 1_555 1_555
O18_2 C30_2 1_555 1_555
O19_2 C30_2 1_555 1_555
C29_2 O16_2 1_555 1_555
C30_2 C35_2 1_555 1_555
C31_2 C29_2 1_555 1_555
C32_2 C31_2 1_555 1_555
H19_2 C32_2 1_555 1_555
C33_2 C32_2 1_555 1_555
H20_2 C33_2 1_555 1_555
C34_2 C33_2 1_555 1_555
H21_2 C34_2 1_555 1_555
C35_2 C34_2 1_555 1_555
C36_2 C31_2 1_555 1_555
H22_2 C36_2 1_555 1_555
O20_2 Ni13 1_555 1_555
N6 C38_2 1_555 1_555
C37_2 O20_2 1_555 1_555
C38_2 H23_2 1_555 1_555
C39_2 C38_2 1_555 1_555
H24_2 C39_2 1_555 1_555
C40_2 C37_2 1_555 1_555
C41_2 C40_2 1_555 1_555
H25_2 C41_2 1_555 1_555
C42_2 N6 1_555 1_555
H26_2 C42_2 1_555 1_555
O22_2 Ni8_4 1_555 1_555
N8 C44_2 1_555 1_555
C43_2 O22_2 1_555 1_555
C44_2 H27_2 1_555 1_555
C45_2 C44_2 1_555 1_555
H28_2 C45_2 1_555 1_555
C46_2 C43_2 1_555 1_555
C47_2 C46_2 1_555 1_555
C48_2 N8 1_555 1_555
H30_2 C48_2 1_555 1_555
O24_2 Ni8_4 1_555 1_555
H31_2 O24_2 1_555 1_555
H32_2 O25_2 1_555 1_555
Ni13 O24_2 1_555 1_555
Ni14_2 O16_2 1_555 1_555
Ni14_2 O20_2 1_555 1_555
Ni14_2 O24_2 1_555 1_555
Ni14_2 O25_2 1_555 1_555
Ni16 O25_2 1_555 1_555
O17_2 C29_2 1_555 1_555
C35_2 C36_2 1_555 1_555
O21_2 C37_2 1_555 1_555
C39_2 C40_2 1_555 1_555
C41_2 C42_2 1_555 1_555
C45_2 C46_2 1_555 1_555
C47_2 C48_2 1_555 1_555
O13_2 H34 1_555 1_555
O26_2 H34_2 1_555 1_555

#END
