
###############################################################################
#
# This file contains modified crystal structure data generated from the
# MOF subset of the Cambridge Structural Database (CSD) v543 
# hosted by the Cambridge Crystallographic Data Centre (CCDC).
#
# This work is licensed under the Creative Commons
# Attribution-NonCommercial-ShareAlike 4.0 International License.
# To view a copy of this license, visit
# http://creativecommons.org/licenses/by-nc-sa/4.0/
# or send a letter to
# Creative Commons, PO Box 1866, Mountain View, CA 94042, USA.
#
# CIF created using the CSD Python API on 29 September 2022
# The structure has been converted into the P1 space group
# The structure has a 3D framework
# The original CSD entry BIRSUS is in the monoclinic crystal system
# The framework has been calculated to contain at least 10.0% void space
# The void calculation uses a probe of radius 1.32A, grid spacing 0.4
# H atom positions have been added when not included in the experimental data
#
###############################################################################

data_BIRSUS
_chemical_formula_moiety         '(C132 H88 N6 Ni14 O50)n'
_symmetry_cell_setting           triclinic
_symmetry_space_group_name_H-M   'P 1'
_symmetry_Int_Tables_number      1
_space_group_name_Hall           'P 1'
loop_
_symmetry_equiv_pos_site_id
_symmetry_equiv_pos_as_xyz
1 x,y,z
_cell_length_a                   13.6192(8)
_cell_length_b                   12.9919(6)
_cell_length_c                   20.3610(10)
_cell_angle_alpha                90
_cell_angle_beta                 103.612(5)
_cell_angle_gamma                90
_cell_volume                     3501.47
loop_
_atom_site_label
_atom_site_type_symbol
_atom_site_fract_x
_atom_site_fract_y
_atom_site_fract_z
O3 O 0.0395(3) 0.2773(2) 0.31308(16)
O4 O 0.1644(4) 0.2232(3) 0.2689(3)
C3 C 0.1011(4) 0.0185(4) 0.2740(2)
H2 H 0.1370 0.0318 0.2413
C4 C 0.0653(4) 0.0996(4) 0.3063(3)
C5 C 0.0084(5) 0.0791(4) 0.3529(3)
C13 C 0.0912(4) 0.2092(4) 0.2948(2)
Ni10 Ni 0.2500 0.34565(6) 0.2500
Ni11 Ni 0.08452(4) 0.41919(4) 0.34701(3)
Ni3 Ni 0.15669(4) 0.60270(4) 0.27546(2)
Ni4 Ni 0.30967(4) 0.75037(4) 0.36454(2)
O1 O 0.1669(2) 0.7586(2) 0.29514(14)
O2 O 0.1164(2) 0.8354(2) 0.19435(14)
C1 C 0.0298(5) 0.8987(4) 0.3396(3)
H1 H 0.0217 0.8310 0.3522
C2 C 0.0834(4) 0.9191(3) 0.2903(2)
C14 C 0.1253(3) 0.8320(3) 0.2571(2)
O6 O 0.0059(2) 0.6171(2) 0.23967(15)
O7 O 0.3257(3) 0.3535(5) 0.34708(17)
O8 O 0.2185(2) 0.3744(3) 0.41363(15)
N1 N 0.5587(3) 0.2780(3) 0.56419(17)
C24 C 0.5593(4) 0.2636(5) 0.4990(3)
H14 H 0.6167 0.2358 0.4885
C25 C 0.4779(4) 0.2884(5) 0.4472(2)
H15 H 0.4815 0.2785 0.4026
C26 C 0.3899(4) 0.3283(4) 0.4613(2)
C27 C 0.3884(4) 0.3382(4) 0.5277(2)
H16 H 0.3306 0.3618 0.5398
C28 C 0.4740(4) 0.3129(4) 0.5774(2)
H17 H 0.4716 0.3208 0.6224
C29 C 0.3033(4) 0.3548(4) 0.4028(2)
N2 N 0.0113(3) 0.3890(3) 0.42435(18)
C30 C 0.0587(4) 0.3911(4) 0.4911(2)
H18 H 0.1286 0.3983 0.5031
C31 C 0.0074(4) 0.3829(3) 0.5415(2)
H19 H 0.0417 0.3874 0.5867
O11 O 0.1464(2) 0.4476(2) 0.26843(13)
O12 O 0.3087(2) 0.6153(2) 0.31592(13)
O13 O 0.2921(3) 0.8938(2) 0.40691(16)
Ni16 Ni 0.34331(4) 0.60270(4) 0.22454(2)
Ni20 Ni 0.19033(4) 0.75037(4) 0.13546(2)
Ni22 Ni 0.69033(4) 0.24963(4) 0.63546(2)
O28 O 0.3836(2) 0.8354(2) 0.30565(14)
O32 O 0.3356(4) 0.2232(3) 0.2311(3)
O33 O 0.1743(3) 0.3535(5) 0.15292(17)
N5 N 0.4413(3) 0.7220(3) 0.43581(17)
O34 O 0.2281(2) 0.6982(2) 0.43148(14)
O36 O 0.1264(2) 0.5794(2) 0.37084(14)
O38 O 0.3536(2) 0.4476(2) 0.23157(13)
O40 O 0.1913(2) 0.6153(2) 0.18408(13)
H41 H 0.231543 0.892445 0.42615
H42 H 0.352875 0.909396 0.44328
H3 H 0.9829 0.1338 0.3732
C11 C 0.7834(9) 0.0152(7) 0.4649(6)
H7 H 0.7383 0.0672 0.4691
C12 C 0.8545(8) 0.0311(6) 0.4267(5)
H8 H 0.8570 0.0957 0.4075
C15 C 0.7500 0.1141(12) 0.2500
H9 H 0.7500 0.1857 0.2500
C16 C 0.8173(10) 0.0593(8) 0.2154(9)
H10 H 0.8593 0.0939 0.1928
C36 C 0.6827(10) 0.0593(8) 0.2846(9)
H22 H 0.6407 0.0939 0.3072
O18 O 0.4605(3) 0.2773(2) 0.18692(16)
C43 C 0.3989(4) 0.0185(4) 0.2260(2)
H26 H 0.3630 0.0318 0.2587
C44 C 0.4347(4) 0.0996(4) 0.1937(3)
C45 C 0.4916(5) 0.0791(4) 0.1471(3)
H27 H 0.5171 0.1338 0.1268
C51 C 0.7166(9) 0.0152(7) 0.0351(6)
H31 H 0.7617 0.0672 0.0309
C52 C 0.6455(8) 0.0311(6) 0.0733(5)
H32 H 0.6430 0.0957 0.0925
C53 C 0.4088(4) 0.2092(4) 0.2052(2)
Ni12 Ni 0.41548(4) 0.41919(4) 0.15299(3)
C6 C 0.9882(5) 0.9786(4) 0.3702(3)
C7 C 0.9189(6) 0.9603(5) 0.4160(4)
C8 C 0.9172(8) 0.8711(5) 0.4498(5)
H4 H 0.9633 0.8198 0.4462
C9 C 0.8491(8) 0.8530(6) 0.4899(5)
H5 H 0.8517 0.7909 0.5130
C10 C 0.7803(7) 0.9229(6) 0.4960(4)
H6 H 0.7321 0.9092 0.5204
O5 O 0.9490(2) 0.4827(2) 0.29023(15)
C17 C 0.8147(8) 0.9542(7) 0.2184(8)
H11 H 0.8584 0.9174 0.1983
C18 C 0.7500 0.8979(8) 0.2500
C19 C 0.7500 0.7836(7) 0.2500
C20 C 0.8373(5) 0.7288(5) 0.2504(4)
H12 H 0.8961 0.7643 0.2492
C21 C 0.8389(4) 0.6223(4) 0.2527(3)
C22 C 0.7500 0.5690(5) 0.2500
H13 H 0.7500 0.4975 0.2500
C23 C 0.9388(4) 0.5689(3) 0.2604(2)
O9 O 0.7719(2) 0.3018(2) 0.56852(14)
O10 O 0.8736(2) 0.4206(2) 0.62916(14)
C32 C 0.9038(4) 0.3678(3) 0.5242(2)
C33 C 0.8566(4) 0.3577(4) 0.4565(2)
H20 H 0.7879 0.3430 0.4435
C34 C 0.9118(4) 0.3695(4) 0.4086(2)
H21 H 0.8787 0.3638 0.3633
C35 C 0.8438(3) 0.3634(3) 0.5782(2)
O14 O 0.5510(2) 0.4827(2) 0.20977(15)
O15 O 0.4941(2) 0.6171(2) 0.26033(15)
C37 C 0.6853(8) 0.9542(7) 0.2816(8)
H23 H 0.6416 0.9174 0.3017
C38 C 0.6627(5) 0.7288(5) 0.2496(4)
H24 H 0.6039 0.7643 0.2508
C39 C 0.6611(4) 0.6223(4) 0.2473(3)
C40 C 0.5612(4) 0.5689(3) 0.2396(2)
O16 O 0.3331(2) 0.7586(2) 0.20486(14)
C41 C 0.4702(5) 0.8987(4) 0.1604(3)
H25 H 0.4783 0.8310 0.1478
C42 C 0.4166(4) 0.9191(3) 0.2097(2)
C46 C 0.5118(5) 0.9786(4) 0.1298(3)
C47 C 0.5811(6) 0.9603(5) 0.0840(4)
C48 C 0.5828(8) 0.8711(5) 0.0502(5)
H28 H 0.5367 0.8198 0.0538
C49 C 0.6509(8) 0.8530(6) 0.0101(5)
C50 C 0.7197(7) 0.9229(6) 0.0040(4)
C54 C 0.3747(3) 0.8320(3) 0.2429(2)
O21 O 0.2815(2) 0.3744(3) 0.08637(15)
C56 C 0.0221(4) 0.2884(5) 0.0528(2)
H34 H 0.0185 0.2785 0.0974
C57 C 0.1101(4) 0.3283(4) 0.0387(2)
C60 C 0.1967(4) 0.3548(4) 0.0972(2)
N4 N 0.4887(3) 0.3890(3) 0.07565(18)
C61 C 0.4413(4) 0.3911(4) 0.0089(2)
C64 C 0.6434(4) 0.3577(4) 0.0435(2)
H39 H 0.7121 0.3430 0.0565
C65 C 0.5882(4) 0.3695(4) 0.0914(2)
H40 H 0.6213 0.3638 0.1367
O26 O 0.2079(3) 0.8938(2) 0.09309(16)
Ni13 Ni 0.91548(4) 0.58081(4) 0.65299(3)
Ni17 Ni 0.84331(4) 0.39730(4) 0.72454(2)
N6 N 0.0587(3) 0.7220(3) 0.06419(17)
O35 O 0.2719(2) 0.6982(2) 0.06852(14)
O37 O 0.3736(2) 0.5794(2) 0.12916(14)
H43 H 0.268457 0.892445 0.0738498
H44 H 0.147125 0.909396 0.0567196
H29 H 0.6483 0.7909 0.9870
H30 H 0.7679 0.9092 0.9796
C58 C 0.1116(4) 0.3382(4) 0.9723(2)
H35 H 0.1694 0.3618 0.9602
C59 C 0.0260(4) 0.3129(4) 0.9226(2)
H36 H 0.0284 0.3208 0.8776
O22 O 0.7281(2) 0.3018(2) 0.93148(14)
O23 O 0.6264(2) 0.4206(2) 0.87084(14)
H37 H 0.3714 0.3983 0.9969
C62 C 0.4926(4) 0.3829(3) 0.9585(2)
H38 H 0.4583 0.3874 0.9133
C63 C 0.5962(4) 0.3678(3) 0.9758(2)
C66 C 0.6562(3) 0.3634(3) 0.9218(2)
Ni14 Ni 0.58452(4) 0.58081(4) 0.84701(3)
Ni18 Ni 0.65669(4) 0.39730(4) 0.77546(2)
Ni24 Ni 0.80967(4) 0.24963(4) 0.86454(2)
N3 N 0.9413(3) 0.2780(3) 0.93581(17)
H29_2 H 0.3517 0.2091 0.0130
H30_2 H 0.2321 0.0908 0.0204
C58_2 C 0.8884(4) 0.6618(4) 0.0277(2)
H35_2 H 0.8306 0.6382 0.0398
C59_2 C 0.9740(4) 0.6871(4) 0.0774(2)
H36_2 H 0.9716 0.6792 0.1224
H37_2 H 0.6286 0.6017 0.0031
C62_2 C 0.5074(4) 0.6171(3) 0.0415(2)
H38_2 H 0.5417 0.6126 0.0867
C63_2 C 0.4038(4) 0.6322(3) 0.0242(2)
C66_2 C 0.3438(3) 0.6366(3) 0.0782(2)
C6_2 C 0.0118(5) 0.0214(4) 0.6298(3)
C7_2 C 0.0811(6) 0.0397(5) 0.5840(4)
C8_2 C 0.0828(8) 0.1289(5) 0.5502(5)
H4_2 H 0.0367 0.1802 0.5538
C9_2 C 0.1509(8) 0.1470(6) 0.5101(5)
H5_2 H 0.1483 0.2091 0.4870
C10_2 C 0.2197(7) 0.0771(6) 0.5040(4)
H6_2 H 0.2679 0.0908 0.4796
O5_2 O 0.0510(2) 0.5173(2) 0.70977(15)
C17_2 C 0.1853(8) 0.0458(7) 0.7816(8)
H11_2 H 0.1416 0.0826 0.8017
C18_2 C 0.2500 0.1021(8) 0.7500
C19_2 C 0.2500 0.2164(7) 0.7500
C20_2 C 0.1627(5) 0.2712(5) 0.7496(4)
H12_2 H 0.1039 0.2357 0.7508
C21_2 C 0.1611(4) 0.3777(4) 0.7473(3)
C22_2 C 0.2500 0.4310(5) 0.7500
H13_2 H 0.2500 0.5025 0.7500
C23_2 C 0.0612(4) 0.4311(3) 0.7396(2)
C32_2 C 0.0962(4) 0.6322(3) 0.4758(2)
C33_2 C 0.1434(4) 0.6423(4) 0.5435(2)
H20_2 H 0.2121 0.6570 0.5565
C34_2 C 0.0882(4) 0.6305(4) 0.5914(2)
H21_2 H 0.1213 0.6362 0.6367
C35_2 C 0.1562(3) 0.6366(3) 0.4218(2)
O14_2 O 0.4490(2) 0.5173(2) 0.79023(15)
O15_2 O 0.5059(2) 0.3829(2) 0.73967(15)
C37_2 C 0.3147(8) 0.0458(7) 0.7184(8)
H23_2 H 0.3584 0.0826 0.6983
C38_2 C 0.3373(5) 0.2712(5) 0.7504(4)
H24_2 H 0.3961 0.2357 0.7492
C39_2 C 0.3389(4) 0.3777(4) 0.7527(3)
C40_2 C 0.4388(4) 0.4311(3) 0.7604(2)
O16_2 O 0.6669(2) 0.2414(2) 0.79514(14)
O17 O 0.6164(2) 0.1646(2) 0.69435(14)
C41_2 C 0.5298(5) 0.1013(4) 0.8396(3)
H25_2 H 0.5217 0.1690 0.8522
C42_2 C 0.5834(4) 0.0809(3) 0.7903(2)
C46_2 C 0.4882(5) 0.0214(4) 0.8702(3)
C47_2 C 0.4189(6) 0.0397(5) 0.9160(4)
C48_2 C 0.4172(8) 0.1289(5) 0.9498(5)
H28_2 H 0.4633 0.1802 0.9462
C49_2 C 0.3491(8) 0.1470(6) 0.9899(5)
C50_2 C 0.2803(7) 0.0771(6) 0.9960(4)
C54_2 C 0.6253(3) 0.1680(3) 0.7571(2)
O20 O 0.8257(3) 0.6465(5) 0.84708(17)
O21_2 O 0.7185(2) 0.6256(3) 0.91363(15)
C56_2 C 0.9779(4) 0.7116(5) 0.9472(2)
H34_2 H 0.9815 0.7215 0.9026
C57_2 C 0.8899(4) 0.6717(4) 0.9613(2)
C60_2 C 0.8033(4) 0.6452(4) 0.9028(2)
N4_2 N 0.5113(3) 0.6110(3) 0.92435(18)
C61_2 C 0.5587(4) 0.6089(4) 0.9911(2)
C64_2 C 0.3566(4) 0.6423(4) 0.9565(2)
H39_2 H 0.2879 0.6570 0.9435
C65_2 C 0.4118(4) 0.6305(4) 0.9086(2)
H40_2 H 0.3787 0.6362 0.8633
O24 O 0.6464(2) 0.5524(2) 0.76843(13)
O25 O 0.8087(2) 0.3847(2) 0.81592(13)
O26_2 O 0.7921(3) 0.1062(2) 0.90691(16)
Ni8 Ni 0.7500 0.65435(6) 0.7500
O27 O 0.8836(2) 0.1646(2) 0.80565(14)
O30 O 0.5395(3) 0.7227(2) 0.81308(16)
O39 O 0.6913(2) 0.3847(2) 0.68408(13)
H43_2 H 0.731543 0.107555 0.92615
H44_2 H 0.852875 0.0906038 0.94328
H3_2 H 0.0171 0.8662 0.6268
C11_2 C 0.2166(9) 0.9848(7) 0.5351(6)
H7_2 H 0.2617 0.9328 0.5309
C12_2 C 0.1455(8) 0.9689(6) 0.5733(5)
H8_2 H 0.1430 0.9043 0.5925
C15_2 C 0.2500 0.8859(12) 0.7500
H9_2 H 0.2500 0.8143 0.7500
C16_2 C 0.1827(10) 0.9407(8) 0.7846(9)
H10_2 H 0.1407 0.9061 0.8072
C36_2 C 0.3173(10) 0.9407(8) 0.7154(9)
H22_2 H 0.3593 0.9061 0.6928
O19 O 0.6644(4) 0.7768(3) 0.7689(3)
C43_2 C 0.6011(4) 0.9815(4) 0.7740(2)
H26_2 H 0.6370 0.9682 0.7413
C44_2 C 0.5653(4) 0.9004(4) 0.8063(3)
C45_2 C 0.5084(5) 0.9209(4) 0.8529(3)
H27_2 H 0.4829 0.8662 0.8732
C51_2 C 0.2834(9) 0.9848(7) 0.9649(6)
H31_2 H 0.2383 0.9328 0.9691
C52_2 C 0.3545(8) 0.9689(6) 0.9267(5)
H32_2 H 0.3570 0.9043 0.9075
C53_2 C 0.5912(4) 0.7908(4) 0.7948(2)
O1_2 O 0.8331(2) 0.2414(2) 0.70486(14)
C1_2 C 0.9702(5) 0.1013(4) 0.6604(3)
H1_2 H 0.9783 0.1690 0.6478
C2_2 C 0.9166(4) 0.0809(3) 0.7097(2)
C14_2 C 0.8747(3) 0.1680(3) 0.7429(2)
O6_2 O 0.9941(2) 0.3829(2) 0.76033(15)
O7_2 O 0.6743(3) 0.6465(5) 0.65292(17)
O8_2 O 0.7815(2) 0.6256(3) 0.58637(15)
C24_2 C 0.4407(4) 0.7364(5) 0.5010(3)
H14_2 H 0.3833 0.7642 0.5115
C25_2 C 0.5221(4) 0.7116(5) 0.5528(2)
H15_2 H 0.5185 0.7215 0.5974
C26_2 C 0.6101(4) 0.6717(4) 0.5387(2)
C27_2 C 0.6116(4) 0.6618(4) 0.4723(2)
H16_2 H 0.6694 0.6382 0.4602
C28_2 C 0.5260(4) 0.6871(4) 0.4226(2)
H17_2 H 0.5284 0.6792 0.3776
C29_2 C 0.6967(4) 0.6452(4) 0.5972(2)
N2_2 N 0.9887(3) 0.6110(3) 0.57565(18)
C30_2 C 0.9413(4) 0.6089(4) 0.5089(2)
H18_2 H 0.8714 0.6017 0.4969
C31_2 C 0.9926(4) 0.6171(3) 0.4585(2)
H19_2 H 0.9583 0.6126 0.4133
O11_2 O 0.8536(2) 0.5524(2) 0.73157(13)
O13_2 O 0.7079(3) 0.1062(2) 0.59309(16)
O29 O 0.9605(3) 0.7227(2) 0.68692(16)
O31 O 0.8356(4) 0.7768(3) 0.7311(3)
H41_2 H 0.768457 0.107555 0.57385
H42_2 H 0.647125 0.0906038 0.55672
C3_2 C 0.8989(4) 0.9815(4) 0.7260(2)
H2_2 H 0.8630 0.9682 0.7587
C4_2 C 0.9347(4) 0.9004(4) 0.6937(3)
C5_2 C 0.9916(5) 0.9209(4) 0.6471(3)
C13_2 C 0.9088(4) 0.7908(4) 0.7052(2)
C55 C 0.9407(4) 0.2636(5) 0.0010(3)
H33 H 0.8833 0.2358 0.0115
C55_2 C 0.0593(4) 0.7364(5) 0.9990(3)
H33_2 H 0.1167 0.7642 0.9885
loop_
_geom_bond_atom_site_label_1
_geom_bond_atom_site_label_2
_geom_bond_site_symmetry_1
_geom_bond_site_symmetry_2
O3 C13 1_555 1_555
O4 C13 1_555 1_555
H2 C3 1_555 1_555
C4 C3 1_555 1_555
C5 C4 1_555 1_555
C13 C4 1_555 1_555
Ni10 O4 1_555 1_555
Ni11 O3 1_555 1_555
Ni10 O7 1_555 1_555
Ni3 O1 1_555 1_555
Ni4 O1 1_555 1_555
O1 C14 1_555 1_555
O2 C14 1_555 1_555
C1 H1 1_555 1_555
C2 C1 1_555 1_555
C14 C2 1_555 1_555
O6 Ni3 1_555 1_555
O7 C29 1_555 1_555
O8 Ni11 1_555 1_555
N1 C24 1_555 1_555
C24 H14 1_555 1_555
C25 C24 1_555 1_555
H15 C25 1_555 1_555
C26 C25 1_555 1_555
C27 C26 1_555 1_555
H16 C27 1_555 1_555
C28 N1 1_555 1_555
H17 C28 1_555 1_555
C29 O8 1_555 1_555
N2 Ni11 1_555 1_555
C30 N2 1_555 1_555
H18 C30 1_555 1_555
C31 C30 1_555 1_555
H19 C31 1_555 1_555
O11 Ni10 1_555 1_555
O12 Ni3 1_555 1_555
O13 Ni4 1_555 1_555
Ni16 O12 1_555 1_555
Ni20 O2 1_555 1_555
Ni22 N1 1_555 1_555
O28 Ni4 1_555 1_555
O32 Ni10 1_555 1_555
O33 Ni10 1_555 1_555
N5 Ni4 1_555 1_555
O34 Ni4 1_555 1_555
O36 Ni11 1_555 1_555
O38 Ni10 1_555 1_555
O40 Ni3 1_555 1_555
Ni11 O11 1_555 1_555
Ni3 O11 1_555 1_555
Ni3 O36 1_555 1_555
Ni4 O12 1_555 1_555
C26 C29 1_555 1_555
C27 C28 1_555 1_555
Ni16 O38 1_555 1_555
Ni16 O40 1_555 1_555
Ni20 O40 1_555 1_555
O13 H41 1_555 1_555
O13 H42 1_555 1_555
H7 C11 1_555 1_555
H8 C12 1_555 1_555
C15 H9 1_555 1_555
C16 C15 1_555 1_555
H10 C16 1_555 1_555
C36 C15 1_555 1_555
H22 C36 1_555 1_555
O18 C53 1_555 1_555
O32 C53 1_555 1_555
H26 C43 1_555 1_555
C44 C43 1_555 1_555
C45 C44 1_555 1_555
H27 C45 1_555 1_555
H31 C51 1_555 1_555
H32 C52 1_555 1_555
C53 C44 1_555 1_555
Ni12 O18 1_555 1_555
C11 C12 1_555 1_555
C51 C52 1_555 1_555
C7 C6 1_555 1_555
C8 C7 1_555 1_555
H4 C8 1_555 1_555
C9 C8 1_555 1_555
H5 C9 1_555 1_555
C10 C9 1_555 1_555
H6 C10 1_555 1_555
O5 C23 1_555 1_555
H11 C17 1_555 1_555
C18 C17 1_555 1_555
C19 C18 1_555 1_555
C20 C19 1_555 1_555
H12 C20 1_555 1_555
C21 C20 1_555 1_555
C22 C21 1_555 1_555
H13 C22 1_555 1_555
O9 C35 1_555 1_555
O10 C35 1_555 1_555
C33 C32 1_555 1_555
H20 C33 1_555 1_555
H21 C34 1_555 1_555
C35 C32 1_555 1_555
O14 C40 1_555 1_555
O15 C40 1_555 1_555
C37 C18 1_555 1_555
H23 C37 1_555 1_555
C38 C19 1_555 1_555
H24 C38 1_555 1_555
C39 C22 1_555 1_555
C40 C39 1_555 1_555
Ni12 O14 1_555 1_555
Ni16 O15 1_555 1_555
Ni20 O16 1_555 1_555
O16 Ni16 1_555 1_555
O28 C54 1_555 1_555
C41 H25 1_555 1_555
C42 C41 1_555 1_555
C46 C41 1_555 1_555
C47 C46 1_555 1_555
C48 C47 1_555 1_555
H28 C48 1_555 1_555
C49 C48 1_555 1_555
C50 C49 1_555 1_555
C54 O16 1_555 1_555
O33 C60 1_555 1_555
O21 Ni12 1_555 1_555
H34 C56 1_555 1_555
C57 C56 1_555 1_555
C60 O21 1_555 1_555
N4 Ni12 1_555 1_555
C61 N4 1_555 1_555
H39 C64 1_555 1_555
C65 N4 1_555 1_555
H40 C65 1_555 1_555
O38 Ni12 1_555 1_555
O26 Ni20 1_555 1_555
Ni13 O10 1_555 1_555
Ni17 O10 1_555 1_555
Ni22 O9 1_555 1_555
N6 Ni20 1_555 1_555
O35 Ni20 1_555 1_555
O37 Ni12 1_555 1_555
C21 C23 1_555 1_555
C33 C34 1_555 1_555
C38 C39 1_555 1_555
Ni16 O37 1_555 1_555
C42 C54 1_555 1_555
C57 C60 1_555 1_555
C64 C65 1_555 1_555
O26 H43 1_555 1_555
O26 H44 1_555 1_555
H35 C58 1_555 1_555
H36 C59 1_555 1_555
O22 C66 1_555 1_555
O23 C66 1_555 1_555
H38 C62 1_555 1_555
C63 C62 1_555 1_555
C66 C63 1_555 1_555
Ni14 O23 1_555 1_555
Ni18 O23 1_555 1_555
Ni24 O22 1_555 1_555
C58 C59 1_555 1_555
Ni24 N3 1_555 1_555
H35_2 C58_2 1_555 1_555
H36_2 C59_2 1_555 1_555
O35 C66_2 1_555 1_555
O37 C66_2 1_555 1_555
H38_2 C62_2 1_555 1_555
C63_2 C62_2 1_555 1_555
C66_2 C63_2 1_555 1_555
C58_2 C59_2 1_555 1_555
C7_2 C6_2 1_555 1_555
C8_2 C7_2 1_555 1_555
H4_2 C8_2 1_555 1_555
C9_2 C8_2 1_555 1_555
H5_2 C9_2 1_555 1_555
C10_2 C9_2 1_555 1_555
H6_2 C10_2 1_555 1_555
O5_2 C23_2 1_555 1_555
H11_2 C17_2 1_555 1_555
C18_2 C17_2 1_555 1_555
C19_2 C18_2 1_555 1_555
C20_2 C19_2 1_555 1_555
H12_2 C20_2 1_555 1_555
C21_2 C20_2 1_555 1_555
C22_2 C21_2 1_555 1_555
H13_2 C22_2 1_555 1_555
O34 C35_2 1_555 1_555
O36 C35_2 1_555 1_555
C33_2 C32_2 1_555 1_555
H20_2 C33_2 1_555 1_555
H21_2 C34_2 1_555 1_555
C35_2 C32_2 1_555 1_555
O14_2 C40_2 1_555 1_555
O15_2 C40_2 1_555 1_555
C37_2 C18_2 1_555 1_555
H23_2 C37_2 1_555 1_555
C38_2 C19_2 1_555 1_555
H24_2 C38_2 1_555 1_555
C39_2 C22_2 1_555 1_555
C40_2 C39_2 1_555 1_555
Ni14 O14_2 1_555 1_555
Ni18 O15_2 1_555 1_555
Ni24 O16_2 1_555 1_555
O16_2 Ni18 1_555 1_555
O17 C54_2 1_555 1_555
C41_2 H25_2 1_555 1_555
C42_2 C41_2 1_555 1_555
C46_2 C41_2 1_555 1_555
C47_2 C46_2 1_555 1_555
C48_2 C47_2 1_555 1_555
H28_2 C48_2 1_555 1_555
C49_2 C48_2 1_555 1_555
C50_2 C49_2 1_555 1_555
C54_2 O16_2 1_555 1_555
O20 C60_2 1_555 1_555
O21_2 Ni14 1_555 1_555
H34_2 C56_2 1_555 1_555
C57_2 C56_2 1_555 1_555
C60_2 O21_2 1_555 1_555
N4_2 Ni14 1_555 1_555
C61_2 N4_2 1_555 1_555
H39_2 C64_2 1_555 1_555
C65_2 N4_2 1_555 1_555
H40_2 C65_2 1_555 1_555
O24 Ni14 1_555 1_555
O25 Ni18 1_555 1_555
O26_2 Ni24 1_555 1_555
Ni8 O20 1_555 1_555
Ni17 O25 1_555 1_555
Ni22 O17 1_555 1_555
O27 Ni24 1_555 1_555
O30 Ni14 1_555 1_555
O39 Ni18 1_555 1_555
C21_2 C23_2 1_555 1_555
C33_2 C34_2 1_555 1_555
C38_2 C39_2 1_555 1_555
Ni18 O24 1_555 1_555
Ni24 O25 1_555 1_555
C42_2 C54_2 1_555 1_555
C57_2 C60_2 1_555 1_555
C64_2 C65_2 1_555 1_555
O24 Ni8 1_555 1_555
Ni17 O39 1_555 1_555
Ni22 O39 1_555 1_555
O26_2 H43_2 1_555 1_555
O26_2 H44_2 1_555 1_555
H7_2 C11_2 1_555 1_555
H8_2 C12_2 1_555 1_555
C15_2 H9_2 1_555 1_555
C16_2 C15_2 1_555 1_555
H10_2 C16_2 1_555 1_555
C36_2 C15_2 1_555 1_555
H22_2 C36_2 1_555 1_555
O30 C53_2 1_555 1_555
O19 C53_2 1_555 1_555
H26_2 C43_2 1_555 1_555
C44_2 C43_2 1_555 1_555
C45_2 C44_2 1_555 1_555
H27_2 C45_2 1_555 1_555
H31_2 C51_2 1_555 1_555
H32_2 C52_2 1_555 1_555
C53_2 C44_2 1_555 1_555
Ni8 O19 1_555 1_555
C11_2 C12_2 1_555 1_555
C51_2 C52_2 1_555 1_555
Ni8 O7_2 1_555 1_555
Ni17 O1_2 1_555 1_555
Ni22 O1_2 1_555 1_555
O1_2 C14_2 1_555 1_555
O27 C14_2 1_555 1_555
C1_2 H1_2 1_555 1_555
C2_2 C1_2 1_555 1_555
C14_2 C2_2 1_555 1_555
O6_2 Ni17 1_555 1_555
O7_2 C29_2 1_555 1_555
O8_2 Ni13 1_555 1_555
N5 C24_2 1_555 1_555
C24_2 H14_2 1_555 1_555
C25_2 C24_2 1_555 1_555
H15_2 C25_2 1_555 1_555
C26_2 C25_2 1_555 1_555
C27_2 C26_2 1_555 1_555
H16_2 C27_2 1_555 1_555
C28_2 N5 1_555 1_555
H17_2 C28_2 1_555 1_555
C29_2 O8_2 1_555 1_555
N2_2 Ni13 1_555 1_555
C30_2 N2_2 1_555 1_555
H18_2 C30_2 1_555 1_555
C31_2 C30_2 1_555 1_555
H19_2 C31_2 1_555 1_555
O11_2 Ni8 1_555 1_555
O13_2 Ni22 1_555 1_555
O29 Ni13 1_555 1_555
O31 Ni8 1_555 1_555
Ni13 O11_2 1_555 1_555
Ni17 O11_2 1_555 1_555
C26_2 C29_2 1_555 1_555
C27_2 C28_2 1_555 1_555
O13_2 H41_2 1_555 1_555
O13_2 H42_2 1_555 1_555
O29 C13_2 1_555 1_555
O31 C13_2 1_555 1_555
H2_2 C3_2 1_555 1_555
C4_2 C3_2 1_555 1_555
C5_2 C4_2 1_555 1_555
C13_2 C4_2 1_555 1_555
C55 H33 1_555 1_555
C55_2 H33_2 1_555 1_555

#END
