
###############################################################################
#
# This file contains modified crystal structure data generated from the
# MOF subset of the Cambridge Structural Database (CSD) v543 
# hosted by the Cambridge Crystallographic Data Centre (CCDC).
#
# This work is licensed under the Creative Commons
# Attribution-NonCommercial-ShareAlike 4.0 International License.
# To view a copy of this license, visit
# http://creativecommons.org/licenses/by-nc-sa/4.0/
# or send a letter to
# Creative Commons, PO Box 1866, Mountain View, CA 94042, USA.
#
# CIF created using the CSD Python API on 29 September 2022
# The structure has been converted into the P1 space group
# The structure has a 3D framework
# The original CSD entry BISRUQ is in the monoclinic crystal system
# The framework has been calculated to contain at least 10.0% void space
# The void calculation uses a probe of radius 1.32A, grid spacing 0.4
#
###############################################################################

data_BISRUQ
_chemical_formula_moiety         '(C76 H108 Ca4 Cu4 N20 O40)n'
_symmetry_cell_setting           triclinic
_symmetry_space_group_name_H-M   'P 1'
_symmetry_Int_Tables_number      1
_space_group_name_Hall           'P 1'
loop_
_symmetry_equiv_pos_site_id
_symmetry_equiv_pos_as_xyz
1 x,y,z
_cell_length_a                   8.643(11)
_cell_length_b                   18.98(2)
_cell_length_c                   17.09(2)
_cell_angle_alpha                90
_cell_angle_beta                 103.490(10)
_cell_angle_gamma                90
_cell_volume                     2726.17
loop_
_atom_site_label
_atom_site_type_symbol
_atom_site_fract_x
_atom_site_fract_y
_atom_site_fract_z
H21 H 0.2496 0.1609 0.0055
Ca3 Ca 0.55684(13) 0.03283(7) 0.11842(8)
Cu1 Cu 0.09787(9) 0.17111(4) 0.79672(5)
N1 N 0.1950(6) 0.2200(3) 0.9040(3)
C1 C 0.0658(8) 0.2485(4) 0.9395(5)
H1 H 0.0097 0.2846 0.9037
H2 H 0.1146 0.2711 0.9901
H4 H 0.0022 0.1557 0.9824
N3 N 0.0103(7) 0.1229(3) 0.6954(3)
C6 C 0.0946(9) 0.1226(4) 0.6398(5)
C7 C 0.2537(9) 0.1510(4) 0.6691(5)
H9 H 0.2920 0.1688 0.6238
H10 H 0.3245 0.1135 0.6938
N4 N 0.2592(6) 0.2086(3) 0.7286(4)
C8 C 0.4223(9) 0.2175(5) 0.7801(6)
H11 H 0.4916 0.2344 0.7469
H12 H 0.4617 0.1718 0.8011
C9 C 0.4327(8) 0.2679(5) 0.8502(6)
H13 H 0.4680 0.3130 0.8340
H14 H 0.5164 0.2508 0.8942
C10 C 0.2861(9) 0.2820(4) 0.8841(5)
H15 H 0.3203 0.3098 0.9327
H16 H 0.2131 0.3109 0.8456
C13 C 0.0237(13) 0.0968(5) 0.5628(6)
H19 H 0.0808 0.0966 0.5229
C14 C 0.3028(8) 0.1724(4) 0.9631(4)
H20 H 0.3982 0.1986 0.9875
C15 C 0.3518(7) 0.1055(3) 0.9306(4)
O1 O 0.4468(5) 0.0676(2) 0.9792(3)
O2 O 0.2975(5) 0.0896(2) 0.8574(3)
H22 H 0.0343 0.0649 0.9112
H23 H 0.0044 0.0317 0.8256
C18 C 0.1995(8) 0.2757(4) 0.6857(5)
H24 H 0.1969 0.2697 0.6291
H25 H 0.2758 0.3127 0.7061
C19 C 0.0363(8) 0.3005(4) 0.6931(4)
Ca4 Ca 0.05684(13) 0.46717(7) 0.61842(8)
O12 O 0.6934(5) 0.0195(3) 0.8820(3)
O11 O 0.5532(5) 0.9324(2) 0.0208(3)
Ca1 Ca 0.44316(13) 0.96717(7) 0.88158(8)
O7 O 0.2292(5) 0.9290(3) 0.9408(3)
H26 H 0.145(5) 0.905(3) 0.923(3)
H27 H 0.226(7) 0.946(4) 0.987(2)
N5 N 0.2704(16) 0.9609(4) 0.7121(5)
O8 O 0.4077(11) 0.9877(4) 0.7320(5)
O9 O 0.2030(8) 0.9427(4) 0.7659(5)
O10 O 0.2006(16) 0.9547(5) 0.6414(5)
O13 O 0.5123(5) 0.8551(3) 0.8463(3)
C2 C 0.9455(8) 0.1960(4) 0.9547(5)
H3 H 0.8869 0.2173 0.9905
C3 C 0.8271(8) 0.1699(4) 0.8803(4)
H5 H 0.7436 0.1442 0.8972
H6 H 0.7783 0.2104 0.8496
N2 N 0.8942(6) 0.1241(3) 0.8268(3)
C4 C 0.7776(8) 0.1134(4) 0.7475(4)
H7 H 0.7098 0.0735 0.7516
H8 H 0.7105 0.1548 0.7350
C5 C 0.8584(9) 0.1007(4) 0.6815(5)
C11 C 0.7822(12) 0.0754(5) 0.6061(6)
H17 H 0.6763 0.0612 0.5957
C12 C 0.8680(14) 0.0715(6) 0.5459(6)
H18 H 0.8219 0.0525 0.4957
C16 C 0.9525(7) 0.0552(3) 0.8630(4)
C17 C 0.8344(8) 0.0009(4) 0.8865(4)
O5 O 0.9877(5) 0.3551(3) 0.6537(3)
O6 O 0.9644(5) 0.2683(2) 0.7382(3)
O3 O 0.8982(5) 0.9432(3) 0.9104(3)
H14_2 H 0.0164 0.2492 0.3942
O11_2 O 0.0532(5) 0.5676(2) 0.5208(3)
O12_2 O 0.1934(5) 0.4805(3) 0.3820(3)
O13_2 O 0.0123(5) 0.6449(3) 0.3463(3)
Cu1_2 Cu 0.59787(9) 0.32889(4) 0.29672(5)
N1_2 N 0.6950(6) 0.2800(3) 0.4040(3)
C1_2 C 0.5658(8) 0.2515(4) 0.4395(5)
H1_2 H 0.5097 0.2154 0.4037
H2_2 H 0.6146 0.2289 0.4901
C2_2 C 0.4455(8) 0.3040(4) 0.4547(5)
H3_2 H 0.3869 0.2827 0.4905
H4_2 H 0.5022 0.3443 0.4824
C3_2 C 0.3271(8) 0.3301(4) 0.3803(4)
H5_2 H 0.2436 0.3558 0.3972
H6_2 H 0.2783 0.2896 0.3496
N2_2 N 0.3942(6) 0.3759(3) 0.3268(3)
C4_2 C 0.2776(8) 0.3866(4) 0.2475(4)
H7_2 H 0.2098 0.4265 0.2516
H8_2 H 0.2105 0.3452 0.2350
C5_2 C 0.3584(9) 0.3993(4) 0.1815(5)
N3_2 N 0.5103(7) 0.3771(3) 0.1954(3)
C6_2 C 0.5946(9) 0.3774(4) 0.1398(5)
C7_2 C 0.7537(9) 0.3490(4) 0.1691(5)
H9_2 H 0.7920 0.3312 0.1238
H10_2 H 0.8245 0.3865 0.1938
N4_2 N 0.7592(6) 0.2914(3) 0.2286(4)
C8_2 C 0.9223(9) 0.2825(5) 0.2801(6)
H11_2 H 0.9916 0.2656 0.2469
H12_2 H 0.9617 0.3282 0.3011
C9_2 C 0.9327(8) 0.2321(5) 0.3502(6)
H13_2 H 0.9680 0.1870 0.3340
C10_2 C 0.7861(9) 0.2180(4) 0.3841(5)
H15_2 H 0.8203 0.1902 0.4327
H16_2 H 0.7131 0.1891 0.3456
C11_2 C 0.2822(12) 0.4246(5) 0.1061(6)
H17_2 H 0.1763 0.4388 0.0957
C12_2 C 0.3680(14) 0.4285(6) 0.0459(6)
C13_2 C 0.5237(13) 0.4032(5) 0.0628(6)
H19_2 H 0.5808 0.4034 0.0229
C14_2 C 0.8028(8) 0.3276(4) 0.4631(4)
H20_2 H 0.8982 0.3014 0.4875
H21_2 H 0.7496 0.3391 0.5055
C15_2 C 0.8518(7) 0.3945(3) 0.4306(4)
O1_2 O 0.9468(5) 0.4324(2) 0.4792(3)
O2_2 O 0.7975(5) 0.4104(2) 0.3574(3)
C16_2 C 0.4525(7) 0.4448(3) 0.3630(4)
H22_2 H 0.5343 0.4351 0.4112
H23_2 H 0.5044 0.4683 0.3256
C17_2 C 0.3344(8) 0.4991(4) 0.3865(4)
O3_2 O 0.3982(5) 0.5568(3) 0.4104(3)
C18_2 C 0.6995(8) 0.2243(4) 0.1857(5)
H24_2 H 0.6969 0.2303 0.1291
H25_2 H 0.7758 0.1873 0.2061
C19_2 C 0.5363(8) 0.1995(4) 0.1931(4)
O5_2 O 0.4877(5) 0.1449(3) 0.1537(3)
O6_2 O 0.4644(5) 0.2317(2) 0.2382(3)
Ca1_2 Ca 0.94316(13) 0.53283(7) 0.38158(8)
O7_2 O 0.7292(5) 0.5710(3) 0.4408(3)
H26_2 H 0.645(5) 0.595(3) 0.423(3)
H27_2 H 0.726(7) 0.554(4) 0.487(2)
N5_2 N 0.7704(16) 0.5391(4) 0.2121(5)
O8_2 O 0.9077(11) 0.5123(4) 0.2320(5)
O9_2 O 0.7030(8) 0.5573(4) 0.2659(5)
O10_2 O 0.7006(16) 0.5453(5) 0.1414(5)
O3_3 O 0.1018(5) 0.0568(3) 0.0896(3)
C2_3 C 0.0545(8) 0.8040(4) 0.0453(5)
H3_3 H 0.1131 0.7827 0.0095
C3_3 C 0.1729(8) 0.8301(4) 0.1197(4)
H5_3 H 0.2564 0.8558 0.1028
H6_3 H 0.2217 0.7896 0.1504
N2_3 N 0.1058(6) 0.8759(3) 0.1732(3)
C4_3 C 0.2224(8) 0.8866(4) 0.2525(4)
H7_3 H 0.2902 0.9265 0.2484
H8_3 H 0.2895 0.8452 0.2650
C5_3 C 0.1416(9) 0.8993(4) 0.3185(5)
C11_3 C 0.2178(12) 0.9246(5) 0.3939(6)
H17_3 H 0.3237 0.9388 0.4043
C12_3 C 0.1320(14) 0.9285(6) 0.4541(6)
H18_2 H 0.1781 0.9475 0.5043
C16_3 C 0.0475(7) 0.9448(3) 0.1370(4)
C17_3 C 0.1656(8) 0.9991(4) 0.1135(4)
O4 O 0.3066(5) 0.9805(3) 0.1180(3)
O6_3 O 0.0356(5) 0.7317(2) 0.2618(3)
O7_3 O 0.7708(5) 0.0710(3) 0.0592(3)
H26_3 H 0.855(5) 0.095(3) 0.077(3)
H27_3 H 0.774(7) 0.054(4) 0.013(2)
N5_3 N 0.7296(16) 0.0391(4) 0.2879(5)
O8_3 O 0.5923(11) 0.0123(4) 0.2680(5)
O9_3 O 0.7970(8) 0.0573(4) 0.2341(5)
O10_3 O 0.7994(16) 0.0453(5) 0.3586(5)
Cu1_3 Cu 0.90213(9) 0.82889(4) 0.20328(5)
N1_3 N 0.8050(6) 0.7800(3) 0.0960(3)
C1_3 C 0.9342(8) 0.7515(4) 0.0605(5)
H1_3 H 0.9903 0.7154 0.0963
H2_3 H 0.8854 0.7289 0.0099
H4_3 H 0.9978 0.8443 0.0176
N3_3 N 0.9897(7) 0.8771(3) 0.3046(3)
C6_3 C 0.9054(9) 0.8774(4) 0.3602(5)
C7_3 C 0.7463(9) 0.8490(4) 0.3309(5)
H9_3 H 0.7080 0.8312 0.3762
H10_3 H 0.6755 0.8865 0.3062
N4_3 N 0.7408(6) 0.7914(3) 0.2714(4)
C8_3 C 0.5777(9) 0.7825(5) 0.2199(6)
H11_3 H 0.5084 0.7656 0.2531
H12_3 H 0.5383 0.8282 0.1989
C9_3 C 0.5673(8) 0.7321(5) 0.1498(6)
H13_3 H 0.5320 0.6870 0.1660
H14_3 H 0.4836 0.7492 0.1058
C10_3 C 0.7139(9) 0.7180(4) 0.1159(5)
H15_3 H 0.6797 0.6902 0.0673
H16_3 H 0.7869 0.6891 0.1544
C13_3 C 0.9763(13) 0.9032(5) 0.4372(6)
H19_3 H 0.9192 0.9034 0.4771
C14_3 C 0.6972(8) 0.8276(4) 0.0369(4)
H20_3 H 0.6018 0.8014 0.0125
C15_3 C 0.6482(7) 0.8945(3) 0.0694(4)
O2_3 O 0.7025(5) 0.9104(2) 0.1426(3)
H22_3 H 0.9657 0.9351 0.0888
H23_3 H 0.9956 0.9683 0.1744
C18_3 C 0.8005(8) 0.7243(4) 0.3143(5)
H24_3 H 0.8031 0.7303 0.3709
H25_3 H 0.7242 0.6873 0.2939
C19_3 C 0.9637(8) 0.6995(4) 0.3069(4)
H21_3 H 0.7504 0.8391 0.9945
Cu1_4 Cu 0.40213(9) 0.67111(4) 0.70328(5)
N1_4 N 0.3050(6) 0.7200(3) 0.5960(3)
C1_4 C 0.4342(8) 0.7485(4) 0.5605(5)
H1_4 H 0.4903 0.7846 0.5963
H2_4 H 0.3854 0.7711 0.5099
C2_4 C 0.5545(8) 0.6960(4) 0.5453(5)
H3_4 H 0.6131 0.7173 0.5095
H4_4 H 0.4978 0.6557 0.5176
C3_4 C 0.6729(8) 0.6699(4) 0.6197(4)
H5_4 H 0.7564 0.6442 0.6028
H6_4 H 0.7217 0.7104 0.6504
N2_4 N 0.6058(6) 0.6241(3) 0.6732(3)
C4_4 C 0.7224(8) 0.6134(4) 0.7525(4)
H7_4 H 0.7902 0.5735 0.7484
H8_4 H 0.7895 0.6548 0.7650
C5_4 C 0.6416(9) 0.6007(4) 0.8185(5)
N3_4 N 0.4897(7) 0.6229(3) 0.8046(3)
C6_4 C 0.4054(9) 0.6226(4) 0.8602(5)
C7_4 C 0.2463(9) 0.6510(4) 0.8309(5)
H9_4 H 0.2080 0.6688 0.8762
H10_4 H 0.1755 0.6135 0.8062
N4_4 N 0.2408(6) 0.7086(3) 0.7714(4)
C8_4 C 0.0777(9) 0.7175(5) 0.7199(6)
H11_4 H 0.0084 0.7344 0.7531
H12_4 H 0.0383 0.6718 0.6989
C9_4 C 0.0673(8) 0.7679(5) 0.6498(6)
H13_4 H 0.0320 0.8130 0.6660
C10_4 C 0.2139(9) 0.7820(4) 0.6159(5)
H15_4 H 0.1797 0.8098 0.5673
H16_4 H 0.2869 0.8109 0.6544
C11_4 C 0.7178(12) 0.5754(5) 0.8939(6)
H17_4 H 0.8237 0.5612 0.9043
C12_4 C 0.6320(14) 0.5715(6) 0.9541(6)
C13_4 C 0.4763(13) 0.5968(5) 0.9372(6)
H19_4 H 0.4192 0.5966 0.9771
C14_4 C 0.1972(8) 0.6724(4) 0.5369(4)
H20_4 H 0.1018 0.6986 0.5125
H21_4 H 0.2504 0.6609 0.4945
C15_4 C 0.1482(7) 0.6055(3) 0.5694(4)
O2_4 O 0.2025(5) 0.5896(2) 0.6426(3)
C16_4 C 0.5475(7) 0.5552(3) 0.6370(4)
H22_4 H 0.4657 0.5649 0.5888
H23_4 H 0.4956 0.5317 0.6744
C17_4 C 0.6656(8) 0.5009(4) 0.6135(4)
O3_4 O 0.6018(5) 0.4432(3) 0.5896(3)
O4_2 O 0.8066(5) 0.5195(3) 0.6180(3)
C18_4 C 0.3005(8) 0.7757(4) 0.8143(5)
H24_4 H 0.3031 0.7697 0.8709
H25_4 H 0.2242 0.8127 0.7939
C19_4 C 0.4637(8) 0.8005(4) 0.8069(4)
O6_4 O 0.5356(5) 0.7683(2) 0.7618(3)
O7_4 O 0.2708(5) 0.4290(3) 0.5592(3)
H26_4 H 0.355(5) 0.405(3) 0.577(3)
H27_4 H 0.274(7) 0.446(4) 0.513(2)
N5_4 N 0.2296(16) 0.4609(4) 0.7879(5)
O8_4 O 0.0923(11) 0.4877(4) 0.7680(5)
O9_4 O 0.2970(8) 0.4427(4) 0.7341(5)
O10_4 O 0.2994(16) 0.4547(5) 0.8586(5)
H14_4 H 0.9836 0.7508 0.6058
H18_3 H 0.3219 0.4475 0.9957
H18_4 H 0.6781 0.5525 0.0043
loop_
_geom_bond_atom_site_label_1
_geom_bond_atom_site_label_2
_geom_bond_site_symmetry_1
_geom_bond_site_symmetry_2
Cu1 N1 1_555 1_555
N1 C1 1_555 1_555
C1 H1 1_555 1_555
H2 C1 1_555 1_555
N3 Cu1 1_555 1_555
C6 N3 1_555 1_555
C7 C6 1_555 1_555
H9 C7 1_555 1_555
H10 C7 1_555 1_555
N4 Cu1 1_555 1_555
C8 N4 1_555 1_555
H11 C8 1_555 1_555
H12 C8 1_555 1_555
C9 C8 1_555 1_555
H13 C9 1_555 1_555
H14 C9 1_555 1_555
C10 N1 1_555 1_555
H15 C10 1_555 1_555
H16 C10 1_555 1_555
C13 C6 1_555 1_555
H19 C13 1_555 1_555
C14 N1 1_555 1_555
H20 C14 1_555 1_555
C15 C14 1_555 1_555
O1 C15 1_555 1_555
O2 Cu1 1_555 1_555
C18 N4 1_555 1_555
H24 C18 1_555 1_555
H25 C18 1_555 1_555
C19 C18 1_555 1_555
C7 N4 1_555 1_555
C9 C10 1_555 1_555
C15 O2 1_555 1_555
O7 Ca1 1_555 1_555
H26 O7 1_555 1_555
H27 O7 1_555 1_555
N5 O8 1_555 1_555
O8 Ca1 1_555 1_555
O9 Ca1 1_555 1_555
O10 N5 1_555 1_555
O13 Ca1 1_555 1_555
N5 O9 1_555 1_555
H3 C2 1_555 1_555
C3 C2 1_555 1_555
H5 C3 1_555 1_555
H6 C3 1_555 1_555
C4 N2 1_555 1_555
H7 C4 1_555 1_555
H8 C4 1_555 1_555
C5 C4 1_555 1_555
C11 C5 1_555 1_555
H17 C11 1_555 1_555
C12 C11 1_555 1_555
H18 C12 1_555 1_555
C16 N2 1_555 1_555
C17 C16 1_555 1_555
O12 C17 1_555 1_555
C3 N2 1_555 1_555
Ca4 O11_2 1_555 1_555
Cu1_2 N1_2 1_555 1_555
N1_2 C1_2 1_555 1_555
C1_2 H1_2 1_555 1_555
H2_2 C1_2 1_555 1_555
C2_2 C1_2 1_555 1_555
H3_2 C2_2 1_555 1_555
H4_2 C2_2 1_555 1_555
C3_2 C2_2 1_555 1_555
H5_2 C3_2 1_555 1_555
H6_2 C3_2 1_555 1_555
N2_2 Cu1_2 1_555 1_555
C4_2 N2_2 1_555 1_555
H7_2 C4_2 1_555 1_555
H8_2 C4_2 1_555 1_555
C5_2 C4_2 1_555 1_555
N3_2 Cu1_2 1_555 1_555
C6_2 N3_2 1_555 1_555
C7_2 C6_2 1_555 1_555
H9_2 C7_2 1_555 1_555
H10_2 C7_2 1_555 1_555
N4_2 Cu1_2 1_555 1_555
C8_2 N4_2 1_555 1_555
H11_2 C8_2 1_555 1_555
H12_2 C8_2 1_555 1_555
C9_2 C8_2 1_555 1_555
H13_2 C9_2 1_555 1_555
C10_2 N1_2 1_555 1_555
H15_2 C10_2 1_555 1_555
H16_2 C10_2 1_555 1_555
C11_2 C5_2 1_555 1_555
H17_2 C11_2 1_555 1_555
C12_2 C11_2 1_555 1_555
C13_2 C6_2 1_555 1_555
H19_2 C13_2 1_555 1_555
C14_2 N1_2 1_555 1_555
H20_2 C14_2 1_555 1_555
H21_2 C14_2 1_555 1_555
C15_2 C14_2 1_555 1_555
O1_2 C15_2 1_555 1_555
O2_2 Cu1_2 1_555 1_555
C16_2 N2_2 1_555 1_555
H22_2 C16_2 1_555 1_555
H23_2 C16_2 1_555 1_555
C17_2 C16_2 1_555 1_555
O3_2 C17_2 1_555 1_555
O12_2 C17_2 1_555 1_555
C18_2 N4_2 1_555 1_555
H24_2 C18_2 1_555 1_555
H25_2 C18_2 1_555 1_555
C19_2 C18_2 1_555 1_555
O5_2 C19_2 1_555 1_555
O6_2 Cu1_2 1_555 1_555
Ca1_2 O1_2 1_555 1_555
O7_2 Ca1_2 1_555 1_555
H26_2 O7_2 1_555 1_555
H27_2 O7_2 1_555 1_555
N5_2 O8_2 1_555 1_555
O8_2 Ca1_2 1_555 1_555
O9_2 Ca1_2 1_555 1_555
O10_2 N5_2 1_555 1_555
Ca3 O5_2 1_555 1_555
C3_2 N2_2 1_555 1_555
C5_2 N3_2 1_555 1_555
C7_2 N4_2 1_555 1_555
C9_2 C10_2 1_555 1_555
C12_2 C13_2 1_555 1_555
C15_2 O2_2 1_555 1_555
O2_2 Ca1_2 1_555 1_555
C19_2 O6_2 1_555 1_555
N5_2 O9_2 1_555 1_555
H3_3 C2_3 1_555 1_555
C3_3 C2_3 1_555 1_555
H5_3 C3_3 1_555 1_555
H6_3 C3_3 1_555 1_555
C4_3 N2_3 1_555 1_555
H7_3 C4_3 1_555 1_555
H8_3 C4_3 1_555 1_555
C5_3 C4_3 1_555 1_555
C11_3 C5_3 1_555 1_555
H17_3 C11_3 1_555 1_555
C12_3 C11_3 1_555 1_555
H18_2 C12_3 1_555 1_555
C16_3 N2_3 1_555 1_555
C17_3 C16_3 1_555 1_555
O4 C17_3 1_555 1_555
C3_3 N2_3 1_555 1_555
O7_3 Ca3 1_555 1_555
H26_3 O7_3 1_555 1_555
H27_3 O7_3 1_555 1_555
N5_3 O8_3 1_555 1_555
O8_3 Ca3 1_555 1_555
O9_3 Ca3 1_555 1_555
O10_3 N5_3 1_555 1_555
N5_3 O9_3 1_555 1_555
Cu1_3 N1_3 1_555 1_555
N1_3 C1_3 1_555 1_555
C1_3 H1_3 1_555 1_555
H2_3 C1_3 1_555 1_555
N3_3 Cu1_3 1_555 1_555
C6_3 N3_3 1_555 1_555
C7_3 C6_3 1_555 1_555
H9_3 C7_3 1_555 1_555
H10_3 C7_3 1_555 1_555
N4_3 Cu1_3 1_555 1_555
C8_3 N4_3 1_555 1_555
H11_3 C8_3 1_555 1_555
H12_3 C8_3 1_555 1_555
C9_3 C8_3 1_555 1_555
H13_3 C9_3 1_555 1_555
H14_3 C9_3 1_555 1_555
C10_3 N1_3 1_555 1_555
H15_3 C10_3 1_555 1_555
H16_3 C10_3 1_555 1_555
C13_3 C6_3 1_555 1_555
H19_3 C13_3 1_555 1_555
C14_3 N1_3 1_555 1_555
H20_3 C14_3 1_555 1_555
C15_3 C14_3 1_555 1_555
O11 C15_3 1_555 1_555
O2_3 Cu1_3 1_555 1_555
C18_3 N4_3 1_555 1_555
H24_3 C18_3 1_555 1_555
H25_3 C18_3 1_555 1_555
C19_3 C18_3 1_555 1_555
C7_3 N4_3 1_555 1_555
C9_3 C10_3 1_555 1_555
C15_3 O2_3 1_555 1_555
Cu1_4 N1_4 1_555 1_555
N1_4 C1_4 1_555 1_555
C1_4 H1_4 1_555 1_555
H2_4 C1_4 1_555 1_555
C2_4 C1_4 1_555 1_555
H3_4 C2_4 1_555 1_555
H4_4 C2_4 1_555 1_555
C3_4 C2_4 1_555 1_555
H5_4 C3_4 1_555 1_555
H6_4 C3_4 1_555 1_555
N2_4 Cu1_4 1_555 1_555
C4_4 N2_4 1_555 1_555
H7_4 C4_4 1_555 1_555
H8_4 C4_4 1_555 1_555
C5_4 C4_4 1_555 1_555
N3_4 Cu1_4 1_555 1_555
C6_4 N3_4 1_555 1_555
C7_4 C6_4 1_555 1_555
H9_4 C7_4 1_555 1_555
H10_4 C7_4 1_555 1_555
N4_4 Cu1_4 1_555 1_555
C8_4 N4_4 1_555 1_555
H11_4 C8_4 1_555 1_555
H12_4 C8_4 1_555 1_555
C9_4 C8_4 1_555 1_555
H13_4 C9_4 1_555 1_555
C10_4 N1_4 1_555 1_555
H15_4 C10_4 1_555 1_555
H16_4 C10_4 1_555 1_555
C11_4 C5_4 1_555 1_555
H17_4 C11_4 1_555 1_555
C12_4 C11_4 1_555 1_555
C13_4 C6_4 1_555 1_555
H19_4 C13_4 1_555 1_555
C14_4 N1_4 1_555 1_555
H20_4 C14_4 1_555 1_555
H21_4 C14_4 1_555 1_555
C15_4 C14_4 1_555 1_555
O11_2 C15_4 1_555 1_555
O2_4 Cu1_4 1_555 1_555
C16_4 N2_4 1_555 1_555
H22_4 C16_4 1_555 1_555
H23_4 C16_4 1_555 1_555
C17_4 C16_4 1_555 1_555
O3_4 C17_4 1_555 1_555
O4_2 C17_4 1_555 1_555
C18_4 N4_4 1_555 1_555
H24_4 C18_4 1_555 1_555
H25_4 C18_4 1_555 1_555
C19_4 C18_4 1_555 1_555
O13 C19_4 1_555 1_555
O6_4 Cu1_4 1_555 1_555
O7_4 Ca4 1_555 1_555
H26_4 O7_4 1_555 1_555
H27_4 O7_4 1_555 1_555
N5_4 O8_4 1_555 1_555
O8_4 Ca4 1_555 1_555
O9_4 Ca4 1_555 1_555
O10_4 N5_4 1_555 1_555
C3_4 N2_4 1_555 1_555
C5_4 N3_4 1_555 1_555
C7_4 N4_4 1_555 1_555
C9_4 C10_4 1_555 1_555
C12_4 C13_4 1_555 1_555
C15_4 O2_4 1_555 1_555
O2_4 Ca4 1_555 1_555
C19_4 O6_4 1_555 1_555
N5_4 O9_4 1_555 1_555

#END
