
###############################################################################
#
# This file contains modified crystal structure data generated from the
# MOF subset of the Cambridge Structural Database (CSD) v543 
# hosted by the Cambridge Crystallographic Data Centre (CCDC).
#
# This work is licensed under the Creative Commons
# Attribution-NonCommercial-ShareAlike 4.0 International License.
# To view a copy of this license, visit
# http://creativecommons.org/licenses/by-nc-sa/4.0/
# or send a letter to
# Creative Commons, PO Box 1866, Mountain View, CA 94042, USA.
#
# CIF created using the CSD Python API on 29 September 2022
# The structure has been converted into the P1 space group
# The structure has a 3D framework
# The original CSD entry BIVXEK is in the triclinic crystal system
# The framework has been calculated to contain at least 10.0% void space
# The void calculation uses a probe of radius 1.32A, grid spacing 0.4
# H atom positions have been added when not included in the experimental data
#
###############################################################################

data_BIVXEK
_chemical_formula_moiety         '(C34 H30 Co3 N10 O10)n'
_symmetry_cell_setting           triclinic
_symmetry_space_group_name_H-M   'P 1'
_symmetry_Int_Tables_number      1
_space_group_name_Hall           'P 1'
loop_
_symmetry_equiv_pos_site_id
_symmetry_equiv_pos_as_xyz
1 x,y,z
_cell_length_a                   6.716(4)
_cell_length_b                   11.927(6)
_cell_length_c                   13.137(7)
_cell_angle_alpha                82.911(10)
_cell_angle_beta                 83.696(9)
_cell_angle_gamma                87.902(10)
_cell_volume                     1037.65
loop_
_atom_site_label
_atom_site_type_symbol
_atom_site_fract_x
_atom_site_fract_y
_atom_site_fract_z
_atom_site_U_iso_or_equiv
_atom_site_thermal_displace_type
Co3 Co 0.2219(2) 0.34631(12) 0.33128(11) 0.0133 Uani
N8 N 0.1282(14) 0.3368(8) 0.1787(7) 0.0205 Uani
N11 N 0.3572(14) 0.1798(8) 0.3315(7) 0.0186 Uani
O11 O 0.4827(11) 0.4199(6) 0.2551(6) 0.0180 Uani
O12 O 0.0760(13) 0.5085(7) 0.3350(6) 0.0251 Uani
H14 H 0.0260 0.5266 0.2810 0.0380 Uiso
N14 N 0.3070(13) 0.3654(8) 0.4802(7) 0.0181 Uani
H28 H 0.175506 0.565368 0.34331 . .
C4 C 0.5126(19) 0.1608(11) 0.2643(11) 0.0306 Uani
H4 H 0.5583 0.2206 0.2161 0.0370 Uiso
C9 C 0.6100(18) 0.0582(9) 0.2614(10) 0.0279 Uani
H7 H 0.7235 0.0504 0.2152 0.0340 Uiso
C11 C 0.2880(16) 0.0920(9) 0.3980(8) 0.0170 Uiso
H9 H 0.1806 0.1050 0.4465 0.0200 Uiso
C17 C 0.2103(17) 0.4009(9) 0.0963(9) 0.0204 Uani
H15 H 0.2970 0.4568 0.1058 0.0240 Uiso
C21 C -0.0001(18) 0.2578(11) 0.1661(10) 0.0260 Uiso
Co1 Co 0.5000 0.5000 0.5000 0.0164 Uani
O1 O 0.0456(11) 0.7311(7) 0.6016(6) 0.0189 Uani
O2 O 0.2309(12) 0.5946(7) 0.5370(7) 0.0265 Uani
O3 O 0.5079(12) 0.5619(7) 0.3485(6) 0.0236 Uani
C2 C 0.5488(17) 0.5113(10) 0.2689(9) 0.0208 Uani
N3 N 0.6930(13) 0.6346(8) 0.5198(7) 0.0181 Uani
C3 C 0.2673(15) 0.8871(9) 0.4706(8) 0.0155 Uani
H3 H 0.1714 0.9074 0.5221 0.0190 Uiso
C6 C 0.8266(16) 0.6113(9) 0.0024(8) 0.0156 Uani
C8 C 0.1851(16) 0.6982(9) 0.5400(9) 0.0166 Uani
C10 C 0.967(2) 0.6900(11) 0.0162(9) 0.0305 Uani
H8 H 0.9993 0.6980 0.0820 0.0370 Uiso
C12 C 0.5380(19) 0.9667(11) 0.3277(10) 0.0280 Uiso
H10 H 0.5993 0.8956 0.3262 0.0340 Uiso
C13 C 0.2992(16) 0.7836(9) 0.4688(9) 0.0198 Uani
H11 H 0.3986 0.7596 0.4207 0.0240 Uiso
C14 C 0.3663(16) 0.9844(9) 0.3987(10) 0.0206 Uani
N4 N 0.7743(14) 0.6905(9) 0.4455(7) 0.0207 Uani
N5 N 0.8540(16) 0.7415(10) 0.3735(8) 0.0318 Uani
C15 C 0.6861(19) 0.5724(11) 0.1841(11) 0.0317 Uani
H12 H 0.7537 0.6341 0.1991 0.0380 Uiso
C16 C 0.7152(16) 0.5461(9) 0.0956(9) 0.0163 Uani
H13 H 0.6621 0.4780 0.0853 0.0200 Uiso
Co7 Co 0.7781(2) 0.65369(12) 0.66872(11) 0.0133 Uani
O6 O 0.9544(11) 0.2689(7) 0.3984(6) 0.0189 Uani
O7 O 0.7691(12) 0.4054(7) 0.4630(7) 0.0265 Uani
O8 O 0.4921(12) 0.4381(7) 0.6515(6) 0.0236 Uani
O9 O 0.5173(11) 0.5801(6) 0.7449(6) 0.0180 Uani
C18 C 0.4512(17) 0.4887(10) 0.7311(9) 0.0208 Uani
C19 C 0.7327(15) 0.1129(9) 0.5294(8) 0.0155 Uani
H16 H 0.8286 0.0926 0.4779 0.0190 Uiso
C22 C 0.1734(16) 0.3887(9) 0.9976(8) 0.0156 Uani
C24 C 0.8149(16) 0.3018(9) 0.4600(9) 0.0166 Uani
C26 C 0.033(2) 0.3100(11) 0.9838(9) 0.0305 Uani
H21 H 0.0007 0.3020 0.9180 0.0370 Uiso
C28 C 0.4620(19) 0.0333(11) 0.6723(10) 0.0280 Uiso
H23 H 0.4007 0.1044 0.6738 0.0340 Uiso
C29 C 0.7008(16) 0.2164(9) 0.5312(9) 0.0198 Uani
H24 H 0.6014 0.2404 0.5793 0.0240 Uiso
C30 C 0.6337(16) 0.0156(9) 0.6013(10) 0.0206 Uani
N15 N 0.2257(14) 0.3095(9) 0.5545(7) 0.0207 Uani
N16 N 0.1460(16) 0.2585(10) 0.6265(8) 0.0318 Uani
C31 C 0.3139(19) 0.4276(11) 0.8159(11) 0.0317 Uani
H25 H 0.2463 0.3659 0.8009 0.0380 Uiso
C32 C 0.2848(16) 0.4539(9) 0.9044(9) 0.0163 Uani
H26 H 0.3379 0.5220 0.9147 0.0200 Uiso
H27 H 0.0306456 0.494977 0.606096 . .
N1 N 0.8718(14) 0.6632(8) 0.8213(7) 0.0205 Uani
C1 C 0.7897(17) 0.5991(9) 0.9037(9) 0.0204 Uani
H2 H 0.7030 0.5432 0.8942 0.0240 Uiso
C5 C 1.0001(18) 0.7422(11) 0.8339(10) 0.0260 Uiso
N9 N 0.6428(14) 0.8202(8) 0.6685(7) 0.0186 Uani
C20 C 0.4874(19) 0.8392(11) 0.7357(11) 0.0306 Uani
H17 H 0.4417 0.7794 0.7839 0.0370 Uiso
C25 C 0.3900(18) 0.9418(9) 0.7386(10) 0.0279 Uani
H20 H 0.2765 0.9496 0.7848 0.0340 Uiso
C27 C 0.7120(16) 0.9080(9) 0.6020(8) 0.0170 Uiso
H22 H 0.8194 0.8950 0.5535 0.0200 Uiso
O5 O 0.9240(13) 0.4915(7) 0.6650(6) 0.0251 Uani
H1 H 0.9740 0.4734 0.7190 0.0380 Uiso
H27_2 H 0.969354 0.505023 0.393904 . .
H28_2 H 0.824494 0.434632 0.65669 . .
C5_2 C 0.0001(18) 0.7422(11) 0.8339(10) 0.0260 Uiso
H5 H 0.0519 0.7896 0.7762 0.0310 Uiso
C7 C 0.060(2) 0.7569(13) 0.9299(9) 0.0409 Uani
H6 H 0.1563 0.8088 0.9362 0.0490 Uiso
C21_2 C 0.9999(18) 0.2578(11) 0.1661(10) 0.0260 Uiso
H18 H 0.9481 0.2104 0.2238 0.0310 Uiso
C23 C 0.940(2) 0.2431(13) 0.0701(9) 0.0409 Uani
H19 H 0.8437 0.1912 0.0638 0.0490 Uiso
loop_
_atom_site_aniso_label
_atom_site_aniso_U_11
_atom_site_aniso_U_22
_atom_site_aniso_U_33
_atom_site_aniso_U_23
_atom_site_aniso_U_13
_atom_site_aniso_U_12
Co3 0.0127 0.0121 0.0137 0.0023 0.0012 -0.0005
N8 0.014 0.027 0.021 0.001 -0.005 -0.009
N11 0.017 0.018 0.019 0.001 0.005 -0.006
O11 0.022 0.013 0.018 0 0.002 -0.005
O12 0.028 0.018 0.027 0.003 -0.001 0.004
N14 0.016 0.02 0.018 0.003 -0.005 -0.003
C4 0.027 0.022 0.039 -0.005 0.015 -0.002
C9 0.023 0.011 0.042 0.002 0.024 0.002
C17 0.022 0.013 0.025 -0.001 0.001 0
Co1 0.014 0.0161 0.0184 -0.0012 0.0006 -0.0008
O1 0.015 0.024 0.017 -0.004 0.003 -0.001
O2 0.012 0.017 0.046 0.001 0.011 0.001
O3 0.024 0.025 0.02 -0.001 0.005 -0.003
C2 0.019 0.019 0.022 0.008 -0.003 0
N3 0.016 0.02 0.018 0.003 -0.005 -0.003
C3 0.009 0.027 0.005 0.01 0.005 0.015
C6 0.012 0.019 0.013 0.006 0.002 0
C8 0.018 0.008 0.022 -0.001 0.008 -0.008
C10 0.042 0.041 0.009 -0.005 -0.001 -0.007
C13 0.012 0.016 0.028 0.004 0.008 -0.007
C14 0.011 0.012 0.038 0 -0.001 -0.003
N4 0.017 0.031 0.014 -0.004 -0.002 0.007
N5 0.024 0.043 0.025 0.005 0.005 -0.009
C15 0.024 0.026 0.044 0 0.001 -0.014
C16 0.01 0.013 0.026 0.001 -0.004 -0.007
Co7 0.0127 0.0121 0.0137 0.0023 0.0012 -0.0005
O6 0.015 0.024 0.017 -0.004 0.003 -0.001
O7 0.012 0.017 0.046 0.001 0.011 0.001
O8 0.024 0.025 0.02 -0.001 0.005 -0.003
O9 0.022 0.013 0.018 0 0.002 -0.005
C18 0.019 0.019 0.022 0.008 -0.003 0
C19 0.009 0.027 0.005 0.01 0.005 0.015
C22 0.012 0.019 0.013 0.006 0.002 0
C24 0.018 0.008 0.022 -0.001 0.008 -0.008
C26 0.042 0.041 0.009 -0.005 -0.001 -0.007
C29 0.012 0.016 0.028 0.004 0.008 -0.007
C30 0.011 0.012 0.038 0 -0.001 -0.003
N15 0.017 0.031 0.014 -0.004 -0.002 0.007
N16 0.024 0.043 0.025 0.005 0.005 -0.009
C31 0.024 0.026 0.044 0 0.001 -0.014
C32 0.01 0.013 0.026 0.001 -0.004 -0.007
N1 0.014 0.027 0.021 0.001 -0.005 -0.009
C1 0.022 0.013 0.025 -0.001 0.001 0
N9 0.017 0.018 0.019 0.001 0.005 -0.006
C20 0.027 0.022 0.039 -0.005 0.015 -0.002
C25 0.023 0.011 0.042 0.002 0.024 0.002
O5 0.028 0.018 0.027 0.003 -0.001 0.004
C7 0.05 0.057 0.014 -0.002 0.015 -0.043
C23 0.05 0.057 0.014 -0.002 0.015 -0.043
loop_
_geom_bond_atom_site_label_1
_geom_bond_atom_site_label_2
_geom_bond_site_symmetry_1
_geom_bond_site_symmetry_2
N8 Co3 1_555 1_555
N11 Co3 1_555 1_555
O11 Co3 1_555 1_555
O12 Co3 1_555 1_555
H14 O12 1_555 1_555
N14 Co3 1_555 1_555
O12 H28 1_555 1_555
N11 C4 1_555 1_555
C4 H4 1_555 1_555
C9 C4 1_555 1_555
H7 C9 1_555 1_555
C11 N11 1_555 1_555
H9 C11 1_555 1_555
N8 C17 1_555 1_555
C17 H15 1_555 1_555
C21 N8 1_555 1_555
Co1 O2 1_555 1_555
O1 C8 1_555 1_555
O2 C8 1_555 1_555
O3 Co1 1_555 1_555
O11 C2 1_555 1_555
C2 O3 1_555 1_555
N3 Co1 1_555 1_555
C3 H3 1_555 1_555
C8 C13 1_555 1_555
C10 C6 1_555 1_555
H8 C10 1_555 1_555
H10 C12 1_555 1_555
C13 C3 1_555 1_555
H11 C13 1_555 1_555
C14 C3 1_555 1_555
N4 N3 1_555 1_555
N5 N4 1_555 1_555
C15 C2 1_555 1_555
H12 C15 1_555 1_555
C16 C6 1_555 1_555
H13 C16 1_555 1_555
Co7 N3 1_555 1_555
O6 C24 1_555 1_555
O7 Co1 1_555 1_555
O8 Co1 1_555 1_555
O9 Co7 1_555 1_555
C18 O8 1_555 1_555
N14 Co1 1_555 1_555
C19 H16 1_555 1_555
C24 O7 1_555 1_555
C26 C22 1_555 1_555
H21 C26 1_555 1_555
H23 C28 1_555 1_555
C29 C19 1_555 1_555
H24 C29 1_555 1_555
C30 C19 1_555 1_555
N15 N14 1_555 1_555
N16 N15 1_555 1_555
C31 C18 1_555 1_555
H25 C31 1_555 1_555
C32 C22 1_555 1_555
H26 C32 1_555 1_555
C12 C14 1_555 1_555
C15 C16 1_555 1_555
O9 C18 1_555 1_555
C24 C29 1_555 1_555
C28 C30 1_555 1_555
C31 C32 1_555 1_555
N1 C1 1_555 1_555
C1 H2 1_555 1_555
C5 N1 1_555 1_555
Co7 N1 1_555 1_555
Co7 N9 1_555 1_555
N9 C20 1_555 1_555
C20 H17 1_555 1_555
C25 C20 1_555 1_555
H20 C25 1_555 1_555
C27 N9 1_555 1_555
H22 C27 1_555 1_555
O5 Co7 1_555 1_555
H1 O5 1_555 1_555
O5 H28_2 1_555 1_555
H5 C5_2 1_555 1_555
C7 C5_2 1_555 1_555
H6 C7 1_555 1_555
H18 C21_2 1_555 1_555
C23 C21_2 1_555 1_555
H19 C23 1_555 1_555

#END
