
###############################################################################
#
# This file contains modified crystal structure data generated from the
# MOF subset of the Cambridge Structural Database (CSD) v543 
# hosted by the Cambridge Crystallographic Data Centre (CCDC).
#
# This work is licensed under the Creative Commons
# Attribution-NonCommercial-ShareAlike 4.0 International License.
# To view a copy of this license, visit
# http://creativecommons.org/licenses/by-nc-sa/4.0/
# or send a letter to
# Creative Commons, PO Box 1866, Mountain View, CA 94042, USA.
#
# CIF created using the CSD Python API on 29 September 2022
# The structure has been converted into the P1 space group
# The structure has a 3D framework
# The original CSD entry BIWWOW is in the monoclinic crystal system
# The framework has been calculated to contain at least 10.0% void space
# The void calculation uses a probe of radius 1.32A, grid spacing 0.4
#
###############################################################################

data_BIWWOW
_chemical_formula_moiety         '(C128 H112 Cu4 La8 N8 O74 S16)n'
_symmetry_cell_setting           triclinic
_symmetry_space_group_name_H-M   'P 1'
_symmetry_Int_Tables_number      1
_space_group_name_Hall           'P 1'
loop_
_symmetry_equiv_pos_site_id
_symmetry_equiv_pos_as_xyz
1 x,y,z
_cell_length_a                   13.1998(3)
_cell_length_b                   16.6399(3)
_cell_length_c                   21.5591(6)
_cell_angle_alpha                90
_cell_angle_beta                 96.415(2)
_cell_angle_gamma                90
_cell_volume                     4705.66
loop_
_atom_site_label
_atom_site_type_symbol
_atom_site_fract_x
_atom_site_fract_y
_atom_site_fract_z
C31 C 0.0018(5) 0.2720(4) 0.8794(4)
H22 H 0.0114 0.3061 0.9155
H23 H 0.0593 0.2367 0.8792
C32 C 0.0792(5) 0.3761(5) 0.8073(4)
H24 H 0.0642 0.4045 0.7686
H25 H 0.1382 0.3429 0.8052
H26 H 0.0923 0.4139 0.8408
C21 C 0.0064(4) 0.0138(3) 0.1024(2)
C22 C 0.0759(4) 0.0385(3) 0.1506(2)
C24 C 0.0640(4) 0.1082(3) 0.1928(2)
H27 H 0.0161 0.2497 0.0697
O16 O 0.1401(3) 0.12970(19) 0.22996(16)
La10 La 0.149602(17) 0.242262(14) 0.305305(11)
O25 O 0.0487(2) 0.30723(17) 0.19293(14)
C3 C 0.5006(4) 0.0171(3) 0.8981(2)
H2 H 0.5620 0.0423 0.9115
C4 C 0.4369(3) 0.0404(2) 0.8469(2)
C6 C 0.4550(4) 0.1097(3) 0.8061(2)
O4 O 0.5393(3) 0.14239(19) 0.81818(16)
O5 O 0.3867(2) 0.12929(18) 0.76355(15)
La6 La 0.369431(17) 0.242179(13) 0.684543(11)
La7 La 0.649602(17) 0.257738(14) 0.805305(11)
C7 C 0.1678(3) 0.5463(2) 0.0991(2)
C8 C 0.0741(4) 0.5181(3) 0.0769(2)
H3 H 0.0321 0.5432 0.0452
C9 C 0.0467(4) 0.4474(3) 0.1063(2)
C10 C 0.1223(3) 0.4228(2) 0.1510(2)
C11 C 0.2203(3) 0.6200(2) 0.0802(2)
C12 C 0.1268(3) 0.3516(2) 0.1933(2)
C19 C 0.1360(3) 0.9228(2) 0.0946(2)
C20 C 0.0418(4) 0.9476(3) 0.0708(2)
H7 H 0.0043 0.9231 0.0369
C23 C 0.1953(3) 0.8538(2) 0.0746(2)
O6 O 0.1757(2) 0.65584(16) 0.03276(14)
O7 O 0.3026(2) 0.64147(16) 0.11067(14)
O8 O 0.2077(2) 0.33896(19) 0.22792(15)
O14 O 0.1652(2) 0.82324(16) 0.02258(14)
O15 O 0.2708(2) 0.82918(16) 0.10994(14)
S2 S 0.22550(9) 0.48626(6) 0.15724(5)
S4 S 0.18443(9) 0.98137(6) 0.15713(5)
La8 La 0.350398(17) 0.742262(14) 0.194695(11)
Cu1 Cu 0.25599(4) 0.73919(3) 0.99771(2)
C1 C 0.3713(4) 0.9242(2) 0.9004(2)
C2 C 0.4622(4) 0.9504(3) 0.9281(2)
H1 H 0.4961 0.9267 0.9635
C5 C 0.3108(3) 0.8548(2) 0.9195(2)
C13 C 0.3448(3) 0.5450(2) 0.8986(2)
C14 C 0.4377(4) 0.5179(3) 0.9232(2)
H5 H 0.4770 0.5438 0.9558
C15 C 0.4689(4) 0.4475(3) 0.8951(2)
H6 H 0.5308 0.4219 0.9065
C16 C 0.3968(3) 0.4210(3) 0.8488(2)
C17 C 0.2895(4) 0.6172(2) 0.9171(2)
C18 C 0.4011(4) 0.3486(3) 0.8096(2)
C29 C 0.9104(5) 0.3237(4) 0.7938(4)
C30 C 0.8999(6) 0.3851(4) 0.7336(3)
H18 H 0.9640 0.4114 0.7309
H19 H 0.8485 0.4247 0.7388
H20 H 0.8810 0.3552 0.6960
H21 H 0.9409 0.2407 0.8806
O1 O 0.3457(2) 0.82164(16) 0.97007(15)
O3 O 0.2318(2) 0.83570(17) 0.88639(15)
O10 O 0.2052(2) 0.63501(17) 0.88770(15)
O11 O 0.3344(2) 0.65552(16) 0.96294(15)
O12 O 0.3249(3) 0.3314(2) 0.77224(17)
O13 O 0.4811(3) 0.30758(19) 0.81673(17)
O19 O 0.8340(3) 0.2862(2) 0.80286(18)
S1 S 0.33054(9) 0.98078(7) 0.83603(6)
S3 S 0.29299(9) 0.48395(7) 0.83917(6)
N2 N 0.9917(5) 0.3253(4) 0.8182(4)
La4 La 0.130569(17) 0.742179(13) 0.815457(11)
O23 O 0.6974(2) 0.35853(16) 0.88933(14)
O24 O 0.7077(2) 0.16104(19) 0.72792(15)
O26 O 0.5487(2) 0.19277(17) 0.69293(14)
O29 O 0.7292(2) 0.17082(16) 0.89006(14)
O30 O 0.6401(3) 0.37030(19) 0.72996(16)
La1 La 0.869431(17) 0.257821(13) 0.184543(11)
H8 H 0.9433 0.0380 0.0919
C25 C 0.6164(5) 0.3178(4) 0.2203(4)
C26 C 0.6459(6) 0.3675(5) 0.2840(3)
H9 H 0.5868 0.3952 0.2951
H10 H 0.6983 0.4058 0.2779
H11 H 0.6703 0.3311 0.3169
C27 C 0.4999(6) 0.2783(4) 0.1392(4)
H12 H 0.5568 0.2458 0.1305
H13 H 0.4833 0.3155 0.1055
H14 H 0.4422 0.2444 0.1434
C28 C 0.4520(5) 0.3798(4) 0.2247(4)
H15 H 0.4777 0.4056 0.2631
H16 H 0.3932 0.3482 0.2312
H17 H 0.4334 0.4197 0.1934
H28 H 0.9411 0.2223 0.0447
O2 O 0.9560(3) 0.2453(2) 0.08081(15)
O17 O 0.9776(3) 0.13878(18) 0.18874(17)
O18 O 0.6841(3) 0.2795(2) 0.20079(18)
N1 N 0.5299(5) 0.3281(4) 0.2044(4)
O20 O 0.7682(2) 0.16430(17) 0.11361(15)
O22 O 0.8867(2) 0.37071(18) 0.26355(15)
O27 O 0.7948(2) 0.36499(17) 0.11230(15)
O28 O 0.8249(3) 0.1686(2) 0.27224(17)
H4 H 0.9850 0.4207 0.0967
Cu1_2 Cu 0.24401(4) 0.23919(3) 0.50229(2)
La1_2 La 0.630569(17) 0.757821(13) 0.315457(11)
C1_2 C 0.1287(4) 0.4242(2) 0.5996(2)
C2_2 C 0.0378(4) 0.4504(3) 0.5719(2)
H1_2 H 0.0039 0.4267 0.5365
C4_2 C 0.0631(3) 0.5404(2) 0.6531(2)
C5_2 C 0.1892(3) 0.3548(2) 0.5805(2)
C6_2 C 0.0450(4) 0.6097(3) 0.6939(2)
C7_2 C 0.3322(3) 0.0463(2) 0.4009(2)
C8_2 C 0.4259(4) 0.0181(3) 0.4231(2)
H3_2 H 0.4679 0.0432 0.4548
C11_2 C 0.2797(3) 0.1200(2) 0.4198(2)
C13_2 C 0.1552(3) 0.0450(2) 0.6014(2)
C14_2 C 0.0623(4) 0.0179(3) 0.5768(2)
H5_2 H 0.0230 0.0438 0.5442
C17_2 C 0.2105(4) 0.1172(2) 0.5829(2)
C19_2 C 0.3640(3) 0.4228(2) 0.4054(2)
C20_2 C 0.4582(4) 0.4476(3) 0.4292(2)
H7_2 H 0.4957 0.4231 0.4631
C21_2 C 0.4936(4) 0.5138(3) 0.3976(2)
H8_2 H 0.5567 0.5380 0.4081
C22_2 C 0.4241(4) 0.5385(3) 0.3494(2)
C23_2 C 0.3047(3) 0.3538(2) 0.4254(2)
C24_2 C 0.4360(4) 0.6082(3) 0.3072(2)
C25_2 C 0.8836(5) 0.8178(4) 0.2797(4)
C26_2 C 0.8541(6) 0.8675(5) 0.2160(3)
H9_2 H 0.9132 0.8952 0.2049
H10_2 H 0.8017 0.9058 0.2221
H11_2 H 0.8297 0.8311 0.1831
H12_2 H 0.9432 0.7458 0.3695
O1_2 O 0.1543(2) 0.32164(16) 0.52993(15)
H27_2 H 0.4839 0.7497 0.4303
H28_2 H 0.5589 0.7223 0.4553
O2_2 O 0.5440(3) 0.7453(2) 0.41919(15)
O3_2 O 0.2682(2) 0.33570(17) 0.61361(15)
O5_2 O 0.1133(2) 0.62929(18) 0.73645(15)
O6_2 O 0.3243(2) 0.15584(16) 0.46724(14)
O7_2 O 0.1974(2) 0.14147(16) 0.38933(14)
O10_2 O 0.2948(2) 0.13501(17) 0.61230(15)
O11_2 O 0.1656(2) 0.15552(16) 0.53706(15)
O14_2 O 0.3348(2) 0.32324(16) 0.47742(14)
O15_2 O 0.2292(2) 0.32918(16) 0.39006(14)
O16_2 O 0.3599(3) 0.62970(19) 0.27004(16)
O17_2 O 0.5224(3) 0.63878(18) 0.31126(17)
O18_2 O 0.8159(3) 0.7795(2) 0.29921(18)
S1_2 S 0.16946(9) 0.48078(7) 0.66397(6)
S4_2 S 0.31557(9) 0.48137(6) 0.34287(5)
N1_2 N 0.9701(5) 0.8281(4) 0.2956(4)
O20_2 O 0.7318(2) 0.66430(17) 0.38639(15)
O22_2 O 0.6133(2) 0.87071(18) 0.23645(15)
O25_2 O 0.4513(2) 0.80723(17) 0.30707(14)
O27_2 O 0.7052(2) 0.86499(17) 0.38770(15)
O28_2 O 0.6751(3) 0.6686(2) 0.22776(17)
C9_2 C 0.4533(4) 0.9474(3) 0.3937(2)
H4_2 H 0.5150 0.9207 0.4033
C10_2 C 0.3777(3) 0.9228(2) 0.3490(2)
C12_2 C 0.3732(3) 0.8516(2) 0.3067(2)
C15_2 C 0.0311(4) 0.9475(3) 0.6049(2)
C16_2 C 0.1032(3) 0.9210(3) 0.6512(2)
C18_2 C 0.0989(4) 0.8486(3) 0.6904(2)
O8_2 O 0.2923(2) 0.83896(19) 0.27208(15)
O12_2 O 0.1751(3) 0.8314(2) 0.72776(17)
O13_2 O 0.0189(3) 0.80758(19) 0.68327(17)
S2_2 S 0.27450(9) 0.98626(6) 0.34276(5)
S3_2 S 0.20701(9) 0.98395(7) 0.66083(6)
C3_2 C 0.9994(4) 0.5171(3) 0.6019(2)
H2_2 H 0.9380 0.5423 0.5885
O4_2 O 0.9607(3) 0.64239(19) 0.68182(16)
La7_2 La 0.850398(17) 0.757738(14) 0.694695(11)
H6_2 H 0.9692 0.9219 0.5935
C29_2 C 0.5896(5) 0.8237(4) 0.7062(4)
C30_2 C 0.6001(6) 0.8851(4) 0.7664(3)
H18_2 H 0.5360 0.9114 0.7691
H19_2 H 0.6515 0.9247 0.7612
H20_2 H 0.6190 0.8552 0.8040
C31_2 C 0.4982(5) 0.7720(4) 0.6206(4)
H21_2 H 0.5591 0.7407 0.6194
H22_2 H 0.4886 0.8061 0.5845
H23_2 H 0.4407 0.7367 0.6208
C32_2 C 0.4208(5) 0.8761(5) 0.6927(4)
H24_2 H 0.4358 0.9045 0.7314
H25_2 H 0.3618 0.8429 0.6948
H26_2 H 0.4077 0.9139 0.6592
O19_2 O 0.6660(3) 0.7862(2) 0.69714(18)
N2_2 N 0.5083(5) 0.8253(4) 0.6818(4)
O23_2 O 0.8026(2) 0.85853(16) 0.61067(14)
O24_2 O 0.7923(2) 0.66104(19) 0.77208(15)
O26_2 O 0.9513(2) 0.69277(17) 0.80707(14)
O29_2 O 0.7708(2) 0.67082(16) 0.60994(14)
O30_2 O 0.8599(3) 0.87030(19) 0.77004(16)
H4_3 H 0.0150 0.5793 0.9033
H8_3 H 0.0567 0.9620 0.9081
C25_3 C 0.3836(5) 0.6822(4) 0.7797(4)
C26_3 C 0.3541(6) 0.6325(5) 0.7160(3)
H9_3 H 0.4132 0.6048 0.7049
H10_3 H 0.3017 0.5942 0.7221
H11_3 H 0.3297 0.6689 0.6831
C27_2 C 0.5001(6) 0.7217(4) 0.8608(4)
H12_3 H 0.4432 0.7542 0.8695
H13_2 H 0.5167 0.6845 0.8945
H14_2 H 0.5578 0.7556 0.8566
C28_2 C 0.5480(5) 0.6202(4) 0.7753(4)
H15_2 H 0.5223 0.5944 0.7369
H16_2 H 0.6068 0.6518 0.7688
H17_2 H 0.5666 0.5803 0.8066
H28_3 H 0.0589 0.7777 0.9553
O2_3 O 0.0440(3) 0.7547(2) 0.91919(15)
O17_3 O 0.0224(3) 0.86122(18) 0.81126(17)
O18_3 O 0.3159(3) 0.7205(2) 0.79921(18)
N1_3 N 0.4701(5) 0.6719(4) 0.7956(4)
Cu1_3 Cu 0.74401(4) 0.26081(3) 0.00229(2)
C1_3 C 0.6287(4) 0.0758(2) 0.0996(2)
C2_3 C 0.5378(4) 0.0496(3) 0.0719(2)
H1_3 H 0.5039 0.0733 0.0365
C5_3 C 0.6892(3) 0.1452(2) 0.0805(2)
C13_3 C 0.6552(3) 0.4550(2) 0.1014(2)
C14_3 C 0.5623(4) 0.4821(3) 0.0768(2)
H5_3 H 0.5230 0.4562 0.0442
C15_3 C 0.5311(4) 0.5525(3) 0.1049(2)
H6_3 H 0.4692 0.5781 0.0935
C16_3 C 0.6032(3) 0.5790(3) 0.1512(2)
C17_3 C 0.7105(4) 0.3828(2) 0.0829(2)
C18_3 C 0.5989(4) 0.6514(3) 0.1904(2)
C29_3 C 0.0896(5) 0.6763(4) 0.2062(4)
C30_3 C 0.1001(6) 0.6149(4) 0.2664(3)
H18_3 H 0.0360 0.5886 0.2691
H19_3 H 0.1515 0.5753 0.2612
H20_3 H 0.1190 0.6448 0.3040
H21_3 H 0.0591 0.7593 0.1194
O1_3 O 0.6543(2) 0.17836(16) 0.02993(15)
O11_3 O 0.6656(2) 0.34448(16) 0.03706(15)
O13_3 O 0.5189(3) 0.69242(19) 0.18327(17)
O19_3 O 0.1660(3) 0.7138(2) 0.19714(18)
S1_3 S 0.66946(9) 0.01922(7) 0.16397(6)
S3_3 S 0.70701(9) 0.51605(7) 0.16083(6)
N2_3 N 0.0083(5) 0.6747(4) 0.1818(4)
O21 O 0.4607(3) 0.85761(19) 0.18182(16)
C7_3 C 0.8322(3) 0.4537(2) 0.9009(2)
C8_3 C 0.9259(4) 0.4819(3) 0.9231(2)
H3_3 H 0.9679 0.4568 0.9548
C9_3 C 0.9533(4) 0.5526(3) 0.8937(2)
C10_3 C 0.8777(3) 0.5772(2) 0.8490(2)
C11_3 C 0.7797(3) 0.3800(2) 0.9198(2)
C12_3 C 0.8732(3) 0.6484(2) 0.8067(2)
C19_3 C 0.8640(3) 0.0772(2) 0.9054(2)
C20_3 C 0.9582(4) 0.0524(3) 0.9292(2)
H7_3 H 0.9957 0.0769 0.9631
C23_3 C 0.8047(3) 0.1462(2) 0.9254(2)
O6_3 O 0.8243(2) 0.34416(16) 0.96724(14)
O14_3 O 0.8348(2) 0.17676(16) 0.97742(14)
S2_3 S 0.77450(9) 0.51374(6) 0.84276(5)
S4_3 S 0.81557(9) 0.01863(6) 0.84287(5)
C3_3 C 0.4994(4) 0.9829(3) 0.1019(2)
H2_3 H 0.4380 0.9577 0.0885
C4_3 C 0.5631(3) 0.9596(2) 0.1531(2)
C6_3 C 0.5450(4) 0.8903(3) 0.1939(2)
C21_3 C 0.9936(4) 0.9862(3) 0.8976(2)
C22_3 C 0.9241(4) 0.9615(3) 0.8494(2)
C24_3 C 0.9360(4) 0.8918(3) 0.8072(2)
H27_3 H 0.9839 0.7503 0.9303
H6_4 H 0.0308 0.0781 0.4065
C29_4 C 0.4104(5) 0.1763(4) 0.2938(4)
C30_4 C 0.3999(6) 0.1149(4) 0.2336(3)
H18_4 H 0.4640 0.0886 0.2309
H19_4 H 0.3485 0.0753 0.2388
H20_4 H 0.3810 0.1448 0.1960
C31_3 C 0.5018(5) 0.2280(4) 0.3794(4)
H21_4 H 0.4409 0.2593 0.3806
H22_3 H 0.5114 0.1939 0.4155
H23_3 H 0.5593 0.2633 0.3792
C32_3 C 0.5792(5) 0.1239(5) 0.3073(4)
H24_3 H 0.5642 0.0955 0.2686
H25_3 H 0.6382 0.1571 0.3052
H26_3 H 0.5923 0.0861 0.3408
O19_4 O 0.3340(3) 0.2138(2) 0.30286(18)
N2_4 N 0.4917(5) 0.1747(4) 0.3182(4)
O21_2 O 0.0393(3) 0.35761(19) 0.31818(16)
C3_4 C 0.0006(4) 0.4829(3) 0.3981(2)
H2_4 H 0.0620 0.4577 0.4115
C9_4 C 0.5467(4) 0.0526(3) 0.6063(2)
H4_4 H 0.4850 0.0793 0.5967
C10_4 C 0.6223(3) 0.0772(2) 0.6510(2)
C12_4 C 0.6268(3) 0.1484(2) 0.6933(2)
C15_4 C 0.9689(4) 0.0525(3) 0.3951(2)
C16_4 C 0.8968(3) 0.0790(3) 0.3488(2)
C18_4 C 0.9011(4) 0.1514(3) 0.3096(2)
O13_4 O 0.9811(3) 0.19242(19) 0.31673(17)
S2_4 S 0.72550(9) 0.01374(6) 0.65724(5)
S3_4 S 0.79299(9) 0.01605(7) 0.33917(6)
Cu1_4 Cu 0.75599(4) 0.76081(3) 0.49771(2)
C1_4 C 0.8713(4) 0.5758(2) 0.4004(2)
C2_4 C 0.9622(4) 0.5496(3) 0.4281(2)
H1_4 H 0.9961 0.5733 0.4635
C4_4 C 0.9369(3) 0.4596(2) 0.3469(2)
C5_4 C 0.8108(3) 0.6452(2) 0.4195(2)
C6_4 C 0.9550(4) 0.3903(3) 0.3061(2)
C7_4 C 0.6678(3) 0.9537(2) 0.5991(2)
C8_4 C 0.5741(4) 0.9819(3) 0.5769(2)
H3_4 H 0.5321 0.9568 0.5452
C11_4 C 0.7203(3) 0.8800(2) 0.5802(2)
C13_4 C 0.8448(3) 0.9550(2) 0.3986(2)
C14_4 C 0.9377(4) 0.9821(3) 0.4232(2)
H5_4 H 0.9770 0.9562 0.4558
C17_4 C 0.7895(4) 0.8828(2) 0.4171(2)
C19_4 C 0.6360(3) 0.5772(2) 0.5946(2)
C20_4 C 0.5418(4) 0.5524(3) 0.5708(2)
H7_4 H 0.5043 0.5769 0.5369
C21_4 C 0.5064(4) 0.4862(3) 0.6024(2)
H8_4 H 0.4433 0.4620 0.5919
C22_4 C 0.5759(4) 0.4615(3) 0.6506(2)
C23_4 C 0.6953(3) 0.6462(2) 0.5746(2)
C24_4 C 0.5640(4) 0.3918(3) 0.6928(2)
C25_4 C 0.1164(5) 0.1822(4) 0.7203(4)
C26_4 C 0.1459(6) 0.1325(5) 0.7840(3)
H9_4 H 0.0868 0.1048 0.7951
H10_4 H 0.1983 0.0942 0.7779
H11_4 H 0.1703 0.1689 0.8169
H12_4 H 0.0568 0.2542 0.6305
O1_4 O 0.8457(2) 0.67836(16) 0.47007(15)
H27_4 H 0.5161 0.2503 0.5697
H28_4 H 0.4411 0.2777 0.5447
O2_4 O 0.4560(3) 0.2547(2) 0.58081(15)
O6_4 O 0.6757(2) 0.84416(16) 0.53276(14)
O11_4 O 0.8344(2) 0.84448(16) 0.46294(15)
O14_4 O 0.6652(2) 0.67676(16) 0.52258(14)
O17_4 O 0.4776(3) 0.36122(18) 0.68874(17)
O18_4 O 0.1841(3) 0.2205(2) 0.70079(18)
S1_4 S 0.83054(9) 0.51922(7) 0.33603(6)
S4_4 S 0.68443(9) 0.51863(6) 0.65713(5)
N1_4 N 0.0299(5) 0.1719(4) 0.7044(4)
C27_3 C 0.0001(6) 0.7783(4) 0.3608(4)
H13_3 H 0.0167 0.8155 0.3945
H14_3 H 0.0578 0.7444 0.3566
C28_3 C 0.0480(5) 0.8798(4) 0.2753(4)
H15_3 H 0.0223 0.9056 0.2369
H16_3 H 0.1068 0.8482 0.2688
H17_3 H 0.0666 0.9197 0.3066
C31_4 C 0.9982(5) 0.7280(4) 0.1206(4)
H22_4 H 0.9886 0.6939 0.0845
H23_4 H 0.9407 0.7633 0.1208
C32_4 C 0.9208(5) 0.6239(5) 0.1927(4)
H24_4 H 0.9358 0.5955 0.2314
H25_4 H 0.8618 0.6571 0.1948
H26_4 H 0.9077 0.5861 0.1592
C27_4 C 0.9999(6) 0.2217(4) 0.6392(4)
H13_4 H 0.9833 0.1845 0.6055
H14_4 H 0.9422 0.2556 0.6434
C28_4 C 0.9520(5) 0.1202(4) 0.7247(4)
H15_4 H 0.9777 0.0944 0.7631
H16_4 H 0.8932 0.1518 0.7312
H17_4 H 0.9334 0.0803 0.6934
loop_
_geom_bond_atom_site_label_1
_geom_bond_atom_site_label_2
_geom_bond_site_symmetry_1
_geom_bond_site_symmetry_2
H22 C31 1_555 1_555
H23 C31 1_555 1_555
C32 H24 1_555 1_555
H25 C32 1_555 1_555
H26 C32 1_555 1_555
C22 C21 1_555 1_555
C24 C22 1_555 1_555
O16 C24 1_555 1_555
La10 O16 1_555 1_555
La10 O25 1_555 1_555
H2 C3 1_555 1_555
C4 C3 1_555 1_555
C6 C4 1_555 1_555
O4 C6 1_555 1_555
O5 C6 1_555 1_555
La6 O5 1_555 1_555
La7 O4 1_555 1_555
C7 C8 1_555 1_555
C8 H3 1_555 1_555
C9 C8 1_555 1_555
C10 C9 1_555 1_555
C11 C7 1_555 1_555
C12 C10 1_555 1_555
C19 C20 1_555 1_555
C20 H7 1_555 1_555
C23 C19 1_555 1_555
O7 C11 1_555 1_555
O8 C12 1_555 1_555
O25 C12 1_555 1_555
O15 C23 1_555 1_555
S2 C7 1_555 1_555
S4 C19 1_555 1_555
La8 O7 1_555 1_555
La10 O8 1_555 1_555
C10 S2 1_555 1_555
C11 O6 1_555 1_555
C23 O14 1_555 1_555
O15 La8 1_555 1_555
Cu1 O1 1_555 1_555
La7 O13 1_555 1_555
C1 C2 1_555 1_555
C2 H1 1_555 1_555
C5 C1 1_555 1_555
C13 C14 1_555 1_555
C14 H5 1_555 1_555
C15 C14 1_555 1_555
H6 C15 1_555 1_555
C16 C15 1_555 1_555
C17 C13 1_555 1_555
C18 C16 1_555 1_555
C29 C30 1_555 1_555
C30 H18 1_555 1_555
H19 C30 1_555 1_555
H20 C30 1_555 1_555
O1 C5 1_555 1_555
O3 C5 1_555 1_555
O10 C17 1_555 1_555
O11 Cu1 1_555 1_555
O12 C18 1_555 1_555
O13 C18 1_555 1_555
O19 La7 1_555 1_555
S1 C1 1_555 1_555
S3 C13 1_555 1_555
N2 C29 1_555 1_555
La4 O3 1_555 1_555
La6 O12 1_555 1_555
O23 La7 1_555 1_555
O24 La7 1_555 1_555
O26 La7 1_555 1_555
O29 La7 1_555 1_555
O30 La7 1_555 1_555
C16 S3 1_555 1_555
C17 O11 1_555 1_555
C29 O19 1_555 1_555
O10 La4 1_555 1_555
La6 O26 1_555 1_555
La1 O2 1_555 1_555
C25 C26 1_555 1_555
C26 H9 1_555 1_555
H10 C26 1_555 1_555
H11 C26 1_555 1_555
C27 H12 1_555 1_555
H13 C27 1_555 1_555
H14 C27 1_555 1_555
C28 H15 1_555 1_555
H16 C28 1_555 1_555
H17 C28 1_555 1_555
H28 O2 1_555 1_555
O17 La1 1_555 1_555
O18 La1 1_555 1_555
N1 C25 1_555 1_555
O20 La1 1_555 1_555
O22 La1 1_555 1_555
O27 La1 1_555 1_555
O28 La1 1_555 1_555
C25 O18 1_555 1_555
C27 N1 1_555 1_555
C28 N1 1_555 1_555
Cu1_2 O1_2 1_555 1_555
La1_2 O2_2 1_555 1_555
C1_2 C2_2 1_555 1_555
C2_2 H1_2 1_555 1_555
C5_2 C1_2 1_555 1_555
C6_2 C4_2 1_555 1_555
C7_2 C8_2 1_555 1_555
C8_2 H3_2 1_555 1_555
C11_2 C7_2 1_555 1_555
C13_2 C14_2 1_555 1_555
C14_2 H5_2 1_555 1_555
C17_2 C13_2 1_555 1_555
C19_2 C20_2 1_555 1_555
C20_2 H7_2 1_555 1_555
C21_2 C20_2 1_555 1_555
H8_2 C21_2 1_555 1_555
C22_2 C21_2 1_555 1_555
C23_2 C19_2 1_555 1_555
C24_2 C22_2 1_555 1_555
C25_2 C26_2 1_555 1_555
C26_2 H9_2 1_555 1_555
H10_2 C26_2 1_555 1_555
H11_2 C26_2 1_555 1_555
O1_2 C5_2 1_555 1_555
H27_2 O2_2 1_555 1_555
H28_2 O2_2 1_555 1_555
O3_2 C5_2 1_555 1_555
O5_2 C6_2 1_555 1_555
O6_2 Cu1_2 1_555 1_555
O7_2 C11_2 1_555 1_555
O10_2 C17_2 1_555 1_555
O11_2 Cu1_2 1_555 1_555
O14_2 Cu1_2 1_555 1_555
O15_2 C23_2 1_555 1_555
O16_2 C24_2 1_555 1_555
O17_2 La1_2 1_555 1_555
O18_2 La1_2 1_555 1_555
S1_2 C1_2 1_555 1_555
S4_2 C19_2 1_555 1_555
N1_2 C25_2 1_555 1_555
La6 O3_2 1_555 1_555
La4 O5_2 1_555 1_555
La10 O7_2 1_555 1_555
La8 O16_2 1_555 1_555
O20_2 La1_2 1_555 1_555
O22_2 La1_2 1_555 1_555
O25_2 La1_2 1_555 1_555
O27_2 La1_2 1_555 1_555
O28_2 La1_2 1_555 1_555
C4_2 S1_2 1_555 1_555
C11_2 O6_2 1_555 1_555
C17_2 O11_2 1_555 1_555
C22_2 S4_2 1_555 1_555
C23_2 O14_2 1_555 1_555
C24_2 O17_2 1_555 1_555
C25_2 O18_2 1_555 1_555
O10_2 La6 1_555 1_555
O15_2 La10 1_555 1_555
La8 O25_2 1_555 1_555
H4_2 C9_2 1_555 1_555
C10_2 C9_2 1_555 1_555
C12_2 C10_2 1_555 1_555
C16_2 C15_2 1_555 1_555
C18_2 C16_2 1_555 1_555
O8_2 C12_2 1_555 1_555
O25_2 C12_2 1_555 1_555
O12_2 C18_2 1_555 1_555
O13_2 C18_2 1_555 1_555
La4 O12_2 1_555 1_555
La8 O8_2 1_555 1_555
C10_2 S2_2 1_555 1_555
C16_2 S3_2 1_555 1_555
H2_2 C3_2 1_555 1_555
La7_2 O4_2 1_555 1_555
C29_2 C30_2 1_555 1_555
C30_2 H18_2 1_555 1_555
H19_2 C30_2 1_555 1_555
H20_2 C30_2 1_555 1_555
C31_2 H21_2 1_555 1_555
H22_2 C31_2 1_555 1_555
H23_2 C31_2 1_555 1_555
C32_2 H24_2 1_555 1_555
H25_2 C32_2 1_555 1_555
H26_2 C32_2 1_555 1_555
O19_2 La7_2 1_555 1_555
N2_2 C29_2 1_555 1_555
O23_2 La7_2 1_555 1_555
O24_2 La7_2 1_555 1_555
O26_2 La7_2 1_555 1_555
O29_2 La7_2 1_555 1_555
O30_2 La7_2 1_555 1_555
C29_2 O19_2 1_555 1_555
C31_2 N2_2 1_555 1_555
C32_2 N2_2 1_555 1_555
La4 O2_3 1_555 1_555
C25_3 C26_3 1_555 1_555
C26_3 H9_3 1_555 1_555
H10_3 C26_3 1_555 1_555
H11_3 C26_3 1_555 1_555
C27_2 H12_3 1_555 1_555
H13_2 C27_2 1_555 1_555
H14_2 C27_2 1_555 1_555
C28_2 H15_2 1_555 1_555
H16_2 C28_2 1_555 1_555
H17_2 C28_2 1_555 1_555
H28_3 O2_3 1_555 1_555
O17_3 La4 1_555 1_555
O18_3 La4 1_555 1_555
N1_3 C25_3 1_555 1_555
C25_3 O18_3 1_555 1_555
C27_2 N1_3 1_555 1_555
C28_2 N1_3 1_555 1_555
Cu1_3 O1_3 1_555 1_555
La8 O13_3 1_555 1_555
C1_3 C2_3 1_555 1_555
C2_3 H1_3 1_555 1_555
C5_3 C1_3 1_555 1_555
C13_3 C14_3 1_555 1_555
C14_3 H5_3 1_555 1_555
C15_3 C14_3 1_555 1_555
H6_3 C15_3 1_555 1_555
C16_3 C15_3 1_555 1_555
C17_3 C13_3 1_555 1_555
C18_3 C16_3 1_555 1_555
C29_3 C30_3 1_555 1_555
C30_3 H18_3 1_555 1_555
H19_3 C30_3 1_555 1_555
H20_3 C30_3 1_555 1_555
O1_3 C5_3 1_555 1_555
O20 C5_3 1_555 1_555
O27 C17_3 1_555 1_555
O11_3 Cu1_3 1_555 1_555
O28_2 C18_3 1_555 1_555
O13_3 C18_3 1_555 1_555
O19_3 La8 1_555 1_555
S1_3 C1_3 1_555 1_555
S3_3 C13_3 1_555 1_555
N2_3 C29_3 1_555 1_555
O21 La8 1_555 1_555
C16_3 S3_3 1_555 1_555
C17_3 O11_3 1_555 1_555
C29_3 O19_3 1_555 1_555
C7_3 C8_3 1_555 1_555
C8_3 H3_3 1_555 1_555
C9_3 C8_3 1_555 1_555
C10_3 C9_3 1_555 1_555
C11_3 C7_3 1_555 1_555
C12_3 C10_3 1_555 1_555
C19_3 C20_3 1_555 1_555
C20_3 H7_3 1_555 1_555
C23_3 C19_3 1_555 1_555
O23 C11_3 1_555 1_555
O24_2 C12_3 1_555 1_555
O26_2 C12_3 1_555 1_555
O29 C23_3 1_555 1_555
S2_3 C7_3 1_555 1_555
S4_3 C19_3 1_555 1_555
C10_3 S2_3 1_555 1_555
C11_3 O6_3 1_555 1_555
C23_3 O14_3 1_555 1_555
H2_3 C3_3 1_555 1_555
C4_3 C3_3 1_555 1_555
C6_3 C4_3 1_555 1_555
O21 C6_3 1_555 1_555
O22_2 C6_3 1_555 1_555
C22_3 C21_3 1_555 1_555
C24_3 C22_3 1_555 1_555
O30_2 C24_3 1_555 1_555
C29_4 C30_4 1_555 1_555
C30_4 H18_4 1_555 1_555
H19_4 C30_4 1_555 1_555
H20_4 C30_4 1_555 1_555
C31_3 H21_4 1_555 1_555
H22_3 C31_3 1_555 1_555
H23_3 C31_3 1_555 1_555
C32_3 H24_3 1_555 1_555
H25_3 C32_3 1_555 1_555
H26_3 C32_3 1_555 1_555
O19_4 La10 1_555 1_555
N2_4 C29_4 1_555 1_555
O21_2 La10 1_555 1_555
C29_4 O19_4 1_555 1_555
C31_3 N2_4 1_555 1_555
C32_3 N2_4 1_555 1_555
H2_4 C3_4 1_555 1_555
H4_4 C9_4 1_555 1_555
C10_4 C9_4 1_555 1_555
C12_4 C10_4 1_555 1_555
C16_4 C15_4 1_555 1_555
C18_4 C16_4 1_555 1_555
O24 C12_4 1_555 1_555
O26 C12_4 1_555 1_555
O28 C18_4 1_555 1_555
O13_4 C18_4 1_555 1_555
C10_4 S2_4 1_555 1_555
C16_4 S3_4 1_555 1_555
Cu1_4 O1_4 1_555 1_555
La6 O2_4 1_555 1_555
C1_4 C2_4 1_555 1_555
C2_4 H1_4 1_555 1_555
C5_4 C1_4 1_555 1_555
C6_4 C4_4 1_555 1_555
C7_4 C8_4 1_555 1_555
C8_4 H3_4 1_555 1_555
C11_4 C7_4 1_555 1_555
C13_4 C14_4 1_555 1_555
C14_4 H5_4 1_555 1_555
C17_4 C13_4 1_555 1_555
C19_4 C20_4 1_555 1_555
C20_4 H7_4 1_555 1_555
C21_4 C20_4 1_555 1_555
H8_4 C21_4 1_555 1_555
C22_4 C21_4 1_555 1_555
C23_4 C19_4 1_555 1_555
C24_4 C22_4 1_555 1_555
C25_4 C26_4 1_555 1_555
C26_4 H9_4 1_555 1_555
H10_4 C26_4 1_555 1_555
H11_4 C26_4 1_555 1_555
O1_4 C5_4 1_555 1_555
H27_4 O2_4 1_555 1_555
H28_4 O2_4 1_555 1_555
O20_2 C5_4 1_555 1_555
O22 C6_4 1_555 1_555
O6_4 Cu1_4 1_555 1_555
O23_2 C11_4 1_555 1_555
O27_2 C17_4 1_555 1_555
O11_4 Cu1_4 1_555 1_555
O14_4 Cu1_4 1_555 1_555
O29_2 C23_4 1_555 1_555
O30 C24_4 1_555 1_555
O17_4 La6 1_555 1_555
O18_4 La6 1_555 1_555
S1_4 C1_4 1_555 1_555
S4_4 C19_4 1_555 1_555
N1_4 C25_4 1_555 1_555
C4_4 S1_4 1_555 1_555
C11_4 O6_4 1_555 1_555
C17_4 O11_4 1_555 1_555
C22_4 S4_4 1_555 1_555
C23_4 O14_4 1_555 1_555
C24_4 O17_4 1_555 1_555
C25_4 O18_4 1_555 1_555
H13_3 C27_3 1_555 1_555
H14_3 C27_3 1_555 1_555
C28_3 H15_3 1_555 1_555
H16_3 C28_3 1_555 1_555
H17_3 C28_3 1_555 1_555
H22_4 C31_4 1_555 1_555
H23_4 C31_4 1_555 1_555
C32_4 H24_4 1_555 1_555
H25_4 C32_4 1_555 1_555
H26_4 C32_4 1_555 1_555
H13_4 C27_4 1_555 1_555
H14_4 C27_4 1_555 1_555
C28_4 H15_4 1_555 1_555
H16_4 C28_4 1_555 1_555
H17_4 C28_4 1_555 1_555

#END
