
###############################################################################
#
# This file contains modified crystal structure data generated from the
# MOF subset of the Cambridge Structural Database (CSD) v543 
# hosted by the Cambridge Crystallographic Data Centre (CCDC).
#
# This work is licensed under the Creative Commons
# Attribution-NonCommercial-ShareAlike 4.0 International License.
# To view a copy of this license, visit
# http://creativecommons.org/licenses/by-nc-sa/4.0/
# or send a letter to
# Creative Commons, PO Box 1866, Mountain View, CA 94042, USA.
#
# CIF created using the CSD Python API on 29 September 2022
# The structure has been converted into the P1 space group
# The structure has a 3D framework
# The original CSD entry BIXVIQ is in the cubic crystal system
# The framework has been calculated to contain at least 10.0% void space
# The void calculation uses a probe of radius 1.32A, grid spacing 0.4
# H atom positions have been added when not included in the experimental data
#
###############################################################################

data_BIXVIQ
_chemical_formula_moiety         '(C768 H384 Cu67 N576)n'
_symmetry_cell_setting           triclinic
_symmetry_space_group_name_H-M   'P 1'
_symmetry_Int_Tables_number      1
_space_group_name_Hall           'P 1'
loop_
_symmetry_equiv_pos_site_id
_symmetry_equiv_pos_as_xyz
1 x,y,z
_cell_length_a                   37.0539(5)
_cell_length_b                   37.0539
_cell_length_c                   37.0539
_cell_angle_alpha                90
_cell_angle_beta                 90
_cell_angle_gamma                90
_cell_volume                     50874.7
loop_
_atom_site_label
_atom_site_type_symbol
_atom_site_fract_x
_atom_site_fract_y
_atom_site_fract_z
_atom_site_U_iso_or_equiv
_atom_site_thermal_displace_type
Cu1 Cu 0.24457(5) 0.500 0.31511(4) 0.0064 Uiso
N1 N 0.28256(25) 0.53878(21) 0.31692(28) 0.0234 Uiso
N2 N 0.30913(27) 0.53751(21) 0.29285(23) 0.0234 Uiso
C1 C 0.31760(29) 0.58396(23) 0.32540(31) 0.0234 Uiso
C2 C 0.33837(33) 0.61643(20) 0.33926(33) 0.0234 Uiso
C3 C 0.32176(21) 0.63412(25) 0.36993(27) 0.0234 Uiso
N3 N 0.33241(28) 0.56494(25) 0.29806(22) 0.0234 Uiso
C4 C 0.28499(27) 0.56802(29) 0.33754(33) 0.0234 Uiso
N4 N 0.46122(21) 0.68308(28) 0.28256(25) 0.0234 Uiso
N5 N 0.46249(21) 0.70715(23) 0.30913(27) 0.0234 Uiso
C5 C 0.41604(23) 0.67460(31) 0.31760(29) 0.0234 Uiso
C6 C 0.38357(20) 0.66074(33) 0.33837(33) 0.0234 Uiso
C7 C 0.36588(25) 0.63007(27) 0.32176(21) 0.0234 Uiso
N6 N 0.43506(25) 0.70194(22) 0.33241(28) 0.0234 Uiso
C8 C 0.43198(29) 0.66246(33) 0.28499(27) 0.0234 Uiso
N7 N 0.31692(28) 0.71744(25) 0.46122(21) 0.0234 Uiso
N8 N 0.29285(23) 0.69087(27) 0.46249(21) 0.0234 Uiso
C9 C 0.32540(31) 0.68240(29) 0.41604(23) 0.0234 Uiso
C10 C 0.33926(33) 0.66163(33) 0.38357(20) 0.0234 Uiso
C11 C 0.36993(27) 0.67824(21) 0.36588(25) 0.0234 Uiso
N9 N 0.29806(22) 0.66759(28) 0.43506(25) 0.0234 Uiso
C12 C 0.33754(33) 0.71501(27) 0.43198(29) 0.0234 Uiso
Cu2 Cu 0.500 0.68489(4) 0.24457(5) 0.0064 Uiso
N10 N 0.53878(21) 0.68308(28) 0.28256(25) 0.0234 Uiso
N11 N 0.53751(21) 0.70715(23) 0.30913(27) 0.0234 Uiso
C13 C 0.58396(23) 0.67460(31) 0.31760(29) 0.0234 Uiso
C14 C 0.61643(20) 0.66074(33) 0.33837(33) 0.0234 Uiso
C15 C 0.63412(25) 0.63007(27) 0.32176(21) 0.0234 Uiso
N12 N 0.56494(25) 0.70194(22) 0.33241(28) 0.0234 Uiso
C16 C 0.56802(29) 0.66246(33) 0.28499(27) 0.0234 Uiso
N13 N 0.68308(28) 0.71744(25) 0.46122(21) 0.0234 Uiso
N14 N 0.70715(23) 0.69087(27) 0.46249(21) 0.0234 Uiso
C17 C 0.67460(31) 0.68240(29) 0.41604(23) 0.0234 Uiso
C18 C 0.66074(33) 0.66163(33) 0.38357(20) 0.0234 Uiso
C19 C 0.63007(27) 0.67824(21) 0.36588(25) 0.0234 Uiso
N15 N 0.70194(22) 0.66759(28) 0.43506(25) 0.0234 Uiso
C20 C 0.66246(33) 0.71501(27) 0.43198(29) 0.0234 Uiso
N16 N 0.71744(25) 0.53878(21) 0.31692(28) 0.0234 Uiso
N17 N 0.69087(27) 0.53751(21) 0.29285(23) 0.0234 Uiso
C21 C 0.68240(29) 0.58396(23) 0.32540(31) 0.0234 Uiso
C22 C 0.66163(33) 0.61643(20) 0.33926(33) 0.0234 Uiso
C23 C 0.67824(21) 0.63412(25) 0.36993(27) 0.0234 Uiso
N18 N 0.66759(28) 0.56494(25) 0.29806(22) 0.0234 Uiso
C24 C 0.71501(27) 0.56802(29) 0.33754(33) 0.0234 Uiso
Cu3 Cu 0.31511(4) 0.500 0.25543(5) 0.0064 Uiso
Cu4 Cu 0.68489(4) 0.75543(5) 0.500 0.0064 Uiso
Cu5 Cu 0.75543(5) 0.500 0.31511(4) 0.0064 Uiso
Cu6 Cu 0.31511(4) 0.75543(5) 0.500 0.0064 Uiso
Cu7 Cu 0.500 0.74457(5) 0.31511(4) 0.0064 Uiso
Cu8 Cu 0.68489(4) 0.500 0.25543(5) 0.0064 Uiso
Cu9 Cu 0.74457(5) 0.68489(4) 0.500 0.0064 Uiso
Cu10 Cu 0.25543(5) 0.68489(4) 0.500 0.0064 Uiso
N19 N 0.28256(25) 0.46122(21) 0.31692(28) 0.0234 Uiso
N20 N 0.31692(28) 0.46122(21) 0.21744(25) 0.0234 Uiso
N21 N 0.31692(28) 0.53878(21) 0.21744(25) 0.0234 Uiso
N22 N 0.20715(23) 0.53751(21) 0.30913(27) 0.0234 Uiso
N23 N 0.20715(23) 0.46249(21) 0.30913(27) 0.0234 Uiso
N24 N 0.53751(21) 0.69087(27) 0.20715(23) 0.0234 Uiso
N25 N 0.30913(27) 0.46249(21) 0.29285(23) 0.0234 Uiso
N26 N 0.46249(21) 0.69087(27) 0.20715(23) 0.0234 Uiso
H1 H 0.266596 0.577375 0.358465 . .
H2 H 0.296113 0.625029 0.381035 . .
H3 H 0.641535 0.733404 0.422625 . .
H4 H 0.625029 0.618965 0.296113 . .
H5 H 0.703887 0.625029 0.381035 . .
H6 H 0.577375 0.641535 0.266596 . .
H7 H 0.358465 0.733404 0.422625 . .
H8 H 0.618965 0.703887 0.374971 . .
H9 H 0.374971 0.618965 0.296113 . .
H10 H 0.422625 0.641535 0.266596 . .
H11 H 0.381035 0.703887 0.374971 . .
H12 H 0.733404 0.577375 0.358465 . .
Cu1_2 Cu 0.31511(4) 0.24457(5) 0.500 0.0064 Uiso
N1_2 N 0.31692(28) 0.28256(25) 0.53878(21) 0.0234 Uiso
N2_2 N 0.29285(23) 0.30913(27) 0.53751(21) 0.0234 Uiso
C1_2 C 0.32540(31) 0.31760(29) 0.58396(23) 0.0234 Uiso
C2_2 C 0.33926(33) 0.33837(33) 0.61643(20) 0.0234 Uiso
C3_2 C 0.36993(27) 0.32176(21) 0.63412(25) 0.0234 Uiso
N3_2 N 0.29806(22) 0.33241(28) 0.56494(25) 0.0234 Uiso
C4_2 C 0.33754(33) 0.28499(27) 0.56802(29) 0.0234 Uiso
N4_2 N 0.28256(25) 0.46122(21) 0.68308(28) 0.0234 Uiso
N5_2 N 0.30913(27) 0.46249(21) 0.70715(23) 0.0234 Uiso
C5_2 C 0.31760(29) 0.41604(23) 0.67460(31) 0.0234 Uiso
C6_2 C 0.33837(33) 0.38357(20) 0.66074(33) 0.0234 Uiso
C7_2 C 0.32176(21) 0.36588(25) 0.63007(27) 0.0234 Uiso
N6_2 N 0.33241(28) 0.43506(25) 0.70194(22) 0.0234 Uiso
C8_2 C 0.28499(27) 0.43198(29) 0.66246(33) 0.0234 Uiso
N7_2 N 0.46122(21) 0.31692(28) 0.71744(25) 0.0234 Uiso
N8_2 N 0.46249(21) 0.29285(23) 0.69087(27) 0.0234 Uiso
C9_2 C 0.41604(23) 0.32540(31) 0.68240(29) 0.0234 Uiso
C10_2 C 0.38357(20) 0.33926(33) 0.66163(33) 0.0234 Uiso
C11_2 C 0.36588(25) 0.36993(27) 0.67824(21) 0.0234 Uiso
N9_2 N 0.43506(25) 0.29806(22) 0.66759(28) 0.0234 Uiso
C12_2 C 0.43198(29) 0.33754(33) 0.71501(27) 0.0234 Uiso
Cu2_2 Cu 0.24457(5) 0.500 0.68489(4) 0.0064 Uiso
N10_2 N 0.28256(25) 0.53878(21) 0.68308(28) 0.0234 Uiso
N11_2 N 0.30913(27) 0.53751(21) 0.70715(23) 0.0234 Uiso
C13_2 C 0.31760(29) 0.58396(23) 0.67460(31) 0.0234 Uiso
C14_2 C 0.33837(33) 0.61643(20) 0.66074(33) 0.0234 Uiso
C15_2 C 0.32176(21) 0.63412(25) 0.63007(27) 0.0234 Uiso
N12_2 N 0.33241(28) 0.56494(25) 0.70194(22) 0.0234 Uiso
C16_2 C 0.28499(27) 0.56802(29) 0.66246(33) 0.0234 Uiso
N13_2 N 0.46122(21) 0.68308(28) 0.71744(25) 0.0234 Uiso
N14_2 N 0.46249(21) 0.70715(23) 0.69087(27) 0.0234 Uiso
C17_2 C 0.41604(23) 0.67460(31) 0.68240(29) 0.0234 Uiso
C18_2 C 0.38357(20) 0.66074(33) 0.66163(33) 0.0234 Uiso
C19_2 C 0.36588(25) 0.63007(27) 0.67824(21) 0.0234 Uiso
N15_2 N 0.43506(25) 0.70194(22) 0.66759(28) 0.0234 Uiso
C20_2 C 0.43198(29) 0.66246(33) 0.71501(27) 0.0234 Uiso
N16_2 N 0.31692(28) 0.71744(25) 0.53878(21) 0.0234 Uiso
N17_2 N 0.29285(23) 0.69087(27) 0.53751(21) 0.0234 Uiso
C21_2 C 0.32540(31) 0.68240(29) 0.58396(23) 0.0234 Uiso
C22_2 C 0.33926(33) 0.66163(33) 0.61643(20) 0.0234 Uiso
C23_2 C 0.36993(27) 0.67824(21) 0.63412(25) 0.0234 Uiso
N18_2 N 0.29806(22) 0.66759(28) 0.56494(25) 0.0234 Uiso
C24_2 C 0.33754(33) 0.71501(27) 0.56802(29) 0.0234 Uiso
Cu3_2 Cu 0.25543(5) 0.31511(4) 0.500 0.0064 Uiso
Cu4_2 Cu 0.500 0.68489(4) 0.75543(5) 0.0064 Uiso
Cu6_2 Cu 0.500 0.31511(4) 0.75543(5) 0.0064 Uiso
Cu7_2 Cu 0.31511(4) 0.500 0.74457(5) 0.0064 Uiso
Cu9_2 Cu 0.500 0.74457(5) 0.68489(4) 0.0064 Uiso
Cu10_2 Cu 0.500 0.25543(5) 0.68489(4) 0.0064 Uiso
N19_2 N 0.31692(28) 0.28256(25) 0.46122(21) 0.0234 Uiso
N20_2 N 0.21744(25) 0.31692(28) 0.46122(21) 0.0234 Uiso
N21_2 N 0.21744(25) 0.31692(28) 0.53878(21) 0.0234 Uiso
N22_2 N 0.30913(27) 0.20715(23) 0.53751(21) 0.0234 Uiso
N23_2 N 0.30913(27) 0.20715(23) 0.46249(21) 0.0234 Uiso
N24_2 N 0.20715(23) 0.53751(21) 0.69087(27) 0.0234 Uiso
N25_2 N 0.29285(23) 0.30913(27) 0.46249(21) 0.0234 Uiso
N26_2 N 0.20715(23) 0.46249(21) 0.69087(27) 0.0234 Uiso
H1_2 H 0.358465 0.266596 0.577375 . .
H2_2 H 0.381035 0.296113 0.625029 . .
H3_2 H 0.422625 0.641535 0.733404 . .
H4_2 H 0.296113 0.625029 0.618965 . .
H5_2 H 0.381035 0.703887 0.625029 . .
H6_2 H 0.266596 0.577375 0.641535 . .
H7_2 H 0.422625 0.358465 0.733404 . .
H8_2 H 0.374971 0.618965 0.703887 . .
H9_2 H 0.296113 0.374971 0.618965 . .
H10_2 H 0.266596 0.422625 0.641535 . .
H11_2 H 0.374971 0.381035 0.703887 . .
H12_2 H 0.358465 0.733404 0.577375 . .
Cu1_3 Cu 0.500 0.31511(4) 0.24457(5) 0.0064 Uiso
N1_3 N 0.53878(21) 0.31692(28) 0.28256(25) 0.0234 Uiso
N2_3 N 0.53751(21) 0.29285(23) 0.30913(27) 0.0234 Uiso
C1_3 C 0.58396(23) 0.32540(31) 0.31760(29) 0.0234 Uiso
C2_3 C 0.61643(20) 0.33926(33) 0.33837(33) 0.0234 Uiso
C3_3 C 0.63412(25) 0.36993(27) 0.32176(21) 0.0234 Uiso
N3_3 N 0.56494(25) 0.29806(22) 0.33241(28) 0.0234 Uiso
C4_3 C 0.56802(29) 0.33754(33) 0.28499(27) 0.0234 Uiso
N4_3 N 0.68308(28) 0.28256(25) 0.46122(21) 0.0234 Uiso
N5_3 N 0.70715(23) 0.30913(27) 0.46249(21) 0.0234 Uiso
C5_3 C 0.67460(31) 0.31760(29) 0.41604(23) 0.0234 Uiso
C6_3 C 0.66074(33) 0.33837(33) 0.38357(20) 0.0234 Uiso
C7_3 C 0.63007(27) 0.32176(21) 0.36588(25) 0.0234 Uiso
N6_3 N 0.70194(22) 0.33241(28) 0.43506(25) 0.0234 Uiso
C8_3 C 0.66246(33) 0.28499(27) 0.43198(29) 0.0234 Uiso
N7_3 N 0.71744(25) 0.46122(21) 0.31692(28) 0.0234 Uiso
N8_3 N 0.69087(27) 0.46249(21) 0.29285(23) 0.0234 Uiso
C9_3 C 0.68240(29) 0.41604(23) 0.32540(31) 0.0234 Uiso
C10_3 C 0.66163(33) 0.38357(20) 0.33926(33) 0.0234 Uiso
C11_3 C 0.67824(21) 0.36588(25) 0.36993(27) 0.0234 Uiso
N9_3 N 0.66759(28) 0.43506(25) 0.29806(22) 0.0234 Uiso
C12_3 C 0.71501(27) 0.43198(29) 0.33754(33) 0.0234 Uiso
Cu2_3 Cu 0.68489(4) 0.24457(5) 0.500 0.0064 Uiso
N10_3 N 0.68308(28) 0.28256(25) 0.53878(21) 0.0234 Uiso
N11_3 N 0.70715(23) 0.30913(27) 0.53751(21) 0.0234 Uiso
C13_3 C 0.67460(31) 0.31760(29) 0.58396(23) 0.0234 Uiso
C14_3 C 0.66074(33) 0.33837(33) 0.61643(20) 0.0234 Uiso
C15_3 C 0.63007(27) 0.32176(21) 0.63412(25) 0.0234 Uiso
N12_3 N 0.70194(22) 0.33241(28) 0.56494(25) 0.0234 Uiso
C16_3 C 0.66246(33) 0.28499(27) 0.56802(29) 0.0234 Uiso
N13_3 N 0.71744(25) 0.46122(21) 0.68308(28) 0.0234 Uiso
N14_3 N 0.69087(27) 0.46249(21) 0.70715(23) 0.0234 Uiso
C17_3 C 0.68240(29) 0.41604(23) 0.67460(31) 0.0234 Uiso
C18_3 C 0.66163(33) 0.38357(20) 0.66074(33) 0.0234 Uiso
C19_3 C 0.67824(21) 0.36588(25) 0.63007(27) 0.0234 Uiso
N15_3 N 0.66759(28) 0.43506(25) 0.70194(22) 0.0234 Uiso
C20_3 C 0.71501(27) 0.43198(29) 0.66246(33) 0.0234 Uiso
N16_3 N 0.53878(21) 0.31692(28) 0.71744(25) 0.0234 Uiso
N17_3 N 0.53751(21) 0.29285(23) 0.69087(27) 0.0234 Uiso
C21_3 C 0.58396(23) 0.32540(31) 0.68240(29) 0.0234 Uiso
C22_3 C 0.61643(20) 0.33926(33) 0.66163(33) 0.0234 Uiso
C23_3 C 0.63412(25) 0.36993(27) 0.67824(21) 0.0234 Uiso
N18_3 N 0.56494(25) 0.29806(22) 0.66759(28) 0.0234 Uiso
C24_3 C 0.56802(29) 0.33754(33) 0.71501(27) 0.0234 Uiso
Cu3_3 Cu 0.500 0.25543(5) 0.31511(4) 0.0064 Uiso
Cu4_3 Cu 0.75543(5) 0.500 0.68489(4) 0.0064 Uiso
Cu7_3 Cu 0.74457(5) 0.31511(4) 0.500 0.0064 Uiso
Cu9_3 Cu 0.68489(4) 0.500 0.74457(5) 0.0064 Uiso
N19_3 N 0.46122(21) 0.31692(28) 0.28256(25) 0.0234 Uiso
N20_3 N 0.46122(21) 0.21744(25) 0.31692(28) 0.0234 Uiso
N21_3 N 0.53878(21) 0.21744(25) 0.31692(28) 0.0234 Uiso
N22_3 N 0.53751(21) 0.30913(27) 0.20715(23) 0.0234 Uiso
N23_3 N 0.46249(21) 0.30913(27) 0.20715(23) 0.0234 Uiso
N24_3 N 0.69087(27) 0.20715(23) 0.53751(21) 0.0234 Uiso
N25_3 N 0.46249(21) 0.29285(23) 0.30913(27) 0.0234 Uiso
N26_3 N 0.69087(27) 0.20715(23) 0.46249(21) 0.0234 Uiso
H1_3 H 0.577375 0.358465 0.266596 . .
H2_3 H 0.625029 0.381035 0.296113 . .
H3_3 H 0.733404 0.422625 0.641535 . .
H4_3 H 0.618965 0.296113 0.625029 . .
H5_3 H 0.625029 0.381035 0.703887 . .
H6_3 H 0.641535 0.266596 0.577375 . .
H7_3 H 0.733404 0.422625 0.358465 . .
H8_3 H 0.703887 0.374971 0.618965 . .
H9_3 H 0.618965 0.296113 0.374971 . .
H10_3 H 0.641535 0.266596 0.422625 . .
H11_3 H 0.703887 0.374971 0.381035 . .
H12_3 H 0.577375 0.358465 0.733404 . .
N20_4 N 0.78256(25) 0.31692(28) 0.53878(21) 0.0234 Uiso
N21_4 N 0.78256(25) 0.31692(28) 0.46122(21) 0.0234 Uiso
N24_4 N 0.79285(23) 0.53751(21) 0.30913(27) 0.0234 Uiso
N26_4 N 0.79285(23) 0.46249(21) 0.30913(27) 0.0234 Uiso
N20_5 N 0.53878(21) 0.78256(25) 0.31692(28) 0.0234 Uiso
N21_5 N 0.46122(21) 0.78256(25) 0.31692(28) 0.0234 Uiso
N24_5 N 0.30913(27) 0.79285(23) 0.53751(21) 0.0234 Uiso
N26_5 N 0.30913(27) 0.79285(23) 0.46249(21) 0.0234 Uiso
N1_4 N 0.53878(21) 0.68308(28) 0.71744(25) 0.0234 Uiso
N2_4 N 0.53751(21) 0.70715(23) 0.69087(27) 0.0234 Uiso
C1_4 C 0.58396(23) 0.67460(31) 0.68240(29) 0.0234 Uiso
C2_4 C 0.61643(20) 0.66074(33) 0.66163(33) 0.0234 Uiso
C3_4 C 0.63412(25) 0.63007(27) 0.67824(21) 0.0234 Uiso
N3_4 N 0.56494(25) 0.70194(22) 0.66759(28) 0.0234 Uiso
C4_4 C 0.56802(29) 0.66246(33) 0.71501(27) 0.0234 Uiso
N4_4 N 0.68308(28) 0.71744(25) 0.53878(21) 0.0234 Uiso
N5_4 N 0.70715(23) 0.69087(27) 0.53751(21) 0.0234 Uiso
C5_4 C 0.67460(31) 0.68240(29) 0.58396(23) 0.0234 Uiso
C6_4 C 0.66074(33) 0.66163(33) 0.61643(20) 0.0234 Uiso
C7_4 C 0.63007(27) 0.67824(21) 0.63412(25) 0.0234 Uiso
N6_4 N 0.70194(22) 0.66759(28) 0.56494(25) 0.0234 Uiso
C8_4 C 0.66246(33) 0.71501(27) 0.56802(29) 0.0234 Uiso
N7_4 N 0.71744(25) 0.53878(21) 0.68308(28) 0.0234 Uiso
N8_4 N 0.69087(27) 0.53751(21) 0.70715(23) 0.0234 Uiso
C9_4 C 0.68240(29) 0.58396(23) 0.67460(31) 0.0234 Uiso
C10_4 C 0.66163(33) 0.61643(20) 0.66074(33) 0.0234 Uiso
C11_4 C 0.67824(21) 0.63412(25) 0.63007(27) 0.0234 Uiso
N9_4 N 0.66759(28) 0.56494(25) 0.70194(22) 0.0234 Uiso
C12_4 C 0.71501(27) 0.56802(29) 0.66246(33) 0.0234 Uiso
N20_6 N 0.46122(21) 0.78256(25) 0.68308(28) 0.0234 Uiso
N21_6 N 0.53878(21) 0.78256(25) 0.68308(28) 0.0234 Uiso
N22_4 N 0.53751(21) 0.69087(27) 0.79285(23) 0.0234 Uiso
N23_4 N 0.46249(21) 0.69087(27) 0.79285(23) 0.0234 Uiso
N24_6 N 0.69087(27) 0.79285(23) 0.46249(21) 0.0234 Uiso
N26_6 N 0.69087(27) 0.79285(23) 0.53751(21) 0.0234 Uiso
H1_4 H 0.577375 0.641535 0.733404 . .
H2_4 H 0.625029 0.618965 0.703887 . .
H7_4 H 0.733404 0.577375 0.641535 . .
H9_4 H 0.618965 0.703887 0.625029 . .
H10_4 H 0.641535 0.733404 0.577375 . .
H11_4 H 0.703887 0.625029 0.618965 . .
N20_7 N 0.68308(28) 0.46122(21) 0.78256(25) 0.0234 Uiso
N21_7 N 0.68308(28) 0.53878(21) 0.78256(25) 0.0234 Uiso
N22_5 N 0.79285(23) 0.53751(21) 0.69087(27) 0.0234 Uiso
N23_5 N 0.79285(23) 0.46249(21) 0.69087(27) 0.0234 Uiso
N20_8 N 0.78256(25) 0.68308(28) 0.46122(21) 0.0234 Uiso
N21_8 N 0.78256(25) 0.68308(28) 0.53878(21) 0.0234 Uiso
N20_9 N 0.31692(28) 0.53878(21) 0.78256(25) 0.0234 Uiso
N21_9 N 0.31692(28) 0.46122(21) 0.78256(25) 0.0234 Uiso
N24_7 N 0.53751(21) 0.30913(27) 0.79285(23) 0.0234 Uiso
N26_7 N 0.46249(21) 0.30913(27) 0.79285(23) 0.0234 Uiso
Cu1_4 Cu 0.500 0.24457(5) 0.18489(4) 0.0064 Uiso
N1_5 N 0.53878(21) 0.28256(25) 0.18308(28) 0.0234 Uiso
C1_5 C 0.58396(23) 0.31760(29) 0.17460(31) 0.0234 Uiso
C2_5 C 0.61643(20) 0.33837(33) 0.16074(33) 0.0234 Uiso
C3_5 C 0.63412(25) 0.32176(21) 0.13007(27) 0.0234 Uiso
N3_5 N 0.56494(25) 0.33241(28) 0.20194(22) 0.0234 Uiso
C4_5 C 0.56802(29) 0.28499(27) 0.16246(33) 0.0234 Uiso
N4_5 N 0.68308(28) 0.46122(21) 0.21744(25) 0.0234 Uiso
N5_5 N 0.70715(23) 0.46249(21) 0.19087(27) 0.0234 Uiso
C5_5 C 0.67460(31) 0.41604(23) 0.18240(29) 0.0234 Uiso
C6_5 C 0.66074(33) 0.38357(20) 0.16163(33) 0.0234 Uiso
C7_5 C 0.63007(27) 0.36588(25) 0.17824(21) 0.0234 Uiso
N6_5 N 0.70194(22) 0.43506(25) 0.16759(28) 0.0234 Uiso
C8_5 C 0.66246(33) 0.43198(29) 0.21501(27) 0.0234 Uiso
N7_5 N 0.71744(25) 0.31692(28) 0.03878(21) 0.0234 Uiso
N8_5 N 0.69087(27) 0.29285(23) 0.03751(21) 0.0234 Uiso
C9_5 C 0.68240(29) 0.32540(31) 0.08396(23) 0.0234 Uiso
C10_5 C 0.66163(33) 0.33926(33) 0.11643(20) 0.0234 Uiso
C11_5 C 0.67824(21) 0.36993(27) 0.13412(25) 0.0234 Uiso
N9_5 N 0.66759(28) 0.29806(22) 0.06494(25) 0.0234 Uiso
C12_5 C 0.71501(27) 0.33754(33) 0.06802(29) 0.0234 Uiso
N10_4 N 0.68308(28) 0.53878(21) 0.21744(25) 0.0234 Uiso
N11_4 N 0.70715(23) 0.53751(21) 0.19087(27) 0.0234 Uiso
C13_4 C 0.67460(31) 0.58396(23) 0.18240(29) 0.0234 Uiso
C14_4 C 0.66074(33) 0.61643(20) 0.16163(33) 0.0234 Uiso
C15_4 C 0.63007(27) 0.63412(25) 0.17824(21) 0.0234 Uiso
N12_4 N 0.70194(22) 0.56494(25) 0.16759(28) 0.0234 Uiso
C16_4 C 0.66246(33) 0.56802(29) 0.21501(27) 0.0234 Uiso
N13_4 N 0.71744(25) 0.68308(28) 0.03878(21) 0.0234 Uiso
N14_4 N 0.69087(27) 0.70715(23) 0.03751(21) 0.0234 Uiso
C17_4 C 0.68240(29) 0.67460(31) 0.08396(23) 0.0234 Uiso
C18_4 C 0.66163(33) 0.66074(33) 0.11643(20) 0.0234 Uiso
C19_4 C 0.67824(21) 0.63007(27) 0.13412(25) 0.0234 Uiso
N15_4 N 0.66759(28) 0.70194(22) 0.06494(25) 0.0234 Uiso
C20_4 C 0.71501(27) 0.66246(33) 0.06802(29) 0.0234 Uiso
N16_4 N 0.53878(21) 0.71744(25) 0.18308(28) 0.0234 Uiso
C21_4 C 0.58396(23) 0.68240(29) 0.17460(31) 0.0234 Uiso
C22_4 C 0.61643(20) 0.66163(33) 0.16074(33) 0.0234 Uiso
C23_4 C 0.63412(25) 0.67824(21) 0.13007(27) 0.0234 Uiso
N18_4 N 0.56494(25) 0.66759(28) 0.20194(22) 0.0234 Uiso
C24_4 C 0.56802(29) 0.71501(27) 0.16246(33) 0.0234 Uiso
Cu4_4 Cu 0.75543(5) 0.68489(4) 0.000 0.0064 Uiso
Cu5_2 Cu 0.500 0.75543(5) 0.18489(4) 0.0064 Uiso
Cu6_3 Cu 0.75543(5) 0.31511(4) 0.000 0.0064 Uiso
Cu7_4 Cu 0.74457(5) 0.500 0.18489(4) 0.0064 Uiso
Cu9_4 Cu 0.68489(4) 0.74457(5) 0.000 0.0064 Uiso
Cu10_3 Cu 0.68489(4) 0.25543(5) 0.000 0.0064 Uiso
N19_4 N 0.46122(21) 0.28256(25) 0.18308(28) 0.0234 Uiso
N22_6 N 0.53751(21) 0.20715(23) 0.19087(27) 0.0234 Uiso
N23_6 N 0.46249(21) 0.20715(23) 0.19087(27) 0.0234 Uiso
H1_5 H 0.577375 0.266596 0.141535 . .
H2_5 H 0.625029 0.296113 0.118965 . .
H3_4 H 0.733404 0.641535 0.0773755 . .
H4_4 H 0.618965 0.625029 0.203887 . .
H5_4 H 0.625029 0.703887 0.118965 . .
H6_4 H 0.641535 0.577375 0.233404 . .
H7_5 H 0.733404 0.358465 0.0773755 . .
H8_4 H 0.703887 0.618965 0.125029 . .
H9_5 H 0.618965 0.374971 0.203887 . .
H10_5 H 0.641535 0.422625 0.233404 . .
H11_5 H 0.703887 0.381035 0.125029 . .
H12_4 H 0.577375 0.733404 0.141535 . .
Cu4_5 Cu 0.75543(5) 0.68489(4) 1.000 0.0064 Uiso
Cu6_4 Cu 0.75543(5) 0.31511(4) 1.000 0.0064 Uiso
Cu9_5 Cu 0.68489(4) 0.74457(5) 1.000 0.0064 Uiso
Cu10_4 Cu 0.68489(4) 0.25543(5) 1.000 0.0064 Uiso
Cu1_5 Cu 0.18489(4) 0.500 0.24457(5) 0.0064 Uiso
N1_6 N 0.18308(28) 0.53878(21) 0.28256(25) 0.0234 Uiso
C1_6 C 0.17460(31) 0.58396(23) 0.31760(29) 0.0234 Uiso
C2_6 C 0.16074(33) 0.61643(20) 0.33837(33) 0.0234 Uiso
C3_6 C 0.13007(27) 0.63412(25) 0.32176(21) 0.0234 Uiso
N3_6 N 0.20194(22) 0.56494(25) 0.33241(28) 0.0234 Uiso
C4_6 C 0.16246(33) 0.56802(29) 0.28499(27) 0.0234 Uiso
N4_6 N 0.21744(25) 0.68308(28) 0.46122(21) 0.0234 Uiso
N5_6 N 0.19087(27) 0.70715(23) 0.46249(21) 0.0234 Uiso
C5_6 C 0.18240(29) 0.67460(31) 0.41604(23) 0.0234 Uiso
C6_6 C 0.16163(33) 0.66074(33) 0.38357(20) 0.0234 Uiso
C7_6 C 0.17824(21) 0.63007(27) 0.36588(25) 0.0234 Uiso
N6_6 N 0.16759(28) 0.70194(22) 0.43506(25) 0.0234 Uiso
C8_6 C 0.21501(27) 0.66246(33) 0.43198(29) 0.0234 Uiso
N7_6 N 0.03878(21) 0.71744(25) 0.31692(28) 0.0234 Uiso
N8_6 N 0.03751(21) 0.69087(27) 0.29285(23) 0.0234 Uiso
C9_6 C 0.08396(23) 0.68240(29) 0.32540(31) 0.0234 Uiso
C10_6 C 0.11643(20) 0.66163(33) 0.33926(33) 0.0234 Uiso
C11_6 C 0.13412(25) 0.67824(21) 0.36993(27) 0.0234 Uiso
N9_6 N 0.06494(25) 0.66759(28) 0.29806(22) 0.0234 Uiso
C12_6 C 0.06802(29) 0.71501(27) 0.33754(33) 0.0234 Uiso
N10_5 N 0.21744(25) 0.68308(28) 0.53878(21) 0.0234 Uiso
N11_5 N 0.19087(27) 0.70715(23) 0.53751(21) 0.0234 Uiso
C13_5 C 0.18240(29) 0.67460(31) 0.58396(23) 0.0234 Uiso
C14_5 C 0.16163(33) 0.66074(33) 0.61643(20) 0.0234 Uiso
C15_5 C 0.17824(21) 0.63007(27) 0.63412(25) 0.0234 Uiso
N12_5 N 0.16759(28) 0.70194(22) 0.56494(25) 0.0234 Uiso
C16_5 C 0.21501(27) 0.66246(33) 0.56802(29) 0.0234 Uiso
N13_5 N 0.03878(21) 0.71744(25) 0.68308(28) 0.0234 Uiso
N14_5 N 0.03751(21) 0.69087(27) 0.70715(23) 0.0234 Uiso
C17_5 C 0.08396(23) 0.68240(29) 0.67460(31) 0.0234 Uiso
C18_5 C 0.11643(20) 0.66163(33) 0.66074(33) 0.0234 Uiso
C19_5 C 0.13412(25) 0.67824(21) 0.63007(27) 0.0234 Uiso
N15_5 N 0.06494(25) 0.66759(28) 0.70194(22) 0.0234 Uiso
C20_5 C 0.06802(29) 0.71501(27) 0.66246(33) 0.0234 Uiso
N16_5 N 0.18308(28) 0.53878(21) 0.71744(25) 0.0234 Uiso
C21_5 C 0.17460(31) 0.58396(23) 0.68240(29) 0.0234 Uiso
C22_5 C 0.16074(33) 0.61643(20) 0.66163(33) 0.0234 Uiso
C23_5 C 0.13007(27) 0.63412(25) 0.67824(21) 0.0234 Uiso
N18_5 N 0.20194(22) 0.56494(25) 0.66759(28) 0.0234 Uiso
C24_5 C 0.16246(33) 0.56802(29) 0.71501(27) 0.0234 Uiso
Cu4_6 Cu 0.000 0.75543(5) 0.68489(4) 0.0064 Uiso
Cu5_3 Cu 0.18489(4) 0.500 0.75543(5) 0.0064 Uiso
Cu6_5 Cu 0.000 0.75543(5) 0.31511(4) 0.0064 Uiso
Cu7_5 Cu 0.18489(4) 0.74457(5) 0.500 0.0064 Uiso
Cu9_6 Cu 0.000 0.68489(4) 0.74457(5) 0.0064 Uiso
Cu10_5 Cu 0.000 0.68489(4) 0.25543(5) 0.0064 Uiso
N19_5 N 0.18308(28) 0.46122(21) 0.28256(25) 0.0234 Uiso
N22_7 N 0.19087(27) 0.53751(21) 0.20715(23) 0.0234 Uiso
N23_7 N 0.19087(27) 0.46249(21) 0.20715(23) 0.0234 Uiso
H1_6 H 0.141535 0.577375 0.266596 . .
H2_6 H 0.118965 0.625029 0.296113 . .
H3_5 H 0.0773755 0.733404 0.641535 . .
H4_5 H 0.203887 0.618965 0.625029 . .
H5_5 H 0.118965 0.625029 0.703887 . .
H6_5 H 0.233404 0.641535 0.577375 . .
H7_6 H 0.0773755 0.733404 0.358465 . .
H8_5 H 0.125029 0.703887 0.618965 . .
H9_6 H 0.203887 0.618965 0.374971 . .
H10_6 H 0.233404 0.641535 0.422625 . .
H11_6 H 0.125029 0.703887 0.381035 . .
H12_5 H 0.141535 0.577375 0.733404 . .
Cu4_7 Cu 1.000 0.75543(5) 0.68489(4) 0.0064 Uiso
Cu6_6 Cu 1.000 0.75543(5) 0.31511(4) 0.0064 Uiso
Cu9_7 Cu 1.000 0.68489(4) 0.74457(5) 0.0064 Uiso
Cu10_6 Cu 1.000 0.68489(4) 0.25543(5) 0.0064 Uiso
Cu1_6 Cu 0.24457(5) 0.18489(4) 0.500 0.0064 Uiso
N1_7 N 0.28256(25) 0.18308(28) 0.53878(21) 0.0234 Uiso
C1_7 C 0.31760(29) 0.17460(31) 0.58396(23) 0.0234 Uiso
C2_7 C 0.33837(33) 0.16074(33) 0.61643(20) 0.0234 Uiso
C3_7 C 0.32176(21) 0.13007(27) 0.63412(25) 0.0234 Uiso
N3_7 N 0.33241(28) 0.20194(22) 0.56494(25) 0.0234 Uiso
C4_7 C 0.28499(27) 0.16246(33) 0.56802(29) 0.0234 Uiso
N4_7 N 0.46122(21) 0.21744(25) 0.68308(28) 0.0234 Uiso
N5_7 N 0.46249(21) 0.19087(27) 0.70715(23) 0.0234 Uiso
C5_7 C 0.41604(23) 0.18240(29) 0.67460(31) 0.0234 Uiso
C6_7 C 0.38357(20) 0.16163(33) 0.66074(33) 0.0234 Uiso
C7_7 C 0.36588(25) 0.17824(21) 0.63007(27) 0.0234 Uiso
N6_7 N 0.43506(25) 0.16759(28) 0.70194(22) 0.0234 Uiso
C8_7 C 0.43198(29) 0.21501(27) 0.66246(33) 0.0234 Uiso
N7_7 N 0.31692(28) 0.03878(21) 0.71744(25) 0.0234 Uiso
N8_7 N 0.29285(23) 0.03751(21) 0.69087(27) 0.0234 Uiso
C9_7 C 0.32540(31) 0.08396(23) 0.68240(29) 0.0234 Uiso
C10_7 C 0.33926(33) 0.11643(20) 0.66163(33) 0.0234 Uiso
C11_7 C 0.36993(27) 0.13412(25) 0.67824(21) 0.0234 Uiso
N9_7 N 0.29806(22) 0.06494(25) 0.66759(28) 0.0234 Uiso
C12_7 C 0.33754(33) 0.06802(29) 0.71501(27) 0.0234 Uiso
N10_6 N 0.53878(21) 0.21744(25) 0.68308(28) 0.0234 Uiso
N11_6 N 0.53751(21) 0.19087(27) 0.70715(23) 0.0234 Uiso
C13_6 C 0.58396(23) 0.18240(29) 0.67460(31) 0.0234 Uiso
C14_6 C 0.61643(20) 0.16163(33) 0.66074(33) 0.0234 Uiso
C15_6 C 0.63412(25) 0.17824(21) 0.63007(27) 0.0234 Uiso
N12_6 N 0.56494(25) 0.16759(28) 0.70194(22) 0.0234 Uiso
C16_6 C 0.56802(29) 0.21501(27) 0.66246(33) 0.0234 Uiso
N13_6 N 0.68308(28) 0.03878(21) 0.71744(25) 0.0234 Uiso
N14_6 N 0.70715(23) 0.03751(21) 0.69087(27) 0.0234 Uiso
C17_6 C 0.67460(31) 0.08396(23) 0.68240(29) 0.0234 Uiso
C18_6 C 0.66074(33) 0.11643(20) 0.66163(33) 0.0234 Uiso
C19_6 C 0.63007(27) 0.13412(25) 0.67824(21) 0.0234 Uiso
N15_6 N 0.70194(22) 0.06494(25) 0.66759(28) 0.0234 Uiso
C20_6 C 0.66246(33) 0.06802(29) 0.71501(27) 0.0234 Uiso
N16_6 N 0.71744(25) 0.18308(28) 0.53878(21) 0.0234 Uiso
C21_6 C 0.68240(29) 0.17460(31) 0.58396(23) 0.0234 Uiso
C22_6 C 0.66163(33) 0.16074(33) 0.61643(20) 0.0234 Uiso
C23_6 C 0.67824(21) 0.13007(27) 0.63412(25) 0.0234 Uiso
N18_6 N 0.66759(28) 0.20194(22) 0.56494(25) 0.0234 Uiso
C24_6 C 0.71501(27) 0.16246(33) 0.56802(29) 0.0234 Uiso
Cu4_8 Cu 0.68489(4) 0.000 0.75543(5) 0.0064 Uiso
Cu5_4 Cu 0.75543(5) 0.18489(4) 0.500 0.0064 Uiso
Cu6_7 Cu 0.31511(4) 0.000 0.75543(5) 0.0064 Uiso
Cu7_6 Cu 0.500 0.18489(4) 0.74457(5) 0.0064 Uiso
Cu9_8 Cu 0.74457(5) 0.000 0.68489(4) 0.0064 Uiso
Cu10_7 Cu 0.25543(5) 0.000 0.68489(4) 0.0064 Uiso
N19_6 N 0.28256(25) 0.18308(28) 0.46122(21) 0.0234 Uiso
N22_8 N 0.20715(23) 0.19087(27) 0.53751(21) 0.0234 Uiso
N23_8 N 0.20715(23) 0.19087(27) 0.46249(21) 0.0234 Uiso
H1_7 H 0.266596 0.141535 0.577375 . .
H2_7 H 0.296113 0.118965 0.625029 . .
H3_6 H 0.641535 0.0773755 0.733404 . .
H4_6 H 0.625029 0.203887 0.618965 . .
H5_6 H 0.703887 0.118965 0.625029 . .
H6_6 H 0.577375 0.233404 0.641535 . .
H7_7 H 0.358465 0.0773755 0.733404 . .
H8_6 H 0.618965 0.125029 0.703887 . .
H9_7 H 0.374971 0.203887 0.618965 . .
H10_7 H 0.422625 0.233404 0.641535 . .
H11_7 H 0.381035 0.125029 0.703887 . .
H12_6 H 0.733404 0.141535 0.577375 . .
Cu4_9 Cu 0.68489(4) 1.000 0.75543(5) 0.0064 Uiso
Cu6_8 Cu 0.31511(4) 1.000 0.75543(5) 0.0064 Uiso
Cu9_9 Cu 0.74457(5) 1.000 0.68489(4) 0.0064 Uiso
Cu10_8 Cu 0.25543(5) 1.000 0.68489(4) 0.0064 Uiso
C13_7 C 0.41604(23) 0.32540(31) 0.31760(29) 0.0234 Uiso
C14_7 C 0.38357(20) 0.33926(33) 0.33837(33) 0.0234 Uiso
C15_7 C 0.36588(25) 0.36993(27) 0.32176(21) 0.0234 Uiso
N12_7 N 0.43506(25) 0.29806(22) 0.33241(28) 0.0234 Uiso
C16_7 C 0.43198(29) 0.33754(33) 0.28499(27) 0.0234 Uiso
C17_7 C 0.32540(31) 0.31760(29) 0.41604(23) 0.0234 Uiso
C18_7 C 0.33926(33) 0.33837(33) 0.38357(20) 0.0234 Uiso
C19_7 C 0.36993(27) 0.32176(21) 0.36588(25) 0.0234 Uiso
N15_7 N 0.29806(22) 0.33241(28) 0.43506(25) 0.0234 Uiso
C20_7 C 0.33754(33) 0.28499(27) 0.43198(29) 0.0234 Uiso
C21_7 C 0.31760(29) 0.41604(23) 0.32540(31) 0.0234 Uiso
C22_7 C 0.33837(33) 0.38357(20) 0.33926(33) 0.0234 Uiso
C23_7 C 0.32176(21) 0.36588(25) 0.36993(27) 0.0234 Uiso
N18_7 N 0.33241(28) 0.43506(25) 0.29806(22) 0.0234 Uiso
C24_7 C 0.28499(27) 0.43198(29) 0.33754(33) 0.0234 Uiso
H3_7 H 0.358465 0.266596 0.422625 . .
H4_7 H 0.374971 0.381035 0.296113 . .
H5_7 H 0.296113 0.374971 0.381035 . .
H6_7 H 0.422625 0.358465 0.266596 . .
H8_7 H 0.381035 0.296113 0.374971 . .
H12_7 H 0.266596 0.422625 0.358465 . .
N1_8 N 0.46122(21) 0.71744(25) 0.18308(28) 0.0234 Uiso
C1_8 C 0.41604(23) 0.68240(29) 0.17460(31) 0.0234 Uiso
C2_8 C 0.38357(20) 0.66163(33) 0.16074(33) 0.0234 Uiso
C3_8 C 0.36588(25) 0.67824(21) 0.13007(27) 0.0234 Uiso
N3_8 N 0.43506(25) 0.66759(28) 0.20194(22) 0.0234 Uiso
C4_8 C 0.43198(29) 0.71501(27) 0.16246(33) 0.0234 Uiso
N5_8 N 0.29285(23) 0.53751(21) 0.19087(27) 0.0234 Uiso
C5_8 C 0.32540(31) 0.58396(23) 0.18240(29) 0.0234 Uiso
C6_8 C 0.33926(33) 0.61643(20) 0.16163(33) 0.0234 Uiso
C7_8 C 0.36993(27) 0.63412(25) 0.17824(21) 0.0234 Uiso
N6_8 N 0.29806(22) 0.56494(25) 0.16759(28) 0.0234 Uiso
C8_8 C 0.33754(33) 0.56802(29) 0.21501(27) 0.0234 Uiso
N7_8 N 0.28256(25) 0.68308(28) 0.03878(21) 0.0234 Uiso
N8_8 N 0.30913(27) 0.70715(23) 0.03751(21) 0.0234 Uiso
C9_8 C 0.31760(29) 0.67460(31) 0.08396(23) 0.0234 Uiso
C10_8 C 0.33837(33) 0.66074(33) 0.11643(20) 0.0234 Uiso
C11_8 C 0.32176(21) 0.63007(27) 0.13412(25) 0.0234 Uiso
N9_8 N 0.33241(28) 0.70194(22) 0.06494(25) 0.0234 Uiso
C12_8 C 0.28499(27) 0.66246(33) 0.06802(29) 0.0234 Uiso
N11_7 N 0.29285(23) 0.46249(21) 0.19087(27) 0.0234 Uiso
C13_8 C 0.32540(31) 0.41604(23) 0.18240(29) 0.0234 Uiso
C14_8 C 0.33926(33) 0.38357(20) 0.16163(33) 0.0234 Uiso
C15_8 C 0.36993(27) 0.36588(25) 0.17824(21) 0.0234 Uiso
N12_8 N 0.29806(22) 0.43506(25) 0.16759(28) 0.0234 Uiso
C16_8 C 0.33754(33) 0.43198(29) 0.21501(27) 0.0234 Uiso
N13_7 N 0.28256(25) 0.31692(28) 0.03878(21) 0.0234 Uiso
N14_7 N 0.30913(27) 0.29285(23) 0.03751(21) 0.0234 Uiso
C17_8 C 0.31760(29) 0.32540(31) 0.08396(23) 0.0234 Uiso
C18_8 C 0.33837(33) 0.33926(33) 0.11643(20) 0.0234 Uiso
C19_8 C 0.32176(21) 0.36993(27) 0.13412(25) 0.0234 Uiso
N15_8 N 0.33241(28) 0.29806(22) 0.06494(25) 0.0234 Uiso
C20_8 C 0.28499(27) 0.33754(33) 0.06802(29) 0.0234 Uiso
C21_8 C 0.41604(23) 0.31760(29) 0.17460(31) 0.0234 Uiso
C22_8 C 0.38357(20) 0.33837(33) 0.16074(33) 0.0234 Uiso
C23_8 C 0.36588(25) 0.32176(21) 0.13007(27) 0.0234 Uiso
N18_8 N 0.43506(25) 0.33241(28) 0.20194(22) 0.0234 Uiso
C24_8 C 0.43198(29) 0.28499(27) 0.16246(33) 0.0234 Uiso
Cu4_10 Cu 0.24457(5) 0.31511(4) 0.000 0.0064 Uiso
Cu6_9 Cu 0.24457(5) 0.68489(4) 0.000 0.0064 Uiso
Cu7_7 Cu 0.25543(5) 0.500 0.18489(4) 0.0064 Uiso
Cu9_10 Cu 0.31511(4) 0.25543(5) 0.000 0.0064 Uiso
Cu10_9 Cu 0.31511(4) 0.74457(5) 0.000 0.0064 Uiso
N22_9 N 0.46249(21) 0.79285(23) 0.19087(27) 0.0234 Uiso
N23_9 N 0.53751(21) 0.79285(23) 0.19087(27) 0.0234 Uiso
H1_8 H 0.422625 0.733404 0.141535 . .
H2_8 H 0.374971 0.703887 0.118965 . .
H3_8 H 0.266596 0.358465 0.0773755 . .
H4_8 H 0.381035 0.374971 0.203887 . .
H5_8 H 0.374971 0.296113 0.118965 . .
H6_8 H 0.358465 0.422625 0.233404 . .
H7_8 H 0.266596 0.641535 0.0773755 . .
H8_8 H 0.296113 0.381035 0.125029 . .
H9_8 H 0.381035 0.625029 0.203887 . .
H10_8 H 0.358465 0.577375 0.233404 . .
H11_8 H 0.296113 0.618965 0.125029 . .
H12_8 H 0.422625 0.266596 0.141535 . .
Cu4_11 Cu 0.24457(5) 0.31511(4) 1.000 0.0064 Uiso
Cu6_10 Cu 0.24457(5) 0.68489(4) 1.000 0.0064 Uiso
Cu9_11 Cu 0.31511(4) 0.25543(5) 1.000 0.0064 Uiso
Cu10_10 Cu 0.31511(4) 0.74457(5) 1.000 0.0064 Uiso
N1_9 N 0.18308(28) 0.46122(21) 0.71744(25) 0.0234 Uiso
C1_9 C 0.17460(31) 0.41604(23) 0.68240(29) 0.0234 Uiso
C2_9 C 0.16074(33) 0.38357(20) 0.66163(33) 0.0234 Uiso
C3_9 C 0.13007(27) 0.36588(25) 0.67824(21) 0.0234 Uiso
N3_9 N 0.20194(22) 0.43506(25) 0.66759(28) 0.0234 Uiso
C4_9 C 0.16246(33) 0.43198(29) 0.71501(27) 0.0234 Uiso
N5_9 N 0.19087(27) 0.29285(23) 0.53751(21) 0.0234 Uiso
C5_9 C 0.18240(29) 0.32540(31) 0.58396(23) 0.0234 Uiso
C6_9 C 0.16163(33) 0.33926(33) 0.61643(20) 0.0234 Uiso
C7_9 C 0.17824(21) 0.36993(27) 0.63412(25) 0.0234 Uiso
N6_9 N 0.16759(28) 0.29806(22) 0.56494(25) 0.0234 Uiso
C8_9 C 0.21501(27) 0.33754(33) 0.56802(29) 0.0234 Uiso
N7_9 N 0.03878(21) 0.28256(25) 0.68308(28) 0.0234 Uiso
N8_9 N 0.03751(21) 0.30913(27) 0.70715(23) 0.0234 Uiso
C9_9 C 0.08396(23) 0.31760(29) 0.67460(31) 0.0234 Uiso
C10_9 C 0.11643(20) 0.33837(33) 0.66074(33) 0.0234 Uiso
C11_9 C 0.13412(25) 0.32176(21) 0.63007(27) 0.0234 Uiso
N9_9 N 0.06494(25) 0.33241(28) 0.70194(22) 0.0234 Uiso
C12_9 C 0.06802(29) 0.28499(27) 0.66246(33) 0.0234 Uiso
N11_8 N 0.19087(27) 0.29285(23) 0.46249(21) 0.0234 Uiso
C13_9 C 0.18240(29) 0.32540(31) 0.41604(23) 0.0234 Uiso
C14_9 C 0.16163(33) 0.33926(33) 0.38357(20) 0.0234 Uiso
C15_9 C 0.17824(21) 0.36993(27) 0.36588(25) 0.0234 Uiso
N12_9 N 0.16759(28) 0.29806(22) 0.43506(25) 0.0234 Uiso
C16_9 C 0.21501(27) 0.33754(33) 0.43198(29) 0.0234 Uiso
N13_8 N 0.03878(21) 0.28256(25) 0.31692(28) 0.0234 Uiso
N14_8 N 0.03751(21) 0.30913(27) 0.29285(23) 0.0234 Uiso
C17_9 C 0.08396(23) 0.31760(29) 0.32540(31) 0.0234 Uiso
C18_9 C 0.11643(20) 0.33837(33) 0.33926(33) 0.0234 Uiso
C19_9 C 0.13412(25) 0.32176(21) 0.36993(27) 0.0234 Uiso
N15_9 N 0.06494(25) 0.33241(28) 0.29806(22) 0.0234 Uiso
C20_9 C 0.06802(29) 0.28499(27) 0.33754(33) 0.0234 Uiso
C21_9 C 0.17460(31) 0.41604(23) 0.31760(29) 0.0234 Uiso
C22_9 C 0.16074(33) 0.38357(20) 0.33837(33) 0.0234 Uiso
C23_9 C 0.13007(27) 0.36588(25) 0.32176(21) 0.0234 Uiso
N18_9 N 0.20194(22) 0.43506(25) 0.33241(28) 0.0234 Uiso
C24_9 C 0.16246(33) 0.43198(29) 0.28499(27) 0.0234 Uiso
Cu4_12 Cu 0.000 0.24457(5) 0.31511(4) 0.0064 Uiso
Cu6_11 Cu 0.000 0.24457(5) 0.68489(4) 0.0064 Uiso
Cu7_8 Cu 0.18489(4) 0.25543(5) 0.500 0.0064 Uiso
Cu9_12 Cu 0.000 0.31511(4) 0.25543(5) 0.0064 Uiso
Cu10_11 Cu 0.000 0.31511(4) 0.74457(5) 0.0064 Uiso
N22_10 N 0.19087(27) 0.46249(21) 0.79285(23) 0.0234 Uiso
N23_10 N 0.19087(27) 0.53751(21) 0.79285(23) 0.0234 Uiso
H1_9 H 0.141535 0.422625 0.733404 . .
H2_9 H 0.118965 0.374971 0.703887 . .
H3_9 H 0.0773755 0.266596 0.358465 . .
H4_9 H 0.203887 0.381035 0.374971 . .
H5_9 H 0.118965 0.374971 0.296113 . .
H6_9 H 0.233404 0.358465 0.422625 . .
H7_9 H 0.0773755 0.266596 0.641535 . .
H8_9 H 0.125029 0.296113 0.381035 . .
H9_9 H 0.203887 0.381035 0.625029 . .
H10_9 H 0.233404 0.358465 0.577375 . .
H11_9 H 0.125029 0.296113 0.618965 . .
H12_9 H 0.141535 0.422625 0.266596 . .
Cu4_13 Cu 1.000 0.24457(5) 0.31511(4) 0.0064 Uiso
Cu6_12 Cu 1.000 0.24457(5) 0.68489(4) 0.0064 Uiso
Cu9_13 Cu 1.000 0.31511(4) 0.25543(5) 0.0064 Uiso
Cu10_12 Cu 1.000 0.31511(4) 0.74457(5) 0.0064 Uiso
N1_10 N 0.71744(25) 0.18308(28) 0.46122(21) 0.0234 Uiso
C1_10 C 0.68240(29) 0.17460(31) 0.41604(23) 0.0234 Uiso
C2_10 C 0.66163(33) 0.16074(33) 0.38357(20) 0.0234 Uiso
C3_10 C 0.67824(21) 0.13007(27) 0.36588(25) 0.0234 Uiso
N3_10 N 0.66759(28) 0.20194(22) 0.43506(25) 0.0234 Uiso
C4_10 C 0.71501(27) 0.16246(33) 0.43198(29) 0.0234 Uiso
N5_10 N 0.53751(21) 0.19087(27) 0.29285(23) 0.0234 Uiso
C5_10 C 0.58396(23) 0.18240(29) 0.32540(31) 0.0234 Uiso
C6_10 C 0.61643(20) 0.16163(33) 0.33926(33) 0.0234 Uiso
C7_10 C 0.63412(25) 0.17824(21) 0.36993(27) 0.0234 Uiso
N6_10 N 0.56494(25) 0.16759(28) 0.29806(22) 0.0234 Uiso
C8_10 C 0.56802(29) 0.21501(27) 0.33754(33) 0.0234 Uiso
N7_10 N 0.68308(28) 0.03878(21) 0.28256(25) 0.0234 Uiso
N8_10 N 0.70715(23) 0.03751(21) 0.30913(27) 0.0234 Uiso
C9_10 C 0.67460(31) 0.08396(23) 0.31760(29) 0.0234 Uiso
C10_10 C 0.66074(33) 0.11643(20) 0.33837(33) 0.0234 Uiso
C11_10 C 0.63007(27) 0.13412(25) 0.32176(21) 0.0234 Uiso
N9_10 N 0.70194(22) 0.06494(25) 0.33241(28) 0.0234 Uiso
C12_10 C 0.66246(33) 0.06802(29) 0.28499(27) 0.0234 Uiso
N11_9 N 0.46249(21) 0.19087(27) 0.29285(23) 0.0234 Uiso
C13_10 C 0.41604(23) 0.18240(29) 0.32540(31) 0.0234 Uiso
C14_10 C 0.38357(20) 0.16163(33) 0.33926(33) 0.0234 Uiso
C15_10 C 0.36588(25) 0.17824(21) 0.36993(27) 0.0234 Uiso
N12_10 N 0.43506(25) 0.16759(28) 0.29806(22) 0.0234 Uiso
C16_10 C 0.43198(29) 0.21501(27) 0.33754(33) 0.0234 Uiso
N13_9 N 0.31692(28) 0.03878(21) 0.28256(25) 0.0234 Uiso
N14_9 N 0.29285(23) 0.03751(21) 0.30913(27) 0.0234 Uiso
C17_10 C 0.32540(31) 0.08396(23) 0.31760(29) 0.0234 Uiso
C18_10 C 0.33926(33) 0.11643(20) 0.33837(33) 0.0234 Uiso
C19_10 C 0.36993(27) 0.13412(25) 0.32176(21) 0.0234 Uiso
N15_10 N 0.29806(22) 0.06494(25) 0.33241(28) 0.0234 Uiso
C20_10 C 0.33754(33) 0.06802(29) 0.28499(27) 0.0234 Uiso
C21_10 C 0.31760(29) 0.17460(31) 0.41604(23) 0.0234 Uiso
C22_10 C 0.33837(33) 0.16074(33) 0.38357(20) 0.0234 Uiso
C23_10 C 0.32176(21) 0.13007(27) 0.36588(25) 0.0234 Uiso
N18_10 N 0.33241(28) 0.20194(22) 0.43506(25) 0.0234 Uiso
C24_10 C 0.28499(27) 0.16246(33) 0.43198(29) 0.0234 Uiso
Cu4_14 Cu 0.31511(4) 0.000 0.24457(5) 0.0064 Uiso
Cu6_13 Cu 0.68489(4) 0.000 0.24457(5) 0.0064 Uiso
Cu7_9 Cu 0.500 0.18489(4) 0.25543(5) 0.0064 Uiso
Cu9_14 Cu 0.25543(5) 0.000 0.31511(4) 0.0064 Uiso
Cu10_13 Cu 0.74457(5) 0.000 0.31511(4) 0.0064 Uiso
N22_11 N 0.79285(23) 0.19087(27) 0.46249(21) 0.0234 Uiso
N23_11 N 0.79285(23) 0.19087(27) 0.53751(21) 0.0234 Uiso
H1_10 H 0.733404 0.141535 0.422625 . .
H2_10 H 0.703887 0.118965 0.374971 . .
H3_10 H 0.358465 0.0773755 0.266596 . .
H4_10 H 0.374971 0.203887 0.381035 . .
H5_10 H 0.296113 0.118965 0.374971 . .
H6_10 H 0.422625 0.233404 0.358465 . .
H7_10 H 0.641535 0.0773755 0.266596 . .
H8_10 H 0.381035 0.125029 0.296113 . .
H9_10 H 0.625029 0.203887 0.381035 . .
H10_10 H 0.577375 0.233404 0.358465 . .
H11_10 H 0.618965 0.125029 0.296113 . .
H12_10 H 0.266596 0.141535 0.422625 . .
Cu4_15 Cu 0.31511(4) 1.000 0.24457(5) 0.0064 Uiso
Cu6_14 Cu 0.68489(4) 1.000 0.24457(5) 0.0064 Uiso
Cu9_15 Cu 0.25543(5) 1.000 0.31511(4) 0.0064 Uiso
Cu10_14 Cu 0.74457(5) 1.000 0.31511(4) 0.0064 Uiso
Cu1_7 Cu 0.81511(4) 0.500 0.24457(5) 0.0064 Uiso
N1_11 N 0.81692(28) 0.46122(21) 0.28256(25) 0.0234 Uiso
C1_11 C 0.82540(31) 0.41604(23) 0.31760(29) 0.0234 Uiso
C2_11 C 0.83926(33) 0.38357(20) 0.33837(33) 0.0234 Uiso
C3_11 C 0.86993(27) 0.36588(25) 0.32176(21) 0.0234 Uiso
N3_11 N 0.79806(22) 0.43506(25) 0.33241(28) 0.0234 Uiso
C4_11 C 0.83754(33) 0.43198(29) 0.28499(27) 0.0234 Uiso
N5_11 N 0.80913(27) 0.29285(23) 0.46249(21) 0.0234 Uiso
C5_11 C 0.81760(29) 0.32540(31) 0.41604(23) 0.0234 Uiso
C6_11 C 0.83837(33) 0.33926(33) 0.38357(20) 0.0234 Uiso
C7_11 C 0.82176(21) 0.36993(27) 0.36588(25) 0.0234 Uiso
N6_11 N 0.83241(28) 0.29806(22) 0.43506(25) 0.0234 Uiso
C8_11 C 0.78499(27) 0.33754(33) 0.43198(29) 0.0234 Uiso
N7_11 N 0.96122(21) 0.28256(25) 0.31692(28) 0.0234 Uiso
N8_11 N 0.96249(21) 0.30913(27) 0.29285(23) 0.0234 Uiso
C9_11 C 0.91604(23) 0.31760(29) 0.32540(31) 0.0234 Uiso
C10_11 C 0.88357(20) 0.33837(33) 0.33926(33) 0.0234 Uiso
C11_11 C 0.86588(25) 0.32176(21) 0.36993(27) 0.0234 Uiso
N9_11 N 0.93506(25) 0.33241(28) 0.29806(22) 0.0234 Uiso
C12_11 C 0.93198(29) 0.28499(27) 0.33754(33) 0.0234 Uiso
N11_10 N 0.80913(27) 0.29285(23) 0.53751(21) 0.0234 Uiso
C13_11 C 0.81760(29) 0.32540(31) 0.58396(23) 0.0234 Uiso
C14_11 C 0.83837(33) 0.33926(33) 0.61643(20) 0.0234 Uiso
C15_11 C 0.82176(21) 0.36993(27) 0.63412(25) 0.0234 Uiso
N12_11 N 0.83241(28) 0.29806(22) 0.56494(25) 0.0234 Uiso
C16_11 C 0.78499(27) 0.33754(33) 0.56802(29) 0.0234 Uiso
N13_10 N 0.96122(21) 0.28256(25) 0.68308(28) 0.0234 Uiso
N14_10 N 0.96249(21) 0.30913(27) 0.70715(23) 0.0234 Uiso
C17_11 C 0.91604(23) 0.31760(29) 0.67460(31) 0.0234 Uiso
C18_11 C 0.88357(20) 0.33837(33) 0.66074(33) 0.0234 Uiso
C19_11 C 0.86588(25) 0.32176(21) 0.63007(27) 0.0234 Uiso
N15_11 N 0.93506(25) 0.33241(28) 0.70194(22) 0.0234 Uiso
C20_11 C 0.93198(29) 0.28499(27) 0.66246(33) 0.0234 Uiso
N16_7 N 0.81692(28) 0.46122(21) 0.71744(25) 0.0234 Uiso
C21_11 C 0.82540(31) 0.41604(23) 0.68240(29) 0.0234 Uiso
C22_11 C 0.83926(33) 0.38357(20) 0.66163(33) 0.0234 Uiso
C23_11 C 0.86993(27) 0.36588(25) 0.67824(21) 0.0234 Uiso
N18_11 N 0.79806(22) 0.43506(25) 0.66759(28) 0.0234 Uiso
C24_11 C 0.83754(33) 0.43198(29) 0.71501(27) 0.0234 Uiso
Cu5_5 Cu 0.81511(4) 0.500 0.75543(5) 0.0064 Uiso
Cu7_10 Cu 0.81511(4) 0.25543(5) 0.500 0.0064 Uiso
N19_7 N 0.81692(28) 0.53878(21) 0.28256(25) 0.0234 Uiso
N22_12 N 0.80913(27) 0.46249(21) 0.20715(23) 0.0234 Uiso
N23_12 N 0.80913(27) 0.53751(21) 0.20715(23) 0.0234 Uiso
H1_11 H 0.858465 0.422625 0.266596 . .
H2_11 H 0.881035 0.374971 0.296113 . .
H3_11 H 0.922625 0.266596 0.641535 . .
H4_11 H 0.796113 0.381035 0.625029 . .
H5_11 H 0.881035 0.374971 0.703887 . .
H6_11 H 0.766596 0.358465 0.577375 . .
H7_11 H 0.922625 0.266596 0.358465 . .
H8_11 H 0.874971 0.296113 0.618965 . .
H9_11 H 0.796113 0.381035 0.374971 . .
H10_11 H 0.766596 0.358465 0.422625 . .
H11_11 H 0.874971 0.296113 0.381035 . .
H12_11 H 0.858465 0.422625 0.733404 . .
Cu1_8 Cu 0.24457(5) 0.81511(4) 0.500 0.0064 Uiso
N1_12 N 0.28256(25) 0.81692(28) 0.46122(21) 0.0234 Uiso
C1_12 C 0.31760(29) 0.82540(31) 0.41604(23) 0.0234 Uiso
C2_12 C 0.33837(33) 0.83926(33) 0.38357(20) 0.0234 Uiso
C3_12 C 0.32176(21) 0.86993(27) 0.36588(25) 0.0234 Uiso
N3_12 N 0.33241(28) 0.79806(22) 0.43506(25) 0.0234 Uiso
C4_12 C 0.28499(27) 0.83754(33) 0.43198(29) 0.0234 Uiso
N5_12 N 0.46249(21) 0.80913(27) 0.29285(23) 0.0234 Uiso
C5_12 C 0.41604(23) 0.81760(29) 0.32540(31) 0.0234 Uiso
C6_12 C 0.38357(20) 0.83837(33) 0.33926(33) 0.0234 Uiso
C7_12 C 0.36588(25) 0.82176(21) 0.36993(27) 0.0234 Uiso
N6_12 N 0.43506(25) 0.83241(28) 0.29806(22) 0.0234 Uiso
C8_12 C 0.43198(29) 0.78499(27) 0.33754(33) 0.0234 Uiso
N7_12 N 0.31692(28) 0.96122(21) 0.28256(25) 0.0234 Uiso
N8_12 N 0.29285(23) 0.96249(21) 0.30913(27) 0.0234 Uiso
C9_12 C 0.32540(31) 0.91604(23) 0.31760(29) 0.0234 Uiso
C10_12 C 0.33926(33) 0.88357(20) 0.33837(33) 0.0234 Uiso
C11_12 C 0.36993(27) 0.86588(25) 0.32176(21) 0.0234 Uiso
N9_12 N 0.29806(22) 0.93506(25) 0.33241(28) 0.0234 Uiso
C12_12 C 0.33754(33) 0.93198(29) 0.28499(27) 0.0234 Uiso
N11_11 N 0.53751(21) 0.80913(27) 0.29285(23) 0.0234 Uiso
C13_12 C 0.58396(23) 0.81760(29) 0.32540(31) 0.0234 Uiso
C14_12 C 0.61643(20) 0.83837(33) 0.33926(33) 0.0234 Uiso
C15_12 C 0.63412(25) 0.82176(21) 0.36993(27) 0.0234 Uiso
N12_12 N 0.56494(25) 0.83241(28) 0.29806(22) 0.0234 Uiso
C16_12 C 0.56802(29) 0.78499(27) 0.33754(33) 0.0234 Uiso
N13_11 N 0.68308(28) 0.96122(21) 0.28256(25) 0.0234 Uiso
N14_11 N 0.70715(23) 0.96249(21) 0.30913(27) 0.0234 Uiso
C17_12 C 0.67460(31) 0.91604(23) 0.31760(29) 0.0234 Uiso
C18_12 C 0.66074(33) 0.88357(20) 0.33837(33) 0.0234 Uiso
C19_12 C 0.63007(27) 0.86588(25) 0.32176(21) 0.0234 Uiso
N15_12 N 0.70194(22) 0.93506(25) 0.33241(28) 0.0234 Uiso
C20_12 C 0.66246(33) 0.93198(29) 0.28499(27) 0.0234 Uiso
N16_8 N 0.71744(25) 0.81692(28) 0.46122(21) 0.0234 Uiso
C21_12 C 0.68240(29) 0.82540(31) 0.41604(23) 0.0234 Uiso
C22_12 C 0.66163(33) 0.83926(33) 0.38357(20) 0.0234 Uiso
C23_12 C 0.67824(21) 0.86993(27) 0.36588(25) 0.0234 Uiso
N18_12 N 0.66759(28) 0.79806(22) 0.43506(25) 0.0234 Uiso
C24_12 C 0.71501(27) 0.83754(33) 0.43198(29) 0.0234 Uiso
Cu5_6 Cu 0.75543(5) 0.81511(4) 0.500 0.0064 Uiso
Cu7_11 Cu 0.500 0.81511(4) 0.25543(5) 0.0064 Uiso
N19_8 N 0.28256(25) 0.81692(28) 0.53878(21) 0.0234 Uiso
N22_13 N 0.20715(23) 0.80913(27) 0.46249(21) 0.0234 Uiso
N23_13 N 0.20715(23) 0.80913(27) 0.53751(21) 0.0234 Uiso
H1_12 H 0.266596 0.858465 0.422625 . .
H2_12 H 0.296113 0.881035 0.374971 . .
H3_12 H 0.641535 0.922625 0.266596 . .
H4_12 H 0.625029 0.796113 0.381035 . .
H5_12 H 0.703887 0.881035 0.374971 . .
H6_12 H 0.577375 0.766596 0.358465 . .
H7_12 H 0.358465 0.922625 0.266596 . .
H8_12 H 0.618965 0.874971 0.296113 . .
H9_12 H 0.374971 0.796113 0.381035 . .
H10_12 H 0.422625 0.766596 0.358465 . .
H11_12 H 0.381035 0.874971 0.296113 . .
H12_12 H 0.733404 0.858465 0.422625 . .
N1_13 N 0.71744(25) 0.81692(28) 0.53878(21) 0.0234 Uiso
C1_13 C 0.68240(29) 0.82540(31) 0.58396(23) 0.0234 Uiso
C2_13 C 0.66163(33) 0.83926(33) 0.61643(20) 0.0234 Uiso
C3_13 C 0.67824(21) 0.86993(27) 0.63412(25) 0.0234 Uiso
N3_13 N 0.66759(28) 0.79806(22) 0.56494(25) 0.0234 Uiso
C4_13 C 0.71501(27) 0.83754(33) 0.56802(29) 0.0234 Uiso
N5_13 N 0.53751(21) 0.80913(27) 0.70715(23) 0.0234 Uiso
C5_13 C 0.58396(23) 0.81760(29) 0.67460(31) 0.0234 Uiso
C6_13 C 0.61643(20) 0.83837(33) 0.66074(33) 0.0234 Uiso
C7_13 C 0.63412(25) 0.82176(21) 0.63007(27) 0.0234 Uiso
N6_13 N 0.56494(25) 0.83241(28) 0.70194(22) 0.0234 Uiso
C8_13 C 0.56802(29) 0.78499(27) 0.66246(33) 0.0234 Uiso
N7_13 N 0.68308(28) 0.96122(21) 0.71744(25) 0.0234 Uiso
N8_13 N 0.70715(23) 0.96249(21) 0.69087(27) 0.0234 Uiso
C9_13 C 0.67460(31) 0.91604(23) 0.68240(29) 0.0234 Uiso
C10_13 C 0.66074(33) 0.88357(20) 0.66163(33) 0.0234 Uiso
C11_13 C 0.63007(27) 0.86588(25) 0.67824(21) 0.0234 Uiso
N9_13 N 0.70194(22) 0.93506(25) 0.66759(28) 0.0234 Uiso
C12_13 C 0.66246(33) 0.93198(29) 0.71501(27) 0.0234 Uiso
N11_12 N 0.46249(21) 0.80913(27) 0.70715(23) 0.0234 Uiso
C13_13 C 0.41604(23) 0.81760(29) 0.67460(31) 0.0234 Uiso
C14_13 C 0.38357(20) 0.83837(33) 0.66074(33) 0.0234 Uiso
C15_13 C 0.36588(25) 0.82176(21) 0.63007(27) 0.0234 Uiso
N12_13 N 0.43506(25) 0.83241(28) 0.70194(22) 0.0234 Uiso
C16_13 C 0.43198(29) 0.78499(27) 0.66246(33) 0.0234 Uiso
N13_12 N 0.31692(28) 0.96122(21) 0.71744(25) 0.0234 Uiso
N14_12 N 0.29285(23) 0.96249(21) 0.69087(27) 0.0234 Uiso
C17_13 C 0.32540(31) 0.91604(23) 0.68240(29) 0.0234 Uiso
C18_13 C 0.33926(33) 0.88357(20) 0.66163(33) 0.0234 Uiso
C19_13 C 0.36993(27) 0.86588(25) 0.67824(21) 0.0234 Uiso
N15_13 N 0.29806(22) 0.93506(25) 0.66759(28) 0.0234 Uiso
C20_13 C 0.33754(33) 0.93198(29) 0.71501(27) 0.0234 Uiso
C21_13 C 0.31760(29) 0.82540(31) 0.58396(23) 0.0234 Uiso
C22_13 C 0.33837(33) 0.83926(33) 0.61643(20) 0.0234 Uiso
C23_13 C 0.32176(21) 0.86993(27) 0.63412(25) 0.0234 Uiso
N18_13 N 0.33241(28) 0.79806(22) 0.56494(25) 0.0234 Uiso
C24_13 C 0.28499(27) 0.83754(33) 0.56802(29) 0.0234 Uiso
Cu7_12 Cu 0.500 0.81511(4) 0.74457(5) 0.0064 Uiso
N22_14 N 0.79285(23) 0.80913(27) 0.53751(21) 0.0234 Uiso
N23_14 N 0.79285(23) 0.80913(27) 0.46249(21) 0.0234 Uiso
H1_13 H 0.733404 0.858465 0.577375 . .
H2_13 H 0.703887 0.881035 0.625029 . .
H3_13 H 0.358465 0.922625 0.733404 . .
H4_13 H 0.374971 0.796113 0.618965 . .
H5_13 H 0.296113 0.881035 0.625029 . .
H6_13 H 0.422625 0.766596 0.641535 . .
H7_13 H 0.641535 0.922625 0.733404 . .
H8_13 H 0.381035 0.874971 0.703887 . .
H9_13 H 0.625029 0.796113 0.618965 . .
H10_13 H 0.577375 0.766596 0.641535 . .
H11_13 H 0.618965 0.874971 0.703887 . .
H12_13 H 0.266596 0.858465 0.577375 . .
Cu1_9 Cu 0.500 0.75543(5) 0.81511(4) 0.0064 Uiso
N1_14 N 0.53878(21) 0.71744(25) 0.81692(28) 0.0234 Uiso
C1_14 C 0.58396(23) 0.68240(29) 0.82540(31) 0.0234 Uiso
C2_14 C 0.61643(20) 0.66163(33) 0.83926(33) 0.0234 Uiso
C3_14 C 0.63412(25) 0.67824(21) 0.86993(27) 0.0234 Uiso
N3_14 N 0.56494(25) 0.66759(28) 0.79806(22) 0.0234 Uiso
C4_14 C 0.56802(29) 0.71501(27) 0.83754(33) 0.0234 Uiso
N5_14 N 0.70715(23) 0.53751(21) 0.80913(27) 0.0234 Uiso
C5_14 C 0.67460(31) 0.58396(23) 0.81760(29) 0.0234 Uiso
C6_14 C 0.66074(33) 0.61643(20) 0.83837(33) 0.0234 Uiso
C7_14 C 0.63007(27) 0.63412(25) 0.82176(21) 0.0234 Uiso
N6_14 N 0.70194(22) 0.56494(25) 0.83241(28) 0.0234 Uiso
C8_14 C 0.66246(33) 0.56802(29) 0.78499(27) 0.0234 Uiso
N7_14 N 0.71744(25) 0.68308(28) 0.96122(21) 0.0234 Uiso
N8_14 N 0.69087(27) 0.70715(23) 0.96249(21) 0.0234 Uiso
C9_14 C 0.68240(29) 0.67460(31) 0.91604(23) 0.0234 Uiso
C10_14 C 0.66163(33) 0.66074(33) 0.88357(20) 0.0234 Uiso
C11_14 C 0.67824(21) 0.63007(27) 0.86588(25) 0.0234 Uiso
N9_14 N 0.66759(28) 0.70194(22) 0.93506(25) 0.0234 Uiso
C12_14 C 0.71501(27) 0.66246(33) 0.93198(29) 0.0234 Uiso
N11_13 N 0.70715(23) 0.46249(21) 0.80913(27) 0.0234 Uiso
C13_14 C 0.67460(31) 0.41604(23) 0.81760(29) 0.0234 Uiso
C14_14 C 0.66074(33) 0.38357(20) 0.83837(33) 0.0234 Uiso
C15_14 C 0.63007(27) 0.36588(25) 0.82176(21) 0.0234 Uiso
N12_14 N 0.70194(22) 0.43506(25) 0.83241(28) 0.0234 Uiso
C16_14 C 0.66246(33) 0.43198(29) 0.78499(27) 0.0234 Uiso
N13_13 N 0.71744(25) 0.31692(28) 0.96122(21) 0.0234 Uiso
N14_13 N 0.69087(27) 0.29285(23) 0.96249(21) 0.0234 Uiso
C17_14 C 0.68240(29) 0.32540(31) 0.91604(23) 0.0234 Uiso
C18_14 C 0.66163(33) 0.33926(33) 0.88357(20) 0.0234 Uiso
C19_14 C 0.67824(21) 0.36993(27) 0.86588(25) 0.0234 Uiso
N15_14 N 0.66759(28) 0.29806(22) 0.93506(25) 0.0234 Uiso
C20_14 C 0.71501(27) 0.33754(33) 0.93198(29) 0.0234 Uiso
N16_9 N 0.53878(21) 0.28256(25) 0.81692(28) 0.0234 Uiso
C21_14 C 0.58396(23) 0.31760(29) 0.82540(31) 0.0234 Uiso
C22_14 C 0.61643(20) 0.33837(33) 0.83926(33) 0.0234 Uiso
C23_14 C 0.63412(25) 0.32176(21) 0.86993(27) 0.0234 Uiso
N18_14 N 0.56494(25) 0.33241(28) 0.79806(22) 0.0234 Uiso
C24_14 C 0.56802(29) 0.28499(27) 0.83754(33) 0.0234 Uiso
Cu5_7 Cu 0.500 0.24457(5) 0.81511(4) 0.0064 Uiso
Cu7_13 Cu 0.74457(5) 0.500 0.81511(4) 0.0064 Uiso
N19_9 N 0.46122(21) 0.71744(25) 0.81692(28) 0.0234 Uiso
N22_15 N 0.53751(21) 0.79285(23) 0.80913(27) 0.0234 Uiso
N23_15 N 0.46249(21) 0.79285(23) 0.80913(27) 0.0234 Uiso
H1_14 H 0.577375 0.733404 0.858465 . .
H2_14 H 0.625029 0.703887 0.881035 . .
H3_14 H 0.733404 0.358465 0.922625 . .
H4_14 H 0.618965 0.374971 0.796113 . .
H5_14 H 0.625029 0.296113 0.881035 . .
H6_14 H 0.641535 0.422625 0.766596 . .
H7_14 H 0.733404 0.641535 0.922625 . .
H8_14 H 0.703887 0.381035 0.874971 . .
H9_14 H 0.618965 0.625029 0.796113 . .
H10_14 H 0.641535 0.577375 0.766596 . .
H11_14 H 0.703887 0.618965 0.874971 . .
H12_14 H 0.577375 0.266596 0.858465 . .
N1_15 N 0.81692(28) 0.53878(21) 0.71744(25) 0.0234 Uiso
C1_15 C 0.82540(31) 0.58396(23) 0.68240(29) 0.0234 Uiso
C2_15 C 0.83926(33) 0.61643(20) 0.66163(33) 0.0234 Uiso
C3_15 C 0.86993(27) 0.63412(25) 0.67824(21) 0.0234 Uiso
N3_15 N 0.79806(22) 0.56494(25) 0.66759(28) 0.0234 Uiso
C4_15 C 0.83754(33) 0.56802(29) 0.71501(27) 0.0234 Uiso
N5_15 N 0.80913(27) 0.70715(23) 0.53751(21) 0.0234 Uiso
C5_15 C 0.81760(29) 0.67460(31) 0.58396(23) 0.0234 Uiso
C6_15 C 0.83837(33) 0.66074(33) 0.61643(20) 0.0234 Uiso
C7_15 C 0.82176(21) 0.63007(27) 0.63412(25) 0.0234 Uiso
N6_15 N 0.83241(28) 0.70194(22) 0.56494(25) 0.0234 Uiso
C8_15 C 0.78499(27) 0.66246(33) 0.56802(29) 0.0234 Uiso
N7_15 N 0.96122(21) 0.71744(25) 0.68308(28) 0.0234 Uiso
N8_15 N 0.96249(21) 0.69087(27) 0.70715(23) 0.0234 Uiso
C9_15 C 0.91604(23) 0.68240(29) 0.67460(31) 0.0234 Uiso
C10_15 C 0.88357(20) 0.66163(33) 0.66074(33) 0.0234 Uiso
C11_15 C 0.86588(25) 0.67824(21) 0.63007(27) 0.0234 Uiso
N9_15 N 0.93506(25) 0.66759(28) 0.70194(22) 0.0234 Uiso
C12_15 C 0.93198(29) 0.71501(27) 0.66246(33) 0.0234 Uiso
N11_14 N 0.80913(27) 0.70715(23) 0.46249(21) 0.0234 Uiso
C13_15 C 0.81760(29) 0.67460(31) 0.41604(23) 0.0234 Uiso
C14_15 C 0.83837(33) 0.66074(33) 0.38357(20) 0.0234 Uiso
C15_15 C 0.82176(21) 0.63007(27) 0.36588(25) 0.0234 Uiso
N12_15 N 0.83241(28) 0.70194(22) 0.43506(25) 0.0234 Uiso
C16_15 C 0.78499(27) 0.66246(33) 0.43198(29) 0.0234 Uiso
N13_14 N 0.96122(21) 0.71744(25) 0.31692(28) 0.0234 Uiso
N14_14 N 0.96249(21) 0.69087(27) 0.29285(23) 0.0234 Uiso
C17_15 C 0.91604(23) 0.68240(29) 0.32540(31) 0.0234 Uiso
C18_15 C 0.88357(20) 0.66163(33) 0.33926(33) 0.0234 Uiso
C19_15 C 0.86588(25) 0.67824(21) 0.36993(27) 0.0234 Uiso
N15_15 N 0.93506(25) 0.66759(28) 0.29806(22) 0.0234 Uiso
C20_15 C 0.93198(29) 0.71501(27) 0.33754(33) 0.0234 Uiso
C21_15 C 0.82540(31) 0.58396(23) 0.31760(29) 0.0234 Uiso
C22_15 C 0.83926(33) 0.61643(20) 0.33837(33) 0.0234 Uiso
C23_15 C 0.86993(27) 0.63412(25) 0.32176(21) 0.0234 Uiso
N18_15 N 0.79806(22) 0.56494(25) 0.33241(28) 0.0234 Uiso
C24_15 C 0.83754(33) 0.56802(29) 0.28499(27) 0.0234 Uiso
Cu7_14 Cu 0.81511(4) 0.74457(5) 0.500 0.0064 Uiso
N22_16 N 0.80913(27) 0.53751(21) 0.79285(23) 0.0234 Uiso
N23_16 N 0.80913(27) 0.46249(21) 0.79285(23) 0.0234 Uiso
H1_15 H 0.858465 0.577375 0.733404 . .
H2_15 H 0.881035 0.625029 0.703887 . .
H3_15 H 0.922625 0.733404 0.358465 . .
H4_15 H 0.796113 0.618965 0.374971 . .
H5_15 H 0.881035 0.625029 0.296113 . .
H6_15 H 0.766596 0.641535 0.422625 . .
H7_15 H 0.922625 0.733404 0.641535 . .
H8_15 H 0.874971 0.703887 0.381035 . .
H9_15 H 0.796113 0.618965 0.625029 . .
H10_15 H 0.766596 0.641535 0.577375 . .
H11_15 H 0.874971 0.703887 0.618965 . .
H12_15 H 0.858465 0.577375 0.266596 . .
N1_16 N 0.46122(21) 0.28256(25) 0.81692(28) 0.0234 Uiso
C1_16 C 0.41604(23) 0.31760(29) 0.82540(31) 0.0234 Uiso
C2_16 C 0.38357(20) 0.33837(33) 0.83926(33) 0.0234 Uiso
C3_16 C 0.36588(25) 0.32176(21) 0.86993(27) 0.0234 Uiso
N3_16 N 0.43506(25) 0.33241(28) 0.79806(22) 0.0234 Uiso
C4_16 C 0.43198(29) 0.28499(27) 0.83754(33) 0.0234 Uiso
N5_16 N 0.29285(23) 0.46249(21) 0.80913(27) 0.0234 Uiso
C5_16 C 0.32540(31) 0.41604(23) 0.81760(29) 0.0234 Uiso
C6_16 C 0.33926(33) 0.38357(20) 0.83837(33) 0.0234 Uiso
C7_16 C 0.36993(27) 0.36588(25) 0.82176(21) 0.0234 Uiso
N6_16 N 0.29806(22) 0.43506(25) 0.83241(28) 0.0234 Uiso
C8_16 C 0.33754(33) 0.43198(29) 0.78499(27) 0.0234 Uiso
N7_16 N 0.28256(25) 0.31692(28) 0.96122(21) 0.0234 Uiso
N8_16 N 0.30913(27) 0.29285(23) 0.96249(21) 0.0234 Uiso
C9_16 C 0.31760(29) 0.32540(31) 0.91604(23) 0.0234 Uiso
C10_16 C 0.33837(33) 0.33926(33) 0.88357(20) 0.0234 Uiso
C11_16 C 0.32176(21) 0.36993(27) 0.86588(25) 0.0234 Uiso
N9_16 N 0.33241(28) 0.29806(22) 0.93506(25) 0.0234 Uiso
C12_16 C 0.28499(27) 0.33754(33) 0.93198(29) 0.0234 Uiso
N11_15 N 0.29285(23) 0.53751(21) 0.80913(27) 0.0234 Uiso
C13_16 C 0.32540(31) 0.58396(23) 0.81760(29) 0.0234 Uiso
C14_16 C 0.33926(33) 0.61643(20) 0.83837(33) 0.0234 Uiso
C15_16 C 0.36993(27) 0.63412(25) 0.82176(21) 0.0234 Uiso
N12_16 N 0.29806(22) 0.56494(25) 0.83241(28) 0.0234 Uiso
C16_16 C 0.33754(33) 0.56802(29) 0.78499(27) 0.0234 Uiso
N13_15 N 0.28256(25) 0.68308(28) 0.96122(21) 0.0234 Uiso
N14_15 N 0.30913(27) 0.70715(23) 0.96249(21) 0.0234 Uiso
C17_16 C 0.31760(29) 0.67460(31) 0.91604(23) 0.0234 Uiso
C18_16 C 0.33837(33) 0.66074(33) 0.88357(20) 0.0234 Uiso
C19_16 C 0.32176(21) 0.63007(27) 0.86588(25) 0.0234 Uiso
N15_16 N 0.33241(28) 0.70194(22) 0.93506(25) 0.0234 Uiso
C20_16 C 0.28499(27) 0.66246(33) 0.93198(29) 0.0234 Uiso
C21_16 C 0.41604(23) 0.68240(29) 0.82540(31) 0.0234 Uiso
C22_16 C 0.38357(20) 0.66163(33) 0.83926(33) 0.0234 Uiso
C23_16 C 0.36588(25) 0.67824(21) 0.86993(27) 0.0234 Uiso
N18_16 N 0.43506(25) 0.66759(28) 0.79806(22) 0.0234 Uiso
C24_16 C 0.43198(29) 0.71501(27) 0.83754(33) 0.0234 Uiso
Cu7_15 Cu 0.25543(5) 0.500 0.81511(4) 0.0064 Uiso
N22_17 N 0.46249(21) 0.20715(23) 0.80913(27) 0.0234 Uiso
N23_17 N 0.53751(21) 0.20715(23) 0.80913(27) 0.0234 Uiso
H1_16 H 0.422625 0.266596 0.858465 . .
H2_16 H 0.374971 0.296113 0.881035 . .
H3_16 H 0.266596 0.641535 0.922625 . .
H4_16 H 0.381035 0.625029 0.796113 . .
H5_16 H 0.374971 0.703887 0.881035 . .
H6_16 H 0.358465 0.577375 0.766596 . .
H7_16 H 0.266596 0.358465 0.922625 . .
H8_16 H 0.296113 0.618965 0.874971 . .
H9_16 H 0.381035 0.374971 0.796113 . .
H10_16 H 0.358465 0.422625 0.766596 . .
H11_16 H 0.296113 0.381035 0.874971 . .
H12_16 H 0.422625 0.733404 0.858465 . .
Cu9_16 Cu 0.74457(5) 0.18489(4) 0.000 0.0064 Uiso
Cu10_15 Cu 0.25543(5) 0.18489(4) 0.000 0.0064 Uiso
Cu1_10 Cu 0.24457(5) 0.000 0.81511(4) 0.0064 Uiso
N1_17 N 0.28256(25) 0.03878(21) 0.81692(28) 0.0234 Uiso
N2_5 N 0.30913(27) 0.03751(21) 0.79285(23) 0.0234 Uiso
C1_17 C 0.31760(29) 0.08396(23) 0.82540(31) 0.0234 Uiso
C2_17 C 0.33837(33) 0.11643(20) 0.83926(33) 0.0234 Uiso
C3_17 C 0.32176(21) 0.13412(25) 0.86993(27) 0.0234 Uiso
N3_17 N 0.33241(28) 0.06494(25) 0.79806(22) 0.0234 Uiso
C4_17 C 0.28499(27) 0.06802(29) 0.83754(33) 0.0234 Uiso
N4_8 N 0.46122(21) 0.18308(28) 0.78256(25) 0.0234 Uiso
C5_17 C 0.41604(23) 0.17460(31) 0.81760(29) 0.0234 Uiso
C6_17 C 0.38357(20) 0.16074(33) 0.83837(33) 0.0234 Uiso
C7_17 C 0.36588(25) 0.13007(27) 0.82176(21) 0.0234 Uiso
N6_17 N 0.43506(25) 0.20194(22) 0.83241(28) 0.0234 Uiso
C8_17 C 0.43198(29) 0.16246(33) 0.78499(27) 0.0234 Uiso
N7_17 N 0.31692(28) 0.21744(25) 0.96122(21) 0.0234 Uiso
N8_17 N 0.29285(23) 0.19087(27) 0.96249(21) 0.0234 Uiso
C9_17 C 0.32540(31) 0.18240(29) 0.91604(23) 0.0234 Uiso
C10_17 C 0.33926(33) 0.16163(33) 0.88357(20) 0.0234 Uiso
C11_17 C 0.36993(27) 0.17824(21) 0.86588(25) 0.0234 Uiso
N9_17 N 0.29806(22) 0.16759(28) 0.93506(25) 0.0234 Uiso
C12_17 C 0.33754(33) 0.21501(27) 0.93198(29) 0.0234 Uiso
N10_7 N 0.53878(21) 0.18308(28) 0.78256(25) 0.0234 Uiso
C13_17 C 0.58396(23) 0.17460(31) 0.81760(29) 0.0234 Uiso
C14_17 C 0.61643(20) 0.16074(33) 0.83837(33) 0.0234 Uiso
C15_17 C 0.63412(25) 0.13007(27) 0.82176(21) 0.0234 Uiso
N12_17 N 0.56494(25) 0.20194(22) 0.83241(28) 0.0234 Uiso
C16_17 C 0.56802(29) 0.16246(33) 0.78499(27) 0.0234 Uiso
N13_16 N 0.68308(28) 0.21744(25) 0.96122(21) 0.0234 Uiso
N14_16 N 0.70715(23) 0.19087(27) 0.96249(21) 0.0234 Uiso
C17_17 C 0.67460(31) 0.18240(29) 0.91604(23) 0.0234 Uiso
C18_17 C 0.66074(33) 0.16163(33) 0.88357(20) 0.0234 Uiso
C19_17 C 0.63007(27) 0.17824(21) 0.86588(25) 0.0234 Uiso
N15_17 N 0.70194(22) 0.16759(28) 0.93506(25) 0.0234 Uiso
C20_17 C 0.66246(33) 0.21501(27) 0.93198(29) 0.0234 Uiso
N16_10 N 0.71744(25) 0.03878(21) 0.81692(28) 0.0234 Uiso
N17_4 N 0.69087(27) 0.03751(21) 0.79285(23) 0.0234 Uiso
C21_17 C 0.68240(29) 0.08396(23) 0.82540(31) 0.0234 Uiso
C22_17 C 0.66163(33) 0.11643(20) 0.83926(33) 0.0234 Uiso
C23_17 C 0.67824(21) 0.13412(25) 0.86993(27) 0.0234 Uiso
N18_17 N 0.66759(28) 0.06494(25) 0.79806(22) 0.0234 Uiso
C24_17 C 0.71501(27) 0.06802(29) 0.83754(33) 0.0234 Uiso
Cu5_8 Cu 0.75543(5) 0.000 0.81511(4) 0.0064 Uiso
Cu9_17 Cu 0.74457(5) 0.18489(4) 1.000 0.0064 Uiso
Cu10_16 Cu 0.25543(5) 0.18489(4) 1.000 0.0064 Uiso
N22_18 N 0.20715(23) 0.03751(21) 0.80913(27) 0.0234 Uiso
H1_17 H 0.266596 0.0773755 0.858465 . .
H2_17 H 0.296113 0.125029 0.881035 . .
H3_17 H 0.641535 0.233404 0.922625 . .
H4_17 H 0.625029 0.118965 0.796113 . .
H5_17 H 0.703887 0.125029 0.881035 . .
H6_17 H 0.577375 0.141535 0.766596 . .
H7_17 H 0.358465 0.233404 0.922625 . .
H8_17 H 0.618965 0.203887 0.874971 . .
H9_17 H 0.374971 0.118965 0.796113 . .
H10_17 H 0.422625 0.141535 0.766596 . .
H11_17 H 0.381035 0.203887 0.874971 . .
H12_17 H 0.733404 0.0773755 0.858465 . .
Cu1_11 Cu 0.24457(5) 1.000 0.81511(4) 0.0064 Uiso
Cu5_9 Cu 0.75543(5) 1.000 0.81511(4) 0.0064 Uiso
N19_10 N 0.28256(25) 0.96122(21) 0.81692(28) 0.0234 Uiso
N23_18 N 0.20715(23) 0.96249(21) 0.80913(27) 0.0234 Uiso
N25_4 N 0.30913(27) 0.96249(21) 0.79285(23) 0.0234 Uiso
Cu2_4 Cu 0.24457(5) -0.000 0.18489(4) 0.0064 Uiso
N10_8 N 0.28256(25) 0.03878(21) 0.18308(28) 0.0234 Uiso
N11_16 N 0.30913(27) 0.03751(21) 0.20715(23) 0.0234 Uiso
C13_18 C 0.31760(29) 0.08396(23) 0.17460(31) 0.0234 Uiso
C14_18 C 0.33837(33) 0.11643(20) 0.16074(33) 0.0234 Uiso
C15_18 C 0.32176(21) 0.13412(25) 0.13007(27) 0.0234 Uiso
N12_18 N 0.33241(28) 0.06494(25) 0.20194(22) 0.0234 Uiso
C16_18 C 0.28499(27) 0.06802(29) 0.16246(33) 0.0234 Uiso
N13_17 N 0.46122(21) 0.18308(28) 0.21744(25) 0.0234 Uiso
C17_18 C 0.41604(23) 0.17460(31) 0.18240(29) 0.0234 Uiso
C18_18 C 0.38357(20) 0.16074(33) 0.16163(33) 0.0234 Uiso
C19_18 C 0.36588(25) 0.13007(27) 0.17824(21) 0.0234 Uiso
N15_18 N 0.43506(25) 0.20194(22) 0.16759(28) 0.0234 Uiso
C20_18 C 0.43198(29) 0.16246(33) 0.21501(27) 0.0234 Uiso
N16_11 N 0.31692(28) 0.21744(25) 0.03878(21) 0.0234 Uiso
N17_5 N 0.29285(23) 0.19087(27) 0.03751(21) 0.0234 Uiso
C21_18 C 0.32540(31) 0.18240(29) 0.08396(23) 0.0234 Uiso
C22_18 C 0.33926(33) 0.16163(33) 0.11643(20) 0.0234 Uiso
C23_18 C 0.36993(27) 0.17824(21) 0.13412(25) 0.0234 Uiso
N18_18 N 0.29806(22) 0.16759(28) 0.06494(25) 0.0234 Uiso
C24_18 C 0.33754(33) 0.21501(27) 0.06802(29) 0.0234 Uiso
N24_8 N 0.20715(23) 0.03751(21) 0.19087(27) 0.0234 Uiso
H3_18 H 0.422625 0.141535 0.233404 . .
H4_18 H 0.296113 0.125029 0.118965 . .
H5_18 H 0.381035 0.203887 0.125029 . .
H6_18 H 0.266596 0.0773755 0.141535 . .
H8_18 H 0.374971 0.118965 0.203887 . .
H12_18 H 0.358465 0.233404 0.0773755 . .
N1_18 N 0.31692(28) 0.78256(25) 0.03878(21) 0.0234 Uiso
N2_6 N 0.29285(23) 0.80913(27) 0.03751(21) 0.0234 Uiso
C1_18 C 0.32540(31) 0.81760(29) 0.08396(23) 0.0234 Uiso
C2_18 C 0.33926(33) 0.83837(33) 0.11643(20) 0.0234 Uiso
C3_18 C 0.36993(27) 0.82176(21) 0.13412(25) 0.0234 Uiso
N3_18 N 0.29806(22) 0.83241(28) 0.06494(25) 0.0234 Uiso
C4_18 C 0.33754(33) 0.78499(27) 0.06802(29) 0.0234 Uiso
N4_9 N 0.28256(25) 0.96122(21) 0.18308(28) 0.0234 Uiso
N5_17 N 0.30913(27) 0.96249(21) 0.20715(23) 0.0234 Uiso
C5_18 C 0.31760(29) 0.91604(23) 0.17460(31) 0.0234 Uiso
C6_18 C 0.33837(33) 0.88357(20) 0.16074(33) 0.0234 Uiso
C7_18 C 0.32176(21) 0.86588(25) 0.13007(27) 0.0234 Uiso
N6_18 N 0.33241(28) 0.93506(25) 0.20194(22) 0.0234 Uiso
C8_18 C 0.28499(27) 0.93198(29) 0.16246(33) 0.0234 Uiso
N7_18 N 0.46122(21) 0.81692(28) 0.21744(25) 0.0234 Uiso
C9_18 C 0.41604(23) 0.82540(31) 0.18240(29) 0.0234 Uiso
C10_18 C 0.38357(20) 0.83926(33) 0.16163(33) 0.0234 Uiso
C11_18 C 0.36588(25) 0.86993(27) 0.17824(21) 0.0234 Uiso
N9_18 N 0.43506(25) 0.79806(22) 0.16759(28) 0.0234 Uiso
C12_18 C 0.43198(29) 0.83754(33) 0.21501(27) 0.0234 Uiso
Cu2_5 Cu 0.24457(5) 1.000 0.18489(4) 0.0064 Uiso
Cu3_4 Cu 0.25543(5) 0.81511(4) 0.000 0.0064 Uiso
N21_10 N 0.21744(25) 0.81692(28) 0.03878(21) 0.0234 Uiso
N26_8 N 0.20715(23) 0.96249(21) 0.19087(27) 0.0234 Uiso
H1_18 H 0.358465 0.766596 0.0773755 . .
H2_18 H 0.381035 0.796113 0.125029 . .
H7_18 H 0.422625 0.858465 0.233404 . .
H9_18 H 0.296113 0.874971 0.118965 . .
H10_18 H 0.266596 0.922625 0.141535 . .
H11_18 H 0.374971 0.881035 0.203887 . .
Cu3_5 Cu 0.25543(5) 0.81511(4) 1.000 0.0064 Uiso
N19_11 N 0.31692(28) 0.78256(25) 0.96122(21) 0.0234 Uiso
N20_10 N 0.21744(25) 0.81692(28) 0.96122(21) 0.0234 Uiso
N25_5 N 0.29285(23) 0.80913(27) 0.96249(21) 0.0234 Uiso
Cu4_16 Cu 0.75543(5) 0.000 0.18489(4) 0.0064 Uiso
N10_9 N 0.68308(28) 0.78256(25) 0.03878(21) 0.0234 Uiso
N11_17 N 0.70715(23) 0.80913(27) 0.03751(21) 0.0234 Uiso
C13_19 C 0.67460(31) 0.81760(29) 0.08396(23) 0.0234 Uiso
C14_19 C 0.66074(33) 0.83837(33) 0.11643(20) 0.0234 Uiso
C15_19 C 0.63007(27) 0.82176(21) 0.13412(25) 0.0234 Uiso
N12_19 N 0.70194(22) 0.83241(28) 0.06494(25) 0.0234 Uiso
C16_19 C 0.66246(33) 0.78499(27) 0.06802(29) 0.0234 Uiso
N13_18 N 0.71744(25) 0.96122(21) 0.18308(28) 0.0234 Uiso
N14_17 N 0.69087(27) 0.96249(21) 0.20715(23) 0.0234 Uiso
C17_19 C 0.68240(29) 0.91604(23) 0.17460(31) 0.0234 Uiso
C18_19 C 0.66163(33) 0.88357(20) 0.16074(33) 0.0234 Uiso
C19_19 C 0.67824(21) 0.86588(25) 0.13007(27) 0.0234 Uiso
N15_19 N 0.66759(28) 0.93506(25) 0.20194(22) 0.0234 Uiso
C20_19 C 0.71501(27) 0.93198(29) 0.16246(33) 0.0234 Uiso
N16_12 N 0.53878(21) 0.81692(28) 0.21744(25) 0.0234 Uiso
C21_19 C 0.58396(23) 0.82540(31) 0.18240(29) 0.0234 Uiso
C22_19 C 0.61643(20) 0.83926(33) 0.16163(33) 0.0234 Uiso
C23_19 C 0.63412(25) 0.86993(27) 0.17824(21) 0.0234 Uiso
N18_19 N 0.56494(25) 0.79806(22) 0.16759(28) 0.0234 Uiso
C24_19 C 0.56802(29) 0.83754(33) 0.21501(27) 0.0234 Uiso
Cu4_17 Cu 0.75543(5) 1.000 0.18489(4) 0.0064 Uiso
Cu7_16 Cu 0.74457(5) 0.81511(4) -0.000 0.0064 Uiso
H3_19 H 0.733404 0.922625 0.141535 . .
H4_19 H 0.618965 0.796113 0.125029 . .
H5_19 H 0.625029 0.881035 0.203887 . .
H6_19 H 0.641535 0.766596 0.0773755 . .
H8_19 H 0.703887 0.874971 0.118965 . .
H12_19 H 0.577375 0.858465 0.233404 . .
N1_19 N 0.53878(21) 0.81692(28) 0.78256(25) 0.0234 Uiso
C1_19 C 0.58396(23) 0.82540(31) 0.81760(29) 0.0234 Uiso
C2_19 C 0.61643(20) 0.83926(33) 0.83837(33) 0.0234 Uiso
C3_19 C 0.63412(25) 0.86993(27) 0.82176(21) 0.0234 Uiso
N3_19 N 0.56494(25) 0.79806(22) 0.83241(28) 0.0234 Uiso
C4_19 C 0.56802(29) 0.83754(33) 0.78499(27) 0.0234 Uiso
N4_10 N 0.68308(28) 0.78256(25) 0.96122(21) 0.0234 Uiso
N5_18 N 0.70715(23) 0.80913(27) 0.96249(21) 0.0234 Uiso
C5_19 C 0.67460(31) 0.81760(29) 0.91604(23) 0.0234 Uiso
C6_19 C 0.66074(33) 0.83837(33) 0.88357(20) 0.0234 Uiso
C7_19 C 0.63007(27) 0.82176(21) 0.86588(25) 0.0234 Uiso
N6_19 N 0.70194(22) 0.83241(28) 0.93506(25) 0.0234 Uiso
C8_19 C 0.66246(33) 0.78499(27) 0.93198(29) 0.0234 Uiso
N7_19 N 0.71744(25) 0.96122(21) 0.81692(28) 0.0234 Uiso
N8_18 N 0.69087(27) 0.96249(21) 0.79285(23) 0.0234 Uiso
C9_19 C 0.68240(29) 0.91604(23) 0.82540(31) 0.0234 Uiso
C10_19 C 0.66163(33) 0.88357(20) 0.83926(33) 0.0234 Uiso
C11_19 C 0.67824(21) 0.86588(25) 0.86993(27) 0.0234 Uiso
N9_19 N 0.66759(28) 0.93506(25) 0.79806(22) 0.0234 Uiso
C12_19 C 0.71501(27) 0.93198(29) 0.83754(33) 0.0234 Uiso
Cu7_17 Cu 0.74457(5) 0.81511(4) 1.000 0.0064 Uiso
N19_12 N 0.46122(21) 0.81692(28) 0.78256(25) 0.0234 Uiso
H1_19 H 0.577375 0.858465 0.766596 . .
H2_19 H 0.625029 0.881035 0.796113 . .
H7_19 H 0.733404 0.922625 0.858465 . .
H9_19 H 0.618965 0.796113 0.874971 . .
H10_19 H 0.641535 0.766596 0.922625 . .
H11_19 H 0.703887 0.874971 0.881035 . .
N24_9 N 0.79285(23) 0.03751(21) 0.80913(27) 0.0234 Uiso
N20_11 N 0.78256(25) 0.81692(28) 0.03878(21) 0.0234 Uiso
N21_11 N 0.78256(25) 0.81692(28) 0.96122(21) 0.0234 Uiso
N26_9 N 0.79285(23) 0.96249(21) 0.80913(27) 0.0234 Uiso
N1_20 N 0.53878(21) 0.18308(28) 0.21744(25) 0.0234 Uiso
C1_20 C 0.58396(23) 0.17460(31) 0.18240(29) 0.0234 Uiso
C2_20 C 0.61643(20) 0.16074(33) 0.16163(33) 0.0234 Uiso
C3_20 C 0.63412(25) 0.13007(27) 0.17824(21) 0.0234 Uiso
N3_20 N 0.56494(25) 0.20194(22) 0.16759(28) 0.0234 Uiso
C4_20 C 0.56802(29) 0.16246(33) 0.21501(27) 0.0234 Uiso
N4_11 N 0.68308(28) 0.21744(25) 0.03878(21) 0.0234 Uiso
N5_19 N 0.70715(23) 0.19087(27) 0.03751(21) 0.0234 Uiso
C5_20 C 0.67460(31) 0.18240(29) 0.08396(23) 0.0234 Uiso
C6_20 C 0.66074(33) 0.16163(33) 0.11643(20) 0.0234 Uiso
C7_20 C 0.63007(27) 0.17824(21) 0.13412(25) 0.0234 Uiso
N6_20 N 0.70194(22) 0.16759(28) 0.06494(25) 0.0234 Uiso
C8_20 C 0.66246(33) 0.21501(27) 0.06802(29) 0.0234 Uiso
N7_20 N 0.71744(25) 0.03878(21) 0.18308(28) 0.0234 Uiso
N8_19 N 0.69087(27) 0.03751(21) 0.20715(23) 0.0234 Uiso
C9_20 C 0.68240(29) 0.08396(23) 0.17460(31) 0.0234 Uiso
C10_20 C 0.66163(33) 0.11643(20) 0.16074(33) 0.0234 Uiso
C11_20 C 0.67824(21) 0.13412(25) 0.13007(27) 0.0234 Uiso
N9_20 N 0.66759(28) 0.06494(25) 0.20194(22) 0.0234 Uiso
C12_20 C 0.71501(27) 0.06802(29) 0.16246(33) 0.0234 Uiso
H1_20 H 0.577375 0.141535 0.233404 . .
H2_20 H 0.625029 0.118965 0.203887 . .
H7_20 H 0.733404 0.0773755 0.141535 . .
H9_20 H 0.618965 0.203887 0.125029 . .
H10_20 H 0.641535 0.233404 0.0773755 . .
H11_20 H 0.703887 0.125029 0.118965 . .
N22_19 N 0.79285(23) 0.03751(21) 0.19087(27) 0.0234 Uiso
N23_19 N 0.79285(23) 0.96249(21) 0.19087(27) 0.0234 Uiso
N21_12 N 0.78256(25) 0.18308(28) 0.03878(21) 0.0234 Uiso
N20_12 N 0.78256(25) 0.18308(28) 0.96122(21) 0.0234 Uiso
N10_10 N 0.21744(25) 0.18308(28) 0.03878(21) 0.0234 Uiso
N11_18 N 0.19087(27) 0.20715(23) 0.03751(21) 0.0234 Uiso
C13_20 C 0.18240(29) 0.17460(31) 0.08396(23) 0.0234 Uiso
C14_20 C 0.16163(33) 0.16074(33) 0.11643(20) 0.0234 Uiso
C15_20 C 0.17824(21) 0.13007(27) 0.13412(25) 0.0234 Uiso
N12_20 N 0.16759(28) 0.20194(22) 0.06494(25) 0.0234 Uiso
C16_20 C 0.21501(27) 0.16246(33) 0.06802(29) 0.0234 Uiso
N13_19 N 0.03878(21) 0.21744(25) 0.18308(28) 0.0234 Uiso
N14_18 N 0.03751(21) 0.19087(27) 0.20715(23) 0.0234 Uiso
C17_20 C 0.08396(23) 0.18240(29) 0.17460(31) 0.0234 Uiso
C18_20 C 0.11643(20) 0.16163(33) 0.16074(33) 0.0234 Uiso
C19_20 C 0.13412(25) 0.17824(21) 0.13007(27) 0.0234 Uiso
N15_20 N 0.06494(25) 0.16759(28) 0.20194(22) 0.0234 Uiso
C20_20 C 0.06802(29) 0.21501(27) 0.16246(33) 0.0234 Uiso
N16_13 N 0.18308(28) 0.03878(21) 0.21744(25) 0.0234 Uiso
C21_20 C 0.17460(31) 0.08396(23) 0.18240(29) 0.0234 Uiso
C22_20 C 0.16074(33) 0.11643(20) 0.16163(33) 0.0234 Uiso
C23_20 C 0.13007(27) 0.13412(25) 0.17824(21) 0.0234 Uiso
N18_20 N 0.20194(22) 0.06494(25) 0.16759(28) 0.0234 Uiso
C24_20 C 0.16246(33) 0.06802(29) 0.21501(27) 0.0234 Uiso
Cu4_18 Cu 0.000 0.25543(5) 0.18489(4) 0.0064 Uiso
Cu5_10 Cu 0.18489(4) 0.000 0.25543(5) 0.0064 Uiso
Cu7_18 Cu 0.18489(4) 0.24457(5) -0.000 0.0064 Uiso
Cu9_18 Cu 0.000 0.18489(4) 0.24457(5) 0.0064 Uiso
H3_20 H 0.0773755 0.233404 0.141535 . .
H4_20 H 0.203887 0.118965 0.125029 . .
H5_20 H 0.118965 0.125029 0.203887 . .
H6_20 H 0.233404 0.141535 0.0773755 . .
H8_20 H 0.125029 0.203887 0.118965 . .
H12_20 H 0.141535 0.0773755 0.233404 . .
Cu1_12 Cu 0.18489(4) 0.000 0.74457(5) 0.0064 Uiso
N1_21 N 0.18308(28) 0.03878(21) 0.78256(25) 0.0234 Uiso
C1_21 C 0.17460(31) 0.08396(23) 0.81760(29) 0.0234 Uiso
C2_21 C 0.16074(33) 0.11643(20) 0.83837(33) 0.0234 Uiso
C3_21 C 0.13007(27) 0.13412(25) 0.82176(21) 0.0234 Uiso
N3_21 N 0.20194(22) 0.06494(25) 0.83241(28) 0.0234 Uiso
C4_21 C 0.16246(33) 0.06802(29) 0.78499(27) 0.0234 Uiso
N4_12 N 0.21744(25) 0.18308(28) 0.96122(21) 0.0234 Uiso
N5_20 N 0.19087(27) 0.20715(23) 0.96249(21) 0.0234 Uiso
C5_21 C 0.18240(29) 0.17460(31) 0.91604(23) 0.0234 Uiso
C6_21 C 0.16163(33) 0.16074(33) 0.88357(20) 0.0234 Uiso
C7_21 C 0.17824(21) 0.13007(27) 0.86588(25) 0.0234 Uiso
N6_21 N 0.16759(28) 0.20194(22) 0.93506(25) 0.0234 Uiso
C8_21 C 0.21501(27) 0.16246(33) 0.93198(29) 0.0234 Uiso
N7_21 N 0.03878(21) 0.21744(25) 0.81692(28) 0.0234 Uiso
N8_20 N 0.03751(21) 0.19087(27) 0.79285(23) 0.0234 Uiso
C9_21 C 0.08396(23) 0.18240(29) 0.82540(31) 0.0234 Uiso
C10_21 C 0.11643(20) 0.16163(33) 0.83926(33) 0.0234 Uiso
C11_21 C 0.13412(25) 0.17824(21) 0.86993(27) 0.0234 Uiso
N9_21 N 0.06494(25) 0.16759(28) 0.79806(22) 0.0234 Uiso
C12_21 C 0.06802(29) 0.21501(27) 0.83754(33) 0.0234 Uiso
Cu6_15 Cu 0.000 0.25543(5) 0.81511(4) 0.0064 Uiso
Cu7_19 Cu 0.18489(4) 0.24457(5) 1.000 0.0064 Uiso
Cu10_17 Cu 0.000 0.18489(4) 0.75543(5) 0.0064 Uiso
N22_20 N 0.19087(27) 0.03751(21) 0.70715(23) 0.0234 Uiso
H1_21 H 0.141535 0.0773755 0.766596 . .
H2_21 H 0.118965 0.125029 0.796113 . .
H7_21 H 0.0773755 0.233404 0.858465 . .
H9_21 H 0.203887 0.118965 0.874971 . .
H10_21 H 0.233404 0.141535 0.922625 . .
H11_21 H 0.125029 0.203887 0.881035 . .
Cu5_11 Cu 0.18489(4) 1.000 0.25543(5) 0.0064 Uiso
Cu1_13 Cu 0.18489(4) 1.000 0.74457(5) 0.0064 Uiso
N19_13 N 0.18308(28) 0.96122(21) 0.78256(25) 0.0234 Uiso
N23_20 N 0.19087(27) 0.96249(21) 0.70715(23) 0.0234 Uiso
Cu4_19 Cu 1.000 0.25543(5) 0.18489(4) 0.0064 Uiso
Cu9_19 Cu 1.000 0.18489(4) 0.24457(5) 0.0064 Uiso
Cu6_16 Cu 1.000 0.25543(5) 0.81511(4) 0.0064 Uiso
Cu10_18 Cu 1.000 0.18489(4) 0.75543(5) 0.0064 Uiso
N22_21 N 0.20715(23) 0.69087(27) 0.03751(21) 0.0234 Uiso
N23_21 N 0.20715(23) 0.69087(27) 0.96249(21) 0.0234 Uiso
C13_21 C 0.41604(23) 0.82540(31) 0.81760(29) 0.0234 Uiso
C14_21 C 0.38357(20) 0.83926(33) 0.83837(33) 0.0234 Uiso
C15_21 C 0.36588(25) 0.86993(27) 0.82176(21) 0.0234 Uiso
N12_21 N 0.43506(25) 0.79806(22) 0.83241(28) 0.0234 Uiso
C16_21 C 0.43198(29) 0.83754(33) 0.78499(27) 0.0234 Uiso
C17_21 C 0.32540(31) 0.81760(29) 0.91604(23) 0.0234 Uiso
C18_21 C 0.33926(33) 0.83837(33) 0.88357(20) 0.0234 Uiso
C19_21 C 0.36993(27) 0.82176(21) 0.86588(25) 0.0234 Uiso
N15_21 N 0.29806(22) 0.83241(28) 0.93506(25) 0.0234 Uiso
C20_21 C 0.33754(33) 0.78499(27) 0.93198(29) 0.0234 Uiso
C21_21 C 0.31760(29) 0.91604(23) 0.82540(31) 0.0234 Uiso
C22_21 C 0.33837(33) 0.88357(20) 0.83926(33) 0.0234 Uiso
C23_21 C 0.32176(21) 0.86588(25) 0.86993(27) 0.0234 Uiso
N18_21 N 0.33241(28) 0.93506(25) 0.79806(22) 0.0234 Uiso
C24_21 C 0.28499(27) 0.93198(29) 0.83754(33) 0.0234 Uiso
H3_21 H 0.358465 0.766596 0.922625 . .
H4_21 H 0.374971 0.881035 0.796113 . .
H5_21 H 0.296113 0.874971 0.881035 . .
H6_21 H 0.422625 0.858465 0.766596 . .
H8_21 H 0.381035 0.796113 0.874971 . .
H12_21 H 0.266596 0.922625 0.858465 . .
N23_22 N 0.19087(27) 0.03751(21) 0.29285(23) 0.0234 Uiso
N1_22 N 0.18308(28) 0.96122(21) 0.21744(25) 0.0234 Uiso
C1_22 C 0.17460(31) 0.91604(23) 0.18240(29) 0.0234 Uiso
C2_22 C 0.16074(33) 0.88357(20) 0.16163(33) 0.0234 Uiso
C3_22 C 0.13007(27) 0.86588(25) 0.17824(21) 0.0234 Uiso
N3_22 N 0.20194(22) 0.93506(25) 0.16759(28) 0.0234 Uiso
C4_22 C 0.16246(33) 0.93198(29) 0.21501(27) 0.0234 Uiso
N5_21 N 0.19087(27) 0.79285(23) 0.03751(21) 0.0234 Uiso
C5_22 C 0.18240(29) 0.82540(31) 0.08396(23) 0.0234 Uiso
C6_22 C 0.16163(33) 0.83926(33) 0.11643(20) 0.0234 Uiso
C7_22 C 0.17824(21) 0.86993(27) 0.13412(25) 0.0234 Uiso
N6_22 N 0.16759(28) 0.79806(22) 0.06494(25) 0.0234 Uiso
C8_22 C 0.21501(27) 0.83754(33) 0.06802(29) 0.0234 Uiso
N7_22 N 0.03878(21) 0.78256(25) 0.18308(28) 0.0234 Uiso
N8_21 N 0.03751(21) 0.80913(27) 0.20715(23) 0.0234 Uiso
C9_22 C 0.08396(23) 0.81760(29) 0.17460(31) 0.0234 Uiso
C10_22 C 0.11643(20) 0.83837(33) 0.16074(33) 0.0234 Uiso
C11_22 C 0.13412(25) 0.82176(21) 0.13007(27) 0.0234 Uiso
N9_22 N 0.06494(25) 0.83241(28) 0.20194(22) 0.0234 Uiso
C12_22 C 0.06802(29) 0.78499(27) 0.16246(33) 0.0234 Uiso
Cu6_17 Cu 0.000 0.74457(5) 0.18489(4) 0.0064 Uiso
Cu7_20 Cu 0.18489(4) 0.75543(5) 0.000 0.0064 Uiso
Cu10_19 Cu 0.000 0.81511(4) 0.24457(5) 0.0064 Uiso
N22_22 N 0.19087(27) 0.96249(21) 0.29285(23) 0.0234 Uiso
H1_22 H 0.141535 0.922625 0.233404 . .
H2_22 H 0.118965 0.874971 0.203887 . .
H7_22 H 0.0773755 0.766596 0.141535 . .
H9_22 H 0.203887 0.881035 0.125029 . .
H10_22 H 0.233404 0.858465 0.0773755 . .
H11_22 H 0.125029 0.796113 0.118965 . .
N11_19 N 0.19087(27) 0.79285(23) 0.96249(21) 0.0234 Uiso
C13_22 C 0.18240(29) 0.82540(31) 0.91604(23) 0.0234 Uiso
C14_22 C 0.16163(33) 0.83926(33) 0.88357(20) 0.0234 Uiso
C15_22 C 0.17824(21) 0.86993(27) 0.86588(25) 0.0234 Uiso
N12_22 N 0.16759(28) 0.79806(22) 0.93506(25) 0.0234 Uiso
C16_22 C 0.21501(27) 0.83754(33) 0.93198(29) 0.0234 Uiso
N13_20 N 0.03878(21) 0.78256(25) 0.81692(28) 0.0234 Uiso
N14_19 N 0.03751(21) 0.80913(27) 0.79285(23) 0.0234 Uiso
C17_22 C 0.08396(23) 0.81760(29) 0.82540(31) 0.0234 Uiso
C18_22 C 0.11643(20) 0.83837(33) 0.83926(33) 0.0234 Uiso
C19_22 C 0.13412(25) 0.82176(21) 0.86993(27) 0.0234 Uiso
N15_22 N 0.06494(25) 0.83241(28) 0.79806(22) 0.0234 Uiso
C20_22 C 0.06802(29) 0.78499(27) 0.83754(33) 0.0234 Uiso
C21_22 C 0.17460(31) 0.91604(23) 0.81760(29) 0.0234 Uiso
C22_22 C 0.16074(33) 0.88357(20) 0.83837(33) 0.0234 Uiso
C23_22 C 0.13007(27) 0.86588(25) 0.82176(21) 0.0234 Uiso
N18_22 N 0.20194(22) 0.93506(25) 0.83241(28) 0.0234 Uiso
C24_22 C 0.16246(33) 0.93198(29) 0.78499(27) 0.0234 Uiso
Cu4_20 Cu 0.000 0.74457(5) 0.81511(4) 0.0064 Uiso
Cu7_21 Cu 0.18489(4) 0.75543(5) 1.000 0.0064 Uiso
Cu9_20 Cu 0.000 0.81511(4) 0.75543(5) 0.0064 Uiso
H3_22 H 0.0773755 0.766596 0.858465 . .
H4_22 H 0.203887 0.881035 0.874971 . .
H5_22 H 0.118965 0.874971 0.796113 . .
H6_22 H 0.233404 0.858465 0.922625 . .
H8_22 H 0.125029 0.796113 0.881035 . .
H12_22 H 0.141535 0.922625 0.766596 . .
Cu6_18 Cu 1.000 0.74457(5) 0.18489(4) 0.0064 Uiso
Cu10_20 Cu 1.000 0.81511(4) 0.24457(5) 0.0064 Uiso
Cu4_21 Cu 1.000 0.74457(5) 0.81511(4) 0.0064 Uiso
Cu9_21 Cu 1.000 0.81511(4) 0.75543(5) 0.0064 Uiso
N23_23 N 0.79285(23) 0.69087(27) 0.03751(21) 0.0234 Uiso
N22_23 N 0.79285(23) 0.69087(27) 0.96249(21) 0.0234 Uiso
Cu5_12 Cu 0.81511(4) 0.000 0.25543(5) 0.0064 Uiso
Cu1_14 Cu 0.81511(4) 0.000 0.74457(5) 0.0064 Uiso
N19_14 N 0.81692(28) 0.03878(21) 0.78256(25) 0.0234 Uiso
N23_24 N 0.80913(27) 0.03751(21) 0.70715(23) 0.0234 Uiso
N11_20 N 0.80913(27) 0.79285(23) 0.03751(21) 0.0234 Uiso
C13_23 C 0.81760(29) 0.82540(31) 0.08396(23) 0.0234 Uiso
C14_23 C 0.83837(33) 0.83926(33) 0.11643(20) 0.0234 Uiso
C15_23 C 0.82176(21) 0.86993(27) 0.13412(25) 0.0234 Uiso
N12_23 N 0.83241(28) 0.79806(22) 0.06494(25) 0.0234 Uiso
C16_23 C 0.78499(27) 0.83754(33) 0.06802(29) 0.0234 Uiso
N13_21 N 0.96122(21) 0.78256(25) 0.18308(28) 0.0234 Uiso
N14_20 N 0.96249(21) 0.80913(27) 0.20715(23) 0.0234 Uiso
C17_23 C 0.91604(23) 0.81760(29) 0.17460(31) 0.0234 Uiso
C18_23 C 0.88357(20) 0.83837(33) 0.16074(33) 0.0234 Uiso
C19_23 C 0.86588(25) 0.82176(21) 0.13007(27) 0.0234 Uiso
N15_23 N 0.93506(25) 0.83241(28) 0.20194(22) 0.0234 Uiso
C20_23 C 0.93198(29) 0.78499(27) 0.16246(33) 0.0234 Uiso
N16_14 N 0.81692(28) 0.96122(21) 0.21744(25) 0.0234 Uiso
C21_23 C 0.82540(31) 0.91604(23) 0.18240(29) 0.0234 Uiso
C22_23 C 0.83926(33) 0.88357(20) 0.16163(33) 0.0234 Uiso
C23_23 C 0.86993(27) 0.86588(25) 0.17824(21) 0.0234 Uiso
N18_23 N 0.79806(22) 0.93506(25) 0.16759(28) 0.0234 Uiso
C24_23 C 0.83754(33) 0.93198(29) 0.21501(27) 0.0234 Uiso
Cu5_13 Cu 0.81511(4) 1.000 0.25543(5) 0.0064 Uiso
Cu7_22 Cu 0.81511(4) 0.75543(5) -0.000 0.0064 Uiso
H3_23 H 0.922625 0.766596 0.141535 . .
H4_23 H 0.796113 0.881035 0.125029 . .
H5_23 H 0.881035 0.874971 0.203887 . .
H6_23 H 0.766596 0.858465 0.0773755 . .
H8_23 H 0.874971 0.796113 0.118965 . .
H12_23 H 0.858465 0.922625 0.233404 . .
Cu1_15 Cu 0.81511(4) 1.000 0.74457(5) 0.0064 Uiso
N1_23 N 0.81692(28) 0.96122(21) 0.78256(25) 0.0234 Uiso
C1_23 C 0.82540(31) 0.91604(23) 0.81760(29) 0.0234 Uiso
C2_23 C 0.83926(33) 0.88357(20) 0.83837(33) 0.0234 Uiso
C3_23 C 0.86993(27) 0.86588(25) 0.82176(21) 0.0234 Uiso
N3_23 N 0.79806(22) 0.93506(25) 0.83241(28) 0.0234 Uiso
C4_23 C 0.83754(33) 0.93198(29) 0.78499(27) 0.0234 Uiso
N5_22 N 0.80913(27) 0.79285(23) 0.96249(21) 0.0234 Uiso
C5_23 C 0.81760(29) 0.82540(31) 0.91604(23) 0.0234 Uiso
C6_23 C 0.83837(33) 0.83926(33) 0.88357(20) 0.0234 Uiso
C7_23 C 0.82176(21) 0.86993(27) 0.86588(25) 0.0234 Uiso
N6_23 N 0.83241(28) 0.79806(22) 0.93506(25) 0.0234 Uiso
C8_23 C 0.78499(27) 0.83754(33) 0.93198(29) 0.0234 Uiso
N7_23 N 0.96122(21) 0.78256(25) 0.81692(28) 0.0234 Uiso
N8_22 N 0.96249(21) 0.80913(27) 0.79285(23) 0.0234 Uiso
C9_23 C 0.91604(23) 0.81760(29) 0.82540(31) 0.0234 Uiso
C10_23 C 0.88357(20) 0.83837(33) 0.83926(33) 0.0234 Uiso
C11_23 C 0.86588(25) 0.82176(21) 0.86993(27) 0.0234 Uiso
N9_23 N 0.93506(25) 0.83241(28) 0.79806(22) 0.0234 Uiso
C12_23 C 0.93198(29) 0.78499(27) 0.83754(33) 0.0234 Uiso
Cu7_23 Cu 0.81511(4) 0.75543(5) 1.000 0.0064 Uiso
N22_24 N 0.80913(27) 0.96249(21) 0.70715(23) 0.0234 Uiso
H1_23 H 0.858465 0.922625 0.766596 . .
H2_23 H 0.881035 0.874971 0.796113 . .
H7_23 H 0.922625 0.766596 0.858465 . .
H9_23 H 0.796113 0.881035 0.874971 . .
H10_23 H 0.766596 0.858465 0.922625 . .
H11_23 H 0.874971 0.796113 0.881035 . .
N23_25 N 0.20715(23) 0.30913(27) 0.03751(21) 0.0234 Uiso
N22_25 N 0.20715(23) 0.30913(27) 0.96249(21) 0.0234 Uiso
N22_26 N 0.79285(23) 0.30913(27) 0.03751(21) 0.0234 Uiso
N23_26 N 0.79285(23) 0.30913(27) 0.96249(21) 0.0234 Uiso
N1_24 N 0.81692(28) 0.03878(21) 0.21744(25) 0.0234 Uiso
C1_24 C 0.82540(31) 0.08396(23) 0.18240(29) 0.0234 Uiso
C2_24 C 0.83926(33) 0.11643(20) 0.16163(33) 0.0234 Uiso
C3_24 C 0.86993(27) 0.13412(25) 0.17824(21) 0.0234 Uiso
N3_24 N 0.79806(22) 0.06494(25) 0.16759(28) 0.0234 Uiso
C4_24 C 0.83754(33) 0.06802(29) 0.21501(27) 0.0234 Uiso
N5_23 N 0.80913(27) 0.20715(23) 0.03751(21) 0.0234 Uiso
C5_24 C 0.81760(29) 0.17460(31) 0.08396(23) 0.0234 Uiso
C6_24 C 0.83837(33) 0.16074(33) 0.11643(20) 0.0234 Uiso
C7_24 C 0.82176(21) 0.13007(27) 0.13412(25) 0.0234 Uiso
N6_24 N 0.83241(28) 0.20194(22) 0.06494(25) 0.0234 Uiso
C8_24 C 0.78499(27) 0.16246(33) 0.06802(29) 0.0234 Uiso
N7_24 N 0.96122(21) 0.21744(25) 0.18308(28) 0.0234 Uiso
N8_23 N 0.96249(21) 0.19087(27) 0.20715(23) 0.0234 Uiso
C9_24 C 0.91604(23) 0.18240(29) 0.17460(31) 0.0234 Uiso
C10_24 C 0.88357(20) 0.16163(33) 0.16074(33) 0.0234 Uiso
C11_24 C 0.86588(25) 0.17824(21) 0.13007(27) 0.0234 Uiso
N9_24 N 0.93506(25) 0.16759(28) 0.20194(22) 0.0234 Uiso
C12_24 C 0.93198(29) 0.21501(27) 0.16246(33) 0.0234 Uiso
Cu7_24 Cu 0.81511(4) 0.24457(5) 0.000 0.0064 Uiso
N22_27 N 0.80913(27) 0.03751(21) 0.29285(23) 0.0234 Uiso
H1_24 H 0.858465 0.0773755 0.233404 . .
H2_24 H 0.881035 0.125029 0.203887 . .
H7_24 H 0.922625 0.233404 0.141535 . .
H9_24 H 0.796113 0.118965 0.125029 . .
H10_24 H 0.766596 0.141535 0.0773755 . .
H11_24 H 0.874971 0.203887 0.118965 . .
N11_21 N 0.80913(27) 0.20715(23) 0.96249(21) 0.0234 Uiso
C13_24 C 0.81760(29) 0.17460(31) 0.91604(23) 0.0234 Uiso
C14_24 C 0.83837(33) 0.16074(33) 0.88357(20) 0.0234 Uiso
C15_24 C 0.82176(21) 0.13007(27) 0.86588(25) 0.0234 Uiso
N12_24 N 0.83241(28) 0.20194(22) 0.93506(25) 0.0234 Uiso
C16_24 C 0.78499(27) 0.16246(33) 0.93198(29) 0.0234 Uiso
N13_22 N 0.96122(21) 0.21744(25) 0.81692(28) 0.0234 Uiso
N14_21 N 0.96249(21) 0.19087(27) 0.79285(23) 0.0234 Uiso
C17_24 C 0.91604(23) 0.18240(29) 0.82540(31) 0.0234 Uiso
C18_24 C 0.88357(20) 0.16163(33) 0.83926(33) 0.0234 Uiso
C19_24 C 0.86588(25) 0.17824(21) 0.86993(27) 0.0234 Uiso
N15_24 N 0.93506(25) 0.16759(28) 0.79806(22) 0.0234 Uiso
C20_24 C 0.93198(29) 0.21501(27) 0.83754(33) 0.0234 Uiso
C21_24 C 0.82540(31) 0.08396(23) 0.81760(29) 0.0234 Uiso
C22_24 C 0.83926(33) 0.11643(20) 0.83837(33) 0.0234 Uiso
C23_24 C 0.86993(27) 0.13412(25) 0.82176(21) 0.0234 Uiso
N18_24 N 0.79806(22) 0.06494(25) 0.83241(28) 0.0234 Uiso
C24_24 C 0.83754(33) 0.06802(29) 0.78499(27) 0.0234 Uiso
Cu7_25 Cu 0.81511(4) 0.24457(5) 1.000 0.0064 Uiso
H3_24 H 0.922625 0.233404 0.858465 . .
H4_24 H 0.796113 0.118965 0.874971 . .
H5_24 H 0.881035 0.125029 0.796113 . .
H6_24 H 0.766596 0.141535 0.922625 . .
H8_24 H 0.874971 0.203887 0.881035 . .
H12_24 H 0.858465 0.0773755 0.766596 . .
N23_27 N 0.80913(27) 0.96249(21) 0.29285(23) 0.0234 Uiso
N10_11 N 0.03878(21) 0.68308(28) 0.78256(25) 0.0234 Uiso
N11_22 N 0.03751(21) 0.70715(23) 0.80913(27) 0.0234 Uiso
C13_25 C 0.08396(23) 0.67460(31) 0.81760(29) 0.0234 Uiso
C14_25 C 0.11643(20) 0.66074(33) 0.83837(33) 0.0234 Uiso
C15_25 C 0.13412(25) 0.63007(27) 0.82176(21) 0.0234 Uiso
N12_25 N 0.06494(25) 0.70194(22) 0.83241(28) 0.0234 Uiso
C16_25 C 0.06802(29) 0.66246(33) 0.78499(27) 0.0234 Uiso
N13_23 N 0.18308(28) 0.71744(25) 0.96122(21) 0.0234 Uiso
C17_25 C 0.17460(31) 0.68240(29) 0.91604(23) 0.0234 Uiso
C18_25 C 0.16074(33) 0.66163(33) 0.88357(20) 0.0234 Uiso
C19_25 C 0.13007(27) 0.67824(21) 0.86588(25) 0.0234 Uiso
N15_25 N 0.20194(22) 0.66759(28) 0.93506(25) 0.0234 Uiso
C20_25 C 0.16246(33) 0.71501(27) 0.93198(29) 0.0234 Uiso
N16_15 N 0.21744(25) 0.53878(21) 0.81692(28) 0.0234 Uiso
C21_25 C 0.18240(29) 0.58396(23) 0.82540(31) 0.0234 Uiso
C22_25 C 0.16163(33) 0.61643(20) 0.83926(33) 0.0234 Uiso
C23_25 C 0.17824(21) 0.63412(25) 0.86993(27) 0.0234 Uiso
N18_25 N 0.16759(28) 0.56494(25) 0.79806(22) 0.0234 Uiso
C24_25 C 0.21501(27) 0.56802(29) 0.83754(33) 0.0234 Uiso
H3_25 H 0.141535 0.733404 0.922625 . .
H4_25 H 0.125029 0.618965 0.796113 . .
H5_25 H 0.203887 0.625029 0.881035 . .
H6_25 H 0.0773755 0.641535 0.766596 . .
H8_25 H 0.118965 0.703887 0.874971 . .
H12_25 H 0.233404 0.577375 0.858465 . .
N1_25 N 0.78256(25) 0.53878(21) 0.81692(28) 0.0234 Uiso
C1_25 C 0.81760(29) 0.58396(23) 0.82540(31) 0.0234 Uiso
C2_25 C 0.83837(33) 0.61643(20) 0.83926(33) 0.0234 Uiso
C3_25 C 0.82176(21) 0.63412(25) 0.86993(27) 0.0234 Uiso
N3_25 N 0.83241(28) 0.56494(25) 0.79806(22) 0.0234 Uiso
C4_25 C 0.78499(27) 0.56802(29) 0.83754(33) 0.0234 Uiso
N4_13 N 0.96122(21) 0.68308(28) 0.78256(25) 0.0234 Uiso
N5_24 N 0.96249(21) 0.70715(23) 0.80913(27) 0.0234 Uiso
C5_25 C 0.91604(23) 0.67460(31) 0.81760(29) 0.0234 Uiso
C6_25 C 0.88357(20) 0.66074(33) 0.83837(33) 0.0234 Uiso
C7_25 C 0.86588(25) 0.63007(27) 0.82176(21) 0.0234 Uiso
N6_25 N 0.93506(25) 0.70194(22) 0.83241(28) 0.0234 Uiso
C8_25 C 0.93198(29) 0.66246(33) 0.78499(27) 0.0234 Uiso
N7_25 N 0.81692(28) 0.71744(25) 0.96122(21) 0.0234 Uiso
C9_25 C 0.82540(31) 0.68240(29) 0.91604(23) 0.0234 Uiso
C10_25 C 0.83926(33) 0.66163(33) 0.88357(20) 0.0234 Uiso
C11_25 C 0.86993(27) 0.67824(21) 0.86588(25) 0.0234 Uiso
N9_25 N 0.79806(22) 0.66759(28) 0.93506(25) 0.0234 Uiso
C12_25 C 0.83754(33) 0.71501(27) 0.93198(29) 0.0234 Uiso
N19_15 N 0.78256(25) 0.46122(21) 0.81692(28) 0.0234 Uiso
H1_25 H 0.766596 0.577375 0.858465 . .
H2_25 H 0.796113 0.625029 0.881035 . .
H7_25 H 0.858465 0.733404 0.922625 . .
H9_25 H 0.874971 0.618965 0.796113 . .
H10_25 H 0.922625 0.641535 0.766596 . .
H11_25 H 0.881035 0.703887 0.874971 . .
N1_26 N 0.81692(28) 0.28256(25) 0.03878(21) 0.0234 Uiso
C1_26 C 0.82540(31) 0.31760(29) 0.08396(23) 0.0234 Uiso
C2_26 C 0.83926(33) 0.33837(33) 0.11643(20) 0.0234 Uiso
C3_26 C 0.86993(27) 0.32176(21) 0.13412(25) 0.0234 Uiso
N3_26 N 0.79806(22) 0.33241(28) 0.06494(25) 0.0234 Uiso
C4_26 C 0.83754(33) 0.28499(27) 0.06802(29) 0.0234 Uiso
N4_14 N 0.78256(25) 0.46122(21) 0.18308(28) 0.0234 Uiso
C5_26 C 0.81760(29) 0.41604(23) 0.17460(31) 0.0234 Uiso
C6_26 C 0.83837(33) 0.38357(20) 0.16074(33) 0.0234 Uiso
C7_26 C 0.82176(21) 0.36588(25) 0.13007(27) 0.0234 Uiso
N6_26 N 0.83241(28) 0.43506(25) 0.20194(22) 0.0234 Uiso
C8_26 C 0.78499(27) 0.43198(29) 0.16246(33) 0.0234 Uiso
N7_26 N 0.96122(21) 0.31692(28) 0.21744(25) 0.0234 Uiso
N8_24 N 0.96249(21) 0.29285(23) 0.19087(27) 0.0234 Uiso
C9_26 C 0.91604(23) 0.32540(31) 0.18240(29) 0.0234 Uiso
C10_26 C 0.88357(20) 0.33926(33) 0.16163(33) 0.0234 Uiso
C11_26 C 0.86588(25) 0.36993(27) 0.17824(21) 0.0234 Uiso
N9_26 N 0.93506(25) 0.29806(22) 0.16759(28) 0.0234 Uiso
C12_26 C 0.93198(29) 0.33754(33) 0.21501(27) 0.0234 Uiso
N10_12 N 0.78256(25) 0.53878(21) 0.18308(28) 0.0234 Uiso
C13_26 C 0.81760(29) 0.58396(23) 0.17460(31) 0.0234 Uiso
C14_26 C 0.83837(33) 0.61643(20) 0.16074(33) 0.0234 Uiso
C15_26 C 0.82176(21) 0.63412(25) 0.13007(27) 0.0234 Uiso
N12_26 N 0.83241(28) 0.56494(25) 0.20194(22) 0.0234 Uiso
C16_26 C 0.78499(27) 0.56802(29) 0.16246(33) 0.0234 Uiso
N13_24 N 0.96122(21) 0.68308(28) 0.21744(25) 0.0234 Uiso
N14_22 N 0.96249(21) 0.70715(23) 0.19087(27) 0.0234 Uiso
C17_26 C 0.91604(23) 0.67460(31) 0.18240(29) 0.0234 Uiso
C18_26 C 0.88357(20) 0.66074(33) 0.16163(33) 0.0234 Uiso
C19_26 C 0.86588(25) 0.63007(27) 0.17824(21) 0.0234 Uiso
N15_26 N 0.93506(25) 0.70194(22) 0.16759(28) 0.0234 Uiso
C20_26 C 0.93198(29) 0.66246(33) 0.21501(27) 0.0234 Uiso
N16_16 N 0.81692(28) 0.71744(25) 0.03878(21) 0.0234 Uiso
C21_26 C 0.82540(31) 0.68240(29) 0.08396(23) 0.0234 Uiso
C22_26 C 0.83926(33) 0.66163(33) 0.11643(20) 0.0234 Uiso
C23_26 C 0.86993(27) 0.67824(21) 0.13412(25) 0.0234 Uiso
N18_26 N 0.79806(22) 0.66759(28) 0.06494(25) 0.0234 Uiso
C24_26 C 0.83754(33) 0.71501(27) 0.06802(29) 0.0234 Uiso
H1_26 H 0.858465 0.266596 0.0773755 . .
H2_26 H 0.881035 0.296113 0.125029 . .
H3_26 H 0.922625 0.641535 0.233404 . .
H4_26 H 0.796113 0.625029 0.118965 . .
H5_26 H 0.881035 0.703887 0.125029 . .
H6_26 H 0.766596 0.577375 0.141535 . .
H7_26 H 0.922625 0.358465 0.233404 . .
H8_26 H 0.874971 0.618965 0.203887 . .
H9_26 H 0.796113 0.374971 0.118965 . .
H10_26 H 0.766596 0.422625 0.141535 . .
H11_26 H 0.874971 0.381035 0.203887 . .
H12_26 H 0.858465 0.733404 0.0773755 . .
N19_16 N 0.81692(28) 0.28256(25) 0.96122(21) 0.0234 Uiso
N10_13 N 0.18308(28) 0.28256(25) 0.03878(21) 0.0234 Uiso
C13_27 C 0.17460(31) 0.31760(29) 0.08396(23) 0.0234 Uiso
C14_27 C 0.16074(33) 0.33837(33) 0.11643(20) 0.0234 Uiso
C15_27 C 0.13007(27) 0.32176(21) 0.13412(25) 0.0234 Uiso
N12_27 N 0.20194(22) 0.33241(28) 0.06494(25) 0.0234 Uiso
C16_27 C 0.16246(33) 0.28499(27) 0.06802(29) 0.0234 Uiso
N13_25 N 0.21744(25) 0.46122(21) 0.18308(28) 0.0234 Uiso
C17_27 C 0.18240(29) 0.41604(23) 0.17460(31) 0.0234 Uiso
C18_27 C 0.16163(33) 0.38357(20) 0.16074(33) 0.0234 Uiso
C19_27 C 0.17824(21) 0.36588(25) 0.13007(27) 0.0234 Uiso
N15_27 N 0.16759(28) 0.43506(25) 0.20194(22) 0.0234 Uiso
C20_27 C 0.21501(27) 0.43198(29) 0.16246(33) 0.0234 Uiso
N16_17 N 0.03878(21) 0.31692(28) 0.21744(25) 0.0234 Uiso
N17_6 N 0.03751(21) 0.29285(23) 0.19087(27) 0.0234 Uiso
C21_27 C 0.08396(23) 0.32540(31) 0.18240(29) 0.0234 Uiso
C22_27 C 0.11643(20) 0.33926(33) 0.16163(33) 0.0234 Uiso
C23_27 C 0.13412(25) 0.36993(27) 0.17824(21) 0.0234 Uiso
N18_27 N 0.06494(25) 0.29806(22) 0.16759(28) 0.0234 Uiso
C24_27 C 0.06802(29) 0.33754(33) 0.21501(27) 0.0234 Uiso
H3_27 H 0.233404 0.422625 0.141535 . .
H4_27 H 0.118965 0.296113 0.125029 . .
H5_27 H 0.125029 0.381035 0.203887 . .
H6_27 H 0.141535 0.266596 0.0773755 . .
H8_27 H 0.203887 0.374971 0.118965 . .
H12_27 H 0.0773755 0.358465 0.233404 . .
N1_27 N 0.03878(21) 0.31692(28) 0.78256(25) 0.0234 Uiso
N2_7 N 0.03751(21) 0.29285(23) 0.80913(27) 0.0234 Uiso
C1_27 C 0.08396(23) 0.32540(31) 0.81760(29) 0.0234 Uiso
C2_27 C 0.11643(20) 0.33926(33) 0.83837(33) 0.0234 Uiso
C3_27 C 0.13412(25) 0.36993(27) 0.82176(21) 0.0234 Uiso
N3_27 N 0.06494(25) 0.29806(22) 0.83241(28) 0.0234 Uiso
C4_27 C 0.06802(29) 0.33754(33) 0.78499(27) 0.0234 Uiso
N4_15 N 0.18308(28) 0.28256(25) 0.96122(21) 0.0234 Uiso
C5_27 C 0.17460(31) 0.31760(29) 0.91604(23) 0.0234 Uiso
C6_27 C 0.16074(33) 0.33837(33) 0.88357(20) 0.0234 Uiso
C7_27 C 0.13007(27) 0.32176(21) 0.86588(25) 0.0234 Uiso
N6_27 N 0.20194(22) 0.33241(28) 0.93506(25) 0.0234 Uiso
C8_27 C 0.16246(33) 0.28499(27) 0.93198(29) 0.0234 Uiso
N7_27 N 0.21744(25) 0.46122(21) 0.81692(28) 0.0234 Uiso
C9_27 C 0.18240(29) 0.41604(23) 0.82540(31) 0.0234 Uiso
C10_27 C 0.16163(33) 0.38357(20) 0.83926(33) 0.0234 Uiso
C11_27 C 0.17824(21) 0.36588(25) 0.86993(27) 0.0234 Uiso
N9_27 N 0.16759(28) 0.43506(25) 0.79806(22) 0.0234 Uiso
C12_27 C 0.21501(27) 0.43198(29) 0.83754(33) 0.0234 Uiso
H1_27 H 0.0773755 0.358465 0.766596 . .
H2_27 H 0.125029 0.381035 0.796113 . .
H7_27 H 0.233404 0.422625 0.858465 . .
H9_27 H 0.118965 0.296113 0.874971 . .
H10_27 H 0.141535 0.266596 0.922625 . .
H11_27 H 0.203887 0.374971 0.881035 . .
N19_17 N 0.96122(21) 0.31692(28) 0.78256(25) 0.0234 Uiso
N25_6 N 0.96249(21) 0.29285(23) 0.80913(27) 0.0234 Uiso
N1_28 N 0.03878(21) 0.68308(28) 0.21744(25) 0.0234 Uiso
N2_8 N 0.03751(21) 0.70715(23) 0.19087(27) 0.0234 Uiso
C1_28 C 0.08396(23) 0.67460(31) 0.18240(29) 0.0234 Uiso
C2_28 C 0.11643(20) 0.66074(33) 0.16163(33) 0.0234 Uiso
C3_28 C 0.13412(25) 0.63007(27) 0.17824(21) 0.0234 Uiso
N3_28 N 0.06494(25) 0.70194(22) 0.16759(28) 0.0234 Uiso
C4_28 C 0.06802(29) 0.66246(33) 0.21501(27) 0.0234 Uiso
N4_16 N 0.18308(28) 0.71744(25) 0.03878(21) 0.0234 Uiso
C5_28 C 0.17460(31) 0.68240(29) 0.08396(23) 0.0234 Uiso
C6_28 C 0.16074(33) 0.66163(33) 0.11643(20) 0.0234 Uiso
C7_28 C 0.13007(27) 0.67824(21) 0.13412(25) 0.0234 Uiso
N6_28 N 0.20194(22) 0.66759(28) 0.06494(25) 0.0234 Uiso
C8_28 C 0.16246(33) 0.71501(27) 0.06802(29) 0.0234 Uiso
N7_28 N 0.21744(25) 0.53878(21) 0.18308(28) 0.0234 Uiso
C9_28 C 0.18240(29) 0.58396(23) 0.17460(31) 0.0234 Uiso
C10_28 C 0.16163(33) 0.61643(20) 0.16074(33) 0.0234 Uiso
C11_28 C 0.17824(21) 0.63412(25) 0.13007(27) 0.0234 Uiso
N9_28 N 0.16759(28) 0.56494(25) 0.20194(22) 0.0234 Uiso
C12_28 C 0.21501(27) 0.56802(29) 0.16246(33) 0.0234 Uiso
H1_28 H 0.0773755 0.641535 0.233404 . .
H2_28 H 0.125029 0.618965 0.203887 . .
H7_28 H 0.233404 0.577375 0.141535 . .
H9_28 H 0.118965 0.703887 0.125029 . .
H10_28 H 0.141535 0.733404 0.0773755 . .
H11_28 H 0.203887 0.625029 0.118965 . .
N22_28 N 0.03751(21) 0.20715(23) 0.69087(27) 0.0234 Uiso
N23_28 N 0.96249(21) 0.20715(23) 0.69087(27) 0.0234 Uiso
C13_28 C 0.91604(23) 0.32540(31) 0.81760(29) 0.0234 Uiso
C14_28 C 0.88357(20) 0.33926(33) 0.83837(33) 0.0234 Uiso
C15_28 C 0.86588(25) 0.36993(27) 0.82176(21) 0.0234 Uiso
N12_28 N 0.93506(25) 0.29806(22) 0.83241(28) 0.0234 Uiso
C16_28 C 0.93198(29) 0.33754(33) 0.78499(27) 0.0234 Uiso
C17_28 C 0.82540(31) 0.31760(29) 0.91604(23) 0.0234 Uiso
C18_28 C 0.83926(33) 0.33837(33) 0.88357(20) 0.0234 Uiso
C19_28 C 0.86993(27) 0.32176(21) 0.86588(25) 0.0234 Uiso
N15_28 N 0.79806(22) 0.33241(28) 0.93506(25) 0.0234 Uiso
C20_28 C 0.83754(33) 0.28499(27) 0.93198(29) 0.0234 Uiso
C21_28 C 0.81760(29) 0.41604(23) 0.82540(31) 0.0234 Uiso
C22_28 C 0.83837(33) 0.38357(20) 0.83926(33) 0.0234 Uiso
C23_28 C 0.82176(21) 0.36588(25) 0.86993(27) 0.0234 Uiso
N18_28 N 0.83241(28) 0.43506(25) 0.79806(22) 0.0234 Uiso
C24_28 C 0.78499(27) 0.43198(29) 0.83754(33) 0.0234 Uiso
H3_28 H 0.858465 0.266596 0.922625 . .
H4_28 H 0.874971 0.381035 0.796113 . .
H5_28 H 0.796113 0.374971 0.881035 . .
H6_28 H 0.922625 0.358465 0.766596 . .
H8_28 H 0.881035 0.296113 0.874971 . .
H12_28 H 0.766596 0.422625 0.858465 . .
N23_29 N 0.03751(21) 0.79285(23) 0.69087(27) 0.0234 Uiso
N22_29 N 0.96249(21) 0.79285(23) 0.69087(27) 0.0234 Uiso
N22_30 N 0.03751(21) 0.79285(23) 0.30913(27) 0.0234 Uiso
N23_30 N 0.96249(21) 0.79285(23) 0.30913(27) 0.0234 Uiso
N23_31 N 0.03751(21) 0.20715(23) 0.30913(27) 0.0234 Uiso
N22_31 N 0.96249(21) 0.20715(23) 0.30913(27) 0.0234 Uiso
N10_14 N 0.03878(21) 0.18308(28) 0.28256(25) 0.0234 Uiso
C13_29 C 0.08396(23) 0.17460(31) 0.31760(29) 0.0234 Uiso
C14_29 C 0.11643(20) 0.16074(33) 0.33837(33) 0.0234 Uiso
C15_29 C 0.13412(25) 0.13007(27) 0.32176(21) 0.0234 Uiso
N12_29 N 0.06494(25) 0.20194(22) 0.33241(28) 0.0234 Uiso
C16_29 C 0.06802(29) 0.16246(33) 0.28499(27) 0.0234 Uiso
N13_26 N 0.18308(28) 0.21744(25) 0.46122(21) 0.0234 Uiso
C17_29 C 0.17460(31) 0.18240(29) 0.41604(23) 0.0234 Uiso
C18_29 C 0.16074(33) 0.16163(33) 0.38357(20) 0.0234 Uiso
C19_29 C 0.13007(27) 0.17824(21) 0.36588(25) 0.0234 Uiso
N15_29 N 0.20194(22) 0.16759(28) 0.43506(25) 0.0234 Uiso
C20_29 C 0.16246(33) 0.21501(27) 0.43198(29) 0.0234 Uiso
N16_18 N 0.21744(25) 0.03878(21) 0.31692(28) 0.0234 Uiso
C21_29 C 0.18240(29) 0.08396(23) 0.32540(31) 0.0234 Uiso
C22_29 C 0.16163(33) 0.11643(20) 0.33926(33) 0.0234 Uiso
C23_29 C 0.17824(21) 0.13412(25) 0.36993(27) 0.0234 Uiso
N18_29 N 0.16759(28) 0.06494(25) 0.29806(22) 0.0234 Uiso
C24_29 C 0.21501(27) 0.06802(29) 0.33754(33) 0.0234 Uiso
H3_29 H 0.141535 0.233404 0.422625 . .
H4_29 H 0.125029 0.118965 0.296113 . .
H5_29 H 0.203887 0.125029 0.381035 . .
H6_29 H 0.0773755 0.141535 0.266596 . .
H8_29 H 0.118965 0.203887 0.374971 . .
H12_29 H 0.233404 0.0773755 0.358465 . .
N1_29 N 0.78256(25) 0.03878(21) 0.31692(28) 0.0234 Uiso
C1_29 C 0.81760(29) 0.08396(23) 0.32540(31) 0.0234 Uiso
C2_29 C 0.83837(33) 0.11643(20) 0.33926(33) 0.0234 Uiso
C3_29 C 0.82176(21) 0.13412(25) 0.36993(27) 0.0234 Uiso
N3_29 N 0.83241(28) 0.06494(25) 0.29806(22) 0.0234 Uiso
C4_29 C 0.78499(27) 0.06802(29) 0.33754(33) 0.0234 Uiso
N4_17 N 0.96122(21) 0.18308(28) 0.28256(25) 0.0234 Uiso
C5_29 C 0.91604(23) 0.17460(31) 0.31760(29) 0.0234 Uiso
C6_29 C 0.88357(20) 0.16074(33) 0.33837(33) 0.0234 Uiso
C7_29 C 0.86588(25) 0.13007(27) 0.32176(21) 0.0234 Uiso
N6_29 N 0.93506(25) 0.20194(22) 0.33241(28) 0.0234 Uiso
C8_29 C 0.93198(29) 0.16246(33) 0.28499(27) 0.0234 Uiso
N7_29 N 0.81692(28) 0.21744(25) 0.46122(21) 0.0234 Uiso
C9_29 C 0.82540(31) 0.18240(29) 0.41604(23) 0.0234 Uiso
C10_29 C 0.83926(33) 0.16163(33) 0.38357(20) 0.0234 Uiso
C11_29 C 0.86993(27) 0.17824(21) 0.36588(25) 0.0234 Uiso
N9_29 N 0.79806(22) 0.16759(28) 0.43506(25) 0.0234 Uiso
C12_29 C 0.83754(33) 0.21501(27) 0.43198(29) 0.0234 Uiso
H1_29 H 0.766596 0.0773755 0.358465 . .
H2_29 H 0.796113 0.125029 0.381035 . .
H7_29 H 0.858465 0.233404 0.422625 . .
H9_29 H 0.874971 0.118965 0.296113 . .
H10_29 H 0.922625 0.141535 0.266596 . .
H11_29 H 0.881035 0.203887 0.374971 . .
N19_18 N 0.78256(25) 0.96122(21) 0.31692(28) 0.0234 Uiso
N10_15 N 0.78256(25) 0.03878(21) 0.68308(28) 0.0234 Uiso
C13_30 C 0.81760(29) 0.08396(23) 0.67460(31) 0.0234 Uiso
C14_30 C 0.83837(33) 0.11643(20) 0.66074(33) 0.0234 Uiso
C15_30 C 0.82176(21) 0.13412(25) 0.63007(27) 0.0234 Uiso
N12_30 N 0.83241(28) 0.06494(25) 0.70194(22) 0.0234 Uiso
C16_30 C 0.78499(27) 0.06802(29) 0.66246(33) 0.0234 Uiso
N13_27 N 0.96122(21) 0.18308(28) 0.71744(25) 0.0234 Uiso
C17_30 C 0.91604(23) 0.17460(31) 0.68240(29) 0.0234 Uiso
C18_30 C 0.88357(20) 0.16074(33) 0.66163(33) 0.0234 Uiso
C19_30 C 0.86588(25) 0.13007(27) 0.67824(21) 0.0234 Uiso
N15_30 N 0.93506(25) 0.20194(22) 0.66759(28) 0.0234 Uiso
C20_30 C 0.93198(29) 0.16246(33) 0.71501(27) 0.0234 Uiso
N16_19 N 0.81692(28) 0.21744(25) 0.53878(21) 0.0234 Uiso
C21_30 C 0.82540(31) 0.18240(29) 0.58396(23) 0.0234 Uiso
C22_30 C 0.83926(33) 0.16163(33) 0.61643(20) 0.0234 Uiso
C23_30 C 0.86993(27) 0.17824(21) 0.63412(25) 0.0234 Uiso
N18_30 N 0.79806(22) 0.16759(28) 0.56494(25) 0.0234 Uiso
C24_30 C 0.83754(33) 0.21501(27) 0.56802(29) 0.0234 Uiso
H3_30 H 0.922625 0.141535 0.733404 . .
H4_30 H 0.796113 0.125029 0.618965 . .
H5_30 H 0.881035 0.203887 0.625029 . .
H6_30 H 0.766596 0.0773755 0.641535 . .
H8_30 H 0.874971 0.118965 0.703887 . .
H12_30 H 0.858465 0.233404 0.577375 . .
N1_30 N 0.81692(28) 0.78256(25) 0.53878(21) 0.0234 Uiso
C1_30 C 0.82540(31) 0.81760(29) 0.58396(23) 0.0234 Uiso
C2_30 C 0.83926(33) 0.83837(33) 0.61643(20) 0.0234 Uiso
C3_30 C 0.86993(27) 0.82176(21) 0.63412(25) 0.0234 Uiso
N3_30 N 0.79806(22) 0.83241(28) 0.56494(25) 0.0234 Uiso
C4_30 C 0.83754(33) 0.78499(27) 0.56802(29) 0.0234 Uiso
N4_18 N 0.78256(25) 0.96122(21) 0.68308(28) 0.0234 Uiso
C5_30 C 0.81760(29) 0.91604(23) 0.67460(31) 0.0234 Uiso
C6_30 C 0.83837(33) 0.88357(20) 0.66074(33) 0.0234 Uiso
C7_30 C 0.82176(21) 0.86588(25) 0.63007(27) 0.0234 Uiso
N6_30 N 0.83241(28) 0.93506(25) 0.70194(22) 0.0234 Uiso
C8_30 C 0.78499(27) 0.93198(29) 0.66246(33) 0.0234 Uiso
N7_30 N 0.96122(21) 0.81692(28) 0.71744(25) 0.0234 Uiso
C9_30 C 0.91604(23) 0.82540(31) 0.68240(29) 0.0234 Uiso
C10_30 C 0.88357(20) 0.83926(33) 0.66163(33) 0.0234 Uiso
C11_30 C 0.86588(25) 0.86993(27) 0.67824(21) 0.0234 Uiso
N9_30 N 0.93506(25) 0.79806(22) 0.66759(28) 0.0234 Uiso
C12_30 C 0.93198(29) 0.83754(33) 0.71501(27) 0.0234 Uiso
N19_19 N 0.81692(28) 0.78256(25) 0.46122(21) 0.0234 Uiso
H1_30 H 0.858465 0.766596 0.577375 . .
H2_30 H 0.881035 0.796113 0.625029 . .
H7_30 H 0.922625 0.858465 0.733404 . .
H9_30 H 0.796113 0.874971 0.618965 . .
H10_30 H 0.766596 0.922625 0.641535 . .
H11_30 H 0.874971 0.881035 0.703887 . .
N1_31 N 0.03878(21) 0.81692(28) 0.28256(25) 0.0234 Uiso
C1_31 C 0.08396(23) 0.82540(31) 0.31760(29) 0.0234 Uiso
C2_31 C 0.11643(20) 0.83926(33) 0.33837(33) 0.0234 Uiso
C3_31 C 0.13412(25) 0.86993(27) 0.32176(21) 0.0234 Uiso
N3_31 N 0.06494(25) 0.79806(22) 0.33241(28) 0.0234 Uiso
C4_31 C 0.06802(29) 0.83754(33) 0.28499(27) 0.0234 Uiso
N4_19 N 0.18308(28) 0.78256(25) 0.46122(21) 0.0234 Uiso
C5_31 C 0.17460(31) 0.81760(29) 0.41604(23) 0.0234 Uiso
C6_31 C 0.16074(33) 0.83837(33) 0.38357(20) 0.0234 Uiso
C7_31 C 0.13007(27) 0.82176(21) 0.36588(25) 0.0234 Uiso
N6_31 N 0.20194(22) 0.83241(28) 0.43506(25) 0.0234 Uiso
C8_31 C 0.16246(33) 0.78499(27) 0.43198(29) 0.0234 Uiso
N7_31 N 0.21744(25) 0.96122(21) 0.31692(28) 0.0234 Uiso
C9_31 C 0.18240(29) 0.91604(23) 0.32540(31) 0.0234 Uiso
C10_31 C 0.16163(33) 0.88357(20) 0.33926(33) 0.0234 Uiso
C11_31 C 0.17824(21) 0.86588(25) 0.36993(27) 0.0234 Uiso
N9_31 N 0.16759(28) 0.93506(25) 0.29806(22) 0.0234 Uiso
C12_31 C 0.21501(27) 0.93198(29) 0.33754(33) 0.0234 Uiso
N10_16 N 0.18308(28) 0.78256(25) 0.53878(21) 0.0234 Uiso
C13_31 C 0.17460(31) 0.81760(29) 0.58396(23) 0.0234 Uiso
C14_31 C 0.16074(33) 0.83837(33) 0.61643(20) 0.0234 Uiso
C15_31 C 0.13007(27) 0.82176(21) 0.63412(25) 0.0234 Uiso
N12_31 N 0.20194(22) 0.83241(28) 0.56494(25) 0.0234 Uiso
C16_31 C 0.16246(33) 0.78499(27) 0.56802(29) 0.0234 Uiso
N13_28 N 0.21744(25) 0.96122(21) 0.68308(28) 0.0234 Uiso
C17_31 C 0.18240(29) 0.91604(23) 0.67460(31) 0.0234 Uiso
C18_31 C 0.16163(33) 0.88357(20) 0.66074(33) 0.0234 Uiso
C19_31 C 0.17824(21) 0.86588(25) 0.63007(27) 0.0234 Uiso
N15_31 N 0.16759(28) 0.93506(25) 0.70194(22) 0.0234 Uiso
C20_31 C 0.21501(27) 0.93198(29) 0.66246(33) 0.0234 Uiso
N16_20 N 0.03878(21) 0.81692(28) 0.71744(25) 0.0234 Uiso
C21_31 C 0.08396(23) 0.82540(31) 0.68240(29) 0.0234 Uiso
C22_31 C 0.11643(20) 0.83926(33) 0.66163(33) 0.0234 Uiso
C23_31 C 0.13412(25) 0.86993(27) 0.67824(21) 0.0234 Uiso
N18_31 N 0.06494(25) 0.79806(22) 0.66759(28) 0.0234 Uiso
C24_31 C 0.06802(29) 0.83754(33) 0.71501(27) 0.0234 Uiso
H1_31 H 0.0773755 0.858465 0.266596 . .
H2_31 H 0.125029 0.881035 0.296113 . .
H3_31 H 0.233404 0.922625 0.641535 . .
H4_31 H 0.118965 0.796113 0.625029 . .
H5_31 H 0.125029 0.881035 0.703887 . .
H6_31 H 0.141535 0.766596 0.577375 . .
H7_31 H 0.233404 0.922625 0.358465 . .
H8_31 H 0.203887 0.874971 0.618965 . .
H9_31 H 0.118965 0.796113 0.374971 . .
H10_31 H 0.141535 0.766596 0.422625 . .
H11_31 H 0.203887 0.874971 0.381035 . .
H12_31 H 0.0773755 0.858465 0.733404 . .
N19_20 N 0.96122(21) 0.81692(28) 0.28256(25) 0.0234 Uiso
N1_32 N 0.03878(21) 0.18308(28) 0.71744(25) 0.0234 Uiso
C1_32 C 0.08396(23) 0.17460(31) 0.68240(29) 0.0234 Uiso
C2_32 C 0.11643(20) 0.16074(33) 0.66163(33) 0.0234 Uiso
C3_32 C 0.13412(25) 0.13007(27) 0.67824(21) 0.0234 Uiso
N3_32 N 0.06494(25) 0.20194(22) 0.66759(28) 0.0234 Uiso
C4_32 C 0.06802(29) 0.16246(33) 0.71501(27) 0.0234 Uiso
N4_20 N 0.18308(28) 0.21744(25) 0.53878(21) 0.0234 Uiso
C5_32 C 0.17460(31) 0.18240(29) 0.58396(23) 0.0234 Uiso
C6_32 C 0.16074(33) 0.16163(33) 0.61643(20) 0.0234 Uiso
C7_32 C 0.13007(27) 0.17824(21) 0.63412(25) 0.0234 Uiso
N6_32 N 0.20194(22) 0.16759(28) 0.56494(25) 0.0234 Uiso
C8_32 C 0.16246(33) 0.21501(27) 0.56802(29) 0.0234 Uiso
N7_32 N 0.21744(25) 0.03878(21) 0.68308(28) 0.0234 Uiso
C9_32 C 0.18240(29) 0.08396(23) 0.67460(31) 0.0234 Uiso
C10_32 C 0.16163(33) 0.11643(20) 0.66074(33) 0.0234 Uiso
C11_32 C 0.17824(21) 0.13412(25) 0.63007(27) 0.0234 Uiso
N9_32 N 0.16759(28) 0.06494(25) 0.70194(22) 0.0234 Uiso
C12_32 C 0.21501(27) 0.06802(29) 0.66246(33) 0.0234 Uiso
H1_32 H 0.0773755 0.141535 0.733404 . .
H2_32 H 0.125029 0.118965 0.703887 . .
H7_32 H 0.233404 0.0773755 0.641535 . .
H9_32 H 0.118965 0.203887 0.625029 . .
H10_32 H 0.141535 0.233404 0.577375 . .
H11_32 H 0.203887 0.125029 0.618965 . .
C13_32 C 0.91604(23) 0.82540(31) 0.31760(29) 0.0234 Uiso
C14_32 C 0.88357(20) 0.83926(33) 0.33837(33) 0.0234 Uiso
C15_32 C 0.86588(25) 0.86993(27) 0.32176(21) 0.0234 Uiso
N12_32 N 0.93506(25) 0.79806(22) 0.33241(28) 0.0234 Uiso
C16_32 C 0.93198(29) 0.83754(33) 0.28499(27) 0.0234 Uiso
C17_32 C 0.82540(31) 0.81760(29) 0.41604(23) 0.0234 Uiso
C18_32 C 0.83926(33) 0.83837(33) 0.38357(20) 0.0234 Uiso
C19_32 C 0.86993(27) 0.82176(21) 0.36588(25) 0.0234 Uiso
N15_32 N 0.79806(22) 0.83241(28) 0.43506(25) 0.0234 Uiso
C20_32 C 0.83754(33) 0.78499(27) 0.43198(29) 0.0234 Uiso
C21_32 C 0.81760(29) 0.91604(23) 0.32540(31) 0.0234 Uiso
C22_32 C 0.83837(33) 0.88357(20) 0.33926(33) 0.0234 Uiso
C23_32 C 0.82176(21) 0.86588(25) 0.36993(27) 0.0234 Uiso
N18_32 N 0.83241(28) 0.93506(25) 0.29806(22) 0.0234 Uiso
C24_32 C 0.78499(27) 0.93198(29) 0.33754(33) 0.0234 Uiso
H3_32 H 0.858465 0.766596 0.422625 . .
H4_32 H 0.874971 0.881035 0.296113 . .
H5_32 H 0.796113 0.874971 0.381035 . .
H6_32 H 0.922625 0.858465 0.266596 . .
H8_32 H 0.881035 0.796113 0.374971 . .
H12_32 H 0.766596 0.922625 0.358465 . .
loop_
_geom_bond_atom_site_label_1
_geom_bond_atom_site_label_2
_geom_bond_site_symmetry_1
_geom_bond_site_symmetry_2
Cu1 N1 1_555 1_555
N1 N2 1_555 1_555
N2 N3 1_555 1_555
C1 C2 1_555 1_555
C2 C3 1_555 1_555
C3 C10 1_555 1_555
N3 C1 1_555 1_555
C4 N1 1_555 1_555
N4 N5 1_555 1_555
N5 N6 1_555 1_555
C5 C6 1_555 1_555
C6 C7 1_555 1_555
C7 C2 1_555 1_555
N6 C5 1_555 1_555
C8 N4 1_555 1_555
N7 N8 1_555 1_555
N8 N9 1_555 1_555
C9 C10 1_555 1_555
C10 C11 1_555 1_555
C11 C6 1_555 1_555
N9 C9 1_555 1_555
C12 N7 1_555 1_555
Cu2 N4 1_555 1_555
N10 Cu2 1_555 1_555
N11 N10 1_555 1_555
C13 C14 1_555 1_555
C14 C15 1_555 1_555
C15 C22 1_555 1_555
N12 N11 1_555 1_555
C16 N10 1_555 1_555
N13 N14 1_555 1_555
N14 N15 1_555 1_555
C17 C18 1_555 1_555
C18 C19 1_555 1_555
C19 C14 1_555 1_555
N15 C17 1_555 1_555
C20 N13 1_555 1_555
N16 N17 1_555 1_555
N17 N18 1_555 1_555
C21 C22 1_555 1_555
C22 C23 1_555 1_555
C23 C18 1_555 1_555
N18 C21 1_555 1_555
C24 N16 1_555 1_555
Cu3 N2 1_555 1_555
Cu4 N13 1_555 1_555
Cu5 N16 1_555 1_555
Cu6 N7 1_555 1_555
Cu7 N5 1_555 1_555
Cu8 N17 1_555 1_555
Cu9 N14 1_555 1_555
Cu10 N8 1_555 1_555
N19 Cu1 1_555 1_555
N20 Cu3 1_555 1_555
N21 Cu3 1_555 1_555
N22 Cu1 1_555 1_555
N23 Cu1 1_555 1_555
N24 Cu2 1_555 1_555
N25 Cu3 1_555 1_555
N26 Cu2 1_555 1_555
C1 C4 1_555 1_555
C5 C8 1_555 1_555
C9 C12 1_555 1_555
N11 Cu7 1_555 1_555
C13 N12 1_555 1_555
C13 C16 1_555 1_555
C17 C20 1_555 1_555
C21 C24 1_555 1_555
N19 N25 1_555 1_555
C4 H1 1_555 1_555
C3 H2 1_555 1_555
C20 H3 1_555 1_555
C15 H4 1_555 1_555
C23 H5 1_555 1_555
C16 H6 1_555 1_555
C12 H7 1_555 1_555
C19 H8 1_555 1_555
C7 H9 1_555 1_555
C8 H10 1_555 1_555
C11 H11 1_555 1_555
C24 H12 1_555 1_555
Cu1_2 N1_2 1_555 1_555
N1_2 N2_2 1_555 1_555
N2_2 N3_2 1_555 1_555
C1_2 C2_2 1_555 1_555
C2_2 C3_2 1_555 1_555
C3_2 C10_2 1_555 1_555
N3_2 C1_2 1_555 1_555
C4_2 N1_2 1_555 1_555
N4_2 N5_2 1_555 1_555
N5_2 N6_2 1_555 1_555
C5_2 C6_2 1_555 1_555
C6_2 C7_2 1_555 1_555
C7_2 C2_2 1_555 1_555
N6_2 C5_2 1_555 1_555
C8_2 N4_2 1_555 1_555
N7_2 N8_2 1_555 1_555
N8_2 N9_2 1_555 1_555
C9_2 C10_2 1_555 1_555
C10_2 C11_2 1_555 1_555
C11_2 C6_2 1_555 1_555
N9_2 C9_2 1_555 1_555
C12_2 N7_2 1_555 1_555
Cu2_2 N4_2 1_555 1_555
N10_2 Cu2_2 1_555 1_555
N11_2 N10_2 1_555 1_555
C13_2 C14_2 1_555 1_555
C14_2 C15_2 1_555 1_555
C15_2 C22_2 1_555 1_555
N12_2 N11_2 1_555 1_555
C16_2 N10_2 1_555 1_555
N13_2 N14_2 1_555 1_555
N14_2 N15_2 1_555 1_555
C17_2 C18_2 1_555 1_555
C18_2 C19_2 1_555 1_555
C19_2 C14_2 1_555 1_555
N15_2 C17_2 1_555 1_555
C20_2 N13_2 1_555 1_555
N16_2 N17_2 1_555 1_555
N17_2 N18_2 1_555 1_555
C21_2 C22_2 1_555 1_555
C22_2 C23_2 1_555 1_555
C23_2 C18_2 1_555 1_555
N18_2 C21_2 1_555 1_555
C24_2 N16_2 1_555 1_555
Cu3_2 N2_2 1_555 1_555
Cu4_2 N13_2 1_555 1_555
Cu6 N16_2 1_555 1_555
Cu6_2 N7_2 1_555 1_555
Cu7_2 N5_2 1_555 1_555
Cu10 N17_2 1_555 1_555
Cu9_2 N14_2 1_555 1_555
Cu10_2 N8_2 1_555 1_555
N19_2 Cu1_2 1_555 1_555
N20_2 Cu3_2 1_555 1_555
N21_2 Cu3_2 1_555 1_555
N22_2 Cu1_2 1_555 1_555
N23_2 Cu1_2 1_555 1_555
N24_2 Cu2_2 1_555 1_555
N25_2 Cu3_2 1_555 1_555
N26_2 Cu2_2 1_555 1_555
C1_2 C4_2 1_555 1_555
C5_2 C8_2 1_555 1_555
C9_2 C12_2 1_555 1_555
N11_2 Cu7_2 1_555 1_555
C13_2 N12_2 1_555 1_555
C13_2 C16_2 1_555 1_555
C17_2 C20_2 1_555 1_555
C21_2 C24_2 1_555 1_555
N19_2 N25_2 1_555 1_555
C4_2 H1_2 1_555 1_555
C3_2 H2_2 1_555 1_555
C20_2 H3_2 1_555 1_555
C15_2 H4_2 1_555 1_555
C23_2 H5_2 1_555 1_555
C16_2 H6_2 1_555 1_555
C12_2 H7_2 1_555 1_555
C19_2 H8_2 1_555 1_555
C7_2 H9_2 1_555 1_555
C8_2 H10_2 1_555 1_555
C11_2 H11_2 1_555 1_555
C24_2 H12_2 1_555 1_555
Cu1_3 N1_3 1_555 1_555
N1_3 N2_3 1_555 1_555
N2_3 N3_3 1_555 1_555
C1_3 C2_3 1_555 1_555
C2_3 C3_3 1_555 1_555
C3_3 C10_3 1_555 1_555
N3_3 C1_3 1_555 1_555
C4_3 N1_3 1_555 1_555
N4_3 N5_3 1_555 1_555
N5_3 N6_3 1_555 1_555
C5_3 C6_3 1_555 1_555
C6_3 C7_3 1_555 1_555
C7_3 C2_3 1_555 1_555
N6_3 C5_3 1_555 1_555
C8_3 N4_3 1_555 1_555
N7_3 N8_3 1_555 1_555
N8_3 N9_3 1_555 1_555
C9_3 C10_3 1_555 1_555
C10_3 C11_3 1_555 1_555
C11_3 C6_3 1_555 1_555
N9_3 C9_3 1_555 1_555
C12_3 N7_3 1_555 1_555
Cu2_3 N4_3 1_555 1_555
N10_3 Cu2_3 1_555 1_555
N11_3 N10_3 1_555 1_555
C13_3 C14_3 1_555 1_555
C14_3 C15_3 1_555 1_555
C15_3 C22_3 1_555 1_555
N12_3 N11_3 1_555 1_555
C16_3 N10_3 1_555 1_555
N13_3 N14_3 1_555 1_555
N14_3 N15_3 1_555 1_555
C17_3 C18_3 1_555 1_555
C18_3 C19_3 1_555 1_555
C19_3 C14_3 1_555 1_555
N15_3 C17_3 1_555 1_555
C20_3 N13_3 1_555 1_555
N16_3 N17_3 1_555 1_555
N17_3 N18_3 1_555 1_555
C21_3 C22_3 1_555 1_555
C22_3 C23_3 1_555 1_555
C23_3 C18_3 1_555 1_555
N18_3 C21_3 1_555 1_555
C24_3 N16_3 1_555 1_555
Cu3_3 N2_3 1_555 1_555
Cu4_3 N13_3 1_555 1_555
Cu6_2 N16_3 1_555 1_555
Cu5 N7_3 1_555 1_555
Cu7_3 N5_3 1_555 1_555
Cu10_2 N17_3 1_555 1_555
Cu9_3 N14_3 1_555 1_555
Cu8 N8_3 1_555 1_555
N19_3 Cu1_3 1_555 1_555
N20_3 Cu3_3 1_555 1_555
N21_3 Cu3_3 1_555 1_555
N22_3 Cu1_3 1_555 1_555
N23_3 Cu1_3 1_555 1_555
N24_3 Cu2_3 1_555 1_555
N25_3 Cu3_3 1_555 1_555
N26_3 Cu2_3 1_555 1_555
C1_3 C4_3 1_555 1_555
C5_3 C8_3 1_555 1_555
C9_3 C12_3 1_555 1_555
N11_3 Cu7_3 1_555 1_555
C13_3 N12_3 1_555 1_555
C13_3 C16_3 1_555 1_555
C17_3 C20_3 1_555 1_555
C21_3 C24_3 1_555 1_555
N19_3 N25_3 1_555 1_555
C4_3 H1_3 1_555 1_555
C3_3 H2_3 1_555 1_555
C20_3 H3_3 1_555 1_555
C15_3 H4_3 1_555 1_555
C23_3 H5_3 1_555 1_555
C16_3 H6_3 1_555 1_555
C12_3 H7_3 1_555 1_555
C19_3 H8_3 1_555 1_555
C7_3 H9_3 1_555 1_555
C8_3 H10_3 1_555 1_555
C11_3 H11_3 1_555 1_555
C24_3 H12_3 1_555 1_555
N20_4 Cu7_3 1_555 1_555
N21_4 Cu7_3 1_555 1_555
N24_4 Cu5 1_555 1_555
N26_4 Cu5 1_555 1_555
N20_5 Cu7 1_555 1_555
N21_5 Cu7 1_555 1_555
N24_5 Cu6 1_555 1_555
N26_5 Cu6 1_555 1_555
Cu4_2 N1_4 1_555 1_555
N1_4 N2_4 1_555 1_555
N2_4 N3_4 1_555 1_555
C1_4 C2_4 1_555 1_555
C2_4 C3_4 1_555 1_555
C3_4 C10_4 1_555 1_555
N3_4 C1_4 1_555 1_555
C4_4 N1_4 1_555 1_555
N4_4 N5_4 1_555 1_555
N5_4 N6_4 1_555 1_555
C5_4 C6_4 1_555 1_555
C6_4 C7_4 1_555 1_555
C7_4 C2_4 1_555 1_555
N6_4 C5_4 1_555 1_555
C8_4 N4_4 1_555 1_555
N7_4 N8_4 1_555 1_555
N8_4 N9_4 1_555 1_555
C9_4 C10_4 1_555 1_555
C10_4 C11_4 1_555 1_555
C11_4 C6_4 1_555 1_555
N9_4 C9_4 1_555 1_555
C12_4 N7_4 1_555 1_555
Cu4 N4_4 1_555 1_555
Cu9_2 N2_4 1_555 1_555
Cu4_3 N7_4 1_555 1_555
Cu9 N5_4 1_555 1_555
Cu9_3 N8_4 1_555 1_555
N20_6 Cu9_2 1_555 1_555
N21_6 Cu9_2 1_555 1_555
N22_4 Cu4_2 1_555 1_555
N23_4 Cu4_2 1_555 1_555
N24_6 Cu4 1_555 1_555
N26_6 Cu4 1_555 1_555
C1_4 C4_4 1_555 1_555
C5_4 C8_4 1_555 1_555
C9_4 C12_4 1_555 1_555
C4_4 H1_4 1_555 1_555
C3_4 H2_4 1_555 1_555
C12_4 H7_4 1_555 1_555
C7_4 H9_4 1_555 1_555
C8_4 H10_4 1_555 1_555
C11_4 H11_4 1_555 1_555
N20_7 Cu9_3 1_555 1_555
N21_7 Cu9_3 1_555 1_555
N22_5 Cu4_3 1_555 1_555
N23_5 Cu4_3 1_555 1_555
N20_8 Cu9 1_555 1_555
N21_8 Cu9 1_555 1_555
N20_9 Cu7_2 1_555 1_555
N21_9 Cu7_2 1_555 1_555
N24_7 Cu6_2 1_555 1_555
N26_7 Cu6_2 1_555 1_555
Cu1_4 N1_5 1_555 1_555
N1_5 N22_3 1_555 1_555
N22_3 N3_5 1_555 1_555
C1_5 C2_5 1_555 1_555
C2_5 C3_5 1_555 1_555
C3_5 C10_5 1_555 1_555
N3_5 C1_5 1_555 1_555
C4_5 N1_5 1_555 1_555
N4_5 N5_5 1_555 1_555
N5_5 N6_5 1_555 1_555
C5_5 C6_5 1_555 1_555
C6_5 C7_5 1_555 1_555
C7_5 C2_5 1_555 1_555
N6_5 C5_5 1_555 1_555
C8_5 N4_5 1_555 1_555
N7_5 N8_5 1_555 1_555
N8_5 N9_5 1_555 1_555
C9_5 C10_5 1_555 1_555
C10_5 C11_5 1_555 1_555
C11_5 C6_5 1_555 1_555
N9_5 C9_5 1_555 1_555
C12_5 N7_5 1_555 1_555
Cu8 N4_5 1_555 1_555
N10_4 Cu8 1_555 1_555
N11_4 N10_4 1_555 1_555
C13_4 C14_4 1_555 1_555
C14_4 C15_4 1_555 1_555
C15_4 C22_4 1_555 1_555
N12_4 N11_4 1_555 1_555
C16_4 N10_4 1_555 1_555
N13_4 N14_4 1_555 1_555
N14_4 N15_4 1_555 1_555
C17_4 C18_4 1_555 1_555
C18_4 C19_4 1_555 1_555
C19_4 C14_4 1_555 1_555
N15_4 C17_4 1_555 1_555
C20_4 N13_4 1_555 1_555
N16_4 N24 1_555 1_555
N24 N18_4 1_555 1_555
C21_4 C22_4 1_555 1_555
C22_4 C23_4 1_555 1_555
C23_4 C18_4 1_555 1_555
N18_4 C21_4 1_555 1_555
C24_4 N16_4 1_555 1_555
Cu4_4 N13_4 1_555 1_555
Cu5_2 N16_4 1_555 1_555
Cu6_3 N7_5 1_555 1_555
Cu7_4 N5_5 1_555 1_555
Cu9_4 N14_4 1_555 1_555
Cu10_3 N8_5 1_555 1_555
N19_4 Cu1_4 1_555 1_555
N22_6 Cu1_4 1_555 1_555
N23_6 Cu1_4 1_555 1_555
C1_5 C4_5 1_555 1_555
C5_5 C8_5 1_555 1_555
C9_5 C12_5 1_555 1_555
N11_4 Cu7_4 1_555 1_555
C13_4 N12_4 1_555 1_555
C13_4 C16_4 1_555 1_555
C17_4 C20_4 1_555 1_555
C21_4 C24_4 1_555 1_555
N19_4 N23_3 1_555 1_555
C4_5 H1_5 1_555 1_555
C3_5 H2_5 1_555 1_555
C20_4 H3_4 1_555 1_555
C15_4 H4_4 1_555 1_555
C23_4 H5_4 1_555 1_555
C16_4 H6_4 1_555 1_555
C12_5 H7_5 1_555 1_555
C19_4 H8_4 1_555 1_555
C7_5 H9_5 1_555 1_555
C8_5 H10_5 1_555 1_555
C11_5 H11_5 1_555 1_555
C24_4 H12_4 1_555 1_555
Cu1_5 N1_6 1_555 1_555
N1_6 N22 1_555 1_555
N22 N3_6 1_555 1_555
C1_6 C2_6 1_555 1_555
C2_6 C3_6 1_555 1_555
C3_6 C10_6 1_555 1_555
N3_6 C1_6 1_555 1_555
C4_6 N1_6 1_555 1_555
N4_6 N5_6 1_555 1_555
N5_6 N6_6 1_555 1_555
C5_6 C6_6 1_555 1_555
C6_6 C7_6 1_555 1_555
C7_6 C2_6 1_555 1_555
N6_6 C5_6 1_555 1_555
C8_6 N4_6 1_555 1_555
N7_6 N8_6 1_555 1_555
N8_6 N9_6 1_555 1_555
C9_6 C10_6 1_555 1_555
C10_6 C11_6 1_555 1_555
C11_6 C6_6 1_555 1_555
N9_6 C9_6 1_555 1_555
C12_6 N7_6 1_555 1_555
Cu10 N4_6 1_555 1_555
N10_5 Cu10 1_555 1_555
N11_5 N10_5 1_555 1_555
C13_5 C14_5 1_555 1_555
C14_5 C15_5 1_555 1_555
C15_5 C22_5 1_555 1_555
N12_5 N11_5 1_555 1_555
C16_5 N10_5 1_555 1_555
N13_5 N14_5 1_555 1_555
N14_5 N15_5 1_555 1_555
C17_5 C18_5 1_555 1_555
C18_5 C19_5 1_555 1_555
C19_5 C14_5 1_555 1_555
N15_5 C17_5 1_555 1_555
C20_5 N13_5 1_555 1_555
N16_5 N24_2 1_555 1_555
N24_2 N18_5 1_555 1_555
C21_5 C22_5 1_555 1_555
C22_5 C23_5 1_555 1_555
C23_5 C18_5 1_555 1_555
N18_5 C21_5 1_555 1_555
C24_5 N16_5 1_555 1_555
Cu4_6 N13_5 1_555 1_555
Cu5_3 N16_5 1_555 1_555
Cu6_5 N7_6 1_555 1_555
Cu7_5 N5_6 1_555 1_555
Cu9_6 N14_5 1_555 1_555
Cu10_5 N8_6 1_555 1_555
N19_5 Cu1_5 1_555 1_555
N22_7 Cu1_5 1_555 1_555
N23_7 Cu1_5 1_555 1_555
C1_6 C4_6 1_555 1_555
C5_6 C8_6 1_555 1_555
C9_6 C12_6 1_555 1_555
N11_5 Cu7_5 1_555 1_555
C13_5 N12_5 1_555 1_555
C13_5 C16_5 1_555 1_555
C17_5 C20_5 1_555 1_555
C21_5 C24_5 1_555 1_555
N19_5 N23 1_555 1_555
C4_6 H1_6 1_555 1_555
C3_6 H2_6 1_555 1_555
C20_5 H3_5 1_555 1_555
C15_5 H4_5 1_555 1_555
C23_5 H5_5 1_555 1_555
C16_5 H6_5 1_555 1_555
C12_6 H7_6 1_555 1_555
C19_5 H8_5 1_555 1_555
C7_6 H9_6 1_555 1_555
C8_6 H10_6 1_555 1_555
C11_6 H11_6 1_555 1_555
C24_5 H12_5 1_555 1_555
Cu1_6 N1_7 1_555 1_555
N1_7 N22_2 1_555 1_555
N22_2 N3_7 1_555 1_555
C1_7 C2_7 1_555 1_555
C2_7 C3_7 1_555 1_555
C3_7 C10_7 1_555 1_555
N3_7 C1_7 1_555 1_555
C4_7 N1_7 1_555 1_555
N4_7 N5_7 1_555 1_555
N5_7 N6_7 1_555 1_555
C5_7 C6_7 1_555 1_555
C6_7 C7_7 1_555 1_555
C7_7 C2_7 1_555 1_555
N6_7 C5_7 1_555 1_555
C8_7 N4_7 1_555 1_555
N7_7 N8_7 1_555 1_555
N8_7 N9_7 1_555 1_555
C9_7 C10_7 1_555 1_555
C10_7 C11_7 1_555 1_555
C11_7 C6_7 1_555 1_555
N9_7 C9_7 1_555 1_555
C12_7 N7_7 1_555 1_555
Cu10_2 N4_7 1_555 1_555
N10_6 Cu10_2 1_555 1_555
N11_6 N10_6 1_555 1_555
C13_6 C14_6 1_555 1_555
C14_6 C15_6 1_555 1_555
C15_6 C22_6 1_555 1_555
N12_6 N11_6 1_555 1_555
C16_6 N10_6 1_555 1_555
N13_6 N14_6 1_555 1_555
N14_6 N15_6 1_555 1_555
C17_6 C18_6 1_555 1_555
C18_6 C19_6 1_555 1_555
C19_6 C14_6 1_555 1_555
N15_6 C17_6 1_555 1_555
C20_6 N13_6 1_555 1_555
N16_6 N24_3 1_555 1_555
N24_3 N18_6 1_555 1_555
C21_6 C22_6 1_555 1_555
C22_6 C23_6 1_555 1_555
C23_6 C18_6 1_555 1_555
N18_6 C21_6 1_555 1_555
C24_6 N16_6 1_555 1_555
Cu4_8 N13_6 1_555 1_555
Cu5_4 N16_6 1_555 1_555
Cu6_7 N7_7 1_555 1_555
Cu7_6 N5_7 1_555 1_555
Cu9_8 N14_6 1_555 1_555
Cu10_7 N8_7 1_555 1_555
N19_6 Cu1_6 1_555 1_555
N22_8 Cu1_6 1_555 1_555
N23_8 Cu1_6 1_555 1_555
C1_7 C4_7 1_555 1_555
C5_7 C8_7 1_555 1_555
C9_7 C12_7 1_555 1_555
N11_6 Cu7_6 1_555 1_555
C13_6 N12_6 1_555 1_555
C13_6 C16_6 1_555 1_555
C17_6 C20_6 1_555 1_555
C21_6 C24_6 1_555 1_555
N19_6 N23_2 1_555 1_555
C4_7 H1_7 1_555 1_555
C3_7 H2_7 1_555 1_555
C20_6 H3_6 1_555 1_555
C15_6 H4_6 1_555 1_555
C23_6 H5_6 1_555 1_555
C16_6 H6_6 1_555 1_555
C12_7 H7_7 1_555 1_555
C19_6 H8_6 1_555 1_555
C7_7 H9_7 1_555 1_555
C8_7 H10_7 1_555 1_555
C11_7 H11_7 1_555 1_555
C24_6 H12_6 1_555 1_555
C13_7 C14_7 1_555 1_555
C14_7 C15_7 1_555 1_555
C15_7 C22_7 1_555 1_555
N12_7 N25_3 1_555 1_555
C16_7 N19_3 1_555 1_555
N25_2 N15_7 1_555 1_555
C17_7 C18_7 1_555 1_555
C18_7 C19_7 1_555 1_555
C19_7 C14_7 1_555 1_555
N15_7 C17_7 1_555 1_555
C20_7 N19_2 1_555 1_555
N25 N18_7 1_555 1_555
C21_7 C22_7 1_555 1_555
C22_7 C23_7 1_555 1_555
C23_7 C18_7 1_555 1_555
N18_7 C21_7 1_555 1_555
C24_7 N19 1_555 1_555
C13_7 N12_7 1_555 1_555
C13_7 C16_7 1_555 1_555
C17_7 C20_7 1_555 1_555
C21_7 C24_7 1_555 1_555
C20_7 H3_7 1_555 1_555
C15_7 H4_7 1_555 1_555
C23_7 H5_7 1_555 1_555
C16_7 H6_7 1_555 1_555
C19_7 H8_7 1_555 1_555
C24_7 H12_7 1_555 1_555
Cu5_2 N1_8 1_555 1_555
N1_8 N26 1_555 1_555
N26 N3_8 1_555 1_555
C1_8 C2_8 1_555 1_555
C2_8 C3_8 1_555 1_555
C3_8 C10_8 1_555 1_555
N3_8 C1_8 1_555 1_555
C4_8 N1_8 1_555 1_555
N21 N5_8 1_555 1_555
N5_8 N6_8 1_555 1_555
C5_8 C6_8 1_555 1_555
C6_8 C7_8 1_555 1_555
C7_8 C2_8 1_555 1_555
N6_8 C5_8 1_555 1_555
C8_8 N21 1_555 1_555
N7_8 N8_8 1_555 1_555
N8_8 N9_8 1_555 1_555
C9_8 C10_8 1_555 1_555
C10_8 C11_8 1_555 1_555
C11_8 C6_8 1_555 1_555
N9_8 C9_8 1_555 1_555
C12_8 N7_8 1_555 1_555
N11_7 N20 1_555 1_555
C13_8 C14_8 1_555 1_555
C14_8 C15_8 1_555 1_555
C15_8 C22_8 1_555 1_555
N12_8 N11_7 1_555 1_555
C16_8 N20 1_555 1_555
N13_7 N14_7 1_555 1_555
N14_7 N15_8 1_555 1_555
C17_8 C18_8 1_555 1_555
C18_8 C19_8 1_555 1_555
C19_8 C14_8 1_555 1_555
N15_8 C17_8 1_555 1_555
C20_8 N13_7 1_555 1_555
N23_3 N18_8 1_555 1_555
C21_8 C22_8 1_555 1_555
C22_8 C23_8 1_555 1_555
C23_8 C18_8 1_555 1_555
N18_8 C21_8 1_555 1_555
C24_8 N19_4 1_555 1_555
Cu4_10 N13_7 1_555 1_555
Cu6_9 N7_8 1_555 1_555
Cu7_7 N5_8 1_555 1_555
Cu9_10 N14_7 1_555 1_555
Cu10_9 N8_8 1_555 1_555
N22_9 Cu5_2 1_555 1_555
N23_9 Cu5_2 1_555 1_555
C1_8 C4_8 1_555 1_555
C5_8 C8_8 1_555 1_555
C9_8 C12_8 1_555 1_555
N11_7 Cu7_7 1_555 1_555
C13_8 N12_8 1_555 1_555
C13_8 C16_8 1_555 1_555
C17_8 C20_8 1_555 1_555
C21_8 C24_8 1_555 1_555
C4_8 H1_8 1_555 1_555
C3_8 H2_8 1_555 1_555
C20_8 H3_8 1_555 1_555
C15_8 H4_8 1_555 1_555
C23_8 H5_8 1_555 1_555
C16_8 H6_8 1_555 1_555
C12_8 H7_8 1_555 1_555
C19_8 H8_8 1_555 1_555
C7_8 H9_8 1_555 1_555
C8_8 H10_8 1_555 1_555
C11_8 H11_8 1_555 1_555
C24_8 H12_8 1_555 1_555
Cu5_3 N1_9 1_555 1_555
N1_9 N26_2 1_555 1_555
N26_2 N3_9 1_555 1_555
C1_9 C2_9 1_555 1_555
C2_9 C3_9 1_555 1_555
C3_9 C10_9 1_555 1_555
N3_9 C1_9 1_555 1_555
C4_9 N1_9 1_555 1_555
N21_2 N5_9 1_555 1_555
N5_9 N6_9 1_555 1_555
C5_9 C6_9 1_555 1_555
C6_9 C7_9 1_555 1_555
C7_9 C2_9 1_555 1_555
N6_9 C5_9 1_555 1_555
C8_9 N21_2 1_555 1_555
N7_9 N8_9 1_555 1_555
N8_9 N9_9 1_555 1_555
C9_9 C10_9 1_555 1_555
C10_9 C11_9 1_555 1_555
C11_9 C6_9 1_555 1_555
N9_9 C9_9 1_555 1_555
C12_9 N7_9 1_555 1_555
N11_8 N20_2 1_555 1_555
C13_9 C14_9 1_555 1_555
C14_9 C15_9 1_555 1_555
C15_9 C22_9 1_555 1_555
N12_9 N11_8 1_555 1_555
C16_9 N20_2 1_555 1_555
N13_8 N14_8 1_555 1_555
N14_8 N15_9 1_555 1_555
C17_9 C18_9 1_555 1_555
C18_9 C19_9 1_555 1_555
C19_9 C14_9 1_555 1_555
N15_9 C17_9 1_555 1_555
C20_9 N13_8 1_555 1_555
N23 N18_9 1_555 1_555
C21_9 C22_9 1_555 1_555
C22_9 C23_9 1_555 1_555
C23_9 C18_9 1_555 1_555
N18_9 C21_9 1_555 1_555
C24_9 N19_5 1_555 1_555
Cu4_12 N13_8 1_555 1_555
Cu6_11 N7_9 1_555 1_555
Cu7_8 N5_9 1_555 1_555
Cu9_12 N14_8 1_555 1_555
Cu10_11 N8_9 1_555 1_555
N22_10 Cu5_3 1_555 1_555
N23_10 Cu5_3 1_555 1_555
C1_9 C4_9 1_555 1_555
C5_9 C8_9 1_555 1_555
C9_9 C12_9 1_555 1_555
N11_8 Cu7_8 1_555 1_555
C13_9 N12_9 1_555 1_555
C13_9 C16_9 1_555 1_555
C17_9 C20_9 1_555 1_555
C21_9 C24_9 1_555 1_555
C4_9 H1_9 1_555 1_555
C3_9 H2_9 1_555 1_555
C20_9 H3_9 1_555 1_555
C15_9 H4_9 1_555 1_555
C23_9 H5_9 1_555 1_555
C16_9 H6_9 1_555 1_555
C12_9 H7_9 1_555 1_555
C19_9 H8_9 1_555 1_555
C7_9 H9_9 1_555 1_555
C8_9 H10_9 1_555 1_555
C11_9 H11_9 1_555 1_555
C24_9 H12_9 1_555 1_555
Cu5_4 N1_10 1_555 1_555
N1_10 N26_3 1_555 1_555
N26_3 N3_10 1_555 1_555
C1_10 C2_10 1_555 1_555
C2_10 C3_10 1_555 1_555
C3_10 C10_10 1_555 1_555
N3_10 C1_10 1_555 1_555
C4_10 N1_10 1_555 1_555
N21_3 N5_10 1_555 1_555
N5_10 N6_10 1_555 1_555
C5_10 C6_10 1_555 1_555
C6_10 C7_10 1_555 1_555
C7_10 C2_10 1_555 1_555
N6_10 C5_10 1_555 1_555
C8_10 N21_3 1_555 1_555
N7_10 N8_10 1_555 1_555
N8_10 N9_10 1_555 1_555
C9_10 C10_10 1_555 1_555
C10_10 C11_10 1_555 1_555
C11_10 C6_10 1_555 1_555
N9_10 C9_10 1_555 1_555
C12_10 N7_10 1_555 1_555
N11_9 N20_3 1_555 1_555
C13_10 C14_10 1_555 1_555
C14_10 C15_10 1_555 1_555
C15_10 C22_10 1_555 1_555
N12_10 N11_9 1_555 1_555
C16_10 N20_3 1_555 1_555
N13_9 N14_9 1_555 1_555
N14_9 N15_10 1_555 1_555
C17_10 C18_10 1_555 1_555
C18_10 C19_10 1_555 1_555
C19_10 C14_10 1_555 1_555
N15_10 C17_10 1_555 1_555
C20_10 N13_9 1_555 1_555
N23_2 N18_10 1_555 1_555
C21_10 C22_10 1_555 1_555
C22_10 C23_10 1_555 1_555
C23_10 C18_10 1_555 1_555
N18_10 C21_10 1_555 1_555
C24_10 N19_6 1_555 1_555
Cu4_14 N13_9 1_555 1_555
Cu6_13 N7_10 1_555 1_555
Cu7_9 N5_10 1_555 1_555
Cu9_14 N14_9 1_555 1_555
Cu10_13 N8_10 1_555 1_555
N22_11 Cu5_4 1_555 1_555
N23_11 Cu5_4 1_555 1_555
C1_10 C4_10 1_555 1_555
C5_10 C8_10 1_555 1_555
C9_10 C12_10 1_555 1_555
N11_9 Cu7_9 1_555 1_555
C13_10 N12_10 1_555 1_555
C13_10 C16_10 1_555 1_555
C17_10 C20_10 1_555 1_555
C21_10 C24_10 1_555 1_555
C4_10 H1_10 1_555 1_555
C3_10 H2_10 1_555 1_555
C20_10 H3_10 1_555 1_555
C15_10 H4_10 1_555 1_555
C23_10 H5_10 1_555 1_555
C16_10 H6_10 1_555 1_555
C12_10 H7_10 1_555 1_555
C19_10 H8_10 1_555 1_555
C7_10 H9_10 1_555 1_555
C8_10 H10_10 1_555 1_555
C11_10 H11_10 1_555 1_555
C24_10 H12_10 1_555 1_555
Cu1_7 N1_11 1_555 1_555
N1_11 N26_4 1_555 1_555
N26_4 N3_11 1_555 1_555
C1_11 C2_11 1_555 1_555
C2_11 C3_11 1_555 1_555
C3_11 C10_11 1_555 1_555
N3_11 C1_11 1_555 1_555
C4_11 N1_11 1_555 1_555
N21_4 N5_11 1_555 1_555
N5_11 N6_11 1_555 1_555
C5_11 C6_11 1_555 1_555
C6_11 C7_11 1_555 1_555
C7_11 C2_11 1_555 1_555
N6_11 C5_11 1_555 1_555
C8_11 N21_4 1_555 1_555
N7_11 N8_11 1_555 1_555
N8_11 N9_11 1_555 1_555
C9_11 C10_11 1_555 1_555
C10_11 C11_11 1_555 1_555
C11_11 C6_11 1_555 1_555
N9_11 C9_11 1_555 1_555
C12_11 N7_11 1_555 1_555
N11_10 N20_4 1_555 1_555
C13_11 C14_11 1_555 1_555
C14_11 C15_11 1_555 1_555
C15_11 C22_11 1_555 1_555
N12_11 N11_10 1_555 1_555
C16_11 N20_4 1_555 1_555
N13_10 N14_10 1_555 1_555
N14_10 N15_11 1_555 1_555
C17_11 C18_11 1_555 1_555
C18_11 C19_11 1_555 1_555
C19_11 C14_11 1_555 1_555
N15_11 C17_11 1_555 1_555
C20_11 N13_10 1_555 1_555
N16_7 N23_5 1_555 1_555
N23_5 N18_11 1_555 1_555
C21_11 C22_11 1_555 1_555
C22_11 C23_11 1_555 1_555
C23_11 C18_11 1_555 1_555
N18_11 C21_11 1_555 1_555
C24_11 N16_7 1_555 1_555
Cu6_12 N13_10 1_555 1_555
Cu5_5 N16_7 1_555 1_555
Cu4_13 N7_11 1_555 1_555
Cu7_10 N5_11 1_555 1_555
Cu10_12 N14_10 1_555 1_555
Cu9_13 N8_11 1_555 1_555
N19_7 Cu1_7 1_555 1_555
N22_12 Cu1_7 1_555 1_555
N23_12 Cu1_7 1_555 1_555
C1_11 C4_11 1_555 1_555
C5_11 C8_11 1_555 1_555
C9_11 C12_11 1_555 1_555
N11_10 Cu7_10 1_555 1_555
C13_11 N12_11 1_555 1_555
C13_11 C16_11 1_555 1_555
C17_11 C20_11 1_555 1_555
C21_11 C24_11 1_555 1_555
N19_7 N24_4 1_555 1_555
C4_11 H1_11 1_555 1_555
C3_11 H2_11 1_555 1_555
C20_11 H3_11 1_555 1_555
C15_11 H4_11 1_555 1_555
C23_11 H5_11 1_555 1_555
C16_11 H6_11 1_555 1_555
C12_11 H7_11 1_555 1_555
C19_11 H8_11 1_555 1_555
C7_11 H9_11 1_555 1_555
C8_11 H10_11 1_555 1_555
C11_11 H11_11 1_555 1_555
C24_11 H12_11 1_555 1_555
Cu1_8 N1_12 1_555 1_555
N1_12 N26_5 1_555 1_555
N26_5 N3_12 1_555 1_555
C1_12 C2_12 1_555 1_555
C2_12 C3_12 1_555 1_555
C3_12 C10_12 1_555 1_555
N3_12 C1_12 1_555 1_555
C4_12 N1_12 1_555 1_555
N21_5 N5_12 1_555 1_555
N5_12 N6_12 1_555 1_555
C5_12 C6_12 1_555 1_555
C6_12 C7_12 1_555 1_555
C7_12 C2_12 1_555 1_555
N6_12 C5_12 1_555 1_555
C8_12 N21_5 1_555 1_555
N7_12 N8_12 1_555 1_555
N8_12 N9_12 1_555 1_555
C9_12 C10_12 1_555 1_555
C10_12 C11_12 1_555 1_555
C11_12 C6_12 1_555 1_555
N9_12 C9_12 1_555 1_555
C12_12 N7_12 1_555 1_555
N11_11 N20_5 1_555 1_555
C13_12 C14_12 1_555 1_555
C14_12 C15_12 1_555 1_555
C15_12 C22_12 1_555 1_555
N12_12 N11_11 1_555 1_555
C16_12 N20_5 1_555 1_555
N13_11 N14_11 1_555 1_555
N14_11 N15_12 1_555 1_555
C17_12 C18_12 1_555 1_555
C18_12 C19_12 1_555 1_555
C19_12 C14_12 1_555 1_555
N15_12 C17_12 1_555 1_555
C20_12 N13_11 1_555 1_555
N16_8 N24_6 1_555 1_555
N24_6 N18_12 1_555 1_555
C21_12 C22_12 1_555 1_555
C22_12 C23_12 1_555 1_555
C23_12 C18_12 1_555 1_555
N18_12 C21_12 1_555 1_555
C24_12 N16_8 1_555 1_555
Cu6_14 N13_11 1_555 1_555
Cu5_6 N16_8 1_555 1_555
Cu4_15 N7_12 1_555 1_555
Cu7_11 N5_12 1_555 1_555
Cu10_14 N14_11 1_555 1_555
Cu9_15 N8_12 1_555 1_555
N19_8 Cu1_8 1_555 1_555
N22_13 Cu1_8 1_555 1_555
N23_13 Cu1_8 1_555 1_555
C1_12 C4_12 1_555 1_555
C5_12 C8_12 1_555 1_555
C9_12 C12_12 1_555 1_555
N11_11 Cu7_11 1_555 1_555
C13_12 N12_12 1_555 1_555
C13_12 C16_12 1_555 1_555
C17_12 C20_12 1_555 1_555
C21_12 C24_12 1_555 1_555
N19_8 N24_5 1_555 1_555
C4_12 H1_12 1_555 1_555
C3_12 H2_12 1_555 1_555
C20_12 H3_12 1_555 1_555
C15_12 H4_12 1_555 1_555
C23_12 H5_12 1_555 1_555
C16_12 H6_12 1_555 1_555
C12_12 H7_12 1_555 1_555
C19_12 H8_12 1_555 1_555
C7_12 H9_12 1_555 1_555
C8_12 H10_12 1_555 1_555
C11_12 H11_12 1_555 1_555
C24_12 H12_12 1_555 1_555
Cu5_6 N1_13 1_555 1_555
N1_13 N26_6 1_555 1_555
N26_6 N3_13 1_555 1_555
C1_13 C2_13 1_555 1_555
C2_13 C3_13 1_555 1_555
C3_13 C10_13 1_555 1_555
N3_13 C1_13 1_555 1_555
C4_13 N1_13 1_555 1_555
N21_6 N5_13 1_555 1_555
N5_13 N6_13 1_555 1_555
C5_13 C6_13 1_555 1_555
C6_13 C7_13 1_555 1_555
C7_13 C2_13 1_555 1_555
N6_13 C5_13 1_555 1_555
C8_13 N21_6 1_555 1_555
N7_13 N8_13 1_555 1_555
N8_13 N9_13 1_555 1_555
C9_13 C10_13 1_555 1_555
C10_13 C11_13 1_555 1_555
C11_13 C6_13 1_555 1_555
N9_13 C9_13 1_555 1_555
C12_13 N7_13 1_555 1_555
N11_12 N20_6 1_555 1_555
C13_13 C14_13 1_555 1_555
C14_13 C15_13 1_555 1_555
C15_13 C22_13 1_555 1_555
N12_13 N11_12 1_555 1_555
C16_13 N20_6 1_555 1_555
N13_12 N14_12 1_555 1_555
N14_12 N15_13 1_555 1_555
C17_13 C18_13 1_555 1_555
C18_13 C19_13 1_555 1_555
C19_13 C14_13 1_555 1_555
N15_13 C17_13 1_555 1_555
C20_13 N13_12 1_555 1_555
N24_5 N18_13 1_555 1_555
C21_13 C22_13 1_555 1_555
C22_13 C23_13 1_555 1_555
C23_13 C18_13 1_555 1_555
N18_13 C21_13 1_555 1_555
C24_13 N19_8 1_555 1_555
Cu6_8 N13_12 1_555 1_555
Cu4_9 N7_13 1_555 1_555
Cu7_12 N5_13 1_555 1_555
Cu10_8 N14_12 1_555 1_555
Cu9_9 N8_13 1_555 1_555
N22_14 Cu5_6 1_555 1_555
N23_14 Cu5_6 1_555 1_555
C1_13 C4_13 1_555 1_555
C5_13 C8_13 1_555 1_555
C9_13 C12_13 1_555 1_555
N11_12 Cu7_12 1_555 1_555
C13_13 N12_13 1_555 1_555
C13_13 C16_13 1_555 1_555
C17_13 C20_13 1_555 1_555
C21_13 C24_13 1_555 1_555
C4_13 H1_13 1_555 1_555
C3_13 H2_13 1_555 1_555
C20_13 H3_13 1_555 1_555
C15_13 H4_13 1_555 1_555
C23_13 H5_13 1_555 1_555
C16_13 H6_13 1_555 1_555
C12_13 H7_13 1_555 1_555
C19_13 H8_13 1_555 1_555
C7_13 H9_13 1_555 1_555
C8_13 H10_13 1_555 1_555
C11_13 H11_13 1_555 1_555
C24_13 H12_13 1_555 1_555
Cu1_9 N1_14 1_555 1_555
N1_14 N22_4 1_555 1_555
N22_4 N3_14 1_555 1_555
C1_14 C2_14 1_555 1_555
C2_14 C3_14 1_555 1_555
C3_14 C10_14 1_555 1_555
N3_14 C1_14 1_555 1_555
C4_14 N1_14 1_555 1_555
N21_7 N5_14 1_555 1_555
N5_14 N6_14 1_555 1_555
C5_14 C6_14 1_555 1_555
C6_14 C7_14 1_555 1_555
C7_14 C2_14 1_555 1_555
N6_14 C5_14 1_555 1_555
C8_14 N21_7 1_555 1_555
N7_14 N8_14 1_555 1_555
N8_14 N9_14 1_555 1_555
C9_14 C10_14 1_555 1_555
C10_14 C11_14 1_555 1_555
C11_14 C6_14 1_555 1_555
N9_14 C9_14 1_555 1_555
C12_14 N7_14 1_555 1_555
N11_13 N20_7 1_555 1_555
C13_14 C14_14 1_555 1_555
C14_14 C15_14 1_555 1_555
C15_14 C22_14 1_555 1_555
N12_14 N11_13 1_555 1_555
C16_14 N20_7 1_555 1_555
N13_13 N14_13 1_555 1_555
N14_13 N15_14 1_555 1_555
C17_14 C18_14 1_555 1_555
C18_14 C19_14 1_555 1_555
C19_14 C14_14 1_555 1_555
N15_14 C17_14 1_555 1_555
C20_14 N13_13 1_555 1_555
N16_9 N24_7 1_555 1_555
N24_7 N18_14 1_555 1_555
C21_14 C22_14 1_555 1_555
C22_14 C23_14 1_555 1_555
C23_14 C18_14 1_555 1_555
N18_14 C21_14 1_555 1_555
C24_14 N16_9 1_555 1_555
Cu6_4 N13_13 1_555 1_555
Cu5_7 N16_9 1_555 1_555
Cu4_5 N7_14 1_555 1_555
Cu7_13 N5_14 1_555 1_555
Cu10_4 N14_13 1_555 1_555
Cu9_5 N8_14 1_555 1_555
N19_9 Cu1_9 1_555 1_555
N22_15 Cu1_9 1_555 1_555
N23_15 Cu1_9 1_555 1_555
C1_14 C4_14 1_555 1_555
C5_14 C8_14 1_555 1_555
C9_14 C12_14 1_555 1_555
N11_13 Cu7_13 1_555 1_555
C13_14 N12_14 1_555 1_555
C13_14 C16_14 1_555 1_555
C17_14 C20_14 1_555 1_555
C21_14 C24_14 1_555 1_555
N19_9 N23_4 1_555 1_555
C4_14 H1_14 1_555 1_555
C3_14 H2_14 1_555 1_555
C20_14 H3_14 1_555 1_555
C15_14 H4_14 1_555 1_555
C23_14 H5_14 1_555 1_555
C16_14 H6_14 1_555 1_555
C12_14 H7_14 1_555 1_555
C19_14 H8_14 1_555 1_555
C7_14 H9_14 1_555 1_555
C8_14 H10_14 1_555 1_555
C11_14 H11_14 1_555 1_555
C24_14 H12_14 1_555 1_555
Cu5_5 N1_15 1_555 1_555
N1_15 N22_5 1_555 1_555
N22_5 N3_15 1_555 1_555
C1_15 C2_15 1_555 1_555
C2_15 C3_15 1_555 1_555
C3_15 C10_15 1_555 1_555
N3_15 C1_15 1_555 1_555
C4_15 N1_15 1_555 1_555
N21_8 N5_15 1_555 1_555
N5_15 N6_15 1_555 1_555
C5_15 C6_15 1_555 1_555
C6_15 C7_15 1_555 1_555
C7_15 C2_15 1_555 1_555
N6_15 C5_15 1_555 1_555
C8_15 N21_8 1_555 1_555
N7_15 N8_15 1_555 1_555
N8_15 N9_15 1_555 1_555
C9_15 C10_15 1_555 1_555
C10_15 C11_15 1_555 1_555
C11_15 C6_15 1_555 1_555
N9_15 C9_15 1_555 1_555
C12_15 N7_15 1_555 1_555
N11_14 N20_8 1_555 1_555
C13_15 C14_15 1_555 1_555
C14_15 C15_15 1_555 1_555
C15_15 C22_15 1_555 1_555
N12_15 N11_14 1_555 1_555
C16_15 N20_8 1_555 1_555
N13_14 N14_14 1_555 1_555
N14_14 N15_15 1_555 1_555
C17_15 C18_15 1_555 1_555
C18_15 C19_15 1_555 1_555
C19_15 C14_15 1_555 1_555
N15_15 C17_15 1_555 1_555
C20_15 N13_14 1_555 1_555
N24_4 N18_15 1_555 1_555
C21_15 C22_15 1_555 1_555
C22_15 C23_15 1_555 1_555
C23_15 C18_15 1_555 1_555
N18_15 C21_15 1_555 1_555
C24_15 N19_7 1_555 1_555
Cu6_6 N13_14 1_555 1_555
Cu4_7 N7_15 1_555 1_555
Cu7_14 N5_15 1_555 1_555
Cu10_6 N14_14 1_555 1_555
Cu9_7 N8_15 1_555 1_555
N22_16 Cu5_5 1_555 1_555
N23_16 Cu5_5 1_555 1_555
C1_15 C4_15 1_555 1_555
C5_15 C8_15 1_555 1_555
C9_15 C12_15 1_555 1_555
N11_14 Cu7_14 1_555 1_555
C13_15 N12_15 1_555 1_555
C13_15 C16_15 1_555 1_555
C17_15 C20_15 1_555 1_555
C21_15 C24_15 1_555 1_555
C4_15 H1_15 1_555 1_555
C3_15 H2_15 1_555 1_555
C20_15 H3_15 1_555 1_555
C15_15 H4_15 1_555 1_555
C23_15 H5_15 1_555 1_555
C16_15 H6_15 1_555 1_555
C12_15 H7_15 1_555 1_555
C19_15 H8_15 1_555 1_555
C7_15 H9_15 1_555 1_555
C8_15 H10_15 1_555 1_555
C11_15 H11_15 1_555 1_555
C24_15 H12_15 1_555 1_555
Cu5_7 N1_16 1_555 1_555
N1_16 N26_7 1_555 1_555
N26_7 N3_16 1_555 1_555
C1_16 C2_16 1_555 1_555
C2_16 C3_16 1_555 1_555
C3_16 C10_16 1_555 1_555
N3_16 C1_16 1_555 1_555
C4_16 N1_16 1_555 1_555
N21_9 N5_16 1_555 1_555
N5_16 N6_16 1_555 1_555
C5_16 C6_16 1_555 1_555
C6_16 C7_16 1_555 1_555
C7_16 C2_16 1_555 1_555
N6_16 C5_16 1_555 1_555
C8_16 N21_9 1_555 1_555
N7_16 N8_16 1_555 1_555
N8_16 N9_16 1_555 1_555
C9_16 C10_16 1_555 1_555
C10_16 C11_16 1_555 1_555
C11_16 C6_16 1_555 1_555
N9_16 C9_16 1_555 1_555
C12_16 N7_16 1_555 1_555
N11_15 N20_9 1_555 1_555
C13_16 C14_16 1_555 1_555
C14_16 C15_16 1_555 1_555
C15_16 C22_16 1_555 1_555
N12_16 N11_15 1_555 1_555
C16_16 N20_9 1_555 1_555
N13_15 N14_15 1_555 1_555
N14_15 N15_16 1_555 1_555
C17_16 C18_16 1_555 1_555
C18_16 C19_16 1_555 1_555
C19_16 C14_16 1_555 1_555
N15_16 C17_16 1_555 1_555
C20_16 N13_15 1_555 1_555
N23_4 N18_16 1_555 1_555
C21_16 C22_16 1_555 1_555
C22_16 C23_16 1_555 1_555
C23_16 C18_16 1_555 1_555
N18_16 C21_16 1_555 1_555
C24_16 N19_9 1_555 1_555
Cu6_10 N13_15 1_555 1_555
Cu4_11 N7_16 1_555 1_555
Cu7_15 N5_16 1_555 1_555
Cu10_10 N14_15 1_555 1_555
Cu9_11 N8_16 1_555 1_555
N22_17 Cu5_7 1_555 1_555
N23_17 Cu5_7 1_555 1_555
C1_16 C4_16 1_555 1_555
C5_16 C8_16 1_555 1_555
C9_16 C12_16 1_555 1_555
N11_15 Cu7_15 1_555 1_555
C13_16 N12_16 1_555 1_555
C13_16 C16_16 1_555 1_555
C17_16 C20_16 1_555 1_555
C21_16 C24_16 1_555 1_555
C4_16 H1_16 1_555 1_555
C3_16 H2_16 1_555 1_555
C20_16 H3_16 1_555 1_555
C15_16 H4_16 1_555 1_555
C23_16 H5_16 1_555 1_555
C16_16 H6_16 1_555 1_555
C12_16 H7_16 1_555 1_555
C19_16 H8_16 1_555 1_555
C7_16 H9_16 1_555 1_555
C8_16 H10_16 1_555 1_555
C11_16 H11_16 1_555 1_555
C24_16 H12_16 1_555 1_555
Cu1_10 N1_17 1_555 1_555
N1_17 N2_5 1_555 1_555
N2_5 N3_17 1_555 1_555
C1_17 C2_17 1_555 1_555
C2_17 C3_17 1_555 1_555
C3_17 C10_17 1_555 1_555
N3_17 C1_17 1_555 1_555
C4_17 N1_17 1_555 1_555
N4_8 N22_17 1_555 1_555
N22_17 N6_17 1_555 1_555
C5_17 C6_17 1_555 1_555
C6_17 C7_17 1_555 1_555
C7_17 C2_17 1_555 1_555
N6_17 C5_17 1_555 1_555
C8_17 N4_8 1_555 1_555
N7_17 N8_17 1_555 1_555
N8_17 N9_17 1_555 1_555
C9_17 C10_17 1_555 1_555
C10_17 C11_17 1_555 1_555
C11_17 C6_17 1_555 1_555
N9_17 C9_17 1_555 1_555
C12_17 N7_17 1_555 1_555
Cu7_6 N4_8 1_555 1_555
N10_7 Cu7_6 1_555 1_555
N23_17 N10_7 1_555 1_555
C13_17 C14_17 1_555 1_555
C14_17 C15_17 1_555 1_555
C15_17 C22_17 1_555 1_555
N12_17 N23_17 1_555 1_555
C16_17 N10_7 1_555 1_555
N13_16 N14_16 1_555 1_555
N14_16 N15_17 1_555 1_555
C17_17 C18_17 1_555 1_555
C18_17 C19_17 1_555 1_555
C19_17 C14_17 1_555 1_555
N15_17 C17_17 1_555 1_555
C20_17 N13_16 1_555 1_555
N16_10 N17_4 1_555 1_555
N17_4 N18_17 1_555 1_555
C21_17 C22_17 1_555 1_555
C22_17 C23_17 1_555 1_555
C23_17 C18_17 1_555 1_555
N18_17 C21_17 1_555 1_555
C24_17 N16_10 1_555 1_555
Cu6_7 N2_5 1_555 1_555
Cu10_4 N13_16 1_555 1_555
Cu5_8 N16_10 1_555 1_555
Cu9_11 N7_17 1_555 1_555
Cu4_8 N17_4 1_555 1_555
Cu9_17 N14_16 1_555 1_555
Cu10_16 N8_17 1_555 1_555
N22_18 Cu1_10 1_555 1_555
C1_17 C4_17 1_555 1_555
C5_17 C8_17 1_555 1_555
C9_17 C12_17 1_555 1_555
C13_17 N12_17 1_555 1_555
C13_17 C16_17 1_555 1_555
C17_17 C20_17 1_555 1_555
C21_17 C24_17 1_555 1_555
C4_17 H1_17 1_555 1_555
C3_17 H2_17 1_555 1_555
C20_17 H3_17 1_555 1_555
C15_17 H4_17 1_555 1_555
C23_17 H5_17 1_555 1_555
C16_17 H6_17 1_555 1_555
C12_17 H7_17 1_555 1_555
C19_17 H8_17 1_555 1_555
C7_17 H9_17 1_555 1_555
C8_17 H10_17 1_555 1_555
C11_17 H11_17 1_555 1_555
C24_17 H12_17 1_555 1_555
N19_10 Cu1_11 1_555 1_555
N23_18 Cu1_11 1_555 1_555
N25_4 Cu6_8 1_555 1_555
N19_10 N25_4 1_555 1_555
N10_8 Cu2_4 1_555 1_555
N11_16 N10_8 1_555 1_555
C13_18 C14_18 1_555 1_555
C14_18 C15_18 1_555 1_555
C15_18 C22_18 1_555 1_555
N12_18 N11_16 1_555 1_555
C16_18 N10_8 1_555 1_555
N13_17 N23_6 1_555 1_555
N23_6 N15_18 1_555 1_555
C17_18 C18_18 1_555 1_555
C18_18 C19_18 1_555 1_555
C19_18 C14_18 1_555 1_555
N15_18 C17_18 1_555 1_555
C20_18 N13_17 1_555 1_555
N16_11 N17_5 1_555 1_555
N17_5 N18_18 1_555 1_555
C21_18 C22_18 1_555 1_555
C22_18 C23_18 1_555 1_555
C23_18 C18_18 1_555 1_555
N18_18 C21_18 1_555 1_555
C24_18 N16_11 1_555 1_555
Cu7_9 N13_17 1_555 1_555
Cu9_10 N16_11 1_555 1_555
Cu10_15 N17_5 1_555 1_555
N24_8 Cu2_4 1_555 1_555
N11_16 Cu4_14 1_555 1_555
C13_18 N12_18 1_555 1_555
C13_18 C16_18 1_555 1_555
C17_18 C20_18 1_555 1_555
C21_18 C24_18 1_555 1_555
C20_18 H3_18 1_555 1_555
C15_18 H4_18 1_555 1_555
C23_18 H5_18 1_555 1_555
C16_18 H6_18 1_555 1_555
C19_18 H8_18 1_555 1_555
C24_18 H12_18 1_555 1_555
Cu10_9 N1_18 1_555 1_555
N1_18 N2_6 1_555 1_555
N2_6 N3_18 1_555 1_555
C1_18 C2_18 1_555 1_555
C2_18 C3_18 1_555 1_555
C3_18 C10_18 1_555 1_555
N3_18 C1_18 1_555 1_555
C4_18 N1_18 1_555 1_555
N4_9 N5_17 1_555 1_555
N5_17 N6_18 1_555 1_555
C5_18 C6_18 1_555 1_555
C6_18 C7_18 1_555 1_555
C7_18 C2_18 1_555 1_555
N6_18 C5_18 1_555 1_555
C8_18 N4_9 1_555 1_555
N7_18 N22_9 1_555 1_555
N22_9 N9_18 1_555 1_555
C9_18 C10_18 1_555 1_555
C10_18 C11_18 1_555 1_555
C11_18 C6_18 1_555 1_555
N9_18 C9_18 1_555 1_555
C12_18 N7_18 1_555 1_555
Cu2_5 N4_9 1_555 1_555
Cu3_4 N2_6 1_555 1_555
Cu7_11 N7_18 1_555 1_555
Cu4_15 N5_17 1_555 1_555
N21_10 Cu3_4 1_555 1_555
N26_8 Cu2_5 1_555 1_555
C1_18 C4_18 1_555 1_555
C5_18 C8_18 1_555 1_555
C9_18 C12_18 1_555 1_555
C4_18 H1_18 1_555 1_555
C3_18 H2_18 1_555 1_555
C12_18 H7_18 1_555 1_555
C7_18 H9_18 1_555 1_555
C8_18 H10_18 1_555 1_555
C11_18 H11_18 1_555 1_555
N19_11 Cu10_10 1_555 1_555
N20_10 Cu3_5 1_555 1_555
N25_5 Cu3_5 1_555 1_555
N19_11 N25_5 1_555 1_555
N10_9 Cu9_4 1_555 1_555
N11_17 N10_9 1_555 1_555
C13_19 C14_19 1_555 1_555
C14_19 C15_19 1_555 1_555
C15_19 C22_19 1_555 1_555
N12_19 N11_17 1_555 1_555
C16_19 N10_9 1_555 1_555
N13_18 N14_17 1_555 1_555
N14_17 N15_19 1_555 1_555
C17_19 C18_19 1_555 1_555
C18_19 C19_19 1_555 1_555
C19_19 C14_19 1_555 1_555
N15_19 C17_19 1_555 1_555
C20_19 N13_18 1_555 1_555
N16_12 N23_9 1_555 1_555
N23_9 N18_19 1_555 1_555
C21_19 C22_19 1_555 1_555
C22_19 C23_19 1_555 1_555
C23_19 C18_19 1_555 1_555
N18_19 C21_19 1_555 1_555
C24_19 N16_12 1_555 1_555
Cu4_17 N13_18 1_555 1_555
Cu7_11 N16_12 1_555 1_555
Cu6_14 N14_17 1_555 1_555
N11_17 Cu7_16 1_555 1_555
C13_19 N12_19 1_555 1_555
C13_19 C16_19 1_555 1_555
C17_19 C20_19 1_555 1_555
C21_19 C24_19 1_555 1_555
C20_19 H3_19 1_555 1_555
C15_19 H4_19 1_555 1_555
C23_19 H5_19 1_555 1_555
C16_19 H6_19 1_555 1_555
C19_19 H8_19 1_555 1_555
C24_19 H12_19 1_555 1_555
Cu7_12 N1_19 1_555 1_555
N1_19 N22_15 1_555 1_555
N22_15 N3_19 1_555 1_555
C1_19 C2_19 1_555 1_555
C2_19 C3_19 1_555 1_555
C3_19 C10_19 1_555 1_555
N3_19 C1_19 1_555 1_555
C4_19 N1_19 1_555 1_555
N4_10 N5_18 1_555 1_555
N5_18 N6_19 1_555 1_555
C5_19 C6_19 1_555 1_555
C6_19 C7_19 1_555 1_555
C7_19 C2_19 1_555 1_555
N6_19 C5_19 1_555 1_555
C8_19 N4_10 1_555 1_555
N7_19 N8_18 1_555 1_555
N8_18 N9_19 1_555 1_555
C9_19 C10_19 1_555 1_555
C10_19 C11_19 1_555 1_555
C11_19 C6_19 1_555 1_555
N9_19 C9_19 1_555 1_555
C12_19 N7_19 1_555 1_555
Cu9_5 N4_10 1_555 1_555
Cu5_9 N7_19 1_555 1_555
Cu7_17 N5_18 1_555 1_555
Cu4_9 N8_18 1_555 1_555
N19_12 Cu7_12 1_555 1_555
C1_19 C4_19 1_555 1_555
C5_19 C8_19 1_555 1_555
C9_19 C12_19 1_555 1_555
N19_12 N23_15 1_555 1_555
C4_19 H1_19 1_555 1_555
C3_19 H2_19 1_555 1_555
C12_19 H7_19 1_555 1_555
C7_19 H9_19 1_555 1_555
C8_19 H10_19 1_555 1_555
C11_19 H11_19 1_555 1_555
N24_9 Cu5_8 1_555 1_555
N20_11 Cu7_16 1_555 1_555
N21_11 Cu7_17 1_555 1_555
N26_9 Cu5_9 1_555 1_555
Cu7_9 N1_20 1_555 1_555
N1_20 N22_6 1_555 1_555
N22_6 N3_20 1_555 1_555
C1_20 C2_20 1_555 1_555
C2_20 C3_20 1_555 1_555
C3_20 C10_20 1_555 1_555
N3_20 C1_20 1_555 1_555
C4_20 N1_20 1_555 1_555
N4_11 N5_19 1_555 1_555
N5_19 N6_20 1_555 1_555
C5_20 C6_20 1_555 1_555
C6_20 C7_20 1_555 1_555
C7_20 C2_20 1_555 1_555
N6_20 C5_20 1_555 1_555
C8_20 N4_11 1_555 1_555
N7_20 N8_19 1_555 1_555
N8_19 N9_20 1_555 1_555
C9_20 C10_20 1_555 1_555
C10_20 C11_20 1_555 1_555
C11_20 C6_20 1_555 1_555
N9_20 C9_20 1_555 1_555
C12_20 N7_20 1_555 1_555
Cu10_3 N4_11 1_555 1_555
Cu4_16 N7_20 1_555 1_555
Cu9_16 N5_19 1_555 1_555
Cu6_13 N8_19 1_555 1_555
C1_20 C4_20 1_555 1_555
C5_20 C8_20 1_555 1_555
C9_20 C12_20 1_555 1_555
C4_20 H1_20 1_555 1_555
C3_20 H2_20 1_555 1_555
C12_20 H7_20 1_555 1_555
C7_20 H9_20 1_555 1_555
C8_20 H10_20 1_555 1_555
C11_20 H11_20 1_555 1_555
N22_19 Cu4_16 1_555 1_555
N23_19 Cu4_17 1_555 1_555
N21_12 Cu9_16 1_555 1_555
N20_12 Cu9_17 1_555 1_555
N10_10 Cu10_15 1_555 1_555
N11_18 N10_10 1_555 1_555
C13_20 C14_20 1_555 1_555
C14_20 C15_20 1_555 1_555
C15_20 C22_20 1_555 1_555
N12_20 N11_18 1_555 1_555
C16_20 N10_10 1_555 1_555
N13_19 N14_18 1_555 1_555
N14_18 N15_20 1_555 1_555
C17_20 C18_20 1_555 1_555
C18_20 C19_20 1_555 1_555
C19_20 C14_20 1_555 1_555
N15_20 C17_20 1_555 1_555
C20_20 N13_19 1_555 1_555
N16_13 N24_8 1_555 1_555
N24_8 N18_20 1_555 1_555
C21_20 C22_20 1_555 1_555
C22_20 C23_20 1_555 1_555
C23_20 C18_20 1_555 1_555
N18_20 C21_20 1_555 1_555
C24_20 N16_13 1_555 1_555
Cu4_18 N13_19 1_555 1_555
Cu5_10 N16_13 1_555 1_555
Cu9_18 N14_18 1_555 1_555
N11_18 Cu7_18 1_555 1_555
C13_20 N12_20 1_555 1_555
C13_20 C16_20 1_555 1_555
C17_20 C20_20 1_555 1_555
C21_20 C24_20 1_555 1_555
C20_20 H3_20 1_555 1_555
C15_20 H4_20 1_555 1_555
C23_20 H5_20 1_555 1_555
C16_20 H6_20 1_555 1_555
C19_20 H8_20 1_555 1_555
C24_20 H12_20 1_555 1_555
Cu1_12 N1_21 1_555 1_555
N1_21 N22_18 1_555 1_555
N22_18 N3_21 1_555 1_555
C1_21 C2_21 1_555 1_555
C2_21 C3_21 1_555 1_555
C3_21 C10_21 1_555 1_555
N3_21 C1_21 1_555 1_555
C4_21 N1_21 1_555 1_555
N4_12 N5_20 1_555 1_555
N5_20 N6_21 1_555 1_555
C5_21 C6_21 1_555 1_555
C6_21 C7_21 1_555 1_555
C7_21 C2_21 1_555 1_555
N6_21 C5_21 1_555 1_555
C8_21 N4_12 1_555 1_555
N7_21 N8_20 1_555 1_555
N8_20 N9_21 1_555 1_555
C9_21 C10_21 1_555 1_555
C10_21 C11_21 1_555 1_555
C11_21 C6_21 1_555 1_555
N9_21 C9_21 1_555 1_555
C12_21 N7_21 1_555 1_555
Cu10_16 N4_12 1_555 1_555
Cu6_15 N7_21 1_555 1_555
Cu7_19 N5_20 1_555 1_555
Cu10_17 N8_20 1_555 1_555
N22_20 Cu1_12 1_555 1_555
C1_21 C4_21 1_555 1_555
C5_21 C8_21 1_555 1_555
C9_21 C12_21 1_555 1_555
C4_21 H1_21 1_555 1_555
C3_21 H2_21 1_555 1_555
C12_21 H7_21 1_555 1_555
C7_21 H9_21 1_555 1_555
C8_21 H10_21 1_555 1_555
C11_21 H11_21 1_555 1_555
N19_13 Cu1_13 1_555 1_555
N23_20 Cu1_13 1_555 1_555
N19_13 N23_18 1_555 1_555
N22_21 Cu6_9 1_555 1_555
N23_21 Cu6_10 1_555 1_555
C13_21 C14_21 1_555 1_555
C14_21 C15_21 1_555 1_555
C15_21 C22_21 1_555 1_555
N12_21 N23_15 1_555 1_555
C16_21 N19_12 1_555 1_555
N25_5 N15_21 1_555 1_555
C17_21 C18_21 1_555 1_555
C18_21 C19_21 1_555 1_555
C19_21 C14_21 1_555 1_555
N15_21 C17_21 1_555 1_555
C20_21 N19_11 1_555 1_555
N25_4 N18_21 1_555 1_555
C21_21 C22_21 1_555 1_555
C22_21 C23_21 1_555 1_555
C23_21 C18_21 1_555 1_555
N18_21 C21_21 1_555 1_555
C24_21 N19_10 1_555 1_555
C13_21 N12_21 1_555 1_555
C13_21 C16_21 1_555 1_555
C17_21 C20_21 1_555 1_555
C21_21 C24_21 1_555 1_555
C20_21 H3_21 1_555 1_555
C15_21 H4_21 1_555 1_555
C23_21 H5_21 1_555 1_555
C16_21 H6_21 1_555 1_555
C19_21 H8_21 1_555 1_555
C24_21 H12_21 1_555 1_555
N23_22 Cu5_10 1_555 1_555
Cu5_11 N1_22 1_555 1_555
N1_22 N26_8 1_555 1_555
N26_8 N3_22 1_555 1_555
C1_22 C2_22 1_555 1_555
C2_22 C3_22 1_555 1_555
C3_22 C10_22 1_555 1_555
N3_22 C1_22 1_555 1_555
C4_22 N1_22 1_555 1_555
N21_10 N5_21 1_555 1_555
N5_21 N6_22 1_555 1_555
C5_22 C6_22 1_555 1_555
C6_22 C7_22 1_555 1_555
C7_22 C2_22 1_555 1_555
N6_22 C5_22 1_555 1_555
C8_22 N21_10 1_555 1_555
N7_22 N8_21 1_555 1_555
N8_21 N9_22 1_555 1_555
C9_22 C10_22 1_555 1_555
C10_22 C11_22 1_555 1_555
C11_22 C6_22 1_555 1_555
N9_22 C9_22 1_555 1_555
C12_22 N7_22 1_555 1_555
Cu6_17 N7_22 1_555 1_555
Cu7_20 N5_21 1_555 1_555
Cu10_19 N8_21 1_555 1_555
N22_22 Cu5_11 1_555 1_555
C1_22 C4_22 1_555 1_555
C5_22 C8_22 1_555 1_555
C9_22 C12_22 1_555 1_555
C4_22 H1_22 1_555 1_555
C3_22 H2_22 1_555 1_555
C12_22 H7_22 1_555 1_555
C7_22 H9_22 1_555 1_555
C8_22 H10_22 1_555 1_555
C11_22 H11_22 1_555 1_555
N11_19 N20_10 1_555 1_555
C13_22 C14_22 1_555 1_555
C14_22 C15_22 1_555 1_555
C15_22 C22_22 1_555 1_555
N12_22 N11_19 1_555 1_555
C16_22 N20_10 1_555 1_555
N13_20 N14_19 1_555 1_555
N14_19 N15_22 1_555 1_555
C17_22 C18_22 1_555 1_555
C18_22 C19_22 1_555 1_555
C19_22 C14_22 1_555 1_555
N15_22 C17_22 1_555 1_555
C20_22 N13_20 1_555 1_555
N23_18 N18_22 1_555 1_555
C21_22 C22_22 1_555 1_555
C22_22 C23_22 1_555 1_555
C23_22 C18_22 1_555 1_555
N18_22 C21_22 1_555 1_555
C24_22 N19_13 1_555 1_555
Cu4_20 N13_20 1_555 1_555
Cu9_20 N14_19 1_555 1_555
N11_19 Cu7_21 1_555 1_555
C13_22 N12_22 1_555 1_555
C13_22 C16_22 1_555 1_555
C17_22 C20_22 1_555 1_555
C21_22 C24_22 1_555 1_555
C20_22 H3_22 1_555 1_555
C15_22 H4_22 1_555 1_555
C23_22 H5_22 1_555 1_555
C16_22 H6_22 1_555 1_555
C19_22 H8_22 1_555 1_555
C24_22 H12_22 1_555 1_555
N23_23 Cu4_4 1_555 1_555
N22_23 Cu4_5 1_555 1_555
N19_14 Cu1_14 1_555 1_555
N23_24 Cu1_14 1_555 1_555
N19_14 N24_9 1_555 1_555
N11_20 N20_11 1_555 1_555
C13_23 C14_23 1_555 1_555
C14_23 C15_23 1_555 1_555
C15_23 C22_23 1_555 1_555
N12_23 N11_20 1_555 1_555
C16_23 N20_11 1_555 1_555
N13_21 N14_20 1_555 1_555
N14_20 N15_23 1_555 1_555
C17_23 C18_23 1_555 1_555
C18_23 C19_23 1_555 1_555
C19_23 C14_23 1_555 1_555
N15_23 C17_23 1_555 1_555
C20_23 N13_21 1_555 1_555
N16_14 N23_19 1_555 1_555
N23_19 N18_23 1_555 1_555
C21_23 C22_23 1_555 1_555
C22_23 C23_23 1_555 1_555
C23_23 C18_23 1_555 1_555
N18_23 C21_23 1_555 1_555
C24_23 N16_14 1_555 1_555
Cu6_18 N13_21 1_555 1_555
Cu5_13 N16_14 1_555 1_555
Cu10_20 N14_20 1_555 1_555
N11_20 Cu7_22 1_555 1_555
C13_23 N12_23 1_555 1_555
C13_23 C16_23 1_555 1_555
C17_23 C20_23 1_555 1_555
C21_23 C24_23 1_555 1_555
C20_23 H3_23 1_555 1_555
C15_23 H4_23 1_555 1_555
C23_23 H5_23 1_555 1_555
C16_23 H6_23 1_555 1_555
C19_23 H8_23 1_555 1_555
C24_23 H12_23 1_555 1_555
Cu1_15 N1_23 1_555 1_555
N1_23 N26_9 1_555 1_555
N26_9 N3_23 1_555 1_555
C1_23 C2_23 1_555 1_555
C2_23 C3_23 1_555 1_555
C3_23 C10_23 1_555 1_555
N3_23 C1_23 1_555 1_555
C4_23 N1_23 1_555 1_555
N21_11 N5_22 1_555 1_555
N5_22 N6_23 1_555 1_555
C5_23 C6_23 1_555 1_555
C6_23 C7_23 1_555 1_555
C7_23 C2_23 1_555 1_555
N6_23 C5_23 1_555 1_555
C8_23 N21_11 1_555 1_555
N7_23 N8_22 1_555 1_555
N8_22 N9_23 1_555 1_555
C9_23 C10_23 1_555 1_555
C10_23 C11_23 1_555 1_555
C11_23 C6_23 1_555 1_555
N9_23 C9_23 1_555 1_555
C12_23 N7_23 1_555 1_555
Cu4_21 N7_23 1_555 1_555
Cu7_23 N5_22 1_555 1_555
Cu9_21 N8_22 1_555 1_555
N22_24 Cu1_15 1_555 1_555
C1_23 C4_23 1_555 1_555
C5_23 C8_23 1_555 1_555
C9_23 C12_23 1_555 1_555
C4_23 H1_23 1_555 1_555
C3_23 H2_23 1_555 1_555
C12_23 H7_23 1_555 1_555
C7_23 H9_23 1_555 1_555
C8_23 H10_23 1_555 1_555
C11_23 H11_23 1_555 1_555
N23_25 Cu4_10 1_555 1_555
N22_25 Cu4_11 1_555 1_555
N22_26 Cu6_3 1_555 1_555
N23_26 Cu6_4 1_555 1_555
Cu5_12 N1_24 1_555 1_555
N1_24 N22_19 1_555 1_555
N22_19 N3_24 1_555 1_555
C1_24 C2_24 1_555 1_555
C2_24 C3_24 1_555 1_555
C3_24 C10_24 1_555 1_555
N3_24 C1_24 1_555 1_555
C4_24 N1_24 1_555 1_555
N21_12 N5_23 1_555 1_555
N5_23 N6_24 1_555 1_555
C5_24 C6_24 1_555 1_555
C6_24 C7_24 1_555 1_555
C7_24 C2_24 1_555 1_555
N6_24 C5_24 1_555 1_555
C8_24 N21_12 1_555 1_555
N7_24 N8_23 1_555 1_555
N8_23 N9_24 1_555 1_555
C9_24 C10_24 1_555 1_555
C10_24 C11_24 1_555 1_555
C11_24 C6_24 1_555 1_555
N9_24 C9_24 1_555 1_555
C12_24 N7_24 1_555 1_555
Cu4_19 N7_24 1_555 1_555
Cu7_24 N5_23 1_555 1_555
Cu9_19 N8_23 1_555 1_555
N22_27 Cu5_12 1_555 1_555
C1_24 C4_24 1_555 1_555
C5_24 C8_24 1_555 1_555
C9_24 C12_24 1_555 1_555
C4_24 H1_24 1_555 1_555
C3_24 H2_24 1_555 1_555
C12_24 H7_24 1_555 1_555
C7_24 H9_24 1_555 1_555
C8_24 H10_24 1_555 1_555
C11_24 H11_24 1_555 1_555
N11_21 N20_12 1_555 1_555
C13_24 C14_24 1_555 1_555
C14_24 C15_24 1_555 1_555
C15_24 C22_24 1_555 1_555
N12_24 N11_21 1_555 1_555
C16_24 N20_12 1_555 1_555
N13_22 N14_21 1_555 1_555
N14_21 N15_24 1_555 1_555
C17_24 C18_24 1_555 1_555
C18_24 C19_24 1_555 1_555
C19_24 C14_24 1_555 1_555
N15_24 C17_24 1_555 1_555
C20_24 N13_22 1_555 1_555
N24_9 N18_24 1_555 1_555
C21_24 C22_24 1_555 1_555
C22_24 C23_24 1_555 1_555
C23_24 C18_24 1_555 1_555
N18_24 C21_24 1_555 1_555
C24_24 N19_14 1_555 1_555
Cu6_16 N13_22 1_555 1_555
Cu10_18 N14_21 1_555 1_555
N11_21 Cu7_25 1_555 1_555
C13_24 N12_24 1_555 1_555
C13_24 C16_24 1_555 1_555
C17_24 C20_24 1_555 1_555
C21_24 C24_24 1_555 1_555
C20_24 H3_24 1_555 1_555
C15_24 H4_24 1_555 1_555
C23_24 H5_24 1_555 1_555
C16_24 H6_24 1_555 1_555
C19_24 H8_24 1_555 1_555
C24_24 H12_24 1_555 1_555
N23_27 Cu5_13 1_555 1_555
N10_11 Cu9_6 1_555 1_555
N11_22 N10_11 1_555 1_555
C13_25 C14_25 1_555 1_555
C14_25 C15_25 1_555 1_555
C15_25 C22_25 1_555 1_555
N12_25 N11_22 1_555 1_555
C16_25 N10_11 1_555 1_555
N13_23 N23_21 1_555 1_555
N23_21 N15_25 1_555 1_555
C17_25 C18_25 1_555 1_555
C18_25 C19_25 1_555 1_555
C19_25 C14_25 1_555 1_555
N15_25 C17_25 1_555 1_555
C20_25 N13_23 1_555 1_555
N16_15 N23_10 1_555 1_555
N23_10 N18_25 1_555 1_555
C21_25 C22_25 1_555 1_555
C22_25 C23_25 1_555 1_555
C23_25 C18_25 1_555 1_555
N18_25 C21_25 1_555 1_555
C24_25 N16_15 1_555 1_555
Cu7_21 N13_23 1_555 1_555
Cu7_15 N16_15 1_555 1_555
N11_22 Cu4_20 1_555 1_555
C13_25 N12_25 1_555 1_555
C13_25 C16_25 1_555 1_555
C17_25 C20_25 1_555 1_555
C21_25 C24_25 1_555 1_555
C20_25 H3_25 1_555 1_555
C15_25 H4_25 1_555 1_555
C23_25 H5_25 1_555 1_555
C16_25 H6_25 1_555 1_555
C19_25 H8_25 1_555 1_555
C24_25 H12_25 1_555 1_555
Cu7_13 N1_25 1_555 1_555
N1_25 N22_16 1_555 1_555
N22_16 N3_25 1_555 1_555
C1_25 C2_25 1_555 1_555
C2_25 C3_25 1_555 1_555
C3_25 C10_25 1_555 1_555
N3_25 C1_25 1_555 1_555
C4_25 N1_25 1_555 1_555
N4_13 N5_24 1_555 1_555
N5_24 N6_25 1_555 1_555
C5_25 C6_25 1_555 1_555
C6_25 C7_25 1_555 1_555
C7_25 C2_25 1_555 1_555
N6_25 C5_25 1_555 1_555
C8_25 N4_13 1_555 1_555
N7_25 N22_23 1_555 1_555
N22_23 N9_25 1_555 1_555
C9_25 C10_25 1_555 1_555
C10_25 C11_25 1_555 1_555
C11_25 C6_25 1_555 1_555
N9_25 C9_25 1_555 1_555
C12_25 N7_25 1_555 1_555
Cu9_7 N4_13 1_555 1_555
Cu7_23 N7_25 1_555 1_555
Cu4_21 N5_24 1_555 1_555
N19_15 Cu7_13 1_555 1_555
C1_25 C4_25 1_555 1_555
C5_25 C8_25 1_555 1_555
C9_25 C12_25 1_555 1_555
N19_15 N23_16 1_555 1_555
C4_25 H1_25 1_555 1_555
C3_25 H2_25 1_555 1_555
C12_25 H7_25 1_555 1_555
C7_25 H9_25 1_555 1_555
C8_25 H10_25 1_555 1_555
C11_25 H11_25 1_555 1_555
Cu7_24 N1_26 1_555 1_555
N1_26 N22_26 1_555 1_555
N22_26 N3_26 1_555 1_555
C1_26 C2_26 1_555 1_555
C2_26 C3_26 1_555 1_555
C3_26 C10_26 1_555 1_555
N3_26 C1_26 1_555 1_555
C4_26 N1_26 1_555 1_555
N4_14 N22_12 1_555 1_555
N22_12 N6_26 1_555 1_555
C5_26 C6_26 1_555 1_555
C6_26 C7_26 1_555 1_555
C7_26 C2_26 1_555 1_555
N6_26 C5_26 1_555 1_555
C8_26 N4_14 1_555 1_555
N7_26 N8_24 1_555 1_555
N8_24 N9_26 1_555 1_555
C9_26 C10_26 1_555 1_555
C10_26 C11_26 1_555 1_555
C11_26 C6_26 1_555 1_555
N9_26 C9_26 1_555 1_555
C12_26 N7_26 1_555 1_555
Cu7_4 N4_14 1_555 1_555
N10_12 Cu7_4 1_555 1_555
N23_12 N10_12 1_555 1_555
C13_26 C14_26 1_555 1_555
C14_26 C15_26 1_555 1_555
C15_26 C22_26 1_555 1_555
N12_26 N23_12 1_555 1_555
C16_26 N10_12 1_555 1_555
N13_24 N14_22 1_555 1_555
N14_22 N15_26 1_555 1_555
C17_26 C18_26 1_555 1_555
C18_26 C19_26 1_555 1_555
C19_26 C14_26 1_555 1_555
N15_26 C17_26 1_555 1_555
C20_26 N13_24 1_555 1_555
N16_16 N23_23 1_555 1_555
N23_23 N18_26 1_555 1_555
C21_26 C22_26 1_555 1_555
C22_26 C23_26 1_555 1_555
C23_26 C18_26 1_555 1_555
N18_26 C21_26 1_555 1_555
C24_26 N16_16 1_555 1_555
Cu10_6 N13_24 1_555 1_555
Cu7_22 N16_16 1_555 1_555
Cu9_13 N7_26 1_555 1_555
Cu6_18 N14_22 1_555 1_555
Cu4_19 N8_24 1_555 1_555
C1_26 C4_26 1_555 1_555
C5_26 C8_26 1_555 1_555
C9_26 C12_26 1_555 1_555
C13_26 N12_26 1_555 1_555
C13_26 C16_26 1_555 1_555
C17_26 C20_26 1_555 1_555
C21_26 C24_26 1_555 1_555
C4_26 H1_26 1_555 1_555
C3_26 H2_26 1_555 1_555
C20_26 H3_26 1_555 1_555
C15_26 H4_26 1_555 1_555
C23_26 H5_26 1_555 1_555
C16_26 H6_26 1_555 1_555
C12_26 H7_26 1_555 1_555
C19_26 H8_26 1_555 1_555
C7_26 H9_26 1_555 1_555
C8_26 H10_26 1_555 1_555
C11_26 H11_26 1_555 1_555
C24_26 H12_26 1_555 1_555
N19_16 Cu7_25 1_555 1_555
N19_16 N23_26 1_555 1_555
N10_13 Cu7_18 1_555 1_555
N23_25 N10_13 1_555 1_555
C13_27 C14_27 1_555 1_555
C14_27 C15_27 1_555 1_555
C15_27 C22_27 1_555 1_555
N12_27 N23_25 1_555 1_555
C16_27 N10_13 1_555 1_555
N13_25 N23_7 1_555 1_555
N23_7 N15_27 1_555 1_555
C17_27 C18_27 1_555 1_555
C18_27 C19_27 1_555 1_555
C19_27 C14_27 1_555 1_555
N15_27 C17_27 1_555 1_555
C20_27 N13_25 1_555 1_555
N16_17 N17_6 1_555 1_555
N17_6 N18_27 1_555 1_555
C21_27 C22_27 1_555 1_555
C22_27 C23_27 1_555 1_555
C23_27 C18_27 1_555 1_555
N18_27 C21_27 1_555 1_555
C24_27 N16_17 1_555 1_555
Cu7_7 N13_25 1_555 1_555
Cu9_12 N16_17 1_555 1_555
Cu4_18 N17_6 1_555 1_555
C13_27 N12_27 1_555 1_555
C13_27 C16_27 1_555 1_555
C17_27 C20_27 1_555 1_555
C21_27 C24_27 1_555 1_555
C20_27 H3_27 1_555 1_555
C15_27 H4_27 1_555 1_555
C23_27 H5_27 1_555 1_555
C16_27 H6_27 1_555 1_555
C19_27 H8_27 1_555 1_555
C24_27 H12_27 1_555 1_555
Cu10_11 N1_27 1_555 1_555
N1_27 N2_7 1_555 1_555
N2_7 N3_27 1_555 1_555
C1_27 C2_27 1_555 1_555
C2_27 C3_27 1_555 1_555
C3_27 C10_27 1_555 1_555
N3_27 C1_27 1_555 1_555
C4_27 N1_27 1_555 1_555
N4_15 N22_25 1_555 1_555
N22_25 N6_27 1_555 1_555
C5_27 C6_27 1_555 1_555
C6_27 C7_27 1_555 1_555
C7_27 C2_27 1_555 1_555
N6_27 C5_27 1_555 1_555
C8_27 N4_15 1_555 1_555
N7_27 N22_10 1_555 1_555
N22_10 N9_27 1_555 1_555
C9_27 C10_27 1_555 1_555
C10_27 C11_27 1_555 1_555
C11_27 C6_27 1_555 1_555
N9_27 C9_27 1_555 1_555
C12_27 N7_27 1_555 1_555
Cu7_19 N4_15 1_555 1_555
Cu6_15 N2_7 1_555 1_555
Cu7_15 N7_27 1_555 1_555
C1_27 C4_27 1_555 1_555
C5_27 C8_27 1_555 1_555
C9_27 C12_27 1_555 1_555
C4_27 H1_27 1_555 1_555
C3_27 H2_27 1_555 1_555
C12_27 H7_27 1_555 1_555
C7_27 H9_27 1_555 1_555
C8_27 H10_27 1_555 1_555
C11_27 H11_27 1_555 1_555
N19_17 Cu10_12 1_555 1_555
N25_6 Cu6_16 1_555 1_555
N19_17 N25_6 1_555 1_555
Cu10_5 N1_28 1_555 1_555
N1_28 N2_8 1_555 1_555
N2_8 N3_28 1_555 1_555
C1_28 C2_28 1_555 1_555
C2_28 C3_28 1_555 1_555
C3_28 C10_28 1_555 1_555
N3_28 C1_28 1_555 1_555
C4_28 N1_28 1_555 1_555
N4_16 N22_21 1_555 1_555
N22_21 N6_28 1_555 1_555
C5_28 C6_28 1_555 1_555
C6_28 C7_28 1_555 1_555
C7_28 C2_28 1_555 1_555
N6_28 C5_28 1_555 1_555
C8_28 N4_16 1_555 1_555
N7_28 N22_7 1_555 1_555
N22_7 N9_28 1_555 1_555
C9_28 C10_28 1_555 1_555
C10_28 C11_28 1_555 1_555
C11_28 C6_28 1_555 1_555
N9_28 C9_28 1_555 1_555
C12_28 N7_28 1_555 1_555
Cu7_20 N4_16 1_555 1_555
Cu6_17 N2_8 1_555 1_555
Cu7_7 N7_28 1_555 1_555
C1_28 C4_28 1_555 1_555
C5_28 C8_28 1_555 1_555
C9_28 C12_28 1_555 1_555
C4_28 H1_28 1_555 1_555
C3_28 H2_28 1_555 1_555
C12_28 H7_28 1_555 1_555
C7_28 H9_28 1_555 1_555
C8_28 H10_28 1_555 1_555
C11_28 H11_28 1_555 1_555
N22_28 Cu6_11 1_555 1_555
N23_28 Cu6_12 1_555 1_555
C13_28 C14_28 1_555 1_555
C14_28 C15_28 1_555 1_555
C15_28 C22_28 1_555 1_555
N12_28 N25_6 1_555 1_555
C16_28 N19_17 1_555 1_555
N23_26 N15_28 1_555 1_555
C17_28 C18_28 1_555 1_555
C18_28 C19_28 1_555 1_555
C19_28 C14_28 1_555 1_555
N15_28 C17_28 1_555 1_555
C20_28 N19_16 1_555 1_555
N23_16 N18_28 1_555 1_555
C21_28 C22_28 1_555 1_555
C22_28 C23_28 1_555 1_555
C23_28 C18_28 1_555 1_555
N18_28 C21_28 1_555 1_555
C24_28 N19_15 1_555 1_555
C13_28 N12_28 1_555 1_555
C13_28 C16_28 1_555 1_555
C17_28 C20_28 1_555 1_555
C21_28 C24_28 1_555 1_555
C20_28 H3_28 1_555 1_555
C15_28 H4_28 1_555 1_555
C23_28 H5_28 1_555 1_555
C16_28 H6_28 1_555 1_555
C19_28 H8_28 1_555 1_555
C24_28 H12_28 1_555 1_555
N23_29 Cu4_6 1_555 1_555
N22_29 Cu4_7 1_555 1_555
N22_30 Cu6_5 1_555 1_555
N23_30 Cu6_6 1_555 1_555
N23_31 Cu4_12 1_555 1_555
N22_31 Cu4_13 1_555 1_555
N10_14 Cu9_18 1_555 1_555
N23_31 N10_14 1_555 1_555
C13_29 C14_29 1_555 1_555
C14_29 C15_29 1_555 1_555
C15_29 C22_29 1_555 1_555
N12_29 N23_31 1_555 1_555
C16_29 N10_14 1_555 1_555
N13_26 N23_8 1_555 1_555
N23_8 N15_29 1_555 1_555
C17_29 C18_29 1_555 1_555
C18_29 C19_29 1_555 1_555
C19_29 C14_29 1_555 1_555
N15_29 C17_29 1_555 1_555
C20_29 N13_26 1_555 1_555
N16_18 N23_22 1_555 1_555
N23_22 N18_29 1_555 1_555
C21_29 C22_29 1_555 1_555
C22_29 C23_29 1_555 1_555
C23_29 C18_29 1_555 1_555
N18_29 C21_29 1_555 1_555
C24_29 N16_18 1_555 1_555
Cu7_8 N13_26 1_555 1_555
Cu9_14 N16_18 1_555 1_555
C13_29 N12_29 1_555 1_555
C13_29 C16_29 1_555 1_555
C17_29 C20_29 1_555 1_555
C21_29 C24_29 1_555 1_555
C20_29 H3_29 1_555 1_555
C15_29 H4_29 1_555 1_555
C23_29 H5_29 1_555 1_555
C16_29 H6_29 1_555 1_555
C19_29 H8_29 1_555 1_555
C24_29 H12_29 1_555 1_555
Cu10_13 N1_29 1_555 1_555
N1_29 N22_27 1_555 1_555
N22_27 N3_29 1_555 1_555
C1_29 C2_29 1_555 1_555
C2_29 C3_29 1_555 1_555
C3_29 C10_29 1_555 1_555
N3_29 C1_29 1_555 1_555
C4_29 N1_29 1_555 1_555
N4_17 N22_31 1_555 1_555
N22_31 N6_29 1_555 1_555
C5_29 C6_29 1_555 1_555
C6_29 C7_29 1_555 1_555
C7_29 C2_29 1_555 1_555
N6_29 C5_29 1_555 1_555
C8_29 N4_17 1_555 1_555
N7_29 N22_11 1_555 1_555
N22_11 N9_29 1_555 1_555
C9_29 C10_29 1_555 1_555
C10_29 C11_29 1_555 1_555
C11_29 C6_29 1_555 1_555
N9_29 C9_29 1_555 1_555
C12_29 N7_29 1_555 1_555
Cu9_19 N4_17 1_555 1_555
Cu7_10 N7_29 1_555 1_555
C1_29 C4_29 1_555 1_555
C5_29 C8_29 1_555 1_555
C9_29 C12_29 1_555 1_555
C4_29 H1_29 1_555 1_555
C3_29 H2_29 1_555 1_555
C12_29 H7_29 1_555 1_555
C7_29 H9_29 1_555 1_555
C8_29 H10_29 1_555 1_555
C11_29 H11_29 1_555 1_555
N19_18 Cu10_14 1_555 1_555
N19_18 N23_27 1_555 1_555
N10_15 Cu9_8 1_555 1_555
N23_24 N10_15 1_555 1_555
C13_30 C14_30 1_555 1_555
C14_30 C15_30 1_555 1_555
C15_30 C22_30 1_555 1_555
N12_30 N23_24 1_555 1_555
C16_30 N10_15 1_555 1_555
N13_27 N23_28 1_555 1_555
N23_28 N15_30 1_555 1_555
C17_30 C18_30 1_555 1_555
C18_30 C19_30 1_555 1_555
C19_30 C14_30 1_555 1_555
N15_30 C17_30 1_555 1_555
C20_30 N13_27 1_555 1_555
N16_19 N23_11 1_555 1_555
N23_11 N18_30 1_555 1_555
C21_30 C22_30 1_555 1_555
C22_30 C23_30 1_555 1_555
C23_30 C18_30 1_555 1_555
N18_30 C21_30 1_555 1_555
C24_30 N16_19 1_555 1_555
Cu10_18 N13_27 1_555 1_555
Cu7_10 N16_19 1_555 1_555
C13_30 N12_30 1_555 1_555
C13_30 C16_30 1_555 1_555
C17_30 C20_30 1_555 1_555
C21_30 C24_30 1_555 1_555
C20_30 H3_30 1_555 1_555
C15_30 H4_30 1_555 1_555
C23_30 H5_30 1_555 1_555
C16_30 H6_30 1_555 1_555
C19_30 H8_30 1_555 1_555
C24_30 H12_30 1_555 1_555
Cu7_14 N1_30 1_555 1_555
N1_30 N22_14 1_555 1_555
N22_14 N3_30 1_555 1_555
C1_30 C2_30 1_555 1_555
C2_30 C3_30 1_555 1_555
C3_30 C10_30 1_555 1_555
N3_30 C1_30 1_555 1_555
C4_30 N1_30 1_555 1_555
N4_18 N22_24 1_555 1_555
N22_24 N6_30 1_555 1_555
C5_30 C6_30 1_555 1_555
C6_30 C7_30 1_555 1_555
C7_30 C2_30 1_555 1_555
N6_30 C5_30 1_555 1_555
C8_30 N4_18 1_555 1_555
N7_30 N22_29 1_555 1_555
N22_29 N9_30 1_555 1_555
C9_30 C10_30 1_555 1_555
C10_30 C11_30 1_555 1_555
C11_30 C6_30 1_555 1_555
N9_30 C9_30 1_555 1_555
C12_30 N7_30 1_555 1_555
Cu9_9 N4_18 1_555 1_555
Cu9_21 N7_30 1_555 1_555
N19_19 Cu7_14 1_555 1_555
C1_30 C4_30 1_555 1_555
C5_30 C8_30 1_555 1_555
C9_30 C12_30 1_555 1_555
N19_19 N23_14 1_555 1_555
C4_30 H1_30 1_555 1_555
C3_30 H2_30 1_555 1_555
C12_30 H7_30 1_555 1_555
C7_30 H9_30 1_555 1_555
C8_30 H10_30 1_555 1_555
C11_30 H11_30 1_555 1_555
Cu10_19 N1_31 1_555 1_555
N1_31 N22_30 1_555 1_555
N22_30 N3_31 1_555 1_555
C1_31 C2_31 1_555 1_555
C2_31 C3_31 1_555 1_555
C3_31 C10_31 1_555 1_555
N3_31 C1_31 1_555 1_555
C4_31 N1_31 1_555 1_555
N4_19 N22_13 1_555 1_555
N22_13 N6_31 1_555 1_555
C5_31 C6_31 1_555 1_555
C6_31 C7_31 1_555 1_555
C7_31 C2_31 1_555 1_555
N6_31 C5_31 1_555 1_555
C8_31 N4_19 1_555 1_555
N7_31 N22_22 1_555 1_555
N22_22 N9_31 1_555 1_555
C9_31 C10_31 1_555 1_555
C10_31 C11_31 1_555 1_555
C11_31 C6_31 1_555 1_555
N9_31 C9_31 1_555 1_555
C12_31 N7_31 1_555 1_555
Cu7_5 N4_19 1_555 1_555
N10_16 Cu7_5 1_555 1_555
N23_13 N10_16 1_555 1_555
C13_31 C14_31 1_555 1_555
C14_31 C15_31 1_555 1_555
C15_31 C22_31 1_555 1_555
N12_31 N23_13 1_555 1_555
C16_31 N10_16 1_555 1_555
N13_28 N23_20 1_555 1_555
N23_20 N15_31 1_555 1_555
C17_31 C18_31 1_555 1_555
C18_31 C19_31 1_555 1_555
C19_31 C14_31 1_555 1_555
N15_31 C17_31 1_555 1_555
C20_31 N13_28 1_555 1_555
N16_20 N23_29 1_555 1_555
N23_29 N18_31 1_555 1_555
C21_31 C22_31 1_555 1_555
C22_31 C23_31 1_555 1_555
C23_31 C18_31 1_555 1_555
N18_31 C21_31 1_555 1_555
C24_31 N16_20 1_555 1_555
Cu10_8 N13_28 1_555 1_555
Cu9_20 N16_20 1_555 1_555
Cu9_15 N7_31 1_555 1_555
C1_31 C4_31 1_555 1_555
C5_31 C8_31 1_555 1_555
C9_31 C12_31 1_555 1_555
C13_31 N12_31 1_555 1_555
C13_31 C16_31 1_555 1_555
C17_31 C20_31 1_555 1_555
C21_31 C24_31 1_555 1_555
C4_31 H1_31 1_555 1_555
C3_31 H2_31 1_555 1_555
C20_31 H3_31 1_555 1_555
C15_31 H4_31 1_555 1_555
C23_31 H5_31 1_555 1_555
C16_31 H6_31 1_555 1_555
C12_31 H7_31 1_555 1_555
C19_31 H8_31 1_555 1_555
C7_31 H9_31 1_555 1_555
C8_31 H10_31 1_555 1_555
C11_31 H11_31 1_555 1_555
C24_31 H12_31 1_555 1_555
N19_20 Cu10_20 1_555 1_555
N19_20 N23_30 1_555 1_555
Cu10_17 N1_32 1_555 1_555
N1_32 N22_28 1_555 1_555
N22_28 N3_32 1_555 1_555
C1_32 C2_32 1_555 1_555
C2_32 C3_32 1_555 1_555
C3_32 C10_32 1_555 1_555
N3_32 C1_32 1_555 1_555
C4_32 N1_32 1_555 1_555
N4_20 N22_8 1_555 1_555
N22_8 N6_32 1_555 1_555
C5_32 C6_32 1_555 1_555
C6_32 C7_32 1_555 1_555
C7_32 C2_32 1_555 1_555
N6_32 C5_32 1_555 1_555
C8_32 N4_20 1_555 1_555
N7_32 N22_20 1_555 1_555
N22_20 N9_32 1_555 1_555
C9_32 C10_32 1_555 1_555
C10_32 C11_32 1_555 1_555
C11_32 C6_32 1_555 1_555
N9_32 C9_32 1_555 1_555
C12_32 N7_32 1_555 1_555
Cu7_8 N4_20 1_555 1_555
Cu10_7 N7_32 1_555 1_555
C1_32 C4_32 1_555 1_555
C5_32 C8_32 1_555 1_555
C9_32 C12_32 1_555 1_555
C4_32 H1_32 1_555 1_555
C3_32 H2_32 1_555 1_555
C12_32 H7_32 1_555 1_555
C7_32 H9_32 1_555 1_555
C8_32 H10_32 1_555 1_555
C11_32 H11_32 1_555 1_555
C13_32 C14_32 1_555 1_555
C14_32 C15_32 1_555 1_555
C15_32 C22_32 1_555 1_555
N12_32 N23_30 1_555 1_555
C16_32 N19_20 1_555 1_555
N23_14 N15_32 1_555 1_555
C17_32 C18_32 1_555 1_555
C18_32 C19_32 1_555 1_555
C19_32 C14_32 1_555 1_555
N15_32 C17_32 1_555 1_555
C20_32 N19_19 1_555 1_555
N23_27 N18_32 1_555 1_555
C21_32 C22_32 1_555 1_555
C22_32 C23_32 1_555 1_555
C23_32 C18_32 1_555 1_555
N18_32 C21_32 1_555 1_555
C24_32 N19_18 1_555 1_555
C13_32 N12_32 1_555 1_555
C13_32 C16_32 1_555 1_555
C17_32 C20_32 1_555 1_555
C21_32 C24_32 1_555 1_555
C20_32 H3_32 1_555 1_555
C15_32 H4_32 1_555 1_555
C23_32 H5_32 1_555 1_555
C16_32 H6_32 1_555 1_555
C19_32 H8_32 1_555 1_555
C24_32 H12_32 1_555 1_555

#END
