
###############################################################################
#
# This file contains modified crystal structure data generated from the
# MOF subset of the Cambridge Structural Database (CSD) v543 
# hosted by the Cambridge Crystallographic Data Centre (CCDC).
#
# This work is licensed under the Creative Commons
# Attribution-NonCommercial-ShareAlike 4.0 International License.
# To view a copy of this license, visit
# http://creativecommons.org/licenses/by-nc-sa/4.0/
# or send a letter to
# Creative Commons, PO Box 1866, Mountain View, CA 94042, USA.
#
# CIF created using the CSD Python API on 29 September 2022
# The structure has been converted into the P1 space group
# The structure has a 3D framework
# The original CSD entry BIYTEJ is in the hexagonal crystal system
# The original CSD entry BIYTEJ is in a Sohncke space group
# The framework has been calculated to contain at least 10.0% void space
# The void calculation uses a probe of radius 1.32A, grid spacing 0.4
#
###############################################################################

data_BIYTEJ
_chemical_formula_moiety         '(C36 H12 N56 Zn6)n'
_symmetry_cell_setting           triclinic
_symmetry_space_group_name_H-M   'P 1'
_symmetry_Int_Tables_number      1
_space_group_name_Hall           'P 1'
loop_
_symmetry_equiv_pos_site_id
_symmetry_equiv_pos_as_xyz
1 x,y,z
_cell_length_a                   14.163(2)
_cell_length_b                   14.163(2)
_cell_length_c                   11.568(2)
_cell_angle_alpha                90
_cell_angle_beta                 90
_cell_angle_gamma                120
_cell_volume                     2009.55
loop_
_atom_site_label
_atom_site_type_symbol
_atom_site_fract_x
_atom_site_fract_y
_atom_site_fract_z
N6 N 0.0192(3) 0.4997(4) 0.0841(4)
N10 N 0.0036(3) 0.6686(3) 0.1545(3)
C6 C 0.0470(5) 0.4325(5) 0.0395(6)
H2 H 0.1001 0.4230 0.0763
Zn3 Zn 0.14826(6) 0.68099(4) 0.19550(4)
Zn1 Zn 0.68099(4) 0.53273(4) 0.02883(4)
N7 N 0.8341(3) 0.6028(3) 0.0980(3)
N8 N 0.8644(4) 0.6911(4) 0.1686(4)
N9 N 0.9648(4) 0.7301(4) 0.2002(5)
C3 C 0.9389(3) 0.5087(4) 0.0322(4)
C4 C 0.9221(3) 0.5917(4) 0.0913(4)
N11 N 0.5925(3) 0.3769(4) 0.0884(3)
N12 N 0.6166(3) 0.5371(4) 0.2189(4)
N1 N 0.7395(3) 0.4943(3) 0.8789(3)
N2 N 0.6788(3) 0.4731(4) 0.7811(4)
N3 N 0.7065(3) 0.4225(4) 0.7074(3)
N4 N 0.7844(3) 0.4075(3) 0.7551(3)
N5 N 0.9205(3) 0.3834(3) 0.8856(4)
C1 C 0.8033(3) 0.4525(3) 0.8604(4)
C2 C 0.8874(3) 0.4491(4) 0.9316(4)
C5 C 0.9996(5) 0.3742(5) 0.9379(6)
Zn2 Zn 0.85174(6) 0.31901(4) 0.69550(4)
N13 N 0.6686(3) 0.6650(4) 0.9878(3)
Zn1_2 Zn 0.46727(4) 0.14826(6) 0.36216(4)
N1_2 N 0.5057(3) 0.2452(4) 0.2122(3)
N2_2 N 0.5269(4) 0.2057(5) 0.1144(4)
N3_2 N 0.5775(4) 0.2840(5) 0.0407(3)
N6_2 N 0.5003(4) 0.5195(5) 0.4174(4)
N7_2 N 0.3972(3) 0.2313(4) 0.4313(3)
N8_2 N 0.3089(4) 0.1733(6) 0.5019(4)
N9_2 N 0.2699(4) 0.2347(6) 0.5335(5)
N10_2 N 0.3314(3) 0.3350(4) 0.4878(3)
C1_2 C 0.5475(3) 0.3508(4) 0.1937(4)
C2_2 C 0.5509(4) 0.4383(5) 0.2649(4)
C3_2 C 0.4913(4) 0.4302(5) 0.3655(4)
C4_2 C 0.4083(4) 0.3304(5) 0.4246(4)
C5_2 C 0.6258(5) 0.6254(7) 0.2712(6)
H1 H 0.6710 0.6942 0.2401
C6_2 C 0.5675(5) 0.6145(7) 0.3728(6)
H2_2 H 0.5770 0.6771 0.4096
Zn3_2 Zn 0.31901(4) 0.46727(7) 0.52883(4)
N11_2 N 0.6231(4) 0.2156(5) 0.4218(3)
N12_2 N 0.4629(4) 0.0795(5) 0.5523(4)
N13_2 N 0.3350(4) 0.0036(5) 0.3212(3)
N1_3 N 0.7548(4) 0.2605(3) 0.5456(3)
N2_3 N 0.7943(5) 0.3212(3) 0.4478(4)
N3_3 N 0.7160(5) 0.2935(3) 0.3741(3)
N7_3 N 0.7687(4) 0.1659(3) 0.7647(3)
N8_3 N 0.8267(6) 0.1356(4) 0.8353(4)
N9_3 N 0.7653(6) 0.0352(4) 0.8669(5)
C1_3 C 0.6492(4) 0.1967(3) 0.5271(4)
C2_3 C 0.5617(5) 0.1126(3) 0.5983(4)
C3_3 C 0.5698(5) 0.0611(3) 0.6989(4)
C4_3 C 0.6696(5) 0.0779(3) 0.7580(4)
C5_3 C 0.3746(7) 0.0004(5) 0.6046(6)
N13_3 N 0.9964(5) 0.3314(3) 0.6545(3)
N6_3 N 0.4805(5) 0.9808(3) 0.7508(4)
N10_3 N 0.6650(4) 0.9964(3) 0.8212(3)
H1_2 H 0.3058 0.9768 0.5735
C6_3 C 0.3855(7) 0.9530(5) 0.7062(6)
H2_3 H 0.3229 0.8999 0.7430
Zn3_3 Zn 0.53273(7) 0.85174(6) 0.86216(4)
N1_4 N 0.2605(3) 0.5057(3) 0.3789(3)
N2_4 N 0.3212(3) 0.5269(4) 0.2811(4)
N3_4 N 0.2935(3) 0.5775(4) 0.2074(3)
N4_2 N 0.2156(3) 0.5925(3) 0.2551(3)
N5_2 N 0.0795(3) 0.6166(3) 0.3856(4)
N7_4 N 0.1659(3) 0.3972(3) 0.5980(3)
N8_4 N 0.1356(4) 0.3089(4) 0.6686(4)
N9_4 N 0.0352(4) 0.2699(4) 0.7002(5)
C1_4 C 0.1967(3) 0.5475(3) 0.3604(4)
C2_4 C 0.1126(3) 0.5509(4) 0.4316(4)
C3_4 C 0.0611(3) 0.4913(4) 0.5322(4)
C4_4 C 0.0779(3) 0.4083(4) 0.5913(4)
C5_4 C 0.0004(5) 0.6258(5) 0.4379(6)
N11_3 N 0.4075(3) 0.6231(4) 0.5884(3)
N12_3 N 0.3834(3) 0.4629(4) 0.7189(4)
N6_4 N 0.9808(3) 0.5003(4) 0.5841(4)
H1_3 H 0.9768 0.6710 0.4068
C6_4 C 0.9530(5) 0.5675(5) 0.5395(6)
H2_4 H 0.8999 0.5770 0.5763
N8_5 N 0.6911(4) 0.8267(6) 0.0019(4)
N9_5 N 0.7301(4) 0.7653(6) 0.0335(5)
N12_4 N 0.5371(4) 0.9205(5) 0.0523(4)
N1_5 N 0.4943(3) 0.7548(4) 0.7122(3)
N2_5 N 0.4731(4) 0.7943(5) 0.6144(4)
N3_5 N 0.4225(4) 0.7160(5) 0.5407(3)
N6_5 N 0.4997(4) 0.4805(5) 0.9174(4)
N7_5 N 0.6028(3) 0.7687(4) 0.9313(3)
C1_5 C 0.4525(3) 0.6492(4) 0.6937(4)
C2_5 C 0.4491(4) 0.5617(5) 0.7649(4)
C3_5 C 0.5087(4) 0.5698(5) 0.8655(4)
C4_5 C 0.5917(4) 0.6696(5) 0.9246(4)
C5_5 C 0.3742(5) 0.3746(7) 0.7712(6)
H1_4 H 0.3290 0.3058 0.7401
C6_5 C 0.4325(5) 0.3855(7) 0.8728(6)
H2_5 H 0.4230 0.3229 0.9096
N11_4 N 0.3769(4) 0.7844(5) 0.9218(3)
N6_6 N 0.5195(5) 0.0192(3) 0.2508(4)
H1_5 H 0.6942 0.0232 0.0735
C6_6 C 0.6145(7) 0.0470(5) 0.2062(6)
H2_6 H 0.6771 0.1001 0.2430
N1_6 N 0.2452(4) 0.7395(3) 0.0456(3)
N7_6 N 0.2313(4) 0.8341(3) 0.2647(3)
N8_6 N 0.1733(6) 0.8644(4) 0.3353(4)
N9_6 N 0.2347(6) 0.9648(4) 0.3669(5)
C1_6 C 0.3508(4) 0.8033(3) 0.0271(4)
C2_6 C 0.4383(5) 0.8874(3) 0.0983(4)
C3_6 C 0.4302(5) 0.9389(3) 0.1989(4)
C4_6 C 0.3304(5) 0.9221(3) 0.2580(4)
C5_6 C 0.6254(7) 0.9996(5) 0.1046(6)
N2_6 N 0.2057(5) 0.6788(3) 0.9478(4)
N3_6 N 0.2840(5) 0.7065(3) 0.8741(3)
H1_6 H 0.0232 0.3290 0.9068
loop_
_geom_bond_atom_site_label_1
_geom_bond_atom_site_label_2
_geom_bond_site_symmetry_1
_geom_bond_site_symmetry_2
C6 N6 1_555 1_555
H2 C6 1_555 1_555
Zn3 N10 1_555 1_555
N7 Zn1 1_555 1_555
N8 N7 1_555 1_555
N9 N8 1_555 1_555
C4 N7 1_555 1_555
N11 Zn1 1_555 1_555
N12 Zn1 1_555 1_555
C3 C4 1_555 1_555
N1 N2 1_555 1_555
N2 N3 1_555 1_555
N3 N4 1_555 1_555
N4 C1 1_555 1_555
N5 C2 1_555 1_555
C1 N1 1_555 1_555
C2 C1 1_555 1_555
C5 N5 1_555 1_555
Zn2 N4 1_555 1_555
N5 Zn2 1_555 1_555
Zn1_2 N1_2 1_555 1_555
N1_2 N2_2 1_555 1_555
N2_2 N3_2 1_555 1_555
N3_2 N11 1_555 1_555
N11 C1_2 1_555 1_555
N12 C2_2 1_555 1_555
N6_2 C3_2 1_555 1_555
N7_2 Zn1_2 1_555 1_555
N8_2 N7_2 1_555 1_555
N9_2 N8_2 1_555 1_555
N10_2 N9_2 1_555 1_555
C1_2 N1_2 1_555 1_555
C2_2 C1_2 1_555 1_555
C3_2 C2_2 1_555 1_555
C4_2 N7_2 1_555 1_555
C5_2 N12 1_555 1_555
H1 C5_2 1_555 1_555
C6_2 N6_2 1_555 1_555
H2_2 C6_2 1_555 1_555
Zn3_2 N10_2 1_555 1_555
N11_2 Zn1_2 1_555 1_555
N12_2 Zn1_2 1_555 1_555
N13_2 Zn1_2 1_555 1_555
N10_2 C4_2 1_555 1_555
C3_2 C4_2 1_555 1_555
C5_2 C6_2 1_555 1_555
Zn2 N1_3 1_555 1_555
N1_3 N2_3 1_555 1_555
N2_3 N3_3 1_555 1_555
N3_3 N11_2 1_555 1_555
N11_2 C1_3 1_555 1_555
N12_2 C2_3 1_555 1_555
N7_3 Zn2 1_555 1_555
N8_3 N7_3 1_555 1_555
N9_3 N8_3 1_555 1_555
C1_3 N1_3 1_555 1_555
C2_3 C1_3 1_555 1_555
C3_3 C2_3 1_555 1_555
C4_3 N7_3 1_555 1_555
C5_3 N12_2 1_555 1_555
N13_3 Zn2 1_555 1_555
C3_3 C4_3 1_555 1_555
C6_3 N6_3 1_555 1_555
H2_3 C6_3 1_555 1_555
Zn3_3 N10_3 1_555 1_555
Zn3_2 N1_4 1_555 1_555
N1_4 N2_4 1_555 1_555
N2_4 N3_4 1_555 1_555
N3_4 N4_2 1_555 1_555
N4_2 C1_4 1_555 1_555
N5_2 C2_4 1_555 1_555
N7_4 Zn3_2 1_555 1_555
N8_4 N7_4 1_555 1_555
N9_4 N8_4 1_555 1_555
C1_4 N1_4 1_555 1_555
C2_4 C1_4 1_555 1_555
C3_4 C2_4 1_555 1_555
C4_4 N7_4 1_555 1_555
C5_4 N5_2 1_555 1_555
Zn3 N4_2 1_555 1_555
N11_3 Zn3_2 1_555 1_555
N12_3 Zn3_2 1_555 1_555
N5_2 Zn3 1_555 1_555
C3_4 C4_4 1_555 1_555
C6_4 N6_4 1_555 1_555
H2_4 C6_4 1_555 1_555
N9_5 N8_5 1_555 1_555
Zn3_3 N1_5 1_555 1_555
N1_5 N2_5 1_555 1_555
N2_5 N3_5 1_555 1_555
N3_5 N11_3 1_555 1_555
N11_3 C1_5 1_555 1_555
N12_3 C2_5 1_555 1_555
N6_5 C3_5 1_555 1_555
N7_5 Zn3_3 1_555 1_555
C1_5 N1_5 1_555 1_555
C2_5 C1_5 1_555 1_555
C3_5 C2_5 1_555 1_555
C4_5 N7_5 1_555 1_555
C5_5 N12_3 1_555 1_555
H1_4 C5_5 1_555 1_555
C6_5 N6_5 1_555 1_555
H2_5 C6_5 1_555 1_555
N11_4 Zn3_3 1_555 1_555
N13 C4_5 1_555 1_555
C3_5 C4_5 1_555 1_555
C5_5 C6_5 1_555 1_555
C6_6 N6_6 1_555 1_555
H2_6 C6_6 1_555 1_555
Zn3 N1_6 1_555 1_555
N12_4 C2_6 1_555 1_555
N7_6 Zn3 1_555 1_555
N8_6 N7_6 1_555 1_555
N9_6 N8_6 1_555 1_555
C1_6 N1_6 1_555 1_555
C2_6 C1_6 1_555 1_555
C3_6 C2_6 1_555 1_555
C4_6 N7_6 1_555 1_555
C5_6 N12_4 1_555 1_555
C3_6 C4_6 1_555 1_555
N2_6 N3_6 1_555 1_555
N3_6 N11_4 1_555 1_555

#END
