
###############################################################################
#
# This file contains modified crystal structure data generated from the
# MOF subset of the Cambridge Structural Database (CSD) v543 
# hosted by the Cambridge Crystallographic Data Centre (CCDC).
#
# This work is licensed under the Creative Commons
# Attribution-NonCommercial-ShareAlike 4.0 International License.
# To view a copy of this license, visit
# http://creativecommons.org/licenses/by-nc-sa/4.0/
# or send a letter to
# Creative Commons, PO Box 1866, Mountain View, CA 94042, USA.
#
# CIF created using the CSD Python API on 29 September 2022
# The structure has been converted into the P1 space group
# The structure has a 3D framework
# The original CSD entry BIYVOX is in the monoclinic crystal system
# The framework has been calculated to contain at least 10.0% void space
# The void calculation uses a probe of radius 1.32A, grid spacing 0.4
#
###############################################################################

data_BIYVOX
_chemical_formula_moiety         '(C224 H180 Co8 N32 O40)n'
_symmetry_cell_setting           triclinic
_symmetry_space_group_name_H-M   'P 1'
_symmetry_Int_Tables_number      1
_space_group_name_Hall           'P 1'
loop_
_symmetry_equiv_pos_site_id
_symmetry_equiv_pos_as_xyz
1 x,y,z
_cell_length_a                   16.103(5)
_cell_length_b                   25.102(5)
_cell_length_c                   16.623(5)
_cell_angle_alpha                90
_cell_angle_beta                 102.490(5)
_cell_angle_gamma                90
_cell_volume                     6560.29
loop_
_atom_site_label
_atom_site_type_symbol
_atom_site_fract_x
_atom_site_fract_y
_atom_site_fract_z
Co2 Co 0.29502(3) 0.12215(2) 0.49041(3)
O2 O 0.56431(17) 0.11125(11) 0.11540(17)
O4 O 0.47964(16) 0.18024(11) 0.45679(16)
O5 O 0.28317(16) 0.12698(12) 0.69001(17)
O8 O 0.87592(15) 0.24900(11) 0.05541(16)
O9 O 0.38152(16) 0.11627(11) 0.41657(16)
O10 O 0.20459(16) 0.12018(11) 0.56154(17)
C1 C 0.4773(2) 0.13567(15) 0.3314(2)
C2 C 0.5497(2) 0.16266(16) 0.3202(2)
H1 H 0.5778 0.1859 0.3607
N6 N 0.30602(19) 0.03634(13) 0.5125(2)
C4 C 0.6515(2) 0.23271(17) 0.0435(2)
H2 H 0.6329 0.2663 0.0240
C5 C 0.6228(2) 0.14794(18) 0.0950(2)
C7 C 0.7362(2) 0.21866(16) 0.0493(2)
C10 C 0.1390(2) 0.09781(16) 0.6707(3)
C11 C 0.7056(3) 0.13223(17) 0.1004(3)
H3 H 0.7229 0.0981 0.1182
C13 C 0.7633(3) 0.16783(18) 0.0788(2)
H4 H 0.8199 0.1579 0.0840
C14 C 0.4368(2) 0.10099(16) 0.2706(2)
H5 H 0.3888 0.0825 0.2777
C18 C 0.5384(2) 0.12064(16) 0.1887(2)
C20 C 0.5804(2) 0.15498(16) 0.2483(2)
H9 H 0.6287 0.1729 0.2410
C21 C 0.2160(2) 0.11710(16) 0.6393(3)
C30 C 0.1423(3) 0.09124(18) 0.7547(3)
H15 H 0.1916 0.1000 0.7929
C32 C 0.0644(2) 0.08433(17) 0.6149(3)
H16 H 0.0611 0.0894 0.5589
C33 C 0.7977(2) 0.25787(17) 0.0267(2)
C36 C 0.4668(2) 0.09343(16) 0.1989(2)
H18 H 0.4390 0.0703 0.1583
C37 C 0.4439(2) 0.14471(16) 0.4081(2)
C41 C 0.3816(2) 0.01108(17) 0.5179(2)
H21 H 0.4282 0.0307 0.5103
C43 C 0.5946(2) 0.19767(17) 0.0661(3)
H23 H 0.5381 0.2074 0.0619
C44 C 0.2408(2) 0.00719(17) 0.5248(2)
H24 H 0.1891 0.0243 0.5220
C52 C 0.0725(3) 0.07176(18) 0.7811(3)
H32 H 0.0744 0.0680 0.8372
Co3 Co 0.48128(3) 0.20351(2) 0.57688(3)
Co5 Co 0.98128(3) 0.29649(2) 0.07688(3)
O12 O 0.39825(18) 0.13573(11) 0.59652(17)
O14 O 0.26753(16) 0.20363(11) 0.48168(16)
N9 N 0.19571(19) 0.11663(13) 0.3803(2)
N5 N 0.05517(19) 0.22859(13) 0.0515(2)
C12 C 0.1771(2) 0.18944(17) 0.0117(2)
C15 C 0.0569(3) 0.13550(18) 0.0194(3)
H6 H 0.0294 0.1027 0.0142
C24 C 0.1370(2) 0.14021(18) 0.0042(3)
C35 C 0.1331(2) 0.23255(17) 0.0352(2)
H17 H 0.1591 0.2658 0.0399
C47 C 0.0179(3) 0.18015(17) 0.0424(3)
C56 C 0.3235(3) 0.1496(2) 0.0087(4)
H42 H 0.3014 0.1227 0.0394
H44 H 0.3766 0.1625 0.0406
O1 O 0.93246(16) 0.03445(12) 0.75406(18)
O7 O 0.53558(16) 0.07912(11) 0.63065(18)
N1 N 0.3511(2) 0.23904(13) 0.9251(2)
O11 O 0.58924(16) 0.15986(11) 0.61413(17)
C3 C 0.4238(2) 0.24479(16) 0.8165(2)
N3 N 0.2723(2) 0.23668(14) 0.9501(2)
C8 C 0.8517(2) 0.05386(17) 0.7206(3)
C9 C 0.6852(2) 0.09032(17) 0.6640(2)
N8 N 0.4934(2) 0.22759(13) 0.7045(2)
C16 C 0.5012(2) 0.25880(17) 0.8657(3)
H7 H 0.5041 0.2695 0.9198
C17 C 0.7541(2) 0.12514(17) 0.6739(3)
H8 H 0.7447 0.1610 0.6610
C22 C 0.3436(2) 0.24284(16) 0.8468(3)
H11 H 0.1644 0.1105 0.9889
C26 C 0.8365(2) 0.10698(17) 0.7028(3)
H12 H 0.8818 0.1308 0.7101
C27 C 0.9993(3) 0.05787(17) 0.7240(3)
C28 C 0.5744(3) 0.25703(17) 0.8349(3)
H13 H 0.6268 0.2664 0.8677
C29 C 0.7013(3) 0.03710(18) 0.6817(3)
H14 H 0.6561 0.0133 0.6745
C31 C 0.2609(3) 0.19515(17) 0.9900(3)
C34 C 0.5960(2) 0.11092(18) 0.6340(2)
C45 C 0.4227(2) 0.22983(16) 0.7356(3)
H25 H 0.3709 0.2210 0.7014
C46 C 0.9949(2) 0.06354(18) 0.6410(3)
H26 H 0.9461 0.0536 0.6029
C50 C 0.5678(2) 0.24086(16) 0.7538(2)
H30 H 0.6169 0.2392 0.7329
C51 C 0.7839(2) 0.01807(17) 0.7103(3)
C53 C 0.2603(2) 0.24300(18) 0.7855(3)
H33 H 0.2703 0.2462 0.7309
H34 H 0.2306 0.2103 0.7900
H35 H 0.2265 0.2725 0.7965
H43 H 0.3323 0.1346 0.9581
H45 H 0.451(4) 0.114(2) 0.612(4)
H46 H 0.361(4) 0.134(3) 0.636(4)
O15 O 0.37592(15) 0.25100(11) 0.55541(16)
N10 N 0.55517(19) 0.27141(13) 0.5515(2)
H27 H 0.9634 0.1767 0.0521
Co6 Co 0.20498(3) 0.62215(2) 0.00959(3)
O13 O 0.02036(16) 0.68024(11) 0.04321(16)
O9_2 O 0.11848(16) 0.61627(11) 0.08343(16)
C1_2 C 0.0227(2) 0.63567(15) 0.1686(2)
C14_2 C 0.0632(2) 0.60099(16) 0.2294(2)
H5_2 H 0.1112 0.5825 0.2223
C36_2 C 0.0332(2) 0.59343(16) 0.3011(2)
H18_2 H 0.0610 0.5703 0.3417
C37_2 C 0.0561(2) 0.64471(16) 0.0919(2)
H41 H 0.3919 0.3597 0.0005
O14_2 O 0.23247(16) 0.70363(11) 0.01832(16)
N9_2 N 0.30429(19) 0.61663(13) 0.1197(2)
C19 C 0.0489(2) 0.09772(16) 0.3149(3)
C23 C 0.1458(3) 0.13294(18) 0.2366(3)
H10 H 0.1572 0.1448 0.1871
C38 C 0.0644(3) 0.11449(17) 0.2395(3)
H19 H 0.0214 0.1134 0.1920
C48 C 0.1177(2) 0.09983(16) 0.3828(3)
H28 H 0.1083 0.0887 0.4335
C49 C 0.2082(3) 0.13353(17) 0.3068(3)
H29 H 0.2618 0.1461 0.3037
H31 H 0.2064 0.0179 0.2778
O2_2 O 0.06431(17) 0.38875(11) 0.61540(17)
C2_2 C 0.0497(2) 0.33734(16) 0.8202(2)
H1_2 H 0.0778 0.3141 0.8607
C4_2 C 0.1515(2) 0.26729(17) 0.5435(2)
H2_2 H 0.1329 0.2337 0.5240
C5_2 C 0.1228(2) 0.35206(18) 0.5950(2)
C7_2 C 0.2362(2) 0.28134(16) 0.5493(2)
C11_2 C 0.2056(3) 0.36777(17) 0.6004(3)
H3_2 H 0.2229 0.4019 0.6182
C13_2 C 0.2633(3) 0.33217(18) 0.5788(2)
H4_2 H 0.3199 0.3421 0.5840
C18_2 C 0.0384(2) 0.37936(16) 0.6887(2)
C20_2 C 0.0804(2) 0.34502(16) 0.7483(2)
H9_2 H 0.1287 0.3271 0.7410
C33_2 C 0.2977(2) 0.24213(17) 0.5267(2)
C43_2 C 0.0946(2) 0.30233(17) 0.5661(3)
H23_2 H 0.0381 0.2926 0.5619
O1_2 O 0.43246(16) 0.46555(12) 0.25406(18)
O5_2 O 0.78317(16) 0.37302(12) 0.19001(17)
O7_2 O 0.03558(16) 0.42088(11) 0.13065(18)
O10_2 O 0.70459(16) 0.37982(11) 0.06154(17)
O11_2 O 0.08924(16) 0.34014(11) 0.11413(17)
N4 N 0.5441(2) 0.57219(14) 0.1001(2)
N6_2 N 0.80602(19) 0.46366(13) 0.0125(2)
N7 N 0.6190(2) 0.54822(14) 0.0891(2)
C6 C 0.7448(2) 0.54727(17) 0.0416(3)
C8_2 C 0.3517(2) 0.44614(17) 0.2206(3)
C9_2 C 0.1852(2) 0.40968(17) 0.1640(2)
C10_2 C 0.6390(2) 0.40219(16) 0.1707(3)
C16_2 C 0.0012(2) 0.24120(17) 0.3657(3)
H7_2 H 0.0041 0.2305 0.4198
C17_2 C 0.2541(2) 0.37486(17) 0.1739(3)
H8_2 H 0.2447 0.3390 0.1610
C19_2 C 0.4511(2) 0.59772(16) 0.1851(3)
C21_2 C 0.7160(2) 0.38290(16) 0.1393(3)
C23_2 C 0.3542(3) 0.63294(18) 0.2634(3)
H10_2 H 0.3428 0.6448 0.3129
C25 C 0.5346(2) 0.57798(17) 0.1739(3)
C26_2 C 0.3365(2) 0.39302(17) 0.2028(3)
H12_2 H 0.3818 0.3692 0.2101
C27_2 C 0.4993(3) 0.44213(17) 0.2240(3)
C28_2 C 0.0744(3) 0.24297(17) 0.3349(3)
H13_2 H 0.1268 0.2336 0.3677
C29_2 C 0.2013(3) 0.46290(18) 0.1817(3)
H14_2 H 0.1561 0.4867 0.1745
C30_2 C 0.6423(3) 0.40876(18) 0.2547(3)
H15_2 H 0.6916 0.4000 0.2929
C32_2 C 0.5644(2) 0.41567(17) 0.1149(3)
H16_2 H 0.5611 0.4106 0.0589
C34_2 C 0.0960(2) 0.38908(18) 0.1340(2)
C38_2 C 0.4356(3) 0.61449(17) 0.2605(3)
H19_2 H 0.4786 0.6134 0.3080
C39 C 0.6701(3) 0.57607(17) 0.0574(3)
C40 C 0.8915(3) 0.54258(17) 0.0343(3)
H20 H 0.9444 0.5585 0.0384
C41_2 C 0.8816(2) 0.48892(17) 0.0179(2)
H21_2 H 0.9282 0.4693 0.0103
C42 C 0.8236(2) 0.57231(17) 0.0446(3)
H22 H 0.8294 0.6088 0.0535
C44_2 C 0.7408(2) 0.49281(17) 0.0248(2)
H24_2 H 0.6891 0.4757 0.0220
C46_2 C 0.4949(2) 0.43646(18) 0.1410(3)
H26_2 H 0.4461 0.4464 0.1029
C48_2 C 0.3823(2) 0.59983(16) 0.1172(3)
H28_2 H 0.3917 0.5887 0.0665
C49_2 C 0.2918(3) 0.63353(17) 0.1932(3)
H29_2 H 0.2382 0.6461 0.1963
C50_2 C 0.0678(2) 0.25914(16) 0.2538(2)
H30_2 H 0.1169 0.2608 0.2329
C51_2 C 0.2839(2) 0.48193(17) 0.2103(3)
H31_2 H 0.2936 0.5179 0.2222
C52_2 C 0.5725(3) 0.42824(18) 0.2811(3)
H32_2 H 0.5744 0.4320 0.3372
C54 C 0.6042(3) 0.5677(2) 0.2498(3)
H36 H 0.5827 0.5746 0.2983
H37 H 0.6516 0.5908 0.2490
H38 H 0.6222 0.5313 0.2500
C55 C 0.6608(3) 0.63413(19) 0.0382(3)
H39 H 0.7072 0.6458 0.0148
H40 H 0.6610 0.6537 0.0879
O12_2 O 0.89825(18) 0.36427(11) 0.09652(17)
N1_2 N 0.8511(2) 0.26096(13) 0.4251(2)
C3_2 C 0.9238(2) 0.25521(16) 0.3165(2)
N3_2 N 0.7723(2) 0.26332(14) 0.4501(2)
N8_2 N 0.9934(2) 0.27241(13) 0.2045(2)
C12_2 C 0.6771(2) 0.31056(17) 0.5117(2)
C15_2 C 0.5569(3) 0.36450(18) 0.5194(3)
H6_2 H 0.5294 0.3973 0.5142
C22_2 C 0.8436(2) 0.25716(16) 0.3468(3)
C24_2 C 0.6370(2) 0.35979(18) 0.5042(3)
H11_2 H 0.6644 0.3895 0.4889
C31_2 C 0.7609(3) 0.30485(17) 0.4900(3)
C35_2 C 0.6331(2) 0.26745(17) 0.5352(2)
H17_2 H 0.6591 0.2342 0.5399
C45_2 C 0.9227(2) 0.27017(16) 0.2356(3)
H25_2 H 0.8709 0.2790 0.2014
C47_2 C 0.5179(3) 0.31985(17) 0.5424(3)
H27_2 H 0.4634 0.3233 0.5521
C53_2 C 0.7603(2) 0.25700(18) 0.2855(3)
H33_2 H 0.7703 0.2538 0.2309
H34_2 H 0.7306 0.2897 0.2900
H35_2 H 0.7265 0.2275 0.2965
C56_2 C 0.8235(3) 0.3504(2) 0.5087(4)
H42_2 H 0.8014 0.3773 0.5394
H43_2 H 0.8323 0.3654 0.4581
H44_2 H 0.8766 0.3375 0.5406
H45_2 H 0.951(4) 0.386(2) 0.112(4)
H46_2 H 0.861(4) 0.366(3) 0.136(4)
O6 O 0.76753(16) 0.29637(11) 0.98168(16)
Co8 Co 0.79502(3) 0.37785(2) 0.99041(3)
N2 N 0.80429(19) 0.88337(13) 0.6197(2)
C19_3 C 0.9511(2) 0.90228(16) 0.6851(3)
C23_3 C 0.8542(3) 0.86706(18) 0.7634(3)
H10_3 H 0.8428 0.8552 0.8129
C38_3 C 0.9356(3) 0.88551(17) 0.7605(3)
H19_3 H 0.9786 0.8866 0.8080
C48_3 C 0.8823(2) 0.90017(16) 0.6172(3)
H28_3 H 0.8917 0.9113 0.5665
C49_3 C 0.7918(3) 0.86647(17) 0.6932(3)
H29_3 H 0.7382 0.8539 0.6963
H31_3 H 0.7936 0.9821 0.7222
Co7 Co 0.70498(3) 0.87785(2) 0.50959(3)
Co1 Co 0.01872(3) 0.70351(2) 0.92312(3)
O3 O 0.10175(18) 0.63573(11) 0.90348(17)
N1_3 N 0.1489(2) 0.73904(13) 0.5749(2)
C3_3 C 0.0762(2) 0.74479(16) 0.6835(2)
N3_3 N 0.2277(2) 0.73668(14) 0.5499(2)
N5_2 N 0.44483(19) 0.72859(13) 0.4485(2)
N8_3 N 0.0066(2) 0.72759(13) 0.7955(2)
C12_3 C 0.3229(2) 0.68944(17) 0.4883(2)
C15_3 C 0.4431(3) 0.63550(18) 0.4806(3)
H6_3 H 0.4706 0.6027 0.4858
C22_3 C 0.1564(2) 0.74284(16) 0.6532(3)
C24_3 C 0.3630(2) 0.64021(18) 0.4958(3)
H11_3 H 0.3356 0.6105 0.5111
C31_3 C 0.2391(3) 0.69515(17) 0.5100(3)
C35_3 C 0.3669(2) 0.73255(17) 0.4648(2)
H17_3 H 0.3409 0.7658 0.4601
C45_3 C 0.0773(2) 0.72983(16) 0.7644(3)
H25_3 H 0.1291 0.7210 0.7986
C47_3 C 0.4821(3) 0.68015(17) 0.4576(3)
H27_3 H 0.5366 0.6767 0.4479
C53_3 C 0.2397(2) 0.74300(18) 0.7145(3)
H33_3 H 0.2297 0.7462 0.7691
H34_3 H 0.2694 0.7103 0.7100
H35_3 H 0.2735 0.7725 0.7035
C56_3 C 0.1765(3) 0.6496(2) 0.4913(4)
H42_3 H 0.1986 0.6227 0.4606
H43_3 H 0.1677 0.6346 0.5419
H44_3 H 0.1234 0.6625 0.4594
H45_3 H 0.049(4) 0.614(2) 0.888(4)
H46_3 H 0.139(4) 0.634(3) 0.864(4)
Co4 Co 0.51872(3) 0.79649(2) 0.42312(3)
O15_2 O 0.12408(15) 0.75100(11) 0.94459(16)
O1_3 O 0.56754(16) 0.53445(12) 0.74594(18)
O5_3 O 0.21683(16) 0.62698(12) 0.80999(17)
O7_3 O 0.96442(16) 0.57912(11) 0.86935(18)
O10_3 O 0.29541(16) 0.62018(11) 0.93846(17)
O11_3 O 0.91076(16) 0.65986(11) 0.88587(17)
N2_2 N 0.69571(19) 0.38337(13) 0.8803(2)
N4_2 N 0.4559(2) 0.42781(14) 0.8999(2)
N6_3 N 0.19398(19) 0.53634(13) 0.9875(2)
N7_2 N 0.3810(2) 0.45178(14) 0.9109(2)
C6_2 C 0.2552(2) 0.45273(17) 0.9584(3)
C8_3 C 0.6483(2) 0.55386(17) 0.7794(3)
C9_3 C 0.8148(2) 0.59032(17) 0.8360(2)
C10_3 C 0.3610(2) 0.59781(16) 0.8293(3)
C16_3 C 0.9988(2) 0.75880(17) 0.6343(3)
H7_3 H 0.9959 0.7695 0.5802
C17_3 C 0.7459(2) 0.62514(17) 0.8261(3)
H8_3 H 0.7553 0.6610 0.8390
C19_4 C 0.5489(2) 0.40228(16) 0.8149(3)
C21_3 C 0.2840(2) 0.61710(16) 0.8607(3)
C23_4 C 0.6458(3) 0.36706(18) 0.7366(3)
H10_4 H 0.6572 0.3552 0.6871
C25_2 C 0.4654(2) 0.42202(17) 0.8261(3)
C26_3 C 0.6635(2) 0.60698(17) 0.7972(3)
H12_3 H 0.6182 0.6308 0.7899
C27_3 C 0.5007(3) 0.55787(17) 0.7760(3)
C28_3 C 0.9256(3) 0.75703(17) 0.6651(3)
H13_3 H 0.8732 0.7664 0.6323
C29_3 C 0.7987(3) 0.53710(18) 0.8183(3)
H14_3 H 0.8439 0.5133 0.8255
C30_3 C 0.3577(3) 0.59124(18) 0.7453(3)
H15_3 H 0.3084 0.6000 0.7071
C32_3 C 0.4356(2) 0.58433(17) 0.8851(3)
H16_3 H 0.4389 0.5894 0.9411
C34_3 C 0.9040(2) 0.61092(18) 0.8660(2)
C38_4 C 0.5644(3) 0.38551(17) 0.7395(3)
H19_4 H 0.5214 0.3866 0.6920
C39_2 C 0.3299(3) 0.42393(17) 0.9426(3)
C40_2 C 0.1085(3) 0.45742(17) 0.9657(3)
H20_2 H 0.0556 0.4415 0.9616
C41_3 C 0.1184(2) 0.51108(17) 0.9821(2)
H21_3 H 0.0718 0.5307 0.9897
C42_2 C 0.1764(2) 0.42769(17) 0.9554(3)
H22_2 H 0.1706 0.3912 0.9465
C44_3 C 0.2592(2) 0.50719(17) 0.9752(2)
H24_3 H 0.3109 0.5243 0.9780
C46_3 C 0.5051(2) 0.56354(18) 0.8590(3)
H26_3 H 0.5539 0.5536 0.8971
C48_4 C 0.6177(2) 0.40017(16) 0.8828(3)
H28_4 H 0.6083 0.4113 0.9335
C49_4 C 0.7082(3) 0.36647(17) 0.8068(3)
H29_4 H 0.7618 0.3539 0.8037
C50_3 C 0.9322(2) 0.74086(16) 0.7462(2)
H30_3 H 0.8831 0.7392 0.7671
C51_3 C 0.7161(2) 0.51807(17) 0.7897(3)
H31_4 H 0.7064 0.4821 0.7778
C52_3 C 0.4275(3) 0.57176(18) 0.7189(3)
H32_3 H 0.4256 0.5680 0.6628
C54_2 C 0.3958(3) 0.4323(2) 0.7502(3)
H36_2 H 0.4173 0.4254 0.7017
H37_2 H 0.3484 0.4092 0.7510
H38_2 H 0.3778 0.4687 0.7500
C55_2 C 0.3392(3) 0.36587(19) 0.9618(3)
H39_2 H 0.2928 0.3542 0.9852
H40_2 H 0.3390 0.3463 0.9121
N10_2 N 0.94483(19) 0.77141(13) 0.9485(2)
O2_3 O 0.93569(17) 0.61125(11) 0.38460(17)
O6_2 O 0.73247(16) 0.79637(11) 0.51832(16)
O8_2 O 0.62408(15) 0.74900(11) 0.44459(16)
C2_3 C 0.9503(2) 0.66266(16) 0.1798(2)
H1_3 H 0.9222 0.6859 0.1393
C4_3 C 0.8485(2) 0.73271(17) 0.4565(2)
H2_3 H 0.8671 0.7663 0.4760
C5_3 C 0.8772(2) 0.64794(18) 0.4050(2)
C7_3 C 0.7638(2) 0.71866(16) 0.4507(2)
C11_3 C 0.7944(3) 0.63223(17) 0.3996(3)
H3_3 H 0.7771 0.5981 0.3818
C13_3 C 0.7367(3) 0.66783(18) 0.4212(2)
H4_3 H 0.6801 0.6579 0.4160
C18_3 C 0.9616(2) 0.62064(16) 0.3113(2)
C20_3 C 0.9196(2) 0.65498(16) 0.2517(2)
H9_3 H 0.8713 0.6729 0.2590
C33_3 C 0.7023(2) 0.75787(17) 0.4733(2)
C43_3 C 0.9054(2) 0.69767(17) 0.4339(3)
H23_3 H 0.9619 0.7074 0.4381
H27_4 H 0.0366 0.8233 0.9479
O1_4 O 0.06754(16) 0.96555(12) 0.24594(18)
O3_2 O 0.60175(18) 0.86427(11) 0.40348(17)
O7_4 O 0.46442(16) 0.92088(11) 0.36935(18)
N1_4 N 0.6489(2) 0.76096(13) 0.0749(2)
O11_4 O 0.41076(16) 0.84014(11) 0.38587(17)
C3_4 C 0.5762(2) 0.75521(16) 0.1835(2)
N3_4 N 0.7277(2) 0.76332(14) 0.0499(2)
C8_4 C 0.1483(2) 0.94614(17) 0.2794(3)
C9_4 C 0.3148(2) 0.90968(17) 0.3360(2)
N8_4 N 0.5066(2) 0.77241(13) 0.2955(2)
C16_4 C 0.4988(2) 0.74120(17) 0.1343(3)
H7_4 H 0.4959 0.7305 0.0802
C17_4 C 0.2459(2) 0.87486(17) 0.3261(3)
H8_4 H 0.2553 0.8390 0.3390
C22_4 C 0.6564(2) 0.75716(16) 0.1532(3)
H11_4 H 0.8356 0.8895 0.0111
C26_4 C 0.1635(2) 0.89302(17) 0.2972(3)
H12_4 H 0.1182 0.8692 0.2899
C27_4 C 0.0007(3) 0.94213(17) 0.2760(3)
C28_4 C 0.4256(3) 0.74297(17) 0.1651(3)
H13_4 H 0.3732 0.7336 0.1323
C29_4 C 0.2987(3) 0.96290(18) 0.3183(3)
H14_4 H 0.3439 0.9867 0.3255
C31_4 C 0.7391(3) 0.80485(17) 0.0100(3)
C34_4 C 0.4040(2) 0.88908(18) 0.3660(2)
C45_4 C 0.5773(2) 0.77017(16) 0.2644(3)
H25_4 H 0.6291 0.7790 0.2986
C46_4 C 0.0051(2) 0.93646(18) 0.3590(3)
H26_4 H 0.0539 0.9464 0.3971
C50_4 C 0.4322(2) 0.75914(16) 0.2462(2)
H30_4 H 0.3831 0.7608 0.2671
C51_4 C 0.2161(2) 0.98193(17) 0.2897(3)
C53_4 C 0.7397(2) 0.75700(18) 0.2145(3)
H33_4 H 0.7297 0.7538 0.2691
H34_4 H 0.7694 0.7897 0.2100
H35_4 H 0.7735 0.7275 0.2035
H43_4 H 0.6677 0.8654 0.0419
H45_4 H 0.549(4) 0.886(2) 0.388(4)
H46_4 H 0.639(4) 0.866(3) 0.364(4)
O13_2 O 0.52036(16) 0.81976(11) 0.54321(16)
C12_4 C 0.8229(2) 0.81056(17) 0.9883(2)
C15_4 C 0.9431(3) 0.86450(18) 0.9806(3)
H6_4 H 0.9706 0.8973 0.9858
C24_4 C 0.8630(2) 0.85979(18) 0.9958(3)
C35_4 C 0.8669(2) 0.76745(17) 0.9648(2)
H17_4 H 0.8409 0.7342 0.9601
C47_4 C 0.9821(3) 0.81985(17) 0.9576(3)
C56_4 C 0.6765(3) 0.8504(2) 0.9913(4)
H42_4 H 0.6986 0.8773 0.9606
H44_4 H 0.6234 0.8375 0.9594
O2_4 O 0.43569(17) 0.88875(11) 0.88460(17)
O5_4 O 0.71683(16) 0.87302(12) 0.30999(17)
O9_3 O 0.61848(16) 0.88373(11) 0.58343(16)
O10_4 O 0.79541(16) 0.87982(11) 0.43846(17)
C1_3 C 0.5227(2) 0.86433(15) 0.6686(2)
C2_4 C 0.4503(2) 0.83734(16) 0.6798(2)
H1_4 H 0.4222 0.8141 0.6393
N6_4 N 0.69398(19) 0.96366(13) 0.4875(2)
C4_4 C 0.3485(2) 0.76729(17) 0.9565(2)
H2_4 H 0.3671 0.7337 0.9760
C5_4 C 0.3772(2) 0.85206(18) 0.9050(2)
C7_4 C 0.2638(2) 0.78134(16) 0.9507(2)
C10_4 C 0.8610(2) 0.90219(16) 0.3293(3)
C11_4 C 0.2944(3) 0.86777(17) 0.8996(3)
H3_4 H 0.2771 0.9019 0.8818
C13_4 C 0.2367(3) 0.83217(18) 0.9212(2)
H4_4 H 0.1801 0.8421 0.9160
C14_3 C 0.5632(2) 0.89901(16) 0.7294(2)
H5_3 H 0.6112 0.9175 0.7223
C18_4 C 0.4616(2) 0.87936(16) 0.8113(2)
C20_4 C 0.4196(2) 0.84502(16) 0.7517(2)
H9_4 H 0.3713 0.8271 0.7590
C21_4 C 0.7840(2) 0.88290(16) 0.3607(3)
C30_4 C 0.8577(3) 0.90876(18) 0.2453(3)
H15_4 H 0.8084 0.9000 0.2071
C32_4 C 0.9356(2) 0.91567(17) 0.3851(3)
H16_4 H 0.9389 0.9106 0.4411
C33_4 C 0.2023(2) 0.74213(17) 0.9733(2)
C36_3 C 0.5332(2) 0.90657(16) 0.8011(2)
H18_3 H 0.5610 0.9297 0.8417
C37_3 C 0.5561(2) 0.85529(16) 0.5919(2)
C41_4 C 0.6184(2) 0.98892(17) 0.4821(2)
H21_4 H 0.5718 0.9693 0.4897
C43_4 C 0.4054(2) 0.80233(17) 0.9339(3)
H23_4 H 0.4619 0.7926 0.9381
C44_4 C 0.7592(2) 0.99281(17) 0.4752(2)
H24_4 H 0.8109 0.9757 0.4780
C52_4 C 0.9275(3) 0.92824(18) 0.2189(3)
H32_4 H 0.9256 0.9320 0.1628
O4_2 O 0.97964(16) 0.31976(11) 0.95679(16)
O9_4 O 0.88152(16) 0.38373(11) 0.91657(16)
C1_4 C 0.9773(2) 0.36433(15) 0.8314(2)
C14_4 C 0.9368(2) 0.39901(16) 0.7706(2)
H5_4 H 0.8888 0.4175 0.7777
C36_4 C 0.9668(2) 0.40657(16) 0.6989(2)
H18_4 H 0.9390 0.4297 0.6583
C37_4 C 0.9439(2) 0.35529(16) 0.9081(2)
H41_2 H 0.6081 0.6403 0.9995
N4_3 N 0.0441(2) 0.92781(14) 0.6001(2)
N7_3 N 0.1190(2) 0.95178(14) 0.5891(2)
C6_3 C 0.2448(2) 0.95273(17) 0.5416(3)
C25_3 C 0.0346(2) 0.92202(17) 0.6739(3)
C39_3 C 0.1701(3) 0.92393(17) 0.5574(3)
C40_3 C 0.3915(3) 0.95742(17) 0.5343(3)
H20_3 H 0.4444 0.9415 0.5384
C42_3 C 0.3236(2) 0.92769(17) 0.5446(3)
H22_3 H 0.3294 0.8912 0.5535
C54_3 C 0.1042(3) 0.9323(2) 0.7498(3)
H36_3 H 0.0827 0.9254 0.7983
H37_3 H 0.1516 0.9092 0.7490
H38_3 H 0.1222 0.9687 0.7500
C55_3 C 0.1608(3) 0.86587(19) 0.5382(3)
H39_3 H 0.2072 0.8542 0.5148
H40_3 H 0.1610 0.8463 0.5879
H41_3 H 0.1081 0.8597 0.4995
N4_4 N 0.9559(2) 0.07219(14) 0.3999(2)
N7_4 N 0.8810(2) 0.04822(14) 0.4109(2)
C6_4 C 0.7552(2) 0.04727(17) 0.4584(3)
C25_4 C 0.9654(2) 0.07798(17) 0.3261(3)
C39_4 C 0.8299(3) 0.07607(17) 0.4426(3)
C40_4 C 0.6085(3) 0.04258(17) 0.4657(3)
H20_4 H 0.5556 0.0585 0.4616
C42_4 C 0.6764(2) 0.07231(17) 0.4554(3)
H22_4 H 0.6706 0.1088 0.4465
C54_4 C 0.8958(3) 0.0677(2) 0.2502(3)
H36_4 H 0.9173 0.0746 0.2017
H37_4 H 0.8484 0.0908 0.2510
H38_4 H 0.8778 0.0313 0.2500
C55_4 C 0.8392(3) 0.13413(19) 0.4618(3)
H39_4 H 0.7928 0.1458 0.4852
H40_4 H 0.8390 0.1537 0.4121
H41_4 H 0.8919 0.1403 0.5005
loop_
_geom_bond_atom_site_label_1
_geom_bond_atom_site_label_2
_geom_bond_site_symmetry_1
_geom_bond_site_symmetry_2
Co2 O9 1_555 1_555
O2 C5 1_555 1_555
O4 C37 1_555 1_555
O5 C21 1_555 1_555
O8 C33 1_555 1_555
O9 C37 1_555 1_555
O10 Co2 1_555 1_555
C1 C2 1_555 1_555
C2 H1 1_555 1_555
N6 Co2 1_555 1_555
C4 H2 1_555 1_555
C5 C11 1_555 1_555
C7 C4 1_555 1_555
C10 C21 1_555 1_555
C11 H3 1_555 1_555
C13 C7 1_555 1_555
H4 C13 1_555 1_555
C14 C1 1_555 1_555
H5 C14 1_555 1_555
C18 O2 1_555 1_555
C20 C2 1_555 1_555
H9 C20 1_555 1_555
C21 O10 1_555 1_555
C30 C10 1_555 1_555
H15 C30 1_555 1_555
C32 C10 1_555 1_555
H16 C32 1_555 1_555
C33 C7 1_555 1_555
C36 C14 1_555 1_555
H18 C36 1_555 1_555
C37 C1 1_555 1_555
C41 N6 1_555 1_555
H21 C41 1_555 1_555
C43 C4 1_555 1_555
H23 C43 1_555 1_555
C44 N6 1_555 1_555
H24 C44 1_555 1_555
H32 C52 1_555 1_555
Co3 O4 1_555 1_555
Co5 O8 1_555 1_555
O12 Co2 1_555 1_555
O14 Co2 1_555 1_555
N9 Co2 1_555 1_555
C5 C43 1_555 1_555
C11 C13 1_555 1_555
C18 C20 1_555 1_555
C18 C36 1_555 1_555
C30 C52 1_555 1_555
Co3 O12 1_555 1_555
N5 C35 1_555 1_555
C12 C24 1_555 1_555
C15 H6 1_555 1_555
C24 C15 1_555 1_555
C35 C12 1_555 1_555
H17 C35 1_555 1_555
C47 N5 1_555 1_555
H42 C56 1_555 1_555
H44 C56 1_555 1_555
C15 C47 1_555 1_555
O1 C8 1_555 1_555
O12 H45 1_555 1_555
O7 C34 1_555 1_555
N1 N3 1_555 1_555
O11 Co3 1_555 1_555
C3 C16 1_555 1_555
N3 C31 1_555 1_555
C8 C26 1_555 1_555
C9 C17 1_555 1_555
N8 Co3 1_555 1_555
C16 H7 1_555 1_555
C17 H8 1_555 1_555
C22 N1 1_555 1_555
C26 C17 1_555 1_555
H12 C26 1_555 1_555
C27 O1 1_555 1_555
C28 C16 1_555 1_555
H13 C28 1_555 1_555
C29 C9 1_555 1_555
H14 C29 1_555 1_555
C34 O11 1_555 1_555
C45 C3 1_555 1_555
H25 C45 1_555 1_555
C46 C27 1_555 1_555
H26 C46 1_555 1_555
C50 N8 1_555 1_555
H30 C50 1_555 1_555
C51 C8 1_555 1_555
C53 C22 1_555 1_555
H33 C53 1_555 1_555
H34 C53 1_555 1_555
H35 C53 1_555 1_555
H46 O12 1_555 1_555
O15 Co3 1_555 1_555
N10 Co3 1_555 1_555
C3 C22 1_555 1_555
C9 C34 1_555 1_555
N8 C45 1_555 1_555
C28 C50 1_555 1_555
C29 C51 1_555 1_555
Co6 O9_2 1_555 1_555
O13 C37_2 1_555 1_555
O9_2 C37_2 1_555 1_555
C14_2 C1_2 1_555 1_555
H5_2 C14_2 1_555 1_555
C36_2 C14_2 1_555 1_555
H18_2 C36_2 1_555 1_555
C37_2 C1_2 1_555 1_555
O14_2 Co6 1_555 1_555
N9_2 Co6 1_555 1_555
N9 C48 1_555 1_555
C23 H10 1_555 1_555
C38 C19 1_555 1_555
H19 C38 1_555 1_555
C48 C19 1_555 1_555
H28 C48 1_555 1_555
C49 N9 1_555 1_555
H29 C49 1_555 1_555
C23 C38 1_555 1_555
C23 C49 1_555 1_555
O2_2 C5_2 1_555 1_555
O14 C33_2 1_555 1_555
O15 C33_2 1_555 1_555
C2_2 H1_2 1_555 1_555
C4_2 H2_2 1_555 1_555
C5_2 C11_2 1_555 1_555
C7_2 C4_2 1_555 1_555
C11_2 H3_2 1_555 1_555
C13_2 C7_2 1_555 1_555
H4_2 C13_2 1_555 1_555
C18_2 O2_2 1_555 1_555
C20_2 C2_2 1_555 1_555
H9_2 C20_2 1_555 1_555
C33_2 C7_2 1_555 1_555
C43_2 C4_2 1_555 1_555
H23_2 C43_2 1_555 1_555
C5_2 C43_2 1_555 1_555
C11_2 C13_2 1_555 1_555
C18_2 C20_2 1_555 1_555
O1_2 C8_2 1_555 1_555
O5_2 C21_2 1_555 1_555
O7_2 C34_2 1_555 1_555
N9_2 C48_2 1_555 1_555
N4 N7 1_555 1_555
N7 C39 1_555 1_555
C6 C39 1_555 1_555
C8_2 C26_2 1_555 1_555
C9_2 C17_2 1_555 1_555
C10_2 C21_2 1_555 1_555
C16_2 H7_2 1_555 1_555
C17_2 H8_2 1_555 1_555
C19_2 C25 1_555 1_555
C21_2 O10_2 1_555 1_555
C23_2 H10_2 1_555 1_555
C25 N4 1_555 1_555
C26_2 C17_2 1_555 1_555
H12_2 C26_2 1_555 1_555
C27_2 O1_2 1_555 1_555
C28_2 C16_2 1_555 1_555
H13_2 C28_2 1_555 1_555
C29_2 C9_2 1_555 1_555
H14_2 C29_2 1_555 1_555
C30_2 C10_2 1_555 1_555
H15_2 C30_2 1_555 1_555
C32_2 C10_2 1_555 1_555
H16_2 C32_2 1_555 1_555
C34_2 O11_2 1_555 1_555
C38_2 C19_2 1_555 1_555
H19_2 C38_2 1_555 1_555
C39 C55 1_555 1_555
C40 H20 1_555 1_555
C41_2 N6_2 1_555 1_555
H21_2 C41_2 1_555 1_555
C42 C6 1_555 1_555
H22 C42 1_555 1_555
C44_2 N6_2 1_555 1_555
H24_2 C44_2 1_555 1_555
C46_2 C27_2 1_555 1_555
H26_2 C46_2 1_555 1_555
C48_2 C19_2 1_555 1_555
H28_2 C48_2 1_555 1_555
C49_2 N9_2 1_555 1_555
H29_2 C49_2 1_555 1_555
H30_2 C50_2 1_555 1_555
C51_2 C8_2 1_555 1_555
H31_2 C51_2 1_555 1_555
C52_2 C27_2 1_555 1_555
H32_2 C52_2 1_555 1_555
C54 C25 1_555 1_555
H36 C54 1_555 1_555
H37 C54 1_555 1_555
H38 C54 1_555 1_555
C55 H39 1_555 1_555
H40 C55 1_555 1_555
C6 C44_2 1_555 1_555
C9_2 C34_2 1_555 1_555
C23_2 C38_2 1_555 1_555
C23_2 C49_2 1_555 1_555
C28_2 C50_2 1_555 1_555
C29_2 C51_2 1_555 1_555
C30_2 C52_2 1_555 1_555
C32_2 C46_2 1_555 1_555
C40 C41_2 1_555 1_555
C40 C42 1_555 1_555
Co5 O12_2 1_555 1_555
O12_2 H45_2 1_555 1_555
N1_2 N3_2 1_555 1_555
N3_2 C31_2 1_555 1_555
N10 C35_2 1_555 1_555
N8_2 Co5 1_555 1_555
C12_2 C24_2 1_555 1_555
C15_2 H6_2 1_555 1_555
C22_2 N1_2 1_555 1_555
C24_2 C15_2 1_555 1_555
H11_2 C24_2 1_555 1_555
C31_2 C12_2 1_555 1_555
C35_2 C12_2 1_555 1_555
H17_2 C35_2 1_555 1_555
C45_2 C3_2 1_555 1_555
H25_2 C45_2 1_555 1_555
C47_2 N10 1_555 1_555
H27_2 C47_2 1_555 1_555
C53_2 C22_2 1_555 1_555
H33_2 C53_2 1_555 1_555
H34_2 C53_2 1_555 1_555
H35_2 C53_2 1_555 1_555
C56_2 C31_2 1_555 1_555
H42_2 C56_2 1_555 1_555
H43_2 C56_2 1_555 1_555
H44_2 C56_2 1_555 1_555
H46_2 O12_2 1_555 1_555
C3_2 C22_2 1_555 1_555
N8_2 C45_2 1_555 1_555
C15_2 C47_2 1_555 1_555
Co8 O6 1_555 1_555
N2 C48_3 1_555 1_555
C23_3 H10_3 1_555 1_555
C38_3 C19_3 1_555 1_555
H19_3 C38_3 1_555 1_555
C48_3 C19_3 1_555 1_555
H28_3 C48_3 1_555 1_555
C49_3 N2 1_555 1_555
H29_3 C49_3 1_555 1_555
Co7 N2 1_555 1_555
C23_3 C38_3 1_555 1_555
C23_3 C49_3 1_555 1_555
Co1 O3 1_555 1_555
O3 H45_3 1_555 1_555
N1_3 N3_3 1_555 1_555
N3_3 C31_3 1_555 1_555
N5_2 C35_3 1_555 1_555
N8_3 Co1 1_555 1_555
C12_3 C24_3 1_555 1_555
C15_3 H6_3 1_555 1_555
C22_3 N1_3 1_555 1_555
C24_3 C15_3 1_555 1_555
H11_3 C24_3 1_555 1_555
C31_3 C12_3 1_555 1_555
C35_3 C12_3 1_555 1_555
H17_3 C35_3 1_555 1_555
C45_3 C3_3 1_555 1_555
H25_3 C45_3 1_555 1_555
C47_3 N5_2 1_555 1_555
H27_3 C47_3 1_555 1_555
C53_3 C22_3 1_555 1_555
H33_3 C53_3 1_555 1_555
H34_3 C53_3 1_555 1_555
H35_3 C53_3 1_555 1_555
C56_3 C31_3 1_555 1_555
H42_3 C56_3 1_555 1_555
H43_3 C56_3 1_555 1_555
H44_3 C56_3 1_555 1_555
H46_3 O3 1_555 1_555
Co4 N5_2 1_555 1_555
O15_2 Co1 1_555 1_555
C3_3 C22_3 1_555 1_555
N8_3 C45_3 1_555 1_555
C15_3 C47_3 1_555 1_555
O1_3 C8_3 1_555 1_555
O5_3 C21_3 1_555 1_555
O7_3 C34_3 1_555 1_555
N2_2 C48_4 1_555 1_555
N4_2 N7_2 1_555 1_555
N7_2 C39_2 1_555 1_555
C6_2 C39_2 1_555 1_555
C8_3 C26_3 1_555 1_555
C9_3 C17_3 1_555 1_555
C10_3 C21_3 1_555 1_555
C16_3 H7_3 1_555 1_555
C17_3 H8_3 1_555 1_555
C19_4 C25_2 1_555 1_555
C21_3 O10_3 1_555 1_555
C23_4 H10_4 1_555 1_555
C25_2 N4_2 1_555 1_555
C26_3 C17_3 1_555 1_555
H12_3 C26_3 1_555 1_555
C27_3 O1_3 1_555 1_555
C28_3 C16_3 1_555 1_555
H13_3 C28_3 1_555 1_555
C29_3 C9_3 1_555 1_555
H14_3 C29_3 1_555 1_555
C30_3 C10_3 1_555 1_555
H15_3 C30_3 1_555 1_555
C32_3 C10_3 1_555 1_555
H16_3 C32_3 1_555 1_555
C34_3 O11_3 1_555 1_555
C38_4 C19_4 1_555 1_555
H19_4 C38_4 1_555 1_555
C39_2 C55_2 1_555 1_555
C40_2 H20_2 1_555 1_555
C41_3 N6_3 1_555 1_555
H21_3 C41_3 1_555 1_555
C42_2 C6_2 1_555 1_555
H22_2 C42_2 1_555 1_555
C44_3 N6_3 1_555 1_555
H24_3 C44_3 1_555 1_555
C46_3 C27_3 1_555 1_555
H26_3 C46_3 1_555 1_555
C48_4 C19_4 1_555 1_555
H28_4 C48_4 1_555 1_555
C49_4 N2_2 1_555 1_555
H29_4 C49_4 1_555 1_555
H30_3 C50_3 1_555 1_555
C51_3 C8_3 1_555 1_555
H31_4 C51_3 1_555 1_555
C52_3 C27_3 1_555 1_555
H32_3 C52_3 1_555 1_555
C54_2 C25_2 1_555 1_555
H36_2 C54_2 1_555 1_555
H37_2 C54_2 1_555 1_555
H38_2 C54_2 1_555 1_555
C55_2 H39_2 1_555 1_555
H40_2 C55_2 1_555 1_555
Co8 N2_2 1_555 1_555
C6_2 C44_3 1_555 1_555
C9_3 C34_3 1_555 1_555
C23_4 C38_4 1_555 1_555
C23_4 C49_4 1_555 1_555
C28_3 C50_3 1_555 1_555
C29_3 C51_3 1_555 1_555
C30_3 C52_3 1_555 1_555
C32_3 C46_3 1_555 1_555
C40_2 C41_3 1_555 1_555
C40_2 C42_2 1_555 1_555
O2_3 C5_3 1_555 1_555
O6_2 C33_3 1_555 1_555
O8_2 C33_3 1_555 1_555
C2_3 H1_3 1_555 1_555
C4_3 H2_3 1_555 1_555
C5_3 C11_3 1_555 1_555
C7_3 C4_3 1_555 1_555
C11_3 H3_3 1_555 1_555
C13_3 C7_3 1_555 1_555
H4_3 C13_3 1_555 1_555
C18_3 O2_3 1_555 1_555
C20_3 C2_3 1_555 1_555
H9_3 C20_3 1_555 1_555
C33_3 C7_3 1_555 1_555
C43_3 C4_3 1_555 1_555
H23_3 C43_3 1_555 1_555
Co4 O8_2 1_555 1_555
Co7 O6_2 1_555 1_555
C5_3 C43_3 1_555 1_555
C11_3 C13_3 1_555 1_555
C18_3 C20_3 1_555 1_555
Co4 O3_2 1_555 1_555
O1_4 C8_4 1_555 1_555
O3_2 H45_4 1_555 1_555
O7_4 C34_4 1_555 1_555
N1_4 N3_4 1_555 1_555
O11_4 Co4 1_555 1_555
C3_4 C16_4 1_555 1_555
N3_4 C31_4 1_555 1_555
C8_4 C26_4 1_555 1_555
C9_4 C17_4 1_555 1_555
N8_4 Co4 1_555 1_555
C16_4 H7_4 1_555 1_555
C17_4 H8_4 1_555 1_555
C22_4 N1_4 1_555 1_555
C26_4 C17_4 1_555 1_555
H12_4 C26_4 1_555 1_555
C27_4 O1_4 1_555 1_555
C28_4 C16_4 1_555 1_555
H13_4 C28_4 1_555 1_555
C29_4 C9_4 1_555 1_555
H14_4 C29_4 1_555 1_555
C34_4 O11_4 1_555 1_555
C45_4 C3_4 1_555 1_555
H25_4 C45_4 1_555 1_555
C46_4 C27_4 1_555 1_555
H26_4 C46_4 1_555 1_555
C50_4 N8_4 1_555 1_555
H30_4 C50_4 1_555 1_555
C51_4 C8_4 1_555 1_555
C53_4 C22_4 1_555 1_555
H33_4 C53_4 1_555 1_555
H34_4 C53_4 1_555 1_555
H35_4 C53_4 1_555 1_555
H46_4 O3_2 1_555 1_555
Co7 O3_2 1_555 1_555
O13_2 Co4 1_555 1_555
C3_4 C22_4 1_555 1_555
C9_4 C34_4 1_555 1_555
N8_4 C45_4 1_555 1_555
C28_4 C50_4 1_555 1_555
C29_4 C51_4 1_555 1_555
N10_2 C35_4 1_555 1_555
C12_4 C24_4 1_555 1_555
C15_4 H6_4 1_555 1_555
C24_4 C15_4 1_555 1_555
C35_4 C12_4 1_555 1_555
H17_4 C35_4 1_555 1_555
C47_4 N10_2 1_555 1_555
H42_4 C56_4 1_555 1_555
H44_4 C56_4 1_555 1_555
C15_4 C47_4 1_555 1_555
Co7 O9_3 1_555 1_555
O2_4 C5_4 1_555 1_555
O13_2 C37_3 1_555 1_555
O5_4 C21_4 1_555 1_555
O15_2 C33_4 1_555 1_555
O9_3 C37_3 1_555 1_555
O10_4 Co7 1_555 1_555
C1_3 C2_4 1_555 1_555
C2_4 H1_4 1_555 1_555
N6_4 Co7 1_555 1_555
C4_4 H2_4 1_555 1_555
C5_4 C11_4 1_555 1_555
C7_4 C4_4 1_555 1_555
C10_4 C21_4 1_555 1_555
C11_4 H3_4 1_555 1_555
C13_4 C7_4 1_555 1_555
H4_4 C13_4 1_555 1_555
C14_3 C1_3 1_555 1_555
H5_3 C14_3 1_555 1_555
C18_4 O2_4 1_555 1_555
C20_4 C2_4 1_555 1_555
H9_4 C20_4 1_555 1_555
C21_4 O10_4 1_555 1_555
C30_4 C10_4 1_555 1_555
H15_4 C30_4 1_555 1_555
C32_4 C10_4 1_555 1_555
H16_4 C32_4 1_555 1_555
C33_4 C7_4 1_555 1_555
C36_3 C14_3 1_555 1_555
H18_3 C36_3 1_555 1_555
C37_3 C1_3 1_555 1_555
C41_4 N6_4 1_555 1_555
H21_4 C41_4 1_555 1_555
C43_4 C4_4 1_555 1_555
H23_4 C43_4 1_555 1_555
C44_4 N6_4 1_555 1_555
H24_4 C44_4 1_555 1_555
H32_4 C52_4 1_555 1_555
C5_4 C43_4 1_555 1_555
C11_4 C13_4 1_555 1_555
C18_4 C20_4 1_555 1_555
C18_4 C36_3 1_555 1_555
C30_4 C52_4 1_555 1_555
Co8 O9_4 1_555 1_555
O4_2 C37_4 1_555 1_555
O9_4 C37_4 1_555 1_555
C14_4 C1_4 1_555 1_555
H5_4 C14_4 1_555 1_555
C36_4 C14_4 1_555 1_555
H18_4 C36_4 1_555 1_555
C37_4 C1_4 1_555 1_555
N4_3 N7_3 1_555 1_555
N7_3 C39_3 1_555 1_555
C6_3 C39_3 1_555 1_555
C25_3 N4_3 1_555 1_555
C39_3 C55_3 1_555 1_555
C40_3 H20_3 1_555 1_555
C42_3 C6_3 1_555 1_555
H22_3 C42_3 1_555 1_555
C54_3 C25_3 1_555 1_555
H36_3 C54_3 1_555 1_555
H37_3 C54_3 1_555 1_555
H38_3 C54_3 1_555 1_555
C55_3 H39_3 1_555 1_555
H40_3 C55_3 1_555 1_555
H41_3 C55_3 1_555 1_555
C40_3 C42_3 1_555 1_555
N4_4 N7_4 1_555 1_555
N7_4 C39_4 1_555 1_555
C6_4 C39_4 1_555 1_555
C25_4 N4_4 1_555 1_555
C39_4 C55_4 1_555 1_555
C40_4 H20_4 1_555 1_555
C42_4 C6_4 1_555 1_555
H22_4 C42_4 1_555 1_555
C54_4 C25_4 1_555 1_555
H36_4 C54_4 1_555 1_555
H37_4 C54_4 1_555 1_555
H38_4 C54_4 1_555 1_555
C55_4 H39_4 1_555 1_555
H40_4 C55_4 1_555 1_555
H41_4 C55_4 1_555 1_555
C40_4 C42_4 1_555 1_555

#END
