
###############################################################################
#
# This file contains modified crystal structure data generated from the
# MOF subset of the Cambridge Structural Database (CSD) v543 
# hosted by the Cambridge Crystallographic Data Centre (CCDC).
#
# This work is licensed under the Creative Commons
# Attribution-NonCommercial-ShareAlike 4.0 International License.
# To view a copy of this license, visit
# http://creativecommons.org/licenses/by-nc-sa/4.0/
# or send a letter to
# Creative Commons, PO Box 1866, Mountain View, CA 94042, USA.
#
# CIF created using the CSD Python API on 29 September 2022
# The structure has been converted into the P1 space group
# The structure has a 3D framework
# The original CSD entry BIZHUQ is in the rhombohedral crystal system
# The framework has been calculated to contain at least 10.0% void space
# The void calculation uses a probe of radius 1.32A, grid spacing 0.4
#
###############################################################################

data_BIZHUQ
_chemical_formula_moiety         '(C472 H396 Co18 N60 O104)n'
_symmetry_cell_setting           triclinic
_symmetry_space_group_name_H-M   'P 1'
_symmetry_Int_Tables_number      1
_space_group_name_Hall           'P 1'
loop_
_symmetry_equiv_pos_site_id
_symmetry_equiv_pos_as_xyz
1 x,y,z
_cell_length_a                   15.7439(10)
_cell_length_b                   15.7439(10)
_cell_length_c                   61.146(4)
_cell_angle_alpha                90
_cell_angle_beta                 90
_cell_angle_gamma                120
_cell_volume                     13125.7
loop_
_atom_site_label
_atom_site_type_symbol
_atom_site_fract_x
_atom_site_fract_y
_atom_site_fract_z
C66 C 0.0071(6) 0.6967(4) 0.55349(9)
O17 O 0.0628(4) 0.6940(2) 0.56725(6)
O18 O 0.0139(5) 0.7741(3) 0.54583(9)
Co7 Co 0.17468(6) 0.80326(4) 0.58492(2)
C147 C 0.0127(4) 0.4400(6) 0.70035(9)
C154 C 0.6331(4) 0.0692(3) 0.39019(7)
H123 H 0.059889 0.505347 0.698106
O32 O 0.7142(3) 0.0840(2) 0.39745(6)
O33 O 0.6147(3) 0.1361(2) 0.38503(6)
Co9 Co 0.03809(5) 0.50801(6) 0.74841(2)
Co13 Co 0.82532(6) 0.19674(4) 0.41508(2)
Co1 Co 0.19674(4) 0.37142(5) 0.58492(2)
O1 O 0.2930(2) 0.5186(3) 0.59601(6)
O2 O 0.0840(2) 0.3698(2) 0.60255(6)
O3 O 0.3060(2) 0.3688(3) 0.56725(6)
O4 O 0.0977(3) 0.2225(3) 0.57647(7)
N1 N 0.1520(3) 0.4266(3) 0.55745(6)
N2 N 0.2397(3) 0.3164(3) 0.61291(7)
H1 H 0.264826 0.533363 0.606128
H2 H 0.307441 0.559405 0.585398
C1 C 0.0692(3) 0.4361(3) 0.60981(7)
C2 C 0.3033(4) 0.3104(4) 0.55349(9)
H3 H 0.038676 0.212286 0.575832
H4 H 0.099919 0.183687 0.586090
C3 C 0.1761(4) 0.5214(4) 0.55565(9)
C4 C 0.0916(6) 0.3659(5) 0.54184(12)
C5 C 0.2393(5) 0.3460(4) 0.63298(9)
C6 C 0.2685(5) 0.2497(5) 0.61007(9)
O5 O 0.1361(2) 0.5214(2) 0.61497(6)
O6 O 0.2259(3) 0.2398(4) 0.54583(9)
C8 C 0.3997(4) 0.3211(4) 0.54622(8)
H5 H 0.218767 0.565929 0.565894
C9 C 0.1406(5) 0.5551(4) 0.53947(10)
H6 H 0.074829 0.300319 0.542446
C10 C 0.0538(6) 0.3941(5) 0.52534(11)
H7 H 0.221208 0.393222 0.635227
C11 C 0.2648(5) 0.3098(5) 0.65094(9)
H8 H 0.270904 0.229213 0.595942
C12 C 0.2942(5) 0.2109(5) 0.62710(9)
C15 C 0.4042(4) 0.2607(4) 0.53035(8)
C16 C 0.4856(4) 0.3889(4) 0.55666(8)
C17 C 0.0761(4) 0.4924(4) 0.52406(8)
H9 H 0.160358 0.621487 0.538876
H10 H 0.013448 0.348880 0.514920
C18 C 0.2933(4) 0.2402(4) 0.64807(8)
H11 H 0.262794 0.332152 0.664904
H12 H 0.312531 0.164152 0.624373
C21 C 0.4918(4) 0.2662(4) 0.52487(9)
H15 H 0.346963 0.215518 0.523251
H16 H 0.483459 0.429675 0.567389
C22 C 0.5741(4) 0.3961(4) 0.55120(8)
C23 C 0.0339(4) 0.5286(4) 0.50759(8)
C24 C 0.3179(5) 0.1985(5) 0.66711(9)
C26 C 0.5777(3) 0.3333(3) 0.53564(8)
H19 H 0.493598 0.225506 0.514077
H20 H 0.631461 0.442977 0.557945
H21 H 0.055136 0.595376 0.507534
H22 H 0.311018 0.219172 0.680904
N4 N 0.666667 0.333333 0.53123(12)
C28 C 0.3488(5) 0.1348(5) 0.66622(9)
C30 C 0.3734(4) 0.0931(4) 0.68526(8)
H24 H 0.355649 0.114161 0.652429
C33 C 0.6667(3) 0.2444(4) 0.53564(8)
C34 C 0.7556(4) 0.4223(3) 0.53564(8)
C37 C 0.4019(5) 0.0235(5) 0.68239(9)
C38 C 0.3725(5) 0.1224(5) 0.70623(9)
C43 C 0.7338(4) 0.2256(6) 0.52487(9)
C44 C 0.6039(4) 0.1780(6) 0.55120(8)
C45 C 0.7744(6) 0.5082(4) 0.52487(9)
C46 C 0.8220(6) 0.4259(4) 0.55120(8)
H27 H 0.403873 0.001181 0.668429
C50 C 0.3982(5) 0.0836(5) 0.72326(9)
H28 H 0.354136 0.169181 0.708960
H33 H 0.774494 0.268092 0.514077
C55 C 0.7393(4) 0.1435(6) 0.53035(8)
C56 C 0.6111(4) 0.0967(6) 0.55666(8)
H34 H 0.557023 0.188484 0.557945
H35 H 0.731908 0.506402 0.514077
C57 C 0.8565(6) 0.5958(4) 0.53035(8)
C58 C 0.9033(6) 0.5144(4) 0.55666(8)
H36 H 0.811516 0.368539 0.557945
N6 N 0.4270(3) 0.0169(3) 0.72042(7)
H40 H 0.395763 0.104120 0.737391
C61 C 0.6789(4) 0.0786(6) 0.54622(8)
H45 H 0.784482 0.131445 0.523251
H46 H 0.570325 0.053784 0.567389
C62 C 0.9214(6) 0.6003(4) 0.54622(8)
H47 H 0.868555 0.653037 0.523251
H48 H 0.946216 0.516541 0.567389
C69 C 0.0364(3) 0.5903(3) 0.38775(7)
C71 C 0.0627(3) 0.5349(3) 0.37509(8)
C72 C 0.1089(3) 0.6726(3) 0.39845(8)
H65 H 0.014743 0.479562 0.367872
C83 C 0.1617(3) 0.5618(3) 0.37309(9)
H66 H 0.091488 0.711276 0.406667
C84 C 0.2072(3) 0.6982(3) 0.39708(8)
C95 C 0.2335(3) 0.6418(3) 0.38388(8)
H77 H 0.178976 0.524630 0.364277
H78 H 0.254790 0.751947 0.404782
N14 N 0.333333 0.666667 0.38213(14)
C105 C 0.3582(3) 0.5917(4) 0.38388(8)
C106 C 0.4083(4) 0.7665(3) 0.38388(8)
C113 C 0.3018(3) 0.5090(4) 0.39708(8)
C114 C 0.4382(3) 0.5999(4) 0.37309(9)
C115 C 0.4910(4) 0.7928(3) 0.39708(8)
C116 C 0.4001(4) 0.8383(3) 0.37309(9)
C125 C 0.3274(3) 0.4363(4) 0.39845(8)
H97 H 0.248053 0.502843 0.404782
C126 C 0.4651(3) 0.5278(4) 0.37509(8)
H98 H 0.475370 0.654346 0.364277
C127 C 0.5637(4) 0.8911(3) 0.39845(8)
H99 H 0.497157 0.745210 0.404782
C128 C 0.4722(4) 0.9373(3) 0.37509(8)
H100 H 0.345654 0.821024 0.364277
C141 C 0.4097(3) 0.4461(4) 0.38775(7)
H105 H 0.288724 0.380212 0.406667
H106 H 0.520438 0.535181 0.367872
C142 C 0.5539(4) 0.9636(3) 0.38775(7)
H107 H 0.619788 0.908512 0.406667
H108 H 0.464819 0.985257 0.367872
C153 C 0.4361(3) 0.3669(4) 0.39019(7)
O30 O 0.3698(2) 0.2858(3) 0.39745(6)
O31 O 0.5214(2) 0.3853(3) 0.38503(6)
Co12 Co 0.37142(5) 0.17468(6) 0.41508(2)
C49 C 0.4274(5) 0.9873(4) 0.70035(9)
H39 H 0.445459 0.940111 0.698106
Co3 Co 0.46993(4) 0.96191(5) 0.74841(2)
C65 C 0.6896(4) 0.9929(6) 0.55349(9)
O15 O 0.6312(3) 0.9372(4) 0.56725(6)
O16 O 0.7602(4) 0.9861(5) 0.54583(9)
Co6 Co 0.62858(5) 0.82532(6) 0.58492(2)
O27 O 0.4814(3) 0.7744(4) 0.59601(6)
O28 O 0.7775(3) 0.8752(4) 0.57647(7)
O29 O 0.6302(2) 0.7142(3) 0.60255(6)
N12 N 0.5734(3) 0.7254(4) 0.55745(6)
N13 N 0.6836(3) 0.9233(4) 0.61291(7)
H61 H 0.466637 0.731463 0.606128
H62 H 0.440595 0.748036 0.585398
H63 H 0.787714 0.826390 0.575832
H64 H 0.816313 0.916232 0.586090
C78 C 0.7503(5) 0.0188(7) 0.61007(9)
H72 H 0.770787 0.041691 0.595942
C90 C 0.7891(5) 0.0833(7) 0.62710(9)
C98 C 0.7598(4) 0.0531(6) 0.64807(8)
H84 H 0.835848 0.148379 0.624373
C102 C 0.8015(5) 0.1194(7) 0.66711(9)
H90 H 0.780828 0.091846 0.680904
C110 C 0.8652(5) 0.2139(7) 0.66622(9)
C122 C 0.9069(4) 0.2802(6) 0.68526(8)
H94 H 0.885839 0.241487 0.652429
C135 C 0.9765(5) 0.3783(7) 0.68239(9)
C136 C 0.8776(5) 0.2500(7) 0.70623(9)
H115 H 0.998819 0.402691 0.668429
C148 C 0.9164(5) 0.3145(7) 0.72326(9)
H116 H 0.830819 0.184954 0.708960
C155 C 0.3104(4) 0.0071(6) 0.44651(9)
N17 N 0.9831(3) 0.4100(4) 0.72042(7)
H124 H 0.895880 0.291642 0.737391
O34 O 0.3688(3) 0.0628(4) 0.43275(6)
O35 O 0.2398(4) 0.0139(5) 0.45417(9)
C7 C 0.9636(3) 0.4097(3) 0.61225(7)
C13 C 0.9373(3) 0.4651(3) 0.62491(8)
C14 C 0.8911(3) 0.3274(3) 0.60155(8)
H13 H 0.985257 0.520438 0.632128
C19 C 0.8383(3) 0.4382(3) 0.62691(9)
H14 H 0.908512 0.288724 0.593333
C20 C 0.7928(3) 0.3018(3) 0.60292(8)
C25 C 0.7665(3) 0.3582(3) 0.61612(8)
H17 H 0.821024 0.475370 0.635723
H18 H 0.745210 0.248053 0.595218
N3 N 0.666667 0.333333 0.61787(14)
C27 C 0.9661(4) 0.4714(4) 0.49241(8)
C29 C 0.9239(4) 0.5076(4) 0.47594(8)
H23 H 0.944864 0.404624 0.492466
C31 C 0.6418(3) 0.4083(4) 0.61612(8)
C32 C 0.5917(4) 0.2335(3) 0.61612(8)
C35 C 0.8594(5) 0.4449(4) 0.46053(10)
C36 C 0.9462(6) 0.6059(5) 0.47466(11)
C39 C 0.6982(3) 0.4910(4) 0.60292(8)
C40 C 0.5618(3) 0.4001(4) 0.62691(9)
C41 C 0.5090(4) 0.2072(3) 0.60292(8)
C42 C 0.5999(4) 0.1617(3) 0.62691(9)
C47 C 0.8239(4) 0.4786(4) 0.44435(9)
H25 H 0.839642 0.378513 0.461124
C48 C 0.9084(6) 0.6341(5) 0.45816(12)
H26 H 0.986552 0.651120 0.485080
C51 C 0.6726(3) 0.5637(4) 0.60155(8)
H29 H 0.751947 0.497157 0.595218
C52 C 0.5349(3) 0.4722(4) 0.62491(8)
H30 H 0.524630 0.345654 0.635723
C53 C 0.4363(4) 0.1089(3) 0.60155(8)
H31 H 0.502843 0.254790 0.595218
C54 C 0.5278(4) 0.0627(3) 0.62491(8)
H32 H 0.654346 0.178976 0.635723
N5 N 0.8480(3) 0.5734(3) 0.44255(6)
H37 H 0.781233 0.434071 0.434106
H38 H 0.925171 0.699681 0.457554
C59 C 0.5903(3) 0.5539(4) 0.61225(7)
H41 H 0.711276 0.619788 0.593333
H42 H 0.479562 0.464819 0.632128
C60 C 0.4461(4) 0.0364(3) 0.61225(7)
H43 H 0.380212 0.091488 0.593333
H44 H 0.535181 0.014743 0.632128
Co2 Co 0.80326(4) 0.62858(5) 0.41508(2)
C63 C 0.5639(3) 0.6331(4) 0.60981(7)
O7 O 0.7070(2) 0.4814(3) 0.40399(6)
O8 O 0.9160(2) 0.6302(2) 0.39745(6)
O9 O 0.6940(2) 0.6312(3) 0.43275(6)
O10 O 0.9023(3) 0.7775(3) 0.42353(7)
N7 N 0.7603(3) 0.6836(3) 0.38709(7)
O12 O 0.4786(2) 0.6147(3) 0.61497(6)
H49 H 0.735174 0.466637 0.393872
H50 H 0.692559 0.440595 0.414602
C67 C 0.9308(3) 0.5639(3) 0.39019(7)
C68 C 0.6967(4) 0.6896(4) 0.44651(9)
H51 H 0.961324 0.787714 0.424168
H52 H 0.900081 0.816313 0.413910
O19 O 0.8639(2) 0.4786(2) 0.38503(6)
O20 O 0.7741(3) 0.7602(4) 0.45417(9)
C70 C 0.6003(4) 0.6789(4) 0.45378(8)
C73 C 0.5958(4) 0.7393(4) 0.46965(8)
C74 C 0.5144(4) 0.6111(4) 0.44334(8)
C75 C 0.4786(4) 0.6547(6) 0.55565(9)
C76 C 0.6341(5) 0.7257(8) 0.54184(12)
C77 C 0.6540(4) 0.8933(6) 0.63298(9)
C85 C 0.5082(4) 0.7338(4) 0.47513(9)
H67 H 0.653037 0.784482 0.476749
H68 H 0.516541 0.570325 0.432611
C86 C 0.4259(4) 0.6039(4) 0.44880(8)
H69 H 0.434071 0.652838 0.565894
C87 C 0.4449(4) 0.5855(6) 0.53947(10)
H70 H 0.699681 0.774510 0.542446
C88 C 0.6059(5) 0.6597(8) 0.52534(11)
H71 H 0.606778 0.827986 0.635227
C89 C 0.6902(5) 0.9550(7) 0.65094(9)
C96 C 0.4223(3) 0.6667(3) 0.46436(8)
H79 H 0.506402 0.774494 0.485923
H80 H 0.368539 0.557023 0.442055
C97 C 0.5076(4) 0.5837(6) 0.52406(8)
H81 H 0.378513 0.538871 0.538876
H82 H 0.651120 0.664568 0.514920
H83 H 0.667848 0.930642 0.664904
N15 N 0.333333 0.666667 0.46877(12)
C101 C 0.4714(4) 0.5053(6) 0.50759(8)
C107 C 0.3333(3) 0.7556(4) 0.46436(8)
C108 C 0.2444(4) 0.5777(3) 0.46436(8)
H89 H 0.404624 0.459760 0.507534
C109 C 0.5286(4) 0.4947(6) 0.49241(8)
C111 C 0.5053(6) 0.0339(4) 0.49241(8)
C117 C 0.2662(4) 0.7744(6) 0.47513(9)
C118 C 0.3961(4) 0.8220(6) 0.44880(8)
C119 C 0.2256(6) 0.4918(4) 0.47513(9)
C120 C 0.1780(6) 0.5741(4) 0.44880(8)
C121 C 0.4924(4) 0.4163(6) 0.47594(8)
H93 H 0.595376 0.540240 0.492466
C123 C 0.5837(6) 0.0761(4) 0.47594(8)
H95 H 0.459760 0.055136 0.492466
H101 H 0.225506 0.731908 0.485923
C129 C 0.2607(4) 0.8565(6) 0.46965(8)
C130 C 0.3889(4) 0.9033(6) 0.44334(8)
H102 H 0.442977 0.811516 0.442055
H103 H 0.268092 0.493598 0.485923
C131 C 0.1435(6) 0.4042(4) 0.46965(8)
C132 C 0.0967(6) 0.4856(4) 0.44334(8)
H104 H 0.188484 0.631461 0.442055
C133 C 0.5551(4) 0.4145(6) 0.46053(10)
C134 C 0.3941(5) 0.3403(8) 0.47466(11)
C137 C 0.5855(6) 0.1406(5) 0.46053(10)
C138 C 0.6597(8) 0.0538(6) 0.47466(11)
C143 C 0.3211(4) 0.9214(6) 0.45378(8)
H109 H 0.215518 0.868555 0.476749
H110 H 0.429675 0.946216 0.432611
C144 C 0.0786(6) 0.3997(4) 0.45378(8)
H111 H 0.131445 0.346963 0.476749
H112 H 0.053784 0.483459 0.432611
C145 C 0.5214(4) 0.3453(6) 0.44435(9)
H113 H 0.621487 0.461129 0.461124
C146 C 0.3659(5) 0.2743(8) 0.45816(12)
H114 H 0.348880 0.335432 0.485080
C149 C 0.6547(6) 0.1761(4) 0.44435(9)
H117 H 0.538871 0.160358 0.461124
C150 C 0.7257(8) 0.0916(6) 0.45816(12)
H118 H 0.664568 0.013448 0.485080
N16 N 0.4266(3) 0.2746(4) 0.44255(6)
H121 H 0.565929 0.347162 0.434106
H122 H 0.300319 0.225490 0.457554
N18 N 0.7254(4) 0.1520(3) 0.44255(6)
H125 H 0.652838 0.218767 0.434106
H126 H 0.774510 0.074829 0.457554
O38 O 0.5186(3) 0.2256(4) 0.40399(6)
O39 O 0.2225(3) 0.1248(4) 0.42353(7)
N20 N 0.3164(3) 0.0767(4) 0.38709(7)
H129 H 0.533363 0.268537 0.393872
H130 H 0.559405 0.251964 0.414602
H131 H 0.212286 0.173610 0.424168
H132 H 0.183687 0.083768 0.413910
C64 C 0.3669(4) 0.9308(3) 0.60981(7)
O13 O 0.2858(3) 0.9160(2) 0.60255(6)
O14 O 0.3853(3) 0.8639(2) 0.61497(6)
O24 O 0.2256(4) 0.7070(2) 0.59601(6)
O25 O 0.1248(4) 0.9023(3) 0.57647(7)
N10 N 0.2746(4) 0.8480(3) 0.55745(6)
N11 N 0.0767(4) 0.7603(3) 0.61291(7)
H57 H 0.268537 0.735174 0.606128
H58 H 0.251964 0.692559 0.585398
H59 H 0.173610 0.961324 0.575832
H60 H 0.083768 0.900081 0.586090
C79 C 0.3453(6) 0.8239(4) 0.55565(9)
C80 C 0.2743(8) 0.9084(6) 0.54184(12)
C81 C 0.1067(6) 0.7607(5) 0.63298(9)
H73 H 0.347162 0.781233 0.565894
C91 C 0.4145(6) 0.8594(5) 0.53947(10)
H74 H 0.225490 0.925171 0.542446
C92 C 0.3403(8) 0.9462(6) 0.52534(11)
H75 H 0.172014 0.778792 0.635227
C93 C 0.0450(7) 0.7352(5) 0.65094(9)
C99 C 0.4163(6) 0.9239(4) 0.52406(8)
H85 H 0.461129 0.839642 0.538876
H86 H 0.335432 0.986552 0.514920
H87 H 0.069358 0.737206 0.664904
C103 C 0.4947(6) 0.9661(4) 0.50759(8)
H91 H 0.540240 0.944864 0.507534
C156 C 0.9929(6) 0.3033(4) 0.44651(9)
O36 O 0.9372(4) 0.3060(2) 0.43275(6)
O37 O 0.9861(5) 0.2259(3) 0.45417(9)
C82 C 0.9812(7) 0.7315(5) 0.61007(9)
H76 H 0.958309 0.729096 0.595942
C94 C 0.9167(7) 0.7058(5) 0.62710(9)
C100 C 0.9469(6) 0.7067(4) 0.64807(8)
H88 H 0.851621 0.687469 0.624373
C104 C 0.8806(7) 0.6821(5) 0.66711(9)
H92 H 0.908154 0.688982 0.680904
C112 C 0.7861(7) 0.6512(5) 0.66622(9)
C124 C 0.7198(6) 0.6266(4) 0.68526(8)
H96 H 0.758513 0.644351 0.652429
C139 C 0.6217(7) 0.5981(5) 0.68239(9)
C140 C 0.7500(7) 0.6275(5) 0.70623(9)
C151 C 0.5600(6) 0.5726(5) 0.70035(9)
H119 H 0.597309 0.596127 0.668429
C152 C 0.6855(7) 0.6018(5) 0.72326(9)
H120 H 0.815046 0.645864 0.708960
N19 N 0.5900(4) 0.5730(3) 0.72042(7)
H127 H 0.494653 0.554541 0.698106
H128 H 0.708358 0.604237 0.737391
Co11 Co 0.49199(6) 0.53007(4) 0.74841(2)
O38_2 O 0.7744(4) 0.2930(5) 0.40399(6)
O39_2 O 0.8752(4) 0.0977(5) 0.42353(7)
N20_2 N 0.9233(4) 0.2397(5) 0.38709(7)
H129_2 H 0.731463 0.264826 0.393872
H130_2 H 0.748036 0.307441 0.414602
H131_2 H 0.826390 0.038676 0.424168
H132_2 H 0.916232 0.099919 0.413910
C66_2 C 0.6738(6) 0.0300(4) 0.88682(9)
O17_2 O 0.7295(4) 0.0273(2) 0.90058(6)
O18_2 O 0.6806(5) 0.1074(3) 0.87916(9)
Co7_2 Co 0.84135(6) 0.13659(4) 0.91825(2)
N14_2 N -0.000000 0.000000 0.71546(14)
C106_2 C 0.0750(4) 0.0998(3) 0.71721(8)
C115_2 C 0.1577(4) 0.1261(3) 0.73041(8)
C116_2 C 0.0668(4) 0.1716(3) 0.70642(9)
C127_2 C 0.2304(4) 0.2244(3) 0.73178(8)
H99_2 H 0.163824 0.078543 0.738115
C128_2 C 0.1389(4) 0.2706(3) 0.70842(8)
H100_2 H 0.012321 0.154357 0.697610
C142_2 C 0.2206(4) 0.2969(3) 0.72108(7)
H107_2 H 0.286455 0.241845 0.740000
H108_2 H 0.131486 0.318590 0.701205
C154_2 C 0.2998(4) 0.4025(3) 0.72352(7)
O32_2 O 0.3809(3) 0.4173(2) 0.73078(6)
O33_2 O 0.2814(3) 0.4694(2) 0.71836(6)
C30_2 C 0.0400(4) 0.4265(4) 0.01860(8)
C37_2 C 0.0685(5) 0.3569(5) 0.01573(9)
C38_2 C 0.0391(5) 0.4558(5) 0.03957(9)
C49_2 C 0.0940(5) 0.3207(4) 0.03369(9)
H27_2 H 0.070539 0.334515 0.001763
C50_2 C 0.0648(5) 0.4170(5) 0.05660(9)
H28_2 H 0.020802 0.502515 0.042294
N6_2 N 0.0936(3) 0.3503(3) 0.05376(7)
H39_2 H 0.112125 0.273445 0.031440
H40_2 H 0.062429 0.437454 0.070725
Co3_2 Co 0.13659(4) 0.29525(5) 0.08175(2)
C8_2 C 0.0664(4) 0.6544(4) 0.87955(8)
C15_2 C 0.0709(4) 0.5940(4) 0.86368(8)
C16_2 C 0.1523(4) 0.7222(4) 0.88999(8)
C21_2 C 0.1585(4) 0.5995(4) 0.85820(9)
H15_2 H 0.013630 0.548851 0.856584
H16_2 H 0.150126 0.763008 0.900722
C22_2 C 0.2408(4) 0.7294(4) 0.88453(8)
C26_2 C 0.2444(3) 0.6666(3) 0.86897(8)
H19_2 H 0.160265 0.558839 0.847410
H20_2 H 0.298128 0.776310 0.891278
N4_2 N 0.333334 0.666666 0.86456(12)
C28_2 C 0.0154(5) 0.4682(5) 0.99956(9)
H24_2 H 0.022315 0.447495 0.985763
C33_2 C 0.3334(3) 0.5777(4) 0.86897(8)
C34_2 C 0.4223(4) 0.7556(3) 0.86897(8)
C43_2 C 0.4005(4) 0.5589(6) 0.85820(9)
C44_2 C 0.2706(4) 0.5113(6) 0.88453(8)
C45_2 C 0.4411(6) 0.8415(4) 0.85820(9)
C46_2 C 0.4887(6) 0.7592(4) 0.88453(8)
H33_2 H 0.441161 0.601425 0.847410
C55_2 C 0.4060(4) 0.4768(6) 0.86368(8)
C56_2 C 0.2778(4) 0.4300(6) 0.88999(8)
H34_2 H 0.223690 0.521817 0.891278
H35_2 H 0.398575 0.839735 0.847410
C57_2 C 0.5232(6) 0.9291(4) 0.86368(8)
C58_2 C 0.5700(6) 0.8477(4) 0.88999(8)
H36_2 H 0.478183 0.701872 0.891278
C61_2 C 0.3456(4) 0.4119(6) 0.87955(8)
H45_2 H 0.451149 0.464778 0.856584
H46_2 H 0.236992 0.387117 0.900722
C62_2 C 0.5881(6) 0.9336(4) 0.87955(8)
H47_2 H 0.535222 0.986370 0.856584
H48_2 H 0.612883 0.849874 0.900722
C65_2 C 0.3563(4) 0.3262(6) 0.88682(9)
O15_2 O 0.2979(3) 0.2705(4) 0.90058(6)
O16_2 O 0.4269(4) 0.3194(5) 0.87916(9)
Co6_2 Co 0.29525(5) 0.15865(6) 0.91825(2)
O27_2 O 0.1481(3) 0.1077(4) 0.92934(6)
O28_2 O 0.4442(3) 0.2085(4) 0.90980(7)
O29_2 O 0.2969(2) 0.0475(3) 0.93588(6)
N12_2 N 0.2401(3) 0.0587(4) 0.89078(6)
N13_2 N 0.3503(3) 0.2566(4) 0.94624(7)
H61_2 H 0.133304 0.064796 0.939461
H62_2 H 0.107262 0.081369 0.918731
H63_2 H 0.454381 0.159723 0.909165
H64_2 H 0.482980 0.249565 0.919423
N14_3 N -0.000000 1.000000 0.71546(14)
C105_2 C 0.0249(3) 0.9250(4) 0.71721(8)
C114_2 C 0.1049(3) 0.9332(4) 0.70642(9)
C126_2 C 0.1318(3) 0.8611(4) 0.70842(8)
H98_2 H 0.142037 0.987679 0.697610
C141_2 C 0.0764(3) 0.7794(4) 0.72108(7)
H106_2 H 0.187105 0.868514 0.701205
C153_2 C 0.1028(3) 0.7002(4) 0.72352(7)
O30_2 O 0.0365(2) 0.6191(3) 0.73078(6)
O31_2 O 0.1881(2) 0.7186(3) 0.71836(6)
C102_2 C 0.4682(5) 0.4527(7) 0.00044(9)
H90_2 H 0.447495 0.425179 0.014237
C122_2 C 0.5735(4) 0.6136(6) 0.01860(8)
C135_2 C 0.6431(5) 0.7117(7) 0.01573(9)
C136_2 C 0.5442(5) 0.5834(7) 0.03957(9)
C147_2 C 0.6793(4) 0.7734(6) 0.03369(9)
H115_2 H 0.665485 0.736025 0.001763
C148_2 C 0.5830(5) 0.6479(7) 0.05660(9)
H116_2 H 0.497485 0.518288 0.042294
N17_2 N 0.6497(3) 0.7434(4) 0.05376(7)
H123_2 H 0.726555 0.838681 0.031440
H124_2 H 0.562546 0.624976 0.070725
Co9_2 Co 0.70475(5) 0.84135(6) 0.08175(2)
H38_2 H 0.591838 0.033014 0.790887
O10_2 O 0.5690(3) 0.1108(3) 0.75686(7)
C68_2 C 0.3634(4) 0.0229(4) 0.77984(9)
H51_2 H 0.627991 0.121047 0.757501
H52_2 H 0.566748 0.149646 0.747243
O20_2 O 0.4408(3) 0.0935(4) 0.78750(9)
C70_2 C 0.2670(4) 0.0122(4) 0.78711(8)
C72_2 C 0.7756(3) 0.0059(3) 0.73178(8)
C73_2 C 0.2625(4) 0.0726(4) 0.80298(8)
C76_2 C 0.3008(5) 0.0590(8) 0.87517(12)
C77_2 C 0.3207(4) 0.2266(6) 0.96631(9)
C78_2 C 0.4170(5) 0.3521(7) 0.94340(9)
H66_2 H 0.758155 0.044609 0.740000
C84_2 C 0.8739(3) 0.0315(3) 0.73041(8)
C85_2 C 0.1749(4) 0.0671(4) 0.80846(9)
H67_2 H 0.319704 0.117815 0.810082
H70_2 H 0.366348 0.107843 0.875779
H71_2 H 0.273445 0.161319 0.968560
C89_2 C 0.3569(5) 0.2883(7) 0.98427(9)
H72_2 H 0.437454 0.375024 0.929275
C90_2 C 0.4558(5) 0.4166(7) 0.96043(9)
H78_2 H 0.921457 0.085280 0.738115
C96_2 C 0.0890(3) 0.0000(3) 0.79769(8)
H79_2 H 0.173069 0.107827 0.819256
C98_2 C 0.4265(4) 0.3864(6) 0.98140(8)
H83_2 H 0.334515 0.263975 0.998237
H84_2 H 0.502515 0.481712 0.957706
N14_4 N 1.000000 0.000000 0.71546(14)
N15_2 N -0.000000 0.000000 0.80210(12)
C107_2 C -0.0000(3) 0.0889(4) 0.79769(8)
C110_2 C 0.5318(5) 0.5473(7) 0.99956(9)
C118_2 C 0.0628(4) 0.1553(6) 0.78213(8)
H94_2 H 0.552505 0.574821 0.985763
C130_2 C 0.0556(4) 0.2366(6) 0.77667(8)
H102_2 H 0.109644 0.144849 0.775388
H110_2 H 0.096342 0.279549 0.765944
O34_2 O 0.0355(3) 0.3961(4) 0.76608(6)
C24_2 C 0.9846(5) 0.5318(5) 0.00044(9)
H22_2 H 0.977685 0.552505 0.014237
Co1_2 Co 0.86341(4) 0.70475(5) 0.91825(2)
O1_2 O 0.9597(2) 0.8519(3) 0.92934(6)
O2_2 O 0.7507(2) 0.7031(2) 0.93588(6)
O3_2 O 0.9727(2) 0.7021(3) 0.90058(6)
O4_2 O 0.7644(3) 0.5558(3) 0.90980(7)
N1_2 N 0.8187(3) 0.7599(3) 0.89078(6)
N2_2 N 0.9064(3) 0.6497(3) 0.94624(7)
H1_2 H 0.931493 0.866696 0.939461
H2_2 H 0.974108 0.892738 0.918731
C1_2 C 0.7359(3) 0.7694(3) 0.94314(7)
C2_2 C 0.9700(4) 0.6437(4) 0.88682(9)
H3_2 H 0.705343 0.545619 0.909165
H4_2 H 0.766586 0.517020 0.919423
C3_2 C 0.8428(4) 0.8547(4) 0.88898(9)
C4_2 C 0.7583(6) 0.6992(5) 0.87517(12)
C5_2 C 0.9060(5) 0.6793(4) 0.96631(9)
C6_2 C 0.9352(5) 0.5830(5) 0.94340(9)
O5_2 O 0.8028(2) 0.8547(2) 0.94830(6)
C7_2 C 0.6303(3) 0.7430(3) 0.94558(7)
O6_2 O 0.8926(3) 0.5731(4) 0.87916(9)
H5_2 H 0.885434 0.899262 0.899227
C9_2 C 0.8073(5) 0.8884(4) 0.87280(10)
H6_2 H 0.741496 0.633652 0.875779
C10_2 C 0.7205(6) 0.7274(5) 0.85867(11)
H7_2 H 0.887875 0.726555 0.968560
C11_2 C 0.9315(5) 0.6431(5) 0.98427(9)
H8_2 H 0.937571 0.562546 0.929275
C12_2 C 0.9609(5) 0.5442(5) 0.96043(9)
C13_2 C 0.6040(3) 0.7984(3) 0.95824(8)
C14_2 C 0.5578(3) 0.6607(3) 0.93488(8)
C17_2 C 0.7428(4) 0.8257(4) 0.85739(8)
H9_2 H 0.827025 0.954820 0.872209
H10_2 H 0.680115 0.682213 0.848253
C18_2 C 0.9600(4) 0.5735(4) 0.98140(8)
H11_2 H 0.929461 0.665485 0.998237
H12_2 H 0.979198 0.497485 0.957706
H13_2 H 0.651924 0.853771 0.965461
C19_2 C 0.5050(3) 0.7715(3) 0.96024(9)
H14_2 H 0.575179 0.622057 0.926666
C20_2 C 0.4595(3) 0.6351(3) 0.93625(8)
C23_2 C 0.7006(4) 0.8619(4) 0.84092(8)
C25_2 C 0.4332(3) 0.6915(3) 0.94945(8)
H17_2 H 0.487691 0.808703 0.969056
H18_2 H 0.411877 0.581386 0.928551
H21_2 H 0.721803 0.928709 0.840867
N3_2 N 0.333334 0.666666 0.95120(14)
C27_2 C 0.6328(4) 0.8047(4) 0.82574(8)
C29_2 C 0.5906(4) 0.8409(4) 0.80927(8)
H23_2 H 0.611531 0.737957 0.825799
C31_2 C 0.3085(3) 0.7416(4) 0.94945(8)
C32_2 C 0.2584(4) 0.5668(3) 0.94945(8)
C35_2 C 0.5261(5) 0.7782(4) 0.79386(10)
C36_2 C 0.6129(6) 0.9392(5) 0.80799(11)
C39_2 C 0.3649(3) 0.8243(4) 0.93625(8)
C40_2 C 0.2285(3) 0.7334(4) 0.96024(9)
C41_2 C 0.1757(4) 0.5405(3) 0.93625(8)
C42_2 C 0.2666(4) 0.4950(3) 0.96024(9)
C47_2 C 0.4906(4) 0.8119(4) 0.77768(9)
H25_2 H 0.506309 0.711846 0.794457
C48_2 C 0.5751(6) 0.9674(5) 0.79149(12)
H26_2 H 0.653219 0.984453 0.818413
C51_2 C 0.3393(3) 0.8970(4) 0.93488(8)
H29_2 H 0.418614 0.830490 0.928551
C52_2 C 0.2016(3) 0.8055(4) 0.95824(8)
H30_2 H 0.191297 0.678987 0.969056
C53_2 C 0.1030(4) 0.4422(3) 0.93488(8)
H31_2 H 0.169510 0.588123 0.928551
C54_2 C 0.1945(4) 0.3960(3) 0.95824(8)
H32_2 H 0.321013 0.512309 0.969056
N5_2 N 0.5147(3) 0.9067(3) 0.77588(6)
H37_2 H 0.447900 0.767404 0.767439
C59_2 C 0.2570(3) 0.8872(4) 0.94558(7)
H41_2 H 0.377943 0.953121 0.926666
H42_2 H 0.146229 0.798152 0.965461
C60_2 C 0.1128(4) 0.3697(3) 0.94558(7)
H43_2 H 0.046879 0.424821 0.926666
H44_2 H 0.201848 0.348076 0.965461
C63_2 C 0.2306(3) 0.9664(4) 0.94314(7)
C64_2 C 0.0336(4) 0.2641(3) 0.94314(7)
O7_2 O 0.3737(2) 0.8147(3) 0.73732(6)
O8_2 O 0.5827(2) 0.9635(2) 0.73078(6)
O9_2 O 0.3607(2) 0.9645(3) 0.76608(6)
O12_2 O 0.1453(2) 0.9480(3) 0.94830(6)
O14_2 O 0.0520(3) 0.1972(2) 0.94830(6)
H49_2 H 0.401841 0.799970 0.727205
H50_2 H 0.359226 0.773928 0.747935
C67_2 C 0.5975(3) 0.8972(3) 0.72352(7)
O19_2 O 0.5306(2) 0.8119(2) 0.71836(6)
C69_2 C 0.7031(3) 0.9236(3) 0.72108(7)
C71_2 C 0.7294(3) 0.8682(3) 0.70842(8)
C74_2 C 0.1811(4) 0.9444(4) 0.77667(8)
C75_2 C 0.1453(4) 0.9880(6) 0.88898(9)
C79_2 C 0.0120(6) 0.1572(4) 0.88898(9)
H65_2 H 0.681410 0.812895 0.701205
C83_2 C 0.8284(3) 0.8951(3) 0.70642(9)
H68_2 H 0.183208 0.903658 0.765944
C86_2 C 0.0926(4) 0.9372(4) 0.78213(8)
H69_2 H 0.100738 0.986171 0.899227
C87_2 C 0.1116(4) 0.9188(6) 0.87280(10)
C88_2 C 0.2726(5) 0.9930(8) 0.85867(11)
H73_2 H 0.013829 0.114566 0.899227
C91_2 C 0.0812(6) 0.1927(5) 0.87280(10)
C92_2 C 0.0070(8) 0.2795(6) 0.85867(11)
C95_2 C 0.9002(3) 0.9751(3) 0.71721(8)
H77_2 H 0.845643 0.857963 0.697610
C96_3 C 0.0890(3) 1.0000(3) 0.79769(8)
H80_2 H 0.035206 0.890356 0.775388
C97_2 C 0.1743(4) 0.9170(6) 0.85739(8)
H81_2 H 0.045180 0.872204 0.872209
H82_2 H 0.317787 0.997901 0.848253
C99_2 C 0.0830(6) 0.2572(4) 0.85739(8)
H85_2 H 0.127796 0.172975 0.872209
H86_2 H 0.002099 0.319885 0.848253
N14_5 N 1.000000 1.000000 0.71546(14)
N15_3 N -0.000000 1.000000 0.80210(12)
C101_2 C 0.1381(4) 0.8386(6) 0.84092(8)
C103_2 C 0.1614(6) 0.2994(4) 0.84092(8)
H89_2 H 0.071291 0.793093 0.840867
C109_2 C 0.1953(4) 0.8280(6) 0.82574(8)
H91_2 H 0.206907 0.278197 0.840867
C111_2 C 0.1720(6) 0.3672(4) 0.82574(8)
C113_2 C 0.9685(3) 0.8423(4) 0.73041(8)
C121_2 C 0.1591(4) 0.7496(6) 0.80927(8)
H93_2 H 0.262043 0.873573 0.825799
C123_2 C 0.2504(6) 0.4094(4) 0.80927(8)
H95_2 H 0.126427 0.388469 0.825799
C125_2 C 0.9941(3) 0.7696(4) 0.73178(8)
H97_2 H 0.914720 0.836176 0.738115
C133_2 C 0.2218(4) 0.7478(6) 0.79386(10)
C134_2 C 0.0608(5) 0.6736(8) 0.80799(11)
C137_2 C 0.2522(6) 0.4739(5) 0.79386(10)
C138_2 C 0.3264(8) 0.3871(6) 0.80799(11)
H105_2 H 0.955391 0.713545 0.740000
C145_2 C 0.1881(4) 0.6786(6) 0.77768(9)
H113_2 H 0.288154 0.794462 0.794457
C146_2 C 0.0326(5) 0.6076(8) 0.79149(12)
H114_2 H 0.015547 0.668765 0.818413
C149_2 C 0.3214(6) 0.5094(4) 0.77768(9)
H117_2 H 0.205538 0.493691 0.794457
C150_2 C 0.3924(8) 0.4249(6) 0.79149(12)
H118_2 H 0.331235 0.346781 0.818413
N16_2 N 0.0933(3) 0.6079(4) 0.77588(6)
H121_2 H 0.232596 0.680495 0.767439
N18_2 N 0.3921(4) 0.4853(3) 0.77588(6)
H125_2 H 0.319505 0.552100 0.767439
H126_2 H 0.441177 0.408162 0.790887
O38_3 O 0.1853(3) 0.5589(4) 0.73732(6)
H129_3 H 0.200030 0.601870 0.727205
H130_3 H 0.226072 0.585297 0.747935
N15_4 N 1.000000 0.000000 0.80210(12)
C107_3 C 1.0000(3) 0.0889(4) 0.79769(8)
C117_2 C 0.9329(4) 0.1077(6) 0.80846(9)
H101_2 H 0.892173 0.065241 0.819256
C129_2 C 0.9274(4) 0.1898(6) 0.80298(8)
C143_2 C 0.9878(4) 0.2547(6) 0.78711(8)
H109_2 H 0.882185 0.201888 0.810082
C155_2 C 0.9771(4) 0.3404(6) 0.77984(9)
O35_2 O 0.9065(4) 0.3472(5) 0.78750(9)
C104_2 C 0.5473(7) 0.0154(5) 0.00044(9)
H92_2 H 0.574821 0.022315 0.014237
O13_2 O 0.9525(3) 0.2493(2) 0.93588(6)
O24_2 O 0.8923(4) 0.0403(2) 0.92934(6)
O25_2 O 0.7915(4) 0.2356(3) 0.90980(7)
N10_2 N 0.9413(4) 0.1813(3) 0.89078(6)
N11_2 N 0.7434(4) 0.0936(3) 0.94624(7)
H57_2 H 0.935204 0.068507 0.939461
H58_2 H 0.918631 0.025892 0.918731
H59_2 H 0.840277 0.294657 0.909165
H60_2 H 0.750435 0.233414 0.919423
C80_2 C 0.9410(8) 0.2417(6) 0.87517(12)
C81_2 C 0.7734(6) 0.0940(5) 0.96631(9)
C82_2 C 0.6479(7) 0.0648(5) 0.94340(9)
H74_2 H 0.892157 0.258504 0.875779
H75_2 H 0.838681 0.112125 0.968560
C93_2 C 0.7117(7) 0.0685(5) 0.98427(9)
H76_2 H 0.624976 0.062429 0.929275
C94_2 C 0.5834(7) 0.0391(5) 0.96043(9)
C100_2 C 0.6136(6) 0.0400(4) 0.98140(8)
H87_2 H 0.736025 0.070539 0.998237
H88_2 H 0.518288 0.020802 0.957706
N15_5 N 1.000000 1.000000 0.80210(12)
C108_2 C 0.9111(4) 0.9110(3) 0.79769(8)
C119_2 C 0.8923(6) 0.8251(4) 0.80846(9)
C120_2 C 0.8447(6) 0.9074(4) 0.78213(8)
H103_2 H 0.934759 0.826931 0.819256
C131_2 C 0.8102(6) 0.7375(4) 0.80298(8)
C132_2 C 0.7634(6) 0.8189(4) 0.77667(8)
H104_2 H 0.855151 0.964794 0.775388
C144_2 C 0.7453(6) 0.7330(4) 0.78711(8)
H111_2 H 0.798112 0.680296 0.810082
H112_2 H 0.720451 0.816792 0.765944
C156_2 C 0.6596(6) 0.6366(4) 0.77984(9)
H122_2 H 0.966986 0.558823 0.790887
O36_2 O 0.6039(4) 0.6393(2) 0.76608(6)
O37_2 O 0.6528(5) 0.5592(3) 0.78750(9)
O39_3 O 0.8892(3) 0.4581(4) 0.75686(7)
H131_3 H 0.878953 0.506943 0.757501
H132_3 H 0.850354 0.417101 0.747243
C124_2 C 0.3864(6) 0.9600(4) 0.01860(8)
C139_2 C 0.2883(7) 0.9315(5) 0.01573(9)
C140_2 C 0.4166(7) 0.9609(5) 0.03957(9)
C151_2 C 0.2266(6) 0.9060(5) 0.03369(9)
H119_2 H 0.263975 0.929461 0.001763
C152_2 C 0.3521(7) 0.9352(5) 0.05660(9)
H120_2 H 0.481712 0.979198 0.042294
N19_2 N 0.2566(4) 0.9064(3) 0.05376(7)
H127_2 H 0.161319 0.887875 0.031440
H128_2 H 0.375024 0.937571 0.070725
Co11_2 Co 0.15865(6) 0.86341(4) 0.08175(2)
C112_2 C 0.4527(7) 0.9846(5) 0.99956(9)
H96_2 H 0.425179 0.977685 0.985763
O38_4 O 0.4411(4) 0.6263(5) 0.73732(6)
O39_4 O 0.5419(4) 0.4310(5) 0.75686(7)
H129_4 H 0.398130 0.598159 0.727205
H130_4 H 0.414703 0.640774 0.747935
H131_4 H 0.493057 0.372009 0.757501
H132_4 H 0.582899 0.433252 0.747243
N4_3 N 0.000000 -0.000000 0.19790(12)
C34_3 C 0.0889(4) 0.0890(3) 0.20231(8)
C45_3 C 0.1077(6) 0.1749(4) 0.19154(9)
C46_3 C 0.1553(6) 0.0926(4) 0.21787(8)
H35_3 H 0.065241 0.173069 0.180744
C57_3 C 0.1898(6) 0.2625(4) 0.19702(8)
C58_3 C 0.2366(6) 0.1811(4) 0.22333(8)
H36_3 H 0.144849 0.035206 0.224612
C62_3 C 0.2547(6) 0.2670(4) 0.21289(8)
H47_3 H 0.201888 0.319704 0.189918
H48_3 H 0.279549 0.183208 0.234056
C66_3 C 0.3404(6) 0.3634(4) 0.22016(9)
O17_3 O 0.3961(4) 0.3607(2) 0.23392(6)
O18_3 O 0.3472(5) 0.4408(3) 0.21250(9)
Co7_3 Co 0.50801(6) 0.46993(4) 0.25159(2)
O32_3 O 0.0475(3) 0.7507(2) 0.06412(6)
N4_4 N 0.000000 1.000000 0.19790(12)
C33_3 C 0.0000(3) 0.9111(4) 0.20231(8)
C43_3 C 0.0671(4) 0.8923(6) 0.19154(9)
H33_3 H 0.107827 0.934759 0.180744
C55_3 C 0.0726(4) 0.8102(6) 0.19702(8)
C61_3 C 0.0122(4) 0.7453(6) 0.21289(8)
H45_3 H 0.117815 0.798112 0.189918
C65_3 C 0.0229(4) 0.6596(6) 0.22016(9)
O16_3 O 0.0935(4) 0.6528(5) 0.21250(9)
O28_3 O 0.1108(3) 0.5419(4) 0.24314(7)
N13_3 N 0.0169(3) 0.5900(4) 0.27958(7)
H63_3 H 0.121047 0.493057 0.242499
H64_3 H 0.149646 0.582899 0.252757
C135_3 C 0.3098(5) 0.0450(7) 0.34906(9)
C147_3 C 0.3460(4) 0.1067(6) 0.36702(9)
H115_3 H 0.332152 0.069358 0.335096
H123_3 H 0.393222 0.172014 0.364773
Co1_3 Co 0.53007(4) 0.03809(5) 0.25159(2)
O1_3 O 0.6263(2) 0.1853(3) 0.26268(6)
O2_3 O 0.4173(2) 0.0365(2) 0.26922(6)
O3_3 O 0.6393(2) 0.0355(3) 0.23392(6)
N1_3 N 0.4853(3) 0.0933(3) 0.22412(6)
H1_3 H 0.598159 0.200030 0.272795
H2_3 H 0.640774 0.226072 0.252065
C1_3 C 0.4025(3) 0.1028(3) 0.27648(7)
C3_3 C 0.5094(4) 0.1881(4) 0.22232(9)
C4_3 C 0.4249(6) 0.0326(5) 0.20851(12)
C5_3 C 0.5726(5) 0.0127(4) 0.29965(9)
O5_3 O 0.4694(2) 0.1881(2) 0.28164(6)
C7_3 C 0.2969(3) 0.0764(3) 0.27892(7)
H5_3 H 0.552100 0.232596 0.232561
C9_3 C 0.4739(5) 0.2218(4) 0.20614(10)
C10_3 C 0.3871(6) 0.0608(5) 0.19201(11)
H7_3 H 0.554541 0.059889 0.301894
C13_3 C 0.2706(3) 0.1318(3) 0.29158(8)
C16_3 C 0.8189(4) 0.0556(4) 0.22333(8)
C17_3 C 0.4094(4) 0.1591(4) 0.19073(8)
H9_3 H 0.493691 0.288154 0.205543
H10_3 H 0.346781 0.015547 0.181587
H13_3 H 0.318590 0.187105 0.298795
C19_3 C 0.1716(3) 0.1049(3) 0.29358(9)
H16_3 H 0.816792 0.096342 0.234056
C22_3 C 0.9074(4) 0.0628(4) 0.21787(8)
C23_3 C 0.3672(4) 0.1953(4) 0.17426(8)
C25_3 C 0.0998(3) 0.0249(3) 0.28279(8)
H17_3 H 0.154357 0.142037 0.302390
C26_3 C 0.9110(3) -0.0000(3) 0.20231(8)
H20_3 H 0.964794 0.109644 0.224612
H21_3 H 0.388469 0.262043 0.174201
N3_3 N 0.000000 -0.000000 0.28454(14)
N4_5 N 1.000000 -0.000000 0.19790(12)
C27_3 C 0.2994(4) 0.1381(4) 0.15908(8)
C29_3 C 0.2572(4) 0.1743(4) 0.14261(8)
H23_3 H 0.278197 0.071291 0.159133
C35_3 C 0.1927(5) 0.1116(4) 0.12720(10)
C36_3 C 0.2795(6) 0.2726(5) 0.14133(11)
C39_3 C 0.0315(3) 0.1577(4) 0.26959(8)
C47_3 C 0.1572(4) 0.1453(4) 0.11102(9)
H25_3 H 0.172975 0.045180 0.127791
C48_3 C 0.2417(6) 0.3008(5) 0.12483(12)
H26_3 H 0.319885 0.317787 0.151747
C51_3 C 0.0059(3) 0.2304(4) 0.26822(8)
H29_3 H 0.085280 0.163824 0.261885
N5_3 N 0.1813(3) 0.2401(3) 0.10922(6)
H37_3 H 0.114566 0.100738 0.100773
H38_3 H 0.258504 0.366348 0.124221
H41_3 H 0.044609 0.286455 0.260000
O7_3 O 0.0403(2) 0.1481(3) 0.07066(6)
O8_3 O 0.2493(2) 0.2969(2) 0.06412(6)
O9_3 O 0.0273(2) 0.2979(3) 0.09942(6)
O10_3 O 0.2356(3) 0.4442(3) 0.09020(7)
H49_3 H 0.068507 0.133304 0.060539
H50_3 H 0.025892 0.107262 0.081269
C67_3 C 0.2641(3) 0.2306(3) 0.05686(7)
C68_3 C 0.0300(4) 0.3563(4) 0.11318(9)
H51_3 H 0.294657 0.454381 0.090835
H52_3 H 0.233414 0.482980 0.080577
O19_3 O 0.1972(2) 0.1453(2) 0.05170(6)
C69_3 C 0.3697(3) 0.2570(3) 0.05442(7)
O20_3 O 0.1074(3) 0.4269(4) 0.12084(9)
C71_3 C 0.3960(3) 0.2016(3) 0.04176(8)
C72_3 C 0.4422(3) 0.3393(3) 0.06512(8)
C78_3 C 0.0836(5) 0.6855(7) 0.27674(9)
H65_3 H 0.348076 0.146229 0.034539
C83_3 C 0.4950(3) 0.2285(3) 0.03976(9)
H66_3 H 0.424821 0.377943 0.073334
C84_3 C 0.5405(3) 0.3649(3) 0.06375(8)
H70_3 H 0.033014 0.441177 0.209113
C89_3 C 0.0235(5) 0.6217(7) 0.31761(9)
H72_3 H 0.104120 0.708358 0.262609
C90_3 C 0.1224(5) 0.7500(7) 0.29377(9)
C95_3 C 0.5668(3) 0.3085(3) 0.05055(8)
H77_3 H 0.512309 0.191297 0.030944
H78_3 H 0.588123 0.418614 0.071449
C98_3 C 0.0931(4) 0.7198(6) 0.31474(8)
H83_3 H 0.001181 0.597309 0.331571
H84_3 H 0.169181 0.815046 0.291040
N14_6 N 0.666666 0.333334 0.04880(14)
C102_3 C 0.1348(5) 0.7861(7) 0.33378(9)
C105_3 C 0.6915(3) 0.2584(4) 0.05055(8)
C106_3 C 0.7416(4) 0.4332(3) 0.05055(8)
H90_3 H 0.114161 0.758513 0.347571
C110_3 C 0.1985(5) 0.8806(7) 0.33289(9)
C113_3 C 0.6351(3) 0.1757(4) 0.06375(8)
C114_3 C 0.7715(3) 0.2666(4) 0.03976(9)
C115_3 C 0.8243(4) 0.4595(3) 0.06375(8)
C116_3 C 0.7334(4) 0.5050(3) 0.03976(9)
C122_3 C 0.2402(4) 0.9469(6) 0.35193(8)
H94_3 H 0.219172 0.908154 0.319096
C125_3 C 0.6607(3) 0.1030(4) 0.06512(8)
H97_3 H 0.581386 0.169510 0.071449
C126_3 C 0.7984(3) 0.1945(4) 0.04176(8)
H98_3 H 0.808703 0.321013 0.030944
C127_3 C 0.8970(4) 0.5578(3) 0.06512(8)
H99_3 H 0.830490 0.411877 0.071449
C128_3 C 0.8055(4) 0.6040(3) 0.04176(8)
H100_3 H 0.678987 0.487691 0.030944
C136_3 C 0.2109(5) 0.9167(7) 0.37290(9)
C141_3 C 0.7430(3) 0.1128(4) 0.05442(7)
H105_3 H 0.622057 0.046879 0.073334
H106_3 H 0.853771 0.201848 0.034539
C142_3 C 0.8872(4) 0.6303(3) 0.05442(7)
H107_3 H 0.953121 0.575179 0.073334
H108_3 H 0.798152 0.651924 0.034539
C148_3 C 0.2497(5) 0.9812(7) 0.38993(9)
H116_3 H 0.164152 0.851621 0.375627
C153_3 C 0.7694(3) 0.0336(4) 0.05686(7)
C154_3 C 0.9664(4) 0.7359(3) 0.05686(7)
H124_3 H 0.229213 0.958309 0.404058
O31_3 O 0.8547(2) 0.0520(3) 0.05170(6)
O33_3 O 0.9480(3) 0.8028(2) 0.05170(6)
O4_3 O 0.4310(3) 0.8892(3) 0.24314(7)
N2_3 N 0.5730(3) 0.9831(3) 0.27958(7)
C2_3 C 0.6366(4) 0.9771(4) 0.22016(9)
H3_3 H 0.372009 0.878953 0.242499
H4_3 H 0.433252 0.850354 0.252757
C6_3 C 0.6018(5) 0.9164(5) 0.27674(9)
O6_3 O 0.5592(3) 0.9065(4) 0.21250(9)
C8_3 C 0.7330(4) 0.9878(4) 0.21289(8)
H6_3 H 0.408162 0.966986 0.209113
C11_3 C 0.5981(5) 0.9765(5) 0.31761(9)
H8_3 H 0.604237 0.895880 0.262609
C12_3 C 0.6275(5) 0.8776(5) 0.29377(9)
C14_3 C 0.2244(3) 0.9941(3) 0.26822(8)
C15_3 C 0.7375(4) 0.9274(4) 0.19702(8)
C18_3 C 0.6266(4) 0.9069(4) 0.31474(8)
H11_3 H 0.596127 0.998819 0.331571
H12_3 H 0.645864 0.830819 0.291040
H14_3 H 0.241845 0.955391 0.260000
C20_3 C 0.1261(3) 0.9685(3) 0.26959(8)
C21_3 C 0.8251(4) 0.9329(4) 0.19154(9)
H15_3 H 0.680296 0.882185 0.189918
C24_3 C 0.6512(5) 0.8652(5) 0.33378(9)
H18_3 H 0.078543 0.914720 0.261885
C26_4 C 0.9110(3) 1.0000(3) 0.20231(8)
H19_3 H 0.826931 0.892173 0.180744
H22_3 H 0.644351 0.885839 0.347571
N3_4 N 0.000000 1.000000 0.28454(14)
N4_6 N 1.000000 1.000000 0.19790(12)
C28_3 C 0.6821(5) 0.8015(5) 0.33289(9)
C30_3 C 0.7067(4) 0.7598(4) 0.35193(8)
H24_3 H 0.688982 0.780828 0.319096
C33_4 C 1.0000(3) 0.9111(4) 0.20231(8)
C37_3 C 0.7352(5) 0.6902(5) 0.34906(9)
C38_3 C 0.7058(5) 0.7891(5) 0.37290(9)
C44_3 C 0.9372(4) 0.8447(6) 0.21787(8)
C49_3 C 0.7607(5) 0.6540(4) 0.36702(9)
H27_3 H 0.737206 0.667848 0.335096
C50_3 C 0.7315(5) 0.7503(5) 0.38993(9)
H28_3 H 0.687469 0.835848 0.375627
C56_3 C 0.9444(4) 0.7634(6) 0.22333(8)
H34_3 H 0.890356 0.855151 0.224612
H39_3 H 0.778792 0.606778 0.364773
H40_3 H 0.729096 0.770787 0.404058
H46_3 H 0.903658 0.720451 0.234056
O15_3 O 0.9645(3) 0.6039(4) 0.23392(6)
Co6_3 Co 0.96191(5) 0.49199(6) 0.25159(2)
O27_3 O 0.8147(3) 0.4411(4) 0.26268(6)
O29_3 O 0.9635(2) 0.3809(3) 0.26922(6)
N12_3 N 0.9067(3) 0.3921(4) 0.22412(6)
H61_3 H 0.799970 0.398130 0.272795
H62_3 H 0.773928 0.414703 0.252065
C150_3 C 0.0590(8) 0.7583(6) 0.12483(12)
N18_3 N 0.0587(4) 0.8187(3) 0.10922(6)
H126_3 H 0.107843 0.741496 0.124221
O30_3 O 0.7031(2) 0.9525(3) 0.06412(6)
N3_5 N 1.000000 -0.000000 0.28454(14)
C31_3 C 0.9751(3) 0.0750(4) 0.28279(8)
C40_3 C 0.8951(3) 0.0668(4) 0.29358(9)
C52_3 C 0.8682(3) 0.1389(4) 0.29158(8)
H30_3 H 0.857963 0.012321 0.302390
C59_3 C 0.9236(3) 0.2206(4) 0.27892(7)
H42_3 H 0.812895 0.131486 0.298795
C63_3 C 0.8972(3) 0.2998(4) 0.27648(7)
O12_3 O 0.8119(2) 0.2814(3) 0.28164(6)
C70_3 C 0.9336(4) 0.3456(4) 0.12045(8)
C73_3 C 0.9291(4) 0.4060(4) 0.13632(8)
C74_3 C 0.8477(4) 0.2778(4) 0.11001(8)
C75_3 C 0.8119(4) 0.3214(6) 0.22232(9)
C76_3 C 0.9674(5) 0.3924(8) 0.20851(12)
C77_3 C 0.9873(4) 0.5600(6) 0.29965(9)
C85_3 C 0.8415(4) 0.4005(4) 0.14180(9)
H67_3 H 0.986370 0.451149 0.143416
H68_3 H 0.849874 0.236992 0.099278
C86_3 C 0.7592(4) 0.2706(4) 0.11547(8)
H69_3 H 0.767404 0.319505 0.232561
C87_3 C 0.7782(4) 0.2522(6) 0.20614(10)
C88_3 C 0.9392(5) 0.3264(8) 0.19201(11)
H71_3 H 0.940111 0.494653 0.301894
C96_4 C 0.7556(3) 0.3334(3) 0.13103(8)
H79_3 H 0.839735 0.441161 0.152590
H80_3 H 0.701872 0.223690 0.108722
C97_3 C 0.8409(4) 0.2504(6) 0.19073(8)
H81_3 H 0.711846 0.205538 0.205543
H82_3 H 0.984453 0.331235 0.181587
N15_6 N 0.666666 0.333334 0.13544(12)
C101_3 C 0.8047(4) 0.1720(6) 0.17426(8)
C107_4 C 0.6666(3) 0.4223(4) 0.13103(8)
C108_3 C 0.5777(4) 0.2444(3) 0.13103(8)
H89_3 H 0.737957 0.126427 0.174201
C109_3 C 0.8619(4) 0.1614(6) 0.15908(8)
C117_3 C 0.5995(4) 0.4411(6) 0.14180(9)
C118_3 C 0.7294(4) 0.4887(6) 0.11547(8)
C119_3 C 0.5589(6) 0.1585(4) 0.14180(9)
C120_3 C 0.5113(6) 0.2408(4) 0.11547(8)
C121_3 C 0.8257(4) 0.0830(6) 0.14261(8)
H93_3 H 0.928709 0.206907 0.159133
H101_3 H 0.558839 0.398575 0.152590
C129_3 C 0.5940(4) 0.5232(6) 0.13632(8)
C130_3 C 0.7222(4) 0.5700(6) 0.11001(8)
H102_3 H 0.776310 0.478183 0.108722
H103_3 H 0.601425 0.160265 0.152590
C131_3 C 0.4768(6) 0.0709(4) 0.13632(8)
C132_3 C 0.4300(6) 0.1523(4) 0.11001(8)
H104_3 H 0.521817 0.298128 0.108722
C133_3 C 0.8884(4) 0.0812(6) 0.12720(10)
C134_3 C 0.7274(5) 0.0070(8) 0.14133(11)
C143_3 C 0.6544(4) 0.5881(6) 0.12045(8)
H109_3 H 0.548851 0.535222 0.143416
H110_3 H 0.763008 0.612883 0.099278
C144_3 C 0.4119(6) 0.0664(4) 0.12045(8)
H111_3 H 0.464778 0.013630 0.143416
H112_3 H 0.387117 0.150126 0.099278
C145_3 C 0.8547(4) 0.0120(6) 0.11102(9)
H113_3 H 0.954820 0.127796 0.127791
H114_3 H 0.682213 0.002099 0.151747
C155_3 C 0.6437(4) 0.6738(6) 0.11318(9)
H121_3 H 0.899262 0.013829 0.100773
O34_3 O 0.7021(3) 0.7295(4) 0.09942(6)
O35_3 O 0.5731(4) 0.6806(5) 0.12084(9)
N3_6 N 1.000000 1.000000 0.28454(14)
C32_3 C 0.9250(4) 0.9002(3) 0.28279(8)
C41_3 C 0.8423(4) 0.8739(3) 0.26959(8)
C42_3 C 0.9332(4) 0.8284(3) 0.29358(9)
C53_3 C 0.7696(4) 0.7756(3) 0.26822(8)
H31_3 H 0.836176 0.921457 0.261885
C54_3 C 0.8611(4) 0.7294(3) 0.29158(8)
H32_3 H 0.987679 0.845643 0.302390
C60_3 C 0.7794(4) 0.7031(3) 0.27892(7)
H43_3 H 0.713545 0.758155 0.260000
H44_3 H 0.868514 0.681410 0.298795
C64_3 C 0.7002(4) 0.5975(3) 0.27648(7)
O13_3 O 0.6191(3) 0.5827(2) 0.26922(6)
O14_3 O 0.7186(3) 0.5306(2) 0.28164(6)
O24_3 O 0.5589(4) 0.3737(2) 0.26268(6)
O25_3 O 0.4581(4) 0.5690(3) 0.24314(7)
N10_3 N 0.6079(4) 0.5147(3) 0.22412(6)
N11_3 N 0.4100(4) 0.4270(3) 0.27958(7)
H57_3 H 0.601870 0.401841 0.272795
H58_3 H 0.585297 0.359226 0.252065
H59_3 H 0.506943 0.627991 0.242499
H60_3 H 0.417101 0.566748 0.252757
C79_3 C 0.6786(6) 0.4906(4) 0.22232(9)
C80_3 C 0.6076(8) 0.5751(6) 0.20851(12)
C81_3 C 0.4400(6) 0.4274(5) 0.29965(9)
C82_3 C 0.3145(7) 0.3982(5) 0.27674(9)
H73_3 H 0.680495 0.447900 0.232561
C91_3 C 0.7478(6) 0.5261(5) 0.20614(10)
H74_3 H 0.558823 0.591838 0.209113
C92_3 C 0.6736(8) 0.6129(6) 0.19201(11)
H75_3 H 0.505347 0.445459 0.301894
C93_3 C 0.3783(7) 0.4019(5) 0.31761(9)
H76_3 H 0.291642 0.395763 0.262609
C94_3 C 0.2500(7) 0.3725(5) 0.29377(9)
C99_3 C 0.7496(6) 0.5906(4) 0.19073(8)
H85_3 H 0.794462 0.506309 0.205543
H86_3 H 0.668765 0.653219 0.181587
C100_3 C 0.2802(6) 0.3734(4) 0.31474(8)
H87_3 H 0.402691 0.403873 0.331571
H88_3 H 0.184954 0.354136 0.291040
C103_3 C 0.8280(6) 0.6328(4) 0.17426(8)
C104_3 C 0.2139(7) 0.3488(5) 0.33378(9)
H91_3 H 0.873573 0.611531 0.174201
C111_3 C 0.8386(6) 0.7006(4) 0.15908(8)
H92_3 H 0.241487 0.355649 0.347571
C112_3 C 0.1194(7) 0.3179(5) 0.33289(9)
C123_3 C 0.9170(6) 0.7428(4) 0.14261(8)
H95_3 H 0.793093 0.721803 0.159133
C124_3 C 0.0531(6) 0.2933(4) 0.35193(8)
H96_3 H 0.091846 0.311018 0.319096
C137_3 C 0.9188(6) 0.8073(5) 0.12720(10)
C138_3 C 0.9930(8) 0.7205(6) 0.14133(11)
C140_3 C 0.0833(7) 0.2942(5) 0.37290(9)
C146_3 C 0.6992(5) 0.9410(8) 0.12483(12)
C149_3 C 0.9880(6) 0.8428(4) 0.11102(9)
H117_3 H 0.872204 0.827025 0.127791
H118_3 H 0.997901 0.680115 0.151747
C152_3 C 0.0188(7) 0.2685(5) 0.38993(9)
H120_3 H 0.148379 0.312531 0.375627
C156_3 C 0.3262(6) 0.9700(4) 0.11318(9)
N16_3 N 0.7599(3) 0.9413(4) 0.10922(6)
H122_3 H 0.633652 0.892157 0.124221
H125_3 H 0.986171 0.885434 0.100773
H128_3 H 0.041691 0.270904 0.404058
O36_3 O 0.2705(4) 0.9727(2) 0.09942(6)
O37_3 O 0.3194(5) 0.8926(3) 0.12084(9)
O38_5 O 0.8519(3) 0.8923(4) 0.07066(6)
O39_5 O 0.5558(3) 0.7915(4) 0.09020(7)
H129_5 H 0.866696 0.935204 0.060539
H130_5 H 0.892738 0.918631 0.081269
H131_5 H 0.545619 0.840277 0.090835
H132_5 H 0.517020 0.750435 0.080577
C139_3 C 0.9550(7) 0.2648(5) 0.34906(9)
C151_3 C 0.8933(6) 0.2393(5) 0.36702(9)
H119_3 H 0.930642 0.262794 0.335096
H127_3 H 0.827986 0.221208 0.364773
O38_6 O 0.1077(4) 0.9597(5) 0.07066(6)
O39_6 O 0.2085(4) 0.7644(5) 0.09020(7)
H129_6 H 0.064796 0.931493 0.060539
H130_6 H 0.081369 0.974108 0.081269
H131_6 H 0.159723 0.705343 0.090835
H132_6 H 0.249565 0.766586 0.080577
loop_
_geom_bond_atom_site_label_1
_geom_bond_atom_site_label_2
_geom_bond_site_symmetry_1
_geom_bond_site_symmetry_2
O17 C66 1_555 1_555
O18 C66 1_555 1_555
Co7 O17 1_555 1_555
H123 C147 1_555 1_555
O32 C154 1_555 1_555
O33 C154 1_555 1_555
Co13 O32 1_555 1_555
Co1 O1 1_555 1_555
O1 H1 1_555 1_555
O2 Co1 1_555 1_555
O3 Co1 1_555 1_555
O4 Co1 1_555 1_555
N1 Co1 1_555 1_555
N2 Co1 1_555 1_555
H2 O1 1_555 1_555
C1 O2 1_555 1_555
C2 O3 1_555 1_555
H3 O4 1_555 1_555
H4 O4 1_555 1_555
C3 N1 1_555 1_555
C4 N1 1_555 1_555
C5 N2 1_555 1_555
C6 N2 1_555 1_555
O5 C1 1_555 1_555
O6 C2 1_555 1_555
C8 C2 1_555 1_555
H5 C3 1_555 1_555
C9 C3 1_555 1_555
H6 C4 1_555 1_555
C10 C4 1_555 1_555
H7 C5 1_555 1_555
C11 C5 1_555 1_555
H8 C6 1_555 1_555
C12 C6 1_555 1_555
C15 C8 1_555 1_555
C16 C8 1_555 1_555
C17 C9 1_555 1_555
H9 C9 1_555 1_555
H10 C10 1_555 1_555
C18 C11 1_555 1_555
H11 C11 1_555 1_555
H12 C12 1_555 1_555
C21 C15 1_555 1_555
H15 C15 1_555 1_555
H16 C16 1_555 1_555
C22 C16 1_555 1_555
C23 C17 1_555 1_555
C24 C18 1_555 1_555
C26 C21 1_555 1_555
H19 C21 1_555 1_555
H20 C22 1_555 1_555
H21 C23 1_555 1_555
H22 C24 1_555 1_555
N4 C26 1_555 1_555
C28 C24 1_555 1_555
C30 C28 1_555 1_555
H24 C28 1_555 1_555
C33 N4 1_555 1_555
C34 N4 1_555 1_555
C37 C30 1_555 1_555
C38 C30 1_555 1_555
C43 C33 1_555 1_555
C44 C33 1_555 1_555
C45 C34 1_555 1_555
C46 C34 1_555 1_555
H27 C37 1_555 1_555
C50 C38 1_555 1_555
H28 C38 1_555 1_555
H33 C43 1_555 1_555
C55 C43 1_555 1_555
C56 C44 1_555 1_555
H34 C44 1_555 1_555
H35 C45 1_555 1_555
C57 C45 1_555 1_555
C58 C46 1_555 1_555
H36 C46 1_555 1_555
H40 C50 1_555 1_555
C61 C55 1_555 1_555
H45 C55 1_555 1_555
H46 C56 1_555 1_555
C62 C57 1_555 1_555
H47 C57 1_555 1_555
H48 C58 1_555 1_555
C71 C69 1_555 1_555
C72 C69 1_555 1_555
H65 C71 1_555 1_555
C83 C71 1_555 1_555
H66 C72 1_555 1_555
C84 C72 1_555 1_555
C95 C83 1_555 1_555
H77 C83 1_555 1_555
H78 C84 1_555 1_555
N14 C95 1_555 1_555
C105 N14 1_555 1_555
C106 N14 1_555 1_555
C113 C105 1_555 1_555
C114 C105 1_555 1_555
C115 C106 1_555 1_555
C116 C106 1_555 1_555
C125 C113 1_555 1_555
H97 C113 1_555 1_555
C126 C114 1_555 1_555
H98 C114 1_555 1_555
C127 C115 1_555 1_555
H99 C115 1_555 1_555
C128 C116 1_555 1_555
H100 C116 1_555 1_555
C141 C125 1_555 1_555
H105 C125 1_555 1_555
H106 C126 1_555 1_555
C142 C127 1_555 1_555
H107 C127 1_555 1_555
H108 C128 1_555 1_555
C153 C141 1_555 1_555
O30 C153 1_555 1_555
O31 C153 1_555 1_555
Co12 O30 1_555 1_555
C10 C17 1_555 1_555
C12 C18 1_555 1_555
C22 C26 1_555 1_555
C50 N6 1_555 1_555
C56 C61 1_555 1_555
C58 C62 1_555 1_555
C84 C95 1_555 1_555
C126 C141 1_555 1_555
C128 C142 1_555 1_555
H39 C49 1_555 1_555
O15 C65 1_555 1_555
O16 C65 1_555 1_555
Co6 O15 1_555 1_555
O27 Co6 1_555 1_555
O28 Co6 1_555 1_555
O29 Co6 1_555 1_555
N12 Co6 1_555 1_555
N13 Co6 1_555 1_555
H61 O27 1_555 1_555
H62 O27 1_555 1_555
H63 O28 1_555 1_555
H64 O28 1_555 1_555
H72 C78 1_555 1_555
C90 C78 1_555 1_555
H84 C90 1_555 1_555
C102 C98 1_555 1_555
H90 C102 1_555 1_555
C110 C102 1_555 1_555
C122 C110 1_555 1_555
H94 C110 1_555 1_555
C135 C122 1_555 1_555
C136 C122 1_555 1_555
H115 C135 1_555 1_555
C148 C136 1_555 1_555
H116 C136 1_555 1_555
H124 C148 1_555 1_555
O34 C155 1_555 1_555
O35 C155 1_555 1_555
Co12 O34 1_555 1_555
C90 C98 1_555 1_555
C148 N17 1_555 1_555
C13 C7 1_555 1_555
C14 C7 1_555 1_555
H13 C13 1_555 1_555
C19 C13 1_555 1_555
H14 C14 1_555 1_555
C20 C14 1_555 1_555
C25 C19 1_555 1_555
H17 C19 1_555 1_555
H18 C20 1_555 1_555
N3 C25 1_555 1_555
C29 C27 1_555 1_555
H23 C27 1_555 1_555
C31 N3 1_555 1_555
C32 N3 1_555 1_555
C35 C29 1_555 1_555
C36 C29 1_555 1_555
C39 C31 1_555 1_555
C40 C31 1_555 1_555
C41 C32 1_555 1_555
C42 C32 1_555 1_555
C47 C35 1_555 1_555
H25 C35 1_555 1_555
C48 C36 1_555 1_555
H26 C36 1_555 1_555
C51 C39 1_555 1_555
H29 C39 1_555 1_555
C52 C40 1_555 1_555
H30 C40 1_555 1_555
C53 C41 1_555 1_555
H31 C41 1_555 1_555
C54 C42 1_555 1_555
H32 C42 1_555 1_555
N5 C47 1_555 1_555
H37 C47 1_555 1_555
H38 C48 1_555 1_555
C59 C51 1_555 1_555
H41 C51 1_555 1_555
H42 C52 1_555 1_555
C60 C53 1_555 1_555
H43 C53 1_555 1_555
H44 C54 1_555 1_555
Co2 N5 1_555 1_555
C63 C59 1_555 1_555
O7 Co2 1_555 1_555
O8 Co2 1_555 1_555
O9 Co2 1_555 1_555
O10 Co2 1_555 1_555
N7 Co2 1_555 1_555
O29 C63 1_555 1_555
O12 C63 1_555 1_555
H49 O7 1_555 1_555
H50 O7 1_555 1_555
C67 O8 1_555 1_555
C68 O9 1_555 1_555
H51 O10 1_555 1_555
H52 O10 1_555 1_555
O19 C67 1_555 1_555
O20 C68 1_555 1_555
C70 C68 1_555 1_555
C73 C70 1_555 1_555
C74 C70 1_555 1_555
C75 N12 1_555 1_555
C76 N12 1_555 1_555
C77 N13 1_555 1_555
C85 C73 1_555 1_555
H67 C73 1_555 1_555
H68 C74 1_555 1_555
C86 C74 1_555 1_555
H69 C75 1_555 1_555
C87 C75 1_555 1_555
H70 C76 1_555 1_555
C88 C76 1_555 1_555
H71 C77 1_555 1_555
C89 C77 1_555 1_555
C96 C85 1_555 1_555
H79 C85 1_555 1_555
H80 C86 1_555 1_555
C97 C87 1_555 1_555
H81 C87 1_555 1_555
H82 C88 1_555 1_555
H83 C89 1_555 1_555
N15 C96 1_555 1_555
C101 C97 1_555 1_555
C107 N15 1_555 1_555
C108 N15 1_555 1_555
H89 C101 1_555 1_555
C109 C101 1_555 1_555
C117 C107 1_555 1_555
C118 C107 1_555 1_555
C119 C108 1_555 1_555
C120 C108 1_555 1_555
C121 C109 1_555 1_555
H93 C109 1_555 1_555
C123 C111 1_555 1_555
H95 C111 1_555 1_555
H101 C117 1_555 1_555
C129 C117 1_555 1_555
C130 C118 1_555 1_555
H102 C118 1_555 1_555
H103 C119 1_555 1_555
C131 C119 1_555 1_555
C132 C120 1_555 1_555
H104 C120 1_555 1_555
C133 C121 1_555 1_555
C134 C121 1_555 1_555
C137 C123 1_555 1_555
C138 C123 1_555 1_555
C143 C129 1_555 1_555
H109 C129 1_555 1_555
H110 C130 1_555 1_555
C144 C131 1_555 1_555
H111 C131 1_555 1_555
H112 C132 1_555 1_555
C145 C133 1_555 1_555
H113 C133 1_555 1_555
C146 C134 1_555 1_555
H114 C134 1_555 1_555
C149 C137 1_555 1_555
H117 C137 1_555 1_555
C150 C138 1_555 1_555
H118 C138 1_555 1_555
N16 C145 1_555 1_555
H121 C145 1_555 1_555
H122 C146 1_555 1_555
N18 C149 1_555 1_555
H125 C149 1_555 1_555
H126 C150 1_555 1_555
Co12 N16 1_555 1_555
Co13 N18 1_555 1_555
O38 Co12 1_555 1_555
O39 Co12 1_555 1_555
N20 Co12 1_555 1_555
H129 O38 1_555 1_555
H130 O38 1_555 1_555
H131 O39 1_555 1_555
H132 O39 1_555 1_555
C20 C25 1_555 1_555
C48 N5 1_555 1_555
C52 C59 1_555 1_555
C54 C60 1_555 1_555
C86 C96 1_555 1_555
C88 C97 1_555 1_555
C130 C143 1_555 1_555
C132 C144 1_555 1_555
C146 N16 1_555 1_555
C150 N18 1_555 1_555
O13 C64 1_555 1_555
O14 C64 1_555 1_555
Co7 O13 1_555 1_555
O24 Co7 1_555 1_555
O25 Co7 1_555 1_555
N10 Co7 1_555 1_555
N11 Co7 1_555 1_555
H57 O24 1_555 1_555
H58 O24 1_555 1_555
H59 O25 1_555 1_555
H60 O25 1_555 1_555
C79 N10 1_555 1_555
C80 N10 1_555 1_555
C81 N11 1_555 1_555
H73 C79 1_555 1_555
C91 C79 1_555 1_555
H74 C80 1_555 1_555
C92 C80 1_555 1_555
H75 C81 1_555 1_555
C93 C81 1_555 1_555
C99 C91 1_555 1_555
H85 C91 1_555 1_555
H86 C92 1_555 1_555
H87 C93 1_555 1_555
C103 C99 1_555 1_555
H91 C103 1_555 1_555
C92 C99 1_555 1_555
O36 C156 1_555 1_555
O37 C156 1_555 1_555
Co13 O36 1_555 1_555
H76 C82 1_555 1_555
C94 C82 1_555 1_555
H88 C94 1_555 1_555
C104 C100 1_555 1_555
H92 C104 1_555 1_555
C112 C104 1_555 1_555
C124 C112 1_555 1_555
H96 C112 1_555 1_555
C139 C124 1_555 1_555
C140 C124 1_555 1_555
C151 C139 1_555 1_555
H119 C139 1_555 1_555
C152 C140 1_555 1_555
H120 C140 1_555 1_555
N19 C151 1_555 1_555
H127 C151 1_555 1_555
H128 C152 1_555 1_555
Co11 N19 1_555 1_555
C94 C100 1_555 1_555
C152 N19 1_555 1_555
O38_2 Co13 1_555 1_555
O39_2 Co13 1_555 1_555
N20_2 Co13 1_555 1_555
H129_2 O38_2 1_555 1_555
H130_2 O38_2 1_555 1_555
H131_2 O39_2 1_555 1_555
H132_2 O39_2 1_555 1_555
O17_2 C66_2 1_555 1_555
O18_2 C66_2 1_555 1_555
Co7_2 O17_2 1_555 1_555
C106_2 N14_2 1_555 1_555
C115_2 C106_2 1_555 1_555
C116_2 C106_2 1_555 1_555
C127_2 C115_2 1_555 1_555
H99_2 C115_2 1_555 1_555
C128_2 C116_2 1_555 1_555
H100_2 C116_2 1_555 1_555
C142_2 C127_2 1_555 1_555
H107_2 C127_2 1_555 1_555
H108_2 C128_2 1_555 1_555
C154_2 C142_2 1_555 1_555
O32_2 C154_2 1_555 1_555
O33_2 C154_2 1_555 1_555
Co11 O32_2 1_555 1_555
C128_2 C142_2 1_555 1_555
C37_2 C30_2 1_555 1_555
C38_2 C30_2 1_555 1_555
C49_2 C37_2 1_555 1_555
H27_2 C37_2 1_555 1_555
C50_2 C38_2 1_555 1_555
H28_2 C38_2 1_555 1_555
N6_2 C49_2 1_555 1_555
H39_2 C49_2 1_555 1_555
H40_2 C50_2 1_555 1_555
Co3_2 N6_2 1_555 1_555
C50_2 N6_2 1_555 1_555
C15_2 C8_2 1_555 1_555
C16_2 C8_2 1_555 1_555
C21_2 C15_2 1_555 1_555
H15_2 C15_2 1_555 1_555
H16_2 C16_2 1_555 1_555
C22_2 C16_2 1_555 1_555
C26_2 C21_2 1_555 1_555
H19_2 C21_2 1_555 1_555
H20_2 C22_2 1_555 1_555
N4_2 C26_2 1_555 1_555
H24_2 C28_2 1_555 1_555
C33_2 N4_2 1_555 1_555
C34_2 N4_2 1_555 1_555
C43_2 C33_2 1_555 1_555
C44_2 C33_2 1_555 1_555
C45_2 C34_2 1_555 1_555
C46_2 C34_2 1_555 1_555
H33_2 C43_2 1_555 1_555
C55_2 C43_2 1_555 1_555
C56_2 C44_2 1_555 1_555
H34_2 C44_2 1_555 1_555
H35_2 C45_2 1_555 1_555
C57_2 C45_2 1_555 1_555
C58_2 C46_2 1_555 1_555
H36_2 C46_2 1_555 1_555
C61_2 C55_2 1_555 1_555
H45_2 C55_2 1_555 1_555
H46_2 C56_2 1_555 1_555
C62_2 C57_2 1_555 1_555
H47_2 C57_2 1_555 1_555
H48_2 C58_2 1_555 1_555
C65_2 C61_2 1_555 1_555
O15_2 C65_2 1_555 1_555
O16_2 C65_2 1_555 1_555
Co6_2 O15_2 1_555 1_555
O27_2 Co6_2 1_555 1_555
O28_2 Co6_2 1_555 1_555
O29_2 Co6_2 1_555 1_555
N12_2 Co6_2 1_555 1_555
N13_2 Co6_2 1_555 1_555
H61_2 O27_2 1_555 1_555
H62_2 O27_2 1_555 1_555
H63_2 O28_2 1_555 1_555
H64_2 O28_2 1_555 1_555
C105_2 N14_3 1_555 1_555
C114_2 C105_2 1_555 1_555
C126_2 C114_2 1_555 1_555
H98_2 C114_2 1_555 1_555
H106_2 C126_2 1_555 1_555
C153_2 C141_2 1_555 1_555
O30_2 C153_2 1_555 1_555
O31_2 C153_2 1_555 1_555
Co9 O30_2 1_555 1_555
C22_2 C26_2 1_555 1_555
C56_2 C61_2 1_555 1_555
C58_2 C62_2 1_555 1_555
C126_2 C141_2 1_555 1_555
H90_2 C102_2 1_555 1_555
C135_2 C122_2 1_555 1_555
C136_2 C122_2 1_555 1_555
C147_2 C135_2 1_555 1_555
H115_2 C135_2 1_555 1_555
C148_2 C136_2 1_555 1_555
H116_2 C136_2 1_555 1_555
N17_2 C147_2 1_555 1_555
H123_2 C147_2 1_555 1_555
H124_2 C148_2 1_555 1_555
Co9_2 N17_2 1_555 1_555
C148_2 N17_2 1_555 1_555
H51_2 O10_2 1_555 1_555
H52_2 O10_2 1_555 1_555
O20_2 C68_2 1_555 1_555
C70_2 C68_2 1_555 1_555
C73_2 C70_2 1_555 1_555
C76_2 N12_2 1_555 1_555
C77_2 N13_2 1_555 1_555
C78_2 N13_2 1_555 1_555
H66_2 C72_2 1_555 1_555
C84_2 C72_2 1_555 1_555
C85_2 C73_2 1_555 1_555
H67_2 C73_2 1_555 1_555
H70_2 C76_2 1_555 1_555
H71_2 C77_2 1_555 1_555
C89_2 C77_2 1_555 1_555
H72_2 C78_2 1_555 1_555
C90_2 C78_2 1_555 1_555
H78_2 C84_2 1_555 1_555
C96_2 C85_2 1_555 1_555
H79_2 C85_2 1_555 1_555
C98_2 C89_2 1_555 1_555
H83_2 C89_2 1_555 1_555
H84_2 C90_2 1_555 1_555
N15_2 C96_2 1_555 1_555
C107_2 N15_2 1_555 1_555
C118_2 C107_2 1_555 1_555
H94_2 C110_2 1_555 1_555
C130_2 C118_2 1_555 1_555
H102_2 C118_2 1_555 1_555
H110_2 C130_2 1_555 1_555
Co9 O34_2 1_555 1_555
C90_2 C98_2 1_555 1_555
H22_2 C24_2 1_555 1_555
Co1_2 O1_2 1_555 1_555
O1_2 H1_2 1_555 1_555
O2_2 Co1_2 1_555 1_555
O3_2 Co1_2 1_555 1_555
O4_2 Co1_2 1_555 1_555
N1_2 Co1_2 1_555 1_555
N2_2 Co1_2 1_555 1_555
H2_2 O1_2 1_555 1_555
C1_2 O2_2 1_555 1_555
C2_2 O3_2 1_555 1_555
H3_2 O4_2 1_555 1_555
H4_2 O4_2 1_555 1_555
C3_2 N1_2 1_555 1_555
C4_2 N1_2 1_555 1_555
C5_2 N2_2 1_555 1_555
C6_2 N2_2 1_555 1_555
O5_2 C1_2 1_555 1_555
C7_2 C1_2 1_555 1_555
O6_2 C2_2 1_555 1_555
H5_2 C3_2 1_555 1_555
C9_2 C3_2 1_555 1_555
H6_2 C4_2 1_555 1_555
C10_2 C4_2 1_555 1_555
H7_2 C5_2 1_555 1_555
C11_2 C5_2 1_555 1_555
H8_2 C6_2 1_555 1_555
C12_2 C6_2 1_555 1_555
C13_2 C7_2 1_555 1_555
C14_2 C7_2 1_555 1_555
C17_2 C9_2 1_555 1_555
H9_2 C9_2 1_555 1_555
H10_2 C10_2 1_555 1_555
C18_2 C11_2 1_555 1_555
H11_2 C11_2 1_555 1_555
H12_2 C12_2 1_555 1_555
H13_2 C13_2 1_555 1_555
C19_2 C13_2 1_555 1_555
H14_2 C14_2 1_555 1_555
C20_2 C14_2 1_555 1_555
C23_2 C17_2 1_555 1_555
C25_2 C19_2 1_555 1_555
H17_2 C19_2 1_555 1_555
H18_2 C20_2 1_555 1_555
H21_2 C23_2 1_555 1_555
N3_2 C25_2 1_555 1_555
C27_2 C23_2 1_555 1_555
C29_2 C27_2 1_555 1_555
H23_2 C27_2 1_555 1_555
C31_2 N3_2 1_555 1_555
C32_2 N3_2 1_555 1_555
C35_2 C29_2 1_555 1_555
C36_2 C29_2 1_555 1_555
C39_2 C31_2 1_555 1_555
C40_2 C31_2 1_555 1_555
C41_2 C32_2 1_555 1_555
C42_2 C32_2 1_555 1_555
C47_2 C35_2 1_555 1_555
H25_2 C35_2 1_555 1_555
C48_2 C36_2 1_555 1_555
H26_2 C36_2 1_555 1_555
C51_2 C39_2 1_555 1_555
H29_2 C39_2 1_555 1_555
C52_2 C40_2 1_555 1_555
H30_2 C40_2 1_555 1_555
C53_2 C41_2 1_555 1_555
H31_2 C41_2 1_555 1_555
C54_2 C42_2 1_555 1_555
H32_2 C42_2 1_555 1_555
N5_2 C47_2 1_555 1_555
H37_2 C47_2 1_555 1_555
C59_2 C51_2 1_555 1_555
H41_2 C51_2 1_555 1_555
H42_2 C52_2 1_555 1_555
C60_2 C53_2 1_555 1_555
H43_2 C53_2 1_555 1_555
H44_2 C54_2 1_555 1_555
Co3 N5_2 1_555 1_555
C63_2 C59_2 1_555 1_555
C64_2 C60_2 1_555 1_555
O7_2 Co3 1_555 1_555
O8_2 Co3 1_555 1_555
O9_2 Co3 1_555 1_555
O12_2 C63_2 1_555 1_555
O14_2 C64_2 1_555 1_555
H49_2 O7_2 1_555 1_555
H50_2 O7_2 1_555 1_555
C67_2 O8_2 1_555 1_555
O19_2 C67_2 1_555 1_555
C69_2 C67_2 1_555 1_555
C71_2 C69_2 1_555 1_555
H65_2 C71_2 1_555 1_555
C83_2 C71_2 1_555 1_555
H68_2 C74_2 1_555 1_555
C86_2 C74_2 1_555 1_555
H69_2 C75_2 1_555 1_555
C87_2 C75_2 1_555 1_555
H73_2 C79_2 1_555 1_555
C91_2 C79_2 1_555 1_555
C95_2 C83_2 1_555 1_555
H77_2 C83_2 1_555 1_555
H80_2 C86_2 1_555 1_555
C97_2 C87_2 1_555 1_555
H81_2 C87_2 1_555 1_555
H82_2 C88_2 1_555 1_555
C99_2 C91_2 1_555 1_555
H85_2 C91_2 1_555 1_555
H86_2 C92_2 1_555 1_555
N14_5 C95_2 1_555 1_555
N15_3 C96_3 1_555 1_555
C101_2 C97_2 1_555 1_555
C103_2 C99_2 1_555 1_555
H89_2 C101_2 1_555 1_555
C109_2 C101_2 1_555 1_555
H91_2 C103_2 1_555 1_555
C111_2 C103_2 1_555 1_555
C121_2 C109_2 1_555 1_555
H93_2 C109_2 1_555 1_555
C123_2 C111_2 1_555 1_555
H95_2 C111_2 1_555 1_555
C125_2 C113_2 1_555 1_555
H97_2 C113_2 1_555 1_555
C133_2 C121_2 1_555 1_555
C134_2 C121_2 1_555 1_555
C137_2 C123_2 1_555 1_555
C138_2 C123_2 1_555 1_555
H105_2 C125_2 1_555 1_555
C145_2 C133_2 1_555 1_555
H113_2 C133_2 1_555 1_555
C146_2 C134_2 1_555 1_555
H114_2 C134_2 1_555 1_555
C149_2 C137_2 1_555 1_555
H117_2 C137_2 1_555 1_555
C150_2 C138_2 1_555 1_555
H118_2 C138_2 1_555 1_555
N16_2 C145_2 1_555 1_555
H121_2 C145_2 1_555 1_555
N18_2 C149_2 1_555 1_555
H125_2 C149_2 1_555 1_555
H126_2 C150_2 1_555 1_555
Co9 N16_2 1_555 1_555
Co11 N18_2 1_555 1_555
O38_3 Co9 1_555 1_555
H129_3 O38_3 1_555 1_555
H130_3 O38_3 1_555 1_555
C10_2 C17_2 1_555 1_555
C12_2 C18_2 1_555 1_555
C20_2 C25_2 1_555 1_555
C48_2 N5_2 1_555 1_555
C52_2 C59_2 1_555 1_555
C54_2 C60_2 1_555 1_555
C86_2 C96_3 1_555 1_555
C88_2 C97_2 1_555 1_555
C92_2 C99_2 1_555 1_555
C146_2 N16_2 1_555 1_555
C150_2 N18_2 1_555 1_555
C107_3 N15_4 1_555 1_555
C117_2 C107_3 1_555 1_555
H101_2 C117_2 1_555 1_555
C129_2 C117_2 1_555 1_555
C143_2 C129_2 1_555 1_555
H109_2 C129_2 1_555 1_555
C155_2 C143_2 1_555 1_555
O35_2 C155_2 1_555 1_555
H92_2 C104_2 1_555 1_555
Co7_2 O13_2 1_555 1_555
O24_2 Co7_2 1_555 1_555
O25_2 Co7_2 1_555 1_555
N10_2 Co7_2 1_555 1_555
N11_2 Co7_2 1_555 1_555
H57_2 O24_2 1_555 1_555
H58_2 O24_2 1_555 1_555
H59_2 O25_2 1_555 1_555
H60_2 O25_2 1_555 1_555
C80_2 N10_2 1_555 1_555
C81_2 N11_2 1_555 1_555
C82_2 N11_2 1_555 1_555
H74_2 C80_2 1_555 1_555
H75_2 C81_2 1_555 1_555
C93_2 C81_2 1_555 1_555
H76_2 C82_2 1_555 1_555
C94_2 C82_2 1_555 1_555
C100_2 C93_2 1_555 1_555
H87_2 C93_2 1_555 1_555
H88_2 C94_2 1_555 1_555
C108_2 N15_5 1_555 1_555
C119_2 C108_2 1_555 1_555
C120_2 C108_2 1_555 1_555
H103_2 C119_2 1_555 1_555
C131_2 C119_2 1_555 1_555
C132_2 C120_2 1_555 1_555
H104_2 C120_2 1_555 1_555
C144_2 C131_2 1_555 1_555
H111_2 C131_2 1_555 1_555
H112_2 C132_2 1_555 1_555
C156_2 C144_2 1_555 1_555
O36_2 C156_2 1_555 1_555
O37_2 C156_2 1_555 1_555
Co11 O36_2 1_555 1_555
H131_3 O39_3 1_555 1_555
H132_3 O39_3 1_555 1_555
C94_2 C100_2 1_555 1_555
C132_2 C144_2 1_555 1_555
C139_2 C124_2 1_555 1_555
C140_2 C124_2 1_555 1_555
C151_2 C139_2 1_555 1_555
H119_2 C139_2 1_555 1_555
C152_2 C140_2 1_555 1_555
H120_2 C140_2 1_555 1_555
N19_2 C151_2 1_555 1_555
H127_2 C151_2 1_555 1_555
H128_2 C152_2 1_555 1_555
Co11_2 N19_2 1_555 1_555
C152_2 N19_2 1_555 1_555
H96_2 C112_2 1_555 1_555
O38_4 Co11 1_555 1_555
O39_4 Co11 1_555 1_555
H129_4 O38_4 1_555 1_555
H130_4 O38_4 1_555 1_555
H131_4 O39_4 1_555 1_555
H132_4 O39_4 1_555 1_555
C34_3 N4_3 1_555 1_555
C45_3 C34_3 1_555 1_555
C46_3 C34_3 1_555 1_555
H35_3 C45_3 1_555 1_555
C57_3 C45_3 1_555 1_555
C58_3 C46_3 1_555 1_555
H36_3 C46_3 1_555 1_555
C62_3 C57_3 1_555 1_555
H47_3 C57_3 1_555 1_555
H48_3 C58_3 1_555 1_555
C66_3 C62_3 1_555 1_555
O17_3 C66_3 1_555 1_555
O18_3 C66_3 1_555 1_555
Co7_3 O17_3 1_555 1_555
Co11_2 O32_3 1_555 1_555
C58_3 C62_3 1_555 1_555
C33_3 N4_4 1_555 1_555
C43_3 C33_3 1_555 1_555
H33_3 C43_3 1_555 1_555
C55_3 C43_3 1_555 1_555
C61_3 C55_3 1_555 1_555
H45_3 C55_3 1_555 1_555
C65_3 C61_3 1_555 1_555
O16_3 C65_3 1_555 1_555
H63_3 O28_3 1_555 1_555
H64_3 O28_3 1_555 1_555
C147_3 C135_3 1_555 1_555
H115_3 C135_3 1_555 1_555
N20 C147_3 1_555 1_555
H123_3 C147_3 1_555 1_555
Co1_3 O1_3 1_555 1_555
O1_3 H1_3 1_555 1_555
O2_3 Co1_3 1_555 1_555
O3_3 Co1_3 1_555 1_555
N1_3 Co1_3 1_555 1_555
H2_3 O1_3 1_555 1_555
C1_3 O2_3 1_555 1_555
C3_3 N1_3 1_555 1_555
C4_3 N1_3 1_555 1_555
O5_3 C1_3 1_555 1_555
C7_3 C1_3 1_555 1_555
H5_3 C3_3 1_555 1_555
C9_3 C3_3 1_555 1_555
C10_3 C4_3 1_555 1_555
H7_3 C5_3 1_555 1_555
C13_3 C7_3 1_555 1_555
C17_3 C9_3 1_555 1_555
H9_3 C9_3 1_555 1_555
H10_3 C10_3 1_555 1_555
H13_3 C13_3 1_555 1_555
C19_3 C13_3 1_555 1_555
H16_3 C16_3 1_555 1_555
C22_3 C16_3 1_555 1_555
C23_3 C17_3 1_555 1_555
C25_3 C19_3 1_555 1_555
H17_3 C19_3 1_555 1_555
H20_3 C22_3 1_555 1_555
H21_3 C23_3 1_555 1_555
N3_3 C25_3 1_555 1_555
N4_5 C26_3 1_555 1_555
C27_3 C23_3 1_555 1_555
C29_3 C27_3 1_555 1_555
H23_3 C27_3 1_555 1_555
C35_3 C29_3 1_555 1_555
C36_3 C29_3 1_555 1_555
C47_3 C35_3 1_555 1_555
H25_3 C35_3 1_555 1_555
C48_3 C36_3 1_555 1_555
H26_3 C36_3 1_555 1_555
C51_3 C39_3 1_555 1_555
H29_3 C39_3 1_555 1_555
N5_3 C47_3 1_555 1_555
H37_3 C47_3 1_555 1_555
H38_3 C48_3 1_555 1_555
H41_3 C51_3 1_555 1_555
Co3_2 N5_3 1_555 1_555
O7_3 Co3_2 1_555 1_555
O8_3 Co3_2 1_555 1_555
O9_3 Co3_2 1_555 1_555
O10_3 Co3_2 1_555 1_555
H49_3 O7_3 1_555 1_555
H50_3 O7_3 1_555 1_555
C67_3 O8_3 1_555 1_555
C68_3 O9_3 1_555 1_555
H51_3 O10_3 1_555 1_555
H52_3 O10_3 1_555 1_555
O19_3 C67_3 1_555 1_555
C69_3 C67_3 1_555 1_555
O20_3 C68_3 1_555 1_555
C71_3 C69_3 1_555 1_555
C72_3 C69_3 1_555 1_555
C78_3 N13_3 1_555 1_555
H65_3 C71_3 1_555 1_555
C83_3 C71_3 1_555 1_555
H66_3 C72_3 1_555 1_555
C84_3 C72_3 1_555 1_555
H72_3 C78_3 1_555 1_555
C90_3 C78_3 1_555 1_555
C95_3 C83_3 1_555 1_555
H77_3 C83_3 1_555 1_555
H78_3 C84_3 1_555 1_555
C98_3 C89_3 1_555 1_555
H83_3 C89_3 1_555 1_555
H84_3 C90_3 1_555 1_555
N14_6 C95_3 1_555 1_555
C102_3 C98_3 1_555 1_555
C105_3 N14_6 1_555 1_555
C106_3 N14_6 1_555 1_555
H90_3 C102_3 1_555 1_555
C110_3 C102_3 1_555 1_555
C113_3 C105_3 1_555 1_555
C114_3 C105_3 1_555 1_555
C115_3 C106_3 1_555 1_555
C116_3 C106_3 1_555 1_555
C122_3 C110_3 1_555 1_555
H94_3 C110_3 1_555 1_555
C125_3 C113_3 1_555 1_555
H97_3 C113_3 1_555 1_555
C126_3 C114_3 1_555 1_555
H98_3 C114_3 1_555 1_555
C127_3 C115_3 1_555 1_555
H99_3 C115_3 1_555 1_555
C128_3 C116_3 1_555 1_555
H100_3 C116_3 1_555 1_555
C136_3 C122_3 1_555 1_555
C141_3 C125_3 1_555 1_555
H105_3 C125_3 1_555 1_555
H106_3 C126_3 1_555 1_555
C142_3 C127_3 1_555 1_555
H107_3 C127_3 1_555 1_555
H108_3 C128_3 1_555 1_555
C148_3 C136_3 1_555 1_555
H116_3 C136_3 1_555 1_555
C153_3 C141_3 1_555 1_555
C154_3 C142_3 1_555 1_555
H124_3 C148_3 1_555 1_555
O31_3 C153_3 1_555 1_555
O33_3 C154_3 1_555 1_555
C10_3 C17_3 1_555 1_555
C22_3 C26_3 1_555 1_555
C48_3 N5_3 1_555 1_555
C84_3 C95_3 1_555 1_555
C90_3 C98_3 1_555 1_555
C126_3 C141_3 1_555 1_555
C128_3 C142_3 1_555 1_555
H3_3 O4_3 1_555 1_555
H4_3 O4_3 1_555 1_555
C6_3 N2_3 1_555 1_555
O6_3 C2_3 1_555 1_555
C8_3 C2_3 1_555 1_555
H8_3 C6_3 1_555 1_555
C12_3 C6_3 1_555 1_555
C15_3 C8_3 1_555 1_555
C18_3 C11_3 1_555 1_555
H11_3 C11_3 1_555 1_555
H12_3 C12_3 1_555 1_555
H14_3 C14_3 1_555 1_555
C20_3 C14_3 1_555 1_555
C21_3 C15_3 1_555 1_555
H15_3 C15_3 1_555 1_555
C24_3 C18_3 1_555 1_555
H18_3 C20_3 1_555 1_555
C26_4 C21_3 1_555 1_555
H19_3 C21_3 1_555 1_555
H22_3 C24_3 1_555 1_555
N4_6 C26_4 1_555 1_555
C28_3 C24_3 1_555 1_555
C30_3 C28_3 1_555 1_555
H24_3 C28_3 1_555 1_555
C33_4 N4_6 1_555 1_555
C37_3 C30_3 1_555 1_555
C38_3 C30_3 1_555 1_555
C44_3 C33_4 1_555 1_555
C49_3 C37_3 1_555 1_555
H27_3 C37_3 1_555 1_555
C50_3 C38_3 1_555 1_555
H28_3 C38_3 1_555 1_555
C56_3 C44_3 1_555 1_555
H34_3 C44_3 1_555 1_555
N7 C49_3 1_555 1_555
H39_3 C49_3 1_555 1_555
H40_3 C50_3 1_555 1_555
H46_3 C56_3 1_555 1_555
Co6_3 O15_3 1_555 1_555
O27_3 Co6_3 1_555 1_555
O29_3 Co6_3 1_555 1_555
N12_3 Co6_3 1_555 1_555
H61_3 O27_3 1_555 1_555
H62_3 O27_3 1_555 1_555
H126_3 C150_3 1_555 1_555
Co11_2 N18_3 1_555 1_555
Co9_2 O30_3 1_555 1_555
C12_3 C18_3 1_555 1_555
C50_3 N7 1_555 1_555
C150_3 N18_3 1_555 1_555
C31_3 N3_5 1_555 1_555
C40_3 C31_3 1_555 1_555
C52_3 C40_3 1_555 1_555
H30_3 C40_3 1_555 1_555
H42_3 C52_3 1_555 1_555
C63_3 C59_3 1_555 1_555
O29_3 C63_3 1_555 1_555
O12_3 C63_3 1_555 1_555
C73_3 C70_3 1_555 1_555
C74_3 C70_3 1_555 1_555
C75_3 N12_3 1_555 1_555
C76_3 N12_3 1_555 1_555
C85_3 C73_3 1_555 1_555
H67_3 C73_3 1_555 1_555
H68_3 C74_3 1_555 1_555
C86_3 C74_3 1_555 1_555
H69_3 C75_3 1_555 1_555
C87_3 C75_3 1_555 1_555
C88_3 C76_3 1_555 1_555
H71_3 C77_3 1_555 1_555
C96_4 C85_3 1_555 1_555
H79_3 C85_3 1_555 1_555
H80_3 C86_3 1_555 1_555
C97_3 C87_3 1_555 1_555
H81_3 C87_3 1_555 1_555
H82_3 C88_3 1_555 1_555
N15_6 C96_4 1_555 1_555
C101_3 C97_3 1_555 1_555
C107_4 N15_6 1_555 1_555
C108_3 N15_6 1_555 1_555
H89_3 C101_3 1_555 1_555
C109_3 C101_3 1_555 1_555
C117_3 C107_4 1_555 1_555
C118_3 C107_4 1_555 1_555
C119_3 C108_3 1_555 1_555
C120_3 C108_3 1_555 1_555
C121_3 C109_3 1_555 1_555
H93_3 C109_3 1_555 1_555
H101_3 C117_3 1_555 1_555
C129_3 C117_3 1_555 1_555
C130_3 C118_3 1_555 1_555
H102_3 C118_3 1_555 1_555
H103_3 C119_3 1_555 1_555
C131_3 C119_3 1_555 1_555
C132_3 C120_3 1_555 1_555
H104_3 C120_3 1_555 1_555
C133_3 C121_3 1_555 1_555
C134_3 C121_3 1_555 1_555
C143_3 C129_3 1_555 1_555
H109_3 C129_3 1_555 1_555
H110_3 C130_3 1_555 1_555
C144_3 C131_3 1_555 1_555
H111_3 C131_3 1_555 1_555
H112_3 C132_3 1_555 1_555
C145_3 C133_3 1_555 1_555
H113_3 C133_3 1_555 1_555
H114_3 C134_3 1_555 1_555
C155_3 C143_3 1_555 1_555
H121_3 C145_3 1_555 1_555
O34_3 C155_3 1_555 1_555
O35_3 C155_3 1_555 1_555
Co9_2 O34_3 1_555 1_555
C52_3 C59_3 1_555 1_555
C86_3 C96_4 1_555 1_555
C88_3 C97_3 1_555 1_555
C130_3 C143_3 1_555 1_555
C132_3 C144_3 1_555 1_555
C32_3 N3_6 1_555 1_555
C41_3 C32_3 1_555 1_555
C42_3 C32_3 1_555 1_555
C53_3 C41_3 1_555 1_555
H31_3 C41_3 1_555 1_555
C54_3 C42_3 1_555 1_555
H32_3 C42_3 1_555 1_555
C60_3 C53_3 1_555 1_555
H43_3 C53_3 1_555 1_555
H44_3 C54_3 1_555 1_555
C64_3 C60_3 1_555 1_555
O13_3 C64_3 1_555 1_555
O14_3 C64_3 1_555 1_555
Co7_3 O13_3 1_555 1_555
O24_3 Co7_3 1_555 1_555
O25_3 Co7_3 1_555 1_555
N10_3 Co7_3 1_555 1_555
N11_3 Co7_3 1_555 1_555
H57_3 O24_3 1_555 1_555
H58_3 O24_3 1_555 1_555
H59_3 O25_3 1_555 1_555
H60_3 O25_3 1_555 1_555
C79_3 N10_3 1_555 1_555
C80_3 N10_3 1_555 1_555
C81_3 N11_3 1_555 1_555
C82_3 N11_3 1_555 1_555
H73_3 C79_3 1_555 1_555
C91_3 C79_3 1_555 1_555
H74_3 C80_3 1_555 1_555
C92_3 C80_3 1_555 1_555
H75_3 C81_3 1_555 1_555
C93_3 C81_3 1_555 1_555
H76_3 C82_3 1_555 1_555
C94_3 C82_3 1_555 1_555
C99_3 C91_3 1_555 1_555
H85_3 C91_3 1_555 1_555
H86_3 C92_3 1_555 1_555
C100_3 C93_3 1_555 1_555
H87_3 C93_3 1_555 1_555
H88_3 C94_3 1_555 1_555
C103_3 C99_3 1_555 1_555
C104_3 C100_3 1_555 1_555
H91_3 C103_3 1_555 1_555
C111_3 C103_3 1_555 1_555
H92_3 C104_3 1_555 1_555
C112_3 C104_3 1_555 1_555
C123_3 C111_3 1_555 1_555
H95_3 C111_3 1_555 1_555
C124_3 C112_3 1_555 1_555
H96_3 C112_3 1_555 1_555
C137_3 C123_3 1_555 1_555
C138_3 C123_3 1_555 1_555
C140_3 C124_3 1_555 1_555
C149_3 C137_3 1_555 1_555
H117_3 C137_3 1_555 1_555
H118_3 C138_3 1_555 1_555
C152_3 C140_3 1_555 1_555
H120_3 C140_3 1_555 1_555
H122_3 C146_3 1_555 1_555
H125_3 C149_3 1_555 1_555
H128_3 C152_3 1_555 1_555
O36_3 C156_3 1_555 1_555
O37_3 C156_3 1_555 1_555
Co9_2 N16_3 1_555 1_555
Co11_2 O36_3 1_555 1_555
O38_5 Co9_2 1_555 1_555
O39_5 Co9_2 1_555 1_555
H129_5 O38_5 1_555 1_555
H130_5 O38_5 1_555 1_555
H131_5 O39_5 1_555 1_555
H132_5 O39_5 1_555 1_555
C54_3 C60_3 1_555 1_555
C92_3 C99_3 1_555 1_555
C94_3 C100_3 1_555 1_555
C146_3 N16_3 1_555 1_555
C151_3 C139_3 1_555 1_555
H119_3 C139_3 1_555 1_555
N20_2 C151_3 1_555 1_555
H127_3 C151_3 1_555 1_555
O38_6 Co11_2 1_555 1_555
O39_6 Co11_2 1_555 1_555
H129_6 O38_6 1_555 1_555
H130_6 O38_6 1_555 1_555
H131_6 O39_6 1_555 1_555
H132_6 O39_6 1_555 1_555

#END
