
###############################################################################
#
# This file contains modified crystal structure data generated from the
# MOF subset of the Cambridge Structural Database (CSD) v543 
# hosted by the Cambridge Crystallographic Data Centre (CCDC).
#
# This work is licensed under the Creative Commons
# Attribution-NonCommercial-ShareAlike 4.0 International License.
# To view a copy of this license, visit
# http://creativecommons.org/licenses/by-nc-sa/4.0/
# or send a letter to
# Creative Commons, PO Box 1866, Mountain View, CA 94042, USA.
#
# CIF created using the CSD Python API on 29 September 2022
# The structure has been converted into the P1 space group
# The structure has a 3D framework
# The original CSD entry BIZHOK is in the rhombohedral crystal system
# The framework has been calculated to contain at least 10.0% void space
# The void calculation uses a probe of radius 1.32A, grid spacing 0.4
#
###############################################################################

data_BIZHOK
_chemical_formula_moiety         '(C468 H396 N60 Ni18 O104)n'
_symmetry_cell_setting           triclinic
_symmetry_space_group_name_H-M   'P 1'
_symmetry_Int_Tables_number      1
_space_group_name_Hall           'P 1'
loop_
_symmetry_equiv_pos_site_id
_symmetry_equiv_pos_as_xyz
1 x,y,z
_cell_length_a                   15.7128(10)
_cell_length_b                   15.7128(10)
_cell_length_c                   60.539(4)
_cell_angle_alpha                90
_cell_angle_beta                 90
_cell_angle_gamma                120
_cell_volume                     12944.1
loop_
_atom_site_label
_atom_site_type_symbol
_atom_site_fract_x
_atom_site_fract_y
_atom_site_fract_z
O27 O 0.06552(17) 0.69179(12) 0.56758(3)
O28 O 0.01638(24) 0.77329(14) 0.54590(4)
C140 C 0.00840(25) 0.69544(17) 0.55357(4)
Ni12 Ni 0.17545(3) 0.80265(2) 0.58515(2)
O13 O 0.71533(16) 0.08363(11) 0.39745(3)
O14 O 0.61597(16) 0.13686(11) 0.38538(3)
C48 C 0.63486(21) 0.07026(14) 0.39032(3)
Ni8 Ni 0.82455(3) 0.19735(2) 0.41485(2)
N3 N 0.333333 0.666667 0.38218(6)
C2 C 0.20641(15) 0.69806(15) 0.39694(4)
H5 H 0.254233 0.752334 0.404572
C3 C 0.10870(15) 0.67290(15) 0.39855(4)
H6 H 0.091725 0.711582 0.407005
C4 C 0.03578(14) 0.59106(15) 0.38777(3)
C7 C 0.23322(14) 0.64222(14) 0.38389(4)
C8 C 0.06226(15) 0.53438(16) 0.37500(4)
H7 H 0.013988 0.478467 0.367910
C13 C 0.16089(16) 0.56101(16) 0.37277(4)
H10 H 0.178220 0.524113 0.363768
O11 O 0.36830(11) 0.28467(16) 0.39745(3)
O12 O 0.52089(12) 0.38403(16) 0.38538(3)
C41 C 0.43540(15) 0.36514(21) 0.39032(3)
C42 C 0.30194(15) 0.50835(21) 0.39694(4)
H31 H 0.247666 0.501899 0.404572
C43 C 0.32710(15) 0.43580(21) 0.39855(4)
H32 H 0.288418 0.380143 0.407005
C44 C 0.40894(15) 0.44472(21) 0.38777(3)
C45 C 0.35778(14) 0.59100(20) 0.38389(4)
C46 C 0.46562(16) 0.52788(22) 0.37500(4)
H33 H 0.521533 0.535521 0.367910
C47 C 0.43899(16) 0.59988(23) 0.37277(4)
H34 H 0.475887 0.654107 0.363768
C49 C 0.49165(21) 0.79359(15) 0.39694(4)
H35 H 0.498101 0.745767 0.404572
C50 C 0.56420(21) 0.89130(15) 0.39855(4)
H36 H 0.619857 0.908275 0.407005
C51 C 0.55528(21) 0.96422(14) 0.38777(3)
C52 C 0.40900(20) 0.76678(14) 0.38389(4)
C53 C 0.47212(22) 0.93774(15) 0.37500(4)
H37 H 0.464479 0.986012 0.367910
C54 C 0.40012(23) 0.83911(16) 0.37277(4)
H38 H 0.345893 0.821780 0.363768
N6 N 0.15333(14) 0.42672(15) 0.55777(3)
C61 C 0.07606(17) 0.49168(19) 0.52401(3)
C62 C 0.03456(18) 0.5276(2) 0.50726(4)
H44 H 0.058727 0.595009 0.506729
C63 C 0.1780(2) 0.52022(19) 0.55572(4)
H45 H 0.222238 0.565033 0.565846
C64 C 0.1418(2) 0.5549(2) 0.53942(4)
H46 H 0.161956 0.621521 0.538827
C65 C 0.0522(3) 0.3947(2) 0.52566(5)
H47 H 0.008943 0.348510 0.515624
C66 C 0.0930(3) 0.3666(2) 0.54227(5)
H48 H 0.077284 0.301217 0.542698
Ni4 Ni 0.19735(2) 0.37280(2) 0.58515(2)
O19 O 0.29184(11) 0.51655(11) 0.59565(3)
H97 H 0.262749 0.535365 0.605177
H98 H 0.340829 0.520003 0.603238
O20 O 0.30821(12) 0.37373(12) 0.56758(3)
O21 O 0.08363(11) 0.36830(11) 0.60255(3)
O22 O 0.13686(11) 0.52089(12) 0.61462(3)
O23 O 0.10153(14) 0.22781(13) 0.57644(3)
H99 H 0.046766 0.221635 0.572018
H100 H 0.123707 0.212783 0.564969
N16 N 0.666667 0.333333 0.53089(6)
O24 O 0.22671(14) 0.24309(19) 0.54590(4)
C115 C 0.07026(14) 0.43540(15) 0.60968(3)
C119 C 0.40031(16) 0.32280(17) 0.54646(4)
C120 C 0.57788(15) 0.33428(15) 0.53542(4)
C123 C 0.49209(17) 0.26801(17) 0.52471(4)
H104 H 0.493897 0.227827 0.513662
C124 C 0.40395(17) 0.26142(18) 0.53039(4)
H105 H 0.346400 0.215489 0.523397
C125 C 0.30456(17) 0.31296(19) 0.55357(4)
C127 C 0.48658(17) 0.39094(17) 0.55666(4)
H107 H 0.485035 0.432896 0.567282
C128 C 0.57514(16) 0.39734(17) 0.55123(4)
H108 H 0.632775 0.443662 0.558126
C129 C 0.67720(17) 0.07751(23) 0.54646(4)
C130 C 0.66572(15) 0.24360(21) 0.53542(4)
C131 C 0.73199(17) 0.22408(24) 0.52471(4)
H109 H 0.772173 0.266070 0.513662
C132 C 0.73858(18) 0.14253(25) 0.53039(4)
H110 H 0.784511 0.130911 0.523397
C134 C 0.60906(17) 0.09564(24) 0.55666(4)
H111 H 0.567104 0.052139 0.567282
C135 C 0.60266(17) 0.17780(23) 0.55123(4)
H112 H 0.556338 0.189113 0.558126
C136 C 0.92249(23) 0.59969(16) 0.54646(4)
C137 C 0.75640(21) 0.42212(15) 0.53542(4)
C138 C 0.77592(24) 0.50791(17) 0.52471(4)
H113 H 0.733930 0.506103 0.513662
C139 C 0.85747(25) 0.59605(17) 0.53039(4)
H114 H 0.869089 0.653600 0.523397
C141 C 0.90436(24) 0.51342(17) 0.55666(4)
H115 H 0.947861 0.514965 0.567282
C142 C 0.82220(23) 0.42486(16) 0.55123(4)
H116 H 0.810887 0.367225 0.558126
Ni7 Ni 0.37280(2) 0.17545(3) 0.41485(2)
N17 N 0.23972(14) 0.31860(15) 0.61257(3)
O25 O 0.62627(12) 0.93448(17) 0.56758(3)
O26 O 0.75691(19) 0.98362(24) 0.54590(4)
C133 C 0.68704(19) 0.99160(25) 0.55357(4)
Ni10 Ni 0.62720(2) 0.82455(3) 0.58515(2)
O7 O 0.37373(12) 0.06552(17) 0.43242(3)
O8 O 0.24309(19) 0.01638(24) 0.45410(4)
C31 C 0.31296(19) 0.00840(25) 0.44643(4)
C56 C 0.5728(2) 0.0139(2) 0.29991(4)
H39 H 0.554376 0.060776 0.302387
H41 H 0.598083 0.000461 0.332000
O15 O 0.51655(11) 0.22471(16) 0.40435(3)
H49 H 0.535365 0.272616 0.394823
H50 H 0.520003 0.179174 0.396762
O16 O 0.22781(13) 0.12628(19) 0.42356(3)
H51 H 0.221635 0.174869 0.427982
H52 H 0.212783 0.089076 0.435031
N7 N 0.31860(15) 0.07888(21) 0.38743(3)
N8 N 0.42672(15) 0.27339(21) 0.44223(3)
C67 C 0.49168(19) 0.41562(25) 0.47599(3)
C68 C 0.5276(2) 0.49304(27) 0.49274(4)
H53 H 0.595009 0.536282 0.493271
C70 C 0.3472(2) 0.1077(3) 0.36676(4)
H54 H 0.394109 0.173066 0.364280
C72 C 0.52022(19) 0.34222(28) 0.44428(4)
H56 H 0.565033 0.342795 0.434154
C73 C 0.5549(2) 0.4131(3) 0.46058(4)
H57 H 0.621521 0.459565 0.461173
C74 C 0.3108(2) 0.0454(3) 0.34879(4)
H58 H 0.333794 0.069044 0.334667
C77 C 0.3947(2) 0.3425(4) 0.47434(5)
H61 H 0.348510 0.339567 0.484376
C78 C 0.3666(2) 0.2736(4) 0.45773(5)
H62 H 0.301217 0.223933 0.457302
N10 N 0.57328(15) 0.72661(21) 0.55777(3)
C85 C 0.50832(19) 0.58438(25) 0.52401(3)
C86 C 0.4724(2) 0.50696(27) 0.50726(4)
H68 H 0.404991 0.463718 0.506729
C87 C 0.47978(19) 0.65778(28) 0.55572(4)
H69 H 0.434967 0.657205 0.565846
C88 C 0.4451(2) 0.5869(3) 0.53942(4)
H70 H 0.378479 0.540435 0.538827
C89 C 0.6053(2) 0.6575(4) 0.52566(5)
H71 H 0.651490 0.660433 0.515624
C90 C 0.6334(2) 0.7264(4) 0.54227(5)
H72 H 0.698783 0.776067 0.542698
Ni13 Ni 0.53068(2) 0.03947(2) 0.25182(2)
Ni1 Ni 0.80265(2) 0.62720(2) 0.41485(2)
O1 O 0.70816(11) 0.48345(11) 0.40435(3)
H1 H 0.737251 0.464635 0.394823
H2 H 0.659171 0.479997 0.396762
O2 O 0.69179(12) 0.62627(12) 0.43242(3)
O3 O 0.91637(11) 0.63170(11) 0.39745(3)
O4 O 0.86314(11) 0.47911(12) 0.38538(3)
O5 O 0.89847(14) 0.77219(13) 0.42356(3)
H3 H 0.953234 0.778365 0.427982
H4 H 0.876293 0.787217 0.435031
N1 N 0.76028(14) 0.68140(15) 0.38743(3)
N2 N 0.84667(14) 0.57328(15) 0.44223(3)
N4 N 0.333333 0.666667 0.46911(6)
O6 O 0.77329(14) 0.75691(19) 0.45410(4)
C1 C 0.92974(14) 0.56460(15) 0.39032(3)
C5 C 0.59969(16) 0.67720(17) 0.45354(4)
C6 C 0.42212(15) 0.66572(15) 0.46458(4)
C9 C 0.50791(17) 0.73199(17) 0.47529(4)
H8 H 0.506103 0.772173 0.486338
C10 C 0.59605(17) 0.73858(18) 0.46961(4)
H9 H 0.653600 0.784511 0.476603
C11 C 0.69544(17) 0.68704(19) 0.44643(4)
C12 C 0.92394(17) 0.50832(19) 0.47599(3)
C14 C 0.96544(18) 0.4724(2) 0.49274(4)
H11 H 0.941273 0.404991 0.493271
C15 C 0.70764(19) 0.7603(2) 0.35185(4)
C16 C 0.51342(17) 0.60906(17) 0.44334(4)
H12 H 0.514965 0.567104 0.432718
C17 C 0.42486(16) 0.60266(17) 0.44877(4)
H13 H 0.367225 0.556338 0.441874
C18 C 0.7605(2) 0.6528(2) 0.36676(4)
H14 H 0.778957 0.605891 0.364280
C19 C 0.6812(2) 0.8005(2) 0.33279(4)
H15 H 0.685237 0.777885 0.318851
C20 C 0.8220(2) 0.47978(19) 0.44428(4)
H16 H 0.777762 0.434967 0.434154
C21 C 0.8582(2) 0.4451(2) 0.46058(4)
H17 H 0.838044 0.378479 0.461173
C22 C 0.7346(2) 0.6892(2) 0.34879(4)
H18 H 0.735250 0.666206 0.334667
C23 C 0.7333(2) 0.7488(2) 0.39039(4)
H19 H 0.732250 0.769592 0.404715
C24 C 0.7071(2) 0.7892(2) 0.37337(4)
H20 H 0.688907 0.836025 0.376368
C25 C 0.9478(3) 0.6053(2) 0.47434(5)
H21 H 0.991057 0.651490 0.484376
C26 C 0.9070(3) 0.6334(2) 0.45773(5)
H22 H 0.922716 0.698783 0.457302
C27 C 0.32280(17) 0.92249(23) 0.45354(4)
C28 C 0.33428(15) 0.75640(21) 0.46458(4)
C29 C 0.26801(17) 0.77592(24) 0.47529(4)
H23 H 0.227827 0.733930 0.486338
C30 C 0.26142(18) 0.85747(25) 0.46961(4)
H24 H 0.215489 0.869089 0.476603
C32 C 0.39094(17) 0.90436(24) 0.44334(4)
H25 H 0.432896 0.947861 0.432718
C33 C 0.39734(17) 0.82220(23) 0.44877(4)
H26 H 0.443662 0.810887 0.441874
C34 C 0.07751(23) 0.40031(16) 0.45354(4)
C35 C 0.24360(21) 0.57788(15) 0.46458(4)
C36 C 0.22408(24) 0.49209(17) 0.47529(4)
H27 H 0.266070 0.493897 0.486338
C37 C 0.14253(25) 0.40395(17) 0.46961(4)
H28 H 0.130911 0.346400 0.476603
C39 C 0.09564(24) 0.48658(17) 0.44334(4)
H29 H 0.052139 0.485035 0.432718
C40 C 0.17780(23) 0.57514(16) 0.44877(4)
H30 H 0.189113 0.632775 0.441874
N5 N 0.57305(14) 0.98527(15) 0.27924(3)
C55 C 0.62569(19) 0.9064(2) 0.31482(4)
C57 C 0.6521(2) 0.8662(2) 0.33388(4)
H40 H 0.648096 0.888782 0.347816
C58 C 0.5987(2) 0.9775(2) 0.31788(4)
C59 C 0.6000(2) 0.9179(2) 0.27628(4)
H42 H 0.601083 0.897075 0.261952
C60 C 0.6262(2) 0.8775(2) 0.29330(4)
H43 H 0.644426 0.830642 0.290299
C69 C 0.2397(2) 0.94734(28) 0.35185(4)
C71 C 0.1995(2) 0.8807(3) 0.33279(4)
H55 H 0.222115 0.907352 0.318851
C75 C 0.2512(2) 0.9845(3) 0.39039(4)
H59 H 0.230408 0.962658 0.404715
C76 C 0.2108(2) 0.9179(3) 0.37337(4)
H60 H 0.163975 0.852882 0.376368
N9 N 0.01473(15) 0.58779(21) 0.27924(3)
C79 C 0.0936(2) 0.71933(28) 0.31482(4)
C81 C 0.1338(2) 0.7860(3) 0.33388(4)
H64 H 0.111218 0.759315 0.347816
C82 C 0.0225(2) 0.6213(3) 0.31788(4)
C83 C 0.0821(2) 0.6822(3) 0.27628(4)
H66 H 0.102925 0.704009 0.261952
C84 C 0.1225(2) 0.7488(3) 0.29330(4)
H67 H 0.169358 0.813785 0.290299
C93 C 0.05266(28) 0.29236(19) 0.35185(4)
C95 C 0.1193(3) 0.3188(2) 0.33279(4)
H79 H 0.092648 0.314763 0.318851
C99 C 0.0155(3) 0.2667(2) 0.39039(4)
H83 H 0.037342 0.267750 0.404715
C100 C 0.0821(3) 0.2929(2) 0.37337(4)
H84 H 0.147118 0.311093 0.376368
N13 N 0.41221(21) 0.42695(14) 0.27924(3)
C103 C 0.28067(28) 0.37431(19) 0.31482(4)
C104 C 0.4410(3) 0.4272(2) 0.29991(4)
H87 H 0.506399 0.445624 0.302387
C105 C 0.2140(3) 0.3479(2) 0.33388(4)
H88 H 0.240685 0.351904 0.347816
C106 C 0.3787(3) 0.4013(2) 0.31788(4)
H89 H 0.402377 0.401917 0.332000
C107 C 0.3178(3) 0.4000(2) 0.27628(4)
H90 H 0.295991 0.398917 0.261952
C108 C 0.2512(3) 0.3738(2) 0.29330(4)
H91 H 0.186215 0.355574 0.290299
N15 N 0.666667 0.333333 0.61782(6)
C116 C 0.79359(15) 0.30194(15) 0.60306(4)
H101 H 0.745767 0.247666 0.595428
C117 C 0.89130(15) 0.32710(15) 0.60145(4)
H102 H 0.908275 0.288418 0.592995
C118 C 0.96422(14) 0.40894(15) 0.61223(3)
C121 C 0.76678(14) 0.35778(14) 0.61611(4)
C122 C 0.93774(15) 0.46562(16) 0.62500(4)
H103 H 0.986012 0.521533 0.632090
C126 C 0.83911(16) 0.43899(16) 0.62723(4)
H106 H 0.821780 0.475887 0.636232
O29 O 0.63170(11) 0.71533(16) 0.60255(3)
O30 O 0.47911(12) 0.61597(16) 0.61462(3)
C143 C 0.56460(15) 0.63486(21) 0.60968(3)
C144 C 0.69806(15) 0.49165(21) 0.60306(4)
H117 H 0.752334 0.498101 0.595428
C145 C 0.67290(15) 0.56420(21) 0.60145(4)
H118 H 0.711582 0.619857 0.592995
C146 C 0.59106(15) 0.55528(21) 0.61223(3)
C147 C 0.64222(14) 0.40900(20) 0.61611(4)
C148 C 0.53438(16) 0.47212(22) 0.62500(4)
H119 H 0.478467 0.464479 0.632090
C149 C 0.56101(16) 0.40012(23) 0.62723(4)
H120 H 0.524113 0.345893 0.636232
C151 C 0.50835(21) 0.20641(15) 0.60306(4)
H121 H 0.501899 0.254233 0.595428
C152 C 0.43580(21) 0.10870(15) 0.60145(4)
H122 H 0.380143 0.091725 0.592995
C153 C 0.44472(21) 0.03578(14) 0.61223(3)
C154 C 0.59100(20) 0.23322(14) 0.61611(4)
C155 C 0.52788(22) 0.06226(15) 0.62500(4)
H123 H 0.535521 0.013988 0.632090
C156 C 0.59988(23) 0.16089(16) 0.62723(4)
H124 H 0.654107 0.178220 0.636232
O33 O 0.48345(11) 0.77529(16) 0.59565(3)
H125 H 0.464635 0.727384 0.605177
H126 H 0.479997 0.820826 0.603238
O34 O 0.77219(13) 0.87372(19) 0.57644(3)
H127 H 0.778365 0.825131 0.572018
H128 H 0.787217 0.910924 0.564969
Ni15 Ni 0.50878(3) 0.46932(2) 0.25182(2)
N18 N 0.68140(15) 0.92112(21) 0.61257(3)
O31 O 0.28467(16) 0.91637(11) 0.60255(3)
O32 O 0.38403(16) 0.86314(11) 0.61462(3)
C150 C 0.36514(21) 0.92974(14) 0.60968(3)
O9 O 0.93448(17) 0.30821(12) 0.43242(3)
O10 O 0.98362(24) 0.22671(14) 0.45410(4)
C38 C 0.99160(25) 0.30456(17) 0.44643(4)
C80 C 0.9861(2) 0.5590(3) 0.29991(4)
H63 H 0.939224 0.493601 0.302387
H65 H 0.999539 0.597623 0.332000
O17 O 0.77529(16) 0.29184(11) 0.40435(3)
H73 H 0.727384 0.262749 0.394823
H74 H 0.820826 0.340829 0.396762
O18 O 0.87372(19) 0.10153(14) 0.42356(3)
H75 H 0.825131 0.046766 0.427982
H76 H 0.910924 0.123707 0.435031
N11 N 0.92112(21) 0.23972(14) 0.38743(3)
N12 N 0.72661(21) 0.15333(14) 0.44223(3)
C91 C 0.58438(25) 0.07606(17) 0.47599(3)
C92 C 0.50696(27) 0.03456(18) 0.49274(4)
H77 H 0.463718 0.058727 0.493271
C94 C 0.8923(3) 0.2395(2) 0.36676(4)
H78 H 0.826934 0.221043 0.364280
C96 C 0.65778(28) 0.1780(2) 0.44428(4)
H80 H 0.657205 0.222238 0.434154
C97 C 0.5869(3) 0.1418(2) 0.46058(4)
H81 H 0.540435 0.161956 0.461173
C98 C 0.9546(3) 0.2654(2) 0.34879(4)
H82 H 0.930956 0.264750 0.334667
C101 C 0.6575(4) 0.0522(3) 0.47434(5)
H85 H 0.660433 0.008943 0.484376
C102 C 0.7264(4) 0.0930(3) 0.45773(5)
H86 H 0.776067 0.077284 0.457302
Ni14 Ni 0.96053(2) 0.49122(3) 0.25182(2)
N14 N 0.27339(21) 0.84667(14) 0.55777(3)
C109 C 0.41562(25) 0.92394(17) 0.52401(3)
C110 C 0.49304(27) 0.96544(18) 0.50726(4)
H92 H 0.536282 0.941273 0.506729
C111 C 0.34222(28) 0.8220(2) 0.55572(4)
H93 H 0.342795 0.777762 0.565846
C112 C 0.4131(3) 0.8582(2) 0.53942(4)
H94 H 0.459565 0.838044 0.538827
C113 C 0.3425(4) 0.9478(3) 0.52566(5)
H95 H 0.339567 0.991057 0.515624
C114 C 0.2736(4) 0.9070(3) 0.54227(5)
H96 H 0.223933 0.922716 0.542698
O35 O 0.22471(16) 0.70816(11) 0.59565(3)
H129 H 0.272616 0.737251 0.605177
H130 H 0.179174 0.659171 0.603238
O36 O 0.12628(19) 0.89847(14) 0.57644(3)
H131 H 0.174869 0.953234 0.572018
H132 H 0.089076 0.876293 0.564969
N19 N 0.07888(21) 0.76028(14) 0.61257(3)
N3_2 N -0.000000 0.000000 0.71551(6)
O13_2 O 0.38200(16) 0.41696(11) 0.73078(3)
O14_2 O 0.28264(16) 0.47019(11) 0.71871(3)
C48_2 C 0.30153(21) 0.40359(14) 0.72365(3)
C49_2 C 0.15832(21) 0.12692(15) 0.73027(4)
H35_2 H 0.164768 0.079100 0.737905
C50_2 C 0.23087(21) 0.22463(15) 0.73188(4)
H36_2 H 0.286524 0.241608 0.740338
C51_2 C 0.22195(21) 0.29755(14) 0.72110(3)
C52_2 C 0.07567(20) 0.10011(14) 0.71722(4)
C53_2 C 0.13879(22) 0.27107(15) 0.70833(4)
H37_2 H 0.131146 0.319345 0.701243
C54_2 C 0.06679(23) 0.17244(16) 0.70610(4)
H38_2 H 0.012560 0.155113 0.697101
O27_2 O 0.73219(17) 0.02512(12) 0.90091(3)
O28_2 O 0.68305(24) 0.10662(14) 0.87923(4)
C140_2 C 0.67507(25) 0.02877(17) 0.88690(4)
Ni8_2 Ni 0.49122(3) 0.53068(2) 0.74818(2)
Ni12_2 Ni 0.84212(3) 0.13598(2) 0.91848(2)
N3_3 N -0.000000 1.000000 0.71551(6)
O11_2 O 0.03497(11) 0.61800(16) 0.73078(3)
O12_2 O 0.18756(12) 0.71736(16) 0.71871(3)
C41_2 C 0.10207(15) 0.69847(21) 0.72365(3)
C44_2 C 0.07561(15) 0.77805(21) 0.72110(3)
C45_2 C 0.02445(14) 0.92433(20) 0.71722(4)
C46_2 C 0.13229(16) 0.86121(22) 0.70833(4)
H33_2 H 0.188200 0.868854 0.701243
C47_2 C 0.10566(16) 0.93321(23) 0.70610(4)
H34_2 H 0.142554 0.987440 0.697101
H98_2 H 0.007496 0.853336 0.936571
N16_2 N 0.333334 0.666666 0.86422(6)
C119_2 C 0.06698(16) 0.65613(17) 0.87979(4)
C120_2 C 0.24455(15) 0.66761(15) 0.86875(4)
C123_2 C 0.15876(17) 0.60134(17) 0.85804(4)
H104_2 H 0.160564 0.561160 0.846995
C124_2 C 0.07062(17) 0.59475(18) 0.86372(4)
H105_2 H 0.013067 0.548822 0.856730
C127_2 C 0.15325(17) 0.72427(17) 0.88999(4)
H107_2 H 0.151702 0.766229 0.900615
C128_2 C 0.24181(16) 0.73067(17) 0.88456(4)
H108_2 H 0.299442 0.776995 0.891459
O25_2 O 0.29294(12) 0.26781(17) 0.90091(3)
O26_2 O 0.42358(19) 0.31695(24) 0.87923(4)
C129_2 C 0.34387(17) 0.41084(23) 0.87979(4)
C130_2 C 0.33239(15) 0.57693(21) 0.86875(4)
C131_2 C 0.39866(17) 0.55741(24) 0.85804(4)
H109_2 H 0.438840 0.599403 0.846995
C132_2 C 0.40525(18) 0.47586(25) 0.86372(4)
H110_2 H 0.451178 0.464244 0.856730
C133_2 C 0.35371(19) 0.32493(25) 0.88690(4)
C134_2 C 0.27573(17) 0.42897(24) 0.88999(4)
H111_2 H 0.233771 0.385472 0.900615
C135_2 C 0.26933(17) 0.51113(23) 0.88456(4)
H112_2 H 0.223005 0.522446 0.891459
C136_2 C 0.58916(23) 0.93302(16) 0.87979(4)
C137_2 C 0.42307(21) 0.75545(15) 0.86875(4)
C138_2 C 0.44259(24) 0.84124(17) 0.85804(4)
H113_2 H 0.400597 0.839436 0.846995
C139_2 C 0.52414(25) 0.92938(17) 0.86372(4)
H114_2 H 0.535756 0.986933 0.856730
C141_2 C 0.57103(24) 0.84675(17) 0.88999(4)
H115_2 H 0.614528 0.848298 0.900615
C142_2 C 0.48887(23) 0.75819(16) 0.88456(4)
H116_2 H 0.477554 0.700558 0.891459
Ni7_2 Ni 0.03947(2) 0.50878(3) 0.74818(2)
Ni10_2 Ni 0.29387(2) 0.15788(3) 0.91848(2)
N10_2 N 0.23995(15) 0.05994(21) 0.89110(3)
C90_2 C 0.3001(2) 0.0597(4) 0.87560(5)
H72_2 H 0.365450 0.109400 0.876031
O5_2 O 0.56514(14) 0.10552(13) 0.75689(3)
H3_2 H 0.619901 0.111698 0.761315
H4_2 H 0.542960 0.120550 0.768364
N1_2 N 0.42695(14) 0.01473(15) 0.72076(3)
N3_4 N 1.000000 0.000000 0.71551(6)
N4_2 N -0.000000 0.000000 0.80244(6)
O6_2 O 0.43996(14) 0.09024(19) 0.78743(4)
C2_2 C 0.87308(15) 0.03139(15) 0.73027(4)
H5_2 H 0.920900 0.085667 0.737905
C3_2 C 0.77537(15) 0.00623(15) 0.73188(4)
H6_2 H 0.758392 0.044915 0.740338
C5_2 C 0.26636(16) 0.01053(17) 0.78687(4)
C9_2 C 0.17458(17) 0.06532(17) 0.80862(4)
H8_2 H 0.172770 0.105506 0.819671
C10_2 C 0.26272(17) 0.07191(18) 0.80294(4)
H9_2 H 0.320267 0.117844 0.809936
C11_2 C 0.36211(17) 0.02037(19) 0.77976(4)
C15_2 C 0.37431(19) 0.0936(2) 0.68518(4)
C19_2 C 0.3479(2) 0.1338(2) 0.66612(4)
H15_2 H 0.351904 0.111218 0.652184
C22_2 C 0.4013(2) 0.0225(2) 0.68212(4)
C23_2 C 0.4000(2) 0.0821(2) 0.72372(4)
H19_2 H 0.398917 0.102925 0.738048
C24_2 C 0.3738(2) 0.1225(2) 0.70670(4)
H20_2 H 0.355574 0.169358 0.709701
H22_2 H 0.589383 0.032116 0.790635
O7_2 O 0.04040(12) 0.39885(17) 0.76575(3)
C28_2 C 0.00095(15) 0.08973(21) 0.79791(4)
C32_2 C 0.05761(17) 0.23769(24) 0.77667(4)
H25_2 H 0.099563 0.281194 0.766051
C33_2 C 0.06401(17) 0.15553(23) 0.78210(4)
H26_2 H 0.110329 0.144220 0.775207
C55_2 C 0.29236(19) 0.2397(2) 0.64815(4)
C56_2 C 0.2395(2) 0.3472(2) 0.63324(4)
H39_2 H 0.221043 0.394109 0.635720
C57_2 C 0.3188(2) 0.1995(2) 0.66721(4)
H40_2 H 0.314763 0.222115 0.681149
C58_2 C 0.2654(2) 0.3108(2) 0.65121(4)
H41_2 H 0.264750 0.333794 0.665333
C59_2 C 0.2667(2) 0.2512(2) 0.60961(4)
H42_2 H 0.267750 0.230408 0.595285
C60_2 C 0.2929(2) 0.2108(2) 0.62663(4)
H43_2 H 0.311093 0.163975 0.623632
O15_2 O 0.18322(11) 0.55804(16) 0.73768(3)
H49_2 H 0.202032 0.605949 0.728156
H50_2 H 0.186670 0.512507 0.730095
N8_2 N 0.09339(15) 0.60672(21) 0.77556(3)
C67_2 C 0.15835(19) 0.74895(25) 0.80932(3)
C68_2 C 0.1943(2) 0.82637(27) 0.82607(4)
H53_2 H 0.261676 0.869615 0.826604
C70_2 C 0.0139(2) 0.4410(3) 0.70009(4)
H54_2 H 0.060776 0.506399 0.697613
C72_2 C 0.18689(19) 0.67555(28) 0.77761(4)
H56_2 H 0.231700 0.676128 0.767487
C73_2 C 0.2216(2) 0.7464(3) 0.79391(4)
H57_2 H 0.288188 0.792898 0.794506
H58_2 H 0.000461 0.402377 0.668000
C77_2 C 0.0614(2) 0.6758(4) 0.80767(5)
H61_2 H 0.015177 0.672900 0.817709
C78_2 C 0.0333(2) 0.6069(4) 0.79106(5)
C85_2 C 0.17499(19) 0.91771(25) 0.85734(3)
C86_2 C 0.1391(2) 0.84029(27) 0.84059(4)
H68_2 H 0.071658 0.797051 0.840062
C87_2 C 0.14645(19) 0.99111(28) 0.88905(4)
H69_2 H 0.101634 0.990538 0.899179
C88_2 C 0.1118(2) 0.9202(3) 0.87275(4)
H70_2 H 0.045146 0.873768 0.872160
C89_2 C 0.2720(2) 0.9908(4) 0.85899(5)
H71_2 H 0.318157 0.993766 0.848957
O29_2 O 0.29837(11) 0.04866(16) 0.93588(3)
O33_2 O 0.15012(11) 0.10862(16) 0.92898(3)
H125_2 H 0.131302 0.060717 0.938510
H126_2 H 0.146664 0.154159 0.936571
O34_2 O 0.43886(13) 0.20705(19) 0.90977(3)
H127_2 H 0.445032 0.158464 0.905351
H128_2 H 0.453884 0.244257 0.898302
N18_2 N 0.34807(15) 0.25445(21) 0.94590(3)
Ni1_2 Ni 0.46932(2) 0.96053(2) 0.74818(2)
O1_2 O 0.37483(11) 0.81678(11) 0.73768(3)
H1_2 H 0.403918 0.797968 0.728156
H2_2 H 0.325838 0.813330 0.730095
O2_2 O 0.35846(12) 0.95960(12) 0.76575(3)
O3_2 O 0.58304(11) 0.96503(11) 0.73078(3)
O4_2 O 0.52981(11) 0.81244(12) 0.71871(3)
N2_2 N 0.51334(14) 0.90661(15) 0.77556(3)
N3_5 N 1.000000 1.000000 0.71551(6)
N4_3 N -0.000000 1.000000 0.80244(6)
C1_2 C 0.59641(14) 0.89793(15) 0.72365(3)
C4_2 C 0.70245(14) 0.92439(15) 0.72110(3)
C6_2 C 0.08879(15) 0.99905(15) 0.79791(4)
C7_2 C 0.89989(14) 0.97555(14) 0.71722(4)
C8_2 C 0.72893(15) 0.86771(16) 0.70833(4)
H7_2 H 0.680655 0.811800 0.701243
C12_2 C 0.59061(17) 0.84165(19) 0.80932(3)
C13_2 C 0.82756(16) 0.89434(16) 0.70610(4)
H10_2 H 0.844887 0.857446 0.697101
C14_2 C 0.63211(18) 0.8057(2) 0.82607(4)
H11_2 H 0.607940 0.738324 0.826604
C16_2 C 0.18009(17) 0.94239(17) 0.77667(4)
H12_2 H 0.181632 0.900437 0.766051
C17_2 C 0.09153(16) 0.93599(17) 0.78210(4)
H13_2 H 0.033892 0.889671 0.775207
C18_2 C 0.4272(2) 0.9861(2) 0.70009(4)
H14_2 H 0.445624 0.939224 0.697613
C20_2 C 0.4887(2) 0.81311(19) 0.77761(4)
H16_2 H 0.444429 0.768300 0.767487
C21_2 C 0.5249(2) 0.7784(2) 0.79391(4)
H17_2 H 0.504711 0.711812 0.794506
H18_2 H 0.401917 0.999539 0.668000
C25_2 C 0.6145(3) 0.9386(2) 0.80767(5)
H21_2 H 0.657724 0.984823 0.817709
C26_2 C 0.5737(3) 0.9667(2) 0.79106(5)
C42_2 C 0.96861(15) 0.84168(21) 0.73027(4)
H31_2 H 0.914333 0.835232 0.737905
C43_2 C 0.99377(15) 0.76913(21) 0.73188(4)
H32_2 H 0.955085 0.713476 0.740338
N6_2 N 0.82000(14) 0.76005(15) 0.89110(3)
C61_2 C 0.74273(17) 0.82501(19) 0.85734(3)
C62_2 C 0.70123(18) 0.8609(2) 0.84059(4)
H44_2 H 0.725394 0.928342 0.840062
C63_2 C 0.8447(2) 0.85355(19) 0.88905(4)
H45_2 H 0.888905 0.898366 0.899179
C64_2 C 0.8085(2) 0.8882(2) 0.87275(4)
H46_2 H 0.828623 0.954854 0.872160
C65_2 C 0.7189(3) 0.7280(2) 0.85899(5)
H47_2 H 0.675610 0.681843 0.848957
C66_2 C 0.7597(3) 0.6999(2) 0.87560(5)
H48_2 H 0.743951 0.634550 0.876031
C104_2 C 0.1077(3) 0.7605(2) 0.63324(4)
H87_2 H 0.173066 0.778957 0.635720
C106_2 C 0.0454(3) 0.7346(2) 0.65121(4)
H89_2 H 0.069044 0.735250 0.665333
Ni4_2 Ni 0.86402(2) 0.70613(2) 0.91848(2)
O19_2 O 0.95851(11) 0.84988(11) 0.92898(3)
H97_2 H 0.929416 0.868698 0.938510
O20_2 O 0.97488(12) 0.70706(12) 0.90091(3)
O21_2 O 0.75030(11) 0.70163(11) 0.93588(3)
O22_2 O 0.80353(11) 0.85422(12) 0.94795(3)
O23_2 O 0.76820(14) 0.56114(13) 0.90977(3)
H99_2 H 0.713433 0.554968 0.905351
H100_2 H 0.790374 0.546116 0.898302
N15_2 N 0.333334 0.666666 0.95115(6)
O24_2 O 0.89338(14) 0.57642(19) 0.87923(4)
C115_2 C 0.73693(14) 0.76873(15) 0.94301(3)
C116_2 C 0.46026(15) 0.63527(15) 0.93639(4)
H101_2 H 0.412434 0.580999 0.928761
C117_2 C 0.55797(15) 0.66043(15) 0.93478(4)
H102_2 H 0.574942 0.621751 0.926328
C118_2 C 0.63089(14) 0.74227(15) 0.94556(3)
C121_2 C 0.43345(14) 0.69111(14) 0.94944(4)
C122_2 C 0.60441(15) 0.79895(16) 0.95833(4)
H103_2 H 0.652679 0.854866 0.965423
C125_2 C 0.97123(17) 0.64629(19) 0.88690(4)
C126_2 C 0.50578(16) 0.77232(16) 0.96056(4)
H106_2 H 0.488447 0.809220 0.969565
O30_2 O 0.14578(12) 0.94930(16) 0.94795(3)
C143_2 C 0.23127(15) 0.96819(21) 0.94301(3)
C144_2 C 0.36473(15) 0.82498(21) 0.93639(4)
H117_2 H 0.419001 0.831434 0.928761
C145_2 C 0.33957(15) 0.89753(21) 0.93478(4)
H118_2 H 0.378249 0.953190 0.926328
C146_2 C 0.25773(15) 0.88861(21) 0.94556(3)
C147_2 C 0.30889(14) 0.74233(20) 0.94944(4)
C148_2 C 0.20105(16) 0.80545(22) 0.95833(4)
H119_2 H 0.145134 0.797812 0.965423
C149_2 C 0.22768(16) 0.73345(23) 0.96056(4)
H120_2 H 0.190780 0.679226 0.969565
O32_2 O 0.05070(16) 0.19647(11) 0.94795(3)
C150_2 C 0.03181(21) 0.26307(14) 0.94301(3)
C151_2 C 0.17502(21) 0.53974(15) 0.93639(4)
H121_2 H 0.168566 0.587566 0.928761
C152_2 C 0.10247(21) 0.44203(15) 0.93478(4)
H122_2 H 0.046810 0.425058 0.926328
C153_2 C 0.11139(21) 0.36911(14) 0.94556(3)
C154_2 C 0.25767(20) 0.56655(14) 0.94944(4)
C155_2 C 0.19455(22) 0.39559(15) 0.95833(4)
H123_2 H 0.202188 0.347321 0.965423
C156_2 C 0.26655(23) 0.49422(16) 0.96056(4)
H124_2 H 0.320774 0.511553 0.969565
N17_2 N 0.90639(14) 0.65193(15) 0.94590(3)
N4_4 N 1.000000 0.000000 0.80244(6)
O8_2 O 0.90976(19) 0.34971(24) 0.78743(4)
C27_2 C 0.98947(17) 0.25582(23) 0.78687(4)
C29_2 C 0.93468(17) 0.10925(24) 0.80862(4)
H23_2 H 0.894494 0.067263 0.819671
C30_2 C 0.92809(18) 0.19080(25) 0.80294(4)
H24_2 H 0.882156 0.202422 0.809936
C31_2 C 0.97963(19) 0.34173(25) 0.77976(4)
O16_2 O 0.89448(13) 0.45961(19) 0.75689(3)
H51_2 H 0.888302 0.508202 0.761315
H52_2 H 0.879450 0.422409 0.768364
N7_2 N 0.98527(15) 0.41221(21) 0.72076(3)
C69_2 C 0.9064(2) 0.28067(28) 0.68518(4)
C71_2 C 0.8662(2) 0.2140(3) 0.66612(4)
H55_2 H 0.888782 0.240685 0.652184
C74_2 C 0.9775(2) 0.3787(3) 0.68212(4)
C75_2 C 0.9179(2) 0.3178(3) 0.72372(4)
H59_2 H 0.897075 0.295991 0.738048
C76_2 C 0.8775(2) 0.2512(3) 0.70670(4)
H60_2 H 0.830642 0.186215 0.709701
H62_2 H 0.967884 0.557266 0.790635
C79_2 C 0.7603(2) 0.05266(28) 0.64815(4)
C81_2 C 0.8005(2) 0.1193(3) 0.66721(4)
H64_2 H 0.777885 0.092648 0.681149
C83_2 C 0.7488(2) 0.0155(3) 0.60961(4)
H66_2 H 0.769592 0.037342 0.595285
C84_2 C 0.7892(2) 0.0821(3) 0.62663(4)
H67_2 H 0.836025 0.147118 0.623632
N4_5 N 1.000000 1.000000 0.80244(6)
O9_2 O 0.60115(17) 0.64154(12) 0.76575(3)
O10_2 O 0.65029(24) 0.56004(14) 0.78743(4)
C34_2 C 0.74418(23) 0.73364(16) 0.78687(4)
C35_2 C 0.91027(21) 0.91121(15) 0.79791(4)
C36_2 C 0.89075(24) 0.82542(17) 0.80862(4)
H27_2 H 0.932737 0.827230 0.819671
C37_2 C 0.80920(25) 0.73728(17) 0.80294(4)
H28_2 H 0.797578 0.679733 0.809936
C38_2 C 0.65827(25) 0.63789(17) 0.77976(4)
C39_2 C 0.76231(24) 0.81991(17) 0.77667(4)
H29_2 H 0.718806 0.818368 0.766051
C40_2 C 0.84447(23) 0.90847(16) 0.78210(4)
H30_2 H 0.855780 0.966108 0.775207
C80_2 C 0.6528(2) 0.8923(3) 0.63324(4)
H63_2 H 0.605891 0.826934 0.635720
C82_2 C 0.6892(2) 0.9546(3) 0.65121(4)
H65_2 H 0.666206 0.930956 0.665333
O17_2 O 0.44196(16) 0.62517(11) 0.73768(3)
H73_2 H 0.394051 0.596082 0.728156
H74_2 H 0.487493 0.674162 0.730095
O18_2 O 0.54039(19) 0.43486(14) 0.75689(3)
H75_2 H 0.491798 0.380099 0.761315
H76_2 H 0.577591 0.457040 0.768364
N11_2 N 0.58779(21) 0.57305(14) 0.72076(3)
N12_2 N 0.39328(21) 0.48666(14) 0.77556(3)
C91_2 C 0.25105(25) 0.40939(17) 0.80932(3)
C92_2 C 0.17363(27) 0.36789(18) 0.82607(4)
H77_2 H 0.130385 0.392060 0.826604
C93_2 C 0.71933(28) 0.62569(19) 0.68518(4)
C94_2 C 0.5590(3) 0.5728(2) 0.70009(4)
H78_2 H 0.493601 0.554376 0.697613
C95_2 C 0.7860(3) 0.6521(2) 0.66612(4)
H79_2 H 0.759315 0.648096 0.652184
C96_2 C 0.32445(28) 0.5113(2) 0.77761(4)
H80_2 H 0.323872 0.555571 0.767487
C97_2 C 0.2536(3) 0.4751(2) 0.79391(4)
H81_2 H 0.207102 0.495289 0.794506
C98_2 C 0.6213(3) 0.5987(2) 0.68212(4)
H82_2 H 0.597623 0.598083 0.668000
C99_2 C 0.6822(3) 0.6000(2) 0.72372(4)
H83_2 H 0.704009 0.601083 0.738048
C100_2 C 0.7488(3) 0.6262(2) 0.70670(4)
H84_2 H 0.813785 0.644426 0.709701
C101_2 C 0.3242(4) 0.3855(3) 0.80767(5)
H85_2 H 0.327100 0.342276 0.817709
C102_2 C 0.3931(4) 0.4263(3) 0.79106(5)
H86_2 H 0.442734 0.410617 0.790635
C103_2 C 0.94734(28) 0.70764(19) 0.64815(4)
C105_2 C 0.8807(3) 0.6812(2) 0.66721(4)
H88_2 H 0.907352 0.685237 0.681149
C107_2 C 0.9845(3) 0.7333(2) 0.60961(4)
H90_2 H 0.962658 0.732250 0.595285
C108_2 C 0.9179(3) 0.7071(2) 0.62663(4)
H91_2 H 0.852882 0.688907 0.623632
C109_2 C 0.08229(25) 0.25727(17) 0.85734(3)
C110_2 C 0.15971(27) 0.29877(18) 0.84059(4)
H92_2 H 0.202949 0.274606 0.840062
C111_2 C 0.00889(28) 0.1553(2) 0.88905(4)
H93_2 H 0.009462 0.111095 0.899179
C112_2 C 0.0798(3) 0.1915(2) 0.87275(4)
H94_2 H 0.126232 0.171377 0.872160
C113_2 C 0.0092(4) 0.2811(3) 0.85899(5)
H95_2 H 0.006234 0.324390 0.848957
O31_2 O 0.95134(16) 0.24970(11) 0.93588(3)
N14_2 N 0.94006(21) 0.18000(14) 0.89110(3)
C114_2 C 0.9403(4) 0.2403(3) 0.87560(5)
H96_2 H 0.890600 0.256049 0.876031
O35_2 O 0.89138(16) 0.04149(11) 0.92898(3)
H129_2 H 0.939283 0.070584 0.938510
O36_2 O 0.79295(19) 0.23180(14) 0.90977(3)
H131_2 H 0.841536 0.286567 0.905351
H132_2 H 0.755743 0.209626 0.898302
N19_2 N 0.74555(21) 0.09361(14) 0.94590(3)
H130_2 H 0.845841 0.992504 0.936571
O13_3 O 0.04866(16) 0.75030(11) 0.06412(3)
N16_3 N 0.000000 -0.000000 0.19756(6)
O27_3 O 0.39885(17) 0.35846(12) 0.23425(3)
O28_3 O 0.34971(24) 0.43996(14) 0.21257(4)
C136_3 C 0.25582(23) 0.26636(16) 0.21313(4)
C137_3 C 0.08973(21) 0.08879(15) 0.20209(4)
C138_3 C 0.10925(24) 0.17458(17) 0.19138(4)
H113_3 H 0.067263 0.172770 0.180329
C139_3 C 0.19080(25) 0.26272(17) 0.19706(4)
H114_3 H 0.202422 0.320267 0.190064
C140_3 C 0.34173(25) 0.36211(17) 0.22024(4)
C141_3 C 0.23769(24) 0.18009(17) 0.22333(4)
H115_3 H 0.281194 0.181632 0.233949
C142_3 C 0.15553(23) 0.09153(16) 0.21790(4)
H116_3 H 0.144220 0.033892 0.224793
Ni8_3 Ni 0.15788(3) 0.86402(2) 0.08152(2)
N16_4 N 0.000000 1.000000 0.19756(6)
O26_3 O 0.09024(19) 0.65029(24) 0.21257(4)
C129_3 C 0.01053(17) 0.74418(23) 0.21313(4)
C131_3 C 0.06532(17) 0.89075(24) 0.19138(4)
H109_3 H 0.105506 0.932737 0.180329
C132_3 C 0.07191(18) 0.80920(25) 0.19706(4)
H110_3 H 0.117844 0.797578 0.190064
C133_3 C 0.02037(19) 0.65827(25) 0.22024(4)
H72_3 H 0.032116 0.442734 0.209365
Ni1_3 Ni 0.13598(2) 0.29387(2) 0.08152(2)
O1_3 O 0.04149(11) 0.15012(11) 0.07102(3)
H1_3 H 0.070584 0.131302 0.061490
O2_3 O 0.02512(12) 0.29294(12) 0.09909(3)
O3_3 O 0.24970(11) 0.29837(11) 0.06412(3)
O4_3 O 0.19647(11) 0.14578(12) 0.05205(3)
O5_3 O 0.23180(14) 0.43886(13) 0.09023(3)
H3_3 H 0.286567 0.445032 0.094649
H4_3 H 0.209626 0.453884 0.101698
N1_3 N 0.09361(14) 0.34807(15) 0.05410(3)
N2_3 N 0.18000(14) 0.23995(15) 0.10890(3)
N3_6 N 0.666666 0.333334 0.04885(6)
O6_3 O 0.10662(14) 0.42358(19) 0.12077(4)
C1_3 C 0.26307(14) 0.23127(15) 0.05699(3)
C2_3 C 0.53974(15) 0.36473(15) 0.06361(4)
H5_3 H 0.587566 0.419001 0.071239
C3_3 C 0.44203(15) 0.33957(15) 0.06522(4)
H6_3 H 0.425058 0.378249 0.073672
C4_3 C 0.36911(14) 0.25773(15) 0.05444(3)
C7_3 C 0.56655(14) 0.30889(14) 0.05056(4)
C8_3 C 0.39559(15) 0.20105(16) 0.04167(4)
H7_3 H 0.347321 0.145134 0.034577
C11_3 C 0.02877(17) 0.35371(19) 0.11310(4)
C12_3 C 0.25727(17) 0.17499(19) 0.14266(3)
C13_3 C 0.49422(16) 0.22768(16) 0.03944(4)
H10_3 H 0.511553 0.190780 0.030435
C14_3 C 0.29877(18) 0.1391(2) 0.15941(4)
H11_3 H 0.274606 0.071658 0.159938
C15_3 C 0.04097(19) 0.4270(2) 0.01852(4)
C18_3 C 0.0938(2) 0.3195(2) 0.03343(4)
H14_3 H 0.112290 0.272558 0.030947
C20_3 C 0.1553(2) 0.14645(19) 0.11095(4)
H16_3 H 0.111095 0.101634 0.100821
C21_3 C 0.1915(2) 0.1118(2) 0.12725(4)
H17_3 H 0.171377 0.045146 0.127840
C22_3 C 0.0679(2) 0.3559(2) 0.01546(4)
H18_3 H 0.068583 0.332873 0.001334
C23_3 C 0.0666(2) 0.4155(2) 0.05706(4)
H19_3 H 0.065583 0.436259 0.071382
C24_3 C 0.0404(2) 0.4559(2) 0.04004(4)
H20_3 H 0.022240 0.502692 0.043035
C25_3 C 0.2811(3) 0.2720(2) 0.14101(5)
H21_3 H 0.324390 0.318157 0.151043
C26_3 C 0.2403(3) 0.3001(2) 0.12440(5)
H22_3 H 0.256049 0.365450 0.123969
O12_3 O 0.85422(12) 0.05070(16) 0.05205(3)
C41_3 C 0.76873(15) 0.03181(21) 0.05699(3)
C42_3 C 0.63527(15) 0.17502(21) 0.06361(4)
H31_3 H 0.580999 0.168566 0.071239
C43_3 C 0.66043(15) 0.10247(21) 0.06522(4)
H32_3 H 0.621751 0.046810 0.073672
C44_3 C 0.74227(15) 0.11139(21) 0.05444(3)
C45_3 C 0.69111(14) 0.25767(20) 0.05056(4)
C46_3 C 0.79895(16) 0.19455(22) 0.04167(4)
H33_3 H 0.854866 0.202188 0.034577
C47_3 C 0.77232(16) 0.26655(23) 0.03944(4)
H34_3 H 0.809220 0.320774 0.030435
O14_3 O 0.94930(16) 0.80353(11) 0.05205(3)
C48_3 C 0.96819(21) 0.73693(14) 0.05699(3)
C49_3 C 0.82498(21) 0.46026(15) 0.06361(4)
H35_3 H 0.831434 0.412434 0.071239
C50_3 C 0.89753(21) 0.55797(15) 0.06522(4)
H36_3 H 0.953190 0.574942 0.073672
C51_3 C 0.88861(21) 0.63089(14) 0.05444(3)
C52_3 C 0.74233(20) 0.43345(14) 0.05056(4)
C53_3 C 0.80545(22) 0.60441(15) 0.04167(4)
H37_3 H 0.797812 0.652679 0.034577
C54_3 C 0.73345(23) 0.50578(16) 0.03944(4)
H38_3 H 0.679226 0.488447 0.030435
N6_3 N 0.48666(14) 0.09339(15) 0.22444(3)
C61_3 C 0.40939(17) 0.15835(19) 0.19068(3)
C62_3 C 0.36789(18) 0.1943(2) 0.17393(4)
H44_3 H 0.392060 0.261676 0.173396
C63_3 C 0.5113(2) 0.18689(19) 0.22239(4)
H45_3 H 0.555571 0.231700 0.232513
C64_3 C 0.4751(2) 0.2216(2) 0.20609(4)
H46_3 H 0.495289 0.288188 0.205494
C65_3 C 0.3855(3) 0.0614(2) 0.19233(5)
H47_3 H 0.342276 0.015177 0.182291
C66_3 C 0.4263(3) 0.0333(2) 0.20894(5)
O19_3 O 0.62517(11) 0.18322(11) 0.26232(3)
H97_3 H 0.596082 0.202032 0.271844
H98_3 H 0.674162 0.186670 0.269905
O20_3 O 0.64154(12) 0.04040(12) 0.23425(3)
O21_3 O 0.41696(11) 0.03497(11) 0.26922(3)
O22_3 O 0.47019(11) 0.18756(12) 0.28129(3)
N15_3 N 0.000000 -0.000000 0.28449(6)
N16_5 N 1.000000 -0.000000 0.19756(6)
C115_3 C 0.40359(14) 0.10207(15) 0.27635(3)
C118_3 C 0.29755(14) 0.07561(15) 0.27890(3)
C120_3 C 0.91121(15) 0.00095(15) 0.20209(4)
C121_3 C 0.10011(14) 0.02445(14) 0.28278(4)
C122_3 C 0.27107(15) 0.13229(16) 0.29167(4)
H103_3 H 0.319345 0.188200 0.298757
C126_3 C 0.17244(16) 0.10566(16) 0.29390(4)
H106_3 H 0.155113 0.142554 0.302899
C127_3 C 0.81991(17) 0.05761(17) 0.22333(4)
H107_3 H 0.818368 0.099563 0.233949
C128_3 C 0.90847(16) 0.06401(17) 0.21790(4)
H108_3 H 0.966108 0.110329 0.224793
C144_3 C 0.03139(15) 0.15832(21) 0.26973(4)
H117_3 H 0.085667 0.164768 0.262095
C145_3 C 0.00623(15) 0.23087(21) 0.26812(4)
H118_3 H 0.044915 0.286524 0.259662
O34_3 O 0.10552(13) 0.54039(19) 0.24311(3)
H127_3 H 0.111698 0.491798 0.238685
H128_3 H 0.120550 0.577591 0.231636
C19_3 C 0.0145(2) 0.4672(2) 0.99946(4)
H15_3 H 0.018570 0.444552 0.985518
O11_3 O 0.70163(11) 0.95134(16) 0.06412(3)
H48_3 H 0.410617 0.967884 0.209365
O23_3 O 0.43486(14) 0.89448(13) 0.24311(3)
H99_3 H 0.380099 0.888302 0.238685
H100_3 H 0.457040 0.879450 0.231636
N15_4 N 0.000000 1.000000 0.28449(6)
N16_6 N 1.000000 1.000000 0.19756(6)
O24_3 O 0.56004(14) 0.90976(19) 0.21257(4)
C116_3 C 0.12692(15) 0.96861(15) 0.26973(4)
H101_3 H 0.079100 0.914333 0.262095
C117_3 C 0.22463(15) 0.99377(15) 0.26812(4)
H102_3 H 0.241608 0.955085 0.259662
C119_3 C 0.73364(16) 0.98947(17) 0.21313(4)
C123_3 C 0.82542(17) 0.93468(17) 0.19138(4)
H104_3 H 0.827230 0.894494 0.180329
C124_3 C 0.73728(17) 0.92809(18) 0.19706(4)
H105_3 H 0.679733 0.882156 0.190064
C125_3 C 0.63789(17) 0.97963(19) 0.22024(4)
O25_3 O 0.95960(12) 0.60115(17) 0.23425(3)
C130_3 C 0.99905(15) 0.91027(21) 0.20209(4)
C134_3 C 0.94239(17) 0.76231(24) 0.22333(4)
H111_3 H 0.900437 0.718806 0.233949
C135_3 C 0.93599(17) 0.84447(23) 0.21790(4)
H112_3 H 0.889671 0.855780 0.224793
Ni7_3 Ni 0.70613(2) 0.84212(3) 0.08152(2)
C67_3 C 0.82501(19) 0.08229(25) 0.14266(3)
C68_3 C 0.8609(2) 0.15971(27) 0.15941(4)
H53_3 H 0.928342 0.202949 0.159938
C72_3 C 0.85355(19) 0.00889(28) 0.11095(4)
H56_3 H 0.898366 0.009462 0.100821
C73_3 C 0.8882(2) 0.0798(3) 0.12725(4)
H57_3 H 0.954854 0.126232 0.127840
C77_3 C 0.7280(2) 0.0092(4) 0.14101(5)
H61_3 H 0.681843 0.006234 0.151043
N10_3 N 0.90661(15) 0.39328(21) 0.22444(3)
C85_3 C 0.84165(19) 0.25105(25) 0.19068(3)
C86_3 C 0.8057(2) 0.17363(27) 0.17393(4)
H68_3 H 0.738324 0.130385 0.173396
C87_3 C 0.81311(19) 0.32445(28) 0.22239(4)
H69_3 H 0.768300 0.323872 0.232513
C88_3 C 0.7784(2) 0.2536(3) 0.20609(4)
H70_3 H 0.711812 0.207102 0.205494
C89_3 C 0.9386(2) 0.3242(4) 0.19233(5)
H71_3 H 0.984823 0.327100 0.182291
C90_3 C 0.9667(2) 0.3931(4) 0.20894(5)
H2_3 H 0.992504 0.146664 0.063429
N4_6 N 0.666666 0.333334 0.13578(6)
C5_3 C 0.93302(16) 0.34387(17) 0.12021(4)
C6_3 C 0.75545(15) 0.33239(15) 0.13125(4)
C9_3 C 0.84124(17) 0.39866(17) 0.14196(4)
H8_3 H 0.839436 0.438840 0.153005
C10_3 C 0.92938(17) 0.40525(18) 0.13628(4)
H9_3 H 0.986933 0.451178 0.143270
C16_3 C 0.84675(17) 0.27573(17) 0.11001(4)
H12_3 H 0.848298 0.233771 0.099385
C17_3 C 0.75819(16) 0.26933(17) 0.11544(4)
H13_3 H 0.700558 0.223005 0.108541
O7_3 O 0.70706(12) 0.73219(17) 0.09909(3)
O8_3 O 0.57642(19) 0.68305(24) 0.12077(4)
C27_3 C 0.65613(17) 0.58916(23) 0.12021(4)
C28_3 C 0.66761(15) 0.42307(21) 0.13125(4)
C29_3 C 0.60134(17) 0.44259(24) 0.14196(4)
H23_3 H 0.561160 0.400597 0.153005
C30_3 C 0.59475(18) 0.52414(25) 0.13628(4)
H24_3 H 0.548822 0.535756 0.143270
C31_3 C 0.64629(19) 0.67507(25) 0.11310(4)
C32_3 C 0.72427(17) 0.57103(24) 0.11001(4)
H25_3 H 0.766229 0.614528 0.099385
C33_3 C 0.73067(17) 0.48887(23) 0.11544(4)
H26_3 H 0.776995 0.477554 0.108541
C34_3 C 0.41084(23) 0.06698(16) 0.12021(4)
C35_3 C 0.57693(21) 0.24455(15) 0.13125(4)
C36_3 C 0.55741(24) 0.15876(17) 0.14196(4)
H27_3 H 0.599403 0.160564 0.153005
C37_3 C 0.47586(25) 0.07062(17) 0.13628(4)
H28_3 H 0.464244 0.013067 0.143270
C39_3 C 0.42897(24) 0.15325(17) 0.11001(4)
H29_3 H 0.385472 0.151702 0.099385
C40_3 C 0.51113(23) 0.24181(16) 0.11544(4)
H30_3 H 0.522446 0.299442 0.108541
C57_3 C 0.9855(2) 0.5328(2) 0.00054(4)
H40_3 H 0.981430 0.555448 0.014482
O15_3 O 0.84988(11) 0.89138(16) 0.07102(3)
H49_3 H 0.868698 0.939283 0.061490
H50_3 H 0.853336 0.845841 0.063429
O16_3 O 0.56114(13) 0.79295(19) 0.09023(3)
H51_3 H 0.554968 0.841536 0.094649
H52_3 H 0.546116 0.755743 0.101698
N7_3 N 0.65193(15) 0.74555(21) 0.05410(3)
N8_3 N 0.76005(15) 0.94006(21) 0.10890(3)
C69_3 C 0.5730(2) 0.61401(28) 0.01852(4)
C70_3 C 0.6805(2) 0.7744(3) 0.03343(4)
H54_3 H 0.727442 0.839733 0.030947
C74_3 C 0.6441(2) 0.7121(3) 0.01546(4)
H58_3 H 0.667127 0.735711 0.001334
C75_3 C 0.5845(2) 0.6512(3) 0.05706(4)
H59_3 H 0.563741 0.629325 0.071382
C76_3 C 0.5441(2) 0.5846(3) 0.04004(4)
H60_3 H 0.497308 0.519549 0.043035
C78_3 C 0.6999(2) 0.9403(4) 0.12440(5)
H62_3 H 0.634550 0.890600 0.123969
C81_3 C 0.4672(2) 0.4526(3) 0.00054(4)
H64_3 H 0.444552 0.425981 0.014482
H74_3 H 0.154159 0.007496 0.063429
C105_3 C 0.5474(3) 0.0145(2) 0.00054(4)
H88_3 H 0.574019 0.018570 0.014482
N15_5 N 1.000000 -0.000000 0.28449(6)
O29_3 O 0.96503(11) 0.38200(16) 0.26922(3)
O30_3 O 0.81244(12) 0.28264(16) 0.28129(3)
C143_3 C 0.89793(15) 0.30153(21) 0.27635(3)
C146_3 C 0.92439(15) 0.22195(21) 0.27890(3)
C147_3 C 0.97555(14) 0.07567(20) 0.28278(4)
C148_3 C 0.86771(16) 0.13879(22) 0.29167(4)
H119_3 H 0.811800 0.131146 0.298757
C149_3 C 0.89434(16) 0.06679(23) 0.29390(4)
H120_3 H 0.857446 0.012560 0.302899
O33_3 O 0.81678(11) 0.44196(16) 0.26232(3)
H125_3 H 0.797968 0.394051 0.271844
H126_3 H 0.813330 0.487493 0.269905
C55_3 C 0.95903(19) 0.5730(2) 0.98148(4)
C56_3 C 0.9062(2) 0.6805(2) 0.96657(4)
H39_3 H 0.887710 0.727442 0.969053
C58_3 C 0.9321(2) 0.6441(2) 0.98454(4)
H41_3 H 0.931417 0.667127 0.998666
C59_3 C 0.9334(2) 0.5845(2) 0.94294(4)
H42_3 H 0.934417 0.563741 0.928618
C60_3 C 0.9596(2) 0.5441(2) 0.95996(4)
H43_3 H 0.977760 0.497308 0.956965
C71_3 C 0.5328(2) 0.5474(3) 0.99946(4)
H55_3 H 0.555448 0.574019 0.985518
C79_3 C 0.4270(2) 0.38599(28) 0.98148(4)
C80_3 C 0.3195(2) 0.2256(3) 0.96657(4)
H63_3 H 0.272558 0.160267 0.969053
C82_3 C 0.3559(2) 0.2879(3) 0.98454(4)
H65_3 H 0.332873 0.264289 0.998666
C83_3 C 0.4155(2) 0.3488(3) 0.94294(4)
H66_3 H 0.436259 0.370675 0.928618
C84_3 C 0.4559(2) 0.4154(3) 0.95996(4)
H67_3 H 0.502692 0.480451 0.956965
C103_3 C 0.61401(28) 0.04097(19) 0.98148(4)
C104_3 C 0.7744(3) 0.0938(2) 0.96657(4)
H87_3 H 0.839733 0.112290 0.969053
C106_3 C 0.7121(3) 0.0679(2) 0.98454(4)
H89_3 H 0.735711 0.068583 0.998666
C107_3 C 0.6512(3) 0.0666(2) 0.94294(4)
H90_3 H 0.629325 0.065583 0.928618
C108_3 C 0.5846(3) 0.0404(2) 0.95996(4)
H91_3 H 0.519549 0.022240 0.956965
O9_3 O 0.26781(17) 0.97488(12) 0.09909(3)
O10_3 O 0.31695(24) 0.89338(14) 0.12077(4)
C38_3 C 0.32493(25) 0.97123(17) 0.11310(4)
O17_3 O 0.10862(16) 0.95851(11) 0.07102(3)
H73_3 H 0.060717 0.929416 0.061490
O18_3 O 0.20705(19) 0.76820(14) 0.09023(3)
H75_3 H 0.158464 0.713433 0.094649
H76_3 H 0.244257 0.790374 0.101698
N11_3 N 0.25445(21) 0.90639(14) 0.05410(3)
N12_3 N 0.05994(21) 0.82000(14) 0.10890(3)
C93_3 C 0.38599(28) 0.95903(19) 0.01852(4)
C94_3 C 0.2256(3) 0.9062(2) 0.03343(4)
H78_3 H 0.160267 0.887710 0.030947
C98_3 C 0.2879(3) 0.9321(2) 0.01546(4)
H82_3 H 0.264289 0.931417 0.001334
C99_3 C 0.3488(3) 0.9334(2) 0.05706(4)
H83_3 H 0.370675 0.934417 0.071382
C100_3 C 0.4154(3) 0.9596(2) 0.04004(4)
H84_3 H 0.480451 0.977760 0.043035
C102_3 C 0.0597(4) 0.7597(3) 0.12440(5)
H86_3 H 0.109400 0.743951 0.123969
N15_6 N 1.000000 1.000000 0.28449(6)
O31_3 O 0.61800(16) 0.58304(11) 0.26922(3)
O32_3 O 0.71736(16) 0.52981(11) 0.28129(3)
C150_3 C 0.69847(21) 0.59641(14) 0.27635(3)
C151_3 C 0.84168(21) 0.87308(15) 0.26973(4)
H121_3 H 0.835232 0.920900 0.262095
C152_3 C 0.76913(21) 0.77537(15) 0.26812(4)
H122_3 H 0.713476 0.758392 0.259662
C153_3 C 0.77805(21) 0.70245(14) 0.27890(3)
C154_3 C 0.92433(20) 0.89989(14) 0.28278(4)
C155_3 C 0.86121(22) 0.72893(15) 0.29167(4)
H123_3 H 0.868854 0.680655 0.298757
C156_3 C 0.93321(23) 0.82756(16) 0.29390(4)
H124_3 H 0.987440 0.844887 0.302899
C95_3 C 0.4526(3) 0.9855(2) 0.99946(4)
H79_3 H 0.425981 0.981430 0.985518
C91_3 C 0.91771(25) 0.74273(17) 0.14266(3)
C92_3 C 0.84029(27) 0.70123(18) 0.15941(4)
H77_3 H 0.797051 0.725394 0.159938
C96_3 C 0.99111(28) 0.8447(2) 0.11095(4)
H80_3 H 0.990538 0.888905 0.100821
C97_3 C 0.9202(3) 0.8085(2) 0.12725(4)
H81_3 H 0.873768 0.828623 0.127840
C101_3 C 0.9908(4) 0.7189(3) 0.14101(5)
H85_3 H 0.993766 0.675610 0.151043
N14_3 N 0.60672(21) 0.51334(14) 0.22444(3)
C109_3 C 0.74895(25) 0.59061(17) 0.19068(3)
C110_3 C 0.82637(27) 0.63211(18) 0.17393(4)
H92_3 H 0.869615 0.607940 0.173396
C111_3 C 0.67555(28) 0.4887(2) 0.22239(4)
H93_3 H 0.676128 0.444429 0.232513
C112_3 C 0.7464(3) 0.5249(2) 0.20609(4)
H94_3 H 0.792898 0.504711 0.205494
C113_3 C 0.6758(4) 0.6145(3) 0.19233(5)
H95_3 H 0.672900 0.657724 0.182291
C114_3 C 0.6069(4) 0.5737(3) 0.20894(5)
H96_3 H 0.557266 0.589383 0.209365
O35_3 O 0.55804(16) 0.37483(11) 0.26232(3)
H129_3 H 0.605949 0.403918 0.271844
H130_3 H 0.512507 0.325838 0.269905
O36_3 O 0.45961(19) 0.56514(14) 0.24311(3)
H131_3 H 0.508202 0.619901 0.238685
H132_3 H 0.422409 0.542960 0.231636
loop_
_geom_bond_atom_site_label_1
_geom_bond_atom_site_label_2
_geom_bond_site_symmetry_1
_geom_bond_site_symmetry_2
O27 C140 1_555 1_555
O28 C140 1_555 1_555
Ni12 O27 1_555 1_555
O13 C48 1_555 1_555
O14 C48 1_555 1_555
Ni8 O13 1_555 1_555
N3 C7 1_555 1_555
C2 H5 1_555 1_555
C3 C2 1_555 1_555
H6 C3 1_555 1_555
C7 C2 1_555 1_555
C8 C4 1_555 1_555
H7 C8 1_555 1_555
C13 C7 1_555 1_555
H10 C13 1_555 1_555
O11 C41 1_555 1_555
O12 C41 1_555 1_555
C41 C44 1_555 1_555
C42 H31 1_555 1_555
C43 C42 1_555 1_555
H32 C43 1_555 1_555
C44 C43 1_555 1_555
C45 N3 1_555 1_555
C46 C44 1_555 1_555
H33 C46 1_555 1_555
C47 C45 1_555 1_555
H34 C47 1_555 1_555
C49 H35 1_555 1_555
C50 C49 1_555 1_555
H36 C50 1_555 1_555
C51 C50 1_555 1_555
C52 N3 1_555 1_555
C53 C51 1_555 1_555
H37 C53 1_555 1_555
C54 C52 1_555 1_555
H38 C54 1_555 1_555
N6 C63 1_555 1_555
C61 C62 1_555 1_555
H44 C62 1_555 1_555
C63 H45 1_555 1_555
C64 C61 1_555 1_555
H46 C64 1_555 1_555
C65 C61 1_555 1_555
H47 C65 1_555 1_555
C66 N6 1_555 1_555
H48 C66 1_555 1_555
Ni4 N6 1_555 1_555
O19 Ni4 1_555 1_555
H97 O19 1_555 1_555
H98 O19 1_555 1_555
O20 Ni4 1_555 1_555
O21 Ni4 1_555 1_555
O22 C115 1_555 1_555
O23 Ni4 1_555 1_555
H99 O23 1_555 1_555
H100 O23 1_555 1_555
N16 C120 1_555 1_555
O24 C125 1_555 1_555
C115 O21 1_555 1_555
C119 C124 1_555 1_555
C120 C123 1_555 1_555
C123 H104 1_555 1_555
C124 C123 1_555 1_555
H105 C124 1_555 1_555
C125 O20 1_555 1_555
C127 C119 1_555 1_555
H107 C127 1_555 1_555
C128 C120 1_555 1_555
H108 C128 1_555 1_555
C129 C132 1_555 1_555
C130 N16 1_555 1_555
C131 C130 1_555 1_555
H109 C131 1_555 1_555
C132 C131 1_555 1_555
H110 C132 1_555 1_555
C134 C129 1_555 1_555
H111 C134 1_555 1_555
C135 C130 1_555 1_555
H112 C135 1_555 1_555
C136 C139 1_555 1_555
C137 N16 1_555 1_555
C138 C137 1_555 1_555
H113 C138 1_555 1_555
C139 C138 1_555 1_555
H114 C139 1_555 1_555
C141 C136 1_555 1_555
H115 C141 1_555 1_555
C142 C137 1_555 1_555
H116 C142 1_555 1_555
Ni7 O11 1_555 1_555
N17 Ni4 1_555 1_555
C3 C4 1_555 1_555
C8 C13 1_555 1_555
C42 C45 1_555 1_555
C46 C47 1_555 1_555
C49 C52 1_555 1_555
C53 C54 1_555 1_555
C63 C64 1_555 1_555
C65 C66 1_555 1_555
C119 C125 1_555 1_555
C127 C128 1_555 1_555
C134 C135 1_555 1_555
C141 C142 1_555 1_555
O25 C133 1_555 1_555
O26 C133 1_555 1_555
Ni10 O25 1_555 1_555
O7 C31 1_555 1_555
O8 C31 1_555 1_555
C56 H39 1_555 1_555
Ni7 O7 1_555 1_555
O15 Ni7 1_555 1_555
H49 O15 1_555 1_555
H50 O15 1_555 1_555
O16 Ni7 1_555 1_555
H51 O16 1_555 1_555
H52 O16 1_555 1_555
N7 Ni7 1_555 1_555
N8 Ni7 1_555 1_555
C67 C68 1_555 1_555
C68 H53 1_555 1_555
C70 N7 1_555 1_555
H54 C70 1_555 1_555
C72 N8 1_555 1_555
H56 C72 1_555 1_555
C73 C67 1_555 1_555
H57 C73 1_555 1_555
H58 C74 1_555 1_555
C77 C67 1_555 1_555
H61 C77 1_555 1_555
C78 N8 1_555 1_555
H62 C78 1_555 1_555
N10 C87 1_555 1_555
C85 C86 1_555 1_555
C86 C68 1_555 1_555
H68 C86 1_555 1_555
C87 H69 1_555 1_555
C88 C85 1_555 1_555
H70 C88 1_555 1_555
C89 C85 1_555 1_555
H71 C89 1_555 1_555
C90 N10 1_555 1_555
H72 C90 1_555 1_555
Ni10 N10 1_555 1_555
C70 C74 1_555 1_555
C72 C73 1_555 1_555
C77 C78 1_555 1_555
C87 C88 1_555 1_555
C89 C90 1_555 1_555
Ni1 O1 1_555 1_555
O1 H1 1_555 1_555
H2 O1 1_555 1_555
O2 Ni1 1_555 1_555
O3 Ni1 1_555 1_555
O4 C1 1_555 1_555
O5 Ni1 1_555 1_555
H3 O5 1_555 1_555
H4 O5 1_555 1_555
N1 Ni1 1_555 1_555
N2 Ni1 1_555 1_555
N4 C6 1_555 1_555
O6 C11 1_555 1_555
C1 O3 1_555 1_555
C5 C10 1_555 1_555
C6 C9 1_555 1_555
C9 H8 1_555 1_555
C10 C9 1_555 1_555
H9 C10 1_555 1_555
C11 O2 1_555 1_555
C12 C14 1_555 1_555
C14 H11 1_555 1_555
C15 C19 1_555 1_555
C16 C5 1_555 1_555
H12 C16 1_555 1_555
C17 C6 1_555 1_555
H13 C17 1_555 1_555
C18 N1 1_555 1_555
H14 C18 1_555 1_555
C19 H15 1_555 1_555
C20 N2 1_555 1_555
H16 C20 1_555 1_555
C21 C12 1_555 1_555
H17 C21 1_555 1_555
C22 C15 1_555 1_555
H18 C22 1_555 1_555
C23 N1 1_555 1_555
H19 C23 1_555 1_555
C24 C15 1_555 1_555
H20 C24 1_555 1_555
C25 C12 1_555 1_555
H21 C25 1_555 1_555
C26 N2 1_555 1_555
H22 C26 1_555 1_555
C27 C30 1_555 1_555
C28 N4 1_555 1_555
C29 C28 1_555 1_555
H23 C29 1_555 1_555
C30 C29 1_555 1_555
H24 C30 1_555 1_555
C32 C27 1_555 1_555
H25 C32 1_555 1_555
C33 C28 1_555 1_555
H26 C33 1_555 1_555
C34 C37 1_555 1_555
C35 N4 1_555 1_555
C36 C35 1_555 1_555
H27 C36 1_555 1_555
C37 C36 1_555 1_555
H28 C37 1_555 1_555
C39 C34 1_555 1_555
H29 C39 1_555 1_555
C40 C35 1_555 1_555
H30 C40 1_555 1_555
C55 C57 1_555 1_555
C57 C19 1_555 1_555
H40 C57 1_555 1_555
C58 C55 1_555 1_555
C59 N5 1_555 1_555
H42 C59 1_555 1_555
C60 C55 1_555 1_555
H43 C60 1_555 1_555
C69 C71 1_555 1_555
C71 H55 1_555 1_555
H59 C75 1_555 1_555
C76 C69 1_555 1_555
H60 C76 1_555 1_555
C79 C81 1_555 1_555
C81 C71 1_555 1_555
H64 C81 1_555 1_555
C82 C79 1_555 1_555
C83 N9 1_555 1_555
H66 C83 1_555 1_555
C84 C79 1_555 1_555
H67 C84 1_555 1_555
C93 C95 1_555 1_555
C95 H79 1_555 1_555
H83 C99 1_555 1_555
C100 C93 1_555 1_555
H84 C100 1_555 1_555
N13 C104 1_555 1_555
C103 C105 1_555 1_555
C104 H87 1_555 1_555
C105 C95 1_555 1_555
H88 C105 1_555 1_555
C106 C103 1_555 1_555
H89 C106 1_555 1_555
C107 N13 1_555 1_555
H90 C107 1_555 1_555
C108 C103 1_555 1_555
H91 C108 1_555 1_555
N15 C121 1_555 1_555
C116 H101 1_555 1_555
C117 C116 1_555 1_555
H102 C117 1_555 1_555
C121 C116 1_555 1_555
C122 C118 1_555 1_555
H103 C122 1_555 1_555
C126 C121 1_555 1_555
H106 C126 1_555 1_555
O29 C143 1_555 1_555
O30 C143 1_555 1_555
C143 C146 1_555 1_555
C144 H117 1_555 1_555
C145 C144 1_555 1_555
H118 C145 1_555 1_555
C146 C145 1_555 1_555
C147 N15 1_555 1_555
C148 C146 1_555 1_555
H119 C148 1_555 1_555
C149 C147 1_555 1_555
H120 C149 1_555 1_555
C151 H121 1_555 1_555
C152 C151 1_555 1_555
H122 C152 1_555 1_555
C153 C152 1_555 1_555
C154 N15 1_555 1_555
C155 C153 1_555 1_555
H123 C155 1_555 1_555
C156 C154 1_555 1_555
H124 C156 1_555 1_555
Ni10 O29 1_555 1_555
O33 Ni10 1_555 1_555
H125 O33 1_555 1_555
H126 O33 1_555 1_555
O34 Ni10 1_555 1_555
H127 O34 1_555 1_555
H128 O34 1_555 1_555
Ni15 N13 1_555 1_555
N18 Ni10 1_555 1_555
C5 C11 1_555 1_555
C16 C17 1_555 1_555
C18 C22 1_555 1_555
C20 C21 1_555 1_555
C23 C24 1_555 1_555
C25 C26 1_555 1_555
C32 C33 1_555 1_555
C39 C40 1_555 1_555
C59 C60 1_555 1_555
C75 C76 1_555 1_555
C83 C84 1_555 1_555
C99 C100 1_555 1_555
C104 C106 1_555 1_555
C107 C108 1_555 1_555
C117 C118 1_555 1_555
C122 C126 1_555 1_555
C144 C147 1_555 1_555
C148 C149 1_555 1_555
C151 C154 1_555 1_555
C155 C156 1_555 1_555
O31 C150 1_555 1_555
O32 C150 1_555 1_555
Ni12 O31 1_555 1_555
O9 C38 1_555 1_555
O10 C38 1_555 1_555
C80 H63 1_555 1_555
Ni8 O9 1_555 1_555
O17 Ni8 1_555 1_555
H73 O17 1_555 1_555
H74 O17 1_555 1_555
O18 Ni8 1_555 1_555
H75 O18 1_555 1_555
H76 O18 1_555 1_555
N11 Ni8 1_555 1_555
N12 Ni8 1_555 1_555
C91 C92 1_555 1_555
C92 H77 1_555 1_555
C94 N11 1_555 1_555
H78 C94 1_555 1_555
C96 N12 1_555 1_555
H80 C96 1_555 1_555
C97 C91 1_555 1_555
H81 C97 1_555 1_555
H82 C98 1_555 1_555
C101 C91 1_555 1_555
H85 C101 1_555 1_555
C102 N12 1_555 1_555
H86 C102 1_555 1_555
C94 C98 1_555 1_555
C96 C97 1_555 1_555
C101 C102 1_555 1_555
N14 C111 1_555 1_555
C109 C110 1_555 1_555
H92 C110 1_555 1_555
C111 H93 1_555 1_555
C112 C109 1_555 1_555
H94 C112 1_555 1_555
C113 C109 1_555 1_555
H95 C113 1_555 1_555
C114 N14 1_555 1_555
H96 C114 1_555 1_555
Ni12 N14 1_555 1_555
O35 Ni12 1_555 1_555
H129 O35 1_555 1_555
H130 O35 1_555 1_555
O36 Ni12 1_555 1_555
H131 O36 1_555 1_555
H132 O36 1_555 1_555
N19 Ni12 1_555 1_555
C111 C112 1_555 1_555
C113 C114 1_555 1_555
O13_2 C48_2 1_555 1_555
O14_2 C48_2 1_555 1_555
C48_2 C51_2 1_555 1_555
C49_2 H35_2 1_555 1_555
C50_2 C49_2 1_555 1_555
H36_2 C50_2 1_555 1_555
C51_2 C50_2 1_555 1_555
C52_2 N3_2 1_555 1_555
C53_2 C51_2 1_555 1_555
H37_2 C53_2 1_555 1_555
C54_2 C52_2 1_555 1_555
H38_2 C54_2 1_555 1_555
O27_2 C140_2 1_555 1_555
O28_2 C140_2 1_555 1_555
Ni8_2 O13_2 1_555 1_555
Ni12_2 O27_2 1_555 1_555
C49_2 C52_2 1_555 1_555
C53_2 C54_2 1_555 1_555
O11_2 C41_2 1_555 1_555
O12_2 C41_2 1_555 1_555
C41_2 C44_2 1_555 1_555
C45_2 N3_3 1_555 1_555
C46_2 C44_2 1_555 1_555
H33_2 C46_2 1_555 1_555
C47_2 C45_2 1_555 1_555
H34_2 C47_2 1_555 1_555
N16_2 C120_2 1_555 1_555
C119_2 C124_2 1_555 1_555
C120_2 C123_2 1_555 1_555
C123_2 H104_2 1_555 1_555
C124_2 C123_2 1_555 1_555
H105_2 C124_2 1_555 1_555
C127_2 C119_2 1_555 1_555
H107_2 C127_2 1_555 1_555
C128_2 C120_2 1_555 1_555
H108_2 C128_2 1_555 1_555
O25_2 C133_2 1_555 1_555
O26_2 C133_2 1_555 1_555
C129_2 C132_2 1_555 1_555
C130_2 N16_2 1_555 1_555
C131_2 C130_2 1_555 1_555
H109_2 C131_2 1_555 1_555
C132_2 C131_2 1_555 1_555
H110_2 C132_2 1_555 1_555
C133_2 C129_2 1_555 1_555
C134_2 C129_2 1_555 1_555
H111_2 C134_2 1_555 1_555
C135_2 C130_2 1_555 1_555
H112_2 C135_2 1_555 1_555
C136_2 C139_2 1_555 1_555
C137_2 N16_2 1_555 1_555
C138_2 C137_2 1_555 1_555
H113_2 C138_2 1_555 1_555
C139_2 C138_2 1_555 1_555
H114_2 C139_2 1_555 1_555
C141_2 C136_2 1_555 1_555
H115_2 C141_2 1_555 1_555
C142_2 C137_2 1_555 1_555
H116_2 C142_2 1_555 1_555
Ni7_2 O11_2 1_555 1_555
Ni10_2 O25_2 1_555 1_555
C46_2 C47_2 1_555 1_555
C127_2 C128_2 1_555 1_555
C134_2 C135_2 1_555 1_555
C141_2 C142_2 1_555 1_555
C90_2 N10_2 1_555 1_555
H72_2 C90_2 1_555 1_555
Ni10_2 N10_2 1_555 1_555
H3_2 O5_2 1_555 1_555
H4_2 O5_2 1_555 1_555
O6_2 C11_2 1_555 1_555
C2_2 H5_2 1_555 1_555
C3_2 C2_2 1_555 1_555
H6_2 C3_2 1_555 1_555
C5_2 C10_2 1_555 1_555
C9_2 H8_2 1_555 1_555
C10_2 C9_2 1_555 1_555
H9_2 C10_2 1_555 1_555
C15_2 C19_2 1_555 1_555
C19_2 H15_2 1_555 1_555
C22_2 C15_2 1_555 1_555
C23_2 N1_2 1_555 1_555
H19_2 C23_2 1_555 1_555
C24_2 C15_2 1_555 1_555
H20_2 C24_2 1_555 1_555
C28_2 N4_2 1_555 1_555
H25_2 C32_2 1_555 1_555
C33_2 C28_2 1_555 1_555
H26_2 C33_2 1_555 1_555
N17 C56_2 1_555 1_555
C55_2 C57_2 1_555 1_555
C56_2 H39_2 1_555 1_555
C57_2 C19_2 1_555 1_555
H40_2 C57_2 1_555 1_555
C58_2 C55_2 1_555 1_555
H41_2 C58_2 1_555 1_555
C59_2 N17 1_555 1_555
H42_2 C59_2 1_555 1_555
C60_2 C55_2 1_555 1_555
H43_2 C60_2 1_555 1_555
Ni7_2 O7_2 1_555 1_555
O15_2 Ni7_2 1_555 1_555
H49_2 O15_2 1_555 1_555
H50_2 O15_2 1_555 1_555
N8_2 Ni7_2 1_555 1_555
C67_2 C68_2 1_555 1_555
C68_2 H53_2 1_555 1_555
H54_2 C70_2 1_555 1_555
C72_2 N8_2 1_555 1_555
H56_2 C72_2 1_555 1_555
C73_2 C67_2 1_555 1_555
H57_2 C73_2 1_555 1_555
C77_2 C67_2 1_555 1_555
H61_2 C77_2 1_555 1_555
C78_2 N8_2 1_555 1_555
C85_2 C86_2 1_555 1_555
C86_2 C68_2 1_555 1_555
H68_2 C86_2 1_555 1_555
C87_2 H69_2 1_555 1_555
C88_2 C85_2 1_555 1_555
H70_2 C88_2 1_555 1_555
C89_2 C85_2 1_555 1_555
H71_2 C89_2 1_555 1_555
Ni10_2 O29_2 1_555 1_555
O33_2 Ni10_2 1_555 1_555
H125_2 O33_2 1_555 1_555
H126_2 O33_2 1_555 1_555
O34_2 Ni10_2 1_555 1_555
H127_2 O34_2 1_555 1_555
H128_2 O34_2 1_555 1_555
N18_2 Ni10_2 1_555 1_555
C5_2 C11_2 1_555 1_555
C23_2 C24_2 1_555 1_555
C32_2 C33_2 1_555 1_555
C56_2 C58_2 1_555 1_555
C59_2 C60_2 1_555 1_555
C72_2 C73_2 1_555 1_555
C77_2 C78_2 1_555 1_555
C87_2 C88_2 1_555 1_555
Ni1_2 O1_2 1_555 1_555
O1_2 H1_2 1_555 1_555
H2_2 O1_2 1_555 1_555
O2_2 Ni1_2 1_555 1_555
O3_2 Ni1_2 1_555 1_555
O4_2 C1_2 1_555 1_555
N2_2 Ni1_2 1_555 1_555
N3_5 C7_2 1_555 1_555
N4_3 C6_2 1_555 1_555
C1_2 O3_2 1_555 1_555
C4_2 C1_2 1_555 1_555
C8_2 C4_2 1_555 1_555
H7_2 C8_2 1_555 1_555
C12_2 C14_2 1_555 1_555
C13_2 C7_2 1_555 1_555
H10_2 C13_2 1_555 1_555
C14_2 H11_2 1_555 1_555
H12_2 C16_2 1_555 1_555
C17_2 C6_2 1_555 1_555
H13_2 C17_2 1_555 1_555
H14_2 C18_2 1_555 1_555
C20_2 N2_2 1_555 1_555
H16_2 C20_2 1_555 1_555
C21_2 C12_2 1_555 1_555
H17_2 C21_2 1_555 1_555
C25_2 C12_2 1_555 1_555
H21_2 C25_2 1_555 1_555
C26_2 N2_2 1_555 1_555
C42_2 H31_2 1_555 1_555
C43_2 C42_2 1_555 1_555
H32_2 C43_2 1_555 1_555
N6_2 C63_2 1_555 1_555
C61_2 C62_2 1_555 1_555
C62_2 C14_2 1_555 1_555
H44_2 C62_2 1_555 1_555
C63_2 H45_2 1_555 1_555
C64_2 C61_2 1_555 1_555
H46_2 C64_2 1_555 1_555
C65_2 C61_2 1_555 1_555
H47_2 C65_2 1_555 1_555
C66_2 N6_2 1_555 1_555
H48_2 C66_2 1_555 1_555
N19 C104_2 1_555 1_555
C104_2 H87_2 1_555 1_555
H89_2 C106_2 1_555 1_555
Ni4_2 N6_2 1_555 1_555
O19_2 Ni4_2 1_555 1_555
H97_2 O19_2 1_555 1_555
O20_2 Ni4_2 1_555 1_555
O21_2 Ni4_2 1_555 1_555
O22_2 C115_2 1_555 1_555
O23_2 Ni4_2 1_555 1_555
H99_2 O23_2 1_555 1_555
H100_2 O23_2 1_555 1_555
N15_2 C121_2 1_555 1_555
O24_2 C125_2 1_555 1_555
C115_2 O21_2 1_555 1_555
C116_2 H101_2 1_555 1_555
C117_2 C116_2 1_555 1_555
H102_2 C117_2 1_555 1_555
C118_2 C115_2 1_555 1_555
C121_2 C116_2 1_555 1_555
C122_2 C118_2 1_555 1_555
H103_2 C122_2 1_555 1_555
C125_2 O20_2 1_555 1_555
C126_2 C121_2 1_555 1_555
H106_2 C126_2 1_555 1_555
O30_2 C143_2 1_555 1_555
C143_2 C146_2 1_555 1_555
C144_2 H117_2 1_555 1_555
C145_2 C144_2 1_555 1_555
H118_2 C145_2 1_555 1_555
C146_2 C145_2 1_555 1_555
C147_2 N15_2 1_555 1_555
C148_2 C146_2 1_555 1_555
H119_2 C148_2 1_555 1_555
C149_2 C147_2 1_555 1_555
H120_2 C149_2 1_555 1_555
O32_2 C150_2 1_555 1_555
C150_2 C153_2 1_555 1_555
C151_2 H121_2 1_555 1_555
C152_2 C151_2 1_555 1_555
H122_2 C152_2 1_555 1_555
C153_2 C152_2 1_555 1_555
C154_2 N15_2 1_555 1_555
C155_2 C153_2 1_555 1_555
H123_2 C155_2 1_555 1_555
C156_2 C154_2 1_555 1_555
H124_2 C156_2 1_555 1_555
N17_2 Ni4_2 1_555 1_555
C8_2 C13_2 1_555 1_555
C16_2 C17_2 1_555 1_555
C20_2 C21_2 1_555 1_555
C25_2 C26_2 1_555 1_555
C63_2 C64_2 1_555 1_555
C65_2 C66_2 1_555 1_555
C104_2 C106_2 1_555 1_555
C117_2 C118_2 1_555 1_555
C122_2 C126_2 1_555 1_555
C144_2 C147_2 1_555 1_555
C148_2 C149_2 1_555 1_555
C151_2 C154_2 1_555 1_555
C155_2 C156_2 1_555 1_555
O8_2 C31_2 1_555 1_555
C27_2 C30_2 1_555 1_555
H23_2 C29_2 1_555 1_555
C30_2 C29_2 1_555 1_555
H24_2 C30_2 1_555 1_555
C31_2 C27_2 1_555 1_555
H51_2 O16_2 1_555 1_555
H52_2 O16_2 1_555 1_555
C69_2 C71_2 1_555 1_555
C71_2 H55_2 1_555 1_555
C74_2 C69_2 1_555 1_555
C75_2 N7_2 1_555 1_555
H59_2 C75_2 1_555 1_555
C76_2 C69_2 1_555 1_555
H60_2 C76_2 1_555 1_555
C79_2 C81_2 1_555 1_555
C81_2 C71_2 1_555 1_555
H64_2 C81_2 1_555 1_555
H66_2 C83_2 1_555 1_555
C84_2 C79_2 1_555 1_555
H67_2 C84_2 1_555 1_555
C75_2 C76_2 1_555 1_555
C83_2 C84_2 1_555 1_555
O9_2 C38_2 1_555 1_555
O10_2 C38_2 1_555 1_555
C34_2 C37_2 1_555 1_555
C35_2 N4_5 1_555 1_555
C36_2 C35_2 1_555 1_555
H27_2 C36_2 1_555 1_555
C37_2 C36_2 1_555 1_555
H28_2 C37_2 1_555 1_555
C38_2 C34_2 1_555 1_555
C39_2 C34_2 1_555 1_555
H29_2 C39_2 1_555 1_555
C40_2 C35_2 1_555 1_555
H30_2 C40_2 1_555 1_555
N18 C80_2 1_555 1_555
C80_2 H63_2 1_555 1_555
H65_2 C82_2 1_555 1_555
Ni8_2 O9_2 1_555 1_555
O17_2 Ni8_2 1_555 1_555
H73_2 O17_2 1_555 1_555
H74_2 O17_2 1_555 1_555
O18_2 Ni8_2 1_555 1_555
H75_2 O18_2 1_555 1_555
H76_2 O18_2 1_555 1_555
N11_2 Ni8_2 1_555 1_555
N12_2 Ni8_2 1_555 1_555
C91_2 C92_2 1_555 1_555
C92_2 H77_2 1_555 1_555
C93_2 C95_2 1_555 1_555
C94_2 N11_2 1_555 1_555
H78_2 C94_2 1_555 1_555
C95_2 H79_2 1_555 1_555
C96_2 N12_2 1_555 1_555
H80_2 C96_2 1_555 1_555
C97_2 C91_2 1_555 1_555
H81_2 C97_2 1_555 1_555
C98_2 C93_2 1_555 1_555
H82_2 C98_2 1_555 1_555
C99_2 N11_2 1_555 1_555
H83_2 C99_2 1_555 1_555
C100_2 C93_2 1_555 1_555
H84_2 C100_2 1_555 1_555
C101_2 C91_2 1_555 1_555
H85_2 C101_2 1_555 1_555
C102_2 N12_2 1_555 1_555
H86_2 C102_2 1_555 1_555
C103_2 C105_2 1_555 1_555
C105_2 C95_2 1_555 1_555
H88_2 C105_2 1_555 1_555
H90_2 C107_2 1_555 1_555
C108_2 C103_2 1_555 1_555
H91_2 C108_2 1_555 1_555
C109_2 C110_2 1_555 1_555
C110_2 C92_2 1_555 1_555
H92_2 C110_2 1_555 1_555
C111_2 H93_2 1_555 1_555
C112_2 C109_2 1_555 1_555
H94_2 C112_2 1_555 1_555
C113_2 C109_2 1_555 1_555
H95_2 C113_2 1_555 1_555
Ni12_2 O31_2 1_555 1_555
C39_2 C40_2 1_555 1_555
C80_2 C82_2 1_555 1_555
C94_2 C98_2 1_555 1_555
C96_2 C97_2 1_555 1_555
C99_2 C100_2 1_555 1_555
C101_2 C102_2 1_555 1_555
C107_2 C108_2 1_555 1_555
C111_2 C112_2 1_555 1_555
C114_2 N14_2 1_555 1_555
H96_2 C114_2 1_555 1_555
Ni12_2 N14_2 1_555 1_555
O35_2 Ni12_2 1_555 1_555
H129_2 O35_2 1_555 1_555
O36_2 Ni12_2 1_555 1_555
H131_2 O36_2 1_555 1_555
H132_2 O36_2 1_555 1_555
N19_2 Ni12_2 1_555 1_555
O27_3 C140_3 1_555 1_555
O28_3 C140_3 1_555 1_555
C136_3 C139_3 1_555 1_555
C137_3 N16_3 1_555 1_555
C138_3 C137_3 1_555 1_555
H113_3 C138_3 1_555 1_555
C139_3 C138_3 1_555 1_555
H114_3 C139_3 1_555 1_555
C140_3 C136_3 1_555 1_555
C141_3 C136_3 1_555 1_555
H115_3 C141_3 1_555 1_555
C142_3 C137_3 1_555 1_555
H116_3 C142_3 1_555 1_555
Ni8_3 O13_3 1_555 1_555
Ni15 O27_3 1_555 1_555
C141_3 C142_3 1_555 1_555
O26_3 C133_3 1_555 1_555
C129_3 C132_3 1_555 1_555
H109_3 C131_3 1_555 1_555
C132_3 C131_3 1_555 1_555
H110_3 C132_3 1_555 1_555
C133_3 C129_3 1_555 1_555
Ni1_3 O1_3 1_555 1_555
O1_3 H1_3 1_555 1_555
O2_3 Ni1_3 1_555 1_555
O3_3 Ni1_3 1_555 1_555
O4_3 C1_3 1_555 1_555
O5_3 Ni1_3 1_555 1_555
H3_3 O5_3 1_555 1_555
H4_3 O5_3 1_555 1_555
N1_3 Ni1_3 1_555 1_555
N2_3 Ni1_3 1_555 1_555
N3_6 C7_3 1_555 1_555
O6_3 C11_3 1_555 1_555
C1_3 O3_3 1_555 1_555
C2_3 H5_3 1_555 1_555
C3_3 C2_3 1_555 1_555
H6_3 C3_3 1_555 1_555
C4_3 C1_3 1_555 1_555
C7_3 C2_3 1_555 1_555
C8_3 C4_3 1_555 1_555
H7_3 C8_3 1_555 1_555
C11_3 O2_3 1_555 1_555
C12_3 C14_3 1_555 1_555
C13_3 C7_3 1_555 1_555
H10_3 C13_3 1_555 1_555
C14_3 H11_3 1_555 1_555
C18_3 N1_3 1_555 1_555
H14_3 C18_3 1_555 1_555
C20_3 N2_3 1_555 1_555
H16_3 C20_3 1_555 1_555
C21_3 C12_3 1_555 1_555
H17_3 C21_3 1_555 1_555
C22_3 C15_3 1_555 1_555
H18_3 C22_3 1_555 1_555
C23_3 N1_3 1_555 1_555
H19_3 C23_3 1_555 1_555
C24_3 C15_3 1_555 1_555
H20_3 C24_3 1_555 1_555
C25_3 C12_3 1_555 1_555
H21_3 C25_3 1_555 1_555
C26_3 N2_3 1_555 1_555
H22_3 C26_3 1_555 1_555
O12_3 C41_3 1_555 1_555
C41_3 C44_3 1_555 1_555
C42_3 H31_3 1_555 1_555
C43_3 C42_3 1_555 1_555
H32_3 C43_3 1_555 1_555
C44_3 C43_3 1_555 1_555
C45_3 N3_6 1_555 1_555
C46_3 C44_3 1_555 1_555
H33_3 C46_3 1_555 1_555
C47_3 C45_3 1_555 1_555
H34_3 C47_3 1_555 1_555
O14_3 C48_3 1_555 1_555
C48_3 C51_3 1_555 1_555
C49_3 H35_3 1_555 1_555
C50_3 C49_3 1_555 1_555
H36_3 C50_3 1_555 1_555
C51_3 C50_3 1_555 1_555
C52_3 N3_6 1_555 1_555
C53_3 C51_3 1_555 1_555
H37_3 C53_3 1_555 1_555
C54_3 C52_3 1_555 1_555
H38_3 C54_3 1_555 1_555
N6_3 C63_3 1_555 1_555
C61_3 C62_3 1_555 1_555
C62_3 C14_3 1_555 1_555
H44_3 C62_3 1_555 1_555
C63_3 H45_3 1_555 1_555
C64_3 C61_3 1_555 1_555
H46_3 C64_3 1_555 1_555
C65_3 C61_3 1_555 1_555
H47_3 C65_3 1_555 1_555
C66_3 N6_3 1_555 1_555
Ni13 N6_3 1_555 1_555
O19_3 Ni13 1_555 1_555
H97_3 O19_3 1_555 1_555
H98_3 O19_3 1_555 1_555
O20_3 Ni13 1_555 1_555
O21_3 Ni13 1_555 1_555
O22_3 C115_3 1_555 1_555
N15_3 C121_3 1_555 1_555
N16_5 C120_3 1_555 1_555
C115_3 O21_3 1_555 1_555
C118_3 C115_3 1_555 1_555
C122_3 C118_3 1_555 1_555
H103_3 C122_3 1_555 1_555
C126_3 C121_3 1_555 1_555
H106_3 C126_3 1_555 1_555
H107_3 C127_3 1_555 1_555
C128_3 C120_3 1_555 1_555
H108_3 C128_3 1_555 1_555
C144_3 H117_3 1_555 1_555
C145_3 C144_3 1_555 1_555
H118_3 C145_3 1_555 1_555
H127_3 O34_3 1_555 1_555
H128_3 O34_3 1_555 1_555
C3_3 C4_3 1_555 1_555
C8_3 C13_3 1_555 1_555
C18_3 C22_3 1_555 1_555
C20_3 C21_3 1_555 1_555
C23_3 C24_3 1_555 1_555
C25_3 C26_3 1_555 1_555
C42_3 C45_3 1_555 1_555
C46_3 C47_3 1_555 1_555
C49_3 C52_3 1_555 1_555
C53_3 C54_3 1_555 1_555
C63_3 C64_3 1_555 1_555
C65_3 C66_3 1_555 1_555
C122_3 C126_3 1_555 1_555
C127_3 C128_3 1_555 1_555
C19_3 H15_3 1_555 1_555
H99_3 O23_3 1_555 1_555
H100_3 O23_3 1_555 1_555
O24_3 C125_3 1_555 1_555
C116_3 H101_3 1_555 1_555
C117_3 C116_3 1_555 1_555
H102_3 C117_3 1_555 1_555
C119_3 C124_3 1_555 1_555
C123_3 H104_3 1_555 1_555
C124_3 C123_3 1_555 1_555
H105_3 C124_3 1_555 1_555
C130_3 N16_6 1_555 1_555
H111_3 C134_3 1_555 1_555
C135_3 C130_3 1_555 1_555
H112_3 C135_3 1_555 1_555
Ni7_3 O11_3 1_555 1_555
Ni14 O25_3 1_555 1_555
C119_3 C125_3 1_555 1_555
C134_3 C135_3 1_555 1_555
C67_3 C68_3 1_555 1_555
C68_3 H53_3 1_555 1_555
H56_3 C72_3 1_555 1_555
C73_3 C67_3 1_555 1_555
H57_3 C73_3 1_555 1_555
C77_3 C67_3 1_555 1_555
H61_3 C77_3 1_555 1_555
N10_3 C87_3 1_555 1_555
C85_3 C86_3 1_555 1_555
C86_3 C68_3 1_555 1_555
H68_3 C86_3 1_555 1_555
C87_3 H69_3 1_555 1_555
C88_3 C85_3 1_555 1_555
H70_3 C88_3 1_555 1_555
C89_3 C85_3 1_555 1_555
H71_3 C89_3 1_555 1_555
C90_3 N10_3 1_555 1_555
Ni14 N10_3 1_555 1_555
C72_3 C73_3 1_555 1_555
C87_3 C88_3 1_555 1_555
C89_3 C90_3 1_555 1_555
N4_6 C6_3 1_555 1_555
C5_3 C10_3 1_555 1_555
C6_3 C9_3 1_555 1_555
C9_3 H8_3 1_555 1_555
C10_3 C9_3 1_555 1_555
H9_3 C10_3 1_555 1_555
C16_3 C5_3 1_555 1_555
H12_3 C16_3 1_555 1_555
C17_3 C6_3 1_555 1_555
H13_3 C17_3 1_555 1_555
O7_3 C31_3 1_555 1_555
O8_3 C31_3 1_555 1_555
C27_3 C30_3 1_555 1_555
C28_3 N4_6 1_555 1_555
C29_3 C28_3 1_555 1_555
H23_3 C29_3 1_555 1_555
C30_3 C29_3 1_555 1_555
H24_3 C30_3 1_555 1_555
C31_3 C27_3 1_555 1_555
C32_3 C27_3 1_555 1_555
H25_3 C32_3 1_555 1_555
C33_3 C28_3 1_555 1_555
H26_3 C33_3 1_555 1_555
C34_3 C37_3 1_555 1_555
C35_3 N4_6 1_555 1_555
C36_3 C35_3 1_555 1_555
H27_3 C36_3 1_555 1_555
C37_3 C36_3 1_555 1_555
H28_3 C37_3 1_555 1_555
C39_3 C34_3 1_555 1_555
H29_3 C39_3 1_555 1_555
C40_3 C35_3 1_555 1_555
H30_3 C40_3 1_555 1_555
H40_3 C57_3 1_555 1_555
Ni7_3 O7_3 1_555 1_555
O15_3 Ni7_3 1_555 1_555
H49_3 O15_3 1_555 1_555
H50_3 O15_3 1_555 1_555
O16_3 Ni7_3 1_555 1_555
H51_3 O16_3 1_555 1_555
H52_3 O16_3 1_555 1_555
N7_3 Ni7_3 1_555 1_555
N8_3 Ni7_3 1_555 1_555
C70_3 N7_3 1_555 1_555
H54_3 C70_3 1_555 1_555
C74_3 C69_3 1_555 1_555
H58_3 C74_3 1_555 1_555
C75_3 N7_3 1_555 1_555
H59_3 C75_3 1_555 1_555
C76_3 C69_3 1_555 1_555
H60_3 C76_3 1_555 1_555
C78_3 N8_3 1_555 1_555
H62_3 C78_3 1_555 1_555
H64_3 C81_3 1_555 1_555
H88_3 C105_3 1_555 1_555
O29_3 C143_3 1_555 1_555
O30_3 C143_3 1_555 1_555
C143_3 C146_3 1_555 1_555
C147_3 N15_5 1_555 1_555
C148_3 C146_3 1_555 1_555
H119_3 C148_3 1_555 1_555
C149_3 C147_3 1_555 1_555
H120_3 C149_3 1_555 1_555
Ni14 O29_3 1_555 1_555
O33_3 Ni14 1_555 1_555
H125_3 O33_3 1_555 1_555
H126_3 O33_3 1_555 1_555
C16_3 C17_3 1_555 1_555
C32_3 C33_3 1_555 1_555
C39_3 C40_3 1_555 1_555
C70_3 C74_3 1_555 1_555
C75_3 C76_3 1_555 1_555
C148_3 C149_3 1_555 1_555
N17_2 C56_3 1_555 1_555
C56_3 H39_3 1_555 1_555
C58_3 C55_3 1_555 1_555
H41_3 C58_3 1_555 1_555
C59_3 N17_2 1_555 1_555
H42_3 C59_3 1_555 1_555
C60_3 C55_3 1_555 1_555
H43_3 C60_3 1_555 1_555
C71_3 H55_3 1_555 1_555
N18_2 C80_3 1_555 1_555
C80_3 H63_3 1_555 1_555
C82_3 C79_3 1_555 1_555
H65_3 C82_3 1_555 1_555
C83_3 N18_2 1_555 1_555
H66_3 C83_3 1_555 1_555
C84_3 C79_3 1_555 1_555
H67_3 C84_3 1_555 1_555
N19_2 C104_3 1_555 1_555
C104_3 H87_3 1_555 1_555
C106_3 C103_3 1_555 1_555
H89_3 C106_3 1_555 1_555
C107_3 N19_2 1_555 1_555
H90_3 C107_3 1_555 1_555
C108_3 C103_3 1_555 1_555
H91_3 C108_3 1_555 1_555
C56_3 C58_3 1_555 1_555
C59_3 C60_3 1_555 1_555
C80_3 C82_3 1_555 1_555
C83_3 C84_3 1_555 1_555
C104_3 C106_3 1_555 1_555
C107_3 C108_3 1_555 1_555
O9_3 C38_3 1_555 1_555
O10_3 C38_3 1_555 1_555
Ni8_3 O9_3 1_555 1_555
O17_3 Ni8_3 1_555 1_555
H73_3 O17_3 1_555 1_555
O18_3 Ni8_3 1_555 1_555
H75_3 O18_3 1_555 1_555
H76_3 O18_3 1_555 1_555
N11_3 Ni8_3 1_555 1_555
N12_3 Ni8_3 1_555 1_555
C94_3 N11_3 1_555 1_555
H78_3 C94_3 1_555 1_555
C98_3 C93_3 1_555 1_555
H82_3 C98_3 1_555 1_555
C99_3 N11_3 1_555 1_555
H83_3 C99_3 1_555 1_555
C100_3 C93_3 1_555 1_555
H84_3 C100_3 1_555 1_555
C102_3 N12_3 1_555 1_555
H86_3 C102_3 1_555 1_555
O31_3 C150_3 1_555 1_555
O32_3 C150_3 1_555 1_555
C150_3 C153_3 1_555 1_555
C151_3 H121_3 1_555 1_555
C152_3 C151_3 1_555 1_555
H122_3 C152_3 1_555 1_555
C153_3 C152_3 1_555 1_555
C154_3 N15_6 1_555 1_555
C155_3 C153_3 1_555 1_555
H123_3 C155_3 1_555 1_555
C156_3 C154_3 1_555 1_555
H124_3 C156_3 1_555 1_555
Ni15 O31_3 1_555 1_555
C94_3 C98_3 1_555 1_555
C99_3 C100_3 1_555 1_555
C151_3 C154_3 1_555 1_555
C155_3 C156_3 1_555 1_555
C95_3 H79_3 1_555 1_555
C91_3 C92_3 1_555 1_555
C92_3 H77_3 1_555 1_555
H80_3 C96_3 1_555 1_555
C97_3 C91_3 1_555 1_555
H81_3 C97_3 1_555 1_555
C101_3 C91_3 1_555 1_555
H85_3 C101_3 1_555 1_555
N14_3 C111_3 1_555 1_555
C109_3 C110_3 1_555 1_555
C110_3 C92_3 1_555 1_555
H92_3 C110_3 1_555 1_555
C111_3 H93_3 1_555 1_555
C112_3 C109_3 1_555 1_555
H94_3 C112_3 1_555 1_555
C113_3 C109_3 1_555 1_555
H95_3 C113_3 1_555 1_555
C114_3 N14_3 1_555 1_555
H96_3 C114_3 1_555 1_555
Ni15 N14_3 1_555 1_555
O35_3 Ni15 1_555 1_555
H129_3 O35_3 1_555 1_555
H130_3 O35_3 1_555 1_555
O36_3 Ni15 1_555 1_555
H131_3 O36_3 1_555 1_555
H132_3 O36_3 1_555 1_555
C96_3 C97_3 1_555 1_555
C111_3 C112_3 1_555 1_555
C113_3 C114_3 1_555 1_555

#END
