
###############################################################################
#
# This file contains modified crystal structure data generated from the
# MOF subset of the Cambridge Structural Database (CSD) v543 
# hosted by the Cambridge Crystallographic Data Centre (CCDC).
#
# This work is licensed under the Creative Commons
# Attribution-NonCommercial-ShareAlike 4.0 International License.
# To view a copy of this license, visit
# http://creativecommons.org/licenses/by-nc-sa/4.0/
# or send a letter to
# Creative Commons, PO Box 1866, Mountain View, CA 94042, USA.
#
# CIF created using the CSD Python API on 29 September 2022
# The structure has been converted into the P1 space group
# The structure has a 3D framework
# The original CSD entry BOBDII is in the tetragonal crystal system
# The framework has been calculated to contain at least 10.0% void space
# The void calculation uses a probe of radius 1.32A, grid spacing 0.4
#
###############################################################################

data_BOBDII
_chemical_formula_moiety         '(C1152 H576 N192 Na24 Ni32 O624 U96 8-)n'
_symmetry_cell_setting           triclinic
_symmetry_space_group_name_H-M   'P 1'
_symmetry_Int_Tables_number      1
_space_group_name_Hall           'P 1'
loop_
_symmetry_equiv_pos_site_id
_symmetry_equiv_pos_as_xyz
1 x,y,z
_cell_length_a                   38.156(2)
_cell_length_b                   38.156(2)
_cell_length_c                   39.627(2)
_cell_angle_alpha                90
_cell_angle_beta                 90
_cell_angle_gamma                90
_cell_volume                     57692.2
loop_
_atom_site_label
_atom_site_type_symbol
_atom_site_fract_x
_atom_site_fract_y
_atom_site_fract_z
C17 C 0.4515(3) 0.0037(3) 0.6803(3)
H9 H 0.440046 0.022343 0.690537
C20 C 0.5470(4) 0.0381(3) 0.5891(3)
H10 H 0.559894 0.058247 0.593592
C21 C 0.5501(4) 0.0223(3) 0.5576(3)
H11 H 0.565514 0.031256 0.541556
N3 N 0.4715(3) 0.0096(2) 0.6534(2)
N4 N 0.5259(3) 0.0249(2) 0.6133(2)
Ni2 Ni 0.49302(4) 0.05803(3) 0.64260(3)
C1 C 0.6302(3) 0.7601(3) 0.5157(2)
C2 C 0.6574(3) 0.7725(3) 0.4900(2)
C3 C 0.6784(3) 0.8001(3) 0.4995(3)
H1 H 0.674580 0.811374 0.519963
C4 C 0.7056(3) 0.8112(3) 0.4783(3)
H2 H 0.720314 0.829523 0.484496
C5 C 0.7097(3) 0.7941(3) 0.4477(3)
H3 H 0.727519 0.801208 0.433244
C6 C 0.6627(3) 0.7560(3) 0.4588(2)
C7 C 0.6428(3) 0.7262(3) 0.4441(2)
C8 C 0.6502(3) 0.6774(3) 0.4095(3)
H4 H 0.663724 0.665520 0.393735
C9 C 0.6189(3) 0.6622(3) 0.4201(3)
H5 H 0.612603 0.639611 0.413641
C10 C 0.5979(3) 0.6824(3) 0.4405(3)
H6 H 0.576094 0.673840 0.446808
C11 C 0.6084(2) 0.7152(3) 0.4519(2)
C12 C 0.5818(3) 0.7386(3) 0.4674(2)
C13 C 0.5101(4) 0.9197(3) 0.6394(3)
C14 C 0.4873(3) 0.9487(3) 0.6511(2)
C15 C 0.4659(3) 0.9430(3) 0.6794(3)
H7 H 0.464253 0.920641 0.688729
C16 C 0.4475(4) 0.9700(3) 0.6933(3)
H8 H 0.432403 0.965970 0.711339
C18 C 0.4881(3) 0.9833(3) 0.6373(2)
C19 C 0.5087(3) 0.9946(3) 0.6068(2)
C22 C 0.5305(4) 0.9937(3) 0.5504(3)
H12 H 0.531704 0.983525 0.529158
C23 C 0.5083(3) 0.9795(3) 0.5750(3)
C24 C 0.4844(4) 0.9500(3) 0.5660(3)
C25 C 0.5083(3) 0.8822(3) 0.4800(2)
C26 C 0.5268(3) 0.9061(3) 0.4558(2)
C27 C 0.5502(4) 0.9300(3) 0.4694(3)
H13 H 0.555883 0.928990 0.492222
C28 C 0.5652(3) 0.9556(3) 0.4489(3)
H14 H 0.581163 0.971691 0.457493
C29 C 0.5555(3) 0.9561(3) 0.4153(3)
H15 H 0.564475 0.973696 0.401538
C30 C 0.5204(3) 0.9066(3) 0.4207(2)
C31 C 0.4984(3) 0.8810(3) 0.4012(2)
C32 C 0.4572(3) 0.8798(3) 0.3570(2)
H16 H 0.444893 0.891793 0.340384
C33 C 0.4499(3) 0.8451(3) 0.3627(3)
H17 H 0.431970 0.833928 0.350945
C34 C 0.4694(3) 0.8274(3) 0.3860(2)
H18 H 0.466434 0.803369 0.388519
C35 C 0.4942(3) 0.8451(3) 0.4062(2)
C36 C 0.5145(3) 0.8221(3) 0.4305(2)
N1 N 0.6889(2) 0.7677(3) 0.4384(2)
N2 N 0.6618(2) 0.7082(2) 0.4209(2)
N5 N 0.5337(3) 0.9323(2) 0.4018(2)
N6 N 0.4818(2) 0.8969(2) 0.3751(2)
Ni1 Ni 0.50698(4) 0.94197(3) 0.35740(3)
U1 U 0.53988(2) 0.88452(2) 0.56497(2)
U2 U 0.60429(2) 0.81471(2) 0.58650(2)
U3 U 0.56850(2) 0.82028(2) 0.49461(2)
O1 O 0.5051(2) 0.8553(2) 0.5768(2)
O2 O 0.5726(3) 0.9159(2) 0.55331(18)
O3 O 0.56857(18) 0.78528(19) 0.59346(18)
O4 O 0.6415(2) 0.8415(3) 0.5782(2)
O5 O 0.53201(19) 0.79427(18) 0.50828(17)
O6 O 0.6040(2) 0.8464(2) 0.47919(18)
O7 O 0.5733(2) 0.8413(2) 0.54534(17)
O8 O 0.6122(2) 0.8215(2) 0.64240(19)
O9 O 0.61214(19) 0.78625(19) 0.52859(16)
O10 O 0.62645(19) 0.73000(19) 0.52282(17)
O11 O 0.58728(18) 0.77155(18) 0.46390(16)
O12 O 0.55568(19) 0.72541(19) 0.4813(2)
O13 O 0.5141(3) 0.8940(2) 0.6586(2)
O14 O 0.5256(3) 0.9223(2) 0.61103(18)
O15 O 0.4538(3) 0.9509(2) 0.5773(2)
O16 O 0.4957(3) 0.9263(2) 0.54645(18)
O17 O 0.5283(2) 0.87103(19) 0.50477(17)
O18 O 0.4777(2) 0.8750(2) 0.47661(18)
O19 O 0.5417(2) 0.83612(18) 0.44358(16)
O20 O 0.5051(2) 0.7922(2) 0.4345(2)
N7 N 0.4823(3) 0.9389(2) 0.3116(2)
N8 N 0.5418(2) 0.9118(2) 0.3291(2)
N9 N 0.5285(3) 0.9904(2) 0.3466(2)
N10 N 0.4741(3) 0.9751(2) 0.3867(2)
Ni3 Ni 0.69197(3) 0.74302(4) 0.39260(3)
U4 U 0.63452(2) 0.78988(2) 0.68503(2)
U5 U 0.56471(2) 0.85429(2) 0.66350(2)
O21 O 0.5715(2) 0.8622(2) 0.60760(19)
O22 O 0.6440(2) 0.7641(3) 0.5914(2)
C31_2 C 0.0016(3) 0.1190(3) 0.9012(2)
C32_2 C 0.0428(3) 0.1202(3) 0.8570(2)
H16_2 H 0.055107 0.108207 0.840384
C33_2 C 0.0501(3) 0.1549(3) 0.8627(3)
H17_2 H 0.068030 0.166072 0.850945
C34_2 C 0.0306(3) 0.1726(3) 0.8860(2)
H18_2 H 0.033566 0.196631 0.888519
C35_2 C 0.0058(3) 0.1549(3) 0.9062(2)
N6_2 N 0.0182(2) 0.1031(2) 0.8751(2)
O18_2 O 0.0223(2) 0.1250(2) 0.97661(18)
N7_2 N 0.0177(3) 0.0611(2) 0.8116(2)
N10_2 N 0.0259(3) 0.0249(2) 0.8867(2)
C17_2 C 0.0485(3) 0.9963(3) 0.1803(3)
H9_2 H 0.059954 0.977657 0.190537
N3_2 N 0.0285(3) 0.9904(2) 0.1534(2)
Ni2_2 Ni 0.00698(4) 0.94197(3) 0.14260(3)
C1_2 C 0.8698(3) 0.2399(3) 0.0157(2)
H1_2 H 0.825420 0.188626 0.019963
C13_2 C 0.9899(4) 0.0803(3) 0.1394(3)
C19_2 C 0.9913(3) 0.0054(3) 0.1068(2)
C22_2 C 0.9695(4) 0.0063(3) 0.0504(3)
H12_2 H 0.968296 0.016475 0.029158
C23_2 C 0.9917(3) 0.0205(3) 0.0750(3)
U1_2 U 0.96012(2) 0.11548(2) 0.06497(2)
U2_2 U 0.89571(2) 0.18529(2) 0.08650(2)
O1_2 O 0.9949(2) 0.1447(2) 0.0768(2)
O2_2 O 0.9274(3) 0.0841(2) 0.05331(18)
O3_2 O 0.93143(18) 0.21472(19) 0.09346(18)
O4_2 O 0.8585(2) 0.1585(3) 0.0782(2)
O5_2 O 0.96799(19) 0.20573(18) 0.00828(17)
O7_2 O 0.9267(2) 0.1587(2) 0.04534(17)
O8_2 O 0.8878(2) 0.1785(2) 0.14240(19)
O9_2 O 0.88786(19) 0.21375(19) 0.02859(16)
O10_2 O 0.87355(19) 0.27000(19) 0.02282(17)
O13_2 O 0.9859(3) 0.1060(2) 0.1586(2)
O14_2 O 0.9744(3) 0.0777(2) 0.11103(18)
O17_2 O 0.9717(2) 0.12897(19) 0.00477(17)
U4_2 U 0.86548(2) 0.21012(2) 0.18503(2)
U5_2 U 0.93529(2) 0.14571(2) 0.16350(2)
O21_2 O 0.9285(2) 0.1378(2) 0.10760(19)
O22_2 O 0.8560(2) 0.2359(3) 0.0914(2)
C2_2 C 0.8426(3) 0.2275(3) 0.9900(2)
C3_2 C 0.8216(3) 0.1999(3) 0.9995(3)
C4_2 C 0.7944(3) 0.1888(3) 0.9783(3)
H2_2 H 0.779686 0.170477 0.984496
C5_2 C 0.7903(3) 0.2059(3) 0.9477(3)
H3_2 H 0.772481 0.198792 0.933244
C6_2 C 0.8373(3) 0.2440(3) 0.9588(2)
C7_2 C 0.8572(3) 0.2738(3) 0.9441(2)
C8_2 C 0.8498(3) 0.3226(3) 0.9095(3)
H4_2 H 0.836276 0.334480 0.893735
C9_2 C 0.8811(3) 0.3378(3) 0.9201(3)
H5_2 H 0.887397 0.360389 0.913641
C10_2 C 0.9021(3) 0.3176(3) 0.9405(3)
H6_2 H 0.923906 0.326160 0.946808
C11_2 C 0.8916(2) 0.2848(3) 0.9519(2)
C12_2 C 0.9182(3) 0.2614(3) 0.9674(2)
C25_2 C 0.9917(3) 0.1178(3) 0.9800(2)
C26_2 C 0.9732(3) 0.0939(3) 0.9558(2)
C27_2 C 0.9498(4) 0.0700(3) 0.9694(3)
H13_2 H 0.944117 0.071010 0.992222
C28_2 C 0.9348(3) 0.0444(3) 0.9489(3)
H14_2 H 0.918837 0.028309 0.957493
C29_2 C 0.9445(3) 0.0439(3) 0.9153(3)
H15_2 H 0.935525 0.026304 0.901538
C30_2 C 0.9796(3) 0.0934(3) 0.9207(2)
C36_2 C 0.9855(3) 0.1779(3) 0.9305(2)
N1_2 N 0.8111(2) 0.2323(3) 0.9384(2)
N2_2 N 0.8382(2) 0.2918(2) 0.9209(2)
N5_2 N 0.9663(3) 0.0677(2) 0.9018(2)
Ni1_2 Ni 0.99302(4) 0.05803(3) 0.85740(3)
U3_2 U 0.93150(2) 0.17972(2) 0.99461(2)
O6_2 O 0.8960(2) 0.1536(2) 0.97919(18)
O11_2 O 0.91272(18) 0.22845(18) 0.96390(16)
O12_2 O 0.94432(19) 0.27459(19) 0.9813(2)
O19_2 O 0.9583(2) 0.16388(18) 0.94358(16)
O20_2 O 0.9949(2) 0.2078(2) 0.9345(2)
N8_2 N 0.9582(2) 0.0882(2) 0.8291(2)
N9_2 N 0.9715(3) 0.0096(2) 0.8466(2)
Ni3_2 Ni 0.80803(3) 0.25698(4) 0.89260(3)
C20_2 C 0.9530(4) 0.9619(3) 0.0891(3)
H10_2 H 0.940106 0.941753 0.093592
C21_2 C 0.9499(4) 0.9777(3) 0.0576(3)
H11_2 H 0.934486 0.968744 0.041556
N4_2 N 0.9741(3) 0.9751(2) 0.1133(2)
C1_3 C 0.4899(3) 0.3802(3) 0.7657(2)
C2_3 C 0.4775(3) 0.4074(3) 0.7400(2)
C3_3 C 0.4499(3) 0.4284(3) 0.7495(3)
H1_3 H 0.438626 0.424580 0.769963
C4_3 C 0.4388(3) 0.4556(3) 0.7283(3)
H2_3 H 0.420477 0.470314 0.734496
C5_3 C 0.4559(3) 0.4597(3) 0.6977(3)
H3_3 H 0.448792 0.477519 0.683244
C6_3 C 0.4940(3) 0.4127(3) 0.7088(2)
C7_3 C 0.5238(3) 0.3928(3) 0.6941(2)
C8_3 C 0.5726(3) 0.4002(3) 0.6595(3)
H4_3 H 0.584480 0.413724 0.643735
C9_3 C 0.5878(3) 0.3689(3) 0.6701(3)
H5_3 H 0.610389 0.362603 0.663641
C10_3 C 0.5676(3) 0.3479(3) 0.6905(3)
H6_3 H 0.576160 0.326094 0.696808
C11_3 C 0.5348(3) 0.3584(2) 0.7019(2)
C12_3 C 0.5114(3) 0.3318(3) 0.7174(2)
C13_3 C 0.3303(3) 0.2601(4) 0.8894(3)
C14_2 C 0.3013(3) 0.2373(3) 0.9011(2)
C15_2 C 0.3070(3) 0.2159(3) 0.9294(3)
H7_2 H 0.329359 0.214253 0.938729
C16_2 C 0.2800(3) 0.1975(4) 0.9433(3)
H8_2 H 0.284030 0.182403 0.961339
C17_3 C 0.2463(3) 0.2015(3) 0.9303(3)
H9_3 H 0.227657 0.190046 0.940537
C18_2 C 0.2667(3) 0.2381(3) 0.8873(2)
C19_3 C 0.2554(3) 0.2587(3) 0.8568(2)
C20_3 C 0.2119(3) 0.2970(4) 0.8391(3)
H10_3 H 0.191753 0.309894 0.843592
C21_3 C 0.2277(3) 0.3001(4) 0.8076(3)
H11_3 H 0.218744 0.315514 0.791556
C22_3 C 0.2563(3) 0.2805(4) 0.8004(3)
H12_3 H 0.266475 0.281704 0.779158
C23_3 C 0.2705(3) 0.2583(3) 0.8250(3)
C24_2 C 0.3000(3) 0.2344(4) 0.8160(3)
C25_3 C 0.3678(3) 0.2583(3) 0.7300(2)
C26_3 C 0.3439(3) 0.2768(3) 0.7058(2)
C27_3 C 0.3200(3) 0.3002(4) 0.7194(3)
H13_3 H 0.321010 0.305883 0.742222
C28_3 C 0.2944(3) 0.3152(3) 0.6989(3)
H14_3 H 0.278309 0.331163 0.707493
C29_3 C 0.2939(3) 0.3055(3) 0.6653(3)
H15_3 H 0.276304 0.314475 0.651538
C30_3 C 0.3434(3) 0.2704(3) 0.6707(2)
C31_3 C 0.3690(3) 0.2484(3) 0.6512(2)
C32_3 C 0.3702(3) 0.2072(3) 0.6070(2)
H16_3 H 0.358207 0.194893 0.590384
C33_3 C 0.4049(3) 0.1999(3) 0.6127(3)
H17_3 H 0.416072 0.181970 0.600945
C34_3 C 0.4226(3) 0.2194(3) 0.6360(2)
H18_3 H 0.446631 0.216434 0.638519
C35_3 C 0.4049(3) 0.2442(3) 0.6562(2)
C36_3 C 0.4279(3) 0.2645(3) 0.6805(2)
N1_3 N 0.4823(3) 0.4389(2) 0.6884(2)
N2_3 N 0.5418(2) 0.4118(2) 0.6709(2)
N3_3 N 0.2404(2) 0.2215(3) 0.9034(2)
N4_3 N 0.2251(2) 0.2759(3) 0.8633(2)
N5_3 N 0.3177(2) 0.2837(3) 0.6518(2)
N6_3 N 0.3531(2) 0.2318(2) 0.6251(2)
Ni1_3 Ni 0.30803(3) 0.25698(4) 0.60740(3)
U1_3 U 0.36548(2) 0.28988(2) 0.81497(2)
U2_3 U 0.43529(2) 0.35429(2) 0.83650(2)
U3_3 U 0.42972(2) 0.31850(2) 0.74461(2)
O1_3 O 0.3947(2) 0.2551(2) 0.8268(2)
O2_3 O 0.3341(2) 0.3226(3) 0.80331(18)
O3_3 O 0.46472(19) 0.31857(18) 0.84346(18)
O4_3 O 0.4085(3) 0.3915(2) 0.8282(2)
O5_3 O 0.45573(18) 0.28201(19) 0.75828(17)
O6_3 O 0.4036(2) 0.3540(2) 0.72919(18)
O7_3 O 0.4087(2) 0.3233(2) 0.79534(17)
O8_3 O 0.4285(2) 0.3622(2) 0.89240(19)
O9_3 O 0.46375(19) 0.36214(19) 0.77859(16)
O10_3 O 0.52000(19) 0.37645(19) 0.77282(17)
O11_3 O 0.47845(18) 0.33728(18) 0.71390(16)
O12_3 O 0.52459(19) 0.30568(19) 0.7313(2)
O13_3 O 0.3560(2) 0.2641(3) 0.9086(2)
O14_3 O 0.3277(2) 0.2756(3) 0.86103(18)
O15_2 O 0.2991(2) 0.2038(3) 0.8273(2)
O16_2 O 0.3237(2) 0.2457(3) 0.79645(18)
O17_3 O 0.37897(19) 0.2783(2) 0.75477(17)
O18_3 O 0.3750(2) 0.2277(2) 0.72661(18)
O19_3 O 0.41388(18) 0.2917(2) 0.69358(16)
O20_3 O 0.4578(2) 0.2551(2) 0.6845(2)
N7_3 N 0.3111(2) 0.2323(3) 0.5616(2)
N8_3 N 0.3382(2) 0.2918(2) 0.5791(2)
N9_3 N 0.2596(2) 0.2785(3) 0.5966(2)
N10_3 N 0.2749(2) 0.2241(3) 0.6367(2)
Ni2_3 Ni 0.19197(3) 0.24302(4) 0.89260(3)
Ni3_3 Ni 0.50698(4) 0.44197(3) 0.64260(3)
U4_3 U 0.46012(2) 0.38452(2) 0.93503(2)
U5_3 U 0.39571(2) 0.31471(2) 0.91350(2)
O21_3 O 0.3878(2) 0.3215(2) 0.85760(19)
O22_3 O 0.4859(3) 0.3940(2) 0.8414(2)
C1_4 C 0.0101(3) 0.6198(3) 0.2657(2)
C2_4 C 0.0225(3) 0.5926(3) 0.2400(2)
C3_4 C 0.0501(3) 0.5716(3) 0.2495(3)
H1_4 H 0.061374 0.575420 0.269963
C4_4 C 0.0612(3) 0.5444(3) 0.2283(3)
H2_4 H 0.079523 0.529686 0.234496
C5_4 C 0.0441(3) 0.5403(3) 0.1977(3)
H3_4 H 0.051208 0.522481 0.183244
C6_4 C 0.0060(3) 0.5873(3) 0.2088(2)
C13_4 C 0.1697(3) 0.7399(4) 0.3894(3)
C14_3 C 0.1987(3) 0.7627(3) 0.4011(2)
C15_3 C 0.1930(3) 0.7841(3) 0.4294(3)
H7_3 H 0.170641 0.785747 0.438729
C16_3 C 0.2200(3) 0.8025(4) 0.4433(3)
H8_3 H 0.215970 0.817597 0.461339
C17_4 C 0.2537(3) 0.7985(3) 0.4303(3)
H9_4 H 0.272343 0.809954 0.440537
C18_3 C 0.2333(3) 0.7619(3) 0.3873(2)
C19_4 C 0.2446(3) 0.7413(3) 0.3568(2)
C20_4 C 0.2881(3) 0.7030(4) 0.3391(3)
H10_4 H 0.308247 0.690106 0.343592
C21_4 C 0.2723(3) 0.6999(4) 0.3076(3)
H11_4 H 0.281256 0.684486 0.291556
C22_4 C 0.2437(3) 0.7195(4) 0.3004(3)
H12_4 H 0.233525 0.718296 0.279158
C23_4 C 0.2295(3) 0.7417(3) 0.3250(3)
C24_3 C 0.2000(3) 0.7656(4) 0.3160(3)
C25_4 C 0.1322(3) 0.7417(3) 0.2300(2)
C26_4 C 0.1561(3) 0.7232(3) 0.2058(2)
C27_4 C 0.1800(3) 0.6998(4) 0.2194(3)
H13_4 H 0.178990 0.694117 0.242222
C28_4 C 0.2056(3) 0.6848(3) 0.1989(3)
H14_4 H 0.221691 0.668837 0.207493
C29_4 C 0.2061(3) 0.6945(3) 0.1653(3)
H15_4 H 0.223696 0.685525 0.151538
C30_4 C 0.1566(3) 0.7296(3) 0.1707(2)
C31_4 C 0.1310(3) 0.7516(3) 0.1512(2)
C32_4 C 0.1298(3) 0.7928(3) 0.1070(2)
H16_4 H 0.141793 0.805107 0.090384
C33_4 C 0.0951(3) 0.8001(3) 0.1127(3)
H17_4 H 0.083928 0.818030 0.100945
C34_4 C 0.0774(3) 0.7806(3) 0.1360(2)
H18_4 H 0.053369 0.783566 0.138519
C35_4 C 0.0951(3) 0.7558(3) 0.1562(2)
C36_4 C 0.0721(3) 0.7355(3) 0.1805(2)
N1_4 N 0.0177(3) 0.5611(2) 0.1884(2)
N3_4 N 0.2596(2) 0.7785(3) 0.4034(2)
N4_4 N 0.2749(2) 0.7241(3) 0.3633(2)
N5_4 N 0.1823(2) 0.7163(3) 0.1518(2)
N6_4 N 0.1469(2) 0.7682(2) 0.1251(2)
Ni1_4 Ni 0.19197(3) 0.74302(4) 0.10740(3)
U1_4 U 0.13452(2) 0.71012(2) 0.31497(2)
U2_4 U 0.06471(2) 0.64571(2) 0.33650(2)
U3_4 U 0.07028(2) 0.68150(2) 0.24461(2)
O1_4 O 0.1053(2) 0.7449(2) 0.3268(2)
O2_4 O 0.1659(2) 0.6774(3) 0.30331(18)
O3_4 O 0.03528(19) 0.68143(18) 0.34346(18)
O4_4 O 0.0915(3) 0.6085(2) 0.3282(2)
O5_4 O 0.04427(18) 0.71799(19) 0.25828(17)
O6_4 O 0.0964(2) 0.6460(2) 0.22919(18)
O7_4 O 0.0913(2) 0.6767(2) 0.29534(17)
O8_4 O 0.0715(2) 0.6378(2) 0.39240(19)
O9_4 O 0.03625(19) 0.63786(19) 0.27859(16)
O11_4 O 0.02155(18) 0.66272(18) 0.21390(16)
O13_4 O 0.1440(2) 0.7359(3) 0.4086(2)
O14_4 O 0.1723(2) 0.7244(3) 0.36103(18)
O15_3 O 0.2009(2) 0.7962(3) 0.3273(2)
O16_3 O 0.1763(2) 0.7543(3) 0.29645(18)
O17_4 O 0.12103(19) 0.7217(2) 0.25477(17)
O18_4 O 0.1250(2) 0.7723(2) 0.22661(18)
O19_4 O 0.08612(18) 0.7083(2) 0.19358(16)
O20_4 O 0.0422(2) 0.7449(2) 0.1845(2)
N7_4 N 0.1889(2) 0.7677(3) 0.0616(2)
N8_4 N 0.1618(2) 0.7082(2) 0.0791(2)
N9_4 N 0.2404(2) 0.7215(3) 0.0966(2)
N10_4 N 0.2251(2) 0.7759(3) 0.1367(2)
Ni2_4 Ni 0.30803(3) 0.75698(4) 0.39260(3)
U4_4 U 0.03988(2) 0.61548(2) 0.43503(2)
U5_4 U 0.10429(2) 0.68529(2) 0.41350(2)
O21_4 O 0.1122(2) 0.6785(2) 0.35760(19)
O22_4 O 0.0141(3) 0.6060(2) 0.3414(2)
C7_4 C 0.9762(3) 0.6072(3) 0.1941(2)
C8_4 C 0.9274(3) 0.5998(3) 0.1595(3)
H4_4 H 0.915520 0.586276 0.143735
C9_4 C 0.9122(3) 0.6311(3) 0.1701(3)
H5_4 H 0.889611 0.637397 0.163641
C10_4 C 0.9324(3) 0.6521(3) 0.1905(3)
H6_4 H 0.923840 0.673906 0.196808
C11_4 C 0.9652(3) 0.6416(2) 0.2019(2)
C12_4 C 0.9886(3) 0.6682(3) 0.2174(2)
N2_4 N 0.9582(2) 0.5882(2) 0.1709(2)
O10_4 O 0.98000(19) 0.62355(19) 0.27282(17)
O12_4 O 0.97541(19) 0.69432(19) 0.2313(2)
Ni3_4 Ni 0.99302(4) 0.55803(3) 0.14260(3)
C17_5 C 0.0485(3) 0.0037(3) 0.3197(3)
H9_5 H 0.059954 0.022343 0.309463
N3_5 N 0.0285(3) 0.0096(2) 0.3466(2)
Ni2_5 Ni 0.00698(4) 0.05803(3) 0.35740(3)
C14_4 C 0.0127(3) 0.9487(3) 0.3489(2)
C15_4 C 0.0341(3) 0.9430(3) 0.3206(3)
H7_4 H 0.035747 0.920641 0.311271
C16_4 C 0.0525(4) 0.9700(3) 0.3067(3)
H8_4 H 0.067597 0.965970 0.288661
C18_4 C 0.0119(3) 0.9833(3) 0.3627(2)
C24_4 C 0.0156(4) 0.9500(3) 0.4340(3)
C31_5 C 0.0016(3) 0.8810(3) 0.5988(2)
C32_5 C 0.0428(3) 0.8798(3) 0.6430(2)
H16_5 H 0.055107 0.891793 0.659616
C33_5 C 0.0501(3) 0.8451(3) 0.6373(3)
H17_5 H 0.068030 0.833928 0.649055
C34_5 C 0.0306(3) 0.8274(3) 0.6140(2)
H18_5 H 0.033566 0.803369 0.611481
C35_5 C 0.0058(3) 0.8451(3) 0.5938(2)
N6_5 N 0.0182(2) 0.8969(2) 0.6249(2)
O15_4 O 0.0462(3) 0.9509(2) 0.4227(2)
O16_4 O 0.0043(3) 0.9263(2) 0.45355(18)
O18_5 O 0.0223(2) 0.8750(2) 0.52339(18)
N7_5 N 0.0177(3) 0.9389(2) 0.6884(2)
N10_5 N 0.0259(3) 0.9751(2) 0.6133(2)
C20_5 C 0.9530(4) 0.0381(3) 0.4109(3)
H10_5 H 0.940106 0.058247 0.406408
C21_5 C 0.9499(4) 0.0223(3) 0.4424(3)
H11_5 H 0.934486 0.031256 0.458444
N4_5 N 0.9741(3) 0.0249(2) 0.3867(2)
C1_5 C 0.8698(3) 0.7601(3) 0.4843(2)
C2_5 C 0.8426(3) 0.7725(3) 0.5100(2)
C3_5 C 0.8216(3) 0.8001(3) 0.5005(3)
H1_5 H 0.825420 0.811374 0.480037
C4_5 C 0.7944(3) 0.8112(3) 0.5217(3)
H2_5 H 0.779686 0.829523 0.515504
C5_5 C 0.7903(3) 0.7941(3) 0.5523(3)
H3_5 H 0.772481 0.801208 0.566756
C6_5 C 0.8373(3) 0.7560(3) 0.5412(2)
C7_5 C 0.8572(3) 0.7262(3) 0.5559(2)
C8_5 C 0.8498(3) 0.6774(3) 0.5905(3)
H4_5 H 0.836276 0.665520 0.606265
C9_5 C 0.8811(3) 0.6622(3) 0.5799(3)
H5_5 H 0.887397 0.639611 0.586359
C10_5 C 0.9021(3) 0.6824(3) 0.5595(3)
H6_5 H 0.923906 0.673840 0.553192
C11_5 C 0.8916(2) 0.7152(3) 0.5481(2)
C12_5 C 0.9182(3) 0.7386(3) 0.5326(2)
C13_5 C 0.9899(4) 0.9197(3) 0.3606(3)
C19_5 C 0.9913(3) 0.9946(3) 0.3932(2)
C22_5 C 0.9695(4) 0.9937(3) 0.4496(3)
H12_5 H 0.968296 0.983525 0.470842
C23_5 C 0.9917(3) 0.9795(3) 0.4250(3)
C25_5 C 0.9917(3) 0.8822(3) 0.5200(2)
C26_5 C 0.9732(3) 0.9061(3) 0.5442(2)
C27_5 C 0.9498(4) 0.9300(3) 0.5306(3)
H13_5 H 0.944117 0.928990 0.507778
C28_5 C 0.9348(3) 0.9556(3) 0.5511(3)
H14_5 H 0.918837 0.971691 0.542507
C29_5 C 0.9445(3) 0.9561(3) 0.5847(3)
H15_5 H 0.935525 0.973696 0.598462
C30_5 C 0.9796(3) 0.9066(3) 0.5793(2)
C36_5 C 0.9855(3) 0.8221(3) 0.5695(2)
N1_5 N 0.8111(2) 0.7677(3) 0.5616(2)
N2_5 N 0.8382(2) 0.7082(2) 0.5791(2)
N5_5 N 0.9663(3) 0.9323(2) 0.5982(2)
Ni1_5 Ni 0.99302(4) 0.94197(3) 0.64260(3)
U1_5 U 0.96012(2) 0.88452(2) 0.43503(2)
U2_5 U 0.89571(2) 0.81471(2) 0.41350(2)
U3_5 U 0.93150(2) 0.82028(2) 0.50539(2)
O1_5 O 0.9949(2) 0.8553(2) 0.4232(2)
O2_5 O 0.9274(3) 0.9159(2) 0.44669(18)
O3_5 O 0.93143(18) 0.78528(19) 0.40654(18)
O4_5 O 0.8585(2) 0.8415(3) 0.4218(2)
O5_5 O 0.96799(19) 0.79427(18) 0.49172(17)
O6_5 O 0.8960(2) 0.8464(2) 0.52081(18)
O7_5 O 0.9267(2) 0.8413(2) 0.45466(17)
O8_5 O 0.8878(2) 0.8215(2) 0.35760(19)
O9_5 O 0.88786(19) 0.78625(19) 0.47141(16)
O10_5 O 0.87355(19) 0.73000(19) 0.47718(17)
O11_5 O 0.91272(18) 0.77155(18) 0.53610(16)
O12_5 O 0.94432(19) 0.72541(19) 0.5187(2)
O13_5 O 0.9859(3) 0.8940(2) 0.3414(2)
O14_5 O 0.9744(3) 0.9223(2) 0.38897(18)
O17_5 O 0.9717(2) 0.87103(19) 0.49523(17)
O19_5 O 0.9583(2) 0.83612(18) 0.55642(16)
O20_5 O 0.9949(2) 0.7922(2) 0.5655(2)
N8_5 N 0.9582(2) 0.9118(2) 0.6709(2)
N9_5 N 0.9715(3) 0.9904(2) 0.6534(2)
Ni3_5 Ni 0.80803(3) 0.74302(4) 0.60740(3)
U4_5 U 0.86548(2) 0.78988(2) 0.31497(2)
U5_5 U 0.93529(2) 0.85429(2) 0.33650(2)
O21_5 O 0.9285(2) 0.8622(2) 0.39240(19)
O22_5 O 0.8560(2) 0.7641(3) 0.4086(2)
C2_6 C 0.6574(3) 0.2275(3) 0.0100(2)
C3_6 C 0.6784(3) 0.1999(3) 0.0005(3)
C4_6 C 0.7056(3) 0.1888(3) 0.0217(3)
H2_6 H 0.720314 0.170477 0.015504
C5_6 C 0.7097(3) 0.2059(3) 0.0523(3)
H3_6 H 0.727519 0.198792 0.066756
C6_6 C 0.6627(3) 0.2440(3) 0.0412(2)
C7_6 C 0.6428(3) 0.2738(3) 0.0559(2)
C8_6 C 0.6502(3) 0.3226(3) 0.0905(3)
H4_6 H 0.663724 0.334480 0.106265
C9_6 C 0.6189(3) 0.3378(3) 0.0799(3)
H5_6 H 0.612603 0.360389 0.086359
C10_6 C 0.5979(3) 0.3176(3) 0.0595(3)
H6_6 H 0.576094 0.326160 0.053192
C11_6 C 0.6084(2) 0.2848(3) 0.0481(2)
C12_6 C 0.5818(3) 0.2614(3) 0.0326(2)
C25_6 C 0.5083(3) 0.1178(3) 0.0200(2)
C26_6 C 0.5268(3) 0.0939(3) 0.0442(2)
C27_6 C 0.5502(4) 0.0700(3) 0.0306(3)
H13_6 H 0.555883 0.071010 0.007778
C28_6 C 0.5652(3) 0.0444(3) 0.0511(3)
H14_6 H 0.581163 0.028309 0.042507
C29_6 C 0.5555(3) 0.0439(3) 0.0847(3)
H15_6 H 0.564475 0.026304 0.098462
C30_6 C 0.5204(3) 0.0934(3) 0.0793(2)
C31_6 C 0.4984(3) 0.1190(3) 0.0988(2)
C32_6 C 0.4572(3) 0.1202(3) 0.1430(2)
H16_6 H 0.444893 0.108207 0.159616
C33_6 C 0.4499(3) 0.1549(3) 0.1373(3)
H17_6 H 0.431970 0.166072 0.149055
C34_6 C 0.4694(3) 0.1726(3) 0.1140(2)
H18_6 H 0.466434 0.196631 0.111481
C35_6 C 0.4942(3) 0.1549(3) 0.0938(2)
C36_6 C 0.5145(3) 0.1779(3) 0.0695(2)
N1_6 N 0.6889(2) 0.2323(3) 0.0616(2)
N2_6 N 0.6618(2) 0.2918(2) 0.0791(2)
N5_6 N 0.5337(3) 0.0677(2) 0.0982(2)
N6_6 N 0.4818(2) 0.1031(2) 0.1249(2)
Ni1_6 Ni 0.50698(4) 0.05803(3) 0.14260(3)
U3_6 U 0.56850(2) 0.17972(2) 0.00539(2)
O6_6 O 0.6040(2) 0.1536(2) 0.02081(18)
O11_6 O 0.58728(18) 0.22845(18) 0.03610(16)
O12_6 O 0.55568(19) 0.27459(19) 0.0187(2)
O18_6 O 0.4777(2) 0.1250(2) 0.02339(18)
O19_6 O 0.5417(2) 0.16388(18) 0.05642(16)
O20_6 O 0.5051(2) 0.2078(2) 0.0655(2)
N7_6 N 0.4823(3) 0.0611(2) 0.1884(2)
N8_6 N 0.5418(2) 0.0882(2) 0.1709(2)
N9_6 N 0.5285(3) 0.0096(2) 0.1534(2)
N10_6 N 0.4741(3) 0.0249(2) 0.1133(2)
Ni3_6 Ni 0.69197(3) 0.25698(4) 0.10740(3)
C1_6 C 0.6302(3) 0.2399(3) 0.9843(2)
H1_6 H 0.674580 0.188626 0.980037
C13_6 C 0.5101(4) 0.0803(3) 0.8606(3)
C14_5 C 0.4873(3) 0.0513(3) 0.8489(2)
C15_5 C 0.4659(3) 0.0570(3) 0.8206(3)
H7_5 H 0.464253 0.079359 0.811271
C16_5 C 0.4475(4) 0.0300(3) 0.8067(3)
H8_5 H 0.432403 0.034030 0.788661
C18_5 C 0.4881(3) 0.0167(3) 0.8627(2)
C19_6 C 0.5087(3) 0.0054(3) 0.8932(2)
C22_6 C 0.5305(4) 0.0063(3) 0.9496(3)
H12_6 H 0.531704 0.016475 0.970842
C23_6 C 0.5083(3) 0.0205(3) 0.9250(3)
C24_5 C 0.4844(4) 0.0500(3) 0.9340(3)
U1_6 U 0.53988(2) 0.11548(2) 0.93503(2)
U2_6 U 0.60429(2) 0.18529(2) 0.91350(2)
O1_6 O 0.5051(2) 0.1447(2) 0.9232(2)
O2_6 O 0.5726(3) 0.0841(2) 0.94669(18)
O3_6 O 0.56857(18) 0.21472(19) 0.90654(18)
O4_6 O 0.6415(2) 0.1585(3) 0.9218(2)
O5_6 O 0.53201(19) 0.20573(18) 0.99172(17)
O7_6 O 0.5733(2) 0.1587(2) 0.95466(17)
O8_6 O 0.6122(2) 0.1785(2) 0.85760(19)
O9_6 O 0.61214(19) 0.21375(19) 0.97141(16)
O10_6 O 0.62645(19) 0.27000(19) 0.97718(17)
O13_6 O 0.5141(3) 0.1060(2) 0.8414(2)
O14_6 O 0.5256(3) 0.0777(2) 0.88897(18)
O15_5 O 0.4538(3) 0.0491(2) 0.9227(2)
O16_5 O 0.4957(3) 0.0737(2) 0.95355(18)
O17_6 O 0.5283(2) 0.12897(19) 0.99523(17)
U4_6 U 0.63452(2) 0.21012(2) 0.81497(2)
U5_6 U 0.56471(2) 0.14571(2) 0.83650(2)
O21_6 O 0.5715(2) 0.1378(2) 0.89240(19)
O22_6 O 0.6440(2) 0.2359(3) 0.9086(2)
C17_6 C 0.4515(3) 0.9963(3) 0.8197(3)
H9_6 H 0.440046 0.977657 0.809463
C20_6 C 0.5470(4) 0.9619(3) 0.9109(3)
H10_6 H 0.559894 0.941753 0.906408
C21_6 C 0.5501(4) 0.9777(3) 0.9424(3)
H11_6 H 0.565514 0.968744 0.958444
N3_6 N 0.4715(3) 0.9904(2) 0.8466(2)
N4_6 N 0.5259(3) 0.9751(2) 0.8867(2)
Ni2_6 Ni 0.49302(4) 0.94197(3) 0.85740(3)
C1_7 C 0.0101(3) 0.3802(3) 0.2343(2)
C2_7 C 0.0225(3) 0.4074(3) 0.2600(2)
C3_7 C 0.0501(3) 0.4284(3) 0.2505(3)
H1_7 H 0.061374 0.424580 0.230037
C4_7 C 0.0612(3) 0.4556(3) 0.2717(3)
H2_7 H 0.079523 0.470314 0.265504
C5_7 C 0.0441(3) 0.4597(3) 0.3023(3)
H3_7 H 0.051208 0.477519 0.316756
C6_7 C 0.0060(3) 0.4127(3) 0.2912(2)
C13_7 C 0.1697(3) 0.2601(4) 0.1106(3)
C14_6 C 0.1987(3) 0.2373(3) 0.0989(2)
C15_6 C 0.1930(3) 0.2159(3) 0.0706(3)
H7_6 H 0.170641 0.214253 0.061271
C16_6 C 0.2200(3) 0.1975(4) 0.0567(3)
H8_6 H 0.215970 0.182403 0.038661
C17_7 C 0.2537(3) 0.2015(3) 0.0697(3)
H9_7 H 0.272343 0.190046 0.059463
C18_6 C 0.2333(3) 0.2381(3) 0.1127(2)
C19_7 C 0.2446(3) 0.2587(3) 0.1432(2)
C20_7 C 0.2881(3) 0.2970(4) 0.1609(3)
H10_7 H 0.308247 0.309894 0.156408
C21_7 C 0.2723(3) 0.3001(4) 0.1924(3)
H11_7 H 0.281256 0.315514 0.208444
C22_7 C 0.2437(3) 0.2805(4) 0.1996(3)
H12_7 H 0.233525 0.281704 0.220842
C23_7 C 0.2295(3) 0.2583(3) 0.1750(3)
C24_6 C 0.2000(3) 0.2344(4) 0.1840(3)
C25_7 C 0.1322(3) 0.2583(3) 0.2700(2)
C26_7 C 0.1561(3) 0.2768(3) 0.2942(2)
C27_7 C 0.1800(3) 0.3002(4) 0.2806(3)
H13_7 H 0.178990 0.305883 0.257778
C28_7 C 0.2056(3) 0.3152(3) 0.3011(3)
H14_7 H 0.221691 0.331163 0.292507
C29_7 C 0.2061(3) 0.3055(3) 0.3347(3)
H15_7 H 0.223696 0.314475 0.348462
C30_7 C 0.1566(3) 0.2704(3) 0.3293(2)
C31_7 C 0.1310(3) 0.2484(3) 0.3488(2)
C32_7 C 0.1298(3) 0.2072(3) 0.3930(2)
H16_7 H 0.141793 0.194893 0.409616
C33_7 C 0.0951(3) 0.1999(3) 0.3873(3)
H17_7 H 0.083928 0.181970 0.399055
C34_7 C 0.0774(3) 0.2194(3) 0.3640(2)
H18_7 H 0.053369 0.216434 0.361481
C35_7 C 0.0951(3) 0.2442(3) 0.3438(2)
C36_7 C 0.0721(3) 0.2645(3) 0.3195(2)
N1_7 N 0.0177(3) 0.4389(2) 0.3116(2)
N3_7 N 0.2596(2) 0.2215(3) 0.0966(2)
N4_7 N 0.2749(2) 0.2759(3) 0.1367(2)
N5_7 N 0.1823(2) 0.2837(3) 0.3482(2)
N6_7 N 0.1469(2) 0.2318(2) 0.3749(2)
Ni1_7 Ni 0.19197(3) 0.25698(4) 0.39260(3)
U1_7 U 0.13452(2) 0.28988(2) 0.18503(2)
U2_7 U 0.06471(2) 0.35429(2) 0.16350(2)
U3_7 U 0.07028(2) 0.31850(2) 0.25539(2)
O1_7 O 0.1053(2) 0.2551(2) 0.1732(2)
O2_7 O 0.1659(2) 0.3226(3) 0.19669(18)
O3_7 O 0.03528(19) 0.31857(18) 0.15654(18)
O4_7 O 0.0915(3) 0.3915(2) 0.1718(2)
O5_7 O 0.04427(18) 0.28201(19) 0.24172(17)
O6_7 O 0.0964(2) 0.3540(2) 0.27081(18)
O7_7 O 0.0913(2) 0.3233(2) 0.20466(17)
O8_7 O 0.0715(2) 0.3622(2) 0.10760(19)
O9_7 O 0.03625(19) 0.36214(19) 0.22141(16)
O11_7 O 0.02155(18) 0.33728(18) 0.28610(16)
O13_7 O 0.1440(2) 0.2641(3) 0.0914(2)
O14_7 O 0.1723(2) 0.2756(3) 0.13897(18)
O15_6 O 0.2009(2) 0.2038(3) 0.1727(2)
O16_6 O 0.1763(2) 0.2457(3) 0.20355(18)
O17_7 O 0.12103(19) 0.2783(2) 0.24523(17)
O18_7 O 0.1250(2) 0.2277(2) 0.27339(18)
O19_7 O 0.08612(18) 0.2917(2) 0.30642(16)
O20_7 O 0.0422(2) 0.2551(2) 0.3155(2)
N7_7 N 0.1889(2) 0.2323(3) 0.4384(2)
N8_7 N 0.1618(2) 0.2918(2) 0.4209(2)
N9_7 N 0.2404(2) 0.2785(3) 0.4034(2)
N10_7 N 0.2251(2) 0.2241(3) 0.3633(2)
Ni2_7 Ni 0.30803(3) 0.24302(4) 0.10740(3)
U4_7 U 0.03988(2) 0.38452(2) 0.06497(2)
U5_7 U 0.10429(2) 0.31471(2) 0.08650(2)
O21_7 O 0.1122(2) 0.3215(2) 0.14240(19)
O22_7 O 0.0141(3) 0.3940(2) 0.1586(2)
C7_7 C 0.9762(3) 0.3928(3) 0.3059(2)
C8_7 C 0.9274(3) 0.4002(3) 0.3405(3)
H4_7 H 0.915520 0.413724 0.356265
C9_7 C 0.9122(3) 0.3689(3) 0.3299(3)
H5_7 H 0.889611 0.362603 0.336359
C10_7 C 0.9324(3) 0.3479(3) 0.3095(3)
H6_7 H 0.923840 0.326094 0.303192
C11_7 C 0.9652(3) 0.3584(2) 0.2981(2)
C12_7 C 0.9886(3) 0.3318(3) 0.2826(2)
N2_7 N 0.9582(2) 0.4118(2) 0.3291(2)
O10_7 O 0.98000(19) 0.37645(19) 0.22718(17)
O12_7 O 0.97541(19) 0.30568(19) 0.2687(2)
Ni3_7 Ni 0.99302(4) 0.44197(3) 0.35740(3)
C1_8 C 0.4899(3) 0.6198(3) 0.7343(2)
C2_8 C 0.4775(3) 0.5926(3) 0.7600(2)
C3_8 C 0.4499(3) 0.5716(3) 0.7505(3)
H1_8 H 0.438626 0.575420 0.730037
C4_8 C 0.4388(3) 0.5444(3) 0.7717(3)
H2_8 H 0.420477 0.529686 0.765504
C5_8 C 0.4559(3) 0.5403(3) 0.8023(3)
H3_8 H 0.448792 0.522481 0.816756
C6_8 C 0.4940(3) 0.5873(3) 0.7912(2)
C7_8 C 0.5238(3) 0.6072(3) 0.8059(2)
C8_8 C 0.5726(3) 0.5998(3) 0.8405(3)
H4_8 H 0.584480 0.586276 0.856265
C9_8 C 0.5878(3) 0.6311(3) 0.8299(3)
H5_8 H 0.610389 0.637397 0.836359
C10_8 C 0.5676(3) 0.6521(3) 0.8095(3)
H6_8 H 0.576160 0.673906 0.803192
C11_8 C 0.5348(3) 0.6416(2) 0.7981(2)
C12_8 C 0.5114(3) 0.6682(3) 0.7826(2)
C13_8 C 0.3303(3) 0.7399(4) 0.6106(3)
C14_7 C 0.3013(3) 0.7627(3) 0.5989(2)
C15_7 C 0.3070(3) 0.7841(3) 0.5706(3)
H7_7 H 0.329359 0.785747 0.561271
C16_7 C 0.2800(3) 0.8025(4) 0.5567(3)
H8_7 H 0.284030 0.817597 0.538661
C17_8 C 0.2463(3) 0.7985(3) 0.5697(3)
H9_8 H 0.227657 0.809954 0.559463
C18_7 C 0.2667(3) 0.7619(3) 0.6127(2)
C19_8 C 0.2554(3) 0.7413(3) 0.6432(2)
C20_8 C 0.2119(3) 0.7030(4) 0.6609(3)
H10_8 H 0.191753 0.690106 0.656408
C21_8 C 0.2277(3) 0.6999(4) 0.6924(3)
H11_8 H 0.218744 0.684486 0.708444
C22_8 C 0.2563(3) 0.7195(4) 0.6996(3)
H12_8 H 0.266475 0.718296 0.720842
C23_8 C 0.2705(3) 0.7417(3) 0.6750(3)
C24_7 C 0.3000(3) 0.7656(4) 0.6840(3)
C25_8 C 0.3678(3) 0.7417(3) 0.7700(2)
C26_8 C 0.3439(3) 0.7232(3) 0.7942(2)
C27_8 C 0.3200(3) 0.6998(4) 0.7806(3)
H13_8 H 0.321010 0.694117 0.757778
C28_8 C 0.2944(3) 0.6848(3) 0.8011(3)
H14_8 H 0.278309 0.668837 0.792507
C29_8 C 0.2939(3) 0.6945(3) 0.8347(3)
H15_8 H 0.276304 0.685525 0.848462
C30_8 C 0.3434(3) 0.7296(3) 0.8293(2)
C31_8 C 0.3690(3) 0.7516(3) 0.8488(2)
C32_8 C 0.3702(3) 0.7928(3) 0.8930(2)
H16_8 H 0.358207 0.805107 0.909616
C33_8 C 0.4049(3) 0.8001(3) 0.8873(3)
H17_8 H 0.416072 0.818030 0.899055
C34_8 C 0.4226(3) 0.7806(3) 0.8640(2)
H18_8 H 0.446631 0.783566 0.861481
C35_8 C 0.4049(3) 0.7558(3) 0.8438(2)
C36_8 C 0.4279(3) 0.7355(3) 0.8195(2)
N1_8 N 0.4823(3) 0.5611(2) 0.8116(2)
N2_8 N 0.5418(2) 0.5882(2) 0.8291(2)
N3_8 N 0.2404(2) 0.7785(3) 0.5966(2)
N4_8 N 0.2251(2) 0.7241(3) 0.6367(2)
N5_8 N 0.3177(2) 0.7163(3) 0.8482(2)
N6_8 N 0.3531(2) 0.7682(2) 0.8749(2)
Ni1_8 Ni 0.30803(3) 0.74302(4) 0.89260(3)
U1_8 U 0.36548(2) 0.71012(2) 0.68503(2)
U2_8 U 0.43529(2) 0.64571(2) 0.66350(2)
U3_8 U 0.42972(2) 0.68150(2) 0.75539(2)
O1_8 O 0.3947(2) 0.7449(2) 0.6732(2)
O2_8 O 0.3341(2) 0.6774(3) 0.69669(18)
O3_8 O 0.46472(19) 0.68143(18) 0.65654(18)
O4_8 O 0.4085(3) 0.6085(2) 0.6718(2)
O5_8 O 0.45573(18) 0.71799(19) 0.74172(17)
O6_8 O 0.4036(2) 0.6460(2) 0.77081(18)
O7_8 O 0.4087(2) 0.6767(2) 0.70466(17)
O8_8 O 0.4285(2) 0.6378(2) 0.60760(19)
O9_8 O 0.46375(19) 0.63786(19) 0.72141(16)
O10_8 O 0.52000(19) 0.62355(19) 0.72718(17)
O11_8 O 0.47845(18) 0.66272(18) 0.78610(16)
O12_8 O 0.52459(19) 0.69432(19) 0.7687(2)
O13_8 O 0.3560(2) 0.7359(3) 0.5914(2)
O14_8 O 0.3277(2) 0.7244(3) 0.63897(18)
O15_7 O 0.2991(2) 0.7962(3) 0.6727(2)
O16_7 O 0.3237(2) 0.7543(3) 0.70355(18)
O17_8 O 0.37897(19) 0.7217(2) 0.74523(17)
O18_8 O 0.3750(2) 0.7723(2) 0.77339(18)
O19_8 O 0.41388(18) 0.7083(2) 0.80642(16)
O20_8 O 0.4578(2) 0.7449(2) 0.8155(2)
N7_8 N 0.3111(2) 0.7677(3) 0.9384(2)
N8_8 N 0.3382(2) 0.7082(2) 0.9209(2)
N9_8 N 0.2596(2) 0.7215(3) 0.9034(2)
N10_8 N 0.2749(2) 0.7759(3) 0.8633(2)
Ni2_8 Ni 0.19197(3) 0.75698(4) 0.60740(3)
Ni3_8 Ni 0.50698(4) 0.55803(3) 0.85740(3)
U4_8 U 0.46012(2) 0.61548(2) 0.56497(2)
U5_8 U 0.39571(2) 0.68529(2) 0.58650(2)
O21_8 O 0.3878(2) 0.6785(2) 0.64240(19)
O22_8 O 0.4859(3) 0.6060(2) 0.6586(2)
C1_9 C 0.1302(3) 0.2601(3) 0.0157(2)
H1_9 H 0.174580 0.311374 0.019963
C13_9 C 0.0101(4) 0.4197(3) 0.1394(3)
C19_9 C 0.0087(3) 0.4946(3) 0.1068(2)
C20_9 C 0.0470(4) 0.5381(3) 0.0891(3)
H10_9 H 0.059894 0.558247 0.093592
C21_9 C 0.0501(4) 0.5223(3) 0.0576(3)
H11_9 H 0.065514 0.531256 0.041556
C22_9 C 0.0305(4) 0.4937(3) 0.0504(3)
H12_9 H 0.031704 0.483525 0.029158
C23_9 C 0.0083(3) 0.4795(3) 0.0750(3)
N4_9 N 0.0259(3) 0.5249(2) 0.1133(2)
O1_9 O 0.0051(2) 0.3553(2) 0.0768(2)
O2_9 O 0.0726(3) 0.4159(2) 0.05331(18)
O3_9 O 0.06857(18) 0.28528(19) 0.09346(18)
O4_9 O 0.1415(2) 0.3415(3) 0.0782(2)
O5_9 O 0.03201(19) 0.29427(18) 0.00828(17)
O7_9 O 0.0733(2) 0.3413(2) 0.04534(17)
O9_9 O 0.11214(19) 0.28625(19) 0.02859(16)
O10_9 O 0.12645(19) 0.23000(19) 0.02282(17)
O14_9 O 0.0256(3) 0.4223(2) 0.11103(18)
O17_9 O 0.0283(2) 0.37103(19) 0.00477(17)
C2_9 C 0.1574(3) 0.2725(3) 0.9900(2)
C3_9 C 0.1784(3) 0.3001(3) 0.9995(3)
C4_9 C 0.2056(3) 0.3112(3) 0.9783(3)
H2_9 H 0.220314 0.329523 0.984496
C5_9 C 0.2097(3) 0.2941(3) 0.9477(3)
H3_9 H 0.227519 0.301208 0.933244
C6_9 C 0.1627(3) 0.2560(3) 0.9588(2)
C7_9 C 0.1428(3) 0.2262(3) 0.9441(2)
C8_9 C 0.1502(3) 0.1774(3) 0.9095(3)
H4_9 H 0.163724 0.165520 0.893735
C9_9 C 0.1189(3) 0.1622(3) 0.9201(3)
H5_9 H 0.112603 0.139611 0.913641
C10_9 C 0.0979(3) 0.1824(3) 0.9405(3)
H6_9 H 0.076094 0.173840 0.946808
C11_9 C 0.1084(2) 0.2152(3) 0.9519(2)
C12_9 C 0.0818(3) 0.2386(3) 0.9674(2)
C25_9 C 0.0083(3) 0.3822(3) 0.9800(2)
C26_9 C 0.0268(3) 0.4061(3) 0.9558(2)
C27_9 C 0.0502(4) 0.4300(3) 0.9694(3)
H13_9 H 0.055883 0.428990 0.992222
C28_9 C 0.0652(3) 0.4556(3) 0.9489(3)
H14_9 H 0.081163 0.471691 0.957493
C29_9 C 0.0555(3) 0.4561(3) 0.9153(3)
H15_9 H 0.064475 0.473696 0.901538
C30_9 C 0.0204(3) 0.4066(3) 0.9207(2)
C36_9 C 0.0145(3) 0.3221(3) 0.9305(2)
N1_9 N 0.1889(2) 0.2677(3) 0.9384(2)
N2_9 N 0.1618(2) 0.2082(2) 0.9209(2)
N5_9 N 0.0337(3) 0.4323(2) 0.9018(2)
Ni1_9 Ni 0.00698(4) 0.44197(3) 0.85740(3)
U3_9 U 0.06850(2) 0.32028(2) 0.99461(2)
O6_9 O 0.1040(2) 0.3464(2) 0.97919(18)
O11_9 O 0.08728(18) 0.27155(18) 0.96390(16)
O12_9 O 0.05568(19) 0.22541(19) 0.9813(2)
O19_9 O 0.0417(2) 0.33612(18) 0.94358(16)
O20_9 O 0.0051(2) 0.2922(2) 0.9345(2)
N8_9 N 0.0418(2) 0.4118(2) 0.8291(2)
N9_9 N 0.0285(3) 0.4904(2) 0.8466(2)
C14_8 C 0.9873(3) 0.4487(3) 0.1511(2)
C15_8 C 0.9659(3) 0.4430(3) 0.1794(3)
H7_8 H 0.964253 0.420641 0.188729
C16_8 C 0.9475(4) 0.4700(3) 0.1933(3)
H8_8 H 0.932403 0.465970 0.211339
C17_9 C 0.9515(3) 0.5037(3) 0.1803(3)
H9_9 H 0.940046 0.522343 0.190537
C18_8 C 0.9881(3) 0.4833(3) 0.1373(2)
C24_8 C 0.9844(4) 0.4500(3) 0.0660(3)
N3_9 N 0.9715(3) 0.5096(2) 0.1534(2)
O15_8 O 0.9538(3) 0.4509(2) 0.0773(2)
O16_8 O 0.9957(3) 0.4263(2) 0.04645(18)
C31_9 C 0.9984(3) 0.3810(3) 0.9012(2)
C32_9 C 0.9572(3) 0.3798(3) 0.8570(2)
H16_9 H 0.944893 0.391793 0.840384
C33_9 C 0.9499(3) 0.3451(3) 0.8627(3)
H17_9 H 0.931970 0.333928 0.850945
C34_9 C 0.9694(3) 0.3274(3) 0.8860(2)
H18_9 H 0.966434 0.303369 0.888519
C35_9 C 0.9942(3) 0.3451(3) 0.9062(2)
N6_9 N 0.9818(2) 0.3969(2) 0.8751(2)
O18_9 O 0.9777(2) 0.3750(2) 0.97661(18)
N7_9 N 0.9823(3) 0.4389(2) 0.8116(2)
N10_9 N 0.9741(3) 0.4751(2) 0.8867(2)
C1_10 C 0.3698(3) 0.7399(3) 0.5157(2)
C2_10 C 0.3426(3) 0.7275(3) 0.4900(2)
C3_10 C 0.3216(3) 0.6999(3) 0.4995(3)
H1_10 H 0.325420 0.688626 0.519963
C4_10 C 0.2944(3) 0.6888(3) 0.4783(3)
H2_10 H 0.279686 0.670477 0.484496
C5_10 C 0.2903(3) 0.7059(3) 0.4477(3)
H3_10 H 0.272481 0.698792 0.433244
C6_10 C 0.3373(3) 0.7440(3) 0.4588(2)
C7_10 C 0.3572(3) 0.7738(3) 0.4441(2)
C8_10 C 0.3498(3) 0.8226(3) 0.4095(3)
H4_10 H 0.336276 0.834480 0.393735
C9_10 C 0.3811(3) 0.8378(3) 0.4201(3)
H5_10 H 0.387397 0.860389 0.413641
C10_10 C 0.4021(3) 0.8176(3) 0.4405(3)
H6_10 H 0.423906 0.826160 0.446808
C11_10 C 0.3916(2) 0.7848(3) 0.4519(2)
C12_10 C 0.4182(3) 0.7614(3) 0.4674(2)
C13_10 C 0.4899(4) 0.5803(3) 0.6394(3)
C14_9 C 0.5127(3) 0.5513(3) 0.6511(2)
C15_9 C 0.5341(3) 0.5570(3) 0.6794(3)
H7_9 H 0.535747 0.579359 0.688729
C16_9 C 0.5525(4) 0.5300(3) 0.6933(3)
H8_9 H 0.567597 0.534030 0.711339
C17_10 C 0.5485(3) 0.4963(3) 0.6803(3)
H9_10 H 0.559954 0.477657 0.690537
C18_9 C 0.5119(3) 0.5167(3) 0.6373(2)
C19_10 C 0.4913(3) 0.5054(3) 0.6068(2)
C20_10 C 0.4530(4) 0.4619(3) 0.5891(3)
H10_10 H 0.440106 0.441753 0.593592
C21_10 C 0.4499(4) 0.4777(3) 0.5576(3)
H11_10 H 0.434486 0.468744 0.541556
C22_10 C 0.4695(4) 0.5063(3) 0.5504(3)
H12_10 H 0.468296 0.516475 0.529158
C23_10 C 0.4917(3) 0.5205(3) 0.5750(3)
C24_9 C 0.5156(4) 0.5500(3) 0.5660(3)
C25_10 C 0.4917(3) 0.6178(3) 0.4800(2)
C26_10 C 0.4732(3) 0.5939(3) 0.4558(2)
C27_10 C 0.4498(4) 0.5700(3) 0.4694(3)
H13_10 H 0.444117 0.571010 0.492222
C28_10 C 0.4348(3) 0.5444(3) 0.4489(3)
H14_10 H 0.418837 0.528309 0.457493
C29_10 C 0.4445(3) 0.5439(3) 0.4153(3)
H15_10 H 0.435525 0.526304 0.401538
C30_10 C 0.4796(3) 0.5934(3) 0.4207(2)
C31_10 C 0.5016(3) 0.6190(3) 0.4012(2)
C32_10 C 0.5428(3) 0.6202(3) 0.3570(2)
H16_10 H 0.555107 0.608207 0.340384
C33_10 C 0.5501(3) 0.6549(3) 0.3627(3)
H17_10 H 0.568030 0.666072 0.350945
C34_10 C 0.5306(3) 0.6726(3) 0.3860(2)
H18_10 H 0.533566 0.696631 0.388519
C35_10 C 0.5058(3) 0.6549(3) 0.4062(2)
C36_10 C 0.4855(3) 0.6779(3) 0.4305(2)
N1_10 N 0.3111(2) 0.7323(3) 0.4384(2)
N2_10 N 0.3382(2) 0.7918(2) 0.4209(2)
N3_10 N 0.5285(3) 0.4904(2) 0.6534(2)
N4_10 N 0.4741(3) 0.4751(2) 0.6133(2)
N5_10 N 0.4663(3) 0.5677(2) 0.4018(2)
N6_10 N 0.5182(2) 0.6031(2) 0.3751(2)
Ni1_10 Ni 0.49302(4) 0.55803(3) 0.35740(3)
U3_10 U 0.43150(2) 0.67972(2) 0.49461(2)
O1_10 O 0.4949(2) 0.6447(2) 0.5768(2)
O2_10 O 0.4274(3) 0.5841(2) 0.55331(18)
O3_10 O 0.43143(18) 0.71472(19) 0.59346(18)
O4_10 O 0.3585(2) 0.6585(3) 0.5782(2)
O5_10 O 0.46799(19) 0.70573(18) 0.50828(17)
O6_10 O 0.3960(2) 0.6536(2) 0.47919(18)
O7_10 O 0.4267(2) 0.6587(2) 0.54534(17)
O9_10 O 0.38786(19) 0.71375(19) 0.52859(16)
O10_10 O 0.37355(19) 0.77000(19) 0.52282(17)
O11_10 O 0.41272(18) 0.72845(18) 0.46390(16)
O12_10 O 0.44432(19) 0.77459(19) 0.4813(2)
O14_10 O 0.4744(3) 0.5777(2) 0.61103(18)
O15_9 O 0.5462(3) 0.5491(2) 0.5773(2)
O16_9 O 0.5043(3) 0.5737(2) 0.54645(18)
O17_10 O 0.4717(2) 0.62897(19) 0.50477(17)
O18_10 O 0.5223(2) 0.6250(2) 0.47661(18)
O19_10 O 0.4583(2) 0.66388(18) 0.44358(16)
O20_10 O 0.4949(2) 0.7078(2) 0.4345(2)
N7_10 N 0.5177(3) 0.5611(2) 0.3116(2)
N8_10 N 0.4582(2) 0.5882(2) 0.3291(2)
N9_10 N 0.4715(3) 0.5096(2) 0.3466(2)
N10_10 N 0.5259(3) 0.5249(2) 0.3867(2)
C7_11 C 0.0238(3) 0.8928(3) 0.1941(2)
C8_11 C 0.0726(3) 0.9002(3) 0.1595(3)
H4_11 H 0.084480 0.913724 0.143735
C9_11 C 0.0878(3) 0.8689(3) 0.1701(3)
H5_11 H 0.110389 0.862603 0.163641
C10_11 C 0.0676(3) 0.8479(3) 0.1905(3)
H6_11 H 0.076160 0.826094 0.196808
C11_11 C 0.0348(3) 0.8584(2) 0.2019(2)
C12_11 C 0.0114(3) 0.8318(3) 0.2174(2)
N2_11 N 0.0418(2) 0.9118(2) 0.1709(2)
O10_11 O 0.02000(19) 0.87645(19) 0.27282(17)
O12_11 O 0.02459(19) 0.80568(19) 0.2313(2)
C1_11 C 0.9899(3) 0.8802(3) 0.2657(2)
C2_11 C 0.9775(3) 0.9074(3) 0.2400(2)
C3_11 C 0.9499(3) 0.9284(3) 0.2495(3)
H1_11 H 0.938626 0.924580 0.269963
C4_11 C 0.9388(3) 0.9556(3) 0.2283(3)
H2_11 H 0.920477 0.970314 0.234496
C5_11 C 0.9559(3) 0.9597(3) 0.1977(3)
H3_11 H 0.948792 0.977519 0.183244
C6_11 C 0.9940(3) 0.9127(3) 0.2088(2)
C13_11 C 0.8303(3) 0.7601(4) 0.3894(3)
C14_10 C 0.8013(3) 0.7373(3) 0.4011(2)
C15_10 C 0.8070(3) 0.7159(3) 0.4294(3)
H7_10 H 0.829359 0.714253 0.438729
C16_10 C 0.7800(3) 0.6975(4) 0.4433(3)
H8_10 H 0.784030 0.682403 0.461339
C17_11 C 0.7463(3) 0.7015(3) 0.4303(3)
H9_11 H 0.727657 0.690046 0.440537
C18_10 C 0.7667(3) 0.7381(3) 0.3873(2)
C19_11 C 0.7554(3) 0.7587(3) 0.3568(2)
C20_11 C 0.7119(3) 0.7970(4) 0.3391(3)
H10_11 H 0.691753 0.809894 0.343592
C21_11 C 0.7277(3) 0.8001(4) 0.3076(3)
H11_11 H 0.718744 0.815514 0.291556
C22_11 C 0.7563(3) 0.7805(4) 0.3004(3)
H12_11 H 0.766475 0.781704 0.279158
C23_11 C 0.7705(3) 0.7583(3) 0.3250(3)
C24_10 C 0.8000(3) 0.7344(4) 0.3160(3)
C25_11 C 0.8678(3) 0.7583(3) 0.2300(2)
C26_11 C 0.8439(3) 0.7768(3) 0.2058(2)
C27_11 C 0.8200(3) 0.8002(4) 0.2194(3)
H13_11 H 0.821010 0.805883 0.242222
C28_11 C 0.7944(3) 0.8152(3) 0.1989(3)
H14_11 H 0.778309 0.831163 0.207493
C29_11 C 0.7939(3) 0.8055(3) 0.1653(3)
H15_11 H 0.776304 0.814475 0.151538
C30_11 C 0.8434(3) 0.7704(3) 0.1707(2)
C31_11 C 0.8690(3) 0.7484(3) 0.1512(2)
C32_11 C 0.8702(3) 0.7072(3) 0.1070(2)
H16_11 H 0.858207 0.694893 0.090384
C33_11 C 0.9049(3) 0.6999(3) 0.1127(3)
H17_11 H 0.916072 0.681970 0.100945
C34_11 C 0.9226(3) 0.7194(3) 0.1360(2)
H18_11 H 0.946631 0.716434 0.138519
C35_11 C 0.9049(3) 0.7442(3) 0.1562(2)
C36_11 C 0.9279(3) 0.7645(3) 0.1805(2)
N1_11 N 0.9823(3) 0.9389(2) 0.1884(2)
N3_11 N 0.7404(2) 0.7215(3) 0.4034(2)
N4_11 N 0.7251(2) 0.7759(3) 0.3633(2)
N5_11 N 0.8177(2) 0.7837(3) 0.1518(2)
N6_11 N 0.8531(2) 0.7318(2) 0.1251(2)
Ni1_11 Ni 0.80803(3) 0.75698(4) 0.10740(3)
U3_11 U 0.92972(2) 0.81850(2) 0.24461(2)
O1_11 O 0.8947(2) 0.7551(2) 0.3268(2)
O2_11 O 0.8341(2) 0.8226(3) 0.30331(18)
O3_11 O 0.96472(19) 0.81857(18) 0.34346(18)
O4_11 O 0.9085(3) 0.8915(2) 0.3282(2)
O5_11 O 0.95573(18) 0.78201(19) 0.25828(17)
O6_11 O 0.9036(2) 0.8540(2) 0.22919(18)
O7_11 O 0.9087(2) 0.8233(2) 0.29534(17)
O9_11 O 0.96375(19) 0.86214(19) 0.27859(16)
O11_11 O 0.97845(18) 0.83728(18) 0.21390(16)
O14_11 O 0.8277(2) 0.7756(3) 0.36103(18)
O15_10 O 0.7991(2) 0.7038(3) 0.3273(2)
O16_10 O 0.8237(2) 0.7457(3) 0.29645(18)
O17_11 O 0.87897(19) 0.7783(2) 0.25477(17)
O18_11 O 0.8750(2) 0.7277(2) 0.22661(18)
O19_11 O 0.91388(18) 0.7917(2) 0.19358(16)
O20_11 O 0.9578(2) 0.7551(2) 0.1845(2)
N7_11 N 0.8111(2) 0.7323(3) 0.0616(2)
N8_11 N 0.8382(2) 0.7918(2) 0.0791(2)
N9_11 N 0.7596(2) 0.7785(3) 0.0966(2)
N10_11 N 0.7749(2) 0.7241(3) 0.1367(2)
C1_12 C 0.5101(3) 0.1198(3) 0.7657(2)
C2_12 C 0.5225(3) 0.0926(3) 0.7400(2)
C3_12 C 0.5501(3) 0.0716(3) 0.7495(3)
H1_12 H 0.561374 0.075420 0.769963
C4_12 C 0.5612(3) 0.0444(3) 0.7283(3)
H2_12 H 0.579523 0.029686 0.734496
C5_12 C 0.5441(3) 0.0403(3) 0.6977(3)
H3_12 H 0.551208 0.022481 0.683244
C6_12 C 0.5060(3) 0.0873(3) 0.7088(2)
C7_12 C 0.4762(3) 0.1072(3) 0.6941(2)
C8_12 C 0.4274(3) 0.0998(3) 0.6595(3)
H4_12 H 0.415520 0.086276 0.643735
C9_12 C 0.4122(3) 0.1311(3) 0.6701(3)
H5_12 H 0.389611 0.137397 0.663641
C10_12 C 0.4324(3) 0.1521(3) 0.6905(3)
H6_12 H 0.423840 0.173906 0.696808
C11_12 C 0.4652(3) 0.1416(2) 0.7019(2)
C12_12 C 0.4886(3) 0.1682(3) 0.7174(2)
C13_12 C 0.6697(3) 0.2399(4) 0.8894(3)
C14_11 C 0.6987(3) 0.2627(3) 0.9011(2)
C15_11 C 0.6930(3) 0.2841(3) 0.9294(3)
H7_11 H 0.670641 0.285747 0.938729
C16_11 C 0.7200(3) 0.3025(4) 0.9433(3)
H8_11 H 0.715970 0.317597 0.961339
C17_12 C 0.7537(3) 0.2985(3) 0.9303(3)
H9_12 H 0.772343 0.309954 0.940537
C18_11 C 0.7333(3) 0.2619(3) 0.8873(2)
C19_12 C 0.7446(3) 0.2413(3) 0.8568(2)
C20_12 C 0.7881(3) 0.2030(4) 0.8391(3)
H10_12 H 0.808247 0.190106 0.843592
C21_12 C 0.7723(3) 0.1999(4) 0.8076(3)
H11_12 H 0.781256 0.184486 0.791556
C22_12 C 0.7437(3) 0.2195(4) 0.8004(3)
H12_12 H 0.733525 0.218296 0.779158
C23_12 C 0.7295(3) 0.2417(3) 0.8250(3)
C24_11 C 0.7000(3) 0.2656(4) 0.8160(3)
C25_12 C 0.6322(3) 0.2417(3) 0.7300(2)
C26_12 C 0.6561(3) 0.2232(3) 0.7058(2)
C27_12 C 0.6800(3) 0.1998(4) 0.7194(3)
H13_12 H 0.678990 0.194117 0.742222
C28_12 C 0.7056(3) 0.1848(3) 0.6989(3)
H14_12 H 0.721691 0.168837 0.707493
C29_12 C 0.7061(3) 0.1945(3) 0.6653(3)
H15_12 H 0.723696 0.185525 0.651538
C30_12 C 0.6566(3) 0.2296(3) 0.6707(2)
C31_12 C 0.6310(3) 0.2516(3) 0.6512(2)
C32_12 C 0.6298(3) 0.2928(3) 0.6070(2)
H16_12 H 0.641793 0.305107 0.590384
C33_12 C 0.5951(3) 0.3001(3) 0.6127(3)
H17_12 H 0.583928 0.318030 0.600945
C34_12 C 0.5774(3) 0.2806(3) 0.6360(2)
H18_12 H 0.553369 0.283566 0.638519
C35_12 C 0.5951(3) 0.2558(3) 0.6562(2)
C36_12 C 0.5721(3) 0.2355(3) 0.6805(2)
N1_12 N 0.5177(3) 0.0611(2) 0.6884(2)
N2_12 N 0.4582(2) 0.0882(2) 0.6709(2)
N3_12 N 0.7596(2) 0.2785(3) 0.9034(2)
N4_12 N 0.7749(2) 0.2241(3) 0.8633(2)
N5_12 N 0.6823(2) 0.2163(3) 0.6518(2)
N6_12 N 0.6469(2) 0.2682(2) 0.6251(2)
Ni1_12 Ni 0.69197(3) 0.24302(4) 0.60740(3)
U3_12 U 0.57028(2) 0.18150(2) 0.74461(2)
O1_12 O 0.6053(2) 0.2449(2) 0.8268(2)
O2_12 O 0.6659(2) 0.1774(3) 0.80331(18)
O3_12 O 0.53528(19) 0.18143(18) 0.84346(18)
O4_12 O 0.5915(3) 0.1085(2) 0.8282(2)
O5_12 O 0.54427(18) 0.21799(19) 0.75828(17)
O6_12 O 0.5964(2) 0.1460(2) 0.72919(18)
O7_12 O 0.5913(2) 0.1767(2) 0.79534(17)
O9_12 O 0.53625(19) 0.13786(19) 0.77859(16)
O10_12 O 0.48000(19) 0.12355(19) 0.77282(17)
O11_12 O 0.52155(18) 0.16272(18) 0.71390(16)
O12_12 O 0.47541(19) 0.19432(19) 0.7313(2)
O14_12 O 0.6723(2) 0.2244(3) 0.86103(18)
O15_11 O 0.7009(2) 0.2962(3) 0.8273(2)
O16_11 O 0.6763(2) 0.2543(3) 0.79645(18)
O17_12 O 0.62103(19) 0.2217(2) 0.75477(17)
O18_12 O 0.6250(2) 0.2723(2) 0.72661(18)
O19_12 O 0.58612(18) 0.2083(2) 0.69358(16)
O20_12 O 0.5422(2) 0.2449(2) 0.6845(2)
N7_12 N 0.6889(2) 0.2677(3) 0.5616(2)
N8_12 N 0.6618(2) 0.2082(2) 0.5791(2)
N9_12 N 0.7404(2) 0.2215(3) 0.5966(2)
N10_12 N 0.7251(2) 0.2759(3) 0.6367(2)
C2_13 C 0.3426(3) 0.2725(3) 0.0100(2)
C3_13 C 0.3216(3) 0.3001(3) 0.0005(3)
C4_13 C 0.2944(3) 0.3112(3) 0.0217(3)
H2_13 H 0.279686 0.329523 0.015504
C5_13 C 0.2903(3) 0.2941(3) 0.0523(3)
H3_13 H 0.272481 0.301208 0.066756
C6_13 C 0.3373(3) 0.2560(3) 0.0412(2)
C7_13 C 0.3572(3) 0.2262(3) 0.0559(2)
C8_13 C 0.3498(3) 0.1774(3) 0.0905(3)
H4_13 H 0.336276 0.165520 0.106265
C9_13 C 0.3811(3) 0.1622(3) 0.0799(3)
H5_13 H 0.387397 0.139611 0.086359
C10_13 C 0.4021(3) 0.1824(3) 0.0595(3)
H6_13 H 0.423906 0.173840 0.053192
C11_13 C 0.3916(2) 0.2152(3) 0.0481(2)
C12_13 C 0.4182(3) 0.2386(3) 0.0326(2)
C25_13 C 0.4917(3) 0.3822(3) 0.0200(2)
C26_13 C 0.4732(3) 0.4061(3) 0.0442(2)
C27_13 C 0.4498(4) 0.4300(3) 0.0306(3)
H13_13 H 0.444117 0.428990 0.007778
C28_13 C 0.4348(3) 0.4556(3) 0.0511(3)
H14_13 H 0.418837 0.471691 0.042507
C29_13 C 0.4445(3) 0.4561(3) 0.0847(3)
H15_13 H 0.435525 0.473696 0.098462
C30_13 C 0.4796(3) 0.4066(3) 0.0793(2)
C31_13 C 0.5016(3) 0.3810(3) 0.0988(2)
C32_13 C 0.5428(3) 0.3798(3) 0.1430(2)
H16_13 H 0.555107 0.391793 0.159616
C33_13 C 0.5501(3) 0.3451(3) 0.1373(3)
H17_13 H 0.568030 0.333928 0.149055
C34_13 C 0.5306(3) 0.3274(3) 0.1140(2)
H18_13 H 0.533566 0.303369 0.111481
C35_13 C 0.5058(3) 0.3451(3) 0.0938(2)
C36_13 C 0.4855(3) 0.3221(3) 0.0695(2)
N1_13 N 0.3111(2) 0.2677(3) 0.0616(2)
N2_13 N 0.3382(2) 0.2082(2) 0.0791(2)
N5_13 N 0.4663(3) 0.4323(2) 0.0982(2)
N6_13 N 0.5182(2) 0.3969(2) 0.1249(2)
Ni1_13 Ni 0.49302(4) 0.44197(3) 0.14260(3)
U3_13 U 0.43150(2) 0.32028(2) 0.00539(2)
O6_13 O 0.3960(2) 0.3464(2) 0.02081(18)
O11_13 O 0.41272(18) 0.27155(18) 0.03610(16)
O12_13 O 0.44432(19) 0.22541(19) 0.0187(2)
O18_13 O 0.5223(2) 0.3750(2) 0.02339(18)
O19_13 O 0.4583(2) 0.33612(18) 0.05642(16)
O20_13 O 0.4949(2) 0.2922(2) 0.0655(2)
N7_13 N 0.5177(3) 0.4389(2) 0.1884(2)
N8_13 N 0.4582(2) 0.4118(2) 0.1709(2)
N9_13 N 0.4715(3) 0.4904(2) 0.1534(2)
N10_13 N 0.5259(3) 0.4751(2) 0.1133(2)
C1_13 C 0.3698(3) 0.2601(3) 0.9843(2)
H1_13 H 0.325420 0.311374 0.980037
C13_13 C 0.4899(4) 0.4197(3) 0.8606(3)
C14_12 C 0.5127(3) 0.4487(3) 0.8489(2)
C15_12 C 0.5341(3) 0.4430(3) 0.8206(3)
H7_12 H 0.535747 0.420641 0.811271
C16_12 C 0.5525(4) 0.4700(3) 0.8067(3)
H8_12 H 0.567597 0.465970 0.788661
C17_13 C 0.5485(3) 0.5037(3) 0.8197(3)
H9_13 H 0.559954 0.522343 0.809463
C18_12 C 0.5119(3) 0.4833(3) 0.8627(2)
C19_13 C 0.4913(3) 0.4946(3) 0.8932(2)
C20_13 C 0.4530(4) 0.5381(3) 0.9109(3)
H10_13 H 0.440106 0.558247 0.906408
C21_13 C 0.4499(4) 0.5223(3) 0.9424(3)
H11_13 H 0.434486 0.531256 0.958444
C22_13 C 0.4695(4) 0.4937(3) 0.9496(3)
H12_13 H 0.468296 0.483525 0.970842
C23_13 C 0.4917(3) 0.4795(3) 0.9250(3)
C24_12 C 0.5156(4) 0.4500(3) 0.9340(3)
N3_13 N 0.5285(3) 0.5096(2) 0.8466(2)
N4_13 N 0.4741(3) 0.5249(2) 0.8867(2)
O1_13 O 0.4949(2) 0.3553(2) 0.9232(2)
O2_13 O 0.4274(3) 0.4159(2) 0.94669(18)
O3_13 O 0.43143(18) 0.28528(19) 0.90654(18)
O4_13 O 0.3585(2) 0.3415(3) 0.9218(2)
O5_13 O 0.46799(19) 0.29427(18) 0.99172(17)
O7_13 O 0.4267(2) 0.3413(2) 0.95466(17)
O9_13 O 0.38786(19) 0.28625(19) 0.97141(16)
O10_13 O 0.37355(19) 0.23000(19) 0.97718(17)
O14_13 O 0.4744(3) 0.4223(2) 0.88897(18)
O15_12 O 0.5462(3) 0.4509(2) 0.9227(2)
O16_12 O 0.5043(3) 0.4263(2) 0.95355(18)
O17_13 O 0.4717(2) 0.37103(19) 0.99523(17)
C1_14 C 0.1302(3) 0.7399(3) 0.4843(2)
C2_14 C 0.1574(3) 0.7275(3) 0.5100(2)
C3_14 C 0.1784(3) 0.6999(3) 0.5005(3)
H1_14 H 0.174580 0.688626 0.480037
C4_14 C 0.2056(3) 0.6888(3) 0.5217(3)
H2_14 H 0.220314 0.670477 0.515504
C5_14 C 0.2097(3) 0.7059(3) 0.5523(3)
H3_14 H 0.227519 0.698792 0.566756
C6_14 C 0.1627(3) 0.7440(3) 0.5412(2)
C7_14 C 0.1428(3) 0.7738(3) 0.5559(2)
C8_14 C 0.1502(3) 0.8226(3) 0.5905(3)
H4_14 H 0.163724 0.834480 0.606265
C9_14 C 0.1189(3) 0.8378(3) 0.5799(3)
H5_14 H 0.112603 0.860389 0.586359
C10_14 C 0.0979(3) 0.8176(3) 0.5595(3)
H6_14 H 0.076094 0.826160 0.553192
C11_14 C 0.1084(2) 0.7848(3) 0.5481(2)
C12_14 C 0.0818(3) 0.7614(3) 0.5326(2)
C13_14 C 0.0101(4) 0.5803(3) 0.3606(3)
C19_14 C 0.0087(3) 0.5054(3) 0.3932(2)
C20_14 C 0.0470(4) 0.4619(3) 0.4109(3)
H10_14 H 0.059894 0.441753 0.406408
C21_14 C 0.0501(4) 0.4777(3) 0.4424(3)
H11_14 H 0.065514 0.468744 0.458444
C22_14 C 0.0305(4) 0.5063(3) 0.4496(3)
H12_14 H 0.031704 0.516475 0.470842
C23_14 C 0.0083(3) 0.5205(3) 0.4250(3)
C25_14 C 0.0083(3) 0.6178(3) 0.5200(2)
C26_14 C 0.0268(3) 0.5939(3) 0.5442(2)
C27_14 C 0.0502(4) 0.5700(3) 0.5306(3)
H13_14 H 0.055883 0.571010 0.507778
C28_14 C 0.0652(3) 0.5444(3) 0.5511(3)
H14_14 H 0.081163 0.528309 0.542507
C29_14 C 0.0555(3) 0.5439(3) 0.5847(3)
H15_14 H 0.064475 0.526304 0.598462
C30_14 C 0.0204(3) 0.5934(3) 0.5793(2)
C36_14 C 0.0145(3) 0.6779(3) 0.5695(2)
N1_14 N 0.1889(2) 0.7323(3) 0.5616(2)
N2_14 N 0.1618(2) 0.7918(2) 0.5791(2)
N4_14 N 0.0259(3) 0.4751(2) 0.3867(2)
N5_14 N 0.0337(3) 0.5677(2) 0.5982(2)
Ni1_14 Ni 0.00698(4) 0.55803(3) 0.64260(3)
U3_14 U 0.06850(2) 0.67972(2) 0.50539(2)
O1_14 O 0.0051(2) 0.6447(2) 0.4232(2)
O2_14 O 0.0726(3) 0.5841(2) 0.44669(18)
O3_14 O 0.06857(18) 0.71472(19) 0.40654(18)
O4_14 O 0.1415(2) 0.6585(3) 0.4218(2)
O5_14 O 0.03201(19) 0.70573(18) 0.49172(17)
O6_14 O 0.1040(2) 0.6536(2) 0.52081(18)
O7_14 O 0.0733(2) 0.6587(2) 0.45466(17)
O9_14 O 0.11214(19) 0.71375(19) 0.47141(16)
O10_14 O 0.12645(19) 0.77000(19) 0.47718(17)
O11_14 O 0.08728(18) 0.72845(18) 0.53610(16)
O12_14 O 0.05568(19) 0.77459(19) 0.5187(2)
O14_14 O 0.0256(3) 0.5777(2) 0.38897(18)
O17_14 O 0.0283(2) 0.62897(19) 0.49523(17)
O19_14 O 0.0417(2) 0.66388(18) 0.55642(16)
O20_14 O 0.0051(2) 0.7078(2) 0.5655(2)
N8_14 N 0.0418(2) 0.5882(2) 0.6709(2)
N9_14 N 0.0285(3) 0.5096(2) 0.6534(2)
C14_13 C 0.9873(3) 0.5513(3) 0.3489(2)
C15_13 C 0.9659(3) 0.5570(3) 0.3206(3)
H7_13 H 0.964253 0.579359 0.311271
C16_13 C 0.9475(4) 0.5300(3) 0.3067(3)
H8_13 H 0.932403 0.534030 0.288661
C17_14 C 0.9515(3) 0.4963(3) 0.3197(3)
H9_14 H 0.940046 0.477657 0.309463
C18_13 C 0.9881(3) 0.5167(3) 0.3627(2)
C24_13 C 0.9844(4) 0.5500(3) 0.4340(3)
C31_14 C 0.9984(3) 0.6190(3) 0.5988(2)
C32_14 C 0.9572(3) 0.6202(3) 0.6430(2)
H16_14 H 0.944893 0.608207 0.659616
C33_14 C 0.9499(3) 0.6549(3) 0.6373(3)
H17_14 H 0.931970 0.666072 0.649055
C34_14 C 0.9694(3) 0.6726(3) 0.6140(2)
H18_14 H 0.966434 0.696631 0.611481
C35_14 C 0.9942(3) 0.6549(3) 0.5938(2)
N3_14 N 0.9715(3) 0.4904(2) 0.3466(2)
N6_14 N 0.9818(2) 0.6031(2) 0.6249(2)
O15_13 O 0.9538(3) 0.5491(2) 0.4227(2)
O16_13 O 0.9957(3) 0.5737(2) 0.45355(18)
O18_14 O 0.9777(2) 0.6250(2) 0.52339(18)
N7_14 N 0.9823(3) 0.5611(2) 0.6884(2)
N10_14 N 0.9741(3) 0.5249(2) 0.6133(2)
C1_15 C 0.5101(3) 0.8802(3) 0.7343(2)
C2_15 C 0.5225(3) 0.9074(3) 0.7600(2)
C3_15 C 0.5501(3) 0.9284(3) 0.7505(3)
H1_15 H 0.561374 0.924580 0.730037
C4_15 C 0.5612(3) 0.9556(3) 0.7717(3)
H2_15 H 0.579523 0.970314 0.765504
C5_15 C 0.5441(3) 0.9597(3) 0.8023(3)
H3_15 H 0.551208 0.977519 0.816756
C6_15 C 0.5060(3) 0.9127(3) 0.7912(2)
C7_15 C 0.4762(3) 0.8928(3) 0.8059(2)
C8_15 C 0.4274(3) 0.9002(3) 0.8405(3)
H4_15 H 0.415520 0.913724 0.856265
C9_15 C 0.4122(3) 0.8689(3) 0.8299(3)
H5_15 H 0.389611 0.862603 0.836359
C10_15 C 0.4324(3) 0.8479(3) 0.8095(3)
H6_15 H 0.423840 0.826094 0.803192
C11_15 C 0.4652(3) 0.8584(2) 0.7981(2)
C12_15 C 0.4886(3) 0.8318(3) 0.7826(2)
C13_15 C 0.6697(3) 0.7601(4) 0.6106(3)
C14_14 C 0.6987(3) 0.7373(3) 0.5989(2)
C15_14 C 0.6930(3) 0.7159(3) 0.5706(3)
H7_14 H 0.670641 0.714253 0.561271
C16_14 C 0.7200(3) 0.6975(4) 0.5567(3)
H8_14 H 0.715970 0.682403 0.538661
C17_15 C 0.7537(3) 0.7015(3) 0.5697(3)
H9_15 H 0.772343 0.690046 0.559463
C18_14 C 0.7333(3) 0.7381(3) 0.6127(2)
C19_15 C 0.7446(3) 0.7587(3) 0.6432(2)
C20_15 C 0.7881(3) 0.7970(4) 0.6609(3)
H10_15 H 0.808247 0.809894 0.656408
C21_15 C 0.7723(3) 0.8001(4) 0.6924(3)
H11_15 H 0.781256 0.815514 0.708444
C22_15 C 0.7437(3) 0.7805(4) 0.6996(3)
H12_15 H 0.733525 0.781704 0.720842
C23_15 C 0.7295(3) 0.7583(3) 0.6750(3)
C24_14 C 0.7000(3) 0.7344(4) 0.6840(3)
C25_15 C 0.6322(3) 0.7583(3) 0.7700(2)
C26_15 C 0.6561(3) 0.7768(3) 0.7942(2)
C27_15 C 0.6800(3) 0.8002(4) 0.7806(3)
H13_15 H 0.678990 0.805883 0.757778
C28_15 C 0.7056(3) 0.8152(3) 0.8011(3)
H14_15 H 0.721691 0.831163 0.792507
C29_15 C 0.7061(3) 0.8055(3) 0.8347(3)
H15_15 H 0.723696 0.814475 0.848462
C30_15 C 0.6566(3) 0.7704(3) 0.8293(2)
C31_15 C 0.6310(3) 0.7484(3) 0.8488(2)
C32_15 C 0.6298(3) 0.7072(3) 0.8930(2)
H16_15 H 0.641793 0.694893 0.909616
C33_15 C 0.5951(3) 0.6999(3) 0.8873(3)
H17_15 H 0.583928 0.681970 0.899055
C34_15 C 0.5774(3) 0.7194(3) 0.8640(2)
H18_15 H 0.553369 0.716434 0.861481
C35_15 C 0.5951(3) 0.7442(3) 0.8438(2)
C36_15 C 0.5721(3) 0.7645(3) 0.8195(2)
N1_15 N 0.5177(3) 0.9389(2) 0.8116(2)
N2_15 N 0.4582(2) 0.9118(2) 0.8291(2)
N3_15 N 0.7596(2) 0.7215(3) 0.5966(2)
N4_15 N 0.7749(2) 0.7759(3) 0.6367(2)
N5_15 N 0.6823(2) 0.7837(3) 0.8482(2)
N6_15 N 0.6469(2) 0.7318(2) 0.8749(2)
Ni1_15 Ni 0.69197(3) 0.75698(4) 0.89260(3)
U3_15 U 0.57028(2) 0.81850(2) 0.75539(2)
O1_15 O 0.6053(2) 0.7551(2) 0.6732(2)
O2_15 O 0.6659(2) 0.8226(3) 0.69669(18)
O3_15 O 0.53528(19) 0.81857(18) 0.65654(18)
O4_15 O 0.5915(3) 0.8915(2) 0.6718(2)
O5_15 O 0.54427(18) 0.78201(19) 0.74172(17)
O6_15 O 0.5964(2) 0.8540(2) 0.77081(18)
O7_15 O 0.5913(2) 0.8233(2) 0.70466(17)
O9_15 O 0.53625(19) 0.86214(19) 0.72141(16)
O10_15 O 0.48000(19) 0.87645(19) 0.72718(17)
O11_15 O 0.52155(18) 0.83728(18) 0.78610(16)
O12_15 O 0.47541(19) 0.80568(19) 0.7687(2)
O14_15 O 0.6723(2) 0.7756(3) 0.63897(18)
O15_14 O 0.7009(2) 0.7038(3) 0.6727(2)
O16_14 O 0.6763(2) 0.7457(3) 0.70355(18)
O17_15 O 0.62103(19) 0.7783(2) 0.74523(17)
O18_15 O 0.6250(2) 0.7277(2) 0.77339(18)
O19_15 O 0.58612(18) 0.7917(2) 0.80642(16)
O20_15 O 0.5422(2) 0.7551(2) 0.8155(2)
N7_15 N 0.6889(2) 0.7323(3) 0.9384(2)
N8_15 N 0.6618(2) 0.7918(2) 0.9209(2)
N9_15 N 0.7404(2) 0.7785(3) 0.9034(2)
N10_15 N 0.7251(2) 0.7241(3) 0.8633(2)
C7_16 C 0.0238(3) 0.1072(3) 0.3059(2)
C8_16 C 0.0726(3) 0.0998(3) 0.3405(3)
H4_16 H 0.084480 0.086276 0.356265
C9_16 C 0.0878(3) 0.1311(3) 0.3299(3)
H5_16 H 0.110389 0.137397 0.336359
C10_16 C 0.0676(3) 0.1521(3) 0.3095(3)
H6_16 H 0.076160 0.173906 0.303192
C11_16 C 0.0348(3) 0.1416(2) 0.2981(2)
C12_16 C 0.0114(3) 0.1682(3) 0.2826(2)
N2_16 N 0.0418(2) 0.0882(2) 0.3291(2)
O10_16 O 0.02000(19) 0.12355(19) 0.22718(17)
O12_16 O 0.02459(19) 0.19432(19) 0.2687(2)
C1_16 C 0.9899(3) 0.1198(3) 0.2343(2)
C2_16 C 0.9775(3) 0.0926(3) 0.2600(2)
C3_16 C 0.9499(3) 0.0716(3) 0.2505(3)
H1_16 H 0.938626 0.075420 0.230037
C4_16 C 0.9388(3) 0.0444(3) 0.2717(3)
H2_16 H 0.920477 0.029686 0.265504
C5_16 C 0.9559(3) 0.0403(3) 0.3023(3)
H3_16 H 0.948792 0.022481 0.316756
C6_16 C 0.9940(3) 0.0873(3) 0.2912(2)
C13_16 C 0.8303(3) 0.2399(4) 0.1106(3)
C14_15 C 0.8013(3) 0.2627(3) 0.0989(2)
C15_15 C 0.8070(3) 0.2841(3) 0.0706(3)
H7_15 H 0.829359 0.285747 0.061271
C16_15 C 0.7800(3) 0.3025(4) 0.0567(3)
H8_15 H 0.784030 0.317597 0.038661
C17_16 C 0.7463(3) 0.2985(3) 0.0697(3)
H9_16 H 0.727657 0.309954 0.059463
C18_15 C 0.7667(3) 0.2619(3) 0.1127(2)
C19_16 C 0.7554(3) 0.2413(3) 0.1432(2)
C20_16 C 0.7119(3) 0.2030(4) 0.1609(3)
H10_16 H 0.691753 0.190106 0.156408
C21_16 C 0.7277(3) 0.1999(4) 0.1924(3)
H11_16 H 0.718744 0.184486 0.208444
C22_16 C 0.7563(3) 0.2195(4) 0.1996(3)
H12_16 H 0.766475 0.218296 0.220842
C23_16 C 0.7705(3) 0.2417(3) 0.1750(3)
C24_15 C 0.8000(3) 0.2656(4) 0.1840(3)
C25_16 C 0.8678(3) 0.2417(3) 0.2700(2)
C26_16 C 0.8439(3) 0.2232(3) 0.2942(2)
C27_16 C 0.8200(3) 0.1998(4) 0.2806(3)
H13_16 H 0.821010 0.194117 0.257778
C28_16 C 0.7944(3) 0.1848(3) 0.3011(3)
H14_16 H 0.778309 0.168837 0.292507
C29_16 C 0.7939(3) 0.1945(3) 0.3347(3)
H15_16 H 0.776304 0.185525 0.348462
C30_16 C 0.8434(3) 0.2296(3) 0.3293(2)
C31_16 C 0.8690(3) 0.2516(3) 0.3488(2)
C32_16 C 0.8702(3) 0.2928(3) 0.3930(2)
H16_16 H 0.858207 0.305107 0.409616
C33_16 C 0.9049(3) 0.3001(3) 0.3873(3)
H17_16 H 0.916072 0.318030 0.399055
C34_16 C 0.9226(3) 0.2806(3) 0.3640(2)
H18_16 H 0.946631 0.283566 0.361481
C35_16 C 0.9049(3) 0.2558(3) 0.3438(2)
C36_16 C 0.9279(3) 0.2355(3) 0.3195(2)
N1_16 N 0.9823(3) 0.0611(2) 0.3116(2)
N3_16 N 0.7404(2) 0.2785(3) 0.0966(2)
N4_16 N 0.7251(2) 0.2241(3) 0.1367(2)
N5_16 N 0.8177(2) 0.2163(3) 0.3482(2)
N6_16 N 0.8531(2) 0.2682(2) 0.3749(2)
Ni1_16 Ni 0.80803(3) 0.24302(4) 0.39260(3)
U3_16 U 0.92972(2) 0.18150(2) 0.25539(2)
O1_16 O 0.8947(2) 0.2449(2) 0.1732(2)
O2_16 O 0.8341(2) 0.1774(3) 0.19669(18)
O3_16 O 0.96472(19) 0.18143(18) 0.15654(18)
O4_16 O 0.9085(3) 0.1085(2) 0.1718(2)
O5_16 O 0.95573(18) 0.21799(19) 0.24172(17)
O6_16 O 0.9036(2) 0.1460(2) 0.27081(18)
O7_16 O 0.9087(2) 0.1767(2) 0.20466(17)
O9_16 O 0.96375(19) 0.13786(19) 0.22141(16)
O11_16 O 0.97845(18) 0.16272(18) 0.28610(16)
O14_16 O 0.8277(2) 0.2244(3) 0.13897(18)
O15_15 O 0.7991(2) 0.2962(3) 0.1727(2)
O16_15 O 0.8237(2) 0.2543(3) 0.20355(18)
O17_16 O 0.87897(19) 0.2217(2) 0.24523(17)
O18_16 O 0.8750(2) 0.2723(2) 0.27339(18)
O19_16 O 0.91388(18) 0.2083(2) 0.30642(16)
O20_16 O 0.9578(2) 0.2449(2) 0.3155(2)
N7_16 N 0.8111(2) 0.2677(3) 0.4384(2)
N8_16 N 0.8382(2) 0.2082(2) 0.4209(2)
N9_16 N 0.7596(2) 0.2215(3) 0.4034(2)
N10_16 N 0.7749(2) 0.2759(3) 0.3633(2)
C1_17 C 0.3698(3) 0.2399(3) 0.4843(2)
C2_17 C 0.3426(3) 0.2275(3) 0.5100(2)
C3_17 C 0.3216(3) 0.1999(3) 0.5005(3)
H1_17 H 0.325420 0.188626 0.480037
C4_17 C 0.2944(3) 0.1888(3) 0.5217(3)
H2_17 H 0.279686 0.170477 0.515504
C5_17 C 0.2903(3) 0.2059(3) 0.5523(3)
H3_17 H 0.272481 0.198792 0.566756
C6_17 C 0.3373(3) 0.2440(3) 0.5412(2)
C7_17 C 0.3572(3) 0.2738(3) 0.5559(2)
C8_17 C 0.3498(3) 0.3226(3) 0.5905(3)
H4_17 H 0.336276 0.334480 0.606265
C9_17 C 0.3811(3) 0.3378(3) 0.5799(3)
H5_17 H 0.387397 0.360389 0.586359
C10_17 C 0.4021(3) 0.3176(3) 0.5595(3)
H6_17 H 0.423906 0.326160 0.553192
C11_17 C 0.3916(2) 0.2848(3) 0.5481(2)
C12_17 C 0.4182(3) 0.2614(3) 0.5326(2)
C13_17 C 0.4899(4) 0.0803(3) 0.3606(3)
C14_16 C 0.5127(3) 0.0513(3) 0.3489(2)
C15_16 C 0.5341(3) 0.0570(3) 0.3206(3)
H7_16 H 0.535747 0.079359 0.311271
C16_16 C 0.5525(4) 0.0300(3) 0.3067(3)
H8_16 H 0.567597 0.034030 0.288661
C18_16 C 0.5119(3) 0.0167(3) 0.3627(2)
C19_17 C 0.4913(3) 0.0054(3) 0.3932(2)
C22_17 C 0.4695(4) 0.0063(3) 0.4496(3)
H12_17 H 0.468296 0.016475 0.470842
C23_17 C 0.4917(3) 0.0205(3) 0.4250(3)
C24_16 C 0.5156(4) 0.0500(3) 0.4340(3)
C25_17 C 0.4917(3) 0.1178(3) 0.5200(2)
C26_17 C 0.4732(3) 0.0939(3) 0.5442(2)
C27_17 C 0.4498(4) 0.0700(3) 0.5306(3)
H13_17 H 0.444117 0.071010 0.507778
C28_17 C 0.4348(3) 0.0444(3) 0.5511(3)
H14_17 H 0.418837 0.028309 0.542507
C29_17 C 0.4445(3) 0.0439(3) 0.5847(3)
H15_17 H 0.435525 0.026304 0.598462
C30_17 C 0.4796(3) 0.0934(3) 0.5793(2)
C31_17 C 0.5016(3) 0.1190(3) 0.5988(2)
C32_17 C 0.5428(3) 0.1202(3) 0.6430(2)
H16_17 H 0.555107 0.108207 0.659616
C33_17 C 0.5501(3) 0.1549(3) 0.6373(3)
H17_17 H 0.568030 0.166072 0.649055
C34_17 C 0.5306(3) 0.1726(3) 0.6140(2)
H18_17 H 0.533566 0.196631 0.611481
C35_17 C 0.5058(3) 0.1549(3) 0.5938(2)
C36_17 C 0.4855(3) 0.1779(3) 0.5695(2)
N5_17 N 0.4663(3) 0.0677(2) 0.5982(2)
N6_17 N 0.5182(2) 0.1031(2) 0.6249(2)
U1_9 U 0.46012(2) 0.11548(2) 0.43503(2)
U2_9 U 0.39571(2) 0.18529(2) 0.41350(2)
U3_17 U 0.43150(2) 0.17972(2) 0.50539(2)
O1_17 O 0.4949(2) 0.1447(2) 0.4232(2)
O2_17 O 0.4274(3) 0.0841(2) 0.44669(18)
O3_17 O 0.43143(18) 0.21472(19) 0.40654(18)
O4_17 O 0.3585(2) 0.1585(3) 0.4218(2)
O5_17 O 0.46799(19) 0.20573(18) 0.49172(17)
O6_17 O 0.3960(2) 0.1536(2) 0.52081(18)
O7_17 O 0.4267(2) 0.1587(2) 0.45466(17)
O8_9 O 0.3878(2) 0.1785(2) 0.35760(19)
O9_17 O 0.38786(19) 0.21375(19) 0.47141(16)
O10_17 O 0.37355(19) 0.27000(19) 0.47718(17)
O11_17 O 0.41272(18) 0.22845(18) 0.53610(16)
O12_17 O 0.44432(19) 0.27459(19) 0.5187(2)
O13_9 O 0.4859(3) 0.1060(2) 0.3414(2)
O14_17 O 0.4744(3) 0.0777(2) 0.38897(18)
O15_16 O 0.5462(3) 0.0491(2) 0.4227(2)
O16_16 O 0.5043(3) 0.0737(2) 0.45355(18)
O17_17 O 0.4717(2) 0.12897(19) 0.49523(17)
O18_17 O 0.5223(2) 0.1250(2) 0.52339(18)
O19_17 O 0.4583(2) 0.16388(18) 0.55642(16)
O20_17 O 0.4949(2) 0.2078(2) 0.5655(2)
U4_9 U 0.36548(2) 0.21012(2) 0.31497(2)
U5_9 U 0.43529(2) 0.14571(2) 0.33650(2)
O21_9 O 0.4285(2) 0.1378(2) 0.39240(19)
O22_9 O 0.3560(2) 0.2359(3) 0.4086(2)
C17_17 C 0.5485(3) 0.9963(3) 0.3197(3)
H9_17 H 0.559954 0.977657 0.309463
C20_17 C 0.4530(4) 0.9619(3) 0.4109(3)
H10_17 H 0.440106 0.941753 0.406408
C21_17 C 0.4499(4) 0.9777(3) 0.4424(3)
H11_17 H 0.434486 0.968744 0.458444
C20_18 C 0.0470(4) 0.0381(3) 0.9109(3)
H10_18 H 0.059894 0.058247 0.906408
C21_18 C 0.0501(4) 0.0223(3) 0.9424(3)
H11_18 H 0.065514 0.031256 0.958444
C2_18 C 0.1574(3) 0.7725(3) 0.0100(2)
C3_18 C 0.1784(3) 0.8001(3) 0.0005(3)
C4_18 C 0.2056(3) 0.8112(3) 0.0217(3)
H2_18 H 0.220314 0.829523 0.015504
C5_18 C 0.2097(3) 0.7941(3) 0.0523(3)
H3_18 H 0.227519 0.801208 0.066756
C6_18 C 0.1627(3) 0.7560(3) 0.0412(2)
C7_18 C 0.1428(3) 0.7262(3) 0.0559(2)
C8_18 C 0.1502(3) 0.6774(3) 0.0905(3)
H4_18 H 0.163724 0.665520 0.106265
C9_18 C 0.1189(3) 0.6622(3) 0.0799(3)
H5_18 H 0.112603 0.639611 0.086359
C10_18 C 0.0979(3) 0.6824(3) 0.0595(3)
H6_18 H 0.076094 0.673840 0.053192
C11_18 C 0.1084(2) 0.7152(3) 0.0481(2)
C12_18 C 0.0818(3) 0.7386(3) 0.0326(2)
C25_18 C 0.0083(3) 0.8822(3) 0.0200(2)
C26_18 C 0.0268(3) 0.9061(3) 0.0442(2)
C27_18 C 0.0502(4) 0.9300(3) 0.0306(3)
H13_18 H 0.055883 0.928990 0.007778
C28_18 C 0.0652(3) 0.9556(3) 0.0511(3)
H14_18 H 0.081163 0.971691 0.042507
C29_18 C 0.0555(3) 0.9561(3) 0.0847(3)
H15_18 H 0.064475 0.973696 0.098462
C30_18 C 0.0204(3) 0.9066(3) 0.0793(2)
C36_18 C 0.0145(3) 0.8221(3) 0.0695(2)
N5_18 N 0.0337(3) 0.9323(2) 0.0982(2)
U3_18 U 0.06850(2) 0.82028(2) 0.00539(2)
O6_18 O 0.1040(2) 0.8464(2) 0.02081(18)
O11_18 O 0.08728(18) 0.77155(18) 0.03610(16)
O12_18 O 0.05568(19) 0.72541(19) 0.0187(2)
O19_18 O 0.0417(2) 0.83612(18) 0.05642(16)
O20_18 O 0.0051(2) 0.7922(2) 0.0655(2)
C1_18 C 0.1302(3) 0.7601(3) 0.9843(2)
H1_18 H 0.174580 0.811374 0.980037
C13_18 C 0.0101(4) 0.9197(3) 0.8606(3)
C19_18 C 0.0087(3) 0.9946(3) 0.8932(2)
C22_18 C 0.0305(4) 0.9937(3) 0.9496(3)
H12_18 H 0.031704 0.983525 0.970842
C23_18 C 0.0083(3) 0.9795(3) 0.9250(3)
U1_10 U 0.03988(2) 0.88452(2) 0.93503(2)
U2_10 U 0.10429(2) 0.81471(2) 0.91350(2)
O1_18 O 0.0051(2) 0.8553(2) 0.9232(2)
O2_18 O 0.0726(3) 0.9159(2) 0.94669(18)
O3_18 O 0.06857(18) 0.78528(19) 0.90654(18)
O4_18 O 0.1415(2) 0.8415(3) 0.9218(2)
O5_18 O 0.03201(19) 0.79427(18) 0.99172(17)
O7_18 O 0.0733(2) 0.8413(2) 0.95466(17)
O8_10 O 0.1122(2) 0.8215(2) 0.85760(19)
O9_18 O 0.11214(19) 0.78625(19) 0.97141(16)
O10_18 O 0.12645(19) 0.73000(19) 0.97718(17)
O13_10 O 0.0141(3) 0.8940(2) 0.8414(2)
O14_18 O 0.0256(3) 0.9223(2) 0.88897(18)
O17_18 O 0.0283(2) 0.87103(19) 0.99523(17)
U4_10 U 0.13452(2) 0.78988(2) 0.81497(2)
U5_10 U 0.06471(2) 0.85429(2) 0.83650(2)
O21_10 O 0.0715(2) 0.8622(2) 0.89240(19)
O22_10 O 0.1440(2) 0.7641(3) 0.9086(2)
C17_18 C 0.9515(3) 0.0037(3) 0.8197(3)
H9_18 H 0.940046 0.022343 0.809463
C31_18 C 0.9984(3) 0.8810(3) 0.0988(2)
C32_18 C 0.9572(3) 0.8798(3) 0.1430(2)
H16_18 H 0.944893 0.891793 0.159616
C33_18 C 0.9499(3) 0.8451(3) 0.1373(3)
H17_18 H 0.931970 0.833928 0.149055
C34_18 C 0.9694(3) 0.8274(3) 0.1140(2)
H18_18 H 0.966434 0.803369 0.111481
C35_18 C 0.9942(3) 0.8451(3) 0.0938(2)
N6_18 N 0.9818(2) 0.8969(2) 0.1249(2)
O18_18 O 0.9777(2) 0.8750(2) 0.02339(18)
C1_19 C 0.5101(3) 0.6198(3) 0.2343(2)
C2_19 C 0.5225(3) 0.5926(3) 0.2600(2)
C3_19 C 0.5501(3) 0.5716(3) 0.2505(3)
H1_19 H 0.561374 0.575420 0.230037
C4_19 C 0.5612(3) 0.5444(3) 0.2717(3)
H2_19 H 0.579523 0.529686 0.265504
C5_19 C 0.5441(3) 0.5403(3) 0.3023(3)
H3_19 H 0.551208 0.522481 0.316756
C6_19 C 0.5060(3) 0.5873(3) 0.2912(2)
C7_19 C 0.4762(3) 0.6072(3) 0.3059(2)
C8_19 C 0.4274(3) 0.5998(3) 0.3405(3)
H4_19 H 0.415520 0.586276 0.356265
C9_19 C 0.4122(3) 0.6311(3) 0.3299(3)
H5_19 H 0.389611 0.637397 0.336359
C10_19 C 0.4324(3) 0.6521(3) 0.3095(3)
H6_19 H 0.423840 0.673906 0.303192
C11_19 C 0.4652(3) 0.6416(2) 0.2981(2)
C12_19 C 0.4886(3) 0.6682(3) 0.2826(2)
C13_19 C 0.6697(3) 0.7399(4) 0.1106(3)
C14_17 C 0.6987(3) 0.7627(3) 0.0989(2)
C15_17 C 0.6930(3) 0.7841(3) 0.0706(3)
H7_17 H 0.670641 0.785747 0.061271
C16_17 C 0.7200(3) 0.8025(4) 0.0567(3)
H8_17 H 0.715970 0.817597 0.038661
C17_19 C 0.7537(3) 0.7985(3) 0.0697(3)
H9_19 H 0.772343 0.809954 0.059463
C18_17 C 0.7333(3) 0.7619(3) 0.1127(2)
C19_19 C 0.7446(3) 0.7413(3) 0.1432(2)
C20_19 C 0.7881(3) 0.7030(4) 0.1609(3)
H10_19 H 0.808247 0.690106 0.156408
C21_19 C 0.7723(3) 0.6999(4) 0.1924(3)
H11_19 H 0.781256 0.684486 0.208444
C22_19 C 0.7437(3) 0.7195(4) 0.1996(3)
H12_19 H 0.733525 0.718296 0.220842
C23_19 C 0.7295(3) 0.7417(3) 0.1750(3)
C24_17 C 0.7000(3) 0.7656(4) 0.1840(3)
C25_19 C 0.6322(3) 0.7417(3) 0.2700(2)
C26_19 C 0.6561(3) 0.7232(3) 0.2942(2)
C27_19 C 0.6800(3) 0.6998(4) 0.2806(3)
H13_19 H 0.678990 0.694117 0.257778
C28_19 C 0.7056(3) 0.6848(3) 0.3011(3)
H14_19 H 0.721691 0.668837 0.292507
C29_19 C 0.7061(3) 0.6945(3) 0.3347(3)
H15_19 H 0.723696 0.685525 0.348462
C30_19 C 0.6566(3) 0.7296(3) 0.3293(2)
C31_19 C 0.6310(3) 0.7516(3) 0.3488(2)
C32_19 C 0.6298(3) 0.7928(3) 0.3930(2)
H16_19 H 0.641793 0.805107 0.409616
C33_19 C 0.5951(3) 0.8001(3) 0.3873(3)
H17_19 H 0.583928 0.818030 0.399055
C34_19 C 0.5774(3) 0.7806(3) 0.3640(2)
H18_19 H 0.553369 0.783566 0.361481
C35_19 C 0.5951(3) 0.7558(3) 0.3438(2)
C36_19 C 0.5721(3) 0.7355(3) 0.3195(2)
N5_19 N 0.6823(2) 0.7163(3) 0.3482(2)
N6_19 N 0.6469(2) 0.7682(2) 0.3749(2)
U1_11 U 0.63452(2) 0.71012(2) 0.18503(2)
U2_11 U 0.56471(2) 0.64571(2) 0.16350(2)
U3_19 U 0.57028(2) 0.68150(2) 0.25539(2)
O1_19 O 0.6053(2) 0.7449(2) 0.1732(2)
O2_19 O 0.6659(2) 0.6774(3) 0.19669(18)
O3_19 O 0.53528(19) 0.68143(18) 0.15654(18)
O4_19 O 0.5915(3) 0.6085(2) 0.1718(2)
O5_19 O 0.54427(18) 0.71799(19) 0.24172(17)
O6_19 O 0.5964(2) 0.6460(2) 0.27081(18)
O7_19 O 0.5913(2) 0.6767(2) 0.20466(17)
O8_11 O 0.5715(2) 0.6378(2) 0.10760(19)
O9_19 O 0.53625(19) 0.63786(19) 0.22141(16)
O10_19 O 0.48000(19) 0.62355(19) 0.22718(17)
O11_19 O 0.52155(18) 0.66272(18) 0.28610(16)
O12_19 O 0.47541(19) 0.69432(19) 0.2687(2)
O13_11 O 0.6440(2) 0.7359(3) 0.0914(2)
O14_19 O 0.6723(2) 0.7244(3) 0.13897(18)
O15_17 O 0.7009(2) 0.7962(3) 0.1727(2)
O16_17 O 0.6763(2) 0.7543(3) 0.20355(18)
O17_19 O 0.62103(19) 0.7217(2) 0.24523(17)
O18_19 O 0.6250(2) 0.7723(2) 0.27339(18)
O19_19 O 0.58612(18) 0.7083(2) 0.30642(16)
O20_19 O 0.5422(2) 0.7449(2) 0.3155(2)
U4_11 U 0.53988(2) 0.61548(2) 0.06497(2)
U5_11 U 0.60429(2) 0.68529(2) 0.08650(2)
O21_11 O 0.6122(2) 0.6785(2) 0.14240(19)
O22_11 O 0.5141(3) 0.6060(2) 0.1586(2)
C7_20 C 0.0238(3) 0.3928(3) 0.8059(2)
C8_20 C 0.0726(3) 0.4002(3) 0.8405(3)
H4_20 H 0.084480 0.413724 0.856265
C9_20 C 0.0878(3) 0.3689(3) 0.8299(3)
H5_20 H 0.110389 0.362603 0.836359
C10_20 C 0.0676(3) 0.3479(3) 0.8095(3)
H6_20 H 0.076160 0.326094 0.803192
C11_20 C 0.0348(3) 0.3584(2) 0.7981(2)
C12_20 C 0.0114(3) 0.3318(3) 0.7826(2)
O10_20 O 0.02000(19) 0.37645(19) 0.72718(17)
O12_20 O 0.02459(19) 0.30568(19) 0.7687(2)
C1_20 C 0.9899(3) 0.3802(3) 0.7343(2)
C2_20 C 0.9775(3) 0.4074(3) 0.7600(2)
C3_20 C 0.9499(3) 0.4284(3) 0.7505(3)
H1_20 H 0.938626 0.424580 0.730037
C4_20 C 0.9388(3) 0.4556(3) 0.7717(3)
H2_20 H 0.920477 0.470314 0.765504
C5_20 C 0.9559(3) 0.4597(3) 0.8023(3)
H3_20 H 0.948792 0.477519 0.816756
C6_20 C 0.9940(3) 0.4127(3) 0.7912(2)
C13_20 C 0.8303(3) 0.2601(4) 0.6106(3)
C14_18 C 0.8013(3) 0.2373(3) 0.5989(2)
C15_18 C 0.8070(3) 0.2159(3) 0.5706(3)
H7_18 H 0.829359 0.214253 0.561271
C16_18 C 0.7800(3) 0.1975(4) 0.5567(3)
H8_18 H 0.784030 0.182403 0.538661
C17_20 C 0.7463(3) 0.2015(3) 0.5697(3)
H9_20 H 0.727657 0.190046 0.559463
C18_18 C 0.7667(3) 0.2381(3) 0.6127(2)
C19_20 C 0.7554(3) 0.2587(3) 0.6432(2)
C20_20 C 0.7119(3) 0.2970(4) 0.6609(3)
H10_20 H 0.691753 0.309894 0.656408
C21_20 C 0.7277(3) 0.3001(4) 0.6924(3)
H11_20 H 0.718744 0.315514 0.708444
C22_20 C 0.7563(3) 0.2805(4) 0.6996(3)
H12_20 H 0.766475 0.281704 0.720842
C23_20 C 0.7705(3) 0.2583(3) 0.6750(3)
C24_18 C 0.8000(3) 0.2344(4) 0.6840(3)
C25_20 C 0.8678(3) 0.2583(3) 0.7700(2)
C26_20 C 0.8439(3) 0.2768(3) 0.7942(2)
C27_20 C 0.8200(3) 0.3002(4) 0.7806(3)
H13_20 H 0.821010 0.305883 0.757778
C28_20 C 0.7944(3) 0.3152(3) 0.8011(3)
H14_20 H 0.778309 0.331163 0.792507
C29_20 C 0.7939(3) 0.3055(3) 0.8347(3)
H15_20 H 0.776304 0.314475 0.848462
C30_20 C 0.8434(3) 0.2704(3) 0.8293(2)
C31_20 C 0.8690(3) 0.2484(3) 0.8488(2)
C32_20 C 0.8702(3) 0.2072(3) 0.8930(2)
H16_20 H 0.858207 0.194893 0.909616
C33_20 C 0.9049(3) 0.1999(3) 0.8873(3)
H17_20 H 0.916072 0.181970 0.899055
C34_20 C 0.9226(3) 0.2194(3) 0.8640(2)
H18_20 H 0.946631 0.216434 0.861481
C35_20 C 0.9049(3) 0.2442(3) 0.8438(2)
C36_20 C 0.9279(3) 0.2645(3) 0.8195(2)
N5_20 N 0.8177(2) 0.2837(3) 0.8482(2)
N6_20 N 0.8531(2) 0.2318(2) 0.8749(2)
U1_12 U 0.86548(2) 0.28988(2) 0.68503(2)
U2_12 U 0.93529(2) 0.35429(2) 0.66350(2)
U3_20 U 0.92972(2) 0.31850(2) 0.75539(2)
O1_20 O 0.8947(2) 0.2551(2) 0.6732(2)
O2_20 O 0.8341(2) 0.3226(3) 0.69669(18)
O3_20 O 0.96472(19) 0.31857(18) 0.65654(18)
O4_20 O 0.9085(3) 0.3915(2) 0.6718(2)
O5_20 O 0.95573(18) 0.28201(19) 0.74172(17)
O6_20 O 0.9036(2) 0.3540(2) 0.77081(18)
O7_20 O 0.9087(2) 0.3233(2) 0.70466(17)
O8_12 O 0.9285(2) 0.3622(2) 0.60760(19)
O9_20 O 0.96375(19) 0.36214(19) 0.72141(16)
O11_20 O 0.97845(18) 0.33728(18) 0.78610(16)
O13_12 O 0.8560(2) 0.2641(3) 0.5914(2)
O14_20 O 0.8277(2) 0.2756(3) 0.63897(18)
O15_18 O 0.7991(2) 0.2038(3) 0.6727(2)
O16_18 O 0.8237(2) 0.2457(3) 0.70355(18)
O17_20 O 0.87897(19) 0.2783(2) 0.74523(17)
O18_20 O 0.8750(2) 0.2277(2) 0.77339(18)
O19_20 O 0.91388(18) 0.2917(2) 0.80642(16)
O20_20 O 0.9578(2) 0.2551(2) 0.8155(2)
U4_12 U 0.96012(2) 0.38452(2) 0.56497(2)
U5_12 U 0.89571(2) 0.31471(2) 0.58650(2)
O21_12 O 0.8878(2) 0.3215(2) 0.64240(19)
O22_12 O 0.9859(3) 0.3940(2) 0.6586(2)
C1_21 C 0.1302(3) 0.2399(3) 0.5157(2)
C2_21 C 0.1574(3) 0.2275(3) 0.4900(2)
C3_21 C 0.1784(3) 0.1999(3) 0.4995(3)
H1_21 H 0.174580 0.188626 0.519963
C4_21 C 0.2056(3) 0.1888(3) 0.4783(3)
H2_21 H 0.220314 0.170477 0.484496
C5_21 C 0.2097(3) 0.2059(3) 0.4477(3)
H3_21 H 0.227519 0.198792 0.433244
C6_21 C 0.1627(3) 0.2440(3) 0.4588(2)
C7_21 C 0.1428(3) 0.2738(3) 0.4441(2)
C8_21 C 0.1502(3) 0.3226(3) 0.4095(3)
H4_21 H 0.163724 0.334480 0.393735
C9_21 C 0.1189(3) 0.3378(3) 0.4201(3)
H5_21 H 0.112603 0.360389 0.413641
C10_21 C 0.0979(3) 0.3176(3) 0.4405(3)
H6_21 H 0.076094 0.326160 0.446808
C11_21 C 0.1084(2) 0.2848(3) 0.4519(2)
C12_21 C 0.0818(3) 0.2614(3) 0.4674(2)
C13_21 C 0.0101(4) 0.0803(3) 0.6394(3)
C19_21 C 0.0087(3) 0.0054(3) 0.6068(2)
C22_21 C 0.0305(4) 0.0063(3) 0.5504(3)
H12_21 H 0.031704 0.016475 0.529158
C23_21 C 0.0083(3) 0.0205(3) 0.5750(3)
C25_21 C 0.0083(3) 0.1178(3) 0.4800(2)
C26_21 C 0.0268(3) 0.0939(3) 0.4558(2)
C27_21 C 0.0502(4) 0.0700(3) 0.4694(3)
H13_21 H 0.055883 0.071010 0.492222
C28_21 C 0.0652(3) 0.0444(3) 0.4489(3)
H14_21 H 0.081163 0.028309 0.457493
C29_21 C 0.0555(3) 0.0439(3) 0.4153(3)
H15_21 H 0.064475 0.026304 0.401538
C30_21 C 0.0204(3) 0.0934(3) 0.4207(2)
C36_21 C 0.0145(3) 0.1779(3) 0.4305(2)
N5_21 N 0.0337(3) 0.0677(2) 0.4018(2)
U1_13 U 0.03988(2) 0.11548(2) 0.56497(2)
U2_13 U 0.10429(2) 0.18529(2) 0.58650(2)
U3_21 U 0.06850(2) 0.17972(2) 0.49461(2)
O1_21 O 0.0051(2) 0.1447(2) 0.5768(2)
O2_21 O 0.0726(3) 0.0841(2) 0.55331(18)
O3_21 O 0.06857(18) 0.21472(19) 0.59346(18)
O4_21 O 0.1415(2) 0.1585(3) 0.5782(2)
O5_21 O 0.03201(19) 0.20573(18) 0.50828(17)
O6_21 O 0.1040(2) 0.1536(2) 0.47919(18)
O7_21 O 0.0733(2) 0.1587(2) 0.54534(17)
O8_13 O 0.1122(2) 0.1785(2) 0.64240(19)
O9_21 O 0.11214(19) 0.21375(19) 0.52859(16)
O10_21 O 0.12645(19) 0.27000(19) 0.52282(17)
O11_21 O 0.08728(18) 0.22845(18) 0.46390(16)
O12_21 O 0.05568(19) 0.27459(19) 0.4813(2)
O13_13 O 0.0141(3) 0.1060(2) 0.6586(2)
O14_21 O 0.0256(3) 0.0777(2) 0.61103(18)
O17_21 O 0.0283(2) 0.12897(19) 0.50477(17)
O19_21 O 0.0417(2) 0.16388(18) 0.44358(16)
O20_21 O 0.0051(2) 0.2078(2) 0.4345(2)
U4_13 U 0.13452(2) 0.21012(2) 0.68503(2)
U5_13 U 0.06471(2) 0.14571(2) 0.66350(2)
O21_13 O 0.0715(2) 0.1378(2) 0.60760(19)
O22_13 O 0.1440(2) 0.2359(3) 0.5914(2)
C20_21 C 0.0470(4) 0.9619(3) 0.5891(3)
H10_21 H 0.059894 0.941753 0.593592
C21_21 C 0.0501(4) 0.9777(3) 0.5576(3)
H11_21 H 0.065514 0.968744 0.541556
C14_19 C 0.9873(3) 0.0513(3) 0.6511(2)
C15_19 C 0.9659(3) 0.0570(3) 0.6794(3)
H7_19 H 0.964253 0.079359 0.688729
C16_19 C 0.9475(4) 0.0300(3) 0.6933(3)
H8_19 H 0.932403 0.034030 0.711339
C18_19 C 0.9881(3) 0.0167(3) 0.6373(2)
C24_19 C 0.9844(4) 0.0500(3) 0.5660(3)
C31_21 C 0.9984(3) 0.1190(3) 0.4012(2)
C32_21 C 0.9572(3) 0.1202(3) 0.3570(2)
H16_21 H 0.944893 0.108207 0.340384
C33_21 C 0.9499(3) 0.1549(3) 0.3627(3)
H17_21 H 0.931970 0.166072 0.350945
C34_21 C 0.9694(3) 0.1726(3) 0.3860(2)
H18_21 H 0.966434 0.196631 0.388519
C35_21 C 0.9942(3) 0.1549(3) 0.4062(2)
N6_21 N 0.9818(2) 0.1031(2) 0.3751(2)
O15_19 O 0.9538(3) 0.0491(2) 0.5773(2)
O16_19 O 0.9957(3) 0.0737(2) 0.54645(18)
O18_21 O 0.9777(2) 0.1250(2) 0.47661(18)
C17_21 C 0.9515(3) 0.9963(3) 0.6803(3)
H9_21 H 0.940046 0.977657 0.690537
C17_22 C 0.5485(3) 0.0037(3) 0.1803(3)
H9_22 H 0.559954 0.022343 0.190537
C20_22 C 0.4530(4) 0.0381(3) 0.0891(3)
H10_22 H 0.440106 0.058247 0.093592
C21_22 C 0.4499(4) 0.0223(3) 0.0576(3)
H11_22 H 0.434486 0.031256 0.041556
C1_22 C 0.3698(3) 0.7601(3) 0.0157(2)
H1_22 H 0.325420 0.811374 0.019963
C13_22 C 0.4899(4) 0.9197(3) 0.1394(3)
C14_20 C 0.5127(3) 0.9487(3) 0.1511(2)
C15_20 C 0.5341(3) 0.9430(3) 0.1794(3)
H7_20 H 0.535747 0.920641 0.188729
C16_20 C 0.5525(4) 0.9700(3) 0.1933(3)
H8_20 H 0.567597 0.965970 0.211339
C18_20 C 0.5119(3) 0.9833(3) 0.1373(2)
C19_22 C 0.4913(3) 0.9946(3) 0.1068(2)
C22_22 C 0.4695(4) 0.9937(3) 0.0504(3)
H12_22 H 0.468296 0.983525 0.029158
C23_22 C 0.4917(3) 0.9795(3) 0.0750(3)
C24_20 C 0.5156(4) 0.9500(3) 0.0660(3)
U1_14 U 0.46012(2) 0.88452(2) 0.06497(2)
U2_14 U 0.39571(2) 0.81471(2) 0.08650(2)
O1_22 O 0.4949(2) 0.8553(2) 0.0768(2)
O2_22 O 0.4274(3) 0.9159(2) 0.05331(18)
O3_22 O 0.43143(18) 0.78528(19) 0.09346(18)
O4_22 O 0.3585(2) 0.8415(3) 0.0782(2)
O5_22 O 0.46799(19) 0.79427(18) 0.00828(17)
O7_22 O 0.4267(2) 0.8413(2) 0.04534(17)
O8_14 O 0.3878(2) 0.8215(2) 0.14240(19)
O9_22 O 0.38786(19) 0.78625(19) 0.02859(16)
O10_22 O 0.37355(19) 0.73000(19) 0.02282(17)
O13_14 O 0.4859(3) 0.8940(2) 0.1586(2)
O14_22 O 0.4744(3) 0.9223(2) 0.11103(18)
O15_20 O 0.5462(3) 0.9509(2) 0.0773(2)
O16_20 O 0.5043(3) 0.9263(2) 0.04645(18)
O17_22 O 0.4717(2) 0.87103(19) 0.00477(17)
U4_14 U 0.36548(2) 0.78988(2) 0.18503(2)
U5_14 U 0.43529(2) 0.85429(2) 0.16350(2)
O21_14 O 0.4285(2) 0.8622(2) 0.10760(19)
O22_14 O 0.3560(2) 0.7641(3) 0.0914(2)
C2_22 C 0.3426(3) 0.7725(3) 0.9900(2)
C3_22 C 0.3216(3) 0.8001(3) 0.9995(3)
C4_22 C 0.2944(3) 0.8112(3) 0.9783(3)
H2_22 H 0.279686 0.829523 0.984496
C5_22 C 0.2903(3) 0.7941(3) 0.9477(3)
H3_22 H 0.272481 0.801208 0.933244
C6_22 C 0.3373(3) 0.7560(3) 0.9588(2)
C7_22 C 0.3572(3) 0.7262(3) 0.9441(2)
C8_22 C 0.3498(3) 0.6774(3) 0.9095(3)
H4_22 H 0.336276 0.665520 0.893735
C9_22 C 0.3811(3) 0.6622(3) 0.9201(3)
H5_22 H 0.387397 0.639611 0.913641
C10_22 C 0.4021(3) 0.6824(3) 0.9405(3)
H6_22 H 0.423906 0.673840 0.946808
C11_22 C 0.3916(2) 0.7152(3) 0.9519(2)
C12_22 C 0.4182(3) 0.7386(3) 0.9674(2)
C25_22 C 0.4917(3) 0.8822(3) 0.9800(2)
C26_22 C 0.4732(3) 0.9061(3) 0.9558(2)
C27_22 C 0.4498(4) 0.9300(3) 0.9694(3)
H13_22 H 0.444117 0.928990 0.992222
C28_22 C 0.4348(3) 0.9556(3) 0.9489(3)
H14_22 H 0.418837 0.971691 0.957493
C29_22 C 0.4445(3) 0.9561(3) 0.9153(3)
H15_22 H 0.435525 0.973696 0.901538
C30_22 C 0.4796(3) 0.9066(3) 0.9207(2)
C31_22 C 0.5016(3) 0.8810(3) 0.9012(2)
C32_22 C 0.5428(3) 0.8798(3) 0.8570(2)
H16_22 H 0.555107 0.891793 0.840384
C33_22 C 0.5501(3) 0.8451(3) 0.8627(3)
H17_22 H 0.568030 0.833928 0.850945
C34_22 C 0.5306(3) 0.8274(3) 0.8860(2)
H18_22 H 0.533566 0.803369 0.888519
C35_22 C 0.5058(3) 0.8451(3) 0.9062(2)
C36_22 C 0.4855(3) 0.8221(3) 0.9305(2)
N5_22 N 0.4663(3) 0.9323(2) 0.9018(2)
N6_22 N 0.5182(2) 0.8969(2) 0.8751(2)
U3_22 U 0.43150(2) 0.82028(2) 0.99461(2)
O6_22 O 0.3960(2) 0.8464(2) 0.97919(18)
O11_22 O 0.41272(18) 0.77155(18) 0.96390(16)
O12_22 O 0.44432(19) 0.72541(19) 0.9813(2)
O18_22 O 0.5223(2) 0.8750(2) 0.97661(18)
O19_22 O 0.4583(2) 0.83612(18) 0.94358(16)
O20_22 O 0.4949(2) 0.7922(2) 0.9345(2)
C7_23 C 0.0238(3) 0.6072(3) 0.6941(2)
C8_23 C 0.0726(3) 0.5998(3) 0.6595(3)
H4_23 H 0.084480 0.586276 0.643735
C9_23 C 0.0878(3) 0.6311(3) 0.6701(3)
H5_23 H 0.110389 0.637397 0.663641
C10_23 C 0.0676(3) 0.6521(3) 0.6905(3)
H6_23 H 0.076160 0.673906 0.696808
C11_23 C 0.0348(3) 0.6416(2) 0.7019(2)
C12_23 C 0.0114(3) 0.6682(3) 0.7174(2)
O10_23 O 0.02000(19) 0.62355(19) 0.77282(17)
O12_23 O 0.02459(19) 0.69432(19) 0.7313(2)
C1_23 C 0.9899(3) 0.6198(3) 0.7657(2)
C2_23 C 0.9775(3) 0.5926(3) 0.7400(2)
C3_23 C 0.9499(3) 0.5716(3) 0.7495(3)
H1_23 H 0.938626 0.575420 0.769963
C4_23 C 0.9388(3) 0.5444(3) 0.7283(3)
H2_23 H 0.920477 0.529686 0.734496
C5_23 C 0.9559(3) 0.5403(3) 0.6977(3)
H3_23 H 0.948792 0.522481 0.683244
C6_23 C 0.9940(3) 0.5873(3) 0.7088(2)
C13_23 C 0.8303(3) 0.7399(4) 0.8894(3)
C14_21 C 0.8013(3) 0.7627(3) 0.9011(2)
C15_21 C 0.8070(3) 0.7841(3) 0.9294(3)
H7_21 H 0.829359 0.785747 0.938729
C16_21 C 0.7800(3) 0.8025(4) 0.9433(3)
H8_21 H 0.784030 0.817597 0.961339
C17_23 C 0.7463(3) 0.7985(3) 0.9303(3)
H9_23 H 0.727657 0.809954 0.940537
C18_21 C 0.7667(3) 0.7619(3) 0.8873(2)
C19_23 C 0.7554(3) 0.7413(3) 0.8568(2)
C20_23 C 0.7119(3) 0.7030(4) 0.8391(3)
H10_23 H 0.691753 0.690106 0.843592
C21_23 C 0.7277(3) 0.6999(4) 0.8076(3)
H11_23 H 0.718744 0.684486 0.791556
C22_23 C 0.7563(3) 0.7195(4) 0.8004(3)
H12_23 H 0.766475 0.718296 0.779158
C23_23 C 0.7705(3) 0.7417(3) 0.8250(3)
C24_21 C 0.8000(3) 0.7656(4) 0.8160(3)
C25_23 C 0.8678(3) 0.7417(3) 0.7300(2)
C26_23 C 0.8439(3) 0.7232(3) 0.7058(2)
C27_23 C 0.8200(3) 0.6998(4) 0.7194(3)
H13_23 H 0.821010 0.694117 0.742222
C28_23 C 0.7944(3) 0.6848(3) 0.6989(3)
H14_23 H 0.778309 0.668837 0.707493
C29_23 C 0.7939(3) 0.6945(3) 0.6653(3)
H15_23 H 0.776304 0.685525 0.651538
C30_23 C 0.8434(3) 0.7296(3) 0.6707(2)
C31_23 C 0.8690(3) 0.7516(3) 0.6512(2)
C32_23 C 0.8702(3) 0.7928(3) 0.6070(2)
H16_23 H 0.858207 0.805107 0.590384
C33_23 C 0.9049(3) 0.8001(3) 0.6127(3)
H17_23 H 0.916072 0.818030 0.600945
C34_23 C 0.9226(3) 0.7806(3) 0.6360(2)
H18_23 H 0.946631 0.783566 0.638519
C35_23 C 0.9049(3) 0.7558(3) 0.6562(2)
C36_23 C 0.9279(3) 0.7355(3) 0.6805(2)
N5_23 N 0.8177(2) 0.7163(3) 0.6518(2)
N6_23 N 0.8531(2) 0.7682(2) 0.6251(2)
U1_15 U 0.86548(2) 0.71012(2) 0.81497(2)
U2_15 U 0.93529(2) 0.64571(2) 0.83650(2)
U3_23 U 0.92972(2) 0.68150(2) 0.74461(2)
O1_23 O 0.8947(2) 0.7449(2) 0.8268(2)
O2_23 O 0.8341(2) 0.6774(3) 0.80331(18)
O3_23 O 0.96472(19) 0.68143(18) 0.84346(18)
O4_23 O 0.9085(3) 0.6085(2) 0.8282(2)
O5_23 O 0.95573(18) 0.71799(19) 0.75828(17)
O6_23 O 0.9036(2) 0.6460(2) 0.72919(18)
O7_23 O 0.9087(2) 0.6767(2) 0.79534(17)
O8_15 O 0.9285(2) 0.6378(2) 0.89240(19)
O9_23 O 0.96375(19) 0.63786(19) 0.77859(16)
O11_23 O 0.97845(18) 0.66272(18) 0.71390(16)
O13_15 O 0.8560(2) 0.7359(3) 0.9086(2)
O14_23 O 0.8277(2) 0.7244(3) 0.86103(18)
O15_21 O 0.7991(2) 0.7962(3) 0.8273(2)
O16_21 O 0.8237(2) 0.7543(3) 0.79645(18)
O17_23 O 0.87897(19) 0.7217(2) 0.75477(17)
O18_23 O 0.8750(2) 0.7723(2) 0.72661(18)
O19_23 O 0.91388(18) 0.7083(2) 0.69358(16)
O20_23 O 0.9578(2) 0.7449(2) 0.6845(2)
U4_15 U 0.96012(2) 0.61548(2) 0.93503(2)
U5_15 U 0.89571(2) 0.68529(2) 0.91350(2)
O21_15 O 0.8878(2) 0.6785(2) 0.85760(19)
O22_15 O 0.9859(3) 0.6060(2) 0.8414(2)
C1_24 C 0.5101(3) 0.3802(3) 0.2657(2)
C2_24 C 0.5225(3) 0.4074(3) 0.2400(2)
C3_24 C 0.5501(3) 0.4284(3) 0.2495(3)
H1_24 H 0.561374 0.424580 0.269963
C4_24 C 0.5612(3) 0.4556(3) 0.2283(3)
H2_24 H 0.579523 0.470314 0.234496
C5_24 C 0.5441(3) 0.4597(3) 0.1977(3)
H3_24 H 0.551208 0.477519 0.183244
C6_24 C 0.5060(3) 0.4127(3) 0.2088(2)
C7_24 C 0.4762(3) 0.3928(3) 0.1941(2)
C8_24 C 0.4274(3) 0.4002(3) 0.1595(3)
H4_24 H 0.415520 0.413724 0.143735
C9_24 C 0.4122(3) 0.3689(3) 0.1701(3)
H5_24 H 0.389611 0.362603 0.163641
C10_24 C 0.4324(3) 0.3479(3) 0.1905(3)
H6_24 H 0.423840 0.326094 0.196808
C11_24 C 0.4652(3) 0.3584(2) 0.2019(2)
C12_24 C 0.4886(3) 0.3318(3) 0.2174(2)
C13_24 C 0.6697(3) 0.2601(4) 0.3894(3)
C14_22 C 0.6987(3) 0.2373(3) 0.4011(2)
C15_22 C 0.6930(3) 0.2159(3) 0.4294(3)
H7_22 H 0.670641 0.214253 0.438729
C16_22 C 0.7200(3) 0.1975(4) 0.4433(3)
H8_22 H 0.715970 0.182403 0.461339
C17_24 C 0.7537(3) 0.2015(3) 0.4303(3)
H9_24 H 0.772343 0.190046 0.440537
C18_22 C 0.7333(3) 0.2381(3) 0.3873(2)
C19_24 C 0.7446(3) 0.2587(3) 0.3568(2)
C20_24 C 0.7881(3) 0.2970(4) 0.3391(3)
H10_24 H 0.808247 0.309894 0.343592
C21_24 C 0.7723(3) 0.3001(4) 0.3076(3)
H11_24 H 0.781256 0.315514 0.291556
C22_24 C 0.7437(3) 0.2805(4) 0.3004(3)
H12_24 H 0.733525 0.281704 0.279158
C23_24 C 0.7295(3) 0.2583(3) 0.3250(3)
C24_22 C 0.7000(3) 0.2344(4) 0.3160(3)
C25_24 C 0.6322(3) 0.2583(3) 0.2300(2)
C26_24 C 0.6561(3) 0.2768(3) 0.2058(2)
C27_24 C 0.6800(3) 0.3002(4) 0.2194(3)
H13_24 H 0.678990 0.305883 0.242222
C28_24 C 0.7056(3) 0.3152(3) 0.1989(3)
H14_24 H 0.721691 0.331163 0.207493
C29_24 C 0.7061(3) 0.3055(3) 0.1653(3)
H15_24 H 0.723696 0.314475 0.151538
C30_24 C 0.6566(3) 0.2704(3) 0.1707(2)
C31_24 C 0.6310(3) 0.2484(3) 0.1512(2)
C32_24 C 0.6298(3) 0.2072(3) 0.1070(2)
H16_24 H 0.641793 0.194893 0.090384
C33_24 C 0.5951(3) 0.1999(3) 0.1127(3)
H17_24 H 0.583928 0.181970 0.100945
C34_24 C 0.5774(3) 0.2194(3) 0.1360(2)
H18_24 H 0.553369 0.216434 0.138519
C35_24 C 0.5951(3) 0.2442(3) 0.1562(2)
C36_24 C 0.5721(3) 0.2645(3) 0.1805(2)
N5_24 N 0.6823(2) 0.2837(3) 0.1518(2)
N6_24 N 0.6469(2) 0.2318(2) 0.1251(2)
U1_16 U 0.63452(2) 0.28988(2) 0.31497(2)
U2_16 U 0.56471(2) 0.35429(2) 0.33650(2)
U3_24 U 0.57028(2) 0.31850(2) 0.24461(2)
O1_24 O 0.6053(2) 0.2551(2) 0.3268(2)
O2_24 O 0.6659(2) 0.3226(3) 0.30331(18)
O3_24 O 0.53528(19) 0.31857(18) 0.34346(18)
O4_24 O 0.5915(3) 0.3915(2) 0.3282(2)
O5_24 O 0.54427(18) 0.28201(19) 0.25828(17)
O6_24 O 0.5964(2) 0.3540(2) 0.22919(18)
O7_24 O 0.5913(2) 0.3233(2) 0.29534(17)
O8_16 O 0.5715(2) 0.3622(2) 0.39240(19)
O9_24 O 0.53625(19) 0.36214(19) 0.27859(16)
O10_24 O 0.48000(19) 0.37645(19) 0.27282(17)
O11_24 O 0.52155(18) 0.33728(18) 0.21390(16)
O12_24 O 0.47541(19) 0.30568(19) 0.2313(2)
O13_16 O 0.6440(2) 0.2641(3) 0.4086(2)
O14_24 O 0.6723(2) 0.2756(3) 0.36103(18)
O15_22 O 0.7009(2) 0.2038(3) 0.3273(2)
O16_22 O 0.6763(2) 0.2457(3) 0.29645(18)
O17_24 O 0.62103(19) 0.2783(2) 0.25477(17)
O18_24 O 0.6250(2) 0.2277(2) 0.22661(18)
O19_24 O 0.58612(18) 0.2917(2) 0.19358(16)
O20_24 O 0.5422(2) 0.2551(2) 0.1845(2)
U4_16 U 0.53988(2) 0.38452(2) 0.43503(2)
U5_16 U 0.60429(2) 0.31471(2) 0.41350(2)
O21_16 O 0.6122(2) 0.3215(2) 0.35760(19)
O22_16 O 0.5141(3) 0.3940(2) 0.3414(2)
C31_25 C 0.0016(3) 0.6190(3) 0.0988(2)
C32_25 C 0.0428(3) 0.6202(3) 0.1430(2)
H16_25 H 0.055107 0.608207 0.159616
C33_25 C 0.0501(3) 0.6549(3) 0.1373(3)
H17_25 H 0.068030 0.666072 0.149055
C34_25 C 0.0306(3) 0.6726(3) 0.1140(2)
H18_25 H 0.033566 0.696631 0.111481
C35_25 C 0.0058(3) 0.6549(3) 0.0938(2)
N6_25 N 0.0182(2) 0.6031(2) 0.1249(2)
O18_25 O 0.0223(2) 0.6250(2) 0.02339(18)
C14_23 C 0.0127(3) 0.5513(3) 0.8489(2)
C15_23 C 0.0341(3) 0.5570(3) 0.8206(3)
H7_23 H 0.035747 0.579359 0.811271
C16_23 C 0.0525(4) 0.5300(3) 0.8067(3)
H8_23 H 0.067597 0.534030 0.788661
C17_25 C 0.0485(3) 0.4963(3) 0.8197(3)
H9_25 H 0.059954 0.477657 0.809463
C18_23 C 0.0119(3) 0.5167(3) 0.8627(2)
C24_23 C 0.0156(4) 0.5500(3) 0.9340(3)
O15_23 O 0.0462(3) 0.5491(2) 0.9227(2)
O16_23 O 0.0043(3) 0.5737(2) 0.95355(18)
C2_25 C 0.8426(3) 0.7275(3) 0.0100(2)
C3_25 C 0.8216(3) 0.6999(3) 0.0005(3)
C4_25 C 0.7944(3) 0.6888(3) 0.0217(3)
H2_25 H 0.779686 0.670477 0.015504
C5_25 C 0.7903(3) 0.7059(3) 0.0523(3)
H3_25 H 0.772481 0.698792 0.066756
C6_25 C 0.8373(3) 0.7440(3) 0.0412(2)
C7_25 C 0.8572(3) 0.7738(3) 0.0559(2)
C8_25 C 0.8498(3) 0.8226(3) 0.0905(3)
H4_25 H 0.836276 0.834480 0.106265
C9_25 C 0.8811(3) 0.8378(3) 0.0799(3)
H5_25 H 0.887397 0.860389 0.086359
C10_25 C 0.9021(3) 0.8176(3) 0.0595(3)
H6_25 H 0.923906 0.826160 0.053192
C11_25 C 0.8916(2) 0.7848(3) 0.0481(2)
C12_25 C 0.9182(3) 0.7614(3) 0.0326(2)
C25_25 C 0.9917(3) 0.6178(3) 0.0200(2)
C26_25 C 0.9732(3) 0.5939(3) 0.0442(2)
C27_25 C 0.9498(4) 0.5700(3) 0.0306(3)
H13_25 H 0.944117 0.571010 0.007778
C28_25 C 0.9348(3) 0.5444(3) 0.0511(3)
H14_25 H 0.918837 0.528309 0.042507
C29_25 C 0.9445(3) 0.5439(3) 0.0847(3)
H15_25 H 0.935525 0.526304 0.098462
C30_25 C 0.9796(3) 0.5934(3) 0.0793(2)
C36_25 C 0.9855(3) 0.6779(3) 0.0695(2)
N5_25 N 0.9663(3) 0.5677(2) 0.0982(2)
U3_25 U 0.93150(2) 0.67972(2) 0.00539(2)
O6_25 O 0.8960(2) 0.6536(2) 0.02081(18)
O11_25 O 0.91272(18) 0.72845(18) 0.03610(16)
O12_25 O 0.94432(19) 0.77459(19) 0.0187(2)
O19_25 O 0.9583(2) 0.66388(18) 0.05642(16)
O20_25 O 0.9949(2) 0.7078(2) 0.0655(2)
C1_25 C 0.8698(3) 0.7399(3) 0.9843(2)
H1_25 H 0.825420 0.688626 0.980037
C13_25 C 0.9899(4) 0.5803(3) 0.8606(3)
C19_25 C 0.9913(3) 0.5054(3) 0.8932(2)
C20_25 C 0.9530(4) 0.4619(3) 0.9109(3)
H10_25 H 0.940106 0.441753 0.906408
C21_25 C 0.9499(4) 0.4777(3) 0.9424(3)
H11_25 H 0.934486 0.468744 0.958444
C22_25 C 0.9695(4) 0.5063(3) 0.9496(3)
H12_25 H 0.968296 0.516475 0.970842
C23_25 C 0.9917(3) 0.5205(3) 0.9250(3)
O1_25 O 0.9949(2) 0.6447(2) 0.9232(2)
O2_25 O 0.9274(3) 0.5841(2) 0.94669(18)
O3_25 O 0.93143(18) 0.71472(19) 0.90654(18)
O4_25 O 0.8585(2) 0.6585(3) 0.9218(2)
O5_25 O 0.96799(19) 0.70573(18) 0.99172(17)
O7_25 O 0.9267(2) 0.6587(2) 0.95466(17)
O9_25 O 0.88786(19) 0.71375(19) 0.97141(16)
O10_25 O 0.87355(19) 0.77000(19) 0.97718(17)
O14_25 O 0.9744(3) 0.5777(2) 0.88897(18)
O17_25 O 0.9717(2) 0.62897(19) 0.99523(17)
C1_26 C 0.6302(3) 0.2601(3) 0.4843(2)
C2_26 C 0.6574(3) 0.2725(3) 0.5100(2)
C3_26 C 0.6784(3) 0.3001(3) 0.5005(3)
H1_26 H 0.674580 0.311374 0.480037
C4_26 C 0.7056(3) 0.3112(3) 0.5217(3)
H2_26 H 0.720314 0.329523 0.515504
C5_26 C 0.7097(3) 0.2941(3) 0.5523(3)
H3_26 H 0.727519 0.301208 0.566756
C6_26 C 0.6627(3) 0.2560(3) 0.5412(2)
C7_26 C 0.6428(3) 0.2262(3) 0.5559(2)
C8_26 C 0.6502(3) 0.1774(3) 0.5905(3)
H4_26 H 0.663724 0.165520 0.606265
C9_26 C 0.6189(3) 0.1622(3) 0.5799(3)
H5_26 H 0.612603 0.139611 0.586359
C10_26 C 0.5979(3) 0.1824(3) 0.5595(3)
H6_26 H 0.576094 0.173840 0.553192
C11_26 C 0.6084(2) 0.2152(3) 0.5481(2)
C12_26 C 0.5818(3) 0.2386(3) 0.5326(2)
C13_26 C 0.5101(4) 0.4197(3) 0.3606(3)
C14_24 C 0.4873(3) 0.4487(3) 0.3489(2)
C15_24 C 0.4659(3) 0.4430(3) 0.3206(3)
H7_24 H 0.464253 0.420641 0.311271
C16_24 C 0.4475(4) 0.4700(3) 0.3067(3)
H8_24 H 0.432403 0.465970 0.288661
C17_26 C 0.4515(3) 0.5037(3) 0.3197(3)
H9_26 H 0.440046 0.522343 0.309463
C18_24 C 0.4881(3) 0.4833(3) 0.3627(2)
C19_26 C 0.5087(3) 0.4946(3) 0.3932(2)
C20_26 C 0.5470(4) 0.5381(3) 0.4109(3)
H10_26 H 0.559894 0.558247 0.406408
C21_26 C 0.5501(4) 0.5223(3) 0.4424(3)
H11_26 H 0.565514 0.531256 0.458444
C22_26 C 0.5305(4) 0.4937(3) 0.4496(3)
H12_26 H 0.531704 0.483525 0.470842
C23_26 C 0.5083(3) 0.4795(3) 0.4250(3)
C24_24 C 0.4844(4) 0.4500(3) 0.4340(3)
C25_26 C 0.5083(3) 0.3822(3) 0.5200(2)
C26_26 C 0.5268(3) 0.4061(3) 0.5442(2)
C27_26 C 0.5502(4) 0.4300(3) 0.5306(3)
H13_26 H 0.555883 0.428990 0.507778
C28_26 C 0.5652(3) 0.4556(3) 0.5511(3)
H14_26 H 0.581163 0.471691 0.542507
C29_26 C 0.5555(3) 0.4561(3) 0.5847(3)
H15_26 H 0.564475 0.473696 0.598462
C30_26 C 0.5204(3) 0.4066(3) 0.5793(2)
C31_26 C 0.4984(3) 0.3810(3) 0.5988(2)
C32_26 C 0.4572(3) 0.3798(3) 0.6430(2)
H16_26 H 0.444893 0.391793 0.659616
C33_26 C 0.4499(3) 0.3451(3) 0.6373(3)
H17_26 H 0.431970 0.333928 0.649055
C34_26 C 0.4694(3) 0.3274(3) 0.6140(2)
H18_26 H 0.466434 0.303369 0.611481
C35_26 C 0.4942(3) 0.3451(3) 0.5938(2)
C36_26 C 0.5145(3) 0.3221(3) 0.5695(2)
N5_26 N 0.5337(3) 0.4323(2) 0.5982(2)
N6_26 N 0.4818(2) 0.3969(2) 0.6249(2)
U3_26 U 0.56850(2) 0.32028(2) 0.50539(2)
O1_26 O 0.5051(2) 0.3553(2) 0.4232(2)
O2_26 O 0.5726(3) 0.4159(2) 0.44669(18)
O3_26 O 0.56857(18) 0.28528(19) 0.40654(18)
O4_26 O 0.6415(2) 0.3415(3) 0.4218(2)
O5_26 O 0.53201(19) 0.29427(18) 0.49172(17)
O6_26 O 0.6040(2) 0.3464(2) 0.52081(18)
O7_26 O 0.5733(2) 0.3413(2) 0.45466(17)
O9_26 O 0.61214(19) 0.28625(19) 0.47141(16)
O10_26 O 0.62645(19) 0.23000(19) 0.47718(17)
O11_26 O 0.58728(18) 0.27155(18) 0.53610(16)
O12_26 O 0.55568(19) 0.22541(19) 0.5187(2)
O14_26 O 0.5256(3) 0.4223(2) 0.38897(18)
O15_24 O 0.4538(3) 0.4509(2) 0.4227(2)
O16_24 O 0.4957(3) 0.4263(2) 0.45355(18)
O17_26 O 0.5283(2) 0.37103(19) 0.49523(17)
O18_26 O 0.4777(2) 0.3750(2) 0.52339(18)
O19_26 O 0.5417(2) 0.33612(18) 0.55642(16)
O20_26 O 0.5051(2) 0.2922(2) 0.5655(2)
C1_27 C 0.0101(3) 0.1198(3) 0.7343(2)
C2_27 C 0.0225(3) 0.0926(3) 0.7600(2)
C3_27 C 0.0501(3) 0.0716(3) 0.7505(3)
H1_27 H 0.061374 0.075420 0.730037
C4_27 C 0.0612(3) 0.0444(3) 0.7717(3)
H2_27 H 0.079523 0.029686 0.765504
C5_27 C 0.0441(3) 0.0403(3) 0.8023(3)
H3_27 H 0.051208 0.022481 0.816756
C6_27 C 0.0060(3) 0.0873(3) 0.7912(2)
C13_27 C 0.1697(3) 0.2399(4) 0.6106(3)
C14_25 C 0.1987(3) 0.2627(3) 0.5989(2)
C15_25 C 0.1930(3) 0.2841(3) 0.5706(3)
H7_25 H 0.170641 0.285747 0.561271
C16_25 C 0.2200(3) 0.3025(4) 0.5567(3)
H8_25 H 0.215970 0.317597 0.538661
C17_27 C 0.2537(3) 0.2985(3) 0.5697(3)
H9_27 H 0.272343 0.309954 0.559463
C18_25 C 0.2333(3) 0.2619(3) 0.6127(2)
C19_27 C 0.2446(3) 0.2413(3) 0.6432(2)
C20_27 C 0.2881(3) 0.2030(4) 0.6609(3)
H10_27 H 0.308247 0.190106 0.656408
C21_27 C 0.2723(3) 0.1999(4) 0.6924(3)
H11_27 H 0.281256 0.184486 0.708444
C22_27 C 0.2437(3) 0.2195(4) 0.6996(3)
H12_27 H 0.233525 0.218296 0.720842
C23_27 C 0.2295(3) 0.2417(3) 0.6750(3)
C24_25 C 0.2000(3) 0.2656(4) 0.6840(3)
C25_27 C 0.1322(3) 0.2417(3) 0.7700(2)
C26_27 C 0.1561(3) 0.2232(3) 0.7942(2)
C27_27 C 0.1800(3) 0.1998(4) 0.7806(3)
H13_27 H 0.178990 0.194117 0.757778
C28_27 C 0.2056(3) 0.1848(3) 0.8011(3)
H14_27 H 0.221691 0.168837 0.792507
C29_27 C 0.2061(3) 0.1945(3) 0.8347(3)
H15_27 H 0.223696 0.185525 0.848462
C30_27 C 0.1566(3) 0.2296(3) 0.8293(2)
C31_27 C 0.1310(3) 0.2516(3) 0.8488(2)
C32_27 C 0.1298(3) 0.2928(3) 0.8930(2)
H16_27 H 0.141793 0.305107 0.909616
C33_27 C 0.0951(3) 0.3001(3) 0.8873(3)
H17_27 H 0.083928 0.318030 0.899055
C34_27 C 0.0774(3) 0.2806(3) 0.8640(2)
H18_27 H 0.053369 0.283566 0.861481
C35_27 C 0.0951(3) 0.2558(3) 0.8438(2)
C36_27 C 0.0721(3) 0.2355(3) 0.8195(2)
N5_27 N 0.1823(2) 0.2163(3) 0.8482(2)
N6_27 N 0.1469(2) 0.2682(2) 0.8749(2)
U3_27 U 0.07028(2) 0.18150(2) 0.75539(2)
O1_27 O 0.1053(2) 0.2449(2) 0.6732(2)
O2_27 O 0.1659(2) 0.1774(3) 0.69669(18)
O3_27 O 0.03528(19) 0.18143(18) 0.65654(18)
O4_27 O 0.0915(3) 0.1085(2) 0.6718(2)
O5_27 O 0.04427(18) 0.21799(19) 0.74172(17)
O6_27 O 0.0964(2) 0.1460(2) 0.77081(18)
O7_27 O 0.0913(2) 0.1767(2) 0.70466(17)
O9_27 O 0.03625(19) 0.13786(19) 0.72141(16)
O11_27 O 0.02155(18) 0.16272(18) 0.78610(16)
O14_27 O 0.1723(2) 0.2244(3) 0.63897(18)
O15_25 O 0.2009(2) 0.2962(3) 0.6727(2)
O16_25 O 0.1763(2) 0.2543(3) 0.70355(18)
O17_27 O 0.12103(19) 0.2217(2) 0.74523(17)
O18_27 O 0.1250(2) 0.2723(2) 0.77339(18)
O19_27 O 0.08612(18) 0.2083(2) 0.80642(16)
O20_27 O 0.0422(2) 0.2449(2) 0.8155(2)
C7_27 C 0.9762(3) 0.1072(3) 0.8059(2)
C8_27 C 0.9274(3) 0.0998(3) 0.8405(3)
H4_27 H 0.915520 0.086276 0.856265
C9_27 C 0.9122(3) 0.1311(3) 0.8299(3)
H5_27 H 0.889611 0.137397 0.836359
C10_27 C 0.9324(3) 0.1521(3) 0.8095(3)
H6_27 H 0.923840 0.173906 0.803192
C11_27 C 0.9652(3) 0.1416(2) 0.7981(2)
C12_27 C 0.9886(3) 0.1682(3) 0.7826(2)
O10_27 O 0.98000(19) 0.12355(19) 0.72718(17)
O12_27 O 0.97541(19) 0.19432(19) 0.7687(2)
C1_28 C 0.4899(3) 0.8802(3) 0.2343(2)
C2_28 C 0.4775(3) 0.9074(3) 0.2600(2)
C3_28 C 0.4499(3) 0.9284(3) 0.2505(3)
H1_28 H 0.438626 0.924580 0.230037
C4_28 C 0.4388(3) 0.9556(3) 0.2717(3)
H2_28 H 0.420477 0.970314 0.265504
C5_28 C 0.4559(3) 0.9597(3) 0.3023(3)
H3_28 H 0.448792 0.977519 0.316756
C6_28 C 0.4940(3) 0.9127(3) 0.2912(2)
C7_28 C 0.5238(3) 0.8928(3) 0.3059(2)
C8_28 C 0.5726(3) 0.9002(3) 0.3405(3)
H4_28 H 0.584480 0.913724 0.356265
C9_28 C 0.5878(3) 0.8689(3) 0.3299(3)
H5_28 H 0.610389 0.862603 0.336359
C10_28 C 0.5676(3) 0.8479(3) 0.3095(3)
H6_28 H 0.576160 0.826094 0.303192
C11_28 C 0.5348(3) 0.8584(2) 0.2981(2)
C12_28 C 0.5114(3) 0.8318(3) 0.2826(2)
C13_28 C 0.3303(3) 0.7601(4) 0.1106(3)
C14_26 C 0.3013(3) 0.7373(3) 0.0989(2)
C15_26 C 0.3070(3) 0.7159(3) 0.0706(3)
H7_26 H 0.329359 0.714253 0.061271
C16_26 C 0.2800(3) 0.6975(4) 0.0567(3)
H8_26 H 0.284030 0.682403 0.038661
C17_28 C 0.2463(3) 0.7015(3) 0.0697(3)
H9_28 H 0.227657 0.690046 0.059463
C18_26 C 0.2667(3) 0.7381(3) 0.1127(2)
C19_28 C 0.2554(3) 0.7587(3) 0.1432(2)
C20_28 C 0.2119(3) 0.7970(4) 0.1609(3)
H10_28 H 0.191753 0.809894 0.156408
C21_28 C 0.2277(3) 0.8001(4) 0.1924(3)
H11_28 H 0.218744 0.815514 0.208444
C22_28 C 0.2563(3) 0.7805(4) 0.1996(3)
H12_28 H 0.266475 0.781704 0.220842
C23_28 C 0.2705(3) 0.7583(3) 0.1750(3)
C24_26 C 0.3000(3) 0.7344(4) 0.1840(3)
C25_28 C 0.3678(3) 0.7583(3) 0.2700(2)
C26_28 C 0.3439(3) 0.7768(3) 0.2942(2)
C27_28 C 0.3200(3) 0.8002(4) 0.2806(3)
H13_28 H 0.321010 0.805883 0.257778
C28_28 C 0.2944(3) 0.8152(3) 0.3011(3)
H14_28 H 0.278309 0.831163 0.292507
C29_28 C 0.2939(3) 0.8055(3) 0.3347(3)
H15_28 H 0.276304 0.814475 0.348462
C30_28 C 0.3434(3) 0.7704(3) 0.3293(2)
C31_28 C 0.3690(3) 0.7484(3) 0.3488(2)
C32_28 C 0.3702(3) 0.7072(3) 0.3930(2)
H16_28 H 0.358207 0.694893 0.409616
C33_28 C 0.4049(3) 0.6999(3) 0.3873(3)
H17_28 H 0.416072 0.681970 0.399055
C34_28 C 0.4226(3) 0.7194(3) 0.3640(2)
H18_28 H 0.446631 0.716434 0.361481
C35_28 C 0.4049(3) 0.7442(3) 0.3438(2)
C36_28 C 0.4279(3) 0.7645(3) 0.3195(2)
N5_28 N 0.3177(2) 0.7837(3) 0.3482(2)
N6_28 N 0.3531(2) 0.7318(2) 0.3749(2)
U3_28 U 0.42972(2) 0.81850(2) 0.25539(2)
O1_28 O 0.3947(2) 0.7551(2) 0.1732(2)
O2_28 O 0.3341(2) 0.8226(3) 0.19669(18)
O3_28 O 0.46472(19) 0.81857(18) 0.15654(18)
O4_28 O 0.4085(3) 0.8915(2) 0.1718(2)
O5_28 O 0.45573(18) 0.78201(19) 0.24172(17)
O6_28 O 0.4036(2) 0.8540(2) 0.27081(18)
O7_28 O 0.4087(2) 0.8233(2) 0.20466(17)
O9_28 O 0.46375(19) 0.86214(19) 0.22141(16)
O10_28 O 0.52000(19) 0.87645(19) 0.22718(17)
O11_28 O 0.47845(18) 0.83728(18) 0.28610(16)
O12_28 O 0.52459(19) 0.80568(19) 0.2687(2)
O14_28 O 0.3277(2) 0.7756(3) 0.13897(18)
O15_26 O 0.2991(2) 0.7038(3) 0.1727(2)
O16_26 O 0.3237(2) 0.7457(3) 0.20355(18)
O17_28 O 0.37897(19) 0.7783(2) 0.24523(17)
O18_28 O 0.3750(2) 0.7277(2) 0.27339(18)
O19_28 O 0.41388(18) 0.7917(2) 0.30642(16)
O20_28 O 0.4578(2) 0.7551(2) 0.3155(2)
C1_29 C 0.6302(3) 0.7399(3) 0.0157(2)
H1_29 H 0.674580 0.688626 0.019963
C13_29 C 0.5101(4) 0.5803(3) 0.1394(3)
C14_27 C 0.4873(3) 0.5513(3) 0.1511(2)
C15_27 C 0.4659(3) 0.5570(3) 0.1794(3)
H7_27 H 0.464253 0.579359 0.188729
C16_27 C 0.4475(4) 0.5300(3) 0.1933(3)
H8_27 H 0.432403 0.534030 0.211339
C17_29 C 0.4515(3) 0.4963(3) 0.1803(3)
H9_29 H 0.440046 0.477657 0.190537
C18_27 C 0.4881(3) 0.5167(3) 0.1373(2)
C19_29 C 0.5087(3) 0.5054(3) 0.1068(2)
C20_29 C 0.5470(4) 0.4619(3) 0.0891(3)
H10_29 H 0.559894 0.441753 0.093592
C21_29 C 0.5501(4) 0.4777(3) 0.0576(3)
H11_29 H 0.565514 0.468744 0.041556
C22_29 C 0.5305(4) 0.5063(3) 0.0504(3)
H12_29 H 0.531704 0.516475 0.029158
C23_29 C 0.5083(3) 0.5205(3) 0.0750(3)
C24_27 C 0.4844(4) 0.5500(3) 0.0660(3)
O1_29 O 0.5051(2) 0.6447(2) 0.0768(2)
O2_29 O 0.5726(3) 0.5841(2) 0.05331(18)
O3_29 O 0.56857(18) 0.71472(19) 0.09346(18)
O4_29 O 0.6415(2) 0.6585(3) 0.0782(2)
O5_29 O 0.53201(19) 0.70573(18) 0.00828(17)
O7_29 O 0.5733(2) 0.6587(2) 0.04534(17)
O9_29 O 0.61214(19) 0.71375(19) 0.02859(16)
O10_29 O 0.62645(19) 0.77000(19) 0.02282(17)
O14_29 O 0.5256(3) 0.5777(2) 0.11103(18)
O15_27 O 0.4538(3) 0.5491(2) 0.0773(2)
O16_27 O 0.4957(3) 0.5737(2) 0.04645(18)
O17_29 O 0.5283(2) 0.62897(19) 0.00477(17)
C2_29 C 0.6574(3) 0.7275(3) 0.9900(2)
C3_29 C 0.6784(3) 0.6999(3) 0.9995(3)
C4_29 C 0.7056(3) 0.6888(3) 0.9783(3)
H2_29 H 0.720314 0.670477 0.984496
C5_29 C 0.7097(3) 0.7059(3) 0.9477(3)
H3_29 H 0.727519 0.698792 0.933244
C6_29 C 0.6627(3) 0.7440(3) 0.9588(2)
C7_29 C 0.6428(3) 0.7738(3) 0.9441(2)
C8_29 C 0.6502(3) 0.8226(3) 0.9095(3)
H4_29 H 0.663724 0.834480 0.893735
C9_29 C 0.6189(3) 0.8378(3) 0.9201(3)
H5_29 H 0.612603 0.860389 0.913641
C10_29 C 0.5979(3) 0.8176(3) 0.9405(3)
H6_29 H 0.576094 0.826160 0.946808
C11_29 C 0.6084(2) 0.7848(3) 0.9519(2)
C12_29 C 0.5818(3) 0.7614(3) 0.9674(2)
C25_29 C 0.5083(3) 0.6178(3) 0.9800(2)
C26_29 C 0.5268(3) 0.5939(3) 0.9558(2)
C27_29 C 0.5502(4) 0.5700(3) 0.9694(3)
H13_29 H 0.555883 0.571010 0.992222
C28_29 C 0.5652(3) 0.5444(3) 0.9489(3)
H14_29 H 0.581163 0.528309 0.957493
C29_29 C 0.5555(3) 0.5439(3) 0.9153(3)
H15_29 H 0.564475 0.526304 0.901538
C30_29 C 0.5204(3) 0.5934(3) 0.9207(2)
C31_29 C 0.4984(3) 0.6190(3) 0.9012(2)
C32_29 C 0.4572(3) 0.6202(3) 0.8570(2)
H16_29 H 0.444893 0.608207 0.840384
C33_29 C 0.4499(3) 0.6549(3) 0.8627(3)
H17_29 H 0.431970 0.666072 0.850945
C34_29 C 0.4694(3) 0.6726(3) 0.8860(2)
H18_29 H 0.466434 0.696631 0.888519
C35_29 C 0.4942(3) 0.6549(3) 0.9062(2)
C36_29 C 0.5145(3) 0.6779(3) 0.9305(2)
N5_29 N 0.5337(3) 0.5677(2) 0.9018(2)
N6_29 N 0.4818(2) 0.6031(2) 0.8751(2)
U3_29 U 0.56850(2) 0.67972(2) 0.99461(2)
O6_29 O 0.6040(2) 0.6536(2) 0.97919(18)
O11_29 O 0.58728(18) 0.72845(18) 0.96390(16)
O12_29 O 0.55568(19) 0.77459(19) 0.9813(2)
O18_29 O 0.4777(2) 0.6250(2) 0.97661(18)
O19_29 O 0.5417(2) 0.66388(18) 0.94358(16)
O20_29 O 0.5051(2) 0.7078(2) 0.9345(2)
C14_28 C 0.0127(3) 0.4487(3) 0.6511(2)
C15_28 C 0.0341(3) 0.4430(3) 0.6794(3)
H7_28 H 0.035747 0.420641 0.688729
C16_28 C 0.0525(4) 0.4700(3) 0.6933(3)
H8_28 H 0.067597 0.465970 0.711339
C17_30 C 0.0485(3) 0.5037(3) 0.6803(3)
H9_30 H 0.059954 0.522343 0.690537
C18_28 C 0.0119(3) 0.4833(3) 0.6373(2)
C24_28 C 0.0156(4) 0.4500(3) 0.5660(3)
C31_30 C 0.0016(3) 0.3810(3) 0.4012(2)
C32_30 C 0.0428(3) 0.3798(3) 0.3570(2)
H16_30 H 0.055107 0.391793 0.340384
C33_30 C 0.0501(3) 0.3451(3) 0.3627(3)
H17_30 H 0.068030 0.333928 0.350945
C34_30 C 0.0306(3) 0.3274(3) 0.3860(2)
H18_30 H 0.033566 0.303369 0.388519
C35_30 C 0.0058(3) 0.3451(3) 0.4062(2)
N6_30 N 0.0182(2) 0.3969(2) 0.3751(2)
O15_28 O 0.0462(3) 0.4509(2) 0.5773(2)
O16_28 O 0.0043(3) 0.4263(2) 0.54645(18)
O18_30 O 0.0223(2) 0.3750(2) 0.47661(18)
C1_30 C 0.8698(3) 0.2601(3) 0.5157(2)
C2_30 C 0.8426(3) 0.2725(3) 0.4900(2)
C3_30 C 0.8216(3) 0.3001(3) 0.4995(3)
H1_30 H 0.825420 0.311374 0.519963
C4_30 C 0.7944(3) 0.3112(3) 0.4783(3)
H2_30 H 0.779686 0.329523 0.484496
C5_30 C 0.7903(3) 0.2941(3) 0.4477(3)
H3_30 H 0.772481 0.301208 0.433244
C6_30 C 0.8373(3) 0.2560(3) 0.4588(2)
C7_30 C 0.8572(3) 0.2262(3) 0.4441(2)
C8_30 C 0.8498(3) 0.1774(3) 0.4095(3)
H4_30 H 0.836276 0.165520 0.393735
C9_30 C 0.8811(3) 0.1622(3) 0.4201(3)
H5_30 H 0.887397 0.139611 0.413641
C10_30 C 0.9021(3) 0.1824(3) 0.4405(3)
H6_30 H 0.923906 0.173840 0.446808
C11_30 C 0.8916(2) 0.2152(3) 0.4519(2)
C12_30 C 0.9182(3) 0.2386(3) 0.4674(2)
C13_30 C 0.9899(4) 0.4197(3) 0.6394(3)
C19_30 C 0.9913(3) 0.4946(3) 0.6068(2)
C20_30 C 0.9530(4) 0.5381(3) 0.5891(3)
H10_30 H 0.940106 0.558247 0.593592
C21_30 C 0.9499(4) 0.5223(3) 0.5576(3)
H11_30 H 0.934486 0.531256 0.541556
C22_30 C 0.9695(4) 0.4937(3) 0.5504(3)
H12_30 H 0.968296 0.483525 0.529158
C23_30 C 0.9917(3) 0.4795(3) 0.5750(3)
C25_30 C 0.9917(3) 0.3822(3) 0.4800(2)
C26_30 C 0.9732(3) 0.4061(3) 0.4558(2)
C27_30 C 0.9498(4) 0.4300(3) 0.4694(3)
H13_30 H 0.944117 0.428990 0.492222
C28_30 C 0.9348(3) 0.4556(3) 0.4489(3)
H14_30 H 0.918837 0.471691 0.457493
C29_30 C 0.9445(3) 0.4561(3) 0.4153(3)
H15_30 H 0.935525 0.473696 0.401538
C30_30 C 0.9796(3) 0.4066(3) 0.4207(2)
C36_30 C 0.9855(3) 0.3221(3) 0.4305(2)
N5_30 N 0.9663(3) 0.4323(2) 0.4018(2)
U3_30 U 0.93150(2) 0.32028(2) 0.49461(2)
O1_30 O 0.9949(2) 0.3553(2) 0.5768(2)
O2_30 O 0.9274(3) 0.4159(2) 0.55331(18)
O3_30 O 0.93143(18) 0.28528(19) 0.59346(18)
O4_30 O 0.8585(2) 0.3415(3) 0.5782(2)
O5_30 O 0.96799(19) 0.29427(18) 0.50828(17)
O6_30 O 0.8960(2) 0.3464(2) 0.47919(18)
O7_30 O 0.9267(2) 0.3413(2) 0.54534(17)
O9_30 O 0.88786(19) 0.28625(19) 0.52859(16)
O10_30 O 0.87355(19) 0.23000(19) 0.52282(17)
O11_30 O 0.91272(18) 0.27155(18) 0.46390(16)
O12_30 O 0.94432(19) 0.22541(19) 0.4813(2)
O14_30 O 0.9744(3) 0.4223(2) 0.61103(18)
O17_30 O 0.9717(2) 0.37103(19) 0.50477(17)
O19_30 O 0.9583(2) 0.33612(18) 0.44358(16)
O20_30 O 0.9949(2) 0.2922(2) 0.4345(2)
C1_31 C 0.4899(3) 0.1198(3) 0.2657(2)
C2_31 C 0.4775(3) 0.0926(3) 0.2400(2)
C3_31 C 0.4499(3) 0.0716(3) 0.2495(3)
H1_31 H 0.438626 0.075420 0.269963
C4_31 C 0.4388(3) 0.0444(3) 0.2283(3)
H2_31 H 0.420477 0.029686 0.234496
C5_31 C 0.4559(3) 0.0403(3) 0.1977(3)
H3_31 H 0.448792 0.022481 0.183244
C6_31 C 0.4940(3) 0.0873(3) 0.2088(2)
C7_31 C 0.5238(3) 0.1072(3) 0.1941(2)
C8_31 C 0.5726(3) 0.0998(3) 0.1595(3)
H4_31 H 0.584480 0.086276 0.143735
C9_31 C 0.5878(3) 0.1311(3) 0.1701(3)
H5_31 H 0.610389 0.137397 0.163641
C10_31 C 0.5676(3) 0.1521(3) 0.1905(3)
H6_31 H 0.576160 0.173906 0.196808
C11_31 C 0.5348(3) 0.1416(2) 0.2019(2)
C12_31 C 0.5114(3) 0.1682(3) 0.2174(2)
C13_31 C 0.3303(3) 0.2399(4) 0.3894(3)
C14_29 C 0.3013(3) 0.2627(3) 0.4011(2)
C15_29 C 0.3070(3) 0.2841(3) 0.4294(3)
H7_29 H 0.329359 0.285747 0.438729
C16_29 C 0.2800(3) 0.3025(4) 0.4433(3)
H8_29 H 0.284030 0.317597 0.461339
C17_31 C 0.2463(3) 0.2985(3) 0.4303(3)
H9_31 H 0.227657 0.309954 0.440537
C18_29 C 0.2667(3) 0.2619(3) 0.3873(2)
C19_31 C 0.2554(3) 0.2413(3) 0.3568(2)
C20_31 C 0.2119(3) 0.2030(4) 0.3391(3)
H10_31 H 0.191753 0.190106 0.343592
C21_31 C 0.2277(3) 0.1999(4) 0.3076(3)
H11_31 H 0.218744 0.184486 0.291556
C22_31 C 0.2563(3) 0.2195(4) 0.3004(3)
H12_31 H 0.266475 0.218296 0.279158
C23_31 C 0.2705(3) 0.2417(3) 0.3250(3)
C24_29 C 0.3000(3) 0.2656(4) 0.3160(3)
C25_31 C 0.3678(3) 0.2417(3) 0.2300(2)
C26_31 C 0.3439(3) 0.2232(3) 0.2058(2)
C27_31 C 0.3200(3) 0.1998(4) 0.2194(3)
H13_31 H 0.321010 0.194117 0.242222
C28_31 C 0.2944(3) 0.1848(3) 0.1989(3)
H14_31 H 0.278309 0.168837 0.207493
C29_31 C 0.2939(3) 0.1945(3) 0.1653(3)
H15_31 H 0.276304 0.185525 0.151538
C30_31 C 0.3434(3) 0.2296(3) 0.1707(2)
C31_31 C 0.3690(3) 0.2516(3) 0.1512(2)
C32_31 C 0.3702(3) 0.2928(3) 0.1070(2)
H16_31 H 0.358207 0.305107 0.090384
C33_31 C 0.4049(3) 0.3001(3) 0.1127(3)
H17_31 H 0.416072 0.318030 0.100945
C34_31 C 0.4226(3) 0.2806(3) 0.1360(2)
H18_31 H 0.446631 0.283566 0.138519
C35_31 C 0.4049(3) 0.2558(3) 0.1562(2)
C36_31 C 0.4279(3) 0.2355(3) 0.1805(2)
N5_31 N 0.3177(2) 0.2163(3) 0.1518(2)
N6_31 N 0.3531(2) 0.2682(2) 0.1251(2)
U3_31 U 0.42972(2) 0.18150(2) 0.24461(2)
O1_31 O 0.3947(2) 0.2449(2) 0.3268(2)
O2_31 O 0.3341(2) 0.1774(3) 0.30331(18)
O3_31 O 0.46472(19) 0.18143(18) 0.34346(18)
O4_31 O 0.4085(3) 0.1085(2) 0.3282(2)
O5_31 O 0.45573(18) 0.21799(19) 0.25828(17)
O6_31 O 0.4036(2) 0.1460(2) 0.22919(18)
O7_31 O 0.4087(2) 0.1767(2) 0.29534(17)
O9_31 O 0.46375(19) 0.13786(19) 0.27859(16)
O10_31 O 0.52000(19) 0.12355(19) 0.27282(17)
O11_31 O 0.47845(18) 0.16272(18) 0.21390(16)
O12_31 O 0.52459(19) 0.19432(19) 0.2313(2)
O14_31 O 0.3277(2) 0.2244(3) 0.36103(18)
O15_29 O 0.2991(2) 0.2962(3) 0.3273(2)
O16_29 O 0.3237(2) 0.2543(3) 0.29645(18)
O17_31 O 0.37897(19) 0.2217(2) 0.25477(17)
O18_31 O 0.3750(2) 0.2723(2) 0.22661(18)
O19_31 O 0.41388(18) 0.2083(2) 0.19358(16)
O20_31 O 0.4578(2) 0.2449(2) 0.1845(2)
C1_32 C 0.0101(3) 0.8802(3) 0.7657(2)
C2_32 C 0.0225(3) 0.9074(3) 0.7400(2)
C3_32 C 0.0501(3) 0.9284(3) 0.7495(3)
H1_32 H 0.061374 0.924580 0.769963
C4_32 C 0.0612(3) 0.9556(3) 0.7283(3)
H2_32 H 0.079523 0.970314 0.734496
C5_32 C 0.0441(3) 0.9597(3) 0.6977(3)
H3_32 H 0.051208 0.977519 0.683244
C6_32 C 0.0060(3) 0.9127(3) 0.7088(2)
C13_32 C 0.1697(3) 0.7601(4) 0.8894(3)
C14_30 C 0.1987(3) 0.7373(3) 0.9011(2)
C15_30 C 0.1930(3) 0.7159(3) 0.9294(3)
H7_30 H 0.170641 0.714253 0.938729
C16_30 C 0.2200(3) 0.6975(4) 0.9433(3)
H8_30 H 0.215970 0.682403 0.961339
C17_32 C 0.2537(3) 0.7015(3) 0.9303(3)
H9_32 H 0.272343 0.690046 0.940537
C18_30 C 0.2333(3) 0.7381(3) 0.8873(2)
C19_32 C 0.2446(3) 0.7587(3) 0.8568(2)
C20_32 C 0.2881(3) 0.7970(4) 0.8391(3)
H10_32 H 0.308247 0.809894 0.843592
C21_32 C 0.2723(3) 0.8001(4) 0.8076(3)
H11_32 H 0.281256 0.815514 0.791556
C22_32 C 0.2437(3) 0.7805(4) 0.8004(3)
H12_32 H 0.233525 0.781704 0.779158
C23_32 C 0.2295(3) 0.7583(3) 0.8250(3)
C24_30 C 0.2000(3) 0.7344(4) 0.8160(3)
C25_32 C 0.1322(3) 0.7583(3) 0.7300(2)
C26_32 C 0.1561(3) 0.7768(3) 0.7058(2)
C27_32 C 0.1800(3) 0.8002(4) 0.7194(3)
H13_32 H 0.178990 0.805883 0.742222
C28_32 C 0.2056(3) 0.8152(3) 0.6989(3)
H14_32 H 0.221691 0.831163 0.707493
C29_32 C 0.2061(3) 0.8055(3) 0.6653(3)
H15_32 H 0.223696 0.814475 0.651538
C30_32 C 0.1566(3) 0.7704(3) 0.6707(2)
C31_32 C 0.1310(3) 0.7484(3) 0.6512(2)
C32_32 C 0.1298(3) 0.7072(3) 0.6070(2)
H16_32 H 0.141793 0.694893 0.590384
C33_32 C 0.0951(3) 0.6999(3) 0.6127(3)
H17_32 H 0.083928 0.681970 0.600945
C34_32 C 0.0774(3) 0.7194(3) 0.6360(2)
H18_32 H 0.053369 0.716434 0.638519
C35_32 C 0.0951(3) 0.7442(3) 0.6562(2)
C36_32 C 0.0721(3) 0.7645(3) 0.6805(2)
N5_32 N 0.1823(2) 0.7837(3) 0.6518(2)
N6_32 N 0.1469(2) 0.7318(2) 0.6251(2)
U3_32 U 0.07028(2) 0.81850(2) 0.74461(2)
O1_32 O 0.1053(2) 0.7551(2) 0.8268(2)
O2_32 O 0.1659(2) 0.8226(3) 0.80331(18)
O3_32 O 0.03528(19) 0.81857(18) 0.84346(18)
O4_32 O 0.0915(3) 0.8915(2) 0.8282(2)
O5_32 O 0.04427(18) 0.78201(19) 0.75828(17)
O6_32 O 0.0964(2) 0.8540(2) 0.72919(18)
O7_32 O 0.0913(2) 0.8233(2) 0.79534(17)
O9_32 O 0.03625(19) 0.86214(19) 0.77859(16)
O11_32 O 0.02155(18) 0.83728(18) 0.71390(16)
O14_32 O 0.1723(2) 0.7756(3) 0.86103(18)
O15_30 O 0.2009(2) 0.7038(3) 0.8273(2)
O16_30 O 0.1763(2) 0.7457(3) 0.79645(18)
O17_32 O 0.12103(19) 0.7783(2) 0.75477(17)
O18_32 O 0.1250(2) 0.7277(2) 0.72661(18)
O19_32 O 0.08612(18) 0.7917(2) 0.69358(16)
O20_32 O 0.0422(2) 0.7551(2) 0.6845(2)
C7_32 C 0.9762(3) 0.8928(3) 0.6941(2)
C8_32 C 0.9274(3) 0.9002(3) 0.6595(3)
H4_32 H 0.915520 0.913724 0.643735
C9_32 C 0.9122(3) 0.8689(3) 0.6701(3)
H5_32 H 0.889611 0.862603 0.663641
C10_32 C 0.9324(3) 0.8479(3) 0.6905(3)
H6_32 H 0.923840 0.826094 0.696808
C11_32 C 0.9652(3) 0.8584(2) 0.7019(2)
C12_32 C 0.9886(3) 0.8318(3) 0.7174(2)
O10_32 O 0.98000(19) 0.87645(19) 0.77282(17)
O12_32 O 0.97541(19) 0.80568(19) 0.7313(2)
C14_31 C 0.0127(3) 0.0513(3) 0.1511(2)
C15_31 C 0.0341(3) 0.0570(3) 0.1794(3)
H7_31 H 0.035747 0.079359 0.188729
C16_31 C 0.0525(4) 0.0300(3) 0.1933(3)
H8_31 H 0.067597 0.034030 0.211339
C18_31 C 0.0119(3) 0.0167(3) 0.1373(2)
C24_31 C 0.0156(4) 0.0500(3) 0.0660(3)
O15_31 O 0.0462(3) 0.0491(2) 0.0773(2)
O16_31 O 0.0043(3) 0.0737(2) 0.04645(18)
C14_32 C 0.9873(3) 0.9487(3) 0.8489(2)
C15_32 C 0.9659(3) 0.9430(3) 0.8206(3)
H7_32 H 0.964253 0.920641 0.811271
C16_32 C 0.9475(4) 0.9700(3) 0.8067(3)
H8_32 H 0.932403 0.965970 0.788661
C18_32 C 0.9881(3) 0.9833(3) 0.8627(2)
C24_32 C 0.9844(4) 0.9500(3) 0.9340(3)
O15_32 O 0.9538(3) 0.9509(2) 0.9227(2)
O16_32 O 0.9957(3) 0.9263(2) 0.95355(18)
Na1 Na 0.500000 0.750000 0.47520(15)
Na1_2 Na 0.000000 0.250000 0.97520(15)
Na1_3 Na 1.000000 0.250000 0.97520(15)
Na1_4 Na 0.500000 0.250000 0.72520(15)
Na1_5 Na -0.000000 0.750000 0.22520(15)
Na1_6 Na 1.000000 0.750000 0.22520(15)
Na1_7 Na 0.000000 0.750000 0.52480(15)
Na1_8 Na 1.000000 0.750000 0.52480(15)
Na1_9 Na 0.500000 0.250000 0.02480(15)
Na1_10 Na -0.000000 0.250000 0.27480(15)
Na1_11 Na 1.000000 0.250000 0.27480(15)
Na1_12 Na 0.500000 0.750000 0.77480(15)
Na1_13 Na 0.500000 0.250000 0.52480(15)
Na1_14 Na -0.000000 0.750000 0.02480(15)
Na1_15 Na 1.000000 0.750000 0.02480(15)
Na1_16 Na 0.500000 0.750000 0.27480(15)
Na1_17 Na 0.000000 0.250000 0.77480(15)
Na1_18 Na 1.000000 0.250000 0.77480(15)
Na1_19 Na -0.000000 0.250000 0.47520(15)
Na1_20 Na 1.000000 0.250000 0.47520(15)
Na1_21 Na 0.500000 0.750000 0.97520(15)
Na1_22 Na 0.000000 0.750000 0.72520(15)
Na1_23 Na 1.000000 0.750000 0.72520(15)
Na1_24 Na 0.500000 0.250000 0.22520(15)
loop_
_geom_bond_atom_site_label_1
_geom_bond_atom_site_label_2
_geom_bond_site_symmetry_1
_geom_bond_site_symmetry_2
H9 C17 1_555 1_555
C20 H10 1_555 1_555
C21 C20 1_555 1_555
H11 C21 1_555 1_555
N3 C17 1_555 1_555
Ni2 N3 1_555 1_555
C20 N4 1_555 1_555
N4 Ni2 1_555 1_555
C1 C2 1_555 1_555
C2 C3 1_555 1_555
C3 H1 1_555 1_555
C4 C3 1_555 1_555
H2 C4 1_555 1_555
C5 C4 1_555 1_555
H3 C5 1_555 1_555
C6 C2 1_555 1_555
C7 C6 1_555 1_555
C8 H4 1_555 1_555
C9 C8 1_555 1_555
H5 C9 1_555 1_555
C10 C9 1_555 1_555
H6 C10 1_555 1_555
C11 C7 1_555 1_555
C12 C11 1_555 1_555
C13 C14 1_555 1_555
C14 C15 1_555 1_555
C15 H7 1_555 1_555
C16 C15 1_555 1_555
H8 C16 1_555 1_555
C18 C14 1_555 1_555
C19 C18 1_555 1_555
H12 C22 1_555 1_555
C23 C19 1_555 1_555
C24 C23 1_555 1_555
C25 C26 1_555 1_555
C26 C27 1_555 1_555
C27 H13 1_555 1_555
C28 C27 1_555 1_555
H14 C28 1_555 1_555
C29 C28 1_555 1_555
H15 C29 1_555 1_555
C30 C26 1_555 1_555
C31 C30 1_555 1_555
C32 H16 1_555 1_555
C33 C32 1_555 1_555
H17 C33 1_555 1_555
C34 C33 1_555 1_555
H18 C34 1_555 1_555
C35 C31 1_555 1_555
C36 C35 1_555 1_555
N1 C5 1_555 1_555
N2 C7 1_555 1_555
N5 C29 1_555 1_555
N6 C31 1_555 1_555
Ni1 N5 1_555 1_555
U1 O1 1_555 1_555
U2 O3 1_555 1_555
U3 O5 1_555 1_555
O2 U1 1_555 1_555
O4 U2 1_555 1_555
O6 U3 1_555 1_555
O7 U1 1_555 1_555
O8 U2 1_555 1_555
O9 C1 1_555 1_555
O10 C1 1_555 1_555
O11 C12 1_555 1_555
O12 C12 1_555 1_555
O13 C13 1_555 1_555
O14 C13 1_555 1_555
O15 C24 1_555 1_555
O16 C24 1_555 1_555
O17 C25 1_555 1_555
O18 C25 1_555 1_555
O19 C36 1_555 1_555
O20 C36 1_555 1_555
N7 Ni1 1_555 1_555
N8 Ni1 1_555 1_555
N9 Ni1 1_555 1_555
N10 Ni1 1_555 1_555
Ni3 N1 1_555 1_555
U4 O8 1_555 1_555
U5 O8 1_555 1_555
O21 U1 1_555 1_555
O22 U2 1_555 1_555
C6 N1 1_555 1_555
C8 N2 1_555 1_555
C10 C11 1_555 1_555
C22 C23 1_555 1_555
C30 N5 1_555 1_555
C32 N6 1_555 1_555
C34 C35 1_555 1_555
N2 Ni3 1_555 1_555
N6 Ni1 1_555 1_555
U1 O14 1_555 1_555
U1 O16 1_555 1_555
U1 O17 1_555 1_555
U2 O7 1_555 1_555
U2 O9 1_555 1_555
U2 O21 1_555 1_555
U3 O7 1_555 1_555
U3 O9 1_555 1_555
U3 O11 1_555 1_555
U3 O17 1_555 1_555
U3 O19 1_555 1_555
O13 U5 1_555 1_555
U5 O21 1_555 1_555
C32_2 H16_2 1_555 1_555
C33_2 C32_2 1_555 1_555
H17_2 C33_2 1_555 1_555
C34_2 C33_2 1_555 1_555
H18_2 C34_2 1_555 1_555
C35_2 C31_2 1_555 1_555
N6_2 C31_2 1_555 1_555
C32_2 N6_2 1_555 1_555
C34_2 C35_2 1_555 1_555
H9_2 C17_2 1_555 1_555
N3_2 C17_2 1_555 1_555
Ni2_2 N3_2 1_555 1_555
H12_2 C22_2 1_555 1_555
C23_2 C19_2 1_555 1_555
U1_2 O1_2 1_555 1_555
U2_2 O3_2 1_555 1_555
O2_2 U1_2 1_555 1_555
O4_2 U2_2 1_555 1_555
O7_2 U1_2 1_555 1_555
O8_2 U2_2 1_555 1_555
O9_2 C1_2 1_555 1_555
O10_2 C1_2 1_555 1_555
O13_2 C13_2 1_555 1_555
O14_2 C13_2 1_555 1_555
U4_2 O8_2 1_555 1_555
U5_2 O8_2 1_555 1_555
O21_2 U1_2 1_555 1_555
O22_2 U2_2 1_555 1_555
C22_2 C23_2 1_555 1_555
U1_2 O14_2 1_555 1_555
U1_2 O17_2 1_555 1_555
U2_2 O7_2 1_555 1_555
U2_2 O9_2 1_555 1_555
U2_2 O21_2 1_555 1_555
O13_2 U5_2 1_555 1_555
U5_2 O21_2 1_555 1_555
C2_2 C3_2 1_555 1_555
C4_2 C3_2 1_555 1_555
H2_2 C4_2 1_555 1_555
C5_2 C4_2 1_555 1_555
H3_2 C5_2 1_555 1_555
C6_2 C2_2 1_555 1_555
C7_2 C6_2 1_555 1_555
C8_2 H4_2 1_555 1_555
C9_2 C8_2 1_555 1_555
H5_2 C9_2 1_555 1_555
C10_2 C9_2 1_555 1_555
H6_2 C10_2 1_555 1_555
C11_2 C7_2 1_555 1_555
C12_2 C11_2 1_555 1_555
C25_2 C26_2 1_555 1_555
C26_2 C27_2 1_555 1_555
C27_2 H13_2 1_555 1_555
C28_2 C27_2 1_555 1_555
H14_2 C28_2 1_555 1_555
C29_2 C28_2 1_555 1_555
H15_2 C29_2 1_555 1_555
C30_2 C26_2 1_555 1_555
N1_2 C5_2 1_555 1_555
N2_2 C7_2 1_555 1_555
N5_2 C29_2 1_555 1_555
Ni1_2 N5_2 1_555 1_555
O6_2 U3_2 1_555 1_555
O11_2 C12_2 1_555 1_555
O12_2 C12_2 1_555 1_555
O19_2 C36_2 1_555 1_555
O20_2 C36_2 1_555 1_555
N8_2 Ni1_2 1_555 1_555
N9_2 Ni1_2 1_555 1_555
Ni3_2 N1_2 1_555 1_555
C6_2 N1_2 1_555 1_555
C8_2 N2_2 1_555 1_555
C10_2 C11_2 1_555 1_555
C30_2 N5_2 1_555 1_555
N2_2 Ni3_2 1_555 1_555
U3_2 O11_2 1_555 1_555
U3_2 O19_2 1_555 1_555
C20_2 H10_2 1_555 1_555
C21_2 C20_2 1_555 1_555
H11_2 C21_2 1_555 1_555
C20_2 N4_2 1_555 1_555
C1_3 C2_3 1_555 1_555
C2_3 C3_3 1_555 1_555
C3_3 H1_3 1_555 1_555
C4_3 C3_3 1_555 1_555
H2_3 C4_3 1_555 1_555
C5_3 C4_3 1_555 1_555
H3_3 C5_3 1_555 1_555
C6_3 C2_3 1_555 1_555
C7_3 C6_3 1_555 1_555
C8_3 H4_3 1_555 1_555
C9_3 C8_3 1_555 1_555
H5_3 C9_3 1_555 1_555
C10_3 C9_3 1_555 1_555
H6_3 C10_3 1_555 1_555
C11_3 C7_3 1_555 1_555
C12_3 C11_3 1_555 1_555
C13_3 C14_2 1_555 1_555
C14_2 C15_2 1_555 1_555
C15_2 H7_2 1_555 1_555
C16_2 C15_2 1_555 1_555
H8_2 C16_2 1_555 1_555
C17_3 C16_2 1_555 1_555
H9_3 C17_3 1_555 1_555
C18_2 C14_2 1_555 1_555
C19_3 C18_2 1_555 1_555
C20_3 H10_3 1_555 1_555
C21_3 C20_3 1_555 1_555
H11_3 C21_3 1_555 1_555
C22_3 C21_3 1_555 1_555
H12_3 C22_3 1_555 1_555
C23_3 C19_3 1_555 1_555
C24_2 C23_3 1_555 1_555
C25_3 C26_3 1_555 1_555
C26_3 C27_3 1_555 1_555
C27_3 H13_3 1_555 1_555
C28_3 C27_3 1_555 1_555
H14_3 C28_3 1_555 1_555
C29_3 C28_3 1_555 1_555
H15_3 C29_3 1_555 1_555
C30_3 C26_3 1_555 1_555
C31_3 C30_3 1_555 1_555
C32_3 H16_3 1_555 1_555
C33_3 C32_3 1_555 1_555
H17_3 C33_3 1_555 1_555
C34_3 C33_3 1_555 1_555
H18_3 C34_3 1_555 1_555
C35_3 C31_3 1_555 1_555
C36_3 C35_3 1_555 1_555
N1_3 C5_3 1_555 1_555
N2_3 C7_3 1_555 1_555
N3_3 C17_3 1_555 1_555
N4_3 C19_3 1_555 1_555
N5_3 C29_3 1_555 1_555
N6_3 C31_3 1_555 1_555
Ni1_3 N5_3 1_555 1_555
U1_3 O1_3 1_555 1_555
U2_3 O3_3 1_555 1_555
U3_3 O5_3 1_555 1_555
O2_3 U1_3 1_555 1_555
O4_3 U2_3 1_555 1_555
O6_3 U3_3 1_555 1_555
O7_3 U1_3 1_555 1_555
O8_3 U2_3 1_555 1_555
O9_3 C1_3 1_555 1_555
O10_3 C1_3 1_555 1_555
O11_3 C12_3 1_555 1_555
O12_3 C12_3 1_555 1_555
O13_3 C13_3 1_555 1_555
O14_3 C13_3 1_555 1_555
O15_2 C24_2 1_555 1_555
O16_2 C24_2 1_555 1_555
O17_3 C25_3 1_555 1_555
O18_3 C25_3 1_555 1_555
O19_3 C36_3 1_555 1_555
O20_3 C36_3 1_555 1_555
N7_3 Ni1_3 1_555 1_555
N8_3 Ni1_3 1_555 1_555
N9_3 Ni1_3 1_555 1_555
N10_3 Ni1_3 1_555 1_555
Ni2_3 N3_3 1_555 1_555
Ni3_3 N1_3 1_555 1_555
U4_3 O8_3 1_555 1_555
U5_3 O8_3 1_555 1_555
O21_3 U1_3 1_555 1_555
O22_3 U2_3 1_555 1_555
C6_3 N1_3 1_555 1_555
C8_3 N2_3 1_555 1_555
C10_3 C11_3 1_555 1_555
C18_2 N3_3 1_555 1_555
C20_3 N4_3 1_555 1_555
C22_3 C23_3 1_555 1_555
C30_3 N5_3 1_555 1_555
C32_3 N6_3 1_555 1_555
C34_3 C35_3 1_555 1_555
N2_3 Ni3_3 1_555 1_555
N4_3 Ni2_3 1_555 1_555
N6_3 Ni1_3 1_555 1_555
U1_3 O14_3 1_555 1_555
U1_3 O16_2 1_555 1_555
U1_3 O17_3 1_555 1_555
U2_3 O7_3 1_555 1_555
U2_3 O9_3 1_555 1_555
U2_3 O21_3 1_555 1_555
U3_3 O7_3 1_555 1_555
U3_3 O9_3 1_555 1_555
U3_3 O11_3 1_555 1_555
U3_3 O17_3 1_555 1_555
U3_3 O19_3 1_555 1_555
O13_3 U5_3 1_555 1_555
U5_3 O21_3 1_555 1_555
C1_4 C2_4 1_555 1_555
C2_4 C3_4 1_555 1_555
C3_4 H1_4 1_555 1_555
C4_4 C3_4 1_555 1_555
H2_4 C4_4 1_555 1_555
C5_4 C4_4 1_555 1_555
H3_4 C5_4 1_555 1_555
C6_4 C2_4 1_555 1_555
C13_4 C14_3 1_555 1_555
C14_3 C15_3 1_555 1_555
C15_3 H7_3 1_555 1_555
C16_3 C15_3 1_555 1_555
H8_3 C16_3 1_555 1_555
C17_4 C16_3 1_555 1_555
H9_4 C17_4 1_555 1_555
C18_3 C14_3 1_555 1_555
C19_4 C18_3 1_555 1_555
C20_4 H10_4 1_555 1_555
C21_4 C20_4 1_555 1_555
H11_4 C21_4 1_555 1_555
C22_4 C21_4 1_555 1_555
H12_4 C22_4 1_555 1_555
C23_4 C19_4 1_555 1_555
C24_3 C23_4 1_555 1_555
C25_4 C26_4 1_555 1_555
C26_4 C27_4 1_555 1_555
C27_4 H13_4 1_555 1_555
C28_4 C27_4 1_555 1_555
H14_4 C28_4 1_555 1_555
C29_4 C28_4 1_555 1_555
H15_4 C29_4 1_555 1_555
C30_4 C26_4 1_555 1_555
C31_4 C30_4 1_555 1_555
C32_4 H16_4 1_555 1_555
C33_4 C32_4 1_555 1_555
H17_4 C33_4 1_555 1_555
C34_4 C33_4 1_555 1_555
H18_4 C34_4 1_555 1_555
C35_4 C31_4 1_555 1_555
C36_4 C35_4 1_555 1_555
N1_4 C5_4 1_555 1_555
N3_4 C17_4 1_555 1_555
N4_4 C19_4 1_555 1_555
N5_4 C29_4 1_555 1_555
N6_4 C31_4 1_555 1_555
Ni1_4 N5_4 1_555 1_555
U1_4 O1_4 1_555 1_555
U2_4 O3_4 1_555 1_555
U3_4 O5_4 1_555 1_555
O2_4 U1_4 1_555 1_555
O4_4 U2_4 1_555 1_555
O6_4 U3_4 1_555 1_555
O7_4 U1_4 1_555 1_555
O8_4 U2_4 1_555 1_555
O9_4 C1_4 1_555 1_555
O13_4 C13_4 1_555 1_555
O14_4 C13_4 1_555 1_555
O15_3 C24_3 1_555 1_555
O16_3 C24_3 1_555 1_555
O17_4 C25_4 1_555 1_555
O18_4 C25_4 1_555 1_555
O19_4 C36_4 1_555 1_555
O20_4 C36_4 1_555 1_555
N7_4 Ni1_4 1_555 1_555
N8_4 Ni1_4 1_555 1_555
N9_4 Ni1_4 1_555 1_555
N10_4 Ni1_4 1_555 1_555
Ni2_4 N3_4 1_555 1_555
U4_4 O8_4 1_555 1_555
U5_4 O8_4 1_555 1_555
O21_4 U1_4 1_555 1_555
O22_4 U2_4 1_555 1_555
C6_4 N1_4 1_555 1_555
C18_3 N3_4 1_555 1_555
C20_4 N4_4 1_555 1_555
C22_4 C23_4 1_555 1_555
C30_4 N5_4 1_555 1_555
C32_4 N6_4 1_555 1_555
C34_4 C35_4 1_555 1_555
N4_4 Ni2_4 1_555 1_555
N6_4 Ni1_4 1_555 1_555
U1_4 O14_4 1_555 1_555
U1_4 O16_3 1_555 1_555
U1_4 O17_4 1_555 1_555
U2_4 O7_4 1_555 1_555
U2_4 O9_4 1_555 1_555
U2_4 O21_4 1_555 1_555
U3_4 O7_4 1_555 1_555
U3_4 O9_4 1_555 1_555
U3_4 O11_4 1_555 1_555
U3_4 O17_4 1_555 1_555
U3_4 O19_4 1_555 1_555
O13_4 U5_4 1_555 1_555
U5_4 O21_4 1_555 1_555
C8_4 H4_4 1_555 1_555
C9_4 C8_4 1_555 1_555
H5_4 C9_4 1_555 1_555
C10_4 C9_4 1_555 1_555
H6_4 C10_4 1_555 1_555
C11_4 C7_4 1_555 1_555
C12_4 C11_4 1_555 1_555
N2_4 C7_4 1_555 1_555
O12_4 C12_4 1_555 1_555
C8_4 N2_4 1_555 1_555
C10_4 C11_4 1_555 1_555
N2_4 Ni3_4 1_555 1_555
H9_5 C17_5 1_555 1_555
N3_5 C17_5 1_555 1_555
Ni2_5 N3_5 1_555 1_555
C14_4 C15_4 1_555 1_555
C15_4 H7_4 1_555 1_555
C16_4 C15_4 1_555 1_555
H8_4 C16_4 1_555 1_555
C18_4 C14_4 1_555 1_555
C32_5 H16_5 1_555 1_555
C33_5 C32_5 1_555 1_555
H17_5 C33_5 1_555 1_555
C34_5 C33_5 1_555 1_555
H18_5 C34_5 1_555 1_555
C35_5 C31_5 1_555 1_555
N6_5 C31_5 1_555 1_555
O15_4 C24_4 1_555 1_555
O16_4 C24_4 1_555 1_555
C32_5 N6_5 1_555 1_555
C34_5 C35_5 1_555 1_555
C20_5 H10_5 1_555 1_555
C21_5 C20_5 1_555 1_555
H11_5 C21_5 1_555 1_555
C20_5 N4_5 1_555 1_555
C1_5 C2_5 1_555 1_555
C2_5 C3_5 1_555 1_555
C3_5 H1_5 1_555 1_555
C4_5 C3_5 1_555 1_555
H2_5 C4_5 1_555 1_555
C5_5 C4_5 1_555 1_555
H3_5 C5_5 1_555 1_555
C6_5 C2_5 1_555 1_555
C7_5 C6_5 1_555 1_555
C8_5 H4_5 1_555 1_555
C9_5 C8_5 1_555 1_555
H5_5 C9_5 1_555 1_555
C10_5 C9_5 1_555 1_555
H6_5 C10_5 1_555 1_555
C11_5 C7_5 1_555 1_555
C12_5 C11_5 1_555 1_555
H12_5 C22_5 1_555 1_555
C23_5 C19_5 1_555 1_555
C25_5 C26_5 1_555 1_555
C26_5 C27_5 1_555 1_555
C27_5 H13_5 1_555 1_555
C28_5 C27_5 1_555 1_555
H14_5 C28_5 1_555 1_555
C29_5 C28_5 1_555 1_555
H15_5 C29_5 1_555 1_555
C30_5 C26_5 1_555 1_555
N1_5 C5_5 1_555 1_555
N2_5 C7_5 1_555 1_555
N5_5 C29_5 1_555 1_555
Ni1_5 N5_5 1_555 1_555
U1_5 O1_5 1_555 1_555
U2_5 O3_5 1_555 1_555
U3_5 O5_5 1_555 1_555
O2_5 U1_5 1_555 1_555
O4_5 U2_5 1_555 1_555
O6_5 U3_5 1_555 1_555
O7_5 U1_5 1_555 1_555
O8_5 U2_5 1_555 1_555
O9_5 C1_5 1_555 1_555
O10_5 C1_5 1_555 1_555
O11_5 C12_5 1_555 1_555
O12_5 C12_5 1_555 1_555
O13_5 C13_5 1_555 1_555
O14_5 C13_5 1_555 1_555
O17_5 C25_5 1_555 1_555
O19_5 C36_5 1_555 1_555
O20_5 C36_5 1_555 1_555
N8_5 Ni1_5 1_555 1_555
N9_5 Ni1_5 1_555 1_555
Ni3_5 N1_5 1_555 1_555
U4_5 O8_5 1_555 1_555
U5_5 O8_5 1_555 1_555
O21_5 U1_5 1_555 1_555
O22_5 U2_5 1_555 1_555
C6_5 N1_5 1_555 1_555
C8_5 N2_5 1_555 1_555
C10_5 C11_5 1_555 1_555
C22_5 C23_5 1_555 1_555
C30_5 N5_5 1_555 1_555
N2_5 Ni3_5 1_555 1_555
U1_5 O14_5 1_555 1_555
U1_5 O17_5 1_555 1_555
U2_5 O7_5 1_555 1_555
U2_5 O9_5 1_555 1_555
U2_5 O21_5 1_555 1_555
U3_5 O7_5 1_555 1_555
U3_5 O9_5 1_555 1_555
U3_5 O11_5 1_555 1_555
U3_5 O17_5 1_555 1_555
U3_5 O19_5 1_555 1_555
O13_5 U5_5 1_555 1_555
U5_5 O21_5 1_555 1_555
C2_6 C3_6 1_555 1_555
C4_6 C3_6 1_555 1_555
H2_6 C4_6 1_555 1_555
C5_6 C4_6 1_555 1_555
H3_6 C5_6 1_555 1_555
C6_6 C2_6 1_555 1_555
C7_6 C6_6 1_555 1_555
C8_6 H4_6 1_555 1_555
C9_6 C8_6 1_555 1_555
H5_6 C9_6 1_555 1_555
C10_6 C9_6 1_555 1_555
H6_6 C10_6 1_555 1_555
C11_6 C7_6 1_555 1_555
C12_6 C11_6 1_555 1_555
C25_6 C26_6 1_555 1_555
C26_6 C27_6 1_555 1_555
C27_6 H13_6 1_555 1_555
C28_6 C27_6 1_555 1_555
H14_6 C28_6 1_555 1_555
C29_6 C28_6 1_555 1_555
H15_6 C29_6 1_555 1_555
C30_6 C26_6 1_555 1_555
C31_6 C30_6 1_555 1_555
C32_6 H16_6 1_555 1_555
C33_6 C32_6 1_555 1_555
H17_6 C33_6 1_555 1_555
C34_6 C33_6 1_555 1_555
H18_6 C34_6 1_555 1_555
C35_6 C31_6 1_555 1_555
C36_6 C35_6 1_555 1_555
N1_6 C5_6 1_555 1_555
N2_6 C7_6 1_555 1_555
N5_6 C29_6 1_555 1_555
N6_6 C31_6 1_555 1_555
Ni1_6 N5_6 1_555 1_555
O6_6 U3_6 1_555 1_555
O11_6 C12_6 1_555 1_555
O12_6 C12_6 1_555 1_555
O18_6 C25_6 1_555 1_555
O19_6 C36_6 1_555 1_555
O20_6 C36_6 1_555 1_555
N7_6 Ni1_6 1_555 1_555
N8_6 Ni1_6 1_555 1_555
N9_6 Ni1_6 1_555 1_555
N10_6 Ni1_6 1_555 1_555
Ni3_6 N1_6 1_555 1_555
C6_6 N1_6 1_555 1_555
C8_6 N2_6 1_555 1_555
C10_6 C11_6 1_555 1_555
C30_6 N5_6 1_555 1_555
C32_6 N6_6 1_555 1_555
C34_6 C35_6 1_555 1_555
N2_6 Ni3_6 1_555 1_555
N6_6 Ni1_6 1_555 1_555
U3_6 O11_6 1_555 1_555
U3_6 O19_6 1_555 1_555
C13_6 C14_5 1_555 1_555
C14_5 C15_5 1_555 1_555
C15_5 H7_5 1_555 1_555
C16_5 C15_5 1_555 1_555
H8_5 C16_5 1_555 1_555
C18_5 C14_5 1_555 1_555
C19_6 C18_5 1_555 1_555
H12_6 C22_6 1_555 1_555
C23_6 C19_6 1_555 1_555
C24_5 C23_6 1_555 1_555
U1_6 O1_6 1_555 1_555
U2_6 O3_6 1_555 1_555
O2_6 U1_6 1_555 1_555
O4_6 U2_6 1_555 1_555
O7_6 U1_6 1_555 1_555
O8_6 U2_6 1_555 1_555
O9_6 C1_6 1_555 1_555
O10_6 C1_6 1_555 1_555
O13_6 C13_6 1_555 1_555
O14_6 C13_6 1_555 1_555
O15_5 C24_5 1_555 1_555
O16_5 C24_5 1_555 1_555
U4_6 O8_6 1_555 1_555
U5_6 O8_6 1_555 1_555
O21_6 U1_6 1_555 1_555
O22_6 U2_6 1_555 1_555
C22_6 C23_6 1_555 1_555
U1_6 O14_6 1_555 1_555
U1_6 O16_5 1_555 1_555
U1_6 O17_6 1_555 1_555
U2_6 O7_6 1_555 1_555
U2_6 O9_6 1_555 1_555
U2_6 O21_6 1_555 1_555
O13_6 U5_6 1_555 1_555
U5_6 O21_6 1_555 1_555
H9_6 C17_6 1_555 1_555
C20_6 H10_6 1_555 1_555
C21_6 C20_6 1_555 1_555
H11_6 C21_6 1_555 1_555
N3_6 C17_6 1_555 1_555
Ni2_6 N3_6 1_555 1_555
C20_6 N4_6 1_555 1_555
N4_6 Ni2_6 1_555 1_555
C1_7 C2_7 1_555 1_555
C2_7 C3_7 1_555 1_555
C3_7 H1_7 1_555 1_555
C4_7 C3_7 1_555 1_555
H2_7 C4_7 1_555 1_555
C5_7 C4_7 1_555 1_555
H3_7 C5_7 1_555 1_555
C6_7 C2_7 1_555 1_555
C13_7 C14_6 1_555 1_555
C14_6 C15_6 1_555 1_555
C15_6 H7_6 1_555 1_555
C16_6 C15_6 1_555 1_555
H8_6 C16_6 1_555 1_555
C17_7 C16_6 1_555 1_555
H9_7 C17_7 1_555 1_555
C18_6 C14_6 1_555 1_555
C19_7 C18_6 1_555 1_555
C20_7 H10_7 1_555 1_555
C21_7 C20_7 1_555 1_555
H11_7 C21_7 1_555 1_555
C22_7 C21_7 1_555 1_555
H12_7 C22_7 1_555 1_555
C23_7 C19_7 1_555 1_555
C24_6 C23_7 1_555 1_555
C25_7 C26_7 1_555 1_555
C26_7 C27_7 1_555 1_555
C27_7 H13_7 1_555 1_555
C28_7 C27_7 1_555 1_555
H14_7 C28_7 1_555 1_555
C29_7 C28_7 1_555 1_555
H15_7 C29_7 1_555 1_555
C30_7 C26_7 1_555 1_555
C31_7 C30_7 1_555 1_555
C32_7 H16_7 1_555 1_555
C33_7 C32_7 1_555 1_555
H17_7 C33_7 1_555 1_555
C34_7 C33_7 1_555 1_555
H18_7 C34_7 1_555 1_555
C35_7 C31_7 1_555 1_555
C36_7 C35_7 1_555 1_555
N1_7 C5_7 1_555 1_555
N3_7 C17_7 1_555 1_555
N4_7 C19_7 1_555 1_555
N5_7 C29_7 1_555 1_555
N6_7 C31_7 1_555 1_555
Ni1_7 N5_7 1_555 1_555
U1_7 O1_7 1_555 1_555
U2_7 O3_7 1_555 1_555
U3_7 O5_7 1_555 1_555
O2_7 U1_7 1_555 1_555
O4_7 U2_7 1_555 1_555
O6_7 U3_7 1_555 1_555
O7_7 U1_7 1_555 1_555
O8_7 U2_7 1_555 1_555
O9_7 C1_7 1_555 1_555
O13_7 C13_7 1_555 1_555
O14_7 C13_7 1_555 1_555
O15_6 C24_6 1_555 1_555
O16_6 C24_6 1_555 1_555
O17_7 C25_7 1_555 1_555
O18_7 C25_7 1_555 1_555
O19_7 C36_7 1_555 1_555
O20_7 C36_7 1_555 1_555
N7_7 Ni1_7 1_555 1_555
N8_7 Ni1_7 1_555 1_555
N9_7 Ni1_7 1_555 1_555
N10_7 Ni1_7 1_555 1_555
Ni2_7 N3_7 1_555 1_555
U4_7 O8_7 1_555 1_555
U5_7 O8_7 1_555 1_555
O21_7 U1_7 1_555 1_555
O22_7 U2_7 1_555 1_555
C6_7 N1_7 1_555 1_555
C18_6 N3_7 1_555 1_555
C20_7 N4_7 1_555 1_555
C22_7 C23_7 1_555 1_555
C30_7 N5_7 1_555 1_555
C32_7 N6_7 1_555 1_555
C34_7 C35_7 1_555 1_555
N4_7 Ni2_7 1_555 1_555
N6_7 Ni1_7 1_555 1_555
U1_7 O14_7 1_555 1_555
U1_7 O16_6 1_555 1_555
U1_7 O17_7 1_555 1_555
U2_7 O7_7 1_555 1_555
U2_7 O9_7 1_555 1_555
U2_7 O21_7 1_555 1_555
U3_7 O7_7 1_555 1_555
U3_7 O9_7 1_555 1_555
U3_7 O11_7 1_555 1_555
U3_7 O17_7 1_555 1_555
U3_7 O19_7 1_555 1_555
O13_7 U5_7 1_555 1_555
U5_7 O21_7 1_555 1_555
C8_7 H4_7 1_555 1_555
C9_7 C8_7 1_555 1_555
H5_7 C9_7 1_555 1_555
C10_7 C9_7 1_555 1_555
H6_7 C10_7 1_555 1_555
C11_7 C7_7 1_555 1_555
C12_7 C11_7 1_555 1_555
N2_7 C7_7 1_555 1_555
O12_7 C12_7 1_555 1_555
C8_7 N2_7 1_555 1_555
C10_7 C11_7 1_555 1_555
N2_7 Ni3_7 1_555 1_555
C1_8 C2_8 1_555 1_555
C2_8 C3_8 1_555 1_555
C3_8 H1_8 1_555 1_555
C4_8 C3_8 1_555 1_555
H2_8 C4_8 1_555 1_555
C5_8 C4_8 1_555 1_555
H3_8 C5_8 1_555 1_555
C6_8 C2_8 1_555 1_555
C7_8 C6_8 1_555 1_555
C8_8 H4_8 1_555 1_555
C9_8 C8_8 1_555 1_555
H5_8 C9_8 1_555 1_555
C10_8 C9_8 1_555 1_555
H6_8 C10_8 1_555 1_555
C11_8 C7_8 1_555 1_555
C12_8 C11_8 1_555 1_555
C13_8 C14_7 1_555 1_555
C14_7 C15_7 1_555 1_555
C15_7 H7_7 1_555 1_555
C16_7 C15_7 1_555 1_555
H8_7 C16_7 1_555 1_555
C17_8 C16_7 1_555 1_555
H9_8 C17_8 1_555 1_555
C18_7 C14_7 1_555 1_555
C19_8 C18_7 1_555 1_555
C20_8 H10_8 1_555 1_555
C21_8 C20_8 1_555 1_555
H11_8 C21_8 1_555 1_555
C22_8 C21_8 1_555 1_555
H12_8 C22_8 1_555 1_555
C23_8 C19_8 1_555 1_555
C24_7 C23_8 1_555 1_555
C25_8 C26_8 1_555 1_555
C26_8 C27_8 1_555 1_555
C27_8 H13_8 1_555 1_555
C28_8 C27_8 1_555 1_555
H14_8 C28_8 1_555 1_555
C29_8 C28_8 1_555 1_555
H15_8 C29_8 1_555 1_555
C30_8 C26_8 1_555 1_555
C31_8 C30_8 1_555 1_555
C32_8 H16_8 1_555 1_555
C33_8 C32_8 1_555 1_555
H17_8 C33_8 1_555 1_555
C34_8 C33_8 1_555 1_555
H18_8 C34_8 1_555 1_555
C35_8 C31_8 1_555 1_555
C36_8 C35_8 1_555 1_555
N1_8 C5_8 1_555 1_555
N2_8 C7_8 1_555 1_555
N3_8 C17_8 1_555 1_555
N4_8 C19_8 1_555 1_555
N5_8 C29_8 1_555 1_555
N6_8 C31_8 1_555 1_555
Ni1_8 N5_8 1_555 1_555
U1_8 O1_8 1_555 1_555
U2_8 O3_8 1_555 1_555
U3_8 O5_8 1_555 1_555
O2_8 U1_8 1_555 1_555
O4_8 U2_8 1_555 1_555
O6_8 U3_8 1_555 1_555
O7_8 U1_8 1_555 1_555
O8_8 U2_8 1_555 1_555
O9_8 C1_8 1_555 1_555
O10_8 C1_8 1_555 1_555
O11_8 C12_8 1_555 1_555
O12_8 C12_8 1_555 1_555
O13_8 C13_8 1_555 1_555
O14_8 C13_8 1_555 1_555
O15_7 C24_7 1_555 1_555
O16_7 C24_7 1_555 1_555
O17_8 C25_8 1_555 1_555
O18_8 C25_8 1_555 1_555
O19_8 C36_8 1_555 1_555
O20_8 C36_8 1_555 1_555
N7_8 Ni1_8 1_555 1_555
N8_8 Ni1_8 1_555 1_555
N9_8 Ni1_8 1_555 1_555
N10_8 Ni1_8 1_555 1_555
Ni2_8 N3_8 1_555 1_555
Ni3_8 N1_8 1_555 1_555
U4_8 O8_8 1_555 1_555
U5_8 O8_8 1_555 1_555
O21_8 U1_8 1_555 1_555
O22_8 U2_8 1_555 1_555
C6_8 N1_8 1_555 1_555
C8_8 N2_8 1_555 1_555
C10_8 C11_8 1_555 1_555
C18_7 N3_8 1_555 1_555
C20_8 N4_8 1_555 1_555
C22_8 C23_8 1_555 1_555
C30_8 N5_8 1_555 1_555
C32_8 N6_8 1_555 1_555
C34_8 C35_8 1_555 1_555
N2_8 Ni3_8 1_555 1_555
N4_8 Ni2_8 1_555 1_555
N6_8 Ni1_8 1_555 1_555
U1_8 O14_8 1_555 1_555
U1_8 O16_7 1_555 1_555
U1_8 O17_8 1_555 1_555
U2_8 O7_8 1_555 1_555
U2_8 O9_8 1_555 1_555
U2_8 O21_8 1_555 1_555
U3_8 O7_8 1_555 1_555
U3_8 O9_8 1_555 1_555
U3_8 O11_8 1_555 1_555
U3_8 O17_8 1_555 1_555
U3_8 O19_8 1_555 1_555
O13_8 U5_8 1_555 1_555
U5_8 O21_8 1_555 1_555
C20_9 H10_9 1_555 1_555
C21_9 C20_9 1_555 1_555
H11_9 C21_9 1_555 1_555
C22_9 C21_9 1_555 1_555
H12_9 C22_9 1_555 1_555
C23_9 C19_9 1_555 1_555
N4_9 C19_9 1_555 1_555
U4_7 O1_9 1_555 1_555
U5_7 O3_9 1_555 1_555
O2_9 U4_7 1_555 1_555
O4_9 U5_7 1_555 1_555
O7_9 U4_7 1_555 1_555
O9_9 C1_9 1_555 1_555
O10_9 C1_9 1_555 1_555
O22_7 C13_9 1_555 1_555
O14_9 C13_9 1_555 1_555
C20_9 N4_9 1_555 1_555
C22_9 C23_9 1_555 1_555
U4_7 O14_9 1_555 1_555
U4_7 O17_9 1_555 1_555
U5_7 O7_9 1_555 1_555
U5_7 O9_9 1_555 1_555
C2_9 C3_9 1_555 1_555
C4_9 C3_9 1_555 1_555
H2_9 C4_9 1_555 1_555
C5_9 C4_9 1_555 1_555
H3_9 C5_9 1_555 1_555
C6_9 C2_9 1_555 1_555
C7_9 C6_9 1_555 1_555
C8_9 H4_9 1_555 1_555
C9_9 C8_9 1_555 1_555
H5_9 C9_9 1_555 1_555
C10_9 C9_9 1_555 1_555
H6_9 C10_9 1_555 1_555
C11_9 C7_9 1_555 1_555
C12_9 C11_9 1_555 1_555
C25_9 C26_9 1_555 1_555
C26_9 C27_9 1_555 1_555
C27_9 H13_9 1_555 1_555
C28_9 C27_9 1_555 1_555
H14_9 C28_9 1_555 1_555
C29_9 C28_9 1_555 1_555
H15_9 C29_9 1_555 1_555
C30_9 C26_9 1_555 1_555
N1_9 C5_9 1_555 1_555
N2_9 C7_9 1_555 1_555
N5_9 C29_9 1_555 1_555
Ni1_9 N5_9 1_555 1_555
O6_9 U3_9 1_555 1_555
O11_9 C12_9 1_555 1_555
O12_9 C12_9 1_555 1_555
O19_9 C36_9 1_555 1_555
O20_9 C36_9 1_555 1_555
N8_9 Ni1_9 1_555 1_555
N9_9 Ni1_9 1_555 1_555
Ni2_3 N1_9 1_555 1_555
C6_9 N1_9 1_555 1_555
C8_9 N2_9 1_555 1_555
C10_9 C11_9 1_555 1_555
C30_9 N5_9 1_555 1_555
N2_9 Ni2_3 1_555 1_555
U3_9 O11_9 1_555 1_555
U3_9 O19_9 1_555 1_555
C14_8 C15_8 1_555 1_555
C15_8 H7_8 1_555 1_555
C16_8 C15_8 1_555 1_555
H8_8 C16_8 1_555 1_555
C17_9 C16_8 1_555 1_555
H9_9 C17_9 1_555 1_555
C18_8 C14_8 1_555 1_555
N3_9 C17_9 1_555 1_555
O15_8 C24_8 1_555 1_555
O16_8 C24_8 1_555 1_555
Ni3_4 N3_9 1_555 1_555
C18_8 N3_9 1_555 1_555
C32_9 H16_9 1_555 1_555
C33_9 C32_9 1_555 1_555
H17_9 C33_9 1_555 1_555
C34_9 C33_9 1_555 1_555
H18_9 C34_9 1_555 1_555
C35_9 C31_9 1_555 1_555
N6_9 C31_9 1_555 1_555
C32_9 N6_9 1_555 1_555
C34_9 C35_9 1_555 1_555
C1_10 C2_10 1_555 1_555
C2_10 C3_10 1_555 1_555
C3_10 H1_10 1_555 1_555
C4_10 C3_10 1_555 1_555
H2_10 C4_10 1_555 1_555
C5_10 C4_10 1_555 1_555
H3_10 C5_10 1_555 1_555
C6_10 C2_10 1_555 1_555
C7_10 C6_10 1_555 1_555
C8_10 H4_10 1_555 1_555
C9_10 C8_10 1_555 1_555
H5_10 C9_10 1_555 1_555
C10_10 C9_10 1_555 1_555
H6_10 C10_10 1_555 1_555
C11_10 C7_10 1_555 1_555
C12_10 C11_10 1_555 1_555
C13_10 C14_9 1_555 1_555
C14_9 C15_9 1_555 1_555
C15_9 H7_9 1_555 1_555
C16_9 C15_9 1_555 1_555
H8_9 C16_9 1_555 1_555
C17_10 C16_9 1_555 1_555
H9_10 C17_10 1_555 1_555
C18_9 C14_9 1_555 1_555
C19_10 C18_9 1_555 1_555
C20_10 H10_10 1_555 1_555
C21_10 C20_10 1_555 1_555
H11_10 C21_10 1_555 1_555
C22_10 C21_10 1_555 1_555
H12_10 C22_10 1_555 1_555
C23_10 C19_10 1_555 1_555
C24_9 C23_10 1_555 1_555
C25_10 C26_10 1_555 1_555
C26_10 C27_10 1_555 1_555
C27_10 H13_10 1_555 1_555
C28_10 C27_10 1_555 1_555
H14_10 C28_10 1_555 1_555
C29_10 C28_10 1_555 1_555
H15_10 C29_10 1_555 1_555
C30_10 C26_10 1_555 1_555
C31_10 C30_10 1_555 1_555
C32_10 H16_10 1_555 1_555
C33_10 C32_10 1_555 1_555
H17_10 C33_10 1_555 1_555
C34_10 C33_10 1_555 1_555
H18_10 C34_10 1_555 1_555
C35_10 C31_10 1_555 1_555
C36_10 C35_10 1_555 1_555
N1_10 C5_10 1_555 1_555
N2_10 C7_10 1_555 1_555
N3_10 C17_10 1_555 1_555
N4_10 C19_10 1_555 1_555
N5_10 C29_10 1_555 1_555
N6_10 C31_10 1_555 1_555
Ni1_10 N5_10 1_555 1_555
U4_8 O1_10 1_555 1_555
U5_8 O3_10 1_555 1_555
U3_10 O5_10 1_555 1_555
O2_10 U4_8 1_555 1_555
O4_10 U5_8 1_555 1_555
O6_10 U3_10 1_555 1_555
O7_10 U4_8 1_555 1_555
O9_10 C1_10 1_555 1_555
O10_10 C1_10 1_555 1_555
O11_10 C12_10 1_555 1_555
O12_10 C12_10 1_555 1_555
O22_8 C13_10 1_555 1_555
O14_10 C13_10 1_555 1_555
O15_9 C24_9 1_555 1_555
O16_9 C24_9 1_555 1_555
O17_10 C25_10 1_555 1_555
O18_10 C25_10 1_555 1_555
O19_10 C36_10 1_555 1_555
O20_10 C36_10 1_555 1_555
N7_10 Ni1_10 1_555 1_555
N8_10 Ni1_10 1_555 1_555
N9_10 Ni1_10 1_555 1_555
N10_10 Ni1_10 1_555 1_555
Ni3_3 N3_10 1_555 1_555
Ni2_4 N1_10 1_555 1_555
C6_10 N1_10 1_555 1_555
C8_10 N2_10 1_555 1_555
C10_10 C11_10 1_555 1_555
C18_9 N3_10 1_555 1_555
C20_10 N4_10 1_555 1_555
C22_10 C23_10 1_555 1_555
C30_10 N5_10 1_555 1_555
C32_10 N6_10 1_555 1_555
C34_10 C35_10 1_555 1_555
N2_10 Ni2_4 1_555 1_555
N4_10 Ni3_3 1_555 1_555
N6_10 Ni1_10 1_555 1_555
U4_8 O14_10 1_555 1_555
U4_8 O16_9 1_555 1_555
U4_8 O17_10 1_555 1_555
U5_8 O7_10 1_555 1_555
U5_8 O9_10 1_555 1_555
U3_10 O7_10 1_555 1_555
U3_10 O9_10 1_555 1_555
U3_10 O11_10 1_555 1_555
U3_10 O17_10 1_555 1_555
U3_10 O19_10 1_555 1_555
C8_11 H4_11 1_555 1_555
C9_11 C8_11 1_555 1_555
H5_11 C9_11 1_555 1_555
C10_11 C9_11 1_555 1_555
H6_11 C10_11 1_555 1_555
C11_11 C7_11 1_555 1_555
C12_11 C11_11 1_555 1_555
N2_11 C7_11 1_555 1_555
O12_11 C12_11 1_555 1_555
C8_11 N2_11 1_555 1_555
C10_11 C11_11 1_555 1_555
N2_11 Ni2_2 1_555 1_555
C1_11 C2_11 1_555 1_555
C2_11 C3_11 1_555 1_555
C3_11 H1_11 1_555 1_555
C4_11 C3_11 1_555 1_555
H2_11 C4_11 1_555 1_555
C5_11 C4_11 1_555 1_555
H3_11 C5_11 1_555 1_555
C6_11 C2_11 1_555 1_555
C13_11 C14_10 1_555 1_555
C14_10 C15_10 1_555 1_555
C15_10 H7_10 1_555 1_555
C16_10 C15_10 1_555 1_555
H8_10 C16_10 1_555 1_555
C17_11 C16_10 1_555 1_555
H9_11 C17_11 1_555 1_555
C18_10 C14_10 1_555 1_555
C19_11 C18_10 1_555 1_555
C20_11 H10_11 1_555 1_555
C21_11 C20_11 1_555 1_555
H11_11 C21_11 1_555 1_555
C22_11 C21_11 1_555 1_555
H12_11 C22_11 1_555 1_555
C23_11 C19_11 1_555 1_555
C24_10 C23_11 1_555 1_555
C25_11 C26_11 1_555 1_555
C26_11 C27_11 1_555 1_555
C27_11 H13_11 1_555 1_555
C28_11 C27_11 1_555 1_555
H14_11 C28_11 1_555 1_555
C29_11 C28_11 1_555 1_555
H15_11 C29_11 1_555 1_555
C30_11 C26_11 1_555 1_555
C31_11 C30_11 1_555 1_555
C32_11 H16_11 1_555 1_555
C33_11 C32_11 1_555 1_555
H17_11 C33_11 1_555 1_555
C34_11 C33_11 1_555 1_555
H18_11 C34_11 1_555 1_555
C35_11 C31_11 1_555 1_555
C36_11 C35_11 1_555 1_555
N1_11 C5_11 1_555 1_555
N3_11 C17_11 1_555 1_555
N4_11 C19_11 1_555 1_555
N5_11 C29_11 1_555 1_555
N6_11 C31_11 1_555 1_555
Ni1_11 N5_11 1_555 1_555
U4_5 O1_11 1_555 1_555
U5_5 O3_11 1_555 1_555
U3_11 O5_11 1_555 1_555
O2_11 U4_5 1_555 1_555
O4_11 U5_5 1_555 1_555
O6_11 U3_11 1_555 1_555
O7_11 U4_5 1_555 1_555
O9_11 C1_11 1_555 1_555
O22_5 C13_11 1_555 1_555
O14_11 C13_11 1_555 1_555
O15_10 C24_10 1_555 1_555
O16_10 C24_10 1_555 1_555
O17_11 C25_11 1_555 1_555
O18_11 C25_11 1_555 1_555
O19_11 C36_11 1_555 1_555
O20_11 C36_11 1_555 1_555
N7_11 Ni1_11 1_555 1_555
N8_11 Ni1_11 1_555 1_555
N9_11 Ni1_11 1_555 1_555
N10_11 Ni1_11 1_555 1_555
Ni3 N3_11 1_555 1_555
C6_11 N1_11 1_555 1_555
C18_10 N3_11 1_555 1_555
C20_11 N4_11 1_555 1_555
C22_11 C23_11 1_555 1_555
C30_11 N5_11 1_555 1_555
C32_11 N6_11 1_555 1_555
C34_11 C35_11 1_555 1_555
N4_11 Ni3 1_555 1_555
N6_11 Ni1_11 1_555 1_555
U4_5 O14_11 1_555 1_555
U4_5 O16_10 1_555 1_555
U4_5 O17_11 1_555 1_555
U5_5 O7_11 1_555 1_555
U5_5 O9_11 1_555 1_555
U3_11 O7_11 1_555 1_555
U3_11 O9_11 1_555 1_555
U3_11 O11_11 1_555 1_555
U3_11 O17_11 1_555 1_555
U3_11 O19_11 1_555 1_555
C1_12 C2_12 1_555 1_555
C2_12 C3_12 1_555 1_555
C3_12 H1_12 1_555 1_555
C4_12 C3_12 1_555 1_555
H2_12 C4_12 1_555 1_555
C5_12 C4_12 1_555 1_555
H3_12 C5_12 1_555 1_555
C6_12 C2_12 1_555 1_555
C7_12 C6_12 1_555 1_555
C8_12 H4_12 1_555 1_555
C9_12 C8_12 1_555 1_555
H5_12 C9_12 1_555 1_555
C10_12 C9_12 1_555 1_555
H6_12 C10_12 1_555 1_555
C11_12 C7_12 1_555 1_555
C12_12 C11_12 1_555 1_555
C13_12 C14_11 1_555 1_555
C14_11 C15_11 1_555 1_555
C15_11 H7_11 1_555 1_555
C16_11 C15_11 1_555 1_555
H8_11 C16_11 1_555 1_555
C17_12 C16_11 1_555 1_555
H9_12 C17_12 1_555 1_555
C18_11 C14_11 1_555 1_555
C19_12 C18_11 1_555 1_555
C20_12 H10_12 1_555 1_555
C21_12 C20_12 1_555 1_555
H11_12 C21_12 1_555 1_555
C22_12 C21_12 1_555 1_555
H12_12 C22_12 1_555 1_555
C23_12 C19_12 1_555 1_555
C24_11 C23_12 1_555 1_555
C25_12 C26_12 1_555 1_555
C26_12 C27_12 1_555 1_555
C27_12 H13_12 1_555 1_555
C28_12 C27_12 1_555 1_555
H14_12 C28_12 1_555 1_555
C29_12 C28_12 1_555 1_555
H15_12 C29_12 1_555 1_555
C30_12 C26_12 1_555 1_555
C31_12 C30_12 1_555 1_555
C32_12 H16_12 1_555 1_555
C33_12 C32_12 1_555 1_555
H17_12 C33_12 1_555 1_555
C34_12 C33_12 1_555 1_555
H18_12 C34_12 1_555 1_555
C35_12 C31_12 1_555 1_555
C36_12 C35_12 1_555 1_555
N1_12 C5_12 1_555 1_555
N2_12 C7_12 1_555 1_555
N3_12 C17_12 1_555 1_555
N4_12 C19_12 1_555 1_555
N5_12 C29_12 1_555 1_555
N6_12 C31_12 1_555 1_555
Ni1_12 N5_12 1_555 1_555
U4_6 O1_12 1_555 1_555
U5_6 O3_12 1_555 1_555
U3_12 O5_12 1_555 1_555
O2_12 U4_6 1_555 1_555
O4_12 U5_6 1_555 1_555
O6_12 U3_12 1_555 1_555
O7_12 U4_6 1_555 1_555
O9_12 C1_12 1_555 1_555
O10_12 C1_12 1_555 1_555
O11_12 C12_12 1_555 1_555
O12_12 C12_12 1_555 1_555
O22_6 C13_12 1_555 1_555
O14_12 C13_12 1_555 1_555
O15_11 C24_11 1_555 1_555
O16_11 C24_11 1_555 1_555
O17_12 C25_12 1_555 1_555
O18_12 C25_12 1_555 1_555
O19_12 C36_12 1_555 1_555
O20_12 C36_12 1_555 1_555
N7_12 Ni1_12 1_555 1_555
N8_12 Ni1_12 1_555 1_555
N9_12 Ni1_12 1_555 1_555
N10_12 Ni1_12 1_555 1_555
Ni3_2 N3_12 1_555 1_555
Ni2 N1_12 1_555 1_555
C6_12 N1_12 1_555 1_555
C8_12 N2_12 1_555 1_555
C10_12 C11_12 1_555 1_555
C18_11 N3_12 1_555 1_555
C20_12 N4_12 1_555 1_555
C22_12 C23_12 1_555 1_555
C30_12 N5_12 1_555 1_555
C32_12 N6_12 1_555 1_555
C34_12 C35_12 1_555 1_555
N2_12 Ni2 1_555 1_555
N4_12 Ni3_2 1_555 1_555
N6_12 Ni1_12 1_555 1_555
U4_6 O14_12 1_555 1_555
U4_6 O16_11 1_555 1_555
U4_6 O17_12 1_555 1_555
U5_6 O7_12 1_555 1_555
U5_6 O9_12 1_555 1_555
U3_12 O7_12 1_555 1_555
U3_12 O9_12 1_555 1_555
U3_12 O11_12 1_555 1_555
U3_12 O17_12 1_555 1_555
U3_12 O19_12 1_555 1_555
C2_13 C3_13 1_555 1_555
C4_13 C3_13 1_555 1_555
H2_13 C4_13 1_555 1_555
C5_13 C4_13 1_555 1_555
H3_13 C5_13 1_555 1_555
C6_13 C2_13 1_555 1_555
C7_13 C6_13 1_555 1_555
C8_13 H4_13 1_555 1_555
C9_13 C8_13 1_555 1_555
H5_13 C9_13 1_555 1_555
C10_13 C9_13 1_555 1_555
H6_13 C10_13 1_555 1_555
C11_13 C7_13 1_555 1_555
C12_13 C11_13 1_555 1_555
C25_13 C26_13 1_555 1_555
C26_13 C27_13 1_555 1_555
C27_13 H13_13 1_555 1_555
C28_13 C27_13 1_555 1_555
H14_13 C28_13 1_555 1_555
C29_13 C28_13 1_555 1_555
H15_13 C29_13 1_555 1_555
C30_13 C26_13 1_555 1_555
C31_13 C30_13 1_555 1_555
C32_13 H16_13 1_555 1_555
C33_13 C32_13 1_555 1_555
H17_13 C33_13 1_555 1_555
C34_13 C33_13 1_555 1_555
H18_13 C34_13 1_555 1_555
C35_13 C31_13 1_555 1_555
C36_13 C35_13 1_555 1_555
N1_13 C5_13 1_555 1_555
N2_13 C7_13 1_555 1_555
N5_13 C29_13 1_555 1_555
N6_13 C31_13 1_555 1_555
Ni1_13 N5_13 1_555 1_555
O6_13 U3_13 1_555 1_555
O11_13 C12_13 1_555 1_555
O12_13 C12_13 1_555 1_555
O18_13 C25_13 1_555 1_555
O19_13 C36_13 1_555 1_555
O20_13 C36_13 1_555 1_555
N7_13 Ni1_13 1_555 1_555
N8_13 Ni1_13 1_555 1_555
N9_13 Ni1_13 1_555 1_555
N10_13 Ni1_13 1_555 1_555
Ni2_7 N1_13 1_555 1_555
C6_13 N1_13 1_555 1_555
C8_13 N2_13 1_555 1_555
C10_13 C11_13 1_555 1_555
C30_13 N5_13 1_555 1_555
C32_13 N6_13 1_555 1_555
C34_13 C35_13 1_555 1_555
N2_13 Ni2_7 1_555 1_555
N6_13 Ni1_13 1_555 1_555
U3_13 O11_13 1_555 1_555
U3_13 O19_13 1_555 1_555
C13_13 C14_12 1_555 1_555
C14_12 C15_12 1_555 1_555
C15_12 H7_12 1_555 1_555
C16_12 C15_12 1_555 1_555
H8_12 C16_12 1_555 1_555
C17_13 C16_12 1_555 1_555
H9_13 C17_13 1_555 1_555
C18_12 C14_12 1_555 1_555
C19_13 C18_12 1_555 1_555
C20_13 H10_13 1_555 1_555
C21_13 C20_13 1_555 1_555
H11_13 C21_13 1_555 1_555
C22_13 C21_13 1_555 1_555
H12_13 C22_13 1_555 1_555
C23_13 C19_13 1_555 1_555
C24_12 C23_13 1_555 1_555
N3_13 C17_13 1_555 1_555
N4_13 C19_13 1_555 1_555
U4_3 O1_13 1_555 1_555
U5_3 O3_13 1_555 1_555
O2_13 U4_3 1_555 1_555
O4_13 U5_3 1_555 1_555
O7_13 U4_3 1_555 1_555
O9_13 C1_13 1_555 1_555
O10_13 C1_13 1_555 1_555
O22_3 C13_13 1_555 1_555
O14_13 C13_13 1_555 1_555
O15_12 C24_12 1_555 1_555
O16_12 C24_12 1_555 1_555
Ni3_8 N3_13 1_555 1_555
C18_12 N3_13 1_555 1_555
C20_13 N4_13 1_555 1_555
C22_13 C23_13 1_555 1_555
N4_13 Ni3_8 1_555 1_555
U4_3 O14_13 1_555 1_555
U4_3 O16_12 1_555 1_555
U4_3 O17_13 1_555 1_555
U5_3 O7_13 1_555 1_555
U5_3 O9_13 1_555 1_555
C1_14 C2_14 1_555 1_555
C2_14 C3_14 1_555 1_555
C3_14 H1_14 1_555 1_555
C4_14 C3_14 1_555 1_555
H2_14 C4_14 1_555 1_555
C5_14 C4_14 1_555 1_555
H3_14 C5_14 1_555 1_555
C6_14 C2_14 1_555 1_555
C7_14 C6_14 1_555 1_555
C8_14 H4_14 1_555 1_555
C9_14 C8_14 1_555 1_555
H5_14 C9_14 1_555 1_555
C10_14 C9_14 1_555 1_555
H6_14 C10_14 1_555 1_555
C11_14 C7_14 1_555 1_555
C12_14 C11_14 1_555 1_555
C20_14 H10_14 1_555 1_555
C21_14 C20_14 1_555 1_555
H11_14 C21_14 1_555 1_555
C22_14 C21_14 1_555 1_555
H12_14 C22_14 1_555 1_555
C23_14 C19_14 1_555 1_555
C25_14 C26_14 1_555 1_555
C26_14 C27_14 1_555 1_555
C27_14 H13_14 1_555 1_555
C28_14 C27_14 1_555 1_555
H14_14 C28_14 1_555 1_555
C29_14 C28_14 1_555 1_555
H15_14 C29_14 1_555 1_555
C30_14 C26_14 1_555 1_555
N1_14 C5_14 1_555 1_555
N2_14 C7_14 1_555 1_555
N4_14 C19_14 1_555 1_555
N5_14 C29_14 1_555 1_555
Ni1_14 N5_14 1_555 1_555
U4_4 O1_14 1_555 1_555
U5_4 O3_14 1_555 1_555
U3_14 O5_14 1_555 1_555
O2_14 U4_4 1_555 1_555
O4_14 U5_4 1_555 1_555
O6_14 U3_14 1_555 1_555
O7_14 U4_4 1_555 1_555
O9_14 C1_14 1_555 1_555
O10_14 C1_14 1_555 1_555
O11_14 C12_14 1_555 1_555
O12_14 C12_14 1_555 1_555
O22_4 C13_14 1_555 1_555
O14_14 C13_14 1_555 1_555
O17_14 C25_14 1_555 1_555
O19_14 C36_14 1_555 1_555
O20_14 C36_14 1_555 1_555
N8_14 Ni1_14 1_555 1_555
N9_14 Ni1_14 1_555 1_555
Ni2_8 N1_14 1_555 1_555
C6_14 N1_14 1_555 1_555
C8_14 N2_14 1_555 1_555
C10_14 C11_14 1_555 1_555
C20_14 N4_14 1_555 1_555
C22_14 C23_14 1_555 1_555
C30_14 N5_14 1_555 1_555
N2_14 Ni2_8 1_555 1_555
U4_4 O14_14 1_555 1_555
U4_4 O17_14 1_555 1_555
U5_4 O7_14 1_555 1_555
U5_4 O9_14 1_555 1_555
U3_14 O7_14 1_555 1_555
U3_14 O9_14 1_555 1_555
U3_14 O11_14 1_555 1_555
U3_14 O17_14 1_555 1_555
U3_14 O19_14 1_555 1_555
C14_13 C15_13 1_555 1_555
C15_13 H7_13 1_555 1_555
C16_13 C15_13 1_555 1_555
H8_13 C16_13 1_555 1_555
C17_14 C16_13 1_555 1_555
H9_14 C17_14 1_555 1_555
C18_13 C14_13 1_555 1_555
C32_14 H16_14 1_555 1_555
C33_14 C32_14 1_555 1_555
H17_14 C33_14 1_555 1_555
C34_14 C33_14 1_555 1_555
H18_14 C34_14 1_555 1_555
C35_14 C31_14 1_555 1_555
N3_14 C17_14 1_555 1_555
N6_14 C31_14 1_555 1_555
O15_13 C24_13 1_555 1_555
O16_13 C24_13 1_555 1_555
Ni3_7 N3_14 1_555 1_555
C18_13 N3_14 1_555 1_555
C32_14 N6_14 1_555 1_555
C34_14 C35_14 1_555 1_555
C1_15 C2_15 1_555 1_555
C2_15 C3_15 1_555 1_555
C3_15 H1_15 1_555 1_555
C4_15 C3_15 1_555 1_555
H2_15 C4_15 1_555 1_555
C5_15 C4_15 1_555 1_555
H3_15 C5_15 1_555 1_555
C6_15 C2_15 1_555 1_555
C7_15 C6_15 1_555 1_555
C8_15 H4_15 1_555 1_555
C9_15 C8_15 1_555 1_555
H5_15 C9_15 1_555 1_555
C10_15 C9_15 1_555 1_555
H6_15 C10_15 1_555 1_555
C11_15 C7_15 1_555 1_555
C12_15 C11_15 1_555 1_555
C13_15 C14_14 1_555 1_555
C14_14 C15_14 1_555 1_555
C15_14 H7_14 1_555 1_555
C16_14 C15_14 1_555 1_555
H8_14 C16_14 1_555 1_555
C17_15 C16_14 1_555 1_555
H9_15 C17_15 1_555 1_555
C18_14 C14_14 1_555 1_555
C19_15 C18_14 1_555 1_555
C20_15 H10_15 1_555 1_555
C21_15 C20_15 1_555 1_555
H11_15 C21_15 1_555 1_555
C22_15 C21_15 1_555 1_555
H12_15 C22_15 1_555 1_555
C23_15 C19_15 1_555 1_555
C24_14 C23_15 1_555 1_555
C25_15 C26_15 1_555 1_555
C26_15 C27_15 1_555 1_555
C27_15 H13_15 1_555 1_555
C28_15 C27_15 1_555 1_555
H14_15 C28_15 1_555 1_555
C29_15 C28_15 1_555 1_555
H15_15 C29_15 1_555 1_555
C30_15 C26_15 1_555 1_555
C31_15 C30_15 1_555 1_555
C32_15 H16_15 1_555 1_555
C33_15 C32_15 1_555 1_555
H17_15 C33_15 1_555 1_555
C34_15 C33_15 1_555 1_555
H18_15 C34_15 1_555 1_555
C35_15 C31_15 1_555 1_555
C36_15 C35_15 1_555 1_555
N1_15 C5_15 1_555 1_555
N2_15 C7_15 1_555 1_555
N3_15 C17_15 1_555 1_555
N4_15 C19_15 1_555 1_555
N5_15 C29_15 1_555 1_555
N6_15 C31_15 1_555 1_555
Ni1_15 N5_15 1_555 1_555
U4 O1_15 1_555 1_555
U5 O3_15 1_555 1_555
U3_15 O5_15 1_555 1_555
O2_15 U4 1_555 1_555
O4_15 U5 1_555 1_555
O6_15 U3_15 1_555 1_555
O7_15 U4 1_555 1_555
O9_15 C1_15 1_555 1_555
O10_15 C1_15 1_555 1_555
O11_15 C12_15 1_555 1_555
O12_15 C12_15 1_555 1_555
O22 C13_15 1_555 1_555
O14_15 C13_15 1_555 1_555
O15_14 C24_14 1_555 1_555
O16_14 C24_14 1_555 1_555
O17_15 C25_15 1_555 1_555
O18_15 C25_15 1_555 1_555
O19_15 C36_15 1_555 1_555
O20_15 C36_15 1_555 1_555
N7_15 Ni1_15 1_555 1_555
N8_15 Ni1_15 1_555 1_555
N9_15 Ni1_15 1_555 1_555
N10_15 Ni1_15 1_555 1_555
Ni3_5 N3_15 1_555 1_555
Ni2_6 N1_15 1_555 1_555
C6_15 N1_15 1_555 1_555
C8_15 N2_15 1_555 1_555
C10_15 C11_15 1_555 1_555
C18_14 N3_15 1_555 1_555
C20_15 N4_15 1_555 1_555
C22_15 C23_15 1_555 1_555
C30_15 N5_15 1_555 1_555
C32_15 N6_15 1_555 1_555
C34_15 C35_15 1_555 1_555
N2_15 Ni2_6 1_555 1_555
N4_15 Ni3_5 1_555 1_555
N6_15 Ni1_15 1_555 1_555
U4 O14_15 1_555 1_555
U4 O16_14 1_555 1_555
U4 O17_15 1_555 1_555
U5 O7_15 1_555 1_555
U5 O9_15 1_555 1_555
U3_15 O7_15 1_555 1_555
U3_15 O9_15 1_555 1_555
U3_15 O11_15 1_555 1_555
U3_15 O17_15 1_555 1_555
U3_15 O19_15 1_555 1_555
C8_16 H4_16 1_555 1_555
C9_16 C8_16 1_555 1_555
H5_16 C9_16 1_555 1_555
C10_16 C9_16 1_555 1_555
H6_16 C10_16 1_555 1_555
C11_16 C7_16 1_555 1_555
C12_16 C11_16 1_555 1_555
N2_16 C7_16 1_555 1_555
O12_16 C12_16 1_555 1_555
C8_16 N2_16 1_555 1_555
C10_16 C11_16 1_555 1_555
N2_16 Ni2_5 1_555 1_555
C1_16 C2_16 1_555 1_555
C2_16 C3_16 1_555 1_555
C3_16 H1_16 1_555 1_555
C4_16 C3_16 1_555 1_555
H2_16 C4_16 1_555 1_555
C5_16 C4_16 1_555 1_555
H3_16 C5_16 1_555 1_555
C6_16 C2_16 1_555 1_555
C13_16 C14_15 1_555 1_555
C14_15 C15_15 1_555 1_555
C15_15 H7_15 1_555 1_555
C16_15 C15_15 1_555 1_555
H8_15 C16_15 1_555 1_555
C17_16 C16_15 1_555 1_555
H9_16 C17_16 1_555 1_555
C18_15 C14_15 1_555 1_555
C19_16 C18_15 1_555 1_555
C20_16 H10_16 1_555 1_555
C21_16 C20_16 1_555 1_555
H11_16 C21_16 1_555 1_555
C22_16 C21_16 1_555 1_555
H12_16 C22_16 1_555 1_555
C23_16 C19_16 1_555 1_555
C24_15 C23_16 1_555 1_555
C25_16 C26_16 1_555 1_555
C26_16 C27_16 1_555 1_555
C27_16 H13_16 1_555 1_555
C28_16 C27_16 1_555 1_555
H14_16 C28_16 1_555 1_555
C29_16 C28_16 1_555 1_555
H15_16 C29_16 1_555 1_555
C30_16 C26_16 1_555 1_555
C31_16 C30_16 1_555 1_555
C32_16 H16_16 1_555 1_555
C33_16 C32_16 1_555 1_555
H17_16 C33_16 1_555 1_555
C34_16 C33_16 1_555 1_555
H18_16 C34_16 1_555 1_555
C35_16 C31_16 1_555 1_555
C36_16 C35_16 1_555 1_555
N1_16 C5_16 1_555 1_555
N3_16 C17_16 1_555 1_555
N4_16 C19_16 1_555 1_555
N5_16 C29_16 1_555 1_555
N6_16 C31_16 1_555 1_555
Ni1_16 N5_16 1_555 1_555
U4_2 O1_16 1_555 1_555
U5_2 O3_16 1_555 1_555
U3_16 O5_16 1_555 1_555
O2_16 U4_2 1_555 1_555
O4_16 U5_2 1_555 1_555
O6_16 U3_16 1_555 1_555
O7_16 U4_2 1_555 1_555
O9_16 C1_16 1_555 1_555
O22_2 C13_16 1_555 1_555
O14_16 C13_16 1_555 1_555
O15_15 C24_15 1_555 1_555
O16_15 C24_15 1_555 1_555
O17_16 C25_16 1_555 1_555
O18_16 C25_16 1_555 1_555
O19_16 C36_16 1_555 1_555
O20_16 C36_16 1_555 1_555
N7_16 Ni1_16 1_555 1_555
N8_16 Ni1_16 1_555 1_555
N9_16 Ni1_16 1_555 1_555
N10_16 Ni1_16 1_555 1_555
Ni3_6 N3_16 1_555 1_555
C6_16 N1_16 1_555 1_555
C18_15 N3_16 1_555 1_555
C20_16 N4_16 1_555 1_555
C22_16 C23_16 1_555 1_555
C30_16 N5_16 1_555 1_555
C32_16 N6_16 1_555 1_555
C34_16 C35_16 1_555 1_555
N4_16 Ni3_6 1_555 1_555
N6_16 Ni1_16 1_555 1_555
U4_2 O14_16 1_555 1_555
U4_2 O16_15 1_555 1_555
U4_2 O17_16 1_555 1_555
U5_2 O7_16 1_555 1_555
U5_2 O9_16 1_555 1_555
U3_16 O7_16 1_555 1_555
U3_16 O9_16 1_555 1_555
U3_16 O11_16 1_555 1_555
U3_16 O17_16 1_555 1_555
U3_16 O19_16 1_555 1_555
C1_17 C2_17 1_555 1_555
C2_17 C3_17 1_555 1_555
C3_17 H1_17 1_555 1_555
C4_17 C3_17 1_555 1_555
H2_17 C4_17 1_555 1_555
C5_17 C4_17 1_555 1_555
H3_17 C5_17 1_555 1_555
C6_17 C2_17 1_555 1_555
C7_17 C6_17 1_555 1_555
C8_17 H4_17 1_555 1_555
C9_17 C8_17 1_555 1_555
H5_17 C9_17 1_555 1_555
C10_17 C9_17 1_555 1_555
H6_17 C10_17 1_555 1_555
C11_17 C7_17 1_555 1_555
C12_17 C11_17 1_555 1_555
C13_17 C14_16 1_555 1_555
C14_16 C15_16 1_555 1_555
C15_16 H7_16 1_555 1_555
C16_16 C15_16 1_555 1_555
H8_16 C16_16 1_555 1_555
C18_16 C14_16 1_555 1_555
C19_17 C18_16 1_555 1_555
H12_17 C22_17 1_555 1_555
C23_17 C19_17 1_555 1_555
C24_16 C23_17 1_555 1_555
C25_17 C26_17 1_555 1_555
C26_17 C27_17 1_555 1_555
C27_17 H13_17 1_555 1_555
C28_17 C27_17 1_555 1_555
H14_17 C28_17 1_555 1_555
C29_17 C28_17 1_555 1_555
H15_17 C29_17 1_555 1_555
C30_17 C26_17 1_555 1_555
C31_17 C30_17 1_555 1_555
C32_17 H16_17 1_555 1_555
C33_17 C32_17 1_555 1_555
H17_17 C33_17 1_555 1_555
C34_17 C33_17 1_555 1_555
H18_17 C34_17 1_555 1_555
C35_17 C31_17 1_555 1_555
C36_17 C35_17 1_555 1_555
N7_3 C5_17 1_555 1_555
N8_3 C7_17 1_555 1_555
N5_17 C29_17 1_555 1_555
N6_17 C31_17 1_555 1_555
Ni2 N5_17 1_555 1_555
U1_9 O1_17 1_555 1_555
U2_9 O3_17 1_555 1_555
U3_17 O5_17 1_555 1_555
O2_17 U1_9 1_555 1_555
O4_17 U2_9 1_555 1_555
O6_17 U3_17 1_555 1_555
O7_17 U1_9 1_555 1_555
O8_9 U2_9 1_555 1_555
O9_17 C1_17 1_555 1_555
O10_17 C1_17 1_555 1_555
O11_17 C12_17 1_555 1_555
O12_17 C12_17 1_555 1_555
O13_9 C13_17 1_555 1_555
O14_17 C13_17 1_555 1_555
O15_16 C24_16 1_555 1_555
O16_16 C24_16 1_555 1_555
O17_17 C25_17 1_555 1_555
O18_17 C25_17 1_555 1_555
O19_17 C36_17 1_555 1_555
O20_17 C36_17 1_555 1_555
U4_9 O8_9 1_555 1_555
U5_9 O8_9 1_555 1_555
O21_9 U1_9 1_555 1_555
O22_9 U2_9 1_555 1_555
C6_17 N7_3 1_555 1_555
C8_17 N8_3 1_555 1_555
C10_17 C11_17 1_555 1_555
C22_17 C23_17 1_555 1_555
C30_17 N5_17 1_555 1_555
C32_17 N6_17 1_555 1_555
C34_17 C35_17 1_555 1_555
N6_17 Ni2 1_555 1_555
U1_9 O14_17 1_555 1_555
U1_9 O16_16 1_555 1_555
U1_9 O17_17 1_555 1_555
U2_9 O7_17 1_555 1_555
U2_9 O9_17 1_555 1_555
U2_9 O21_9 1_555 1_555
U3_17 O7_17 1_555 1_555
U3_17 O9_17 1_555 1_555
U3_17 O11_17 1_555 1_555
U3_17 O17_17 1_555 1_555
U3_17 O19_17 1_555 1_555
O13_9 U5_9 1_555 1_555
U5_9 O21_9 1_555 1_555
H9_17 C17_17 1_555 1_555
C20_17 H10_17 1_555 1_555
C21_17 C20_17 1_555 1_555
H11_17 C21_17 1_555 1_555
N9 C17_17 1_555 1_555
C20_17 N10 1_555 1_555
C20_18 H10_18 1_555 1_555
C21_18 C20_18 1_555 1_555
H11_18 C21_18 1_555 1_555
C20_18 N10_2 1_555 1_555
C2_18 C3_18 1_555 1_555
C4_18 C3_18 1_555 1_555
H2_18 C4_18 1_555 1_555
C5_18 C4_18 1_555 1_555
H3_18 C5_18 1_555 1_555
C6_18 C2_18 1_555 1_555
C7_18 C6_18 1_555 1_555
C8_18 H4_18 1_555 1_555
C9_18 C8_18 1_555 1_555
H5_18 C9_18 1_555 1_555
C10_18 C9_18 1_555 1_555
H6_18 C10_18 1_555 1_555
C11_18 C7_18 1_555 1_555
C12_18 C11_18 1_555 1_555
C25_18 C26_18 1_555 1_555
C26_18 C27_18 1_555 1_555
C27_18 H13_18 1_555 1_555
C28_18 C27_18 1_555 1_555
H14_18 C28_18 1_555 1_555
C29_18 C28_18 1_555 1_555
H15_18 C29_18 1_555 1_555
C30_18 C26_18 1_555 1_555
N7_4 C5_18 1_555 1_555
N8_4 C7_18 1_555 1_555
N5_18 C29_18 1_555 1_555
Ni2_2 N5_18 1_555 1_555
O6_18 U3_18 1_555 1_555
O11_18 C12_18 1_555 1_555
O12_18 C12_18 1_555 1_555
O19_18 C36_18 1_555 1_555
O20_18 C36_18 1_555 1_555
C6_18 N7_4 1_555 1_555
C8_18 N8_4 1_555 1_555
C10_18 C11_18 1_555 1_555
C30_18 N5_18 1_555 1_555
U3_18 O11_18 1_555 1_555
U3_18 O19_18 1_555 1_555
H12_18 C22_18 1_555 1_555
C23_18 C19_18 1_555 1_555
U1_10 O1_18 1_555 1_555
U2_10 O3_18 1_555 1_555
O2_18 U1_10 1_555 1_555
O4_18 U2_10 1_555 1_555
O7_18 U1_10 1_555 1_555
O8_10 U2_10 1_555 1_555
O9_18 C1_18 1_555 1_555
O10_18 C1_18 1_555 1_555
O13_10 C13_18 1_555 1_555
O14_18 C13_18 1_555 1_555
U4_10 O8_10 1_555 1_555
U5_10 O8_10 1_555 1_555
O21_10 U1_10 1_555 1_555
O22_10 U2_10 1_555 1_555
C22_18 C23_18 1_555 1_555
U1_10 O14_18 1_555 1_555
U1_10 O17_18 1_555 1_555
U2_10 O7_18 1_555 1_555
U2_10 O9_18 1_555 1_555
U2_10 O21_10 1_555 1_555
O13_10 U5_10 1_555 1_555
U5_10 O21_10 1_555 1_555
H9_18 C17_18 1_555 1_555
N9_2 C17_18 1_555 1_555
C32_18 H16_18 1_555 1_555
C33_18 C32_18 1_555 1_555
H17_18 C33_18 1_555 1_555
C34_18 C33_18 1_555 1_555
H18_18 C34_18 1_555 1_555
C35_18 C31_18 1_555 1_555
N6_18 C31_18 1_555 1_555
C32_18 N6_18 1_555 1_555
C34_18 C35_18 1_555 1_555
C1_19 C2_19 1_555 1_555
C2_19 C3_19 1_555 1_555
C3_19 H1_19 1_555 1_555
C4_19 C3_19 1_555 1_555
H2_19 C4_19 1_555 1_555
C5_19 C4_19 1_555 1_555
H3_19 C5_19 1_555 1_555
C6_19 C2_19 1_555 1_555
C7_19 C6_19 1_555 1_555
C8_19 H4_19 1_555 1_555
C9_19 C8_19 1_555 1_555
H5_19 C9_19 1_555 1_555
C10_19 C9_19 1_555 1_555
H6_19 C10_19 1_555 1_555
C11_19 C7_19 1_555 1_555
C12_19 C11_19 1_555 1_555
C13_19 C14_17 1_555 1_555
C14_17 C15_17 1_555 1_555
C15_17 H7_17 1_555 1_555
C16_17 C15_17 1_555 1_555
H8_17 C16_17 1_555 1_555
C17_19 C16_17 1_555 1_555
H9_19 C17_19 1_555 1_555
C18_17 C14_17 1_555 1_555
C19_19 C18_17 1_555 1_555
C20_19 H10_19 1_555 1_555
C21_19 C20_19 1_555 1_555
H11_19 C21_19 1_555 1_555
C22_19 C21_19 1_555 1_555
H12_19 C22_19 1_555 1_555
C23_19 C19_19 1_555 1_555
C24_17 C23_19 1_555 1_555
C25_19 C26_19 1_555 1_555
C26_19 C27_19 1_555 1_555
C27_19 H13_19 1_555 1_555
C28_19 C27_19 1_555 1_555
H14_19 C28_19 1_555 1_555
C29_19 C28_19 1_555 1_555
H15_19 C29_19 1_555 1_555
C30_19 C26_19 1_555 1_555
C31_19 C30_19 1_555 1_555
C32_19 H16_19 1_555 1_555
C33_19 C32_19 1_555 1_555
H17_19 C33_19 1_555 1_555
C34_19 C33_19 1_555 1_555
H18_19 C34_19 1_555 1_555
C35_19 C31_19 1_555 1_555
C36_19 C35_19 1_555 1_555
N7_10 C5_19 1_555 1_555
N8_10 C7_19 1_555 1_555
N9_11 C17_19 1_555 1_555
N10_11 C19_19 1_555 1_555
N5_19 C29_19 1_555 1_555
N6_19 C31_19 1_555 1_555
Ni3 N5_19 1_555 1_555
U1_11 O1_19 1_555 1_555
U2_11 O3_19 1_555 1_555
U3_19 O5_19 1_555 1_555
O2_19 U1_11 1_555 1_555
O4_19 U2_11 1_555 1_555
O6_19 U3_19 1_555 1_555
O7_19 U1_11 1_555 1_555
O8_11 U2_11 1_555 1_555
O9_19 C1_19 1_555 1_555
O10_19 C1_19 1_555 1_555
O11_19 C12_19 1_555 1_555
O12_19 C12_19 1_555 1_555
O13_11 C13_19 1_555 1_555
O14_19 C13_19 1_555 1_555
O15_17 C24_17 1_555 1_555
O16_17 C24_17 1_555 1_555
O17_19 C25_19 1_555 1_555
O18_19 C25_19 1_555 1_555
O19_19 C36_19 1_555 1_555
O20_19 C36_19 1_555 1_555
U4_11 O8_11 1_555 1_555
U5_11 O8_11 1_555 1_555
O21_11 U1_11 1_555 1_555
O22_11 U2_11 1_555 1_555
C6_19 N7_10 1_555 1_555
C8_19 N8_10 1_555 1_555
C10_19 C11_19 1_555 1_555
C18_17 N9_11 1_555 1_555
C20_19 N10_11 1_555 1_555
C22_19 C23_19 1_555 1_555
C30_19 N5_19 1_555 1_555
C32_19 N6_19 1_555 1_555
C34_19 C35_19 1_555 1_555
N6_19 Ni3 1_555 1_555
U1_11 O14_19 1_555 1_555
U1_11 O16_17 1_555 1_555
U1_11 O17_19 1_555 1_555
U2_11 O7_19 1_555 1_555
U2_11 O9_19 1_555 1_555
U2_11 O21_11 1_555 1_555
U3_19 O7_19 1_555 1_555
U3_19 O9_19 1_555 1_555
U3_19 O11_19 1_555 1_555
U3_19 O17_19 1_555 1_555
U3_19 O19_19 1_555 1_555
O13_11 U5_11 1_555 1_555
U5_11 O21_11 1_555 1_555
C8_20 H4_20 1_555 1_555
C9_20 C8_20 1_555 1_555
H5_20 C9_20 1_555 1_555
C10_20 C9_20 1_555 1_555
H6_20 C10_20 1_555 1_555
C11_20 C7_20 1_555 1_555
C12_20 C11_20 1_555 1_555
N8_9 C7_20 1_555 1_555
O12_20 C12_20 1_555 1_555
C8_20 N8_9 1_555 1_555
C10_20 C11_20 1_555 1_555
C1_20 C2_20 1_555 1_555
C2_20 C3_20 1_555 1_555
C3_20 H1_20 1_555 1_555
C4_20 C3_20 1_555 1_555
H2_20 C4_20 1_555 1_555
C5_20 C4_20 1_555 1_555
H3_20 C5_20 1_555 1_555
C6_20 C2_20 1_555 1_555
C13_20 C14_18 1_555 1_555
C14_18 C15_18 1_555 1_555
C15_18 H7_18 1_555 1_555
C16_18 C15_18 1_555 1_555
H8_18 C16_18 1_555 1_555
C17_20 C16_18 1_555 1_555
H9_20 C17_20 1_555 1_555
C18_18 C14_18 1_555 1_555
C19_20 C18_18 1_555 1_555
C20_20 H10_20 1_555 1_555
C21_20 C20_20 1_555 1_555
H11_20 C21_20 1_555 1_555
C22_20 C21_20 1_555 1_555
H12_20 C22_20 1_555 1_555
C23_20 C19_20 1_555 1_555
C24_18 C23_20 1_555 1_555
C25_20 C26_20 1_555 1_555
C26_20 C27_20 1_555 1_555
C27_20 H13_20 1_555 1_555
C28_20 C27_20 1_555 1_555
H14_20 C28_20 1_555 1_555
C29_20 C28_20 1_555 1_555
H15_20 C29_20 1_555 1_555
C30_20 C26_20 1_555 1_555
C31_20 C30_20 1_555 1_555
C32_20 H16_20 1_555 1_555
C33_20 C32_20 1_555 1_555
H17_20 C33_20 1_555 1_555
C34_20 C33_20 1_555 1_555
H18_20 C34_20 1_555 1_555
C35_20 C31_20 1_555 1_555
C36_20 C35_20 1_555 1_555
N7_9 C5_20 1_555 1_555
N9_12 C17_20 1_555 1_555
N10_12 C19_20 1_555 1_555
N5_20 C29_20 1_555 1_555
N6_20 C31_20 1_555 1_555
Ni3_2 N5_20 1_555 1_555
U1_12 O1_20 1_555 1_555
U2_12 O3_20 1_555 1_555
U3_20 O5_20 1_555 1_555
O2_20 U1_12 1_555 1_555
O4_20 U2_12 1_555 1_555
O6_20 U3_20 1_555 1_555
O7_20 U1_12 1_555 1_555
O8_12 U2_12 1_555 1_555
O9_20 C1_20 1_555 1_555
O13_12 C13_20 1_555 1_555
O14_20 C13_20 1_555 1_555
O15_18 C24_18 1_555 1_555
O16_18 C24_18 1_555 1_555
O17_20 C25_20 1_555 1_555
O18_20 C25_20 1_555 1_555
O19_20 C36_20 1_555 1_555
O20_20 C36_20 1_555 1_555
U4_12 O8_12 1_555 1_555
U5_12 O8_12 1_555 1_555
O21_12 U1_12 1_555 1_555
O22_12 U2_12 1_555 1_555
C6_20 N7_9 1_555 1_555
C18_18 N9_12 1_555 1_555
C20_20 N10_12 1_555 1_555
C22_20 C23_20 1_555 1_555
C30_20 N5_20 1_555 1_555
C32_20 N6_20 1_555 1_555
C34_20 C35_20 1_555 1_555
N6_20 Ni3_2 1_555 1_555
U1_12 O14_20 1_555 1_555
U1_12 O16_18 1_555 1_555
U1_12 O17_20 1_555 1_555
U2_12 O7_20 1_555 1_555
U2_12 O9_20 1_555 1_555
U2_12 O21_12 1_555 1_555
U3_20 O7_20 1_555 1_555
U3_20 O9_20 1_555 1_555
U3_20 O11_20 1_555 1_555
U3_20 O17_20 1_555 1_555
U3_20 O19_20 1_555 1_555
O13_12 U5_12 1_555 1_555
U5_12 O21_12 1_555 1_555
C1_21 C2_21 1_555 1_555
C2_21 C3_21 1_555 1_555
C3_21 H1_21 1_555 1_555
C4_21 C3_21 1_555 1_555
H2_21 C4_21 1_555 1_555
C5_21 C4_21 1_555 1_555
H3_21 C5_21 1_555 1_555
C6_21 C2_21 1_555 1_555
C7_21 C6_21 1_555 1_555
C8_21 H4_21 1_555 1_555
C9_21 C8_21 1_555 1_555
H5_21 C9_21 1_555 1_555
C10_21 C9_21 1_555 1_555
H6_21 C10_21 1_555 1_555
C11_21 C7_21 1_555 1_555
C12_21 C11_21 1_555 1_555
H12_21 C22_21 1_555 1_555
C23_21 C19_21 1_555 1_555
C25_21 C26_21 1_555 1_555
C26_21 C27_21 1_555 1_555
C27_21 H13_21 1_555 1_555
C28_21 C27_21 1_555 1_555
H14_21 C28_21 1_555 1_555
C29_21 C28_21 1_555 1_555
H15_21 C29_21 1_555 1_555
C30_21 C26_21 1_555 1_555
N7_7 C5_21 1_555 1_555
N8_7 C7_21 1_555 1_555
N5_21 C29_21 1_555 1_555
Ni2_5 N5_21 1_555 1_555
U1_13 O1_21 1_555 1_555
U2_13 O3_21 1_555 1_555
U3_21 O5_21 1_555 1_555
O2_21 U1_13 1_555 1_555
O4_21 U2_13 1_555 1_555
O6_21 U3_21 1_555 1_555
O7_21 U1_13 1_555 1_555
O8_13 U2_13 1_555 1_555
O9_21 C1_21 1_555 1_555
O10_21 C1_21 1_555 1_555
O11_21 C12_21 1_555 1_555
O12_21 C12_21 1_555 1_555
O13_13 C13_21 1_555 1_555
O14_21 C13_21 1_555 1_555
O17_21 C25_21 1_555 1_555
O19_21 C36_21 1_555 1_555
O20_21 C36_21 1_555 1_555
U4_13 O8_13 1_555 1_555
U5_13 O8_13 1_555 1_555
O21_13 U1_13 1_555 1_555
O22_13 U2_13 1_555 1_555
C6_21 N7_7 1_555 1_555
C8_21 N8_7 1_555 1_555
C10_21 C11_21 1_555 1_555
C22_21 C23_21 1_555 1_555
C30_21 N5_21 1_555 1_555
U1_13 O14_21 1_555 1_555
U1_13 O17_21 1_555 1_555
U2_13 O7_21 1_555 1_555
U2_13 O9_21 1_555 1_555
U2_13 O21_13 1_555 1_555
U3_21 O7_21 1_555 1_555
U3_21 O9_21 1_555 1_555
U3_21 O11_21 1_555 1_555
U3_21 O17_21 1_555 1_555
U3_21 O19_21 1_555 1_555
O13_13 U5_13 1_555 1_555
U5_13 O21_13 1_555 1_555
C20_21 H10_21 1_555 1_555
C21_21 C20_21 1_555 1_555
H11_21 C21_21 1_555 1_555
C20_21 N10_5 1_555 1_555
C14_19 C15_19 1_555 1_555
C15_19 H7_19 1_555 1_555
C16_19 C15_19 1_555 1_555
H8_19 C16_19 1_555 1_555
C18_19 C14_19 1_555 1_555
C32_21 H16_21 1_555 1_555
C33_21 C32_21 1_555 1_555
H17_21 C33_21 1_555 1_555
C34_21 C33_21 1_555 1_555
H18_21 C34_21 1_555 1_555
C35_21 C31_21 1_555 1_555
N6_21 C31_21 1_555 1_555
O15_19 C24_19 1_555 1_555
O16_19 C24_19 1_555 1_555
C32_21 N6_21 1_555 1_555
C34_21 C35_21 1_555 1_555
H9_21 C17_21 1_555 1_555
N9_5 C17_21 1_555 1_555
H9_22 C17_22 1_555 1_555
C20_22 H10_22 1_555 1_555
C21_22 C20_22 1_555 1_555
H11_22 C21_22 1_555 1_555
N9_6 C17_22 1_555 1_555
C20_22 N10_6 1_555 1_555
C13_22 C14_20 1_555 1_555
C14_20 C15_20 1_555 1_555
C15_20 H7_20 1_555 1_555
C16_20 C15_20 1_555 1_555
H8_20 C16_20 1_555 1_555
C18_20 C14_20 1_555 1_555
C19_22 C18_20 1_555 1_555
H12_22 C22_22 1_555 1_555
C23_22 C19_22 1_555 1_555
C24_20 C23_22 1_555 1_555
U1_14 O1_22 1_555 1_555
U2_14 O3_22 1_555 1_555
O2_22 U1_14 1_555 1_555
O4_22 U2_14 1_555 1_555
O7_22 U1_14 1_555 1_555
O8_14 U2_14 1_555 1_555
O9_22 C1_22 1_555 1_555
O10_22 C1_22 1_555 1_555
O13_14 C13_22 1_555 1_555
O14_22 C13_22 1_555 1_555
O15_20 C24_20 1_555 1_555
O16_20 C24_20 1_555 1_555
U4_14 O8_14 1_555 1_555
U5_14 O8_14 1_555 1_555
O21_14 U1_14 1_555 1_555
O22_14 U2_14 1_555 1_555
C22_22 C23_22 1_555 1_555
U1_14 O14_22 1_555 1_555
U1_14 O16_20 1_555 1_555
U1_14 O17_22 1_555 1_555
U2_14 O7_22 1_555 1_555
U2_14 O9_22 1_555 1_555
U2_14 O21_14 1_555 1_555
O13_14 U5_14 1_555 1_555
U5_14 O21_14 1_555 1_555
C2_22 C3_22 1_555 1_555
C4_22 C3_22 1_555 1_555
H2_22 C4_22 1_555 1_555
C5_22 C4_22 1_555 1_555
H3_22 C5_22 1_555 1_555
C6_22 C2_22 1_555 1_555
C7_22 C6_22 1_555 1_555
C8_22 H4_22 1_555 1_555
C9_22 C8_22 1_555 1_555
H5_22 C9_22 1_555 1_555
C10_22 C9_22 1_555 1_555
H6_22 C10_22 1_555 1_555
C11_22 C7_22 1_555 1_555
C12_22 C11_22 1_555 1_555
C25_22 C26_22 1_555 1_555
C26_22 C27_22 1_555 1_555
C27_22 H13_22 1_555 1_555
C28_22 C27_22 1_555 1_555
H14_22 C28_22 1_555 1_555
C29_22 C28_22 1_555 1_555
H15_22 C29_22 1_555 1_555
C30_22 C26_22 1_555 1_555
C31_22 C30_22 1_555 1_555
C32_22 H16_22 1_555 1_555
C33_22 C32_22 1_555 1_555
H17_22 C33_22 1_555 1_555
C34_22 C33_22 1_555 1_555
H18_22 C34_22 1_555 1_555
C35_22 C31_22 1_555 1_555
C36_22 C35_22 1_555 1_555
N7_8 C5_22 1_555 1_555
N8_8 C7_22 1_555 1_555
N5_22 C29_22 1_555 1_555
N6_22 C31_22 1_555 1_555
Ni2_6 N5_22 1_555 1_555
O6_22 U3_22 1_555 1_555
O11_22 C12_22 1_555 1_555
O12_22 C12_22 1_555 1_555
O18_22 C25_22 1_555 1_555
O19_22 C36_22 1_555 1_555
O20_22 C36_22 1_555 1_555
C6_22 N7_8 1_555 1_555
C8_22 N8_8 1_555 1_555
C10_22 C11_22 1_555 1_555
C30_22 N5_22 1_555 1_555
C32_22 N6_22 1_555 1_555
C34_22 C35_22 1_555 1_555
N6_22 Ni2_6 1_555 1_555
U3_22 O11_22 1_555 1_555
U3_22 O19_22 1_555 1_555
C8_23 H4_23 1_555 1_555
C9_23 C8_23 1_555 1_555
H5_23 C9_23 1_555 1_555
C10_23 C9_23 1_555 1_555
H6_23 C10_23 1_555 1_555
C11_23 C7_23 1_555 1_555
C12_23 C11_23 1_555 1_555
N8_14 C7_23 1_555 1_555
O12_23 C12_23 1_555 1_555
C8_23 N8_14 1_555 1_555
C10_23 C11_23 1_555 1_555
C1_23 C2_23 1_555 1_555
C2_23 C3_23 1_555 1_555
C3_23 H1_23 1_555 1_555
C4_23 C3_23 1_555 1_555
H2_23 C4_23 1_555 1_555
C5_23 C4_23 1_555 1_555
H3_23 C5_23 1_555 1_555
C6_23 C2_23 1_555 1_555
C13_23 C14_21 1_555 1_555
C14_21 C15_21 1_555 1_555
C15_21 H7_21 1_555 1_555
C16_21 C15_21 1_555 1_555
H8_21 C16_21 1_555 1_555
C17_23 C16_21 1_555 1_555
H9_23 C17_23 1_555 1_555
C18_21 C14_21 1_555 1_555
C19_23 C18_21 1_555 1_555
C20_23 H10_23 1_555 1_555
C21_23 C20_23 1_555 1_555
H11_23 C21_23 1_555 1_555
C22_23 C21_23 1_555 1_555
H12_23 C22_23 1_555 1_555
C23_23 C19_23 1_555 1_555
C24_21 C23_23 1_555 1_555
C25_23 C26_23 1_555 1_555
C26_23 C27_23 1_555 1_555
C27_23 H13_23 1_555 1_555
C28_23 C27_23 1_555 1_555
H14_23 C28_23 1_555 1_555
C29_23 C28_23 1_555 1_555
H15_23 C29_23 1_555 1_555
C30_23 C26_23 1_555 1_555
C31_23 C30_23 1_555 1_555
C32_23 H16_23 1_555 1_555
C33_23 C32_23 1_555 1_555
H17_23 C33_23 1_555 1_555
C34_23 C33_23 1_555 1_555
H18_23 C34_23 1_555 1_555
C35_23 C31_23 1_555 1_555
C36_23 C35_23 1_555 1_555
N7_14 C5_23 1_555 1_555
N9_15 C17_23 1_555 1_555
N10_15 C19_23 1_555 1_555
N5_23 C29_23 1_555 1_555
N6_23 C31_23 1_555 1_555
Ni3_5 N5_23 1_555 1_555
U1_15 O1_23 1_555 1_555
U2_15 O3_23 1_555 1_555
U3_23 O5_23 1_555 1_555
O2_23 U1_15 1_555 1_555
O4_23 U2_15 1_555 1_555
O6_23 U3_23 1_555 1_555
O7_23 U1_15 1_555 1_555
O8_15 U2_15 1_555 1_555
O9_23 C1_23 1_555 1_555
O13_15 C13_23 1_555 1_555
O14_23 C13_23 1_555 1_555
O15_21 C24_21 1_555 1_555
O16_21 C24_21 1_555 1_555
O17_23 C25_23 1_555 1_555
O18_23 C25_23 1_555 1_555
O19_23 C36_23 1_555 1_555
O20_23 C36_23 1_555 1_555
U4_15 O8_15 1_555 1_555
U5_15 O8_15 1_555 1_555
O21_15 U1_15 1_555 1_555
O22_15 U2_15 1_555 1_555
C6_23 N7_14 1_555 1_555
C18_21 N9_15 1_555 1_555
C20_23 N10_15 1_555 1_555
C22_23 C23_23 1_555 1_555
C30_23 N5_23 1_555 1_555
C32_23 N6_23 1_555 1_555
C34_23 C35_23 1_555 1_555
N6_23 Ni3_5 1_555 1_555
U1_15 O14_23 1_555 1_555
U1_15 O16_21 1_555 1_555
U1_15 O17_23 1_555 1_555
U2_15 O7_23 1_555 1_555
U2_15 O9_23 1_555 1_555
U2_15 O21_15 1_555 1_555
U3_23 O7_23 1_555 1_555
U3_23 O9_23 1_555 1_555
U3_23 O11_23 1_555 1_555
U3_23 O17_23 1_555 1_555
U3_23 O19_23 1_555 1_555
O13_15 U5_15 1_555 1_555
U5_15 O21_15 1_555 1_555
C1_24 C2_24 1_555 1_555
C2_24 C3_24 1_555 1_555
C3_24 H1_24 1_555 1_555
C4_24 C3_24 1_555 1_555
H2_24 C4_24 1_555 1_555
C5_24 C4_24 1_555 1_555
H3_24 C5_24 1_555 1_555
C6_24 C2_24 1_555 1_555
C7_24 C6_24 1_555 1_555
C8_24 H4_24 1_555 1_555
C9_24 C8_24 1_555 1_555
H5_24 C9_24 1_555 1_555
C10_24 C9_24 1_555 1_555
H6_24 C10_24 1_555 1_555
C11_24 C7_24 1_555 1_555
C12_24 C11_24 1_555 1_555
C13_24 C14_22 1_555 1_555
C14_22 C15_22 1_555 1_555
C15_22 H7_22 1_555 1_555
C16_22 C15_22 1_555 1_555
H8_22 C16_22 1_555 1_555
C17_24 C16_22 1_555 1_555
H9_24 C17_24 1_555 1_555
C18_22 C14_22 1_555 1_555
C19_24 C18_22 1_555 1_555
C20_24 H10_24 1_555 1_555
C21_24 C20_24 1_555 1_555
H11_24 C21_24 1_555 1_555
C22_24 C21_24 1_555 1_555
H12_24 C22_24 1_555 1_555
C23_24 C19_24 1_555 1_555
C24_22 C23_24 1_555 1_555
C25_24 C26_24 1_555 1_555
C26_24 C27_24 1_555 1_555
C27_24 H13_24 1_555 1_555
C28_24 C27_24 1_555 1_555
H14_24 C28_24 1_555 1_555
C29_24 C28_24 1_555 1_555
H15_24 C29_24 1_555 1_555
C30_24 C26_24 1_555 1_555
C31_24 C30_24 1_555 1_555
C32_24 H16_24 1_555 1_555
C33_24 C32_24 1_555 1_555
H17_24 C33_24 1_555 1_555
C34_24 C33_24 1_555 1_555
H18_24 C34_24 1_555 1_555
C35_24 C31_24 1_555 1_555
C36_24 C35_24 1_555 1_555
N7_13 C5_24 1_555 1_555
N8_13 C7_24 1_555 1_555
N9_16 C17_24 1_555 1_555
N10_16 C19_24 1_555 1_555
N5_24 C29_24 1_555 1_555
N6_24 C31_24 1_555 1_555
Ni3_6 N5_24 1_555 1_555
U1_16 O1_24 1_555 1_555
U2_16 O3_24 1_555 1_555
U3_24 O5_24 1_555 1_555
O2_24 U1_16 1_555 1_555
O4_24 U2_16 1_555 1_555
O6_24 U3_24 1_555 1_555
O7_24 U1_16 1_555 1_555
O8_16 U2_16 1_555 1_555
O9_24 C1_24 1_555 1_555
O10_24 C1_24 1_555 1_555
O11_24 C12_24 1_555 1_555
O12_24 C12_24 1_555 1_555
O13_16 C13_24 1_555 1_555
O14_24 C13_24 1_555 1_555
O15_22 C24_22 1_555 1_555
O16_22 C24_22 1_555 1_555
O17_24 C25_24 1_555 1_555
O18_24 C25_24 1_555 1_555
O19_24 C36_24 1_555 1_555
O20_24 C36_24 1_555 1_555
U4_16 O8_16 1_555 1_555
U5_16 O8_16 1_555 1_555
O21_16 U1_16 1_555 1_555
O22_16 U2_16 1_555 1_555
C6_24 N7_13 1_555 1_555
C8_24 N8_13 1_555 1_555
C10_24 C11_24 1_555 1_555
C18_22 N9_16 1_555 1_555
C20_24 N10_16 1_555 1_555
C22_24 C23_24 1_555 1_555
C30_24 N5_24 1_555 1_555
C32_24 N6_24 1_555 1_555
C34_24 C35_24 1_555 1_555
N6_24 Ni3_6 1_555 1_555
U1_16 O14_24 1_555 1_555
U1_16 O16_22 1_555 1_555
U1_16 O17_24 1_555 1_555
U2_16 O7_24 1_555 1_555
U2_16 O9_24 1_555 1_555
U2_16 O21_16 1_555 1_555
U3_24 O7_24 1_555 1_555
U3_24 O9_24 1_555 1_555
U3_24 O11_24 1_555 1_555
U3_24 O17_24 1_555 1_555
U3_24 O19_24 1_555 1_555
O13_16 U5_16 1_555 1_555
U5_16 O21_16 1_555 1_555
C32_25 H16_25 1_555 1_555
C33_25 C32_25 1_555 1_555
H17_25 C33_25 1_555 1_555
C34_25 C33_25 1_555 1_555
H18_25 C34_25 1_555 1_555
C35_25 C31_25 1_555 1_555
N6_25 C31_25 1_555 1_555
C32_25 N6_25 1_555 1_555
C34_25 C35_25 1_555 1_555
C14_23 C15_23 1_555 1_555
C15_23 H7_23 1_555 1_555
C16_23 C15_23 1_555 1_555
H8_23 C16_23 1_555 1_555
C17_25 C16_23 1_555 1_555
H9_25 C17_25 1_555 1_555
C18_23 C14_23 1_555 1_555
N9_9 C17_25 1_555 1_555
O15_23 C24_23 1_555 1_555
O16_23 C24_23 1_555 1_555
C18_23 N9_9 1_555 1_555
C2_25 C3_25 1_555 1_555
C4_25 C3_25 1_555 1_555
H2_25 C4_25 1_555 1_555
C5_25 C4_25 1_555 1_555
H3_25 C5_25 1_555 1_555
C6_25 C2_25 1_555 1_555
C7_25 C6_25 1_555 1_555
C8_25 H4_25 1_555 1_555
C9_25 C8_25 1_555 1_555
H5_25 C9_25 1_555 1_555
C10_25 C9_25 1_555 1_555
H6_25 C10_25 1_555 1_555
C11_25 C7_25 1_555 1_555
C12_25 C11_25 1_555 1_555
C25_25 C26_25 1_555 1_555
C26_25 C27_25 1_555 1_555
C27_25 H13_25 1_555 1_555
C28_25 C27_25 1_555 1_555
H14_25 C28_25 1_555 1_555
C29_25 C28_25 1_555 1_555
H15_25 C29_25 1_555 1_555
C30_25 C26_25 1_555 1_555
N7_11 C5_25 1_555 1_555
N8_11 C7_25 1_555 1_555
N5_25 C29_25 1_555 1_555
Ni3_4 N5_25 1_555 1_555
O6_25 U3_25 1_555 1_555
O11_25 C12_25 1_555 1_555
O12_25 C12_25 1_555 1_555
O19_25 C36_25 1_555 1_555
O20_25 C36_25 1_555 1_555
C6_25 N7_11 1_555 1_555
C8_25 N8_11 1_555 1_555
C10_25 C11_25 1_555 1_555
C30_25 N5_25 1_555 1_555
U3_25 O11_25 1_555 1_555
U3_25 O19_25 1_555 1_555
C20_25 H10_25 1_555 1_555
C21_25 C20_25 1_555 1_555
H11_25 C21_25 1_555 1_555
C22_25 C21_25 1_555 1_555
H12_25 C22_25 1_555 1_555
C23_25 C19_25 1_555 1_555
N10_9 C19_25 1_555 1_555
U4_15 O1_25 1_555 1_555
U5_15 O3_25 1_555 1_555
O2_25 U4_15 1_555 1_555
O4_25 U5_15 1_555 1_555
O7_25 U4_15 1_555 1_555
O9_25 C1_25 1_555 1_555
O10_25 C1_25 1_555 1_555
O22_15 C13_25 1_555 1_555
O14_25 C13_25 1_555 1_555
C20_25 N10_9 1_555 1_555
C22_25 C23_25 1_555 1_555
U4_15 O14_25 1_555 1_555
U4_15 O17_25 1_555 1_555
U5_15 O7_25 1_555 1_555
U5_15 O9_25 1_555 1_555
C1_26 C2_26 1_555 1_555
C2_26 C3_26 1_555 1_555
C3_26 H1_26 1_555 1_555
C4_26 C3_26 1_555 1_555
H2_26 C4_26 1_555 1_555
C5_26 C4_26 1_555 1_555
H3_26 C5_26 1_555 1_555
C6_26 C2_26 1_555 1_555
C7_26 C6_26 1_555 1_555
C8_26 H4_26 1_555 1_555
C9_26 C8_26 1_555 1_555
H5_26 C9_26 1_555 1_555
C10_26 C9_26 1_555 1_555
H6_26 C10_26 1_555 1_555
C11_26 C7_26 1_555 1_555
C12_26 C11_26 1_555 1_555
C13_26 C14_24 1_555 1_555
C14_24 C15_24 1_555 1_555
C15_24 H7_24 1_555 1_555
C16_24 C15_24 1_555 1_555
H8_24 C16_24 1_555 1_555
C17_26 C16_24 1_555 1_555
H9_26 C17_26 1_555 1_555
C18_24 C14_24 1_555 1_555
C19_26 C18_24 1_555 1_555
C20_26 H10_26 1_555 1_555
C21_26 C20_26 1_555 1_555
H11_26 C21_26 1_555 1_555
C22_26 C21_26 1_555 1_555
H12_26 C22_26 1_555 1_555
C23_26 C19_26 1_555 1_555
C24_24 C23_26 1_555 1_555
C25_26 C26_26 1_555 1_555
C26_26 C27_26 1_555 1_555
C27_26 H13_26 1_555 1_555
C28_26 C27_26 1_555 1_555
H14_26 C28_26 1_555 1_555
C29_26 C28_26 1_555 1_555
H15_26 C29_26 1_555 1_555
C30_26 C26_26 1_555 1_555
C31_26 C30_26 1_555 1_555
C32_26 H16_26 1_555 1_555
C33_26 C32_26 1_555 1_555
H17_26 C33_26 1_555 1_555
C34_26 C33_26 1_555 1_555
H18_26 C34_26 1_555 1_555
C35_26 C31_26 1_555 1_555
C36_26 C35_26 1_555 1_555
N7_12 C5_26 1_555 1_555
N8_12 C7_26 1_555 1_555
N9_10 C17_26 1_555 1_555
N10_10 C19_26 1_555 1_555
N5_26 C29_26 1_555 1_555
N6_26 C31_26 1_555 1_555
Ni3_3 N5_26 1_555 1_555
U4_16 O1_26 1_555 1_555
U5_16 O3_26 1_555 1_555
U3_26 O5_26 1_555 1_555
O2_26 U4_16 1_555 1_555
O4_26 U5_16 1_555 1_555
O6_26 U3_26 1_555 1_555
O7_26 U4_16 1_555 1_555
O9_26 C1_26 1_555 1_555
O10_26 C1_26 1_555 1_555
O11_26 C12_26 1_555 1_555
O12_26 C12_26 1_555 1_555
O22_16 C13_26 1_555 1_555
O14_26 C13_26 1_555 1_555
O15_24 C24_24 1_555 1_555
O16_24 C24_24 1_555 1_555
O17_26 C25_26 1_555 1_555
O18_26 C25_26 1_555 1_555
O19_26 C36_26 1_555 1_555
O20_26 C36_26 1_555 1_555
C6_26 N7_12 1_555 1_555
C8_26 N8_12 1_555 1_555
C10_26 C11_26 1_555 1_555
C18_24 N9_10 1_555 1_555
C20_26 N10_10 1_555 1_555
C22_26 C23_26 1_555 1_555
C30_26 N5_26 1_555 1_555
C32_26 N6_26 1_555 1_555
C34_26 C35_26 1_555 1_555
N6_26 Ni3_3 1_555 1_555
U4_16 O14_26 1_555 1_555
U4_16 O16_24 1_555 1_555
U4_16 O17_26 1_555 1_555
U5_16 O7_26 1_555 1_555
U5_16 O9_26 1_555 1_555
U3_26 O7_26 1_555 1_555
U3_26 O9_26 1_555 1_555
U3_26 O11_26 1_555 1_555
U3_26 O17_26 1_555 1_555
U3_26 O19_26 1_555 1_555
C1_27 C2_27 1_555 1_555
C2_27 C3_27 1_555 1_555
C3_27 H1_27 1_555 1_555
C4_27 C3_27 1_555 1_555
H2_27 C4_27 1_555 1_555
C5_27 C4_27 1_555 1_555
H3_27 C5_27 1_555 1_555
C6_27 C2_27 1_555 1_555
C13_27 C14_25 1_555 1_555
C14_25 C15_25 1_555 1_555
C15_25 H7_25 1_555 1_555
C16_25 C15_25 1_555 1_555
H8_25 C16_25 1_555 1_555
C17_27 C16_25 1_555 1_555
H9_27 C17_27 1_555 1_555
C18_25 C14_25 1_555 1_555
C19_27 C18_25 1_555 1_555
C20_27 H10_27 1_555 1_555
C21_27 C20_27 1_555 1_555
H11_27 C21_27 1_555 1_555
C22_27 C21_27 1_555 1_555
H12_27 C22_27 1_555 1_555
C23_27 C19_27 1_555 1_555
C24_25 C23_27 1_555 1_555
C25_27 C26_27 1_555 1_555
C26_27 C27_27 1_555 1_555
C27_27 H13_27 1_555 1_555
C28_27 C27_27 1_555 1_555
H14_27 C28_27 1_555 1_555
C29_27 C28_27 1_555 1_555
H15_27 C29_27 1_555 1_555
C30_27 C26_27 1_555 1_555
C31_27 C30_27 1_555 1_555
C32_27 H16_27 1_555 1_555
C33_27 C32_27 1_555 1_555
H17_27 C33_27 1_555 1_555
C34_27 C33_27 1_555 1_555
H18_27 C34_27 1_555 1_555
C35_27 C31_27 1_555 1_555
C36_27 C35_27 1_555 1_555
N7_2 C5_27 1_555 1_555
N9_3 C17_27 1_555 1_555
N10_3 C19_27 1_555 1_555
N5_27 C29_27 1_555 1_555
N6_27 C31_27 1_555 1_555
Ni2_3 N5_27 1_555 1_555
U4_13 O1_27 1_555 1_555
U5_13 O3_27 1_555 1_555
U3_27 O5_27 1_555 1_555
O2_27 U4_13 1_555 1_555
O4_27 U5_13 1_555 1_555
O6_27 U3_27 1_555 1_555
O7_27 U4_13 1_555 1_555
O9_27 C1_27 1_555 1_555
O22_13 C13_27 1_555 1_555
O14_27 C13_27 1_555 1_555
O15_25 C24_25 1_555 1_555
O16_25 C24_25 1_555 1_555
O17_27 C25_27 1_555 1_555
O18_27 C25_27 1_555 1_555
O19_27 C36_27 1_555 1_555
O20_27 C36_27 1_555 1_555
C6_27 N7_2 1_555 1_555
C18_25 N9_3 1_555 1_555
C20_27 N10_3 1_555 1_555
C22_27 C23_27 1_555 1_555
C30_27 N5_27 1_555 1_555
C32_27 N6_27 1_555 1_555
C34_27 C35_27 1_555 1_555
N6_27 Ni2_3 1_555 1_555
U4_13 O14_27 1_555 1_555
U4_13 O16_25 1_555 1_555
U4_13 O17_27 1_555 1_555
U5_13 O7_27 1_555 1_555
U5_13 O9_27 1_555 1_555
U3_27 O7_27 1_555 1_555
U3_27 O9_27 1_555 1_555
U3_27 O11_27 1_555 1_555
U3_27 O17_27 1_555 1_555
U3_27 O19_27 1_555 1_555
C8_27 H4_27 1_555 1_555
C9_27 C8_27 1_555 1_555
H5_27 C9_27 1_555 1_555
C10_27 C9_27 1_555 1_555
H6_27 C10_27 1_555 1_555
C11_27 C7_27 1_555 1_555
C12_27 C11_27 1_555 1_555
N8_2 C7_27 1_555 1_555
O12_27 C12_27 1_555 1_555
C8_27 N8_2 1_555 1_555
C10_27 C11_27 1_555 1_555
C1_28 C2_28 1_555 1_555
C2_28 C3_28 1_555 1_555
C3_28 H1_28 1_555 1_555
C4_28 C3_28 1_555 1_555
H2_28 C4_28 1_555 1_555
C5_28 C4_28 1_555 1_555
H3_28 C5_28 1_555 1_555
C6_28 C2_28 1_555 1_555
C7_28 C6_28 1_555 1_555
C8_28 H4_28 1_555 1_555
C9_28 C8_28 1_555 1_555
H5_28 C9_28 1_555 1_555
C10_28 C9_28 1_555 1_555
H6_28 C10_28 1_555 1_555
C11_28 C7_28 1_555 1_555
C12_28 C11_28 1_555 1_555
C13_28 C14_26 1_555 1_555
C14_26 C15_26 1_555 1_555
C15_26 H7_26 1_555 1_555
C16_26 C15_26 1_555 1_555
H8_26 C16_26 1_555 1_555
C17_28 C16_26 1_555 1_555
H9_28 C17_28 1_555 1_555
C18_26 C14_26 1_555 1_555
C19_28 C18_26 1_555 1_555
C20_28 H10_28 1_555 1_555
C21_28 C20_28 1_555 1_555
H11_28 C21_28 1_555 1_555
C22_28 C21_28 1_555 1_555
H12_28 C22_28 1_555 1_555
C23_28 C19_28 1_555 1_555
C24_26 C23_28 1_555 1_555
C25_28 C26_28 1_555 1_555
C26_28 C27_28 1_555 1_555
C27_28 H13_28 1_555 1_555
C28_28 C27_28 1_555 1_555
H14_28 C28_28 1_555 1_555
C29_28 C28_28 1_555 1_555
H15_28 C29_28 1_555 1_555
C30_28 C26_28 1_555 1_555
C31_28 C30_28 1_555 1_555
C32_28 H16_28 1_555 1_555
C33_28 C32_28 1_555 1_555
H17_28 C33_28 1_555 1_555
C34_28 C33_28 1_555 1_555
H18_28 C34_28 1_555 1_555
C35_28 C31_28 1_555 1_555
C36_28 C35_28 1_555 1_555
N7 C5_28 1_555 1_555
N8 C7_28 1_555 1_555
N9_4 C17_28 1_555 1_555
N10_4 C19_28 1_555 1_555
N5_28 C29_28 1_555 1_555
N6_28 C31_28 1_555 1_555
Ni2_4 N5_28 1_555 1_555
U4_14 O1_28 1_555 1_555
U5_14 O3_28 1_555 1_555
U3_28 O5_28 1_555 1_555
O2_28 U4_14 1_555 1_555
O4_28 U5_14 1_555 1_555
O6_28 U3_28 1_555 1_555
O7_28 U4_14 1_555 1_555
O9_28 C1_28 1_555 1_555
O10_28 C1_28 1_555 1_555
O11_28 C12_28 1_555 1_555
O12_28 C12_28 1_555 1_555
O22_14 C13_28 1_555 1_555
O14_28 C13_28 1_555 1_555
O15_26 C24_26 1_555 1_555
O16_26 C24_26 1_555 1_555
O17_28 C25_28 1_555 1_555
O18_28 C25_28 1_555 1_555
O19_28 C36_28 1_555 1_555
O20_28 C36_28 1_555 1_555
C6_28 N7 1_555 1_555
C8_28 N8 1_555 1_555
C10_28 C11_28 1_555 1_555
C18_26 N9_4 1_555 1_555
C20_28 N10_4 1_555 1_555
C22_28 C23_28 1_555 1_555
C30_28 N5_28 1_555 1_555
C32_28 N6_28 1_555 1_555
C34_28 C35_28 1_555 1_555
N6_28 Ni2_4 1_555 1_555
U4_14 O14_28 1_555 1_555
U4_14 O16_26 1_555 1_555
U4_14 O17_28 1_555 1_555
U5_14 O7_28 1_555 1_555
U5_14 O9_28 1_555 1_555
U3_28 O7_28 1_555 1_555
U3_28 O9_28 1_555 1_555
U3_28 O11_28 1_555 1_555
U3_28 O17_28 1_555 1_555
U3_28 O19_28 1_555 1_555
C13_29 C14_27 1_555 1_555
C14_27 C15_27 1_555 1_555
C15_27 H7_27 1_555 1_555
C16_27 C15_27 1_555 1_555
H8_27 C16_27 1_555 1_555
C17_29 C16_27 1_555 1_555
H9_29 C17_29 1_555 1_555
C18_27 C14_27 1_555 1_555
C19_29 C18_27 1_555 1_555
C20_29 H10_29 1_555 1_555
C21_29 C20_29 1_555 1_555
H11_29 C21_29 1_555 1_555
C22_29 C21_29 1_555 1_555
H12_29 C22_29 1_555 1_555
C23_29 C19_29 1_555 1_555
C24_27 C23_29 1_555 1_555
N9_13 C17_29 1_555 1_555
N10_13 C19_29 1_555 1_555
U4_11 O1_29 1_555 1_555
U5_11 O3_29 1_555 1_555
O2_29 U4_11 1_555 1_555
O4_29 U5_11 1_555 1_555
O7_29 U4_11 1_555 1_555
O9_29 C1_29 1_555 1_555
O10_29 C1_29 1_555 1_555
O22_11 C13_29 1_555 1_555
O14_29 C13_29 1_555 1_555
O15_27 C24_27 1_555 1_555
O16_27 C24_27 1_555 1_555
C18_27 N9_13 1_555 1_555
C20_29 N10_13 1_555 1_555
C22_29 C23_29 1_555 1_555
U4_11 O14_29 1_555 1_555
U4_11 O16_27 1_555 1_555
U4_11 O17_29 1_555 1_555
U5_11 O7_29 1_555 1_555
U5_11 O9_29 1_555 1_555
C2_29 C3_29 1_555 1_555
C4_29 C3_29 1_555 1_555
H2_29 C4_29 1_555 1_555
C5_29 C4_29 1_555 1_555
H3_29 C5_29 1_555 1_555
C6_29 C2_29 1_555 1_555
C7_29 C6_29 1_555 1_555
C8_29 H4_29 1_555 1_555
C9_29 C8_29 1_555 1_555
H5_29 C9_29 1_555 1_555
C10_29 C9_29 1_555 1_555
H6_29 C10_29 1_555 1_555
C11_29 C7_29 1_555 1_555
C12_29 C11_29 1_555 1_555
C25_29 C26_29 1_555 1_555
C26_29 C27_29 1_555 1_555
C27_29 H13_29 1_555 1_555
C28_29 C27_29 1_555 1_555
H14_29 C28_29 1_555 1_555
C29_29 C28_29 1_555 1_555
H15_29 C29_29 1_555 1_555
C30_29 C26_29 1_555 1_555
C31_29 C30_29 1_555 1_555
C32_29 H16_29 1_555 1_555
C33_29 C32_29 1_555 1_555
H17_29 C33_29 1_555 1_555
C34_29 C33_29 1_555 1_555
H18_29 C34_29 1_555 1_555
C35_29 C31_29 1_555 1_555
C36_29 C35_29 1_555 1_555
N7_15 C5_29 1_555 1_555
N8_15 C7_29 1_555 1_555
N5_29 C29_29 1_555 1_555
N6_29 C31_29 1_555 1_555
Ni3_8 N5_29 1_555 1_555
O6_29 U3_29 1_555 1_555
O11_29 C12_29 1_555 1_555
O12_29 C12_29 1_555 1_555
O18_29 C25_29 1_555 1_555
O19_29 C36_29 1_555 1_555
O20_29 C36_29 1_555 1_555
C6_29 N7_15 1_555 1_555
C8_29 N8_15 1_555 1_555
C10_29 C11_29 1_555 1_555
C30_29 N5_29 1_555 1_555
C32_29 N6_29 1_555 1_555
C34_29 C35_29 1_555 1_555
N6_29 Ni3_8 1_555 1_555
U3_29 O11_29 1_555 1_555
U3_29 O19_29 1_555 1_555
C14_28 C15_28 1_555 1_555
C15_28 H7_28 1_555 1_555
C16_28 C15_28 1_555 1_555
H8_28 C16_28 1_555 1_555
C17_30 C16_28 1_555 1_555
H9_30 C17_30 1_555 1_555
C18_28 C14_28 1_555 1_555
C32_30 H16_30 1_555 1_555
C33_30 C32_30 1_555 1_555
H17_30 C33_30 1_555 1_555
C34_30 C33_30 1_555 1_555
H18_30 C34_30 1_555 1_555
C35_30 C31_30 1_555 1_555
N9_14 C17_30 1_555 1_555
N6_30 C31_30 1_555 1_555
O15_28 C24_28 1_555 1_555
O16_28 C24_28 1_555 1_555
C18_28 N9_14 1_555 1_555
C32_30 N6_30 1_555 1_555
C34_30 C35_30 1_555 1_555
C1_30 C2_30 1_555 1_555
C2_30 C3_30 1_555 1_555
C3_30 H1_30 1_555 1_555
C4_30 C3_30 1_555 1_555
H2_30 C4_30 1_555 1_555
C5_30 C4_30 1_555 1_555
H3_30 C5_30 1_555 1_555
C6_30 C2_30 1_555 1_555
C7_30 C6_30 1_555 1_555
C8_30 H4_30 1_555 1_555
C9_30 C8_30 1_555 1_555
H5_30 C9_30 1_555 1_555
C10_30 C9_30 1_555 1_555
H6_30 C10_30 1_555 1_555
C11_30 C7_30 1_555 1_555
C12_30 C11_30 1_555 1_555
C20_30 H10_30 1_555 1_555
C21_30 C20_30 1_555 1_555
H11_30 C21_30 1_555 1_555
C22_30 C21_30 1_555 1_555
H12_30 C22_30 1_555 1_555
C23_30 C19_30 1_555 1_555
C25_30 C26_30 1_555 1_555
C26_30 C27_30 1_555 1_555
C27_30 H13_30 1_555 1_555
C28_30 C27_30 1_555 1_555
H14_30 C28_30 1_555 1_555
C29_30 C28_30 1_555 1_555
H15_30 C29_30 1_555 1_555
C30_30 C26_30 1_555 1_555
N7_16 C5_30 1_555 1_555
N8_16 C7_30 1_555 1_555
N10_14 C19_30 1_555 1_555
N5_30 C29_30 1_555 1_555
Ni3_7 N5_30 1_555 1_555
U4_12 O1_30 1_555 1_555
U5_12 O3_30 1_555 1_555
U3_30 O5_30 1_555 1_555
O2_30 U4_12 1_555 1_555
O4_30 U5_12 1_555 1_555
O6_30 U3_30 1_555 1_555
O7_30 U4_12 1_555 1_555
O9_30 C1_30 1_555 1_555
O10_30 C1_30 1_555 1_555
O11_30 C12_30 1_555 1_555
O12_30 C12_30 1_555 1_555
O22_12 C13_30 1_555 1_555
O14_30 C13_30 1_555 1_555
O17_30 C25_30 1_555 1_555
O19_30 C36_30 1_555 1_555
O20_30 C36_30 1_555 1_555
C6_30 N7_16 1_555 1_555
C8_30 N8_16 1_555 1_555
C10_30 C11_30 1_555 1_555
C20_30 N10_14 1_555 1_555
C22_30 C23_30 1_555 1_555
C30_30 N5_30 1_555 1_555
U4_12 O14_30 1_555 1_555
U4_12 O17_30 1_555 1_555
U5_12 O7_30 1_555 1_555
U5_12 O9_30 1_555 1_555
U3_30 O7_30 1_555 1_555
U3_30 O9_30 1_555 1_555
U3_30 O11_30 1_555 1_555
U3_30 O17_30 1_555 1_555
U3_30 O19_30 1_555 1_555
C1_31 C2_31 1_555 1_555
C2_31 C3_31 1_555 1_555
C3_31 H1_31 1_555 1_555
C4_31 C3_31 1_555 1_555
H2_31 C4_31 1_555 1_555
C5_31 C4_31 1_555 1_555
H3_31 C5_31 1_555 1_555
C6_31 C2_31 1_555 1_555
C7_31 C6_31 1_555 1_555
C8_31 H4_31 1_555 1_555
C9_31 C8_31 1_555 1_555
H5_31 C9_31 1_555 1_555
C10_31 C9_31 1_555 1_555
H6_31 C10_31 1_555 1_555
C11_31 C7_31 1_555 1_555
C12_31 C11_31 1_555 1_555
C13_31 C14_29 1_555 1_555
C14_29 C15_29 1_555 1_555
C15_29 H7_29 1_555 1_555
C16_29 C15_29 1_555 1_555
H8_29 C16_29 1_555 1_555
C17_31 C16_29 1_555 1_555
H9_31 C17_31 1_555 1_555
C18_29 C14_29 1_555 1_555
C19_31 C18_29 1_555 1_555
C20_31 H10_31 1_555 1_555
C21_31 C20_31 1_555 1_555
H11_31 C21_31 1_555 1_555
C22_31 C21_31 1_555 1_555
H12_31 C22_31 1_555 1_555
C23_31 C19_31 1_555 1_555
C24_29 C23_31 1_555 1_555
C25_31 C26_31 1_555 1_555
C26_31 C27_31 1_555 1_555
C27_31 H13_31 1_555 1_555
C28_31 C27_31 1_555 1_555
H14_31 C28_31 1_555 1_555
C29_31 C28_31 1_555 1_555
H15_31 C29_31 1_555 1_555
C30_31 C26_31 1_555 1_555
C31_31 C30_31 1_555 1_555
C32_31 H16_31 1_555 1_555
C33_31 C32_31 1_555 1_555
H17_31 C33_31 1_555 1_555
C34_31 C33_31 1_555 1_555
H18_31 C34_31 1_555 1_555
C35_31 C31_31 1_555 1_555
C36_31 C35_31 1_555 1_555
N7_6 C5_31 1_555 1_555
N8_6 C7_31 1_555 1_555
N9_7 C17_31 1_555 1_555
N10_7 C19_31 1_555 1_555
N5_31 C29_31 1_555 1_555
N6_31 C31_31 1_555 1_555
Ni2_7 N5_31 1_555 1_555
U4_9 O1_31 1_555 1_555
U5_9 O3_31 1_555 1_555
U3_31 O5_31 1_555 1_555
O2_31 U4_9 1_555 1_555
O4_31 U5_9 1_555 1_555
O6_31 U3_31 1_555 1_555
O7_31 U4_9 1_555 1_555
O9_31 C1_31 1_555 1_555
O10_31 C1_31 1_555 1_555
O11_31 C12_31 1_555 1_555
O12_31 C12_31 1_555 1_555
O22_9 C13_31 1_555 1_555
O14_31 C13_31 1_555 1_555
O15_29 C24_29 1_555 1_555
O16_29 C24_29 1_555 1_555
O17_31 C25_31 1_555 1_555
O18_31 C25_31 1_555 1_555
O19_31 C36_31 1_555 1_555
O20_31 C36_31 1_555 1_555
C6_31 N7_6 1_555 1_555
C8_31 N8_6 1_555 1_555
C10_31 C11_31 1_555 1_555
C18_29 N9_7 1_555 1_555
C20_31 N10_7 1_555 1_555
C22_31 C23_31 1_555 1_555
C30_31 N5_31 1_555 1_555
C32_31 N6_31 1_555 1_555
C34_31 C35_31 1_555 1_555
N6_31 Ni2_7 1_555 1_555
U4_9 O14_31 1_555 1_555
U4_9 O16_29 1_555 1_555
U4_9 O17_31 1_555 1_555
U5_9 O7_31 1_555 1_555
U5_9 O9_31 1_555 1_555
U3_31 O7_31 1_555 1_555
U3_31 O9_31 1_555 1_555
U3_31 O11_31 1_555 1_555
U3_31 O17_31 1_555 1_555
U3_31 O19_31 1_555 1_555
C1_32 C2_32 1_555 1_555
C2_32 C3_32 1_555 1_555
C3_32 H1_32 1_555 1_555
C4_32 C3_32 1_555 1_555
H2_32 C4_32 1_555 1_555
C5_32 C4_32 1_555 1_555
H3_32 C5_32 1_555 1_555
C6_32 C2_32 1_555 1_555
C13_32 C14_30 1_555 1_555
C14_30 C15_30 1_555 1_555
C15_30 H7_30 1_555 1_555
C16_30 C15_30 1_555 1_555
H8_30 C16_30 1_555 1_555
C17_32 C16_30 1_555 1_555
H9_32 C17_32 1_555 1_555
C18_30 C14_30 1_555 1_555
C19_32 C18_30 1_555 1_555
C20_32 H10_32 1_555 1_555
C21_32 C20_32 1_555 1_555
H11_32 C21_32 1_555 1_555
C22_32 C21_32 1_555 1_555
H12_32 C22_32 1_555 1_555
C23_32 C19_32 1_555 1_555
C24_30 C23_32 1_555 1_555
C25_32 C26_32 1_555 1_555
C26_32 C27_32 1_555 1_555
C27_32 H13_32 1_555 1_555
C28_32 C27_32 1_555 1_555
H14_32 C28_32 1_555 1_555
C29_32 C28_32 1_555 1_555
H15_32 C29_32 1_555 1_555
C30_32 C26_32 1_555 1_555
C31_32 C30_32 1_555 1_555
C32_32 H16_32 1_555 1_555
C33_32 C32_32 1_555 1_555
H17_32 C33_32 1_555 1_555
C34_32 C33_32 1_555 1_555
H18_32 C34_32 1_555 1_555
C35_32 C31_32 1_555 1_555
C36_32 C35_32 1_555 1_555
N7_5 C5_32 1_555 1_555
N9_8 C17_32 1_555 1_555
N10_8 C19_32 1_555 1_555
N5_32 C29_32 1_555 1_555
N6_32 C31_32 1_555 1_555
Ni2_8 N5_32 1_555 1_555
U4_10 O1_32 1_555 1_555
U5_10 O3_32 1_555 1_555
U3_32 O5_32 1_555 1_555
O2_32 U4_10 1_555 1_555
O4_32 U5_10 1_555 1_555
O6_32 U3_32 1_555 1_555
O7_32 U4_10 1_555 1_555
O9_32 C1_32 1_555 1_555
O22_10 C13_32 1_555 1_555
O14_32 C13_32 1_555 1_555
O15_30 C24_30 1_555 1_555
O16_30 C24_30 1_555 1_555
O17_32 C25_32 1_555 1_555
O18_32 C25_32 1_555 1_555
O19_32 C36_32 1_555 1_555
O20_32 C36_32 1_555 1_555
C6_32 N7_5 1_555 1_555
C18_30 N9_8 1_555 1_555
C20_32 N10_8 1_555 1_555
C22_32 C23_32 1_555 1_555
C30_32 N5_32 1_555 1_555
C32_32 N6_32 1_555 1_555
C34_32 C35_32 1_555 1_555
N6_32 Ni2_8 1_555 1_555
U4_10 O14_32 1_555 1_555
U4_10 O16_30 1_555 1_555
U4_10 O17_32 1_555 1_555
U5_10 O7_32 1_555 1_555
U5_10 O9_32 1_555 1_555
U3_32 O7_32 1_555 1_555
U3_32 O9_32 1_555 1_555
U3_32 O11_32 1_555 1_555
U3_32 O17_32 1_555 1_555
U3_32 O19_32 1_555 1_555
C8_32 H4_32 1_555 1_555
C9_32 C8_32 1_555 1_555
H5_32 C9_32 1_555 1_555
C10_32 C9_32 1_555 1_555
H6_32 C10_32 1_555 1_555
C11_32 C7_32 1_555 1_555
C12_32 C11_32 1_555 1_555
N8_5 C7_32 1_555 1_555
O12_32 C12_32 1_555 1_555
C8_32 N8_5 1_555 1_555
C10_32 C11_32 1_555 1_555
C14_31 C15_31 1_555 1_555
C15_31 H7_31 1_555 1_555
C16_31 C15_31 1_555 1_555
H8_31 C16_31 1_555 1_555
C18_31 C14_31 1_555 1_555
O15_31 C24_31 1_555 1_555
O16_31 C24_31 1_555 1_555
C14_32 C15_32 1_555 1_555
C15_32 H7_32 1_555 1_555
C16_32 C15_32 1_555 1_555
H8_32 C16_32 1_555 1_555
C18_32 C14_32 1_555 1_555
O15_32 C24_32 1_555 1_555
O16_32 C24_32 1_555 1_555

#END
