
###############################################################################
#
# This file contains modified crystal structure data generated from the
# MOF subset of the Cambridge Structural Database (CSD) v543 
# hosted by the Cambridge Crystallographic Data Centre (CCDC).
#
# This work is licensed under the Creative Commons
# Attribution-NonCommercial-ShareAlike 4.0 International License.
# To view a copy of this license, visit
# http://creativecommons.org/licenses/by-nc-sa/4.0/
# or send a letter to
# Creative Commons, PO Box 1866, Mountain View, CA 94042, USA.
#
# CIF created using the CSD Python API on 29 September 2022
# The structure has been converted into the P1 space group
# The structure has a 3D framework
# The original CSD entry BOBHUY is in the monoclinic crystal system
# The framework has been calculated to contain at least 10.0% void space
# The void calculation uses a probe of radius 1.32A, grid spacing 0.4
#
###############################################################################

data_BOBHUY
_chemical_formula_moiety         '(C274 H172 Cu8 N48 O76 U8)n'
_symmetry_cell_setting           triclinic
_symmetry_space_group_name_H-M   'P 1'
_symmetry_Int_Tables_number      1
_space_group_name_Hall           'P 1'
loop_
_symmetry_equiv_pos_site_id
_symmetry_equiv_pos_as_xyz
1 x,y,z
_cell_length_a                   26.077(3)
_cell_length_b                   14.2178(12)
_cell_length_c                   21.0657(17)
_cell_angle_alpha                90
_cell_angle_beta                 113.187(3)
_cell_angle_gamma                90
_cell_volume                     7179.39
loop_
_atom_site_label
_atom_site_type_symbol
_atom_site_fract_x
_atom_site_fract_y
_atom_site_fract_z
C27 C 0.0129(4) 0.2603(7) 0.1509(6)
H16 H 0.015417 0.295443 0.115045
C28 C 0.0600(5) 0.2491(9) 0.2091(6)
H17 H 0.093492 0.276535 0.212991
C29 C 0.0567(5) 0.1945(10) 0.2636(6)
H18 H 0.088330 0.182489 0.303276
C30 C 0.0044(5) 0.1591(8) 0.2561(5)
H19 H 0.000372 0.126135 0.292026
H31 H 0.021632 0.201902 0.937588
H32 H 0.013801 0.042951 0.909393
C31 C 0.9594(4) 0.1734(6) 0.1955(5)
C32 C 0.9028(4) 0.1385(6) 0.1812(5)
C33 C 0.8839(4) 0.0909(6) 0.2257(5)
H20 H 0.908467 0.076596 0.270485
C34 C 0.8294(5) 0.0657(7) 0.2035(5)
H21 H 0.816991 0.034112 0.233412
C35 C 0.7921(5) 0.0860(7) 0.1373(6)
H22 H 0.754766 0.068988 0.122187
C36 C 0.8127(4) 0.1336(6) 0.0934(5)
C37 C 0.7799(4) 0.1647(6) 0.0225(5)
H23 H 0.704172 0.113727 0.005668
N5 N 0.9633(4) 0.2241(5) 0.1419(4)
N6 N 0.8664(4) 0.1573(5) 0.1175(4)
Cu1 Cu 0.89158(5) 0.22799(8) 0.05568(6)
O22 O 0.9008(3) 0.3553(4) 0.0199(4)
O23 O 0.8596(4) 0.3851(5) 0.0903(4)
C22 C 0.8874(5) 0.7054(7) 0.0246(5)
H13 H 0.889801 0.770222 0.020629
C23 C 0.8691(5) 0.6709(7) 0.0738(5)
H14 H 0.858376 0.711138 0.101115
C24 C 0.8675(4) 0.5751(6) 0.0805(5)
H15 H 0.855367 0.549765 0.112845
C25 C 0.8836(4) 0.5160(6) 0.0402(5)
C26 C 0.8807(4) 0.4106(6) 0.0505(5)
C1 C 0.7455(6) 0.1697(9) 0.7100(6)
C2 C 0.8054(6) 0.2044(12) 0.7461(9)
H1 H 0.815094 0.207109 0.794993
H2 H 0.830133 0.161918 0.736634
H3 H 0.808663 0.265961 0.729354
C3 C 0.6608(4) 0.2531(7) 0.4582(6)
C4 C 0.6753(5) 0.3091(8) 0.4073(7)
C5 C 0.7285(7) 0.3476(9) 0.4294(9)
H4 H 0.753691 0.337228 0.474484
C6 C 0.7444(7) 0.4002(11) 0.3862(9)
H5 H 0.779899 0.426608 0.401280
C7 C 0.7093(7) 0.4120(11) 0.3248(9)
H6 H 0.720652 0.447811 0.295722
C8 C 0.6390(7) 0.3253(8) 0.3395(7)
C9 C 0.5801(6) 0.2943(7) 0.3072(6)
C10 C 0.4916(8) 0.3411(10) 0.2813(7)
H7 H 0.466992 0.384756 0.286479
C11 C 0.4692(6) 0.2640(10) 0.2377(6)
H8 H 0.430863 0.256151 0.215227
C12 C 0.5058(5) 0.2001(8) 0.2292(5)
H9 H 0.492600 0.149075 0.199514
C13 C 0.5630(5) 0.2135(7) 0.2660(5)
C14 C 0.6024(5) 0.1427(7) 0.2578(5)
C15 C 0.5063(4) 0.0456(6) 0.4992(5)
C16 C 0.4534(4) 0.0451(6) 0.4348(5)
C17 C 0.4507(4) 0.0917(6) 0.3751(5)
H10 H 0.482262 0.121008 0.374225
C18 C 0.4024(4) 0.0942(7) 0.3187(5)
H11 H 0.400379 0.125501 0.278992
C19 C 0.3562(4) 0.0497(7) 0.3208(5)
H12 H 0.322986 0.051852 0.281878
C20 C 0.4049(4) 0.0009(5) 0.4318(4)
C26_2 C 0.3807(4) 0.0894(6) 0.5505(5)
C38 C 0.7247(5) 0.1479(7) 0.9861(6)
C39 C 0.6994(5) 0.1823(8) 0.9195(6)
H24 H 0.661707 0.170764 0.893930
C40 C 0.7294(5) 0.2328(8) 0.8913(6)
H25 H 0.712408 0.257627 0.847023
C41 C 0.7854(4) 0.2463(7) 0.9296(5)
H26 H 0.806362 0.279328 0.910132
C42 C 0.8007(5) 0.0048(8) 0.8809(7)
C47 C 0.8810(4) 0.0018(6) 0.9966(6)
C48 C 0.9202(4) 0.0571(6) 0.9744(4)
C49 C 0.9632(4) 0.2000(7) 0.9771(5)
H30 H 0.966384 0.263658 0.988020
C50 C 0.9964(4) 0.1639(6) 0.9468(5)
C51 C 0.9916(4) 0.0695(6) 0.9301(5)
C52 C 0.9537(4) 0.0147(6) 0.9443(5)
N1 N 0.6549(8) 0.3758(9) 0.2968(7)
N2 N 0.5446(6) 0.3552(7) 0.3149(5)
N3 N 0.3573(3) 0.0035(5) 0.3768(4)
N7 N 0.8104(3) 0.2137(5) 0.9937(4)
N9 N 0.9258(3) 0.1483(5) 0.9922(4)
O2 O 0.6373(3) 0.0765(6) 0.7897(4)
O3 O 0.6154(3) 0.0624(5) 0.6387(4)
O4 O 0.7193(4) 0.1433(6) 0.7464(5)
O5 O 0.7278(4) 0.1630(8) 0.6478(5)
O6 O 0.6648(3) 0.0445(5) 0.5338(4)
O7 O 0.6103(3) 0.2492(5) 0.5818(4)
O8 O 0.6961(3) 0.2455(5) 0.5198(5)
O9 O 0.6134(3) 0.2129(4) 0.4406(3)
O10 O 0.6526(3) 0.1399(5) 0.3003(4)
O11 O 0.5838(3) 0.0850(5) 0.2087(4)
O12 O 0.5467(3) 0.0954(5) 0.4949(3)
O13 O 0.5091(3) 0.0018(5) 0.5514(4)
O14 O 0.4008(3) 0.1447(4) 0.5199(4)
O15 O 0.3596(4) 0.1149(5) 0.5903(4)
O16 O 0.8296(4) 0.0275(7) 0.8498(4)
U1 U 0.67094(2) 0.00644(2) 0.74717(2)
U2 U 0.63661(2) 0.14582(2) 0.55790(2)
Cu3 Cu 0.39158(5) 0.27201(8) 0.55568(6)
C21 C 0.3990(4) 0.9443(6) 0.4892(4)
C22_2 C 0.3874(5) 0.7946(7) 0.5246(5)
H13_2 H 0.389801 0.729778 0.520629
C23_2 C 0.3691(5) 0.8291(7) 0.5738(5)
H14_2 H 0.358376 0.788862 0.601115
C24_2 C 0.3675(4) 0.9249(6) 0.5805(5)
H15_2 H 0.355367 0.950235 0.612845
C25_2 C 0.3836(4) 0.9840(6) 0.5402(5)
C43 C 0.8252(5) 0.9806(7) 0.9545(6)
C44 C 0.7944(4) 0.9303(7) 0.9861(6)
H27 H 0.757582 0.913592 0.960089
C53 C 0.9484(4) 0.9134(6) 0.9232(5)
C54 C 0.5367(5) 0.7550(9) 0.5447(6)
H33 H 0.516795 0.715601 0.562062
C55 C 0.5904(6) 0.7802(11) 0.5864(7)
H34 H 0.606402 0.756059 0.630988
C56 C 0.6197(6) 0.8372(10) 0.5650(9)
H35 H 0.655236 0.856002 0.594504
C57 C 0.5957(5) 0.8700(9) 0.4949(7)
H36 H 0.615653 0.908857 0.477359
C58 C 0.5428(5) 0.8424(8) 0.4549(8)
C59 C 0.5126(5) 0.8708(7) 0.3820(7)
C60 C 0.5348(6) 0.9172(8) 0.3408(8)
H37 H 0.571806 0.937120 0.358658
C61 C 0.5000(6) 0.9334(8) 0.2713(7)
H38 H 0.514191 0.963024 0.242302
C62 C 0.4438(6) 0.9051(8) 0.2452(7)
H39 H 0.420114 0.915589 0.199381
C63 C 0.4253(5) 0.8607(6) 0.2911(6)
C64 C 0.3678(5) 0.8233(7) 0.2753(5)
C65 C 0.3224(5) 0.8373(8) 0.2138(6)
H40 H 0.326343 0.869483 0.177598
C66 C 0.2713(6) 0.8029(10) 0.2072(6)
H41 H 0.239965 0.812893 0.166757
C67 C 0.2670(5) 0.7532(8) 0.2615(6)
H42 H 0.232620 0.729729 0.257884
C68 C 0.3133(5) 0.7390(7) 0.3201(6)
H43 H 0.310106 0.704043 0.355677
N4 N 0.4016(4) 0.8499(5) 0.4826(5)
N10 N 0.5124(4) 0.7861(6) 0.4795(5)
N11 N 0.4595(4) 0.8457(5) 0.3573(5)
N12 N 0.3634(4) 0.7738(5) 0.3284(4)
O1 O 0.7054(4) 0.9367(5) 0.7069(4)
O17 O 0.7470(4) 0.9951(6) 0.8533(5)
O18 O 0.9231(3) 0.8570(4) 0.9490(3)
O19 O 0.9706(3) 0.8875(5) 0.8828(3)
Cu2 Cu 0.43300(5) 0.76940(8) 0.41491(6)
O20 O 0.6526(3) 0.8601(5) 0.8003(4)
O21 O 0.5838(3) 0.9150(5) 0.7087(4)
O24 O 0.4231(3) 0.6430(4) 0.4490(3)
O25 O 0.4706(3) 0.6125(5) 0.3828(3)
Cu4 Cu 0.93300(5) 0.73060(8) 0.91491(6)
U3 U 0.67094(2) 0.99356(2) 0.24717(2)
C22_3 C 0.3874(5) 0.2054(7) 0.0246(5)
H13_3 H 0.389801 0.270222 0.020629
C23_3 C 0.3691(5) 0.1709(7) 0.0738(5)
H14_3 H 0.358376 0.211138 0.101115
C24_3 C 0.3675(4) 0.0751(6) 0.0805(5)
H15_3 H 0.355367 0.049765 0.112845
C25_3 C 0.3836(4) 0.0160(6) 0.0402(5)
C43_2 C 0.8252(5) 0.0194(7) 0.4545(6)
C44_2 C 0.7944(4) 0.0697(7) 0.4861(6)
H27_2 H 0.757582 0.086408 0.460089
C45 C 0.8181(6) 0.0935(7) 0.5536(7)
H28 H 0.797659 0.125508 0.574403
C46 C 0.8709(5) 0.0703(7) 0.5897(7)
H29 H 0.887015 0.088561 0.635802
C53_2 C 0.9484(4) 0.0866(6) 0.4232(5)
C54_2 C 0.5367(5) 0.2450(9) 0.0447(6)
H33_2 H 0.516795 0.284399 0.062062
C55_2 C 0.5904(6) 0.2198(11) 0.0864(7)
H34_2 H 0.606402 0.243941 0.130988
C56_2 C 0.6197(6) 0.1628(10) 0.0650(9)
H35_2 H 0.655236 0.143998 0.094504
N8 N 0.9021(4) 0.0230(5) 0.5643(4)
O1_2 O 0.7054(4) 0.0633(5) 0.2069(4)
O17_2 O 0.7470(4) 0.0049(6) 0.3533(5)
O18_2 O 0.9231(3) 0.1430(4) 0.4490(3)
O19_2 O 0.9706(3) 0.1125(5) 0.3828(3)
Cu4_2 Cu 0.93300(5) 0.26940(8) 0.41491(6)
C21_2 C 0.3990(4) 0.0557(6) 0.9892(4)
C57_2 C 0.5957(5) 0.1300(9) 0.9949(7)
H36_2 H 0.615653 0.091143 0.977359
C58_2 C 0.5428(5) 0.1576(8) 0.9549(8)
C59_2 C 0.5126(5) 0.1292(7) 0.8820(7)
C60_2 C 0.5348(6) 0.0828(8) 0.8408(8)
H37_2 H 0.571806 0.062880 0.858658
C61_2 C 0.5000(6) 0.0666(8) 0.7713(7)
H38_2 H 0.514191 0.036976 0.742302
C62_2 C 0.4438(6) 0.0949(8) 0.7452(7)
H39_2 H 0.420114 0.084411 0.699381
C63_2 C 0.4253(5) 0.1393(6) 0.7911(6)
C64_2 C 0.3678(5) 0.1767(7) 0.7753(5)
C65_2 C 0.3224(5) 0.1627(8) 0.7138(6)
H40_2 H 0.326343 0.130517 0.677598
C66_2 C 0.2713(6) 0.1971(10) 0.7072(6)
H41_2 H 0.239965 0.187107 0.666757
C67_2 C 0.2670(5) 0.2468(8) 0.7615(6)
H42_2 H 0.232620 0.270271 0.757884
C68_2 C 0.3133(5) 0.2610(7) 0.8201(6)
H43_2 H 0.310106 0.295957 0.855677
N4_2 N 0.4016(4) 0.1501(5) 0.9826(5)
N10_2 N 0.5124(4) 0.2139(6) 0.9795(5)
N11_2 N 0.4595(4) 0.1543(5) 0.8573(5)
N12_2 N 0.3634(4) 0.2262(5) 0.8284(4)
Cu2_2 Cu 0.43300(5) 0.23060(8) 0.91491(6)
O24_2 O 0.4231(3) 0.3570(4) 0.9490(3)
O25_2 O 0.4706(3) 0.3875(5) 0.8828(3)
C1_2 C 0.7455(6) 0.8303(9) 0.2100(6)
C2_2 C 0.8054(6) 0.7956(12) 0.2461(9)
H1_2 H 0.815094 0.792891 0.294993
H2_2 H 0.830133 0.838082 0.236634
H3_2 H 0.808663 0.734039 0.229354
C26_3 C 0.3807(4) 0.9106(6) 0.0505(5)
C31_2 C 0.9594(4) 0.8266(6) 0.6955(5)
C32_2 C 0.9028(4) 0.8615(6) 0.6812(5)
C33_2 C 0.8839(4) 0.9091(6) 0.7257(5)
H20_2 H 0.908467 0.923404 0.770485
C34_2 C 0.8294(5) 0.9343(7) 0.7035(5)
H21_2 H 0.816991 0.965888 0.733412
C35_2 C 0.7921(5) 0.9140(7) 0.6373(6)
H22_2 H 0.754766 0.931012 0.622187
C36_2 C 0.8127(4) 0.8664(6) 0.5934(5)
C37_2 C 0.7799(4) 0.8353(6) 0.5225(5)
C38_2 C 0.7247(5) 0.8521(7) 0.4861(6)
H23_2 H 0.704172 0.886273 0.505668
C39_2 C 0.6994(5) 0.8177(8) 0.4195(6)
H24_2 H 0.661707 0.829236 0.393930
C40_2 C 0.7294(5) 0.7672(8) 0.3913(6)
H25_2 H 0.712408 0.742373 0.347023
C41_2 C 0.7854(4) 0.7537(7) 0.4296(5)
H26_2 H 0.806362 0.720672 0.410132
C42_2 C 0.8007(5) 0.9952(8) 0.3809(7)
C47_2 C 0.8810(4) 0.9982(6) 0.4966(6)
C48_2 C 0.9202(4) 0.9429(6) 0.4744(4)
C49_2 C 0.9632(4) 0.8000(7) 0.4771(5)
H30_2 H 0.966384 0.736342 0.488020
C50_2 C 0.9964(4) 0.8361(6) 0.4468(5)
C51_2 C 0.9916(4) 0.9305(6) 0.4301(5)
C52_2 C 0.9537(4) 0.9853(6) 0.4443(5)
N5_2 N 0.9633(4) 0.7759(5) 0.6419(4)
N6_2 N 0.8664(4) 0.8427(5) 0.6175(4)
N7_2 N 0.8104(3) 0.7863(5) 0.4937(4)
N9_2 N 0.9258(3) 0.8517(5) 0.4922(4)
O2_2 O 0.6373(3) 0.9235(6) 0.2897(4)
O3_2 O 0.6154(3) 0.9376(5) 0.1387(4)
O4_2 O 0.7193(4) 0.8567(6) 0.2464(5)
O5_2 O 0.7278(4) 0.8370(8) 0.1478(5)
O6_2 O 0.6648(3) 0.9555(5) 0.0338(4)
O7_2 O 0.6103(3) 0.7508(5) 0.0818(4)
O8_2 O 0.6961(3) 0.7545(5) 0.0198(5)
O13_2 O 0.5091(3) 0.9982(5) 0.0514(4)
O14_2 O 0.4008(3) 0.8553(4) 0.0199(4)
O15_2 O 0.3596(4) 0.8851(5) 0.0903(4)
O16_2 O 0.8296(4) 0.9725(7) 0.3498(4)
Cu1_2 Cu 0.89158(5) 0.77201(8) 0.55568(6)
U2_2 U 0.63661(2) 0.85418(2) 0.05790(2)
O22_2 O 0.9008(3) 0.6447(4) 0.5199(4)
O23_2 O 0.8596(4) 0.6149(5) 0.5903(4)
Cu3_2 Cu 0.39158(5) 0.72799(8) 0.05568(6)
C3_2 C 0.6608(4) 0.7469(7) 0.9582(6)
C4_2 C 0.6753(5) 0.6909(8) 0.9073(7)
C5_2 C 0.7285(7) 0.6524(9) 0.9294(9)
H4_2 H 0.753691 0.662772 0.974484
C6_2 C 0.7444(7) 0.5998(11) 0.8862(9)
H5_2 H 0.779899 0.573392 0.901280
C7_2 C 0.7093(7) 0.5880(11) 0.8248(9)
H6_2 H 0.720652 0.552189 0.795722
C8_2 C 0.6390(7) 0.6747(8) 0.8395(7)
C9_2 C 0.5801(6) 0.7057(7) 0.8072(6)
C10_2 C 0.4916(8) 0.6589(10) 0.7813(7)
H7_2 H 0.466992 0.615244 0.786479
C11_2 C 0.4692(6) 0.7360(10) 0.7377(6)
H8_2 H 0.430863 0.743849 0.715227
C12_2 C 0.5058(5) 0.7999(8) 0.7292(5)
H9_2 H 0.492600 0.850925 0.699514
C13_2 C 0.5630(5) 0.7865(7) 0.7660(5)
C14_2 C 0.6024(5) 0.8573(7) 0.7578(5)
C15_2 C 0.5063(4) 0.9544(6) 0.9992(5)
C16_2 C 0.4534(4) 0.9549(6) 0.9348(5)
C17_2 C 0.4507(4) 0.9083(6) 0.8751(5)
H10_2 H 0.482262 0.878992 0.874225
C18_2 C 0.4024(4) 0.9058(7) 0.8187(5)
H11_2 H 0.400379 0.874499 0.778992
C19_2 C 0.3562(4) 0.9503(7) 0.8208(5)
H12_2 H 0.322986 0.948148 0.781878
C20_2 C 0.4049(4) 0.9991(5) 0.9318(4)
N1_2 N 0.6549(8) 0.6242(9) 0.7968(7)
N2_2 N 0.5446(6) 0.6448(7) 0.8149(5)
N3_2 N 0.3573(3) 0.9965(5) 0.8768(4)
O9_2 O 0.6134(3) 0.7871(4) 0.9406(3)
O12_2 O 0.5467(3) 0.9046(5) 0.9949(3)
C27_2 C 0.5129(4) 0.7603(7) 0.1509(6)
H16_2 H 0.515417 0.795443 0.115045
C28_2 C 0.5600(5) 0.7491(9) 0.2091(6)
H17_2 H 0.593492 0.776535 0.212991
C29_2 C 0.5567(5) 0.6945(10) 0.2636(6)
H18_2 H 0.588330 0.682489 0.303276
C30_2 C 0.5044(5) 0.6591(8) 0.2561(5)
H19_2 H 0.500372 0.626135 0.292026
C31_3 C 0.4594(4) 0.6734(6) 0.1955(5)
C32_3 C 0.4028(4) 0.6385(6) 0.1812(5)
C33_3 C 0.3839(4) 0.5909(6) 0.2257(5)
H20_3 H 0.408467 0.576596 0.270485
C34_3 C 0.3294(5) 0.5657(7) 0.2035(5)
H21_3 H 0.316991 0.534112 0.233412
C35_3 C 0.2921(5) 0.5860(7) 0.1373(6)
H22_3 H 0.254766 0.568988 0.122187
C36_3 C 0.3127(4) 0.6336(6) 0.0934(5)
C37_3 C 0.2799(4) 0.6647(6) 0.0225(5)
H23_3 H 0.204172 0.613727 0.005668
C45_2 C 0.3181(6) 0.4065(7) 0.0536(7)
H28_2 H 0.297659 0.374492 0.074403
C46_2 C 0.3709(5) 0.4297(7) 0.0897(7)
H29_2 H 0.387015 0.411439 0.135802
N5_3 N 0.4633(4) 0.7241(5) 0.1419(4)
N6_3 N 0.3664(4) 0.6573(5) 0.1175(4)
N8_2 N 0.4021(4) 0.4770(5) 0.0643(4)
C1_3 C 0.2455(6) 0.6697(9) 0.7100(6)
C2_3 C 0.3054(6) 0.7044(12) 0.7461(9)
H1_3 H 0.315094 0.707109 0.794993
H2_3 H 0.330133 0.661918 0.736634
H3_3 H 0.308663 0.765961 0.729354
C3_3 C 0.1608(4) 0.7531(7) 0.4582(6)
C4_3 C 0.1753(5) 0.8091(8) 0.4073(7)
C5_3 C 0.2285(7) 0.8476(9) 0.4294(9)
H4_3 H 0.253691 0.837228 0.474484
C6_3 C 0.2444(7) 0.9002(11) 0.3862(9)
H5_3 H 0.279899 0.926608 0.401280
C7_3 C 0.2093(7) 0.9120(11) 0.3248(9)
H6_3 H 0.220652 0.947811 0.295722
C8_3 C 0.1390(7) 0.8253(8) 0.3395(7)
C9_3 C 0.0801(6) 0.7943(7) 0.3072(6)
C12_3 C 0.0058(5) 0.7001(8) 0.2292(5)
C13_3 C 0.0630(5) 0.7135(7) 0.2660(5)
C14_3 C 0.1024(5) 0.6427(7) 0.2578(5)
C15_3 C 0.0063(4) 0.5456(6) 0.4992(5)
C38_3 C 0.2247(5) 0.6479(7) 0.9861(6)
C39_3 C 0.1994(5) 0.6823(8) 0.9195(6)
H24_3 H 0.161707 0.670764 0.893930
C40_3 C 0.2294(5) 0.7328(8) 0.8913(6)
H25_3 H 0.212408 0.757627 0.847023
C41_3 C 0.2854(4) 0.7463(7) 0.9296(5)
H26_3 H 0.306362 0.779328 0.910132
C42_3 C 0.3007(5) 0.5048(8) 0.8809(7)
C43_3 C 0.3252(5) 0.4806(7) 0.9545(6)
C44_3 C 0.2944(4) 0.4303(7) 0.9861(6)
H27_3 H 0.257582 0.413592 0.960089
C47_3 C 0.3810(4) 0.5018(6) 0.9966(6)
C48_3 C 0.4202(4) 0.5571(6) 0.9744(4)
C49_3 C 0.4632(4) 0.7000(7) 0.9771(5)
H30_3 H 0.466384 0.763658 0.988020
C50_3 C 0.4964(4) 0.6639(6) 0.9468(5)
H31_2 H 0.521632 0.701902 0.937588
C51_3 C 0.4916(4) 0.5695(6) 0.9301(5)
H32_2 H 0.513801 0.542951 0.909393
C52_3 C 0.4537(4) 0.5147(6) 0.9443(5)
C53_3 C 0.4484(4) 0.4134(6) 0.9232(5)
C54_3 C 0.0367(5) 0.2550(9) 0.5447(6)
H33_3 H 0.016795 0.215601 0.562062
C55_3 C 0.0904(6) 0.2802(11) 0.5864(7)
H34_3 H 0.106402 0.256059 0.630988
C56_3 C 0.1197(6) 0.3372(10) 0.5650(9)
H35_3 H 0.155236 0.356002 0.594504
C57_3 C 0.0957(5) 0.3700(9) 0.4949(7)
H36_3 H 0.115653 0.408857 0.477359
C58_3 C 0.0428(5) 0.3424(8) 0.4549(8)
C59_3 C 0.0126(5) 0.3708(7) 0.3820(7)
C60_3 C 0.0348(6) 0.4172(8) 0.3408(8)
H37_3 H 0.071806 0.437120 0.358658
C61_3 C -0.0000(6) 0.4334(8) 0.2713(7)
H38_3 H 0.014191 0.463024 0.242302
N1_3 N 0.1549(8) 0.8758(9) 0.2968(7)
N2_3 N 0.0446(6) 0.8552(7) 0.3149(5)
N7_3 N 0.3104(3) 0.7137(5) 0.9937(4)
N9_3 N 0.4258(3) 0.6483(5) 0.9922(4)
N10_3 N 0.0124(4) 0.2861(6) 0.4795(5)
O1_3 O 0.2054(4) 0.4367(5) 0.7069(4)
O2_3 O 0.1373(3) 0.5765(6) 0.7897(4)
O3_3 O 0.1154(3) 0.5624(5) 0.6387(4)
O4_3 O 0.2193(4) 0.6433(6) 0.7464(5)
O5_3 O 0.2278(4) 0.6630(8) 0.6478(5)
O6_3 O 0.1648(3) 0.5445(5) 0.5338(4)
O7_3 O 0.1103(3) 0.7492(5) 0.5818(4)
O8_3 O 0.1961(3) 0.7455(5) 0.5198(5)
O9_3 O 0.1134(3) 0.7129(4) 0.4406(3)
O10_2 O 0.1526(3) 0.6399(5) 0.3003(4)
O11_2 O 0.0838(3) 0.5850(5) 0.2087(4)
O12_3 O 0.0467(3) 0.5954(5) 0.4949(3)
O13_3 O 0.0091(3) 0.5018(5) 0.5514(4)
O16_3 O 0.3296(4) 0.5275(7) 0.8498(4)
O17_3 O 0.2470(4) 0.4951(6) 0.8533(5)
U1_2 U 0.17094(2) 0.50644(2) 0.74717(2)
U2_3 U 0.13661(2) 0.64582(2) 0.55790(2)
O20_2 O 0.1526(3) 0.3601(5) 0.8003(4)
O21_2 O 0.0838(3) 0.4150(5) 0.7087(4)
U3_2 U 0.17094(2) 0.49356(2) 0.24717(2)
C10_3 C 0.9916(8) 0.8411(10) 0.2813(7)
H7_3 H 0.966992 0.884756 0.286479
C11_3 C 0.9692(6) 0.7640(10) 0.2377(6)
H8_3 H 0.930863 0.756151 0.215227
H9_3 H 0.992600 0.649075 0.199514
C16_3 C 0.9534(4) 0.5451(6) 0.4348(5)
C17_3 C 0.9507(4) 0.5917(6) 0.3751(5)
H10_3 H 0.982262 0.621008 0.374225
C18_3 C 0.9024(4) 0.5942(7) 0.3187(5)
H11_3 H 0.900379 0.625501 0.278992
C19_3 C 0.8562(4) 0.5497(7) 0.3208(5)
H12_3 H 0.822986 0.551852 0.281878
C20_3 C 0.9049(4) 0.5009(5) 0.4318(4)
C21_3 C 0.8990(4) 0.4443(6) 0.4892(4)
C22_4 C 0.8874(5) 0.2946(7) 0.5246(5)
H13_4 H 0.889801 0.229778 0.520629
C23_4 C 0.8691(5) 0.3291(7) 0.5738(5)
H14_4 H 0.858376 0.288862 0.601115
C24_4 C 0.8675(4) 0.4249(6) 0.5805(5)
H15_4 H 0.855367 0.450235 0.612845
C25_4 C 0.8836(4) 0.4840(6) 0.5402(5)
C26_4 C 0.8807(4) 0.5894(6) 0.5505(5)
C61_4 C 1.0000(6) 0.4334(8) 0.2713(7)
C62_3 C 0.9438(6) 0.4051(8) 0.2452(7)
H39_3 H 0.920114 0.415589 0.199381
C63_3 C 0.9253(5) 0.3607(6) 0.2911(6)
C64_3 C 0.8678(5) 0.3233(7) 0.2753(5)
C65_3 C 0.8224(5) 0.3373(8) 0.2138(6)
H40_3 H 0.826343 0.369483 0.177598
C66_3 C 0.7713(6) 0.3029(10) 0.2072(6)
H41_3 H 0.739965 0.312893 0.166757
C67_3 C 0.7670(5) 0.2532(8) 0.2615(6)
H42_3 H 0.732620 0.229729 0.257884
C68_3 C 0.8133(5) 0.2390(7) 0.3201(6)
H43_3 H 0.810106 0.204043 0.355677
N3_3 N 0.8573(3) 0.5035(5) 0.3768(4)
N4_3 N 0.9016(4) 0.3499(5) 0.4826(5)
N11_3 N 0.9595(4) 0.3457(5) 0.3573(5)
N12_3 N 0.8634(4) 0.2738(5) 0.3284(4)
C1_4 C 0.2455(6) 0.3303(9) 0.2100(6)
C2_4 C 0.3054(6) 0.2956(12) 0.2461(9)
H1_4 H 0.315094 0.292891 0.294993
H2_4 H 0.330133 0.338082 0.236634
H3_4 H 0.308663 0.234039 0.229354
C27_3 C 0.5129(4) 0.2397(7) 0.6509(6)
H16_3 H 0.515417 0.204557 0.615045
C28_3 C 0.5600(5) 0.2509(9) 0.7091(6)
H17_3 H 0.593492 0.223465 0.712991
C29_3 C 0.5567(5) 0.3055(10) 0.7636(6)
H18_3 H 0.588330 0.317511 0.803276
C30_3 C 0.5044(5) 0.3409(8) 0.7561(5)
H19_3 H 0.500372 0.373865 0.792026
C31_4 C 0.4594(4) 0.3266(6) 0.6955(5)
C32_4 C 0.4028(4) 0.3615(6) 0.6812(5)
C33_4 C 0.3839(4) 0.4091(6) 0.7257(5)
H20_4 H 0.408467 0.423404 0.770485
C34_4 C 0.3294(5) 0.4343(7) 0.7035(5)
H21_4 H 0.316991 0.465888 0.733412
C35_4 C 0.2921(5) 0.4140(7) 0.6373(6)
H22_4 H 0.254766 0.431012 0.622187
C36_4 C 0.3127(4) 0.3664(6) 0.5934(5)
C37_4 C 0.2799(4) 0.3353(6) 0.5225(5)
C38_4 C 0.2247(5) 0.3521(7) 0.4861(6)
H23_4 H 0.204172 0.386273 0.505668
C39_4 C 0.1994(5) 0.3177(8) 0.4195(6)
H24_4 H 0.161707 0.329236 0.393930
C40_4 C 0.2294(5) 0.2672(8) 0.3913(6)
H25_4 H 0.212408 0.242373 0.347023
C41_4 C 0.2854(4) 0.2537(7) 0.4296(5)
H26_4 H 0.306362 0.220672 0.410132
C42_4 C 0.3007(5) 0.4952(8) 0.3809(7)
C43_4 C 0.3252(5) 0.5194(7) 0.4545(6)
C44_4 C 0.2944(4) 0.5697(7) 0.4861(6)
H27_4 H 0.257582 0.586408 0.460089
C45_3 C 0.3181(6) 0.5935(7) 0.5536(7)
H28_3 H 0.297659 0.625508 0.574403
C46_3 C 0.3709(5) 0.5703(7) 0.5897(7)
H29_3 H 0.387015 0.588561 0.635802
C47_4 C 0.3810(4) 0.4982(6) 0.4966(6)
C48_4 C 0.4202(4) 0.4429(6) 0.4744(4)
C49_4 C 0.4632(4) 0.3000(7) 0.4771(5)
H30_4 H 0.466384 0.236342 0.488020
C50_4 C 0.4964(4) 0.3361(6) 0.4468(5)
H31_3 H 0.521632 0.298098 0.437588
C51_4 C 0.4916(4) 0.4305(6) 0.4301(5)
H32_3 H 0.513801 0.457049 0.409393
C52_4 C 0.4537(4) 0.4853(6) 0.4443(5)
C53_4 C 0.4484(4) 0.5866(6) 0.4232(5)
C54_4 C 0.0367(5) 0.7450(9) 0.0447(6)
H33_4 H 0.016795 0.784399 0.062062
C55_4 C 0.0904(6) 0.7198(11) 0.0864(7)
H34_4 H 0.106402 0.743941 0.130988
C56_4 C 0.1197(6) 0.6628(10) 0.0650(9)
H35_4 H 0.155236 0.643998 0.094504
N5_4 N 0.4633(4) 0.2759(5) 0.6419(4)
N6_4 N 0.3664(4) 0.3427(5) 0.6175(4)
N7_4 N 0.3104(3) 0.2863(5) 0.4937(4)
N8_3 N 0.4021(4) 0.5230(5) 0.5643(4)
N9_4 N 0.4258(3) 0.3517(5) 0.4922(4)
O1_4 O 0.2054(4) 0.5633(5) 0.2069(4)
O2_4 O 0.1373(3) 0.4235(6) 0.2897(4)
O3_4 O 0.1154(3) 0.4376(5) 0.1387(4)
O4_4 O 0.2193(4) 0.3567(6) 0.2464(5)
O5_4 O 0.2278(4) 0.3370(8) 0.1478(5)
O6_4 O 0.1648(3) 0.4555(5) 0.0338(4)
O7_4 O 0.1103(3) 0.2508(5) 0.0818(4)
O8_4 O 0.1961(3) 0.2545(5) 0.0198(5)
O13_4 O 0.0091(3) 0.4982(5) 0.0514(4)
O16_4 O 0.3296(4) 0.4725(7) 0.3498(4)
O17_4 O 0.2470(4) 0.5049(6) 0.3533(5)
U2_4 U 0.13661(2) 0.35418(2) 0.05790(2)
C3_4 C 0.1608(4) 0.2469(7) 0.9582(6)
C4_4 C 0.1753(5) 0.1909(8) 0.9073(7)
C5_4 C 0.2285(7) 0.1524(9) 0.9294(9)
H4_4 H 0.253691 0.162772 0.974484
C6_4 C 0.2444(7) 0.0998(11) 0.8862(9)
H5_4 H 0.279899 0.073392 0.901280
C7_4 C 0.2093(7) 0.0880(11) 0.8248(9)
H6_4 H 0.220652 0.052189 0.795722
C8_4 C 0.1390(7) 0.1747(8) 0.8395(7)
C9_4 C 0.0801(6) 0.2057(7) 0.8072(6)
C12_4 C 0.0058(5) 0.2999(8) 0.7292(5)
C13_4 C 0.0630(5) 0.2865(7) 0.7660(5)
C14_4 C 0.1024(5) 0.3573(7) 0.7578(5)
C15_4 C 0.0063(4) 0.4544(6) 0.9992(5)
C57_4 C 0.0957(5) 0.6300(9) 0.9949(7)
H36_4 H 0.115653 0.591143 0.977359
C58_4 C 0.0428(5) 0.6576(8) 0.9549(8)
C59_4 C 0.0126(5) 0.6292(7) 0.8820(7)
C60_4 C 0.0348(6) 0.5828(8) 0.8408(8)
H37_4 H 0.071806 0.562880 0.858658
C61_5 C -0.0000(6) 0.5666(8) 0.7713(7)
H38_4 H 0.014191 0.536976 0.742302
N1_4 N 0.1549(8) 0.1242(9) 0.7968(7)
N2_4 N 0.0446(6) 0.1448(7) 0.8149(5)
N10_4 N 0.0124(4) 0.7139(6) 0.9795(5)
O9_4 O 0.1134(3) 0.2871(4) 0.9406(3)
O12_4 O 0.0467(3) 0.4046(5) 0.9949(3)
C10_4 C 0.9916(8) 0.1589(10) 0.7813(7)
H7_4 H 0.966992 0.115244 0.786479
C11_4 C 0.9692(6) 0.2360(10) 0.7377(6)
H8_4 H 0.930863 0.243849 0.715227
H9_4 H 0.992600 0.350925 0.699514
C16_4 C 0.9534(4) 0.4549(6) 0.9348(5)
C17_4 C 0.9507(4) 0.4083(6) 0.8751(5)
H10_4 H 0.982262 0.378992 0.874225
C18_4 C 0.9024(4) 0.4058(7) 0.8187(5)
H11_4 H 0.900379 0.374499 0.778992
C19_4 C 0.8562(4) 0.4503(7) 0.8208(5)
H12_4 H 0.822986 0.448148 0.781878
C20_4 C 0.9049(4) 0.4991(5) 0.9318(4)
C21_4 C 0.8990(4) 0.5557(6) 0.9892(4)
C61_6 C 1.0000(6) 0.5666(8) 0.7713(7)
C62_4 C 0.9438(6) 0.5949(8) 0.7452(7)
H39_4 H 0.920114 0.584411 0.699381
C63_4 C 0.9253(5) 0.6393(6) 0.7911(6)
C64_4 C 0.8678(5) 0.6767(7) 0.7753(5)
C65_4 C 0.8224(5) 0.6627(8) 0.7138(6)
H40_4 H 0.826343 0.630517 0.677598
C66_4 C 0.7713(6) 0.6971(10) 0.7072(6)
H41_4 H 0.739965 0.687107 0.666757
C67_4 C 0.7670(5) 0.7468(8) 0.7615(6)
H42_4 H 0.732620 0.770271 0.757884
C68_4 C 0.8133(5) 0.7610(7) 0.8201(6)
H43_4 H 0.810106 0.795957 0.855677
N3_4 N 0.8573(3) 0.4965(5) 0.8768(4)
N4_4 N 0.9016(4) 0.6501(5) 0.9826(5)
N11_4 N 0.9595(4) 0.6543(5) 0.8573(5)
N12_4 N 0.8634(4) 0.7262(5) 0.8284(4)
C45_4 C 0.8181(6) 0.9065(7) 0.0536(7)
H28_4 H 0.797659 0.874492 0.074403
C46_4 C 0.8709(5) 0.9297(7) 0.0897(7)
H29_4 H 0.887015 0.911439 0.135802
N8_4 N 0.9021(4) 0.9770(5) 0.0643(4)
C27_4 C 0.0129(4) 0.7397(7) 0.6509(6)
H16_4 H 0.015417 0.704557 0.615045
C28_4 C 0.0600(5) 0.7509(9) 0.7091(6)
H17_4 H 0.093492 0.723465 0.712991
C29_4 C 0.0567(5) 0.8055(10) 0.7636(6)
H18_4 H 0.088330 0.817511 0.803276
C30_4 C 0.0044(5) 0.8409(8) 0.7561(5)
H19_4 H 0.000372 0.873865 0.792026
H31_4 H 0.021632 0.798098 0.437588
H32_4 H 0.013801 0.957049 0.409393
loop_
_geom_bond_atom_site_label_1
_geom_bond_atom_site_label_2
_geom_bond_site_symmetry_1
_geom_bond_site_symmetry_2
C27 H16 1_555 1_555
C28 C27 1_555 1_555
H17 C28 1_555 1_555
C29 C28 1_555 1_555
H18 C29 1_555 1_555
C30 C29 1_555 1_555
H19 C30 1_555 1_555
C32 C31 1_555 1_555
C33 C32 1_555 1_555
H20 C33 1_555 1_555
C34 C33 1_555 1_555
H21 C34 1_555 1_555
C35 C34 1_555 1_555
H22 C35 1_555 1_555
C36 C35 1_555 1_555
C37 C36 1_555 1_555
N6 C32 1_555 1_555
Cu1 N5 1_555 1_555
O22 Cu1 1_555 1_555
O23 Cu1 1_555 1_555
C31 N5 1_555 1_555
C36 N6 1_555 1_555
N6 Cu1 1_555 1_555
C22 H13 1_555 1_555
C23 C22 1_555 1_555
H14 C23 1_555 1_555
C24 C23 1_555 1_555
H15 C24 1_555 1_555
C26 C25 1_555 1_555
O22 C26 1_555 1_555
O23 C26 1_555 1_555
C24 C25 1_555 1_555
C1 C2 1_555 1_555
C2 H1 1_555 1_555
H2 C2 1_555 1_555
H3 C2 1_555 1_555
C3 C4 1_555 1_555
C4 C5 1_555 1_555
C5 H4 1_555 1_555
C6 C5 1_555 1_555
H5 C6 1_555 1_555
C7 C6 1_555 1_555
H6 C7 1_555 1_555
C8 C4 1_555 1_555
C9 C8 1_555 1_555
C10 H7 1_555 1_555
C11 C10 1_555 1_555
H8 C11 1_555 1_555
C12 C11 1_555 1_555
H9 C12 1_555 1_555
C13 C9 1_555 1_555
C14 C13 1_555 1_555
C15 C16 1_555 1_555
C16 C17 1_555 1_555
C17 H10 1_555 1_555
C18 C17 1_555 1_555
H11 C18 1_555 1_555
C19 C18 1_555 1_555
H12 C19 1_555 1_555
C20 C16 1_555 1_555
C39 C38 1_555 1_555
H24 C39 1_555 1_555
C40 C39 1_555 1_555
H25 C40 1_555 1_555
C41 C40 1_555 1_555
H26 C41 1_555 1_555
C48 C47 1_555 1_555
C49 H30 1_555 1_555
C50 C49 1_555 1_555
C51 C50 1_555 1_555
C52 C48 1_555 1_555
N1 C7 1_555 1_555
N2 C9 1_555 1_555
N3 C19 1_555 1_555
N9 C48 1_555 1_555
O2 U1 1_555 1_555
O3 U1 1_555 1_555
O4 C1 1_555 1_555
O5 C1 1_555 1_555
O6 U2 1_555 1_555
O7 U2 1_555 1_555
O8 C3 1_555 1_555
O9 C3 1_555 1_555
O10 C14 1_555 1_555
O11 C14 1_555 1_555
O12 C15 1_555 1_555
O13 C15 1_555 1_555
O14 C26_2 1_555 1_555
O15 C26_2 1_555 1_555
O16 C42 1_555 1_555
U1 O4 1_555 1_555
U2 O3 1_555 1_555
Cu3 O14 1_555 1_555
C8 N1 1_555 1_555
C10 N2 1_555 1_555
C12 C13 1_555 1_555
C20 N3 1_555 1_555
C41 N7 1_555 1_555
C49 N9 1_555 1_555
C51 C52 1_555 1_555
O5 U2 1_555 1_555
O8 U2 1_555 1_555
O9 U2 1_555 1_555
O12 U2 1_555 1_555
O15 Cu3 1_555 1_555
C22_2 H13_2 1_555 1_555
C23_2 C22_2 1_555 1_555
H14_2 C23_2 1_555 1_555
C24_2 C23_2 1_555 1_555
H15_2 C24_2 1_555 1_555
C25_2 C21 1_555 1_555
C43 C44 1_555 1_555
C44 H27 1_555 1_555
C54 H33 1_555 1_555
C55 C54 1_555 1_555
H34 C55 1_555 1_555
C56 C55 1_555 1_555
H35 C56 1_555 1_555
C57 C56 1_555 1_555
H36 C57 1_555 1_555
C58 C57 1_555 1_555
C59 C58 1_555 1_555
C60 C59 1_555 1_555
H37 C60 1_555 1_555
C61 C60 1_555 1_555
H38 C61 1_555 1_555
C62 C61 1_555 1_555
H39 C62 1_555 1_555
C63 C62 1_555 1_555
C64 C63 1_555 1_555
C65 C64 1_555 1_555
H40 C65 1_555 1_555
C66 C65 1_555 1_555
H41 C66 1_555 1_555
C67 C66 1_555 1_555
H42 C67 1_555 1_555
C68 C67 1_555 1_555
H43 C68 1_555 1_555
N4 C21 1_555 1_555
N10 C54 1_555 1_555
N11 C59 1_555 1_555
N12 C64 1_555 1_555
O18 C53 1_555 1_555
O19 C53 1_555 1_555
Cu2 N4 1_555 1_555
O24 Cu2 1_555 1_555
O25 Cu2 1_555 1_555
Cu4 O18 1_555 1_555
C22_2 N4 1_555 1_555
C24_2 C25_2 1_555 1_555
C58 N10 1_555 1_555
C63 N11 1_555 1_555
C68 N12 1_555 1_555
N10 Cu2 1_555 1_555
N11 Cu2 1_555 1_555
N12 Cu2 1_555 1_555
O19 Cu4 1_555 1_555
C22_3 H13_3 1_555 1_555
C23_3 C22_3 1_555 1_555
H14_3 C23_3 1_555 1_555
C24_3 C23_3 1_555 1_555
H15_3 C24_3 1_555 1_555
C43_2 C44_2 1_555 1_555
C44_2 H27_2 1_555 1_555
C45 C44_2 1_555 1_555
H28 C45 1_555 1_555
C46 C45 1_555 1_555
H29 C46 1_555 1_555
C54_2 H33_2 1_555 1_555
C55_2 C54_2 1_555 1_555
H34_2 C55_2 1_555 1_555
C56_2 C55_2 1_555 1_555
H35_2 C56_2 1_555 1_555
N8 C46 1_555 1_555
O18_2 C53_2 1_555 1_555
O19_2 C53_2 1_555 1_555
Cu4_2 O18_2 1_555 1_555
C24_3 C25_3 1_555 1_555
O19_2 Cu4_2 1_555 1_555
H36_2 C57_2 1_555 1_555
C58_2 C57_2 1_555 1_555
C59_2 C58_2 1_555 1_555
C60_2 C59_2 1_555 1_555
H37_2 C60_2 1_555 1_555
C61_2 C60_2 1_555 1_555
H38_2 C61_2 1_555 1_555
C62_2 C61_2 1_555 1_555
H39_2 C62_2 1_555 1_555
C63_2 C62_2 1_555 1_555
C64_2 C63_2 1_555 1_555
C65_2 C64_2 1_555 1_555
H40_2 C65_2 1_555 1_555
C66_2 C65_2 1_555 1_555
H41_2 C66_2 1_555 1_555
C67_2 C66_2 1_555 1_555
H42_2 C67_2 1_555 1_555
C68_2 C67_2 1_555 1_555
H43_2 C68_2 1_555 1_555
N4_2 C21_2 1_555 1_555
N11_2 C59_2 1_555 1_555
N12_2 C64_2 1_555 1_555
Cu2_2 N4_2 1_555 1_555
O24_2 Cu2_2 1_555 1_555
O25_2 Cu2_2 1_555 1_555
C58_2 N10_2 1_555 1_555
C63_2 N11_2 1_555 1_555
C68_2 N12_2 1_555 1_555
N10_2 Cu2_2 1_555 1_555
N11_2 Cu2_2 1_555 1_555
N12_2 Cu2_2 1_555 1_555
C1_2 C2_2 1_555 1_555
C2_2 H1_2 1_555 1_555
H2_2 C2_2 1_555 1_555
H3_2 C2_2 1_555 1_555
C32_2 C31_2 1_555 1_555
C33_2 C32_2 1_555 1_555
H20_2 C33_2 1_555 1_555
C34_2 C33_2 1_555 1_555
H21_2 C34_2 1_555 1_555
C35_2 C34_2 1_555 1_555
H22_2 C35_2 1_555 1_555
C36_2 C35_2 1_555 1_555
C37_2 C36_2 1_555 1_555
C38_2 C37_2 1_555 1_555
H23_2 C38_2 1_555 1_555
C39_2 C38_2 1_555 1_555
H24_2 C39_2 1_555 1_555
C40_2 C39_2 1_555 1_555
H25_2 C40_2 1_555 1_555
C41_2 C40_2 1_555 1_555
H26_2 C41_2 1_555 1_555
C48_2 C47_2 1_555 1_555
C49_2 H30_2 1_555 1_555
C50_2 C49_2 1_555 1_555
C51_2 C50_2 1_555 1_555
C52_2 C48_2 1_555 1_555
N6_2 C32_2 1_555 1_555
N7_2 C37_2 1_555 1_555
N9_2 C48_2 1_555 1_555
O2_2 U3 1_555 1_555
O3_2 U3 1_555 1_555
O4_2 C1_2 1_555 1_555
O5_2 C1_2 1_555 1_555
O6_2 U2_2 1_555 1_555
O7_2 U2_2 1_555 1_555
O14_2 C26_3 1_555 1_555
O15_2 C26_3 1_555 1_555
O16_2 C42_2 1_555 1_555
Cu1_2 N5_2 1_555 1_555
U3 O4_2 1_555 1_555
U2_2 O3_2 1_555 1_555
O22_2 Cu1_2 1_555 1_555
O23_2 Cu1_2 1_555 1_555
Cu3_2 O14_2 1_555 1_555
C31_2 N5_2 1_555 1_555
C36_2 N6_2 1_555 1_555
C41_2 N7_2 1_555 1_555
C49_2 N9_2 1_555 1_555
C51_2 C52_2 1_555 1_555
N6_2 Cu1_2 1_555 1_555
N7_2 Cu1_2 1_555 1_555
N9_2 Cu1_2 1_555 1_555
O5_2 U2_2 1_555 1_555
O8_2 U2_2 1_555 1_555
O15_2 Cu3_2 1_555 1_555
C3_2 C4_2 1_555 1_555
C4_2 C5_2 1_555 1_555
C5_2 H4_2 1_555 1_555
C6_2 C5_2 1_555 1_555
H5_2 C6_2 1_555 1_555
C7_2 C6_2 1_555 1_555
H6_2 C7_2 1_555 1_555
C8_2 C4_2 1_555 1_555
C9_2 C8_2 1_555 1_555
C10_2 H7_2 1_555 1_555
C11_2 C10_2 1_555 1_555
H8_2 C11_2 1_555 1_555
C12_2 C11_2 1_555 1_555
H9_2 C12_2 1_555 1_555
C13_2 C9_2 1_555 1_555
C14_2 C13_2 1_555 1_555
C15_2 C16_2 1_555 1_555
C16_2 C17_2 1_555 1_555
C17_2 H10_2 1_555 1_555
C18_2 C17_2 1_555 1_555
H11_2 C18_2 1_555 1_555
C19_2 C18_2 1_555 1_555
H12_2 C19_2 1_555 1_555
C20_2 C16_2 1_555 1_555
N1_2 C7_2 1_555 1_555
N2_2 C9_2 1_555 1_555
N3_2 C19_2 1_555 1_555
O9_2 C3_2 1_555 1_555
O20 C14_2 1_555 1_555
O21 C14_2 1_555 1_555
O12_2 C15_2 1_555 1_555
C8_2 N1_2 1_555 1_555
C10_2 N2_2 1_555 1_555
C12_2 C13_2 1_555 1_555
C20_2 N3_2 1_555 1_555
C27_2 H16_2 1_555 1_555
C28_2 C27_2 1_555 1_555
H17_2 C28_2 1_555 1_555
C29_2 C28_2 1_555 1_555
H18_2 C29_2 1_555 1_555
C30_2 C29_2 1_555 1_555
H19_2 C30_2 1_555 1_555
C31_3 C30_2 1_555 1_555
C32_3 C31_3 1_555 1_555
C33_3 C32_3 1_555 1_555
H20_3 C33_3 1_555 1_555
C34_3 C33_3 1_555 1_555
H21_3 C34_3 1_555 1_555
C35_3 C34_3 1_555 1_555
H22_3 C35_3 1_555 1_555
C36_3 C35_3 1_555 1_555
C37_3 C36_3 1_555 1_555
H28_2 C45_2 1_555 1_555
C46_2 C45_2 1_555 1_555
H29_2 C46_2 1_555 1_555
N5_3 C27_2 1_555 1_555
N6_3 C32_3 1_555 1_555
N8_2 C46_2 1_555 1_555
Cu3_2 N5_3 1_555 1_555
C31_3 N5_3 1_555 1_555
C36_3 N6_3 1_555 1_555
N6_3 Cu3_2 1_555 1_555
C1_3 C2_3 1_555 1_555
C2_3 H1_3 1_555 1_555
H2_3 C2_3 1_555 1_555
H3_3 C2_3 1_555 1_555
C3_3 C4_3 1_555 1_555
C4_3 C5_3 1_555 1_555
C5_3 H4_3 1_555 1_555
C6_3 C5_3 1_555 1_555
H5_3 C6_3 1_555 1_555
C7_3 C6_3 1_555 1_555
H6_3 C7_3 1_555 1_555
C8_3 C4_3 1_555 1_555
C9_3 C8_3 1_555 1_555
C13_3 C9_3 1_555 1_555
C14_3 C13_3 1_555 1_555
C39_3 C38_3 1_555 1_555
H24_3 C39_3 1_555 1_555
C40_3 C39_3 1_555 1_555
H25_3 C40_3 1_555 1_555
C41_3 C40_3 1_555 1_555
H26_3 C41_3 1_555 1_555
C42_3 C43_3 1_555 1_555
C43_3 C44_3 1_555 1_555
C44_3 H27_3 1_555 1_555
C47_3 C43_3 1_555 1_555
C48_3 C47_3 1_555 1_555
C49_3 H30_3 1_555 1_555
C50_3 C49_3 1_555 1_555
H31_2 C50_3 1_555 1_555
C51_3 C50_3 1_555 1_555
H32_2 C51_3 1_555 1_555
C52_3 C48_3 1_555 1_555
C53_3 C52_3 1_555 1_555
C54_3 H33_3 1_555 1_555
C55_3 C54_3 1_555 1_555
H34_3 C55_3 1_555 1_555
C56_3 C55_3 1_555 1_555
H35_3 C56_3 1_555 1_555
C57_3 C56_3 1_555 1_555
H36_3 C57_3 1_555 1_555
C58_3 C57_3 1_555 1_555
C59_3 C58_3 1_555 1_555
C60_3 C59_3 1_555 1_555
H37_3 C60_3 1_555 1_555
C61_3 C60_3 1_555 1_555
H38_3 C61_3 1_555 1_555
N1_3 C7_3 1_555 1_555
N2_3 C9_3 1_555 1_555
N9_3 C48_3 1_555 1_555
N10_3 C54_3 1_555 1_555
O1_3 U1_2 1_555 1_555
O2_3 U1_2 1_555 1_555
O3_3 U1_2 1_555 1_555
O4_3 C1_3 1_555 1_555
O5_3 C1_3 1_555 1_555
O6_3 U2_3 1_555 1_555
O7_3 U2_3 1_555 1_555
O8_3 C3_3 1_555 1_555
O9_3 C3_3 1_555 1_555
O10_2 C14_3 1_555 1_555
O11_2 C14_3 1_555 1_555
O12_3 C15_3 1_555 1_555
O13_3 C15_3 1_555 1_555
O16_3 C42_3 1_555 1_555
O17_3 C42_3 1_555 1_555
O24_2 C53_3 1_555 1_555
O25_2 C53_3 1_555 1_555
U1_2 O4_3 1_555 1_555
U2_3 O3_3 1_555 1_555
O20_2 U1_2 1_555 1_555
O21_2 U1_2 1_555 1_555
U3_2 O10_2 1_555 1_555
C8_3 N1_3 1_555 1_555
C12_3 C13_3 1_555 1_555
C41_3 N7_3 1_555 1_555
C49_3 N9_3 1_555 1_555
C51_3 C52_3 1_555 1_555
C58_3 N10_3 1_555 1_555
O5_3 U2_3 1_555 1_555
O8_3 U2_3 1_555 1_555
O9_3 U2_3 1_555 1_555
O11_2 U3_2 1_555 1_555
O12_3 U2_3 1_555 1_555
O17_3 U1_2 1_555 1_555
C10_3 H7_3 1_555 1_555
C11_3 C10_3 1_555 1_555
H8_3 C11_3 1_555 1_555
C16_3 C17_3 1_555 1_555
C17_3 H10_3 1_555 1_555
C18_3 C17_3 1_555 1_555
H11_3 C18_3 1_555 1_555
C19_3 C18_3 1_555 1_555
H12_3 C19_3 1_555 1_555
C20_3 C16_3 1_555 1_555
C21_3 C20_3 1_555 1_555
C22_4 H13_4 1_555 1_555
C23_4 C22_4 1_555 1_555
H14_4 C23_4 1_555 1_555
C24_4 C23_4 1_555 1_555
H15_4 C24_4 1_555 1_555
C25_4 C21_3 1_555 1_555
C26_4 C25_4 1_555 1_555
C62_3 C61_4 1_555 1_555
H39_3 C62_3 1_555 1_555
C63_3 C62_3 1_555 1_555
C64_3 C63_3 1_555 1_555
C65_3 C64_3 1_555 1_555
H40_3 C65_3 1_555 1_555
C66_3 C65_3 1_555 1_555
H41_3 C66_3 1_555 1_555
C67_3 C66_3 1_555 1_555
H42_3 C67_3 1_555 1_555
C68_3 C67_3 1_555 1_555
H43_3 C68_3 1_555 1_555
N3_3 C19_3 1_555 1_555
N4_3 C21_3 1_555 1_555
N12_3 C64_3 1_555 1_555
O22_2 C26_4 1_555 1_555
O23_2 C26_4 1_555 1_555
Cu4_2 N4_3 1_555 1_555
C20_3 N3_3 1_555 1_555
C22_4 N4_3 1_555 1_555
C24_4 C25_4 1_555 1_555
C63_3 N11_3 1_555 1_555
C68_3 N12_3 1_555 1_555
N11_3 Cu4_2 1_555 1_555
N12_3 Cu4_2 1_555 1_555
C1_4 C2_4 1_555 1_555
C2_4 H1_4 1_555 1_555
H2_4 C2_4 1_555 1_555
H3_4 C2_4 1_555 1_555
C27_3 H16_3 1_555 1_555
C28_3 C27_3 1_555 1_555
H17_3 C28_3 1_555 1_555
C29_3 C28_3 1_555 1_555
H18_3 C29_3 1_555 1_555
C30_3 C29_3 1_555 1_555
H19_3 C30_3 1_555 1_555
C31_4 C30_3 1_555 1_555
C32_4 C31_4 1_555 1_555
C33_4 C32_4 1_555 1_555
H20_4 C33_4 1_555 1_555
C34_4 C33_4 1_555 1_555
H21_4 C34_4 1_555 1_555
C35_4 C34_4 1_555 1_555
H22_4 C35_4 1_555 1_555
C36_4 C35_4 1_555 1_555
C37_4 C36_4 1_555 1_555
C38_4 C37_4 1_555 1_555
H23_4 C38_4 1_555 1_555
C39_4 C38_4 1_555 1_555
H24_4 C39_4 1_555 1_555
C40_4 C39_4 1_555 1_555
H25_4 C40_4 1_555 1_555
C41_4 C40_4 1_555 1_555
H26_4 C41_4 1_555 1_555
C42_4 C43_4 1_555 1_555
C43_4 C44_4 1_555 1_555
C44_4 H27_4 1_555 1_555
C45_3 C44_4 1_555 1_555
H28_3 C45_3 1_555 1_555
C46_3 C45_3 1_555 1_555
H29_3 C46_3 1_555 1_555
C47_4 C43_4 1_555 1_555
C48_4 C47_4 1_555 1_555
C49_4 H30_4 1_555 1_555
C50_4 C49_4 1_555 1_555
H31_3 C50_4 1_555 1_555
C51_4 C50_4 1_555 1_555
H32_3 C51_4 1_555 1_555
C52_4 C48_4 1_555 1_555
C53_4 C52_4 1_555 1_555
C54_4 H33_4 1_555 1_555
C55_4 C54_4 1_555 1_555
H34_4 C55_4 1_555 1_555
C56_4 C55_4 1_555 1_555
H35_4 C56_4 1_555 1_555
N5_4 C27_3 1_555 1_555
N6_4 C32_4 1_555 1_555
N7_4 C37_4 1_555 1_555
N8_3 C46_3 1_555 1_555
N9_4 C48_4 1_555 1_555
O1_4 U3_2 1_555 1_555
O2_4 U3_2 1_555 1_555
O3_4 U3_2 1_555 1_555
O4_4 C1_4 1_555 1_555
O5_4 C1_4 1_555 1_555
O6_4 U2_4 1_555 1_555
O7_4 U2_4 1_555 1_555
O16_4 C42_4 1_555 1_555
O17_4 C42_4 1_555 1_555
O24 C53_4 1_555 1_555
O25 C53_4 1_555 1_555
Cu3 N5_4 1_555 1_555
U3_2 O4_4 1_555 1_555
U2_4 O3_4 1_555 1_555
C31_4 N5_4 1_555 1_555
C36_4 N6_4 1_555 1_555
C41_4 N7_4 1_555 1_555
C47_4 N8_3 1_555 1_555
C49_4 N9_4 1_555 1_555
C51_4 C52_4 1_555 1_555
N6_4 Cu3 1_555 1_555
N7_4 Cu3 1_555 1_555
N9_4 Cu3 1_555 1_555
O5_4 U2_4 1_555 1_555
O8_4 U2_4 1_555 1_555
O17_4 U3_2 1_555 1_555
C3_4 C4_4 1_555 1_555
C4_4 C5_4 1_555 1_555
C5_4 H4_4 1_555 1_555
C6_4 C5_4 1_555 1_555
H5_4 C6_4 1_555 1_555
C7_4 C6_4 1_555 1_555
H6_4 C7_4 1_555 1_555
C8_4 C4_4 1_555 1_555
C9_4 C8_4 1_555 1_555
C13_4 C9_4 1_555 1_555
C14_4 C13_4 1_555 1_555
H36_4 C57_4 1_555 1_555
C58_4 C57_4 1_555 1_555
C59_4 C58_4 1_555 1_555
C60_4 C59_4 1_555 1_555
H37_4 C60_4 1_555 1_555
C61_5 C60_4 1_555 1_555
H38_4 C61_5 1_555 1_555
N1_4 C7_4 1_555 1_555
N2_4 C9_4 1_555 1_555
O9_4 C3_4 1_555 1_555
O20_2 C14_4 1_555 1_555
O21_2 C14_4 1_555 1_555
O12_4 C15_4 1_555 1_555
C8_4 N1_4 1_555 1_555
C12_4 C13_4 1_555 1_555
C58_4 N10_4 1_555 1_555
C10_4 H7_4 1_555 1_555
C11_4 C10_4 1_555 1_555
H8_4 C11_4 1_555 1_555
C16_4 C17_4 1_555 1_555
C17_4 H10_4 1_555 1_555
C18_4 C17_4 1_555 1_555
H11_4 C18_4 1_555 1_555
C19_4 C18_4 1_555 1_555
H12_4 C19_4 1_555 1_555
C20_4 C16_4 1_555 1_555
C21_4 C20_4 1_555 1_555
C62_4 C61_6 1_555 1_555
H39_4 C62_4 1_555 1_555
C63_4 C62_4 1_555 1_555
C64_4 C63_4 1_555 1_555
C65_4 C64_4 1_555 1_555
H40_4 C65_4 1_555 1_555
C66_4 C65_4 1_555 1_555
H41_4 C66_4 1_555 1_555
C67_4 C66_4 1_555 1_555
H42_4 C67_4 1_555 1_555
C68_4 C67_4 1_555 1_555
H43_4 C68_4 1_555 1_555
N3_4 C19_4 1_555 1_555
N4_4 C21_4 1_555 1_555
N12_4 C64_4 1_555 1_555
Cu4 N4_4 1_555 1_555
C20_4 N3_4 1_555 1_555
C63_4 N11_4 1_555 1_555
C68_4 N12_4 1_555 1_555
N11_4 Cu4 1_555 1_555
N12_4 Cu4 1_555 1_555
H28_4 C45_4 1_555 1_555
C46_4 C45_4 1_555 1_555
H29_4 C46_4 1_555 1_555
N8_4 C46_4 1_555 1_555
C27_4 H16_4 1_555 1_555
C28_4 C27_4 1_555 1_555
H17_4 C28_4 1_555 1_555
C29_4 C28_4 1_555 1_555
H18_4 C29_4 1_555 1_555
C30_4 C29_4 1_555 1_555
H19_4 C30_4 1_555 1_555

#END
