
###############################################################################
#
# This file contains modified crystal structure data generated from the
# MOF subset of the Cambridge Structural Database (CSD) v543 
# hosted by the Cambridge Crystallographic Data Centre (CCDC).
#
# This work is licensed under the Creative Commons
# Attribution-NonCommercial-ShareAlike 4.0 International License.
# To view a copy of this license, visit
# http://creativecommons.org/licenses/by-nc-sa/4.0/
# or send a letter to
# Creative Commons, PO Box 1866, Mountain View, CA 94042, USA.
#
# CIF created using the CSD Python API on 29 September 2022
# The structure has been converted into the P1 space group
# The structure has a 3D framework
# The original CSD entry BOBJAG is in the monoclinic crystal system
# The framework has been calculated to contain at least 10.0% void space
# The void calculation uses a probe of radius 1.32A, grid spacing 0.4
#
###############################################################################

data_BOBJAG
_chemical_formula_moiety         '(C272 H172 N48 O74 U8 Zn8)n'
_symmetry_cell_setting           triclinic
_symmetry_space_group_name_H-M   'P 1'
_symmetry_Int_Tables_number      1
_space_group_name_Hall           'P 1'
loop_
_symmetry_equiv_pos_site_id
_symmetry_equiv_pos_as_xyz
1 x,y,z
_cell_length_a                   26.095(4)
_cell_length_b                   14.149(2)
_cell_length_c                   21.295(3)
_cell_angle_alpha                90
_cell_angle_beta                 113.587(2)
_cell_angle_gamma                90
_cell_volume                     7205.62
loop_
_atom_site_label
_atom_site_type_symbol
_atom_site_fract_x
_atom_site_fract_y
_atom_site_fract_z
C57 C 0.4105(5) 0.0910(7) 0.6915(5)
C64 C 0.4378(5) 0.0486(7) 0.9197(5)
H41 H 0.471325 0.052524 0.958169
C65 C 0.3909(5) 0.0911(8) 0.9216(6)
H42 H 0.392581 0.121392 0.961143
C66 C 0.3421(5) 0.0881(7) 0.8647(6)
H43 H 0.310050 0.116021 0.865466
C67 C 0.3399(5) 0.0434(7) 0.8053(5)
C68 C 0.2874(5) 0.0436(7) 0.7405(5)
N12 N 0.4368(4) 0.0016(6) 0.8642(4)
O16 O 0.3887(3) 0.1442(5) 0.7222(4)
O17 O 0.4308(4) 0.1211(5) 0.6521(4)
O19 O 0.2478(3) 0.0960(6) 0.7430(4)
Zn3 Zn 0.39631(5) 0.27456(8) 0.68941(6)
U3 U 0.15630(2) 0.14438(3) 0.68134(2)
C3 C 0.7892(6) 0.6961(9) 0.0102(6)
H1 H 0.801555 0.644223 0.039214
C4 C 0.8272(7) 0.7589(11) 0.0033(7)
H2 H 0.865549 0.750991 0.027184
C29 C 0.5264(6) 0.8130(9) 0.0442(7)
H18 H 0.555934 0.824289 0.086095
C30 C 0.4727(6) 0.8426(8) 0.0323(6)
H19 H 0.465744 0.873923 0.066500
H20 H 0.372900 0.905197 0.041314
O1 O 0.7102(3) 0.5831(6) 0.0309(4)
O10 O 0.5890(4) 0.5664(7) 0.0334(6)
O21 O 0.6786(4) 0.4388(6) 0.1015(4)
C1 C 0.6913(5) 0.6418(8) 0.9812(6)
C2 C 0.7320(5) 0.7113(8) 0.9730(6)
C5 C 0.8052(8) 0.8342(11) 0.9590(8)
H3 H 0.830376 0.876555 0.953502
C6 C 0.7148(6) 0.7899(9) 0.9316(6)
C7 C 0.6583(8) 0.8242(9) 0.9003(8)
C8 C 0.5926(9) 0.9184(14) 0.9202(11)
H4 H 0.583741 0.956598 0.949950
C9 C 0.5536(9) 0.9053(14) 0.8554(12)
H5 H 0.518686 0.933718 0.841374
C10 C 0.5667(7) 0.8491(10) 0.8104(11)
H6 H 0.540329 0.837743 0.766294
C11 C 0.6206(6) 0.8096(10) 0.8330(8)
C12 C 0.6352(5) 0.7516(8) 0.7834(7)
C13 C 0.5453(7) 0.6682(10) 0.5298(8)
C14 C 0.4855(8) 0.6990(16) 0.4965(11)
H7 H 0.474192 0.701345 0.447732
H8 H 0.462337 0.654726 0.507361
H9 H 0.481563 0.760500 0.513039
C15 C 0.4921(6) 0.4931(9) 0.8581(9)
C16 C 0.4671(6) 0.5161(8) 0.7859(8)
C17 C 0.4980(6) 0.5657(8) 0.7522(9)
H10 H 0.535270 0.581223 0.777582
C18 C 0.4748(7) 0.5892(8) 0.6870(9)
H11 H 0.494867 0.622124 0.666478
C19 C 0.4237(7) 0.5652(8) 0.6527(9)
H12 H 0.408214 0.581079 0.606413
C20 C 0.4123(5) 0.4949(7) 0.7439(7)
C21 C 0.3710(4) 0.4432(6) 0.7647(5)
C22 C 0.3244(5) 0.3029(7) 0.7609(5)
H13 H 0.319256 0.239520 0.748417
C23 C 0.2930(5) 0.3398(7) 0.7932(6)
H14 H 0.267372 0.303218 0.802724
C24 C 0.3014(4) 0.4347(7) 0.8112(5)
H15 H 0.280495 0.463427 0.832379
C25 C 0.3411(4) 0.4872(6) 0.7975(5)
C26 C 0.3479(5) 0.5897(7) 0.8175(5)
C27 C 0.4907(5) 0.7507(8) 0.9315(6)
H16 H 0.496850 0.718553 0.897040
C28 C 0.5351(6) 0.7666(8) 0.9926(6)
H17 H 0.570782 0.746317 0.999009
C31 C 0.4293(5) 0.8254(7) 0.9694(6)
C32 C 0.3710(6) 0.8562(7) 0.9506(7)
C33 C 0.3501(6) 0.8963(9) 0.9953(7)
C34 C 0.2931(6) 0.9233(9) 0.9686(7)
H21 H 0.278146 0.950475 0.997273
C35 C 0.2591(6) 0.9092(8) 0.8991(7)
H22 H 0.221983 0.928691 0.880665
C36 C 0.2828(5) 0.8651(7) 0.8587(6)
C37 C 0.2517(5) 0.8409(7) 0.7861(7)
C38 C 0.1982(5) 0.8682(9) 0.7473(7)
H23 H 0.177916 0.904668 0.765697
C39 C 0.1735(6) 0.8374(12) 0.6748(9)
H24 H 0.137462 0.855709 0.646244
C40 C 0.2018(6) 0.7861(11) 0.6521(7)
H25 H 0.186014 0.763768 0.607266
C41 C 0.2571(6) 0.7628(9) 0.6944(7)
H26 H 0.277563 0.726779 0.676054
C42 C 0.5105(5) 0.2593(8) 0.8150(5)
H27 H 0.490129 0.230693 0.837097
C43 C 0.5671(5) 0.2701(9) 0.8504(6)
H28 H 0.585040 0.247026 0.894766
C44 C 0.5967(6) 0.3157(10) 0.8187(7)
H29 H 0.635004 0.325064 0.841835
C45 C 0.5690(5) 0.3477(9) 0.7520(6)
H30 H 0.588624 0.379400 0.730294
C46 C 0.5131(5) 0.3325(7) 0.7184(5)
C47 C 0.4796(5) 0.3612(7) 0.6464(5)
C48 C 0.5013(5) 0.4056(7) 0.6039(6)
H31 H 0.539141 0.420300 0.619364
C49 C 0.4642(5) 0.4269(7) 0.5376(6)
H32 H 0.477152 0.457519 0.508142
C50 C 0.4088(5) 0.4036(7) 0.5150(6)
H33 H 0.384410 0.417647 0.470332
C51 C 0.3895(5) 0.3593(7) 0.5588(6)
C52 C 0.3304(5) 0.3294(7) 0.5424(6)
C53 C 0.2870(6) 0.3460(9) 0.4801(6)
H34 H 0.293654 0.376053 0.445259
C54 C 0.2345(6) 0.3181(12) 0.4700(7)
H35 H 0.204300 0.332568 0.429359
C55 C 0.2264(6) 0.2666(11) 0.5225(7)
H36 H 0.191047 0.244837 0.516191
C56 C 0.2712(6) 0.2495(8) 0.5822(6)
H37 H 0.265852 0.214776 0.616167
C58 C 0.4093(5) 0.9849(7) 0.7011(5)
C59 C 0.4266(5) 0.9267(7) 0.6607(5)
H38 H 0.437987 0.953275 0.628495
C60 C 0.4268(5) 0.8307(7) 0.6680(6)
H39 H 0.437908 0.791348 0.640800
C61 C 0.4104(5) 0.7942(7) 0.7164(6)
H40 H 0.409163 0.728828 0.720203
C62 C 0.3959(4) 0.9441(7) 0.7524(5)
C63 C 0.3884(5) 0.9985(6) 0.8087(5)
N1 N 0.7531(6) 0.8503(8) 0.9250(6)
N2 N 0.6430(8) 0.8782(10) 0.9424(8)
N3 N 0.3908(5) 0.5202(6) 0.6766(5)
N4 N 0.3621(4) 0.3520(6) 0.7459(4)
N5 N 0.4386(4) 0.7797(6) 0.9196(5)
N6 N 0.3373(4) 0.8425(6) 0.8851(5)
N7 N 0.2815(4) 0.7892(6) 0.7586(5)
N8 N 0.4835(4) 0.2879(6) 0.7508(4)
N9 N 0.4250(4) 0.3393(6) 0.6228(5)
N10 N 0.3226(4) 0.2808(6) 0.5939(4)
N11 N 0.3958(4) 0.8480(6) 0.7588(5)
O2 O 0.6408(4) 0.6393(6) 0.9387(4)
O3 O 0.6812(3) 0.7120(5) 0.7986(4)
O4 O 0.5971(4) 0.7442(6) 0.7210(5)
O5 O 0.6285(4) 0.5432(6) 0.7051(5)
O6 O 0.6818(4) 0.7500(6) 0.6575(5)
O7 O 0.5650(5) 0.6623(9) 0.5933(5)
O8 O 0.5729(4) 0.6429(7) 0.4950(5)
O9 O 0.6786(4) 0.5612(6) 0.6015(4)
O11 O 0.6545(4) 0.4206(7) 0.9518(5)
O12 O 0.5448(4) 0.5045(8) 0.8874(7)
O13 O 0.4628(5) 0.4671(9) 0.8881(5)
O14 O 0.3269(3) 0.6191(5) 0.8572(4)
O15 O 0.3751(3) 0.6419(5) 0.7926(4)
O18 O 0.2848(4) 0.9976(5) 0.6900(4)
Zn1 Zn 0.36834(5) 0.77240(8) 0.82338(6)
U1 U 0.65630(2) 0.64438(3) 0.68134(2)
U2 U 0.62187(2) 0.49339(3) 0.99301(2)
O20 O 0.5729(4) 0.3571(7) 0.9950(5)
O23 O 0.7478(3) 0.5960(6) 0.7430(4)
U4 U 0.62187(2) 0.50661(3) 0.49301(2)
C1_2 C 0.6913(5) 0.3582(8) 0.4812(6)
C2_2 C 0.7320(5) 0.2887(8) 0.4730(6)
C3_2 C 0.7892(6) 0.3039(9) 0.5102(6)
H1_2 H 0.801555 0.355777 0.539214
C4_2 C 0.8272(7) 0.2411(11) 0.5033(7)
H2_2 H 0.865549 0.249009 0.527184
C5_2 C 0.8052(8) 0.1658(11) 0.4590(8)
H3_2 H 0.830376 0.123445 0.453502
C6_2 C 0.7148(6) 0.2101(9) 0.4316(6)
C7_2 C 0.6583(8) 0.1758(9) 0.4003(8)
C8_2 C 0.5926(9) 0.0816(14) 0.4202(11)
H4_2 H 0.583741 0.043402 0.449950
C9_2 C 0.5536(9) 0.0947(14) 0.3554(12)
H5_2 H 0.518686 0.066282 0.341374
C10_2 C 0.5667(7) 0.1509(10) 0.3104(11)
H6_2 H 0.540329 0.162257 0.266294
C11_2 C 0.6206(6) 0.1904(10) 0.3330(8)
C12_2 C 0.6352(5) 0.2484(8) 0.2834(7)
C13_2 C 0.5453(7) 0.3318(10) 0.0298(8)
H8_2 H 0.462337 0.345274 0.007361
H9_2 H 0.481563 0.239500 0.013039
C15_2 C 0.4921(6) 0.5069(9) 0.3581(9)
C16_2 C 0.4671(6) 0.4839(8) 0.2859(8)
C17_2 C 0.4980(6) 0.4343(8) 0.2522(9)
H10_2 H 0.535270 0.418777 0.277582
C18_2 C 0.4748(7) 0.4108(8) 0.1870(9)
H11_2 H 0.494867 0.377876 0.166478
C19_2 C 0.4237(7) 0.4348(8) 0.1527(9)
H12_2 H 0.408214 0.418921 0.106413
C20_2 C 0.4123(5) 0.5051(7) 0.2439(7)
C21_2 C 0.3710(4) 0.5568(6) 0.2647(5)
C22_2 C 0.3244(5) 0.6971(7) 0.2609(5)
H13_2 H 0.319256 0.760480 0.248417
C23_2 C 0.2930(5) 0.6602(7) 0.2932(6)
H14_2 H 0.267372 0.696782 0.302724
C24_2 C 0.3014(4) 0.5653(7) 0.3112(5)
H15_2 H 0.280495 0.536573 0.332379
C25_2 C 0.3411(4) 0.5128(6) 0.2975(5)
C26_2 C 0.3479(5) 0.4103(7) 0.3175(5)
C27_2 C 0.4907(5) 0.2493(8) 0.4315(6)
H16_2 H 0.496850 0.281447 0.397040
C28_2 C 0.5351(6) 0.2334(8) 0.4926(6)
H17_2 H 0.570782 0.253683 0.499009
C29_2 C 0.5264(6) 0.1870(9) 0.5442(7)
H18_2 H 0.555934 0.175711 0.586095
C30_2 C 0.4727(6) 0.1574(8) 0.5323(6)
H19_2 H 0.465744 0.126077 0.566500
C31_2 C 0.4293(5) 0.1746(7) 0.4694(6)
C32_2 C 0.3710(6) 0.1438(7) 0.4506(7)
C33_2 C 0.3501(6) 0.1037(9) 0.4953(7)
H20_2 H 0.372900 0.094803 0.541314
C34_2 C 0.2931(6) 0.0767(9) 0.4686(7)
H21_2 H 0.278146 0.049525 0.497273
C35_2 C 0.2591(6) 0.0908(8) 0.3991(7)
H22_2 H 0.221983 0.071309 0.380665
C36_2 C 0.2828(5) 0.1349(7) 0.3587(6)
C37_2 C 0.2517(5) 0.1591(7) 0.2861(7)
C38_2 C 0.1982(5) 0.1318(9) 0.2473(7)
H23_2 H 0.177916 0.095332 0.265697
C39_2 C 0.1735(6) 0.1626(12) 0.1748(9)
H24_2 H 0.137462 0.144291 0.146244
C40_2 C 0.2018(6) 0.2139(11) 0.1521(7)
H25_2 H 0.186014 0.236232 0.107266
C41_2 C 0.2571(6) 0.2372(9) 0.1944(7)
H26_2 H 0.277563 0.273221 0.176054
C42_2 C 0.5105(5) 0.7407(8) 0.3150(5)
H27_2 H 0.490129 0.769307 0.337097
C43_2 C 0.5671(5) 0.7299(9) 0.3504(6)
H28_2 H 0.585040 0.752974 0.394766
C44_2 C 0.5967(6) 0.6843(10) 0.3187(7)
H29_2 H 0.635004 0.674936 0.341835
C45_2 C 0.5690(5) 0.6523(9) 0.2520(6)
H30_2 H 0.588624 0.620600 0.230294
C46_2 C 0.5131(5) 0.6675(7) 0.2184(5)
C47_2 C 0.4796(5) 0.6388(7) 0.1464(5)
C48_2 C 0.5013(5) 0.5944(7) 0.1039(6)
H31_2 H 0.539141 0.579700 0.119364
C49_2 C 0.4642(5) 0.5731(7) 0.0376(6)
H32_2 H 0.477152 0.542481 0.008142
C50_2 C 0.4088(5) 0.5964(7) 0.0150(6)
C51_2 C 0.3895(5) 0.6407(7) 0.0588(6)
C52_2 C 0.3304(5) 0.6706(7) 0.0424(6)
C55_2 C 0.2264(6) 0.7334(11) 0.0225(7)
H36_2 H 0.191047 0.755163 0.016191
C56_2 C 0.2712(6) 0.7505(8) 0.0822(6)
H37_2 H 0.265852 0.785224 0.116167
C58_2 C 0.4093(5) 0.0151(7) 0.2011(5)
C59_2 C 0.4266(5) 0.0733(7) 0.1607(5)
H38_2 H 0.437987 0.046725 0.128495
C60_2 C 0.4268(5) 0.1693(7) 0.1680(6)
H39_2 H 0.437908 0.208652 0.140800
C61_2 C 0.4104(5) 0.2058(7) 0.2164(6)
H40_2 H 0.409163 0.271172 0.220203
C62_2 C 0.3959(4) 0.0559(7) 0.2524(5)
C63_2 C 0.3884(5) 0.0015(6) 0.3087(5)
N1_2 N 0.7531(6) 0.1497(8) 0.4250(6)
N2_2 N 0.6430(8) 0.1218(10) 0.4424(8)
N3_2 N 0.3908(5) 0.4798(6) 0.1766(5)
N4_2 N 0.3621(4) 0.6480(6) 0.2459(4)
N5_2 N 0.4386(4) 0.2203(6) 0.4196(5)
N6_2 N 0.3373(4) 0.1575(6) 0.3851(5)
N7_2 N 0.2815(4) 0.2108(6) 0.2586(5)
N8_2 N 0.4835(4) 0.7121(6) 0.2508(4)
N9_2 N 0.4250(4) 0.6607(6) 0.1228(5)
N10_2 N 0.3226(4) 0.7192(6) 0.0939(4)
N11_2 N 0.3958(4) 0.1520(6) 0.2588(5)
O1_2 O 0.7102(3) 0.4169(6) 0.5309(4)
O2_2 O 0.6408(4) 0.3607(6) 0.4387(4)
O3_2 O 0.6812(3) 0.2880(5) 0.2986(4)
O4_2 O 0.5971(4) 0.2558(6) 0.2210(5)
O5_2 O 0.6285(4) 0.4568(6) 0.2051(5)
O6_2 O 0.6818(4) 0.2500(6) 0.1575(5)
O7_2 O 0.5650(5) 0.3377(9) 0.0933(5)
O10_2 O 0.5890(4) 0.4336(7) 0.5334(6)
O11_2 O 0.6545(4) 0.5794(7) 0.4518(5)
O12_2 O 0.5448(4) 0.4955(8) 0.3874(7)
O13_2 O 0.4628(5) 0.5329(9) 0.3881(5)
O14_2 O 0.3269(3) 0.3809(5) 0.3572(4)
O15_2 O 0.3751(3) 0.3581(5) 0.2926(4)
O18_2 O 0.2848(4) 0.0024(5) 0.1900(4)
Zn1_2 Zn 0.36834(5) 0.22760(8) 0.32338(6)
Zn2 Zn 0.39631(5) 0.72544(8) 0.18941(6)
U1_2 U 0.65630(2) 0.35562(3) 0.18134(2)
O22 O 0.3887(3) 0.8558(5) 0.2222(4)
O23_2 O 0.7478(3) 0.4040(6) 0.2430(4)
C14_2 C 0.4855(8) 0.3010(16) 0.9965(11)
H7_2 H 0.474192 0.298655 0.947732
H33_2 H 0.384410 0.582353 0.970332
C53_2 C 0.2870(6) 0.6540(9) 0.9801(6)
H34_2 H 0.293654 0.623947 0.945259
C54_2 C 0.2345(6) 0.6819(12) 0.9700(7)
H35_2 H 0.204300 0.667432 0.929359
C57_2 C 0.4105(5) 0.9090(7) 0.1915(5)
C64_2 C 0.4378(5) 0.9514(7) 0.4197(5)
H41_2 H 0.471325 0.947476 0.458169
C65_2 C 0.3909(5) 0.9089(8) 0.4216(6)
H42_2 H 0.392581 0.878608 0.461143
C66_2 C 0.3421(5) 0.9119(7) 0.3647(6)
H43_2 H 0.310050 0.883979 0.365466
C67_2 C 0.3399(5) 0.9566(7) 0.3053(5)
C68_2 C 0.2874(5) 0.9564(7) 0.2405(5)
N12_2 N 0.4368(4) 0.9984(6) 0.3642(4)
O17_2 O 0.4308(4) 0.8789(5) 0.1521(4)
O19_2 O 0.2478(3) 0.9040(6) 0.2430(4)
U3_2 U 0.15630(2) 0.85562(3) 0.18134(2)
C1_3 C 0.1913(5) 0.1418(8) 0.9812(6)
C2_3 C 0.2320(5) 0.2113(8) 0.9730(6)
C5_3 C 0.3052(8) 0.3342(11) 0.9590(8)
H3_3 H 0.330376 0.376555 0.953502
C6_3 C 0.2148(6) 0.2899(9) 0.9316(6)
C7_3 C 0.1583(8) 0.3242(9) 0.9003(8)
C8_3 C 0.0926(9) 0.4184(14) 0.9202(11)
H4_3 H 0.083741 0.456598 0.949950
C9_3 C 0.0536(9) 0.4053(14) 0.8554(12)
H5_3 H 0.018686 0.433718 0.841374
C10_3 C 0.0667(7) 0.3491(10) 0.8104(11)
H6_3 H 0.040329 0.337743 0.766294
C11_3 C 0.1206(6) 0.3096(10) 0.8330(8)
C12_3 C 0.1352(5) 0.2516(8) 0.7834(7)
C13_3 C 0.0453(7) 0.1682(10) 0.5298(8)
H10_3 H 0.035270 0.081223 0.777582
C28_3 C 0.0351(6) 0.2666(8) 0.9926(6)
H17_3 H 0.070782 0.246317 0.999009
N1_3 N 0.2531(6) 0.3503(8) 0.9250(6)
N2_3 N 0.1430(8) 0.3782(10) 0.9424(8)
O2_3 O 0.1408(4) 0.1393(6) 0.9387(4)
O3_3 O 0.1812(3) 0.2120(5) 0.7986(4)
O4_3 O 0.0971(4) 0.2442(6) 0.7210(5)
O5_3 O 0.1285(4) 0.0432(6) 0.7051(5)
O6_3 O 0.1818(4) 0.2500(6) 0.6575(5)
O7_3 O 0.0650(5) 0.1623(9) 0.5933(5)
O8_2 O 0.0729(4) 0.1429(7) 0.4950(5)
O9_2 O 0.1786(4) 0.0612(6) 0.6015(4)
O12_3 O 0.0448(4) 0.0045(8) 0.8874(7)
U4_2 U 0.12187(2) 0.00661(3) 0.49301(2)
O21_2 O 0.1786(4) 0.9388(6) 0.1015(4)
C14_3 C 0.9855(8) 0.1990(16) 0.4965(11)
H7_3 H 0.974192 0.201345 0.447732
H8_3 H 0.962337 0.154726 0.507361
H9_3 H 0.981563 0.260500 0.513039
C16_3 C 0.9671(6) 0.0161(8) 0.7859(8)
C17_3 C 0.9980(6) 0.0657(8) 0.7522(9)
C18_3 C 0.9748(7) 0.0892(8) 0.6870(9)
H11_3 H 0.994867 0.122124 0.666478
C19_3 C 0.9237(7) 0.0652(8) 0.6527(9)
H12_3 H 0.908214 0.081079 0.606413
C26_3 C 0.8479(5) 0.0897(7) 0.8175(5)
C27_3 C 0.9907(5) 0.2507(8) 0.9315(6)
H16_3 H 0.996850 0.218553 0.897040
C31_3 C 0.9293(5) 0.3254(7) 0.9694(6)
C32_3 C 0.8710(6) 0.3562(7) 0.9506(7)
C33_3 C 0.8501(6) 0.3963(9) 0.9953(7)
C34_3 C 0.7931(6) 0.4233(9) 0.9686(7)
H21_3 H 0.778146 0.450475 0.997273
C35_3 C 0.7591(6) 0.4092(8) 0.8991(7)
H22_3 H 0.721983 0.428691 0.880665
C36_3 C 0.7828(5) 0.3651(7) 0.8587(6)
C37_3 C 0.7517(5) 0.3409(7) 0.7861(7)
C38_3 C 0.6982(5) 0.3682(9) 0.7473(7)
H23_3 H 0.677916 0.404668 0.765697
C39_3 C 0.6735(6) 0.3374(12) 0.6748(9)
H24_3 H 0.637462 0.355709 0.646244
C40_3 C 0.7018(6) 0.2861(11) 0.6521(7)
H25_3 H 0.686014 0.263768 0.607266
C41_3 C 0.7571(6) 0.2628(9) 0.6944(7)
H26_3 H 0.777563 0.226779 0.676054
C57_3 C 0.9105(5) 0.5910(7) 0.6915(5)
C58_3 C 0.9093(5) 0.4849(7) 0.7011(5)
C59_3 C 0.9266(5) 0.4267(7) 0.6607(5)
H38_3 H 0.937987 0.453275 0.628495
C60_3 C 0.9268(5) 0.3307(7) 0.6680(6)
H39_3 H 0.937908 0.291348 0.640800
C61_3 C 0.9104(5) 0.2942(7) 0.7164(6)
H40_3 H 0.909163 0.228828 0.720203
C62_3 C 0.8959(4) 0.4441(7) 0.7524(5)
C63_3 C 0.8884(5) 0.4985(6) 0.8087(5)
C64_3 C 0.9378(5) 0.5486(7) 0.9197(5)
H41_3 H 0.971325 0.552524 0.958169
C65_3 C 0.8909(5) 0.5911(8) 0.9216(6)
H42_3 H 0.892581 0.621392 0.961143
C66_3 C 0.8421(5) 0.5881(7) 0.8647(6)
H43_3 H 0.810050 0.616021 0.865466
C67_3 C 0.8399(5) 0.5434(7) 0.8053(5)
C68_3 C 0.7874(5) 0.5436(7) 0.7405(5)
N3_3 N 0.8908(5) 0.0202(6) 0.6766(5)
N5_3 N 0.9386(4) 0.2797(6) 0.9196(5)
N6_3 N 0.8373(4) 0.3425(6) 0.8851(5)
N7_3 N 0.7815(4) 0.2892(6) 0.7586(5)
N11_3 N 0.8958(4) 0.3480(6) 0.7588(5)
N12_3 N 0.9368(4) 0.5016(6) 0.8642(4)
O14_3 O 0.8269(3) 0.1191(5) 0.8572(4)
O15_3 O 0.8751(3) 0.1419(5) 0.7926(4)
O16_2 O 0.8887(3) 0.6442(5) 0.7222(4)
O17_3 O 0.9308(4) 0.6211(5) 0.6521(4)
O18_3 O 0.7848(4) 0.4976(5) 0.6900(4)
Zn1_3 Zn 0.86834(5) 0.27240(8) 0.82338(6)
Zn3_2 Zn 0.89631(5) 0.77456(8) 0.68941(6)
C15_3 C 0.9921(6) 0.9931(9) 0.8581(9)
C20_3 C 0.9123(5) 0.9949(7) 0.7439(7)
C21_3 C 0.8710(4) 0.9432(6) 0.7647(5)
C22_3 C 0.8244(5) 0.8029(7) 0.7609(5)
H13_3 H 0.819256 0.739520 0.748417
C23_3 C 0.7930(5) 0.8398(7) 0.7932(6)
H14_3 H 0.767372 0.803218 0.802724
C24_3 C 0.8014(4) 0.9347(7) 0.8112(5)
H15_3 H 0.780495 0.963427 0.832379
C25_3 C 0.8411(4) 0.9872(6) 0.7975(5)
H27_3 H 0.990129 0.730693 0.837097
C47_3 C 0.9796(5) 0.8612(7) 0.6464(5)
C49_3 C 0.9642(5) 0.9269(7) 0.5376(6)
H32_3 H 0.977152 0.957519 0.508142
C50_3 C 0.9088(5) 0.9036(7) 0.5150(6)
H33_3 H 0.884410 0.917647 0.470332
C51_3 C 0.8895(5) 0.8593(7) 0.5588(6)
C52_3 C 0.8304(5) 0.8294(7) 0.5424(6)
C53_3 C 0.7870(6) 0.8460(9) 0.4801(6)
H34_3 H 0.793654 0.876053 0.445259
C54_3 C 0.7345(6) 0.8181(12) 0.4700(7)
H35_3 H 0.704300 0.832568 0.429359
C55_3 C 0.7264(6) 0.7666(11) 0.5225(7)
H36_3 H 0.691047 0.744837 0.516191
C56_3 C 0.7712(6) 0.7495(8) 0.5822(6)
H37_3 H 0.765852 0.714776 0.616167
N4_3 N 0.8621(4) 0.8520(6) 0.7459(4)
N8_3 N 0.9835(4) 0.7879(6) 0.7508(4)
N9_3 N 0.9250(4) 0.8393(6) 0.6228(5)
N10_3 N 0.8226(4) 0.7808(6) 0.5939(4)
O13_3 O 0.9628(5) 0.9671(9) 0.8881(5)
C42_3 C 0.0105(5) 0.2407(8) 0.3150(5)
C43_3 C 0.0671(5) 0.2299(9) 0.3504(6)
H28_3 H 0.085040 0.252974 0.394766
C44_3 C 0.0967(6) 0.1843(10) 0.3187(7)
H29_3 H 0.135004 0.174936 0.341835
C45_3 C 0.0690(5) 0.1523(9) 0.2520(6)
H30_3 H 0.088624 0.120600 0.230294
C46_3 C 0.0131(5) 0.1675(7) 0.2184(5)
C48_3 C 0.0013(5) 0.0944(7) 0.1039(6)
H31_3 H 0.039141 0.079700 0.119364
O11_3 O 0.1545(4) 0.0794(7) 0.4518(5)
C1_4 C 0.1913(5) 0.8582(8) 0.4812(6)
C2_4 C 0.2320(5) 0.7887(8) 0.4730(6)
C3_3 C 0.2892(6) 0.8039(9) 0.5102(6)
H1_3 H 0.301555 0.855777 0.539214
C4_3 C 0.3272(7) 0.7411(11) 0.5033(7)
H2_3 H 0.365549 0.749009 0.527184
C5_4 C 0.3052(8) 0.6658(11) 0.4590(8)
H3_4 H 0.330376 0.623445 0.453502
C6_4 C 0.2148(6) 0.7101(9) 0.4316(6)
C7_4 C 0.1583(8) 0.6758(9) 0.4003(8)
C8_4 C 0.0926(9) 0.5816(14) 0.4202(11)
H4_4 H 0.083741 0.543402 0.449950
C9_4 C 0.0536(9) 0.5947(14) 0.3554(12)
H5_4 H 0.018686 0.566282 0.341374
C10_4 C 0.0667(7) 0.6509(10) 0.3104(11)
H6_4 H 0.040329 0.662257 0.266294
C11_4 C 0.1206(6) 0.6904(10) 0.3330(8)
C12_4 C 0.1352(5) 0.7484(8) 0.2834(7)
C13_4 C 0.0453(7) 0.8318(10) 0.0298(8)
H10_4 H 0.035270 0.918777 0.277582
C28_4 C 0.0351(6) 0.7334(8) 0.4926(6)
H17_4 H 0.070782 0.753683 0.499009
C29_3 C 0.0264(6) 0.6870(9) 0.5442(7)
H18_3 H 0.055934 0.675711 0.586095
N1_4 N 0.2531(6) 0.6497(8) 0.4250(6)
N2_4 N 0.1430(8) 0.6218(10) 0.4424(8)
O1_3 O 0.2102(3) 0.9169(6) 0.5309(4)
O2_4 O 0.1408(4) 0.8607(6) 0.4387(4)
O3_4 O 0.1812(3) 0.7880(5) 0.2986(4)
O4_4 O 0.0971(4) 0.7558(6) 0.2210(5)
O5_4 O 0.1285(4) 0.9568(6) 0.2051(5)
O6_4 O 0.1818(4) 0.7500(6) 0.1575(5)
O7_4 O 0.0650(5) 0.8377(9) 0.0933(5)
O10_3 O 0.0890(4) 0.9336(7) 0.5334(6)
O12_4 O 0.0448(4) 0.9955(8) 0.3874(7)
C15_4 C 0.9921(6) 0.0069(9) 0.3581(9)
C20_4 C 0.9123(5) 0.0051(7) 0.2439(7)
C21_4 C 0.8710(4) 0.0568(6) 0.2647(5)
C22_4 C 0.8244(5) 0.1971(7) 0.2609(5)
H13_4 H 0.819256 0.260480 0.248417
C23_4 C 0.7930(5) 0.1602(7) 0.2932(6)
H14_4 H 0.767372 0.196782 0.302724
C24_4 C 0.8014(4) 0.0653(7) 0.3112(5)
H15_4 H 0.780495 0.036573 0.332379
C25_4 C 0.8411(4) 0.0128(6) 0.2975(5)
H27_4 H 0.990129 0.269307 0.337097
C47_4 C 0.9796(5) 0.1388(7) 0.1464(5)
C49_4 C 0.9642(5) 0.0731(7) 0.0376(6)
H32_4 H 0.977152 0.042481 0.008142
C50_4 C 0.9088(5) 0.0964(7) 0.0150(6)
C51_4 C 0.8895(5) 0.1407(7) 0.0588(6)
C52_4 C 0.8304(5) 0.1706(7) 0.0424(6)
C55_4 C 0.7264(6) 0.2334(11) 0.0225(7)
H36_4 H 0.691047 0.255163 0.016191
C56_4 C 0.7712(6) 0.2505(8) 0.0822(6)
H37_4 H 0.765852 0.285224 0.116167
N4_4 N 0.8621(4) 0.1480(6) 0.2459(4)
N8_4 N 0.9835(4) 0.2121(6) 0.2508(4)
N9_4 N 0.9250(4) 0.1607(6) 0.1228(5)
N10_4 N 0.8226(4) 0.2192(6) 0.0939(4)
O13_4 O 0.9628(5) 0.0329(9) 0.3881(5)
Zn2_2 Zn 0.89631(5) 0.22544(8) 0.18941(6)
O22_2 O 0.8887(3) 0.3558(5) 0.2222(4)
H8_4 H 0.962337 0.845274 0.007361
H9_4 H 0.981563 0.739500 0.013039
C16_4 C 0.9671(6) 0.9839(8) 0.2859(8)
C17_4 C 0.9980(6) 0.9343(8) 0.2522(9)
C18_4 C 0.9748(7) 0.9108(8) 0.1870(9)
H11_4 H 0.994867 0.877876 0.166478
C19_4 C 0.9237(7) 0.9348(8) 0.1527(9)
H12_4 H 0.908214 0.918921 0.106413
C26_4 C 0.8479(5) 0.9103(7) 0.3175(5)
C27_4 C 0.9907(5) 0.7493(8) 0.4315(6)
H16_4 H 0.996850 0.781447 0.397040
C30_3 C 0.9727(6) 0.6574(8) 0.5323(6)
H19_3 H 0.965744 0.626077 0.566500
C31_4 C 0.9293(5) 0.6746(7) 0.4694(6)
C32_4 C 0.8710(6) 0.6438(7) 0.4506(7)
C33_4 C 0.8501(6) 0.6037(9) 0.4953(7)
H20_3 H 0.872900 0.594803 0.541314
C34_4 C 0.7931(6) 0.5767(9) 0.4686(7)
H21_4 H 0.778146 0.549525 0.497273
C35_4 C 0.7591(6) 0.5908(8) 0.3991(7)
H22_4 H 0.721983 0.571309 0.380665
C36_4 C 0.7828(5) 0.6349(7) 0.3587(6)
C37_4 C 0.7517(5) 0.6591(7) 0.2861(7)
C38_4 C 0.6982(5) 0.6318(9) 0.2473(7)
H23_4 H 0.677916 0.595332 0.265697
C39_4 C 0.6735(6) 0.6626(12) 0.1748(9)
H24_4 H 0.637462 0.644291 0.146244
C40_4 C 0.7018(6) 0.7139(11) 0.1521(7)
H25_4 H 0.686014 0.736232 0.107266
C41_4 C 0.7571(6) 0.7372(9) 0.1944(7)
H26_4 H 0.777563 0.773221 0.176054
C57_4 C 0.9105(5) 0.4090(7) 0.1915(5)
C58_4 C 0.9093(5) 0.5151(7) 0.2011(5)
C59_4 C 0.9266(5) 0.5733(7) 0.1607(5)
H38_4 H 0.937987 0.546725 0.128495
C60_4 C 0.9268(5) 0.6693(7) 0.1680(6)
H39_4 H 0.937908 0.708652 0.140800
C61_4 C 0.9104(5) 0.7058(7) 0.2164(6)
H40_4 H 0.909163 0.771172 0.220203
C62_4 C 0.8959(4) 0.5559(7) 0.2524(5)
C63_4 C 0.8884(5) 0.5015(6) 0.3087(5)
C64_4 C 0.9378(5) 0.4514(7) 0.4197(5)
H41_4 H 0.971325 0.447476 0.458169
C65_4 C 0.8909(5) 0.4089(8) 0.4216(6)
H42_4 H 0.892581 0.378608 0.461143
C66_4 C 0.8421(5) 0.4119(7) 0.3647(6)
H43_4 H 0.810050 0.383979 0.365466
C67_4 C 0.8399(5) 0.4566(7) 0.3053(5)
C68_4 C 0.7874(5) 0.4564(7) 0.2405(5)
N3_4 N 0.8908(5) 0.9798(6) 0.1766(5)
N5_4 N 0.9386(4) 0.7203(6) 0.4196(5)
N6_4 N 0.8373(4) 0.6575(6) 0.3851(5)
N7_4 N 0.7815(4) 0.7108(6) 0.2586(5)
N11_4 N 0.8958(4) 0.6520(6) 0.2588(5)
N12_4 N 0.9368(4) 0.4984(6) 0.3642(4)
O14_4 O 0.8269(3) 0.8809(5) 0.3572(4)
O15_4 O 0.8751(3) 0.8581(5) 0.2926(4)
O17_4 O 0.9308(4) 0.3789(5) 0.1521(4)
O18_4 O 0.7848(4) 0.5024(5) 0.1900(4)
Zn1_4 Zn 0.86834(5) 0.72760(8) 0.32338(6)
C3_4 C 0.2892(6) 0.1961(9) 0.0102(6)
H1_4 H 0.301555 0.144223 0.039214
C4_4 C 0.3272(7) 0.2589(11) 0.0033(7)
H2_4 H 0.365549 0.250991 0.027184
C29_4 C 0.0264(6) 0.3130(9) 0.0442(7)
H18_4 H 0.055934 0.324289 0.086095
O1_4 O 0.2102(3) 0.0831(6) 0.0309(4)
O10_4 O 0.0890(4) 0.0664(7) 0.0334(6)
C42_4 C 0.0105(5) 0.7593(8) 0.8150(5)
C43_4 C 0.0671(5) 0.7701(9) 0.8504(6)
H28_4 H 0.085040 0.747026 0.894766
C44_4 C 0.0967(6) 0.8157(10) 0.8187(7)
H29_4 H 0.135004 0.825064 0.841835
C45_4 C 0.0690(5) 0.8477(9) 0.7520(6)
H30_4 H 0.088624 0.879400 0.730294
C46_4 C 0.0131(5) 0.8325(7) 0.7184(5)
C48_4 C 0.0013(5) 0.9056(7) 0.6039(6)
H31_4 H 0.039141 0.920300 0.619364
O11_4 O 0.1545(4) 0.9206(7) 0.9518(5)
U2_2 U 0.12187(2) 0.99339(3) 0.99301(2)
O20_2 O 0.0729(4) 0.8571(7) 0.9950(5)
C30_4 C 0.9727(6) 0.3426(8) 0.0323(6)
H19_4 H 0.965744 0.373923 0.066500
H20_4 H 0.872900 0.405197 0.041314
H33_4 H 0.884410 0.082353 0.970332
C53_4 C 0.7870(6) 0.1540(9) 0.9801(6)
H34_4 H 0.793654 0.123947 0.945259
C54_4 C 0.7345(6) 0.1819(12) 0.9700(7)
H35_4 H 0.704300 0.167432 0.929359
C14_4 C 0.9855(8) 0.8010(16) 0.9965(11)
H7_4 H 0.974192 0.798655 0.947732
loop_
_geom_bond_atom_site_label_1
_geom_bond_atom_site_label_2
_geom_bond_site_symmetry_1
_geom_bond_site_symmetry_2
C64 H41 1_555 1_555
C65 C64 1_555 1_555
H42 C65 1_555 1_555
C66 C65 1_555 1_555
H43 C66 1_555 1_555
C68 C67 1_555 1_555
O16 C57 1_555 1_555
O17 C57 1_555 1_555
O19 C68 1_555 1_555
Zn3 O16 1_555 1_555
U3 O19 1_555 1_555
C64 N12 1_555 1_555
C66 C67 1_555 1_555
C3 H1 1_555 1_555
C4 C3 1_555 1_555
H2 C4 1_555 1_555
H18 C29 1_555 1_555
C30 C29 1_555 1_555
H19 C30 1_555 1_555
C1 C2 1_555 1_555
H3 C5 1_555 1_555
C6 C2 1_555 1_555
C7 C6 1_555 1_555
C8 H4 1_555 1_555
C9 C8 1_555 1_555
H5 C9 1_555 1_555
C10 C9 1_555 1_555
H6 C10 1_555 1_555
C11 C7 1_555 1_555
C12 C11 1_555 1_555
C13 C14 1_555 1_555
C14 H7 1_555 1_555
H8 C14 1_555 1_555
H9 C14 1_555 1_555
C15 C16 1_555 1_555
C16 C17 1_555 1_555
C17 H10 1_555 1_555
C18 C17 1_555 1_555
H11 C18 1_555 1_555
C19 C18 1_555 1_555
H12 C19 1_555 1_555
C20 C16 1_555 1_555
C21 C20 1_555 1_555
C22 H13 1_555 1_555
C23 C22 1_555 1_555
H14 C23 1_555 1_555
C24 C23 1_555 1_555
H15 C24 1_555 1_555
C25 C21 1_555 1_555
C26 C25 1_555 1_555
C27 H16 1_555 1_555
C28 C27 1_555 1_555
H17 C28 1_555 1_555
C32 C31 1_555 1_555
C33 C32 1_555 1_555
C34 C33 1_555 1_555
H21 C34 1_555 1_555
C35 C34 1_555 1_555
H22 C35 1_555 1_555
C36 C35 1_555 1_555
C37 C36 1_555 1_555
C38 C37 1_555 1_555
H23 C38 1_555 1_555
C39 C38 1_555 1_555
H24 C39 1_555 1_555
C40 C39 1_555 1_555
H25 C40 1_555 1_555
C41 C40 1_555 1_555
H26 C41 1_555 1_555
C42 H27 1_555 1_555
C43 C42 1_555 1_555
H28 C43 1_555 1_555
C44 C43 1_555 1_555
H29 C44 1_555 1_555
C45 C44 1_555 1_555
H30 C45 1_555 1_555
C46 C45 1_555 1_555
C47 C46 1_555 1_555
C48 C47 1_555 1_555
H31 C48 1_555 1_555
C49 C48 1_555 1_555
H32 C49 1_555 1_555
C50 C49 1_555 1_555
H33 C50 1_555 1_555
C51 C50 1_555 1_555
C52 C51 1_555 1_555
C53 C52 1_555 1_555
H34 C53 1_555 1_555
C54 C53 1_555 1_555
H35 C54 1_555 1_555
C55 C54 1_555 1_555
H36 C55 1_555 1_555
C56 C55 1_555 1_555
H37 C56 1_555 1_555
C58 C59 1_555 1_555
C59 H38 1_555 1_555
C60 C59 1_555 1_555
H39 C60 1_555 1_555
C61 C60 1_555 1_555
H40 C61 1_555 1_555
C62 C58 1_555 1_555
C63 C62 1_555 1_555
N1 C5 1_555 1_555
N2 C7 1_555 1_555
N3 C19 1_555 1_555
N4 C21 1_555 1_555
N5 C27 1_555 1_555
N6 C32 1_555 1_555
N7 C37 1_555 1_555
N8 C42 1_555 1_555
N9 C47 1_555 1_555
N10 C52 1_555 1_555
N11 C61 1_555 1_555
O2 C1 1_555 1_555
O3 C12 1_555 1_555
O4 C12 1_555 1_555
O5 U1 1_555 1_555
O6 U1 1_555 1_555
O7 C13 1_555 1_555
O8 C13 1_555 1_555
O9 U1 1_555 1_555
O11 U2 1_555 1_555
O12 C15 1_555 1_555
O13 C15 1_555 1_555
O14 C26 1_555 1_555
O15 C26 1_555 1_555
Zn1 N5 1_555 1_555
Zn3 N4 1_555 1_555
U1 O3 1_555 1_555
O20 U2 1_555 1_555
O23 U1 1_555 1_555
U4 O8 1_555 1_555
C6 N1 1_555 1_555
C8 N2 1_555 1_555
C10 C11 1_555 1_555
C20 N3 1_555 1_555
C22 N4 1_555 1_555
C24 C25 1_555 1_555
C31 N5 1_555 1_555
C36 N6 1_555 1_555
C41 N7 1_555 1_555
C46 N8 1_555 1_555
C51 N9 1_555 1_555
C56 N10 1_555 1_555
C62 N11 1_555 1_555
N6 Zn1 1_555 1_555
N7 Zn1 1_555 1_555
N8 Zn3 1_555 1_555
N9 Zn3 1_555 1_555
N10 Zn3 1_555 1_555
N11 Zn1 1_555 1_555
O2 U2 1_555 1_555
O4 U1 1_555 1_555
O7 U1 1_555 1_555
O9 U4 1_555 1_555
O12 U2 1_555 1_555
O15 Zn1 1_555 1_555
C1_2 C2_2 1_555 1_555
C2_2 C3_2 1_555 1_555
C3_2 H1_2 1_555 1_555
C4_2 C3_2 1_555 1_555
H2_2 C4_2 1_555 1_555
C5_2 C4_2 1_555 1_555
H3_2 C5_2 1_555 1_555
C6_2 C2_2 1_555 1_555
C7_2 C6_2 1_555 1_555
C8_2 H4_2 1_555 1_555
C9_2 C8_2 1_555 1_555
H5_2 C9_2 1_555 1_555
C10_2 C9_2 1_555 1_555
H6_2 C10_2 1_555 1_555
C11_2 C7_2 1_555 1_555
C12_2 C11_2 1_555 1_555
C15_2 C16_2 1_555 1_555
C16_2 C17_2 1_555 1_555
C17_2 H10_2 1_555 1_555
C18_2 C17_2 1_555 1_555
H11_2 C18_2 1_555 1_555
C19_2 C18_2 1_555 1_555
H12_2 C19_2 1_555 1_555
C20_2 C16_2 1_555 1_555
C21_2 C20_2 1_555 1_555
C22_2 H13_2 1_555 1_555
C23_2 C22_2 1_555 1_555
H14_2 C23_2 1_555 1_555
C24_2 C23_2 1_555 1_555
H15_2 C24_2 1_555 1_555
C25_2 C21_2 1_555 1_555
C26_2 C25_2 1_555 1_555
C27_2 H16_2 1_555 1_555
C28_2 C27_2 1_555 1_555
H17_2 C28_2 1_555 1_555
C29_2 C28_2 1_555 1_555
H18_2 C29_2 1_555 1_555
C30_2 C29_2 1_555 1_555
H19_2 C30_2 1_555 1_555
C31_2 C30_2 1_555 1_555
C32_2 C31_2 1_555 1_555
C33_2 C32_2 1_555 1_555
H20_2 C33_2 1_555 1_555
C34_2 C33_2 1_555 1_555
H21_2 C34_2 1_555 1_555
C35_2 C34_2 1_555 1_555
H22_2 C35_2 1_555 1_555
C36_2 C35_2 1_555 1_555
C37_2 C36_2 1_555 1_555
C38_2 C37_2 1_555 1_555
H23_2 C38_2 1_555 1_555
C39_2 C38_2 1_555 1_555
H24_2 C39_2 1_555 1_555
C40_2 C39_2 1_555 1_555
H25_2 C40_2 1_555 1_555
C41_2 C40_2 1_555 1_555
H26_2 C41_2 1_555 1_555
C42_2 H27_2 1_555 1_555
C43_2 C42_2 1_555 1_555
H28_2 C43_2 1_555 1_555
C44_2 C43_2 1_555 1_555
H29_2 C44_2 1_555 1_555
C45_2 C44_2 1_555 1_555
H30_2 C45_2 1_555 1_555
C46_2 C45_2 1_555 1_555
C47_2 C46_2 1_555 1_555
C48_2 C47_2 1_555 1_555
H31_2 C48_2 1_555 1_555
C49_2 C48_2 1_555 1_555
H32_2 C49_2 1_555 1_555
C50_2 C49_2 1_555 1_555
C51_2 C50_2 1_555 1_555
C52_2 C51_2 1_555 1_555
H36_2 C55_2 1_555 1_555
C56_2 C55_2 1_555 1_555
H37_2 C56_2 1_555 1_555
C58_2 C59_2 1_555 1_555
C59_2 H38_2 1_555 1_555
C60_2 C59_2 1_555 1_555
H39_2 C60_2 1_555 1_555
C61_2 C60_2 1_555 1_555
H40_2 C61_2 1_555 1_555
C62_2 C58_2 1_555 1_555
C63_2 C62_2 1_555 1_555
N1_2 C5_2 1_555 1_555
N2_2 C7_2 1_555 1_555
N3_2 C19_2 1_555 1_555
N4_2 C21_2 1_555 1_555
N5_2 C27_2 1_555 1_555
N6_2 C32_2 1_555 1_555
N7_2 C37_2 1_555 1_555
N8_2 C42_2 1_555 1_555
N9_2 C47_2 1_555 1_555
N10_2 C52_2 1_555 1_555
N11_2 C61_2 1_555 1_555
O1_2 C1_2 1_555 1_555
O2_2 C1_2 1_555 1_555
O3_2 C12_2 1_555 1_555
O4_2 C12_2 1_555 1_555
O5_2 U1_2 1_555 1_555
O6_2 U1_2 1_555 1_555
O7_2 C13_2 1_555 1_555
O21 U1_2 1_555 1_555
O10_2 U4 1_555 1_555
O11_2 U4 1_555 1_555
O12_2 C15_2 1_555 1_555
O13_2 C15_2 1_555 1_555
O14_2 C26_2 1_555 1_555
O15_2 C26_2 1_555 1_555
Zn1_2 N5_2 1_555 1_555
Zn2 N4_2 1_555 1_555
U1_2 O3_2 1_555 1_555
U4 O1_2 1_555 1_555
O22 Zn2 1_555 1_555
O23_2 U1_2 1_555 1_555
C6_2 N1_2 1_555 1_555
C8_2 N2_2 1_555 1_555
C10_2 C11_2 1_555 1_555
C20_2 N3_2 1_555 1_555
C22_2 N4_2 1_555 1_555
C24_2 C25_2 1_555 1_555
C31_2 N5_2 1_555 1_555
C36_2 N6_2 1_555 1_555
C41_2 N7_2 1_555 1_555
C46_2 N8_2 1_555 1_555
C51_2 N9_2 1_555 1_555
C56_2 N10_2 1_555 1_555
C62_2 N11_2 1_555 1_555
N6_2 Zn1_2 1_555 1_555
N7_2 Zn1_2 1_555 1_555
N8_2 Zn2 1_555 1_555
N9_2 Zn2 1_555 1_555
N10_2 Zn2 1_555 1_555
N11_2 Zn1_2 1_555 1_555
O2_2 U4 1_555 1_555
O4_2 U1_2 1_555 1_555
O7_2 U1_2 1_555 1_555
O12_2 U4 1_555 1_555
O15_2 Zn1_2 1_555 1_555
C14_2 H7_2 1_555 1_555
H34_2 C53_2 1_555 1_555
C54_2 C53_2 1_555 1_555
H35_2 C54_2 1_555 1_555
C64_2 H41_2 1_555 1_555
C65_2 C64_2 1_555 1_555
H42_2 C65_2 1_555 1_555
C66_2 C65_2 1_555 1_555
H43_2 C66_2 1_555 1_555
C68_2 C67_2 1_555 1_555
O22 C57_2 1_555 1_555
O17_2 C57_2 1_555 1_555
O19_2 C68_2 1_555 1_555
U3_2 O19_2 1_555 1_555
C64_2 N12_2 1_555 1_555
C66_2 C67_2 1_555 1_555
C1_3 C2_3 1_555 1_555
H3_3 C5_3 1_555 1_555
C6_3 C2_3 1_555 1_555
C7_3 C6_3 1_555 1_555
C8_3 H4_3 1_555 1_555
C9_3 C8_3 1_555 1_555
H5_3 C9_3 1_555 1_555
C10_3 C9_3 1_555 1_555
H6_3 C10_3 1_555 1_555
C11_3 C7_3 1_555 1_555
C12_3 C11_3 1_555 1_555
H17_3 C28_3 1_555 1_555
N1_3 C5_3 1_555 1_555
N2_3 C7_3 1_555 1_555
O2_3 C1_3 1_555 1_555
O3_3 C12_3 1_555 1_555
O4_3 C12_3 1_555 1_555
O5_3 U3 1_555 1_555
O6_3 U3 1_555 1_555
O7_3 C13_3 1_555 1_555
O8_2 C13_3 1_555 1_555
O9_2 U3 1_555 1_555
U3 O3_3 1_555 1_555
U4_2 O8_2 1_555 1_555
C6_3 N1_3 1_555 1_555
C8_3 N2_3 1_555 1_555
C10_3 C11_3 1_555 1_555
O4_3 U3 1_555 1_555
O7_3 U3 1_555 1_555
O9_2 U4_2 1_555 1_555
C14_3 H7_3 1_555 1_555
H8_3 C14_3 1_555 1_555
H9_3 C14_3 1_555 1_555
C16_3 C17_3 1_555 1_555
C18_3 C17_3 1_555 1_555
H11_3 C18_3 1_555 1_555
C19_3 C18_3 1_555 1_555
H12_3 C19_3 1_555 1_555
C27_3 H16_3 1_555 1_555
C32_3 C31_3 1_555 1_555
C33_3 C32_3 1_555 1_555
C34_3 C33_3 1_555 1_555
H21_3 C34_3 1_555 1_555
C35_3 C34_3 1_555 1_555
H22_3 C35_3 1_555 1_555
C36_3 C35_3 1_555 1_555
C37_3 C36_3 1_555 1_555
C38_3 C37_3 1_555 1_555
H23_3 C38_3 1_555 1_555
C39_3 C38_3 1_555 1_555
H24_3 C39_3 1_555 1_555
C40_3 C39_3 1_555 1_555
H25_3 C40_3 1_555 1_555
C41_3 C40_3 1_555 1_555
H26_3 C41_3 1_555 1_555
C57_3 C58_3 1_555 1_555
C58_3 C59_3 1_555 1_555
C59_3 H38_3 1_555 1_555
C60_3 C59_3 1_555 1_555
H39_3 C60_3 1_555 1_555
C61_3 C60_3 1_555 1_555
H40_3 C61_3 1_555 1_555
C62_3 C58_3 1_555 1_555
C63_3 C62_3 1_555 1_555
C64_3 H41_3 1_555 1_555
C65_3 C64_3 1_555 1_555
H42_3 C65_3 1_555 1_555
C66_3 C65_3 1_555 1_555
H43_3 C66_3 1_555 1_555
C67_3 C63_3 1_555 1_555
C68_3 C67_3 1_555 1_555
N3_3 C19_3 1_555 1_555
N5_3 C27_3 1_555 1_555
N6_3 C32_3 1_555 1_555
N7_3 C37_3 1_555 1_555
N11_3 C61_3 1_555 1_555
N12_3 C63_3 1_555 1_555
O14_3 C26_3 1_555 1_555
O15_3 C26_3 1_555 1_555
O16_2 C57_3 1_555 1_555
O17_3 C57_3 1_555 1_555
O18_3 C68_3 1_555 1_555
O23 C68_3 1_555 1_555
Zn1_3 N5_3 1_555 1_555
Zn3_2 O16_2 1_555 1_555
C31_3 N5_3 1_555 1_555
C36_3 N6_3 1_555 1_555
C41_3 N7_3 1_555 1_555
C62_3 N11_3 1_555 1_555
C64_3 N12_3 1_555 1_555
C66_3 C67_3 1_555 1_555
N6_3 Zn1_3 1_555 1_555
N7_3 Zn1_3 1_555 1_555
N11_3 Zn1_3 1_555 1_555
O15_3 Zn1_3 1_555 1_555
C21_3 C20_3 1_555 1_555
C22_3 H13_3 1_555 1_555
C23_3 C22_3 1_555 1_555
H14_3 C23_3 1_555 1_555
C24_3 C23_3 1_555 1_555
H15_3 C24_3 1_555 1_555
C25_3 C21_3 1_555 1_555
H32_3 C49_3 1_555 1_555
C50_3 C49_3 1_555 1_555
H33_3 C50_3 1_555 1_555
C51_3 C50_3 1_555 1_555
C52_3 C51_3 1_555 1_555
C53_3 C52_3 1_555 1_555
H34_3 C53_3 1_555 1_555
C54_3 C53_3 1_555 1_555
H35_3 C54_3 1_555 1_555
C55_3 C54_3 1_555 1_555
H36_3 C55_3 1_555 1_555
C56_3 C55_3 1_555 1_555
H37_3 C56_3 1_555 1_555
N4_3 C21_3 1_555 1_555
N9_3 C47_3 1_555 1_555
N10_3 C52_3 1_555 1_555
O13_3 C15_3 1_555 1_555
Zn3_2 N4_3 1_555 1_555
C22_3 N4_3 1_555 1_555
C24_3 C25_3 1_555 1_555
C51_3 N9_3 1_555 1_555
C56_3 N10_3 1_555 1_555
N8_3 Zn3_2 1_555 1_555
N9_3 Zn3_2 1_555 1_555
N10_3 Zn3_2 1_555 1_555
C43_3 C42_3 1_555 1_555
H28_3 C43_3 1_555 1_555
C44_3 C43_3 1_555 1_555
H29_3 C44_3 1_555 1_555
C45_3 C44_3 1_555 1_555
H30_3 C45_3 1_555 1_555
C46_3 C45_3 1_555 1_555
H31_3 C48_3 1_555 1_555
O11_3 U4_2 1_555 1_555
C1_4 C2_4 1_555 1_555
C2_4 C3_3 1_555 1_555
C3_3 H1_3 1_555 1_555
C4_3 C3_3 1_555 1_555
H2_3 C4_3 1_555 1_555
C5_4 C4_3 1_555 1_555
H3_4 C5_4 1_555 1_555
C6_4 C2_4 1_555 1_555
C7_4 C6_4 1_555 1_555
C8_4 H4_4 1_555 1_555
C9_4 C8_4 1_555 1_555
H5_4 C9_4 1_555 1_555
C10_4 C9_4 1_555 1_555
H6_4 C10_4 1_555 1_555
C11_4 C7_4 1_555 1_555
C12_4 C11_4 1_555 1_555
H17_4 C28_4 1_555 1_555
C29_3 C28_4 1_555 1_555
H18_3 C29_3 1_555 1_555
N1_4 C5_4 1_555 1_555
N2_4 C7_4 1_555 1_555
O1_3 C1_4 1_555 1_555
O2_4 C1_4 1_555 1_555
O3_4 C12_4 1_555 1_555
O4_4 C12_4 1_555 1_555
O5_4 U3_2 1_555 1_555
O6_4 U3_2 1_555 1_555
O7_4 C13_4 1_555 1_555
O21_2 U3_2 1_555 1_555
U3_2 O3_4 1_555 1_555
C6_4 N1_4 1_555 1_555
C8_4 N2_4 1_555 1_555
C10_4 C11_4 1_555 1_555
O4_4 U3_2 1_555 1_555
O7_4 U3_2 1_555 1_555
C21_4 C20_4 1_555 1_555
C22_4 H13_4 1_555 1_555
C23_4 C22_4 1_555 1_555
H14_4 C23_4 1_555 1_555
C24_4 C23_4 1_555 1_555
H15_4 C24_4 1_555 1_555
C25_4 C21_4 1_555 1_555
H32_4 C49_4 1_555 1_555
C50_4 C49_4 1_555 1_555
C51_4 C50_4 1_555 1_555
C52_4 C51_4 1_555 1_555
H36_4 C55_4 1_555 1_555
C56_4 C55_4 1_555 1_555
H37_4 C56_4 1_555 1_555
N4_4 C21_4 1_555 1_555
N9_4 C47_4 1_555 1_555
N10_4 C52_4 1_555 1_555
O13_4 C15_4 1_555 1_555
Zn2_2 N4_4 1_555 1_555
O22_2 Zn2_2 1_555 1_555
C22_4 N4_4 1_555 1_555
C24_4 C25_4 1_555 1_555
C51_4 N9_4 1_555 1_555
C56_4 N10_4 1_555 1_555
N8_4 Zn2_2 1_555 1_555
N9_4 Zn2_2 1_555 1_555
N10_4 Zn2_2 1_555 1_555
C16_4 C17_4 1_555 1_555
C18_4 C17_4 1_555 1_555
H11_4 C18_4 1_555 1_555
C19_4 C18_4 1_555 1_555
H12_4 C19_4 1_555 1_555
C27_4 H16_4 1_555 1_555
H19_3 C30_3 1_555 1_555
C31_4 C30_3 1_555 1_555
C32_4 C31_4 1_555 1_555
C33_4 C32_4 1_555 1_555
H20_3 C33_4 1_555 1_555
C34_4 C33_4 1_555 1_555
H21_4 C34_4 1_555 1_555
C35_4 C34_4 1_555 1_555
H22_4 C35_4 1_555 1_555
C36_4 C35_4 1_555 1_555
C37_4 C36_4 1_555 1_555
C38_4 C37_4 1_555 1_555
H23_4 C38_4 1_555 1_555
C39_4 C38_4 1_555 1_555
H24_4 C39_4 1_555 1_555
C40_4 C39_4 1_555 1_555
H25_4 C40_4 1_555 1_555
C41_4 C40_4 1_555 1_555
H26_4 C41_4 1_555 1_555
C57_4 C58_4 1_555 1_555
C58_4 C59_4 1_555 1_555
C59_4 H38_4 1_555 1_555
C60_4 C59_4 1_555 1_555
H39_4 C60_4 1_555 1_555
C61_4 C60_4 1_555 1_555
H40_4 C61_4 1_555 1_555
C62_4 C58_4 1_555 1_555
C63_4 C62_4 1_555 1_555
C64_4 H41_4 1_555 1_555
C65_4 C64_4 1_555 1_555
H42_4 C65_4 1_555 1_555
C66_4 C65_4 1_555 1_555
H43_4 C66_4 1_555 1_555
C67_4 C63_4 1_555 1_555
C68_4 C67_4 1_555 1_555
N3_4 C19_4 1_555 1_555
N5_4 C27_4 1_555 1_555
N6_4 C32_4 1_555 1_555
N7_4 C37_4 1_555 1_555
N11_4 C61_4 1_555 1_555
N12_4 C63_4 1_555 1_555
O14_4 C26_4 1_555 1_555
O15_4 C26_4 1_555 1_555
O22_2 C57_4 1_555 1_555
O17_4 C57_4 1_555 1_555
O18_4 C68_4 1_555 1_555
O23_2 C68_4 1_555 1_555
Zn1_4 N5_4 1_555 1_555
C31_4 N5_4 1_555 1_555
C36_4 N6_4 1_555 1_555
C41_4 N7_4 1_555 1_555
C62_4 N11_4 1_555 1_555
C64_4 N12_4 1_555 1_555
C66_4 C67_4 1_555 1_555
N6_4 Zn1_4 1_555 1_555
N7_4 Zn1_4 1_555 1_555
N11_4 Zn1_4 1_555 1_555
O15_4 Zn1_4 1_555 1_555
C3_4 H1_4 1_555 1_555
C4_4 C3_4 1_555 1_555
H2_4 C4_4 1_555 1_555
H18_4 C29_4 1_555 1_555
C43_4 C42_4 1_555 1_555
H28_4 C43_4 1_555 1_555
C44_4 C43_4 1_555 1_555
H29_4 C44_4 1_555 1_555
C45_4 C44_4 1_555 1_555
H30_4 C45_4 1_555 1_555
C46_4 C45_4 1_555 1_555
H31_4 C48_4 1_555 1_555
O11_4 U2_2 1_555 1_555
O20_2 U2_2 1_555 1_555
H19_4 C30_4 1_555 1_555
H34_4 C53_4 1_555 1_555
C54_4 C53_4 1_555 1_555
H35_4 C54_4 1_555 1_555
C14_4 H7_4 1_555 1_555

#END
