
###############################################################################
#
# This file contains modified crystal structure data generated from the
# MOF subset of the Cambridge Structural Database (CSD) v543 
# hosted by the Cambridge Crystallographic Data Centre (CCDC).
#
# This work is licensed under the Creative Commons
# Attribution-NonCommercial-ShareAlike 4.0 International License.
# To view a copy of this license, visit
# http://creativecommons.org/licenses/by-nc-sa/4.0/
# or send a letter to
# Creative Commons, PO Box 1866, Mountain View, CA 94042, USA.
#
# CIF created using the CSD Python API on 29 September 2022
# The structure has been converted into the P1 space group
# The structure has a 3D framework
# The original CSD entry BOBRIW is in the monoclinic crystal system
# The framework has been calculated to contain at least 10.0% void space
# The void calculation uses a probe of radius 1.32A, grid spacing 0.4
#
###############################################################################

data_BOBRIW
_chemical_formula_moiety         '(C224 H144 Cd4 N24 O16)n'
_symmetry_cell_setting           triclinic
_symmetry_space_group_name_H-M   'P 1'
_symmetry_Int_Tables_number      1
_space_group_name_Hall           'P 1'
loop_
_symmetry_equiv_pos_site_id
_symmetry_equiv_pos_as_xyz
1 x,y,z
_cell_length_a                   21.8088(7)
_cell_length_b                   10.3071(3)
_cell_length_c                   29.9710(12)
_cell_angle_alpha                90
_cell_angle_beta                 126.602(2)
_cell_angle_gamma                90
_cell_volume                     5408.48
loop_
_atom_site_label
_atom_site_type_symbol
_atom_site_fract_x
_atom_site_fract_y
_atom_site_fract_z
Cd4 Cd 0.489826(10) 0.36139(2) 0.040954(8)
C1 C 0.68054(19) 0.9960(4) 0.32769(15)
C6 C 0.70937(17) 0.7633(4) 0.25082(13)
N2 N 0.67610(14) 0.8377(3) 0.26730(11)
C9 C 0.79850(18) 0.9293(4) 0.33670(14)
H2 H 0.8273 0.9873 0.3660
C15 C 0.65959(17) 0.6713(3) 0.20444(13)
C17 C 0.58112(18) 0.6851(4) 0.16921(14)
H5 H 0.5579 0.7523 0.1748
C18 C 0.83361(17) 0.8531(4) 0.31978(14)
N3 N 0.56652(14) 0.4998(3) 0.11627(11)
C21 C 0.91717(19) 0.8573(4) 0.34723(16)
C25 C 0.68912(19) 0.5657(4) 0.19453(15)
H8 H 0.7415 0.5503 0.2176
C26 C 0.72042(17) 0.9193(4) 0.30991(14)
C31 C 0.78716(18) 0.7695(4) 0.27596(14)
H12 H 0.8083 0.7167 0.2632
C40 C 0.53722(18) 0.5999(4) 0.12598(15)
H20 H 0.4846 0.6126 0.1024
C42 C 0.64199(18) 0.4839(4) 0.15114(14)
H22 H 0.6636 0.4137 0.1456
C49 C 0.9606(2) 0.9640(6) 0.3751(2)
C50 C 0.6031(2) 0.9927(5) 0.2987(2)
H30 H 0.5739 0.9431 0.2665
C56 C 0.9522(3) 0.7560(7) 0.3435(3)
H36 H 0.9242 0.6811 0.3256
C2 C 0.8244(2) 0.2890(5) 0.11381(18)
H1 H 0.8607 0.2377 0.1438
C3 C 0.61564(16) 0.3623(3) 0.03616(13)
O1 O 0.59802(12) 0.2745(2) 0.05594(10)
C4 C 0.69504(17) 0.3626(3) 0.05226(13)
O2 O 0.57028(12) 0.4502(2) 0.00620(10)
C13 C 0.92730(19) 0.3623(4) 0.10717(17)
C14 C 0.84623(18) 0.3638(4) 0.08726(16)
C30 C 0.79065(18) 0.4384(4) 0.04268(15)
H11 H 0.8039 0.4897 0.0241
C35 C 0.7502(2) 0.2880(4) 0.09715(17)
H15 H 0.7373 0.2374 0.1161
C43 C 0.71552(17) 0.4385(4) 0.02505(14)
C44 C 0.9616(2) 0.4656(6) 0.1015(2)
H24 H 0.9326 0.5381 0.0816
C55 C 0.9713(3) 0.2596(7) 0.1344(4)
H35 H 0.9496 0.1875 0.1387
N8 N 0.59001(14) 0.7556(3) 0.04058(11)
C10 C 0.56391(19) 0.8642(3) 0.04829(15)
H3 H 0.5121 0.8826 0.0233
C12 C 0.60904(19) 0.9499(4) 0.09081(14)
C16 C 0.68722(17) 0.9253(3) 0.12907(13)
C27 C 0.71404(18) 0.8101(4) 0.12205(14)
H9 H 0.7653 0.7879 0.1470
C38 C 0.66493(19) 0.7292(4) 0.07837(15)
H18 H 0.6842 0.6528 0.0746
H34 H 0.9287 0.9682 0.2023
O3 O 0.40662(15) 0.3254(3) 0.06547(11)
C8 C 0.44323(19) 0.2277(3) 0.09354(13)
O4 O 0.50172(14) 0.1888(3) 0.09919(11)
C29 C 0.4149(2) 0.1518(3) 0.12098(14)
C32 C 0.4468(2) 0.0344(4) 0.14560(16)
H13 H 0.4882 0.0040 0.1472
C34 C 0.3575(2) 0.0037(4) 0.16712(15)
C39 C 0.3542(2) 0.1965(4) 0.12008(18)
H19 H 0.3320 0.2762 0.1038
H23 H 0.3209 0.5106 0.0050
C46 C 0.3261(3) 0.1231(4) 0.14323(19)
H26 H 0.2856 0.1547 0.1426
C10_2 C 0.43609(19) 0.1358(3) 0.95171(15)
H3_2 H 0.4879 0.1174 0.9767
C12_2 C 0.39096(19) 0.0501(4) 0.90919(14)
C16_2 C 0.31278(17) 0.0747(3) 0.87093(13)
C27_2 C 0.28596(18) 0.1899(4) 0.87795(14)
H9_2 H 0.2347 0.2121 0.8530
C38_2 C 0.33507(19) 0.2708(4) 0.92163(15)
H18_2 H 0.3158 0.3472 0.9254
N6 N 0.40999(14) 0.2444(3) 0.95942(11)
H34_2 H 0.0713 0.0318 0.7977
Cd1 Cd 0.510174(10) 0.63861(2) 0.959046(8)
O3_2 O 0.59338(15) 0.6746(3) 0.93453(11)
C8_2 C 0.55677(19) 0.7723(3) 0.90646(13)
O4_2 O 0.49828(14) 0.8112(3) 0.90081(11)
C29_2 C 0.5851(2) 0.8482(3) 0.87902(14)
C32_2 C 0.5532(2) 0.9656(4) 0.85440(16)
H13_2 H 0.5118 0.9960 0.8528
C34_2 C 0.6425(2) 0.9963(4) 0.83288(15)
C39_2 C 0.6458(2) 0.8035(4) 0.87992(18)
H19_2 H 0.6680 0.7238 0.8962
H23_2 H 0.6791 0.4894 0.9950
C46_2 C 0.6739(3) 0.8769(4) 0.85677(19)
H26_2 H 0.7144 0.8453 0.8574
O5 O 0.40198(12) 0.7255(2) 0.94406(10)
O6 O 0.42972(12) 0.5498(2) 0.99380(10)
N7 N 0.43348(14) 0.5002(3) 0.88373(11)
C1_2 C 0.31946(19) 0.0040(4) 0.67231(15)
C6_2 C 0.29063(17) 0.2367(4) 0.74918(13)
N2_2 N 0.32390(14) 0.1623(3) 0.73270(11)
C9_2 C 0.20150(18) 0.0707(4) 0.66330(14)
H2_2 H 0.1727 0.0127 0.6340
C15_2 C 0.34041(17) 0.3287(3) 0.79556(13)
C17_2 C 0.41888(18) 0.3149(4) 0.83079(14)
H5_2 H 0.4421 0.2477 0.8252
C18_2 C 0.16639(17) 0.1469(4) 0.68022(14)
C21_2 C 0.08283(19) 0.1427(4) 0.65277(16)
C25_2 C 0.31088(19) 0.4343(4) 0.80547(15)
H8_2 H 0.2585 0.4497 0.7824
C26_2 C 0.27958(17) 0.0807(4) 0.69009(14)
C31_2 C 0.21284(18) 0.2305(4) 0.72404(14)
H12_2 H 0.1917 0.2833 0.7368
C40_2 C 0.46278(18) 0.4001(4) 0.87402(15)
H20_2 H 0.5154 0.3874 0.8976
C42_2 C 0.35801(18) 0.5161(4) 0.84886(14)
H22_2 H 0.3364 0.5863 0.8544
C49_2 C 0.0394(2) 0.0360(6) 0.6249(2)
C50_2 C 0.3969(2) 0.0073(5) 0.7013(2)
H30_2 H 0.4261 0.0569 0.7335
C56_2 C 0.0478(3) 0.2440(7) 0.6565(3)
H36_2 H 0.0758 0.3189 0.6744
C2_2 C 0.1756(2) 0.7110(5) 0.88619(18)
H1_2 H 0.1393 0.7623 0.8562
C3_2 C 0.38436(16) 0.6377(3) 0.96384(13)
C4_2 C 0.30496(17) 0.6374(3) 0.94774(13)
C13_2 C 0.07270(19) 0.6377(4) 0.89283(17)
C14_2 C 0.15377(18) 0.6362(4) 0.91274(16)
C30_2 C 0.20935(18) 0.5616(4) 0.95732(15)
H11_2 H 0.1961 0.5103 0.9759
C35_2 C 0.2498(2) 0.7120(4) 0.90285(17)
H15_2 H 0.2627 0.7626 0.8839
C43_2 C 0.28448(17) 0.5615(4) 0.97495(14)
C44_2 C 0.0384(2) 0.5344(6) 0.8985(2)
H24_2 H 0.0674 0.4619 0.9184
C55_2 C 0.0287(3) 0.7404(7) 0.8656(4)
H35_2 H 0.0504 0.8125 0.8613
Cd1_2 Cd 0.489826(10) 0.13861(2) 0.540954(8)
N1 N 0.18801(15) 0.9836(3) 0.80574(11)
C5 C 0.26146(18) 0.9845(3) 0.82477(13)
O3_3 O 0.40662(15) 0.1746(3) 0.56547(11)
C7 C 0.14090(19) 0.9001(3) 0.76458(14)
C8_3 C 0.44323(19) 0.2723(3) 0.59354(13)
O4_3 O 0.50172(14) 0.3112(3) 0.59919(11)
C11 C 0.24171(19) 0.8200(3) 0.76017(13)
H4 H 0.4122 0.9760 0.9058
C19 C 0.3762(2) 0.6521(4) 0.73847(16)
H6 H 0.4285 0.6499 0.7557
C20 C 0.27078(19) 0.7365(4) 0.73578(14)
C22 C 0.0601(2) 0.8992(4) 0.74542(15)
C23 C 0.28990(19) 0.9060(4) 0.80326(14)
H7 H 0.3412 0.9110 0.8177
C24 C 0.3273(2) 0.5775(4) 0.69119(14)
C28 C 0.16604(19) 0.8184(3) 0.74150(14)
H10 H 0.1317 0.7618 0.7131
C29_3 C 0.4149(2) 0.3482(3) 0.62098(14)
C32_3 C 0.4468(2) 0.4656(4) 0.64560(16)
H13_3 H 0.4882 0.4960 0.6472
C33 C 0.4186(2) 0.5392(4) 0.66791(17)
H14 H 0.4408 0.6191 0.6838
C34_3 C 0.3575(2) 0.4963(4) 0.66712(15)
C36 C 0.2500(2) 0.5837(5) 0.66729(17)
H16 H 0.2160 0.5340 0.6359
C39_3 C 0.3542(2) 0.3035(4) 0.62008(18)
H19_3 H 0.3320 0.2238 0.6038
C41 C 0.2223(2) 0.6620(4) 0.68901(17)
H21 H 0.1701 0.6645 0.6718
H24_3 H 0.0674 0.0381 0.4184
C45 C 0.3482(2) 0.7290(4) 0.75996(15)
H25 H 0.3822 0.7775 0.7917
C46_3 C 0.3261(3) 0.3769(4) 0.64323(19)
H26_3 H 0.2856 0.3453 0.6426
C47 C 0.0056(3) 0.8217(6) 0.7040(2)
H27 H 0.0172 0.7664 0.6855
C54 C 0.0367(3) 0.9762(6) 0.7689(3)
O5_2 O 0.59802(12) 0.2255(2) 0.55594(10)
O6_2 O 0.57028(12) 0.0498(2) 0.50620(10)
N7_2 N 0.56652(14) 0.0002(3) 0.61627(11)
N8_2 N 0.40999(14) 0.2556(3) 0.45942(11)
C2_3 C 0.8244(2) 0.2110(5) 0.61381(18)
H1_3 H 0.8607 0.2623 0.6438
C3_3 C 0.61564(16) 0.1377(3) 0.53616(13)
C4_3 C 0.69504(17) 0.1374(3) 0.55226(13)
C13_3 C 0.92730(19) 0.1377(4) 0.60717(17)
C14_3 C 0.84623(18) 0.1362(4) 0.58726(16)
C30_3 C 0.79065(18) 0.0616(4) 0.54268(15)
H11_3 H 0.8039 0.0103 0.5241
C35_3 C 0.7502(2) 0.2120(4) 0.59715(17)
H15_3 H 0.7373 0.2626 0.6161
C43_3 C 0.71552(17) 0.0615(4) 0.52505(14)
H23_3 H 0.6791 0.0106 0.4950
C44_3 C 0.9616(2) 0.0344(6) 0.6015(2)
C55_3 C 0.9713(3) 0.2404(7) 0.6344(4)
H35_3 H 0.9496 0.3125 0.6387
N1_2 N 0.18801(15) 0.5164(3) 0.30574(11)
C5_2 C 0.26146(18) 0.5155(3) 0.32477(13)
C7_2 C 0.14090(19) 0.5999(3) 0.26458(14)
C10_3 C 0.43609(19) 0.3642(3) 0.45171(15)
H3_3 H 0.4879 0.3826 0.4767
C11_2 C 0.24171(19) 0.6800(3) 0.26017(13)
C12_3 C 0.39096(19) 0.4499(4) 0.40919(14)
H4_2 H 0.4122 0.5240 0.4058
C16_3 C 0.31278(17) 0.4253(3) 0.37093(13)
C19_2 C 0.3762(2) 0.8479(4) 0.23847(16)
H6_2 H 0.4285 0.8501 0.2557
C20_2 C 0.27078(19) 0.7635(4) 0.23578(14)
C22_2 C 0.0601(2) 0.6008(4) 0.24542(15)
C23_2 C 0.28990(19) 0.5940(4) 0.30326(14)
H7_2 H 0.3412 0.5890 0.3177
C24_2 C 0.3273(2) 0.9225(4) 0.19119(14)
C27_3 C 0.28596(18) 0.3101(4) 0.37795(14)
H9_3 H 0.2347 0.2879 0.3530
C28_2 C 0.16604(19) 0.6816(3) 0.24150(14)
H10_2 H 0.1317 0.7382 0.2131
C33_2 C 0.4186(2) 0.9608(4) 0.16791(17)
H14_2 H 0.4408 0.8809 0.1838
C36_2 C 0.2500(2) 0.9163(5) 0.16729(17)
H16_2 H 0.2160 0.9660 0.1359
C38_3 C 0.33507(19) 0.2292(4) 0.42163(15)
H18_3 H 0.3158 0.1528 0.4254
C41_2 C 0.2223(2) 0.8380(4) 0.18901(17)
H21_2 H 0.1701 0.8355 0.1718
C45_2 C 0.3482(2) 0.7710(4) 0.25996(15)
H25_2 H 0.3822 0.7225 0.2917
C47_2 C 0.0056(3) 0.6783(6) 0.2040(2)
H27_2 H 0.0172 0.7336 0.1855
C54_2 C 0.0367(3) 0.5238(6) 0.2689(3)
H34_3 H 0.0713 0.4682 0.2977
C42_3 C 0.64199(18) 0.0161(4) 0.65114(14)
H22_3 H 0.6636 0.0863 0.6456
C2_4 C 0.1756(2) 0.7890(5) 0.38619(18)
H1_4 H 0.1393 0.7377 0.3562
C3_4 C 0.38436(16) 0.8623(3) 0.46384(13)
O1_2 O 0.40198(12) 0.7745(2) 0.44406(10)
C4_4 C 0.30496(17) 0.8626(3) 0.44774(13)
O2_2 O 0.42972(12) 0.9502(2) 0.49380(10)
C13_4 C 0.07270(19) 0.8623(4) 0.39283(17)
C14_4 C 0.15377(18) 0.8638(4) 0.41274(16)
C30_4 C 0.20935(18) 0.9384(4) 0.45732(15)
H11_4 H 0.1961 0.9897 0.4759
C35_4 C 0.2498(2) 0.7880(4) 0.40285(17)
H15_4 H 0.2627 0.7374 0.3839
C43_4 C 0.28448(17) 0.9385(4) 0.47495(14)
H23_4 H 0.3209 0.9894 0.5050
C44_4 C 0.0384(2) 0.9656(6) 0.3985(2)
C55_4 C 0.0287(3) 0.7596(7) 0.3656(4)
H35_4 H 0.0504 0.6875 0.3613
Cd2 Cd 0.510174(10) 0.86139(2) 0.459046(8)
N3_2 N 0.43348(14) 0.9998(3) 0.38373(11)
C42_4 C 0.35801(18) 0.9839(4) 0.34886(14)
H22_4 H 0.3364 0.9137 0.3544
N1_3 N 0.81199(15) 0.4836(3) 0.69426(11)
C5_3 C 0.73854(18) 0.4845(3) 0.67523(13)
C7_3 C 0.85910(19) 0.4001(3) 0.73542(14)
C10_4 C 0.56391(19) 0.6358(3) 0.54829(15)
H3_4 H 0.5121 0.6174 0.5233
C11_3 C 0.75829(19) 0.3200(3) 0.73983(13)
C12_4 C 0.60904(19) 0.5501(4) 0.59081(14)
H4_3 H 0.5878 0.4760 0.5942
C16_4 C 0.68722(17) 0.5747(3) 0.62907(13)
C19_3 C 0.6238(2) 0.1521(4) 0.76153(16)
H6_3 H 0.5715 0.1499 0.7443
C20_3 C 0.72922(19) 0.2365(4) 0.76422(14)
C22_3 C 0.9399(2) 0.3992(4) 0.75458(15)
C23_3 C 0.71010(19) 0.4060(4) 0.69674(14)
H7_3 H 0.6588 0.4110 0.6823
C24_3 C 0.6727(2) 0.0775(4) 0.80881(14)
C27_4 C 0.71404(18) 0.6899(4) 0.62205(14)
H9_4 H 0.7653 0.7121 0.6470
C28_3 C 0.83396(19) 0.3184(3) 0.75850(14)
H10_3 H 0.8683 0.2618 0.7869
C33_3 C 0.5814(2) 0.0392(4) 0.83209(17)
H14_3 H 0.5592 0.1191 0.8162
C36_3 C 0.7500(2) 0.0837(5) 0.83271(17)
H16_3 H 0.7840 0.0340 0.8641
C38_4 C 0.66493(19) 0.7708(4) 0.57837(15)
H18_4 H 0.6842 0.8472 0.5746
C41_3 C 0.7777(2) 0.1620(4) 0.81099(17)
H21_3 H 0.8299 0.1645 0.8282
C45_3 C 0.6518(2) 0.2290(4) 0.74004(15)
H25_3 H 0.6178 0.2775 0.7083
C47_3 C 0.9944(3) 0.3217(6) 0.7960(2)
H27_3 H 0.9828 0.2664 0.8145
N6_2 N 0.59001(14) 0.7444(3) 0.54058(11)
C54_3 C 0.9633(3) 0.4762(6) 0.7311(3)
H34_4 H 0.9287 0.5318 0.7023
N1_4 N 0.81199(15) 0.0164(3) 0.19426(11)
C5_4 C 0.73854(18) 0.0155(3) 0.17523(13)
O3_4 O 0.59338(15) 0.8254(3) 0.43453(11)
C7_4 C 0.85910(19) 0.0999(3) 0.23542(14)
C8_4 C 0.55677(19) 0.7277(3) 0.40646(13)
O4_4 O 0.49828(14) 0.6888(3) 0.40081(11)
C11_4 C 0.75829(19) 0.1800(3) 0.23983(13)
H4_4 H 0.5878 0.0240 0.0942
C19_4 C 0.6238(2) 0.3479(4) 0.26153(16)
H6_4 H 0.5715 0.3501 0.2443
C20_4 C 0.72922(19) 0.2635(4) 0.26422(14)
C22_4 C 0.9399(2) 0.1008(4) 0.25458(15)
C23_4 C 0.71010(19) 0.0940(4) 0.19674(14)
H7_4 H 0.6588 0.0890 0.1823
C24_4 C 0.6727(2) 0.4225(4) 0.30881(14)
C28_4 C 0.83396(19) 0.1816(3) 0.25850(14)
H10_4 H 0.8683 0.2382 0.2869
C29_4 C 0.5851(2) 0.6518(3) 0.37902(14)
C32_4 C 0.5532(2) 0.5344(4) 0.35440(16)
H13_4 H 0.5118 0.5040 0.3528
C33_4 C 0.5814(2) 0.4608(4) 0.33209(17)
H14_4 H 0.5592 0.3809 0.3162
C34_4 C 0.6425(2) 0.5037(4) 0.33288(15)
C36_4 C 0.7500(2) 0.4163(5) 0.33271(17)
H16_4 H 0.7840 0.4660 0.3641
C39_4 C 0.6458(2) 0.6965(4) 0.37992(18)
H19_4 H 0.6680 0.7762 0.3962
C41_4 C 0.7777(2) 0.3380(4) 0.31099(17)
H21_4 H 0.8299 0.3355 0.3282
H24_4 H 0.9326 0.9619 0.5816
C45_4 C 0.6518(2) 0.2710(4) 0.24004(15)
H25_4 H 0.6178 0.2225 0.2083
C46_4 C 0.6739(3) 0.6231(4) 0.35677(19)
H26_4 H 0.7144 0.6547 0.3574
C47_4 C 0.9944(3) 0.1783(6) 0.2960(2)
H27_4 H 0.9828 0.2336 0.3145
C54_4 C 0.9633(3) 0.0238(6) 0.2311(3)
H31 H 0.9472 0.0296 0.7672
N4 N 0.6031(2) 0.1358(4) 0.3610(2)
C37 C 0.6777(3) 0.1400(5) 0.3888(2)
H17 H 0.7051 0.1909 0.4207
N5 N 0.9080(2) 0.8992(5) 0.7116(2)
C48 C 0.9311(3) 0.8262(6) 0.6895(3)
H28 H 0.8952 0.7710 0.6611
H29 H 0.9382 0.0363 0.3785
C51 C 0.9608(3) 0.9732(7) 0.7502(3)
C52 C 0.5683(3) 0.0614(6) 0.3165(3)
H32 H 0.5154 0.0554 0.2955
C53 C 0.7180(2) 0.0742(5) 0.37401(19)
H33 H 0.7709 0.0827 0.3954
N5_2 N 0.0920(2) 0.3992(5) 0.7884(2)
C48_2 C 0.0689(3) 0.3262(6) 0.8105(3)
H28_2 H 0.1048 0.2710 0.8389
C51_2 C 0.0392(3) 0.4732(7) 0.7498(3)
H31_2 H 0.0528 0.5296 0.7328
C1_3 C 0.31946(19) 0.4960(4) 0.17231(15)
C6_3 C 0.29063(17) 0.2633(4) 0.24918(13)
N2_3 N 0.32390(14) 0.3377(3) 0.23270(11)
C9_3 C 0.20150(18) 0.4293(4) 0.16330(14)
H2_3 H 0.1727 0.4873 0.1340
C15_3 C 0.34041(17) 0.1713(3) 0.29556(13)
C17_3 C 0.41888(18) 0.1851(4) 0.33079(14)
H5_3 H 0.4421 0.2523 0.3252
C18_3 C 0.16639(17) 0.3531(4) 0.18022(14)
C21_3 C 0.08283(19) 0.3573(4) 0.15277(16)
N4_2 N 0.3969(2) 0.6358(4) 0.1390(2)
C25_3 C 0.31088(19) 0.0657(4) 0.30547(15)
H8_3 H 0.2585 0.0503 0.2824
C26_3 C 0.27958(17) 0.4193(4) 0.19009(14)
C31_3 C 0.21284(18) 0.2695(4) 0.22404(14)
H12_3 H 0.1917 0.2167 0.2368
C37_2 C 0.3223(3) 0.6400(5) 0.1112(2)
H17_2 H 0.2949 0.6909 0.0793
C40_3 C 0.46278(18) 0.0999(4) 0.37402(15)
H20_3 H 0.5154 0.1126 0.3976
C49_3 C 0.0394(2) 0.4640(6) 0.1249(2)
H29_2 H 0.0618 0.5363 0.1215
C50_3 C 0.3969(2) 0.4927(5) 0.2013(2)
H30_3 H 0.4261 0.4431 0.2335
C52_2 C 0.4317(3) 0.5614(6) 0.1835(3)
H32_2 H 0.4846 0.5554 0.2045
C53_2 C 0.2820(2) 0.5742(5) 0.12599(19)
H33_2 H 0.2291 0.5827 0.1046
C56_3 C 0.0478(3) 0.2560(7) 0.1565(3)
H36_3 H 0.0758 0.1811 0.1744
N4_3 N 0.3969(2) 0.8642(4) 0.6390(2)
C37_3 C 0.3223(3) 0.8600(5) 0.6112(2)
H17_3 H 0.2949 0.8091 0.5793
N5_3 N 0.0920(2) 0.1008(5) 0.2884(2)
C48_3 C 0.0689(3) 0.1738(6) 0.3105(3)
H28_3 H 0.1048 0.2290 0.3389
H29_3 H 0.0618 0.9637 0.6215
C51_3 C 0.0392(3) 0.0268(7) 0.2498(3)
C52_3 C 0.4317(3) 0.9386(6) 0.6835(3)
H32_3 H 0.4846 0.9446 0.7045
C53_3 C 0.2820(2) 0.9258(5) 0.62599(19)
H33_3 H 0.2291 0.9173 0.6046
H31_3 H 0.0528 0.9704 0.2328
C1_4 C 0.68054(19) 0.5040(4) 0.82769(15)
C6_4 C 0.70937(17) 0.7367(4) 0.75082(13)
N2_4 N 0.67610(14) 0.6623(3) 0.76730(11)
C9_4 C 0.79850(18) 0.5707(4) 0.83670(14)
H2_4 H 0.8273 0.5127 0.8660
C15_4 C 0.65959(17) 0.8287(3) 0.70444(13)
C17_4 C 0.58112(18) 0.8149(4) 0.66921(14)
H5_4 H 0.5579 0.7477 0.6748
C18_4 C 0.83361(17) 0.6469(4) 0.81978(14)
C21_4 C 0.91717(19) 0.6427(4) 0.84723(16)
N4_4 N 0.6031(2) 0.3642(4) 0.8610(2)
C25_4 C 0.68912(19) 0.9343(4) 0.69453(15)
H8_4 H 0.7415 0.9497 0.7176
C26_4 C 0.72042(17) 0.5807(4) 0.80991(14)
C31_4 C 0.78716(18) 0.7305(4) 0.77596(14)
H12_4 H 0.8083 0.7833 0.7632
C37_4 C 0.6777(3) 0.3600(5) 0.8888(2)
H17_4 H 0.7051 0.3091 0.9207
C40_4 C 0.53722(18) 0.9001(4) 0.62598(15)
H20_4 H 0.4846 0.8874 0.6024
C49_4 C 0.9606(2) 0.5360(6) 0.8751(2)
H29_4 H 0.9382 0.4637 0.8785
C50_4 C 0.6031(2) 0.5073(5) 0.7987(2)
H30_4 H 0.5739 0.5569 0.7665
C52_4 C 0.5683(3) 0.4386(6) 0.8165(3)
H32_4 H 0.5154 0.4446 0.7955
C53_4 C 0.7180(2) 0.4258(5) 0.87401(19)
H33_4 H 0.7709 0.4173 0.8954
C56_4 C 0.9522(3) 0.7440(7) 0.8435(3)
H36_4 H 0.9242 0.8189 0.8256
N5_4 N 0.9080(2) 0.6008(5) 0.2116(2)
C48_4 C 0.9311(3) 0.6738(6) 0.1895(3)
H28_4 H 0.8952 0.7290 0.1611
C51_4 C 0.9608(3) 0.5268(7) 0.2502(3)
H31_4 H 0.9472 0.4704 0.2672
loop_
_geom_bond_atom_site_label_1
_geom_bond_atom_site_label_2
_geom_bond_site_symmetry_1
_geom_bond_site_symmetry_2
C1 C26 1_555 1_555
C6 N2 1_555 1_555
N2 C26 1_555 1_555
C9 H2 1_555 1_555
C15 C6 1_555 1_555
C17 C15 1_555 1_555
H5 C17 1_555 1_555
C18 C9 1_555 1_555
N3 C40 1_555 1_555
C21 C18 1_555 1_555
C25 C15 1_555 1_555
H8 C25 1_555 1_555
C26 C9 1_555 1_555
C31 C6 1_555 1_555
H12 C31 1_555 1_555
C40 C17 1_555 1_555
H20 C40 1_555 1_555
C42 N3 1_555 1_555
H22 C42 1_555 1_555
C49 C21 1_555 1_555
C50 C1 1_555 1_555
H30 C50 1_555 1_555
C56 C21 1_555 1_555
H36 C56 1_555 1_555
Cd4 N3 1_555 1_555
C18 C31 1_555 1_555
C25 C42 1_555 1_555
C2 H1 1_555 1_555
C3 O1 1_555 1_555
O1 Cd4 1_555 1_555
C4 C3 1_555 1_555
O2 C3 1_555 1_555
C13 C14 1_555 1_555
C14 C2 1_555 1_555
C30 C14 1_555 1_555
H11 C30 1_555 1_555
C35 C2 1_555 1_555
H15 C35 1_555 1_555
C43 C4 1_555 1_555
C44 C13 1_555 1_555
H24 C44 1_555 1_555
C55 C13 1_555 1_555
H35 C55 1_555 1_555
Cd4 O2 1_555 1_555
C4 C35 1_555 1_555
C30 C43 1_555 1_555
C10 H3 1_555 1_555
C12 C10 1_555 1_555
C16 C12 1_555 1_555
C27 C16 1_555 1_555
H9 C27 1_555 1_555
C38 C27 1_555 1_555
H18 C38 1_555 1_555
N8 C10 1_555 1_555
C38 N8 1_555 1_555
O3 Cd4 1_555 1_555
C8 O3 1_555 1_555
O4 Cd4 1_555 1_555
C29 C8 1_555 1_555
C32 C29 1_555 1_555
H13 C32 1_555 1_555
C39 C29 1_555 1_555
H19 C39 1_555 1_555
C46 C34 1_555 1_555
H26 C46 1_555 1_555
C8 O4 1_555 1_555
C39 C46 1_555 1_555
C10_2 H3_2 1_555 1_555
C12_2 C10_2 1_555 1_555
C16_2 C12_2 1_555 1_555
C27_2 C16_2 1_555 1_555
H9_2 C27_2 1_555 1_555
C38_2 C27_2 1_555 1_555
H18_2 C38_2 1_555 1_555
N6 C10_2 1_555 1_555
C38_2 N6 1_555 1_555
O3_2 Cd1 1_555 1_555
C8_2 O3_2 1_555 1_555
O4_2 Cd1 1_555 1_555
C29_2 C8_2 1_555 1_555
C32_2 C29_2 1_555 1_555
H13_2 C32_2 1_555 1_555
C39_2 C29_2 1_555 1_555
H19_2 C39_2 1_555 1_555
C46_2 C34_2 1_555 1_555
H26_2 C46_2 1_555 1_555
O5 Cd1 1_555 1_555
O6 Cd1 1_555 1_555
N7 Cd1 1_555 1_555
C8_2 O4_2 1_555 1_555
C39_2 C46_2 1_555 1_555
C1_2 C26_2 1_555 1_555
C6_2 N2_2 1_555 1_555
N2_2 C26_2 1_555 1_555
C9_2 H2_2 1_555 1_555
C15_2 C6_2 1_555 1_555
C17_2 C15_2 1_555 1_555
H5_2 C17_2 1_555 1_555
C18_2 C9_2 1_555 1_555
N7 C40_2 1_555 1_555
C21_2 C18_2 1_555 1_555
C25_2 C15_2 1_555 1_555
H8_2 C25_2 1_555 1_555
C26_2 C9_2 1_555 1_555
C31_2 C6_2 1_555 1_555
H12_2 C31_2 1_555 1_555
C40_2 C17_2 1_555 1_555
H20_2 C40_2 1_555 1_555
C42_2 N7 1_555 1_555
H22_2 C42_2 1_555 1_555
C49_2 C21_2 1_555 1_555
C50_2 C1_2 1_555 1_555
H30_2 C50_2 1_555 1_555
C56_2 C21_2 1_555 1_555
H36_2 C56_2 1_555 1_555
C18_2 C31_2 1_555 1_555
C25_2 C42_2 1_555 1_555
C2_2 H1_2 1_555 1_555
C3_2 O5 1_555 1_555
C4_2 C3_2 1_555 1_555
O6 C3_2 1_555 1_555
C13_2 C14_2 1_555 1_555
C14_2 C2_2 1_555 1_555
C30_2 C14_2 1_555 1_555
H11_2 C30_2 1_555 1_555
C35_2 C2_2 1_555 1_555
H15_2 C35_2 1_555 1_555
C43_2 C4_2 1_555 1_555
C44_2 C13_2 1_555 1_555
H24_2 C44_2 1_555 1_555
C55_2 C13_2 1_555 1_555
H35_2 C55_2 1_555 1_555
C4_2 C35_2 1_555 1_555
C30_2 C43_2 1_555 1_555
N1 C5 1_555 1_555
O3_3 Cd1_2 1_555 1_555
C7 N1 1_555 1_555
C8_3 O3_3 1_555 1_555
O4_3 Cd1_2 1_555 1_555
C11 C20 1_555 1_555
C19 H6 1_555 1_555
C20 C41 1_555 1_555
C22 C7 1_555 1_555
C23 C5 1_555 1_555
H7 C23 1_555 1_555
C24 C19 1_555 1_555
C28 C7 1_555 1_555
H10 C28 1_555 1_555
C29_3 C8_3 1_555 1_555
C32_3 C29_3 1_555 1_555
H13_3 C32_3 1_555 1_555
C33 C32_3 1_555 1_555
H14 C33 1_555 1_555
C34_3 C24 1_555 1_555
C36 C24 1_555 1_555
H16 C36 1_555 1_555
C39_3 C29_3 1_555 1_555
H19_3 C39_3 1_555 1_555
C41 C36 1_555 1_555
H21 C41 1_555 1_555
C45 C19 1_555 1_555
H25 C45 1_555 1_555
C46_3 C34_3 1_555 1_555
H26_3 C46_3 1_555 1_555
C47 C22 1_555 1_555
H27 C47 1_555 1_555
C54 C22 1_555 1_555
O5_2 Cd1_2 1_555 1_555
O6_2 Cd1_2 1_555 1_555
N7_2 Cd1_2 1_555 1_555
N8_2 Cd1_2 1_555 1_555
C8_3 O4_3 1_555 1_555
C11 C23 1_555 1_555
C11 C28 1_555 1_555
C20 C45 1_555 1_555
C33 C34_3 1_555 1_555
C39_3 C46_3 1_555 1_555
C2_3 H1_3 1_555 1_555
C3_3 O5_2 1_555 1_555
C4_3 C3_3 1_555 1_555
O6_2 C3_3 1_555 1_555
C13_3 C14_3 1_555 1_555
C14_3 C2_3 1_555 1_555
C30_3 C14_3 1_555 1_555
H11_3 C30_3 1_555 1_555
C35_3 C2_3 1_555 1_555
H15_3 C35_3 1_555 1_555
C43_3 C4_3 1_555 1_555
H23_3 C43_3 1_555 1_555
C44_3 C13_3 1_555 1_555
C55_3 C13_3 1_555 1_555
H35_3 C55_3 1_555 1_555
C4_3 C35_3 1_555 1_555
C30_3 C43_3 1_555 1_555
N1_2 C5_2 1_555 1_555
C5_2 C16_3 1_555 1_555
C7_2 N1_2 1_555 1_555
C10_3 H3_3 1_555 1_555
C11_2 C20_2 1_555 1_555
C12_3 C10_3 1_555 1_555
H4_2 C12_3 1_555 1_555
C16_3 C12_3 1_555 1_555
C19_2 H6_2 1_555 1_555
C20_2 C41_2 1_555 1_555
C22_2 C7_2 1_555 1_555
C23_2 C5_2 1_555 1_555
H7_2 C23_2 1_555 1_555
C24_2 C19_2 1_555 1_555
C27_3 C16_3 1_555 1_555
H9_3 C27_3 1_555 1_555
C28_2 C7_2 1_555 1_555
H10_2 C28_2 1_555 1_555
H14_2 C33_2 1_555 1_555
C36_2 C24_2 1_555 1_555
H16_2 C36_2 1_555 1_555
C38_3 C27_3 1_555 1_555
H18_3 C38_3 1_555 1_555
C41_2 C36_2 1_555 1_555
H21_2 C41_2 1_555 1_555
C45_2 C19_2 1_555 1_555
H25_2 C45_2 1_555 1_555
C47_2 C22_2 1_555 1_555
H27_2 C47_2 1_555 1_555
N8_2 C10_3 1_555 1_555
C54_2 C22_2 1_555 1_555
H34_3 C54_2 1_555 1_555
C11_2 C23_2 1_555 1_555
C11_2 C28_2 1_555 1_555
C20_2 C45_2 1_555 1_555
C38_3 N8_2 1_555 1_555
C42_3 N7_2 1_555 1_555
H22_3 C42_3 1_555 1_555
C2_4 H1_4 1_555 1_555
C3_4 O1_2 1_555 1_555
O1_2 Cd2 1_555 1_555
C4_4 C3_4 1_555 1_555
O2_2 C3_4 1_555 1_555
C13_4 C14_4 1_555 1_555
C14_4 C2_4 1_555 1_555
C30_4 C14_4 1_555 1_555
H11_4 C30_4 1_555 1_555
C35_4 C2_4 1_555 1_555
H15_4 C35_4 1_555 1_555
C43_4 C4_4 1_555 1_555
H23_4 C43_4 1_555 1_555
C44_4 C13_4 1_555 1_555
C55_4 C13_4 1_555 1_555
H35_4 C55_4 1_555 1_555
Cd2 O2_2 1_555 1_555
C4_4 C35_4 1_555 1_555
C30_4 C43_4 1_555 1_555
C42_4 N3_2 1_555 1_555
H22_4 C42_4 1_555 1_555
Cd2 N3_2 1_555 1_555
N1_3 C5_3 1_555 1_555
C5_3 C16_4 1_555 1_555
C7_3 N1_3 1_555 1_555
C10_4 H3_4 1_555 1_555
C11_3 C20_3 1_555 1_555
C12_4 C10_4 1_555 1_555
H4_3 C12_4 1_555 1_555
C16_4 C12_4 1_555 1_555
C19_3 H6_3 1_555 1_555
C20_3 C41_3 1_555 1_555
C22_3 C7_3 1_555 1_555
C23_3 C5_3 1_555 1_555
H7_3 C23_3 1_555 1_555
C24_3 C19_3 1_555 1_555
C27_4 C16_4 1_555 1_555
H9_4 C27_4 1_555 1_555
C28_3 C7_3 1_555 1_555
H10_3 C28_3 1_555 1_555
H14_3 C33_3 1_555 1_555
C36_3 C24_3 1_555 1_555
H16_3 C36_3 1_555 1_555
C38_4 C27_4 1_555 1_555
H18_4 C38_4 1_555 1_555
C41_3 C36_3 1_555 1_555
H21_3 C41_3 1_555 1_555
C45_3 C19_3 1_555 1_555
H25_3 C45_3 1_555 1_555
C47_3 C22_3 1_555 1_555
H27_3 C47_3 1_555 1_555
N6_2 C10_4 1_555 1_555
C54_3 C22_3 1_555 1_555
H34_4 C54_3 1_555 1_555
Cd2 N6_2 1_555 1_555
C11_3 C23_3 1_555 1_555
C11_3 C28_3 1_555 1_555
C20_3 C45_3 1_555 1_555
C38_4 N6_2 1_555 1_555
N1_4 C5_4 1_555 1_555
O3_4 Cd2 1_555 1_555
C7_4 N1_4 1_555 1_555
C8_4 O3_4 1_555 1_555
O4_4 Cd2 1_555 1_555
C11_4 C20_4 1_555 1_555
C19_4 H6_4 1_555 1_555
C20_4 C41_4 1_555 1_555
C22_4 C7_4 1_555 1_555
C23_4 C5_4 1_555 1_555
H7_4 C23_4 1_555 1_555
C24_4 C19_4 1_555 1_555
C28_4 C7_4 1_555 1_555
H10_4 C28_4 1_555 1_555
C29_4 C8_4 1_555 1_555
C32_4 C29_4 1_555 1_555
H13_4 C32_4 1_555 1_555
C33_4 C32_4 1_555 1_555
H14_4 C33_4 1_555 1_555
C34_4 C24_4 1_555 1_555
C36_4 C24_4 1_555 1_555
H16_4 C36_4 1_555 1_555
C39_4 C29_4 1_555 1_555
H19_4 C39_4 1_555 1_555
C41_4 C36_4 1_555 1_555
H21_4 C41_4 1_555 1_555
C45_4 C19_4 1_555 1_555
H25_4 C45_4 1_555 1_555
C46_4 C34_4 1_555 1_555
H26_4 C46_4 1_555 1_555
C47_4 C22_4 1_555 1_555
H27_4 C47_4 1_555 1_555
C54_4 C22_4 1_555 1_555
C8_4 O4_4 1_555 1_555
C11_4 C23_4 1_555 1_555
C11_4 C28_4 1_555 1_555
C20_4 C45_4 1_555 1_555
C33_4 C34_4 1_555 1_555
C39_4 C46_4 1_555 1_555
N4 C37 1_555 1_555
C37 H17 1_555 1_555
N5 C48 1_555 1_555
H28 C48 1_555 1_555
C51 N5 1_555 1_555
C52 N4 1_555 1_555
H32 C52 1_555 1_555
H33 C53 1_555 1_555
C37 C53 1_555 1_555
N5_2 C48_2 1_555 1_555
H28_2 C48_2 1_555 1_555
C51_2 N5_2 1_555 1_555
H31_2 C51_2 1_555 1_555
C1_3 C26_3 1_555 1_555
C6_3 N2_3 1_555 1_555
N2_3 C26_3 1_555 1_555
C9_3 H2_3 1_555 1_555
C15_3 C6_3 1_555 1_555
C17_3 C15_3 1_555 1_555
H5_3 C17_3 1_555 1_555
C18_3 C9_3 1_555 1_555
C21_3 C18_3 1_555 1_555
N4_2 C37_2 1_555 1_555
C25_3 C15_3 1_555 1_555
H8_3 C25_3 1_555 1_555
C26_3 C9_3 1_555 1_555
C31_3 C6_3 1_555 1_555
H12_3 C31_3 1_555 1_555
C37_2 H17_2 1_555 1_555
C40_3 C17_3 1_555 1_555
H20_3 C40_3 1_555 1_555
C49_3 C21_3 1_555 1_555
H29_2 C49_3 1_555 1_555
C50_3 C1_3 1_555 1_555
H30_3 C50_3 1_555 1_555
C52_2 N4_2 1_555 1_555
H32_2 C52_2 1_555 1_555
C53_2 C1_3 1_555 1_555
H33_2 C53_2 1_555 1_555
C56_3 C21_3 1_555 1_555
H36_3 C56_3 1_555 1_555
C18_3 C31_3 1_555 1_555
C37_2 C53_2 1_555 1_555
C50_3 C52_2 1_555 1_555
N4_3 C37_3 1_555 1_555
C37_3 H17_3 1_555 1_555
N5_3 C48_3 1_555 1_555
H28_3 C48_3 1_555 1_555
C51_3 N5_3 1_555 1_555
C52_3 N4_3 1_555 1_555
H32_3 C52_3 1_555 1_555
H33_3 C53_3 1_555 1_555
C37_3 C53_3 1_555 1_555
C1_4 C26_4 1_555 1_555
C6_4 N2_4 1_555 1_555
N2_4 C26_4 1_555 1_555
C9_4 H2_4 1_555 1_555
C15_4 C6_4 1_555 1_555
C17_4 C15_4 1_555 1_555
H5_4 C17_4 1_555 1_555
C18_4 C9_4 1_555 1_555
C21_4 C18_4 1_555 1_555
N4_4 C37_4 1_555 1_555
C25_4 C15_4 1_555 1_555
H8_4 C25_4 1_555 1_555
C26_4 C9_4 1_555 1_555
C31_4 C6_4 1_555 1_555
H12_4 C31_4 1_555 1_555
C37_4 H17_4 1_555 1_555
C40_4 C17_4 1_555 1_555
H20_4 C40_4 1_555 1_555
C49_4 C21_4 1_555 1_555
H29_4 C49_4 1_555 1_555
C50_4 C1_4 1_555 1_555
H30_4 C50_4 1_555 1_555
C52_4 N4_4 1_555 1_555
H32_4 C52_4 1_555 1_555
C53_4 C1_4 1_555 1_555
H33_4 C53_4 1_555 1_555
C56_4 C21_4 1_555 1_555
H36_4 C56_4 1_555 1_555
C18_4 C31_4 1_555 1_555
C37_4 C53_4 1_555 1_555
C50_4 C52_4 1_555 1_555
N5_4 C48_4 1_555 1_555
H28_4 C48_4 1_555 1_555
C51_4 N5_4 1_555 1_555
H31_4 C51_4 1_555 1_555

#END
