
###############################################################################
#
# This file contains modified crystal structure data generated from the
# MOF subset of the Cambridge Structural Database (CSD) v543 
# hosted by the Cambridge Crystallographic Data Centre (CCDC).
#
# This work is licensed under the Creative Commons
# Attribution-NonCommercial-ShareAlike 4.0 International License.
# To view a copy of this license, visit
# http://creativecommons.org/licenses/by-nc-sa/4.0/
# or send a letter to
# Creative Commons, PO Box 1866, Mountain View, CA 94042, USA.
#
# CIF created using the CSD Python API on 29 September 2022
# The structure has been converted into the P1 space group
# The structure has a 3D framework
# The original CSD entry BOBTUI is in the rhombohedral crystal system
# The framework has been calculated to contain at least 10.0% void space
# The void calculation uses a probe of radius 1.32A, grid spacing 0.4
#
###############################################################################

data_BOBTUI
_chemical_formula_moiety         '(C108 H180 Cu12 N54)n'
_symmetry_cell_setting           triclinic
_symmetry_space_group_name_H-M   'P 1'
_symmetry_Int_Tables_number      1
_space_group_name_Hall           'P 1'
loop_
_symmetry_equiv_pos_site_id
_symmetry_equiv_pos_as_xyz
1 x,y,z
_cell_length_a                   19.6052(5)
_cell_length_b                   19.6052(5)
_cell_length_c                   14.2420(4)
_cell_angle_alpha                90
_cell_angle_beta                 90
_cell_angle_gamma                120.00
_cell_volume                     4740.72
loop_
_atom_site_label
_atom_site_type_symbol
_atom_site_fract_x
_atom_site_fract_y
_atom_site_fract_z
Cu1 Cu 0.117590(17) 0.368920(18) 0.27091(2)
N1 N 0.11999(12) 0.29309(12) 0.44661(14)
N2 N 0.08080(12) 0.32248(12) 0.39415(14)
N3 N 0.01133(12) 0.26825(12) 0.52330(14)
C1 C 0.07677(14) 0.26184(15) 0.52293(17)
C2 C 0.09755(16) 0.22400(17) 0.60059(19)
H1 H 0.1041 0.2535 0.6594
H2 H 0.1487 0.2278 0.5859
C3 C 0.0365(2) 0.1383(2) 0.6163(3)
H3 H 0.0536 0.1171 0.6678
H4 H 0.0306 0.1083 0.5588
C4 C 0.01664(14) 0.30638(14) 0.44225(17)
H9 H 0.0009 0.4328 0.4847
Cu2 Cu 0.215743(17) 0.297747(18) 0.39576(2)
N4 N 0.21334(12) 0.37358(12) 0.22006(14)
N5 N 0.06508(12) 0.40975(17) 0.18997(14)
H5 H 0.9860 0.1341 0.6324
C5 C 0.95741(16) 0.32796(17) 0.41145(19)
H6 H 0.9055 0.2794 0.4054
H7 H 0.9724 0.3530 0.3488
C6 C 0.9500(2) 0.3841(2) 0.4794(3)
H8 H 0.9104 0.3964 0.4560
H10 H 0.9340 0.3592 0.5413
Cu3 Cu 0.917997(25) 0.215743(17) 0.60424(2)
Cu1_2 Cu 0.631080(18) 0.748670(25) 0.27091(2)
N1_2 N 0.70691(12) 0.82690(17) 0.44661(14)
N2_2 N 0.67752(12) 0.75832(17) 0.39415(14)
N3_2 N 0.73175(12) 0.74308(17) 0.52330(14)
C1_2 C 0.73816(15) 0.81493(21) 0.52293(17)
C2_2 C 0.77600(17) 0.87355(23) 0.60059(19)
H1_2 H 0.7465 0.8506 0.6594
H2_2 H 0.7722 0.9209 0.5859
C3_2 C 0.8617(2) 0.8982(3) 0.6163(3)
H3_2 H 0.8829 0.9365 0.6678
H4_2 H 0.8917 0.9223 0.5588
H5_2 H 0.8659 0.8519 0.6324
C4_2 C 0.69362(14) 0.71026(20) 0.44225(17)
C5_2 C 0.67204(17) 0.62945(23) 0.41145(19)
H6_2 H 0.7206 0.6261 0.4054
H7_2 H 0.6470 0.6194 0.3488
C6_2 C 0.6159(2) 0.5659(3) 0.4794(3)
H8_2 H 0.6036 0.5140 0.4560
H9_2 H 0.5672 0.5681 0.4847
H10_2 H 0.6408 0.5748 0.5413
Cu2_2 Cu 0.702253(18) 0.917997(25) 0.39576(2)
Cu3_2 Cu 0.784257(17) 0.702253(30) 0.60424(2)
N4_2 N 0.62642(12) 0.83977(17) 0.22006(14)
N5_2 N 0.59025(17) 0.65534(21) 0.18997(14)
H5_3 H 0.1481 0.0140 0.6324
C5_3 C 0.37055(23) 0.04259(16) 0.41145(19)
H6_3 H 0.3739 0.0945 0.4054
H7_3 H 0.3806 0.0276 0.3488
C6_3 C 0.4341(3) 0.0500(2) 0.4794(3)
H8_3 H 0.4860 0.0896 0.4560
H10_3 H 0.4252 0.0660 0.5413
Cu3_3 Cu 0.297747(30) 0.082003(25) 0.60424(2)
Cu1_3 Cu 0.251330(25) 0.882410(17) 0.27091(2)
N1_3 N 0.17310(17) 0.88001(12) 0.44661(14)
N2_3 N 0.24168(17) 0.91920(12) 0.39415(14)
N3_3 N 0.25692(17) 0.98867(12) 0.52330(14)
C1_3 C 0.18507(21) 0.92323(14) 0.52293(17)
C2_3 C 0.12645(23) 0.90245(16) 0.60059(19)
H1_3 H 0.1494 0.8959 0.6594
H2_3 H 0.0791 0.8513 0.5859
C3_3 C 0.1018(3) 0.9635(2) 0.6163(3)
H3_3 H 0.0635 0.9464 0.6678
H4_3 H 0.0777 0.9694 0.5588
C4_3 C 0.28974(20) 0.98336(14) 0.44225(17)
H9_3 H 0.4319 0.9991 0.4847
Cu2_3 Cu 0.082003(25) 0.784257(17) 0.39576(2)
N4_3 N 0.16023(17) 0.78666(12) 0.22006(14)
N5_3 N 0.34466(21) 0.93492(12) 0.18997(14)
N1_4 N 0.78666(12) 0.62642(12) 0.77994(14)
N2_4 N 0.74747(12) 0.65581(12) 0.72748(14)
N3_4 N 0.67800(12) 0.60158(12) 0.85663(14)
C1_4 C 0.74344(14) 0.59517(15) 0.85626(17)
C2_4 C 0.76422(16) 0.55733(17) 0.93392(19)
H1_4 H 0.7708 0.5868 0.9927
H2_4 H 0.8154 0.5611 0.9192
C3_4 C 0.7032(2) 0.4716(2) 0.9496(3)
H4_4 H 0.6973 0.4416 0.8921
H5_4 H 0.6527 0.4674 0.9657
C4_4 C 0.68331(14) 0.63971(14) 0.77558(17)
C5_4 C 0.62408(16) 0.66129(17) 0.74478(19)
H6_4 H 0.5722 0.6127 0.7387
H7_4 H 0.6391 0.6863 0.6821
C6_4 C 0.6167(2) 0.7174(2) 0.8127(3)
H8_4 H 0.5771 0.7297 0.7893
H9_4 H 0.6676 0.7661 0.8180
H10_4 H 0.6007 0.6925 0.8746
Cu2_4 Cu 0.882410(17) 0.631080(18) 0.72909(2)
Cu3_4 Cu 0.584663(25) 0.549077(17) 0.93758(2)
N4_4 N 0.88001(12) 0.70691(12) 0.55339(14)
N1_5 N 0.37358(12) 0.16023(17) 0.77994(14)
N2_5 N 0.34419(12) 0.09165(17) 0.72748(14)
N3_5 N 0.39842(12) 0.07641(17) 0.85663(14)
C1_5 C 0.40483(15) 0.14826(21) 0.85626(17)
C2_5 C 0.44267(17) 0.20688(23) 0.93392(19)
H1_5 H 0.4132 0.1839 0.9927
H2_5 H 0.4389 0.2542 0.9192
C3_5 C 0.5284(2) 0.2315(3) 0.9496(3)
H4_5 H 0.5584 0.2556 0.8921
H5_5 H 0.5326 0.1852 0.9657
C4_5 C 0.36029(14) 0.04359(20) 0.77558(17)
Cu2_5 Cu 0.368920(18) 0.251330(25) 0.72909(2)
Cu3_5 Cu 0.450923(17) 0.035587(30) 0.93758(2)
N4_5 N 0.29309(12) 0.17310(17) 0.55339(14)
C5_5 C 0.33871(17) 0.96278(23) 0.74478(19)
H6_5 H 0.3873 0.9594 0.7387
H7_5 H 0.3137 0.9527 0.6821
C6_5 C 0.2826(2) 0.8992(3) 0.8127(3)
H8_5 H 0.2703 0.8473 0.7893
H9_5 H 0.2339 0.9014 0.8180
H10_5 H 0.3075 0.9081 0.8746
C5_6 C 0.03722(23) 0.37592(16) 0.74478(19)
H6_6 H 0.0406 0.4278 0.7387
H7_6 H 0.0473 0.3609 0.6821
C6_6 C 0.1008(3) 0.3833(2) 0.8127(3)
H8_6 H 0.1527 0.4229 0.7893
H9_6 H 0.0986 0.3324 0.8180
H10_6 H 0.0919 0.3993 0.8746
N1_6 N 0.83977(17) 0.21334(12) 0.77994(14)
N2_6 N 0.90835(17) 0.25253(12) 0.72748(14)
N3_6 N 0.92359(17) 0.32200(12) 0.85663(14)
C1_6 C 0.85174(21) 0.25656(14) 0.85626(17)
C2_6 C 0.79312(23) 0.23578(16) 0.93392(19)
H1_6 H 0.8161 0.2292 0.9927
H2_6 H 0.7458 0.1846 0.9192
C3_6 C 0.7685(3) 0.2968(2) 0.9496(3)
H4_6 H 0.7444 0.3027 0.8921
H5_6 H 0.8148 0.3473 0.9657
C4_6 C 0.95641(20) 0.31669(14) 0.77558(17)
Cu2_6 Cu 0.748670(25) 0.117590(17) 0.72909(2)
Cu3_6 Cu 0.964413(30) 0.415337(25) 0.93758(2)
N4_6 N 0.82690(17) 0.11999(12) 0.55339(14)
N4_7 N 0.54668(12) 0.04024(12) 0.88672(14)
N1_7 N 0.45332(12) 0.95976(12) 0.11328(14)
N2_7 N 0.41413(12) 0.98915(12) 0.06082(14)
C1_7 C 0.41010(14) 0.92851(15) 0.18960(17)
C2_7 C 0.43088(16) 0.89067(17) 0.26726(19)
H1_7 H 0.4374 0.9202 0.3261
H2_7 H 0.4820 0.8945 0.2526
C3_7 C 0.3698(2) 0.8050(2) 0.2830(3)
H3_4 H 0.3869 0.7838 0.3345
H4_7 H 0.3639 0.7750 0.2255
H5_7 H 0.3193 0.8008 0.2991
C4_7 C 0.34997(14) 0.97305(14) 0.10892(17)
C5_7 C 0.29074(16) 0.99463(17) 0.07812(19)
H6_7 H 0.2388 0.9461 0.0721
Cu2_7 Cu 0.549077(17) 0.964413(18) 0.06242(2)
N1_8 N 0.04024(12) 0.49357(17) 0.11328(14)
N2_8 N 0.01085(12) 0.42499(17) 0.06082(14)
C1_8 C 0.07149(15) 0.48160(21) 0.18960(17)
C2_8 C 0.10933(17) 0.54022(23) 0.26726(19)
H1_8 H 0.0798 0.5173 0.3261
H2_8 H 0.1055 0.5876 0.2526
C3_8 C 0.1950(2) 0.5649(3) 0.2830(3)
H3_5 H 0.2162 0.6032 0.3345
H4_8 H 0.2250 0.5890 0.2255
H5_8 H 0.1992 0.5186 0.2991
C4_8 C 0.02695(14) 0.37693(20) 0.10892(17)
C5_8 C 0.00537(17) 0.29612(23) 0.07812(19)
H6_8 H 0.0539 0.2928 0.0721
Cu2_8 Cu 0.035587(18) 0.584663(25) 0.06242(2)
N4_8 N 0.95976(12) 0.50643(17) 0.88672(14)
N1_9 N 0.50643(17) 0.54668(12) 0.11328(14)
N2_9 N 0.57501(17) 0.58587(12) 0.06082(14)
C1_9 C 0.51840(21) 0.58990(14) 0.18960(17)
C2_9 C 0.45978(23) 0.56912(16) 0.26726(19)
H1_9 H 0.4827 0.5626 0.3261
H2_9 H 0.4124 0.5180 0.2526
C3_9 C 0.4351(3) 0.6302(2) 0.2830(3)
H3_6 H 0.3968 0.6131 0.3345
H4_9 H 0.4110 0.6361 0.2255
H5_9 H 0.4814 0.6807 0.2991
C4_9 C 0.62307(20) 0.65003(14) 0.10892(17)
C5_9 C 0.70388(23) 0.70926(16) 0.07812(19)
H6_9 H 0.7072 0.7612 0.0721
H7_7 H 0.7139 0.6943 0.0155
C6_7 C 0.7674(3) 0.7167(2) 0.1461(3)
H8_7 H 0.8193 0.7563 0.1227
H9_7 H 0.7652 0.6658 0.1514
H10_7 H 0.7585 0.7327 0.2080
Cu2_9 Cu 0.415337(25) 0.450923(17) 0.06242(2)
N4_9 N 0.49357(17) 0.45332(12) 0.88672(14)
H5_10 H 0.0140 0.8659 0.3676
C5_10 C 0.04259(16) 0.67204(17) 0.58855(19)
H6_10 H 0.0945 0.7206 0.5946
H7_8 H 0.0276 0.6470 0.6512
C6_8 C 0.0500(2) 0.6159(2) 0.5206(3)
H8_8 H 0.0896 0.6036 0.5440
H10_8 H 0.0660 0.6408 0.4587
N2_10 N 0.91920(12) 0.67752(12) 0.60585(14)
N3_7 N 0.98867(12) 0.73175(12) 0.47670(14)
C1_10 C 0.92323(14) 0.73816(15) 0.47707(17)
C2_10 C 0.90245(16) 0.77600(17) 0.39941(19)
H1_10 H 0.8959 0.7465 0.3406
H2_10 H 0.8513 0.7722 0.4141
C3_10 C 0.9635(2) 0.8617(2) 0.3837(3)
H3_7 H 0.9464 0.8829 0.3322
H4_10 H 0.9694 0.8917 0.4412
C4_10 C 0.98336(14) 0.69362(14) 0.55775(17)
H9_8 H 0.9991 0.5672 0.5153
N5_4 N 0.93492(12) 0.59025(17) 0.81003(14)
N2_11 N 0.32248(12) 0.24168(17) 0.60585(14)
N3_8 N 0.26825(12) 0.25692(17) 0.47670(14)
C1_11 C 0.26184(15) 0.18507(21) 0.47707(17)
C2_11 C 0.22400(17) 0.12645(23) 0.39941(19)
H1_11 H 0.2535 0.1494 0.3406
H2_11 H 0.2278 0.0791 0.4141
C3_11 C 0.1383(2) 0.1018(3) 0.3837(3)
H3_8 H 0.1171 0.0635 0.3322
H4_11 H 0.1083 0.0777 0.4412
H5_11 H 0.1341 0.1481 0.3676
C4_11 C 0.30638(14) 0.28974(20) 0.55775(17)
C5_11 C 0.32796(17) 0.37055(23) 0.58855(19)
H6_11 H 0.2794 0.3739 0.5946
H7_9 H 0.3530 0.3806 0.6512
C6_9 C 0.3841(2) 0.4341(3) 0.5206(3)
H8_9 H 0.3964 0.4860 0.5440
H9_9 H 0.4328 0.4319 0.5153
H10_9 H 0.3592 0.4252 0.4587
N5_5 N 0.40975(17) 0.34466(21) 0.81003(14)
N2_12 N 0.75832(17) 0.08080(12) 0.60585(14)
N3_9 N 0.74308(17) 0.01133(12) 0.47670(14)
C1_12 C 0.81493(21) 0.07677(14) 0.47707(17)
C2_12 C 0.87355(23) 0.09755(16) 0.39941(19)
H1_12 H 0.8506 0.1041 0.3406
H2_12 H 0.9209 0.1487 0.4141
C3_12 C 0.8982(3) 0.0365(2) 0.3837(3)
H3_9 H 0.9365 0.0536 0.3322
H4_12 H 0.9223 0.0306 0.4412
C4_12 C 0.71026(20) 0.01664(14) 0.55775(17)
H9_10 H 0.5681 0.0009 0.5153
N5_6 N 0.65534(21) 0.06508(12) 0.81003(14)
H5_12 H 0.8519 0.9860 0.3676
C5_12 C 0.62945(23) 0.95741(16) 0.58855(19)
H6_12 H 0.6261 0.9055 0.5946
H7_10 H 0.6194 0.9724 0.6512
C6_10 C 0.5659(3) 0.9500(2) 0.5206(3)
H8_10 H 0.5140 0.9104 0.5440
H10_10 H 0.5748 0.9340 0.4587
N2_13 N 0.25253(12) 0.34419(12) 0.27252(14)
N3_10 N 0.32200(12) 0.39842(12) 0.14337(14)
C1_13 C 0.25656(14) 0.40483(15) 0.14374(17)
C2_13 C 0.23578(16) 0.44267(17) 0.06608(19)
H1_13 H 0.2292 0.4132 0.0073
H2_13 H 0.1846 0.4389 0.0808
C3_13 C 0.2968(2) 0.5284(2) 0.0504(3)
H4_13 H 0.3027 0.5584 0.1079
H5_13 H 0.3473 0.5326 0.0343
C4_13 C 0.31669(14) 0.36029(14) 0.22442(17)
C5_13 C 0.37592(16) 0.33871(17) 0.25522(19)
H6_13 H 0.4278 0.3873 0.2613
H7_11 H 0.3609 0.3137 0.3179
C6_11 C 0.3833(2) 0.2826(2) 0.1873(3)
H8_11 H 0.4229 0.2703 0.2107
H9_11 H 0.3324 0.2339 0.1820
H10_11 H 0.3993 0.3075 0.1254
C5_14 C 0.66129(17) 0.03722(23) 0.25522(19)
H6_14 H 0.6127 0.0406 0.2613
H7_12 H 0.6863 0.0473 0.3179
C6_12 C 0.7174(2) 0.1008(3) 0.1873(3)
H8_12 H 0.7297 0.1527 0.2107
H9_12 H 0.7661 0.0986 0.1820
H10_12 H 0.6925 0.0919 0.1254
N2_14 N 0.65581(12) 0.90835(17) 0.27252(14)
N3_11 N 0.60158(12) 0.92359(17) 0.14337(14)
C1_14 C 0.59517(15) 0.85174(21) 0.14374(17)
C2_14 C 0.55733(17) 0.79312(23) 0.06608(19)
H1_14 H 0.5868 0.8161 0.0073
H2_14 H 0.5611 0.7458 0.0808
C3_14 C 0.4716(2) 0.7685(3) 0.0504(3)
H4_14 H 0.4416 0.7444 0.1079
H5_14 H 0.4674 0.8148 0.0343
C4_14 C 0.63971(14) 0.95641(20) 0.22442(17)
N2_15 N 0.09165(17) 0.74747(12) 0.27252(14)
N3_12 N 0.07641(17) 0.67800(12) 0.14337(14)
C1_15 C 0.14826(21) 0.74344(14) 0.14374(17)
C2_15 C 0.20688(23) 0.76422(16) 0.06608(19)
H1_15 H 0.1839 0.7708 0.0073
H2_15 H 0.2542 0.8154 0.0808
C3_15 C 0.2315(3) 0.7032(2) 0.0504(3)
H4_15 H 0.2556 0.6973 0.1079
H5_15 H 0.1852 0.6527 0.0343
C4_15 C 0.04359(20) 0.68331(14) 0.22442(17)
C5_15 C 0.96278(23) 0.62408(16) 0.25522(19)
H6_15 H 0.9594 0.5722 0.2613
H7_13 H 0.9527 0.6391 0.3179
C6_13 C 0.8992(3) 0.6167(2) 0.1873(3)
H8_13 H 0.8473 0.5771 0.2107
H9_13 H 0.9014 0.6676 0.1820
H10_13 H 0.9081 0.6007 0.1254
N2_16 N 0.58587(12) 0.01085(12) 0.93918(14)
C1_16 C 0.58990(14) 0.07149(15) 0.81040(17)
C2_16 C 0.56912(16) 0.10933(17) 0.73274(19)
H1_16 H 0.5626 0.0798 0.6739
H2_16 H 0.5180 0.1055 0.7474
C3_16 C 0.6302(2) 0.1950(2) 0.7170(3)
H3_10 H 0.6131 0.2162 0.6655
H4_16 H 0.6361 0.2250 0.7745
H5_16 H 0.6807 0.1992 0.7009
C4_16 C 0.65003(14) 0.02695(14) 0.89108(17)
C5_16 C 0.70926(16) 0.00537(17) 0.92188(19)
H6_16 H 0.7612 0.0539 0.9279
N2_17 N 0.98915(12) 0.57501(17) 0.93918(14)
C1_17 C 0.92851(15) 0.51840(21) 0.81040(17)
C2_17 C 0.89067(17) 0.45978(23) 0.73274(19)
H1_17 H 0.9202 0.4827 0.6739
H2_17 H 0.8945 0.4124 0.7474
C3_17 C 0.8050(2) 0.4351(3) 0.7170(3)
H3_11 H 0.7838 0.3968 0.6655
H4_17 H 0.7750 0.4110 0.7745
H5_17 H 0.8008 0.4814 0.7009
C4_17 C 0.97305(14) 0.62307(20) 0.89108(17)
C5_17 C 0.99463(17) 0.70388(23) 0.92188(19)
H6_17 H 0.9461 0.7072 0.9279
N2_18 N 0.42499(17) 0.41413(12) 0.93918(14)
C1_18 C 0.48160(21) 0.41010(14) 0.81040(17)
C2_18 C 0.54022(23) 0.43088(16) 0.73274(19)
H1_18 H 0.5173 0.4374 0.6739
H2_18 H 0.5876 0.4820 0.7474
C3_18 C 0.5649(3) 0.3698(2) 0.7170(3)
H3_12 H 0.6032 0.3869 0.6655
H4_18 H 0.5890 0.3639 0.7745
H5_18 H 0.5186 0.3193 0.7009
C4_18 C 0.37693(20) 0.34997(14) 0.89108(17)
C5_18 C 0.29612(23) 0.29074(16) 0.92188(19)
H6_18 H 0.2928 0.2388 0.9279
H7_14 H 0.2861 0.3057 0.9845
C6_14 C 0.2326(3) 0.2833(2) 0.8539(3)
H8_14 H 0.1807 0.2437 0.8773
H9_14 H 0.2348 0.3342 0.8486
H10_14 H 0.2415 0.2673 0.7920
H3_13 H 0.7203 0.4504 0.0011
H3_14 H 0.5496 0.2698 0.0011
H3_15 H 0.7302 0.2797 0.0011
H7_15 H 0.3057 0.0197 0.0155
C6_15 C 0.2833(2) 0.0508(2) 0.1461(3)
H8_15 H 0.2437 0.0631 0.1227
H9_15 H 0.3342 0.0995 0.1514
H10_15 H 0.2673 0.0259 0.2080
H7_16 H 0.9803 0.2861 0.0155
C6_16 C 0.9492(2) 0.2326(3) 0.1461(3)
H8_16 H 0.9369 0.1807 0.1227
H9_16 H 0.9005 0.2348 0.1514
H10_16 H 0.9741 0.2415 0.2080
H3_16 H 0.2797 0.5496 0.9989
H3_17 H 0.4504 0.7302 0.9989
H3_18 H 0.2698 0.7203 0.9989
H7_17 H 0.6943 0.9803 0.9845
C6_17 C 0.7167(2) 0.9492(2) 0.8539(3)
H8_17 H 0.7563 0.9369 0.8773
H9_17 H 0.6658 0.9005 0.8486
H10_17 H 0.7327 0.9741 0.7920
H7_18 H 0.0197 0.7139 0.9845
C6_18 C 0.0508(2) 0.7674(3) 0.8539(3)
H8_18 H 0.0631 0.8193 0.8773
H9_18 H 0.0995 0.7652 0.8486
H10_18 H 0.0259 0.7585 0.7920
loop_
_geom_bond_atom_site_label_1
_geom_bond_atom_site_label_2
_geom_bond_site_symmetry_1
_geom_bond_site_symmetry_2
Cu1 N2 1_555 1_555
N1 N2 1_555 1_555
N2 C4 1_555 1_555
N3 C1 1_555 1_555
C1 N1 1_555 1_555
C2 C1 1_555 1_555
H1 C2 1_555 1_555
H2 C2 1_555 1_555
C3 C2 1_555 1_555
H3 C3 1_555 1_555
H4 C3 1_555 1_555
C4 N3 1_555 1_555
Cu2 N1 1_555 1_555
N4 Cu1 1_555 1_555
N5 Cu1 1_555 1_555
H6 C5 1_555 1_555
H7 C5 1_555 1_555
C6 C5 1_555 1_555
H8 C6 1_555 1_555
H10 C6 1_555 1_555
Cu1_2 N2_2 1_555 1_555
N1_2 N2_2 1_555 1_555
N2_2 C4_2 1_555 1_555
N3_2 C1_2 1_555 1_555
C1_2 N1_2 1_555 1_555
C2_2 C1_2 1_555 1_555
H1_2 C2_2 1_555 1_555
H2_2 C2_2 1_555 1_555
C3_2 C2_2 1_555 1_555
H3_2 C3_2 1_555 1_555
H4_2 C3_2 1_555 1_555
H5_2 C3_2 1_555 1_555
C4_2 N3_2 1_555 1_555
C5_2 C4_2 1_555 1_555
H6_2 C5_2 1_555 1_555
H7_2 C5_2 1_555 1_555
C6_2 C5_2 1_555 1_555
H8_2 C6_2 1_555 1_555
H9_2 C6_2 1_555 1_555
H10_2 C6_2 1_555 1_555
Cu2_2 N1_2 1_555 1_555
Cu3_2 N3_2 1_555 1_555
N4_2 Cu1_2 1_555 1_555
N5_2 Cu1_2 1_555 1_555
H6_3 C5_3 1_555 1_555
H7_3 C5_3 1_555 1_555
C6_3 C5_3 1_555 1_555
H8_3 C6_3 1_555 1_555
H10_3 C6_3 1_555 1_555
Cu1_3 N2_3 1_555 1_555
N1_3 N2_3 1_555 1_555
N2_3 C4_3 1_555 1_555
N3_3 C1_3 1_555 1_555
C1_3 N1_3 1_555 1_555
C2_3 C1_3 1_555 1_555
H1_3 C2_3 1_555 1_555
H2_3 C2_3 1_555 1_555
C3_3 C2_3 1_555 1_555
H3_3 C3_3 1_555 1_555
H4_3 C3_3 1_555 1_555
C4_3 N3_3 1_555 1_555
Cu2_3 N1_3 1_555 1_555
N4_3 Cu1_3 1_555 1_555
N5_3 Cu1_3 1_555 1_555
Cu3_2 N2_4 1_555 1_555
N1_4 N2_4 1_555 1_555
N2_4 C4_4 1_555 1_555
N3_4 C1_4 1_555 1_555
C1_4 N1_4 1_555 1_555
C2_4 C1_4 1_555 1_555
H1_4 C2_4 1_555 1_555
H2_4 C2_4 1_555 1_555
C3_4 C2_4 1_555 1_555
H4_4 C3_4 1_555 1_555
H5_4 C3_4 1_555 1_555
C4_4 N3_4 1_555 1_555
C5_4 C4_4 1_555 1_555
H6_4 C5_4 1_555 1_555
H7_4 C5_4 1_555 1_555
C6_4 C5_4 1_555 1_555
H8_4 C6_4 1_555 1_555
H9_4 C6_4 1_555 1_555
H10_4 C6_4 1_555 1_555
Cu2_4 N1_4 1_555 1_555
Cu3_4 N3_4 1_555 1_555
N4_4 Cu3_2 1_555 1_555
Cu3_3 N2_5 1_555 1_555
N1_5 N2_5 1_555 1_555
N2_5 C4_5 1_555 1_555
N3_5 C1_5 1_555 1_555
C1_5 N1_5 1_555 1_555
C2_5 C1_5 1_555 1_555
H1_5 C2_5 1_555 1_555
H2_5 C2_5 1_555 1_555
C3_5 C2_5 1_555 1_555
H4_5 C3_5 1_555 1_555
H5_5 C3_5 1_555 1_555
C4_5 N3_5 1_555 1_555
Cu2_5 N1_5 1_555 1_555
Cu3_5 N3_5 1_555 1_555
N4_5 Cu3_3 1_555 1_555
H6_5 C5_5 1_555 1_555
H7_5 C5_5 1_555 1_555
C6_5 C5_5 1_555 1_555
H8_5 C6_5 1_555 1_555
H9_5 C6_5 1_555 1_555
H10_5 C6_5 1_555 1_555
H6_6 C5_6 1_555 1_555
H7_6 C5_6 1_555 1_555
C6_6 C5_6 1_555 1_555
H8_6 C6_6 1_555 1_555
H9_6 C6_6 1_555 1_555
H10_6 C6_6 1_555 1_555
Cu3 N2_6 1_555 1_555
N1_6 N2_6 1_555 1_555
N2_6 C4_6 1_555 1_555
N3_6 C1_6 1_555 1_555
C1_6 N1_6 1_555 1_555
C2_6 C1_6 1_555 1_555
H1_6 C2_6 1_555 1_555
H2_6 C2_6 1_555 1_555
C3_6 C2_6 1_555 1_555
H4_6 C3_6 1_555 1_555
H5_6 C3_6 1_555 1_555
C4_6 N3_6 1_555 1_555
Cu2_6 N1_6 1_555 1_555
Cu3_6 N3_6 1_555 1_555
N4_6 Cu3 1_555 1_555
N4_7 Cu3_5 1_555 1_555
N1_7 N2_7 1_555 1_555
N2_7 C4_7 1_555 1_555
N5_3 C1_7 1_555 1_555
C1_7 N1_7 1_555 1_555
C2_7 C1_7 1_555 1_555
H1_7 C2_7 1_555 1_555
H2_7 C2_7 1_555 1_555
C3_7 C2_7 1_555 1_555
H3_4 C3_7 1_555 1_555
H4_7 C3_7 1_555 1_555
H5_7 C3_7 1_555 1_555
C4_7 N5_3 1_555 1_555
C5_7 C4_7 1_555 1_555
H6_7 C5_7 1_555 1_555
Cu2_7 N1_7 1_555 1_555
N1_8 N2_8 1_555 1_555
N2_8 C4_8 1_555 1_555
N5 C1_8 1_555 1_555
C1_8 N1_8 1_555 1_555
C2_8 C1_8 1_555 1_555
H1_8 C2_8 1_555 1_555
H2_8 C2_8 1_555 1_555
C3_8 C2_8 1_555 1_555
H3_5 C3_8 1_555 1_555
H4_8 C3_8 1_555 1_555
H5_8 C3_8 1_555 1_555
C4_8 N5 1_555 1_555
C5_8 C4_8 1_555 1_555
H6_8 C5_8 1_555 1_555
Cu2_8 N1_8 1_555 1_555
N4_8 Cu3_6 1_555 1_555
N1_9 N2_9 1_555 1_555
N2_9 C4_9 1_555 1_555
N5_2 C1_9 1_555 1_555
C1_9 N1_9 1_555 1_555
C2_9 C1_9 1_555 1_555
H1_9 C2_9 1_555 1_555
H2_9 C2_9 1_555 1_555
C3_9 C2_9 1_555 1_555
H3_6 C3_9 1_555 1_555
H4_9 C3_9 1_555 1_555
H5_9 C3_9 1_555 1_555
C4_9 N5_2 1_555 1_555
C5_9 C4_9 1_555 1_555
H6_9 C5_9 1_555 1_555
H7_7 C5_9 1_555 1_555
C6_7 C5_9 1_555 1_555
H8_7 C6_7 1_555 1_555
H9_7 C6_7 1_555 1_555
H10_7 C6_7 1_555 1_555
Cu2_9 N1_9 1_555 1_555
N4_9 Cu3_4 1_555 1_555
H6_10 C5_10 1_555 1_555
H7_8 C5_10 1_555 1_555
C6_8 C5_10 1_555 1_555
H8_8 C6_8 1_555 1_555
H10_8 C6_8 1_555 1_555
Cu2_4 N2_10 1_555 1_555
N4_4 N2_10 1_555 1_555
N2_10 C4_10 1_555 1_555
N3_7 C1_10 1_555 1_555
C1_10 N4_4 1_555 1_555
C2_10 C1_10 1_555 1_555
H1_10 C2_10 1_555 1_555
H2_10 C2_10 1_555 1_555
C3_10 C2_10 1_555 1_555
H3_7 C3_10 1_555 1_555
H4_10 C3_10 1_555 1_555
C4_10 N3_7 1_555 1_555
N5_4 Cu2_4 1_555 1_555
Cu2_5 N2_11 1_555 1_555
N4_5 N2_11 1_555 1_555
N2_11 C4_11 1_555 1_555
N3_8 C1_11 1_555 1_555
C1_11 N4_5 1_555 1_555
C2_11 C1_11 1_555 1_555
H1_11 C2_11 1_555 1_555
H2_11 C2_11 1_555 1_555
C3_11 C2_11 1_555 1_555
H3_8 C3_11 1_555 1_555
H4_11 C3_11 1_555 1_555
H5_11 C3_11 1_555 1_555
C4_11 N3_8 1_555 1_555
C5_11 C4_11 1_555 1_555
H6_11 C5_11 1_555 1_555
H7_9 C5_11 1_555 1_555
C6_9 C5_11 1_555 1_555
H8_9 C6_9 1_555 1_555
H9_9 C6_9 1_555 1_555
H10_9 C6_9 1_555 1_555
Cu2 N3_8 1_555 1_555
N5_5 Cu2_5 1_555 1_555
Cu2_6 N2_12 1_555 1_555
N4_6 N2_12 1_555 1_555
N2_12 C4_12 1_555 1_555
N3_9 C1_12 1_555 1_555
C1_12 N4_6 1_555 1_555
C2_12 C1_12 1_555 1_555
H1_12 C2_12 1_555 1_555
H2_12 C2_12 1_555 1_555
C3_12 C2_12 1_555 1_555
H3_9 C3_12 1_555 1_555
H4_12 C3_12 1_555 1_555
C4_12 N3_9 1_555 1_555
N5_6 Cu2_6 1_555 1_555
H6_12 C5_12 1_555 1_555
H7_10 C5_12 1_555 1_555
C6_10 C5_12 1_555 1_555
H8_10 C6_10 1_555 1_555
H10_10 C6_10 1_555 1_555
Cu2 N2_13 1_555 1_555
N4 N2_13 1_555 1_555
N2_13 C4_13 1_555 1_555
N3_10 C1_13 1_555 1_555
C1_13 N4 1_555 1_555
C2_13 C1_13 1_555 1_555
H1_13 C2_13 1_555 1_555
H2_13 C2_13 1_555 1_555
C3_13 C2_13 1_555 1_555
H4_13 C3_13 1_555 1_555
H5_13 C3_13 1_555 1_555
C4_13 N3_10 1_555 1_555
C5_13 C4_13 1_555 1_555
H6_13 C5_13 1_555 1_555
H7_11 C5_13 1_555 1_555
C6_11 C5_13 1_555 1_555
H8_11 C6_11 1_555 1_555
H9_11 C6_11 1_555 1_555
H10_11 C6_11 1_555 1_555
Cu2_9 N3_10 1_555 1_555
H6_14 C5_14 1_555 1_555
H7_12 C5_14 1_555 1_555
C6_12 C5_14 1_555 1_555
H8_12 C6_12 1_555 1_555
H9_12 C6_12 1_555 1_555
H10_12 C6_12 1_555 1_555
Cu2_2 N2_14 1_555 1_555
N4_2 N2_14 1_555 1_555
N2_14 C4_14 1_555 1_555
N3_11 C1_14 1_555 1_555
C1_14 N4_2 1_555 1_555
C2_14 C1_14 1_555 1_555
H1_14 C2_14 1_555 1_555
H2_14 C2_14 1_555 1_555
C3_14 C2_14 1_555 1_555
H4_14 C3_14 1_555 1_555
H5_14 C3_14 1_555 1_555
C4_14 N3_11 1_555 1_555
Cu2_7 N3_11 1_555 1_555
Cu2_3 N2_15 1_555 1_555
N4_3 N2_15 1_555 1_555
N2_15 C4_15 1_555 1_555
N3_12 C1_15 1_555 1_555
C1_15 N4_3 1_555 1_555
C2_15 C1_15 1_555 1_555
H1_15 C2_15 1_555 1_555
H2_15 C2_15 1_555 1_555
C3_15 C2_15 1_555 1_555
H4_15 C3_15 1_555 1_555
H5_15 C3_15 1_555 1_555
C4_15 N3_12 1_555 1_555
Cu2_8 N3_12 1_555 1_555
H6_15 C5_15 1_555 1_555
H7_13 C5_15 1_555 1_555
C6_13 C5_15 1_555 1_555
H8_13 C6_13 1_555 1_555
H9_13 C6_13 1_555 1_555
H10_13 C6_13 1_555 1_555
N4_7 N2_16 1_555 1_555
N2_16 C4_16 1_555 1_555
N5_6 C1_16 1_555 1_555
C1_16 N4_7 1_555 1_555
C2_16 C1_16 1_555 1_555
H1_16 C2_16 1_555 1_555
H2_16 C2_16 1_555 1_555
C3_16 C2_16 1_555 1_555
H3_10 C3_16 1_555 1_555
H4_16 C3_16 1_555 1_555
H5_16 C3_16 1_555 1_555
C4_16 N5_6 1_555 1_555
C5_16 C4_16 1_555 1_555
H6_16 C5_16 1_555 1_555
N4_8 N2_17 1_555 1_555
N2_17 C4_17 1_555 1_555
N5_4 C1_17 1_555 1_555
C1_17 N4_8 1_555 1_555
C2_17 C1_17 1_555 1_555
H1_17 C2_17 1_555 1_555
H2_17 C2_17 1_555 1_555
C3_17 C2_17 1_555 1_555
H3_11 C3_17 1_555 1_555
H4_17 C3_17 1_555 1_555
H5_17 C3_17 1_555 1_555
C4_17 N5_4 1_555 1_555
C5_17 C4_17 1_555 1_555
H6_17 C5_17 1_555 1_555
N4_9 N2_18 1_555 1_555
N2_18 C4_18 1_555 1_555
N5_5 C1_18 1_555 1_555
C1_18 N4_9 1_555 1_555
C2_18 C1_18 1_555 1_555
H1_18 C2_18 1_555 1_555
H2_18 C2_18 1_555 1_555
C3_18 C2_18 1_555 1_555
H3_12 C3_18 1_555 1_555
H4_18 C3_18 1_555 1_555
H5_18 C3_18 1_555 1_555
C4_18 N5_5 1_555 1_555
C5_18 C4_18 1_555 1_555
H6_18 C5_18 1_555 1_555
H7_14 C5_18 1_555 1_555
C6_14 C5_18 1_555 1_555
H8_14 C6_14 1_555 1_555
H9_14 C6_14 1_555 1_555
H10_14 C6_14 1_555 1_555
H8_15 C6_15 1_555 1_555
H9_15 C6_15 1_555 1_555
H10_15 C6_15 1_555 1_555
H8_16 C6_16 1_555 1_555
H9_16 C6_16 1_555 1_555
H10_16 C6_16 1_555 1_555
H8_17 C6_17 1_555 1_555
H9_17 C6_17 1_555 1_555
H10_17 C6_17 1_555 1_555
H8_18 C6_18 1_555 1_555
H9_18 C6_18 1_555 1_555
H10_18 C6_18 1_555 1_555

#END
