
###############################################################################
#
# This file contains modified crystal structure data generated from the
# MOF subset of the Cambridge Structural Database (CSD) v543 
# hosted by the Cambridge Crystallographic Data Centre (CCDC).
#
# This work is licensed under the Creative Commons
# Attribution-NonCommercial-ShareAlike 4.0 International License.
# To view a copy of this license, visit
# http://creativecommons.org/licenses/by-nc-sa/4.0/
# or send a letter to
# Creative Commons, PO Box 1866, Mountain View, CA 94042, USA.
#
# CIF created using the CSD Python API on 29 September 2022
# The structure has been converted into the P1 space group
# The structure has a 3D framework
# The original CSD entry BOBTOC is in the triclinic crystal system
# The framework has been calculated to contain at least 10.0% void space
# The void calculation uses a probe of radius 1.32A, grid spacing 0.4
#
###############################################################################

data_BOBTOC
_chemical_formula_moiety         '(C36 H60 Cu6 N18)n'
_symmetry_cell_setting           triclinic
_symmetry_space_group_name_H-M   'P 1'
_symmetry_Int_Tables_number      1
_space_group_name_Hall           'P 1'
loop_
_symmetry_equiv_pos_site_id
_symmetry_equiv_pos_as_xyz
1 x,y,z
_cell_length_a                   11.949(2)
_cell_length_b                   12.263(4)
_cell_length_c                   13.213(4)
_cell_angle_alpha                108.677(2)
_cell_angle_beta                 108.3480(10)
_cell_angle_gamma                104.458(3)
_cell_volume                     1603.22
loop_
_atom_site_label
_atom_site_type_symbol
_atom_site_fract_x
_atom_site_fract_y
_atom_site_fract_z
Cu1 Cu 0.38302(4) 0.39643(4) 0.00933(4)
N1 N 0.1039(3) 0.1601(2) 0.0514(2)
N3 N 0.2539(3) 0.2653(2) 0.0137(2)
C1 C 0.1836(3) 0.2735(3) 0.0757(3)
C2 C 0.1912(4) 0.3931(3) 0.1588(3)
H1 H 0.2780 0.4375 0.2252
H2 H 0.1291 0.3747 0.1920
C3 C 0.1637(5) 0.4780(3) 0.1008(4)
H3 H 0.1705 0.5553 0.1596
H4 H 0.0770 0.4355 0.0364
H5 H 0.2258 0.4978 0.0689
N12 N 0.5582(3) 0.4781(2) 0.1331(2)
N2 N 0.1263(3) 0.0744(2) 0.9700(3)
C4 C 0.2161(3) 0.1413(3) 0.9499(3)
C5 C 0.2729(3) 0.0871(3) 0.8710(3)
H6 H 0.2699 0.1260 0.8156
C6 C 0.4110(4) 0.1071(4) 0.9400(4)
H8 H 0.4443 0.0698 0.8848
H9 H 0.4143 0.0675 0.9941
H10 H 0.4633 0.1969 0.9857
N13 N 0.3454(3) 0.4397(3) 0.8752(2)
H18 H 0.2645 0.7183 0.0180
Cu2 Cu 0.02222(4) 0.89551(4) 0.89124(4)
Cu3 Cu 0.12549(4) 0.48357(4) 0.59376(4)
N5 N 0.0702(3) 0.6215(3) 0.6496(2)
N6 N 0.0283(3) 0.7739(2) 0.7563(2)
N7 N 0.4418(3) 0.5219(2) 0.8669(2)
N9 N 0.2561(3) 0.4712(2) 0.7179(2)
H7 H 0.2209 0.9963 0.8235
C10 C 0.1061(3) 0.7111(3) 0.7565(3)
C11 C 0.2206(4) 0.7406(3) 0.8642(3)
H16 H 0.2762 0.7008 0.8398
H17 H 0.2700 0.8322 0.9057
C12 C 0.1861(4) 0.6964(4) 0.9490(3)
H19 H 0.1324 0.7367 0.9748
H20 H 0.1391 0.6055 0.9092
C13 C 0.3837(3) 0.5384(3) 0.7719(3)
C14 C 0.4500(3) 0.6230(3) 0.7325(3)
H21 H 0.5405 0.6695 0.7914
H22 H 0.4106 0.6848 0.7302
C15 C 0.4458(4) 0.5572(4) 0.6118(3)
H23 H 0.4913 0.6191 0.5914
H24 H 0.3565 0.5125 0.5523
H25 H 0.4869 0.4976 0.6137
C16 C 0.2361(3) 0.4115(3) 0.7855(3)
C17 C 0.1091(3) 0.3263(3) 0.7622(3)
H26 H 0.0514 0.3718 0.7615
H27 H 0.1188 0.3007 0.8273
C18 C 0.0482(4) 0.2100(3) 0.6454(4)
H29 H 0.1041 0.1635 0.6460
H30 H 0.0361 0.2344 0.5802
Cu4 Cu 0.61698(4) 0.60357(4) 0.99067(4)
N11 N 0.0381(3) 0.3728(2) 0.4252(2)
Cu6 Cu 0.97778(4) 0.10449(4) 0.10876(4)
N4 N 0.9619(3) 0.6272(2) 0.5748(2)
C7 C 0.9414(3) 0.7190(3) 0.6415(3)
C8 C 0.8367(3) 0.7596(3) 0.5965(3)
H11 H 0.7892 0.7097 0.5096
H12 H 0.7764 0.7423 0.6317
C9 C 0.8843(4) 0.8981(3) 0.6245(3)
H13 H 0.8112 0.9191 0.5921
H14 H 0.9291 0.9482 0.7104
H15 H 0.9431 0.9158 0.5888
H28 H 0.9650 0.1569 0.6347
Cu7 Cu 0.87451(4) 0.51643(4) 0.40624(4)
N10 N 0.8961(3) 0.8399(2) 0.9486(2)
C7_2 C 0.0586(3) 0.2810(3) 0.3585(3)
C8_2 C 0.1633(3) 0.2404(3) 0.4035(3)
H11_2 H 0.2108 0.2903 0.4904
H12_2 H 0.2236 0.2577 0.3683
C9_2 C 0.1157(4) 0.1019(3) 0.3755(3)
H13_2 H 0.1888 0.0809 0.4079
H14_2 H 0.0709 0.0518 0.2896
H15_2 H 0.0569 0.0842 0.4112
H28_2 H 0.0350 0.8431 0.3653
N5_2 N 0.9298(3) 0.3785(3) 0.3504(2)
N6_2 N 0.9717(3) 0.2261(2) 0.2437(2)
N8 N 0.6546(3) 0.5603(3) 0.1248(2)
N9_2 N 0.7439(3) 0.5288(2) 0.2821(2)
H7_2 H 0.7791 0.0037 0.1765
C10_2 C 0.8939(3) 0.2889(3) 0.2435(3)
C11_2 C 0.7794(4) 0.2594(3) 0.1358(3)
H16_2 H 0.7238 0.2992 0.1602
H17_2 H 0.7300 0.1678 0.0943
C12_2 C 0.8139(4) 0.3036(4) 0.0510(3)
H19_2 H 0.8676 0.2633 0.0252
H20_2 H 0.8609 0.3945 0.0908
C13_2 C 0.6163(3) 0.4616(3) 0.2281(3)
C14_2 C 0.5500(3) 0.3770(3) 0.2675(3)
H21_2 H 0.4595 0.3305 0.2086
H22_2 H 0.5894 0.3152 0.2698
C15_2 C 0.5542(4) 0.4428(4) 0.3882(3)
H23_2 H 0.5087 0.3809 0.4086
H24_2 H 0.6435 0.4875 0.4477
H25_2 H 0.5131 0.5024 0.3863
C16_2 C 0.7639(3) 0.5885(3) 0.2145(3)
C17_2 C 0.8909(3) 0.6737(3) 0.2378(3)
H26_2 H 0.9486 0.6282 0.2385
H27_2 H 0.8812 0.6993 0.1727
C18_2 C 0.9518(4) 0.7900(3) 0.3546(4)
H29_2 H 0.8959 0.8365 0.3540
H30_2 H 0.9639 0.7656 0.4198
H18_2 H 0.7355 0.2817 0.9820
N2_2 N 0.8737(3) 0.9256(2) 0.0300(3)
C4_2 C 0.7839(3) 0.8587(3) 0.0501(3)
C5_2 C 0.7271(3) 0.9129(3) 0.1290(3)
H6_2 H 0.7301 0.8740 0.1844
C6_2 C 0.5890(4) 0.8929(4) 0.0600(4)
H8_2 H 0.5557 0.9302 0.1152
H9_2 H 0.5857 0.9325 0.0059
H10_2 H 0.5367 0.8031 0.0143
N3_2 N 0.7461(3) 0.7347(2) 0.9863(2)
C1_2 C 0.8164(3) 0.7265(3) 0.9243(3)
C2_2 C 0.8088(4) 0.6069(3) 0.8412(3)
H1_2 H 0.7220 0.5625 0.7748
H2_2 H 0.8709 0.6253 0.8080
C3_2 C 0.8363(5) 0.5220(3) 0.8992(4)
H3_2 H 0.8295 0.4447 0.8404
H4_2 H 0.9230 0.5645 0.9636
H5_2 H 0.7742 0.5022 0.9311
loop_
_geom_bond_atom_site_label_1
_geom_bond_atom_site_label_2
_geom_bond_site_symmetry_1
_geom_bond_site_symmetry_2
Cu1 N3 1_555 1_555
N3 C1 1_555 1_555
C1 N1 1_555 1_555
C2 C1 1_555 1_555
H1 C2 1_555 1_555
H2 C2 1_555 1_555
C3 C2 1_555 1_555
H3 C3 1_555 1_555
H4 C3 1_555 1_555
H5 C3 1_555 1_555
N12 Cu1 1_555 1_555
N2 C4 1_555 1_555
C5 C4 1_555 1_555
H6 C5 1_555 1_555
C6 C5 1_555 1_555
H8 C6 1_555 1_555
H9 C6 1_555 1_555
H10 C6 1_555 1_555
Cu3 N5 1_555 1_555
N5 C10 1_555 1_555
N6 Cu2 1_555 1_555
N7 N13 1_555 1_555
N13 C16 1_555 1_555
N9 Cu3 1_555 1_555
C10 N6 1_555 1_555
C11 C10 1_555 1_555
H16 C11 1_555 1_555
H17 C11 1_555 1_555
C12 C11 1_555 1_555
H19 C12 1_555 1_555
H20 C12 1_555 1_555
C13 N7 1_555 1_555
C14 C13 1_555 1_555
H21 C14 1_555 1_555
H22 C14 1_555 1_555
C15 C14 1_555 1_555
H23 C15 1_555 1_555
H24 C15 1_555 1_555
H25 C15 1_555 1_555
C16 N9 1_555 1_555
C17 C16 1_555 1_555
H26 C17 1_555 1_555
H27 C17 1_555 1_555
C18 C17 1_555 1_555
H29 C18 1_555 1_555
H30 C18 1_555 1_555
Cu4 N7 1_555 1_555
N11 Cu3 1_555 1_555
N9 C13 1_555 1_555
C7 N4 1_555 1_555
C8 C7 1_555 1_555
H11 C8 1_555 1_555
H12 C8 1_555 1_555
C9 C8 1_555 1_555
H13 C9 1_555 1_555
H14 C9 1_555 1_555
H15 C9 1_555 1_555
Cu7 N4 1_555 1_555
C7_2 N11 1_555 1_555
C8_2 C7_2 1_555 1_555
H11_2 C8_2 1_555 1_555
H12_2 C8_2 1_555 1_555
C9_2 C8_2 1_555 1_555
H13_2 C9_2 1_555 1_555
H14_2 C9_2 1_555 1_555
H15_2 C9_2 1_555 1_555
Cu7 N5_2 1_555 1_555
N5_2 C10_2 1_555 1_555
N6_2 Cu6 1_555 1_555
N12 N8 1_555 1_555
N8 C16_2 1_555 1_555
N9_2 Cu7 1_555 1_555
C10_2 N6_2 1_555 1_555
C11_2 C10_2 1_555 1_555
H16_2 C11_2 1_555 1_555
H17_2 C11_2 1_555 1_555
C12_2 C11_2 1_555 1_555
H19_2 C12_2 1_555 1_555
H20_2 C12_2 1_555 1_555
C13_2 N12 1_555 1_555
C14_2 C13_2 1_555 1_555
H21_2 C14_2 1_555 1_555
H22_2 C14_2 1_555 1_555
C15_2 C14_2 1_555 1_555
H23_2 C15_2 1_555 1_555
H24_2 C15_2 1_555 1_555
H25_2 C15_2 1_555 1_555
C16_2 N9_2 1_555 1_555
C17_2 C16_2 1_555 1_555
H26_2 C17_2 1_555 1_555
H27_2 C17_2 1_555 1_555
C18_2 C17_2 1_555 1_555
H29_2 C18_2 1_555 1_555
H30_2 C18_2 1_555 1_555
N9_2 C13_2 1_555 1_555
N2_2 C4_2 1_555 1_555
C5_2 C4_2 1_555 1_555
H6_2 C5_2 1_555 1_555
C6_2 C5_2 1_555 1_555
H8_2 C6_2 1_555 1_555
H9_2 C6_2 1_555 1_555
H10_2 C6_2 1_555 1_555
Cu4 N3_2 1_555 1_555
N3_2 C1_2 1_555 1_555
C1_2 N10 1_555 1_555
C2_2 C1_2 1_555 1_555
H1_2 C2_2 1_555 1_555
H2_2 C2_2 1_555 1_555
C3_2 C2_2 1_555 1_555
H3_2 C3_2 1_555 1_555
H4_2 C3_2 1_555 1_555
H5_2 C3_2 1_555 1_555

#END
