
###############################################################################
#
# This file contains modified crystal structure data generated from the
# MOF subset of the Cambridge Structural Database (CSD) v543 
# hosted by the Cambridge Crystallographic Data Centre (CCDC).
#
# This work is licensed under the Creative Commons
# Attribution-NonCommercial-ShareAlike 4.0 International License.
# To view a copy of this license, visit
# http://creativecommons.org/licenses/by-nc-sa/4.0/
# or send a letter to
# Creative Commons, PO Box 1866, Mountain View, CA 94042, USA.
#
# CIF created using the CSD Python API on 29 September 2022
# The structure has been converted into the P1 space group
# The structure has a 3D framework
# The original CSD entry BOBTIW is in the rhombohedral crystal system
# The framework has been calculated to contain at least 10.0% void space
# The void calculation uses a probe of radius 1.32A, grid spacing 0.4
#
###############################################################################

data_BOBTIW
_chemical_formula_moiety         '(C108 H180 Cu14 N54)n'
_symmetry_cell_setting           triclinic
_symmetry_space_group_name_H-M   'P 1'
_symmetry_Int_Tables_number      1
_space_group_name_Hall           'P 1'
loop_
_symmetry_equiv_pos_site_id
_symmetry_equiv_pos_as_xyz
1 x,y,z
_cell_length_a                   19.810(3)
_cell_length_b                   19.810(3)
_cell_length_c                   14.180(2)
_cell_angle_alpha                90
_cell_angle_beta                 90
_cell_angle_gamma                120.00
_cell_volume                     4819.21
loop_
_atom_site_label
_atom_site_type_symbol
_atom_site_fract_x
_atom_site_fract_y
_atom_site_fract_z
Cu1 Cu 0.54824(2) 0.585570(19) 0.56262(2)
N1 N 0.54776(14) 0.50497(14) 0.38862(16)
N2 N 0.58554(14) 0.57358(14) 0.44013(16)
N3 N 0.65525(14) 0.58800(14) 0.31120(16)
C1 C 0.59100(18) 0.51616(18) 0.3122(2)
C2 C 0.5713(2) 0.4576(2) 0.2352(3)
H1 H 0.5188 0.4126 0.2476
H2 H 0.5686 0.4814 0.1749
C3 C 0.6255(4) 0.4288(4) 0.2239(5)
H3 H 0.6081 0.3911 0.1720
H4 H 0.6274 0.4034 0.2823
H5 H 0.6776 0.4725 0.2097
C4 C 0.64894(16) 0.62129(17) 0.39157(19)
C5 C 0.70611(19) 0.70243(18) 0.4202(2)
H6 H 0.7585 0.7079 0.4245
H7 H 0.6921 0.7124 0.4836
C6 C 0.7093(3) 0.7630(2) 0.3521(3)
H8 H 0.7478 0.8152 0.3742
H9 H 0.6579 0.7588 0.3486
H10 H 0.7243 0.7542 0.2894
Cu2 Cu 0.45176(2) 0.414430(19) 0.43738(2)
Cu3 Cu 0.747763(19) 0.629337(28) 0.22929(2)
N4 N 0.45224(14) 0.49503(14) 0.61138(16)
N5 N 0.59942(20) 0.67808(14) 0.64453(16)
N1_2 N 0.49503(14) 0.04279(20) 0.38862(16)
N2_2 N 0.42642(14) 0.01196(20) 0.44013(16)
N3_2 N 0.41200(14) 0.06725(20) 0.31120(16)
C1_2 C 0.48384(18) 0.07484(25) 0.3122(2)
C2_2 C 0.5424(2) 0.1137(3) 0.2352(3)
H1_2 H 0.5874 0.1062 0.2476
H2_2 H 0.5186 0.0872 0.1749
C3_2 C 0.5712(4) 0.1967(6) 0.2239(5)
H3_2 H 0.6089 0.2170 0.1720
H4_2 H 0.5966 0.2240 0.2823
H5_2 H 0.5275 0.2051 0.2097
C4_2 C 0.37871(17) 0.02765(23) 0.39157(19)
C5_2 C 0.29757(18) 0.00368(26) 0.4202(2)
H6_2 H 0.2921 0.0506 0.4245
Cu2_2 Cu 0.585570(19) 0.037330(28) 0.43738(2)
Cu3_2 Cu 0.370663(28) 0.118427(34) 0.22929(2)
Cu1_2 Cu 0.414430(19) 0.962670(28) 0.56262(2)
H7_2 H 0.2876 0.9797 0.4836
C6_2 C 0.2370(2) 0.9463(4) 0.3521(3)
H8_2 H 0.1848 0.9326 0.3742
H9_2 H 0.2412 0.8991 0.3486
H10_2 H 0.2458 0.9701 0.2894
N4_2 N 0.50497(14) 0.95721(20) 0.61138(16)
N5_2 N 0.32192(14) 0.92133(24) 0.64453(16)
Cu1_3 Cu 0.037330(28) 0.45176(2) 0.56262(2)
H7_3 H 0.0203 0.3079 0.4836
C6_3 C 0.0537(4) 0.2907(3) 0.3521(3)
H8_3 H 0.0674 0.2522 0.3742
H9_3 H 0.1009 0.3421 0.3486
H10_3 H 0.0299 0.2757 0.2894
N4_3 N 0.04279(20) 0.54776(14) 0.61138(16)
N5_3 N 0.07867(24) 0.40058(20) 0.64453(16)
N1_3 N 0.95721(20) 0.45224(14) 0.38862(16)
N2_3 N 0.98804(20) 0.41446(14) 0.44013(16)
N3_3 N 0.93275(20) 0.34475(14) 0.31120(16)
C1_3 C 0.92516(25) 0.40900(18) 0.3122(2)
C2_3 C 0.8863(3) 0.4287(2) 0.2352(3)
H1_3 H 0.8938 0.4812 0.2476
H2_3 H 0.9128 0.4314 0.1749
C3_3 C 0.8033(6) 0.3745(4) 0.2239(5)
H3_3 H 0.7830 0.3919 0.1720
H4_3 H 0.7760 0.3726 0.2823
H5_3 H 0.7949 0.3224 0.2097
C4_3 C 0.97235(23) 0.35106(16) 0.39157(19)
C5_3 C 0.99632(26) 0.29389(19) 0.4202(2)
H6_3 H 0.9494 0.2415 0.4245
Cu2_3 Cu 0.962670(28) 0.54824(2) 0.43738(2)
Cu3_3 Cu 0.881573(34) 0.252237(19) 0.22929(2)
Cu1_4 Cu 0.21491(2) 0.918903(19) 0.89595(2)
N1_4 N 0.21443(14) 0.83830(14) 0.72195(16)
N2_4 N 0.25221(14) 0.90691(14) 0.77346(16)
C1_4 C 0.25767(18) 0.84949(18) 0.6455(2)
C2_4 C 0.2380(2) 0.7909(2) 0.5685(3)
H1_4 H 0.1855 0.7459 0.5809
H2_4 H 0.2353 0.8147 0.5082
C3_4 C 0.2922(4) 0.7621(4) 0.5572(5)
H3_4 H 0.2748 0.7244 0.5053
H4_4 H 0.2941 0.7367 0.6156
H5_4 H 0.3443 0.8058 0.5430
C4_4 C 0.31561(16) 0.95462(17) 0.72490(19)
Cu2_4 Cu 0.11843(2) 0.747763(19) 0.77071(2)
N4_4 N 0.11891(14) 0.82836(14) 0.94471(16)
Cu1_5 Cu 0.081097(19) 0.296003(28) 0.89595(2)
N1_5 N 0.16170(14) 0.37612(20) 0.72195(16)
N2_5 N 0.09309(14) 0.34529(20) 0.77346(16)
C1_5 C 0.15051(18) 0.40817(25) 0.6455(2)
C2_5 C 0.2091(2) 0.4470(3) 0.5685(3)
H1_5 H 0.2541 0.4395 0.5809
H2_5 H 0.1853 0.4205 0.5082
C3_5 C 0.2379(4) 0.5300(6) 0.5572(5)
H3_5 H 0.2756 0.5503 0.5053
H4_5 H 0.2633 0.5573 0.6156
H5_5 H 0.1942 0.5384 0.5430
C4_5 C 0.04538(17) 0.36098(23) 0.72490(19)
Cu2_5 Cu 0.252237(19) 0.370663(28) 0.77071(2)
N4_5 N 0.17164(14) 0.29054(20) 0.94471(16)
Cu1_6 Cu 0.703997(28) 0.78509(2) 0.89595(2)
N1_6 N 0.62388(20) 0.78557(14) 0.72195(16)
N2_6 N 0.65471(20) 0.74779(14) 0.77346(16)
C1_6 C 0.59183(25) 0.74233(18) 0.6455(2)
C2_6 C 0.5530(3) 0.7620(2) 0.5685(3)
H1_6 H 0.5605 0.8145 0.5809
H2_6 H 0.5795 0.7647 0.5082
C3_6 C 0.4700(6) 0.7078(4) 0.5572(5)
H3_6 H 0.4497 0.7252 0.5053
H4_6 H 0.4427 0.7059 0.6156
H5_6 H 0.4616 0.6557 0.5430
C4_6 C 0.63902(23) 0.68439(16) 0.72490(19)
C5_4 C 0.66299(26) 0.62722(19) 0.7535(2)
H6_4 H 0.6161 0.5748 0.7578
H7_4 H 0.6870 0.6412 0.8169
C6_4 C 0.7204(4) 0.6240(3) 0.6854(3)
H8_4 H 0.7341 0.5855 0.7075
H9_4 H 0.7676 0.6754 0.6819
H10_4 H 0.6966 0.6090 0.6227
Cu2_6 Cu 0.629337(28) 0.88157(2) 0.77071(2)
N4_6 N 0.70946(20) 0.88109(14) 0.94471(16)
N5_4 N 0.74533(24) 0.73392(20) 0.97787(16)
H5_7 H 0.0109 0.1392 0.8764
H10_5 H 0.0576 0.4209 0.9561
N1_7 N 0.88109(14) 0.17164(14) 0.05529(16)
N2_7 N 0.91887(14) 0.24025(14) 0.10680(16)
C4_7 C 0.98227(16) 0.28796(17) 0.05824(19)
H9_5 H 0.9912 0.4255 0.0153
Cu2_7 Cu 0.78509(2) 0.081097(19) 0.10405(2)
N4_7 N 0.78557(14) 0.16170(14) 0.27805(16)
N1_8 N 0.82836(14) 0.70946(20) 0.05529(16)
N2_8 N 0.75975(14) 0.67863(20) 0.10680(16)
C4_8 C 0.71204(17) 0.69432(23) 0.05824(19)
C5_5 C 0.63090(18) 0.67035(26) 0.0869(2)
H6_5 H 0.6254 0.7173 0.0912
H7_5 H 0.6209 0.6464 0.1503
C6_5 C 0.5703(2) 0.6130(4) 0.0188(3)
H8_5 H 0.5181 0.5993 0.0409
H9_6 H 0.5745 0.5658 0.0153
Cu2_8 Cu 0.918903(19) 0.703997(28) 0.10405(2)
N4_8 N 0.83830(14) 0.62388(20) 0.27805(16)
C1_7 C 0.81717(18) 0.74151(25) 0.9789(2)
C2_7 C 0.8757(2) 0.7804(3) 0.9019(3)
H1_7 H 0.9207 0.7729 0.9143
H2_7 H 0.8519 0.7539 0.8416
C3_7 C 0.9045(4) 0.8634(6) 0.8906(5)
H3_7 H 0.9422 0.8837 0.8387
H4_7 H 0.9299 0.8907 0.9490
H5_8 H 0.8608 0.8718 0.8764
H10_6 H 0.5791 0.6368 0.9561
N1_9 N 0.29054(20) 0.11891(14) 0.05529(16)
N2_9 N 0.32137(20) 0.08113(14) 0.10680(16)
C4_9 C 0.30568(23) 0.01773(16) 0.05824(19)
H9_7 H 0.4342 0.0088 0.0153
Cu2_9 Cu 0.296003(28) 0.21491(2) 0.10405(2)
N4_9 N 0.37612(20) 0.21443(14) 0.27805(16)
H5_9 H 0.1282 0.9891 0.8764
H10_7 H 0.3632 0.9424 0.9561
N2_10 N 0.41446(14) 0.42642(14) 0.55987(16)
N3_4 N 0.34475(14) 0.41200(14) 0.68880(16)
C1_8 C 0.40900(18) 0.48384(18) 0.6878(2)
C2_8 C 0.4287(2) 0.5424(2) 0.7648(3)
H1_8 H 0.4812 0.5874 0.7524
H2_8 H 0.4314 0.5186 0.8251
C3_8 C 0.3745(4) 0.5712(4) 0.7761(5)
H3_8 H 0.3919 0.6089 0.8280
H4_8 H 0.3726 0.5966 0.7177
H5_10 H 0.3224 0.5275 0.7903
C4_10 C 0.35106(16) 0.37871(17) 0.60843(19)
C5_6 C 0.29389(19) 0.29757(18) 0.5798(2)
H6_6 H 0.2415 0.2921 0.5755
H7_6 H 0.3079 0.2876 0.5164
C6_6 C 0.2907(3) 0.2370(2) 0.6479(3)
H8_6 H 0.2522 0.1848 0.6258
H9_8 H 0.3421 0.2412 0.6514
H10_8 H 0.2757 0.2458 0.7106
N5_5 N 0.40058(20) 0.32192(14) 0.35547(16)
H7_7 H 0.7124 0.0203 0.5164
C6_7 C 0.7630(2) 0.0537(4) 0.6479(3)
H8_7 H 0.8152 0.0674 0.6258
H9_9 H 0.7588 0.1009 0.6514
H10_9 H 0.7542 0.0299 0.7106
N5_6 N 0.67808(14) 0.07867(24) 0.35547(16)
N2_11 N 0.57358(14) 0.98804(20) 0.55987(16)
N3_5 N 0.58800(14) 0.93275(20) 0.68880(16)
C1_9 C 0.51616(18) 0.92516(25) 0.6878(2)
C2_9 C 0.4576(2) 0.8863(3) 0.7648(3)
H1_9 H 0.4126 0.8938 0.7524
H2_9 H 0.4814 0.9128 0.8251
C3_9 C 0.4288(4) 0.8033(6) 0.7761(5)
H3_9 H 0.3911 0.7830 0.8280
H4_9 H 0.4034 0.7760 0.7177
H5_11 H 0.4725 0.7949 0.7903
C4_11 C 0.62129(17) 0.97235(23) 0.60843(19)
C5_7 C 0.70243(18) 0.99632(26) 0.5798(2)
H6_7 H 0.7079 0.9494 0.5755
N2_12 N 0.01196(20) 0.58554(14) 0.55987(16)
N3_6 N 0.06725(20) 0.65525(14) 0.68880(16)
C1_10 C 0.07484(25) 0.59100(18) 0.6878(2)
C2_10 C 0.1137(3) 0.5713(2) 0.7648(3)
H1_10 H 0.1062 0.5188 0.7524
H2_10 H 0.0872 0.5686 0.8251
C3_10 C 0.1967(6) 0.6255(4) 0.7761(5)
H3_10 H 0.2170 0.6081 0.8280
H4_10 H 0.2240 0.6274 0.7177
H5_12 H 0.2051 0.6776 0.7903
C4_12 C 0.02765(23) 0.64894(16) 0.60843(19)
C5_8 C 0.00368(26) 0.70611(19) 0.5798(2)
H6_8 H 0.0506 0.7585 0.5755
H7_8 H 0.9797 0.6921 0.5164
C6_8 C 0.9463(4) 0.7093(3) 0.6479(3)
H8_8 H 0.9326 0.7478 0.6258
H9_10 H 0.8991 0.6579 0.6514
H10_10 H 0.9701 0.7243 0.7106
N5_7 N 0.92133(24) 0.59942(20) 0.35547(16)
N2_13 N 0.74779(14) 0.09309(14) 0.22654(16)
C1_11 C 0.74233(18) 0.15051(18) 0.3545(2)
C2_11 C 0.7620(2) 0.2091(2) 0.4315(3)
H1_11 H 0.8145 0.2541 0.4191
H2_11 H 0.7647 0.1853 0.4918
C3_11 C 0.7078(4) 0.2379(4) 0.4428(5)
H3_11 H 0.7252 0.2756 0.4947
H4_11 H 0.7059 0.2633 0.3844
H5_13 H 0.6557 0.1942 0.4570
C4_13 C 0.68439(16) 0.04538(17) 0.27510(19)
N2_14 N 0.90691(14) 0.65471(20) 0.22654(16)
C1_12 C 0.84949(18) 0.59183(25) 0.3545(2)
C2_12 C 0.7909(2) 0.5530(3) 0.4315(3)
H1_12 H 0.7459 0.5605 0.4191
H2_12 H 0.8147 0.5795 0.4918
C3_12 C 0.7621(4) 0.4700(6) 0.4428(5)
H3_12 H 0.7244 0.4497 0.4947
H4_12 H 0.7367 0.4427 0.3844
H5_14 H 0.8058 0.4616 0.4570
C4_14 C 0.95462(17) 0.63902(23) 0.27510(19)
N2_15 N 0.34529(20) 0.25221(14) 0.22654(16)
C1_13 C 0.40817(25) 0.25767(18) 0.3545(2)
C2_13 C 0.4470(3) 0.2380(2) 0.4315(3)
H1_13 H 0.4395 0.1855 0.4191
H2_13 H 0.4205 0.2353 0.4918
C3_13 C 0.5300(6) 0.2922(4) 0.4428(5)
H3_13 H 0.5503 0.2748 0.4947
H4_13 H 0.5573 0.2941 0.3844
H5_15 H 0.5384 0.3443 0.4570
C4_15 C 0.36098(23) 0.31561(16) 0.27510(19)
C5_9 C 0.33701(26) 0.37278(19) 0.2465(2)
H6_9 H 0.3839 0.4252 0.2422
H7_9 H 0.3130 0.3588 0.1831
C6_9 C 0.2796(4) 0.3760(3) 0.3146(3)
H8_9 H 0.2659 0.4145 0.2925
H9_11 H 0.2324 0.3246 0.3181
H10_11 H 0.3034 0.3910 0.3773
N5_8 N 0.25467(24) 0.26608(20) 0.02213(16)
N2_16 N 0.08113(14) 0.75975(14) 0.89320(16)
C4_16 C 0.01773(16) 0.71204(17) 0.94176(19)
H9_12 H 0.0088 0.5745 0.9847
H5_16 H 0.9891 0.8608 0.1236
H10_12 H 0.9424 0.5791 0.0439
C1_14 C 0.18283(18) 0.25849(25) 0.0211(2)
C2_14 C 0.1243(2) 0.2196(3) 0.0981(3)
H1_14 H 0.0793 0.2271 0.0857
H2_14 H 0.1481 0.2461 0.1584
C3_14 C 0.0955(4) 0.1366(6) 0.1094(5)
H3_14 H 0.0578 0.1163 0.1613
H4_14 H 0.0701 0.1093 0.0510
H5_17 H 0.1392 0.1282 0.1236
H10_13 H 0.4209 0.3632 0.0439
N2_17 N 0.24025(14) 0.32137(20) 0.89320(16)
C4_17 C 0.28796(17) 0.30568(23) 0.94176(19)
C5_10 C 0.36910(18) 0.32965(26) 0.9131(2)
H6_10 H 0.3746 0.2827 0.9088
H7_10 H 0.3791 0.3536 0.8497
C6_10 C 0.4297(2) 0.3870(4) 0.9812(3)
H8_10 H 0.4819 0.4007 0.9591
H9_13 H 0.4255 0.4342 0.9847
H5_18 H 0.8718 0.0109 0.1236
H10_14 H 0.6368 0.0576 0.0439
N2_18 N 0.67863(20) 0.91887(14) 0.89320(16)
C4_18 C 0.69432(23) 0.98227(16) 0.94176(19)
H9_14 H 0.5658 0.9912 0.9847
C5_11 C 0.37278(19) 0.03576(18) 0.7535(2)
H6_11 H 0.4252 0.0412 0.7578
H7_11 H 0.3588 0.0457 0.8169
C6_11 C 0.3760(3) 0.0963(2) 0.6854(3)
H8_11 H 0.4145 0.1485 0.7075
H9_15 H 0.3246 0.0921 0.6819
H10_15 H 0.3910 0.0875 0.6227
N5_9 N 0.26608(20) 0.01142(14) 0.97787(16)
C1_15 C 0.25849(25) 0.07567(18) 0.9789(2)
C2_15 C 0.2196(3) 0.0954(2) 0.9019(3)
H1_15 H 0.2271 0.1479 0.9143
H2_15 H 0.2461 0.0981 0.8416
C3_15 C 0.1366(6) 0.0412(4) 0.8906(5)
H3_15 H 0.1163 0.0586 0.8387
H4_15 H 0.1093 0.0393 0.9490
C5_12 C 0.96424(18) 0.33701(26) 0.7535(2)
H6_12 H 0.9588 0.3839 0.7578
H7_12 H 0.9543 0.3130 0.8169
C6_12 C 0.9037(2) 0.2796(4) 0.6854(3)
H8_12 H 0.8515 0.2659 0.7075
H9_16 H 0.9079 0.2324 0.6819
H10_16 H 0.9125 0.3034 0.6227
N5_10 N 0.98858(14) 0.25467(24) 0.97787(16)
C1_16 C 0.92433(18) 0.18283(18) 0.9789(2)
C2_16 C 0.9046(2) 0.1243(2) 0.9019(3)
H1_16 H 0.8521 0.0793 0.9143
H2_16 H 0.9019 0.1481 0.8416
C3_16 C 0.9588(4) 0.0955(4) 0.8906(5)
H3_16 H 0.9414 0.0578 0.8387
H4_16 H 0.9607 0.0701 0.9490
C5_13 C 0.03944(19) 0.36910(18) 0.0869(2)
H6_13 H 0.0918 0.3746 0.0912
H7_13 H 0.0254 0.3791 0.1503
C6_13 C 0.0426(3) 0.4297(2) 0.0188(3)
H8_13 H 0.0811 0.4819 0.0409
C5_14 C 0.32965(26) 0.96056(19) 0.0869(2)
H6_14 H 0.2827 0.9082 0.0912
H7_14 H 0.3536 0.9746 0.1503
C6_14 C 0.3870(4) 0.9574(3) 0.0188(3)
H8_14 H 0.4007 0.9189 0.0409
C5_15 C 0.62722(19) 0.96424(18) 0.2465(2)
H6_15 H 0.5748 0.9588 0.2422
H7_15 H 0.6412 0.9543 0.1831
C6_15 C 0.6240(3) 0.9037(2) 0.3146(3)
H8_15 H 0.5855 0.8515 0.2925
H9_17 H 0.6754 0.9079 0.3181
H10_17 H 0.6090 0.9125 0.3773
N5_11 N 0.73392(20) 0.98858(14) 0.02213(16)
C1_17 C 0.74151(25) 0.92433(18) 0.0211(2)
C2_17 C 0.7804(3) 0.9046(2) 0.0981(3)
H1_17 H 0.7729 0.8521 0.0857
H2_17 H 0.7539 0.9019 0.1584
C3_17 C 0.8634(6) 0.9588(4) 0.1094(5)
H3_17 H 0.8837 0.9414 0.1613
H4_17 H 0.8907 0.9607 0.0510
C5_16 C 0.03576(18) 0.66299(26) 0.2465(2)
H6_16 H 0.0412 0.6161 0.2422
H7_16 H 0.0457 0.6870 0.1831
C6_16 C 0.0963(2) 0.7204(4) 0.3146(3)
H8_16 H 0.1485 0.7341 0.2925
H9_18 H 0.0921 0.7676 0.3181
H10_18 H 0.0875 0.6966 0.3773
N5_12 N 0.01142(14) 0.74533(24) 0.02213(16)
C1_18 C 0.07567(18) 0.81717(18) 0.0211(2)
C2_18 C 0.0954(2) 0.8757(2) 0.0981(3)
H1_18 H 0.1479 0.9207 0.0857
H2_18 H 0.0981 0.8519 0.1584
C3_18 C 0.0412(4) 0.9045(4) 0.1094(5)
H3_18 H 0.0586 0.9422 0.1613
H4_18 H 0.0393 0.9299 0.0510
C5_17 C 0.96056(19) 0.63090(18) 0.9131(2)
H6_17 H 0.9082 0.6254 0.9088
H7_17 H 0.9746 0.6209 0.8497
C6_17 C 0.9574(3) 0.5703(2) 0.9812(3)
H8_17 H 0.9189 0.5181 0.9591
C5_18 C 0.67035(26) 0.03944(19) 0.9131(2)
H6_18 H 0.7173 0.0918 0.9088
H7_18 H 0.6464 0.0254 0.8497
C6_18 C 0.6130(4) 0.0426(3) 0.9812(3)
H8_18 H 0.5993 0.0811 0.9591
loop_
_geom_bond_atom_site_label_1
_geom_bond_atom_site_label_2
_geom_bond_site_symmetry_1
_geom_bond_site_symmetry_2
Cu1 N2 1_555 1_555
N1 N2 1_555 1_555
N2 C4 1_555 1_555
N3 C1 1_555 1_555
C1 N1 1_555 1_555
C2 C1 1_555 1_555
H1 C2 1_555 1_555
H2 C2 1_555 1_555
C3 C2 1_555 1_555
H3 C3 1_555 1_555
H4 C3 1_555 1_555
H5 C3 1_555 1_555
C4 N3 1_555 1_555
C5 C4 1_555 1_555
H6 C5 1_555 1_555
H7 C5 1_555 1_555
C6 C5 1_555 1_555
H8 C6 1_555 1_555
H9 C6 1_555 1_555
H10 C6 1_555 1_555
Cu2 N1 1_555 1_555
Cu3 N3 1_555 1_555
N4 Cu1 1_555 1_555
N5 Cu1 1_555 1_555
N1_2 N2_2 1_555 1_555
N2_2 C4_2 1_555 1_555
N3_2 C1_2 1_555 1_555
C1_2 N1_2 1_555 1_555
C2_2 C1_2 1_555 1_555
H1_2 C2_2 1_555 1_555
H2_2 C2_2 1_555 1_555
C3_2 C2_2 1_555 1_555
H3_2 C3_2 1_555 1_555
H4_2 C3_2 1_555 1_555
H5_2 C3_2 1_555 1_555
C4_2 N3_2 1_555 1_555
C5_2 C4_2 1_555 1_555
H6_2 C5_2 1_555 1_555
Cu2_2 N1_2 1_555 1_555
Cu3_2 N3_2 1_555 1_555
H8_2 C6_2 1_555 1_555
H9_2 C6_2 1_555 1_555
H10_2 C6_2 1_555 1_555
N4_2 Cu1_2 1_555 1_555
N5_2 Cu1_2 1_555 1_555
H8_3 C6_3 1_555 1_555
H9_3 C6_3 1_555 1_555
H10_3 C6_3 1_555 1_555
N4_3 Cu1_3 1_555 1_555
N5_3 Cu1_3 1_555 1_555
N1_3 N2_3 1_555 1_555
N2_3 C4_3 1_555 1_555
N3_3 C1_3 1_555 1_555
C1_3 N1_3 1_555 1_555
C2_3 C1_3 1_555 1_555
H1_3 C2_3 1_555 1_555
H2_3 C2_3 1_555 1_555
C3_3 C2_3 1_555 1_555
H3_3 C3_3 1_555 1_555
H4_3 C3_3 1_555 1_555
H5_3 C3_3 1_555 1_555
C4_3 N3_3 1_555 1_555
C5_3 C4_3 1_555 1_555
H6_3 C5_3 1_555 1_555
Cu2_3 N1_3 1_555 1_555
Cu3_3 N3_3 1_555 1_555
Cu1_4 N2_4 1_555 1_555
N1_4 N2_4 1_555 1_555
N2_4 C4_4 1_555 1_555
N5_2 C1_4 1_555 1_555
C1_4 N1_4 1_555 1_555
C2_4 C1_4 1_555 1_555
H1_4 C2_4 1_555 1_555
H2_4 C2_4 1_555 1_555
C3_4 C2_4 1_555 1_555
H3_4 C3_4 1_555 1_555
H4_4 C3_4 1_555 1_555
H5_4 C3_4 1_555 1_555
C4_4 N5_2 1_555 1_555
Cu2_4 N1_4 1_555 1_555
N4_4 Cu1_4 1_555 1_555
Cu1_5 N2_5 1_555 1_555
N1_5 N2_5 1_555 1_555
N2_5 C4_5 1_555 1_555
N5_3 C1_5 1_555 1_555
C1_5 N1_5 1_555 1_555
C2_5 C1_5 1_555 1_555
H1_5 C2_5 1_555 1_555
H2_5 C2_5 1_555 1_555
C3_5 C2_5 1_555 1_555
H3_5 C3_5 1_555 1_555
H4_5 C3_5 1_555 1_555
H5_5 C3_5 1_555 1_555
C4_5 N5_3 1_555 1_555
Cu2_5 N1_5 1_555 1_555
N4_5 Cu1_5 1_555 1_555
Cu1_6 N2_6 1_555 1_555
N1_6 N2_6 1_555 1_555
N2_6 C4_6 1_555 1_555
N5 C1_6 1_555 1_555
C1_6 N1_6 1_555 1_555
C2_6 C1_6 1_555 1_555
H1_6 C2_6 1_555 1_555
H2_6 C2_6 1_555 1_555
C3_6 C2_6 1_555 1_555
H3_6 C3_6 1_555 1_555
H4_6 C3_6 1_555 1_555
H5_6 C3_6 1_555 1_555
C4_6 N5 1_555 1_555
C5_4 C4_6 1_555 1_555
H6_4 C5_4 1_555 1_555
H7_4 C5_4 1_555 1_555
C6_4 C5_4 1_555 1_555
H8_4 C6_4 1_555 1_555
H9_4 C6_4 1_555 1_555
H10_4 C6_4 1_555 1_555
Cu2_6 N1_6 1_555 1_555
N4_6 Cu1_6 1_555 1_555
N5_4 Cu1_6 1_555 1_555
Cu3_3 N2_7 1_555 1_555
N1_7 N2_7 1_555 1_555
N2_7 C4_7 1_555 1_555
Cu2_7 N1_7 1_555 1_555
N4_7 Cu3_3 1_555 1_555
Cu3 N2_8 1_555 1_555
N1_8 N2_8 1_555 1_555
N2_8 C4_8 1_555 1_555
C5_5 C4_8 1_555 1_555
H6_5 C5_5 1_555 1_555
H7_5 C5_5 1_555 1_555
C6_5 C5_5 1_555 1_555
H8_5 C6_5 1_555 1_555
H9_6 C6_5 1_555 1_555
Cu2_8 N1_8 1_555 1_555
N4_8 Cu3 1_555 1_555
N5_4 C1_7 1_555 1_555
C2_7 C1_7 1_555 1_555
H1_7 C2_7 1_555 1_555
H2_7 C2_7 1_555 1_555
C3_7 C2_7 1_555 1_555
H3_7 C3_7 1_555 1_555
H4_7 C3_7 1_555 1_555
H5_8 C3_7 1_555 1_555
Cu3_2 N2_9 1_555 1_555
N1_9 N2_9 1_555 1_555
N2_9 C4_9 1_555 1_555
Cu2_9 N1_9 1_555 1_555
N4_9 Cu3_2 1_555 1_555
Cu2 N2_10 1_555 1_555
N4 N2_10 1_555 1_555
N2_10 C4_10 1_555 1_555
N3_4 C1_8 1_555 1_555
C1_8 N4 1_555 1_555
C2_8 C1_8 1_555 1_555
H1_8 C2_8 1_555 1_555
H2_8 C2_8 1_555 1_555
C3_8 C2_8 1_555 1_555
H3_8 C3_8 1_555 1_555
H4_8 C3_8 1_555 1_555
H5_10 C3_8 1_555 1_555
C4_10 N3_4 1_555 1_555
C5_6 C4_10 1_555 1_555
H6_6 C5_6 1_555 1_555
H7_6 C5_6 1_555 1_555
C6_6 C5_6 1_555 1_555
H8_6 C6_6 1_555 1_555
H9_8 C6_6 1_555 1_555
H10_8 C6_6 1_555 1_555
Cu2_5 N3_4 1_555 1_555
N5_5 Cu2 1_555 1_555
H8_7 C6_7 1_555 1_555
H9_9 C6_7 1_555 1_555
H10_9 C6_7 1_555 1_555
N5_6 Cu2_2 1_555 1_555
N4_2 N2_11 1_555 1_555
N2_11 C4_11 1_555 1_555
N3_5 C1_9 1_555 1_555
C1_9 N4_2 1_555 1_555
C2_9 C1_9 1_555 1_555
H1_9 C2_9 1_555 1_555
H2_9 C2_9 1_555 1_555
C3_9 C2_9 1_555 1_555
H3_9 C3_9 1_555 1_555
H4_9 C3_9 1_555 1_555
H5_11 C3_9 1_555 1_555
C4_11 N3_5 1_555 1_555
C5_7 C4_11 1_555 1_555
H6_7 C5_7 1_555 1_555
Cu2_6 N3_5 1_555 1_555
N4_3 N2_12 1_555 1_555
N2_12 C4_12 1_555 1_555
N3_6 C1_10 1_555 1_555
C1_10 N4_3 1_555 1_555
C2_10 C1_10 1_555 1_555
H1_10 C2_10 1_555 1_555
H2_10 C2_10 1_555 1_555
C3_10 C2_10 1_555 1_555
H3_10 C3_10 1_555 1_555
H4_10 C3_10 1_555 1_555
H5_12 C3_10 1_555 1_555
C4_12 N3_6 1_555 1_555
C5_8 C4_12 1_555 1_555
H6_8 C5_8 1_555 1_555
Cu2_4 N3_6 1_555 1_555
H8_8 C6_8 1_555 1_555
H9_10 C6_8 1_555 1_555
H10_10 C6_8 1_555 1_555
N5_7 Cu2_3 1_555 1_555
Cu2_7 N2_13 1_555 1_555
N4_7 N2_13 1_555 1_555
N2_13 C4_13 1_555 1_555
N5_6 C1_11 1_555 1_555
C1_11 N4_7 1_555 1_555
C2_11 C1_11 1_555 1_555
H1_11 C2_11 1_555 1_555
H2_11 C2_11 1_555 1_555
C3_11 C2_11 1_555 1_555
H3_11 C3_11 1_555 1_555
H4_11 C3_11 1_555 1_555
H5_13 C3_11 1_555 1_555
C4_13 N5_6 1_555 1_555
Cu2_8 N2_14 1_555 1_555
N4_8 N2_14 1_555 1_555
N2_14 C4_14 1_555 1_555
N5_7 C1_12 1_555 1_555
C1_12 N4_8 1_555 1_555
C2_12 C1_12 1_555 1_555
H1_12 C2_12 1_555 1_555
H2_12 C2_12 1_555 1_555
C3_12 C2_12 1_555 1_555
H3_12 C3_12 1_555 1_555
H4_12 C3_12 1_555 1_555
H5_14 C3_12 1_555 1_555
C4_14 N5_7 1_555 1_555
Cu2_9 N2_15 1_555 1_555
N4_9 N2_15 1_555 1_555
N2_15 C4_15 1_555 1_555
N5_5 C1_13 1_555 1_555
C1_13 N4_9 1_555 1_555
C2_13 C1_13 1_555 1_555
H1_13 C2_13 1_555 1_555
H2_13 C2_13 1_555 1_555
C3_13 C2_13 1_555 1_555
H3_13 C3_13 1_555 1_555
H4_13 C3_13 1_555 1_555
H5_15 C3_13 1_555 1_555
C4_15 N5_5 1_555 1_555
C5_9 C4_15 1_555 1_555
H6_9 C5_9 1_555 1_555
H7_9 C5_9 1_555 1_555
C6_9 C5_9 1_555 1_555
H8_9 C6_9 1_555 1_555
H9_11 C6_9 1_555 1_555
H10_11 C6_9 1_555 1_555
N5_8 Cu2_9 1_555 1_555
Cu2_4 N2_16 1_555 1_555
N4_4 N2_16 1_555 1_555
N2_16 C4_16 1_555 1_555
N5_8 C1_14 1_555 1_555
C2_14 C1_14 1_555 1_555
H1_14 C2_14 1_555 1_555
H2_14 C2_14 1_555 1_555
C3_14 C2_14 1_555 1_555
H3_14 C3_14 1_555 1_555
H4_14 C3_14 1_555 1_555
H5_17 C3_14 1_555 1_555
Cu2_5 N2_17 1_555 1_555
N4_5 N2_17 1_555 1_555
N2_17 C4_17 1_555 1_555
C5_10 C4_17 1_555 1_555
H6_10 C5_10 1_555 1_555
H7_10 C5_10 1_555 1_555
C6_10 C5_10 1_555 1_555
H8_10 C6_10 1_555 1_555
H9_13 C6_10 1_555 1_555
Cu2_6 N2_18 1_555 1_555
N4_6 N2_18 1_555 1_555
N2_18 C4_18 1_555 1_555
H6_11 C5_11 1_555 1_555
H7_11 C5_11 1_555 1_555
C6_11 C5_11 1_555 1_555
H8_11 C6_11 1_555 1_555
H9_15 C6_11 1_555 1_555
H10_15 C6_11 1_555 1_555
N5_9 C1_15 1_555 1_555
C2_15 C1_15 1_555 1_555
H1_15 C2_15 1_555 1_555
H2_15 C2_15 1_555 1_555
C3_15 C2_15 1_555 1_555
H3_15 C3_15 1_555 1_555
H4_15 C3_15 1_555 1_555
H6_12 C5_12 1_555 1_555
H7_12 C5_12 1_555 1_555
C6_12 C5_12 1_555 1_555
H8_12 C6_12 1_555 1_555
H9_16 C6_12 1_555 1_555
H10_16 C6_12 1_555 1_555
N5_10 C1_16 1_555 1_555
C2_16 C1_16 1_555 1_555
H1_16 C2_16 1_555 1_555
H2_16 C2_16 1_555 1_555
C3_16 C2_16 1_555 1_555
H3_16 C3_16 1_555 1_555
H4_16 C3_16 1_555 1_555
H6_13 C5_13 1_555 1_555
H7_13 C5_13 1_555 1_555
C6_13 C5_13 1_555 1_555
H8_13 C6_13 1_555 1_555
H6_14 C5_14 1_555 1_555
H7_14 C5_14 1_555 1_555
C6_14 C5_14 1_555 1_555
H8_14 C6_14 1_555 1_555
H6_15 C5_15 1_555 1_555
H7_15 C5_15 1_555 1_555
C6_15 C5_15 1_555 1_555
H8_15 C6_15 1_555 1_555
H9_17 C6_15 1_555 1_555
H10_17 C6_15 1_555 1_555
N5_11 C1_17 1_555 1_555
C2_17 C1_17 1_555 1_555
H1_17 C2_17 1_555 1_555
H2_17 C2_17 1_555 1_555
C3_17 C2_17 1_555 1_555
H3_17 C3_17 1_555 1_555
H4_17 C3_17 1_555 1_555
H6_16 C5_16 1_555 1_555
H7_16 C5_16 1_555 1_555
C6_16 C5_16 1_555 1_555
H8_16 C6_16 1_555 1_555
H9_18 C6_16 1_555 1_555
H10_18 C6_16 1_555 1_555
N5_12 C1_18 1_555 1_555
C2_18 C1_18 1_555 1_555
H1_18 C2_18 1_555 1_555
H2_18 C2_18 1_555 1_555
C3_18 C2_18 1_555 1_555
H3_18 C3_18 1_555 1_555
H4_18 C3_18 1_555 1_555
H6_17 C5_17 1_555 1_555
H7_17 C5_17 1_555 1_555
C6_17 C5_17 1_555 1_555
H8_17 C6_17 1_555 1_555
H6_18 C5_18 1_555 1_555
H7_18 C5_18 1_555 1_555
C6_18 C5_18 1_555 1_555
H8_18 C6_18 1_555 1_555

#END
