
###############################################################################
#
# This file contains modified crystal structure data generated from the
# MOF subset of the Cambridge Structural Database (CSD) v543 
# hosted by the Cambridge Crystallographic Data Centre (CCDC).
#
# This work is licensed under the Creative Commons
# Attribution-NonCommercial-ShareAlike 4.0 International License.
# To view a copy of this license, visit
# http://creativecommons.org/licenses/by-nc-sa/4.0/
# or send a letter to
# Creative Commons, PO Box 1866, Mountain View, CA 94042, USA.
#
# CIF created using the CSD Python API on 29 September 2022
# The structure has been converted into the P1 space group
# The structure has a 3D framework
# The original CSD entry BOBZIE is in the rhombohedral crystal system
# The framework has been calculated to contain at least 10.0% void space
# The void calculation uses a probe of radius 1.32A, grid spacing 0.4
#
###############################################################################

data_BOBZIE
_chemical_formula_moiety         '(C468 H360 Cu18 N60 O85)n'
_symmetry_cell_setting           triclinic
_symmetry_space_group_name_H-M   'P 1'
_symmetry_Int_Tables_number      1
_space_group_name_Hall           'P 1'
loop_
_symmetry_equiv_pos_site_id
_symmetry_equiv_pos_as_xyz
1 x,y,z
_cell_length_a                   15.598(7)
_cell_length_b                   15.598(7)
_cell_length_c                   59.01(2)
_cell_angle_alpha                90
_cell_angle_beta                 90
_cell_angle_gamma                120
_cell_volume                     12433.5
loop_
_atom_site_label
_atom_site_type_symbol
_atom_site_fract_x
_atom_site_fract_y
_atom_site_fract_z
N4 N -0.0000 0.0000 0.19733(6)
O10 O 0.40265(14) 0.04814(20) 0.23605(3)
C45 C 0.09078(16) 0.00137(23) 0.20226(4)
C46 C 0.15724(17) 0.06637(24) 0.21818(4)
H31 H 0.1460 0.1138 0.2249
C47 C 0.24001(17) 0.06052(25) 0.22402(4)
H32 H 0.2838 0.1039 0.2348
O13 O 0.08294(26) 0.44344(17) 0.21486(5)
C48 C 0.0155(3) 0.3634(2) 0.22159(5)
C49 C 0.00897(24) 0.26782(17) 0.21411(4)
C50 C 0.07277(26) 0.26614(18) 0.19795(5)
H33 H 0.1200 0.3249 0.1912
C51 C 0.06664(25) 0.17729(18) 0.19171(5)
H34 H 0.1081 0.1766 0.1805
N14 N 0.15571(17) 0.73390(15) 0.55794(4)
C139 C 0.0346(2) 0.5089(2) 0.50716(5)
H106 H 0.0612 0.4672 0.5069
C140 C 0.0753(2) 0.5901(2) 0.52399(5)
C141 C 0.1435(3) 0.5935(2) 0.53889(6)
H107 H 0.1643 0.5473 0.5378
C142 C 0.1816(2) 0.6649(2) 0.55546(5)
H108 H 0.2278 0.6651 0.5654
C143 C 0.0899(3) 0.7326(2) 0.54352(6)
H109 H 0.0711 0.7803 0.5449
C144 C 0.0477(3) 0.6620(3) 0.52634(5)
H110 H 0.0015 0.6629 0.5165
Cu7 Cu 0.50782(2) 0.04218(3) 0.25170(2)
Cu10 Cu 0.20103(2) 0.82551(2) 0.58503(2)
N4_2 N -0.0000 1.0000 0.19733(6)
O11 O 0.3605(2) 0.91706(26) 0.21486(5)
C41 C 0.3479(2) 0.9845(3) 0.22159(5)
C42 C 0.25885(17) 0.99103(24) 0.21411(4)
C43 C 0.19337(19) 0.92723(26) 0.19795(5)
H29 H 0.2049 0.8800 0.1912
C44 C 0.11065(18) 0.93336(25) 0.19171(5)
H30 H 0.0685 0.8919 0.1805
O20 O 0.05804(13) 0.31073(19) 0.06643(3)
Cu12 Cu 0.15885(2) 0.29115(3) 0.08163(2)
N4_3 N 1.0000 0.0000 0.19733(6)
O12 O 0.95186(20) 0.35451(14) 0.23605(3)
C52 C 0.99863(23) 0.08941(16) 0.20226(4)
C53 C 0.93363(24) 0.09087(17) 0.21818(4)
H35 H 0.8862 0.0322 0.2249
C54 C 0.93948(25) 0.17949(18) 0.22402(4)
H36 H 0.8961 0.1799 0.2348
N6 N 0.77056(19) 0.08143(17) 0.38857(4)
C63 C 0.7312(3) 0.0445(3) 0.34932(6)
H43 H 0.7237 0.0656 0.3351
C64 C 0.7602(3) 0.1084(2) 0.36769(6)
H44 H 0.7731 0.1727 0.3654
Cu6 Cu 0.79897(2) 0.17449(2) 0.41497(2)
O30 O 0.69213(17) 0.22475(19) 0.40168(4)
H99 H 0.7205 0.2705 0.3912
H100 H 0.6420 0.1763 0.3944
N13 N 0.84429(17) 0.26610(15) 0.44206(4)
C133 C 0.9654(2) 0.4911(2) 0.49284(5)
H101 H 0.9388 0.5328 0.4931
C134 C 0.9247(2) 0.4099(2) 0.47601(5)
C135 C 0.8565(3) 0.4065(2) 0.46111(6)
H102 H 0.8357 0.4527 0.4622
C136 C 0.8184(2) 0.3351(2) 0.44454(5)
H103 H 0.7722 0.3349 0.4346
C137 C 0.9101(3) 0.2674(2) 0.45648(6)
H104 H 0.9289 0.2197 0.4551
C138 C 0.9523(3) 0.3380(3) 0.47366(5)
H105 H 0.9985 0.3371 0.4835
Cu9 Cu 0.95782(3) 0.46564(2) 0.25170(2)
O33 O 0.91936(14) 0.27530(13) 0.39977(3)
O35 O 0.68784(14) 0.06932(14) 0.43062(3)
Cu1 Cu 0.53436(2) 0.49218(2) 0.25170(2)
O1 O 0.41397(14) 0.39137(13) 0.26690(3)
O2 O 0.64120(17) 0.44192(19) 0.26499(4)
H1 H 0.6128 0.3962 0.2755
H2 H 0.6913 0.4904 0.2723
O3 O 0.46912(14) 0.30057(17) 0.28387(5)
O4 O 0.64549(14) 0.59735(14) 0.23605(3)
O5 O 0.55656(17) 0.6395(2) 0.21486(5)
N1 N 0.48904(17) 0.40057(15) 0.22461(4)
N2 N 0.56277(19) 0.58524(17) 0.27810(4)
N3 N -0.0000 -0.0000 0.28501(7)
N4_4 N 1.0000 1.0000 0.19733(6)
C1 C 0.3679(2) 0.1756(2) 0.17383(5)
H3 H 0.3945 0.1339 0.1736
C2 C 0.4086(2) 0.2568(2) 0.19066(5)
C3 C 0.4768(3) 0.2602(2) 0.20556(6)
H4 H 0.4976 0.2140 0.2045
C4 C 0.5149(2) 0.3316(2) 0.22213(5)
H5 H 0.5611 0.3318 0.2321
C5 C 0.4232(3) 0.3993(2) 0.21019(6)
H6 H 0.4044 0.4470 0.2116
C6 C 0.3810(3) 0.3287(3) 0.19301(5)
H7 H 0.3348 0.3296 0.1832
C7 C 0.6523(4) 0.7863(3) 0.33389(7)
H8 H 0.6523 0.7603 0.3481
C8 C 0.6198(3) 0.7176(3) 0.31431(6)
C9 C 0.6021(3) 0.6222(3) 0.31735(6)
H9 H 0.6096 0.6011 0.3316
C10 C 0.5731(3) 0.5583(2) 0.29898(6)
H10 H 0.5602 0.4940 0.3013
C11 C 0.5801(3) 0.6771(2) 0.27528(6)
H11 H 0.5733 0.6969 0.2608
C12 C 0.6078(4) 0.7444(3) 0.29280(7)
H12 H 0.6183 0.8077 0.2901
C13 C 0.40187(18) 0.31419(18) 0.27650(5)
C14 C 0.29533(17) 0.23255(17) 0.27911(4)
C15 C 0.27203(18) 0.15048(19) 0.29245(5)
H13 H 0.3222 0.1460 0.2999
C16 C 0.17439(18) 0.07496(18) 0.29475(5)
H14 H 0.1593 0.0210 0.3040
C17 C 0.09913(16) 0.07979(16) 0.28324(4)
C18 C 0.12235(18) 0.16203(17) 0.26975(4)
H15 H 0.0725 0.1661 0.2620
C19 C 0.21962(18) 0.23759(17) 0.26791(4)
H16 H 0.2345 0.2926 0.2590
C20 C 0.6366(2) 0.6521(2) 0.22159(5)
C21 C 0.73218(17) 0.74115(17) 0.21411(4)
C22 C 0.73386(18) 0.80663(19) 0.19795(5)
H17 H 0.6751 0.7951 0.1912
C23 C 0.82271(18) 0.88935(18) 0.19171(5)
H18 H 0.8234 0.9315 0.1805
C24 C 0.91059(16) 0.90922(16) 0.20226(4)
C25 C 0.90913(17) 0.84276(17) 0.21818(4)
H19 H 0.9678 0.8540 0.2249
C26 C 0.82051(18) 0.75999(17) 0.22402(4)
H20 H 0.8201 0.7162 0.2348
C55 C 0.2988(2) 0.1577(2) 0.15950(5)
H37 H 0.2722 0.1994 0.1597
C56 C 0.2581(2) 0.0765(2) 0.14267(5)
C57 C 0.1899(3) 0.0731(2) 0.12777(6)
H38 H 0.1691 0.1193 0.1288
C58 C 0.1518(2) 0.0017(2) 0.11120(5)
H39 H 0.1056 0.0015 0.1012
C60 C 0.2857(3) 0.0046(3) 0.14032(5)
H41 H 0.3319 0.0037 0.1501
C61 C 0.6810(4) 0.8804(3) 0.33278(7)
H42 H 0.6810 0.9064 0.3186
C62 C 0.7135(3) 0.9491(3) 0.35236(6)
C65 C 0.7532(3) 0.9896(2) 0.39139(6)
H45 H 0.7600 0.9698 0.4059
C66 C 0.7255(4) 0.9223(3) 0.37387(7)
H46 H 0.7150 0.8590 0.3766
N9 N 0.06724(15) 0.24486(23) 0.10872(4)
C83 C 0.0660(2) 0.3094(4) 0.12314(6)
H62 H 0.1137 0.3759 0.1217
O17 O 0.19755(14) 0.03276(17) 0.04946(5)
N11 N 0.6667 0.3333 0.04832(7)
C91 C 0.26480(18) 0.01914(18) 0.05683(5)
C92 C 0.37134(17) 0.10078(17) 0.05422(4)
C93 C 0.39464(18) 0.18285(19) 0.04088(5)
H71 H 0.3445 0.1873 0.0334
C94 C 0.49228(18) 0.25837(18) 0.03858(5)
H72 H 0.5074 0.3123 0.0293
C95 C 0.56754(16) 0.25354(16) 0.05009(4)
C96 C 0.54432(18) 0.17130(17) 0.06358(4)
H73 H 0.5942 0.1672 0.0713
C97 C 0.44705(18) 0.09574(17) 0.06542(4)
H74 H 0.4322 0.0407 0.0743
O21 O 0.96724(17) 0.16478(22) 0.04946(5)
C105 C 0.98086(18) 0.24565(25) 0.05683(5)
C106 C 0.89922(17) 0.27055(24) 0.05422(4)
C107 C 0.81715(19) 0.21178(26) 0.04088(5)
H79 H 0.8127 0.1571 0.0334
C108 C 0.74163(18) 0.23390(25) 0.03858(5)
H80 H 0.6877 0.1950 0.0293
C109 C 0.74646(16) 0.31399(23) 0.05009(4)
C110 C 0.82870(17) 0.37301(25) 0.06358(4)
H81 H 0.8328 0.4269 0.0713
C111 C 0.90426(17) 0.35130(25) 0.06542(4)
H82 H 0.9593 0.3914 0.0743
O22 O 0.68927(19) 0.74730(14) 0.06643(3)
O23 O 0.83522(22) 0.80245(14) 0.04946(5)
C112 C 0.75435(25) 0.73520(18) 0.05683(5)
C113 C 0.72945(24) 0.62866(17) 0.05422(4)
C114 C 0.78822(26) 0.60536(18) 0.04088(5)
H83 H 0.8429 0.6555 0.0334
C115 C 0.76610(25) 0.50772(18) 0.03858(5)
H84 H 0.8050 0.4926 0.0293
C116 C 0.68601(23) 0.43246(16) 0.05009(4)
C117 C 0.62699(25) 0.45568(18) 0.06358(4)
H85 H 0.5731 0.4058 0.0713
C118 C 0.64870(25) 0.55295(18) 0.06542(4)
H86 H 0.6086 0.5678 0.0743
Cu13 Cu 0.70885(3) 0.86769(2) 0.08163(2)
N3_2 N 0.0000 1.0000 0.28501(7)
C39 C 0.03968(25) 0.87765(18) 0.26975(4)
H27 H 0.0936 0.9275 0.2620
C40 C 0.01797(25) 0.78038(18) 0.26791(4)
H28 H 0.0581 0.7655 0.2590
N5 N 0.17763(17) 0.93276(15) 0.10872(4)
C59 C 0.2435(3) 0.9340(2) 0.12314(6)
H40 H 0.2623 0.8863 0.1217
Cu3 Cu 0.13231(2) 0.84115(2) 0.08163(2)
O15 O 0.25270(14) 0.94196(13) 0.06643(3)
O16 O 0.02547(17) 0.89141(19) 0.06834(4)
H69 H 0.0539 0.9371 0.0578
O18 O 0.02118(14) 0.73598(14) 0.09728(3)
O19 O 0.11011(17) 0.6938(2) 0.11847(5)
C98 C 0.0301(2) 0.6812(2) 0.11174(5)
N17 N 0.10390(19) 0.74809(17) 0.05523(4)
N3_3 N 1.0000 -0.0000 0.28501(7)
O6 O 0.60863(13) 0.02260(19) 0.26690(3)
O7 O 0.69943(17) 0.16855(22) 0.28387(5)
C27 C 0.68581(18) 0.08768(25) 0.27650(5)
C28 C 0.76745(17) 0.06278(24) 0.27911(4)
C29 C 0.84952(19) 0.12155(26) 0.29245(5)
H21 H 0.8540 0.1762 0.2999
C30 C 0.92504(18) 0.09943(25) 0.29475(5)
H22 H 0.9790 0.1383 0.3040
C31 C 0.92021(16) 0.01934(23) 0.28324(4)
O14 O 0.55808(19) 0.19928(25) 0.26499(4)
H47 H 0.6038 0.2166 0.2755
H48 H 0.5096 0.2009 0.2723
N7 N 0.59943(15) 0.08847(23) 0.22461(4)
C67 C 0.8244(2) 0.1923(3) 0.17383(5)
H49 H 0.8661 0.2606 0.1736
C68 C 0.7432(2) 0.1518(3) 0.19066(5)
C69 C 0.7398(2) 0.2166(4) 0.20556(6)
H50 H 0.7860 0.2836 0.2045
C70 C 0.6684(2) 0.1833(3) 0.22213(5)
H51 H 0.6682 0.2293 0.2321
C71 C 0.6007(2) 0.0239(4) 0.21019(6)
C72 C 0.6713(3) 0.0523(4) 0.19301(5)
H53 H 0.6704 0.0052 0.1832
H55 H 0.3989 0.0085 0.3316
C76 C 0.4417(2) 0.0148(4) 0.29898(6)
H56 H 0.5060 0.0662 0.3013
C79 C 0.8423(2) 0.1410(3) 0.15950(5)
H59 H 0.8006 0.0727 0.1597
C80 C 0.9235(2) 0.1815(3) 0.14267(5)
C81 C 0.9269(2) 0.1167(4) 0.12777(6)
H60 H 0.8807 0.0497 0.1288
C82 C 0.9983(2) 0.1500(3) 0.11120(5)
H61 H 0.9985 0.1040 0.1012
C84 C 0.9954(3) 0.2810(4) 0.14032(5)
H63 H 0.9963 0.3281 0.1501
N3_4 N 1.0000 1.0000 0.28501(7)
C32 C 0.83797(17) 0.96032(25) 0.26975(4)
H23 H 0.8339 0.9064 0.2620
C33 C 0.76241(17) 0.98203(25) 0.26791(4)
H24 H 0.7074 0.9419 0.2590
O8 O 0.97740(19) 0.58603(14) 0.26690(3)
O9 O 0.83145(22) 0.53088(14) 0.28387(5)
C34 C 0.91232(25) 0.59813(18) 0.27650(5)
C35 C 0.93722(24) 0.70467(17) 0.27911(4)
C36 C 0.87845(26) 0.72797(18) 0.29245(5)
H25 H 0.8238 0.6778 0.2999
C37 C 0.90057(25) 0.82561(18) 0.29475(5)
H26 H 0.8617 0.8407 0.3040
C38 C 0.98066(23) 0.90087(16) 0.28324(4)
N8 N 0.41476(17) 0.97753(25) 0.27810(4)
H52 H 0.5530 0.9574 0.2116
C73 C 0.2137(3) 0.8660(5) 0.33389(7)
H54 H 0.2397 0.8920 0.3481
C74 C 0.2824(3) 0.9022(4) 0.31431(6)
C75 C 0.3778(3) 0.9799(4) 0.31735(6)
C77 C 0.3229(2) 0.9030(4) 0.27528(6)
H57 H 0.3031 0.8764 0.2608
C78 C 0.2556(3) 0.8634(5) 0.29280(7)
H58 H 0.1923 0.8106 0.2901
C85 C 0.1196(3) 0.8007(5) 0.33278(7)
H64 H 0.0936 0.7747 0.3186
C86 C 0.0509(3) 0.7645(4) 0.35236(6)
C89 C 0.0104(2) 0.7637(4) 0.39139(6)
H67 H 0.0302 0.7903 0.4059
C90 C 0.0777(3) 0.8033(5) 0.37387(7)
H68 H 0.1410 0.8561 0.3766
H70 H 0.9754 0.8429 0.0610
N12 N 0.6667 0.3333 0.13600(6)
C99 C 0.93449(17) 0.59218(17) 0.11922(4)
C100 C 0.93281(18) 0.52670(19) 0.13538(5)
H75 H 0.9916 0.5382 0.1421
C101 C 0.84396(18) 0.44398(18) 0.14162(5)
H76 H 0.8433 0.4018 0.1528
C102 C 0.75608(16) 0.42411(16) 0.13107(4)
C103 C 0.75754(17) 0.49057(17) 0.11515(4)
H77 H 0.6989 0.4793 0.1084
C104 C 0.84616(18) 0.57334(17) 0.10931(4)
H78 H 0.8466 0.6171 0.0985
O24 O 0.26402(14) 0.28519(20) 0.09728(3)
O25 O 0.3062(2) 0.41627(26) 0.11847(5)
C119 C 0.3188(2) 0.3488(3) 0.11174(5)
C120 C 0.40782(17) 0.34230(24) 0.11922(4)
C121 C 0.47330(19) 0.40610(26) 0.13538(5)
H87 H 0.4618 0.4533 0.1421
C122 C 0.55602(18) 0.39997(25) 0.14162(5)
H88 H 0.5982 0.4414 0.1528
C123 C 0.57589(16) 0.33196(23) 0.13107(4)
C124 C 0.50943(17) 0.26696(24) 0.11515(4)
H89 H 0.5207 0.2195 0.1084
C125 C 0.42666(17) 0.27281(25) 0.10931(4)
H90 H 0.3829 0.2294 0.0985
C127 C 0.65770(24) 0.06551(17) 0.11922(4)
C128 C 0.59390(26) 0.06719(18) 0.13538(5)
H91 H 0.5467 0.0084 0.1421
C129 C 0.60003(25) 0.15604(18) 0.14162(5)
H92 H 0.5586 0.1567 0.1528
C130 C 0.66804(23) 0.24392(16) 0.13107(4)
C131 C 0.73304(24) 0.24246(17) 0.11515(4)
H93 H 0.7805 0.3011 0.1084
C132 C 0.72719(25) 0.15384(18) 0.10931(4)
H94 H 0.7706 0.1534 0.0985
O28 O 0.10859(19) 0.13405(25) 0.06834(4)
H95 H 0.0629 0.1167 0.0578
H96 H 0.1571 0.1324 0.0610
H98 H 0.8676 0.0246 0.0610
N18 N 0.25191(17) 0.35580(25) 0.05523(4)
O26 O 0.71481(20) 0.97882(14) 0.09728(3)
O27 O 0.58373(26) 0.88989(17) 0.11847(5)
C126 C 0.6512(3) 0.9699(2) 0.11174(5)
O29 O 0.86595(25) 0.97453(17) 0.06834(4)
H97 H 0.8833 0.9461 0.0578
N16 N 0.75514(23) 0.82237(17) 0.10872(4)
N19 N 0.64420(25) 0.89610(19) 0.05523(4)
N10 N 0.91857(17) 0.68914(25) 0.38857(4)
C87 C 0.9555(3) 0.6868(4) 0.34932(6)
H65 H 0.9344 0.6582 0.3351
C88 C 0.8916(2) 0.6519(4) 0.36769(6)
H66 H 0.8273 0.6005 0.3654
Cu14 Cu 0.82551(2) 0.62449(3) 0.41497(2)
N8_2 N 0.02247(25) 0.43723(30) 0.27810(4)
H52_2 H 0.0426 0.5956 0.2116
C73_2 C 0.1340(5) 0.3477(6) 0.33389(7)
H54_2 H 0.1080 0.3477 0.3481
C74_2 C 0.0978(4) 0.3802(5) 0.31431(6)
C75_2 C 0.0201(4) 0.3979(5) 0.31735(6)
C77_2 C 0.0970(4) 0.4199(4) 0.27528(6)
H57_2 H 0.1236 0.4267 0.2608
C78_2 C 0.1366(5) 0.3922(6) 0.29280(7)
H58_2 H 0.1894 0.3817 0.2901
N10_2 N 0.31086(25) 0.22944(30) 0.38857(4)
C85_2 C 0.1993(5) 0.3190(6) 0.33278(7)
H64_2 H 0.2253 0.3190 0.3186
C86_2 C 0.2355(4) 0.2865(5) 0.35236(6)
C87_2 C 0.3132(4) 0.2688(5) 0.34932(6)
H65_2 H 0.3418 0.2763 0.3351
C88_2 C 0.3481(4) 0.2398(4) 0.36769(6)
H66_2 H 0.3995 0.2269 0.3654
C89_2 C 0.2363(4) 0.2468(4) 0.39139(6)
H67_2 H 0.2097 0.2400 0.4059
C90_2 C 0.1967(5) 0.2745(6) 0.37387(7)
H68_2 H 0.1439 0.2850 0.3766
Cu14_2 Cu 0.37551(3) 0.20103(4) 0.41497(2)
O14_2 O 0.80072(25) 0.35880(31) 0.26499(4)
H47_2 H 0.7834 0.3872 0.2755
H48_2 H 0.7991 0.3087 0.2723
N7_2 N 0.91153(23) 0.51096(27) 0.22461(4)
C67_2 C 0.8077(3) 0.6321(4) 0.17383(5)
H49_2 H 0.7394 0.6055 0.1736
C68_2 C 0.8482(3) 0.5914(4) 0.19066(5)
C69_2 C 0.7834(4) 0.5232(4) 0.20556(6)
H50_2 H 0.7164 0.5024 0.2045
C70_2 C 0.8167(3) 0.4851(4) 0.22213(5)
H51_2 H 0.7707 0.4389 0.2321
C71_2 C 0.9761(4) 0.5768(4) 0.21019(6)
C72_2 C 0.9477(4) 0.6190(5) 0.19301(5)
H53_2 H 0.9948 0.6652 0.1832
H55_2 H 0.9915 0.3904 0.3316
C76_2 C 0.9852(4) 0.4269(4) 0.29898(6)
H56_2 H 0.9338 0.4398 0.3013
C79_2 C 0.8590(3) 0.7012(4) 0.15950(5)
H59_2 H 0.9273 0.7278 0.1597
C80_2 C 0.8185(3) 0.7419(4) 0.14267(5)
C81_2 C 0.8833(4) 0.8101(4) 0.12777(6)
H60_2 H 0.9503 0.8309 0.1288
C82_2 C 0.8500(3) 0.8482(4) 0.11120(5)
H61_2 H 0.8960 0.8944 0.1012
C83_2 C 0.6906(4) 0.7565(4) 0.12314(6)
H62_2 H 0.6241 0.7377 0.1217
C84_2 C 0.7190(4) 0.7143(5) 0.14032(5)
H63_2 H 0.6719 0.6681 0.1501
O30_2 O 0.77525(19) 0.46739(25) 0.40168(4)
H99_2 H 0.7295 0.4501 0.3912
H100_2 H 0.8237 0.4658 0.3944
N13_2 N 0.73390(15) 0.57820(23) 0.44206(4)
C133_2 C 0.5089(2) 0.4744(3) 0.49284(5)
H101_2 H 0.4672 0.4061 0.4931
C134_2 C 0.5901(2) 0.5149(3) 0.47601(5)
C135_2 C 0.5935(2) 0.4501(4) 0.46111(6)
H102_2 H 0.5473 0.3831 0.4622
C136_2 C 0.6649(2) 0.4834(3) 0.44454(5)
H103_2 H 0.6651 0.4374 0.4346
C137_2 C 0.7326(2) 0.6428(4) 0.45648(6)
H104_2 H 0.7803 0.7093 0.4551
C138_2 C 0.6620(3) 0.6144(4) 0.47366(5)
H105_2 H 0.6629 0.6615 0.4835
N14_2 N 0.26610(15) 0.42180(23) 0.55794(4)
C139_2 C 0.4911(2) 0.5256(3) 0.50716(5)
H106_2 H 0.5328 0.5939 0.5069
C140_2 C 0.4099(2) 0.4851(3) 0.52399(5)
C141_2 C 0.4065(2) 0.5499(4) 0.53889(6)
H107_2 H 0.4527 0.6169 0.5378
C142_2 C 0.3351(2) 0.5166(3) 0.55546(5)
H108_2 H 0.3349 0.5626 0.5654
C143_2 C 0.2674(2) 0.3572(4) 0.54352(6)
H109_2 H 0.2197 0.2907 0.5449
C144_2 C 0.3380(3) 0.3856(4) 0.52634(5)
H110_2 H 0.3371 0.3385 0.5165
Cu10_2 Cu 0.17449(2) 0.37551(3) 0.58503(2)
O33_2 O 0.72470(13) 0.64407(19) 0.39977(3)
O35_2 O 0.93068(14) 0.61853(20) 0.43062(3)
O30_3 O 0.53261(25) 0.30787(17) 0.40168(4)
H99_3 H 0.5499 0.2795 0.3912
H100_3 H 0.5342 0.3580 0.3944
N13_3 N 0.42180(23) 0.15571(17) 0.44206(4)
C133_3 C 0.5256(3) 0.0346(2) 0.49284(5)
H101_3 H 0.5939 0.0612 0.4931
C134_3 C 0.4851(3) 0.0753(2) 0.47601(5)
C135_3 C 0.5499(4) 0.1435(3) 0.46111(6)
H102_3 H 0.6169 0.1643 0.4622
C136_3 C 0.5166(3) 0.1816(2) 0.44454(5)
H103_3 H 0.5626 0.2278 0.4346
C137_3 C 0.3572(4) 0.0899(3) 0.45648(6)
H104_3 H 0.2907 0.0711 0.4551
C138_3 C 0.3856(4) 0.0477(3) 0.47366(5)
H105_3 H 0.3385 0.0015 0.4835
O33_3 O 0.35593(19) 0.08064(14) 0.39977(3)
O35_3 O 0.38147(20) 0.31216(14) 0.43062(3)
N14_3 N 0.57820(23) 0.84429(17) 0.55794(4)
C139_3 C 0.4744(3) 0.9654(2) 0.50716(5)
H106_3 H 0.4061 0.9388 0.5069
C140_3 C 0.5149(3) 0.9247(2) 0.52399(5)
C141_3 C 0.4501(4) 0.8565(3) 0.53889(6)
H107_3 H 0.3831 0.8357 0.5378
C142_3 C 0.4834(3) 0.8184(2) 0.55546(5)
H108_3 H 0.4374 0.7722 0.5654
C143_3 C 0.6428(4) 0.9101(3) 0.54352(6)
H109_3 H 0.7093 0.9289 0.5449
C144_3 C 0.6144(4) 0.9523(3) 0.52634(5)
H110_3 H 0.6615 0.9985 0.5165
Cu10_3 Cu 0.62449(3) 0.79897(2) 0.58503(2)
O10_2 O 0.06932(14) 0.38147(20) 0.56938(3)
O11_2 O 0.0272(2) 0.25039(26) 0.54819(5)
C41_2 C 0.0146(2) 0.3178(3) 0.55492(5)
N14_4 N 0.82237(17) 0.06724(15) 0.89128(4)
C143_4 C 0.7565(3) 0.0660(2) 0.87686(6)
H109_4 H 0.7377 0.1137 0.8783
Cu10_4 Cu 0.86769(2) 0.15885(2) 0.91837(2)
N4_5 N 0.6667 0.3333 0.53066(6)
C7_2 C 0.3190(4) 0.1196(3) 0.66722(7)
H8_2 H 0.3190 0.0936 0.6814
C8_2 C 0.2865(3) 0.0509(3) 0.64764(6)
C11_2 C 0.2468(3) 0.0104(2) 0.60861(6)
H11_2 H 0.2400 0.0302 0.5941
C12_2 C 0.2745(4) 0.0777(3) 0.62613(7)
H12_2 H 0.2850 0.1410 0.6234
C21_2 C 0.39885(17) 0.07448(17) 0.54744(4)
C22_2 C 0.40053(18) 0.13996(19) 0.53128(5)
H17_2 H 0.3418 0.1284 0.5245
C23_2 C 0.48938(18) 0.22268(18) 0.52504(5)
H18_2 H 0.4901 0.2648 0.5138
C24_2 C 0.57726(16) 0.24255(16) 0.53559(4)
C25_2 C 0.57580(17) 0.17609(17) 0.55151(4)
H19_2 H 0.6345 0.1873 0.5582
C26_2 C 0.48718(18) 0.09332(17) 0.55735(4)
H20_2 H 0.4868 0.0495 0.5681
C42_2 C 0.92552(17) 0.32436(24) 0.54744(4)
C43_2 C 0.86004(19) 0.26056(26) 0.53128(5)
H29_2 H 0.8716 0.2133 0.5245
C44_2 C 0.77732(18) 0.26669(25) 0.52504(5)
H30_2 H 0.7352 0.2252 0.5138
C45_2 C 0.75745(16) 0.33470(23) 0.53559(4)
C46_2 C 0.82391(17) 0.39970(24) 0.55151(4)
H31_2 H 0.8127 0.4471 0.5582
C47_2 C 0.90668(17) 0.39385(25) 0.55735(4)
H32_2 H 0.9505 0.4372 0.5681
O12_2 O 0.61853(20) 0.68784(14) 0.56938(3)
O13_2 O 0.74961(26) 0.77677(17) 0.54819(5)
C48_2 C 0.6822(3) 0.6967(2) 0.55492(5)
C49_2 C 0.67564(24) 0.60115(17) 0.54744(4)
C50_2 C 0.73944(26) 0.59947(18) 0.53128(5)
H33_2 H 0.7867 0.6582 0.5245
C51_2 C 0.73331(25) 0.51062(18) 0.52504(5)
H34_2 H 0.7748 0.5099 0.5138
C52_2 C 0.66530(23) 0.42274(16) 0.53559(4)
C53_2 C 0.60030(24) 0.42420(17) 0.55151(4)
H35_2 H 0.5529 0.3655 0.5582
C54_2 C 0.60615(25) 0.51282(18) 0.55735(4)
H36_2 H 0.5628 0.5132 0.5681
N6_2 N 0.43723(19) 0.41476(17) 0.72190(4)
C61_2 C 0.3477(4) 0.2137(3) 0.66611(7)
H42_2 H 0.3477 0.2397 0.6519
C62_2 C 0.3802(3) 0.2824(3) 0.68569(6)
C63_2 C 0.3979(3) 0.3778(3) 0.68265(6)
H43_2 H 0.3904 0.3989 0.6684
C64_2 C 0.4269(3) 0.4417(2) 0.70102(6)
H44_2 H 0.4398 0.5060 0.6987
C65_2 C 0.4199(3) 0.3229(2) 0.72472(6)
H45_2 H 0.4267 0.3031 0.7392
C66_2 C 0.3922(4) 0.2556(3) 0.70720(7)
H46_2 H 0.3817 0.1923 0.7099
O23_2 O 0.50188(22) 0.13579(14) 0.38280(5)
C112_2 C 0.42101(25) 0.06854(18) 0.39017(5)
Cu6_2 Cu 0.46564(2) 0.50782(2) 0.74830(2)
O30_4 O 0.35880(17) 0.55808(19) 0.73501(4)
H99_4 H 0.3872 0.6038 0.7245
H100_4 H 0.3087 0.5096 0.7277
N13_4 N 0.51096(17) 0.59943(15) 0.77539(4)
C133_4 C 0.6321(2) 0.8244(2) 0.82617(5)
H101_4 H 0.6055 0.8661 0.8264
C134_4 C 0.5914(2) 0.7432(2) 0.80934(5)
C135_4 C 0.5232(3) 0.7398(2) 0.79444(6)
H102_4 H 0.5024 0.7860 0.7955
C136_4 C 0.4851(2) 0.6684(2) 0.77787(5)
H103_4 H 0.4389 0.6682 0.7679
C137_4 C 0.5768(3) 0.6007(2) 0.78981(6)
H104_4 H 0.5956 0.5530 0.7884
C138_4 C 0.6190(3) 0.6713(3) 0.80699(5)
H105_4 H 0.6652 0.6704 0.8168
C139_4 C 0.7012(2) 0.8423(2) 0.84050(5)
H106_4 H 0.7278 0.8006 0.8403
C140_4 C 0.7419(2) 0.9235(2) 0.85733(5)
C141_4 C 0.8101(3) 0.9269(2) 0.87223(6)
H107_4 H 0.8309 0.8807 0.8712
C142_4 C 0.8482(2) 0.9983(2) 0.88880(5)
H108_4 H 0.8944 0.9985 0.8988
C144_4 C 0.7143(3) 0.9954(3) 0.85968(5)
H110_4 H 0.6681 0.9963 0.8499
O33_4 O 0.58603(14) 0.60863(13) 0.73310(3)
O35_4 O 0.35451(14) 0.40265(14) 0.76395(3)
O1_2 O 0.08064(14) 0.72470(13) 0.60023(3)
O2_2 O 0.30787(17) 0.77525(19) 0.59832(4)
H1_2 H 0.2795 0.7295 0.6088
H2_2 H 0.3580 0.8237 0.6056
O3_2 O 0.13579(14) 0.63390(17) 0.61720(5)
O4_2 O 0.31216(14) 0.93068(14) 0.56938(3)
O5_2 O 0.22323(17) 0.9728(2) 0.54819(5)
N2_2 N 0.22944(19) 0.91857(17) 0.61143(4)
C9_2 C 0.2688(3) 0.9555(3) 0.65068(6)
H9_2 H 0.2763 0.9344 0.6649
C10_2 C 0.2398(3) 0.8916(2) 0.63231(6)
H10_2 H 0.2269 0.8273 0.6346
C13_2 C 0.06854(18) 0.64752(18) 0.60983(5)
C20_2 C 0.3033(2) 0.9854(2) 0.55492(5)
N11_2 N 0.3333 0.6667 0.38166(7)
C92_2 C 0.03800(17) 0.43412(17) 0.38756(4)
C93_2 C 0.06130(18) 0.51619(19) 0.37422(5)
H71_2 H 0.0111 0.5207 0.3668
C94_2 C 0.15894(18) 0.59171(18) 0.37192(5)
H72_2 H 0.1740 0.6457 0.3627
C95_2 C 0.23420(16) 0.58688(16) 0.38343(4)
C96_2 C 0.21098(18) 0.50464(17) 0.39692(4)
H73_2 H 0.2608 0.5006 0.4047
C97_2 C 0.11371(18) 0.42908(17) 0.39876(4)
H74_2 H 0.0988 0.3741 0.4077
O21_2 O 0.63390(17) 0.49812(22) 0.38280(5)
C105_2 C 0.64752(18) 0.57899(25) 0.39017(5)
C106_2 C 0.56588(17) 0.60389(24) 0.38756(4)
C107_2 C 0.48381(19) 0.54512(26) 0.37422(5)
H79_2 H 0.4793 0.4905 0.3668
C108_2 C 0.40829(18) 0.56724(25) 0.37192(5)
H80_2 H 0.3543 0.5284 0.3627
C109_2 C 0.41312(16) 0.64733(23) 0.38343(4)
C110_2 C 0.49536(17) 0.70635(25) 0.39692(4)
H81_2 H 0.4994 0.7603 0.4047
C111_2 C 0.57092(17) 0.68464(25) 0.39876(4)
H82_2 H 0.6259 0.7248 0.4077
C113_2 C 0.39611(24) 0.96200(17) 0.38756(4)
C114_2 C 0.45488(26) 0.93870(18) 0.37422(5)
H83_2 H 0.5095 0.9889 0.3668
C115_2 C 0.43276(25) 0.84106(18) 0.37192(5)
H84_2 H 0.4716 0.8260 0.3627
C116_2 C 0.35267(23) 0.76580(16) 0.38343(4)
C117_2 C 0.29365(25) 0.78902(18) 0.39692(4)
H85_2 H 0.2397 0.7392 0.4047
C118_2 C 0.31536(25) 0.88629(18) 0.39876(4)
H86_2 H 0.2752 0.9012 0.4077
N3_5 N 0.6667 0.3333 0.61834(7)
C14_2 C 0.96200(17) 0.56588(17) 0.61244(4)
C15_2 C 0.93870(18) 0.48381(19) 0.62578(5)
H13_2 H 0.9889 0.4793 0.6332
C16_2 C 0.84106(18) 0.40829(18) 0.62808(5)
H14_2 H 0.8260 0.3543 0.6373
C17_2 C 0.76580(16) 0.41312(16) 0.61657(4)
C18_2 C 0.78902(18) 0.49536(17) 0.60308(4)
H15_2 H 0.7392 0.4994 0.5953
C19_2 C 0.88629(18) 0.57092(17) 0.60124(4)
H16_2 H 0.9012 0.6259 0.5923
O6_2 O 0.27530(13) 0.35593(19) 0.60023(3)
O7_2 O 0.36610(17) 0.50188(22) 0.61720(5)
C27_2 C 0.35248(18) 0.42101(25) 0.60983(5)
C28_2 C 0.43412(17) 0.39611(24) 0.61244(4)
C29_2 C 0.51619(19) 0.45488(26) 0.62578(5)
H21_2 H 0.5207 0.5095 0.6332
C30_2 C 0.59171(18) 0.43276(25) 0.62808(5)
H22_2 H 0.6457 0.4716 0.6373
C31_2 C 0.58688(16) 0.35267(23) 0.61657(4)
C32_2 C 0.50464(17) 0.29365(25) 0.60308(4)
H23_2 H 0.5006 0.2397 0.5953
C33_2 C 0.42908(17) 0.31536(25) 0.60124(4)
H24_2 H 0.3741 0.2752 0.5923
C35_2 C 0.60389(24) 0.03800(17) 0.61244(4)
C36_2 C 0.54512(26) 0.06130(18) 0.62578(5)
H25_2 H 0.4905 0.0111 0.6332
C37_2 C 0.56724(25) 0.15894(18) 0.62808(5)
H26_2 H 0.5284 0.1740 0.6373
C38_2 C 0.64733(23) 0.23420(16) 0.61657(4)
C39_2 C 0.70635(25) 0.21098(18) 0.60308(4)
H27_2 H 0.7603 0.2608 0.5953
C40_2 C 0.68464(25) 0.11371(18) 0.60124(4)
H28_2 H 0.7248 0.0988 0.5923
O14_3 O 0.22475(19) 0.53261(25) 0.59832(4)
H47_3 H 0.2705 0.5499 0.6088
H48_3 H 0.1763 0.5342 0.6056
N8_3 N 0.08143(17) 0.31086(25) 0.61143(4)
C75_3 C 0.0445(3) 0.3132(4) 0.65068(6)
H55_3 H 0.0656 0.3418 0.6649
C76_3 C 0.1084(2) 0.3481(4) 0.63231(6)
H56_3 H 0.1727 0.3995 0.6346
O17_2 O 0.86421(14) 0.36610(17) 0.38280(5)
O19_2 O 0.77677(17) 0.0272(2) 0.45181(5)
C91_2 C 0.93146(18) 0.35248(18) 0.39017(5)
C98_2 C 0.6967(2) 0.0146(2) 0.44508(5)
O8_2 O 0.64407(19) 0.91936(14) 0.60023(3)
O9_2 O 0.49812(22) 0.86421(14) 0.61720(5)
C34_2 C 0.57899(25) 0.93146(18) 0.60983(5)
N12_2 N 0.3333 0.6667 0.46934(6)
C99_2 C 0.60115(17) 0.92552(17) 0.45256(4)
C100_2 C 0.59947(18) 0.86004(19) 0.46872(5)
H75_2 H 0.6582 0.8716 0.4755
C101_2 C 0.51062(18) 0.77732(18) 0.47496(5)
H76_2 H 0.5099 0.7352 0.4862
C102_2 C 0.42274(16) 0.75745(16) 0.46441(4)
C103_2 C 0.42420(17) 0.82391(17) 0.44849(4)
H77_2 H 0.3655 0.8127 0.4418
C104_2 C 0.51282(18) 0.90668(17) 0.44265(4)
H78_2 H 0.5132 0.9505 0.4319
C120_2 C 0.07448(17) 0.67564(24) 0.45256(4)
C121_2 C 0.13996(19) 0.73944(26) 0.46872(5)
H87_2 H 0.1284 0.7867 0.4755
C122_2 C 0.22268(18) 0.73331(25) 0.47496(5)
H88_2 H 0.2648 0.7748 0.4862
C123_2 C 0.24255(16) 0.66530(23) 0.46441(4)
C124_2 C 0.17609(17) 0.60030(24) 0.44849(4)
H89_2 H 0.1873 0.5529 0.4418
C125_2 C 0.09332(17) 0.60615(25) 0.44265(4)
H90_2 H 0.0495 0.5628 0.4319
O27_2 O 0.25039(26) 0.22323(17) 0.45181(5)
C126_2 C 0.3178(3) 0.3033(2) 0.44508(5)
C127_2 C 0.32436(24) 0.39885(17) 0.45256(4)
C128_2 C 0.26056(26) 0.40053(18) 0.46872(5)
H91_2 H 0.2133 0.3418 0.4755
C129_2 C 0.26669(25) 0.48938(18) 0.47496(5)
H92_2 H 0.2252 0.4901 0.4862
C130_2 C 0.33470(23) 0.57726(16) 0.46441(4)
C131_2 C 0.39970(24) 0.57580(17) 0.44849(4)
H93_2 H 0.4471 0.6345 0.4418
C132_2 C 0.39385(25) 0.48718(18) 0.44265(4)
H94_2 H 0.4372 0.4868 0.4319
C73_3 C 0.8804(3) 0.1993(5) 0.66722(7)
H54_3 H 0.9064 0.2253 0.6814
C74_3 C 0.9491(3) 0.2355(4) 0.64764(6)
C77_3 C 0.9896(2) 0.2363(4) 0.60861(6)
H57_3 H 0.9698 0.2097 0.5941
C78_3 C 0.9223(3) 0.1967(5) 0.62613(7)
H58_3 H 0.8590 0.1439 0.6234
N10_3 N 0.58524(17) 0.02247(25) 0.72190(4)
C85_3 C 0.7863(3) 0.1340(5) 0.66611(7)
H64_3 H 0.7603 0.1080 0.6519
C86_3 C 0.7176(3) 0.0978(4) 0.68569(6)
C87_3 C 0.6222(3) 0.0201(4) 0.68265(6)
C89_3 C 0.6771(2) 0.0970(4) 0.72472(6)
H67_3 H 0.6969 0.1236 0.7392
C90_3 C 0.7444(3) 0.1366(5) 0.70720(7)
H68_3 H 0.8077 0.1894 0.7099
H65_3 H 0.6011 0.9915 0.6684
C88_3 C 0.5583(2) 0.9852(4) 0.70102(6)
H66_3 H 0.4940 0.9338 0.6987
O25_2 O 0.9728(2) 0.74961(26) 0.45181(5)
C119_2 C 0.9854(2) 0.6822(3) 0.44508(5)
Cu14_3 Cu 0.49218(2) 0.95782(3) 0.74830(2)
H65_4 H 0.0085 0.6096 0.6684
C88_4 C 0.0148(4) 0.5731(4) 0.70102(6)
H66_4 H 0.0662 0.5602 0.6987
Cu14_4 Cu 0.04218(3) 0.53436(4) 0.74830(2)
O14_4 O 0.46739(25) 0.69213(31) 0.59832(4)
H47_4 H 0.4501 0.7205 0.6088
H48_4 H 0.4658 0.6420 0.6056
N8_4 N 0.68914(25) 0.77056(30) 0.61143(4)
C73_4 C 0.8007(5) 0.6810(6) 0.66722(7)
H54_4 H 0.7747 0.6810 0.6814
C74_4 C 0.7645(4) 0.7135(5) 0.64764(6)
C75_4 C 0.6868(4) 0.7312(5) 0.65068(6)
H55_4 H 0.6582 0.7237 0.6649
C76_4 C 0.6519(4) 0.7602(4) 0.63231(6)
H56_4 H 0.6005 0.7731 0.6346
C77_4 C 0.7637(4) 0.7532(4) 0.60861(6)
H57_4 H 0.7903 0.7600 0.5941
C78_4 C 0.8033(5) 0.7255(6) 0.62613(7)
H58_4 H 0.8561 0.7150 0.6234
N10_4 N 0.97753(25) 0.56277(30) 0.72190(4)
C85_4 C 0.8660(5) 0.6523(6) 0.66611(7)
H64_4 H 0.8920 0.6523 0.6519
C86_4 C 0.9022(4) 0.6198(5) 0.68569(6)
C87_4 C 0.9799(4) 0.6021(5) 0.68265(6)
C89_4 C 0.9030(4) 0.5801(4) 0.72472(6)
H67_4 H 0.8764 0.5733 0.7392
C90_4 C 0.8634(5) 0.6078(6) 0.70720(7)
H68_4 H 0.8106 0.6183 0.7099
H104_5 H 0.4470 0.0426 0.7884
O30_5 O 0.44192(19) 0.80072(25) 0.73501(4)
H99_5 H 0.3962 0.7834 0.7245
H100_5 H 0.4904 0.7991 0.7277
N13_5 N 0.40057(15) 0.91153(23) 0.77539(4)
C133_5 C 0.1756(2) 0.8077(3) 0.82617(5)
H101_5 H 0.1339 0.7394 0.8264
C134_5 C 0.2568(2) 0.8482(3) 0.80934(5)
C135_5 C 0.2602(2) 0.7834(4) 0.79444(6)
H102_5 H 0.2140 0.7164 0.7955
C136_5 C 0.3316(2) 0.8167(3) 0.77787(5)
H103_5 H 0.3318 0.7707 0.7679
C137_5 C 0.3993(2) 0.9761(4) 0.78981(6)
C138_5 C 0.3287(3) 0.9477(4) 0.80699(5)
H105_5 H 0.3296 0.9948 0.8168
C139_5 C 0.1577(2) 0.8590(3) 0.84050(5)
H106_5 H 0.1994 0.9273 0.8403
C140_5 C 0.0765(2) 0.8185(3) 0.85733(5)
C141_5 C 0.0731(2) 0.8833(4) 0.87223(6)
H107_5 H 0.1193 0.9503 0.8712
C142_5 C 0.0017(2) 0.8500(3) 0.88880(5)
H108_5 H 0.0015 0.8960 0.8988
C144_5 C 0.0046(3) 0.7190(4) 0.85968(5)
H110_5 H 0.0037 0.6719 0.8499
O33_5 O 0.39137(13) 0.97740(19) 0.73310(3)
O35_5 O 0.59735(14) 0.95186(20) 0.76395(3)
N14_5 N 0.93276(15) 0.75514(23) 0.89128(4)
C143_5 C 0.9340(2) 0.6906(4) 0.87686(6)
H109_5 H 0.8863 0.6241 0.8783
Cu10_5 Cu 0.84115(2) 0.70885(3) 0.91837(2)
O30_6 O 0.19928(25) 0.64120(17) 0.73501(4)
H99_6 H 0.2166 0.6128 0.7245
H100_6 H 0.2009 0.6913 0.7277
N13_6 N 0.08847(23) 0.48904(17) 0.77539(4)
C133_6 C 0.1923(3) 0.3679(2) 0.82617(5)
H101_6 H 0.2606 0.3945 0.8264
C134_6 C 0.1518(3) 0.4086(2) 0.80934(5)
C135_6 C 0.2166(4) 0.4768(3) 0.79444(6)
H102_6 H 0.2836 0.4976 0.7955
C136_6 C 0.1833(3) 0.5149(2) 0.77787(5)
H103_6 H 0.2293 0.5611 0.7679
C137_6 C 0.0239(4) 0.4232(3) 0.78981(6)
C138_6 C 0.0523(4) 0.3810(3) 0.80699(5)
H105_6 H 0.0052 0.3348 0.8168
N14_6 N 0.24486(23) 0.17763(17) 0.89128(4)
C139_6 C 0.1410(3) 0.2988(2) 0.84050(5)
H106_6 H 0.0727 0.2722 0.8403
C140_6 C 0.1815(3) 0.2581(2) 0.85733(5)
C141_6 C 0.1167(4) 0.1899(3) 0.87223(6)
H107_6 H 0.0497 0.1691 0.8712
C142_6 C 0.1500(3) 0.1518(2) 0.88880(5)
H108_6 H 0.1040 0.1056 0.8988
C143_6 C 0.3094(4) 0.2435(3) 0.87686(6)
H109_6 H 0.3759 0.2623 0.8783
C144_6 C 0.2810(4) 0.2857(3) 0.85968(5)
H110_6 H 0.3281 0.3319 0.8499
Cu10_6 Cu 0.29115(3) 0.13231(2) 0.91837(2)
O33_6 O 0.02260(19) 0.41397(14) 0.73310(3)
O35_6 O 0.04814(20) 0.64549(14) 0.76395(3)
H104_6 H 0.9574 0.4044 0.7884
O12_3 O 0.28519(20) 0.02118(14) 0.90272(3)
O13_3 O 0.41627(26) 0.11011(17) 0.88153(5)
C48_3 C 0.3488(3) 0.0301(2) 0.88826(5)
C62_3 C 0.0469(3) 0.6157(3) 0.01902(6)
C63_3 C 0.0646(3) 0.7111(3) 0.01598(6)
H43_3 H 0.0571 0.7322 0.0017
C64_3 C 0.0936(3) 0.7750(2) 0.03435(6)
H44_3 H 0.1065 0.8393 0.0320
C65_3 C 0.0866(3) 0.6562(2) 0.05805(6)
H45_3 H 0.0934 0.6364 0.0725
C66_3 C 0.0589(4) 0.5889(3) 0.04053(7)
H46_3 H 0.0484 0.5256 0.0432
H2_3 H 0.0246 0.1571 0.9390
N4_6 N 0.3333 0.6667 0.86400(6)
C21_3 C 0.06551(17) 0.40782(17) 0.88078(4)
C22_3 C 0.06719(18) 0.47330(19) 0.86462(5)
H17_3 H 0.0084 0.4618 0.8579
C23_3 C 0.15604(18) 0.55602(18) 0.85838(5)
H18_3 H 0.1567 0.5982 0.8472
C24_3 C 0.24392(16) 0.57589(16) 0.86893(4)
C25_3 C 0.24246(17) 0.50943(17) 0.88485(4)
H19_3 H 0.3011 0.5207 0.8916
C26_3 C 0.15384(18) 0.42666(17) 0.89069(4)
H20_3 H 0.1534 0.3829 0.9015
O10_3 O 0.73598(14) 0.71481(20) 0.90272(3)
O11_3 O 0.6938(2) 0.58373(26) 0.88153(5)
C41_3 C 0.6812(2) 0.6512(3) 0.88826(5)
C42_3 C 0.59218(17) 0.65770(24) 0.88078(4)
C43_3 C 0.52670(19) 0.59390(26) 0.86462(5)
H29_3 H 0.5382 0.5467 0.8579
C44_3 C 0.44398(18) 0.60003(25) 0.85838(5)
H30_3 H 0.4018 0.5586 0.8472
C45_3 C 0.42411(16) 0.66804(23) 0.86893(4)
C46_3 C 0.49057(17) 0.73304(24) 0.88485(4)
H31_3 H 0.4793 0.7805 0.8916
C47_3 C 0.57334(17) 0.72719(25) 0.89069(4)
H32_3 H 0.6171 0.7706 0.9015
C49_3 C 0.34230(24) 0.93449(17) 0.88078(4)
C50_3 C 0.40610(26) 0.93281(18) 0.86462(5)
H33_3 H 0.4533 0.9916 0.8579
C51_3 C 0.39997(25) 0.84396(18) 0.85838(5)
H34_3 H 0.4414 0.8433 0.8472
C52_3 C 0.33196(23) 0.75608(16) 0.86893(4)
C53_3 C 0.26696(24) 0.75754(17) 0.88485(4)
H35_3 H 0.2195 0.6989 0.8916
C54_3 C 0.27281(25) 0.84616(18) 0.89069(4)
H36_3 H 0.2294 0.8466 0.9015
C61_3 C 0.0144(4) 0.5470(3) 0.99944(7)
H42_3 H 0.0144 0.5730 0.9852
N11_3 N 0.0000 0.0000 0.71499(7)
C110_3 C 0.16203(17) 0.03968(25) 0.73025(4)
H81_3 H 0.1661 0.0936 0.7380
C111_3 C 0.23759(17) 0.01797(25) 0.73209(4)
H82_3 H 0.2926 0.0581 0.7410
O23_3 O 0.16855(22) 0.46912(14) 0.71613(5)
C112_3 C 0.08768(25) 0.40187(18) 0.72350(5)
C113_3 C 0.06278(24) 0.29533(17) 0.72089(4)
C114_3 C 0.12155(26) 0.27203(18) 0.70755(5)
H83_3 H 0.1762 0.3222 0.7001
C115_3 C 0.09943(25) 0.17439(18) 0.70525(5)
H84_3 H 0.1383 0.1593 0.6960
C116_3 C 0.01934(23) 0.09913(16) 0.71676(4)
N11_4 N 0.0000 1.0000 0.71499(7)
O21_3 O 0.30057(17) 0.83145(22) 0.71613(5)
C105_3 C 0.31419(18) 0.91232(25) 0.72350(5)
C106_3 C 0.23255(17) 0.93722(24) 0.72089(4)
C107_3 C 0.15048(19) 0.87845(26) 0.70755(5)
H79_3 H 0.1460 0.8238 0.7001
C108_3 C 0.07496(18) 0.90057(25) 0.70525(5)
H80_3 H 0.0210 0.8617 0.6960
C109_3 C 0.07979(16) 0.98066(23) 0.71676(4)
C7_3 C 0.9856(4) 0.4530(3) 0.00056(7)
H8_3 H 0.9856 0.4270 0.0148
O1_3 O 0.74730(14) 0.05804(13) 0.93357(3)
O2_3 O 0.97453(17) 0.10859(19) 0.93166(4)
H1_3 H 0.9461 0.0629 0.9422
O4_3 O 0.97882(14) 0.26402(14) 0.90272(3)
O5_3 O 0.88989(17) 0.3062(2) 0.88153(5)
N2_3 N 0.89610(19) 0.25191(17) 0.94477(4)
C8_3 C 0.9531(3) 0.3843(3) 0.98098(6)
C9_3 C 0.9354(3) 0.2889(3) 0.98402(6)
H9_3 H 0.9429 0.2678 0.9983
C10_3 C 0.9064(3) 0.2250(2) 0.96565(6)
H10_3 H 0.8935 0.1607 0.9680
C11_3 C 0.9134(3) 0.3438(2) 0.94195(6)
H11_3 H 0.9066 0.3636 0.9275
C12_3 C 0.9411(4) 0.4111(3) 0.95947(7)
H12_3 H 0.9516 0.4744 0.9568
C20_3 C 0.9699(2) 0.3188(2) 0.88826(5)
N11_5 N 1.0000 0.0000 0.71499(7)
C117_3 C 0.96032(25) 0.12235(18) 0.73025(4)
H85_3 H 0.9064 0.0725 0.7380
C118_3 C 0.98203(25) 0.21962(18) 0.73209(4)
H86_3 H 0.9419 0.2345 0.7410
O3_3 O 0.80245(14) 0.96724(17) 0.95054(5)
N3_6 N 0.3333 0.6667 0.95168(7)
C13_3 C 0.73520(18) 0.98086(18) 0.94317(5)
C14_3 C 0.62866(17) 0.89922(17) 0.94578(4)
C15_3 C 0.60536(18) 0.81715(19) 0.95912(5)
H13_3 H 0.6555 0.8127 0.9666
C16_3 C 0.50772(18) 0.74163(18) 0.96142(5)
H14_3 H 0.4926 0.6877 0.9707
C17_3 C 0.43246(16) 0.74646(16) 0.94991(4)
C18_3 C 0.45568(18) 0.82870(17) 0.93642(4)
H15_3 H 0.4058 0.8328 0.9287
C19_3 C 0.55295(18) 0.90426(17) 0.93458(4)
H16_3 H 0.5678 0.9593 0.9257
O7_3 O 0.03276(17) 0.83522(22) 0.95054(5)
C27_3 C 0.01914(18) 0.75435(25) 0.94317(5)
C28_3 C 0.10078(17) 0.72945(24) 0.94578(4)
C29_3 C 0.18285(19) 0.78822(26) 0.95912(5)
H21_3 H 0.1873 0.8429 0.9666
C30_3 C 0.25837(18) 0.76610(25) 0.96142(5)
H22_3 H 0.3123 0.8050 0.9707
C31_3 C 0.25354(16) 0.68601(23) 0.94991(4)
C32_3 C 0.17130(17) 0.62699(25) 0.93642(4)
H23_3 H 0.1672 0.5731 0.9287
C33_3 C 0.09574(17) 0.64870(25) 0.93458(4)
H24_3 H 0.0407 0.6086 0.9257
O8_3 O 0.31073(19) 0.25270(14) 0.93357(3)
O9_3 O 0.16478(22) 0.19755(14) 0.95054(5)
C34_3 C 0.24565(25) 0.26480(18) 0.94317(5)
C35_3 C 0.27055(24) 0.37134(17) 0.94578(4)
C36_3 C 0.21178(26) 0.39464(18) 0.95912(5)
H25_3 H 0.1571 0.3445 0.9666
C37_3 C 0.23390(25) 0.49228(18) 0.96142(5)
H26_3 H 0.1950 0.5074 0.9707
C38_3 C 0.31399(23) 0.56754(16) 0.94991(4)
C39_3 C 0.37301(25) 0.54432(18) 0.93642(4)
H27_3 H 0.4269 0.5942 0.9287
C40_3 C 0.35130(25) 0.44705(18) 0.93458(4)
H28_3 H 0.3914 0.4322 0.9257
O17_3 O 0.53088(14) 0.69943(17) 0.71613(5)
O19_3 O 0.44344(17) 0.3605(2) 0.78514(5)
N11_6 N 1.0000 1.0000 0.71499(7)
N12_3 N 0.0000 -0.0000 0.80267(6)
C91_3 C 0.59813(18) 0.68581(18) 0.72350(5)
C92_3 C 0.70467(17) 0.76745(17) 0.72089(4)
C93_3 C 0.72797(18) 0.84952(19) 0.70755(5)
H71_3 H 0.6778 0.8540 0.7001
C94_3 C 0.82561(18) 0.92504(18) 0.70525(5)
H72_3 H 0.8407 0.9790 0.6960
C95_3 C 0.90087(16) 0.92021(16) 0.71676(4)
C96_3 C 0.87765(18) 0.83797(17) 0.73025(4)
H73_3 H 0.9275 0.8339 0.7380
C97_3 C 0.78038(18) 0.76241(17) 0.73209(4)
H74_3 H 0.7655 0.7074 0.7410
C98_3 C 0.3634(2) 0.3479(2) 0.77841(5)
C99_3 C 0.26782(17) 0.25885(17) 0.78589(4)
C100_3 C 0.26614(18) 0.19337(19) 0.80205(5)
H75_3 H 0.3249 0.2049 0.8088
C101_3 C 0.17729(18) 0.11065(18) 0.80829(5)
H76_3 H 0.1766 0.0685 0.8195
C102_3 C 0.08941(16) 0.09078(16) 0.79774(4)
C103_3 C 0.09087(17) 0.15724(17) 0.78182(4)
H77_3 H 0.0322 0.1460 0.7751
C104_3 C 0.17949(18) 0.24001(17) 0.77598(4)
H78_3 H 0.1799 0.2838 0.7652
N12_4 N 0.0000 1.0000 0.80267(6)
C130_3 C 0.00137(23) 0.91059(16) 0.79774(4)
C131_3 C 0.06637(24) 0.90913(17) 0.78182(4)
H93_3 H 0.1138 0.9678 0.7751
C132_3 C 0.06052(25) 0.82051(18) 0.77598(4)
H94_3 H 0.1039 0.8201 0.7652
C73_5 C 0.5470(3) 0.5327(5) 0.00056(7)
H54_5 H 0.5730 0.5587 0.0148
C86_5 C 0.3843(3) 0.4311(4) 0.01902(6)
C87_5 C 0.2889(3) 0.3534(4) 0.01598(6)
H65_5 H 0.2678 0.3248 0.0017
C88_5 C 0.2250(2) 0.3185(4) 0.03435(6)
H66_5 H 0.1607 0.2671 0.0320
C89_5 C 0.3438(2) 0.4303(4) 0.05805(6)
H67_5 H 0.3636 0.4569 0.0725
C90_5 C 0.4111(3) 0.4699(5) 0.04053(7)
H68_5 H 0.4744 0.5227 0.0432
O6_3 O 0.94196(13) 0.68927(19) 0.93357(3)
O14_5 O 0.89141(19) 0.86595(25) 0.93166(4)
H47_5 H 0.9371 0.8833 0.9422
H48_5 H 0.8429 0.8676 0.9390
N8_5 N 0.74809(17) 0.64420(25) 0.94477(4)
C74_5 C 0.6157(3) 0.5689(4) 0.98098(6)
C75_5 C 0.7111(3) 0.6466(4) 0.98402(6)
H55_5 H 0.7322 0.6752 0.9983
C76_5 C 0.7750(2) 0.6815(4) 0.96565(6)
H56_5 H 0.8393 0.7329 0.9680
C77_5 C 0.6562(2) 0.5697(4) 0.94195(6)
H57_5 H 0.6364 0.5431 0.9275
C78_5 C 0.5889(3) 0.5301(5) 0.95947(7)
H58_5 H 0.5256 0.4773 0.9568
C85_5 C 0.4530(3) 0.4673(5) 0.99944(7)
H64_5 H 0.4270 0.4413 0.9852
N12_5 N 1.0000 -0.0000 0.80267(6)
O25_3 O 0.6395(2) 0.08294(26) 0.78514(5)
C119_3 C 0.6521(2) 0.0155(3) 0.77841(5)
C120_3 C 0.74115(17) 0.00897(24) 0.78589(4)
C121_3 C 0.80663(19) 0.07277(26) 0.80205(5)
H87_3 H 0.7951 0.1200 0.8088
C122_3 C 0.88935(18) 0.06664(25) 0.80829(5)
H88_3 H 0.9315 0.1081 0.8195
N12_6 N 1.0000 1.0000 0.80267(6)
C123_3 C 0.90922(16) 0.99863(23) 0.79774(4)
C124_3 C 0.84276(17) 0.93363(24) 0.78182(4)
H89_3 H 0.8540 0.8862 0.7751
C125_3 C 0.75999(17) 0.93948(25) 0.77598(4)
H90_3 H 0.7162 0.8961 0.7652
O27_3 O 0.91706(26) 0.55656(17) 0.78514(5)
C126_3 C 0.9845(3) 0.6366(2) 0.77841(5)
C127_3 C 0.99103(24) 0.73218(17) 0.78589(4)
C128_3 C 0.92723(26) 0.73386(18) 0.80205(5)
H91_3 H 0.8800 0.6751 0.8088
C129_3 C 0.93336(25) 0.82271(18) 0.80829(5)
H92_3 H 0.8919 0.8234 0.8195
C73_6 C 0.4673(5) 0.0144(6) 0.00056(7)
H54_6 H 0.4413 0.0144 0.0148
O14_6 O 0.13405(25) 0.02547(31) 0.93166(4)
H47_6 H 0.1167 0.0539 0.9422
N8_6 N 0.35580(25) 0.10390(30) 0.94477(4)
C74_6 C 0.4311(4) 0.0469(5) 0.98098(6)
C75_6 C 0.3534(4) 0.0646(5) 0.98402(6)
H55_6 H 0.3248 0.0571 0.9983
C76_6 C 0.3185(4) 0.0936(4) 0.96565(6)
H56_6 H 0.2671 0.1065 0.9680
C77_6 C 0.4303(4) 0.0866(4) 0.94195(6)
H57_6 H 0.4569 0.0934 0.9275
C78_6 C 0.4699(5) 0.0589(6) 0.95947(7)
H58_6 H 0.5227 0.0484 0.9568
C86_6 C 0.5689(4) 0.9531(5) 0.01902(6)
C87_6 C 0.6466(4) 0.9354(5) 0.01598(6)
H65_6 H 0.6752 0.9429 0.0017
C88_6 C 0.6815(4) 0.9064(4) 0.03435(6)
H66_6 H 0.7329 0.8935 0.0320
C89_6 C 0.5697(4) 0.9134(4) 0.05805(6)
H67_6 H 0.5431 0.9066 0.0725
C90_6 C 0.5301(5) 0.9411(6) 0.04053(7)
H68_6 H 0.4773 0.9516 0.0432
H48_6 H 0.1324 0.9754 0.9390
C85_6 C 0.5327(5) 0.9856(6) 0.99944(7)
H64_6 H 0.5587 0.9856 0.9852
loop_
_geom_bond_atom_site_label_1
_geom_bond_atom_site_label_2
_geom_bond_site_symmetry_1
_geom_bond_site_symmetry_2
C45 N4 1_555 1_555
C46 C45 1_555 1_555
H31 C46 1_555 1_555
H32 C47 1_555 1_555
O13 C48 1_555 1_555
C48 C49 1_555 1_555
C49 C50 1_555 1_555
C50 H33 1_555 1_555
C51 C50 1_555 1_555
H34 C51 1_555 1_555
N14 C142 1_555 1_555
H106 C139 1_555 1_555
C140 C139 1_555 1_555
C141 C140 1_555 1_555
H107 C141 1_555 1_555
C142 C141 1_555 1_555
H108 C142 1_555 1_555
C143 N14 1_555 1_555
H109 C143 1_555 1_555
C144 C140 1_555 1_555
H110 C144 1_555 1_555
Cu7 O10 1_555 1_555
Cu10 N14 1_555 1_555
C46 C47 1_555 1_555
C143 C144 1_555 1_555
O11 C41 1_555 1_555
C41 C42 1_555 1_555
C42 C43 1_555 1_555
C43 H29 1_555 1_555
C44 C43 1_555 1_555
H30 C44 1_555 1_555
Cu12 O20 1_555 1_555
C52 N4_3 1_555 1_555
C53 C52 1_555 1_555
H35 C53 1_555 1_555
H36 C54 1_555 1_555
N6 C64 1_555 1_555
H43 C63 1_555 1_555
C64 C63 1_555 1_555
H44 C64 1_555 1_555
Cu6 N6 1_555 1_555
O30 Cu6 1_555 1_555
H99 O30 1_555 1_555
H100 O30 1_555 1_555
N13 Cu6 1_555 1_555
C133 H101 1_555 1_555
C134 C133 1_555 1_555
C135 C134 1_555 1_555
H102 C135 1_555 1_555
C136 N13 1_555 1_555
H103 C136 1_555 1_555
C137 N13 1_555 1_555
H104 C137 1_555 1_555
C138 C134 1_555 1_555
H105 C138 1_555 1_555
Cu9 O12 1_555 1_555
O33 Cu6 1_555 1_555
O35 Cu6 1_555 1_555
C53 C54 1_555 1_555
C135 C136 1_555 1_555
C137 C138 1_555 1_555
Cu1 O1 1_555 1_555
O1 C13 1_555 1_555
O2 Cu1 1_555 1_555
H1 O2 1_555 1_555
H2 O2 1_555 1_555
O3 C13 1_555 1_555
O4 Cu1 1_555 1_555
O5 C20 1_555 1_555
N1 Cu1 1_555 1_555
N2 Cu1 1_555 1_555
N3 C17 1_555 1_555
N4_4 C24 1_555 1_555
C1 H3 1_555 1_555
C2 C1 1_555 1_555
C3 C2 1_555 1_555
H4 C3 1_555 1_555
C4 N1 1_555 1_555
H5 C4 1_555 1_555
C5 N1 1_555 1_555
H6 C5 1_555 1_555
C6 C2 1_555 1_555
H7 C6 1_555 1_555
C7 H8 1_555 1_555
C8 C7 1_555 1_555
C9 C8 1_555 1_555
H9 C9 1_555 1_555
C10 N2 1_555 1_555
H10 C10 1_555 1_555
C11 N2 1_555 1_555
H11 C11 1_555 1_555
C12 C8 1_555 1_555
H12 C12 1_555 1_555
C13 C14 1_555 1_555
C14 C15 1_555 1_555
C15 H13 1_555 1_555
C16 C15 1_555 1_555
H14 C16 1_555 1_555
C17 C16 1_555 1_555
C18 C17 1_555 1_555
H15 C18 1_555 1_555
C19 C14 1_555 1_555
H16 C19 1_555 1_555
C20 O4 1_555 1_555
C21 C20 1_555 1_555
C22 C21 1_555 1_555
H17 C22 1_555 1_555
C23 C22 1_555 1_555
H18 C23 1_555 1_555
C24 C23 1_555 1_555
C25 C24 1_555 1_555
H19 C25 1_555 1_555
C26 C21 1_555 1_555
H20 C26 1_555 1_555
C55 C1 1_555 1_555
H37 C55 1_555 1_555
C56 C55 1_555 1_555
C57 C56 1_555 1_555
H38 C57 1_555 1_555
C58 C57 1_555 1_555
H39 C58 1_555 1_555
C60 C56 1_555 1_555
H41 C60 1_555 1_555
C61 C7 1_555 1_555
H42 C61 1_555 1_555
C62 C61 1_555 1_555
H45 C65 1_555 1_555
C66 C62 1_555 1_555
H46 C66 1_555 1_555
C83 N9 1_555 1_555
H62 C83 1_555 1_555
O17 C91 1_555 1_555
N11 C95 1_555 1_555
C92 C91 1_555 1_555
C93 C92 1_555 1_555
H71 C93 1_555 1_555
C94 C93 1_555 1_555
H72 C94 1_555 1_555
C95 C94 1_555 1_555
C96 C95 1_555 1_555
H73 C96 1_555 1_555
C97 C92 1_555 1_555
H74 C97 1_555 1_555
O21 C105 1_555 1_555
C105 C106 1_555 1_555
C106 C107 1_555 1_555
C107 H79 1_555 1_555
C108 C107 1_555 1_555
H80 C108 1_555 1_555
C109 N11 1_555 1_555
C110 C109 1_555 1_555
H81 C110 1_555 1_555
C111 C106 1_555 1_555
H82 C111 1_555 1_555
O22 C112 1_555 1_555
O23 C112 1_555 1_555
C112 C113 1_555 1_555
C113 C114 1_555 1_555
C114 H83 1_555 1_555
C115 C114 1_555 1_555
H84 C115 1_555 1_555
C116 N11 1_555 1_555
C117 C116 1_555 1_555
H85 C117 1_555 1_555
C118 C113 1_555 1_555
H86 C118 1_555 1_555
Cu12 N9 1_555 1_555
Cu13 O22 1_555 1_555
C3 C4 1_555 1_555
C5 C6 1_555 1_555
C9 C10 1_555 1_555
C11 C12 1_555 1_555
C18 C19 1_555 1_555
C25 C26 1_555 1_555
C65 C66 1_555 1_555
C96 C97 1_555 1_555
C108 C109 1_555 1_555
C110 C111 1_555 1_555
C115 C116 1_555 1_555
C117 C118 1_555 1_555
H27 C39 1_555 1_555
H28 C40 1_555 1_555
C59 N5 1_555 1_555
H40 C59 1_555 1_555
Cu3 N5 1_555 1_555
O15 Cu3 1_555 1_555
O16 Cu3 1_555 1_555
H69 O16 1_555 1_555
O18 Cu3 1_555 1_555
O19 C98 1_555 1_555
C98 O18 1_555 1_555
N17 Cu3 1_555 1_555
C39 C40 1_555 1_555
O6 C27 1_555 1_555
O7 C27 1_555 1_555
C27 C28 1_555 1_555
C28 C29 1_555 1_555
C29 H21 1_555 1_555
C30 C29 1_555 1_555
H22 C30 1_555 1_555
C31 N3_3 1_555 1_555
Cu7 O6 1_555 1_555
O14 Cu7 1_555 1_555
H47 O14 1_555 1_555
H48 O14 1_555 1_555
N7 Cu7 1_555 1_555
C67 H49 1_555 1_555
C68 C67 1_555 1_555
C69 C68 1_555 1_555
H50 C69 1_555 1_555
C70 N7 1_555 1_555
H51 C70 1_555 1_555
C71 N7 1_555 1_555
C72 C68 1_555 1_555
H53 C72 1_555 1_555
H56 C76 1_555 1_555
C79 C67 1_555 1_555
H59 C79 1_555 1_555
C80 C79 1_555 1_555
C81 C80 1_555 1_555
H60 C81 1_555 1_555
C82 C81 1_555 1_555
H61 C82 1_555 1_555
C84 C80 1_555 1_555
H63 C84 1_555 1_555
C30 C31 1_555 1_555
C69 C70 1_555 1_555
C71 C72 1_555 1_555
H23 C32 1_555 1_555
H24 C33 1_555 1_555
O8 C34 1_555 1_555
O9 C34 1_555 1_555
C34 C35 1_555 1_555
C35 C36 1_555 1_555
C36 H25 1_555 1_555
C37 C36 1_555 1_555
H26 C37 1_555 1_555
C38 N3_4 1_555 1_555
C73 H54 1_555 1_555
C74 C73 1_555 1_555
C75 C74 1_555 1_555
C77 N8 1_555 1_555
H57 C77 1_555 1_555
C78 C74 1_555 1_555
H58 C78 1_555 1_555
C85 C73 1_555 1_555
H64 C85 1_555 1_555
C86 C85 1_555 1_555
H67 C89 1_555 1_555
C90 C86 1_555 1_555
H68 C90 1_555 1_555
N12 C102 1_555 1_555
C100 C99 1_555 1_555
H75 C100 1_555 1_555
C101 C100 1_555 1_555
H76 C101 1_555 1_555
C102 C101 1_555 1_555
C103 C102 1_555 1_555
H77 C103 1_555 1_555
C104 C99 1_555 1_555
H78 C104 1_555 1_555
O24 C119 1_555 1_555
O25 C119 1_555 1_555
C119 C120 1_555 1_555
C120 C121 1_555 1_555
C121 H87 1_555 1_555
C122 C121 1_555 1_555
H88 C122 1_555 1_555
C123 N12 1_555 1_555
C124 C123 1_555 1_555
H89 C124 1_555 1_555
C125 C120 1_555 1_555
H90 C125 1_555 1_555
C127 C128 1_555 1_555
C128 H91 1_555 1_555
C129 C128 1_555 1_555
H92 C129 1_555 1_555
C130 N12 1_555 1_555
C131 C130 1_555 1_555
H93 C131 1_555 1_555
C132 C127 1_555 1_555
H94 C132 1_555 1_555
Cu12 O24 1_555 1_555
O28 Cu12 1_555 1_555
H95 O28 1_555 1_555
H96 O28 1_555 1_555
Cu9 O8 1_555 1_555
N18 Cu12 1_555 1_555
C32 C33 1_555 1_555
C37 C38 1_555 1_555
C77 C78 1_555 1_555
C89 C90 1_555 1_555
C103 C104 1_555 1_555
C122 C123 1_555 1_555
C124 C125 1_555 1_555
C129 C130 1_555 1_555
C131 C132 1_555 1_555
O26 C126 1_555 1_555
O27 C126 1_555 1_555
Cu13 O26 1_555 1_555
O29 Cu13 1_555 1_555
H97 O29 1_555 1_555
N16 Cu13 1_555 1_555
N19 Cu13 1_555 1_555
N10 C88 1_555 1_555
H65 C87 1_555 1_555
C88 C87 1_555 1_555
H66 C88 1_555 1_555
Cu14 N10 1_555 1_555
C73_2 H54_2 1_555 1_555
C74_2 C73_2 1_555 1_555
C75_2 C74_2 1_555 1_555
C77_2 N8_2 1_555 1_555
H57_2 C77_2 1_555 1_555
C78_2 C74_2 1_555 1_555
H58_2 C78_2 1_555 1_555
N10_2 C88_2 1_555 1_555
C85_2 C73_2 1_555 1_555
H64_2 C85_2 1_555 1_555
C86_2 C85_2 1_555 1_555
C87_2 C86_2 1_555 1_555
H65_2 C87_2 1_555 1_555
C88_2 C87_2 1_555 1_555
H66_2 C88_2 1_555 1_555
C89_2 N10_2 1_555 1_555
H67_2 C89_2 1_555 1_555
C90_2 C86_2 1_555 1_555
H68_2 C90_2 1_555 1_555
Cu14_2 N10_2 1_555 1_555
C77_2 C78_2 1_555 1_555
C89_2 C90_2 1_555 1_555
O14_2 Cu9 1_555 1_555
H47_2 O14_2 1_555 1_555
H48_2 O14_2 1_555 1_555
N7_2 Cu9 1_555 1_555
C67_2 H49_2 1_555 1_555
C68_2 C67_2 1_555 1_555
C69_2 C68_2 1_555 1_555
H50_2 C69_2 1_555 1_555
C70_2 N7_2 1_555 1_555
H51_2 C70_2 1_555 1_555
C71_2 N7_2 1_555 1_555
C72_2 C68_2 1_555 1_555
H53_2 C72_2 1_555 1_555
H56_2 C76_2 1_555 1_555
N16 C82_2 1_555 1_555
C79_2 C67_2 1_555 1_555
H59_2 C79_2 1_555 1_555
C80_2 C79_2 1_555 1_555
C81_2 C80_2 1_555 1_555
H60_2 C81_2 1_555 1_555
C82_2 C81_2 1_555 1_555
H61_2 C82_2 1_555 1_555
C83_2 N16 1_555 1_555
H62_2 C83_2 1_555 1_555
C84_2 C80_2 1_555 1_555
H63_2 C84_2 1_555 1_555
C69_2 C70_2 1_555 1_555
C71_2 C72_2 1_555 1_555
C83_2 C84_2 1_555 1_555
O30_2 Cu14 1_555 1_555
H99_2 O30_2 1_555 1_555
H100_2 O30_2 1_555 1_555
N13_2 Cu14 1_555 1_555
C133_2 H101_2 1_555 1_555
C134_2 C133_2 1_555 1_555
C135_2 C134_2 1_555 1_555
H102_2 C135_2 1_555 1_555
C136_2 N13_2 1_555 1_555
H103_2 C136_2 1_555 1_555
C137_2 N13_2 1_555 1_555
H104_2 C137_2 1_555 1_555
C138_2 C134_2 1_555 1_555
H105_2 C138_2 1_555 1_555
N14_2 C142_2 1_555 1_555
C139_2 C133_2 1_555 1_555
H106_2 C139_2 1_555 1_555
C140_2 C139_2 1_555 1_555
C141_2 C140_2 1_555 1_555
H107_2 C141_2 1_555 1_555
C142_2 C141_2 1_555 1_555
H108_2 C142_2 1_555 1_555
C143_2 N14_2 1_555 1_555
H109_2 C143_2 1_555 1_555
C144_2 C140_2 1_555 1_555
H110_2 C144_2 1_555 1_555
Cu10_2 N14_2 1_555 1_555
O33_2 Cu14 1_555 1_555
O35_2 Cu14 1_555 1_555
C135_2 C136_2 1_555 1_555
C137_2 C138_2 1_555 1_555
C143_2 C144_2 1_555 1_555
O30_3 Cu14_2 1_555 1_555
H99_3 O30_3 1_555 1_555
H100_3 O30_3 1_555 1_555
N13_3 Cu14_2 1_555 1_555
C133_3 H101_3 1_555 1_555
C134_3 C133_3 1_555 1_555
C135_3 C134_3 1_555 1_555
H102_3 C135_3 1_555 1_555
C136_3 N13_3 1_555 1_555
H103_3 C136_3 1_555 1_555
C137_3 N13_3 1_555 1_555
H104_3 C137_3 1_555 1_555
C138_3 C134_3 1_555 1_555
H105_3 C138_3 1_555 1_555
O33_3 Cu14_2 1_555 1_555
O35_3 Cu14_2 1_555 1_555
C135_3 C136_3 1_555 1_555
C137_3 C138_3 1_555 1_555
N14_3 C142_3 1_555 1_555
H106_3 C139_3 1_555 1_555
C140_3 C139_3 1_555 1_555
C141_3 C140_3 1_555 1_555
H107_3 C141_3 1_555 1_555
C142_3 C141_3 1_555 1_555
H108_3 C142_3 1_555 1_555
C143_3 N14_3 1_555 1_555
H109_3 C143_3 1_555 1_555
C144_3 C140_3 1_555 1_555
H110_3 C144_3 1_555 1_555
Cu10_3 N14_3 1_555 1_555
C143_3 C144_3 1_555 1_555
O10_2 C41_2 1_555 1_555
O11_2 C41_2 1_555 1_555
Cu10_2 O10_2 1_555 1_555
C143_4 N14_4 1_555 1_555
H109_4 C143_4 1_555 1_555
Cu10_4 N14_4 1_555 1_555
N4_5 C24_2 1_555 1_555
C7_2 H8_2 1_555 1_555
C8_2 C7_2 1_555 1_555
H11_2 C11_2 1_555 1_555
C12_2 C8_2 1_555 1_555
H12_2 C12_2 1_555 1_555
C22_2 C21_2 1_555 1_555
H17_2 C22_2 1_555 1_555
C23_2 C22_2 1_555 1_555
H18_2 C23_2 1_555 1_555
C24_2 C23_2 1_555 1_555
C25_2 C24_2 1_555 1_555
H19_2 C25_2 1_555 1_555
C26_2 C21_2 1_555 1_555
H20_2 C26_2 1_555 1_555
C42_2 C43_2 1_555 1_555
C43_2 H29_2 1_555 1_555
C44_2 C43_2 1_555 1_555
H30_2 C44_2 1_555 1_555
C45_2 N4_5 1_555 1_555
C46_2 C45_2 1_555 1_555
H31_2 C46_2 1_555 1_555
C47_2 C42_2 1_555 1_555
H32_2 C47_2 1_555 1_555
O12_2 C48_2 1_555 1_555
O13_2 C48_2 1_555 1_555
C48_2 C49_2 1_555 1_555
C49_2 C50_2 1_555 1_555
C50_2 H33_2 1_555 1_555
C51_2 C50_2 1_555 1_555
H34_2 C51_2 1_555 1_555
C52_2 N4_5 1_555 1_555
C53_2 C52_2 1_555 1_555
H35_2 C53_2 1_555 1_555
C54_2 C49_2 1_555 1_555
H36_2 C54_2 1_555 1_555
N6_2 C64_2 1_555 1_555
C61_2 C7_2 1_555 1_555
H42_2 C61_2 1_555 1_555
C62_2 C61_2 1_555 1_555
C63_2 C62_2 1_555 1_555
H43_2 C63_2 1_555 1_555
C64_2 C63_2 1_555 1_555
H44_2 C64_2 1_555 1_555
C65_2 N6_2 1_555 1_555
H45_2 C65_2 1_555 1_555
C66_2 C62_2 1_555 1_555
H46_2 C66_2 1_555 1_555
O33_3 C112_2 1_555 1_555
O23_2 C112_2 1_555 1_555
Cu6_2 N6_2 1_555 1_555
O30_4 Cu6_2 1_555 1_555
H99_4 O30_4 1_555 1_555
H100_4 O30_4 1_555 1_555
N13_4 Cu6_2 1_555 1_555
C133_4 H101_4 1_555 1_555
C134_4 C133_4 1_555 1_555
C135_4 C134_4 1_555 1_555
H102_4 C135_4 1_555 1_555
C136_4 N13_4 1_555 1_555
H103_4 C136_4 1_555 1_555
C137_4 N13_4 1_555 1_555
H104_4 C137_4 1_555 1_555
C138_4 C134_4 1_555 1_555
H105_4 C138_4 1_555 1_555
C139_4 C133_4 1_555 1_555
H106_4 C139_4 1_555 1_555
C140_4 C139_4 1_555 1_555
C141_4 C140_4 1_555 1_555
H107_4 C141_4 1_555 1_555
C142_4 C141_4 1_555 1_555
H108_4 C142_4 1_555 1_555
C144_4 C140_4 1_555 1_555
H110_4 C144_4 1_555 1_555
Cu10_3 O12_2 1_555 1_555
O33_4 Cu6_2 1_555 1_555
O35_4 Cu6_2 1_555 1_555
C11_2 C12_2 1_555 1_555
C25_2 C26_2 1_555 1_555
C44_2 C45_2 1_555 1_555
C46_2 C47_2 1_555 1_555
C51_2 C52_2 1_555 1_555
C53_2 C54_2 1_555 1_555
C65_2 C66_2 1_555 1_555
C135_4 C136_4 1_555 1_555
C137_4 C138_4 1_555 1_555
Cu10 O1_2 1_555 1_555
O1_2 C13_2 1_555 1_555
O2_2 Cu10 1_555 1_555
H1_2 O2_2 1_555 1_555
H2_2 O2_2 1_555 1_555
O3_2 C13_2 1_555 1_555
O4_2 Cu10 1_555 1_555
O5_2 C20_2 1_555 1_555
N2_2 Cu10 1_555 1_555
H9_2 C9_2 1_555 1_555
C10_2 N2_2 1_555 1_555
H10_2 C10_2 1_555 1_555
C20_2 O4_2 1_555 1_555
N11_2 C95_2 1_555 1_555
C93_2 C92_2 1_555 1_555
H71_2 C93_2 1_555 1_555
C94_2 C93_2 1_555 1_555
H72_2 C94_2 1_555 1_555
C95_2 C94_2 1_555 1_555
C96_2 C95_2 1_555 1_555
H73_2 C96_2 1_555 1_555
C97_2 C92_2 1_555 1_555
H74_2 C97_2 1_555 1_555
O33_2 C105_2 1_555 1_555
O21_2 C105_2 1_555 1_555
C105_2 C106_2 1_555 1_555
C106_2 C107_2 1_555 1_555
C107_2 H79_2 1_555 1_555
C108_2 C107_2 1_555 1_555
H80_2 C108_2 1_555 1_555
C109_2 N11_2 1_555 1_555
C110_2 C109_2 1_555 1_555
H81_2 C110_2 1_555 1_555
C111_2 C106_2 1_555 1_555
H82_2 C111_2 1_555 1_555
C113_2 C114_2 1_555 1_555
C114_2 H83_2 1_555 1_555
C115_2 C114_2 1_555 1_555
H84_2 C115_2 1_555 1_555
C116_2 N11_2 1_555 1_555
C117_2 C116_2 1_555 1_555
H85_2 C117_2 1_555 1_555
C118_2 C113_2 1_555 1_555
H86_2 C118_2 1_555 1_555
C9_2 C10_2 1_555 1_555
C96_2 C97_2 1_555 1_555
C108_2 C109_2 1_555 1_555
C110_2 C111_2 1_555 1_555
C115_2 C116_2 1_555 1_555
C117_2 C118_2 1_555 1_555
N3_5 C17_2 1_555 1_555
C14_2 C15_2 1_555 1_555
C15_2 H13_2 1_555 1_555
C16_2 C15_2 1_555 1_555
H14_2 C16_2 1_555 1_555
C17_2 C16_2 1_555 1_555
C18_2 C17_2 1_555 1_555
H15_2 C18_2 1_555 1_555
C19_2 C14_2 1_555 1_555
H16_2 C19_2 1_555 1_555
O6_2 C27_2 1_555 1_555
O7_2 C27_2 1_555 1_555
C27_2 C28_2 1_555 1_555
C28_2 C29_2 1_555 1_555
C29_2 H21_2 1_555 1_555
C30_2 C29_2 1_555 1_555
H22_2 C30_2 1_555 1_555
C31_2 N3_5 1_555 1_555
C32_2 C31_2 1_555 1_555
H23_2 C32_2 1_555 1_555
C33_2 C28_2 1_555 1_555
H24_2 C33_2 1_555 1_555
C35_2 C36_2 1_555 1_555
C36_2 H25_2 1_555 1_555
C37_2 C36_2 1_555 1_555
H26_2 C37_2 1_555 1_555
C38_2 N3_5 1_555 1_555
C39_2 C38_2 1_555 1_555
H27_2 C39_2 1_555 1_555
C40_2 C35_2 1_555 1_555
H28_2 C40_2 1_555 1_555
Cu10_2 O6_2 1_555 1_555
O14_3 Cu10_2 1_555 1_555
H47_3 O14_3 1_555 1_555
H48_3 O14_3 1_555 1_555
N8_3 Cu10_2 1_555 1_555
H55_3 C75_3 1_555 1_555
C76_3 N8_3 1_555 1_555
H56_3 C76_3 1_555 1_555
O17_2 C91_2 1_555 1_555
O19_2 C98_2 1_555 1_555
C91_2 O33 1_555 1_555
C98_2 O35 1_555 1_555
C18_2 C19_2 1_555 1_555
C30_2 C31_2 1_555 1_555
C32_2 C33_2 1_555 1_555
C37_2 C38_2 1_555 1_555
C39_2 C40_2 1_555 1_555
C75_3 C76_3 1_555 1_555
O8_2 C34_2 1_555 1_555
O9_2 C34_2 1_555 1_555
N12_2 C102_2 1_555 1_555
C100_2 C99_2 1_555 1_555
H75_2 C100_2 1_555 1_555
C101_2 C100_2 1_555 1_555
H76_2 C101_2 1_555 1_555
C102_2 C101_2 1_555 1_555
C103_2 C102_2 1_555 1_555
H77_2 C103_2 1_555 1_555
C104_2 C99_2 1_555 1_555
H78_2 C104_2 1_555 1_555
C120_2 C121_2 1_555 1_555
C121_2 H87_2 1_555 1_555
C122_2 C121_2 1_555 1_555
H88_2 C122_2 1_555 1_555
C123_2 N12_2 1_555 1_555
C124_2 C123_2 1_555 1_555
H89_2 C124_2 1_555 1_555
C125_2 C120_2 1_555 1_555
H90_2 C125_2 1_555 1_555
O35_3 C126_2 1_555 1_555
O27_2 C126_2 1_555 1_555
C126_2 C127_2 1_555 1_555
C127_2 C128_2 1_555 1_555
C128_2 H91_2 1_555 1_555
C129_2 C128_2 1_555 1_555
H92_2 C129_2 1_555 1_555
C130_2 N12_2 1_555 1_555
C131_2 C130_2 1_555 1_555
H93_2 C131_2 1_555 1_555
C132_2 C127_2 1_555 1_555
H94_2 C132_2 1_555 1_555
Cu10_3 O8_2 1_555 1_555
C103_2 C104_2 1_555 1_555
C122_2 C123_2 1_555 1_555
C124_2 C125_2 1_555 1_555
C129_2 C130_2 1_555 1_555
C131_2 C132_2 1_555 1_555
C73_3 H54_3 1_555 1_555
C74_3 C73_3 1_555 1_555
H57_3 C77_3 1_555 1_555
C78_3 C74_3 1_555 1_555
H58_3 C78_3 1_555 1_555
C85_3 C73_3 1_555 1_555
H64_3 C85_3 1_555 1_555
C86_3 C85_3 1_555 1_555
C87_3 C86_3 1_555 1_555
C89_3 N10_3 1_555 1_555
H67_3 C89_3 1_555 1_555
C90_3 C86_3 1_555 1_555
H68_3 C90_3 1_555 1_555
C77_3 C78_3 1_555 1_555
C89_3 C90_3 1_555 1_555
H66_3 C88_3 1_555 1_555
O35_2 C119_2 1_555 1_555
O25_2 C119_2 1_555 1_555
H66_4 C88_4 1_555 1_555
O14_4 Cu10_3 1_555 1_555
H47_4 O14_4 1_555 1_555
H48_4 O14_4 1_555 1_555
N8_4 Cu10_3 1_555 1_555
C73_4 H54_4 1_555 1_555
C74_4 C73_4 1_555 1_555
C75_4 C74_4 1_555 1_555
H55_4 C75_4 1_555 1_555
C76_4 N8_4 1_555 1_555
H56_4 C76_4 1_555 1_555
C77_4 N8_4 1_555 1_555
H57_4 C77_4 1_555 1_555
C78_4 C74_4 1_555 1_555
H58_4 C78_4 1_555 1_555
C85_4 C73_4 1_555 1_555
H64_4 C85_4 1_555 1_555
C86_4 C85_4 1_555 1_555
C87_4 C86_4 1_555 1_555
C89_4 N10_4 1_555 1_555
H67_4 C89_4 1_555 1_555
C90_4 C86_4 1_555 1_555
H68_4 C90_4 1_555 1_555
C75_4 C76_4 1_555 1_555
C77_4 C78_4 1_555 1_555
C89_4 C90_4 1_555 1_555
O30_5 Cu14_3 1_555 1_555
H99_5 O30_5 1_555 1_555
H100_5 O30_5 1_555 1_555
N13_5 Cu14_3 1_555 1_555
C133_5 H101_5 1_555 1_555
C134_5 C133_5 1_555 1_555
C135_5 C134_5 1_555 1_555
H102_5 C135_5 1_555 1_555
C136_5 N13_5 1_555 1_555
H103_5 C136_5 1_555 1_555
C137_5 N13_5 1_555 1_555
C138_5 C134_5 1_555 1_555
H105_5 C138_5 1_555 1_555
C139_5 C133_5 1_555 1_555
H106_5 C139_5 1_555 1_555
C140_5 C139_5 1_555 1_555
C141_5 C140_5 1_555 1_555
H107_5 C141_5 1_555 1_555
C142_5 C141_5 1_555 1_555
H108_5 C142_5 1_555 1_555
C144_5 C140_5 1_555 1_555
H110_5 C144_5 1_555 1_555
O33_5 Cu14_3 1_555 1_555
O35_5 Cu14_3 1_555 1_555
C135_5 C136_5 1_555 1_555
C137_5 C138_5 1_555 1_555
C143_5 N14_5 1_555 1_555
H109_5 C143_5 1_555 1_555
Cu10_5 N14_5 1_555 1_555
O30_6 Cu14_4 1_555 1_555
H99_6 O30_6 1_555 1_555
H100_6 O30_6 1_555 1_555
N13_6 Cu14_4 1_555 1_555
C133_6 H101_6 1_555 1_555
C134_6 C133_6 1_555 1_555
C135_6 C134_6 1_555 1_555
H102_6 C135_6 1_555 1_555
C136_6 N13_6 1_555 1_555
H103_6 C136_6 1_555 1_555
C137_6 N13_6 1_555 1_555
C138_6 C134_6 1_555 1_555
H105_6 C138_6 1_555 1_555
N14_6 C142_6 1_555 1_555
C139_6 C133_6 1_555 1_555
H106_6 C139_6 1_555 1_555
C140_6 C139_6 1_555 1_555
C141_6 C140_6 1_555 1_555
H107_6 C141_6 1_555 1_555
C142_6 C141_6 1_555 1_555
H108_6 C142_6 1_555 1_555
C143_6 N14_6 1_555 1_555
H109_6 C143_6 1_555 1_555
C144_6 C140_6 1_555 1_555
H110_6 C144_6 1_555 1_555
Cu10_6 N14_6 1_555 1_555
O33_6 Cu14_4 1_555 1_555
O35_6 Cu14_4 1_555 1_555
C135_6 C136_6 1_555 1_555
C137_6 C138_6 1_555 1_555
C143_6 C144_6 1_555 1_555
O12_3 C48_3 1_555 1_555
O13_3 C48_3 1_555 1_555
Cu10_6 O12_3 1_555 1_555
N17 C64_3 1_555 1_555
C63_3 C62_3 1_555 1_555
H43_3 C63_3 1_555 1_555
C64_3 C63_3 1_555 1_555
H44_3 C64_3 1_555 1_555
C65_3 N17 1_555 1_555
H45_3 C65_3 1_555 1_555
C66_3 C62_3 1_555 1_555
H46_3 C66_3 1_555 1_555
C65_3 C66_3 1_555 1_555
N4_6 C24_3 1_555 1_555
C22_3 C21_3 1_555 1_555
H17_3 C22_3 1_555 1_555
C23_3 C22_3 1_555 1_555
H18_3 C23_3 1_555 1_555
C24_3 C23_3 1_555 1_555
C25_3 C24_3 1_555 1_555
H19_3 C25_3 1_555 1_555
C26_3 C21_3 1_555 1_555
H20_3 C26_3 1_555 1_555
O10_3 C41_3 1_555 1_555
O11_3 C41_3 1_555 1_555
C41_3 C42_3 1_555 1_555
C42_3 C43_3 1_555 1_555
C43_3 H29_3 1_555 1_555
C44_3 C43_3 1_555 1_555
H30_3 C44_3 1_555 1_555
C45_3 N4_6 1_555 1_555
C46_3 C45_3 1_555 1_555
H31_3 C46_3 1_555 1_555
C47_3 C42_3 1_555 1_555
H32_3 C47_3 1_555 1_555
C49_3 C50_3 1_555 1_555
C50_3 H33_3 1_555 1_555
C51_3 C50_3 1_555 1_555
H34_3 C51_3 1_555 1_555
C52_3 N4_6 1_555 1_555
C53_3 C52_3 1_555 1_555
H35_3 C53_3 1_555 1_555
C54_3 C49_3 1_555 1_555
H36_3 C54_3 1_555 1_555
H42_3 C61_3 1_555 1_555
H81_3 C110_3 1_555 1_555
H82_3 C111_3 1_555 1_555
O33_6 C112_3 1_555 1_555
O23_3 C112_3 1_555 1_555
C112_3 C113_3 1_555 1_555
C113_3 C114_3 1_555 1_555
C114_3 H83_3 1_555 1_555
C115_3 C114_3 1_555 1_555
H84_3 C115_3 1_555 1_555
C116_3 N11_3 1_555 1_555
Cu10_5 O10_3 1_555 1_555
C25_3 C26_3 1_555 1_555
C44_3 C45_3 1_555 1_555
C46_3 C47_3 1_555 1_555
C51_3 C52_3 1_555 1_555
C53_3 C54_3 1_555 1_555
C110_3 C111_3 1_555 1_555
C115_3 C116_3 1_555 1_555
O33_5 C105_3 1_555 1_555
O21_3 C105_3 1_555 1_555
C105_3 C106_3 1_555 1_555
C106_3 C107_3 1_555 1_555
C107_3 H79_3 1_555 1_555
C108_3 C107_3 1_555 1_555
H80_3 C108_3 1_555 1_555
C109_3 N11_4 1_555 1_555
C108_3 C109_3 1_555 1_555
C7_3 H8_3 1_555 1_555
Cu10_4 O1_3 1_555 1_555
O2_3 Cu10_4 1_555 1_555
H1_3 O2_3 1_555 1_555
O4_3 Cu10_4 1_555 1_555
O5_3 C20_3 1_555 1_555
N2_3 Cu10_4 1_555 1_555
C9_3 C8_3 1_555 1_555
H9_3 C9_3 1_555 1_555
C10_3 N2_3 1_555 1_555
H10_3 C10_3 1_555 1_555
C11_3 N2_3 1_555 1_555
H11_3 C11_3 1_555 1_555
C12_3 C8_3 1_555 1_555
H12_3 C12_3 1_555 1_555
C20_3 O4_3 1_555 1_555
H85_3 C117_3 1_555 1_555
H86_3 C118_3 1_555 1_555
C9_3 C10_3 1_555 1_555
C11_3 C12_3 1_555 1_555
C117_3 C118_3 1_555 1_555
O3_3 C13_3 1_555 1_555
N3_6 C17_3 1_555 1_555
C13_3 C14_3 1_555 1_555
C14_3 C15_3 1_555 1_555
C15_3 H13_3 1_555 1_555
C16_3 C15_3 1_555 1_555
H14_3 C16_3 1_555 1_555
C17_3 C16_3 1_555 1_555
C18_3 C17_3 1_555 1_555
H15_3 C18_3 1_555 1_555
C19_3 C14_3 1_555 1_555
H16_3 C19_3 1_555 1_555
O7_3 C27_3 1_555 1_555
C27_3 C28_3 1_555 1_555
C28_3 C29_3 1_555 1_555
C29_3 H21_3 1_555 1_555
C30_3 C29_3 1_555 1_555
H22_3 C30_3 1_555 1_555
C31_3 N3_6 1_555 1_555
C32_3 C31_3 1_555 1_555
H23_3 C32_3 1_555 1_555
C33_3 C28_3 1_555 1_555
H24_3 C33_3 1_555 1_555
O8_3 C34_3 1_555 1_555
O9_3 C34_3 1_555 1_555
C34_3 C35_3 1_555 1_555
C35_3 C36_3 1_555 1_555
C36_3 H25_3 1_555 1_555
C37_3 C36_3 1_555 1_555
H26_3 C37_3 1_555 1_555
C38_3 N3_6 1_555 1_555
C39_3 C38_3 1_555 1_555
H27_3 C39_3 1_555 1_555
C40_3 C35_3 1_555 1_555
H28_3 C40_3 1_555 1_555
O17_3 C91_3 1_555 1_555
O19_3 C98_3 1_555 1_555
N11_6 C95_3 1_555 1_555
N12_3 C102_3 1_555 1_555
C91_3 O33_4 1_555 1_555
C92_3 C91_3 1_555 1_555
C93_3 C92_3 1_555 1_555
H71_3 C93_3 1_555 1_555
C94_3 C93_3 1_555 1_555
H72_3 C94_3 1_555 1_555
C95_3 C94_3 1_555 1_555
C96_3 C95_3 1_555 1_555
H73_3 C96_3 1_555 1_555
C97_3 C92_3 1_555 1_555
H74_3 C97_3 1_555 1_555
C98_3 O35_4 1_555 1_555
C99_3 C98_3 1_555 1_555
C100_3 C99_3 1_555 1_555
H75_3 C100_3 1_555 1_555
C101_3 C100_3 1_555 1_555
H76_3 C101_3 1_555 1_555
C102_3 C101_3 1_555 1_555
C103_3 C102_3 1_555 1_555
H77_3 C103_3 1_555 1_555
C104_3 C99_3 1_555 1_555
H78_3 C104_3 1_555 1_555
Cu10_6 O8_3 1_555 1_555
C18_3 C19_3 1_555 1_555
C30_3 C31_3 1_555 1_555
C32_3 C33_3 1_555 1_555
C37_3 C38_3 1_555 1_555
C39_3 C40_3 1_555 1_555
C96_3 C97_3 1_555 1_555
C103_3 C104_3 1_555 1_555
C130_3 N12_4 1_555 1_555
C131_3 C130_3 1_555 1_555
H93_3 C131_3 1_555 1_555
H94_3 C132_3 1_555 1_555
C131_3 C132_3 1_555 1_555
C73_5 H54_5 1_555 1_555
N18 C88_5 1_555 1_555
C87_5 C86_5 1_555 1_555
H65_5 C87_5 1_555 1_555
C88_5 C87_5 1_555 1_555
H66_5 C88_5 1_555 1_555
C89_5 N18 1_555 1_555
H67_5 C89_5 1_555 1_555
C90_5 C86_5 1_555 1_555
H68_5 C90_5 1_555 1_555
C89_5 C90_5 1_555 1_555
Cu10_5 O6_3 1_555 1_555
O14_5 Cu10_5 1_555 1_555
H47_5 O14_5 1_555 1_555
H48_5 O14_5 1_555 1_555
N8_5 Cu10_5 1_555 1_555
C75_5 C74_5 1_555 1_555
H55_5 C75_5 1_555 1_555
C76_5 N8_5 1_555 1_555
H56_5 C76_5 1_555 1_555
C77_5 N8_5 1_555 1_555
H57_5 C77_5 1_555 1_555
C78_5 C74_5 1_555 1_555
H58_5 C78_5 1_555 1_555
H64_5 C85_5 1_555 1_555
O25_3 C119_3 1_555 1_555
C119_3 C120_3 1_555 1_555
C120_3 C121_3 1_555 1_555
C121_3 H87_3 1_555 1_555
C122_3 C121_3 1_555 1_555
H88_3 C122_3 1_555 1_555
C75_5 C76_5 1_555 1_555
C77_5 C78_5 1_555 1_555
C123_3 N12_6 1_555 1_555
C124_3 C123_3 1_555 1_555
H89_3 C124_3 1_555 1_555
H90_3 C125_3 1_555 1_555
O27_3 C126_3 1_555 1_555
C126_3 C127_3 1_555 1_555
C127_3 C128_3 1_555 1_555
C128_3 H91_3 1_555 1_555
C129_3 C128_3 1_555 1_555
H92_3 C129_3 1_555 1_555
C124_3 C125_3 1_555 1_555
C73_6 H54_6 1_555 1_555
O14_6 Cu10_6 1_555 1_555
H47_6 O14_6 1_555 1_555
N8_6 Cu10_6 1_555 1_555
C75_6 C74_6 1_555 1_555
H55_6 C75_6 1_555 1_555
C76_6 N8_6 1_555 1_555
H56_6 C76_6 1_555 1_555
C77_6 N8_6 1_555 1_555
H57_6 C77_6 1_555 1_555
C78_6 C74_6 1_555 1_555
H58_6 C78_6 1_555 1_555
C75_6 C76_6 1_555 1_555
C77_6 C78_6 1_555 1_555
N19 C88_6 1_555 1_555
C87_6 C86_6 1_555 1_555
H65_6 C87_6 1_555 1_555
C88_6 C87_6 1_555 1_555
H66_6 C88_6 1_555 1_555
C89_6 N19 1_555 1_555
H67_6 C89_6 1_555 1_555
C90_6 C86_6 1_555 1_555
H68_6 C90_6 1_555 1_555
C89_6 C90_6 1_555 1_555
H64_6 C85_6 1_555 1_555

#END
