
###############################################################################
#
# This file contains modified crystal structure data generated from the
# MOF subset of the Cambridge Structural Database (CSD) v543 
# hosted by the Cambridge Crystallographic Data Centre (CCDC).
#
# This work is licensed under the Creative Commons
# Attribution-NonCommercial-ShareAlike 4.0 International License.
# To view a copy of this license, visit
# http://creativecommons.org/licenses/by-nc-sa/4.0/
# or send a letter to
# Creative Commons, PO Box 1866, Mountain View, CA 94042, USA.
#
# CIF created using the CSD Python API on 29 September 2022
# The structure has been converted into the P1 space group
# The structure has a 3D framework
# The original CSD entry BOCFIL is in the monoclinic crystal system
# The framework has been calculated to contain at least 10.0% void space
# The void calculation uses a probe of radius 1.32A, grid spacing 0.4
# The framework is charged, counterions have been retained in the structure
#
###############################################################################

data_BOCFIL
_chemical_formula_moiety         '(C416 H352 Ag16 B24 F96 N160 Pt23 38+)n'
_symmetry_cell_setting           triclinic
_symmetry_space_group_name_H-M   'P 1'
_symmetry_Int_Tables_number      1
_space_group_name_Hall           'P 1'
loop_
_symmetry_equiv_pos_site_id
_symmetry_equiv_pos_as_xyz
1 x,y,z
_cell_length_a                   12.5572(3)
_cell_length_b                   41.2349(19)
_cell_length_c                   39.6090(11)
_cell_angle_alpha                90
_cell_angle_beta                 95.835(3)
_cell_angle_gamma                90
_cell_volume                     20403.1
loop_
_atom_site_label
_atom_site_type_symbol
_atom_site_fract_x
_atom_site_fract_y
_atom_site_fract_z
Pt3 Pt -0.0000 0.56201(2) 0.7500
N11 N 0.0885(6) 0.5580(2) 0.70947(17)
C30 C 0.0311(7) 0.5560(2) 0.6784(2)
C35 C 0.1955(7) 0.5541(3) 0.7113(2)
H29 H 0.2365 0.5564 0.7327
C40 C 0.0806(7) 0.5502(3) 0.6504(2)
H34 H 0.0401 0.5498 0.6288
C50 C 0.1885(9) 0.5451(4) 0.6528(3)
H42 H 0.2227 0.5401 0.6331
C51 C 0.2464(8) 0.5471(4) 0.6836(3)
H43 H 0.3216 0.5436 0.6857
N44 N 0.1162(5) 0.56357(19) 0.78888(18)
Pt1 Pt 0.5000 0.5000 0.5000
Pt2 Pt 0.5000 0.85785(2) 0.2500
Ag1 Ag 0.47990(13) 0.74417(3) 0.46780(3)
N1 N 0.4493(5) 0.54317(18) 0.51305(16)
N2 N 0.4928(6) 0.5653(2) 0.53421(18)
N3 N 0.4194(6) 0.5893(2) 0.53369(19)
N4 N 0.4086(6) 0.8684(2) 0.34471(19)
N5 N 0.3519(6) 0.5012(2) 0.47378(18)
N6 N 0.3410(6) 0.8550(2) 0.23595(19)
N7 N 0.4876(6) 0.8657(2) 0.32569(19)
C1 C 0.3127(8) 0.8666(3) 0.3271(3)
H1 H 0.2445 0.8686 0.3353
N8 N 0.4437(5) 0.8601(2) 0.29513(18)
C2 C 0.3064(8) 0.4757(3) 0.4552(2)
H2 H 0.3443 0.4560 0.4532
C3 C 0.2957(8) 0.8494(3) 0.2040(2)
H3 H 0.3410 0.8483 0.1863
C4 C 0.3522(7) 0.5530(2) 0.4991(2)
N9 N 0.4671(9) 0.7881(3) 0.4394(3)
C5 C 0.2944(7) 0.5279(3) 0.4768(2)
C6 C 0.1927(8) 0.5332(3) 0.4614(3)
H4 H 0.1561 0.5532 0.4635
C7 C 0.4409(8) 0.6172(3) 0.5565(2)
H5 H 0.5076 0.6134 0.5715
H6 H 0.3814 0.6198 0.5709
C8 C 0.2007(8) 0.4798(3) 0.4392(3)
H7 H 0.1682 0.4626 0.4260
C9 C 0.4316(8) 0.8747(3) 0.3812(2)
H8 H 0.3729 0.8878 0.3891
H9 H 0.4985 0.8875 0.3852
C10 C 0.3904(9) 0.8395(3) 0.4293(3)
H10 H 0.3446 0.8560 0.4362
C11 C 0.3358(8) 0.8612(3) 0.2940(2)
C12 C 0.4432(8) 0.8439(3) 0.4011(3)
C13 C 0.4518(7) 0.6473(3) 0.5359(2)
C14 C 0.3319(8) 0.5834(3) 0.5126(2)
H11 H 0.2704 0.5967 0.5079
C15 C 0.5202(10) 0.7923(3) 0.4118(3)
H12 H 0.5658 0.7755 0.4054
N10 N 0.4782(9) 0.7020(3) 0.4998(2)
C16 C 0.1465(8) 0.5070(3) 0.4422(3)
H13 H 0.0757 0.5089 0.4314
C17 C 0.5100(10) 0.8205(3) 0.3925(3)
H14 H 0.5497 0.8232 0.3735
C18 C 0.4066(10) 0.6758(3) 0.5450(3)
H15 H 0.3680 0.6765 0.5644
C19 C 0.2763(8) 0.8579(4) 0.2615(2)
C20 C 0.4028(11) 0.8120(5) 0.4472(3)
H16 H 0.3638 0.8094 0.4664
C21 C 0.1901(8) 0.8455(4) 0.1961(3)
H17 H 0.1617 0.8412 0.1734
C22 C 0.4163(13) 0.7031(3) 0.5266(3)
H18 H 0.3813 0.7225 0.5320
C23 C 0.5076(13) 0.6481(4) 0.5083(4)
H19 H 0.5386 0.6286 0.5010
C24 C 0.5201(12) 0.6757(4) 0.4911(4)
H20 H 0.5608 0.6755 0.4721
C25 C 0.1236(9) 0.8477(6) 0.2217(3)
H21 H 0.0483 0.8456 0.2168
C26 C 0.1700(9) 0.8533(6) 0.2557(3)
H22 H 0.1264 0.8537 0.2739
Pt3_2 Pt 1.0000 0.56201(2) 0.7500
Pt4 Pt 0.2500 0.2500 0.5000
Ag2 Ag 0.39891(6) 0.47391(2) 0.56611(2)
N12 N 0.7825(5) 0.5687(2) 0.71031(18)
N13 N 0.7501(6) 0.5704(2) 0.67711(18)
N14 N 0.4786(6) 0.5084(2) 0.59932(19)
N15 N 0.8838(5) 0.56357(19) 0.71112(18)
N16 N 0.2926(6) 0.4415(2) 0.5385(2)
N17 N 0.0979(6) 0.33690(19) 0.5060(2)
N18 N 0.1747(6) 0.29091(19) 0.50688(19)
N19 N 0.1637(6) 0.3182(2) 0.4890(2)
C27 C 0.4842(7) 0.5596(3) 0.6272(2)
H23 H 0.4508 0.5799 0.6302
C28 C 0.1511(7) 0.3938(2) 0.5094(2)
C29 C 0.8297(7) 0.5653(2) 0.6583(2)
H24 H 0.8252 0.5646 0.6342
N20 N 0.1840(7) 0.2400(2) 0.5438(2)
C31 C 0.4352(7) 0.5368(3) 0.6058(2)
H25 H 0.3661 0.5417 0.5949
C32 C 0.6351(6) 0.5783(3) 0.6666(2)
H26 H 0.5966 0.5805 0.6871
H27 H 0.6305 0.5993 0.6545
C33 C 0.1267(8) 0.4262(3) 0.5088(3)
H28 H 0.0591 0.4332 0.4984
C34 C 0.5823(6) 0.5526(3) 0.6442(2)
C36 C 0.9179(7) 0.5613(2) 0.6799(2)
C37 C 0.0751(7) 0.3702(2) 0.4925(3)
H30 H 0.0809 0.3704 0.4677
H31 H 0.0011 0.3764 0.4962
C38 C 0.1981(9) 0.4487(3) 0.5229(3)
H32 H 0.1781 0.4709 0.5213
C39 C 0.0698(8) 0.3228(3) 0.5341(3)
H33 H 0.0260 0.3314 0.5501
C41 C 0.1920(9) 0.2137(3) 0.5612(3)
H35 H 0.2354 0.1973 0.5529
C42 C 0.6266(8) 0.5232(3) 0.6392(3)
H36 H 0.6943 0.5179 0.6509
C43 C 0.5732(8) 0.5006(3) 0.6169(3)
H37 H 0.6036 0.4797 0.6143
C44 C 0.0854(11) 0.2317(4) 0.6025(3)
H38 H 0.0538 0.2292 0.6231
C45 C 0.0717(10) 0.2600(3) 0.5845(3)
H39 H 0.0274 0.2769 0.5916
C46 C 0.1185(8) 0.2927(3) 0.5348(3)
C47 C 0.1231(8) 0.2631(2) 0.5564(3)
C48 C 0.1461(10) 0.2061(4) 0.5906(3)
H40 H 0.1547 0.1856 0.6016
C49 C 0.3182(9) 0.4096(3) 0.5391(4)
H41 H 0.3864 0.4030 0.5495
C52 C 0.2469(10) 0.3859(3) 0.5250(5)
H44 H 0.2674 0.3638 0.5265
Ag3 Ag 0.52010(13) 0.74417(3) 0.03220(3)
N24 N 0.5914(6) 0.8684(2) 0.15529(19)
N25 N 0.6481(6) 0.5012(2) 0.02622(18)
N26 N 0.6590(6) 0.8550(2) 0.26405(19)
N27 N 0.5124(6) 0.8657(2) 0.17431(19)
C53 C 0.6873(8) 0.8666(3) 0.1729(3)
H45 H 0.7555 0.8686 0.1647
N28 N 0.5563(5) 0.8601(2) 0.20487(18)
C54 C 0.6936(8) 0.4757(3) 0.0448(2)
H46 H 0.6557 0.4560 0.0468
C55 C 0.7043(8) 0.8494(3) 0.2960(2)
H47 H 0.6590 0.8483 0.3137
C56 C 0.6478(7) 0.5530(2) 0.0009(2)
N29 N 0.5329(9) 0.7881(3) 0.0606(3)
C57 C 0.7056(7) 0.5279(3) 0.0232(2)
C58 C 0.8073(8) 0.5332(3) 0.0386(3)
H48 H 0.8439 0.5532 0.0365
C60 C 0.7993(8) 0.4798(3) 0.0608(3)
H51 H 0.8318 0.4626 0.0740
C61 C 0.5684(8) 0.8747(3) 0.1188(2)
H52 H 0.6271 0.8878 0.1109
H53 H 0.5015 0.8875 0.1148
C62 C 0.6096(9) 0.8395(3) 0.0707(3)
H54 H 0.6554 0.8560 0.0638
C63 C 0.6642(8) 0.8612(3) 0.2060(2)
C64 C 0.5568(8) 0.8439(3) 0.0989(3)
C67 C 0.4798(10) 0.7923(3) 0.0882(3)
H56 H 0.4342 0.7755 0.0946
N30 N 0.5218(9) 0.7020(3) 0.0002(2)
C68 C 0.8535(8) 0.5070(3) 0.0578(3)
H57 H 0.9243 0.5089 0.0686
C69 C 0.4900(10) 0.8205(3) 0.1075(3)
H58 H 0.4503 0.8232 0.1265
C71 C 0.7237(8) 0.8579(4) 0.2385(2)
C72 C 0.5972(11) 0.8120(5) 0.0528(3)
H60 H 0.6362 0.8094 0.0336
C73 C 0.8099(8) 0.8455(4) 0.3039(3)
H61 H 0.8383 0.8412 0.3266
C76 C 0.4799(12) 0.6757(4) 0.0089(4)
H64 H 0.4392 0.6755 0.0279
C77 C 0.8764(9) 0.8477(6) 0.2783(3)
H65 H 0.9517 0.8456 0.2832
C78 C 0.8300(9) 0.8533(6) 0.2443(3)
H66 H 0.8736 0.8537 0.2261
Ag4 Ag 0.60109(6) 0.52609(2) 0.43389(2)
N32 N 0.2175(5) 0.4313(2) 0.28969(18)
N33 N 0.2499(6) 0.4296(2) 0.32289(18)
N34 N 0.5214(6) 0.4916(2) 0.40068(19)
N35 N 0.1162(5) 0.43643(19) 0.28888(18)
N36 N 0.7074(6) 0.5585(2) 0.4615(2)
N37 N 0.9021(6) 0.66310(19) 0.4940(2)
N38 N 0.8253(6) 0.70909(19) 0.49312(19)
N39 N 0.8363(6) 0.6818(2) 0.5110(2)
C79 C 0.5158(7) 0.4404(3) 0.3728(2)
H67 H 0.5492 0.4201 0.3698
C80 C 0.8489(7) 0.6062(2) 0.4906(2)
C81 C 0.1703(7) 0.4347(2) 0.3417(2)
H68 H 0.1748 0.4354 0.3658
N40 N 0.8160(7) 0.7600(2) 0.4562(2)
C83 C 0.5648(7) 0.4632(3) 0.3942(2)
H69 H 0.6339 0.4583 0.4051
C84 C 0.3649(6) 0.4217(3) 0.3334(2)
H70 H 0.4034 0.4195 0.3129
H71 H 0.3695 0.4007 0.3455
C85 C 0.8733(8) 0.5738(3) 0.4912(3)
H72 H 0.9409 0.5668 0.5016
C86 C 0.4177(6) 0.4474(3) 0.3558(2)
C88 C 0.0821(7) 0.4387(2) 0.3201(2)
C89 C 0.9249(7) 0.6298(2) 0.5075(3)
H74 H 0.9191 0.6296 0.5323
H75 H 0.9989 0.6236 0.5038
C90 C 0.8019(9) 0.5513(3) 0.4771(3)
H76 H 0.8219 0.5291 0.4787
C91 C 0.9302(8) 0.6772(3) 0.4659(3)
H77 H 0.9740 0.6686 0.4499
C93 C 0.8080(9) 0.7863(3) 0.4388(3)
H79 H 0.7646 0.8027 0.4471
C94 C 0.3734(8) 0.4768(3) 0.3608(3)
H80 H 0.3057 0.4821 0.3491
C95 C 0.4268(8) 0.4994(3) 0.3831(3)
H81 H 0.3964 0.5203 0.3857
C96 C 0.9146(11) 0.7683(4) 0.3975(3)
H82 H 0.9462 0.7708 0.3769
C97 C 0.9283(10) 0.7400(3) 0.4155(3)
H83 H 0.9726 0.7231 0.4084
C98 C 0.8815(8) 0.7073(3) 0.4652(3)
C99 C 0.8769(8) 0.7369(2) 0.4436(3)
C100 C 0.8539(10) 0.7939(4) 0.4094(3)
H84 H 0.8453 0.8144 0.3984
C101 C 0.6818(9) 0.5904(3) 0.4609(4)
H85 H 0.6136 0.5970 0.4505
C104 C 0.7531(10) 0.6141(3) 0.4750(5)
H88 H 0.7326 0.6362 0.4735
Pt5 Pt 0.5000 0.5000 0.0000
N41 N 0.5507(5) 0.45683(18) 0.48695(16)
N42 N 0.6481(6) 0.4988(2) 0.52622(18)
Pt6 Pt 0.0000 0.43799(2) 0.2500
Pt7 Pt 0.7500 0.7500 0.5000
N43 N 0.9115(6) 0.5580(2) 0.79053(17)
N45 N 0.3253(6) 0.20909(19) 0.49312(19)
N46 N 0.3160(7) 0.2600(2) 0.4562(2)
N21 N 0.5507(5) 0.54317(18) 0.98695(16)
N22 N 0.5072(6) 0.5653(2) 0.96579(18)
N23 N 0.5806(6) 0.5893(2) 0.96631(19)
C59 C 0.5591(8) 0.6172(3) 0.9435(2)
H49 H 0.4924 0.6134 0.9285
H50 H 0.6186 0.6198 0.9291
C65 C 0.5482(7) 0.6473(3) 0.9641(2)
C66 C 0.6681(8) 0.5834(3) 0.9874(2)
H55 H 0.7296 0.5967 0.9921
C70 C 0.5934(10) 0.6758(3) 0.9550(3)
H59 H 0.6320 0.6765 0.9356
C74 C 0.5837(13) 0.7031(3) 0.9734(3)
H62 H 0.6187 0.7225 0.9680
C75 C 0.4924(13) 0.6481(4) 0.9917(4)
H63 H 0.4614 0.6286 0.9990
Pt5_2 Pt 0.5000 0.5000 1.0000
N31 N 0.9115(6) 0.4420(2) 0.29053(17)
C82 C 0.9689(7) 0.4440(2) 0.3216(2)
C87 C 0.8045(7) 0.4459(3) 0.2887(2)
H73 H 0.7635 0.4436 0.2673
C92 C 0.9194(7) 0.4498(3) 0.3496(2)
H78 H 0.9599 0.4502 0.3712
C102 C 0.8115(9) 0.4549(4) 0.3472(3)
H86 H 0.7773 0.4599 0.3669
C103 C 0.7536(8) 0.4529(4) 0.3164(3)
H87 H 0.6784 0.4564 0.3143
Pt6_2 Pt 1.0000 0.43799(2) 0.2500
N31_2 N 0.0885(6) 0.4420(2) 0.20947(17)
C82_2 C 0.0311(7) 0.4440(2) 0.1784(2)
C87_2 C 0.1955(7) 0.4459(3) 0.2113(2)
H73_2 H 0.2365 0.4436 0.2327
C92_2 C 0.0806(7) 0.4498(3) 0.1504(2)
H78_2 H 0.0401 0.4502 0.1288
C102_2 C 0.1885(9) 0.4549(4) 0.1528(3)
H86_2 H 0.2227 0.4599 0.1331
C103_2 C 0.2464(8) 0.4529(4) 0.1836(3)
H87_2 H 0.3216 0.4564 0.1857
Pt4_2 Pt 0.7500 0.2500 0.0000
N19_2 N 0.8363(6) 0.3182(2) 0.0110(2)
H28_2 H 0.9409 0.4332 0.0016
C37_2 C 0.9249(7) 0.3702(2) 0.0075(3)
H30_2 H 0.9191 0.3704 0.0323
H31_2 H 0.9989 0.3764 0.0038
Ag4_2 Ag 0.39891(6) 0.52609(2) 0.06611(2)
N32_2 N 0.7825(5) 0.4313(2) 0.21031(18)
N33_2 N 0.7501(6) 0.4296(2) 0.17711(18)
N34_2 N 0.4786(6) 0.4916(2) 0.09932(19)
N35_2 N 0.8838(5) 0.43643(19) 0.21112(18)
N36_2 N 0.2926(6) 0.5585(2) 0.0385(2)
N37_2 N 0.0979(6) 0.66310(19) 0.0060(2)
N38_2 N 0.1747(6) 0.70909(19) 0.00688(19)
C79_2 C 0.4842(7) 0.4404(3) 0.1272(2)
H67_2 H 0.4508 0.4201 0.1302
C80_2 C 0.1511(7) 0.6062(2) 0.0094(2)
C81_2 C 0.8297(7) 0.4347(2) 0.1583(2)
H68_2 H 0.8252 0.4354 0.1342
N40_2 N 0.1840(7) 0.7600(2) 0.0438(2)
C83_2 C 0.4352(7) 0.4632(3) 0.1058(2)
H69_2 H 0.3661 0.4583 0.0949
C84_2 C 0.6351(6) 0.4217(3) 0.1666(2)
H70_2 H 0.5966 0.4195 0.1871
H71_2 H 0.6305 0.4007 0.1545
C85_2 C 0.1267(8) 0.5738(3) 0.0088(3)
C86_2 C 0.5823(6) 0.4474(3) 0.1442(2)
C88_2 C 0.9179(7) 0.4387(2) 0.1799(2)
C90_2 C 0.1981(9) 0.5513(3) 0.0229(3)
H76_2 H 0.1781 0.5291 0.0213
C91_2 C 0.0698(8) 0.6772(3) 0.0341(3)
H77_2 H 0.0260 0.6686 0.0501
C93_2 C 0.1920(9) 0.7863(3) 0.0612(3)
H79_2 H 0.2354 0.8027 0.0529
C94_2 C 0.6266(8) 0.4768(3) 0.1392(3)
H80_2 H 0.6943 0.4821 0.1509
C95_2 C 0.5732(8) 0.4994(3) 0.1169(3)
H81_2 H 0.6036 0.5203 0.1143
C96_2 C 0.0854(11) 0.7683(4) 0.1025(3)
H82_2 H 0.0538 0.7708 0.1231
C97_2 C 0.0717(10) 0.7400(3) 0.0845(3)
H83_2 H 0.0274 0.7231 0.0916
C98_2 C 0.1185(8) 0.7073(3) 0.0348(3)
C99_2 C 0.1231(8) 0.7369(2) 0.0564(3)
C100_2 C 0.1461(10) 0.7939(4) 0.0906(3)
H84_2 H 0.1547 0.8144 0.1016
C101_2 C 0.3182(9) 0.5904(3) 0.0391(4)
H85_2 H 0.3864 0.5970 0.0495
C104_2 C 0.2469(10) 0.6141(3) 0.0250(5)
H88_2 H 0.2674 0.6362 0.0265
N41_2 N 0.4493(5) 0.45683(18) 0.01305(16)
Pt7_2 Pt 0.2500 0.7500 0.0000
N45_2 N 0.6747(6) 0.20909(19) 0.00688(19)
N46_2 N 0.6840(7) 0.2600(2) 0.0438(2)
Pt4_3 Pt 0.7500 0.2500 1.0000
Ag2_2 Ag 0.60109(6) 0.47391(2) 0.93389(2)
N12_2 N 0.2175(5) 0.5687(2) 0.78969(18)
N13_2 N 0.2499(6) 0.5704(2) 0.82289(18)
N14_2 N 0.5214(6) 0.5084(2) 0.90068(19)
N16_2 N 0.7074(6) 0.4415(2) 0.9615(2)
N17_2 N 0.9021(6) 0.33690(19) 0.9940(2)
N18_2 N 0.8253(6) 0.29091(19) 0.99312(19)
C27_2 C 0.5158(7) 0.5596(3) 0.8728(2)
H23_2 H 0.5492 0.5799 0.8698
C28_2 C 0.8489(7) 0.3938(2) 0.9906(2)
C29_2 C 0.1703(7) 0.5653(2) 0.8417(2)
H24_2 H 0.1748 0.5646 0.8658
N20_2 N 0.8160(7) 0.2400(2) 0.9562(2)
C31_2 C 0.5648(7) 0.5368(3) 0.8942(2)
H25_2 H 0.6339 0.5417 0.9051
C32_2 C 0.3649(6) 0.5783(3) 0.8334(2)
H26_2 H 0.4034 0.5805 0.8129
H27_2 H 0.3695 0.5993 0.8455
C33_2 C 0.8733(8) 0.4262(3) 0.9912(3)
C34_2 C 0.4177(6) 0.5526(3) 0.8558(2)
C36_2 C 0.0821(7) 0.5613(2) 0.8201(2)
C38_2 C 0.8019(9) 0.4487(3) 0.9771(3)
H32_2 H 0.8219 0.4709 0.9787
C39_2 C 0.9302(8) 0.3228(3) 0.9659(3)
H33_2 H 0.9740 0.3314 0.9499
C41_2 C 0.8080(9) 0.2137(3) 0.9388(3)
H35_2 H 0.7646 0.1973 0.9471
C42_2 C 0.3734(8) 0.5232(3) 0.8608(3)
H36_2 H 0.3057 0.5179 0.8491
C43_2 C 0.4268(8) 0.5006(3) 0.8831(3)
H37_2 H 0.3964 0.4797 0.8857
C44_2 C 0.9146(11) 0.2317(4) 0.8975(3)
H38_2 H 0.9462 0.2292 0.8769
C45_2 C 0.9283(10) 0.2600(3) 0.9155(3)
H39_2 H 0.9726 0.2769 0.9084
C46_2 C 0.8815(8) 0.2927(3) 0.9652(3)
C47_2 C 0.8769(8) 0.2631(2) 0.9436(3)
C48_2 C 0.8539(10) 0.2061(4) 0.9094(3)
H40_2 H 0.8453 0.1856 0.8984
C49_2 C 0.6818(9) 0.4096(3) 0.9609(4)
H41_2 H 0.6136 0.4030 0.9505
C52_2 C 0.7531(10) 0.3859(3) 0.9750(5)
H44_2 H 0.7326 0.3638 0.9735
N39_2 N 0.1637(6) 0.6818(2) 0.9890(2)
H72_2 H 0.0591 0.5668 0.9984
C89_2 C 0.0751(7) 0.6298(2) 0.9925(3)
H74_2 H 0.0809 0.6296 0.9677
H75_2 H 0.0011 0.6236 0.9962
N42_2 N 0.3519(6) 0.4988(2) 0.97378(18)
Pt7_3 Pt 0.2500 0.7500 1.0000
C30_2 C 0.9689(7) 0.5560(2) 0.8216(2)
C35_2 C 0.8045(7) 0.5541(3) 0.7887(2)
H29_2 H 0.7635 0.5564 0.7673
C40_2 C 0.9194(7) 0.5502(3) 0.8496(2)
H34_2 H 0.9599 0.5498 0.8712
C50_2 C 0.8115(9) 0.5451(4) 0.8472(3)
H42_2 H 0.7773 0.5401 0.8669
C51_2 C 0.7536(8) 0.5471(4) 0.8164(3)
H43_2 H 0.6784 0.5436 0.8143
Pt1_2 Pt 0.0000 -0.0000 0.5000
Pt2_2 Pt 0.0000 0.35785(2) 0.2500
H5_2 H 0.0076 0.1134 0.5715
C15_2 C 0.0202(10) 0.2923(3) 0.4118(3)
H12_2 H 0.0658 0.2755 0.4054
C17_2 C 0.0100(10) 0.3205(3) 0.3925(3)
H14_2 H 0.0497 0.3232 0.3735
C23_2 C 0.0076(13) 0.1481(4) 0.5083(4)
H19_2 H 0.0386 0.1286 0.5010
C24_2 C 0.0201(12) 0.1757(4) 0.4911(4)
H20_2 H 0.0608 0.1755 0.4721
Pt3_3 Pt 0.5000 0.06201(2) 0.7500
N11_2 N 0.5885(6) 0.0580(2) 0.70947(17)
N12_3 N 0.2825(5) 0.0687(2) 0.71031(18)
N13_3 N 0.2501(6) 0.0704(2) 0.67711(18)
N15_2 N 0.3838(5) 0.06357(19) 0.71112(18)
C29_3 C 0.3297(7) 0.0653(2) 0.6583(2)
H24_3 H 0.3252 0.0646 0.6342
C30_3 C 0.5311(7) 0.0560(2) 0.6784(2)
C32_3 C 0.1351(6) 0.0783(3) 0.6666(2)
H26_3 H 0.0966 0.0805 0.6871
H27_3 H 0.1305 0.0993 0.6545
C34_3 C 0.0823(6) 0.0526(3) 0.6442(2)
C35_3 C 0.6955(7) 0.0541(3) 0.7113(2)
H29_3 H 0.7365 0.0564 0.7327
C36_3 C 0.4179(7) 0.0613(2) 0.6799(2)
C40_3 C 0.5806(7) 0.0502(3) 0.6504(2)
H34_3 H 0.5401 0.0498 0.6288
C42_3 C 0.1266(8) 0.0232(3) 0.6392(3)
H36_3 H 0.1943 0.0179 0.6509
C43_3 C 0.0732(8) 0.0006(3) 0.6169(3)
C50_3 C 0.6885(9) 0.0451(4) 0.6528(3)
H42_3 H 0.7227 0.0401 0.6331
C51_3 C 0.7464(8) 0.0471(4) 0.6836(3)
H43_3 H 0.8216 0.0436 0.6857
Ag3_2 Ag 0.02010(13) 0.24417(3) 0.03220(3)
N24_2 N 0.0914(6) 0.3684(2) 0.15529(19)
N25_2 N 0.1481(6) 0.0012(2) 0.02622(18)
N26_2 N 0.1590(6) 0.3550(2) 0.26405(19)
N27_2 N 0.0124(6) 0.3657(2) 0.17431(19)
C53_2 C 0.1873(8) 0.3666(3) 0.1729(3)
H45_2 H 0.2555 0.3686 0.1647
N28_2 N 0.0563(5) 0.3601(2) 0.20487(18)
C55_2 C 0.2043(8) 0.3494(3) 0.2960(2)
H47_2 H 0.1590 0.3483 0.3137
C56_2 C 0.1478(7) 0.0530(2) 0.0009(2)
N29_2 N 0.0329(9) 0.2881(3) 0.0606(3)
C57_2 C 0.2056(7) 0.0279(3) 0.0232(2)
C58_2 C 0.3073(8) 0.0332(3) 0.0386(3)
H48_2 H 0.3439 0.0532 0.0365
C61_2 C 0.0684(8) 0.3747(3) 0.1188(2)
H52_2 H 0.1271 0.3878 0.1109
H53_2 H 0.0015 0.3875 0.1148
C62_2 C 0.1096(9) 0.3395(3) 0.0707(3)
H54_2 H 0.1554 0.3560 0.0638
C63_2 C 0.1642(8) 0.3612(3) 0.2060(2)
C64_2 C 0.0568(8) 0.3439(3) 0.0989(3)
N30_2 N 0.0218(9) 0.2020(3) 0.0002(2)
C68_2 C 0.3535(8) 0.0070(3) 0.0578(3)
H57_2 H 0.4243 0.0089 0.0686
C71_2 C 0.2237(8) 0.3579(4) 0.2385(2)
C72_2 C 0.0972(11) 0.3120(5) 0.0528(3)
H60_2 H 0.1362 0.3094 0.0336
C73_2 C 0.3099(8) 0.3455(4) 0.3039(3)
H61_2 H 0.3383 0.3412 0.3266
C77_2 C 0.3764(9) 0.3477(6) 0.2783(3)
H65_2 H 0.4517 0.3456 0.2832
C78_2 C 0.3300(9) 0.3533(6) 0.2443(3)
H66_2 H 0.3736 0.3537 0.2261
Ag4_3 Ag 0.10109(6) 0.02609(2) 0.43389(2)
N36_3 N 0.2074(6) 0.0585(2) 0.4615(2)
N37_3 N 0.4021(6) 0.16310(19) 0.4940(2)
N39_3 N 0.3363(6) 0.1818(2) 0.5110(2)
C80_3 C 0.3489(7) 0.1062(2) 0.4906(2)
C85_3 C 0.3733(8) 0.0738(3) 0.4912(3)
H72_3 H 0.4409 0.0668 0.5016
C89_3 C 0.4249(7) 0.1298(2) 0.5075(3)
H74_3 H 0.4191 0.1296 0.5323
H75_3 H 0.4989 0.1236 0.5038
C90_3 C 0.3019(9) 0.0513(3) 0.4771(3)
H76_3 H 0.3219 0.0291 0.4787
C91_3 C 0.4302(8) 0.1772(3) 0.4659(3)
H77_3 H 0.4740 0.1686 0.4499
C93_3 C 0.3080(9) 0.2863(3) 0.4388(3)
H79_3 H 0.2646 0.3027 0.4471
C96_3 C 0.4146(11) 0.2683(4) 0.3975(3)
H82_3 H 0.4462 0.2708 0.3769
C97_3 C 0.4283(10) 0.2400(3) 0.4155(3)
H83_3 H 0.4726 0.2231 0.4084
C98_3 C 0.3815(8) 0.2073(3) 0.4652(3)
C99_3 C 0.3769(8) 0.2369(2) 0.4436(3)
C100_3 C 0.3539(10) 0.2939(4) 0.4094(3)
H84_3 H 0.3453 0.3144 0.3984
C101_3 C 0.1818(9) 0.0904(3) 0.4609(4)
H85_3 H 0.1136 0.0970 0.4505
C104_3 C 0.2531(10) 0.1141(3) 0.4750(5)
H88_3 H 0.2326 0.1362 0.4735
Pt5_3 Pt 0.0000 0.0000 0.0000
N43_2 N 0.4115(6) 0.0580(2) 0.79053(17)
N44_2 N 0.6162(5) 0.06357(19) 0.78888(18)
N21_2 N 0.0507(5) 0.04317(18) 0.98695(16)
N22_2 N 0.0072(6) 0.0653(2) 0.96579(18)
N23_2 N 0.0806(6) 0.0893(2) 0.96631(19)
C59_2 C 0.0591(8) 0.1172(3) 0.9435(2)
H50_2 H 0.1186 0.1198 0.9291
C65_2 C 0.0482(7) 0.1473(3) 0.9641(2)
C66_2 C 0.1681(8) 0.0834(3) 0.9874(2)
H55_2 H 0.2296 0.0967 0.9921
C70_2 C 0.0934(10) 0.1758(3) 0.9550(3)
H59_2 H 0.1320 0.1765 0.9356
C74_2 C 0.0837(13) 0.2031(3) 0.9734(3)
H62_2 H 0.1187 0.2225 0.9680
Pt5_4 Pt 0.0000 -0.0000 1.0000
Pt1_3 Pt 0.0000 1.0000 0.5000
H37_3 H 0.1036 0.9797 0.6143
C54_2 C 0.1936(8) 0.9757(3) 0.0448(2)
H46_2 H 0.1557 0.9560 0.0468
C60_2 C 0.2993(8) 0.9798(3) 0.0608(3)
H51_2 H 0.3318 0.9626 0.0740
N34_3 N 0.0214(6) 0.9916(2) 0.40068(19)
C79_3 C 0.0158(7) 0.9404(3) 0.3728(2)
H67_3 H 0.0492 0.9201 0.3698
C83_3 C 0.0648(7) 0.9632(3) 0.3942(2)
H69_3 H 0.1339 0.9583 0.4051
Pt5_5 Pt 0.0000 1.0000 0.0000
N41_3 N 0.0507(5) 0.95683(18) 0.48695(16)
N42_3 N 0.1481(6) 0.9988(2) 0.52622(18)
Pt5_6 Pt -0.0000 1.0000 1.0000
Pt1_4 Pt 1.0000 -0.0000 0.5000
Pt2_3 Pt 1.0000 0.35785(2) 0.2500
Ag1_2 Ag 0.97990(13) 0.24417(3) 0.46780(3)
N1_2 N 0.9493(5) 0.04317(18) 0.51305(16)
N2_2 N 0.9928(6) 0.0653(2) 0.53421(18)
N3_2 N 0.9194(6) 0.0893(2) 0.53369(19)
N4_2 N 0.9086(6) 0.3684(2) 0.34471(19)
N5_2 N 0.8519(6) 0.0012(2) 0.47378(18)
N6_2 N 0.8410(6) 0.3550(2) 0.23595(19)
N7_2 N 0.9876(6) 0.3657(2) 0.32569(19)
C1_2 C 0.8127(8) 0.3666(3) 0.3271(3)
H1_2 H 0.7445 0.3686 0.3353
N8_2 N 0.9437(5) 0.3601(2) 0.29513(18)
C3_2 C 0.7957(8) 0.3494(3) 0.2040(2)
H3_2 H 0.8410 0.3483 0.1863
C4_2 C 0.8522(7) 0.0530(2) 0.4991(2)
N9_2 N 0.9671(9) 0.2881(3) 0.4394(3)
C5_2 C 0.7944(7) 0.0279(3) 0.4768(2)
C6_2 C 0.6927(8) 0.0332(3) 0.4614(3)
H4_2 H 0.6561 0.0532 0.4635
C7_2 C 0.9409(8) 0.1172(3) 0.5565(2)
H6_2 H 0.8814 0.1198 0.5709
C9_2 C 0.9316(8) 0.3747(3) 0.3812(2)
H8_2 H 0.8729 0.3878 0.3891
H9_2 H 0.9985 0.3875 0.3852
C10_2 C 0.8904(9) 0.3395(3) 0.4293(3)
H10_2 H 0.8446 0.3560 0.4362
C11_2 C 0.8358(8) 0.3612(3) 0.2940(2)
C12_2 C 0.9432(8) 0.3439(3) 0.4011(3)
C13_2 C 0.9518(7) 0.1473(3) 0.5359(2)
C14_2 C 0.8319(8) 0.0834(3) 0.5126(2)
H11_2 H 0.7704 0.0967 0.5079
N10_2 N 0.9782(9) 0.2020(3) 0.4998(2)
C16_2 C 0.6465(8) 0.0070(3) 0.4422(3)
H13_2 H 0.5757 0.0089 0.4314
C18_2 C 0.9066(10) 0.1758(3) 0.5450(3)
H15_2 H 0.8680 0.1765 0.5644
C19_2 C 0.7763(8) 0.3579(4) 0.2615(2)
C20_2 C 0.9028(11) 0.3120(5) 0.4472(3)
H16_2 H 0.8638 0.3094 0.4664
C21_2 C 0.6901(8) 0.3455(4) 0.1961(3)
H17_2 H 0.6617 0.3412 0.1734
C22_2 C 0.9163(13) 0.2031(3) 0.5266(3)
H18_2 H 0.8813 0.2225 0.5320
C25_2 C 0.6236(9) 0.3477(6) 0.2217(3)
H21_2 H 0.5483 0.3456 0.2168
C26_2 C 0.6700(9) 0.3533(6) 0.2557(3)
H22_2 H 0.6264 0.3537 0.2739
N14_3 N 0.9786(6) 0.0084(2) 0.59932(19)
C27_3 C 0.9842(7) 0.0596(3) 0.6272(2)
H23_3 H 0.9508 0.0799 0.6302
C31_3 C 0.9352(7) 0.0368(3) 0.6058(2)
H25_3 H 0.8661 0.0417 0.5949
C67_2 C 0.9798(10) 0.2923(3) 0.0882(3)
H56_2 H 0.9342 0.2755 0.0946
C69_2 C 0.9900(10) 0.3205(3) 0.1075(3)
H58_2 H 0.9503 0.3232 0.1265
C76_2 C 0.9799(12) 0.1757(4) 0.0089(4)
H64_2 H 0.9392 0.1755 0.0279
H81_3 H 0.8964 0.0203 0.3857
Pt5_7 Pt 1.0000 0.0000 0.0000
H49_2 H 0.9924 0.1134 0.9285
C75_2 C 0.9924(13) 0.1481(4) 0.9917(4)
H63_2 H 0.9614 0.1286 0.9990
Pt5_8 Pt 1.0000 -0.0000 1.0000
Pt1_5 Pt 1.0000 1.0000 0.5000
C2_2 C 0.8064(8) 0.9757(3) 0.4552(2)
H2_2 H 0.8443 0.9560 0.4532
C8_2 C 0.7007(8) 0.9798(3) 0.4392(3)
H7_2 H 0.6682 0.9626 0.4260
Ag2_3 Ag 0.89891(6) 0.97391(2) 0.56611(2)
N16_3 N 0.7926(6) 0.9415(2) 0.5385(2)
N17_3 N 0.5979(6) 0.83690(19) 0.5060(2)
N18_3 N 0.6747(6) 0.79091(19) 0.50688(19)
N19_3 N 0.6637(6) 0.8182(2) 0.4890(2)
C28_3 C 0.6511(7) 0.8938(2) 0.5094(2)
N20_3 N 0.6840(7) 0.7400(2) 0.5438(2)
C33_3 C 0.6267(8) 0.9262(3) 0.5088(3)
H28_3 H 0.5591 0.9332 0.4984
C37_3 C 0.5751(7) 0.8702(2) 0.4925(3)
H30_3 H 0.5809 0.8704 0.4677
H31_3 H 0.5011 0.8764 0.4962
C38_3 C 0.6981(9) 0.9487(3) 0.5229(3)
H32_3 H 0.6781 0.9709 0.5213
C39_3 C 0.5698(8) 0.8228(3) 0.5341(3)
H33_3 H 0.5260 0.8314 0.5501
C41_3 C 0.6920(9) 0.7137(3) 0.5612(3)
H35_3 H 0.7354 0.6973 0.5529
C44_3 C 0.5854(11) 0.7317(4) 0.6025(3)
H38_3 H 0.5538 0.7292 0.6231
C45_3 C 0.5717(10) 0.7600(3) 0.5845(3)
H39_3 H 0.5274 0.7769 0.5916
C46_3 C 0.6185(8) 0.7927(3) 0.5348(3)
C47_3 C 0.6231(8) 0.7631(2) 0.5564(3)
C48_3 C 0.6461(10) 0.7061(4) 0.5906(3)
H40_3 H 0.6547 0.6856 0.6016
C49_3 C 0.8182(9) 0.9096(3) 0.5391(4)
H41_3 H 0.8864 0.9030 0.5495
C52_3 C 0.7469(10) 0.8859(3) 0.5250(5)
H44_3 H 0.7674 0.8638 0.5265
N31_3 N 0.4115(6) 0.9420(2) 0.29053(17)
N32_3 N 0.7175(5) 0.9313(2) 0.28969(18)
N33_3 N 0.7499(6) 0.9296(2) 0.32289(18)
N35_3 N 0.6162(5) 0.93643(19) 0.28888(18)
C81_3 C 0.6703(7) 0.9347(2) 0.3417(2)
H68_3 H 0.6748 0.9354 0.3658
C82_3 C 0.4689(7) 0.9440(2) 0.3216(2)
C84_3 C 0.8649(6) 0.9217(3) 0.3334(2)
H70_3 H 0.9034 0.9195 0.3129
H71_3 H 0.8695 0.9007 0.3455
C86_3 C 0.9177(6) 0.9474(3) 0.3558(2)
C87_3 C 0.3045(7) 0.9459(3) 0.2887(2)
H73_3 H 0.2635 0.9436 0.2673
C88_3 C 0.5821(7) 0.9387(2) 0.3201(2)
C92_3 C 0.4194(7) 0.9498(3) 0.3496(2)
H78_3 H 0.4599 0.9502 0.3712
C94_3 C 0.8734(8) 0.9768(3) 0.3608(3)
H80_3 H 0.8057 0.9821 0.3491
C95_3 C 0.9268(8) 0.9994(3) 0.3831(3)
C102_3 C 0.3115(9) 0.9549(4) 0.3472(3)
H86_3 H 0.2773 0.9599 0.3669
C103_3 C 0.2536(8) 0.9529(4) 0.3164(3)
H87_3 H 0.1784 0.9564 0.3143
Pt5_9 Pt 1.0000 1.0000 0.0000
Pt6_3 Pt 0.5000 0.93799(2) 0.2500
Pt5_10 Pt 1.0000 1.0000 1.0000
H81_4 H 0.1036 0.0203 0.1143
N14_4 N 0.0214(6) 0.0084(2) 0.90068(19)
C27_4 C 0.0158(7) 0.0596(3) 0.8728(2)
H23_4 H 0.0492 0.0799 0.8698
C31_4 C 0.0648(7) 0.0368(3) 0.8942(2)
H25_4 H 0.1339 0.0417 0.9051
N19_4 N 0.3363(6) 0.8182(2) 0.0110(2)
H28_4 H 0.4409 0.9332 0.0016
C37_4 C 0.4249(7) 0.8702(2) 0.0075(3)
H30_4 H 0.4191 0.8704 0.0323
H31_4 H 0.4989 0.8764 0.0038
N31_4 N 0.5885(6) 0.9420(2) 0.20947(17)
N32_4 N 0.2825(5) 0.9313(2) 0.21031(18)
N33_4 N 0.2501(6) 0.9296(2) 0.17711(18)
N35_4 N 0.3838(5) 0.93643(19) 0.21112(18)
C81_4 C 0.3297(7) 0.9347(2) 0.1583(2)
H68_4 H 0.3252 0.9354 0.1342
C82_4 C 0.5311(7) 0.9440(2) 0.1784(2)
C84_4 C 0.1351(6) 0.9217(3) 0.1666(2)
H70_4 H 0.0966 0.9195 0.1871
H71_4 H 0.1305 0.9007 0.1545
C86_4 C 0.0823(6) 0.9474(3) 0.1442(2)
C87_4 C 0.6955(7) 0.9459(3) 0.2113(2)
H73_4 H 0.7365 0.9436 0.2327
C88_4 C 0.4179(7) 0.9387(2) 0.1799(2)
C92_4 C 0.5806(7) 0.9498(3) 0.1504(2)
H78_4 H 0.5401 0.9502 0.1288
C94_4 C 0.1266(8) 0.9768(3) 0.1392(3)
H80_4 H 0.1943 0.9821 0.1509
C95_4 C 0.0732(8) 0.9994(3) 0.1169(3)
C102_4 C 0.6885(9) 0.9549(4) 0.1528(3)
H86_4 H 0.7227 0.9599 0.1331
C103_4 C 0.7464(8) 0.9529(4) 0.1836(3)
H87_4 H 0.8216 0.9564 0.1857
Ag2_4 Ag 0.10109(6) 0.97391(2) 0.93389(2)
N16_4 N 0.2074(6) 0.9415(2) 0.9615(2)
N17_4 N 0.4021(6) 0.83690(19) 0.9940(2)
N18_4 N 0.3253(6) 0.79091(19) 0.99312(19)
C28_4 C 0.3489(7) 0.8938(2) 0.9906(2)
N20_4 N 0.3160(7) 0.7400(2) 0.9562(2)
C33_4 C 0.3733(8) 0.9262(3) 0.9912(3)
C38_4 C 0.3019(9) 0.9487(3) 0.9771(3)
H32_4 H 0.3219 0.9709 0.9787
C39_4 C 0.4302(8) 0.8228(3) 0.9659(3)
H33_4 H 0.4740 0.8314 0.9499
C41_4 C 0.3080(9) 0.7137(3) 0.9388(3)
H35_4 H 0.2646 0.6973 0.9471
C44_4 C 0.4146(11) 0.7317(4) 0.8975(3)
H38_4 H 0.4462 0.7292 0.8769
C45_4 C 0.4283(10) 0.7600(3) 0.9155(3)
H39_4 H 0.4726 0.7769 0.9084
C46_4 C 0.3815(8) 0.7927(3) 0.9652(3)
C47_4 C 0.3769(8) 0.7631(2) 0.9436(3)
C48_4 C 0.3539(10) 0.7061(4) 0.9094(3)
H40_4 H 0.3453 0.6856 0.8984
C49_4 C 0.1818(9) 0.9096(3) 0.9609(4)
H41_4 H 0.1136 0.9030 0.9505
C52_4 C 0.2531(10) 0.8859(3) 0.9750(5)
H44_4 H 0.2326 0.8638 0.9735
Ag4_4 Ag 0.89891(6) 0.02609(2) 0.06611(2)
N36_4 N 0.7926(6) 0.0585(2) 0.0385(2)
N37_4 N 0.5979(6) 0.16310(19) 0.0060(2)
C80_4 C 0.6511(7) 0.1062(2) 0.0094(2)
C85_4 C 0.6267(8) 0.0738(3) 0.0088(3)
C90_4 C 0.6981(9) 0.0513(3) 0.0229(3)
H76_4 H 0.6781 0.0291 0.0213
C91_4 C 0.5698(8) 0.1772(3) 0.0341(3)
H77_4 H 0.5260 0.1686 0.0501
C93_4 C 0.6920(9) 0.2863(3) 0.0612(3)
H79_4 H 0.7354 0.3027 0.0529
C96_4 C 0.5854(11) 0.2683(4) 0.1025(3)
H82_4 H 0.5538 0.2708 0.1231
C97_4 C 0.5717(10) 0.2400(3) 0.0845(3)
H83_4 H 0.5274 0.2231 0.0916
C98_4 C 0.6185(8) 0.2073(3) 0.0348(3)
C99_4 C 0.6231(8) 0.2369(2) 0.0564(3)
C100_4 C 0.6461(10) 0.2939(4) 0.0906(3)
H84_4 H 0.6547 0.3144 0.1016
C101_4 C 0.8182(9) 0.0904(3) 0.0391(4)
H85_4 H 0.8864 0.0970 0.0495
C104_4 C 0.7469(10) 0.1141(3) 0.0250(5)
H88_4 H 0.7674 0.1362 0.0265
N12_4 N 0.7175(5) 0.0687(2) 0.78969(18)
N13_4 N 0.7499(6) 0.0704(2) 0.82289(18)
C29_4 C 0.6703(7) 0.0653(2) 0.8417(2)
H24_4 H 0.6748 0.0646 0.8658
C30_4 C 0.4689(7) 0.0560(2) 0.8216(2)
C32_4 C 0.8649(6) 0.0783(3) 0.8334(2)
H26_4 H 0.9034 0.0805 0.8129
H27_4 H 0.8695 0.0993 0.8455
C34_4 C 0.9177(6) 0.0526(3) 0.8558(2)
C35_4 C 0.3045(7) 0.0541(3) 0.7887(2)
H29_4 H 0.2635 0.0564 0.7673
C36_4 C 0.5821(7) 0.0613(2) 0.8201(2)
C40_4 C 0.4194(7) 0.0502(3) 0.8496(2)
H34_4 H 0.4599 0.0498 0.8712
C42_4 C 0.8734(8) 0.0232(3) 0.8608(3)
H36_4 H 0.8057 0.0179 0.8491
C43_4 C 0.9268(8) 0.0006(3) 0.8831(3)
C50_4 C 0.3115(9) 0.0451(4) 0.8472(3)
H42_4 H 0.2773 0.0401 0.8669
C51_4 C 0.2536(8) 0.0471(4) 0.8164(3)
H43_4 H 0.1784 0.0436 0.8143
N39_4 N 0.6637(6) 0.1818(2) 0.9890(2)
H72_4 H 0.5591 0.0668 0.9984
C89_4 C 0.5751(7) 0.1298(2) 0.9925(3)
H74_4 H 0.5809 0.1296 0.9677
H75_4 H 0.5011 0.1236 0.9962
N34_4 N 0.9786(6) 0.9916(2) 0.09932(19)
C79_4 C 0.9842(7) 0.9404(3) 0.1272(2)
H67_4 H 0.9508 0.9201 0.1302
C83_4 C 0.9352(7) 0.9632(3) 0.1058(2)
H69_4 H 0.8661 0.9583 0.0949
N41_4 N 0.9493(5) 0.95683(18) 0.01305(16)
H37_4 H 0.8964 0.9797 0.8857
N42_4 N 0.8519(6) 0.9988(2) 0.97378(18)
N22_3 N 0.4928(6) 0.4347(2) 0.03421(18)
N23_3 N 0.4194(6) 0.4107(2) 0.03369(19)
C59_3 C 0.4409(8) 0.3828(3) 0.0565(2)
H49_3 H 0.5076 0.3866 0.0715
H50_3 H 0.3814 0.3802 0.0709
C65_3 C 0.4518(7) 0.3527(3) 0.0359(2)
C66_3 C 0.3319(8) 0.4166(3) 0.0126(2)
H55_3 H 0.2704 0.4033 0.0079
C70_3 C 0.4066(10) 0.3242(3) 0.0450(3)
H59_3 H 0.3680 0.3235 0.0644
C74_3 C 0.4163(13) 0.2969(3) 0.0266(3)
H62_3 H 0.3813 0.2775 0.0320
C75_3 C 0.5076(13) 0.3519(4) 0.0083(4)
H63_3 H 0.5386 0.3714 0.0010
Pt2_4 Pt 0.5000 0.14215(2) 0.7500
Ag1_3 Ag 0.52010(13) 0.25583(3) 0.53220(3)
N2_3 N 0.5072(6) 0.4347(2) 0.46579(18)
N3_3 N 0.5806(6) 0.4107(2) 0.46631(19)
N4_3 N 0.5914(6) 0.1316(2) 0.65529(19)
N6_3 N 0.6590(6) 0.1450(2) 0.76405(19)
N7_3 N 0.5124(6) 0.1343(2) 0.67431(19)
C1_3 C 0.6873(8) 0.1334(3) 0.6729(3)
H1_3 H 0.7555 0.1314 0.6647
N8_3 N 0.5563(5) 0.1399(2) 0.70487(18)
C2_3 C 0.6936(8) 0.5243(3) 0.5448(2)
H2_3 H 0.6557 0.5440 0.5468
C3_3 C 0.7043(8) 0.1506(3) 0.7960(2)
H3_3 H 0.6590 0.1517 0.8137
C4_3 C 0.6478(7) 0.4470(2) 0.5009(2)
N9_3 N 0.5329(9) 0.2119(3) 0.5606(3)
C5_3 C 0.7056(7) 0.4721(3) 0.5232(2)
C6_3 C 0.8073(8) 0.4668(3) 0.5386(3)
H4_3 H 0.8439 0.4468 0.5365
C7_3 C 0.5591(8) 0.3828(3) 0.4435(2)
H5_3 H 0.4924 0.3866 0.4285
H6_3 H 0.6186 0.3802 0.4291
C8_3 C 0.7993(8) 0.5202(3) 0.5608(3)
H7_3 H 0.8318 0.5374 0.5740
C9_3 C 0.5684(8) 0.1253(3) 0.6188(2)
H8_3 H 0.6271 0.1122 0.6109
H9_3 H 0.5015 0.1125 0.6148
C10_3 C 0.6096(9) 0.1605(3) 0.5707(3)
H10_3 H 0.6554 0.1440 0.5638
C11_3 C 0.6642(8) 0.1388(3) 0.7060(2)
C12_3 C 0.5568(8) 0.1561(3) 0.5989(3)
C13_3 C 0.5482(7) 0.3527(3) 0.4641(2)
C14_3 C 0.6681(8) 0.4166(3) 0.4874(2)
H11_3 H 0.7296 0.4033 0.4921
C15_3 C 0.4798(10) 0.2077(3) 0.5882(3)
H12_3 H 0.4342 0.2245 0.5946
N10_3 N 0.5218(9) 0.2980(3) 0.5002(2)
C16_3 C 0.8535(8) 0.4930(3) 0.5578(3)
H13_3 H 0.9243 0.4911 0.5686
C17_3 C 0.4900(10) 0.1795(3) 0.6075(3)
H14_3 H 0.4503 0.1768 0.6265
C18_3 C 0.5934(10) 0.3242(3) 0.4550(3)
H15_3 H 0.6320 0.3235 0.4356
C19_3 C 0.7237(8) 0.1421(4) 0.7385(2)
C20_3 C 0.5972(11) 0.1880(5) 0.5528(3)
H16_3 H 0.6362 0.1906 0.5336
C21_3 C 0.8099(8) 0.1545(4) 0.8039(3)
H17_3 H 0.8383 0.1588 0.8266
C22_3 C 0.5837(13) 0.2969(3) 0.4734(3)
H18_3 H 0.6187 0.2775 0.4680
C23_3 C 0.4924(13) 0.3519(4) 0.4917(4)
H19_3 H 0.4614 0.3714 0.4990
C24_3 C 0.4799(12) 0.3243(4) 0.5089(4)
H20_3 H 0.4392 0.3245 0.5279
C25_3 C 0.8764(9) 0.1523(6) 0.7783(3)
H21_3 H 0.9517 0.1544 0.7832
C26_3 C 0.8300(9) 0.1467(6) 0.7443(3)
H22_3 H 0.8736 0.1463 0.7261
Ag3_3 Ag 0.47990(13) 0.25583(3) 0.96780(3)
N24_3 N 0.4086(6) 0.1316(2) 0.84471(19)
N26_3 N 0.3410(6) 0.1450(2) 0.73595(19)
N27_3 N 0.4876(6) 0.1343(2) 0.82569(19)
C53_3 C 0.3127(8) 0.1334(3) 0.8271(3)
H45_3 H 0.2445 0.1314 0.8353
N28_3 N 0.4437(5) 0.1399(2) 0.79513(18)
C54_3 C 0.3064(8) 0.5243(3) 0.9552(2)
H46_3 H 0.3443 0.5440 0.9532
C55_3 C 0.2957(8) 0.1506(3) 0.7040(2)
H47_3 H 0.3410 0.1517 0.6863
C56_3 C 0.3522(7) 0.4470(2) 0.9991(2)
N29_3 N 0.4671(9) 0.2119(3) 0.9394(3)
C57_3 C 0.2944(7) 0.4721(3) 0.9768(2)
C58_3 C 0.1927(8) 0.4668(3) 0.9614(3)
H48_3 H 0.1561 0.4468 0.9635
C60_3 C 0.2007(8) 0.5202(3) 0.9392(3)
H51_3 H 0.1682 0.5374 0.9260
C61_3 C 0.4316(8) 0.1253(3) 0.8812(2)
H52_3 H 0.3729 0.1122 0.8891
H53_3 H 0.4985 0.1125 0.8852
C62_3 C 0.3904(9) 0.1605(3) 0.9293(3)
H54_3 H 0.3446 0.1440 0.9362
C63_3 C 0.3358(8) 0.1388(3) 0.7940(2)
C64_3 C 0.4432(8) 0.1561(3) 0.9011(3)
C67_3 C 0.5202(10) 0.2077(3) 0.9118(3)
H56_3 H 0.5658 0.2245 0.9054
N30_3 N 0.4782(9) 0.2980(3) 0.9998(2)
C68_3 C 0.1465(8) 0.4930(3) 0.9422(3)
H57_3 H 0.0757 0.4911 0.9314
C69_3 C 0.5100(10) 0.1795(3) 0.8925(3)
H58_3 H 0.5497 0.1768 0.8735
C71_3 C 0.2763(8) 0.1421(4) 0.7615(2)
C72_3 C 0.4028(11) 0.1880(5) 0.9472(3)
H60_3 H 0.3638 0.1906 0.9664
C73_3 C 0.1901(8) 0.1545(4) 0.6961(3)
H61_3 H 0.1617 0.1588 0.6734
C76_3 C 0.5201(12) 0.3243(4) 0.9911(4)
H64_3 H 0.5608 0.3245 0.9721
C77_3 C 0.1236(9) 0.1523(6) 0.7217(3)
H65_3 H 0.0483 0.1544 0.7168
C78_3 C 0.1700(9) 0.1467(6) 0.7557(3)
H66_3 H 0.1264 0.1463 0.7739
C2_4 C 0.1936(8) 0.0243(3) 0.5448(2)
H2_4 H 0.1557 0.0440 0.5468
C8_4 C 0.2993(8) 0.0202(3) 0.5608(3)
H7_4 H 0.3318 0.0374 0.5740
H49_4 H 0.0076 0.8866 0.0715
C75_4 C 0.0076(13) 0.8519(4) 0.0083(4)
H63_4 H 0.0386 0.8714 0.0010
Pt2_5 Pt -0.0000 0.64215(2) 0.7500
Ag1_4 Ag 0.02010(13) 0.75583(3) 0.53220(3)
N2_4 N 0.0072(6) 0.9347(2) 0.46579(18)
N3_4 N 0.0806(6) 0.9107(2) 0.46631(19)
N4_4 N 0.0914(6) 0.6316(2) 0.65529(19)
N6_4 N 0.1590(6) 0.6450(2) 0.76405(19)
N7_4 N 0.0124(6) 0.6343(2) 0.67431(19)
C1_4 C 0.1873(8) 0.6334(3) 0.6729(3)
H1_4 H 0.2555 0.6314 0.6647
N8_4 N 0.0563(5) 0.6399(2) 0.70487(18)
C3_4 C 0.2043(8) 0.6506(3) 0.7960(2)
H3_4 H 0.1590 0.6517 0.8137
C4_4 C 0.1478(7) 0.9470(2) 0.5009(2)
N9_4 N 0.0329(9) 0.7119(3) 0.5606(3)
C5_4 C 0.2056(7) 0.9721(3) 0.5232(2)
C6_4 C 0.3073(8) 0.9668(3) 0.5386(3)
H4_4 H 0.3439 0.9468 0.5365
C7_4 C 0.0591(8) 0.8828(3) 0.4435(2)
H6_4 H 0.1186 0.8802 0.4291
C9_4 C 0.0684(8) 0.6253(3) 0.6188(2)
H8_4 H 0.1271 0.6122 0.6109
H9_4 H 0.0015 0.6125 0.6148
C10_4 C 0.1096(9) 0.6605(3) 0.5707(3)
H10_4 H 0.1554 0.6440 0.5638
C11_4 C 0.1642(8) 0.6388(3) 0.7060(2)
C12_4 C 0.0568(8) 0.6561(3) 0.5989(3)
C13_4 C 0.0482(7) 0.8527(3) 0.4641(2)
C14_4 C 0.1681(8) 0.9166(3) 0.4874(2)
H11_4 H 0.2296 0.9033 0.4921
N10_4 N 0.0218(9) 0.7980(3) 0.5002(2)
C16_4 C 0.3535(8) 0.9930(3) 0.5578(3)
H13_4 H 0.4243 0.9911 0.5686
C18_4 C 0.0934(10) 0.8242(3) 0.4550(3)
H15_4 H 0.1320 0.8235 0.4356
C19_4 C 0.2237(8) 0.6421(4) 0.7385(2)
C20_4 C 0.0972(11) 0.6880(5) 0.5528(3)
H16_4 H 0.1362 0.6906 0.5336
C21_4 C 0.3099(8) 0.6545(4) 0.8039(3)
H17_4 H 0.3383 0.6588 0.8266
C22_4 C 0.0837(13) 0.7969(3) 0.4734(3)
H18_4 H 0.1187 0.7775 0.4680
C25_4 C 0.3764(9) 0.6523(6) 0.7783(3)
H21_4 H 0.4517 0.6544 0.7832
C26_4 C 0.3300(9) 0.6467(6) 0.7443(3)
H22_4 H 0.3736 0.6463 0.7261
C67_4 C 0.0202(10) 0.7077(3) 0.9118(3)
H56_4 H 0.0658 0.7245 0.9054
C69_4 C 0.0100(10) 0.6795(3) 0.8925(3)
H58_4 H 0.0497 0.6768 0.8735
C76_4 C 0.0201(12) 0.8243(4) 0.9911(4)
H64_4 H 0.0608 0.8245 0.9721
C54_4 C 0.8064(8) 0.0243(3) 0.9552(2)
H46_4 H 0.8443 0.0440 0.9532
C60_4 C 0.7007(8) 0.0202(3) 0.9392(3)
H51_4 H 0.6682 0.0374 0.9260
N22_4 N 0.9928(6) 0.9347(2) 0.03421(18)
N23_4 N 0.9194(6) 0.9107(2) 0.03369(19)
C59_4 C 0.9409(8) 0.8828(3) 0.0565(2)
H50_4 H 0.8814 0.8802 0.0709
C65_4 C 0.9518(7) 0.8527(3) 0.0359(2)
C66_4 C 0.8319(8) 0.9166(3) 0.0126(2)
H55_4 H 0.7704 0.9033 0.0079
C70_4 C 0.9066(10) 0.8242(3) 0.0450(3)
H59_4 H 0.8680 0.8235 0.0644
C74_4 C 0.9163(13) 0.7969(3) 0.0266(3)
H62_4 H 0.8813 0.7775 0.0320
Pt2_6 Pt 1.0000 0.64215(2) 0.7500
H5_4 H 0.9924 0.8866 0.4285
C15_4 C 0.9798(10) 0.7077(3) 0.5882(3)
H12_4 H 0.9342 0.7245 0.5946
C17_4 C 0.9900(10) 0.6795(3) 0.6075(3)
H14_4 H 0.9503 0.6768 0.6265
C23_4 C 0.9924(13) 0.8519(4) 0.4917(4)
H19_4 H 0.9614 0.8714 0.4990
C24_4 C 0.9799(12) 0.8243(4) 0.5089(4)
H20_4 H 0.9392 0.8245 0.5279
Ag3_4 Ag 0.97990(13) 0.75583(3) 0.96780(3)
N24_4 N 0.9086(6) 0.6316(2) 0.84471(19)
N26_4 N 0.8410(6) 0.6450(2) 0.73595(19)
N27_4 N 0.9876(6) 0.6343(2) 0.82569(19)
C53_4 C 0.8127(8) 0.6334(3) 0.8271(3)
H45_4 H 0.7445 0.6314 0.8353
N28_4 N 0.9437(5) 0.6399(2) 0.79513(18)
C55_4 C 0.7957(8) 0.6506(3) 0.7040(2)
H47_4 H 0.8410 0.6517 0.6863
C56_4 C 0.8522(7) 0.9470(2) 0.9991(2)
N29_4 N 0.9671(9) 0.7119(3) 0.9394(3)
C57_4 C 0.7944(7) 0.9721(3) 0.9768(2)
C58_4 C 0.6927(8) 0.9668(3) 0.9614(3)
H48_4 H 0.6561 0.9468 0.9635
C61_4 C 0.9316(8) 0.6253(3) 0.8812(2)
H52_4 H 0.8729 0.6122 0.8891
H53_4 H 0.9985 0.6125 0.8852
C62_4 C 0.8904(9) 0.6605(3) 0.9293(3)
H54_4 H 0.8446 0.6440 0.9362
C63_4 C 0.8358(8) 0.6388(3) 0.7940(2)
C64_4 C 0.9432(8) 0.6561(3) 0.9011(3)
N30_4 N 0.9782(9) 0.7980(3) 0.9998(2)
C68_4 C 0.6465(8) 0.9930(3) 0.9422(3)
H57_4 H 0.5757 0.9911 0.9314
C71_4 C 0.7763(8) 0.6421(4) 0.7615(2)
C72_4 C 0.9028(11) 0.6880(5) 0.9472(3)
H60_4 H 0.8638 0.6906 0.9664
C73_4 C 0.6901(8) 0.6545(4) 0.6961(3)
H61_4 H 0.6617 0.6588 0.6734
C77_4 C 0.6236(9) 0.6523(6) 0.7217(3)
H65_4 H 0.5483 0.6544 0.7168
C78_4 C 0.6700(9) 0.6467(6) 0.7557(3)
H66_4 H 0.6264 0.6463 0.7739
F1 F 0.2068(4) 0.57456(14) 0.57602(13)
F2 F 0.1107(4) 0.5656(2) 0.52543(14)
F3 F 0.2069(6) 0.52483(15) 0.55220(18)
F4 F 0.0541(5) 0.5446(2) 0.57299(17)
B1 B 0.1422(9) 0.5520(3) 0.5579(3)
F1_2 F 0.7932(4) 0.57456(14) 0.92398(13)
F2_2 F 0.8893(4) 0.5656(2) 0.97457(14)
F3_2 F 0.7931(6) 0.52483(15) 0.94780(18)
F4_2 F 0.9459(5) 0.5446(2) 0.92701(17)
B1_2 B 0.8578(9) 0.5520(3) 0.9421(3)
F1_3 F 0.7068(4) 0.07456(14) 0.57602(13)
F2_3 F 0.6107(4) 0.0656(2) 0.52543(14)
F3_3 F 0.7069(6) 0.02483(15) 0.55220(18)
F4_3 F 0.5541(5) 0.0446(2) 0.57299(17)
B1_3 B 0.6422(9) 0.0520(3) 0.5579(3)
F1_4 F 0.2932(4) 0.07456(14) 0.92398(13)
F2_4 F 0.3893(4) 0.0656(2) 0.97457(14)
F3_4 F 0.2931(6) 0.02483(15) 0.94780(18)
F4_4 F 0.4459(5) 0.0446(2) 0.92701(17)
B1_4 B 0.3578(9) 0.0520(3) 0.9421(3)
F1_5 F 0.7932(4) 0.42544(14) 0.42398(13)
F2_5 F 0.8893(4) 0.4344(2) 0.47457(14)
F3_5 F 0.7931(6) 0.47517(15) 0.44780(18)
F4_5 F 0.9459(5) 0.4554(2) 0.42701(17)
B1_5 B 0.8578(9) 0.4480(3) 0.4421(3)
F1_6 F 0.2068(4) 0.42544(14) 0.07602(13)
F2_6 F 0.1107(4) 0.4344(2) 0.02543(14)
F3_6 F 0.2069(6) 0.47517(15) 0.05220(18)
F4_6 F 0.0541(5) 0.4554(2) 0.07299(17)
B1_6 B 0.1422(9) 0.4480(3) 0.0579(3)
F1_7 F 0.2932(4) 0.92544(14) 0.42398(13)
F2_7 F 0.3893(4) 0.9344(2) 0.47457(14)
F3_7 F 0.2931(6) 0.97517(15) 0.44780(18)
F4_7 F 0.4459(5) 0.9554(2) 0.42701(17)
B1_7 B 0.3578(9) 0.9480(3) 0.4421(3)
F1_8 F 0.7068(4) 0.92544(14) 0.07602(13)
F2_8 F 0.6107(4) 0.9344(2) 0.02543(14)
F3_8 F 0.7069(6) 0.97517(15) 0.05220(18)
F4_8 F 0.5541(5) 0.9554(2) 0.07299(17)
B1_8 B 0.6422(9) 0.9480(3) 0.0579(3)
F6 F 0.1598(4) 0.84745(18) 0.37939(13)
F7 F 0.0698(5) 0.8678(2) 0.33263(16)
F8 F 0.0510(7) 0.8169(2) 0.3421(3)
B2 B 0.0632(8) 0.8448(3) 0.3582(3)
F5 F 0.9787(4) 0.85205(17) 0.37520(14)
F5_2 F 0.0213(4) 0.85205(17) 0.12480(14)
F6_2 F 0.8402(4) 0.84745(18) 0.12061(13)
F7_2 F 0.9302(5) 0.8678(2) 0.16737(16)
F8_2 F 0.9490(7) 0.8169(2) 0.1579(3)
B2_2 B 0.9368(8) 0.8448(3) 0.1418(3)
F5_3 F 0.4787(4) 0.35205(17) 0.37520(14)
F6_3 F 0.6598(4) 0.34745(18) 0.37939(13)
F7_3 F 0.5698(5) 0.3678(2) 0.33263(16)
F8_3 F 0.5510(7) 0.3169(2) 0.3421(3)
B2_3 B 0.5632(8) 0.3448(3) 0.3582(3)
F5_4 F 0.5213(4) 0.35205(17) 0.12480(14)
F6_4 F 0.3402(4) 0.34745(18) 0.12061(13)
F7_4 F 0.4302(5) 0.3678(2) 0.16737(16)
F8_4 F 0.4490(7) 0.3169(2) 0.1579(3)
B2_4 B 0.4368(8) 0.3448(3) 0.1418(3)
F5_5 F 0.0213(4) 0.14795(17) 0.62480(14)
F6_5 F 0.8402(4) 0.15255(18) 0.62061(13)
F7_5 F 0.9302(5) 0.1322(2) 0.66737(16)
F8_5 F 0.9490(7) 0.1831(2) 0.6579(3)
B2_5 B 0.9368(8) 0.1552(3) 0.6418(3)
F6_6 F 0.1598(4) 0.15255(18) 0.87939(13)
F7_6 F 0.0698(5) 0.1322(2) 0.83263(16)
F8_6 F 0.0510(7) 0.1831(2) 0.8421(3)
B2_6 B 0.0632(8) 0.1552(3) 0.8582(3)
F5_6 F 0.9787(4) 0.14795(17) 0.87520(14)
F5_7 F 0.5213(4) 0.64795(17) 0.62480(14)
F6_7 F 0.3402(4) 0.65255(18) 0.62061(13)
F7_7 F 0.4302(5) 0.6322(2) 0.66737(16)
F8_7 F 0.4490(7) 0.6831(2) 0.6579(3)
B2_7 B 0.4368(8) 0.6552(3) 0.6418(3)
F5_8 F 0.4787(4) 0.64795(17) 0.87520(14)
F6_8 F 0.6598(4) 0.65255(18) 0.87939(13)
F7_8 F 0.5698(5) 0.6322(2) 0.83263(16)
F8_8 F 0.5510(7) 0.6831(2) 0.8421(3)
B2_8 B 0.5632(8) 0.6552(3) 0.8582(3)
F9 F 0.8554(4) 0.60153(16) 0.58089(16)
F10 F 0.6853(4) 0.59077(16) 0.59150(15)
F11 F 0.7740(5) 0.63280(17) 0.61893(15)
F12 F 0.7200(6) 0.63617(17) 0.56268(17)
B3 B 0.7545(10) 0.6158(3) 0.5886(3)
F9_2 F 0.1446(4) 0.60153(16) 0.91911(16)
F10_2 F 0.3147(4) 0.59077(16) 0.90850(15)
F11_2 F 0.2260(5) 0.63280(17) 0.88107(15)
F12_2 F 0.2800(6) 0.63617(17) 0.93732(17)
B3_2 B 0.2455(10) 0.6158(3) 0.9114(3)
F9_3 F 0.3554(4) 0.10153(16) 0.58089(16)
F10_3 F 0.1853(4) 0.09077(16) 0.59150(15)
F11_3 F 0.2740(5) 0.13280(17) 0.61893(15)
F12_3 F 0.2200(6) 0.13617(17) 0.56268(17)
B3_3 B 0.2545(10) 0.1158(3) 0.5886(3)
F9_4 F 0.6446(4) 0.10153(16) 0.91911(16)
F10_4 F 0.8147(4) 0.09077(16) 0.90850(15)
F11_4 F 0.7260(5) 0.13280(17) 0.88107(15)
F12_4 F 0.7800(6) 0.13617(17) 0.93732(17)
B3_4 B 0.7455(10) 0.1158(3) 0.9114(3)
F9_5 F 0.1446(4) 0.39847(16) 0.41911(16)
F10_5 F 0.3147(4) 0.40923(16) 0.40850(15)
F11_5 F 0.2260(5) 0.36720(17) 0.38107(15)
F12_5 F 0.2800(6) 0.36383(17) 0.43732(17)
B3_5 B 0.2455(10) 0.3842(3) 0.4114(3)
F9_6 F 0.8554(4) 0.39847(16) 0.08089(16)
F10_6 F 0.6853(4) 0.40923(16) 0.09150(15)
F11_6 F 0.7740(5) 0.36720(17) 0.11893(15)
F12_6 F 0.7200(6) 0.36383(17) 0.06268(17)
B3_6 B 0.7545(10) 0.3842(3) 0.0886(3)
F9_7 F 0.6446(4) 0.89847(16) 0.41911(16)
F10_7 F 0.8147(4) 0.90923(16) 0.40850(15)
F11_7 F 0.7260(5) 0.86720(17) 0.38107(15)
F12_7 F 0.7800(6) 0.86383(17) 0.43732(17)
B3_7 B 0.7455(10) 0.8842(3) 0.4114(3)
F9_8 F 0.3554(4) 0.89847(16) 0.08089(16)
F10_8 F 0.1853(4) 0.90923(16) 0.09150(15)
F11_8 F 0.2740(5) 0.86720(17) 0.11893(15)
F12_8 F 0.2200(6) 0.86383(17) 0.06268(17)
B3_8 B 0.2545(10) 0.8842(3) 0.0886(3)
loop_
_geom_bond_atom_site_label_1
_geom_bond_atom_site_label_2
_geom_bond_site_symmetry_1
_geom_bond_site_symmetry_2
Pt3 N11 1_555 1_555
N11 C30 1_555 1_555
C35 N11 1_555 1_555
H29 C35 1_555 1_555
C40 C30 1_555 1_555
H34 C40 1_555 1_555
C50 C40 1_555 1_555
H42 C50 1_555 1_555
C51 C35 1_555 1_555
H43 C51 1_555 1_555
N44 Pt3 1_555 1_555
C50 C51 1_555 1_555
Pt1 N1 1_555 1_555
Pt2 N6 1_555 1_555
Ag1 N9 1_555 1_555
N1 N2 1_555 1_555
N2 N3 1_555 1_555
N3 C7 1_555 1_555
N4 N7 1_555 1_555
N5 Pt1 1_555 1_555
N6 C3 1_555 1_555
N7 N8 1_555 1_555
C1 N4 1_555 1_555
H1 C1 1_555 1_555
N8 Pt2 1_555 1_555
C2 N5 1_555 1_555
H2 C2 1_555 1_555
C3 H3 1_555 1_555
C4 N1 1_555 1_555
N9 C15 1_555 1_555
C5 N5 1_555 1_555
C6 C5 1_555 1_555
H4 C6 1_555 1_555
C7 H5 1_555 1_555
H6 C7 1_555 1_555
C8 C2 1_555 1_555
H7 C8 1_555 1_555
C9 N4 1_555 1_555
H8 C9 1_555 1_555
H9 C9 1_555 1_555
C10 H10 1_555 1_555
C11 C1 1_555 1_555
C12 C9 1_555 1_555
C13 C7 1_555 1_555
C14 N3 1_555 1_555
H11 C14 1_555 1_555
C15 H12 1_555 1_555
N10 Ag1 1_555 1_555
C16 C6 1_555 1_555
H13 C16 1_555 1_555
C17 C12 1_555 1_555
H14 C17 1_555 1_555
C18 C13 1_555 1_555
H15 C18 1_555 1_555
C19 N6 1_555 1_555
C20 N9 1_555 1_555
H16 C20 1_555 1_555
C21 C3 1_555 1_555
H17 C21 1_555 1_555
C22 N10 1_555 1_555
H18 C22 1_555 1_555
C23 C13 1_555 1_555
H19 C23 1_555 1_555
C24 N10 1_555 1_555
H20 C24 1_555 1_555
C25 C21 1_555 1_555
H21 C25 1_555 1_555
C26 C19 1_555 1_555
H22 C26 1_555 1_555
Pt4 N18 1_555 1_555
Ag2 Pt1 1_555 1_555
N12 N13 1_555 1_555
N13 C29 1_555 1_555
N14 Ag2 1_555 1_555
N15 Pt3_2 1_555 1_555
N16 Ag2 1_555 1_555
N17 N19 1_555 1_555
N18 N19 1_555 1_555
C27 H23 1_555 1_555
C28 C33 1_555 1_555
C29 H24 1_555 1_555
N20 Pt4 1_555 1_555
C31 N14 1_555 1_555
H25 C31 1_555 1_555
C32 N13 1_555 1_555
H26 C32 1_555 1_555
H27 C32 1_555 1_555
C33 H28 1_555 1_555
C34 C27 1_555 1_555
C36 N15 1_555 1_555
C37 N17 1_555 1_555
H30 C37 1_555 1_555
H31 C37 1_555 1_555
C38 N16 1_555 1_555
H32 C38 1_555 1_555
C39 N17 1_555 1_555
H33 C39 1_555 1_555
C41 N20 1_555 1_555
H35 C41 1_555 1_555
C42 C34 1_555 1_555
H36 C42 1_555 1_555
C43 N14 1_555 1_555
H37 C43 1_555 1_555
C44 H38 1_555 1_555
C45 C44 1_555 1_555
H39 C45 1_555 1_555
C46 N18 1_555 1_555
C47 N20 1_555 1_555
C48 C41 1_555 1_555
H40 C48 1_555 1_555
C49 N16 1_555 1_555
H41 C49 1_555 1_555
C52 C28 1_555 1_555
H44 C52 1_555 1_555
Ag3 N29 1_555 1_555
N24 N27 1_555 1_555
N25 C54 1_555 1_555
N26 Pt2 1_555 1_555
N27 N28 1_555 1_555
C53 N24 1_555 1_555
H45 C53 1_555 1_555
N28 Pt2 1_555 1_555
C54 H46 1_555 1_555
C55 N26 1_555 1_555
H47 C55 1_555 1_555
N29 C67 1_555 1_555
C57 N25 1_555 1_555
C58 C57 1_555 1_555
H48 C58 1_555 1_555
C60 C54 1_555 1_555
H51 C60 1_555 1_555
C61 N24 1_555 1_555
H52 C61 1_555 1_555
H53 C61 1_555 1_555
C62 H54 1_555 1_555
C63 C53 1_555 1_555
C64 C61 1_555 1_555
C67 H56 1_555 1_555
N30 Ag3 1_555 1_555
C68 C58 1_555 1_555
H57 C68 1_555 1_555
C69 C64 1_555 1_555
H58 C69 1_555 1_555
C71 N26 1_555 1_555
C72 N29 1_555 1_555
H60 C72 1_555 1_555
C73 C55 1_555 1_555
H61 C73 1_555 1_555
C76 N30 1_555 1_555
H64 C76 1_555 1_555
C77 C73 1_555 1_555
H65 C77 1_555 1_555
C78 C71 1_555 1_555
H66 C78 1_555 1_555
Ag4 Pt1 1_555 1_555
N32 N33 1_555 1_555
N33 C81 1_555 1_555
N34 Ag4 1_555 1_555
N35 N32 1_555 1_555
N36 Ag4 1_555 1_555
N37 N39 1_555 1_555
N38 N39 1_555 1_555
C79 H67 1_555 1_555
C80 C85 1_555 1_555
C81 H68 1_555 1_555
N40 C93 1_555 1_555
C83 N34 1_555 1_555
H69 C83 1_555 1_555
C84 N33 1_555 1_555
H70 C84 1_555 1_555
H71 C84 1_555 1_555
C85 H72 1_555 1_555
C86 C79 1_555 1_555
C88 N35 1_555 1_555
C89 N37 1_555 1_555
H74 C89 1_555 1_555
H75 C89 1_555 1_555
C90 N36 1_555 1_555
H76 C90 1_555 1_555
C91 N37 1_555 1_555
H77 C91 1_555 1_555
C93 H79 1_555 1_555
C94 C86 1_555 1_555
H80 C94 1_555 1_555
C95 N34 1_555 1_555
H81 C95 1_555 1_555
C96 H82 1_555 1_555
C97 C96 1_555 1_555
H83 C97 1_555 1_555
C98 N38 1_555 1_555
C99 N40 1_555 1_555
C100 C93 1_555 1_555
H84 C100 1_555 1_555
C101 N36 1_555 1_555
H85 C101 1_555 1_555
C104 C80 1_555 1_555
H88 C104 1_555 1_555
N41 Pt1 1_555 1_555
N42 Pt1 1_555 1_555
Pt7 N38 1_555 1_555
N43 Pt3_2 1_555 1_555
N45 Pt4 1_555 1_555
N46 Pt4 1_555 1_555
N8 C11 1_555 1_555
C4 C5 1_555 1_555
C4 C14 1_555 1_555
C8 C16 1_555 1_555
C10 C12 1_555 1_555
C10 C20 1_555 1_555
C11 C19 1_555 1_555
C15 C17 1_555 1_555
C18 C22 1_555 1_555
C23 C24 1_555 1_555
C25 C26 1_555 1_555
N12 N15 1_555 1_555
C27 C31 1_555 1_555
C28 C37 1_555 1_555
C29 C36 1_555 1_555
C32 C34 1_555 1_555
C33 C38 1_555 1_555
C39 C46 1_555 1_555
C42 C43 1_555 1_555
C44 C48 1_555 1_555
C45 C47 1_555 1_555
C46 C47 1_555 1_555
C49 C52 1_555 1_555
N25 Pt5 1_555 1_555
N28 C63 1_555 1_555
C56 C57 1_555 1_555
C60 C68 1_555 1_555
C62 C64 1_555 1_555
C62 C72 1_555 1_555
C63 C71 1_555 1_555
C67 C69 1_555 1_555
C77 C78 1_555 1_555
N35 Pt6 1_555 1_555
C79 C83 1_555 1_555
C80 C89 1_555 1_555
C81 C88 1_555 1_555
N40 Pt7 1_555 1_555
C84 C86 1_555 1_555
C85 C90 1_555 1_555
C91 C98 1_555 1_555
C94 C95 1_555 1_555
C96 C100 1_555 1_555
C97 C99 1_555 1_555
C98 C99 1_555 1_555
C101 C104 1_555 1_555
N21 N22 1_555 1_555
N22 N23 1_555 1_555
N23 C59 1_555 1_555
C59 H49 1_555 1_555
H50 C59 1_555 1_555
C65 C59 1_555 1_555
C66 N23 1_555 1_555
H55 C66 1_555 1_555
C70 C65 1_555 1_555
H59 C70 1_555 1_555
H62 C74 1_555 1_555
C75 C65 1_555 1_555
H63 C75 1_555 1_555
Pt5_2 N21 1_555 1_555
C70 C74 1_555 1_555
N31 C82 1_555 1_555
C87 N31 1_555 1_555
H73 C87 1_555 1_555
C92 C82 1_555 1_555
H78 C92 1_555 1_555
C102 C92 1_555 1_555
H86 C102 1_555 1_555
C103 C87 1_555 1_555
H87 C103 1_555 1_555
Pt6_2 N31 1_555 1_555
C102 C103 1_555 1_555
N31_2 C82_2 1_555 1_555
C87_2 N31_2 1_555 1_555
H73_2 C87_2 1_555 1_555
C92_2 C82_2 1_555 1_555
H78_2 C92_2 1_555 1_555
C102_2 C92_2 1_555 1_555
H86_2 C102_2 1_555 1_555
C103_2 C87_2 1_555 1_555
H87_2 C103_2 1_555 1_555
Pt6 N31_2 1_555 1_555
C102_2 C103_2 1_555 1_555
H30_2 C37_2 1_555 1_555
H31_2 C37_2 1_555 1_555
Ag4_2 Pt5 1_555 1_555
N32_2 N33_2 1_555 1_555
N33_2 C81_2 1_555 1_555
N34_2 Ag4_2 1_555 1_555
N35_2 N32_2 1_555 1_555
N36_2 Ag4_2 1_555 1_555
C79_2 H67_2 1_555 1_555
C80_2 C85_2 1_555 1_555
C81_2 H68_2 1_555 1_555
N40_2 C93_2 1_555 1_555
C83_2 N34_2 1_555 1_555
H69_2 C83_2 1_555 1_555
C84_2 N33_2 1_555 1_555
H70_2 C84_2 1_555 1_555
H71_2 C84_2 1_555 1_555
C86_2 C79_2 1_555 1_555
C88_2 N35_2 1_555 1_555
C90_2 N36_2 1_555 1_555
H76_2 C90_2 1_555 1_555
C91_2 N37_2 1_555 1_555
H77_2 C91_2 1_555 1_555
C93_2 H79_2 1_555 1_555
C94_2 C86_2 1_555 1_555
H80_2 C94_2 1_555 1_555
C95_2 N34_2 1_555 1_555
H81_2 C95_2 1_555 1_555
C96_2 H82_2 1_555 1_555
C97_2 C96_2 1_555 1_555
H83_2 C97_2 1_555 1_555
C98_2 N38_2 1_555 1_555
C99_2 N40_2 1_555 1_555
C100_2 C93_2 1_555 1_555
H84_2 C100_2 1_555 1_555
C101_2 N36_2 1_555 1_555
H85_2 C101_2 1_555 1_555
C104_2 C80_2 1_555 1_555
H88_2 C104_2 1_555 1_555
N41_2 Pt5 1_555 1_555
Pt7_2 N38_2 1_555 1_555
N45_2 Pt4_2 1_555 1_555
N46_2 Pt4_2 1_555 1_555
N35_2 Pt6_2 1_555 1_555
C79_2 C83_2 1_555 1_555
C81_2 C88_2 1_555 1_555
N40_2 Pt7_2 1_555 1_555
C84_2 C86_2 1_555 1_555
C85_2 C90_2 1_555 1_555
C91_2 C98_2 1_555 1_555
C94_2 C95_2 1_555 1_555
C96_2 C100_2 1_555 1_555
C97_2 C99_2 1_555 1_555
C98_2 C99_2 1_555 1_555
C101_2 C104_2 1_555 1_555
Pt4_3 N18_2 1_555 1_555
Ag2_2 Pt5_2 1_555 1_555
N12_2 N13_2 1_555 1_555
N13_2 C29_2 1_555 1_555
N14_2 Ag2_2 1_555 1_555
N16_2 Ag2_2 1_555 1_555
C27_2 H23_2 1_555 1_555
C28_2 C33_2 1_555 1_555
C29_2 H24_2 1_555 1_555
N20_2 Pt4_3 1_555 1_555
C31_2 N14_2 1_555 1_555
H25_2 C31_2 1_555 1_555
C32_2 N13_2 1_555 1_555
H26_2 C32_2 1_555 1_555
H27_2 C32_2 1_555 1_555
C34_2 C27_2 1_555 1_555
C36_2 N44 1_555 1_555
C38_2 N16_2 1_555 1_555
H32_2 C38_2 1_555 1_555
C39_2 N17_2 1_555 1_555
H33_2 C39_2 1_555 1_555
C41_2 N20_2 1_555 1_555
H35_2 C41_2 1_555 1_555
C42_2 C34_2 1_555 1_555
H36_2 C42_2 1_555 1_555
C43_2 N14_2 1_555 1_555
H37_2 C43_2 1_555 1_555
C44_2 H38_2 1_555 1_555
C45_2 C44_2 1_555 1_555
H39_2 C45_2 1_555 1_555
C46_2 N18_2 1_555 1_555
C47_2 N20_2 1_555 1_555
C48_2 C41_2 1_555 1_555
H40_2 C48_2 1_555 1_555
C49_2 N16_2 1_555 1_555
H41_2 C49_2 1_555 1_555
C52_2 C28_2 1_555 1_555
H44_2 C52_2 1_555 1_555
H74_2 C89_2 1_555 1_555
H75_2 C89_2 1_555 1_555
N42_2 Pt5_2 1_555 1_555
N12_2 N44 1_555 1_555
C27_2 C31_2 1_555 1_555
C29_2 C36_2 1_555 1_555
C32_2 C34_2 1_555 1_555
C33_2 C38_2 1_555 1_555
C39_2 C46_2 1_555 1_555
C42_2 C43_2 1_555 1_555
C44_2 C48_2 1_555 1_555
C45_2 C47_2 1_555 1_555
C46_2 C47_2 1_555 1_555
C49_2 C52_2 1_555 1_555
N43 C30_2 1_555 1_555
C35_2 N43 1_555 1_555
H29_2 C35_2 1_555 1_555
C40_2 C30_2 1_555 1_555
H34_2 C40_2 1_555 1_555
C50_2 C40_2 1_555 1_555
H42_2 C50_2 1_555 1_555
C51_2 C35_2 1_555 1_555
H43_2 C51_2 1_555 1_555
C50_2 C51_2 1_555 1_555
C15_2 H12_2 1_555 1_555
H14_2 C17_2 1_555 1_555
H19_2 C23_2 1_555 1_555
H20_2 C24_2 1_555 1_555
Pt3_3 N11_2 1_555 1_555
N11_2 C30_3 1_555 1_555
N12_3 N13_3 1_555 1_555
N13_3 C29_3 1_555 1_555
N15_2 Pt3_3 1_555 1_555
C29_3 H24_3 1_555 1_555
C30_3 C36_3 1_555 1_555
C32_3 N13_3 1_555 1_555
H26_3 C32_3 1_555 1_555
H27_3 C32_3 1_555 1_555
C35_3 N11_2 1_555 1_555
H29_3 C35_3 1_555 1_555
C36_3 N15_2 1_555 1_555
C40_3 C30_3 1_555 1_555
H34_3 C40_3 1_555 1_555
C42_3 C34_3 1_555 1_555
H36_3 C42_3 1_555 1_555
C50_3 C40_3 1_555 1_555
H42_3 C50_3 1_555 1_555
C51_3 C35_3 1_555 1_555
H43_3 C51_3 1_555 1_555
Ag3_2 N29_2 1_555 1_555
N24_2 N27_2 1_555 1_555
N26_2 Pt2_2 1_555 1_555
N27_2 N28_2 1_555 1_555
C53_2 N24_2 1_555 1_555
H45_2 C53_2 1_555 1_555
N28_2 Pt2_2 1_555 1_555
C55_2 N26_2 1_555 1_555
H47_2 C55_2 1_555 1_555
C57_2 N25_2 1_555 1_555
C58_2 C57_2 1_555 1_555
H48_2 C58_2 1_555 1_555
C61_2 N24_2 1_555 1_555
H52_2 C61_2 1_555 1_555
H53_2 C61_2 1_555 1_555
C62_2 H54_2 1_555 1_555
C63_2 C53_2 1_555 1_555
C64_2 C61_2 1_555 1_555
N30_2 Ag3_2 1_555 1_555
C68_2 C58_2 1_555 1_555
H57_2 C68_2 1_555 1_555
C71_2 N26_2 1_555 1_555
C72_2 N29_2 1_555 1_555
H60_2 C72_2 1_555 1_555
C73_2 C55_2 1_555 1_555
H61_2 C73_2 1_555 1_555
C77_2 C73_2 1_555 1_555
H65_2 C77_2 1_555 1_555
C78_2 C71_2 1_555 1_555
H66_2 C78_2 1_555 1_555
Ag4_3 Pt1_2 1_555 1_555
N36_3 Ag4_3 1_555 1_555
N37_3 N39_3 1_555 1_555
N45 N39_3 1_555 1_555
C80_3 C85_3 1_555 1_555
N46 C93_3 1_555 1_555
C85_3 H72_3 1_555 1_555
C89_3 N37_3 1_555 1_555
H74_3 C89_3 1_555 1_555
H75_3 C89_3 1_555 1_555
C90_3 N36_3 1_555 1_555
H76_3 C90_3 1_555 1_555
C91_3 N37_3 1_555 1_555
H77_3 C91_3 1_555 1_555
C93_3 H79_3 1_555 1_555
C96_3 H82_3 1_555 1_555
C97_3 C96_3 1_555 1_555
H83_3 C97_3 1_555 1_555
C98_3 N45 1_555 1_555
C99_3 N46 1_555 1_555
C100_3 C93_3 1_555 1_555
H84_3 C100_3 1_555 1_555
C101_3 N36_3 1_555 1_555
H85_3 C101_3 1_555 1_555
C104_3 C80_3 1_555 1_555
H88_3 C104_3 1_555 1_555
N43_2 Pt3_3 1_555 1_555
N44_2 Pt3_3 1_555 1_555
C15_2 C17_2 1_555 1_555
C23_2 C24_2 1_555 1_555
N12_3 N15_2 1_555 1_555
C29_3 C36_3 1_555 1_555
C32_3 C34_3 1_555 1_555
C42_3 C43_3 1_555 1_555
C50_3 C51_3 1_555 1_555
N25_2 Pt5_3 1_555 1_555
N28_2 C63_2 1_555 1_555
C56_2 C57_2 1_555 1_555
C62_2 C64_2 1_555 1_555
C62_2 C72_2 1_555 1_555
C63_2 C71_2 1_555 1_555
C77_2 C78_2 1_555 1_555
C80_3 C89_3 1_555 1_555
C85_3 C90_3 1_555 1_555
C91_3 C98_3 1_555 1_555
C96_3 C100_3 1_555 1_555
C97_3 C99_3 1_555 1_555
C98_3 C99_3 1_555 1_555
C101_3 C104_3 1_555 1_555
N21_2 N22_2 1_555 1_555
N22_2 N23_2 1_555 1_555
N23_2 C59_2 1_555 1_555
H50_2 C59_2 1_555 1_555
C65_2 C59_2 1_555 1_555
C66_2 N23_2 1_555 1_555
H55_2 C66_2 1_555 1_555
C70_2 C65_2 1_555 1_555
H59_2 C70_2 1_555 1_555
H62_2 C74_2 1_555 1_555
Pt5_4 N21_2 1_555 1_555
C70_2 C74_2 1_555 1_555
C54_2 H46_2 1_555 1_555
C60_2 C54_2 1_555 1_555
H51_2 C60_2 1_555 1_555
C79_3 H67_3 1_555 1_555
C83_3 N34_3 1_555 1_555
H69_3 C83_3 1_555 1_555
N41_3 Pt1_3 1_555 1_555
N42_3 Pt1_3 1_555 1_555
C79_3 C83_3 1_555 1_555
Pt1_4 N1_2 1_555 1_555
Pt2_3 N6_2 1_555 1_555
Ag1_2 N9_2 1_555 1_555
N1_2 N2_2 1_555 1_555
N2_2 N3_2 1_555 1_555
N3_2 C7_2 1_555 1_555
N4_2 N7_2 1_555 1_555
N5_2 Pt1_4 1_555 1_555
N6_2 C3_2 1_555 1_555
N7_2 N8_2 1_555 1_555
C1_2 N4_2 1_555 1_555
H1_2 C1_2 1_555 1_555
N8_2 Pt2_3 1_555 1_555
C3_2 H3_2 1_555 1_555
C4_2 N1_2 1_555 1_555
C5_2 N5_2 1_555 1_555
C6_2 C5_2 1_555 1_555
H4_2 C6_2 1_555 1_555
H6_2 C7_2 1_555 1_555
C9_2 N4_2 1_555 1_555
H8_2 C9_2 1_555 1_555
H9_2 C9_2 1_555 1_555
C10_2 H10_2 1_555 1_555
C11_2 C1_2 1_555 1_555
C12_2 C9_2 1_555 1_555
C13_2 C7_2 1_555 1_555
C14_2 N3_2 1_555 1_555
H11_2 C14_2 1_555 1_555
N10_2 Ag1_2 1_555 1_555
C16_2 C6_2 1_555 1_555
H13_2 C16_2 1_555 1_555
C18_2 C13_2 1_555 1_555
H15_2 C18_2 1_555 1_555
C19_2 N6_2 1_555 1_555
C20_2 N9_2 1_555 1_555
H16_2 C20_2 1_555 1_555
C21_2 C3_2 1_555 1_555
H17_2 C21_2 1_555 1_555
C22_2 N10_2 1_555 1_555
H18_2 C22_2 1_555 1_555
C25_2 C21_2 1_555 1_555
H21_2 C25_2 1_555 1_555
C26_2 C19_2 1_555 1_555
H22_2 C26_2 1_555 1_555
C27_3 H23_3 1_555 1_555
C31_3 N14_3 1_555 1_555
H25_3 C31_3 1_555 1_555
C67_2 H56_2 1_555 1_555
H58_2 C69_2 1_555 1_555
H64_2 C76_2 1_555 1_555
N8_2 C11_2 1_555 1_555
C4_2 C5_2 1_555 1_555
C4_2 C14_2 1_555 1_555
C10_2 C12_2 1_555 1_555
C10_2 C20_2 1_555 1_555
C11_2 C19_2 1_555 1_555
C18_2 C22_2 1_555 1_555
C25_2 C26_2 1_555 1_555
C27_3 C31_3 1_555 1_555
C67_2 C69_2 1_555 1_555
H63_2 C75_2 1_555 1_555
H2_2 C2_2 1_555 1_555
C8_2 C2_2 1_555 1_555
H7_2 C8_2 1_555 1_555
Pt7 N18_3 1_555 1_555
Ag2_3 Pt1_5 1_555 1_555
N16_3 Ag2_3 1_555 1_555
N17_3 N19_3 1_555 1_555
N18_3 N19_3 1_555 1_555
C28_3 C33_3 1_555 1_555
N20_3 Pt7 1_555 1_555
C33_3 H28_3 1_555 1_555
C37_3 N17_3 1_555 1_555
H30_3 C37_3 1_555 1_555
H31_3 C37_3 1_555 1_555
C38_3 N16_3 1_555 1_555
H32_3 C38_3 1_555 1_555
C39_3 N17_3 1_555 1_555
H33_3 C39_3 1_555 1_555
C41_3 N20_3 1_555 1_555
H35_3 C41_3 1_555 1_555
C44_3 H38_3 1_555 1_555
C45_3 C44_3 1_555 1_555
H39_3 C45_3 1_555 1_555
C46_3 N18_3 1_555 1_555
C47_3 N20_3 1_555 1_555
C48_3 C41_3 1_555 1_555
H40_3 C48_3 1_555 1_555
C49_3 N16_3 1_555 1_555
H41_3 C49_3 1_555 1_555
C52_3 C28_3 1_555 1_555
H44_3 C52_3 1_555 1_555
N31_3 C82_3 1_555 1_555
N32_3 N33_3 1_555 1_555
N33_3 C81_3 1_555 1_555
N35_3 N32_3 1_555 1_555
C81_3 H68_3 1_555 1_555
C82_3 C88_3 1_555 1_555
C84_3 N33_3 1_555 1_555
H70_3 C84_3 1_555 1_555
H71_3 C84_3 1_555 1_555
C87_3 N31_3 1_555 1_555
H73_3 C87_3 1_555 1_555
C88_3 N35_3 1_555 1_555
C92_3 C82_3 1_555 1_555
H78_3 C92_3 1_555 1_555
C94_3 C86_3 1_555 1_555
H80_3 C94_3 1_555 1_555
C102_3 C92_3 1_555 1_555
H86_3 C102_3 1_555 1_555
C103_3 C87_3 1_555 1_555
H87_3 C103_3 1_555 1_555
Pt6_3 N31_3 1_555 1_555
C28_3 C37_3 1_555 1_555
C33_3 C38_3 1_555 1_555
C39_3 C46_3 1_555 1_555
C44_3 C48_3 1_555 1_555
C45_3 C47_3 1_555 1_555
C46_3 C47_3 1_555 1_555
C49_3 C52_3 1_555 1_555
N35_3 Pt6_3 1_555 1_555
C81_3 C88_3 1_555 1_555
C84_3 C86_3 1_555 1_555
C94_3 C95_3 1_555 1_555
C102_3 C103_3 1_555 1_555
C27_4 H23_4 1_555 1_555
C31_4 N14_4 1_555 1_555
H25_4 C31_4 1_555 1_555
C27_4 C31_4 1_555 1_555
H30_4 C37_4 1_555 1_555
H31_4 C37_4 1_555 1_555
N31_4 C82_4 1_555 1_555
N32_4 N33_4 1_555 1_555
N33_4 C81_4 1_555 1_555
N35_4 N32_4 1_555 1_555
C81_4 H68_4 1_555 1_555
C82_4 C88_4 1_555 1_555
C84_4 N33_4 1_555 1_555
H70_4 C84_4 1_555 1_555
H71_4 C84_4 1_555 1_555
C87_4 N31_4 1_555 1_555
H73_4 C87_4 1_555 1_555
C88_4 N35_4 1_555 1_555
C92_4 C82_4 1_555 1_555
H78_4 C92_4 1_555 1_555
C94_4 C86_4 1_555 1_555
H80_4 C94_4 1_555 1_555
C102_4 C92_4 1_555 1_555
H86_4 C102_4 1_555 1_555
C103_4 C87_4 1_555 1_555
H87_4 C103_4 1_555 1_555
Pt6_3 N31_4 1_555 1_555
N35_4 Pt6_3 1_555 1_555
C81_4 C88_4 1_555 1_555
C84_4 C86_4 1_555 1_555
C94_4 C95_4 1_555 1_555
C102_4 C103_4 1_555 1_555
Pt7_3 N18_4 1_555 1_555
Ag2_4 Pt5_6 1_555 1_555
N16_4 Ag2_4 1_555 1_555
C28_4 C33_4 1_555 1_555
N20_4 Pt7_3 1_555 1_555
C38_4 N16_4 1_555 1_555
H32_4 C38_4 1_555 1_555
C39_4 N17_4 1_555 1_555
H33_4 C39_4 1_555 1_555
C41_4 N20_4 1_555 1_555
H35_4 C41_4 1_555 1_555
C44_4 H38_4 1_555 1_555
C45_4 C44_4 1_555 1_555
H39_4 C45_4 1_555 1_555
C46_4 N18_4 1_555 1_555
C47_4 N20_4 1_555 1_555
C48_4 C41_4 1_555 1_555
H40_4 C48_4 1_555 1_555
C49_4 N16_4 1_555 1_555
H41_4 C49_4 1_555 1_555
C52_4 C28_4 1_555 1_555
H44_4 C52_4 1_555 1_555
C33_4 C38_4 1_555 1_555
C39_4 C46_4 1_555 1_555
C44_4 C48_4 1_555 1_555
C45_4 C47_4 1_555 1_555
C46_4 C47_4 1_555 1_555
C49_4 C52_4 1_555 1_555
Ag4_4 Pt5_7 1_555 1_555
N36_4 Ag4_4 1_555 1_555
C80_4 C85_4 1_555 1_555
N46_2 C93_4 1_555 1_555
C90_4 N36_4 1_555 1_555
H76_4 C90_4 1_555 1_555
C91_4 N37_4 1_555 1_555
H77_4 C91_4 1_555 1_555
C93_4 H79_4 1_555 1_555
C96_4 H82_4 1_555 1_555
C97_4 C96_4 1_555 1_555
H83_4 C97_4 1_555 1_555
C98_4 N45_2 1_555 1_555
C99_4 N46_2 1_555 1_555
C100_4 C93_4 1_555 1_555
H84_4 C100_4 1_555 1_555
C101_4 N36_4 1_555 1_555
H85_4 C101_4 1_555 1_555
C104_4 C80_4 1_555 1_555
H88_4 C104_4 1_555 1_555
C85_4 C90_4 1_555 1_555
C91_4 C98_4 1_555 1_555
C96_4 C100_4 1_555 1_555
C97_4 C99_4 1_555 1_555
C98_4 C99_4 1_555 1_555
C101_4 C104_4 1_555 1_555
N43_2 C30_4 1_555 1_555
N12_4 N13_4 1_555 1_555
N13_4 C29_4 1_555 1_555
C29_4 H24_4 1_555 1_555
C30_4 C36_4 1_555 1_555
C32_4 N13_4 1_555 1_555
H26_4 C32_4 1_555 1_555
H27_4 C32_4 1_555 1_555
C35_4 N43_2 1_555 1_555
H29_4 C35_4 1_555 1_555
C36_4 N44_2 1_555 1_555
C40_4 C30_4 1_555 1_555
H34_4 C40_4 1_555 1_555
C42_4 C34_4 1_555 1_555
H36_4 C42_4 1_555 1_555
C50_4 C40_4 1_555 1_555
H42_4 C50_4 1_555 1_555
C51_4 C35_4 1_555 1_555
H43_4 C51_4 1_555 1_555
H74_4 C89_4 1_555 1_555
H75_4 C89_4 1_555 1_555
N12_4 N44_2 1_555 1_555
C29_4 C36_4 1_555 1_555
C32_4 C34_4 1_555 1_555
C42_4 C43_4 1_555 1_555
C50_4 C51_4 1_555 1_555
C79_4 H67_4 1_555 1_555
C83_4 N34_4 1_555 1_555
H69_4 C83_4 1_555 1_555
N41_4 Pt5_9 1_555 1_555
C79_4 C83_4 1_555 1_555
N42_4 Pt5_10 1_555 1_555
N41_2 N22_3 1_555 1_555
N22_3 N23_3 1_555 1_555
N23_3 C59_3 1_555 1_555
C59_3 H49_3 1_555 1_555
H50_3 C59_3 1_555 1_555
C65_3 C59_3 1_555 1_555
C66_3 N23_3 1_555 1_555
H55_3 C66_3 1_555 1_555
C70_3 C65_3 1_555 1_555
H59_3 C70_3 1_555 1_555
H62_3 C74_3 1_555 1_555
C75_3 C65_3 1_555 1_555
H63_3 C75_3 1_555 1_555
C70_3 C74_3 1_555 1_555
Pt2_4 N6_3 1_555 1_555
Ag1_3 N9_3 1_555 1_555
N41 N2_3 1_555 1_555
N2_3 N3_3 1_555 1_555
N3_3 C7_3 1_555 1_555
N4_3 N7_3 1_555 1_555
N6_3 C3_3 1_555 1_555
N7_3 N8_3 1_555 1_555
C1_3 N4_3 1_555 1_555
H1_3 C1_3 1_555 1_555
N8_3 Pt2_4 1_555 1_555
C2_3 N42 1_555 1_555
H2_3 C2_3 1_555 1_555
C3_3 H3_3 1_555 1_555
C4_3 N41 1_555 1_555
N9_3 C15_3 1_555 1_555
C5_3 N42 1_555 1_555
C6_3 C5_3 1_555 1_555
H4_3 C6_3 1_555 1_555
C7_3 H5_3 1_555 1_555
H6_3 C7_3 1_555 1_555
C8_3 C2_3 1_555 1_555
H7_3 C8_3 1_555 1_555
C9_3 N4_3 1_555 1_555
H8_3 C9_3 1_555 1_555
H9_3 C9_3 1_555 1_555
C10_3 H10_3 1_555 1_555
C11_3 C1_3 1_555 1_555
C12_3 C9_3 1_555 1_555
C13_3 C7_3 1_555 1_555
C14_3 N3_3 1_555 1_555
H11_3 C14_3 1_555 1_555
C15_3 H12_3 1_555 1_555
N10_3 Ag1_3 1_555 1_555
C16_3 C6_3 1_555 1_555
H13_3 C16_3 1_555 1_555
C17_3 C12_3 1_555 1_555
H14_3 C17_3 1_555 1_555
C18_3 C13_3 1_555 1_555
H15_3 C18_3 1_555 1_555
C19_3 N6_3 1_555 1_555
C20_3 N9_3 1_555 1_555
H16_3 C20_3 1_555 1_555
C21_3 C3_3 1_555 1_555
H17_3 C21_3 1_555 1_555
C22_3 N10_3 1_555 1_555
H18_3 C22_3 1_555 1_555
C23_3 C13_3 1_555 1_555
H19_3 C23_3 1_555 1_555
C24_3 N10_3 1_555 1_555
H20_3 C24_3 1_555 1_555
C25_3 C21_3 1_555 1_555
H21_3 C25_3 1_555 1_555
C26_3 C19_3 1_555 1_555
H22_3 C26_3 1_555 1_555
Ag3_3 N29_3 1_555 1_555
N24_3 N27_3 1_555 1_555
N42_2 C54_3 1_555 1_555
N26_3 Pt2_4 1_555 1_555
N27_3 N28_3 1_555 1_555
C53_3 N24_3 1_555 1_555
H45_3 C53_3 1_555 1_555
N28_3 Pt2_4 1_555 1_555
C54_3 H46_3 1_555 1_555
C55_3 N26_3 1_555 1_555
H47_3 C55_3 1_555 1_555
N29_3 C67_3 1_555 1_555
C57_3 N42_2 1_555 1_555
C58_3 C57_3 1_555 1_555
H48_3 C58_3 1_555 1_555
C60_3 C54_3 1_555 1_555
H51_3 C60_3 1_555 1_555
C61_3 N24_3 1_555 1_555
H52_3 C61_3 1_555 1_555
H53_3 C61_3 1_555 1_555
C62_3 H54_3 1_555 1_555
C63_3 C53_3 1_555 1_555
C64_3 C61_3 1_555 1_555
C67_3 H56_3 1_555 1_555
N30_3 Ag3_3 1_555 1_555
C68_3 C58_3 1_555 1_555
H57_3 C68_3 1_555 1_555
C69_3 C64_3 1_555 1_555
H58_3 C69_3 1_555 1_555
C71_3 N26_3 1_555 1_555
C72_3 N29_3 1_555 1_555
H60_3 C72_3 1_555 1_555
C73_3 C55_3 1_555 1_555
H61_3 C73_3 1_555 1_555
C76_3 N30_3 1_555 1_555
H64_3 C76_3 1_555 1_555
C77_3 C73_3 1_555 1_555
H65_3 C77_3 1_555 1_555
C78_3 C71_3 1_555 1_555
H66_3 C78_3 1_555 1_555
N8_3 C11_3 1_555 1_555
C4_3 C5_3 1_555 1_555
C4_3 C14_3 1_555 1_555
C8_3 C16_3 1_555 1_555
C10_3 C12_3 1_555 1_555
C10_3 C20_3 1_555 1_555
C11_3 C19_3 1_555 1_555
C15_3 C17_3 1_555 1_555
C18_3 C22_3 1_555 1_555
C23_3 C24_3 1_555 1_555
C25_3 C26_3 1_555 1_555
N28_3 C63_3 1_555 1_555
C56_3 C57_3 1_555 1_555
C60_3 C68_3 1_555 1_555
C62_3 C64_3 1_555 1_555
C62_3 C72_3 1_555 1_555
C63_3 C71_3 1_555 1_555
C67_3 C69_3 1_555 1_555
C77_3 C78_3 1_555 1_555
H2_4 C2_4 1_555 1_555
C8_4 C2_4 1_555 1_555
H7_4 C8_4 1_555 1_555
H63_4 C75_4 1_555 1_555
Pt2_5 N6_4 1_555 1_555
Ag1_4 N9_4 1_555 1_555
N41_3 N2_4 1_555 1_555
N2_4 N3_4 1_555 1_555
N3_4 C7_4 1_555 1_555
N4_4 N7_4 1_555 1_555
N6_4 C3_4 1_555 1_555
N7_4 N8_4 1_555 1_555
C1_4 N4_4 1_555 1_555
H1_4 C1_4 1_555 1_555
N8_4 Pt2_5 1_555 1_555
C3_4 H3_4 1_555 1_555
C4_4 N41_3 1_555 1_555
C5_4 N42_3 1_555 1_555
C6_4 C5_4 1_555 1_555
H4_4 C6_4 1_555 1_555
H6_4 C7_4 1_555 1_555
C9_4 N4_4 1_555 1_555
H8_4 C9_4 1_555 1_555
H9_4 C9_4 1_555 1_555
C10_4 H10_4 1_555 1_555
C11_4 C1_4 1_555 1_555
C12_4 C9_4 1_555 1_555
C13_4 C7_4 1_555 1_555
C14_4 N3_4 1_555 1_555
H11_4 C14_4 1_555 1_555
N10_4 Ag1_4 1_555 1_555
C16_4 C6_4 1_555 1_555
H13_4 C16_4 1_555 1_555
C18_4 C13_4 1_555 1_555
H15_4 C18_4 1_555 1_555
C19_4 N6_4 1_555 1_555
C20_4 N9_4 1_555 1_555
H16_4 C20_4 1_555 1_555
C21_4 C3_4 1_555 1_555
H17_4 C21_4 1_555 1_555
C22_4 N10_4 1_555 1_555
H18_4 C22_4 1_555 1_555
C25_4 C21_4 1_555 1_555
H21_4 C25_4 1_555 1_555
C26_4 C19_4 1_555 1_555
H22_4 C26_4 1_555 1_555
C67_4 H56_4 1_555 1_555
H58_4 C69_4 1_555 1_555
H64_4 C76_4 1_555 1_555
N8_4 C11_4 1_555 1_555
C4_4 C5_4 1_555 1_555
C4_4 C14_4 1_555 1_555
C10_4 C12_4 1_555 1_555
C10_4 C20_4 1_555 1_555
C11_4 C19_4 1_555 1_555
C18_4 C22_4 1_555 1_555
C25_4 C26_4 1_555 1_555
C67_4 C69_4 1_555 1_555
C54_4 H46_4 1_555 1_555
C60_4 C54_4 1_555 1_555
H51_4 C60_4 1_555 1_555
N41_4 N22_4 1_555 1_555
N22_4 N23_4 1_555 1_555
N23_4 C59_4 1_555 1_555
H50_4 C59_4 1_555 1_555
C65_4 C59_4 1_555 1_555
C66_4 N23_4 1_555 1_555
H55_4 C66_4 1_555 1_555
C70_4 C65_4 1_555 1_555
H59_4 C70_4 1_555 1_555
H62_4 C74_4 1_555 1_555
C70_4 C74_4 1_555 1_555
C15_4 H12_4 1_555 1_555
H14_4 C17_4 1_555 1_555
H19_4 C23_4 1_555 1_555
H20_4 C24_4 1_555 1_555
Ag3_4 N29_4 1_555 1_555
N24_4 N27_4 1_555 1_555
N26_4 Pt2_6 1_555 1_555
N27_4 N28_4 1_555 1_555
C53_4 N24_4 1_555 1_555
H45_4 C53_4 1_555 1_555
N28_4 Pt2_6 1_555 1_555
C55_4 N26_4 1_555 1_555
H47_4 C55_4 1_555 1_555
C57_4 N42_4 1_555 1_555
C58_4 C57_4 1_555 1_555
H48_4 C58_4 1_555 1_555
C61_4 N24_4 1_555 1_555
H52_4 C61_4 1_555 1_555
H53_4 C61_4 1_555 1_555
C62_4 H54_4 1_555 1_555
C63_4 C53_4 1_555 1_555
C64_4 C61_4 1_555 1_555
N30_4 Ag3_4 1_555 1_555
C68_4 C58_4 1_555 1_555
H57_4 C68_4 1_555 1_555
C71_4 N26_4 1_555 1_555
C72_4 N29_4 1_555 1_555
H60_4 C72_4 1_555 1_555
C73_4 C55_4 1_555 1_555
H61_4 C73_4 1_555 1_555
C77_4 C73_4 1_555 1_555
H65_4 C77_4 1_555 1_555
C78_4 C71_4 1_555 1_555
H66_4 C78_4 1_555 1_555
C15_4 C17_4 1_555 1_555
C23_4 C24_4 1_555 1_555
N28_4 C63_4 1_555 1_555
C56_4 C57_4 1_555 1_555
C62_4 C64_4 1_555 1_555
C62_4 C72_4 1_555 1_555
C63_4 C71_4 1_555 1_555
C77_4 C78_4 1_555 1_555
F1 B1 1_555 1_555
F2 B1 1_555 1_555
F3 B1 1_555 1_555
F4 B1 1_555 1_555
F1_2 B1_2 1_555 1_555
F2_2 B1_2 1_555 1_555
F3_2 B1_2 1_555 1_555
F4_2 B1_2 1_555 1_555
F1_3 B1_3 1_555 1_555
F2_3 B1_3 1_555 1_555
F3_3 B1_3 1_555 1_555
F4_3 B1_3 1_555 1_555
F1_4 B1_4 1_555 1_555
F2_4 B1_4 1_555 1_555
F3_4 B1_4 1_555 1_555
F4_4 B1_4 1_555 1_555
F1_5 B1_5 1_555 1_555
F2_5 B1_5 1_555 1_555
F3_5 B1_5 1_555 1_555
F4_5 B1_5 1_555 1_555
F1_6 B1_6 1_555 1_555
F2_6 B1_6 1_555 1_555
F3_6 B1_6 1_555 1_555
F4_6 B1_6 1_555 1_555
F1_7 B1_7 1_555 1_555
F2_7 B1_7 1_555 1_555
F3_7 B1_7 1_555 1_555
F4_7 B1_7 1_555 1_555
F1_8 B1_8 1_555 1_555
F2_8 B1_8 1_555 1_555
F3_8 B1_8 1_555 1_555
F4_8 B1_8 1_555 1_555
F6 B2 1_555 1_555
F7 B2 1_555 1_555
F8 B2 1_555 1_555
F6_2 B2_2 1_555 1_555
F7_2 B2_2 1_555 1_555
F8_2 B2_2 1_555 1_555
F5_3 B2_3 1_555 1_555
F6_3 B2_3 1_555 1_555
F7_3 B2_3 1_555 1_555
F8_3 B2_3 1_555 1_555
F5_4 B2_4 1_555 1_555
F6_4 B2_4 1_555 1_555
F7_4 B2_4 1_555 1_555
F8_4 B2_4 1_555 1_555
F6_5 B2_5 1_555 1_555
F7_5 B2_5 1_555 1_555
F8_5 B2_5 1_555 1_555
F6_6 B2_6 1_555 1_555
F7_6 B2_6 1_555 1_555
F8_6 B2_6 1_555 1_555
F5_7 B2_7 1_555 1_555
F6_7 B2_7 1_555 1_555
F7_7 B2_7 1_555 1_555
F8_7 B2_7 1_555 1_555
F5_8 B2_8 1_555 1_555
F6_8 B2_8 1_555 1_555
F7_8 B2_8 1_555 1_555
F8_8 B2_8 1_555 1_555
F9 B3 1_555 1_555
F10 B3 1_555 1_555
F11 B3 1_555 1_555
F12 B3 1_555 1_555
F9_2 B3_2 1_555 1_555
F10_2 B3_2 1_555 1_555
F11_2 B3_2 1_555 1_555
F12_2 B3_2 1_555 1_555
F9_3 B3_3 1_555 1_555
F10_3 B3_3 1_555 1_555
F11_3 B3_3 1_555 1_555
F12_3 B3_3 1_555 1_555
F9_4 B3_4 1_555 1_555
F10_4 B3_4 1_555 1_555
F11_4 B3_4 1_555 1_555
F12_4 B3_4 1_555 1_555
F9_5 B3_5 1_555 1_555
F10_5 B3_5 1_555 1_555
F11_5 B3_5 1_555 1_555
F12_5 B3_5 1_555 1_555
F9_6 B3_6 1_555 1_555
F10_6 B3_6 1_555 1_555
F11_6 B3_6 1_555 1_555
F12_6 B3_6 1_555 1_555
F9_7 B3_7 1_555 1_555
F10_7 B3_7 1_555 1_555
F11_7 B3_7 1_555 1_555
F12_7 B3_7 1_555 1_555
F9_8 B3_8 1_555 1_555
F10_8 B3_8 1_555 1_555
F11_8 B3_8 1_555 1_555
F12_8 B3_8 1_555 1_555

#END
