
###############################################################################
#
# This file contains modified crystal structure data generated from the
# MOF subset of the Cambridge Structural Database (CSD) v543 
# hosted by the Cambridge Crystallographic Data Centre (CCDC).
#
# This work is licensed under the Creative Commons
# Attribution-NonCommercial-ShareAlike 4.0 International License.
# To view a copy of this license, visit
# http://creativecommons.org/licenses/by-nc-sa/4.0/
# or send a letter to
# Creative Commons, PO Box 1866, Mountain View, CA 94042, USA.
#
# CIF created using the CSD Python API on 29 September 2022
# The structure has been converted into the P1 space group
# The structure has a 3D framework
# The original CSD entry BODCUV08 is in the rhombohedral crystal system
# The framework has been calculated to contain at least 10.0% void space
# The void calculation uses a probe of radius 1.32A, grid spacing 0.4
# H atom positions have been added when not included in the experimental data
#
###############################################################################

data_BODCUV08
_chemical_formula_moiety         '(C2088 H1836 Fe80 N570 Nb36 O468)n'
_symmetry_cell_setting           triclinic
_symmetry_space_group_name_H-M   'P 1'
_symmetry_Int_Tables_number      1
_space_group_name_Hall           'P 1'
loop_
_symmetry_equiv_pos_site_id
_symmetry_equiv_pos_as_xyz
1 x,y,z
_cell_length_a                   47.020(13)
_cell_length_b                   47.020(13)
_cell_length_c                   32.620(12)
_cell_angle_alpha                90
_cell_angle_beta                 90
_cell_angle_gamma                120
_cell_volume                     62456.8
loop_
_atom_site_label
_atom_site_type_symbol
_atom_site_fract_x
_atom_site_fract_y
_atom_site_fract_z
Nb1 Nb 0.187534 0.200745 0.086046
C1 C 0.182728 0.157335 0.058070
C2 C 0.218324 0.253386 0.089034
C3 C 0.196224 0.202577 0.151371
C4 C 0.151780 0.196701 0.041973
C5 C 0.213389 0.216405 0.026773
C6 C 0.235038 0.204351 0.097435
C7 C 0.144704 0.157316 0.111092
C8 C 0.158479 0.220047 0.114608
N1 N 0.181324 0.134691 0.041210
N2 N 0.235264 0.281880 0.089262
N3 N 0.199128 0.203672 0.185774
N4 N 0.131731 0.195453 0.019873
N6 N 0.260201 0.206530 0.104311
N7 N 0.122233 0.134200 0.124496
N8 N 0.144198 0.231460 0.129643
Fe1 Fe 0.189188 0.099587 0.011099
Fe2 Fe 0.260763 0.333333 0.083333
Fe3 Fe 0.200820 0.200820 0.250
N11 N 0.211646 0.094369 0.071490
N12 N 0.138698 0.059712 0.032542
N13 N 0.294094 0.330756 0.035520
N14 N 0.223237 0.328568 0.036243
N15 N 0.218993 0.253420 0.261122
N16 N 0.148308 0.186383 0.257799
C11 C 0.252389 0.171302 0.004928
C13 C 0.229432 0.079875 0.074721
C14 C 0.206908 0.106661 0.106832
C15 C 0.127489 0.063346 0.068682
C16 C 0.119783 0.032908 0.010460
C17 C 0.284878 0.302199 0.016216
C18 C 0.323430 0.356843 0.024894
C19 C 0.220520 0.355398 0.028676
C20 C 0.203449 0.301229 0.015236
C21 C 0.201600 0.267059 0.274004
C22 C 0.252093 0.273214 0.257644
C23 C 0.132828 0.197141 0.232948
C24 C 0.131202 0.165902 0.288665
C29 C 0.242377 0.077558 0.112659
C30 C 0.218717 0.105254 0.144333
C31 C 0.096943 0.039837 0.082980
C32 C 0.088715 0.008602 0.024032
C35 C 0.198646 0.356002 0.000727
C37 C 0.216843 0.300261 0.280867
C38 C 0.268299 0.305405 0.263810
C39 C 0.100711 0.187915 0.238304
C40 C 0.098756 0.155558 0.295945
O2 O 0.292645 0.226019 0.011495
O3 O 0.260846 0.062180 0.114479
C43 C 0.237042 0.090310 0.147677
O4 O 0.085950 0.045278 0.123306
C44 C 0.077565 0.012458 0.060644
O7 O 0.196615 0.313160 0.293280
C47 C 0.250510 0.319870 0.276382
O8 O 0.086093 0.199987 0.211444
C48 C 0.083188 0.167020 0.269838
C49 C 0.321248 0.247506 0.018220
C50 C 0.284080 0.073992 0.081794
C51 C 0.074330 0.067613 0.115102
C52 C 0.189261 0.312287 0.332574
C53 C 0.089619 0.230269 0.220354
C54 C 0.326753 0.271119 0.053691
O10 O 0.310963 0.099089 0.086117
C55 C 0.275349 0.055252 0.041132
O11 O 0.070342 0.083180 0.087619
C56 C 0.062338 0.074869 0.155604
O12 O 0.210994 0.323164 0.358885
C57 C 0.153771 0.297416 0.340159
O13 O 0.094259 0.241106 0.255524
C58 C 0.086554 0.245562 0.178869
N29 N 0.253420 0.218993 0.238878
C93 C 0.267059 0.201600 0.225996
C94 C 0.273214 0.252093 0.242356
C95 C 0.300261 0.216843 0.219133
C96 C 0.305405 0.268299 0.236190
O21 O 0.313160 0.196615 0.206720
C97 C 0.319870 0.250510 0.223618
C98 C 0.312287 0.189261 0.167426
O22 O 0.323164 0.210994 0.141115
C99 C 0.297416 0.153771 0.159841
N30 N 0.186383 0.148308 0.242201
C100 C 0.197141 0.132828 0.267052
C101 C 0.165902 0.131202 0.211335
C102 C 0.187915 0.100711 0.261696
C103 C 0.155558 0.098756 0.204055
O23 O 0.199987 0.086093 0.288556
C104 C 0.167020 0.083188 0.230162
C105 C 0.230269 0.089619 0.279646
O24 O 0.241106 0.094259 0.244476
C106 C 0.245562 0.086554 0.321131
N31 N 0.296671 0.335911 0.131147
C107 C 0.316012 0.364468 0.150451
C108 C 0.299920 0.309824 0.141773
C109 C 0.338582 0.368088 0.180057
C110 C 0.321773 0.311548 0.170864
O25 O 0.357716 0.398111 0.198722
C111 C 0.341400 0.340686 0.190401
N32 N 0.228002 0.338099 0.130424
C112 C 0.198455 0.311269 0.137991
C113 C 0.235553 0.365438 0.151431
C114 C 0.175977 0.310665 0.165940
C115 C 0.213544 0.365954 0.180039
O26 O 0.14637 0.28284 0.17245
C116 C 0.183669 0.338755 0.187614
N33 N 0.286717 0.384787 0.077405
N34 N 0.203672 0.199128 0.314226
H1 H 0.175277 0.251814 0.279074
H2 H 0.266395 0.261708 0.249126
H3 H 0.261375 0.280922 0.0242908
H5 H 0.33138 0.380235 0.0401472
H6 H 0.239545 0.176272 0.0291723
H8 H 0.192326 0.118742 0.104967
H11 H 0.234173 0.0695092 0.0474731
H12 H 0.142599 0.085099 0.0871182
H13 H 0.236455 0.377827 0.0455364
H14 H 0.204857 0.279087 0.0204262
H15 H 0.253601 0.0544286 0.0281858
H16 H 0.295793 0.0676634 0.0198423
H17 H 0.270441 0.0303302 0.0464363
H20 H 0.247073 0.0885585 0.177047
H22 H 0.0856046 0.138991 0.321195
H23 H 0.146422 0.21369 0.207869
H24 H 0.143715 0.157164 0.308749
H27 H 0.262647 0.346114 0.282645
H28 H 0.317925 0.257262 0.0821125
H29 H 0.352861 0.28881 0.0564576
H30 H 0.313383 0.284056 0.0476949
H34 H 0.0825886 0.085791 0.177379
H35 H 0.0534013 0.0918631 0.149863
H36 H 0.0425451 0.0520832 0.168207
H37 H 0.141105 0.272252 0.328856
H38 H 0.149424 0.29746 0.372944
H39 H 0.144535 0.311537 0.324286
H44 H 0.213641 0.115837 0.171103
H45 H 0.057427 0.159505 0.274373
H46 H 0.0625879 0.229508 0.165267
H47 H 0.0892249 0.269579 0.184744
H48 H 0.105727 0.24819 0.157867
H50 H 0.294734 0.319899 0.259104
H57 H 0.159505 0.057427 0.225627
H59 H 0.169275 0.00849352 0.0916049
H60 H 0.229508 0.0625879 0.334733
H61 H 0.269579 0.0892249 0.315256
H62 H 0.24819 0.105727 0.342133
H66 H 0.319899 0.294734 0.240896
H67 H 0.313787 0.385745 0.142376
H70 H 0.272252 0.141105 0.171144
H71 H 0.29746 0.149424 0.127056
H72 H 0.311537 0.144535 0.175714
H77 H 0.251814 0.175277 0.220926
H83 H 0.346114 0.262647 0.217355
H84 H 0.157164 0.143715 0.191251
H85 H 0.138991 0.0856046 0.178805
H88 H 0.261708 0.266395 0.250874
H90 H 0.21369 0.146422 0.292131
H92 H 0.166679 0.339299 0.209861
H93 H 0.284478 0.286432 0.126519
H94 H 0.343351 0.404896 0.212853
H95 H 0.191961 0.28884 0.12113
H96 H 0.358913 0.342551 0.213594
H97 H 0.150103 0.264957 0.182194
H98 H 0.259104 0.38758 0.14624
H99 H 0.32349 0.289886 0.178356
H100 H 0.220403 0.388575 0.196648
N5 N 0.226790 0.225542 0.995903
N9 N 0.168226 0.108552 0.953023
N10 N 0.238306 0.140529 0.988961
C9 C 0.153198 0.085594 0.923797
C10 C 0.170717 0.138107 0.947122
C12 C 0.254933 0.135339 0.959026
C25 C 0.140273 0.090358 0.888398
C26 C 0.158426 0.145193 0.912381
C27 C 0.282331 0.196536 0.991662
C28 C 0.284653 0.159588 0.944918
C33 C 0.303828 0.298579 0.986610
C34 C 0.343559 0.355119 0.995803
C36 C 0.180924 0.300713 0.986628
O1 O 0.125094 0.066510 0.859152
C41 C 0.142768 0.120543 0.882212
C42 C 0.298767 0.190534 0.961043
O5 O 0.292939 0.268556 0.967945
C45 C 0.334048 0.325981 0.976266
O6 O 0.19687 0.38383 0.99422
C46 C 0.178248 0.327912 0.979053
O9 O 0.345824 0.250387 0.996628
Nb2 Nb 0.200745 0.013211 0.913954
C60 C 0.253386 0.035062 0.910966
C61 C 0.202577 0.006353 0.848629
C62 C 0.196701 0.044921 0.958027
C63 C 0.216405 0.003016 0.973227
C65 C 0.157316 0.012612 0.888908
C66 C 0.220047 0.061568 0.885392
N18 N 0.281880 0.046616 0.910738
N19 N 0.203672 0.004544 0.814226
N20 N 0.195453 0.063722 0.980127
N23 N 0.134200 0.011967 0.875504
N24 N 0.231460 0.087262 0.870357
O20 O 0.083180 0.012838 0.912381
C92 C 0.074869 0.012531 0.844396
Fe5 Fe 0.089601 0.189188 0.988901
Fe6 Fe 0.333334 0.072570 0.916666
Fe7 Fe 0.200820 0.000000 0.750
H4 H 0.128736 0.0297913 0.980967
H7 H 0.182781 0.157027 0.970416
H9 H 0.151145 0.0617066 0.928494
H10 H 0.24432 0.110936 0.945562
H18 H 0.322418 0.209941 0.949934
H19 H 0.297165 0.154198 0.920654
H21 H 0.349695 0.324115 0.953073
H25 H 0.218479 0.40171 0.984472
H31 H 0.366938 0.376781 0.98831
H32 H 0.165161 0.278091 0.970018
H33 H 0.271788 0.261771 0.953814
H41 H 0.105846 0.0471137 0.871437
H42 H 0.160781 0.169275 0.908395
H43 H 0.132849 0.125317 0.854565
H49 H 0.160714 0.327368 0.956806
H54 H 0.0520832 0.00953808 0.831793
H55 H 0.0918631 0.0384619 0.850137
H56 H 0.085791 0.00320235 0.822621
N21 N 0.225542 0.998752 0.004097
N25 N 0.108552 0.940326 0.046977
N26 N 0.140529 0.902223 0.011039
C67 C 0.085594 0.932396 0.076203
C68 C 0.138107 0.967390 0.052878
C70 C 0.135339 0.880406 0.040974
C75 C 0.090358 0.950085 0.111602
C76 C 0.145193 0.986767 0.087619
C77 C 0.196536 0.914205 0.008338
C78 C 0.159588 0.874935 0.055082
O14 O 0.066510 0.941416 0.140848
C83 C 0.120543 0.977775 0.117788
C84 C 0.190534 0.891767 0.038957
O18 O 0.250387 0.904563 0.003372
N35 N 0.063722 0.868269 0.019873
H26 H 0.0535427 0.993991 0.0719872
H40 H 0.0737867 0.986941 0.00536532
H52 H 0.0617066 0.910561 0.071506
H73 H 0.209941 0.887522 0.0500658
H78 H 0.157027 0.974246 0.029584
H80 H 0.110936 0.866616 0.0544384
H81 H 0.0599619 0.919184 0.151482
H82 H 0.125317 0.992467 0.145435
H87 H 0.154198 0.857033 0.0793459
H91 H 0.0297913 0.901055 0.0190325
C59 C 0.157335 0.974607 0.941930
C64 C 0.204351 0.969313 0.902565
N17 N 0.134691 0.953367 0.958790
N22 N 0.206530 0.946329 0.895689
Fe4 Fe 0.099587 0.910399 0.988901
N27 N 0.094369 0.882723 0.928510
N28 N 0.059712 0.921014 0.967458
C69 C 0.171302 0.918913 0.995072
C71 C 0.079875 0.850443 0.925279
C72 C 0.106661 0.899753 0.893168
C73 C 0.063346 0.935857 0.931318
C74 C 0.032908 0.913125 0.989540
C79 C 0.077558 0.835181 0.887341
C80 C 0.105254 0.886537 0.855667
C81 C 0.039837 0.942894 0.917020
C82 C 0.008602 0.919887 0.975968
O15 O 0.226019 0.933374 0.988505
O16 O 0.062180 0.801334 0.885521
C85 C 0.090310 0.853268 0.852323
O17 O 0.045278 0.959328 0.876694
C86 C 0.012458 0.934893 0.939356
C87 C 0.247506 0.926258 0.981780
C88 C 0.073992 0.789912 0.918206
C89 C 0.067613 0.993283 0.884898
C90 C 0.271119 0.944366 0.946309
O19 O 0.099089 0.788126 0.913883
C91 C 0.055252 0.779903 0.958868
Fe7_2 Fe 0.200820 1.000000 0.750
H53 H 0.115837 0.902196 0.828897
H58 H 0.0885585 0.841486 0.822953
H63 H 0.0303302 0.75989 0.953564
H64 H 0.0676634 0.77187 0.980158
H65 H 0.0544286 0.800827 0.971814
H68 H 0.176272 0.936727 0.970828
H74 H 0.284056 0.970673 0.952305
H75 H 0.28881 0.935949 0.943542
H76 H 0.257262 0.939336 0.917887
H79 H 0.118742 0.926415 0.895033
H86 H 0.0695092 0.835336 0.952527
H89 H 0.085099 0.9425 0.912882
H51 H 0.993991 0.940449 0.928013
H69 H 0.986941 0.913154 0.994635
N21_2 N 0.001248 0.226790 0.004097
N25_2 N 0.059674 0.168226 0.046977
N26_2 N 0.097777 0.238306 0.011039
C67_2 C 0.067604 0.153198 0.076203
C68_2 C 0.032610 0.170717 0.052878
C70_2 C 0.119594 0.254933 0.040974
C75_2 C 0.049915 0.140273 0.111602
C76_2 C 0.013233 0.158426 0.087619
C77_2 C 0.085795 0.282331 0.008338
C78_2 C 0.125065 0.284653 0.055082
O14_2 O 0.058584 0.125094 0.140848
C83_2 C 0.022225 0.142768 0.117788
C84_2 C 0.108233 0.298767 0.038957
O18_2 O 0.095437 0.345824 0.003372
H26_2 H 0.00600869 0.0595514 0.0719872
H40_2 H 0.0130593 0.086846 0.00536532
H52_2 H 0.0894385 0.151145 0.071506
H73_2 H 0.112478 0.322418 0.0500658
H78_2 H 0.0257541 0.182781 0.029584
H80_2 H 0.133384 0.24432 0.0544384
H81_2 H 0.0808163 0.140778 0.151482
H82_2 H 0.00753259 0.132849 0.145435
H87_2 H 0.142967 0.297165 0.0793459
H91_2 H 0.0989448 0.128736 0.0190325
C59_2 C 0.025393 0.182728 0.941930
C64_2 C 0.030687 0.235038 0.902565
N17_2 N 0.046633 0.181324 0.958790
N22_2 N 0.053671 0.260201 0.895689
N27_2 N 0.117277 0.211646 0.928510
N28_2 N 0.078986 0.138698 0.967458
C69_2 C 0.081087 0.252389 0.995072
C71_2 C 0.149557 0.229432 0.925279
C72_2 C 0.100247 0.206908 0.893168
C73_2 C 0.064143 0.127489 0.931318
C74_2 C 0.086875 0.119783 0.989540
C79_2 C 0.164819 0.242377 0.887341
C80_2 C 0.113463 0.218717 0.855667
C81_2 C 0.057106 0.096943 0.917020
C82_2 C 0.080113 0.088715 0.975968
O15_2 O 0.066626 0.292645 0.988505
O16_2 O 0.198666 0.260846 0.885521
C85_2 C 0.146732 0.237042 0.852323
O17_2 O 0.040672 0.085950 0.876694
C86_2 C 0.065107 0.077565 0.939356
C87_2 C 0.073742 0.321248 0.981780
C88_2 C 0.210088 0.284080 0.918206
C89_2 C 0.006717 0.074330 0.884898
C90_2 C 0.055634 0.326753 0.946309
O19_2 O 0.211874 0.310963 0.913883
C91_2 C 0.220097 0.275349 0.958868
Fe7_3 Fe 0.000000 0.200820 0.750
H51_2 H 0.0595514 0.0535427 0.928013
H53_2 H 0.0978038 0.213641 0.828897
H58_2 H 0.158514 0.247073 0.822953
H63_2 H 0.24011 0.270441 0.953564
H64_2 H 0.22813 0.295793 0.980158
H65_2 H 0.199173 0.253601 0.971814
H68_2 H 0.0632727 0.239545 0.970828
H69_2 H 0.086846 0.0737867 0.994635
H74_2 H 0.0293268 0.313383 0.952305
H75_2 H 0.0640508 0.352861 0.943542
H76_2 H 0.0606638 0.317925 0.917887
H79_2 H 0.0735846 0.192326 0.895033
H86_2 H 0.164664 0.234173 0.952527
H89_2 H 0.0575002 0.142599 0.912882
C1_2 C 0.842665 0.025393 0.058070
C6_2 C 0.795649 0.030687 0.097435
N1_2 N 0.865309 0.046633 0.041210
N6_2 N 0.793470 0.053671 0.104311
Fe1_2 Fe 0.900413 0.089601 0.011099
Fe3_2 Fe 0.799180 0.000000 0.250
N11_2 N 0.905631 0.117277 0.071490
N12_2 N 0.940288 0.078986 0.032542
C11_2 C 0.828698 0.081087 0.004928
C13_2 C 0.920125 0.149557 0.074721
C14_2 C 0.893339 0.100247 0.106832
C15_2 C 0.936654 0.064143 0.068682
C16_2 C 0.967092 0.086875 0.010460
C29_2 C 0.922442 0.164819 0.112659
C30_2 C 0.894746 0.113463 0.144333
C31_2 C 0.960163 0.057106 0.082980
C32_2 C 0.991398 0.080113 0.024032
O2_2 O 0.773981 0.066626 0.011495
O3_2 O 0.937820 0.198666 0.114479
C43_2 C 0.909690 0.146732 0.147677
O4_2 O 0.954722 0.040672 0.123306
C44_2 C 0.987542 0.065107 0.060644
C49_2 C 0.752494 0.073742 0.018220
C50_2 C 0.926008 0.210088 0.081794
C51_2 C 0.932387 0.006717 0.115102
C54_2 C 0.728881 0.055634 0.053691
O10_2 O 0.900911 0.211874 0.086117
C55_2 C 0.944748 0.220097 0.041132
N29_2 N 0.781007 0.034427 0.238878
C93_2 C 0.798400 0.065459 0.225996
C94_2 C 0.747907 0.021121 0.242356
C95_2 C 0.783157 0.083418 0.219133
C96_2 C 0.731701 0.037106 0.236190
O21_2 O 0.803385 0.116545 0.206720
C97_2 C 0.749490 0.069360 0.223618
C98_2 C 0.810739 0.123026 0.167426
O22_2 O 0.789006 0.112170 0.141115
C99_2 C 0.846229 0.143645 0.159841
N30_2 N 0.851692 0.038075 0.242201
C100_2 C 0.867172 0.064313 0.267052
C101_2 C 0.868798 0.034700 0.211335
C102_2 C 0.899289 0.087204 0.261696
C103_2 C 0.901244 0.056802 0.204055
O23_2 O 0.913907 0.113894 0.288556
C104_2 C 0.916812 0.083832 0.230162
C105_2 C 0.910381 0.140650 0.279646
O24_2 O 0.905741 0.146847 0.244476
C106_2 C 0.913446 0.159008 0.321131
C110_2 C 0.688452 0.010226 0.170864
C111_2 C 0.659314 0.000715 0.190401
N34_2 N 0.800872 0.004544 0.314226
H2_2 H 0.738292 0.0046867 0.249126
H6_2 H 0.823728 0.0632727 0.0291723
H8_2 H 0.881258 0.0735846 0.104967
H11_2 H 0.930491 0.164664 0.0474731
H12_2 H 0.914901 0.0575002 0.0871182
H15_2 H 0.945571 0.199173 0.0281858
H16_2 H 0.932337 0.22813 0.0198423
H17_2 H 0.96967 0.24011 0.0464363
H20_2 H 0.911442 0.158514 0.177047
H28_2 H 0.742738 0.0606638 0.0821125
H29_2 H 0.71119 0.0640508 0.0564576
H30_2 H 0.715944 0.0293268 0.0476949
H44_2 H 0.884163 0.0978038 0.171103
H57_2 H 0.942573 0.102078 0.225627
H59_2 H 0.991506 0.160781 0.0916049
H60_2 H 0.937412 0.16692 0.334733
H61_2 H 0.910775 0.180354 0.315256
H62_2 H 0.894273 0.142463 0.342133
H66_2 H 0.705266 0.025165 0.240896
H70_2 H 0.858895 0.131147 0.171144
H71_2 H 0.850576 0.148035 0.127056
H72_2 H 0.855465 0.167002 0.175714
H77_2 H 0.824723 0.0765379 0.220926
H83_2 H 0.737353 0.0834667 0.217355
H84_2 H 0.856285 0.0134487 0.191251
H85_2 H 0.914395 0.0533865 0.178805
H90_2 H 0.853578 0.0672681 0.292131
H96_2 H 0.657449 0.016362 0.213594
H99_2 H 0.710114 0.0336046 0.178356
N5_2 N 0.774458 0.001248 0.995903
N9_2 N 0.891448 0.059674 0.953023
N10_2 N 0.859471 0.097777 0.988961
C9_2 C 0.914406 0.067604 0.923797
C10_2 C 0.861893 0.032610 0.947122
C12_2 C 0.864661 0.119594 0.959026
C25_2 C 0.909642 0.049915 0.888398
C26_2 C 0.854807 0.013233 0.912381
C27_2 C 0.803464 0.085795 0.991662
C28_2 C 0.840412 0.125065 0.944918
C33_2 C 0.701421 0.005249 0.986610
O1_2 O 0.933490 0.058584 0.859152
C41_2 C 0.879457 0.022225 0.882212
C42_2 C 0.809466 0.108233 0.961043
O5_2 O 0.731444 0.024383 0.967945
C45_2 C 0.674019 0.008067 0.976266
O9_2 O 0.749613 0.095437 0.996628
Nb2_2 Nb 0.986789 0.187534 0.913954
C60_2 C 0.964938 0.218324 0.910966
C61_2 C 0.993647 0.196224 0.848629
C62_2 C 0.955079 0.151780 0.958027
C63_2 C 0.996984 0.213389 0.973227
C65_2 C 0.987388 0.144704 0.888908
C66_2 C 0.938432 0.158479 0.885392
N18_2 N 0.953384 0.235264 0.910738
N19_2 N 0.995456 0.199128 0.814226
N20_2 N 0.936278 0.131731 0.980127
N23_2 N 0.988033 0.122233 0.875504
N24_2 N 0.912738 0.144198 0.870357
O20_2 O 0.987162 0.070342 0.912381
C92_2 C 0.987469 0.062338 0.844396
Fe6_2 Fe 0.927430 0.260763 0.916666
Fe7_4 Fe 1.000000 0.200820 0.750
H4_2 H 0.970209 0.0989448 0.980967
H7_2 H 0.842973 0.0257541 0.970416
H9_2 H 0.938293 0.0894385 0.928494
H10_2 H 0.889064 0.133384 0.945562
H18_2 H 0.790059 0.112478 0.949934
H19_2 H 0.845802 0.142967 0.920654
H21_2 H 0.675885 0.0255799 0.953073
H33_2 H 0.738229 0.0100174 0.953814
H41_2 H 0.952886 0.0587322 0.871437
H43_2 H 0.874683 0.00753259 0.854565
H54_2 H 0.990462 0.0425451 0.831793
H55_2 H 0.961538 0.0534013 0.850137
H56_2 H 0.996798 0.0825886 0.822621
Nb1_2 Nb 0.799255 0.986789 0.086046
C2_2 C 0.746614 0.964938 0.089034
C3_2 C 0.797423 0.993647 0.151371
C4_2 C 0.803299 0.955079 0.041973
C5_2 C 0.783595 0.996984 0.026773
C7_2 C 0.842684 0.987388 0.111092
C8_2 C 0.779953 0.938432 0.114608
N2_2 N 0.718120 0.953384 0.089262
N3_2 N 0.796328 0.995456 0.185774
N4_2 N 0.804547 0.936278 0.019873
N7_2 N 0.865800 0.988033 0.124496
N8_2 N 0.768540 0.912738 0.129643
Fe2_2 Fe 0.666667 0.927430 0.083333
Fe3_3 Fe 0.799180 1.000000 0.250
N13_2 N 0.669244 0.963338 0.035520
N14_2 N 0.671432 0.894669 0.036243
N15_2 N 0.746580 0.965573 0.261122
N16_2 N 0.813617 0.961925 0.257799
C17_2 C 0.697801 0.982679 0.016216
C18_2 C 0.643157 0.966587 0.024894
C19_2 C 0.644602 0.865122 0.028676
C20_2 C 0.698771 0.902220 0.015236
C21_2 C 0.732941 0.934541 0.274004
C22_2 C 0.726786 0.978879 0.257644
C23_2 C 0.802859 0.935687 0.232948
C24_2 C 0.834098 0.965300 0.288665
C35_2 C 0.643998 0.842644 0.000727
C37_2 C 0.699739 0.916582 0.280867
C38_2 C 0.694595 0.962894 0.263810
C39_2 C 0.812085 0.912796 0.238304
C40_2 C 0.844442 0.943198 0.295945
O7_2 O 0.686840 0.883455 0.293280
C47_2 C 0.680130 0.930640 0.276382
O8_2 O 0.800013 0.886106 0.211444
C48_2 C 0.832980 0.916168 0.269838
C52_2 C 0.687713 0.876974 0.332574
C53_2 C 0.769731 0.859350 0.220354
O11_2 O 0.916820 0.987162 0.087619
C56_2 C 0.925131 0.987469 0.155604
O12_2 O 0.676836 0.887830 0.358885
C57_2 C 0.702584 0.856355 0.340159
O13_2 O 0.758894 0.853153 0.255524
C58_2 C 0.754438 0.840992 0.178869
N31_2 N 0.664089 0.960761 0.131147
C107_2 C 0.635532 0.951545 0.150451
C108_2 C 0.690176 0.990097 0.141773
C109_2 C 0.631912 0.970495 0.180057
O25_2 O 0.601889 0.959606 0.198722
N32_2 N 0.661901 0.889904 0.130424
C112_2 C 0.688731 0.887187 0.137991
C113_2 C 0.634562 0.870116 0.151431
C114_2 C 0.689335 0.865313 0.165940
C115_2 C 0.634046 0.847591 0.180039
O26_2 O 0.71716 0.86354 0.17245
C116_2 C 0.661245 0.844915 0.187614
N33_2 N 0.615213 0.901931 0.077405
H1_2 H 0.748186 0.923462 0.279074
H3_2 H 0.719078 0.980454 0.0242908
H5_2 H 0.619765 0.951145 0.0401472
H13_2 H 0.622173 0.858628 0.0455364
H14_2 H 0.720913 0.92577 0.0204262
H22_2 H 0.861009 0.946614 0.321195
H23_2 H 0.78631 0.932732 0.207869
H24_2 H 0.842836 0.986551 0.308749
H27_2 H 0.653886 0.916533 0.282645
H34_2 H 0.914209 0.996798 0.177379
H35_2 H 0.908137 0.961538 0.149863
H36_2 H 0.947917 0.990462 0.168207
H37_2 H 0.727748 0.868853 0.328856
H38_2 H 0.70254 0.851965 0.372944
H39_2 H 0.688463 0.832998 0.324286
H45_2 H 0.840495 0.897922 0.274373
H46_2 H 0.770492 0.83308 0.165267
H47_2 H 0.730421 0.819646 0.184744
H48_2 H 0.75181 0.857537 0.157867
H50_2 H 0.680101 0.974835 0.259104
H67_2 H 0.614255 0.928042 0.142376
H88_2 H 0.733605 0.995313 0.250874
H92_2 H 0.660701 0.82738 0.209861
H93_2 H 0.713568 0.998047 0.126519
H94_2 H 0.595104 0.938455 0.212853
H95_2 H 0.71116 0.903122 0.12113
H97_2 H 0.735043 0.885146 0.182194
H98_2 H 0.61242 0.871524 0.14624
H100_2 H 0.611425 0.831828 0.196648
C34_2 C 0.644881 0.988440 0.995803
C36_2 C 0.699287 0.880211 0.986628
O6_2 O 0.61617 0.81304 0.99422
C46_2 C 0.672088 0.850336 0.979053
Fe5_2 Fe 0.810812 0.900413 0.988901
H25_2 H 0.59829 0.816769 0.984472
H31_2 H 0.623219 0.990157 0.98831
H32_2 H 0.721909 0.887069 0.970018
H42_2 H 0.830725 0.991506 0.908395
H49_2 H 0.672632 0.833346 0.956806
Nb1_3 Nb 0.013211 0.812466 0.086046
C2_3 C 0.035062 0.781676 0.089034
C3_3 C 0.006353 0.803776 0.151371
C4_3 C 0.044921 0.848220 0.041973
C5_3 C 0.003016 0.786611 0.026773
C7_3 C 0.012612 0.855296 0.111092
C8_3 C 0.061568 0.841521 0.114608
N2_3 N 0.046616 0.764736 0.089262
N3_3 N 0.004544 0.800872 0.185774
N7_3 N 0.011967 0.877767 0.124496
N8_3 N 0.087262 0.855802 0.129643
Fe2_3 Fe 0.072570 0.739237 0.083333
Fe3_4 Fe 0.000000 0.799180 0.250
N13_3 N 0.036662 0.705906 0.035520
N14_3 N 0.105331 0.776763 0.036243
N15_3 N 0.034427 0.781007 0.261122
N16_3 N 0.038075 0.851692 0.257799
C17_3 C 0.017321 0.715122 0.016216
C18_3 C 0.033413 0.676570 0.024894
C19_3 C 0.134878 0.779480 0.028676
C20_3 C 0.097780 0.796551 0.015236
C21_3 C 0.065459 0.798400 0.274004
C22_3 C 0.021121 0.747907 0.257644
C23_3 C 0.064313 0.867172 0.232948
C24_3 C 0.034700 0.868798 0.288665
C35_3 C 0.157356 0.801354 0.000727
C37_3 C 0.083418 0.783157 0.280867
C38_3 C 0.037106 0.731701 0.263810
C39_3 C 0.087204 0.899289 0.238304
C40_3 C 0.056802 0.901244 0.295945
O7_3 O 0.116545 0.803385 0.293280
C47_3 C 0.069360 0.749490 0.276382
O8_3 O 0.113894 0.913907 0.211444
C48_3 C 0.083832 0.916812 0.269838
C52_3 C 0.123026 0.810739 0.332574
C53_3 C 0.140650 0.910381 0.220354
O11_3 O 0.012838 0.929658 0.087619
C56_3 C 0.012531 0.937662 0.155604
O12_3 O 0.112170 0.789006 0.358885
C57_3 C 0.143645 0.846229 0.340159
O13_3 O 0.146847 0.905741 0.255524
C58_3 C 0.159008 0.913446 0.178869
N31_3 N 0.039239 0.703329 0.131147
C107_3 C 0.048455 0.683988 0.150451
C108_3 C 0.009903 0.700080 0.141773
C109_3 C 0.029505 0.661418 0.180057
O25_3 O 0.040394 0.642284 0.198722
N32_3 N 0.110096 0.771998 0.130424
C112_3 C 0.112813 0.801545 0.137991
C113_3 C 0.129884 0.764447 0.151431
C114_3 C 0.134687 0.824023 0.165940
C115_3 C 0.152409 0.786456 0.180039
O26_3 O 0.13646 0.85363 0.17245
C116_3 C 0.155085 0.816331 0.187614
N33_3 N 0.098069 0.713283 0.077405
H1_3 H 0.0765379 0.824723 0.279074
H3_3 H 0.0195463 0.738625 0.0242908
H5_3 H 0.0488552 0.66862 0.0401472
H13_3 H 0.141372 0.763545 0.0455364
H14_3 H 0.0742298 0.795143 0.0204262
H22_3 H 0.0533865 0.914395 0.321195
H23_3 H 0.0672681 0.853578 0.207869
H24_3 H 0.0134487 0.856285 0.308749
H27_3 H 0.0834667 0.737353 0.282645
H34_3 H 0.00320235 0.917411 0.177379
H35_3 H 0.0384619 0.946599 0.149863
H36_3 H 0.00953808 0.957455 0.168207
H37_3 H 0.131147 0.858895 0.328856
H38_3 H 0.148035 0.850576 0.372944
H39_3 H 0.167002 0.855465 0.324286
H45_3 H 0.102078 0.942573 0.274373
H46_3 H 0.16692 0.937412 0.165267
H47_3 H 0.180354 0.910775 0.184744
H48_3 H 0.142463 0.894273 0.157867
H50_3 H 0.025165 0.705266 0.259104
H67_3 H 0.0719579 0.686213 0.142376
H88_3 H 0.0046867 0.738292 0.250874
H92_3 H 0.17262 0.833321 0.209861
H93_3 H 0.00195339 0.715522 0.126519
H94_3 H 0.0615453 0.656649 0.212853
H95_3 H 0.096878 0.808039 0.12113
H97_3 H 0.114854 0.849897 0.182194
H98_3 H 0.128476 0.740896 0.14624
H100_3 H 0.168172 0.779597 0.196648
C34_3 C 0.011560 0.656441 0.995803
C36_3 C 0.119789 0.819076 0.986628
O6_3 O 0.18696 0.80313 0.99422
C46_3 C 0.149664 0.821752 0.979053
H25_3 H 0.183231 0.781521 0.984472
H31_3 H 0.00984303 0.633062 0.98831
H32_3 H 0.112931 0.834839 0.970018
H42_3 H 0.00849352 0.839219 0.908395
H49_3 H 0.166654 0.839286 0.956806
H51_3 H 0.946457 0.00600869 0.928013
H69_3 H 0.926213 0.0130593 0.994635
C1_3 C 0.974607 0.817272 0.058070
C6_3 C 0.969313 0.764962 0.097435
N1_3 N 0.953367 0.818676 0.041210
N6_3 N 0.946329 0.739799 0.104311
Fe1_3 Fe 0.910399 0.810812 0.011099
Fe3_5 Fe 1.000000 0.799180 0.250
N11_3 N 0.882723 0.788354 0.071490
N12_3 N 0.921014 0.861302 0.032542
C11_3 C 0.918913 0.747611 0.004928
C13_3 C 0.850443 0.770568 0.074721
C14_3 C 0.899753 0.793092 0.106832
C15_3 C 0.935857 0.872511 0.068682
C16_3 C 0.913125 0.880217 0.010460
C29_3 C 0.835181 0.757623 0.112659
C30_3 C 0.886537 0.781283 0.144333
C31_3 C 0.942894 0.903057 0.082980
C32_3 C 0.919887 0.911285 0.024032
O2_3 O 0.933374 0.707355 0.011495
O3_3 O 0.801334 0.739154 0.114479
C43_3 C 0.853268 0.762958 0.147677
O4_3 O 0.959328 0.914050 0.123306
C44_3 C 0.934893 0.922435 0.060644
C49_3 C 0.926258 0.678752 0.018220
C50_3 C 0.789912 0.715920 0.081794
C51_3 C 0.993283 0.925670 0.115102
C54_3 C 0.944366 0.673247 0.053691
O10_3 O 0.788126 0.689037 0.086117
C55_3 C 0.779903 0.724651 0.041132
N21_3 N 0.773210 0.774458 0.004097
N25_3 N 0.831774 0.891448 0.046977
N26_3 N 0.761694 0.859471 0.011039
C67_3 C 0.846802 0.914406 0.076203
C68_3 C 0.829283 0.861893 0.052878
C70_3 C 0.745067 0.864661 0.040974
C75_3 C 0.859727 0.909642 0.111602
C76_3 C 0.841574 0.854807 0.087619
C77_3 C 0.717669 0.803464 0.008338
C78_3 C 0.715347 0.840412 0.055082
O14_3 O 0.874906 0.933490 0.140848
C83_3 C 0.857232 0.879457 0.117788
C84_3 C 0.701233 0.809466 0.038957
O18_3 O 0.654176 0.749613 0.003372
N29_3 N 0.965573 0.746580 0.238878
C93_3 C 0.934541 0.732941 0.225996
C94_3 C 0.978879 0.726786 0.242356
C95_3 C 0.916582 0.699739 0.219133
C96_3 C 0.962894 0.694595 0.236190
O21_3 O 0.883455 0.686840 0.206720
C97_3 C 0.930640 0.680130 0.223618
C98_3 C 0.876974 0.687713 0.167426
O22_3 O 0.887830 0.676836 0.141115
C99_3 C 0.856355 0.702584 0.159841
N30_3 N 0.961925 0.813617 0.242201
C100_3 C 0.935687 0.802859 0.267052
C101_3 C 0.965300 0.834098 0.211335
C102_3 C 0.912796 0.812085 0.261696
C103_3 C 0.943198 0.844442 0.204055
O23_3 O 0.886106 0.800013 0.288556
C104_3 C 0.916168 0.832980 0.230162
C105_3 C 0.859350 0.769731 0.279646
O24_3 O 0.853153 0.758894 0.244476
C106_3 C 0.840992 0.754438 0.321131
C110_3 C 0.989774 0.678227 0.170864
C111_3 C 0.999285 0.658600 0.190401
N34_3 N 0.995456 0.796328 0.314226
H2_3 H 0.995313 0.733605 0.249126
H6_3 H 0.936727 0.760455 0.0291723
H8_3 H 0.926415 0.807674 0.104967
H11_3 H 0.835336 0.765827 0.0474731
H12_3 H 0.9425 0.857401 0.0871182
H15_3 H 0.800827 0.746399 0.0281858
H16_3 H 0.77187 0.704207 0.0198423
H17_3 H 0.75989 0.729559 0.0464363
H20_3 H 0.841486 0.752927 0.177047
H26_3 H 0.940449 0.946457 0.0719872
H28_3 H 0.939336 0.682075 0.0821125
H29_3 H 0.935949 0.647139 0.0564576
H30_3 H 0.970673 0.686617 0.0476949
H40_3 H 0.913154 0.926213 0.00536532
H44_3 H 0.902196 0.786359 0.171103
H52_3 H 0.848855 0.938293 0.071506
H57_3 H 0.897922 0.840495 0.225627
H59_3 H 0.839219 0.830725 0.0916049
H60_3 H 0.83308 0.770492 0.334733
H61_3 H 0.819646 0.730421 0.315256
H62_3 H 0.857537 0.75181 0.342133
H66_3 H 0.974835 0.680101 0.240896
H70_3 H 0.868853 0.727748 0.171144
H71_3 H 0.851965 0.70254 0.127056
H72_3 H 0.832998 0.688463 0.175714
H73_3 H 0.677582 0.790059 0.0500658
H77_3 H 0.923462 0.748186 0.220926
H78_3 H 0.817219 0.842973 0.029584
H80_3 H 0.75568 0.889064 0.0544384
H81_3 H 0.859222 0.940038 0.151482
H82_3 H 0.867151 0.874683 0.145435
H83_3 H 0.916533 0.653886 0.217355
H84_3 H 0.986551 0.842836 0.191251
H85_3 H 0.946614 0.861009 0.178805
H87_3 H 0.702835 0.845802 0.0793459
H90_3 H 0.932732 0.78631 0.292131
H91_3 H 0.871264 0.970209 0.0190325
H96_3 H 0.983638 0.641087 0.213594
H99_3 H 0.966395 0.67651 0.178356
N5_3 N 0.998752 0.773210 0.995903
N9_3 N 0.940326 0.831774 0.953023
N10_3 N 0.902223 0.761694 0.988961
C9_3 C 0.932396 0.846802 0.923797
C10_3 C 0.967390 0.829283 0.947122
C12_3 C 0.880406 0.745067 0.959026
C25_3 C 0.950085 0.859727 0.888398
C26_3 C 0.986767 0.841574 0.912381
C27_3 C 0.914205 0.717669 0.991662
C28_3 C 0.874935 0.715347 0.944918
C33_3 C 0.994751 0.696172 0.986610
O1_3 O 0.941416 0.874906 0.859152
C41_3 C 0.977775 0.857232 0.882212
C42_3 C 0.891767 0.701233 0.961043
O5_3 O 0.975617 0.707061 0.967945
C45_3 C 0.991933 0.665952 0.976266
O9_3 O 0.904563 0.654176 0.996628
Nb2_3 Nb 0.812466 0.799255 0.913954
C59_3 C 0.817272 0.842665 0.941930
C60_3 C 0.781676 0.746614 0.910966
C61_3 C 0.803776 0.797423 0.848629
C62_3 C 0.848220 0.803299 0.958027
C63_3 C 0.786611 0.783595 0.973227
C64_3 C 0.764962 0.795649 0.902565
C65_3 C 0.855296 0.842684 0.888908
C66_3 C 0.841521 0.779953 0.885392
N17_3 N 0.818676 0.865309 0.958790
N18_3 N 0.764736 0.718120 0.910738
N19_3 N 0.800872 0.796328 0.814226
N20_3 N 0.868269 0.804547 0.980127
N22_3 N 0.739799 0.793470 0.895689
N23_3 N 0.877767 0.865800 0.875504
N24_3 N 0.855802 0.768540 0.870357
N27_3 N 0.788354 0.905631 0.928510
N28_3 N 0.861302 0.940288 0.967458
C69_3 C 0.747611 0.828698 0.995072
C71_3 C 0.770568 0.920125 0.925279
C72_3 C 0.793092 0.893339 0.893168
C73_3 C 0.872511 0.936654 0.931318
C74_3 C 0.880217 0.967092 0.989540
C79_3 C 0.757623 0.922442 0.887341
C80_3 C 0.781283 0.894746 0.855667
C81_3 C 0.903057 0.960163 0.917020
C82_3 C 0.911285 0.991398 0.975968
O15_3 O 0.707355 0.773981 0.988505
O16_3 O 0.739154 0.937820 0.885521
C85_3 C 0.762958 0.909690 0.852323
O17_3 O 0.914050 0.954722 0.876694
C86_3 C 0.922435 0.987542 0.939356
C87_3 C 0.678752 0.752494 0.981780
C88_3 C 0.715920 0.926008 0.918206
C89_3 C 0.925670 0.932387 0.884898
C90_3 C 0.673247 0.728881 0.946309
O19_3 O 0.689037 0.900911 0.913883
C91_3 C 0.724651 0.944748 0.958868
O20_3 O 0.929658 0.916820 0.912381
C92_3 C 0.937662 0.925131 0.844396
Fe6_3 Fe 0.739237 0.666666 0.916666
Fe7_5 Fe 0.799180 0.799180 0.750
H4_3 H 0.901055 0.871264 0.980967
H7_3 H 0.974246 0.817219 0.970416
H9_3 H 0.910561 0.848855 0.928494
H10_3 H 0.866616 0.75568 0.945562
H18_3 H 0.887522 0.677582 0.949934
H19_3 H 0.857033 0.702835 0.920654
H21_3 H 0.97442 0.650305 0.953073
H33_3 H 0.989983 0.728212 0.953814
H41_3 H 0.941268 0.894154 0.871437
H43_3 H 0.992467 0.867151 0.854565
H53_3 H 0.786359 0.884163 0.828897
H54_3 H 0.957455 0.947917 0.831793
H55_3 H 0.946599 0.908137 0.850137
H56_3 H 0.917411 0.914209 0.822621
H58_3 H 0.752927 0.911442 0.822953
H63_3 H 0.729559 0.96967 0.953564
H64_3 H 0.704207 0.932337 0.980158
H65_3 H 0.746399 0.945571 0.971814
H68_3 H 0.760455 0.823728 0.970828
H74_3 H 0.686617 0.715944 0.952305
H75_3 H 0.647139 0.71119 0.943542
H76_3 H 0.682075 0.742738 0.917887
H79_3 H 0.807674 0.881258 0.895033
H86_3 H 0.765827 0.930491 0.952527
H89_3 H 0.857401 0.914901 0.912882
Fe2_4 Fe 0.594096 -0.000000 0.750000
C18_4 C 0.656763 0.023510 0.691561
C19_4 C 0.553853 0.022065 0.695343
C34_4 C 0.676892 0.021786 0.662470
C35_4 C 0.531979 0.022669 0.667394
O6_4 O 0.53020 0.05050 0.66089
N31_4 N 0.630005 0.002577 0.797813
C107_4 C 0.649346 0.031134 0.817117
C109_4 C 0.671916 0.034754 0.846723
O25_4 O 0.691050 0.064777 0.865388
C111_4 C 0.674734 0.007352 0.857067
N32_4 N 0.561336 0.004765 0.797090
C113_4 C 0.568887 0.032104 0.818097
C115_4 C 0.546878 0.032620 0.846705
C116_4 C 0.517003 0.005421 0.854280
N33_4 N 0.620051 0.051453 0.744071
H5_4 H 0.664713 0.0469018 0.706814
H13_4 H 0.569789 0.0444938 0.712203
H25_4 H 0.551812 0.0683764 0.651139
H27_4 H 0.595981 0.0127805 0.949312
H31_4 H 0.700271 0.0434476 0.654977
H67_4 H 0.64712 0.0524116 0.809043
H92_4 H 0.500013 0.00596563 0.876527
H94_4 H 0.676684 0.0715627 0.87952
H96_4 H 0.692247 0.00921791 0.88026
H98_4 H 0.592437 0.0542466 0.812907
H100_4 H 0.553736 0.0552418 0.863315
O12_4 O 0.544327 0.989831 0.025552
C57_4 C 0.487104 0.964083 0.006826
H38_4 H 0.482758 0.964126 0.0396108
H60_4 H 0.562841 0.729255 0.00139999
H62_4 H 0.581523 0.772393 0.00879994
Nb1_4 Nb 0.520867 0.867412 0.752713
C1_4 C 0.516061 0.824002 0.724737
C2_4 C 0.551657 0.920053 0.755701
C3_4 C 0.529557 0.869244 0.818038
C4_4 C 0.485113 0.863368 0.708640
C5_4 C 0.546722 0.883072 0.693440
C6_4 C 0.568371 0.871018 0.764102
C7_4 C 0.478037 0.823983 0.777759
C8_4 C 0.491812 0.886714 0.781275
N1_4 N 0.514657 0.801358 0.707877
N2_4 N 0.568597 0.948547 0.755929
N3_4 N 0.532461 0.870339 0.852441
N4_3 N 0.465064 0.862120 0.686540
N5_4 N 0.560123 0.892209 0.662570
N6_4 N 0.593534 0.873197 0.770978
N7_4 N 0.455566 0.800867 0.791163
N8_4 N 0.477531 0.898127 0.796310
Fe1_4 Fe 0.522521 0.766254 0.677766
Fe2_5 Fe 0.594096 1.000000 0.750000
Fe3_6 Fe 0.534153 0.867487 0.916667
N9_4 N 0.501559 0.775219 0.619690
N10_4 N 0.571639 0.807196 0.655628
N11_4 N 0.544979 0.761036 0.738157
N12_4 N 0.472031 0.726379 0.699209
N13_4 N 0.627427 0.997423 0.702187
N14_4 N 0.556570 0.995235 0.702910
N15_4 N 0.552326 0.920087 0.927789
N16_4 N 0.481641 0.853050 0.924466
C9_4 C 0.486531 0.752261 0.590464
C10_4 C 0.504050 0.804774 0.613789
C11_4 C 0.585722 0.837969 0.671595
C12_4 C 0.588266 0.802006 0.625693
C13_4 C 0.562765 0.746542 0.741388
C14_4 C 0.540241 0.773328 0.773499
C15_4 C 0.460822 0.730013 0.735349
C16_4 C 0.453116 0.699575 0.677127
C17_4 C 0.618211 0.968866 0.682883
C20_4 C 0.536782 0.967896 0.681903
C21_4 C 0.534933 0.933726 0.940671
C22_4 C 0.585426 0.939881 0.924311
C23_4 C 0.466161 0.863808 0.899615
C24_4 C 0.464535 0.832569 0.955332
C25_4 C 0.473606 0.757025 0.555065
C26_4 C 0.491759 0.811860 0.579048
C27_4 C 0.615664 0.863203 0.658329
C28_4 C 0.617986 0.826255 0.611585
C29_4 C 0.575710 0.744225 0.779326
C30_4 C 0.552050 0.771921 0.811000
C31_4 C 0.430276 0.706504 0.749647
C32_4 C 0.422048 0.675269 0.690699
C33_4 C 0.637161 0.965246 0.653277
C36_4 C 0.514257 0.967380 0.653295
C37_4 C 0.550176 0.966928 0.947534
C38_4 C 0.601632 0.972072 0.930477
C39_4 C 0.434044 0.854582 0.904971
C40_4 C 0.432089 0.822225 0.962612
O1_4 O 0.458427 0.733177 0.525819
C41_4 C 0.476101 0.787210 0.548879
O2_4 O 0.625978 0.892686 0.678162
C42_4 C 0.632100 0.857201 0.627710
O3_4 O 0.594179 0.728847 0.781146
C43_4 C 0.570375 0.756977 0.814344
O4_4 O 0.419283 0.711945 0.789973
C44_4 C 0.410898 0.679125 0.727311
O5_4 O 0.626272 0.935223 0.634612
C45_4 C 0.667381 0.992648 0.642933
C46_4 C 0.511581 0.994579 0.645720
O7_4 O 0.529948 0.979827 0.959947
C47_4 C 0.583843 0.986537 0.943049
O8_4 O 0.419426 0.866654 0.878111
C48_4 C 0.416521 0.833687 0.936505
C49_4 C 0.654581 0.914173 0.684887
C50_4 C 0.617413 0.740659 0.748461
C51_4 C 0.407663 0.734280 0.781769
C52_4 C 0.522594 0.978954 0.999241
C53_4 C 0.422952 0.896936 0.887021
O9_4 O 0.679157 0.917054 0.663295
C54_4 C 0.660086 0.937786 0.720358
O10_4 O 0.644296 0.765756 0.752784
C55_4 C 0.608682 0.721919 0.707799
O11_4 O 0.403675 0.749847 0.754286
C56_4 C 0.395671 0.741536 0.822271
O13_4 O 0.427592 0.907773 0.922191
C58_4 C 0.419887 0.912229 0.845536
Nb2_4 Nb 0.534078 0.679878 0.580621
C59_4 C 0.490668 0.641274 0.608597
C60_4 C 0.586719 0.701729 0.577633
C61_4 C 0.535910 0.673020 0.515296
C62_4 C 0.530034 0.711588 0.624694
C63_4 C 0.549738 0.669683 0.639894
C64_4 C 0.537684 0.635980 0.569232
C65_4 C 0.490649 0.679279 0.555575
C66_4 C 0.553380 0.728235 0.552059
N17_4 N 0.468024 0.620034 0.625457
N18_4 N 0.615213 0.713283 0.577405
N19_4 N 0.537005 0.671211 0.480893
N20_4 N 0.528786 0.730389 0.646794
N21_4 N 0.558875 0.665419 0.670764
N22_4 N 0.539863 0.612996 0.562356
N23_4 N 0.467533 0.678634 0.542171
N24_4 N 0.564793 0.753929 0.537024
Fe4_2 Fe 0.432920 0.577066 0.655568
N25_4 N 0.441885 0.606993 0.713644
N26_4 N 0.473862 0.568890 0.677706
N27_4 N 0.427702 0.549390 0.595177
N28_4 N 0.393045 0.587681 0.634125
C67_4 C 0.418927 0.599063 0.742870
C68_4 C 0.471440 0.634057 0.719545
C69_4 C 0.504635 0.585580 0.661739
C70_4 C 0.468672 0.547073 0.707641
C71_4 C 0.413208 0.517110 0.591946
C72_4 C 0.439994 0.566420 0.559835
C73_4 C 0.396679 0.602524 0.597985
C74_4 C 0.366241 0.579792 0.656207
C75_4 C 0.423691 0.616752 0.778269
C76_4 C 0.478526 0.653434 0.754286
C77_4 C 0.529869 0.580872 0.675005
C78_4 C 0.492921 0.541602 0.721749
C79_4 C 0.410891 0.501848 0.554008
C80_4 C 0.438587 0.553204 0.522334
C81_4 C 0.373170 0.609561 0.583687
C82_4 C 0.341935 0.586554 0.642635
O14_4 O 0.399843 0.608083 0.807515
C83_4 C 0.453876 0.644442 0.784455
O15_4 O 0.559352 0.600041 0.655172
C84_4 C 0.523867 0.558434 0.705624
O16_4 O 0.395513 0.468001 0.552188
C85_4 C 0.423643 0.519935 0.518990
O17_4 O 0.378611 0.625995 0.543361
C86_4 C 0.345791 0.601560 0.606023
C87_4 C 0.580839 0.592925 0.648447
C88_4 C 0.407325 0.456579 0.584873
C89_4 C 0.400946 0.659950 0.551565
O18_4 O 0.583720 0.571230 0.670039
C90_4 C 0.604452 0.611033 0.612976
O19_4 O 0.432422 0.454793 0.580550
C91_4 C 0.388585 0.446570 0.625535
O20_4 O 0.416513 0.679505 0.579048
C92_4 C 0.408202 0.679198 0.511063
N29_4 N 0.586753 0.885660 0.905545
C93_4 C 0.600392 0.868267 0.892663
C94_4 C 0.606547 0.918760 0.909023
C95_4 C 0.633594 0.883510 0.885800
C96_4 C 0.638738 0.934966 0.902857
O21_4 O 0.646493 0.863282 0.873387
C97_4 C 0.653203 0.917177 0.890285
C98_4 C 0.645620 0.855928 0.834093
O22_4 O 0.656497 0.877661 0.807782
C99_4 C 0.630749 0.820438 0.826508
N30_4 N 0.519716 0.814975 0.908868
C100_4 C 0.530474 0.799495 0.933719
C101_4 C 0.499235 0.797869 0.878002
C102_4 C 0.521248 0.767378 0.928363
C103_4 C 0.488891 0.765423 0.870722
O23_4 O 0.533320 0.752760 0.955223
C104_4 C 0.500353 0.749855 0.896829
C105_4 C 0.563602 0.756286 0.946313
O24_4 O 0.574439 0.760926 0.911143
C106_4 C 0.578895 0.753221 0.987798
C108_4 C 0.633254 0.976490 0.808439
C110_4 C 0.655107 0.978214 0.837530
C112_4 C 0.531789 0.977935 0.804657
C114_4 C 0.509311 0.977331 0.832606
O26_4 O 0.47971 0.94950 0.83911
N34_4 N 0.537005 0.865795 0.980893
N35_2 N 0.397055 0.534936 0.686540
Fe5_3 Fe 0.422934 0.855855 0.655568
Fe6_4 Fe 0.666667 0.739237 0.583333
Fe7_6 Fe 0.534153 0.666667 0.416667
H1_4 H 0.50861 0.918481 0.94574
H2_4 H 0.599728 0.928375 0.915793
H3_4 H 0.594709 0.947588 0.690957
H4_4 H 0.462069 0.696458 0.647634
H6_4 H 0.572878 0.842939 0.695839
H7_4 H 0.516114 0.823694 0.637083
H8_4 H 0.52566 0.785408 0.771633
H9_4 H 0.484478 0.728373 0.595161
H10_4 H 0.577654 0.777603 0.612228
H11_4 H 0.567506 0.736176 0.71414
H12_4 H 0.475932 0.751766 0.753785
H14_4 H 0.53819 0.945753 0.687093
H15_4 H 0.586935 0.721095 0.694852
H16_4 H 0.629126 0.73433 0.686509
H17_4 H 0.603774 0.696997 0.713103
H18_4 H 0.655752 0.876607 0.616601
H19_4 H 0.630499 0.820865 0.587321
H20_4 H 0.580406 0.755225 0.843714
H21_4 H 0.683029 0.990782 0.61974
H22_4 H 0.418938 0.805658 0.987862
H23_4 H 0.479755 0.880357 0.874536
H24_4 H 0.477048 0.82383 0.975415
H26_4 H 0.386876 0.660658 0.738654
H28_4 H 0.651259 0.923928 0.748779
H29_4 H 0.686194 0.955477 0.723124
H30_4 H 0.646716 0.950722 0.714362
H32_4 H 0.498494 0.944758 0.636685
H33_4 H 0.605121 0.928437 0.62048
H34_4 H 0.415922 0.752458 0.844046
H35_4 H 0.386735 0.75853 0.816529
H36_4 H 0.375878 0.71875 0.834874
H37_4 H 0.474438 0.938919 0.995523
H39_4 H 0.477868 0.978204 0.990953
H40_4 H 0.40712 0.653607 0.672032
H41_4 H 0.439179 0.71378 0.538103
H42_4 H 0.494114 0.835941 0.575062
H43_4 H 0.466182 0.791983 0.521231
H44_4 H 0.546974 0.782504 0.83777
H45_4 H 0.39076 0.826171 0.941039
H46_4 H 0.395921 0.896175 0.831933
H47_4 H 0.422558 0.936245 0.851411
H48_4 H 0.43906 0.914857 0.824533
H49_4 H 0.494047 0.994034 0.623473
H50_4 H 0.628068 0.986566 0.925771
H51_4 H 0.327325 0.607115 0.59468
H52_4 H 0.39504 0.577228 0.738173
H53_4 H 0.44917 0.568863 0.495563
H54_4 H 0.385417 0.676205 0.498459
H55_4 H 0.425196 0.705129 0.516804
H56_4 H 0.419124 0.669869 0.489288
H57_4 H 0.492838 0.724094 0.892294
H58_4 H 0.421892 0.508153 0.48962
H59_4 H 0.502608 0.67516 0.758272
H61_4 H 0.602912 0.755892 0.981923
H63_4 H 0.363664 0.426556 0.62023
H64_4 H 0.400997 0.438537 0.646824
H65_4 H 0.387762 0.467494 0.638481
H66_4 H 0.653233 0.961401 0.907562
H68_4 H 0.509606 0.603394 0.637494
H69_4 H 0.320274 0.579821 0.661301
H70_4 H 0.605586 0.807772 0.83781
H71_4 H 0.630793 0.816091 0.793723
H72_4 H 0.644871 0.811202 0.84238
H73_4 H 0.543274 0.554189 0.716732
H74_4 H 0.617389 0.63734 0.618972
H75_4 H 0.622143 0.602616 0.610209
H76_4 H 0.590595 0.606003 0.584554
H77_4 H 0.585148 0.841943 0.887593
H78_4 H 0.49036 0.640913 0.696251
H79_4 H 0.452075 0.593082 0.5617
H80_4 H 0.444269 0.533282 0.721105
H81_4 H 0.393295 0.58585 0.818149
H82_4 H 0.45865 0.659134 0.812102
H83_4 H 0.679447 0.929314 0.884022
H84_4 H 0.490497 0.810382 0.857918
H85_4 H 0.472324 0.752271 0.845471
H86_4 H 0.402842 0.502003 0.619194
H87_4 H 0.487531 0.523699 0.746013
H88_4 H 0.595042 0.933062 0.91754
H89_4 H 0.418432 0.609167 0.579549
H90_4 H 0.547023 0.813088 0.958798
H91_4 H 0.363125 0.567722 0.685699
H93_4 H 0.617812 0.953098 0.793186
H95_4 H 0.525295 0.955506 0.787797
H97_4 H 0.483436 0.931624 0.848861
H99_4 H 0.656824 0.956552 0.845023
O18_5 O 0.428770 0.012491 0.670039
H75_5 H 0.397384 0.0195275 0.610209
O12_5 O 0.010169 0.554497 0.025552
C57_5 C 0.035917 0.523022 0.006826
H38_5 H 0.0358736 0.518631 0.0396108
H60_5 H 0.270745 0.833587 0.00139999
H62_5 H 0.227607 0.80913 0.00879994
Nb1_5 Nb 0.132588 0.653456 0.752713
C1_5 C 0.175998 0.692060 0.724737
C2_5 C 0.079947 0.631605 0.755701
C3_5 C 0.130756 0.660314 0.818038
C4_5 C 0.136632 0.621746 0.708640
C5_5 C 0.116928 0.663651 0.693440
C6_5 C 0.128982 0.697354 0.764102
C7_5 C 0.176017 0.654055 0.777759
C8_5 C 0.113286 0.605099 0.781275
N1_5 N 0.198642 0.713300 0.707877
N2_5 N 0.051453 0.620051 0.755929
N3_5 N 0.129661 0.662123 0.852441
N4_4 N 0.137880 0.602945 0.686540
N5_5 N 0.107791 0.667915 0.662570
N6_5 N 0.126803 0.720338 0.770978
N7_5 N 0.199133 0.654700 0.791163
N8_5 N 0.101873 0.579405 0.796310
Fe1_5 Fe 0.233746 0.756268 0.677766
Fe2_6 Fe 0.000000 0.594097 0.750000
Fe3_7 Fe 0.132513 0.666667 0.916667
N9_5 N 0.224781 0.726341 0.619690
N10_5 N 0.192804 0.764444 0.655628
N11_5 N 0.238964 0.783944 0.738157
N12_5 N 0.273621 0.745653 0.699209
N13_5 N 0.002577 0.630005 0.702187
N14_5 N 0.004765 0.561336 0.702910
N15_5 N 0.079913 0.632240 0.927789
N16_5 N 0.146950 0.628592 0.924466
C9_5 C 0.247739 0.734271 0.590464
C10_5 C 0.195226 0.699277 0.613789
C11_5 C 0.162031 0.747754 0.671595
C12_5 C 0.197994 0.786261 0.625693
C13_5 C 0.253458 0.816224 0.741388
C14_5 C 0.226672 0.766914 0.773499
C15_5 C 0.269987 0.730810 0.735349
C16_5 C 0.300425 0.753542 0.677127
C17_5 C 0.031134 0.649346 0.682883
C20_5 C 0.032104 0.568887 0.681903
C21_5 C 0.066274 0.601208 0.940671
C22_5 C 0.060119 0.645546 0.924311
C23_5 C 0.136192 0.602354 0.899615
C24_5 C 0.167431 0.631967 0.955332
C25_5 C 0.242975 0.716582 0.555065
C26_5 C 0.188140 0.679900 0.579048
C27_5 C 0.136797 0.752462 0.658329
C28_5 C 0.173745 0.791732 0.611585
C29_5 C 0.255775 0.831486 0.779326
C30_5 C 0.228079 0.780130 0.811000
C31_5 C 0.293496 0.723773 0.749647
C32_5 C 0.324731 0.746780 0.690699
C33_5 C 0.034754 0.671916 0.653277
C36_5 C 0.032620 0.546878 0.653295
C37_5 C 0.033072 0.583249 0.947534
C38_5 C 0.027928 0.629561 0.930477
C39_5 C 0.145418 0.579463 0.904971
C40_5 C 0.177775 0.609865 0.962612
O1_5 O 0.266823 0.725251 0.525819
C41_5 C 0.212790 0.688892 0.548879
O2_5 O 0.107314 0.733293 0.678162
C42_5 C 0.142799 0.774900 0.627710
O3_5 O 0.271153 0.865333 0.781146
C43_5 C 0.243023 0.813399 0.814344
O4_5 O 0.288055 0.707339 0.789973
C44_5 C 0.320875 0.731774 0.727311
O5_5 O 0.064777 0.691050 0.634612
C45_5 C 0.007352 0.674734 0.642933
C46_5 C 0.005421 0.517003 0.645720
O7_5 O 0.020173 0.550122 0.959947
C47_5 C 0.013463 0.597307 0.943049
O8_5 O 0.133346 0.552773 0.878111
C48_5 C 0.166313 0.582835 0.936505
C49_5 C 0.085827 0.740409 0.684887
C50_5 C 0.259341 0.876755 0.748461
C51_5 C 0.265720 0.673384 0.781769
C52_5 C 0.021046 0.543641 0.999241
C53_5 C 0.103064 0.526017 0.887021
O9_5 O 0.082946 0.762104 0.663295
C54_5 C 0.062214 0.722301 0.720358
O10_5 O 0.234244 0.878541 0.752784
C55_5 C 0.278081 0.886764 0.707799
O11_5 O 0.250153 0.653829 0.754286
C56_5 C 0.258464 0.654136 0.822271
O13_5 O 0.092227 0.519820 0.922191
C58_5 C 0.087771 0.507659 0.845536
Nb2_5 Nb 0.320122 0.854201 0.580621
C59_5 C 0.358726 0.849395 0.608597
C60_5 C 0.298271 0.884991 0.577633
C61_5 C 0.326980 0.862891 0.515296
C62_5 C 0.288412 0.818447 0.624694
C63_5 C 0.330317 0.880056 0.639894
C64_5 C 0.364020 0.901705 0.569232
C65_5 C 0.320721 0.811371 0.555575
C66_5 C 0.271765 0.825146 0.552059
N17_5 N 0.379966 0.847991 0.625457
N18_5 N 0.286717 0.901931 0.577405
N19_5 N 0.328789 0.865795 0.480893
N20_5 N 0.269611 0.798398 0.646794
N21_5 N 0.334581 0.893457 0.670764
N22_5 N 0.387004 0.926868 0.562356
N23_5 N 0.321366 0.788900 0.542171
N24_5 N 0.246071 0.810865 0.537024
N25_5 N 0.393007 0.834893 0.713644
N26_5 N 0.431110 0.904973 0.677706
N27_5 N 0.450610 0.878313 0.595177
N28_5 N 0.412319 0.805365 0.634125
C67_5 C 0.400937 0.819865 0.742870
C68_5 C 0.365943 0.837384 0.719545
C69_5 C 0.414420 0.919056 0.661739
C70_5 C 0.452927 0.921600 0.707641
C71_5 C 0.482890 0.896099 0.591946
C72_5 C 0.433580 0.873575 0.559835
C73_5 C 0.397476 0.794156 0.597985
C74_5 C 0.420208 0.786450 0.656207
C75_5 C 0.383248 0.806940 0.778269
C76_5 C 0.346566 0.825093 0.754286
C77_5 C 0.419128 0.948998 0.675005
C78_5 C 0.458398 0.951320 0.721749
C79_5 C 0.498152 0.909044 0.554008
C80_5 C 0.446796 0.885384 0.522334
C81_5 C 0.390439 0.763610 0.583687
C82_5 C 0.413446 0.755382 0.642635
O14_5 O 0.391917 0.791761 0.807515
C83_5 C 0.355558 0.809435 0.784455
O15_5 O 0.399959 0.959312 0.655172
C84_5 C 0.441566 0.965434 0.705624
O16_5 O 0.531999 0.927513 0.552188
C85_5 C 0.480065 0.903709 0.518990
O17_5 O 0.374005 0.752617 0.543361
C86_5 C 0.398440 0.744232 0.606023
C87_5 C 0.407075 0.987915 0.648447
C88_5 C 0.543421 0.950747 0.584873
C89_5 C 0.340050 0.740997 0.551565
C90_5 C 0.388967 0.993420 0.612976
O19_5 O 0.545207 0.977630 0.580550
C91_5 C 0.553430 0.942016 0.625535
O20_5 O 0.320495 0.737009 0.579048
C92_5 C 0.320802 0.729005 0.511063
N29_5 N 0.114340 0.701094 0.905545
C93_5 C 0.131733 0.732126 0.892663
C94_5 C 0.081240 0.687788 0.909023
C95_5 C 0.116490 0.750085 0.885800
C96_5 C 0.065034 0.703773 0.902857
O21_5 O 0.136718 0.783212 0.873387
C97_5 C 0.082823 0.736027 0.890285
C98_5 C 0.144072 0.789693 0.834093
O22_5 O 0.122339 0.778837 0.807782
C99_5 C 0.179562 0.810312 0.826508
N30_5 N 0.185025 0.704742 0.908868
C100_5 C 0.200505 0.730980 0.933719
C101_5 C 0.202131 0.701367 0.878002
C102_5 C 0.232622 0.753871 0.928363
C103_5 C 0.234577 0.723469 0.870722
O23_5 O 0.247240 0.780561 0.955223
C104_5 C 0.250145 0.750499 0.896829
C105_5 C 0.243714 0.807317 0.946313
O24_5 O 0.239074 0.813514 0.911143
C106_5 C 0.246779 0.825675 0.987798
C108_5 C 0.023510 0.656763 0.808439
C110_5 C 0.021786 0.676892 0.837530
C112_5 C 0.022065 0.553853 0.804657
C114_5 C 0.022669 0.531979 0.832606
O26_5 O 0.05050 0.53020 0.83911
N34_5 N 0.134205 0.671211 0.980893
Fe5_4 Fe 0.144145 0.567080 0.655568
Fe6_5 Fe 0.260763 0.927430 0.583333
Fe7_7 Fe 0.333333 0.867487 0.416667
H1_5 H 0.0815189 0.590129 0.94574
H2_5 H 0.071625 0.671353 0.915793
H3_5 H 0.0524116 0.64712 0.690957
H4_5 H 0.303542 0.765611 0.647634
H6_5 H 0.157061 0.729939 0.695839
H7_5 H 0.176306 0.692421 0.637083
H8_5 H 0.214592 0.740251 0.771633
H9_5 H 0.271627 0.756105 0.595161
H10_5 H 0.222397 0.800051 0.612228
H11_5 H 0.263824 0.831331 0.71414
H12_5 H 0.248234 0.724167 0.753785
H14_5 H 0.0542466 0.592437 0.687093
H15_5 H 0.278905 0.865839 0.694852
H16_5 H 0.26567 0.894796 0.686509
H17_5 H 0.303003 0.906777 0.713103
H18_5 H 0.123393 0.779144 0.616601
H19_5 H 0.179135 0.809634 0.587321
H20_5 H 0.244775 0.825181 0.843714
H21_5 H 0.00921791 0.692247 0.61974
H22_5 H 0.194342 0.61328 0.987862
H23_5 H 0.119643 0.599399 0.874536
H24_5 H 0.17617 0.653218 0.975415
H26_5 H 0.339342 0.726218 0.738654
H28_5 H 0.0760718 0.72733 0.748779
H29_5 H 0.0445233 0.730717 0.723124
H30_5 H 0.0492776 0.695993 0.714362
H32_5 H 0.0552418 0.553736 0.636685
H33_5 H 0.0715627 0.676684 0.62048
H34_5 H 0.247542 0.663464 0.844046
H35_5 H 0.24147 0.628205 0.816529
H36_5 H 0.28125 0.657129 0.834874
H37_5 H 0.0610811 0.53552 0.995523
H39_5 H 0.0217959 0.499664 0.990953
H40_5 H 0.346393 0.753513 0.672032
H41_5 H 0.28622 0.725399 0.538103
H42_5 H 0.164059 0.658173 0.575062
H43_5 H 0.208017 0.674199 0.521231
H44_5 H 0.217496 0.76447 0.83777
H45_5 H 0.173829 0.564589 0.941039
H46_5 H 0.103825 0.499746 0.831933
H47_5 H 0.0637546 0.486313 0.851411
H48_5 H 0.0851433 0.524203 0.824533
H49_5 H 0.00596563 0.500013 0.623473
H50_5 H 0.0134341 0.641502 0.925771
H51_5 H 0.392885 0.720209 0.59468
H52_5 H 0.422772 0.817812 0.738173
H53_5 H 0.431137 0.880308 0.495563
H54_5 H 0.323795 0.709212 0.498459
H55_5 H 0.294871 0.720068 0.516804
H56_5 H 0.330131 0.749255 0.489288
H57_5 H 0.275906 0.768744 0.892294
H58_5 H 0.491847 0.913739 0.48962
H59_5 H 0.32484 0.827448 0.758272
H61_5 H 0.244108 0.84702 0.981923
H63_5 H 0.573444 0.937107 0.62023
H64_5 H 0.561463 0.96246 0.646824
H65_5 H 0.532506 0.920268 0.638481
H66_5 H 0.0385991 0.691832 0.907562
H68_5 H 0.396606 0.906212 0.637494
H69_5 H 0.420179 0.740453 0.661301
H70_5 H 0.192228 0.797814 0.83781
H71_5 H 0.183909 0.814702 0.793723
H72_5 H 0.188798 0.833669 0.84238
H73_5 H 0.445811 0.989085 0.716732
H74_5 H 0.36266 0.980049 0.618972
H76_5 H 0.393997 0.984592 0.584554
H77_5 H 0.158057 0.743205 0.887593
H78_5 H 0.359087 0.849448 0.696251
H79_5 H 0.406918 0.858993 0.5617
H80_5 H 0.466718 0.910987 0.721105
H81_5 H 0.41415 0.807445 0.818149
H82_5 H 0.340866 0.799516 0.812102
H83_5 H 0.0706862 0.750133 0.884022
H84_5 H 0.189618 0.680115 0.857918
H85_5 H 0.247729 0.720053 0.845471
H86_5 H 0.497997 0.90084 0.619194
H87_5 H 0.476301 0.963832 0.746013
H88_5 H 0.0669383 0.66198 0.91754
H89_5 H 0.390833 0.809266 0.579549
H90_5 H 0.186912 0.733935 0.958798
H91_5 H 0.432278 0.795403 0.685699
H93_5 H 0.0469018 0.664713 0.793186
H95_5 H 0.0444938 0.569789 0.787797
H97_5 H 0.0683764 0.551812 0.848861
H99_5 H 0.0434476 0.700271 0.845023
Fe2_7 Fe 1.000000 0.594097 0.750000
C18_5 C 0.976490 0.633254 0.691561
C19_5 C 0.977935 0.531789 0.695343
C34_5 C 0.978214 0.655107 0.662470
C35_5 C 0.977331 0.509311 0.667394
O6_5 O 0.94950 0.47971 0.66089
N31_5 N 0.997423 0.627427 0.797813
C107_5 C 0.968866 0.618211 0.817117
C109_5 C 0.965246 0.637161 0.846723
O25_5 O 0.935223 0.626272 0.865388
C111_5 C 0.992648 0.667381 0.857067
N32_5 N 0.995235 0.556570 0.797090
C113_5 C 0.967896 0.536782 0.818097
C115_5 C 0.967380 0.514257 0.846705
C116_5 C 0.994579 0.511581 0.854280
N33_5 N 0.948547 0.568597 0.744071
H5_5 H 0.953098 0.617812 0.706814
H13_5 H 0.955506 0.525295 0.712203
H25_5 H 0.931624 0.483436 0.651139
H27_5 H 0.987219 0.5832 0.949312
H31_5 H 0.956552 0.656824 0.654977
H67_5 H 0.947588 0.594709 0.809043
H92_5 H 0.994034 0.494047 0.876527
H94_5 H 0.928437 0.605121 0.87952
H96_5 H 0.990782 0.683029 0.88026
H98_5 H 0.945753 0.53819 0.812907
H100_5 H 0.944758 0.498494 0.863315
O12_6 O 0.445503 0.455673 0.025552
C57_6 C 0.476978 0.512896 0.006826
H38_6 H 0.481369 0.517242 0.0396108
H60_6 H 0.166413 0.437159 0.00139999
H62_6 H 0.19087 0.418477 0.00879994
Nb1_6 Nb 0.346544 0.479133 0.752713
C1_6 C 0.307940 0.483939 0.724737
C2_6 C 0.368395 0.448343 0.755701
C3_6 C 0.339686 0.470443 0.818038
C4_6 C 0.378254 0.514887 0.708640
C5_6 C 0.336349 0.453278 0.693440
C6_6 C 0.302646 0.431629 0.764102
C7_6 C 0.345945 0.521963 0.777759
C8_6 C 0.394901 0.508188 0.781275
N1_6 N 0.286700 0.485343 0.707877
N2_6 N 0.379949 0.431403 0.755929
N3_6 N 0.337877 0.467539 0.852441
N5_6 N 0.332085 0.439877 0.662570
N6_6 N 0.279662 0.406466 0.770978
N7_6 N 0.345300 0.544434 0.791163
N8_6 N 0.420595 0.522469 0.796310
Fe1_6 Fe 0.243732 0.477479 0.677766
Fe2_8 Fe 0.405903 0.405904 0.750000
Fe3_8 Fe 0.333333 0.465847 0.916667
N9_6 N 0.273659 0.498441 0.619690
N10_6 N 0.235556 0.428361 0.655628
N11_6 N 0.216056 0.455021 0.738157
N12_6 N 0.254347 0.527969 0.699209
N13_6 N 0.369995 0.372573 0.702187
N14_6 N 0.438664 0.443430 0.702910
N15_6 N 0.367760 0.447674 0.927789
N16_6 N 0.371408 0.518359 0.924466
C9_6 C 0.265729 0.513469 0.590464
C10_6 C 0.300723 0.495950 0.613789
C11_6 C 0.252246 0.414278 0.671595
C12_6 C 0.213739 0.411734 0.625693
C13_6 C 0.183776 0.437235 0.741388
C14_6 C 0.233086 0.459759 0.773499
C15_6 C 0.269190 0.539178 0.735349
C16_6 C 0.246458 0.546884 0.677127
C17_6 C 0.350654 0.381789 0.682883
C18_6 C 0.366746 0.343237 0.691561
C19_6 C 0.468211 0.446147 0.695343
C20_6 C 0.431113 0.463218 0.681903
C21_6 C 0.398792 0.465067 0.940671
C22_6 C 0.354454 0.414574 0.924311
C23_6 C 0.397646 0.533839 0.899615
C24_6 C 0.368033 0.535465 0.955332
C25_6 C 0.283418 0.526394 0.555065
C26_6 C 0.320100 0.508241 0.579048
C27_6 C 0.247538 0.384336 0.658329
C28_6 C 0.208268 0.382014 0.611585
C29_6 C 0.168514 0.424290 0.779326
C30_6 C 0.219870 0.447950 0.811000
C31_6 C 0.276227 0.569724 0.749647
C32_6 C 0.253220 0.577952 0.690699
C33_6 C 0.328084 0.362839 0.653277
C34_6 C 0.344893 0.323108 0.662470
C35_6 C 0.490689 0.468021 0.667394
C36_6 C 0.453122 0.485743 0.653295
C37_6 C 0.416751 0.449824 0.947534
C38_6 C 0.370439 0.398368 0.930477
C39_6 C 0.420537 0.565956 0.904971
C40_6 C 0.390135 0.567911 0.962612
O1_6 O 0.274749 0.541573 0.525819
C41_6 C 0.311108 0.523899 0.548879
O2_6 O 0.266707 0.374022 0.678162
C42_6 C 0.225100 0.367900 0.627710
O3_6 O 0.134667 0.405821 0.781146
C43_6 C 0.186601 0.429625 0.814344
O4_6 O 0.292661 0.580717 0.789973
C44_6 C 0.268226 0.589102 0.727311
O5_6 O 0.308950 0.373728 0.634612
C45_6 C 0.325266 0.332619 0.642933
O6_6 O 0.52029 0.46980 0.66089
C46_6 C 0.482997 0.488419 0.645720
O7_6 O 0.449878 0.470052 0.959947
C47_6 C 0.402693 0.416157 0.943049
O8_6 O 0.447227 0.580574 0.878111
C48_6 C 0.417165 0.583479 0.936505
C49_6 C 0.259591 0.345419 0.684887
C50_6 C 0.123245 0.382587 0.748461
C51_6 C 0.326616 0.592337 0.781769
C52_6 C 0.456359 0.477406 0.999241
C53_6 C 0.473983 0.577048 0.887021
O9_6 O 0.237896 0.320843 0.663295
C54_6 C 0.277699 0.339914 0.720358
O10_6 O 0.121459 0.355704 0.752784
C55_6 C 0.113236 0.391318 0.707799
O11_6 O 0.346171 0.596325 0.754286
C56_6 C 0.345864 0.604329 0.822271
O13_6 O 0.480180 0.572408 0.922191
C58_6 C 0.492341 0.580113 0.845536
Nb2_6 Nb 0.145799 0.465922 0.580621
C59_6 C 0.150605 0.509332 0.608597
C60_6 C 0.115009 0.413281 0.577633
C61_6 C 0.137109 0.464090 0.515296
C62_6 C 0.181553 0.469966 0.624694
C63_6 C 0.119944 0.450262 0.639894
C64_6 C 0.098295 0.462316 0.569232
C65_6 C 0.188629 0.509351 0.555575
C66_6 C 0.174854 0.446620 0.552059
N17_6 N 0.152009 0.531976 0.625457
N18_6 N 0.098069 0.384787 0.577405
N19_6 N 0.134205 0.462995 0.480893
N20_6 N 0.201602 0.471214 0.646794
N21_6 N 0.106543 0.441125 0.670764
N22_6 N 0.073132 0.460137 0.562356
N23_6 N 0.211100 0.532467 0.542171
N24_6 N 0.189135 0.435207 0.537024
N25_6 N 0.165107 0.558115 0.713644
N26_6 N 0.095027 0.526138 0.677706
N27_6 N 0.121687 0.572298 0.595177
N28_6 N 0.194635 0.606955 0.634125
C67_6 C 0.180135 0.581073 0.742870
C68_6 C 0.162616 0.528560 0.719545
C69_6 C 0.080944 0.495365 0.661739
C70_6 C 0.078400 0.531328 0.707641
C71_6 C 0.103901 0.586792 0.591946
C72_6 C 0.126425 0.560006 0.559835
C73_6 C 0.205844 0.603321 0.597985
C74_6 C 0.213550 0.633759 0.656207
C75_6 C 0.193060 0.576309 0.778269
C76_6 C 0.174907 0.521474 0.754286
C77_6 C 0.051002 0.470131 0.675005
C78_6 C 0.048680 0.507079 0.721749
C79_6 C 0.090956 0.589109 0.554008
C80_6 C 0.114616 0.561413 0.522334
C81_6 C 0.236390 0.626830 0.583687
C82_6 C 0.244618 0.658065 0.642635
O14_6 O 0.208239 0.600157 0.807515
C83_6 C 0.190565 0.546124 0.784455
O15_6 O 0.040688 0.440648 0.655172
C84_6 C 0.034566 0.476133 0.705624
O16_6 O 0.072487 0.604487 0.552188
C85_6 C 0.096291 0.576357 0.518990
O17_6 O 0.247383 0.621389 0.543361
C86_6 C 0.255768 0.654209 0.606023
C87_6 C 0.012085 0.419161 0.648447
C88_6 C 0.049253 0.592675 0.584873
C89_6 C 0.259003 0.599054 0.551565
C90_6 C 0.006580 0.395548 0.612976
O19_6 O 0.022370 0.567578 0.580550
C91_6 C 0.057984 0.611415 0.625535
O20_6 O 0.262991 0.583487 0.579048
C92_6 C 0.270995 0.591798 0.511063
N29_6 N 0.298906 0.413247 0.905545
C93_6 C 0.267874 0.399608 0.892663
C94_6 C 0.312212 0.393453 0.909023
C95_6 C 0.249915 0.366406 0.885800
C96_6 C 0.296227 0.361262 0.902857
O21_6 O 0.216788 0.353507 0.873387
C97_6 C 0.263973 0.346797 0.890285
C98_6 C 0.210307 0.354380 0.834093
O22_6 O 0.221163 0.343503 0.807782
C99_6 C 0.189688 0.369251 0.826508
N30_6 N 0.295258 0.480284 0.908868
C100_6 C 0.269020 0.469526 0.933719
C101_6 C 0.298633 0.500765 0.878002
C102_6 C 0.246129 0.478752 0.928363
C103_6 C 0.276531 0.511109 0.870722
O23_6 O 0.219439 0.466680 0.955223
C104_6 C 0.249501 0.499647 0.896829
C105_6 C 0.192683 0.436398 0.946313
O24_6 O 0.186486 0.425561 0.911143
C106_6 C 0.174325 0.421105 0.987798
N31_6 N 0.372573 0.369995 0.797813
C107_6 C 0.381789 0.350654 0.817117
C108_6 C 0.343237 0.366746 0.808439
C109_6 C 0.362839 0.328084 0.846723
C110_6 C 0.323108 0.344893 0.837530
O25_6 O 0.373728 0.308950 0.865388
C111_6 C 0.332619 0.325266 0.857067
N32_6 N 0.443430 0.438664 0.797090
C112_6 C 0.446147 0.468211 0.804657
C113_6 C 0.463218 0.431113 0.818097
C114_6 C 0.468021 0.490689 0.832606
C115_6 C 0.485743 0.453122 0.846705
O26_6 O 0.46980 0.52029 0.83911
C116_6 C 0.488419 0.482997 0.854280
N33_6 N 0.431403 0.379949 0.744071
N34_6 N 0.328789 0.462995 0.980893
Fe6_6 Fe 0.072570 0.333333 0.583333
Fe7_8 Fe 0.132513 0.465847 0.416667
H1_6 H 0.409871 0.49139 0.94574
H2_6 H 0.328647 0.400272 0.915793
H3_6 H 0.35288 0.405291 0.690957
H4_6 H 0.234389 0.537931 0.647634
H5_6 H 0.382188 0.335287 0.706814
H6_6 H 0.270061 0.427122 0.695839
H7_6 H 0.307579 0.483886 0.637083
H8_6 H 0.259749 0.47434 0.771633
H9_6 H 0.243895 0.515522 0.595161
H10_6 H 0.199949 0.422346 0.612228
H11_6 H 0.168669 0.432494 0.71414
H12_6 H 0.275833 0.524068 0.753785
H13_6 H 0.474705 0.430211 0.712203
H14_6 H 0.407563 0.46181 0.687093
H15_6 H 0.134161 0.413065 0.694852
H16_6 H 0.105204 0.370874 0.686509
H17_6 H 0.0932229 0.396226 0.713103
H18_6 H 0.220856 0.344248 0.616601
H19_6 H 0.190366 0.369501 0.587321
H20_6 H 0.174819 0.419594 0.843714
H21_6 H 0.307753 0.316971 0.61974
H22_6 H 0.38672 0.581062 0.987862
H23_6 H 0.400601 0.520245 0.874536
H24_6 H 0.346782 0.522952 0.975415
H25_6 H 0.516564 0.448188 0.651139
H26_6 H 0.273782 0.613124 0.738654
H27_6 H 0.4168 0.404019 0.949312
H28_6 H 0.27267 0.348741 0.748779
H29_6 H 0.269283 0.313806 0.723124
H30_6 H 0.304007 0.353284 0.714362
H31_6 H 0.343176 0.299729 0.654977
H32_6 H 0.446264 0.501506 0.636685
H33_6 H 0.323316 0.394879 0.62048
H34_6 H 0.336536 0.584078 0.844046
H35_6 H 0.371795 0.613265 0.816529
H36_6 H 0.342871 0.624122 0.834874
H37_6 H 0.46448 0.525562 0.995523
H39_6 H 0.500336 0.522132 0.990953
H40_6 H 0.246487 0.59288 0.672032
H41_6 H 0.274601 0.560821 0.538103
H42_6 H 0.341827 0.505886 0.575062
H43_6 H 0.325801 0.533818 0.521231
H44_6 H 0.23553 0.453026 0.83777
H45_6 H 0.435411 0.60924 0.941039
H46_6 H 0.500254 0.604079 0.831933
H47_6 H 0.513687 0.577442 0.851411
H48_6 H 0.475797 0.56094 0.824533
H49_6 H 0.499987 0.505953 0.623473
H50_6 H 0.358498 0.371932 0.925771
H51_6 H 0.279791 0.672675 0.59468
H52_6 H 0.182188 0.60496 0.738173
H53_6 H 0.119692 0.55083 0.495563
H54_6 H 0.290788 0.614583 0.498459
H55_6 H 0.279932 0.574804 0.516804
H56_6 H 0.250745 0.580876 0.489288
H57_6 H 0.231256 0.507162 0.892294
H58_6 H 0.0862607 0.578108 0.48962
H59_6 H 0.172552 0.497392 0.758272
H61_6 H 0.15298 0.397088 0.981923
H63_6 H 0.0628927 0.636336 0.62023
H64_6 H 0.0375404 0.599003 0.646824
H65_6 H 0.0797321 0.612238 0.638481
H66_6 H 0.308168 0.346767 0.907562
H67_6 H 0.405291 0.35288 0.809043
H68_6 H 0.0937883 0.490394 0.637494
H69_6 H 0.259547 0.679726 0.661301
H70_6 H 0.202186 0.394414 0.83781
H71_6 H 0.185298 0.369207 0.793723
H72_6 H 0.166331 0.355129 0.84238
H73_6 H 0.0109151 0.456726 0.716732
H74_6 H 0.0199508 0.382611 0.618972
H76_6 H 0.015408 0.409405 0.584554
H77_6 H 0.256795 0.414852 0.887593
H78_6 H 0.150552 0.50964 0.696251
H79_6 H 0.141007 0.547925 0.5617
H80_6 H 0.0890129 0.555731 0.721105
H81_6 H 0.192555 0.606705 0.818149
H82_6 H 0.200484 0.54135 0.812102
H83_6 H 0.249867 0.320553 0.884022
H84_6 H 0.319885 0.509503 0.857918
H85_6 H 0.279947 0.527676 0.845471
H86_6 H 0.0991603 0.597158 0.619194
H87_6 H 0.036168 0.512469 0.746013
H88_6 H 0.33802 0.404958 0.91754
H89_6 H 0.190734 0.581568 0.579549
H90_6 H 0.266065 0.452977 0.958798
H91_6 H 0.204597 0.636875 0.685699
H92_6 H 0.505953 0.499987 0.876527
H93_6 H 0.335287 0.382188 0.793186
H94_6 H 0.394879 0.323316 0.87952
H95_6 H 0.430211 0.474705 0.787797
H96_6 H 0.316971 0.307753 0.88026
H97_6 H 0.448188 0.516564 0.848861
H98_6 H 0.46181 0.407563 0.812907
H99_6 H 0.299729 0.343176 0.845023
H100_6 H 0.501506 0.446264 0.863315
O18_6 O 0.987509 0.416280 0.670039
H75_6 H 0.980472 0.377857 0.610209
C34_7 C 0.010226 0.688452 0.329136
C45_7 C 0.000715 0.659314 0.309599
O9_7 O 0.012491 0.583720 0.329961
C109_7 C 0.005249 0.701421 0.513390
O25_7 O 0.024383 0.731444 0.532055
C111_7 C 0.008067 0.674019 0.523734
Fe6_7 Fe 0.000000 0.405904 0.250000
H21_7 H 0.016362 0.657449 0.286406
H29_7 H 0.0195275 0.622143 0.389791
H31_7 H 0.0336046 0.710114 0.321644
H83_7 H 0.0127805 0.595981 0.550688
H94_7 H 0.0100174 0.738229 0.546186
H96_7 H 0.0255799 0.675885 0.546927
Nb1_7 Nb 0.854201 0.534078 0.419379
C1_7 C 0.849395 0.490668 0.391403
C2_7 C 0.884991 0.586719 0.422367
C3_7 C 0.862891 0.535910 0.484704
C4_7 C 0.818447 0.530034 0.375306
C5_7 C 0.880056 0.549738 0.360106
C6_7 C 0.901705 0.537684 0.430768
C7_7 C 0.811371 0.490649 0.444425
C8_7 C 0.825146 0.553380 0.447941
N1_7 N 0.847991 0.468024 0.374543
N2_7 N 0.901931 0.615213 0.422595
N3_7 N 0.865795 0.537005 0.519107
N4_5 N 0.798398 0.528786 0.353206
N5_7 N 0.893457 0.558875 0.329236
N6_7 N 0.926868 0.539863 0.437644
N7_7 N 0.788900 0.467533 0.457829
N8_7 N 0.810865 0.564793 0.462976
Fe1_7 Fe 0.855855 0.432920 0.344432
Fe2_9 Fe 0.927430 0.666666 0.416666
Fe3_9 Fe 0.867487 0.534153 0.583333
N9_7 N 0.834893 0.441885 0.286356
N10_7 N 0.904973 0.473862 0.322294
N11_7 N 0.878313 0.427702 0.404823
N12_7 N 0.805365 0.393045 0.365875
N13_7 N 0.960761 0.664089 0.368853
N14_7 N 0.889904 0.661901 0.369576
N15_7 N 0.885660 0.586753 0.594455
N16_7 N 0.814975 0.519716 0.591132
C9_7 C 0.819865 0.418927 0.257130
C10_7 C 0.837384 0.471440 0.280455
C11_7 C 0.919056 0.504635 0.338261
C12_7 C 0.921600 0.468672 0.292359
C13_7 C 0.896099 0.413208 0.408054
C14_7 C 0.873575 0.439994 0.440165
C15_7 C 0.794156 0.396679 0.402015
C16_7 C 0.786450 0.366241 0.343793
C17_7 C 0.951545 0.635532 0.349549
C18_7 C 0.990097 0.690176 0.358227
C19_7 C 0.887187 0.688731 0.362009
C20_7 C 0.870116 0.634562 0.348569
C21_7 C 0.868267 0.600392 0.607337
C22_7 C 0.918760 0.606547 0.590977
C23_7 C 0.799495 0.530474 0.566281
C24_7 C 0.797869 0.499235 0.621998
C25_7 C 0.806940 0.423691 0.221731
C26_7 C 0.825093 0.478526 0.245714
C27_7 C 0.948998 0.529869 0.324995
C28_7 C 0.951320 0.492921 0.278251
C29_7 C 0.909044 0.410891 0.445992
C30_7 C 0.885384 0.438587 0.477666
C31_7 C 0.763610 0.373170 0.416313
C32_7 C 0.755382 0.341935 0.357365
C33_7 C 0.970495 0.631912 0.319943
C35_7 C 0.865313 0.689335 0.334060
C36_7 C 0.847591 0.634046 0.319961
C37_7 C 0.883510 0.633594 0.614200
C38_7 C 0.934966 0.638738 0.597143
C39_7 C 0.767378 0.521248 0.571637
C40_7 C 0.765423 0.488891 0.629278
O1_7 O 0.791761 0.399843 0.192485
C41_7 C 0.809435 0.453876 0.215545
O2_7 O 0.959312 0.559352 0.344828
C42_7 C 0.965434 0.523867 0.294376
O3_7 O 0.927513 0.395513 0.447812
C43_7 C 0.903709 0.423643 0.481010
O4_7 O 0.752617 0.378611 0.456639
C44_7 C 0.744232 0.345791 0.393977
O5_7 O 0.959606 0.601889 0.301278
O6_7 O 0.86354 0.71716 0.32755
C46_7 C 0.844915 0.661245 0.312386
O7_7 O 0.863282 0.646493 0.626613
C47_7 C 0.917177 0.653203 0.609715
O8_7 O 0.752760 0.533320 0.544777
C48_7 C 0.749855 0.500353 0.603171
C49_7 C 0.987915 0.580839 0.351553
C50_7 C 0.950747 0.407325 0.415127
C51_7 C 0.740997 0.400946 0.448435
C52_7 C 0.855928 0.645620 0.665907
C53_7 C 0.756286 0.563602 0.553687
C54_7 C 0.993420 0.604452 0.387024
O10_7 O 0.977630 0.432422 0.419450
C55_7 C 0.942016 0.388585 0.374465
O11_7 O 0.737009 0.416513 0.420952
C56_7 C 0.729005 0.408202 0.488937
O12_7 O 0.877661 0.656497 0.692218
C57_7 C 0.820438 0.630749 0.673492
O13_7 O 0.760926 0.574439 0.588857
C58_7 C 0.753221 0.578895 0.512202
Nb2_7 Nb 0.867412 0.346544 0.247287
C59_7 C 0.824002 0.307940 0.275263
C60_7 C 0.920053 0.368395 0.244299
C61_7 C 0.869244 0.339686 0.181962
C62_7 C 0.863368 0.378254 0.291360
C63_7 C 0.883072 0.336349 0.306560
C64_7 C 0.871018 0.302646 0.235898
C65_7 C 0.823983 0.345945 0.222241
C66_7 C 0.886714 0.394901 0.218725
N17_7 N 0.801358 0.286700 0.292123
N18_7 N 0.948547 0.379949 0.244071
N19_7 N 0.870339 0.337877 0.147559
N20_7 N 0.862120 0.397055 0.313460
N21_7 N 0.892209 0.332085 0.337430
N22_7 N 0.873197 0.279662 0.229022
N23_7 N 0.800867 0.345300 0.208837
N24_7 N 0.898127 0.420595 0.203690
Fe4_3 Fe 0.766254 0.243732 0.322234
N25_7 N 0.775219 0.273659 0.380310
N26_7 N 0.807196 0.235556 0.344372
N27_7 N 0.761036 0.216056 0.261843
N28_7 N 0.726379 0.254347 0.300791
C67_7 C 0.752261 0.265729 0.409536
C68_7 C 0.804774 0.300723 0.386211
C69_7 C 0.837969 0.252246 0.328405
C70_7 C 0.802006 0.213739 0.374307
C71_7 C 0.746542 0.183776 0.258612
C72_7 C 0.773328 0.233086 0.226501
C73_7 C 0.730013 0.269190 0.264651
C74_7 C 0.699575 0.246458 0.322873
C75_7 C 0.757025 0.283418 0.444935
C76_7 C 0.811860 0.320100 0.420952
C77_7 C 0.863203 0.247538 0.341671
C78_7 C 0.826255 0.208268 0.388415
C79_7 C 0.744225 0.168514 0.220674
C80_7 C 0.771921 0.219870 0.189000
C81_7 C 0.706504 0.276227 0.250353
C82_7 C 0.675269 0.253220 0.309301
O14_7 O 0.733177 0.274749 0.474181
C83_7 C 0.787210 0.311108 0.451121
O15_7 O 0.892686 0.266707 0.321838
C84_7 C 0.857201 0.225100 0.372290
O16_7 O 0.728847 0.134667 0.218854
C85_7 C 0.756977 0.186601 0.185656
O17_7 O 0.711945 0.292661 0.210027
C86_7 C 0.679125 0.268226 0.272689
C87_7 C 0.914173 0.259591 0.315113
C88_7 C 0.740659 0.123245 0.251539
C89_7 C 0.734280 0.326616 0.218231
O18_7 O 0.917054 0.237896 0.336705
C90_7 C 0.937786 0.277699 0.279642
O19_7 O 0.765756 0.121459 0.247216
C91_7 C 0.721919 0.113236 0.292201
O20_7 O 0.749847 0.346171 0.245714
C92_7 C 0.741536 0.345864 0.177729
N29_7 N 0.920087 0.552326 0.572211
C93_7 C 0.933726 0.534933 0.559329
C94_7 C 0.939881 0.585426 0.575689
C95_7 C 0.966928 0.550176 0.552466
C96_7 C 0.972072 0.601632 0.569523
O21_7 O 0.979827 0.529948 0.540053
C97_7 C 0.986537 0.583843 0.556951
C98_7 C 0.978954 0.522594 0.500759
O22_7 O 0.989831 0.544327 0.474448
C99_7 C 0.964083 0.487104 0.493174
N30_7 N 0.853050 0.481641 0.575534
C100_7 C 0.863808 0.466161 0.600385
C101_7 C 0.832569 0.464535 0.544668
C102_7 C 0.854582 0.434044 0.595029
C103_7 C 0.822225 0.432089 0.537388
O23_7 O 0.866654 0.419426 0.621889
C104_7 C 0.833687 0.416521 0.563495
C105_7 C 0.896936 0.422952 0.612979
O24_7 O 0.907773 0.427592 0.577809
C106_7 C 0.912229 0.419887 0.654464
N31_7 N 0.963338 0.669244 0.464480
C107_7 C 0.982679 0.697801 0.483784
C108_7 C 0.966587 0.643157 0.475106
C110_7 C 0.988440 0.644881 0.504197
N32_7 N 0.894669 0.671432 0.463757
C112_7 C 0.865122 0.644602 0.471324
C113_7 C 0.902220 0.698771 0.484764
C114_7 C 0.842644 0.643998 0.499273
C115_7 C 0.880211 0.699287 0.513372
O26_7 O 0.81304 0.61617 0.50578
C116_7 C 0.850336 0.672088 0.520947
N33_7 N 0.953384 0.718120 0.410738
N34_7 N 0.870339 0.532461 0.647559
N35_3 N 0.730389 0.201602 0.353206
Fe5_5 Fe 0.756268 0.522521 0.322234
Fe6_8 Fe 1.000000 0.405904 0.250000
Fe7_9 Fe 0.867487 0.333333 0.083333
H1_7 H 0.841943 0.585148 0.612407
H2_7 H 0.933062 0.595042 0.58246
H3_7 H 0.928042 0.614255 0.357624
H4_7 H 0.795403 0.363125 0.314301
H5_7 H 0.998047 0.713568 0.373481
H6_7 H 0.906212 0.509606 0.362506
H7_7 H 0.849448 0.49036 0.303749
H8_7 H 0.858993 0.452075 0.4383
H9_7 H 0.817812 0.39504 0.261827
H10_7 H 0.910987 0.444269 0.278895
H11_7 H 0.90084 0.402842 0.380806
H12_7 H 0.809266 0.418432 0.420451
H13_7 H 0.903122 0.71116 0.37887
H14_7 H 0.871524 0.61242 0.35376
H15_7 H 0.920268 0.387762 0.361519
H16_7 H 0.96246 0.400997 0.353176
H17_7 H 0.937107 0.363664 0.37977
H18_7 H 0.989085 0.543274 0.283268
H19_7 H 0.963832 0.487531 0.253987
H20_7 H 0.913739 0.421892 0.51038
H22_7 H 0.752271 0.472324 0.654529
H23_7 H 0.813088 0.547023 0.541202
H24_7 H 0.810382 0.490497 0.642082
H25_7 H 0.885146 0.735043 0.317806
H26_7 H 0.720209 0.327325 0.40532
H27_7 H 0.929314 0.679447 0.615978
H28_7 H 0.984592 0.590595 0.415446
H30_7 H 0.980049 0.617389 0.381028
H32_7 H 0.831828 0.611425 0.303352
H33_7 H 0.938455 0.595104 0.287147
H34_7 H 0.749255 0.419124 0.510712
H35_7 H 0.720068 0.425196 0.483196
H36_7 H 0.709212 0.385417 0.501541
H37_7 H 0.807772 0.605586 0.66219
H38_7 H 0.816091 0.630793 0.706277
H39_7 H 0.811202 0.644871 0.65762
H40_7 H 0.740453 0.320274 0.338699
H41_7 H 0.772513 0.380447 0.20477
H42_7 H 0.827448 0.502608 0.241728
H43_7 H 0.799516 0.45865 0.187898
H44_7 H 0.880308 0.44917 0.504437
H45_7 H 0.724094 0.492838 0.607706
H46_7 H 0.729255 0.562841 0.4986
H47_7 H 0.755892 0.602912 0.518077
H48_7 H 0.772393 0.581523 0.4912
H49_7 H 0.82738 0.660701 0.290139
H50_7 H 0.961401 0.653233 0.592438
H51_7 H 0.660658 0.273782 0.261346
H52_7 H 0.728373 0.243895 0.404839
H53_7 H 0.782504 0.23553 0.16223
H54_7 H 0.71875 0.342871 0.165126
H55_7 H 0.75853 0.371795 0.183471
H56_7 H 0.752458 0.336536 0.155954
H57_7 H 0.826171 0.39076 0.558961
H58_7 H 0.755225 0.174819 0.156286
H59_7 H 0.835941 0.341827 0.424938
H60_7 H 0.896175 0.395921 0.668067
H61_7 H 0.936245 0.422558 0.648589
H62_7 H 0.914857 0.43906 0.675467
H63_7 H 0.696997 0.0932229 0.286897
H64_7 H 0.73433 0.105204 0.313491
H65_7 H 0.721095 0.134161 0.305148
H66_7 H 0.986566 0.628068 0.574229
H67_7 H 0.980454 0.719078 0.475709
H68_7 H 0.842939 0.270061 0.304161
H69_7 H 0.653607 0.246487 0.327968
H70_7 H 0.938919 0.474438 0.504477
H71_7 H 0.964126 0.482758 0.460389
H72_7 H 0.978204 0.477868 0.509047
H73_7 H 0.876607 0.220856 0.383399
H74_7 H 0.950722 0.304007 0.285638
H75_7 H 0.955477 0.269283 0.276876
H76_7 H 0.923928 0.27267 0.251221
H77_7 H 0.918481 0.50861 0.55426
H78_7 H 0.823694 0.307579 0.362917
H79_7 H 0.785408 0.259749 0.228367
H80_7 H 0.777603 0.199949 0.387772
H81_7 H 0.726629 0.252517 0.484815
H82_7 H 0.791983 0.325801 0.478769
H84_7 H 0.82383 0.477048 0.524585
H85_7 H 0.805658 0.418938 0.512138
H86_7 H 0.736176 0.168669 0.28586
H87_7 H 0.820865 0.190366 0.412679
H88_7 H 0.928375 0.599728 0.584207
H89_7 H 0.751766 0.275833 0.246215
H90_7 H 0.880357 0.479755 0.625464
H91_7 H 0.696458 0.234389 0.352366
H92_7 H 0.833346 0.672632 0.543194
H93_7 H 0.951145 0.619765 0.459853
H95_7 H 0.858628 0.622173 0.454464
H97_7 H 0.816769 0.59829 0.515528
H98_7 H 0.92577 0.720913 0.479574
H99_7 H 0.990157 0.623219 0.51169
H100_7 H 0.887069 0.721909 0.529982
Nb1_8 Nb 0.465922 0.320122 0.419379
C1_8 C 0.509332 0.358726 0.391403
C2_8 C 0.413281 0.298271 0.422367
C3_8 C 0.464090 0.326980 0.484704
C4_8 C 0.469966 0.288412 0.375306
C5_8 C 0.450262 0.330317 0.360106
C6_8 C 0.462316 0.364020 0.430768
C7_8 C 0.509351 0.320721 0.444425
C8_8 C 0.446620 0.271765 0.447941
N1_8 N 0.531976 0.379966 0.374543
N2_8 N 0.384787 0.286717 0.422595
N3_8 N 0.462995 0.328789 0.519107
N4_6 N 0.471214 0.269611 0.353206
N5_8 N 0.441125 0.334581 0.329236
N6_8 N 0.460137 0.387004 0.437644
N7_8 N 0.532467 0.321366 0.457829
N8_8 N 0.435207 0.246071 0.462976
Fe1_8 Fe 0.567080 0.422934 0.344432
Fe2_10 Fe 0.333334 0.260763 0.416666
Fe3_10 Fe 0.465847 0.333333 0.583333
N9_8 N 0.558115 0.393007 0.286356
N10_8 N 0.526138 0.431110 0.322294
N11_8 N 0.572298 0.450610 0.404823
N12_8 N 0.606955 0.412319 0.365875
N13_8 N 0.335911 0.296671 0.368853
N14_8 N 0.338099 0.228002 0.369576
N15_8 N 0.413247 0.298906 0.594455
N16_8 N 0.480284 0.295258 0.591132
C9_8 C 0.581073 0.400937 0.257130
C10_8 C 0.528560 0.365943 0.280455
C11_8 C 0.495365 0.414420 0.338261
C12_8 C 0.531328 0.452927 0.292359
C13_8 C 0.586792 0.482890 0.408054
C14_8 C 0.560006 0.433580 0.440165
C15_8 C 0.603321 0.397476 0.402015
C16_8 C 0.633759 0.420208 0.343793
C17_8 C 0.364468 0.316012 0.349549
C18_8 C 0.309824 0.299920 0.358227
C19_8 C 0.311269 0.198455 0.362009
C20_8 C 0.365438 0.235553 0.348569
C21_8 C 0.399608 0.267874 0.607337
C22_8 C 0.393453 0.312212 0.590977
C23_8 C 0.469526 0.269020 0.566281
C24_8 C 0.500765 0.298633 0.621998
C25_8 C 0.576309 0.383248 0.221731
C26_8 C 0.521474 0.346566 0.245714
C27_8 C 0.470131 0.419128 0.324995
C28_8 C 0.507079 0.458398 0.278251
C29_8 C 0.589109 0.498152 0.445992
C30_8 C 0.561413 0.446796 0.477666
C31_8 C 0.626830 0.390439 0.416313
C32_8 C 0.658065 0.413446 0.357365
C33_8 C 0.368088 0.338582 0.319943
C34_8 C 0.311548 0.321773 0.329136
C35_8 C 0.310665 0.175977 0.334060
C36_8 C 0.365954 0.213544 0.319961
C37_8 C 0.366406 0.249915 0.614200
C38_8 C 0.361262 0.296227 0.597143
C39_8 C 0.478752 0.246129 0.571637
C40_8 C 0.511109 0.276531 0.629278
O1_8 O 0.600157 0.391917 0.192485
C41_8 C 0.546124 0.355558 0.215545
O2_8 O 0.440648 0.399959 0.344828
C42_8 C 0.476133 0.441566 0.294376
O3_8 O 0.604487 0.531999 0.447812
C43_8 C 0.576357 0.480065 0.481010
O4_8 O 0.621389 0.374005 0.456639
C44_8 C 0.654209 0.398440 0.393977
O5_8 O 0.398111 0.357716 0.301278
C45_8 C 0.340686 0.341400 0.309599
O6_8 O 0.28284 0.14637 0.32755
C46_8 C 0.338755 0.183669 0.312386
O7_8 O 0.353507 0.216788 0.626613
C47_8 C 0.346797 0.263973 0.609715
O8_8 O 0.466680 0.219439 0.544777
C48_8 C 0.499647 0.249501 0.603171
C49_8 C 0.419161 0.407075 0.351553
C50_8 C 0.592675 0.543421 0.415127
C51_8 C 0.599054 0.340050 0.448435
C52_8 C 0.354380 0.210307 0.665907
C53_8 C 0.436398 0.192683 0.553687
O9_8 O 0.416280 0.428770 0.329961
C54_8 C 0.395548 0.388967 0.387024
O10_8 O 0.567578 0.545207 0.419450
C55_8 C 0.611415 0.553430 0.374465
O11_8 O 0.583487 0.320495 0.420952
C56_8 C 0.591798 0.320802 0.488937
O12_8 O 0.343503 0.221163 0.692218
C57_8 C 0.369251 0.189688 0.673492
O13_8 O 0.425561 0.186486 0.588857
C58_8 C 0.421105 0.174325 0.512202
Nb2_8 Nb 0.653456 0.520867 0.247287
C59_8 C 0.692060 0.516061 0.275263
C60_8 C 0.631605 0.551657 0.244299
C61_8 C 0.660314 0.529557 0.181962
C62_8 C 0.621746 0.485113 0.291360
C63_8 C 0.663651 0.546722 0.306560
C64_8 C 0.697354 0.568371 0.235898
C65_8 C 0.654055 0.478037 0.222241
C66_8 C 0.605099 0.491812 0.218725
N17_8 N 0.713300 0.514657 0.292123
N18_8 N 0.620051 0.568597 0.244071
N19_8 N 0.662123 0.532461 0.147559
N20_8 N 0.602945 0.465064 0.313460
N21_8 N 0.667915 0.560123 0.337430
N22_8 N 0.720338 0.593534 0.229022
N23_8 N 0.654700 0.455566 0.208837
N24_8 N 0.579405 0.477531 0.203690
N25_8 N 0.726341 0.501559 0.380310
N26_8 N 0.764444 0.571639 0.344372
N27_8 N 0.783944 0.544979 0.261843
N28_8 N 0.745653 0.472031 0.300791
C67_8 C 0.734271 0.486531 0.409536
C68_8 C 0.699277 0.504050 0.386211
C69_8 C 0.747754 0.585722 0.328405
C70_8 C 0.786261 0.588266 0.374307
C71_8 C 0.816224 0.562765 0.258612
C72_8 C 0.766914 0.540241 0.226501
C73_8 C 0.730810 0.460822 0.264651
C74_8 C 0.753542 0.453116 0.322873
C75_8 C 0.716582 0.473606 0.444935
C76_8 C 0.679900 0.491759 0.420952
C77_8 C 0.752462 0.615664 0.341671
C78_8 C 0.791732 0.617986 0.388415
C79_8 C 0.831486 0.575710 0.220674
C80_8 C 0.780130 0.552050 0.189000
C81_8 C 0.723773 0.430276 0.250353
C82_8 C 0.746780 0.422048 0.309301
O14_8 O 0.725251 0.458427 0.474181
C83_8 C 0.688892 0.476101 0.451121
O15_8 O 0.733293 0.625978 0.321838
C84_8 C 0.774900 0.632100 0.372290
O16_8 O 0.865333 0.594179 0.218854
C85_8 C 0.813399 0.570375 0.185656
O17_8 O 0.707339 0.419283 0.210027
C86_8 C 0.731774 0.410898 0.272689
C87_8 C 0.740409 0.654581 0.315113
C88_8 C 0.876755 0.617413 0.251539
C89_8 C 0.673384 0.407663 0.218231
O18_8 O 0.762104 0.679157 0.336705
C90_8 C 0.722301 0.660086 0.279642
O19_8 O 0.878541 0.644296 0.247216
C91_8 C 0.886764 0.608682 0.292201
O20_8 O 0.653829 0.403675 0.245714
C92_8 C 0.654136 0.395671 0.177729
N29_8 N 0.447674 0.367760 0.572211
C93_8 C 0.465067 0.398792 0.559329
C94_8 C 0.414574 0.354454 0.575689
C95_8 C 0.449824 0.416751 0.552466
C96_8 C 0.398368 0.370439 0.569523
O21_8 O 0.470052 0.449878 0.540053
C97_8 C 0.416157 0.402693 0.556951
C98_8 C 0.477406 0.456359 0.500759
O22_8 O 0.455673 0.445503 0.474448
C99_8 C 0.512896 0.476978 0.493174
N30_8 N 0.518359 0.371408 0.575534
C100_8 C 0.533839 0.397646 0.600385
C101_8 C 0.535465 0.368033 0.544668
C102_8 C 0.565956 0.420537 0.595029
C103_8 C 0.567911 0.390135 0.537388
O23_8 O 0.580574 0.447227 0.621889
C104_8 C 0.583479 0.417165 0.563495
C105_8 C 0.577048 0.473983 0.612979
O24_8 O 0.572408 0.480180 0.577809
C106_8 C 0.580113 0.492341 0.654464
N31_8 N 0.330756 0.294094 0.464480
C107_8 C 0.302199 0.284878 0.483784
C108_8 C 0.356843 0.323430 0.475106
C109_8 C 0.298579 0.303828 0.513390
C110_8 C 0.355119 0.343559 0.504197
O25_8 O 0.268556 0.292939 0.532055
C111_8 C 0.325981 0.334048 0.523734
N32_8 N 0.328568 0.223237 0.463757
C112_8 C 0.355398 0.220520 0.471324
C113_8 C 0.301229 0.203449 0.484764
C114_8 C 0.356002 0.198646 0.499273
C115_8 C 0.300713 0.180924 0.513372
O26_8 O 0.38383 0.19687 0.50578
C116_8 C 0.327912 0.178248 0.520947
N33_8 N 0.281880 0.235264 0.410738
N34_8 N 0.467539 0.337877 0.647559
Fe5_6 Fe 0.477479 0.233746 0.322234
Fe6_9 Fe 0.594096 0.594097 0.250000
Fe7_10 Fe 0.666667 0.534153 0.083333
H1_8 H 0.414852 0.256795 0.612407
H2_8 H 0.404958 0.33802 0.58246
H3_8 H 0.385745 0.313787 0.357624
H4_8 H 0.636875 0.432278 0.314301
H5_8 H 0.286432 0.284478 0.373481
H6_8 H 0.490394 0.396606 0.362506
H7_8 H 0.50964 0.359087 0.303749
H8_8 H 0.547925 0.406918 0.4383
H9_8 H 0.60496 0.422772 0.261827
H10_8 H 0.555731 0.466718 0.278895
H11_8 H 0.597158 0.497997 0.380806
H12_8 H 0.581568 0.390833 0.420451
H13_8 H 0.28884 0.191961 0.37887
H14_8 H 0.38758 0.259104 0.35376
H15_8 H 0.612238 0.532506 0.361519
H16_8 H 0.599003 0.561463 0.353176
H17_8 H 0.636336 0.573444 0.37977
H18_8 H 0.456726 0.445811 0.283268
H19_8 H 0.512469 0.476301 0.253987
H20_8 H 0.578108 0.491847 0.51038
H21_8 H 0.342551 0.358913 0.286406
H22_8 H 0.527676 0.279947 0.654529
H23_8 H 0.452977 0.266065 0.541202
H24_8 H 0.509503 0.319885 0.642082
H25_8 H 0.264957 0.150103 0.317806
H26_8 H 0.672675 0.392885 0.40532
H27_8 H 0.320553 0.249867 0.615978
H28_8 H 0.409405 0.393997 0.415446
H29_8 H 0.377857 0.397384 0.389791
H30_8 H 0.382611 0.36266 0.381028
H31_8 H 0.289886 0.32349 0.321644
H32_8 H 0.388575 0.220403 0.303352
H33_8 H 0.404896 0.343351 0.287147
H34_8 H 0.580876 0.330131 0.510712
H35_8 H 0.574804 0.294871 0.483196
H36_8 H 0.614583 0.323795 0.501541
H37_8 H 0.394414 0.202186 0.66219
H38_8 H 0.369207 0.185298 0.706277
H39_8 H 0.355129 0.166331 0.65762
H40_8 H 0.679726 0.420179 0.338699
H41_8 H 0.619553 0.392066 0.20477
H42_8 H 0.497392 0.32484 0.241728
H43_8 H 0.54135 0.340866 0.187898
H44_8 H 0.55083 0.431137 0.504437
H45_8 H 0.507162 0.231256 0.607706
H46_8 H 0.437159 0.166413 0.4986
H47_8 H 0.397088 0.15298 0.518077
H48_8 H 0.418477 0.19087 0.4912
H49_8 H 0.339299 0.166679 0.290139
H50_8 H 0.346767 0.308168 0.592438
H51_8 H 0.726218 0.386876 0.261346
H52_8 H 0.756105 0.484478 0.404839
H53_8 H 0.76447 0.546974 0.16223
H54_8 H 0.657129 0.375878 0.165126
H55_8 H 0.628205 0.386735 0.183471
H56_8 H 0.663464 0.415922 0.155954
H57_8 H 0.60924 0.435411 0.558961
H58_8 H 0.825181 0.580406 0.156286
H59_8 H 0.658173 0.494114 0.424938
H60_8 H 0.604079 0.500254 0.668067
H61_8 H 0.577442 0.513687 0.648589
H62_8 H 0.56094 0.475797 0.675467
H63_8 H 0.906777 0.603774 0.286897
H64_8 H 0.894796 0.629126 0.313491
H65_8 H 0.865839 0.586935 0.305148
H66_8 H 0.371932 0.358498 0.574229
H67_8 H 0.280922 0.261375 0.475709
H68_8 H 0.729939 0.572878 0.304161
H69_8 H 0.753513 0.40712 0.327968
H70_8 H 0.525562 0.46448 0.504477
H71_8 H 0.517242 0.481369 0.460389
H72_8 H 0.522132 0.500336 0.509047
H73_8 H 0.779144 0.655752 0.383399
H74_8 H 0.695993 0.646716 0.285638
H75_8 H 0.730717 0.686194 0.276876
H76_8 H 0.72733 0.651259 0.251221
H77_8 H 0.49139 0.409871 0.55426
H78_8 H 0.692421 0.516114 0.362917
H79_8 H 0.740251 0.52566 0.228367
H80_8 H 0.800051 0.577654 0.387772
H81_8 H 0.747483 0.474112 0.484815
H82_8 H 0.674199 0.466182 0.478769
H83_8 H 0.404019 0.4168 0.550688
H84_8 H 0.522952 0.346782 0.524585
H85_8 H 0.581062 0.38672 0.512138
H86_8 H 0.831331 0.567506 0.28586
H87_8 H 0.809634 0.630499 0.412679
H88_8 H 0.400272 0.328647 0.584207
H89_8 H 0.724167 0.475932 0.246215
H90_8 H 0.520245 0.400601 0.625464
H91_8 H 0.765611 0.462069 0.352366
H92_8 H 0.327368 0.160714 0.543194
H93_8 H 0.380235 0.33138 0.459853
H94_8 H 0.261771 0.271788 0.546186
H95_8 H 0.377827 0.236455 0.454464
H96_8 H 0.324115 0.349695 0.546927
H97_8 H 0.40171 0.218479 0.515528
H98_8 H 0.279087 0.204857 0.479574
H99_8 H 0.376781 0.366938 0.51169
H100_8 H 0.278091 0.165161 0.529982
Nb1_9 Nb 0.679878 0.145799 0.419379
C1_9 C 0.641274 0.150605 0.391403
C2_9 C 0.701729 0.115009 0.422367
C3_9 C 0.673020 0.137109 0.484704
C4_9 C 0.711588 0.181553 0.375306
C5_9 C 0.669683 0.119944 0.360106
C6_9 C 0.635980 0.098295 0.430768
C7_9 C 0.679279 0.188629 0.444425
C8_9 C 0.728235 0.174854 0.447941
N1_9 N 0.620034 0.152009 0.374543
N2_9 N 0.713283 0.098069 0.422595
N3_9 N 0.671211 0.134205 0.519107
N5_9 N 0.665419 0.106543 0.329236
N6_9 N 0.612996 0.073132 0.437644
N7_9 N 0.678634 0.211100 0.457829
N8_9 N 0.753929 0.189135 0.462976
Fe1_9 Fe 0.577066 0.144145 0.344432
Fe2_11 Fe 0.739237 0.072570 0.416666
Fe3_11 Fe 0.666667 0.132513 0.583333
N9_9 N 0.606993 0.165107 0.286356
N10_9 N 0.568890 0.095027 0.322294
N11_9 N 0.549390 0.121687 0.404823
N12_9 N 0.587681 0.194635 0.365875
N13_9 N 0.703329 0.039239 0.368853
N14_9 N 0.771998 0.110096 0.369576
N15_9 N 0.701094 0.114340 0.594455
N16_9 N 0.704742 0.185025 0.591132
C9_9 C 0.599063 0.180135 0.257130
C10_9 C 0.634057 0.162616 0.280455
C11_9 C 0.585580 0.080944 0.338261
C12_9 C 0.547073 0.078400 0.292359
C13_9 C 0.517110 0.103901 0.408054
C14_9 C 0.566420 0.126425 0.440165
C15_9 C 0.602524 0.205844 0.402015
C16_9 C 0.579792 0.213550 0.343793
C17_9 C 0.683988 0.048455 0.349549
C18_9 C 0.700080 0.009903 0.358227
C19_9 C 0.801545 0.112813 0.362009
C20_9 C 0.764447 0.129884 0.348569
C21_9 C 0.732126 0.131733 0.607337
C22_9 C 0.687788 0.081240 0.590977
C23_9 C 0.730980 0.200505 0.566281
C24_9 C 0.701367 0.202131 0.621998
C25_9 C 0.616752 0.193060 0.221731
C26_9 C 0.653434 0.174907 0.245714
C27_9 C 0.580872 0.051002 0.324995
C28_9 C 0.541602 0.048680 0.278251
C29_9 C 0.501848 0.090956 0.445992
C30_9 C 0.553204 0.114616 0.477666
C31_9 C 0.609561 0.236390 0.416313
C32_9 C 0.586554 0.244618 0.357365
C33_9 C 0.661418 0.029505 0.319943
C35_9 C 0.824023 0.134687 0.334060
C36_9 C 0.786456 0.152409 0.319961
C37_9 C 0.750085 0.116490 0.614200
C38_9 C 0.703773 0.065034 0.597143
C39_9 C 0.753871 0.232622 0.571637
C40_9 C 0.723469 0.234577 0.629278
O1_9 O 0.608083 0.208239 0.192485
C41_9 C 0.644442 0.190565 0.215545
O2_9 O 0.600041 0.040688 0.344828
C42_9 C 0.558434 0.034566 0.294376
O3_9 O 0.468001 0.072487 0.447812
C43_9 C 0.519935 0.096291 0.481010
O4_9 O 0.625995 0.247383 0.456639
C44_9 C 0.601560 0.255768 0.393977
O5_9 O 0.642284 0.040394 0.301278
O6_9 O 0.85363 0.13646 0.32755
C46_9 C 0.816331 0.155085 0.312386
O7_9 O 0.783212 0.136718 0.626613
C47_9 C 0.736027 0.082823 0.609715
O8_9 O 0.780561 0.247240 0.544777
C48_9 C 0.750499 0.250145 0.603171
C49_9 C 0.592925 0.012085 0.351553
C50_9 C 0.456579 0.049253 0.415127
C51_9 C 0.659950 0.259003 0.448435
C52_9 C 0.789693 0.144072 0.665907
C53_9 C 0.807317 0.243714 0.553687
C54_9 C 0.611033 0.006580 0.387024
O10_9 O 0.454793 0.022370 0.419450
C55_9 C 0.446570 0.057984 0.374465
O11_9 O 0.679505 0.262991 0.420952
C56_9 C 0.679198 0.270995 0.488937
O12_9 O 0.778837 0.122339 0.692218
C57_9 C 0.810312 0.179562 0.673492
O13_9 O 0.813514 0.239074 0.588857
C58_9 C 0.825675 0.246779 0.512202
Nb2_9 Nb 0.479133 0.132588 0.247287
C59_9 C 0.483939 0.175998 0.275263
C60_9 C 0.448343 0.079947 0.244299
C61_9 C 0.470443 0.130756 0.181962
C62_9 C 0.514887 0.136632 0.291360
C63_9 C 0.453278 0.116928 0.306560
C64_9 C 0.431629 0.128982 0.235898
C65_9 C 0.521963 0.176017 0.222241
C66_9 C 0.508188 0.113286 0.218725
N17_9 N 0.485343 0.198642 0.292123
N18_9 N 0.431403 0.051453 0.244071
N19_9 N 0.467539 0.129661 0.147559
N20_9 N 0.534936 0.137880 0.313460
N21_9 N 0.439877 0.107791 0.337430
N22_9 N 0.406466 0.126803 0.229022
N23_9 N 0.544434 0.199133 0.208837
N24_9 N 0.522469 0.101873 0.203690
N25_9 N 0.498441 0.224781 0.380310
N26_9 N 0.428361 0.192804 0.344372
N27_9 N 0.455021 0.238964 0.261843
N28_9 N 0.527969 0.273621 0.300791
C67_9 C 0.513469 0.247739 0.409536
C68_9 C 0.495950 0.195226 0.386211
C69_9 C 0.414278 0.162031 0.328405
C70_9 C 0.411734 0.197994 0.374307
C71_9 C 0.437235 0.253458 0.258612
C72_9 C 0.459759 0.226672 0.226501
C73_9 C 0.539178 0.269987 0.264651
C74_9 C 0.546884 0.300425 0.322873
C75_9 C 0.526394 0.242975 0.444935
C76_9 C 0.508241 0.188140 0.420952
C77_9 C 0.384336 0.136797 0.341671
C78_9 C 0.382014 0.173745 0.388415
C79_9 C 0.424290 0.255775 0.220674
C80_9 C 0.447950 0.228079 0.189000
C81_9 C 0.569724 0.293496 0.250353
C82_9 C 0.577952 0.324731 0.309301
O14_9 O 0.541573 0.266823 0.474181
C83_9 C 0.523899 0.212790 0.451121
O15_9 O 0.374022 0.107314 0.321838
C84_9 C 0.367900 0.142799 0.372290
O16_9 O 0.405821 0.271153 0.218854
C85_9 C 0.429625 0.243023 0.185656
O17_9 O 0.580717 0.288055 0.210027
C86_9 C 0.589102 0.320875 0.272689
C87_9 C 0.345419 0.085827 0.315113
C88_9 C 0.382587 0.259341 0.251539
C89_9 C 0.592337 0.265720 0.218231
O18_9 O 0.320843 0.082946 0.336705
C90_9 C 0.339914 0.062214 0.279642
O19_9 O 0.355704 0.234244 0.247216
C91_9 C 0.391318 0.278081 0.292201
O20_9 O 0.596325 0.250153 0.245714
C92_9 C 0.604329 0.258464 0.177729
N29_9 N 0.632240 0.079913 0.572211
C93_9 C 0.601208 0.066274 0.559329
C94_9 C 0.645546 0.060119 0.575689
C95_9 C 0.583249 0.033072 0.552466
C96_9 C 0.629561 0.027928 0.569523
O21_9 O 0.550122 0.020173 0.540053
C97_9 C 0.597307 0.013463 0.556951
C98_9 C 0.543641 0.021046 0.500759
O22_9 O 0.554497 0.010169 0.474448
C99_9 C 0.523022 0.035917 0.493174
N30_9 N 0.628592 0.146950 0.575534
C100_9 C 0.602354 0.136192 0.600385
C101_9 C 0.631967 0.167431 0.544668
C102_9 C 0.579463 0.145418 0.595029
C103_9 C 0.609865 0.177775 0.537388
O23_9 O 0.552773 0.133346 0.621889
C104_9 C 0.582835 0.166313 0.563495
C105_9 C 0.526017 0.103064 0.612979
O24_9 O 0.519820 0.092227 0.577809
C106_9 C 0.507659 0.087771 0.654464
N31_9 N 0.705906 0.036662 0.464480
C107_9 C 0.715122 0.017321 0.483784
C108_9 C 0.676570 0.033413 0.475106
C110_9 C 0.656441 0.011560 0.504197
N32_9 N 0.776763 0.105331 0.463757
C112_9 C 0.779480 0.134878 0.471324
C113_9 C 0.796551 0.097780 0.484764
C114_9 C 0.801354 0.157356 0.499273
C115_9 C 0.819076 0.119789 0.513372
O26_9 O 0.80313 0.18696 0.50578
C116_9 C 0.821752 0.149664 0.520947
N33_9 N 0.764736 0.046616 0.410738
N34_9 N 0.662123 0.129661 0.647559
Fe6_10 Fe 0.405903 -0.000000 0.250000
Fe7_11 Fe 0.465847 0.132513 0.083333
H1_9 H 0.743205 0.158057 0.612407
H2_9 H 0.66198 0.0669383 0.58246
H3_9 H 0.686213 0.0719579 0.357624
H4_9 H 0.567722 0.204597 0.314301
H5_9 H 0.715522 0.00195339 0.373481
H6_9 H 0.603394 0.0937883 0.362506
H7_9 H 0.640913 0.150552 0.303749
H8_9 H 0.593082 0.141007 0.4383
H9_9 H 0.577228 0.182188 0.261827
H10_9 H 0.533282 0.0890129 0.278895
H11_9 H 0.502003 0.0991603 0.380806
H12_9 H 0.609167 0.190734 0.420451
H13_9 H 0.808039 0.096878 0.37887
H14_9 H 0.740896 0.128476 0.35376
H15_9 H 0.467494 0.0797321 0.361519
H16_9 H 0.438537 0.0375404 0.353176
H17_9 H 0.426556 0.0628927 0.37977
H18_9 H 0.554189 0.0109151 0.283268
H19_9 H 0.523699 0.036168 0.253987
H20_9 H 0.508153 0.0862607 0.51038
H22_9 H 0.720053 0.247729 0.654529
H23_9 H 0.733935 0.186912 0.541202
H24_9 H 0.680115 0.189618 0.642082
H25_9 H 0.849897 0.114854 0.317806
H26_9 H 0.607115 0.279791 0.40532
H27_9 H 0.750133 0.0706862 0.615978
H28_9 H 0.606003 0.015408 0.415446
H30_9 H 0.63734 0.0199508 0.381028
H32_9 H 0.779597 0.168172 0.303352
H33_9 H 0.656649 0.0615453 0.287147
H34_9 H 0.669869 0.250745 0.510712
H35_9 H 0.705129 0.279932 0.483196
H36_9 H 0.676205 0.290788 0.501541
H37_9 H 0.797814 0.192228 0.66219
H38_9 H 0.814702 0.183909 0.706277
H39_9 H 0.833669 0.188798 0.65762
H40_9 H 0.579821 0.259547 0.338699
H41_9 H 0.607934 0.227487 0.20477
H42_9 H 0.67516 0.172552 0.241728
H43_9 H 0.659134 0.200484 0.187898
H44_9 H 0.568863 0.119692 0.504437
H45_9 H 0.768744 0.275906 0.607706
H46_9 H 0.833587 0.270745 0.4986
H47_9 H 0.84702 0.244108 0.518077
H48_9 H 0.80913 0.227607 0.4912
H49_9 H 0.833321 0.17262 0.290139
H50_9 H 0.691832 0.0385991 0.592438
H51_9 H 0.613124 0.339342 0.261346
H52_9 H 0.515522 0.271627 0.404839
H53_9 H 0.453026 0.217496 0.16223
H54_9 H 0.624122 0.28125 0.165126
H55_9 H 0.613265 0.24147 0.183471
H56_9 H 0.584078 0.247542 0.155954
H57_9 H 0.564589 0.173829 0.558961
H58_9 H 0.419594 0.244775 0.156286
H59_9 H 0.505886 0.164059 0.424938
H60_9 H 0.499746 0.103825 0.668067
H61_9 H 0.486313 0.0637546 0.648589
H62_9 H 0.524203 0.0851433 0.675467
H63_9 H 0.396226 0.303003 0.286897
H64_9 H 0.370874 0.26567 0.313491
H65_9 H 0.413065 0.278905 0.305148
H66_9 H 0.641502 0.0134341 0.574229
H67_9 H 0.738625 0.0195463 0.475709
H68_9 H 0.427122 0.157061 0.304161
H69_9 H 0.59288 0.346393 0.327968
H70_9 H 0.53552 0.0610811 0.504477
H71_9 H 0.518631 0.0358736 0.460389
H72_9 H 0.499664 0.0217959 0.509047
H73_9 H 0.344248 0.123393 0.383399
H74_9 H 0.353284 0.0492776 0.285638
H75_9 H 0.313806 0.0445233 0.276876
H76_9 H 0.348741 0.0760718 0.251221
H77_9 H 0.590129 0.0815189 0.55426
H78_9 H 0.483886 0.176306 0.362917
H79_9 H 0.47434 0.214592 0.228367
H80_9 H 0.422346 0.222397 0.387772
H81_9 H 0.525888 0.273371 0.484815
H82_9 H 0.533818 0.208017 0.478769
H84_9 H 0.653218 0.17617 0.524585
H85_9 H 0.61328 0.194342 0.512138
H86_9 H 0.432494 0.263824 0.28586
H87_9 H 0.369501 0.179135 0.412679
H88_9 H 0.671353 0.071625 0.584207
H89_9 H 0.524068 0.248234 0.246215
H90_9 H 0.599399 0.119643 0.625464
H91_9 H 0.537931 0.303542 0.352366
H92_9 H 0.839286 0.166654 0.543194
H93_9 H 0.66862 0.0488552 0.459853
H95_9 H 0.763545 0.141372 0.454464
H97_9 H 0.781521 0.183231 0.515528
H98_9 H 0.795143 0.0742298 0.479574
H99_9 H 0.633062 0.00984303 0.51169
H100_9 H 0.834839 0.112931 0.529982
C34_9 C 0.678227 0.989774 0.329136
C45_9 C 0.658600 0.999285 0.309599
O9_9 O 0.571230 0.987509 0.329961
C109_9 C 0.696172 0.994751 0.513390
O25_9 O 0.707061 0.975617 0.532055
C111_9 C 0.665952 0.991933 0.523734
Fe6_11 Fe 0.405903 1.000000 0.250000
H21_9 H 0.641087 0.983638 0.286406
H29_9 H 0.602616 0.980472 0.389791
H31_9 H 0.67651 0.966395 0.321644
H83_9 H 0.5832 0.987219 0.550688
H94_9 H 0.728212 0.989983 0.546186
H96_9 H 0.650305 0.97442 0.546927
Nb1_10 Nb 0.200745 0.187534 0.413954
C1_10 C 0.157335 0.182728 0.441930
C2_10 C 0.253386 0.218324 0.410966
C3_10 C 0.202577 0.196224 0.348629
C4_10 C 0.196701 0.151780 0.458027
C5_10 C 0.216405 0.213389 0.473227
C6_10 C 0.204351 0.235038 0.402565
C7_10 C 0.157316 0.144704 0.388908
C8_10 C 0.220047 0.158479 0.385392
N1_10 N 0.134691 0.181324 0.458790
N4_7 N 0.195453 0.131731 0.480127
N5_10 N 0.225542 0.226790 0.504097
N6_10 N 0.206530 0.260201 0.395689
N7_10 N 0.134200 0.122233 0.375504
N8_10 N 0.231460 0.144198 0.370357
Fe1_10 Fe 0.099587 0.189188 0.488901
N9_10 N 0.108552 0.168226 0.546977
N10_10 N 0.140529 0.238306 0.511039
N11_10 N 0.094369 0.211646 0.428510
N12_10 N 0.059712 0.138698 0.467458
C9_10 C 0.085594 0.153198 0.576203
C10_10 C 0.138107 0.170717 0.552878
C11_10 C 0.171302 0.252389 0.495072
C12_10 C 0.135339 0.254933 0.540974
C13_10 C 0.079875 0.229432 0.425279
C14_10 C 0.106661 0.206908 0.393168
C15_10 C 0.063346 0.127489 0.431318
C16_10 C 0.032908 0.119783 0.489540
C25_10 C 0.090358 0.140273 0.611602
C26_10 C 0.145193 0.158426 0.587619
C27_10 C 0.196536 0.282331 0.508338
C28_10 C 0.159588 0.284653 0.555082
C29_10 C 0.077558 0.242377 0.387341
C30_10 C 0.105254 0.218717 0.355667
C31_10 C 0.039837 0.096943 0.417020
C32_10 C 0.008602 0.088715 0.475968
O1_10 O 0.066510 0.125094 0.640848
C41_10 C 0.120543 0.142768 0.617788
O2_10 O 0.226019 0.292645 0.488505
C42_10 C 0.190534 0.298767 0.538957
O3_10 O 0.062180 0.260846 0.385521
C43_10 C 0.090310 0.237042 0.352323
O4_10 O 0.045278 0.085950 0.376694
C44_10 C 0.012458 0.077565 0.439356
C49_10 C 0.247506 0.321248 0.481780
C50_10 C 0.073992 0.284080 0.418206
C51_10 C 0.067613 0.074330 0.384898
O9_10 O 0.250387 0.345824 0.503372
C54_10 C 0.271119 0.326753 0.446309
O10_10 O 0.099089 0.310963 0.413883
C55_10 C 0.055252 0.275349 0.458868
O11_10 O 0.083180 0.070342 0.412381
C56_10 C 0.074869 0.062338 0.344396
Nb2_10 Nb 0.013211 0.200745 0.586046
C60_10 C 0.035062 0.253386 0.589034
C61_10 C 0.006353 0.202577 0.651371
C62_10 C 0.044921 0.196701 0.541973
C63_10 C 0.003016 0.216405 0.526773
C65_10 C 0.012612 0.157316 0.611092
C66_10 C 0.061568 0.220047 0.614608
N18_10 N 0.046616 0.281880 0.589262
N19_10 N 0.004544 0.203672 0.685774
N20_10 N 0.063722 0.195453 0.519873
N23_10 N 0.011967 0.134200 0.624496
N24_10 N 0.087262 0.231460 0.629643
O20_10 O 0.012838 0.083180 0.587619
C92_10 C 0.012531 0.074869 0.655604
Fe5_7 Fe 0.189188 0.089601 0.511099
H4_10 H 0.0297913 0.128736 0.519033
H6_10 H 0.176272 0.239545 0.470828
H7_10 H 0.157027 0.182781 0.529584
H8_10 H 0.118742 0.192326 0.395033
H9_10 H 0.0617066 0.151145 0.571506
H10_10 H 0.110936 0.24432 0.554438
H11_10 H 0.0695092 0.234173 0.452527
H12_10 H 0.085099 0.142599 0.412882
H15_10 H 0.0544286 0.253601 0.471814
H16_10 H 0.0676634 0.295793 0.480158
H17_10 H 0.0303302 0.270441 0.453564
H18_10 H 0.209941 0.322418 0.550066
H19_10 H 0.154198 0.297165 0.579346
H20_10 H 0.0885585 0.247073 0.322953
H28_10 H 0.257262 0.317925 0.417887
H29_10 H 0.28881 0.352861 0.443542
H30_10 H 0.284056 0.313383 0.452305
H34_10 H 0.085791 0.0825886 0.322621
H35_10 H 0.0918631 0.0534013 0.350137
H36_10 H 0.0520832 0.0425451 0.331793
H41_10 H 0.0471137 0.105846 0.628563
H42_10 H 0.169275 0.160781 0.591605
H43_10 H 0.125317 0.132849 0.645435
H44_10 H 0.115837 0.213641 0.328897
H54_10 H 0.00953808 0.0520832 0.668207
H55_10 H 0.0384619 0.0918631 0.649863
H56_10 H 0.00320235 0.085791 0.677379
H59_10 H 0.00849352 0.169275 0.408395
C59_10 C 0.974607 0.157335 0.558070
C64_10 C 0.969313 0.204351 0.597435
N17_10 N 0.953367 0.134691 0.541210
N21_10 N 0.998752 0.225542 0.495903
N22_10 N 0.946329 0.206530 0.604311
Fe4_4 Fe 0.910399 0.099587 0.511099
N25_10 N 0.940326 0.108552 0.453023
N26_10 N 0.902223 0.140529 0.488961
N27_10 N 0.882723 0.094369 0.571490
N28_10 N 0.921014 0.059712 0.532542
C67_10 C 0.932396 0.085594 0.423797
C68_10 C 0.967390 0.138107 0.447122
C69_10 C 0.918913 0.171302 0.504928
C70_10 C 0.880406 0.135339 0.459026
C71_10 C 0.850443 0.079875 0.574721
C72_10 C 0.899753 0.106661 0.606832
C73_10 C 0.935857 0.063346 0.568682
C74_10 C 0.913125 0.032908 0.510460
C75_10 C 0.950085 0.090358 0.388398
C76_10 C 0.986767 0.145193 0.412381
C77_10 C 0.914205 0.196536 0.491662
C78_10 C 0.874935 0.159588 0.444918
C79_10 C 0.835181 0.077558 0.612659
C80_10 C 0.886537 0.105254 0.644333
C81_10 C 0.942894 0.039837 0.582980
C82_10 C 0.919887 0.008602 0.524032
O14_10 O 0.941416 0.066510 0.359152
C83_10 C 0.977775 0.120543 0.382212
O15_10 O 0.933374 0.226019 0.511495
C84_10 C 0.891767 0.190534 0.461043
O16_10 O 0.801334 0.062180 0.614479
C85_10 C 0.853268 0.090310 0.647677
O17_10 O 0.959328 0.045278 0.623306
C86_10 C 0.934893 0.012458 0.560644
C87_10 C 0.926258 0.247506 0.518220
C88_10 C 0.789912 0.073992 0.581794
C89_10 C 0.993283 0.067613 0.615102
O18_10 O 0.904563 0.250387 0.496628
C90_10 C 0.944366 0.271119 0.553691
O19_10 O 0.788126 0.099089 0.586117
C91_10 C 0.779903 0.055252 0.541132
N35_4 N 0.868269 0.063722 0.480127
H26_10 H 0.993991 0.0535427 0.428013
H40_10 H 0.986941 0.0737867 0.494635
H52_10 H 0.910561 0.0617066 0.428494
H53_10 H 0.902196 0.115837 0.671103
H58_10 H 0.841486 0.0885585 0.677047
H63_10 H 0.75989 0.0303302 0.546436
H64_10 H 0.77187 0.0676634 0.519842
H65_10 H 0.800827 0.0544286 0.528186
H68_10 H 0.936727 0.176272 0.529172
H73_10 H 0.887522 0.209941 0.449934
H74_10 H 0.970673 0.284056 0.547695
H75_10 H 0.935949 0.28881 0.556458
H76_10 H 0.939336 0.257262 0.582113
H78_10 H 0.974246 0.157027 0.470416
H79_10 H 0.926415 0.118742 0.604967
H80_10 H 0.866616 0.110936 0.445562
H81_10 H 0.919184 0.0599619 0.348518
H82_10 H 0.992467 0.125317 0.354565
H86_10 H 0.835336 0.0695092 0.547473
H87_10 H 0.857033 0.154198 0.420654
H89_10 H 0.9425 0.085099 0.587118
H91_10 H 0.901055 0.0297913 0.480967
H51_10 H 0.940449 0.993991 0.571987
H69_10 H 0.913154 0.986941 0.505365
H51_11 H 0.00600869 0.946457 0.571987
H69_11 H 0.0130593 0.926213 0.505365
Nb1_11 Nb 0.812466 0.013211 0.413954
C2_11 C 0.781676 0.035062 0.410966
C3_11 C 0.803776 0.006353 0.348629
C4_11 C 0.848220 0.044921 0.458027
C5_11 C 0.786611 0.003016 0.473227
C7_11 C 0.855296 0.012612 0.388908
C8_11 C 0.841521 0.061568 0.385392
N7_11 N 0.877767 0.011967 0.375504
N8_11 N 0.855802 0.087262 0.370357
O11_11 O 0.929658 0.012838 0.412381
C56_11 C 0.937662 0.012531 0.344396
H34_11 H 0.917411 0.00320235 0.322621
H35_11 H 0.946599 0.0384619 0.350137
H36_11 H 0.957455 0.00953808 0.331793
H42_11 H 0.839219 0.00849352 0.591605
C1_11 C 0.817272 0.974607 0.441930
C6_11 C 0.764962 0.969313 0.402565
N1_11 N 0.818676 0.953367 0.458790
N5_11 N 0.773210 0.998752 0.504097
N6_11 N 0.739799 0.946329 0.395689
Fe1_11 Fe 0.810812 0.910399 0.488901
N9_11 N 0.831774 0.940326 0.546977
N10_11 N 0.761694 0.902223 0.511039
N11_11 N 0.788354 0.882723 0.428510
N12_11 N 0.861302 0.921014 0.467458
C9_11 C 0.846802 0.932396 0.576203
C10_11 C 0.829283 0.967390 0.552878
C11_11 C 0.747611 0.918913 0.495072
C12_11 C 0.745067 0.880406 0.540974
C13_11 C 0.770568 0.850443 0.425279
C14_11 C 0.793092 0.899753 0.393168
C15_11 C 0.872511 0.935857 0.431318
C16_11 C 0.880217 0.913125 0.489540
C25_11 C 0.859727 0.950085 0.611602
C26_11 C 0.841574 0.986767 0.587619
C27_11 C 0.717669 0.914205 0.508338
C28_11 C 0.715347 0.874935 0.555082
C29_11 C 0.757623 0.835181 0.387341
C30_11 C 0.781283 0.886537 0.355667
C31_11 C 0.903057 0.942894 0.417020
C32_11 C 0.911285 0.919887 0.475968
O1_11 O 0.874906 0.941416 0.640848
C41_11 C 0.857232 0.977775 0.617788
O2_11 O 0.707355 0.933374 0.488505
C42_11 C 0.701233 0.891767 0.538957
O3_11 O 0.739154 0.801334 0.385521
C43_11 C 0.762958 0.853268 0.352323
O4_11 O 0.914050 0.959328 0.376694
C44_11 C 0.922435 0.934893 0.439356
C49_11 C 0.678752 0.926258 0.481780
C50_11 C 0.715920 0.789912 0.418206
C51_11 C 0.925670 0.993283 0.384898
O9_11 O 0.654176 0.904563 0.503372
C54_11 C 0.673247 0.944366 0.446309
O10_11 O 0.689037 0.788126 0.413883
C55_11 C 0.724651 0.779903 0.458868
Nb2_11 Nb 0.799255 0.812466 0.586046
C59_11 C 0.842665 0.817272 0.558070
C60_11 C 0.746614 0.781676 0.589034
C61_11 C 0.797423 0.803776 0.651371
C62_11 C 0.803299 0.848220 0.541973
C63_11 C 0.783595 0.786611 0.526773
C64_11 C 0.795649 0.764962 0.597435
C65_11 C 0.842684 0.855296 0.611092
C66_11 C 0.779953 0.841521 0.614608
N17_11 N 0.865309 0.818676 0.541210
N18_11 N 0.718120 0.764736 0.589262
N19_11 N 0.796328 0.800872 0.685774
N20_11 N 0.804547 0.868269 0.519873
N21_11 N 0.774458 0.773210 0.495903
N22_11 N 0.793470 0.739799 0.604311
N23_11 N 0.865800 0.877767 0.624496
N24_11 N 0.768540 0.855802 0.629643
Fe4_5 Fe 0.900413 0.810812 0.511099
N25_11 N 0.891448 0.831774 0.453023
N26_11 N 0.859471 0.761694 0.488961
N27_11 N 0.905631 0.788354 0.571490
N28_11 N 0.940288 0.861302 0.532542
C67_11 C 0.914406 0.846802 0.423797
C68_11 C 0.861893 0.829283 0.447122
C69_11 C 0.828698 0.747611 0.504928
C70_11 C 0.864661 0.745067 0.459026
C71_11 C 0.920125 0.770568 0.574721
C72_11 C 0.893339 0.793092 0.606832
C73_11 C 0.936654 0.872511 0.568682
C74_11 C 0.967092 0.880217 0.510460
C75_11 C 0.909642 0.859727 0.388398
C76_11 C 0.854807 0.841574 0.412381
C77_11 C 0.803464 0.717669 0.491662
C78_11 C 0.840412 0.715347 0.444918
C79_11 C 0.922442 0.757623 0.612659
C80_11 C 0.894746 0.781283 0.644333
C81_11 C 0.960163 0.903057 0.582980
C82_11 C 0.991398 0.911285 0.524032
O14_11 O 0.933490 0.874906 0.359152
C83_11 C 0.879457 0.857232 0.382212
O15_11 O 0.773981 0.707355 0.511495
C84_11 C 0.809466 0.701233 0.461043
O16_11 O 0.937820 0.739154 0.614479
C85_11 C 0.909690 0.762958 0.647677
O17_11 O 0.954722 0.914050 0.623306
C86_11 C 0.987542 0.922435 0.560644
C87_11 C 0.752494 0.678752 0.518220
C88_11 C 0.926008 0.715920 0.581794
C89_11 C 0.932387 0.925670 0.615102
O18_11 O 0.749613 0.654176 0.496628
C90_11 C 0.728881 0.673247 0.553691
O19_11 O 0.900911 0.689037 0.586117
C91_11 C 0.944748 0.724651 0.541132
O20_11 O 0.916820 0.929658 0.587619
C92_11 C 0.925131 0.937662 0.655604
N35_5 N 0.936278 0.804547 0.480127
H4_11 H 0.871264 0.901055 0.519033
H6_11 H 0.760455 0.936727 0.470828
H7_11 H 0.817219 0.974246 0.529584
H8_11 H 0.807674 0.926415 0.395033
H9_11 H 0.848855 0.910561 0.571506
H10_11 H 0.75568 0.866616 0.554438
H11_11 H 0.765827 0.835336 0.452527
H12_11 H 0.857401 0.9425 0.412882
H15_11 H 0.746399 0.800827 0.471814
H16_11 H 0.704207 0.77187 0.480158
H17_11 H 0.729559 0.75989 0.453564
H18_11 H 0.677582 0.887522 0.550066
H19_11 H 0.702835 0.857033 0.579346
H20_11 H 0.752927 0.841486 0.322953
H26_11 H 0.946457 0.940449 0.428013
H28_11 H 0.682075 0.939336 0.417887
H29_11 H 0.647139 0.935949 0.443542
H30_11 H 0.686617 0.970673 0.452305
H40_11 H 0.926213 0.913154 0.494635
H41_11 H 0.894154 0.941268 0.628563
H43_11 H 0.867151 0.992467 0.645435
H44_11 H 0.786359 0.902196 0.328897
H52_11 H 0.938293 0.848855 0.428494
H53_11 H 0.884163 0.786359 0.671103
H54_11 H 0.947917 0.957455 0.668207
H55_11 H 0.908137 0.946599 0.649863
H56_11 H 0.914209 0.917411 0.677379
H58_11 H 0.911442 0.752927 0.677047
H59_11 H 0.830725 0.839219 0.408395
H63_11 H 0.96967 0.729559 0.546436
H64_11 H 0.932337 0.704207 0.519842
H65_11 H 0.945571 0.746399 0.528186
H68_11 H 0.823728 0.760455 0.529172
H73_11 H 0.790059 0.677582 0.449934
H74_11 H 0.715944 0.686617 0.547695
H75_11 H 0.71119 0.647139 0.556458
H76_11 H 0.742738 0.682075 0.582113
H78_11 H 0.842973 0.817219 0.470416
H79_11 H 0.881258 0.807674 0.604967
H80_11 H 0.889064 0.75568 0.445562
H81_11 H 0.940038 0.859222 0.348518
H82_11 H 0.874683 0.867151 0.354565
H86_11 H 0.930491 0.765827 0.547473
H87_11 H 0.845802 0.702835 0.420654
H89_11 H 0.914901 0.857401 0.587118
H91_11 H 0.970209 0.871264 0.480967
C59_12 C 0.182728 0.025393 0.558070
C64_12 C 0.235038 0.030687 0.597435
N17_12 N 0.181324 0.046633 0.541210
N21_12 N 0.226790 0.001248 0.495903
N22_12 N 0.260201 0.053671 0.604311
N25_12 N 0.168226 0.059674 0.453023
N26_12 N 0.238306 0.097777 0.488961
N27_12 N 0.211646 0.117277 0.571490
N28_12 N 0.138698 0.078986 0.532542
C67_12 C 0.153198 0.067604 0.423797
C68_12 C 0.170717 0.032610 0.447122
C69_12 C 0.252389 0.081087 0.504928
C70_12 C 0.254933 0.119594 0.459026
C71_12 C 0.229432 0.149557 0.574721
C72_12 C 0.206908 0.100247 0.606832
C73_12 C 0.127489 0.064143 0.568682
C74_12 C 0.119783 0.086875 0.510460
C75_12 C 0.140273 0.049915 0.388398
C76_12 C 0.158426 0.013233 0.412381
C77_12 C 0.282331 0.085795 0.491662
C78_12 C 0.284653 0.125065 0.444918
C79_12 C 0.242377 0.164819 0.612659
C80_12 C 0.218717 0.113463 0.644333
C81_12 C 0.096943 0.057106 0.582980
C82_12 C 0.088715 0.080113 0.524032
O14_12 O 0.125094 0.058584 0.359152
C83_12 C 0.142768 0.022225 0.382212
O15_12 O 0.292645 0.066626 0.511495
C84_12 C 0.298767 0.108233 0.461043
O16_12 O 0.260846 0.198666 0.614479
C85_12 C 0.237042 0.146732 0.647677
O17_12 O 0.085950 0.040672 0.623306
C86_12 C 0.077565 0.065107 0.560644
C87_12 C 0.321248 0.073742 0.518220
C88_12 C 0.284080 0.210088 0.581794
C89_12 C 0.074330 0.006717 0.615102
O18_12 O 0.345824 0.095437 0.496628
C90_12 C 0.326753 0.055634 0.553691
O19_12 O 0.310963 0.211874 0.586117
C91_12 C 0.275349 0.220097 0.541132
H26_12 H 0.0595514 0.00600869 0.428013
H40_12 H 0.086846 0.0130593 0.494635
H51_12 H 0.0535427 0.0595514 0.571987
H52_12 H 0.151145 0.0894385 0.428494
H53_12 H 0.213641 0.0978038 0.671103
H58_12 H 0.247073 0.158514 0.677047
H63_12 H 0.270441 0.24011 0.546436
H64_12 H 0.295793 0.22813 0.519842
H65_12 H 0.253601 0.199173 0.528186
H68_12 H 0.239545 0.0632727 0.529172
H69_12 H 0.0737867 0.086846 0.505365
H73_12 H 0.322418 0.112478 0.449934
H74_12 H 0.313383 0.0293268 0.547695
H75_12 H 0.352861 0.0640508 0.556458
H76_12 H 0.317925 0.0606638 0.582113
H78_12 H 0.182781 0.0257541 0.470416
H79_12 H 0.192326 0.0735846 0.604967
H80_12 H 0.24432 0.133384 0.445562
H81_12 H 0.140778 0.0808163 0.348518
H82_12 H 0.132849 0.00753259 0.354565
H86_12 H 0.234173 0.164664 0.547473
H87_12 H 0.297165 0.142967 0.420654
H89_12 H 0.142599 0.0575002 0.587118
H91_12 H 0.128736 0.0989448 0.480967
C1_12 C 0.025393 0.842665 0.441930
C6_12 C 0.030687 0.795649 0.402565
N1_12 N 0.046633 0.865309 0.458790
N5_12 N 0.001248 0.774458 0.504097
N6_12 N 0.053671 0.793470 0.395689
Fe1_12 Fe 0.089601 0.900413 0.488901
N9_12 N 0.059674 0.891448 0.546977
N10_12 N 0.097777 0.859471 0.511039
N11_12 N 0.117277 0.905631 0.428510
N12_12 N 0.078986 0.940288 0.467458
C9_12 C 0.067604 0.914406 0.576203
C10_12 C 0.032610 0.861893 0.552878
C11_12 C 0.081087 0.828698 0.495072
C12_12 C 0.119594 0.864661 0.540974
C13_12 C 0.149557 0.920125 0.425279
C14_12 C 0.100247 0.893339 0.393168
C15_12 C 0.064143 0.936654 0.431318
C16_12 C 0.086875 0.967092 0.489540
C25_12 C 0.049915 0.909642 0.611602
C26_12 C 0.013233 0.854807 0.587619
C27_12 C 0.085795 0.803464 0.508338
C28_12 C 0.125065 0.840412 0.555082
C29_12 C 0.164819 0.922442 0.387341
C30_12 C 0.113463 0.894746 0.355667
C31_12 C 0.057106 0.960163 0.417020
C32_12 C 0.080113 0.991398 0.475968
O1_12 O 0.058584 0.933490 0.640848
C41_12 C 0.022225 0.879457 0.617788
O2_12 O 0.066626 0.773981 0.488505
C42_12 C 0.108233 0.809466 0.538957
O3_12 O 0.198666 0.937820 0.385521
C43_12 C 0.146732 0.909690 0.352323
O4_12 O 0.040672 0.954722 0.376694
C44_12 C 0.065107 0.987542 0.439356
C49_12 C 0.073742 0.752494 0.481780
C50_12 C 0.210088 0.926008 0.418206
C51_12 C 0.006717 0.932387 0.384898
O9_12 O 0.095437 0.749613 0.503372
C54_12 C 0.055634 0.728881 0.446309
O10_12 O 0.211874 0.900911 0.413883
C55_12 C 0.220097 0.944748 0.458868
Nb2_12 Nb 0.187534 0.986789 0.586046
C60_12 C 0.218324 0.964938 0.589034
C61_12 C 0.196224 0.993647 0.651371
C62_12 C 0.151780 0.955079 0.541973
C63_12 C 0.213389 0.996984 0.526773
C65_12 C 0.144704 0.987388 0.611092
C66_12 C 0.158479 0.938432 0.614608
N18_12 N 0.235264 0.953384 0.589262
N19_12 N 0.199128 0.995456 0.685774
N20_12 N 0.131731 0.936278 0.519873
N23_12 N 0.122233 0.988033 0.624496
N24_12 N 0.144198 0.912738 0.629643
O20_12 O 0.070342 0.987162 0.587619
C92_12 C 0.062338 0.987469 0.655604
H4_12 H 0.0989448 0.970209 0.519033
H6_12 H 0.0632727 0.823728 0.470828
H7_12 H 0.0257541 0.842973 0.529584
H8_12 H 0.0735846 0.881258 0.395033
H9_12 H 0.0894385 0.938293 0.571506
H10_12 H 0.133384 0.889064 0.554438
H11_12 H 0.164664 0.930491 0.452527
H12_12 H 0.0575002 0.914901 0.412882
H15_12 H 0.199173 0.945571 0.471814
H16_12 H 0.22813 0.932337 0.480158
H17_12 H 0.24011 0.96967 0.453564
H18_12 H 0.112478 0.790059 0.550066
H19_12 H 0.142967 0.845802 0.579346
H20_12 H 0.158514 0.911442 0.322953
H28_12 H 0.0606638 0.742738 0.417887
H29_12 H 0.0640508 0.71119 0.443542
H30_12 H 0.0293268 0.715944 0.452305
H41_12 H 0.0587322 0.952886 0.628563
H43_12 H 0.00753259 0.874683 0.645435
H44_12 H 0.0978038 0.884163 0.328897
H54_12 H 0.0425451 0.990462 0.668207
H55_12 H 0.0534013 0.961538 0.649863
H56_12 H 0.0825886 0.996798 0.677379
H59_12 H 0.160781 0.991506 0.408395
Nb1_12 Nb 0.986789 0.799255 0.413954
C2_12 C 0.964938 0.746614 0.410966
C3_12 C 0.993647 0.797423 0.348629
C4_12 C 0.955079 0.803299 0.458027
C5_12 C 0.996984 0.783595 0.473227
C7_12 C 0.987388 0.842684 0.388908
C8_12 C 0.938432 0.779953 0.385392
N7_12 N 0.988033 0.865800 0.375504
N8_12 N 0.912738 0.768540 0.370357
O11_12 O 0.987162 0.916820 0.412381
C56_12 C 0.987469 0.925131 0.344396
H34_12 H 0.996798 0.914209 0.322621
H35_12 H 0.961538 0.908137 0.350137
H36_12 H 0.990462 0.947917 0.331793
H42_12 H 0.991506 0.830725 0.591605
N19_13 N 0.671211 0.537005 0.019107
H53_13 H 0.568863 0.44917 0.00443661
H54_13 H 0.676205 0.385417 0.00154059
H56_13 H 0.669869 0.419124 0.0107123
H58_13 H 0.508153 0.421892 0.0103802
Nb1_13 Nb 0.867412 0.520867 0.747287
C1_13 C 0.824002 0.516061 0.775263
C2_13 C 0.920053 0.551657 0.744299
C3_13 C 0.869244 0.529557 0.681962
C4_13 C 0.863368 0.485113 0.791360
C5_13 C 0.883072 0.546722 0.806560
C6_13 C 0.871018 0.568371 0.735898
C7_13 C 0.823983 0.478037 0.722241
C8_13 C 0.886714 0.491812 0.718725
N1_13 N 0.801358 0.514657 0.792123
N4_8 N 0.862120 0.465064 0.813460
N5_13 N 0.892209 0.560123 0.837430
N6_13 N 0.873197 0.593534 0.729022
N7_13 N 0.800867 0.455566 0.708837
N8_13 N 0.898127 0.477531 0.703690
Fe1_13 Fe 0.766254 0.522521 0.822234
N9_13 N 0.775219 0.501559 0.880310
N10_13 N 0.807196 0.571639 0.844372
N11_13 N 0.761036 0.544979 0.761843
N12_13 N 0.726379 0.472031 0.800791
C9_13 C 0.752261 0.486531 0.909536
C10_13 C 0.804774 0.504050 0.886211
C11_13 C 0.837969 0.585722 0.828405
C12_13 C 0.802006 0.588266 0.874307
C13_13 C 0.746542 0.562765 0.758612
C14_13 C 0.773328 0.540241 0.726501
C15_13 C 0.730013 0.460822 0.764651
C16_13 C 0.699575 0.453116 0.822873
C25_13 C 0.757025 0.473606 0.944935
C26_13 C 0.811860 0.491759 0.920952
C27_13 C 0.863203 0.615664 0.841671
C28_13 C 0.826255 0.617986 0.888415
C29_13 C 0.744225 0.575710 0.720674
C30_13 C 0.771921 0.552050 0.689000
C31_13 C 0.706504 0.430276 0.750353
C32_13 C 0.675269 0.422048 0.809301
O1_13 O 0.733177 0.458427 0.974181
C41_13 C 0.787210 0.476101 0.951121
O2_13 O 0.892686 0.625978 0.821838
C42_13 C 0.857201 0.632100 0.872290
O3_13 O 0.728847 0.594179 0.718854
C43_13 C 0.756977 0.570375 0.685656
O4_13 O 0.711945 0.419283 0.710027
C44_13 C 0.679125 0.410898 0.772689
C49_13 C 0.914173 0.654581 0.815113
C50_13 C 0.740659 0.617413 0.751539
C51_13 C 0.734280 0.407663 0.718231
O9_13 O 0.917054 0.679157 0.836705
C54_13 C 0.937786 0.660086 0.779642
O10_13 O 0.765756 0.644296 0.747216
C55_13 C 0.721919 0.608682 0.792201
O11_13 O 0.749847 0.403675 0.745714
C56_13 C 0.741536 0.395671 0.677729
Nb2_13 Nb 0.679878 0.534078 0.919379
C59_13 C 0.641274 0.490668 0.891403
C60_13 C 0.701729 0.586719 0.922367
C61_13 C 0.673020 0.535910 0.984704
C62_13 C 0.711588 0.530034 0.875306
C63_13 C 0.669683 0.549738 0.860106
C64_13 C 0.635980 0.537684 0.930768
C65_13 C 0.679279 0.490649 0.944425
C66_13 C 0.728235 0.553380 0.947941
N17_13 N 0.620034 0.468024 0.874543
N18_13 N 0.713283 0.615213 0.922595
N20_13 N 0.730389 0.528786 0.853206
N21_13 N 0.665419 0.558875 0.829236
N22_13 N 0.612996 0.539863 0.937644
N23_13 N 0.678634 0.467533 0.957829
N24_13 N 0.753929 0.564793 0.962976
Fe4_6 Fe 0.577066 0.432920 0.844432
N25_13 N 0.606993 0.441885 0.786356
N26_13 N 0.568890 0.473862 0.822294
N27_13 N 0.549390 0.427702 0.904823
N28_13 N 0.587681 0.393045 0.865875
C67_13 C 0.599063 0.418927 0.757130
C68_13 C 0.634057 0.471440 0.780455
C69_13 C 0.585580 0.504635 0.838261
C70_13 C 0.547073 0.468672 0.792359
C71_13 C 0.517110 0.413208 0.908054
C72_13 C 0.566420 0.439994 0.940165
C73_13 C 0.602524 0.396679 0.902015
C74_13 C 0.579792 0.366241 0.843793
C75_13 C 0.616752 0.423691 0.721731
C76_13 C 0.653434 0.478526 0.745714
C77_13 C 0.580872 0.529869 0.824995
C78_13 C 0.541602 0.492921 0.778251
C79_13 C 0.501848 0.410891 0.945992
C80_13 C 0.553204 0.438587 0.977666
C81_13 C 0.609561 0.373170 0.916313
C82_13 C 0.586554 0.341935 0.857365
O14_13 O 0.608083 0.399843 0.692485
C83_13 C 0.644442 0.453876 0.715545
O15_13 O 0.600041 0.559352 0.844828
C84_13 C 0.558434 0.523867 0.794376
O16_13 O 0.468001 0.395513 0.947812
C85_13 C 0.519935 0.423643 0.981010
O17_13 O 0.625995 0.378611 0.956639
C86_13 C 0.601560 0.345791 0.893977
C87_13 C 0.592925 0.580839 0.851553
C88_13 C 0.456579 0.407325 0.915127
C89_13 C 0.659950 0.400946 0.948435
O18_13 O 0.571230 0.583720 0.829961
C90_13 C 0.611033 0.604452 0.887024
O19_13 O 0.454793 0.432422 0.919450
C91_13 C 0.446570 0.388585 0.874465
O20_13 O 0.679505 0.416513 0.920952
C92_13 C 0.679198 0.408202 0.988937
N35_6 N 0.534936 0.397055 0.813460
Fe5_8 Fe 0.855855 0.422934 0.844432
H4_13 H 0.696458 0.462069 0.852366
H6_13 H 0.842939 0.572878 0.804161
H7_13 H 0.823694 0.516114 0.862917
H8_13 H 0.785408 0.52566 0.728367
H9_13 H 0.728373 0.484478 0.904839
H10_13 H 0.777603 0.577654 0.887772
H11_13 H 0.736176 0.567506 0.78586
H12_13 H 0.751766 0.475932 0.746215
H15_13 H 0.721095 0.586935 0.805148
H16_13 H 0.73433 0.629126 0.813491
H17_13 H 0.696997 0.603774 0.786897
H18_13 H 0.876607 0.655752 0.883399
H19_13 H 0.820865 0.630499 0.912679
H20_13 H 0.755225 0.580406 0.656286
H26_13 H 0.660658 0.386876 0.761346
H28_13 H 0.923928 0.651259 0.751221
H29_13 H 0.955477 0.686194 0.776876
H30_13 H 0.950722 0.646716 0.785638
H34_13 H 0.752458 0.415922 0.655954
H35_13 H 0.75853 0.386735 0.683471
H36_13 H 0.71875 0.375878 0.665126
H40_13 H 0.653607 0.40712 0.827968
H41_13 H 0.71378 0.439179 0.961897
H42_13 H 0.835941 0.494114 0.924938
H43_13 H 0.791983 0.466182 0.978769
H44_13 H 0.782504 0.546974 0.66223
H51_13 H 0.607115 0.327325 0.90532
H52_13 H 0.577228 0.39504 0.761827
H55_13 H 0.705129 0.425196 0.983196
H59_13 H 0.67516 0.502608 0.741728
H63_13 H 0.426556 0.363664 0.87977
H64_13 H 0.438537 0.400997 0.853176
H65_13 H 0.467494 0.387762 0.861519
H68_13 H 0.603394 0.509606 0.862506
H69_13 H 0.579821 0.320274 0.838699
H73_13 H 0.554189 0.543274 0.783268
H74_13 H 0.63734 0.617389 0.881028
H75_13 H 0.602616 0.622143 0.889791
H76_13 H 0.606003 0.590595 0.915446
H78_13 H 0.640913 0.49036 0.803749
H79_13 H 0.593082 0.452075 0.9383
H80_13 H 0.533282 0.444269 0.778895
H81_13 H 0.58585 0.393295 0.681851
H82_13 H 0.659134 0.45865 0.687898
H86_13 H 0.502003 0.402842 0.880806
H87_13 H 0.523699 0.487531 0.753987
H89_13 H 0.609167 0.418432 0.920451
H91_13 H 0.567722 0.363125 0.814301
N19_14 N 0.462995 0.134205 0.019107
H53_14 H 0.55083 0.119692 0.00443661
H54_14 H 0.614583 0.290788 0.00154059
H56_14 H 0.580876 0.250745 0.0107123
H58_14 H 0.578108 0.0862607 0.0103802
Nb1_14 Nb 0.479133 0.346544 0.747287
C1_14 C 0.483939 0.307940 0.775263
C2_14 C 0.448343 0.368395 0.744299
C3_14 C 0.470443 0.339686 0.681962
C4_14 C 0.514887 0.378254 0.791360
C5_14 C 0.453278 0.336349 0.806560
C6_14 C 0.431629 0.302646 0.735898
C7_14 C 0.521963 0.345945 0.722241
C8_14 C 0.508188 0.394901 0.718725
N1_14 N 0.485343 0.286700 0.792123
N5_14 N 0.439877 0.332085 0.837430
N6_14 N 0.406466 0.279662 0.729022
N7_14 N 0.544434 0.345300 0.708837
N8_14 N 0.522469 0.420595 0.703690
Fe1_14 Fe 0.477479 0.243732 0.822234
N9_14 N 0.498441 0.273659 0.880310
N10_14 N 0.428361 0.235556 0.844372
N11_14 N 0.455021 0.216056 0.761843
N12_14 N 0.527969 0.254347 0.800791
C9_14 C 0.513469 0.265729 0.909536
C10_14 C 0.495950 0.300723 0.886211
C11_14 C 0.414278 0.252246 0.828405
C12_14 C 0.411734 0.213739 0.874307
C13_14 C 0.437235 0.183776 0.758612
C14_14 C 0.459759 0.233086 0.726501
C15_14 C 0.539178 0.269190 0.764651
C16_14 C 0.546884 0.246458 0.822873
C25_14 C 0.526394 0.283418 0.944935
C26_14 C 0.508241 0.320100 0.920952
C27_14 C 0.384336 0.247538 0.841671
C28_14 C 0.382014 0.208268 0.888415
C29_14 C 0.424290 0.168514 0.720674
C30_14 C 0.447950 0.219870 0.689000
C31_14 C 0.569724 0.276227 0.750353
C32_14 C 0.577952 0.253220 0.809301
O1_14 O 0.541573 0.274749 0.974181
C41_14 C 0.523899 0.311108 0.951121
O2_14 O 0.374022 0.266707 0.821838
C42_14 C 0.367900 0.225100 0.872290
O3_14 O 0.405821 0.134667 0.718854
C43_14 C 0.429625 0.186601 0.685656
O4_14 O 0.580717 0.292661 0.710027
C44_14 C 0.589102 0.268226 0.772689
C49_14 C 0.345419 0.259591 0.815113
C50_14 C 0.382587 0.123245 0.751539
C51_14 C 0.592337 0.326616 0.718231
O9_14 O 0.320843 0.237896 0.836705
C54_14 C 0.339914 0.277699 0.779642
O10_14 O 0.355704 0.121459 0.747216
C55_14 C 0.391318 0.113236 0.792201
O11_14 O 0.596325 0.346171 0.745714
C56_14 C 0.604329 0.345864 0.677729
Nb2_14 Nb 0.465922 0.145799 0.919379
C59_14 C 0.509332 0.150605 0.891403
C60_14 C 0.413281 0.115009 0.922367
C61_14 C 0.464090 0.137109 0.984704
C62_14 C 0.469966 0.181553 0.875306
C63_14 C 0.450262 0.119944 0.860106
C64_14 C 0.462316 0.098295 0.930768
C65_14 C 0.509351 0.188629 0.944425
C66_14 C 0.446620 0.174854 0.947941
N17_14 N 0.531976 0.152009 0.874543
N18_14 N 0.384787 0.098069 0.922595
N20_14 N 0.471214 0.201602 0.853206
N21_14 N 0.441125 0.106543 0.829236
N22_14 N 0.460137 0.073132 0.937644
N23_14 N 0.532467 0.211100 0.957829
N24_14 N 0.435207 0.189135 0.962976
Fe4_7 Fe 0.567080 0.144145 0.844432
N25_14 N 0.558115 0.165107 0.786356
N26_14 N 0.526138 0.095027 0.822294
N27_14 N 0.572298 0.121687 0.904823
N28_14 N 0.606955 0.194635 0.865875
C67_14 C 0.581073 0.180135 0.757130
C68_14 C 0.528560 0.162616 0.780455
C69_14 C 0.495365 0.080944 0.838261
C70_14 C 0.531328 0.078400 0.792359
C71_14 C 0.586792 0.103901 0.908054
C72_14 C 0.560006 0.126425 0.940165
C73_14 C 0.603321 0.205844 0.902015
C74_14 C 0.633759 0.213550 0.843793
C75_14 C 0.576309 0.193060 0.721731
C76_14 C 0.521474 0.174907 0.745714
C77_14 C 0.470131 0.051002 0.824995
C78_14 C 0.507079 0.048680 0.778251
C79_14 C 0.589109 0.090956 0.945992
C80_14 C 0.561413 0.114616 0.977666
C81_14 C 0.626830 0.236390 0.916313
C82_14 C 0.658065 0.244618 0.857365
O14_14 O 0.600157 0.208239 0.692485
C83_14 C 0.546124 0.190565 0.715545
O15_14 O 0.440648 0.040688 0.844828
C84_14 C 0.476133 0.034566 0.794376
O16_14 O 0.604487 0.072487 0.947812
C85_14 C 0.576357 0.096291 0.981010
O17_14 O 0.621389 0.247383 0.956639
C86_14 C 0.654209 0.255768 0.893977
C87_14 C 0.419161 0.012085 0.851553
C88_14 C 0.592675 0.049253 0.915127
C89_14 C 0.599054 0.259003 0.948435
C90_14 C 0.395548 0.006580 0.887024
O19_14 O 0.567578 0.022370 0.919450
C91_14 C 0.611415 0.057984 0.874465
O20_14 O 0.583487 0.262991 0.920952
C92_14 C 0.591798 0.270995 0.988937
N35_7 N 0.602945 0.137880 0.813460
H4_14 H 0.537931 0.234389 0.852366
H6_14 H 0.427122 0.270061 0.804161
H7_14 H 0.483886 0.307579 0.862917
H8_14 H 0.47434 0.259749 0.728367
H9_14 H 0.515522 0.243895 0.904839
H10_14 H 0.422346 0.199949 0.887772
H11_14 H 0.432494 0.168669 0.78586
H12_14 H 0.524068 0.275833 0.746215
H15_14 H 0.413065 0.134161 0.805148
H16_14 H 0.370874 0.105204 0.813491
H17_14 H 0.396226 0.0932229 0.786897
H18_14 H 0.344248 0.220856 0.883399
H19_14 H 0.369501 0.190366 0.912679
H20_14 H 0.419594 0.174819 0.656286
H26_14 H 0.613124 0.273782 0.761346
H28_14 H 0.348741 0.27267 0.751221
H29_14 H 0.313806 0.269283 0.776876
H30_14 H 0.353284 0.304007 0.785638
H34_14 H 0.584078 0.336536 0.655954
H35_14 H 0.613265 0.371795 0.683471
H36_14 H 0.624122 0.342871 0.665126
H40_14 H 0.59288 0.246487 0.827968
H41_14 H 0.560821 0.274601 0.961897
H42_14 H 0.505886 0.341827 0.924938
H43_14 H 0.533818 0.325801 0.978769
H44_14 H 0.453026 0.23553 0.66223
H51_14 H 0.672675 0.279791 0.90532
H52_14 H 0.60496 0.182188 0.761827
H55_14 H 0.574804 0.279932 0.983196
H59_14 H 0.497392 0.172552 0.741728
H63_14 H 0.636336 0.0628927 0.87977
H64_14 H 0.599003 0.0375404 0.853176
H65_14 H 0.612238 0.0797321 0.861519
H68_14 H 0.490394 0.0937883 0.862506
H69_14 H 0.679726 0.259547 0.838699
H73_14 H 0.456726 0.0109151 0.783268
H74_14 H 0.382611 0.0199508 0.881028
H76_14 H 0.409405 0.015408 0.915446
H78_14 H 0.50964 0.150552 0.803749
H79_14 H 0.547925 0.141007 0.9383
H80_14 H 0.555731 0.0890129 0.778895
H81_14 H 0.606705 0.192555 0.681851
H82_14 H 0.54135 0.200484 0.687898
H86_14 H 0.597158 0.0991603 0.880806
H87_14 H 0.512469 0.036168 0.753987
H89_14 H 0.581568 0.190734 0.920451
H91_14 H 0.636875 0.204597 0.814301
O18_14 O 0.416280 0.987509 0.829961
H75_14 H 0.377857 0.980472 0.889791
O18_15 O 0.012491 0.428770 0.829961
H75_15 H 0.0195275 0.397384 0.889791
N19_15 N 0.865795 0.328789 0.019107
H53_15 H 0.880308 0.431137 0.00443661
H54_15 H 0.709212 0.323795 0.00154059
H56_15 H 0.749255 0.330131 0.0107123
H58_15 H 0.913739 0.491847 0.0103802
Nb1_15 Nb 0.653456 0.132588 0.747287
C1_15 C 0.692060 0.175998 0.775263
C2_15 C 0.631605 0.079947 0.744299
C3_15 C 0.660314 0.130756 0.681962
C4_15 C 0.621746 0.136632 0.791360
C5_15 C 0.663651 0.116928 0.806560
C6_15 C 0.697354 0.128982 0.735898
C7_15 C 0.654055 0.176017 0.722241
C8_15 C 0.605099 0.113286 0.718725
N1_15 N 0.713300 0.198642 0.792123
N5_15 N 0.667915 0.107791 0.837430
N6_15 N 0.720338 0.126803 0.729022
N7_15 N 0.654700 0.199133 0.708837
N8_15 N 0.579405 0.101873 0.703690
Fe1_15 Fe 0.756268 0.233746 0.822234
N9_15 N 0.726341 0.224781 0.880310
N10_15 N 0.764444 0.192804 0.844372
N11_15 N 0.783944 0.238964 0.761843
N12_15 N 0.745653 0.273621 0.800791
C9_15 C 0.734271 0.247739 0.909536
C10_15 C 0.699277 0.195226 0.886211
C11_15 C 0.747754 0.162031 0.828405
C12_15 C 0.786261 0.197994 0.874307
C13_15 C 0.816224 0.253458 0.758612
C14_15 C 0.766914 0.226672 0.726501
C15_15 C 0.730810 0.269987 0.764651
C16_15 C 0.753542 0.300425 0.822873
C25_15 C 0.716582 0.242975 0.944935
C26_15 C 0.679900 0.188140 0.920952
C27_15 C 0.752462 0.136797 0.841671
C28_15 C 0.791732 0.173745 0.888415
C29_15 C 0.831486 0.255775 0.720674
C30_15 C 0.780130 0.228079 0.689000
C31_15 C 0.723773 0.293496 0.750353
C32_15 C 0.746780 0.324731 0.809301
O1_15 O 0.725251 0.266823 0.974181
C41_15 C 0.688892 0.212790 0.951121
O2_15 O 0.733293 0.107314 0.821838
C42_15 C 0.774900 0.142799 0.872290
O3_15 O 0.865333 0.271153 0.718854
C43_15 C 0.813399 0.243023 0.685656
O4_15 O 0.707339 0.288055 0.710027
C44_15 C 0.731774 0.320875 0.772689
C49_15 C 0.740409 0.085827 0.815113
C50_15 C 0.876755 0.259341 0.751539
C51_15 C 0.673384 0.265720 0.718231
O9_15 O 0.762104 0.082946 0.836705
C54_15 C 0.722301 0.062214 0.779642
O10_15 O 0.878541 0.234244 0.747216
C55_15 C 0.886764 0.278081 0.792201
O11_15 O 0.653829 0.250153 0.745714
C56_15 C 0.654136 0.258464 0.677729
Nb2_15 Nb 0.854201 0.320122 0.919379
C59_15 C 0.849395 0.358726 0.891403
C60_15 C 0.884991 0.298271 0.922367
C61_15 C 0.862891 0.326980 0.984704
C62_15 C 0.818447 0.288412 0.875306
C63_15 C 0.880056 0.330317 0.860106
C64_15 C 0.901705 0.364020 0.930768
C65_15 C 0.811371 0.320721 0.944425
C66_15 C 0.825146 0.271765 0.947941
N17_15 N 0.847991 0.379966 0.874543
N18_15 N 0.901931 0.286717 0.922595
N20_15 N 0.798398 0.269611 0.853206
N21_15 N 0.893457 0.334581 0.829236
N22_15 N 0.926868 0.387004 0.937644
N23_15 N 0.788900 0.321366 0.957829
N24_15 N 0.810865 0.246071 0.962976
N25_15 N 0.834893 0.393007 0.786356
N26_15 N 0.904973 0.431110 0.822294
N27_15 N 0.878313 0.450610 0.904823
N28_15 N 0.805365 0.412319 0.865875
C67_15 C 0.819865 0.400937 0.757130
C68_15 C 0.837384 0.365943 0.780455
C69_15 C 0.919056 0.414420 0.838261
C70_15 C 0.921600 0.452927 0.792359
C71_15 C 0.896099 0.482890 0.908054
C72_15 C 0.873575 0.433580 0.940165
C73_15 C 0.794156 0.397476 0.902015
C74_15 C 0.786450 0.420208 0.843793
C75_15 C 0.806940 0.383248 0.721731
C76_15 C 0.825093 0.346566 0.745714
C77_15 C 0.948998 0.419128 0.824995
C78_15 C 0.951320 0.458398 0.778251
C79_15 C 0.909044 0.498152 0.945992
C80_15 C 0.885384 0.446796 0.977666
C81_15 C 0.763610 0.390439 0.916313
C82_15 C 0.755382 0.413446 0.857365
O14_15 O 0.791761 0.391917 0.692485
C83_15 C 0.809435 0.355558 0.715545
O15_15 O 0.959312 0.399959 0.844828
C84_15 C 0.965434 0.441566 0.794376
O16_15 O 0.927513 0.531999 0.947812
C85_15 C 0.903709 0.480065 0.981010
O17_15 O 0.752617 0.374005 0.956639
C86_15 C 0.744232 0.398440 0.893977
C87_15 C 0.987915 0.407075 0.851553
C88_15 C 0.950747 0.543421 0.915127
C89_15 C 0.740997 0.340050 0.948435
C90_15 C 0.993420 0.388967 0.887024
O19_15 O 0.977630 0.545207 0.919450
C91_15 C 0.942016 0.553430 0.874465
O20_15 O 0.737009 0.320495 0.920952
C92_15 C 0.729005 0.320802 0.988937
H4_15 H 0.765611 0.303542 0.852366
H6_15 H 0.729939 0.157061 0.804161
H7_15 H 0.692421 0.176306 0.862917
H8_15 H 0.740251 0.214592 0.728367
H9_15 H 0.756105 0.271627 0.904839
H10_15 H 0.800051 0.222397 0.887772
H11_15 H 0.831331 0.263824 0.78586
H12_15 H 0.724167 0.248234 0.746215
H15_15 H 0.865839 0.278905 0.805148
H16_15 H 0.894796 0.26567 0.813491
H17_15 H 0.906777 0.303003 0.786897
H18_15 H 0.779144 0.123393 0.883399
H19_15 H 0.809634 0.179135 0.912679
H20_15 H 0.825181 0.244775 0.656286
H26_15 H 0.726218 0.339342 0.761346
H28_15 H 0.72733 0.0760718 0.751221
H29_15 H 0.730717 0.0445233 0.776876
H30_15 H 0.695993 0.0492776 0.785638
H34_15 H 0.663464 0.247542 0.655954
H35_15 H 0.628205 0.24147 0.683471
H36_15 H 0.657129 0.28125 0.665126
H40_15 H 0.753513 0.346393 0.827968
H41_15 H 0.725399 0.28622 0.961897
H42_15 H 0.658173 0.164059 0.924938
H43_15 H 0.674199 0.208017 0.978769
H44_15 H 0.76447 0.217496 0.66223
H51_15 H 0.720209 0.392885 0.90532
H52_15 H 0.817812 0.422772 0.761827
H55_15 H 0.720068 0.294871 0.983196
H59_15 H 0.827448 0.32484 0.741728
H63_15 H 0.937107 0.573444 0.87977
H64_15 H 0.96246 0.561463 0.853176
H65_15 H 0.920268 0.532506 0.861519
H68_15 H 0.906212 0.396606 0.862506
H69_15 H 0.740453 0.420179 0.838699
H73_15 H 0.989085 0.445811 0.783268
H74_15 H 0.980049 0.36266 0.881028
H76_15 H 0.984592 0.393997 0.915446
H78_15 H 0.849448 0.359087 0.803749
H79_15 H 0.858993 0.406918 0.9383
H80_15 H 0.910987 0.466718 0.778895
H81_15 H 0.807445 0.41415 0.681851
H82_15 H 0.799516 0.340866 0.687898
H86_15 H 0.90084 0.497997 0.880806
H87_15 H 0.963832 0.476301 0.753987
H89_15 H 0.809266 0.390833 0.920451
H91_15 H 0.795403 0.432278 0.814301
O9_16 O 0.583720 0.012491 0.170039
H29_16 H 0.622143 0.0195275 0.110209
Nb1_16 Nb 0.534078 0.854201 0.080621
C1_16 C 0.490668 0.849395 0.108597
C2_16 C 0.586719 0.884991 0.077633
C3_16 C 0.535910 0.862891 0.015296
C4_16 C 0.530034 0.818447 0.124694
C5_16 C 0.549738 0.880056 0.139894
C6_16 C 0.537684 0.901705 0.069232
C7_16 C 0.490649 0.811371 0.055575
C8_16 C 0.553380 0.825146 0.052059
N1_16 N 0.468024 0.847991 0.125457
N4_9 N 0.528786 0.798398 0.146794
N5_16 N 0.558875 0.893457 0.170764
N6_16 N 0.539863 0.926868 0.062356
N7_16 N 0.467533 0.788900 0.042171
N8_16 N 0.564793 0.810865 0.037024
Fe1_16 Fe 0.432920 0.855855 0.155568
N9_16 N 0.441885 0.834893 0.213644
N10_16 N 0.473862 0.904973 0.177706
N11_16 N 0.427702 0.878313 0.095177
N12_16 N 0.393045 0.805365 0.134125
C9_16 C 0.418927 0.819865 0.242870
C10_16 C 0.471440 0.837384 0.219545
C11_16 C 0.504635 0.919056 0.161739
C12_16 C 0.468672 0.921600 0.207641
C13_16 C 0.413208 0.896099 0.091946
C14_16 C 0.439994 0.873575 0.059835
C15_16 C 0.396679 0.794156 0.097985
C16_16 C 0.366241 0.786450 0.156207
C25_16 C 0.423691 0.806940 0.278269
C26_16 C 0.478526 0.825093 0.254286
C27_16 C 0.529869 0.948998 0.175005
C28_16 C 0.492921 0.951320 0.221749
C29_16 C 0.410891 0.909044 0.054008
C30_16 C 0.438587 0.885384 0.022334
C31_16 C 0.373170 0.763610 0.083687
C32_16 C 0.341935 0.755382 0.142635
O1_16 O 0.399843 0.791761 0.307515
C41_16 C 0.453876 0.809435 0.284455
O2_16 O 0.559352 0.959312 0.155172
C42_16 C 0.523867 0.965434 0.205624
O3_16 O 0.395513 0.927513 0.052188
C43_16 C 0.423643 0.903709 0.018990
O4_16 O 0.378611 0.752617 0.043361
C44_16 C 0.345791 0.744232 0.106023
C49_16 C 0.580839 0.987915 0.148447
C50_16 C 0.407325 0.950747 0.084873
C51_16 C 0.400946 0.740997 0.051565
C54_16 C 0.604452 0.993420 0.112976
O10_16 O 0.432422 0.977630 0.080550
C55_16 C 0.388585 0.942016 0.125535
O11_16 O 0.416513 0.737009 0.079048
C56_16 C 0.408202 0.729005 0.011063
Nb2_16 Nb 0.346544 0.867412 0.252713
C59_16 C 0.307940 0.824002 0.224737
C60_16 C 0.368395 0.920053 0.255701
C61_16 C 0.339686 0.869244 0.318038
C62_16 C 0.378254 0.863368 0.208640
C63_16 C 0.336349 0.883072 0.193440
C64_16 C 0.302646 0.871018 0.264102
C65_16 C 0.345945 0.823983 0.277759
C66_16 C 0.394901 0.886714 0.281275
N17_16 N 0.286700 0.801358 0.207877
N18_16 N 0.379949 0.948547 0.255929
N19_16 N 0.337877 0.870339 0.352441
N20_16 N 0.397055 0.862120 0.186540
N21_16 N 0.332085 0.892209 0.162570
N22_16 N 0.279662 0.873197 0.270978
N23_16 N 0.345300 0.800867 0.291163
N24_16 N 0.420595 0.898127 0.296310
Fe4_8 Fe 0.243732 0.766254 0.177766
N25_16 N 0.273659 0.775219 0.119690
N26_16 N 0.235556 0.807196 0.155628
N27_16 N 0.216056 0.761036 0.238157
N28_16 N 0.254347 0.726379 0.199209
C67_16 C 0.265729 0.752261 0.090464
C68_16 C 0.300723 0.804774 0.113789
C69_16 C 0.252246 0.837969 0.171595
C70_16 C 0.213739 0.802006 0.125693
C71_16 C 0.183776 0.746542 0.241388
C72_16 C 0.233086 0.773328 0.273499
C73_16 C 0.269190 0.730013 0.235349
C74_16 C 0.246458 0.699575 0.177127
C75_16 C 0.283418 0.757025 0.055065
C76_16 C 0.320100 0.811860 0.079048
C77_16 C 0.247538 0.863203 0.158329
C78_16 C 0.208268 0.826255 0.111585
C79_16 C 0.168514 0.744225 0.279326
C80_16 C 0.219870 0.771921 0.311000
C81_16 C 0.276227 0.706504 0.249647
C82_16 C 0.253220 0.675269 0.190699
O14_16 O 0.274749 0.733177 0.025819
C83_16 C 0.311108 0.787210 0.048879
O15_16 O 0.266707 0.892686 0.178162
C84_16 C 0.225100 0.857201 0.127710
O16_16 O 0.134667 0.728847 0.281146
C85_16 C 0.186601 0.756977 0.314344
O17_16 O 0.292661 0.711945 0.289973
C86_16 C 0.268226 0.679125 0.227311
C87_16 C 0.259591 0.914173 0.184887
C88_16 C 0.123245 0.740659 0.248461
C89_16 C 0.326616 0.734280 0.281769
O18_16 O 0.237896 0.917054 0.163295
C90_16 C 0.277699 0.937786 0.220358
O19_16 O 0.121459 0.765756 0.252784
C91_16 C 0.113236 0.721919 0.207799
O20_16 O 0.346171 0.749847 0.254286
C92_16 C 0.345864 0.741536 0.322271
N35_8 N 0.201602 0.730389 0.146794
Fe5_9 Fe 0.522521 0.756268 0.177766
H4_16 H 0.363125 0.795403 0.185699
H6_16 H 0.509606 0.906212 0.137494
H7_16 H 0.49036 0.849448 0.196251
H8_16 H 0.452075 0.858993 0.0617001
H9_16 H 0.39504 0.817812 0.238173
H10_16 H 0.444269 0.910987 0.221105
H11_16 H 0.402842 0.90084 0.119194
H12_16 H 0.418432 0.809266 0.0795485
H15_16 H 0.387762 0.920268 0.138481
H16_16 H 0.400997 0.96246 0.146824
H17_16 H 0.363664 0.937107 0.12023
H18_16 H 0.543274 0.989085 0.216732
H19_16 H 0.487531 0.963832 0.246013
H26_16 H 0.327325 0.720209 0.0946795
H28_16 H 0.590595 0.984592 0.0845542
H30_16 H 0.617389 0.980049 0.118972
H35_16 H 0.425196 0.720068 0.016804
H40_16 H 0.320274 0.740453 0.161301
H41_16 H 0.380447 0.772513 0.29523
H42_16 H 0.502608 0.827448 0.258272
H43_16 H 0.45865 0.799516 0.312102
H51_16 H 0.273782 0.660658 0.238654
H52_16 H 0.243895 0.728373 0.0951606
H53_16 H 0.23553 0.782504 0.33777
H54_16 H 0.342871 0.71875 0.334874
H55_16 H 0.371795 0.75853 0.316529
H56_16 H 0.336536 0.752458 0.344046
H58_16 H 0.174819 0.755225 0.343714
H59_16 H 0.341827 0.835941 0.0750617
H63_16 H 0.0932229 0.696997 0.213103
H64_16 H 0.105204 0.73433 0.186509
H65_16 H 0.134161 0.721095 0.194852
H68_16 H 0.270061 0.842939 0.195839
H69_16 H 0.246487 0.653607 0.172032
H73_16 H 0.220856 0.876607 0.116601
H74_16 H 0.304007 0.950722 0.214362
H75_16 H 0.269283 0.955477 0.223124
H76_16 H 0.27267 0.923928 0.248779
H78_16 H 0.307579 0.823694 0.137083
H79_16 H 0.259749 0.785408 0.271633
H80_16 H 0.199949 0.777603 0.112228
H81_16 H 0.252517 0.726629 0.0151847
H82_16 H 0.325801 0.791983 0.0212313
H86_16 H 0.168669 0.736176 0.21414
H87_16 H 0.190366 0.820865 0.0873208
H89_16 H 0.275833 0.751766 0.253785
H91_16 H 0.234389 0.696458 0.147634
H20_16 H 0.421892 0.913739 0.98962
H34_16 H 0.419124 0.749255 0.989288
H36_16 H 0.385417 0.709212 0.998459
H44_16 H 0.44917 0.880308 0.995563
Nb1_17 Nb 0.145799 0.679878 0.080621
C1_17 C 0.150605 0.641274 0.108597
C2_17 C 0.115009 0.701729 0.077633
C3_17 C 0.137109 0.673020 0.015296
C4_17 C 0.181553 0.711588 0.124694
C5_17 C 0.119944 0.669683 0.139894
C6_17 C 0.098295 0.635980 0.069232
C7_17 C 0.188629 0.679279 0.055575
C8_17 C 0.174854 0.728235 0.052059
N1_17 N 0.152009 0.620034 0.125457
N5_17 N 0.106543 0.665419 0.170764
N6_17 N 0.073132 0.612996 0.062356
N7_17 N 0.211100 0.678634 0.042171
N8_17 N 0.189135 0.753929 0.037024
Fe1_17 Fe 0.144145 0.577066 0.155568
N9_17 N 0.165107 0.606993 0.213644
N10_17 N 0.095027 0.568890 0.177706
N11_17 N 0.121687 0.549390 0.095177
N12_17 N 0.194635 0.587681 0.134125
C9_17 C 0.180135 0.599063 0.242870
C10_17 C 0.162616 0.634057 0.219545
C11_17 C 0.080944 0.585580 0.161739
C12_17 C 0.078400 0.547073 0.207641
C13_17 C 0.103901 0.517110 0.091946
C14_17 C 0.126425 0.566420 0.059835
C15_17 C 0.205844 0.602524 0.097985
C16_17 C 0.213550 0.579792 0.156207
C25_17 C 0.193060 0.616752 0.278269
C26_17 C 0.174907 0.653434 0.254286
C27_17 C 0.051002 0.580872 0.175005
C28_17 C 0.048680 0.541602 0.221749
C29_17 C 0.090956 0.501848 0.054008
C30_17 C 0.114616 0.553204 0.022334
C31_17 C 0.236390 0.609561 0.083687
C32_17 C 0.244618 0.586554 0.142635
O1_17 O 0.208239 0.608083 0.307515
C41_17 C 0.190565 0.644442 0.284455
O2_17 O 0.040688 0.600041 0.155172
C42_17 C 0.034566 0.558434 0.205624
O3_17 O 0.072487 0.468001 0.052188
C43_17 C 0.096291 0.519935 0.018990
O4_17 O 0.247383 0.625995 0.043361
C44_17 C 0.255768 0.601560 0.106023
C49_17 C 0.012085 0.592925 0.148447
C50_17 C 0.049253 0.456579 0.084873
C51_17 C 0.259003 0.659950 0.051565
C54_17 C 0.006580 0.611033 0.112976
O10_17 O 0.022370 0.454793 0.080550
C55_17 C 0.057984 0.446570 0.125535
O11_17 O 0.262991 0.679505 0.079048
C56_17 C 0.270995 0.679198 0.011063
Nb2_17 Nb 0.132588 0.479133 0.252713
C59_17 C 0.175998 0.483939 0.224737
C60_17 C 0.079947 0.448343 0.255701
C61_17 C 0.130756 0.470443 0.318038
C62_17 C 0.136632 0.514887 0.208640
C63_17 C 0.116928 0.453278 0.193440
C64_17 C 0.128982 0.431629 0.264102
C65_17 C 0.176017 0.521963 0.277759
C66_17 C 0.113286 0.508188 0.281275
N17_17 N 0.198642 0.485343 0.207877
N18_17 N 0.051453 0.431403 0.255929
N19_17 N 0.129661 0.467539 0.352441
N20_17 N 0.137880 0.534936 0.186540
N21_17 N 0.107791 0.439877 0.162570
N22_17 N 0.126803 0.406466 0.270978
N23_17 N 0.199133 0.544434 0.291163
N24_17 N 0.101873 0.522469 0.296310
Fe4_9 Fe 0.233746 0.477479 0.177766
N25_17 N 0.224781 0.498441 0.119690
N26_17 N 0.192804 0.428361 0.155628
N27_17 N 0.238964 0.455021 0.238157
N28_17 N 0.273621 0.527969 0.199209
C67_17 C 0.247739 0.513469 0.090464
C68_17 C 0.195226 0.495950 0.113789
C69_17 C 0.162031 0.414278 0.171595
C70_17 C 0.197994 0.411734 0.125693
C71_17 C 0.253458 0.437235 0.241388
C72_17 C 0.226672 0.459759 0.273499
C73_17 C 0.269987 0.539178 0.235349
C74_17 C 0.300425 0.546884 0.177127
C75_17 C 0.242975 0.526394 0.055065
C76_17 C 0.188140 0.508241 0.079048
C77_17 C 0.136797 0.384336 0.158329
C78_17 C 0.173745 0.382014 0.111585
C79_17 C 0.255775 0.424290 0.279326
C80_17 C 0.228079 0.447950 0.311000
C81_17 C 0.293496 0.569724 0.249647
C82_17 C 0.324731 0.577952 0.190699
O14_17 O 0.266823 0.541573 0.025819
C83_17 C 0.212790 0.523899 0.048879
O15_17 O 0.107314 0.374022 0.178162
C84_17 C 0.142799 0.367900 0.127710
O16_17 O 0.271153 0.405821 0.281146
C85_17 C 0.243023 0.429625 0.314344
O17_17 O 0.288055 0.580717 0.289973
C86_17 C 0.320875 0.589102 0.227311
C87_17 C 0.085827 0.345419 0.184887
C88_17 C 0.259341 0.382587 0.248461
C89_17 C 0.265720 0.592337 0.281769
O18_17 O 0.082946 0.320843 0.163295
C90_17 C 0.062214 0.339914 0.220358
O19_17 O 0.234244 0.355704 0.252784
C91_17 C 0.278081 0.391318 0.207799
O20_17 O 0.250153 0.596325 0.254286
C92_17 C 0.258464 0.604329 0.322271
N35_9 N 0.269611 0.471214 0.146794
H4_17 H 0.204597 0.567722 0.185699
H6_17 H 0.0937883 0.603394 0.137494
H7_17 H 0.150552 0.640913 0.196251
H8_17 H 0.141007 0.593082 0.0617001
H9_17 H 0.182188 0.577228 0.238173
H10_17 H 0.0890129 0.533282 0.221105
H11_17 H 0.0991603 0.502003 0.119194
H12_17 H 0.190734 0.609167 0.0795485
H15_17 H 0.0797321 0.467494 0.138481
H16_17 H 0.0375404 0.438537 0.146824
H17_17 H 0.0628927 0.426556 0.12023
H18_17 H 0.0109151 0.554189 0.216732
H19_17 H 0.036168 0.523699 0.246013
H26_17 H 0.279791 0.607115 0.0946795
H28_17 H 0.015408 0.606003 0.0845542
H30_17 H 0.0199508 0.63734 0.118972
H35_17 H 0.279932 0.705129 0.016804
H40_17 H 0.259547 0.579821 0.161301
H41_17 H 0.227487 0.607934 0.29523
H42_17 H 0.172552 0.67516 0.258272
H43_17 H 0.200484 0.659134 0.312102
H51_17 H 0.339342 0.613124 0.238654
H52_17 H 0.271627 0.515522 0.0951606
H53_17 H 0.217496 0.453026 0.33777
H54_17 H 0.28125 0.624122 0.334874
H55_17 H 0.24147 0.613265 0.316529
H56_17 H 0.247542 0.584078 0.344046
H58_17 H 0.244775 0.419594 0.343714
H59_17 H 0.164059 0.505886 0.0750617
H63_17 H 0.303003 0.396226 0.213103
H64_17 H 0.26567 0.370874 0.186509
H65_17 H 0.278905 0.413065 0.194852
H68_17 H 0.157061 0.427122 0.195839
H69_17 H 0.346393 0.59288 0.172032
H73_17 H 0.123393 0.344248 0.116601
H74_17 H 0.0492776 0.353284 0.214362
H75_17 H 0.0445233 0.313806 0.223124
H76_17 H 0.0760718 0.348741 0.248779
H78_17 H 0.176306 0.483886 0.137083
H79_17 H 0.214592 0.47434 0.271633
H80_17 H 0.222397 0.422346 0.112228
H81_17 H 0.273371 0.525888 0.0151847
H82_17 H 0.208017 0.533818 0.0212313
H86_17 H 0.263824 0.432494 0.21414
H87_17 H 0.179135 0.369501 0.0873208
H89_17 H 0.248234 0.524068 0.253785
H91_17 H 0.303542 0.537931 0.147634
H20_17 H 0.0862607 0.508153 0.98962
H34_17 H 0.250745 0.669869 0.989288
H36_17 H 0.290788 0.676205 0.998459
H44_17 H 0.119692 0.568863 0.995563
O9_17 O 0.987509 0.571230 0.170039
H29_17 H 0.980472 0.602616 0.110209
Nb1_18 Nb 0.320122 0.465922 0.080621
C1_18 C 0.358726 0.509332 0.108597
C2_18 C 0.298271 0.413281 0.077633
C3_18 C 0.326980 0.464090 0.015296
C4_18 C 0.288412 0.469966 0.124694
C5_18 C 0.330317 0.450262 0.139894
C6_18 C 0.364020 0.462316 0.069232
C7_18 C 0.320721 0.509351 0.055575
C8_18 C 0.271765 0.446620 0.052059
N1_18 N 0.379966 0.531976 0.125457
N5_18 N 0.334581 0.441125 0.170764
N6_18 N 0.387004 0.460137 0.062356
N7_18 N 0.321366 0.532467 0.042171
N8_18 N 0.246071 0.435207 0.037024
Fe1_18 Fe 0.422934 0.567080 0.155568
N9_18 N 0.393007 0.558115 0.213644
N10_18 N 0.431110 0.526138 0.177706
N11_18 N 0.450610 0.572298 0.095177
N12_18 N 0.412319 0.606955 0.134125
C9_18 C 0.400937 0.581073 0.242870
C10_18 C 0.365943 0.528560 0.219545
C11_18 C 0.414420 0.495365 0.161739
C12_18 C 0.452927 0.531328 0.207641
C13_18 C 0.482890 0.586792 0.091946
C14_18 C 0.433580 0.560006 0.059835
C15_18 C 0.397476 0.603321 0.097985
C16_18 C 0.420208 0.633759 0.156207
C25_18 C 0.383248 0.576309 0.278269
C26_18 C 0.346566 0.521474 0.254286
C27_18 C 0.419128 0.470131 0.175005
C28_18 C 0.458398 0.507079 0.221749
C29_18 C 0.498152 0.589109 0.054008
C30_18 C 0.446796 0.561413 0.022334
C31_18 C 0.390439 0.626830 0.083687
C32_18 C 0.413446 0.658065 0.142635
O1_18 O 0.391917 0.600157 0.307515
C41_18 C 0.355558 0.546124 0.284455
O2_18 O 0.399959 0.440648 0.155172
C42_18 C 0.441566 0.476133 0.205624
O3_18 O 0.531999 0.604487 0.052188
C43_18 C 0.480065 0.576357 0.018990
O4_18 O 0.374005 0.621389 0.043361
C44_18 C 0.398440 0.654209 0.106023
C49_18 C 0.407075 0.419161 0.148447
C50_18 C 0.543421 0.592675 0.084873
C51_18 C 0.340050 0.599054 0.051565
O9_18 O 0.428770 0.416280 0.170039
C54_18 C 0.388967 0.395548 0.112976
O10_18 O 0.545207 0.567578 0.080550
C55_18 C 0.553430 0.611415 0.125535
O11_18 O 0.320495 0.583487 0.079048
C56_18 C 0.320802 0.591798 0.011063
Nb2_18 Nb 0.520867 0.653456 0.252713
C59_18 C 0.516061 0.692060 0.224737
C60_18 C 0.551657 0.631605 0.255701
C61_18 C 0.529557 0.660314 0.318038
C62_18 C 0.485113 0.621746 0.208640
C63_18 C 0.546722 0.663651 0.193440
C64_18 C 0.568371 0.697354 0.264102
C65_18 C 0.478037 0.654055 0.277759
C66_18 C 0.491812 0.605099 0.281275
N17_18 N 0.514657 0.713300 0.207877
N18_18 N 0.568597 0.620051 0.255929
N19_18 N 0.532461 0.662123 0.352441
N20_18 N 0.465064 0.602945 0.186540
N21_18 N 0.560123 0.667915 0.162570
N22_18 N 0.593534 0.720338 0.270978
N23_18 N 0.455566 0.654700 0.291163
N24_18 N 0.477531 0.579405 0.296310
N25_18 N 0.501559 0.726341 0.119690
N26_18 N 0.571639 0.764444 0.155628
N27_18 N 0.544979 0.783944 0.238157
N28_18 N 0.472031 0.745653 0.199209
C67_18 C 0.486531 0.734271 0.090464
C68_18 C 0.504050 0.699277 0.113789
C69_18 C 0.585722 0.747754 0.171595
C70_18 C 0.588266 0.786261 0.125693
C71_18 C 0.562765 0.816224 0.241388
C72_18 C 0.540241 0.766914 0.273499
C73_18 C 0.460822 0.730810 0.235349
C74_18 C 0.453116 0.753542 0.177127
C75_18 C 0.473606 0.716582 0.055065
C76_18 C 0.491759 0.679900 0.079048
C77_18 C 0.615664 0.752462 0.158329
C78_18 C 0.617986 0.791732 0.111585
C79_18 C 0.575710 0.831486 0.279326
C80_18 C 0.552050 0.780130 0.311000
C81_18 C 0.430276 0.723773 0.249647
C82_18 C 0.422048 0.746780 0.190699
O14_18 O 0.458427 0.725251 0.025819
C83_18 C 0.476101 0.688892 0.048879
O15_18 O 0.625978 0.733293 0.178162
C84_18 C 0.632100 0.774900 0.127710
O16_18 O 0.594179 0.865333 0.281146
C85_18 C 0.570375 0.813399 0.314344
O17_18 O 0.419283 0.707339 0.289973
C86_18 C 0.410898 0.731774 0.227311
C87_18 C 0.654581 0.740409 0.184887
C88_18 C 0.617413 0.876755 0.248461
C89_18 C 0.407663 0.673384 0.281769
O18_18 O 0.679157 0.762104 0.163295
C90_18 C 0.660086 0.722301 0.220358
O19_18 O 0.644296 0.878541 0.252784
C91_18 C 0.608682 0.886764 0.207799
O20_18 O 0.403675 0.653829 0.254286
C92_18 C 0.395671 0.654136 0.322271
H4_18 H 0.432278 0.636875 0.185699
H6_18 H 0.396606 0.490394 0.137494
H7_18 H 0.359087 0.50964 0.196251
H8_18 H 0.406918 0.547925 0.0617001
H9_18 H 0.422772 0.60496 0.238173
H10_18 H 0.466718 0.555731 0.221105
H11_18 H 0.497997 0.597158 0.119194
H12_18 H 0.390833 0.581568 0.0795485
H15_18 H 0.532506 0.612238 0.138481
H16_18 H 0.561463 0.599003 0.146824
H17_18 H 0.573444 0.636336 0.12023
H18_18 H 0.445811 0.456726 0.216732
H19_18 H 0.476301 0.512469 0.246013
H26_18 H 0.392885 0.672675 0.0946795
H28_18 H 0.393997 0.409405 0.0845542
H29_18 H 0.397384 0.377857 0.110209
H30_18 H 0.36266 0.382611 0.118972
H35_18 H 0.294871 0.574804 0.016804
H40_18 H 0.420179 0.679726 0.161301
H41_18 H 0.392066 0.619553 0.29523
H42_18 H 0.32484 0.497392 0.258272
H43_18 H 0.340866 0.54135 0.312102
H51_18 H 0.386876 0.726218 0.238654
H52_18 H 0.484478 0.756105 0.0951606
H53_18 H 0.546974 0.76447 0.33777
H54_18 H 0.375878 0.657129 0.334874
H55_18 H 0.386735 0.628205 0.316529
H56_18 H 0.415922 0.663464 0.344046
H58_18 H 0.580406 0.825181 0.343714
H59_18 H 0.494114 0.658173 0.0750617
H63_18 H 0.603774 0.906777 0.213103
H64_18 H 0.629126 0.894796 0.186509
H65_18 H 0.586935 0.865839 0.194852
H68_18 H 0.572878 0.729939 0.195839
H69_18 H 0.40712 0.753513 0.172032
H73_18 H 0.655752 0.779144 0.116601
H74_18 H 0.646716 0.695993 0.214362
H75_18 H 0.686194 0.730717 0.223124
H76_18 H 0.651259 0.72733 0.248779
H78_18 H 0.516114 0.692421 0.137083
H79_18 H 0.52566 0.740251 0.271633
H80_18 H 0.577654 0.800051 0.112228
H81_18 H 0.474112 0.747483 0.0151847
H82_18 H 0.466182 0.674199 0.0212313
H86_18 H 0.567506 0.831331 0.21414
H87_18 H 0.630499 0.809634 0.0873208
H89_18 H 0.475932 0.724167 0.253785
H91_18 H 0.462069 0.765611 0.147634
H20_18 H 0.491847 0.578108 0.98962
H34_18 H 0.330131 0.580876 0.989288
H36_18 H 0.323795 0.614583 0.998459
H44_18 H 0.431137 0.55083 0.995563
H81_19 H 0.940038 0.0808163 0.848518
C33_10 C 0.696172 0.701421 0.013390
C34_10 C 0.656441 0.644881 0.004197
C36_10 C 0.819076 0.699287 0.013372
O5_10 O 0.707061 0.731444 0.032055
C45_10 C 0.665952 0.674019 0.023734
O6_10 O 0.80313 0.61617 0.00578
C46_10 C 0.821752 0.672088 0.020947
H21_10 H 0.650305 0.675885 0.046927
H25_10 H 0.781521 0.59829 0.0155276
H31_10 H 0.633062 0.623219 0.0116897
H32_10 H 0.834839 0.721909 0.0299818
H33_10 H 0.728212 0.738229 0.0461864
H41_19 H 0.894154 0.952886 0.128563
H49_10 H 0.839286 0.672632 0.043194
N13_10 N 0.705906 0.669244 0.964480
N14_10 N 0.776763 0.671432 0.963757
N15_10 N 0.781007 0.746580 0.738878
N16_10 N 0.851692 0.813617 0.742201
C17_10 C 0.715122 0.697801 0.983784
C18_10 C 0.676570 0.643157 0.975106
C19_10 C 0.779480 0.644602 0.971324
C20_10 C 0.796551 0.698771 0.984764
C21_10 C 0.798400 0.732941 0.725996
C22_10 C 0.747907 0.726786 0.742356
C23_10 C 0.867172 0.802859 0.767052
C24_10 C 0.868798 0.834098 0.711335
C35_10 C 0.801354 0.643998 0.999273
C37_10 C 0.783157 0.699739 0.719133
C38_10 C 0.731701 0.694595 0.736190
C39_10 C 0.899289 0.812085 0.761696
C40_10 C 0.901244 0.844442 0.704055
O7_10 O 0.803385 0.686840 0.706720
C47_10 C 0.749490 0.680130 0.723618
O8_10 O 0.913907 0.800013 0.788556
C48_10 C 0.916812 0.832980 0.730162
C52_10 C 0.810739 0.687713 0.667426
C53_10 C 0.910381 0.769731 0.779646
O12_10 O 0.789006 0.676836 0.641115
C57_10 C 0.846229 0.702584 0.659841
O13_10 O 0.905741 0.758894 0.744476
C58_10 C 0.913446 0.754438 0.821131
N29_10 N 0.746580 0.781007 0.761122
C93_10 C 0.732941 0.798400 0.774004
C94_10 C 0.726786 0.747907 0.757644
C95_10 C 0.699739 0.783157 0.780867
C96_10 C 0.694595 0.731701 0.763810
O21_10 O 0.686840 0.803385 0.793280
C97_10 C 0.680130 0.749490 0.776382
C98_10 C 0.687713 0.810739 0.832574
O22_10 O 0.676836 0.789006 0.858885
C99_10 C 0.702584 0.846229 0.840159
N30_10 N 0.813617 0.851692 0.757799
C100_10 C 0.802859 0.867172 0.732948
C101_10 C 0.834098 0.868798 0.788665
C102_10 C 0.812085 0.899289 0.738304
C103_10 C 0.844442 0.901244 0.795945
O23_10 O 0.800013 0.913907 0.711444
C104_10 C 0.832980 0.916812 0.769838
C105_10 C 0.769731 0.910381 0.720354
O24_10 O 0.758894 0.905741 0.755524
C106_10 C 0.754438 0.913446 0.678869
N31_10 N 0.703329 0.664089 0.868853
C107_10 C 0.683988 0.635532 0.849549
C108_10 C 0.700080 0.690176 0.858227
C109_10 C 0.661418 0.631912 0.819943
C110_10 C 0.678227 0.688452 0.829136
O25_10 O 0.642284 0.601889 0.801278
C111_10 C 0.658600 0.659314 0.809599
N32_10 N 0.771998 0.661901 0.869576
C112_10 C 0.801545 0.688731 0.862009
C113_10 C 0.764447 0.634562 0.848569
C114_10 C 0.824023 0.689335 0.834060
C115_10 C 0.786456 0.634046 0.819961
O26_10 O 0.85363 0.71716 0.82755
C116_10 C 0.816331 0.661245 0.812386
H1_10 H 0.824723 0.748186 0.720926
H2_10 H 0.733605 0.738292 0.750874
H3_10 H 0.738625 0.719078 0.975709
H5_10 H 0.66862 0.619765 0.959853
H13_10 H 0.763545 0.622173 0.954464
H14_10 H 0.795143 0.720913 0.979574
H22_10 H 0.914395 0.861009 0.678805
H23_10 H 0.853578 0.78631 0.792131
H24_10 H 0.856285 0.842836 0.691251
H27_10 H 0.737353 0.653886 0.717355
H37_10 H 0.858895 0.727748 0.671144
H38_10 H 0.850576 0.70254 0.627056
H39_10 H 0.855465 0.688463 0.675714
H45_10 H 0.942573 0.840495 0.725627
H46_10 H 0.937412 0.770492 0.834733
H47_10 H 0.910775 0.730421 0.815256
H48_10 H 0.894273 0.75181 0.842133
H50_10 H 0.705266 0.680101 0.740896
H57_10 H 0.840495 0.942573 0.774373
H60_10 H 0.770492 0.937412 0.665267
H61_10 H 0.730421 0.910775 0.684744
H62_10 H 0.75181 0.894273 0.657867
H66_10 H 0.680101 0.705266 0.759104
H67_10 H 0.686213 0.614255 0.857624
H70_10 H 0.727748 0.858895 0.828856
H71_10 H 0.70254 0.850576 0.872944
H72_10 H 0.688463 0.855465 0.824286
H77_10 H 0.748186 0.824723 0.779074
H83_10 H 0.653886 0.737353 0.782645
H84_10 H 0.842836 0.856285 0.808749
H85_10 H 0.861009 0.914395 0.821195
H88_10 H 0.738292 0.733605 0.749126
H90_10 H 0.78631 0.853578 0.707869
H92_10 H 0.833321 0.660701 0.790139
H93_10 H 0.715522 0.713568 0.873481
H94_10 H 0.656649 0.595104 0.787147
H95_10 H 0.808039 0.71116 0.87887
H96_10 H 0.641087 0.657449 0.786406
H97_10 H 0.849897 0.735043 0.817806
H98_10 H 0.740896 0.61242 0.85376
H99_10 H 0.67651 0.710114 0.821644
H100_10 H 0.779597 0.611425 0.803352
C34_11 C 0.355119 0.011560 0.004197
C36_11 C 0.300713 0.119789 0.013372
O6_11 O 0.38383 0.18696 0.00578
C46_11 C 0.327912 0.149664 0.020947
H25_11 H 0.40171 0.183231 0.0155276
H31_11 H 0.376781 0.00984303 0.0116897
H32_11 H 0.278091 0.112931 0.0299818
H49_11 H 0.327368 0.166654 0.043194
N13_11 N 0.330756 0.036662 0.964480
N14_11 N 0.328568 0.105331 0.963757
N15_11 N 0.253420 0.034427 0.738878
N16_11 N 0.186383 0.038075 0.742201
C17_11 C 0.302199 0.017321 0.983784
C18_11 C 0.356843 0.033413 0.975106
C19_11 C 0.355398 0.134878 0.971324
C20_11 C 0.301229 0.097780 0.984764
C21_11 C 0.267059 0.065459 0.725996
C22_11 C 0.273214 0.021121 0.742356
C23_11 C 0.197141 0.064313 0.767052
C24_11 C 0.165902 0.034700 0.711335
C35_11 C 0.356002 0.157356 0.999273
C37_11 C 0.300261 0.083418 0.719133
C38_11 C 0.305405 0.037106 0.736190
C39_11 C 0.187915 0.087204 0.761696
C40_11 C 0.155558 0.056802 0.704055
O7_11 O 0.313160 0.116545 0.706720
C47_11 C 0.319870 0.069360 0.723618
O8_11 O 0.199987 0.113894 0.788556
C48_11 C 0.167020 0.083832 0.730162
C52_11 C 0.312287 0.123026 0.667426
C53_11 C 0.230269 0.140650 0.779646
O12_11 O 0.323164 0.112170 0.641115
C57_11 C 0.297416 0.143645 0.659841
O13_11 O 0.241106 0.146847 0.744476
C58_11 C 0.245562 0.159008 0.821131
N31_11 N 0.335911 0.039239 0.868853
C107_11 C 0.364468 0.048455 0.849549
C108_11 C 0.309824 0.009903 0.858227
C109_11 C 0.368088 0.029505 0.819943
O25_11 O 0.398111 0.040394 0.801278
N32_11 N 0.338099 0.110096 0.869576
C112_11 C 0.311269 0.112813 0.862009
C113_11 C 0.365438 0.129884 0.848569
C114_11 C 0.310665 0.134687 0.834060
C115_11 C 0.365954 0.152409 0.819961
O26_11 O 0.28284 0.13646 0.82755
C116_11 C 0.338755 0.155085 0.812386
H1_11 H 0.251814 0.0765379 0.720926
H3_11 H 0.280922 0.0195463 0.975709
H5_11 H 0.380235 0.0488552 0.959853
H13_11 H 0.377827 0.141372 0.954464
H14_11 H 0.279087 0.0742298 0.979574
H22_11 H 0.138991 0.0533865 0.678805
H23_11 H 0.21369 0.0672681 0.792131
H24_11 H 0.157164 0.0134487 0.691251
H27_11 H 0.346114 0.0834667 0.717355
H37_11 H 0.272252 0.131147 0.671144
H38_11 H 0.29746 0.148035 0.627056
H39_11 H 0.311537 0.167002 0.675714
H45_11 H 0.159505 0.102078 0.725627
H46_11 H 0.229508 0.16692 0.834733
H47_11 H 0.269579 0.180354 0.815256
H48_11 H 0.24819 0.142463 0.842133
H50_11 H 0.319899 0.025165 0.740896
H67_11 H 0.385745 0.0719579 0.857624
H88_11 H 0.266395 0.0046867 0.749126
H92_11 H 0.339299 0.17262 0.790139
H93_11 H 0.286432 0.00195339 0.873481
H94_11 H 0.404896 0.0615453 0.787147
H95_11 H 0.28884 0.096878 0.87887
H97_11 H 0.264957 0.114854 0.817806
H98_11 H 0.38758 0.128476 0.85376
H100_11 H 0.388575 0.168172 0.803352
C33_11 C 0.298579 0.994751 0.013390
O5_11 O 0.268556 0.975617 0.032055
C45_11 C 0.325981 0.991933 0.023734
H21_11 H 0.324115 0.97442 0.046927
H33_11 H 0.261771 0.989983 0.0461864
H41_20 H 0.0471137 0.941268 0.128563
N29_11 N 0.218993 0.965573 0.761122
C93_11 C 0.201600 0.934541 0.774004
C94_11 C 0.252093 0.978879 0.757644
C95_11 C 0.216843 0.916582 0.780867
C96_11 C 0.268299 0.962894 0.763810
O21_11 O 0.196615 0.883455 0.793280
C97_11 C 0.250510 0.930640 0.776382
C98_11 C 0.189261 0.876974 0.832574
O22_11 O 0.210994 0.887830 0.858885
C99_11 C 0.153771 0.856355 0.840159
N30_11 N 0.148308 0.961925 0.757799
C100_11 C 0.132828 0.935687 0.732948
C101_11 C 0.131202 0.965300 0.788665
C102_11 C 0.100711 0.912796 0.738304
C103_11 C 0.098756 0.943198 0.795945
O23_11 O 0.086093 0.886106 0.711444
C104_11 C 0.083188 0.916168 0.769838
C105_11 C 0.089619 0.859350 0.720354
O24_11 O 0.094259 0.853153 0.755524
C106_11 C 0.086554 0.840992 0.678869
C110_11 C 0.311548 0.989774 0.829136
C111_11 C 0.340686 0.999285 0.809599
H2_11 H 0.261708 0.995313 0.750874
H57_11 H 0.057427 0.897922 0.774373
H60_11 H 0.0625879 0.83308 0.665267
H61_11 H 0.0892249 0.819646 0.684744
H62_11 H 0.105727 0.857537 0.657867
H66_11 H 0.294734 0.974835 0.759104
H70_11 H 0.141105 0.868853 0.828856
H71_11 H 0.149424 0.851965 0.872944
H72_11 H 0.144535 0.832998 0.824286
H77_11 H 0.175277 0.923462 0.779074
H83_11 H 0.262647 0.916533 0.782645
H84_11 H 0.143715 0.986551 0.808749
H85_11 H 0.0856046 0.946614 0.821195
H90_11 H 0.146422 0.932732 0.707869
H96_11 H 0.342551 0.983638 0.786406
H99_11 H 0.289886 0.966395 0.821644
H81_20 H 0.919184 0.859222 0.848518
C33_12 C 0.005249 0.303828 0.013390
O5_12 O 0.024383 0.292939 0.032055
C45_12 C 0.008067 0.334048 0.023734
H21_12 H 0.0255799 0.349695 0.046927
H33_12 H 0.0100174 0.271788 0.0461864
H41_21 H 0.0587322 0.105846 0.128563
N29_12 N 0.034427 0.253420 0.761122
C93_12 C 0.065459 0.267059 0.774004
C94_12 C 0.021121 0.273214 0.757644
C95_12 C 0.083418 0.300261 0.780867
C96_12 C 0.037106 0.305405 0.763810
O21_12 O 0.116545 0.313160 0.793280
C97_12 C 0.069360 0.319870 0.776382
C98_12 C 0.123026 0.312287 0.832574
O22_12 O 0.112170 0.323164 0.858885
C99_12 C 0.143645 0.297416 0.840159
N30_12 N 0.038075 0.186383 0.757799
C100_12 C 0.064313 0.197141 0.732948
C101_12 C 0.034700 0.165902 0.788665
C102_12 C 0.087204 0.187915 0.738304
C103_12 C 0.056802 0.155558 0.795945
O23_12 O 0.113894 0.199987 0.711444
C104_12 C 0.083832 0.167020 0.769838
C105_12 C 0.140650 0.230269 0.720354
O24_12 O 0.146847 0.241106 0.755524
C106_12 C 0.159008 0.245562 0.678869
C110_12 C 0.010226 0.321773 0.829136
C111_12 C 0.000715 0.341400 0.809599
H2_12 H 0.0046867 0.266395 0.750874
H57_12 H 0.102078 0.159505 0.774373
H60_12 H 0.16692 0.229508 0.665267
H61_12 H 0.180354 0.269579 0.684744
H62_12 H 0.142463 0.24819 0.657867
H66_12 H 0.025165 0.319899 0.759104
H70_12 H 0.131147 0.272252 0.828856
H71_12 H 0.148035 0.29746 0.872944
H72_12 H 0.167002 0.311537 0.824286
H77_12 H 0.0765379 0.251814 0.779074
H81_21 H 0.140778 0.0599619 0.848518
H83_12 H 0.0834667 0.346114 0.782645
H84_12 H 0.0134487 0.157164 0.808749
H85_12 H 0.0533865 0.138991 0.821195
H90_12 H 0.0672681 0.21369 0.707869
H96_12 H 0.016362 0.358913 0.786406
H99_12 H 0.0336046 0.32349 0.821644
C34_12 C 0.988440 0.343559 0.004197
C36_12 C 0.880211 0.180924 0.013372
O6_12 O 0.81304 0.19687 0.00578
C46_12 C 0.850336 0.178248 0.020947
H25_12 H 0.816769 0.218479 0.0155276
H31_12 H 0.990157 0.366938 0.0116897
H32_12 H 0.887069 0.165161 0.0299818
H49_12 H 0.833346 0.160714 0.043194
N13_12 N 0.963338 0.294094 0.964480
N14_12 N 0.894669 0.223237 0.963757
N15_12 N 0.965573 0.218993 0.738878
N16_12 N 0.961925 0.148308 0.742201
C17_12 C 0.982679 0.284878 0.983784
C18_12 C 0.966587 0.323430 0.975106
C19_12 C 0.865122 0.220520 0.971324
C20_12 C 0.902220 0.203449 0.984764
C21_12 C 0.934541 0.201600 0.725996
C22_12 C 0.978879 0.252093 0.742356
C23_12 C 0.935687 0.132828 0.767052
C24_12 C 0.965300 0.131202 0.711335
C35_12 C 0.842644 0.198646 0.999273
C37_12 C 0.916582 0.216843 0.719133
C38_12 C 0.962894 0.268299 0.736190
C39_12 C 0.912796 0.100711 0.761696
C40_12 C 0.943198 0.098756 0.704055
O7_12 O 0.883455 0.196615 0.706720
C47_12 C 0.930640 0.250510 0.723618
O8_12 O 0.886106 0.086093 0.788556
C48_12 C 0.916168 0.083188 0.730162
C52_12 C 0.876974 0.189261 0.667426
C53_12 C 0.859350 0.089619 0.779646
O12_12 O 0.887830 0.210994 0.641115
C57_12 C 0.856355 0.153771 0.659841
O13_12 O 0.853153 0.094259 0.744476
C58_12 C 0.840992 0.086554 0.821131
N31_12 N 0.960761 0.296671 0.868853
C107_12 C 0.951545 0.316012 0.849549
C108_12 C 0.990097 0.299920 0.858227
C109_12 C 0.970495 0.338582 0.819943
O25_12 O 0.959606 0.357716 0.801278
N32_12 N 0.889904 0.228002 0.869576
C112_12 C 0.887187 0.198455 0.862009
C113_12 C 0.870116 0.235553 0.848569
C114_12 C 0.865313 0.175977 0.834060
C115_12 C 0.847591 0.213544 0.819961
O26_12 O 0.86354 0.14637 0.82755
C116_12 C 0.844915 0.183669 0.812386
H1_12 H 0.923462 0.175277 0.720926
H3_12 H 0.980454 0.261375 0.975709
H5_12 H 0.951145 0.33138 0.959853
H13_12 H 0.858628 0.236455 0.954464
H14_12 H 0.92577 0.204857 0.979574
H22_12 H 0.946614 0.0856046 0.678805
H23_12 H 0.932732 0.146422 0.792131
H24_12 H 0.986551 0.143715 0.691251
H27_12 H 0.916533 0.262647 0.717355
H37_12 H 0.868853 0.141105 0.671144
H38_12 H 0.851965 0.149424 0.627056
H39_12 H 0.832998 0.144535 0.675714
H45_12 H 0.897922 0.057427 0.725627
H46_12 H 0.83308 0.0625879 0.834733
H47_12 H 0.819646 0.0892249 0.815256
H48_12 H 0.857537 0.105727 0.842133
H50_12 H 0.974835 0.294734 0.740896
H67_12 H 0.928042 0.313787 0.857624
H88_12 H 0.995313 0.261708 0.749126
H92_12 H 0.82738 0.166679 0.790139
H93_12 H 0.998047 0.284478 0.873481
H94_12 H 0.938455 0.343351 0.787147
H95_12 H 0.903122 0.191961 0.87887
H97_12 H 0.885146 0.150103 0.817806
H98_12 H 0.871524 0.259104 0.85376
H100_12 H 0.831828 0.220403 0.803352
N13_13 N 0.372573 0.002577 0.297813
N14_13 N 0.443430 0.004765 0.297090
N15_13 N 0.447674 0.079913 0.072211
N16_13 N 0.518359 0.146950 0.075534
C17_13 C 0.381789 0.031134 0.317117
C20_13 C 0.463218 0.032104 0.318097
C21_13 C 0.465067 0.066274 0.059329
C22_13 C 0.414574 0.060119 0.075689
C23_13 C 0.533839 0.136192 0.100385
C24_13 C 0.535465 0.167431 0.044668
C33_13 C 0.362839 0.034754 0.346723
C36_13 C 0.485743 0.032620 0.346705
C37_13 C 0.449824 0.033072 0.052466
C38_13 C 0.398368 0.027928 0.069523
C39_13 C 0.565956 0.145418 0.095029
C40_13 C 0.567911 0.177775 0.037388
O5_13 O 0.373728 0.064777 0.365388
C45_13 C 0.332619 0.007352 0.357067
C46_13 C 0.488419 0.005421 0.354280
O7_13 O 0.470052 0.020173 0.040053
C47_13 C 0.416157 0.013463 0.056951
O8_13 O 0.580574 0.133346 0.121889
C48_13 C 0.583479 0.166313 0.063495
C52_13 C 0.477406 0.021046 0.000759
C53_13 C 0.577048 0.103064 0.112979
O13_13 O 0.572408 0.092227 0.077809
C58_13 C 0.580113 0.087771 0.154464
N29_13 N 0.413247 0.114340 0.094455
C93_13 C 0.399608 0.131733 0.107337
C94_13 C 0.393453 0.081240 0.090977
C95_13 C 0.366406 0.116490 0.114200
C96_13 C 0.361262 0.065034 0.097143
O21_13 O 0.353507 0.136718 0.126613
C97_13 C 0.346797 0.082823 0.109715
C98_13 C 0.354380 0.144072 0.165907
O22_13 O 0.343503 0.122339 0.192218
C99_13 C 0.369251 0.179562 0.173492
N30_13 N 0.480284 0.185025 0.091132
C100_13 C 0.469526 0.200505 0.066281
C101_13 C 0.500765 0.202131 0.121998
C102_13 C 0.478752 0.232622 0.071637
C103_13 C 0.511109 0.234577 0.129278
O23_13 O 0.466680 0.247240 0.044777
C104_13 C 0.499647 0.250145 0.103171
C105_13 C 0.436398 0.243714 0.053687
O24_13 O 0.425561 0.239074 0.088857
C106_13 C 0.421105 0.246779 0.012202
C108_13 C 0.366746 0.023510 0.191561
C110_13 C 0.344893 0.021786 0.162470
C112_13 C 0.468211 0.022065 0.195343
C114_13 C 0.490689 0.022669 0.167394
O26_13 O 0.52029 0.05050 0.16089
H1_13 H 0.49139 0.0815189 0.0542596
H2_13 H 0.400272 0.071625 0.0842072
H3_13 H 0.405291 0.0524116 0.309043
H14_13 H 0.46181 0.0542466 0.312907
H21_13 H 0.316971 0.00921791 0.38026
H22_13 H 0.581062 0.194342 0.0121379
H23_13 H 0.520245 0.119643 0.125464
H24_13 H 0.522952 0.17617 0.0245848
H32_13 H 0.501506 0.0552418 0.363315
H33_13 H 0.394879 0.0715627 0.37952
H37_13 H 0.525562 0.0610811 0.00447686
H39_13 H 0.522132 0.0217959 0.00904706
H41_22 H 0.560821 0.28622 0.461897
H45_13 H 0.60924 0.173829 0.0589607
H46_13 H 0.604079 0.103825 0.168067
H47_13 H 0.577442 0.0637546 0.148589
H48_13 H 0.56094 0.0851433 0.175467
H49_13 H 0.505953 0.00596563 0.376527
H50_13 H 0.371932 0.0134341 0.074229
H57_13 H 0.507162 0.275906 0.107706
H61_13 H 0.397088 0.244108 0.0180773
H66_13 H 0.346767 0.0385991 0.0924377
H70_13 H 0.394414 0.192228 0.16219
H71_13 H 0.369207 0.183909 0.206277
H72_13 H 0.355129 0.188798 0.15762
H77_13 H 0.414852 0.158057 0.112407
H81_22 H 0.606705 0.41415 0.181851
H83_13 H 0.320553 0.0706862 0.115978
H84_13 H 0.509503 0.189618 0.142082
H85_13 H 0.527676 0.247729 0.154529
H88_13 H 0.404958 0.0669383 0.0824595
H90_13 H 0.452977 0.186912 0.0412023
H93_13 H 0.382188 0.0469018 0.206814
H95_13 H 0.474705 0.0444938 0.212203
H97_13 H 0.516564 0.0683764 0.151139
H99_13 H 0.343176 0.0434476 0.154977
O12_13 O 0.455673 0.010169 0.974448
C57_13 C 0.512896 0.035917 0.993174
H38_13 H 0.517242 0.0358736 0.960389
H60_13 H 0.437159 0.270745 0.9986
H62_13 H 0.418477 0.227607 0.9912
C18_13 C 0.343237 0.976490 0.308439
C19_13 C 0.446147 0.977935 0.304657
C34_13 C 0.323108 0.978214 0.337530
C35_13 C 0.468021 0.977331 0.332606
O6_13 O 0.46980 0.94950 0.33911
N31_13 N 0.369995 0.997423 0.202187
C107_13 C 0.350654 0.968866 0.182883
C109_13 C 0.328084 0.965246 0.153277
O25_13 O 0.308950 0.935223 0.134612
C111_13 C 0.325266 0.992648 0.142933
N32_13 N 0.438664 0.995235 0.202910
C113_13 C 0.431113 0.967896 0.181903
C115_13 C 0.453122 0.967380 0.153295
C116_13 C 0.482997 0.994579 0.145720
H5_13 H 0.335287 0.953098 0.293186
H13_13 H 0.430211 0.955506 0.287797
H25_13 H 0.448188 0.931624 0.348861
H27_13 H 0.404019 0.987219 0.0506884
H31_13 H 0.299729 0.956552 0.345023
H67_13 H 0.35288 0.947588 0.190957
H92_13 H 0.499987 0.994034 0.123473
H94_13 H 0.323316 0.928437 0.12048
H96_13 H 0.307753 0.990782 0.11974
H98_13 H 0.407563 0.945753 0.187093
H100_13 H 0.446264 0.944758 0.136685
C18_14 C 0.023510 0.366746 0.308439
C19_14 C 0.022065 0.468211 0.304657
C34_14 C 0.021786 0.344893 0.337530
C35_14 C 0.022669 0.490689 0.332606
O6_14 O 0.05050 0.52029 0.33911
N31_14 N 0.002577 0.372573 0.202187
C107_14 C 0.031134 0.381789 0.182883
C109_14 C 0.034754 0.362839 0.153277
O25_14 O 0.064777 0.373728 0.134612
C111_14 C 0.007352 0.332619 0.142933
N32_14 N 0.004765 0.443430 0.202910
C113_14 C 0.032104 0.463218 0.181903
C115_14 C 0.032620 0.485743 0.153295
C116_14 C 0.005421 0.488419 0.145720
H5_14 H 0.0469018 0.382188 0.293186
H13_14 H 0.0444938 0.474705 0.287797
H25_14 H 0.0683764 0.516564 0.348861
H27_14 H 0.0127805 0.4168 0.0506884
H31_14 H 0.0434476 0.343176 0.345023
H67_14 H 0.0524116 0.405291 0.190957
H92_14 H 0.00596563 0.505953 0.123473
H94_14 H 0.0715627 0.394879 0.12048
H96_14 H 0.00921791 0.316971 0.11974
H98_14 H 0.0542466 0.46181 0.187093
H100_14 H 0.0552418 0.501506 0.136685
N13_14 N 0.997423 0.369995 0.297813
N14_14 N 0.995235 0.438664 0.297090
N15_14 N 0.920087 0.367760 0.072211
N16_14 N 0.853050 0.371408 0.075534
C17_14 C 0.968866 0.350654 0.317117
C20_14 C 0.967896 0.431113 0.318097
C21_14 C 0.933726 0.398792 0.059329
C22_14 C 0.939881 0.354454 0.075689
C23_14 C 0.863808 0.397646 0.100385
C24_14 C 0.832569 0.368033 0.044668
C33_14 C 0.965246 0.328084 0.346723
C36_14 C 0.967380 0.453122 0.346705
C37_14 C 0.966928 0.416751 0.052466
C38_14 C 0.972072 0.370439 0.069523
C39_14 C 0.854582 0.420537 0.095029
C40_14 C 0.822225 0.390135 0.037388
O5_14 O 0.935223 0.308950 0.365388
C45_14 C 0.992648 0.325266 0.357067
C46_14 C 0.994579 0.482997 0.354280
O7_14 O 0.979827 0.449878 0.040053
C47_14 C 0.986537 0.402693 0.056951
O8_14 O 0.866654 0.447227 0.121889
C48_14 C 0.833687 0.417165 0.063495
C52_14 C 0.978954 0.456359 0.000759
C53_14 C 0.896936 0.473983 0.112979
O13_14 O 0.907773 0.480180 0.077809
C58_14 C 0.912229 0.492341 0.154464
N29_14 N 0.885660 0.298906 0.094455
C93_14 C 0.868267 0.267874 0.107337
C94_14 C 0.918760 0.312212 0.090977
C95_14 C 0.883510 0.249915 0.114200
C96_14 C 0.934966 0.296227 0.097143
O21_14 O 0.863282 0.216788 0.126613
C97_14 C 0.917177 0.263973 0.109715
C98_14 C 0.855928 0.210307 0.165907
O22_14 O 0.877661 0.221163 0.192218
C99_14 C 0.820438 0.189688 0.173492
N30_14 N 0.814975 0.295258 0.091132
C100_14 C 0.799495 0.269020 0.066281
C101_14 C 0.797869 0.298633 0.121998
C102_14 C 0.767378 0.246129 0.071637
C103_14 C 0.765423 0.276531 0.129278
O23_14 O 0.752760 0.219439 0.044777
C104_14 C 0.749855 0.249501 0.103171
C105_14 C 0.756286 0.192683 0.053687
O24_14 O 0.760926 0.186486 0.088857
C106_14 C 0.753221 0.174325 0.012202
C108_14 C 0.976490 0.343237 0.191561
C110_14 C 0.978214 0.323108 0.162470
C112_14 C 0.977935 0.446147 0.195343
C114_14 C 0.977331 0.468021 0.167394
O26_14 O 0.94950 0.46980 0.16089
H1_14 H 0.918481 0.409871 0.0542596
H2_14 H 0.928375 0.328647 0.0842072
H3_14 H 0.947588 0.35288 0.309043
H14_14 H 0.945753 0.407563 0.312907
H21_14 H 0.990782 0.307753 0.38026
H22_14 H 0.805658 0.38672 0.0121379
H23_14 H 0.880357 0.400601 0.125464
H24_14 H 0.82383 0.346782 0.0245848
H32_14 H 0.944758 0.446264 0.363315
H33_14 H 0.928437 0.323316 0.37952
H37_14 H 0.938919 0.46448 0.00447686
H39_14 H 0.978204 0.500336 0.00904706
H41_23 H 0.71378 0.274601 0.461897
H45_14 H 0.826171 0.435411 0.0589607
H46_14 H 0.896175 0.500254 0.168067
H47_14 H 0.936245 0.513687 0.148589
H48_14 H 0.914857 0.475797 0.175467
H49_14 H 0.994034 0.499987 0.376527
H50_14 H 0.986566 0.358498 0.074229
H57_14 H 0.724094 0.231256 0.107706
H61_14 H 0.755892 0.15298 0.0180773
H66_14 H 0.961401 0.308168 0.0924377
H70_14 H 0.807772 0.202186 0.16219
H71_14 H 0.816091 0.185298 0.206277
H72_14 H 0.811202 0.166331 0.15762
H77_14 H 0.841943 0.256795 0.112407
H81_23 H 0.58585 0.192555 0.181851
H83_14 H 0.929314 0.249867 0.115978
H84_14 H 0.810382 0.319885 0.142082
H85_14 H 0.752271 0.279947 0.154529
H88_14 H 0.933062 0.33802 0.0824595
H90_14 H 0.813088 0.266065 0.0412023
H93_14 H 0.953098 0.335287 0.206814
H95_14 H 0.955506 0.430211 0.212203
H97_14 H 0.931624 0.448188 0.151139
H99_14 H 0.956552 0.299729 0.154977
O12_14 O 0.989831 0.445503 0.974448
C57_14 C 0.964083 0.476978 0.993174
H38_14 H 0.964126 0.481369 0.960389
H60_14 H 0.729255 0.166413 0.9986
H62_14 H 0.772393 0.19087 0.9912
N13_15 N 0.630005 0.627427 0.297813
N14_15 N 0.561336 0.556570 0.297090
N15_15 N 0.632240 0.552326 0.072211
N16_15 N 0.628592 0.481641 0.075534
C17_15 C 0.649346 0.618211 0.317117
C18_15 C 0.633254 0.656763 0.308439
C19_15 C 0.531789 0.553853 0.304657
C20_15 C 0.568887 0.536782 0.318097
C21_15 C 0.601208 0.534933 0.059329
C22_15 C 0.645546 0.585426 0.075689
C23_15 C 0.602354 0.466161 0.100385
C24_15 C 0.631967 0.464535 0.044668
C33_15 C 0.671916 0.637161 0.346723
C34_15 C 0.655107 0.676892 0.337530
C35_15 C 0.509311 0.531979 0.332606
C36_15 C 0.546878 0.514257 0.346705
C37_15 C 0.583249 0.550176 0.052466
C38_15 C 0.629561 0.601632 0.069523
C39_15 C 0.579463 0.434044 0.095029
C40_15 C 0.609865 0.432089 0.037388
O5_15 O 0.691050 0.626272 0.365388
C45_15 C 0.674734 0.667381 0.357067
O6_15 O 0.47971 0.53020 0.33911
C46_15 C 0.517003 0.511581 0.354280
O7_15 O 0.550122 0.529948 0.040053
C47_15 C 0.597307 0.583843 0.056951
O8_15 O 0.552773 0.419426 0.121889
C48_15 C 0.582835 0.416521 0.063495
C52_15 C 0.543641 0.522594 0.000759
C53_15 C 0.526017 0.422952 0.112979
O13_15 O 0.519820 0.427592 0.077809
C58_15 C 0.507659 0.419887 0.154464
N29_15 N 0.701094 0.586753 0.094455
C93_15 C 0.732126 0.600392 0.107337
C94_15 C 0.687788 0.606547 0.090977
C95_15 C 0.750085 0.633594 0.114200
C96_15 C 0.703773 0.638738 0.097143
O21_15 O 0.783212 0.646493 0.126613
C97_15 C 0.736027 0.653203 0.109715
C98_15 C 0.789693 0.645620 0.165907
O22_15 O 0.778837 0.656497 0.192218
C99_15 C 0.810312 0.630749 0.173492
N30_15 N 0.704742 0.519716 0.091132
C100_15 C 0.730980 0.530474 0.066281
C101_15 C 0.701367 0.499235 0.121998
C102_15 C 0.753871 0.521248 0.071637
C103_15 C 0.723469 0.488891 0.129278
O23_15 O 0.780561 0.533320 0.044777
C104_15 C 0.750499 0.500353 0.103171
C105_15 C 0.807317 0.563602 0.053687
O24_15 O 0.813514 0.574439 0.088857
C106_15 C 0.825675 0.578895 0.012202
N31_15 N 0.627427 0.630005 0.202187
C107_15 C 0.618211 0.649346 0.182883
C108_15 C 0.656763 0.633254 0.191561
C109_15 C 0.637161 0.671916 0.153277
C110_15 C 0.676892 0.655107 0.162470
O25_15 O 0.626272 0.691050 0.134612
C111_15 C 0.667381 0.674734 0.142933
N32_15 N 0.556570 0.561336 0.202910
C112_15 C 0.553853 0.531789 0.195343
C113_15 C 0.536782 0.568887 0.181903
C114_15 C 0.531979 0.509311 0.167394
C115_15 C 0.514257 0.546878 0.153295
O26_15 O 0.53020 0.47971 0.16089
C116_15 C 0.511581 0.517003 0.145720
H1_15 H 0.590129 0.50861 0.0542596
H2_15 H 0.671353 0.599728 0.0842072
H3_15 H 0.64712 0.594709 0.309043
H5_15 H 0.617812 0.664713 0.293186
H13_15 H 0.525295 0.569789 0.287797
H14_15 H 0.592437 0.53819 0.312907
H21_15 H 0.692247 0.683029 0.38026
H22_15 H 0.61328 0.418938 0.0121379
H23_15 H 0.599399 0.479755 0.125464
H24_15 H 0.653218 0.477048 0.0245848
H25_15 H 0.483436 0.551812 0.348861
H27_15 H 0.5832 0.595981 0.0506884
H31_15 H 0.656824 0.700271 0.345023
H32_15 H 0.553736 0.498494 0.363315
H33_15 H 0.676684 0.605121 0.37952
H37_15 H 0.53552 0.474438 0.00447686
H39_15 H 0.499664 0.477868 0.00904706
H41_24 H 0.725399 0.439179 0.461897
H45_15 H 0.564589 0.39076 0.0589607
H46_15 H 0.499746 0.395921 0.168067
H47_15 H 0.486313 0.422558 0.148589
H48_15 H 0.524203 0.43906 0.175467
H49_15 H 0.500013 0.494047 0.376527
H50_15 H 0.641502 0.628068 0.074229
H57_15 H 0.768744 0.492838 0.107706
H61_15 H 0.84702 0.602912 0.0180773
H66_15 H 0.691832 0.653233 0.0924377
H67_15 H 0.594709 0.64712 0.190957
H70_15 H 0.797814 0.605586 0.16219
H71_15 H 0.814702 0.630793 0.206277
H72_15 H 0.833669 0.644871 0.15762
H77_15 H 0.743205 0.585148 0.112407
H81_24 H 0.807445 0.393295 0.181851
H83_15 H 0.750133 0.679447 0.115978
H84_15 H 0.680115 0.490497 0.142082
H85_15 H 0.720053 0.472324 0.154529
H88_15 H 0.66198 0.595042 0.0824595
H90_15 H 0.733935 0.547023 0.0412023
H92_15 H 0.494047 0.500013 0.123473
H93_15 H 0.664713 0.617812 0.206814
H94_15 H 0.605121 0.676684 0.12048
H95_15 H 0.569789 0.525295 0.212203
H96_15 H 0.683029 0.692247 0.11974
H97_15 H 0.551812 0.483436 0.151139
H98_15 H 0.53819 0.592437 0.187093
H99_15 H 0.700271 0.656824 0.154977
H100_15 H 0.498494 0.553736 0.136685
O12_15 O 0.554497 0.544327 0.974448
C57_15 C 0.523022 0.487104 0.993174
H38_15 H 0.518631 0.482758 0.960389
H60_15 H 0.833587 0.562841 0.9986
H62_15 H 0.80913 0.581523 0.9912
N13_16 N 0.039239 0.335911 0.631147
N14_16 N 0.110096 0.338099 0.630424
N15_16 N 0.114340 0.413247 0.405545
N16_16 N 0.185025 0.480284 0.408868
C17_16 C 0.048455 0.364468 0.650451
C18_16 C 0.009903 0.309824 0.641773
C19_16 C 0.112813 0.311269 0.637991
C20_16 C 0.129884 0.365438 0.651431
C21_16 C 0.131733 0.399608 0.392663
C22_16 C 0.081240 0.393453 0.409023
C23_16 C 0.200505 0.469526 0.433719
C24_16 C 0.202131 0.500765 0.378002
C33_16 C 0.029505 0.368088 0.680057
C35_16 C 0.134687 0.310665 0.665940
C36_16 C 0.152409 0.365954 0.680039
C37_16 C 0.116490 0.366406 0.385800
C38_16 C 0.065034 0.361262 0.402857
C39_16 C 0.232622 0.478752 0.428363
C40_16 C 0.234577 0.511109 0.370722
O5_16 O 0.040394 0.398111 0.698722
O6_16 O 0.13646 0.28284 0.67245
C46_16 C 0.155085 0.338755 0.687614
O7_16 O 0.136718 0.353507 0.373387
C47_16 C 0.082823 0.346797 0.390285
O8_16 O 0.247240 0.466680 0.455223
C48_16 C 0.250145 0.499647 0.396829
C52_16 C 0.144072 0.354380 0.334093
C53_16 C 0.243714 0.436398 0.446313
O12_16 O 0.122339 0.343503 0.307782
C57_16 C 0.179562 0.369251 0.326508
O13_16 O 0.239074 0.425561 0.411143
C58_16 C 0.246779 0.421105 0.487798
N29_16 N 0.079913 0.447674 0.427789
C93_16 C 0.066274 0.465067 0.440671
C94_16 C 0.060119 0.414574 0.424311
C95_16 C 0.033072 0.449824 0.447534
C96_16 C 0.027928 0.398368 0.430477
O21_16 O 0.020173 0.470052 0.459947
C97_16 C 0.013463 0.416157 0.443049
C98_16 C 0.021046 0.477406 0.499241
O22_16 O 0.010169 0.455673 0.525552
C99_16 C 0.035917 0.512896 0.506826
N30_16 N 0.146950 0.518359 0.424466
C100_16 C 0.136192 0.533839 0.399615
C101_16 C 0.167431 0.535465 0.455332
C102_16 C 0.145418 0.565956 0.404971
C103_16 C 0.177775 0.567911 0.462612
O23_16 O 0.133346 0.580574 0.378111
C104_16 C 0.166313 0.583479 0.436505
C105_16 C 0.103064 0.577048 0.387021
O24_16 O 0.092227 0.572408 0.422191
C106_16 C 0.087771 0.580113 0.345536
N31_16 N 0.036662 0.330756 0.535520
C107_16 C 0.017321 0.302199 0.516216
C108_16 C 0.033413 0.356843 0.524894
C110_16 C 0.011560 0.355119 0.495803
N32_16 N 0.105331 0.328568 0.536243
C112_16 C 0.134878 0.355398 0.528676
C113_16 C 0.097780 0.301229 0.515236
C114_16 C 0.157356 0.356002 0.500727
C115_16 C 0.119789 0.300713 0.486628
O26_16 O 0.18696 0.38383 0.49422
C116_16 C 0.149664 0.327912 0.479053
H1_16 H 0.158057 0.414852 0.387593
H2_16 H 0.0669383 0.404958 0.41754
H3_16 H 0.0719579 0.385745 0.642376
H5_16 H 0.00195339 0.286432 0.626519
H13_16 H 0.096878 0.28884 0.62113
H14_16 H 0.128476 0.38758 0.64624
H22_16 H 0.247729 0.527676 0.345471
H23_16 H 0.186912 0.452977 0.458798
H24_16 H 0.189618 0.509503 0.357918
H25_16 H 0.114854 0.264957 0.682194
H27_16 H 0.0706862 0.320553 0.384022
H32_16 H 0.168172 0.388575 0.696648
H33_16 H 0.0615453 0.404896 0.712853
H37_16 H 0.192228 0.394414 0.33781
H38_16 H 0.183909 0.369207 0.293723
H39_16 H 0.188798 0.355129 0.34238
H41_25 H 0.227487 0.619553 0.79523
H45_16 H 0.275906 0.507162 0.392294
H46_16 H 0.270745 0.437159 0.5014
H47_16 H 0.244108 0.397088 0.481923
H48_16 H 0.227607 0.418477 0.5088
H49_16 H 0.17262 0.339299 0.709861
H50_16 H 0.0385991 0.346767 0.407562
H57_16 H 0.173829 0.60924 0.441039
H60_16 H 0.103825 0.604079 0.331933
H61_16 H 0.0637546 0.577442 0.351411
H62_16 H 0.0851433 0.56094 0.324533
H66_16 H 0.0134341 0.371932 0.425771
H67_16 H 0.0195463 0.280922 0.524291
H70_16 H 0.0610811 0.525562 0.495523
H71_16 H 0.0358736 0.517242 0.539611
H72_16 H 0.0217959 0.522132 0.490953
H77_16 H 0.0815189 0.49139 0.44574
H81_25 H 0.273371 0.747483 0.515185
H84_16 H 0.17617 0.522952 0.475415
H85_16 H 0.194342 0.581062 0.487862
H88_16 H 0.071625 0.400272 0.415793
H90_16 H 0.119643 0.520245 0.374536
H92_16 H 0.166654 0.327368 0.456806
H93_16 H 0.0488552 0.380235 0.540147
H95_16 H 0.141372 0.377827 0.545536
H97_16 H 0.183231 0.40171 0.484472
H98_16 H 0.0742298 0.279087 0.520426
H99_16 H 0.00984303 0.376781 0.48831
H100_16 H 0.112931 0.278091 0.470018
C34_16 C 0.989774 0.311548 0.670864
C45_16 C 0.999285 0.340686 0.690401
C109_16 C 0.994751 0.298579 0.486610
O25_16 O 0.975617 0.268556 0.467945
C111_16 C 0.991933 0.325981 0.476266
H21_16 H 0.983638 0.342551 0.713594
H31_16 H 0.966395 0.289886 0.678356
H83_16 H 0.987219 0.404019 0.449312
H94_16 H 0.989983 0.261771 0.453814
H96_16 H 0.97442 0.324115 0.453073
N13_17 N 0.664089 0.703329 0.631147
N14_17 N 0.661901 0.771998 0.630424
N15_17 N 0.586753 0.701094 0.405545
N16_17 N 0.519716 0.704742 0.408868
C17_17 C 0.635532 0.683988 0.650451
C18_17 C 0.690176 0.700080 0.641773
C19_17 C 0.688731 0.801545 0.637991
C20_17 C 0.634562 0.764447 0.651431
C21_17 C 0.600392 0.732126 0.392663
C22_17 C 0.606547 0.687788 0.409023
C23_17 C 0.530474 0.730980 0.433719
C24_17 C 0.499235 0.701367 0.378002
C33_17 C 0.631912 0.661418 0.680057
C34_17 C 0.688452 0.678227 0.670864
C35_17 C 0.689335 0.824023 0.665940
C36_17 C 0.634046 0.786456 0.680039
C37_17 C 0.633594 0.750085 0.385800
C38_17 C 0.638738 0.703773 0.402857
C39_17 C 0.521248 0.753871 0.428363
C40_17 C 0.488891 0.723469 0.370722
O5_17 O 0.601889 0.642284 0.698722
C45_17 C 0.659314 0.658600 0.690401
O6_17 O 0.71716 0.85363 0.67245
C46_17 C 0.661245 0.816331 0.687614
O7_17 O 0.646493 0.783212 0.373387
C47_17 C 0.653203 0.736027 0.390285
O8_17 O 0.533320 0.780561 0.455223
C48_17 C 0.500353 0.750499 0.396829
C52_17 C 0.645620 0.789693 0.334093
C53_17 C 0.563602 0.807317 0.446313
O12_17 O 0.656497 0.778837 0.307782
C57_17 C 0.630749 0.810312 0.326508
O13_17 O 0.574439 0.813514 0.411143
C58_17 C 0.578895 0.825675 0.487798
N29_17 N 0.552326 0.632240 0.427789
C93_17 C 0.534933 0.601208 0.440671
C94_17 C 0.585426 0.645546 0.424311
C95_17 C 0.550176 0.583249 0.447534
C96_17 C 0.601632 0.629561 0.430477
O21_17 O 0.529948 0.550122 0.459947
C97_17 C 0.583843 0.597307 0.443049
C98_17 C 0.522594 0.543641 0.499241
O22_17 O 0.544327 0.554497 0.525552
C99_17 C 0.487104 0.523022 0.506826
N30_17 N 0.481641 0.628592 0.424466
C100_17 C 0.466161 0.602354 0.399615
C101_17 C 0.464535 0.631967 0.455332
C102_17 C 0.434044 0.579463 0.404971
C103_17 C 0.432089 0.609865 0.462612
O23_17 O 0.419426 0.552773 0.378111
C104_17 C 0.416521 0.582835 0.436505
C105_17 C 0.422952 0.526017 0.387021
O24_17 O 0.427592 0.519820 0.422191
C106_17 C 0.419887 0.507659 0.345536
N31_17 N 0.669244 0.705906 0.535520
C107_17 C 0.697801 0.715122 0.516216
C108_17 C 0.643157 0.676570 0.524894
C109_17 C 0.701421 0.696172 0.486610
C110_17 C 0.644881 0.656441 0.495803
O25_17 O 0.731444 0.707061 0.467945
C111_17 C 0.674019 0.665952 0.476266
N32_17 N 0.671432 0.776763 0.536243
C112_17 C 0.644602 0.779480 0.528676
C113_17 C 0.698771 0.796551 0.515236
C114_17 C 0.643998 0.801354 0.500727
C115_17 C 0.699287 0.819076 0.486628
O26_17 O 0.61617 0.80313 0.49422
C116_17 C 0.672088 0.821752 0.479053
H1_17 H 0.585148 0.743205 0.387593
H2_17 H 0.595042 0.66198 0.41754
H3_17 H 0.614255 0.686213 0.642376
H5_17 H 0.713568 0.715522 0.626519
H13_17 H 0.71116 0.808039 0.62113
H14_17 H 0.61242 0.740896 0.64624
H21_17 H 0.657449 0.641087 0.713594
H22_17 H 0.472324 0.720053 0.345471
H23_17 H 0.547023 0.733935 0.458798
H24_17 H 0.490497 0.680115 0.357918
H25_17 H 0.735043 0.849897 0.682194
H27_17 H 0.679447 0.750133 0.384022
H31_17 H 0.710114 0.67651 0.678356
H32_17 H 0.611425 0.779597 0.696648
H33_17 H 0.595104 0.656649 0.712853
H37_17 H 0.605586 0.797814 0.33781
H38_17 H 0.630793 0.814702 0.293723
H39_17 H 0.644871 0.833669 0.34238
H41_26 H 0.380447 0.607934 0.79523
H45_17 H 0.492838 0.768744 0.392294
H46_17 H 0.562841 0.833587 0.5014
H47_17 H 0.602912 0.84702 0.481923
H48_17 H 0.581523 0.80913 0.5088
H49_17 H 0.660701 0.833321 0.709861
H50_17 H 0.653233 0.691832 0.407562
H57_17 H 0.39076 0.564589 0.441039
H60_17 H 0.395921 0.499746 0.331933
H61_17 H 0.422558 0.486313 0.351411
H62_17 H 0.43906 0.524203 0.324533
H66_17 H 0.628068 0.641502 0.425771
H67_17 H 0.719078 0.738625 0.524291
H70_17 H 0.474438 0.53552 0.495523
H71_17 H 0.482758 0.518631 0.539611
H72_17 H 0.477868 0.499664 0.490953
H77_17 H 0.50861 0.590129 0.44574
H81_26 H 0.252517 0.525888 0.515185
H83_17 H 0.595981 0.5832 0.449312
H84_17 H 0.477048 0.653218 0.475415
H85_17 H 0.418938 0.61328 0.487862
H88_17 H 0.599728 0.671353 0.415793
H90_17 H 0.479755 0.599399 0.374536
H92_17 H 0.672632 0.839286 0.456806
H93_17 H 0.619765 0.66862 0.540147
H94_17 H 0.738229 0.728212 0.453814
H95_17 H 0.622173 0.763545 0.545536
H96_17 H 0.675885 0.650305 0.453073
H97_17 H 0.59829 0.781521 0.484472
H98_17 H 0.720913 0.795143 0.520426
H99_17 H 0.623219 0.633062 0.48831
H100_17 H 0.721909 0.834839 0.470018
C34_18 C 0.321773 0.010226 0.670864
C45_18 C 0.341400 0.000715 0.690401
C109_18 C 0.303828 0.005249 0.486610
O25_18 O 0.292939 0.024383 0.467945
C111_18 C 0.334048 0.008067 0.476266
H21_18 H 0.358913 0.016362 0.713594
H31_18 H 0.32349 0.0336046 0.678356
H83_18 H 0.4168 0.0127805 0.449312
H94_18 H 0.271788 0.0100174 0.453814
H96_18 H 0.349695 0.0255799 0.453073
N13_18 N 0.296671 0.960761 0.631147
N14_18 N 0.228002 0.889904 0.630424
N15_18 N 0.298906 0.885660 0.405545
N16_18 N 0.295258 0.814975 0.408868
C17_18 C 0.316012 0.951545 0.650451
C18_18 C 0.299920 0.990097 0.641773
C19_18 C 0.198455 0.887187 0.637991
C20_18 C 0.235553 0.870116 0.651431
C21_18 C 0.267874 0.868267 0.392663
C22_18 C 0.312212 0.918760 0.409023
C23_18 C 0.269020 0.799495 0.433719
C24_18 C 0.298633 0.797869 0.378002
C33_18 C 0.338582 0.970495 0.680057
C35_18 C 0.175977 0.865313 0.665940
C36_18 C 0.213544 0.847591 0.680039
C37_18 C 0.249915 0.883510 0.385800
C38_18 C 0.296227 0.934966 0.402857
C39_18 C 0.246129 0.767378 0.428363
C40_18 C 0.276531 0.765423 0.370722
O5_18 O 0.357716 0.959606 0.698722
O6_18 O 0.14637 0.86354 0.67245
C46_18 C 0.183669 0.844915 0.687614
O7_18 O 0.216788 0.863282 0.373387
C47_18 C 0.263973 0.917177 0.390285
O8_18 O 0.219439 0.752760 0.455223
C48_18 C 0.249501 0.749855 0.396829
C52_18 C 0.210307 0.855928 0.334093
C53_18 C 0.192683 0.756286 0.446313
O12_18 O 0.221163 0.877661 0.307782
C57_18 C 0.189688 0.820438 0.326508
O13_18 O 0.186486 0.760926 0.411143
C58_18 C 0.174325 0.753221 0.487798
N29_18 N 0.367760 0.920087 0.427789
C93_18 C 0.398792 0.933726 0.440671
C94_18 C 0.354454 0.939881 0.424311
C95_18 C 0.416751 0.966928 0.447534
C96_18 C 0.370439 0.972072 0.430477
O21_18 O 0.449878 0.979827 0.459947
C97_18 C 0.402693 0.986537 0.443049
C98_18 C 0.456359 0.978954 0.499241
O22_18 O 0.445503 0.989831 0.525552
C99_18 C 0.476978 0.964083 0.506826
N30_18 N 0.371408 0.853050 0.424466
C100_18 C 0.397646 0.863808 0.399615
C101_18 C 0.368033 0.832569 0.455332
C102_18 C 0.420537 0.854582 0.404971
C103_18 C 0.390135 0.822225 0.462612
O23_18 O 0.447227 0.866654 0.378111
C104_18 C 0.417165 0.833687 0.436505
C105_18 C 0.473983 0.896936 0.387021
O24_18 O 0.480180 0.907773 0.422191
C106_18 C 0.492341 0.912229 0.345536
N31_18 N 0.294094 0.963338 0.535520
C107_18 C 0.284878 0.982679 0.516216
C108_18 C 0.323430 0.966587 0.524894
C110_18 C 0.343559 0.988440 0.495803
N32_18 N 0.223237 0.894669 0.536243
C112_18 C 0.220520 0.865122 0.528676
C113_18 C 0.203449 0.902220 0.515236
C114_18 C 0.198646 0.842644 0.500727
C115_18 C 0.180924 0.880211 0.486628
O26_18 O 0.19687 0.81304 0.49422
C116_18 C 0.178248 0.850336 0.479053
H1_18 H 0.256795 0.841943 0.387593
H2_18 H 0.33802 0.933062 0.41754
H3_18 H 0.313787 0.928042 0.642376
H5_18 H 0.284478 0.998047 0.626519
H13_18 H 0.191961 0.903122 0.62113
H14_18 H 0.259104 0.871524 0.64624
H22_18 H 0.279947 0.752271 0.345471
H23_18 H 0.266065 0.813088 0.458798
H24_18 H 0.319885 0.810382 0.357918
H25_18 H 0.150103 0.885146 0.682194
H27_18 H 0.249867 0.929314 0.384022
H32_18 H 0.220403 0.831828 0.696648
H33_18 H 0.343351 0.938455 0.712853
H37_18 H 0.202186 0.807772 0.33781
H38_18 H 0.185298 0.816091 0.293723
H39_18 H 0.166331 0.811202 0.34238
H41_27 H 0.392066 0.772513 0.79523
H45_18 H 0.231256 0.724094 0.392294
H46_18 H 0.166413 0.729255 0.5014
H47_18 H 0.15298 0.755892 0.481923
H48_18 H 0.19087 0.772393 0.5088
H49_18 H 0.166679 0.82738 0.709861
H50_18 H 0.308168 0.961401 0.407562
H57_18 H 0.435411 0.826171 0.441039
H60_18 H 0.500254 0.896175 0.331933
H61_18 H 0.513687 0.936245 0.351411
H62_18 H 0.475797 0.914857 0.324533
H66_18 H 0.358498 0.986566 0.425771
H67_18 H 0.261375 0.980454 0.524291
H70_18 H 0.46448 0.938919 0.495523
H71_18 H 0.481369 0.964126 0.539611
H72_18 H 0.500336 0.978204 0.490953
H77_18 H 0.409871 0.918481 0.44574
H81_27 H 0.474112 0.726629 0.515185
H84_18 H 0.346782 0.82383 0.475415
H85_18 H 0.38672 0.805658 0.487862
H88_18 H 0.328647 0.928375 0.415793
H90_18 H 0.400601 0.880357 0.374536
H92_18 H 0.160714 0.833346 0.456806
H93_18 H 0.33138 0.951145 0.540147
H95_18 H 0.236455 0.858628 0.545536
H97_18 H 0.218479 0.816769 0.484472
H98_18 H 0.204857 0.92577 0.520426
H99_18 H 0.366938 0.990157 0.48831
H100_18 H 0.165161 0.887069 0.470018
H81_28 H 0.0808163 0.940038 0.651482
H41_28 H 0.952886 0.894154 0.371437
H41_29 H 0.105846 0.0587322 0.371437
H81_29 H 0.0599619 0.140778 0.651482
H41_30 H 0.941268 0.0471137 0.371437
H81_30 H 0.859222 0.919184 0.651482
H41_31 H 0.28622 0.560821 0.0381035
H81_31 H 0.41415 0.606705 0.318149
H41_32 H 0.439179 0.725399 0.0381035
H81_32 H 0.393295 0.807445 0.318149
H41_33 H 0.274601 0.71378 0.0381035
H81_33 H 0.192555 0.58585 0.318149
H41_34 H 0.619553 0.227487 0.70477
H81_34 H 0.747483 0.273371 0.984815
H41_35 H 0.772513 0.392066 0.70477
H81_35 H 0.726629 0.474112 0.984815
H41_36 H 0.607934 0.380447 0.70477
H81_36 H 0.525888 0.252517 0.984815
loop_
_geom_bond_atom_site_label_1
_geom_bond_atom_site_label_2
_geom_bond_site_symmetry_1
_geom_bond_site_symmetry_2
Nb1 C1 1_555 1_555
C1 N1 1_555 1_555
C2 Nb1 1_555 1_555
C3 Nb1 1_555 1_555
C4 Nb1 1_555 1_555
C5 Nb1 1_555 1_555
C6 Nb1 1_555 1_555
C7 Nb1 1_555 1_555
C8 Nb1 1_555 1_555
N1 Fe1 1_555 1_555
N2 C2 1_555 1_555
N3 C3 1_555 1_555
N4 C4 1_555 1_555
N6 C6 1_555 1_555
N7 C7 1_555 1_555
N8 C8 1_555 1_555
Fe2 N2 1_555 1_555
Fe3 N3 1_555 1_555
N11 Fe1 1_555 1_555
N12 Fe1 1_555 1_555
N13 Fe2 1_555 1_555
N14 Fe2 1_555 1_555
N15 Fe3 1_555 1_555
N16 Fe3 1_555 1_555
C13 N11 1_555 1_555
C14 N11 1_555 1_555
C15 N12 1_555 1_555
C16 N12 1_555 1_555
C17 N13 1_555 1_555
C18 N13 1_555 1_555
C19 N14 1_555 1_555
C20 N14 1_555 1_555
C21 N15 1_555 1_555
C22 N15 1_555 1_555
C23 N16 1_555 1_555
C24 N16 1_555 1_555
C29 C13 1_555 1_555
C30 C14 1_555 1_555
C31 C15 1_555 1_555
C32 C16 1_555 1_555
C35 C19 1_555 1_555
C37 C21 1_555 1_555
C38 C22 1_555 1_555
C39 C23 1_555 1_555
C40 C24 1_555 1_555
O3 C29 1_555 1_555
C43 C29 1_555 1_555
O4 C31 1_555 1_555
C44 C31 1_555 1_555
O7 C37 1_555 1_555
C47 C37 1_555 1_555
O8 C39 1_555 1_555
C48 C39 1_555 1_555
C49 O2 1_555 1_555
C50 O3 1_555 1_555
C51 O4 1_555 1_555
C52 O7 1_555 1_555
C53 O8 1_555 1_555
C54 C49 1_555 1_555
O10 C50 1_555 1_555
C55 C50 1_555 1_555
O11 C51 1_555 1_555
C56 C51 1_555 1_555
O12 C52 1_555 1_555
C57 C52 1_555 1_555
O13 C53 1_555 1_555
C58 C53 1_555 1_555
N29 Fe3 1_555 1_555
C93 N29 1_555 1_555
C94 N29 1_555 1_555
C95 C93 1_555 1_555
C96 C94 1_555 1_555
O21 C95 1_555 1_555
C97 C95 1_555 1_555
C98 O21 1_555 1_555
O22 C98 1_555 1_555
C99 C98 1_555 1_555
N30 Fe3 1_555 1_555
C100 N30 1_555 1_555
C101 N30 1_555 1_555
C102 C100 1_555 1_555
C103 C101 1_555 1_555
O23 C102 1_555 1_555
C104 C102 1_555 1_555
C105 O23 1_555 1_555
O24 C105 1_555 1_555
C106 C105 1_555 1_555
N31 Fe2 1_555 1_555
C107 N31 1_555 1_555
C108 N31 1_555 1_555
C109 C107 1_555 1_555
C110 C108 1_555 1_555
O25 C109 1_555 1_555
C111 C109 1_555 1_555
N32 Fe2 1_555 1_555
C112 N32 1_555 1_555
C113 N32 1_555 1_555
C114 C112 1_555 1_555
C115 C113 1_555 1_555
O26 C114 1_555 1_555
C116 C114 1_555 1_555
N33 Fe2 1_555 1_555
N34 Fe3 1_555 1_555
C30 C43 1_555 1_555
C32 C44 1_555 1_555
C38 C47 1_555 1_555
C40 C48 1_555 1_555
C96 C97 1_555 1_555
C103 C104 1_555 1_555
C110 C111 1_555 1_555
C115 C116 1_555 1_555
C21 H1 1_555 1_555
C22 H2 1_555 1_555
C17 H3 1_555 1_555
C18 H5 1_555 1_555
C11 H6 1_555 1_555
C14 H8 1_555 1_555
C13 H11 1_555 1_555
C15 H12 1_555 1_555
C19 H13 1_555 1_555
C20 H14 1_555 1_555
C55 H15 1_555 1_555
C55 H16 1_555 1_555
C55 H17 1_555 1_555
C43 H20 1_555 1_555
C40 H22 1_555 1_555
C23 H23 1_555 1_555
C24 H24 1_555 1_555
C47 H27 1_555 1_555
C54 H28 1_555 1_555
C54 H29 1_555 1_555
C54 H30 1_555 1_555
C56 H34 1_555 1_555
C56 H35 1_555 1_555
C56 H36 1_555 1_555
C57 H37 1_555 1_555
C57 H38 1_555 1_555
C57 H39 1_555 1_555
C30 H44 1_555 1_555
C48 H45 1_555 1_555
C58 H46 1_555 1_555
C58 H47 1_555 1_555
C58 H48 1_555 1_555
C38 H50 1_555 1_555
C104 H57 1_555 1_555
C106 H60 1_555 1_555
C106 H61 1_555 1_555
C106 H62 1_555 1_555
C96 H66 1_555 1_555
C107 H67 1_555 1_555
C99 H70 1_555 1_555
C99 H71 1_555 1_555
C99 H72 1_555 1_555
C93 H77 1_555 1_555
C97 H83 1_555 1_555
C101 H84 1_555 1_555
C103 H85 1_555 1_555
C94 H88 1_555 1_555
C100 H90 1_555 1_555
C116 H92 1_555 1_555
C108 H93 1_555 1_555
O25 H94 1_555 1_555
C112 H95 1_555 1_555
C111 H96 1_555 1_555
O26 H97 1_555 1_555
C113 H98 1_555 1_555
C110 H99 1_555 1_555
C115 H100 1_555 1_555
N9 C9 1_555 1_555
C9 C25 1_555 1_555
C10 N9 1_555 1_555
C12 N10 1_555 1_555
C25 O1 1_555 1_555
C26 C10 1_555 1_555
C28 C12 1_555 1_555
C41 C25 1_555 1_555
C42 C27 1_555 1_555
O5 C33 1_555 1_555
C45 C33 1_555 1_555
C60 Nb2 1_555 1_555
C61 Nb2 1_555 1_555
C62 Nb2 1_555 1_555
C63 Nb2 1_555 1_555
C65 Nb2 1_555 1_555
C66 Nb2 1_555 1_555
N18 C60 1_555 1_555
N19 C61 1_555 1_555
N23 C65 1_555 1_555
N24 C66 1_555 1_555
Fe6 N18 1_555 1_555
Fe7 N19 1_555 1_555
C26 C41 1_555 1_555
C28 C42 1_555 1_555
C34 C45 1_555 1_555
C36 C46 1_555 1_555
C62 N20 1_555 1_555
C10 H7 1_555 1_555
C9 H9 1_555 1_555
C12 H10 1_555 1_555
C42 H18 1_555 1_555
C28 H19 1_555 1_555
C45 H21 1_555 1_555
O6 H25 1_555 1_555
C34 H31 1_555 1_555
C36 H32 1_555 1_555
O5 H33 1_555 1_555
O1 H41 1_555 1_555
C26 H42 1_555 1_555
C41 H43 1_555 1_555
C46 H49 1_555 1_555
C92 H54 1_555 1_555
C92 H55 1_555 1_555
C92 H56 1_555 1_555
N25 C67 1_555 1_555
C67 C75 1_555 1_555
C68 N25 1_555 1_555
C70 N26 1_555 1_555
C75 O14 1_555 1_555
C76 C68 1_555 1_555
C78 C70 1_555 1_555
C83 C75 1_555 1_555
C84 C77 1_555 1_555
C76 C83 1_555 1_555
C78 C84 1_555 1_555
C67 H52 1_555 1_555
C84 H73 1_555 1_555
C68 H78 1_555 1_555
C70 H80 1_555 1_555
O14 H81 1_555 1_555
C83 H82 1_555 1_555
C78 H87 1_555 1_555
C59 N17 1_555 1_555
N17 Fe4 1_555 1_555
N22 C64 1_555 1_555
N27 Fe4 1_555 1_555
N28 Fe4 1_555 1_555
C71 N27 1_555 1_555
C72 N27 1_555 1_555
C73 N28 1_555 1_555
C74 N28 1_555 1_555
C79 C71 1_555 1_555
C80 C72 1_555 1_555
C81 C73 1_555 1_555
C82 C74 1_555 1_555
O16 C79 1_555 1_555
C85 C79 1_555 1_555
O17 C81 1_555 1_555
C86 C81 1_555 1_555
C87 O15 1_555 1_555
C88 O16 1_555 1_555
C89 O17 1_555 1_555
C90 C87 1_555 1_555
O19 C88 1_555 1_555
C91 C88 1_555 1_555
C80 C85 1_555 1_555
C82 C86 1_555 1_555
C80 H53 1_555 1_555
C85 H58 1_555 1_555
C91 H63 1_555 1_555
C91 H64 1_555 1_555
C91 H65 1_555 1_555
C69 H68 1_555 1_555
C90 H74 1_555 1_555
C90 H75 1_555 1_555
C90 H76 1_555 1_555
C72 H79 1_555 1_555
C71 H86 1_555 1_555
C73 H89 1_555 1_555
N25_2 C67_2 1_555 1_555
C67_2 C75_2 1_555 1_555
C68_2 N25_2 1_555 1_555
C70_2 N26_2 1_555 1_555
C75_2 O14_2 1_555 1_555
C76_2 C68_2 1_555 1_555
C78_2 C70_2 1_555 1_555
C83_2 C75_2 1_555 1_555
C84_2 C77_2 1_555 1_555
C76_2 C83_2 1_555 1_555
C78_2 C84_2 1_555 1_555
C67_2 H52_2 1_555 1_555
C84_2 H73_2 1_555 1_555
C68_2 H78_2 1_555 1_555
C70_2 H80_2 1_555 1_555
O14_2 H81_2 1_555 1_555
C83_2 H82_2 1_555 1_555
C78_2 H87_2 1_555 1_555
C59_2 N17_2 1_555 1_555
N17_2 Fe5 1_555 1_555
N22_2 C64_2 1_555 1_555
N27_2 Fe5 1_555 1_555
N28_2 Fe5 1_555 1_555
C71_2 N27_2 1_555 1_555
C72_2 N27_2 1_555 1_555
C73_2 N28_2 1_555 1_555
C74_2 N28_2 1_555 1_555
C79_2 C71_2 1_555 1_555
C80_2 C72_2 1_555 1_555
C81_2 C73_2 1_555 1_555
C82_2 C74_2 1_555 1_555
O16_2 C79_2 1_555 1_555
C85_2 C79_2 1_555 1_555
O17_2 C81_2 1_555 1_555
C86_2 C81_2 1_555 1_555
C87_2 O15_2 1_555 1_555
C88_2 O16_2 1_555 1_555
C89_2 O17_2 1_555 1_555
C90_2 C87_2 1_555 1_555
O19_2 C88_2 1_555 1_555
C91_2 C88_2 1_555 1_555
C80_2 C85_2 1_555 1_555
C82_2 C86_2 1_555 1_555
C86_2 H51_2 1_555 1_555
C80_2 H53_2 1_555 1_555
C85_2 H58_2 1_555 1_555
C91_2 H63_2 1_555 1_555
C91_2 H64_2 1_555 1_555
C91_2 H65_2 1_555 1_555
C69_2 H68_2 1_555 1_555
C82_2 H69_2 1_555 1_555
C90_2 H74_2 1_555 1_555
C90_2 H75_2 1_555 1_555
C90_2 H76_2 1_555 1_555
C72_2 H79_2 1_555 1_555
C71_2 H86_2 1_555 1_555
C73_2 H89_2 1_555 1_555
C1_2 N1_2 1_555 1_555
N1_2 Fe1_2 1_555 1_555
N6_2 C6_2 1_555 1_555
N11_2 Fe1_2 1_555 1_555
N12_2 Fe1_2 1_555 1_555
C13_2 N11_2 1_555 1_555
C14_2 N11_2 1_555 1_555
C15_2 N12_2 1_555 1_555
C16_2 N12_2 1_555 1_555
C29_2 C13_2 1_555 1_555
C30_2 C14_2 1_555 1_555
C31_2 C15_2 1_555 1_555
C32_2 C16_2 1_555 1_555
O3_2 C29_2 1_555 1_555
C43_2 C29_2 1_555 1_555
O4_2 C31_2 1_555 1_555
C44_2 C31_2 1_555 1_555
C49_2 O2_2 1_555 1_555
C50_2 O3_2 1_555 1_555
C51_2 O4_2 1_555 1_555
C54_2 C49_2 1_555 1_555
O10_2 C50_2 1_555 1_555
C55_2 C50_2 1_555 1_555
N29_2 Fe3_2 1_555 1_555
C93_2 N29_2 1_555 1_555
C94_2 N29_2 1_555 1_555
C95_2 C93_2 1_555 1_555
C96_2 C94_2 1_555 1_555
O21_2 C95_2 1_555 1_555
C97_2 C95_2 1_555 1_555
C98_2 O21_2 1_555 1_555
O22_2 C98_2 1_555 1_555
C99_2 C98_2 1_555 1_555
N30_2 Fe3_2 1_555 1_555
C100_2 N30_2 1_555 1_555
C101_2 N30_2 1_555 1_555
C102_2 C100_2 1_555 1_555
C103_2 C101_2 1_555 1_555
O23_2 C102_2 1_555 1_555
C104_2 C102_2 1_555 1_555
C105_2 O23_2 1_555 1_555
O24_2 C105_2 1_555 1_555
C106_2 C105_2 1_555 1_555
N34_2 Fe3_2 1_555 1_555
C30_2 C43_2 1_555 1_555
C32_2 C44_2 1_555 1_555
C96_2 C97_2 1_555 1_555
C103_2 C104_2 1_555 1_555
C110_2 C111_2 1_555 1_555
C11_2 H6_2 1_555 1_555
C14_2 H8_2 1_555 1_555
C13_2 H11_2 1_555 1_555
C15_2 H12_2 1_555 1_555
C55_2 H15_2 1_555 1_555
C55_2 H16_2 1_555 1_555
C55_2 H17_2 1_555 1_555
C43_2 H20_2 1_555 1_555
C54_2 H28_2 1_555 1_555
C54_2 H29_2 1_555 1_555
C54_2 H30_2 1_555 1_555
C30_2 H44_2 1_555 1_555
C104_2 H57_2 1_555 1_555
C106_2 H60_2 1_555 1_555
C106_2 H61_2 1_555 1_555
C106_2 H62_2 1_555 1_555
C96_2 H66_2 1_555 1_555
C99_2 H70_2 1_555 1_555
C99_2 H71_2 1_555 1_555
C99_2 H72_2 1_555 1_555
C93_2 H77_2 1_555 1_555
C97_2 H83_2 1_555 1_555
C101_2 H84_2 1_555 1_555
C103_2 H85_2 1_555 1_555
C100_2 H90_2 1_555 1_555
C111_2 H96_2 1_555 1_555
C110_2 H99_2 1_555 1_555
N9_2 C9_2 1_555 1_555
C9_2 C25_2 1_555 1_555
C10_2 N9_2 1_555 1_555
C12_2 N10_2 1_555 1_555
C25_2 O1_2 1_555 1_555
C26_2 C10_2 1_555 1_555
C28_2 C12_2 1_555 1_555
C41_2 C25_2 1_555 1_555
C42_2 C27_2 1_555 1_555
O5_2 C33_2 1_555 1_555
C45_2 C33_2 1_555 1_555
C60_2 Nb2_2 1_555 1_555
C61_2 Nb2_2 1_555 1_555
C62_2 Nb2_2 1_555 1_555
C63_2 Nb2_2 1_555 1_555
C65_2 Nb2_2 1_555 1_555
C66_2 Nb2_2 1_555 1_555
N18_2 C60_2 1_555 1_555
N19_2 C61_2 1_555 1_555
N23_2 C65_2 1_555 1_555
N24_2 C66_2 1_555 1_555
Fe6_2 N18_2 1_555 1_555
Fe7_4 N19_2 1_555 1_555
C26_2 C41_2 1_555 1_555
C28_2 C42_2 1_555 1_555
C62_2 N20_2 1_555 1_555
C10_2 H7_2 1_555 1_555
C9_2 H9_2 1_555 1_555
C12_2 H10_2 1_555 1_555
C42_2 H18_2 1_555 1_555
C28_2 H19_2 1_555 1_555
C45_2 H21_2 1_555 1_555
O5_2 H33_2 1_555 1_555
O1_2 H41_2 1_555 1_555
C41_2 H43_2 1_555 1_555
C92_2 H54_2 1_555 1_555
C92_2 H55_2 1_555 1_555
C92_2 H56_2 1_555 1_555
C2_2 Nb1_2 1_555 1_555
C3_2 Nb1_2 1_555 1_555
C4_2 Nb1_2 1_555 1_555
C5_2 Nb1_2 1_555 1_555
C7_2 Nb1_2 1_555 1_555
C8_2 Nb1_2 1_555 1_555
N2_2 C2_2 1_555 1_555
N3_2 C3_2 1_555 1_555
N4_2 C4_2 1_555 1_555
N7_2 C7_2 1_555 1_555
N8_2 C8_2 1_555 1_555
Fe2_2 N2_2 1_555 1_555
Fe3_3 N3_2 1_555 1_555
N13_2 Fe2_2 1_555 1_555
N14_2 Fe2_2 1_555 1_555
N15_2 Fe3_3 1_555 1_555
N16_2 Fe3_3 1_555 1_555
C17_2 N13_2 1_555 1_555
C18_2 N13_2 1_555 1_555
C19_2 N14_2 1_555 1_555
C20_2 N14_2 1_555 1_555
C21_2 N15_2 1_555 1_555
C22_2 N15_2 1_555 1_555
C23_2 N16_2 1_555 1_555
C24_2 N16_2 1_555 1_555
C35_2 C19_2 1_555 1_555
C37_2 C21_2 1_555 1_555
C38_2 C22_2 1_555 1_555
C39_2 C23_2 1_555 1_555
C40_2 C24_2 1_555 1_555
O7_2 C37_2 1_555 1_555
C47_2 C37_2 1_555 1_555
O8_2 C39_2 1_555 1_555
C48_2 C39_2 1_555 1_555
C52_2 O7_2 1_555 1_555
C53_2 O8_2 1_555 1_555
O12_2 C52_2 1_555 1_555
C57_2 C52_2 1_555 1_555
O13_2 C53_2 1_555 1_555
C58_2 C53_2 1_555 1_555
N31_2 Fe2_2 1_555 1_555
C107_2 N31_2 1_555 1_555
C108_2 N31_2 1_555 1_555
C109_2 C107_2 1_555 1_555
O25_2 C109_2 1_555 1_555
N32_2 Fe2_2 1_555 1_555
C112_2 N32_2 1_555 1_555
C113_2 N32_2 1_555 1_555
C114_2 C112_2 1_555 1_555
C115_2 C113_2 1_555 1_555
O26_2 C114_2 1_555 1_555
C116_2 C114_2 1_555 1_555
N33_2 Fe2_2 1_555 1_555
C38_2 C47_2 1_555 1_555
C40_2 C48_2 1_555 1_555
C115_2 C116_2 1_555 1_555
C21_2 H1_2 1_555 1_555
C17_2 H3_2 1_555 1_555
C18_2 H5_2 1_555 1_555
C19_2 H13_2 1_555 1_555
C20_2 H14_2 1_555 1_555
C40_2 H22_2 1_555 1_555
C23_2 H23_2 1_555 1_555
C24_2 H24_2 1_555 1_555
C47_2 H27_2 1_555 1_555
C56_2 H34_2 1_555 1_555
C56_2 H35_2 1_555 1_555
C56_2 H36_2 1_555 1_555
C57_2 H37_2 1_555 1_555
C57_2 H38_2 1_555 1_555
C57_2 H39_2 1_555 1_555
C48_2 H45_2 1_555 1_555
C58_2 H46_2 1_555 1_555
C58_2 H47_2 1_555 1_555
C58_2 H48_2 1_555 1_555
C38_2 H50_2 1_555 1_555
C107_2 H67_2 1_555 1_555
C116_2 H92_2 1_555 1_555
C108_2 H93_2 1_555 1_555
O25_2 H94_2 1_555 1_555
C112_2 H95_2 1_555 1_555
O26_2 H97_2 1_555 1_555
C113_2 H98_2 1_555 1_555
C115_2 H100_2 1_555 1_555
C36_2 C46_2 1_555 1_555
O6_2 H25_2 1_555 1_555
C34_2 H31_2 1_555 1_555
C36_2 H32_2 1_555 1_555
C46_2 H49_2 1_555 1_555
C2_3 Nb1_3 1_555 1_555
C3_3 Nb1_3 1_555 1_555
C4_3 Nb1_3 1_555 1_555
C5_3 Nb1_3 1_555 1_555
C7_3 Nb1_3 1_555 1_555
C8_3 Nb1_3 1_555 1_555
N2_3 C2_3 1_555 1_555
N3_3 C3_3 1_555 1_555
N35 C4_3 1_555 1_555
N7_3 C7_3 1_555 1_555
N8_3 C8_3 1_555 1_555
Fe2_3 N2_3 1_555 1_555
Fe3_4 N3_3 1_555 1_555
N13_3 Fe2_3 1_555 1_555
N14_3 Fe2_3 1_555 1_555
N15_3 Fe3_4 1_555 1_555
N16_3 Fe3_4 1_555 1_555
C17_3 N13_3 1_555 1_555
C18_3 N13_3 1_555 1_555
C19_3 N14_3 1_555 1_555
C20_3 N14_3 1_555 1_555
C21_3 N15_3 1_555 1_555
C22_3 N15_3 1_555 1_555
C23_3 N16_3 1_555 1_555
C24_3 N16_3 1_555 1_555
C35_3 C19_3 1_555 1_555
C37_3 C21_3 1_555 1_555
C38_3 C22_3 1_555 1_555
C39_3 C23_3 1_555 1_555
C40_3 C24_3 1_555 1_555
O7_3 C37_3 1_555 1_555
C47_3 C37_3 1_555 1_555
O8_3 C39_3 1_555 1_555
C48_3 C39_3 1_555 1_555
C52_3 O7_3 1_555 1_555
C53_3 O8_3 1_555 1_555
O12_3 C52_3 1_555 1_555
C57_3 C52_3 1_555 1_555
O13_3 C53_3 1_555 1_555
C58_3 C53_3 1_555 1_555
N31_3 Fe2_3 1_555 1_555
C107_3 N31_3 1_555 1_555
C108_3 N31_3 1_555 1_555
C109_3 C107_3 1_555 1_555
O25_3 C109_3 1_555 1_555
N32_3 Fe2_3 1_555 1_555
C112_3 N32_3 1_555 1_555
C113_3 N32_3 1_555 1_555
C114_3 C112_3 1_555 1_555
C115_3 C113_3 1_555 1_555
O26_3 C114_3 1_555 1_555
C116_3 C114_3 1_555 1_555
N33_3 Fe2_3 1_555 1_555
C38_3 C47_3 1_555 1_555
C40_3 C48_3 1_555 1_555
C115_3 C116_3 1_555 1_555
C21_3 H1_3 1_555 1_555
C17_3 H3_3 1_555 1_555
C18_3 H5_3 1_555 1_555
C19_3 H13_3 1_555 1_555
C20_3 H14_3 1_555 1_555
C40_3 H22_3 1_555 1_555
C23_3 H23_3 1_555 1_555
C24_3 H24_3 1_555 1_555
C47_3 H27_3 1_555 1_555
C56_3 H34_3 1_555 1_555
C56_3 H35_3 1_555 1_555
C56_3 H36_3 1_555 1_555
C57_3 H37_3 1_555 1_555
C57_3 H38_3 1_555 1_555
C57_3 H39_3 1_555 1_555
C48_3 H45_3 1_555 1_555
C58_3 H46_3 1_555 1_555
C58_3 H47_3 1_555 1_555
C58_3 H48_3 1_555 1_555
C38_3 H50_3 1_555 1_555
C107_3 H67_3 1_555 1_555
C116_3 H92_3 1_555 1_555
C108_3 H93_3 1_555 1_555
O25_3 H94_3 1_555 1_555
C112_3 H95_3 1_555 1_555
O26_3 H97_3 1_555 1_555
C113_3 H98_3 1_555 1_555
C115_3 H100_3 1_555 1_555
C36_3 C46_3 1_555 1_555
O6_3 H25_3 1_555 1_555
C34_3 H31_3 1_555 1_555
C36_3 H32_3 1_555 1_555
C46_3 H49_3 1_555 1_555
C1_3 N1_3 1_555 1_555
N1_3 Fe1_3 1_555 1_555
N6_3 C6_3 1_555 1_555
N11_3 Fe1_3 1_555 1_555
N12_3 Fe1_3 1_555 1_555
C13_3 N11_3 1_555 1_555
C14_3 N11_3 1_555 1_555
C15_3 N12_3 1_555 1_555
C16_3 N12_3 1_555 1_555
C29_3 C13_3 1_555 1_555
C30_3 C14_3 1_555 1_555
C31_3 C15_3 1_555 1_555
C32_3 C16_3 1_555 1_555
O3_3 C29_3 1_555 1_555
C43_3 C29_3 1_555 1_555
O4_3 C31_3 1_555 1_555
C44_3 C31_3 1_555 1_555
C49_3 O2_3 1_555 1_555
C50_3 O3_3 1_555 1_555
C51_3 O4_3 1_555 1_555
C54_3 C49_3 1_555 1_555
O10_3 C50_3 1_555 1_555
C55_3 C50_3 1_555 1_555
N25_3 C67_3 1_555 1_555
C67_3 C75_3 1_555 1_555
C68_3 N25_3 1_555 1_555
C70_3 N26_3 1_555 1_555
C75_3 O14_3 1_555 1_555
C76_3 C68_3 1_555 1_555
C78_3 C70_3 1_555 1_555
C83_3 C75_3 1_555 1_555
C84_3 C77_3 1_555 1_555
N29_3 Fe3_5 1_555 1_555
C93_3 N29_3 1_555 1_555
C94_3 N29_3 1_555 1_555
C95_3 C93_3 1_555 1_555
C96_3 C94_3 1_555 1_555
O21_3 C95_3 1_555 1_555
C97_3 C95_3 1_555 1_555
C98_3 O21_3 1_555 1_555
O22_3 C98_3 1_555 1_555
C99_3 C98_3 1_555 1_555
N30_3 Fe3_5 1_555 1_555
C100_3 N30_3 1_555 1_555
C101_3 N30_3 1_555 1_555
C102_3 C100_3 1_555 1_555
C103_3 C101_3 1_555 1_555
O23_3 C102_3 1_555 1_555
C104_3 C102_3 1_555 1_555
C105_3 O23_3 1_555 1_555
O24_3 C105_3 1_555 1_555
C106_3 C105_3 1_555 1_555
N34_3 Fe3_5 1_555 1_555
C30_3 C43_3 1_555 1_555
C32_3 C44_3 1_555 1_555
C76_3 C83_3 1_555 1_555
C78_3 C84_3 1_555 1_555
C96_3 C97_3 1_555 1_555
C103_3 C104_3 1_555 1_555
C110_3 C111_3 1_555 1_555
C11_3 H6_3 1_555 1_555
C14_3 H8_3 1_555 1_555
C13_3 H11_3 1_555 1_555
C15_3 H12_3 1_555 1_555
C55_3 H15_3 1_555 1_555
C55_3 H16_3 1_555 1_555
C55_3 H17_3 1_555 1_555
C43_3 H20_3 1_555 1_555
C44_3 H26_3 1_555 1_555
C54_3 H28_3 1_555 1_555
C54_3 H29_3 1_555 1_555
C54_3 H30_3 1_555 1_555
C32_3 H40_3 1_555 1_555
C30_3 H44_3 1_555 1_555
C67_3 H52_3 1_555 1_555
C104_3 H57_3 1_555 1_555
C76_3 H59_3 1_555 1_555
C106_3 H60_3 1_555 1_555
C106_3 H61_3 1_555 1_555
C106_3 H62_3 1_555 1_555
C96_3 H66_3 1_555 1_555
C99_3 H70_3 1_555 1_555
C99_3 H71_3 1_555 1_555
C99_3 H72_3 1_555 1_555
C84_3 H73_3 1_555 1_555
C93_3 H77_3 1_555 1_555
C68_3 H78_3 1_555 1_555
C70_3 H80_3 1_555 1_555
O14_3 H81_3 1_555 1_555
C83_3 H82_3 1_555 1_555
C97_3 H83_3 1_555 1_555
C101_3 H84_3 1_555 1_555
C103_3 H85_3 1_555 1_555
C78_3 H87_3 1_555 1_555
C100_3 H90_3 1_555 1_555
C111_3 H96_3 1_555 1_555
C110_3 H99_3 1_555 1_555
N9_3 C9_3 1_555 1_555
C9_3 C25_3 1_555 1_555
C10_3 N9_3 1_555 1_555
C12_3 N10_3 1_555 1_555
C25_3 O1_3 1_555 1_555
C26_3 C10_3 1_555 1_555
C28_3 C12_3 1_555 1_555
C41_3 C25_3 1_555 1_555
C42_3 C27_3 1_555 1_555
O5_3 C33_3 1_555 1_555
C45_3 C33_3 1_555 1_555
Nb2_3 C59_3 1_555 1_555
C59_3 N17_3 1_555 1_555
C60_3 Nb2_3 1_555 1_555
C61_3 Nb2_3 1_555 1_555
C62_3 Nb2_3 1_555 1_555
C63_3 Nb2_3 1_555 1_555
C64_3 Nb2_3 1_555 1_555
C65_3 Nb2_3 1_555 1_555
C66_3 Nb2_3 1_555 1_555
N17_3 Fe5_2 1_555 1_555
N18_3 C60_3 1_555 1_555
N19_3 C61_3 1_555 1_555
N22_3 C64_3 1_555 1_555
N23_3 C65_3 1_555 1_555
N24_3 C66_3 1_555 1_555
N27_3 Fe5_2 1_555 1_555
N28_3 Fe5_2 1_555 1_555
C71_3 N27_3 1_555 1_555
C72_3 N27_3 1_555 1_555
C73_3 N28_3 1_555 1_555
C74_3 N28_3 1_555 1_555
C79_3 C71_3 1_555 1_555
C80_3 C72_3 1_555 1_555
C81_3 C73_3 1_555 1_555
C82_3 C74_3 1_555 1_555
O16_3 C79_3 1_555 1_555
C85_3 C79_3 1_555 1_555
O17_3 C81_3 1_555 1_555
C86_3 C81_3 1_555 1_555
C87_3 O15_3 1_555 1_555
C88_3 O16_3 1_555 1_555
C89_3 O17_3 1_555 1_555
C90_3 C87_3 1_555 1_555
O19_3 C88_3 1_555 1_555
C91_3 C88_3 1_555 1_555
O20_3 C89_3 1_555 1_555
C92_3 C89_3 1_555 1_555
Fe6_3 N18_3 1_555 1_555
Fe7_5 N19_3 1_555 1_555
C26_3 C41_3 1_555 1_555
C28_3 C42_3 1_555 1_555
C62_3 N20_3 1_555 1_555
C80_3 C85_3 1_555 1_555
C82_3 C86_3 1_555 1_555
C10_3 H7_3 1_555 1_555
C9_3 H9_3 1_555 1_555
C12_3 H10_3 1_555 1_555
C42_3 H18_3 1_555 1_555
C28_3 H19_3 1_555 1_555
C45_3 H21_3 1_555 1_555
O5_3 H33_3 1_555 1_555
O1_3 H41_3 1_555 1_555
C41_3 H43_3 1_555 1_555
C80_3 H53_3 1_555 1_555
C92_3 H54_3 1_555 1_555
C92_3 H55_3 1_555 1_555
C92_3 H56_3 1_555 1_555
C85_3 H58_3 1_555 1_555
C91_3 H63_3 1_555 1_555
C91_3 H64_3 1_555 1_555
C91_3 H65_3 1_555 1_555
C69_3 H68_3 1_555 1_555
C90_3 H74_3 1_555 1_555
C90_3 H75_3 1_555 1_555
C90_3 H76_3 1_555 1_555
C72_3 H79_3 1_555 1_555
C71_3 H86_3 1_555 1_555
C73_3 H89_3 1_555 1_555
C34_4 C18_4 1_555 1_555
C35_4 C19_4 1_555 1_555
O6_4 C35_4 1_555 1_555
N31_4 Fe2_4 1_555 1_555
C107_4 N31_4 1_555 1_555
C109_4 C107_4 1_555 1_555
O25_4 C109_4 1_555 1_555
C111_4 C109_4 1_555 1_555
N32_4 Fe2_4 1_555 1_555
C113_4 N32_4 1_555 1_555
C115_4 C113_4 1_555 1_555
N33_4 Fe2_4 1_555 1_555
C115_4 C116_4 1_555 1_555
C18_4 H5_4 1_555 1_555
C19_4 H13_4 1_555 1_555
O6_4 H25_4 1_555 1_555
C34_4 H31_4 1_555 1_555
C107_4 H67_4 1_555 1_555
C116_4 H92_4 1_555 1_555
O25_4 H94_4 1_555 1_555
C111_4 H96_4 1_555 1_555
C113_4 H98_4 1_555 1_555
C115_4 H100_4 1_555 1_555
C57_4 H38_4 1_555 1_555
Nb1_4 C1_4 1_555 1_555
C1_4 N1_4 1_555 1_555
C2_4 Nb1_4 1_555 1_555
C3_4 Nb1_4 1_555 1_555
C4_4 Nb1_4 1_555 1_555
C5_4 Nb1_4 1_555 1_555
C6_4 Nb1_4 1_555 1_555
C7_4 Nb1_4 1_555 1_555
C8_4 Nb1_4 1_555 1_555
N1_4 Fe1_4 1_555 1_555
N2_4 C2_4 1_555 1_555
N3_4 C3_4 1_555 1_555
N4_3 C4_4 1_555 1_555
N5_4 C5_4 1_555 1_555
N6_4 C6_4 1_555 1_555
N7_4 C7_4 1_555 1_555
N8_4 C8_4 1_555 1_555
Fe1_4 N9_4 1_555 1_555
Fe2_5 N2_4 1_555 1_555
Fe3_6 N3_4 1_555 1_555
N9_4 C9_4 1_555 1_555
N10_4 Fe1_4 1_555 1_555
N11_4 Fe1_4 1_555 1_555
N12_4 Fe1_4 1_555 1_555
N13_4 Fe2_5 1_555 1_555
N14_4 Fe2_5 1_555 1_555
N15_4 Fe3_6 1_555 1_555
N16_4 Fe3_6 1_555 1_555
C9_4 C25_4 1_555 1_555
C10_4 N9_4 1_555 1_555
C11_4 N10_4 1_555 1_555
C12_4 N10_4 1_555 1_555
C13_4 N11_4 1_555 1_555
C14_4 N11_4 1_555 1_555
C15_4 N12_4 1_555 1_555
C16_4 N12_4 1_555 1_555
C17_4 N13_4 1_555 1_555
C20_4 N14_4 1_555 1_555
C21_4 N15_4 1_555 1_555
C22_4 N15_4 1_555 1_555
C23_4 N16_4 1_555 1_555
C24_4 N16_4 1_555 1_555
C25_4 O1_4 1_555 1_555
C26_4 C10_4 1_555 1_555
C27_4 C11_4 1_555 1_555
C28_4 C12_4 1_555 1_555
C29_4 C13_4 1_555 1_555
C30_4 C14_4 1_555 1_555
C31_4 C15_4 1_555 1_555
C32_4 C16_4 1_555 1_555
C33_4 C17_4 1_555 1_555
C36_4 C20_4 1_555 1_555
C37_4 C21_4 1_555 1_555
C38_4 C22_4 1_555 1_555
C39_4 C23_4 1_555 1_555
C40_4 C24_4 1_555 1_555
C41_4 C25_4 1_555 1_555
O2_4 C27_4 1_555 1_555
C42_4 C27_4 1_555 1_555
O3_4 C29_4 1_555 1_555
C43_4 C29_4 1_555 1_555
O4_4 C31_4 1_555 1_555
C44_4 C31_4 1_555 1_555
O5_4 C33_4 1_555 1_555
C45_4 C33_4 1_555 1_555
O7_4 C37_4 1_555 1_555
C47_4 C37_4 1_555 1_555
O8_4 C39_4 1_555 1_555
C48_4 C39_4 1_555 1_555
C49_4 O2_4 1_555 1_555
C50_4 O3_4 1_555 1_555
C51_4 O4_4 1_555 1_555
C52_4 O7_4 1_555 1_555
C53_4 O8_4 1_555 1_555
O9_4 C49_4 1_555 1_555
C54_4 C49_4 1_555 1_555
O10_4 C50_4 1_555 1_555
C55_4 C50_4 1_555 1_555
O11_4 C51_4 1_555 1_555
C56_4 C51_4 1_555 1_555
O13_4 C53_4 1_555 1_555
C58_4 C53_4 1_555 1_555
Nb2_4 C59_4 1_555 1_555
C59_4 N17_4 1_555 1_555
C60_4 Nb2_4 1_555 1_555
C61_4 Nb2_4 1_555 1_555
C62_4 Nb2_4 1_555 1_555
C63_4 Nb2_4 1_555 1_555
C64_4 Nb2_4 1_555 1_555
C65_4 Nb2_4 1_555 1_555
C66_4 Nb2_4 1_555 1_555
N17_4 Fe4_2 1_555 1_555
N18_4 C60_4 1_555 1_555
N19_4 C61_4 1_555 1_555
N20_4 Fe1_4 1_555 1_555
N21_4 C63_4 1_555 1_555
N22_4 C64_4 1_555 1_555
N23_4 C65_4 1_555 1_555
N24_4 C66_4 1_555 1_555
Fe4_2 N25_4 1_555 1_555
N25_4 C67_4 1_555 1_555
N26_4 Fe4_2 1_555 1_555
N27_4 Fe4_2 1_555 1_555
N28_4 Fe4_2 1_555 1_555
C67_4 C75_4 1_555 1_555
C68_4 N25_4 1_555 1_555
C69_4 N26_4 1_555 1_555
C70_4 N26_4 1_555 1_555
C71_4 N27_4 1_555 1_555
C72_4 N27_4 1_555 1_555
C73_4 N28_4 1_555 1_555
C74_4 N28_4 1_555 1_555
C75_4 O14_4 1_555 1_555
C76_4 C68_4 1_555 1_555
C77_4 C69_4 1_555 1_555
C78_4 C70_4 1_555 1_555
C79_4 C71_4 1_555 1_555
C80_4 C72_4 1_555 1_555
C81_4 C73_4 1_555 1_555
C82_4 C74_4 1_555 1_555
C83_4 C75_4 1_555 1_555
O15_4 C77_4 1_555 1_555
C84_4 C77_4 1_555 1_555
O16_4 C79_4 1_555 1_555
C85_4 C79_4 1_555 1_555
O17_4 C81_4 1_555 1_555
C86_4 C81_4 1_555 1_555
C87_4 O15_4 1_555 1_555
C88_4 O16_4 1_555 1_555
C89_4 O17_4 1_555 1_555
O18_4 C87_4 1_555 1_555
C90_4 C87_4 1_555 1_555
O19_4 C88_4 1_555 1_555
C91_4 C88_4 1_555 1_555
O20_4 C89_4 1_555 1_555
C92_4 C89_4 1_555 1_555
N29_4 Fe3_6 1_555 1_555
C93_4 N29_4 1_555 1_555
C94_4 N29_4 1_555 1_555
C95_4 C93_4 1_555 1_555
C96_4 C94_4 1_555 1_555
O21_4 C95_4 1_555 1_555
C97_4 C95_4 1_555 1_555
C98_4 O21_4 1_555 1_555
O22_4 C98_4 1_555 1_555
C99_4 C98_4 1_555 1_555
N30_4 Fe3_6 1_555 1_555
C100_4 N30_4 1_555 1_555
C101_4 N30_4 1_555 1_555
C102_4 C100_4 1_555 1_555
C103_4 C101_4 1_555 1_555
O23_4 C102_4 1_555 1_555
C104_4 C102_4 1_555 1_555
C105_4 O23_4 1_555 1_555
O24_4 C105_4 1_555 1_555
C106_4 C105_4 1_555 1_555
C110_4 C108_4 1_555 1_555
C114_4 C112_4 1_555 1_555
O26_4 C114_4 1_555 1_555
N34_4 Fe3_6 1_555 1_555
N35_2 Fe4_2 1_555 1_555
Fe5_3 N4_3 1_555 1_555
Fe6_4 N18_4 1_555 1_555
Fe7_6 N19_4 1_555 1_555
C26_4 C41_4 1_555 1_555
C28_4 C42_4 1_555 1_555
C30_4 C43_4 1_555 1_555
C32_4 C44_4 1_555 1_555
C36_4 C46_4 1_555 1_555
C38_4 C47_4 1_555 1_555
C40_4 C48_4 1_555 1_555
C62_4 N20_4 1_555 1_555
C76_4 C83_4 1_555 1_555
C78_4 C84_4 1_555 1_555
C80_4 C85_4 1_555 1_555
C82_4 C86_4 1_555 1_555
C96_4 C97_4 1_555 1_555
C103_4 C104_4 1_555 1_555
C21_4 H1_4 1_555 1_555
C22_4 H2_4 1_555 1_555
C17_4 H3_4 1_555 1_555
C16_4 H4_4 1_555 1_555
C11_4 H6_4 1_555 1_555
C10_4 H7_4 1_555 1_555
C14_4 H8_4 1_555 1_555
C9_4 H9_4 1_555 1_555
C12_4 H10_4 1_555 1_555
C13_4 H11_4 1_555 1_555
C15_4 H12_4 1_555 1_555
C20_4 H14_4 1_555 1_555
C55_4 H15_4 1_555 1_555
C55_4 H16_4 1_555 1_555
C55_4 H17_4 1_555 1_555
C42_4 H18_4 1_555 1_555
C28_4 H19_4 1_555 1_555
C43_4 H20_4 1_555 1_555
C45_4 H21_4 1_555 1_555
C40_4 H22_4 1_555 1_555
C23_4 H23_4 1_555 1_555
C24_4 H24_4 1_555 1_555
C44_4 H26_4 1_555 1_555
C54_4 H28_4 1_555 1_555
C54_4 H29_4 1_555 1_555
C54_4 H30_4 1_555 1_555
C36_4 H32_4 1_555 1_555
O5_4 H33_4 1_555 1_555
C56_4 H34_4 1_555 1_555
C56_4 H35_4 1_555 1_555
C56_4 H36_4 1_555 1_555
C32_4 H40_4 1_555 1_555
O1_4 H41_4 1_555 1_555
C26_4 H42_4 1_555 1_555
C41_4 H43_4 1_555 1_555
C30_4 H44_4 1_555 1_555
C48_4 H45_4 1_555 1_555
C58_4 H46_4 1_555 1_555
C58_4 H47_4 1_555 1_555
C58_4 H48_4 1_555 1_555
C46_4 H49_4 1_555 1_555
C38_4 H50_4 1_555 1_555
C86_4 H51_4 1_555 1_555
C67_4 H52_4 1_555 1_555
C80_4 H53_4 1_555 1_555
C92_4 H54_4 1_555 1_555
C92_4 H55_4 1_555 1_555
C92_4 H56_4 1_555 1_555
C104_4 H57_4 1_555 1_555
C85_4 H58_4 1_555 1_555
C76_4 H59_4 1_555 1_555
C106_4 H61_4 1_555 1_555
C91_4 H63_4 1_555 1_555
C91_4 H64_4 1_555 1_555
C91_4 H65_4 1_555 1_555
C96_4 H66_4 1_555 1_555
C69_4 H68_4 1_555 1_555
C82_4 H69_4 1_555 1_555
C99_4 H70_4 1_555 1_555
C99_4 H71_4 1_555 1_555
C99_4 H72_4 1_555 1_555
C84_4 H73_4 1_555 1_555
C90_4 H74_4 1_555 1_555
C90_4 H75_4 1_555 1_555
C90_4 H76_4 1_555 1_555
C93_4 H77_4 1_555 1_555
C68_4 H78_4 1_555 1_555
C72_4 H79_4 1_555 1_555
C70_4 H80_4 1_555 1_555
O14_4 H81_4 1_555 1_555
C83_4 H82_4 1_555 1_555
C97_4 H83_4 1_555 1_555
C101_4 H84_4 1_555 1_555
C103_4 H85_4 1_555 1_555
C71_4 H86_4 1_555 1_555
C78_4 H87_4 1_555 1_555
C94_4 H88_4 1_555 1_555
C73_4 H89_4 1_555 1_555
C100_4 H90_4 1_555 1_555
C74_4 H91_4 1_555 1_555
C108_4 H93_4 1_555 1_555
C112_4 H95_4 1_555 1_555
O26_4 H97_4 1_555 1_555
C110_4 H99_4 1_555 1_555
C57_5 H38_5 1_555 1_555
Nb1_5 C1_5 1_555 1_555
C1_5 N1_5 1_555 1_555
C2_5 Nb1_5 1_555 1_555
C3_5 Nb1_5 1_555 1_555
C4_5 Nb1_5 1_555 1_555
C5_5 Nb1_5 1_555 1_555
C6_5 Nb1_5 1_555 1_555
C7_5 Nb1_5 1_555 1_555
C8_5 Nb1_5 1_555 1_555
N1_5 Fe1_5 1_555 1_555
N2_5 C2_5 1_555 1_555
N3_5 C3_5 1_555 1_555
N4_4 C4_5 1_555 1_555
N5_5 C5_5 1_555 1_555
N6_5 C6_5 1_555 1_555
N7_5 C7_5 1_555 1_555
N8_5 C8_5 1_555 1_555
Fe1_5 N9_5 1_555 1_555
Fe2_6 N2_5 1_555 1_555
Fe3_7 N3_5 1_555 1_555
N9_5 C9_5 1_555 1_555
N10_5 Fe1_5 1_555 1_555
N11_5 Fe1_5 1_555 1_555
N12_5 Fe1_5 1_555 1_555
N13_5 Fe2_6 1_555 1_555
N14_5 Fe2_6 1_555 1_555
N15_5 Fe3_7 1_555 1_555
N16_5 Fe3_7 1_555 1_555
C9_5 C25_5 1_555 1_555
C10_5 N9_5 1_555 1_555
C11_5 N10_5 1_555 1_555
C12_5 N10_5 1_555 1_555
C13_5 N11_5 1_555 1_555
C14_5 N11_5 1_555 1_555
C15_5 N12_5 1_555 1_555
C16_5 N12_5 1_555 1_555
C17_5 N13_5 1_555 1_555
C20_5 N14_5 1_555 1_555
C21_5 N15_5 1_555 1_555
C22_5 N15_5 1_555 1_555
C23_5 N16_5 1_555 1_555
C24_5 N16_5 1_555 1_555
C25_5 O1_5 1_555 1_555
C26_5 C10_5 1_555 1_555
C27_5 C11_5 1_555 1_555
C28_5 C12_5 1_555 1_555
C29_5 C13_5 1_555 1_555
C30_5 C14_5 1_555 1_555
C31_5 C15_5 1_555 1_555
C32_5 C16_5 1_555 1_555
C33_5 C17_5 1_555 1_555
C36_5 C20_5 1_555 1_555
C37_5 C21_5 1_555 1_555
C38_5 C22_5 1_555 1_555
C39_5 C23_5 1_555 1_555
C40_5 C24_5 1_555 1_555
C41_5 C25_5 1_555 1_555
O2_5 C27_5 1_555 1_555
C42_5 C27_5 1_555 1_555
O3_5 C29_5 1_555 1_555
C43_5 C29_5 1_555 1_555
O4_5 C31_5 1_555 1_555
C44_5 C31_5 1_555 1_555
O5_5 C33_5 1_555 1_555
C45_5 C33_5 1_555 1_555
O7_5 C37_5 1_555 1_555
C47_5 C37_5 1_555 1_555
O8_5 C39_5 1_555 1_555
C48_5 C39_5 1_555 1_555
C49_5 O2_5 1_555 1_555
C50_5 O3_5 1_555 1_555
C51_5 O4_5 1_555 1_555
C52_5 O7_5 1_555 1_555
C53_5 O8_5 1_555 1_555
O9_5 C49_5 1_555 1_555
C54_5 C49_5 1_555 1_555
O10_5 C50_5 1_555 1_555
C55_5 C50_5 1_555 1_555
O11_5 C51_5 1_555 1_555
C56_5 C51_5 1_555 1_555
O13_5 C53_5 1_555 1_555
C58_5 C53_5 1_555 1_555
Nb2_5 C59_5 1_555 1_555
C59_5 N17_5 1_555 1_555
C60_5 Nb2_5 1_555 1_555
C61_5 Nb2_5 1_555 1_555
C62_5 Nb2_5 1_555 1_555
C63_5 Nb2_5 1_555 1_555
C64_5 Nb2_5 1_555 1_555
C65_5 Nb2_5 1_555 1_555
C66_5 Nb2_5 1_555 1_555
N17_5 Fe5_3 1_555 1_555
N18_5 C60_5 1_555 1_555
N19_5 C61_5 1_555 1_555
N20_5 Fe1_5 1_555 1_555
N21_5 C63_5 1_555 1_555
N22_5 C64_5 1_555 1_555
N23_5 C65_5 1_555 1_555
N24_5 C66_5 1_555 1_555
Fe5_3 N25_5 1_555 1_555
N25_5 C67_5 1_555 1_555
N26_5 Fe5_3 1_555 1_555
N27_5 Fe5_3 1_555 1_555
N28_5 Fe5_3 1_555 1_555
C67_5 C75_5 1_555 1_555
C68_5 N25_5 1_555 1_555
C69_5 N26_5 1_555 1_555
C70_5 N26_5 1_555 1_555
C71_5 N27_5 1_555 1_555
C72_5 N27_5 1_555 1_555
C73_5 N28_5 1_555 1_555
C74_5 N28_5 1_555 1_555
C75_5 O14_5 1_555 1_555
C76_5 C68_5 1_555 1_555
C77_5 C69_5 1_555 1_555
C78_5 C70_5 1_555 1_555
C79_5 C71_5 1_555 1_555
C80_5 C72_5 1_555 1_555
C81_5 C73_5 1_555 1_555
C82_5 C74_5 1_555 1_555
C83_5 C75_5 1_555 1_555
O15_5 C77_5 1_555 1_555
C84_5 C77_5 1_555 1_555
O16_5 C79_5 1_555 1_555
C85_5 C79_5 1_555 1_555
O17_5 C81_5 1_555 1_555
C86_5 C81_5 1_555 1_555
C87_5 O15_5 1_555 1_555
C88_5 O16_5 1_555 1_555
C89_5 O17_5 1_555 1_555
C90_5 C87_5 1_555 1_555
O19_5 C88_5 1_555 1_555
C91_5 C88_5 1_555 1_555
O20_5 C89_5 1_555 1_555
C92_5 C89_5 1_555 1_555
N29_5 Fe3_7 1_555 1_555
C93_5 N29_5 1_555 1_555
C94_5 N29_5 1_555 1_555
C95_5 C93_5 1_555 1_555
C96_5 C94_5 1_555 1_555
O21_5 C95_5 1_555 1_555
C97_5 C95_5 1_555 1_555
C98_5 O21_5 1_555 1_555
O22_5 C98_5 1_555 1_555
C99_5 C98_5 1_555 1_555
N30_5 Fe3_7 1_555 1_555
C100_5 N30_5 1_555 1_555
C101_5 N30_5 1_555 1_555
C102_5 C100_5 1_555 1_555
C103_5 C101_5 1_555 1_555
O23_5 C102_5 1_555 1_555
C104_5 C102_5 1_555 1_555
C105_5 O23_5 1_555 1_555
O24_5 C105_5 1_555 1_555
C106_5 C105_5 1_555 1_555
C110_5 C108_5 1_555 1_555
C114_5 C112_5 1_555 1_555
O26_5 C114_5 1_555 1_555
N34_5 Fe3_7 1_555 1_555
Fe5_4 N4_4 1_555 1_555
Fe6_5 N18_5 1_555 1_555
Fe7_7 N19_5 1_555 1_555
C26_5 C41_5 1_555 1_555
C28_5 C42_5 1_555 1_555
C30_5 C43_5 1_555 1_555
C32_5 C44_5 1_555 1_555
C36_5 C46_5 1_555 1_555
C38_5 C47_5 1_555 1_555
C40_5 C48_5 1_555 1_555
C62_5 N20_5 1_555 1_555
C76_5 C83_5 1_555 1_555
C78_5 C84_5 1_555 1_555
C80_5 C85_5 1_555 1_555
C82_5 C86_5 1_555 1_555
C96_5 C97_5 1_555 1_555
C103_5 C104_5 1_555 1_555
C21_5 H1_5 1_555 1_555
C22_5 H2_5 1_555 1_555
C17_5 H3_5 1_555 1_555
C16_5 H4_5 1_555 1_555
C11_5 H6_5 1_555 1_555
C10_5 H7_5 1_555 1_555
C14_5 H8_5 1_555 1_555
C9_5 H9_5 1_555 1_555
C12_5 H10_5 1_555 1_555
C13_5 H11_5 1_555 1_555
C15_5 H12_5 1_555 1_555
C20_5 H14_5 1_555 1_555
C55_5 H15_5 1_555 1_555
C55_5 H16_5 1_555 1_555
C55_5 H17_5 1_555 1_555
C42_5 H18_5 1_555 1_555
C28_5 H19_5 1_555 1_555
C43_5 H20_5 1_555 1_555
C45_5 H21_5 1_555 1_555
C40_5 H22_5 1_555 1_555
C23_5 H23_5 1_555 1_555
C24_5 H24_5 1_555 1_555
C44_5 H26_5 1_555 1_555
C54_5 H28_5 1_555 1_555
C54_5 H29_5 1_555 1_555
C54_5 H30_5 1_555 1_555
C36_5 H32_5 1_555 1_555
O5_5 H33_5 1_555 1_555
C56_5 H34_5 1_555 1_555
C56_5 H35_5 1_555 1_555
C56_5 H36_5 1_555 1_555
C32_5 H40_5 1_555 1_555
O1_5 H41_5 1_555 1_555
C26_5 H42_5 1_555 1_555
C41_5 H43_5 1_555 1_555
C30_5 H44_5 1_555 1_555
C48_5 H45_5 1_555 1_555
C58_5 H46_5 1_555 1_555
C58_5 H47_5 1_555 1_555
C58_5 H48_5 1_555 1_555
C46_5 H49_5 1_555 1_555
C38_5 H50_5 1_555 1_555
C86_5 H51_5 1_555 1_555
C67_5 H52_5 1_555 1_555
C80_5 H53_5 1_555 1_555
C92_5 H54_5 1_555 1_555
C92_5 H55_5 1_555 1_555
C92_5 H56_5 1_555 1_555
C104_5 H57_5 1_555 1_555
C85_5 H58_5 1_555 1_555
C76_5 H59_5 1_555 1_555
C106_5 H61_5 1_555 1_555
C91_5 H63_5 1_555 1_555
C91_5 H64_5 1_555 1_555
C91_5 H65_5 1_555 1_555
C96_5 H66_5 1_555 1_555
C69_5 H68_5 1_555 1_555
C82_5 H69_5 1_555 1_555
C99_5 H70_5 1_555 1_555
C99_5 H71_5 1_555 1_555
C99_5 H72_5 1_555 1_555
C84_5 H73_5 1_555 1_555
C90_5 H74_5 1_555 1_555
C90_5 H76_5 1_555 1_555
C93_5 H77_5 1_555 1_555
C68_5 H78_5 1_555 1_555
C72_5 H79_5 1_555 1_555
C70_5 H80_5 1_555 1_555
O14_5 H81_5 1_555 1_555
C83_5 H82_5 1_555 1_555
C97_5 H83_5 1_555 1_555
C101_5 H84_5 1_555 1_555
C103_5 H85_5 1_555 1_555
C71_5 H86_5 1_555 1_555
C78_5 H87_5 1_555 1_555
C94_5 H88_5 1_555 1_555
C73_5 H89_5 1_555 1_555
C100_5 H90_5 1_555 1_555
C74_5 H91_5 1_555 1_555
C108_5 H93_5 1_555 1_555
C112_5 H95_5 1_555 1_555
O26_5 H97_5 1_555 1_555
C110_5 H99_5 1_555 1_555
C34_5 C18_5 1_555 1_555
C35_5 C19_5 1_555 1_555
O6_5 C35_5 1_555 1_555
N31_5 Fe2_7 1_555 1_555
C107_5 N31_5 1_555 1_555
C109_5 C107_5 1_555 1_555
O25_5 C109_5 1_555 1_555
C111_5 C109_5 1_555 1_555
N32_5 Fe2_7 1_555 1_555
C113_5 N32_5 1_555 1_555
C115_5 C113_5 1_555 1_555
N33_5 Fe2_7 1_555 1_555
C115_5 C116_5 1_555 1_555
C18_5 H5_5 1_555 1_555
C19_5 H13_5 1_555 1_555
O6_5 H25_5 1_555 1_555
C34_5 H31_5 1_555 1_555
C107_5 H67_5 1_555 1_555
C116_5 H92_5 1_555 1_555
O25_5 H94_5 1_555 1_555
C111_5 H96_5 1_555 1_555
C113_5 H98_5 1_555 1_555
C115_5 H100_5 1_555 1_555
C57_6 H38_6 1_555 1_555
Nb1_6 C1_6 1_555 1_555
C1_6 N1_6 1_555 1_555
C2_6 Nb1_6 1_555 1_555
C3_6 Nb1_6 1_555 1_555
C4_6 Nb1_6 1_555 1_555
C5_6 Nb1_6 1_555 1_555
C6_6 Nb1_6 1_555 1_555
C7_6 Nb1_6 1_555 1_555
C8_6 Nb1_6 1_555 1_555
N1_6 Fe1_6 1_555 1_555
N2_6 C2_6 1_555 1_555
N3_6 C3_6 1_555 1_555
N35_2 C4_6 1_555 1_555
N5_6 C5_6 1_555 1_555
N6_6 C6_6 1_555 1_555
N7_6 C7_6 1_555 1_555
N8_6 C8_6 1_555 1_555
Fe1_6 N9_6 1_555 1_555
Fe2_8 N2_6 1_555 1_555
Fe3_8 N3_6 1_555 1_555
N9_6 C9_6 1_555 1_555
N10_6 Fe1_6 1_555 1_555
N11_6 Fe1_6 1_555 1_555
N12_6 Fe1_6 1_555 1_555
N13_6 Fe2_8 1_555 1_555
N14_6 Fe2_8 1_555 1_555
N15_6 Fe3_8 1_555 1_555
N16_6 Fe3_8 1_555 1_555
C9_6 C25_6 1_555 1_555
C10_6 N9_6 1_555 1_555
C11_6 N10_6 1_555 1_555
C12_6 N10_6 1_555 1_555
C13_6 N11_6 1_555 1_555
C14_6 N11_6 1_555 1_555
C15_6 N12_6 1_555 1_555
C16_6 N12_6 1_555 1_555
C17_6 N13_6 1_555 1_555
C18_6 N13_6 1_555 1_555
C19_6 N14_6 1_555 1_555
C20_6 N14_6 1_555 1_555
C21_6 N15_6 1_555 1_555
C22_6 N15_6 1_555 1_555
C23_6 N16_6 1_555 1_555
C24_6 N16_6 1_555 1_555
C25_6 O1_6 1_555 1_555
C26_6 C10_6 1_555 1_555
C27_6 C11_6 1_555 1_555
C28_6 C12_6 1_555 1_555
C29_6 C13_6 1_555 1_555
C30_6 C14_6 1_555 1_555
C31_6 C15_6 1_555 1_555
C32_6 C16_6 1_555 1_555
C33_6 C17_6 1_555 1_555
C34_6 C18_6 1_555 1_555
C35_6 C19_6 1_555 1_555
C36_6 C20_6 1_555 1_555
C37_6 C21_6 1_555 1_555
C38_6 C22_6 1_555 1_555
C39_6 C23_6 1_555 1_555
C40_6 C24_6 1_555 1_555
C41_6 C25_6 1_555 1_555
O2_6 C27_6 1_555 1_555
C42_6 C27_6 1_555 1_555
O3_6 C29_6 1_555 1_555
C43_6 C29_6 1_555 1_555
O4_6 C31_6 1_555 1_555
C44_6 C31_6 1_555 1_555
O5_6 C33_6 1_555 1_555
C45_6 C33_6 1_555 1_555
O6_6 C35_6 1_555 1_555
C46_6 C35_6 1_555 1_555
O7_6 C37_6 1_555 1_555
C47_6 C37_6 1_555 1_555
O8_6 C39_6 1_555 1_555
C48_6 C39_6 1_555 1_555
C49_6 O2_6 1_555 1_555
C50_6 O3_6 1_555 1_555
C51_6 O4_6 1_555 1_555
C52_6 O7_6 1_555 1_555
C53_6 O8_6 1_555 1_555
O9_6 C49_6 1_555 1_555
C54_6 C49_6 1_555 1_555
O10_6 C50_6 1_555 1_555
C55_6 C50_6 1_555 1_555
O11_6 C51_6 1_555 1_555
C56_6 C51_6 1_555 1_555
O13_6 C53_6 1_555 1_555
C58_6 C53_6 1_555 1_555
Nb2_6 C59_6 1_555 1_555
C59_6 N17_6 1_555 1_555
C60_6 Nb2_6 1_555 1_555
C61_6 Nb2_6 1_555 1_555
C62_6 Nb2_6 1_555 1_555
C63_6 Nb2_6 1_555 1_555
C64_6 Nb2_6 1_555 1_555
C65_6 Nb2_6 1_555 1_555
C66_6 Nb2_6 1_555 1_555
N17_6 Fe5_4 1_555 1_555
N18_6 C60_6 1_555 1_555
N19_6 C61_6 1_555 1_555
N20_6 Fe1_6 1_555 1_555
N21_6 C63_6 1_555 1_555
N22_6 C64_6 1_555 1_555
N23_6 C65_6 1_555 1_555
N24_6 C66_6 1_555 1_555
Fe5_4 N25_6 1_555 1_555
N25_6 C67_6 1_555 1_555
N26_6 Fe5_4 1_555 1_555
N27_6 Fe5_4 1_555 1_555
N28_6 Fe5_4 1_555 1_555
C67_6 C75_6 1_555 1_555
C68_6 N25_6 1_555 1_555
C69_6 N26_6 1_555 1_555
C70_6 N26_6 1_555 1_555
C71_6 N27_6 1_555 1_555
C72_6 N27_6 1_555 1_555
C73_6 N28_6 1_555 1_555
C74_6 N28_6 1_555 1_555
C75_6 O14_6 1_555 1_555
C76_6 C68_6 1_555 1_555
C77_6 C69_6 1_555 1_555
C78_6 C70_6 1_555 1_555
C79_6 C71_6 1_555 1_555
C80_6 C72_6 1_555 1_555
C81_6 C73_6 1_555 1_555
C82_6 C74_6 1_555 1_555
C83_6 C75_6 1_555 1_555
O15_6 C77_6 1_555 1_555
C84_6 C77_6 1_555 1_555
O16_6 C79_6 1_555 1_555
C85_6 C79_6 1_555 1_555
O17_6 C81_6 1_555 1_555
C86_6 C81_6 1_555 1_555
C87_6 O15_6 1_555 1_555
C88_6 O16_6 1_555 1_555
C89_6 O17_6 1_555 1_555
C90_6 C87_6 1_555 1_555
O19_6 C88_6 1_555 1_555
C91_6 C88_6 1_555 1_555
O20_6 C89_6 1_555 1_555
C92_6 C89_6 1_555 1_555
N29_6 Fe3_8 1_555 1_555
C93_6 N29_6 1_555 1_555
C94_6 N29_6 1_555 1_555
C95_6 C93_6 1_555 1_555
C96_6 C94_6 1_555 1_555
O21_6 C95_6 1_555 1_555
C97_6 C95_6 1_555 1_555
C98_6 O21_6 1_555 1_555
O22_6 C98_6 1_555 1_555
C99_6 C98_6 1_555 1_555
N30_6 Fe3_8 1_555 1_555
C100_6 N30_6 1_555 1_555
C101_6 N30_6 1_555 1_555
C102_6 C100_6 1_555 1_555
C103_6 C101_6 1_555 1_555
O23_6 C102_6 1_555 1_555
C104_6 C102_6 1_555 1_555
C105_6 O23_6 1_555 1_555
O24_6 C105_6 1_555 1_555
C106_6 C105_6 1_555 1_555
N31_6 Fe2_8 1_555 1_555
C107_6 N31_6 1_555 1_555
C108_6 N31_6 1_555 1_555
C109_6 C107_6 1_555 1_555
C110_6 C108_6 1_555 1_555
O25_6 C109_6 1_555 1_555
C111_6 C109_6 1_555 1_555
N32_6 Fe2_8 1_555 1_555
C112_6 N32_6 1_555 1_555
C113_6 N32_6 1_555 1_555
C114_6 C112_6 1_555 1_555
C115_6 C113_6 1_555 1_555
O26_6 C114_6 1_555 1_555
C116_6 C114_6 1_555 1_555
N33_6 Fe2_8 1_555 1_555
N34_6 Fe3_8 1_555 1_555
Fe6_6 N18_6 1_555 1_555
Fe7_8 N19_6 1_555 1_555
C26_6 C41_6 1_555 1_555
C28_6 C42_6 1_555 1_555
C30_6 C43_6 1_555 1_555
C32_6 C44_6 1_555 1_555
C34_6 C45_6 1_555 1_555
C36_6 C46_6 1_555 1_555
C38_6 C47_6 1_555 1_555
C40_6 C48_6 1_555 1_555
C62_6 N20_6 1_555 1_555
C76_6 C83_6 1_555 1_555
C78_6 C84_6 1_555 1_555
C80_6 C85_6 1_555 1_555
C82_6 C86_6 1_555 1_555
C96_6 C97_6 1_555 1_555
C103_6 C104_6 1_555 1_555
C110_6 C111_6 1_555 1_555
C115_6 C116_6 1_555 1_555
C21_6 H1_6 1_555 1_555
C22_6 H2_6 1_555 1_555
C17_6 H3_6 1_555 1_555
C16_6 H4_6 1_555 1_555
C18_6 H5_6 1_555 1_555
C11_6 H6_6 1_555 1_555
C10_6 H7_6 1_555 1_555
C14_6 H8_6 1_555 1_555
C9_6 H9_6 1_555 1_555
C12_6 H10_6 1_555 1_555
C13_6 H11_6 1_555 1_555
C15_6 H12_6 1_555 1_555
C19_6 H13_6 1_555 1_555
C20_6 H14_6 1_555 1_555
C55_6 H15_6 1_555 1_555
C55_6 H16_6 1_555 1_555
C55_6 H17_6 1_555 1_555
C42_6 H18_6 1_555 1_555
C28_6 H19_6 1_555 1_555
C43_6 H20_6 1_555 1_555
C45_6 H21_6 1_555 1_555
C40_6 H22_6 1_555 1_555
C23_6 H23_6 1_555 1_555
C24_6 H24_6 1_555 1_555
O6_6 H25_6 1_555 1_555
C44_6 H26_6 1_555 1_555
C47_6 H27_6 1_555 1_555
C54_6 H28_6 1_555 1_555
C54_6 H29_6 1_555 1_555
C54_6 H30_6 1_555 1_555
C34_6 H31_6 1_555 1_555
C36_6 H32_6 1_555 1_555
O5_6 H33_6 1_555 1_555
C56_6 H34_6 1_555 1_555
C56_6 H35_6 1_555 1_555
C56_6 H36_6 1_555 1_555
C32_6 H40_6 1_555 1_555
O1_6 H41_6 1_555 1_555
C26_6 H42_6 1_555 1_555
C41_6 H43_6 1_555 1_555
C30_6 H44_6 1_555 1_555
C48_6 H45_6 1_555 1_555
C58_6 H46_6 1_555 1_555
C58_6 H47_6 1_555 1_555
C58_6 H48_6 1_555 1_555
C46_6 H49_6 1_555 1_555
C38_6 H50_6 1_555 1_555
C86_6 H51_6 1_555 1_555
C67_6 H52_6 1_555 1_555
C80_6 H53_6 1_555 1_555
C92_6 H54_6 1_555 1_555
C92_6 H55_6 1_555 1_555
C92_6 H56_6 1_555 1_555
C104_6 H57_6 1_555 1_555
C85_6 H58_6 1_555 1_555
C76_6 H59_6 1_555 1_555
C106_6 H61_6 1_555 1_555
C91_6 H63_6 1_555 1_555
C91_6 H64_6 1_555 1_555
C91_6 H65_6 1_555 1_555
C96_6 H66_6 1_555 1_555
C107_6 H67_6 1_555 1_555
C69_6 H68_6 1_555 1_555
C82_6 H69_6 1_555 1_555
C99_6 H70_6 1_555 1_555
C99_6 H71_6 1_555 1_555
C99_6 H72_6 1_555 1_555
C84_6 H73_6 1_555 1_555
C90_6 H74_6 1_555 1_555
C90_6 H76_6 1_555 1_555
C93_6 H77_6 1_555 1_555
C68_6 H78_6 1_555 1_555
C72_6 H79_6 1_555 1_555
C70_6 H80_6 1_555 1_555
O14_6 H81_6 1_555 1_555
C83_6 H82_6 1_555 1_555
C97_6 H83_6 1_555 1_555
C101_6 H84_6 1_555 1_555
C103_6 H85_6 1_555 1_555
C71_6 H86_6 1_555 1_555
C78_6 H87_6 1_555 1_555
C94_6 H88_6 1_555 1_555
C73_6 H89_6 1_555 1_555
C100_6 H90_6 1_555 1_555
C74_6 H91_6 1_555 1_555
C116_6 H92_6 1_555 1_555
C108_6 H93_6 1_555 1_555
O25_6 H94_6 1_555 1_555
C112_6 H95_6 1_555 1_555
C111_6 H96_6 1_555 1_555
O26_6 H97_6 1_555 1_555
C113_6 H98_6 1_555 1_555
C110_6 H99_6 1_555 1_555
C115_6 H100_6 1_555 1_555
O25_7 C109_7 1_555 1_555
C111_7 C109_7 1_555 1_555
C34_7 C45_7 1_555 1_555
C45_7 H21_7 1_555 1_555
C34_7 H31_7 1_555 1_555
O25_7 H94_7 1_555 1_555
C111_7 H96_7 1_555 1_555
Nb1_7 C1_7 1_555 1_555
C1_7 N1_7 1_555 1_555
C2_7 Nb1_7 1_555 1_555
C3_7 Nb1_7 1_555 1_555
C4_7 Nb1_7 1_555 1_555
C5_7 Nb1_7 1_555 1_555
C6_7 Nb1_7 1_555 1_555
C7_7 Nb1_7 1_555 1_555
C8_7 Nb1_7 1_555 1_555
N1_7 Fe1_7 1_555 1_555
N2_7 C2_7 1_555 1_555
N3_7 C3_7 1_555 1_555
N4_5 C4_7 1_555 1_555
N5_7 C5_7 1_555 1_555
N6_7 C6_7 1_555 1_555
N7_7 C7_7 1_555 1_555
N8_7 C8_7 1_555 1_555
Fe1_7 N9_7 1_555 1_555
Fe2_9 N2_7 1_555 1_555
Fe3_9 N3_7 1_555 1_555
N9_7 C9_7 1_555 1_555
N10_7 Fe1_7 1_555 1_555
N11_7 Fe1_7 1_555 1_555
N12_7 Fe1_7 1_555 1_555
N13_7 Fe2_9 1_555 1_555
N14_7 Fe2_9 1_555 1_555
N15_7 Fe3_9 1_555 1_555
N16_7 Fe3_9 1_555 1_555
C9_7 C25_7 1_555 1_555
C10_7 N9_7 1_555 1_555
C11_7 N10_7 1_555 1_555
C12_7 N10_7 1_555 1_555
C13_7 N11_7 1_555 1_555
C14_7 N11_7 1_555 1_555
C15_7 N12_7 1_555 1_555
C16_7 N12_7 1_555 1_555
C17_7 N13_7 1_555 1_555
C18_7 N13_7 1_555 1_555
C19_7 N14_7 1_555 1_555
C20_7 N14_7 1_555 1_555
C21_7 N15_7 1_555 1_555
C22_7 N15_7 1_555 1_555
C23_7 N16_7 1_555 1_555
C24_7 N16_7 1_555 1_555
C25_7 O1_7 1_555 1_555
C26_7 C10_7 1_555 1_555
C27_7 C11_7 1_555 1_555
C28_7 C12_7 1_555 1_555
C29_7 C13_7 1_555 1_555
C30_7 C14_7 1_555 1_555
C31_7 C15_7 1_555 1_555
C32_7 C16_7 1_555 1_555
C33_7 C17_7 1_555 1_555
C35_7 C19_7 1_555 1_555
C36_7 C20_7 1_555 1_555
C37_7 C21_7 1_555 1_555
C38_7 C22_7 1_555 1_555
C39_7 C23_7 1_555 1_555
C40_7 C24_7 1_555 1_555
C41_7 C25_7 1_555 1_555
O2_7 C27_7 1_555 1_555
C42_7 C27_7 1_555 1_555
O3_7 C29_7 1_555 1_555
C43_7 C29_7 1_555 1_555
O4_7 C31_7 1_555 1_555
C44_7 C31_7 1_555 1_555
O5_7 C33_7 1_555 1_555
O6_7 C35_7 1_555 1_555
C46_7 C35_7 1_555 1_555
O7_7 C37_7 1_555 1_555
C47_7 C37_7 1_555 1_555
O8_7 C39_7 1_555 1_555
C48_7 C39_7 1_555 1_555
C49_7 O2_7 1_555 1_555
C50_7 O3_7 1_555 1_555
C51_7 O4_7 1_555 1_555
C52_7 O7_7 1_555 1_555
C53_7 O8_7 1_555 1_555
C54_7 C49_7 1_555 1_555
O10_7 C50_7 1_555 1_555
C55_7 C50_7 1_555 1_555
O11_7 C51_7 1_555 1_555
C56_7 C51_7 1_555 1_555
O12_7 C52_7 1_555 1_555
C57_7 C52_7 1_555 1_555
O13_7 C53_7 1_555 1_555
C58_7 C53_7 1_555 1_555
Nb2_7 C59_7 1_555 1_555
C59_7 N17_7 1_555 1_555
C60_7 Nb2_7 1_555 1_555
C61_7 Nb2_7 1_555 1_555
C62_7 Nb2_7 1_555 1_555
C63_7 Nb2_7 1_555 1_555
C64_7 Nb2_7 1_555 1_555
C65_7 Nb2_7 1_555 1_555
C66_7 Nb2_7 1_555 1_555
N17_7 Fe4_3 1_555 1_555
N18_7 C60_7 1_555 1_555
N19_7 C61_7 1_555 1_555
N20_7 Fe1_7 1_555 1_555
N21_7 C63_7 1_555 1_555
N22_7 C64_7 1_555 1_555
N23_7 C65_7 1_555 1_555
N24_7 C66_7 1_555 1_555
Fe4_3 N25_7 1_555 1_555
N25_7 C67_7 1_555 1_555
N26_7 Fe4_3 1_555 1_555
N27_7 Fe4_3 1_555 1_555
N28_7 Fe4_3 1_555 1_555
C67_7 C75_7 1_555 1_555
C68_7 N25_7 1_555 1_555
C69_7 N26_7 1_555 1_555
C70_7 N26_7 1_555 1_555
C71_7 N27_7 1_555 1_555
C72_7 N27_7 1_555 1_555
C73_7 N28_7 1_555 1_555
C74_7 N28_7 1_555 1_555
C75_7 O14_7 1_555 1_555
C76_7 C68_7 1_555 1_555
C77_7 C69_7 1_555 1_555
C78_7 C70_7 1_555 1_555
C79_7 C71_7 1_555 1_555
C80_7 C72_7 1_555 1_555
C81_7 C73_7 1_555 1_555
C82_7 C74_7 1_555 1_555
C83_7 C75_7 1_555 1_555
O15_7 C77_7 1_555 1_555
C84_7 C77_7 1_555 1_555
O16_7 C79_7 1_555 1_555
C85_7 C79_7 1_555 1_555
O17_7 C81_7 1_555 1_555
C86_7 C81_7 1_555 1_555
C87_7 O15_7 1_555 1_555
C88_7 O16_7 1_555 1_555
C89_7 O17_7 1_555 1_555
O18_7 C87_7 1_555 1_555
C90_7 C87_7 1_555 1_555
O19_7 C88_7 1_555 1_555
C91_7 C88_7 1_555 1_555
O20_7 C89_7 1_555 1_555
C92_7 C89_7 1_555 1_555
N29_7 Fe3_9 1_555 1_555
C93_7 N29_7 1_555 1_555
C94_7 N29_7 1_555 1_555
C95_7 C93_7 1_555 1_555
C96_7 C94_7 1_555 1_555
O21_7 C95_7 1_555 1_555
C97_7 C95_7 1_555 1_555
C98_7 O21_7 1_555 1_555
O22_7 C98_7 1_555 1_555
C99_7 C98_7 1_555 1_555
N30_7 Fe3_9 1_555 1_555
C100_7 N30_7 1_555 1_555
C101_7 N30_7 1_555 1_555
C102_7 C100_7 1_555 1_555
C103_7 C101_7 1_555 1_555
O23_7 C102_7 1_555 1_555
C104_7 C102_7 1_555 1_555
C105_7 O23_7 1_555 1_555
O24_7 C105_7 1_555 1_555
C106_7 C105_7 1_555 1_555
N31_7 Fe2_9 1_555 1_555
C107_7 N31_7 1_555 1_555
C108_7 N31_7 1_555 1_555
C110_7 C108_7 1_555 1_555
N32_7 Fe2_9 1_555 1_555
C112_7 N32_7 1_555 1_555
C113_7 N32_7 1_555 1_555
C114_7 C112_7 1_555 1_555
C115_7 C113_7 1_555 1_555
O26_7 C114_7 1_555 1_555
C116_7 C114_7 1_555 1_555
N33_7 Fe2_9 1_555 1_555
N34_7 Fe3_9 1_555 1_555
N35_3 Fe4_3 1_555 1_555
Fe5_5 N4_5 1_555 1_555
Fe6_8 N18_7 1_555 1_555
Fe7_9 N19_7 1_555 1_555
C26_7 C41_7 1_555 1_555
C28_7 C42_7 1_555 1_555
C30_7 C43_7 1_555 1_555
C32_7 C44_7 1_555 1_555
C36_7 C46_7 1_555 1_555
C38_7 C47_7 1_555 1_555
C40_7 C48_7 1_555 1_555
C62_7 N20_7 1_555 1_555
C76_7 C83_7 1_555 1_555
C78_7 C84_7 1_555 1_555
C80_7 C85_7 1_555 1_555
C82_7 C86_7 1_555 1_555
C96_7 C97_7 1_555 1_555
C103_7 C104_7 1_555 1_555
C115_7 C116_7 1_555 1_555
C21_7 H1_7 1_555 1_555
C22_7 H2_7 1_555 1_555
C17_7 H3_7 1_555 1_555
C16_7 H4_7 1_555 1_555
C18_7 H5_7 1_555 1_555
C11_7 H6_7 1_555 1_555
C10_7 H7_7 1_555 1_555
C14_7 H8_7 1_555 1_555
C9_7 H9_7 1_555 1_555
C12_7 H10_7 1_555 1_555
C13_7 H11_7 1_555 1_555
C15_7 H12_7 1_555 1_555
C19_7 H13_7 1_555 1_555
C20_7 H14_7 1_555 1_555
C55_7 H15_7 1_555 1_555
C55_7 H16_7 1_555 1_555
C55_7 H17_7 1_555 1_555
C42_7 H18_7 1_555 1_555
C28_7 H19_7 1_555 1_555
C43_7 H20_7 1_555 1_555
C40_7 H22_7 1_555 1_555
C23_7 H23_7 1_555 1_555
C24_7 H24_7 1_555 1_555
O6_7 H25_7 1_555 1_555
C44_7 H26_7 1_555 1_555
C47_7 H27_7 1_555 1_555
C54_7 H28_7 1_555 1_555
C54_7 H30_7 1_555 1_555
C36_7 H32_7 1_555 1_555
O5_7 H33_7 1_555 1_555
C56_7 H34_7 1_555 1_555
C56_7 H35_7 1_555 1_555
C56_7 H36_7 1_555 1_555
C57_7 H37_7 1_555 1_555
C57_7 H38_7 1_555 1_555
C57_7 H39_7 1_555 1_555
C32_7 H40_7 1_555 1_555
O1_7 H41_7 1_555 1_555
C26_7 H42_7 1_555 1_555
C41_7 H43_7 1_555 1_555
C30_7 H44_7 1_555 1_555
C48_7 H45_7 1_555 1_555
C58_7 H46_7 1_555 1_555
C58_7 H47_7 1_555 1_555
C58_7 H48_7 1_555 1_555
C46_7 H49_7 1_555 1_555
C38_7 H50_7 1_555 1_555
C86_7 H51_7 1_555 1_555
C67_7 H52_7 1_555 1_555
C80_7 H53_7 1_555 1_555
C92_7 H54_7 1_555 1_555
C92_7 H55_7 1_555 1_555
C92_7 H56_7 1_555 1_555
C104_7 H57_7 1_555 1_555
C85_7 H58_7 1_555 1_555
C76_7 H59_7 1_555 1_555
C106_7 H60_7 1_555 1_555
C106_7 H61_7 1_555 1_555
C106_7 H62_7 1_555 1_555
C91_7 H63_7 1_555 1_555
C91_7 H64_7 1_555 1_555
C91_7 H65_7 1_555 1_555
C96_7 H66_7 1_555 1_555
C107_7 H67_7 1_555 1_555
C69_7 H68_7 1_555 1_555
C82_7 H69_7 1_555 1_555
C99_7 H70_7 1_555 1_555
C99_7 H71_7 1_555 1_555
C99_7 H72_7 1_555 1_555
C84_7 H73_7 1_555 1_555
C90_7 H74_7 1_555 1_555
C90_7 H75_7 1_555 1_555
C90_7 H76_7 1_555 1_555
C93_7 H77_7 1_555 1_555
C68_7 H78_7 1_555 1_555
C72_7 H79_7 1_555 1_555
C70_7 H80_7 1_555 1_555
O14_7 H81_7 1_555 1_555
C83_7 H82_7 1_555 1_555
C101_7 H84_7 1_555 1_555
C103_7 H85_7 1_555 1_555
C71_7 H86_7 1_555 1_555
C78_7 H87_7 1_555 1_555
C94_7 H88_7 1_555 1_555
C73_7 H89_7 1_555 1_555
C100_7 H90_7 1_555 1_555
C74_7 H91_7 1_555 1_555
C116_7 H92_7 1_555 1_555
C108_7 H93_7 1_555 1_555
C112_7 H95_7 1_555 1_555
O26_7 H97_7 1_555 1_555
C113_7 H98_7 1_555 1_555
C110_7 H99_7 1_555 1_555
C115_7 H100_7 1_555 1_555
Nb1_8 C1_8 1_555 1_555
C1_8 N1_8 1_555 1_555
C2_8 Nb1_8 1_555 1_555
C3_8 Nb1_8 1_555 1_555
C4_8 Nb1_8 1_555 1_555
C5_8 Nb1_8 1_555 1_555
C6_8 Nb1_8 1_555 1_555
C7_8 Nb1_8 1_555 1_555
C8_8 Nb1_8 1_555 1_555
N1_8 Fe1_8 1_555 1_555
N2_8 C2_8 1_555 1_555
N3_8 C3_8 1_555 1_555
N4_6 C4_8 1_555 1_555
N5_8 C5_8 1_555 1_555
N6_8 C6_8 1_555 1_555
N7_8 C7_8 1_555 1_555
N8_8 C8_8 1_555 1_555
Fe1_8 N9_8 1_555 1_555
Fe2_10 N2_8 1_555 1_555
Fe3_10 N3_8 1_555 1_555
N9_8 C9_8 1_555 1_555
N10_8 Fe1_8 1_555 1_555
N11_8 Fe1_8 1_555 1_555
N12_8 Fe1_8 1_555 1_555
N13_8 Fe2_10 1_555 1_555
N14_8 Fe2_10 1_555 1_555
N15_8 Fe3_10 1_555 1_555
N16_8 Fe3_10 1_555 1_555
C9_8 C25_8 1_555 1_555
C10_8 N9_8 1_555 1_555
C11_8 N10_8 1_555 1_555
C12_8 N10_8 1_555 1_555
C13_8 N11_8 1_555 1_555
C14_8 N11_8 1_555 1_555
C15_8 N12_8 1_555 1_555
C16_8 N12_8 1_555 1_555
C17_8 N13_8 1_555 1_555
C18_8 N13_8 1_555 1_555
C19_8 N14_8 1_555 1_555
C20_8 N14_8 1_555 1_555
C21_8 N15_8 1_555 1_555
C22_8 N15_8 1_555 1_555
C23_8 N16_8 1_555 1_555
C24_8 N16_8 1_555 1_555
C25_8 O1_8 1_555 1_555
C26_8 C10_8 1_555 1_555
C27_8 C11_8 1_555 1_555
C28_8 C12_8 1_555 1_555
C29_8 C13_8 1_555 1_555
C30_8 C14_8 1_555 1_555
C31_8 C15_8 1_555 1_555
C32_8 C16_8 1_555 1_555
C33_8 C17_8 1_555 1_555
C34_8 C18_8 1_555 1_555
C35_8 C19_8 1_555 1_555
C36_8 C20_8 1_555 1_555
C37_8 C21_8 1_555 1_555
C38_8 C22_8 1_555 1_555
C39_8 C23_8 1_555 1_555
C40_8 C24_8 1_555 1_555
C41_8 C25_8 1_555 1_555
O2_8 C27_8 1_555 1_555
C42_8 C27_8 1_555 1_555
O3_8 C29_8 1_555 1_555
C43_8 C29_8 1_555 1_555
O4_8 C31_8 1_555 1_555
C44_8 C31_8 1_555 1_555
O5_8 C33_8 1_555 1_555
C45_8 C33_8 1_555 1_555
O6_8 C35_8 1_555 1_555
C46_8 C35_8 1_555 1_555
O7_8 C37_8 1_555 1_555
C47_8 C37_8 1_555 1_555
O8_8 C39_8 1_555 1_555
C48_8 C39_8 1_555 1_555
C49_8 O2_8 1_555 1_555
C50_8 O3_8 1_555 1_555
C51_8 O4_8 1_555 1_555
C52_8 O7_8 1_555 1_555
C53_8 O8_8 1_555 1_555
O9_8 C49_8 1_555 1_555
C54_8 C49_8 1_555 1_555
O10_8 C50_8 1_555 1_555
C55_8 C50_8 1_555 1_555
O11_8 C51_8 1_555 1_555
C56_8 C51_8 1_555 1_555
O12_8 C52_8 1_555 1_555
C57_8 C52_8 1_555 1_555
O13_8 C53_8 1_555 1_555
C58_8 C53_8 1_555 1_555
Nb2_8 C59_8 1_555 1_555
C59_8 N17_8 1_555 1_555
C60_8 Nb2_8 1_555 1_555
C61_8 Nb2_8 1_555 1_555
C62_8 Nb2_8 1_555 1_555
C63_8 Nb2_8 1_555 1_555
C64_8 Nb2_8 1_555 1_555
C65_8 Nb2_8 1_555 1_555
C66_8 Nb2_8 1_555 1_555
N17_8 Fe5_5 1_555 1_555
N18_8 C60_8 1_555 1_555
N19_8 C61_8 1_555 1_555
N20_8 Fe1_8 1_555 1_555
N21_8 C63_8 1_555 1_555
N22_8 C64_8 1_555 1_555
N23_8 C65_8 1_555 1_555
N24_8 C66_8 1_555 1_555
Fe5_5 N25_8 1_555 1_555
N25_8 C67_8 1_555 1_555
N26_8 Fe5_5 1_555 1_555
N27_8 Fe5_5 1_555 1_555
N28_8 Fe5_5 1_555 1_555
C67_8 C75_8 1_555 1_555
C68_8 N25_8 1_555 1_555
C69_8 N26_8 1_555 1_555
C70_8 N26_8 1_555 1_555
C71_8 N27_8 1_555 1_555
C72_8 N27_8 1_555 1_555
C73_8 N28_8 1_555 1_555
C74_8 N28_8 1_555 1_555
C75_8 O14_8 1_555 1_555
C76_8 C68_8 1_555 1_555
C77_8 C69_8 1_555 1_555
C78_8 C70_8 1_555 1_555
C79_8 C71_8 1_555 1_555
C80_8 C72_8 1_555 1_555
C81_8 C73_8 1_555 1_555
C82_8 C74_8 1_555 1_555
C83_8 C75_8 1_555 1_555
O15_8 C77_8 1_555 1_555
C84_8 C77_8 1_555 1_555
O16_8 C79_8 1_555 1_555
C85_8 C79_8 1_555 1_555
O17_8 C81_8 1_555 1_555
C86_8 C81_8 1_555 1_555
C87_8 O15_8 1_555 1_555
C88_8 O16_8 1_555 1_555
C89_8 O17_8 1_555 1_555
O18_8 C87_8 1_555 1_555
C90_8 C87_8 1_555 1_555
O19_8 C88_8 1_555 1_555
C91_8 C88_8 1_555 1_555
O20_8 C89_8 1_555 1_555
C92_8 C89_8 1_555 1_555
N29_8 Fe3_10 1_555 1_555
C93_8 N29_8 1_555 1_555
C94_8 N29_8 1_555 1_555
C95_8 C93_8 1_555 1_555
C96_8 C94_8 1_555 1_555
O21_8 C95_8 1_555 1_555
C97_8 C95_8 1_555 1_555
C98_8 O21_8 1_555 1_555
O22_8 C98_8 1_555 1_555
C99_8 C98_8 1_555 1_555
N30_8 Fe3_10 1_555 1_555
C100_8 N30_8 1_555 1_555
C101_8 N30_8 1_555 1_555
C102_8 C100_8 1_555 1_555
C103_8 C101_8 1_555 1_555
O23_8 C102_8 1_555 1_555
C104_8 C102_8 1_555 1_555
C105_8 O23_8 1_555 1_555
O24_8 C105_8 1_555 1_555
C106_8 C105_8 1_555 1_555
N31_8 Fe2_10 1_555 1_555
C107_8 N31_8 1_555 1_555
C108_8 N31_8 1_555 1_555
C109_8 C107_8 1_555 1_555
C110_8 C108_8 1_555 1_555
O25_8 C109_8 1_555 1_555
C111_8 C109_8 1_555 1_555
N32_8 Fe2_10 1_555 1_555
C112_8 N32_8 1_555 1_555
C113_8 N32_8 1_555 1_555
C114_8 C112_8 1_555 1_555
C115_8 C113_8 1_555 1_555
O26_8 C114_8 1_555 1_555
C116_8 C114_8 1_555 1_555
N33_8 Fe2_10 1_555 1_555
N34_8 Fe3_10 1_555 1_555
Fe5_6 N4_6 1_555 1_555
Fe6_9 N18_8 1_555 1_555
Fe7_10 N19_8 1_555 1_555
C26_8 C41_8 1_555 1_555
C28_8 C42_8 1_555 1_555
C30_8 C43_8 1_555 1_555
C32_8 C44_8 1_555 1_555
C34_8 C45_8 1_555 1_555
C36_8 C46_8 1_555 1_555
C38_8 C47_8 1_555 1_555
C40_8 C48_8 1_555 1_555
C62_8 N20_8 1_555 1_555
C76_8 C83_8 1_555 1_555
C78_8 C84_8 1_555 1_555
C80_8 C85_8 1_555 1_555
C82_8 C86_8 1_555 1_555
C96_8 C97_8 1_555 1_555
C103_8 C104_8 1_555 1_555
C110_8 C111_8 1_555 1_555
C115_8 C116_8 1_555 1_555
C21_8 H1_8 1_555 1_555
C22_8 H2_8 1_555 1_555
C17_8 H3_8 1_555 1_555
C16_8 H4_8 1_555 1_555
C18_8 H5_8 1_555 1_555
C11_8 H6_8 1_555 1_555
C10_8 H7_8 1_555 1_555
C14_8 H8_8 1_555 1_555
C9_8 H9_8 1_555 1_555
C12_8 H10_8 1_555 1_555
C13_8 H11_8 1_555 1_555
C15_8 H12_8 1_555 1_555
C19_8 H13_8 1_555 1_555
C20_8 H14_8 1_555 1_555
C55_8 H15_8 1_555 1_555
C55_8 H16_8 1_555 1_555
C55_8 H17_8 1_555 1_555
C42_8 H18_8 1_555 1_555
C28_8 H19_8 1_555 1_555
C43_8 H20_8 1_555 1_555
C45_8 H21_8 1_555 1_555
C40_8 H22_8 1_555 1_555
C23_8 H23_8 1_555 1_555
C24_8 H24_8 1_555 1_555
O6_8 H25_8 1_555 1_555
C44_8 H26_8 1_555 1_555
C47_8 H27_8 1_555 1_555
C54_8 H28_8 1_555 1_555
C54_8 H29_8 1_555 1_555
C54_8 H30_8 1_555 1_555
C34_8 H31_8 1_555 1_555
C36_8 H32_8 1_555 1_555
O5_8 H33_8 1_555 1_555
C56_8 H34_8 1_555 1_555
C56_8 H35_8 1_555 1_555
C56_8 H36_8 1_555 1_555
C57_8 H37_8 1_555 1_555
C57_8 H38_8 1_555 1_555
C57_8 H39_8 1_555 1_555
C32_8 H40_8 1_555 1_555
O1_8 H41_8 1_555 1_555
C26_8 H42_8 1_555 1_555
C41_8 H43_8 1_555 1_555
C30_8 H44_8 1_555 1_555
C48_8 H45_8 1_555 1_555
C58_8 H46_8 1_555 1_555
C58_8 H47_8 1_555 1_555
C58_8 H48_8 1_555 1_555
C46_8 H49_8 1_555 1_555
C38_8 H50_8 1_555 1_555
C86_8 H51_8 1_555 1_555
C67_8 H52_8 1_555 1_555
C80_8 H53_8 1_555 1_555
C92_8 H54_8 1_555 1_555
C92_8 H55_8 1_555 1_555
C92_8 H56_8 1_555 1_555
C104_8 H57_8 1_555 1_555
C85_8 H58_8 1_555 1_555
C76_8 H59_8 1_555 1_555
C106_8 H60_8 1_555 1_555
C106_8 H61_8 1_555 1_555
C106_8 H62_8 1_555 1_555
C91_8 H63_8 1_555 1_555
C91_8 H64_8 1_555 1_555
C91_8 H65_8 1_555 1_555
C96_8 H66_8 1_555 1_555
C107_8 H67_8 1_555 1_555
C69_8 H68_8 1_555 1_555
C82_8 H69_8 1_555 1_555
C99_8 H70_8 1_555 1_555
C99_8 H71_8 1_555 1_555
C99_8 H72_8 1_555 1_555
C84_8 H73_8 1_555 1_555
C90_8 H74_8 1_555 1_555
C90_8 H75_8 1_555 1_555
C90_8 H76_8 1_555 1_555
C93_8 H77_8 1_555 1_555
C68_8 H78_8 1_555 1_555
C72_8 H79_8 1_555 1_555
C70_8 H80_8 1_555 1_555
O14_8 H81_8 1_555 1_555
C83_8 H82_8 1_555 1_555
C97_8 H83_8 1_555 1_555
C101_8 H84_8 1_555 1_555
C103_8 H85_8 1_555 1_555
C71_8 H86_8 1_555 1_555
C78_8 H87_8 1_555 1_555
C94_8 H88_8 1_555 1_555
C73_8 H89_8 1_555 1_555
C100_8 H90_8 1_555 1_555
C74_8 H91_8 1_555 1_555
C116_8 H92_8 1_555 1_555
C108_8 H93_8 1_555 1_555
O25_8 H94_8 1_555 1_555
C112_8 H95_8 1_555 1_555
C111_8 H96_8 1_555 1_555
O26_8 H97_8 1_555 1_555
C113_8 H98_8 1_555 1_555
C110_8 H99_8 1_555 1_555
C115_8 H100_8 1_555 1_555
Nb1_9 C1_9 1_555 1_555
C1_9 N1_9 1_555 1_555
C2_9 Nb1_9 1_555 1_555
C3_9 Nb1_9 1_555 1_555
C4_9 Nb1_9 1_555 1_555
C5_9 Nb1_9 1_555 1_555
C6_9 Nb1_9 1_555 1_555
C7_9 Nb1_9 1_555 1_555
C8_9 Nb1_9 1_555 1_555
N1_9 Fe1_9 1_555 1_555
N2_9 C2_9 1_555 1_555
N3_9 C3_9 1_555 1_555
N35_3 C4_9 1_555 1_555
N5_9 C5_9 1_555 1_555
N6_9 C6_9 1_555 1_555
N7_9 C7_9 1_555 1_555
N8_9 C8_9 1_555 1_555
Fe1_9 N9_9 1_555 1_555
Fe2_11 N2_9 1_555 1_555
Fe3_11 N3_9 1_555 1_555
N9_9 C9_9 1_555 1_555
N10_9 Fe1_9 1_555 1_555
N11_9 Fe1_9 1_555 1_555
N12_9 Fe1_9 1_555 1_555
N13_9 Fe2_11 1_555 1_555
N14_9 Fe2_11 1_555 1_555
N15_9 Fe3_11 1_555 1_555
N16_9 Fe3_11 1_555 1_555
C9_9 C25_9 1_555 1_555
C10_9 N9_9 1_555 1_555
C11_9 N10_9 1_555 1_555
C12_9 N10_9 1_555 1_555
C13_9 N11_9 1_555 1_555
C14_9 N11_9 1_555 1_555
C15_9 N12_9 1_555 1_555
C16_9 N12_9 1_555 1_555
C17_9 N13_9 1_555 1_555
C18_9 N13_9 1_555 1_555
C19_9 N14_9 1_555 1_555
C20_9 N14_9 1_555 1_555
C21_9 N15_9 1_555 1_555
C22_9 N15_9 1_555 1_555
C23_9 N16_9 1_555 1_555
C24_9 N16_9 1_555 1_555
C25_9 O1_9 1_555 1_555
C26_9 C10_9 1_555 1_555
C27_9 C11_9 1_555 1_555
C28_9 C12_9 1_555 1_555
C29_9 C13_9 1_555 1_555
C30_9 C14_9 1_555 1_555
C31_9 C15_9 1_555 1_555
C32_9 C16_9 1_555 1_555
C33_9 C17_9 1_555 1_555
C35_9 C19_9 1_555 1_555
C36_9 C20_9 1_555 1_555
C37_9 C21_9 1_555 1_555
C38_9 C22_9 1_555 1_555
C39_9 C23_9 1_555 1_555
C40_9 C24_9 1_555 1_555
C41_9 C25_9 1_555 1_555
O2_9 C27_9 1_555 1_555
C42_9 C27_9 1_555 1_555
O3_9 C29_9 1_555 1_555
C43_9 C29_9 1_555 1_555
O4_9 C31_9 1_555 1_555
C44_9 C31_9 1_555 1_555
O5_9 C33_9 1_555 1_555
O6_9 C35_9 1_555 1_555
C46_9 C35_9 1_555 1_555
O7_9 C37_9 1_555 1_555
C47_9 C37_9 1_555 1_555
O8_9 C39_9 1_555 1_555
C48_9 C39_9 1_555 1_555
C49_9 O2_9 1_555 1_555
C50_9 O3_9 1_555 1_555
C51_9 O4_9 1_555 1_555
C52_9 O7_9 1_555 1_555
C53_9 O8_9 1_555 1_555
C54_9 C49_9 1_555 1_555
O10_9 C50_9 1_555 1_555
C55_9 C50_9 1_555 1_555
O11_9 C51_9 1_555 1_555
C56_9 C51_9 1_555 1_555
O12_9 C52_9 1_555 1_555
C57_9 C52_9 1_555 1_555
O13_9 C53_9 1_555 1_555
C58_9 C53_9 1_555 1_555
Nb2_9 C59_9 1_555 1_555
C59_9 N17_9 1_555 1_555
C60_9 Nb2_9 1_555 1_555
C61_9 Nb2_9 1_555 1_555
C62_9 Nb2_9 1_555 1_555
C63_9 Nb2_9 1_555 1_555
C64_9 Nb2_9 1_555 1_555
C65_9 Nb2_9 1_555 1_555
C66_9 Nb2_9 1_555 1_555
N17_9 Fe5_6 1_555 1_555
N18_9 C60_9 1_555 1_555
N19_9 C61_9 1_555 1_555
N20_9 Fe1_9 1_555 1_555
N21_9 C63_9 1_555 1_555
N22_9 C64_9 1_555 1_555
N23_9 C65_9 1_555 1_555
N24_9 C66_9 1_555 1_555
Fe5_6 N25_9 1_555 1_555
N25_9 C67_9 1_555 1_555
N26_9 Fe5_6 1_555 1_555
N27_9 Fe5_6 1_555 1_555
N28_9 Fe5_6 1_555 1_555
C67_9 C75_9 1_555 1_555
C68_9 N25_9 1_555 1_555
C69_9 N26_9 1_555 1_555
C70_9 N26_9 1_555 1_555
C71_9 N27_9 1_555 1_555
C72_9 N27_9 1_555 1_555
C73_9 N28_9 1_555 1_555
C74_9 N28_9 1_555 1_555
C75_9 O14_9 1_555 1_555
C76_9 C68_9 1_555 1_555
C77_9 C69_9 1_555 1_555
C78_9 C70_9 1_555 1_555
C79_9 C71_9 1_555 1_555
C80_9 C72_9 1_555 1_555
C81_9 C73_9 1_555 1_555
C82_9 C74_9 1_555 1_555
C83_9 C75_9 1_555 1_555
O15_9 C77_9 1_555 1_555
C84_9 C77_9 1_555 1_555
O16_9 C79_9 1_555 1_555
C85_9 C79_9 1_555 1_555
O17_9 C81_9 1_555 1_555
C86_9 C81_9 1_555 1_555
C87_9 O15_9 1_555 1_555
C88_9 O16_9 1_555 1_555
C89_9 O17_9 1_555 1_555
O18_9 C87_9 1_555 1_555
C90_9 C87_9 1_555 1_555
O19_9 C88_9 1_555 1_555
C91_9 C88_9 1_555 1_555
O20_9 C89_9 1_555 1_555
C92_9 C89_9 1_555 1_555
N29_9 Fe3_11 1_555 1_555
C93_9 N29_9 1_555 1_555
C94_9 N29_9 1_555 1_555
C95_9 C93_9 1_555 1_555
C96_9 C94_9 1_555 1_555
O21_9 C95_9 1_555 1_555
C97_9 C95_9 1_555 1_555
C98_9 O21_9 1_555 1_555
O22_9 C98_9 1_555 1_555
C99_9 C98_9 1_555 1_555
N30_9 Fe3_11 1_555 1_555
C100_9 N30_9 1_555 1_555
C101_9 N30_9 1_555 1_555
C102_9 C100_9 1_555 1_555
C103_9 C101_9 1_555 1_555
O23_9 C102_9 1_555 1_555
C104_9 C102_9 1_555 1_555
C105_9 O23_9 1_555 1_555
O24_9 C105_9 1_555 1_555
C106_9 C105_9 1_555 1_555
N31_9 Fe2_11 1_555 1_555
C107_9 N31_9 1_555 1_555
C108_9 N31_9 1_555 1_555
C110_9 C108_9 1_555 1_555
N32_9 Fe2_11 1_555 1_555
C112_9 N32_9 1_555 1_555
C113_9 N32_9 1_555 1_555
C114_9 C112_9 1_555 1_555
C115_9 C113_9 1_555 1_555
O26_9 C114_9 1_555 1_555
C116_9 C114_9 1_555 1_555
N33_9 Fe2_11 1_555 1_555
N34_9 Fe3_11 1_555 1_555
Fe6_10 N18_9 1_555 1_555
Fe7_11 N19_9 1_555 1_555
C26_9 C41_9 1_555 1_555
C28_9 C42_9 1_555 1_555
C30_9 C43_9 1_555 1_555
C32_9 C44_9 1_555 1_555
C36_9 C46_9 1_555 1_555
C38_9 C47_9 1_555 1_555
C40_9 C48_9 1_555 1_555
C62_9 N20_9 1_555 1_555
C76_9 C83_9 1_555 1_555
C78_9 C84_9 1_555 1_555
C80_9 C85_9 1_555 1_555
C82_9 C86_9 1_555 1_555
C96_9 C97_9 1_555 1_555
C103_9 C104_9 1_555 1_555
C115_9 C116_9 1_555 1_555
C21_9 H1_9 1_555 1_555
C22_9 H2_9 1_555 1_555
C17_9 H3_9 1_555 1_555
C16_9 H4_9 1_555 1_555
C18_9 H5_9 1_555 1_555
C11_9 H6_9 1_555 1_555
C10_9 H7_9 1_555 1_555
C14_9 H8_9 1_555 1_555
C9_9 H9_9 1_555 1_555
C12_9 H10_9 1_555 1_555
C13_9 H11_9 1_555 1_555
C15_9 H12_9 1_555 1_555
C19_9 H13_9 1_555 1_555
C20_9 H14_9 1_555 1_555
C55_9 H15_9 1_555 1_555
C55_9 H16_9 1_555 1_555
C55_9 H17_9 1_555 1_555
C42_9 H18_9 1_555 1_555
C28_9 H19_9 1_555 1_555
C43_9 H20_9 1_555 1_555
C40_9 H22_9 1_555 1_555
C23_9 H23_9 1_555 1_555
C24_9 H24_9 1_555 1_555
O6_9 H25_9 1_555 1_555
C44_9 H26_9 1_555 1_555
C47_9 H27_9 1_555 1_555
C54_9 H28_9 1_555 1_555
C54_9 H30_9 1_555 1_555
C36_9 H32_9 1_555 1_555
O5_9 H33_9 1_555 1_555
C56_9 H34_9 1_555 1_555
C56_9 H35_9 1_555 1_555
C56_9 H36_9 1_555 1_555
C57_9 H37_9 1_555 1_555
C57_9 H38_9 1_555 1_555
C57_9 H39_9 1_555 1_555
C32_9 H40_9 1_555 1_555
O1_9 H41_9 1_555 1_555
C26_9 H42_9 1_555 1_555
C41_9 H43_9 1_555 1_555
C30_9 H44_9 1_555 1_555
C48_9 H45_9 1_555 1_555
C58_9 H46_9 1_555 1_555
C58_9 H47_9 1_555 1_555
C58_9 H48_9 1_555 1_555
C46_9 H49_9 1_555 1_555
C38_9 H50_9 1_555 1_555
C86_9 H51_9 1_555 1_555
C67_9 H52_9 1_555 1_555
C80_9 H53_9 1_555 1_555
C92_9 H54_9 1_555 1_555
C92_9 H55_9 1_555 1_555
C92_9 H56_9 1_555 1_555
C104_9 H57_9 1_555 1_555
C85_9 H58_9 1_555 1_555
C76_9 H59_9 1_555 1_555
C106_9 H60_9 1_555 1_555
C106_9 H61_9 1_555 1_555
C106_9 H62_9 1_555 1_555
C91_9 H63_9 1_555 1_555
C91_9 H64_9 1_555 1_555
C91_9 H65_9 1_555 1_555
C96_9 H66_9 1_555 1_555
C107_9 H67_9 1_555 1_555
C69_9 H68_9 1_555 1_555
C82_9 H69_9 1_555 1_555
C99_9 H70_9 1_555 1_555
C99_9 H71_9 1_555 1_555
C99_9 H72_9 1_555 1_555
C84_9 H73_9 1_555 1_555
C90_9 H74_9 1_555 1_555
C90_9 H75_9 1_555 1_555
C90_9 H76_9 1_555 1_555
C93_9 H77_9 1_555 1_555
C68_9 H78_9 1_555 1_555
C72_9 H79_9 1_555 1_555
C70_9 H80_9 1_555 1_555
O14_9 H81_9 1_555 1_555
C83_9 H82_9 1_555 1_555
C101_9 H84_9 1_555 1_555
C103_9 H85_9 1_555 1_555
C71_9 H86_9 1_555 1_555
C78_9 H87_9 1_555 1_555
C94_9 H88_9 1_555 1_555
C73_9 H89_9 1_555 1_555
C100_9 H90_9 1_555 1_555
C74_9 H91_9 1_555 1_555
C116_9 H92_9 1_555 1_555
C108_9 H93_9 1_555 1_555
C112_9 H95_9 1_555 1_555
O26_9 H97_9 1_555 1_555
C113_9 H98_9 1_555 1_555
C110_9 H99_9 1_555 1_555
C115_9 H100_9 1_555 1_555
O25_9 C109_9 1_555 1_555
C111_9 C109_9 1_555 1_555
C34_9 C45_9 1_555 1_555
C45_9 H21_9 1_555 1_555
C34_9 H31_9 1_555 1_555
O25_9 H94_9 1_555 1_555
C111_9 H96_9 1_555 1_555
Nb1_10 C1_10 1_555 1_555
C1_10 N1_10 1_555 1_555
C2_10 Nb1_10 1_555 1_555
C3_10 Nb1_10 1_555 1_555
C4_10 Nb1_10 1_555 1_555
C5_10 Nb1_10 1_555 1_555
C6_10 Nb1_10 1_555 1_555
C7_10 Nb1_10 1_555 1_555
C8_10 Nb1_10 1_555 1_555
N1_10 Fe1_10 1_555 1_555
N33_8 C2_10 1_555 1_555
N34 C3_10 1_555 1_555
N4_7 C4_10 1_555 1_555
N5_10 C5_10 1_555 1_555
N6_10 C6_10 1_555 1_555
N7_10 C7_10 1_555 1_555
N8_10 C8_10 1_555 1_555
Fe1_10 N9_10 1_555 1_555
N9_10 C9_10 1_555 1_555
N10_10 Fe1_10 1_555 1_555
N11_10 Fe1_10 1_555 1_555
N12_10 Fe1_10 1_555 1_555
C9_10 C25_10 1_555 1_555
C10_10 N9_10 1_555 1_555
C11_10 N10_10 1_555 1_555
C12_10 N10_10 1_555 1_555
C13_10 N11_10 1_555 1_555
C14_10 N11_10 1_555 1_555
C15_10 N12_10 1_555 1_555
C16_10 N12_10 1_555 1_555
C25_10 O1_10 1_555 1_555
C26_10 C10_10 1_555 1_555
C27_10 C11_10 1_555 1_555
C28_10 C12_10 1_555 1_555
C29_10 C13_10 1_555 1_555
C30_10 C14_10 1_555 1_555
C31_10 C15_10 1_555 1_555
C32_10 C16_10 1_555 1_555
C41_10 C25_10 1_555 1_555
O2_10 C27_10 1_555 1_555
C42_10 C27_10 1_555 1_555
O3_10 C29_10 1_555 1_555
C43_10 C29_10 1_555 1_555
O4_10 C31_10 1_555 1_555
C44_10 C31_10 1_555 1_555
C49_10 O2_10 1_555 1_555
C50_10 O3_10 1_555 1_555
C51_10 O4_10 1_555 1_555
O9_10 C49_10 1_555 1_555
C54_10 C49_10 1_555 1_555
O10_10 C50_10 1_555 1_555
C55_10 C50_10 1_555 1_555
O11_10 C51_10 1_555 1_555
C56_10 C51_10 1_555 1_555
C60_10 Nb2_10 1_555 1_555
C61_10 Nb2_10 1_555 1_555
C62_10 Nb2_10 1_555 1_555
C63_10 Nb2_10 1_555 1_555
C65_10 Nb2_10 1_555 1_555
C66_10 Nb2_10 1_555 1_555
N18_10 C60_10 1_555 1_555
N19_10 C61_10 1_555 1_555
N20_10 Fe1_10 1_555 1_555
N23_10 C65_10 1_555 1_555
N24_10 C66_10 1_555 1_555
Fe5_7 N4_7 1_555 1_555
Fe6_6 N18_10 1_555 1_555
Fe7_3 N19_10 1_555 1_555
C26_10 C41_10 1_555 1_555
C28_10 C42_10 1_555 1_555
C30_10 C43_10 1_555 1_555
C32_10 C44_10 1_555 1_555
C62_10 N20_10 1_555 1_555
C16_10 H4_10 1_555 1_555
C11_10 H6_10 1_555 1_555
C10_10 H7_10 1_555 1_555
C14_10 H8_10 1_555 1_555
C9_10 H9_10 1_555 1_555
C12_10 H10_10 1_555 1_555
C13_10 H11_10 1_555 1_555
C15_10 H12_10 1_555 1_555
C55_10 H15_10 1_555 1_555
C55_10 H16_10 1_555 1_555
C55_10 H17_10 1_555 1_555
C42_10 H18_10 1_555 1_555
C28_10 H19_10 1_555 1_555
C43_10 H20_10 1_555 1_555
C54_10 H28_10 1_555 1_555
C54_10 H29_10 1_555 1_555
C54_10 H30_10 1_555 1_555
C56_10 H34_10 1_555 1_555
C56_10 H35_10 1_555 1_555
C56_10 H36_10 1_555 1_555
O1_10 H41_10 1_555 1_555
C26_10 H42_10 1_555 1_555
C41_10 H43_10 1_555 1_555
C30_10 H44_10 1_555 1_555
C92_10 H54_10 1_555 1_555
C92_10 H55_10 1_555 1_555
C92_10 H56_10 1_555 1_555
C59_10 N17_10 1_555 1_555
N17_10 Fe4_4 1_555 1_555
N22_10 C64_10 1_555 1_555
Fe4_4 N25_10 1_555 1_555
N25_10 C67_10 1_555 1_555
N26_10 Fe4_4 1_555 1_555
N27_10 Fe4_4 1_555 1_555
N28_10 Fe4_4 1_555 1_555
C67_10 C75_10 1_555 1_555
C68_10 N25_10 1_555 1_555
C69_10 N26_10 1_555 1_555
C70_10 N26_10 1_555 1_555
C71_10 N27_10 1_555 1_555
C72_10 N27_10 1_555 1_555
C73_10 N28_10 1_555 1_555
C74_10 N28_10 1_555 1_555
C75_10 O14_10 1_555 1_555
C76_10 C68_10 1_555 1_555
C77_10 C69_10 1_555 1_555
C78_10 C70_10 1_555 1_555
C79_10 C71_10 1_555 1_555
C80_10 C72_10 1_555 1_555
C81_10 C73_10 1_555 1_555
C82_10 C74_10 1_555 1_555
C83_10 C75_10 1_555 1_555
O15_10 C77_10 1_555 1_555
C84_10 C77_10 1_555 1_555
O16_10 C79_10 1_555 1_555
C85_10 C79_10 1_555 1_555
O17_10 C81_10 1_555 1_555
C86_10 C81_10 1_555 1_555
C87_10 O15_10 1_555 1_555
C88_10 O16_10 1_555 1_555
C89_10 O17_10 1_555 1_555
O18_10 C87_10 1_555 1_555
C90_10 C87_10 1_555 1_555
O19_10 C88_10 1_555 1_555
C91_10 C88_10 1_555 1_555
N35_4 Fe4_4 1_555 1_555
C76_10 C83_10 1_555 1_555
C78_10 C84_10 1_555 1_555
C80_10 C85_10 1_555 1_555
C82_10 C86_10 1_555 1_555
C67_10 H52_10 1_555 1_555
C80_10 H53_10 1_555 1_555
C85_10 H58_10 1_555 1_555
C91_10 H63_10 1_555 1_555
C91_10 H64_10 1_555 1_555
C91_10 H65_10 1_555 1_555
C69_10 H68_10 1_555 1_555
C84_10 H73_10 1_555 1_555
C90_10 H74_10 1_555 1_555
C90_10 H75_10 1_555 1_555
C90_10 H76_10 1_555 1_555
C68_10 H78_10 1_555 1_555
C72_10 H79_10 1_555 1_555
C70_10 H80_10 1_555 1_555
O14_10 H81_10 1_555 1_555
C83_10 H82_10 1_555 1_555
C71_10 H86_10 1_555 1_555
C78_10 H87_10 1_555 1_555
C73_10 H89_10 1_555 1_555
C74_10 H91_10 1_555 1_555
C2_11 Nb1_11 1_555 1_555
C3_11 Nb1_11 1_555 1_555
C4_11 Nb1_11 1_555 1_555
C5_11 Nb1_11 1_555 1_555
C7_11 Nb1_11 1_555 1_555
C8_11 Nb1_11 1_555 1_555
N33_9 C2_11 1_555 1_555
N34_2 C3_11 1_555 1_555
N35_4 C4_11 1_555 1_555
N7_11 C7_11 1_555 1_555
N8_11 C8_11 1_555 1_555
C56_11 H34_11 1_555 1_555
C56_11 H35_11 1_555 1_555
C56_11 H36_11 1_555 1_555
C1_11 N1_11 1_555 1_555
N1_11 Fe1_11 1_555 1_555
N6_11 C6_11 1_555 1_555
Fe1_11 N9_11 1_555 1_555
N9_11 C9_11 1_555 1_555
N10_11 Fe1_11 1_555 1_555
N11_11 Fe1_11 1_555 1_555
N12_11 Fe1_11 1_555 1_555
C9_11 C25_11 1_555 1_555
C10_11 N9_11 1_555 1_555
C11_11 N10_11 1_555 1_555
C12_11 N10_11 1_555 1_555
C13_11 N11_11 1_555 1_555
C14_11 N11_11 1_555 1_555
C15_11 N12_11 1_555 1_555
C16_11 N12_11 1_555 1_555
C25_11 O1_11 1_555 1_555
C26_11 C10_11 1_555 1_555
C27_11 C11_11 1_555 1_555
C28_11 C12_11 1_555 1_555
C29_11 C13_11 1_555 1_555
C30_11 C14_11 1_555 1_555
C31_11 C15_11 1_555 1_555
C32_11 C16_11 1_555 1_555
C41_11 C25_11 1_555 1_555
O2_11 C27_11 1_555 1_555
C42_11 C27_11 1_555 1_555
O3_11 C29_11 1_555 1_555
C43_11 C29_11 1_555 1_555
O4_11 C31_11 1_555 1_555
C44_11 C31_11 1_555 1_555
C49_11 O2_11 1_555 1_555
C50_11 O3_11 1_555 1_555
C51_11 O4_11 1_555 1_555
O9_11 C49_11 1_555 1_555
C54_11 C49_11 1_555 1_555
O10_11 C50_11 1_555 1_555
C55_11 C50_11 1_555 1_555
Nb2_11 C59_11 1_555 1_555
C59_11 N17_11 1_555 1_555
C60_11 Nb2_11 1_555 1_555
C61_11 Nb2_11 1_555 1_555
C62_11 Nb2_11 1_555 1_555
C63_11 Nb2_11 1_555 1_555
C64_11 Nb2_11 1_555 1_555
C65_11 Nb2_11 1_555 1_555
C66_11 Nb2_11 1_555 1_555
N17_11 Fe4_5 1_555 1_555
N18_11 C60_11 1_555 1_555
N19_11 C61_11 1_555 1_555
N20_11 Fe1_11 1_555 1_555
N21_11 C63_11 1_555 1_555
N22_11 C64_11 1_555 1_555
N23_11 C65_11 1_555 1_555
N24_11 C66_11 1_555 1_555
Fe4_5 N25_11 1_555 1_555
N25_11 C67_11 1_555 1_555
N26_11 Fe4_5 1_555 1_555
N27_11 Fe4_5 1_555 1_555
N28_11 Fe4_5 1_555 1_555
C67_11 C75_11 1_555 1_555
C68_11 N25_11 1_555 1_555
C69_11 N26_11 1_555 1_555
C70_11 N26_11 1_555 1_555
C71_11 N27_11 1_555 1_555
C72_11 N27_11 1_555 1_555
C73_11 N28_11 1_555 1_555
C74_11 N28_11 1_555 1_555
C75_11 O14_11 1_555 1_555
C76_11 C68_11 1_555 1_555
C77_11 C69_11 1_555 1_555
C78_11 C70_11 1_555 1_555
C79_11 C71_11 1_555 1_555
C80_11 C72_11 1_555 1_555
C81_11 C73_11 1_555 1_555
C82_11 C74_11 1_555 1_555
C83_11 C75_11 1_555 1_555
O15_11 C77_11 1_555 1_555
C84_11 C77_11 1_555 1_555
O16_11 C79_11 1_555 1_555
C85_11 C79_11 1_555 1_555
O17_11 C81_11 1_555 1_555
C86_11 C81_11 1_555 1_555
C87_11 O15_11 1_555 1_555
C88_11 O16_11 1_555 1_555
C89_11 O17_11 1_555 1_555
O18_11 C87_11 1_555 1_555
C90_11 C87_11 1_555 1_555
O19_11 C88_11 1_555 1_555
C91_11 C88_11 1_555 1_555
O20_11 C89_11 1_555 1_555
C92_11 C89_11 1_555 1_555
N35_5 Fe4_5 1_555 1_555
Fe6_4 N18_11 1_555 1_555
Fe7_5 N19_11 1_555 1_555
C26_11 C41_11 1_555 1_555
C28_11 C42_11 1_555 1_555
C30_11 C43_11 1_555 1_555
C32_11 C44_11 1_555 1_555
C62_11 N20_11 1_555 1_555
C76_11 C83_11 1_555 1_555
C78_11 C84_11 1_555 1_555
C80_11 C85_11 1_555 1_555
C82_11 C86_11 1_555 1_555
C16_11 H4_11 1_555 1_555
C11_11 H6_11 1_555 1_555
C10_11 H7_11 1_555 1_555
C14_11 H8_11 1_555 1_555
C9_11 H9_11 1_555 1_555
C12_11 H10_11 1_555 1_555
C13_11 H11_11 1_555 1_555
C15_11 H12_11 1_555 1_555
C55_11 H15_11 1_555 1_555
C55_11 H16_11 1_555 1_555
C55_11 H17_11 1_555 1_555
C42_11 H18_11 1_555 1_555
C28_11 H19_11 1_555 1_555
C43_11 H20_11 1_555 1_555
C44_11 H26_11 1_555 1_555
C54_11 H28_11 1_555 1_555
C54_11 H29_11 1_555 1_555
C54_11 H30_11 1_555 1_555
C32_11 H40_11 1_555 1_555
O1_11 H41_11 1_555 1_555
C41_11 H43_11 1_555 1_555
C30_11 H44_11 1_555 1_555
C67_11 H52_11 1_555 1_555
C80_11 H53_11 1_555 1_555
C92_11 H54_11 1_555 1_555
C92_11 H55_11 1_555 1_555
C92_11 H56_11 1_555 1_555
C85_11 H58_11 1_555 1_555
C76_11 H59_11 1_555 1_555
C91_11 H63_11 1_555 1_555
C91_11 H64_11 1_555 1_555
C91_11 H65_11 1_555 1_555
C69_11 H68_11 1_555 1_555
C84_11 H73_11 1_555 1_555
C90_11 H74_11 1_555 1_555
C90_11 H75_11 1_555 1_555
C90_11 H76_11 1_555 1_555
C68_11 H78_11 1_555 1_555
C72_11 H79_11 1_555 1_555
C70_11 H80_11 1_555 1_555
O14_11 H81_11 1_555 1_555
C83_11 H82_11 1_555 1_555
C71_11 H86_11 1_555 1_555
C78_11 H87_11 1_555 1_555
C73_11 H89_11 1_555 1_555
C74_11 H91_11 1_555 1_555
C59_12 N17_12 1_555 1_555
N17_12 Fe5_7 1_555 1_555
N22_12 C64_12 1_555 1_555
Fe5_7 N25_12 1_555 1_555
N25_12 C67_12 1_555 1_555
N26_12 Fe5_7 1_555 1_555
N27_12 Fe5_7 1_555 1_555
N28_12 Fe5_7 1_555 1_555
C67_12 C75_12 1_555 1_555
C68_12 N25_12 1_555 1_555
C69_12 N26_12 1_555 1_555
C70_12 N26_12 1_555 1_555
C71_12 N27_12 1_555 1_555
C72_12 N27_12 1_555 1_555
C73_12 N28_12 1_555 1_555
C74_12 N28_12 1_555 1_555
C75_12 O14_12 1_555 1_555
C76_12 C68_12 1_555 1_555
C77_12 C69_12 1_555 1_555
C78_12 C70_12 1_555 1_555
C79_12 C71_12 1_555 1_555
C80_12 C72_12 1_555 1_555
C81_12 C73_12 1_555 1_555
C82_12 C74_12 1_555 1_555
C83_12 C75_12 1_555 1_555
O15_12 C77_12 1_555 1_555
C84_12 C77_12 1_555 1_555
O16_12 C79_12 1_555 1_555
C85_12 C79_12 1_555 1_555
O17_12 C81_12 1_555 1_555
C86_12 C81_12 1_555 1_555
C87_12 O15_12 1_555 1_555
C88_12 O16_12 1_555 1_555
C89_12 O17_12 1_555 1_555
O18_12 C87_12 1_555 1_555
C90_12 C87_12 1_555 1_555
O19_12 C88_12 1_555 1_555
C91_12 C88_12 1_555 1_555
C76_12 C83_12 1_555 1_555
C78_12 C84_12 1_555 1_555
C80_12 C85_12 1_555 1_555
C82_12 C86_12 1_555 1_555
C86_12 H51_12 1_555 1_555
C67_12 H52_12 1_555 1_555
C80_12 H53_12 1_555 1_555
C85_12 H58_12 1_555 1_555
C91_12 H63_12 1_555 1_555
C91_12 H64_12 1_555 1_555
C91_12 H65_12 1_555 1_555
C69_12 H68_12 1_555 1_555
C82_12 H69_12 1_555 1_555
C84_12 H73_12 1_555 1_555
C90_12 H74_12 1_555 1_555
C90_12 H75_12 1_555 1_555
C90_12 H76_12 1_555 1_555
C68_12 H78_12 1_555 1_555
C72_12 H79_12 1_555 1_555
C70_12 H80_12 1_555 1_555
O14_12 H81_12 1_555 1_555
C83_12 H82_12 1_555 1_555
C71_12 H86_12 1_555 1_555
C78_12 H87_12 1_555 1_555
C73_12 H89_12 1_555 1_555
C74_12 H91_12 1_555 1_555
C1_12 N1_12 1_555 1_555
N1_12 Fe1_12 1_555 1_555
N6_12 C6_12 1_555 1_555
Fe1_12 N9_12 1_555 1_555
N9_12 C9_12 1_555 1_555
N10_12 Fe1_12 1_555 1_555
N11_12 Fe1_12 1_555 1_555
N12_12 Fe1_12 1_555 1_555
C9_12 C25_12 1_555 1_555
C10_12 N9_12 1_555 1_555
C11_12 N10_12 1_555 1_555
C12_12 N10_12 1_555 1_555
C13_12 N11_12 1_555 1_555
C14_12 N11_12 1_555 1_555
C15_12 N12_12 1_555 1_555
C16_12 N12_12 1_555 1_555
C25_12 O1_12 1_555 1_555
C26_12 C10_12 1_555 1_555
C27_12 C11_12 1_555 1_555
C28_12 C12_12 1_555 1_555
C29_12 C13_12 1_555 1_555
C30_12 C14_12 1_555 1_555
C31_12 C15_12 1_555 1_555
C32_12 C16_12 1_555 1_555
C41_12 C25_12 1_555 1_555
O2_12 C27_12 1_555 1_555
C42_12 C27_12 1_555 1_555
O3_12 C29_12 1_555 1_555
C43_12 C29_12 1_555 1_555
O4_12 C31_12 1_555 1_555
C44_12 C31_12 1_555 1_555
C49_12 O2_12 1_555 1_555
C50_12 O3_12 1_555 1_555
C51_12 O4_12 1_555 1_555
O9_12 C49_12 1_555 1_555
C54_12 C49_12 1_555 1_555
O10_12 C50_12 1_555 1_555
C55_12 C50_12 1_555 1_555
C60_12 Nb2_12 1_555 1_555
C61_12 Nb2_12 1_555 1_555
C62_12 Nb2_12 1_555 1_555
C63_12 Nb2_12 1_555 1_555
C65_12 Nb2_12 1_555 1_555
C66_12 Nb2_12 1_555 1_555
N18_12 C60_12 1_555 1_555
N19_12 C61_12 1_555 1_555
N20_12 Fe1_12 1_555 1_555
N23_12 C65_12 1_555 1_555
N24_12 C66_12 1_555 1_555
Fe6_5 N18_12 1_555 1_555
Fe7_2 N19_12 1_555 1_555
C26_12 C41_12 1_555 1_555
C28_12 C42_12 1_555 1_555
C30_12 C43_12 1_555 1_555
C32_12 C44_12 1_555 1_555
C62_12 N20_12 1_555 1_555
C16_12 H4_12 1_555 1_555
C11_12 H6_12 1_555 1_555
C10_12 H7_12 1_555 1_555
C14_12 H8_12 1_555 1_555
C9_12 H9_12 1_555 1_555
C12_12 H10_12 1_555 1_555
C13_12 H11_12 1_555 1_555
C15_12 H12_12 1_555 1_555
C55_12 H15_12 1_555 1_555
C55_12 H16_12 1_555 1_555
C55_12 H17_12 1_555 1_555
C42_12 H18_12 1_555 1_555
C28_12 H19_12 1_555 1_555
C43_12 H20_12 1_555 1_555
C54_12 H28_12 1_555 1_555
C54_12 H29_12 1_555 1_555
C54_12 H30_12 1_555 1_555
O1_12 H41_12 1_555 1_555
C41_12 H43_12 1_555 1_555
C30_12 H44_12 1_555 1_555
C92_12 H54_12 1_555 1_555
C92_12 H55_12 1_555 1_555
C92_12 H56_12 1_555 1_555
C2_12 Nb1_12 1_555 1_555
C3_12 Nb1_12 1_555 1_555
C4_12 Nb1_12 1_555 1_555
C5_12 Nb1_12 1_555 1_555
C7_12 Nb1_12 1_555 1_555
C8_12 Nb1_12 1_555 1_555
N33_7 C2_12 1_555 1_555
N34_3 C3_12 1_555 1_555
N35_5 C4_12 1_555 1_555
N7_12 C7_12 1_555 1_555
N8_12 C8_12 1_555 1_555
C56_12 H34_12 1_555 1_555
C56_12 H35_12 1_555 1_555
C56_12 H36_12 1_555 1_555
Fe7_10 N19_13 1_555 1_555
Nb1_13 C1_13 1_555 1_555
C1_13 N1_13 1_555 1_555
C2_13 Nb1_13 1_555 1_555
C3_13 Nb1_13 1_555 1_555
C4_13 Nb1_13 1_555 1_555
C5_13 Nb1_13 1_555 1_555
C6_13 Nb1_13 1_555 1_555
C7_13 Nb1_13 1_555 1_555
C8_13 Nb1_13 1_555 1_555
N1_13 Fe1_13 1_555 1_555
N33_5 C2_13 1_555 1_555
N34_7 C3_13 1_555 1_555
N4_8 C4_13 1_555 1_555
N5_13 C5_13 1_555 1_555
N6_13 C6_13 1_555 1_555
N7_13 C7_13 1_555 1_555
N8_13 C8_13 1_555 1_555
Fe1_13 N9_13 1_555 1_555
N9_13 C9_13 1_555 1_555
N10_13 Fe1_13 1_555 1_555
N11_13 Fe1_13 1_555 1_555
N12_13 Fe1_13 1_555 1_555
C9_13 C25_13 1_555 1_555
C10_13 N9_13 1_555 1_555
C11_13 N10_13 1_555 1_555
C12_13 N10_13 1_555 1_555
C13_13 N11_13 1_555 1_555
C14_13 N11_13 1_555 1_555
C15_13 N12_13 1_555 1_555
C16_13 N12_13 1_555 1_555
C25_13 O1_13 1_555 1_555
C26_13 C10_13 1_555 1_555
C27_13 C11_13 1_555 1_555
C28_13 C12_13 1_555 1_555
C29_13 C13_13 1_555 1_555
C30_13 C14_13 1_555 1_555
C31_13 C15_13 1_555 1_555
C32_13 C16_13 1_555 1_555
C41_13 C25_13 1_555 1_555
O2_13 C27_13 1_555 1_555
C42_13 C27_13 1_555 1_555
O3_13 C29_13 1_555 1_555
C43_13 C29_13 1_555 1_555
O4_13 C31_13 1_555 1_555
C44_13 C31_13 1_555 1_555
C49_13 O2_13 1_555 1_555
C50_13 O3_13 1_555 1_555
C51_13 O4_13 1_555 1_555
O9_13 C49_13 1_555 1_555
C54_13 C49_13 1_555 1_555
O10_13 C50_13 1_555 1_555
C55_13 C50_13 1_555 1_555
O11_13 C51_13 1_555 1_555
C56_13 C51_13 1_555 1_555
Nb2_13 C59_13 1_555 1_555
C59_13 N17_13 1_555 1_555
C60_13 Nb2_13 1_555 1_555
C61_13 Nb2_13 1_555 1_555
C62_13 Nb2_13 1_555 1_555
C63_13 Nb2_13 1_555 1_555
C64_13 Nb2_13 1_555 1_555
C65_13 Nb2_13 1_555 1_555
C66_13 Nb2_13 1_555 1_555
N17_13 Fe4_6 1_555 1_555
N18_13 C60_13 1_555 1_555
N20_13 Fe1_13 1_555 1_555
N21_13 C63_13 1_555 1_555
N22_13 C64_13 1_555 1_555
N23_13 C65_13 1_555 1_555
N24_13 C66_13 1_555 1_555
Fe4_6 N25_13 1_555 1_555
N25_13 C67_13 1_555 1_555
N26_13 Fe4_6 1_555 1_555
N27_13 Fe4_6 1_555 1_555
N28_13 Fe4_6 1_555 1_555
C67_13 C75_13 1_555 1_555
C68_13 N25_13 1_555 1_555
C69_13 N26_13 1_555 1_555
C70_13 N26_13 1_555 1_555
C71_13 N27_13 1_555 1_555
C72_13 N27_13 1_555 1_555
C73_13 N28_13 1_555 1_555
C74_13 N28_13 1_555 1_555
C75_13 O14_13 1_555 1_555
C76_13 C68_13 1_555 1_555
C77_13 C69_13 1_555 1_555
C78_13 C70_13 1_555 1_555
C79_13 C71_13 1_555 1_555
C80_13 C72_13 1_555 1_555
C81_13 C73_13 1_555 1_555
C82_13 C74_13 1_555 1_555
C83_13 C75_13 1_555 1_555
O15_13 C77_13 1_555 1_555
C84_13 C77_13 1_555 1_555
O16_13 C79_13 1_555 1_555
C85_13 C79_13 1_555 1_555
O17_13 C81_13 1_555 1_555
C86_13 C81_13 1_555 1_555
C87_13 O15_13 1_555 1_555
C88_13 O16_13 1_555 1_555
C89_13 O17_13 1_555 1_555
O18_13 C87_13 1_555 1_555
C90_13 C87_13 1_555 1_555
O19_13 C88_13 1_555 1_555
C91_13 C88_13 1_555 1_555
O20_13 C89_13 1_555 1_555
C92_13 C89_13 1_555 1_555
N35_6 Fe4_6 1_555 1_555
Fe5_8 N4_8 1_555 1_555
Fe6_3 N18_13 1_555 1_555
C26_13 C41_13 1_555 1_555
C28_13 C42_13 1_555 1_555
C30_13 C43_13 1_555 1_555
C32_13 C44_13 1_555 1_555
C62_13 N20_13 1_555 1_555
C76_13 C83_13 1_555 1_555
C78_13 C84_13 1_555 1_555
C80_13 C85_13 1_555 1_555
C82_13 C86_13 1_555 1_555
C16_13 H4_13 1_555 1_555
C11_13 H6_13 1_555 1_555
C10_13 H7_13 1_555 1_555
C14_13 H8_13 1_555 1_555
C9_13 H9_13 1_555 1_555
C12_13 H10_13 1_555 1_555
C13_13 H11_13 1_555 1_555
C15_13 H12_13 1_555 1_555
C55_13 H15_13 1_555 1_555
C55_13 H16_13 1_555 1_555
C55_13 H17_13 1_555 1_555
C42_13 H18_13 1_555 1_555
C28_13 H19_13 1_555 1_555
C43_13 H20_13 1_555 1_555
C44_13 H26_13 1_555 1_555
C54_13 H28_13 1_555 1_555
C54_13 H29_13 1_555 1_555
C54_13 H30_13 1_555 1_555
C56_13 H34_13 1_555 1_555
C56_13 H35_13 1_555 1_555
C56_13 H36_13 1_555 1_555
C32_13 H40_13 1_555 1_555
O1_13 H41_13 1_555 1_555
C26_13 H42_13 1_555 1_555
C41_13 H43_13 1_555 1_555
C30_13 H44_13 1_555 1_555
C86_13 H51_13 1_555 1_555
C67_13 H52_13 1_555 1_555
C92_13 H55_13 1_555 1_555
C76_13 H59_13 1_555 1_555
C91_13 H63_13 1_555 1_555
C91_13 H64_13 1_555 1_555
C91_13 H65_13 1_555 1_555
C69_13 H68_13 1_555 1_555
C82_13 H69_13 1_555 1_555
C84_13 H73_13 1_555 1_555
C90_13 H74_13 1_555 1_555
C90_13 H75_13 1_555 1_555
C90_13 H76_13 1_555 1_555
C68_13 H78_13 1_555 1_555
C72_13 H79_13 1_555 1_555
C70_13 H80_13 1_555 1_555
O14_13 H81_13 1_555 1_555
C83_13 H82_13 1_555 1_555
C71_13 H86_13 1_555 1_555
C78_13 H87_13 1_555 1_555
C73_13 H89_13 1_555 1_555
C74_13 H91_13 1_555 1_555
Fe7_11 N19_14 1_555 1_555
Nb1_14 C1_14 1_555 1_555
C1_14 N1_14 1_555 1_555
C2_14 Nb1_14 1_555 1_555
C3_14 Nb1_14 1_555 1_555
C4_14 Nb1_14 1_555 1_555
C5_14 Nb1_14 1_555 1_555
C6_14 Nb1_14 1_555 1_555
C7_14 Nb1_14 1_555 1_555
C8_14 Nb1_14 1_555 1_555
N1_14 Fe1_14 1_555 1_555
N33_6 C2_14 1_555 1_555
N34_8 C3_14 1_555 1_555
N35_6 C4_14 1_555 1_555
N5_14 C5_14 1_555 1_555
N6_14 C6_14 1_555 1_555
N7_14 C7_14 1_555 1_555
N8_14 C8_14 1_555 1_555
Fe1_14 N9_14 1_555 1_555
N9_14 C9_14 1_555 1_555
N10_14 Fe1_14 1_555 1_555
N11_14 Fe1_14 1_555 1_555
N12_14 Fe1_14 1_555 1_555
C9_14 C25_14 1_555 1_555
C10_14 N9_14 1_555 1_555
C11_14 N10_14 1_555 1_555
C12_14 N10_14 1_555 1_555
C13_14 N11_14 1_555 1_555
C14_14 N11_14 1_555 1_555
C15_14 N12_14 1_555 1_555
C16_14 N12_14 1_555 1_555
C25_14 O1_14 1_555 1_555
C26_14 C10_14 1_555 1_555
C27_14 C11_14 1_555 1_555
C28_14 C12_14 1_555 1_555
C29_14 C13_14 1_555 1_555
C30_14 C14_14 1_555 1_555
C31_14 C15_14 1_555 1_555
C32_14 C16_14 1_555 1_555
C41_14 C25_14 1_555 1_555
O2_14 C27_14 1_555 1_555
C42_14 C27_14 1_555 1_555
O3_14 C29_14 1_555 1_555
C43_14 C29_14 1_555 1_555
O4_14 C31_14 1_555 1_555
C44_14 C31_14 1_555 1_555
C49_14 O2_14 1_555 1_555
C50_14 O3_14 1_555 1_555
C51_14 O4_14 1_555 1_555
O9_14 C49_14 1_555 1_555
C54_14 C49_14 1_555 1_555
O10_14 C50_14 1_555 1_555
C55_14 C50_14 1_555 1_555
O11_14 C51_14 1_555 1_555
C56_14 C51_14 1_555 1_555
Nb2_14 C59_14 1_555 1_555
C59_14 N17_14 1_555 1_555
C60_14 Nb2_14 1_555 1_555
C61_14 Nb2_14 1_555 1_555
C62_14 Nb2_14 1_555 1_555
C63_14 Nb2_14 1_555 1_555
C64_14 Nb2_14 1_555 1_555
C65_14 Nb2_14 1_555 1_555
C66_14 Nb2_14 1_555 1_555
N17_14 Fe4_7 1_555 1_555
N18_14 C60_14 1_555 1_555
N20_14 Fe1_14 1_555 1_555
N21_14 C63_14 1_555 1_555
N22_14 C64_14 1_555 1_555
N23_14 C65_14 1_555 1_555
N24_14 C66_14 1_555 1_555
Fe4_7 N25_14 1_555 1_555
N25_14 C67_14 1_555 1_555
N26_14 Fe4_7 1_555 1_555
N27_14 Fe4_7 1_555 1_555
N28_14 Fe4_7 1_555 1_555
C67_14 C75_14 1_555 1_555
C68_14 N25_14 1_555 1_555
C69_14 N26_14 1_555 1_555
C70_14 N26_14 1_555 1_555
C71_14 N27_14 1_555 1_555
C72_14 N27_14 1_555 1_555
C73_14 N28_14 1_555 1_555
C74_14 N28_14 1_555 1_555
C75_14 O14_14 1_555 1_555
C76_14 C68_14 1_555 1_555
C77_14 C69_14 1_555 1_555
C78_14 C70_14 1_555 1_555
C79_14 C71_14 1_555 1_555
C80_14 C72_14 1_555 1_555
C81_14 C73_14 1_555 1_555
C82_14 C74_14 1_555 1_555
C83_14 C75_14 1_555 1_555
O15_14 C77_14 1_555 1_555
C84_14 C77_14 1_555 1_555
O16_14 C79_14 1_555 1_555
C85_14 C79_14 1_555 1_555
O17_14 C81_14 1_555 1_555
C86_14 C81_14 1_555 1_555
C87_14 O15_14 1_555 1_555
C88_14 O16_14 1_555 1_555
C89_14 O17_14 1_555 1_555
C90_14 C87_14 1_555 1_555
O19_14 C88_14 1_555 1_555
C91_14 C88_14 1_555 1_555
O20_14 C89_14 1_555 1_555
C92_14 C89_14 1_555 1_555
N35_7 Fe4_7 1_555 1_555
Fe6 N18_14 1_555 1_555
C26_14 C41_14 1_555 1_555
C28_14 C42_14 1_555 1_555
C30_14 C43_14 1_555 1_555
C32_14 C44_14 1_555 1_555
C62_14 N20_14 1_555 1_555
C76_14 C83_14 1_555 1_555
C78_14 C84_14 1_555 1_555
C80_14 C85_14 1_555 1_555
C82_14 C86_14 1_555 1_555
C16_14 H4_14 1_555 1_555
C11_14 H6_14 1_555 1_555
C10_14 H7_14 1_555 1_555
C14_14 H8_14 1_555 1_555
C9_14 H9_14 1_555 1_555
C12_14 H10_14 1_555 1_555
C13_14 H11_14 1_555 1_555
C15_14 H12_14 1_555 1_555
C55_14 H15_14 1_555 1_555
C55_14 H16_14 1_555 1_555
C55_14 H17_14 1_555 1_555
C42_14 H18_14 1_555 1_555
C28_14 H19_14 1_555 1_555
C43_14 H20_14 1_555 1_555
C44_14 H26_14 1_555 1_555
C54_14 H28_14 1_555 1_555
C54_14 H29_14 1_555 1_555
C54_14 H30_14 1_555 1_555
C56_14 H34_14 1_555 1_555
C56_14 H35_14 1_555 1_555
C56_14 H36_14 1_555 1_555
C32_14 H40_14 1_555 1_555
O1_14 H41_14 1_555 1_555
C26_14 H42_14 1_555 1_555
C41_14 H43_14 1_555 1_555
C30_14 H44_14 1_555 1_555
C86_14 H51_14 1_555 1_555
C67_14 H52_14 1_555 1_555
C92_14 H55_14 1_555 1_555
C76_14 H59_14 1_555 1_555
C91_14 H63_14 1_555 1_555
C91_14 H64_14 1_555 1_555
C91_14 H65_14 1_555 1_555
C69_14 H68_14 1_555 1_555
C82_14 H69_14 1_555 1_555
C84_14 H73_14 1_555 1_555
C90_14 H74_14 1_555 1_555
C90_14 H76_14 1_555 1_555
C68_14 H78_14 1_555 1_555
C72_14 H79_14 1_555 1_555
C70_14 H80_14 1_555 1_555
O14_14 H81_14 1_555 1_555
C83_14 H82_14 1_555 1_555
C71_14 H86_14 1_555 1_555
C78_14 H87_14 1_555 1_555
C73_14 H89_14 1_555 1_555
C74_14 H91_14 1_555 1_555
Fe7_9 N19_15 1_555 1_555
Nb1_15 C1_15 1_555 1_555
C1_15 N1_15 1_555 1_555
C2_15 Nb1_15 1_555 1_555
C3_15 Nb1_15 1_555 1_555
C4_15 Nb1_15 1_555 1_555
C5_15 Nb1_15 1_555 1_555
C6_15 Nb1_15 1_555 1_555
C7_15 Nb1_15 1_555 1_555
C8_15 Nb1_15 1_555 1_555
N1_15 Fe1_15 1_555 1_555
N33_4 C2_15 1_555 1_555
N34_9 C3_15 1_555 1_555
N35_7 C4_15 1_555 1_555
N5_15 C5_15 1_555 1_555
N6_15 C6_15 1_555 1_555
N7_15 C7_15 1_555 1_555
N8_15 C8_15 1_555 1_555
Fe1_15 N9_15 1_555 1_555
N9_15 C9_15 1_555 1_555
N10_15 Fe1_15 1_555 1_555
N11_15 Fe1_15 1_555 1_555
N12_15 Fe1_15 1_555 1_555
C9_15 C25_15 1_555 1_555
C10_15 N9_15 1_555 1_555
C11_15 N10_15 1_555 1_555
C12_15 N10_15 1_555 1_555
C13_15 N11_15 1_555 1_555
C14_15 N11_15 1_555 1_555
C15_15 N12_15 1_555 1_555
C16_15 N12_15 1_555 1_555
C25_15 O1_15 1_555 1_555
C26_15 C10_15 1_555 1_555
C27_15 C11_15 1_555 1_555
C28_15 C12_15 1_555 1_555
C29_15 C13_15 1_555 1_555
C30_15 C14_15 1_555 1_555
C31_15 C15_15 1_555 1_555
C32_15 C16_15 1_555 1_555
C41_15 C25_15 1_555 1_555
O2_15 C27_15 1_555 1_555
C42_15 C27_15 1_555 1_555
O3_15 C29_15 1_555 1_555
C43_15 C29_15 1_555 1_555
O4_15 C31_15 1_555 1_555
C44_15 C31_15 1_555 1_555
C49_15 O2_15 1_555 1_555
C50_15 O3_15 1_555 1_555
C51_15 O4_15 1_555 1_555
O9_15 C49_15 1_555 1_555
C54_15 C49_15 1_555 1_555
O10_15 C50_15 1_555 1_555
C55_15 C50_15 1_555 1_555
O11_15 C51_15 1_555 1_555
C56_15 C51_15 1_555 1_555
Nb2_15 C59_15 1_555 1_555
C59_15 N17_15 1_555 1_555
C60_15 Nb2_15 1_555 1_555
C61_15 Nb2_15 1_555 1_555
C62_15 Nb2_15 1_555 1_555
C63_15 Nb2_15 1_555 1_555
C64_15 Nb2_15 1_555 1_555
C65_15 Nb2_15 1_555 1_555
C66_15 Nb2_15 1_555 1_555
N17_15 Fe5_8 1_555 1_555
N18_15 C60_15 1_555 1_555
N20_15 Fe1_15 1_555 1_555
N21_15 C63_15 1_555 1_555
N22_15 C64_15 1_555 1_555
N23_15 C65_15 1_555 1_555
N24_15 C66_15 1_555 1_555
Fe5_8 N25_15 1_555 1_555
N25_15 C67_15 1_555 1_555
N26_15 Fe5_8 1_555 1_555
N27_15 Fe5_8 1_555 1_555
N28_15 Fe5_8 1_555 1_555
C67_15 C75_15 1_555 1_555
C68_15 N25_15 1_555 1_555
C69_15 N26_15 1_555 1_555
C70_15 N26_15 1_555 1_555
C71_15 N27_15 1_555 1_555
C72_15 N27_15 1_555 1_555
C73_15 N28_15 1_555 1_555
C74_15 N28_15 1_555 1_555
C75_15 O14_15 1_555 1_555
C76_15 C68_15 1_555 1_555
C77_15 C69_15 1_555 1_555
C78_15 C70_15 1_555 1_555
C79_15 C71_15 1_555 1_555
C80_15 C72_15 1_555 1_555
C81_15 C73_15 1_555 1_555
C82_15 C74_15 1_555 1_555
C83_15 C75_15 1_555 1_555
O15_15 C77_15 1_555 1_555
C84_15 C77_15 1_555 1_555
O16_15 C79_15 1_555 1_555
C85_15 C79_15 1_555 1_555
O17_15 C81_15 1_555 1_555
C86_15 C81_15 1_555 1_555
C87_15 O15_15 1_555 1_555
C88_15 O16_15 1_555 1_555
C89_15 O17_15 1_555 1_555
C90_15 C87_15 1_555 1_555
O19_15 C88_15 1_555 1_555
C91_15 C88_15 1_555 1_555
O20_15 C89_15 1_555 1_555
C92_15 C89_15 1_555 1_555
Fe6_2 N18_15 1_555 1_555
C26_15 C41_15 1_555 1_555
C28_15 C42_15 1_555 1_555
C30_15 C43_15 1_555 1_555
C32_15 C44_15 1_555 1_555
C62_15 N20_15 1_555 1_555
C76_15 C83_15 1_555 1_555
C78_15 C84_15 1_555 1_555
C80_15 C85_15 1_555 1_555
C82_15 C86_15 1_555 1_555
C16_15 H4_15 1_555 1_555
C11_15 H6_15 1_555 1_555
C10_15 H7_15 1_555 1_555
C14_15 H8_15 1_555 1_555
C9_15 H9_15 1_555 1_555
C12_15 H10_15 1_555 1_555
C13_15 H11_15 1_555 1_555
C15_15 H12_15 1_555 1_555
C55_15 H15_15 1_555 1_555
C55_15 H16_15 1_555 1_555
C55_15 H17_15 1_555 1_555
C42_15 H18_15 1_555 1_555
C28_15 H19_15 1_555 1_555
C43_15 H20_15 1_555 1_555
C44_15 H26_15 1_555 1_555
C54_15 H28_15 1_555 1_555
C54_15 H29_15 1_555 1_555
C54_15 H30_15 1_555 1_555
C56_15 H34_15 1_555 1_555
C56_15 H35_15 1_555 1_555
C56_15 H36_15 1_555 1_555
C32_15 H40_15 1_555 1_555
O1_15 H41_15 1_555 1_555
C26_15 H42_15 1_555 1_555
C41_15 H43_15 1_555 1_555
C30_15 H44_15 1_555 1_555
C86_15 H51_15 1_555 1_555
C67_15 H52_15 1_555 1_555
C92_15 H55_15 1_555 1_555
C76_15 H59_15 1_555 1_555
C91_15 H63_15 1_555 1_555
C91_15 H64_15 1_555 1_555
C91_15 H65_15 1_555 1_555
C69_15 H68_15 1_555 1_555
C82_15 H69_15 1_555 1_555
C84_15 H73_15 1_555 1_555
C90_15 H74_15 1_555 1_555
C90_15 H76_15 1_555 1_555
C68_15 H78_15 1_555 1_555
C72_15 H79_15 1_555 1_555
C70_15 H80_15 1_555 1_555
O14_15 H81_15 1_555 1_555
C83_15 H82_15 1_555 1_555
C71_15 H86_15 1_555 1_555
C78_15 H87_15 1_555 1_555
C73_15 H89_15 1_555 1_555
C74_15 H91_15 1_555 1_555
Nb1_16 C1_16 1_555 1_555
C1_16 N1_16 1_555 1_555
C2_16 Nb1_16 1_555 1_555
C3_16 Nb1_16 1_555 1_555
C4_16 Nb1_16 1_555 1_555
C5_16 Nb1_16 1_555 1_555
C6_16 Nb1_16 1_555 1_555
C7_16 Nb1_16 1_555 1_555
C8_16 Nb1_16 1_555 1_555
N1_16 Fe1_16 1_555 1_555
N33_2 C2_16 1_555 1_555
N4_9 C4_16 1_555 1_555
N5_16 C5_16 1_555 1_555
N6_16 C6_16 1_555 1_555
N7_16 C7_16 1_555 1_555
N8_16 C8_16 1_555 1_555
Fe1_16 N9_16 1_555 1_555
N9_16 C9_16 1_555 1_555
N10_16 Fe1_16 1_555 1_555
N11_16 Fe1_16 1_555 1_555
N12_16 Fe1_16 1_555 1_555
C9_16 C25_16 1_555 1_555
C10_16 N9_16 1_555 1_555
C11_16 N10_16 1_555 1_555
C12_16 N10_16 1_555 1_555
C13_16 N11_16 1_555 1_555
C14_16 N11_16 1_555 1_555
C15_16 N12_16 1_555 1_555
C16_16 N12_16 1_555 1_555
C25_16 O1_16 1_555 1_555
C26_16 C10_16 1_555 1_555
C27_16 C11_16 1_555 1_555
C28_16 C12_16 1_555 1_555
C29_16 C13_16 1_555 1_555
C30_16 C14_16 1_555 1_555
C31_16 C15_16 1_555 1_555
C32_16 C16_16 1_555 1_555
C41_16 C25_16 1_555 1_555
O2_16 C27_16 1_555 1_555
C42_16 C27_16 1_555 1_555
O3_16 C29_16 1_555 1_555
C43_16 C29_16 1_555 1_555
O4_16 C31_16 1_555 1_555
C44_16 C31_16 1_555 1_555
C49_16 O2_16 1_555 1_555
C50_16 O3_16 1_555 1_555
C51_16 O4_16 1_555 1_555
C54_16 C49_16 1_555 1_555
O10_16 C50_16 1_555 1_555
C55_16 C50_16 1_555 1_555
O11_16 C51_16 1_555 1_555
C56_16 C51_16 1_555 1_555
Nb2_16 C59_16 1_555 1_555
C59_16 N17_16 1_555 1_555
C60_16 Nb2_16 1_555 1_555
C61_16 Nb2_16 1_555 1_555
C62_16 Nb2_16 1_555 1_555
C63_16 Nb2_16 1_555 1_555
C64_16 Nb2_16 1_555 1_555
C65_16 Nb2_16 1_555 1_555
C66_16 Nb2_16 1_555 1_555
N17_16 Fe4_8 1_555 1_555
N18_16 C60_16 1_555 1_555
N19_16 C61_16 1_555 1_555
N20_16 Fe1_16 1_555 1_555
N21_16 C63_16 1_555 1_555
N22_16 C64_16 1_555 1_555
N23_16 C65_16 1_555 1_555
N24_16 C66_16 1_555 1_555
Fe4_8 N25_16 1_555 1_555
N25_16 C67_16 1_555 1_555
N26_16 Fe4_8 1_555 1_555
N27_16 Fe4_8 1_555 1_555
N28_16 Fe4_8 1_555 1_555
C67_16 C75_16 1_555 1_555
C68_16 N25_16 1_555 1_555
C69_16 N26_16 1_555 1_555
C70_16 N26_16 1_555 1_555
C71_16 N27_16 1_555 1_555
C72_16 N27_16 1_555 1_555
C73_16 N28_16 1_555 1_555
C74_16 N28_16 1_555 1_555
C75_16 O14_16 1_555 1_555
C76_16 C68_16 1_555 1_555
C77_16 C69_16 1_555 1_555
C78_16 C70_16 1_555 1_555
C79_16 C71_16 1_555 1_555
C80_16 C72_16 1_555 1_555
C81_16 C73_16 1_555 1_555
C82_16 C74_16 1_555 1_555
C83_16 C75_16 1_555 1_555
O15_16 C77_16 1_555 1_555
C84_16 C77_16 1_555 1_555
O16_16 C79_16 1_555 1_555
C85_16 C79_16 1_555 1_555
O17_16 C81_16 1_555 1_555
C86_16 C81_16 1_555 1_555
C87_16 O15_16 1_555 1_555
C88_16 O16_16 1_555 1_555
C89_16 O17_16 1_555 1_555
O18_16 C87_16 1_555 1_555
C90_16 C87_16 1_555 1_555
O19_16 C88_16 1_555 1_555
C91_16 C88_16 1_555 1_555
O20_16 C89_16 1_555 1_555
C92_16 C89_16 1_555 1_555
N35_8 Fe4_8 1_555 1_555
Fe5_9 N4_9 1_555 1_555
Fe6_11 N18_16 1_555 1_555
Fe7_7 N19_16 1_555 1_555
C26_16 C41_16 1_555 1_555
C28_16 C42_16 1_555 1_555
C30_16 C43_16 1_555 1_555
C32_16 C44_16 1_555 1_555
C62_16 N20_16 1_555 1_555
C76_16 C83_16 1_555 1_555
C78_16 C84_16 1_555 1_555
C80_16 C85_16 1_555 1_555
C82_16 C86_16 1_555 1_555
C16_16 H4_16 1_555 1_555
C11_16 H6_16 1_555 1_555
C10_16 H7_16 1_555 1_555
C14_16 H8_16 1_555 1_555
C9_16 H9_16 1_555 1_555
C12_16 H10_16 1_555 1_555
C13_16 H11_16 1_555 1_555
C15_16 H12_16 1_555 1_555
C55_16 H15_16 1_555 1_555
C55_16 H16_16 1_555 1_555
C55_16 H17_16 1_555 1_555
C42_16 H18_16 1_555 1_555
C28_16 H19_16 1_555 1_555
C44_16 H26_16 1_555 1_555
C54_16 H28_16 1_555 1_555
C54_16 H30_16 1_555 1_555
C56_16 H35_16 1_555 1_555
C32_16 H40_16 1_555 1_555
O1_16 H41_16 1_555 1_555
C26_16 H42_16 1_555 1_555
C41_16 H43_16 1_555 1_555
C86_16 H51_16 1_555 1_555
C67_16 H52_16 1_555 1_555
C80_16 H53_16 1_555 1_555
C92_16 H54_16 1_555 1_555
C92_16 H55_16 1_555 1_555
C92_16 H56_16 1_555 1_555
C85_16 H58_16 1_555 1_555
C76_16 H59_16 1_555 1_555
C91_16 H63_16 1_555 1_555
C91_16 H64_16 1_555 1_555
C91_16 H65_16 1_555 1_555
C69_16 H68_16 1_555 1_555
C82_16 H69_16 1_555 1_555
C84_16 H73_16 1_555 1_555
C90_16 H74_16 1_555 1_555
C90_16 H75_16 1_555 1_555
C90_16 H76_16 1_555 1_555
C68_16 H78_16 1_555 1_555
C72_16 H79_16 1_555 1_555
C70_16 H80_16 1_555 1_555
O14_16 H81_16 1_555 1_555
C83_16 H82_16 1_555 1_555
C71_16 H86_16 1_555 1_555
C78_16 H87_16 1_555 1_555
C73_16 H89_16 1_555 1_555
C74_16 H91_16 1_555 1_555
Nb1_17 C1_17 1_555 1_555
C1_17 N1_17 1_555 1_555
C2_17 Nb1_17 1_555 1_555
C3_17 Nb1_17 1_555 1_555
C4_17 Nb1_17 1_555 1_555
C5_17 Nb1_17 1_555 1_555
C6_17 Nb1_17 1_555 1_555
C7_17 Nb1_17 1_555 1_555
C8_17 Nb1_17 1_555 1_555
N1_17 Fe1_17 1_555 1_555
N33_3 C2_17 1_555 1_555
N35_8 C4_17 1_555 1_555
N5_17 C5_17 1_555 1_555
N6_17 C6_17 1_555 1_555
N7_17 C7_17 1_555 1_555
N8_17 C8_17 1_555 1_555
Fe1_17 N9_17 1_555 1_555
N9_17 C9_17 1_555 1_555
N10_17 Fe1_17 1_555 1_555
N11_17 Fe1_17 1_555 1_555
N12_17 Fe1_17 1_555 1_555
C9_17 C25_17 1_555 1_555
C10_17 N9_17 1_555 1_555
C11_17 N10_17 1_555 1_555
C12_17 N10_17 1_555 1_555
C13_17 N11_17 1_555 1_555
C14_17 N11_17 1_555 1_555
C15_17 N12_17 1_555 1_555
C16_17 N12_17 1_555 1_555
C25_17 O1_17 1_555 1_555
C26_17 C10_17 1_555 1_555
C27_17 C11_17 1_555 1_555
C28_17 C12_17 1_555 1_555
C29_17 C13_17 1_555 1_555
C30_17 C14_17 1_555 1_555
C31_17 C15_17 1_555 1_555
C32_17 C16_17 1_555 1_555
C41_17 C25_17 1_555 1_555
O2_17 C27_17 1_555 1_555
C42_17 C27_17 1_555 1_555
O3_17 C29_17 1_555 1_555
C43_17 C29_17 1_555 1_555
O4_17 C31_17 1_555 1_555
C44_17 C31_17 1_555 1_555
C49_17 O2_17 1_555 1_555
C50_17 O3_17 1_555 1_555
C51_17 O4_17 1_555 1_555
C54_17 C49_17 1_555 1_555
O10_17 C50_17 1_555 1_555
C55_17 C50_17 1_555 1_555
O11_17 C51_17 1_555 1_555
C56_17 C51_17 1_555 1_555
Nb2_17 C59_17 1_555 1_555
C59_17 N17_17 1_555 1_555
C60_17 Nb2_17 1_555 1_555
C61_17 Nb2_17 1_555 1_555
C62_17 Nb2_17 1_555 1_555
C63_17 Nb2_17 1_555 1_555
C64_17 Nb2_17 1_555 1_555
C65_17 Nb2_17 1_555 1_555
C66_17 Nb2_17 1_555 1_555
N17_17 Fe4_9 1_555 1_555
N18_17 C60_17 1_555 1_555
N19_17 C61_17 1_555 1_555
N20_17 Fe1_17 1_555 1_555
N21_17 C63_17 1_555 1_555
N22_17 C64_17 1_555 1_555
N23_17 C65_17 1_555 1_555
N24_17 C66_17 1_555 1_555
Fe4_9 N25_17 1_555 1_555
N25_17 C67_17 1_555 1_555
N26_17 Fe4_9 1_555 1_555
N27_17 Fe4_9 1_555 1_555
N28_17 Fe4_9 1_555 1_555
C67_17 C75_17 1_555 1_555
C68_17 N25_17 1_555 1_555
C69_17 N26_17 1_555 1_555
C70_17 N26_17 1_555 1_555
C71_17 N27_17 1_555 1_555
C72_17 N27_17 1_555 1_555
C73_17 N28_17 1_555 1_555
C74_17 N28_17 1_555 1_555
C75_17 O14_17 1_555 1_555
C76_17 C68_17 1_555 1_555
C77_17 C69_17 1_555 1_555
C78_17 C70_17 1_555 1_555
C79_17 C71_17 1_555 1_555
C80_17 C72_17 1_555 1_555
C81_17 C73_17 1_555 1_555
C82_17 C74_17 1_555 1_555
C83_17 C75_17 1_555 1_555
O15_17 C77_17 1_555 1_555
C84_17 C77_17 1_555 1_555
O16_17 C79_17 1_555 1_555
C85_17 C79_17 1_555 1_555
O17_17 C81_17 1_555 1_555
C86_17 C81_17 1_555 1_555
C87_17 O15_17 1_555 1_555
C88_17 O16_17 1_555 1_555
C89_17 O17_17 1_555 1_555
O18_17 C87_17 1_555 1_555
C90_17 C87_17 1_555 1_555
O19_17 C88_17 1_555 1_555
C91_17 C88_17 1_555 1_555
O20_17 C89_17 1_555 1_555
C92_17 C89_17 1_555 1_555
N35_9 Fe4_9 1_555 1_555
Fe6_7 N18_17 1_555 1_555
Fe7_8 N19_17 1_555 1_555
C26_17 C41_17 1_555 1_555
C28_17 C42_17 1_555 1_555
C30_17 C43_17 1_555 1_555
C32_17 C44_17 1_555 1_555
C62_17 N20_17 1_555 1_555
C76_17 C83_17 1_555 1_555
C78_17 C84_17 1_555 1_555
C80_17 C85_17 1_555 1_555
C82_17 C86_17 1_555 1_555
C16_17 H4_17 1_555 1_555
C11_17 H6_17 1_555 1_555
C10_17 H7_17 1_555 1_555
C14_17 H8_17 1_555 1_555
C9_17 H9_17 1_555 1_555
C12_17 H10_17 1_555 1_555
C13_17 H11_17 1_555 1_555
C15_17 H12_17 1_555 1_555
C55_17 H15_17 1_555 1_555
C55_17 H16_17 1_555 1_555
C55_17 H17_17 1_555 1_555
C42_17 H18_17 1_555 1_555
C28_17 H19_17 1_555 1_555
C44_17 H26_17 1_555 1_555
C54_17 H28_17 1_555 1_555
C54_17 H30_17 1_555 1_555
C56_17 H35_17 1_555 1_555
C32_17 H40_17 1_555 1_555
O1_17 H41_17 1_555 1_555
C26_17 H42_17 1_555 1_555
C41_17 H43_17 1_555 1_555
C86_17 H51_17 1_555 1_555
C67_17 H52_17 1_555 1_555
C80_17 H53_17 1_555 1_555
C92_17 H54_17 1_555 1_555
C92_17 H55_17 1_555 1_555
C92_17 H56_17 1_555 1_555
C85_17 H58_17 1_555 1_555
C76_17 H59_17 1_555 1_555
C91_17 H63_17 1_555 1_555
C91_17 H64_17 1_555 1_555
C91_17 H65_17 1_555 1_555
C69_17 H68_17 1_555 1_555
C82_17 H69_17 1_555 1_555
C84_17 H73_17 1_555 1_555
C90_17 H74_17 1_555 1_555
C90_17 H75_17 1_555 1_555
C90_17 H76_17 1_555 1_555
C68_17 H78_17 1_555 1_555
C72_17 H79_17 1_555 1_555
C70_17 H80_17 1_555 1_555
O14_17 H81_17 1_555 1_555
C83_17 H82_17 1_555 1_555
C71_17 H86_17 1_555 1_555
C78_17 H87_17 1_555 1_555
C73_17 H89_17 1_555 1_555
C74_17 H91_17 1_555 1_555
Nb1_18 C1_18 1_555 1_555
C1_18 N1_18 1_555 1_555
C2_18 Nb1_18 1_555 1_555
C3_18 Nb1_18 1_555 1_555
C4_18 Nb1_18 1_555 1_555
C5_18 Nb1_18 1_555 1_555
C6_18 Nb1_18 1_555 1_555
C7_18 Nb1_18 1_555 1_555
C8_18 Nb1_18 1_555 1_555
N1_18 Fe1_18 1_555 1_555
N33 C2_18 1_555 1_555
N35_9 C4_18 1_555 1_555
N5_18 C5_18 1_555 1_555
N6_18 C6_18 1_555 1_555
N7_18 C7_18 1_555 1_555
N8_18 C8_18 1_555 1_555
Fe1_18 N9_18 1_555 1_555
N9_18 C9_18 1_555 1_555
N10_18 Fe1_18 1_555 1_555
N11_18 Fe1_18 1_555 1_555
N12_18 Fe1_18 1_555 1_555
C9_18 C25_18 1_555 1_555
C10_18 N9_18 1_555 1_555
C11_18 N10_18 1_555 1_555
C12_18 N10_18 1_555 1_555
C13_18 N11_18 1_555 1_555
C14_18 N11_18 1_555 1_555
C15_18 N12_18 1_555 1_555
C16_18 N12_18 1_555 1_555
C25_18 O1_18 1_555 1_555
C26_18 C10_18 1_555 1_555
C27_18 C11_18 1_555 1_555
C28_18 C12_18 1_555 1_555
C29_18 C13_18 1_555 1_555
C30_18 C14_18 1_555 1_555
C31_18 C15_18 1_555 1_555
C32_18 C16_18 1_555 1_555
C41_18 C25_18 1_555 1_555
O2_18 C27_18 1_555 1_555
C42_18 C27_18 1_555 1_555
O3_18 C29_18 1_555 1_555
C43_18 C29_18 1_555 1_555
O4_18 C31_18 1_555 1_555
C44_18 C31_18 1_555 1_555
C49_18 O2_18 1_555 1_555
C50_18 O3_18 1_555 1_555
C51_18 O4_18 1_555 1_555
O9_18 C49_18 1_555 1_555
C54_18 C49_18 1_555 1_555
O10_18 C50_18 1_555 1_555
C55_18 C50_18 1_555 1_555
O11_18 C51_18 1_555 1_555
C56_18 C51_18 1_555 1_555
Nb2_18 C59_18 1_555 1_555
C59_18 N17_18 1_555 1_555
C60_18 Nb2_18 1_555 1_555
C61_18 Nb2_18 1_555 1_555
C62_18 Nb2_18 1_555 1_555
C63_18 Nb2_18 1_555 1_555
C64_18 Nb2_18 1_555 1_555
C65_18 Nb2_18 1_555 1_555
C66_18 Nb2_18 1_555 1_555
N17_18 Fe5_9 1_555 1_555
N18_18 C60_18 1_555 1_555
N19_18 C61_18 1_555 1_555
N20_18 Fe1_18 1_555 1_555
N21_18 C63_18 1_555 1_555
N22_18 C64_18 1_555 1_555
N23_18 C65_18 1_555 1_555
N24_18 C66_18 1_555 1_555
Fe5_9 N25_18 1_555 1_555
N25_18 C67_18 1_555 1_555
N26_18 Fe5_9 1_555 1_555
N27_18 Fe5_9 1_555 1_555
N28_18 Fe5_9 1_555 1_555
C67_18 C75_18 1_555 1_555
C68_18 N25_18 1_555 1_555
C69_18 N26_18 1_555 1_555
C70_18 N26_18 1_555 1_555
C71_18 N27_18 1_555 1_555
C72_18 N27_18 1_555 1_555
C73_18 N28_18 1_555 1_555
C74_18 N28_18 1_555 1_555
C75_18 O14_18 1_555 1_555
C76_18 C68_18 1_555 1_555
C77_18 C69_18 1_555 1_555
C78_18 C70_18 1_555 1_555
C79_18 C71_18 1_555 1_555
C80_18 C72_18 1_555 1_555
C81_18 C73_18 1_555 1_555
C82_18 C74_18 1_555 1_555
C83_18 C75_18 1_555 1_555
O15_18 C77_18 1_555 1_555
C84_18 C77_18 1_555 1_555
O16_18 C79_18 1_555 1_555
C85_18 C79_18 1_555 1_555
O17_18 C81_18 1_555 1_555
C86_18 C81_18 1_555 1_555
C87_18 O15_18 1_555 1_555
C88_18 O16_18 1_555 1_555
C89_18 O17_18 1_555 1_555
O18_18 C87_18 1_555 1_555
C90_18 C87_18 1_555 1_555
O19_18 C88_18 1_555 1_555
C91_18 C88_18 1_555 1_555
O20_18 C89_18 1_555 1_555
C92_18 C89_18 1_555 1_555
Fe6_9 N18_18 1_555 1_555
Fe7_6 N19_18 1_555 1_555
C26_18 C41_18 1_555 1_555
C28_18 C42_18 1_555 1_555
C30_18 C43_18 1_555 1_555
C32_18 C44_18 1_555 1_555
C62_18 N20_18 1_555 1_555
C76_18 C83_18 1_555 1_555
C78_18 C84_18 1_555 1_555
C80_18 C85_18 1_555 1_555
C82_18 C86_18 1_555 1_555
C16_18 H4_18 1_555 1_555
C11_18 H6_18 1_555 1_555
C10_18 H7_18 1_555 1_555
C14_18 H8_18 1_555 1_555
C9_18 H9_18 1_555 1_555
C12_18 H10_18 1_555 1_555
C13_18 H11_18 1_555 1_555
C15_18 H12_18 1_555 1_555
C55_18 H15_18 1_555 1_555
C55_18 H16_18 1_555 1_555
C55_18 H17_18 1_555 1_555
C42_18 H18_18 1_555 1_555
C28_18 H19_18 1_555 1_555
C44_18 H26_18 1_555 1_555
C54_18 H28_18 1_555 1_555
C54_18 H29_18 1_555 1_555
C54_18 H30_18 1_555 1_555
C56_18 H35_18 1_555 1_555
C32_18 H40_18 1_555 1_555
O1_18 H41_18 1_555 1_555
C26_18 H42_18 1_555 1_555
C41_18 H43_18 1_555 1_555
C86_18 H51_18 1_555 1_555
C67_18 H52_18 1_555 1_555
C80_18 H53_18 1_555 1_555
C92_18 H54_18 1_555 1_555
C92_18 H55_18 1_555 1_555
C92_18 H56_18 1_555 1_555
C85_18 H58_18 1_555 1_555
C76_18 H59_18 1_555 1_555
C91_18 H63_18 1_555 1_555
C91_18 H64_18 1_555 1_555
C91_18 H65_18 1_555 1_555
C69_18 H68_18 1_555 1_555
C82_18 H69_18 1_555 1_555
C84_18 H73_18 1_555 1_555
C90_18 H74_18 1_555 1_555
C90_18 H75_18 1_555 1_555
C90_18 H76_18 1_555 1_555
C68_18 H78_18 1_555 1_555
C72_18 H79_18 1_555 1_555
C70_18 H80_18 1_555 1_555
O14_18 H81_18 1_555 1_555
C83_18 H82_18 1_555 1_555
C71_18 H86_18 1_555 1_555
C78_18 H87_18 1_555 1_555
C73_18 H89_18 1_555 1_555
C74_18 H91_18 1_555 1_555
O1_2 H81_19 1_555 1_555
O5_10 C33_10 1_555 1_555
C45_10 C33_10 1_555 1_555
C34_10 C45_10 1_555 1_555
C36_10 C46_10 1_555 1_555
C45_10 H21_10 1_555 1_555
O6_10 H25_10 1_555 1_555
C34_10 H31_10 1_555 1_555
C36_10 H32_10 1_555 1_555
O5_10 H33_10 1_555 1_555
O14_3 H41_19 1_555 1_555
C46_10 H49_10 1_555 1_555
N13_10 Fe6_3 1_555 1_555
N14_10 Fe6_3 1_555 1_555
N15_10 Fe7_5 1_555 1_555
N16_10 Fe7_5 1_555 1_555
C17_10 N13_10 1_555 1_555
C18_10 N13_10 1_555 1_555
C19_10 N14_10 1_555 1_555
C20_10 N14_10 1_555 1_555
C21_10 N15_10 1_555 1_555
C22_10 N15_10 1_555 1_555
C23_10 N16_10 1_555 1_555
C24_10 N16_10 1_555 1_555
C35_10 C19_10 1_555 1_555
C37_10 C21_10 1_555 1_555
C38_10 C22_10 1_555 1_555
C39_10 C23_10 1_555 1_555
C40_10 C24_10 1_555 1_555
O7_10 C37_10 1_555 1_555
C47_10 C37_10 1_555 1_555
O8_10 C39_10 1_555 1_555
C48_10 C39_10 1_555 1_555
C52_10 O7_10 1_555 1_555
C53_10 O8_10 1_555 1_555
O12_10 C52_10 1_555 1_555
C57_10 C52_10 1_555 1_555
O13_10 C53_10 1_555 1_555
C58_10 C53_10 1_555 1_555
N29_10 Fe7_5 1_555 1_555
C93_10 N29_10 1_555 1_555
C94_10 N29_10 1_555 1_555
C95_10 C93_10 1_555 1_555
C96_10 C94_10 1_555 1_555
O21_10 C95_10 1_555 1_555
C97_10 C95_10 1_555 1_555
C98_10 O21_10 1_555 1_555
O22_10 C98_10 1_555 1_555
C99_10 C98_10 1_555 1_555
N30_10 Fe7_5 1_555 1_555
C100_10 N30_10 1_555 1_555
C101_10 N30_10 1_555 1_555
C102_10 C100_10 1_555 1_555
C103_10 C101_10 1_555 1_555
O23_10 C102_10 1_555 1_555
C104_10 C102_10 1_555 1_555
C105_10 O23_10 1_555 1_555
O24_10 C105_10 1_555 1_555
C106_10 C105_10 1_555 1_555
N31_10 Fe6_3 1_555 1_555
C107_10 N31_10 1_555 1_555
C108_10 N31_10 1_555 1_555
C109_10 C107_10 1_555 1_555
C110_10 C108_10 1_555 1_555
O25_10 C109_10 1_555 1_555
C111_10 C109_10 1_555 1_555
N32_10 Fe6_3 1_555 1_555
C112_10 N32_10 1_555 1_555
C113_10 N32_10 1_555 1_555
C114_10 C112_10 1_555 1_555
C115_10 C113_10 1_555 1_555
O26_10 C114_10 1_555 1_555
C116_10 C114_10 1_555 1_555
C38_10 C47_10 1_555 1_555
C40_10 C48_10 1_555 1_555
C96_10 C97_10 1_555 1_555
C103_10 C104_10 1_555 1_555
C110_10 C111_10 1_555 1_555
C115_10 C116_10 1_555 1_555
C21_10 H1_10 1_555 1_555
C22_10 H2_10 1_555 1_555
C17_10 H3_10 1_555 1_555
C18_10 H5_10 1_555 1_555
C19_10 H13_10 1_555 1_555
C20_10 H14_10 1_555 1_555
C40_10 H22_10 1_555 1_555
C23_10 H23_10 1_555 1_555
C24_10 H24_10 1_555 1_555
C47_10 H27_10 1_555 1_555
C57_10 H37_10 1_555 1_555
C57_10 H38_10 1_555 1_555
C57_10 H39_10 1_555 1_555
C48_10 H45_10 1_555 1_555
C58_10 H46_10 1_555 1_555
C58_10 H47_10 1_555 1_555
C58_10 H48_10 1_555 1_555
C38_10 H50_10 1_555 1_555
C104_10 H57_10 1_555 1_555
C106_10 H60_10 1_555 1_555
C106_10 H61_10 1_555 1_555
C106_10 H62_10 1_555 1_555
C96_10 H66_10 1_555 1_555
C107_10 H67_10 1_555 1_555
C99_10 H70_10 1_555 1_555
C99_10 H71_10 1_555 1_555
C99_10 H72_10 1_555 1_555
C93_10 H77_10 1_555 1_555
C97_10 H83_10 1_555 1_555
C101_10 H84_10 1_555 1_555
C103_10 H85_10 1_555 1_555
C94_10 H88_10 1_555 1_555
C100_10 H90_10 1_555 1_555
C116_10 H92_10 1_555 1_555
C108_10 H93_10 1_555 1_555
O25_10 H94_10 1_555 1_555
C112_10 H95_10 1_555 1_555
C111_10 H96_10 1_555 1_555
O26_10 H97_10 1_555 1_555
C113_10 H98_10 1_555 1_555
C110_10 H99_10 1_555 1_555
C115_10 H100_10 1_555 1_555
C36_11 C46_11 1_555 1_555
O6_11 H25_11 1_555 1_555
C34_11 H31_11 1_555 1_555
C36_11 H32_11 1_555 1_555
C46_11 H49_11 1_555 1_555
N13_11 Fe6 1_555 1_555
N14_11 Fe6 1_555 1_555
N15_11 Fe7 1_555 1_555
N16_11 Fe7 1_555 1_555
C17_11 N13_11 1_555 1_555
C18_11 N13_11 1_555 1_555
C19_11 N14_11 1_555 1_555
C20_11 N14_11 1_555 1_555
C21_11 N15_11 1_555 1_555
C22_11 N15_11 1_555 1_555
C23_11 N16_11 1_555 1_555
C24_11 N16_11 1_555 1_555
C35_11 C19_11 1_555 1_555
C37_11 C21_11 1_555 1_555
C38_11 C22_11 1_555 1_555
C39_11 C23_11 1_555 1_555
C40_11 C24_11 1_555 1_555
O7_11 C37_11 1_555 1_555
C47_11 C37_11 1_555 1_555
O8_11 C39_11 1_555 1_555
C48_11 C39_11 1_555 1_555
C52_11 O7_11 1_555 1_555
C53_11 O8_11 1_555 1_555
O12_11 C52_11 1_555 1_555
C57_11 C52_11 1_555 1_555
O13_11 C53_11 1_555 1_555
C58_11 C53_11 1_555 1_555
N31_11 Fe6 1_555 1_555
C107_11 N31_11 1_555 1_555
C108_11 N31_11 1_555 1_555
C109_11 C107_11 1_555 1_555
O25_11 C109_11 1_555 1_555
N32_11 Fe6 1_555 1_555
C112_11 N32_11 1_555 1_555
C113_11 N32_11 1_555 1_555
C114_11 C112_11 1_555 1_555
C115_11 C113_11 1_555 1_555
O26_11 C114_11 1_555 1_555
C116_11 C114_11 1_555 1_555
C38_11 C47_11 1_555 1_555
C40_11 C48_11 1_555 1_555
C115_11 C116_11 1_555 1_555
C21_11 H1_11 1_555 1_555
C17_11 H3_11 1_555 1_555
C18_11 H5_11 1_555 1_555
C19_11 H13_11 1_555 1_555
C20_11 H14_11 1_555 1_555
C40_11 H22_11 1_555 1_555
C23_11 H23_11 1_555 1_555
C24_11 H24_11 1_555 1_555
C47_11 H27_11 1_555 1_555
C57_11 H37_11 1_555 1_555
C57_11 H38_11 1_555 1_555
C57_11 H39_11 1_555 1_555
C48_11 H45_11 1_555 1_555
C58_11 H46_11 1_555 1_555
C58_11 H47_11 1_555 1_555
C58_11 H48_11 1_555 1_555
C38_11 H50_11 1_555 1_555
C107_11 H67_11 1_555 1_555
C116_11 H92_11 1_555 1_555
C108_11 H93_11 1_555 1_555
O25_11 H94_11 1_555 1_555
C112_11 H95_11 1_555 1_555
O26_11 H97_11 1_555 1_555
C113_11 H98_11 1_555 1_555
C115_11 H100_11 1_555 1_555
O5_11 C33_11 1_555 1_555
C45_11 C33_11 1_555 1_555
C45_11 H21_11 1_555 1_555
O5_11 H33_11 1_555 1_555
O14 H41_20 1_555 1_555
N29_11 Fe7_2 1_555 1_555
C93_11 N29_11 1_555 1_555
C94_11 N29_11 1_555 1_555
C95_11 C93_11 1_555 1_555
C96_11 C94_11 1_555 1_555
O21_11 C95_11 1_555 1_555
C97_11 C95_11 1_555 1_555
C98_11 O21_11 1_555 1_555
O22_11 C98_11 1_555 1_555
C99_11 C98_11 1_555 1_555
N30_11 Fe7_2 1_555 1_555
C100_11 N30_11 1_555 1_555
C101_11 N30_11 1_555 1_555
C102_11 C100_11 1_555 1_555
C103_11 C101_11 1_555 1_555
O23_11 C102_11 1_555 1_555
C104_11 C102_11 1_555 1_555
C105_11 O23_11 1_555 1_555
O24_11 C105_11 1_555 1_555
C106_11 C105_11 1_555 1_555
C96_11 C97_11 1_555 1_555
C103_11 C104_11 1_555 1_555
C110_11 C111_11 1_555 1_555
C104_11 H57_11 1_555 1_555
C106_11 H60_11 1_555 1_555
C106_11 H61_11 1_555 1_555
C106_11 H62_11 1_555 1_555
C96_11 H66_11 1_555 1_555
C99_11 H70_11 1_555 1_555
C99_11 H71_11 1_555 1_555
C99_11 H72_11 1_555 1_555
C93_11 H77_11 1_555 1_555
C97_11 H83_11 1_555 1_555
C101_11 H84_11 1_555 1_555
C103_11 H85_11 1_555 1_555
C100_11 H90_11 1_555 1_555
C111_11 H96_11 1_555 1_555
C110_11 H99_11 1_555 1_555
O1_3 H81_20 1_555 1_555
O5_12 C33_12 1_555 1_555
C45_12 C33_12 1_555 1_555
C45_12 H21_12 1_555 1_555
O5_12 H33_12 1_555 1_555
O14_2 H41_21 1_555 1_555
N29_12 Fe7_3 1_555 1_555
C93_12 N29_12 1_555 1_555
C94_12 N29_12 1_555 1_555
C95_12 C93_12 1_555 1_555
C96_12 C94_12 1_555 1_555
O21_12 C95_12 1_555 1_555
C97_12 C95_12 1_555 1_555
C98_12 O21_12 1_555 1_555
O22_12 C98_12 1_555 1_555
C99_12 C98_12 1_555 1_555
N30_12 Fe7_3 1_555 1_555
C100_12 N30_12 1_555 1_555
C101_12 N30_12 1_555 1_555
C102_12 C100_12 1_555 1_555
C103_12 C101_12 1_555 1_555
O23_12 C102_12 1_555 1_555
C104_12 C102_12 1_555 1_555
C105_12 O23_12 1_555 1_555
O24_12 C105_12 1_555 1_555
C106_12 C105_12 1_555 1_555
C96_12 C97_12 1_555 1_555
C103_12 C104_12 1_555 1_555
C110_12 C111_12 1_555 1_555
C104_12 H57_12 1_555 1_555
C106_12 H60_12 1_555 1_555
C106_12 H61_12 1_555 1_555
C106_12 H62_12 1_555 1_555
C96_12 H66_12 1_555 1_555
C99_12 H70_12 1_555 1_555
C99_12 H71_12 1_555 1_555
C99_12 H72_12 1_555 1_555
C93_12 H77_12 1_555 1_555
O1 H81_21 1_555 1_555
C97_12 H83_12 1_555 1_555
C101_12 H84_12 1_555 1_555
C103_12 H85_12 1_555 1_555
C100_12 H90_12 1_555 1_555
C111_12 H96_12 1_555 1_555
C110_12 H99_12 1_555 1_555
C36_12 C46_12 1_555 1_555
O6_12 H25_12 1_555 1_555
C34_12 H31_12 1_555 1_555
C36_12 H32_12 1_555 1_555
C46_12 H49_12 1_555 1_555
N13_12 Fe6_2 1_555 1_555
N14_12 Fe6_2 1_555 1_555
N15_12 Fe7_4 1_555 1_555
N16_12 Fe7_4 1_555 1_555
C17_12 N13_12 1_555 1_555
C18_12 N13_12 1_555 1_555
C19_12 N14_12 1_555 1_555
C20_12 N14_12 1_555 1_555
C21_12 N15_12 1_555 1_555
C22_12 N15_12 1_555 1_555
C23_12 N16_12 1_555 1_555
C24_12 N16_12 1_555 1_555
C35_12 C19_12 1_555 1_555
C37_12 C21_12 1_555 1_555
C38_12 C22_12 1_555 1_555
C39_12 C23_12 1_555 1_555
C40_12 C24_12 1_555 1_555
O7_12 C37_12 1_555 1_555
C47_12 C37_12 1_555 1_555
O8_12 C39_12 1_555 1_555
C48_12 C39_12 1_555 1_555
C52_12 O7_12 1_555 1_555
C53_12 O8_12 1_555 1_555
O12_12 C52_12 1_555 1_555
C57_12 C52_12 1_555 1_555
O13_12 C53_12 1_555 1_555
C58_12 C53_12 1_555 1_555
N31_12 Fe6_2 1_555 1_555
C107_12 N31_12 1_555 1_555
C108_12 N31_12 1_555 1_555
C109_12 C107_12 1_555 1_555
O25_12 C109_12 1_555 1_555
N32_12 Fe6_2 1_555 1_555
C112_12 N32_12 1_555 1_555
C113_12 N32_12 1_555 1_555
C114_12 C112_12 1_555 1_555
C115_12 C113_12 1_555 1_555
O26_12 C114_12 1_555 1_555
C116_12 C114_12 1_555 1_555
C38_12 C47_12 1_555 1_555
C40_12 C48_12 1_555 1_555
C115_12 C116_12 1_555 1_555
C21_12 H1_12 1_555 1_555
C17_12 H3_12 1_555 1_555
C18_12 H5_12 1_555 1_555
C19_12 H13_12 1_555 1_555
C20_12 H14_12 1_555 1_555
C40_12 H22_12 1_555 1_555
C23_12 H23_12 1_555 1_555
C24_12 H24_12 1_555 1_555
C47_12 H27_12 1_555 1_555
C57_12 H37_12 1_555 1_555
C57_12 H38_12 1_555 1_555
C57_12 H39_12 1_555 1_555
C48_12 H45_12 1_555 1_555
C58_12 H46_12 1_555 1_555
C58_12 H47_12 1_555 1_555
C58_12 H48_12 1_555 1_555
C38_12 H50_12 1_555 1_555
C107_12 H67_12 1_555 1_555
C116_12 H92_12 1_555 1_555
C108_12 H93_12 1_555 1_555
O25_12 H94_12 1_555 1_555
C112_12 H95_12 1_555 1_555
O26_12 H97_12 1_555 1_555
C113_12 H98_12 1_555 1_555
C115_12 H100_12 1_555 1_555
N13_13 Fe6_10 1_555 1_555
N14_13 Fe6_10 1_555 1_555
N15_13 Fe7_11 1_555 1_555
N16_13 Fe7_11 1_555 1_555
C17_13 N13_13 1_555 1_555
C20_13 N14_13 1_555 1_555
C21_13 N15_13 1_555 1_555
C22_13 N15_13 1_555 1_555
C23_13 N16_13 1_555 1_555
C24_13 N16_13 1_555 1_555
C33_13 C17_13 1_555 1_555
C36_13 C20_13 1_555 1_555
C37_13 C21_13 1_555 1_555
C38_13 C22_13 1_555 1_555
C39_13 C23_13 1_555 1_555
C40_13 C24_13 1_555 1_555
O5_13 C33_13 1_555 1_555
C45_13 C33_13 1_555 1_555
O7_13 C37_13 1_555 1_555
C47_13 C37_13 1_555 1_555
O8_13 C39_13 1_555 1_555
C48_13 C39_13 1_555 1_555
C52_13 O7_13 1_555 1_555
C53_13 O8_13 1_555 1_555
O13_13 C53_13 1_555 1_555
C58_13 C53_13 1_555 1_555
N29_13 Fe7_11 1_555 1_555
C93_13 N29_13 1_555 1_555
C94_13 N29_13 1_555 1_555
C95_13 C93_13 1_555 1_555
C96_13 C94_13 1_555 1_555
O21_13 C95_13 1_555 1_555
C97_13 C95_13 1_555 1_555
C98_13 O21_13 1_555 1_555
O22_13 C98_13 1_555 1_555
C99_13 C98_13 1_555 1_555
N30_13 Fe7_11 1_555 1_555
C100_13 N30_13 1_555 1_555
C101_13 N30_13 1_555 1_555
C102_13 C100_13 1_555 1_555
C103_13 C101_13 1_555 1_555
O23_13 C102_13 1_555 1_555
C104_13 C102_13 1_555 1_555
C105_13 O23_13 1_555 1_555
O24_13 C105_13 1_555 1_555
C106_13 C105_13 1_555 1_555
C110_13 C108_13 1_555 1_555
C114_13 C112_13 1_555 1_555
O26_13 C114_13 1_555 1_555
C36_13 C46_13 1_555 1_555
C38_13 C47_13 1_555 1_555
C40_13 C48_13 1_555 1_555
C96_13 C97_13 1_555 1_555
C103_13 C104_13 1_555 1_555
C21_13 H1_13 1_555 1_555
C22_13 H2_13 1_555 1_555
C17_13 H3_13 1_555 1_555
C20_13 H14_13 1_555 1_555
C45_13 H21_13 1_555 1_555
C40_13 H22_13 1_555 1_555
C23_13 H23_13 1_555 1_555
C24_13 H24_13 1_555 1_555
C36_13 H32_13 1_555 1_555
O5_13 H33_13 1_555 1_555
O14_9 H41_22 1_555 1_555
C48_13 H45_13 1_555 1_555
C58_13 H46_13 1_555 1_555
C58_13 H47_13 1_555 1_555
C58_13 H48_13 1_555 1_555
C46_13 H49_13 1_555 1_555
C38_13 H50_13 1_555 1_555
C104_13 H57_13 1_555 1_555
C106_13 H61_13 1_555 1_555
C96_13 H66_13 1_555 1_555
C99_13 H70_13 1_555 1_555
C99_13 H71_13 1_555 1_555
C99_13 H72_13 1_555 1_555
C93_13 H77_13 1_555 1_555
O1_8 H81_22 1_555 1_555
C97_13 H83_13 1_555 1_555
C101_13 H84_13 1_555 1_555
C103_13 H85_13 1_555 1_555
C94_13 H88_13 1_555 1_555
C100_13 H90_13 1_555 1_555
C108_13 H93_13 1_555 1_555
C112_13 H95_13 1_555 1_555
O26_13 H97_13 1_555 1_555
C110_13 H99_13 1_555 1_555
C57_13 H38_13 1_555 1_555
C34_13 C18_13 1_555 1_555
C35_13 C19_13 1_555 1_555
O6_13 C35_13 1_555 1_555
N31_13 Fe6_11 1_555 1_555
C107_13 N31_13 1_555 1_555
C109_13 C107_13 1_555 1_555
O25_13 C109_13 1_555 1_555
C111_13 C109_13 1_555 1_555
N32_13 Fe6_11 1_555 1_555
C113_13 N32_13 1_555 1_555
C115_13 C113_13 1_555 1_555
C115_13 C116_13 1_555 1_555
C18_13 H5_13 1_555 1_555
C19_13 H13_13 1_555 1_555
O6_13 H25_13 1_555 1_555
C34_13 H31_13 1_555 1_555
C107_13 H67_13 1_555 1_555
C116_13 H92_13 1_555 1_555
O25_13 H94_13 1_555 1_555
C111_13 H96_13 1_555 1_555
C113_13 H98_13 1_555 1_555
C115_13 H100_13 1_555 1_555
C34_14 C18_14 1_555 1_555
C35_14 C19_14 1_555 1_555
O6_14 C35_14 1_555 1_555
N31_14 Fe6_7 1_555 1_555
C107_14 N31_14 1_555 1_555
C109_14 C107_14 1_555 1_555
O25_14 C109_14 1_555 1_555
C111_14 C109_14 1_555 1_555
N32_14 Fe6_7 1_555 1_555
C113_14 N32_14 1_555 1_555
C115_14 C113_14 1_555 1_555
C115_14 C116_14 1_555 1_555
C18_14 H5_14 1_555 1_555
C19_14 H13_14 1_555 1_555
O6_14 H25_14 1_555 1_555
C34_14 H31_14 1_555 1_555
C107_14 H67_14 1_555 1_555
C116_14 H92_14 1_555 1_555
O25_14 H94_14 1_555 1_555
C111_14 H96_14 1_555 1_555
C113_14 H98_14 1_555 1_555
C115_14 H100_14 1_555 1_555
N13_14 Fe6_8 1_555 1_555
N14_14 Fe6_8 1_555 1_555
N15_14 Fe7_9 1_555 1_555
N16_14 Fe7_9 1_555 1_555
C17_14 N13_14 1_555 1_555
C20_14 N14_14 1_555 1_555
C21_14 N15_14 1_555 1_555
C22_14 N15_14 1_555 1_555
C23_14 N16_14 1_555 1_555
C24_14 N16_14 1_555 1_555
C33_14 C17_14 1_555 1_555
C36_14 C20_14 1_555 1_555
C37_14 C21_14 1_555 1_555
C38_14 C22_14 1_555 1_555
C39_14 C23_14 1_555 1_555
C40_14 C24_14 1_555 1_555
O5_14 C33_14 1_555 1_555
C45_14 C33_14 1_555 1_555
O7_14 C37_14 1_555 1_555
C47_14 C37_14 1_555 1_555
O8_14 C39_14 1_555 1_555
C48_14 C39_14 1_555 1_555
C52_14 O7_14 1_555 1_555
C53_14 O8_14 1_555 1_555
O13_14 C53_14 1_555 1_555
C58_14 C53_14 1_555 1_555
N29_14 Fe7_9 1_555 1_555
C93_14 N29_14 1_555 1_555
C94_14 N29_14 1_555 1_555
C95_14 C93_14 1_555 1_555
C96_14 C94_14 1_555 1_555
O21_14 C95_14 1_555 1_555
C97_14 C95_14 1_555 1_555
C98_14 O21_14 1_555 1_555
O22_14 C98_14 1_555 1_555
C99_14 C98_14 1_555 1_555
N30_14 Fe7_9 1_555 1_555
C100_14 N30_14 1_555 1_555
C101_14 N30_14 1_555 1_555
C102_14 C100_14 1_555 1_555
C103_14 C101_14 1_555 1_555
O23_14 C102_14 1_555 1_555
C104_14 C102_14 1_555 1_555
C105_14 O23_14 1_555 1_555
O24_14 C105_14 1_555 1_555
C106_14 C105_14 1_555 1_555
C110_14 C108_14 1_555 1_555
C114_14 C112_14 1_555 1_555
O26_14 C114_14 1_555 1_555
C36_14 C46_14 1_555 1_555
C38_14 C47_14 1_555 1_555
C40_14 C48_14 1_555 1_555
C96_14 C97_14 1_555 1_555
C103_14 C104_14 1_555 1_555
C21_14 H1_14 1_555 1_555
C22_14 H2_14 1_555 1_555
C17_14 H3_14 1_555 1_555
C20_14 H14_14 1_555 1_555
C45_14 H21_14 1_555 1_555
C40_14 H22_14 1_555 1_555
C23_14 H23_14 1_555 1_555
C24_14 H24_14 1_555 1_555
C36_14 H32_14 1_555 1_555
O5_14 H33_14 1_555 1_555
O14_7 H41_23 1_555 1_555
C48_14 H45_14 1_555 1_555
C58_14 H46_14 1_555 1_555
C58_14 H47_14 1_555 1_555
C58_14 H48_14 1_555 1_555
C46_14 H49_14 1_555 1_555
C38_14 H50_14 1_555 1_555
C104_14 H57_14 1_555 1_555
C106_14 H61_14 1_555 1_555
C96_14 H66_14 1_555 1_555
C99_14 H70_14 1_555 1_555
C99_14 H71_14 1_555 1_555
C99_14 H72_14 1_555 1_555
C93_14 H77_14 1_555 1_555
O1_9 H81_23 1_555 1_555
C97_14 H83_14 1_555 1_555
C101_14 H84_14 1_555 1_555
C103_14 H85_14 1_555 1_555
C94_14 H88_14 1_555 1_555
C100_14 H90_14 1_555 1_555
C108_14 H93_14 1_555 1_555
C112_14 H95_14 1_555 1_555
O26_14 H97_14 1_555 1_555
C110_14 H99_14 1_555 1_555
C57_14 H38_14 1_555 1_555
N13_15 Fe6_9 1_555 1_555
N14_15 Fe6_9 1_555 1_555
N15_15 Fe7_10 1_555 1_555
N16_15 Fe7_10 1_555 1_555
C17_15 N13_15 1_555 1_555
C18_15 N13_15 1_555 1_555
C19_15 N14_15 1_555 1_555
C20_15 N14_15 1_555 1_555
C21_15 N15_15 1_555 1_555
C22_15 N15_15 1_555 1_555
C23_15 N16_15 1_555 1_555
C24_15 N16_15 1_555 1_555
C33_15 C17_15 1_555 1_555
C34_15 C18_15 1_555 1_555
C35_15 C19_15 1_555 1_555
C36_15 C20_15 1_555 1_555
C37_15 C21_15 1_555 1_555
C38_15 C22_15 1_555 1_555
C39_15 C23_15 1_555 1_555
C40_15 C24_15 1_555 1_555
O5_15 C33_15 1_555 1_555
C45_15 C33_15 1_555 1_555
O6_15 C35_15 1_555 1_555
C46_15 C35_15 1_555 1_555
O7_15 C37_15 1_555 1_555
C47_15 C37_15 1_555 1_555
O8_15 C39_15 1_555 1_555
C48_15 C39_15 1_555 1_555
C52_15 O7_15 1_555 1_555
C53_15 O8_15 1_555 1_555
O13_15 C53_15 1_555 1_555
C58_15 C53_15 1_555 1_555
N29_15 Fe7_10 1_555 1_555
C93_15 N29_15 1_555 1_555
C94_15 N29_15 1_555 1_555
C95_15 C93_15 1_555 1_555
C96_15 C94_15 1_555 1_555
O21_15 C95_15 1_555 1_555
C97_15 C95_15 1_555 1_555
C98_15 O21_15 1_555 1_555
O22_15 C98_15 1_555 1_555
C99_15 C98_15 1_555 1_555
N30_15 Fe7_10 1_555 1_555
C100_15 N30_15 1_555 1_555
C101_15 N30_15 1_555 1_555
C102_15 C100_15 1_555 1_555
C103_15 C101_15 1_555 1_555
O23_15 C102_15 1_555 1_555
C104_15 C102_15 1_555 1_555
C105_15 O23_15 1_555 1_555
O24_15 C105_15 1_555 1_555
C106_15 C105_15 1_555 1_555
N31_15 Fe6_9 1_555 1_555
C107_15 N31_15 1_555 1_555
C108_15 N31_15 1_555 1_555
C109_15 C107_15 1_555 1_555
C110_15 C108_15 1_555 1_555
O25_15 C109_15 1_555 1_555
C111_15 C109_15 1_555 1_555
N32_15 Fe6_9 1_555 1_555
C112_15 N32_15 1_555 1_555
C113_15 N32_15 1_555 1_555
C114_15 C112_15 1_555 1_555
C115_15 C113_15 1_555 1_555
O26_15 C114_15 1_555 1_555
C116_15 C114_15 1_555 1_555
C34_15 C45_15 1_555 1_555
C36_15 C46_15 1_555 1_555
C38_15 C47_15 1_555 1_555
C40_15 C48_15 1_555 1_555
C96_15 C97_15 1_555 1_555
C103_15 C104_15 1_555 1_555
C110_15 C111_15 1_555 1_555
C115_15 C116_15 1_555 1_555
C21_15 H1_15 1_555 1_555
C22_15 H2_15 1_555 1_555
C17_15 H3_15 1_555 1_555
C18_15 H5_15 1_555 1_555
C19_15 H13_15 1_555 1_555
C20_15 H14_15 1_555 1_555
C45_15 H21_15 1_555 1_555
C40_15 H22_15 1_555 1_555
C23_15 H23_15 1_555 1_555
C24_15 H24_15 1_555 1_555
O6_15 H25_15 1_555 1_555
C47_15 H27_15 1_555 1_555
C34_15 H31_15 1_555 1_555
C36_15 H32_15 1_555 1_555
O5_15 H33_15 1_555 1_555
O14_8 H41_24 1_555 1_555
C48_15 H45_15 1_555 1_555
C58_15 H46_15 1_555 1_555
C58_15 H47_15 1_555 1_555
C58_15 H48_15 1_555 1_555
C46_15 H49_15 1_555 1_555
C38_15 H50_15 1_555 1_555
C104_15 H57_15 1_555 1_555
C106_15 H61_15 1_555 1_555
C96_15 H66_15 1_555 1_555
C107_15 H67_15 1_555 1_555
C99_15 H70_15 1_555 1_555
C99_15 H71_15 1_555 1_555
C99_15 H72_15 1_555 1_555
C93_15 H77_15 1_555 1_555
O1_7 H81_24 1_555 1_555
C97_15 H83_15 1_555 1_555
C101_15 H84_15 1_555 1_555
C103_15 H85_15 1_555 1_555
C94_15 H88_15 1_555 1_555
C100_15 H90_15 1_555 1_555
C116_15 H92_15 1_555 1_555
C108_15 H93_15 1_555 1_555
O25_15 H94_15 1_555 1_555
C112_15 H95_15 1_555 1_555
C111_15 H96_15 1_555 1_555
O26_15 H97_15 1_555 1_555
C113_15 H98_15 1_555 1_555
C110_15 H99_15 1_555 1_555
C115_15 H100_15 1_555 1_555
C57_15 H38_15 1_555 1_555
N13_16 Fe6_6 1_555 1_555
N14_16 Fe6_6 1_555 1_555
N15_16 Fe7_8 1_555 1_555
N16_16 Fe7_8 1_555 1_555
C17_16 N13_16 1_555 1_555
C18_16 N13_16 1_555 1_555
C19_16 N14_16 1_555 1_555
C20_16 N14_16 1_555 1_555
C21_16 N15_16 1_555 1_555
C22_16 N15_16 1_555 1_555
C23_16 N16_16 1_555 1_555
C24_16 N16_16 1_555 1_555
C33_16 C17_16 1_555 1_555
C35_16 C19_16 1_555 1_555
C36_16 C20_16 1_555 1_555
C37_16 C21_16 1_555 1_555
C38_16 C22_16 1_555 1_555
C39_16 C23_16 1_555 1_555
C40_16 C24_16 1_555 1_555
O5_16 C33_16 1_555 1_555
O6_16 C35_16 1_555 1_555
C46_16 C35_16 1_555 1_555
O7_16 C37_16 1_555 1_555
C47_16 C37_16 1_555 1_555
O8_16 C39_16 1_555 1_555
C48_16 C39_16 1_555 1_555
C52_16 O7_16 1_555 1_555
C53_16 O8_16 1_555 1_555
O12_16 C52_16 1_555 1_555
C57_16 C52_16 1_555 1_555
O13_16 C53_16 1_555 1_555
C58_16 C53_16 1_555 1_555
N29_16 Fe7_8 1_555 1_555
C93_16 N29_16 1_555 1_555
C94_16 N29_16 1_555 1_555
C95_16 C93_16 1_555 1_555
C96_16 C94_16 1_555 1_555
O21_16 C95_16 1_555 1_555
C97_16 C95_16 1_555 1_555
C98_16 O21_16 1_555 1_555
O22_16 C98_16 1_555 1_555
C99_16 C98_16 1_555 1_555
N30_16 Fe7_8 1_555 1_555
C100_16 N30_16 1_555 1_555
C101_16 N30_16 1_555 1_555
C102_16 C100_16 1_555 1_555
C103_16 C101_16 1_555 1_555
O23_16 C102_16 1_555 1_555
C104_16 C102_16 1_555 1_555
C105_16 O23_16 1_555 1_555
O24_16 C105_16 1_555 1_555
C106_16 C105_16 1_555 1_555
N31_16 Fe6_6 1_555 1_555
C107_16 N31_16 1_555 1_555
C108_16 N31_16 1_555 1_555
C110_16 C108_16 1_555 1_555
N32_16 Fe6_6 1_555 1_555
C112_16 N32_16 1_555 1_555
C113_16 N32_16 1_555 1_555
C114_16 C112_16 1_555 1_555
C115_16 C113_16 1_555 1_555
O26_16 C114_16 1_555 1_555
C116_16 C114_16 1_555 1_555
C36_16 C46_16 1_555 1_555
C38_16 C47_16 1_555 1_555
C40_16 C48_16 1_555 1_555
C96_16 C97_16 1_555 1_555
C103_16 C104_16 1_555 1_555
C115_16 C116_16 1_555 1_555
C21_16 H1_16 1_555 1_555
C22_16 H2_16 1_555 1_555
C17_16 H3_16 1_555 1_555
C18_16 H5_16 1_555 1_555
C19_16 H13_16 1_555 1_555
C20_16 H14_16 1_555 1_555
C40_16 H22_16 1_555 1_555
C23_16 H23_16 1_555 1_555
C24_16 H24_16 1_555 1_555
O6_16 H25_16 1_555 1_555
C47_16 H27_16 1_555 1_555
C36_16 H32_16 1_555 1_555
O5_16 H33_16 1_555 1_555
C57_16 H37_16 1_555 1_555
C57_16 H38_16 1_555 1_555
C57_16 H39_16 1_555 1_555
O14_6 H41_25 1_555 1_555
C48_16 H45_16 1_555 1_555
C58_16 H46_16 1_555 1_555
C58_16 H47_16 1_555 1_555
C58_16 H48_16 1_555 1_555
C46_16 H49_16 1_555 1_555
C38_16 H50_16 1_555 1_555
C104_16 H57_16 1_555 1_555
C106_16 H60_16 1_555 1_555
C106_16 H61_16 1_555 1_555
C106_16 H62_16 1_555 1_555
C96_16 H66_16 1_555 1_555
C107_16 H67_16 1_555 1_555
C99_16 H70_16 1_555 1_555
C99_16 H71_16 1_555 1_555
C99_16 H72_16 1_555 1_555
C93_16 H77_16 1_555 1_555
O1_5 H81_25 1_555 1_555
C101_16 H84_16 1_555 1_555
C103_16 H85_16 1_555 1_555
C94_16 H88_16 1_555 1_555
C100_16 H90_16 1_555 1_555
C116_16 H92_16 1_555 1_555
C108_16 H93_16 1_555 1_555
C112_16 H95_16 1_555 1_555
O26_16 H97_16 1_555 1_555
C113_16 H98_16 1_555 1_555
C110_16 H99_16 1_555 1_555
C115_16 H100_16 1_555 1_555
O25_16 C109_16 1_555 1_555
C111_16 C109_16 1_555 1_555
C34_16 C45_16 1_555 1_555
C45_16 H21_16 1_555 1_555
C34_16 H31_16 1_555 1_555
O25_16 H94_16 1_555 1_555
C111_16 H96_16 1_555 1_555
N13_17 Fe6_4 1_555 1_555
N14_17 Fe6_4 1_555 1_555
N15_17 Fe7_6 1_555 1_555
N16_17 Fe7_6 1_555 1_555
C17_17 N13_17 1_555 1_555
C18_17 N13_17 1_555 1_555
C19_17 N14_17 1_555 1_555
C20_17 N14_17 1_555 1_555
C21_17 N15_17 1_555 1_555
C22_17 N15_17 1_555 1_555
C23_17 N16_17 1_555 1_555
C24_17 N16_17 1_555 1_555
C33_17 C17_17 1_555 1_555
C34_17 C18_17 1_555 1_555
C35_17 C19_17 1_555 1_555
C36_17 C20_17 1_555 1_555
C37_17 C21_17 1_555 1_555
C38_17 C22_17 1_555 1_555
C39_17 C23_17 1_555 1_555
C40_17 C24_17 1_555 1_555
O5_17 C33_17 1_555 1_555
C45_17 C33_17 1_555 1_555
O6_17 C35_17 1_555 1_555
C46_17 C35_17 1_555 1_555
O7_17 C37_17 1_555 1_555
C47_17 C37_17 1_555 1_555
O8_17 C39_17 1_555 1_555
C48_17 C39_17 1_555 1_555
C52_17 O7_17 1_555 1_555
C53_17 O8_17 1_555 1_555
O12_17 C52_17 1_555 1_555
C57_17 C52_17 1_555 1_555
O13_17 C53_17 1_555 1_555
C58_17 C53_17 1_555 1_555
N29_17 Fe7_6 1_555 1_555
C93_17 N29_17 1_555 1_555
C94_17 N29_17 1_555 1_555
C95_17 C93_17 1_555 1_555
C96_17 C94_17 1_555 1_555
O21_17 C95_17 1_555 1_555
C97_17 C95_17 1_555 1_555
C98_17 O21_17 1_555 1_555
O22_17 C98_17 1_555 1_555
C99_17 C98_17 1_555 1_555
N30_17 Fe7_6 1_555 1_555
C100_17 N30_17 1_555 1_555
C101_17 N30_17 1_555 1_555
C102_17 C100_17 1_555 1_555
C103_17 C101_17 1_555 1_555
O23_17 C102_17 1_555 1_555
C104_17 C102_17 1_555 1_555
C105_17 O23_17 1_555 1_555
O24_17 C105_17 1_555 1_555
C106_17 C105_17 1_555 1_555
N31_17 Fe6_4 1_555 1_555
C107_17 N31_17 1_555 1_555
C108_17 N31_17 1_555 1_555
C109_17 C107_17 1_555 1_555
C110_17 C108_17 1_555 1_555
O25_17 C109_17 1_555 1_555
C111_17 C109_17 1_555 1_555
N32_17 Fe6_4 1_555 1_555
C112_17 N32_17 1_555 1_555
C113_17 N32_17 1_555 1_555
C114_17 C112_17 1_555 1_555
C115_17 C113_17 1_555 1_555
O26_17 C114_17 1_555 1_555
C116_17 C114_17 1_555 1_555
C34_17 C45_17 1_555 1_555
C36_17 C46_17 1_555 1_555
C38_17 C47_17 1_555 1_555
C40_17 C48_17 1_555 1_555
C96_17 C97_17 1_555 1_555
C103_17 C104_17 1_555 1_555
C110_17 C111_17 1_555 1_555
C115_17 C116_17 1_555 1_555
C21_17 H1_17 1_555 1_555
C22_17 H2_17 1_555 1_555
C17_17 H3_17 1_555 1_555
C18_17 H5_17 1_555 1_555
C19_17 H13_17 1_555 1_555
C20_17 H14_17 1_555 1_555
C45_17 H21_17 1_555 1_555
C40_17 H22_17 1_555 1_555
C23_17 H23_17 1_555 1_555
C24_17 H24_17 1_555 1_555
O6_17 H25_17 1_555 1_555
C47_17 H27_17 1_555 1_555
C34_17 H31_17 1_555 1_555
C36_17 H32_17 1_555 1_555
O5_17 H33_17 1_555 1_555
C57_17 H37_17 1_555 1_555
C57_17 H38_17 1_555 1_555
C57_17 H39_17 1_555 1_555
O14_4 H41_26 1_555 1_555
C48_17 H45_17 1_555 1_555
C58_17 H46_17 1_555 1_555
C58_17 H47_17 1_555 1_555
C58_17 H48_17 1_555 1_555
C46_17 H49_17 1_555 1_555
C38_17 H50_17 1_555 1_555
C104_17 H57_17 1_555 1_555
C106_17 H60_17 1_555 1_555
C106_17 H61_17 1_555 1_555
C106_17 H62_17 1_555 1_555
C96_17 H66_17 1_555 1_555
C107_17 H67_17 1_555 1_555
C99_17 H70_17 1_555 1_555
C99_17 H71_17 1_555 1_555
C99_17 H72_17 1_555 1_555
C93_17 H77_17 1_555 1_555
O1_6 H81_26 1_555 1_555
C97_17 H83_17 1_555 1_555
C101_17 H84_17 1_555 1_555
C103_17 H85_17 1_555 1_555
C94_17 H88_17 1_555 1_555
C100_17 H90_17 1_555 1_555
C116_17 H92_17 1_555 1_555
C108_17 H93_17 1_555 1_555
O25_17 H94_17 1_555 1_555
C112_17 H95_17 1_555 1_555
C111_17 H96_17 1_555 1_555
O26_17 H97_17 1_555 1_555
C113_17 H98_17 1_555 1_555
C110_17 H99_17 1_555 1_555
C115_17 H100_17 1_555 1_555
O25_18 C109_18 1_555 1_555
C111_18 C109_18 1_555 1_555
C34_18 C45_18 1_555 1_555
C45_18 H21_18 1_555 1_555
C34_18 H31_18 1_555 1_555
O25_18 H94_18 1_555 1_555
C111_18 H96_18 1_555 1_555
N13_18 Fe6_5 1_555 1_555
N14_18 Fe6_5 1_555 1_555
N15_18 Fe7_7 1_555 1_555
N16_18 Fe7_7 1_555 1_555
C17_18 N13_18 1_555 1_555
C18_18 N13_18 1_555 1_555
C19_18 N14_18 1_555 1_555
C20_18 N14_18 1_555 1_555
C21_18 N15_18 1_555 1_555
C22_18 N15_18 1_555 1_555
C23_18 N16_18 1_555 1_555
C24_18 N16_18 1_555 1_555
C33_18 C17_18 1_555 1_555
C35_18 C19_18 1_555 1_555
C36_18 C20_18 1_555 1_555
C37_18 C21_18 1_555 1_555
C38_18 C22_18 1_555 1_555
C39_18 C23_18 1_555 1_555
C40_18 C24_18 1_555 1_555
O5_18 C33_18 1_555 1_555
O6_18 C35_18 1_555 1_555
C46_18 C35_18 1_555 1_555
O7_18 C37_18 1_555 1_555
C47_18 C37_18 1_555 1_555
O8_18 C39_18 1_555 1_555
C48_18 C39_18 1_555 1_555
C52_18 O7_18 1_555 1_555
C53_18 O8_18 1_555 1_555
O12_18 C52_18 1_555 1_555
C57_18 C52_18 1_555 1_555
O13_18 C53_18 1_555 1_555
C58_18 C53_18 1_555 1_555
N29_18 Fe7_7 1_555 1_555
C93_18 N29_18 1_555 1_555
C94_18 N29_18 1_555 1_555
C95_18 C93_18 1_555 1_555
C96_18 C94_18 1_555 1_555
O21_18 C95_18 1_555 1_555
C97_18 C95_18 1_555 1_555
C98_18 O21_18 1_555 1_555
O22_18 C98_18 1_555 1_555
C99_18 C98_18 1_555 1_555
N30_18 Fe7_7 1_555 1_555
C100_18 N30_18 1_555 1_555
C101_18 N30_18 1_555 1_555
C102_18 C100_18 1_555 1_555
C103_18 C101_18 1_555 1_555
O23_18 C102_18 1_555 1_555
C104_18 C102_18 1_555 1_555
C105_18 O23_18 1_555 1_555
O24_18 C105_18 1_555 1_555
C106_18 C105_18 1_555 1_555
N31_18 Fe6_5 1_555 1_555
C107_18 N31_18 1_555 1_555
C108_18 N31_18 1_555 1_555
C110_18 C108_18 1_555 1_555
N32_18 Fe6_5 1_555 1_555
C112_18 N32_18 1_555 1_555
C113_18 N32_18 1_555 1_555
C114_18 C112_18 1_555 1_555
C115_18 C113_18 1_555 1_555
O26_18 C114_18 1_555 1_555
C116_18 C114_18 1_555 1_555
C36_18 C46_18 1_555 1_555
C38_18 C47_18 1_555 1_555
C40_18 C48_18 1_555 1_555
C96_18 C97_18 1_555 1_555
C103_18 C104_18 1_555 1_555
C115_18 C116_18 1_555 1_555
C21_18 H1_18 1_555 1_555
C22_18 H2_18 1_555 1_555
C17_18 H3_18 1_555 1_555
C18_18 H5_18 1_555 1_555
C19_18 H13_18 1_555 1_555
C20_18 H14_18 1_555 1_555
C40_18 H22_18 1_555 1_555
C23_18 H23_18 1_555 1_555
C24_18 H24_18 1_555 1_555
O6_18 H25_18 1_555 1_555
C47_18 H27_18 1_555 1_555
C36_18 H32_18 1_555 1_555
O5_18 H33_18 1_555 1_555
C57_18 H37_18 1_555 1_555
C57_18 H38_18 1_555 1_555
C57_18 H39_18 1_555 1_555
O14_5 H41_27 1_555 1_555
C48_18 H45_18 1_555 1_555
C58_18 H46_18 1_555 1_555
C58_18 H47_18 1_555 1_555
C58_18 H48_18 1_555 1_555
C46_18 H49_18 1_555 1_555
C38_18 H50_18 1_555 1_555
C104_18 H57_18 1_555 1_555
C106_18 H60_18 1_555 1_555
C106_18 H61_18 1_555 1_555
C106_18 H62_18 1_555 1_555
C96_18 H66_18 1_555 1_555
C107_18 H67_18 1_555 1_555
C99_18 H70_18 1_555 1_555
C99_18 H71_18 1_555 1_555
C99_18 H72_18 1_555 1_555
C93_18 H77_18 1_555 1_555
O1_4 H81_27 1_555 1_555
C101_18 H84_18 1_555 1_555
C103_18 H85_18 1_555 1_555
C94_18 H88_18 1_555 1_555
C100_18 H90_18 1_555 1_555
C116_18 H92_18 1_555 1_555
C108_18 H93_18 1_555 1_555
C112_18 H95_18 1_555 1_555
O26_18 H97_18 1_555 1_555
C113_18 H98_18 1_555 1_555
C110_18 H99_18 1_555 1_555
C115_18 H100_18 1_555 1_555
O1_12 H81_28 1_555 1_555
O14_11 H41_28 1_555 1_555
O14_12 H41_29 1_555 1_555
O1_10 H81_29 1_555 1_555
O14_10 H41_30 1_555 1_555
O1_11 H81_30 1_555 1_555
O14_17 H41_31 1_555 1_555
O1_18 H81_31 1_555 1_555
O14_18 H41_32 1_555 1_555
O1_16 H81_32 1_555 1_555
O14_16 H41_33 1_555 1_555
O1_17 H81_33 1_555 1_555
O14_14 H41_34 1_555 1_555
O1_15 H81_34 1_555 1_555
O14_15 H41_35 1_555 1_555
O1_13 H81_35 1_555 1_555
O14_13 H41_36 1_555 1_555
O1_14 H81_36 1_555 1_555

#END
