
###############################################################################
#
# This file contains modified crystal structure data generated from the
# MOF subset of the Cambridge Structural Database (CSD) v543 
# hosted by the Cambridge Crystallographic Data Centre (CCDC).
#
# This work is licensed under the Creative Commons
# Attribution-NonCommercial-ShareAlike 4.0 International License.
# To view a copy of this license, visit
# http://creativecommons.org/licenses/by-nc-sa/4.0/
# or send a letter to
# Creative Commons, PO Box 1866, Mountain View, CA 94042, USA.
#
# CIF created using the CSD Python API on 29 September 2022
# The structure has been converted into the P1 space group
# The structure has a 3D framework
# The original CSD entry BODCUV05 is in the rhombohedral crystal system
# The framework has been calculated to contain at least 10.0% void space
# The void calculation uses a probe of radius 1.32A, grid spacing 0.4
# H atom positions have been added when not included in the experimental data
#
###############################################################################

data_BODCUV05
_chemical_formula_moiety         '(C2088 H1836 Fe80 N573 Nb36 O468)n'
_symmetry_cell_setting           triclinic
_symmetry_space_group_name_H-M   'P 1'
_symmetry_Int_Tables_number      1
_space_group_name_Hall           'P 1'
loop_
_symmetry_equiv_pos_site_id
_symmetry_equiv_pos_as_xyz
1 x,y,z
_cell_length_a                   46.490(10)
_cell_length_b                   46.490(10)
_cell_length_c                   32.321(10)
_cell_angle_alpha                90
_cell_angle_beta                 90
_cell_angle_gamma                120
_cell_volume                     60497.1
loop_
_atom_site_label
_atom_site_type_symbol
_atom_site_fract_x
_atom_site_fract_y
_atom_site_fract_z
_atom_site_U_iso_or_equiv
_atom_site_thermal_displace_type
Nb1 Nb 0.321909 0.466391 0.078920 0.0063 Uiso
C1 C 0.289976 0.469956 0.124830 0.0127 Uiso
C2 C 0.300446 0.413469 0.075736 0.0127 Uiso
C3 C 0.327835 0.464121 0.012718 0.0127 Uiso
C4 C 0.360576 0.510459 0.107676 0.0127 Uiso
C5 C 0.321808 0.509807 0.053302 0.0127 Uiso
C6 C 0.332407 0.450616 0.138725 0.0127 Uiso
C7 C 0.366640 0.463827 0.066762 0.0127 Uiso
C8 C 0.272822 0.446484 0.051273 0.0127 Uiso
N1 N 0.272039 0.471423 0.147587 0.0127 Uiso
N2 N 0.289186 0.385005 0.075541 0.0127 Uiso
N4 N 0.381258 0.533048 0.124587 0.0127 Uiso
N5 N 0.321720 0.532798 0.040191 0.0127 Uiso
N6 N 0.337348 0.441906 0.170319 0.0127 Uiso
N7 N 0.390289 0.462435 0.059396 0.0127 Uiso
N8 N 0.246617 0.434683 0.036089 0.0127 Uiso
Fe1 Fe 0.235966 0.477985 0.178937 0.0063 Uiso
Fe2 Fe 0.263358 0.333333 0.083333 0.0063 Uiso
N9 N 0.226810 0.499092 0.120469 0.0127 Uiso
N10 N 0.195188 0.428778 0.155950 0.0127 Uiso
N11 N 0.241969 0.453751 0.237678 0.0127 Uiso
N12 N 0.275950 0.528196 0.201811 0.0127 Uiso
N13 N 0.225389 0.327885 0.035551 0.0127 Uiso
N14 N 0.296614 0.330314 0.035107 0.0127 Uiso
C9 C 0.248241 0.510944 0.088295 0.0127 Uiso
C10 C 0.198300 0.500178 0.116817 0.0127 Uiso
C11 C 0.164961 0.412405 0.174704 0.0127 Uiso
C12 C 0.200122 0.414419 0.122369 0.0127 Uiso
C13 C 0.258870 0.438419 0.237212 0.0127 Uiso
C14 C 0.228330 0.454095 0.275309 0.0127 Uiso
C15 C 0.270833 0.540671 0.237149 0.0127 Uiso
C16 C 0.304762 0.546462 0.181895 0.0127 Uiso
C17 C 0.226440 0.355853 0.022055 0.0127 Uiso
C18 C 0.201930 0.298958 0.019587 0.0127 Uiso
C19 C 0.284078 0.304491 0.008516 0.0127 Uiso
C20 C 0.329310 0.353764 0.031552 0.0127 Uiso
C25 C 0.242850 0.524076 0.051847 0.0127 Uiso
C26 C 0.191313 0.512938 0.081355 0.0127 Uiso
C27 C 0.139845 0.382179 0.160569 0.0127 Uiso
C28 C 0.175431 0.383809 0.106862 0.0127 Uiso
C29 C 0.262345 0.423721 0.273078 0.0127 Uiso
C30 C 0.231169 0.440201 0.310463 0.0127 Uiso
C31 C 0.293974 0.570779 0.252382 0.0127 Uiso
C32 C 0.329644 0.577504 0.195608 0.0127 Uiso
C36 C 0.349886 0.352106 0.002056 0.0127 Uiso
O1 O 0.265448 0.535973 0.019534 0.0127 Uiso
C41 C 0.213898 0.525202 0.048001 0.0127 Uiso
O2 O 0.110613 0.368948 0.183383 0.0127 Uiso
C42 C 0.145077 0.367361 0.125715 0.0127 Uiso
O3 O 0.281486 0.407541 0.268915 0.0127 Uiso
C43 C 0.248832 0.424012 0.310583 0.0127 Uiso
O4 O 0.285923 0.581463 0.289953 0.0127 Uiso
C44 C 0.324214 0.590295 0.232217 0.0127 Uiso
C49 C 0.099354 0.342833 0.211888 0.0127 Uiso
C50 C 0.310672 0.424135 0.293952 0.0127 Uiso
C51 C 0.273009 0.597776 0.280074 0.0127 Uiso
C52 C 0.445118 0.448158 0.010612 0.0127 Uiso
O9 O 0.095506 0.314860 0.200982 0.0127 Uiso
C54 C 0.092903 0.351645 0.253942 0.0127 Uiso
O10 O 0.313142 0.444569 0.319958 0.0127 Uiso
C55 C 0.339012 0.416404 0.288350 0.0127 Uiso
O11 O 0.286390 0.623906 0.250115 0.0127 Uiso
C56 C 0.238778 0.586673 0.304717 0.0127 Uiso
O12 O 0.423058 0.421152 0.021202 0.0127 Uiso
C57 C 0.480002 0.459415 0.024573 0.0127 Uiso
Fe4 Fe 0.424648 0.569299 0.154396 0.0063 Uiso
N17 N 0.199715 0.485123 0.208746 0.0127 Uiso
N18 N 0.230837 0.338782 0.131116 0.0127 Uiso
N19 N 0.299633 0.336353 0.131560 0.0127 Uiso
N20 N 0.237514 0.281662 0.091126 0.0127 Uiso
C59 C 0.177126 0.483216 0.225657 0.0127 Uiso
C60 C 0.203920 0.310814 0.144612 0.0127 Uiso
C61 C 0.236305 0.367709 0.147080 0.0127 Uiso
C62 C 0.312920 0.362176 0.158151 0.0127 Uiso
C63 C 0.308879 0.312903 0.135115 0.0127 Uiso
Nb2 Nb 0.133058 0.477815 0.254413 0.0063 Uiso
C68 C 0.181807 0.310335 0.173750 0.0127 Uiso
C69 C 0.214670 0.368646 0.176718 0.0127 Uiso
C70 C 0.335477 0.365787 0.188772 0.0127 Uiso
C71 C 0.331113 0.314561 0.164611 0.0127 Uiso
C76 C 0.136623 0.513313 0.208503 0.0127 Uiso
C77 C 0.080136 0.446356 0.257597 0.0127 Uiso
C78 C 0.130788 0.469619 0.320615 0.0127 Uiso
C79 C 0.176474 0.521332 0.280031 0.0127 Uiso
C80 C 0.117283 0.451542 0.194608 0.0127 Uiso
C81 C 0.130494 0.430520 0.266571 0.0127 Uiso
C82 C 0.113151 0.506995 0.282060 0.0127 Uiso
O14 O 0.154911 0.281490 0.186489 0.0127 Uiso
C83 C 0.187729 0.340565 0.190129 0.0127 Uiso
O15 O 0.348452 0.392685 0.215351 0.0127 Uiso
C84 C 0.344775 0.341440 0.192066 0.0127 Uiso
N24 N 0.138090 0.532717 0.185746 0.0127 Uiso
N25 N 0.051672 0.429152 0.257792 0.0127 Uiso
N26 N 0.129801 0.466964 0.356501 0.0127 Uiso
N27 N 0.199465 0.544411 0.293142 0.0127 Uiso
N28 N 0.108573 0.437891 0.163014 0.0127 Uiso
N29 N 0.129102 0.405479 0.273937 0.0127 Uiso
N30 N 0.101350 0.521399 0.297244 0.0127 Uiso
Fe5 Fe 0.144652 0.575352 0.154396 0.0063 Uiso
Fe6 Fe 0.000000 0.403309 0.250000 0.0063 Uiso
Fe7 Fe 0.131503 0.464836 0.416667 0.0063 Uiso
N31 N 0.165759 0.605615 0.212864 0.0127 Uiso
N32 N 0.095445 0.566923 0.177383 0.0127 Uiso
N33 N 0.120418 0.545115 0.095655 0.0127 Uiso
N34 N 0.194863 0.585579 0.131522 0.0127 Uiso
N35 N 0.151790 0.618742 0.124587 0.0127 Uiso
C91 C 0.177611 0.596036 0.245038 0.0127 Uiso
C92 C 0.166845 0.635211 0.216516 0.0127 Uiso
C93 C 0.079072 0.580777 0.158629 0.0127 Uiso
C94 C 0.081086 0.547630 0.210964 0.0127 Uiso
C95 C 0.105086 0.512882 0.096121 0.0127 Uiso
C96 C 0.120762 0.559098 0.058024 0.0127 Uiso
C97 C 0.207338 0.603171 0.096184 0.0127 Uiso
C98 C 0.213129 0.575033 0.151438 0.0127 Uiso
C99 C 0.190743 0.614559 0.281486 0.0127 Uiso
C100 C 0.179605 0.654958 0.251978 0.0127 Uiso
C101 C 0.048846 0.575667 0.172764 0.0127 Uiso
C102 C 0.050476 0.541711 0.226471 0.0127 Uiso
C103 C 0.090388 0.494709 0.060255 0.0127 Uiso
C104 C 0.106868 0.542365 0.022870 0.0127 Uiso
C105 C 0.237446 0.610138 0.080951 0.0127 Uiso
C106 C 0.244171 0.581193 0.137725 0.0127 Uiso
O20 O 0.202640 0.603858 0.313799 0.0127 Uiso
C107 C 0.191869 0.644637 0.285332 0.0127 Uiso
O21 O 0.035615 0.591668 0.149950 0.0127 Uiso
C108 C 0.034028 0.555617 0.207618 0.0127 Uiso
O22 O 0.074208 0.459388 0.064418 0.0127 Uiso
C109 C 0.090679 0.508513 0.022750 0.0127 Uiso
O23 O 0.248130 0.628873 0.043380 0.0127 Uiso
C110 C 0.256962 0.599414 0.101116 0.0127 Uiso
C111 C 0.009500 0.576812 0.121445 0.0127 Uiso
C112 C 0.090802 0.446796 0.039381 0.0127 Uiso
C113 C 0.264443 0.658100 0.053259 0.0127 Uiso
C114 C 0.018312 0.592075 0.079391 0.0127 Uiso
O25 O 0.111236 0.464760 0.013375 0.0127 Uiso
C115 C 0.083071 0.410725 0.044983 0.0127 Uiso
O26 O 0.290573 0.670849 0.083218 0.0127 Uiso
C116 C 0.253340 0.681228 0.028616 0.0127 Uiso
H1 H 0.257809 0.390798 0.13694 . .
H3 H 0.0740003 0.358887 0.25189 . .
H4 H 0.0842652 0.330246 0.274335 . .
H5 H 0.115737 0.372231 0.266281 . .
H8 H 0.489253 0.482102 0.0426694 . .
H9 H 0.480185 0.440136 0.0435173 . .
H12 H 0.243738 0.589897 0.337822 . .
H13 H 0.228379 0.601958 0.294752 . .
H14 H 0.221151 0.560683 0.298183 . .
H15 H 0.199285 0.287192 0.131848 . .
H19 H 0.305648 0.381027 0.155504 . .
H20 H 0.298278 0.291967 0.113782 . .
H21 H 0.348387 0.422282 0.256792 . .
H22 H 0.358992 0.431307 0.309934 . .
H23 H 0.329699 0.390156 0.294363 . .
H25 H 0.171093 0.341517 0.213106 . .
H27 H 0.219724 0.392503 0.189136 . .
H28 H 0.16243 0.266875 0.199046 . .
H29 H 0.362393 0.343432 0.215677 . .
H30 H 0.337903 0.295319 0.166493 . .
H31 H 0.330123 0.392767 0.231024 . .
H40 H 0.0102013 0.551282 0.21926 . .
H41 H 0.0388972 0.589827 0.0670519 . .
H43 H 0.0255541 0.61822 0.0814431 . .
H44 H 0.180061 0.678573 0.253818 . .
H45 H 0.201825 0.659825 0.313005 . .
H46 H 0.25811 0.572083 0.155011 . .
H47 H 0.221214 0.600946 0.303767 . .
H49 H 0.0901878 0.596424 0.131557 . .
H50 H 0.103683 0.499909 0.124767 . .
H51 H 0.0397571 0.526006 0.253592 . .
H52 H 0.15757 0.643839 0.191263 . .
H53 H 0.133397 0.586102 0.0565472 . .
H54 H 0.281045 0.604949 0.088965 . .
H56 H 0.176936 0.572346 0.242543 . .
H57 H 0.192878 0.611984 0.0795009 . .
H58 H 0.0937671 0.536312 0.226473 . .
H59 H 0.203234 0.560887 0.179868 . .
H60 H 0.0568229 0.393791 0.0389707 . .
H61 H 0.0979732 0.405648 0.0233992 . .
H62 H 0.0889487 0.407229 0.0765417 . .
H63 H 0.22735 0.672865 0.0351508 . .
H64 H 0.268625 0.706912 0.0385814 . .
H66 H 0.245426 0.379474 0.0348189 . .
H67 H 0.213961 0.46673 0.276786 . .
H69 H 0.309013 0.536567 0.153465 . .
H70 H 0.180418 0.37309 0.0797418 . .
H71 H 0.219381 0.441885 0.338761 . .
H72 H 0.257955 0.28564 0.0111624 . .
H74 H 0.224122 0.4271 0.10686 . .
H75 H 0.270441 0.437017 0.208566 . .
H77 H 0.168155 0.513395 0.0795153 . .
H78 H 0.339644 0.374699 0.0528849 . .
H79 H 0.160431 0.423521 0.201777 . .
H80 H 0.352693 0.591443 0.178322 . .
H81 H 0.271257 0.51027 0.0907907 . .
H82 H 0.200344 0.275869 0.0297267 . .
H84 H 0.180398 0.490904 0.14207 . .
H86 H 0.247561 0.526211 0.253832 . .
H88 H 0.268847 0.517856 0.00887849 . .
H89 H 0.375917 0.371348 0.000173759 . .
H90 H 0.125586 0.343535 0.114073 . .
H91 H 0.251918 0.41233 0.338125 . .
H92 H 0.342763 0.614378 0.244368 . .
H94 H 0.208666 0.535158 0.0203286 . .
N3 N 0.329503 0.463134 0.976832 0.0127 Uiso
Fe3 Fe 0.333333 0.464836 0.916667 0.0063 Uiso
N15 N 0.368692 0.451657 0.920465 0.0127 Uiso
N16 N 0.368199 0.513284 0.921629 0.0127 Uiso
C21 C 0.392251 0.463569 0.950748 0.0127 Uiso
C22 C 0.369831 0.430231 0.892525 0.0127 Uiso
C23 C 0.395313 0.527723 0.896900 0.0127 Uiso
C24 C 0.364835 0.532724 0.950802 0.0127 Uiso
C33 C 0.204806 0.356332 0.992917 0.0127 Uiso
C34 C 0.179358 0.298021 0.989949 0.0127 Uiso
C35 C 0.303024 0.300880 0.977895 0.0127 Uiso
C37 C 0.416321 0.454743 0.953573 0.0127 Uiso
C38 C 0.393260 0.420825 0.894174 0.0127 Uiso
C39 C 0.418697 0.560785 0.900922 0.0127 Uiso
C40 C 0.387705 0.565919 0.955799 0.0127 Uiso
O5 O 0.206755 0.385177 0.980178 0.0127 Uiso
C45 C 0.180498 0.326102 0.976538 0.0127 Uiso
O6 O 0.289101 0.273982 0.951316 0.0127 Uiso
C46 C 0.336669 0.325227 0.974601 0.0127 Uiso
O7 O 0.439365 0.468790 0.986364 0.0127 Uiso
C47 C 0.417387 0.432983 0.925103 0.0127 Uiso
O8 O 0.446336 0.574264 0.874196 0.0127 Uiso
C48 C 0.415252 0.580488 0.930559 0.0127 Uiso
C53 C 0.476724 0.582876 0.891059 0.0127 Uiso
O13 O 0.479431 0.567785 0.920196 0.0127 Uiso
C58 C 0.508006 0.612225 0.872735 0.0127 Uiso
N21 N 0.297975 0.416298 0.912868 0.0127 Uiso
N22 N 0.298468 0.478418 0.911704 0.0127 Uiso
N23 N 0.337164 0.466964 0.856501 0.0127 Uiso
C64 C 0.274416 0.404651 0.882585 0.0127 Uiso
C65 C 0.296836 0.393733 0.940808 0.0127 Uiso
C66 C 0.271354 0.465743 0.936433 0.0127 Uiso
C67 C 0.301832 0.501222 0.882531 0.0127 Uiso
C72 C 0.250346 0.371755 0.879760 0.0127 Uiso
C73 C 0.273407 0.360898 0.939159 0.0127 Uiso
C74 C 0.247970 0.475421 0.932411 0.0127 Uiso
C75 C 0.278962 0.511547 0.877534 0.0127 Uiso
O16 O 0.227302 0.362758 0.846969 0.0127 Uiso
C85 C 0.249280 0.348929 0.908230 0.0127 Uiso
O17 O 0.220331 0.461261 0.959137 0.0127 Uiso
C86 C 0.251415 0.498569 0.902774 0.0127 Uiso
C87 C 0.221549 0.336373 0.822721 0.0127 Uiso
C88 C 0.189943 0.439485 0.942274 0.0127 Uiso
O18 O 0.243609 0.331427 0.812131 0.0127 Uiso
C89 C 0.186665 0.312746 0.808760 0.0127 Uiso
O19 O 0.187236 0.421687 0.913137 0.0127 Uiso
C90 C 0.158661 0.437552 0.960598 0.0127 Uiso
H2 H 0.274678 0.422043 0.859809 . .
H6 H 0.315353 0.402297 0.965347 . .
H7 H 0.323516 0.511657 0.862401 . .
H10 H 0.495844 0.464163 0.997648 . .
H11 H 0.267999 0.447544 0.959949 . .
H16 H 0.506273 0.634672 0.8752 . .
H17 H 0.529733 0.61559 0.889657 . .
H18 H 0.510266 0.607293 0.840312 . .
H24 H 0.28262 0.529765 0.853895 . .
H26 H 0.273533 0.343867 0.962195 . .
H32 H 0.230393 0.322761 0.906499 . .
H33 H 0.232889 0.506229 0.899588 . .
H34 H 0.160394 0.461732 0.958133 . .
H35 H 0.136933 0.41919 0.943676 . .
H36 H 0.1564 0.43036 0.993022 . .
H37 H 0.177414 0.326183 0.790664 . .
H38 H 0.186482 0.293284 0.789816 . .
H39 H 0.170822 0.301652 0.835685 . .
H48 H 0.0789966 0.493745 0.995208 . .
H55 H 0.108552 0.555838 0.994572 . .
H65 H 0.256563 0.679492 0.995512 . .
H68 H 0.398667 0.512878 0.873384 . .
H73 H 0.351313 0.420277 0.867986 . .
H76 H 0.34315 0.521474 0.970933 . .
H83 H 0.391988 0.480698 0.973524 . .
H85 H 0.160554 0.274163 0.977531 . .
H87 H 0.228889 0.399792 0.967621 . .
H93 H 0.352294 0.323235 0.950989 . .
H95 H 0.162909 0.32515 0.953561 . .
H96 H 0.433778 0.606674 0.933745 . .
H97 H 0.393134 0.403668 0.871138 . .
H98 H 0.270689 0.273899 0.935643 . .
H99 H 0.384047 0.580478 0.979438 . .
H100 H 0.436273 0.425701 0.926834 . .
Fe6_2 Fe 1.000000 0.403309 0.250000 0.0063 Uiso
O24 O 0.981527 0.552687 0.132351 0.0127 Uiso
H42 H 0.996913 0.579314 0.0589983 . .
O12_2 O 0.578848 0.001906 0.021202 0.0127 Uiso
C57_2 C 0.540585 0.020587 0.024573 0.0127 Uiso
C71_2 C 0.685439 0.016553 0.164611 0.0127 Uiso
C84_2 C 0.658560 0.003336 0.192066 0.0127 Uiso
H8_2 H 0.517898 0.00715032 0.0426694 . .
H9_2 H 0.559864 0.0400489 0.0435173 . .
H20_2 H 0.708033 0.00631112 0.113782 . .
H29_2 H 0.656568 0.0189607 0.215677 . .
H30_2 H 0.704681 0.0425842 0.166493 . .
H89_2 H 0.628652 0.00456989 0.000173759 . .
C35_2 C 0.699120 0.002144 0.977895 0.0127 Uiso
O6_2 O 0.726018 0.015119 0.951316 0.0127 Uiso
C46_2 C 0.674773 0.011442 0.974601 0.0127 Uiso
H10_2 H 0.535837 0.0316813 0.997648 . .
H93_2 H 0.676765 0.0290592 0.950989 . .
H100_2 H 0.574299 0.0105724 0.926834 . .
Nb1_2 Nb 0.533609 0.855518 0.078920 0.0063 Uiso
C1_2 C 0.530044 0.820020 0.124830 0.0127 Uiso
C2_2 C 0.586531 0.886977 0.075736 0.0127 Uiso
C3_2 C 0.535879 0.863714 0.012718 0.0127 Uiso
C4_2 C 0.489541 0.850117 0.107676 0.0127 Uiso
C5_2 C 0.490193 0.812001 0.053302 0.0127 Uiso
C6_2 C 0.549384 0.881791 0.138725 0.0127 Uiso
C7_2 C 0.536173 0.902813 0.066762 0.0127 Uiso
C8_2 C 0.553516 0.826338 0.051273 0.0127 Uiso
N1_2 N 0.528577 0.800616 0.147587 0.0127 Uiso
N2_2 N 0.614995 0.904181 0.075541 0.0127 Uiso
N4_2 N 0.466952 0.848210 0.124587 0.0127 Uiso
N5_2 N 0.467202 0.788922 0.040191 0.0127 Uiso
N6_2 N 0.558094 0.895442 0.170319 0.0127 Uiso
N7_2 N 0.537565 0.927854 0.059396 0.0127 Uiso
N8_2 N 0.565317 0.811934 0.036089 0.0127 Uiso
Fe1_2 Fe 0.522015 0.757981 0.178937 0.0063 Uiso
Fe2_2 Fe 0.666667 0.930025 0.083333 0.0063 Uiso
N9_2 N 0.500908 0.727718 0.120469 0.0127 Uiso
N10_2 N 0.571222 0.766410 0.155950 0.0127 Uiso
N11_2 N 0.546249 0.788218 0.237678 0.0127 Uiso
N12_2 N 0.471804 0.747754 0.201811 0.0127 Uiso
N13_2 N 0.672115 0.897504 0.035551 0.0127 Uiso
N14_2 N 0.669686 0.966300 0.035107 0.0127 Uiso
C9_2 C 0.489056 0.737297 0.088295 0.0127 Uiso
C10_2 C 0.499822 0.698122 0.116817 0.0127 Uiso
C11_2 C 0.587595 0.752556 0.174704 0.0127 Uiso
C12_2 C 0.585581 0.785703 0.122369 0.0127 Uiso
C13_2 C 0.561581 0.820451 0.237212 0.0127 Uiso
C14_2 C 0.545905 0.774235 0.275309 0.0127 Uiso
C15_2 C 0.459329 0.730162 0.237149 0.0127 Uiso
C16_2 C 0.453538 0.758300 0.181895 0.0127 Uiso
C17_2 C 0.644147 0.870587 0.022055 0.0127 Uiso
C18_2 C 0.701042 0.902972 0.019587 0.0127 Uiso
C19_2 C 0.695509 0.979587 0.008516 0.0127 Uiso
C20_2 C 0.646236 0.975546 0.031552 0.0127 Uiso
C25_2 C 0.475924 0.718774 0.051847 0.0127 Uiso
C26_2 C 0.487062 0.678375 0.081355 0.0127 Uiso
C27_2 C 0.617821 0.757666 0.160569 0.0127 Uiso
C28_2 C 0.616191 0.791622 0.106862 0.0127 Uiso
C29_2 C 0.576279 0.838624 0.273078 0.0127 Uiso
C30_2 C 0.559799 0.790968 0.310463 0.0127 Uiso
C31_2 C 0.429221 0.723195 0.252382 0.0127 Uiso
C32_2 C 0.422496 0.752140 0.195608 0.0127 Uiso
C36_2 C 0.647894 0.997780 0.002056 0.0127 Uiso
O1_2 O 0.464027 0.729475 0.019534 0.0127 Uiso
C41_2 C 0.474798 0.688696 0.048001 0.0127 Uiso
O2_2 O 0.631052 0.741665 0.183383 0.0127 Uiso
C42_2 C 0.632639 0.777716 0.125715 0.0127 Uiso
O3_2 O 0.592459 0.873945 0.268915 0.0127 Uiso
C43_2 C 0.575988 0.824820 0.310583 0.0127 Uiso
O4_2 O 0.418537 0.704460 0.289953 0.0127 Uiso
C44_2 C 0.409705 0.733919 0.232217 0.0127 Uiso
C49_2 C 0.657167 0.756521 0.211888 0.0127 Uiso
C50_2 C 0.575865 0.886537 0.293952 0.0127 Uiso
C51_2 C 0.402224 0.675233 0.280074 0.0127 Uiso
C52_2 C 0.551842 0.996960 0.010612 0.0127 Uiso
O9_2 O 0.685140 0.780646 0.200982 0.0127 Uiso
C54_2 C 0.648355 0.741258 0.253942 0.0127 Uiso
O10_2 O 0.555431 0.868573 0.319958 0.0127 Uiso
C55_2 C 0.583596 0.922608 0.288350 0.0127 Uiso
O11_2 O 0.376094 0.662484 0.250115 0.0127 Uiso
C56_2 C 0.413327 0.652105 0.304717 0.0127 Uiso
Fe4_2 Fe 0.430701 0.855348 0.154396 0.0063 Uiso
N17_2 N 0.514877 0.714591 0.208746 0.0127 Uiso
N18_2 N 0.661218 0.892056 0.131116 0.0127 Uiso
N19_2 N 0.663647 0.963281 0.131560 0.0127 Uiso
N20_2 N 0.718338 0.955853 0.091126 0.0127 Uiso
C59_2 C 0.516784 0.693909 0.225657 0.0127 Uiso
C60_2 C 0.689186 0.893107 0.144612 0.0127 Uiso
C61_2 C 0.632291 0.868597 0.147080 0.0127 Uiso
C62_2 C 0.637824 0.950745 0.158151 0.0127 Uiso
C63_2 C 0.687097 0.995977 0.135115 0.0127 Uiso
Nb2_2 Nb 0.522185 0.655242 0.254413 0.0063 Uiso
C68_2 C 0.689665 0.871473 0.173750 0.0127 Uiso
C69_2 C 0.631354 0.846025 0.176718 0.0127 Uiso
C70_2 C 0.634213 0.969691 0.188772 0.0127 Uiso
C76_2 C 0.486687 0.623309 0.208503 0.0127 Uiso
C77_2 C 0.553644 0.633779 0.257597 0.0127 Uiso
C78_2 C 0.530381 0.661168 0.320615 0.0127 Uiso
C79_2 C 0.478668 0.655141 0.280031 0.0127 Uiso
C80_2 C 0.548458 0.665740 0.194608 0.0127 Uiso
C81_2 C 0.569480 0.699973 0.266571 0.0127 Uiso
C82_2 C 0.493005 0.606155 0.282060 0.0127 Uiso
O14_2 O 0.718510 0.873422 0.186489 0.0127 Uiso
C83_2 C 0.659435 0.847165 0.190129 0.0127 Uiso
O15_2 O 0.607315 0.955768 0.215351 0.0127 Uiso
N24_2 N 0.467283 0.605372 0.185746 0.0127 Uiso
N25_2 N 0.570848 0.622519 0.257792 0.0127 Uiso
N26_2 N 0.533036 0.662836 0.356501 0.0127 Uiso
N27_2 N 0.455589 0.655053 0.293142 0.0127 Uiso
N28_2 N 0.562109 0.670681 0.163014 0.0127 Uiso
N29_2 N 0.594521 0.723622 0.273937 0.0127 Uiso
N30_2 N 0.478601 0.579950 0.297244 0.0127 Uiso
Fe6_3 Fe 0.596691 0.596692 0.250000 0.0063 Uiso
Fe7_2 Fe 0.535164 0.666667 0.416667 0.0063 Uiso
N31_2 N 0.394385 0.560143 0.212864 0.0127 Uiso
N32_2 N 0.433077 0.528521 0.177383 0.0127 Uiso
N33_2 N 0.454885 0.575302 0.095655 0.0127 Uiso
N34_2 N 0.414421 0.609283 0.131522 0.0127 Uiso
C91_2 C 0.403964 0.581574 0.245038 0.0127 Uiso
C92_2 C 0.364789 0.531633 0.216516 0.0127 Uiso
C93_2 C 0.419223 0.498294 0.158629 0.0127 Uiso
C94_2 C 0.452370 0.533455 0.210964 0.0127 Uiso
C95_2 C 0.487118 0.592203 0.096121 0.0127 Uiso
C96_2 C 0.440902 0.561663 0.058024 0.0127 Uiso
C97_2 C 0.396829 0.604166 0.096184 0.0127 Uiso
C98_2 C 0.424967 0.638095 0.151438 0.0127 Uiso
C99_2 C 0.385441 0.576183 0.281486 0.0127 Uiso
C100_2 C 0.345042 0.524646 0.251978 0.0127 Uiso
C101_2 C 0.424333 0.473178 0.172764 0.0127 Uiso
C102_2 C 0.458289 0.508764 0.226471 0.0127 Uiso
C103_2 C 0.505291 0.595678 0.060255 0.0127 Uiso
C104_2 C 0.457635 0.564502 0.022870 0.0127 Uiso
C105_2 C 0.389862 0.627307 0.080951 0.0127 Uiso
C106_2 C 0.418807 0.662977 0.137725 0.0127 Uiso
O20_2 O 0.396142 0.598781 0.313799 0.0127 Uiso
C107_2 C 0.355363 0.547231 0.285332 0.0127 Uiso
O21_2 O 0.408332 0.443946 0.149950 0.0127 Uiso
C108_2 C 0.444383 0.478410 0.207618 0.0127 Uiso
O22_2 O 0.540612 0.614819 0.064418 0.0127 Uiso
C109_2 C 0.491487 0.582165 0.022750 0.0127 Uiso
O23_2 O 0.371127 0.619256 0.043380 0.0127 Uiso
C110_2 C 0.400586 0.657547 0.101116 0.0127 Uiso
C111_2 C 0.423188 0.432687 0.121445 0.0127 Uiso
C112_2 C 0.553204 0.644005 0.039381 0.0127 Uiso
C113_2 C 0.341900 0.606342 0.053259 0.0127 Uiso
O24_2 O 0.447313 0.428839 0.132351 0.0127 Uiso
C114_2 C 0.407925 0.426236 0.079391 0.0127 Uiso
O25_2 O 0.535240 0.646475 0.013375 0.0127 Uiso
C115_2 C 0.589275 0.672345 0.044983 0.0127 Uiso
O26_2 O 0.329151 0.619723 0.083218 0.0127 Uiso
C116_2 C 0.318772 0.572111 0.028616 0.0127 Uiso
H1_2 H 0.609202 0.867011 0.13694 . .
H3_2 H 0.641113 0.715113 0.25189 . .
H4_2 H 0.669754 0.754019 0.274335 . .
H5_2 H 0.627769 0.743507 0.266281 . .
H12_2 H 0.410103 0.653841 0.337822 . .
H13_2 H 0.398042 0.626421 0.294752 . .
H14_2 H 0.439317 0.660468 0.298183 . .
H15_2 H 0.712808 0.912093 0.131848 . .
H19_2 H 0.618973 0.924622 0.155504 . .
H21_2 H 0.577718 0.926105 0.256792 . .
H22_2 H 0.568693 0.927685 0.309934 . .
H23_2 H 0.609844 0.939543 0.294363 . .
H25_2 H 0.658483 0.829576 0.213106 . .
H27_2 H 0.607497 0.827221 0.189136 . .
H28_2 H 0.733125 0.895555 0.199046 . .
H31_2 H 0.607233 0.937356 0.231024 . .
H40_2 H 0.448718 0.458919 0.21926 . .
H41_2 H 0.410173 0.44907 0.0670519 . .
H42_2 H 0.420686 0.417599 0.0589983 . .
H43_2 H 0.38178 0.407334 0.0814431 . .
H44_2 H 0.321427 0.501489 0.253818 . .
H45_2 H 0.340175 0.542 0.313005 . .
H46_2 H 0.427917 0.686026 0.155011 . .
H47_2 H 0.399054 0.620268 0.303767 . .
H49_2 H 0.403576 0.493764 0.131557 . .
H50_2 H 0.500091 0.603774 0.124767 . .
H51_2 H 0.473994 0.513751 0.253592 . .
H52_2 H 0.356161 0.513731 0.191263 . .
H53_2 H 0.413898 0.547295 0.0565472 . .
H54_2 H 0.395051 0.676096 0.088965 . .
H56_2 H 0.427654 0.60459 0.242543 . .
H57_2 H 0.388016 0.580894 0.0795009 . .
H58_2 H 0.463688 0.557455 0.226473 . .
H59_2 H 0.439113 0.642346 0.179868 . .
H60_2 H 0.606209 0.663032 0.0389707 . .
H61_2 H 0.594352 0.692325 0.0233992 . .
H62_2 H 0.592771 0.68172 0.0765417 . .
H63_2 H 0.327135 0.554484 0.0351508 . .
H64_2 H 0.293088 0.561713 0.0385814 . .
H66_2 H 0.620526 0.865952 0.0348189 . .
H67_2 H 0.53327 0.747231 0.276786 . .
H69_2 H 0.463433 0.772446 0.153465 . .
H70_2 H 0.62691 0.807327 0.0797418 . .
H71_2 H 0.558115 0.777496 0.338761 . .
H72_2 H 0.71436 0.972315 0.0111624 . .
H74_2 H 0.5729 0.797021 0.10686 . .
H75_2 H 0.562983 0.833424 0.208566 . .
H77_2 H 0.486605 0.654761 0.0795153 . .
H78_2 H 0.625301 0.964945 0.0528849 . .
H79_2 H 0.576479 0.73691 0.201777 . .
H80_2 H 0.408557 0.76125 0.178322 . .
H81_2 H 0.48973 0.760987 0.0907907 . .
H82_2 H 0.724131 0.924475 0.0297267 . .
H84_2 H 0.509096 0.689494 0.14207 . .
H86_2 H 0.473789 0.72135 0.253832 . .
H88_2 H 0.482144 0.750991 0.00887849 . .
H90_2 H 0.656465 0.782051 0.114073 . .
H91_2 H 0.58767 0.839588 0.338125 . .
H92_2 H 0.385622 0.728384 0.244368 . .
H94_2 H 0.464842 0.673508 0.0203286 . .
N3_2 N 0.536866 0.866369 0.976832 0.0127 Uiso
Fe3_2 Fe 0.535164 0.868497 0.916667 0.0063 Uiso
N15_2 N 0.548343 0.917035 0.920465 0.0127 Uiso
N16_2 N 0.486716 0.854915 0.921629 0.0127 Uiso
C21_2 C 0.536431 0.928682 0.950748 0.0127 Uiso
C22_2 C 0.569769 0.939600 0.892525 0.0127 Uiso
C23_2 C 0.472277 0.867590 0.896900 0.0127 Uiso
C24_2 C 0.467276 0.832111 0.950802 0.0127 Uiso
C33_2 C 0.643668 0.848474 0.992917 0.0127 Uiso
C34_2 C 0.701979 0.881337 0.989949 0.0127 Uiso
C37_2 C 0.545257 0.961578 0.953573 0.0127 Uiso
C38_2 C 0.579175 0.972435 0.894174 0.0127 Uiso
C39_2 C 0.439215 0.857912 0.900922 0.0127 Uiso
C40_2 C 0.434081 0.821786 0.955799 0.0127 Uiso
O5_2 O 0.614823 0.821578 0.980178 0.0127 Uiso
C45_2 C 0.673898 0.854396 0.976538 0.0127 Uiso
O7_2 O 0.531210 0.970575 0.986364 0.0127 Uiso
C47_2 C 0.567017 0.984404 0.925103 0.0127 Uiso
O8_2 O 0.425736 0.872072 0.874196 0.0127 Uiso
C48_2 C 0.419512 0.834764 0.930559 0.0127 Uiso
C53_2 C 0.417124 0.893848 0.891059 0.0127 Uiso
O13_2 O 0.432215 0.911646 0.920196 0.0127 Uiso
C58_2 C 0.387775 0.895781 0.872735 0.0127 Uiso
N21_2 N 0.583702 0.881676 0.912868 0.0127 Uiso
N22_2 N 0.521582 0.820049 0.911704 0.0127 Uiso
N23_2 N 0.533036 0.870199 0.856501 0.0127 Uiso
C64_2 C 0.595349 0.869764 0.882585 0.0127 Uiso
C65_2 C 0.606267 0.903102 0.940808 0.0127 Uiso
C66_2 C 0.534257 0.805610 0.936433 0.0127 Uiso
C67_2 C 0.498778 0.800609 0.882531 0.0127 Uiso
C72_2 C 0.628245 0.878590 0.879760 0.0127 Uiso
C73_2 C 0.639102 0.912508 0.939159 0.0127 Uiso
C74_2 C 0.524579 0.772548 0.932411 0.0127 Uiso
C75_2 C 0.488453 0.767414 0.877534 0.0127 Uiso
O16_2 O 0.637242 0.864543 0.846969 0.0127 Uiso
C85_2 C 0.651071 0.900350 0.908230 0.0127 Uiso
O17_2 O 0.538739 0.759069 0.959137 0.0127 Uiso
C86_2 C 0.501431 0.752845 0.902774 0.0127 Uiso
C87_2 C 0.663627 0.885175 0.822721 0.0127 Uiso
C88_2 C 0.560515 0.750457 0.942274 0.0127 Uiso
O18_2 O 0.668573 0.912181 0.812131 0.0127 Uiso
C89_2 C 0.687254 0.873918 0.808760 0.0127 Uiso
O19_2 O 0.578313 0.765548 0.913137 0.0127 Uiso
C90_2 C 0.562448 0.721108 0.960598 0.0127 Uiso
H2_2 H 0.577957 0.852635 0.859809 . .
H6_2 H 0.597703 0.913056 0.965347 . .
H7_2 H 0.488343 0.811859 0.862401 . .
H11_2 H 0.552456 0.820456 0.959949 . .
H16_2 H 0.365328 0.871601 0.8752 . .
H17_2 H 0.38441 0.914144 0.889657 . .
H18_2 H 0.392707 0.902973 0.840312 . .
H24_2 H 0.470235 0.752855 0.853895 . .
H26_2 H 0.656133 0.929666 0.962195 . .
H32_2 H 0.677239 0.907633 0.906499 . .
H33_2 H 0.493771 0.726659 0.899588 . .
H34_2 H 0.538268 0.698661 0.958133 . .
H35_2 H 0.58081 0.717743 0.943676 . .
H36_2 H 0.56964 0.72604 0.993022 . .
H37_2 H 0.673817 0.851231 0.790664 . .
H38_2 H 0.706716 0.893197 0.789816 . .
H39_2 H 0.698348 0.86917 0.835685 . .
H48_2 H 0.506255 0.585252 0.995208 . .
H55_2 H 0.444162 0.552714 0.994572 . .
H65_2 H 0.320508 0.577071 0.995512 . .
H68_2 H 0.487122 0.885789 0.873384 . .
H73_2 H 0.579723 0.931036 0.867986 . .
H76_2 H 0.478526 0.821676 0.970933 . .
H83_2 H 0.519302 0.91129 0.973524 . .
H85_2 H 0.725837 0.886391 0.977531 . .
H87_2 H 0.600208 0.829097 0.967621 . .
H95_2 H 0.67485 0.83776 0.953561 . .
H96_2 H 0.393326 0.827104 0.933745 . .
H97_2 H 0.596332 0.989466 0.871138 . .
H98_2 H 0.726101 0.996789 0.935643 . .
H99_2 H 0.419522 0.803569 0.979438 . .
Fe6_4 Fe 0.403308 -0.000000 0.250000 0.0063 Uiso
O24_3 O 0.571161 0.018473 0.132351 0.0127 Uiso
H42_3 H 0.582401 0.00308749 0.0589983 . .
Nb1_3 Nb 0.144482 0.678091 0.078920 0.0063 Uiso
C1_3 C 0.179980 0.710024 0.124830 0.0127 Uiso
C2_3 C 0.113023 0.699554 0.075736 0.0127 Uiso
C3_3 C 0.136286 0.672165 0.012718 0.0127 Uiso
C4_3 C 0.149883 0.639424 0.107676 0.0127 Uiso
C5_3 C 0.187999 0.678192 0.053302 0.0127 Uiso
C6_3 C 0.118209 0.667593 0.138725 0.0127 Uiso
C7_3 C 0.097187 0.633360 0.066762 0.0127 Uiso
C8_3 C 0.173662 0.727178 0.051273 0.0127 Uiso
N1_3 N 0.199384 0.727961 0.147587 0.0127 Uiso
N2_3 N 0.095819 0.710814 0.075541 0.0127 Uiso
N5_3 N 0.211078 0.678280 0.040191 0.0127 Uiso
N6_3 N 0.104558 0.662652 0.170319 0.0127 Uiso
N7_3 N 0.072146 0.609711 0.059396 0.0127 Uiso
N8_3 N 0.188066 0.753383 0.036089 0.0127 Uiso
Fe1_3 Fe 0.242019 0.764034 0.178937 0.0063 Uiso
Fe2_3 Fe 0.069975 0.736642 0.083333 0.0063 Uiso
N9_3 N 0.272282 0.773190 0.120469 0.0127 Uiso
N10_3 N 0.233590 0.804812 0.155950 0.0127 Uiso
N11_3 N 0.211782 0.758031 0.237678 0.0127 Uiso
N12_3 N 0.252246 0.724050 0.201811 0.0127 Uiso
N13_3 N 0.102496 0.774611 0.035551 0.0127 Uiso
N14_3 N 0.033700 0.703386 0.035107 0.0127 Uiso
C9_3 C 0.262703 0.751759 0.088295 0.0127 Uiso
C10_3 C 0.301878 0.801700 0.116817 0.0127 Uiso
C11_3 C 0.247444 0.835039 0.174704 0.0127 Uiso
C12_3 C 0.214297 0.799878 0.122369 0.0127 Uiso
C13_3 C 0.179549 0.741130 0.237212 0.0127 Uiso
C14_3 C 0.225765 0.771670 0.275309 0.0127 Uiso
C15_3 C 0.269838 0.729167 0.237149 0.0127 Uiso
C16_3 C 0.241700 0.695238 0.181895 0.0127 Uiso
C17_3 C 0.129413 0.773560 0.022055 0.0127 Uiso
C18_3 C 0.097028 0.798070 0.019587 0.0127 Uiso
C19_3 C 0.020413 0.715922 0.008516 0.0127 Uiso
C20_3 C 0.024454 0.670690 0.031552 0.0127 Uiso
C25_3 C 0.281226 0.757150 0.051847 0.0127 Uiso
C26_3 C 0.321625 0.808687 0.081355 0.0127 Uiso
C27_3 C 0.242334 0.860155 0.160569 0.0127 Uiso
C28_3 C 0.208378 0.824569 0.106862 0.0127 Uiso
C29_3 C 0.161376 0.737655 0.273078 0.0127 Uiso
C30_3 C 0.209032 0.768831 0.310463 0.0127 Uiso
C31_3 C 0.276805 0.706026 0.252382 0.0127 Uiso
C32_3 C 0.247860 0.670356 0.195608 0.0127 Uiso
C36_3 C 0.002220 0.650114 0.002056 0.0127 Uiso
O1_3 O 0.270525 0.734552 0.019534 0.0127 Uiso
C41_3 C 0.311304 0.786102 0.048001 0.0127 Uiso
O2_3 O 0.258335 0.889387 0.183383 0.0127 Uiso
C42_3 C 0.222284 0.854923 0.125715 0.0127 Uiso
O3_3 O 0.126055 0.718514 0.268915 0.0127 Uiso
C43_3 C 0.175180 0.751168 0.310583 0.0127 Uiso
O4_3 O 0.295540 0.714077 0.289953 0.0127 Uiso
C44_3 C 0.266081 0.675786 0.232217 0.0127 Uiso
C49_3 C 0.243479 0.900646 0.211888 0.0127 Uiso
C50_3 C 0.113463 0.689328 0.293952 0.0127 Uiso
C51_3 C 0.324767 0.726991 0.280074 0.0127 Uiso
C52_3 C 0.003040 0.554882 0.010612 0.0127 Uiso
O9_3 O 0.219354 0.904494 0.200982 0.0127 Uiso
C54_3 C 0.258742 0.907097 0.253942 0.0127 Uiso
O10_3 O 0.131427 0.686858 0.319958 0.0127 Uiso
C55_3 C 0.077392 0.660988 0.288350 0.0127 Uiso
O11_3 O 0.337516 0.713610 0.250115 0.0127 Uiso
C56_3 C 0.347895 0.761222 0.304717 0.0127 Uiso
N17_3 N 0.285409 0.800285 0.208746 0.0127 Uiso
N18_3 N 0.107944 0.769163 0.131116 0.0127 Uiso
N19_3 N 0.036719 0.700367 0.131560 0.0127 Uiso
N20_3 N 0.044147 0.762486 0.091126 0.0127 Uiso
C59_3 C 0.306091 0.822874 0.225657 0.0127 Uiso
C60_3 C 0.106893 0.796080 0.144612 0.0127 Uiso
C61_3 C 0.131403 0.763695 0.147080 0.0127 Uiso
C62_3 C 0.049255 0.687080 0.158151 0.0127 Uiso
C63_3 C 0.004023 0.691121 0.135115 0.0127 Uiso
Nb2_3 Nb 0.344758 0.866942 0.254413 0.0063 Uiso
C68_3 C 0.128527 0.818193 0.173750 0.0127 Uiso
C69_3 C 0.153975 0.785330 0.176718 0.0127 Uiso
C70_3 C 0.030309 0.664523 0.188772 0.0127 Uiso
C76_3 C 0.376691 0.863377 0.208503 0.0127 Uiso
C77_3 C 0.366221 0.919864 0.257597 0.0127 Uiso
C78_3 C 0.338832 0.869212 0.320615 0.0127 Uiso
C79_3 C 0.344859 0.823526 0.280031 0.0127 Uiso
C80_3 C 0.334260 0.882717 0.194608 0.0127 Uiso
C81_3 C 0.300027 0.869506 0.266571 0.0127 Uiso
C82_3 C 0.393845 0.886849 0.282060 0.0127 Uiso
O14_3 O 0.126578 0.845089 0.186489 0.0127 Uiso
C83_3 C 0.152835 0.812271 0.190129 0.0127 Uiso
O15_3 O 0.044232 0.651548 0.215351 0.0127 Uiso
N24_3 N 0.394628 0.861910 0.185746 0.0127 Uiso
N25_3 N 0.377481 0.948328 0.257792 0.0127 Uiso
N26_3 N 0.337164 0.870199 0.356501 0.0127 Uiso
N27_3 N 0.344947 0.800535 0.293142 0.0127 Uiso
N28_3 N 0.329319 0.891427 0.163014 0.0127 Uiso
N29_3 N 0.276378 0.870898 0.273937 0.0127 Uiso
N30_3 N 0.420050 0.898650 0.297244 0.0127 Uiso
Fe6_5 Fe 0.403308 1.000000 0.250000 0.0063 Uiso
Fe7_3 Fe 0.333333 0.868497 0.416667 0.0063 Uiso
N31_3 N 0.439857 0.834241 0.212864 0.0127 Uiso
N32_3 N 0.471479 0.904555 0.177383 0.0127 Uiso
N33_3 N 0.424698 0.879582 0.095655 0.0127 Uiso
N34_3 N 0.390717 0.805137 0.131522 0.0127 Uiso
C91_3 C 0.418426 0.822389 0.245038 0.0127 Uiso
C92_3 C 0.468367 0.833155 0.216516 0.0127 Uiso
C93_3 C 0.501706 0.920928 0.158629 0.0127 Uiso
C94_3 C 0.466545 0.918914 0.210964 0.0127 Uiso
C95_3 C 0.407797 0.894914 0.096121 0.0127 Uiso
C96_3 C 0.438337 0.879238 0.058024 0.0127 Uiso
C97_3 C 0.395834 0.792662 0.096184 0.0127 Uiso
C98_3 C 0.361905 0.786871 0.151438 0.0127 Uiso
C99_3 C 0.423817 0.809257 0.281486 0.0127 Uiso
C100_3 C 0.475354 0.820395 0.251978 0.0127 Uiso
C101_3 C 0.526822 0.951154 0.172764 0.0127 Uiso
C102_3 C 0.491236 0.949524 0.226471 0.0127 Uiso
C103_3 C 0.404322 0.909612 0.060255 0.0127 Uiso
C104_3 C 0.435498 0.893132 0.022870 0.0127 Uiso
C105_3 C 0.372693 0.762554 0.080951 0.0127 Uiso
C106_3 C 0.337023 0.755829 0.137725 0.0127 Uiso
O20_3 O 0.401219 0.797360 0.313799 0.0127 Uiso
C107_3 C 0.452769 0.808131 0.285332 0.0127 Uiso
O21_3 O 0.556054 0.964385 0.149950 0.0127 Uiso
C108_3 C 0.521590 0.965972 0.207618 0.0127 Uiso
O22_3 O 0.385181 0.925792 0.064418 0.0127 Uiso
C109_3 C 0.417835 0.909321 0.022750 0.0127 Uiso
O23_3 O 0.380744 0.751870 0.043380 0.0127 Uiso
C110_3 C 0.342453 0.743038 0.101116 0.0127 Uiso
C111_3 C 0.567313 0.990500 0.121445 0.0127 Uiso
C112_3 C 0.355995 0.909198 0.039381 0.0127 Uiso
C113_3 C 0.393658 0.735557 0.053259 0.0127 Uiso
C114_3 C 0.573764 0.981688 0.079391 0.0127 Uiso
O25_3 O 0.353525 0.888764 0.013375 0.0127 Uiso
C115_3 C 0.327655 0.916929 0.044983 0.0127 Uiso
O26_3 O 0.380277 0.709427 0.083218 0.0127 Uiso
C116_3 C 0.427889 0.746660 0.028616 0.0127 Uiso
H1_3 H 0.132989 0.742191 0.13694 . .
H3_3 H 0.284887 0.926 0.25189 . .
H4_3 H 0.245981 0.915735 0.274335 . .
H5_3 H 0.256493 0.884263 0.266281 . .
H12_3 H 0.346159 0.756262 0.337822 . .
H13_3 H 0.373579 0.771621 0.294752 . .
H14_3 H 0.339532 0.778849 0.298183 . .
H15_3 H 0.0879074 0.800715 0.131848 . .
H19_3 H 0.0753781 0.694352 0.155504 . .
H21_3 H 0.0738952 0.651613 0.256792 . .
H22_3 H 0.0723148 0.641008 0.309934 . .
H23_3 H 0.0604575 0.670301 0.294363 . .
H25_3 H 0.170424 0.828907 0.213106 . .
H27_3 H 0.172779 0.780276 0.189136 . .
H28_3 H 0.104445 0.83757 0.199046 . .
H31_3 H 0.0626443 0.669877 0.231024 . .
H40_3 H 0.541081 0.989799 0.21926 . .
H41_3 H 0.55093 0.961103 0.0670519 . .
H43_3 H 0.592666 0.974446 0.0814431 . .
H44_3 H 0.498511 0.819939 0.253818 . .
H45_3 H 0.458 0.798175 0.313005 . .
H46_3 H 0.313974 0.74189 0.155011 . .
H47_3 H 0.379732 0.778786 0.303767 . .
H49_3 H 0.506236 0.909812 0.131557 . .
H50_3 H 0.396226 0.896317 0.124767 . .
H51_3 H 0.486249 0.960243 0.253592 . .
H52_3 H 0.486269 0.84243 0.191263 . .
H53_3 H 0.452705 0.866603 0.0565472 . .
H54_3 H 0.323904 0.718955 0.088965 . .
H56_3 H 0.39541 0.823064 0.242543 . .
H57_3 H 0.419106 0.807122 0.0795009 . .
H58_3 H 0.442545 0.906233 0.226473 . .
H59_3 H 0.357654 0.796766 0.179868 . .
H60_3 H 0.336968 0.943177 0.0389707 . .
H61_3 H 0.307675 0.902027 0.0233992 . .
H62_3 H 0.31828 0.911051 0.0765417 . .
H63_3 H 0.445516 0.77265 0.0351508 . .
H64_3 H 0.438287 0.731375 0.0385814 . .
H66_3 H 0.134048 0.754574 0.0348189 . .
H67_3 H 0.252769 0.786039 0.276786 . .
H69_3 H 0.227554 0.690987 0.153465 . .
H70_3 H 0.192673 0.819582 0.0797418 . .
H71_3 H 0.222504 0.780619 0.338761 . .
H72_3 H 0.0276849 0.742045 0.0111624 . .
H74_3 H 0.202979 0.775878 0.10686 . .
H75_3 H 0.166576 0.729559 0.208566 . .
H77_3 H 0.345239 0.831845 0.0795153 . .
H78_3 H 0.035055 0.660356 0.0528849 . .
H79_3 H 0.26309 0.839569 0.201777 . .
H80_3 H 0.23875 0.647307 0.178322 . .
H81_3 H 0.239013 0.728743 0.0907907 . .
H82_3 H 0.0755245 0.799656 0.0297267 . .
H84_3 H 0.310506 0.819602 0.14207 . .
H86_3 H 0.27865 0.752439 0.253832 . .
H88_3 H 0.249009 0.731153 0.00887849 . .
H90_3 H 0.217949 0.874414 0.114073 . .
H91_3 H 0.160412 0.748082 0.338125 . .
H92_3 H 0.271616 0.657237 0.244368 . .
H94_3 H 0.326492 0.791334 0.0203286 . .
N3_3 N 0.133631 0.670497 0.976832 0.0127 Uiso
Fe3_3 Fe 0.131503 0.666667 0.916667 0.0063 Uiso
N15_3 N 0.082965 0.631308 0.920465 0.0127 Uiso
N16_3 N 0.145085 0.631801 0.921629 0.0127 Uiso
C21_3 C 0.071318 0.607749 0.950748 0.0127 Uiso
C22_3 C 0.060400 0.630169 0.892525 0.0127 Uiso
C23_3 C 0.132410 0.604687 0.896900 0.0127 Uiso
C24_3 C 0.167889 0.635165 0.950802 0.0127 Uiso
C33_3 C 0.151526 0.795194 0.992917 0.0127 Uiso
C34_3 C 0.118663 0.820642 0.989949 0.0127 Uiso
C37_3 C 0.038422 0.583679 0.953573 0.0127 Uiso
C38_3 C 0.027565 0.606740 0.894174 0.0127 Uiso
C39_3 C 0.142088 0.581303 0.900922 0.0127 Uiso
C40_3 C 0.178214 0.612295 0.955799 0.0127 Uiso
O5_3 O 0.178422 0.793245 0.980178 0.0127 Uiso
C45_3 C 0.145604 0.819502 0.976538 0.0127 Uiso
O7_3 O 0.029425 0.560635 0.986364 0.0127 Uiso
C47_3 C 0.015596 0.582613 0.925103 0.0127 Uiso
O8_3 O 0.127928 0.553664 0.874196 0.0127 Uiso
C48_3 C 0.165236 0.584748 0.930559 0.0127 Uiso
C53_3 C 0.106152 0.523276 0.891059 0.0127 Uiso
O13_3 O 0.088354 0.520569 0.920196 0.0127 Uiso
C58_3 C 0.104219 0.491994 0.872735 0.0127 Uiso
N21_3 N 0.118324 0.702025 0.912868 0.0127 Uiso
N22_3 N 0.179951 0.701532 0.911704 0.0127 Uiso
N23_3 N 0.129801 0.662836 0.856501 0.0127 Uiso
C64_3 C 0.130236 0.725584 0.882585 0.0127 Uiso
C65_3 C 0.096898 0.703164 0.940808 0.0127 Uiso
C66_3 C 0.194390 0.728646 0.936433 0.0127 Uiso
C67_3 C 0.199391 0.698168 0.882531 0.0127 Uiso
C72_3 C 0.121410 0.749654 0.879760 0.0127 Uiso
C73_3 C 0.087492 0.726593 0.939159 0.0127 Uiso
C74_3 C 0.227452 0.752030 0.932411 0.0127 Uiso
C75_3 C 0.232586 0.721038 0.877534 0.0127 Uiso
O16_3 O 0.135457 0.772698 0.846969 0.0127 Uiso
C85_3 C 0.099650 0.750720 0.908230 0.0127 Uiso
O17_3 O 0.240931 0.779669 0.959137 0.0127 Uiso
C86_3 C 0.247155 0.748585 0.902774 0.0127 Uiso
C87_3 C 0.114825 0.778451 0.822721 0.0127 Uiso
C88_3 C 0.249543 0.810057 0.942274 0.0127 Uiso
O18_3 O 0.087819 0.756391 0.812131 0.0127 Uiso
C89_3 C 0.126082 0.813335 0.808760 0.0127 Uiso
O19_3 O 0.234452 0.812764 0.913137 0.0127 Uiso
C90_3 C 0.278892 0.841339 0.960598 0.0127 Uiso
H2_3 H 0.147365 0.725322 0.859809 . .
H6_3 H 0.0869439 0.684647 0.965347 . .
H7_3 H 0.188141 0.676484 0.862401 . .
H11_3 H 0.179544 0.732001 0.959949 . .
H16_3 H 0.128399 0.493727 0.8752 . .
H17_3 H 0.0858564 0.470267 0.889657 . .
H18_3 H 0.0970266 0.489734 0.840312 . .
H24_3 H 0.247145 0.71738 0.853895 . .
H26_3 H 0.0703344 0.726467 0.962195 . .
H32_3 H 0.0923674 0.769607 0.906499 . .
H33_3 H 0.273341 0.767111 0.899588 . .
H34_3 H 0.301339 0.839606 0.958133 . .
H35_3 H 0.282257 0.863067 0.943676 . .
H36_3 H 0.27396 0.8436 0.993022 . .
H37_3 H 0.148769 0.822586 0.790664 . .
H38_3 H 0.106803 0.813518 0.789816 . .
H39_3 H 0.13083 0.829178 0.835685 . .
H48_3 H 0.414748 0.921003 0.995208 . .
H55_3 H 0.447286 0.891448 0.994572 . .
H65_3 H 0.422929 0.743437 0.995512 . .
H68_3 H 0.114211 0.601333 0.873384 . .
H73_3 H 0.0689639 0.648687 0.867986 . .
H76_3 H 0.178324 0.65685 0.970933 . .
H83_3 H 0.0887096 0.608012 0.973524 . .
H85_3 H 0.113609 0.839446 0.977531 . .
H87_3 H 0.170903 0.771111 0.967621 . .
H95_3 H 0.16224 0.837091 0.953561 . .
H96_3 H 0.172896 0.566222 0.933745 . .
H97_3 H 0.0105341 0.606866 0.871138 . .
H98_3 H 0.0032105 0.729311 0.935643 . .
H99_3 H 0.196431 0.615953 0.979438 . .
O12_3 O 0.998094 0.576942 0.021202 0.0127 Uiso
C57_3 C 0.979413 0.519998 0.024573 0.0127 Uiso
C71_3 C 0.983447 0.668887 0.164611 0.0127 Uiso
C84_3 C 0.996664 0.655225 0.192066 0.0127 Uiso
H8_3 H 0.99285 0.510747 0.0426694 . .
H9_3 H 0.959951 0.519815 0.0435173 . .
H20_3 H 0.993689 0.701722 0.113782 . .
H29_3 H 0.981039 0.637607 0.215677 . .
H30_3 H 0.957416 0.662097 0.166493 . .
H89_3 H 0.99543 0.624083 0.000173759 . .
C35_3 C 0.997856 0.696976 0.977895 0.0127 Uiso
O6_3 O 0.984881 0.710899 0.951316 0.0127 Uiso
C46_3 C 0.988558 0.663331 0.974601 0.0127 Uiso
H10_3 H 0.968319 0.504156 0.997648 . .
H93_3 H 0.970941 0.647706 0.950989 . .
H100_3 H 0.989428 0.563727 0.926834 . .
N26_4 N 0.463134 0.133631 0.023168 0.0127 Uiso
Fe7_4 Fe 0.464836 0.131503 0.083334 0.0063 Uiso
H12_4 H 0.577071 0.256563 0.00448831 . .
H71_4 H 0.552714 0.108552 0.0054278 . .
H91_4 H 0.585252 0.0789966 0.00479198 . .
Nb1_4 Nb 0.655242 0.133058 0.745587 0.0063 Uiso
C1_4 C 0.623309 0.136623 0.791497 0.0127 Uiso
C2_4 C 0.633779 0.080136 0.742403 0.0127 Uiso
C3_4 C 0.661168 0.130788 0.679385 0.0127 Uiso
C4_4 C 0.693909 0.177126 0.774343 0.0127 Uiso
C5_4 C 0.655141 0.176474 0.719969 0.0127 Uiso
C6_4 C 0.665740 0.117283 0.805392 0.0127 Uiso
C7_4 C 0.699973 0.130494 0.733429 0.0127 Uiso
C8_4 C 0.606155 0.113151 0.717940 0.0127 Uiso
N1_4 N 0.605372 0.138090 0.814254 0.0127 Uiso
N2_4 N 0.622519 0.051672 0.742208 0.0127 Uiso
N3_4 N 0.662836 0.129801 0.643499 0.0127 Uiso
N4_3 N 0.714591 0.199715 0.791254 0.0127 Uiso
N5_4 N 0.655053 0.199465 0.706858 0.0127 Uiso
N6_4 N 0.670681 0.108573 0.836986 0.0127 Uiso
N7_4 N 0.723622 0.129102 0.726063 0.0127 Uiso
N8_4 N 0.579950 0.101350 0.702756 0.0127 Uiso
Fe1_4 Fe 0.569299 0.144652 0.845604 0.0063 Uiso
Fe2_4 Fe 0.596691 -0.000000 0.750000 0.0063 Uiso
Fe3_4 Fe 0.666666 0.131503 0.583334 0.0063 Uiso
N9_4 N 0.560143 0.165759 0.787136 0.0127 Uiso
N10_4 N 0.528521 0.095445 0.822617 0.0127 Uiso
N11_4 N 0.575302 0.120418 0.904345 0.0127 Uiso
N12_4 N 0.609283 0.194863 0.868478 0.0127 Uiso
N15_4 N 0.702025 0.118324 0.587132 0.0127 Uiso
N16_4 N 0.701532 0.179951 0.588296 0.0127 Uiso
C9_4 C 0.581574 0.177611 0.754962 0.0127 Uiso
C10_4 C 0.531633 0.166845 0.783484 0.0127 Uiso
C11_4 C 0.498294 0.079072 0.841371 0.0127 Uiso
C12_4 C 0.533455 0.081086 0.789036 0.0127 Uiso
C13_4 C 0.592203 0.105086 0.903879 0.0127 Uiso
C14_4 C 0.561663 0.120762 0.941976 0.0127 Uiso
C15_4 C 0.604166 0.207338 0.903816 0.0127 Uiso
C16_4 C 0.638095 0.213129 0.848562 0.0127 Uiso
C17_4 C 0.559773 0.022520 0.688722 0.0127 Uiso
C20_4 C 0.662643 0.020431 0.698219 0.0127 Uiso
C21_4 C 0.725584 0.130236 0.617415 0.0127 Uiso
C22_4 C 0.703164 0.096898 0.559192 0.0127 Uiso
C23_4 C 0.728646 0.194390 0.563567 0.0127 Uiso
C24_4 C 0.698168 0.199391 0.617469 0.0127 Uiso
C25_4 C 0.576183 0.190743 0.718514 0.0127 Uiso
C26_4 C 0.524646 0.179605 0.748022 0.0127 Uiso
C27_4 C 0.473178 0.048846 0.827236 0.0127 Uiso
C28_4 C 0.508764 0.050476 0.773529 0.0127 Uiso
C29_4 C 0.595678 0.090388 0.939745 0.0127 Uiso
C30_4 C 0.564502 0.106868 0.977130 0.0127 Uiso
C31_4 C 0.627307 0.237446 0.919049 0.0127 Uiso
C32_4 C 0.662977 0.244171 0.862275 0.0127 Uiso
C33_4 C 0.538139 0.022999 0.659584 0.0127 Uiso
C36_4 C 0.683219 0.018773 0.668723 0.0127 Uiso
C37_4 C 0.749654 0.121410 0.620240 0.0127 Uiso
C38_4 C 0.726593 0.087492 0.560841 0.0127 Uiso
C39_4 C 0.752030 0.227452 0.567589 0.0127 Uiso
C40_4 C 0.721038 0.232586 0.622466 0.0127 Uiso
O1_4 O 0.598781 0.202640 0.686201 0.0127 Uiso
C41_4 C 0.547231 0.191869 0.714668 0.0127 Uiso
O2_4 O 0.443946 0.035615 0.850050 0.0127 Uiso
C42_4 C 0.478410 0.034028 0.792382 0.0127 Uiso
O3_4 O 0.614819 0.074208 0.935582 0.0127 Uiso
C43_4 C 0.582165 0.090679 0.977250 0.0127 Uiso
O4_4 O 0.619256 0.248130 0.956620 0.0127 Uiso
C44_4 C 0.657547 0.256962 0.898884 0.0127 Uiso
O5_4 O 0.540088 0.051844 0.646845 0.0127 Uiso
O7_4 O 0.772698 0.135457 0.653031 0.0127 Uiso
C47_4 C 0.750720 0.099650 0.591770 0.0127 Uiso
O8_4 O 0.779669 0.240931 0.540863 0.0127 Uiso
C48_4 C 0.748585 0.247155 0.597226 0.0127 Uiso
C49_4 C 0.432687 0.009500 0.878555 0.0127 Uiso
C50_4 C 0.644005 0.090802 0.960619 0.0127 Uiso
C51_4 C 0.606342 0.264443 0.946741 0.0127 Uiso
C52_4 C 0.778451 0.114825 0.677279 0.0127 Uiso
C53_4 C 0.810057 0.249543 0.557726 0.0127 Uiso
C54_4 C 0.426236 0.018312 0.920609 0.0127 Uiso
O10_4 O 0.646475 0.111236 0.986625 0.0127 Uiso
C55_4 C 0.672345 0.083071 0.955017 0.0127 Uiso
O11_4 O 0.619723 0.290573 0.916782 0.0127 Uiso
C56_4 C 0.572111 0.253340 0.971384 0.0127 Uiso
O12_4 O 0.756391 0.087819 0.687869 0.0127 Uiso
C57_4 C 0.813335 0.126082 0.691240 0.0127 Uiso
O13_4 O 0.812764 0.234452 0.586863 0.0127 Uiso
C58_4 C 0.841339 0.278892 0.539402 0.0127 Uiso
Fe4_3 Fe 0.757981 0.235966 0.821063 0.0063 Uiso
N17_4 N 0.533048 0.151790 0.875413 0.0127 Uiso
N18_4 N 0.564171 0.005448 0.797782 0.0127 Uiso
N19_4 N 0.632967 0.003019 0.798226 0.0127 Uiso
N21_4 N 0.631308 0.082965 0.579535 0.0127 Uiso
N22_4 N 0.631801 0.145085 0.578371 0.0127 Uiso
N23_4 N 0.670497 0.133631 0.523168 0.0127 Uiso
C59_4 C 0.510459 0.149883 0.892324 0.0127 Uiso
C61_4 C 0.569639 0.034375 0.813746 0.0127 Uiso
C62_4 C 0.646254 0.028842 0.824817 0.0127 Uiso
C64_4 C 0.607749 0.071318 0.549252 0.0127 Uiso
C65_4 C 0.630169 0.060400 0.607475 0.0127 Uiso
C66_4 C 0.604687 0.132410 0.603100 0.0127 Uiso
C67_4 C 0.635165 0.167889 0.549198 0.0127 Uiso
Nb2_4 Nb 0.466391 0.144482 0.921080 0.0063 Uiso
C69_4 C 0.548004 0.035312 0.843384 0.0127 Uiso
C70_4 C 0.668811 0.032453 0.855438 0.0127 Uiso
C72_4 C 0.583679 0.038422 0.546427 0.0127 Uiso
C73_4 C 0.606740 0.027565 0.605826 0.0127 Uiso
C74_4 C 0.581303 0.142088 0.599078 0.0127 Uiso
C75_4 C 0.612295 0.178214 0.544201 0.0127 Uiso
C76_4 C 0.469956 0.179980 0.875170 0.0127 Uiso
C77_4 C 0.413469 0.113023 0.924264 0.0127 Uiso
C78_4 C 0.464121 0.136286 0.987282 0.0127 Uiso
C79_4 C 0.509807 0.187999 0.946698 0.0127 Uiso
C80_4 C 0.450616 0.118209 0.861275 0.0127 Uiso
C81_4 C 0.463827 0.097187 0.933238 0.0127 Uiso
C82_4 C 0.446484 0.173662 0.948727 0.0127 Uiso
C83_4 C 0.521063 0.007231 0.856795 0.0127 Uiso
O15_4 O 0.681786 0.059351 0.882017 0.0127 Uiso
C84_4 C 0.678109 0.008106 0.858732 0.0127 Uiso
O16_4 O 0.560635 0.029425 0.513636 0.0127 Uiso
C85_4 C 0.582613 0.015596 0.574897 0.0127 Uiso
O17_4 O 0.553664 0.127928 0.625804 0.0127 Uiso
C86_4 C 0.584748 0.165236 0.569441 0.0127 Uiso
N24_4 N 0.471423 0.199384 0.852413 0.0127 Uiso
N25_4 N 0.385005 0.095819 0.924459 0.0127 Uiso
N27_4 N 0.532798 0.211078 0.959809 0.0127 Uiso
N28_4 N 0.441906 0.104558 0.829681 0.0127 Uiso
N29_4 N 0.462435 0.072146 0.940604 0.0127 Uiso
N30_4 N 0.434683 0.188066 0.963911 0.0127 Uiso
C87_4 C 0.554882 0.003040 0.489388 0.0127 Uiso
C88_4 C 0.523276 0.106152 0.608941 0.0127 Uiso
Fe5_2 Fe 0.477985 0.242019 0.821063 0.0063 Uiso
Fe6_6 Fe 0.333334 0.069975 0.916666 0.0063 Uiso
O19_4 O 0.520569 0.088354 0.579804 0.0127 Uiso
C90_4 C 0.491994 0.104219 0.627265 0.0127 Uiso
N31_4 N 0.499092 0.272282 0.879531 0.0127 Uiso
N32_4 N 0.428778 0.233590 0.844050 0.0127 Uiso
N33_4 N 0.453751 0.211782 0.762322 0.0127 Uiso
N34_4 N 0.528196 0.252246 0.798189 0.0127 Uiso
N35_2 N 0.485123 0.285409 0.791254 0.0127 Uiso
C91_4 C 0.510944 0.262703 0.911705 0.0127 Uiso
C92_4 C 0.500178 0.301878 0.883183 0.0127 Uiso
C93_4 C 0.412405 0.247444 0.825296 0.0127 Uiso
C94_4 C 0.414419 0.214297 0.877631 0.0127 Uiso
C95_4 C 0.438419 0.179549 0.762788 0.0127 Uiso
C96_4 C 0.454095 0.225765 0.724691 0.0127 Uiso
C97_4 C 0.540671 0.269838 0.762851 0.0127 Uiso
C98_4 C 0.546462 0.241700 0.818105 0.0127 Uiso
C99_4 C 0.524076 0.281226 0.948153 0.0127 Uiso
C100_4 C 0.512938 0.321625 0.918645 0.0127 Uiso
C101_4 C 0.382179 0.242334 0.839431 0.0127 Uiso
C102_4 C 0.383809 0.208378 0.893138 0.0127 Uiso
C103_4 C 0.423721 0.161376 0.726922 0.0127 Uiso
C104_4 C 0.440201 0.209032 0.689537 0.0127 Uiso
C105_4 C 0.570779 0.276805 0.747618 0.0127 Uiso
C106_4 C 0.577504 0.247860 0.804392 0.0127 Uiso
O20_4 O 0.535973 0.270525 0.980466 0.0127 Uiso
C107_4 C 0.525202 0.311304 0.951999 0.0127 Uiso
O21_4 O 0.368948 0.258335 0.816617 0.0127 Uiso
C108_4 C 0.367361 0.222284 0.874285 0.0127 Uiso
O22_4 O 0.407541 0.126055 0.731085 0.0127 Uiso
C109_4 C 0.424012 0.175180 0.689417 0.0127 Uiso
O23_4 O 0.581463 0.295540 0.710047 0.0127 Uiso
C110_4 C 0.590295 0.266081 0.767783 0.0127 Uiso
C111_4 C 0.342833 0.243479 0.788112 0.0127 Uiso
C112_4 C 0.424135 0.113463 0.706048 0.0127 Uiso
C113_4 C 0.597776 0.324767 0.719926 0.0127 Uiso
O24_4 O 0.314860 0.219354 0.799018 0.0127 Uiso
C114_4 C 0.351645 0.258742 0.746058 0.0127 Uiso
O25_4 O 0.444569 0.131427 0.680042 0.0127 Uiso
C115_4 C 0.416404 0.077392 0.711650 0.0127 Uiso
O26_4 O 0.623906 0.337516 0.749885 0.0127 Uiso
C116_4 C 0.586673 0.347895 0.695283 0.0127 Uiso
H1_4 H 0.591142 0.0574644 0.803607 . .
H2_4 H 0.608012 0.0887096 0.526476 . .
H3_4 H 0.407334 0.0255541 0.918557 . .
H5_4 H 0.44907 0.0388972 0.932948 . .
H6_4 H 0.648687 0.0689639 0.632014 . .
H7_4 H 0.65685 0.178324 0.529067 . .
H8_4 H 0.822586 0.148769 0.709336 . .
H9_4 H 0.813518 0.106803 0.710184 . .
H10_4 H 0.829178 0.13083 0.664315 . .
H11_4 H 0.601333 0.114211 0.626616 . .
H13_4 H 0.561713 0.268625 0.961419 . .
H14_4 H 0.554484 0.22735 0.964849 . .
H16_4 H 0.839606 0.301339 0.541867 . .
H17_4 H 0.863067 0.282257 0.556324 . .
H18_4 H 0.8436 0.27396 0.506978 . .
H19_4 H 0.638982 0.0476932 0.822171 . .
H21_4 H 0.68172 0.0889487 0.923458 . .
H22_4 H 0.692325 0.0979732 0.976601 . .
H23_4 H 0.663032 0.0568229 0.961029 . .
H24_4 H 0.615953 0.196431 0.520562 . .
H25_4 H 0.504426 0.00818363 0.879773 . .
H26_4 H 0.606866 0.0105341 0.628862 . .
H27_4 H 0.553057 0.0591702 0.855803 . .
H29_4 H 0.695726 0.0100986 0.882344 . .
H31_4 H 0.663456 0.0594338 0.897691 . .
H33_4 H 0.566222 0.172896 0.566255 . .
H34_4 H 0.493727 0.128399 0.6248 . .
H35_4 H 0.470267 0.0858564 0.610343 . .
H36_4 H 0.489734 0.0970266 0.659688 . .
H40_4 H 0.343535 0.217949 0.885927 . .
H41_4 H 0.372231 0.256493 0.733719 . .
H42_4 H 0.330246 0.245981 0.725665 . .
H43_4 H 0.358887 0.284887 0.74811 . .
H44_4 H 0.513395 0.345239 0.920485 . .
H45_4 H 0.535158 0.326492 0.979671 . .
H46_4 H 0.591443 0.23875 0.821678 . .
H47_4 H 0.554547 0.267612 0.970434 . .
H48_4 H 0.41233 0.160412 0.661875 . .
H49_4 H 0.423521 0.26309 0.798223 . .
H50_4 H 0.437017 0.166576 0.791434 . .
H51_4 H 0.37309 0.192673 0.920258 . .
H52_4 H 0.490904 0.310506 0.85793 . .
H53_4 H 0.46673 0.252769 0.723214 . .
H54_4 H 0.614378 0.271616 0.755632 . .
H55_4 H 0.441885 0.222504 0.661239 . .
H56_4 H 0.51027 0.239013 0.909209 . .
H57_4 H 0.526211 0.27865 0.746168 . .
H58_4 H 0.4271 0.202979 0.89314 . .
H59_4 H 0.536567 0.227554 0.846535 . .
H60_4 H 0.390156 0.0604575 0.705637 . .
H61_4 H 0.431307 0.0723148 0.690066 . .
H62_4 H 0.422282 0.0738952 0.743208 . .
H63_4 H 0.560683 0.339532 0.701817 . .
H64_4 H 0.601958 0.373579 0.705248 . .
H65_4 H 0.589897 0.346159 0.662178 . .
H66_4 H 0.578759 0.046141 0.701486 . .
H67_4 H 0.547295 0.133397 0.943453 . .
H68_4 H 0.732001 0.179544 0.540051 . .
H69_4 H 0.642346 0.203234 0.820132 . .
H70_4 H 0.513751 0.0397571 0.746408 . .
H73_4 H 0.684647 0.0869439 0.534653 . .
H74_4 H 0.557455 0.0937671 0.773527 . .
H75_4 H 0.603774 0.103683 0.875233 . .
H76_4 H 0.676484 0.188141 0.637599 . .
H77_4 H 0.501489 0.180061 0.746182 . .
H78_4 H 0.672978 0.0413661 0.719552 . .
H79_4 H 0.493764 0.0901878 0.868443 . .
H80_4 H 0.686026 0.25811 0.844989 . .
H81_4 H 0.60459 0.176936 0.757457 . .
H83_4 H 0.725322 0.147365 0.640191 . .
H84_4 H 0.513731 0.15757 0.808737 . .
H86_4 H 0.580894 0.192878 0.920499 . .
H87_4 H 0.562222 0.0664585 0.634287 . .
H88_4 H 0.60218 0.184523 0.675545 . .
H89_4 H 0.709251 0.0380143 0.66684 . .
H90_4 H 0.458919 0.0102013 0.78074 . .
H92_4 H 0.676096 0.281045 0.911035 . .
H94_4 H 0.542 0.201825 0.686995 . .
H96_4 H 0.767111 0.273341 0.600412 . .
H97_4 H 0.726467 0.0703344 0.537805 . .
H99_4 H 0.71738 0.247145 0.646105 . .
H100_4 H 0.769607 0.0923674 0.593501 . .
Fe2_5 Fe 0.596691 1.000000 0.750000 0.0063 Uiso
N13_4 N 0.558722 0.994552 0.702218 0.0127 Uiso
N14_4 N 0.629947 0.996981 0.701774 0.0127 Uiso
C18_4 C 0.535263 0.965625 0.686254 0.0127 Uiso
C19_4 C 0.617411 0.971158 0.675183 0.0127 Uiso
C34_4 C 0.512691 0.964688 0.656616 0.0127 Uiso
C35_4 C 0.636357 0.967547 0.644562 0.0127 Uiso
C45_4 C 0.513831 0.992769 0.643205 0.0127 Uiso
O6_4 O 0.622434 0.940649 0.617983 0.0127 Uiso
C46_4 C 0.670002 0.991894 0.641268 0.0127 Uiso
O9_4 O 0.428839 0.981527 0.867649 0.0127 Uiso
N20_4 N 0.570848 0.948328 0.757792 0.0127 Uiso
C60_4 C 0.537254 0.977480 0.811278 0.0127 Uiso
C63_4 C 0.642213 0.979569 0.801781 0.0127 Uiso
C68_4 C 0.515141 0.977001 0.840416 0.0127 Uiso
C71_4 C 0.664447 0.981227 0.831277 0.0127 Uiso
O14_4 O 0.488245 0.948156 0.853155 0.0127 Uiso
O18_4 O 0.576942 0.998094 0.478798 0.0127 Uiso
C89_4 C 0.519998 0.979413 0.475427 0.0127 Uiso
H4_4 H 0.417599 0.996913 0.941002 . .
H15_4 H 0.532618 0.953859 0.798514 . .
H20_4 H 0.631612 0.958634 0.780448 . .
H28_4 H 0.495763 0.933542 0.865713 . .
H30_4 H 0.671237 0.961986 0.83316 . .
H32_4 H 0.563727 0.989428 0.573166 . .
H37_4 H 0.510747 0.99285 0.457331 . .
H38_4 H 0.519815 0.959951 0.456483 . .
H39_4 H 0.504156 0.968319 0.502352 . .
H72_4 H 0.591289 0.952307 0.677829 . .
H82_4 H 0.533678 0.942536 0.696393 . .
H85_4 H 0.493887 0.94083 0.644197 . .
H93_4 H 0.685627 0.989901 0.617656 . .
H95_4 H 0.496243 0.991816 0.620227 . .
H98_4 H 0.604022 0.940566 0.602309 . .
Fe2_6 Fe 0.000000 0.596692 0.750000 0.0063 Uiso
N13_5 N 0.005448 0.564171 0.702218 0.0127 Uiso
N14_5 N 0.003019 0.632967 0.701774 0.0127 Uiso
C18_5 C 0.034375 0.569639 0.686254 0.0127 Uiso
C19_5 C 0.028842 0.646254 0.675183 0.0127 Uiso
C34_5 C 0.035312 0.548004 0.656616 0.0127 Uiso
C35_5 C 0.032453 0.668811 0.644562 0.0127 Uiso
C45_5 C 0.007231 0.521063 0.643205 0.0127 Uiso
O6_5 O 0.059351 0.681786 0.617983 0.0127 Uiso
C46_5 C 0.008106 0.678109 0.641268 0.0127 Uiso
O9_5 O 0.018473 0.447313 0.867649 0.0127 Uiso
N20_5 N 0.051672 0.622519 0.757792 0.0127 Uiso
C60_5 C 0.022520 0.559773 0.811278 0.0127 Uiso
C63_5 C 0.020431 0.662643 0.801781 0.0127 Uiso
C68_5 C 0.022999 0.538139 0.840416 0.0127 Uiso
C71_5 C 0.018773 0.683219 0.831277 0.0127 Uiso
O14_5 O 0.051844 0.540088 0.853155 0.0127 Uiso
O18_5 O 0.001906 0.578848 0.478798 0.0127 Uiso
C89_5 C 0.020587 0.540585 0.475427 0.0127 Uiso
H4_5 H 0.00308749 0.420686 0.941002 . .
H15_5 H 0.046141 0.578759 0.798514 . .
H20_5 H 0.0413661 0.672978 0.780448 . .
H28_5 H 0.0664585 0.562222 0.865713 . .
H30_5 H 0.0380143 0.709251 0.83316 . .
H32_5 H 0.0105724 0.574299 0.573166 . .
H37_5 H 0.00715032 0.517898 0.457331 . .
H38_5 H 0.0400489 0.559864 0.456483 . .
H39_5 H 0.0316813 0.535837 0.502352 . .
H72_5 H 0.0476932 0.638982 0.677829 . .
H82_5 H 0.0574644 0.591142 0.696393 . .
H85_5 H 0.0591702 0.553057 0.644197 . .
H93_5 H 0.0100986 0.695726 0.617656 . .
H95_5 H 0.00818363 0.504426 0.620227 . .
H98_5 H 0.0594338 0.663456 0.602309 . .
N26_5 N 0.866369 0.329503 0.023168 0.0127 Uiso
Fe7_5 Fe 0.868497 0.333334 0.083334 0.0063 Uiso
H12_5 H 0.743437 0.320508 0.00448831 . .
H71_5 H 0.891448 0.444162 0.0054278 . .
H91_5 H 0.921003 0.506255 0.00479198 . .
Nb1_5 Nb 0.866942 0.522185 0.745587 0.0063 Uiso
C1_5 C 0.863377 0.486687 0.791497 0.0127 Uiso
C2_5 C 0.919864 0.553644 0.742403 0.0127 Uiso
C3_5 C 0.869212 0.530381 0.679385 0.0127 Uiso
C4_5 C 0.822874 0.516784 0.774343 0.0127 Uiso
C5_5 C 0.823526 0.478668 0.719969 0.0127 Uiso
C6_5 C 0.882717 0.548458 0.805392 0.0127 Uiso
C7_5 C 0.869506 0.569480 0.733429 0.0127 Uiso
C8_5 C 0.886849 0.493005 0.717940 0.0127 Uiso
N1_5 N 0.861910 0.467283 0.814254 0.0127 Uiso
N2_5 N 0.948328 0.570848 0.742208 0.0127 Uiso
N3_5 N 0.870199 0.533036 0.643499 0.0127 Uiso
N4_4 N 0.800285 0.514877 0.791254 0.0127 Uiso
N5_5 N 0.800535 0.455589 0.706858 0.0127 Uiso
N6_5 N 0.891427 0.562109 0.836986 0.0127 Uiso
N7_5 N 0.870898 0.594521 0.726063 0.0127 Uiso
N8_5 N 0.898650 0.478601 0.702756 0.0127 Uiso
Fe1_5 Fe 0.855348 0.424648 0.845604 0.0063 Uiso
Fe2_7 Fe 1.000000 0.596692 0.750000 0.0063 Uiso
Fe3_5 Fe 0.868497 0.535164 0.583334 0.0063 Uiso
N9_5 N 0.834241 0.394385 0.787136 0.0127 Uiso
N10_5 N 0.904555 0.433077 0.822617 0.0127 Uiso
N11_5 N 0.879582 0.454885 0.904345 0.0127 Uiso
N12_5 N 0.805137 0.414421 0.868478 0.0127 Uiso
N15_5 N 0.881676 0.583702 0.587132 0.0127 Uiso
N16_5 N 0.820049 0.521582 0.588296 0.0127 Uiso
C9_5 C 0.822389 0.403964 0.754962 0.0127 Uiso
C10_5 C 0.833155 0.364789 0.783484 0.0127 Uiso
C11_5 C 0.920928 0.419223 0.841371 0.0127 Uiso
C12_5 C 0.918914 0.452370 0.789036 0.0127 Uiso
C13_5 C 0.894914 0.487118 0.903879 0.0127 Uiso
C14_5 C 0.879238 0.440902 0.941976 0.0127 Uiso
C15_5 C 0.792662 0.396829 0.903816 0.0127 Uiso
C16_5 C 0.786871 0.424967 0.848562 0.0127 Uiso
C17_5 C 0.977480 0.537254 0.688722 0.0127 Uiso
C20_5 C 0.979569 0.642213 0.698219 0.0127 Uiso
C21_5 C 0.869764 0.595349 0.617415 0.0127 Uiso
C22_5 C 0.903102 0.606267 0.559192 0.0127 Uiso
C23_5 C 0.805610 0.534257 0.563567 0.0127 Uiso
C24_5 C 0.800609 0.498778 0.617469 0.0127 Uiso
C25_5 C 0.809257 0.385441 0.718514 0.0127 Uiso
C26_5 C 0.820395 0.345042 0.748022 0.0127 Uiso
C27_5 C 0.951154 0.424333 0.827236 0.0127 Uiso
C28_5 C 0.949524 0.458289 0.773529 0.0127 Uiso
C29_5 C 0.909612 0.505291 0.939745 0.0127 Uiso
C30_5 C 0.893132 0.457635 0.977130 0.0127 Uiso
C31_5 C 0.762554 0.389862 0.919049 0.0127 Uiso
C32_5 C 0.755829 0.418807 0.862275 0.0127 Uiso
C33_5 C 0.977001 0.515141 0.659584 0.0127 Uiso
C36_5 C 0.981227 0.664447 0.668723 0.0127 Uiso
C37_5 C 0.878590 0.628245 0.620240 0.0127 Uiso
C38_5 C 0.912508 0.639102 0.560841 0.0127 Uiso
C39_5 C 0.772548 0.524579 0.567589 0.0127 Uiso
C40_5 C 0.767414 0.488453 0.622466 0.0127 Uiso
O1_5 O 0.797360 0.396142 0.686201 0.0127 Uiso
C41_5 C 0.808131 0.355363 0.714668 0.0127 Uiso
O2_5 O 0.964385 0.408332 0.850050 0.0127 Uiso
C42_5 C 0.965972 0.444383 0.792382 0.0127 Uiso
O3_5 O 0.925792 0.540612 0.935582 0.0127 Uiso
C43_5 C 0.909321 0.491487 0.977250 0.0127 Uiso
O4_5 O 0.751870 0.371127 0.956620 0.0127 Uiso
C44_5 C 0.743038 0.400586 0.898884 0.0127 Uiso
O5_5 O 0.948156 0.488245 0.646845 0.0127 Uiso
O7_5 O 0.864543 0.637242 0.653031 0.0127 Uiso
C47_5 C 0.900350 0.651071 0.591770 0.0127 Uiso
O8_5 O 0.759069 0.538739 0.540863 0.0127 Uiso
C48_5 C 0.752845 0.501431 0.597226 0.0127 Uiso
C49_5 C 0.990500 0.423188 0.878555 0.0127 Uiso
C50_5 C 0.909198 0.553204 0.960619 0.0127 Uiso
C51_5 C 0.735557 0.341900 0.946741 0.0127 Uiso
C52_5 C 0.885175 0.663627 0.677279 0.0127 Uiso
C53_5 C 0.750457 0.560515 0.557726 0.0127 Uiso
C54_5 C 0.981688 0.407925 0.920609 0.0127 Uiso
O10_5 O 0.888764 0.535240 0.986625 0.0127 Uiso
C55_5 C 0.916929 0.589275 0.955017 0.0127 Uiso
O11_5 O 0.709427 0.329151 0.916782 0.0127 Uiso
C56_5 C 0.746660 0.318772 0.971384 0.0127 Uiso
O12_5 O 0.912181 0.668573 0.687869 0.0127 Uiso
C57_5 C 0.873918 0.687254 0.691240 0.0127 Uiso
O13_5 O 0.765548 0.578313 0.586863 0.0127 Uiso
C58_5 C 0.721108 0.562448 0.539402 0.0127 Uiso
Fe4_4 Fe 0.764034 0.522015 0.821063 0.0063 Uiso
N17_5 N 0.848210 0.381258 0.875413 0.0127 Uiso
N18_5 N 0.994552 0.558722 0.797782 0.0127 Uiso
N19_5 N 0.996981 0.629947 0.798226 0.0127 Uiso
N21_5 N 0.917035 0.548343 0.579535 0.0127 Uiso
N22_5 N 0.854915 0.486716 0.578371 0.0127 Uiso
N23_5 N 0.866369 0.536866 0.523168 0.0127 Uiso
C59_5 C 0.850117 0.360576 0.892324 0.0127 Uiso
C61_5 C 0.965625 0.535263 0.813746 0.0127 Uiso
C62_5 C 0.971158 0.617411 0.824817 0.0127 Uiso
C64_5 C 0.928682 0.536431 0.549252 0.0127 Uiso
C65_5 C 0.939600 0.569769 0.607475 0.0127 Uiso
C66_5 C 0.867590 0.472277 0.603100 0.0127 Uiso
C67_5 C 0.832111 0.467276 0.549198 0.0127 Uiso
Nb2_5 Nb 0.855518 0.321909 0.921080 0.0063 Uiso
C69_5 C 0.964688 0.512691 0.843384 0.0127 Uiso
C70_5 C 0.967547 0.636357 0.855438 0.0127 Uiso
C72_5 C 0.961578 0.545257 0.546427 0.0127 Uiso
C73_5 C 0.972435 0.579175 0.605826 0.0127 Uiso
C74_5 C 0.857912 0.439215 0.599078 0.0127 Uiso
C75_5 C 0.821786 0.434081 0.544201 0.0127 Uiso
C76_5 C 0.820020 0.289976 0.875170 0.0127 Uiso
C77_5 C 0.886977 0.300446 0.924264 0.0127 Uiso
C78_5 C 0.863714 0.327835 0.987282 0.0127 Uiso
C79_5 C 0.812001 0.321808 0.946698 0.0127 Uiso
C80_5 C 0.881791 0.332407 0.861275 0.0127 Uiso
C81_5 C 0.902813 0.366640 0.933238 0.0127 Uiso
C82_5 C 0.826338 0.272822 0.948727 0.0127 Uiso
C83_5 C 0.992769 0.513831 0.856795 0.0127 Uiso
O15_5 O 0.940649 0.622434 0.882017 0.0127 Uiso
C84_5 C 0.991894 0.670002 0.858732 0.0127 Uiso
O16_5 O 0.970575 0.531210 0.513636 0.0127 Uiso
C85_5 C 0.984404 0.567017 0.574897 0.0127 Uiso
O17_5 O 0.872072 0.425736 0.625804 0.0127 Uiso
C86_5 C 0.834764 0.419512 0.569441 0.0127 Uiso
N24_5 N 0.800616 0.272039 0.852413 0.0127 Uiso
N25_5 N 0.904181 0.289186 0.924459 0.0127 Uiso
N27_5 N 0.788922 0.321720 0.959809 0.0127 Uiso
N28_5 N 0.895442 0.337348 0.829681 0.0127 Uiso
N29_5 N 0.927854 0.390289 0.940604 0.0127 Uiso
N30_5 N 0.811934 0.246617 0.963911 0.0127 Uiso
C87_5 C 0.996960 0.551842 0.489388 0.0127 Uiso
C88_5 C 0.893848 0.417124 0.608941 0.0127 Uiso
Fe6_7 Fe 0.930025 0.263358 0.916666 0.0063 Uiso
O19_5 O 0.911646 0.432215 0.579804 0.0127 Uiso
C90_5 C 0.895781 0.387775 0.627265 0.0127 Uiso
N31_5 N 0.727718 0.226810 0.879531 0.0127 Uiso
N32_5 N 0.766410 0.195188 0.844050 0.0127 Uiso
N33_5 N 0.788218 0.241969 0.762322 0.0127 Uiso
N34_5 N 0.747754 0.275950 0.798189 0.0127 Uiso
C91_5 C 0.737297 0.248241 0.911705 0.0127 Uiso
C92_5 C 0.698122 0.198300 0.883183 0.0127 Uiso
C93_5 C 0.752556 0.164961 0.825296 0.0127 Uiso
C94_5 C 0.785703 0.200122 0.877631 0.0127 Uiso
C95_5 C 0.820451 0.258870 0.762788 0.0127 Uiso
C96_5 C 0.774235 0.228330 0.724691 0.0127 Uiso
C97_5 C 0.730162 0.270833 0.762851 0.0127 Uiso
C98_5 C 0.758300 0.304762 0.818105 0.0127 Uiso
C99_5 C 0.718774 0.242850 0.948153 0.0127 Uiso
C100_5 C 0.678375 0.191313 0.918645 0.0127 Uiso
C101_5 C 0.757666 0.139845 0.839431 0.0127 Uiso
C102_5 C 0.791622 0.175431 0.893138 0.0127 Uiso
C103_5 C 0.838624 0.262345 0.726922 0.0127 Uiso
C104_5 C 0.790968 0.231169 0.689537 0.0127 Uiso
C105_5 C 0.723195 0.293974 0.747618 0.0127 Uiso
C106_5 C 0.752140 0.329644 0.804392 0.0127 Uiso
O20_5 O 0.729475 0.265448 0.980466 0.0127 Uiso
C107_5 C 0.688696 0.213898 0.951999 0.0127 Uiso
O21_5 O 0.741665 0.110613 0.816617 0.0127 Uiso
C108_5 C 0.777716 0.145077 0.874285 0.0127 Uiso
O22_5 O 0.873945 0.281486 0.731085 0.0127 Uiso
C109_5 C 0.824820 0.248832 0.689417 0.0127 Uiso
O23_5 O 0.704460 0.285923 0.710047 0.0127 Uiso
C110_5 C 0.733919 0.324214 0.767783 0.0127 Uiso
C111_5 C 0.756521 0.099354 0.788112 0.0127 Uiso
C112_5 C 0.886537 0.310672 0.706048 0.0127 Uiso
C113_5 C 0.675233 0.273009 0.719926 0.0127 Uiso
O24_5 O 0.780646 0.095506 0.799018 0.0127 Uiso
C114_5 C 0.741258 0.092903 0.746058 0.0127 Uiso
O25_5 O 0.868573 0.313142 0.680042 0.0127 Uiso
C115_5 C 0.922608 0.339012 0.711650 0.0127 Uiso
O26_5 O 0.662484 0.286390 0.749885 0.0127 Uiso
C116_5 C 0.652105 0.238778 0.695283 0.0127 Uiso
H1_5 H 0.942536 0.533678 0.803607 . .
H2_5 H 0.91129 0.519302 0.526476 . .
H3_5 H 0.974446 0.38178 0.918557 . .
H5_5 H 0.961103 0.410173 0.932948 . .
H6_5 H 0.931036 0.579723 0.632014 . .
H7_5 H 0.821676 0.478526 0.529067 . .
H8_5 H 0.851231 0.673817 0.709336 . .
H9_5 H 0.893197 0.706716 0.710184 . .
H10_5 H 0.86917 0.698348 0.664315 . .
H11_5 H 0.885789 0.487122 0.626616 . .
H13_5 H 0.731375 0.293088 0.961419 . .
H14_5 H 0.77265 0.327135 0.964849 . .
H16_5 H 0.698661 0.538268 0.541867 . .
H17_5 H 0.717743 0.58081 0.556324 . .
H18_5 H 0.72604 0.56964 0.506978 . .
H19_5 H 0.952307 0.591289 0.822171 . .
H21_5 H 0.911051 0.592771 0.923458 . .
H22_5 H 0.902027 0.594352 0.976601 . .
H23_5 H 0.943177 0.606209 0.961029 . .
H24_5 H 0.803569 0.419522 0.520562 . .
H25_5 H 0.991816 0.496243 0.879773 . .
H26_5 H 0.989466 0.596332 0.628862 . .
H27_5 H 0.94083 0.493887 0.855803 . .
H29_5 H 0.989901 0.685627 0.882344 . .
H31_5 H 0.940566 0.604022 0.897691 . .
H33_5 H 0.827104 0.393326 0.566255 . .
H34_5 H 0.871601 0.365328 0.6248 . .
H35_5 H 0.914144 0.38441 0.610343 . .
H36_5 H 0.902973 0.392707 0.659688 . .
H40_5 H 0.782051 0.125586 0.885927 . .
H41_5 H 0.743507 0.115737 0.733719 . .
H42_5 H 0.754019 0.0842652 0.725665 . .
H43_5 H 0.715113 0.0740003 0.74811 . .
H44_5 H 0.654761 0.168155 0.920485 . .
H45_5 H 0.673508 0.208666 0.979671 . .
H46_5 H 0.76125 0.352693 0.821678 . .
H47_5 H 0.732388 0.286935 0.970434 . .
H48_5 H 0.839588 0.251918 0.661875 . .
H49_5 H 0.73691 0.160431 0.798223 . .
H50_5 H 0.833424 0.270441 0.791434 . .
H51_5 H 0.807327 0.180418 0.920258 . .
H52_5 H 0.689494 0.180398 0.85793 . .
H53_5 H 0.747231 0.213961 0.723214 . .
H54_5 H 0.728384 0.342763 0.755632 . .
H55_5 H 0.777496 0.219381 0.661239 . .
H56_5 H 0.760987 0.271257 0.909209 . .
H57_5 H 0.72135 0.247561 0.746168 . .
H58_5 H 0.797021 0.224122 0.89314 . .
H59_5 H 0.772446 0.309013 0.846535 . .
H60_5 H 0.939543 0.329699 0.705637 . .
H61_5 H 0.927685 0.358992 0.690066 . .
H62_5 H 0.926105 0.348387 0.743208 . .
H63_5 H 0.660468 0.221151 0.701817 . .
H64_5 H 0.626421 0.228379 0.705248 . .
H65_5 H 0.653841 0.243738 0.662178 . .
H66_5 H 0.953859 0.532618 0.701486 . .
H67_5 H 0.866603 0.413898 0.943453 . .
H68_5 H 0.820456 0.552456 0.540051 . .
H69_5 H 0.796766 0.439113 0.820132 . .
H70_5 H 0.960243 0.473994 0.746408 . .
H73_5 H 0.913056 0.597703 0.534653 . .
H74_5 H 0.906233 0.463688 0.773527 . .
H75_5 H 0.896317 0.500091 0.875233 . .
H76_5 H 0.811859 0.488343 0.637599 . .
H77_5 H 0.819939 0.321427 0.746182 . .
H78_5 H 0.958634 0.631612 0.719552 . .
H79_5 H 0.909812 0.403576 0.868443 . .
H80_5 H 0.74189 0.427917 0.844989 . .
H81_5 H 0.823064 0.427654 0.757457 . .
H83_5 H 0.852635 0.577957 0.640191 . .
H84_5 H 0.84243 0.356161 0.808737 . .
H86_5 H 0.807122 0.388016 0.920499 . .
H87_5 H 0.933542 0.495763 0.634287 . .
H88_5 H 0.815477 0.417657 0.675545 . .
H89_5 H 0.961986 0.671237 0.66684 . .
H90_5 H 0.989799 0.448718 0.78074 . .
H92_5 H 0.718955 0.395051 0.911035 . .
H94_5 H 0.798175 0.340175 0.686995 . .
H96_5 H 0.726659 0.493771 0.600412 . .
H97_5 H 0.929666 0.656133 0.537805 . .
H99_5 H 0.752855 0.470235 0.646105 . .
H100_5 H 0.907633 0.677239 0.593501 . .
N26_6 N 0.670497 0.536866 0.023168 0.0127 Uiso
Fe7_6 Fe 0.666666 0.535164 0.083334 0.0063 Uiso
H12_6 H 0.679492 0.422929 0.00448831 . .
H71_6 H 0.555838 0.447286 0.0054278 . .
H91_6 H 0.493745 0.414748 0.00479198 . .
Nb1_6 Nb 0.477815 0.344758 0.745587 0.0063 Uiso
C1_6 C 0.513313 0.376691 0.791497 0.0127 Uiso
C2_6 C 0.446356 0.366221 0.742403 0.0127 Uiso
C3_6 C 0.469619 0.338832 0.679385 0.0127 Uiso
C4_6 C 0.483216 0.306091 0.774343 0.0127 Uiso
C5_6 C 0.521332 0.344859 0.719969 0.0127 Uiso
C6_6 C 0.451542 0.334260 0.805392 0.0127 Uiso
C7_6 C 0.430520 0.300027 0.733429 0.0127 Uiso
C8_6 C 0.506995 0.393845 0.717940 0.0127 Uiso
N1_6 N 0.532717 0.394628 0.814254 0.0127 Uiso
N2_6 N 0.429152 0.377481 0.742208 0.0127 Uiso
N3_6 N 0.466964 0.337164 0.643499 0.0127 Uiso
N5_6 N 0.544411 0.344947 0.706858 0.0127 Uiso
N6_6 N 0.437891 0.329319 0.836986 0.0127 Uiso
N7_6 N 0.405479 0.276378 0.726063 0.0127 Uiso
N8_6 N 0.521399 0.420050 0.702756 0.0127 Uiso
Fe1_6 Fe 0.575352 0.430701 0.845604 0.0063 Uiso
Fe2_8 Fe 0.403308 0.403309 0.750000 0.0063 Uiso
Fe3_6 Fe 0.464836 0.333334 0.583334 0.0063 Uiso
N9_6 N 0.605615 0.439857 0.787136 0.0127 Uiso
N10_6 N 0.566923 0.471479 0.822617 0.0127 Uiso
N11_6 N 0.545115 0.424698 0.904345 0.0127 Uiso
N12_6 N 0.585579 0.390717 0.868478 0.0127 Uiso
N13_6 N 0.435829 0.441278 0.702218 0.0127 Uiso
N14_6 N 0.367033 0.370053 0.701774 0.0127 Uiso
N15_6 N 0.416298 0.297975 0.587132 0.0127 Uiso
N16_6 N 0.478418 0.298468 0.588296 0.0127 Uiso
C9_6 C 0.596036 0.418426 0.754962 0.0127 Uiso
C10_6 C 0.635211 0.468367 0.783484 0.0127 Uiso
C11_6 C 0.580777 0.501706 0.841371 0.0127 Uiso
C12_6 C 0.547630 0.466545 0.789036 0.0127 Uiso
C13_6 C 0.512882 0.407797 0.903879 0.0127 Uiso
C14_6 C 0.559098 0.438337 0.941976 0.0127 Uiso
C15_6 C 0.603171 0.395834 0.903816 0.0127 Uiso
C16_6 C 0.575033 0.361905 0.848562 0.0127 Uiso
C17_6 C 0.462746 0.440227 0.688722 0.0127 Uiso
C18_6 C 0.430361 0.464737 0.686254 0.0127 Uiso
C19_6 C 0.353746 0.382589 0.675183 0.0127 Uiso
C20_6 C 0.357787 0.337357 0.698219 0.0127 Uiso
C21_6 C 0.404651 0.274416 0.617415 0.0127 Uiso
C22_6 C 0.393733 0.296836 0.559192 0.0127 Uiso
C23_6 C 0.465743 0.271354 0.563567 0.0127 Uiso
C24_6 C 0.501222 0.301832 0.617469 0.0127 Uiso
C25_6 C 0.614559 0.423817 0.718514 0.0127 Uiso
C26_6 C 0.654958 0.475354 0.748022 0.0127 Uiso
C27_6 C 0.575667 0.526822 0.827236 0.0127 Uiso
C28_6 C 0.541711 0.491236 0.773529 0.0127 Uiso
C29_6 C 0.494709 0.404322 0.939745 0.0127 Uiso
C30_6 C 0.542365 0.435498 0.977130 0.0127 Uiso
C31_6 C 0.610138 0.372693 0.919049 0.0127 Uiso
C32_6 C 0.581193 0.337023 0.862275 0.0127 Uiso
C33_6 C 0.484859 0.461861 0.659584 0.0127 Uiso
C34_6 C 0.451996 0.487309 0.656616 0.0127 Uiso
C35_6 C 0.331189 0.363643 0.644562 0.0127 Uiso
C36_6 C 0.335553 0.316781 0.668723 0.0127 Uiso
C37_6 C 0.371755 0.250346 0.620240 0.0127 Uiso
C38_6 C 0.360898 0.273407 0.560841 0.0127 Uiso
C39_6 C 0.475421 0.247970 0.567589 0.0127 Uiso
C40_6 C 0.511547 0.278962 0.622466 0.0127 Uiso
O1_6 O 0.603858 0.401219 0.686201 0.0127 Uiso
C41_6 C 0.644637 0.452769 0.714668 0.0127 Uiso
O2_6 O 0.591668 0.556054 0.850050 0.0127 Uiso
C42_6 C 0.555617 0.521590 0.792382 0.0127 Uiso
O3_6 O 0.459388 0.385181 0.935582 0.0127 Uiso
C43_6 C 0.508513 0.417835 0.977250 0.0127 Uiso
O4_6 O 0.628873 0.380744 0.956620 0.0127 Uiso
C44_6 C 0.599414 0.342453 0.898884 0.0127 Uiso
O5_6 O 0.511755 0.459912 0.646845 0.0127 Uiso
C45_6 C 0.478937 0.486169 0.643205 0.0127 Uiso
O6_6 O 0.318214 0.377566 0.617983 0.0127 Uiso
C46_6 C 0.321891 0.329998 0.641268 0.0127 Uiso
O7_6 O 0.362758 0.227302 0.653031 0.0127 Uiso
C47_6 C 0.348929 0.249280 0.591770 0.0127 Uiso
O8_6 O 0.461261 0.220331 0.540863 0.0127 Uiso
C48_6 C 0.498569 0.251415 0.597226 0.0127 Uiso
C49_6 C 0.576812 0.567313 0.878555 0.0127 Uiso
C50_6 C 0.446796 0.355995 0.960619 0.0127 Uiso
C51_6 C 0.658100 0.393658 0.946741 0.0127 Uiso
C52_6 C 0.336373 0.221549 0.677279 0.0127 Uiso
C53_6 C 0.439485 0.189943 0.557726 0.0127 Uiso
O9_6 O 0.552687 0.571161 0.867649 0.0127 Uiso
C54_6 C 0.592075 0.573764 0.920609 0.0127 Uiso
O10_6 O 0.464760 0.353525 0.986625 0.0127 Uiso
C55_6 C 0.410725 0.327655 0.955017 0.0127 Uiso
O11_6 O 0.670849 0.380277 0.916782 0.0127 Uiso
C56_6 C 0.681228 0.427889 0.971384 0.0127 Uiso
O12_6 O 0.331427 0.243609 0.687869 0.0127 Uiso
C57_6 C 0.312746 0.186665 0.691240 0.0127 Uiso
O13_6 O 0.421687 0.187236 0.586863 0.0127 Uiso
C58_6 C 0.437552 0.158661 0.539402 0.0127 Uiso
N17_6 N 0.618742 0.466952 0.875413 0.0127 Uiso
N18_6 N 0.441278 0.435829 0.797782 0.0127 Uiso
N19_6 N 0.370053 0.367033 0.798226 0.0127 Uiso
N20_6 N 0.377481 0.429152 0.757792 0.0127 Uiso
N21_6 N 0.451657 0.368692 0.579535 0.0127 Uiso
N22_6 N 0.513284 0.368199 0.578371 0.0127 Uiso
N23_6 N 0.463134 0.329503 0.523168 0.0127 Uiso
C59_6 C 0.639424 0.489541 0.892324 0.0127 Uiso
C60_6 C 0.440227 0.462746 0.811278 0.0127 Uiso
C61_6 C 0.464737 0.430361 0.813746 0.0127 Uiso
C62_6 C 0.382589 0.353746 0.824817 0.0127 Uiso
C63_6 C 0.337357 0.357787 0.801781 0.0127 Uiso
C64_6 C 0.463569 0.392251 0.549252 0.0127 Uiso
C65_6 C 0.430231 0.369831 0.607475 0.0127 Uiso
C66_6 C 0.527723 0.395313 0.603100 0.0127 Uiso
C67_6 C 0.532724 0.364835 0.549198 0.0127 Uiso
Nb2_6 Nb 0.678091 0.533609 0.921080 0.0063 Uiso
C68_6 C 0.461861 0.484859 0.840416 0.0127 Uiso
C69_6 C 0.487309 0.451996 0.843384 0.0127 Uiso
C70_6 C 0.363643 0.331189 0.855438 0.0127 Uiso
C71_6 C 0.316781 0.335553 0.831277 0.0127 Uiso
C72_6 C 0.454743 0.416321 0.546427 0.0127 Uiso
C73_6 C 0.420825 0.393260 0.605826 0.0127 Uiso
C74_6 C 0.560785 0.418697 0.599078 0.0127 Uiso
C75_6 C 0.565919 0.387705 0.544201 0.0127 Uiso
C76_6 C 0.710024 0.530044 0.875170 0.0127 Uiso
C77_6 C 0.699554 0.586531 0.924264 0.0127 Uiso
C78_6 C 0.672165 0.535879 0.987282 0.0127 Uiso
C79_6 C 0.678192 0.490193 0.946698 0.0127 Uiso
C80_6 C 0.667593 0.549384 0.861275 0.0127 Uiso
C81_6 C 0.633360 0.536173 0.933238 0.0127 Uiso
C82_6 C 0.727178 0.553516 0.948727 0.0127 Uiso
O14_6 O 0.459912 0.511755 0.853155 0.0127 Uiso
C83_6 C 0.486169 0.478937 0.856795 0.0127 Uiso
O15_6 O 0.377566 0.318214 0.882017 0.0127 Uiso
C84_6 C 0.329998 0.321891 0.858732 0.0127 Uiso
O16_6 O 0.468790 0.439365 0.513636 0.0127 Uiso
C85_6 C 0.432983 0.417387 0.574897 0.0127 Uiso
O17_6 O 0.574264 0.446336 0.625804 0.0127 Uiso
C86_6 C 0.580488 0.415252 0.569441 0.0127 Uiso
N24_6 N 0.727961 0.528577 0.852413 0.0127 Uiso
N25_6 N 0.710814 0.614995 0.924459 0.0127 Uiso
N27_6 N 0.678280 0.467202 0.959809 0.0127 Uiso
N28_6 N 0.662652 0.558094 0.829681 0.0127 Uiso
N29_6 N 0.609711 0.537565 0.940604 0.0127 Uiso
N30_6 N 0.753383 0.565317 0.963911 0.0127 Uiso
C87_6 C 0.448158 0.445118 0.489388 0.0127 Uiso
C88_6 C 0.582876 0.476724 0.608941 0.0127 Uiso
Fe6_8 Fe 0.736642 0.666666 0.916666 0.0063 Uiso
O18_6 O 0.421152 0.423058 0.478798 0.0127 Uiso
C89_6 C 0.459415 0.480002 0.475427 0.0127 Uiso
O19_6 O 0.567785 0.479431 0.579804 0.0127 Uiso
C90_6 C 0.612225 0.508006 0.627265 0.0127 Uiso
N31_6 N 0.773190 0.500908 0.879531 0.0127 Uiso
N32_6 N 0.804812 0.571222 0.844050 0.0127 Uiso
N33_6 N 0.758031 0.546249 0.762322 0.0127 Uiso
N34_6 N 0.724050 0.471804 0.798189 0.0127 Uiso
C91_6 C 0.751759 0.489056 0.911705 0.0127 Uiso
C92_6 C 0.801700 0.499822 0.883183 0.0127 Uiso
C93_6 C 0.835039 0.587595 0.825296 0.0127 Uiso
C94_6 C 0.799878 0.585581 0.877631 0.0127 Uiso
C95_6 C 0.741130 0.561581 0.762788 0.0127 Uiso
C96_6 C 0.771670 0.545905 0.724691 0.0127 Uiso
C97_6 C 0.729167 0.459329 0.762851 0.0127 Uiso
C98_6 C 0.695238 0.453538 0.818105 0.0127 Uiso
C99_6 C 0.757150 0.475924 0.948153 0.0127 Uiso
C100_6 C 0.808687 0.487062 0.918645 0.0127 Uiso
C101_6 C 0.860155 0.617821 0.839431 0.0127 Uiso
C102_6 C 0.824569 0.616191 0.893138 0.0127 Uiso
C103_6 C 0.737655 0.576279 0.726922 0.0127 Uiso
C104_6 C 0.768831 0.559799 0.689537 0.0127 Uiso
C105_6 C 0.706026 0.429221 0.747618 0.0127 Uiso
C106_6 C 0.670356 0.422496 0.804392 0.0127 Uiso
O20_6 O 0.734552 0.464027 0.980466 0.0127 Uiso
C107_6 C 0.786102 0.474798 0.951999 0.0127 Uiso
O21_6 O 0.889387 0.631052 0.816617 0.0127 Uiso
C108_6 C 0.854923 0.632639 0.874285 0.0127 Uiso
O22_6 O 0.718514 0.592459 0.731085 0.0127 Uiso
C109_6 C 0.751168 0.575988 0.689417 0.0127 Uiso
O23_6 O 0.714077 0.418537 0.710047 0.0127 Uiso
C110_6 C 0.675786 0.409705 0.767783 0.0127 Uiso
C111_6 C 0.900646 0.657167 0.788112 0.0127 Uiso
C112_6 C 0.689328 0.575865 0.706048 0.0127 Uiso
C113_6 C 0.726991 0.402224 0.719926 0.0127 Uiso
O24_6 O 0.904494 0.685140 0.799018 0.0127 Uiso
C114_6 C 0.907097 0.648355 0.746058 0.0127 Uiso
O25_6 O 0.686858 0.555431 0.680042 0.0127 Uiso
C115_6 C 0.660988 0.583596 0.711650 0.0127 Uiso
O26_6 O 0.713610 0.376094 0.749885 0.0127 Uiso
C116_6 C 0.761222 0.413327 0.695283 0.0127 Uiso
H1_6 H 0.466322 0.408858 0.803607 . .
H2_6 H 0.480698 0.391988 0.526476 . .
H3_6 H 0.61822 0.592666 0.918557 . .
H4_6 H 0.579314 0.582401 0.941002 . .
H5_6 H 0.589827 0.55093 0.932948 . .
H6_6 H 0.420277 0.351313 0.632014 . .
H7_6 H 0.521474 0.34315 0.529067 . .
H8_6 H 0.326183 0.177414 0.709336 . .
H9_6 H 0.293284 0.186482 0.710184 . .
H10_6 H 0.301652 0.170822 0.664315 . .
H11_6 H 0.512878 0.398667 0.626616 . .
H13_6 H 0.706912 0.438287 0.961419 . .
H14_6 H 0.672865 0.445516 0.964849 . .
H15_6 H 0.421241 0.467382 0.798514 . .
H16_6 H 0.461732 0.160394 0.541867 . .
H17_6 H 0.41919 0.136933 0.556324 . .
H18_6 H 0.43036 0.1564 0.506978 . .
H19_6 H 0.408711 0.361018 0.822171 . .
H20_6 H 0.327022 0.368388 0.780448 . .
H21_6 H 0.407229 0.31828 0.923458 . .
H22_6 H 0.405648 0.307675 0.976601 . .
H23_6 H 0.393791 0.336968 0.961029 . .
H24_6 H 0.580478 0.384047 0.520562 . .
H25_6 H 0.503757 0.495574 0.879773 . .
H26_6 H 0.403668 0.393134 0.628862 . .
H27_6 H 0.506113 0.446943 0.855803 . .
H28_6 H 0.437778 0.504237 0.865713 . .
H29_6 H 0.314373 0.304274 0.882344 . .
H30_6 H 0.290749 0.328763 0.83316 . .
H31_6 H 0.395978 0.336544 0.897691 . .
H32_6 H 0.425701 0.436273 0.573166 . .
H33_6 H 0.606674 0.433778 0.566255 . .
H34_6 H 0.634672 0.506273 0.6248 . .
H35_6 H 0.61559 0.529733 0.610343 . .
H36_6 H 0.607293 0.510266 0.659688 . .
H37_6 H 0.482102 0.489253 0.457331 . .
H38_6 H 0.440136 0.480185 0.456483 . .
H39_6 H 0.464163 0.495844 0.502352 . .
H40_6 H 0.874414 0.656465 0.885927 . .
H41_6 H 0.884263 0.627769 0.733719 . .
H42_6 H 0.915735 0.669754 0.725665 . .
H43_6 H 0.926 0.641113 0.74811 . .
H44_6 H 0.831845 0.486605 0.920485 . .
H45_6 H 0.791334 0.464842 0.979671 . .
H46_6 H 0.647307 0.408557 0.821678 . .
H47_6 H 0.713065 0.445453 0.970434 . .
H48_6 H 0.748082 0.58767 0.661875 . .
H49_6 H 0.839569 0.576479 0.798223 . .
H50_6 H 0.729559 0.562983 0.791434 . .
H51_6 H 0.819582 0.62691 0.920258 . .
H52_6 H 0.819602 0.509096 0.85793 . .
H53_6 H 0.786039 0.53327 0.723214 . .
H54_6 H 0.657237 0.385622 0.755632 . .
H55_6 H 0.780619 0.558115 0.661239 . .
H56_6 H 0.728743 0.48973 0.909209 . .
H57_6 H 0.752439 0.473789 0.746168 . .
H58_6 H 0.775878 0.5729 0.89314 . .
H59_6 H 0.690987 0.463433 0.846535 . .
H60_6 H 0.670301 0.609844 0.705637 . .
H61_6 H 0.641008 0.568693 0.690066 . .
H62_6 H 0.651613 0.577718 0.743208 . .
H63_6 H 0.778849 0.439317 0.701817 . .
H64_6 H 0.771621 0.398042 0.705248 . .
H65_6 H 0.756262 0.410103 0.662178 . .
H66_6 H 0.467382 0.421241 0.701486 . .
H67_6 H 0.586102 0.452705 0.943453 . .
H68_6 H 0.447544 0.267999 0.540051 . .
H69_6 H 0.560887 0.357654 0.820132 . .
H70_6 H 0.526006 0.486249 0.746408 . .
H72_6 H 0.361018 0.408711 0.677829 . .
H73_6 H 0.402297 0.315353 0.534653 . .
H74_6 H 0.536312 0.442545 0.773527 . .
H75_6 H 0.499909 0.396226 0.875233 . .
H76_6 H 0.511657 0.323516 0.637599 . .
H77_6 H 0.678573 0.498511 0.746182 . .
H78_6 H 0.368388 0.327022 0.719552 . .
H79_6 H 0.596424 0.506236 0.868443 . .
H80_6 H 0.572083 0.313974 0.844989 . .
H81_6 H 0.572346 0.39541 0.757457 . .
H82_6 H 0.408858 0.466322 0.696393 . .
H83_6 H 0.422043 0.274678 0.640191 . .
H84_6 H 0.643839 0.486269 0.808737 . .
H85_6 H 0.446943 0.506113 0.644197 . .
H86_6 H 0.611984 0.419106 0.920499 . .
H87_6 H 0.504237 0.437778 0.634287 . .
H88_6 H 0.582343 0.39782 0.675545 . .
H89_6 H 0.328763 0.290749 0.66684 . .
H90_6 H 0.551282 0.541081 0.78074 . .
H92_6 H 0.604949 0.323904 0.911035 . .
H93_6 H 0.304274 0.314373 0.617656 . .
H94_6 H 0.659825 0.458 0.686995 . .
H95_6 H 0.495574 0.503757 0.620227 . .
H96_6 H 0.506229 0.232889 0.600412 . .
H97_6 H 0.343867 0.273533 0.537805 . .
H98_6 H 0.336544 0.395978 0.602309 . .
H99_6 H 0.529765 0.28262 0.646105 . .
H100_6 H 0.322761 0.230393 0.593501 . .
C4_7 C 0.027243 0.843792 0.441009 0.0127 Uiso
C7_7 C 0.033307 0.797160 0.400095 0.0127 Uiso
N4_5 N 0.047925 0.866381 0.457920 0.0127 Uiso
N6_7 N 0.004015 0.775239 0.503652 0.0127 Uiso
N7_7 N 0.056956 0.795768 0.392729 0.0127 Uiso
Fe3_7 Fe -0.000000 0.798169 0.250000 0.0063 Uiso
N15_7 N 0.035359 0.784990 0.253798 0.0127 Uiso
N16_7 N 0.034866 0.846617 0.254962 0.0127 Uiso
C21_7 C 0.058918 0.796902 0.284081 0.0127 Uiso
C22_7 C 0.036498 0.763564 0.225858 0.0127 Uiso
C23_7 C 0.061980 0.861056 0.230233 0.0127 Uiso
C24_7 C 0.031502 0.866057 0.284135 0.0127 Uiso
C36_7 C 0.016553 0.685439 0.335389 0.0127 Uiso
C37_7 C 0.082988 0.788076 0.286906 0.0127 Uiso
C38_7 C 0.059927 0.754158 0.227507 0.0127 Uiso
C39_7 C 0.085364 0.894118 0.234255 0.0127 Uiso
C40_7 C 0.054372 0.899252 0.289132 0.0127 Uiso
C46_7 C 0.003336 0.658560 0.307934 0.0127 Uiso
O7_7 O 0.106032 0.802123 0.319697 0.0127 Uiso
C47_7 C 0.084054 0.766316 0.258436 0.0127 Uiso
O8_7 O 0.113003 0.907597 0.207529 0.0127 Uiso
C48_7 C 0.081919 0.913821 0.263892 0.0127 Uiso
C52_7 C 0.111785 0.781491 0.343945 0.0127 Uiso
C53_7 C 0.143391 0.916209 0.224392 0.0127 Uiso
C55_7 C 0.005679 0.749737 0.621683 0.0127 Uiso
O12_7 O 0.089725 0.754485 0.354535 0.0127 Uiso
C57_7 C 0.146669 0.792748 0.357906 0.0127 Uiso
O13_7 O 0.146098 0.901118 0.253529 0.0127 Uiso
C58_7 C 0.174673 0.945558 0.206068 0.0127 Uiso
Fe4_5 Fe 0.091314 0.902633 0.487730 0.0063 Uiso
N23_7 N 0.003830 0.800298 0.189835 0.0127 Uiso
C70_7 C 0.002144 0.699120 0.522105 0.0127 Uiso
O15_7 O 0.015119 0.726018 0.548684 0.0127 Uiso
C84_7 C 0.011442 0.674773 0.525399 0.0127 Uiso
H8_7 H 0.155919 0.815436 0.376003 . .
H9_7 H 0.146852 0.773469 0.376851 . .
H10_7 H 0.162511 0.797496 0.330981 . .
H16_7 H 0.17294 0.968005 0.208533 . .
H17_7 H 0.1964 0.948923 0.22299 . .
H18_7 H 0.176933 0.940626 0.173645 . .
H21_7 H 0.0150535 0.755615 0.590125 . .
H22_7 H 0.0256584 0.76464 0.643267 . .
H29_7 H 0.0290592 0.676765 0.549011 . .
H30_7 H 0.00456989 0.628652 0.499826 . .
H68_7 H 0.0653339 0.846211 0.206718 . .
H73_7 H 0.01798 0.753611 0.20132 . .
H76_7 H 0.00981701 0.854807 0.304266 . .
H78_7 H 0.00631112 0.708033 0.386218 . .
H80_7 H 0.0193598 0.924777 0.511655 . .
H83_7 H 0.0586549 0.814031 0.306858 . .
H89_7 H 0.0425842 0.704681 0.333507 . .
H92_7 H 0.00942917 0.947711 0.577702 . .
H93_7 H 0.0189607 0.656568 0.284323 . .
H96_7 H 0.100445 0.940007 0.267078 . .
H97_7 H 0.0598003 0.737001 0.204472 . .
H99_7 H 0.0507135 0.913812 0.312771 . .
H100_7 H 0.10294 0.759034 0.260167 . .
O26_7 O 0.957239 0.004183 0.416552 0.0127 Uiso
C116_7 C 0.920006 0.014562 0.361950 0.0127 Uiso
H44_7 H 0.846728 0.0119061 0.587151 . .
H63_7 H 0.894016 0.0061987 0.368484 . .
H64_7 H 0.935291 0.0402453 0.371915 . .
H65_7 H 0.92323 0.0128252 0.328845 . .
Nb1_7 Nb 0.988576 0.799724 0.412253 0.0063 Uiso
C1_7 C 0.956643 0.803289 0.458163 0.0127 Uiso
C2_7 C 0.967113 0.746802 0.409069 0.0127 Uiso
C3_7 C 0.994502 0.797454 0.346051 0.0127 Uiso
C5_7 C 0.988475 0.843140 0.386635 0.0127 Uiso
C6_7 C 0.999074 0.783949 0.472058 0.0127 Uiso
C8_7 C 0.939489 0.779817 0.384606 0.0127 Uiso
N1_7 N 0.938706 0.804756 0.480920 0.0127 Uiso
N2_7 N 0.955853 0.718338 0.408874 0.0127 Uiso
N3_7 N 0.996170 0.796467 0.310165 0.0127 Uiso
N5_7 N 0.988387 0.866131 0.373524 0.0127 Uiso
N8_7 N 0.913284 0.768016 0.369422 0.0127 Uiso
Fe1_7 Fe 0.902633 0.811318 0.512270 0.0063 Uiso
Fe2_9 Fe 0.930025 0.666666 0.416666 0.0063 Uiso
Fe3_8 Fe 1.000000 0.798169 0.250000 0.0063 Uiso
N9_7 N 0.893477 0.832425 0.453802 0.0127 Uiso
N10_7 N 0.861855 0.762111 0.489283 0.0127 Uiso
N11_7 N 0.908636 0.787084 0.571011 0.0127 Uiso
N12_7 N 0.942617 0.861529 0.535144 0.0127 Uiso
N13_7 N 0.892056 0.661218 0.368884 0.0127 Uiso
N14_7 N 0.963281 0.663647 0.368440 0.0127 Uiso
C9_7 C 0.914908 0.844277 0.421628 0.0127 Uiso
C10_7 C 0.864967 0.833511 0.450150 0.0127 Uiso
C11_7 C 0.831628 0.745738 0.508037 0.0127 Uiso
C12_7 C 0.866789 0.747752 0.455702 0.0127 Uiso
C13_7 C 0.925537 0.771752 0.570545 0.0127 Uiso
C14_7 C 0.894997 0.787428 0.608642 0.0127 Uiso
C15_7 C 0.937500 0.874004 0.570482 0.0127 Uiso
C16_7 C 0.971429 0.879795 0.515228 0.0127 Uiso
C17_7 C 0.893107 0.689186 0.355388 0.0127 Uiso
C18_7 C 0.868597 0.632291 0.352920 0.0127 Uiso
C19_7 C 0.950745 0.637824 0.341849 0.0127 Uiso
C20_7 C 0.995977 0.687097 0.364885 0.0127 Uiso
C25_7 C 0.909517 0.857409 0.385180 0.0127 Uiso
C26_7 C 0.857980 0.846271 0.414688 0.0127 Uiso
C27_7 C 0.806512 0.715512 0.493902 0.0127 Uiso
C28_7 C 0.842098 0.717142 0.440195 0.0127 Uiso
C29_7 C 0.929012 0.757054 0.606411 0.0127 Uiso
C30_7 C 0.897836 0.773534 0.643796 0.0127 Uiso
C31_7 C 0.960641 0.904112 0.585715 0.0127 Uiso
C32_7 C 0.996311 0.910837 0.528941 0.0127 Uiso
C33_7 C 0.871473 0.689665 0.326250 0.0127 Uiso
C34_7 C 0.846025 0.631354 0.323282 0.0127 Uiso
C35_7 C 0.969691 0.634213 0.311228 0.0127 Uiso
O1_7 O 0.932115 0.869306 0.352867 0.0127 Uiso
C41_7 C 0.880565 0.858535 0.381334 0.0127 Uiso
O2_7 O 0.777280 0.702281 0.516716 0.0127 Uiso
C42_7 C 0.811744 0.700694 0.459048 0.0127 Uiso
O3_7 O 0.948153 0.740874 0.602248 0.0127 Uiso
C43_7 C 0.915499 0.757345 0.643916 0.0127 Uiso
O4_7 O 0.952590 0.914796 0.623286 0.0127 Uiso
C44_7 C 0.990881 0.923628 0.565550 0.0127 Uiso
O5_7 O 0.873422 0.718510 0.313511 0.0127 Uiso
C45_7 C 0.847165 0.659435 0.309871 0.0127 Uiso
O6_7 O 0.955768 0.607315 0.284649 0.0127 Uiso
C49_7 C 0.766021 0.676166 0.545221 0.0127 Uiso
C50_7 C 0.977339 0.757468 0.627285 0.0127 Uiso
C51_7 C 0.939676 0.931109 0.613407 0.0127 Uiso
O9_7 O 0.762173 0.648193 0.534315 0.0127 Uiso
C54_7 C 0.759570 0.684978 0.587275 0.0127 Uiso
O10_7 O 0.979809 0.777902 0.653291 0.0127 Uiso
O11_7 O 0.953057 0.957239 0.583448 0.0127 Uiso
C56_7 C 0.905445 0.920006 0.638050 0.0127 Uiso
N17_7 N 0.866381 0.818457 0.542080 0.0127 Uiso
N18_7 N 0.897504 0.672115 0.464449 0.0127 Uiso
N19_7 N 0.966300 0.669686 0.464893 0.0127 Uiso
N20_7 N 0.904181 0.614995 0.424459 0.0127 Uiso
N21_7 N 0.964641 0.749632 0.246202 0.0127 Uiso
N22_7 N 0.965134 0.811752 0.245038 0.0127 Uiso
C59_7 C 0.843792 0.816550 0.558991 0.0127 Uiso
C60_7 C 0.870587 0.644147 0.477945 0.0127 Uiso
C61_7 C 0.902972 0.701042 0.480413 0.0127 Uiso
C62_7 C 0.979587 0.695509 0.491484 0.0127 Uiso
C63_7 C 0.975546 0.646236 0.468448 0.0127 Uiso
C64_7 C 0.941082 0.737985 0.215919 0.0127 Uiso
C65_7 C 0.963502 0.727067 0.274142 0.0127 Uiso
C66_7 C 0.938020 0.799077 0.269767 0.0127 Uiso
C67_7 C 0.968498 0.834556 0.215865 0.0127 Uiso
Nb2_7 Nb 0.799724 0.811149 0.587747 0.0063 Uiso
C68_7 C 0.848474 0.643668 0.507083 0.0127 Uiso
C69_7 C 0.881337 0.701979 0.510051 0.0127 Uiso
C71_7 C 0.997780 0.647894 0.497944 0.0127 Uiso
C72_7 C 0.917012 0.705089 0.213094 0.0127 Uiso
C73_7 C 0.940073 0.694232 0.272493 0.0127 Uiso
C74_7 C 0.914636 0.808755 0.265745 0.0127 Uiso
C75_7 C 0.945628 0.844881 0.210868 0.0127 Uiso
C76_7 C 0.803289 0.846647 0.541837 0.0127 Uiso
C77_7 C 0.746802 0.779690 0.590931 0.0127 Uiso
C78_7 C 0.797454 0.802953 0.653949 0.0127 Uiso
C79_7 C 0.843140 0.854666 0.613365 0.0127 Uiso
C80_7 C 0.783949 0.784876 0.527942 0.0127 Uiso
C81_7 C 0.797160 0.763854 0.599905 0.0127 Uiso
C82_7 C 0.779817 0.840329 0.615394 0.0127 Uiso
O14_7 O 0.821578 0.614823 0.519822 0.0127 Uiso
C83_7 C 0.854396 0.673898 0.523462 0.0127 Uiso
O16_7 O 0.893968 0.696092 0.180303 0.0127 Uiso
C85_7 C 0.915946 0.682263 0.241564 0.0127 Uiso
O17_7 O 0.886997 0.794595 0.292471 0.0127 Uiso
C86_7 C 0.918081 0.831903 0.236108 0.0127 Uiso
N24_7 N 0.804756 0.866051 0.519080 0.0127 Uiso
N25_7 N 0.718338 0.762486 0.591126 0.0127 Uiso
N26_7 N 0.796467 0.800298 0.689835 0.0127 Uiso
N27_7 N 0.866131 0.877745 0.626476 0.0127 Uiso
N28_7 N 0.775239 0.771225 0.496348 0.0127 Uiso
N29_7 N 0.795768 0.738813 0.607271 0.0127 Uiso
N30_7 N 0.768016 0.854733 0.630578 0.0127 Uiso
C87_7 C 0.888215 0.669707 0.156055 0.0127 Uiso
C88_7 C 0.856609 0.772819 0.275608 0.0127 Uiso
Fe5_3 Fe 0.811318 0.908686 0.487730 0.0063 Uiso
Fe6_9 Fe 0.666667 0.736642 0.583333 0.0063 Uiso
Fe7_7 Fe 0.798170 0.798169 0.750000 0.0063 Uiso
O18_7 O 0.910275 0.664761 0.145465 0.0127 Uiso
C89_7 C 0.853331 0.646080 0.142094 0.0127 Uiso
O19_7 O 0.853902 0.755021 0.246471 0.0127 Uiso
C90_7 C 0.825327 0.770886 0.293932 0.0127 Uiso
N31_7 N 0.832425 0.938949 0.546198 0.0127 Uiso
N32_7 N 0.762111 0.900257 0.510717 0.0127 Uiso
N33_7 N 0.787084 0.878449 0.428989 0.0127 Uiso
N34_7 N 0.861529 0.918913 0.464856 0.0127 Uiso
N35_3 N 0.818457 0.952075 0.457920 0.0127 Uiso
C91_7 C 0.844277 0.929370 0.578372 0.0127 Uiso
C92_7 C 0.833511 0.968545 0.549850 0.0127 Uiso
C93_7 C 0.745738 0.914111 0.491963 0.0127 Uiso
C94_7 C 0.747752 0.880964 0.544298 0.0127 Uiso
C95_7 C 0.771752 0.846216 0.429455 0.0127 Uiso
C96_7 C 0.787428 0.892432 0.391358 0.0127 Uiso
C97_7 C 0.874004 0.936505 0.429518 0.0127 Uiso
C98_7 C 0.879795 0.908367 0.484772 0.0127 Uiso
C99_7 C 0.857409 0.947893 0.614820 0.0127 Uiso
C100_7 C 0.846271 0.988292 0.585312 0.0127 Uiso
C101_7 C 0.715512 0.909001 0.506098 0.0127 Uiso
C102_7 C 0.717142 0.875045 0.559805 0.0127 Uiso
C103_7 C 0.757054 0.828043 0.393589 0.0127 Uiso
C104_7 C 0.773534 0.875699 0.356204 0.0127 Uiso
C105_7 C 0.904112 0.943472 0.414285 0.0127 Uiso
C106_7 C 0.910837 0.914527 0.471059 0.0127 Uiso
O20_7 O 0.869306 0.937192 0.647133 0.0127 Uiso
C107_7 C 0.858535 0.977971 0.618666 0.0127 Uiso
O21_7 O 0.702281 0.925002 0.483284 0.0127 Uiso
C108_7 C 0.700694 0.888951 0.540952 0.0127 Uiso
O22_7 O 0.740874 0.792722 0.397752 0.0127 Uiso
C109_7 C 0.757345 0.841847 0.356084 0.0127 Uiso
O23_7 O 0.914796 0.962207 0.376714 0.0127 Uiso
C110_7 C 0.923628 0.932748 0.434450 0.0127 Uiso
C111_7 C 0.676166 0.910146 0.454779 0.0127 Uiso
C112_7 C 0.757468 0.780130 0.372715 0.0127 Uiso
C113_7 C 0.931109 0.991434 0.386593 0.0127 Uiso
O24_7 O 0.648193 0.886021 0.465685 0.0127 Uiso
C114_7 C 0.684978 0.925409 0.412725 0.0127 Uiso
O25_7 O 0.777902 0.798094 0.346709 0.0127 Uiso
C115_7 C 0.749737 0.744059 0.378317 0.0127 Uiso
H1_7 H 0.924475 0.724131 0.470273 . .
H2_7 H 0.941345 0.755376 0.193142 . .
H3_7 H 0.740667 0.692221 0.585224 . .
H4_7 H 0.750932 0.663579 0.607668 . .
H5_7 H 0.782404 0.705564 0.599615 . .
H6_7 H 0.98202 0.735631 0.29868 . .
H7_7 H 0.990183 0.84499 0.195734 . .
H11_7 H 0.934666 0.780877 0.293282 . .
H12_7 H 0.910405 0.92323 0.671155 . .
H13_7 H 0.895046 0.935291 0.628085 . .
H14_7 H 0.887818 0.894016 0.631516 . .
H15_7 H 0.865952 0.620526 0.465181 . .
H19_7 H 0.972315 0.71436 0.488838 . .
H20_7 H 0.964945 0.625301 0.447115 . .
H23_7 H 0.996365 0.72349 0.627696 . .
H24_7 H 0.949287 0.863098 0.187229 . .
H25_7 H 0.83776 0.67485 0.546439 . .
H26_7 H 0.9402 0.677201 0.295528 . .
H27_7 H 0.886391 0.725837 0.522469 . .
H28_7 H 0.829097 0.600208 0.532379 . .
H31_7 H 0.996789 0.726101 0.564357 . .
H32_7 H 0.89706 0.656094 0.239833 . .
H33_7 H 0.899555 0.839562 0.232922 . .
H34_7 H 0.82706 0.795065 0.291467 . .
H35_7 H 0.8036 0.752523 0.27701 . .
H36_7 H 0.823067 0.763693 0.326355 . .
H37_7 H 0.844081 0.659516 0.123997 . .
H38_7 H 0.853148 0.626618 0.123149 . .
H39_7 H 0.837489 0.634985 0.169019 . .
H40_7 H 0.676868 0.884616 0.552593 . .
H41_7 H 0.705564 0.92316 0.400385 . .
H42_7 H 0.663579 0.912647 0.392332 . .
H43_7 H 0.692221 0.951554 0.414776 . .
H45_7 H 0.868491 0.993158 0.646338 . .
H46_7 H 0.924777 0.905417 0.488345 . .
H47_7 H 0.88788 0.934279 0.637101 . .
H48_7 H 0.745663 0.827078 0.328541 . .
H49_7 H 0.756854 0.929757 0.46489 . .
H50_7 H 0.77035 0.833242 0.458101 . .
H51_7 H 0.706424 0.859339 0.586925 . .
H52_7 H 0.824237 0.977173 0.524597 . .
H53_7 H 0.800063 0.919435 0.38988 . .
H54_7 H 0.947711 0.938282 0.422298 . .
H55_7 H 0.775218 0.889171 0.327906 . .
H56_7 H 0.843603 0.90568 0.575876 . .
H57_7 H 0.859545 0.945317 0.412834 . .
H58_7 H 0.760434 0.869645 0.559806 . .
H59_7 H 0.8699 0.894221 0.513201 . .
H60_7 H 0.72349 0.727124 0.372304 . .
H61_7 H 0.76464 0.738981 0.356733 . .
H62_7 H 0.755615 0.740562 0.409875 . .
H66_7 H 0.912093 0.712808 0.368152 . .
H67_7 H 0.880628 0.800063 0.61012 . .
H69_7 H 0.97568 0.8699 0.486799 . .
H70_7 H 0.847084 0.706424 0.413075 . .
H71_7 H 0.886047 0.775218 0.672094 . .
H72_7 H 0.924622 0.618973 0.344496 . .
H74_7 H 0.890788 0.760434 0.440194 . .
H75_7 H 0.937108 0.77035 0.541899 . .
H77_7 H 0.834822 0.846728 0.412849 . .
H79_7 H 0.827098 0.756854 0.53511 . .
H81_7 H 0.937923 0.843603 0.424124 . .
H82_7 H 0.867011 0.609202 0.36306 . .
H84_7 H 0.847064 0.824237 0.475403 . .
H85_7 H 0.827221 0.607497 0.310864 . .
H86_7 H 0.914227 0.859545 0.587166 . .
H87_7 H 0.895555 0.733125 0.300954 . .
H88_7 H 0.935513 0.851189 0.342212 . .
H90_7 H 0.792252 0.676868 0.447407 . .
H91_7 H 0.918585 0.745663 0.671459 . .
H94_7 H 0.875333 0.868491 0.353662 . .
H95_7 H 0.829576 0.658483 0.286894 . .
H98_7 H 0.937356 0.607233 0.268976 . .
Nb1_8 Nb 0.200276 0.188851 0.412253 0.0063 Uiso
C1_8 C 0.196711 0.153353 0.458163 0.0127 Uiso
C2_8 C 0.253198 0.220310 0.409069 0.0127 Uiso
C3_8 C 0.202546 0.197047 0.346051 0.0127 Uiso
C4_8 C 0.156208 0.183450 0.441009 0.0127 Uiso
C5_8 C 0.156860 0.145334 0.386635 0.0127 Uiso
C6_8 C 0.216051 0.215124 0.472058 0.0127 Uiso
C7_8 C 0.202840 0.236146 0.400095 0.0127 Uiso
C8_8 C 0.220183 0.159671 0.384606 0.0127 Uiso
N1_8 N 0.195244 0.133949 0.480920 0.0127 Uiso
N2_8 N 0.281662 0.237514 0.408874 0.0127 Uiso
N3_8 N 0.203533 0.199702 0.310165 0.0127 Uiso
N4_6 N 0.133619 0.181543 0.457920 0.0127 Uiso
N5_8 N 0.133869 0.122255 0.373524 0.0127 Uiso
N6_8 N 0.224761 0.228775 0.503652 0.0127 Uiso
N7_8 N 0.204232 0.261187 0.392729 0.0127 Uiso
N8_8 N 0.231984 0.145267 0.369422 0.0127 Uiso
Fe1_8 Fe 0.188682 0.091314 0.512270 0.0063 Uiso
Fe2_10 Fe 0.333334 0.263358 0.416666 0.0063 Uiso
Fe3_9 Fe 0.201831 0.201830 0.250000 0.0063 Uiso
N9_8 N 0.167575 0.061051 0.453802 0.0127 Uiso
N10_8 N 0.237889 0.099743 0.489283 0.0127 Uiso
N11_8 N 0.212916 0.121551 0.571011 0.0127 Uiso
N12_8 N 0.138471 0.081087 0.535144 0.0127 Uiso
N13_8 N 0.338782 0.230837 0.368884 0.0127 Uiso
N14_8 N 0.336353 0.299633 0.368440 0.0127 Uiso
N15_8 N 0.215010 0.250368 0.253798 0.0127 Uiso
N16_8 N 0.153383 0.188248 0.254962 0.0127 Uiso
C9_8 C 0.155723 0.070630 0.421628 0.0127 Uiso
C10_8 C 0.166489 0.031455 0.450150 0.0127 Uiso
C11_8 C 0.254262 0.085889 0.508037 0.0127 Uiso
C12_8 C 0.252248 0.119036 0.455702 0.0127 Uiso
C13_8 C 0.228248 0.153784 0.570545 0.0127 Uiso
C14_8 C 0.212572 0.107568 0.608642 0.0127 Uiso
C15_8 C 0.125996 0.063495 0.570482 0.0127 Uiso
C16_8 C 0.120205 0.091633 0.515228 0.0127 Uiso
C17_8 C 0.310814 0.203920 0.355388 0.0127 Uiso
C18_8 C 0.367709 0.236305 0.352920 0.0127 Uiso
C19_8 C 0.362176 0.312920 0.341849 0.0127 Uiso
C20_8 C 0.312903 0.308879 0.364885 0.0127 Uiso
C21_8 C 0.203098 0.262015 0.284081 0.0127 Uiso
C22_8 C 0.236436 0.272933 0.225858 0.0127 Uiso
C23_8 C 0.138944 0.200923 0.230233 0.0127 Uiso
C24_8 C 0.133943 0.165444 0.284135 0.0127 Uiso
C25_8 C 0.142591 0.052107 0.385180 0.0127 Uiso
C26_8 C 0.153729 0.011708 0.414688 0.0127 Uiso
C27_8 C 0.284488 0.090999 0.493902 0.0127 Uiso
C28_8 C 0.282858 0.124955 0.440195 0.0127 Uiso
C29_8 C 0.242946 0.171957 0.606411 0.0127 Uiso
C30_8 C 0.226466 0.124301 0.643796 0.0127 Uiso
C31_8 C 0.095888 0.056528 0.585715 0.0127 Uiso
C32_8 C 0.089163 0.085473 0.528941 0.0127 Uiso
C33_8 C 0.310335 0.181807 0.326250 0.0127 Uiso
C34_8 C 0.368646 0.214670 0.323282 0.0127 Uiso
C35_8 C 0.365787 0.335477 0.311228 0.0127 Uiso
C36_8 C 0.314561 0.331113 0.335389 0.0127 Uiso
C37_8 C 0.211924 0.294911 0.286906 0.0127 Uiso
C38_8 C 0.245842 0.305768 0.227507 0.0127 Uiso
C39_8 C 0.105882 0.191245 0.234255 0.0127 Uiso
C40_8 C 0.100748 0.155119 0.289132 0.0127 Uiso
O1_8 O 0.130694 0.062808 0.352867 0.0127 Uiso
C41_8 C 0.141465 0.022029 0.381334 0.0127 Uiso
O2_8 O 0.297719 0.074998 0.516716 0.0127 Uiso
C42_8 C 0.299306 0.111049 0.459048 0.0127 Uiso
O3_8 O 0.259126 0.207278 0.602248 0.0127 Uiso
C43_8 C 0.242655 0.158153 0.643916 0.0127 Uiso
O4_8 O 0.085204 0.037793 0.623286 0.0127 Uiso
C44_8 C 0.076372 0.067252 0.565550 0.0127 Uiso
O5_8 O 0.281490 0.154911 0.313511 0.0127 Uiso
C45_8 C 0.340565 0.187729 0.309871 0.0127 Uiso
O6_8 O 0.392685 0.348452 0.284649 0.0127 Uiso
C46_8 C 0.341440 0.344775 0.307934 0.0127 Uiso
O7_8 O 0.197877 0.303908 0.319697 0.0127 Uiso
C47_8 C 0.233684 0.317737 0.258436 0.0127 Uiso
O8_8 O 0.092403 0.205405 0.207529 0.0127 Uiso
C48_8 C 0.086179 0.168097 0.263892 0.0127 Uiso
C49_8 C 0.323834 0.089854 0.545221 0.0127 Uiso
C50_8 C 0.242532 0.219870 0.627285 0.0127 Uiso
C51_8 C 0.068891 0.008566 0.613407 0.0127 Uiso
C52_8 C 0.218509 0.330293 0.343945 0.0127 Uiso
C53_8 C 0.083791 0.227181 0.224392 0.0127 Uiso
O9_8 O 0.351807 0.113979 0.534315 0.0127 Uiso
C54_8 C 0.315022 0.074591 0.587275 0.0127 Uiso
O10_8 O 0.222098 0.201906 0.653291 0.0127 Uiso
C55_8 C 0.250263 0.255941 0.621683 0.0127 Uiso
O12_8 O 0.245515 0.335239 0.354535 0.0127 Uiso
C57_8 C 0.207252 0.353920 0.357906 0.0127 Uiso
O13_8 O 0.098882 0.244979 0.253529 0.0127 Uiso
C58_8 C 0.054442 0.229114 0.206068 0.0127 Uiso
Fe4_6 Fe 0.097367 0.188682 0.487730 0.0063 Uiso
N17_8 N 0.181543 0.047925 0.542080 0.0127 Uiso
N18_8 N 0.327885 0.225389 0.464449 0.0127 Uiso
N19_8 N 0.330314 0.296614 0.464893 0.0127 Uiso
N20_8 N 0.385005 0.289186 0.424459 0.0127 Uiso
N21_8 N 0.250368 0.215010 0.246202 0.0127 Uiso
N22_8 N 0.188248 0.153383 0.245038 0.0127 Uiso
N23_8 N 0.199702 0.203533 0.189835 0.0127 Uiso
C59_8 C 0.183450 0.027243 0.558991 0.0127 Uiso
C60_8 C 0.355853 0.226440 0.477945 0.0127 Uiso
C61_8 C 0.298958 0.201930 0.480413 0.0127 Uiso
C62_8 C 0.304491 0.284078 0.491484 0.0127 Uiso
C63_8 C 0.353764 0.329310 0.468448 0.0127 Uiso
C64_8 C 0.262015 0.203098 0.215919 0.0127 Uiso
C65_8 C 0.272933 0.236436 0.274142 0.0127 Uiso
C66_8 C 0.200923 0.138944 0.269767 0.0127 Uiso
C67_8 C 0.165444 0.133943 0.215865 0.0127 Uiso
C68_8 C 0.356332 0.204806 0.507083 0.0127 Uiso
C69_8 C 0.298021 0.179358 0.510051 0.0127 Uiso
C70_8 C 0.300880 0.303024 0.522105 0.0127 Uiso
C71_8 C 0.352106 0.349886 0.497944 0.0127 Uiso
C72_8 C 0.294911 0.211924 0.213094 0.0127 Uiso
C73_8 C 0.305768 0.245842 0.272493 0.0127 Uiso
C74_8 C 0.191245 0.105882 0.265745 0.0127 Uiso
C75_8 C 0.155119 0.100748 0.210868 0.0127 Uiso
C81_8 C 0.236146 0.033307 0.599905 0.0127 Uiso
O14_8 O 0.385177 0.206755 0.519822 0.0127 Uiso
C83_8 C 0.326102 0.180498 0.523462 0.0127 Uiso
O15_8 O 0.273982 0.289101 0.548684 0.0127 Uiso
C84_8 C 0.325227 0.336669 0.525399 0.0127 Uiso
O16_8 O 0.303908 0.197877 0.180303 0.0127 Uiso
C85_8 C 0.317737 0.233684 0.241564 0.0127 Uiso
O17_8 O 0.205405 0.092403 0.292471 0.0127 Uiso
C86_8 C 0.168097 0.086179 0.236108 0.0127 Uiso
N28_8 N 0.228775 0.004015 0.496348 0.0127 Uiso
N29_8 N 0.261187 0.056956 0.607271 0.0127 Uiso
C87_8 C 0.330293 0.218509 0.156055 0.0127 Uiso
C88_8 C 0.227181 0.083791 0.275608 0.0127 Uiso
Fe7_8 Fe 0.201831 0.000000 0.750000 0.0063 Uiso
O18_8 O 0.335239 0.245515 0.145465 0.0127 Uiso
C89_8 C 0.353920 0.207252 0.142094 0.0127 Uiso
O19_8 O 0.244979 0.098882 0.246471 0.0127 Uiso
C90_8 C 0.229114 0.054442 0.293932 0.0127 Uiso
C115_8 C 0.255941 0.005679 0.378317 0.0127 Uiso
H1_8 H 0.275869 0.200344 0.470273 . .
H2_8 H 0.244624 0.185969 0.193142 . .
H3_8 H 0.307779 0.0484462 0.585224 . .
H4_8 H 0.336421 0.0873527 0.607668 . .
H5_8 H 0.294436 0.0768399 0.599615 . .
H6_8 H 0.264369 0.246389 0.29868 . .
H7_8 H 0.15501 0.145193 0.195734 . .
H8_8 H 0.184564 0.340484 0.376003 . .
H9_8 H 0.226531 0.373382 0.376851 . .
H10_8 H 0.202504 0.365015 0.330981 . .
H11_8 H 0.219123 0.153789 0.293282 . .
H15_8 H 0.379474 0.245426 0.465181 . .
H16_8 H 0.0319948 0.204935 0.208533 . .
H17_8 H 0.0510768 0.247477 0.22299 . .
H18_8 H 0.0593738 0.236307 0.173645 . .
H19_8 H 0.28564 0.257955 0.488838 . .
H20_8 H 0.374699 0.339644 0.447115 . .
H21_8 H 0.244385 0.259438 0.590125 . .
H22_8 H 0.23536 0.261019 0.643267 . .
H23_8 H 0.27651 0.272876 0.627696 . .
H24_8 H 0.136902 0.0861884 0.187229 . .
H25_8 H 0.32515 0.162909 0.546439 . .
H26_8 H 0.322799 0.262999 0.295528 . .
H27_8 H 0.274163 0.160554 0.522469 . .
H28_8 H 0.399792 0.228889 0.532379 . .
H29_8 H 0.323235 0.352294 0.549011 . .
H30_8 H 0.371348 0.375917 0.499826 . .
H31_8 H 0.273899 0.270689 0.564357 . .
H32_8 H 0.343906 0.240966 0.239833 . .
H33_8 H 0.160438 0.0599928 0.232922 . .
H34_8 H 0.204935 0.0319948 0.291467 . .
H35_8 H 0.247477 0.0510768 0.27701 . .
H36_8 H 0.236307 0.0593738 0.326355 . .
H37_8 H 0.340484 0.184564 0.123997 . .
H38_8 H 0.373382 0.226531 0.123149 . .
H39_8 H 0.365015 0.202504 0.169019 . .
H46_8 H 0.0945832 0.0193598 0.488345 . .
H54_8 H 0.0617178 0.00942917 0.422298 . .
H61_8 H 0.261019 0.0256584 0.356733 . .
H62_8 H 0.259438 0.0150535 0.409875 . .
H66_8 H 0.287192 0.199285 0.368152 . .
H67_8 H 0.199937 0.0805647 0.61012 . .
H68_8 H 0.153789 0.219123 0.206718 . .
H69_8 H 0.1301 0.105779 0.486799 . .
H70_8 H 0.293576 0.140661 0.413075 . .
H71_8 H 0.224782 0.110829 0.672094 . .
H72_8 H 0.381027 0.305648 0.344496 . .
H73_8 H 0.246389 0.264369 0.20132 . .
H74_8 H 0.239566 0.130355 0.440194 . .
H75_8 H 0.22965 0.166758 0.541899 . .
H76_8 H 0.145193 0.15501 0.304266 . .
H78_8 H 0.291967 0.298278 0.386218 . .
H79_8 H 0.243146 0.0702431 0.53511 . .
H80_8 H 0.0752234 0.0945832 0.511655 . .
H81_8 H 0.156397 0.0943203 0.424124 . .
H82_8 H 0.390798 0.257809 0.36306 . .
H83_8 H 0.185969 0.244624 0.306858 . .
H84_8 H 0.175763 0.0228273 0.475403 . .
H85_8 H 0.392503 0.219724 0.310864 . .
H86_8 H 0.140455 0.0546829 0.587166 . .
H87_8 H 0.266875 0.16243 0.300954 . .
H88_8 H 0.148811 0.0843239 0.342212 . .
H89_8 H 0.295319 0.337903 0.333507 . .
H90_8 H 0.323132 0.115384 0.447407 . .
H91_8 H 0.254337 0.172922 0.671459 . .
H92_8 H 0.0522887 0.0617178 0.577702 . .
H93_8 H 0.343432 0.362393 0.284323 . .
H94_8 H 0.131509 0.00684161 0.353662 . .
H95_8 H 0.341517 0.171093 0.286894 . .
H96_8 H 0.0599928 0.160438 0.267078 . .
H97_8 H 0.262999 0.322799 0.204472 . .
H98_8 H 0.392767 0.330123 0.268976 . .
H99_8 H 0.0861884 0.136902 0.312771 . .
H100_8 H 0.240966 0.343906 0.260167 . .
O11_8 O 0.042761 0.995817 0.583448 0.0127 Uiso
C56_8 C 0.079994 0.985438 0.638050 0.0127 Uiso
Nb2_8 Nb 0.188851 0.988576 0.587747 0.0063 Uiso
C76_8 C 0.153353 0.956643 0.541837 0.0127 Uiso
C77_8 C 0.220310 0.967113 0.590931 0.0127 Uiso
C78_8 C 0.197047 0.994502 0.653949 0.0127 Uiso
C79_8 C 0.145334 0.988475 0.613365 0.0127 Uiso
C80_8 C 0.215124 0.999074 0.527942 0.0127 Uiso
C82_8 C 0.159671 0.939489 0.615394 0.0127 Uiso
N24_8 N 0.133949 0.938706 0.519080 0.0127 Uiso
N25_8 N 0.237514 0.955853 0.591126 0.0127 Uiso
N26_8 N 0.199702 0.996170 0.689835 0.0127 Uiso
N27_8 N 0.122255 0.988387 0.626476 0.0127 Uiso
N30_8 N 0.145267 0.913284 0.630578 0.0127 Uiso
Fe6_10 Fe 0.263358 0.930025 0.583333 0.0063 Uiso
Fe7_9 Fe 0.201831 1.000000 0.750000 0.0063 Uiso
N31_8 N 0.061051 0.893477 0.546198 0.0127 Uiso
N32_8 N 0.099743 0.861855 0.510717 0.0127 Uiso
N33_8 N 0.121551 0.908636 0.428989 0.0127 Uiso
N34_8 N 0.081087 0.942617 0.464856 0.0127 Uiso
C91_8 C 0.070630 0.914908 0.578372 0.0127 Uiso
C92_8 C 0.031455 0.864967 0.549850 0.0127 Uiso
C93_8 C 0.085889 0.831628 0.491963 0.0127 Uiso
C94_8 C 0.119036 0.866789 0.544298 0.0127 Uiso
C95_8 C 0.153784 0.925537 0.429455 0.0127 Uiso
C96_8 C 0.107568 0.894997 0.391358 0.0127 Uiso
C97_8 C 0.063495 0.937500 0.429518 0.0127 Uiso
C98_8 C 0.091633 0.971429 0.484772 0.0127 Uiso
C99_8 C 0.052107 0.909517 0.614820 0.0127 Uiso
C100_8 C 0.011708 0.857980 0.585312 0.0127 Uiso
C101_8 C 0.090999 0.806512 0.506098 0.0127 Uiso
C102_8 C 0.124955 0.842098 0.559805 0.0127 Uiso
C103_8 C 0.171957 0.929012 0.393589 0.0127 Uiso
C104_8 C 0.124301 0.897836 0.356204 0.0127 Uiso
C105_8 C 0.056528 0.960641 0.414285 0.0127 Uiso
C106_8 C 0.085473 0.996311 0.471059 0.0127 Uiso
O20_8 O 0.062808 0.932115 0.647133 0.0127 Uiso
C107_8 C 0.022029 0.880565 0.618666 0.0127 Uiso
O21_8 O 0.074998 0.777280 0.483284 0.0127 Uiso
C108_8 C 0.111049 0.811744 0.540952 0.0127 Uiso
O22_8 O 0.207278 0.948153 0.397752 0.0127 Uiso
C109_8 C 0.158153 0.915499 0.356084 0.0127 Uiso
O23_8 O 0.037793 0.952590 0.376714 0.0127 Uiso
C110_8 C 0.067252 0.990881 0.434450 0.0127 Uiso
C111_8 C 0.089854 0.766021 0.454779 0.0127 Uiso
C112_8 C 0.219870 0.977339 0.372715 0.0127 Uiso
C113_8 C 0.008566 0.939676 0.386593 0.0127 Uiso
O24_8 O 0.113979 0.762173 0.465685 0.0127 Uiso
C114_8 C 0.074591 0.759570 0.412725 0.0127 Uiso
O25_8 O 0.201906 0.979809 0.346709 0.0127 Uiso
H12_8 H 0.0767701 0.987175 0.671155 . .
H13_8 H 0.0647087 0.959755 0.628085 . .
H14_8 H 0.105984 0.993801 0.631516 . .
H40_8 H 0.115384 0.792252 0.552593 . .
H41_8 H 0.0768399 0.782404 0.400385 . .
H42_8 H 0.0873527 0.750932 0.392332 . .
H43_8 H 0.0484462 0.740667 0.414776 . .
H45_8 H 0.00684161 0.875333 0.646338 . .
H47_8 H 0.065721 0.953601 0.637101 . .
H48_8 H 0.172922 0.918585 0.328541 . .
H49_8 H 0.0702431 0.827098 0.46489 . .
H50_8 H 0.166758 0.937108 0.458101 . .
H51_8 H 0.140661 0.847084 0.586925 . .
H52_8 H 0.0228273 0.847064 0.524597 . .
H53_8 H 0.0805647 0.880628 0.38988 . .
H55_8 H 0.110829 0.886047 0.327906 . .
H56_8 H 0.0943203 0.937923 0.575876 . .
H57_8 H 0.0546829 0.914227 0.412834 . .
H58_8 H 0.130355 0.890788 0.559806 . .
H59_8 H 0.105779 0.97568 0.513201 . .
H60_8 H 0.272876 0.996365 0.372304 . .
H77_8 H 0.153272 0.988094 0.412849 . .
O26_8 O 0.995817 0.953057 0.416552 0.0127 Uiso
C116_8 C 0.985438 0.905445 0.361950 0.0127 Uiso
H44_8 H 0.988094 0.834822 0.587151 . .
H63_8 H 0.993801 0.887818 0.368484 . .
H64_8 H 0.959755 0.895046 0.371915 . .
H65_8 H 0.987175 0.910405 0.328845 . .
O11_9 O 0.004183 0.046943 0.583448 0.0127 Uiso
C56_9 C 0.014562 0.094555 0.638050 0.0127 Uiso
Nb2_9 Nb 0.011424 0.200276 0.587747 0.0063 Uiso
C76_9 C 0.043357 0.196711 0.541837 0.0127 Uiso
C77_9 C 0.032887 0.253198 0.590931 0.0127 Uiso
C78_9 C 0.005498 0.202546 0.653949 0.0127 Uiso
C79_9 C 0.011525 0.156860 0.613365 0.0127 Uiso
C80_9 C 0.000926 0.216051 0.527942 0.0127 Uiso
C82_9 C 0.060511 0.220183 0.615394 0.0127 Uiso
N24_9 N 0.061294 0.195244 0.519080 0.0127 Uiso
N25_9 N 0.044147 0.281662 0.591126 0.0127 Uiso
N26_9 N 0.003830 0.203533 0.689835 0.0127 Uiso
N27_9 N 0.011613 0.133869 0.626476 0.0127 Uiso
N30_9 N 0.086716 0.231984 0.630578 0.0127 Uiso
Fe6_11 Fe 0.069975 0.333333 0.583333 0.0063 Uiso
Fe7_10 Fe -0.000000 0.201830 0.750000 0.0063 Uiso
N31_9 N 0.106523 0.167575 0.546198 0.0127 Uiso
N32_9 N 0.138145 0.237889 0.510717 0.0127 Uiso
N33_9 N 0.091364 0.212916 0.428989 0.0127 Uiso
N34_9 N 0.057383 0.138471 0.464856 0.0127 Uiso
C91_9 C 0.085092 0.155723 0.578372 0.0127 Uiso
C92_9 C 0.135033 0.166489 0.549850 0.0127 Uiso
C93_9 C 0.168372 0.254262 0.491963 0.0127 Uiso
C94_9 C 0.133211 0.252248 0.544298 0.0127 Uiso
C95_9 C 0.074463 0.228248 0.429455 0.0127 Uiso
C96_9 C 0.105003 0.212572 0.391358 0.0127 Uiso
C97_9 C 0.062500 0.125996 0.429518 0.0127 Uiso
C98_9 C 0.028571 0.120205 0.484772 0.0127 Uiso
C99_9 C 0.090483 0.142591 0.614820 0.0127 Uiso
C100_9 C 0.142020 0.153729 0.585312 0.0127 Uiso
C101_9 C 0.193488 0.284488 0.506098 0.0127 Uiso
C102_9 C 0.157902 0.282858 0.559805 0.0127 Uiso
C103_9 C 0.070988 0.242946 0.393589 0.0127 Uiso
C104_9 C 0.102164 0.226466 0.356204 0.0127 Uiso
C105_9 C 0.039359 0.095888 0.414285 0.0127 Uiso
C106_9 C 0.003689 0.089163 0.471059 0.0127 Uiso
O20_9 O 0.067885 0.130694 0.647133 0.0127 Uiso
C107_9 C 0.119435 0.141465 0.618666 0.0127 Uiso
O21_9 O 0.222720 0.297719 0.483284 0.0127 Uiso
C108_9 C 0.188256 0.299306 0.540952 0.0127 Uiso
O22_9 O 0.051847 0.259126 0.397752 0.0127 Uiso
C109_9 C 0.084501 0.242655 0.356084 0.0127 Uiso
O23_9 O 0.047410 0.085204 0.376714 0.0127 Uiso
C110_9 C 0.009119 0.076372 0.434450 0.0127 Uiso
C111_9 C 0.233979 0.323834 0.454779 0.0127 Uiso
C112_9 C 0.022661 0.242532 0.372715 0.0127 Uiso
C113_9 C 0.060324 0.068891 0.386593 0.0127 Uiso
O24_9 O 0.237827 0.351807 0.465685 0.0127 Uiso
C114_9 C 0.240430 0.315022 0.412725 0.0127 Uiso
O25_9 O 0.020191 0.222098 0.346709 0.0127 Uiso
O26_9 O 0.046943 0.042761 0.416552 0.0127 Uiso
C116_9 C 0.094555 0.079994 0.361950 0.0127 Uiso
H12_9 H 0.0128252 0.0895953 0.671155 . .
H13_9 H 0.0402453 0.104954 0.628085 . .
H14_9 H 0.0061987 0.112182 0.631516 . .
H40_9 H 0.207748 0.323132 0.552593 . .
H41_9 H 0.217596 0.294436 0.400385 . .
H42_9 H 0.249068 0.336421 0.392332 . .
H43_9 H 0.259333 0.307779 0.414776 . .
H44_9 H 0.165178 0.153272 0.587151 . .
H45_9 H 0.124667 0.131509 0.646338 . .
H47_9 H 0.0463986 0.11212 0.637101 . .
H48_9 H 0.0814149 0.254337 0.328541 . .
H49_9 H 0.172902 0.243146 0.46489 . .
H50_9 H 0.0628924 0.22965 0.458101 . .
H51_9 H 0.152916 0.293576 0.586925 . .
H52_9 H 0.152936 0.175763 0.524597 . .
H53_9 H 0.119372 0.199937 0.38988 . .
H55_9 H 0.113953 0.224782 0.327906 . .
H56_9 H 0.0620768 0.156397 0.575876 . .
H57_9 H 0.0857726 0.140455 0.412834 . .
H58_9 H 0.109212 0.239566 0.559806 . .
H59_9 H 0.0243204 0.1301 0.513201 . .
H60_9 H 0.00363454 0.27651 0.372304 . .
H63_9 H 0.112182 0.105984 0.368484 . .
H64_9 H 0.104954 0.0647087 0.371915 . .
H65_9 H 0.0895953 0.0767701 0.328845 . .
H77_9 H 0.0119061 0.165178 0.412849 . .
Nb1_9 Nb 0.811149 0.011424 0.412253 0.0063 Uiso
C1_9 C 0.846647 0.043357 0.458163 0.0127 Uiso
C2_9 C 0.779690 0.032887 0.409069 0.0127 Uiso
C3_9 C 0.802953 0.005498 0.346051 0.0127 Uiso
C5_9 C 0.854666 0.011525 0.386635 0.0127 Uiso
C6_9 C 0.784876 0.000926 0.472058 0.0127 Uiso
C8_9 C 0.840329 0.060511 0.384606 0.0127 Uiso
N1_9 N 0.866051 0.061294 0.480920 0.0127 Uiso
N2_9 N 0.762486 0.044147 0.408874 0.0127 Uiso
N3_9 N 0.800298 0.003830 0.310165 0.0127 Uiso
N5_9 N 0.877745 0.011613 0.373524 0.0127 Uiso
N8_9 N 0.854733 0.086716 0.369422 0.0127 Uiso
Fe1_9 Fe 0.908686 0.097367 0.512270 0.0063 Uiso
Fe2_11 Fe 0.736642 0.069975 0.416666 0.0063 Uiso
Fe3_10 Fe 0.798170 0.000000 0.250000 0.0063 Uiso
N9_9 N 0.938949 0.106523 0.453802 0.0127 Uiso
N10_9 N 0.900257 0.138145 0.489283 0.0127 Uiso
N11_9 N 0.878449 0.091364 0.571011 0.0127 Uiso
N12_9 N 0.918913 0.057383 0.535144 0.0127 Uiso
N13_9 N 0.769163 0.107944 0.368884 0.0127 Uiso
N14_9 N 0.700367 0.036719 0.368440 0.0127 Uiso
C9_9 C 0.929370 0.085092 0.421628 0.0127 Uiso
C10_9 C 0.968545 0.135033 0.450150 0.0127 Uiso
C11_9 C 0.914111 0.168372 0.508037 0.0127 Uiso
C12_9 C 0.880964 0.133211 0.455702 0.0127 Uiso
C13_9 C 0.846216 0.074463 0.570545 0.0127 Uiso
C14_9 C 0.892432 0.105003 0.608642 0.0127 Uiso
C15_9 C 0.936505 0.062500 0.570482 0.0127 Uiso
C16_9 C 0.908367 0.028571 0.515228 0.0127 Uiso
C17_9 C 0.796080 0.106893 0.355388 0.0127 Uiso
C18_9 C 0.763695 0.131403 0.352920 0.0127 Uiso
C19_9 C 0.687080 0.049255 0.341849 0.0127 Uiso
C20_9 C 0.691121 0.004023 0.364885 0.0127 Uiso
C25_9 C 0.947893 0.090483 0.385180 0.0127 Uiso
C26_9 C 0.988292 0.142020 0.414688 0.0127 Uiso
C27_9 C 0.909001 0.193488 0.493902 0.0127 Uiso
C28_9 C 0.875045 0.157902 0.440195 0.0127 Uiso
C29_9 C 0.828043 0.070988 0.606411 0.0127 Uiso
C30_9 C 0.875699 0.102164 0.643796 0.0127 Uiso
C31_9 C 0.943472 0.039359 0.585715 0.0127 Uiso
C32_9 C 0.914527 0.003689 0.528941 0.0127 Uiso
C33_9 C 0.818193 0.128527 0.326250 0.0127 Uiso
C34_9 C 0.785330 0.153975 0.323282 0.0127 Uiso
C35_9 C 0.664523 0.030309 0.311228 0.0127 Uiso
O1_9 O 0.937192 0.067885 0.352867 0.0127 Uiso
C41_9 C 0.977971 0.119435 0.381334 0.0127 Uiso
O2_9 O 0.925002 0.222720 0.516716 0.0127 Uiso
C42_9 C 0.888951 0.188256 0.459048 0.0127 Uiso
O3_9 O 0.792722 0.051847 0.602248 0.0127 Uiso
C43_9 C 0.841847 0.084501 0.643916 0.0127 Uiso
O4_9 O 0.962207 0.047410 0.623286 0.0127 Uiso
C44_9 C 0.932748 0.009119 0.565550 0.0127 Uiso
O5_9 O 0.845089 0.126578 0.313511 0.0127 Uiso
C45_9 C 0.812271 0.152835 0.309871 0.0127 Uiso
O6_9 O 0.651548 0.044232 0.284649 0.0127 Uiso
C49_9 C 0.910146 0.233979 0.545221 0.0127 Uiso
C50_9 C 0.780130 0.022661 0.627285 0.0127 Uiso
C51_9 C 0.991434 0.060324 0.613407 0.0127 Uiso
O9_9 O 0.886021 0.237827 0.534315 0.0127 Uiso
C54_9 C 0.925409 0.240430 0.587275 0.0127 Uiso
O10_9 O 0.798094 0.020191 0.653291 0.0127 Uiso
N17_9 N 0.952075 0.133619 0.542080 0.0127 Uiso
N18_9 N 0.774611 0.102496 0.464449 0.0127 Uiso
N19_9 N 0.703386 0.033700 0.464893 0.0127 Uiso
N20_9 N 0.710814 0.095819 0.424459 0.0127 Uiso
N21_9 N 0.784990 0.035359 0.246202 0.0127 Uiso
N22_9 N 0.846617 0.034866 0.245038 0.0127 Uiso
C59_9 C 0.972757 0.156208 0.558991 0.0127 Uiso
C60_9 C 0.773560 0.129413 0.477945 0.0127 Uiso
C61_9 C 0.798070 0.097028 0.480413 0.0127 Uiso
C62_9 C 0.715922 0.020413 0.491484 0.0127 Uiso
C63_9 C 0.670690 0.024454 0.468448 0.0127 Uiso
C64_9 C 0.796902 0.058918 0.215919 0.0127 Uiso
C65_9 C 0.763564 0.036498 0.274142 0.0127 Uiso
C66_9 C 0.861056 0.061980 0.269767 0.0127 Uiso
C67_9 C 0.866057 0.031502 0.215865 0.0127 Uiso
C68_9 C 0.795194 0.151526 0.507083 0.0127 Uiso
C69_9 C 0.820642 0.118663 0.510051 0.0127 Uiso
C71_9 C 0.650114 0.002220 0.497944 0.0127 Uiso
C72_9 C 0.788076 0.082988 0.213094 0.0127 Uiso
C73_9 C 0.754158 0.059927 0.272493 0.0127 Uiso
C74_9 C 0.894118 0.085364 0.265745 0.0127 Uiso
C75_9 C 0.899252 0.054372 0.210868 0.0127 Uiso
C81_9 C 0.966693 0.202840 0.599905 0.0127 Uiso
O14_9 O 0.793245 0.178422 0.519822 0.0127 Uiso
C83_9 C 0.819502 0.145604 0.523462 0.0127 Uiso
O16_9 O 0.802123 0.106032 0.180303 0.0127 Uiso
C85_9 C 0.766316 0.084054 0.241564 0.0127 Uiso
O17_9 O 0.907597 0.113003 0.292471 0.0127 Uiso
C86_9 C 0.913821 0.081919 0.236108 0.0127 Uiso
N28_9 N 0.995985 0.224761 0.496348 0.0127 Uiso
N29_9 N 0.943044 0.204232 0.607271 0.0127 Uiso
C87_9 C 0.781491 0.111785 0.156055 0.0127 Uiso
C88_9 C 0.916209 0.143391 0.275608 0.0127 Uiso
Fe7_11 Fe 1.000000 0.201830 0.750000 0.0063 Uiso
O18_9 O 0.754485 0.089725 0.145465 0.0127 Uiso
C89_9 C 0.792748 0.146669 0.142094 0.0127 Uiso
O19_9 O 0.901118 0.146098 0.246471 0.0127 Uiso
C90_9 C 0.945558 0.174673 0.293932 0.0127 Uiso
C115_9 C 0.994321 0.250263 0.378317 0.0127 Uiso
H1_9 H 0.799656 0.0755245 0.470273 . .
H2_9 H 0.814031 0.0586549 0.193142 . .
H3_9 H 0.951554 0.259333 0.585224 . .
H4_9 H 0.912647 0.249068 0.607668 . .
H5_9 H 0.92316 0.217596 0.599615 . .
H6_9 H 0.753611 0.01798 0.29868 . .
H7_9 H 0.854807 0.00981701 0.195734 . .
H11_9 H 0.846211 0.0653339 0.293282 . .
H15_9 H 0.754574 0.134048 0.465181 . .
H19_9 H 0.742045 0.0276849 0.488838 . .
H20_9 H 0.660356 0.035055 0.447115 . .
H23_9 H 0.727124 0.00363454 0.627696 . .
H24_9 H 0.913812 0.0507135 0.187229 . .
H25_9 H 0.837091 0.16224 0.546439 . .
H26_9 H 0.737001 0.0598003 0.295528 . .
H27_9 H 0.839446 0.113609 0.522469 . .
H28_9 H 0.771111 0.170903 0.532379 . .
H31_9 H 0.729311 0.0032105 0.564357 . .
H32_9 H 0.759034 0.10294 0.239833 . .
H33_9 H 0.940007 0.100445 0.232922 . .
H34_9 H 0.968005 0.17294 0.291467 . .
H35_9 H 0.948923 0.1964 0.27701 . .
H36_9 H 0.940626 0.176933 0.326355 . .
H37_9 H 0.815436 0.155919 0.123997 . .
H38_9 H 0.773469 0.146852 0.123149 . .
H39_9 H 0.797496 0.162511 0.169019 . .
H46_9 H 0.98064 0.0752234 0.488345 . .
H54_9 H 0.990571 0.0522887 0.422298 . .
H61_9 H 0.974342 0.23536 0.356733 . .
H62_9 H 0.984947 0.244385 0.409875 . .
H66_9 H 0.800715 0.0879074 0.368152 . .
H67_9 H 0.919435 0.119372 0.61012 . .
H69_9 H 0.894221 0.0243204 0.486799 . .
H70_9 H 0.859339 0.152916 0.413075 . .
H71_9 H 0.889171 0.113953 0.672094 . .
H72_9 H 0.694352 0.0753781 0.344496 . .
H74_9 H 0.869645 0.109212 0.440194 . .
H75_9 H 0.833242 0.0628924 0.541899 . .
H79_9 H 0.929757 0.172902 0.53511 . .
H81_9 H 0.90568 0.0620768 0.424124 . .
H82_9 H 0.742191 0.132989 0.36306 . .
H84_9 H 0.977173 0.152936 0.475403 . .
H85_9 H 0.780276 0.172779 0.310864 . .
H86_9 H 0.945317 0.0857726 0.587166 . .
H87_9 H 0.83757 0.104445 0.300954 . .
H88_9 H 0.915676 0.0644868 0.342212 . .
H90_9 H 0.884616 0.207748 0.447407 . .
H91_9 H 0.827078 0.0814149 0.671459 . .
H94_9 H 0.993158 0.124667 0.353662 . .
H95_9 H 0.828907 0.170424 0.286894 . .
H98_9 H 0.669877 0.0626443 0.268976 . .
C4_9 C 0.816550 0.972757 0.441009 0.0127 Uiso
C7_9 C 0.763854 0.966693 0.400095 0.0127 Uiso
N6_9 N 0.771225 0.995985 0.503652 0.0127 Uiso
N7_9 N 0.738813 0.943044 0.392729 0.0127 Uiso
Fe3_11 Fe 0.798170 1.000000 0.250000 0.0063 Uiso
N15_9 N 0.749632 0.964641 0.253798 0.0127 Uiso
N16_9 N 0.811752 0.965134 0.254962 0.0127 Uiso
C21_9 C 0.737985 0.941082 0.284081 0.0127 Uiso
C22_9 C 0.727067 0.963502 0.225858 0.0127 Uiso
C23_9 C 0.799077 0.938020 0.230233 0.0127 Uiso
C24_9 C 0.834556 0.968498 0.284135 0.0127 Uiso
C36_9 C 0.668887 0.983447 0.335389 0.0127 Uiso
C37_9 C 0.705089 0.917012 0.286906 0.0127 Uiso
C38_9 C 0.694232 0.940073 0.227507 0.0127 Uiso
C39_9 C 0.808755 0.914636 0.234255 0.0127 Uiso
C40_9 C 0.844881 0.945628 0.289132 0.0127 Uiso
C46_9 C 0.655225 0.996664 0.307934 0.0127 Uiso
O7_9 O 0.696092 0.893968 0.319697 0.0127 Uiso
C47_9 C 0.682263 0.915946 0.258436 0.0127 Uiso
O8_9 O 0.794595 0.886997 0.207529 0.0127 Uiso
C48_9 C 0.831903 0.918081 0.263892 0.0127 Uiso
C52_9 C 0.669707 0.888215 0.343945 0.0127 Uiso
C53_9 C 0.772819 0.856609 0.224392 0.0127 Uiso
C55_9 C 0.744059 0.994321 0.621683 0.0127 Uiso
O12_9 O 0.664761 0.910275 0.354535 0.0127 Uiso
C57_9 C 0.646080 0.853331 0.357906 0.0127 Uiso
O13_9 O 0.755021 0.853902 0.253529 0.0127 Uiso
C58_9 C 0.770886 0.825327 0.206068 0.0127 Uiso
N23_9 N 0.796467 0.996170 0.189835 0.0127 Uiso
C70_9 C 0.696976 0.997856 0.522105 0.0127 Uiso
O15_9 O 0.710899 0.984881 0.548684 0.0127 Uiso
C84_9 C 0.663331 0.988558 0.525399 0.0127 Uiso
H8_9 H 0.659516 0.844081 0.376003 . .
H9_9 H 0.626618 0.853148 0.376851 . .
H10_9 H 0.634985 0.837489 0.330981 . .
H16_9 H 0.795065 0.82706 0.208533 . .
H17_9 H 0.752523 0.8036 0.22299 . .
H18_9 H 0.763693 0.823067 0.173645 . .
H21_9 H 0.740562 0.984947 0.590125 . .
H22_9 H 0.738981 0.974342 0.643267 . .
H29_9 H 0.647706 0.970941 0.549011 . .
H30_9 H 0.624083 0.99543 0.499826 . .
H68_9 H 0.780877 0.934666 0.206718 . .
H73_9 H 0.735631 0.98202 0.20132 . .
H76_9 H 0.84499 0.990183 0.304266 . .
H78_9 H 0.701722 0.993689 0.386218 . .
H80_9 H 0.905417 0.98064 0.511655 . .
H83_9 H 0.755376 0.941345 0.306858 . .
H89_9 H 0.662097 0.957416 0.333507 . .
H92_9 H 0.938282 0.990571 0.577702 . .
H93_9 H 0.637607 0.981039 0.284323 . .
H96_9 H 0.839562 0.899555 0.267078 . .
H97_9 H 0.677201 0.9402 0.204472 . .
H99_9 H 0.863098 0.949287 0.312771 . .
H100_9 H 0.656094 0.89706 0.260167 . .
Nb1_10 Nb 0.466391 0.321909 0.421080 0.0063 Uiso
C1_10 C 0.469956 0.289976 0.375170 0.0127 Uiso
C2_10 C 0.413469 0.300446 0.424264 0.0127 Uiso
C3_10 C 0.464121 0.327835 0.487282 0.0127 Uiso
C4_10 C 0.510459 0.360576 0.392324 0.0127 Uiso
C5_10 C 0.509807 0.321808 0.446698 0.0127 Uiso
C6_10 C 0.450616 0.332407 0.361275 0.0127 Uiso
C7_10 C 0.463827 0.366640 0.433238 0.0127 Uiso
C8_10 C 0.446484 0.272822 0.448727 0.0127 Uiso
N1_10 N 0.471423 0.272039 0.352413 0.0127 Uiso
N4_7 N 0.533048 0.381258 0.375413 0.0127 Uiso
N5_10 N 0.532798 0.321720 0.459809 0.0127 Uiso
N6_10 N 0.441906 0.337348 0.329681 0.0127 Uiso
N7_10 N 0.462435 0.390289 0.440604 0.0127 Uiso
N8_10 N 0.434683 0.246617 0.463911 0.0127 Uiso
Fe1_10 Fe 0.477985 0.235966 0.321063 0.0063 Uiso
N9_10 N 0.499092 0.226810 0.379531 0.0127 Uiso
N10_10 N 0.428778 0.195188 0.344050 0.0127 Uiso
N11_10 N 0.453751 0.241969 0.262322 0.0127 Uiso
N12_10 N 0.528196 0.275950 0.298189 0.0127 Uiso
C9_10 C 0.510944 0.248241 0.411705 0.0127 Uiso
C10_10 C 0.500178 0.198300 0.383183 0.0127 Uiso
C11_10 C 0.412405 0.164961 0.325296 0.0127 Uiso
C12_10 C 0.414419 0.200122 0.377631 0.0127 Uiso
C13_10 C 0.438419 0.258870 0.262788 0.0127 Uiso
C14_10 C 0.454095 0.228330 0.224691 0.0127 Uiso
C15_10 C 0.540671 0.270833 0.262851 0.0127 Uiso
C16_10 C 0.546462 0.304762 0.318105 0.0127 Uiso
C25_10 C 0.524076 0.242850 0.448153 0.0127 Uiso
C26_10 C 0.512938 0.191313 0.418645 0.0127 Uiso
C27_10 C 0.382179 0.139845 0.339431 0.0127 Uiso
C28_10 C 0.383809 0.175431 0.393138 0.0127 Uiso
C29_10 C 0.423721 0.262345 0.226922 0.0127 Uiso
C30_10 C 0.440201 0.231169 0.189537 0.0127 Uiso
C31_10 C 0.570779 0.293974 0.247618 0.0127 Uiso
C32_10 C 0.577504 0.329644 0.304392 0.0127 Uiso
O1_10 O 0.535973 0.265448 0.480466 0.0127 Uiso
C41_10 C 0.525202 0.213898 0.451999 0.0127 Uiso
O2_10 O 0.368948 0.110613 0.316617 0.0127 Uiso
C42_10 C 0.367361 0.145077 0.374285 0.0127 Uiso
O3_10 O 0.407541 0.281486 0.231085 0.0127 Uiso
C43_10 C 0.424012 0.248832 0.189417 0.0127 Uiso
O4_10 O 0.581463 0.285923 0.210047 0.0127 Uiso
C44_10 C 0.590295 0.324214 0.267783 0.0127 Uiso
C49_10 C 0.342833 0.099354 0.288112 0.0127 Uiso
C50_10 C 0.424135 0.310672 0.206048 0.0127 Uiso
C51_10 C 0.597776 0.273009 0.219926 0.0127 Uiso
O9_10 O 0.314860 0.095506 0.299018 0.0127 Uiso
C54_10 C 0.351645 0.092903 0.246058 0.0127 Uiso
O10_10 O 0.444569 0.313142 0.180042 0.0127 Uiso
C55_10 C 0.416404 0.339012 0.211650 0.0127 Uiso
O11_10 O 0.623906 0.286390 0.249885 0.0127 Uiso
C56_10 C 0.586673 0.238778 0.195283 0.0127 Uiso
Fe4_7 Fe 0.569299 0.424648 0.345604 0.0063 Uiso
N17_10 N 0.485123 0.199715 0.291254 0.0127 Uiso
C59_10 C 0.483216 0.177126 0.274343 0.0127 Uiso
Nb2_10 Nb 0.477815 0.133058 0.245587 0.0063 Uiso
C76_10 C 0.513313 0.136623 0.291497 0.0127 Uiso
C77_10 C 0.446356 0.080136 0.242403 0.0127 Uiso
C78_10 C 0.469619 0.130788 0.179385 0.0127 Uiso
C79_10 C 0.521332 0.176474 0.219969 0.0127 Uiso
C80_10 C 0.451542 0.117283 0.305392 0.0127 Uiso
C81_10 C 0.430520 0.130494 0.233429 0.0127 Uiso
C82_10 C 0.506995 0.113151 0.217940 0.0127 Uiso
N24_10 N 0.532717 0.138090 0.314254 0.0127 Uiso
N25_10 N 0.429152 0.051672 0.242208 0.0127 Uiso
N26_10 N 0.466964 0.129801 0.143499 0.0127 Uiso
N27_10 N 0.544411 0.199465 0.206858 0.0127 Uiso
N28_10 N 0.437891 0.108573 0.336986 0.0127 Uiso
N29_10 N 0.405479 0.129102 0.226063 0.0127 Uiso
N30_10 N 0.521399 0.101350 0.202756 0.0127 Uiso
Fe5_4 Fe 0.575352 0.144652 0.345604 0.0063 Uiso
N31_10 N 0.605615 0.165759 0.287136 0.0127 Uiso
N32_10 N 0.566923 0.095445 0.322617 0.0127 Uiso
N33_10 N 0.545115 0.120418 0.404345 0.0127 Uiso
N34_10 N 0.585579 0.194863 0.368478 0.0127 Uiso
N35_4 N 0.618742 0.151790 0.375413 0.0127 Uiso
C91_10 C 0.596036 0.177611 0.254962 0.0127 Uiso
C92_10 C 0.635211 0.166845 0.283484 0.0127 Uiso
C93_10 C 0.580777 0.079072 0.341371 0.0127 Uiso
C94_10 C 0.547630 0.081086 0.289036 0.0127 Uiso
C95_10 C 0.512882 0.105086 0.403879 0.0127 Uiso
C96_10 C 0.559098 0.120762 0.441976 0.0127 Uiso
C97_10 C 0.603171 0.207338 0.403816 0.0127 Uiso
C98_10 C 0.575033 0.213129 0.348562 0.0127 Uiso
C99_10 C 0.614559 0.190743 0.218514 0.0127 Uiso
C100_10 C 0.654958 0.179605 0.248022 0.0127 Uiso
C101_10 C 0.575667 0.048846 0.327236 0.0127 Uiso
C102_10 C 0.541711 0.050476 0.273529 0.0127 Uiso
C103_10 C 0.494709 0.090388 0.439745 0.0127 Uiso
C104_10 C 0.542365 0.106868 0.477130 0.0127 Uiso
C105_10 C 0.610138 0.237446 0.419049 0.0127 Uiso
C106_10 C 0.581193 0.244171 0.362275 0.0127 Uiso
O20_10 O 0.603858 0.202640 0.186201 0.0127 Uiso
C107_10 C 0.644637 0.191869 0.214668 0.0127 Uiso
O21_10 O 0.591668 0.035615 0.350050 0.0127 Uiso
C108_10 C 0.555617 0.034028 0.292382 0.0127 Uiso
O22_10 O 0.459388 0.074208 0.435582 0.0127 Uiso
C109_10 C 0.508513 0.090679 0.477250 0.0127 Uiso
O23_10 O 0.628873 0.248130 0.456620 0.0127 Uiso
C110_10 C 0.599414 0.256962 0.398884 0.0127 Uiso
C111_10 C 0.576812 0.009500 0.378555 0.0127 Uiso
C112_10 C 0.446796 0.090802 0.460619 0.0127 Uiso
C113_10 C 0.658100 0.264443 0.446741 0.0127 Uiso
C114_10 C 0.592075 0.018312 0.420609 0.0127 Uiso
O25_10 O 0.464760 0.111236 0.486625 0.0127 Uiso
C115_10 C 0.410725 0.083071 0.455017 0.0127 Uiso
O26_10 O 0.670849 0.290573 0.416782 0.0127 Uiso
C116_10 C 0.681228 0.253340 0.471384 0.0127 Uiso
H3_10 H 0.358887 0.0740003 0.24811 . .
H4_10 H 0.330246 0.0842652 0.225665 . .
H5_10 H 0.372231 0.115737 0.233719 . .
H12_10 H 0.589897 0.243738 0.162178 . .
H13_10 H 0.601958 0.228379 0.205248 . .
H14_10 H 0.560683 0.221151 0.201817 . .
H21_10 H 0.422282 0.348387 0.243208 . .
H22_10 H 0.431307 0.358992 0.190066 . .
H23_10 H 0.390156 0.329699 0.205637 . .
H40_10 H 0.551282 0.0102013 0.28074 . .
H41_10 H 0.589827 0.0388972 0.432948 . .
H43_10 H 0.61822 0.0255541 0.418557 . .
H44_10 H 0.678573 0.180061 0.246182 . .
H45_10 H 0.659825 0.201825 0.186995 . .
H46_10 H 0.572083 0.25811 0.344989 . .
H47_10 H 0.600946 0.221214 0.196233 . .
H48_10 H 0.493745 0.0789966 0.504792 . .
H49_10 H 0.596424 0.0901878 0.368443 . .
H50_10 H 0.499909 0.103683 0.375233 . .
H51_10 H 0.526006 0.0397571 0.246408 . .
H52_10 H 0.643839 0.15757 0.308737 . .
H53_10 H 0.586102 0.133397 0.443453 . .
H54_10 H 0.604949 0.281045 0.411035 . .
H55_10 H 0.555838 0.108552 0.505428 . .
H56_10 H 0.572346 0.176936 0.257457 . .
H57_10 H 0.611984 0.192878 0.420499 . .
H58_10 H 0.536312 0.0937671 0.273527 . .
H59_10 H 0.560887 0.203234 0.320132 . .
H60_10 H 0.393791 0.0568229 0.461029 . .
H61_10 H 0.405648 0.0979732 0.476601 . .
H62_10 H 0.407229 0.0889487 0.423458 . .
H63_10 H 0.672865 0.22735 0.464849 . .
H64_10 H 0.706912 0.268625 0.461419 . .
H65_10 H 0.679492 0.256563 0.504488 . .
H67_10 H 0.46673 0.213961 0.223214 . .
H69_10 H 0.536567 0.309013 0.346535 . .
H70_10 H 0.37309 0.180418 0.420258 . .
H71_10 H 0.441885 0.219381 0.161239 . .
H74_10 H 0.4271 0.224122 0.39314 . .
H75_10 H 0.437017 0.270441 0.291434 . .
H77_10 H 0.513395 0.168155 0.420485 . .
H79_10 H 0.423521 0.160431 0.298223 . .
H80_10 H 0.591443 0.352693 0.321678 . .
H81_10 H 0.51027 0.271257 0.409209 . .
H84_10 H 0.490904 0.180398 0.35793 . .
H86_10 H 0.526211 0.247561 0.246168 . .
H88_10 H 0.517856 0.268847 0.491122 . .
H90_10 H 0.343535 0.125586 0.385927 . .
H91_10 H 0.41233 0.251918 0.161875 . .
H92_10 H 0.614378 0.342763 0.255632 . .
H94_10 H 0.535158 0.208666 0.479671 . .
O24_10 O 0.552687 0.981527 0.367649 0.0127 Uiso
H42_10 H 0.579314 0.996913 0.441002 . .
O24_11 O 0.018473 0.571161 0.367649 0.0127 Uiso
H42_11 H 0.00308749 0.582401 0.441002 . .
Nb1_11 Nb 0.678091 0.144482 0.421080 0.0063 Uiso
C1_11 C 0.710024 0.179980 0.375170 0.0127 Uiso
C2_11 C 0.699554 0.113023 0.424264 0.0127 Uiso
C3_11 C 0.672165 0.136286 0.487282 0.0127 Uiso
C4_11 C 0.639424 0.149883 0.392324 0.0127 Uiso
C5_11 C 0.678192 0.187999 0.446698 0.0127 Uiso
C6_11 C 0.667593 0.118209 0.361275 0.0127 Uiso
C7_11 C 0.633360 0.097187 0.433238 0.0127 Uiso
C8_11 C 0.727178 0.173662 0.448727 0.0127 Uiso
N1_11 N 0.727961 0.199384 0.352413 0.0127 Uiso
N5_11 N 0.678280 0.211078 0.459809 0.0127 Uiso
N6_11 N 0.662652 0.104558 0.329681 0.0127 Uiso
N7_11 N 0.609711 0.072146 0.440604 0.0127 Uiso
N8_11 N 0.753383 0.188066 0.463911 0.0127 Uiso
Fe1_11 Fe 0.764034 0.242019 0.321063 0.0063 Uiso
N9_11 N 0.773190 0.272282 0.379531 0.0127 Uiso
N10_11 N 0.804812 0.233590 0.344050 0.0127 Uiso
N11_11 N 0.758031 0.211782 0.262322 0.0127 Uiso
N12_11 N 0.724050 0.252246 0.298189 0.0127 Uiso
C9_11 C 0.751759 0.262703 0.411705 0.0127 Uiso
C10_11 C 0.801700 0.301878 0.383183 0.0127 Uiso
C11_11 C 0.835039 0.247444 0.325296 0.0127 Uiso
C12_11 C 0.799878 0.214297 0.377631 0.0127 Uiso
C13_11 C 0.741130 0.179549 0.262788 0.0127 Uiso
C14_11 C 0.771670 0.225765 0.224691 0.0127 Uiso
C15_11 C 0.729167 0.269838 0.262851 0.0127 Uiso
C16_11 C 0.695238 0.241700 0.318105 0.0127 Uiso
C25_11 C 0.757150 0.281226 0.448153 0.0127 Uiso
C26_11 C 0.808687 0.321625 0.418645 0.0127 Uiso
C27_11 C 0.860155 0.242334 0.339431 0.0127 Uiso
C28_11 C 0.824569 0.208378 0.393138 0.0127 Uiso
C29_11 C 0.737655 0.161376 0.226922 0.0127 Uiso
C30_11 C 0.768831 0.209032 0.189537 0.0127 Uiso
C31_11 C 0.706026 0.276805 0.247618 0.0127 Uiso
C32_11 C 0.670356 0.247860 0.304392 0.0127 Uiso
O1_11 O 0.734552 0.270525 0.480466 0.0127 Uiso
C41_11 C 0.786102 0.311304 0.451999 0.0127 Uiso
O2_11 O 0.889387 0.258335 0.316617 0.0127 Uiso
C42_11 C 0.854923 0.222284 0.374285 0.0127 Uiso
O3_11 O 0.718514 0.126055 0.231085 0.0127 Uiso
C43_11 C 0.751168 0.175180 0.189417 0.0127 Uiso
O4_11 O 0.714077 0.295540 0.210047 0.0127 Uiso
C44_11 C 0.675786 0.266081 0.267783 0.0127 Uiso
C49_11 C 0.900646 0.243479 0.288112 0.0127 Uiso
C50_11 C 0.689328 0.113463 0.206048 0.0127 Uiso
C51_11 C 0.726991 0.324767 0.219926 0.0127 Uiso
O9_11 O 0.904494 0.219354 0.299018 0.0127 Uiso
C54_11 C 0.907097 0.258742 0.246058 0.0127 Uiso
O10_11 O 0.686858 0.131427 0.180042 0.0127 Uiso
C55_11 C 0.660988 0.077392 0.211650 0.0127 Uiso
O11_11 O 0.713610 0.337516 0.249885 0.0127 Uiso
C56_11 C 0.761222 0.347895 0.195283 0.0127 Uiso
N17_11 N 0.800285 0.285409 0.291254 0.0127 Uiso
C59_11 C 0.822874 0.306091 0.274343 0.0127 Uiso
Nb2_11 Nb 0.866942 0.344758 0.245587 0.0063 Uiso
C76_11 C 0.863377 0.376691 0.291497 0.0127 Uiso
C77_11 C 0.919864 0.366221 0.242403 0.0127 Uiso
C78_11 C 0.869212 0.338832 0.179385 0.0127 Uiso
C79_11 C 0.823526 0.344859 0.219969 0.0127 Uiso
C80_11 C 0.882717 0.334260 0.305392 0.0127 Uiso
C81_11 C 0.869506 0.300027 0.233429 0.0127 Uiso
C82_11 C 0.886849 0.393845 0.217940 0.0127 Uiso
N24_11 N 0.861910 0.394628 0.314254 0.0127 Uiso
N25_11 N 0.948328 0.377481 0.242208 0.0127 Uiso
N26_11 N 0.870199 0.337164 0.143499 0.0127 Uiso
N27_11 N 0.800535 0.344947 0.206858 0.0127 Uiso
N28_11 N 0.891427 0.329319 0.336986 0.0127 Uiso
N29_11 N 0.870898 0.276378 0.226063 0.0127 Uiso
N30_11 N 0.898650 0.420050 0.202756 0.0127 Uiso
Fe5_5 Fe 0.855348 0.430701 0.345604 0.0063 Uiso
N31_11 N 0.834241 0.439857 0.287136 0.0127 Uiso
N32_11 N 0.904555 0.471479 0.322617 0.0127 Uiso
N33_11 N 0.879582 0.424698 0.404345 0.0127 Uiso
N34_11 N 0.805137 0.390717 0.368478 0.0127 Uiso
N35_5 N 0.848210 0.466952 0.375413 0.0127 Uiso
C91_11 C 0.822389 0.418426 0.254962 0.0127 Uiso
C92_11 C 0.833155 0.468367 0.283484 0.0127 Uiso
C93_11 C 0.920928 0.501706 0.341371 0.0127 Uiso
C94_11 C 0.918914 0.466545 0.289036 0.0127 Uiso
C95_11 C 0.894914 0.407797 0.403879 0.0127 Uiso
C96_11 C 0.879238 0.438337 0.441976 0.0127 Uiso
C97_11 C 0.792662 0.395834 0.403816 0.0127 Uiso
C98_11 C 0.786871 0.361905 0.348562 0.0127 Uiso
C99_11 C 0.809257 0.423817 0.218514 0.0127 Uiso
C100_11 C 0.820395 0.475354 0.248022 0.0127 Uiso
C101_11 C 0.951154 0.526822 0.327236 0.0127 Uiso
C102_11 C 0.949524 0.491236 0.273529 0.0127 Uiso
C103_11 C 0.909612 0.404322 0.439745 0.0127 Uiso
C104_11 C 0.893132 0.435498 0.477130 0.0127 Uiso
C105_11 C 0.762554 0.372693 0.419049 0.0127 Uiso
C106_11 C 0.755829 0.337023 0.362275 0.0127 Uiso
O20_11 O 0.797360 0.401219 0.186201 0.0127 Uiso
C107_11 C 0.808131 0.452769 0.214668 0.0127 Uiso
O21_11 O 0.964385 0.556054 0.350050 0.0127 Uiso
C108_11 C 0.965972 0.521590 0.292382 0.0127 Uiso
O22_11 O 0.925792 0.385181 0.435582 0.0127 Uiso
C109_11 C 0.909321 0.417835 0.477250 0.0127 Uiso
O23_11 O 0.751870 0.380744 0.456620 0.0127 Uiso
C110_11 C 0.743038 0.342453 0.398884 0.0127 Uiso
C111_11 C 0.990500 0.567313 0.378555 0.0127 Uiso
C112_11 C 0.909198 0.355995 0.460619 0.0127 Uiso
C113_11 C 0.735557 0.393658 0.446741 0.0127 Uiso
C114_11 C 0.981688 0.573764 0.420609 0.0127 Uiso
O25_11 O 0.888764 0.353525 0.486625 0.0127 Uiso
C115_11 C 0.916929 0.327655 0.455017 0.0127 Uiso
O26_11 O 0.709427 0.380277 0.416782 0.0127 Uiso
C116_11 C 0.746660 0.427889 0.471384 0.0127 Uiso
H3_11 H 0.926 0.284887 0.24811 . .
H4_11 H 0.915735 0.245981 0.225665 . .
H5_11 H 0.884263 0.256493 0.233719 . .
H12_11 H 0.756262 0.346159 0.162178 . .
H13_11 H 0.771621 0.373579 0.205248 . .
H14_11 H 0.778849 0.339532 0.201817 . .
H21_11 H 0.651613 0.0738952 0.243208 . .
H22_11 H 0.641008 0.0723148 0.190066 . .
H23_11 H 0.670301 0.0604575 0.205637 . .
H40_11 H 0.989799 0.541081 0.28074 . .
H41_11 H 0.961103 0.55093 0.432948 . .
H43_11 H 0.974446 0.592666 0.418557 . .
H44_11 H 0.819939 0.498511 0.246182 . .
H45_11 H 0.798175 0.458 0.186995 . .
H46_11 H 0.74189 0.313974 0.344989 . .
H47_11 H 0.778786 0.379732 0.196233 . .
H48_11 H 0.921003 0.414748 0.504792 . .
H49_11 H 0.909812 0.506236 0.368443 . .
H50_11 H 0.896317 0.396226 0.375233 . .
H51_11 H 0.960243 0.486249 0.246408 . .
H52_11 H 0.84243 0.486269 0.308737 . .
H53_11 H 0.866603 0.452705 0.443453 . .
H54_11 H 0.718955 0.323904 0.411035 . .
H55_11 H 0.891448 0.447286 0.505428 . .
H56_11 H 0.823064 0.39541 0.257457 . .
H57_11 H 0.807122 0.419106 0.420499 . .
H58_11 H 0.906233 0.442545 0.273527 . .
H59_11 H 0.796766 0.357654 0.320132 . .
H60_11 H 0.943177 0.336968 0.461029 . .
H61_11 H 0.902027 0.307675 0.476601 . .
H62_11 H 0.911051 0.31828 0.423458 . .
H63_11 H 0.77265 0.445516 0.464849 . .
H64_11 H 0.731375 0.438287 0.461419 . .
H65_11 H 0.743437 0.422929 0.504488 . .
H67_11 H 0.786039 0.252769 0.223214 . .
H69_11 H 0.690987 0.227554 0.346535 . .
H70_11 H 0.819582 0.192673 0.420258 . .
H71_11 H 0.780619 0.222504 0.161239 . .
H74_11 H 0.775878 0.202979 0.39314 . .
H75_11 H 0.729559 0.166576 0.291434 . .
H77_11 H 0.831845 0.345239 0.420485 . .
H79_11 H 0.839569 0.26309 0.298223 . .
H80_11 H 0.647307 0.23875 0.321678 . .
H81_11 H 0.728743 0.239013 0.409209 . .
H84_11 H 0.819602 0.310506 0.35793 . .
H86_11 H 0.752439 0.27865 0.246168 . .
H88_11 H 0.731153 0.249009 0.491122 . .
H90_11 H 0.874414 0.217949 0.385927 . .
H91_11 H 0.748082 0.160412 0.161875 . .
H92_11 H 0.657237 0.271616 0.255632 . .
H94_11 H 0.791334 0.326492 0.479671 . .
Nb1_12 Nb 0.855518 0.533609 0.421080 0.0063 Uiso
C1_12 C 0.820020 0.530044 0.375170 0.0127 Uiso
C2_12 C 0.886977 0.586531 0.424264 0.0127 Uiso
C3_12 C 0.863714 0.535879 0.487282 0.0127 Uiso
C4_12 C 0.850117 0.489541 0.392324 0.0127 Uiso
C5_12 C 0.812001 0.490193 0.446698 0.0127 Uiso
C6_12 C 0.881791 0.549384 0.361275 0.0127 Uiso
C7_12 C 0.902813 0.536173 0.433238 0.0127 Uiso
C8_12 C 0.826338 0.553516 0.448727 0.0127 Uiso
N1_12 N 0.800616 0.528577 0.352413 0.0127 Uiso
N5_12 N 0.788922 0.467202 0.459809 0.0127 Uiso
N6_12 N 0.895442 0.558094 0.329681 0.0127 Uiso
N7_12 N 0.927854 0.537565 0.440604 0.0127 Uiso
N8_12 N 0.811934 0.565317 0.463911 0.0127 Uiso
Fe1_12 Fe 0.757981 0.522015 0.321063 0.0063 Uiso
N9_12 N 0.727718 0.500908 0.379531 0.0127 Uiso
N10_12 N 0.766410 0.571222 0.344050 0.0127 Uiso
N11_12 N 0.788218 0.546249 0.262322 0.0127 Uiso
N12_12 N 0.747754 0.471804 0.298189 0.0127 Uiso
C9_12 C 0.737297 0.489056 0.411705 0.0127 Uiso
C10_12 C 0.698122 0.499822 0.383183 0.0127 Uiso
C11_12 C 0.752556 0.587595 0.325296 0.0127 Uiso
C12_12 C 0.785703 0.585581 0.377631 0.0127 Uiso
C13_12 C 0.820451 0.561581 0.262788 0.0127 Uiso
C14_12 C 0.774235 0.545905 0.224691 0.0127 Uiso
C15_12 C 0.730162 0.459329 0.262851 0.0127 Uiso
C16_12 C 0.758300 0.453538 0.318105 0.0127 Uiso
C25_12 C 0.718774 0.475924 0.448153 0.0127 Uiso
C26_12 C 0.678375 0.487062 0.418645 0.0127 Uiso
C27_12 C 0.757666 0.617821 0.339431 0.0127 Uiso
C28_12 C 0.791622 0.616191 0.393138 0.0127 Uiso
C29_12 C 0.838624 0.576279 0.226922 0.0127 Uiso
C30_12 C 0.790968 0.559799 0.189537 0.0127 Uiso
C31_12 C 0.723195 0.429221 0.247618 0.0127 Uiso
C32_12 C 0.752140 0.422496 0.304392 0.0127 Uiso
O1_12 O 0.729475 0.464027 0.480466 0.0127 Uiso
C41_12 C 0.688696 0.474798 0.451999 0.0127 Uiso
O2_12 O 0.741665 0.631052 0.316617 0.0127 Uiso
C42_12 C 0.777716 0.632639 0.374285 0.0127 Uiso
O3_12 O 0.873945 0.592459 0.231085 0.0127 Uiso
C43_12 C 0.824820 0.575988 0.189417 0.0127 Uiso
O4_12 O 0.704460 0.418537 0.210047 0.0127 Uiso
C44_12 C 0.733919 0.409705 0.267783 0.0127 Uiso
C49_12 C 0.756521 0.657167 0.288112 0.0127 Uiso
C50_12 C 0.886537 0.575865 0.206048 0.0127 Uiso
C51_12 C 0.675233 0.402224 0.219926 0.0127 Uiso
O9_12 O 0.780646 0.685140 0.299018 0.0127 Uiso
C54_12 C 0.741258 0.648355 0.246058 0.0127 Uiso
O10_12 O 0.868573 0.555431 0.180042 0.0127 Uiso
C55_12 C 0.922608 0.583596 0.211650 0.0127 Uiso
O11_12 O 0.662484 0.376094 0.249885 0.0127 Uiso
C56_12 C 0.652105 0.413327 0.195283 0.0127 Uiso
N17_12 N 0.714591 0.514877 0.291254 0.0127 Uiso
C59_12 C 0.693909 0.516784 0.274343 0.0127 Uiso
Nb2_12 Nb 0.655242 0.522185 0.245587 0.0063 Uiso
C76_12 C 0.623309 0.486687 0.291497 0.0127 Uiso
C77_12 C 0.633779 0.553644 0.242403 0.0127 Uiso
C78_12 C 0.661168 0.530381 0.179385 0.0127 Uiso
C79_12 C 0.655141 0.478668 0.219969 0.0127 Uiso
C80_12 C 0.665740 0.548458 0.305392 0.0127 Uiso
C81_12 C 0.699973 0.569480 0.233429 0.0127 Uiso
C82_12 C 0.606155 0.493005 0.217940 0.0127 Uiso
N24_12 N 0.605372 0.467283 0.314254 0.0127 Uiso
N25_12 N 0.622519 0.570848 0.242208 0.0127 Uiso
N26_12 N 0.662836 0.533036 0.143499 0.0127 Uiso
N27_12 N 0.655053 0.455589 0.206858 0.0127 Uiso
N28_12 N 0.670681 0.562109 0.336986 0.0127 Uiso
N29_12 N 0.723622 0.594521 0.226063 0.0127 Uiso
N30_12 N 0.579950 0.478601 0.202756 0.0127 Uiso
N31_12 N 0.560143 0.394385 0.287136 0.0127 Uiso
N32_12 N 0.528521 0.433077 0.322617 0.0127 Uiso
N33_12 N 0.575302 0.454885 0.404345 0.0127 Uiso
N34_12 N 0.609283 0.414421 0.368478 0.0127 Uiso
C91_12 C 0.581574 0.403964 0.254962 0.0127 Uiso
C92_12 C 0.531633 0.364789 0.283484 0.0127 Uiso
C93_12 C 0.498294 0.419223 0.341371 0.0127 Uiso
C94_12 C 0.533455 0.452370 0.289036 0.0127 Uiso
C95_12 C 0.592203 0.487118 0.403879 0.0127 Uiso
C96_12 C 0.561663 0.440902 0.441976 0.0127 Uiso
C97_12 C 0.604166 0.396829 0.403816 0.0127 Uiso
C98_12 C 0.638095 0.424967 0.348562 0.0127 Uiso
C99_12 C 0.576183 0.385441 0.218514 0.0127 Uiso
C100_12 C 0.524646 0.345042 0.248022 0.0127 Uiso
C101_12 C 0.473178 0.424333 0.327236 0.0127 Uiso
C102_12 C 0.508764 0.458289 0.273529 0.0127 Uiso
C103_12 C 0.595678 0.505291 0.439745 0.0127 Uiso
C104_12 C 0.564502 0.457635 0.477130 0.0127 Uiso
C105_12 C 0.627307 0.389862 0.419049 0.0127 Uiso
C106_12 C 0.662977 0.418807 0.362275 0.0127 Uiso
O20_12 O 0.598781 0.396142 0.186201 0.0127 Uiso
C107_12 C 0.547231 0.355363 0.214668 0.0127 Uiso
O21_12 O 0.443946 0.408332 0.350050 0.0127 Uiso
C108_12 C 0.478410 0.444383 0.292382 0.0127 Uiso
O22_12 O 0.614819 0.540612 0.435582 0.0127 Uiso
C109_12 C 0.582165 0.491487 0.477250 0.0127 Uiso
O23_12 O 0.619256 0.371127 0.456620 0.0127 Uiso
C110_12 C 0.657547 0.400586 0.398884 0.0127 Uiso
C111_12 C 0.432687 0.423188 0.378555 0.0127 Uiso
C112_12 C 0.644005 0.553204 0.460619 0.0127 Uiso
C113_12 C 0.606342 0.341900 0.446741 0.0127 Uiso
O24_12 O 0.428839 0.447313 0.367649 0.0127 Uiso
C114_12 C 0.426236 0.407925 0.420609 0.0127 Uiso
O25_12 O 0.646475 0.535240 0.486625 0.0127 Uiso
C115_12 C 0.672345 0.589275 0.455017 0.0127 Uiso
O26_12 O 0.619723 0.329151 0.416782 0.0127 Uiso
C116_12 C 0.572111 0.318772 0.471384 0.0127 Uiso
H3_12 H 0.715113 0.641113 0.24811 . .
H4_12 H 0.754019 0.669754 0.225665 . .
H5_12 H 0.743507 0.627769 0.233719 . .
H12_12 H 0.653841 0.410103 0.162178 . .
H13_12 H 0.626421 0.398042 0.205248 . .
H14_12 H 0.660468 0.439317 0.201817 . .
H21_12 H 0.926105 0.577718 0.243208 . .
H22_12 H 0.927685 0.568693 0.190066 . .
H23_12 H 0.939543 0.609844 0.205637 . .
H40_12 H 0.458919 0.448718 0.28074 . .
H41_12 H 0.44907 0.410173 0.432948 . .
H42_12 H 0.417599 0.420686 0.441002 . .
H43_12 H 0.407334 0.38178 0.418557 . .
H44_12 H 0.501489 0.321427 0.246182 . .
H45_12 H 0.542 0.340175 0.186995 . .
H46_12 H 0.686026 0.427917 0.344989 . .
H47_12 H 0.620268 0.399054 0.196233 . .
H48_12 H 0.585252 0.506255 0.504792 . .
H49_12 H 0.493764 0.403576 0.368443 . .
H50_12 H 0.603774 0.500091 0.375233 . .
H51_12 H 0.513751 0.473994 0.246408 . .
H52_12 H 0.513731 0.356161 0.308737 . .
H53_12 H 0.547295 0.413898 0.443453 . .
H54_12 H 0.676096 0.395051 0.411035 . .
H55_12 H 0.552714 0.444162 0.505428 . .
H56_12 H 0.60459 0.427654 0.257457 . .
H57_12 H 0.580894 0.388016 0.420499 . .
H58_12 H 0.557455 0.463688 0.273527 . .
H59_12 H 0.642346 0.439113 0.320132 . .
H60_12 H 0.663032 0.606209 0.461029 . .
H61_12 H 0.692325 0.594352 0.476601 . .
H62_12 H 0.68172 0.592771 0.423458 . .
H63_12 H 0.554484 0.327135 0.464849 . .
H64_12 H 0.561713 0.293088 0.461419 . .
H65_12 H 0.577071 0.320508 0.504488 . .
H67_12 H 0.747231 0.53327 0.223214 . .
H69_12 H 0.772446 0.463433 0.346535 . .
H70_12 H 0.807327 0.62691 0.420258 . .
H71_12 H 0.777496 0.558115 0.161239 . .
H74_12 H 0.797021 0.5729 0.39314 . .
H75_12 H 0.833424 0.562983 0.291434 . .
H77_12 H 0.654761 0.486605 0.420485 . .
H79_12 H 0.73691 0.576479 0.298223 . .
H80_12 H 0.76125 0.408557 0.321678 . .
H81_12 H 0.760987 0.48973 0.409209 . .
H84_12 H 0.689494 0.509096 0.35793 . .
H86_12 H 0.72135 0.473789 0.246168 . .
H88_12 H 0.750991 0.482144 0.491122 . .
H90_12 H 0.782051 0.656465 0.385927 . .
H91_12 H 0.839588 0.58767 0.161875 . .
H92_12 H 0.728384 0.385622 0.255632 . .
H94_12 H 0.673508 0.464842 0.479671 . .
Nb1_13 Nb 0.133058 0.655242 0.754413 0.0063 Uiso
C1_13 C 0.136623 0.623309 0.708503 0.0127 Uiso
C2_13 C 0.080136 0.633779 0.757597 0.0127 Uiso
C3_13 C 0.130788 0.661168 0.820615 0.0127 Uiso
C4_13 C 0.177126 0.693909 0.725657 0.0127 Uiso
C5_13 C 0.176474 0.655141 0.780031 0.0127 Uiso
C6_13 C 0.117283 0.665740 0.694608 0.0127 Uiso
C7_13 C 0.130494 0.699973 0.766571 0.0127 Uiso
C8_13 C 0.113151 0.606155 0.782060 0.0127 Uiso
N1_13 N 0.138090 0.605372 0.685746 0.0127 Uiso
N4_8 N 0.199715 0.714591 0.708746 0.0127 Uiso
N5_13 N 0.199465 0.655053 0.793142 0.0127 Uiso
N6_13 N 0.108573 0.670681 0.663014 0.0127 Uiso
N7_13 N 0.129102 0.723622 0.773937 0.0127 Uiso
N8_13 N 0.101350 0.579950 0.797244 0.0127 Uiso
Fe1_13 Fe 0.144652 0.569299 0.654396 0.0063 Uiso
N9_13 N 0.165759 0.560143 0.712864 0.0127 Uiso
N10_13 N 0.095445 0.528521 0.677383 0.0127 Uiso
N11_13 N 0.120418 0.575302 0.595655 0.0127 Uiso
N12_13 N 0.194863 0.609283 0.631522 0.0127 Uiso
C9_13 C 0.177611 0.581574 0.745038 0.0127 Uiso
C10_13 C 0.166845 0.531633 0.716516 0.0127 Uiso
C11_13 C 0.079072 0.498294 0.658629 0.0127 Uiso
C12_13 C 0.081086 0.533455 0.710964 0.0127 Uiso
C13_13 C 0.105086 0.592203 0.596121 0.0127 Uiso
C14_13 C 0.120762 0.561663 0.558024 0.0127 Uiso
C15_13 C 0.207338 0.604166 0.596184 0.0127 Uiso
C16_13 C 0.213129 0.638095 0.651438 0.0127 Uiso
C25_13 C 0.190743 0.576183 0.781486 0.0127 Uiso
C26_13 C 0.179605 0.524646 0.751978 0.0127 Uiso
C27_13 C 0.048846 0.473178 0.672764 0.0127 Uiso
C28_13 C 0.050476 0.508764 0.726471 0.0127 Uiso
C29_13 C 0.090388 0.595678 0.560255 0.0127 Uiso
C30_13 C 0.106868 0.564502 0.522870 0.0127 Uiso
C31_13 C 0.237446 0.627307 0.580951 0.0127 Uiso
C32_13 C 0.244171 0.662977 0.637725 0.0127 Uiso
O1_13 O 0.202640 0.598781 0.813799 0.0127 Uiso
C41_13 C 0.191869 0.547231 0.785332 0.0127 Uiso
O2_13 O 0.035615 0.443946 0.649950 0.0127 Uiso
C42_13 C 0.034028 0.478410 0.707618 0.0127 Uiso
O3_13 O 0.074208 0.614819 0.564418 0.0127 Uiso
C43_13 C 0.090679 0.582165 0.522750 0.0127 Uiso
O4_13 O 0.248130 0.619256 0.543380 0.0127 Uiso
C44_13 C 0.256962 0.657547 0.601116 0.0127 Uiso
C49_13 C 0.009500 0.432687 0.621445 0.0127 Uiso
C50_13 C 0.090802 0.644005 0.539381 0.0127 Uiso
C51_13 C 0.264443 0.606342 0.553259 0.0127 Uiso
C54_13 C 0.018312 0.426236 0.579391 0.0127 Uiso
O10_13 O 0.111236 0.646475 0.513375 0.0127 Uiso
C55_13 C 0.083071 0.672345 0.544983 0.0127 Uiso
O11_13 O 0.290573 0.619723 0.583218 0.0127 Uiso
C56_13 C 0.253340 0.572111 0.528616 0.0127 Uiso
Fe4_8 Fe 0.235966 0.757981 0.678937 0.0063 Uiso
N17_13 N 0.151790 0.533048 0.624587 0.0127 Uiso
C59_13 C 0.149883 0.510459 0.607676 0.0127 Uiso
Nb2_13 Nb 0.144482 0.466391 0.578920 0.0063 Uiso
C76_13 C 0.179980 0.469956 0.624830 0.0127 Uiso
C77_13 C 0.113023 0.413469 0.575736 0.0127 Uiso
C78_13 C 0.136286 0.464121 0.512718 0.0127 Uiso
C79_13 C 0.187999 0.509807 0.553302 0.0127 Uiso
C80_13 C 0.118209 0.450616 0.638725 0.0127 Uiso
C81_13 C 0.097187 0.463827 0.566762 0.0127 Uiso
C82_13 C 0.173662 0.446484 0.551273 0.0127 Uiso
N24_13 N 0.199384 0.471423 0.647587 0.0127 Uiso
N25_13 N 0.095819 0.385005 0.575541 0.0127 Uiso
N26_13 N 0.133631 0.463134 0.476832 0.0127 Uiso
N27_13 N 0.211078 0.532798 0.540191 0.0127 Uiso
N28_13 N 0.104558 0.441906 0.670319 0.0127 Uiso
N29_13 N 0.072146 0.462435 0.559396 0.0127 Uiso
N30_13 N 0.188066 0.434683 0.536089 0.0127 Uiso
Fe5_6 Fe 0.242019 0.477985 0.678937 0.0063 Uiso
N31_13 N 0.272282 0.499092 0.620469 0.0127 Uiso
N32_13 N 0.233590 0.428778 0.655950 0.0127 Uiso
N33_13 N 0.211782 0.453751 0.737678 0.0127 Uiso
N34_13 N 0.252246 0.528196 0.701811 0.0127 Uiso
N35_6 N 0.285409 0.485123 0.708746 0.0127 Uiso
C91_13 C 0.262703 0.510944 0.588295 0.0127 Uiso
C92_13 C 0.301878 0.500178 0.616817 0.0127 Uiso
C93_13 C 0.247444 0.412405 0.674704 0.0127 Uiso
C94_13 C 0.214297 0.414419 0.622369 0.0127 Uiso
C95_13 C 0.179549 0.438419 0.737212 0.0127 Uiso
C96_13 C 0.225765 0.454095 0.775309 0.0127 Uiso
C97_13 C 0.269838 0.540671 0.737149 0.0127 Uiso
C98_13 C 0.241700 0.546462 0.681895 0.0127 Uiso
C99_13 C 0.281226 0.524076 0.551847 0.0127 Uiso
C100_13 C 0.321625 0.512938 0.581355 0.0127 Uiso
C101_13 C 0.242334 0.382179 0.660569 0.0127 Uiso
C102_13 C 0.208378 0.383809 0.606862 0.0127 Uiso
C103_13 C 0.161376 0.423721 0.773078 0.0127 Uiso
C104_13 C 0.209032 0.440201 0.810463 0.0127 Uiso
C105_13 C 0.276805 0.570779 0.752382 0.0127 Uiso
C106_13 C 0.247860 0.577504 0.695608 0.0127 Uiso
O20_13 O 0.270525 0.535973 0.519534 0.0127 Uiso
C107_13 C 0.311304 0.525202 0.548001 0.0127 Uiso
O21_13 O 0.258335 0.368948 0.683383 0.0127 Uiso
C108_13 C 0.222284 0.367361 0.625715 0.0127 Uiso
O22_13 O 0.126055 0.407541 0.768915 0.0127 Uiso
C109_13 C 0.175180 0.424012 0.810583 0.0127 Uiso
O23_13 O 0.295540 0.581463 0.789953 0.0127 Uiso
C110_13 C 0.266081 0.590295 0.732217 0.0127 Uiso
C111_13 C 0.243479 0.342833 0.711888 0.0127 Uiso
C112_13 C 0.113463 0.424135 0.793952 0.0127 Uiso
C113_13 C 0.324767 0.597776 0.780074 0.0127 Uiso
O24_13 O 0.219354 0.314860 0.700982 0.0127 Uiso
C114_13 C 0.258742 0.351645 0.753942 0.0127 Uiso
O25_13 O 0.131427 0.444569 0.819958 0.0127 Uiso
C115_13 C 0.077392 0.416404 0.788350 0.0127 Uiso
O26_13 O 0.337516 0.623906 0.750115 0.0127 Uiso
C116_13 C 0.347895 0.586673 0.804717 0.0127 Uiso
H3_13 H 0.0255541 0.407334 0.581443 . .
H5_13 H 0.0388972 0.44907 0.567052 . .
H12_13 H 0.256563 0.577071 0.495512 . .
H13_13 H 0.268625 0.561713 0.538581 . .
H14_13 H 0.22735 0.554484 0.535151 . .
H21_13 H 0.0889487 0.68172 0.576542 . .
H22_13 H 0.0979732 0.692325 0.523399 . .
H23_13 H 0.0568229 0.663032 0.538971 . .
H40_13 H 0.217949 0.343535 0.614073 . .
H41_13 H 0.256493 0.372231 0.766281 . .
H42_13 H 0.245981 0.330246 0.774335 . .
H43_13 H 0.284887 0.358887 0.75189 . .
H44_13 H 0.345239 0.513395 0.579515 . .
H45_13 H 0.326492 0.535158 0.520329 . .
H46_13 H 0.23875 0.591443 0.678322 . .
H47_13 H 0.267612 0.554547 0.529566 . .
H48_13 H 0.160412 0.41233 0.838125 . .
H49_13 H 0.26309 0.423521 0.701777 . .
H50_13 H 0.166576 0.437017 0.708566 . .
H51_13 H 0.192673 0.37309 0.579742 . .
H52_13 H 0.310506 0.490904 0.64207 . .
H53_13 H 0.252769 0.46673 0.776786 . .
H54_13 H 0.271616 0.614378 0.744368 . .
H55_13 H 0.222504 0.441885 0.838761 . .
H56_13 H 0.239013 0.51027 0.590791 . .
H57_13 H 0.27865 0.526211 0.753832 . .
H58_13 H 0.202979 0.4271 0.60686 . .
H59_13 H 0.227554 0.536567 0.653465 . .
H60_13 H 0.0604575 0.390156 0.794363 . .
H61_13 H 0.0723148 0.431307 0.809934 . .
H62_13 H 0.0738952 0.422282 0.756792 . .
H63_13 H 0.339532 0.560683 0.798183 . .
H64_13 H 0.373579 0.601958 0.794752 . .
H65_13 H 0.346159 0.589897 0.837822 . .
H67_13 H 0.133397 0.547295 0.556547 . .
H69_13 H 0.203234 0.642346 0.679868 . .
H70_13 H 0.0397571 0.513751 0.753592 . .
H71_13 H 0.108552 0.552714 0.494572 . .
H74_13 H 0.0937671 0.557455 0.726473 . .
H75_13 H 0.103683 0.603774 0.624767 . .
H77_13 H 0.180061 0.501489 0.753818 . .
H79_13 H 0.0901878 0.493764 0.631557 . .
H80_13 H 0.25811 0.686026 0.655011 . .
H81_13 H 0.176936 0.60459 0.742543 . .
H84_13 H 0.15757 0.513731 0.691263 . .
H86_13 H 0.192878 0.580894 0.579501 . .
H88_13 H 0.184523 0.60218 0.824455 . .
H90_13 H 0.0102013 0.458919 0.71926 . .
H91_13 H 0.0789966 0.585252 0.495208 . .
H92_13 H 0.281045 0.676096 0.588965 . .
H94_13 H 0.201825 0.542 0.813005 . .
O9_13 O 0.981527 0.428839 0.632351 0.0127 Uiso
H4_13 H 0.996913 0.417599 0.558998 . .
Nb1_14 Nb 0.344758 0.477815 0.754413 0.0063 Uiso
C1_14 C 0.376691 0.513313 0.708503 0.0127 Uiso
C2_14 C 0.366221 0.446356 0.757597 0.0127 Uiso
C3_14 C 0.338832 0.469619 0.820615 0.0127 Uiso
C4_14 C 0.306091 0.483216 0.725657 0.0127 Uiso
C5_14 C 0.344859 0.521332 0.780031 0.0127 Uiso
C6_14 C 0.334260 0.451542 0.694608 0.0127 Uiso
C7_14 C 0.300027 0.430520 0.766571 0.0127 Uiso
C8_14 C 0.393845 0.506995 0.782060 0.0127 Uiso
N1_14 N 0.394628 0.532717 0.685746 0.0127 Uiso
N5_14 N 0.344947 0.544411 0.793142 0.0127 Uiso
N6_14 N 0.329319 0.437891 0.663014 0.0127 Uiso
N7_14 N 0.276378 0.405479 0.773937 0.0127 Uiso
N8_14 N 0.420050 0.521399 0.797244 0.0127 Uiso
Fe1_14 Fe 0.430701 0.575352 0.654396 0.0063 Uiso
N9_14 N 0.439857 0.605615 0.712864 0.0127 Uiso
N10_14 N 0.471479 0.566923 0.677383 0.0127 Uiso
N11_14 N 0.424698 0.545115 0.595655 0.0127 Uiso
N12_14 N 0.390717 0.585579 0.631522 0.0127 Uiso
C9_14 C 0.418426 0.596036 0.745038 0.0127 Uiso
C10_14 C 0.468367 0.635211 0.716516 0.0127 Uiso
C11_14 C 0.501706 0.580777 0.658629 0.0127 Uiso
C12_14 C 0.466545 0.547630 0.710964 0.0127 Uiso
C13_14 C 0.407797 0.512882 0.596121 0.0127 Uiso
C14_14 C 0.438337 0.559098 0.558024 0.0127 Uiso
C15_14 C 0.395834 0.603171 0.596184 0.0127 Uiso
C16_14 C 0.361905 0.575033 0.651438 0.0127 Uiso
C25_14 C 0.423817 0.614559 0.781486 0.0127 Uiso
C26_14 C 0.475354 0.654958 0.751978 0.0127 Uiso
C27_14 C 0.526822 0.575667 0.672764 0.0127 Uiso
C28_14 C 0.491236 0.541711 0.726471 0.0127 Uiso
C29_14 C 0.404322 0.494709 0.560255 0.0127 Uiso
C30_14 C 0.435498 0.542365 0.522870 0.0127 Uiso
C31_14 C 0.372693 0.610138 0.580951 0.0127 Uiso
C32_14 C 0.337023 0.581193 0.637725 0.0127 Uiso
O1_14 O 0.401219 0.603858 0.813799 0.0127 Uiso
C41_14 C 0.452769 0.644637 0.785332 0.0127 Uiso
O2_14 O 0.556054 0.591668 0.649950 0.0127 Uiso
C42_14 C 0.521590 0.555617 0.707618 0.0127 Uiso
O3_14 O 0.385181 0.459388 0.564418 0.0127 Uiso
C43_14 C 0.417835 0.508513 0.522750 0.0127 Uiso
O4_14 O 0.380744 0.628873 0.543380 0.0127 Uiso
C44_14 C 0.342453 0.599414 0.601116 0.0127 Uiso
C49_14 C 0.567313 0.576812 0.621445 0.0127 Uiso
C50_14 C 0.355995 0.446796 0.539381 0.0127 Uiso
C51_14 C 0.393658 0.658100 0.553259 0.0127 Uiso
O9_14 O 0.571161 0.552687 0.632351 0.0127 Uiso
C54_14 C 0.573764 0.592075 0.579391 0.0127 Uiso
O10_14 O 0.353525 0.464760 0.513375 0.0127 Uiso
C55_14 C 0.327655 0.410725 0.544983 0.0127 Uiso
O11_14 O 0.380277 0.670849 0.583218 0.0127 Uiso
C56_14 C 0.427889 0.681228 0.528616 0.0127 Uiso
N17_14 N 0.466952 0.618742 0.624587 0.0127 Uiso
C59_14 C 0.489541 0.639424 0.607676 0.0127 Uiso
Nb2_14 Nb 0.533609 0.678091 0.578920 0.0063 Uiso
C76_14 C 0.530044 0.710024 0.624830 0.0127 Uiso
C77_14 C 0.586531 0.699554 0.575736 0.0127 Uiso
C78_14 C 0.535879 0.672165 0.512718 0.0127 Uiso
C79_14 C 0.490193 0.678192 0.553302 0.0127 Uiso
C80_14 C 0.549384 0.667593 0.638725 0.0127 Uiso
C81_14 C 0.536173 0.633360 0.566762 0.0127 Uiso
C82_14 C 0.553516 0.727178 0.551273 0.0127 Uiso
N24_14 N 0.528577 0.727961 0.647587 0.0127 Uiso
N25_14 N 0.614995 0.710814 0.575541 0.0127 Uiso
N26_14 N 0.536866 0.670497 0.476832 0.0127 Uiso
N27_14 N 0.467202 0.678280 0.540191 0.0127 Uiso
N28_14 N 0.558094 0.662652 0.670319 0.0127 Uiso
N29_14 N 0.537565 0.609711 0.559396 0.0127 Uiso
N30_14 N 0.565317 0.753383 0.536089 0.0127 Uiso
Fe5_7 Fe 0.522015 0.764034 0.678937 0.0063 Uiso
N31_14 N 0.500908 0.773190 0.620469 0.0127 Uiso
N32_14 N 0.571222 0.804812 0.655950 0.0127 Uiso
N33_14 N 0.546249 0.758031 0.737678 0.0127 Uiso
N34_14 N 0.471804 0.724050 0.701811 0.0127 Uiso
N35_7 N 0.514877 0.800285 0.708746 0.0127 Uiso
C91_14 C 0.489056 0.751759 0.588295 0.0127 Uiso
C92_14 C 0.499822 0.801700 0.616817 0.0127 Uiso
C93_14 C 0.587595 0.835039 0.674704 0.0127 Uiso
C94_14 C 0.585581 0.799878 0.622369 0.0127 Uiso
C95_14 C 0.561581 0.741130 0.737212 0.0127 Uiso
C96_14 C 0.545905 0.771670 0.775309 0.0127 Uiso
C97_14 C 0.459329 0.729167 0.737149 0.0127 Uiso
C98_14 C 0.453538 0.695238 0.681895 0.0127 Uiso
C99_14 C 0.475924 0.757150 0.551847 0.0127 Uiso
C100_14 C 0.487062 0.808687 0.581355 0.0127 Uiso
C101_14 C 0.617821 0.860155 0.660569 0.0127 Uiso
C102_14 C 0.616191 0.824569 0.606862 0.0127 Uiso
C103_14 C 0.576279 0.737655 0.773078 0.0127 Uiso
C104_14 C 0.559799 0.768831 0.810463 0.0127 Uiso
C105_14 C 0.429221 0.706026 0.752382 0.0127 Uiso
C106_14 C 0.422496 0.670356 0.695608 0.0127 Uiso
O20_14 O 0.464027 0.734552 0.519534 0.0127 Uiso
C107_14 C 0.474798 0.786102 0.548001 0.0127 Uiso
O21_14 O 0.631052 0.889387 0.683383 0.0127 Uiso
C108_14 C 0.632639 0.854923 0.625715 0.0127 Uiso
O22_14 O 0.592459 0.718514 0.768915 0.0127 Uiso
C109_14 C 0.575988 0.751168 0.810583 0.0127 Uiso
O23_14 O 0.418537 0.714077 0.789953 0.0127 Uiso
C110_14 C 0.409705 0.675786 0.732217 0.0127 Uiso
C111_14 C 0.657167 0.900646 0.711888 0.0127 Uiso
C112_14 C 0.575865 0.689328 0.793952 0.0127 Uiso
C113_14 C 0.402224 0.726991 0.780074 0.0127 Uiso
O24_14 O 0.685140 0.904494 0.700982 0.0127 Uiso
C114_14 C 0.648355 0.907097 0.753942 0.0127 Uiso
O25_14 O 0.555431 0.686858 0.819958 0.0127 Uiso
C115_14 C 0.583596 0.660988 0.788350 0.0127 Uiso
O26_14 O 0.376094 0.713610 0.750115 0.0127 Uiso
C116_14 C 0.413327 0.761222 0.804717 0.0127 Uiso
H3_14 H 0.592666 0.61822 0.581443 . .
H4_14 H 0.582401 0.579314 0.558998 . .
H5_14 H 0.55093 0.589827 0.567052 . .
H12_14 H 0.422929 0.679492 0.495512 . .
H13_14 H 0.438287 0.706912 0.538581 . .
H14_14 H 0.445516 0.672865 0.535151 . .
H21_14 H 0.31828 0.407229 0.576542 . .
H22_14 H 0.307675 0.405648 0.523399 . .
H23_14 H 0.336968 0.393791 0.538971 . .
H40_14 H 0.656465 0.874414 0.614073 . .
H41_14 H 0.627769 0.884263 0.766281 . .
H42_14 H 0.669754 0.915735 0.774335 . .
H43_14 H 0.641113 0.926 0.75189 . .
H44_14 H 0.486605 0.831845 0.579515 . .
H45_14 H 0.464842 0.791334 0.520329 . .
H46_14 H 0.408557 0.647307 0.678322 . .
H47_14 H 0.445453 0.713065 0.529566 . .
H48_14 H 0.58767 0.748082 0.838125 . .
H49_14 H 0.576479 0.839569 0.701777 . .
H50_14 H 0.562983 0.729559 0.708566 . .
H51_14 H 0.62691 0.819582 0.579742 . .
H52_14 H 0.509096 0.819602 0.64207 . .
H53_14 H 0.53327 0.786039 0.776786 . .
H54_14 H 0.385622 0.657237 0.744368 . .
H55_14 H 0.558115 0.780619 0.838761 . .
H56_14 H 0.48973 0.728743 0.590791 . .
H57_14 H 0.473789 0.752439 0.753832 . .
H58_14 H 0.5729 0.775878 0.60686 . .
H59_14 H 0.463433 0.690987 0.653465 . .
H60_14 H 0.609844 0.670301 0.794363 . .
H61_14 H 0.568693 0.641008 0.809934 . .
H62_14 H 0.577718 0.651613 0.756792 . .
H63_14 H 0.439317 0.778849 0.798183 . .
H64_14 H 0.398042 0.771621 0.794752 . .
H65_14 H 0.410103 0.756262 0.837822 . .
H67_14 H 0.452705 0.586102 0.556547 . .
H69_14 H 0.357654 0.560887 0.679868 . .
H70_14 H 0.486249 0.526006 0.753592 . .
H71_14 H 0.447286 0.555838 0.494572 . .
H74_14 H 0.442545 0.536312 0.726473 . .
H75_14 H 0.396226 0.499909 0.624767 . .
H77_14 H 0.498511 0.678573 0.753818 . .
H79_14 H 0.506236 0.596424 0.631557 . .
H80_14 H 0.313974 0.572083 0.655011 . .
H81_14 H 0.39541 0.572346 0.742543 . .
H84_14 H 0.486269 0.643839 0.691263 . .
H86_14 H 0.419106 0.611984 0.579501 . .
H88_14 H 0.39782 0.582343 0.824455 . .
H90_14 H 0.541081 0.551282 0.71926 . .
H91_14 H 0.414748 0.493745 0.495208 . .
H92_14 H 0.323904 0.604949 0.588965 . .
H94_14 H 0.458 0.659825 0.813005 . .
O9_15 O 0.447313 0.018473 0.632351 0.0127 Uiso
H4_15 H 0.420686 0.00308749 0.558998 . .
Nb1_15 Nb 0.522185 0.866942 0.754413 0.0063 Uiso
C1_15 C 0.486687 0.863377 0.708503 0.0127 Uiso
C2_15 C 0.553644 0.919864 0.757597 0.0127 Uiso
C3_15 C 0.530381 0.869212 0.820615 0.0127 Uiso
C4_15 C 0.516784 0.822874 0.725657 0.0127 Uiso
C5_15 C 0.478668 0.823526 0.780031 0.0127 Uiso
C6_15 C 0.548458 0.882717 0.694608 0.0127 Uiso
C7_15 C 0.569480 0.869506 0.766571 0.0127 Uiso
C8_15 C 0.493005 0.886849 0.782060 0.0127 Uiso
N1_15 N 0.467283 0.861910 0.685746 0.0127 Uiso
N5_15 N 0.455589 0.800535 0.793142 0.0127 Uiso
N6_15 N 0.562109 0.891427 0.663014 0.0127 Uiso
N7_15 N 0.594521 0.870898 0.773937 0.0127 Uiso
N8_15 N 0.478601 0.898650 0.797244 0.0127 Uiso
Fe1_15 Fe 0.424648 0.855348 0.654396 0.0063 Uiso
N9_15 N 0.394385 0.834241 0.712864 0.0127 Uiso
N10_15 N 0.433077 0.904555 0.677383 0.0127 Uiso
N11_15 N 0.454885 0.879582 0.595655 0.0127 Uiso
N12_15 N 0.414421 0.805137 0.631522 0.0127 Uiso
C9_15 C 0.403964 0.822389 0.745038 0.0127 Uiso
C10_15 C 0.364789 0.833155 0.716516 0.0127 Uiso
C11_15 C 0.419223 0.920928 0.658629 0.0127 Uiso
C12_15 C 0.452370 0.918914 0.710964 0.0127 Uiso
C13_15 C 0.487118 0.894914 0.596121 0.0127 Uiso
C14_15 C 0.440902 0.879238 0.558024 0.0127 Uiso
C15_15 C 0.396829 0.792662 0.596184 0.0127 Uiso
C16_15 C 0.424967 0.786871 0.651438 0.0127 Uiso
C25_15 C 0.385441 0.809257 0.781486 0.0127 Uiso
C26_15 C 0.345042 0.820395 0.751978 0.0127 Uiso
C27_15 C 0.424333 0.951154 0.672764 0.0127 Uiso
C28_15 C 0.458289 0.949524 0.726471 0.0127 Uiso
C29_15 C 0.505291 0.909612 0.560255 0.0127 Uiso
C30_15 C 0.457635 0.893132 0.522870 0.0127 Uiso
C31_15 C 0.389862 0.762554 0.580951 0.0127 Uiso
C32_15 C 0.418807 0.755829 0.637725 0.0127 Uiso
O1_15 O 0.396142 0.797360 0.813799 0.0127 Uiso
C41_15 C 0.355363 0.808131 0.785332 0.0127 Uiso
O2_15 O 0.408332 0.964385 0.649950 0.0127 Uiso
C42_15 C 0.444383 0.965972 0.707618 0.0127 Uiso
O3_15 O 0.540612 0.925792 0.564418 0.0127 Uiso
C43_15 C 0.491487 0.909321 0.522750 0.0127 Uiso
O4_15 O 0.371127 0.751870 0.543380 0.0127 Uiso
C44_15 C 0.400586 0.743038 0.601116 0.0127 Uiso
C49_15 C 0.423188 0.990500 0.621445 0.0127 Uiso
C50_15 C 0.553204 0.909198 0.539381 0.0127 Uiso
C51_15 C 0.341900 0.735557 0.553259 0.0127 Uiso
C54_15 C 0.407925 0.981688 0.579391 0.0127 Uiso
O10_15 O 0.535240 0.888764 0.513375 0.0127 Uiso
C55_15 C 0.589275 0.916929 0.544983 0.0127 Uiso
O11_15 O 0.329151 0.709427 0.583218 0.0127 Uiso
C56_15 C 0.318772 0.746660 0.528616 0.0127 Uiso
N17_15 N 0.381258 0.848210 0.624587 0.0127 Uiso
C59_15 C 0.360576 0.850117 0.607676 0.0127 Uiso
Nb2_15 Nb 0.321909 0.855518 0.578920 0.0063 Uiso
C76_15 C 0.289976 0.820020 0.624830 0.0127 Uiso
C77_15 C 0.300446 0.886977 0.575736 0.0127 Uiso
C78_15 C 0.327835 0.863714 0.512718 0.0127 Uiso
C79_15 C 0.321808 0.812001 0.553302 0.0127 Uiso
C80_15 C 0.332407 0.881791 0.638725 0.0127 Uiso
C81_15 C 0.366640 0.902813 0.566762 0.0127 Uiso
C82_15 C 0.272822 0.826338 0.551273 0.0127 Uiso
N24_15 N 0.272039 0.800616 0.647587 0.0127 Uiso
N25_15 N 0.289186 0.904181 0.575541 0.0127 Uiso
N26_15 N 0.329503 0.866369 0.476832 0.0127 Uiso
N27_15 N 0.321720 0.788922 0.540191 0.0127 Uiso
N28_15 N 0.337348 0.895442 0.670319 0.0127 Uiso
N29_15 N 0.390289 0.927854 0.559396 0.0127 Uiso
N30_15 N 0.246617 0.811934 0.536089 0.0127 Uiso
N31_15 N 0.226810 0.727718 0.620469 0.0127 Uiso
N32_15 N 0.195188 0.766410 0.655950 0.0127 Uiso
N33_15 N 0.241969 0.788218 0.737678 0.0127 Uiso
N34_15 N 0.275950 0.747754 0.701811 0.0127 Uiso
C91_15 C 0.248241 0.737297 0.588295 0.0127 Uiso
C92_15 C 0.198300 0.698122 0.616817 0.0127 Uiso
C93_15 C 0.164961 0.752556 0.674704 0.0127 Uiso
C94_15 C 0.200122 0.785703 0.622369 0.0127 Uiso
C95_15 C 0.258870 0.820451 0.737212 0.0127 Uiso
C96_15 C 0.228330 0.774235 0.775309 0.0127 Uiso
C97_15 C 0.270833 0.730162 0.737149 0.0127 Uiso
C98_15 C 0.304762 0.758300 0.681895 0.0127 Uiso
C99_15 C 0.242850 0.718774 0.551847 0.0127 Uiso
C100_15 C 0.191313 0.678375 0.581355 0.0127 Uiso
C101_15 C 0.139845 0.757666 0.660569 0.0127 Uiso
C102_15 C 0.175431 0.791622 0.606862 0.0127 Uiso
C103_15 C 0.262345 0.838624 0.773078 0.0127 Uiso
C104_15 C 0.231169 0.790968 0.810463 0.0127 Uiso
C105_15 C 0.293974 0.723195 0.752382 0.0127 Uiso
C106_15 C 0.329644 0.752140 0.695608 0.0127 Uiso
O20_15 O 0.265448 0.729475 0.519534 0.0127 Uiso
C107_15 C 0.213898 0.688696 0.548001 0.0127 Uiso
O21_15 O 0.110613 0.741665 0.683383 0.0127 Uiso
C108_15 C 0.145077 0.777716 0.625715 0.0127 Uiso
O22_15 O 0.281486 0.873945 0.768915 0.0127 Uiso
C109_15 C 0.248832 0.824820 0.810583 0.0127 Uiso
O23_15 O 0.285923 0.704460 0.789953 0.0127 Uiso
C110_15 C 0.324214 0.733919 0.732217 0.0127 Uiso
C111_15 C 0.099354 0.756521 0.711888 0.0127 Uiso
C112_15 C 0.310672 0.886537 0.793952 0.0127 Uiso
C113_15 C 0.273009 0.675233 0.780074 0.0127 Uiso
O24_15 O 0.095506 0.780646 0.700982 0.0127 Uiso
C114_15 C 0.092903 0.741258 0.753942 0.0127 Uiso
O25_15 O 0.313142 0.868573 0.819958 0.0127 Uiso
C115_15 C 0.339012 0.922608 0.788350 0.0127 Uiso
O26_15 O 0.286390 0.662484 0.750115 0.0127 Uiso
C116_15 C 0.238778 0.652105 0.804717 0.0127 Uiso
H3_15 H 0.38178 0.974446 0.581443 . .
H5_15 H 0.410173 0.961103 0.567052 . .
H12_15 H 0.320508 0.743437 0.495512 . .
H13_15 H 0.293088 0.731375 0.538581 . .
H14_15 H 0.327135 0.77265 0.535151 . .
H21_15 H 0.592771 0.911051 0.576542 . .
H22_15 H 0.594352 0.902027 0.523399 . .
H23_15 H 0.606209 0.943177 0.538971 . .
H40_15 H 0.125586 0.782051 0.614073 . .
H41_15 H 0.115737 0.743507 0.766281 . .
H42_15 H 0.0842652 0.754019 0.774335 . .
H43_15 H 0.0740003 0.715113 0.75189 . .
H44_15 H 0.168155 0.654761 0.579515 . .
H45_15 H 0.208666 0.673508 0.520329 . .
H46_15 H 0.352693 0.76125 0.678322 . .
H47_15 H 0.286935 0.732388 0.529566 . .
H48_15 H 0.251918 0.839588 0.838125 . .
H49_15 H 0.160431 0.73691 0.701777 . .
H50_15 H 0.270441 0.833424 0.708566 . .
H51_15 H 0.180418 0.807327 0.579742 . .
H52_15 H 0.180398 0.689494 0.64207 . .
H53_15 H 0.213961 0.747231 0.776786 . .
H54_15 H 0.342763 0.728384 0.744368 . .
H55_15 H 0.219381 0.777496 0.838761 . .
H56_15 H 0.271257 0.760987 0.590791 . .
H57_15 H 0.247561 0.72135 0.753832 . .
H58_15 H 0.224122 0.797021 0.60686 . .
H59_15 H 0.309013 0.772446 0.653465 . .
H60_15 H 0.329699 0.939543 0.794363 . .
H61_15 H 0.358992 0.927685 0.809934 . .
H62_15 H 0.348387 0.926105 0.756792 . .
H63_15 H 0.221151 0.660468 0.798183 . .
H64_15 H 0.228379 0.626421 0.794752 . .
H65_15 H 0.243738 0.653841 0.837822 . .
H67_15 H 0.413898 0.866603 0.556547 . .
H69_15 H 0.439113 0.796766 0.679868 . .
H70_15 H 0.473994 0.960243 0.753592 . .
H71_15 H 0.444162 0.891448 0.494572 . .
H74_15 H 0.463688 0.906233 0.726473 . .
H75_15 H 0.500091 0.896317 0.624767 . .
H77_15 H 0.321427 0.819939 0.753818 . .
H79_15 H 0.403576 0.909812 0.631557 . .
H80_15 H 0.427917 0.74189 0.655011 . .
H81_15 H 0.427654 0.823064 0.742543 . .
H84_15 H 0.356161 0.84243 0.691263 . .
H86_15 H 0.388016 0.807122 0.579501 . .
H88_15 H 0.417657 0.815477 0.824455 . .
H90_15 H 0.448718 0.989799 0.71926 . .
H91_15 H 0.506255 0.921003 0.495208 . .
H92_15 H 0.395051 0.718955 0.588965 . .
H94_15 H 0.340175 0.798175 0.813005 . .
O26_16 O 0.004183 0.957239 0.083448 0.0127 Uiso
C116_16 C 0.014562 0.920006 0.138050 0.0127 Uiso
H63_16 H 0.0061987 0.894016 0.131516 . .
H64_16 H 0.0402453 0.935291 0.128085 . .
H65_16 H 0.0128252 0.92323 0.171155 . .
H44_16 H 0.0119061 0.846728 0.912849 . .
C4_16 C 0.843792 0.027243 0.058991 0.0127 Uiso
C7_16 C 0.797160 0.033307 0.099905 0.0127 Uiso
N4_9 N 0.866381 0.047925 0.042080 0.0127 Uiso
N7_16 N 0.795768 0.056956 0.107271 0.0127 Uiso
Fe4_9 Fe 0.902633 0.091314 0.012270 0.0063 Uiso
N6_16 N 0.775239 0.004015 0.996348 0.0127 Uiso
C55_16 C 0.749737 0.005679 0.878317 0.0127 Uiso
H21_16 H 0.755615 0.0150535 0.909875 . .
H22_16 H 0.76464 0.0256584 0.856733 . .
H80_16 H 0.924777 0.0193598 0.988345 . .
H92_16 H 0.947711 0.00942917 0.922298 . .
Nb1_16 Nb 0.799724 0.988576 0.087747 0.0063 Uiso
C1_16 C 0.803289 0.956643 0.041837 0.0127 Uiso
C2_16 C 0.746802 0.967113 0.090931 0.0127 Uiso
C3_16 C 0.797454 0.994502 0.153949 0.0127 Uiso
C5_16 C 0.843140 0.988475 0.113365 0.0127 Uiso
C6_16 C 0.783949 0.999074 0.027942 0.0127 Uiso
C8_16 C 0.779817 0.939489 0.115394 0.0127 Uiso
N1_16 N 0.804756 0.938706 0.019080 0.0127 Uiso
N5_16 N 0.866131 0.988387 0.126476 0.0127 Uiso
N8_16 N 0.768016 0.913284 0.130578 0.0127 Uiso
N9_16 N 0.832425 0.893477 0.046198 0.0127 Uiso
N10_16 N 0.762111 0.861855 0.010717 0.0127 Uiso
C9_16 C 0.844277 0.914908 0.078372 0.0127 Uiso
C10_16 C 0.833511 0.864967 0.049850 0.0127 Uiso
C12_16 C 0.747752 0.866789 0.044298 0.0127 Uiso
C25_16 C 0.857409 0.909517 0.114820 0.0127 Uiso
C26_16 C 0.846271 0.857980 0.085312 0.0127 Uiso
C27_16 C 0.715512 0.806512 0.006098 0.0127 Uiso
C28_16 C 0.717142 0.842098 0.059805 0.0127 Uiso
O1_16 O 0.869306 0.932115 0.147133 0.0127 Uiso
C41_16 C 0.858535 0.880565 0.118666 0.0127 Uiso
C42_16 C 0.700694 0.811744 0.040952 0.0127 Uiso
N28_16 N 0.771225 0.775239 0.003652 0.0127 Uiso
Fe5_8 Fe 0.908686 0.811318 0.012270 0.0063 Uiso
N33_16 N 0.878449 0.787084 0.071011 0.0127 Uiso
N34_16 N 0.918913 0.861529 0.035144 0.0127 Uiso
N35_8 N 0.952075 0.818457 0.042080 0.0127 Uiso
C93_16 C 0.914111 0.745738 0.008037 0.0127 Uiso
C95_16 C 0.846216 0.771752 0.070545 0.0127 Uiso
C96_16 C 0.892432 0.787428 0.108642 0.0127 Uiso
C97_16 C 0.936505 0.874004 0.070482 0.0127 Uiso
C98_16 C 0.908367 0.879795 0.015228 0.0127 Uiso
C103_16 C 0.828043 0.757054 0.106411 0.0127 Uiso
C104_16 C 0.875699 0.773534 0.143796 0.0127 Uiso
C105_16 C 0.943472 0.904112 0.085715 0.0127 Uiso
C106_16 C 0.914527 0.910837 0.028941 0.0127 Uiso
O21_16 O 0.925002 0.702281 0.016716 0.0127 Uiso
O22_16 O 0.792722 0.740874 0.102248 0.0127 Uiso
C109_16 C 0.841847 0.757345 0.143916 0.0127 Uiso
O23_16 O 0.962207 0.914796 0.123286 0.0127 Uiso
C110_16 C 0.932748 0.923628 0.065550 0.0127 Uiso
C111_16 C 0.910146 0.676166 0.045221 0.0127 Uiso
C112_16 C 0.780130 0.757468 0.127285 0.0127 Uiso
C113_16 C 0.991434 0.931109 0.113407 0.0127 Uiso
O24_16 O 0.886021 0.648193 0.034315 0.0127 Uiso
C114_16 C 0.925409 0.684978 0.087275 0.0127 Uiso
O25_16 O 0.798094 0.777902 0.153291 0.0127 Uiso
C115_16 C 0.744059 0.749737 0.121683 0.0127 Uiso
H41_16 H 0.92316 0.705564 0.0996147 . .
H42_16 H 0.912647 0.663579 0.107668 . .
H43_16 H 0.951554 0.692221 0.0852235 . .
H46_16 H 0.905417 0.924777 0.0116553 . .
H48_16 H 0.827078 0.745663 0.171459 . .
H49_16 H 0.929757 0.756854 0.0351101 . .
H50_16 H 0.833242 0.77035 0.0418994 . .
H53_16 H 0.919435 0.800063 0.11012 . .
H54_16 H 0.938282 0.947711 0.0777017 . .
H55_16 H 0.889171 0.775218 0.172094 . .
H57_16 H 0.945317 0.859545 0.0871657 . .
H60_16 H 0.727124 0.72349 0.127696 . .
H61_16 H 0.738981 0.76464 0.143267 . .
H62_16 H 0.740562 0.755615 0.090125 . .
H69_16 H 0.8699 0.97568 0.0132014 . .
H70_16 H 0.706424 0.847084 0.0869249 . .
H74_16 H 0.760434 0.890788 0.0598062 . .
H77_16 H 0.846728 0.834822 0.0871513 . .
H81_16 H 0.843603 0.937923 0.075876 . .
H84_16 H 0.824237 0.847064 0.0245968 . .
H88_16 H 0.851189 0.935513 0.157788 . .
H90_16 H 0.676868 0.792252 0.0525933 . .
H94_16 H 0.868491 0.875333 0.146338 . .
Fe1_16 Fe 0.811318 0.902633 0.987730 0.0063 Uiso
N11_16 N 0.787084 0.908636 0.928989 0.0127 Uiso
N12_16 N 0.861529 0.942617 0.964856 0.0127 Uiso
C11_16 C 0.745738 0.831628 0.991963 0.0127 Uiso
C13_16 C 0.771752 0.925537 0.929455 0.0127 Uiso
C14_16 C 0.787428 0.894997 0.891358 0.0127 Uiso
C15_16 C 0.874004 0.937500 0.929518 0.0127 Uiso
C16_16 C 0.879795 0.971429 0.984772 0.0127 Uiso
C29_16 C 0.757054 0.929012 0.893589 0.0127 Uiso
C30_16 C 0.773534 0.897836 0.856204 0.0127 Uiso
C31_16 C 0.904112 0.960641 0.914285 0.0127 Uiso
C32_16 C 0.910837 0.996311 0.971059 0.0127 Uiso
O2_16 O 0.702281 0.777280 0.983284 0.0127 Uiso
O3_16 O 0.740874 0.948153 0.897752 0.0127 Uiso
C43_16 C 0.757345 0.915499 0.856084 0.0127 Uiso
O4_16 O 0.914796 0.952590 0.876714 0.0127 Uiso
C44_16 C 0.923628 0.990881 0.934450 0.0127 Uiso
C49_16 C 0.676166 0.766021 0.954779 0.0127 Uiso
C50_16 C 0.757468 0.977339 0.872715 0.0127 Uiso
C51_16 C 0.931109 0.939676 0.886593 0.0127 Uiso
O9_16 O 0.648193 0.762173 0.965685 0.0127 Uiso
C54_16 C 0.684978 0.759570 0.912725 0.0127 Uiso
O10_16 O 0.777902 0.979809 0.846709 0.0127 Uiso
O11_16 O 0.957239 0.953057 0.916552 0.0127 Uiso
C56_16 C 0.920006 0.905445 0.861950 0.0127 Uiso
N17_16 N 0.818457 0.866381 0.957920 0.0127 Uiso
C59_16 C 0.816550 0.843792 0.941009 0.0127 Uiso
Nb2_16 Nb 0.811149 0.799724 0.912253 0.0063 Uiso
C76_16 C 0.846647 0.803289 0.958163 0.0127 Uiso
C77_16 C 0.779690 0.746802 0.909069 0.0127 Uiso
C78_16 C 0.802953 0.797454 0.846051 0.0127 Uiso
C79_16 C 0.854666 0.843140 0.886635 0.0127 Uiso
C80_16 C 0.784876 0.783949 0.972058 0.0127 Uiso
C81_16 C 0.763854 0.797160 0.900095 0.0127 Uiso
C82_16 C 0.840329 0.779817 0.884606 0.0127 Uiso
N24_16 N 0.866051 0.804756 0.980920 0.0127 Uiso
N25_16 N 0.762486 0.718338 0.908874 0.0127 Uiso
N26_16 N 0.800298 0.796467 0.810165 0.0127 Uiso
N27_16 N 0.877745 0.866131 0.873524 0.0127 Uiso
N29_16 N 0.738813 0.795768 0.892729 0.0127 Uiso
N30_16 N 0.854733 0.768016 0.869422 0.0127 Uiso
N31_16 N 0.938949 0.832425 0.953802 0.0127 Uiso
N32_16 N 0.900257 0.762111 0.989283 0.0127 Uiso
C91_16 C 0.929370 0.844277 0.921628 0.0127 Uiso
C92_16 C 0.968545 0.833511 0.950150 0.0127 Uiso
C94_16 C 0.880964 0.747752 0.955702 0.0127 Uiso
C99_16 C 0.947893 0.857409 0.885180 0.0127 Uiso
C100_16 C 0.988292 0.846271 0.914688 0.0127 Uiso
C101_16 C 0.909001 0.715512 0.993902 0.0127 Uiso
C102_16 C 0.875045 0.717142 0.940195 0.0127 Uiso
O20_16 O 0.937192 0.869306 0.852867 0.0127 Uiso
C107_16 C 0.977971 0.858535 0.881334 0.0127 Uiso
C108_16 C 0.888951 0.700694 0.959048 0.0127 Uiso
H3_16 H 0.692221 0.740667 0.914776 . .
H4_16 H 0.663579 0.750932 0.892332 . .
H5_16 H 0.705564 0.782404 0.900385 . .
H12_16 H 0.92323 0.910405 0.828845 . .
H13_16 H 0.935291 0.895046 0.871915 . .
H14_16 H 0.894016 0.887818 0.868484 . .
H23_16 H 0.72349 0.996365 0.872304 . .
H40_16 H 0.884616 0.676868 0.947407 . .
H45_16 H 0.993158 0.868491 0.853662 . .
H47_16 H 0.934279 0.88788 0.862899 . .
H51_16 H 0.859339 0.706424 0.913075 . .
H52_16 H 0.977173 0.824237 0.975403 . .
H56_16 H 0.90568 0.843603 0.924124 . .
H58_16 H 0.869645 0.760434 0.940194 . .
H59_16 H 0.894221 0.8699 0.986799 . .
H67_16 H 0.800063 0.880628 0.88988 . .
H71_16 H 0.775218 0.886047 0.827906 . .
H75_16 H 0.77035 0.937108 0.958101 . .
H79_16 H 0.756854 0.827098 0.96489 . .
H86_16 H 0.859545 0.914227 0.912834 . .
H91_16 H 0.745663 0.918585 0.828541 . .
Fe5_9 Fe 0.188682 0.097367 0.012270 0.0063 Uiso
N33_17 N 0.212916 0.091364 0.071011 0.0127 Uiso
N34_17 N 0.138471 0.057383 0.035144 0.0127 Uiso
N35_9 N 0.181543 0.133619 0.042080 0.0127 Uiso
C93_17 C 0.254262 0.168372 0.008037 0.0127 Uiso
C95_17 C 0.228248 0.074463 0.070545 0.0127 Uiso
C96_17 C 0.212572 0.105003 0.108642 0.0127 Uiso
C97_17 C 0.125996 0.062500 0.070482 0.0127 Uiso
C98_17 C 0.120205 0.028571 0.015228 0.0127 Uiso
C103_17 C 0.242946 0.070988 0.106411 0.0127 Uiso
C104_17 C 0.226466 0.102164 0.143796 0.0127 Uiso
C105_17 C 0.095888 0.039359 0.085715 0.0127 Uiso
C106_17 C 0.089163 0.003689 0.028941 0.0127 Uiso
O21_17 O 0.297719 0.222720 0.016716 0.0127 Uiso
O22_17 O 0.259126 0.051847 0.102248 0.0127 Uiso
C109_17 C 0.242655 0.084501 0.143916 0.0127 Uiso
O23_17 O 0.085204 0.047410 0.123286 0.0127 Uiso
C110_17 C 0.076372 0.009119 0.065550 0.0127 Uiso
C111_17 C 0.323834 0.233979 0.045221 0.0127 Uiso
C112_17 C 0.242532 0.022661 0.127285 0.0127 Uiso
C113_17 C 0.068891 0.060324 0.113407 0.0127 Uiso
O24_17 O 0.351807 0.237827 0.034315 0.0127 Uiso
C114_17 C 0.315022 0.240430 0.087275 0.0127 Uiso
O25_17 O 0.222098 0.020191 0.153291 0.0127 Uiso
O26_17 O 0.042761 0.046943 0.083448 0.0127 Uiso
C116_17 C 0.079994 0.094555 0.138050 0.0127 Uiso
H41_17 H 0.294436 0.217596 0.0996147 . .
H42_17 H 0.336421 0.249068 0.107668 . .
H43_17 H 0.307779 0.259333 0.0852235 . .
H48_17 H 0.254337 0.0814149 0.171459 . .
H49_17 H 0.243146 0.172902 0.0351101 . .
H50_17 H 0.22965 0.0628924 0.0418994 . .
H53_17 H 0.199937 0.119372 0.11012 . .
H55_17 H 0.224782 0.113953 0.172094 . .
H57_17 H 0.140455 0.0857726 0.0871657 . .
H60_17 H 0.27651 0.00363454 0.127696 . .
H63_17 H 0.105984 0.112182 0.131516 . .
H64_17 H 0.0647087 0.104954 0.128085 . .
H65_17 H 0.0767701 0.0895953 0.171155 . .
H77_17 H 0.165178 0.0119061 0.0871513 . .
O11_17 O 0.046943 0.004183 0.916552 0.0127 Uiso
C56_17 C 0.094555 0.014562 0.861950 0.0127 Uiso
Nb2_17 Nb 0.200276 0.011424 0.912253 0.0063 Uiso
C76_17 C 0.196711 0.043357 0.958163 0.0127 Uiso
C77_17 C 0.253198 0.032887 0.909069 0.0127 Uiso
C78_17 C 0.202546 0.005498 0.846051 0.0127 Uiso
C79_17 C 0.156860 0.011525 0.886635 0.0127 Uiso
C80_17 C 0.216051 0.000926 0.972058 0.0127 Uiso
C82_17 C 0.220183 0.060511 0.884606 0.0127 Uiso
N24_17 N 0.195244 0.061294 0.980920 0.0127 Uiso
N25_17 N 0.281662 0.044147 0.908874 0.0127 Uiso
N26_17 N 0.203533 0.003830 0.810165 0.0127 Uiso
N27_17 N 0.133869 0.011613 0.873524 0.0127 Uiso
N30_17 N 0.231984 0.086716 0.869422 0.0127 Uiso
N31_17 N 0.167575 0.106523 0.953802 0.0127 Uiso
N32_17 N 0.237889 0.138145 0.989283 0.0127 Uiso
C91_17 C 0.155723 0.085092 0.921628 0.0127 Uiso
C92_17 C 0.166489 0.135033 0.950150 0.0127 Uiso
C94_17 C 0.252248 0.133211 0.955702 0.0127 Uiso
C99_17 C 0.142591 0.090483 0.885180 0.0127 Uiso
C100_17 C 0.153729 0.142020 0.914688 0.0127 Uiso
C101_17 C 0.284488 0.193488 0.993902 0.0127 Uiso
C102_17 C 0.282858 0.157902 0.940195 0.0127 Uiso
O20_17 O 0.130694 0.067885 0.852867 0.0127 Uiso
C107_17 C 0.141465 0.119435 0.881334 0.0127 Uiso
C108_17 C 0.299306 0.188256 0.959048 0.0127 Uiso
H12_17 H 0.0895953 0.0128252 0.828845 . .
H13_17 H 0.104954 0.0402453 0.871915 . .
H14_17 H 0.112182 0.0061987 0.868484 . .
H40_17 H 0.323132 0.207748 0.947407 . .
H44_17 H 0.153272 0.165178 0.912849 . .
H45_17 H 0.131509 0.124667 0.853662 . .
H47_17 H 0.11212 0.0463986 0.862899 . .
H51_17 H 0.293576 0.152916 0.913075 . .
H52_17 H 0.175763 0.152936 0.975403 . .
H56_17 H 0.156397 0.0620768 0.924124 . .
H58_17 H 0.239566 0.109212 0.940194 . .
H59_17 H 0.1301 0.0243204 0.986799 . .
Nb1_17 Nb 0.011424 0.811149 0.087747 0.0063 Uiso
C1_17 C 0.043357 0.846647 0.041837 0.0127 Uiso
C2_17 C 0.032887 0.779690 0.090931 0.0127 Uiso
C3_17 C 0.005498 0.802953 0.153949 0.0127 Uiso
C5_17 C 0.011525 0.854666 0.113365 0.0127 Uiso
C6_17 C 0.000926 0.784876 0.027942 0.0127 Uiso
C8_17 C 0.060511 0.840329 0.115394 0.0127 Uiso
N1_17 N 0.061294 0.866051 0.019080 0.0127 Uiso
N5_17 N 0.011613 0.877745 0.126476 0.0127 Uiso
N8_17 N 0.086716 0.854733 0.130578 0.0127 Uiso
N9_17 N 0.106523 0.938949 0.046198 0.0127 Uiso
N10_17 N 0.138145 0.900257 0.010717 0.0127 Uiso
C9_17 C 0.085092 0.929370 0.078372 0.0127 Uiso
C10_17 C 0.135033 0.968545 0.049850 0.0127 Uiso
C12_17 C 0.133211 0.880964 0.044298 0.0127 Uiso
C25_17 C 0.090483 0.947893 0.114820 0.0127 Uiso
C26_17 C 0.142020 0.988292 0.085312 0.0127 Uiso
C27_17 C 0.193488 0.909001 0.006098 0.0127 Uiso
C28_17 C 0.157902 0.875045 0.059805 0.0127 Uiso
O1_17 O 0.067885 0.937192 0.147133 0.0127 Uiso
C41_17 C 0.119435 0.977971 0.118666 0.0127 Uiso
C42_17 C 0.188256 0.888951 0.040952 0.0127 Uiso
N28_17 N 0.224761 0.995985 0.003652 0.0127 Uiso
C115_17 C 0.250263 0.994321 0.121683 0.0127 Uiso
H46_17 H 0.0752234 0.98064 0.0116553 . .
H54_17 H 0.0522887 0.990571 0.0777017 . .
H61_17 H 0.23536 0.974342 0.143267 . .
H62_17 H 0.244385 0.984947 0.090125 . .
H69_17 H 0.0243204 0.894221 0.0132014 . .
H70_17 H 0.152916 0.859339 0.0869249 . .
H74_17 H 0.109212 0.869645 0.0598062 . .
H81_17 H 0.0620768 0.90568 0.075876 . .
H84_17 H 0.152936 0.977173 0.0245968 . .
H88_17 H 0.0644868 0.915676 0.157788 . .
H90_17 H 0.207748 0.884616 0.0525933 . .
H94_17 H 0.124667 0.993158 0.146338 . .
Fe1_17 Fe 0.097367 0.908686 0.987730 0.0063 Uiso
N11_17 N 0.091364 0.878449 0.928989 0.0127 Uiso
N12_17 N 0.057383 0.918913 0.964856 0.0127 Uiso
C11_17 C 0.168372 0.914111 0.991963 0.0127 Uiso
C13_17 C 0.074463 0.846216 0.929455 0.0127 Uiso
C14_17 C 0.105003 0.892432 0.891358 0.0127 Uiso
C15_17 C 0.062500 0.936505 0.929518 0.0127 Uiso
C16_17 C 0.028571 0.908367 0.984772 0.0127 Uiso
C29_17 C 0.070988 0.828043 0.893589 0.0127 Uiso
C30_17 C 0.102164 0.875699 0.856204 0.0127 Uiso
C31_17 C 0.039359 0.943472 0.914285 0.0127 Uiso
C32_17 C 0.003689 0.914527 0.971059 0.0127 Uiso
O2_17 O 0.222720 0.925002 0.983284 0.0127 Uiso
O3_17 O 0.051847 0.792722 0.897752 0.0127 Uiso
C43_17 C 0.084501 0.841847 0.856084 0.0127 Uiso
O4_17 O 0.047410 0.962207 0.876714 0.0127 Uiso
C44_17 C 0.009119 0.932748 0.934450 0.0127 Uiso
C49_17 C 0.233979 0.910146 0.954779 0.0127 Uiso
C50_17 C 0.022661 0.780130 0.872715 0.0127 Uiso
C51_17 C 0.060324 0.991434 0.886593 0.0127 Uiso
O9_17 O 0.237827 0.886021 0.965685 0.0127 Uiso
C54_17 C 0.240430 0.925409 0.912725 0.0127 Uiso
O10_17 O 0.020191 0.798094 0.846709 0.0127 Uiso
N17_17 N 0.133619 0.952075 0.957920 0.0127 Uiso
C59_17 C 0.156208 0.972757 0.941009 0.0127 Uiso
C81_17 C 0.202840 0.966693 0.900095 0.0127 Uiso
N29_17 N 0.204232 0.943044 0.892729 0.0127 Uiso
H3_17 H 0.259333 0.951554 0.914776 . .
H4_17 H 0.249068 0.912647 0.892332 . .
H5_17 H 0.217596 0.92316 0.900385 . .
H23_17 H 0.00363454 0.727124 0.872304 . .
H67_17 H 0.119372 0.919435 0.88988 . .
H71_17 H 0.113953 0.889171 0.827906 . .
H75_17 H 0.0628924 0.833242 0.958101 . .
H79_17 H 0.172902 0.929757 0.96489 . .
H86_17 H 0.0857726 0.945317 0.912834 . .
H91_17 H 0.0814149 0.827078 0.828541 . .
C4_17 C 0.972757 0.816550 0.058991 0.0127 Uiso
C7_17 C 0.966693 0.763854 0.099905 0.0127 Uiso
N7_17 N 0.943044 0.738813 0.107271 0.0127 Uiso
N6_17 N 0.995985 0.771225 0.996348 0.0127 Uiso
C55_17 C 0.994321 0.744059 0.878317 0.0127 Uiso
H21_17 H 0.984947 0.740562 0.909875 . .
H22_17 H 0.974342 0.738981 0.856733 . .
H80_17 H 0.98064 0.905417 0.988345 . .
H92_17 H 0.990571 0.938282 0.922298 . .
Nb1_18 Nb 0.188851 0.200276 0.087747 0.0063 Uiso
C1_18 C 0.153353 0.196711 0.041837 0.0127 Uiso
C2_18 C 0.220310 0.253198 0.090931 0.0127 Uiso
C3_18 C 0.197047 0.202546 0.153949 0.0127 Uiso
C4_18 C 0.183450 0.156208 0.058991 0.0127 Uiso
C5_18 C 0.145334 0.156860 0.113365 0.0127 Uiso
C6_18 C 0.215124 0.216051 0.027942 0.0127 Uiso
C7_18 C 0.236146 0.202840 0.099905 0.0127 Uiso
C8_18 C 0.159671 0.220183 0.115394 0.0127 Uiso
N1_18 N 0.133949 0.195244 0.019080 0.0127 Uiso
N5_18 N 0.122255 0.133869 0.126476 0.0127 Uiso
N7_18 N 0.261187 0.204232 0.107271 0.0127 Uiso
N8_18 N 0.145267 0.231984 0.130578 0.0127 Uiso
N9_18 N 0.061051 0.167575 0.046198 0.0127 Uiso
N10_18 N 0.099743 0.237889 0.010717 0.0127 Uiso
C9_18 C 0.070630 0.155723 0.078372 0.0127 Uiso
C10_18 C 0.031455 0.166489 0.049850 0.0127 Uiso
C12_18 C 0.119036 0.252248 0.044298 0.0127 Uiso
C25_18 C 0.052107 0.142591 0.114820 0.0127 Uiso
C26_18 C 0.011708 0.153729 0.085312 0.0127 Uiso
C27_18 C 0.090999 0.284488 0.006098 0.0127 Uiso
C28_18 C 0.124955 0.282858 0.059805 0.0127 Uiso
O1_18 O 0.062808 0.130694 0.147133 0.0127 Uiso
C41_18 C 0.022029 0.141465 0.118666 0.0127 Uiso
C42_18 C 0.111049 0.299306 0.040952 0.0127 Uiso
N28_18 N 0.004015 0.228775 0.003652 0.0127 Uiso
C115_18 C 0.005679 0.255941 0.121683 0.0127 Uiso
H46_18 H 0.0193598 0.0945832 0.0116553 . .
H54_18 H 0.00942917 0.0617178 0.0777017 . .
H61_18 H 0.0256584 0.261019 0.143267 . .
H62_18 H 0.0150535 0.259438 0.090125 . .
H69_18 H 0.105779 0.1301 0.0132014 . .
H70_18 H 0.140661 0.293576 0.0869249 . .
H74_18 H 0.130355 0.239566 0.0598062 . .
H81_18 H 0.0943203 0.156397 0.075876 . .
H84_18 H 0.0228273 0.175763 0.0245968 . .
H88_18 H 0.0843239 0.148811 0.157788 . .
H90_18 H 0.115384 0.323132 0.0525933 . .
H94_18 H 0.00684161 0.131509 0.146338 . .
N6_18 N 0.228775 0.224761 0.996348 0.0127 Uiso
Fe1_18 Fe 0.091314 0.188682 0.987730 0.0063 Uiso
N11_18 N 0.121551 0.212916 0.928989 0.0127 Uiso
N12_18 N 0.081087 0.138471 0.964856 0.0127 Uiso
C11_18 C 0.085889 0.254262 0.991963 0.0127 Uiso
C13_18 C 0.153784 0.228248 0.929455 0.0127 Uiso
C14_18 C 0.107568 0.212572 0.891358 0.0127 Uiso
C15_18 C 0.063495 0.125996 0.929518 0.0127 Uiso
C16_18 C 0.091633 0.120205 0.984772 0.0127 Uiso
C29_18 C 0.171957 0.242946 0.893589 0.0127 Uiso
C30_18 C 0.124301 0.226466 0.856204 0.0127 Uiso
C31_18 C 0.056528 0.095888 0.914285 0.0127 Uiso
C32_18 C 0.085473 0.089163 0.971059 0.0127 Uiso
O2_18 O 0.074998 0.297719 0.983284 0.0127 Uiso
O3_18 O 0.207278 0.259126 0.897752 0.0127 Uiso
C43_18 C 0.158153 0.242655 0.856084 0.0127 Uiso
O4_18 O 0.037793 0.085204 0.876714 0.0127 Uiso
C44_18 C 0.067252 0.076372 0.934450 0.0127 Uiso
C49_18 C 0.089854 0.323834 0.954779 0.0127 Uiso
C50_18 C 0.219870 0.242532 0.872715 0.0127 Uiso
C51_18 C 0.008566 0.068891 0.886593 0.0127 Uiso
O9_18 O 0.113979 0.351807 0.965685 0.0127 Uiso
C54_18 C 0.074591 0.315022 0.912725 0.0127 Uiso
O10_18 O 0.201906 0.222098 0.846709 0.0127 Uiso
C55_18 C 0.255941 0.250263 0.878317 0.0127 Uiso
N17_18 N 0.047925 0.181543 0.957920 0.0127 Uiso
C59_18 C 0.027243 0.183450 0.941009 0.0127 Uiso
C81_18 C 0.033307 0.236146 0.900095 0.0127 Uiso
N29_18 N 0.056956 0.261187 0.892729 0.0127 Uiso
H3_18 H 0.0484462 0.307779 0.914776 . .
H4_18 H 0.0873527 0.336421 0.892332 . .
H5_18 H 0.0768399 0.294436 0.900385 . .
H21_18 H 0.259438 0.244385 0.909875 . .
H22_18 H 0.261019 0.23536 0.856733 . .
H23_18 H 0.272876 0.27651 0.872304 . .
H67_18 H 0.0805647 0.199937 0.88988 . .
H71_18 H 0.110829 0.224782 0.827906 . .
H75_18 H 0.166758 0.22965 0.958101 . .
H79_18 H 0.0702431 0.243146 0.96489 . .
H80_18 H 0.0945832 0.0752234 0.988345 . .
H86_18 H 0.0546829 0.140455 0.912834 . .
H91_18 H 0.172922 0.254337 0.828541 . .
H92_18 H 0.0617178 0.0522887 0.922298 . .
N33_18 N 0.908636 0.121551 0.071011 0.0127 Uiso
N34_18 N 0.942617 0.081087 0.035144 0.0127 Uiso
C93_18 C 0.831628 0.085889 0.008037 0.0127 Uiso
C95_18 C 0.925537 0.153784 0.070545 0.0127 Uiso
C96_18 C 0.894997 0.107568 0.108642 0.0127 Uiso
C97_18 C 0.937500 0.063495 0.070482 0.0127 Uiso
C98_18 C 0.971429 0.091633 0.015228 0.0127 Uiso
C103_18 C 0.929012 0.171957 0.106411 0.0127 Uiso
C104_18 C 0.897836 0.124301 0.143796 0.0127 Uiso
C105_18 C 0.960641 0.056528 0.085715 0.0127 Uiso
C106_18 C 0.996311 0.085473 0.028941 0.0127 Uiso
O21_18 O 0.777280 0.074998 0.016716 0.0127 Uiso
O22_18 O 0.948153 0.207278 0.102248 0.0127 Uiso
C109_18 C 0.915499 0.158153 0.143916 0.0127 Uiso
O23_18 O 0.952590 0.037793 0.123286 0.0127 Uiso
C110_18 C 0.990881 0.067252 0.065550 0.0127 Uiso
C111_18 C 0.766021 0.089854 0.045221 0.0127 Uiso
C112_18 C 0.977339 0.219870 0.127285 0.0127 Uiso
C113_18 C 0.939676 0.008566 0.113407 0.0127 Uiso
O24_18 O 0.762173 0.113979 0.034315 0.0127 Uiso
C114_18 C 0.759570 0.074591 0.087275 0.0127 Uiso
O25_18 O 0.979809 0.201906 0.153291 0.0127 Uiso
H41_18 H 0.782404 0.0768399 0.0996147 . .
H42_18 H 0.750932 0.0873527 0.107668 . .
H43_18 H 0.740667 0.0484462 0.0852235 . .
H48_18 H 0.918585 0.172922 0.171459 . .
H49_18 H 0.827098 0.0702431 0.0351101 . .
H50_18 H 0.937108 0.166758 0.0418994 . .
H53_18 H 0.880628 0.0805647 0.11012 . .
H55_18 H 0.886047 0.110829 0.172094 . .
H57_18 H 0.914227 0.0546829 0.0871657 . .
H60_18 H 0.996365 0.272876 0.127696 . .
H77_18 H 0.988094 0.153272 0.0871513 . .
O11_18 O 0.995817 0.042761 0.916552 0.0127 Uiso
C56_18 C 0.985438 0.079994 0.861950 0.0127 Uiso
Nb2_18 Nb 0.988576 0.188851 0.912253 0.0063 Uiso
C76_18 C 0.956643 0.153353 0.958163 0.0127 Uiso
C77_18 C 0.967113 0.220310 0.909069 0.0127 Uiso
C78_18 C 0.994502 0.197047 0.846051 0.0127 Uiso
C79_18 C 0.988475 0.145334 0.886635 0.0127 Uiso
C80_18 C 0.999074 0.215124 0.972058 0.0127 Uiso
C82_18 C 0.939489 0.159671 0.884606 0.0127 Uiso
N24_18 N 0.938706 0.133949 0.980920 0.0127 Uiso
N25_18 N 0.955853 0.237514 0.908874 0.0127 Uiso
N26_18 N 0.996170 0.199702 0.810165 0.0127 Uiso
N27_18 N 0.988387 0.122255 0.873524 0.0127 Uiso
N30_18 N 0.913284 0.145267 0.869422 0.0127 Uiso
N31_18 N 0.893477 0.061051 0.953802 0.0127 Uiso
N32_18 N 0.861855 0.099743 0.989283 0.0127 Uiso
C91_18 C 0.914908 0.070630 0.921628 0.0127 Uiso
C92_18 C 0.864967 0.031455 0.950150 0.0127 Uiso
C94_18 C 0.866789 0.119036 0.955702 0.0127 Uiso
C99_18 C 0.909517 0.052107 0.885180 0.0127 Uiso
C100_18 C 0.857980 0.011708 0.914688 0.0127 Uiso
C101_18 C 0.806512 0.090999 0.993902 0.0127 Uiso
C102_18 C 0.842098 0.124955 0.940195 0.0127 Uiso
O20_18 O 0.932115 0.062808 0.852867 0.0127 Uiso
C107_18 C 0.880565 0.022029 0.881334 0.0127 Uiso
C108_18 C 0.811744 0.111049 0.959048 0.0127 Uiso
H12_18 H 0.987175 0.0767701 0.828845 . .
H13_18 H 0.959755 0.0647087 0.871915 . .
H14_18 H 0.993801 0.105984 0.868484 . .
H40_18 H 0.792252 0.115384 0.947407 . .
H45_18 H 0.875333 0.00684161 0.853662 . .
H47_18 H 0.953601 0.065721 0.862899 . .
H51_18 H 0.847084 0.140661 0.913075 . .
H52_18 H 0.847064 0.0228273 0.975403 . .
H56_18 H 0.937923 0.0943203 0.924124 . .
H58_18 H 0.890788 0.130355 0.940194 . .
H59_18 H 0.97568 0.105779 0.986799 . .
O26_18 O 0.953057 0.995817 0.083448 0.0127 Uiso
C116_18 C 0.905445 0.985438 0.138050 0.0127 Uiso
H63_18 H 0.887818 0.993801 0.131516 . .
H64_18 H 0.895046 0.959755 0.128085 . .
H65_18 H 0.910405 0.987175 0.171155 . .
H44_18 H 0.834822 0.988094 0.912849 . .
N15_10 N 0.631308 0.548343 0.079535 0.0127 Uiso
N16_10 N 0.631801 0.486716 0.078371 0.0127 Uiso
C21_10 C 0.607749 0.536431 0.049252 0.0127 Uiso
C22_10 C 0.630169 0.569769 0.107475 0.0127 Uiso
C23_10 C 0.604687 0.472277 0.103100 0.0127 Uiso
C24_10 C 0.635165 0.467276 0.049198 0.0127 Uiso
C33_10 C 0.795194 0.643668 0.007083 0.0127 Uiso
C34_10 C 0.820642 0.701979 0.010051 0.0127 Uiso
C35_10 C 0.696976 0.699120 0.022105 0.0127 Uiso
C37_10 C 0.583679 0.545257 0.046427 0.0127 Uiso
C38_10 C 0.606740 0.579175 0.105826 0.0127 Uiso
C39_10 C 0.581303 0.439215 0.099078 0.0127 Uiso
C40_10 C 0.612295 0.434081 0.044201 0.0127 Uiso
O5_10 O 0.793245 0.614823 0.019822 0.0127 Uiso
C45_10 C 0.819502 0.673898 0.023462 0.0127 Uiso
O6_10 O 0.710899 0.726018 0.048684 0.0127 Uiso
C46_10 C 0.663331 0.674773 0.025399 0.0127 Uiso
O7_10 O 0.560635 0.531210 0.013636 0.0127 Uiso
C47_10 C 0.582613 0.567017 0.074897 0.0127 Uiso
O8_10 O 0.553664 0.425736 0.125804 0.0127 Uiso
C48_10 C 0.584748 0.419512 0.069441 0.0127 Uiso
C53_10 C 0.523276 0.417124 0.108941 0.0127 Uiso
O13_10 O 0.520569 0.432215 0.079804 0.0127 Uiso
C58_10 C 0.491994 0.387775 0.127265 0.0127 Uiso
N21_10 N 0.702025 0.583702 0.087132 0.0127 Uiso
N22_10 N 0.701532 0.521582 0.088296 0.0127 Uiso
C64_10 C 0.725584 0.595349 0.117415 0.0127 Uiso
C65_10 C 0.703164 0.606267 0.059192 0.0127 Uiso
C66_10 C 0.728646 0.534257 0.063567 0.0127 Uiso
C67_10 C 0.698168 0.498778 0.117469 0.0127 Uiso
C72_10 C 0.749654 0.628245 0.120240 0.0127 Uiso
C73_10 C 0.726593 0.639102 0.060841 0.0127 Uiso
C74_10 C 0.752030 0.524579 0.067589 0.0127 Uiso
C75_10 C 0.721038 0.488453 0.122466 0.0127 Uiso
O16_10 O 0.772698 0.637242 0.153031 0.0127 Uiso
C85_10 C 0.750720 0.651071 0.091770 0.0127 Uiso
O17_10 O 0.779669 0.538739 0.040863 0.0127 Uiso
C86_10 C 0.748585 0.501431 0.097226 0.0127 Uiso
C87_10 C 0.778451 0.663627 0.177279 0.0127 Uiso
C88_10 C 0.810057 0.560515 0.057726 0.0127 Uiso
O18_10 O 0.756391 0.668573 0.187869 0.0127 Uiso
C89_10 C 0.813335 0.687254 0.191240 0.0127 Uiso
O19_10 O 0.812764 0.578313 0.086863 0.0127 Uiso
C90_10 C 0.841339 0.562448 0.039402 0.0127 Uiso
H2_10 H 0.725322 0.577957 0.140191 . .
H6_10 H 0.684647 0.597703 0.034653 . .
H7_10 H 0.676484 0.488343 0.137599 . .
H10_10 H 0.504156 0.535837 0.00235194 . .
H11_10 H 0.732001 0.552456 0.0400511 . .
H16_10 H 0.493727 0.365328 0.1248 . .
H17_10 H 0.470267 0.38441 0.110343 . .
H18_10 H 0.489734 0.392707 0.159688 . .
H24_10 H 0.71738 0.470235 0.146105 . .
H26_10 H 0.726467 0.656133 0.0378049 . .
H32_10 H 0.769607 0.677239 0.0935007 . .
H33_10 H 0.767111 0.493771 0.100412 . .
H34_10 H 0.839606 0.538268 0.0418667 . .
H35_10 H 0.863067 0.58081 0.0563238 . .
H36_10 H 0.8436 0.56964 0.00697833 . .
H37_10 H 0.822586 0.673817 0.209336 . .
H38_10 H 0.813518 0.706716 0.210184 . .
H39_10 H 0.829178 0.698348 0.164315 . .
H68_10 H 0.601333 0.487122 0.126616 . .
H73_10 H 0.648687 0.579723 0.132014 . .
H76_10 H 0.65685 0.478526 0.0290674 . .
H83_10 H 0.608012 0.519302 0.0264757 . .
H85_10 H 0.839446 0.725837 0.0224694 . .
H87_10 H 0.771111 0.600208 0.0323793 . .
H93_10 H 0.647706 0.676765 0.0490106 . .
H95_10 H 0.837091 0.67485 0.0464393 . .
H96_10 H 0.566222 0.393326 0.0662549 . .
H97_10 H 0.606866 0.596332 0.128862 . .
H98_10 H 0.729311 0.726101 0.0643575 . .
H99_10 H 0.615953 0.419522 0.0205621 . .
H100_10 H 0.563727 0.574299 0.073166 . .
N13_10 N 0.774611 0.672115 0.964449 0.0127 Uiso
N14_10 N 0.703386 0.669686 0.964893 0.0127 Uiso
C17_10 C 0.773560 0.644147 0.977945 0.0127 Uiso
C18_10 C 0.798070 0.701042 0.980413 0.0127 Uiso
C19_10 C 0.715922 0.695509 0.991484 0.0127 Uiso
C20_10 C 0.670690 0.646236 0.968448 0.0127 Uiso
C36_10 C 0.650114 0.647894 0.997944 0.0127 Uiso
C52_10 C 0.554882 0.551842 0.989388 0.0127 Uiso
O12_10 O 0.576942 0.578848 0.978798 0.0127 Uiso
C57_10 C 0.519998 0.540585 0.975427 0.0127 Uiso
N18_10 N 0.769163 0.661218 0.868884 0.0127 Uiso
N19_10 N 0.700367 0.663647 0.868440 0.0127 Uiso
C60_10 C 0.796080 0.689186 0.855388 0.0127 Uiso
C61_10 C 0.763695 0.632291 0.852920 0.0127 Uiso
C62_10 C 0.687080 0.637824 0.841849 0.0127 Uiso
C63_10 C 0.691121 0.687097 0.864885 0.0127 Uiso
C68_10 C 0.818193 0.689665 0.826250 0.0127 Uiso
C69_10 C 0.785330 0.631354 0.823282 0.0127 Uiso
C70_10 C 0.664523 0.634213 0.811228 0.0127 Uiso
C71_10 C 0.668887 0.685439 0.835389 0.0127 Uiso
O14_10 O 0.845089 0.718510 0.813511 0.0127 Uiso
C83_10 C 0.812271 0.659435 0.809871 0.0127 Uiso
O15_10 O 0.651548 0.607315 0.784649 0.0127 Uiso
C84_10 C 0.655225 0.658560 0.807934 0.0127 Uiso
H1_10 H 0.742191 0.609202 0.86306 . .
H8_10 H 0.510747 0.517898 0.957331 . .
H9_10 H 0.519815 0.559864 0.956483 . .
H15_10 H 0.800715 0.712808 0.868152 . .
H19_10 H 0.694352 0.618973 0.844496 . .
H20_10 H 0.701722 0.708033 0.886218 . .
H25_10 H 0.828907 0.658483 0.786894 . .
H27_10 H 0.780276 0.607497 0.810864 . .
H28_10 H 0.83757 0.733125 0.800954 . .
H29_10 H 0.637607 0.656568 0.784323 . .
H30_10 H 0.662097 0.704681 0.833507 . .
H31_10 H 0.669877 0.607233 0.768976 . .
H47_19 H 0.778786 0.399054 0.696233 . .
H66_10 H 0.754574 0.620526 0.965181 . .
H72_10 H 0.742045 0.71436 0.988838 . .
H78_10 H 0.660356 0.625301 0.947115 . .
H82_10 H 0.799656 0.724131 0.970273 . .
H88_19 H 0.731153 0.482144 0.991122 . .
H89_10 H 0.624083 0.628652 0.999826 . .
N15_11 N 0.451657 0.082965 0.079535 0.0127 Uiso
N16_11 N 0.513284 0.145085 0.078371 0.0127 Uiso
C21_11 C 0.463569 0.071318 0.049252 0.0127 Uiso
C22_11 C 0.430231 0.060400 0.107475 0.0127 Uiso
C23_11 C 0.527723 0.132410 0.103100 0.0127 Uiso
C24_11 C 0.532724 0.167889 0.049198 0.0127 Uiso
C33_11 C 0.356332 0.151526 0.007083 0.0127 Uiso
C34_11 C 0.298021 0.118663 0.010051 0.0127 Uiso
C37_11 C 0.454743 0.038422 0.046427 0.0127 Uiso
C38_11 C 0.420825 0.027565 0.105826 0.0127 Uiso
C39_11 C 0.560785 0.142088 0.099078 0.0127 Uiso
C40_11 C 0.565919 0.178214 0.044201 0.0127 Uiso
O5_11 O 0.385177 0.178422 0.019822 0.0127 Uiso
C45_11 C 0.326102 0.145604 0.023462 0.0127 Uiso
O7_11 O 0.468790 0.029425 0.013636 0.0127 Uiso
C47_11 C 0.432983 0.015596 0.074897 0.0127 Uiso
O8_11 O 0.574264 0.127928 0.125804 0.0127 Uiso
C48_11 C 0.580488 0.165236 0.069441 0.0127 Uiso
C53_11 C 0.582876 0.106152 0.108941 0.0127 Uiso
O13_11 O 0.567785 0.088354 0.079804 0.0127 Uiso
C58_11 C 0.612225 0.104219 0.127265 0.0127 Uiso
N21_11 N 0.416298 0.118324 0.087132 0.0127 Uiso
N22_11 N 0.478418 0.179951 0.088296 0.0127 Uiso
C64_11 C 0.404651 0.130236 0.117415 0.0127 Uiso
C65_11 C 0.393733 0.096898 0.059192 0.0127 Uiso
C66_11 C 0.465743 0.194390 0.063567 0.0127 Uiso
C67_11 C 0.501222 0.199391 0.117469 0.0127 Uiso
C72_11 C 0.371755 0.121410 0.120240 0.0127 Uiso
C73_11 C 0.360898 0.087492 0.060841 0.0127 Uiso
C74_11 C 0.475421 0.227452 0.067589 0.0127 Uiso
C75_11 C 0.511547 0.232586 0.122466 0.0127 Uiso
O16_11 O 0.362758 0.135457 0.153031 0.0127 Uiso
C85_11 C 0.348929 0.099650 0.091770 0.0127 Uiso
O17_11 O 0.461261 0.240931 0.040863 0.0127 Uiso
C86_11 C 0.498569 0.247155 0.097226 0.0127 Uiso
C87_11 C 0.336373 0.114825 0.177279 0.0127 Uiso
C88_11 C 0.439485 0.249543 0.057726 0.0127 Uiso
O18_11 O 0.331427 0.087819 0.187869 0.0127 Uiso
C89_11 C 0.312746 0.126082 0.191240 0.0127 Uiso
O19_11 O 0.421687 0.234452 0.086863 0.0127 Uiso
C90_11 C 0.437552 0.278892 0.039402 0.0127 Uiso
H2_11 H 0.422043 0.147365 0.140191 . .
H6_11 H 0.402297 0.0869439 0.034653 . .
H7_11 H 0.511657 0.188141 0.137599 . .
H11_11 H 0.447544 0.179544 0.0400511 . .
H16_11 H 0.634672 0.128399 0.1248 . .
H17_11 H 0.61559 0.0858564 0.110343 . .
H18_11 H 0.607293 0.0970266 0.159688 . .
H24_11 H 0.529765 0.247145 0.146105 . .
H26_11 H 0.343867 0.0703344 0.0378049 . .
H32_11 H 0.322761 0.0923674 0.0935007 . .
H33_11 H 0.506229 0.273341 0.100412 . .
H34_11 H 0.461732 0.301339 0.0418667 . .
H35_11 H 0.41919 0.282257 0.0563238 . .
H36_11 H 0.43036 0.27396 0.00697833 . .
H37_11 H 0.326183 0.148769 0.209336 . .
H38_11 H 0.293284 0.106803 0.210184 . .
H39_11 H 0.301652 0.13083 0.164315 . .
H68_11 H 0.512878 0.114211 0.126616 . .
H73_11 H 0.420277 0.0689639 0.132014 . .
H76_11 H 0.521474 0.178324 0.0290674 . .
H83_11 H 0.480698 0.0887096 0.0264757 . .
H85_11 H 0.274163 0.113609 0.0224694 . .
H87_11 H 0.399792 0.170903 0.0323793 . .
H95_11 H 0.32515 0.16224 0.0464393 . .
H96_11 H 0.606674 0.172896 0.0662549 . .
H97_11 H 0.403668 0.0105341 0.128862 . .
H98_11 H 0.273899 0.0032105 0.0643575 . .
H99_11 H 0.580478 0.196431 0.0205621 . .
N13_11 N 0.327885 0.102496 0.964449 0.0127 Uiso
N14_11 N 0.330314 0.033700 0.964893 0.0127 Uiso
C17_11 C 0.355853 0.129413 0.977945 0.0127 Uiso
C18_11 C 0.298958 0.097028 0.980413 0.0127 Uiso
C19_11 C 0.304491 0.020413 0.991484 0.0127 Uiso
C20_11 C 0.353764 0.024454 0.968448 0.0127 Uiso
C36_11 C 0.352106 0.002220 0.997944 0.0127 Uiso
C52_11 C 0.448158 0.003040 0.989388 0.0127 Uiso
N18_11 N 0.338782 0.107944 0.868884 0.0127 Uiso
N19_11 N 0.336353 0.036719 0.868440 0.0127 Uiso
C60_11 C 0.310814 0.106893 0.855388 0.0127 Uiso
C61_11 C 0.367709 0.131403 0.852920 0.0127 Uiso
C62_11 C 0.362176 0.049255 0.841849 0.0127 Uiso
C63_11 C 0.312903 0.004023 0.864885 0.0127 Uiso
C68_11 C 0.310335 0.128527 0.826250 0.0127 Uiso
C69_11 C 0.368646 0.153975 0.823282 0.0127 Uiso
C70_11 C 0.365787 0.030309 0.811228 0.0127 Uiso
O14_11 O 0.281490 0.126578 0.813511 0.0127 Uiso
C83_11 C 0.340565 0.152835 0.809871 0.0127 Uiso
O15_11 O 0.392685 0.044232 0.784649 0.0127 Uiso
H1_11 H 0.390798 0.132989 0.86306 . .
H15_11 H 0.287192 0.0879074 0.868152 . .
H19_11 H 0.381027 0.0753781 0.844496 . .
H25_11 H 0.341517 0.170424 0.786894 . .
H27_11 H 0.392503 0.172779 0.810864 . .
H28_11 H 0.266875 0.104445 0.800954 . .
H31_11 H 0.392767 0.0626443 0.768976 . .
H47_20 H 0.600946 0.379732 0.696233 . .
H66_11 H 0.379474 0.134048 0.965181 . .
H72_11 H 0.28564 0.0276849 0.988838 . .
H78_11 H 0.374699 0.035055 0.947115 . .
H82_11 H 0.275869 0.0755245 0.970273 . .
H88_20 H 0.517856 0.249009 0.991122 . .
C35_11 C 0.300880 0.997856 0.022105 0.0127 Uiso
O6_11 O 0.273982 0.984881 0.048684 0.0127 Uiso
C46_11 C 0.325227 0.988558 0.025399 0.0127 Uiso
H10_11 H 0.464163 0.968319 0.00235194 . .
H93_11 H 0.323235 0.970941 0.0490106 . .
H100_11 H 0.425701 0.989428 0.073166 . .
O12_11 O 0.421152 0.998094 0.978798 0.0127 Uiso
C57_11 C 0.459415 0.979413 0.975427 0.0127 Uiso
C71_11 C 0.314561 0.983447 0.835389 0.0127 Uiso
C84_11 C 0.341440 0.996664 0.807934 0.0127 Uiso
H8_11 H 0.482102 0.99285 0.957331 . .
H9_11 H 0.440136 0.959951 0.956483 . .
H20_11 H 0.291967 0.993689 0.886218 . .
H29_11 H 0.343432 0.981039 0.784323 . .
H30_11 H 0.295319 0.957416 0.833507 . .
H89_11 H 0.371348 0.99543 0.999826 . .
C35_12 C 0.002144 0.303024 0.022105 0.0127 Uiso
O6_12 O 0.015119 0.289101 0.048684 0.0127 Uiso
C46_12 C 0.011442 0.336669 0.025399 0.0127 Uiso
H10_12 H 0.0316813 0.495844 0.00235194 . .
H93_12 H 0.0290592 0.352294 0.0490106 . .
H100_12 H 0.0105724 0.436273 0.073166 . .
O12_12 O 0.001906 0.423058 0.978798 0.0127 Uiso
C57_12 C 0.020587 0.480002 0.975427 0.0127 Uiso
C71_12 C 0.016553 0.331113 0.835389 0.0127 Uiso
C84_12 C 0.003336 0.344775 0.807934 0.0127 Uiso
H8_12 H 0.00715032 0.489253 0.957331 . .
H9_12 H 0.0400489 0.480185 0.956483 . .
H20_12 H 0.00631112 0.298278 0.886218 . .
H29_12 H 0.0189607 0.362393 0.784323 . .
H30_12 H 0.0425842 0.337903 0.833507 . .
H89_12 H 0.00456989 0.375917 0.999826 . .
N15_12 N 0.917035 0.368692 0.079535 0.0127 Uiso
N16_12 N 0.854915 0.368199 0.078371 0.0127 Uiso
C21_12 C 0.928682 0.392251 0.049252 0.0127 Uiso
C22_12 C 0.939600 0.369831 0.107475 0.0127 Uiso
C23_12 C 0.867590 0.395313 0.103100 0.0127 Uiso
C24_12 C 0.832111 0.364835 0.049198 0.0127 Uiso
C33_12 C 0.848474 0.204806 0.007083 0.0127 Uiso
C34_12 C 0.881337 0.179358 0.010051 0.0127 Uiso
C37_12 C 0.961578 0.416321 0.046427 0.0127 Uiso
C38_12 C 0.972435 0.393260 0.105826 0.0127 Uiso
C39_12 C 0.857912 0.418697 0.099078 0.0127 Uiso
C40_12 C 0.821786 0.387705 0.044201 0.0127 Uiso
O5_12 O 0.821578 0.206755 0.019822 0.0127 Uiso
C45_12 C 0.854396 0.180498 0.023462 0.0127 Uiso
O7_12 O 0.970575 0.439365 0.013636 0.0127 Uiso
C47_12 C 0.984404 0.417387 0.074897 0.0127 Uiso
O8_12 O 0.872072 0.446336 0.125804 0.0127 Uiso
C48_12 C 0.834764 0.415252 0.069441 0.0127 Uiso
C53_12 C 0.893848 0.476724 0.108941 0.0127 Uiso
O13_12 O 0.911646 0.479431 0.079804 0.0127 Uiso
C58_12 C 0.895781 0.508006 0.127265 0.0127 Uiso
N21_12 N 0.881676 0.297975 0.087132 0.0127 Uiso
N22_12 N 0.820049 0.298468 0.088296 0.0127 Uiso
C64_12 C 0.869764 0.274416 0.117415 0.0127 Uiso
C65_12 C 0.903102 0.296836 0.059192 0.0127 Uiso
C66_12 C 0.805610 0.271354 0.063567 0.0127 Uiso
C67_12 C 0.800609 0.301832 0.117469 0.0127 Uiso
C72_12 C 0.878590 0.250346 0.120240 0.0127 Uiso
C73_12 C 0.912508 0.273407 0.060841 0.0127 Uiso
C74_12 C 0.772548 0.247970 0.067589 0.0127 Uiso
C75_12 C 0.767414 0.278962 0.122466 0.0127 Uiso
O16_12 O 0.864543 0.227302 0.153031 0.0127 Uiso
C85_12 C 0.900350 0.249280 0.091770 0.0127 Uiso
O17_12 O 0.759069 0.220331 0.040863 0.0127 Uiso
C86_12 C 0.752845 0.251415 0.097226 0.0127 Uiso
C87_12 C 0.885175 0.221549 0.177279 0.0127 Uiso
C88_12 C 0.750457 0.189943 0.057726 0.0127 Uiso
O18_12 O 0.912181 0.243609 0.187869 0.0127 Uiso
C89_12 C 0.873918 0.186665 0.191240 0.0127 Uiso
O19_12 O 0.765548 0.187236 0.086863 0.0127 Uiso
C90_12 C 0.721108 0.158661 0.039402 0.0127 Uiso
H2_12 H 0.852635 0.274678 0.140191 . .
H6_12 H 0.913056 0.315353 0.034653 . .
H7_12 H 0.811859 0.323516 0.137599 . .
H11_12 H 0.820456 0.267999 0.0400511 . .
H16_12 H 0.871601 0.506273 0.1248 . .
H17_12 H 0.914144 0.529733 0.110343 . .
H18_12 H 0.902973 0.510266 0.159688 . .
H24_12 H 0.752855 0.28262 0.146105 . .
H26_12 H 0.929666 0.273533 0.0378049 . .
H32_12 H 0.907633 0.230393 0.0935007 . .
H33_12 H 0.726659 0.232889 0.100412 . .
H34_12 H 0.698661 0.160394 0.0418667 . .
H35_12 H 0.717743 0.136933 0.0563238 . .
H36_12 H 0.72604 0.1564 0.00697833 . .
H37_12 H 0.851231 0.177414 0.209336 . .
H38_12 H 0.893197 0.186482 0.210184 . .
H39_12 H 0.86917 0.170822 0.164315 . .
H68_12 H 0.885789 0.398667 0.126616 . .
H73_12 H 0.931036 0.351313 0.132014 . .
H76_12 H 0.821676 0.34315 0.0290674 . .
H83_12 H 0.91129 0.391988 0.0264757 . .
H85_12 H 0.886391 0.160554 0.0224694 . .
H87_12 H 0.829097 0.228889 0.0323793 . .
H95_12 H 0.83776 0.162909 0.0464393 . .
H96_12 H 0.827104 0.433778 0.0662549 . .
H97_12 H 0.989466 0.393134 0.128862 . .
H98_12 H 0.996789 0.270689 0.0643575 . .
H99_12 H 0.803569 0.384047 0.0205621 . .
N13_12 N 0.897504 0.225389 0.964449 0.0127 Uiso
N14_12 N 0.966300 0.296614 0.964893 0.0127 Uiso
C17_12 C 0.870587 0.226440 0.977945 0.0127 Uiso
C18_12 C 0.902972 0.201930 0.980413 0.0127 Uiso
C19_12 C 0.979587 0.284078 0.991484 0.0127 Uiso
C20_12 C 0.975546 0.329310 0.968448 0.0127 Uiso
C36_12 C 0.997780 0.349886 0.997944 0.0127 Uiso
C52_12 C 0.996960 0.445118 0.989388 0.0127 Uiso
N18_12 N 0.892056 0.230837 0.868884 0.0127 Uiso
N19_12 N 0.963281 0.299633 0.868440 0.0127 Uiso
C60_12 C 0.893107 0.203920 0.855388 0.0127 Uiso
C61_12 C 0.868597 0.236305 0.852920 0.0127 Uiso
C62_12 C 0.950745 0.312920 0.841849 0.0127 Uiso
C63_12 C 0.995977 0.308879 0.864885 0.0127 Uiso
C68_12 C 0.871473 0.181807 0.826250 0.0127 Uiso
C69_12 C 0.846025 0.214670 0.823282 0.0127 Uiso
C70_12 C 0.969691 0.335477 0.811228 0.0127 Uiso
O14_12 O 0.873422 0.154911 0.813511 0.0127 Uiso
C83_12 C 0.847165 0.187729 0.809871 0.0127 Uiso
O15_12 O 0.955768 0.348452 0.784649 0.0127 Uiso
H1_12 H 0.867011 0.257809 0.86306 . .
H15_12 H 0.912093 0.199285 0.868152 . .
H19_12 H 0.924622 0.305648 0.844496 . .
H25_12 H 0.829576 0.171093 0.786894 . .
H27_12 H 0.827221 0.219724 0.810864 . .
H28_12 H 0.895555 0.16243 0.800954 . .
H31_12 H 0.937356 0.330123 0.768976 . .
H47_21 H 0.620268 0.221214 0.696233 . .
H66_12 H 0.865952 0.245426 0.965181 . .
H72_12 H 0.972315 0.257955 0.988838 . .
H78_12 H 0.964945 0.339644 0.947115 . .
H82_12 H 0.924475 0.200344 0.970273 . .
H88_21 H 0.750991 0.268847 0.991122 . .
N13_13 N 0.441278 0.005448 0.297782 0.0127 Uiso
N14_13 N 0.370053 0.003019 0.298226 0.0127 Uiso
C18_13 C 0.464737 0.034375 0.313746 0.0127 Uiso
C19_13 C 0.382589 0.028842 0.324817 0.0127 Uiso
C34_13 C 0.487309 0.035312 0.343384 0.0127 Uiso
C35_13 C 0.363643 0.032453 0.355438 0.0127 Uiso
C45_13 C 0.486169 0.007231 0.356795 0.0127 Uiso
O6_13 O 0.377566 0.059351 0.382017 0.0127 Uiso
C46_13 C 0.329998 0.008106 0.358732 0.0127 Uiso
C60_13 C 0.462746 0.022520 0.188722 0.0127 Uiso
C63_13 C 0.357787 0.020431 0.198219 0.0127 Uiso
C68_13 C 0.484859 0.022999 0.159584 0.0127 Uiso
C71_13 C 0.335553 0.018773 0.168723 0.0127 Uiso
O14_13 O 0.511755 0.051844 0.146845 0.0127 Uiso
O18_13 O 0.423058 0.001906 0.521202 0.0127 Uiso
C89_13 C 0.480002 0.020587 0.524573 0.0127 Uiso
H15_13 H 0.467382 0.046141 0.201486 . .
H20_13 H 0.368388 0.0413661 0.219552 . .
H28_13 H 0.504237 0.0664585 0.134287 . .
H30_13 H 0.328763 0.0380143 0.16684 . .
H32_13 H 0.436273 0.0105724 0.426834 . .
H37_13 H 0.489253 0.00715032 0.542669 . .
H38_13 H 0.480185 0.0400489 0.543517 . .
H39_13 H 0.495844 0.0316813 0.497648 . .
H72_13 H 0.408711 0.0476932 0.322171 . .
H82_13 H 0.466322 0.0574644 0.303607 . .
H85_13 H 0.506113 0.0591702 0.355803 . .
H93_13 H 0.314373 0.0100986 0.382344 . .
H95_13 H 0.503757 0.00818363 0.379773 . .
H98_13 H 0.395978 0.0594338 0.397691 . .
N15_13 N 0.297975 0.881676 0.412868 0.0127 Uiso
N16_13 N 0.298468 0.820049 0.411704 0.0127 Uiso
C17_13 C 0.440227 0.977480 0.311278 0.0127 Uiso
C20_13 C 0.337357 0.979569 0.301781 0.0127 Uiso
C21_13 C 0.274416 0.869764 0.382585 0.0127 Uiso
C22_13 C 0.296836 0.903102 0.440808 0.0127 Uiso
C23_13 C 0.271354 0.805610 0.436433 0.0127 Uiso
C24_13 C 0.301832 0.800609 0.382531 0.0127 Uiso
C33_13 C 0.461861 0.977001 0.340416 0.0127 Uiso
C36_13 C 0.316781 0.981227 0.331277 0.0127 Uiso
C37_13 C 0.250346 0.878590 0.379760 0.0127 Uiso
C38_13 C 0.273407 0.912508 0.439159 0.0127 Uiso
C39_13 C 0.247970 0.772548 0.432411 0.0127 Uiso
C40_13 C 0.278962 0.767414 0.377534 0.0127 Uiso
O5_13 O 0.459912 0.948156 0.353155 0.0127 Uiso
O7_13 O 0.227302 0.864543 0.346969 0.0127 Uiso
C47_13 C 0.249280 0.900350 0.408230 0.0127 Uiso
O8_13 O 0.220331 0.759069 0.459137 0.0127 Uiso
C48_13 C 0.251415 0.752845 0.402774 0.0127 Uiso
C52_13 C 0.221549 0.885175 0.322721 0.0127 Uiso
C53_13 C 0.189943 0.750457 0.442274 0.0127 Uiso
O12_13 O 0.243609 0.912181 0.312131 0.0127 Uiso
C57_13 C 0.186665 0.873918 0.308760 0.0127 Uiso
O13_13 O 0.187236 0.765548 0.413137 0.0127 Uiso
C58_13 C 0.158661 0.721108 0.460598 0.0127 Uiso
N18_13 N 0.435829 0.994552 0.202218 0.0127 Uiso
N19_13 N 0.367033 0.996981 0.201774 0.0127 Uiso
N21_13 N 0.368692 0.917035 0.420465 0.0127 Uiso
N22_13 N 0.368199 0.854915 0.421629 0.0127 Uiso
C61_13 C 0.430361 0.965625 0.186254 0.0127 Uiso
C62_13 C 0.353746 0.971158 0.175183 0.0127 Uiso
C64_13 C 0.392251 0.928682 0.450748 0.0127 Uiso
C65_13 C 0.369831 0.939600 0.392525 0.0127 Uiso
C66_13 C 0.395313 0.867590 0.396900 0.0127 Uiso
C67_13 C 0.364835 0.832111 0.450802 0.0127 Uiso
C69_13 C 0.451996 0.964688 0.156616 0.0127 Uiso
C70_13 C 0.331189 0.967547 0.144562 0.0127 Uiso
C72_13 C 0.416321 0.961578 0.453573 0.0127 Uiso
C73_13 C 0.393260 0.972435 0.394174 0.0127 Uiso
C74_13 C 0.418697 0.857912 0.400922 0.0127 Uiso
C75_13 C 0.387705 0.821786 0.455799 0.0127 Uiso
C83_13 C 0.478937 0.992769 0.143205 0.0127 Uiso
O15_13 O 0.318214 0.940649 0.117983 0.0127 Uiso
C84_13 C 0.321891 0.991894 0.141268 0.0127 Uiso
O16_13 O 0.439365 0.970575 0.486364 0.0127 Uiso
C85_13 C 0.417387 0.984404 0.425103 0.0127 Uiso
O17_13 O 0.446336 0.872072 0.374196 0.0127 Uiso
C86_13 C 0.415252 0.834764 0.430559 0.0127 Uiso
C87_13 C 0.445118 0.996960 0.510612 0.0127 Uiso
C88_13 C 0.476724 0.893848 0.391059 0.0127 Uiso
O19_13 O 0.479431 0.911646 0.420196 0.0127 Uiso
C90_13 C 0.508006 0.895781 0.372735 0.0127 Uiso
H1_13 H 0.408858 0.942536 0.196393 . .
H2_13 H 0.391988 0.91129 0.473524 . .
H6_13 H 0.351313 0.931036 0.367986 . .
H7_13 H 0.34315 0.821676 0.470933 . .
H8_13 H 0.177414 0.851231 0.290664 . .
H9_13 H 0.186482 0.893197 0.289816 . .
H10_13 H 0.170822 0.86917 0.335685 . .
H11_13 H 0.398667 0.885789 0.373384 . .
H16_13 H 0.160394 0.698661 0.458133 . .
H17_13 H 0.136933 0.717743 0.443676 . .
H18_13 H 0.1564 0.72604 0.493022 . .
H19_13 H 0.361018 0.952307 0.177829 . .
H24_13 H 0.384047 0.803569 0.479438 . .
H25_13 H 0.495574 0.991816 0.120227 . .
H26_13 H 0.393134 0.989466 0.371138 . .
H27_13 H 0.446943 0.94083 0.144197 . .
H29_13 H 0.304274 0.989901 0.117656 . .
H31_13 H 0.336544 0.940566 0.102309 . .
H33_13 H 0.433778 0.827104 0.433745 . .
H34_13 H 0.506273 0.871601 0.3752 . .
H35_13 H 0.529733 0.914144 0.389657 . .
H36_13 H 0.510266 0.902973 0.340312 . .
H47_22 H 0.445453 0.732388 0.0295661 . .
H66_13 H 0.421241 0.953859 0.298514 . .
H68_13 H 0.267999 0.820456 0.459949 . .
H73_13 H 0.315353 0.913056 0.465347 . .
H76_13 H 0.323516 0.811859 0.362401 . .
H78_13 H 0.327022 0.958634 0.280448 . .
H83_13 H 0.274678 0.852635 0.359809 . .
H87_13 H 0.437778 0.933542 0.365713 . .
H88_22 H 0.39782 0.815477 0.324455 . .
H89_13 H 0.290749 0.961986 0.33316 . .
H96_13 H 0.232889 0.726659 0.399588 . .
H97_13 H 0.273533 0.929666 0.462195 . .
H99_13 H 0.28262 0.752855 0.353895 . .
H100_13 H 0.230393 0.907633 0.406499 . .
N15_14 N 0.118324 0.416298 0.412868 0.0127 Uiso
N16_14 N 0.179951 0.478418 0.411704 0.0127 Uiso
C17_14 C 0.022520 0.462746 0.311278 0.0127 Uiso
C20_14 C 0.020431 0.357787 0.301781 0.0127 Uiso
C21_14 C 0.130236 0.404651 0.382585 0.0127 Uiso
C22_14 C 0.096898 0.393733 0.440808 0.0127 Uiso
C23_14 C 0.194390 0.465743 0.436433 0.0127 Uiso
C24_14 C 0.199391 0.501222 0.382531 0.0127 Uiso
C33_14 C 0.022999 0.484859 0.340416 0.0127 Uiso
C36_14 C 0.018773 0.335553 0.331277 0.0127 Uiso
C37_14 C 0.121410 0.371755 0.379760 0.0127 Uiso
C38_14 C 0.087492 0.360898 0.439159 0.0127 Uiso
C39_14 C 0.227452 0.475421 0.432411 0.0127 Uiso
C40_14 C 0.232586 0.511547 0.377534 0.0127 Uiso
O5_14 O 0.051844 0.511755 0.353155 0.0127 Uiso
O7_14 O 0.135457 0.362758 0.346969 0.0127 Uiso
C47_14 C 0.099650 0.348929 0.408230 0.0127 Uiso
O8_14 O 0.240931 0.461261 0.459137 0.0127 Uiso
C48_14 C 0.247155 0.498569 0.402774 0.0127 Uiso
C52_14 C 0.114825 0.336373 0.322721 0.0127 Uiso
C53_14 C 0.249543 0.439485 0.442274 0.0127 Uiso
O12_14 O 0.087819 0.331427 0.312131 0.0127 Uiso
C57_14 C 0.126082 0.312746 0.308760 0.0127 Uiso
O13_14 O 0.234452 0.421687 0.413137 0.0127 Uiso
C58_14 C 0.278892 0.437552 0.460598 0.0127 Uiso
N18_14 N 0.005448 0.441278 0.202218 0.0127 Uiso
N19_14 N 0.003019 0.370053 0.201774 0.0127 Uiso
N21_14 N 0.082965 0.451657 0.420465 0.0127 Uiso
N22_14 N 0.145085 0.513284 0.421629 0.0127 Uiso
C61_14 C 0.034375 0.464737 0.186254 0.0127 Uiso
C62_14 C 0.028842 0.382589 0.175183 0.0127 Uiso
C64_14 C 0.071318 0.463569 0.450748 0.0127 Uiso
C65_14 C 0.060400 0.430231 0.392525 0.0127 Uiso
C66_14 C 0.132410 0.527723 0.396900 0.0127 Uiso
C67_14 C 0.167889 0.532724 0.450802 0.0127 Uiso
C69_14 C 0.035312 0.487309 0.156616 0.0127 Uiso
C70_14 C 0.032453 0.363643 0.144562 0.0127 Uiso
C72_14 C 0.038422 0.454743 0.453573 0.0127 Uiso
C73_14 C 0.027565 0.420825 0.394174 0.0127 Uiso
C74_14 C 0.142088 0.560785 0.400922 0.0127 Uiso
C75_14 C 0.178214 0.565919 0.455799 0.0127 Uiso
C83_14 C 0.007231 0.486169 0.143205 0.0127 Uiso
O15_14 O 0.059351 0.377566 0.117983 0.0127 Uiso
C84_14 C 0.008106 0.329998 0.141268 0.0127 Uiso
O16_14 O 0.029425 0.468790 0.486364 0.0127 Uiso
C85_14 C 0.015596 0.432983 0.425103 0.0127 Uiso
O17_14 O 0.127928 0.574264 0.374196 0.0127 Uiso
C86_14 C 0.165236 0.580488 0.430559 0.0127 Uiso
C87_14 C 0.003040 0.448158 0.510612 0.0127 Uiso
C88_14 C 0.106152 0.582876 0.391059 0.0127 Uiso
O19_14 O 0.088354 0.567785 0.420196 0.0127 Uiso
C90_14 C 0.104219 0.612225 0.372735 0.0127 Uiso
H1_14 H 0.0574644 0.466322 0.196393 . .
H2_14 H 0.0887096 0.480698 0.473524 . .
H6_14 H 0.0689639 0.420277 0.367986 . .
H7_14 H 0.178324 0.521474 0.470933 . .
H8_14 H 0.148769 0.326183 0.290664 . .
H9_14 H 0.106803 0.293284 0.289816 . .
H10_14 H 0.13083 0.301652 0.335685 . .
H11_14 H 0.114211 0.512878 0.373384 . .
H16_14 H 0.301339 0.461732 0.458133 . .
H17_14 H 0.282257 0.41919 0.443676 . .
H18_14 H 0.27396 0.43036 0.493022 . .
H19_14 H 0.0476932 0.408711 0.177829 . .
H24_14 H 0.196431 0.580478 0.479438 . .
H25_14 H 0.00818363 0.503757 0.120227 . .
H26_14 H 0.0105341 0.403668 0.371138 . .
H27_14 H 0.0591702 0.506113 0.144197 . .
H29_14 H 0.0100986 0.314373 0.117656 . .
H31_14 H 0.0594338 0.395978 0.102309 . .
H33_14 H 0.172896 0.606674 0.433745 . .
H34_14 H 0.128399 0.634672 0.3752 . .
H35_14 H 0.0858564 0.61559 0.389657 . .
H36_14 H 0.0970266 0.607293 0.340312 . .
H47_23 H 0.267612 0.713065 0.0295661 . .
H66_14 H 0.046141 0.467382 0.298514 . .
H68_14 H 0.179544 0.447544 0.459949 . .
H73_14 H 0.0869439 0.402297 0.465347 . .
H76_14 H 0.188141 0.511657 0.362401 . .
H78_14 H 0.0413661 0.368388 0.280448 . .
H83_14 H 0.147365 0.422043 0.359809 . .
H87_14 H 0.0664585 0.504237 0.365713 . .
H88_23 H 0.184523 0.582343 0.324455 . .
H89_14 H 0.0380143 0.328763 0.33316 . .
H96_14 H 0.273341 0.506229 0.399588 . .
H97_14 H 0.0703344 0.343867 0.462195 . .
H99_14 H 0.247145 0.529765 0.353895 . .
H100_14 H 0.0923674 0.322761 0.406499 . .
N13_14 N 0.994552 0.435829 0.297782 0.0127 Uiso
N14_14 N 0.996981 0.367033 0.298226 0.0127 Uiso
C18_14 C 0.965625 0.430361 0.313746 0.0127 Uiso
C19_14 C 0.971158 0.353746 0.324817 0.0127 Uiso
C34_14 C 0.964688 0.451996 0.343384 0.0127 Uiso
C35_14 C 0.967547 0.331189 0.355438 0.0127 Uiso
C45_14 C 0.992769 0.478937 0.356795 0.0127 Uiso
O6_14 O 0.940649 0.318214 0.382017 0.0127 Uiso
C46_14 C 0.991894 0.321891 0.358732 0.0127 Uiso
C60_14 C 0.977480 0.440227 0.188722 0.0127 Uiso
C63_14 C 0.979569 0.337357 0.198219 0.0127 Uiso
C68_14 C 0.977001 0.461861 0.159584 0.0127 Uiso
C71_14 C 0.981227 0.316781 0.168723 0.0127 Uiso
O14_14 O 0.948156 0.459912 0.146845 0.0127 Uiso
O18_14 O 0.998094 0.421152 0.521202 0.0127 Uiso
C89_14 C 0.979413 0.459415 0.524573 0.0127 Uiso
H15_14 H 0.953859 0.421241 0.201486 . .
H20_14 H 0.958634 0.327022 0.219552 . .
H28_14 H 0.933542 0.437778 0.134287 . .
H30_14 H 0.961986 0.290749 0.16684 . .
H32_14 H 0.989428 0.425701 0.426834 . .
H37_14 H 0.99285 0.482102 0.542669 . .
H38_14 H 0.959951 0.440136 0.543517 . .
H39_14 H 0.968319 0.464163 0.497648 . .
H72_14 H 0.952307 0.361018 0.322171 . .
H82_14 H 0.942536 0.408858 0.303607 . .
H85_14 H 0.94083 0.446943 0.355803 . .
H93_14 H 0.989901 0.304274 0.382344 . .
H95_14 H 0.991816 0.495574 0.379773 . .
H98_14 H 0.940566 0.336544 0.397691 . .
N13_15 N 0.564171 0.558722 0.297782 0.0127 Uiso
N14_15 N 0.632967 0.629947 0.298226 0.0127 Uiso
N15_15 N 0.583702 0.702025 0.412868 0.0127 Uiso
N16_15 N 0.521582 0.701532 0.411704 0.0127 Uiso
C17_15 C 0.537254 0.559773 0.311278 0.0127 Uiso
C18_15 C 0.569639 0.535263 0.313746 0.0127 Uiso
C19_15 C 0.646254 0.617411 0.324817 0.0127 Uiso
C20_15 C 0.642213 0.662643 0.301781 0.0127 Uiso
C21_15 C 0.595349 0.725584 0.382585 0.0127 Uiso
C22_15 C 0.606267 0.703164 0.440808 0.0127 Uiso
C23_15 C 0.534257 0.728646 0.436433 0.0127 Uiso
C24_15 C 0.498778 0.698168 0.382531 0.0127 Uiso
C33_15 C 0.515141 0.538139 0.340416 0.0127 Uiso
C34_15 C 0.548004 0.512691 0.343384 0.0127 Uiso
C35_15 C 0.668811 0.636357 0.355438 0.0127 Uiso
C36_15 C 0.664447 0.683219 0.331277 0.0127 Uiso
C37_15 C 0.628245 0.749654 0.379760 0.0127 Uiso
C38_15 C 0.639102 0.726593 0.439159 0.0127 Uiso
C39_15 C 0.524579 0.752030 0.432411 0.0127 Uiso
C40_15 C 0.488453 0.721038 0.377534 0.0127 Uiso
O5_15 O 0.488245 0.540088 0.353155 0.0127 Uiso
C45_15 C 0.521063 0.513831 0.356795 0.0127 Uiso
O6_15 O 0.681786 0.622434 0.382017 0.0127 Uiso
C46_15 C 0.678109 0.670002 0.358732 0.0127 Uiso
O7_15 O 0.637242 0.772698 0.346969 0.0127 Uiso
C47_15 C 0.651071 0.750720 0.408230 0.0127 Uiso
O8_15 O 0.538739 0.779669 0.459137 0.0127 Uiso
C48_15 C 0.501431 0.748585 0.402774 0.0127 Uiso
C52_15 C 0.663627 0.778451 0.322721 0.0127 Uiso
C53_15 C 0.560515 0.810057 0.442274 0.0127 Uiso
O12_15 O 0.668573 0.756391 0.312131 0.0127 Uiso
C57_15 C 0.687254 0.813335 0.308760 0.0127 Uiso
O13_15 O 0.578313 0.812764 0.413137 0.0127 Uiso
C58_15 C 0.562448 0.841339 0.460598 0.0127 Uiso
N18_15 N 0.558722 0.564171 0.202218 0.0127 Uiso
N19_15 N 0.629947 0.632967 0.201774 0.0127 Uiso
N21_15 N 0.548343 0.631308 0.420465 0.0127 Uiso
N22_15 N 0.486716 0.631801 0.421629 0.0127 Uiso
C60_15 C 0.559773 0.537254 0.188722 0.0127 Uiso
C61_15 C 0.535263 0.569639 0.186254 0.0127 Uiso
C62_15 C 0.617411 0.646254 0.175183 0.0127 Uiso
C63_15 C 0.662643 0.642213 0.198219 0.0127 Uiso
C64_15 C 0.536431 0.607749 0.450748 0.0127 Uiso
C65_15 C 0.569769 0.630169 0.392525 0.0127 Uiso
C66_15 C 0.472277 0.604687 0.396900 0.0127 Uiso
C67_15 C 0.467276 0.635165 0.450802 0.0127 Uiso
C68_15 C 0.538139 0.515141 0.159584 0.0127 Uiso
C69_15 C 0.512691 0.548004 0.156616 0.0127 Uiso
C70_15 C 0.636357 0.668811 0.144562 0.0127 Uiso
C71_15 C 0.683219 0.664447 0.168723 0.0127 Uiso
C72_15 C 0.545257 0.583679 0.453573 0.0127 Uiso
C73_15 C 0.579175 0.606740 0.394174 0.0127 Uiso
C74_15 C 0.439215 0.581303 0.400922 0.0127 Uiso
C75_15 C 0.434081 0.612295 0.455799 0.0127 Uiso
O14_15 O 0.540088 0.488245 0.146845 0.0127 Uiso
C83_15 C 0.513831 0.521063 0.143205 0.0127 Uiso
O15_15 O 0.622434 0.681786 0.117983 0.0127 Uiso
C84_15 C 0.670002 0.678109 0.141268 0.0127 Uiso
O16_15 O 0.531210 0.560635 0.486364 0.0127 Uiso
C85_15 C 0.567017 0.582613 0.425103 0.0127 Uiso
O17_15 O 0.425736 0.553664 0.374196 0.0127 Uiso
C86_15 C 0.419512 0.584748 0.430559 0.0127 Uiso
C87_15 C 0.551842 0.554882 0.510612 0.0127 Uiso
C88_15 C 0.417124 0.523276 0.391059 0.0127 Uiso
O18_15 O 0.578848 0.576942 0.521202 0.0127 Uiso
C89_15 C 0.540585 0.519998 0.524573 0.0127 Uiso
O19_15 O 0.432215 0.520569 0.420196 0.0127 Uiso
C90_15 C 0.387775 0.491994 0.372735 0.0127 Uiso
H1_15 H 0.533678 0.591142 0.196393 . .
H2_15 H 0.519302 0.608012 0.473524 . .
H6_15 H 0.579723 0.648687 0.367986 . .
H7_15 H 0.478526 0.65685 0.470933 . .
H8_15 H 0.673817 0.822586 0.290664 . .
H9_15 H 0.706716 0.813518 0.289816 . .
H10_15 H 0.698348 0.829178 0.335685 . .
H11_15 H 0.487122 0.601333 0.373384 . .
H15_15 H 0.578759 0.532618 0.201486 . .
H16_15 H 0.538268 0.839606 0.458133 . .
H17_15 H 0.58081 0.863067 0.443676 . .
H18_15 H 0.56964 0.8436 0.493022 . .
H19_15 H 0.591289 0.638982 0.177829 . .
H20_15 H 0.672978 0.631612 0.219552 . .
H24_15 H 0.419522 0.615953 0.479438 . .
H25_15 H 0.496243 0.504426 0.120227 . .
H26_15 H 0.596332 0.606866 0.371138 . .
H27_15 H 0.493887 0.553057 0.144197 . .
H28_15 H 0.562222 0.495763 0.134287 . .
H29_15 H 0.685627 0.695726 0.117656 . .
H30_15 H 0.709251 0.671237 0.16684 . .
H31_15 H 0.604022 0.663456 0.102309 . .
H32_15 H 0.574299 0.563727 0.426834 . .
H33_15 H 0.393326 0.566222 0.433745 . .
H34_15 H 0.365328 0.493727 0.3752 . .
H35_15 H 0.38441 0.470267 0.389657 . .
H36_15 H 0.392707 0.489734 0.340312 . .
H37_15 H 0.517898 0.510747 0.542669 . .
H38_15 H 0.559864 0.519815 0.543517 . .
H39_15 H 0.535837 0.504156 0.497648 . .
H47_24 H 0.286935 0.554547 0.0295661 . .
H66_15 H 0.532618 0.578759 0.298514 . .
H68_15 H 0.552456 0.732001 0.459949 . .
H72_15 H 0.638982 0.591289 0.322171 . .
H73_15 H 0.597703 0.684647 0.465347 . .
H76_15 H 0.488343 0.676484 0.362401 . .
H78_15 H 0.631612 0.672978 0.280448 . .
H82_15 H 0.591142 0.533678 0.303607 . .
H83_15 H 0.577957 0.725322 0.359809 . .
H85_15 H 0.553057 0.493887 0.355803 . .
H87_15 H 0.495763 0.562222 0.365713 . .
H88_24 H 0.417657 0.60218 0.324455 . .
H89_15 H 0.671237 0.709251 0.33316 . .
H93_15 H 0.695726 0.685627 0.382344 . .
H95_15 H 0.504426 0.496243 0.379773 . .
H96_15 H 0.493771 0.767111 0.399588 . .
H97_15 H 0.656133 0.726467 0.462195 . .
H98_15 H 0.663456 0.604022 0.397691 . .
H99_15 H 0.470235 0.71738 0.353895 . .
H100_15 H 0.677239 0.769607 0.406499 . .
N13_16 N 0.107944 0.338782 0.631116 0.0127 Uiso
N14_16 N 0.036719 0.336353 0.631560 0.0127 Uiso
C17_16 C 0.106893 0.310814 0.644612 0.0127 Uiso
C18_16 C 0.131403 0.367709 0.647080 0.0127 Uiso
C19_16 C 0.049255 0.362176 0.658151 0.0127 Uiso
C20_16 C 0.004023 0.312903 0.635115 0.0127 Uiso
C33_16 C 0.128527 0.310335 0.673750 0.0127 Uiso
C34_16 C 0.153975 0.368646 0.676718 0.0127 Uiso
C35_16 C 0.030309 0.365787 0.688772 0.0127 Uiso
O5_16 O 0.126578 0.281490 0.686489 0.0127 Uiso
C45_16 C 0.152835 0.340565 0.690129 0.0127 Uiso
O6_16 O 0.044232 0.392685 0.715351 0.0127 Uiso
N18_16 N 0.102496 0.327885 0.535551 0.0127 Uiso
N19_16 N 0.033700 0.330314 0.535107 0.0127 Uiso
N21_16 N 0.035359 0.250368 0.753798 0.0127 Uiso
N22_16 N 0.034866 0.188248 0.754962 0.0127 Uiso
C60_16 C 0.129413 0.355853 0.522055 0.0127 Uiso
C61_16 C 0.097028 0.298958 0.519587 0.0127 Uiso
C62_16 C 0.020413 0.304491 0.508516 0.0127 Uiso
C63_16 C 0.024454 0.353764 0.531552 0.0127 Uiso
C64_16 C 0.058918 0.262015 0.784081 0.0127 Uiso
C65_16 C 0.036498 0.272933 0.725858 0.0127 Uiso
C66_16 C 0.061980 0.200923 0.730233 0.0127 Uiso
C67_16 C 0.031502 0.165444 0.784135 0.0127 Uiso
C68_16 C 0.151526 0.356332 0.492917 0.0127 Uiso
C69_16 C 0.118663 0.298021 0.489949 0.0127 Uiso
C71_16 C 0.002220 0.352106 0.502056 0.0127 Uiso
C72_16 C 0.082988 0.294911 0.786906 0.0127 Uiso
C73_16 C 0.059927 0.305768 0.727507 0.0127 Uiso
C74_16 C 0.085364 0.191245 0.734255 0.0127 Uiso
C75_16 C 0.054372 0.155119 0.789132 0.0127 Uiso
O14_16 O 0.178422 0.385177 0.480178 0.0127 Uiso
C83_16 C 0.145604 0.326102 0.476538 0.0127 Uiso
O16_16 O 0.106032 0.303908 0.819697 0.0127 Uiso
C85_16 C 0.084054 0.317737 0.758436 0.0127 Uiso
O17_16 O 0.113003 0.205405 0.707529 0.0127 Uiso
C86_16 C 0.081919 0.168097 0.763892 0.0127 Uiso
C87_16 C 0.111785 0.330293 0.843945 0.0127 Uiso
C88_16 C 0.143391 0.227181 0.724392 0.0127 Uiso
O18_16 O 0.089725 0.335239 0.854535 0.0127 Uiso
C89_16 C 0.146669 0.353920 0.857906 0.0127 Uiso
O19_16 O 0.146098 0.244979 0.753529 0.0127 Uiso
C90_16 C 0.174673 0.229114 0.706068 0.0127 Uiso
H1_16 H 0.0755245 0.275869 0.529727 . .
H2_16 H 0.0586549 0.244624 0.806858 . .
H6_16 H 0.01798 0.264369 0.70132 . .
H7_16 H 0.00981701 0.15501 0.804266 . .
H11_16 H 0.0653339 0.219123 0.706718 . .
H15_16 H 0.134048 0.379474 0.534819 . .
H19_16 H 0.0276849 0.28564 0.511162 . .
H20_16 H 0.035055 0.374699 0.552885 . .
H24_16 H 0.0507135 0.136902 0.812771 . .
H25_16 H 0.16224 0.32515 0.453561 . .
H26_16 H 0.0598003 0.322799 0.704472 . .
H27_16 H 0.113609 0.274163 0.477531 . .
H28_16 H 0.170903 0.399792 0.467621 . .
H31_16 H 0.0032105 0.273899 0.435643 . .
H32_16 H 0.10294 0.343906 0.760167 . .
H33_16 H 0.100445 0.160438 0.767078 . .
H34_16 H 0.17294 0.204935 0.708533 . .
H35_16 H 0.1964 0.247477 0.72299 . .
H36_16 H 0.176933 0.236307 0.673645 . .
H37_16 H 0.155919 0.340484 0.876003 . .
H38_16 H 0.146852 0.373382 0.876851 . .
H39_16 H 0.162511 0.365015 0.830981 . .
H47_25 H 0.11212 0.065721 0.362899 . .
H66_16 H 0.0879074 0.287192 0.631848 . .
H72_16 H 0.0753781 0.381027 0.655504 . .
H82_16 H 0.132989 0.390798 0.63694 . .
H85_16 H 0.172779 0.392503 0.689136 . .
H87_16 H 0.104445 0.266875 0.699046 . .
H88_25 H 0.0644868 0.148811 0.657788 . .
H95_16 H 0.170424 0.341517 0.713106 . .
H98_16 H 0.0626443 0.392767 0.731024 . .
N15_16 N 0.964641 0.215010 0.746202 0.0127 Uiso
N16_16 N 0.965134 0.153383 0.745038 0.0127 Uiso
C21_16 C 0.941082 0.203098 0.715919 0.0127 Uiso
C22_16 C 0.963502 0.236436 0.774142 0.0127 Uiso
C23_16 C 0.938020 0.138944 0.769767 0.0127 Uiso
C24_16 C 0.968498 0.133943 0.715865 0.0127 Uiso
C36_16 C 0.983447 0.314561 0.664611 0.0127 Uiso
C37_16 C 0.917012 0.211924 0.713094 0.0127 Uiso
C38_16 C 0.940073 0.245842 0.772493 0.0127 Uiso
C39_16 C 0.914636 0.105882 0.765745 0.0127 Uiso
C40_16 C 0.945628 0.100748 0.710868 0.0127 Uiso
C46_16 C 0.996664 0.341440 0.692066 0.0127 Uiso
O7_16 O 0.893968 0.197877 0.680303 0.0127 Uiso
C47_16 C 0.915946 0.233684 0.741564 0.0127 Uiso
O8_16 O 0.886997 0.092403 0.792471 0.0127 Uiso
C48_16 C 0.918081 0.086179 0.736108 0.0127 Uiso
C52_16 C 0.888215 0.218509 0.656055 0.0127 Uiso
C53_16 C 0.856609 0.083791 0.775608 0.0127 Uiso
O12_16 O 0.910275 0.245515 0.645465 0.0127 Uiso
C57_16 C 0.853331 0.207252 0.642094 0.0127 Uiso
O13_16 O 0.853902 0.098882 0.746471 0.0127 Uiso
C58_16 C 0.825327 0.054442 0.793932 0.0127 Uiso
C70_16 C 0.997856 0.300880 0.477895 0.0127 Uiso
O15_16 O 0.984881 0.273982 0.451316 0.0127 Uiso
C84_16 C 0.988558 0.325227 0.474601 0.0127 Uiso
H8_16 H 0.844081 0.184564 0.623997 . .
H9_16 H 0.853148 0.226531 0.623149 . .
H10_16 H 0.837489 0.202504 0.669019 . .
H16_16 H 0.82706 0.0319948 0.791467 . .
H17_16 H 0.8036 0.0510768 0.77701 . .
H18_16 H 0.823067 0.0593738 0.826355 . .
H29_16 H 0.970941 0.323235 0.450989 . .
H30_16 H 0.99543 0.371348 0.500174 . .
H68_16 H 0.934666 0.153789 0.793282 . .
H73_16 H 0.98202 0.246389 0.79868 . .
H76_16 H 0.990183 0.145193 0.695734 . .
H78_16 H 0.993689 0.291967 0.613782 . .
H83_16 H 0.941345 0.185969 0.693142 . .
H89_16 H 0.957416 0.295319 0.666493 . .
H93_16 H 0.981039 0.343432 0.715677 . .
H96_16 H 0.899555 0.0599928 0.732922 . .
H97_16 H 0.9402 0.262999 0.795528 . .
H99_16 H 0.949287 0.0861884 0.687229 . .
H100_16 H 0.89706 0.240966 0.739833 . .
H47_26 H 0.934279 0.0463986 0.362899 . .
N13_17 N 0.661218 0.769163 0.631116 0.0127 Uiso
N14_17 N 0.663647 0.700367 0.631560 0.0127 Uiso
N15_17 N 0.784990 0.749632 0.746202 0.0127 Uiso
N16_17 N 0.846617 0.811752 0.745038 0.0127 Uiso
C17_17 C 0.689186 0.796080 0.644612 0.0127 Uiso
C18_17 C 0.632291 0.763695 0.647080 0.0127 Uiso
C19_17 C 0.637824 0.687080 0.658151 0.0127 Uiso
C20_17 C 0.687097 0.691121 0.635115 0.0127 Uiso
C21_17 C 0.796902 0.737985 0.715919 0.0127 Uiso
C22_17 C 0.763564 0.727067 0.774142 0.0127 Uiso
C23_17 C 0.861056 0.799077 0.769767 0.0127 Uiso
C24_17 C 0.866057 0.834556 0.715865 0.0127 Uiso
C33_17 C 0.689665 0.818193 0.673750 0.0127 Uiso
C34_17 C 0.631354 0.785330 0.676718 0.0127 Uiso
C35_17 C 0.634213 0.664523 0.688772 0.0127 Uiso
C36_17 C 0.685439 0.668887 0.664611 0.0127 Uiso
C37_17 C 0.788076 0.705089 0.713094 0.0127 Uiso
C38_17 C 0.754158 0.694232 0.772493 0.0127 Uiso
C39_17 C 0.894118 0.808755 0.765745 0.0127 Uiso
C40_17 C 0.899252 0.844881 0.710868 0.0127 Uiso
O5_17 O 0.718510 0.845089 0.686489 0.0127 Uiso
C45_17 C 0.659435 0.812271 0.690129 0.0127 Uiso
O6_17 O 0.607315 0.651548 0.715351 0.0127 Uiso
C46_17 C 0.658560 0.655225 0.692066 0.0127 Uiso
O7_17 O 0.802123 0.696092 0.680303 0.0127 Uiso
C47_17 C 0.766316 0.682263 0.741564 0.0127 Uiso
O8_17 O 0.907597 0.794595 0.792471 0.0127 Uiso
C48_17 C 0.913821 0.831903 0.736108 0.0127 Uiso
C52_17 C 0.781491 0.669707 0.656055 0.0127 Uiso
C53_17 C 0.916209 0.772819 0.775608 0.0127 Uiso
O12_17 O 0.754485 0.664761 0.645465 0.0127 Uiso
C57_17 C 0.792748 0.646080 0.642094 0.0127 Uiso
O13_17 O 0.901118 0.755021 0.746471 0.0127 Uiso
C58_17 C 0.945558 0.770886 0.793932 0.0127 Uiso
N18_17 N 0.672115 0.774611 0.535551 0.0127 Uiso
N19_17 N 0.669686 0.703386 0.535107 0.0127 Uiso
N21_17 N 0.749632 0.784990 0.753798 0.0127 Uiso
N22_17 N 0.811752 0.846617 0.754962 0.0127 Uiso
C60_17 C 0.644147 0.773560 0.522055 0.0127 Uiso
C61_17 C 0.701042 0.798070 0.519587 0.0127 Uiso
C62_17 C 0.695509 0.715922 0.508516 0.0127 Uiso
C63_17 C 0.646236 0.670690 0.531552 0.0127 Uiso
C64_17 C 0.737985 0.796902 0.784081 0.0127 Uiso
C65_17 C 0.727067 0.763564 0.725858 0.0127 Uiso
C66_17 C 0.799077 0.861056 0.730233 0.0127 Uiso
C67_17 C 0.834556 0.866057 0.784135 0.0127 Uiso
C68_17 C 0.643668 0.795194 0.492917 0.0127 Uiso
C69_17 C 0.701979 0.820642 0.489949 0.0127 Uiso
C70_17 C 0.699120 0.696976 0.477895 0.0127 Uiso
C71_17 C 0.647894 0.650114 0.502056 0.0127 Uiso
C72_17 C 0.705089 0.788076 0.786906 0.0127 Uiso
C73_17 C 0.694232 0.754158 0.727507 0.0127 Uiso
C74_17 C 0.808755 0.894118 0.734255 0.0127 Uiso
C75_17 C 0.844881 0.899252 0.789132 0.0127 Uiso
O14_17 O 0.614823 0.793245 0.480178 0.0127 Uiso
C83_17 C 0.673898 0.819502 0.476538 0.0127 Uiso
O15_17 O 0.726018 0.710899 0.451316 0.0127 Uiso
C84_17 C 0.674773 0.663331 0.474601 0.0127 Uiso
O16_17 O 0.696092 0.802123 0.819697 0.0127 Uiso
C85_17 C 0.682263 0.766316 0.758436 0.0127 Uiso
O17_17 O 0.794595 0.907597 0.707529 0.0127 Uiso
C86_17 C 0.831903 0.913821 0.763892 0.0127 Uiso
C87_17 C 0.669707 0.781491 0.843945 0.0127 Uiso
C88_17 C 0.772819 0.916209 0.724392 0.0127 Uiso
O18_17 O 0.664761 0.754485 0.854535 0.0127 Uiso
C89_17 C 0.646080 0.792748 0.857906 0.0127 Uiso
O19_17 O 0.755021 0.901118 0.753529 0.0127 Uiso
C90_17 C 0.770886 0.945558 0.706068 0.0127 Uiso
H1_17 H 0.724131 0.799656 0.529727 . .
H2_17 H 0.755376 0.814031 0.806858 . .
H6_17 H 0.735631 0.753611 0.70132 . .
H7_17 H 0.84499 0.854807 0.804266 . .
H8_17 H 0.815436 0.659516 0.623997 . .
H9_17 H 0.773469 0.626618 0.623149 . .
H10_17 H 0.797496 0.634985 0.669019 . .
H11_17 H 0.780877 0.846211 0.706718 . .
H15_17 H 0.620526 0.754574 0.534819 . .
H16_17 H 0.968005 0.795065 0.791467 . .
H17_17 H 0.948923 0.752523 0.77701 . .
H18_17 H 0.940626 0.763693 0.826355 . .
H19_17 H 0.71436 0.742045 0.511162 . .
H20_17 H 0.625301 0.660356 0.552885 . .
H24_17 H 0.863098 0.913812 0.812771 . .
H25_17 H 0.67485 0.837091 0.453561 . .
H26_17 H 0.677201 0.737001 0.704472 . .
H27_17 H 0.725837 0.839446 0.477531 . .
H28_17 H 0.600208 0.771111 0.467621 . .
H29_17 H 0.676765 0.647706 0.450989 . .
H30_17 H 0.628652 0.624083 0.500174 . .
H31_17 H 0.726101 0.729311 0.435643 . .
H32_17 H 0.656094 0.759034 0.760167 . .
H33_17 H 0.839562 0.940007 0.767078 . .
H34_17 H 0.795065 0.968005 0.708533 . .
H35_17 H 0.752523 0.948923 0.72299 . .
H36_17 H 0.763693 0.940626 0.673645 . .
H37_17 H 0.659516 0.815436 0.876003 . .
H38_17 H 0.626618 0.773469 0.876851 . .
H39_17 H 0.634985 0.797496 0.830981 . .
H66_17 H 0.712808 0.800715 0.631848 . .
H68_17 H 0.846211 0.780877 0.793282 . .
H72_17 H 0.618973 0.694352 0.655504 . .
H73_17 H 0.753611 0.735631 0.79868 . .
H76_17 H 0.854807 0.84499 0.695734 . .
H78_17 H 0.708033 0.701722 0.613782 . .
H82_17 H 0.609202 0.742191 0.63694 . .
H83_17 H 0.814031 0.755376 0.693142 . .
H85_17 H 0.607497 0.780276 0.689136 . .
H87_17 H 0.733125 0.83757 0.699046 . .
H88_26 H 0.851189 0.915676 0.657788 . .
H89_17 H 0.704681 0.662097 0.666493 . .
H93_17 H 0.656568 0.637607 0.715677 . .
H95_17 H 0.658483 0.828907 0.713106 . .
H96_17 H 0.940007 0.839562 0.732922 . .
H97_17 H 0.737001 0.677201 0.795528 . .
H98_17 H 0.607233 0.669877 0.731024 . .
H99_17 H 0.913812 0.863098 0.687229 . .
H100_17 H 0.759034 0.656094 0.739833 . .
N15_18 N 0.250368 0.035359 0.746202 0.0127 Uiso
N16_18 N 0.188248 0.034866 0.745038 0.0127 Uiso
C21_18 C 0.262015 0.058918 0.715919 0.0127 Uiso
C22_18 C 0.272933 0.036498 0.774142 0.0127 Uiso
C23_18 C 0.200923 0.061980 0.769767 0.0127 Uiso
C24_18 C 0.165444 0.031502 0.715865 0.0127 Uiso
C36_18 C 0.331113 0.016553 0.664611 0.0127 Uiso
C37_18 C 0.294911 0.082988 0.713094 0.0127 Uiso
C38_18 C 0.305768 0.059927 0.772493 0.0127 Uiso
C39_18 C 0.191245 0.085364 0.765745 0.0127 Uiso
C40_18 C 0.155119 0.054372 0.710868 0.0127 Uiso
C46_18 C 0.344775 0.003336 0.692066 0.0127 Uiso
O7_18 O 0.303908 0.106032 0.680303 0.0127 Uiso
C47_18 C 0.317737 0.084054 0.741564 0.0127 Uiso
O8_18 O 0.205405 0.113003 0.792471 0.0127 Uiso
C48_18 C 0.168097 0.081919 0.736108 0.0127 Uiso
C52_18 C 0.330293 0.111785 0.656055 0.0127 Uiso
C53_18 C 0.227181 0.143391 0.775608 0.0127 Uiso
O12_18 O 0.335239 0.089725 0.645465 0.0127 Uiso
C57_18 C 0.353920 0.146669 0.642094 0.0127 Uiso
O13_18 O 0.244979 0.146098 0.746471 0.0127 Uiso
C58_18 C 0.229114 0.174673 0.793932 0.0127 Uiso
C70_18 C 0.303024 0.002144 0.477895 0.0127 Uiso
O15_18 O 0.289101 0.015119 0.451316 0.0127 Uiso
C84_18 C 0.336669 0.011442 0.474601 0.0127 Uiso
H8_18 H 0.340484 0.155919 0.623997 . .
H9_18 H 0.373382 0.146852 0.623149 . .
H10_18 H 0.365015 0.162511 0.669019 . .
H16_18 H 0.204935 0.17294 0.791467 . .
H17_18 H 0.247477 0.1964 0.77701 . .
H18_18 H 0.236307 0.176933 0.826355 . .
H29_18 H 0.352294 0.0290592 0.450989 . .
H30_18 H 0.375917 0.00456989 0.500174 . .
H68_18 H 0.219123 0.0653339 0.793282 . .
H73_18 H 0.264369 0.01798 0.79868 . .
H76_18 H 0.15501 0.00981701 0.695734 . .
H78_18 H 0.298278 0.00631112 0.613782 . .
H83_18 H 0.244624 0.0586549 0.693142 . .
H89_18 H 0.337903 0.0425842 0.666493 . .
H93_18 H 0.362393 0.0189607 0.715677 . .
H96_18 H 0.160438 0.100445 0.732922 . .
H97_18 H 0.322799 0.0598003 0.795528 . .
H99_18 H 0.136902 0.0507135 0.687229 . .
H100_18 H 0.343906 0.10294 0.739833 . .
N13_18 N 0.230837 0.892056 0.631116 0.0127 Uiso
N14_18 N 0.299633 0.963281 0.631560 0.0127 Uiso
C17_18 C 0.203920 0.893107 0.644612 0.0127 Uiso
C18_18 C 0.236305 0.868597 0.647080 0.0127 Uiso
C19_18 C 0.312920 0.950745 0.658151 0.0127 Uiso
C20_18 C 0.308879 0.995977 0.635115 0.0127 Uiso
C33_18 C 0.181807 0.871473 0.673750 0.0127 Uiso
C34_18 C 0.214670 0.846025 0.676718 0.0127 Uiso
C35_18 C 0.335477 0.969691 0.688772 0.0127 Uiso
O5_18 O 0.154911 0.873422 0.686489 0.0127 Uiso
C45_18 C 0.187729 0.847165 0.690129 0.0127 Uiso
O6_18 O 0.348452 0.955768 0.715351 0.0127 Uiso
N18_18 N 0.225389 0.897504 0.535551 0.0127 Uiso
N19_18 N 0.296614 0.966300 0.535107 0.0127 Uiso
N21_18 N 0.215010 0.964641 0.753798 0.0127 Uiso
N22_18 N 0.153383 0.965134 0.754962 0.0127 Uiso
C60_18 C 0.226440 0.870587 0.522055 0.0127 Uiso
C61_18 C 0.201930 0.902972 0.519587 0.0127 Uiso
C62_18 C 0.284078 0.979587 0.508516 0.0127 Uiso
C63_18 C 0.329310 0.975546 0.531552 0.0127 Uiso
C64_18 C 0.203098 0.941082 0.784081 0.0127 Uiso
C65_18 C 0.236436 0.963502 0.725858 0.0127 Uiso
C66_18 C 0.138944 0.938020 0.730233 0.0127 Uiso
C67_18 C 0.133943 0.968498 0.784135 0.0127 Uiso
C68_18 C 0.204806 0.848474 0.492917 0.0127 Uiso
C69_18 C 0.179358 0.881337 0.489949 0.0127 Uiso
C71_18 C 0.349886 0.997780 0.502056 0.0127 Uiso
C72_18 C 0.211924 0.917012 0.786906 0.0127 Uiso
C73_18 C 0.245842 0.940073 0.727507 0.0127 Uiso
C74_18 C 0.105882 0.914636 0.734255 0.0127 Uiso
C75_18 C 0.100748 0.945628 0.789132 0.0127 Uiso
O14_18 O 0.206755 0.821578 0.480178 0.0127 Uiso
C83_18 C 0.180498 0.854396 0.476538 0.0127 Uiso
O16_18 O 0.197877 0.893968 0.819697 0.0127 Uiso
C85_18 C 0.233684 0.915946 0.758436 0.0127 Uiso
O17_18 O 0.092403 0.886997 0.707529 0.0127 Uiso
C86_18 C 0.086179 0.918081 0.763892 0.0127 Uiso
C87_18 C 0.218509 0.888215 0.843945 0.0127 Uiso
C88_18 C 0.083791 0.856609 0.724392 0.0127 Uiso
O18_18 O 0.245515 0.910275 0.854535 0.0127 Uiso
C89_18 C 0.207252 0.853331 0.857906 0.0127 Uiso
O19_18 O 0.098882 0.853902 0.753529 0.0127 Uiso
C90_18 C 0.054442 0.825327 0.706068 0.0127 Uiso
H1_18 H 0.200344 0.924475 0.529727 . .
H2_18 H 0.185969 0.941345 0.806858 . .
H6_18 H 0.246389 0.98202 0.70132 . .
H7_18 H 0.145193 0.990183 0.804266 . .
H11_18 H 0.153789 0.934666 0.706718 . .
H15_18 H 0.245426 0.865952 0.534819 . .
H19_18 H 0.257955 0.972315 0.511162 . .
H20_18 H 0.339644 0.964945 0.552885 . .
H24_18 H 0.0861884 0.949287 0.812771 . .
H25_18 H 0.162909 0.83776 0.453561 . .
H26_18 H 0.262999 0.9402 0.704472 . .
H27_18 H 0.160554 0.886391 0.477531 . .
H28_18 H 0.228889 0.829097 0.467621 . .
H31_18 H 0.270689 0.996789 0.435643 . .
H32_18 H 0.240966 0.89706 0.760167 . .
H33_18 H 0.0599928 0.899555 0.767078 . .
H34_18 H 0.0319948 0.82706 0.708533 . .
H35_18 H 0.0510768 0.8036 0.72299 . .
H36_18 H 0.0593738 0.823067 0.673645 . .
H37_18 H 0.184564 0.844081 0.876003 . .
H38_18 H 0.226531 0.853148 0.876851 . .
H39_18 H 0.202504 0.837489 0.830981 . .
H66_18 H 0.199285 0.912093 0.631848 . .
H72_18 H 0.305648 0.924622 0.655504 . .
H82_18 H 0.257809 0.867011 0.63694 . .
H85_18 H 0.219724 0.827221 0.689136 . .
H87_18 H 0.16243 0.895555 0.699046 . .
H88_27 H 0.0843239 0.935513 0.657788 . .
H95_18 H 0.171093 0.829576 0.713106 . .
H98_18 H 0.330123 0.937356 0.731024 . .
H47_27 H 0.953601 0.88788 0.362899 . .
H47_28 H 0.399054 0.778786 0.803767 . .
H88_28 H 0.482144 0.731153 0.508878 . .
H47_29 H 0.221214 0.620268 0.803767 . .
H88_29 H 0.268847 0.750991 0.508878 . .
H47_30 H 0.379732 0.600946 0.803767 . .
H88_30 H 0.249009 0.517856 0.508878 . .
H47_31 H 0.732388 0.445453 0.470434 . .
H88_31 H 0.815477 0.39782 0.175545 . .
H47_32 H 0.554547 0.286935 0.470434 . .
H88_32 H 0.60218 0.417657 0.175545 . .
H47_33 H 0.713065 0.267612 0.470434 . .
H88_33 H 0.582343 0.184523 0.175545 . .
H47_34 H 0.065721 0.11212 0.137101 . .
H88_34 H 0.148811 0.0644868 0.842212 . .
H88_35 H 0.935513 0.0843239 0.842212 . .
H47_35 H 0.88788 0.953601 0.137101 . .
H47_36 H 0.0463986 0.934279 0.137101 . .
H88_36 H 0.915676 0.851189 0.842212 . .
loop_
_geom_bond_atom_site_label_1
_geom_bond_atom_site_label_2
_geom_bond_site_symmetry_1
_geom_bond_site_symmetry_2
Nb1 C1 1_555 1_555
C1 N1 1_555 1_555
C2 Nb1 1_555 1_555
C3 Nb1 1_555 1_555
C4 Nb1 1_555 1_555
C5 Nb1 1_555 1_555
C6 Nb1 1_555 1_555
C7 Nb1 1_555 1_555
C8 Nb1 1_555 1_555
N1 Fe1 1_555 1_555
N2 C2 1_555 1_555
N4 C4 1_555 1_555
N5 C5 1_555 1_555
N6 C6 1_555 1_555
N7 C7 1_555 1_555
N8 C8 1_555 1_555
Fe1 N9 1_555 1_555
Fe2 N2 1_555 1_555
N9 C9 1_555 1_555
N10 Fe1 1_555 1_555
N11 Fe1 1_555 1_555
N12 Fe1 1_555 1_555
N13 Fe2 1_555 1_555
N14 Fe2 1_555 1_555
C9 C25 1_555 1_555
C10 N9 1_555 1_555
C11 N10 1_555 1_555
C12 N10 1_555 1_555
C13 N11 1_555 1_555
C14 N11 1_555 1_555
C15 N12 1_555 1_555
C16 N12 1_555 1_555
C17 N13 1_555 1_555
C18 N13 1_555 1_555
C19 N14 1_555 1_555
C20 N14 1_555 1_555
C25 O1 1_555 1_555
C26 C10 1_555 1_555
C27 C11 1_555 1_555
C28 C12 1_555 1_555
C29 C13 1_555 1_555
C30 C14 1_555 1_555
C31 C15 1_555 1_555
C32 C16 1_555 1_555
C36 C20 1_555 1_555
C41 C25 1_555 1_555
O2 C27 1_555 1_555
C42 C27 1_555 1_555
O3 C29 1_555 1_555
C43 C29 1_555 1_555
O4 C31 1_555 1_555
C44 C31 1_555 1_555
C49 O2 1_555 1_555
C50 O3 1_555 1_555
C51 O4 1_555 1_555
O9 C49 1_555 1_555
C54 C49 1_555 1_555
O10 C50 1_555 1_555
C55 C50 1_555 1_555
O11 C51 1_555 1_555
C56 C51 1_555 1_555
O12 C52 1_555 1_555
C57 C52 1_555 1_555
Fe4 N4 1_555 1_555
N17 Fe1 1_555 1_555
N18 Fe2 1_555 1_555
N19 Fe2 1_555 1_555
N20 Fe2 1_555 1_555
C59 N17 1_555 1_555
C60 N18 1_555 1_555
C61 N18 1_555 1_555
C62 N19 1_555 1_555
C63 N19 1_555 1_555
Nb2 C59 1_555 1_555
C68 C60 1_555 1_555
C69 C61 1_555 1_555
C70 C62 1_555 1_555
C71 C63 1_555 1_555
C76 Nb2 1_555 1_555
C77 Nb2 1_555 1_555
C78 Nb2 1_555 1_555
C79 Nb2 1_555 1_555
C80 Nb2 1_555 1_555
C81 Nb2 1_555 1_555
C82 Nb2 1_555 1_555
O14 C68 1_555 1_555
C83 C68 1_555 1_555
O15 C70 1_555 1_555
C84 C70 1_555 1_555
N24 C76 1_555 1_555
N25 C77 1_555 1_555
N26 C78 1_555 1_555
N27 C79 1_555 1_555
N28 C80 1_555 1_555
N29 C81 1_555 1_555
N30 C82 1_555 1_555
Fe5 N24 1_555 1_555
Fe6 N25 1_555 1_555
Fe7 N26 1_555 1_555
N31 Fe5 1_555 1_555
N32 Fe5 1_555 1_555
N33 Fe5 1_555 1_555
N34 Fe5 1_555 1_555
N35 Fe5 1_555 1_555
C91 N31 1_555 1_555
C92 N31 1_555 1_555
C93 N32 1_555 1_555
C94 N32 1_555 1_555
C95 N33 1_555 1_555
C96 N33 1_555 1_555
C97 N34 1_555 1_555
C98 N34 1_555 1_555
C99 C91 1_555 1_555
C100 C92 1_555 1_555
C101 C93 1_555 1_555
C102 C94 1_555 1_555
C103 C95 1_555 1_555
C104 C96 1_555 1_555
C105 C97 1_555 1_555
C106 C98 1_555 1_555
O20 C99 1_555 1_555
C107 C99 1_555 1_555
O21 C101 1_555 1_555
C108 C101 1_555 1_555
O22 C103 1_555 1_555
C109 C103 1_555 1_555
O23 C105 1_555 1_555
C110 C105 1_555 1_555
C111 O21 1_555 1_555
C112 O22 1_555 1_555
C113 O23 1_555 1_555
C114 C111 1_555 1_555
O25 C112 1_555 1_555
C115 C112 1_555 1_555
O26 C113 1_555 1_555
C116 C113 1_555 1_555
C26 C41 1_555 1_555
C28 C42 1_555 1_555
C30 C43 1_555 1_555
C32 C44 1_555 1_555
C69 C83 1_555 1_555
C71 C84 1_555 1_555
C100 C107 1_555 1_555
C102 C108 1_555 1_555
C104 C109 1_555 1_555
C106 C110 1_555 1_555
C61 H1 1_555 1_555
C54 H3 1_555 1_555
C54 H4 1_555 1_555
C54 H5 1_555 1_555
C57 H8 1_555 1_555
C57 H9 1_555 1_555
C56 H12 1_555 1_555
C56 H13 1_555 1_555
C56 H14 1_555 1_555
C60 H15 1_555 1_555
C62 H19 1_555 1_555
C63 H20 1_555 1_555
C55 H21 1_555 1_555
C55 H22 1_555 1_555
C55 H23 1_555 1_555
C83 H25 1_555 1_555
C69 H27 1_555 1_555
O14 H28 1_555 1_555
C84 H29 1_555 1_555
C71 H30 1_555 1_555
O15 H31 1_555 1_555
C108 H40 1_555 1_555
C114 H41 1_555 1_555
C114 H43 1_555 1_555
C100 H44 1_555 1_555
C107 H45 1_555 1_555
C106 H46 1_555 1_555
O20 H47 1_555 1_555
C93 H49 1_555 1_555
C95 H50 1_555 1_555
C102 H51 1_555 1_555
C92 H52 1_555 1_555
C96 H53 1_555 1_555
C110 H54 1_555 1_555
C91 H56 1_555 1_555
C97 H57 1_555 1_555
C94 H58 1_555 1_555
C98 H59 1_555 1_555
C115 H60 1_555 1_555
C115 H61 1_555 1_555
C115 H62 1_555 1_555
C116 H63 1_555 1_555
C116 H64 1_555 1_555
C17 H66 1_555 1_555
C14 H67 1_555 1_555
C16 H69 1_555 1_555
C28 H70 1_555 1_555
C30 H71 1_555 1_555
C19 H72 1_555 1_555
C12 H74 1_555 1_555
C13 H75 1_555 1_555
C26 H77 1_555 1_555
C20 H78 1_555 1_555
C11 H79 1_555 1_555
C32 H80 1_555 1_555
C9 H81 1_555 1_555
C18 H82 1_555 1_555
C10 H84 1_555 1_555
C15 H86 1_555 1_555
O1 H88 1_555 1_555
C36 H89 1_555 1_555
C42 H90 1_555 1_555
C43 H91 1_555 1_555
C44 H92 1_555 1_555
C41 H94 1_555 1_555
Fe3 N3 1_555 1_555
N15 Fe3 1_555 1_555
N16 Fe3 1_555 1_555
C21 N15 1_555 1_555
C22 N15 1_555 1_555
C23 N16 1_555 1_555
C24 N16 1_555 1_555
C37 C21 1_555 1_555
C38 C22 1_555 1_555
C39 C23 1_555 1_555
C40 C24 1_555 1_555
O5 C33 1_555 1_555
C45 C33 1_555 1_555
O6 C35 1_555 1_555
C46 C35 1_555 1_555
O7 C37 1_555 1_555
C47 C37 1_555 1_555
O8 C39 1_555 1_555
C48 C39 1_555 1_555
C53 O8 1_555 1_555
O13 C53 1_555 1_555
C58 C53 1_555 1_555
N21 Fe3 1_555 1_555
N22 Fe3 1_555 1_555
N23 Fe3 1_555 1_555
C64 N21 1_555 1_555
C65 N21 1_555 1_555
C66 N22 1_555 1_555
C67 N22 1_555 1_555
C72 C64 1_555 1_555
C73 C65 1_555 1_555
C74 C66 1_555 1_555
C75 C67 1_555 1_555
O16 C72 1_555 1_555
C85 C72 1_555 1_555
O17 C74 1_555 1_555
C86 C74 1_555 1_555
C87 O16 1_555 1_555
C88 O17 1_555 1_555
O18 C87 1_555 1_555
C89 C87 1_555 1_555
O19 C88 1_555 1_555
C90 C88 1_555 1_555
C34 C45 1_555 1_555
C38 C47 1_555 1_555
C40 C48 1_555 1_555
C73 C85 1_555 1_555
C75 C86 1_555 1_555
C64 H2 1_555 1_555
C65 H6 1_555 1_555
C67 H7 1_555 1_555
C66 H11 1_555 1_555
C58 H16 1_555 1_555
C58 H17 1_555 1_555
C58 H18 1_555 1_555
C75 H24 1_555 1_555
C73 H26 1_555 1_555
C85 H32 1_555 1_555
C86 H33 1_555 1_555
C90 H34 1_555 1_555
C90 H35 1_555 1_555
C90 H36 1_555 1_555
C89 H37 1_555 1_555
C89 H38 1_555 1_555
C89 H39 1_555 1_555
C23 H68 1_555 1_555
C22 H73 1_555 1_555
C24 H76 1_555 1_555
C21 H83 1_555 1_555
C34 H85 1_555 1_555
O5 H87 1_555 1_555
C46 H93 1_555 1_555
C45 H95 1_555 1_555
C48 H96 1_555 1_555
C38 H97 1_555 1_555
O6 H98 1_555 1_555
C40 H99 1_555 1_555
C47 H100 1_555 1_555
C71_2 C84_2 1_555 1_555
C57_2 H8_2 1_555 1_555
C57_2 H9_2 1_555 1_555
C84_2 H29_2 1_555 1_555
C71_2 H30_2 1_555 1_555
O6_2 C35_2 1_555 1_555
C46_2 C35_2 1_555 1_555
C46_2 H93_2 1_555 1_555
Nb1_2 C1_2 1_555 1_555
C1_2 N1_2 1_555 1_555
C2_2 Nb1_2 1_555 1_555
C3_2 Nb1_2 1_555 1_555
C4_2 Nb1_2 1_555 1_555
C5_2 Nb1_2 1_555 1_555
C6_2 Nb1_2 1_555 1_555
C7_2 Nb1_2 1_555 1_555
C8_2 Nb1_2 1_555 1_555
N1_2 Fe1_2 1_555 1_555
N2_2 C2_2 1_555 1_555
N4_2 C4_2 1_555 1_555
N5_2 C5_2 1_555 1_555
N6_2 C6_2 1_555 1_555
N7_2 C7_2 1_555 1_555
N8_2 C8_2 1_555 1_555
Fe1_2 N9_2 1_555 1_555
Fe2_2 N2_2 1_555 1_555
N9_2 C9_2 1_555 1_555
N10_2 Fe1_2 1_555 1_555
N11_2 Fe1_2 1_555 1_555
N12_2 Fe1_2 1_555 1_555
N13_2 Fe2_2 1_555 1_555
N14_2 Fe2_2 1_555 1_555
C9_2 C25_2 1_555 1_555
C10_2 N9_2 1_555 1_555
C11_2 N10_2 1_555 1_555
C12_2 N10_2 1_555 1_555
C13_2 N11_2 1_555 1_555
C14_2 N11_2 1_555 1_555
C15_2 N12_2 1_555 1_555
C16_2 N12_2 1_555 1_555
C17_2 N13_2 1_555 1_555
C18_2 N13_2 1_555 1_555
C19_2 N14_2 1_555 1_555
C20_2 N14_2 1_555 1_555
C25_2 O1_2 1_555 1_555
C26_2 C10_2 1_555 1_555
C27_2 C11_2 1_555 1_555
C28_2 C12_2 1_555 1_555
C29_2 C13_2 1_555 1_555
C30_2 C14_2 1_555 1_555
C31_2 C15_2 1_555 1_555
C32_2 C16_2 1_555 1_555
C36_2 C20_2 1_555 1_555
C41_2 C25_2 1_555 1_555
O2_2 C27_2 1_555 1_555
C42_2 C27_2 1_555 1_555
O3_2 C29_2 1_555 1_555
C43_2 C29_2 1_555 1_555
O4_2 C31_2 1_555 1_555
C44_2 C31_2 1_555 1_555
C49_2 O2_2 1_555 1_555
C50_2 O3_2 1_555 1_555
C51_2 O4_2 1_555 1_555
O9_2 C49_2 1_555 1_555
C54_2 C49_2 1_555 1_555
O10_2 C50_2 1_555 1_555
C55_2 C50_2 1_555 1_555
O11_2 C51_2 1_555 1_555
C56_2 C51_2 1_555 1_555
Fe4_2 N4_2 1_555 1_555
N17_2 Fe1_2 1_555 1_555
N18_2 Fe2_2 1_555 1_555
N19_2 Fe2_2 1_555 1_555
N20_2 Fe2_2 1_555 1_555
C59_2 N17_2 1_555 1_555
C60_2 N18_2 1_555 1_555
C61_2 N18_2 1_555 1_555
C62_2 N19_2 1_555 1_555
C63_2 N19_2 1_555 1_555
Nb2_2 C59_2 1_555 1_555
C68_2 C60_2 1_555 1_555
C69_2 C61_2 1_555 1_555
C70_2 C62_2 1_555 1_555
C76_2 Nb2_2 1_555 1_555
C77_2 Nb2_2 1_555 1_555
C78_2 Nb2_2 1_555 1_555
C79_2 Nb2_2 1_555 1_555
C80_2 Nb2_2 1_555 1_555
C81_2 Nb2_2 1_555 1_555
C82_2 Nb2_2 1_555 1_555
O14_2 C68_2 1_555 1_555
C83_2 C68_2 1_555 1_555
O15_2 C70_2 1_555 1_555
N24_2 C76_2 1_555 1_555
N25_2 C77_2 1_555 1_555
N26_2 C78_2 1_555 1_555
N27_2 C79_2 1_555 1_555
N28_2 C80_2 1_555 1_555
N29_2 C81_2 1_555 1_555
N30_2 C82_2 1_555 1_555
Fe4 N24_2 1_555 1_555
Fe6_3 N25_2 1_555 1_555
Fe7_2 N26_2 1_555 1_555
N31_2 Fe4 1_555 1_555
N32_2 Fe4 1_555 1_555
N33_2 Fe4 1_555 1_555
N34_2 Fe4 1_555 1_555
C91_2 N31_2 1_555 1_555
C92_2 N31_2 1_555 1_555
C93_2 N32_2 1_555 1_555
C94_2 N32_2 1_555 1_555
C95_2 N33_2 1_555 1_555
C96_2 N33_2 1_555 1_555
C97_2 N34_2 1_555 1_555
C98_2 N34_2 1_555 1_555
C99_2 C91_2 1_555 1_555
C100_2 C92_2 1_555 1_555
C101_2 C93_2 1_555 1_555
C102_2 C94_2 1_555 1_555
C103_2 C95_2 1_555 1_555
C104_2 C96_2 1_555 1_555
C105_2 C97_2 1_555 1_555
C106_2 C98_2 1_555 1_555
O20_2 C99_2 1_555 1_555
C107_2 C99_2 1_555 1_555
O21_2 C101_2 1_555 1_555
C108_2 C101_2 1_555 1_555
O22_2 C103_2 1_555 1_555
C109_2 C103_2 1_555 1_555
O23_2 C105_2 1_555 1_555
C110_2 C105_2 1_555 1_555
C111_2 O21_2 1_555 1_555
C112_2 O22_2 1_555 1_555
C113_2 O23_2 1_555 1_555
O24_2 C111_2 1_555 1_555
C114_2 C111_2 1_555 1_555
O25_2 C112_2 1_555 1_555
C115_2 C112_2 1_555 1_555
O26_2 C113_2 1_555 1_555
C116_2 C113_2 1_555 1_555
C26_2 C41_2 1_555 1_555
C28_2 C42_2 1_555 1_555
C30_2 C43_2 1_555 1_555
C32_2 C44_2 1_555 1_555
C69_2 C83_2 1_555 1_555
C100_2 C107_2 1_555 1_555
C102_2 C108_2 1_555 1_555
C104_2 C109_2 1_555 1_555
C106_2 C110_2 1_555 1_555
C61_2 H1_2 1_555 1_555
C54_2 H3_2 1_555 1_555
C54_2 H4_2 1_555 1_555
C54_2 H5_2 1_555 1_555
C56_2 H12_2 1_555 1_555
C56_2 H13_2 1_555 1_555
C56_2 H14_2 1_555 1_555
C60_2 H15_2 1_555 1_555
C62_2 H19_2 1_555 1_555
C55_2 H21_2 1_555 1_555
C55_2 H22_2 1_555 1_555
C55_2 H23_2 1_555 1_555
C83_2 H25_2 1_555 1_555
C69_2 H27_2 1_555 1_555
O14_2 H28_2 1_555 1_555
O15_2 H31_2 1_555 1_555
C108_2 H40_2 1_555 1_555
C114_2 H41_2 1_555 1_555
C114_2 H42_2 1_555 1_555
C114_2 H43_2 1_555 1_555
C100_2 H44_2 1_555 1_555
C107_2 H45_2 1_555 1_555
C106_2 H46_2 1_555 1_555
O20_2 H47_2 1_555 1_555
C93_2 H49_2 1_555 1_555
C95_2 H50_2 1_555 1_555
C102_2 H51_2 1_555 1_555
C92_2 H52_2 1_555 1_555
C96_2 H53_2 1_555 1_555
C110_2 H54_2 1_555 1_555
C91_2 H56_2 1_555 1_555
C97_2 H57_2 1_555 1_555
C94_2 H58_2 1_555 1_555
C98_2 H59_2 1_555 1_555
C115_2 H60_2 1_555 1_555
C115_2 H61_2 1_555 1_555
C115_2 H62_2 1_555 1_555
C116_2 H63_2 1_555 1_555
C116_2 H64_2 1_555 1_555
C17_2 H66_2 1_555 1_555
C14_2 H67_2 1_555 1_555
C16_2 H69_2 1_555 1_555
C28_2 H70_2 1_555 1_555
C30_2 H71_2 1_555 1_555
C19_2 H72_2 1_555 1_555
C12_2 H74_2 1_555 1_555
C13_2 H75_2 1_555 1_555
C26_2 H77_2 1_555 1_555
C20_2 H78_2 1_555 1_555
C11_2 H79_2 1_555 1_555
C32_2 H80_2 1_555 1_555
C9_2 H81_2 1_555 1_555
C18_2 H82_2 1_555 1_555
C10_2 H84_2 1_555 1_555
C15_2 H86_2 1_555 1_555
O1_2 H88_2 1_555 1_555
C42_2 H90_2 1_555 1_555
C43_2 H91_2 1_555 1_555
C44_2 H92_2 1_555 1_555
C41_2 H94_2 1_555 1_555
Fe3_2 N3_2 1_555 1_555
N15_2 Fe3_2 1_555 1_555
N16_2 Fe3_2 1_555 1_555
C21_2 N15_2 1_555 1_555
C22_2 N15_2 1_555 1_555
C23_2 N16_2 1_555 1_555
C24_2 N16_2 1_555 1_555
C37_2 C21_2 1_555 1_555
C38_2 C22_2 1_555 1_555
C39_2 C23_2 1_555 1_555
C40_2 C24_2 1_555 1_555
O5_2 C33_2 1_555 1_555
C45_2 C33_2 1_555 1_555
O7_2 C37_2 1_555 1_555
C47_2 C37_2 1_555 1_555
O8_2 C39_2 1_555 1_555
C48_2 C39_2 1_555 1_555
C53_2 O8_2 1_555 1_555
O13_2 C53_2 1_555 1_555
C58_2 C53_2 1_555 1_555
N21_2 Fe3_2 1_555 1_555
N22_2 Fe3_2 1_555 1_555
N23_2 Fe3_2 1_555 1_555
C64_2 N21_2 1_555 1_555
C65_2 N21_2 1_555 1_555
C66_2 N22_2 1_555 1_555
C67_2 N22_2 1_555 1_555
C72_2 C64_2 1_555 1_555
C73_2 C65_2 1_555 1_555
C74_2 C66_2 1_555 1_555
C75_2 C67_2 1_555 1_555
O16_2 C72_2 1_555 1_555
C85_2 C72_2 1_555 1_555
O17_2 C74_2 1_555 1_555
C86_2 C74_2 1_555 1_555
C87_2 O16_2 1_555 1_555
C88_2 O17_2 1_555 1_555
O18_2 C87_2 1_555 1_555
C89_2 C87_2 1_555 1_555
O19_2 C88_2 1_555 1_555
C90_2 C88_2 1_555 1_555
C34_2 C45_2 1_555 1_555
C38_2 C47_2 1_555 1_555
C40_2 C48_2 1_555 1_555
C73_2 C85_2 1_555 1_555
C75_2 C86_2 1_555 1_555
C64_2 H2_2 1_555 1_555
C65_2 H6_2 1_555 1_555
C67_2 H7_2 1_555 1_555
C66_2 H11_2 1_555 1_555
C58_2 H16_2 1_555 1_555
C58_2 H17_2 1_555 1_555
C58_2 H18_2 1_555 1_555
C75_2 H24_2 1_555 1_555
C73_2 H26_2 1_555 1_555
C85_2 H32_2 1_555 1_555
C86_2 H33_2 1_555 1_555
C90_2 H34_2 1_555 1_555
C90_2 H35_2 1_555 1_555
C90_2 H36_2 1_555 1_555
C89_2 H37_2 1_555 1_555
C89_2 H38_2 1_555 1_555
C89_2 H39_2 1_555 1_555
C23_2 H68_2 1_555 1_555
C22_2 H73_2 1_555 1_555
C24_2 H76_2 1_555 1_555
C21_2 H83_2 1_555 1_555
C34_2 H85_2 1_555 1_555
O5_2 H87_2 1_555 1_555
C45_2 H95_2 1_555 1_555
C48_2 H96_2 1_555 1_555
C38_2 H97_2 1_555 1_555
C40_2 H99_2 1_555 1_555
Nb1_3 C1_3 1_555 1_555
C1_3 N1_3 1_555 1_555
C2_3 Nb1_3 1_555 1_555
C3_3 Nb1_3 1_555 1_555
C4_3 Nb1_3 1_555 1_555
C5_3 Nb1_3 1_555 1_555
C6_3 Nb1_3 1_555 1_555
C7_3 Nb1_3 1_555 1_555
C8_3 Nb1_3 1_555 1_555
N1_3 Fe1_3 1_555 1_555
N2_3 C2_3 1_555 1_555
N35 C4_3 1_555 1_555
N5_3 C5_3 1_555 1_555
N6_3 C6_3 1_555 1_555
N7_3 C7_3 1_555 1_555
N8_3 C8_3 1_555 1_555
Fe1_3 N9_3 1_555 1_555
Fe2_3 N2_3 1_555 1_555
N9_3 C9_3 1_555 1_555
N10_3 Fe1_3 1_555 1_555
N11_3 Fe1_3 1_555 1_555
N12_3 Fe1_3 1_555 1_555
N13_3 Fe2_3 1_555 1_555
N14_3 Fe2_3 1_555 1_555
C9_3 C25_3 1_555 1_555
C10_3 N9_3 1_555 1_555
C11_3 N10_3 1_555 1_555
C12_3 N10_3 1_555 1_555
C13_3 N11_3 1_555 1_555
C14_3 N11_3 1_555 1_555
C15_3 N12_3 1_555 1_555
C16_3 N12_3 1_555 1_555
C17_3 N13_3 1_555 1_555
C18_3 N13_3 1_555 1_555
C19_3 N14_3 1_555 1_555
C20_3 N14_3 1_555 1_555
C25_3 O1_3 1_555 1_555
C26_3 C10_3 1_555 1_555
C27_3 C11_3 1_555 1_555
C28_3 C12_3 1_555 1_555
C29_3 C13_3 1_555 1_555
C30_3 C14_3 1_555 1_555
C31_3 C15_3 1_555 1_555
C32_3 C16_3 1_555 1_555
C36_3 C20_3 1_555 1_555
C41_3 C25_3 1_555 1_555
O2_3 C27_3 1_555 1_555
C42_3 C27_3 1_555 1_555
O3_3 C29_3 1_555 1_555
C43_3 C29_3 1_555 1_555
O4_3 C31_3 1_555 1_555
C44_3 C31_3 1_555 1_555
C49_3 O2_3 1_555 1_555
C50_3 O3_3 1_555 1_555
C51_3 O4_3 1_555 1_555
O9_3 C49_3 1_555 1_555
C54_3 C49_3 1_555 1_555
O10_3 C50_3 1_555 1_555
C55_3 C50_3 1_555 1_555
O11_3 C51_3 1_555 1_555
C56_3 C51_3 1_555 1_555
N17_3 Fe1_3 1_555 1_555
N18_3 Fe2_3 1_555 1_555
N19_3 Fe2_3 1_555 1_555
N20_3 Fe2_3 1_555 1_555
C59_3 N17_3 1_555 1_555
C60_3 N18_3 1_555 1_555
C61_3 N18_3 1_555 1_555
C62_3 N19_3 1_555 1_555
C63_3 N19_3 1_555 1_555
Nb2_3 C59_3 1_555 1_555
C68_3 C60_3 1_555 1_555
C69_3 C61_3 1_555 1_555
C70_3 C62_3 1_555 1_555
C76_3 Nb2_3 1_555 1_555
C77_3 Nb2_3 1_555 1_555
C78_3 Nb2_3 1_555 1_555
C79_3 Nb2_3 1_555 1_555
C80_3 Nb2_3 1_555 1_555
C81_3 Nb2_3 1_555 1_555
C82_3 Nb2_3 1_555 1_555
O14_3 C68_3 1_555 1_555
C83_3 C68_3 1_555 1_555
O15_3 C70_3 1_555 1_555
N24_3 C76_3 1_555 1_555
N25_3 C77_3 1_555 1_555
N26_3 C78_3 1_555 1_555
N27_3 C79_3 1_555 1_555
N28_3 C80_3 1_555 1_555
N29_3 C81_3 1_555 1_555
N30_3 C82_3 1_555 1_555
Fe4_2 N24_3 1_555 1_555
Fe6_5 N25_3 1_555 1_555
Fe7_3 N26_3 1_555 1_555
N31_3 Fe4_2 1_555 1_555
N32_3 Fe4_2 1_555 1_555
N33_3 Fe4_2 1_555 1_555
N34_3 Fe4_2 1_555 1_555
C91_3 N31_3 1_555 1_555
C92_3 N31_3 1_555 1_555
C93_3 N32_3 1_555 1_555
C94_3 N32_3 1_555 1_555
C95_3 N33_3 1_555 1_555
C96_3 N33_3 1_555 1_555
C97_3 N34_3 1_555 1_555
C98_3 N34_3 1_555 1_555
C99_3 C91_3 1_555 1_555
C100_3 C92_3 1_555 1_555
C101_3 C93_3 1_555 1_555
C102_3 C94_3 1_555 1_555
C103_3 C95_3 1_555 1_555
C104_3 C96_3 1_555 1_555
C105_3 C97_3 1_555 1_555
C106_3 C98_3 1_555 1_555
O20_3 C99_3 1_555 1_555
C107_3 C99_3 1_555 1_555
O21_3 C101_3 1_555 1_555
C108_3 C101_3 1_555 1_555
O22_3 C103_3 1_555 1_555
C109_3 C103_3 1_555 1_555
O23_3 C105_3 1_555 1_555
C110_3 C105_3 1_555 1_555
C111_3 O21_3 1_555 1_555
C112_3 O22_3 1_555 1_555
C113_3 O23_3 1_555 1_555
C114_3 C111_3 1_555 1_555
O25_3 C112_3 1_555 1_555
C115_3 C112_3 1_555 1_555
O26_3 C113_3 1_555 1_555
C116_3 C113_3 1_555 1_555
C26_3 C41_3 1_555 1_555
C28_3 C42_3 1_555 1_555
C30_3 C43_3 1_555 1_555
C32_3 C44_3 1_555 1_555
C69_3 C83_3 1_555 1_555
C100_3 C107_3 1_555 1_555
C102_3 C108_3 1_555 1_555
C104_3 C109_3 1_555 1_555
C106_3 C110_3 1_555 1_555
C61_3 H1_3 1_555 1_555
C54_3 H3_3 1_555 1_555
C54_3 H4_3 1_555 1_555
C54_3 H5_3 1_555 1_555
C56_3 H12_3 1_555 1_555
C56_3 H13_3 1_555 1_555
C56_3 H14_3 1_555 1_555
C60_3 H15_3 1_555 1_555
C62_3 H19_3 1_555 1_555
C55_3 H21_3 1_555 1_555
C55_3 H22_3 1_555 1_555
C55_3 H23_3 1_555 1_555
C83_3 H25_3 1_555 1_555
C69_3 H27_3 1_555 1_555
O14_3 H28_3 1_555 1_555
O15_3 H31_3 1_555 1_555
C108_3 H40_3 1_555 1_555
C114_3 H41_3 1_555 1_555
C114_3 H43_3 1_555 1_555
C100_3 H44_3 1_555 1_555
C107_3 H45_3 1_555 1_555
C106_3 H46_3 1_555 1_555
O20_3 H47_3 1_555 1_555
C93_3 H49_3 1_555 1_555
C95_3 H50_3 1_555 1_555
C102_3 H51_3 1_555 1_555
C92_3 H52_3 1_555 1_555
C96_3 H53_3 1_555 1_555
C110_3 H54_3 1_555 1_555
C91_3 H56_3 1_555 1_555
C97_3 H57_3 1_555 1_555
C94_3 H58_3 1_555 1_555
C98_3 H59_3 1_555 1_555
C115_3 H60_3 1_555 1_555
C115_3 H61_3 1_555 1_555
C115_3 H62_3 1_555 1_555
C116_3 H63_3 1_555 1_555
C116_3 H64_3 1_555 1_555
C17_3 H66_3 1_555 1_555
C14_3 H67_3 1_555 1_555
C16_3 H69_3 1_555 1_555
C28_3 H70_3 1_555 1_555
C30_3 H71_3 1_555 1_555
C19_3 H72_3 1_555 1_555
C12_3 H74_3 1_555 1_555
C13_3 H75_3 1_555 1_555
C26_3 H77_3 1_555 1_555
C20_3 H78_3 1_555 1_555
C11_3 H79_3 1_555 1_555
C32_3 H80_3 1_555 1_555
C9_3 H81_3 1_555 1_555
C18_3 H82_3 1_555 1_555
C10_3 H84_3 1_555 1_555
C15_3 H86_3 1_555 1_555
O1_3 H88_3 1_555 1_555
C42_3 H90_3 1_555 1_555
C43_3 H91_3 1_555 1_555
C44_3 H92_3 1_555 1_555
C41_3 H94_3 1_555 1_555
Fe3_3 N3_3 1_555 1_555
N15_3 Fe3_3 1_555 1_555
N16_3 Fe3_3 1_555 1_555
C21_3 N15_3 1_555 1_555
C22_3 N15_3 1_555 1_555
C23_3 N16_3 1_555 1_555
C24_3 N16_3 1_555 1_555
C37_3 C21_3 1_555 1_555
C38_3 C22_3 1_555 1_555
C39_3 C23_3 1_555 1_555
C40_3 C24_3 1_555 1_555
O5_3 C33_3 1_555 1_555
C45_3 C33_3 1_555 1_555
O7_3 C37_3 1_555 1_555
C47_3 C37_3 1_555 1_555
O8_3 C39_3 1_555 1_555
C48_3 C39_3 1_555 1_555
C53_3 O8_3 1_555 1_555
O13_3 C53_3 1_555 1_555
C58_3 C53_3 1_555 1_555
N21_3 Fe3_3 1_555 1_555
N22_3 Fe3_3 1_555 1_555
N23_3 Fe3_3 1_555 1_555
C64_3 N21_3 1_555 1_555
C65_3 N21_3 1_555 1_555
C66_3 N22_3 1_555 1_555
C67_3 N22_3 1_555 1_555
C72_3 C64_3 1_555 1_555
C73_3 C65_3 1_555 1_555
C74_3 C66_3 1_555 1_555
C75_3 C67_3 1_555 1_555
O16_3 C72_3 1_555 1_555
C85_3 C72_3 1_555 1_555
O17_3 C74_3 1_555 1_555
C86_3 C74_3 1_555 1_555
C87_3 O16_3 1_555 1_555
C88_3 O17_3 1_555 1_555
O18_3 C87_3 1_555 1_555
C89_3 C87_3 1_555 1_555
O19_3 C88_3 1_555 1_555
C90_3 C88_3 1_555 1_555
C34_3 C45_3 1_555 1_555
C38_3 C47_3 1_555 1_555
C40_3 C48_3 1_555 1_555
C73_3 C85_3 1_555 1_555
C75_3 C86_3 1_555 1_555
C64_3 H2_3 1_555 1_555
C65_3 H6_3 1_555 1_555
C67_3 H7_3 1_555 1_555
C66_3 H11_3 1_555 1_555
C58_3 H16_3 1_555 1_555
C58_3 H17_3 1_555 1_555
C58_3 H18_3 1_555 1_555
C75_3 H24_3 1_555 1_555
C73_3 H26_3 1_555 1_555
C85_3 H32_3 1_555 1_555
C86_3 H33_3 1_555 1_555
C90_3 H34_3 1_555 1_555
C90_3 H35_3 1_555 1_555
C90_3 H36_3 1_555 1_555
C89_3 H37_3 1_555 1_555
C89_3 H38_3 1_555 1_555
C89_3 H39_3 1_555 1_555
C23_3 H68_3 1_555 1_555
C22_3 H73_3 1_555 1_555
C24_3 H76_3 1_555 1_555
C21_3 H83_3 1_555 1_555
C34_3 H85_3 1_555 1_555
O5_3 H87_3 1_555 1_555
C45_3 H95_3 1_555 1_555
C48_3 H96_3 1_555 1_555
C38_3 H97_3 1_555 1_555
C40_3 H99_3 1_555 1_555
C71_3 C84_3 1_555 1_555
C57_3 H8_3 1_555 1_555
C57_3 H9_3 1_555 1_555
C84_3 H29_3 1_555 1_555
C71_3 H30_3 1_555 1_555
O6_3 C35_3 1_555 1_555
C46_3 C35_3 1_555 1_555
C46_3 H93_3 1_555 1_555
Fe7_4 N26_4 1_555 1_555
Nb1_4 C1_4 1_555 1_555
C1_4 N1_4 1_555 1_555
C2_4 Nb1_4 1_555 1_555
C3_4 Nb1_4 1_555 1_555
C4_4 Nb1_4 1_555 1_555
C5_4 Nb1_4 1_555 1_555
C6_4 Nb1_4 1_555 1_555
C7_4 Nb1_4 1_555 1_555
C8_4 Nb1_4 1_555 1_555
N1_4 Fe1_4 1_555 1_555
N2_4 C2_4 1_555 1_555
N3_4 C3_4 1_555 1_555
N4_3 C4_4 1_555 1_555
N5_4 C5_4 1_555 1_555
N6_4 C6_4 1_555 1_555
N7_4 C7_4 1_555 1_555
N8_4 C8_4 1_555 1_555
Fe1_4 N9_4 1_555 1_555
Fe2_4 N2_4 1_555 1_555
Fe3_4 N3_4 1_555 1_555
N9_4 C9_4 1_555 1_555
N10_4 Fe1_4 1_555 1_555
N11_4 Fe1_4 1_555 1_555
N12_4 Fe1_4 1_555 1_555
N15_4 Fe3_4 1_555 1_555
N16_4 Fe3_4 1_555 1_555
C9_4 C25_4 1_555 1_555
C10_4 N9_4 1_555 1_555
C11_4 N10_4 1_555 1_555
C12_4 N10_4 1_555 1_555
C13_4 N11_4 1_555 1_555
C14_4 N11_4 1_555 1_555
C15_4 N12_4 1_555 1_555
C16_4 N12_4 1_555 1_555
C21_4 N15_4 1_555 1_555
C22_4 N15_4 1_555 1_555
C23_4 N16_4 1_555 1_555
C24_4 N16_4 1_555 1_555
C25_4 O1_4 1_555 1_555
C26_4 C10_4 1_555 1_555
C27_4 C11_4 1_555 1_555
C28_4 C12_4 1_555 1_555
C29_4 C13_4 1_555 1_555
C30_4 C14_4 1_555 1_555
C31_4 C15_4 1_555 1_555
C32_4 C16_4 1_555 1_555
C33_4 C17_4 1_555 1_555
C36_4 C20_4 1_555 1_555
C37_4 C21_4 1_555 1_555
C38_4 C22_4 1_555 1_555
C39_4 C23_4 1_555 1_555
C40_4 C24_4 1_555 1_555
C41_4 C25_4 1_555 1_555
O2_4 C27_4 1_555 1_555
C42_4 C27_4 1_555 1_555
O3_4 C29_4 1_555 1_555
C43_4 C29_4 1_555 1_555
O4_4 C31_4 1_555 1_555
C44_4 C31_4 1_555 1_555
O5_4 C33_4 1_555 1_555
O7_4 C37_4 1_555 1_555
C47_4 C37_4 1_555 1_555
O8_4 C39_4 1_555 1_555
C48_4 C39_4 1_555 1_555
C49_4 O2_4 1_555 1_555
C50_4 O3_4 1_555 1_555
C51_4 O4_4 1_555 1_555
C52_4 O7_4 1_555 1_555
C53_4 O8_4 1_555 1_555
C54_4 C49_4 1_555 1_555
O10_4 C50_4 1_555 1_555
C55_4 C50_4 1_555 1_555
O11_4 C51_4 1_555 1_555
C56_4 C51_4 1_555 1_555
O12_4 C52_4 1_555 1_555
C57_4 C52_4 1_555 1_555
O13_4 C53_4 1_555 1_555
C58_4 C53_4 1_555 1_555
Fe4_3 N4_3 1_555 1_555
N17_4 Fe1_4 1_555 1_555
N18_4 Fe2_4 1_555 1_555
N19_4 Fe2_4 1_555 1_555
N21_4 Fe3_4 1_555 1_555
N22_4 Fe3_4 1_555 1_555
N23_4 Fe3_4 1_555 1_555
C59_4 N17_4 1_555 1_555
C61_4 N18_4 1_555 1_555
C62_4 N19_4 1_555 1_555
C64_4 N21_4 1_555 1_555
C65_4 N21_4 1_555 1_555
C66_4 N22_4 1_555 1_555
C67_4 N22_4 1_555 1_555
Nb2_4 C59_4 1_555 1_555
C69_4 C61_4 1_555 1_555
C70_4 C62_4 1_555 1_555
C72_4 C64_4 1_555 1_555
C73_4 C65_4 1_555 1_555
C74_4 C66_4 1_555 1_555
C75_4 C67_4 1_555 1_555
C76_4 Nb2_4 1_555 1_555
C77_4 Nb2_4 1_555 1_555
C78_4 Nb2_4 1_555 1_555
C79_4 Nb2_4 1_555 1_555
C80_4 Nb2_4 1_555 1_555
C81_4 Nb2_4 1_555 1_555
C82_4 Nb2_4 1_555 1_555
O15_4 C70_4 1_555 1_555
C84_4 C70_4 1_555 1_555
O16_4 C72_4 1_555 1_555
C85_4 C72_4 1_555 1_555
O17_4 C74_4 1_555 1_555
C86_4 C74_4 1_555 1_555
N24_4 C76_4 1_555 1_555
N25_4 C77_4 1_555 1_555
N27_4 C79_4 1_555 1_555
N28_4 C80_4 1_555 1_555
N29_4 C81_4 1_555 1_555
N30_4 C82_4 1_555 1_555
C87_4 O16_4 1_555 1_555
C88_4 O17_4 1_555 1_555
Fe5_2 N24_4 1_555 1_555
Fe6_6 N25_4 1_555 1_555
O19_4 C88_4 1_555 1_555
C90_4 C88_4 1_555 1_555
N31_4 Fe5_2 1_555 1_555
N32_4 Fe5_2 1_555 1_555
N33_4 Fe5_2 1_555 1_555
N34_4 Fe5_2 1_555 1_555
N35_2 Fe5_2 1_555 1_555
C91_4 N31_4 1_555 1_555
C92_4 N31_4 1_555 1_555
C93_4 N32_4 1_555 1_555
C94_4 N32_4 1_555 1_555
C95_4 N33_4 1_555 1_555
C96_4 N33_4 1_555 1_555
C97_4 N34_4 1_555 1_555
C98_4 N34_4 1_555 1_555
C99_4 C91_4 1_555 1_555
C100_4 C92_4 1_555 1_555
C101_4 C93_4 1_555 1_555
C102_4 C94_4 1_555 1_555
C103_4 C95_4 1_555 1_555
C104_4 C96_4 1_555 1_555
C105_4 C97_4 1_555 1_555
C106_4 C98_4 1_555 1_555
O20_4 C99_4 1_555 1_555
C107_4 C99_4 1_555 1_555
O21_4 C101_4 1_555 1_555
C108_4 C101_4 1_555 1_555
O22_4 C103_4 1_555 1_555
C109_4 C103_4 1_555 1_555
O23_4 C105_4 1_555 1_555
C110_4 C105_4 1_555 1_555
C111_4 O21_4 1_555 1_555
C112_4 O22_4 1_555 1_555
C113_4 O23_4 1_555 1_555
O24_4 C111_4 1_555 1_555
C114_4 C111_4 1_555 1_555
O25_4 C112_4 1_555 1_555
C115_4 C112_4 1_555 1_555
O26_4 C113_4 1_555 1_555
C116_4 C113_4 1_555 1_555
C26_4 C41_4 1_555 1_555
C28_4 C42_4 1_555 1_555
C30_4 C43_4 1_555 1_555
C32_4 C44_4 1_555 1_555
C38_4 C47_4 1_555 1_555
C40_4 C48_4 1_555 1_555
C69_4 C83_4 1_555 1_555
C73_4 C85_4 1_555 1_555
C75_4 C86_4 1_555 1_555
C100_4 C107_4 1_555 1_555
C102_4 C108_4 1_555 1_555
C104_4 C109_4 1_555 1_555
C106_4 C110_4 1_555 1_555
C61_4 H1_4 1_555 1_555
C64_4 H2_4 1_555 1_555
C54_4 H3_4 1_555 1_555
C54_4 H5_4 1_555 1_555
C65_4 H6_4 1_555 1_555
C67_4 H7_4 1_555 1_555
C57_4 H8_4 1_555 1_555
C57_4 H9_4 1_555 1_555
C57_4 H10_4 1_555 1_555
C66_4 H11_4 1_555 1_555
C56_4 H13_4 1_555 1_555
C56_4 H14_4 1_555 1_555
C58_4 H16_4 1_555 1_555
C58_4 H17_4 1_555 1_555
C58_4 H18_4 1_555 1_555
C62_4 H19_4 1_555 1_555
C55_4 H21_4 1_555 1_555
C55_4 H22_4 1_555 1_555
C55_4 H23_4 1_555 1_555
C75_4 H24_4 1_555 1_555
C83_4 H25_4 1_555 1_555
C73_4 H26_4 1_555 1_555
C69_4 H27_4 1_555 1_555
C84_4 H29_4 1_555 1_555
O15_4 H31_4 1_555 1_555
C86_4 H33_4 1_555 1_555
C90_4 H34_4 1_555 1_555
C90_4 H35_4 1_555 1_555
C90_4 H36_4 1_555 1_555
C108_4 H40_4 1_555 1_555
C114_4 H41_4 1_555 1_555
C114_4 H42_4 1_555 1_555
C114_4 H43_4 1_555 1_555
C100_4 H44_4 1_555 1_555
C107_4 H45_4 1_555 1_555
C106_4 H46_4 1_555 1_555
O20_4 H47_4 1_555 1_555
C109_4 H48_4 1_555 1_555
C93_4 H49_4 1_555 1_555
C95_4 H50_4 1_555 1_555
C102_4 H51_4 1_555 1_555
C92_4 H52_4 1_555 1_555
C96_4 H53_4 1_555 1_555
C110_4 H54_4 1_555 1_555
C104_4 H55_4 1_555 1_555
C91_4 H56_4 1_555 1_555
C97_4 H57_4 1_555 1_555
C94_4 H58_4 1_555 1_555
C98_4 H59_4 1_555 1_555
C115_4 H60_4 1_555 1_555
C115_4 H61_4 1_555 1_555
C115_4 H62_4 1_555 1_555
C116_4 H63_4 1_555 1_555
C116_4 H64_4 1_555 1_555
C116_4 H65_4 1_555 1_555
C17_4 H66_4 1_555 1_555
C14_4 H67_4 1_555 1_555
C23_4 H68_4 1_555 1_555
C16_4 H69_4 1_555 1_555
C28_4 H70_4 1_555 1_555
C22_4 H73_4 1_555 1_555
C12_4 H74_4 1_555 1_555
C13_4 H75_4 1_555 1_555
C24_4 H76_4 1_555 1_555
C26_4 H77_4 1_555 1_555
C20_4 H78_4 1_555 1_555
C11_4 H79_4 1_555 1_555
C32_4 H80_4 1_555 1_555
C9_4 H81_4 1_555 1_555
C21_4 H83_4 1_555 1_555
C10_4 H84_4 1_555 1_555
C15_4 H86_4 1_555 1_555
O5_4 H87_4 1_555 1_555
O1_4 H88_4 1_555 1_555
C36_4 H89_4 1_555 1_555
C42_4 H90_4 1_555 1_555
C44_4 H92_4 1_555 1_555
C41_4 H94_4 1_555 1_555
C48_4 H96_4 1_555 1_555
C38_4 H97_4 1_555 1_555
C40_4 H99_4 1_555 1_555
C47_4 H100_4 1_555 1_555
N13_4 Fe2_5 1_555 1_555
N14_4 Fe2_5 1_555 1_555
C18_4 N13_4 1_555 1_555
C19_4 N14_4 1_555 1_555
C34_4 C18_4 1_555 1_555
C35_4 C19_4 1_555 1_555
O6_4 C35_4 1_555 1_555
C46_4 C35_4 1_555 1_555
N20_4 Fe2_5 1_555 1_555
C68_4 C60_4 1_555 1_555
C71_4 C63_4 1_555 1_555
O14_4 C68_4 1_555 1_555
C34_4 C45_4 1_555 1_555
C60_4 H15_4 1_555 1_555
C63_4 H20_4 1_555 1_555
O14_4 H28_4 1_555 1_555
C71_4 H30_4 1_555 1_555
C89_4 H37_4 1_555 1_555
C89_4 H38_4 1_555 1_555
C89_4 H39_4 1_555 1_555
C19_4 H72_4 1_555 1_555
C18_4 H82_4 1_555 1_555
C34_4 H85_4 1_555 1_555
C46_4 H93_4 1_555 1_555
C45_4 H95_4 1_555 1_555
O6_4 H98_4 1_555 1_555
N13_5 Fe2_6 1_555 1_555
N14_5 Fe2_6 1_555 1_555
C18_5 N13_5 1_555 1_555
C19_5 N14_5 1_555 1_555
C34_5 C18_5 1_555 1_555
C35_5 C19_5 1_555 1_555
O6_5 C35_5 1_555 1_555
C46_5 C35_5 1_555 1_555
N20_5 Fe2_6 1_555 1_555
C68_5 C60_5 1_555 1_555
C71_5 C63_5 1_555 1_555
O14_5 C68_5 1_555 1_555
C34_5 C45_5 1_555 1_555
C60_5 H15_5 1_555 1_555
C63_5 H20_5 1_555 1_555
O14_5 H28_5 1_555 1_555
C71_5 H30_5 1_555 1_555
C89_5 H37_5 1_555 1_555
C89_5 H38_5 1_555 1_555
C89_5 H39_5 1_555 1_555
C19_5 H72_5 1_555 1_555
C18_5 H82_5 1_555 1_555
C34_5 H85_5 1_555 1_555
C46_5 H93_5 1_555 1_555
C45_5 H95_5 1_555 1_555
O6_5 H98_5 1_555 1_555
Fe7_5 N26_5 1_555 1_555
Nb1_5 C1_5 1_555 1_555
C1_5 N1_5 1_555 1_555
C2_5 Nb1_5 1_555 1_555
C3_5 Nb1_5 1_555 1_555
C4_5 Nb1_5 1_555 1_555
C5_5 Nb1_5 1_555 1_555
C6_5 Nb1_5 1_555 1_555
C7_5 Nb1_5 1_555 1_555
C8_5 Nb1_5 1_555 1_555
N1_5 Fe1_5 1_555 1_555
N2_5 C2_5 1_555 1_555
N3_5 C3_5 1_555 1_555
N4_4 C4_5 1_555 1_555
N5_5 C5_5 1_555 1_555
N6_5 C6_5 1_555 1_555
N7_5 C7_5 1_555 1_555
N8_5 C8_5 1_555 1_555
Fe1_5 N9_5 1_555 1_555
Fe2_7 N2_5 1_555 1_555
Fe3_5 N3_5 1_555 1_555
N9_5 C9_5 1_555 1_555
N10_5 Fe1_5 1_555 1_555
N11_5 Fe1_5 1_555 1_555
N12_5 Fe1_5 1_555 1_555
N15_5 Fe3_5 1_555 1_555
N16_5 Fe3_5 1_555 1_555
C9_5 C25_5 1_555 1_555
C10_5 N9_5 1_555 1_555
C11_5 N10_5 1_555 1_555
C12_5 N10_5 1_555 1_555
C13_5 N11_5 1_555 1_555
C14_5 N11_5 1_555 1_555
C15_5 N12_5 1_555 1_555
C16_5 N12_5 1_555 1_555
C21_5 N15_5 1_555 1_555
C22_5 N15_5 1_555 1_555
C23_5 N16_5 1_555 1_555
C24_5 N16_5 1_555 1_555
C25_5 O1_5 1_555 1_555
C26_5 C10_5 1_555 1_555
C27_5 C11_5 1_555 1_555
C28_5 C12_5 1_555 1_555
C29_5 C13_5 1_555 1_555
C30_5 C14_5 1_555 1_555
C31_5 C15_5 1_555 1_555
C32_5 C16_5 1_555 1_555
C33_5 C17_5 1_555 1_555
C36_5 C20_5 1_555 1_555
C37_5 C21_5 1_555 1_555
C38_5 C22_5 1_555 1_555
C39_5 C23_5 1_555 1_555
C40_5 C24_5 1_555 1_555
C41_5 C25_5 1_555 1_555
O2_5 C27_5 1_555 1_555
C42_5 C27_5 1_555 1_555
O3_5 C29_5 1_555 1_555
C43_5 C29_5 1_555 1_555
O4_5 C31_5 1_555 1_555
C44_5 C31_5 1_555 1_555
O5_5 C33_5 1_555 1_555
O7_5 C37_5 1_555 1_555
C47_5 C37_5 1_555 1_555
O8_5 C39_5 1_555 1_555
C48_5 C39_5 1_555 1_555
C49_5 O2_5 1_555 1_555
C50_5 O3_5 1_555 1_555
C51_5 O4_5 1_555 1_555
C52_5 O7_5 1_555 1_555
C53_5 O8_5 1_555 1_555
C54_5 C49_5 1_555 1_555
O10_5 C50_5 1_555 1_555
C55_5 C50_5 1_555 1_555
O11_5 C51_5 1_555 1_555
C56_5 C51_5 1_555 1_555
O12_5 C52_5 1_555 1_555
C57_5 C52_5 1_555 1_555
O13_5 C53_5 1_555 1_555
C58_5 C53_5 1_555 1_555
Fe4_4 N4_4 1_555 1_555
N17_5 Fe1_5 1_555 1_555
N18_5 Fe2_7 1_555 1_555
N19_5 Fe2_7 1_555 1_555
N21_5 Fe3_5 1_555 1_555
N22_5 Fe3_5 1_555 1_555
N23_5 Fe3_5 1_555 1_555
C59_5 N17_5 1_555 1_555
C61_5 N18_5 1_555 1_555
C62_5 N19_5 1_555 1_555
C64_5 N21_5 1_555 1_555
C65_5 N21_5 1_555 1_555
C66_5 N22_5 1_555 1_555
C67_5 N22_5 1_555 1_555
Nb2_5 C59_5 1_555 1_555
C69_5 C61_5 1_555 1_555
C70_5 C62_5 1_555 1_555
C72_5 C64_5 1_555 1_555
C73_5 C65_5 1_555 1_555
C74_5 C66_5 1_555 1_555
C75_5 C67_5 1_555 1_555
C76_5 Nb2_5 1_555 1_555
C77_5 Nb2_5 1_555 1_555
C78_5 Nb2_5 1_555 1_555
C79_5 Nb2_5 1_555 1_555
C80_5 Nb2_5 1_555 1_555
C81_5 Nb2_5 1_555 1_555
C82_5 Nb2_5 1_555 1_555
O15_5 C70_5 1_555 1_555
C84_5 C70_5 1_555 1_555
O16_5 C72_5 1_555 1_555
C85_5 C72_5 1_555 1_555
O17_5 C74_5 1_555 1_555
C86_5 C74_5 1_555 1_555
N24_5 C76_5 1_555 1_555
N25_5 C77_5 1_555 1_555
N27_5 C79_5 1_555 1_555
N28_5 C80_5 1_555 1_555
N29_5 C81_5 1_555 1_555
N30_5 C82_5 1_555 1_555
C87_5 O16_5 1_555 1_555
C88_5 O17_5 1_555 1_555
Fe4_3 N24_5 1_555 1_555
Fe6_7 N25_5 1_555 1_555
O19_5 C88_5 1_555 1_555
C90_5 C88_5 1_555 1_555
N31_5 Fe4_3 1_555 1_555
N32_5 Fe4_3 1_555 1_555
N33_5 Fe4_3 1_555 1_555
N34_5 Fe4_3 1_555 1_555
C91_5 N31_5 1_555 1_555
C92_5 N31_5 1_555 1_555
C93_5 N32_5 1_555 1_555
C94_5 N32_5 1_555 1_555
C95_5 N33_5 1_555 1_555
C96_5 N33_5 1_555 1_555
C97_5 N34_5 1_555 1_555
C98_5 N34_5 1_555 1_555
C99_5 C91_5 1_555 1_555
C100_5 C92_5 1_555 1_555
C101_5 C93_5 1_555 1_555
C102_5 C94_5 1_555 1_555
C103_5 C95_5 1_555 1_555
C104_5 C96_5 1_555 1_555
C105_5 C97_5 1_555 1_555
C106_5 C98_5 1_555 1_555
O20_5 C99_5 1_555 1_555
C107_5 C99_5 1_555 1_555
O21_5 C101_5 1_555 1_555
C108_5 C101_5 1_555 1_555
O22_5 C103_5 1_555 1_555
C109_5 C103_5 1_555 1_555
O23_5 C105_5 1_555 1_555
C110_5 C105_5 1_555 1_555
C111_5 O21_5 1_555 1_555
C112_5 O22_5 1_555 1_555
C113_5 O23_5 1_555 1_555
O24_5 C111_5 1_555 1_555
C114_5 C111_5 1_555 1_555
O25_5 C112_5 1_555 1_555
C115_5 C112_5 1_555 1_555
O26_5 C113_5 1_555 1_555
C116_5 C113_5 1_555 1_555
C26_5 C41_5 1_555 1_555
C28_5 C42_5 1_555 1_555
C30_5 C43_5 1_555 1_555
C32_5 C44_5 1_555 1_555
C38_5 C47_5 1_555 1_555
C40_5 C48_5 1_555 1_555
C69_5 C83_5 1_555 1_555
C73_5 C85_5 1_555 1_555
C75_5 C86_5 1_555 1_555
C100_5 C107_5 1_555 1_555
C102_5 C108_5 1_555 1_555
C104_5 C109_5 1_555 1_555
C106_5 C110_5 1_555 1_555
C61_5 H1_5 1_555 1_555
C64_5 H2_5 1_555 1_555
C54_5 H3_5 1_555 1_555
C54_5 H5_5 1_555 1_555
C65_5 H6_5 1_555 1_555
C67_5 H7_5 1_555 1_555
C57_5 H8_5 1_555 1_555
C57_5 H9_5 1_555 1_555
C57_5 H10_5 1_555 1_555
C66_5 H11_5 1_555 1_555
C56_5 H13_5 1_555 1_555
C56_5 H14_5 1_555 1_555
C58_5 H16_5 1_555 1_555
C58_5 H17_5 1_555 1_555
C58_5 H18_5 1_555 1_555
C62_5 H19_5 1_555 1_555
C55_5 H21_5 1_555 1_555
C55_5 H22_5 1_555 1_555
C55_5 H23_5 1_555 1_555
C75_5 H24_5 1_555 1_555
C83_5 H25_5 1_555 1_555
C73_5 H26_5 1_555 1_555
C69_5 H27_5 1_555 1_555
C84_5 H29_5 1_555 1_555
O15_5 H31_5 1_555 1_555
C86_5 H33_5 1_555 1_555
C90_5 H34_5 1_555 1_555
C90_5 H35_5 1_555 1_555
C90_5 H36_5 1_555 1_555
C108_5 H40_5 1_555 1_555
C114_5 H41_5 1_555 1_555
C114_5 H42_5 1_555 1_555
C114_5 H43_5 1_555 1_555
C100_5 H44_5 1_555 1_555
C107_5 H45_5 1_555 1_555
C106_5 H46_5 1_555 1_555
O20_5 H47_5 1_555 1_555
C109_5 H48_5 1_555 1_555
C93_5 H49_5 1_555 1_555
C95_5 H50_5 1_555 1_555
C102_5 H51_5 1_555 1_555
C92_5 H52_5 1_555 1_555
C96_5 H53_5 1_555 1_555
C110_5 H54_5 1_555 1_555
C104_5 H55_5 1_555 1_555
C91_5 H56_5 1_555 1_555
C97_5 H57_5 1_555 1_555
C94_5 H58_5 1_555 1_555
C98_5 H59_5 1_555 1_555
C115_5 H60_5 1_555 1_555
C115_5 H61_5 1_555 1_555
C115_5 H62_5 1_555 1_555
C116_5 H63_5 1_555 1_555
C116_5 H64_5 1_555 1_555
C116_5 H65_5 1_555 1_555
C17_5 H66_5 1_555 1_555
C14_5 H67_5 1_555 1_555
C23_5 H68_5 1_555 1_555
C16_5 H69_5 1_555 1_555
C28_5 H70_5 1_555 1_555
C22_5 H73_5 1_555 1_555
C12_5 H74_5 1_555 1_555
C13_5 H75_5 1_555 1_555
C24_5 H76_5 1_555 1_555
C26_5 H77_5 1_555 1_555
C20_5 H78_5 1_555 1_555
C11_5 H79_5 1_555 1_555
C32_5 H80_5 1_555 1_555
C9_5 H81_5 1_555 1_555
C21_5 H83_5 1_555 1_555
C10_5 H84_5 1_555 1_555
C15_5 H86_5 1_555 1_555
O5_5 H87_5 1_555 1_555
O1_5 H88_5 1_555 1_555
C36_5 H89_5 1_555 1_555
C42_5 H90_5 1_555 1_555
C44_5 H92_5 1_555 1_555
C41_5 H94_5 1_555 1_555
C48_5 H96_5 1_555 1_555
C38_5 H97_5 1_555 1_555
C40_5 H99_5 1_555 1_555
C47_5 H100_5 1_555 1_555
Fe7_6 N26_6 1_555 1_555
Nb1_6 C1_6 1_555 1_555
C1_6 N1_6 1_555 1_555
C2_6 Nb1_6 1_555 1_555
C3_6 Nb1_6 1_555 1_555
C4_6 Nb1_6 1_555 1_555
C5_6 Nb1_6 1_555 1_555
C6_6 Nb1_6 1_555 1_555
C7_6 Nb1_6 1_555 1_555
C8_6 Nb1_6 1_555 1_555
N1_6 Fe1_6 1_555 1_555
N2_6 C2_6 1_555 1_555
N3_6 C3_6 1_555 1_555
N35_2 C4_6 1_555 1_555
N5_6 C5_6 1_555 1_555
N6_6 C6_6 1_555 1_555
N7_6 C7_6 1_555 1_555
N8_6 C8_6 1_555 1_555
Fe1_6 N9_6 1_555 1_555
Fe2_8 N2_6 1_555 1_555
Fe3_6 N3_6 1_555 1_555
N9_6 C9_6 1_555 1_555
N10_6 Fe1_6 1_555 1_555
N11_6 Fe1_6 1_555 1_555
N12_6 Fe1_6 1_555 1_555
N13_6 Fe2_8 1_555 1_555
N14_6 Fe2_8 1_555 1_555
N15_6 Fe3_6 1_555 1_555
N16_6 Fe3_6 1_555 1_555
C9_6 C25_6 1_555 1_555
C10_6 N9_6 1_555 1_555
C11_6 N10_6 1_555 1_555
C12_6 N10_6 1_555 1_555
C13_6 N11_6 1_555 1_555
C14_6 N11_6 1_555 1_555
C15_6 N12_6 1_555 1_555
C16_6 N12_6 1_555 1_555
C17_6 N13_6 1_555 1_555
C18_6 N13_6 1_555 1_555
C19_6 N14_6 1_555 1_555
C20_6 N14_6 1_555 1_555
C21_6 N15_6 1_555 1_555
C22_6 N15_6 1_555 1_555
C23_6 N16_6 1_555 1_555
C24_6 N16_6 1_555 1_555
C25_6 O1_6 1_555 1_555
C26_6 C10_6 1_555 1_555
C27_6 C11_6 1_555 1_555
C28_6 C12_6 1_555 1_555
C29_6 C13_6 1_555 1_555
C30_6 C14_6 1_555 1_555
C31_6 C15_6 1_555 1_555
C32_6 C16_6 1_555 1_555
C33_6 C17_6 1_555 1_555
C34_6 C18_6 1_555 1_555
C35_6 C19_6 1_555 1_555
C36_6 C20_6 1_555 1_555
C37_6 C21_6 1_555 1_555
C38_6 C22_6 1_555 1_555
C39_6 C23_6 1_555 1_555
C40_6 C24_6 1_555 1_555
C41_6 C25_6 1_555 1_555
O2_6 C27_6 1_555 1_555
C42_6 C27_6 1_555 1_555
O3_6 C29_6 1_555 1_555
C43_6 C29_6 1_555 1_555
O4_6 C31_6 1_555 1_555
C44_6 C31_6 1_555 1_555
O5_6 C33_6 1_555 1_555
C45_6 C33_6 1_555 1_555
O6_6 C35_6 1_555 1_555
C46_6 C35_6 1_555 1_555
O7_6 C37_6 1_555 1_555
C47_6 C37_6 1_555 1_555
O8_6 C39_6 1_555 1_555
C48_6 C39_6 1_555 1_555
C49_6 O2_6 1_555 1_555
C50_6 O3_6 1_555 1_555
C51_6 O4_6 1_555 1_555
C52_6 O7_6 1_555 1_555
C53_6 O8_6 1_555 1_555
O9_6 C49_6 1_555 1_555
C54_6 C49_6 1_555 1_555
O10_6 C50_6 1_555 1_555
C55_6 C50_6 1_555 1_555
O11_6 C51_6 1_555 1_555
C56_6 C51_6 1_555 1_555
O12_6 C52_6 1_555 1_555
C57_6 C52_6 1_555 1_555
O13_6 C53_6 1_555 1_555
C58_6 C53_6 1_555 1_555
N17_6 Fe1_6 1_555 1_555
N18_6 Fe2_8 1_555 1_555
N19_6 Fe2_8 1_555 1_555
N20_6 Fe2_8 1_555 1_555
N21_6 Fe3_6 1_555 1_555
N22_6 Fe3_6 1_555 1_555
N23_6 Fe3_6 1_555 1_555
C59_6 N17_6 1_555 1_555
C60_6 N18_6 1_555 1_555
C61_6 N18_6 1_555 1_555
C62_6 N19_6 1_555 1_555
C63_6 N19_6 1_555 1_555
C64_6 N21_6 1_555 1_555
C65_6 N21_6 1_555 1_555
C66_6 N22_6 1_555 1_555
C67_6 N22_6 1_555 1_555
Nb2_6 C59_6 1_555 1_555
C68_6 C60_6 1_555 1_555
C69_6 C61_6 1_555 1_555
C70_6 C62_6 1_555 1_555
C71_6 C63_6 1_555 1_555
C72_6 C64_6 1_555 1_555
C73_6 C65_6 1_555 1_555
C74_6 C66_6 1_555 1_555
C75_6 C67_6 1_555 1_555
C76_6 Nb2_6 1_555 1_555
C77_6 Nb2_6 1_555 1_555
C78_6 Nb2_6 1_555 1_555
C79_6 Nb2_6 1_555 1_555
C80_6 Nb2_6 1_555 1_555
C81_6 Nb2_6 1_555 1_555
C82_6 Nb2_6 1_555 1_555
O14_6 C68_6 1_555 1_555
C83_6 C68_6 1_555 1_555
O15_6 C70_6 1_555 1_555
C84_6 C70_6 1_555 1_555
O16_6 C72_6 1_555 1_555
C85_6 C72_6 1_555 1_555
O17_6 C74_6 1_555 1_555
C86_6 C74_6 1_555 1_555
N24_6 C76_6 1_555 1_555
N25_6 C77_6 1_555 1_555
N27_6 C79_6 1_555 1_555
N28_6 C80_6 1_555 1_555
N29_6 C81_6 1_555 1_555
N30_6 C82_6 1_555 1_555
C87_6 O16_6 1_555 1_555
C88_6 O17_6 1_555 1_555
Fe4_4 N24_6 1_555 1_555
Fe6_8 N25_6 1_555 1_555
O18_6 C87_6 1_555 1_555
C89_6 C87_6 1_555 1_555
O19_6 C88_6 1_555 1_555
C90_6 C88_6 1_555 1_555
N31_6 Fe4_4 1_555 1_555
N32_6 Fe4_4 1_555 1_555
N33_6 Fe4_4 1_555 1_555
N34_6 Fe4_4 1_555 1_555
C91_6 N31_6 1_555 1_555
C92_6 N31_6 1_555 1_555
C93_6 N32_6 1_555 1_555
C94_6 N32_6 1_555 1_555
C95_6 N33_6 1_555 1_555
C96_6 N33_6 1_555 1_555
C97_6 N34_6 1_555 1_555
C98_6 N34_6 1_555 1_555
C99_6 C91_6 1_555 1_555
C100_6 C92_6 1_555 1_555
C101_6 C93_6 1_555 1_555
C102_6 C94_6 1_555 1_555
C103_6 C95_6 1_555 1_555
C104_6 C96_6 1_555 1_555
C105_6 C97_6 1_555 1_555
C106_6 C98_6 1_555 1_555
O20_6 C99_6 1_555 1_555
C107_6 C99_6 1_555 1_555
O21_6 C101_6 1_555 1_555
C108_6 C101_6 1_555 1_555
O22_6 C103_6 1_555 1_555
C109_6 C103_6 1_555 1_555
O23_6 C105_6 1_555 1_555
C110_6 C105_6 1_555 1_555
C111_6 O21_6 1_555 1_555
C112_6 O22_6 1_555 1_555
C113_6 O23_6 1_555 1_555
O24_6 C111_6 1_555 1_555
C114_6 C111_6 1_555 1_555
O25_6 C112_6 1_555 1_555
C115_6 C112_6 1_555 1_555
O26_6 C113_6 1_555 1_555
C116_6 C113_6 1_555 1_555
C26_6 C41_6 1_555 1_555
C28_6 C42_6 1_555 1_555
C30_6 C43_6 1_555 1_555
C32_6 C44_6 1_555 1_555
C34_6 C45_6 1_555 1_555
C36_6 C46_6 1_555 1_555
C38_6 C47_6 1_555 1_555
C40_6 C48_6 1_555 1_555
C69_6 C83_6 1_555 1_555
C71_6 C84_6 1_555 1_555
C73_6 C85_6 1_555 1_555
C75_6 C86_6 1_555 1_555
C100_6 C107_6 1_555 1_555
C102_6 C108_6 1_555 1_555
C104_6 C109_6 1_555 1_555
C106_6 C110_6 1_555 1_555
C61_6 H1_6 1_555 1_555
C64_6 H2_6 1_555 1_555
C54_6 H3_6 1_555 1_555
C54_6 H4_6 1_555 1_555
C54_6 H5_6 1_555 1_555
C65_6 H6_6 1_555 1_555
C67_6 H7_6 1_555 1_555
C57_6 H8_6 1_555 1_555
C57_6 H9_6 1_555 1_555
C57_6 H10_6 1_555 1_555
C66_6 H11_6 1_555 1_555
C56_6 H13_6 1_555 1_555
C56_6 H14_6 1_555 1_555
C60_6 H15_6 1_555 1_555
C58_6 H16_6 1_555 1_555
C58_6 H17_6 1_555 1_555
C58_6 H18_6 1_555 1_555
C62_6 H19_6 1_555 1_555
C63_6 H20_6 1_555 1_555
C55_6 H21_6 1_555 1_555
C55_6 H22_6 1_555 1_555
C55_6 H23_6 1_555 1_555
C75_6 H24_6 1_555 1_555
C83_6 H25_6 1_555 1_555
C73_6 H26_6 1_555 1_555
C69_6 H27_6 1_555 1_555
O14_6 H28_6 1_555 1_555
C84_6 H29_6 1_555 1_555
C71_6 H30_6 1_555 1_555
O15_6 H31_6 1_555 1_555
C85_6 H32_6 1_555 1_555
C86_6 H33_6 1_555 1_555
C90_6 H34_6 1_555 1_555
C90_6 H35_6 1_555 1_555
C90_6 H36_6 1_555 1_555
C89_6 H37_6 1_555 1_555
C89_6 H38_6 1_555 1_555
C89_6 H39_6 1_555 1_555
C108_6 H40_6 1_555 1_555
C114_6 H41_6 1_555 1_555
C114_6 H42_6 1_555 1_555
C114_6 H43_6 1_555 1_555
C100_6 H44_6 1_555 1_555
C107_6 H45_6 1_555 1_555
C106_6 H46_6 1_555 1_555
O20_6 H47_6 1_555 1_555
C109_6 H48_6 1_555 1_555
C93_6 H49_6 1_555 1_555
C95_6 H50_6 1_555 1_555
C102_6 H51_6 1_555 1_555
C92_6 H52_6 1_555 1_555
C96_6 H53_6 1_555 1_555
C110_6 H54_6 1_555 1_555
C104_6 H55_6 1_555 1_555
C91_6 H56_6 1_555 1_555
C97_6 H57_6 1_555 1_555
C94_6 H58_6 1_555 1_555
C98_6 H59_6 1_555 1_555
C115_6 H60_6 1_555 1_555
C115_6 H61_6 1_555 1_555
C115_6 H62_6 1_555 1_555
C116_6 H63_6 1_555 1_555
C116_6 H64_6 1_555 1_555
C116_6 H65_6 1_555 1_555
C17_6 H66_6 1_555 1_555
C14_6 H67_6 1_555 1_555
C23_6 H68_6 1_555 1_555
C16_6 H69_6 1_555 1_555
C28_6 H70_6 1_555 1_555
C19_6 H72_6 1_555 1_555
C22_6 H73_6 1_555 1_555
C12_6 H74_6 1_555 1_555
C13_6 H75_6 1_555 1_555
C24_6 H76_6 1_555 1_555
C26_6 H77_6 1_555 1_555
C20_6 H78_6 1_555 1_555
C11_6 H79_6 1_555 1_555
C32_6 H80_6 1_555 1_555
C9_6 H81_6 1_555 1_555
C18_6 H82_6 1_555 1_555
C21_6 H83_6 1_555 1_555
C10_6 H84_6 1_555 1_555
C34_6 H85_6 1_555 1_555
C15_6 H86_6 1_555 1_555
O5_6 H87_6 1_555 1_555
O1_6 H88_6 1_555 1_555
C36_6 H89_6 1_555 1_555
C42_6 H90_6 1_555 1_555
C44_6 H92_6 1_555 1_555
C46_6 H93_6 1_555 1_555
C41_6 H94_6 1_555 1_555
C45_6 H95_6 1_555 1_555
C48_6 H96_6 1_555 1_555
C38_6 H97_6 1_555 1_555
O6_6 H98_6 1_555 1_555
C40_6 H99_6 1_555 1_555
C47_6 H100_6 1_555 1_555
N4_5 C4_7 1_555 1_555
N7_7 C7_7 1_555 1_555
N15_7 Fe3_7 1_555 1_555
N16_7 Fe3_7 1_555 1_555
C21_7 N15_7 1_555 1_555
C22_7 N15_7 1_555 1_555
C23_7 N16_7 1_555 1_555
C24_7 N16_7 1_555 1_555
C37_7 C21_7 1_555 1_555
C38_7 C22_7 1_555 1_555
C39_7 C23_7 1_555 1_555
C40_7 C24_7 1_555 1_555
O7_7 C37_7 1_555 1_555
C47_7 C37_7 1_555 1_555
O8_7 C39_7 1_555 1_555
C48_7 C39_7 1_555 1_555
C52_7 O7_7 1_555 1_555
C53_7 O8_7 1_555 1_555
O12_7 C52_7 1_555 1_555
C57_7 C52_7 1_555 1_555
O13_7 C53_7 1_555 1_555
C58_7 C53_7 1_555 1_555
Fe4_5 N4_5 1_555 1_555
N23_7 Fe3_7 1_555 1_555
O15_7 C70_7 1_555 1_555
C84_7 C70_7 1_555 1_555
C36_7 C46_7 1_555 1_555
C38_7 C47_7 1_555 1_555
C40_7 C48_7 1_555 1_555
C57_7 H8_7 1_555 1_555
C57_7 H9_7 1_555 1_555
C57_7 H10_7 1_555 1_555
C58_7 H16_7 1_555 1_555
C58_7 H17_7 1_555 1_555
C58_7 H18_7 1_555 1_555
C55_7 H21_7 1_555 1_555
C55_7 H22_7 1_555 1_555
C84_7 H29_7 1_555 1_555
C23_7 H68_7 1_555 1_555
C22_7 H73_7 1_555 1_555
C24_7 H76_7 1_555 1_555
C21_7 H83_7 1_555 1_555
C36_7 H89_7 1_555 1_555
C46_7 H93_7 1_555 1_555
C48_7 H96_7 1_555 1_555
C38_7 H97_7 1_555 1_555
C40_7 H99_7 1_555 1_555
C47_7 H100_7 1_555 1_555
C116_7 H63_7 1_555 1_555
C116_7 H64_7 1_555 1_555
C116_7 H65_7 1_555 1_555
Nb1_7 C1_7 1_555 1_555
C1_7 N1_7 1_555 1_555
C2_7 Nb1_7 1_555 1_555
C3_7 Nb1_7 1_555 1_555
C5_7 Nb1_7 1_555 1_555
C6_7 Nb1_7 1_555 1_555
C8_7 Nb1_7 1_555 1_555
N1_7 Fe1_7 1_555 1_555
N2_7 C2_7 1_555 1_555
N3_7 C3_7 1_555 1_555
N5_7 C5_7 1_555 1_555
N8_7 C8_7 1_555 1_555
Fe1_7 N9_7 1_555 1_555
Fe2_9 N2_7 1_555 1_555
Fe3_8 N3_7 1_555 1_555
N9_7 C9_7 1_555 1_555
N10_7 Fe1_7 1_555 1_555
N11_7 Fe1_7 1_555 1_555
N12_7 Fe1_7 1_555 1_555
N13_7 Fe2_9 1_555 1_555
N14_7 Fe2_9 1_555 1_555
C9_7 C25_7 1_555 1_555
C10_7 N9_7 1_555 1_555
C11_7 N10_7 1_555 1_555
C12_7 N10_7 1_555 1_555
C13_7 N11_7 1_555 1_555
C14_7 N11_7 1_555 1_555
C15_7 N12_7 1_555 1_555
C16_7 N12_7 1_555 1_555
C17_7 N13_7 1_555 1_555
C18_7 N13_7 1_555 1_555
C19_7 N14_7 1_555 1_555
C20_7 N14_7 1_555 1_555
C25_7 O1_7 1_555 1_555
C26_7 C10_7 1_555 1_555
C27_7 C11_7 1_555 1_555
C28_7 C12_7 1_555 1_555
C29_7 C13_7 1_555 1_555
C30_7 C14_7 1_555 1_555
C31_7 C15_7 1_555 1_555
C32_7 C16_7 1_555 1_555
C33_7 C17_7 1_555 1_555
C34_7 C18_7 1_555 1_555
C35_7 C19_7 1_555 1_555
C41_7 C25_7 1_555 1_555
O2_7 C27_7 1_555 1_555
C42_7 C27_7 1_555 1_555
O3_7 C29_7 1_555 1_555
C43_7 C29_7 1_555 1_555
O4_7 C31_7 1_555 1_555
C44_7 C31_7 1_555 1_555
O5_7 C33_7 1_555 1_555
C45_7 C33_7 1_555 1_555
O6_7 C35_7 1_555 1_555
C49_7 O2_7 1_555 1_555
C50_7 O3_7 1_555 1_555
C51_7 O4_7 1_555 1_555
O9_7 C49_7 1_555 1_555
C54_7 C49_7 1_555 1_555
O10_7 C50_7 1_555 1_555
O11_7 C51_7 1_555 1_555
C56_7 C51_7 1_555 1_555
N17_7 Fe1_7 1_555 1_555
N18_7 Fe2_9 1_555 1_555
N19_7 Fe2_9 1_555 1_555
N20_7 Fe2_9 1_555 1_555
N21_7 Fe3_8 1_555 1_555
N22_7 Fe3_8 1_555 1_555
C59_7 N17_7 1_555 1_555
C60_7 N18_7 1_555 1_555
C61_7 N18_7 1_555 1_555
C62_7 N19_7 1_555 1_555
C63_7 N19_7 1_555 1_555
C64_7 N21_7 1_555 1_555
C65_7 N21_7 1_555 1_555
C66_7 N22_7 1_555 1_555
C67_7 N22_7 1_555 1_555
Nb2_7 C59_7 1_555 1_555
C68_7 C60_7 1_555 1_555
C69_7 C61_7 1_555 1_555
C71_7 C63_7 1_555 1_555
C72_7 C64_7 1_555 1_555
C73_7 C65_7 1_555 1_555
C74_7 C66_7 1_555 1_555
C75_7 C67_7 1_555 1_555
C76_7 Nb2_7 1_555 1_555
C77_7 Nb2_7 1_555 1_555
C78_7 Nb2_7 1_555 1_555
C79_7 Nb2_7 1_555 1_555
C80_7 Nb2_7 1_555 1_555
C81_7 Nb2_7 1_555 1_555
C82_7 Nb2_7 1_555 1_555
O14_7 C68_7 1_555 1_555
C83_7 C68_7 1_555 1_555
O16_7 C72_7 1_555 1_555
C85_7 C72_7 1_555 1_555
O17_7 C74_7 1_555 1_555
C86_7 C74_7 1_555 1_555
N24_7 C76_7 1_555 1_555
N25_7 C77_7 1_555 1_555
N26_7 C78_7 1_555 1_555
N27_7 C79_7 1_555 1_555
N28_7 C80_7 1_555 1_555
N29_7 C81_7 1_555 1_555
N30_7 C82_7 1_555 1_555
C87_7 O16_7 1_555 1_555
C88_7 O17_7 1_555 1_555
Fe5_3 N24_7 1_555 1_555
Fe6_9 N25_7 1_555 1_555
Fe7_7 N26_7 1_555 1_555
O18_7 C87_7 1_555 1_555
C89_7 C87_7 1_555 1_555
O19_7 C88_7 1_555 1_555
C90_7 C88_7 1_555 1_555
N31_7 Fe5_3 1_555 1_555
N32_7 Fe5_3 1_555 1_555
N33_7 Fe5_3 1_555 1_555
N34_7 Fe5_3 1_555 1_555
N35_3 Fe5_3 1_555 1_555
C91_7 N31_7 1_555 1_555
C92_7 N31_7 1_555 1_555
C93_7 N32_7 1_555 1_555
C94_7 N32_7 1_555 1_555
C95_7 N33_7 1_555 1_555
C96_7 N33_7 1_555 1_555
C97_7 N34_7 1_555 1_555
C98_7 N34_7 1_555 1_555
C99_7 C91_7 1_555 1_555
C100_7 C92_7 1_555 1_555
C101_7 C93_7 1_555 1_555
C102_7 C94_7 1_555 1_555
C103_7 C95_7 1_555 1_555
C104_7 C96_7 1_555 1_555
C105_7 C97_7 1_555 1_555
C106_7 C98_7 1_555 1_555
O20_7 C99_7 1_555 1_555
C107_7 C99_7 1_555 1_555
O21_7 C101_7 1_555 1_555
C108_7 C101_7 1_555 1_555
O22_7 C103_7 1_555 1_555
C109_7 C103_7 1_555 1_555
O23_7 C105_7 1_555 1_555
C110_7 C105_7 1_555 1_555
C111_7 O21_7 1_555 1_555
C112_7 O22_7 1_555 1_555
C113_7 O23_7 1_555 1_555
O24_7 C111_7 1_555 1_555
C114_7 C111_7 1_555 1_555
O25_7 C112_7 1_555 1_555
C115_7 C112_7 1_555 1_555
C26_7 C41_7 1_555 1_555
C28_7 C42_7 1_555 1_555
C30_7 C43_7 1_555 1_555
C32_7 C44_7 1_555 1_555
C34_7 C45_7 1_555 1_555
C69_7 C83_7 1_555 1_555
C73_7 C85_7 1_555 1_555
C75_7 C86_7 1_555 1_555
C100_7 C107_7 1_555 1_555
C102_7 C108_7 1_555 1_555
C104_7 C109_7 1_555 1_555
C106_7 C110_7 1_555 1_555
C61_7 H1_7 1_555 1_555
C64_7 H2_7 1_555 1_555
C54_7 H3_7 1_555 1_555
C54_7 H4_7 1_555 1_555
C54_7 H5_7 1_555 1_555
C65_7 H6_7 1_555 1_555
C67_7 H7_7 1_555 1_555
C66_7 H11_7 1_555 1_555
C56_7 H12_7 1_555 1_555
C56_7 H13_7 1_555 1_555
C56_7 H14_7 1_555 1_555
C60_7 H15_7 1_555 1_555
C62_7 H19_7 1_555 1_555
C63_7 H20_7 1_555 1_555
C75_7 H24_7 1_555 1_555
C83_7 H25_7 1_555 1_555
C73_7 H26_7 1_555 1_555
C69_7 H27_7 1_555 1_555
O14_7 H28_7 1_555 1_555
C85_7 H32_7 1_555 1_555
C86_7 H33_7 1_555 1_555
C90_7 H34_7 1_555 1_555
C90_7 H35_7 1_555 1_555
C90_7 H36_7 1_555 1_555
C89_7 H37_7 1_555 1_555
C89_7 H38_7 1_555 1_555
C89_7 H39_7 1_555 1_555
C108_7 H40_7 1_555 1_555
C114_7 H41_7 1_555 1_555
C114_7 H42_7 1_555 1_555
C114_7 H43_7 1_555 1_555
C107_7 H45_7 1_555 1_555
C106_7 H46_7 1_555 1_555
O20_7 H47_7 1_555 1_555
C109_7 H48_7 1_555 1_555
C93_7 H49_7 1_555 1_555
C95_7 H50_7 1_555 1_555
C102_7 H51_7 1_555 1_555
C92_7 H52_7 1_555 1_555
C96_7 H53_7 1_555 1_555
C110_7 H54_7 1_555 1_555
C104_7 H55_7 1_555 1_555
C91_7 H56_7 1_555 1_555
C97_7 H57_7 1_555 1_555
C94_7 H58_7 1_555 1_555
C98_7 H59_7 1_555 1_555
C115_7 H60_7 1_555 1_555
C115_7 H61_7 1_555 1_555
C115_7 H62_7 1_555 1_555
C17_7 H66_7 1_555 1_555
C14_7 H67_7 1_555 1_555
C16_7 H69_7 1_555 1_555
C28_7 H70_7 1_555 1_555
C30_7 H71_7 1_555 1_555
C19_7 H72_7 1_555 1_555
C12_7 H74_7 1_555 1_555
C13_7 H75_7 1_555 1_555
C26_7 H77_7 1_555 1_555
C11_7 H79_7 1_555 1_555
C9_7 H81_7 1_555 1_555
C18_7 H82_7 1_555 1_555
C10_7 H84_7 1_555 1_555
C34_7 H85_7 1_555 1_555
C15_7 H86_7 1_555 1_555
O5_7 H87_7 1_555 1_555
O1_7 H88_7 1_555 1_555
C42_7 H90_7 1_555 1_555
C43_7 H91_7 1_555 1_555
C41_7 H94_7 1_555 1_555
C45_7 H95_7 1_555 1_555
O6_7 H98_7 1_555 1_555
Nb1_8 C1_8 1_555 1_555
C1_8 N1_8 1_555 1_555
C2_8 Nb1_8 1_555 1_555
C3_8 Nb1_8 1_555 1_555
C4_8 Nb1_8 1_555 1_555
C5_8 Nb1_8 1_555 1_555
C6_8 Nb1_8 1_555 1_555
C7_8 Nb1_8 1_555 1_555
C8_8 Nb1_8 1_555 1_555
N1_8 Fe1_8 1_555 1_555
N2_8 C2_8 1_555 1_555
N3_8 C3_8 1_555 1_555
N4_6 C4_8 1_555 1_555
N5_8 C5_8 1_555 1_555
N6_8 C6_8 1_555 1_555
N7_8 C7_8 1_555 1_555
N8_8 C8_8 1_555 1_555
Fe1_8 N9_8 1_555 1_555
Fe2_10 N2_8 1_555 1_555
Fe3_9 N3_8 1_555 1_555
N9_8 C9_8 1_555 1_555
N10_8 Fe1_8 1_555 1_555
N11_8 Fe1_8 1_555 1_555
N12_8 Fe1_8 1_555 1_555
N13_8 Fe2_10 1_555 1_555
N14_8 Fe2_10 1_555 1_555
N15_8 Fe3_9 1_555 1_555
N16_8 Fe3_9 1_555 1_555
C9_8 C25_8 1_555 1_555
C10_8 N9_8 1_555 1_555
C11_8 N10_8 1_555 1_555
C12_8 N10_8 1_555 1_555
C13_8 N11_8 1_555 1_555
C14_8 N11_8 1_555 1_555
C15_8 N12_8 1_555 1_555
C16_8 N12_8 1_555 1_555
C17_8 N13_8 1_555 1_555
C18_8 N13_8 1_555 1_555
C19_8 N14_8 1_555 1_555
C20_8 N14_8 1_555 1_555
C21_8 N15_8 1_555 1_555
C22_8 N15_8 1_555 1_555
C23_8 N16_8 1_555 1_555
C24_8 N16_8 1_555 1_555
C25_8 O1_8 1_555 1_555
C26_8 C10_8 1_555 1_555
C27_8 C11_8 1_555 1_555
C28_8 C12_8 1_555 1_555
C29_8 C13_8 1_555 1_555
C30_8 C14_8 1_555 1_555
C31_8 C15_8 1_555 1_555
C32_8 C16_8 1_555 1_555
C33_8 C17_8 1_555 1_555
C34_8 C18_8 1_555 1_555
C35_8 C19_8 1_555 1_555
C36_8 C20_8 1_555 1_555
C37_8 C21_8 1_555 1_555
C38_8 C22_8 1_555 1_555
C39_8 C23_8 1_555 1_555
C40_8 C24_8 1_555 1_555
C41_8 C25_8 1_555 1_555
O2_8 C27_8 1_555 1_555
C42_8 C27_8 1_555 1_555
O3_8 C29_8 1_555 1_555
C43_8 C29_8 1_555 1_555
O4_8 C31_8 1_555 1_555
C44_8 C31_8 1_555 1_555
O5_8 C33_8 1_555 1_555
C45_8 C33_8 1_555 1_555
O6_8 C35_8 1_555 1_555
C46_8 C35_8 1_555 1_555
O7_8 C37_8 1_555 1_555
C47_8 C37_8 1_555 1_555
O8_8 C39_8 1_555 1_555
C48_8 C39_8 1_555 1_555
C49_8 O2_8 1_555 1_555
C50_8 O3_8 1_555 1_555
C51_8 O4_8 1_555 1_555
C52_8 O7_8 1_555 1_555
C53_8 O8_8 1_555 1_555
O9_8 C49_8 1_555 1_555
C54_8 C49_8 1_555 1_555
O10_8 C50_8 1_555 1_555
C55_8 C50_8 1_555 1_555
O12_8 C52_8 1_555 1_555
C57_8 C52_8 1_555 1_555
O13_8 C53_8 1_555 1_555
C58_8 C53_8 1_555 1_555
Fe4_6 N4_6 1_555 1_555
N17_8 Fe1_8 1_555 1_555
N18_8 Fe2_10 1_555 1_555
N19_8 Fe2_10 1_555 1_555
N20_8 Fe2_10 1_555 1_555
N21_8 Fe3_9 1_555 1_555
N22_8 Fe3_9 1_555 1_555
N23_8 Fe3_9 1_555 1_555
C59_8 N17_8 1_555 1_555
C60_8 N18_8 1_555 1_555
C61_8 N18_8 1_555 1_555
C62_8 N19_8 1_555 1_555
C63_8 N19_8 1_555 1_555
C64_8 N21_8 1_555 1_555
C65_8 N21_8 1_555 1_555
C66_8 N22_8 1_555 1_555
C67_8 N22_8 1_555 1_555
C68_8 C60_8 1_555 1_555
C69_8 C61_8 1_555 1_555
C70_8 C62_8 1_555 1_555
C71_8 C63_8 1_555 1_555
C72_8 C64_8 1_555 1_555
C73_8 C65_8 1_555 1_555
C74_8 C66_8 1_555 1_555
C75_8 C67_8 1_555 1_555
O14_8 C68_8 1_555 1_555
C83_8 C68_8 1_555 1_555
O15_8 C70_8 1_555 1_555
C84_8 C70_8 1_555 1_555
O16_8 C72_8 1_555 1_555
C85_8 C72_8 1_555 1_555
O17_8 C74_8 1_555 1_555
C86_8 C74_8 1_555 1_555
N29_8 C81_8 1_555 1_555
C87_8 O16_8 1_555 1_555
C88_8 O17_8 1_555 1_555
O18_8 C87_8 1_555 1_555
C89_8 C87_8 1_555 1_555
O19_8 C88_8 1_555 1_555
C90_8 C88_8 1_555 1_555
C26_8 C41_8 1_555 1_555
C28_8 C42_8 1_555 1_555
C30_8 C43_8 1_555 1_555
C32_8 C44_8 1_555 1_555
C34_8 C45_8 1_555 1_555
C36_8 C46_8 1_555 1_555
C38_8 C47_8 1_555 1_555
C40_8 C48_8 1_555 1_555
C69_8 C83_8 1_555 1_555
C71_8 C84_8 1_555 1_555
C73_8 C85_8 1_555 1_555
C75_8 C86_8 1_555 1_555
C61_8 H1_8 1_555 1_555
C64_8 H2_8 1_555 1_555
C54_8 H3_8 1_555 1_555
C54_8 H4_8 1_555 1_555
C54_8 H5_8 1_555 1_555
C65_8 H6_8 1_555 1_555
C67_8 H7_8 1_555 1_555
C57_8 H8_8 1_555 1_555
C57_8 H9_8 1_555 1_555
C57_8 H10_8 1_555 1_555
C66_8 H11_8 1_555 1_555
C60_8 H15_8 1_555 1_555
C58_8 H16_8 1_555 1_555
C58_8 H17_8 1_555 1_555
C58_8 H18_8 1_555 1_555
C62_8 H19_8 1_555 1_555
C63_8 H20_8 1_555 1_555
C55_8 H21_8 1_555 1_555
C55_8 H22_8 1_555 1_555
C55_8 H23_8 1_555 1_555
C75_8 H24_8 1_555 1_555
C83_8 H25_8 1_555 1_555
C73_8 H26_8 1_555 1_555
C69_8 H27_8 1_555 1_555
O14_8 H28_8 1_555 1_555
C84_8 H29_8 1_555 1_555
C71_8 H30_8 1_555 1_555
O15_8 H31_8 1_555 1_555
C85_8 H32_8 1_555 1_555
C86_8 H33_8 1_555 1_555
C90_8 H34_8 1_555 1_555
C90_8 H35_8 1_555 1_555
C90_8 H36_8 1_555 1_555
C89_8 H37_8 1_555 1_555
C89_8 H38_8 1_555 1_555
C89_8 H39_8 1_555 1_555
C115_8 H61_8 1_555 1_555
C115_8 H62_8 1_555 1_555
C17_8 H66_8 1_555 1_555
C14_8 H67_8 1_555 1_555
C23_8 H68_8 1_555 1_555
C16_8 H69_8 1_555 1_555
C28_8 H70_8 1_555 1_555
C30_8 H71_8 1_555 1_555
C19_8 H72_8 1_555 1_555
C22_8 H73_8 1_555 1_555
C12_8 H74_8 1_555 1_555
C13_8 H75_8 1_555 1_555
C24_8 H76_8 1_555 1_555
C20_8 H78_8 1_555 1_555
C11_8 H79_8 1_555 1_555
C32_8 H80_8 1_555 1_555
C9_8 H81_8 1_555 1_555
C18_8 H82_8 1_555 1_555
C21_8 H83_8 1_555 1_555
C10_8 H84_8 1_555 1_555
C34_8 H85_8 1_555 1_555
C15_8 H86_8 1_555 1_555
O5_8 H87_8 1_555 1_555
O1_8 H88_8 1_555 1_555
C36_8 H89_8 1_555 1_555
C42_8 H90_8 1_555 1_555
C43_8 H91_8 1_555 1_555
C44_8 H92_8 1_555 1_555
C46_8 H93_8 1_555 1_555
C41_8 H94_8 1_555 1_555
C45_8 H95_8 1_555 1_555
C48_8 H96_8 1_555 1_555
C38_8 H97_8 1_555 1_555
O6_8 H98_8 1_555 1_555
C40_8 H99_8 1_555 1_555
C47_8 H100_8 1_555 1_555
C76_8 Nb2_8 1_555 1_555
C77_8 Nb2_8 1_555 1_555
C78_8 Nb2_8 1_555 1_555
C79_8 Nb2_8 1_555 1_555
C80_8 Nb2_8 1_555 1_555
C82_8 Nb2_8 1_555 1_555
N24_8 C76_8 1_555 1_555
N25_8 C77_8 1_555 1_555
N26_8 C78_8 1_555 1_555
N27_8 C79_8 1_555 1_555
N30_8 C82_8 1_555 1_555
Fe4_5 N24_8 1_555 1_555
Fe6_10 N25_8 1_555 1_555
Fe7_9 N26_8 1_555 1_555
N31_8 Fe4_5 1_555 1_555
N32_8 Fe4_5 1_555 1_555
N33_8 Fe4_5 1_555 1_555
N34_8 Fe4_5 1_555 1_555
C91_8 N31_8 1_555 1_555
C92_8 N31_8 1_555 1_555
C93_8 N32_8 1_555 1_555
C94_8 N32_8 1_555 1_555
C95_8 N33_8 1_555 1_555
C96_8 N33_8 1_555 1_555
C97_8 N34_8 1_555 1_555
C98_8 N34_8 1_555 1_555
C99_8 C91_8 1_555 1_555
C100_8 C92_8 1_555 1_555
C101_8 C93_8 1_555 1_555
C102_8 C94_8 1_555 1_555
C103_8 C95_8 1_555 1_555
C104_8 C96_8 1_555 1_555
C105_8 C97_8 1_555 1_555
C106_8 C98_8 1_555 1_555
O20_8 C99_8 1_555 1_555
C107_8 C99_8 1_555 1_555
O21_8 C101_8 1_555 1_555
C108_8 C101_8 1_555 1_555
O22_8 C103_8 1_555 1_555
C109_8 C103_8 1_555 1_555
O23_8 C105_8 1_555 1_555
C110_8 C105_8 1_555 1_555
C111_8 O21_8 1_555 1_555
C112_8 O22_8 1_555 1_555
C113_8 O23_8 1_555 1_555
O24_8 C111_8 1_555 1_555
C114_8 C111_8 1_555 1_555
O25_8 C112_8 1_555 1_555
C100_8 C107_8 1_555 1_555
C102_8 C108_8 1_555 1_555
C104_8 C109_8 1_555 1_555
C106_8 C110_8 1_555 1_555
C56_8 H12_8 1_555 1_555
C56_8 H13_8 1_555 1_555
C56_8 H14_8 1_555 1_555
C108_8 H40_8 1_555 1_555
C114_8 H41_8 1_555 1_555
C114_8 H42_8 1_555 1_555
C114_8 H43_8 1_555 1_555
C107_8 H45_8 1_555 1_555
O20_8 H47_8 1_555 1_555
C109_8 H48_8 1_555 1_555
C93_8 H49_8 1_555 1_555
C95_8 H50_8 1_555 1_555
C102_8 H51_8 1_555 1_555
C92_8 H52_8 1_555 1_555
C96_8 H53_8 1_555 1_555
C104_8 H55_8 1_555 1_555
C91_8 H56_8 1_555 1_555
C97_8 H57_8 1_555 1_555
C94_8 H58_8 1_555 1_555
C98_8 H59_8 1_555 1_555
C116_8 H63_8 1_555 1_555
C116_8 H64_8 1_555 1_555
C116_8 H65_8 1_555 1_555
C76_9 Nb2_9 1_555 1_555
C77_9 Nb2_9 1_555 1_555
C78_9 Nb2_9 1_555 1_555
C79_9 Nb2_9 1_555 1_555
C80_9 Nb2_9 1_555 1_555
C82_9 Nb2_9 1_555 1_555
N24_9 C76_9 1_555 1_555
N25_9 C77_9 1_555 1_555
N26_9 C78_9 1_555 1_555
N27_9 C79_9 1_555 1_555
N30_9 C82_9 1_555 1_555
Fe4_6 N24_9 1_555 1_555
Fe6_11 N25_9 1_555 1_555
Fe7_10 N26_9 1_555 1_555
N31_9 Fe4_6 1_555 1_555
N32_9 Fe4_6 1_555 1_555
N33_9 Fe4_6 1_555 1_555
N34_9 Fe4_6 1_555 1_555
C91_9 N31_9 1_555 1_555
C92_9 N31_9 1_555 1_555
C93_9 N32_9 1_555 1_555
C94_9 N32_9 1_555 1_555
C95_9 N33_9 1_555 1_555
C96_9 N33_9 1_555 1_555
C97_9 N34_9 1_555 1_555
C98_9 N34_9 1_555 1_555
C99_9 C91_9 1_555 1_555
C100_9 C92_9 1_555 1_555
C101_9 C93_9 1_555 1_555
C102_9 C94_9 1_555 1_555
C103_9 C95_9 1_555 1_555
C104_9 C96_9 1_555 1_555
C105_9 C97_9 1_555 1_555
C106_9 C98_9 1_555 1_555
O20_9 C99_9 1_555 1_555
C107_9 C99_9 1_555 1_555
O21_9 C101_9 1_555 1_555
C108_9 C101_9 1_555 1_555
O22_9 C103_9 1_555 1_555
C109_9 C103_9 1_555 1_555
O23_9 C105_9 1_555 1_555
C110_9 C105_9 1_555 1_555
C111_9 O21_9 1_555 1_555
C112_9 O22_9 1_555 1_555
C113_9 O23_9 1_555 1_555
O24_9 C111_9 1_555 1_555
C114_9 C111_9 1_555 1_555
O25_9 C112_9 1_555 1_555
O26_9 C113_9 1_555 1_555
C116_9 C113_9 1_555 1_555
C100_9 C107_9 1_555 1_555
C102_9 C108_9 1_555 1_555
C104_9 C109_9 1_555 1_555
C106_9 C110_9 1_555 1_555
C56_9 H12_9 1_555 1_555
C56_9 H13_9 1_555 1_555
C56_9 H14_9 1_555 1_555
C108_9 H40_9 1_555 1_555
C114_9 H41_9 1_555 1_555
C114_9 H42_9 1_555 1_555
C114_9 H43_9 1_555 1_555
C100_9 H44_9 1_555 1_555
C107_9 H45_9 1_555 1_555
O20_9 H47_9 1_555 1_555
C109_9 H48_9 1_555 1_555
C93_9 H49_9 1_555 1_555
C95_9 H50_9 1_555 1_555
C102_9 H51_9 1_555 1_555
C92_9 H52_9 1_555 1_555
C96_9 H53_9 1_555 1_555
C104_9 H55_9 1_555 1_555
C91_9 H56_9 1_555 1_555
C97_9 H57_9 1_555 1_555
C94_9 H58_9 1_555 1_555
C98_9 H59_9 1_555 1_555
C116_9 H63_9 1_555 1_555
C116_9 H64_9 1_555 1_555
C116_9 H65_9 1_555 1_555
Nb1_9 C1_9 1_555 1_555
C1_9 N1_9 1_555 1_555
C2_9 Nb1_9 1_555 1_555
C3_9 Nb1_9 1_555 1_555
C5_9 Nb1_9 1_555 1_555
C6_9 Nb1_9 1_555 1_555
C8_9 Nb1_9 1_555 1_555
N1_9 Fe1_9 1_555 1_555
N2_9 C2_9 1_555 1_555
N3_9 C3_9 1_555 1_555
N5_9 C5_9 1_555 1_555
N8_9 C8_9 1_555 1_555
Fe1_9 N9_9 1_555 1_555
Fe2_11 N2_9 1_555 1_555
Fe3_10 N3_9 1_555 1_555
N9_9 C9_9 1_555 1_555
N10_9 Fe1_9 1_555 1_555
N11_9 Fe1_9 1_555 1_555
N12_9 Fe1_9 1_555 1_555
N13_9 Fe2_11 1_555 1_555
N14_9 Fe2_11 1_555 1_555
C9_9 C25_9 1_555 1_555
C10_9 N9_9 1_555 1_555
C11_9 N10_9 1_555 1_555
C12_9 N10_9 1_555 1_555
C13_9 N11_9 1_555 1_555
C14_9 N11_9 1_555 1_555
C15_9 N12_9 1_555 1_555
C16_9 N12_9 1_555 1_555
C17_9 N13_9 1_555 1_555
C18_9 N13_9 1_555 1_555
C19_9 N14_9 1_555 1_555
C20_9 N14_9 1_555 1_555
C25_9 O1_9 1_555 1_555
C26_9 C10_9 1_555 1_555
C27_9 C11_9 1_555 1_555
C28_9 C12_9 1_555 1_555
C29_9 C13_9 1_555 1_555
C30_9 C14_9 1_555 1_555
C31_9 C15_9 1_555 1_555
C32_9 C16_9 1_555 1_555
C33_9 C17_9 1_555 1_555
C34_9 C18_9 1_555 1_555
C35_9 C19_9 1_555 1_555
C41_9 C25_9 1_555 1_555
O2_9 C27_9 1_555 1_555
C42_9 C27_9 1_555 1_555
O3_9 C29_9 1_555 1_555
C43_9 C29_9 1_555 1_555
O4_9 C31_9 1_555 1_555
C44_9 C31_9 1_555 1_555
O5_9 C33_9 1_555 1_555
C45_9 C33_9 1_555 1_555
O6_9 C35_9 1_555 1_555
C49_9 O2_9 1_555 1_555
C50_9 O3_9 1_555 1_555
C51_9 O4_9 1_555 1_555
O9_9 C49_9 1_555 1_555
C54_9 C49_9 1_555 1_555
O10_9 C50_9 1_555 1_555
N17_9 Fe1_9 1_555 1_555
N18_9 Fe2_11 1_555 1_555
N19_9 Fe2_11 1_555 1_555
N20_9 Fe2_11 1_555 1_555
N21_9 Fe3_10 1_555 1_555
N22_9 Fe3_10 1_555 1_555
C59_9 N17_9 1_555 1_555
C60_9 N18_9 1_555 1_555
C61_9 N18_9 1_555 1_555
C62_9 N19_9 1_555 1_555
C63_9 N19_9 1_555 1_555
C64_9 N21_9 1_555 1_555
C65_9 N21_9 1_555 1_555
C66_9 N22_9 1_555 1_555
C67_9 N22_9 1_555 1_555
C68_9 C60_9 1_555 1_555
C69_9 C61_9 1_555 1_555
C71_9 C63_9 1_555 1_555
C72_9 C64_9 1_555 1_555
C73_9 C65_9 1_555 1_555
C74_9 C66_9 1_555 1_555
C75_9 C67_9 1_555 1_555
O14_9 C68_9 1_555 1_555
C83_9 C68_9 1_555 1_555
O16_9 C72_9 1_555 1_555
C85_9 C72_9 1_555 1_555
O17_9 C74_9 1_555 1_555
C86_9 C74_9 1_555 1_555
N29_9 C81_9 1_555 1_555
C87_9 O16_9 1_555 1_555
C88_9 O17_9 1_555 1_555
O18_9 C87_9 1_555 1_555
C89_9 C87_9 1_555 1_555
O19_9 C88_9 1_555 1_555
C90_9 C88_9 1_555 1_555
C26_9 C41_9 1_555 1_555
C28_9 C42_9 1_555 1_555
C30_9 C43_9 1_555 1_555
C32_9 C44_9 1_555 1_555
C34_9 C45_9 1_555 1_555
C69_9 C83_9 1_555 1_555
C73_9 C85_9 1_555 1_555
C75_9 C86_9 1_555 1_555
C61_9 H1_9 1_555 1_555
C64_9 H2_9 1_555 1_555
C54_9 H3_9 1_555 1_555
C54_9 H4_9 1_555 1_555
C54_9 H5_9 1_555 1_555
C65_9 H6_9 1_555 1_555
C67_9 H7_9 1_555 1_555
C66_9 H11_9 1_555 1_555
C60_9 H15_9 1_555 1_555
C62_9 H19_9 1_555 1_555
C63_9 H20_9 1_555 1_555
C75_9 H24_9 1_555 1_555
C83_9 H25_9 1_555 1_555
C73_9 H26_9 1_555 1_555
C69_9 H27_9 1_555 1_555
O14_9 H28_9 1_555 1_555
C85_9 H32_9 1_555 1_555
C86_9 H33_9 1_555 1_555
C90_9 H34_9 1_555 1_555
C90_9 H35_9 1_555 1_555
C90_9 H36_9 1_555 1_555
C89_9 H37_9 1_555 1_555
C89_9 H38_9 1_555 1_555
C89_9 H39_9 1_555 1_555
C115_9 H61_9 1_555 1_555
C115_9 H62_9 1_555 1_555
C17_9 H66_9 1_555 1_555
C14_9 H67_9 1_555 1_555
C16_9 H69_9 1_555 1_555
C28_9 H70_9 1_555 1_555
C30_9 H71_9 1_555 1_555
C19_9 H72_9 1_555 1_555
C12_9 H74_9 1_555 1_555
C13_9 H75_9 1_555 1_555
C11_9 H79_9 1_555 1_555
C9_9 H81_9 1_555 1_555
C18_9 H82_9 1_555 1_555
C10_9 H84_9 1_555 1_555
C34_9 H85_9 1_555 1_555
C15_9 H86_9 1_555 1_555
O5_9 H87_9 1_555 1_555
O1_9 H88_9 1_555 1_555
C42_9 H90_9 1_555 1_555
C43_9 H91_9 1_555 1_555
C41_9 H94_9 1_555 1_555
C45_9 H95_9 1_555 1_555
O6_9 H98_9 1_555 1_555
N35_3 C4_9 1_555 1_555
N7_9 C7_9 1_555 1_555
N15_9 Fe3_11 1_555 1_555
N16_9 Fe3_11 1_555 1_555
C21_9 N15_9 1_555 1_555
C22_9 N15_9 1_555 1_555
C23_9 N16_9 1_555 1_555
C24_9 N16_9 1_555 1_555
C37_9 C21_9 1_555 1_555
C38_9 C22_9 1_555 1_555
C39_9 C23_9 1_555 1_555
C40_9 C24_9 1_555 1_555
O7_9 C37_9 1_555 1_555
C47_9 C37_9 1_555 1_555
O8_9 C39_9 1_555 1_555
C48_9 C39_9 1_555 1_555
C52_9 O7_9 1_555 1_555
C53_9 O8_9 1_555 1_555
O12_9 C52_9 1_555 1_555
C57_9 C52_9 1_555 1_555
O13_9 C53_9 1_555 1_555
C58_9 C53_9 1_555 1_555
N23_9 Fe3_11 1_555 1_555
O15_9 C70_9 1_555 1_555
C84_9 C70_9 1_555 1_555
C36_9 C46_9 1_555 1_555
C38_9 C47_9 1_555 1_555
C40_9 C48_9 1_555 1_555
C57_9 H8_9 1_555 1_555
C57_9 H9_9 1_555 1_555
C57_9 H10_9 1_555 1_555
C58_9 H16_9 1_555 1_555
C58_9 H17_9 1_555 1_555
C58_9 H18_9 1_555 1_555
C55_9 H21_9 1_555 1_555
C55_9 H22_9 1_555 1_555
C84_9 H29_9 1_555 1_555
C23_9 H68_9 1_555 1_555
C22_9 H73_9 1_555 1_555
C24_9 H76_9 1_555 1_555
C21_9 H83_9 1_555 1_555
C36_9 H89_9 1_555 1_555
C46_9 H93_9 1_555 1_555
C48_9 H96_9 1_555 1_555
C38_9 H97_9 1_555 1_555
C40_9 H99_9 1_555 1_555
C47_9 H100_9 1_555 1_555
Nb1_10 C1_10 1_555 1_555
C1_10 N1_10 1_555 1_555
C2_10 Nb1_10 1_555 1_555
C3_10 Nb1_10 1_555 1_555
C4_10 Nb1_10 1_555 1_555
C5_10 Nb1_10 1_555 1_555
C6_10 Nb1_10 1_555 1_555
C7_10 Nb1_10 1_555 1_555
C8_10 Nb1_10 1_555 1_555
N1_10 Fe1_10 1_555 1_555
N20_8 C2_10 1_555 1_555
N23_6 C3_10 1_555 1_555
N4_7 C4_10 1_555 1_555
N5_10 C5_10 1_555 1_555
N6_10 C6_10 1_555 1_555
N7_10 C7_10 1_555 1_555
N8_10 C8_10 1_555 1_555
Fe1_10 N9_10 1_555 1_555
N9_10 C9_10 1_555 1_555
N10_10 Fe1_10 1_555 1_555
N11_10 Fe1_10 1_555 1_555
N12_10 Fe1_10 1_555 1_555
C9_10 C25_10 1_555 1_555
C10_10 N9_10 1_555 1_555
C11_10 N10_10 1_555 1_555
C12_10 N10_10 1_555 1_555
C13_10 N11_10 1_555 1_555
C14_10 N11_10 1_555 1_555
C15_10 N12_10 1_555 1_555
C16_10 N12_10 1_555 1_555
C25_10 O1_10 1_555 1_555
C26_10 C10_10 1_555 1_555
C27_10 C11_10 1_555 1_555
C28_10 C12_10 1_555 1_555
C29_10 C13_10 1_555 1_555
C30_10 C14_10 1_555 1_555
C31_10 C15_10 1_555 1_555
C32_10 C16_10 1_555 1_555
C41_10 C25_10 1_555 1_555
O2_10 C27_10 1_555 1_555
C42_10 C27_10 1_555 1_555
O3_10 C29_10 1_555 1_555
C43_10 C29_10 1_555 1_555
O4_10 C31_10 1_555 1_555
C44_10 C31_10 1_555 1_555
C49_10 O2_10 1_555 1_555
C50_10 O3_10 1_555 1_555
C51_10 O4_10 1_555 1_555
O9_10 C49_10 1_555 1_555
C54_10 C49_10 1_555 1_555
O10_10 C50_10 1_555 1_555
C55_10 C50_10 1_555 1_555
O11_10 C51_10 1_555 1_555
C56_10 C51_10 1_555 1_555
Fe4_7 N4_7 1_555 1_555
N17_10 Fe1_10 1_555 1_555
C59_10 N17_10 1_555 1_555
Nb2_10 C59_10 1_555 1_555
C76_10 Nb2_10 1_555 1_555
C77_10 Nb2_10 1_555 1_555
C78_10 Nb2_10 1_555 1_555
C79_10 Nb2_10 1_555 1_555
C80_10 Nb2_10 1_555 1_555
C81_10 Nb2_10 1_555 1_555
C82_10 Nb2_10 1_555 1_555
N24_10 C76_10 1_555 1_555
N25_10 C77_10 1_555 1_555
N26_10 C78_10 1_555 1_555
N27_10 C79_10 1_555 1_555
N28_10 C80_10 1_555 1_555
N29_10 C81_10 1_555 1_555
N30_10 C82_10 1_555 1_555
Fe5_4 N24_10 1_555 1_555
Fe6_4 N25_10 1_555 1_555
Fe7_4 N26_10 1_555 1_555
N31_10 Fe5_4 1_555 1_555
N32_10 Fe5_4 1_555 1_555
N33_10 Fe5_4 1_555 1_555
N34_10 Fe5_4 1_555 1_555
N35_4 Fe5_4 1_555 1_555
C91_10 N31_10 1_555 1_555
C92_10 N31_10 1_555 1_555
C93_10 N32_10 1_555 1_555
C94_10 N32_10 1_555 1_555
C95_10 N33_10 1_555 1_555
C96_10 N33_10 1_555 1_555
C97_10 N34_10 1_555 1_555
C98_10 N34_10 1_555 1_555
C99_10 C91_10 1_555 1_555
C100_10 C92_10 1_555 1_555
C101_10 C93_10 1_555 1_555
C102_10 C94_10 1_555 1_555
C103_10 C95_10 1_555 1_555
C104_10 C96_10 1_555 1_555
C105_10 C97_10 1_555 1_555
C106_10 C98_10 1_555 1_555
O20_10 C99_10 1_555 1_555
C107_10 C99_10 1_555 1_555
O21_10 C101_10 1_555 1_555
C108_10 C101_10 1_555 1_555
O22_10 C103_10 1_555 1_555
C109_10 C103_10 1_555 1_555
O23_10 C105_10 1_555 1_555
C110_10 C105_10 1_555 1_555
C111_10 O21_10 1_555 1_555
C112_10 O22_10 1_555 1_555
C113_10 O23_10 1_555 1_555
C114_10 C111_10 1_555 1_555
O25_10 C112_10 1_555 1_555
C115_10 C112_10 1_555 1_555
O26_10 C113_10 1_555 1_555
C116_10 C113_10 1_555 1_555
C26_10 C41_10 1_555 1_555
C28_10 C42_10 1_555 1_555
C30_10 C43_10 1_555 1_555
C32_10 C44_10 1_555 1_555
C100_10 C107_10 1_555 1_555
C102_10 C108_10 1_555 1_555
C104_10 C109_10 1_555 1_555
C106_10 C110_10 1_555 1_555
C54_10 H3_10 1_555 1_555
C54_10 H4_10 1_555 1_555
C54_10 H5_10 1_555 1_555
C56_10 H12_10 1_555 1_555
C56_10 H13_10 1_555 1_555
C56_10 H14_10 1_555 1_555
C55_10 H21_10 1_555 1_555
C55_10 H22_10 1_555 1_555
C55_10 H23_10 1_555 1_555
C108_10 H40_10 1_555 1_555
C114_10 H41_10 1_555 1_555
C114_10 H43_10 1_555 1_555
C100_10 H44_10 1_555 1_555
C107_10 H45_10 1_555 1_555
C106_10 H46_10 1_555 1_555
O20_10 H47_10 1_555 1_555
C109_10 H48_10 1_555 1_555
C93_10 H49_10 1_555 1_555
C95_10 H50_10 1_555 1_555
C102_10 H51_10 1_555 1_555
C92_10 H52_10 1_555 1_555
C96_10 H53_10 1_555 1_555
C110_10 H54_10 1_555 1_555
C104_10 H55_10 1_555 1_555
C91_10 H56_10 1_555 1_555
C97_10 H57_10 1_555 1_555
C94_10 H58_10 1_555 1_555
C98_10 H59_10 1_555 1_555
C115_10 H60_10 1_555 1_555
C115_10 H61_10 1_555 1_555
C115_10 H62_10 1_555 1_555
C116_10 H63_10 1_555 1_555
C116_10 H64_10 1_555 1_555
C116_10 H65_10 1_555 1_555
C14_10 H67_10 1_555 1_555
C16_10 H69_10 1_555 1_555
C28_10 H70_10 1_555 1_555
C30_10 H71_10 1_555 1_555
C12_10 H74_10 1_555 1_555
C13_10 H75_10 1_555 1_555
C26_10 H77_10 1_555 1_555
C11_10 H79_10 1_555 1_555
C32_10 H80_10 1_555 1_555
C9_10 H81_10 1_555 1_555
C10_10 H84_10 1_555 1_555
C15_10 H86_10 1_555 1_555
O1_10 H88_10 1_555 1_555
C42_10 H90_10 1_555 1_555
C43_10 H91_10 1_555 1_555
C44_10 H92_10 1_555 1_555
C41_10 H94_10 1_555 1_555
Nb1_11 C1_11 1_555 1_555
C1_11 N1_11 1_555 1_555
C2_11 Nb1_11 1_555 1_555
C3_11 Nb1_11 1_555 1_555
C4_11 Nb1_11 1_555 1_555
C5_11 Nb1_11 1_555 1_555
C6_11 Nb1_11 1_555 1_555
C7_11 Nb1_11 1_555 1_555
C8_11 Nb1_11 1_555 1_555
N1_11 Fe1_11 1_555 1_555
N20_9 C2_11 1_555 1_555
N23_4 C3_11 1_555 1_555
N35_4 C4_11 1_555 1_555
N5_11 C5_11 1_555 1_555
N6_11 C6_11 1_555 1_555
N7_11 C7_11 1_555 1_555
N8_11 C8_11 1_555 1_555
Fe1_11 N9_11 1_555 1_555
N9_11 C9_11 1_555 1_555
N10_11 Fe1_11 1_555 1_555
N11_11 Fe1_11 1_555 1_555
N12_11 Fe1_11 1_555 1_555
C9_11 C25_11 1_555 1_555
C10_11 N9_11 1_555 1_555
C11_11 N10_11 1_555 1_555
C12_11 N10_11 1_555 1_555
C13_11 N11_11 1_555 1_555
C14_11 N11_11 1_555 1_555
C15_11 N12_11 1_555 1_555
C16_11 N12_11 1_555 1_555
C25_11 O1_11 1_555 1_555
C26_11 C10_11 1_555 1_555
C27_11 C11_11 1_555 1_555
C28_11 C12_11 1_555 1_555
C29_11 C13_11 1_555 1_555
C30_11 C14_11 1_555 1_555
C31_11 C15_11 1_555 1_555
C32_11 C16_11 1_555 1_555
C41_11 C25_11 1_555 1_555
O2_11 C27_11 1_555 1_555
C42_11 C27_11 1_555 1_555
O3_11 C29_11 1_555 1_555
C43_11 C29_11 1_555 1_555
O4_11 C31_11 1_555 1_555
C44_11 C31_11 1_555 1_555
C49_11 O2_11 1_555 1_555
C50_11 O3_11 1_555 1_555
C51_11 O4_11 1_555 1_555
O9_11 C49_11 1_555 1_555
C54_11 C49_11 1_555 1_555
O10_11 C50_11 1_555 1_555
C55_11 C50_11 1_555 1_555
O11_11 C51_11 1_555 1_555
C56_11 C51_11 1_555 1_555
N17_11 Fe1_11 1_555 1_555
C59_11 N17_11 1_555 1_555
Nb2_11 C59_11 1_555 1_555
C76_11 Nb2_11 1_555 1_555
C77_11 Nb2_11 1_555 1_555
C78_11 Nb2_11 1_555 1_555
C79_11 Nb2_11 1_555 1_555
C80_11 Nb2_11 1_555 1_555
C81_11 Nb2_11 1_555 1_555
C82_11 Nb2_11 1_555 1_555
N24_11 C76_11 1_555 1_555
N25_11 C77_11 1_555 1_555
N26_11 C78_11 1_555 1_555
N27_11 C79_11 1_555 1_555
N28_11 C80_11 1_555 1_555
N29_11 C81_11 1_555 1_555
N30_11 C82_11 1_555 1_555
Fe5_5 N24_11 1_555 1_555
Fe6_2 N25_11 1_555 1_555
Fe7_5 N26_11 1_555 1_555
N31_11 Fe5_5 1_555 1_555
N32_11 Fe5_5 1_555 1_555
N33_11 Fe5_5 1_555 1_555
N34_11 Fe5_5 1_555 1_555
N35_5 Fe5_5 1_555 1_555
C91_11 N31_11 1_555 1_555
C92_11 N31_11 1_555 1_555
C93_11 N32_11 1_555 1_555
C94_11 N32_11 1_555 1_555
C95_11 N33_11 1_555 1_555
C96_11 N33_11 1_555 1_555
C97_11 N34_11 1_555 1_555
C98_11 N34_11 1_555 1_555
C99_11 C91_11 1_555 1_555
C100_11 C92_11 1_555 1_555
C101_11 C93_11 1_555 1_555
C102_11 C94_11 1_555 1_555
C103_11 C95_11 1_555 1_555
C104_11 C96_11 1_555 1_555
C105_11 C97_11 1_555 1_555
C106_11 C98_11 1_555 1_555
O20_11 C99_11 1_555 1_555
C107_11 C99_11 1_555 1_555
O21_11 C101_11 1_555 1_555
C108_11 C101_11 1_555 1_555
O22_11 C103_11 1_555 1_555
C109_11 C103_11 1_555 1_555
O23_11 C105_11 1_555 1_555
C110_11 C105_11 1_555 1_555
C111_11 O21_11 1_555 1_555
C112_11 O22_11 1_555 1_555
C113_11 O23_11 1_555 1_555
C114_11 C111_11 1_555 1_555
O25_11 C112_11 1_555 1_555
C115_11 C112_11 1_555 1_555
O26_11 C113_11 1_555 1_555
C116_11 C113_11 1_555 1_555
C26_11 C41_11 1_555 1_555
C28_11 C42_11 1_555 1_555
C30_11 C43_11 1_555 1_555
C32_11 C44_11 1_555 1_555
C100_11 C107_11 1_555 1_555
C102_11 C108_11 1_555 1_555
C104_11 C109_11 1_555 1_555
C106_11 C110_11 1_555 1_555
C54_11 H3_11 1_555 1_555
C54_11 H4_11 1_555 1_555
C54_11 H5_11 1_555 1_555
C56_11 H12_11 1_555 1_555
C56_11 H13_11 1_555 1_555
C56_11 H14_11 1_555 1_555
C55_11 H21_11 1_555 1_555
C55_11 H22_11 1_555 1_555
C55_11 H23_11 1_555 1_555
C108_11 H40_11 1_555 1_555
C114_11 H41_11 1_555 1_555
C114_11 H43_11 1_555 1_555
C100_11 H44_11 1_555 1_555
C107_11 H45_11 1_555 1_555
C106_11 H46_11 1_555 1_555
O20_11 H47_11 1_555 1_555
C109_11 H48_11 1_555 1_555
C93_11 H49_11 1_555 1_555
C95_11 H50_11 1_555 1_555
C102_11 H51_11 1_555 1_555
C92_11 H52_11 1_555 1_555
C96_11 H53_11 1_555 1_555
C110_11 H54_11 1_555 1_555
C104_11 H55_11 1_555 1_555
C91_11 H56_11 1_555 1_555
C97_11 H57_11 1_555 1_555
C94_11 H58_11 1_555 1_555
C98_11 H59_11 1_555 1_555
C115_11 H60_11 1_555 1_555
C115_11 H61_11 1_555 1_555
C115_11 H62_11 1_555 1_555
C116_11 H63_11 1_555 1_555
C116_11 H64_11 1_555 1_555
C116_11 H65_11 1_555 1_555
C14_11 H67_11 1_555 1_555
C16_11 H69_11 1_555 1_555
C28_11 H70_11 1_555 1_555
C30_11 H71_11 1_555 1_555
C12_11 H74_11 1_555 1_555
C13_11 H75_11 1_555 1_555
C26_11 H77_11 1_555 1_555
C11_11 H79_11 1_555 1_555
C32_11 H80_11 1_555 1_555
C9_11 H81_11 1_555 1_555
C10_11 H84_11 1_555 1_555
C15_11 H86_11 1_555 1_555
O1_11 H88_11 1_555 1_555
C42_11 H90_11 1_555 1_555
C43_11 H91_11 1_555 1_555
C44_11 H92_11 1_555 1_555
C41_11 H94_11 1_555 1_555
Nb1_12 C1_12 1_555 1_555
C1_12 N1_12 1_555 1_555
C2_12 Nb1_12 1_555 1_555
C3_12 Nb1_12 1_555 1_555
C4_12 Nb1_12 1_555 1_555
C5_12 Nb1_12 1_555 1_555
C6_12 Nb1_12 1_555 1_555
C7_12 Nb1_12 1_555 1_555
C8_12 Nb1_12 1_555 1_555
N1_12 Fe1_12 1_555 1_555
N20_7 C2_12 1_555 1_555
N23_5 C3_12 1_555 1_555
N35_5 C4_12 1_555 1_555
N5_12 C5_12 1_555 1_555
N6_12 C6_12 1_555 1_555
N7_12 C7_12 1_555 1_555
N8_12 C8_12 1_555 1_555
Fe1_12 N9_12 1_555 1_555
N9_12 C9_12 1_555 1_555
N10_12 Fe1_12 1_555 1_555
N11_12 Fe1_12 1_555 1_555
N12_12 Fe1_12 1_555 1_555
C9_12 C25_12 1_555 1_555
C10_12 N9_12 1_555 1_555
C11_12 N10_12 1_555 1_555
C12_12 N10_12 1_555 1_555
C13_12 N11_12 1_555 1_555
C14_12 N11_12 1_555 1_555
C15_12 N12_12 1_555 1_555
C16_12 N12_12 1_555 1_555
C25_12 O1_12 1_555 1_555
C26_12 C10_12 1_555 1_555
C27_12 C11_12 1_555 1_555
C28_12 C12_12 1_555 1_555
C29_12 C13_12 1_555 1_555
C30_12 C14_12 1_555 1_555
C31_12 C15_12 1_555 1_555
C32_12 C16_12 1_555 1_555
C41_12 C25_12 1_555 1_555
O2_12 C27_12 1_555 1_555
C42_12 C27_12 1_555 1_555
O3_12 C29_12 1_555 1_555
C43_12 C29_12 1_555 1_555
O4_12 C31_12 1_555 1_555
C44_12 C31_12 1_555 1_555
C49_12 O2_12 1_555 1_555
C50_12 O3_12 1_555 1_555
C51_12 O4_12 1_555 1_555
O9_12 C49_12 1_555 1_555
C54_12 C49_12 1_555 1_555
O10_12 C50_12 1_555 1_555
C55_12 C50_12 1_555 1_555
O11_12 C51_12 1_555 1_555
C56_12 C51_12 1_555 1_555
N17_12 Fe1_12 1_555 1_555
C59_12 N17_12 1_555 1_555
Nb2_12 C59_12 1_555 1_555
C76_12 Nb2_12 1_555 1_555
C77_12 Nb2_12 1_555 1_555
C78_12 Nb2_12 1_555 1_555
C79_12 Nb2_12 1_555 1_555
C80_12 Nb2_12 1_555 1_555
C81_12 Nb2_12 1_555 1_555
C82_12 Nb2_12 1_555 1_555
N24_12 C76_12 1_555 1_555
N25_12 C77_12 1_555 1_555
N26_12 C78_12 1_555 1_555
N27_12 C79_12 1_555 1_555
N28_12 C80_12 1_555 1_555
N29_12 C81_12 1_555 1_555
N30_12 C82_12 1_555 1_555
Fe4_7 N24_12 1_555 1_555
Fe6_3 N25_12 1_555 1_555
Fe7_6 N26_12 1_555 1_555
N31_12 Fe4_7 1_555 1_555
N32_12 Fe4_7 1_555 1_555
N33_12 Fe4_7 1_555 1_555
N34_12 Fe4_7 1_555 1_555
C91_12 N31_12 1_555 1_555
C92_12 N31_12 1_555 1_555
C93_12 N32_12 1_555 1_555
C94_12 N32_12 1_555 1_555
C95_12 N33_12 1_555 1_555
C96_12 N33_12 1_555 1_555
C97_12 N34_12 1_555 1_555
C98_12 N34_12 1_555 1_555
C99_12 C91_12 1_555 1_555
C100_12 C92_12 1_555 1_555
C101_12 C93_12 1_555 1_555
C102_12 C94_12 1_555 1_555
C103_12 C95_12 1_555 1_555
C104_12 C96_12 1_555 1_555
C105_12 C97_12 1_555 1_555
C106_12 C98_12 1_555 1_555
O20_12 C99_12 1_555 1_555
C107_12 C99_12 1_555 1_555
O21_12 C101_12 1_555 1_555
C108_12 C101_12 1_555 1_555
O22_12 C103_12 1_555 1_555
C109_12 C103_12 1_555 1_555
O23_12 C105_12 1_555 1_555
C110_12 C105_12 1_555 1_555
C111_12 O21_12 1_555 1_555
C112_12 O22_12 1_555 1_555
C113_12 O23_12 1_555 1_555
O24_12 C111_12 1_555 1_555
C114_12 C111_12 1_555 1_555
O25_12 C112_12 1_555 1_555
C115_12 C112_12 1_555 1_555
O26_12 C113_12 1_555 1_555
C116_12 C113_12 1_555 1_555
C26_12 C41_12 1_555 1_555
C28_12 C42_12 1_555 1_555
C30_12 C43_12 1_555 1_555
C32_12 C44_12 1_555 1_555
C100_12 C107_12 1_555 1_555
C102_12 C108_12 1_555 1_555
C104_12 C109_12 1_555 1_555
C106_12 C110_12 1_555 1_555
C54_12 H3_12 1_555 1_555
C54_12 H4_12 1_555 1_555
C54_12 H5_12 1_555 1_555
C56_12 H12_12 1_555 1_555
C56_12 H13_12 1_555 1_555
C56_12 H14_12 1_555 1_555
C55_12 H21_12 1_555 1_555
C55_12 H22_12 1_555 1_555
C55_12 H23_12 1_555 1_555
C108_12 H40_12 1_555 1_555
C114_12 H41_12 1_555 1_555
C114_12 H42_12 1_555 1_555
C114_12 H43_12 1_555 1_555
C100_12 H44_12 1_555 1_555
C107_12 H45_12 1_555 1_555
C106_12 H46_12 1_555 1_555
O20_12 H47_12 1_555 1_555
C109_12 H48_12 1_555 1_555
C93_12 H49_12 1_555 1_555
C95_12 H50_12 1_555 1_555
C102_12 H51_12 1_555 1_555
C92_12 H52_12 1_555 1_555
C96_12 H53_12 1_555 1_555
C110_12 H54_12 1_555 1_555
C104_12 H55_12 1_555 1_555
C91_12 H56_12 1_555 1_555
C97_12 H57_12 1_555 1_555
C94_12 H58_12 1_555 1_555
C98_12 H59_12 1_555 1_555
C115_12 H60_12 1_555 1_555
C115_12 H61_12 1_555 1_555
C115_12 H62_12 1_555 1_555
C116_12 H63_12 1_555 1_555
C116_12 H64_12 1_555 1_555
C116_12 H65_12 1_555 1_555
C14_12 H67_12 1_555 1_555
C16_12 H69_12 1_555 1_555
C28_12 H70_12 1_555 1_555
C30_12 H71_12 1_555 1_555
C12_12 H74_12 1_555 1_555
C13_12 H75_12 1_555 1_555
C26_12 H77_12 1_555 1_555
C11_12 H79_12 1_555 1_555
C32_12 H80_12 1_555 1_555
C9_12 H81_12 1_555 1_555
C10_12 H84_12 1_555 1_555
C15_12 H86_12 1_555 1_555
O1_12 H88_12 1_555 1_555
C42_12 H90_12 1_555 1_555
C43_12 H91_12 1_555 1_555
C44_12 H92_12 1_555 1_555
C41_12 H94_12 1_555 1_555
Nb1_13 C1_13 1_555 1_555
C1_13 N1_13 1_555 1_555
C2_13 Nb1_13 1_555 1_555
C3_13 Nb1_13 1_555 1_555
C4_13 Nb1_13 1_555 1_555
C5_13 Nb1_13 1_555 1_555
C6_13 Nb1_13 1_555 1_555
C7_13 Nb1_13 1_555 1_555
C8_13 Nb1_13 1_555 1_555
N1_13 Fe1_13 1_555 1_555
N20_5 C2_13 1_555 1_555
N23_3 C3_13 1_555 1_555
N4_8 C4_13 1_555 1_555
N5_13 C5_13 1_555 1_555
N6_13 C6_13 1_555 1_555
N7_13 C7_13 1_555 1_555
N8_13 C8_13 1_555 1_555
Fe1_13 N9_13 1_555 1_555
N9_13 C9_13 1_555 1_555
N10_13 Fe1_13 1_555 1_555
N11_13 Fe1_13 1_555 1_555
N12_13 Fe1_13 1_555 1_555
C9_13 C25_13 1_555 1_555
C10_13 N9_13 1_555 1_555
C11_13 N10_13 1_555 1_555
C12_13 N10_13 1_555 1_555
C13_13 N11_13 1_555 1_555
C14_13 N11_13 1_555 1_555
C15_13 N12_13 1_555 1_555
C16_13 N12_13 1_555 1_555
C25_13 O1_13 1_555 1_555
C26_13 C10_13 1_555 1_555
C27_13 C11_13 1_555 1_555
C28_13 C12_13 1_555 1_555
C29_13 C13_13 1_555 1_555
C30_13 C14_13 1_555 1_555
C31_13 C15_13 1_555 1_555
C32_13 C16_13 1_555 1_555
C41_13 C25_13 1_555 1_555
O2_13 C27_13 1_555 1_555
C42_13 C27_13 1_555 1_555
O3_13 C29_13 1_555 1_555
C43_13 C29_13 1_555 1_555
O4_13 C31_13 1_555 1_555
C44_13 C31_13 1_555 1_555
C49_13 O2_13 1_555 1_555
C50_13 O3_13 1_555 1_555
C51_13 O4_13 1_555 1_555
C54_13 C49_13 1_555 1_555
O10_13 C50_13 1_555 1_555
C55_13 C50_13 1_555 1_555
O11_13 C51_13 1_555 1_555
C56_13 C51_13 1_555 1_555
Fe4_8 N4_8 1_555 1_555
N17_13 Fe1_13 1_555 1_555
C59_13 N17_13 1_555 1_555
Nb2_13 C59_13 1_555 1_555
C76_13 Nb2_13 1_555 1_555
C77_13 Nb2_13 1_555 1_555
C78_13 Nb2_13 1_555 1_555
C79_13 Nb2_13 1_555 1_555
C80_13 Nb2_13 1_555 1_555
C81_13 Nb2_13 1_555 1_555
C82_13 Nb2_13 1_555 1_555
N24_13 C76_13 1_555 1_555
N25_13 C77_13 1_555 1_555
N26_13 C78_13 1_555 1_555
N27_13 C79_13 1_555 1_555
N28_13 C80_13 1_555 1_555
N29_13 C81_13 1_555 1_555
N30_13 C82_13 1_555 1_555
Fe5_6 N24_13 1_555 1_555
Fe6_11 N25_13 1_555 1_555
Fe7 N26_13 1_555 1_555
N31_13 Fe5_6 1_555 1_555
N32_13 Fe5_6 1_555 1_555
N33_13 Fe5_6 1_555 1_555
N34_13 Fe5_6 1_555 1_555
N35_6 Fe5_6 1_555 1_555
C91_13 N31_13 1_555 1_555
C92_13 N31_13 1_555 1_555
C93_13 N32_13 1_555 1_555
C94_13 N32_13 1_555 1_555
C95_13 N33_13 1_555 1_555
C96_13 N33_13 1_555 1_555
C97_13 N34_13 1_555 1_555
C98_13 N34_13 1_555 1_555
C99_13 C91_13 1_555 1_555
C100_13 C92_13 1_555 1_555
C101_13 C93_13 1_555 1_555
C102_13 C94_13 1_555 1_555
C103_13 C95_13 1_555 1_555
C104_13 C96_13 1_555 1_555
C105_13 C97_13 1_555 1_555
C106_13 C98_13 1_555 1_555
O20_13 C99_13 1_555 1_555
C107_13 C99_13 1_555 1_555
O21_13 C101_13 1_555 1_555
C108_13 C101_13 1_555 1_555
O22_13 C103_13 1_555 1_555
C109_13 C103_13 1_555 1_555
O23_13 C105_13 1_555 1_555
C110_13 C105_13 1_555 1_555
C111_13 O21_13 1_555 1_555
C112_13 O22_13 1_555 1_555
C113_13 O23_13 1_555 1_555
O24_13 C111_13 1_555 1_555
C114_13 C111_13 1_555 1_555
O25_13 C112_13 1_555 1_555
C115_13 C112_13 1_555 1_555
O26_13 C113_13 1_555 1_555
C116_13 C113_13 1_555 1_555
C26_13 C41_13 1_555 1_555
C28_13 C42_13 1_555 1_555
C30_13 C43_13 1_555 1_555
C32_13 C44_13 1_555 1_555
C100_13 C107_13 1_555 1_555
C102_13 C108_13 1_555 1_555
C104_13 C109_13 1_555 1_555
C106_13 C110_13 1_555 1_555
C54_13 H3_13 1_555 1_555
C54_13 H5_13 1_555 1_555
C56_13 H12_13 1_555 1_555
C56_13 H13_13 1_555 1_555
C56_13 H14_13 1_555 1_555
C55_13 H21_13 1_555 1_555
C55_13 H22_13 1_555 1_555
C55_13 H23_13 1_555 1_555
C108_13 H40_13 1_555 1_555
C114_13 H41_13 1_555 1_555
C114_13 H42_13 1_555 1_555
C114_13 H43_13 1_555 1_555
C100_13 H44_13 1_555 1_555
C107_13 H45_13 1_555 1_555
C106_13 H46_13 1_555 1_555
O20_13 H47_13 1_555 1_555
C109_13 H48_13 1_555 1_555
C93_13 H49_13 1_555 1_555
C95_13 H50_13 1_555 1_555
C102_13 H51_13 1_555 1_555
C92_13 H52_13 1_555 1_555
C96_13 H53_13 1_555 1_555
C110_13 H54_13 1_555 1_555
C104_13 H55_13 1_555 1_555
C91_13 H56_13 1_555 1_555
C97_13 H57_13 1_555 1_555
C94_13 H58_13 1_555 1_555
C98_13 H59_13 1_555 1_555
C115_13 H60_13 1_555 1_555
C115_13 H61_13 1_555 1_555
C115_13 H62_13 1_555 1_555
C116_13 H63_13 1_555 1_555
C116_13 H64_13 1_555 1_555
C116_13 H65_13 1_555 1_555
C14_13 H67_13 1_555 1_555
C16_13 H69_13 1_555 1_555
C28_13 H70_13 1_555 1_555
C30_13 H71_13 1_555 1_555
C12_13 H74_13 1_555 1_555
C13_13 H75_13 1_555 1_555
C26_13 H77_13 1_555 1_555
C11_13 H79_13 1_555 1_555
C32_13 H80_13 1_555 1_555
C9_13 H81_13 1_555 1_555
C10_13 H84_13 1_555 1_555
C15_13 H86_13 1_555 1_555
O1_13 H88_13 1_555 1_555
C42_13 H90_13 1_555 1_555
C43_13 H91_13 1_555 1_555
C44_13 H92_13 1_555 1_555
C41_13 H94_13 1_555 1_555
Nb1_14 C1_14 1_555 1_555
C1_14 N1_14 1_555 1_555
C2_14 Nb1_14 1_555 1_555
C3_14 Nb1_14 1_555 1_555
C4_14 Nb1_14 1_555 1_555
C5_14 Nb1_14 1_555 1_555
C6_14 Nb1_14 1_555 1_555
C7_14 Nb1_14 1_555 1_555
C8_14 Nb1_14 1_555 1_555
N1_14 Fe1_14 1_555 1_555
N20_6 C2_14 1_555 1_555
N23 C3_14 1_555 1_555
N35_6 C4_14 1_555 1_555
N5_14 C5_14 1_555 1_555
N6_14 C6_14 1_555 1_555
N7_14 C7_14 1_555 1_555
N8_14 C8_14 1_555 1_555
Fe1_14 N9_14 1_555 1_555
N9_14 C9_14 1_555 1_555
N10_14 Fe1_14 1_555 1_555
N11_14 Fe1_14 1_555 1_555
N12_14 Fe1_14 1_555 1_555
C9_14 C25_14 1_555 1_555
C10_14 N9_14 1_555 1_555
C11_14 N10_14 1_555 1_555
C12_14 N10_14 1_555 1_555
C13_14 N11_14 1_555 1_555
C14_14 N11_14 1_555 1_555
C15_14 N12_14 1_555 1_555
C16_14 N12_14 1_555 1_555
C25_14 O1_14 1_555 1_555
C26_14 C10_14 1_555 1_555
C27_14 C11_14 1_555 1_555
C28_14 C12_14 1_555 1_555
C29_14 C13_14 1_555 1_555
C30_14 C14_14 1_555 1_555
C31_14 C15_14 1_555 1_555
C32_14 C16_14 1_555 1_555
C41_14 C25_14 1_555 1_555
O2_14 C27_14 1_555 1_555
C42_14 C27_14 1_555 1_555
O3_14 C29_14 1_555 1_555
C43_14 C29_14 1_555 1_555
O4_14 C31_14 1_555 1_555
C44_14 C31_14 1_555 1_555
C49_14 O2_14 1_555 1_555
C50_14 O3_14 1_555 1_555
C51_14 O4_14 1_555 1_555
O9_14 C49_14 1_555 1_555
C54_14 C49_14 1_555 1_555
O10_14 C50_14 1_555 1_555
C55_14 C50_14 1_555 1_555
O11_14 C51_14 1_555 1_555
C56_14 C51_14 1_555 1_555
N17_14 Fe1_14 1_555 1_555
C59_14 N17_14 1_555 1_555
Nb2_14 C59_14 1_555 1_555
C76_14 Nb2_14 1_555 1_555
C77_14 Nb2_14 1_555 1_555
C78_14 Nb2_14 1_555 1_555
C79_14 Nb2_14 1_555 1_555
C80_14 Nb2_14 1_555 1_555
C81_14 Nb2_14 1_555 1_555
C82_14 Nb2_14 1_555 1_555
N24_14 C76_14 1_555 1_555
N25_14 C77_14 1_555 1_555
N26_14 C78_14 1_555 1_555
N27_14 C79_14 1_555 1_555
N28_14 C80_14 1_555 1_555
N29_14 C81_14 1_555 1_555
N30_14 C82_14 1_555 1_555
Fe5_7 N24_14 1_555 1_555
Fe6_9 N25_14 1_555 1_555
Fe7_2 N26_14 1_555 1_555
N31_14 Fe5_7 1_555 1_555
N32_14 Fe5_7 1_555 1_555
N33_14 Fe5_7 1_555 1_555
N34_14 Fe5_7 1_555 1_555
N35_7 Fe5_7 1_555 1_555
C91_14 N31_14 1_555 1_555
C92_14 N31_14 1_555 1_555
C93_14 N32_14 1_555 1_555
C94_14 N32_14 1_555 1_555
C95_14 N33_14 1_555 1_555
C96_14 N33_14 1_555 1_555
C97_14 N34_14 1_555 1_555
C98_14 N34_14 1_555 1_555
C99_14 C91_14 1_555 1_555
C100_14 C92_14 1_555 1_555
C101_14 C93_14 1_555 1_555
C102_14 C94_14 1_555 1_555
C103_14 C95_14 1_555 1_555
C104_14 C96_14 1_555 1_555
C105_14 C97_14 1_555 1_555
C106_14 C98_14 1_555 1_555
O20_14 C99_14 1_555 1_555
C107_14 C99_14 1_555 1_555
O21_14 C101_14 1_555 1_555
C108_14 C101_14 1_555 1_555
O22_14 C103_14 1_555 1_555
C109_14 C103_14 1_555 1_555
O23_14 C105_14 1_555 1_555
C110_14 C105_14 1_555 1_555
C111_14 O21_14 1_555 1_555
C112_14 O22_14 1_555 1_555
C113_14 O23_14 1_555 1_555
O24_14 C111_14 1_555 1_555
C114_14 C111_14 1_555 1_555
O25_14 C112_14 1_555 1_555
C115_14 C112_14 1_555 1_555
O26_14 C113_14 1_555 1_555
C116_14 C113_14 1_555 1_555
C26_14 C41_14 1_555 1_555
C28_14 C42_14 1_555 1_555
C30_14 C43_14 1_555 1_555
C32_14 C44_14 1_555 1_555
C100_14 C107_14 1_555 1_555
C102_14 C108_14 1_555 1_555
C104_14 C109_14 1_555 1_555
C106_14 C110_14 1_555 1_555
C54_14 H3_14 1_555 1_555
C54_14 H4_14 1_555 1_555
C54_14 H5_14 1_555 1_555
C56_14 H12_14 1_555 1_555
C56_14 H13_14 1_555 1_555
C56_14 H14_14 1_555 1_555
C55_14 H21_14 1_555 1_555
C55_14 H22_14 1_555 1_555
C55_14 H23_14 1_555 1_555
C108_14 H40_14 1_555 1_555
C114_14 H41_14 1_555 1_555
C114_14 H42_14 1_555 1_555
C114_14 H43_14 1_555 1_555
C100_14 H44_14 1_555 1_555
C107_14 H45_14 1_555 1_555
C106_14 H46_14 1_555 1_555
O20_14 H47_14 1_555 1_555
C109_14 H48_14 1_555 1_555
C93_14 H49_14 1_555 1_555
C95_14 H50_14 1_555 1_555
C102_14 H51_14 1_555 1_555
C92_14 H52_14 1_555 1_555
C96_14 H53_14 1_555 1_555
C110_14 H54_14 1_555 1_555
C104_14 H55_14 1_555 1_555
C91_14 H56_14 1_555 1_555
C97_14 H57_14 1_555 1_555
C94_14 H58_14 1_555 1_555
C98_14 H59_14 1_555 1_555
C115_14 H60_14 1_555 1_555
C115_14 H61_14 1_555 1_555
C115_14 H62_14 1_555 1_555
C116_14 H63_14 1_555 1_555
C116_14 H64_14 1_555 1_555
C116_14 H65_14 1_555 1_555
C14_14 H67_14 1_555 1_555
C16_14 H69_14 1_555 1_555
C28_14 H70_14 1_555 1_555
C30_14 H71_14 1_555 1_555
C12_14 H74_14 1_555 1_555
C13_14 H75_14 1_555 1_555
C26_14 H77_14 1_555 1_555
C11_14 H79_14 1_555 1_555
C32_14 H80_14 1_555 1_555
C9_14 H81_14 1_555 1_555
C10_14 H84_14 1_555 1_555
C15_14 H86_14 1_555 1_555
O1_14 H88_14 1_555 1_555
C42_14 H90_14 1_555 1_555
C43_14 H91_14 1_555 1_555
C44_14 H92_14 1_555 1_555
C41_14 H94_14 1_555 1_555
Nb1_15 C1_15 1_555 1_555
C1_15 N1_15 1_555 1_555
C2_15 Nb1_15 1_555 1_555
C3_15 Nb1_15 1_555 1_555
C4_15 Nb1_15 1_555 1_555
C5_15 Nb1_15 1_555 1_555
C6_15 Nb1_15 1_555 1_555
C7_15 Nb1_15 1_555 1_555
C8_15 Nb1_15 1_555 1_555
N1_15 Fe1_15 1_555 1_555
N20_4 C2_15 1_555 1_555
N23_2 C3_15 1_555 1_555
N35_7 C4_15 1_555 1_555
N5_15 C5_15 1_555 1_555
N6_15 C6_15 1_555 1_555
N7_15 C7_15 1_555 1_555
N8_15 C8_15 1_555 1_555
Fe1_15 N9_15 1_555 1_555
N9_15 C9_15 1_555 1_555
N10_15 Fe1_15 1_555 1_555
N11_15 Fe1_15 1_555 1_555
N12_15 Fe1_15 1_555 1_555
C9_15 C25_15 1_555 1_555
C10_15 N9_15 1_555 1_555
C11_15 N10_15 1_555 1_555
C12_15 N10_15 1_555 1_555
C13_15 N11_15 1_555 1_555
C14_15 N11_15 1_555 1_555
C15_15 N12_15 1_555 1_555
C16_15 N12_15 1_555 1_555
C25_15 O1_15 1_555 1_555
C26_15 C10_15 1_555 1_555
C27_15 C11_15 1_555 1_555
C28_15 C12_15 1_555 1_555
C29_15 C13_15 1_555 1_555
C30_15 C14_15 1_555 1_555
C31_15 C15_15 1_555 1_555
C32_15 C16_15 1_555 1_555
C41_15 C25_15 1_555 1_555
O2_15 C27_15 1_555 1_555
C42_15 C27_15 1_555 1_555
O3_15 C29_15 1_555 1_555
C43_15 C29_15 1_555 1_555
O4_15 C31_15 1_555 1_555
C44_15 C31_15 1_555 1_555
C49_15 O2_15 1_555 1_555
C50_15 O3_15 1_555 1_555
C51_15 O4_15 1_555 1_555
C54_15 C49_15 1_555 1_555
O10_15 C50_15 1_555 1_555
C55_15 C50_15 1_555 1_555
O11_15 C51_15 1_555 1_555
C56_15 C51_15 1_555 1_555
N17_15 Fe1_15 1_555 1_555
C59_15 N17_15 1_555 1_555
Nb2_15 C59_15 1_555 1_555
C76_15 Nb2_15 1_555 1_555
C77_15 Nb2_15 1_555 1_555
C78_15 Nb2_15 1_555 1_555
C79_15 Nb2_15 1_555 1_555
C80_15 Nb2_15 1_555 1_555
C81_15 Nb2_15 1_555 1_555
C82_15 Nb2_15 1_555 1_555
N24_15 C76_15 1_555 1_555
N25_15 C77_15 1_555 1_555
N26_15 C78_15 1_555 1_555
N27_15 C79_15 1_555 1_555
N28_15 C80_15 1_555 1_555
N29_15 C81_15 1_555 1_555
N30_15 C82_15 1_555 1_555
Fe4_8 N24_15 1_555 1_555
Fe6_10 N25_15 1_555 1_555
Fe7_3 N26_15 1_555 1_555
N31_15 Fe4_8 1_555 1_555
N32_15 Fe4_8 1_555 1_555
N33_15 Fe4_8 1_555 1_555
N34_15 Fe4_8 1_555 1_555
C91_15 N31_15 1_555 1_555
C92_15 N31_15 1_555 1_555
C93_15 N32_15 1_555 1_555
C94_15 N32_15 1_555 1_555
C95_15 N33_15 1_555 1_555
C96_15 N33_15 1_555 1_555
C97_15 N34_15 1_555 1_555
C98_15 N34_15 1_555 1_555
C99_15 C91_15 1_555 1_555
C100_15 C92_15 1_555 1_555
C101_15 C93_15 1_555 1_555
C102_15 C94_15 1_555 1_555
C103_15 C95_15 1_555 1_555
C104_15 C96_15 1_555 1_555
C105_15 C97_15 1_555 1_555
C106_15 C98_15 1_555 1_555
O20_15 C99_15 1_555 1_555
C107_15 C99_15 1_555 1_555
O21_15 C101_15 1_555 1_555
C108_15 C101_15 1_555 1_555
O22_15 C103_15 1_555 1_555
C109_15 C103_15 1_555 1_555
O23_15 C105_15 1_555 1_555
C110_15 C105_15 1_555 1_555
C111_15 O21_15 1_555 1_555
C112_15 O22_15 1_555 1_555
C113_15 O23_15 1_555 1_555
O24_15 C111_15 1_555 1_555
C114_15 C111_15 1_555 1_555
O25_15 C112_15 1_555 1_555
C115_15 C112_15 1_555 1_555
O26_15 C113_15 1_555 1_555
C116_15 C113_15 1_555 1_555
C26_15 C41_15 1_555 1_555
C28_15 C42_15 1_555 1_555
C30_15 C43_15 1_555 1_555
C32_15 C44_15 1_555 1_555
C100_15 C107_15 1_555 1_555
C102_15 C108_15 1_555 1_555
C104_15 C109_15 1_555 1_555
C106_15 C110_15 1_555 1_555
C54_15 H3_15 1_555 1_555
C54_15 H5_15 1_555 1_555
C56_15 H12_15 1_555 1_555
C56_15 H13_15 1_555 1_555
C56_15 H14_15 1_555 1_555
C55_15 H21_15 1_555 1_555
C55_15 H22_15 1_555 1_555
C55_15 H23_15 1_555 1_555
C108_15 H40_15 1_555 1_555
C114_15 H41_15 1_555 1_555
C114_15 H42_15 1_555 1_555
C114_15 H43_15 1_555 1_555
C100_15 H44_15 1_555 1_555
C107_15 H45_15 1_555 1_555
C106_15 H46_15 1_555 1_555
O20_15 H47_15 1_555 1_555
C109_15 H48_15 1_555 1_555
C93_15 H49_15 1_555 1_555
C95_15 H50_15 1_555 1_555
C102_15 H51_15 1_555 1_555
C92_15 H52_15 1_555 1_555
C96_15 H53_15 1_555 1_555
C110_15 H54_15 1_555 1_555
C104_15 H55_15 1_555 1_555
C91_15 H56_15 1_555 1_555
C97_15 H57_15 1_555 1_555
C94_15 H58_15 1_555 1_555
C98_15 H59_15 1_555 1_555
C115_15 H60_15 1_555 1_555
C115_15 H61_15 1_555 1_555
C115_15 H62_15 1_555 1_555
C116_15 H63_15 1_555 1_555
C116_15 H64_15 1_555 1_555
C116_15 H65_15 1_555 1_555
C14_15 H67_15 1_555 1_555
C16_15 H69_15 1_555 1_555
C28_15 H70_15 1_555 1_555
C30_15 H71_15 1_555 1_555
C12_15 H74_15 1_555 1_555
C13_15 H75_15 1_555 1_555
C26_15 H77_15 1_555 1_555
C11_15 H79_15 1_555 1_555
C32_15 H80_15 1_555 1_555
C9_15 H81_15 1_555 1_555
C10_15 H84_15 1_555 1_555
C15_15 H86_15 1_555 1_555
O1_15 H88_15 1_555 1_555
C42_15 H90_15 1_555 1_555
C43_15 H91_15 1_555 1_555
C44_15 H92_15 1_555 1_555
C41_15 H94_15 1_555 1_555
C116_16 H63_16 1_555 1_555
C116_16 H64_16 1_555 1_555
C116_16 H65_16 1_555 1_555
N4_9 C4_16 1_555 1_555
N7_16 C7_16 1_555 1_555
Fe4_9 N4_9 1_555 1_555
C55_16 H21_16 1_555 1_555
C55_16 H22_16 1_555 1_555
Nb1_16 C1_16 1_555 1_555
C1_16 N1_16 1_555 1_555
C2_16 Nb1_16 1_555 1_555
C3_16 Nb1_16 1_555 1_555
C5_16 Nb1_16 1_555 1_555
C6_16 Nb1_16 1_555 1_555
C8_16 Nb1_16 1_555 1_555
N20_2 C2_16 1_555 1_555
N23_9 C3_16 1_555 1_555
N5_16 C5_16 1_555 1_555
N8_16 C8_16 1_555 1_555
N9_16 C9_16 1_555 1_555
C9_16 C25_16 1_555 1_555
C10_16 N9_16 1_555 1_555
C12_16 N10_16 1_555 1_555
C25_16 O1_16 1_555 1_555
C26_16 C10_16 1_555 1_555
C28_16 C12_16 1_555 1_555
C41_16 C25_16 1_555 1_555
C42_16 C27_16 1_555 1_555
N33_16 Fe5_8 1_555 1_555
N34_16 Fe5_8 1_555 1_555
N35_8 Fe5_8 1_555 1_555
C95_16 N33_16 1_555 1_555
C96_16 N33_16 1_555 1_555
C97_16 N34_16 1_555 1_555
C98_16 N34_16 1_555 1_555
C103_16 C95_16 1_555 1_555
C104_16 C96_16 1_555 1_555
C105_16 C97_16 1_555 1_555
C106_16 C98_16 1_555 1_555
O22_16 C103_16 1_555 1_555
C109_16 C103_16 1_555 1_555
O23_16 C105_16 1_555 1_555
C110_16 C105_16 1_555 1_555
C111_16 O21_16 1_555 1_555
C112_16 O22_16 1_555 1_555
C113_16 O23_16 1_555 1_555
O24_16 C111_16 1_555 1_555
C114_16 C111_16 1_555 1_555
O25_16 C112_16 1_555 1_555
C115_16 C112_16 1_555 1_555
C26_16 C41_16 1_555 1_555
C28_16 C42_16 1_555 1_555
C104_16 C109_16 1_555 1_555
C106_16 C110_16 1_555 1_555
C114_16 H41_16 1_555 1_555
C114_16 H42_16 1_555 1_555
C114_16 H43_16 1_555 1_555
C106_16 H46_16 1_555 1_555
C109_16 H48_16 1_555 1_555
C93_16 H49_16 1_555 1_555
C95_16 H50_16 1_555 1_555
C96_16 H53_16 1_555 1_555
C110_16 H54_16 1_555 1_555
C104_16 H55_16 1_555 1_555
C97_16 H57_16 1_555 1_555
C115_16 H60_16 1_555 1_555
C115_16 H61_16 1_555 1_555
C115_16 H62_16 1_555 1_555
C28_16 H70_16 1_555 1_555
C12_16 H74_16 1_555 1_555
C26_16 H77_16 1_555 1_555
C9_16 H81_16 1_555 1_555
C10_16 H84_16 1_555 1_555
O1_16 H88_16 1_555 1_555
C42_16 H90_16 1_555 1_555
C41_16 H94_16 1_555 1_555
N11_16 Fe1_16 1_555 1_555
N12_16 Fe1_16 1_555 1_555
C13_16 N11_16 1_555 1_555
C14_16 N11_16 1_555 1_555
C15_16 N12_16 1_555 1_555
C16_16 N12_16 1_555 1_555
C29_16 C13_16 1_555 1_555
C30_16 C14_16 1_555 1_555
C31_16 C15_16 1_555 1_555
C32_16 C16_16 1_555 1_555
O3_16 C29_16 1_555 1_555
C43_16 C29_16 1_555 1_555
O4_16 C31_16 1_555 1_555
C44_16 C31_16 1_555 1_555
C49_16 O2_16 1_555 1_555
C50_16 O3_16 1_555 1_555
C51_16 O4_16 1_555 1_555
O9_16 C49_16 1_555 1_555
C54_16 C49_16 1_555 1_555
O10_16 C50_16 1_555 1_555
O11_16 C51_16 1_555 1_555
C56_16 C51_16 1_555 1_555
N17_16 Fe1_16 1_555 1_555
C59_16 N17_16 1_555 1_555
Nb2_16 C59_16 1_555 1_555
C76_16 Nb2_16 1_555 1_555
C77_16 Nb2_16 1_555 1_555
C78_16 Nb2_16 1_555 1_555
C79_16 Nb2_16 1_555 1_555
C80_16 Nb2_16 1_555 1_555
C81_16 Nb2_16 1_555 1_555
C82_16 Nb2_16 1_555 1_555
N24_16 C76_16 1_555 1_555
N25_16 C77_16 1_555 1_555
N26_16 C78_16 1_555 1_555
N27_16 C79_16 1_555 1_555
N29_16 C81_16 1_555 1_555
N30_16 C82_16 1_555 1_555
Fe6_8 N25_16 1_555 1_555
Fe7_7 N26_16 1_555 1_555
C91_16 N31_16 1_555 1_555
C92_16 N31_16 1_555 1_555
C94_16 N32_16 1_555 1_555
C99_16 C91_16 1_555 1_555
C100_16 C92_16 1_555 1_555
C102_16 C94_16 1_555 1_555
O20_16 C99_16 1_555 1_555
C107_16 C99_16 1_555 1_555
C108_16 C101_16 1_555 1_555
C30_16 C43_16 1_555 1_555
C32_16 C44_16 1_555 1_555
C100_16 C107_16 1_555 1_555
C102_16 C108_16 1_555 1_555
C54_16 H3_16 1_555 1_555
C54_16 H4_16 1_555 1_555
C54_16 H5_16 1_555 1_555
C56_16 H12_16 1_555 1_555
C56_16 H13_16 1_555 1_555
C56_16 H14_16 1_555 1_555
C108_16 H40_16 1_555 1_555
C107_16 H45_16 1_555 1_555
O20_16 H47_16 1_555 1_555
C102_16 H51_16 1_555 1_555
C92_16 H52_16 1_555 1_555
C91_16 H56_16 1_555 1_555
C94_16 H58_16 1_555 1_555
C14_16 H67_16 1_555 1_555
C30_16 H71_16 1_555 1_555
C13_16 H75_16 1_555 1_555
C11_16 H79_16 1_555 1_555
C15_16 H86_16 1_555 1_555
C43_16 H91_16 1_555 1_555
N33_17 Fe5_9 1_555 1_555
N34_17 Fe5_9 1_555 1_555
N35_9 Fe5_9 1_555 1_555
C95_17 N33_17 1_555 1_555
C96_17 N33_17 1_555 1_555
C97_17 N34_17 1_555 1_555
C98_17 N34_17 1_555 1_555
C103_17 C95_17 1_555 1_555
C104_17 C96_17 1_555 1_555
C105_17 C97_17 1_555 1_555
C106_17 C98_17 1_555 1_555
O22_17 C103_17 1_555 1_555
C109_17 C103_17 1_555 1_555
O23_17 C105_17 1_555 1_555
C110_17 C105_17 1_555 1_555
C111_17 O21_17 1_555 1_555
C112_17 O22_17 1_555 1_555
C113_17 O23_17 1_555 1_555
O24_17 C111_17 1_555 1_555
C114_17 C111_17 1_555 1_555
O25_17 C112_17 1_555 1_555
O26_17 C113_17 1_555 1_555
C116_17 C113_17 1_555 1_555
C104_17 C109_17 1_555 1_555
C106_17 C110_17 1_555 1_555
C114_17 H41_17 1_555 1_555
C114_17 H42_17 1_555 1_555
C114_17 H43_17 1_555 1_555
C109_17 H48_17 1_555 1_555
C93_17 H49_17 1_555 1_555
C95_17 H50_17 1_555 1_555
C96_17 H53_17 1_555 1_555
C104_17 H55_17 1_555 1_555
C97_17 H57_17 1_555 1_555
C116_17 H63_17 1_555 1_555
C116_17 H64_17 1_555 1_555
C116_17 H65_17 1_555 1_555
C76_17 Nb2_17 1_555 1_555
C77_17 Nb2_17 1_555 1_555
C78_17 Nb2_17 1_555 1_555
C79_17 Nb2_17 1_555 1_555
C80_17 Nb2_17 1_555 1_555
C82_17 Nb2_17 1_555 1_555
N24_17 C76_17 1_555 1_555
N25_17 C77_17 1_555 1_555
N26_17 C78_17 1_555 1_555
N27_17 C79_17 1_555 1_555
N30_17 C82_17 1_555 1_555
Fe6_6 N25_17 1_555 1_555
Fe7_8 N26_17 1_555 1_555
C91_17 N31_17 1_555 1_555
C92_17 N31_17 1_555 1_555
C94_17 N32_17 1_555 1_555
C99_17 C91_17 1_555 1_555
C100_17 C92_17 1_555 1_555
C102_17 C94_17 1_555 1_555
O20_17 C99_17 1_555 1_555
C107_17 C99_17 1_555 1_555
C108_17 C101_17 1_555 1_555
C100_17 C107_17 1_555 1_555
C102_17 C108_17 1_555 1_555
C56_17 H12_17 1_555 1_555
C56_17 H13_17 1_555 1_555
C56_17 H14_17 1_555 1_555
C108_17 H40_17 1_555 1_555
C100_17 H44_17 1_555 1_555
C107_17 H45_17 1_555 1_555
O20_17 H47_17 1_555 1_555
C102_17 H51_17 1_555 1_555
C92_17 H52_17 1_555 1_555
C91_17 H56_17 1_555 1_555
C94_17 H58_17 1_555 1_555
Nb1_17 C1_17 1_555 1_555
C1_17 N1_17 1_555 1_555
C2_17 Nb1_17 1_555 1_555
C3_17 Nb1_17 1_555 1_555
C5_17 Nb1_17 1_555 1_555
C6_17 Nb1_17 1_555 1_555
C8_17 Nb1_17 1_555 1_555
N20_3 C2_17 1_555 1_555
N23_7 C3_17 1_555 1_555
N5_17 C5_17 1_555 1_555
N8_17 C8_17 1_555 1_555
N9_17 C9_17 1_555 1_555
C9_17 C25_17 1_555 1_555
C10_17 N9_17 1_555 1_555
C12_17 N10_17 1_555 1_555
C25_17 O1_17 1_555 1_555
C26_17 C10_17 1_555 1_555
C28_17 C12_17 1_555 1_555
C41_17 C25_17 1_555 1_555
C42_17 C27_17 1_555 1_555
C26_17 C41_17 1_555 1_555
C28_17 C42_17 1_555 1_555
C115_17 H61_17 1_555 1_555
C115_17 H62_17 1_555 1_555
C28_17 H70_17 1_555 1_555
C12_17 H74_17 1_555 1_555
C9_17 H81_17 1_555 1_555
C10_17 H84_17 1_555 1_555
O1_17 H88_17 1_555 1_555
C42_17 H90_17 1_555 1_555
C41_17 H94_17 1_555 1_555
N11_17 Fe1_17 1_555 1_555
N12_17 Fe1_17 1_555 1_555
C13_17 N11_17 1_555 1_555
C14_17 N11_17 1_555 1_555
C15_17 N12_17 1_555 1_555
C16_17 N12_17 1_555 1_555
C29_17 C13_17 1_555 1_555
C30_17 C14_17 1_555 1_555
C31_17 C15_17 1_555 1_555
C32_17 C16_17 1_555 1_555
O3_17 C29_17 1_555 1_555
C43_17 C29_17 1_555 1_555
O4_17 C31_17 1_555 1_555
C44_17 C31_17 1_555 1_555
C49_17 O2_17 1_555 1_555
C50_17 O3_17 1_555 1_555
C51_17 O4_17 1_555 1_555
O9_17 C49_17 1_555 1_555
C54_17 C49_17 1_555 1_555
O10_17 C50_17 1_555 1_555
N17_17 Fe1_17 1_555 1_555
C59_17 N17_17 1_555 1_555
N29_17 C81_17 1_555 1_555
C30_17 C43_17 1_555 1_555
C32_17 C44_17 1_555 1_555
C54_17 H3_17 1_555 1_555
C54_17 H4_17 1_555 1_555
C54_17 H5_17 1_555 1_555
C14_17 H67_17 1_555 1_555
C30_17 H71_17 1_555 1_555
C13_17 H75_17 1_555 1_555
C11_17 H79_17 1_555 1_555
C15_17 H86_17 1_555 1_555
C43_17 H91_17 1_555 1_555
N35_8 C4_17 1_555 1_555
N7_17 C7_17 1_555 1_555
C55_17 H21_17 1_555 1_555
C55_17 H22_17 1_555 1_555
Nb1_18 C1_18 1_555 1_555
C1_18 N1_18 1_555 1_555
C2_18 Nb1_18 1_555 1_555
C3_18 Nb1_18 1_555 1_555
C4_18 Nb1_18 1_555 1_555
C5_18 Nb1_18 1_555 1_555
C6_18 Nb1_18 1_555 1_555
C7_18 Nb1_18 1_555 1_555
C8_18 Nb1_18 1_555 1_555
N20 C2_18 1_555 1_555
N23_8 C3_18 1_555 1_555
N35_9 C4_18 1_555 1_555
N5_18 C5_18 1_555 1_555
N7_18 C7_18 1_555 1_555
N8_18 C8_18 1_555 1_555
N9_18 C9_18 1_555 1_555
C9_18 C25_18 1_555 1_555
C10_18 N9_18 1_555 1_555
C12_18 N10_18 1_555 1_555
C25_18 O1_18 1_555 1_555
C26_18 C10_18 1_555 1_555
C28_18 C12_18 1_555 1_555
C41_18 C25_18 1_555 1_555
C42_18 C27_18 1_555 1_555
C26_18 C41_18 1_555 1_555
C28_18 C42_18 1_555 1_555
C115_18 H61_18 1_555 1_555
C115_18 H62_18 1_555 1_555
C28_18 H70_18 1_555 1_555
C12_18 H74_18 1_555 1_555
C9_18 H81_18 1_555 1_555
C10_18 H84_18 1_555 1_555
O1_18 H88_18 1_555 1_555
C42_18 H90_18 1_555 1_555
C41_18 H94_18 1_555 1_555
N11_18 Fe1_18 1_555 1_555
N12_18 Fe1_18 1_555 1_555
C13_18 N11_18 1_555 1_555
C14_18 N11_18 1_555 1_555
C15_18 N12_18 1_555 1_555
C16_18 N12_18 1_555 1_555
C29_18 C13_18 1_555 1_555
C30_18 C14_18 1_555 1_555
C31_18 C15_18 1_555 1_555
C32_18 C16_18 1_555 1_555
O3_18 C29_18 1_555 1_555
C43_18 C29_18 1_555 1_555
O4_18 C31_18 1_555 1_555
C44_18 C31_18 1_555 1_555
C49_18 O2_18 1_555 1_555
C50_18 O3_18 1_555 1_555
C51_18 O4_18 1_555 1_555
O9_18 C49_18 1_555 1_555
C54_18 C49_18 1_555 1_555
O10_18 C50_18 1_555 1_555
C55_18 C50_18 1_555 1_555
N17_18 Fe1_18 1_555 1_555
C59_18 N17_18 1_555 1_555
N29_18 C81_18 1_555 1_555
C30_18 C43_18 1_555 1_555
C32_18 C44_18 1_555 1_555
C54_18 H3_18 1_555 1_555
C54_18 H4_18 1_555 1_555
C54_18 H5_18 1_555 1_555
C55_18 H21_18 1_555 1_555
C55_18 H22_18 1_555 1_555
C55_18 H23_18 1_555 1_555
C14_18 H67_18 1_555 1_555
C30_18 H71_18 1_555 1_555
C13_18 H75_18 1_555 1_555
C11_18 H79_18 1_555 1_555
C32_18 H80_18 1_555 1_555
C15_18 H86_18 1_555 1_555
C43_18 H91_18 1_555 1_555
C44_18 H92_18 1_555 1_555
N33_18 Fe4_9 1_555 1_555
N34_18 Fe4_9 1_555 1_555
C95_18 N33_18 1_555 1_555
C96_18 N33_18 1_555 1_555
C97_18 N34_18 1_555 1_555
C98_18 N34_18 1_555 1_555
C103_18 C95_18 1_555 1_555
C104_18 C96_18 1_555 1_555
C105_18 C97_18 1_555 1_555
C106_18 C98_18 1_555 1_555
O22_18 C103_18 1_555 1_555
C109_18 C103_18 1_555 1_555
O23_18 C105_18 1_555 1_555
C110_18 C105_18 1_555 1_555
C111_18 O21_18 1_555 1_555
C112_18 O22_18 1_555 1_555
C113_18 O23_18 1_555 1_555
O24_18 C111_18 1_555 1_555
C114_18 C111_18 1_555 1_555
O25_18 C112_18 1_555 1_555
C104_18 C109_18 1_555 1_555
C106_18 C110_18 1_555 1_555
C114_18 H41_18 1_555 1_555
C114_18 H42_18 1_555 1_555
C114_18 H43_18 1_555 1_555
C109_18 H48_18 1_555 1_555
C93_18 H49_18 1_555 1_555
C95_18 H50_18 1_555 1_555
C96_18 H53_18 1_555 1_555
C104_18 H55_18 1_555 1_555
C97_18 H57_18 1_555 1_555
C76_18 Nb2_18 1_555 1_555
C77_18 Nb2_18 1_555 1_555
C78_18 Nb2_18 1_555 1_555
C79_18 Nb2_18 1_555 1_555
C80_18 Nb2_18 1_555 1_555
C82_18 Nb2_18 1_555 1_555
N24_18 C76_18 1_555 1_555
N25_18 C77_18 1_555 1_555
N26_18 C78_18 1_555 1_555
N27_18 C79_18 1_555 1_555
N30_18 C82_18 1_555 1_555
Fe6_7 N25_18 1_555 1_555
Fe7_11 N26_18 1_555 1_555
C91_18 N31_18 1_555 1_555
C92_18 N31_18 1_555 1_555
C94_18 N32_18 1_555 1_555
C99_18 C91_18 1_555 1_555
C100_18 C92_18 1_555 1_555
C102_18 C94_18 1_555 1_555
O20_18 C99_18 1_555 1_555
C107_18 C99_18 1_555 1_555
C108_18 C101_18 1_555 1_555
C100_18 C107_18 1_555 1_555
C102_18 C108_18 1_555 1_555
C56_18 H12_18 1_555 1_555
C56_18 H13_18 1_555 1_555
C56_18 H14_18 1_555 1_555
C108_18 H40_18 1_555 1_555
C107_18 H45_18 1_555 1_555
O20_18 H47_18 1_555 1_555
C102_18 H51_18 1_555 1_555
C92_18 H52_18 1_555 1_555
C91_18 H56_18 1_555 1_555
C94_18 H58_18 1_555 1_555
C116_18 H63_18 1_555 1_555
C116_18 H64_18 1_555 1_555
C116_18 H65_18 1_555 1_555
N15_10 Fe7_6 1_555 1_555
N16_10 Fe7_6 1_555 1_555
C21_10 N15_10 1_555 1_555
C22_10 N15_10 1_555 1_555
C23_10 N16_10 1_555 1_555
C24_10 N16_10 1_555 1_555
C37_10 C21_10 1_555 1_555
C38_10 C22_10 1_555 1_555
C39_10 C23_10 1_555 1_555
C40_10 C24_10 1_555 1_555
O5_10 C33_10 1_555 1_555
C45_10 C33_10 1_555 1_555
O6_10 C35_10 1_555 1_555
C46_10 C35_10 1_555 1_555
O7_10 C37_10 1_555 1_555
C47_10 C37_10 1_555 1_555
O8_10 C39_10 1_555 1_555
C48_10 C39_10 1_555 1_555
C53_10 O8_10 1_555 1_555
O13_10 C53_10 1_555 1_555
C58_10 C53_10 1_555 1_555
N21_10 Fe7_6 1_555 1_555
N22_10 Fe7_6 1_555 1_555
C64_10 N21_10 1_555 1_555
C65_10 N21_10 1_555 1_555
C66_10 N22_10 1_555 1_555
C67_10 N22_10 1_555 1_555
C72_10 C64_10 1_555 1_555
C73_10 C65_10 1_555 1_555
C74_10 C66_10 1_555 1_555
C75_10 C67_10 1_555 1_555
O16_10 C72_10 1_555 1_555
C85_10 C72_10 1_555 1_555
O17_10 C74_10 1_555 1_555
C86_10 C74_10 1_555 1_555
C87_10 O16_10 1_555 1_555
C88_10 O17_10 1_555 1_555
O18_10 C87_10 1_555 1_555
C89_10 C87_10 1_555 1_555
O19_10 C88_10 1_555 1_555
C90_10 C88_10 1_555 1_555
C34_10 C45_10 1_555 1_555
C38_10 C47_10 1_555 1_555
C40_10 C48_10 1_555 1_555
C73_10 C85_10 1_555 1_555
C75_10 C86_10 1_555 1_555
C64_10 H2_10 1_555 1_555
C65_10 H6_10 1_555 1_555
C67_10 H7_10 1_555 1_555
C66_10 H11_10 1_555 1_555
C58_10 H16_10 1_555 1_555
C58_10 H17_10 1_555 1_555
C58_10 H18_10 1_555 1_555
C75_10 H24_10 1_555 1_555
C73_10 H26_10 1_555 1_555
C85_10 H32_10 1_555 1_555
C86_10 H33_10 1_555 1_555
C90_10 H34_10 1_555 1_555
C90_10 H35_10 1_555 1_555
C90_10 H36_10 1_555 1_555
C89_10 H37_10 1_555 1_555
C89_10 H38_10 1_555 1_555
C89_10 H39_10 1_555 1_555
C23_10 H68_10 1_555 1_555
C22_10 H73_10 1_555 1_555
C24_10 H76_10 1_555 1_555
C21_10 H83_10 1_555 1_555
C34_10 H85_10 1_555 1_555
O5_10 H87_10 1_555 1_555
C46_10 H93_10 1_555 1_555
C45_10 H95_10 1_555 1_555
C48_10 H96_10 1_555 1_555
C38_10 H97_10 1_555 1_555
O6_10 H98_10 1_555 1_555
C40_10 H99_10 1_555 1_555
C47_10 H100_10 1_555 1_555
N13_10 Fe6_8 1_555 1_555
N14_10 Fe6_8 1_555 1_555
C17_10 N13_10 1_555 1_555
C18_10 N13_10 1_555 1_555
C19_10 N14_10 1_555 1_555
C20_10 N14_10 1_555 1_555
C36_10 C20_10 1_555 1_555
O12_10 C52_10 1_555 1_555
C57_10 C52_10 1_555 1_555
N18_10 Fe6_8 1_555 1_555
N19_10 Fe6_8 1_555 1_555
C60_10 N18_10 1_555 1_555
C61_10 N18_10 1_555 1_555
C62_10 N19_10 1_555 1_555
C63_10 N19_10 1_555 1_555
C68_10 C60_10 1_555 1_555
C69_10 C61_10 1_555 1_555
C70_10 C62_10 1_555 1_555
C71_10 C63_10 1_555 1_555
O14_10 C68_10 1_555 1_555
C83_10 C68_10 1_555 1_555
O15_10 C70_10 1_555 1_555
C84_10 C70_10 1_555 1_555
C69_10 C83_10 1_555 1_555
C71_10 C84_10 1_555 1_555
C61_10 H1_10 1_555 1_555
C57_10 H8_10 1_555 1_555
C57_10 H9_10 1_555 1_555
C60_10 H15_10 1_555 1_555
C62_10 H19_10 1_555 1_555
C63_10 H20_10 1_555 1_555
C83_10 H25_10 1_555 1_555
C69_10 H27_10 1_555 1_555
O14_10 H28_10 1_555 1_555
C84_10 H29_10 1_555 1_555
C71_10 H30_10 1_555 1_555
O15_10 H31_10 1_555 1_555
O1_5 H47_19 1_555 1_555
C17_10 H66_10 1_555 1_555
C19_10 H72_10 1_555 1_555
C20_10 H78_10 1_555 1_555
C18_10 H82_10 1_555 1_555
O20_6 H88_19 1_555 1_555
C36_10 H89_10 1_555 1_555
N15_11 Fe7_4 1_555 1_555
N16_11 Fe7_4 1_555 1_555
C21_11 N15_11 1_555 1_555
C22_11 N15_11 1_555 1_555
C23_11 N16_11 1_555 1_555
C24_11 N16_11 1_555 1_555
C37_11 C21_11 1_555 1_555
C38_11 C22_11 1_555 1_555
C39_11 C23_11 1_555 1_555
C40_11 C24_11 1_555 1_555
O5_11 C33_11 1_555 1_555
C45_11 C33_11 1_555 1_555
O7_11 C37_11 1_555 1_555
C47_11 C37_11 1_555 1_555
O8_11 C39_11 1_555 1_555
C48_11 C39_11 1_555 1_555
C53_11 O8_11 1_555 1_555
O13_11 C53_11 1_555 1_555
C58_11 C53_11 1_555 1_555
N21_11 Fe7_4 1_555 1_555
N22_11 Fe7_4 1_555 1_555
C64_11 N21_11 1_555 1_555
C65_11 N21_11 1_555 1_555
C66_11 N22_11 1_555 1_555
C67_11 N22_11 1_555 1_555
C72_11 C64_11 1_555 1_555
C73_11 C65_11 1_555 1_555
C74_11 C66_11 1_555 1_555
C75_11 C67_11 1_555 1_555
O16_11 C72_11 1_555 1_555
C85_11 C72_11 1_555 1_555
O17_11 C74_11 1_555 1_555
C86_11 C74_11 1_555 1_555
C87_11 O16_11 1_555 1_555
C88_11 O17_11 1_555 1_555
O18_11 C87_11 1_555 1_555
C89_11 C87_11 1_555 1_555
O19_11 C88_11 1_555 1_555
C90_11 C88_11 1_555 1_555
C34_11 C45_11 1_555 1_555
C38_11 C47_11 1_555 1_555
C40_11 C48_11 1_555 1_555
C73_11 C85_11 1_555 1_555
C75_11 C86_11 1_555 1_555
C64_11 H2_11 1_555 1_555
C65_11 H6_11 1_555 1_555
C67_11 H7_11 1_555 1_555
C66_11 H11_11 1_555 1_555
C58_11 H16_11 1_555 1_555
C58_11 H17_11 1_555 1_555
C58_11 H18_11 1_555 1_555
C75_11 H24_11 1_555 1_555
C73_11 H26_11 1_555 1_555
C85_11 H32_11 1_555 1_555
C86_11 H33_11 1_555 1_555
C90_11 H34_11 1_555 1_555
C90_11 H35_11 1_555 1_555
C90_11 H36_11 1_555 1_555
C89_11 H37_11 1_555 1_555
C89_11 H38_11 1_555 1_555
C89_11 H39_11 1_555 1_555
C23_11 H68_11 1_555 1_555
C22_11 H73_11 1_555 1_555
C24_11 H76_11 1_555 1_555
C21_11 H83_11 1_555 1_555
C34_11 H85_11 1_555 1_555
O5_11 H87_11 1_555 1_555
C45_11 H95_11 1_555 1_555
C48_11 H96_11 1_555 1_555
C38_11 H97_11 1_555 1_555
C40_11 H99_11 1_555 1_555
N13_11 Fe6_6 1_555 1_555
N14_11 Fe6_6 1_555 1_555
C17_11 N13_11 1_555 1_555
C18_11 N13_11 1_555 1_555
C19_11 N14_11 1_555 1_555
C20_11 N14_11 1_555 1_555
C36_11 C20_11 1_555 1_555
N18_11 Fe6_6 1_555 1_555
N19_11 Fe6_6 1_555 1_555
C60_11 N18_11 1_555 1_555
C61_11 N18_11 1_555 1_555
C62_11 N19_11 1_555 1_555
C63_11 N19_11 1_555 1_555
C68_11 C60_11 1_555 1_555
C69_11 C61_11 1_555 1_555
C70_11 C62_11 1_555 1_555
O14_11 C68_11 1_555 1_555
C83_11 C68_11 1_555 1_555
O15_11 C70_11 1_555 1_555
C69_11 C83_11 1_555 1_555
C61_11 H1_11 1_555 1_555
C60_11 H15_11 1_555 1_555
C62_11 H19_11 1_555 1_555
C83_11 H25_11 1_555 1_555
C69_11 H27_11 1_555 1_555
O14_11 H28_11 1_555 1_555
O15_11 H31_11 1_555 1_555
O1_6 H47_20 1_555 1_555
C17_11 H66_11 1_555 1_555
C19_11 H72_11 1_555 1_555
C20_11 H78_11 1_555 1_555
C18_11 H82_11 1_555 1_555
O20_4 H88_20 1_555 1_555
O6_11 C35_11 1_555 1_555
C46_11 C35_11 1_555 1_555
C46_11 H93_11 1_555 1_555
C71_11 C84_11 1_555 1_555
C57_11 H8_11 1_555 1_555
C57_11 H9_11 1_555 1_555
C84_11 H29_11 1_555 1_555
C71_11 H30_11 1_555 1_555
O6_12 C35_12 1_555 1_555
C46_12 C35_12 1_555 1_555
C46_12 H93_12 1_555 1_555
C71_12 C84_12 1_555 1_555
C57_12 H8_12 1_555 1_555
C57_12 H9_12 1_555 1_555
C84_12 H29_12 1_555 1_555
C71_12 H30_12 1_555 1_555
N15_12 Fe7_5 1_555 1_555
N16_12 Fe7_5 1_555 1_555
C21_12 N15_12 1_555 1_555
C22_12 N15_12 1_555 1_555
C23_12 N16_12 1_555 1_555
C24_12 N16_12 1_555 1_555
C37_12 C21_12 1_555 1_555
C38_12 C22_12 1_555 1_555
C39_12 C23_12 1_555 1_555
C40_12 C24_12 1_555 1_555
O5_12 C33_12 1_555 1_555
C45_12 C33_12 1_555 1_555
O7_12 C37_12 1_555 1_555
C47_12 C37_12 1_555 1_555
O8_12 C39_12 1_555 1_555
C48_12 C39_12 1_555 1_555
C53_12 O8_12 1_555 1_555
O13_12 C53_12 1_555 1_555
C58_12 C53_12 1_555 1_555
N21_12 Fe7_5 1_555 1_555
N22_12 Fe7_5 1_555 1_555
C64_12 N21_12 1_555 1_555
C65_12 N21_12 1_555 1_555
C66_12 N22_12 1_555 1_555
C67_12 N22_12 1_555 1_555
C72_12 C64_12 1_555 1_555
C73_12 C65_12 1_555 1_555
C74_12 C66_12 1_555 1_555
C75_12 C67_12 1_555 1_555
O16_12 C72_12 1_555 1_555
C85_12 C72_12 1_555 1_555
O17_12 C74_12 1_555 1_555
C86_12 C74_12 1_555 1_555
C87_12 O16_12 1_555 1_555
C88_12 O17_12 1_555 1_555
O18_12 C87_12 1_555 1_555
C89_12 C87_12 1_555 1_555
O19_12 C88_12 1_555 1_555
C90_12 C88_12 1_555 1_555
C34_12 C45_12 1_555 1_555
C38_12 C47_12 1_555 1_555
C40_12 C48_12 1_555 1_555
C73_12 C85_12 1_555 1_555
C75_12 C86_12 1_555 1_555
C64_12 H2_12 1_555 1_555
C65_12 H6_12 1_555 1_555
C67_12 H7_12 1_555 1_555
C66_12 H11_12 1_555 1_555
C58_12 H16_12 1_555 1_555
C58_12 H17_12 1_555 1_555
C58_12 H18_12 1_555 1_555
C75_12 H24_12 1_555 1_555
C73_12 H26_12 1_555 1_555
C85_12 H32_12 1_555 1_555
C86_12 H33_12 1_555 1_555
C90_12 H34_12 1_555 1_555
C90_12 H35_12 1_555 1_555
C90_12 H36_12 1_555 1_555
C89_12 H37_12 1_555 1_555
C89_12 H38_12 1_555 1_555
C89_12 H39_12 1_555 1_555
C23_12 H68_12 1_555 1_555
C22_12 H73_12 1_555 1_555
C24_12 H76_12 1_555 1_555
C21_12 H83_12 1_555 1_555
C34_12 H85_12 1_555 1_555
O5_12 H87_12 1_555 1_555
C45_12 H95_12 1_555 1_555
C48_12 H96_12 1_555 1_555
C38_12 H97_12 1_555 1_555
C40_12 H99_12 1_555 1_555
N13_12 Fe6_7 1_555 1_555
N14_12 Fe6_7 1_555 1_555
C17_12 N13_12 1_555 1_555
C18_12 N13_12 1_555 1_555
C19_12 N14_12 1_555 1_555
C20_12 N14_12 1_555 1_555
C36_12 C20_12 1_555 1_555
N18_12 Fe6_7 1_555 1_555
N19_12 Fe6_7 1_555 1_555
C60_12 N18_12 1_555 1_555
C61_12 N18_12 1_555 1_555
C62_12 N19_12 1_555 1_555
C63_12 N19_12 1_555 1_555
C68_12 C60_12 1_555 1_555
C69_12 C61_12 1_555 1_555
C70_12 C62_12 1_555 1_555
O14_12 C68_12 1_555 1_555
C83_12 C68_12 1_555 1_555
O15_12 C70_12 1_555 1_555
C69_12 C83_12 1_555 1_555
C61_12 H1_12 1_555 1_555
C60_12 H15_12 1_555 1_555
C62_12 H19_12 1_555 1_555
C83_12 H25_12 1_555 1_555
C69_12 H27_12 1_555 1_555
O14_12 H28_12 1_555 1_555
O15_12 H31_12 1_555 1_555
O1_4 H47_21 1_555 1_555
C17_12 H66_12 1_555 1_555
C19_12 H72_12 1_555 1_555
C20_12 H78_12 1_555 1_555
C18_12 H82_12 1_555 1_555
O20_5 H88_21 1_555 1_555
N13_13 Fe6_4 1_555 1_555
N14_13 Fe6_4 1_555 1_555
C18_13 N13_13 1_555 1_555
C19_13 N14_13 1_555 1_555
C34_13 C18_13 1_555 1_555
C35_13 C19_13 1_555 1_555
O6_13 C35_13 1_555 1_555
C46_13 C35_13 1_555 1_555
C68_13 C60_13 1_555 1_555
C71_13 C63_13 1_555 1_555
O14_13 C68_13 1_555 1_555
C34_13 C45_13 1_555 1_555
C60_13 H15_13 1_555 1_555
C63_13 H20_13 1_555 1_555
O14_13 H28_13 1_555 1_555
C71_13 H30_13 1_555 1_555
C89_13 H37_13 1_555 1_555
C89_13 H38_13 1_555 1_555
C89_13 H39_13 1_555 1_555
C19_13 H72_13 1_555 1_555
C18_13 H82_13 1_555 1_555
C34_13 H85_13 1_555 1_555
C46_13 H93_13 1_555 1_555
C45_13 H95_13 1_555 1_555
O6_13 H98_13 1_555 1_555
N15_13 Fe7_3 1_555 1_555
N16_13 Fe7_3 1_555 1_555
C21_13 N15_13 1_555 1_555
C22_13 N15_13 1_555 1_555
C23_13 N16_13 1_555 1_555
C24_13 N16_13 1_555 1_555
C33_13 C17_13 1_555 1_555
C36_13 C20_13 1_555 1_555
C37_13 C21_13 1_555 1_555
C38_13 C22_13 1_555 1_555
C39_13 C23_13 1_555 1_555
C40_13 C24_13 1_555 1_555
O5_13 C33_13 1_555 1_555
O7_13 C37_13 1_555 1_555
C47_13 C37_13 1_555 1_555
O8_13 C39_13 1_555 1_555
C48_13 C39_13 1_555 1_555
C52_13 O7_13 1_555 1_555
C53_13 O8_13 1_555 1_555
O12_13 C52_13 1_555 1_555
C57_13 C52_13 1_555 1_555
O13_13 C53_13 1_555 1_555
C58_13 C53_13 1_555 1_555
N18_13 Fe6_5 1_555 1_555
N19_13 Fe6_5 1_555 1_555
N21_13 Fe7_3 1_555 1_555
N22_13 Fe7_3 1_555 1_555
C61_13 N18_13 1_555 1_555
C62_13 N19_13 1_555 1_555
C64_13 N21_13 1_555 1_555
C65_13 N21_13 1_555 1_555
C66_13 N22_13 1_555 1_555
C67_13 N22_13 1_555 1_555
C69_13 C61_13 1_555 1_555
C70_13 C62_13 1_555 1_555
C72_13 C64_13 1_555 1_555
C73_13 C65_13 1_555 1_555
C74_13 C66_13 1_555 1_555
C75_13 C67_13 1_555 1_555
O15_13 C70_13 1_555 1_555
C84_13 C70_13 1_555 1_555
O16_13 C72_13 1_555 1_555
C85_13 C72_13 1_555 1_555
O17_13 C74_13 1_555 1_555
C86_13 C74_13 1_555 1_555
C87_13 O16_13 1_555 1_555
C88_13 O17_13 1_555 1_555
O19_13 C88_13 1_555 1_555
C90_13 C88_13 1_555 1_555
C38_13 C47_13 1_555 1_555
C40_13 C48_13 1_555 1_555
C69_13 C83_13 1_555 1_555
C73_13 C85_13 1_555 1_555
C75_13 C86_13 1_555 1_555
C61_13 H1_13 1_555 1_555
C64_13 H2_13 1_555 1_555
C65_13 H6_13 1_555 1_555
C67_13 H7_13 1_555 1_555
C57_13 H8_13 1_555 1_555
C57_13 H9_13 1_555 1_555
C57_13 H10_13 1_555 1_555
C66_13 H11_13 1_555 1_555
C58_13 H16_13 1_555 1_555
C58_13 H17_13 1_555 1_555
C58_13 H18_13 1_555 1_555
C62_13 H19_13 1_555 1_555
C75_13 H24_13 1_555 1_555
C83_13 H25_13 1_555 1_555
C73_13 H26_13 1_555 1_555
C69_13 H27_13 1_555 1_555
C84_13 H29_13 1_555 1_555
O15_13 H31_13 1_555 1_555
C86_13 H33_13 1_555 1_555
C90_13 H34_13 1_555 1_555
C90_13 H35_13 1_555 1_555
C90_13 H36_13 1_555 1_555
O1_2 H47_22 1_555 1_555
C17_13 H66_13 1_555 1_555
C23_13 H68_13 1_555 1_555
C22_13 H73_13 1_555 1_555
C24_13 H76_13 1_555 1_555
C20_13 H78_13 1_555 1_555
C21_13 H83_13 1_555 1_555
O5_13 H87_13 1_555 1_555
O20_3 H88_22 1_555 1_555
C36_13 H89_13 1_555 1_555
C48_13 H96_13 1_555 1_555
C38_13 H97_13 1_555 1_555
C40_13 H99_13 1_555 1_555
C47_13 H100_13 1_555 1_555
N15_14 Fe7 1_555 1_555
N16_14 Fe7 1_555 1_555
C21_14 N15_14 1_555 1_555
C22_14 N15_14 1_555 1_555
C23_14 N16_14 1_555 1_555
C24_14 N16_14 1_555 1_555
C33_14 C17_14 1_555 1_555
C36_14 C20_14 1_555 1_555
C37_14 C21_14 1_555 1_555
C38_14 C22_14 1_555 1_555
C39_14 C23_14 1_555 1_555
C40_14 C24_14 1_555 1_555
O5_14 C33_14 1_555 1_555
O7_14 C37_14 1_555 1_555
C47_14 C37_14 1_555 1_555
O8_14 C39_14 1_555 1_555
C48_14 C39_14 1_555 1_555
C52_14 O7_14 1_555 1_555
C53_14 O8_14 1_555 1_555
O12_14 C52_14 1_555 1_555
C57_14 C52_14 1_555 1_555
O13_14 C53_14 1_555 1_555
C58_14 C53_14 1_555 1_555
N18_14 Fe6 1_555 1_555
N19_14 Fe6 1_555 1_555
N21_14 Fe7 1_555 1_555
N22_14 Fe7 1_555 1_555
C61_14 N18_14 1_555 1_555
C62_14 N19_14 1_555 1_555
C64_14 N21_14 1_555 1_555
C65_14 N21_14 1_555 1_555
C66_14 N22_14 1_555 1_555
C67_14 N22_14 1_555 1_555
C69_14 C61_14 1_555 1_555
C70_14 C62_14 1_555 1_555
C72_14 C64_14 1_555 1_555
C73_14 C65_14 1_555 1_555
C74_14 C66_14 1_555 1_555
C75_14 C67_14 1_555 1_555
O15_14 C70_14 1_555 1_555
C84_14 C70_14 1_555 1_555
O16_14 C72_14 1_555 1_555
C85_14 C72_14 1_555 1_555
O17_14 C74_14 1_555 1_555
C86_14 C74_14 1_555 1_555
C87_14 O16_14 1_555 1_555
C88_14 O17_14 1_555 1_555
O19_14 C88_14 1_555 1_555
C90_14 C88_14 1_555 1_555
C38_14 C47_14 1_555 1_555
C40_14 C48_14 1_555 1_555
C69_14 C83_14 1_555 1_555
C73_14 C85_14 1_555 1_555
C75_14 C86_14 1_555 1_555
C61_14 H1_14 1_555 1_555
C64_14 H2_14 1_555 1_555
C65_14 H6_14 1_555 1_555
C67_14 H7_14 1_555 1_555
C57_14 H8_14 1_555 1_555
C57_14 H9_14 1_555 1_555
C57_14 H10_14 1_555 1_555
C66_14 H11_14 1_555 1_555
C58_14 H16_14 1_555 1_555
C58_14 H17_14 1_555 1_555
C58_14 H18_14 1_555 1_555
C62_14 H19_14 1_555 1_555
C75_14 H24_14 1_555 1_555
C83_14 H25_14 1_555 1_555
C73_14 H26_14 1_555 1_555
C69_14 H27_14 1_555 1_555
C84_14 H29_14 1_555 1_555
O15_14 H31_14 1_555 1_555
C86_14 H33_14 1_555 1_555
C90_14 H34_14 1_555 1_555
C90_14 H35_14 1_555 1_555
C90_14 H36_14 1_555 1_555
O1_3 H47_23 1_555 1_555
C17_14 H66_14 1_555 1_555
C23_14 H68_14 1_555 1_555
C22_14 H73_14 1_555 1_555
C24_14 H76_14 1_555 1_555
C20_14 H78_14 1_555 1_555
C21_14 H83_14 1_555 1_555
O5_14 H87_14 1_555 1_555
O20 H88_23 1_555 1_555
C36_14 H89_14 1_555 1_555
C48_14 H96_14 1_555 1_555
C38_14 H97_14 1_555 1_555
C40_14 H99_14 1_555 1_555
C47_14 H100_14 1_555 1_555
N13_14 Fe6_2 1_555 1_555
N14_14 Fe6_2 1_555 1_555
C18_14 N13_14 1_555 1_555
C19_14 N14_14 1_555 1_555
C34_14 C18_14 1_555 1_555
C35_14 C19_14 1_555 1_555
O6_14 C35_14 1_555 1_555
C46_14 C35_14 1_555 1_555
C68_14 C60_14 1_555 1_555
C71_14 C63_14 1_555 1_555
O14_14 C68_14 1_555 1_555
C34_14 C45_14 1_555 1_555
C60_14 H15_14 1_555 1_555
C63_14 H20_14 1_555 1_555
O14_14 H28_14 1_555 1_555
C71_14 H30_14 1_555 1_555
C89_14 H37_14 1_555 1_555
C89_14 H38_14 1_555 1_555
C89_14 H39_14 1_555 1_555
C19_14 H72_14 1_555 1_555
C18_14 H82_14 1_555 1_555
C34_14 H85_14 1_555 1_555
C46_14 H93_14 1_555 1_555
C45_14 H95_14 1_555 1_555
O6_14 H98_14 1_555 1_555
N13_15 Fe6_3 1_555 1_555
N14_15 Fe6_3 1_555 1_555
N15_15 Fe7_2 1_555 1_555
N16_15 Fe7_2 1_555 1_555
C17_15 N13_15 1_555 1_555
C18_15 N13_15 1_555 1_555
C19_15 N14_15 1_555 1_555
C20_15 N14_15 1_555 1_555
C21_15 N15_15 1_555 1_555
C22_15 N15_15 1_555 1_555
C23_15 N16_15 1_555 1_555
C24_15 N16_15 1_555 1_555
C33_15 C17_15 1_555 1_555
C34_15 C18_15 1_555 1_555
C35_15 C19_15 1_555 1_555
C36_15 C20_15 1_555 1_555
C37_15 C21_15 1_555 1_555
C38_15 C22_15 1_555 1_555
C39_15 C23_15 1_555 1_555
C40_15 C24_15 1_555 1_555
O5_15 C33_15 1_555 1_555
C45_15 C33_15 1_555 1_555
O6_15 C35_15 1_555 1_555
C46_15 C35_15 1_555 1_555
O7_15 C37_15 1_555 1_555
C47_15 C37_15 1_555 1_555
O8_15 C39_15 1_555 1_555
C48_15 C39_15 1_555 1_555
C52_15 O7_15 1_555 1_555
C53_15 O8_15 1_555 1_555
O12_15 C52_15 1_555 1_555
C57_15 C52_15 1_555 1_555
O13_15 C53_15 1_555 1_555
C58_15 C53_15 1_555 1_555
N18_15 Fe6_3 1_555 1_555
N19_15 Fe6_3 1_555 1_555
N21_15 Fe7_2 1_555 1_555
N22_15 Fe7_2 1_555 1_555
C60_15 N18_15 1_555 1_555
C61_15 N18_15 1_555 1_555
C62_15 N19_15 1_555 1_555
C63_15 N19_15 1_555 1_555
C64_15 N21_15 1_555 1_555
C65_15 N21_15 1_555 1_555
C66_15 N22_15 1_555 1_555
C67_15 N22_15 1_555 1_555
C68_15 C60_15 1_555 1_555
C69_15 C61_15 1_555 1_555
C70_15 C62_15 1_555 1_555
C71_15 C63_15 1_555 1_555
C72_15 C64_15 1_555 1_555
C73_15 C65_15 1_555 1_555
C74_15 C66_15 1_555 1_555
C75_15 C67_15 1_555 1_555
O14_15 C68_15 1_555 1_555
C83_15 C68_15 1_555 1_555
O15_15 C70_15 1_555 1_555
C84_15 C70_15 1_555 1_555
O16_15 C72_15 1_555 1_555
C85_15 C72_15 1_555 1_555
O17_15 C74_15 1_555 1_555
C86_15 C74_15 1_555 1_555
C87_15 O16_15 1_555 1_555
C88_15 O17_15 1_555 1_555
O18_15 C87_15 1_555 1_555
C89_15 C87_15 1_555 1_555
O19_15 C88_15 1_555 1_555
C90_15 C88_15 1_555 1_555
C34_15 C45_15 1_555 1_555
C36_15 C46_15 1_555 1_555
C38_15 C47_15 1_555 1_555
C40_15 C48_15 1_555 1_555
C69_15 C83_15 1_555 1_555
C71_15 C84_15 1_555 1_555
C73_15 C85_15 1_555 1_555
C75_15 C86_15 1_555 1_555
C61_15 H1_15 1_555 1_555
C64_15 H2_15 1_555 1_555
C65_15 H6_15 1_555 1_555
C67_15 H7_15 1_555 1_555
C57_15 H8_15 1_555 1_555
C57_15 H9_15 1_555 1_555
C57_15 H10_15 1_555 1_555
C66_15 H11_15 1_555 1_555
C60_15 H15_15 1_555 1_555
C58_15 H16_15 1_555 1_555
C58_15 H17_15 1_555 1_555
C58_15 H18_15 1_555 1_555
C62_15 H19_15 1_555 1_555
C63_15 H20_15 1_555 1_555
C75_15 H24_15 1_555 1_555
C83_15 H25_15 1_555 1_555
C73_15 H26_15 1_555 1_555
C69_15 H27_15 1_555 1_555
O14_15 H28_15 1_555 1_555
C84_15 H29_15 1_555 1_555
C71_15 H30_15 1_555 1_555
O15_15 H31_15 1_555 1_555
C85_15 H32_15 1_555 1_555
C86_15 H33_15 1_555 1_555
C90_15 H34_15 1_555 1_555
C90_15 H35_15 1_555 1_555
C90_15 H36_15 1_555 1_555
C89_15 H37_15 1_555 1_555
C89_15 H38_15 1_555 1_555
C89_15 H39_15 1_555 1_555
O1 H47_24 1_555 1_555
C17_15 H66_15 1_555 1_555
C23_15 H68_15 1_555 1_555
C19_15 H72_15 1_555 1_555
C22_15 H73_15 1_555 1_555
C24_15 H76_15 1_555 1_555
C20_15 H78_15 1_555 1_555
C18_15 H82_15 1_555 1_555
C21_15 H83_15 1_555 1_555
C34_15 H85_15 1_555 1_555
O5_15 H87_15 1_555 1_555
O20_2 H88_24 1_555 1_555
C36_15 H89_15 1_555 1_555
C46_15 H93_15 1_555 1_555
C45_15 H95_15 1_555 1_555
C48_15 H96_15 1_555 1_555
C38_15 H97_15 1_555 1_555
O6_15 H98_15 1_555 1_555
C40_15 H99_15 1_555 1_555
C47_15 H100_15 1_555 1_555
N13_16 Fe6_11 1_555 1_555
N14_16 Fe6_11 1_555 1_555
C17_16 N13_16 1_555 1_555
C18_16 N13_16 1_555 1_555
C19_16 N14_16 1_555 1_555
C20_16 N14_16 1_555 1_555
C33_16 C17_16 1_555 1_555
C34_16 C18_16 1_555 1_555
C35_16 C19_16 1_555 1_555
O5_16 C33_16 1_555 1_555
C45_16 C33_16 1_555 1_555
O6_16 C35_16 1_555 1_555
N18_16 Fe6_11 1_555 1_555
N19_16 Fe6_11 1_555 1_555
N21_16 Fe7_10 1_555 1_555
N22_16 Fe7_10 1_555 1_555
C60_16 N18_16 1_555 1_555
C61_16 N18_16 1_555 1_555
C62_16 N19_16 1_555 1_555
C63_16 N19_16 1_555 1_555
C64_16 N21_16 1_555 1_555
C65_16 N21_16 1_555 1_555
C66_16 N22_16 1_555 1_555
C67_16 N22_16 1_555 1_555
C68_16 C60_16 1_555 1_555
C69_16 C61_16 1_555 1_555
C71_16 C63_16 1_555 1_555
C72_16 C64_16 1_555 1_555
C73_16 C65_16 1_555 1_555
C74_16 C66_16 1_555 1_555
C75_16 C67_16 1_555 1_555
O14_16 C68_16 1_555 1_555
C83_16 C68_16 1_555 1_555
O16_16 C72_16 1_555 1_555
C85_16 C72_16 1_555 1_555
O17_16 C74_16 1_555 1_555
C86_16 C74_16 1_555 1_555
C87_16 O16_16 1_555 1_555
C88_16 O17_16 1_555 1_555
O18_16 C87_16 1_555 1_555
C89_16 C87_16 1_555 1_555
O19_16 C88_16 1_555 1_555
C90_16 C88_16 1_555 1_555
C34_16 C45_16 1_555 1_555
C69_16 C83_16 1_555 1_555
C73_16 C85_16 1_555 1_555
C75_16 C86_16 1_555 1_555
C61_16 H1_16 1_555 1_555
C64_16 H2_16 1_555 1_555
C65_16 H6_16 1_555 1_555
C67_16 H7_16 1_555 1_555
C66_16 H11_16 1_555 1_555
C60_16 H15_16 1_555 1_555
C62_16 H19_16 1_555 1_555
C63_16 H20_16 1_555 1_555
C75_16 H24_16 1_555 1_555
C83_16 H25_16 1_555 1_555
C73_16 H26_16 1_555 1_555
C69_16 H27_16 1_555 1_555
O14_16 H28_16 1_555 1_555
C85_16 H32_16 1_555 1_555
C86_16 H33_16 1_555 1_555
C90_16 H34_16 1_555 1_555
C90_16 H35_16 1_555 1_555
C90_16 H36_16 1_555 1_555
C89_16 H37_16 1_555 1_555
C89_16 H38_16 1_555 1_555
C89_16 H39_16 1_555 1_555
O1_8 H47_25 1_555 1_555
C17_16 H66_16 1_555 1_555
C19_16 H72_16 1_555 1_555
C18_16 H82_16 1_555 1_555
C34_16 H85_16 1_555 1_555
O5_16 H87_16 1_555 1_555
O20_9 H88_25 1_555 1_555
C45_16 H95_16 1_555 1_555
O6_16 H98_16 1_555 1_555
N15_16 Fe7_11 1_555 1_555
N16_16 Fe7_11 1_555 1_555
C21_16 N15_16 1_555 1_555
C22_16 N15_16 1_555 1_555
C23_16 N16_16 1_555 1_555
C24_16 N16_16 1_555 1_555
C37_16 C21_16 1_555 1_555
C38_16 C22_16 1_555 1_555
C39_16 C23_16 1_555 1_555
C40_16 C24_16 1_555 1_555
O7_16 C37_16 1_555 1_555
C47_16 C37_16 1_555 1_555
O8_16 C39_16 1_555 1_555
C48_16 C39_16 1_555 1_555
C52_16 O7_16 1_555 1_555
C53_16 O8_16 1_555 1_555
O12_16 C52_16 1_555 1_555
C57_16 C52_16 1_555 1_555
O13_16 C53_16 1_555 1_555
C58_16 C53_16 1_555 1_555
O15_16 C70_16 1_555 1_555
C84_16 C70_16 1_555 1_555
C36_16 C46_16 1_555 1_555
C38_16 C47_16 1_555 1_555
C40_16 C48_16 1_555 1_555
C57_16 H8_16 1_555 1_555
C57_16 H9_16 1_555 1_555
C57_16 H10_16 1_555 1_555
C58_16 H16_16 1_555 1_555
C58_16 H17_16 1_555 1_555
C58_16 H18_16 1_555 1_555
C84_16 H29_16 1_555 1_555
C23_16 H68_16 1_555 1_555
C22_16 H73_16 1_555 1_555
C24_16 H76_16 1_555 1_555
C21_16 H83_16 1_555 1_555
C36_16 H89_16 1_555 1_555
C46_16 H93_16 1_555 1_555
C48_16 H96_16 1_555 1_555
C38_16 H97_16 1_555 1_555
C40_16 H99_16 1_555 1_555
C47_16 H100_16 1_555 1_555
O1_9 H47_26 1_555 1_555
N13_17 Fe6_9 1_555 1_555
N14_17 Fe6_9 1_555 1_555
N15_17 Fe7_7 1_555 1_555
N16_17 Fe7_7 1_555 1_555
C17_17 N13_17 1_555 1_555
C18_17 N13_17 1_555 1_555
C19_17 N14_17 1_555 1_555
C20_17 N14_17 1_555 1_555
C21_17 N15_17 1_555 1_555
C22_17 N15_17 1_555 1_555
C23_17 N16_17 1_555 1_555
C24_17 N16_17 1_555 1_555
C33_17 C17_17 1_555 1_555
C34_17 C18_17 1_555 1_555
C35_17 C19_17 1_555 1_555
C36_17 C20_17 1_555 1_555
C37_17 C21_17 1_555 1_555
C38_17 C22_17 1_555 1_555
C39_17 C23_17 1_555 1_555
C40_17 C24_17 1_555 1_555
O5_17 C33_17 1_555 1_555
C45_17 C33_17 1_555 1_555
O6_17 C35_17 1_555 1_555
C46_17 C35_17 1_555 1_555
O7_17 C37_17 1_555 1_555
C47_17 C37_17 1_555 1_555
O8_17 C39_17 1_555 1_555
C48_17 C39_17 1_555 1_555
C52_17 O7_17 1_555 1_555
C53_17 O8_17 1_555 1_555
O12_17 C52_17 1_555 1_555
C57_17 C52_17 1_555 1_555
O13_17 C53_17 1_555 1_555
C58_17 C53_17 1_555 1_555
N18_17 Fe6_9 1_555 1_555
N19_17 Fe6_9 1_555 1_555
N21_17 Fe7_7 1_555 1_555
N22_17 Fe7_7 1_555 1_555
C60_17 N18_17 1_555 1_555
C61_17 N18_17 1_555 1_555
C62_17 N19_17 1_555 1_555
C63_17 N19_17 1_555 1_555
C64_17 N21_17 1_555 1_555
C65_17 N21_17 1_555 1_555
C66_17 N22_17 1_555 1_555
C67_17 N22_17 1_555 1_555
C68_17 C60_17 1_555 1_555
C69_17 C61_17 1_555 1_555
C70_17 C62_17 1_555 1_555
C71_17 C63_17 1_555 1_555
C72_17 C64_17 1_555 1_555
C73_17 C65_17 1_555 1_555
C74_17 C66_17 1_555 1_555
C75_17 C67_17 1_555 1_555
O14_17 C68_17 1_555 1_555
C83_17 C68_17 1_555 1_555
O15_17 C70_17 1_555 1_555
C84_17 C70_17 1_555 1_555
O16_17 C72_17 1_555 1_555
C85_17 C72_17 1_555 1_555
O17_17 C74_17 1_555 1_555
C86_17 C74_17 1_555 1_555
C87_17 O16_17 1_555 1_555
C88_17 O17_17 1_555 1_555
O18_17 C87_17 1_555 1_555
C89_17 C87_17 1_555 1_555
O19_17 C88_17 1_555 1_555
C90_17 C88_17 1_555 1_555
C34_17 C45_17 1_555 1_555
C36_17 C46_17 1_555 1_555
C38_17 C47_17 1_555 1_555
C40_17 C48_17 1_555 1_555
C69_17 C83_17 1_555 1_555
C71_17 C84_17 1_555 1_555
C73_17 C85_17 1_555 1_555
C75_17 C86_17 1_555 1_555
C61_17 H1_17 1_555 1_555
C64_17 H2_17 1_555 1_555
C65_17 H6_17 1_555 1_555
C67_17 H7_17 1_555 1_555
C57_17 H8_17 1_555 1_555
C57_17 H9_17 1_555 1_555
C57_17 H10_17 1_555 1_555
C66_17 H11_17 1_555 1_555
C60_17 H15_17 1_555 1_555
C58_17 H16_17 1_555 1_555
C58_17 H17_17 1_555 1_555
C58_17 H18_17 1_555 1_555
C62_17 H19_17 1_555 1_555
C63_17 H20_17 1_555 1_555
C75_17 H24_17 1_555 1_555
C83_17 H25_17 1_555 1_555
C73_17 H26_17 1_555 1_555
C69_17 H27_17 1_555 1_555
O14_17 H28_17 1_555 1_555
C84_17 H29_17 1_555 1_555
C71_17 H30_17 1_555 1_555
O15_17 H31_17 1_555 1_555
C85_17 H32_17 1_555 1_555
C86_17 H33_17 1_555 1_555
C90_17 H34_17 1_555 1_555
C90_17 H35_17 1_555 1_555
C90_17 H36_17 1_555 1_555
C89_17 H37_17 1_555 1_555
C89_17 H38_17 1_555 1_555
C89_17 H39_17 1_555 1_555
C17_17 H66_17 1_555 1_555
C23_17 H68_17 1_555 1_555
C19_17 H72_17 1_555 1_555
C22_17 H73_17 1_555 1_555
C24_17 H76_17 1_555 1_555
C20_17 H78_17 1_555 1_555
C18_17 H82_17 1_555 1_555
C21_17 H83_17 1_555 1_555
C34_17 H85_17 1_555 1_555
O5_17 H87_17 1_555 1_555
O20_7 H88_26 1_555 1_555
C36_17 H89_17 1_555 1_555
C46_17 H93_17 1_555 1_555
C45_17 H95_17 1_555 1_555
C48_17 H96_17 1_555 1_555
C38_17 H97_17 1_555 1_555
O6_17 H98_17 1_555 1_555
C40_17 H99_17 1_555 1_555
C47_17 H100_17 1_555 1_555
N15_18 Fe7_8 1_555 1_555
N16_18 Fe7_8 1_555 1_555
C21_18 N15_18 1_555 1_555
C22_18 N15_18 1_555 1_555
C23_18 N16_18 1_555 1_555
C24_18 N16_18 1_555 1_555
C37_18 C21_18 1_555 1_555
C38_18 C22_18 1_555 1_555
C39_18 C23_18 1_555 1_555
C40_18 C24_18 1_555 1_555
O7_18 C37_18 1_555 1_555
C47_18 C37_18 1_555 1_555
O8_18 C39_18 1_555 1_555
C48_18 C39_18 1_555 1_555
C52_18 O7_18 1_555 1_555
C53_18 O8_18 1_555 1_555
O12_18 C52_18 1_555 1_555
C57_18 C52_18 1_555 1_555
O13_18 C53_18 1_555 1_555
C58_18 C53_18 1_555 1_555
O15_18 C70_18 1_555 1_555
C84_18 C70_18 1_555 1_555
C36_18 C46_18 1_555 1_555
C38_18 C47_18 1_555 1_555
C40_18 C48_18 1_555 1_555
C57_18 H8_18 1_555 1_555
C57_18 H9_18 1_555 1_555
C57_18 H10_18 1_555 1_555
C58_18 H16_18 1_555 1_555
C58_18 H17_18 1_555 1_555
C58_18 H18_18 1_555 1_555
C84_18 H29_18 1_555 1_555
C23_18 H68_18 1_555 1_555
C22_18 H73_18 1_555 1_555
C24_18 H76_18 1_555 1_555
C21_18 H83_18 1_555 1_555
C36_18 H89_18 1_555 1_555
C46_18 H93_18 1_555 1_555
C48_18 H96_18 1_555 1_555
C38_18 H97_18 1_555 1_555
C40_18 H99_18 1_555 1_555
C47_18 H100_18 1_555 1_555
N13_18 Fe6_10 1_555 1_555
N14_18 Fe6_10 1_555 1_555
C17_18 N13_18 1_555 1_555
C18_18 N13_18 1_555 1_555
C19_18 N14_18 1_555 1_555
C20_18 N14_18 1_555 1_555
C33_18 C17_18 1_555 1_555
C34_18 C18_18 1_555 1_555
C35_18 C19_18 1_555 1_555
O5_18 C33_18 1_555 1_555
C45_18 C33_18 1_555 1_555
O6_18 C35_18 1_555 1_555
N18_18 Fe6_10 1_555 1_555
N19_18 Fe6_10 1_555 1_555
N21_18 Fe7_9 1_555 1_555
N22_18 Fe7_9 1_555 1_555
C60_18 N18_18 1_555 1_555
C61_18 N18_18 1_555 1_555
C62_18 N19_18 1_555 1_555
C63_18 N19_18 1_555 1_555
C64_18 N21_18 1_555 1_555
C65_18 N21_18 1_555 1_555
C66_18 N22_18 1_555 1_555
C67_18 N22_18 1_555 1_555
C68_18 C60_18 1_555 1_555
C69_18 C61_18 1_555 1_555
C71_18 C63_18 1_555 1_555
C72_18 C64_18 1_555 1_555
C73_18 C65_18 1_555 1_555
C74_18 C66_18 1_555 1_555
C75_18 C67_18 1_555 1_555
O14_18 C68_18 1_555 1_555
C83_18 C68_18 1_555 1_555
O16_18 C72_18 1_555 1_555
C85_18 C72_18 1_555 1_555
O17_18 C74_18 1_555 1_555
C86_18 C74_18 1_555 1_555
C87_18 O16_18 1_555 1_555
C88_18 O17_18 1_555 1_555
O18_18 C87_18 1_555 1_555
C89_18 C87_18 1_555 1_555
O19_18 C88_18 1_555 1_555
C90_18 C88_18 1_555 1_555
C34_18 C45_18 1_555 1_555
C69_18 C83_18 1_555 1_555
C73_18 C85_18 1_555 1_555
C75_18 C86_18 1_555 1_555
C61_18 H1_18 1_555 1_555
C64_18 H2_18 1_555 1_555
C65_18 H6_18 1_555 1_555
C67_18 H7_18 1_555 1_555
C66_18 H11_18 1_555 1_555
C60_18 H15_18 1_555 1_555
C62_18 H19_18 1_555 1_555
C63_18 H20_18 1_555 1_555
C75_18 H24_18 1_555 1_555
C83_18 H25_18 1_555 1_555
C73_18 H26_18 1_555 1_555
C69_18 H27_18 1_555 1_555
O14_18 H28_18 1_555 1_555
C85_18 H32_18 1_555 1_555
C86_18 H33_18 1_555 1_555
C90_18 H34_18 1_555 1_555
C90_18 H35_18 1_555 1_555
C90_18 H36_18 1_555 1_555
C89_18 H37_18 1_555 1_555
C89_18 H38_18 1_555 1_555
C89_18 H39_18 1_555 1_555
C17_18 H66_18 1_555 1_555
C19_18 H72_18 1_555 1_555
C18_18 H82_18 1_555 1_555
C34_18 H85_18 1_555 1_555
O5_18 H87_18 1_555 1_555
O20_8 H88_27 1_555 1_555
C45_18 H95_18 1_555 1_555
O6_18 H98_18 1_555 1_555
O1_7 H47_27 1_555 1_555
O1_15 H47_28 1_555 1_555
O20_14 H88_28 1_555 1_555
O1_13 H47_29 1_555 1_555
O20_15 H88_29 1_555 1_555
O1_14 H47_30 1_555 1_555
O20_13 H88_30 1_555 1_555
O1_12 H47_31 1_555 1_555
O20_11 H88_31 1_555 1_555
O1_10 H47_32 1_555 1_555
O20_12 H88_32 1_555 1_555
O1_11 H47_33 1_555 1_555
O20_10 H88_33 1_555 1_555
O1_18 H47_34 1_555 1_555
O20_17 H88_34 1_555 1_555
O20_18 H88_35 1_555 1_555
O1_16 H47_35 1_555 1_555
O1_17 H47_36 1_555 1_555
O20_16 H88_36 1_555 1_555

#END
