
###############################################################################
#
# This file contains modified crystal structure data generated from the
# MOF subset of the Cambridge Structural Database (CSD) v543 
# hosted by the Cambridge Crystallographic Data Centre (CCDC).
#
# This work is licensed under the Creative Commons
# Attribution-NonCommercial-ShareAlike 4.0 International License.
# To view a copy of this license, visit
# http://creativecommons.org/licenses/by-nc-sa/4.0/
# or send a letter to
# Creative Commons, PO Box 1866, Mountain View, CA 94042, USA.
#
# CIF created using the CSD Python API on 29 September 2022
# The structure has been converted into the P1 space group
# The structure has a 3D framework
# The original CSD entry BODCUV04 is in the rhombohedral crystal system
# The framework has been calculated to contain at least 10.0% void space
# The void calculation uses a probe of radius 1.32A, grid spacing 0.4
# H atom positions have been added when not included in the experimental data
#
###############################################################################

data_BODCUV04
_chemical_formula_moiety         '(C2088 H1836 Fe80 N573 Nb36 O468)n'
_symmetry_cell_setting           triclinic
_symmetry_space_group_name_H-M   'P 1'
_symmetry_Int_Tables_number      1
_space_group_name_Hall           'P 1'
loop_
_symmetry_equiv_pos_site_id
_symmetry_equiv_pos_as_xyz
1 x,y,z
_cell_length_a                   46.386(11)
_cell_length_b                   46.386(11)
_cell_length_c                   32.302(11)
_cell_angle_alpha                90
_cell_angle_beta                 90
_cell_angle_gamma                120
_cell_volume                     60191.3
loop_
_atom_site_label
_atom_site_type_symbol
_atom_site_fract_x
_atom_site_fract_y
_atom_site_fract_z
_atom_site_U_iso_or_equiv
_atom_site_thermal_displace_type
Nb1 Nb 0.321879 0.466373 0.078892 0.0063 Uiso
C1 C 0.289896 0.469944 0.124703 0.0127 Uiso
C2 C 0.300442 0.413473 0.075694 0.0127 Uiso
C3 C 0.327850 0.464096 0.012719 0.0127 Uiso
C4 C 0.360476 0.510420 0.107599 0.0127 Uiso
C5 C 0.272841 0.446463 0.051202 0.0127 Uiso
C6 C 0.332371 0.450630 0.138744 0.0127 Uiso
C7 C 0.366646 0.463841 0.066824 0.0127 Uiso
C8 C 0.321818 0.509804 0.053274 0.0127 Uiso
N1 N 0.271876 0.471293 0.147420 0.0127 Uiso
N2 N 0.289148 0.384997 0.075486 0.0127 Uiso
N4 N 0.381403 0.533180 0.124239 0.0127 Uiso
N5 N 0.246627 0.434632 0.036038 0.0127 Uiso
N6 N 0.337329 0.441883 0.170303 0.0127 Uiso
N7 N 0.390300 0.462444 0.059492 0.0127 Uiso
N8 N 0.321766 0.532809 0.040164 0.0127 Uiso
Fe1 Fe 0.235941 0.477968 0.178993 0.0063 Uiso
Fe2 Fe 0.263340 0.333333 0.083333 0.0063 Uiso
N9 N 0.226770 0.499273 0.120655 0.0127 Uiso
N10 N 0.195129 0.428828 0.155852 0.0127 Uiso
N11 N 0.241993 0.453621 0.237542 0.0127 Uiso
N12 N 0.275909 0.528072 0.202192 0.0127 Uiso
N13 N 0.225509 0.328052 0.035457 0.0127 Uiso
N14 N 0.296537 0.330289 0.035018 0.0127 Uiso
C9 C 0.247567 0.510117 0.087817 0.0127 Uiso
C10 C 0.198879 0.501585 0.117882 0.0127 Uiso
C11 C 0.165003 0.412284 0.174868 0.0127 Uiso
C12 C 0.199903 0.414679 0.121922 0.0127 Uiso
C13 C 0.258265 0.437659 0.236680 0.0127 Uiso
C14 C 0.229052 0.454515 0.275382 0.0127 Uiso
C15 C 0.270578 0.540387 0.237515 0.0127 Uiso
C16 C 0.304869 0.546389 0.182596 0.0127 Uiso
C17 C 0.224416 0.355629 0.025251 0.0127 Uiso
C18 C 0.204150 0.299664 0.016380 0.0127 Uiso
C19 C 0.284137 0.304300 0.009007 0.0127 Uiso
C20 C 0.328953 0.353815 0.030770 0.0127 Uiso
C25 C 0.242084 0.523355 0.051517 0.0127 Uiso
C26 C 0.191842 0.514520 0.082626 0.0127 Uiso
C27 C 0.139856 0.382096 0.160665 0.0127 Uiso
C28 C 0.175170 0.384113 0.106339 0.0127 Uiso
C29 C 0.261985 0.422740 0.272221 0.0127 Uiso
C30 C 0.232014 0.440524 0.310322 0.0127 Uiso
C31 C 0.293627 0.570390 0.253059 0.0127 Uiso
C32 C 0.329684 0.577347 0.196641 0.0127 Uiso
C36 C 0.349387 0.352041 0.001147 0.0127 Uiso
O1 O 0.263995 0.534184 0.018477 0.0127 Uiso
C41 C 0.213746 0.525704 0.048566 0.0127 Uiso
O2 O 0.110753 0.368669 0.183781 0.0127 Uiso
C42 C 0.144933 0.367496 0.125461 0.0127 Uiso
O3 O 0.280233 0.405463 0.269315 0.0127 Uiso
C43 C 0.249042 0.423702 0.309910 0.0127 Uiso
O4 O 0.284799 0.581492 0.292807 0.0127 Uiso
C44 C 0.324013 0.589971 0.233242 0.0127 Uiso
C49 C 0.098189 0.341866 0.204534 0.0127 Uiso
C50 C 0.312509 0.425288 0.287216 0.0127 Uiso
C51 C 0.277725 0.602644 0.283329 0.0127 Uiso
C53 C 0.445481 0.450137 0.011292 0.0127 Uiso
O9 O 0.095246 0.315099 0.190012 0.0127 Uiso
C54 C 0.087057 0.343826 0.247213 0.0127 Uiso
O10 O 0.316765 0.445337 0.314800 0.0127 Uiso
C55 C 0.341933 0.421519 0.271963 0.0127 Uiso
O11 O 0.280219 0.616722 0.253170 0.0127 Uiso
C56 C 0.262700 0.610081 0.321584 0.0127 Uiso
O13 O 0.422291 0.427270 0.028524 0.0127 Uiso
C58 C 0.480783 0.457913 0.016767 0.0127 Uiso
Fe4 Fe 0.424640 0.569274 0.154340 0.0063 Uiso
N17 N 0.199847 0.485110 0.209094 0.0127 Uiso
N18 N 0.230790 0.338615 0.131210 0.0127 Uiso
N19 N 0.299581 0.336378 0.131649 0.0127 Uiso
N20 N 0.237484 0.281670 0.091181 0.0127 Uiso
C59 C 0.177087 0.483277 0.225734 0.0127 Uiso
C60 C 0.202120 0.311038 0.141416 0.0127 Uiso
C61 C 0.237819 0.367003 0.150287 0.0127 Uiso
C62 C 0.313170 0.362367 0.157660 0.0127 Uiso
C63 C 0.308471 0.312852 0.135897 0.0127 Uiso
Nb2 Nb 0.133040 0.477827 0.254441 0.0063 Uiso
C68 C 0.179716 0.310436 0.170167 0.0127 Uiso
C69 C 0.215960 0.367791 0.179706 0.0127 Uiso
C70 C 0.335715 0.366108 0.188344 0.0127 Uiso
C71 C 0.330679 0.314626 0.165520 0.0127 Uiso
C76 C 0.136611 0.513381 0.208630 0.0127 Uiso
C77 C 0.080140 0.446364 0.257639 0.0127 Uiso
C78 C 0.130763 0.469579 0.320614 0.0127 Uiso
C79 C 0.113130 0.506955 0.282131 0.0127 Uiso
C80 C 0.117297 0.451592 0.194589 0.0127 Uiso
C81 C 0.130508 0.430528 0.266509 0.0127 Uiso
C82 C 0.176471 0.521319 0.280059 0.0127 Uiso
O14 O 0.151027 0.282002 0.179485 0.0127 Uiso
C83 C 0.187254 0.340106 0.189788 0.0127 Uiso
O15 O 0.349009 0.393199 0.214289 0.0127 Uiso
C84 C 0.344668 0.341691 0.192358 0.0127 Uiso
N24 N 0.137960 0.532750 0.185913 0.0127 Uiso
N25 N 0.051664 0.429182 0.257847 0.0127 Uiso
N26 N 0.129782 0.466919 0.356497 0.0127 Uiso
N27 N 0.101299 0.521338 0.297295 0.0127 Uiso
N28 N 0.108550 0.437887 0.163030 0.0127 Uiso
N29 N 0.129111 0.405477 0.273841 0.0127 Uiso
N30 N 0.199476 0.544376 0.293169 0.0127 Uiso
Fe5 Fe 0.144635 0.575360 0.154340 0.0063 Uiso
Fe6 Fe 0.000000 0.403327 0.250000 0.0063 Uiso
Fe7 Fe 0.131494 0.464827 0.416667 0.0063 Uiso
N31 N 0.165940 0.605836 0.212678 0.0127 Uiso
N32 N 0.095495 0.567032 0.177481 0.0127 Uiso
N33 N 0.120288 0.544961 0.095791 0.0127 Uiso
N34 N 0.194739 0.585496 0.131141 0.0127 Uiso
N35 N 0.151777 0.618597 0.124239 0.0127 Uiso
C91 C 0.176784 0.595883 0.245516 0.0127 Uiso
C92 C 0.168252 0.636039 0.215451 0.0127 Uiso
C93 C 0.078951 0.580614 0.158465 0.0127 Uiso
C94 C 0.081346 0.548109 0.211411 0.0127 Uiso
C95 C 0.104326 0.512727 0.096653 0.0127 Uiso
C96 C 0.121182 0.558796 0.057951 0.0127 Uiso
C97 C 0.207054 0.603142 0.095818 0.0127 Uiso
C98 C 0.213056 0.574853 0.150737 0.0127 Uiso
C99 C 0.190022 0.614604 0.281816 0.0127 Uiso
C100 C 0.181187 0.656011 0.250707 0.0127 Uiso
C101 C 0.048763 0.575573 0.172668 0.0127 Uiso
C102 C 0.050780 0.542276 0.226994 0.0127 Uiso
C103 C 0.089407 0.494088 0.061112 0.0127 Uiso
C104 C 0.107191 0.541843 0.023011 0.0127 Uiso
C105 C 0.237057 0.610096 0.080274 0.0127 Uiso
C106 C 0.244014 0.580996 0.136692 0.0127 Uiso
O20 O 0.200851 0.603522 0.314856 0.0127 Uiso
C107 C 0.192371 0.645291 0.284767 0.0127 Uiso
O21 O 0.035336 0.591249 0.149552 0.0127 Uiso
C108 C 0.034163 0.555896 0.207872 0.0127 Uiso
O22 O 0.072130 0.458563 0.064018 0.0127 Uiso
C109 C 0.090369 0.507993 0.023423 0.0127 Uiso
O23 O 0.248159 0.630026 0.040526 0.0127 Uiso
C110 C 0.256638 0.599291 0.100091 0.0127 Uiso
C111 C 0.008533 0.577010 0.128799 0.0127 Uiso
C112 C 0.091955 0.446112 0.046117 0.0127 Uiso
C113 C 0.269311 0.658252 0.050004 0.0127 Uiso
C114 C 0.010493 0.590102 0.086120 0.0127 Uiso
O25 O 0.112004 0.461905 0.018533 0.0127 Uiso
C115 C 0.088186 0.412919 0.061370 0.0127 Uiso
O26 O 0.283389 0.669836 0.080163 0.0127 Uiso
C116 C 0.276748 0.680714 0.011749 0.0127 Uiso
H1 H 0.270152 0.508485 0.0896032 . .
H2 H 0.21518 0.467707 0.277252 . .
H3 H 0.26924 0.435852 0.207688 . .
H4 H 0.181477 0.493171 0.143728 . .
H5 H 0.3093 0.536598 0.154154 . .
H6 H 0.223852 0.427541 0.106177 . .
H7 H 0.247136 0.525824 0.253948 . .
H8 H 0.16059 0.423246 0.202234 . .
H9 H 0.266331 0.515393 0.00774803 . .
H10 H 0.208457 0.535798 0.0210219 . .
H11 H 0.204344 0.276858 0.0237856 . .
H13 H 0.2208 0.442645 0.338939 . .
H16 H 0.339354 0.375083 0.0516714 . .
H18 H 0.258062 0.285214 0.0121079 . .
H20 H 0.241741 0.37887 0.0405515 . .
H21 H 0.180033 0.373552 0.0789187 . .
H23 H 0.16913 0.515958 0.08151 . .
H26 H 0.35291 0.591389 0.179608 . .
H27 H 0.125366 0.343656 0.113758 . .
H32 H 0.0680824 0.351069 0.245627 . .
H33 H 0.0767478 0.319608 0.262139 . .
H34 H 0.108209 0.362233 0.26505 . .
H36 H 0.345912 0.427355 0.239076 . .
H37 H 0.36431 0.438513 0.28907 . .
H38 H 0.33637 0.396026 0.276964 . .
H39 H 0.342545 0.614033 0.245651 . .
H41 H 0.25213 0.411928 0.337407 . .
H42 H 0.280846 0.619133 0.34663 . .
H43 H 0.256185 0.628958 0.313796 . .
H44 H 0.240446 0.587411 0.331374 . .
H48 H 0.495643 0.482922 0.0293281 . .
H49 H 0.48142 0.440014 0.0380169 . .
H51 H 0.196205 0.287797 0.126115 . .
H53 H 0.306181 0.381452 0.154559 . .
H56 H 0.156359 0.265214 0.19047 . .
H59 H 0.170434 0.340941 0.212652 . .
H61 H 0.330821 0.393733 0.229852 . .
H62 H 0.362295 0.343767 0.216074 . .
H65 H 0.260819 0.389809 0.142881 . .
H66 H 0.297604 0.291583 0.114995 . .
H67 H 0.222316 0.391259 0.19471 . .
H68 H 0.337174 0.295139 0.167878 . .
H69 H 0.175152 0.571666 0.24373 . .
H70 H 0.0899125 0.595989 0.1311 . .
H71 H 0.192491 0.612021 0.0793851 . .
H72 H 0.134374 0.585861 0.056081 . .
H76 H 0.0942072 0.537022 0.227156 . .
H77 H 0.102519 0.499945 0.125645 . .
H78 H 0.182624 0.680161 0.251823 . .
H79 H 0.203264 0.560631 0.179179 . .
H80 H 0.159837 0.645027 0.189605 . .
H84 H 0.202465 0.660674 0.312311 . .
H85 H 0.0288993 0.587357 0.0682831 . .
H87 H 0.0177361 0.61632 0.0877066 . .
H88 H 0.0103222 0.551623 0.219575 . .
H89 H 0.0626924 0.392989 0.0563692 . .
H90 H 0.105179 0.407536 0.044263 . .
H91 H 0.0940217 0.414776 0.0942576 . .
H93 H 0.258056 0.571813 0.153725 . .
H94 H 0.254078 0.680299 0.00195915 . .
H95 H 0.295624 0.706106 0.0195371 . .
H97 H 0.0402184 0.526852 0.254415 . .
H99 H 0.280699 0.604821 0.087682 . .
H100 H 0.21905 0.59966 0.305568 . .
N3 N 0.329529 0.463115 0.976836 0.0127 Uiso
Fe3 Fe 0.333333 0.464827 0.916667 0.0063 Uiso
N15 N 0.368188 0.513283 0.921763 0.0127 Uiso
N16 N 0.368711 0.451699 0.920549 0.0127 Uiso
C21 C 0.396040 0.527528 0.898302 0.0127 Uiso
C22 C 0.364029 0.532942 0.949842 0.0127 Uiso
C23 C 0.392678 0.464275 0.950310 0.0127 Uiso
C24 C 0.369458 0.429661 0.893268 0.0127 Uiso
C33 C 0.202614 0.356231 0.996500 0.0127 Uiso
C34 C 0.181503 0.298876 0.986961 0.0127 Uiso
C35 C 0.302941 0.300559 0.978323 0.0127 Uiso
C37 C 0.419342 0.560614 0.902501 0.0127 Uiso
C38 C 0.386790 0.566154 0.954965 0.0127 Uiso
C39 C 0.416791 0.455528 0.953271 0.0127 Uiso
C40 C 0.392918 0.420306 0.895076 0.0127 Uiso
O5 O 0.202359 0.384665 0.987182 0.0127 Uiso
C45 C 0.180482 0.326561 0.976879 0.0127 Uiso
O6 O 0.289144 0.273468 0.952378 0.0127 Uiso
C46 C 0.336311 0.324976 0.974309 0.0127 Uiso
O7 O 0.447770 0.573906 0.877137 0.0127 Uiso
C47 C 0.415074 0.580527 0.931012 0.0127 Uiso
O8 O 0.440271 0.470315 0.985480 0.0127 Uiso
C48 C 0.417473 0.433150 0.925481 0.0127 Uiso
C52 C 0.476306 0.576959 0.893918 0.0127 Uiso
O12 O 0.477865 0.570634 0.930126 0.0127 Uiso
C57 C 0.506965 0.588612 0.866402 0.0127 Uiso
N21 N 0.298479 0.478428 0.911570 0.0127 Uiso
N22 N 0.297956 0.416321 0.912784 0.0127 Uiso
N23 N 0.337138 0.466919 0.856497 0.0127 Uiso
C64 C 0.270627 0.464821 0.935031 0.0127 Uiso
C65 C 0.302638 0.502246 0.883491 0.0127 Uiso
C66 C 0.273989 0.404930 0.883023 0.0127 Uiso
C67 C 0.297209 0.393536 0.940065 0.0127 Uiso
C72 C 0.247325 0.474605 0.930832 0.0127 Uiso
C73 C 0.279877 0.512697 0.878368 0.0127 Uiso
C74 C 0.249876 0.372070 0.880062 0.0127 Uiso
C75 C 0.273749 0.360721 0.938257 0.0127 Uiso
O16 O 0.218897 0.459469 0.956196 0.0127 Uiso
C85 C 0.251593 0.498786 0.902321 0.0127 Uiso
O17 O 0.226396 0.363377 0.847853 0.0127 Uiso
C86 C 0.249194 0.349010 0.907852 0.0127 Uiso
C87 C 0.190361 0.433986 0.939415 0.0127 Uiso
C88 C 0.221186 0.337989 0.822041 0.0127 Uiso
O18 O 0.188802 0.426102 0.903207 0.0127 Uiso
C89 C 0.159702 0.414980 0.966931 0.0127 Uiso
O19 O 0.244376 0.338312 0.804809 0.0127 Uiso
C90 C 0.185884 0.310463 0.816566 0.0127 Uiso
H12 H 0.400062 0.51249 0.875671 . .
H14 H 0.164391 0.275408 0.971956 . .
H15 H 0.382471 0.580905 0.977724 . .
H17 H 0.341715 0.521812 0.968987 . .
H19 H 0.350566 0.419162 0.869137 . .
H22 H 0.3925 0.402626 0.872563 . .
H24 H 0.3927 0.481919 0.972568 . .
H25 H 0.375368 0.371527 0.998789 . .
H28 H 0.351861 0.322899 0.950592 . .
H29 H 0.433585 0.606778 0.934327 . .
H30 H 0.436431 0.425897 0.92733 . .
H31 H 0.224478 0.401453 0.976197 . .
H35 H 0.162827 0.325726 0.954015 . .
H40 H 0.270422 0.272934 0.936815 . .
H45 H 0.514455 0.613266 0.854225 . .
H46 H 0.527248 0.58964 0.884542 . .
H47 H 0.501037 0.571233 0.840834 . .
H50 H 0.490903 0.456445 0.986929 . .
H52 H 0.266605 0.445761 0.957662 . .
H54 H 0.274166 0.343459 0.96077 . .
H55 H 0.273967 0.422552 0.860765 . .
H57 H 0.233082 0.506526 0.899007 . .
H58 H 0.324951 0.51343 0.864347 . .
H60 H 0.284196 0.531768 0.855609 . .
H63 H 0.3161 0.401929 0.964197 . .
H64 H 0.230236 0.322799 0.906003 . .
H73 H 0.171024 0.320613 0.804005 . .
H74 H 0.185247 0.291927 0.795316 . .
H75 H 0.175764 0.298876 0.846404 . .
H81 H 0.152211 0.432144 0.979108 . .
H82 H 0.139419 0.395726 0.948792 . .
H83 H 0.16563 0.403529 0.992499 . .
H92 H 0.109311 0.555178 0.994395 . .
H96 H 0.2858 0.67162 0.986703 . .
H98 H 0.0785951 0.493131 0.995926 . .
Fe6_2 Fe 1.000000 0.403327 0.250000 0.0063 Uiso
O24 O 0.981766 0.553186 0.143321 0.0127 Uiso
H86 H 0.986274 0.576193 0.0711948 . .
C58_2 C 0.542087 0.022870 0.016767 0.0127 Uiso
C71_2 C 0.685374 0.016054 0.165520 0.0127 Uiso
C84_2 C 0.658309 0.002978 0.192358 0.0127 Uiso
H48_2 H 0.517078 0.0127202 0.0293281 . .
H49_2 H 0.559986 0.0414062 0.0380169 . .
H62_2 H 0.656233 0.0185274 0.216074 . .
H66_2 H 0.708417 0.00602085 0.114995 . .
H68_2 H 0.704861 0.0420351 0.167878 . .
C35_2 C 0.699441 0.002382 0.978323 0.0127 Uiso
O6_2 O 0.726532 0.015676 0.952378 0.0127 Uiso
C46_2 C 0.675024 0.011335 0.974309 0.0127 Uiso
H25_2 H 0.628473 0.00384105 0.998789 . .
H28_2 H 0.677101 0.0289613 0.950592 . .
H30_2 H 0.574103 0.0105339 0.92733 . .
H50_2 H 0.543555 0.0344577 0.986929 . .
Nb1_2 Nb 0.533627 0.855506 0.078892 0.0063 Uiso
C1_2 C 0.530056 0.819952 0.124703 0.0127 Uiso
C2_2 C 0.586527 0.886969 0.075694 0.0127 Uiso
C3_2 C 0.535904 0.863754 0.012719 0.0127 Uiso
C4_2 C 0.489580 0.850056 0.107599 0.0127 Uiso
C5_2 C 0.553537 0.826378 0.051202 0.0127 Uiso
C6_2 C 0.549370 0.881741 0.138744 0.0127 Uiso
C7_2 C 0.536159 0.902805 0.066824 0.0127 Uiso
C8_2 C 0.490196 0.812014 0.053274 0.0127 Uiso
N1_2 N 0.528707 0.800583 0.147420 0.0127 Uiso
N2_2 N 0.615003 0.904151 0.075486 0.0127 Uiso
N4_2 N 0.466820 0.848223 0.124239 0.0127 Uiso
N5_2 N 0.565368 0.811995 0.036038 0.0127 Uiso
N6_2 N 0.558117 0.895446 0.170303 0.0127 Uiso
N7_2 N 0.537556 0.927856 0.059492 0.0127 Uiso
N8_2 N 0.467191 0.788957 0.040164 0.0127 Uiso
Fe1_2 Fe 0.522032 0.757973 0.178993 0.0063 Uiso
Fe2_2 Fe 0.666667 0.930007 0.083333 0.0063 Uiso
N9_2 N 0.500727 0.727497 0.120655 0.0127 Uiso
N10_2 N 0.571172 0.766301 0.155852 0.0127 Uiso
N11_2 N 0.546379 0.788372 0.237542 0.0127 Uiso
N12_2 N 0.471928 0.747837 0.202192 0.0127 Uiso
N13_2 N 0.671948 0.897457 0.035457 0.0127 Uiso
N14_2 N 0.669711 0.966248 0.035018 0.0127 Uiso
C9_2 C 0.489883 0.737450 0.087817 0.0127 Uiso
C10_2 C 0.498415 0.697294 0.117882 0.0127 Uiso
C11_2 C 0.587716 0.752719 0.174868 0.0127 Uiso
C12_2 C 0.585321 0.785224 0.121922 0.0127 Uiso
C13_2 C 0.562341 0.820606 0.236680 0.0127 Uiso
C14_2 C 0.545485 0.774537 0.275382 0.0127 Uiso
C15_2 C 0.459613 0.730191 0.237515 0.0127 Uiso
C16_2 C 0.453611 0.758480 0.182596 0.0127 Uiso
C17_2 C 0.644371 0.868787 0.025251 0.0127 Uiso
C18_2 C 0.700336 0.904486 0.016380 0.0127 Uiso
C19_2 C 0.695700 0.979837 0.009007 0.0127 Uiso
C20_2 C 0.646185 0.975138 0.030770 0.0127 Uiso
C25_2 C 0.476645 0.718729 0.051517 0.0127 Uiso
C26_2 C 0.485480 0.677322 0.082626 0.0127 Uiso
C27_2 C 0.617904 0.757760 0.160665 0.0127 Uiso
C28_2 C 0.615887 0.791057 0.106339 0.0127 Uiso
C29_2 C 0.577260 0.839245 0.272221 0.0127 Uiso
C30_2 C 0.559476 0.791490 0.310322 0.0127 Uiso
C31_2 C 0.429610 0.723237 0.253059 0.0127 Uiso
C32_2 C 0.422653 0.752337 0.196641 0.0127 Uiso
C36_2 C 0.647959 0.997346 0.001147 0.0127 Uiso
O1_2 O 0.465816 0.729811 0.018477 0.0127 Uiso
C41_2 C 0.474296 0.688042 0.048566 0.0127 Uiso
O2_2 O 0.631331 0.742084 0.183781 0.0127 Uiso
C42_2 C 0.632504 0.777437 0.125461 0.0127 Uiso
O3_2 O 0.594537 0.874770 0.269315 0.0127 Uiso
C43_2 C 0.576298 0.825340 0.309910 0.0127 Uiso
O4_2 O 0.418508 0.703307 0.292807 0.0127 Uiso
C44_2 C 0.410029 0.734042 0.233242 0.0127 Uiso
C49_2 C 0.658134 0.756323 0.204534 0.0127 Uiso
C50_2 C 0.574712 0.887221 0.287216 0.0127 Uiso
C51_2 C 0.397356 0.675081 0.283329 0.0127 Uiso
C53_2 C 0.549863 0.995344 0.011292 0.0127 Uiso
O9_2 O 0.684901 0.780147 0.190012 0.0127 Uiso
C54_2 C 0.656174 0.743231 0.247213 0.0127 Uiso
O10_2 O 0.554663 0.871428 0.314800 0.0127 Uiso
C55_2 C 0.578481 0.920414 0.271963 0.0127 Uiso
O11_2 O 0.383278 0.663497 0.253170 0.0127 Uiso
C56_2 C 0.389919 0.652619 0.321584 0.0127 Uiso
O13_2 O 0.572730 0.995021 0.028524 0.0127 Uiso
Fe4_2 Fe 0.430726 0.855365 0.154340 0.0063 Uiso
N17_2 N 0.514890 0.714736 0.209094 0.0127 Uiso
N18_2 N 0.661385 0.892176 0.131210 0.0127 Uiso
N19_2 N 0.663622 0.963204 0.131649 0.0127 Uiso
N20_2 N 0.718330 0.955815 0.091181 0.0127 Uiso
C59_2 C 0.516723 0.693809 0.225734 0.0127 Uiso
C60_2 C 0.688962 0.891083 0.141416 0.0127 Uiso
C61_2 C 0.632997 0.870817 0.150287 0.0127 Uiso
C62_2 C 0.637633 0.950804 0.157660 0.0127 Uiso
C63_2 C 0.687148 0.995620 0.135897 0.0127 Uiso
Nb2_2 Nb 0.522173 0.655212 0.254441 0.0063 Uiso
C68_2 C 0.689564 0.869281 0.170167 0.0127 Uiso
C69_2 C 0.632209 0.848170 0.179706 0.0127 Uiso
C70_2 C 0.633892 0.969608 0.188344 0.0127 Uiso
C76_2 C 0.486619 0.623229 0.208630 0.0127 Uiso
C77_2 C 0.553636 0.633775 0.257639 0.0127 Uiso
C78_2 C 0.530421 0.661183 0.320614 0.0127 Uiso
C79_2 C 0.493045 0.606174 0.282131 0.0127 Uiso
C80_2 C 0.548408 0.665704 0.194589 0.0127 Uiso
C81_2 C 0.569472 0.699979 0.266509 0.0127 Uiso
C82_2 C 0.478681 0.655151 0.280059 0.0127 Uiso
O14_2 O 0.717998 0.869026 0.179485 0.0127 Uiso
C83_2 C 0.659894 0.847149 0.189788 0.0127 Uiso
O15_2 O 0.606801 0.955811 0.214289 0.0127 Uiso
N24_2 N 0.467250 0.605209 0.185913 0.0127 Uiso
N25_2 N 0.570818 0.622481 0.257847 0.0127 Uiso
N26_2 N 0.533081 0.662862 0.356497 0.0127 Uiso
N27_2 N 0.478662 0.579960 0.297295 0.0127 Uiso
N28_2 N 0.562113 0.670662 0.163030 0.0127 Uiso
N29_2 N 0.594523 0.723633 0.273841 0.0127 Uiso
N30_2 N 0.455624 0.655099 0.293169 0.0127 Uiso
Fe6_3 Fe 0.596673 0.596674 0.250000 0.0063 Uiso
Fe7_2 Fe 0.535173 0.666667 0.416667 0.0063 Uiso
N31_2 N 0.394164 0.560103 0.212678 0.0127 Uiso
N32_2 N 0.432968 0.528462 0.177481 0.0127 Uiso
N33_2 N 0.455039 0.575326 0.095791 0.0127 Uiso
N34_2 N 0.414504 0.609242 0.131141 0.0127 Uiso
C91_2 C 0.404117 0.580900 0.245516 0.0127 Uiso
C92_2 C 0.363961 0.532212 0.215451 0.0127 Uiso
C93_2 C 0.419386 0.498336 0.158465 0.0127 Uiso
C94_2 C 0.451891 0.533236 0.211411 0.0127 Uiso
C95_2 C 0.487273 0.591598 0.096653 0.0127 Uiso
C96_2 C 0.441204 0.562385 0.057951 0.0127 Uiso
C97_2 C 0.396858 0.603911 0.095818 0.0127 Uiso
C98_2 C 0.425147 0.638202 0.150737 0.0127 Uiso
C99_2 C 0.385396 0.575417 0.281816 0.0127 Uiso
C100_2 C 0.343989 0.525175 0.250707 0.0127 Uiso
C101_2 C 0.424427 0.473189 0.172668 0.0127 Uiso
C102_2 C 0.457724 0.508503 0.226994 0.0127 Uiso
C103_2 C 0.505912 0.595318 0.061112 0.0127 Uiso
C104_2 C 0.458157 0.565347 0.023011 0.0127 Uiso
C105_2 C 0.389904 0.626960 0.080274 0.0127 Uiso
C106_2 C 0.419004 0.663017 0.136692 0.0127 Uiso
O20_2 O 0.396478 0.597328 0.314856 0.0127 Uiso
C107_2 C 0.354709 0.547079 0.284767 0.0127 Uiso
O21_2 O 0.408751 0.444086 0.149552 0.0127 Uiso
C108_2 C 0.444104 0.478266 0.207872 0.0127 Uiso
O22_2 O 0.541437 0.613566 0.064018 0.0127 Uiso
C109_2 C 0.492007 0.582375 0.023423 0.0127 Uiso
O23_2 O 0.369974 0.618132 0.040526 0.0127 Uiso
C110_2 C 0.400709 0.657346 0.100091 0.0127 Uiso
C111_2 C 0.422990 0.431522 0.128799 0.0127 Uiso
C112_2 C 0.553888 0.645842 0.046117 0.0127 Uiso
C113_2 C 0.341748 0.611058 0.050004 0.0127 Uiso
O24_2 O 0.446814 0.428579 0.143321 0.0127 Uiso
C114_2 C 0.409898 0.420390 0.086120 0.0127 Uiso
O25_2 O 0.538095 0.650098 0.018533 0.0127 Uiso
C115_2 C 0.587081 0.675266 0.061370 0.0127 Uiso
O26_2 O 0.330164 0.613552 0.080163 0.0127 Uiso
C116_2 C 0.319286 0.596033 0.011749 0.0127 Uiso
H1_2 H 0.491515 0.761667 0.0896032 . .
H2_2 H 0.532293 0.747473 0.277252 . .
H3_2 H 0.564148 0.833389 0.207688 . .
H4_2 H 0.506829 0.688306 0.143728 . .
H5_2 H 0.463402 0.772702 0.154154 . .
H6_2 H 0.572459 0.796312 0.106177 . .
H7_2 H 0.474176 0.721312 0.253948 . .
H8_2 H 0.576754 0.737344 0.202234 . .
H9_2 H 0.484607 0.750938 0.00774803 . .
H10_2 H 0.464202 0.672659 0.0210219 . .
H11_2 H 0.723142 0.927486 0.0237856 . .
H13_2 H 0.557355 0.778155 0.338939 . .
H16_2 H 0.624917 0.964271 0.0516714 . .
H18_2 H 0.714786 0.972848 0.0121079 . .
H20_2 H 0.62113 0.862872 0.0405515 . .
H21_2 H 0.626448 0.806482 0.0789187 . .
H23_2 H 0.484042 0.653172 0.08151 . .
H26_2 H 0.408611 0.76152 0.179608 . .
H27_2 H 0.656344 0.78171 0.113758 . .
H32_2 H 0.648931 0.717013 0.245627 . .
H33_2 H 0.680392 0.75714 0.262139 . .
H34_2 H 0.637767 0.745976 0.26505 . .
H36_2 H 0.572645 0.918557 0.239076 . .
H37_2 H 0.561487 0.925797 0.28907 . .
H38_2 H 0.603974 0.940344 0.276964 . .
H39_2 H 0.385967 0.728513 0.245651 . .
H41_2 H 0.588072 0.840202 0.337407 . .
H42_2 H 0.380867 0.661713 0.34663 . .
H43_2 H 0.371042 0.627227 0.313796 . .
H44_2 H 0.412589 0.653035 0.331374 . .
H51_2 H 0.712203 0.908408 0.126115 . .
H53_2 H 0.618548 0.924729 0.154559 . .
H56_2 H 0.734786 0.891145 0.19047 . .
H59_2 H 0.659059 0.829494 0.212652 . .
H61_2 H 0.606267 0.937088 0.229852 . .
H65_2 H 0.610191 0.871011 0.142881 . .
H67_2 H 0.608741 0.831058 0.19471 . .
H69_2 H 0.428334 0.603486 0.24373 . .
H70_2 H 0.404011 0.493923 0.1311 . .
H71_2 H 0.387979 0.58047 0.0793851 . .
H72_2 H 0.414139 0.548513 0.056081 . .
H76_2 H 0.462978 0.557185 0.227156 . .
H77_2 H 0.500055 0.602574 0.125645 . .
H78_2 H 0.319839 0.502463 0.251823 . .
H79_2 H 0.439369 0.642633 0.179179 . .
H80_2 H 0.354973 0.51481 0.189605 . .
H84_2 H 0.339326 0.54179 0.312311 . .
H85_2 H 0.412643 0.441542 0.0682831 . .
H86_2 H 0.423807 0.410081 0.0711948 . .
H87_2 H 0.38368 0.401416 0.0877066 . .
H88_2 H 0.448377 0.458699 0.219575 . .
H89_2 H 0.607011 0.669703 0.0563692 . .
H90_2 H 0.592464 0.697643 0.044263 . .
H91_2 H 0.585224 0.679245 0.0942576 . .
H93_2 H 0.428187 0.686243 0.153725 . .
H94_2 H 0.319701 0.573779 0.00195915 . .
H95_2 H 0.293894 0.589518 0.0195371 . .
H97_2 H 0.473148 0.513367 0.254415 . .
H99_2 H 0.395179 0.675879 0.087682 . .
H100_2 H 0.40034 0.61939 0.305568 . .
N3_2 N 0.536885 0.866414 0.976836 0.0127 Uiso
Fe3_2 Fe 0.535173 0.868506 0.916667 0.0063 Uiso
N15_2 N 0.486717 0.854905 0.921763 0.0127 Uiso
N16_2 N 0.548301 0.917012 0.920549 0.0127 Uiso
C21_2 C 0.472472 0.868512 0.898302 0.0127 Uiso
C22_2 C 0.467058 0.831087 0.949842 0.0127 Uiso
C23_2 C 0.535725 0.928403 0.950310 0.0127 Uiso
C24_2 C 0.570339 0.939797 0.893268 0.0127 Uiso
C33_2 C 0.643769 0.846383 0.996500 0.0127 Uiso
C34_2 C 0.701124 0.882627 0.986961 0.0127 Uiso
C37_2 C 0.439386 0.858728 0.902501 0.0127 Uiso
C38_2 C 0.433846 0.820636 0.954965 0.0127 Uiso
C39_2 C 0.544472 0.961263 0.953271 0.0127 Uiso
C40_2 C 0.579694 0.972612 0.895076 0.0127 Uiso
O5_2 O 0.615335 0.817694 0.987182 0.0127 Uiso
C45_2 C 0.673439 0.853921 0.976879 0.0127 Uiso
O7_2 O 0.426094 0.873864 0.877137 0.0127 Uiso
C47_2 C 0.419473 0.834547 0.931012 0.0127 Uiso
O8_2 O 0.529685 0.969956 0.985480 0.0127 Uiso
C48_2 C 0.566850 0.984323 0.925481 0.0127 Uiso
C52_2 C 0.423041 0.899347 0.893918 0.0127 Uiso
O12_2 O 0.429366 0.907231 0.930126 0.0127 Uiso
C57_2 C 0.411388 0.918353 0.866402 0.0127 Uiso
N21_2 N 0.521572 0.820050 0.911570 0.0127 Uiso
N22_2 N 0.583679 0.881634 0.912784 0.0127 Uiso
N23_2 N 0.533081 0.870218 0.856497 0.0127 Uiso
C64_2 C 0.535179 0.805805 0.935031 0.0127 Uiso
C65_2 C 0.497754 0.800391 0.883491 0.0127 Uiso
C66_2 C 0.595070 0.869058 0.883023 0.0127 Uiso
C67_2 C 0.606464 0.903672 0.940065 0.0127 Uiso
C72_2 C 0.525395 0.772719 0.930832 0.0127 Uiso
C73_2 C 0.487303 0.767179 0.878368 0.0127 Uiso
C74_2 C 0.627930 0.877805 0.880062 0.0127 Uiso
C75_2 C 0.639279 0.913027 0.938257 0.0127 Uiso
O16_2 O 0.540531 0.759427 0.956196 0.0127 Uiso
C85_2 C 0.501214 0.752806 0.902321 0.0127 Uiso
O17_2 O 0.636623 0.863018 0.847853 0.0127 Uiso
C86_2 C 0.650990 0.900183 0.907852 0.0127 Uiso
C87_2 C 0.566014 0.756374 0.939415 0.0127 Uiso
C88_2 C 0.662011 0.883196 0.822041 0.0127 Uiso
O18_2 O 0.573898 0.762699 0.903207 0.0127 Uiso
C89_2 C 0.585020 0.744721 0.966931 0.0127 Uiso
O19_2 O 0.661688 0.906063 0.804809 0.0127 Uiso
C90_2 C 0.689537 0.875420 0.816566 0.0127 Uiso
H12_2 H 0.48751 0.887572 0.875671 . .
H14_2 H 0.724592 0.888983 0.971956 . .
H15_2 H 0.419095 0.801565 0.977724 . .
H17_2 H 0.478188 0.819904 0.968987 . .
H19_2 H 0.580838 0.931404 0.869137 . .
H22_2 H 0.597374 0.989875 0.872563 . .
H24_2 H 0.518081 0.910781 0.972568 . .
H29_2 H 0.393222 0.826807 0.934327 . .
H31_2 H 0.598547 0.823026 0.976197 . .
H35_2 H 0.674274 0.837101 0.954015 . .
H40_2 H 0.727066 0.997488 0.936815 . .
H45_2 H 0.386734 0.901189 0.854225 . .
H46_2 H 0.41036 0.937608 0.884542 . .
H47_2 H 0.428767 0.929804 0.840834 . .
H52_2 H 0.554239 0.820843 0.957662 . .
H54_2 H 0.656541 0.930708 0.96077 . .
H55_2 H 0.577448 0.851415 0.860765 . .
H57_2 H 0.493474 0.726555 0.899007 . .
H58_2 H 0.48657 0.811522 0.864347 . .
H60_2 H 0.468232 0.752428 0.855609 . .
H63_2 H 0.598071 0.914171 0.964197 . .
H64_2 H 0.677201 0.907437 0.906003 . .
H73_2 H 0.679387 0.850411 0.804005 . .
H74_2 H 0.708073 0.89332 0.795316 . .
H75_2 H 0.701124 0.876888 0.846404 . .
H81_2 H 0.567856 0.720067 0.979108 . .
H82_2 H 0.604274 0.743693 0.948792 . .
H83_2 H 0.596471 0.7621 0.992499 . .
H92_2 H 0.444822 0.554133 0.994395 . .
H96_2 H 0.32838 0.614179 0.986703 . .
H98_2 H 0.506869 0.585464 0.995926 . .
Fe6_4 Fe 0.403326 -0.000000 0.250000 0.0063 Uiso
O24_3 O 0.571421 0.018234 0.143321 0.0127 Uiso
H86_3 H 0.589919 0.0137257 0.0711948 . .
Nb1_3 Nb 0.144494 0.678121 0.078892 0.0063 Uiso
C1_3 C 0.180048 0.710104 0.124703 0.0127 Uiso
C2_3 C 0.113031 0.699558 0.075694 0.0127 Uiso
C3_3 C 0.136246 0.672150 0.012719 0.0127 Uiso
C4_3 C 0.149944 0.639524 0.107599 0.0127 Uiso
C5_3 C 0.173622 0.727159 0.051202 0.0127 Uiso
C6_3 C 0.118259 0.667629 0.138744 0.0127 Uiso
C7_3 C 0.097195 0.633354 0.066824 0.0127 Uiso
C8_3 C 0.187986 0.678182 0.053274 0.0127 Uiso
N1_3 N 0.199417 0.728124 0.147420 0.0127 Uiso
N2_3 N 0.095849 0.710852 0.075486 0.0127 Uiso
N5_3 N 0.188005 0.753373 0.036038 0.0127 Uiso
N6_3 N 0.104554 0.662671 0.170303 0.0127 Uiso
N7_3 N 0.072144 0.609700 0.059492 0.0127 Uiso
N8_3 N 0.211043 0.678234 0.040164 0.0127 Uiso
Fe1_3 Fe 0.242027 0.764059 0.178993 0.0063 Uiso
Fe2_3 Fe 0.069993 0.736660 0.083333 0.0063 Uiso
N9_3 N 0.272503 0.773230 0.120655 0.0127 Uiso
N10_3 N 0.233699 0.804871 0.155852 0.0127 Uiso
N11_3 N 0.211628 0.758007 0.237542 0.0127 Uiso
N12_3 N 0.252163 0.724091 0.202192 0.0127 Uiso
N13_3 N 0.102543 0.774491 0.035457 0.0127 Uiso
N14_3 N 0.033752 0.703463 0.035018 0.0127 Uiso
C9_3 C 0.262550 0.752433 0.087817 0.0127 Uiso
C10_3 C 0.302706 0.801121 0.117882 0.0127 Uiso
C11_3 C 0.247281 0.834997 0.174868 0.0127 Uiso
C12_3 C 0.214776 0.800097 0.121922 0.0127 Uiso
C13_3 C 0.179394 0.741735 0.236680 0.0127 Uiso
C14_3 C 0.225463 0.770948 0.275382 0.0127 Uiso
C15_3 C 0.269809 0.729422 0.237515 0.0127 Uiso
C16_3 C 0.241520 0.695131 0.182596 0.0127 Uiso
C17_3 C 0.131213 0.775584 0.025251 0.0127 Uiso
C18_3 C 0.095514 0.795850 0.016380 0.0127 Uiso
C19_3 C 0.020163 0.715863 0.009007 0.0127 Uiso
C20_3 C 0.024862 0.671047 0.030770 0.0127 Uiso
C25_3 C 0.281271 0.757916 0.051517 0.0127 Uiso
C26_3 C 0.322678 0.808158 0.082626 0.0127 Uiso
C27_3 C 0.242240 0.860144 0.160665 0.0127 Uiso
C28_3 C 0.208943 0.824830 0.106339 0.0127 Uiso
C29_3 C 0.160755 0.738015 0.272221 0.0127 Uiso
C30_3 C 0.208510 0.767986 0.310322 0.0127 Uiso
C31_3 C 0.276763 0.706373 0.253059 0.0127 Uiso
C32_3 C 0.247663 0.670316 0.196641 0.0127 Uiso
C36_3 C 0.002654 0.650613 0.001147 0.0127 Uiso
O1_3 O 0.270189 0.736005 0.018477 0.0127 Uiso
C41_3 C 0.311958 0.786254 0.048566 0.0127 Uiso
O2_3 O 0.257916 0.889247 0.183781 0.0127 Uiso
C42_3 C 0.222563 0.855067 0.125461 0.0127 Uiso
O3_3 O 0.125230 0.719767 0.269315 0.0127 Uiso
C43_3 C 0.174660 0.750958 0.309910 0.0127 Uiso
O4_3 O 0.296693 0.715201 0.292807 0.0127 Uiso
C44_3 C 0.265958 0.675987 0.233242 0.0127 Uiso
C49_3 C 0.243677 0.901811 0.204534 0.0127 Uiso
C50_3 C 0.112779 0.687491 0.287216 0.0127 Uiso
C51_3 C 0.324919 0.722275 0.283329 0.0127 Uiso
C53_3 C 0.004656 0.554519 0.011292 0.0127 Uiso
O9_3 O 0.219853 0.904754 0.190012 0.0127 Uiso
C54_3 C 0.256769 0.912943 0.247213 0.0127 Uiso
O10_3 O 0.128572 0.683235 0.314800 0.0127 Uiso
C55_3 C 0.079586 0.658067 0.271963 0.0127 Uiso
O11_3 O 0.336503 0.719781 0.253170 0.0127 Uiso
C56_3 C 0.347381 0.737300 0.321584 0.0127 Uiso
O13_3 O 0.004979 0.577709 0.028524 0.0127 Uiso
N17_3 N 0.285264 0.800153 0.209094 0.0127 Uiso
N18_3 N 0.107824 0.769210 0.131210 0.0127 Uiso
N19_3 N 0.036796 0.700419 0.131649 0.0127 Uiso
N20_3 N 0.044185 0.762516 0.091181 0.0127 Uiso
C59_3 C 0.306191 0.822913 0.225734 0.0127 Uiso
C60_3 C 0.108917 0.797880 0.141416 0.0127 Uiso
C61_3 C 0.129183 0.762181 0.150287 0.0127 Uiso
C62_3 C 0.049196 0.686830 0.157660 0.0127 Uiso
C63_3 C 0.004380 0.691529 0.135897 0.0127 Uiso
Nb2_3 Nb 0.344788 0.866960 0.254441 0.0063 Uiso
C68_3 C 0.130719 0.820284 0.170167 0.0127 Uiso
C69_3 C 0.151830 0.784040 0.179706 0.0127 Uiso
C70_3 C 0.030392 0.664285 0.188344 0.0127 Uiso
C76_3 C 0.376771 0.863389 0.208630 0.0127 Uiso
C77_3 C 0.366225 0.919860 0.257639 0.0127 Uiso
C78_3 C 0.338817 0.869237 0.320614 0.0127 Uiso
C79_3 C 0.393826 0.886870 0.282131 0.0127 Uiso
C80_3 C 0.334296 0.882703 0.194589 0.0127 Uiso
C81_3 C 0.300021 0.869492 0.266509 0.0127 Uiso
C82_3 C 0.344849 0.823529 0.280059 0.0127 Uiso
O14_3 O 0.130974 0.848973 0.179485 0.0127 Uiso
C83_3 C 0.152851 0.812746 0.189788 0.0127 Uiso
O15_3 O 0.044189 0.650991 0.214289 0.0127 Uiso
N24_3 N 0.394791 0.862040 0.185913 0.0127 Uiso
N25_3 N 0.377519 0.948336 0.257847 0.0127 Uiso
N26_3 N 0.337138 0.870218 0.356497 0.0127 Uiso
N27_3 N 0.420040 0.898701 0.297295 0.0127 Uiso
N28_3 N 0.329338 0.891450 0.163030 0.0127 Uiso
N29_3 N 0.276367 0.870889 0.273841 0.0127 Uiso
N30_3 N 0.344901 0.800524 0.293169 0.0127 Uiso
Fe6_5 Fe 0.403326 1.000000 0.250000 0.0063 Uiso
Fe7_3 Fe 0.333333 0.868506 0.416667 0.0063 Uiso
N31_3 N 0.439897 0.834060 0.212678 0.0127 Uiso
N32_3 N 0.471538 0.904505 0.177481 0.0127 Uiso
N33_3 N 0.424674 0.879712 0.095791 0.0127 Uiso
N34_3 N 0.390758 0.805261 0.131141 0.0127 Uiso
C91_3 C 0.419100 0.823216 0.245516 0.0127 Uiso
C92_3 C 0.467788 0.831748 0.215451 0.0127 Uiso
C93_3 C 0.501664 0.921049 0.158465 0.0127 Uiso
C94_3 C 0.466764 0.918654 0.211411 0.0127 Uiso
C95_3 C 0.408402 0.895674 0.096653 0.0127 Uiso
C96_3 C 0.437615 0.878818 0.057951 0.0127 Uiso
C97_3 C 0.396089 0.792946 0.095818 0.0127 Uiso
C98_3 C 0.361798 0.786944 0.150737 0.0127 Uiso
C99_3 C 0.424583 0.809978 0.281816 0.0127 Uiso
C100_3 C 0.474825 0.818813 0.250707 0.0127 Uiso
C101_3 C 0.526811 0.951237 0.172668 0.0127 Uiso
C102_3 C 0.491497 0.949220 0.226994 0.0127 Uiso
C103_3 C 0.404682 0.910593 0.061112 0.0127 Uiso
C104_3 C 0.434653 0.892809 0.023011 0.0127 Uiso
C105_3 C 0.373040 0.762943 0.080274 0.0127 Uiso
C106_3 C 0.336983 0.755986 0.136692 0.0127 Uiso
O20_3 O 0.402672 0.799149 0.314856 0.0127 Uiso
C107_3 C 0.452921 0.807629 0.284767 0.0127 Uiso
O21_3 O 0.555914 0.964664 0.149552 0.0127 Uiso
C108_3 C 0.521734 0.965837 0.207872 0.0127 Uiso
O22_3 O 0.386434 0.927870 0.064018 0.0127 Uiso
C109_3 C 0.417625 0.909631 0.023423 0.0127 Uiso
O23_3 O 0.381868 0.751841 0.040526 0.0127 Uiso
C110_3 C 0.342654 0.743362 0.100091 0.0127 Uiso
C111_3 C 0.568478 0.991467 0.128799 0.0127 Uiso
C112_3 C 0.354158 0.908045 0.046117 0.0127 Uiso
C113_3 C 0.388942 0.730689 0.050004 0.0127 Uiso
C114_3 C 0.579610 0.989507 0.086120 0.0127 Uiso
O25_3 O 0.349902 0.887996 0.018533 0.0127 Uiso
C115_3 C 0.324734 0.911814 0.061370 0.0127 Uiso
O26_3 O 0.386448 0.716611 0.080163 0.0127 Uiso
C116_3 C 0.403967 0.723252 0.011749 0.0127 Uiso
H1_3 H 0.238333 0.729848 0.0896032 . .
H2_3 H 0.252527 0.78482 0.277252 . .
H3_3 H 0.166611 0.73076 0.207688 . .
H4_3 H 0.311694 0.818523 0.143728 . .
H5_3 H 0.227298 0.6907 0.154154 . .
H6_3 H 0.203688 0.776148 0.106177 . .
H7_3 H 0.278688 0.752864 0.253948 . .
H8_3 H 0.262656 0.83941 0.202234 . .
H9_3 H 0.249062 0.733669 0.00774803 . .
H10_3 H 0.327341 0.791543 0.0210219 . .
H11_3 H 0.0725141 0.795656 0.0237856 . .
H13_3 H 0.221845 0.7792 0.338939 . .
H16_3 H 0.0357292 0.660646 0.0516714 . .
H18_3 H 0.0271521 0.741938 0.0121079 . .
H20_3 H 0.137128 0.758259 0.0405515 . .
H21_3 H 0.193518 0.819967 0.0789187 . .
H23_3 H 0.346828 0.83087 0.08151 . .
H26_3 H 0.23848 0.64709 0.179608 . .
H27_3 H 0.21829 0.874634 0.113758 . .
H32_3 H 0.282987 0.931918 0.245627 . .
H33_3 H 0.24286 0.923252 0.262139 . .
H34_3 H 0.254024 0.891791 0.26505 . .
H36_3 H 0.0814429 0.654088 0.239076 . .
H37_3 H 0.074203 0.63569 0.28907 . .
H38_3 H 0.0596556 0.66363 0.276964 . .
H39_3 H 0.271487 0.657455 0.245651 . .
H41_3 H 0.159798 0.74787 0.337407 . .
H42_3 H 0.338287 0.719154 0.34663 . .
H43_3 H 0.372773 0.743815 0.313796 . .
H44_3 H 0.346965 0.759554 0.331374 . .
H51_3 H 0.0915922 0.803795 0.126115 . .
H53_3 H 0.0752711 0.693819 0.154559 . .
H56_3 H 0.108855 0.843641 0.19047 . .
H59_3 H 0.170506 0.829566 0.212652 . .
H61_3 H 0.0629118 0.669179 0.229852 . .
H65_3 H 0.128989 0.739181 0.142881 . .
H67_3 H 0.168942 0.777684 0.19471 . .
H69_3 H 0.396514 0.824848 0.24373 . .
H70_3 H 0.506077 0.910088 0.1311 . .
H71_3 H 0.41953 0.807509 0.0793851 . .
H72_3 H 0.451487 0.865626 0.056081 . .
H76_3 H 0.442815 0.905793 0.227156 . .
H77_3 H 0.397426 0.897481 0.125645 . .
H78_3 H 0.497537 0.817376 0.251823 . .
H79_3 H 0.357367 0.796736 0.179179 . .
H80_3 H 0.48519 0.840163 0.189605 . .
H84_3 H 0.45821 0.797535 0.312311 . .
H85_3 H 0.558458 0.971101 0.0682831 . .
H87_3 H 0.598584 0.982264 0.0877066 . .
H88_3 H 0.541301 0.989678 0.219575 . .
H89_3 H 0.330297 0.937308 0.0563692 . .
H90_3 H 0.302357 0.894821 0.044263 . .
H91_3 H 0.320755 0.905978 0.0942576 . .
H93_3 H 0.313757 0.741944 0.153725 . .
H94_3 H 0.426221 0.745922 0.00195915 . .
H95_3 H 0.410482 0.704376 0.0195371 . .
H97_3 H 0.486633 0.959782 0.254415 . .
H99_3 H 0.324121 0.719301 0.087682 . .
H100_3 H 0.38061 0.78095 0.305568 . .
N3_3 N 0.133586 0.670471 0.976836 0.0127 Uiso
Fe3_3 Fe 0.131494 0.666667 0.916667 0.0063 Uiso
N15_3 N 0.145095 0.631812 0.921763 0.0127 Uiso
N16_3 N 0.082988 0.631289 0.920549 0.0127 Uiso
C21_3 C 0.131488 0.603960 0.898302 0.0127 Uiso
C22_3 C 0.168913 0.635971 0.949842 0.0127 Uiso
C23_3 C 0.071597 0.607322 0.950310 0.0127 Uiso
C24_3 C 0.060203 0.630542 0.893268 0.0127 Uiso
C33_3 C 0.153617 0.797386 0.996500 0.0127 Uiso
C34_3 C 0.117373 0.818497 0.986961 0.0127 Uiso
C37_3 C 0.141272 0.580658 0.902501 0.0127 Uiso
C38_3 C 0.179364 0.613210 0.954965 0.0127 Uiso
C39_3 C 0.038737 0.583209 0.953271 0.0127 Uiso
C40_3 C 0.027388 0.607082 0.895076 0.0127 Uiso
O5_3 O 0.182306 0.797641 0.987182 0.0127 Uiso
C45_3 C 0.146079 0.819518 0.976879 0.0127 Uiso
O7_3 O 0.126136 0.552230 0.877137 0.0127 Uiso
C47_3 C 0.165453 0.584926 0.931012 0.0127 Uiso
O8_3 O 0.030044 0.559729 0.985480 0.0127 Uiso
C48_3 C 0.015677 0.582527 0.925481 0.0127 Uiso
C52_3 C 0.100653 0.523694 0.893918 0.0127 Uiso
O12_3 O 0.092769 0.522135 0.930126 0.0127 Uiso
C57_3 C 0.081647 0.493035 0.866402 0.0127 Uiso
N21_3 N 0.179950 0.701521 0.911570 0.0127 Uiso
N22_3 N 0.118366 0.702044 0.912784 0.0127 Uiso
N23_3 N 0.129782 0.662862 0.856497 0.0127 Uiso
C64_3 C 0.194195 0.729373 0.935031 0.0127 Uiso
C65_3 C 0.199609 0.697362 0.883491 0.0127 Uiso
C66_3 C 0.130942 0.726011 0.883023 0.0127 Uiso
C67_3 C 0.096328 0.702791 0.940065 0.0127 Uiso
C72_3 C 0.227281 0.752675 0.930832 0.0127 Uiso
C73_3 C 0.232821 0.720123 0.878368 0.0127 Uiso
C74_3 C 0.122195 0.750124 0.880062 0.0127 Uiso
C75_3 C 0.086973 0.726251 0.938257 0.0127 Uiso
O16_3 O 0.240573 0.781103 0.956196 0.0127 Uiso
C85_3 C 0.247194 0.748407 0.902321 0.0127 Uiso
O17_3 O 0.136982 0.773604 0.847853 0.0127 Uiso
C86_3 C 0.099817 0.750806 0.907852 0.0127 Uiso
C87_3 C 0.243626 0.809639 0.939415 0.0127 Uiso
C88_3 C 0.116804 0.778814 0.822041 0.0127 Uiso
O18_3 O 0.237301 0.811198 0.903207 0.0127 Uiso
C89_3 C 0.255279 0.840298 0.966931 0.0127 Uiso
O19_3 O 0.093937 0.755624 0.804809 0.0127 Uiso
C90_3 C 0.124580 0.814116 0.816566 0.0127 Uiso
H12_3 H 0.112428 0.599938 0.875671 . .
H14_3 H 0.111017 0.835609 0.971956 . .
H15_3 H 0.198435 0.617529 0.977724 . .
H17_3 H 0.180096 0.658285 0.968987 . .
H19_3 H 0.068596 0.649434 0.869137 . .
H22_3 H 0.0101252 0.6075 0.872563 . .
H24_3 H 0.0892188 0.6073 0.972568 . .
H29_3 H 0.173193 0.566415 0.934327 . .
H31_3 H 0.176974 0.775522 0.976197 . .
H35_3 H 0.162899 0.837173 0.954015 . .
H40_3 H 0.00251212 0.729578 0.936815 . .
H45_3 H 0.0988106 0.485545 0.854225 . .
H46_3 H 0.0623922 0.472752 0.884542 . .
H47_3 H 0.0701961 0.498963 0.840834 . .
H52_3 H 0.179157 0.733395 0.957662 . .
H54_3 H 0.0692923 0.725834 0.96077 . .
H55_3 H 0.148585 0.726033 0.860765 . .
H57_3 H 0.273445 0.766918 0.899007 . .
H58_3 H 0.188478 0.675049 0.864347 . .
H60_3 H 0.247572 0.715804 0.855609 . .
H63_3 H 0.0858291 0.6839 0.964197 . .
H64_3 H 0.0925635 0.769764 0.906003 . .
H73_3 H 0.149589 0.828976 0.804005 . .
H74_3 H 0.10668 0.814753 0.795316 . .
H75_3 H 0.123112 0.824236 0.846404 . .
H81_3 H 0.279933 0.847789 0.979108 . .
H82_3 H 0.256307 0.860581 0.948792 . .
H83_3 H 0.2379 0.83437 0.992499 . .
H92_3 H 0.445867 0.890689 0.994395 . .
H96_3 H 0.385821 0.7142 0.986703 . .
H98_3 H 0.414536 0.921405 0.995926 . .
C58_3 C 0.977130 0.519217 0.016767 0.0127 Uiso
C71_3 C 0.983946 0.669321 0.165520 0.0127 Uiso
C84_3 C 0.997022 0.655332 0.192358 0.0127 Uiso
H48_3 H 0.98728 0.504357 0.0293281 . .
H49_3 H 0.958594 0.51858 0.0380169 . .
H62_3 H 0.981473 0.637705 0.216074 . .
H66_3 H 0.993979 0.702396 0.114995 . .
H68_3 H 0.957965 0.662826 0.167878 . .
C35_3 C 0.997618 0.697059 0.978323 0.0127 Uiso
O6_3 O 0.984324 0.710856 0.952378 0.0127 Uiso
C46_3 C 0.988665 0.663689 0.974309 0.0127 Uiso
H25_3 H 0.996159 0.624632 0.998789 . .
H28_3 H 0.971039 0.648139 0.950592 . .
H30_3 H 0.989466 0.563569 0.92733 . .
H50_3 H 0.965542 0.509097 0.986929 . .
N26_4 N 0.463115 0.133586 0.023164 0.0127 Uiso
Fe7_4 Fe 0.464827 0.131494 0.083334 0.0063 Uiso
H13_4 H 0.554133 0.109311 0.0056054 . .
H41_4 H 0.585464 0.0785951 0.00407353 . .
H42_4 H 0.614179 0.2858 0.0132968 . .
Nb1_4 Nb 0.655212 0.133040 0.745559 0.0063 Uiso
C1_4 C 0.623229 0.136611 0.791370 0.0127 Uiso
C2_4 C 0.633775 0.080140 0.742361 0.0127 Uiso
C3_4 C 0.661183 0.130763 0.679386 0.0127 Uiso
C4_4 C 0.693809 0.177087 0.774266 0.0127 Uiso
C5_4 C 0.606174 0.113130 0.717869 0.0127 Uiso
C6_4 C 0.665704 0.117297 0.805411 0.0127 Uiso
C7_4 C 0.699979 0.130508 0.733491 0.0127 Uiso
C8_4 C 0.655151 0.176471 0.719941 0.0127 Uiso
N1_4 N 0.605209 0.137960 0.814087 0.0127 Uiso
N2_4 N 0.622481 0.051664 0.742153 0.0127 Uiso
N3_4 N 0.662862 0.129782 0.643503 0.0127 Uiso
N4_3 N 0.714736 0.199847 0.790906 0.0127 Uiso
N5_4 N 0.579960 0.101299 0.702705 0.0127 Uiso
N6_4 N 0.670662 0.108550 0.836970 0.0127 Uiso
N7_4 N 0.723633 0.129111 0.726159 0.0127 Uiso
N8_4 N 0.655099 0.199476 0.706831 0.0127 Uiso
Fe1_4 Fe 0.569274 0.144635 0.845660 0.0063 Uiso
Fe2_4 Fe 0.596673 -0.000000 0.750000 0.0063 Uiso
Fe3_4 Fe 0.666666 0.131494 0.583334 0.0063 Uiso
N9_4 N 0.560103 0.165940 0.787322 0.0127 Uiso
N10_4 N 0.528462 0.095495 0.822519 0.0127 Uiso
N11_4 N 0.575326 0.120288 0.904209 0.0127 Uiso
N12_4 N 0.609242 0.194739 0.868859 0.0127 Uiso
N15_4 N 0.701521 0.179950 0.588430 0.0127 Uiso
N16_4 N 0.702044 0.118366 0.587216 0.0127 Uiso
C9_4 C 0.580900 0.176784 0.754484 0.0127 Uiso
C10_4 C 0.532212 0.168252 0.784549 0.0127 Uiso
C11_4 C 0.498336 0.078951 0.841535 0.0127 Uiso
C12_4 C 0.533236 0.081346 0.788589 0.0127 Uiso
C13_4 C 0.591598 0.104326 0.903347 0.0127 Uiso
C14_4 C 0.562385 0.121182 0.942049 0.0127 Uiso
C15_4 C 0.603911 0.207054 0.904182 0.0127 Uiso
C16_4 C 0.638202 0.213056 0.849263 0.0127 Uiso
C17_4 C 0.557749 0.022296 0.691918 0.0127 Uiso
C20_4 C 0.662286 0.020482 0.697437 0.0127 Uiso
C21_4 C 0.729373 0.194195 0.564969 0.0127 Uiso
C22_4 C 0.697362 0.199609 0.616509 0.0127 Uiso
C23_4 C 0.726011 0.130942 0.616977 0.0127 Uiso
C24_4 C 0.702791 0.096328 0.559935 0.0127 Uiso
C25_4 C 0.575417 0.190022 0.718184 0.0127 Uiso
C26_4 C 0.525175 0.181187 0.749293 0.0127 Uiso
C27_4 C 0.473189 0.048763 0.827332 0.0127 Uiso
C28_4 C 0.508503 0.050780 0.773006 0.0127 Uiso
C29_4 C 0.595318 0.089407 0.938888 0.0127 Uiso
C30_4 C 0.565347 0.107191 0.976989 0.0127 Uiso
C31_4 C 0.626960 0.237057 0.919726 0.0127 Uiso
C32_4 C 0.663017 0.244014 0.863308 0.0127 Uiso
C33_4 C 0.535947 0.022898 0.663167 0.0127 Uiso
C36_4 C 0.682720 0.018708 0.667814 0.0127 Uiso
C37_4 C 0.752675 0.227281 0.569168 0.0127 Uiso
C38_4 C 0.720123 0.232821 0.621632 0.0127 Uiso
C39_4 C 0.750124 0.122195 0.619938 0.0127 Uiso
C40_4 C 0.726251 0.086973 0.561743 0.0127 Uiso
O1_4 O 0.597328 0.200851 0.685144 0.0127 Uiso
C41_4 C 0.547079 0.192371 0.715233 0.0127 Uiso
O2_4 O 0.444086 0.035336 0.850448 0.0127 Uiso
C42_4 C 0.478266 0.034163 0.792128 0.0127 Uiso
O3_4 O 0.613566 0.072130 0.935982 0.0127 Uiso
C43_4 C 0.582375 0.090369 0.976577 0.0127 Uiso
O4_4 O 0.618132 0.248159 0.959474 0.0127 Uiso
C44_4 C 0.657346 0.256638 0.899909 0.0127 Uiso
O5_4 O 0.535692 0.051332 0.653849 0.0127 Uiso
O7_4 O 0.781103 0.240573 0.543804 0.0127 Uiso
C47_4 C 0.748407 0.247194 0.597679 0.0127 Uiso
O8_4 O 0.773604 0.136982 0.652147 0.0127 Uiso
C48_4 C 0.750806 0.099817 0.592148 0.0127 Uiso
C49_4 C 0.431522 0.008533 0.871201 0.0127 Uiso
C50_4 C 0.645842 0.091955 0.953883 0.0127 Uiso
C51_4 C 0.611058 0.269311 0.949996 0.0127 Uiso
C52_4 C 0.809639 0.243626 0.560585 0.0127 Uiso
C53_4 C 0.778814 0.116804 0.677959 0.0127 Uiso
C54_4 C 0.420390 0.010493 0.913880 0.0127 Uiso
O10_4 O 0.650098 0.112004 0.981467 0.0127 Uiso
C55_4 C 0.675266 0.088186 0.938630 0.0127 Uiso
O11_4 O 0.613552 0.283389 0.919837 0.0127 Uiso
C56_4 C 0.596033 0.276748 0.988251 0.0127 Uiso
O12_4 O 0.811198 0.237301 0.596793 0.0127 Uiso
C57_4 C 0.840298 0.255279 0.533069 0.0127 Uiso
O13_4 O 0.755624 0.093937 0.695191 0.0127 Uiso
C58_4 C 0.814116 0.124580 0.683434 0.0127 Uiso
Fe4_3 Fe 0.757973 0.235941 0.821007 0.0063 Uiso
N17_4 N 0.533180 0.151777 0.875761 0.0127 Uiso
N18_4 N 0.564124 0.005281 0.797876 0.0127 Uiso
N19_4 N 0.632915 0.003044 0.798315 0.0127 Uiso
N21_4 N 0.631812 0.145095 0.578237 0.0127 Uiso
N22_4 N 0.631289 0.082988 0.579451 0.0127 Uiso
N23_4 N 0.670471 0.133586 0.523164 0.0127 Uiso
C59_4 C 0.510420 0.149944 0.892401 0.0127 Uiso
C61_4 C 0.571153 0.033669 0.816953 0.0127 Uiso
C62_4 C 0.646504 0.029033 0.824326 0.0127 Uiso
C64_4 C 0.603960 0.131488 0.601698 0.0127 Uiso
C65_4 C 0.635971 0.168913 0.550158 0.0127 Uiso
C66_4 C 0.607322 0.071597 0.549690 0.0127 Uiso
C67_4 C 0.630542 0.060203 0.606732 0.0127 Uiso
Nb2_4 Nb 0.466373 0.144494 0.921108 0.0063 Uiso
C69_4 C 0.549294 0.034457 0.846372 0.0127 Uiso
C70_4 C 0.669049 0.032774 0.855010 0.0127 Uiso
C72_4 C 0.580658 0.141272 0.597499 0.0127 Uiso
C73_4 C 0.613210 0.179364 0.545035 0.0127 Uiso
C74_4 C 0.583209 0.038737 0.546729 0.0127 Uiso
C75_4 C 0.607082 0.027388 0.604924 0.0127 Uiso
C76_4 C 0.469944 0.180048 0.875297 0.0127 Uiso
C77_4 C 0.413473 0.113031 0.924306 0.0127 Uiso
C78_4 C 0.464096 0.136246 0.987281 0.0127 Uiso
C79_4 C 0.446463 0.173622 0.948798 0.0127 Uiso
C80_4 C 0.450630 0.118259 0.861256 0.0127 Uiso
C81_4 C 0.463841 0.097195 0.933176 0.0127 Uiso
C82_4 C 0.509804 0.187986 0.946726 0.0127 Uiso
C83_4 C 0.520588 0.006772 0.856454 0.0127 Uiso
O15_4 O 0.682343 0.059865 0.880955 0.0127 Uiso
C84_4 C 0.678002 0.008357 0.859024 0.0127 Uiso
O16_4 O 0.552230 0.126136 0.622863 0.0127 Uiso
C85_4 C 0.584926 0.165453 0.568988 0.0127 Uiso
O17_4 O 0.559729 0.030044 0.514520 0.0127 Uiso
C86_4 C 0.582527 0.015677 0.574519 0.0127 Uiso
N24_4 N 0.471293 0.199417 0.852580 0.0127 Uiso
N25_4 N 0.384997 0.095849 0.924514 0.0127 Uiso
N27_4 N 0.434632 0.188005 0.963962 0.0127 Uiso
N28_4 N 0.441883 0.104554 0.829697 0.0127 Uiso
N29_4 N 0.462444 0.072144 0.940508 0.0127 Uiso
N30_4 N 0.532809 0.211043 0.959836 0.0127 Uiso
C87_4 C 0.523694 0.100653 0.606082 0.0127 Uiso
C88_4 C 0.554519 0.004656 0.488708 0.0127 Uiso
Fe5_2 Fe 0.477968 0.242027 0.821007 0.0063 Uiso
Fe6_6 Fe 0.333334 0.069993 0.916666 0.0063 Uiso
O18_4 O 0.522135 0.092769 0.569874 0.0127 Uiso
C89_4 C 0.493035 0.081647 0.633598 0.0127 Uiso
O19_4 O 0.577709 0.004979 0.471476 0.0127 Uiso
N31_4 N 0.499273 0.272503 0.879345 0.0127 Uiso
N32_4 N 0.428828 0.233699 0.844148 0.0127 Uiso
N33_4 N 0.453621 0.211628 0.762458 0.0127 Uiso
N34_4 N 0.528072 0.252163 0.797808 0.0127 Uiso
N35_2 N 0.485110 0.285264 0.790906 0.0127 Uiso
C91_4 C 0.510117 0.262550 0.912183 0.0127 Uiso
C92_4 C 0.501585 0.302706 0.882118 0.0127 Uiso
C93_4 C 0.412284 0.247281 0.825132 0.0127 Uiso
C94_4 C 0.414679 0.214776 0.878078 0.0127 Uiso
C95_4 C 0.437659 0.179394 0.763320 0.0127 Uiso
C96_4 C 0.454515 0.225463 0.724618 0.0127 Uiso
C97_4 C 0.540387 0.269809 0.762485 0.0127 Uiso
C98_4 C 0.546389 0.241520 0.817404 0.0127 Uiso
C99_4 C 0.523355 0.281271 0.948483 0.0127 Uiso
C100_4 C 0.514520 0.322678 0.917374 0.0127 Uiso
C101_4 C 0.382096 0.242240 0.839335 0.0127 Uiso
C102_4 C 0.384113 0.208943 0.893661 0.0127 Uiso
C103_4 C 0.422740 0.160755 0.727779 0.0127 Uiso
C104_4 C 0.440524 0.208510 0.689678 0.0127 Uiso
C105_4 C 0.570390 0.276763 0.746941 0.0127 Uiso
C106_4 C 0.577347 0.247663 0.803359 0.0127 Uiso
O20_4 O 0.534184 0.270189 0.981523 0.0127 Uiso
C107_4 C 0.525704 0.311958 0.951434 0.0127 Uiso
O21_4 O 0.368669 0.257916 0.816219 0.0127 Uiso
C108_4 C 0.367496 0.222563 0.874539 0.0127 Uiso
O22_4 O 0.405463 0.125230 0.730685 0.0127 Uiso
C109_4 C 0.423702 0.174660 0.690090 0.0127 Uiso
O23_4 O 0.581492 0.296693 0.707193 0.0127 Uiso
C110_4 C 0.589971 0.265958 0.766758 0.0127 Uiso
C111_4 C 0.341866 0.243677 0.795466 0.0127 Uiso
C112_4 C 0.425288 0.112779 0.712784 0.0127 Uiso
C113_4 C 0.602644 0.324919 0.716671 0.0127 Uiso
O24_4 O 0.315099 0.219853 0.809988 0.0127 Uiso
C114_4 C 0.343826 0.256769 0.752787 0.0127 Uiso
O25_4 O 0.445337 0.128572 0.685200 0.0127 Uiso
C115_4 C 0.421519 0.079586 0.728037 0.0127 Uiso
O26_4 O 0.616722 0.336503 0.746830 0.0127 Uiso
C116_4 C 0.610081 0.347381 0.678416 0.0127 Uiso
H1_4 H 0.603486 0.175152 0.75627 . .
H2_4 H 0.548513 0.134374 0.943919 . .
H3_4 H 0.602574 0.102519 0.874355 . .
H4_4 H 0.51481 0.159837 0.810395 . .
H5_4 H 0.642633 0.203264 0.820821 . .
H6_4 H 0.557185 0.0942072 0.772844 . .
H7_4 H 0.58047 0.192491 0.920615 . .
H8_4 H 0.493923 0.0899125 0.8689 . .
H9_4 H 0.599664 0.18206 0.674415 . .
H10_4 H 0.54179 0.202465 0.687689 . .
H12_4 H 0.733395 0.179157 0.542338 . .
H15_4 H 0.715804 0.247572 0.644391 . .
H16_4 H 0.672688 0.04175 0.718338 . .
H17_4 H 0.675049 0.188478 0.635653 . .
H19_4 H 0.6839 0.0858291 0.535803 . .
H20_4 H 0.575074 0.0455363 0.707218 . .
H21_4 H 0.513367 0.0402184 0.745585 . .
H22_4 H 0.725834 0.0692923 0.53923 . .
H23_4 H 0.502463 0.182624 0.748177 . .
H24_4 H 0.726033 0.148585 0.639235 . .
H25_4 H 0.708702 0.038194 0.665455 . .
H26_4 H 0.686243 0.258056 0.846275 . .
H27_4 H 0.458699 0.0103222 0.780425 . .
H29_4 H 0.766918 0.273445 0.600993 . .
H30_4 H 0.769764 0.0925635 0.593997 . .
H31_4 H 0.557811 0.0681192 0.642863 . .
H32_4 H 0.401416 0.0177361 0.912293 . .
H34_4 H 0.441542 0.0288993 0.931717 . .
H36_4 H 0.679245 0.0940217 0.905742 . .
H37_4 H 0.697643 0.105179 0.955737 . .
H38_4 H 0.669703 0.0626924 0.943631 . .
H39_4 H 0.675879 0.280699 0.912318 . .
H43_4 H 0.589518 0.295624 0.980463 . .
H44_4 H 0.573779 0.254078 0.998041 . .
H45_4 H 0.847789 0.279933 0.520892 . .
H46_4 H 0.860581 0.256307 0.551208 . .
H47_4 H 0.83437 0.2379 0.507501 . .
H48_4 H 0.828976 0.149589 0.695995 . .
H49_4 H 0.814753 0.10668 0.704684 . .
H50_4 H 0.824236 0.123112 0.653596 . .
H52_4 H 0.599938 0.112428 0.624329 . .
H53_4 H 0.639515 0.048119 0.821225 . .
H54_4 H 0.6075 0.0101252 0.627437 . .
H55_4 H 0.6073 0.0892188 0.527432 . .
H57_4 H 0.566415 0.173193 0.565673 . .
H58_4 H 0.658285 0.180096 0.531013 . .
H59_4 H 0.503768 0.00760729 0.879318 . .
H60_4 H 0.617529 0.198435 0.522276 . .
H61_4 H 0.664155 0.0603997 0.896519 . .
H62_4 H 0.695628 0.0104339 0.882741 . .
H63_4 H 0.649434 0.068596 0.630863 . .
H65_4 H 0.594153 0.0564752 0.809548 . .
H67_4 H 0.55565 0.0579255 0.861377 . .
H69_4 H 0.508485 0.238333 0.910397 . .
H70_4 H 0.423246 0.262656 0.797766 . .
H71_4 H 0.525824 0.278688 0.746052 . .
H72_4 H 0.467707 0.252527 0.722748 . .
H76_4 H 0.427541 0.203688 0.893823 . .
H77_4 H 0.435852 0.166611 0.792312 . .
H78_4 H 0.515958 0.346828 0.91849 . .
H79_4 H 0.536598 0.227298 0.845846 . .
H80_4 H 0.493171 0.311694 0.856272 . .
H81_4 H 0.485545 0.0988106 0.645775 . .
H82_4 H 0.472752 0.0623922 0.615458 . .
H83_4 H 0.498963 0.0701961 0.659166 . .
H84_4 H 0.535798 0.327341 0.978978 . .
H85_4 H 0.362233 0.254024 0.73495 . .
H86_4 H 0.319608 0.24286 0.737861 . .
H87_4 H 0.351069 0.282987 0.754373 . .
H88_4 H 0.343656 0.21829 0.886242 . .
H89_4 H 0.396026 0.0596556 0.723036 . .
H90_4 H 0.438513 0.074203 0.71093 . .
H91_4 H 0.427355 0.0814429 0.760924 . .
H92_4 H 0.442645 0.221845 0.661061 . .
H93_4 H 0.591389 0.23848 0.820392 . .
H94_4 H 0.587411 0.346965 0.668626 . .
H95_4 H 0.628958 0.372773 0.686204 . .
H96_4 H 0.619133 0.338287 0.65337 . .
H97_4 H 0.373552 0.193518 0.921081 . .
H98_4 H 0.411928 0.159798 0.662593 . .
H99_4 H 0.614033 0.271487 0.754349 . .
H100_4 H 0.552384 0.266327 0.972234 . .
Fe2_5 Fe 0.596673 1.000000 0.750000 0.0063 Uiso
N13_4 N 0.558842 0.994719 0.702124 0.0127 Uiso
N14_4 N 0.629870 0.996956 0.701685 0.0127 Uiso
C18_4 C 0.537483 0.966331 0.683047 0.0127 Uiso
C19_4 C 0.617470 0.970967 0.675674 0.0127 Uiso
C34_4 C 0.514836 0.965543 0.653628 0.0127 Uiso
C35_4 C 0.636274 0.967226 0.644990 0.0127 Uiso
C45_4 C 0.513815 0.993228 0.643546 0.0127 Uiso
O6_4 O 0.622477 0.940135 0.619045 0.0127 Uiso
C46_4 C 0.669644 0.991643 0.640976 0.0127 Uiso
O9_4 O 0.428579 0.981766 0.856679 0.0127 Uiso
N20_4 N 0.570818 0.948336 0.757847 0.0127 Uiso
C60_4 C 0.535454 0.977704 0.808082 0.0127 Uiso
C63_4 C 0.641805 0.979518 0.802563 0.0127 Uiso
C68_4 C 0.513050 0.977102 0.836833 0.0127 Uiso
C71_4 C 0.664013 0.981292 0.832186 0.0127 Uiso
O14_4 O 0.484361 0.948668 0.846151 0.0127 Uiso
C90_4 C 0.519217 0.977130 0.483233 0.0127 Uiso
H11_4 H 0.537677 0.943525 0.690452 . .
H14_4 H 0.497724 0.942075 0.638623 . .
H18_4 H 0.591396 0.951881 0.678775 . .
H28_4 H 0.685194 0.989566 0.617259 . .
H33_4 H 0.410081 0.986274 0.928805 . .
H35_4 H 0.49616 0.992393 0.620682 . .
H40_4 H 0.603755 0.9396 0.603481 . .
H51_4 H 0.529538 0.954464 0.792782 . .
H56_4 H 0.489692 0.931881 0.857137 . .
H64_4 H 0.563569 0.989466 0.57267 . .
H66_4 H 0.630937 0.95825 0.781662 . .
H68_4 H 0.670508 0.961806 0.834545 . .
H73_4 H 0.504357 0.98728 0.470672 . .
H74_4 H 0.51858 0.958594 0.461983 . .
H75_4 H 0.509097 0.965542 0.513071 . .
Fe2_6 Fe 0.000000 0.596674 0.750000 0.0063 Uiso
N13_5 N 0.005281 0.564124 0.702124 0.0127 Uiso
N14_5 N 0.003044 0.632915 0.701685 0.0127 Uiso
C18_5 C 0.033669 0.571153 0.683047 0.0127 Uiso
C19_5 C 0.029033 0.646504 0.675674 0.0127 Uiso
C34_5 C 0.034457 0.549294 0.653628 0.0127 Uiso
C35_5 C 0.032774 0.669049 0.644990 0.0127 Uiso
C45_5 C 0.006772 0.520588 0.643546 0.0127 Uiso
O6_5 O 0.059865 0.682343 0.619045 0.0127 Uiso
C46_5 C 0.008357 0.678002 0.640976 0.0127 Uiso
O9_5 O 0.018234 0.446814 0.856679 0.0127 Uiso
N20_5 N 0.051664 0.622481 0.757847 0.0127 Uiso
C60_5 C 0.022296 0.557749 0.808082 0.0127 Uiso
C63_5 C 0.020482 0.662286 0.802563 0.0127 Uiso
C68_5 C 0.022898 0.535947 0.836833 0.0127 Uiso
C71_5 C 0.018708 0.682720 0.832186 0.0127 Uiso
O14_5 O 0.051332 0.535692 0.846151 0.0127 Uiso
C90_5 C 0.022870 0.542087 0.483233 0.0127 Uiso
H11_5 H 0.0564752 0.594153 0.690452 . .
H14_5 H 0.0579255 0.55565 0.638623 . .
H18_5 H 0.048119 0.639515 0.678775 . .
H28_5 H 0.0104339 0.695628 0.617259 . .
H33_5 H 0.0137257 0.423807 0.928805 . .
H35_5 H 0.00760729 0.503768 0.620682 . .
H40_5 H 0.0603997 0.664155 0.603481 . .
H51_5 H 0.0455363 0.575074 0.792782 . .
H56_5 H 0.0681192 0.557811 0.857137 . .
H64_5 H 0.0105339 0.574103 0.57267 . .
H66_5 H 0.04175 0.672688 0.781662 . .
H68_5 H 0.038194 0.708702 0.834545 . .
H73_5 H 0.0127202 0.517078 0.470672 . .
H74_5 H 0.0414062 0.559986 0.461983 . .
H75_5 H 0.0344577 0.543555 0.513071 . .
N26_5 N 0.866414 0.329529 0.023164 0.0127 Uiso
Fe7_5 Fe 0.868506 0.333334 0.083334 0.0063 Uiso
H13_5 H 0.890689 0.444822 0.0056054 . .
H41_5 H 0.921405 0.506869 0.00407353 . .
H42_5 H 0.7142 0.32838 0.0132968 . .
Nb1_5 Nb 0.866960 0.522173 0.745559 0.0063 Uiso
C1_5 C 0.863389 0.486619 0.791370 0.0127 Uiso
C2_5 C 0.919860 0.553636 0.742361 0.0127 Uiso
C3_5 C 0.869237 0.530421 0.679386 0.0127 Uiso
C4_5 C 0.822913 0.516723 0.774266 0.0127 Uiso
C5_5 C 0.886870 0.493045 0.717869 0.0127 Uiso
C6_5 C 0.882703 0.548408 0.805411 0.0127 Uiso
C7_5 C 0.869492 0.569472 0.733491 0.0127 Uiso
C8_5 C 0.823529 0.478681 0.719941 0.0127 Uiso
N1_5 N 0.862040 0.467250 0.814087 0.0127 Uiso
N2_5 N 0.948336 0.570818 0.742153 0.0127 Uiso
N3_5 N 0.870218 0.533081 0.643503 0.0127 Uiso
N4_4 N 0.800153 0.514890 0.790906 0.0127 Uiso
N5_5 N 0.898701 0.478662 0.702705 0.0127 Uiso
N6_5 N 0.891450 0.562113 0.836970 0.0127 Uiso
N7_5 N 0.870889 0.594523 0.726159 0.0127 Uiso
N8_5 N 0.800524 0.455624 0.706831 0.0127 Uiso
Fe1_5 Fe 0.855365 0.424640 0.845660 0.0063 Uiso
Fe2_7 Fe 1.000000 0.596674 0.750000 0.0063 Uiso
Fe3_5 Fe 0.868506 0.535173 0.583334 0.0063 Uiso
N9_5 N 0.834060 0.394164 0.787322 0.0127 Uiso
N10_5 N 0.904505 0.432968 0.822519 0.0127 Uiso
N11_5 N 0.879712 0.455039 0.904209 0.0127 Uiso
N12_5 N 0.805261 0.414504 0.868859 0.0127 Uiso
N15_5 N 0.820050 0.521572 0.588430 0.0127 Uiso
N16_5 N 0.881634 0.583679 0.587216 0.0127 Uiso
C9_5 C 0.823216 0.404117 0.754484 0.0127 Uiso
C10_5 C 0.831748 0.363961 0.784549 0.0127 Uiso
C11_5 C 0.921049 0.419386 0.841535 0.0127 Uiso
C12_5 C 0.918654 0.451891 0.788589 0.0127 Uiso
C13_5 C 0.895674 0.487273 0.903347 0.0127 Uiso
C14_5 C 0.878818 0.441204 0.942049 0.0127 Uiso
C15_5 C 0.792946 0.396858 0.904182 0.0127 Uiso
C16_5 C 0.786944 0.425147 0.849263 0.0127 Uiso
C17_5 C 0.977704 0.535454 0.691918 0.0127 Uiso
C20_5 C 0.979518 0.641805 0.697437 0.0127 Uiso
C21_5 C 0.805805 0.535179 0.564969 0.0127 Uiso
C22_5 C 0.800391 0.497754 0.616509 0.0127 Uiso
C23_5 C 0.869058 0.595070 0.616977 0.0127 Uiso
C24_5 C 0.903672 0.606464 0.559935 0.0127 Uiso
C25_5 C 0.809978 0.385396 0.718184 0.0127 Uiso
C26_5 C 0.818813 0.343989 0.749293 0.0127 Uiso
C27_5 C 0.951237 0.424427 0.827332 0.0127 Uiso
C28_5 C 0.949220 0.457724 0.773006 0.0127 Uiso
C29_5 C 0.910593 0.505912 0.938888 0.0127 Uiso
C30_5 C 0.892809 0.458157 0.976989 0.0127 Uiso
C31_5 C 0.762943 0.389904 0.919726 0.0127 Uiso
C32_5 C 0.755986 0.419004 0.863308 0.0127 Uiso
C33_5 C 0.977102 0.513050 0.663167 0.0127 Uiso
C36_5 C 0.981292 0.664013 0.667814 0.0127 Uiso
C37_5 C 0.772719 0.525395 0.569168 0.0127 Uiso
C38_5 C 0.767179 0.487303 0.621632 0.0127 Uiso
C39_5 C 0.877805 0.627930 0.619938 0.0127 Uiso
C40_5 C 0.913027 0.639279 0.561743 0.0127 Uiso
O1_5 O 0.799149 0.396478 0.685144 0.0127 Uiso
C41_5 C 0.807629 0.354709 0.715233 0.0127 Uiso
O2_5 O 0.964664 0.408751 0.850448 0.0127 Uiso
C42_5 C 0.965837 0.444104 0.792128 0.0127 Uiso
O3_5 O 0.927870 0.541437 0.935982 0.0127 Uiso
C43_5 C 0.909631 0.492007 0.976577 0.0127 Uiso
O4_5 O 0.751841 0.369974 0.959474 0.0127 Uiso
C44_5 C 0.743362 0.400709 0.899909 0.0127 Uiso
O5_5 O 0.948668 0.484361 0.653849 0.0127 Uiso
O7_5 O 0.759427 0.540531 0.543804 0.0127 Uiso
C47_5 C 0.752806 0.501214 0.597679 0.0127 Uiso
O8_5 O 0.863018 0.636623 0.652147 0.0127 Uiso
C48_5 C 0.900183 0.650990 0.592148 0.0127 Uiso
C49_5 C 0.991467 0.422990 0.871201 0.0127 Uiso
C50_5 C 0.908045 0.553888 0.953883 0.0127 Uiso
C51_5 C 0.730689 0.341748 0.949996 0.0127 Uiso
C52_5 C 0.756374 0.566014 0.560585 0.0127 Uiso
C53_5 C 0.883196 0.662011 0.677959 0.0127 Uiso
C54_5 C 0.989507 0.409898 0.913880 0.0127 Uiso
O10_5 O 0.887996 0.538095 0.981467 0.0127 Uiso
C55_5 C 0.911814 0.587081 0.938630 0.0127 Uiso
O11_5 O 0.716611 0.330164 0.919837 0.0127 Uiso
C56_5 C 0.723252 0.319286 0.988251 0.0127 Uiso
O12_5 O 0.762699 0.573898 0.596793 0.0127 Uiso
C57_5 C 0.744721 0.585020 0.533069 0.0127 Uiso
O13_5 O 0.906063 0.661688 0.695191 0.0127 Uiso
C58_5 C 0.875420 0.689537 0.683434 0.0127 Uiso
Fe4_4 Fe 0.764059 0.522032 0.821007 0.0063 Uiso
N17_5 N 0.848223 0.381403 0.875761 0.0127 Uiso
N18_5 N 0.994719 0.558842 0.797876 0.0127 Uiso
N19_5 N 0.996956 0.629870 0.798315 0.0127 Uiso
N21_5 N 0.854905 0.486717 0.578237 0.0127 Uiso
N22_5 N 0.917012 0.548301 0.579451 0.0127 Uiso
N23_5 N 0.866414 0.536885 0.523164 0.0127 Uiso
C59_5 C 0.850056 0.360476 0.892401 0.0127 Uiso
C61_5 C 0.966331 0.537483 0.816953 0.0127 Uiso
C62_5 C 0.970967 0.617470 0.824326 0.0127 Uiso
C64_5 C 0.868512 0.472472 0.601698 0.0127 Uiso
C65_5 C 0.831087 0.467058 0.550158 0.0127 Uiso
C66_5 C 0.928403 0.535725 0.549690 0.0127 Uiso
C67_5 C 0.939797 0.570339 0.606732 0.0127 Uiso
Nb2_5 Nb 0.855506 0.321879 0.921108 0.0063 Uiso
C69_5 C 0.965543 0.514836 0.846372 0.0127 Uiso
C70_5 C 0.967226 0.636274 0.855010 0.0127 Uiso
C72_5 C 0.858728 0.439386 0.597499 0.0127 Uiso
C73_5 C 0.820636 0.433846 0.545035 0.0127 Uiso
C74_5 C 0.961263 0.544472 0.546729 0.0127 Uiso
C75_5 C 0.972612 0.579694 0.604924 0.0127 Uiso
C76_5 C 0.819952 0.289896 0.875297 0.0127 Uiso
C77_5 C 0.886969 0.300442 0.924306 0.0127 Uiso
C78_5 C 0.863754 0.327850 0.987281 0.0127 Uiso
C79_5 C 0.826378 0.272841 0.948798 0.0127 Uiso
C80_5 C 0.881741 0.332371 0.861256 0.0127 Uiso
C81_5 C 0.902805 0.366646 0.933176 0.0127 Uiso
C82_5 C 0.812014 0.321818 0.946726 0.0127 Uiso
C83_5 C 0.993228 0.513815 0.856454 0.0127 Uiso
O15_5 O 0.940135 0.622477 0.880955 0.0127 Uiso
C84_5 C 0.991643 0.669644 0.859024 0.0127 Uiso
O16_5 O 0.873864 0.426094 0.622863 0.0127 Uiso
C85_5 C 0.834547 0.419473 0.568988 0.0127 Uiso
O17_5 O 0.969956 0.529685 0.514520 0.0127 Uiso
C86_5 C 0.984323 0.566850 0.574519 0.0127 Uiso
N24_5 N 0.800583 0.271876 0.852580 0.0127 Uiso
N25_5 N 0.904151 0.289148 0.924514 0.0127 Uiso
N27_5 N 0.811995 0.246627 0.963962 0.0127 Uiso
N28_5 N 0.895446 0.337329 0.829697 0.0127 Uiso
N29_5 N 0.927856 0.390300 0.940508 0.0127 Uiso
N30_5 N 0.788957 0.321766 0.959836 0.0127 Uiso
C87_5 C 0.899347 0.423041 0.606082 0.0127 Uiso
C88_5 C 0.995344 0.549863 0.488708 0.0127 Uiso
Fe6_7 Fe 0.930007 0.263340 0.916666 0.0063 Uiso
O18_5 O 0.907231 0.429366 0.569874 0.0127 Uiso
C89_5 C 0.918353 0.411388 0.633598 0.0127 Uiso
O19_5 O 0.995021 0.572730 0.471476 0.0127 Uiso
N31_5 N 0.727497 0.226770 0.879345 0.0127 Uiso
N32_5 N 0.766301 0.195129 0.844148 0.0127 Uiso
N33_5 N 0.788372 0.241993 0.762458 0.0127 Uiso
N34_5 N 0.747837 0.275909 0.797808 0.0127 Uiso
C91_5 C 0.737450 0.247567 0.912183 0.0127 Uiso
C92_5 C 0.697294 0.198879 0.882118 0.0127 Uiso
C93_5 C 0.752719 0.165003 0.825132 0.0127 Uiso
C94_5 C 0.785224 0.199903 0.878078 0.0127 Uiso
C95_5 C 0.820606 0.258265 0.763320 0.0127 Uiso
C96_5 C 0.774537 0.229052 0.724618 0.0127 Uiso
C97_5 C 0.730191 0.270578 0.762485 0.0127 Uiso
C98_5 C 0.758480 0.304869 0.817404 0.0127 Uiso
C99_5 C 0.718729 0.242084 0.948483 0.0127 Uiso
C100_5 C 0.677322 0.191842 0.917374 0.0127 Uiso
C101_5 C 0.757760 0.139856 0.839335 0.0127 Uiso
C102_5 C 0.791057 0.175170 0.893661 0.0127 Uiso
C103_5 C 0.839245 0.261985 0.727779 0.0127 Uiso
C104_5 C 0.791490 0.232014 0.689678 0.0127 Uiso
C105_5 C 0.723237 0.293627 0.746941 0.0127 Uiso
C106_5 C 0.752337 0.329684 0.803359 0.0127 Uiso
O20_5 O 0.729811 0.263995 0.981523 0.0127 Uiso
C107_5 C 0.688042 0.213746 0.951434 0.0127 Uiso
O21_5 O 0.742084 0.110753 0.816219 0.0127 Uiso
C108_5 C 0.777437 0.144933 0.874539 0.0127 Uiso
O22_5 O 0.874770 0.280233 0.730685 0.0127 Uiso
C109_5 C 0.825340 0.249042 0.690090 0.0127 Uiso
O23_5 O 0.703307 0.284799 0.707193 0.0127 Uiso
C110_5 C 0.734042 0.324013 0.766758 0.0127 Uiso
C111_5 C 0.756323 0.098189 0.795466 0.0127 Uiso
C112_5 C 0.887221 0.312509 0.712784 0.0127 Uiso
C113_5 C 0.675081 0.277725 0.716671 0.0127 Uiso
O24_5 O 0.780147 0.095246 0.809988 0.0127 Uiso
C114_5 C 0.743231 0.087057 0.752787 0.0127 Uiso
O25_5 O 0.871428 0.316765 0.685200 0.0127 Uiso
C115_5 C 0.920414 0.341933 0.728037 0.0127 Uiso
O26_5 O 0.663497 0.280219 0.746830 0.0127 Uiso
C116_5 C 0.652619 0.262700 0.678416 0.0127 Uiso
H1_5 H 0.824848 0.428334 0.75627 . .
H2_5 H 0.865626 0.414139 0.943919 . .
H3_5 H 0.897481 0.500055 0.874355 . .
H4_5 H 0.840163 0.354973 0.810395 . .
H5_5 H 0.796736 0.439369 0.820821 . .
H6_5 H 0.905793 0.462978 0.772844 . .
H7_5 H 0.807509 0.387979 0.920615 . .
H8_5 H 0.910088 0.404011 0.8689 . .
H9_5 H 0.81794 0.417605 0.674415 . .
H10_5 H 0.797535 0.339326 0.687689 . .
H12_5 H 0.820843 0.554239 0.542338 . .
H15_5 H 0.752428 0.468232 0.644391 . .
H16_5 H 0.95825 0.630937 0.718338 . .
H17_5 H 0.811522 0.48657 0.635653 . .
H19_5 H 0.914171 0.598071 0.535803 . .
H20_5 H 0.954464 0.529538 0.707218 . .
H21_5 H 0.959782 0.473148 0.745585 . .
H22_5 H 0.930708 0.656541 0.53923 . .
H23_5 H 0.817376 0.319839 0.748177 . .
H24_5 H 0.851415 0.577448 0.639235 . .
H25_5 H 0.961806 0.670508 0.665455 . .
H26_5 H 0.741944 0.428187 0.846275 . .
H27_5 H 0.989678 0.448377 0.780425 . .
H29_5 H 0.726555 0.493474 0.600993 . .
H30_5 H 0.907437 0.677201 0.593997 . .
H31_5 H 0.931881 0.489692 0.642863 . .
H32_5 H 0.982264 0.38368 0.912293 . .
H34_5 H 0.971101 0.412643 0.931717 . .
H36_5 H 0.905978 0.585224 0.905742 . .
H37_5 H 0.894821 0.592464 0.955737 . .
H38_5 H 0.937308 0.607011 0.943631 . .
H39_5 H 0.719301 0.395179 0.912318 . .
H43_5 H 0.704376 0.293894 0.980463 . .
H44_5 H 0.745922 0.319701 0.998041 . .
H45_5 H 0.720067 0.567856 0.520892 . .
H46_5 H 0.743693 0.604274 0.551208 . .
H47_5 H 0.7621 0.596471 0.507501 . .
H48_5 H 0.850411 0.679387 0.695995 . .
H49_5 H 0.89332 0.708073 0.704684 . .
H50_5 H 0.876888 0.701124 0.653596 . .
H52_5 H 0.887572 0.48751 0.624329 . .
H53_5 H 0.951881 0.591396 0.821225 . .
H54_5 H 0.989875 0.597374 0.627437 . .
H55_5 H 0.910781 0.518081 0.527432 . .
H57_5 H 0.826807 0.393222 0.565673 . .
H58_5 H 0.819904 0.478188 0.531013 . .
H59_5 H 0.992393 0.49616 0.879318 . .
H60_5 H 0.801565 0.419095 0.522276 . .
H61_5 H 0.9396 0.603755 0.896519 . .
H62_5 H 0.989566 0.685194 0.882741 . .
H63_5 H 0.931404 0.580838 0.630863 . .
H65_5 H 0.943525 0.537677 0.809548 . .
H67_5 H 0.942075 0.497724 0.861377 . .
H69_5 H 0.761667 0.270152 0.910397 . .
H70_5 H 0.737344 0.16059 0.797766 . .
H71_5 H 0.721312 0.247136 0.746052 . .
H72_5 H 0.747473 0.21518 0.722748 . .
H76_5 H 0.796312 0.223852 0.893823 . .
H77_5 H 0.833389 0.26924 0.792312 . .
H78_5 H 0.653172 0.16913 0.91849 . .
H79_5 H 0.772702 0.3093 0.845846 . .
H80_5 H 0.688306 0.181477 0.856272 . .
H81_5 H 0.901189 0.386734 0.645775 . .
H82_5 H 0.937608 0.41036 0.615458 . .
H83_5 H 0.929804 0.428767 0.659166 . .
H84_5 H 0.672659 0.208457 0.978978 . .
H85_5 H 0.745976 0.108209 0.73495 . .
H86_5 H 0.75714 0.0767478 0.737861 . .
H87_5 H 0.717013 0.0680824 0.754373 . .
H88_5 H 0.78171 0.125366 0.886242 . .
H89_5 H 0.940344 0.33637 0.723036 . .
H90_5 H 0.925797 0.36431 0.71093 . .
H91_5 H 0.918557 0.345912 0.760924 . .
H92_5 H 0.778155 0.2208 0.661061 . .
H93_5 H 0.76152 0.35291 0.820392 . .
H94_5 H 0.653035 0.240446 0.668626 . .
H95_5 H 0.627227 0.256185 0.686204 . .
H96_5 H 0.661713 0.280846 0.65337 . .
H97_5 H 0.806482 0.180033 0.921081 . .
H98_5 H 0.840202 0.25213 0.662593 . .
H99_5 H 0.728513 0.342545 0.754349 . .
H100_5 H 0.733673 0.286057 0.972234 . .
N26_6 N 0.670471 0.536885 0.023164 0.0127 Uiso
Fe7_6 Fe 0.666666 0.535173 0.083334 0.0063 Uiso
H13_6 H 0.555178 0.445867 0.0056054 . .
H41_6 H 0.493131 0.414536 0.00407353 . .
H42_6 H 0.67162 0.385821 0.0132968 . .
Nb1_6 Nb 0.477827 0.344788 0.745559 0.0063 Uiso
C1_6 C 0.513381 0.376771 0.791370 0.0127 Uiso
C2_6 C 0.446364 0.366225 0.742361 0.0127 Uiso
C3_6 C 0.469579 0.338817 0.679386 0.0127 Uiso
C4_6 C 0.483277 0.306191 0.774266 0.0127 Uiso
C5_6 C 0.506955 0.393826 0.717869 0.0127 Uiso
C6_6 C 0.451592 0.334296 0.805411 0.0127 Uiso
C7_6 C 0.430528 0.300021 0.733491 0.0127 Uiso
C8_6 C 0.521319 0.344849 0.719941 0.0127 Uiso
N1_6 N 0.532750 0.394791 0.814087 0.0127 Uiso
N2_6 N 0.429182 0.377519 0.742153 0.0127 Uiso
N3_6 N 0.466919 0.337138 0.643503 0.0127 Uiso
N5_6 N 0.521338 0.420040 0.702705 0.0127 Uiso
N6_6 N 0.437887 0.329338 0.836970 0.0127 Uiso
N7_6 N 0.405477 0.276367 0.726159 0.0127 Uiso
N8_6 N 0.544376 0.344901 0.706831 0.0127 Uiso
Fe1_6 Fe 0.575360 0.430726 0.845660 0.0063 Uiso
Fe2_8 Fe 0.403326 0.403327 0.750000 0.0063 Uiso
Fe3_6 Fe 0.464827 0.333334 0.583334 0.0063 Uiso
N9_6 N 0.605836 0.439897 0.787322 0.0127 Uiso
N10_6 N 0.567032 0.471538 0.822519 0.0127 Uiso
N11_6 N 0.544961 0.424674 0.904209 0.0127 Uiso
N12_6 N 0.585496 0.390758 0.868859 0.0127 Uiso
N13_6 N 0.435876 0.441158 0.702124 0.0127 Uiso
N14_6 N 0.367085 0.370130 0.701685 0.0127 Uiso
N15_6 N 0.478428 0.298479 0.588430 0.0127 Uiso
N16_6 N 0.416321 0.297956 0.587216 0.0127 Uiso
C9_6 C 0.595883 0.419100 0.754484 0.0127 Uiso
C10_6 C 0.636039 0.467788 0.784549 0.0127 Uiso
C11_6 C 0.580614 0.501664 0.841535 0.0127 Uiso
C12_6 C 0.548109 0.466764 0.788589 0.0127 Uiso
C13_6 C 0.512727 0.408402 0.903347 0.0127 Uiso
C14_6 C 0.558796 0.437615 0.942049 0.0127 Uiso
C15_6 C 0.603142 0.396089 0.904182 0.0127 Uiso
C16_6 C 0.574853 0.361798 0.849263 0.0127 Uiso
C17_6 C 0.464546 0.442251 0.691918 0.0127 Uiso
C18_6 C 0.428847 0.462517 0.683047 0.0127 Uiso
C19_6 C 0.353496 0.382530 0.675674 0.0127 Uiso
C20_6 C 0.358195 0.337714 0.697437 0.0127 Uiso
C21_6 C 0.464821 0.270627 0.564969 0.0127 Uiso
C22_6 C 0.502246 0.302638 0.616509 0.0127 Uiso
C23_6 C 0.404930 0.273989 0.616977 0.0127 Uiso
C24_6 C 0.393536 0.297209 0.559935 0.0127 Uiso
C25_6 C 0.614604 0.424583 0.718184 0.0127 Uiso
C26_6 C 0.656011 0.474825 0.749293 0.0127 Uiso
C27_6 C 0.575573 0.526811 0.827332 0.0127 Uiso
C28_6 C 0.542276 0.491497 0.773006 0.0127 Uiso
C29_6 C 0.494088 0.404682 0.938888 0.0127 Uiso
C30_6 C 0.541843 0.434653 0.976989 0.0127 Uiso
C31_6 C 0.610096 0.373040 0.919726 0.0127 Uiso
C32_6 C 0.580996 0.336983 0.863308 0.0127 Uiso
C33_6 C 0.486950 0.464053 0.663167 0.0127 Uiso
C34_6 C 0.450706 0.485164 0.653628 0.0127 Uiso
C35_6 C 0.330951 0.363726 0.644990 0.0127 Uiso
C36_6 C 0.335987 0.317280 0.667814 0.0127 Uiso
C37_6 C 0.474605 0.247325 0.569168 0.0127 Uiso
C38_6 C 0.512697 0.279877 0.621632 0.0127 Uiso
C39_6 C 0.372070 0.249876 0.619938 0.0127 Uiso
C40_6 C 0.360721 0.273749 0.561743 0.0127 Uiso
O1_6 O 0.603522 0.402672 0.685144 0.0127 Uiso
C41_6 C 0.645291 0.452921 0.715233 0.0127 Uiso
O2_6 O 0.591249 0.555914 0.850448 0.0127 Uiso
C42_6 C 0.555896 0.521734 0.792128 0.0127 Uiso
O3_6 O 0.458563 0.386434 0.935982 0.0127 Uiso
C43_6 C 0.507993 0.417625 0.976577 0.0127 Uiso
O4_6 O 0.630026 0.381868 0.959474 0.0127 Uiso
C44_6 C 0.599291 0.342654 0.899909 0.0127 Uiso
O5_6 O 0.515639 0.464308 0.653849 0.0127 Uiso
C45_6 C 0.479412 0.486185 0.643546 0.0127 Uiso
O6_6 O 0.317657 0.377523 0.619045 0.0127 Uiso
C46_6 C 0.321998 0.330356 0.640976 0.0127 Uiso
O7_6 O 0.459469 0.218897 0.543804 0.0127 Uiso
C47_6 C 0.498786 0.251593 0.597679 0.0127 Uiso
O8_6 O 0.363377 0.226396 0.652147 0.0127 Uiso
C48_6 C 0.349010 0.249194 0.592148 0.0127 Uiso
C49_6 C 0.577010 0.568478 0.871201 0.0127 Uiso
C50_6 C 0.446112 0.354158 0.953883 0.0127 Uiso
C51_6 C 0.658252 0.388942 0.949996 0.0127 Uiso
C52_6 C 0.433986 0.190361 0.560585 0.0127 Uiso
C53_6 C 0.337989 0.221186 0.677959 0.0127 Uiso
O9_6 O 0.553186 0.571421 0.856679 0.0127 Uiso
C54_6 C 0.590102 0.579610 0.913880 0.0127 Uiso
O10_6 O 0.461905 0.349902 0.981467 0.0127 Uiso
C55_6 C 0.412919 0.324734 0.938630 0.0127 Uiso
O11_6 O 0.669836 0.386448 0.919837 0.0127 Uiso
C56_6 C 0.680714 0.403967 0.988251 0.0127 Uiso
O12_6 O 0.426102 0.188802 0.596793 0.0127 Uiso
C57_6 C 0.414980 0.159702 0.533069 0.0127 Uiso
O13_6 O 0.338312 0.244376 0.695191 0.0127 Uiso
C58_6 C 0.310463 0.185884 0.683434 0.0127 Uiso
N17_6 N 0.618597 0.466820 0.875761 0.0127 Uiso
N18_6 N 0.441158 0.435876 0.797876 0.0127 Uiso
N19_6 N 0.370130 0.367085 0.798315 0.0127 Uiso
N20_6 N 0.377519 0.429182 0.757847 0.0127 Uiso
N21_6 N 0.513283 0.368188 0.578237 0.0127 Uiso
N22_6 N 0.451699 0.368711 0.579451 0.0127 Uiso
N23_6 N 0.463115 0.329529 0.523164 0.0127 Uiso
C59_6 C 0.639524 0.489580 0.892401 0.0127 Uiso
C60_6 C 0.442251 0.464546 0.808082 0.0127 Uiso
C61_6 C 0.462517 0.428847 0.816953 0.0127 Uiso
C62_6 C 0.382530 0.353496 0.824326 0.0127 Uiso
C63_6 C 0.337714 0.358195 0.802563 0.0127 Uiso
C64_6 C 0.527528 0.396040 0.601698 0.0127 Uiso
C65_6 C 0.532942 0.364029 0.550158 0.0127 Uiso
C66_6 C 0.464275 0.392678 0.549690 0.0127 Uiso
C67_6 C 0.429661 0.369458 0.606732 0.0127 Uiso
Nb2_6 Nb 0.678121 0.533627 0.921108 0.0063 Uiso
C68_6 C 0.464053 0.486950 0.836833 0.0127 Uiso
C69_6 C 0.485164 0.450706 0.846372 0.0127 Uiso
C70_6 C 0.363726 0.330951 0.855010 0.0127 Uiso
C71_6 C 0.317280 0.335987 0.832186 0.0127 Uiso
C72_6 C 0.560614 0.419342 0.597499 0.0127 Uiso
C73_6 C 0.566154 0.386790 0.545035 0.0127 Uiso
C74_6 C 0.455528 0.416791 0.546729 0.0127 Uiso
C75_6 C 0.420306 0.392918 0.604924 0.0127 Uiso
C76_6 C 0.710104 0.530056 0.875297 0.0127 Uiso
C77_6 C 0.699558 0.586527 0.924306 0.0127 Uiso
C78_6 C 0.672150 0.535904 0.987281 0.0127 Uiso
C79_6 C 0.727159 0.553537 0.948798 0.0127 Uiso
C80_6 C 0.667629 0.549370 0.861256 0.0127 Uiso
C81_6 C 0.633354 0.536159 0.933176 0.0127 Uiso
C82_6 C 0.678182 0.490196 0.946726 0.0127 Uiso
O14_6 O 0.464308 0.515639 0.846151 0.0127 Uiso
C83_6 C 0.486185 0.479412 0.856454 0.0127 Uiso
O15_6 O 0.377523 0.317657 0.880955 0.0127 Uiso
C84_6 C 0.330356 0.321998 0.859024 0.0127 Uiso
O16_6 O 0.573906 0.447770 0.622863 0.0127 Uiso
C85_6 C 0.580527 0.415074 0.568988 0.0127 Uiso
O17_6 O 0.470315 0.440271 0.514520 0.0127 Uiso
C86_6 C 0.433150 0.417473 0.574519 0.0127 Uiso
N24_6 N 0.728124 0.528707 0.852580 0.0127 Uiso
N25_6 N 0.710852 0.615003 0.924514 0.0127 Uiso
N27_6 N 0.753373 0.565368 0.963962 0.0127 Uiso
N28_6 N 0.662671 0.558117 0.829697 0.0127 Uiso
N29_6 N 0.609700 0.537556 0.940508 0.0127 Uiso
N30_6 N 0.678234 0.467191 0.959836 0.0127 Uiso
C87_6 C 0.576959 0.476306 0.606082 0.0127 Uiso
C88_6 C 0.450137 0.445481 0.488708 0.0127 Uiso
Fe6_8 Fe 0.736660 0.666666 0.916666 0.0063 Uiso
O18_6 O 0.570634 0.477865 0.569874 0.0127 Uiso
C89_6 C 0.588612 0.506965 0.633598 0.0127 Uiso
O19_6 O 0.427270 0.422291 0.471476 0.0127 Uiso
C90_6 C 0.457913 0.480783 0.483233 0.0127 Uiso
N31_6 N 0.773230 0.500727 0.879345 0.0127 Uiso
N32_6 N 0.804871 0.571172 0.844148 0.0127 Uiso
N33_6 N 0.758007 0.546379 0.762458 0.0127 Uiso
N34_6 N 0.724091 0.471928 0.797808 0.0127 Uiso
C91_6 C 0.752433 0.489883 0.912183 0.0127 Uiso
C92_6 C 0.801121 0.498415 0.882118 0.0127 Uiso
C93_6 C 0.834997 0.587716 0.825132 0.0127 Uiso
C94_6 C 0.800097 0.585321 0.878078 0.0127 Uiso
C95_6 C 0.741735 0.562341 0.763320 0.0127 Uiso
C96_6 C 0.770948 0.545485 0.724618 0.0127 Uiso
C97_6 C 0.729422 0.459613 0.762485 0.0127 Uiso
C98_6 C 0.695131 0.453611 0.817404 0.0127 Uiso
C99_6 C 0.757916 0.476645 0.948483 0.0127 Uiso
C100_6 C 0.808158 0.485480 0.917374 0.0127 Uiso
C101_6 C 0.860144 0.617904 0.839335 0.0127 Uiso
C102_6 C 0.824830 0.615887 0.893661 0.0127 Uiso
C103_6 C 0.738015 0.577260 0.727779 0.0127 Uiso
C104_6 C 0.767986 0.559476 0.689678 0.0127 Uiso
C105_6 C 0.706373 0.429610 0.746941 0.0127 Uiso
C106_6 C 0.670316 0.422653 0.803359 0.0127 Uiso
O20_6 O 0.736005 0.465816 0.981523 0.0127 Uiso
C107_6 C 0.786254 0.474296 0.951434 0.0127 Uiso
O21_6 O 0.889247 0.631331 0.816219 0.0127 Uiso
C108_6 C 0.855067 0.632504 0.874539 0.0127 Uiso
O22_6 O 0.719767 0.594537 0.730685 0.0127 Uiso
C109_6 C 0.750958 0.576298 0.690090 0.0127 Uiso
O23_6 O 0.715201 0.418508 0.707193 0.0127 Uiso
C110_6 C 0.675987 0.410029 0.766758 0.0127 Uiso
C111_6 C 0.901811 0.658134 0.795466 0.0127 Uiso
C112_6 C 0.687491 0.574712 0.712784 0.0127 Uiso
C113_6 C 0.722275 0.397356 0.716671 0.0127 Uiso
O24_6 O 0.904754 0.684901 0.809988 0.0127 Uiso
C114_6 C 0.912943 0.656174 0.752787 0.0127 Uiso
O25_6 O 0.683235 0.554663 0.685200 0.0127 Uiso
C115_6 C 0.658067 0.578481 0.728037 0.0127 Uiso
O26_6 O 0.719781 0.383278 0.746830 0.0127 Uiso
C116_6 C 0.737300 0.389919 0.678416 0.0127 Uiso
H1_6 H 0.571666 0.396514 0.75627 . .
H2_6 H 0.585861 0.451487 0.943919 . .
H3_6 H 0.499945 0.397426 0.874355 . .
H4_6 H 0.645027 0.48519 0.810395 . .
H5_6 H 0.560631 0.357367 0.820821 . .
H6_6 H 0.537022 0.442815 0.772844 . .
H7_6 H 0.612021 0.41953 0.920615 . .
H8_6 H 0.595989 0.506077 0.8689 . .
H9_6 H 0.582395 0.400336 0.674415 . .
H10_6 H 0.660674 0.45821 0.687689 . .
H11_6 H 0.405847 0.462323 0.690452 . .
H12_6 H 0.445761 0.266605 0.542338 . .
H14_6 H 0.44435 0.502276 0.638623 . .
H15_6 H 0.531768 0.284196 0.644391 . .
H16_6 H 0.369063 0.327312 0.718338 . .
H17_6 H 0.51343 0.324951 0.635653 . .
H18_6 H 0.360485 0.408604 0.678775 . .
H19_6 H 0.401929 0.3161 0.535803 . .
H20_6 H 0.470462 0.424926 0.707218 . .
H21_6 H 0.526852 0.486633 0.745585 . .
H22_6 H 0.343459 0.274166 0.53923 . .
H23_6 H 0.680161 0.497537 0.748177 . .
H24_6 H 0.422552 0.273967 0.639235 . .
H25_6 H 0.329492 0.291298 0.665455 . .
H26_6 H 0.571813 0.313757 0.846275 . .
H27_6 H 0.551623 0.541301 0.780425 . .
H28_6 H 0.304372 0.314806 0.617259 . .
H29_6 H 0.506526 0.233082 0.600993 . .
H30_6 H 0.322799 0.230236 0.593997 . .
H31_6 H 0.510308 0.442189 0.642863 . .
H32_6 H 0.61632 0.598584 0.912293 . .
H33_6 H 0.576193 0.589919 0.928805 . .
H34_6 H 0.587357 0.558458 0.931717 . .
H35_6 H 0.496232 0.50384 0.620682 . .
H36_6 H 0.414776 0.320755 0.905742 . .
H37_6 H 0.407536 0.302357 0.955737 . .
H38_6 H 0.392989 0.330297 0.943631 . .
H39_6 H 0.604821 0.324121 0.912318 . .
H40_6 H 0.335845 0.396245 0.603481 . .
H43_6 H 0.706106 0.410482 0.980463 . .
H44_6 H 0.680299 0.426221 0.998041 . .
H45_6 H 0.432144 0.152211 0.520892 . .
H46_6 H 0.395726 0.139419 0.551208 . .
H47_6 H 0.403529 0.16563 0.507501 . .
H48_6 H 0.320613 0.171024 0.695995 . .
H49_6 H 0.291927 0.185247 0.704684 . .
H50_6 H 0.298876 0.175764 0.653596 . .
H51_6 H 0.424926 0.470462 0.792782 . .
H52_6 H 0.51249 0.400062 0.624329 . .
H53_6 H 0.408604 0.360485 0.821225 . .
H54_6 H 0.402626 0.3925 0.627437 . .
H55_6 H 0.481919 0.3927 0.527432 . .
H56_6 H 0.442189 0.510308 0.857137 . .
H57_6 H 0.606778 0.433585 0.565673 . .
H58_6 H 0.521812 0.341715 0.531013 . .
H59_6 H 0.50384 0.496232 0.879318 . .
H60_6 H 0.580905 0.382471 0.522276 . .
H61_6 H 0.396245 0.335845 0.896519 . .
H62_6 H 0.314806 0.304372 0.882741 . .
H63_6 H 0.419162 0.350566 0.630863 . .
H64_6 H 0.425897 0.436431 0.57267 . .
H65_6 H 0.462323 0.405847 0.809548 . .
H66_6 H 0.327312 0.369063 0.781662 . .
H67_6 H 0.502276 0.44435 0.861377 . .
H68_6 H 0.291298 0.329492 0.834545 . .
H69_6 H 0.729848 0.491515 0.910397 . .
H70_6 H 0.83941 0.576754 0.797766 . .
H71_6 H 0.752864 0.474176 0.746052 . .
H72_6 H 0.78482 0.532293 0.722748 . .
H73_6 H 0.482922 0.495643 0.470672 . .
H74_6 H 0.440014 0.48142 0.461983 . .
H75_6 H 0.456445 0.490903 0.513071 . .
H76_6 H 0.776148 0.572459 0.893823 . .
H77_6 H 0.73076 0.564148 0.792312 . .
H78_6 H 0.83087 0.484042 0.91849 . .
H79_6 H 0.6907 0.463402 0.845846 . .
H80_6 H 0.818523 0.506829 0.856272 . .
H81_6 H 0.613266 0.514455 0.645775 . .
H82_6 H 0.58964 0.527248 0.615458 . .
H83_6 H 0.571233 0.501037 0.659166 . .
H84_6 H 0.791543 0.464202 0.978978 . .
H85_6 H 0.891791 0.637767 0.73495 . .
H86_6 H 0.923252 0.680392 0.737861 . .
H87_6 H 0.931918 0.648931 0.754373 . .
H88_6 H 0.874634 0.656344 0.886242 . .
H89_6 H 0.66363 0.603974 0.723036 . .
H90_6 H 0.63569 0.561487 0.71093 . .
H91_6 H 0.654088 0.572645 0.760924 . .
H92_6 H 0.7792 0.557355 0.661061 . .
H93_6 H 0.64709 0.408611 0.820392 . .
H94_6 H 0.759554 0.412589 0.668626 . .
H95_6 H 0.743815 0.371042 0.686204 . .
H96_6 H 0.719154 0.380867 0.65337 . .
H97_6 H 0.819967 0.626448 0.921081 . .
H98_6 H 0.74787 0.588072 0.662593 . .
H99_6 H 0.657455 0.385967 0.754349 . .
H100_6 H 0.713943 0.447616 0.972234 . .
C4_7 C 0.027143 0.843753 0.440932 0.0127 Uiso
C7_7 C 0.033313 0.797174 0.400157 0.0127 Uiso
N4_5 N 0.048070 0.866513 0.457572 0.0127 Uiso
N6_7 N 0.003996 0.775216 0.503636 0.0127 Uiso
N7_7 N 0.056967 0.795777 0.392825 0.0127 Uiso
Fe3_7 Fe -0.000000 0.798160 0.250000 0.0063 Uiso
N15_7 N 0.034855 0.846616 0.255096 0.0127 Uiso
N16_7 N 0.035378 0.785032 0.253882 0.0127 Uiso
C21_7 C 0.062707 0.860861 0.231635 0.0127 Uiso
C22_7 C 0.030696 0.866275 0.283175 0.0127 Uiso
C23_7 C 0.059345 0.797608 0.283643 0.0127 Uiso
C24_7 C 0.036125 0.762994 0.226601 0.0127 Uiso
C36_7 C 0.016054 0.685374 0.334480 0.0127 Uiso
C37_7 C 0.086009 0.893947 0.235834 0.0127 Uiso
C38_7 C 0.053457 0.899487 0.288298 0.0127 Uiso
C39_7 C 0.083458 0.788861 0.286604 0.0127 Uiso
C40_7 C 0.059585 0.753639 0.228409 0.0127 Uiso
C46_7 C 0.002978 0.658309 0.307642 0.0127 Uiso
O7_7 O 0.114437 0.907239 0.210470 0.0127 Uiso
C47_7 C 0.081741 0.913860 0.264345 0.0127 Uiso
O8_7 O 0.106938 0.803648 0.318813 0.0127 Uiso
C48_7 C 0.084140 0.766483 0.258814 0.0127 Uiso
C52_7 C 0.142973 0.910292 0.227251 0.0127 Uiso
C53_7 C 0.112148 0.783470 0.344625 0.0127 Uiso
C55_7 C 0.008600 0.754852 0.605296 0.0127 Uiso
O12_7 O 0.144532 0.903967 0.263459 0.0127 Uiso
C57_7 C 0.173632 0.921945 0.199735 0.0127 Uiso
O13_7 O 0.088958 0.760603 0.361857 0.0127 Uiso
C58_7 C 0.147450 0.791246 0.350100 0.0127 Uiso
Fe4_5 Fe 0.091306 0.902608 0.487674 0.0063 Uiso
N23_7 N 0.003804 0.800253 0.189831 0.0127 Uiso
C70_7 C 0.002382 0.699441 0.521677 0.0127 Uiso
O15_7 O 0.015676 0.726532 0.547622 0.0127 Uiso
C84_7 C 0.011335 0.675024 0.525691 0.0127 Uiso
H12_7 H 0.0667287 0.845823 0.209005 . .
H15_7 H 0.0491376 0.914239 0.311058 . .
H16_7 H 0.00602085 0.708417 0.385005 . .
H17_7 H 0.00838203 0.855145 0.30232 . .
H19_7 H 0.0172331 0.752496 0.20247 . .
H22_7 H 0.0591671 0.735959 0.205897 . .
H24_7 H 0.0593665 0.815252 0.305902 . .
H25_7 H 0.0420351 0.704861 0.332122 . .
H26_7 H 0.0195763 0.924723 0.512941 . .
H28_7 H 0.0185274 0.656233 0.283926 . .
H29_7 H 0.100252 0.940111 0.26766 . .
H30_7 H 0.103097 0.75923 0.260664 . .
H36_7 H 0.0125788 0.760688 0.572409 . .
H37_7 H 0.0309765 0.771846 0.622404 . .
H38_7 H 0.00303677 0.729359 0.610297 . .
H39_7 H 0.009212 0.947366 0.578985 . .
H45_7 H 0.181122 0.946599 0.187558 . .
H46_7 H 0.193915 0.922973 0.217875 . .
H47_7 H 0.167703 0.904566 0.174167 . .
H48_7 H 0.162309 0.816256 0.362661 . .
H49_7 H 0.148087 0.773347 0.37135 . .
H50_7 H 0.15757 0.789779 0.320262 . .
H62_7 H 0.0289613 0.677101 0.549408 . .
H68_7 H 0.00384105 0.628473 0.501211 . .
O26_7 O 0.950055 0.003170 0.413497 0.0127 Uiso
C116_7 C 0.943414 0.014048 0.345083 0.0127 Uiso
H78_7 H 0.849291 0.0134945 0.585157 . .
H94_7 H 0.920744 0.013632 0.335292 . .
H95_7 H 0.962291 0.0394394 0.35287 . .
H96_7 H 0.952466 0.00495363 0.320037 . .
Nb1_7 Nb 0.988546 0.799706 0.412225 0.0063 Uiso
C1_7 C 0.956563 0.803277 0.458036 0.0127 Uiso
C2_7 C 0.967109 0.746806 0.409027 0.0127 Uiso
C3_7 C 0.994517 0.797429 0.346052 0.0127 Uiso
C5_7 C 0.939508 0.779796 0.384535 0.0127 Uiso
C6_7 C 0.999038 0.783963 0.472077 0.0127 Uiso
C8_7 C 0.988485 0.843137 0.386607 0.0127 Uiso
N1_7 N 0.938543 0.804626 0.480753 0.0127 Uiso
N2_7 N 0.955815 0.718330 0.408819 0.0127 Uiso
N3_7 N 0.996196 0.796448 0.310169 0.0127 Uiso
N5_7 N 0.913294 0.767965 0.369371 0.0127 Uiso
N8_7 N 0.988433 0.866142 0.373497 0.0127 Uiso
Fe1_7 Fe 0.902608 0.811301 0.512326 0.0063 Uiso
Fe2_9 Fe 0.930007 0.666666 0.416666 0.0063 Uiso
Fe3_8 Fe 1.000000 0.798160 0.250000 0.0063 Uiso
N9_7 N 0.893437 0.832606 0.453988 0.0127 Uiso
N10_7 N 0.861796 0.762161 0.489185 0.0127 Uiso
N11_7 N 0.908660 0.786954 0.570875 0.0127 Uiso
N12_7 N 0.942576 0.861405 0.535525 0.0127 Uiso
N13_7 N 0.892176 0.661385 0.368790 0.0127 Uiso
N14_7 N 0.963204 0.663622 0.368351 0.0127 Uiso
C9_7 C 0.914234 0.843450 0.421150 0.0127 Uiso
C10_7 C 0.865546 0.834918 0.451215 0.0127 Uiso
C11_7 C 0.831670 0.745617 0.508201 0.0127 Uiso
C12_7 C 0.866570 0.748012 0.455255 0.0127 Uiso
C13_7 C 0.924932 0.770992 0.570013 0.0127 Uiso
C14_7 C 0.895719 0.787848 0.608715 0.0127 Uiso
C15_7 C 0.937245 0.873720 0.570848 0.0127 Uiso
C16_7 C 0.971536 0.879722 0.515929 0.0127 Uiso
C17_7 C 0.891083 0.688962 0.358584 0.0127 Uiso
C18_7 C 0.870817 0.632997 0.349713 0.0127 Uiso
C19_7 C 0.950804 0.637633 0.342340 0.0127 Uiso
C20_7 C 0.995620 0.687148 0.364103 0.0127 Uiso
C25_7 C 0.908751 0.856688 0.384850 0.0127 Uiso
C26_7 C 0.858509 0.847853 0.415959 0.0127 Uiso
C27_7 C 0.806523 0.715429 0.493998 0.0127 Uiso
C28_7 C 0.841837 0.717446 0.439672 0.0127 Uiso
C29_7 C 0.928652 0.756073 0.605554 0.0127 Uiso
C30_7 C 0.898681 0.773857 0.643655 0.0127 Uiso
C31_7 C 0.960294 0.903723 0.586392 0.0127 Uiso
C32_7 C 0.996351 0.910680 0.529974 0.0127 Uiso
C33_7 C 0.869281 0.689564 0.329833 0.0127 Uiso
C34_7 C 0.848170 0.632209 0.320294 0.0127 Uiso
C35_7 C 0.969608 0.633892 0.311656 0.0127 Uiso
O1_7 O 0.930662 0.867517 0.351810 0.0127 Uiso
C41_7 C 0.880413 0.859037 0.381899 0.0127 Uiso
O2_7 O 0.777420 0.702002 0.517114 0.0127 Uiso
C42_7 C 0.811600 0.700829 0.458794 0.0127 Uiso
O3_7 O 0.946900 0.738796 0.602648 0.0127 Uiso
C43_7 C 0.915709 0.757035 0.643243 0.0127 Uiso
O4_7 O 0.951466 0.914825 0.626140 0.0127 Uiso
C44_7 C 0.990680 0.923304 0.566575 0.0127 Uiso
O5_7 O 0.869026 0.717998 0.320515 0.0127 Uiso
C45_7 C 0.847149 0.659894 0.310212 0.0127 Uiso
O6_7 O 0.955811 0.606801 0.285711 0.0127 Uiso
C49_7 C 0.764856 0.675199 0.537867 0.0127 Uiso
C50_7 C 0.979176 0.758621 0.620549 0.0127 Uiso
C51_7 C 0.944392 0.935977 0.616662 0.0127 Uiso
O9_7 O 0.761913 0.648432 0.523345 0.0127 Uiso
C54_7 C 0.753724 0.677159 0.580546 0.0127 Uiso
O10_7 O 0.983432 0.778670 0.648133 0.0127 Uiso
O11_7 O 0.946886 0.950055 0.586503 0.0127 Uiso
C56_7 C 0.929367 0.943414 0.654917 0.0127 Uiso
N17_7 N 0.866513 0.818444 0.542428 0.0127 Uiso
N18_7 N 0.897457 0.671948 0.464543 0.0127 Uiso
N19_7 N 0.966248 0.669711 0.464982 0.0127 Uiso
N20_7 N 0.904151 0.615003 0.424514 0.0127 Uiso
N21_7 N 0.965145 0.811762 0.244904 0.0127 Uiso
N22_7 N 0.964622 0.749655 0.246118 0.0127 Uiso
C59_7 C 0.843753 0.816611 0.559068 0.0127 Uiso
C60_7 C 0.868787 0.644371 0.474749 0.0127 Uiso
C61_7 C 0.904486 0.700336 0.483620 0.0127 Uiso
C62_7 C 0.979837 0.695700 0.490993 0.0127 Uiso
C63_7 C 0.975138 0.646185 0.469230 0.0127 Uiso
C64_7 C 0.937293 0.798155 0.268365 0.0127 Uiso
C65_7 C 0.969304 0.835580 0.216825 0.0127 Uiso
C66_7 C 0.940655 0.738264 0.216357 0.0127 Uiso
C67_7 C 0.963875 0.726870 0.273399 0.0127 Uiso
Nb2_7 Nb 0.799706 0.811161 0.587775 0.0063 Uiso
C68_7 C 0.846383 0.643769 0.503500 0.0127 Uiso
C69_7 C 0.882627 0.701124 0.513039 0.0127 Uiso
C71_7 C 0.997346 0.647959 0.498853 0.0127 Uiso
C72_7 C 0.913991 0.807939 0.264166 0.0127 Uiso
C73_7 C 0.946543 0.846031 0.211702 0.0127 Uiso
C74_7 C 0.916542 0.705404 0.213396 0.0127 Uiso
C75_7 C 0.940415 0.694055 0.271591 0.0127 Uiso
C76_7 C 0.803277 0.846715 0.541964 0.0127 Uiso
C77_7 C 0.746806 0.779698 0.590973 0.0127 Uiso
C78_7 C 0.797429 0.802913 0.653948 0.0127 Uiso
C79_7 C 0.779796 0.840289 0.615465 0.0127 Uiso
C80_7 C 0.783963 0.784926 0.527923 0.0127 Uiso
C81_7 C 0.797174 0.763862 0.599843 0.0127 Uiso
C82_7 C 0.843137 0.854653 0.613393 0.0127 Uiso
O14_7 O 0.817694 0.615335 0.512818 0.0127 Uiso
C83_7 C 0.853921 0.673439 0.523121 0.0127 Uiso
O16_7 O 0.885563 0.792803 0.289530 0.0127 Uiso
C85_7 C 0.918259 0.832120 0.235655 0.0127 Uiso
O17_7 O 0.893062 0.696711 0.181187 0.0127 Uiso
C86_7 C 0.915860 0.682344 0.241186 0.0127 Uiso
N24_7 N 0.804626 0.866084 0.519247 0.0127 Uiso
N25_7 N 0.718330 0.762516 0.591181 0.0127 Uiso
N26_7 N 0.796448 0.800253 0.689831 0.0127 Uiso
N27_7 N 0.767965 0.854672 0.630629 0.0127 Uiso
N28_7 N 0.775216 0.771221 0.496364 0.0127 Uiso
N29_7 N 0.795777 0.738811 0.607175 0.0127 Uiso
N30_7 N 0.866142 0.877710 0.626503 0.0127 Uiso
C87_7 C 0.857027 0.767320 0.272749 0.0127 Uiso
C88_7 C 0.887852 0.671323 0.155375 0.0127 Uiso
Fe5_3 Fe 0.811301 0.908694 0.487674 0.0063 Uiso
Fe6_9 Fe 0.666667 0.736660 0.583333 0.0063 Uiso
Fe7_7 Fe 0.798161 0.798160 0.750000 0.0063 Uiso
O18_7 O 0.855468 0.759436 0.236541 0.0127 Uiso
C89_7 C 0.826368 0.748314 0.300265 0.0127 Uiso
O19_7 O 0.911042 0.671646 0.138143 0.0127 Uiso
C90_7 C 0.852550 0.643797 0.149900 0.0127 Uiso
N31_7 N 0.832606 0.939170 0.546012 0.0127 Uiso
N32_7 N 0.762161 0.900366 0.510815 0.0127 Uiso
N33_7 N 0.786954 0.878295 0.429125 0.0127 Uiso
N34_7 N 0.861405 0.918830 0.464475 0.0127 Uiso
N35_3 N 0.818444 0.951930 0.457572 0.0127 Uiso
C91_7 C 0.843450 0.929217 0.578850 0.0127 Uiso
C92_7 C 0.834918 0.969373 0.548785 0.0127 Uiso
C93_7 C 0.745617 0.913948 0.491799 0.0127 Uiso
C94_7 C 0.748012 0.881443 0.544745 0.0127 Uiso
C95_7 C 0.770992 0.846061 0.429987 0.0127 Uiso
C96_7 C 0.787848 0.892130 0.391285 0.0127 Uiso
C97_7 C 0.873720 0.936476 0.429152 0.0127 Uiso
C98_7 C 0.879722 0.908187 0.484071 0.0127 Uiso
C99_7 C 0.856688 0.947938 0.615150 0.0127 Uiso
C100_7 C 0.847853 0.989345 0.584041 0.0127 Uiso
C101_7 C 0.715429 0.908907 0.506002 0.0127 Uiso
C102_7 C 0.717446 0.875610 0.560328 0.0127 Uiso
C103_7 C 0.756073 0.827422 0.394446 0.0127 Uiso
C104_7 C 0.773857 0.875177 0.356345 0.0127 Uiso
C105_7 C 0.903723 0.943430 0.413608 0.0127 Uiso
C106_7 C 0.910680 0.914330 0.470026 0.0127 Uiso
O20_7 O 0.867517 0.936856 0.648190 0.0127 Uiso
C107_7 C 0.859037 0.978625 0.618101 0.0127 Uiso
O21_7 O 0.702002 0.924583 0.482886 0.0127 Uiso
C108_7 C 0.700829 0.889230 0.541206 0.0127 Uiso
O22_7 O 0.738796 0.791897 0.397352 0.0127 Uiso
C109_7 C 0.757035 0.841327 0.356757 0.0127 Uiso
O23_7 O 0.914825 0.963360 0.373860 0.0127 Uiso
C110_7 C 0.923304 0.932625 0.433425 0.0127 Uiso
C111_7 C 0.675199 0.910344 0.462133 0.0127 Uiso
C112_7 C 0.758621 0.779446 0.379451 0.0127 Uiso
C113_7 C 0.935977 0.991586 0.383338 0.0127 Uiso
O24_7 O 0.648432 0.886520 0.476655 0.0127 Uiso
C114_7 C 0.677159 0.923436 0.419454 0.0127 Uiso
O25_7 O 0.778670 0.795239 0.351867 0.0127 Uiso
C115_7 C 0.754852 0.746253 0.394704 0.0127 Uiso
H1_7 H 0.936819 0.841819 0.422936 . .
H2_7 H 0.881847 0.801041 0.610586 . .
H3_7 H 0.935907 0.769185 0.541021 . .
H4_7 H 0.848144 0.826504 0.477062 . .
H5_7 H 0.975966 0.869931 0.487488 . .
H6_7 H 0.890519 0.760874 0.439511 . .
H7_7 H 0.913803 0.859158 0.587282 . .
H8_7 H 0.827257 0.756579 0.535567 . .
H9_7 H 0.932998 0.848726 0.341081 . .
H10_7 H 0.875124 0.869132 0.354355 . .
H11_7 H 0.871011 0.610191 0.357119 . .
H13_7 H 0.887466 0.775978 0.672272 . .
H14_7 H 0.831058 0.608741 0.30529 . .
H18_7 H 0.924729 0.618548 0.345441 . .
H20_7 H 0.908408 0.712203 0.373885 . .
H21_7 H 0.8467 0.706885 0.412252 . .
H23_7 H 0.835796 0.849291 0.414843 . .
H27_7 H 0.792032 0.676989 0.447092 . .
H31_7 H 0.891145 0.734786 0.30953 . .
H32_7 H 0.734749 0.684403 0.57896 . .
H33_7 H 0.743415 0.652941 0.595472 . .
H34_7 H 0.774876 0.695566 0.598384 . .
H35_7 H 0.829494 0.659059 0.287348 . .
H40_7 H 0.937088 0.606267 0.270148 . .
H41_7 H 0.918797 0.745262 0.67074 . .
H42_7 H 0.947513 0.952466 0.679963 . .
H43_7 H 0.922851 0.962291 0.64713 . .
H44_7 H 0.907112 0.920744 0.664708 . .
H51_7 H 0.862872 0.62113 0.459449 . .
H52_7 H 0.933271 0.779095 0.290995 . .
H53_7 H 0.972848 0.714786 0.487892 . .
H54_7 H 0.940833 0.676792 0.294103 . .
H55_7 H 0.940633 0.755885 0.194098 . .
H56_7 H 0.823026 0.598547 0.523803 . .
H57_7 H 0.899748 0.83986 0.23234 . .
H58_7 H 0.991618 0.846763 0.19768 . .
H59_7 H 0.837101 0.674274 0.545985 . .
H60_7 H 0.950862 0.865101 0.188942 . .
H61_7 H 0.997488 0.727066 0.563185 . .
H63_7 H 0.982767 0.735263 0.29753 . .
H64_7 H 0.896903 0.656133 0.239336 . .
H65_7 H 0.927486 0.723142 0.476214 . .
H66_7 H 0.964271 0.624917 0.448329 . .
H67_7 H 0.888983 0.724592 0.528044 . .
H69_7 H 0.841819 0.905 0.577064 . .
H70_7 H 0.756579 0.929322 0.464433 . .
H71_7 H 0.859158 0.945355 0.412718 . .
H72_7 H 0.801041 0.919194 0.389414 . .
H73_7 H 0.837691 0.653946 0.137339 . .
H74_7 H 0.851913 0.62526 0.12865 . .
H75_7 H 0.84243 0.632209 0.179738 . .
H76_7 H 0.760874 0.870355 0.560489 . .
H77_7 H 0.769185 0.833278 0.458979 . .
H79_7 H 0.869931 0.893965 0.512512 . .
H80_7 H 0.826504 0.97836 0.522938 . .
H81_7 H 0.818878 0.765477 0.312442 . .
H82_7 H 0.806085 0.729059 0.282125 . .
H83_7 H 0.832297 0.736863 0.325833 . .
H84_7 H 0.869132 0.994008 0.645645 . .
H85_7 H 0.695566 0.92069 0.401616 . .
H86_7 H 0.652941 0.909527 0.404528 . .
H87_7 H 0.684403 0.949654 0.42104 . .
H88_7 H 0.676989 0.884956 0.552908 . .
H89_7 H 0.729359 0.726322 0.389703 . .
H90_7 H 0.771846 0.74087 0.377596 . .
H91_7 H 0.760688 0.74811 0.427591 . .
H92_7 H 0.775978 0.888512 0.327728 . .
H93_7 H 0.924723 0.905147 0.487059 . .
H97_7 H 0.706885 0.860185 0.587748 . .
H98_7 H 0.745262 0.826465 0.32926 . .
H99_7 H 0.947366 0.938154 0.421015 . .
H100_7 H 0.885717 0.932994 0.638901 . .
Nb1_8 Nb 0.200294 0.188839 0.412225 0.0063 Uiso
C1_8 C 0.196723 0.153285 0.458036 0.0127 Uiso
C2_8 C 0.253194 0.220302 0.409027 0.0127 Uiso
C3_8 C 0.202571 0.197087 0.346052 0.0127 Uiso
C4_8 C 0.156247 0.183389 0.440932 0.0127 Uiso
C5_8 C 0.220204 0.159711 0.384535 0.0127 Uiso
C6_8 C 0.216037 0.215074 0.472077 0.0127 Uiso
C7_8 C 0.202826 0.236138 0.400157 0.0127 Uiso
C8_8 C 0.156863 0.145347 0.386607 0.0127 Uiso
N1_8 N 0.195374 0.133916 0.480753 0.0127 Uiso
N2_8 N 0.281670 0.237484 0.408819 0.0127 Uiso
N3_8 N 0.203552 0.199747 0.310169 0.0127 Uiso
N4_6 N 0.133487 0.181556 0.457572 0.0127 Uiso
N5_8 N 0.232035 0.145328 0.369371 0.0127 Uiso
N6_8 N 0.224784 0.228779 0.503636 0.0127 Uiso
N7_8 N 0.204223 0.261189 0.392825 0.0127 Uiso
N8_8 N 0.133858 0.122290 0.373497 0.0127 Uiso
Fe1_8 Fe 0.188699 0.091306 0.512326 0.0063 Uiso
Fe2_10 Fe 0.333334 0.263340 0.416666 0.0063 Uiso
Fe3_9 Fe 0.201840 0.201839 0.250000 0.0063 Uiso
N9_8 N 0.167394 0.060830 0.453988 0.0127 Uiso
N10_8 N 0.237839 0.099634 0.489185 0.0127 Uiso
N11_8 N 0.213046 0.121705 0.570875 0.0127 Uiso
N12_8 N 0.138595 0.081170 0.535525 0.0127 Uiso
N13_8 N 0.338615 0.230790 0.368790 0.0127 Uiso
N14_8 N 0.336378 0.299581 0.368351 0.0127 Uiso
N15_8 N 0.153384 0.188238 0.255096 0.0127 Uiso
N16_8 N 0.214968 0.250345 0.253882 0.0127 Uiso
C9_8 C 0.156550 0.070783 0.421150 0.0127 Uiso
C10_8 C 0.165082 0.030627 0.451215 0.0127 Uiso
C11_8 C 0.254383 0.086052 0.508201 0.0127 Uiso
C12_8 C 0.251988 0.118557 0.455255 0.0127 Uiso
C13_8 C 0.229008 0.153939 0.570013 0.0127 Uiso
C14_8 C 0.212152 0.107870 0.608715 0.0127 Uiso
C15_8 C 0.126280 0.063524 0.570848 0.0127 Uiso
C16_8 C 0.120278 0.091813 0.515929 0.0127 Uiso
C17_8 C 0.311038 0.202120 0.358584 0.0127 Uiso
C18_8 C 0.367003 0.237819 0.349713 0.0127 Uiso
C19_8 C 0.362367 0.313170 0.342340 0.0127 Uiso
C20_8 C 0.312852 0.308471 0.364103 0.0127 Uiso
C21_8 C 0.139139 0.201845 0.231635 0.0127 Uiso
C22_8 C 0.133725 0.164420 0.283175 0.0127 Uiso
C23_8 C 0.202392 0.261736 0.283643 0.0127 Uiso
C24_8 C 0.237006 0.273130 0.226601 0.0127 Uiso
C25_8 C 0.143312 0.052062 0.384850 0.0127 Uiso
C26_8 C 0.152147 0.010655 0.415959 0.0127 Uiso
C27_8 C 0.284571 0.091093 0.493998 0.0127 Uiso
C28_8 C 0.282554 0.124390 0.439672 0.0127 Uiso
C29_8 C 0.243927 0.172578 0.605554 0.0127 Uiso
C30_8 C 0.226143 0.124823 0.643655 0.0127 Uiso
C31_8 C 0.096277 0.056570 0.586392 0.0127 Uiso
C32_8 C 0.089320 0.085670 0.529974 0.0127 Uiso
C33_8 C 0.310436 0.179716 0.329833 0.0127 Uiso
C34_8 C 0.367791 0.215960 0.320294 0.0127 Uiso
C35_8 C 0.366108 0.335715 0.311656 0.0127 Uiso
C36_8 C 0.314626 0.330679 0.334480 0.0127 Uiso
C37_8 C 0.106053 0.192061 0.235834 0.0127 Uiso
C38_8 C 0.100513 0.153969 0.288298 0.0127 Uiso
C39_8 C 0.211139 0.294596 0.286604 0.0127 Uiso
C40_8 C 0.246361 0.305945 0.228409 0.0127 Uiso
O1_8 O 0.132483 0.063144 0.351810 0.0127 Uiso
C41_8 C 0.140963 0.021375 0.381899 0.0127 Uiso
O2_8 O 0.297998 0.075417 0.517114 0.0127 Uiso
C42_8 C 0.299171 0.110770 0.458794 0.0127 Uiso
O3_8 O 0.261204 0.208103 0.602648 0.0127 Uiso
C43_8 C 0.242965 0.158673 0.643243 0.0127 Uiso
O4_8 O 0.085175 0.036640 0.626140 0.0127 Uiso
C44_8 C 0.076696 0.067375 0.566575 0.0127 Uiso
O5_8 O 0.282002 0.151027 0.320515 0.0127 Uiso
C45_8 C 0.340106 0.187254 0.310212 0.0127 Uiso
O6_8 O 0.393199 0.349009 0.285711 0.0127 Uiso
C46_8 C 0.341691 0.344668 0.307642 0.0127 Uiso
O7_8 O 0.092761 0.207197 0.210470 0.0127 Uiso
C47_8 C 0.086140 0.167880 0.264345 0.0127 Uiso
O8_8 O 0.196352 0.303289 0.318813 0.0127 Uiso
C48_8 C 0.233517 0.317656 0.258814 0.0127 Uiso
C49_8 C 0.324801 0.089656 0.537867 0.0127 Uiso
C50_8 C 0.241379 0.220554 0.620549 0.0127 Uiso
C51_8 C 0.064023 0.008414 0.616662 0.0127 Uiso
C52_8 C 0.089708 0.232680 0.227251 0.0127 Uiso
C53_8 C 0.216530 0.328677 0.344625 0.0127 Uiso
O9_8 O 0.351568 0.113480 0.523345 0.0127 Uiso
C54_8 C 0.322841 0.076564 0.580546 0.0127 Uiso
O10_8 O 0.221330 0.204761 0.648133 0.0127 Uiso
C55_8 C 0.245148 0.253747 0.605296 0.0127 Uiso
O12_8 O 0.096033 0.240564 0.263459 0.0127 Uiso
C57_8 C 0.078055 0.251686 0.199735 0.0127 Uiso
O13_8 O 0.239397 0.328354 0.361857 0.0127 Uiso
C58_8 C 0.208754 0.356203 0.350100 0.0127 Uiso
Fe4_6 Fe 0.097392 0.188699 0.487674 0.0063 Uiso
N17_8 N 0.181556 0.048070 0.542428 0.0127 Uiso
N18_8 N 0.328052 0.225509 0.464543 0.0127 Uiso
N19_8 N 0.330289 0.296537 0.464982 0.0127 Uiso
N20_8 N 0.384997 0.289148 0.424514 0.0127 Uiso
N21_8 N 0.188238 0.153384 0.244904 0.0127 Uiso
N22_8 N 0.250345 0.214968 0.246118 0.0127 Uiso
N23_8 N 0.199747 0.203552 0.189831 0.0127 Uiso
C59_8 C 0.183389 0.027143 0.559068 0.0127 Uiso
C60_8 C 0.355629 0.224416 0.474749 0.0127 Uiso
C61_8 C 0.299664 0.204150 0.483620 0.0127 Uiso
C62_8 C 0.304300 0.284137 0.490993 0.0127 Uiso
C63_8 C 0.353815 0.328953 0.469230 0.0127 Uiso
C64_8 C 0.201845 0.139139 0.268365 0.0127 Uiso
C65_8 C 0.164420 0.133725 0.216825 0.0127 Uiso
C66_8 C 0.261736 0.202392 0.216357 0.0127 Uiso
C67_8 C 0.273130 0.237006 0.273399 0.0127 Uiso
C68_8 C 0.356231 0.202614 0.503500 0.0127 Uiso
C69_8 C 0.298876 0.181503 0.513039 0.0127 Uiso
C70_8 C 0.300559 0.302941 0.521677 0.0127 Uiso
C71_8 C 0.352041 0.349387 0.498853 0.0127 Uiso
C72_8 C 0.192061 0.106053 0.264166 0.0127 Uiso
C73_8 C 0.153969 0.100513 0.211702 0.0127 Uiso
C74_8 C 0.294596 0.211139 0.213396 0.0127 Uiso
C75_8 C 0.305945 0.246361 0.271591 0.0127 Uiso
C81_8 C 0.236138 0.033313 0.599843 0.0127 Uiso
O14_8 O 0.384665 0.202359 0.512818 0.0127 Uiso
C83_8 C 0.326561 0.180482 0.523121 0.0127 Uiso
O15_8 O 0.273468 0.289144 0.547622 0.0127 Uiso
C84_8 C 0.324976 0.336311 0.525691 0.0127 Uiso
O16_8 O 0.207197 0.092761 0.289530 0.0127 Uiso
C85_8 C 0.167880 0.086140 0.235655 0.0127 Uiso
O17_8 O 0.303289 0.196352 0.181187 0.0127 Uiso
C86_8 C 0.317656 0.233517 0.241186 0.0127 Uiso
N28_8 N 0.228779 0.003996 0.496364 0.0127 Uiso
N29_8 N 0.261189 0.056967 0.607175 0.0127 Uiso
C87_8 C 0.232680 0.089708 0.272749 0.0127 Uiso
C88_8 C 0.328677 0.216530 0.155375 0.0127 Uiso
Fe7_8 Fe 0.201840 0.000000 0.750000 0.0063 Uiso
O18_8 O 0.240564 0.096033 0.236541 0.0127 Uiso
C89_8 C 0.251686 0.078055 0.300265 0.0127 Uiso
O19_8 O 0.328354 0.239397 0.138143 0.0127 Uiso
C90_8 C 0.356203 0.208754 0.149900 0.0127 Uiso
C115_8 C 0.253747 0.008600 0.394704 0.0127 Uiso
H1_8 H 0.158181 0.0950005 0.422936 . .
H2_8 H 0.198959 0.0808061 0.610586 . .
H3_8 H 0.230815 0.166722 0.541021 . .
H4_8 H 0.173496 0.0216395 0.477062 . .
H5_8 H 0.130069 0.106035 0.487488 . .
H6_8 H 0.239126 0.129645 0.439511 . .
H7_8 H 0.140842 0.0546453 0.587282 . .
H8_8 H 0.243421 0.0706775 0.535567 . .
H9_8 H 0.151274 0.0842713 0.341081 . .
H10_8 H 0.130868 0.00599218 0.354355 . .
H11_8 H 0.389809 0.260819 0.357119 . .
H12_8 H 0.154177 0.220905 0.209005 . .
H13_8 H 0.224022 0.111488 0.672272 . .
H14_8 H 0.391259 0.222316 0.30529 . .
H15_8 H 0.0857612 0.134899 0.311058 . .
H16_8 H 0.291583 0.297604 0.385005 . .
H17_8 H 0.144855 0.153237 0.30232 . .
H18_8 H 0.381452 0.306181 0.345441 . .
H19_8 H 0.247504 0.264737 0.20247 . .
H20_8 H 0.287797 0.196205 0.373885 . .
H21_8 H 0.293115 0.139815 0.412252 . .
H22_8 H 0.264041 0.323208 0.205897 . .
H24_8 H 0.184748 0.244115 0.305902 . .
H25_8 H 0.295139 0.337174 0.332122 . .
H26_8 H 0.0752772 0.0948534 0.512941 . .
H27_8 H 0.323011 0.115044 0.447092 . .
H28_8 H 0.343767 0.362295 0.283926 . .
H29_8 H 0.0598888 0.16014 0.26766 . .
H30_8 H 0.24077 0.343867 0.260664 . .
H31_8 H 0.265214 0.156359 0.30953 . .
H32_8 H 0.315597 0.0503463 0.57896 . .
H33_8 H 0.347059 0.0904735 0.595472 . .
H34_8 H 0.304434 0.0793097 0.598384 . .
H35_8 H 0.340941 0.170434 0.287348 . .
H36_8 H 0.239312 0.25189 0.572409 . .
H37_8 H 0.228154 0.25913 0.622404 . .
H38_8 H 0.270641 0.273678 0.610297 . .
H39_8 H 0.0526341 0.0618461 0.578985 . .
H40_8 H 0.393733 0.330821 0.270148 . .
H41_8 H 0.254738 0.173535 0.67074 . .
H45_8 H 0.0534007 0.234523 0.187558 . .
H46_8 H 0.0770266 0.270941 0.217875 . .
H47_8 H 0.0954338 0.263137 0.174167 . .
H48_8 H 0.183744 0.346054 0.362661 . .
H49_8 H 0.226653 0.37474 0.37135 . .
H50_8 H 0.210221 0.367791 0.320262 . .
H51_8 H 0.37887 0.241741 0.459449 . .
H52_8 H 0.220905 0.154177 0.290995 . .
H53_8 H 0.285214 0.258062 0.487892 . .
H54_8 H 0.323208 0.264041 0.294103 . .
H55_8 H 0.244115 0.184748 0.194098 . .
H56_8 H 0.401453 0.224478 0.523803 . .
H57_8 H 0.16014 0.0598888 0.23234 . .
H58_8 H 0.153237 0.144855 0.19768 . .
H59_8 H 0.325726 0.162827 0.545985 . .
H60_8 H 0.134899 0.0857612 0.188942 . .
H61_8 H 0.272934 0.270422 0.563185 . .
H62_8 H 0.322899 0.351861 0.549408 . .
H63_8 H 0.264737 0.247504 0.29753 . .
H64_8 H 0.343867 0.24077 0.239336 . .
H65_8 H 0.276858 0.204344 0.476214 . .
H66_8 H 0.375083 0.339354 0.448329 . .
H67_8 H 0.275408 0.164391 0.528044 . .
H68_8 H 0.371527 0.375368 0.501211 . .
H73_8 H 0.346054 0.183744 0.137339 . .
H74_8 H 0.37474 0.226653 0.12865 . .
H75_8 H 0.367791 0.210221 0.179738 . .
H81_8 H 0.234523 0.0534007 0.312442 . .
H82_8 H 0.270941 0.0770266 0.282125 . .
H83_8 H 0.263137 0.0954338 0.325833 . .
H89_8 H 0.273678 0.00303677 0.389703 . .
H90_8 H 0.25913 0.0309765 0.377596 . .
H91_8 H 0.25189 0.0125788 0.427591 . .
H93_8 H 0.0948534 0.0195763 0.487059 . .
H99_8 H 0.0618461 0.009212 0.421015 . .
O11_8 O 0.049945 0.996830 0.586503 0.0127 Uiso
C56_8 C 0.056586 0.985952 0.654917 0.0127 Uiso
Nb2_8 Nb 0.188839 0.988546 0.587775 0.0063 Uiso
C76_8 C 0.153285 0.956563 0.541964 0.0127 Uiso
C77_8 C 0.220302 0.967109 0.590973 0.0127 Uiso
C78_8 C 0.197087 0.994517 0.653948 0.0127 Uiso
C79_8 C 0.159711 0.939508 0.615465 0.0127 Uiso
C80_8 C 0.215074 0.999038 0.527923 0.0127 Uiso
C82_8 C 0.145347 0.988485 0.613393 0.0127 Uiso
N24_8 N 0.133916 0.938543 0.519247 0.0127 Uiso
N25_8 N 0.237484 0.955815 0.591181 0.0127 Uiso
N26_8 N 0.199747 0.996196 0.689831 0.0127 Uiso
N27_8 N 0.145328 0.913294 0.630629 0.0127 Uiso
N30_8 N 0.122290 0.988433 0.626503 0.0127 Uiso
Fe6_10 Fe 0.263340 0.930007 0.583333 0.0063 Uiso
Fe7_9 Fe 0.201840 1.000000 0.750000 0.0063 Uiso
N31_8 N 0.060830 0.893437 0.546012 0.0127 Uiso
N32_8 N 0.099634 0.861796 0.510815 0.0127 Uiso
N33_8 N 0.121705 0.908660 0.429125 0.0127 Uiso
N34_8 N 0.081170 0.942576 0.464475 0.0127 Uiso
C91_8 C 0.070783 0.914234 0.578850 0.0127 Uiso
C92_8 C 0.030627 0.865546 0.548785 0.0127 Uiso
C93_8 C 0.086052 0.831670 0.491799 0.0127 Uiso
C94_8 C 0.118557 0.866570 0.544745 0.0127 Uiso
C95_8 C 0.153939 0.924932 0.429987 0.0127 Uiso
C96_8 C 0.107870 0.895719 0.391285 0.0127 Uiso
C97_8 C 0.063524 0.937245 0.429152 0.0127 Uiso
C98_8 C 0.091813 0.971536 0.484071 0.0127 Uiso
C99_8 C 0.052062 0.908751 0.615150 0.0127 Uiso
C100_8 C 0.010655 0.858509 0.584041 0.0127 Uiso
C101_8 C 0.091093 0.806523 0.506002 0.0127 Uiso
C102_8 C 0.124390 0.841837 0.560328 0.0127 Uiso
C103_8 C 0.172578 0.928652 0.394446 0.0127 Uiso
C104_8 C 0.124823 0.898681 0.356345 0.0127 Uiso
C105_8 C 0.056570 0.960294 0.413608 0.0127 Uiso
C106_8 C 0.085670 0.996351 0.470026 0.0127 Uiso
O20_8 O 0.063144 0.930662 0.648190 0.0127 Uiso
C107_8 C 0.021375 0.880413 0.618101 0.0127 Uiso
O21_8 O 0.075417 0.777420 0.482886 0.0127 Uiso
C108_8 C 0.110770 0.811600 0.541206 0.0127 Uiso
O22_8 O 0.208103 0.946900 0.397352 0.0127 Uiso
C109_8 C 0.158673 0.915709 0.356757 0.0127 Uiso
O23_8 O 0.036640 0.951466 0.373860 0.0127 Uiso
C110_8 C 0.067375 0.990680 0.433425 0.0127 Uiso
C111_8 C 0.089656 0.764856 0.462133 0.0127 Uiso
C112_8 C 0.220554 0.979176 0.379451 0.0127 Uiso
C113_8 C 0.008414 0.944392 0.383338 0.0127 Uiso
O24_8 O 0.113480 0.761913 0.476655 0.0127 Uiso
C114_8 C 0.076564 0.753724 0.419454 0.0127 Uiso
O25_8 O 0.204761 0.983432 0.351867 0.0127 Uiso
H23_8 H 0.150709 0.986506 0.414843 . .
H42_8 H 0.0475336 0.995046 0.679963 . .
H43_8 H 0.0377091 0.960561 0.64713 . .
H44_8 H 0.0792558 0.986368 0.664708 . .
H69_8 H 0.0950005 0.936819 0.577064 . .
H70_8 H 0.0706775 0.827257 0.464433 . .
H71_8 H 0.0546453 0.913803 0.412718 . .
H72_8 H 0.0808061 0.881847 0.389414 . .
H76_8 H 0.129645 0.890519 0.560489 . .
H77_8 H 0.166722 0.935907 0.458979 . .
H79_8 H 0.106035 0.975966 0.512512 . .
H80_8 H 0.0216395 0.848144 0.522938 . .
H84_8 H 0.00599218 0.875124 0.645645 . .
H85_8 H 0.0793097 0.774876 0.401616 . .
H86_8 H 0.0904735 0.743415 0.404528 . .
H87_8 H 0.0503463 0.734749 0.42104 . .
H88_8 H 0.115044 0.792032 0.552908 . .
H92_8 H 0.111488 0.887466 0.327728 . .
H97_8 H 0.139815 0.8467 0.587748 . .
H98_8 H 0.173535 0.918797 0.32926 . .
H100_8 H 0.0670063 0.952723 0.638901 . .
O26_8 O 0.996830 0.946886 0.413497 0.0127 Uiso
C116_8 C 0.985952 0.929367 0.345083 0.0127 Uiso
H78_8 H 0.986506 0.835796 0.585157 . .
H94_8 H 0.986368 0.907112 0.335292 . .
H95_8 H 0.960561 0.922851 0.35287 . .
H96_8 H 0.995046 0.947513 0.320037 . .
O11_9 O 0.003170 0.053114 0.586503 0.0127 Uiso
C56_9 C 0.014048 0.070633 0.654917 0.0127 Uiso
Nb2_9 Nb 0.011454 0.200294 0.587775 0.0063 Uiso
C76_9 C 0.043437 0.196723 0.541964 0.0127 Uiso
C77_9 C 0.032891 0.253194 0.590973 0.0127 Uiso
C78_9 C 0.005483 0.202571 0.653948 0.0127 Uiso
C79_9 C 0.060492 0.220204 0.615465 0.0127 Uiso
C80_9 C 0.000962 0.216037 0.527923 0.0127 Uiso
C82_9 C 0.011515 0.156863 0.613393 0.0127 Uiso
N24_9 N 0.061457 0.195374 0.519247 0.0127 Uiso
N25_9 N 0.044185 0.281670 0.591181 0.0127 Uiso
N26_9 N 0.003804 0.203552 0.689831 0.0127 Uiso
N27_9 N 0.086706 0.232035 0.630629 0.0127 Uiso
N30_9 N 0.011567 0.133858 0.626503 0.0127 Uiso
Fe6_11 Fe 0.069993 0.333333 0.583333 0.0063 Uiso
Fe7_10 Fe -0.000000 0.201839 0.750000 0.0063 Uiso
N31_9 N 0.106563 0.167394 0.546012 0.0127 Uiso
N32_9 N 0.138204 0.237839 0.510815 0.0127 Uiso
N33_9 N 0.091340 0.213046 0.429125 0.0127 Uiso
N34_9 N 0.057424 0.138595 0.464475 0.0127 Uiso
C91_9 C 0.085766 0.156550 0.578850 0.0127 Uiso
C92_9 C 0.134454 0.165082 0.548785 0.0127 Uiso
C93_9 C 0.168330 0.254383 0.491799 0.0127 Uiso
C94_9 C 0.133430 0.251988 0.544745 0.0127 Uiso
C95_9 C 0.075068 0.229008 0.429987 0.0127 Uiso
C96_9 C 0.104281 0.212152 0.391285 0.0127 Uiso
C97_9 C 0.062755 0.126280 0.429152 0.0127 Uiso
C98_9 C 0.028464 0.120278 0.484071 0.0127 Uiso
C99_9 C 0.091249 0.143312 0.615150 0.0127 Uiso
C100_9 C 0.141491 0.152147 0.584041 0.0127 Uiso
C101_9 C 0.193477 0.284571 0.506002 0.0127 Uiso
C102_9 C 0.158163 0.282554 0.560328 0.0127 Uiso
C103_9 C 0.071348 0.243927 0.394446 0.0127 Uiso
C104_9 C 0.101319 0.226143 0.356345 0.0127 Uiso
C105_9 C 0.039706 0.096277 0.413608 0.0127 Uiso
C106_9 C 0.003649 0.089320 0.470026 0.0127 Uiso
O20_9 O 0.069338 0.132483 0.648190 0.0127 Uiso
C107_9 C 0.119587 0.140963 0.618101 0.0127 Uiso
O21_9 O 0.222580 0.297998 0.482886 0.0127 Uiso
C108_9 C 0.188400 0.299171 0.541206 0.0127 Uiso
O22_9 O 0.053100 0.261204 0.397352 0.0127 Uiso
C109_9 C 0.084291 0.242965 0.356757 0.0127 Uiso
O23_9 O 0.048534 0.085175 0.373860 0.0127 Uiso
C110_9 C 0.009320 0.076696 0.433425 0.0127 Uiso
C111_9 C 0.235144 0.324801 0.462133 0.0127 Uiso
C112_9 C 0.020824 0.241379 0.379451 0.0127 Uiso
C113_9 C 0.055608 0.064023 0.383338 0.0127 Uiso
O24_9 O 0.238087 0.351568 0.476655 0.0127 Uiso
C114_9 C 0.246276 0.322841 0.419454 0.0127 Uiso
O25_9 O 0.016568 0.221330 0.351867 0.0127 Uiso
O26_9 O 0.053114 0.049945 0.413497 0.0127 Uiso
C116_9 C 0.070633 0.056586 0.345083 0.0127 Uiso
H23_9 H 0.0134945 0.164204 0.414843 . .
H42_9 H 0.00495363 0.0524873 0.679963 . .
H43_9 H 0.0394394 0.0771485 0.64713 . .
H44_9 H 0.013632 0.0928878 0.664708 . .
H69_9 H 0.0631809 0.158181 0.577064 . .
H70_9 H 0.172743 0.243421 0.464433 . .
H71_9 H 0.0861969 0.140842 0.412718 . .
H72_9 H 0.118153 0.198959 0.389414 . .
H76_9 H 0.109481 0.239126 0.560489 . .
H77_9 H 0.0640929 0.230815 0.458979 . .
H78_9 H 0.164204 0.150709 0.585157 . .
H79_9 H 0.0240338 0.130069 0.512512 . .
H80_9 H 0.151856 0.173496 0.522938 . .
H84_9 H 0.124876 0.130868 0.645645 . .
H85_9 H 0.225124 0.304434 0.401616 . .
H86_9 H 0.256585 0.347059 0.404528 . .
H87_9 H 0.265251 0.315597 0.42104 . .
H88_9 H 0.207968 0.323011 0.552908 . .
H92_9 H 0.112534 0.224022 0.327728 . .
H94_9 H 0.0928878 0.0792558 0.335292 . .
H95_9 H 0.0771485 0.0377091 0.35287 . .
H96_9 H 0.0524873 0.0475336 0.320037 . .
H97_9 H 0.1533 0.293115 0.587748 . .
H98_9 H 0.0812031 0.254738 0.32926 . .
H100_9 H 0.0472766 0.114283 0.638901 . .
Nb1_9 Nb 0.811161 0.011454 0.412225 0.0063 Uiso
C1_9 C 0.846715 0.043437 0.458036 0.0127 Uiso
C2_9 C 0.779698 0.032891 0.409027 0.0127 Uiso
C3_9 C 0.802913 0.005483 0.346052 0.0127 Uiso
C5_9 C 0.840289 0.060492 0.384535 0.0127 Uiso
C6_9 C 0.784926 0.000962 0.472077 0.0127 Uiso
C8_9 C 0.854653 0.011515 0.386607 0.0127 Uiso
N1_9 N 0.866084 0.061457 0.480753 0.0127 Uiso
N2_9 N 0.762516 0.044185 0.408819 0.0127 Uiso
N3_9 N 0.800253 0.003804 0.310169 0.0127 Uiso
N5_9 N 0.854672 0.086706 0.369371 0.0127 Uiso
N8_9 N 0.877710 0.011567 0.373497 0.0127 Uiso
Fe1_9 Fe 0.908694 0.097392 0.512326 0.0063 Uiso
Fe2_11 Fe 0.736660 0.069993 0.416666 0.0063 Uiso
Fe3_10 Fe 0.798161 0.000000 0.250000 0.0063 Uiso
N9_9 N 0.939170 0.106563 0.453988 0.0127 Uiso
N10_9 N 0.900366 0.138204 0.489185 0.0127 Uiso
N11_9 N 0.878295 0.091340 0.570875 0.0127 Uiso
N12_9 N 0.918830 0.057424 0.535525 0.0127 Uiso
N13_9 N 0.769210 0.107824 0.368790 0.0127 Uiso
N14_9 N 0.700419 0.036796 0.368351 0.0127 Uiso
C9_9 C 0.929217 0.085766 0.421150 0.0127 Uiso
C10_9 C 0.969373 0.134454 0.451215 0.0127 Uiso
C11_9 C 0.913948 0.168330 0.508201 0.0127 Uiso
C12_9 C 0.881443 0.133430 0.455255 0.0127 Uiso
C13_9 C 0.846061 0.075068 0.570013 0.0127 Uiso
C14_9 C 0.892130 0.104281 0.608715 0.0127 Uiso
C15_9 C 0.936476 0.062755 0.570848 0.0127 Uiso
C16_9 C 0.908187 0.028464 0.515929 0.0127 Uiso
C17_9 C 0.797880 0.108917 0.358584 0.0127 Uiso
C18_9 C 0.762181 0.129183 0.349713 0.0127 Uiso
C19_9 C 0.686830 0.049196 0.342340 0.0127 Uiso
C20_9 C 0.691529 0.004380 0.364103 0.0127 Uiso
C25_9 C 0.947938 0.091249 0.384850 0.0127 Uiso
C26_9 C 0.989345 0.141491 0.415959 0.0127 Uiso
C27_9 C 0.908907 0.193477 0.493998 0.0127 Uiso
C28_9 C 0.875610 0.158163 0.439672 0.0127 Uiso
C29_9 C 0.827422 0.071348 0.605554 0.0127 Uiso
C30_9 C 0.875177 0.101319 0.643655 0.0127 Uiso
C31_9 C 0.943430 0.039706 0.586392 0.0127 Uiso
C32_9 C 0.914330 0.003649 0.529974 0.0127 Uiso
C33_9 C 0.820284 0.130719 0.329833 0.0127 Uiso
C34_9 C 0.784040 0.151830 0.320294 0.0127 Uiso
C35_9 C 0.664285 0.030392 0.311656 0.0127 Uiso
O1_9 O 0.936856 0.069338 0.351810 0.0127 Uiso
C41_9 C 0.978625 0.119587 0.381899 0.0127 Uiso
O2_9 O 0.924583 0.222580 0.517114 0.0127 Uiso
C42_9 C 0.889230 0.188400 0.458794 0.0127 Uiso
O3_9 O 0.791897 0.053100 0.602648 0.0127 Uiso
C43_9 C 0.841327 0.084291 0.643243 0.0127 Uiso
O4_9 O 0.963360 0.048534 0.626140 0.0127 Uiso
C44_9 C 0.932625 0.009320 0.566575 0.0127 Uiso
O5_9 O 0.848973 0.130974 0.320515 0.0127 Uiso
C45_9 C 0.812746 0.152851 0.310212 0.0127 Uiso
O6_9 O 0.650991 0.044189 0.285711 0.0127 Uiso
C49_9 C 0.910344 0.235144 0.537867 0.0127 Uiso
C50_9 C 0.779446 0.020824 0.620549 0.0127 Uiso
C51_9 C 0.991586 0.055608 0.616662 0.0127 Uiso
O9_9 O 0.886520 0.238087 0.523345 0.0127 Uiso
C54_9 C 0.923436 0.246276 0.580546 0.0127 Uiso
O10_9 O 0.795239 0.016568 0.648133 0.0127 Uiso
N17_9 N 0.951930 0.133487 0.542428 0.0127 Uiso
N18_9 N 0.774491 0.102543 0.464543 0.0127 Uiso
N19_9 N 0.703463 0.033752 0.464982 0.0127 Uiso
N20_9 N 0.710852 0.095849 0.424514 0.0127 Uiso
N21_9 N 0.846616 0.034855 0.244904 0.0127 Uiso
N22_9 N 0.785032 0.035378 0.246118 0.0127 Uiso
C59_9 C 0.972857 0.156247 0.559068 0.0127 Uiso
C60_9 C 0.775584 0.131213 0.474749 0.0127 Uiso
C61_9 C 0.795850 0.095514 0.483620 0.0127 Uiso
C62_9 C 0.715863 0.020163 0.490993 0.0127 Uiso
C63_9 C 0.671047 0.024862 0.469230 0.0127 Uiso
C64_9 C 0.860861 0.062707 0.268365 0.0127 Uiso
C65_9 C 0.866275 0.030696 0.216825 0.0127 Uiso
C66_9 C 0.797608 0.059345 0.216357 0.0127 Uiso
C67_9 C 0.762994 0.036125 0.273399 0.0127 Uiso
C68_9 C 0.797386 0.153617 0.503500 0.0127 Uiso
C69_9 C 0.818497 0.117373 0.513039 0.0127 Uiso
C71_9 C 0.650613 0.002654 0.498853 0.0127 Uiso
C72_9 C 0.893947 0.086009 0.264166 0.0127 Uiso
C73_9 C 0.899487 0.053457 0.211702 0.0127 Uiso
C74_9 C 0.788861 0.083458 0.213396 0.0127 Uiso
C75_9 C 0.753639 0.059585 0.271591 0.0127 Uiso
C81_9 C 0.966687 0.202826 0.599843 0.0127 Uiso
O14_9 O 0.797641 0.182306 0.512818 0.0127 Uiso
C83_9 C 0.819518 0.146079 0.523121 0.0127 Uiso
O16_9 O 0.907239 0.114437 0.289530 0.0127 Uiso
C85_9 C 0.913860 0.081741 0.235655 0.0127 Uiso
O17_9 O 0.803648 0.106938 0.181187 0.0127 Uiso
C86_9 C 0.766483 0.084140 0.241186 0.0127 Uiso
N28_9 N 0.996004 0.224784 0.496364 0.0127 Uiso
N29_9 N 0.943033 0.204223 0.607175 0.0127 Uiso
C87_9 C 0.910292 0.142973 0.272749 0.0127 Uiso
C88_9 C 0.783470 0.112148 0.155375 0.0127 Uiso
Fe7_11 Fe 1.000000 0.201839 0.750000 0.0063 Uiso
O18_9 O 0.903967 0.144532 0.236541 0.0127 Uiso
C89_9 C 0.921945 0.173632 0.300265 0.0127 Uiso
O19_9 O 0.760603 0.088958 0.138143 0.0127 Uiso
C90_9 C 0.791246 0.147450 0.149900 0.0127 Uiso
C115_9 C 0.991400 0.245148 0.394704 0.0127 Uiso
H1_9 H 0.905 0.0631809 0.422936 . .
H2_9 H 0.919194 0.118153 0.610586 . .
H3_9 H 0.833278 0.0640929 0.541021 . .
H4_9 H 0.97836 0.151856 0.477062 . .
H5_9 H 0.893965 0.0240338 0.487488 . .
H6_9 H 0.870355 0.109481 0.439511 . .
H7_9 H 0.945355 0.0861969 0.587282 . .
H8_9 H 0.929322 0.172743 0.535567 . .
H9_9 H 0.915729 0.0670023 0.341081 . .
H10_9 H 0.994008 0.124876 0.354355 . .
H11_9 H 0.739181 0.128989 0.357119 . .
H13_9 H 0.888512 0.112534 0.672272 . .
H14_9 H 0.777684 0.168942 0.30529 . .
H18_9 H 0.693819 0.0752711 0.345441 . .
H20_9 H 0.803795 0.0915922 0.373885 . .
H21_9 H 0.860185 0.1533 0.412252 . .
H27_9 H 0.884956 0.207968 0.447092 . .
H31_9 H 0.843641 0.108855 0.30953 . .
H32_9 H 0.949654 0.265251 0.57896 . .
H33_9 H 0.909527 0.256585 0.595472 . .
H34_9 H 0.92069 0.225124 0.598384 . .
H35_9 H 0.829566 0.170506 0.287348 . .
H40_9 H 0.669179 0.0629118 0.270148 . .
H41_9 H 0.826465 0.0812031 0.67074 . .
H51_9 H 0.758259 0.137128 0.459449 . .
H52_9 H 0.845823 0.0667287 0.290995 . .
H53_9 H 0.741938 0.0271521 0.487892 . .
H54_9 H 0.735959 0.0591671 0.294103 . .
H55_9 H 0.815252 0.0593665 0.194098 . .
H56_9 H 0.775522 0.176974 0.523803 . .
H57_9 H 0.940111 0.100252 0.23234 . .
H58_9 H 0.855145 0.00838203 0.19768 . .
H59_9 H 0.837173 0.162899 0.545985 . .
H60_9 H 0.914239 0.0491376 0.188942 . .
H61_9 H 0.729578 0.00251212 0.563185 . .
H63_9 H 0.752496 0.0172331 0.29753 . .
H64_9 H 0.75923 0.103097 0.239336 . .
H65_9 H 0.795656 0.0725141 0.476214 . .
H66_9 H 0.660646 0.0357292 0.448329 . .
H67_9 H 0.835609 0.111017 0.528044 . .
H73_9 H 0.816256 0.162309 0.137339 . .
H74_9 H 0.773347 0.148087 0.12865 . .
H75_9 H 0.789779 0.15757 0.179738 . .
H81_9 H 0.946599 0.181122 0.312442 . .
H82_9 H 0.922973 0.193915 0.282125 . .
H83_9 H 0.904566 0.167703 0.325833 . .
H89_9 H 0.996963 0.270641 0.389703 . .
H90_9 H 0.969024 0.228154 0.377596 . .
H91_9 H 0.987421 0.239312 0.427591 . .
H93_9 H 0.980424 0.0752772 0.487059 . .
H99_9 H 0.990788 0.0526341 0.421015 . .
C4_9 C 0.816611 0.972857 0.440932 0.0127 Uiso
C7_9 C 0.763862 0.966687 0.400157 0.0127 Uiso
N6_9 N 0.771221 0.996004 0.503636 0.0127 Uiso
N7_9 N 0.738811 0.943033 0.392825 0.0127 Uiso
Fe3_11 Fe 0.798161 1.000000 0.250000 0.0063 Uiso
N15_9 N 0.811762 0.965145 0.255096 0.0127 Uiso
N16_9 N 0.749655 0.964622 0.253882 0.0127 Uiso
C21_9 C 0.798155 0.937293 0.231635 0.0127 Uiso
C22_9 C 0.835580 0.969304 0.283175 0.0127 Uiso
C23_9 C 0.738264 0.940655 0.283643 0.0127 Uiso
C24_9 C 0.726870 0.963875 0.226601 0.0127 Uiso
C36_9 C 0.669321 0.983946 0.334480 0.0127 Uiso
C37_9 C 0.807939 0.913991 0.235834 0.0127 Uiso
C38_9 C 0.846031 0.946543 0.288298 0.0127 Uiso
C39_9 C 0.705404 0.916542 0.286604 0.0127 Uiso
C40_9 C 0.694055 0.940415 0.228409 0.0127 Uiso
C46_9 C 0.655332 0.997022 0.307642 0.0127 Uiso
O7_9 O 0.792803 0.885563 0.210470 0.0127 Uiso
C47_9 C 0.832120 0.918259 0.264345 0.0127 Uiso
O8_9 O 0.696711 0.893062 0.318813 0.0127 Uiso
C48_9 C 0.682344 0.915860 0.258814 0.0127 Uiso
C52_9 C 0.767320 0.857027 0.227251 0.0127 Uiso
C53_9 C 0.671323 0.887852 0.344625 0.0127 Uiso
C55_9 C 0.746253 0.991400 0.605296 0.0127 Uiso
O12_9 O 0.759436 0.855468 0.263459 0.0127 Uiso
C57_9 C 0.748314 0.826368 0.199735 0.0127 Uiso
O13_9 O 0.671646 0.911042 0.361857 0.0127 Uiso
C58_9 C 0.643797 0.852550 0.350100 0.0127 Uiso
N23_9 N 0.796448 0.996196 0.189831 0.0127 Uiso
C70_9 C 0.697059 0.997618 0.521677 0.0127 Uiso
O15_9 O 0.710856 0.984324 0.547622 0.0127 Uiso
C84_9 C 0.663689 0.988665 0.525691 0.0127 Uiso
H12_9 H 0.779095 0.933271 0.209005 . .
H15_9 H 0.865101 0.950862 0.311058 . .
H16_9 H 0.702396 0.993979 0.385005 . .
H17_9 H 0.846763 0.991618 0.30232 . .
H19_9 H 0.735263 0.982767 0.20247 . .
H22_9 H 0.676792 0.940833 0.205897 . .
H24_9 H 0.755885 0.940633 0.305902 . .
H25_9 H 0.662826 0.957965 0.332122 . .
H26_9 H 0.905147 0.980424 0.512941 . .
H28_9 H 0.637705 0.981473 0.283926 . .
H29_9 H 0.83986 0.899748 0.26766 . .
H30_9 H 0.656133 0.896903 0.260664 . .
H36_9 H 0.74811 0.987421 0.572409 . .
H37_9 H 0.74087 0.969024 0.622404 . .
H38_9 H 0.726322 0.996963 0.610297 . .
H39_9 H 0.938154 0.990788 0.578985 . .
H45_9 H 0.765477 0.818878 0.187558 . .
H46_9 H 0.729059 0.806085 0.217875 . .
H47_9 H 0.736863 0.832297 0.174167 . .
H48_9 H 0.653946 0.837691 0.362661 . .
H49_9 H 0.62526 0.851913 0.37135 . .
H50_9 H 0.632209 0.84243 0.320262 . .
H62_9 H 0.648139 0.971039 0.549408 . .
H68_9 H 0.624632 0.996159 0.501211 . .
Nb1_10 Nb 0.466373 0.321879 0.421108 0.0063 Uiso
C1_10 C 0.469944 0.289896 0.375297 0.0127 Uiso
C2_10 C 0.413473 0.300442 0.424306 0.0127 Uiso
C3_10 C 0.464096 0.327850 0.487281 0.0127 Uiso
C4_10 C 0.510420 0.360476 0.392401 0.0127 Uiso
C5_10 C 0.446463 0.272841 0.448798 0.0127 Uiso
C6_10 C 0.450630 0.332371 0.361256 0.0127 Uiso
C7_10 C 0.463841 0.366646 0.433176 0.0127 Uiso
C8_10 C 0.509804 0.321818 0.446726 0.0127 Uiso
N1_10 N 0.471293 0.271876 0.352580 0.0127 Uiso
N4_7 N 0.533180 0.381403 0.375761 0.0127 Uiso
N5_10 N 0.434632 0.246627 0.463962 0.0127 Uiso
N6_10 N 0.441883 0.337329 0.329697 0.0127 Uiso
N7_10 N 0.462444 0.390300 0.440508 0.0127 Uiso
N8_10 N 0.532809 0.321766 0.459836 0.0127 Uiso
Fe1_10 Fe 0.477968 0.235941 0.321007 0.0063 Uiso
N9_10 N 0.499273 0.226770 0.379345 0.0127 Uiso
N10_10 N 0.428828 0.195129 0.344148 0.0127 Uiso
N11_10 N 0.453621 0.241993 0.262458 0.0127 Uiso
N12_10 N 0.528072 0.275909 0.297808 0.0127 Uiso
C9_10 C 0.510117 0.247567 0.412183 0.0127 Uiso
C10_10 C 0.501585 0.198879 0.382118 0.0127 Uiso
C11_10 C 0.412284 0.165003 0.325132 0.0127 Uiso
C12_10 C 0.414679 0.199903 0.378078 0.0127 Uiso
C13_10 C 0.437659 0.258265 0.263320 0.0127 Uiso
C14_10 C 0.454515 0.229052 0.224618 0.0127 Uiso
C15_10 C 0.540387 0.270578 0.262485 0.0127 Uiso
C16_10 C 0.546389 0.304869 0.317404 0.0127 Uiso
C25_10 C 0.523355 0.242084 0.448483 0.0127 Uiso
C26_10 C 0.514520 0.191842 0.417374 0.0127 Uiso
C27_10 C 0.382096 0.139856 0.339335 0.0127 Uiso
C28_10 C 0.384113 0.175170 0.393661 0.0127 Uiso
C29_10 C 0.422740 0.261985 0.227779 0.0127 Uiso
C30_10 C 0.440524 0.232014 0.189678 0.0127 Uiso
C31_10 C 0.570390 0.293627 0.246941 0.0127 Uiso
C32_10 C 0.577347 0.329684 0.303359 0.0127 Uiso
O1_10 O 0.534184 0.263995 0.481523 0.0127 Uiso
C41_10 C 0.525704 0.213746 0.451434 0.0127 Uiso
O2_10 O 0.368669 0.110753 0.316219 0.0127 Uiso
C42_10 C 0.367496 0.144933 0.374539 0.0127 Uiso
O3_10 O 0.405463 0.280233 0.230685 0.0127 Uiso
C43_10 C 0.423702 0.249042 0.190090 0.0127 Uiso
O4_10 O 0.581492 0.284799 0.207193 0.0127 Uiso
C44_10 C 0.589971 0.324013 0.266758 0.0127 Uiso
C49_10 C 0.341866 0.098189 0.295466 0.0127 Uiso
C50_10 C 0.425288 0.312509 0.212784 0.0127 Uiso
C51_10 C 0.602644 0.277725 0.216671 0.0127 Uiso
O9_10 O 0.315099 0.095246 0.309988 0.0127 Uiso
C54_10 C 0.343826 0.087057 0.252787 0.0127 Uiso
O10_10 O 0.445337 0.316765 0.185200 0.0127 Uiso
C55_10 C 0.421519 0.341933 0.228037 0.0127 Uiso
O11_10 O 0.616722 0.280219 0.246830 0.0127 Uiso
C56_10 C 0.610081 0.262700 0.178416 0.0127 Uiso
Fe4_7 Fe 0.569274 0.424640 0.345660 0.0063 Uiso
N17_10 N 0.485110 0.199847 0.290906 0.0127 Uiso
C59_10 C 0.483277 0.177087 0.274266 0.0127 Uiso
Nb2_10 Nb 0.477827 0.133040 0.245559 0.0063 Uiso
C76_10 C 0.513381 0.136611 0.291370 0.0127 Uiso
C77_10 C 0.446364 0.080140 0.242361 0.0127 Uiso
C78_10 C 0.469579 0.130763 0.179386 0.0127 Uiso
C79_10 C 0.506955 0.113130 0.217869 0.0127 Uiso
C80_10 C 0.451592 0.117297 0.305411 0.0127 Uiso
C81_10 C 0.430528 0.130508 0.233491 0.0127 Uiso
C82_10 C 0.521319 0.176471 0.219941 0.0127 Uiso
N24_10 N 0.532750 0.137960 0.314087 0.0127 Uiso
N25_10 N 0.429182 0.051664 0.242153 0.0127 Uiso
N26_10 N 0.466919 0.129782 0.143503 0.0127 Uiso
N27_10 N 0.521338 0.101299 0.202705 0.0127 Uiso
N28_10 N 0.437887 0.108550 0.336970 0.0127 Uiso
N29_10 N 0.405477 0.129111 0.226159 0.0127 Uiso
N30_10 N 0.544376 0.199476 0.206831 0.0127 Uiso
Fe5_4 Fe 0.575360 0.144635 0.345660 0.0063 Uiso
N31_10 N 0.605836 0.165940 0.287322 0.0127 Uiso
N32_10 N 0.567032 0.095495 0.322519 0.0127 Uiso
N33_10 N 0.544961 0.120288 0.404209 0.0127 Uiso
N34_10 N 0.585496 0.194739 0.368859 0.0127 Uiso
N35_4 N 0.618597 0.151777 0.375761 0.0127 Uiso
C91_10 C 0.595883 0.176784 0.254484 0.0127 Uiso
C92_10 C 0.636039 0.168252 0.284549 0.0127 Uiso
C93_10 C 0.580614 0.078951 0.341535 0.0127 Uiso
C94_10 C 0.548109 0.081346 0.288589 0.0127 Uiso
C95_10 C 0.512727 0.104326 0.403347 0.0127 Uiso
C96_10 C 0.558796 0.121182 0.442049 0.0127 Uiso
C97_10 C 0.603142 0.207054 0.404182 0.0127 Uiso
C98_10 C 0.574853 0.213056 0.349263 0.0127 Uiso
C99_10 C 0.614604 0.190022 0.218184 0.0127 Uiso
C100_10 C 0.656011 0.181187 0.249293 0.0127 Uiso
C101_10 C 0.575573 0.048763 0.327332 0.0127 Uiso
C102_10 C 0.542276 0.050780 0.273006 0.0127 Uiso
C103_10 C 0.494088 0.089407 0.438888 0.0127 Uiso
C104_10 C 0.541843 0.107191 0.476989 0.0127 Uiso
C105_10 C 0.610096 0.237057 0.419726 0.0127 Uiso
C106_10 C 0.580996 0.244014 0.363308 0.0127 Uiso
O20_10 O 0.603522 0.200851 0.185144 0.0127 Uiso
C107_10 C 0.645291 0.192371 0.215233 0.0127 Uiso
O21_10 O 0.591249 0.035336 0.350448 0.0127 Uiso
C108_10 C 0.555896 0.034163 0.292128 0.0127 Uiso
O22_10 O 0.458563 0.072130 0.435982 0.0127 Uiso
C109_10 C 0.507993 0.090369 0.476577 0.0127 Uiso
O23_10 O 0.630026 0.248159 0.459474 0.0127 Uiso
C110_10 C 0.599291 0.256638 0.399909 0.0127 Uiso
C111_10 C 0.577010 0.008533 0.371201 0.0127 Uiso
C112_10 C 0.446112 0.091955 0.453883 0.0127 Uiso
C113_10 C 0.658252 0.269311 0.449996 0.0127 Uiso
C114_10 C 0.590102 0.010493 0.413880 0.0127 Uiso
O25_10 O 0.461905 0.112004 0.481467 0.0127 Uiso
C115_10 C 0.412919 0.088186 0.438630 0.0127 Uiso
O26_10 O 0.669836 0.283389 0.419837 0.0127 Uiso
C116_10 C 0.680714 0.276748 0.488251 0.0127 Uiso
H1_10 H 0.508485 0.270152 0.410397 . .
H2_10 H 0.467707 0.21518 0.222748 . .
H3_10 H 0.435852 0.26924 0.292312 . .
H4_10 H 0.493171 0.181477 0.356272 . .
H5_10 H 0.536598 0.3093 0.345846 . .
H6_10 H 0.427541 0.223852 0.393823 . .
H7_10 H 0.525824 0.247136 0.246052 . .
H8_10 H 0.423246 0.16059 0.297766 . .
H9_10 H 0.515393 0.266331 0.492252 . .
H10_10 H 0.535798 0.208457 0.478978 . .
H13_10 H 0.442645 0.2208 0.161061 . .
H21_10 H 0.373552 0.180033 0.421081 . .
H23_10 H 0.515958 0.16913 0.41849 . .
H26_10 H 0.591389 0.35291 0.320392 . .
H27_10 H 0.343656 0.125366 0.386242 . .
H32_10 H 0.351069 0.0680824 0.254373 . .
H33_10 H 0.319608 0.0767478 0.237861 . .
H34_10 H 0.362233 0.108209 0.23495 . .
H36_10 H 0.427355 0.345912 0.260924 . .
H37_10 H 0.438513 0.36431 0.21093 . .
H38_10 H 0.396026 0.33637 0.223036 . .
H39_10 H 0.614033 0.342545 0.254349 . .
H41_10 H 0.411928 0.25213 0.162593 . .
H42_10 H 0.619133 0.280846 0.15337 . .
H43_10 H 0.628958 0.256185 0.186204 . .
H44_10 H 0.587411 0.240446 0.168626 . .
H69_10 H 0.571666 0.175152 0.25627 . .
H70_10 H 0.595989 0.0899125 0.3689 . .
H71_10 H 0.612021 0.192491 0.420615 . .
H72_10 H 0.585861 0.134374 0.443919 . .
H76_10 H 0.537022 0.0942072 0.272844 . .
H77_10 H 0.499945 0.102519 0.374355 . .
H78_10 H 0.680161 0.182624 0.248177 . .
H79_10 H 0.560631 0.203264 0.320821 . .
H80_10 H 0.645027 0.159837 0.310395 . .
H84_10 H 0.660674 0.202465 0.187689 . .
H85_10 H 0.587357 0.0288993 0.431717 . .
H87_10 H 0.61632 0.0177361 0.412293 . .
H88_10 H 0.551623 0.0103222 0.280425 . .
H89_10 H 0.392989 0.0626924 0.443631 . .
H90_10 H 0.407536 0.105179 0.455737 . .
H91_10 H 0.414776 0.0940217 0.405742 . .
H92_10 H 0.555178 0.109311 0.505605 . .
H93_10 H 0.571813 0.258056 0.346275 . .
H94_10 H 0.680299 0.254078 0.498041 . .
H95_10 H 0.706106 0.295624 0.480463 . .
H96_10 H 0.67162 0.2858 0.513297 . .
H97_10 H 0.526852 0.0402184 0.245585 . .
H98_10 H 0.493131 0.0785951 0.504074 . .
H99_10 H 0.604821 0.280699 0.412318 . .
H100_10 H 0.59966 0.21905 0.194432 . .
O24_10 O 0.553186 0.981766 0.356679 0.0127 Uiso
H86_10 H 0.576193 0.986274 0.428805 . .
O24_11 O 0.018234 0.571421 0.356679 0.0127 Uiso
H86_11 H 0.0137257 0.589919 0.428805 . .
Nb1_11 Nb 0.678121 0.144494 0.421108 0.0063 Uiso
C1_11 C 0.710104 0.180048 0.375297 0.0127 Uiso
C2_11 C 0.699558 0.113031 0.424306 0.0127 Uiso
C3_11 C 0.672150 0.136246 0.487281 0.0127 Uiso
C4_11 C 0.639524 0.149944 0.392401 0.0127 Uiso
C5_11 C 0.727159 0.173622 0.448798 0.0127 Uiso
C6_11 C 0.667629 0.118259 0.361256 0.0127 Uiso
C7_11 C 0.633354 0.097195 0.433176 0.0127 Uiso
C8_11 C 0.678182 0.187986 0.446726 0.0127 Uiso
N1_11 N 0.728124 0.199417 0.352580 0.0127 Uiso
N5_11 N 0.753373 0.188005 0.463962 0.0127 Uiso
N6_11 N 0.662671 0.104554 0.329697 0.0127 Uiso
N7_11 N 0.609700 0.072144 0.440508 0.0127 Uiso
N8_11 N 0.678234 0.211043 0.459836 0.0127 Uiso
Fe1_11 Fe 0.764059 0.242027 0.321007 0.0063 Uiso
N9_11 N 0.773230 0.272503 0.379345 0.0127 Uiso
N10_11 N 0.804871 0.233699 0.344148 0.0127 Uiso
N11_11 N 0.758007 0.211628 0.262458 0.0127 Uiso
N12_11 N 0.724091 0.252163 0.297808 0.0127 Uiso
C9_11 C 0.752433 0.262550 0.412183 0.0127 Uiso
C10_11 C 0.801121 0.302706 0.382118 0.0127 Uiso
C11_11 C 0.834997 0.247281 0.325132 0.0127 Uiso
C12_11 C 0.800097 0.214776 0.378078 0.0127 Uiso
C13_11 C 0.741735 0.179394 0.263320 0.0127 Uiso
C14_11 C 0.770948 0.225463 0.224618 0.0127 Uiso
C15_11 C 0.729422 0.269809 0.262485 0.0127 Uiso
C16_11 C 0.695131 0.241520 0.317404 0.0127 Uiso
C25_11 C 0.757916 0.281271 0.448483 0.0127 Uiso
C26_11 C 0.808158 0.322678 0.417374 0.0127 Uiso
C27_11 C 0.860144 0.242240 0.339335 0.0127 Uiso
C28_11 C 0.824830 0.208943 0.393661 0.0127 Uiso
C29_11 C 0.738015 0.160755 0.227779 0.0127 Uiso
C30_11 C 0.767986 0.208510 0.189678 0.0127 Uiso
C31_11 C 0.706373 0.276763 0.246941 0.0127 Uiso
C32_11 C 0.670316 0.247663 0.303359 0.0127 Uiso
O1_11 O 0.736005 0.270189 0.481523 0.0127 Uiso
C41_11 C 0.786254 0.311958 0.451434 0.0127 Uiso
O2_11 O 0.889247 0.257916 0.316219 0.0127 Uiso
C42_11 C 0.855067 0.222563 0.374539 0.0127 Uiso
O3_11 O 0.719767 0.125230 0.230685 0.0127 Uiso
C43_11 C 0.750958 0.174660 0.190090 0.0127 Uiso
O4_11 O 0.715201 0.296693 0.207193 0.0127 Uiso
C44_11 C 0.675987 0.265958 0.266758 0.0127 Uiso
C49_11 C 0.901811 0.243677 0.295466 0.0127 Uiso
C50_11 C 0.687491 0.112779 0.212784 0.0127 Uiso
C51_11 C 0.722275 0.324919 0.216671 0.0127 Uiso
O9_11 O 0.904754 0.219853 0.309988 0.0127 Uiso
C54_11 C 0.912943 0.256769 0.252787 0.0127 Uiso
O10_11 O 0.683235 0.128572 0.185200 0.0127 Uiso
C55_11 C 0.658067 0.079586 0.228037 0.0127 Uiso
O11_11 O 0.719781 0.336503 0.246830 0.0127 Uiso
C56_11 C 0.737300 0.347381 0.178416 0.0127 Uiso
N17_11 N 0.800153 0.285264 0.290906 0.0127 Uiso
C59_11 C 0.822913 0.306191 0.274266 0.0127 Uiso
Nb2_11 Nb 0.866960 0.344788 0.245559 0.0063 Uiso
C76_11 C 0.863389 0.376771 0.291370 0.0127 Uiso
C77_11 C 0.919860 0.366225 0.242361 0.0127 Uiso
C78_11 C 0.869237 0.338817 0.179386 0.0127 Uiso
C79_11 C 0.886870 0.393826 0.217869 0.0127 Uiso
C80_11 C 0.882703 0.334296 0.305411 0.0127 Uiso
C81_11 C 0.869492 0.300021 0.233491 0.0127 Uiso
C82_11 C 0.823529 0.344849 0.219941 0.0127 Uiso
N24_11 N 0.862040 0.394791 0.314087 0.0127 Uiso
N25_11 N 0.948336 0.377519 0.242153 0.0127 Uiso
N26_11 N 0.870218 0.337138 0.143503 0.0127 Uiso
N27_11 N 0.898701 0.420040 0.202705 0.0127 Uiso
N28_11 N 0.891450 0.329338 0.336970 0.0127 Uiso
N29_11 N 0.870889 0.276367 0.226159 0.0127 Uiso
N30_11 N 0.800524 0.344901 0.206831 0.0127 Uiso
Fe5_5 Fe 0.855365 0.430726 0.345660 0.0063 Uiso
N31_11 N 0.834060 0.439897 0.287322 0.0127 Uiso
N32_11 N 0.904505 0.471538 0.322519 0.0127 Uiso
N33_11 N 0.879712 0.424674 0.404209 0.0127 Uiso
N34_11 N 0.805261 0.390758 0.368859 0.0127 Uiso
N35_5 N 0.848223 0.466820 0.375761 0.0127 Uiso
C91_11 C 0.823216 0.419100 0.254484 0.0127 Uiso
C92_11 C 0.831748 0.467788 0.284549 0.0127 Uiso
C93_11 C 0.921049 0.501664 0.341535 0.0127 Uiso
C94_11 C 0.918654 0.466764 0.288589 0.0127 Uiso
C95_11 C 0.895674 0.408402 0.403347 0.0127 Uiso
C96_11 C 0.878818 0.437615 0.442049 0.0127 Uiso
C97_11 C 0.792946 0.396089 0.404182 0.0127 Uiso
C98_11 C 0.786944 0.361798 0.349263 0.0127 Uiso
C99_11 C 0.809978 0.424583 0.218184 0.0127 Uiso
C100_11 C 0.818813 0.474825 0.249293 0.0127 Uiso
C101_11 C 0.951237 0.526811 0.327332 0.0127 Uiso
C102_11 C 0.949220 0.491497 0.273006 0.0127 Uiso
C103_11 C 0.910593 0.404682 0.438888 0.0127 Uiso
C104_11 C 0.892809 0.434653 0.476989 0.0127 Uiso
C105_11 C 0.762943 0.373040 0.419726 0.0127 Uiso
C106_11 C 0.755986 0.336983 0.363308 0.0127 Uiso
O20_11 O 0.799149 0.402672 0.185144 0.0127 Uiso
C107_11 C 0.807629 0.452921 0.215233 0.0127 Uiso
O21_11 O 0.964664 0.555914 0.350448 0.0127 Uiso
C108_11 C 0.965837 0.521734 0.292128 0.0127 Uiso
O22_11 O 0.927870 0.386434 0.435982 0.0127 Uiso
C109_11 C 0.909631 0.417625 0.476577 0.0127 Uiso
O23_11 O 0.751841 0.381868 0.459474 0.0127 Uiso
C110_11 C 0.743362 0.342654 0.399909 0.0127 Uiso
C111_11 C 0.991467 0.568478 0.371201 0.0127 Uiso
C112_11 C 0.908045 0.354158 0.453883 0.0127 Uiso
C113_11 C 0.730689 0.388942 0.449996 0.0127 Uiso
C114_11 C 0.989507 0.579610 0.413880 0.0127 Uiso
O25_11 O 0.887996 0.349902 0.481467 0.0127 Uiso
C115_11 C 0.911814 0.324734 0.438630 0.0127 Uiso
O26_11 O 0.716611 0.386448 0.419837 0.0127 Uiso
C116_11 C 0.723252 0.403967 0.488251 0.0127 Uiso
H1_11 H 0.729848 0.238333 0.410397 . .
H2_11 H 0.78482 0.252527 0.222748 . .
H3_11 H 0.73076 0.166611 0.292312 . .
H4_11 H 0.818523 0.311694 0.356272 . .
H5_11 H 0.6907 0.227298 0.345846 . .
H6_11 H 0.776148 0.203688 0.393823 . .
H7_11 H 0.752864 0.278688 0.246052 . .
H8_11 H 0.83941 0.262656 0.297766 . .
H9_11 H 0.733669 0.249062 0.492252 . .
H10_11 H 0.791543 0.327341 0.478978 . .
H13_11 H 0.7792 0.221845 0.161061 . .
H21_11 H 0.819967 0.193518 0.421081 . .
H23_11 H 0.83087 0.346828 0.41849 . .
H26_11 H 0.64709 0.23848 0.320392 . .
H27_11 H 0.874634 0.21829 0.386242 . .
H32_11 H 0.931918 0.282987 0.254373 . .
H33_11 H 0.923252 0.24286 0.237861 . .
H34_11 H 0.891791 0.254024 0.23495 . .
H36_11 H 0.654088 0.0814429 0.260924 . .
H37_11 H 0.63569 0.074203 0.21093 . .
H38_11 H 0.66363 0.0596556 0.223036 . .
H39_11 H 0.657455 0.271487 0.254349 . .
H41_11 H 0.74787 0.159798 0.162593 . .
H42_11 H 0.719154 0.338287 0.15337 . .
H43_11 H 0.743815 0.372773 0.186204 . .
H44_11 H 0.759554 0.346965 0.168626 . .
H69_11 H 0.824848 0.396514 0.25627 . .
H70_11 H 0.910088 0.506077 0.3689 . .
H71_11 H 0.807509 0.41953 0.420615 . .
H72_11 H 0.865626 0.451487 0.443919 . .
H76_11 H 0.905793 0.442815 0.272844 . .
H77_11 H 0.897481 0.397426 0.374355 . .
H78_11 H 0.817376 0.497537 0.248177 . .
H79_11 H 0.796736 0.357367 0.320821 . .
H80_11 H 0.840163 0.48519 0.310395 . .
H84_11 H 0.797535 0.45821 0.187689 . .
H85_11 H 0.971101 0.558458 0.431717 . .
H87_11 H 0.982264 0.598584 0.412293 . .
H88_11 H 0.989678 0.541301 0.280425 . .
H89_11 H 0.937308 0.330297 0.443631 . .
H90_11 H 0.894821 0.302357 0.455737 . .
H91_11 H 0.905978 0.320755 0.405742 . .
H92_11 H 0.890689 0.445867 0.505605 . .
H93_11 H 0.741944 0.313757 0.346275 . .
H94_11 H 0.745922 0.426221 0.498041 . .
H95_11 H 0.704376 0.410482 0.480463 . .
H96_11 H 0.7142 0.385821 0.513297 . .
H97_11 H 0.959782 0.486633 0.245585 . .
H98_11 H 0.921405 0.414536 0.504074 . .
H99_11 H 0.719301 0.324121 0.412318 . .
H100_11 H 0.78095 0.38061 0.194432 . .
Nb1_12 Nb 0.855506 0.533627 0.421108 0.0063 Uiso
C1_12 C 0.819952 0.530056 0.375297 0.0127 Uiso
C2_12 C 0.886969 0.586527 0.424306 0.0127 Uiso
C3_12 C 0.863754 0.535904 0.487281 0.0127 Uiso
C4_12 C 0.850056 0.489580 0.392401 0.0127 Uiso
C5_12 C 0.826378 0.553537 0.448798 0.0127 Uiso
C6_12 C 0.881741 0.549370 0.361256 0.0127 Uiso
C7_12 C 0.902805 0.536159 0.433176 0.0127 Uiso
C8_12 C 0.812014 0.490196 0.446726 0.0127 Uiso
N1_12 N 0.800583 0.528707 0.352580 0.0127 Uiso
N5_12 N 0.811995 0.565368 0.463962 0.0127 Uiso
N6_12 N 0.895446 0.558117 0.329697 0.0127 Uiso
N7_12 N 0.927856 0.537556 0.440508 0.0127 Uiso
N8_12 N 0.788957 0.467191 0.459836 0.0127 Uiso
Fe1_12 Fe 0.757973 0.522032 0.321007 0.0063 Uiso
N9_12 N 0.727497 0.500727 0.379345 0.0127 Uiso
N10_12 N 0.766301 0.571172 0.344148 0.0127 Uiso
N11_12 N 0.788372 0.546379 0.262458 0.0127 Uiso
N12_12 N 0.747837 0.471928 0.297808 0.0127 Uiso
C9_12 C 0.737450 0.489883 0.412183 0.0127 Uiso
C10_12 C 0.697294 0.498415 0.382118 0.0127 Uiso
C11_12 C 0.752719 0.587716 0.325132 0.0127 Uiso
C12_12 C 0.785224 0.585321 0.378078 0.0127 Uiso
C13_12 C 0.820606 0.562341 0.263320 0.0127 Uiso
C14_12 C 0.774537 0.545485 0.224618 0.0127 Uiso
C15_12 C 0.730191 0.459613 0.262485 0.0127 Uiso
C16_12 C 0.758480 0.453611 0.317404 0.0127 Uiso
C25_12 C 0.718729 0.476645 0.448483 0.0127 Uiso
C26_12 C 0.677322 0.485480 0.417374 0.0127 Uiso
C27_12 C 0.757760 0.617904 0.339335 0.0127 Uiso
C28_12 C 0.791057 0.615887 0.393661 0.0127 Uiso
C29_12 C 0.839245 0.577260 0.227779 0.0127 Uiso
C30_12 C 0.791490 0.559476 0.189678 0.0127 Uiso
C31_12 C 0.723237 0.429610 0.246941 0.0127 Uiso
C32_12 C 0.752337 0.422653 0.303359 0.0127 Uiso
O1_12 O 0.729811 0.465816 0.481523 0.0127 Uiso
C41_12 C 0.688042 0.474296 0.451434 0.0127 Uiso
O2_12 O 0.742084 0.631331 0.316219 0.0127 Uiso
C42_12 C 0.777437 0.632504 0.374539 0.0127 Uiso
O3_12 O 0.874770 0.594537 0.230685 0.0127 Uiso
C43_12 C 0.825340 0.576298 0.190090 0.0127 Uiso
O4_12 O 0.703307 0.418508 0.207193 0.0127 Uiso
C44_12 C 0.734042 0.410029 0.266758 0.0127 Uiso
C49_12 C 0.756323 0.658134 0.295466 0.0127 Uiso
C50_12 C 0.887221 0.574712 0.212784 0.0127 Uiso
C51_12 C 0.675081 0.397356 0.216671 0.0127 Uiso
O9_12 O 0.780147 0.684901 0.309988 0.0127 Uiso
C54_12 C 0.743231 0.656174 0.252787 0.0127 Uiso
O10_12 O 0.871428 0.554663 0.185200 0.0127 Uiso
C55_12 C 0.920414 0.578481 0.228037 0.0127 Uiso
O11_12 O 0.663497 0.383278 0.246830 0.0127 Uiso
C56_12 C 0.652619 0.389919 0.178416 0.0127 Uiso
N17_12 N 0.714736 0.514890 0.290906 0.0127 Uiso
C59_12 C 0.693809 0.516723 0.274266 0.0127 Uiso
Nb2_12 Nb 0.655212 0.522173 0.245559 0.0063 Uiso
C76_12 C 0.623229 0.486619 0.291370 0.0127 Uiso
C77_12 C 0.633775 0.553636 0.242361 0.0127 Uiso
C78_12 C 0.661183 0.530421 0.179386 0.0127 Uiso
C79_12 C 0.606174 0.493045 0.217869 0.0127 Uiso
C80_12 C 0.665704 0.548408 0.305411 0.0127 Uiso
C81_12 C 0.699979 0.569472 0.233491 0.0127 Uiso
C82_12 C 0.655151 0.478681 0.219941 0.0127 Uiso
N24_12 N 0.605209 0.467250 0.314087 0.0127 Uiso
N25_12 N 0.622481 0.570818 0.242153 0.0127 Uiso
N26_12 N 0.662862 0.533081 0.143503 0.0127 Uiso
N27_12 N 0.579960 0.478662 0.202705 0.0127 Uiso
N28_12 N 0.670662 0.562113 0.336970 0.0127 Uiso
N29_12 N 0.723633 0.594523 0.226159 0.0127 Uiso
N30_12 N 0.655099 0.455624 0.206831 0.0127 Uiso
N31_12 N 0.560103 0.394164 0.287322 0.0127 Uiso
N32_12 N 0.528462 0.432968 0.322519 0.0127 Uiso
N33_12 N 0.575326 0.455039 0.404209 0.0127 Uiso
N34_12 N 0.609242 0.414504 0.368859 0.0127 Uiso
C91_12 C 0.580900 0.404117 0.254484 0.0127 Uiso
C92_12 C 0.532212 0.363961 0.284549 0.0127 Uiso
C93_12 C 0.498336 0.419386 0.341535 0.0127 Uiso
C94_12 C 0.533236 0.451891 0.288589 0.0127 Uiso
C95_12 C 0.591598 0.487273 0.403347 0.0127 Uiso
C96_12 C 0.562385 0.441204 0.442049 0.0127 Uiso
C97_12 C 0.603911 0.396858 0.404182 0.0127 Uiso
C98_12 C 0.638202 0.425147 0.349263 0.0127 Uiso
C99_12 C 0.575417 0.385396 0.218184 0.0127 Uiso
C100_12 C 0.525175 0.343989 0.249293 0.0127 Uiso
C101_12 C 0.473189 0.424427 0.327332 0.0127 Uiso
C102_12 C 0.508503 0.457724 0.273006 0.0127 Uiso
C103_12 C 0.595318 0.505912 0.438888 0.0127 Uiso
C104_12 C 0.565347 0.458157 0.476989 0.0127 Uiso
C105_12 C 0.626960 0.389904 0.419726 0.0127 Uiso
C106_12 C 0.663017 0.419004 0.363308 0.0127 Uiso
O20_12 O 0.597328 0.396478 0.185144 0.0127 Uiso
C107_12 C 0.547079 0.354709 0.215233 0.0127 Uiso
O21_12 O 0.444086 0.408751 0.350448 0.0127 Uiso
C108_12 C 0.478266 0.444104 0.292128 0.0127 Uiso
O22_12 O 0.613566 0.541437 0.435982 0.0127 Uiso
C109_12 C 0.582375 0.492007 0.476577 0.0127 Uiso
O23_12 O 0.618132 0.369974 0.459474 0.0127 Uiso
C110_12 C 0.657346 0.400709 0.399909 0.0127 Uiso
C111_12 C 0.431522 0.422990 0.371201 0.0127 Uiso
C112_12 C 0.645842 0.553888 0.453883 0.0127 Uiso
C113_12 C 0.611058 0.341748 0.449996 0.0127 Uiso
O24_12 O 0.428579 0.446814 0.356679 0.0127 Uiso
C114_12 C 0.420390 0.409898 0.413880 0.0127 Uiso
O25_12 O 0.650098 0.538095 0.481467 0.0127 Uiso
C115_12 C 0.675266 0.587081 0.438630 0.0127 Uiso
O26_12 O 0.613552 0.330164 0.419837 0.0127 Uiso
C116_12 C 0.596033 0.319286 0.488251 0.0127 Uiso
H1_12 H 0.761667 0.491515 0.410397 . .
H2_12 H 0.747473 0.532293 0.222748 . .
H3_12 H 0.833389 0.564148 0.292312 . .
H4_12 H 0.688306 0.506829 0.356272 . .
H5_12 H 0.772702 0.463402 0.345846 . .
H6_12 H 0.796312 0.572459 0.393823 . .
H7_12 H 0.721312 0.474176 0.246052 . .
H8_12 H 0.737344 0.576754 0.297766 . .
H9_12 H 0.750938 0.484607 0.492252 . .
H10_12 H 0.672659 0.464202 0.478978 . .
H13_12 H 0.778155 0.557355 0.161061 . .
H21_12 H 0.806482 0.626448 0.421081 . .
H23_12 H 0.653172 0.484042 0.41849 . .
H26_12 H 0.76152 0.408611 0.320392 . .
H27_12 H 0.78171 0.656344 0.386242 . .
H32_12 H 0.717013 0.648931 0.254373 . .
H33_12 H 0.75714 0.680392 0.237861 . .
H34_12 H 0.745976 0.637767 0.23495 . .
H36_12 H 0.918557 0.572645 0.260924 . .
H37_12 H 0.925797 0.561487 0.21093 . .
H38_12 H 0.940344 0.603974 0.223036 . .
H39_12 H 0.728513 0.385967 0.254349 . .
H41_12 H 0.840202 0.588072 0.162593 . .
H42_12 H 0.661713 0.380867 0.15337 . .
H43_12 H 0.627227 0.371042 0.186204 . .
H44_12 H 0.653035 0.412589 0.168626 . .
H69_12 H 0.603486 0.428334 0.25627 . .
H70_12 H 0.493923 0.404011 0.3689 . .
H71_12 H 0.58047 0.387979 0.420615 . .
H72_12 H 0.548513 0.414139 0.443919 . .
H76_12 H 0.557185 0.462978 0.272844 . .
H77_12 H 0.602574 0.500055 0.374355 . .
H78_12 H 0.502463 0.319839 0.248177 . .
H79_12 H 0.642633 0.439369 0.320821 . .
H80_12 H 0.51481 0.354973 0.310395 . .
H84_12 H 0.54179 0.339326 0.187689 . .
H85_12 H 0.441542 0.412643 0.431717 . .
H86_12 H 0.410081 0.423807 0.428805 . .
H87_12 H 0.401416 0.38368 0.412293 . .
H88_12 H 0.458699 0.448377 0.280425 . .
H89_12 H 0.669703 0.607011 0.443631 . .
H90_12 H 0.697643 0.592464 0.455737 . .
H91_12 H 0.679245 0.585224 0.405742 . .
H92_12 H 0.554133 0.444822 0.505605 . .
H93_12 H 0.686243 0.428187 0.346275 . .
H94_12 H 0.573779 0.319701 0.498041 . .
H95_12 H 0.589518 0.293894 0.480463 . .
H96_12 H 0.614179 0.32838 0.513297 . .
H97_12 H 0.513367 0.473148 0.245585 . .
H98_12 H 0.585464 0.506869 0.504074 . .
H99_12 H 0.675879 0.395179 0.412318 . .
H100_12 H 0.61939 0.40034 0.194432 . .
Nb1_13 Nb 0.133040 0.655212 0.754441 0.0063 Uiso
C1_13 C 0.136611 0.623229 0.708630 0.0127 Uiso
C2_13 C 0.080140 0.633775 0.757639 0.0127 Uiso
C3_13 C 0.130763 0.661183 0.820614 0.0127 Uiso
C4_13 C 0.177087 0.693809 0.725734 0.0127 Uiso
C5_13 C 0.113130 0.606174 0.782131 0.0127 Uiso
C6_13 C 0.117297 0.665704 0.694589 0.0127 Uiso
C7_13 C 0.130508 0.699979 0.766509 0.0127 Uiso
C8_13 C 0.176471 0.655151 0.780059 0.0127 Uiso
N1_13 N 0.137960 0.605209 0.685913 0.0127 Uiso
N4_8 N 0.199847 0.714736 0.709094 0.0127 Uiso
N5_13 N 0.101299 0.579960 0.797295 0.0127 Uiso
N6_13 N 0.108550 0.670662 0.663030 0.0127 Uiso
N7_13 N 0.129111 0.723633 0.773841 0.0127 Uiso
N8_13 N 0.199476 0.655099 0.793169 0.0127 Uiso
Fe1_13 Fe 0.144635 0.569274 0.654340 0.0063 Uiso
N9_13 N 0.165940 0.560103 0.712678 0.0127 Uiso
N10_13 N 0.095495 0.528462 0.677481 0.0127 Uiso
N11_13 N 0.120288 0.575326 0.595791 0.0127 Uiso
N12_13 N 0.194739 0.609242 0.631141 0.0127 Uiso
C9_13 C 0.176784 0.580900 0.745516 0.0127 Uiso
C10_13 C 0.168252 0.532212 0.715451 0.0127 Uiso
C11_13 C 0.078951 0.498336 0.658465 0.0127 Uiso
C12_13 C 0.081346 0.533236 0.711411 0.0127 Uiso
C13_13 C 0.104326 0.591598 0.596653 0.0127 Uiso
C14_13 C 0.121182 0.562385 0.557951 0.0127 Uiso
C15_13 C 0.207054 0.603911 0.595818 0.0127 Uiso
C16_13 C 0.213056 0.638202 0.650737 0.0127 Uiso
C25_13 C 0.190022 0.575417 0.781816 0.0127 Uiso
C26_13 C 0.181187 0.525175 0.750707 0.0127 Uiso
C27_13 C 0.048763 0.473189 0.672668 0.0127 Uiso
C28_13 C 0.050780 0.508503 0.726994 0.0127 Uiso
C29_13 C 0.089407 0.595318 0.561112 0.0127 Uiso
C30_13 C 0.107191 0.565347 0.523011 0.0127 Uiso
C31_13 C 0.237057 0.626960 0.580274 0.0127 Uiso
C32_13 C 0.244014 0.663017 0.636692 0.0127 Uiso
O1_13 O 0.200851 0.597328 0.814856 0.0127 Uiso
C41_13 C 0.192371 0.547079 0.784767 0.0127 Uiso
O2_13 O 0.035336 0.444086 0.649552 0.0127 Uiso
C42_13 C 0.034163 0.478266 0.707872 0.0127 Uiso
O3_13 O 0.072130 0.613566 0.564018 0.0127 Uiso
C43_13 C 0.090369 0.582375 0.523423 0.0127 Uiso
O4_13 O 0.248159 0.618132 0.540526 0.0127 Uiso
C44_13 C 0.256638 0.657346 0.600091 0.0127 Uiso
C49_13 C 0.008533 0.431522 0.628799 0.0127 Uiso
C50_13 C 0.091955 0.645842 0.546117 0.0127 Uiso
C51_13 C 0.269311 0.611058 0.550004 0.0127 Uiso
C54_13 C 0.010493 0.420390 0.586120 0.0127 Uiso
O10_13 O 0.112004 0.650098 0.518533 0.0127 Uiso
C55_13 C 0.088186 0.675266 0.561370 0.0127 Uiso
O11_13 O 0.283389 0.613552 0.580163 0.0127 Uiso
C56_13 C 0.276748 0.596033 0.511749 0.0127 Uiso
Fe4_8 Fe 0.235941 0.757973 0.678993 0.0063 Uiso
N17_13 N 0.151777 0.533180 0.624239 0.0127 Uiso
C59_13 C 0.149944 0.510420 0.607599 0.0127 Uiso
Nb2_13 Nb 0.144494 0.466373 0.578892 0.0063 Uiso
C76_13 C 0.180048 0.469944 0.624703 0.0127 Uiso
C77_13 C 0.113031 0.413473 0.575694 0.0127 Uiso
C78_13 C 0.136246 0.464096 0.512719 0.0127 Uiso
C79_13 C 0.173622 0.446463 0.551202 0.0127 Uiso
C80_13 C 0.118259 0.450630 0.638744 0.0127 Uiso
C81_13 C 0.097195 0.463841 0.566824 0.0127 Uiso
C82_13 C 0.187986 0.509804 0.553274 0.0127 Uiso
N24_13 N 0.199417 0.471293 0.647420 0.0127 Uiso
N25_13 N 0.095849 0.384997 0.575486 0.0127 Uiso
N26_13 N 0.133586 0.463115 0.476836 0.0127 Uiso
N27_13 N 0.188005 0.434632 0.536038 0.0127 Uiso
N28_13 N 0.104554 0.441883 0.670303 0.0127 Uiso
N29_13 N 0.072144 0.462444 0.559492 0.0127 Uiso
N30_13 N 0.211043 0.532809 0.540164 0.0127 Uiso
Fe5_6 Fe 0.242027 0.477968 0.678993 0.0063 Uiso
N31_13 N 0.272503 0.499273 0.620655 0.0127 Uiso
N32_13 N 0.233699 0.428828 0.655852 0.0127 Uiso
N33_13 N 0.211628 0.453621 0.737542 0.0127 Uiso
N34_13 N 0.252163 0.528072 0.702192 0.0127 Uiso
N35_6 N 0.285264 0.485110 0.709094 0.0127 Uiso
C91_13 C 0.262550 0.510117 0.587817 0.0127 Uiso
C92_13 C 0.302706 0.501585 0.617882 0.0127 Uiso
C93_13 C 0.247281 0.412284 0.674868 0.0127 Uiso
C94_13 C 0.214776 0.414679 0.621922 0.0127 Uiso
C95_13 C 0.179394 0.437659 0.736680 0.0127 Uiso
C96_13 C 0.225463 0.454515 0.775382 0.0127 Uiso
C97_13 C 0.269809 0.540387 0.737515 0.0127 Uiso
C98_13 C 0.241520 0.546389 0.682596 0.0127 Uiso
C99_13 C 0.281271 0.523355 0.551517 0.0127 Uiso
C100_13 C 0.322678 0.514520 0.582626 0.0127 Uiso
C101_13 C 0.242240 0.382096 0.660665 0.0127 Uiso
C102_13 C 0.208943 0.384113 0.606339 0.0127 Uiso
C103_13 C 0.160755 0.422740 0.772221 0.0127 Uiso
C104_13 C 0.208510 0.440524 0.810322 0.0127 Uiso
C105_13 C 0.276763 0.570390 0.753059 0.0127 Uiso
C106_13 C 0.247663 0.577347 0.696641 0.0127 Uiso
O20_13 O 0.270189 0.534184 0.518477 0.0127 Uiso
C107_13 C 0.311958 0.525704 0.548566 0.0127 Uiso
O21_13 O 0.257916 0.368669 0.683781 0.0127 Uiso
C108_13 C 0.222563 0.367496 0.625461 0.0127 Uiso
O22_13 O 0.125230 0.405463 0.769315 0.0127 Uiso
C109_13 C 0.174660 0.423702 0.809910 0.0127 Uiso
O23_13 O 0.296693 0.581492 0.792807 0.0127 Uiso
C110_13 C 0.265958 0.589971 0.733242 0.0127 Uiso
C111_13 C 0.243677 0.341866 0.704534 0.0127 Uiso
C112_13 C 0.112779 0.425288 0.787216 0.0127 Uiso
C113_13 C 0.324919 0.602644 0.783329 0.0127 Uiso
O24_13 O 0.219853 0.315099 0.690012 0.0127 Uiso
C114_13 C 0.256769 0.343826 0.747213 0.0127 Uiso
O25_13 O 0.128572 0.445337 0.814800 0.0127 Uiso
C115_13 C 0.079586 0.421519 0.771963 0.0127 Uiso
O26_13 O 0.336503 0.616722 0.753170 0.0127 Uiso
C116_13 C 0.347381 0.610081 0.821584 0.0127 Uiso
H1_13 H 0.175152 0.603486 0.74373 . .
H2_13 H 0.134374 0.548513 0.556081 . .
H3_13 H 0.102519 0.602574 0.625645 . .
H4_13 H 0.159837 0.51481 0.689605 . .
H5_13 H 0.203264 0.642633 0.679179 . .
H6_13 H 0.0942072 0.557185 0.727156 . .
H7_13 H 0.192491 0.58047 0.579385 . .
H8_13 H 0.0899125 0.493923 0.6311 . .
H9_13 H 0.18206 0.599664 0.825585 . .
H10_13 H 0.202465 0.54179 0.812311 . .
H13_13 H 0.109311 0.554133 0.494395 . .
H21_13 H 0.0402184 0.513367 0.754415 . .
H23_13 H 0.182624 0.502463 0.751823 . .
H26_13 H 0.258056 0.686243 0.653725 . .
H27_13 H 0.0103222 0.458699 0.719575 . .
H32_13 H 0.0177361 0.401416 0.587707 . .
H34_13 H 0.0288993 0.441542 0.568283 . .
H36_13 H 0.0940217 0.679245 0.594258 . .
H37_13 H 0.105179 0.697643 0.544263 . .
H38_13 H 0.0626924 0.669703 0.556369 . .
H39_13 H 0.280699 0.675879 0.587682 . .
H41_13 H 0.0785951 0.585464 0.495926 . .
H42_13 H 0.2858 0.614179 0.486703 . .
H43_13 H 0.295624 0.589518 0.519537 . .
H44_13 H 0.254078 0.573779 0.501959 . .
H69_13 H 0.238333 0.508485 0.589603 . .
H70_13 H 0.262656 0.423246 0.702234 . .
H71_13 H 0.278688 0.525824 0.753948 . .
H72_13 H 0.252527 0.467707 0.777252 . .
H76_13 H 0.203688 0.427541 0.606177 . .
H77_13 H 0.166611 0.435852 0.707688 . .
H78_13 H 0.346828 0.515958 0.58151 . .
H79_13 H 0.227298 0.536598 0.654154 . .
H80_13 H 0.311694 0.493171 0.643728 . .
H84_13 H 0.327341 0.535798 0.521022 . .
H85_13 H 0.254024 0.362233 0.76505 . .
H86_13 H 0.24286 0.319608 0.762139 . .
H87_13 H 0.282987 0.351069 0.745627 . .
H88_13 H 0.21829 0.343656 0.613758 . .
H89_13 H 0.0596556 0.396026 0.776964 . .
H90_13 H 0.074203 0.438513 0.78907 . .
H91_13 H 0.0814429 0.427355 0.739076 . .
H92_13 H 0.221845 0.442645 0.838939 . .
H93_13 H 0.23848 0.591389 0.679608 . .
H94_13 H 0.346965 0.587411 0.831374 . .
H95_13 H 0.372773 0.628958 0.813796 . .
H96_13 H 0.338287 0.619133 0.84663 . .
H97_13 H 0.193518 0.373552 0.578919 . .
H98_13 H 0.159798 0.411928 0.837407 . .
H99_13 H 0.271487 0.614033 0.745651 . .
H100_13 H 0.266327 0.552384 0.527766 . .
O9_13 O 0.981766 0.428579 0.643321 0.0127 Uiso
H33_13 H 0.986274 0.410081 0.571195 . .
Nb1_14 Nb 0.344788 0.477827 0.754441 0.0063 Uiso
C1_14 C 0.376771 0.513381 0.708630 0.0127 Uiso
C2_14 C 0.366225 0.446364 0.757639 0.0127 Uiso
C3_14 C 0.338817 0.469579 0.820614 0.0127 Uiso
C4_14 C 0.306191 0.483277 0.725734 0.0127 Uiso
C5_14 C 0.393826 0.506955 0.782131 0.0127 Uiso
C6_14 C 0.334296 0.451592 0.694589 0.0127 Uiso
C7_14 C 0.300021 0.430528 0.766509 0.0127 Uiso
C8_14 C 0.344849 0.521319 0.780059 0.0127 Uiso
N1_14 N 0.394791 0.532750 0.685913 0.0127 Uiso
N5_14 N 0.420040 0.521338 0.797295 0.0127 Uiso
N6_14 N 0.329338 0.437887 0.663030 0.0127 Uiso
N7_14 N 0.276367 0.405477 0.773841 0.0127 Uiso
N8_14 N 0.344901 0.544376 0.793169 0.0127 Uiso
Fe1_14 Fe 0.430726 0.575360 0.654340 0.0063 Uiso
N9_14 N 0.439897 0.605836 0.712678 0.0127 Uiso
N10_14 N 0.471538 0.567032 0.677481 0.0127 Uiso
N11_14 N 0.424674 0.544961 0.595791 0.0127 Uiso
N12_14 N 0.390758 0.585496 0.631141 0.0127 Uiso
C9_14 C 0.419100 0.595883 0.745516 0.0127 Uiso
C10_14 C 0.467788 0.636039 0.715451 0.0127 Uiso
C11_14 C 0.501664 0.580614 0.658465 0.0127 Uiso
C12_14 C 0.466764 0.548109 0.711411 0.0127 Uiso
C13_14 C 0.408402 0.512727 0.596653 0.0127 Uiso
C14_14 C 0.437615 0.558796 0.557951 0.0127 Uiso
C15_14 C 0.396089 0.603142 0.595818 0.0127 Uiso
C16_14 C 0.361798 0.574853 0.650737 0.0127 Uiso
C25_14 C 0.424583 0.614604 0.781816 0.0127 Uiso
C26_14 C 0.474825 0.656011 0.750707 0.0127 Uiso
C27_14 C 0.526811 0.575573 0.672668 0.0127 Uiso
C28_14 C 0.491497 0.542276 0.726994 0.0127 Uiso
C29_14 C 0.404682 0.494088 0.561112 0.0127 Uiso
C30_14 C 0.434653 0.541843 0.523011 0.0127 Uiso
C31_14 C 0.373040 0.610096 0.580274 0.0127 Uiso
C32_14 C 0.336983 0.580996 0.636692 0.0127 Uiso
O1_14 O 0.402672 0.603522 0.814856 0.0127 Uiso
C41_14 C 0.452921 0.645291 0.784767 0.0127 Uiso
O2_14 O 0.555914 0.591249 0.649552 0.0127 Uiso
C42_14 C 0.521734 0.555896 0.707872 0.0127 Uiso
O3_14 O 0.386434 0.458563 0.564018 0.0127 Uiso
C43_14 C 0.417625 0.507993 0.523423 0.0127 Uiso
O4_14 O 0.381868 0.630026 0.540526 0.0127 Uiso
C44_14 C 0.342654 0.599291 0.600091 0.0127 Uiso
C49_14 C 0.568478 0.577010 0.628799 0.0127 Uiso
C50_14 C 0.354158 0.446112 0.546117 0.0127 Uiso
C51_14 C 0.388942 0.658252 0.550004 0.0127 Uiso
O9_14 O 0.571421 0.553186 0.643321 0.0127 Uiso
C54_14 C 0.579610 0.590102 0.586120 0.0127 Uiso
O10_14 O 0.349902 0.461905 0.518533 0.0127 Uiso
C55_14 C 0.324734 0.412919 0.561370 0.0127 Uiso
O11_14 O 0.386448 0.669836 0.580163 0.0127 Uiso
C56_14 C 0.403967 0.680714 0.511749 0.0127 Uiso
N17_14 N 0.466820 0.618597 0.624239 0.0127 Uiso
C59_14 C 0.489580 0.639524 0.607599 0.0127 Uiso
Nb2_14 Nb 0.533627 0.678121 0.578892 0.0063 Uiso
C76_14 C 0.530056 0.710104 0.624703 0.0127 Uiso
C77_14 C 0.586527 0.699558 0.575694 0.0127 Uiso
C78_14 C 0.535904 0.672150 0.512719 0.0127 Uiso
C79_14 C 0.553537 0.727159 0.551202 0.0127 Uiso
C80_14 C 0.549370 0.667629 0.638744 0.0127 Uiso
C81_14 C 0.536159 0.633354 0.566824 0.0127 Uiso
C82_14 C 0.490196 0.678182 0.553274 0.0127 Uiso
N24_14 N 0.528707 0.728124 0.647420 0.0127 Uiso
N25_14 N 0.615003 0.710852 0.575486 0.0127 Uiso
N26_14 N 0.536885 0.670471 0.476836 0.0127 Uiso
N27_14 N 0.565368 0.753373 0.536038 0.0127 Uiso
N28_14 N 0.558117 0.662671 0.670303 0.0127 Uiso
N29_14 N 0.537556 0.609700 0.559492 0.0127 Uiso
N30_14 N 0.467191 0.678234 0.540164 0.0127 Uiso
Fe5_7 Fe 0.522032 0.764059 0.678993 0.0063 Uiso
N31_14 N 0.500727 0.773230 0.620655 0.0127 Uiso
N32_14 N 0.571172 0.804871 0.655852 0.0127 Uiso
N33_14 N 0.546379 0.758007 0.737542 0.0127 Uiso
N34_14 N 0.471928 0.724091 0.702192 0.0127 Uiso
N35_7 N 0.514890 0.800153 0.709094 0.0127 Uiso
C91_14 C 0.489883 0.752433 0.587817 0.0127 Uiso
C92_14 C 0.498415 0.801121 0.617882 0.0127 Uiso
C93_14 C 0.587716 0.834997 0.674868 0.0127 Uiso
C94_14 C 0.585321 0.800097 0.621922 0.0127 Uiso
C95_14 C 0.562341 0.741735 0.736680 0.0127 Uiso
C96_14 C 0.545485 0.770948 0.775382 0.0127 Uiso
C97_14 C 0.459613 0.729422 0.737515 0.0127 Uiso
C98_14 C 0.453611 0.695131 0.682596 0.0127 Uiso
C99_14 C 0.476645 0.757916 0.551517 0.0127 Uiso
C100_14 C 0.485480 0.808158 0.582626 0.0127 Uiso
C101_14 C 0.617904 0.860144 0.660665 0.0127 Uiso
C102_14 C 0.615887 0.824830 0.606339 0.0127 Uiso
C103_14 C 0.577260 0.738015 0.772221 0.0127 Uiso
C104_14 C 0.559476 0.767986 0.810322 0.0127 Uiso
C105_14 C 0.429610 0.706373 0.753059 0.0127 Uiso
C106_14 C 0.422653 0.670316 0.696641 0.0127 Uiso
O20_14 O 0.465816 0.736005 0.518477 0.0127 Uiso
C107_14 C 0.474296 0.786254 0.548566 0.0127 Uiso
O21_14 O 0.631331 0.889247 0.683781 0.0127 Uiso
C108_14 C 0.632504 0.855067 0.625461 0.0127 Uiso
O22_14 O 0.594537 0.719767 0.769315 0.0127 Uiso
C109_14 C 0.576298 0.750958 0.809910 0.0127 Uiso
O23_14 O 0.418508 0.715201 0.792807 0.0127 Uiso
C110_14 C 0.410029 0.675987 0.733242 0.0127 Uiso
C111_14 C 0.658134 0.901811 0.704534 0.0127 Uiso
C112_14 C 0.574712 0.687491 0.787216 0.0127 Uiso
C113_14 C 0.397356 0.722275 0.783329 0.0127 Uiso
O24_14 O 0.684901 0.904754 0.690012 0.0127 Uiso
C114_14 C 0.656174 0.912943 0.747213 0.0127 Uiso
O25_14 O 0.554663 0.683235 0.814800 0.0127 Uiso
C115_14 C 0.578481 0.658067 0.771963 0.0127 Uiso
O26_14 O 0.383278 0.719781 0.753170 0.0127 Uiso
C116_14 C 0.389919 0.737300 0.821584 0.0127 Uiso
H1_14 H 0.396514 0.571666 0.74373 . .
H2_14 H 0.451487 0.585861 0.556081 . .
H3_14 H 0.397426 0.499945 0.625645 . .
H4_14 H 0.48519 0.645027 0.689605 . .
H5_14 H 0.357367 0.560631 0.679179 . .
H6_14 H 0.442815 0.537022 0.727156 . .
H7_14 H 0.41953 0.612021 0.579385 . .
H8_14 H 0.506077 0.595989 0.6311 . .
H9_14 H 0.400336 0.582395 0.825585 . .
H10_14 H 0.45821 0.660674 0.812311 . .
H13_14 H 0.445867 0.555178 0.494395 . .
H21_14 H 0.486633 0.526852 0.754415 . .
H23_14 H 0.497537 0.680161 0.751823 . .
H26_14 H 0.313757 0.571813 0.653725 . .
H27_14 H 0.541301 0.551623 0.719575 . .
H32_14 H 0.598584 0.61632 0.587707 . .
H33_14 H 0.589919 0.576193 0.571195 . .
H34_14 H 0.558458 0.587357 0.568283 . .
H36_14 H 0.320755 0.414776 0.594258 . .
H37_14 H 0.302357 0.407536 0.544263 . .
H38_14 H 0.330297 0.392989 0.556369 . .
H39_14 H 0.324121 0.604821 0.587682 . .
H41_14 H 0.414536 0.493131 0.495926 . .
H42_14 H 0.385821 0.67162 0.486703 . .
H43_14 H 0.410482 0.706106 0.519537 . .
H44_14 H 0.426221 0.680299 0.501959 . .
H69_14 H 0.491515 0.729848 0.589603 . .
H70_14 H 0.576754 0.83941 0.702234 . .
H71_14 H 0.474176 0.752864 0.753948 . .
H72_14 H 0.532293 0.78482 0.777252 . .
H76_14 H 0.572459 0.776148 0.606177 . .
H77_14 H 0.564148 0.73076 0.707688 . .
H78_14 H 0.484042 0.83087 0.58151 . .
H79_14 H 0.463402 0.6907 0.654154 . .
H80_14 H 0.506829 0.818523 0.643728 . .
H84_14 H 0.464202 0.791543 0.521022 . .
H85_14 H 0.637767 0.891791 0.76505 . .
H86_14 H 0.680392 0.923252 0.762139 . .
H87_14 H 0.648931 0.931918 0.745627 . .
H88_14 H 0.656344 0.874634 0.613758 . .
H89_14 H 0.603974 0.66363 0.776964 . .
H90_14 H 0.561487 0.63569 0.78907 . .
H91_14 H 0.572645 0.654088 0.739076 . .
H92_14 H 0.557355 0.7792 0.838939 . .
H93_14 H 0.408611 0.64709 0.679608 . .
H94_14 H 0.412589 0.759554 0.831374 . .
H95_14 H 0.371042 0.743815 0.813796 . .
H96_14 H 0.380867 0.719154 0.84663 . .
H97_14 H 0.626448 0.819967 0.578919 . .
H98_14 H 0.588072 0.74787 0.837407 . .
H99_14 H 0.385967 0.657455 0.745651 . .
H100_14 H 0.447616 0.713943 0.527766 . .
O9_15 O 0.446814 0.018234 0.643321 0.0127 Uiso
H33_15 H 0.423807 0.0137257 0.571195 . .
Nb1_15 Nb 0.522173 0.866960 0.754441 0.0063 Uiso
C1_15 C 0.486619 0.863389 0.708630 0.0127 Uiso
C2_15 C 0.553636 0.919860 0.757639 0.0127 Uiso
C3_15 C 0.530421 0.869237 0.820614 0.0127 Uiso
C4_15 C 0.516723 0.822913 0.725734 0.0127 Uiso
C5_15 C 0.493045 0.886870 0.782131 0.0127 Uiso
C6_15 C 0.548408 0.882703 0.694589 0.0127 Uiso
C7_15 C 0.569472 0.869492 0.766509 0.0127 Uiso
C8_15 C 0.478681 0.823529 0.780059 0.0127 Uiso
N1_15 N 0.467250 0.862040 0.685913 0.0127 Uiso
N5_15 N 0.478662 0.898701 0.797295 0.0127 Uiso
N6_15 N 0.562113 0.891450 0.663030 0.0127 Uiso
N7_15 N 0.594523 0.870889 0.773841 0.0127 Uiso
N8_15 N 0.455624 0.800524 0.793169 0.0127 Uiso
Fe1_15 Fe 0.424640 0.855365 0.654340 0.0063 Uiso
N9_15 N 0.394164 0.834060 0.712678 0.0127 Uiso
N10_15 N 0.432968 0.904505 0.677481 0.0127 Uiso
N11_15 N 0.455039 0.879712 0.595791 0.0127 Uiso
N12_15 N 0.414504 0.805261 0.631141 0.0127 Uiso
C9_15 C 0.404117 0.823216 0.745516 0.0127 Uiso
C10_15 C 0.363961 0.831748 0.715451 0.0127 Uiso
C11_15 C 0.419386 0.921049 0.658465 0.0127 Uiso
C12_15 C 0.451891 0.918654 0.711411 0.0127 Uiso
C13_15 C 0.487273 0.895674 0.596653 0.0127 Uiso
C14_15 C 0.441204 0.878818 0.557951 0.0127 Uiso
C15_15 C 0.396858 0.792946 0.595818 0.0127 Uiso
C16_15 C 0.425147 0.786944 0.650737 0.0127 Uiso
C25_15 C 0.385396 0.809978 0.781816 0.0127 Uiso
C26_15 C 0.343989 0.818813 0.750707 0.0127 Uiso
C27_15 C 0.424427 0.951237 0.672668 0.0127 Uiso
C28_15 C 0.457724 0.949220 0.726994 0.0127 Uiso
C29_15 C 0.505912 0.910593 0.561112 0.0127 Uiso
C30_15 C 0.458157 0.892809 0.523011 0.0127 Uiso
C31_15 C 0.389904 0.762943 0.580274 0.0127 Uiso
C32_15 C 0.419004 0.755986 0.636692 0.0127 Uiso
O1_15 O 0.396478 0.799149 0.814856 0.0127 Uiso
C41_15 C 0.354709 0.807629 0.784767 0.0127 Uiso
O2_15 O 0.408751 0.964664 0.649552 0.0127 Uiso
C42_15 C 0.444104 0.965837 0.707872 0.0127 Uiso
O3_15 O 0.541437 0.927870 0.564018 0.0127 Uiso
C43_15 C 0.492007 0.909631 0.523423 0.0127 Uiso
O4_15 O 0.369974 0.751841 0.540526 0.0127 Uiso
C44_15 C 0.400709 0.743362 0.600091 0.0127 Uiso
C49_15 C 0.422990 0.991467 0.628799 0.0127 Uiso
C50_15 C 0.553888 0.908045 0.546117 0.0127 Uiso
C51_15 C 0.341748 0.730689 0.550004 0.0127 Uiso
C54_15 C 0.409898 0.989507 0.586120 0.0127 Uiso
O10_15 O 0.538095 0.887996 0.518533 0.0127 Uiso
C55_15 C 0.587081 0.911814 0.561370 0.0127 Uiso
O11_15 O 0.330164 0.716611 0.580163 0.0127 Uiso
C56_15 C 0.319286 0.723252 0.511749 0.0127 Uiso
N17_15 N 0.381403 0.848223 0.624239 0.0127 Uiso
C59_15 C 0.360476 0.850056 0.607599 0.0127 Uiso
Nb2_15 Nb 0.321879 0.855506 0.578892 0.0063 Uiso
C76_15 C 0.289896 0.819952 0.624703 0.0127 Uiso
C77_15 C 0.300442 0.886969 0.575694 0.0127 Uiso
C78_15 C 0.327850 0.863754 0.512719 0.0127 Uiso
C79_15 C 0.272841 0.826378 0.551202 0.0127 Uiso
C80_15 C 0.332371 0.881741 0.638744 0.0127 Uiso
C81_15 C 0.366646 0.902805 0.566824 0.0127 Uiso
C82_15 C 0.321818 0.812014 0.553274 0.0127 Uiso
N24_15 N 0.271876 0.800583 0.647420 0.0127 Uiso
N25_15 N 0.289148 0.904151 0.575486 0.0127 Uiso
N26_15 N 0.329529 0.866414 0.476836 0.0127 Uiso
N27_15 N 0.246627 0.811995 0.536038 0.0127 Uiso
N28_15 N 0.337329 0.895446 0.670303 0.0127 Uiso
N29_15 N 0.390300 0.927856 0.559492 0.0127 Uiso
N30_15 N 0.321766 0.788957 0.540164 0.0127 Uiso
N31_15 N 0.226770 0.727497 0.620655 0.0127 Uiso
N32_15 N 0.195129 0.766301 0.655852 0.0127 Uiso
N33_15 N 0.241993 0.788372 0.737542 0.0127 Uiso
N34_15 N 0.275909 0.747837 0.702192 0.0127 Uiso
C91_15 C 0.247567 0.737450 0.587817 0.0127 Uiso
C92_15 C 0.198879 0.697294 0.617882 0.0127 Uiso
C93_15 C 0.165003 0.752719 0.674868 0.0127 Uiso
C94_15 C 0.199903 0.785224 0.621922 0.0127 Uiso
C95_15 C 0.258265 0.820606 0.736680 0.0127 Uiso
C96_15 C 0.229052 0.774537 0.775382 0.0127 Uiso
C97_15 C 0.270578 0.730191 0.737515 0.0127 Uiso
C98_15 C 0.304869 0.758480 0.682596 0.0127 Uiso
C99_15 C 0.242084 0.718729 0.551517 0.0127 Uiso
C100_15 C 0.191842 0.677322 0.582626 0.0127 Uiso
C101_15 C 0.139856 0.757760 0.660665 0.0127 Uiso
C102_15 C 0.175170 0.791057 0.606339 0.0127 Uiso
C103_15 C 0.261985 0.839245 0.772221 0.0127 Uiso
C104_15 C 0.232014 0.791490 0.810322 0.0127 Uiso
C105_15 C 0.293627 0.723237 0.753059 0.0127 Uiso
C106_15 C 0.329684 0.752337 0.696641 0.0127 Uiso
O20_15 O 0.263995 0.729811 0.518477 0.0127 Uiso
C107_15 C 0.213746 0.688042 0.548566 0.0127 Uiso
O21_15 O 0.110753 0.742084 0.683781 0.0127 Uiso
C108_15 C 0.144933 0.777437 0.625461 0.0127 Uiso
O22_15 O 0.280233 0.874770 0.769315 0.0127 Uiso
C109_15 C 0.249042 0.825340 0.809910 0.0127 Uiso
O23_15 O 0.284799 0.703307 0.792807 0.0127 Uiso
C110_15 C 0.324013 0.734042 0.733242 0.0127 Uiso
C111_15 C 0.098189 0.756323 0.704534 0.0127 Uiso
C112_15 C 0.312509 0.887221 0.787216 0.0127 Uiso
C113_15 C 0.277725 0.675081 0.783329 0.0127 Uiso
O24_15 O 0.095246 0.780147 0.690012 0.0127 Uiso
C114_15 C 0.087057 0.743231 0.747213 0.0127 Uiso
O25_15 O 0.316765 0.871428 0.814800 0.0127 Uiso
C115_15 C 0.341933 0.920414 0.771963 0.0127 Uiso
O26_15 O 0.280219 0.663497 0.753170 0.0127 Uiso
C116_15 C 0.262700 0.652619 0.821584 0.0127 Uiso
H1_15 H 0.428334 0.824848 0.74373 . .
H2_15 H 0.414139 0.865626 0.556081 . .
H3_15 H 0.500055 0.897481 0.625645 . .
H4_15 H 0.354973 0.840163 0.689605 . .
H5_15 H 0.439369 0.796736 0.679179 . .
H6_15 H 0.462978 0.905793 0.727156 . .
H7_15 H 0.387979 0.807509 0.579385 . .
H8_15 H 0.404011 0.910088 0.6311 . .
H9_15 H 0.417605 0.81794 0.825585 . .
H10_15 H 0.339326 0.797535 0.812311 . .
H13_15 H 0.444822 0.890689 0.494395 . .
H21_15 H 0.473148 0.959782 0.754415 . .
H23_15 H 0.319839 0.817376 0.751823 . .
H26_15 H 0.428187 0.741944 0.653725 . .
H27_15 H 0.448377 0.989678 0.719575 . .
H32_15 H 0.38368 0.982264 0.587707 . .
H34_15 H 0.412643 0.971101 0.568283 . .
H36_15 H 0.585224 0.905978 0.594258 . .
H37_15 H 0.592464 0.894821 0.544263 . .
H38_15 H 0.607011 0.937308 0.556369 . .
H39_15 H 0.395179 0.719301 0.587682 . .
H41_15 H 0.506869 0.921405 0.495926 . .
H42_15 H 0.32838 0.7142 0.486703 . .
H43_15 H 0.293894 0.704376 0.519537 . .
H44_15 H 0.319701 0.745922 0.501959 . .
H69_15 H 0.270152 0.761667 0.589603 . .
H70_15 H 0.16059 0.737344 0.702234 . .
H71_15 H 0.247136 0.721312 0.753948 . .
H72_15 H 0.21518 0.747473 0.777252 . .
H76_15 H 0.223852 0.796312 0.606177 . .
H77_15 H 0.26924 0.833389 0.707688 . .
H78_15 H 0.16913 0.653172 0.58151 . .
H79_15 H 0.3093 0.772702 0.654154 . .
H80_15 H 0.181477 0.688306 0.643728 . .
H84_15 H 0.208457 0.672659 0.521022 . .
H85_15 H 0.108209 0.745976 0.76505 . .
H86_15 H 0.0767478 0.75714 0.762139 . .
H87_15 H 0.0680824 0.717013 0.745627 . .
H88_15 H 0.125366 0.78171 0.613758 . .
H89_15 H 0.33637 0.940344 0.776964 . .
H90_15 H 0.36431 0.925797 0.78907 . .
H91_15 H 0.345912 0.918557 0.739076 . .
H92_15 H 0.2208 0.778155 0.838939 . .
H93_15 H 0.35291 0.76152 0.679608 . .
H94_15 H 0.240446 0.653035 0.831374 . .
H95_15 H 0.256185 0.627227 0.813796 . .
H96_15 H 0.280846 0.661713 0.84663 . .
H97_15 H 0.180033 0.806482 0.578919 . .
H98_15 H 0.25213 0.840202 0.837407 . .
H99_15 H 0.342545 0.728513 0.745651 . .
H100_15 H 0.286057 0.733673 0.527766 . .
O26_16 O 0.003170 0.950055 0.086503 0.0127 Uiso
C116_16 C 0.014048 0.943414 0.154917 0.0127 Uiso
H94_16 H 0.013632 0.920744 0.164708 . .
H95_16 H 0.0394394 0.962291 0.14713 . .
H96_16 H 0.00495363 0.952466 0.179963 . .
H78_16 H 0.0134945 0.849291 0.914843 . .
C4_16 C 0.843753 0.027143 0.059068 0.0127 Uiso
C7_16 C 0.797174 0.033313 0.099843 0.0127 Uiso
N4_9 N 0.866513 0.048070 0.042428 0.0127 Uiso
N7_16 N 0.795777 0.056967 0.107175 0.0127 Uiso
Fe4_9 Fe 0.902608 0.091306 0.012326 0.0063 Uiso
N6_16 N 0.775216 0.003996 0.996364 0.0127 Uiso
C55_16 C 0.754852 0.008600 0.894704 0.0127 Uiso
H26_16 H 0.924723 0.0195763 0.987059 . .
H36_16 H 0.760688 0.0125788 0.927591 . .
H37_16 H 0.771846 0.0309765 0.877596 . .
H38_16 H 0.729359 0.00303677 0.889703 . .
H39_16 H 0.947366 0.009212 0.921015 . .
Nb1_16 Nb 0.799706 0.988546 0.087775 0.0063 Uiso
C1_16 C 0.803277 0.956563 0.041964 0.0127 Uiso
C2_16 C 0.746806 0.967109 0.090973 0.0127 Uiso
C3_16 C 0.797429 0.994517 0.153948 0.0127 Uiso
C5_16 C 0.779796 0.939508 0.115465 0.0127 Uiso
C6_16 C 0.783963 0.999038 0.027923 0.0127 Uiso
C8_16 C 0.843137 0.988485 0.113393 0.0127 Uiso
N1_16 N 0.804626 0.938543 0.019247 0.0127 Uiso
N5_16 N 0.767965 0.913294 0.130629 0.0127 Uiso
N8_16 N 0.866142 0.988433 0.126503 0.0127 Uiso
N9_16 N 0.832606 0.893437 0.046012 0.0127 Uiso
N10_16 N 0.762161 0.861796 0.010815 0.0127 Uiso
C9_16 C 0.843450 0.914234 0.078850 0.0127 Uiso
C10_16 C 0.834918 0.865546 0.048785 0.0127 Uiso
C12_16 C 0.748012 0.866570 0.044745 0.0127 Uiso
C25_16 C 0.856688 0.908751 0.115150 0.0127 Uiso
C26_16 C 0.847853 0.858509 0.084041 0.0127 Uiso
C27_16 C 0.715429 0.806523 0.006002 0.0127 Uiso
C28_16 C 0.717446 0.841837 0.060328 0.0127 Uiso
O1_16 O 0.867517 0.930662 0.148190 0.0127 Uiso
C41_16 C 0.859037 0.880413 0.118101 0.0127 Uiso
C42_16 C 0.700829 0.811600 0.041206 0.0127 Uiso
N28_16 N 0.771221 0.775216 0.003636 0.0127 Uiso
Fe5_8 Fe 0.908694 0.811301 0.012326 0.0063 Uiso
N33_16 N 0.878295 0.786954 0.070875 0.0127 Uiso
N34_16 N 0.918830 0.861405 0.035525 0.0127 Uiso
N35_8 N 0.951930 0.818444 0.042428 0.0127 Uiso
C93_16 C 0.913948 0.745617 0.008201 0.0127 Uiso
C95_16 C 0.846061 0.770992 0.070013 0.0127 Uiso
C96_16 C 0.892130 0.787848 0.108715 0.0127 Uiso
C97_16 C 0.936476 0.873720 0.070848 0.0127 Uiso
C98_16 C 0.908187 0.879722 0.015929 0.0127 Uiso
C103_16 C 0.827422 0.756073 0.105554 0.0127 Uiso
C104_16 C 0.875177 0.773857 0.143655 0.0127 Uiso
C105_16 C 0.943430 0.903723 0.086392 0.0127 Uiso
C106_16 C 0.914330 0.910680 0.029974 0.0127 Uiso
O21_16 O 0.924583 0.702002 0.017114 0.0127 Uiso
O22_16 O 0.791897 0.738796 0.102648 0.0127 Uiso
C109_16 C 0.841327 0.757035 0.143243 0.0127 Uiso
O23_16 O 0.963360 0.914825 0.126140 0.0127 Uiso
C110_16 C 0.932625 0.923304 0.066575 0.0127 Uiso
C111_16 C 0.910344 0.675199 0.037867 0.0127 Uiso
C112_16 C 0.779446 0.758621 0.120549 0.0127 Uiso
C113_16 C 0.991586 0.935977 0.116662 0.0127 Uiso
O24_16 O 0.886520 0.648432 0.023345 0.0127 Uiso
C114_16 C 0.923436 0.677159 0.080546 0.0127 Uiso
O25_16 O 0.795239 0.778670 0.148133 0.0127 Uiso
C115_16 C 0.746253 0.754852 0.105296 0.0127 Uiso
H1_16 H 0.841819 0.936819 0.0770635 . .
H4_16 H 0.826504 0.848144 0.0229382 . .
H5_16 H 0.869931 0.975966 0.0125125 . .
H6_16 H 0.760874 0.890519 0.0604892 . .
H9_16 H 0.848726 0.932998 0.158919 . .
H10_16 H 0.869132 0.875124 0.145645 . .
H21_16 H 0.706885 0.8467 0.0877479 . .
H23_16 H 0.849291 0.835796 0.0851567 . .
H27_16 H 0.676989 0.792032 0.0529083 . .
H70_16 H 0.929322 0.756579 0.0355668 . .
H71_16 H 0.945355 0.859158 0.0872816 . .
H72_16 H 0.919194 0.801041 0.110586 . .
H77_16 H 0.833278 0.769185 0.0410213 . .
H85_16 H 0.92069 0.695566 0.0983835 . .
H86_16 H 0.909527 0.652941 0.0954719 . .
H87_16 H 0.949654 0.684403 0.0789601 . .
H89_16 H 0.726322 0.729359 0.110297 . .
H90_16 H 0.74087 0.771846 0.122404 . .
H91_16 H 0.74811 0.760688 0.072409 . .
H92_16 H 0.888512 0.775978 0.172272 . .
H93_16 H 0.905147 0.924723 0.0129414 . .
H98_16 H 0.826465 0.745262 0.17074 . .
H99_16 H 0.938154 0.947366 0.0789847 . .
Fe1_16 Fe 0.811301 0.902608 0.987674 0.0063 Uiso
N11_16 N 0.786954 0.908660 0.929125 0.0127 Uiso
N12_16 N 0.861405 0.942576 0.964475 0.0127 Uiso
C11_16 C 0.745617 0.831670 0.991799 0.0127 Uiso
C13_16 C 0.770992 0.924932 0.929987 0.0127 Uiso
C14_16 C 0.787848 0.895719 0.891285 0.0127 Uiso
C15_16 C 0.873720 0.937245 0.929152 0.0127 Uiso
C16_16 C 0.879722 0.971536 0.984071 0.0127 Uiso
C29_16 C 0.756073 0.928652 0.894446 0.0127 Uiso
C30_16 C 0.773857 0.898681 0.856345 0.0127 Uiso
C31_16 C 0.903723 0.960294 0.913608 0.0127 Uiso
C32_16 C 0.910680 0.996351 0.970026 0.0127 Uiso
O2_16 O 0.702002 0.777420 0.982886 0.0127 Uiso
O3_16 O 0.738796 0.946900 0.897352 0.0127 Uiso
C43_16 C 0.757035 0.915709 0.856757 0.0127 Uiso
O4_16 O 0.914825 0.951466 0.873860 0.0127 Uiso
C44_16 C 0.923304 0.990680 0.933425 0.0127 Uiso
C49_16 C 0.675199 0.764856 0.962133 0.0127 Uiso
C50_16 C 0.758621 0.979176 0.879451 0.0127 Uiso
C51_16 C 0.935977 0.944392 0.883338 0.0127 Uiso
O9_16 O 0.648432 0.761913 0.976655 0.0127 Uiso
C54_16 C 0.677159 0.753724 0.919454 0.0127 Uiso
O10_16 O 0.778670 0.983432 0.851867 0.0127 Uiso
O11_16 O 0.950055 0.946886 0.913497 0.0127 Uiso
C56_16 C 0.943414 0.929367 0.845083 0.0127 Uiso
N17_16 N 0.818444 0.866513 0.957572 0.0127 Uiso
C59_16 C 0.816611 0.843753 0.940932 0.0127 Uiso
Nb2_16 Nb 0.811161 0.799706 0.912225 0.0063 Uiso
C76_16 C 0.846715 0.803277 0.958036 0.0127 Uiso
C77_16 C 0.779698 0.746806 0.909027 0.0127 Uiso
C78_16 C 0.802913 0.797429 0.846052 0.0127 Uiso
C79_16 C 0.840289 0.779796 0.884535 0.0127 Uiso
C80_16 C 0.784926 0.783963 0.972077 0.0127 Uiso
C81_16 C 0.763862 0.797174 0.900157 0.0127 Uiso
C82_16 C 0.854653 0.843137 0.886607 0.0127 Uiso
N24_16 N 0.866084 0.804626 0.980753 0.0127 Uiso
N25_16 N 0.762516 0.718330 0.908819 0.0127 Uiso
N26_16 N 0.800253 0.796448 0.810169 0.0127 Uiso
N27_16 N 0.854672 0.767965 0.869371 0.0127 Uiso
N29_16 N 0.738811 0.795777 0.892825 0.0127 Uiso
N30_16 N 0.877710 0.866142 0.873497 0.0127 Uiso
N31_16 N 0.939170 0.832606 0.953988 0.0127 Uiso
N32_16 N 0.900366 0.762161 0.989185 0.0127 Uiso
C91_16 C 0.929217 0.843450 0.921150 0.0127 Uiso
C92_16 C 0.969373 0.834918 0.951215 0.0127 Uiso
C94_16 C 0.881443 0.748012 0.955255 0.0127 Uiso
C99_16 C 0.947938 0.856688 0.884850 0.0127 Uiso
C100_16 C 0.989345 0.847853 0.915959 0.0127 Uiso
C101_16 C 0.908907 0.715429 0.993998 0.0127 Uiso
C102_16 C 0.875610 0.717446 0.939672 0.0127 Uiso
O20_16 O 0.936856 0.867517 0.851810 0.0127 Uiso
C107_16 C 0.978625 0.859037 0.881899 0.0127 Uiso
C108_16 C 0.889230 0.700829 0.958794 0.0127 Uiso
H2_16 H 0.801041 0.881847 0.889414 . .
H3_16 H 0.769185 0.935907 0.958979 . .
H7_16 H 0.859158 0.913803 0.912718 . .
H8_16 H 0.756579 0.827257 0.964433 . .
H13_16 H 0.775978 0.887466 0.827728 . .
H32_16 H 0.684403 0.734749 0.92104 . .
H33_16 H 0.652941 0.743415 0.904528 . .
H34_16 H 0.695566 0.774876 0.901616 . .
H41_16 H 0.745262 0.918797 0.82926 . .
H42_16 H 0.952466 0.947513 0.820037 . .
H43_16 H 0.962291 0.922851 0.85287 . .
H44_16 H 0.920744 0.907112 0.835292 . .
H69_16 H 0.905 0.841819 0.922936 . .
H76_16 H 0.870355 0.760874 0.939511 . .
H79_16 H 0.893965 0.869931 0.987488 . .
H80_16 H 0.97836 0.826504 0.977062 . .
H84_16 H 0.994008 0.869132 0.854355 . .
H88_16 H 0.884956 0.676989 0.947092 . .
H97_16 H 0.860185 0.706885 0.912252 . .
H100_16 H 0.932994 0.885717 0.861099 . .
Fe5_9 Fe 0.188699 0.097392 0.012326 0.0063 Uiso
N33_17 N 0.213046 0.091340 0.070875 0.0127 Uiso
N34_17 N 0.138595 0.057424 0.035525 0.0127 Uiso
N35_9 N 0.181556 0.133487 0.042428 0.0127 Uiso
C93_17 C 0.254383 0.168330 0.008201 0.0127 Uiso
C95_17 C 0.229008 0.075068 0.070013 0.0127 Uiso
C96_17 C 0.212152 0.104281 0.108715 0.0127 Uiso
C97_17 C 0.126280 0.062755 0.070848 0.0127 Uiso
C98_17 C 0.120278 0.028464 0.015929 0.0127 Uiso
C103_17 C 0.243927 0.071348 0.105554 0.0127 Uiso
C104_17 C 0.226143 0.101319 0.143655 0.0127 Uiso
C105_17 C 0.096277 0.039706 0.086392 0.0127 Uiso
C106_17 C 0.089320 0.003649 0.029974 0.0127 Uiso
O21_17 O 0.297998 0.222580 0.017114 0.0127 Uiso
O22_17 O 0.261204 0.053100 0.102648 0.0127 Uiso
C109_17 C 0.242965 0.084291 0.143243 0.0127 Uiso
O23_17 O 0.085175 0.048534 0.126140 0.0127 Uiso
C110_17 C 0.076696 0.009320 0.066575 0.0127 Uiso
C111_17 C 0.324801 0.235144 0.037867 0.0127 Uiso
C112_17 C 0.241379 0.020824 0.120549 0.0127 Uiso
C113_17 C 0.064023 0.055608 0.116662 0.0127 Uiso
O24_17 O 0.351568 0.238087 0.023345 0.0127 Uiso
C114_17 C 0.322841 0.246276 0.080546 0.0127 Uiso
O25_17 O 0.221330 0.016568 0.148133 0.0127 Uiso
O26_17 O 0.049945 0.053114 0.086503 0.0127 Uiso
C116_17 C 0.056586 0.070633 0.154917 0.0127 Uiso
H23_17 H 0.164204 0.0134945 0.0851567 . .
H70_17 H 0.243421 0.172743 0.0355668 . .
H71_17 H 0.140842 0.0861969 0.0872816 . .
H72_17 H 0.198959 0.118153 0.110586 . .
H77_17 H 0.230815 0.0640929 0.0410213 . .
H85_17 H 0.304434 0.225124 0.0983835 . .
H86_17 H 0.347059 0.256585 0.0954719 . .
H87_17 H 0.315597 0.265251 0.0789601 . .
H92_17 H 0.224022 0.112534 0.172272 . .
H94_17 H 0.0792558 0.0928878 0.164708 . .
H95_17 H 0.0377091 0.0771485 0.14713 . .
H96_17 H 0.0475336 0.0524873 0.179963 . .
H98_17 H 0.254738 0.0812031 0.17074 . .
O11_17 O 0.053114 0.003170 0.913497 0.0127 Uiso
C56_17 C 0.070633 0.014048 0.845083 0.0127 Uiso
Nb2_17 Nb 0.200294 0.011454 0.912225 0.0063 Uiso
C76_17 C 0.196723 0.043437 0.958036 0.0127 Uiso
C77_17 C 0.253194 0.032891 0.909027 0.0127 Uiso
C78_17 C 0.202571 0.005483 0.846052 0.0127 Uiso
C79_17 C 0.220204 0.060492 0.884535 0.0127 Uiso
C80_17 C 0.216037 0.000962 0.972077 0.0127 Uiso
C82_17 C 0.156863 0.011515 0.886607 0.0127 Uiso
N24_17 N 0.195374 0.061457 0.980753 0.0127 Uiso
N25_17 N 0.281670 0.044185 0.908819 0.0127 Uiso
N26_17 N 0.203552 0.003804 0.810169 0.0127 Uiso
N27_17 N 0.232035 0.086706 0.869371 0.0127 Uiso
N30_17 N 0.133858 0.011567 0.873497 0.0127 Uiso
N31_17 N 0.167394 0.106563 0.953988 0.0127 Uiso
N32_17 N 0.237839 0.138204 0.989185 0.0127 Uiso
C91_17 C 0.156550 0.085766 0.921150 0.0127 Uiso
C92_17 C 0.165082 0.134454 0.951215 0.0127 Uiso
C94_17 C 0.251988 0.133430 0.955255 0.0127 Uiso
C99_17 C 0.143312 0.091249 0.884850 0.0127 Uiso
C100_17 C 0.152147 0.141491 0.915959 0.0127 Uiso
C101_17 C 0.284571 0.193477 0.993998 0.0127 Uiso
C102_17 C 0.282554 0.158163 0.939672 0.0127 Uiso
O20_17 O 0.132483 0.069338 0.851810 0.0127 Uiso
C107_17 C 0.140963 0.119587 0.881899 0.0127 Uiso
C108_17 C 0.299171 0.188400 0.958794 0.0127 Uiso
H42_17 H 0.0524873 0.00495363 0.820037 . .
H43_17 H 0.0771485 0.0394394 0.85287 . .
H44_17 H 0.0928878 0.013632 0.835292 . .
H69_17 H 0.158181 0.0631809 0.922936 . .
H76_17 H 0.239126 0.109481 0.939511 . .
H78_17 H 0.150709 0.164204 0.914843 . .
H79_17 H 0.130069 0.0240338 0.987488 . .
H80_17 H 0.173496 0.151856 0.977062 . .
H84_17 H 0.130868 0.124876 0.854355 . .
H88_17 H 0.323011 0.207968 0.947092 . .
H97_17 H 0.293115 0.1533 0.912252 . .
H100_17 H 0.114283 0.0472766 0.861099 . .
Nb1_17 Nb 0.011454 0.811161 0.087775 0.0063 Uiso
C1_17 C 0.043437 0.846715 0.041964 0.0127 Uiso
C2_17 C 0.032891 0.779698 0.090973 0.0127 Uiso
C3_17 C 0.005483 0.802913 0.153948 0.0127 Uiso
C5_17 C 0.060492 0.840289 0.115465 0.0127 Uiso
C6_17 C 0.000962 0.784926 0.027923 0.0127 Uiso
C8_17 C 0.011515 0.854653 0.113393 0.0127 Uiso
N1_17 N 0.061457 0.866084 0.019247 0.0127 Uiso
N5_17 N 0.086706 0.854672 0.130629 0.0127 Uiso
N8_17 N 0.011567 0.877710 0.126503 0.0127 Uiso
N9_17 N 0.106563 0.939170 0.046012 0.0127 Uiso
N10_17 N 0.138204 0.900366 0.010815 0.0127 Uiso
C9_17 C 0.085766 0.929217 0.078850 0.0127 Uiso
C10_17 C 0.134454 0.969373 0.048785 0.0127 Uiso
C12_17 C 0.133430 0.881443 0.044745 0.0127 Uiso
C25_17 C 0.091249 0.947938 0.115150 0.0127 Uiso
C26_17 C 0.141491 0.989345 0.084041 0.0127 Uiso
C27_17 C 0.193477 0.908907 0.006002 0.0127 Uiso
C28_17 C 0.158163 0.875610 0.060328 0.0127 Uiso
O1_17 O 0.069338 0.936856 0.148190 0.0127 Uiso
C41_17 C 0.119587 0.978625 0.118101 0.0127 Uiso
C42_17 C 0.188400 0.889230 0.041206 0.0127 Uiso
N28_17 N 0.224784 0.996004 0.003636 0.0127 Uiso
C115_17 C 0.245148 0.991400 0.105296 0.0127 Uiso
H1_17 H 0.0631809 0.905 0.0770635 . .
H4_17 H 0.151856 0.97836 0.0229382 . .
H5_17 H 0.0240338 0.893965 0.0125125 . .
H6_17 H 0.109481 0.870355 0.0604892 . .
H9_17 H 0.0670023 0.915729 0.158919 . .
H10_17 H 0.124876 0.994008 0.145645 . .
H21_17 H 0.1533 0.860185 0.0877479 . .
H27_17 H 0.207968 0.884956 0.0529083 . .
H89_17 H 0.270641 0.996963 0.110297 . .
H90_17 H 0.228154 0.969024 0.122404 . .
H91_17 H 0.239312 0.987421 0.072409 . .
H93_17 H 0.0752772 0.980424 0.0129414 . .
H99_17 H 0.0526341 0.990788 0.0789847 . .
Fe1_17 Fe 0.097392 0.908694 0.987674 0.0063 Uiso
N11_17 N 0.091340 0.878295 0.929125 0.0127 Uiso
N12_17 N 0.057424 0.918830 0.964475 0.0127 Uiso
C11_17 C 0.168330 0.913948 0.991799 0.0127 Uiso
C13_17 C 0.075068 0.846061 0.929987 0.0127 Uiso
C14_17 C 0.104281 0.892130 0.891285 0.0127 Uiso
C15_17 C 0.062755 0.936476 0.929152 0.0127 Uiso
C16_17 C 0.028464 0.908187 0.984071 0.0127 Uiso
C29_17 C 0.071348 0.827422 0.894446 0.0127 Uiso
C30_17 C 0.101319 0.875177 0.856345 0.0127 Uiso
C31_17 C 0.039706 0.943430 0.913608 0.0127 Uiso
C32_17 C 0.003649 0.914330 0.970026 0.0127 Uiso
O2_17 O 0.222580 0.924583 0.982886 0.0127 Uiso
O3_17 O 0.053100 0.791897 0.897352 0.0127 Uiso
C43_17 C 0.084291 0.841327 0.856757 0.0127 Uiso
O4_17 O 0.048534 0.963360 0.873860 0.0127 Uiso
C44_17 C 0.009320 0.932625 0.933425 0.0127 Uiso
C49_17 C 0.235144 0.910344 0.962133 0.0127 Uiso
C50_17 C 0.020824 0.779446 0.879451 0.0127 Uiso
C51_17 C 0.055608 0.991586 0.883338 0.0127 Uiso
O9_17 O 0.238087 0.886520 0.976655 0.0127 Uiso
C54_17 C 0.246276 0.923436 0.919454 0.0127 Uiso
O10_17 O 0.016568 0.795239 0.851867 0.0127 Uiso
N17_17 N 0.133487 0.951930 0.957572 0.0127 Uiso
C59_17 C 0.156247 0.972857 0.940932 0.0127 Uiso
C81_17 C 0.202826 0.966687 0.900157 0.0127 Uiso
N29_17 N 0.204223 0.943033 0.892825 0.0127 Uiso
H2_17 H 0.118153 0.919194 0.889414 . .
H3_17 H 0.0640929 0.833278 0.958979 . .
H7_17 H 0.0861969 0.945355 0.912718 . .
H8_17 H 0.172743 0.929322 0.964433 . .
H13_17 H 0.112534 0.888512 0.827728 . .
H32_17 H 0.265251 0.949654 0.92104 . .
H33_17 H 0.256585 0.909527 0.904528 . .
H34_17 H 0.225124 0.92069 0.901616 . .
H41_17 H 0.0812031 0.826465 0.82926 . .
C4_17 C 0.972857 0.816611 0.059068 0.0127 Uiso
C7_17 C 0.966687 0.763862 0.099843 0.0127 Uiso
N7_17 N 0.943033 0.738811 0.107175 0.0127 Uiso
N6_17 N 0.996004 0.771221 0.996364 0.0127 Uiso
C55_17 C 0.991400 0.746253 0.894704 0.0127 Uiso
H26_17 H 0.980424 0.905147 0.987059 . .
H36_17 H 0.987421 0.74811 0.927591 . .
H37_17 H 0.969024 0.74087 0.877596 . .
H38_17 H 0.996963 0.726322 0.889703 . .
H39_17 H 0.990788 0.938154 0.921015 . .
Nb1_18 Nb 0.188839 0.200294 0.087775 0.0063 Uiso
C1_18 C 0.153285 0.196723 0.041964 0.0127 Uiso
C2_18 C 0.220302 0.253194 0.090973 0.0127 Uiso
C3_18 C 0.197087 0.202571 0.153948 0.0127 Uiso
C4_18 C 0.183389 0.156247 0.059068 0.0127 Uiso
C5_18 C 0.159711 0.220204 0.115465 0.0127 Uiso
C6_18 C 0.215074 0.216037 0.027923 0.0127 Uiso
C7_18 C 0.236138 0.202826 0.099843 0.0127 Uiso
C8_18 C 0.145347 0.156863 0.113393 0.0127 Uiso
N1_18 N 0.133916 0.195374 0.019247 0.0127 Uiso
N5_18 N 0.145328 0.232035 0.130629 0.0127 Uiso
N7_18 N 0.261189 0.204223 0.107175 0.0127 Uiso
N8_18 N 0.122290 0.133858 0.126503 0.0127 Uiso
N9_18 N 0.060830 0.167394 0.046012 0.0127 Uiso
N10_18 N 0.099634 0.237839 0.010815 0.0127 Uiso
C9_18 C 0.070783 0.156550 0.078850 0.0127 Uiso
C10_18 C 0.030627 0.165082 0.048785 0.0127 Uiso
C12_18 C 0.118557 0.251988 0.044745 0.0127 Uiso
C25_18 C 0.052062 0.143312 0.115150 0.0127 Uiso
C26_18 C 0.010655 0.152147 0.084041 0.0127 Uiso
C27_18 C 0.091093 0.284571 0.006002 0.0127 Uiso
C28_18 C 0.124390 0.282554 0.060328 0.0127 Uiso
O1_18 O 0.063144 0.132483 0.148190 0.0127 Uiso
C41_18 C 0.021375 0.140963 0.118101 0.0127 Uiso
C42_18 C 0.110770 0.299171 0.041206 0.0127 Uiso
N28_18 N 0.003996 0.228779 0.003636 0.0127 Uiso
C115_18 C 0.008600 0.253747 0.105296 0.0127 Uiso
H1_18 H 0.0950005 0.158181 0.0770635 . .
H4_18 H 0.0216395 0.173496 0.0229382 . .
H5_18 H 0.106035 0.130069 0.0125125 . .
H6_18 H 0.129645 0.239126 0.0604892 . .
H9_18 H 0.0842713 0.151274 0.158919 . .
H10_18 H 0.00599218 0.130868 0.145645 . .
H21_18 H 0.139815 0.293115 0.0877479 . .
H27_18 H 0.115044 0.323011 0.0529083 . .
H89_18 H 0.00303677 0.273678 0.110297 . .
H90_18 H 0.0309765 0.25913 0.122404 . .
H91_18 H 0.0125788 0.25189 0.072409 . .
H93_18 H 0.0195763 0.0948534 0.0129414 . .
H99_18 H 0.009212 0.0618461 0.0789847 . .
N6_18 N 0.228779 0.224784 0.996364 0.0127 Uiso
Fe1_18 Fe 0.091306 0.188699 0.987674 0.0063 Uiso
N11_18 N 0.121705 0.213046 0.929125 0.0127 Uiso
N12_18 N 0.081170 0.138595 0.964475 0.0127 Uiso
C11_18 C 0.086052 0.254383 0.991799 0.0127 Uiso
C13_18 C 0.153939 0.229008 0.929987 0.0127 Uiso
C14_18 C 0.107870 0.212152 0.891285 0.0127 Uiso
C15_18 C 0.063524 0.126280 0.929152 0.0127 Uiso
C16_18 C 0.091813 0.120278 0.984071 0.0127 Uiso
C29_18 C 0.172578 0.243927 0.894446 0.0127 Uiso
C30_18 C 0.124823 0.226143 0.856345 0.0127 Uiso
C31_18 C 0.056570 0.096277 0.913608 0.0127 Uiso
C32_18 C 0.085670 0.089320 0.970026 0.0127 Uiso
O2_18 O 0.075417 0.297998 0.982886 0.0127 Uiso
O3_18 O 0.208103 0.261204 0.897352 0.0127 Uiso
C43_18 C 0.158673 0.242965 0.856757 0.0127 Uiso
O4_18 O 0.036640 0.085175 0.873860 0.0127 Uiso
C44_18 C 0.067375 0.076696 0.933425 0.0127 Uiso
C49_18 C 0.089656 0.324801 0.962133 0.0127 Uiso
C50_18 C 0.220554 0.241379 0.879451 0.0127 Uiso
C51_18 C 0.008414 0.064023 0.883338 0.0127 Uiso
O9_18 O 0.113480 0.351568 0.976655 0.0127 Uiso
C54_18 C 0.076564 0.322841 0.919454 0.0127 Uiso
O10_18 O 0.204761 0.221330 0.851867 0.0127 Uiso
C55_18 C 0.253747 0.245148 0.894704 0.0127 Uiso
N17_18 N 0.048070 0.181556 0.957572 0.0127 Uiso
C59_18 C 0.027143 0.183389 0.940932 0.0127 Uiso
C81_18 C 0.033313 0.236138 0.900157 0.0127 Uiso
N29_18 N 0.056967 0.261189 0.892825 0.0127 Uiso
H2_18 H 0.0808061 0.198959 0.889414 . .
H3_18 H 0.166722 0.230815 0.958979 . .
H7_18 H 0.0546453 0.140842 0.912718 . .
H8_18 H 0.0706775 0.243421 0.964433 . .
H13_18 H 0.111488 0.224022 0.827728 . .
H26_18 H 0.0948534 0.0752772 0.987059 . .
H32_18 H 0.0503463 0.315597 0.92104 . .
H33_18 H 0.0904735 0.347059 0.904528 . .
H34_18 H 0.0793097 0.304434 0.901616 . .
H36_18 H 0.25189 0.239312 0.927591 . .
H37_18 H 0.25913 0.228154 0.877596 . .
H38_18 H 0.273678 0.270641 0.889703 . .
H39_18 H 0.0618461 0.0526341 0.921015 . .
H41_18 H 0.173535 0.254738 0.82926 . .
N33_18 N 0.908660 0.121705 0.070875 0.0127 Uiso
N34_18 N 0.942576 0.081170 0.035525 0.0127 Uiso
C93_18 C 0.831670 0.086052 0.008201 0.0127 Uiso
C95_18 C 0.924932 0.153939 0.070013 0.0127 Uiso
C96_18 C 0.895719 0.107870 0.108715 0.0127 Uiso
C97_18 C 0.937245 0.063524 0.070848 0.0127 Uiso
C98_18 C 0.971536 0.091813 0.015929 0.0127 Uiso
C103_18 C 0.928652 0.172578 0.105554 0.0127 Uiso
C104_18 C 0.898681 0.124823 0.143655 0.0127 Uiso
C105_18 C 0.960294 0.056570 0.086392 0.0127 Uiso
C106_18 C 0.996351 0.085670 0.029974 0.0127 Uiso
O21_18 O 0.777420 0.075417 0.017114 0.0127 Uiso
O22_18 O 0.946900 0.208103 0.102648 0.0127 Uiso
C109_18 C 0.915709 0.158673 0.143243 0.0127 Uiso
O23_18 O 0.951466 0.036640 0.126140 0.0127 Uiso
C110_18 C 0.990680 0.067375 0.066575 0.0127 Uiso
C111_18 C 0.764856 0.089656 0.037867 0.0127 Uiso
C112_18 C 0.979176 0.220554 0.120549 0.0127 Uiso
C113_18 C 0.944392 0.008414 0.116662 0.0127 Uiso
O24_18 O 0.761913 0.113480 0.023345 0.0127 Uiso
C114_18 C 0.753724 0.076564 0.080546 0.0127 Uiso
O25_18 O 0.983432 0.204761 0.148133 0.0127 Uiso
H23_18 H 0.986506 0.150709 0.0851567 . .
H70_18 H 0.827257 0.0706775 0.0355668 . .
H71_18 H 0.913803 0.0546453 0.0872816 . .
H72_18 H 0.881847 0.0808061 0.110586 . .
H77_18 H 0.935907 0.166722 0.0410213 . .
H85_18 H 0.774876 0.0793097 0.0983835 . .
H86_18 H 0.743415 0.0904735 0.0954719 . .
H87_18 H 0.734749 0.0503463 0.0789601 . .
H92_18 H 0.887466 0.111488 0.172272 . .
H98_18 H 0.918797 0.173535 0.17074 . .
O11_18 O 0.996830 0.049945 0.913497 0.0127 Uiso
C56_18 C 0.985952 0.056586 0.845083 0.0127 Uiso
Nb2_18 Nb 0.988546 0.188839 0.912225 0.0063 Uiso
C76_18 C 0.956563 0.153285 0.958036 0.0127 Uiso
C77_18 C 0.967109 0.220302 0.909027 0.0127 Uiso
C78_18 C 0.994517 0.197087 0.846052 0.0127 Uiso
C79_18 C 0.939508 0.159711 0.884535 0.0127 Uiso
C80_18 C 0.999038 0.215074 0.972077 0.0127 Uiso
C82_18 C 0.988485 0.145347 0.886607 0.0127 Uiso
N24_18 N 0.938543 0.133916 0.980753 0.0127 Uiso
N25_18 N 0.955815 0.237484 0.908819 0.0127 Uiso
N26_18 N 0.996196 0.199747 0.810169 0.0127 Uiso
N27_18 N 0.913294 0.145328 0.869371 0.0127 Uiso
N30_18 N 0.988433 0.122290 0.873497 0.0127 Uiso
N31_18 N 0.893437 0.060830 0.953988 0.0127 Uiso
N32_18 N 0.861796 0.099634 0.989185 0.0127 Uiso
C91_18 C 0.914234 0.070783 0.921150 0.0127 Uiso
C92_18 C 0.865546 0.030627 0.951215 0.0127 Uiso
C94_18 C 0.866570 0.118557 0.955255 0.0127 Uiso
C99_18 C 0.908751 0.052062 0.884850 0.0127 Uiso
C100_18 C 0.858509 0.010655 0.915959 0.0127 Uiso
C101_18 C 0.806523 0.091093 0.993998 0.0127 Uiso
C102_18 C 0.841837 0.124390 0.939672 0.0127 Uiso
O20_18 O 0.930662 0.063144 0.851810 0.0127 Uiso
C107_18 C 0.880413 0.021375 0.881899 0.0127 Uiso
C108_18 C 0.811600 0.110770 0.958794 0.0127 Uiso
H42_18 H 0.995046 0.0475336 0.820037 . .
H43_18 H 0.960561 0.0377091 0.85287 . .
H44_18 H 0.986368 0.0792558 0.835292 . .
H69_18 H 0.936819 0.0950005 0.922936 . .
H76_18 H 0.890519 0.129645 0.939511 . .
H79_18 H 0.975966 0.106035 0.987488 . .
H80_18 H 0.848144 0.0216395 0.977062 . .
H84_18 H 0.875124 0.00599218 0.854355 . .
H88_18 H 0.792032 0.115044 0.947092 . .
H97_18 H 0.8467 0.139815 0.912252 . .
H100_18 H 0.952723 0.0670063 0.861099 . .
O26_18 O 0.946886 0.996830 0.086503 0.0127 Uiso
C116_18 C 0.929367 0.985952 0.154917 0.0127 Uiso
H94_18 H 0.907112 0.986368 0.164708 . .
H95_18 H 0.922851 0.960561 0.14713 . .
H96_18 H 0.947513 0.995046 0.179963 . .
H78_18 H 0.835796 0.986506 0.914843 . .
N15_10 N 0.631812 0.486717 0.078237 0.0127 Uiso
N16_10 N 0.631289 0.548301 0.079451 0.0127 Uiso
C21_10 C 0.603960 0.472472 0.101698 0.0127 Uiso
C22_10 C 0.635971 0.467058 0.050158 0.0127 Uiso
C23_10 C 0.607322 0.535725 0.049690 0.0127 Uiso
C24_10 C 0.630542 0.570339 0.106732 0.0127 Uiso
C33_10 C 0.797386 0.643769 0.003500 0.0127 Uiso
C34_10 C 0.818497 0.701124 0.013039 0.0127 Uiso
C35_10 C 0.697059 0.699441 0.021677 0.0127 Uiso
C37_10 C 0.580658 0.439386 0.097499 0.0127 Uiso
C38_10 C 0.613210 0.433846 0.045035 0.0127 Uiso
C39_10 C 0.583209 0.544472 0.046729 0.0127 Uiso
C40_10 C 0.607082 0.579694 0.104924 0.0127 Uiso
O5_10 O 0.797641 0.615335 0.012818 0.0127 Uiso
C45_10 C 0.819518 0.673439 0.023121 0.0127 Uiso
O6_10 O 0.710856 0.726532 0.047622 0.0127 Uiso
C46_10 C 0.663689 0.675024 0.025691 0.0127 Uiso
O7_10 O 0.552230 0.426094 0.122863 0.0127 Uiso
C47_10 C 0.584926 0.419473 0.068988 0.0127 Uiso
O8_10 O 0.559729 0.529685 0.014520 0.0127 Uiso
C48_10 C 0.582527 0.566850 0.074519 0.0127 Uiso
C52_10 C 0.523694 0.423041 0.106082 0.0127 Uiso
O12_10 O 0.522135 0.429366 0.069874 0.0127 Uiso
C57_10 C 0.493035 0.411388 0.133598 0.0127 Uiso
N21_10 N 0.701521 0.521572 0.088430 0.0127 Uiso
N22_10 N 0.702044 0.583679 0.087216 0.0127 Uiso
C64_10 C 0.729373 0.535179 0.064969 0.0127 Uiso
C65_10 C 0.697362 0.497754 0.116509 0.0127 Uiso
C66_10 C 0.726011 0.595070 0.116977 0.0127 Uiso
C67_10 C 0.702791 0.606464 0.059935 0.0127 Uiso
C72_10 C 0.752675 0.525395 0.069168 0.0127 Uiso
C73_10 C 0.720123 0.487303 0.121632 0.0127 Uiso
C74_10 C 0.750124 0.627930 0.119938 0.0127 Uiso
C75_10 C 0.726251 0.639279 0.061743 0.0127 Uiso
O16_10 O 0.781103 0.540531 0.043804 0.0127 Uiso
C85_10 C 0.748407 0.501214 0.097679 0.0127 Uiso
O17_10 O 0.773604 0.636623 0.152147 0.0127 Uiso
C86_10 C 0.750806 0.650990 0.092148 0.0127 Uiso
C87_10 C 0.809639 0.566014 0.060585 0.0127 Uiso
C88_10 C 0.778814 0.662011 0.177959 0.0127 Uiso
O18_10 O 0.811198 0.573898 0.096793 0.0127 Uiso
C89_10 C 0.840298 0.585020 0.033069 0.0127 Uiso
O19_10 O 0.755624 0.661688 0.195191 0.0127 Uiso
C90_10 C 0.814116 0.689537 0.183434 0.0127 Uiso
H12_10 H 0.599938 0.48751 0.124329 . .
H14_10 H 0.835609 0.724592 0.0280435 . .
H15_10 H 0.617529 0.419095 0.0222756 . .
H17_10 H 0.658285 0.478188 0.0310132 . .
H19_10 H 0.649434 0.580838 0.130863 . .
H22_10 H 0.6075 0.597374 0.127437 . .
H24_10 H 0.6073 0.518081 0.0274317 . .
H25_10 H 0.624632 0.628473 0.00121138 . .
H28_10 H 0.648139 0.677101 0.0494078 . .
H29_10 H 0.566415 0.393222 0.0656732 . .
H30_10 H 0.563569 0.574103 0.0726697 . .
H31_10 H 0.775522 0.598547 0.0238033 . .
H35_10 H 0.837173 0.674274 0.0459851 . .
H40_10 H 0.729578 0.727066 0.0631854 . .
H45_10 H 0.485545 0.386734 0.145775 . .
H46_10 H 0.472752 0.41036 0.115458 . .
H47_10 H 0.498963 0.428767 0.159166 . .
H50_10 H 0.509097 0.543555 0.013071 . .
H52_10 H 0.733395 0.554239 0.042338 . .
H54_10 H 0.725834 0.656541 0.0392299 . .
H55_10 H 0.726033 0.577448 0.139235 . .
H57_10 H 0.766918 0.493474 0.100993 . .
H58_10 H 0.675049 0.48657 0.135653 . .
H60_10 H 0.715804 0.468232 0.144391 . .
H63_10 H 0.6839 0.598071 0.0358034 . .
H64_10 H 0.769764 0.677201 0.0939969 . .
H73_10 H 0.828976 0.679387 0.195995 . .
H74_10 H 0.814753 0.708073 0.204684 . .
H75_10 H 0.824236 0.701124 0.153596 . .
H81_10 H 0.847789 0.567856 0.0208916 . .
H82_10 H 0.860581 0.604274 0.0512082 . .
H83_10 H 0.83437 0.596471 0.00750062 . .
N13_10 N 0.774491 0.671948 0.964543 0.0127 Uiso
N14_10 N 0.703463 0.669711 0.964982 0.0127 Uiso
C17_10 C 0.775584 0.644371 0.974749 0.0127 Uiso
C18_10 C 0.795850 0.700336 0.983620 0.0127 Uiso
C19_10 C 0.715863 0.695700 0.990993 0.0127 Uiso
C20_10 C 0.671047 0.646185 0.969230 0.0127 Uiso
C36_10 C 0.650613 0.647959 0.998853 0.0127 Uiso
C53_10 C 0.554519 0.549863 0.988708 0.0127 Uiso
O13_10 O 0.577709 0.572730 0.971476 0.0127 Uiso
C58_10 C 0.519217 0.542087 0.983233 0.0127 Uiso
N18_10 N 0.769210 0.661385 0.868790 0.0127 Uiso
N19_10 N 0.700419 0.663622 0.868351 0.0127 Uiso
C60_10 C 0.797880 0.688962 0.858584 0.0127 Uiso
C61_10 C 0.762181 0.632997 0.849713 0.0127 Uiso
C62_10 C 0.686830 0.637633 0.842340 0.0127 Uiso
C63_10 C 0.691529 0.687148 0.864103 0.0127 Uiso
C68_10 C 0.820284 0.689564 0.829833 0.0127 Uiso
C69_10 C 0.784040 0.632209 0.820294 0.0127 Uiso
C70_10 C 0.664285 0.633892 0.811656 0.0127 Uiso
C71_10 C 0.669321 0.685374 0.834480 0.0127 Uiso
O14_10 O 0.848973 0.717998 0.820515 0.0127 Uiso
C83_10 C 0.812746 0.659894 0.810212 0.0127 Uiso
O15_10 O 0.650991 0.606801 0.785711 0.0127 Uiso
C84_10 C 0.655332 0.658309 0.807642 0.0127 Uiso
H9_19 H 0.733669 0.484607 0.992252 . .
H11_10 H 0.795656 0.723142 0.976214 . .
H16_10 H 0.660646 0.624917 0.948329 . .
H18_10 H 0.741938 0.714786 0.987892 . .
H20_10 H 0.758259 0.62113 0.959449 . .
H48_10 H 0.504357 0.517078 0.970672 . .
H49_10 H 0.51858 0.559986 0.961983 . .
H51_10 H 0.803795 0.712203 0.873885 . .
H53_10 H 0.693819 0.618548 0.845441 . .
H56_10 H 0.843641 0.734786 0.80953 . .
H59_10 H 0.829566 0.659059 0.787348 . .
H61_10 H 0.669179 0.606267 0.770148 . .
H62_10 H 0.637705 0.656233 0.783926 . .
H65_10 H 0.739181 0.610191 0.857119 . .
H66_10 H 0.702396 0.708417 0.885005 . .
H67_10 H 0.777684 0.608741 0.80529 . .
H68_10 H 0.662826 0.704861 0.832122 . .
H100_19 H 0.78095 0.40034 0.694432 . .
N15_11 N 0.513283 0.145095 0.078237 0.0127 Uiso
N16_11 N 0.451699 0.082988 0.079451 0.0127 Uiso
C21_11 C 0.527528 0.131488 0.101698 0.0127 Uiso
C22_11 C 0.532942 0.168913 0.050158 0.0127 Uiso
C23_11 C 0.464275 0.071597 0.049690 0.0127 Uiso
C24_11 C 0.429661 0.060203 0.106732 0.0127 Uiso
C33_11 C 0.356231 0.153617 0.003500 0.0127 Uiso
C34_11 C 0.298876 0.117373 0.013039 0.0127 Uiso
C37_11 C 0.560614 0.141272 0.097499 0.0127 Uiso
C38_11 C 0.566154 0.179364 0.045035 0.0127 Uiso
C39_11 C 0.455528 0.038737 0.046729 0.0127 Uiso
C40_11 C 0.420306 0.027388 0.104924 0.0127 Uiso
O5_11 O 0.384665 0.182306 0.012818 0.0127 Uiso
C45_11 C 0.326561 0.146079 0.023121 0.0127 Uiso
O7_11 O 0.573906 0.126136 0.122863 0.0127 Uiso
C47_11 C 0.580527 0.165453 0.068988 0.0127 Uiso
O8_11 O 0.470315 0.030044 0.014520 0.0127 Uiso
C48_11 C 0.433150 0.015677 0.074519 0.0127 Uiso
C52_11 C 0.576959 0.100653 0.106082 0.0127 Uiso
O12_11 O 0.570634 0.092769 0.069874 0.0127 Uiso
C57_11 C 0.588612 0.081647 0.133598 0.0127 Uiso
N21_11 N 0.478428 0.179950 0.088430 0.0127 Uiso
N22_11 N 0.416321 0.118366 0.087216 0.0127 Uiso
C64_11 C 0.464821 0.194195 0.064969 0.0127 Uiso
C65_11 C 0.502246 0.199609 0.116509 0.0127 Uiso
C66_11 C 0.404930 0.130942 0.116977 0.0127 Uiso
C67_11 C 0.393536 0.096328 0.059935 0.0127 Uiso
C72_11 C 0.474605 0.227281 0.069168 0.0127 Uiso
C73_11 C 0.512697 0.232821 0.121632 0.0127 Uiso
C74_11 C 0.372070 0.122195 0.119938 0.0127 Uiso
C75_11 C 0.360721 0.086973 0.061743 0.0127 Uiso
O16_11 O 0.459469 0.240573 0.043804 0.0127 Uiso
C85_11 C 0.498786 0.247194 0.097679 0.0127 Uiso
O17_11 O 0.363377 0.136982 0.152147 0.0127 Uiso
C86_11 C 0.349010 0.099817 0.092148 0.0127 Uiso
C87_11 C 0.433986 0.243626 0.060585 0.0127 Uiso
C88_11 C 0.337989 0.116804 0.177959 0.0127 Uiso
O18_11 O 0.426102 0.237301 0.096793 0.0127 Uiso
C89_11 C 0.414980 0.255279 0.033069 0.0127 Uiso
O19_11 O 0.338312 0.093937 0.195191 0.0127 Uiso
C90_11 C 0.310463 0.124580 0.183434 0.0127 Uiso
H12_11 H 0.51249 0.112428 0.124329 . .
H14_11 H 0.275408 0.111017 0.0280435 . .
H15_11 H 0.580905 0.198435 0.0222756 . .
H17_11 H 0.521812 0.180096 0.0310132 . .
H19_11 H 0.419162 0.068596 0.130863 . .
H22_11 H 0.402626 0.0101252 0.127437 . .
H24_11 H 0.481919 0.0892188 0.0274317 . .
H29_11 H 0.606778 0.173193 0.0656732 . .
H31_11 H 0.401453 0.176974 0.0238033 . .
H35_11 H 0.325726 0.162899 0.0459851 . .
H40_11 H 0.272934 0.00251212 0.0631854 . .
H45_11 H 0.613266 0.0988106 0.145775 . .
H46_11 H 0.58964 0.0623922 0.115458 . .
H47_11 H 0.571233 0.0701961 0.159166 . .
H52_11 H 0.445761 0.179157 0.042338 . .
H54_11 H 0.343459 0.0692923 0.0392299 . .
H55_11 H 0.422552 0.148585 0.139235 . .
H57_11 H 0.506526 0.273445 0.100993 . .
H58_11 H 0.51343 0.188478 0.135653 . .
H60_11 H 0.531768 0.247572 0.144391 . .
H63_11 H 0.401929 0.0858291 0.0358034 . .
H64_11 H 0.322799 0.0925635 0.0939969 . .
H73_11 H 0.320613 0.149589 0.195995 . .
H74_11 H 0.291927 0.10668 0.204684 . .
H75_11 H 0.298876 0.123112 0.153596 . .
H81_11 H 0.432144 0.279933 0.0208916 . .
H82_11 H 0.395726 0.256307 0.0512082 . .
H83_11 H 0.403529 0.2379 0.00750062 . .
N13_11 N 0.328052 0.102543 0.964543 0.0127 Uiso
N14_11 N 0.330289 0.033752 0.964982 0.0127 Uiso
C17_11 C 0.355629 0.131213 0.974749 0.0127 Uiso
C18_11 C 0.299664 0.095514 0.983620 0.0127 Uiso
C19_11 C 0.304300 0.020163 0.990993 0.0127 Uiso
C20_11 C 0.353815 0.024862 0.969230 0.0127 Uiso
C36_11 C 0.352041 0.002654 0.998853 0.0127 Uiso
C53_11 C 0.450137 0.004656 0.988708 0.0127 Uiso
O13_11 O 0.427270 0.004979 0.971476 0.0127 Uiso
N18_11 N 0.338615 0.107824 0.868790 0.0127 Uiso
N19_11 N 0.336378 0.036796 0.868351 0.0127 Uiso
C60_11 C 0.311038 0.108917 0.858584 0.0127 Uiso
C61_11 C 0.367003 0.129183 0.849713 0.0127 Uiso
C62_11 C 0.362367 0.049196 0.842340 0.0127 Uiso
C63_11 C 0.312852 0.004380 0.864103 0.0127 Uiso
C68_11 C 0.310436 0.130719 0.829833 0.0127 Uiso
C69_11 C 0.367791 0.151830 0.820294 0.0127 Uiso
C70_11 C 0.366108 0.030392 0.811656 0.0127 Uiso
O14_11 O 0.282002 0.130974 0.820515 0.0127 Uiso
C83_11 C 0.340106 0.152851 0.810212 0.0127 Uiso
O15_11 O 0.393199 0.044189 0.785711 0.0127 Uiso
H9_20 H 0.515393 0.249062 0.992252 . .
H11_11 H 0.276858 0.0725141 0.976214 . .
H16_11 H 0.375083 0.0357292 0.948329 . .
H18_11 H 0.285214 0.0271521 0.987892 . .
H20_11 H 0.37887 0.137128 0.959449 . .
H51_11 H 0.287797 0.0915922 0.873885 . .
H53_11 H 0.381452 0.0752711 0.845441 . .
H56_11 H 0.265214 0.108855 0.80953 . .
H59_11 H 0.340941 0.170506 0.787348 . .
H61_11 H 0.393733 0.0629118 0.770148 . .
H65_11 H 0.389809 0.128989 0.857119 . .
H67_11 H 0.391259 0.168942 0.80529 . .
H100_20 H 0.59966 0.38061 0.694432 . .
C35_11 C 0.300559 0.997618 0.021677 0.0127 Uiso
O6_11 O 0.273468 0.984324 0.047622 0.0127 Uiso
C46_11 C 0.324976 0.988665 0.025691 0.0127 Uiso
H25_11 H 0.371527 0.996159 0.00121138 . .
H28_11 H 0.322899 0.971039 0.0494078 . .
H30_11 H 0.425897 0.989466 0.0726697 . .
H50_11 H 0.456445 0.965542 0.013071 . .
C58_11 C 0.457913 0.977130 0.983233 0.0127 Uiso
C71_11 C 0.314626 0.983946 0.834480 0.0127 Uiso
C84_11 C 0.341691 0.997022 0.807642 0.0127 Uiso
H48_11 H 0.482922 0.98728 0.970672 . .
H49_11 H 0.440014 0.958594 0.961983 . .
H62_11 H 0.343767 0.981473 0.783926 . .
H66_11 H 0.291583 0.993979 0.885005 . .
H68_11 H 0.295139 0.957965 0.832122 . .
C35_12 C 0.002382 0.302941 0.021677 0.0127 Uiso
O6_12 O 0.015676 0.289144 0.047622 0.0127 Uiso
C46_12 C 0.011335 0.336311 0.025691 0.0127 Uiso
H25_12 H 0.00384105 0.375368 0.00121138 . .
H28_12 H 0.0289613 0.351861 0.0494078 . .
H30_12 H 0.0105339 0.436431 0.0726697 . .
H50_12 H 0.0344577 0.490903 0.013071 . .
C58_12 C 0.022870 0.480783 0.983233 0.0127 Uiso
C71_12 C 0.016054 0.330679 0.834480 0.0127 Uiso
C84_12 C 0.002978 0.344668 0.807642 0.0127 Uiso
H48_12 H 0.0127202 0.495643 0.970672 . .
H49_12 H 0.0414062 0.48142 0.961983 . .
H62_12 H 0.0185274 0.362295 0.783926 . .
H66_12 H 0.00602085 0.297604 0.885005 . .
H68_12 H 0.0420351 0.337174 0.832122 . .
N15_12 N 0.854905 0.368188 0.078237 0.0127 Uiso
N16_12 N 0.917012 0.368711 0.079451 0.0127 Uiso
C21_12 C 0.868512 0.396040 0.101698 0.0127 Uiso
C22_12 C 0.831087 0.364029 0.050158 0.0127 Uiso
C23_12 C 0.928403 0.392678 0.049690 0.0127 Uiso
C24_12 C 0.939797 0.369458 0.106732 0.0127 Uiso
C33_12 C 0.846383 0.202614 0.003500 0.0127 Uiso
C34_12 C 0.882627 0.181503 0.013039 0.0127 Uiso
C37_12 C 0.858728 0.419342 0.097499 0.0127 Uiso
C38_12 C 0.820636 0.386790 0.045035 0.0127 Uiso
C39_12 C 0.961263 0.416791 0.046729 0.0127 Uiso
C40_12 C 0.972612 0.392918 0.104924 0.0127 Uiso
O5_12 O 0.817694 0.202359 0.012818 0.0127 Uiso
C45_12 C 0.853921 0.180482 0.023121 0.0127 Uiso
O7_12 O 0.873864 0.447770 0.122863 0.0127 Uiso
C47_12 C 0.834547 0.415074 0.068988 0.0127 Uiso
O8_12 O 0.969956 0.440271 0.014520 0.0127 Uiso
C48_12 C 0.984323 0.417473 0.074519 0.0127 Uiso
C52_12 C 0.899347 0.476306 0.106082 0.0127 Uiso
O12_12 O 0.907231 0.477865 0.069874 0.0127 Uiso
C57_12 C 0.918353 0.506965 0.133598 0.0127 Uiso
N21_12 N 0.820050 0.298479 0.088430 0.0127 Uiso
N22_12 N 0.881634 0.297956 0.087216 0.0127 Uiso
C64_12 C 0.805805 0.270627 0.064969 0.0127 Uiso
C65_12 C 0.800391 0.302638 0.116509 0.0127 Uiso
C66_12 C 0.869058 0.273989 0.116977 0.0127 Uiso
C67_12 C 0.903672 0.297209 0.059935 0.0127 Uiso
C72_12 C 0.772719 0.247325 0.069168 0.0127 Uiso
C73_12 C 0.767179 0.279877 0.121632 0.0127 Uiso
C74_12 C 0.877805 0.249876 0.119938 0.0127 Uiso
C75_12 C 0.913027 0.273749 0.061743 0.0127 Uiso
O16_12 O 0.759427 0.218897 0.043804 0.0127 Uiso
C85_12 C 0.752806 0.251593 0.097679 0.0127 Uiso
O17_12 O 0.863018 0.226396 0.152147 0.0127 Uiso
C86_12 C 0.900183 0.249194 0.092148 0.0127 Uiso
C87_12 C 0.756374 0.190361 0.060585 0.0127 Uiso
C88_12 C 0.883196 0.221186 0.177959 0.0127 Uiso
O18_12 O 0.762699 0.188802 0.096793 0.0127 Uiso
C89_12 C 0.744721 0.159702 0.033069 0.0127 Uiso
O19_12 O 0.906063 0.244376 0.195191 0.0127 Uiso
C90_12 C 0.875420 0.185884 0.183434 0.0127 Uiso
H12_12 H 0.887572 0.400062 0.124329 . .
H14_12 H 0.888983 0.164391 0.0280435 . .
H15_12 H 0.801565 0.382471 0.0222756 . .
H17_12 H 0.819904 0.341715 0.0310132 . .
H19_12 H 0.931404 0.350566 0.130863 . .
H22_12 H 0.989875 0.3925 0.127437 . .
H24_12 H 0.910781 0.3927 0.0274317 . .
H29_12 H 0.826807 0.433585 0.0656732 . .
H31_12 H 0.823026 0.224478 0.0238033 . .
H35_12 H 0.837101 0.162827 0.0459851 . .
H40_12 H 0.997488 0.270422 0.0631854 . .
H45_12 H 0.901189 0.514455 0.145775 . .
H46_12 H 0.937608 0.527248 0.115458 . .
H47_12 H 0.929804 0.501037 0.159166 . .
H52_12 H 0.820843 0.266605 0.042338 . .
H54_12 H 0.930708 0.274166 0.0392299 . .
H55_12 H 0.851415 0.273967 0.139235 . .
H57_12 H 0.726555 0.233082 0.100993 . .
H58_12 H 0.811522 0.324951 0.135653 . .
H60_12 H 0.752428 0.284196 0.144391 . .
H63_12 H 0.914171 0.3161 0.0358034 . .
H64_12 H 0.907437 0.230236 0.0939969 . .
H73_12 H 0.850411 0.171024 0.195995 . .
H74_12 H 0.89332 0.185247 0.204684 . .
H75_12 H 0.876888 0.175764 0.153596 . .
H81_12 H 0.720067 0.152211 0.0208916 . .
H82_12 H 0.743693 0.139419 0.0512082 . .
H83_12 H 0.7621 0.16563 0.00750062 . .
N13_12 N 0.897457 0.225509 0.964543 0.0127 Uiso
N14_12 N 0.966248 0.296537 0.964982 0.0127 Uiso
C17_12 C 0.868787 0.224416 0.974749 0.0127 Uiso
C18_12 C 0.904486 0.204150 0.983620 0.0127 Uiso
C19_12 C 0.979837 0.284137 0.990993 0.0127 Uiso
C20_12 C 0.975138 0.328953 0.969230 0.0127 Uiso
C36_12 C 0.997346 0.349387 0.998853 0.0127 Uiso
C53_12 C 0.995344 0.445481 0.988708 0.0127 Uiso
O13_12 O 0.995021 0.422291 0.971476 0.0127 Uiso
N18_12 N 0.892176 0.230790 0.868790 0.0127 Uiso
N19_12 N 0.963204 0.299581 0.868351 0.0127 Uiso
C60_12 C 0.891083 0.202120 0.858584 0.0127 Uiso
C61_12 C 0.870817 0.237819 0.849713 0.0127 Uiso
C62_12 C 0.950804 0.313170 0.842340 0.0127 Uiso
C63_12 C 0.995620 0.308471 0.864103 0.0127 Uiso
C68_12 C 0.869281 0.179716 0.829833 0.0127 Uiso
C69_12 C 0.848170 0.215960 0.820294 0.0127 Uiso
C70_12 C 0.969608 0.335715 0.811656 0.0127 Uiso
O14_12 O 0.869026 0.151027 0.820515 0.0127 Uiso
C83_12 C 0.847149 0.187254 0.810212 0.0127 Uiso
O15_12 O 0.955811 0.349009 0.785711 0.0127 Uiso
H9_21 H 0.750938 0.266331 0.992252 . .
H11_12 H 0.927486 0.204344 0.976214 . .
H16_12 H 0.964271 0.339354 0.948329 . .
H18_12 H 0.972848 0.258062 0.987892 . .
H20_12 H 0.862872 0.241741 0.959449 . .
H51_12 H 0.908408 0.196205 0.873885 . .
H53_12 H 0.924729 0.306181 0.845441 . .
H56_12 H 0.891145 0.156359 0.80953 . .
H59_12 H 0.829494 0.170434 0.787348 . .
H61_12 H 0.937088 0.330821 0.770148 . .
H65_12 H 0.871011 0.260819 0.857119 . .
H67_12 H 0.831058 0.222316 0.80529 . .
H100_21 H 0.61939 0.21905 0.694432 . .
N13_13 N 0.441158 0.005281 0.297876 0.0127 Uiso
N14_13 N 0.370130 0.003044 0.298315 0.0127 Uiso
C18_13 C 0.462517 0.033669 0.316953 0.0127 Uiso
C19_13 C 0.382530 0.029033 0.324326 0.0127 Uiso
C34_13 C 0.485164 0.034457 0.346372 0.0127 Uiso
C35_13 C 0.363726 0.032774 0.355010 0.0127 Uiso
C45_13 C 0.486185 0.006772 0.356454 0.0127 Uiso
O6_13 O 0.377523 0.059865 0.380955 0.0127 Uiso
C46_13 C 0.330356 0.008357 0.359024 0.0127 Uiso
C60_13 C 0.464546 0.022296 0.191918 0.0127 Uiso
C63_13 C 0.358195 0.020482 0.197437 0.0127 Uiso
C68_13 C 0.486950 0.022898 0.163167 0.0127 Uiso
C71_13 C 0.335987 0.018708 0.167814 0.0127 Uiso
O14_13 O 0.515639 0.051332 0.153849 0.0127 Uiso
C90_13 C 0.480783 0.022870 0.516767 0.0127 Uiso
H11_13 H 0.462323 0.0564752 0.309548 . .
H14_13 H 0.502276 0.0579255 0.361377 . .
H18_13 H 0.408604 0.048119 0.321225 . .
H28_13 H 0.314806 0.0104339 0.382741 . .
H35_13 H 0.50384 0.00760729 0.379318 . .
H40_13 H 0.396245 0.0603997 0.396519 . .
H51_13 H 0.470462 0.0455363 0.207218 . .
H56_13 H 0.510308 0.0681192 0.142863 . .
H64_13 H 0.436431 0.0105339 0.42733 . .
H66_13 H 0.369063 0.04175 0.218338 . .
H68_13 H 0.329492 0.038194 0.165455 . .
H73_13 H 0.495643 0.0127202 0.529328 . .
H74_13 H 0.48142 0.0414062 0.538017 . .
H75_13 H 0.490903 0.0344577 0.486929 . .
N15_13 N 0.298479 0.820050 0.411570 0.0127 Uiso
N16_13 N 0.297956 0.881634 0.412784 0.0127 Uiso
C17_13 C 0.442251 0.977704 0.308082 0.0127 Uiso
C20_13 C 0.337714 0.979518 0.302563 0.0127 Uiso
C21_13 C 0.270627 0.805805 0.435031 0.0127 Uiso
C22_13 C 0.302638 0.800391 0.383491 0.0127 Uiso
C23_13 C 0.273989 0.869058 0.383023 0.0127 Uiso
C24_13 C 0.297209 0.903672 0.440065 0.0127 Uiso
C33_13 C 0.464053 0.977102 0.336833 0.0127 Uiso
C36_13 C 0.317280 0.981292 0.332186 0.0127 Uiso
C37_13 C 0.247325 0.772719 0.430832 0.0127 Uiso
C38_13 C 0.279877 0.767179 0.378368 0.0127 Uiso
C39_13 C 0.249876 0.877805 0.380062 0.0127 Uiso
C40_13 C 0.273749 0.913027 0.438257 0.0127 Uiso
O5_13 O 0.464308 0.948668 0.346151 0.0127 Uiso
O7_13 O 0.218897 0.759427 0.456196 0.0127 Uiso
C47_13 C 0.251593 0.752806 0.402321 0.0127 Uiso
O8_13 O 0.226396 0.863018 0.347853 0.0127 Uiso
C48_13 C 0.249194 0.900183 0.407852 0.0127 Uiso
C52_13 C 0.190361 0.756374 0.439415 0.0127 Uiso
C53_13 C 0.221186 0.883196 0.322041 0.0127 Uiso
O12_13 O 0.188802 0.762699 0.403207 0.0127 Uiso
C57_13 C 0.159702 0.744721 0.466931 0.0127 Uiso
O13_13 O 0.244376 0.906063 0.304809 0.0127 Uiso
C58_13 C 0.185884 0.875420 0.316566 0.0127 Uiso
N18_13 N 0.435876 0.994719 0.202124 0.0127 Uiso
N19_13 N 0.367085 0.996956 0.201685 0.0127 Uiso
N21_13 N 0.368188 0.854905 0.421763 0.0127 Uiso
N22_13 N 0.368711 0.917012 0.420549 0.0127 Uiso
C61_13 C 0.428847 0.966331 0.183047 0.0127 Uiso
C62_13 C 0.353496 0.970967 0.175674 0.0127 Uiso
C64_13 C 0.396040 0.868512 0.398302 0.0127 Uiso
C65_13 C 0.364029 0.831087 0.449842 0.0127 Uiso
C66_13 C 0.392678 0.928403 0.450310 0.0127 Uiso
C67_13 C 0.369458 0.939797 0.393268 0.0127 Uiso
C69_13 C 0.450706 0.965543 0.153628 0.0127 Uiso
C70_13 C 0.330951 0.967226 0.144990 0.0127 Uiso
C72_13 C 0.419342 0.858728 0.402501 0.0127 Uiso
C73_13 C 0.386790 0.820636 0.454965 0.0127 Uiso
C74_13 C 0.416791 0.961263 0.453271 0.0127 Uiso
C75_13 C 0.392918 0.972612 0.395076 0.0127 Uiso
C83_13 C 0.479412 0.993228 0.143546 0.0127 Uiso
O15_13 O 0.317657 0.940135 0.119045 0.0127 Uiso
C84_13 C 0.321998 0.991643 0.140976 0.0127 Uiso
O16_13 O 0.447770 0.873864 0.377137 0.0127 Uiso
C85_13 C 0.415074 0.834547 0.431012 0.0127 Uiso
O17_13 O 0.440271 0.969956 0.485480 0.0127 Uiso
C86_13 C 0.417473 0.984323 0.425481 0.0127 Uiso
C87_13 C 0.476306 0.899347 0.393918 0.0127 Uiso
C88_13 C 0.445481 0.995344 0.511292 0.0127 Uiso
O18_13 O 0.477865 0.907231 0.430126 0.0127 Uiso
C89_13 C 0.506965 0.918353 0.366402 0.0127 Uiso
O19_13 O 0.422291 0.995021 0.528524 0.0127 Uiso
H9_22 H 0.400336 0.81794 0.325585 . .
H12_13 H 0.266605 0.820843 0.457662 . .
H15_13 H 0.284196 0.752428 0.355609 . .
H16_13 H 0.327312 0.95825 0.281662 . .
H17_13 H 0.324951 0.811522 0.364347 . .
H19_13 H 0.3161 0.914171 0.464197 . .
H20_13 H 0.424926 0.954464 0.292782 . .
H22_13 H 0.274166 0.930708 0.46077 . .
H24_13 H 0.273967 0.851415 0.360765 . .
H25_13 H 0.291298 0.961806 0.334545 . .
H29_13 H 0.233082 0.726555 0.399007 . .
H30_13 H 0.230236 0.907437 0.406003 . .
H31_13 H 0.442189 0.931881 0.357137 . .
H45_13 H 0.152211 0.720067 0.479108 . .
H46_13 H 0.139419 0.743693 0.448792 . .
H47_13 H 0.16563 0.7621 0.492499 . .
H48_13 H 0.171024 0.850411 0.304005 . .
H49_13 H 0.185247 0.89332 0.295316 . .
H50_13 H 0.175764 0.876888 0.346404 . .
H52_13 H 0.400062 0.887572 0.375671 . .
H53_13 H 0.360485 0.951881 0.178775 . .
H54_13 H 0.3925 0.989875 0.372563 . .
H55_13 H 0.3927 0.910781 0.472568 . .
H57_13 H 0.433585 0.826807 0.434327 . .
H58_13 H 0.341715 0.819904 0.468987 . .
H59_13 H 0.496232 0.992393 0.120682 . .
H60_13 H 0.382471 0.801565 0.477724 . .
H61_13 H 0.335845 0.9396 0.103481 . .
H62_13 H 0.304372 0.989566 0.117259 . .
H63_13 H 0.350566 0.931404 0.369137 . .
H65_13 H 0.405847 0.943525 0.190452 . .
H67_13 H 0.44435 0.942075 0.138623 . .
H81_13 H 0.514455 0.901189 0.354225 . .
H82_13 H 0.527248 0.937608 0.384542 . .
H83_13 H 0.501037 0.929804 0.340834 . .
H100_22 H 0.447616 0.733673 0.0277655 . .
N15_14 N 0.179950 0.478428 0.411570 0.0127 Uiso
N16_14 N 0.118366 0.416321 0.412784 0.0127 Uiso
C17_14 C 0.022296 0.464546 0.308082 0.0127 Uiso
C20_14 C 0.020482 0.358195 0.302563 0.0127 Uiso
C21_14 C 0.194195 0.464821 0.435031 0.0127 Uiso
C22_14 C 0.199609 0.502246 0.383491 0.0127 Uiso
C23_14 C 0.130942 0.404930 0.383023 0.0127 Uiso
C24_14 C 0.096328 0.393536 0.440065 0.0127 Uiso
C33_14 C 0.022898 0.486950 0.336833 0.0127 Uiso
C36_14 C 0.018708 0.335987 0.332186 0.0127 Uiso
C37_14 C 0.227281 0.474605 0.430832 0.0127 Uiso
C38_14 C 0.232821 0.512697 0.378368 0.0127 Uiso
C39_14 C 0.122195 0.372070 0.380062 0.0127 Uiso
C40_14 C 0.086973 0.360721 0.438257 0.0127 Uiso
O5_14 O 0.051332 0.515639 0.346151 0.0127 Uiso
O7_14 O 0.240573 0.459469 0.456196 0.0127 Uiso
C47_14 C 0.247194 0.498786 0.402321 0.0127 Uiso
O8_14 O 0.136982 0.363377 0.347853 0.0127 Uiso
C48_14 C 0.099817 0.349010 0.407852 0.0127 Uiso
C52_14 C 0.243626 0.433986 0.439415 0.0127 Uiso
C53_14 C 0.116804 0.337989 0.322041 0.0127 Uiso
O12_14 O 0.237301 0.426102 0.403207 0.0127 Uiso
C57_14 C 0.255279 0.414980 0.466931 0.0127 Uiso
O13_14 O 0.093937 0.338312 0.304809 0.0127 Uiso
C58_14 C 0.124580 0.310463 0.316566 0.0127 Uiso
N18_14 N 0.005281 0.441158 0.202124 0.0127 Uiso
N19_14 N 0.003044 0.370130 0.201685 0.0127 Uiso
N21_14 N 0.145095 0.513283 0.421763 0.0127 Uiso
N22_14 N 0.082988 0.451699 0.420549 0.0127 Uiso
C61_14 C 0.033669 0.462517 0.183047 0.0127 Uiso
C62_14 C 0.029033 0.382530 0.175674 0.0127 Uiso
C64_14 C 0.131488 0.527528 0.398302 0.0127 Uiso
C65_14 C 0.168913 0.532942 0.449842 0.0127 Uiso
C66_14 C 0.071597 0.464275 0.450310 0.0127 Uiso
C67_14 C 0.060203 0.429661 0.393268 0.0127 Uiso
C69_14 C 0.034457 0.485164 0.153628 0.0127 Uiso
C70_14 C 0.032774 0.363726 0.144990 0.0127 Uiso
C72_14 C 0.141272 0.560614 0.402501 0.0127 Uiso
C73_14 C 0.179364 0.566154 0.454965 0.0127 Uiso
C74_14 C 0.038737 0.455528 0.453271 0.0127 Uiso
C75_14 C 0.027388 0.420306 0.395076 0.0127 Uiso
C83_14 C 0.006772 0.486185 0.143546 0.0127 Uiso
O15_14 O 0.059865 0.377523 0.119045 0.0127 Uiso
C84_14 C 0.008357 0.330356 0.140976 0.0127 Uiso
O16_14 O 0.126136 0.573906 0.377137 0.0127 Uiso
C85_14 C 0.165453 0.580527 0.431012 0.0127 Uiso
O17_14 O 0.030044 0.470315 0.485480 0.0127 Uiso
C86_14 C 0.015677 0.433150 0.425481 0.0127 Uiso
C87_14 C 0.100653 0.576959 0.393918 0.0127 Uiso
C88_14 C 0.004656 0.450137 0.511292 0.0127 Uiso
O18_14 O 0.092769 0.570634 0.430126 0.0127 Uiso
C89_14 C 0.081647 0.588612 0.366402 0.0127 Uiso
O19_14 O 0.004979 0.427270 0.528524 0.0127 Uiso
H9_23 H 0.18206 0.582395 0.325585 . .
H12_14 H 0.179157 0.445761 0.457662 . .
H15_14 H 0.247572 0.531768 0.355609 . .
H16_14 H 0.04175 0.369063 0.281662 . .
H17_14 H 0.188478 0.51343 0.364347 . .
H19_14 H 0.0858291 0.401929 0.464197 . .
H20_14 H 0.0455363 0.470462 0.292782 . .
H22_14 H 0.0692923 0.343459 0.46077 . .
H24_14 H 0.148585 0.422552 0.360765 . .
H25_14 H 0.038194 0.329492 0.334545 . .
H29_14 H 0.273445 0.506526 0.399007 . .
H30_14 H 0.0925635 0.322799 0.406003 . .
H31_14 H 0.0681192 0.510308 0.357137 . .
H45_14 H 0.279933 0.432144 0.479108 . .
H46_14 H 0.256307 0.395726 0.448792 . .
H47_14 H 0.2379 0.403529 0.492499 . .
H48_14 H 0.149589 0.320613 0.304005 . .
H49_14 H 0.10668 0.291927 0.295316 . .
H50_14 H 0.123112 0.298876 0.346404 . .
H52_14 H 0.112428 0.51249 0.375671 . .
H53_14 H 0.048119 0.408604 0.178775 . .
H54_14 H 0.0101252 0.402626 0.372563 . .
H55_14 H 0.0892188 0.481919 0.472568 . .
H57_14 H 0.173193 0.606778 0.434327 . .
H58_14 H 0.180096 0.521812 0.468987 . .
H59_14 H 0.00760729 0.50384 0.120682 . .
H60_14 H 0.198435 0.580905 0.477724 . .
H61_14 H 0.0603997 0.396245 0.103481 . .
H62_14 H 0.0104339 0.314806 0.117259 . .
H63_14 H 0.068596 0.419162 0.369137 . .
H65_14 H 0.0564752 0.462323 0.190452 . .
H67_14 H 0.0579255 0.502276 0.138623 . .
H81_14 H 0.0988106 0.613266 0.354225 . .
H82_14 H 0.0623922 0.58964 0.384542 . .
H83_14 H 0.0701961 0.571233 0.340834 . .
H100_23 H 0.266327 0.713943 0.0277655 . .
N13_14 N 0.994719 0.435876 0.297876 0.0127 Uiso
N14_14 N 0.996956 0.367085 0.298315 0.0127 Uiso
C18_14 C 0.966331 0.428847 0.316953 0.0127 Uiso
C19_14 C 0.970967 0.353496 0.324326 0.0127 Uiso
C34_14 C 0.965543 0.450706 0.346372 0.0127 Uiso
C35_14 C 0.967226 0.330951 0.355010 0.0127 Uiso
C45_14 C 0.993228 0.479412 0.356454 0.0127 Uiso
O6_14 O 0.940135 0.317657 0.380955 0.0127 Uiso
C46_14 C 0.991643 0.321998 0.359024 0.0127 Uiso
C60_14 C 0.977704 0.442251 0.191918 0.0127 Uiso
C63_14 C 0.979518 0.337714 0.197437 0.0127 Uiso
C68_14 C 0.977102 0.464053 0.163167 0.0127 Uiso
C71_14 C 0.981292 0.317280 0.167814 0.0127 Uiso
O14_14 O 0.948668 0.464308 0.153849 0.0127 Uiso
C90_14 C 0.977130 0.457913 0.516767 0.0127 Uiso
H11_14 H 0.943525 0.405847 0.309548 . .
H14_14 H 0.942075 0.44435 0.361377 . .
H18_14 H 0.951881 0.360485 0.321225 . .
H28_14 H 0.989566 0.304372 0.382741 . .
H35_14 H 0.992393 0.496232 0.379318 . .
H40_14 H 0.9396 0.335845 0.396519 . .
H51_14 H 0.954464 0.424926 0.207218 . .
H56_14 H 0.931881 0.442189 0.142863 . .
H64_14 H 0.989466 0.425897 0.42733 . .
H66_14 H 0.95825 0.327312 0.218338 . .
H68_14 H 0.961806 0.291298 0.165455 . .
H73_14 H 0.98728 0.482922 0.529328 . .
H74_14 H 0.958594 0.440014 0.538017 . .
H75_14 H 0.965542 0.456445 0.486929 . .
N13_15 N 0.564124 0.558842 0.297876 0.0127 Uiso
N14_15 N 0.632915 0.629870 0.298315 0.0127 Uiso
N15_15 N 0.521572 0.701521 0.411570 0.0127 Uiso
N16_15 N 0.583679 0.702044 0.412784 0.0127 Uiso
C17_15 C 0.535454 0.557749 0.308082 0.0127 Uiso
C18_15 C 0.571153 0.537483 0.316953 0.0127 Uiso
C19_15 C 0.646504 0.617470 0.324326 0.0127 Uiso
C20_15 C 0.641805 0.662286 0.302563 0.0127 Uiso
C21_15 C 0.535179 0.729373 0.435031 0.0127 Uiso
C22_15 C 0.497754 0.697362 0.383491 0.0127 Uiso
C23_15 C 0.595070 0.726011 0.383023 0.0127 Uiso
C24_15 C 0.606464 0.702791 0.440065 0.0127 Uiso
C33_15 C 0.513050 0.535947 0.336833 0.0127 Uiso
C34_15 C 0.549294 0.514836 0.346372 0.0127 Uiso
C35_15 C 0.669049 0.636274 0.355010 0.0127 Uiso
C36_15 C 0.664013 0.682720 0.332186 0.0127 Uiso
C37_15 C 0.525395 0.752675 0.430832 0.0127 Uiso
C38_15 C 0.487303 0.720123 0.378368 0.0127 Uiso
C39_15 C 0.627930 0.750124 0.380062 0.0127 Uiso
C40_15 C 0.639279 0.726251 0.438257 0.0127 Uiso
O5_15 O 0.484361 0.535692 0.346151 0.0127 Uiso
C45_15 C 0.520588 0.513815 0.356454 0.0127 Uiso
O6_15 O 0.682343 0.622477 0.380955 0.0127 Uiso
C46_15 C 0.678002 0.669644 0.359024 0.0127 Uiso
O7_15 O 0.540531 0.781103 0.456196 0.0127 Uiso
C47_15 C 0.501214 0.748407 0.402321 0.0127 Uiso
O8_15 O 0.636623 0.773604 0.347853 0.0127 Uiso
C48_15 C 0.650990 0.750806 0.407852 0.0127 Uiso
C52_15 C 0.566014 0.809639 0.439415 0.0127 Uiso
C53_15 C 0.662011 0.778814 0.322041 0.0127 Uiso
O12_15 O 0.573898 0.811198 0.403207 0.0127 Uiso
C57_15 C 0.585020 0.840298 0.466931 0.0127 Uiso
O13_15 O 0.661688 0.755624 0.304809 0.0127 Uiso
C58_15 C 0.689537 0.814116 0.316566 0.0127 Uiso
N18_15 N 0.558842 0.564124 0.202124 0.0127 Uiso
N19_15 N 0.629870 0.632915 0.201685 0.0127 Uiso
N21_15 N 0.486717 0.631812 0.421763 0.0127 Uiso
N22_15 N 0.548301 0.631289 0.420549 0.0127 Uiso
C60_15 C 0.557749 0.535454 0.191918 0.0127 Uiso
C61_15 C 0.537483 0.571153 0.183047 0.0127 Uiso
C62_15 C 0.617470 0.646504 0.175674 0.0127 Uiso
C63_15 C 0.662286 0.641805 0.197437 0.0127 Uiso
C64_15 C 0.472472 0.603960 0.398302 0.0127 Uiso
C65_15 C 0.467058 0.635971 0.449842 0.0127 Uiso
C66_15 C 0.535725 0.607322 0.450310 0.0127 Uiso
C67_15 C 0.570339 0.630542 0.393268 0.0127 Uiso
C68_15 C 0.535947 0.513050 0.163167 0.0127 Uiso
C69_15 C 0.514836 0.549294 0.153628 0.0127 Uiso
C70_15 C 0.636274 0.669049 0.144990 0.0127 Uiso
C71_15 C 0.682720 0.664013 0.167814 0.0127 Uiso
C72_15 C 0.439386 0.580658 0.402501 0.0127 Uiso
C73_15 C 0.433846 0.613210 0.454965 0.0127 Uiso
C74_15 C 0.544472 0.583209 0.453271 0.0127 Uiso
C75_15 C 0.579694 0.607082 0.395076 0.0127 Uiso
O14_15 O 0.535692 0.484361 0.153849 0.0127 Uiso
C83_15 C 0.513815 0.520588 0.143546 0.0127 Uiso
O15_15 O 0.622477 0.682343 0.119045 0.0127 Uiso
C84_15 C 0.669644 0.678002 0.140976 0.0127 Uiso
O16_15 O 0.426094 0.552230 0.377137 0.0127 Uiso
C85_15 C 0.419473 0.584926 0.431012 0.0127 Uiso
O17_15 O 0.529685 0.559729 0.485480 0.0127 Uiso
C86_15 C 0.566850 0.582527 0.425481 0.0127 Uiso
C87_15 C 0.423041 0.523694 0.393918 0.0127 Uiso
C88_15 C 0.549863 0.554519 0.511292 0.0127 Uiso
O18_15 O 0.429366 0.522135 0.430126 0.0127 Uiso
C89_15 C 0.411388 0.493035 0.366402 0.0127 Uiso
O19_15 O 0.572730 0.577709 0.528524 0.0127 Uiso
C90_15 C 0.542087 0.519217 0.516767 0.0127 Uiso
H9_24 H 0.417605 0.599664 0.325585 . .
H11_15 H 0.594153 0.537677 0.309548 . .
H12_15 H 0.554239 0.733395 0.457662 . .
H14_15 H 0.55565 0.497724 0.361377 . .
H15_15 H 0.468232 0.715804 0.355609 . .
H16_15 H 0.630937 0.672688 0.281662 . .
H17_15 H 0.48657 0.675049 0.364347 . .
H18_15 H 0.639515 0.591396 0.321225 . .
H19_15 H 0.598071 0.6839 0.464197 . .
H20_15 H 0.529538 0.575074 0.292782 . .
H22_15 H 0.656541 0.725834 0.46077 . .
H24_15 H 0.577448 0.726033 0.360765 . .
H25_15 H 0.670508 0.708702 0.334545 . .
H28_15 H 0.695628 0.685194 0.382741 . .
H29_15 H 0.493474 0.766918 0.399007 . .
H30_15 H 0.677201 0.769764 0.406003 . .
H31_15 H 0.489692 0.557811 0.357137 . .
H35_15 H 0.503768 0.49616 0.379318 . .
H40_15 H 0.664155 0.603755 0.396519 . .
H45_15 H 0.567856 0.847789 0.479108 . .
H46_15 H 0.604274 0.860581 0.448792 . .
H47_15 H 0.596471 0.83437 0.492499 . .
H48_15 H 0.679387 0.828976 0.304005 . .
H49_15 H 0.708073 0.814753 0.295316 . .
H50_15 H 0.701124 0.824236 0.346404 . .
H51_15 H 0.575074 0.529538 0.207218 . .
H52_15 H 0.48751 0.599938 0.375671 . .
H53_15 H 0.591396 0.639515 0.178775 . .
H54_15 H 0.597374 0.6075 0.372563 . .
H55_15 H 0.518081 0.6073 0.472568 . .
H56_15 H 0.557811 0.489692 0.142863 . .
H57_15 H 0.393222 0.566415 0.434327 . .
H58_15 H 0.478188 0.658285 0.468987 . .
H59_15 H 0.49616 0.503768 0.120682 . .
H60_15 H 0.419095 0.617529 0.477724 . .
H61_15 H 0.603755 0.664155 0.103481 . .
H62_15 H 0.685194 0.695628 0.117259 . .
H63_15 H 0.580838 0.649434 0.369137 . .
H64_15 H 0.574103 0.563569 0.42733 . .
H65_15 H 0.537677 0.594153 0.190452 . .
H66_15 H 0.672688 0.630937 0.218338 . .
H67_15 H 0.497724 0.55565 0.138623 . .
H68_15 H 0.708702 0.670508 0.165455 . .
H73_15 H 0.517078 0.504357 0.529328 . .
H74_15 H 0.559986 0.51858 0.538017 . .
H75_15 H 0.543555 0.509097 0.486929 . .
H81_15 H 0.386734 0.485545 0.354225 . .
H82_15 H 0.41036 0.472752 0.384542 . .
H83_15 H 0.428767 0.498963 0.340834 . .
H100_24 H 0.286057 0.552384 0.0277655 . .
N13_16 N 0.107824 0.338615 0.631210 0.0127 Uiso
N14_16 N 0.036796 0.336378 0.631649 0.0127 Uiso
C17_16 C 0.108917 0.311038 0.641416 0.0127 Uiso
C18_16 C 0.129183 0.367003 0.650287 0.0127 Uiso
C19_16 C 0.049196 0.362367 0.657660 0.0127 Uiso
C20_16 C 0.004380 0.312852 0.635897 0.0127 Uiso
C33_16 C 0.130719 0.310436 0.670167 0.0127 Uiso
C34_16 C 0.151830 0.367791 0.679706 0.0127 Uiso
C35_16 C 0.030392 0.366108 0.688344 0.0127 Uiso
O5_16 O 0.130974 0.282002 0.679485 0.0127 Uiso
C45_16 C 0.152851 0.340106 0.689788 0.0127 Uiso
O6_16 O 0.044189 0.393199 0.714289 0.0127 Uiso
N18_16 N 0.102543 0.328052 0.535457 0.0127 Uiso
N19_16 N 0.033752 0.330289 0.535018 0.0127 Uiso
N21_16 N 0.034855 0.188238 0.755096 0.0127 Uiso
N22_16 N 0.035378 0.250345 0.753882 0.0127 Uiso
C60_16 C 0.131213 0.355629 0.525251 0.0127 Uiso
C61_16 C 0.095514 0.299664 0.516380 0.0127 Uiso
C62_16 C 0.020163 0.304300 0.509007 0.0127 Uiso
C63_16 C 0.024862 0.353815 0.530770 0.0127 Uiso
C64_16 C 0.062707 0.201845 0.731635 0.0127 Uiso
C65_16 C 0.030696 0.164420 0.783175 0.0127 Uiso
C66_16 C 0.059345 0.261736 0.783643 0.0127 Uiso
C67_16 C 0.036125 0.273130 0.726601 0.0127 Uiso
C68_16 C 0.153617 0.356231 0.496500 0.0127 Uiso
C69_16 C 0.117373 0.298876 0.486961 0.0127 Uiso
C71_16 C 0.002654 0.352041 0.501147 0.0127 Uiso
C72_16 C 0.086009 0.192061 0.735834 0.0127 Uiso
C73_16 C 0.053457 0.153969 0.788298 0.0127 Uiso
C74_16 C 0.083458 0.294596 0.786604 0.0127 Uiso
C75_16 C 0.059585 0.305945 0.728409 0.0127 Uiso
O14_16 O 0.182306 0.384665 0.487182 0.0127 Uiso
C83_16 C 0.146079 0.326561 0.476879 0.0127 Uiso
O16_16 O 0.114437 0.207197 0.710470 0.0127 Uiso
C85_16 C 0.081741 0.167880 0.764345 0.0127 Uiso
O17_16 O 0.106938 0.303289 0.818813 0.0127 Uiso
C86_16 C 0.084140 0.317656 0.758814 0.0127 Uiso
C87_16 C 0.142973 0.232680 0.727251 0.0127 Uiso
C88_16 C 0.112148 0.328677 0.844625 0.0127 Uiso
O18_16 O 0.144532 0.240564 0.763459 0.0127 Uiso
C89_16 C 0.173632 0.251686 0.699735 0.0127 Uiso
O19_16 O 0.088958 0.328354 0.861857 0.0127 Uiso
C90_16 C 0.147450 0.356203 0.850100 0.0127 Uiso
H9_25 H 0.0670023 0.151274 0.658919 . .
H11_16 H 0.128989 0.389809 0.642881 . .
H14_16 H 0.168942 0.391259 0.69471 . .
H18_16 H 0.0752711 0.381452 0.654559 . .
H20_16 H 0.0915922 0.287797 0.626115 . .
H31_16 H 0.108855 0.265214 0.69047 . .
H35_16 H 0.170506 0.340941 0.712652 . .
H40_16 H 0.0629118 0.393733 0.729852 . .
H51_16 H 0.137128 0.37887 0.540551 . .
H52_16 H 0.0667287 0.220905 0.709005 . .
H53_16 H 0.0271521 0.285214 0.512108 . .
H54_16 H 0.0591671 0.323208 0.705897 . .
H55_16 H 0.0593665 0.244115 0.805902 . .
H56_16 H 0.176974 0.401453 0.476197 . .
H57_16 H 0.100252 0.16014 0.76766 . .
H58_16 H 0.00838203 0.153237 0.80232 . .
H59_16 H 0.162899 0.325726 0.454015 . .
H60_16 H 0.0491376 0.134899 0.811058 . .
H61_16 H 0.00251212 0.272934 0.436815 . .
H63_16 H 0.0172331 0.264737 0.70247 . .
H64_16 H 0.103097 0.343867 0.760664 . .
H65_16 H 0.0725141 0.276858 0.523786 . .
H66_16 H 0.0357292 0.375083 0.551671 . .
H67_16 H 0.111017 0.275408 0.471956 . .
H73_16 H 0.162309 0.346054 0.862661 . .
H74_16 H 0.148087 0.37474 0.87135 . .
H75_16 H 0.15757 0.367791 0.820262 . .
H81_16 H 0.181122 0.234523 0.687558 . .
H82_16 H 0.193915 0.270941 0.717875 . .
H83_16 H 0.167703 0.263137 0.674167 . .
H100_25 H 0.114283 0.0670063 0.361099 . .
N15_16 N 0.965145 0.153384 0.744904 0.0127 Uiso
N16_16 N 0.964622 0.214968 0.746118 0.0127 Uiso
C21_16 C 0.937293 0.139139 0.768365 0.0127 Uiso
C22_16 C 0.969304 0.133725 0.716825 0.0127 Uiso
C23_16 C 0.940655 0.202392 0.716357 0.0127 Uiso
C24_16 C 0.963875 0.237006 0.773399 0.0127 Uiso
C36_16 C 0.983946 0.314626 0.665520 0.0127 Uiso
C37_16 C 0.913991 0.106053 0.764166 0.0127 Uiso
C38_16 C 0.946543 0.100513 0.711702 0.0127 Uiso
C39_16 C 0.916542 0.211139 0.713396 0.0127 Uiso
C40_16 C 0.940415 0.246361 0.771591 0.0127 Uiso
C46_16 C 0.997022 0.341691 0.692358 0.0127 Uiso
O7_16 O 0.885563 0.092761 0.789530 0.0127 Uiso
C47_16 C 0.918259 0.086140 0.735655 0.0127 Uiso
O8_16 O 0.893062 0.196352 0.681187 0.0127 Uiso
C48_16 C 0.915860 0.233517 0.741186 0.0127 Uiso
C52_16 C 0.857027 0.089708 0.772749 0.0127 Uiso
C53_16 C 0.887852 0.216530 0.655375 0.0127 Uiso
O12_16 O 0.855468 0.096033 0.736541 0.0127 Uiso
C57_16 C 0.826368 0.078055 0.800265 0.0127 Uiso
O13_16 O 0.911042 0.239397 0.638143 0.0127 Uiso
C58_16 C 0.852550 0.208754 0.649900 0.0127 Uiso
C70_16 C 0.997618 0.300559 0.478323 0.0127 Uiso
O15_16 O 0.984324 0.273468 0.452378 0.0127 Uiso
C84_16 C 0.988665 0.324976 0.474309 0.0127 Uiso
H12_16 H 0.933271 0.154177 0.790995 . .
H15_16 H 0.950862 0.0857612 0.688942 . .
H16_16 H 0.993979 0.291583 0.614995 . .
H17_16 H 0.991618 0.144855 0.69768 . .
H19_16 H 0.982767 0.247504 0.79753 . .
H22_16 H 0.940833 0.264041 0.794103 . .
H24_16 H 0.940633 0.184748 0.694098 . .
H25_16 H 0.957965 0.295139 0.667878 . .
H28_16 H 0.981473 0.343767 0.716074 . .
H29_16 H 0.899748 0.0598888 0.73234 . .
H30_16 H 0.896903 0.24077 0.739336 . .
H45_16 H 0.818878 0.0534007 0.812442 . .
H46_16 H 0.806085 0.0770266 0.782125 . .
H47_16 H 0.832297 0.0954338 0.825833 . .
H48_16 H 0.837691 0.183744 0.637339 . .
H49_16 H 0.851913 0.226653 0.62865 . .
H50_16 H 0.84243 0.210221 0.679738 . .
H62_16 H 0.971039 0.322899 0.450592 . .
H68_16 H 0.996159 0.371527 0.498789 . .
H100_26 H 0.932994 0.0472766 0.361099 . .
N13_17 N 0.661385 0.769210 0.631210 0.0127 Uiso
N14_17 N 0.663622 0.700419 0.631649 0.0127 Uiso
N15_17 N 0.846616 0.811762 0.744904 0.0127 Uiso
N16_17 N 0.785032 0.749655 0.746118 0.0127 Uiso
C17_17 C 0.688962 0.797880 0.641416 0.0127 Uiso
C18_17 C 0.632997 0.762181 0.650287 0.0127 Uiso
C19_17 C 0.637633 0.686830 0.657660 0.0127 Uiso
C20_17 C 0.687148 0.691529 0.635897 0.0127 Uiso
C21_17 C 0.860861 0.798155 0.768365 0.0127 Uiso
C22_17 C 0.866275 0.835580 0.716825 0.0127 Uiso
C23_17 C 0.797608 0.738264 0.716357 0.0127 Uiso
C24_17 C 0.762994 0.726870 0.773399 0.0127 Uiso
C33_17 C 0.689564 0.820284 0.670167 0.0127 Uiso
C34_17 C 0.632209 0.784040 0.679706 0.0127 Uiso
C35_17 C 0.633892 0.664285 0.688344 0.0127 Uiso
C36_17 C 0.685374 0.669321 0.665520 0.0127 Uiso
C37_17 C 0.893947 0.807939 0.764166 0.0127 Uiso
C38_17 C 0.899487 0.846031 0.711702 0.0127 Uiso
C39_17 C 0.788861 0.705404 0.713396 0.0127 Uiso
C40_17 C 0.753639 0.694055 0.771591 0.0127 Uiso
O5_17 O 0.717998 0.848973 0.679485 0.0127 Uiso
C45_17 C 0.659894 0.812746 0.689788 0.0127 Uiso
O6_17 O 0.606801 0.650991 0.714289 0.0127 Uiso
C46_17 C 0.658309 0.655332 0.692358 0.0127 Uiso
O7_17 O 0.907239 0.792803 0.789530 0.0127 Uiso
C47_17 C 0.913860 0.832120 0.735655 0.0127 Uiso
O8_17 O 0.803648 0.696711 0.681187 0.0127 Uiso
C48_17 C 0.766483 0.682344 0.741186 0.0127 Uiso
C52_17 C 0.910292 0.767320 0.772749 0.0127 Uiso
C53_17 C 0.783470 0.671323 0.655375 0.0127 Uiso
O12_17 O 0.903967 0.759436 0.736541 0.0127 Uiso
C57_17 C 0.921945 0.748314 0.800265 0.0127 Uiso
O13_17 O 0.760603 0.671646 0.638143 0.0127 Uiso
C58_17 C 0.791246 0.643797 0.649900 0.0127 Uiso
N18_17 N 0.671948 0.774491 0.535457 0.0127 Uiso
N19_17 N 0.669711 0.703463 0.535018 0.0127 Uiso
N21_17 N 0.811762 0.846616 0.755096 0.0127 Uiso
N22_17 N 0.749655 0.785032 0.753882 0.0127 Uiso
C60_17 C 0.644371 0.775584 0.525251 0.0127 Uiso
C61_17 C 0.700336 0.795850 0.516380 0.0127 Uiso
C62_17 C 0.695700 0.715863 0.509007 0.0127 Uiso
C63_17 C 0.646185 0.671047 0.530770 0.0127 Uiso
C64_17 C 0.798155 0.860861 0.731635 0.0127 Uiso
C65_17 C 0.835580 0.866275 0.783175 0.0127 Uiso
C66_17 C 0.738264 0.797608 0.783643 0.0127 Uiso
C67_17 C 0.726870 0.762994 0.726601 0.0127 Uiso
C68_17 C 0.643769 0.797386 0.496500 0.0127 Uiso
C69_17 C 0.701124 0.818497 0.486961 0.0127 Uiso
C70_17 C 0.699441 0.697059 0.478323 0.0127 Uiso
C71_17 C 0.647959 0.650613 0.501147 0.0127 Uiso
C72_17 C 0.807939 0.893947 0.735834 0.0127 Uiso
C73_17 C 0.846031 0.899487 0.788298 0.0127 Uiso
C74_17 C 0.705404 0.788861 0.786604 0.0127 Uiso
C75_17 C 0.694055 0.753639 0.728409 0.0127 Uiso
O14_17 O 0.615335 0.797641 0.487182 0.0127 Uiso
C83_17 C 0.673439 0.819518 0.476879 0.0127 Uiso
O15_17 O 0.726532 0.710856 0.452378 0.0127 Uiso
C84_17 C 0.675024 0.663689 0.474309 0.0127 Uiso
O16_17 O 0.792803 0.907239 0.710470 0.0127 Uiso
C85_17 C 0.832120 0.913860 0.764345 0.0127 Uiso
O17_17 O 0.696711 0.803648 0.818813 0.0127 Uiso
C86_17 C 0.682344 0.766483 0.758814 0.0127 Uiso
C87_17 C 0.767320 0.910292 0.727251 0.0127 Uiso
C88_17 C 0.671323 0.783470 0.844625 0.0127 Uiso
O18_17 O 0.759436 0.903967 0.763459 0.0127 Uiso
C89_17 C 0.748314 0.921945 0.699735 0.0127 Uiso
O19_17 O 0.671646 0.760603 0.861857 0.0127 Uiso
C90_17 C 0.643797 0.791246 0.850100 0.0127 Uiso
H9_26 H 0.848726 0.915729 0.658919 . .
H11_17 H 0.610191 0.739181 0.642881 . .
H12_17 H 0.845823 0.779095 0.790995 . .
H14_17 H 0.608741 0.777684 0.69471 . .
H15_17 H 0.914239 0.865101 0.688942 . .
H16_17 H 0.708417 0.702396 0.614995 . .
H17_17 H 0.855145 0.846763 0.69768 . .
H18_17 H 0.618548 0.693819 0.654559 . .
H19_17 H 0.752496 0.735263 0.79753 . .
H20_17 H 0.712203 0.803795 0.626115 . .
H22_17 H 0.735959 0.676792 0.794103 . .
H24_17 H 0.815252 0.755885 0.694098 . .
H25_17 H 0.704861 0.662826 0.667878 . .
H28_17 H 0.656233 0.637705 0.716074 . .
H29_17 H 0.940111 0.83986 0.73234 . .
H30_17 H 0.75923 0.656133 0.739336 . .
H31_17 H 0.734786 0.843641 0.69047 . .
H35_17 H 0.659059 0.829566 0.712652 . .
H40_17 H 0.606267 0.669179 0.729852 . .
H45_17 H 0.946599 0.765477 0.812442 . .
H46_17 H 0.922973 0.729059 0.782125 . .
H47_17 H 0.904566 0.736863 0.825833 . .
H48_17 H 0.816256 0.653946 0.637339 . .
H49_17 H 0.773347 0.62526 0.62865 . .
H50_17 H 0.789779 0.632209 0.679738 . .
H51_17 H 0.62113 0.758259 0.540551 . .
H52_17 H 0.779095 0.845823 0.709005 . .
H53_17 H 0.714786 0.741938 0.512108 . .
H54_17 H 0.676792 0.735959 0.705897 . .
H55_17 H 0.755885 0.815252 0.805902 . .
H56_17 H 0.598547 0.775522 0.476197 . .
H57_17 H 0.83986 0.940111 0.76766 . .
H58_17 H 0.846763 0.855145 0.80232 . .
H59_17 H 0.674274 0.837173 0.454015 . .
H60_17 H 0.865101 0.914239 0.811058 . .
H61_17 H 0.727066 0.729578 0.436815 . .
H62_17 H 0.677101 0.648139 0.450592 . .
H63_17 H 0.735263 0.752496 0.70247 . .
H64_17 H 0.656133 0.75923 0.760664 . .
H65_17 H 0.723142 0.795656 0.523786 . .
H66_17 H 0.624917 0.660646 0.551671 . .
H67_17 H 0.724592 0.835609 0.471956 . .
H68_17 H 0.628473 0.624632 0.498789 . .
H73_17 H 0.653946 0.816256 0.862661 . .
H74_17 H 0.62526 0.773347 0.87135 . .
H75_17 H 0.632209 0.789779 0.820262 . .
H81_17 H 0.765477 0.946599 0.687558 . .
H82_17 H 0.729059 0.922973 0.717875 . .
H83_17 H 0.736863 0.904566 0.674167 . .
N15_18 N 0.188238 0.034855 0.744904 0.0127 Uiso
N16_18 N 0.250345 0.035378 0.746118 0.0127 Uiso
C21_18 C 0.201845 0.062707 0.768365 0.0127 Uiso
C22_18 C 0.164420 0.030696 0.716825 0.0127 Uiso
C23_18 C 0.261736 0.059345 0.716357 0.0127 Uiso
C24_18 C 0.273130 0.036125 0.773399 0.0127 Uiso
C36_18 C 0.330679 0.016054 0.665520 0.0127 Uiso
C37_18 C 0.192061 0.086009 0.764166 0.0127 Uiso
C38_18 C 0.153969 0.053457 0.711702 0.0127 Uiso
C39_18 C 0.294596 0.083458 0.713396 0.0127 Uiso
C40_18 C 0.305945 0.059585 0.771591 0.0127 Uiso
C46_18 C 0.344668 0.002978 0.692358 0.0127 Uiso
O7_18 O 0.207197 0.114437 0.789530 0.0127 Uiso
C47_18 C 0.167880 0.081741 0.735655 0.0127 Uiso
O8_18 O 0.303289 0.106938 0.681187 0.0127 Uiso
C48_18 C 0.317656 0.084140 0.741186 0.0127 Uiso
C52_18 C 0.232680 0.142973 0.772749 0.0127 Uiso
C53_18 C 0.328677 0.112148 0.655375 0.0127 Uiso
O12_18 O 0.240564 0.144532 0.736541 0.0127 Uiso
C57_18 C 0.251686 0.173632 0.800265 0.0127 Uiso
O13_18 O 0.328354 0.088958 0.638143 0.0127 Uiso
C58_18 C 0.356203 0.147450 0.649900 0.0127 Uiso
C70_18 C 0.302941 0.002382 0.478323 0.0127 Uiso
O15_18 O 0.289144 0.015676 0.452378 0.0127 Uiso
C84_18 C 0.336311 0.011335 0.474309 0.0127 Uiso
H12_18 H 0.220905 0.0667287 0.790995 . .
H15_18 H 0.134899 0.0491376 0.688942 . .
H16_18 H 0.297604 0.00602085 0.614995 . .
H17_18 H 0.153237 0.00838203 0.69768 . .
H19_18 H 0.264737 0.0172331 0.79753 . .
H22_18 H 0.323208 0.0591671 0.794103 . .
H24_18 H 0.244115 0.0593665 0.694098 . .
H25_18 H 0.337174 0.0420351 0.667878 . .
H28_18 H 0.362295 0.0185274 0.716074 . .
H29_18 H 0.16014 0.100252 0.73234 . .
H30_18 H 0.343867 0.103097 0.739336 . .
H45_18 H 0.234523 0.181122 0.812442 . .
H46_18 H 0.270941 0.193915 0.782125 . .
H47_18 H 0.263137 0.167703 0.825833 . .
H48_18 H 0.346054 0.162309 0.637339 . .
H49_18 H 0.37474 0.148087 0.62865 . .
H50_18 H 0.367791 0.15757 0.679738 . .
H62_18 H 0.351861 0.0289613 0.450592 . .
H68_18 H 0.375368 0.00384105 0.498789 . .
N13_18 N 0.230790 0.892176 0.631210 0.0127 Uiso
N14_18 N 0.299581 0.963204 0.631649 0.0127 Uiso
C17_18 C 0.202120 0.891083 0.641416 0.0127 Uiso
C18_18 C 0.237819 0.870817 0.650287 0.0127 Uiso
C19_18 C 0.313170 0.950804 0.657660 0.0127 Uiso
C20_18 C 0.308471 0.995620 0.635897 0.0127 Uiso
C33_18 C 0.179716 0.869281 0.670167 0.0127 Uiso
C34_18 C 0.215960 0.848170 0.679706 0.0127 Uiso
C35_18 C 0.335715 0.969608 0.688344 0.0127 Uiso
O5_18 O 0.151027 0.869026 0.679485 0.0127 Uiso
C45_18 C 0.187254 0.847149 0.689788 0.0127 Uiso
O6_18 O 0.349009 0.955811 0.714289 0.0127 Uiso
N18_18 N 0.225509 0.897457 0.535457 0.0127 Uiso
N19_18 N 0.296537 0.966248 0.535018 0.0127 Uiso
N21_18 N 0.153384 0.965145 0.755096 0.0127 Uiso
N22_18 N 0.214968 0.964622 0.753882 0.0127 Uiso
C60_18 C 0.224416 0.868787 0.525251 0.0127 Uiso
C61_18 C 0.204150 0.904486 0.516380 0.0127 Uiso
C62_18 C 0.284137 0.979837 0.509007 0.0127 Uiso
C63_18 C 0.328953 0.975138 0.530770 0.0127 Uiso
C64_18 C 0.139139 0.937293 0.731635 0.0127 Uiso
C65_18 C 0.133725 0.969304 0.783175 0.0127 Uiso
C66_18 C 0.202392 0.940655 0.783643 0.0127 Uiso
C67_18 C 0.237006 0.963875 0.726601 0.0127 Uiso
C68_18 C 0.202614 0.846383 0.496500 0.0127 Uiso
C69_18 C 0.181503 0.882627 0.486961 0.0127 Uiso
C71_18 C 0.349387 0.997346 0.501147 0.0127 Uiso
C72_18 C 0.106053 0.913991 0.735834 0.0127 Uiso
C73_18 C 0.100513 0.946543 0.788298 0.0127 Uiso
C74_18 C 0.211139 0.916542 0.786604 0.0127 Uiso
C75_18 C 0.246361 0.940415 0.728409 0.0127 Uiso
O14_18 O 0.202359 0.817694 0.487182 0.0127 Uiso
C83_18 C 0.180482 0.853921 0.476879 0.0127 Uiso
O16_18 O 0.092761 0.885563 0.710470 0.0127 Uiso
C85_18 C 0.086140 0.918259 0.764345 0.0127 Uiso
O17_18 O 0.196352 0.893062 0.818813 0.0127 Uiso
C86_18 C 0.233517 0.915860 0.758814 0.0127 Uiso
C87_18 C 0.089708 0.857027 0.727251 0.0127 Uiso
C88_18 C 0.216530 0.887852 0.844625 0.0127 Uiso
O18_18 O 0.096033 0.855468 0.763459 0.0127 Uiso
C89_18 C 0.078055 0.826368 0.699735 0.0127 Uiso
O19_18 O 0.239397 0.911042 0.861857 0.0127 Uiso
C90_18 C 0.208754 0.852550 0.850100 0.0127 Uiso
H9_27 H 0.0842713 0.932998 0.658919 . .
H11_18 H 0.260819 0.871011 0.642881 . .
H14_18 H 0.222316 0.831058 0.69471 . .
H18_18 H 0.306181 0.924729 0.654559 . .
H20_18 H 0.196205 0.908408 0.626115 . .
H31_18 H 0.156359 0.891145 0.69047 . .
H35_18 H 0.170434 0.829494 0.712652 . .
H40_18 H 0.330821 0.937088 0.729852 . .
H51_18 H 0.241741 0.862872 0.540551 . .
H52_18 H 0.154177 0.933271 0.709005 . .
H53_18 H 0.258062 0.972848 0.512108 . .
H54_18 H 0.264041 0.940833 0.705897 . .
H55_18 H 0.184748 0.940633 0.805902 . .
H56_18 H 0.224478 0.823026 0.476197 . .
H57_18 H 0.0598888 0.899748 0.76766 . .
H58_18 H 0.144855 0.991618 0.80232 . .
H59_18 H 0.162827 0.837101 0.454015 . .
H60_18 H 0.0857612 0.950862 0.811058 . .
H61_18 H 0.270422 0.997488 0.436815 . .
H63_18 H 0.247504 0.982767 0.70247 . .
H64_18 H 0.24077 0.896903 0.760664 . .
H65_18 H 0.204344 0.927486 0.523786 . .
H66_18 H 0.339354 0.964271 0.551671 . .
H67_18 H 0.164391 0.888983 0.471956 . .
H73_18 H 0.183744 0.837691 0.862661 . .
H74_18 H 0.226653 0.851913 0.87135 . .
H75_18 H 0.210221 0.84243 0.820262 . .
H81_18 H 0.0534007 0.818878 0.687558 . .
H82_18 H 0.0770266 0.806085 0.717875 . .
H83_18 H 0.0954338 0.832297 0.674167 . .
H100_27 H 0.952723 0.885717 0.361099 . .
H9_28 H 0.484607 0.733669 0.507748 . .
H100_28 H 0.40034 0.78095 0.805568 . .
H9_29 H 0.266331 0.750938 0.507748 . .
H100_29 H 0.21905 0.61939 0.805568 . .
H9_30 H 0.249062 0.515393 0.507748 . .
H100_30 H 0.38061 0.59966 0.805568 . .
H9_31 H 0.81794 0.400336 0.174415 . .
H100_31 H 0.733673 0.447616 0.472234 . .
H9_32 H 0.599664 0.417605 0.174415 . .
H100_32 H 0.552384 0.286057 0.472234 . .
H9_33 H 0.582395 0.18206 0.174415 . .
H100_33 H 0.713943 0.266327 0.472234 . .
H100_34 H 0.0670063 0.114283 0.138901 . .
H9_34 H 0.151274 0.0670023 0.841081 . .
H9_35 H 0.932998 0.0842713 0.841081 . .
H100_35 H 0.885717 0.952723 0.138901 . .
H100_36 H 0.0472766 0.932994 0.138901 . .
H9_36 H 0.915729 0.848726 0.841081 . .
loop_
_geom_bond_atom_site_label_1
_geom_bond_atom_site_label_2
_geom_bond_site_symmetry_1
_geom_bond_site_symmetry_2
Nb1 C1 1_555 1_555
C1 N1 1_555 1_555
C2 Nb1 1_555 1_555
C3 Nb1 1_555 1_555
C4 Nb1 1_555 1_555
C5 Nb1 1_555 1_555
C6 Nb1 1_555 1_555
C7 Nb1 1_555 1_555
C8 Nb1 1_555 1_555
N1 Fe1 1_555 1_555
N2 C2 1_555 1_555
N4 C4 1_555 1_555
N5 C5 1_555 1_555
N6 C6 1_555 1_555
N7 C7 1_555 1_555
N8 C8 1_555 1_555
Fe1 N9 1_555 1_555
Fe2 N2 1_555 1_555
N9 C9 1_555 1_555
N10 Fe1 1_555 1_555
N11 Fe1 1_555 1_555
N12 Fe1 1_555 1_555
N13 Fe2 1_555 1_555
N14 Fe2 1_555 1_555
C9 C25 1_555 1_555
C10 N9 1_555 1_555
C11 N10 1_555 1_555
C12 N10 1_555 1_555
C13 N11 1_555 1_555
C14 N11 1_555 1_555
C15 N12 1_555 1_555
C16 N12 1_555 1_555
C17 N13 1_555 1_555
C18 N13 1_555 1_555
C19 N14 1_555 1_555
C20 N14 1_555 1_555
C25 O1 1_555 1_555
C26 C10 1_555 1_555
C27 C11 1_555 1_555
C28 C12 1_555 1_555
C29 C13 1_555 1_555
C30 C14 1_555 1_555
C31 C15 1_555 1_555
C32 C16 1_555 1_555
C36 C20 1_555 1_555
C41 C25 1_555 1_555
O2 C27 1_555 1_555
C42 C27 1_555 1_555
O3 C29 1_555 1_555
C43 C29 1_555 1_555
O4 C31 1_555 1_555
C44 C31 1_555 1_555
C49 O2 1_555 1_555
C50 O3 1_555 1_555
C51 O4 1_555 1_555
O9 C49 1_555 1_555
C54 C49 1_555 1_555
O10 C50 1_555 1_555
C55 C50 1_555 1_555
O11 C51 1_555 1_555
C56 C51 1_555 1_555
O13 C53 1_555 1_555
C58 C53 1_555 1_555
Fe4 N4 1_555 1_555
N17 Fe1 1_555 1_555
N18 Fe2 1_555 1_555
N19 Fe2 1_555 1_555
N20 Fe2 1_555 1_555
C59 N17 1_555 1_555
C60 N18 1_555 1_555
C61 N18 1_555 1_555
C62 N19 1_555 1_555
C63 N19 1_555 1_555
Nb2 C59 1_555 1_555
C68 C60 1_555 1_555
C69 C61 1_555 1_555
C70 C62 1_555 1_555
C71 C63 1_555 1_555
C76 Nb2 1_555 1_555
C77 Nb2 1_555 1_555
C78 Nb2 1_555 1_555
C79 Nb2 1_555 1_555
C80 Nb2 1_555 1_555
C81 Nb2 1_555 1_555
C82 Nb2 1_555 1_555
O14 C68 1_555 1_555
C83 C68 1_555 1_555
O15 C70 1_555 1_555
C84 C70 1_555 1_555
N24 C76 1_555 1_555
N25 C77 1_555 1_555
N26 C78 1_555 1_555
N27 C79 1_555 1_555
N28 C80 1_555 1_555
N29 C81 1_555 1_555
N30 C82 1_555 1_555
Fe5 N24 1_555 1_555
Fe6 N25 1_555 1_555
Fe7 N26 1_555 1_555
N31 Fe5 1_555 1_555
N32 Fe5 1_555 1_555
N33 Fe5 1_555 1_555
N34 Fe5 1_555 1_555
N35 Fe5 1_555 1_555
C91 N31 1_555 1_555
C92 N31 1_555 1_555
C93 N32 1_555 1_555
C94 N32 1_555 1_555
C95 N33 1_555 1_555
C96 N33 1_555 1_555
C97 N34 1_555 1_555
C98 N34 1_555 1_555
C99 C91 1_555 1_555
C100 C92 1_555 1_555
C101 C93 1_555 1_555
C102 C94 1_555 1_555
C103 C95 1_555 1_555
C104 C96 1_555 1_555
C105 C97 1_555 1_555
C106 C98 1_555 1_555
O20 C99 1_555 1_555
C107 C99 1_555 1_555
O21 C101 1_555 1_555
C108 C101 1_555 1_555
O22 C103 1_555 1_555
C109 C103 1_555 1_555
O23 C105 1_555 1_555
C110 C105 1_555 1_555
C111 O21 1_555 1_555
C112 O22 1_555 1_555
C113 O23 1_555 1_555
C114 C111 1_555 1_555
O25 C112 1_555 1_555
C115 C112 1_555 1_555
O26 C113 1_555 1_555
C116 C113 1_555 1_555
C26 C41 1_555 1_555
C28 C42 1_555 1_555
C30 C43 1_555 1_555
C32 C44 1_555 1_555
C69 C83 1_555 1_555
C71 C84 1_555 1_555
C100 C107 1_555 1_555
C102 C108 1_555 1_555
C104 C109 1_555 1_555
C106 C110 1_555 1_555
C9 H1 1_555 1_555
C14 H2 1_555 1_555
C13 H3 1_555 1_555
C10 H4 1_555 1_555
C16 H5 1_555 1_555
C12 H6 1_555 1_555
C15 H7 1_555 1_555
C11 H8 1_555 1_555
O1 H9 1_555 1_555
C41 H10 1_555 1_555
C18 H11 1_555 1_555
C30 H13 1_555 1_555
C20 H16 1_555 1_555
C19 H18 1_555 1_555
C17 H20 1_555 1_555
C28 H21 1_555 1_555
C26 H23 1_555 1_555
C32 H26 1_555 1_555
C42 H27 1_555 1_555
C54 H32 1_555 1_555
C54 H33 1_555 1_555
C54 H34 1_555 1_555
C55 H36 1_555 1_555
C55 H37 1_555 1_555
C55 H38 1_555 1_555
C44 H39 1_555 1_555
C43 H41 1_555 1_555
C56 H42 1_555 1_555
C56 H43 1_555 1_555
C56 H44 1_555 1_555
C58 H48 1_555 1_555
C58 H49 1_555 1_555
C60 H51 1_555 1_555
C62 H53 1_555 1_555
O14 H56 1_555 1_555
C83 H59 1_555 1_555
O15 H61 1_555 1_555
C84 H62 1_555 1_555
C61 H65 1_555 1_555
C63 H66 1_555 1_555
C69 H67 1_555 1_555
C71 H68 1_555 1_555
C91 H69 1_555 1_555
C93 H70 1_555 1_555
C97 H71 1_555 1_555
C96 H72 1_555 1_555
C94 H76 1_555 1_555
C95 H77 1_555 1_555
C100 H78 1_555 1_555
C98 H79 1_555 1_555
C92 H80 1_555 1_555
C107 H84 1_555 1_555
C114 H85 1_555 1_555
C114 H87 1_555 1_555
C108 H88 1_555 1_555
C115 H89 1_555 1_555
C115 H90 1_555 1_555
C115 H91 1_555 1_555
C106 H93 1_555 1_555
C116 H94 1_555 1_555
C116 H95 1_555 1_555
C102 H97 1_555 1_555
C110 H99 1_555 1_555
O20 H100 1_555 1_555
Fe3 N3 1_555 1_555
N15 Fe3 1_555 1_555
N16 Fe3 1_555 1_555
C21 N15 1_555 1_555
C22 N15 1_555 1_555
C23 N16 1_555 1_555
C24 N16 1_555 1_555
C37 C21 1_555 1_555
C38 C22 1_555 1_555
C39 C23 1_555 1_555
C40 C24 1_555 1_555
O5 C33 1_555 1_555
C45 C33 1_555 1_555
O6 C35 1_555 1_555
C46 C35 1_555 1_555
O7 C37 1_555 1_555
C47 C37 1_555 1_555
O8 C39 1_555 1_555
C48 C39 1_555 1_555
C52 O7 1_555 1_555
O12 C52 1_555 1_555
C57 C52 1_555 1_555
N21 Fe3 1_555 1_555
N22 Fe3 1_555 1_555
N23 Fe3 1_555 1_555
C64 N21 1_555 1_555
C65 N21 1_555 1_555
C66 N22 1_555 1_555
C67 N22 1_555 1_555
C72 C64 1_555 1_555
C73 C65 1_555 1_555
C74 C66 1_555 1_555
C75 C67 1_555 1_555
O16 C72 1_555 1_555
C85 C72 1_555 1_555
O17 C74 1_555 1_555
C86 C74 1_555 1_555
C87 O16 1_555 1_555
C88 O17 1_555 1_555
O18 C87 1_555 1_555
C89 C87 1_555 1_555
O19 C88 1_555 1_555
C90 C88 1_555 1_555
C34 C45 1_555 1_555
C38 C47 1_555 1_555
C40 C48 1_555 1_555
C73 C85 1_555 1_555
C75 C86 1_555 1_555
C21 H12 1_555 1_555
C34 H14 1_555 1_555
C38 H15 1_555 1_555
C22 H17 1_555 1_555
C24 H19 1_555 1_555
C40 H22 1_555 1_555
C23 H24 1_555 1_555
C46 H28 1_555 1_555
C47 H29 1_555 1_555
C48 H30 1_555 1_555
O5 H31 1_555 1_555
C45 H35 1_555 1_555
O6 H40 1_555 1_555
C57 H45 1_555 1_555
C57 H46 1_555 1_555
C57 H47 1_555 1_555
C64 H52 1_555 1_555
C75 H54 1_555 1_555
C66 H55 1_555 1_555
C85 H57 1_555 1_555
C65 H58 1_555 1_555
C73 H60 1_555 1_555
C67 H63 1_555 1_555
C86 H64 1_555 1_555
C90 H73 1_555 1_555
C90 H74 1_555 1_555
C90 H75 1_555 1_555
C89 H81 1_555 1_555
C89 H82 1_555 1_555
C89 H83 1_555 1_555
C71_2 C84_2 1_555 1_555
C58_2 H48_2 1_555 1_555
C58_2 H49_2 1_555 1_555
C84_2 H62_2 1_555 1_555
C71_2 H68_2 1_555 1_555
O6_2 C35_2 1_555 1_555
C46_2 C35_2 1_555 1_555
C46_2 H28_2 1_555 1_555
Nb1_2 C1_2 1_555 1_555
C1_2 N1_2 1_555 1_555
C2_2 Nb1_2 1_555 1_555
C3_2 Nb1_2 1_555 1_555
C4_2 Nb1_2 1_555 1_555
C5_2 Nb1_2 1_555 1_555
C6_2 Nb1_2 1_555 1_555
C7_2 Nb1_2 1_555 1_555
C8_2 Nb1_2 1_555 1_555
N1_2 Fe1_2 1_555 1_555
N2_2 C2_2 1_555 1_555
N4_2 C4_2 1_555 1_555
N5_2 C5_2 1_555 1_555
N6_2 C6_2 1_555 1_555
N7_2 C7_2 1_555 1_555
N8_2 C8_2 1_555 1_555
Fe1_2 N9_2 1_555 1_555
Fe2_2 N2_2 1_555 1_555
N9_2 C9_2 1_555 1_555
N10_2 Fe1_2 1_555 1_555
N11_2 Fe1_2 1_555 1_555
N12_2 Fe1_2 1_555 1_555
N13_2 Fe2_2 1_555 1_555
N14_2 Fe2_2 1_555 1_555
C9_2 C25_2 1_555 1_555
C10_2 N9_2 1_555 1_555
C11_2 N10_2 1_555 1_555
C12_2 N10_2 1_555 1_555
C13_2 N11_2 1_555 1_555
C14_2 N11_2 1_555 1_555
C15_2 N12_2 1_555 1_555
C16_2 N12_2 1_555 1_555
C17_2 N13_2 1_555 1_555
C18_2 N13_2 1_555 1_555
C19_2 N14_2 1_555 1_555
C20_2 N14_2 1_555 1_555
C25_2 O1_2 1_555 1_555
C26_2 C10_2 1_555 1_555
C27_2 C11_2 1_555 1_555
C28_2 C12_2 1_555 1_555
C29_2 C13_2 1_555 1_555
C30_2 C14_2 1_555 1_555
C31_2 C15_2 1_555 1_555
C32_2 C16_2 1_555 1_555
C36_2 C20_2 1_555 1_555
C41_2 C25_2 1_555 1_555
O2_2 C27_2 1_555 1_555
C42_2 C27_2 1_555 1_555
O3_2 C29_2 1_555 1_555
C43_2 C29_2 1_555 1_555
O4_2 C31_2 1_555 1_555
C44_2 C31_2 1_555 1_555
C49_2 O2_2 1_555 1_555
C50_2 O3_2 1_555 1_555
C51_2 O4_2 1_555 1_555
O9_2 C49_2 1_555 1_555
C54_2 C49_2 1_555 1_555
O10_2 C50_2 1_555 1_555
C55_2 C50_2 1_555 1_555
O11_2 C51_2 1_555 1_555
C56_2 C51_2 1_555 1_555
O13_2 C53_2 1_555 1_555
Fe4_2 N4_2 1_555 1_555
N17_2 Fe1_2 1_555 1_555
N18_2 Fe2_2 1_555 1_555
N19_2 Fe2_2 1_555 1_555
N20_2 Fe2_2 1_555 1_555
C59_2 N17_2 1_555 1_555
C60_2 N18_2 1_555 1_555
C61_2 N18_2 1_555 1_555
C62_2 N19_2 1_555 1_555
C63_2 N19_2 1_555 1_555
Nb2_2 C59_2 1_555 1_555
C68_2 C60_2 1_555 1_555
C69_2 C61_2 1_555 1_555
C70_2 C62_2 1_555 1_555
C76_2 Nb2_2 1_555 1_555
C77_2 Nb2_2 1_555 1_555
C78_2 Nb2_2 1_555 1_555
C79_2 Nb2_2 1_555 1_555
C80_2 Nb2_2 1_555 1_555
C81_2 Nb2_2 1_555 1_555
C82_2 Nb2_2 1_555 1_555
O14_2 C68_2 1_555 1_555
C83_2 C68_2 1_555 1_555
O15_2 C70_2 1_555 1_555
N24_2 C76_2 1_555 1_555
N25_2 C77_2 1_555 1_555
N26_2 C78_2 1_555 1_555
N27_2 C79_2 1_555 1_555
N28_2 C80_2 1_555 1_555
N29_2 C81_2 1_555 1_555
N30_2 C82_2 1_555 1_555
Fe4 N24_2 1_555 1_555
Fe6_3 N25_2 1_555 1_555
Fe7_2 N26_2 1_555 1_555
N31_2 Fe4 1_555 1_555
N32_2 Fe4 1_555 1_555
N33_2 Fe4 1_555 1_555
N34_2 Fe4 1_555 1_555
C91_2 N31_2 1_555 1_555
C92_2 N31_2 1_555 1_555
C93_2 N32_2 1_555 1_555
C94_2 N32_2 1_555 1_555
C95_2 N33_2 1_555 1_555
C96_2 N33_2 1_555 1_555
C97_2 N34_2 1_555 1_555
C98_2 N34_2 1_555 1_555
C99_2 C91_2 1_555 1_555
C100_2 C92_2 1_555 1_555
C101_2 C93_2 1_555 1_555
C102_2 C94_2 1_555 1_555
C103_2 C95_2 1_555 1_555
C104_2 C96_2 1_555 1_555
C105_2 C97_2 1_555 1_555
C106_2 C98_2 1_555 1_555
O20_2 C99_2 1_555 1_555
C107_2 C99_2 1_555 1_555
O21_2 C101_2 1_555 1_555
C108_2 C101_2 1_555 1_555
O22_2 C103_2 1_555 1_555
C109_2 C103_2 1_555 1_555
O23_2 C105_2 1_555 1_555
C110_2 C105_2 1_555 1_555
C111_2 O21_2 1_555 1_555
C112_2 O22_2 1_555 1_555
C113_2 O23_2 1_555 1_555
O24_2 C111_2 1_555 1_555
C114_2 C111_2 1_555 1_555
O25_2 C112_2 1_555 1_555
C115_2 C112_2 1_555 1_555
O26_2 C113_2 1_555 1_555
C116_2 C113_2 1_555 1_555
C26_2 C41_2 1_555 1_555
C28_2 C42_2 1_555 1_555
C30_2 C43_2 1_555 1_555
C32_2 C44_2 1_555 1_555
C69_2 C83_2 1_555 1_555
C100_2 C107_2 1_555 1_555
C102_2 C108_2 1_555 1_555
C104_2 C109_2 1_555 1_555
C106_2 C110_2 1_555 1_555
C9_2 H1_2 1_555 1_555
C14_2 H2_2 1_555 1_555
C13_2 H3_2 1_555 1_555
C10_2 H4_2 1_555 1_555
C16_2 H5_2 1_555 1_555
C12_2 H6_2 1_555 1_555
C15_2 H7_2 1_555 1_555
C11_2 H8_2 1_555 1_555
O1_2 H9_2 1_555 1_555
C41_2 H10_2 1_555 1_555
C18_2 H11_2 1_555 1_555
C30_2 H13_2 1_555 1_555
C20_2 H16_2 1_555 1_555
C19_2 H18_2 1_555 1_555
C17_2 H20_2 1_555 1_555
C28_2 H21_2 1_555 1_555
C26_2 H23_2 1_555 1_555
C32_2 H26_2 1_555 1_555
C42_2 H27_2 1_555 1_555
C54_2 H32_2 1_555 1_555
C54_2 H33_2 1_555 1_555
C54_2 H34_2 1_555 1_555
C55_2 H36_2 1_555 1_555
C55_2 H37_2 1_555 1_555
C55_2 H38_2 1_555 1_555
C44_2 H39_2 1_555 1_555
C43_2 H41_2 1_555 1_555
C56_2 H42_2 1_555 1_555
C56_2 H43_2 1_555 1_555
C56_2 H44_2 1_555 1_555
C60_2 H51_2 1_555 1_555
C62_2 H53_2 1_555 1_555
O14_2 H56_2 1_555 1_555
C83_2 H59_2 1_555 1_555
O15_2 H61_2 1_555 1_555
C61_2 H65_2 1_555 1_555
C69_2 H67_2 1_555 1_555
C91_2 H69_2 1_555 1_555
C93_2 H70_2 1_555 1_555
C97_2 H71_2 1_555 1_555
C96_2 H72_2 1_555 1_555
C94_2 H76_2 1_555 1_555
C95_2 H77_2 1_555 1_555
C100_2 H78_2 1_555 1_555
C98_2 H79_2 1_555 1_555
C92_2 H80_2 1_555 1_555
C107_2 H84_2 1_555 1_555
C114_2 H85_2 1_555 1_555
C114_2 H86_2 1_555 1_555
C114_2 H87_2 1_555 1_555
C108_2 H88_2 1_555 1_555
C115_2 H89_2 1_555 1_555
C115_2 H90_2 1_555 1_555
C115_2 H91_2 1_555 1_555
C106_2 H93_2 1_555 1_555
C116_2 H94_2 1_555 1_555
C116_2 H95_2 1_555 1_555
C102_2 H97_2 1_555 1_555
C110_2 H99_2 1_555 1_555
O20_2 H100_2 1_555 1_555
Fe3_2 N3_2 1_555 1_555
N15_2 Fe3_2 1_555 1_555
N16_2 Fe3_2 1_555 1_555
C21_2 N15_2 1_555 1_555
C22_2 N15_2 1_555 1_555
C23_2 N16_2 1_555 1_555
C24_2 N16_2 1_555 1_555
C37_2 C21_2 1_555 1_555
C38_2 C22_2 1_555 1_555
C39_2 C23_2 1_555 1_555
C40_2 C24_2 1_555 1_555
O5_2 C33_2 1_555 1_555
C45_2 C33_2 1_555 1_555
O7_2 C37_2 1_555 1_555
C47_2 C37_2 1_555 1_555
O8_2 C39_2 1_555 1_555
C48_2 C39_2 1_555 1_555
C52_2 O7_2 1_555 1_555
O12_2 C52_2 1_555 1_555
C57_2 C52_2 1_555 1_555
N21_2 Fe3_2 1_555 1_555
N22_2 Fe3_2 1_555 1_555
N23_2 Fe3_2 1_555 1_555
C64_2 N21_2 1_555 1_555
C65_2 N21_2 1_555 1_555
C66_2 N22_2 1_555 1_555
C67_2 N22_2 1_555 1_555
C72_2 C64_2 1_555 1_555
C73_2 C65_2 1_555 1_555
C74_2 C66_2 1_555 1_555
C75_2 C67_2 1_555 1_555
O16_2 C72_2 1_555 1_555
C85_2 C72_2 1_555 1_555
O17_2 C74_2 1_555 1_555
C86_2 C74_2 1_555 1_555
C87_2 O16_2 1_555 1_555
C88_2 O17_2 1_555 1_555
O18_2 C87_2 1_555 1_555
C89_2 C87_2 1_555 1_555
O19_2 C88_2 1_555 1_555
C90_2 C88_2 1_555 1_555
C34_2 C45_2 1_555 1_555
C38_2 C47_2 1_555 1_555
C40_2 C48_2 1_555 1_555
C73_2 C85_2 1_555 1_555
C75_2 C86_2 1_555 1_555
C21_2 H12_2 1_555 1_555
C34_2 H14_2 1_555 1_555
C38_2 H15_2 1_555 1_555
C22_2 H17_2 1_555 1_555
C24_2 H19_2 1_555 1_555
C40_2 H22_2 1_555 1_555
C23_2 H24_2 1_555 1_555
C47_2 H29_2 1_555 1_555
O5_2 H31_2 1_555 1_555
C45_2 H35_2 1_555 1_555
C57_2 H45_2 1_555 1_555
C57_2 H46_2 1_555 1_555
C57_2 H47_2 1_555 1_555
C64_2 H52_2 1_555 1_555
C75_2 H54_2 1_555 1_555
C66_2 H55_2 1_555 1_555
C85_2 H57_2 1_555 1_555
C65_2 H58_2 1_555 1_555
C73_2 H60_2 1_555 1_555
C67_2 H63_2 1_555 1_555
C86_2 H64_2 1_555 1_555
C90_2 H73_2 1_555 1_555
C90_2 H74_2 1_555 1_555
C90_2 H75_2 1_555 1_555
C89_2 H81_2 1_555 1_555
C89_2 H82_2 1_555 1_555
C89_2 H83_2 1_555 1_555
Nb1_3 C1_3 1_555 1_555
C1_3 N1_3 1_555 1_555
C2_3 Nb1_3 1_555 1_555
C3_3 Nb1_3 1_555 1_555
C4_3 Nb1_3 1_555 1_555
C5_3 Nb1_3 1_555 1_555
C6_3 Nb1_3 1_555 1_555
C7_3 Nb1_3 1_555 1_555
C8_3 Nb1_3 1_555 1_555
N1_3 Fe1_3 1_555 1_555
N2_3 C2_3 1_555 1_555
N35 C4_3 1_555 1_555
N5_3 C5_3 1_555 1_555
N6_3 C6_3 1_555 1_555
N7_3 C7_3 1_555 1_555
N8_3 C8_3 1_555 1_555
Fe1_3 N9_3 1_555 1_555
Fe2_3 N2_3 1_555 1_555
N9_3 C9_3 1_555 1_555
N10_3 Fe1_3 1_555 1_555
N11_3 Fe1_3 1_555 1_555
N12_3 Fe1_3 1_555 1_555
N13_3 Fe2_3 1_555 1_555
N14_3 Fe2_3 1_555 1_555
C9_3 C25_3 1_555 1_555
C10_3 N9_3 1_555 1_555
C11_3 N10_3 1_555 1_555
C12_3 N10_3 1_555 1_555
C13_3 N11_3 1_555 1_555
C14_3 N11_3 1_555 1_555
C15_3 N12_3 1_555 1_555
C16_3 N12_3 1_555 1_555
C17_3 N13_3 1_555 1_555
C18_3 N13_3 1_555 1_555
C19_3 N14_3 1_555 1_555
C20_3 N14_3 1_555 1_555
C25_3 O1_3 1_555 1_555
C26_3 C10_3 1_555 1_555
C27_3 C11_3 1_555 1_555
C28_3 C12_3 1_555 1_555
C29_3 C13_3 1_555 1_555
C30_3 C14_3 1_555 1_555
C31_3 C15_3 1_555 1_555
C32_3 C16_3 1_555 1_555
C36_3 C20_3 1_555 1_555
C41_3 C25_3 1_555 1_555
O2_3 C27_3 1_555 1_555
C42_3 C27_3 1_555 1_555
O3_3 C29_3 1_555 1_555
C43_3 C29_3 1_555 1_555
O4_3 C31_3 1_555 1_555
C44_3 C31_3 1_555 1_555
C49_3 O2_3 1_555 1_555
C50_3 O3_3 1_555 1_555
C51_3 O4_3 1_555 1_555
O9_3 C49_3 1_555 1_555
C54_3 C49_3 1_555 1_555
O10_3 C50_3 1_555 1_555
C55_3 C50_3 1_555 1_555
O11_3 C51_3 1_555 1_555
C56_3 C51_3 1_555 1_555
O13_3 C53_3 1_555 1_555
N17_3 Fe1_3 1_555 1_555
N18_3 Fe2_3 1_555 1_555
N19_3 Fe2_3 1_555 1_555
N20_3 Fe2_3 1_555 1_555
C59_3 N17_3 1_555 1_555
C60_3 N18_3 1_555 1_555
C61_3 N18_3 1_555 1_555
C62_3 N19_3 1_555 1_555
C63_3 N19_3 1_555 1_555
Nb2_3 C59_3 1_555 1_555
C68_3 C60_3 1_555 1_555
C69_3 C61_3 1_555 1_555
C70_3 C62_3 1_555 1_555
C76_3 Nb2_3 1_555 1_555
C77_3 Nb2_3 1_555 1_555
C78_3 Nb2_3 1_555 1_555
C79_3 Nb2_3 1_555 1_555
C80_3 Nb2_3 1_555 1_555
C81_3 Nb2_3 1_555 1_555
C82_3 Nb2_3 1_555 1_555
O14_3 C68_3 1_555 1_555
C83_3 C68_3 1_555 1_555
O15_3 C70_3 1_555 1_555
N24_3 C76_3 1_555 1_555
N25_3 C77_3 1_555 1_555
N26_3 C78_3 1_555 1_555
N27_3 C79_3 1_555 1_555
N28_3 C80_3 1_555 1_555
N29_3 C81_3 1_555 1_555
N30_3 C82_3 1_555 1_555
Fe4_2 N24_3 1_555 1_555
Fe6_5 N25_3 1_555 1_555
Fe7_3 N26_3 1_555 1_555
N31_3 Fe4_2 1_555 1_555
N32_3 Fe4_2 1_555 1_555
N33_3 Fe4_2 1_555 1_555
N34_3 Fe4_2 1_555 1_555
C91_3 N31_3 1_555 1_555
C92_3 N31_3 1_555 1_555
C93_3 N32_3 1_555 1_555
C94_3 N32_3 1_555 1_555
C95_3 N33_3 1_555 1_555
C96_3 N33_3 1_555 1_555
C97_3 N34_3 1_555 1_555
C98_3 N34_3 1_555 1_555
C99_3 C91_3 1_555 1_555
C100_3 C92_3 1_555 1_555
C101_3 C93_3 1_555 1_555
C102_3 C94_3 1_555 1_555
C103_3 C95_3 1_555 1_555
C104_3 C96_3 1_555 1_555
C105_3 C97_3 1_555 1_555
C106_3 C98_3 1_555 1_555
O20_3 C99_3 1_555 1_555
C107_3 C99_3 1_555 1_555
O21_3 C101_3 1_555 1_555
C108_3 C101_3 1_555 1_555
O22_3 C103_3 1_555 1_555
C109_3 C103_3 1_555 1_555
O23_3 C105_3 1_555 1_555
C110_3 C105_3 1_555 1_555
C111_3 O21_3 1_555 1_555
C112_3 O22_3 1_555 1_555
C113_3 O23_3 1_555 1_555
C114_3 C111_3 1_555 1_555
O25_3 C112_3 1_555 1_555
C115_3 C112_3 1_555 1_555
O26_3 C113_3 1_555 1_555
C116_3 C113_3 1_555 1_555
C26_3 C41_3 1_555 1_555
C28_3 C42_3 1_555 1_555
C30_3 C43_3 1_555 1_555
C32_3 C44_3 1_555 1_555
C69_3 C83_3 1_555 1_555
C100_3 C107_3 1_555 1_555
C102_3 C108_3 1_555 1_555
C104_3 C109_3 1_555 1_555
C106_3 C110_3 1_555 1_555
C9_3 H1_3 1_555 1_555
C14_3 H2_3 1_555 1_555
C13_3 H3_3 1_555 1_555
C10_3 H4_3 1_555 1_555
C16_3 H5_3 1_555 1_555
C12_3 H6_3 1_555 1_555
C15_3 H7_3 1_555 1_555
C11_3 H8_3 1_555 1_555
O1_3 H9_3 1_555 1_555
C41_3 H10_3 1_555 1_555
C18_3 H11_3 1_555 1_555
C30_3 H13_3 1_555 1_555
C20_3 H16_3 1_555 1_555
C19_3 H18_3 1_555 1_555
C17_3 H20_3 1_555 1_555
C28_3 H21_3 1_555 1_555
C26_3 H23_3 1_555 1_555
C32_3 H26_3 1_555 1_555
C42_3 H27_3 1_555 1_555
C54_3 H32_3 1_555 1_555
C54_3 H33_3 1_555 1_555
C54_3 H34_3 1_555 1_555
C55_3 H36_3 1_555 1_555
C55_3 H37_3 1_555 1_555
C55_3 H38_3 1_555 1_555
C44_3 H39_3 1_555 1_555
C43_3 H41_3 1_555 1_555
C56_3 H42_3 1_555 1_555
C56_3 H43_3 1_555 1_555
C56_3 H44_3 1_555 1_555
C60_3 H51_3 1_555 1_555
C62_3 H53_3 1_555 1_555
O14_3 H56_3 1_555 1_555
C83_3 H59_3 1_555 1_555
O15_3 H61_3 1_555 1_555
C61_3 H65_3 1_555 1_555
C69_3 H67_3 1_555 1_555
C91_3 H69_3 1_555 1_555
C93_3 H70_3 1_555 1_555
C97_3 H71_3 1_555 1_555
C96_3 H72_3 1_555 1_555
C94_3 H76_3 1_555 1_555
C95_3 H77_3 1_555 1_555
C100_3 H78_3 1_555 1_555
C98_3 H79_3 1_555 1_555
C92_3 H80_3 1_555 1_555
C107_3 H84_3 1_555 1_555
C114_3 H85_3 1_555 1_555
C114_3 H87_3 1_555 1_555
C108_3 H88_3 1_555 1_555
C115_3 H89_3 1_555 1_555
C115_3 H90_3 1_555 1_555
C115_3 H91_3 1_555 1_555
C106_3 H93_3 1_555 1_555
C116_3 H94_3 1_555 1_555
C116_3 H95_3 1_555 1_555
C102_3 H97_3 1_555 1_555
C110_3 H99_3 1_555 1_555
O20_3 H100_3 1_555 1_555
Fe3_3 N3_3 1_555 1_555
N15_3 Fe3_3 1_555 1_555
N16_3 Fe3_3 1_555 1_555
C21_3 N15_3 1_555 1_555
C22_3 N15_3 1_555 1_555
C23_3 N16_3 1_555 1_555
C24_3 N16_3 1_555 1_555
C37_3 C21_3 1_555 1_555
C38_3 C22_3 1_555 1_555
C39_3 C23_3 1_555 1_555
C40_3 C24_3 1_555 1_555
O5_3 C33_3 1_555 1_555
C45_3 C33_3 1_555 1_555
O7_3 C37_3 1_555 1_555
C47_3 C37_3 1_555 1_555
O8_3 C39_3 1_555 1_555
C48_3 C39_3 1_555 1_555
C52_3 O7_3 1_555 1_555
O12_3 C52_3 1_555 1_555
C57_3 C52_3 1_555 1_555
N21_3 Fe3_3 1_555 1_555
N22_3 Fe3_3 1_555 1_555
N23_3 Fe3_3 1_555 1_555
C64_3 N21_3 1_555 1_555
C65_3 N21_3 1_555 1_555
C66_3 N22_3 1_555 1_555
C67_3 N22_3 1_555 1_555
C72_3 C64_3 1_555 1_555
C73_3 C65_3 1_555 1_555
C74_3 C66_3 1_555 1_555
C75_3 C67_3 1_555 1_555
O16_3 C72_3 1_555 1_555
C85_3 C72_3 1_555 1_555
O17_3 C74_3 1_555 1_555
C86_3 C74_3 1_555 1_555
C87_3 O16_3 1_555 1_555
C88_3 O17_3 1_555 1_555
O18_3 C87_3 1_555 1_555
C89_3 C87_3 1_555 1_555
O19_3 C88_3 1_555 1_555
C90_3 C88_3 1_555 1_555
C34_3 C45_3 1_555 1_555
C38_3 C47_3 1_555 1_555
C40_3 C48_3 1_555 1_555
C73_3 C85_3 1_555 1_555
C75_3 C86_3 1_555 1_555
C21_3 H12_3 1_555 1_555
C34_3 H14_3 1_555 1_555
C38_3 H15_3 1_555 1_555
C22_3 H17_3 1_555 1_555
C24_3 H19_3 1_555 1_555
C40_3 H22_3 1_555 1_555
C23_3 H24_3 1_555 1_555
C47_3 H29_3 1_555 1_555
O5_3 H31_3 1_555 1_555
C45_3 H35_3 1_555 1_555
C57_3 H45_3 1_555 1_555
C57_3 H46_3 1_555 1_555
C57_3 H47_3 1_555 1_555
C64_3 H52_3 1_555 1_555
C75_3 H54_3 1_555 1_555
C66_3 H55_3 1_555 1_555
C85_3 H57_3 1_555 1_555
C65_3 H58_3 1_555 1_555
C73_3 H60_3 1_555 1_555
C67_3 H63_3 1_555 1_555
C86_3 H64_3 1_555 1_555
C90_3 H73_3 1_555 1_555
C90_3 H74_3 1_555 1_555
C90_3 H75_3 1_555 1_555
C89_3 H81_3 1_555 1_555
C89_3 H82_3 1_555 1_555
C89_3 H83_3 1_555 1_555
C71_3 C84_3 1_555 1_555
C58_3 H48_3 1_555 1_555
C58_3 H49_3 1_555 1_555
C84_3 H62_3 1_555 1_555
C71_3 H68_3 1_555 1_555
O6_3 C35_3 1_555 1_555
C46_3 C35_3 1_555 1_555
C46_3 H28_3 1_555 1_555
Fe7_4 N26_4 1_555 1_555
Nb1_4 C1_4 1_555 1_555
C1_4 N1_4 1_555 1_555
C2_4 Nb1_4 1_555 1_555
C3_4 Nb1_4 1_555 1_555
C4_4 Nb1_4 1_555 1_555
C5_4 Nb1_4 1_555 1_555
C6_4 Nb1_4 1_555 1_555
C7_4 Nb1_4 1_555 1_555
C8_4 Nb1_4 1_555 1_555
N1_4 Fe1_4 1_555 1_555
N2_4 C2_4 1_555 1_555
N3_4 C3_4 1_555 1_555
N4_3 C4_4 1_555 1_555
N5_4 C5_4 1_555 1_555
N6_4 C6_4 1_555 1_555
N7_4 C7_4 1_555 1_555
N8_4 C8_4 1_555 1_555
Fe1_4 N9_4 1_555 1_555
Fe2_4 N2_4 1_555 1_555
Fe3_4 N3_4 1_555 1_555
N9_4 C9_4 1_555 1_555
N10_4 Fe1_4 1_555 1_555
N11_4 Fe1_4 1_555 1_555
N12_4 Fe1_4 1_555 1_555
N15_4 Fe3_4 1_555 1_555
N16_4 Fe3_4 1_555 1_555
C9_4 C25_4 1_555 1_555
C10_4 N9_4 1_555 1_555
C11_4 N10_4 1_555 1_555
C12_4 N10_4 1_555 1_555
C13_4 N11_4 1_555 1_555
C14_4 N11_4 1_555 1_555
C15_4 N12_4 1_555 1_555
C16_4 N12_4 1_555 1_555
C21_4 N15_4 1_555 1_555
C22_4 N15_4 1_555 1_555
C23_4 N16_4 1_555 1_555
C24_4 N16_4 1_555 1_555
C25_4 O1_4 1_555 1_555
C26_4 C10_4 1_555 1_555
C27_4 C11_4 1_555 1_555
C28_4 C12_4 1_555 1_555
C29_4 C13_4 1_555 1_555
C30_4 C14_4 1_555 1_555
C31_4 C15_4 1_555 1_555
C32_4 C16_4 1_555 1_555
C33_4 C17_4 1_555 1_555
C36_4 C20_4 1_555 1_555
C37_4 C21_4 1_555 1_555
C38_4 C22_4 1_555 1_555
C39_4 C23_4 1_555 1_555
C40_4 C24_4 1_555 1_555
C41_4 C25_4 1_555 1_555
O2_4 C27_4 1_555 1_555
C42_4 C27_4 1_555 1_555
O3_4 C29_4 1_555 1_555
C43_4 C29_4 1_555 1_555
O4_4 C31_4 1_555 1_555
C44_4 C31_4 1_555 1_555
O5_4 C33_4 1_555 1_555
O7_4 C37_4 1_555 1_555
C47_4 C37_4 1_555 1_555
O8_4 C39_4 1_555 1_555
C48_4 C39_4 1_555 1_555
C49_4 O2_4 1_555 1_555
C50_4 O3_4 1_555 1_555
C51_4 O4_4 1_555 1_555
C52_4 O7_4 1_555 1_555
C53_4 O8_4 1_555 1_555
C54_4 C49_4 1_555 1_555
O10_4 C50_4 1_555 1_555
C55_4 C50_4 1_555 1_555
O11_4 C51_4 1_555 1_555
C56_4 C51_4 1_555 1_555
O12_4 C52_4 1_555 1_555
C57_4 C52_4 1_555 1_555
O13_4 C53_4 1_555 1_555
C58_4 C53_4 1_555 1_555
Fe4_3 N4_3 1_555 1_555
N17_4 Fe1_4 1_555 1_555
N18_4 Fe2_4 1_555 1_555
N19_4 Fe2_4 1_555 1_555
N21_4 Fe3_4 1_555 1_555
N22_4 Fe3_4 1_555 1_555
N23_4 Fe3_4 1_555 1_555
C59_4 N17_4 1_555 1_555
C61_4 N18_4 1_555 1_555
C62_4 N19_4 1_555 1_555
C64_4 N21_4 1_555 1_555
C65_4 N21_4 1_555 1_555
C66_4 N22_4 1_555 1_555
C67_4 N22_4 1_555 1_555
Nb2_4 C59_4 1_555 1_555
C69_4 C61_4 1_555 1_555
C70_4 C62_4 1_555 1_555
C72_4 C64_4 1_555 1_555
C73_4 C65_4 1_555 1_555
C74_4 C66_4 1_555 1_555
C75_4 C67_4 1_555 1_555
C76_4 Nb2_4 1_555 1_555
C77_4 Nb2_4 1_555 1_555
C78_4 Nb2_4 1_555 1_555
C79_4 Nb2_4 1_555 1_555
C80_4 Nb2_4 1_555 1_555
C81_4 Nb2_4 1_555 1_555
C82_4 Nb2_4 1_555 1_555
O15_4 C70_4 1_555 1_555
C84_4 C70_4 1_555 1_555
O16_4 C72_4 1_555 1_555
C85_4 C72_4 1_555 1_555
O17_4 C74_4 1_555 1_555
C86_4 C74_4 1_555 1_555
N24_4 C76_4 1_555 1_555
N25_4 C77_4 1_555 1_555
N27_4 C79_4 1_555 1_555
N28_4 C80_4 1_555 1_555
N29_4 C81_4 1_555 1_555
N30_4 C82_4 1_555 1_555
C87_4 O16_4 1_555 1_555
C88_4 O17_4 1_555 1_555
Fe5_2 N24_4 1_555 1_555
Fe6_6 N25_4 1_555 1_555
O18_4 C87_4 1_555 1_555
C89_4 C87_4 1_555 1_555
O19_4 C88_4 1_555 1_555
N31_4 Fe5_2 1_555 1_555
N32_4 Fe5_2 1_555 1_555
N33_4 Fe5_2 1_555 1_555
N34_4 Fe5_2 1_555 1_555
N35_2 Fe5_2 1_555 1_555
C91_4 N31_4 1_555 1_555
C92_4 N31_4 1_555 1_555
C93_4 N32_4 1_555 1_555
C94_4 N32_4 1_555 1_555
C95_4 N33_4 1_555 1_555
C96_4 N33_4 1_555 1_555
C97_4 N34_4 1_555 1_555
C98_4 N34_4 1_555 1_555
C99_4 C91_4 1_555 1_555
C100_4 C92_4 1_555 1_555
C101_4 C93_4 1_555 1_555
C102_4 C94_4 1_555 1_555
C103_4 C95_4 1_555 1_555
C104_4 C96_4 1_555 1_555
C105_4 C97_4 1_555 1_555
C106_4 C98_4 1_555 1_555
O20_4 C99_4 1_555 1_555
C107_4 C99_4 1_555 1_555
O21_4 C101_4 1_555 1_555
C108_4 C101_4 1_555 1_555
O22_4 C103_4 1_555 1_555
C109_4 C103_4 1_555 1_555
O23_4 C105_4 1_555 1_555
C110_4 C105_4 1_555 1_555
C111_4 O21_4 1_555 1_555
C112_4 O22_4 1_555 1_555
C113_4 O23_4 1_555 1_555
O24_4 C111_4 1_555 1_555
C114_4 C111_4 1_555 1_555
O25_4 C112_4 1_555 1_555
C115_4 C112_4 1_555 1_555
O26_4 C113_4 1_555 1_555
C116_4 C113_4 1_555 1_555
C26_4 C41_4 1_555 1_555
C28_4 C42_4 1_555 1_555
C30_4 C43_4 1_555 1_555
C32_4 C44_4 1_555 1_555
C38_4 C47_4 1_555 1_555
C40_4 C48_4 1_555 1_555
C69_4 C83_4 1_555 1_555
C73_4 C85_4 1_555 1_555
C75_4 C86_4 1_555 1_555
C100_4 C107_4 1_555 1_555
C102_4 C108_4 1_555 1_555
C104_4 C109_4 1_555 1_555
C106_4 C110_4 1_555 1_555
C9_4 H1_4 1_555 1_555
C14_4 H2_4 1_555 1_555
C13_4 H3_4 1_555 1_555
C10_4 H4_4 1_555 1_555
C16_4 H5_4 1_555 1_555
C12_4 H6_4 1_555 1_555
C15_4 H7_4 1_555 1_555
C11_4 H8_4 1_555 1_555
O1_4 H9_4 1_555 1_555
C41_4 H10_4 1_555 1_555
C21_4 H12_4 1_555 1_555
C38_4 H15_4 1_555 1_555
C20_4 H16_4 1_555 1_555
C22_4 H17_4 1_555 1_555
C24_4 H19_4 1_555 1_555
C17_4 H20_4 1_555 1_555
C28_4 H21_4 1_555 1_555
C40_4 H22_4 1_555 1_555
C26_4 H23_4 1_555 1_555
C23_4 H24_4 1_555 1_555
C36_4 H25_4 1_555 1_555
C32_4 H26_4 1_555 1_555
C42_4 H27_4 1_555 1_555
C47_4 H29_4 1_555 1_555
C48_4 H30_4 1_555 1_555
O5_4 H31_4 1_555 1_555
C54_4 H32_4 1_555 1_555
C54_4 H34_4 1_555 1_555
C55_4 H36_4 1_555 1_555
C55_4 H37_4 1_555 1_555
C55_4 H38_4 1_555 1_555
C44_4 H39_4 1_555 1_555
C56_4 H43_4 1_555 1_555
C56_4 H44_4 1_555 1_555
C57_4 H45_4 1_555 1_555
C57_4 H46_4 1_555 1_555
C57_4 H47_4 1_555 1_555
C58_4 H48_4 1_555 1_555
C58_4 H49_4 1_555 1_555
C58_4 H50_4 1_555 1_555
C64_4 H52_4 1_555 1_555
C62_4 H53_4 1_555 1_555
C75_4 H54_4 1_555 1_555
C66_4 H55_4 1_555 1_555
C85_4 H57_4 1_555 1_555
C65_4 H58_4 1_555 1_555
C83_4 H59_4 1_555 1_555
C73_4 H60_4 1_555 1_555
O15_4 H61_4 1_555 1_555
C84_4 H62_4 1_555 1_555
C67_4 H63_4 1_555 1_555
C61_4 H65_4 1_555 1_555
C69_4 H67_4 1_555 1_555
C91_4 H69_4 1_555 1_555
C93_4 H70_4 1_555 1_555
C97_4 H71_4 1_555 1_555
C96_4 H72_4 1_555 1_555
C94_4 H76_4 1_555 1_555
C95_4 H77_4 1_555 1_555
C100_4 H78_4 1_555 1_555
C98_4 H79_4 1_555 1_555
C92_4 H80_4 1_555 1_555
C89_4 H81_4 1_555 1_555
C89_4 H82_4 1_555 1_555
C89_4 H83_4 1_555 1_555
C107_4 H84_4 1_555 1_555
C114_4 H85_4 1_555 1_555
C114_4 H86_4 1_555 1_555
C114_4 H87_4 1_555 1_555
C108_4 H88_4 1_555 1_555
C115_4 H89_4 1_555 1_555
C115_4 H90_4 1_555 1_555
C115_4 H91_4 1_555 1_555
C104_4 H92_4 1_555 1_555
C106_4 H93_4 1_555 1_555
C116_4 H94_4 1_555 1_555
C116_4 H95_4 1_555 1_555
C116_4 H96_4 1_555 1_555
C102_4 H97_4 1_555 1_555
C109_4 H98_4 1_555 1_555
C110_4 H99_4 1_555 1_555
O20_4 H100_4 1_555 1_555
N13_4 Fe2_5 1_555 1_555
N14_4 Fe2_5 1_555 1_555
C18_4 N13_4 1_555 1_555
C19_4 N14_4 1_555 1_555
C34_4 C18_4 1_555 1_555
C35_4 C19_4 1_555 1_555
O6_4 C35_4 1_555 1_555
C46_4 C35_4 1_555 1_555
N20_4 Fe2_5 1_555 1_555
C68_4 C60_4 1_555 1_555
C71_4 C63_4 1_555 1_555
O14_4 C68_4 1_555 1_555
C34_4 C45_4 1_555 1_555
C18_4 H11_4 1_555 1_555
C34_4 H14_4 1_555 1_555
C19_4 H18_4 1_555 1_555
C46_4 H28_4 1_555 1_555
C45_4 H35_4 1_555 1_555
O6_4 H40_4 1_555 1_555
C60_4 H51_4 1_555 1_555
O14_4 H56_4 1_555 1_555
C63_4 H66_4 1_555 1_555
C71_4 H68_4 1_555 1_555
C90_4 H73_4 1_555 1_555
C90_4 H74_4 1_555 1_555
C90_4 H75_4 1_555 1_555
N13_5 Fe2_6 1_555 1_555
N14_5 Fe2_6 1_555 1_555
C18_5 N13_5 1_555 1_555
C19_5 N14_5 1_555 1_555
C34_5 C18_5 1_555 1_555
C35_5 C19_5 1_555 1_555
O6_5 C35_5 1_555 1_555
C46_5 C35_5 1_555 1_555
N20_5 Fe2_6 1_555 1_555
C68_5 C60_5 1_555 1_555
C71_5 C63_5 1_555 1_555
O14_5 C68_5 1_555 1_555
C34_5 C45_5 1_555 1_555
C18_5 H11_5 1_555 1_555
C34_5 H14_5 1_555 1_555
C19_5 H18_5 1_555 1_555
C46_5 H28_5 1_555 1_555
C45_5 H35_5 1_555 1_555
O6_5 H40_5 1_555 1_555
C60_5 H51_5 1_555 1_555
O14_5 H56_5 1_555 1_555
C63_5 H66_5 1_555 1_555
C71_5 H68_5 1_555 1_555
C90_5 H73_5 1_555 1_555
C90_5 H74_5 1_555 1_555
C90_5 H75_5 1_555 1_555
Fe7_5 N26_5 1_555 1_555
Nb1_5 C1_5 1_555 1_555
C1_5 N1_5 1_555 1_555
C2_5 Nb1_5 1_555 1_555
C3_5 Nb1_5 1_555 1_555
C4_5 Nb1_5 1_555 1_555
C5_5 Nb1_5 1_555 1_555
C6_5 Nb1_5 1_555 1_555
C7_5 Nb1_5 1_555 1_555
C8_5 Nb1_5 1_555 1_555
N1_5 Fe1_5 1_555 1_555
N2_5 C2_5 1_555 1_555
N3_5 C3_5 1_555 1_555
N4_4 C4_5 1_555 1_555
N5_5 C5_5 1_555 1_555
N6_5 C6_5 1_555 1_555
N7_5 C7_5 1_555 1_555
N8_5 C8_5 1_555 1_555
Fe1_5 N9_5 1_555 1_555
Fe2_7 N2_5 1_555 1_555
Fe3_5 N3_5 1_555 1_555
N9_5 C9_5 1_555 1_555
N10_5 Fe1_5 1_555 1_555
N11_5 Fe1_5 1_555 1_555
N12_5 Fe1_5 1_555 1_555
N15_5 Fe3_5 1_555 1_555
N16_5 Fe3_5 1_555 1_555
C9_5 C25_5 1_555 1_555
C10_5 N9_5 1_555 1_555
C11_5 N10_5 1_555 1_555
C12_5 N10_5 1_555 1_555
C13_5 N11_5 1_555 1_555
C14_5 N11_5 1_555 1_555
C15_5 N12_5 1_555 1_555
C16_5 N12_5 1_555 1_555
C21_5 N15_5 1_555 1_555
C22_5 N15_5 1_555 1_555
C23_5 N16_5 1_555 1_555
C24_5 N16_5 1_555 1_555
C25_5 O1_5 1_555 1_555
C26_5 C10_5 1_555 1_555
C27_5 C11_5 1_555 1_555
C28_5 C12_5 1_555 1_555
C29_5 C13_5 1_555 1_555
C30_5 C14_5 1_555 1_555
C31_5 C15_5 1_555 1_555
C32_5 C16_5 1_555 1_555
C33_5 C17_5 1_555 1_555
C36_5 C20_5 1_555 1_555
C37_5 C21_5 1_555 1_555
C38_5 C22_5 1_555 1_555
C39_5 C23_5 1_555 1_555
C40_5 C24_5 1_555 1_555
C41_5 C25_5 1_555 1_555
O2_5 C27_5 1_555 1_555
C42_5 C27_5 1_555 1_555
O3_5 C29_5 1_555 1_555
C43_5 C29_5 1_555 1_555
O4_5 C31_5 1_555 1_555
C44_5 C31_5 1_555 1_555
O5_5 C33_5 1_555 1_555
O7_5 C37_5 1_555 1_555
C47_5 C37_5 1_555 1_555
O8_5 C39_5 1_555 1_555
C48_5 C39_5 1_555 1_555
C49_5 O2_5 1_555 1_555
C50_5 O3_5 1_555 1_555
C51_5 O4_5 1_555 1_555
C52_5 O7_5 1_555 1_555
C53_5 O8_5 1_555 1_555
C54_5 C49_5 1_555 1_555
O10_5 C50_5 1_555 1_555
C55_5 C50_5 1_555 1_555
O11_5 C51_5 1_555 1_555
C56_5 C51_5 1_555 1_555
O12_5 C52_5 1_555 1_555
C57_5 C52_5 1_555 1_555
O13_5 C53_5 1_555 1_555
C58_5 C53_5 1_555 1_555
Fe4_4 N4_4 1_555 1_555
N17_5 Fe1_5 1_555 1_555
N18_5 Fe2_7 1_555 1_555
N19_5 Fe2_7 1_555 1_555
N21_5 Fe3_5 1_555 1_555
N22_5 Fe3_5 1_555 1_555
N23_5 Fe3_5 1_555 1_555
C59_5 N17_5 1_555 1_555
C61_5 N18_5 1_555 1_555
C62_5 N19_5 1_555 1_555
C64_5 N21_5 1_555 1_555
C65_5 N21_5 1_555 1_555
C66_5 N22_5 1_555 1_555
C67_5 N22_5 1_555 1_555
Nb2_5 C59_5 1_555 1_555
C69_5 C61_5 1_555 1_555
C70_5 C62_5 1_555 1_555
C72_5 C64_5 1_555 1_555
C73_5 C65_5 1_555 1_555
C74_5 C66_5 1_555 1_555
C75_5 C67_5 1_555 1_555
C76_5 Nb2_5 1_555 1_555
C77_5 Nb2_5 1_555 1_555
C78_5 Nb2_5 1_555 1_555
C79_5 Nb2_5 1_555 1_555
C80_5 Nb2_5 1_555 1_555
C81_5 Nb2_5 1_555 1_555
C82_5 Nb2_5 1_555 1_555
O15_5 C70_5 1_555 1_555
C84_5 C70_5 1_555 1_555
O16_5 C72_5 1_555 1_555
C85_5 C72_5 1_555 1_555
O17_5 C74_5 1_555 1_555
C86_5 C74_5 1_555 1_555
N24_5 C76_5 1_555 1_555
N25_5 C77_5 1_555 1_555
N27_5 C79_5 1_555 1_555
N28_5 C80_5 1_555 1_555
N29_5 C81_5 1_555 1_555
N30_5 C82_5 1_555 1_555
C87_5 O16_5 1_555 1_555
C88_5 O17_5 1_555 1_555
Fe4_3 N24_5 1_555 1_555
Fe6_7 N25_5 1_555 1_555
O18_5 C87_5 1_555 1_555
C89_5 C87_5 1_555 1_555
O19_5 C88_5 1_555 1_555
N31_5 Fe4_3 1_555 1_555
N32_5 Fe4_3 1_555 1_555
N33_5 Fe4_3 1_555 1_555
N34_5 Fe4_3 1_555 1_555
C91_5 N31_5 1_555 1_555
C92_5 N31_5 1_555 1_555
C93_5 N32_5 1_555 1_555
C94_5 N32_5 1_555 1_555
C95_5 N33_5 1_555 1_555
C96_5 N33_5 1_555 1_555
C97_5 N34_5 1_555 1_555
C98_5 N34_5 1_555 1_555
C99_5 C91_5 1_555 1_555
C100_5 C92_5 1_555 1_555
C101_5 C93_5 1_555 1_555
C102_5 C94_5 1_555 1_555
C103_5 C95_5 1_555 1_555
C104_5 C96_5 1_555 1_555
C105_5 C97_5 1_555 1_555
C106_5 C98_5 1_555 1_555
O20_5 C99_5 1_555 1_555
C107_5 C99_5 1_555 1_555
O21_5 C101_5 1_555 1_555
C108_5 C101_5 1_555 1_555
O22_5 C103_5 1_555 1_555
C109_5 C103_5 1_555 1_555
O23_5 C105_5 1_555 1_555
C110_5 C105_5 1_555 1_555
C111_5 O21_5 1_555 1_555
C112_5 O22_5 1_555 1_555
C113_5 O23_5 1_555 1_555
O24_5 C111_5 1_555 1_555
C114_5 C111_5 1_555 1_555
O25_5 C112_5 1_555 1_555
C115_5 C112_5 1_555 1_555
O26_5 C113_5 1_555 1_555
C116_5 C113_5 1_555 1_555
C26_5 C41_5 1_555 1_555
C28_5 C42_5 1_555 1_555
C30_5 C43_5 1_555 1_555
C32_5 C44_5 1_555 1_555
C38_5 C47_5 1_555 1_555
C40_5 C48_5 1_555 1_555
C69_5 C83_5 1_555 1_555
C73_5 C85_5 1_555 1_555
C75_5 C86_5 1_555 1_555
C100_5 C107_5 1_555 1_555
C102_5 C108_5 1_555 1_555
C104_5 C109_5 1_555 1_555
C106_5 C110_5 1_555 1_555
C9_5 H1_5 1_555 1_555
C14_5 H2_5 1_555 1_555
C13_5 H3_5 1_555 1_555
C10_5 H4_5 1_555 1_555
C16_5 H5_5 1_555 1_555
C12_5 H6_5 1_555 1_555
C15_5 H7_5 1_555 1_555
C11_5 H8_5 1_555 1_555
O1_5 H9_5 1_555 1_555
C41_5 H10_5 1_555 1_555
C21_5 H12_5 1_555 1_555
C38_5 H15_5 1_555 1_555
C20_5 H16_5 1_555 1_555
C22_5 H17_5 1_555 1_555
C24_5 H19_5 1_555 1_555
C17_5 H20_5 1_555 1_555
C28_5 H21_5 1_555 1_555
C40_5 H22_5 1_555 1_555
C26_5 H23_5 1_555 1_555
C23_5 H24_5 1_555 1_555
C36_5 H25_5 1_555 1_555
C32_5 H26_5 1_555 1_555
C42_5 H27_5 1_555 1_555
C47_5 H29_5 1_555 1_555
C48_5 H30_5 1_555 1_555
O5_5 H31_5 1_555 1_555
C54_5 H32_5 1_555 1_555
C54_5 H34_5 1_555 1_555
C55_5 H36_5 1_555 1_555
C55_5 H37_5 1_555 1_555
C55_5 H38_5 1_555 1_555
C44_5 H39_5 1_555 1_555
C56_5 H43_5 1_555 1_555
C56_5 H44_5 1_555 1_555
C57_5 H45_5 1_555 1_555
C57_5 H46_5 1_555 1_555
C57_5 H47_5 1_555 1_555
C58_5 H48_5 1_555 1_555
C58_5 H49_5 1_555 1_555
C58_5 H50_5 1_555 1_555
C64_5 H52_5 1_555 1_555
C62_5 H53_5 1_555 1_555
C75_5 H54_5 1_555 1_555
C66_5 H55_5 1_555 1_555
C85_5 H57_5 1_555 1_555
C65_5 H58_5 1_555 1_555
C83_5 H59_5 1_555 1_555
C73_5 H60_5 1_555 1_555
O15_5 H61_5 1_555 1_555
C84_5 H62_5 1_555 1_555
C67_5 H63_5 1_555 1_555
C61_5 H65_5 1_555 1_555
C69_5 H67_5 1_555 1_555
C91_5 H69_5 1_555 1_555
C93_5 H70_5 1_555 1_555
C97_5 H71_5 1_555 1_555
C96_5 H72_5 1_555 1_555
C94_5 H76_5 1_555 1_555
C95_5 H77_5 1_555 1_555
C100_5 H78_5 1_555 1_555
C98_5 H79_5 1_555 1_555
C92_5 H80_5 1_555 1_555
C89_5 H81_5 1_555 1_555
C89_5 H82_5 1_555 1_555
C89_5 H83_5 1_555 1_555
C107_5 H84_5 1_555 1_555
C114_5 H85_5 1_555 1_555
C114_5 H86_5 1_555 1_555
C114_5 H87_5 1_555 1_555
C108_5 H88_5 1_555 1_555
C115_5 H89_5 1_555 1_555
C115_5 H90_5 1_555 1_555
C115_5 H91_5 1_555 1_555
C104_5 H92_5 1_555 1_555
C106_5 H93_5 1_555 1_555
C116_5 H94_5 1_555 1_555
C116_5 H95_5 1_555 1_555
C116_5 H96_5 1_555 1_555
C102_5 H97_5 1_555 1_555
C109_5 H98_5 1_555 1_555
C110_5 H99_5 1_555 1_555
O20_5 H100_5 1_555 1_555
Fe7_6 N26_6 1_555 1_555
Nb1_6 C1_6 1_555 1_555
C1_6 N1_6 1_555 1_555
C2_6 Nb1_6 1_555 1_555
C3_6 Nb1_6 1_555 1_555
C4_6 Nb1_6 1_555 1_555
C5_6 Nb1_6 1_555 1_555
C6_6 Nb1_6 1_555 1_555
C7_6 Nb1_6 1_555 1_555
C8_6 Nb1_6 1_555 1_555
N1_6 Fe1_6 1_555 1_555
N2_6 C2_6 1_555 1_555
N3_6 C3_6 1_555 1_555
N35_2 C4_6 1_555 1_555
N5_6 C5_6 1_555 1_555
N6_6 C6_6 1_555 1_555
N7_6 C7_6 1_555 1_555
N8_6 C8_6 1_555 1_555
Fe1_6 N9_6 1_555 1_555
Fe2_8 N2_6 1_555 1_555
Fe3_6 N3_6 1_555 1_555
N9_6 C9_6 1_555 1_555
N10_6 Fe1_6 1_555 1_555
N11_6 Fe1_6 1_555 1_555
N12_6 Fe1_6 1_555 1_555
N13_6 Fe2_8 1_555 1_555
N14_6 Fe2_8 1_555 1_555
N15_6 Fe3_6 1_555 1_555
N16_6 Fe3_6 1_555 1_555
C9_6 C25_6 1_555 1_555
C10_6 N9_6 1_555 1_555
C11_6 N10_6 1_555 1_555
C12_6 N10_6 1_555 1_555
C13_6 N11_6 1_555 1_555
C14_6 N11_6 1_555 1_555
C15_6 N12_6 1_555 1_555
C16_6 N12_6 1_555 1_555
C17_6 N13_6 1_555 1_555
C18_6 N13_6 1_555 1_555
C19_6 N14_6 1_555 1_555
C20_6 N14_6 1_555 1_555
C21_6 N15_6 1_555 1_555
C22_6 N15_6 1_555 1_555
C23_6 N16_6 1_555 1_555
C24_6 N16_6 1_555 1_555
C25_6 O1_6 1_555 1_555
C26_6 C10_6 1_555 1_555
C27_6 C11_6 1_555 1_555
C28_6 C12_6 1_555 1_555
C29_6 C13_6 1_555 1_555
C30_6 C14_6 1_555 1_555
C31_6 C15_6 1_555 1_555
C32_6 C16_6 1_555 1_555
C33_6 C17_6 1_555 1_555
C34_6 C18_6 1_555 1_555
C35_6 C19_6 1_555 1_555
C36_6 C20_6 1_555 1_555
C37_6 C21_6 1_555 1_555
C38_6 C22_6 1_555 1_555
C39_6 C23_6 1_555 1_555
C40_6 C24_6 1_555 1_555
C41_6 C25_6 1_555 1_555
O2_6 C27_6 1_555 1_555
C42_6 C27_6 1_555 1_555
O3_6 C29_6 1_555 1_555
C43_6 C29_6 1_555 1_555
O4_6 C31_6 1_555 1_555
C44_6 C31_6 1_555 1_555
O5_6 C33_6 1_555 1_555
C45_6 C33_6 1_555 1_555
O6_6 C35_6 1_555 1_555
C46_6 C35_6 1_555 1_555
O7_6 C37_6 1_555 1_555
C47_6 C37_6 1_555 1_555
O8_6 C39_6 1_555 1_555
C48_6 C39_6 1_555 1_555
C49_6 O2_6 1_555 1_555
C50_6 O3_6 1_555 1_555
C51_6 O4_6 1_555 1_555
C52_6 O7_6 1_555 1_555
C53_6 O8_6 1_555 1_555
O9_6 C49_6 1_555 1_555
C54_6 C49_6 1_555 1_555
O10_6 C50_6 1_555 1_555
C55_6 C50_6 1_555 1_555
O11_6 C51_6 1_555 1_555
C56_6 C51_6 1_555 1_555
O12_6 C52_6 1_555 1_555
C57_6 C52_6 1_555 1_555
O13_6 C53_6 1_555 1_555
C58_6 C53_6 1_555 1_555
N17_6 Fe1_6 1_555 1_555
N18_6 Fe2_8 1_555 1_555
N19_6 Fe2_8 1_555 1_555
N20_6 Fe2_8 1_555 1_555
N21_6 Fe3_6 1_555 1_555
N22_6 Fe3_6 1_555 1_555
N23_6 Fe3_6 1_555 1_555
C59_6 N17_6 1_555 1_555
C60_6 N18_6 1_555 1_555
C61_6 N18_6 1_555 1_555
C62_6 N19_6 1_555 1_555
C63_6 N19_6 1_555 1_555
C64_6 N21_6 1_555 1_555
C65_6 N21_6 1_555 1_555
C66_6 N22_6 1_555 1_555
C67_6 N22_6 1_555 1_555
Nb2_6 C59_6 1_555 1_555
C68_6 C60_6 1_555 1_555
C69_6 C61_6 1_555 1_555
C70_6 C62_6 1_555 1_555
C71_6 C63_6 1_555 1_555
C72_6 C64_6 1_555 1_555
C73_6 C65_6 1_555 1_555
C74_6 C66_6 1_555 1_555
C75_6 C67_6 1_555 1_555
C76_6 Nb2_6 1_555 1_555
C77_6 Nb2_6 1_555 1_555
C78_6 Nb2_6 1_555 1_555
C79_6 Nb2_6 1_555 1_555
C80_6 Nb2_6 1_555 1_555
C81_6 Nb2_6 1_555 1_555
C82_6 Nb2_6 1_555 1_555
O14_6 C68_6 1_555 1_555
C83_6 C68_6 1_555 1_555
O15_6 C70_6 1_555 1_555
C84_6 C70_6 1_555 1_555
O16_6 C72_6 1_555 1_555
C85_6 C72_6 1_555 1_555
O17_6 C74_6 1_555 1_555
C86_6 C74_6 1_555 1_555
N24_6 C76_6 1_555 1_555
N25_6 C77_6 1_555 1_555
N27_6 C79_6 1_555 1_555
N28_6 C80_6 1_555 1_555
N29_6 C81_6 1_555 1_555
N30_6 C82_6 1_555 1_555
C87_6 O16_6 1_555 1_555
C88_6 O17_6 1_555 1_555
Fe4_4 N24_6 1_555 1_555
Fe6_8 N25_6 1_555 1_555
O18_6 C87_6 1_555 1_555
C89_6 C87_6 1_555 1_555
O19_6 C88_6 1_555 1_555
C90_6 C88_6 1_555 1_555
N31_6 Fe4_4 1_555 1_555
N32_6 Fe4_4 1_555 1_555
N33_6 Fe4_4 1_555 1_555
N34_6 Fe4_4 1_555 1_555
C91_6 N31_6 1_555 1_555
C92_6 N31_6 1_555 1_555
C93_6 N32_6 1_555 1_555
C94_6 N32_6 1_555 1_555
C95_6 N33_6 1_555 1_555
C96_6 N33_6 1_555 1_555
C97_6 N34_6 1_555 1_555
C98_6 N34_6 1_555 1_555
C99_6 C91_6 1_555 1_555
C100_6 C92_6 1_555 1_555
C101_6 C93_6 1_555 1_555
C102_6 C94_6 1_555 1_555
C103_6 C95_6 1_555 1_555
C104_6 C96_6 1_555 1_555
C105_6 C97_6 1_555 1_555
C106_6 C98_6 1_555 1_555
O20_6 C99_6 1_555 1_555
C107_6 C99_6 1_555 1_555
O21_6 C101_6 1_555 1_555
C108_6 C101_6 1_555 1_555
O22_6 C103_6 1_555 1_555
C109_6 C103_6 1_555 1_555
O23_6 C105_6 1_555 1_555
C110_6 C105_6 1_555 1_555
C111_6 O21_6 1_555 1_555
C112_6 O22_6 1_555 1_555
C113_6 O23_6 1_555 1_555
O24_6 C111_6 1_555 1_555
C114_6 C111_6 1_555 1_555
O25_6 C112_6 1_555 1_555
C115_6 C112_6 1_555 1_555
O26_6 C113_6 1_555 1_555
C116_6 C113_6 1_555 1_555
C26_6 C41_6 1_555 1_555
C28_6 C42_6 1_555 1_555
C30_6 C43_6 1_555 1_555
C32_6 C44_6 1_555 1_555
C34_6 C45_6 1_555 1_555
C36_6 C46_6 1_555 1_555
C38_6 C47_6 1_555 1_555
C40_6 C48_6 1_555 1_555
C69_6 C83_6 1_555 1_555
C71_6 C84_6 1_555 1_555
C73_6 C85_6 1_555 1_555
C75_6 C86_6 1_555 1_555
C100_6 C107_6 1_555 1_555
C102_6 C108_6 1_555 1_555
C104_6 C109_6 1_555 1_555
C106_6 C110_6 1_555 1_555
C9_6 H1_6 1_555 1_555
C14_6 H2_6 1_555 1_555
C13_6 H3_6 1_555 1_555
C10_6 H4_6 1_555 1_555
C16_6 H5_6 1_555 1_555
C12_6 H6_6 1_555 1_555
C15_6 H7_6 1_555 1_555
C11_6 H8_6 1_555 1_555
O1_6 H9_6 1_555 1_555
C41_6 H10_6 1_555 1_555
C18_6 H11_6 1_555 1_555
C21_6 H12_6 1_555 1_555
C34_6 H14_6 1_555 1_555
C38_6 H15_6 1_555 1_555
C20_6 H16_6 1_555 1_555
C22_6 H17_6 1_555 1_555
C19_6 H18_6 1_555 1_555
C24_6 H19_6 1_555 1_555
C17_6 H20_6 1_555 1_555
C28_6 H21_6 1_555 1_555
C40_6 H22_6 1_555 1_555
C26_6 H23_6 1_555 1_555
C23_6 H24_6 1_555 1_555
C36_6 H25_6 1_555 1_555
C32_6 H26_6 1_555 1_555
C42_6 H27_6 1_555 1_555
C46_6 H28_6 1_555 1_555
C47_6 H29_6 1_555 1_555
C48_6 H30_6 1_555 1_555
O5_6 H31_6 1_555 1_555
C54_6 H32_6 1_555 1_555
C54_6 H33_6 1_555 1_555
C54_6 H34_6 1_555 1_555
C45_6 H35_6 1_555 1_555
C55_6 H36_6 1_555 1_555
C55_6 H37_6 1_555 1_555
C55_6 H38_6 1_555 1_555
C44_6 H39_6 1_555 1_555
O6_6 H40_6 1_555 1_555
C56_6 H43_6 1_555 1_555
C56_6 H44_6 1_555 1_555
C57_6 H45_6 1_555 1_555
C57_6 H46_6 1_555 1_555
C57_6 H47_6 1_555 1_555
C58_6 H48_6 1_555 1_555
C58_6 H49_6 1_555 1_555
C58_6 H50_6 1_555 1_555
C60_6 H51_6 1_555 1_555
C64_6 H52_6 1_555 1_555
C62_6 H53_6 1_555 1_555
C75_6 H54_6 1_555 1_555
C66_6 H55_6 1_555 1_555
O14_6 H56_6 1_555 1_555
C85_6 H57_6 1_555 1_555
C65_6 H58_6 1_555 1_555
C83_6 H59_6 1_555 1_555
C73_6 H60_6 1_555 1_555
O15_6 H61_6 1_555 1_555
C84_6 H62_6 1_555 1_555
C67_6 H63_6 1_555 1_555
C86_6 H64_6 1_555 1_555
C61_6 H65_6 1_555 1_555
C63_6 H66_6 1_555 1_555
C69_6 H67_6 1_555 1_555
C71_6 H68_6 1_555 1_555
C91_6 H69_6 1_555 1_555
C93_6 H70_6 1_555 1_555
C97_6 H71_6 1_555 1_555
C96_6 H72_6 1_555 1_555
C90_6 H73_6 1_555 1_555
C90_6 H74_6 1_555 1_555
C90_6 H75_6 1_555 1_555
C94_6 H76_6 1_555 1_555
C95_6 H77_6 1_555 1_555
C100_6 H78_6 1_555 1_555
C98_6 H79_6 1_555 1_555
C92_6 H80_6 1_555 1_555
C89_6 H81_6 1_555 1_555
C89_6 H82_6 1_555 1_555
C89_6 H83_6 1_555 1_555
C107_6 H84_6 1_555 1_555
C114_6 H85_6 1_555 1_555
C114_6 H86_6 1_555 1_555
C114_6 H87_6 1_555 1_555
C108_6 H88_6 1_555 1_555
C115_6 H89_6 1_555 1_555
C115_6 H90_6 1_555 1_555
C115_6 H91_6 1_555 1_555
C104_6 H92_6 1_555 1_555
C106_6 H93_6 1_555 1_555
C116_6 H94_6 1_555 1_555
C116_6 H95_6 1_555 1_555
C116_6 H96_6 1_555 1_555
C102_6 H97_6 1_555 1_555
C109_6 H98_6 1_555 1_555
C110_6 H99_6 1_555 1_555
O20_6 H100_6 1_555 1_555
N4_5 C4_7 1_555 1_555
N7_7 C7_7 1_555 1_555
N15_7 Fe3_7 1_555 1_555
N16_7 Fe3_7 1_555 1_555
C21_7 N15_7 1_555 1_555
C22_7 N15_7 1_555 1_555
C23_7 N16_7 1_555 1_555
C24_7 N16_7 1_555 1_555
C37_7 C21_7 1_555 1_555
C38_7 C22_7 1_555 1_555
C39_7 C23_7 1_555 1_555
C40_7 C24_7 1_555 1_555
O7_7 C37_7 1_555 1_555
C47_7 C37_7 1_555 1_555
O8_7 C39_7 1_555 1_555
C48_7 C39_7 1_555 1_555
C52_7 O7_7 1_555 1_555
C53_7 O8_7 1_555 1_555
O12_7 C52_7 1_555 1_555
C57_7 C52_7 1_555 1_555
O13_7 C53_7 1_555 1_555
C58_7 C53_7 1_555 1_555
Fe4_5 N4_5 1_555 1_555
N23_7 Fe3_7 1_555 1_555
O15_7 C70_7 1_555 1_555
C84_7 C70_7 1_555 1_555
C36_7 C46_7 1_555 1_555
C38_7 C47_7 1_555 1_555
C40_7 C48_7 1_555 1_555
C21_7 H12_7 1_555 1_555
C38_7 H15_7 1_555 1_555
C22_7 H17_7 1_555 1_555
C24_7 H19_7 1_555 1_555
C40_7 H22_7 1_555 1_555
C23_7 H24_7 1_555 1_555
C36_7 H25_7 1_555 1_555
C46_7 H28_7 1_555 1_555
C47_7 H29_7 1_555 1_555
C48_7 H30_7 1_555 1_555
C55_7 H36_7 1_555 1_555
C55_7 H37_7 1_555 1_555
C55_7 H38_7 1_555 1_555
C57_7 H45_7 1_555 1_555
C57_7 H46_7 1_555 1_555
C57_7 H47_7 1_555 1_555
C58_7 H48_7 1_555 1_555
C58_7 H49_7 1_555 1_555
C58_7 H50_7 1_555 1_555
C84_7 H62_7 1_555 1_555
C116_7 H94_7 1_555 1_555
C116_7 H95_7 1_555 1_555
C116_7 H96_7 1_555 1_555
Nb1_7 C1_7 1_555 1_555
C1_7 N1_7 1_555 1_555
C2_7 Nb1_7 1_555 1_555
C3_7 Nb1_7 1_555 1_555
C5_7 Nb1_7 1_555 1_555
C6_7 Nb1_7 1_555 1_555
C8_7 Nb1_7 1_555 1_555
N1_7 Fe1_7 1_555 1_555
N2_7 C2_7 1_555 1_555
N3_7 C3_7 1_555 1_555
N5_7 C5_7 1_555 1_555
N8_7 C8_7 1_555 1_555
Fe1_7 N9_7 1_555 1_555
Fe2_9 N2_7 1_555 1_555
Fe3_8 N3_7 1_555 1_555
N9_7 C9_7 1_555 1_555
N10_7 Fe1_7 1_555 1_555
N11_7 Fe1_7 1_555 1_555
N12_7 Fe1_7 1_555 1_555
N13_7 Fe2_9 1_555 1_555
N14_7 Fe2_9 1_555 1_555
C9_7 C25_7 1_555 1_555
C10_7 N9_7 1_555 1_555
C11_7 N10_7 1_555 1_555
C12_7 N10_7 1_555 1_555
C13_7 N11_7 1_555 1_555
C14_7 N11_7 1_555 1_555
C15_7 N12_7 1_555 1_555
C16_7 N12_7 1_555 1_555
C17_7 N13_7 1_555 1_555
C18_7 N13_7 1_555 1_555
C19_7 N14_7 1_555 1_555
C20_7 N14_7 1_555 1_555
C25_7 O1_7 1_555 1_555
C26_7 C10_7 1_555 1_555
C27_7 C11_7 1_555 1_555
C28_7 C12_7 1_555 1_555
C29_7 C13_7 1_555 1_555
C30_7 C14_7 1_555 1_555
C31_7 C15_7 1_555 1_555
C32_7 C16_7 1_555 1_555
C33_7 C17_7 1_555 1_555
C34_7 C18_7 1_555 1_555
C35_7 C19_7 1_555 1_555
C41_7 C25_7 1_555 1_555
O2_7 C27_7 1_555 1_555
C42_7 C27_7 1_555 1_555
O3_7 C29_7 1_555 1_555
C43_7 C29_7 1_555 1_555
O4_7 C31_7 1_555 1_555
C44_7 C31_7 1_555 1_555
O5_7 C33_7 1_555 1_555
C45_7 C33_7 1_555 1_555
O6_7 C35_7 1_555 1_555
C49_7 O2_7 1_555 1_555
C50_7 O3_7 1_555 1_555
C51_7 O4_7 1_555 1_555
O9_7 C49_7 1_555 1_555
C54_7 C49_7 1_555 1_555
O10_7 C50_7 1_555 1_555
O11_7 C51_7 1_555 1_555
C56_7 C51_7 1_555 1_555
N17_7 Fe1_7 1_555 1_555
N18_7 Fe2_9 1_555 1_555
N19_7 Fe2_9 1_555 1_555
N20_7 Fe2_9 1_555 1_555
N21_7 Fe3_8 1_555 1_555
N22_7 Fe3_8 1_555 1_555
C59_7 N17_7 1_555 1_555
C60_7 N18_7 1_555 1_555
C61_7 N18_7 1_555 1_555
C62_7 N19_7 1_555 1_555
C63_7 N19_7 1_555 1_555
C64_7 N21_7 1_555 1_555
C65_7 N21_7 1_555 1_555
C66_7 N22_7 1_555 1_555
C67_7 N22_7 1_555 1_555
Nb2_7 C59_7 1_555 1_555
C68_7 C60_7 1_555 1_555
C69_7 C61_7 1_555 1_555
C71_7 C63_7 1_555 1_555
C72_7 C64_7 1_555 1_555
C73_7 C65_7 1_555 1_555
C74_7 C66_7 1_555 1_555
C75_7 C67_7 1_555 1_555
C76_7 Nb2_7 1_555 1_555
C77_7 Nb2_7 1_555 1_555
C78_7 Nb2_7 1_555 1_555
C79_7 Nb2_7 1_555 1_555
C80_7 Nb2_7 1_555 1_555
C81_7 Nb2_7 1_555 1_555
C82_7 Nb2_7 1_555 1_555
O14_7 C68_7 1_555 1_555
C83_7 C68_7 1_555 1_555
O16_7 C72_7 1_555 1_555
C85_7 C72_7 1_555 1_555
O17_7 C74_7 1_555 1_555
C86_7 C74_7 1_555 1_555
N24_7 C76_7 1_555 1_555
N25_7 C77_7 1_555 1_555
N26_7 C78_7 1_555 1_555
N27_7 C79_7 1_555 1_555
N28_7 C80_7 1_555 1_555
N29_7 C81_7 1_555 1_555
N30_7 C82_7 1_555 1_555
C87_7 O16_7 1_555 1_555
C88_7 O17_7 1_555 1_555
Fe5_3 N24_7 1_555 1_555
Fe6_9 N25_7 1_555 1_555
Fe7_7 N26_7 1_555 1_555
O18_7 C87_7 1_555 1_555
C89_7 C87_7 1_555 1_555
O19_7 C88_7 1_555 1_555
C90_7 C88_7 1_555 1_555
N31_7 Fe5_3 1_555 1_555
N32_7 Fe5_3 1_555 1_555
N33_7 Fe5_3 1_555 1_555
N34_7 Fe5_3 1_555 1_555
N35_3 Fe5_3 1_555 1_555
C91_7 N31_7 1_555 1_555
C92_7 N31_7 1_555 1_555
C93_7 N32_7 1_555 1_555
C94_7 N32_7 1_555 1_555
C95_7 N33_7 1_555 1_555
C96_7 N33_7 1_555 1_555
C97_7 N34_7 1_555 1_555
C98_7 N34_7 1_555 1_555
C99_7 C91_7 1_555 1_555
C100_7 C92_7 1_555 1_555
C101_7 C93_7 1_555 1_555
C102_7 C94_7 1_555 1_555
C103_7 C95_7 1_555 1_555
C104_7 C96_7 1_555 1_555
C105_7 C97_7 1_555 1_555
C106_7 C98_7 1_555 1_555
O20_7 C99_7 1_555 1_555
C107_7 C99_7 1_555 1_555
O21_7 C101_7 1_555 1_555
C108_7 C101_7 1_555 1_555
O22_7 C103_7 1_555 1_555
C109_7 C103_7 1_555 1_555
O23_7 C105_7 1_555 1_555
C110_7 C105_7 1_555 1_555
C111_7 O21_7 1_555 1_555
C112_7 O22_7 1_555 1_555
C113_7 O23_7 1_555 1_555
O24_7 C111_7 1_555 1_555
C114_7 C111_7 1_555 1_555
O25_7 C112_7 1_555 1_555
C115_7 C112_7 1_555 1_555
C26_7 C41_7 1_555 1_555
C28_7 C42_7 1_555 1_555
C30_7 C43_7 1_555 1_555
C32_7 C44_7 1_555 1_555
C34_7 C45_7 1_555 1_555
C69_7 C83_7 1_555 1_555
C73_7 C85_7 1_555 1_555
C75_7 C86_7 1_555 1_555
C100_7 C107_7 1_555 1_555
C102_7 C108_7 1_555 1_555
C104_7 C109_7 1_555 1_555
C106_7 C110_7 1_555 1_555
C9_7 H1_7 1_555 1_555
C14_7 H2_7 1_555 1_555
C13_7 H3_7 1_555 1_555
C10_7 H4_7 1_555 1_555
C16_7 H5_7 1_555 1_555
C12_7 H6_7 1_555 1_555
C15_7 H7_7 1_555 1_555
C11_7 H8_7 1_555 1_555
O1_7 H9_7 1_555 1_555
C41_7 H10_7 1_555 1_555
C18_7 H11_7 1_555 1_555
C30_7 H13_7 1_555 1_555
C34_7 H14_7 1_555 1_555
C19_7 H18_7 1_555 1_555
C17_7 H20_7 1_555 1_555
C28_7 H21_7 1_555 1_555
C26_7 H23_7 1_555 1_555
C42_7 H27_7 1_555 1_555
O5_7 H31_7 1_555 1_555
C54_7 H32_7 1_555 1_555
C54_7 H33_7 1_555 1_555
C54_7 H34_7 1_555 1_555
C45_7 H35_7 1_555 1_555
O6_7 H40_7 1_555 1_555
C43_7 H41_7 1_555 1_555
C56_7 H42_7 1_555 1_555
C56_7 H43_7 1_555 1_555
C56_7 H44_7 1_555 1_555
C60_7 H51_7 1_555 1_555
C64_7 H52_7 1_555 1_555
C62_7 H53_7 1_555 1_555
C75_7 H54_7 1_555 1_555
C66_7 H55_7 1_555 1_555
O14_7 H56_7 1_555 1_555
C85_7 H57_7 1_555 1_555
C65_7 H58_7 1_555 1_555
C83_7 H59_7 1_555 1_555
C73_7 H60_7 1_555 1_555
C67_7 H63_7 1_555 1_555
C86_7 H64_7 1_555 1_555
C61_7 H65_7 1_555 1_555
C63_7 H66_7 1_555 1_555
C69_7 H67_7 1_555 1_555
C91_7 H69_7 1_555 1_555
C93_7 H70_7 1_555 1_555
C97_7 H71_7 1_555 1_555
C96_7 H72_7 1_555 1_555
C90_7 H73_7 1_555 1_555
C90_7 H74_7 1_555 1_555
C90_7 H75_7 1_555 1_555
C94_7 H76_7 1_555 1_555
C95_7 H77_7 1_555 1_555
C98_7 H79_7 1_555 1_555
C92_7 H80_7 1_555 1_555
C89_7 H81_7 1_555 1_555
C89_7 H82_7 1_555 1_555
C89_7 H83_7 1_555 1_555
C107_7 H84_7 1_555 1_555
C114_7 H85_7 1_555 1_555
C114_7 H86_7 1_555 1_555
C114_7 H87_7 1_555 1_555
C108_7 H88_7 1_555 1_555
C115_7 H89_7 1_555 1_555
C115_7 H90_7 1_555 1_555
C115_7 H91_7 1_555 1_555
C104_7 H92_7 1_555 1_555
C106_7 H93_7 1_555 1_555
C102_7 H97_7 1_555 1_555
C109_7 H98_7 1_555 1_555
C110_7 H99_7 1_555 1_555
O20_7 H100_7 1_555 1_555
Nb1_8 C1_8 1_555 1_555
C1_8 N1_8 1_555 1_555
C2_8 Nb1_8 1_555 1_555
C3_8 Nb1_8 1_555 1_555
C4_8 Nb1_8 1_555 1_555
C5_8 Nb1_8 1_555 1_555
C6_8 Nb1_8 1_555 1_555
C7_8 Nb1_8 1_555 1_555
C8_8 Nb1_8 1_555 1_555
N1_8 Fe1_8 1_555 1_555
N2_8 C2_8 1_555 1_555
N3_8 C3_8 1_555 1_555
N4_6 C4_8 1_555 1_555
N5_8 C5_8 1_555 1_555
N6_8 C6_8 1_555 1_555
N7_8 C7_8 1_555 1_555
N8_8 C8_8 1_555 1_555
Fe1_8 N9_8 1_555 1_555
Fe2_10 N2_8 1_555 1_555
Fe3_9 N3_8 1_555 1_555
N9_8 C9_8 1_555 1_555
N10_8 Fe1_8 1_555 1_555
N11_8 Fe1_8 1_555 1_555
N12_8 Fe1_8 1_555 1_555
N13_8 Fe2_10 1_555 1_555
N14_8 Fe2_10 1_555 1_555
N15_8 Fe3_9 1_555 1_555
N16_8 Fe3_9 1_555 1_555
C9_8 C25_8 1_555 1_555
C10_8 N9_8 1_555 1_555
C11_8 N10_8 1_555 1_555
C12_8 N10_8 1_555 1_555
C13_8 N11_8 1_555 1_555
C14_8 N11_8 1_555 1_555
C15_8 N12_8 1_555 1_555
C16_8 N12_8 1_555 1_555
C17_8 N13_8 1_555 1_555
C18_8 N13_8 1_555 1_555
C19_8 N14_8 1_555 1_555
C20_8 N14_8 1_555 1_555
C21_8 N15_8 1_555 1_555
C22_8 N15_8 1_555 1_555
C23_8 N16_8 1_555 1_555
C24_8 N16_8 1_555 1_555
C25_8 O1_8 1_555 1_555
C26_8 C10_8 1_555 1_555
C27_8 C11_8 1_555 1_555
C28_8 C12_8 1_555 1_555
C29_8 C13_8 1_555 1_555
C30_8 C14_8 1_555 1_555
C31_8 C15_8 1_555 1_555
C32_8 C16_8 1_555 1_555
C33_8 C17_8 1_555 1_555
C34_8 C18_8 1_555 1_555
C35_8 C19_8 1_555 1_555
C36_8 C20_8 1_555 1_555
C37_8 C21_8 1_555 1_555
C38_8 C22_8 1_555 1_555
C39_8 C23_8 1_555 1_555
C40_8 C24_8 1_555 1_555
C41_8 C25_8 1_555 1_555
O2_8 C27_8 1_555 1_555
C42_8 C27_8 1_555 1_555
O3_8 C29_8 1_555 1_555
C43_8 C29_8 1_555 1_555
O4_8 C31_8 1_555 1_555
C44_8 C31_8 1_555 1_555
O5_8 C33_8 1_555 1_555
C45_8 C33_8 1_555 1_555
O6_8 C35_8 1_555 1_555
C46_8 C35_8 1_555 1_555
O7_8 C37_8 1_555 1_555
C47_8 C37_8 1_555 1_555
O8_8 C39_8 1_555 1_555
C48_8 C39_8 1_555 1_555
C49_8 O2_8 1_555 1_555
C50_8 O3_8 1_555 1_555
C51_8 O4_8 1_555 1_555
C52_8 O7_8 1_555 1_555
C53_8 O8_8 1_555 1_555
O9_8 C49_8 1_555 1_555
C54_8 C49_8 1_555 1_555
O10_8 C50_8 1_555 1_555
C55_8 C50_8 1_555 1_555
O12_8 C52_8 1_555 1_555
C57_8 C52_8 1_555 1_555
O13_8 C53_8 1_555 1_555
C58_8 C53_8 1_555 1_555
Fe4_6 N4_6 1_555 1_555
N17_8 Fe1_8 1_555 1_555
N18_8 Fe2_10 1_555 1_555
N19_8 Fe2_10 1_555 1_555
N20_8 Fe2_10 1_555 1_555
N21_8 Fe3_9 1_555 1_555
N22_8 Fe3_9 1_555 1_555
N23_8 Fe3_9 1_555 1_555
C59_8 N17_8 1_555 1_555
C60_8 N18_8 1_555 1_555
C61_8 N18_8 1_555 1_555
C62_8 N19_8 1_555 1_555
C63_8 N19_8 1_555 1_555
C64_8 N21_8 1_555 1_555
C65_8 N21_8 1_555 1_555
C66_8 N22_8 1_555 1_555
C67_8 N22_8 1_555 1_555
C68_8 C60_8 1_555 1_555
C69_8 C61_8 1_555 1_555
C70_8 C62_8 1_555 1_555
C71_8 C63_8 1_555 1_555
C72_8 C64_8 1_555 1_555
C73_8 C65_8 1_555 1_555
C74_8 C66_8 1_555 1_555
C75_8 C67_8 1_555 1_555
O14_8 C68_8 1_555 1_555
C83_8 C68_8 1_555 1_555
O15_8 C70_8 1_555 1_555
C84_8 C70_8 1_555 1_555
O16_8 C72_8 1_555 1_555
C85_8 C72_8 1_555 1_555
O17_8 C74_8 1_555 1_555
C86_8 C74_8 1_555 1_555
N29_8 C81_8 1_555 1_555
C87_8 O16_8 1_555 1_555
C88_8 O17_8 1_555 1_555
O18_8 C87_8 1_555 1_555
C89_8 C87_8 1_555 1_555
O19_8 C88_8 1_555 1_555
C90_8 C88_8 1_555 1_555
C26_8 C41_8 1_555 1_555
C28_8 C42_8 1_555 1_555
C30_8 C43_8 1_555 1_555
C32_8 C44_8 1_555 1_555
C34_8 C45_8 1_555 1_555
C36_8 C46_8 1_555 1_555
C38_8 C47_8 1_555 1_555
C40_8 C48_8 1_555 1_555
C69_8 C83_8 1_555 1_555
C71_8 C84_8 1_555 1_555
C73_8 C85_8 1_555 1_555
C75_8 C86_8 1_555 1_555
C9_8 H1_8 1_555 1_555
C14_8 H2_8 1_555 1_555
C13_8 H3_8 1_555 1_555
C10_8 H4_8 1_555 1_555
C16_8 H5_8 1_555 1_555
C12_8 H6_8 1_555 1_555
C15_8 H7_8 1_555 1_555
C11_8 H8_8 1_555 1_555
O1_8 H9_8 1_555 1_555
C41_8 H10_8 1_555 1_555
C18_8 H11_8 1_555 1_555
C21_8 H12_8 1_555 1_555
C30_8 H13_8 1_555 1_555
C34_8 H14_8 1_555 1_555
C38_8 H15_8 1_555 1_555
C20_8 H16_8 1_555 1_555
C22_8 H17_8 1_555 1_555
C19_8 H18_8 1_555 1_555
C24_8 H19_8 1_555 1_555
C17_8 H20_8 1_555 1_555
C28_8 H21_8 1_555 1_555
C40_8 H22_8 1_555 1_555
C23_8 H24_8 1_555 1_555
C36_8 H25_8 1_555 1_555
C32_8 H26_8 1_555 1_555
C42_8 H27_8 1_555 1_555
C46_8 H28_8 1_555 1_555
C47_8 H29_8 1_555 1_555
C48_8 H30_8 1_555 1_555
O5_8 H31_8 1_555 1_555
C54_8 H32_8 1_555 1_555
C54_8 H33_8 1_555 1_555
C54_8 H34_8 1_555 1_555
C45_8 H35_8 1_555 1_555
C55_8 H36_8 1_555 1_555
C55_8 H37_8 1_555 1_555
C55_8 H38_8 1_555 1_555
C44_8 H39_8 1_555 1_555
O6_8 H40_8 1_555 1_555
C43_8 H41_8 1_555 1_555
C57_8 H45_8 1_555 1_555
C57_8 H46_8 1_555 1_555
C57_8 H47_8 1_555 1_555
C58_8 H48_8 1_555 1_555
C58_8 H49_8 1_555 1_555
C58_8 H50_8 1_555 1_555
C60_8 H51_8 1_555 1_555
C64_8 H52_8 1_555 1_555
C62_8 H53_8 1_555 1_555
C75_8 H54_8 1_555 1_555
C66_8 H55_8 1_555 1_555
O14_8 H56_8 1_555 1_555
C85_8 H57_8 1_555 1_555
C65_8 H58_8 1_555 1_555
C83_8 H59_8 1_555 1_555
C73_8 H60_8 1_555 1_555
O15_8 H61_8 1_555 1_555
C84_8 H62_8 1_555 1_555
C67_8 H63_8 1_555 1_555
C86_8 H64_8 1_555 1_555
C61_8 H65_8 1_555 1_555
C63_8 H66_8 1_555 1_555
C69_8 H67_8 1_555 1_555
C71_8 H68_8 1_555 1_555
C90_8 H73_8 1_555 1_555
C90_8 H74_8 1_555 1_555
C90_8 H75_8 1_555 1_555
C89_8 H81_8 1_555 1_555
C89_8 H82_8 1_555 1_555
C89_8 H83_8 1_555 1_555
C115_8 H89_8 1_555 1_555
C115_8 H90_8 1_555 1_555
C115_8 H91_8 1_555 1_555
C76_8 Nb2_8 1_555 1_555
C77_8 Nb2_8 1_555 1_555
C78_8 Nb2_8 1_555 1_555
C79_8 Nb2_8 1_555 1_555
C80_8 Nb2_8 1_555 1_555
C82_8 Nb2_8 1_555 1_555
N24_8 C76_8 1_555 1_555
N25_8 C77_8 1_555 1_555
N26_8 C78_8 1_555 1_555
N27_8 C79_8 1_555 1_555
N30_8 C82_8 1_555 1_555
Fe4_5 N24_8 1_555 1_555
Fe6_10 N25_8 1_555 1_555
Fe7_9 N26_8 1_555 1_555
N31_8 Fe4_5 1_555 1_555
N32_8 Fe4_5 1_555 1_555
N33_8 Fe4_5 1_555 1_555
N34_8 Fe4_5 1_555 1_555
C91_8 N31_8 1_555 1_555
C92_8 N31_8 1_555 1_555
C93_8 N32_8 1_555 1_555
C94_8 N32_8 1_555 1_555
C95_8 N33_8 1_555 1_555
C96_8 N33_8 1_555 1_555
C97_8 N34_8 1_555 1_555
C98_8 N34_8 1_555 1_555
C99_8 C91_8 1_555 1_555
C100_8 C92_8 1_555 1_555
C101_8 C93_8 1_555 1_555
C102_8 C94_8 1_555 1_555
C103_8 C95_8 1_555 1_555
C104_8 C96_8 1_555 1_555
C105_8 C97_8 1_555 1_555
C106_8 C98_8 1_555 1_555
O20_8 C99_8 1_555 1_555
C107_8 C99_8 1_555 1_555
O21_8 C101_8 1_555 1_555
C108_8 C101_8 1_555 1_555
O22_8 C103_8 1_555 1_555
C109_8 C103_8 1_555 1_555
O23_8 C105_8 1_555 1_555
C110_8 C105_8 1_555 1_555
C111_8 O21_8 1_555 1_555
C112_8 O22_8 1_555 1_555
C113_8 O23_8 1_555 1_555
O24_8 C111_8 1_555 1_555
C114_8 C111_8 1_555 1_555
O25_8 C112_8 1_555 1_555
C100_8 C107_8 1_555 1_555
C102_8 C108_8 1_555 1_555
C104_8 C109_8 1_555 1_555
C106_8 C110_8 1_555 1_555
C56_8 H42_8 1_555 1_555
C56_8 H43_8 1_555 1_555
C56_8 H44_8 1_555 1_555
C91_8 H69_8 1_555 1_555
C93_8 H70_8 1_555 1_555
C97_8 H71_8 1_555 1_555
C96_8 H72_8 1_555 1_555
C94_8 H76_8 1_555 1_555
C95_8 H77_8 1_555 1_555
C98_8 H79_8 1_555 1_555
C92_8 H80_8 1_555 1_555
C107_8 H84_8 1_555 1_555
C114_8 H85_8 1_555 1_555
C114_8 H86_8 1_555 1_555
C114_8 H87_8 1_555 1_555
C108_8 H88_8 1_555 1_555
C104_8 H92_8 1_555 1_555
C102_8 H97_8 1_555 1_555
C109_8 H98_8 1_555 1_555
O20_8 H100_8 1_555 1_555
C116_8 H94_8 1_555 1_555
C116_8 H95_8 1_555 1_555
C116_8 H96_8 1_555 1_555
C76_9 Nb2_9 1_555 1_555
C77_9 Nb2_9 1_555 1_555
C78_9 Nb2_9 1_555 1_555
C79_9 Nb2_9 1_555 1_555
C80_9 Nb2_9 1_555 1_555
C82_9 Nb2_9 1_555 1_555
N24_9 C76_9 1_555 1_555
N25_9 C77_9 1_555 1_555
N26_9 C78_9 1_555 1_555
N27_9 C79_9 1_555 1_555
N30_9 C82_9 1_555 1_555
Fe4_6 N24_9 1_555 1_555
Fe6_11 N25_9 1_555 1_555
Fe7_10 N26_9 1_555 1_555
N31_9 Fe4_6 1_555 1_555
N32_9 Fe4_6 1_555 1_555
N33_9 Fe4_6 1_555 1_555
N34_9 Fe4_6 1_555 1_555
C91_9 N31_9 1_555 1_555
C92_9 N31_9 1_555 1_555
C93_9 N32_9 1_555 1_555
C94_9 N32_9 1_555 1_555
C95_9 N33_9 1_555 1_555
C96_9 N33_9 1_555 1_555
C97_9 N34_9 1_555 1_555
C98_9 N34_9 1_555 1_555
C99_9 C91_9 1_555 1_555
C100_9 C92_9 1_555 1_555
C101_9 C93_9 1_555 1_555
C102_9 C94_9 1_555 1_555
C103_9 C95_9 1_555 1_555
C104_9 C96_9 1_555 1_555
C105_9 C97_9 1_555 1_555
C106_9 C98_9 1_555 1_555
O20_9 C99_9 1_555 1_555
C107_9 C99_9 1_555 1_555
O21_9 C101_9 1_555 1_555
C108_9 C101_9 1_555 1_555
O22_9 C103_9 1_555 1_555
C109_9 C103_9 1_555 1_555
O23_9 C105_9 1_555 1_555
C110_9 C105_9 1_555 1_555
C111_9 O21_9 1_555 1_555
C112_9 O22_9 1_555 1_555
C113_9 O23_9 1_555 1_555
O24_9 C111_9 1_555 1_555
C114_9 C111_9 1_555 1_555
O25_9 C112_9 1_555 1_555
O26_9 C113_9 1_555 1_555
C116_9 C113_9 1_555 1_555
C100_9 C107_9 1_555 1_555
C102_9 C108_9 1_555 1_555
C104_9 C109_9 1_555 1_555
C106_9 C110_9 1_555 1_555
C56_9 H42_9 1_555 1_555
C56_9 H43_9 1_555 1_555
C56_9 H44_9 1_555 1_555
C91_9 H69_9 1_555 1_555
C93_9 H70_9 1_555 1_555
C97_9 H71_9 1_555 1_555
C96_9 H72_9 1_555 1_555
C94_9 H76_9 1_555 1_555
C95_9 H77_9 1_555 1_555
C100_9 H78_9 1_555 1_555
C98_9 H79_9 1_555 1_555
C92_9 H80_9 1_555 1_555
C107_9 H84_9 1_555 1_555
C114_9 H85_9 1_555 1_555
C114_9 H86_9 1_555 1_555
C114_9 H87_9 1_555 1_555
C108_9 H88_9 1_555 1_555
C104_9 H92_9 1_555 1_555
C116_9 H94_9 1_555 1_555
C116_9 H95_9 1_555 1_555
C116_9 H96_9 1_555 1_555
C102_9 H97_9 1_555 1_555
C109_9 H98_9 1_555 1_555
O20_9 H100_9 1_555 1_555
Nb1_9 C1_9 1_555 1_555
C1_9 N1_9 1_555 1_555
C2_9 Nb1_9 1_555 1_555
C3_9 Nb1_9 1_555 1_555
C5_9 Nb1_9 1_555 1_555
C6_9 Nb1_9 1_555 1_555
C8_9 Nb1_9 1_555 1_555
N1_9 Fe1_9 1_555 1_555
N2_9 C2_9 1_555 1_555
N3_9 C3_9 1_555 1_555
N5_9 C5_9 1_555 1_555
N8_9 C8_9 1_555 1_555
Fe1_9 N9_9 1_555 1_555
Fe2_11 N2_9 1_555 1_555
Fe3_10 N3_9 1_555 1_555
N9_9 C9_9 1_555 1_555
N10_9 Fe1_9 1_555 1_555
N11_9 Fe1_9 1_555 1_555
N12_9 Fe1_9 1_555 1_555
N13_9 Fe2_11 1_555 1_555
N14_9 Fe2_11 1_555 1_555
C9_9 C25_9 1_555 1_555
C10_9 N9_9 1_555 1_555
C11_9 N10_9 1_555 1_555
C12_9 N10_9 1_555 1_555
C13_9 N11_9 1_555 1_555
C14_9 N11_9 1_555 1_555
C15_9 N12_9 1_555 1_555
C16_9 N12_9 1_555 1_555
C17_9 N13_9 1_555 1_555
C18_9 N13_9 1_555 1_555
C19_9 N14_9 1_555 1_555
C20_9 N14_9 1_555 1_555
C25_9 O1_9 1_555 1_555
C26_9 C10_9 1_555 1_555
C27_9 C11_9 1_555 1_555
C28_9 C12_9 1_555 1_555
C29_9 C13_9 1_555 1_555
C30_9 C14_9 1_555 1_555
C31_9 C15_9 1_555 1_555
C32_9 C16_9 1_555 1_555
C33_9 C17_9 1_555 1_555
C34_9 C18_9 1_555 1_555
C35_9 C19_9 1_555 1_555
C41_9 C25_9 1_555 1_555
O2_9 C27_9 1_555 1_555
C42_9 C27_9 1_555 1_555
O3_9 C29_9 1_555 1_555
C43_9 C29_9 1_555 1_555
O4_9 C31_9 1_555 1_555
C44_9 C31_9 1_555 1_555
O5_9 C33_9 1_555 1_555
C45_9 C33_9 1_555 1_555
O6_9 C35_9 1_555 1_555
C49_9 O2_9 1_555 1_555
C50_9 O3_9 1_555 1_555
C51_9 O4_9 1_555 1_555
O9_9 C49_9 1_555 1_555
C54_9 C49_9 1_555 1_555
O10_9 C50_9 1_555 1_555
N17_9 Fe1_9 1_555 1_555
N18_9 Fe2_11 1_555 1_555
N19_9 Fe2_11 1_555 1_555
N20_9 Fe2_11 1_555 1_555
N21_9 Fe3_10 1_555 1_555
N22_9 Fe3_10 1_555 1_555
C59_9 N17_9 1_555 1_555
C60_9 N18_9 1_555 1_555
C61_9 N18_9 1_555 1_555
C62_9 N19_9 1_555 1_555
C63_9 N19_9 1_555 1_555
C64_9 N21_9 1_555 1_555
C65_9 N21_9 1_555 1_555
C66_9 N22_9 1_555 1_555
C67_9 N22_9 1_555 1_555
C68_9 C60_9 1_555 1_555
C69_9 C61_9 1_555 1_555
C71_9 C63_9 1_555 1_555
C72_9 C64_9 1_555 1_555
C73_9 C65_9 1_555 1_555
C74_9 C66_9 1_555 1_555
C75_9 C67_9 1_555 1_555
O14_9 C68_9 1_555 1_555
C83_9 C68_9 1_555 1_555
O16_9 C72_9 1_555 1_555
C85_9 C72_9 1_555 1_555
O17_9 C74_9 1_555 1_555
C86_9 C74_9 1_555 1_555
N29_9 C81_9 1_555 1_555
C87_9 O16_9 1_555 1_555
C88_9 O17_9 1_555 1_555
O18_9 C87_9 1_555 1_555
C89_9 C87_9 1_555 1_555
O19_9 C88_9 1_555 1_555
C90_9 C88_9 1_555 1_555
C26_9 C41_9 1_555 1_555
C28_9 C42_9 1_555 1_555
C30_9 C43_9 1_555 1_555
C32_9 C44_9 1_555 1_555
C34_9 C45_9 1_555 1_555
C69_9 C83_9 1_555 1_555
C73_9 C85_9 1_555 1_555
C75_9 C86_9 1_555 1_555
C9_9 H1_9 1_555 1_555
C14_9 H2_9 1_555 1_555
C13_9 H3_9 1_555 1_555
C10_9 H4_9 1_555 1_555
C16_9 H5_9 1_555 1_555
C12_9 H6_9 1_555 1_555
C15_9 H7_9 1_555 1_555
C11_9 H8_9 1_555 1_555
O1_9 H9_9 1_555 1_555
C41_9 H10_9 1_555 1_555
C18_9 H11_9 1_555 1_555
C30_9 H13_9 1_555 1_555
C34_9 H14_9 1_555 1_555
C19_9 H18_9 1_555 1_555
C17_9 H20_9 1_555 1_555
C28_9 H21_9 1_555 1_555
C42_9 H27_9 1_555 1_555
O5_9 H31_9 1_555 1_555
C54_9 H32_9 1_555 1_555
C54_9 H33_9 1_555 1_555
C54_9 H34_9 1_555 1_555
C45_9 H35_9 1_555 1_555
O6_9 H40_9 1_555 1_555
C43_9 H41_9 1_555 1_555
C60_9 H51_9 1_555 1_555
C64_9 H52_9 1_555 1_555
C62_9 H53_9 1_555 1_555
C75_9 H54_9 1_555 1_555
C66_9 H55_9 1_555 1_555
O14_9 H56_9 1_555 1_555
C85_9 H57_9 1_555 1_555
C65_9 H58_9 1_555 1_555
C83_9 H59_9 1_555 1_555
C73_9 H60_9 1_555 1_555
C67_9 H63_9 1_555 1_555
C86_9 H64_9 1_555 1_555
C61_9 H65_9 1_555 1_555
C63_9 H66_9 1_555 1_555
C69_9 H67_9 1_555 1_555
C90_9 H73_9 1_555 1_555
C90_9 H74_9 1_555 1_555
C90_9 H75_9 1_555 1_555
C89_9 H81_9 1_555 1_555
C89_9 H82_9 1_555 1_555
C89_9 H83_9 1_555 1_555
C115_9 H89_9 1_555 1_555
C115_9 H90_9 1_555 1_555
C115_9 H91_9 1_555 1_555
N35_3 C4_9 1_555 1_555
N7_9 C7_9 1_555 1_555
N15_9 Fe3_11 1_555 1_555
N16_9 Fe3_11 1_555 1_555
C21_9 N15_9 1_555 1_555
C22_9 N15_9 1_555 1_555
C23_9 N16_9 1_555 1_555
C24_9 N16_9 1_555 1_555
C37_9 C21_9 1_555 1_555
C38_9 C22_9 1_555 1_555
C39_9 C23_9 1_555 1_555
C40_9 C24_9 1_555 1_555
O7_9 C37_9 1_555 1_555
C47_9 C37_9 1_555 1_555
O8_9 C39_9 1_555 1_555
C48_9 C39_9 1_555 1_555
C52_9 O7_9 1_555 1_555
C53_9 O8_9 1_555 1_555
O12_9 C52_9 1_555 1_555
C57_9 C52_9 1_555 1_555
O13_9 C53_9 1_555 1_555
C58_9 C53_9 1_555 1_555
N23_9 Fe3_11 1_555 1_555
O15_9 C70_9 1_555 1_555
C84_9 C70_9 1_555 1_555
C36_9 C46_9 1_555 1_555
C38_9 C47_9 1_555 1_555
C40_9 C48_9 1_555 1_555
C21_9 H12_9 1_555 1_555
C38_9 H15_9 1_555 1_555
C22_9 H17_9 1_555 1_555
C24_9 H19_9 1_555 1_555
C40_9 H22_9 1_555 1_555
C23_9 H24_9 1_555 1_555
C36_9 H25_9 1_555 1_555
C46_9 H28_9 1_555 1_555
C47_9 H29_9 1_555 1_555
C48_9 H30_9 1_555 1_555
C55_9 H36_9 1_555 1_555
C55_9 H37_9 1_555 1_555
C55_9 H38_9 1_555 1_555
C57_9 H45_9 1_555 1_555
C57_9 H46_9 1_555 1_555
C57_9 H47_9 1_555 1_555
C58_9 H48_9 1_555 1_555
C58_9 H49_9 1_555 1_555
C58_9 H50_9 1_555 1_555
C84_9 H62_9 1_555 1_555
Nb1_10 C1_10 1_555 1_555
C1_10 N1_10 1_555 1_555
C2_10 Nb1_10 1_555 1_555
C3_10 Nb1_10 1_555 1_555
C4_10 Nb1_10 1_555 1_555
C5_10 Nb1_10 1_555 1_555
C6_10 Nb1_10 1_555 1_555
C7_10 Nb1_10 1_555 1_555
C8_10 Nb1_10 1_555 1_555
N1_10 Fe1_10 1_555 1_555
N20_8 C2_10 1_555 1_555
N23_6 C3_10 1_555 1_555
N4_7 C4_10 1_555 1_555
N5_10 C5_10 1_555 1_555
N6_10 C6_10 1_555 1_555
N7_10 C7_10 1_555 1_555
N8_10 C8_10 1_555 1_555
Fe1_10 N9_10 1_555 1_555
N9_10 C9_10 1_555 1_555
N10_10 Fe1_10 1_555 1_555
N11_10 Fe1_10 1_555 1_555
N12_10 Fe1_10 1_555 1_555
C9_10 C25_10 1_555 1_555
C10_10 N9_10 1_555 1_555
C11_10 N10_10 1_555 1_555
C12_10 N10_10 1_555 1_555
C13_10 N11_10 1_555 1_555
C14_10 N11_10 1_555 1_555
C15_10 N12_10 1_555 1_555
C16_10 N12_10 1_555 1_555
C25_10 O1_10 1_555 1_555
C26_10 C10_10 1_555 1_555
C27_10 C11_10 1_555 1_555
C28_10 C12_10 1_555 1_555
C29_10 C13_10 1_555 1_555
C30_10 C14_10 1_555 1_555
C31_10 C15_10 1_555 1_555
C32_10 C16_10 1_555 1_555
C41_10 C25_10 1_555 1_555
O2_10 C27_10 1_555 1_555
C42_10 C27_10 1_555 1_555
O3_10 C29_10 1_555 1_555
C43_10 C29_10 1_555 1_555
O4_10 C31_10 1_555 1_555
C44_10 C31_10 1_555 1_555
C49_10 O2_10 1_555 1_555
C50_10 O3_10 1_555 1_555
C51_10 O4_10 1_555 1_555
O9_10 C49_10 1_555 1_555
C54_10 C49_10 1_555 1_555
O10_10 C50_10 1_555 1_555
C55_10 C50_10 1_555 1_555
O11_10 C51_10 1_555 1_555
C56_10 C51_10 1_555 1_555
Fe4_7 N4_7 1_555 1_555
N17_10 Fe1_10 1_555 1_555
C59_10 N17_10 1_555 1_555
Nb2_10 C59_10 1_555 1_555
C76_10 Nb2_10 1_555 1_555
C77_10 Nb2_10 1_555 1_555
C78_10 Nb2_10 1_555 1_555
C79_10 Nb2_10 1_555 1_555
C80_10 Nb2_10 1_555 1_555
C81_10 Nb2_10 1_555 1_555
C82_10 Nb2_10 1_555 1_555
N24_10 C76_10 1_555 1_555
N25_10 C77_10 1_555 1_555
N26_10 C78_10 1_555 1_555
N27_10 C79_10 1_555 1_555
N28_10 C80_10 1_555 1_555
N29_10 C81_10 1_555 1_555
N30_10 C82_10 1_555 1_555
Fe5_4 N24_10 1_555 1_555
Fe6_4 N25_10 1_555 1_555
Fe7_4 N26_10 1_555 1_555
N31_10 Fe5_4 1_555 1_555
N32_10 Fe5_4 1_555 1_555
N33_10 Fe5_4 1_555 1_555
N34_10 Fe5_4 1_555 1_555
N35_4 Fe5_4 1_555 1_555
C91_10 N31_10 1_555 1_555
C92_10 N31_10 1_555 1_555
C93_10 N32_10 1_555 1_555
C94_10 N32_10 1_555 1_555
C95_10 N33_10 1_555 1_555
C96_10 N33_10 1_555 1_555
C97_10 N34_10 1_555 1_555
C98_10 N34_10 1_555 1_555
C99_10 C91_10 1_555 1_555
C100_10 C92_10 1_555 1_555
C101_10 C93_10 1_555 1_555
C102_10 C94_10 1_555 1_555
C103_10 C95_10 1_555 1_555
C104_10 C96_10 1_555 1_555
C105_10 C97_10 1_555 1_555
C106_10 C98_10 1_555 1_555
O20_10 C99_10 1_555 1_555
C107_10 C99_10 1_555 1_555
O21_10 C101_10 1_555 1_555
C108_10 C101_10 1_555 1_555
O22_10 C103_10 1_555 1_555
C109_10 C103_10 1_555 1_555
O23_10 C105_10 1_555 1_555
C110_10 C105_10 1_555 1_555
C111_10 O21_10 1_555 1_555
C112_10 O22_10 1_555 1_555
C113_10 O23_10 1_555 1_555
C114_10 C111_10 1_555 1_555
O25_10 C112_10 1_555 1_555
C115_10 C112_10 1_555 1_555
O26_10 C113_10 1_555 1_555
C116_10 C113_10 1_555 1_555
C26_10 C41_10 1_555 1_555
C28_10 C42_10 1_555 1_555
C30_10 C43_10 1_555 1_555
C32_10 C44_10 1_555 1_555
C100_10 C107_10 1_555 1_555
C102_10 C108_10 1_555 1_555
C104_10 C109_10 1_555 1_555
C106_10 C110_10 1_555 1_555
C9_10 H1_10 1_555 1_555
C14_10 H2_10 1_555 1_555
C13_10 H3_10 1_555 1_555
C10_10 H4_10 1_555 1_555
C16_10 H5_10 1_555 1_555
C12_10 H6_10 1_555 1_555
C15_10 H7_10 1_555 1_555
C11_10 H8_10 1_555 1_555
O1_10 H9_10 1_555 1_555
C41_10 H10_10 1_555 1_555
C30_10 H13_10 1_555 1_555
C28_10 H21_10 1_555 1_555
C26_10 H23_10 1_555 1_555
C32_10 H26_10 1_555 1_555
C42_10 H27_10 1_555 1_555
C54_10 H32_10 1_555 1_555
C54_10 H33_10 1_555 1_555
C54_10 H34_10 1_555 1_555
C55_10 H36_10 1_555 1_555
C55_10 H37_10 1_555 1_555
C55_10 H38_10 1_555 1_555
C44_10 H39_10 1_555 1_555
C43_10 H41_10 1_555 1_555
C56_10 H42_10 1_555 1_555
C56_10 H43_10 1_555 1_555
C56_10 H44_10 1_555 1_555
C91_10 H69_10 1_555 1_555
C93_10 H70_10 1_555 1_555
C97_10 H71_10 1_555 1_555
C96_10 H72_10 1_555 1_555
C94_10 H76_10 1_555 1_555
C95_10 H77_10 1_555 1_555
C100_10 H78_10 1_555 1_555
C98_10 H79_10 1_555 1_555
C92_10 H80_10 1_555 1_555
C107_10 H84_10 1_555 1_555
C114_10 H85_10 1_555 1_555
C114_10 H87_10 1_555 1_555
C108_10 H88_10 1_555 1_555
C115_10 H89_10 1_555 1_555
C115_10 H90_10 1_555 1_555
C115_10 H91_10 1_555 1_555
C104_10 H92_10 1_555 1_555
C106_10 H93_10 1_555 1_555
C116_10 H94_10 1_555 1_555
C116_10 H95_10 1_555 1_555
C116_10 H96_10 1_555 1_555
C102_10 H97_10 1_555 1_555
C109_10 H98_10 1_555 1_555
C110_10 H99_10 1_555 1_555
O20_10 H100_10 1_555 1_555
Nb1_11 C1_11 1_555 1_555
C1_11 N1_11 1_555 1_555
C2_11 Nb1_11 1_555 1_555
C3_11 Nb1_11 1_555 1_555
C4_11 Nb1_11 1_555 1_555
C5_11 Nb1_11 1_555 1_555
C6_11 Nb1_11 1_555 1_555
C7_11 Nb1_11 1_555 1_555
C8_11 Nb1_11 1_555 1_555
N1_11 Fe1_11 1_555 1_555
N20_9 C2_11 1_555 1_555
N23_4 C3_11 1_555 1_555
N35_4 C4_11 1_555 1_555
N5_11 C5_11 1_555 1_555
N6_11 C6_11 1_555 1_555
N7_11 C7_11 1_555 1_555
N8_11 C8_11 1_555 1_555
Fe1_11 N9_11 1_555 1_555
N9_11 C9_11 1_555 1_555
N10_11 Fe1_11 1_555 1_555
N11_11 Fe1_11 1_555 1_555
N12_11 Fe1_11 1_555 1_555
C9_11 C25_11 1_555 1_555
C10_11 N9_11 1_555 1_555
C11_11 N10_11 1_555 1_555
C12_11 N10_11 1_555 1_555
C13_11 N11_11 1_555 1_555
C14_11 N11_11 1_555 1_555
C15_11 N12_11 1_555 1_555
C16_11 N12_11 1_555 1_555
C25_11 O1_11 1_555 1_555
C26_11 C10_11 1_555 1_555
C27_11 C11_11 1_555 1_555
C28_11 C12_11 1_555 1_555
C29_11 C13_11 1_555 1_555
C30_11 C14_11 1_555 1_555
C31_11 C15_11 1_555 1_555
C32_11 C16_11 1_555 1_555
C41_11 C25_11 1_555 1_555
O2_11 C27_11 1_555 1_555
C42_11 C27_11 1_555 1_555
O3_11 C29_11 1_555 1_555
C43_11 C29_11 1_555 1_555
O4_11 C31_11 1_555 1_555
C44_11 C31_11 1_555 1_555
C49_11 O2_11 1_555 1_555
C50_11 O3_11 1_555 1_555
C51_11 O4_11 1_555 1_555
O9_11 C49_11 1_555 1_555
C54_11 C49_11 1_555 1_555
O10_11 C50_11 1_555 1_555
C55_11 C50_11 1_555 1_555
O11_11 C51_11 1_555 1_555
C56_11 C51_11 1_555 1_555
N17_11 Fe1_11 1_555 1_555
C59_11 N17_11 1_555 1_555
Nb2_11 C59_11 1_555 1_555
C76_11 Nb2_11 1_555 1_555
C77_11 Nb2_11 1_555 1_555
C78_11 Nb2_11 1_555 1_555
C79_11 Nb2_11 1_555 1_555
C80_11 Nb2_11 1_555 1_555
C81_11 Nb2_11 1_555 1_555
C82_11 Nb2_11 1_555 1_555
N24_11 C76_11 1_555 1_555
N25_11 C77_11 1_555 1_555
N26_11 C78_11 1_555 1_555
N27_11 C79_11 1_555 1_555
N28_11 C80_11 1_555 1_555
N29_11 C81_11 1_555 1_555
N30_11 C82_11 1_555 1_555
Fe5_5 N24_11 1_555 1_555
Fe6_2 N25_11 1_555 1_555
Fe7_5 N26_11 1_555 1_555
N31_11 Fe5_5 1_555 1_555
N32_11 Fe5_5 1_555 1_555
N33_11 Fe5_5 1_555 1_555
N34_11 Fe5_5 1_555 1_555
N35_5 Fe5_5 1_555 1_555
C91_11 N31_11 1_555 1_555
C92_11 N31_11 1_555 1_555
C93_11 N32_11 1_555 1_555
C94_11 N32_11 1_555 1_555
C95_11 N33_11 1_555 1_555
C96_11 N33_11 1_555 1_555
C97_11 N34_11 1_555 1_555
C98_11 N34_11 1_555 1_555
C99_11 C91_11 1_555 1_555
C100_11 C92_11 1_555 1_555
C101_11 C93_11 1_555 1_555
C102_11 C94_11 1_555 1_555
C103_11 C95_11 1_555 1_555
C104_11 C96_11 1_555 1_555
C105_11 C97_11 1_555 1_555
C106_11 C98_11 1_555 1_555
O20_11 C99_11 1_555 1_555
C107_11 C99_11 1_555 1_555
O21_11 C101_11 1_555 1_555
C108_11 C101_11 1_555 1_555
O22_11 C103_11 1_555 1_555
C109_11 C103_11 1_555 1_555
O23_11 C105_11 1_555 1_555
C110_11 C105_11 1_555 1_555
C111_11 O21_11 1_555 1_555
C112_11 O22_11 1_555 1_555
C113_11 O23_11 1_555 1_555
C114_11 C111_11 1_555 1_555
O25_11 C112_11 1_555 1_555
C115_11 C112_11 1_555 1_555
O26_11 C113_11 1_555 1_555
C116_11 C113_11 1_555 1_555
C26_11 C41_11 1_555 1_555
C28_11 C42_11 1_555 1_555
C30_11 C43_11 1_555 1_555
C32_11 C44_11 1_555 1_555
C100_11 C107_11 1_555 1_555
C102_11 C108_11 1_555 1_555
C104_11 C109_11 1_555 1_555
C106_11 C110_11 1_555 1_555
C9_11 H1_11 1_555 1_555
C14_11 H2_11 1_555 1_555
C13_11 H3_11 1_555 1_555
C10_11 H4_11 1_555 1_555
C16_11 H5_11 1_555 1_555
C12_11 H6_11 1_555 1_555
C15_11 H7_11 1_555 1_555
C11_11 H8_11 1_555 1_555
O1_11 H9_11 1_555 1_555
C41_11 H10_11 1_555 1_555
C30_11 H13_11 1_555 1_555
C28_11 H21_11 1_555 1_555
C26_11 H23_11 1_555 1_555
C32_11 H26_11 1_555 1_555
C42_11 H27_11 1_555 1_555
C54_11 H32_11 1_555 1_555
C54_11 H33_11 1_555 1_555
C54_11 H34_11 1_555 1_555
C55_11 H36_11 1_555 1_555
C55_11 H37_11 1_555 1_555
C55_11 H38_11 1_555 1_555
C44_11 H39_11 1_555 1_555
C43_11 H41_11 1_555 1_555
C56_11 H42_11 1_555 1_555
C56_11 H43_11 1_555 1_555
C56_11 H44_11 1_555 1_555
C91_11 H69_11 1_555 1_555
C93_11 H70_11 1_555 1_555
C97_11 H71_11 1_555 1_555
C96_11 H72_11 1_555 1_555
C94_11 H76_11 1_555 1_555
C95_11 H77_11 1_555 1_555
C100_11 H78_11 1_555 1_555
C98_11 H79_11 1_555 1_555
C92_11 H80_11 1_555 1_555
C107_11 H84_11 1_555 1_555
C114_11 H85_11 1_555 1_555
C114_11 H87_11 1_555 1_555
C108_11 H88_11 1_555 1_555
C115_11 H89_11 1_555 1_555
C115_11 H90_11 1_555 1_555
C115_11 H91_11 1_555 1_555
C104_11 H92_11 1_555 1_555
C106_11 H93_11 1_555 1_555
C116_11 H94_11 1_555 1_555
C116_11 H95_11 1_555 1_555
C116_11 H96_11 1_555 1_555
C102_11 H97_11 1_555 1_555
C109_11 H98_11 1_555 1_555
C110_11 H99_11 1_555 1_555
O20_11 H100_11 1_555 1_555
Nb1_12 C1_12 1_555 1_555
C1_12 N1_12 1_555 1_555
C2_12 Nb1_12 1_555 1_555
C3_12 Nb1_12 1_555 1_555
C4_12 Nb1_12 1_555 1_555
C5_12 Nb1_12 1_555 1_555
C6_12 Nb1_12 1_555 1_555
C7_12 Nb1_12 1_555 1_555
C8_12 Nb1_12 1_555 1_555
N1_12 Fe1_12 1_555 1_555
N20_7 C2_12 1_555 1_555
N23_5 C3_12 1_555 1_555
N35_5 C4_12 1_555 1_555
N5_12 C5_12 1_555 1_555
N6_12 C6_12 1_555 1_555
N7_12 C7_12 1_555 1_555
N8_12 C8_12 1_555 1_555
Fe1_12 N9_12 1_555 1_555
N9_12 C9_12 1_555 1_555
N10_12 Fe1_12 1_555 1_555
N11_12 Fe1_12 1_555 1_555
N12_12 Fe1_12 1_555 1_555
C9_12 C25_12 1_555 1_555
C10_12 N9_12 1_555 1_555
C11_12 N10_12 1_555 1_555
C12_12 N10_12 1_555 1_555
C13_12 N11_12 1_555 1_555
C14_12 N11_12 1_555 1_555
C15_12 N12_12 1_555 1_555
C16_12 N12_12 1_555 1_555
C25_12 O1_12 1_555 1_555
C26_12 C10_12 1_555 1_555
C27_12 C11_12 1_555 1_555
C28_12 C12_12 1_555 1_555
C29_12 C13_12 1_555 1_555
C30_12 C14_12 1_555 1_555
C31_12 C15_12 1_555 1_555
C32_12 C16_12 1_555 1_555
C41_12 C25_12 1_555 1_555
O2_12 C27_12 1_555 1_555
C42_12 C27_12 1_555 1_555
O3_12 C29_12 1_555 1_555
C43_12 C29_12 1_555 1_555
O4_12 C31_12 1_555 1_555
C44_12 C31_12 1_555 1_555
C49_12 O2_12 1_555 1_555
C50_12 O3_12 1_555 1_555
C51_12 O4_12 1_555 1_555
O9_12 C49_12 1_555 1_555
C54_12 C49_12 1_555 1_555
O10_12 C50_12 1_555 1_555
C55_12 C50_12 1_555 1_555
O11_12 C51_12 1_555 1_555
C56_12 C51_12 1_555 1_555
N17_12 Fe1_12 1_555 1_555
C59_12 N17_12 1_555 1_555
Nb2_12 C59_12 1_555 1_555
C76_12 Nb2_12 1_555 1_555
C77_12 Nb2_12 1_555 1_555
C78_12 Nb2_12 1_555 1_555
C79_12 Nb2_12 1_555 1_555
C80_12 Nb2_12 1_555 1_555
C81_12 Nb2_12 1_555 1_555
C82_12 Nb2_12 1_555 1_555
N24_12 C76_12 1_555 1_555
N25_12 C77_12 1_555 1_555
N26_12 C78_12 1_555 1_555
N27_12 C79_12 1_555 1_555
N28_12 C80_12 1_555 1_555
N29_12 C81_12 1_555 1_555
N30_12 C82_12 1_555 1_555
Fe4_7 N24_12 1_555 1_555
Fe6_3 N25_12 1_555 1_555
Fe7_6 N26_12 1_555 1_555
N31_12 Fe4_7 1_555 1_555
N32_12 Fe4_7 1_555 1_555
N33_12 Fe4_7 1_555 1_555
N34_12 Fe4_7 1_555 1_555
C91_12 N31_12 1_555 1_555
C92_12 N31_12 1_555 1_555
C93_12 N32_12 1_555 1_555
C94_12 N32_12 1_555 1_555
C95_12 N33_12 1_555 1_555
C96_12 N33_12 1_555 1_555
C97_12 N34_12 1_555 1_555
C98_12 N34_12 1_555 1_555
C99_12 C91_12 1_555 1_555
C100_12 C92_12 1_555 1_555
C101_12 C93_12 1_555 1_555
C102_12 C94_12 1_555 1_555
C103_12 C95_12 1_555 1_555
C104_12 C96_12 1_555 1_555
C105_12 C97_12 1_555 1_555
C106_12 C98_12 1_555 1_555
O20_12 C99_12 1_555 1_555
C107_12 C99_12 1_555 1_555
O21_12 C101_12 1_555 1_555
C108_12 C101_12 1_555 1_555
O22_12 C103_12 1_555 1_555
C109_12 C103_12 1_555 1_555
O23_12 C105_12 1_555 1_555
C110_12 C105_12 1_555 1_555
C111_12 O21_12 1_555 1_555
C112_12 O22_12 1_555 1_555
C113_12 O23_12 1_555 1_555
O24_12 C111_12 1_555 1_555
C114_12 C111_12 1_555 1_555
O25_12 C112_12 1_555 1_555
C115_12 C112_12 1_555 1_555
O26_12 C113_12 1_555 1_555
C116_12 C113_12 1_555 1_555
C26_12 C41_12 1_555 1_555
C28_12 C42_12 1_555 1_555
C30_12 C43_12 1_555 1_555
C32_12 C44_12 1_555 1_555
C100_12 C107_12 1_555 1_555
C102_12 C108_12 1_555 1_555
C104_12 C109_12 1_555 1_555
C106_12 C110_12 1_555 1_555
C9_12 H1_12 1_555 1_555
C14_12 H2_12 1_555 1_555
C13_12 H3_12 1_555 1_555
C10_12 H4_12 1_555 1_555
C16_12 H5_12 1_555 1_555
C12_12 H6_12 1_555 1_555
C15_12 H7_12 1_555 1_555
C11_12 H8_12 1_555 1_555
O1_12 H9_12 1_555 1_555
C41_12 H10_12 1_555 1_555
C30_12 H13_12 1_555 1_555
C28_12 H21_12 1_555 1_555
C26_12 H23_12 1_555 1_555
C32_12 H26_12 1_555 1_555
C42_12 H27_12 1_555 1_555
C54_12 H32_12 1_555 1_555
C54_12 H33_12 1_555 1_555
C54_12 H34_12 1_555 1_555
C55_12 H36_12 1_555 1_555
C55_12 H37_12 1_555 1_555
C55_12 H38_12 1_555 1_555
C44_12 H39_12 1_555 1_555
C43_12 H41_12 1_555 1_555
C56_12 H42_12 1_555 1_555
C56_12 H43_12 1_555 1_555
C56_12 H44_12 1_555 1_555
C91_12 H69_12 1_555 1_555
C93_12 H70_12 1_555 1_555
C97_12 H71_12 1_555 1_555
C96_12 H72_12 1_555 1_555
C94_12 H76_12 1_555 1_555
C95_12 H77_12 1_555 1_555
C100_12 H78_12 1_555 1_555
C98_12 H79_12 1_555 1_555
C92_12 H80_12 1_555 1_555
C107_12 H84_12 1_555 1_555
C114_12 H85_12 1_555 1_555
C114_12 H86_12 1_555 1_555
C114_12 H87_12 1_555 1_555
C108_12 H88_12 1_555 1_555
C115_12 H89_12 1_555 1_555
C115_12 H90_12 1_555 1_555
C115_12 H91_12 1_555 1_555
C104_12 H92_12 1_555 1_555
C106_12 H93_12 1_555 1_555
C116_12 H94_12 1_555 1_555
C116_12 H95_12 1_555 1_555
C116_12 H96_12 1_555 1_555
C102_12 H97_12 1_555 1_555
C109_12 H98_12 1_555 1_555
C110_12 H99_12 1_555 1_555
O20_12 H100_12 1_555 1_555
Nb1_13 C1_13 1_555 1_555
C1_13 N1_13 1_555 1_555
C2_13 Nb1_13 1_555 1_555
C3_13 Nb1_13 1_555 1_555
C4_13 Nb1_13 1_555 1_555
C5_13 Nb1_13 1_555 1_555
C6_13 Nb1_13 1_555 1_555
C7_13 Nb1_13 1_555 1_555
C8_13 Nb1_13 1_555 1_555
N1_13 Fe1_13 1_555 1_555
N20_5 C2_13 1_555 1_555
N23_3 C3_13 1_555 1_555
N4_8 C4_13 1_555 1_555
N5_13 C5_13 1_555 1_555
N6_13 C6_13 1_555 1_555
N7_13 C7_13 1_555 1_555
N8_13 C8_13 1_555 1_555
Fe1_13 N9_13 1_555 1_555
N9_13 C9_13 1_555 1_555
N10_13 Fe1_13 1_555 1_555
N11_13 Fe1_13 1_555 1_555
N12_13 Fe1_13 1_555 1_555
C9_13 C25_13 1_555 1_555
C10_13 N9_13 1_555 1_555
C11_13 N10_13 1_555 1_555
C12_13 N10_13 1_555 1_555
C13_13 N11_13 1_555 1_555
C14_13 N11_13 1_555 1_555
C15_13 N12_13 1_555 1_555
C16_13 N12_13 1_555 1_555
C25_13 O1_13 1_555 1_555
C26_13 C10_13 1_555 1_555
C27_13 C11_13 1_555 1_555
C28_13 C12_13 1_555 1_555
C29_13 C13_13 1_555 1_555
C30_13 C14_13 1_555 1_555
C31_13 C15_13 1_555 1_555
C32_13 C16_13 1_555 1_555
C41_13 C25_13 1_555 1_555
O2_13 C27_13 1_555 1_555
C42_13 C27_13 1_555 1_555
O3_13 C29_13 1_555 1_555
C43_13 C29_13 1_555 1_555
O4_13 C31_13 1_555 1_555
C44_13 C31_13 1_555 1_555
C49_13 O2_13 1_555 1_555
C50_13 O3_13 1_555 1_555
C51_13 O4_13 1_555 1_555
C54_13 C49_13 1_555 1_555
O10_13 C50_13 1_555 1_555
C55_13 C50_13 1_555 1_555
O11_13 C51_13 1_555 1_555
C56_13 C51_13 1_555 1_555
Fe4_8 N4_8 1_555 1_555
N17_13 Fe1_13 1_555 1_555
C59_13 N17_13 1_555 1_555
Nb2_13 C59_13 1_555 1_555
C76_13 Nb2_13 1_555 1_555
C77_13 Nb2_13 1_555 1_555
C78_13 Nb2_13 1_555 1_555
C79_13 Nb2_13 1_555 1_555
C80_13 Nb2_13 1_555 1_555
C81_13 Nb2_13 1_555 1_555
C82_13 Nb2_13 1_555 1_555
N24_13 C76_13 1_555 1_555
N25_13 C77_13 1_555 1_555
N26_13 C78_13 1_555 1_555
N27_13 C79_13 1_555 1_555
N28_13 C80_13 1_555 1_555
N29_13 C81_13 1_555 1_555
N30_13 C82_13 1_555 1_555
Fe5_6 N24_13 1_555 1_555
Fe6_11 N25_13 1_555 1_555
Fe7 N26_13 1_555 1_555
N31_13 Fe5_6 1_555 1_555
N32_13 Fe5_6 1_555 1_555
N33_13 Fe5_6 1_555 1_555
N34_13 Fe5_6 1_555 1_555
N35_6 Fe5_6 1_555 1_555
C91_13 N31_13 1_555 1_555
C92_13 N31_13 1_555 1_555
C93_13 N32_13 1_555 1_555
C94_13 N32_13 1_555 1_555
C95_13 N33_13 1_555 1_555
C96_13 N33_13 1_555 1_555
C97_13 N34_13 1_555 1_555
C98_13 N34_13 1_555 1_555
C99_13 C91_13 1_555 1_555
C100_13 C92_13 1_555 1_555
C101_13 C93_13 1_555 1_555
C102_13 C94_13 1_555 1_555
C103_13 C95_13 1_555 1_555
C104_13 C96_13 1_555 1_555
C105_13 C97_13 1_555 1_555
C106_13 C98_13 1_555 1_555
O20_13 C99_13 1_555 1_555
C107_13 C99_13 1_555 1_555
O21_13 C101_13 1_555 1_555
C108_13 C101_13 1_555 1_555
O22_13 C103_13 1_555 1_555
C109_13 C103_13 1_555 1_555
O23_13 C105_13 1_555 1_555
C110_13 C105_13 1_555 1_555
C111_13 O21_13 1_555 1_555
C112_13 O22_13 1_555 1_555
C113_13 O23_13 1_555 1_555
O24_13 C111_13 1_555 1_555
C114_13 C111_13 1_555 1_555
O25_13 C112_13 1_555 1_555
C115_13 C112_13 1_555 1_555
O26_13 C113_13 1_555 1_555
C116_13 C113_13 1_555 1_555
C26_13 C41_13 1_555 1_555
C28_13 C42_13 1_555 1_555
C30_13 C43_13 1_555 1_555
C32_13 C44_13 1_555 1_555
C100_13 C107_13 1_555 1_555
C102_13 C108_13 1_555 1_555
C104_13 C109_13 1_555 1_555
C106_13 C110_13 1_555 1_555
C9_13 H1_13 1_555 1_555
C14_13 H2_13 1_555 1_555
C13_13 H3_13 1_555 1_555
C10_13 H4_13 1_555 1_555
C16_13 H5_13 1_555 1_555
C12_13 H6_13 1_555 1_555
C15_13 H7_13 1_555 1_555
C11_13 H8_13 1_555 1_555
O1_13 H9_13 1_555 1_555
C41_13 H10_13 1_555 1_555
C30_13 H13_13 1_555 1_555
C28_13 H21_13 1_555 1_555
C26_13 H23_13 1_555 1_555
C32_13 H26_13 1_555 1_555
C42_13 H27_13 1_555 1_555
C54_13 H32_13 1_555 1_555
C54_13 H34_13 1_555 1_555
C55_13 H36_13 1_555 1_555
C55_13 H37_13 1_555 1_555
C55_13 H38_13 1_555 1_555
C44_13 H39_13 1_555 1_555
C43_13 H41_13 1_555 1_555
C56_13 H42_13 1_555 1_555
C56_13 H43_13 1_555 1_555
C56_13 H44_13 1_555 1_555
C91_13 H69_13 1_555 1_555
C93_13 H70_13 1_555 1_555
C97_13 H71_13 1_555 1_555
C96_13 H72_13 1_555 1_555
C94_13 H76_13 1_555 1_555
C95_13 H77_13 1_555 1_555
C100_13 H78_13 1_555 1_555
C98_13 H79_13 1_555 1_555
C92_13 H80_13 1_555 1_555
C107_13 H84_13 1_555 1_555
C114_13 H85_13 1_555 1_555
C114_13 H86_13 1_555 1_555
C114_13 H87_13 1_555 1_555
C108_13 H88_13 1_555 1_555
C115_13 H89_13 1_555 1_555
C115_13 H90_13 1_555 1_555
C115_13 H91_13 1_555 1_555
C104_13 H92_13 1_555 1_555
C106_13 H93_13 1_555 1_555
C116_13 H94_13 1_555 1_555
C116_13 H95_13 1_555 1_555
C116_13 H96_13 1_555 1_555
C102_13 H97_13 1_555 1_555
C109_13 H98_13 1_555 1_555
C110_13 H99_13 1_555 1_555
O20_13 H100_13 1_555 1_555
Nb1_14 C1_14 1_555 1_555
C1_14 N1_14 1_555 1_555
C2_14 Nb1_14 1_555 1_555
C3_14 Nb1_14 1_555 1_555
C4_14 Nb1_14 1_555 1_555
C5_14 Nb1_14 1_555 1_555
C6_14 Nb1_14 1_555 1_555
C7_14 Nb1_14 1_555 1_555
C8_14 Nb1_14 1_555 1_555
N1_14 Fe1_14 1_555 1_555
N20_6 C2_14 1_555 1_555
N23 C3_14 1_555 1_555
N35_6 C4_14 1_555 1_555
N5_14 C5_14 1_555 1_555
N6_14 C6_14 1_555 1_555
N7_14 C7_14 1_555 1_555
N8_14 C8_14 1_555 1_555
Fe1_14 N9_14 1_555 1_555
N9_14 C9_14 1_555 1_555
N10_14 Fe1_14 1_555 1_555
N11_14 Fe1_14 1_555 1_555
N12_14 Fe1_14 1_555 1_555
C9_14 C25_14 1_555 1_555
C10_14 N9_14 1_555 1_555
C11_14 N10_14 1_555 1_555
C12_14 N10_14 1_555 1_555
C13_14 N11_14 1_555 1_555
C14_14 N11_14 1_555 1_555
C15_14 N12_14 1_555 1_555
C16_14 N12_14 1_555 1_555
C25_14 O1_14 1_555 1_555
C26_14 C10_14 1_555 1_555
C27_14 C11_14 1_555 1_555
C28_14 C12_14 1_555 1_555
C29_14 C13_14 1_555 1_555
C30_14 C14_14 1_555 1_555
C31_14 C15_14 1_555 1_555
C32_14 C16_14 1_555 1_555
C41_14 C25_14 1_555 1_555
O2_14 C27_14 1_555 1_555
C42_14 C27_14 1_555 1_555
O3_14 C29_14 1_555 1_555
C43_14 C29_14 1_555 1_555
O4_14 C31_14 1_555 1_555
C44_14 C31_14 1_555 1_555
C49_14 O2_14 1_555 1_555
C50_14 O3_14 1_555 1_555
C51_14 O4_14 1_555 1_555
O9_14 C49_14 1_555 1_555
C54_14 C49_14 1_555 1_555
O10_14 C50_14 1_555 1_555
C55_14 C50_14 1_555 1_555
O11_14 C51_14 1_555 1_555
C56_14 C51_14 1_555 1_555
N17_14 Fe1_14 1_555 1_555
C59_14 N17_14 1_555 1_555
Nb2_14 C59_14 1_555 1_555
C76_14 Nb2_14 1_555 1_555
C77_14 Nb2_14 1_555 1_555
C78_14 Nb2_14 1_555 1_555
C79_14 Nb2_14 1_555 1_555
C80_14 Nb2_14 1_555 1_555
C81_14 Nb2_14 1_555 1_555
C82_14 Nb2_14 1_555 1_555
N24_14 C76_14 1_555 1_555
N25_14 C77_14 1_555 1_555
N26_14 C78_14 1_555 1_555
N27_14 C79_14 1_555 1_555
N28_14 C80_14 1_555 1_555
N29_14 C81_14 1_555 1_555
N30_14 C82_14 1_555 1_555
Fe5_7 N24_14 1_555 1_555
Fe6_9 N25_14 1_555 1_555
Fe7_2 N26_14 1_555 1_555
N31_14 Fe5_7 1_555 1_555
N32_14 Fe5_7 1_555 1_555
N33_14 Fe5_7 1_555 1_555
N34_14 Fe5_7 1_555 1_555
N35_7 Fe5_7 1_555 1_555
C91_14 N31_14 1_555 1_555
C92_14 N31_14 1_555 1_555
C93_14 N32_14 1_555 1_555
C94_14 N32_14 1_555 1_555
C95_14 N33_14 1_555 1_555
C96_14 N33_14 1_555 1_555
C97_14 N34_14 1_555 1_555
C98_14 N34_14 1_555 1_555
C99_14 C91_14 1_555 1_555
C100_14 C92_14 1_555 1_555
C101_14 C93_14 1_555 1_555
C102_14 C94_14 1_555 1_555
C103_14 C95_14 1_555 1_555
C104_14 C96_14 1_555 1_555
C105_14 C97_14 1_555 1_555
C106_14 C98_14 1_555 1_555
O20_14 C99_14 1_555 1_555
C107_14 C99_14 1_555 1_555
O21_14 C101_14 1_555 1_555
C108_14 C101_14 1_555 1_555
O22_14 C103_14 1_555 1_555
C109_14 C103_14 1_555 1_555
O23_14 C105_14 1_555 1_555
C110_14 C105_14 1_555 1_555
C111_14 O21_14 1_555 1_555
C112_14 O22_14 1_555 1_555
C113_14 O23_14 1_555 1_555
O24_14 C111_14 1_555 1_555
C114_14 C111_14 1_555 1_555
O25_14 C112_14 1_555 1_555
C115_14 C112_14 1_555 1_555
O26_14 C113_14 1_555 1_555
C116_14 C113_14 1_555 1_555
C26_14 C41_14 1_555 1_555
C28_14 C42_14 1_555 1_555
C30_14 C43_14 1_555 1_555
C32_14 C44_14 1_555 1_555
C100_14 C107_14 1_555 1_555
C102_14 C108_14 1_555 1_555
C104_14 C109_14 1_555 1_555
C106_14 C110_14 1_555 1_555
C9_14 H1_14 1_555 1_555
C14_14 H2_14 1_555 1_555
C13_14 H3_14 1_555 1_555
C10_14 H4_14 1_555 1_555
C16_14 H5_14 1_555 1_555
C12_14 H6_14 1_555 1_555
C15_14 H7_14 1_555 1_555
C11_14 H8_14 1_555 1_555
O1_14 H9_14 1_555 1_555
C41_14 H10_14 1_555 1_555
C30_14 H13_14 1_555 1_555
C28_14 H21_14 1_555 1_555
C26_14 H23_14 1_555 1_555
C32_14 H26_14 1_555 1_555
C42_14 H27_14 1_555 1_555
C54_14 H32_14 1_555 1_555
C54_14 H33_14 1_555 1_555
C54_14 H34_14 1_555 1_555
C55_14 H36_14 1_555 1_555
C55_14 H37_14 1_555 1_555
C55_14 H38_14 1_555 1_555
C44_14 H39_14 1_555 1_555
C43_14 H41_14 1_555 1_555
C56_14 H42_14 1_555 1_555
C56_14 H43_14 1_555 1_555
C56_14 H44_14 1_555 1_555
C91_14 H69_14 1_555 1_555
C93_14 H70_14 1_555 1_555
C97_14 H71_14 1_555 1_555
C96_14 H72_14 1_555 1_555
C94_14 H76_14 1_555 1_555
C95_14 H77_14 1_555 1_555
C100_14 H78_14 1_555 1_555
C98_14 H79_14 1_555 1_555
C92_14 H80_14 1_555 1_555
C107_14 H84_14 1_555 1_555
C114_14 H85_14 1_555 1_555
C114_14 H86_14 1_555 1_555
C114_14 H87_14 1_555 1_555
C108_14 H88_14 1_555 1_555
C115_14 H89_14 1_555 1_555
C115_14 H90_14 1_555 1_555
C115_14 H91_14 1_555 1_555
C104_14 H92_14 1_555 1_555
C106_14 H93_14 1_555 1_555
C116_14 H94_14 1_555 1_555
C116_14 H95_14 1_555 1_555
C116_14 H96_14 1_555 1_555
C102_14 H97_14 1_555 1_555
C109_14 H98_14 1_555 1_555
C110_14 H99_14 1_555 1_555
O20_14 H100_14 1_555 1_555
Nb1_15 C1_15 1_555 1_555
C1_15 N1_15 1_555 1_555
C2_15 Nb1_15 1_555 1_555
C3_15 Nb1_15 1_555 1_555
C4_15 Nb1_15 1_555 1_555
C5_15 Nb1_15 1_555 1_555
C6_15 Nb1_15 1_555 1_555
C7_15 Nb1_15 1_555 1_555
C8_15 Nb1_15 1_555 1_555
N1_15 Fe1_15 1_555 1_555
N20_4 C2_15 1_555 1_555
N23_2 C3_15 1_555 1_555
N35_7 C4_15 1_555 1_555
N5_15 C5_15 1_555 1_555
N6_15 C6_15 1_555 1_555
N7_15 C7_15 1_555 1_555
N8_15 C8_15 1_555 1_555
Fe1_15 N9_15 1_555 1_555
N9_15 C9_15 1_555 1_555
N10_15 Fe1_15 1_555 1_555
N11_15 Fe1_15 1_555 1_555
N12_15 Fe1_15 1_555 1_555
C9_15 C25_15 1_555 1_555
C10_15 N9_15 1_555 1_555
C11_15 N10_15 1_555 1_555
C12_15 N10_15 1_555 1_555
C13_15 N11_15 1_555 1_555
C14_15 N11_15 1_555 1_555
C15_15 N12_15 1_555 1_555
C16_15 N12_15 1_555 1_555
C25_15 O1_15 1_555 1_555
C26_15 C10_15 1_555 1_555
C27_15 C11_15 1_555 1_555
C28_15 C12_15 1_555 1_555
C29_15 C13_15 1_555 1_555
C30_15 C14_15 1_555 1_555
C31_15 C15_15 1_555 1_555
C32_15 C16_15 1_555 1_555
C41_15 C25_15 1_555 1_555
O2_15 C27_15 1_555 1_555
C42_15 C27_15 1_555 1_555
O3_15 C29_15 1_555 1_555
C43_15 C29_15 1_555 1_555
O4_15 C31_15 1_555 1_555
C44_15 C31_15 1_555 1_555
C49_15 O2_15 1_555 1_555
C50_15 O3_15 1_555 1_555
C51_15 O4_15 1_555 1_555
C54_15 C49_15 1_555 1_555
O10_15 C50_15 1_555 1_555
C55_15 C50_15 1_555 1_555
O11_15 C51_15 1_555 1_555
C56_15 C51_15 1_555 1_555
N17_15 Fe1_15 1_555 1_555
C59_15 N17_15 1_555 1_555
Nb2_15 C59_15 1_555 1_555
C76_15 Nb2_15 1_555 1_555
C77_15 Nb2_15 1_555 1_555
C78_15 Nb2_15 1_555 1_555
C79_15 Nb2_15 1_555 1_555
C80_15 Nb2_15 1_555 1_555
C81_15 Nb2_15 1_555 1_555
C82_15 Nb2_15 1_555 1_555
N24_15 C76_15 1_555 1_555
N25_15 C77_15 1_555 1_555
N26_15 C78_15 1_555 1_555
N27_15 C79_15 1_555 1_555
N28_15 C80_15 1_555 1_555
N29_15 C81_15 1_555 1_555
N30_15 C82_15 1_555 1_555
Fe4_8 N24_15 1_555 1_555
Fe6_10 N25_15 1_555 1_555
Fe7_3 N26_15 1_555 1_555
N31_15 Fe4_8 1_555 1_555
N32_15 Fe4_8 1_555 1_555
N33_15 Fe4_8 1_555 1_555
N34_15 Fe4_8 1_555 1_555
C91_15 N31_15 1_555 1_555
C92_15 N31_15 1_555 1_555
C93_15 N32_15 1_555 1_555
C94_15 N32_15 1_555 1_555
C95_15 N33_15 1_555 1_555
C96_15 N33_15 1_555 1_555
C97_15 N34_15 1_555 1_555
C98_15 N34_15 1_555 1_555
C99_15 C91_15 1_555 1_555
C100_15 C92_15 1_555 1_555
C101_15 C93_15 1_555 1_555
C102_15 C94_15 1_555 1_555
C103_15 C95_15 1_555 1_555
C104_15 C96_15 1_555 1_555
C105_15 C97_15 1_555 1_555
C106_15 C98_15 1_555 1_555
O20_15 C99_15 1_555 1_555
C107_15 C99_15 1_555 1_555
O21_15 C101_15 1_555 1_555
C108_15 C101_15 1_555 1_555
O22_15 C103_15 1_555 1_555
C109_15 C103_15 1_555 1_555
O23_15 C105_15 1_555 1_555
C110_15 C105_15 1_555 1_555
C111_15 O21_15 1_555 1_555
C112_15 O22_15 1_555 1_555
C113_15 O23_15 1_555 1_555
O24_15 C111_15 1_555 1_555
C114_15 C111_15 1_555 1_555
O25_15 C112_15 1_555 1_555
C115_15 C112_15 1_555 1_555
O26_15 C113_15 1_555 1_555
C116_15 C113_15 1_555 1_555
C26_15 C41_15 1_555 1_555
C28_15 C42_15 1_555 1_555
C30_15 C43_15 1_555 1_555
C32_15 C44_15 1_555 1_555
C100_15 C107_15 1_555 1_555
C102_15 C108_15 1_555 1_555
C104_15 C109_15 1_555 1_555
C106_15 C110_15 1_555 1_555
C9_15 H1_15 1_555 1_555
C14_15 H2_15 1_555 1_555
C13_15 H3_15 1_555 1_555
C10_15 H4_15 1_555 1_555
C16_15 H5_15 1_555 1_555
C12_15 H6_15 1_555 1_555
C15_15 H7_15 1_555 1_555
C11_15 H8_15 1_555 1_555
O1_15 H9_15 1_555 1_555
C41_15 H10_15 1_555 1_555
C30_15 H13_15 1_555 1_555
C28_15 H21_15 1_555 1_555
C26_15 H23_15 1_555 1_555
C32_15 H26_15 1_555 1_555
C42_15 H27_15 1_555 1_555
C54_15 H32_15 1_555 1_555
C54_15 H34_15 1_555 1_555
C55_15 H36_15 1_555 1_555
C55_15 H37_15 1_555 1_555
C55_15 H38_15 1_555 1_555
C44_15 H39_15 1_555 1_555
C43_15 H41_15 1_555 1_555
C56_15 H42_15 1_555 1_555
C56_15 H43_15 1_555 1_555
C56_15 H44_15 1_555 1_555
C91_15 H69_15 1_555 1_555
C93_15 H70_15 1_555 1_555
C97_15 H71_15 1_555 1_555
C96_15 H72_15 1_555 1_555
C94_15 H76_15 1_555 1_555
C95_15 H77_15 1_555 1_555
C100_15 H78_15 1_555 1_555
C98_15 H79_15 1_555 1_555
C92_15 H80_15 1_555 1_555
C107_15 H84_15 1_555 1_555
C114_15 H85_15 1_555 1_555
C114_15 H86_15 1_555 1_555
C114_15 H87_15 1_555 1_555
C108_15 H88_15 1_555 1_555
C115_15 H89_15 1_555 1_555
C115_15 H90_15 1_555 1_555
C115_15 H91_15 1_555 1_555
C104_15 H92_15 1_555 1_555
C106_15 H93_15 1_555 1_555
C116_15 H94_15 1_555 1_555
C116_15 H95_15 1_555 1_555
C116_15 H96_15 1_555 1_555
C102_15 H97_15 1_555 1_555
C109_15 H98_15 1_555 1_555
C110_15 H99_15 1_555 1_555
O20_15 H100_15 1_555 1_555
C116_16 H94_16 1_555 1_555
C116_16 H95_16 1_555 1_555
C116_16 H96_16 1_555 1_555
N4_9 C4_16 1_555 1_555
N7_16 C7_16 1_555 1_555
Fe4_9 N4_9 1_555 1_555
C55_16 H36_16 1_555 1_555
C55_16 H37_16 1_555 1_555
C55_16 H38_16 1_555 1_555
Nb1_16 C1_16 1_555 1_555
C1_16 N1_16 1_555 1_555
C2_16 Nb1_16 1_555 1_555
C3_16 Nb1_16 1_555 1_555
C5_16 Nb1_16 1_555 1_555
C6_16 Nb1_16 1_555 1_555
C8_16 Nb1_16 1_555 1_555
N20_2 C2_16 1_555 1_555
N23_9 C3_16 1_555 1_555
N5_16 C5_16 1_555 1_555
N8_16 C8_16 1_555 1_555
N9_16 C9_16 1_555 1_555
C9_16 C25_16 1_555 1_555
C10_16 N9_16 1_555 1_555
C12_16 N10_16 1_555 1_555
C25_16 O1_16 1_555 1_555
C26_16 C10_16 1_555 1_555
C28_16 C12_16 1_555 1_555
C41_16 C25_16 1_555 1_555
C42_16 C27_16 1_555 1_555
N33_16 Fe5_8 1_555 1_555
N34_16 Fe5_8 1_555 1_555
N35_8 Fe5_8 1_555 1_555
C95_16 N33_16 1_555 1_555
C96_16 N33_16 1_555 1_555
C97_16 N34_16 1_555 1_555
C98_16 N34_16 1_555 1_555
C103_16 C95_16 1_555 1_555
C104_16 C96_16 1_555 1_555
C105_16 C97_16 1_555 1_555
C106_16 C98_16 1_555 1_555
O22_16 C103_16 1_555 1_555
C109_16 C103_16 1_555 1_555
O23_16 C105_16 1_555 1_555
C110_16 C105_16 1_555 1_555
C111_16 O21_16 1_555 1_555
C112_16 O22_16 1_555 1_555
C113_16 O23_16 1_555 1_555
O24_16 C111_16 1_555 1_555
C114_16 C111_16 1_555 1_555
O25_16 C112_16 1_555 1_555
C115_16 C112_16 1_555 1_555
C26_16 C41_16 1_555 1_555
C28_16 C42_16 1_555 1_555
C104_16 C109_16 1_555 1_555
C106_16 C110_16 1_555 1_555
C9_16 H1_16 1_555 1_555
C10_16 H4_16 1_555 1_555
C12_16 H6_16 1_555 1_555
O1_16 H9_16 1_555 1_555
C41_16 H10_16 1_555 1_555
C28_16 H21_16 1_555 1_555
C26_16 H23_16 1_555 1_555
C42_16 H27_16 1_555 1_555
C93_16 H70_16 1_555 1_555
C97_16 H71_16 1_555 1_555
C96_16 H72_16 1_555 1_555
C95_16 H77_16 1_555 1_555
C114_16 H85_16 1_555 1_555
C114_16 H86_16 1_555 1_555
C114_16 H87_16 1_555 1_555
C115_16 H89_16 1_555 1_555
C115_16 H90_16 1_555 1_555
C115_16 H91_16 1_555 1_555
C104_16 H92_16 1_555 1_555
C106_16 H93_16 1_555 1_555
C109_16 H98_16 1_555 1_555
C110_16 H99_16 1_555 1_555
N11_16 Fe1_16 1_555 1_555
N12_16 Fe1_16 1_555 1_555
C13_16 N11_16 1_555 1_555
C14_16 N11_16 1_555 1_555
C15_16 N12_16 1_555 1_555
C16_16 N12_16 1_555 1_555
C29_16 C13_16 1_555 1_555
C30_16 C14_16 1_555 1_555
C31_16 C15_16 1_555 1_555
C32_16 C16_16 1_555 1_555
O3_16 C29_16 1_555 1_555
C43_16 C29_16 1_555 1_555
O4_16 C31_16 1_555 1_555
C44_16 C31_16 1_555 1_555
C49_16 O2_16 1_555 1_555
C50_16 O3_16 1_555 1_555
C51_16 O4_16 1_555 1_555
O9_16 C49_16 1_555 1_555
C54_16 C49_16 1_555 1_555
O10_16 C50_16 1_555 1_555
O11_16 C51_16 1_555 1_555
C56_16 C51_16 1_555 1_555
N17_16 Fe1_16 1_555 1_555
C59_16 N17_16 1_555 1_555
Nb2_16 C59_16 1_555 1_555
C76_16 Nb2_16 1_555 1_555
C77_16 Nb2_16 1_555 1_555
C78_16 Nb2_16 1_555 1_555
C79_16 Nb2_16 1_555 1_555
C80_16 Nb2_16 1_555 1_555
C81_16 Nb2_16 1_555 1_555
C82_16 Nb2_16 1_555 1_555
N24_16 C76_16 1_555 1_555
N25_16 C77_16 1_555 1_555
N26_16 C78_16 1_555 1_555
N27_16 C79_16 1_555 1_555
N29_16 C81_16 1_555 1_555
N30_16 C82_16 1_555 1_555
Fe6_8 N25_16 1_555 1_555
Fe7_7 N26_16 1_555 1_555
C91_16 N31_16 1_555 1_555
C92_16 N31_16 1_555 1_555
C94_16 N32_16 1_555 1_555
C99_16 C91_16 1_555 1_555
C100_16 C92_16 1_555 1_555
C102_16 C94_16 1_555 1_555
O20_16 C99_16 1_555 1_555
C107_16 C99_16 1_555 1_555
C108_16 C101_16 1_555 1_555
C30_16 C43_16 1_555 1_555
C32_16 C44_16 1_555 1_555
C100_16 C107_16 1_555 1_555
C102_16 C108_16 1_555 1_555
C14_16 H2_16 1_555 1_555
C13_16 H3_16 1_555 1_555
C15_16 H7_16 1_555 1_555
C11_16 H8_16 1_555 1_555
C30_16 H13_16 1_555 1_555
C54_16 H32_16 1_555 1_555
C54_16 H33_16 1_555 1_555
C54_16 H34_16 1_555 1_555
C43_16 H41_16 1_555 1_555
C56_16 H42_16 1_555 1_555
C56_16 H43_16 1_555 1_555
C56_16 H44_16 1_555 1_555
C91_16 H69_16 1_555 1_555
C94_16 H76_16 1_555 1_555
C92_16 H80_16 1_555 1_555
C107_16 H84_16 1_555 1_555
C108_16 H88_16 1_555 1_555
C102_16 H97_16 1_555 1_555
O20_16 H100_16 1_555 1_555
N33_17 Fe5_9 1_555 1_555
N34_17 Fe5_9 1_555 1_555
N35_9 Fe5_9 1_555 1_555
C95_17 N33_17 1_555 1_555
C96_17 N33_17 1_555 1_555
C97_17 N34_17 1_555 1_555
C98_17 N34_17 1_555 1_555
C103_17 C95_17 1_555 1_555
C104_17 C96_17 1_555 1_555
C105_17 C97_17 1_555 1_555
C106_17 C98_17 1_555 1_555
O22_17 C103_17 1_555 1_555
C109_17 C103_17 1_555 1_555
O23_17 C105_17 1_555 1_555
C110_17 C105_17 1_555 1_555
C111_17 O21_17 1_555 1_555
C112_17 O22_17 1_555 1_555
C113_17 O23_17 1_555 1_555
O24_17 C111_17 1_555 1_555
C114_17 C111_17 1_555 1_555
O25_17 C112_17 1_555 1_555
O26_17 C113_17 1_555 1_555
C116_17 C113_17 1_555 1_555
C104_17 C109_17 1_555 1_555
C106_17 C110_17 1_555 1_555
C93_17 H70_17 1_555 1_555
C97_17 H71_17 1_555 1_555
C96_17 H72_17 1_555 1_555
C95_17 H77_17 1_555 1_555
C114_17 H85_17 1_555 1_555
C114_17 H86_17 1_555 1_555
C114_17 H87_17 1_555 1_555
C104_17 H92_17 1_555 1_555
C116_17 H94_17 1_555 1_555
C116_17 H95_17 1_555 1_555
C116_17 H96_17 1_555 1_555
C109_17 H98_17 1_555 1_555
C76_17 Nb2_17 1_555 1_555
C77_17 Nb2_17 1_555 1_555
C78_17 Nb2_17 1_555 1_555
C79_17 Nb2_17 1_555 1_555
C80_17 Nb2_17 1_555 1_555
C82_17 Nb2_17 1_555 1_555
N24_17 C76_17 1_555 1_555
N25_17 C77_17 1_555 1_555
N26_17 C78_17 1_555 1_555
N27_17 C79_17 1_555 1_555
N30_17 C82_17 1_555 1_555
Fe6_6 N25_17 1_555 1_555
Fe7_8 N26_17 1_555 1_555
C91_17 N31_17 1_555 1_555
C92_17 N31_17 1_555 1_555
C94_17 N32_17 1_555 1_555
C99_17 C91_17 1_555 1_555
C100_17 C92_17 1_555 1_555
C102_17 C94_17 1_555 1_555
O20_17 C99_17 1_555 1_555
C107_17 C99_17 1_555 1_555
C108_17 C101_17 1_555 1_555
C100_17 C107_17 1_555 1_555
C102_17 C108_17 1_555 1_555
C56_17 H42_17 1_555 1_555
C56_17 H43_17 1_555 1_555
C56_17 H44_17 1_555 1_555
C91_17 H69_17 1_555 1_555
C94_17 H76_17 1_555 1_555
C100_17 H78_17 1_555 1_555
C92_17 H80_17 1_555 1_555
C107_17 H84_17 1_555 1_555
C108_17 H88_17 1_555 1_555
C102_17 H97_17 1_555 1_555
O20_17 H100_17 1_555 1_555
Nb1_17 C1_17 1_555 1_555
C1_17 N1_17 1_555 1_555
C2_17 Nb1_17 1_555 1_555
C3_17 Nb1_17 1_555 1_555
C5_17 Nb1_17 1_555 1_555
C6_17 Nb1_17 1_555 1_555
C8_17 Nb1_17 1_555 1_555
N20_3 C2_17 1_555 1_555
N23_7 C3_17 1_555 1_555
N5_17 C5_17 1_555 1_555
N8_17 C8_17 1_555 1_555
N9_17 C9_17 1_555 1_555
C9_17 C25_17 1_555 1_555
C10_17 N9_17 1_555 1_555
C12_17 N10_17 1_555 1_555
C25_17 O1_17 1_555 1_555
C26_17 C10_17 1_555 1_555
C28_17 C12_17 1_555 1_555
C41_17 C25_17 1_555 1_555
C42_17 C27_17 1_555 1_555
C26_17 C41_17 1_555 1_555
C28_17 C42_17 1_555 1_555
C9_17 H1_17 1_555 1_555
C10_17 H4_17 1_555 1_555
C12_17 H6_17 1_555 1_555
O1_17 H9_17 1_555 1_555
C41_17 H10_17 1_555 1_555
C28_17 H21_17 1_555 1_555
C42_17 H27_17 1_555 1_555
C115_17 H89_17 1_555 1_555
C115_17 H90_17 1_555 1_555
C115_17 H91_17 1_555 1_555
N11_17 Fe1_17 1_555 1_555
N12_17 Fe1_17 1_555 1_555
C13_17 N11_17 1_555 1_555
C14_17 N11_17 1_555 1_555
C15_17 N12_17 1_555 1_555
C16_17 N12_17 1_555 1_555
C29_17 C13_17 1_555 1_555
C30_17 C14_17 1_555 1_555
C31_17 C15_17 1_555 1_555
C32_17 C16_17 1_555 1_555
O3_17 C29_17 1_555 1_555
C43_17 C29_17 1_555 1_555
O4_17 C31_17 1_555 1_555
C44_17 C31_17 1_555 1_555
C49_17 O2_17 1_555 1_555
C50_17 O3_17 1_555 1_555
C51_17 O4_17 1_555 1_555
O9_17 C49_17 1_555 1_555
C54_17 C49_17 1_555 1_555
O10_17 C50_17 1_555 1_555
N17_17 Fe1_17 1_555 1_555
C59_17 N17_17 1_555 1_555
N29_17 C81_17 1_555 1_555
C30_17 C43_17 1_555 1_555
C32_17 C44_17 1_555 1_555
C14_17 H2_17 1_555 1_555
C13_17 H3_17 1_555 1_555
C15_17 H7_17 1_555 1_555
C11_17 H8_17 1_555 1_555
C30_17 H13_17 1_555 1_555
C54_17 H32_17 1_555 1_555
C54_17 H33_17 1_555 1_555
C54_17 H34_17 1_555 1_555
C43_17 H41_17 1_555 1_555
N35_8 C4_17 1_555 1_555
N7_17 C7_17 1_555 1_555
C55_17 H36_17 1_555 1_555
C55_17 H37_17 1_555 1_555
C55_17 H38_17 1_555 1_555
Nb1_18 C1_18 1_555 1_555
C1_18 N1_18 1_555 1_555
C2_18 Nb1_18 1_555 1_555
C3_18 Nb1_18 1_555 1_555
C4_18 Nb1_18 1_555 1_555
C5_18 Nb1_18 1_555 1_555
C6_18 Nb1_18 1_555 1_555
C7_18 Nb1_18 1_555 1_555
C8_18 Nb1_18 1_555 1_555
N20 C2_18 1_555 1_555
N23_8 C3_18 1_555 1_555
N35_9 C4_18 1_555 1_555
N5_18 C5_18 1_555 1_555
N7_18 C7_18 1_555 1_555
N8_18 C8_18 1_555 1_555
N9_18 C9_18 1_555 1_555
C9_18 C25_18 1_555 1_555
C10_18 N9_18 1_555 1_555
C12_18 N10_18 1_555 1_555
C25_18 O1_18 1_555 1_555
C26_18 C10_18 1_555 1_555
C28_18 C12_18 1_555 1_555
C41_18 C25_18 1_555 1_555
C42_18 C27_18 1_555 1_555
C26_18 C41_18 1_555 1_555
C28_18 C42_18 1_555 1_555
C9_18 H1_18 1_555 1_555
C10_18 H4_18 1_555 1_555
C12_18 H6_18 1_555 1_555
O1_18 H9_18 1_555 1_555
C41_18 H10_18 1_555 1_555
C28_18 H21_18 1_555 1_555
C42_18 H27_18 1_555 1_555
C115_18 H89_18 1_555 1_555
C115_18 H90_18 1_555 1_555
C115_18 H91_18 1_555 1_555
N11_18 Fe1_18 1_555 1_555
N12_18 Fe1_18 1_555 1_555
C13_18 N11_18 1_555 1_555
C14_18 N11_18 1_555 1_555
C15_18 N12_18 1_555 1_555
C16_18 N12_18 1_555 1_555
C29_18 C13_18 1_555 1_555
C30_18 C14_18 1_555 1_555
C31_18 C15_18 1_555 1_555
C32_18 C16_18 1_555 1_555
O3_18 C29_18 1_555 1_555
C43_18 C29_18 1_555 1_555
O4_18 C31_18 1_555 1_555
C44_18 C31_18 1_555 1_555
C49_18 O2_18 1_555 1_555
C50_18 O3_18 1_555 1_555
C51_18 O4_18 1_555 1_555
O9_18 C49_18 1_555 1_555
C54_18 C49_18 1_555 1_555
O10_18 C50_18 1_555 1_555
C55_18 C50_18 1_555 1_555
N17_18 Fe1_18 1_555 1_555
C59_18 N17_18 1_555 1_555
N29_18 C81_18 1_555 1_555
C30_18 C43_18 1_555 1_555
C32_18 C44_18 1_555 1_555
C14_18 H2_18 1_555 1_555
C13_18 H3_18 1_555 1_555
C15_18 H7_18 1_555 1_555
C11_18 H8_18 1_555 1_555
C30_18 H13_18 1_555 1_555
C32_18 H26_18 1_555 1_555
C54_18 H32_18 1_555 1_555
C54_18 H33_18 1_555 1_555
C54_18 H34_18 1_555 1_555
C55_18 H36_18 1_555 1_555
C55_18 H37_18 1_555 1_555
C55_18 H38_18 1_555 1_555
C44_18 H39_18 1_555 1_555
C43_18 H41_18 1_555 1_555
N33_18 Fe4_9 1_555 1_555
N34_18 Fe4_9 1_555 1_555
C95_18 N33_18 1_555 1_555
C96_18 N33_18 1_555 1_555
C97_18 N34_18 1_555 1_555
C98_18 N34_18 1_555 1_555
C103_18 C95_18 1_555 1_555
C104_18 C96_18 1_555 1_555
C105_18 C97_18 1_555 1_555
C106_18 C98_18 1_555 1_555
O22_18 C103_18 1_555 1_555
C109_18 C103_18 1_555 1_555
O23_18 C105_18 1_555 1_555
C110_18 C105_18 1_555 1_555
C111_18 O21_18 1_555 1_555
C112_18 O22_18 1_555 1_555
C113_18 O23_18 1_555 1_555
O24_18 C111_18 1_555 1_555
C114_18 C111_18 1_555 1_555
O25_18 C112_18 1_555 1_555
C104_18 C109_18 1_555 1_555
C106_18 C110_18 1_555 1_555
C93_18 H70_18 1_555 1_555
C97_18 H71_18 1_555 1_555
C96_18 H72_18 1_555 1_555
C95_18 H77_18 1_555 1_555
C114_18 H85_18 1_555 1_555
C114_18 H86_18 1_555 1_555
C114_18 H87_18 1_555 1_555
C104_18 H92_18 1_555 1_555
C109_18 H98_18 1_555 1_555
C76_18 Nb2_18 1_555 1_555
C77_18 Nb2_18 1_555 1_555
C78_18 Nb2_18 1_555 1_555
C79_18 Nb2_18 1_555 1_555
C80_18 Nb2_18 1_555 1_555
C82_18 Nb2_18 1_555 1_555
N24_18 C76_18 1_555 1_555
N25_18 C77_18 1_555 1_555
N26_18 C78_18 1_555 1_555
N27_18 C79_18 1_555 1_555
N30_18 C82_18 1_555 1_555
Fe6_7 N25_18 1_555 1_555
Fe7_11 N26_18 1_555 1_555
C91_18 N31_18 1_555 1_555
C92_18 N31_18 1_555 1_555
C94_18 N32_18 1_555 1_555
C99_18 C91_18 1_555 1_555
C100_18 C92_18 1_555 1_555
C102_18 C94_18 1_555 1_555
O20_18 C99_18 1_555 1_555
C107_18 C99_18 1_555 1_555
C108_18 C101_18 1_555 1_555
C100_18 C107_18 1_555 1_555
C102_18 C108_18 1_555 1_555
C56_18 H42_18 1_555 1_555
C56_18 H43_18 1_555 1_555
C56_18 H44_18 1_555 1_555
C91_18 H69_18 1_555 1_555
C94_18 H76_18 1_555 1_555
C92_18 H80_18 1_555 1_555
C107_18 H84_18 1_555 1_555
C108_18 H88_18 1_555 1_555
C102_18 H97_18 1_555 1_555
O20_18 H100_18 1_555 1_555
C116_18 H94_18 1_555 1_555
C116_18 H95_18 1_555 1_555
C116_18 H96_18 1_555 1_555
N15_10 Fe7_6 1_555 1_555
N16_10 Fe7_6 1_555 1_555
C21_10 N15_10 1_555 1_555
C22_10 N15_10 1_555 1_555
C23_10 N16_10 1_555 1_555
C24_10 N16_10 1_555 1_555
C37_10 C21_10 1_555 1_555
C38_10 C22_10 1_555 1_555
C39_10 C23_10 1_555 1_555
C40_10 C24_10 1_555 1_555
O5_10 C33_10 1_555 1_555
C45_10 C33_10 1_555 1_555
O6_10 C35_10 1_555 1_555
C46_10 C35_10 1_555 1_555
O7_10 C37_10 1_555 1_555
C47_10 C37_10 1_555 1_555
O8_10 C39_10 1_555 1_555
C48_10 C39_10 1_555 1_555
C52_10 O7_10 1_555 1_555
O12_10 C52_10 1_555 1_555
C57_10 C52_10 1_555 1_555
N21_10 Fe7_6 1_555 1_555
N22_10 Fe7_6 1_555 1_555
C64_10 N21_10 1_555 1_555
C65_10 N21_10 1_555 1_555
C66_10 N22_10 1_555 1_555
C67_10 N22_10 1_555 1_555
C72_10 C64_10 1_555 1_555
C73_10 C65_10 1_555 1_555
C74_10 C66_10 1_555 1_555
C75_10 C67_10 1_555 1_555
O16_10 C72_10 1_555 1_555
C85_10 C72_10 1_555 1_555
O17_10 C74_10 1_555 1_555
C86_10 C74_10 1_555 1_555
C87_10 O16_10 1_555 1_555
C88_10 O17_10 1_555 1_555
O18_10 C87_10 1_555 1_555
C89_10 C87_10 1_555 1_555
O19_10 C88_10 1_555 1_555
C90_10 C88_10 1_555 1_555
C34_10 C45_10 1_555 1_555
C38_10 C47_10 1_555 1_555
C40_10 C48_10 1_555 1_555
C73_10 C85_10 1_555 1_555
C75_10 C86_10 1_555 1_555
C21_10 H12_10 1_555 1_555
C34_10 H14_10 1_555 1_555
C38_10 H15_10 1_555 1_555
C22_10 H17_10 1_555 1_555
C24_10 H19_10 1_555 1_555
C40_10 H22_10 1_555 1_555
C23_10 H24_10 1_555 1_555
C46_10 H28_10 1_555 1_555
C47_10 H29_10 1_555 1_555
C48_10 H30_10 1_555 1_555
O5_10 H31_10 1_555 1_555
C45_10 H35_10 1_555 1_555
O6_10 H40_10 1_555 1_555
C57_10 H45_10 1_555 1_555
C57_10 H46_10 1_555 1_555
C57_10 H47_10 1_555 1_555
C64_10 H52_10 1_555 1_555
C75_10 H54_10 1_555 1_555
C66_10 H55_10 1_555 1_555
C85_10 H57_10 1_555 1_555
C65_10 H58_10 1_555 1_555
C73_10 H60_10 1_555 1_555
C67_10 H63_10 1_555 1_555
C86_10 H64_10 1_555 1_555
C90_10 H73_10 1_555 1_555
C90_10 H74_10 1_555 1_555
C90_10 H75_10 1_555 1_555
C89_10 H81_10 1_555 1_555
C89_10 H82_10 1_555 1_555
C89_10 H83_10 1_555 1_555
N13_10 Fe6_8 1_555 1_555
N14_10 Fe6_8 1_555 1_555
C17_10 N13_10 1_555 1_555
C18_10 N13_10 1_555 1_555
C19_10 N14_10 1_555 1_555
C20_10 N14_10 1_555 1_555
C36_10 C20_10 1_555 1_555
O13_10 C53_10 1_555 1_555
C58_10 C53_10 1_555 1_555
N18_10 Fe6_8 1_555 1_555
N19_10 Fe6_8 1_555 1_555
C60_10 N18_10 1_555 1_555
C61_10 N18_10 1_555 1_555
C62_10 N19_10 1_555 1_555
C63_10 N19_10 1_555 1_555
C68_10 C60_10 1_555 1_555
C69_10 C61_10 1_555 1_555
C70_10 C62_10 1_555 1_555
C71_10 C63_10 1_555 1_555
O14_10 C68_10 1_555 1_555
C83_10 C68_10 1_555 1_555
O15_10 C70_10 1_555 1_555
C84_10 C70_10 1_555 1_555
C69_10 C83_10 1_555 1_555
C71_10 C84_10 1_555 1_555
O20_6 H9_19 1_555 1_555
C18_10 H11_10 1_555 1_555
C20_10 H16_10 1_555 1_555
C19_10 H18_10 1_555 1_555
C17_10 H20_10 1_555 1_555
C58_10 H48_10 1_555 1_555
C58_10 H49_10 1_555 1_555
C60_10 H51_10 1_555 1_555
C62_10 H53_10 1_555 1_555
O14_10 H56_10 1_555 1_555
C83_10 H59_10 1_555 1_555
O15_10 H61_10 1_555 1_555
C84_10 H62_10 1_555 1_555
C61_10 H65_10 1_555 1_555
C63_10 H66_10 1_555 1_555
C69_10 H67_10 1_555 1_555
C71_10 H68_10 1_555 1_555
O1_5 H100_19 1_555 1_555
N15_11 Fe7_4 1_555 1_555
N16_11 Fe7_4 1_555 1_555
C21_11 N15_11 1_555 1_555
C22_11 N15_11 1_555 1_555
C23_11 N16_11 1_555 1_555
C24_11 N16_11 1_555 1_555
C37_11 C21_11 1_555 1_555
C38_11 C22_11 1_555 1_555
C39_11 C23_11 1_555 1_555
C40_11 C24_11 1_555 1_555
O5_11 C33_11 1_555 1_555
C45_11 C33_11 1_555 1_555
O7_11 C37_11 1_555 1_555
C47_11 C37_11 1_555 1_555
O8_11 C39_11 1_555 1_555
C48_11 C39_11 1_555 1_555
C52_11 O7_11 1_555 1_555
O12_11 C52_11 1_555 1_555
C57_11 C52_11 1_555 1_555
N21_11 Fe7_4 1_555 1_555
N22_11 Fe7_4 1_555 1_555
C64_11 N21_11 1_555 1_555
C65_11 N21_11 1_555 1_555
C66_11 N22_11 1_555 1_555
C67_11 N22_11 1_555 1_555
C72_11 C64_11 1_555 1_555
C73_11 C65_11 1_555 1_555
C74_11 C66_11 1_555 1_555
C75_11 C67_11 1_555 1_555
O16_11 C72_11 1_555 1_555
C85_11 C72_11 1_555 1_555
O17_11 C74_11 1_555 1_555
C86_11 C74_11 1_555 1_555
C87_11 O16_11 1_555 1_555
C88_11 O17_11 1_555 1_555
O18_11 C87_11 1_555 1_555
C89_11 C87_11 1_555 1_555
O19_11 C88_11 1_555 1_555
C90_11 C88_11 1_555 1_555
C34_11 C45_11 1_555 1_555
C38_11 C47_11 1_555 1_555
C40_11 C48_11 1_555 1_555
C73_11 C85_11 1_555 1_555
C75_11 C86_11 1_555 1_555
C21_11 H12_11 1_555 1_555
C34_11 H14_11 1_555 1_555
C38_11 H15_11 1_555 1_555
C22_11 H17_11 1_555 1_555
C24_11 H19_11 1_555 1_555
C40_11 H22_11 1_555 1_555
C23_11 H24_11 1_555 1_555
C47_11 H29_11 1_555 1_555
O5_11 H31_11 1_555 1_555
C45_11 H35_11 1_555 1_555
C57_11 H45_11 1_555 1_555
C57_11 H46_11 1_555 1_555
C57_11 H47_11 1_555 1_555
C64_11 H52_11 1_555 1_555
C75_11 H54_11 1_555 1_555
C66_11 H55_11 1_555 1_555
C85_11 H57_11 1_555 1_555
C65_11 H58_11 1_555 1_555
C73_11 H60_11 1_555 1_555
C67_11 H63_11 1_555 1_555
C86_11 H64_11 1_555 1_555
C90_11 H73_11 1_555 1_555
C90_11 H74_11 1_555 1_555
C90_11 H75_11 1_555 1_555
C89_11 H81_11 1_555 1_555
C89_11 H82_11 1_555 1_555
C89_11 H83_11 1_555 1_555
N13_11 Fe6_6 1_555 1_555
N14_11 Fe6_6 1_555 1_555
C17_11 N13_11 1_555 1_555
C18_11 N13_11 1_555 1_555
C19_11 N14_11 1_555 1_555
C20_11 N14_11 1_555 1_555
C36_11 C20_11 1_555 1_555
O13_11 C53_11 1_555 1_555
N18_11 Fe6_6 1_555 1_555
N19_11 Fe6_6 1_555 1_555
C60_11 N18_11 1_555 1_555
C61_11 N18_11 1_555 1_555
C62_11 N19_11 1_555 1_555
C63_11 N19_11 1_555 1_555
C68_11 C60_11 1_555 1_555
C69_11 C61_11 1_555 1_555
C70_11 C62_11 1_555 1_555
O14_11 C68_11 1_555 1_555
C83_11 C68_11 1_555 1_555
O15_11 C70_11 1_555 1_555
C69_11 C83_11 1_555 1_555
O20_4 H9_20 1_555 1_555
C18_11 H11_11 1_555 1_555
C20_11 H16_11 1_555 1_555
C19_11 H18_11 1_555 1_555
C17_11 H20_11 1_555 1_555
C60_11 H51_11 1_555 1_555
C62_11 H53_11 1_555 1_555
O14_11 H56_11 1_555 1_555
C83_11 H59_11 1_555 1_555
O15_11 H61_11 1_555 1_555
C61_11 H65_11 1_555 1_555
C69_11 H67_11 1_555 1_555
O1_6 H100_20 1_555 1_555
O6_11 C35_11 1_555 1_555
C46_11 C35_11 1_555 1_555
C46_11 H28_11 1_555 1_555
C71_11 C84_11 1_555 1_555
C58_11 H48_11 1_555 1_555
C58_11 H49_11 1_555 1_555
C84_11 H62_11 1_555 1_555
C71_11 H68_11 1_555 1_555
O6_12 C35_12 1_555 1_555
C46_12 C35_12 1_555 1_555
C46_12 H28_12 1_555 1_555
C71_12 C84_12 1_555 1_555
C58_12 H48_12 1_555 1_555
C58_12 H49_12 1_555 1_555
C84_12 H62_12 1_555 1_555
C71_12 H68_12 1_555 1_555
N15_12 Fe7_5 1_555 1_555
N16_12 Fe7_5 1_555 1_555
C21_12 N15_12 1_555 1_555
C22_12 N15_12 1_555 1_555
C23_12 N16_12 1_555 1_555
C24_12 N16_12 1_555 1_555
C37_12 C21_12 1_555 1_555
C38_12 C22_12 1_555 1_555
C39_12 C23_12 1_555 1_555
C40_12 C24_12 1_555 1_555
O5_12 C33_12 1_555 1_555
C45_12 C33_12 1_555 1_555
O7_12 C37_12 1_555 1_555
C47_12 C37_12 1_555 1_555
O8_12 C39_12 1_555 1_555
C48_12 C39_12 1_555 1_555
C52_12 O7_12 1_555 1_555
O12_12 C52_12 1_555 1_555
C57_12 C52_12 1_555 1_555
N21_12 Fe7_5 1_555 1_555
N22_12 Fe7_5 1_555 1_555
C64_12 N21_12 1_555 1_555
C65_12 N21_12 1_555 1_555
C66_12 N22_12 1_555 1_555
C67_12 N22_12 1_555 1_555
C72_12 C64_12 1_555 1_555
C73_12 C65_12 1_555 1_555
C74_12 C66_12 1_555 1_555
C75_12 C67_12 1_555 1_555
O16_12 C72_12 1_555 1_555
C85_12 C72_12 1_555 1_555
O17_12 C74_12 1_555 1_555
C86_12 C74_12 1_555 1_555
C87_12 O16_12 1_555 1_555
C88_12 O17_12 1_555 1_555
O18_12 C87_12 1_555 1_555
C89_12 C87_12 1_555 1_555
O19_12 C88_12 1_555 1_555
C90_12 C88_12 1_555 1_555
C34_12 C45_12 1_555 1_555
C38_12 C47_12 1_555 1_555
C40_12 C48_12 1_555 1_555
C73_12 C85_12 1_555 1_555
C75_12 C86_12 1_555 1_555
C21_12 H12_12 1_555 1_555
C34_12 H14_12 1_555 1_555
C38_12 H15_12 1_555 1_555
C22_12 H17_12 1_555 1_555
C24_12 H19_12 1_555 1_555
C40_12 H22_12 1_555 1_555
C23_12 H24_12 1_555 1_555
C47_12 H29_12 1_555 1_555
O5_12 H31_12 1_555 1_555
C45_12 H35_12 1_555 1_555
C57_12 H45_12 1_555 1_555
C57_12 H46_12 1_555 1_555
C57_12 H47_12 1_555 1_555
C64_12 H52_12 1_555 1_555
C75_12 H54_12 1_555 1_555
C66_12 H55_12 1_555 1_555
C85_12 H57_12 1_555 1_555
C65_12 H58_12 1_555 1_555
C73_12 H60_12 1_555 1_555
C67_12 H63_12 1_555 1_555
C86_12 H64_12 1_555 1_555
C90_12 H73_12 1_555 1_555
C90_12 H74_12 1_555 1_555
C90_12 H75_12 1_555 1_555
C89_12 H81_12 1_555 1_555
C89_12 H82_12 1_555 1_555
C89_12 H83_12 1_555 1_555
N13_12 Fe6_7 1_555 1_555
N14_12 Fe6_7 1_555 1_555
C17_12 N13_12 1_555 1_555
C18_12 N13_12 1_555 1_555
C19_12 N14_12 1_555 1_555
C20_12 N14_12 1_555 1_555
C36_12 C20_12 1_555 1_555
O13_12 C53_12 1_555 1_555
N18_12 Fe6_7 1_555 1_555
N19_12 Fe6_7 1_555 1_555
C60_12 N18_12 1_555 1_555
C61_12 N18_12 1_555 1_555
C62_12 N19_12 1_555 1_555
C63_12 N19_12 1_555 1_555
C68_12 C60_12 1_555 1_555
C69_12 C61_12 1_555 1_555
C70_12 C62_12 1_555 1_555
O14_12 C68_12 1_555 1_555
C83_12 C68_12 1_555 1_555
O15_12 C70_12 1_555 1_555
C69_12 C83_12 1_555 1_555
O20_5 H9_21 1_555 1_555
C18_12 H11_12 1_555 1_555
C20_12 H16_12 1_555 1_555
C19_12 H18_12 1_555 1_555
C17_12 H20_12 1_555 1_555
C60_12 H51_12 1_555 1_555
C62_12 H53_12 1_555 1_555
O14_12 H56_12 1_555 1_555
C83_12 H59_12 1_555 1_555
O15_12 H61_12 1_555 1_555
C61_12 H65_12 1_555 1_555
C69_12 H67_12 1_555 1_555
O1_4 H100_21 1_555 1_555
N13_13 Fe6_4 1_555 1_555
N14_13 Fe6_4 1_555 1_555
C18_13 N13_13 1_555 1_555
C19_13 N14_13 1_555 1_555
C34_13 C18_13 1_555 1_555
C35_13 C19_13 1_555 1_555
O6_13 C35_13 1_555 1_555
C46_13 C35_13 1_555 1_555
C68_13 C60_13 1_555 1_555
C71_13 C63_13 1_555 1_555
O14_13 C68_13 1_555 1_555
C34_13 C45_13 1_555 1_555
C18_13 H11_13 1_555 1_555
C34_13 H14_13 1_555 1_555
C19_13 H18_13 1_555 1_555
C46_13 H28_13 1_555 1_555
C45_13 H35_13 1_555 1_555
O6_13 H40_13 1_555 1_555
C60_13 H51_13 1_555 1_555
O14_13 H56_13 1_555 1_555
C63_13 H66_13 1_555 1_555
C71_13 H68_13 1_555 1_555
C90_13 H73_13 1_555 1_555
C90_13 H74_13 1_555 1_555
C90_13 H75_13 1_555 1_555
N15_13 Fe7_3 1_555 1_555
N16_13 Fe7_3 1_555 1_555
C21_13 N15_13 1_555 1_555
C22_13 N15_13 1_555 1_555
C23_13 N16_13 1_555 1_555
C24_13 N16_13 1_555 1_555
C33_13 C17_13 1_555 1_555
C36_13 C20_13 1_555 1_555
C37_13 C21_13 1_555 1_555
C38_13 C22_13 1_555 1_555
C39_13 C23_13 1_555 1_555
C40_13 C24_13 1_555 1_555
O5_13 C33_13 1_555 1_555
O7_13 C37_13 1_555 1_555
C47_13 C37_13 1_555 1_555
O8_13 C39_13 1_555 1_555
C48_13 C39_13 1_555 1_555
C52_13 O7_13 1_555 1_555
C53_13 O8_13 1_555 1_555
O12_13 C52_13 1_555 1_555
C57_13 C52_13 1_555 1_555
O13_13 C53_13 1_555 1_555
C58_13 C53_13 1_555 1_555
N18_13 Fe6_5 1_555 1_555
N19_13 Fe6_5 1_555 1_555
N21_13 Fe7_3 1_555 1_555
N22_13 Fe7_3 1_555 1_555
C61_13 N18_13 1_555 1_555
C62_13 N19_13 1_555 1_555
C64_13 N21_13 1_555 1_555
C65_13 N21_13 1_555 1_555
C66_13 N22_13 1_555 1_555
C67_13 N22_13 1_555 1_555
C69_13 C61_13 1_555 1_555
C70_13 C62_13 1_555 1_555
C72_13 C64_13 1_555 1_555
C73_13 C65_13 1_555 1_555
C74_13 C66_13 1_555 1_555
C75_13 C67_13 1_555 1_555
O15_13 C70_13 1_555 1_555
C84_13 C70_13 1_555 1_555
O16_13 C72_13 1_555 1_555
C85_13 C72_13 1_555 1_555
O17_13 C74_13 1_555 1_555
C86_13 C74_13 1_555 1_555
C87_13 O16_13 1_555 1_555
C88_13 O17_13 1_555 1_555
O18_13 C87_13 1_555 1_555
C89_13 C87_13 1_555 1_555
O19_13 C88_13 1_555 1_555
C38_13 C47_13 1_555 1_555
C40_13 C48_13 1_555 1_555
C69_13 C83_13 1_555 1_555
C73_13 C85_13 1_555 1_555
C75_13 C86_13 1_555 1_555
O20_3 H9_22 1_555 1_555
C21_13 H12_13 1_555 1_555
C38_13 H15_13 1_555 1_555
C20_13 H16_13 1_555 1_555
C22_13 H17_13 1_555 1_555
C24_13 H19_13 1_555 1_555
C17_13 H20_13 1_555 1_555
C40_13 H22_13 1_555 1_555
C23_13 H24_13 1_555 1_555
C36_13 H25_13 1_555 1_555
C47_13 H29_13 1_555 1_555
C48_13 H30_13 1_555 1_555
O5_13 H31_13 1_555 1_555
C57_13 H45_13 1_555 1_555
C57_13 H46_13 1_555 1_555
C57_13 H47_13 1_555 1_555
C58_13 H48_13 1_555 1_555
C58_13 H49_13 1_555 1_555
C58_13 H50_13 1_555 1_555
C64_13 H52_13 1_555 1_555
C62_13 H53_13 1_555 1_555
C75_13 H54_13 1_555 1_555
C66_13 H55_13 1_555 1_555
C85_13 H57_13 1_555 1_555
C65_13 H58_13 1_555 1_555
C83_13 H59_13 1_555 1_555
C73_13 H60_13 1_555 1_555
O15_13 H61_13 1_555 1_555
C84_13 H62_13 1_555 1_555
C67_13 H63_13 1_555 1_555
C61_13 H65_13 1_555 1_555
C69_13 H67_13 1_555 1_555
C89_13 H81_13 1_555 1_555
C89_13 H82_13 1_555 1_555
C89_13 H83_13 1_555 1_555
O1_2 H100_22 1_555 1_555
N15_14 Fe7 1_555 1_555
N16_14 Fe7 1_555 1_555
C21_14 N15_14 1_555 1_555
C22_14 N15_14 1_555 1_555
C23_14 N16_14 1_555 1_555
C24_14 N16_14 1_555 1_555
C33_14 C17_14 1_555 1_555
C36_14 C20_14 1_555 1_555
C37_14 C21_14 1_555 1_555
C38_14 C22_14 1_555 1_555
C39_14 C23_14 1_555 1_555
C40_14 C24_14 1_555 1_555
O5_14 C33_14 1_555 1_555
O7_14 C37_14 1_555 1_555
C47_14 C37_14 1_555 1_555
O8_14 C39_14 1_555 1_555
C48_14 C39_14 1_555 1_555
C52_14 O7_14 1_555 1_555
C53_14 O8_14 1_555 1_555
O12_14 C52_14 1_555 1_555
C57_14 C52_14 1_555 1_555
O13_14 C53_14 1_555 1_555
C58_14 C53_14 1_555 1_555
N18_14 Fe6 1_555 1_555
N19_14 Fe6 1_555 1_555
N21_14 Fe7 1_555 1_555
N22_14 Fe7 1_555 1_555
C61_14 N18_14 1_555 1_555
C62_14 N19_14 1_555 1_555
C64_14 N21_14 1_555 1_555
C65_14 N21_14 1_555 1_555
C66_14 N22_14 1_555 1_555
C67_14 N22_14 1_555 1_555
C69_14 C61_14 1_555 1_555
C70_14 C62_14 1_555 1_555
C72_14 C64_14 1_555 1_555
C73_14 C65_14 1_555 1_555
C74_14 C66_14 1_555 1_555
C75_14 C67_14 1_555 1_555
O15_14 C70_14 1_555 1_555
C84_14 C70_14 1_555 1_555
O16_14 C72_14 1_555 1_555
C85_14 C72_14 1_555 1_555
O17_14 C74_14 1_555 1_555
C86_14 C74_14 1_555 1_555
C87_14 O16_14 1_555 1_555
C88_14 O17_14 1_555 1_555
O18_14 C87_14 1_555 1_555
C89_14 C87_14 1_555 1_555
O19_14 C88_14 1_555 1_555
C38_14 C47_14 1_555 1_555
C40_14 C48_14 1_555 1_555
C69_14 C83_14 1_555 1_555
C73_14 C85_14 1_555 1_555
C75_14 C86_14 1_555 1_555
O20 H9_23 1_555 1_555
C21_14 H12_14 1_555 1_555
C38_14 H15_14 1_555 1_555
C20_14 H16_14 1_555 1_555
C22_14 H17_14 1_555 1_555
C24_14 H19_14 1_555 1_555
C17_14 H20_14 1_555 1_555
C40_14 H22_14 1_555 1_555
C23_14 H24_14 1_555 1_555
C36_14 H25_14 1_555 1_555
C47_14 H29_14 1_555 1_555
C48_14 H30_14 1_555 1_555
O5_14 H31_14 1_555 1_555
C57_14 H45_14 1_555 1_555
C57_14 H46_14 1_555 1_555
C57_14 H47_14 1_555 1_555
C58_14 H48_14 1_555 1_555
C58_14 H49_14 1_555 1_555
C58_14 H50_14 1_555 1_555
C64_14 H52_14 1_555 1_555
C62_14 H53_14 1_555 1_555
C75_14 H54_14 1_555 1_555
C66_14 H55_14 1_555 1_555
C85_14 H57_14 1_555 1_555
C65_14 H58_14 1_555 1_555
C83_14 H59_14 1_555 1_555
C73_14 H60_14 1_555 1_555
O15_14 H61_14 1_555 1_555
C84_14 H62_14 1_555 1_555
C67_14 H63_14 1_555 1_555
C61_14 H65_14 1_555 1_555
C69_14 H67_14 1_555 1_555
C89_14 H81_14 1_555 1_555
C89_14 H82_14 1_555 1_555
C89_14 H83_14 1_555 1_555
O1_3 H100_23 1_555 1_555
N13_14 Fe6_2 1_555 1_555
N14_14 Fe6_2 1_555 1_555
C18_14 N13_14 1_555 1_555
C19_14 N14_14 1_555 1_555
C34_14 C18_14 1_555 1_555
C35_14 C19_14 1_555 1_555
O6_14 C35_14 1_555 1_555
C46_14 C35_14 1_555 1_555
C68_14 C60_14 1_555 1_555
C71_14 C63_14 1_555 1_555
O14_14 C68_14 1_555 1_555
C34_14 C45_14 1_555 1_555
C18_14 H11_14 1_555 1_555
C34_14 H14_14 1_555 1_555
C19_14 H18_14 1_555 1_555
C46_14 H28_14 1_555 1_555
C45_14 H35_14 1_555 1_555
O6_14 H40_14 1_555 1_555
C60_14 H51_14 1_555 1_555
O14_14 H56_14 1_555 1_555
C63_14 H66_14 1_555 1_555
C71_14 H68_14 1_555 1_555
C90_14 H73_14 1_555 1_555
C90_14 H74_14 1_555 1_555
C90_14 H75_14 1_555 1_555
N13_15 Fe6_3 1_555 1_555
N14_15 Fe6_3 1_555 1_555
N15_15 Fe7_2 1_555 1_555
N16_15 Fe7_2 1_555 1_555
C17_15 N13_15 1_555 1_555
C18_15 N13_15 1_555 1_555
C19_15 N14_15 1_555 1_555
C20_15 N14_15 1_555 1_555
C21_15 N15_15 1_555 1_555
C22_15 N15_15 1_555 1_555
C23_15 N16_15 1_555 1_555
C24_15 N16_15 1_555 1_555
C33_15 C17_15 1_555 1_555
C34_15 C18_15 1_555 1_555
C35_15 C19_15 1_555 1_555
C36_15 C20_15 1_555 1_555
C37_15 C21_15 1_555 1_555
C38_15 C22_15 1_555 1_555
C39_15 C23_15 1_555 1_555
C40_15 C24_15 1_555 1_555
O5_15 C33_15 1_555 1_555
C45_15 C33_15 1_555 1_555
O6_15 C35_15 1_555 1_555
C46_15 C35_15 1_555 1_555
O7_15 C37_15 1_555 1_555
C47_15 C37_15 1_555 1_555
O8_15 C39_15 1_555 1_555
C48_15 C39_15 1_555 1_555
C52_15 O7_15 1_555 1_555
C53_15 O8_15 1_555 1_555
O12_15 C52_15 1_555 1_555
C57_15 C52_15 1_555 1_555
O13_15 C53_15 1_555 1_555
C58_15 C53_15 1_555 1_555
N18_15 Fe6_3 1_555 1_555
N19_15 Fe6_3 1_555 1_555
N21_15 Fe7_2 1_555 1_555
N22_15 Fe7_2 1_555 1_555
C60_15 N18_15 1_555 1_555
C61_15 N18_15 1_555 1_555
C62_15 N19_15 1_555 1_555
C63_15 N19_15 1_555 1_555
C64_15 N21_15 1_555 1_555
C65_15 N21_15 1_555 1_555
C66_15 N22_15 1_555 1_555
C67_15 N22_15 1_555 1_555
C68_15 C60_15 1_555 1_555
C69_15 C61_15 1_555 1_555
C70_15 C62_15 1_555 1_555
C71_15 C63_15 1_555 1_555
C72_15 C64_15 1_555 1_555
C73_15 C65_15 1_555 1_555
C74_15 C66_15 1_555 1_555
C75_15 C67_15 1_555 1_555
O14_15 C68_15 1_555 1_555
C83_15 C68_15 1_555 1_555
O15_15 C70_15 1_555 1_555
C84_15 C70_15 1_555 1_555
O16_15 C72_15 1_555 1_555
C85_15 C72_15 1_555 1_555
O17_15 C74_15 1_555 1_555
C86_15 C74_15 1_555 1_555
C87_15 O16_15 1_555 1_555
C88_15 O17_15 1_555 1_555
O18_15 C87_15 1_555 1_555
C89_15 C87_15 1_555 1_555
O19_15 C88_15 1_555 1_555
C90_15 C88_15 1_555 1_555
C34_15 C45_15 1_555 1_555
C36_15 C46_15 1_555 1_555
C38_15 C47_15 1_555 1_555
C40_15 C48_15 1_555 1_555
C69_15 C83_15 1_555 1_555
C71_15 C84_15 1_555 1_555
C73_15 C85_15 1_555 1_555
C75_15 C86_15 1_555 1_555
O20_2 H9_24 1_555 1_555
C18_15 H11_15 1_555 1_555
C21_15 H12_15 1_555 1_555
C34_15 H14_15 1_555 1_555
C38_15 H15_15 1_555 1_555
C20_15 H16_15 1_555 1_555
C22_15 H17_15 1_555 1_555
C19_15 H18_15 1_555 1_555
C24_15 H19_15 1_555 1_555
C17_15 H20_15 1_555 1_555
C40_15 H22_15 1_555 1_555
C23_15 H24_15 1_555 1_555
C36_15 H25_15 1_555 1_555
C46_15 H28_15 1_555 1_555
C47_15 H29_15 1_555 1_555
C48_15 H30_15 1_555 1_555
O5_15 H31_15 1_555 1_555
C45_15 H35_15 1_555 1_555
O6_15 H40_15 1_555 1_555
C57_15 H45_15 1_555 1_555
C57_15 H46_15 1_555 1_555
C57_15 H47_15 1_555 1_555
C58_15 H48_15 1_555 1_555
C58_15 H49_15 1_555 1_555
C58_15 H50_15 1_555 1_555
C60_15 H51_15 1_555 1_555
C64_15 H52_15 1_555 1_555
C62_15 H53_15 1_555 1_555
C75_15 H54_15 1_555 1_555
C66_15 H55_15 1_555 1_555
O14_15 H56_15 1_555 1_555
C85_15 H57_15 1_555 1_555
C65_15 H58_15 1_555 1_555
C83_15 H59_15 1_555 1_555
C73_15 H60_15 1_555 1_555
O15_15 H61_15 1_555 1_555
C84_15 H62_15 1_555 1_555
C67_15 H63_15 1_555 1_555
C86_15 H64_15 1_555 1_555
C61_15 H65_15 1_555 1_555
C63_15 H66_15 1_555 1_555
C69_15 H67_15 1_555 1_555
C71_15 H68_15 1_555 1_555
C90_15 H73_15 1_555 1_555
C90_15 H74_15 1_555 1_555
C90_15 H75_15 1_555 1_555
C89_15 H81_15 1_555 1_555
C89_15 H82_15 1_555 1_555
C89_15 H83_15 1_555 1_555
O1 H100_24 1_555 1_555
N13_16 Fe6_11 1_555 1_555
N14_16 Fe6_11 1_555 1_555
C17_16 N13_16 1_555 1_555
C18_16 N13_16 1_555 1_555
C19_16 N14_16 1_555 1_555
C20_16 N14_16 1_555 1_555
C33_16 C17_16 1_555 1_555
C34_16 C18_16 1_555 1_555
C35_16 C19_16 1_555 1_555
O5_16 C33_16 1_555 1_555
C45_16 C33_16 1_555 1_555
O6_16 C35_16 1_555 1_555
N18_16 Fe6_11 1_555 1_555
N19_16 Fe6_11 1_555 1_555
N21_16 Fe7_10 1_555 1_555
N22_16 Fe7_10 1_555 1_555
C60_16 N18_16 1_555 1_555
C61_16 N18_16 1_555 1_555
C62_16 N19_16 1_555 1_555
C63_16 N19_16 1_555 1_555
C64_16 N21_16 1_555 1_555
C65_16 N21_16 1_555 1_555
C66_16 N22_16 1_555 1_555
C67_16 N22_16 1_555 1_555
C68_16 C60_16 1_555 1_555
C69_16 C61_16 1_555 1_555
C71_16 C63_16 1_555 1_555
C72_16 C64_16 1_555 1_555
C73_16 C65_16 1_555 1_555
C74_16 C66_16 1_555 1_555
C75_16 C67_16 1_555 1_555
O14_16 C68_16 1_555 1_555
C83_16 C68_16 1_555 1_555
O16_16 C72_16 1_555 1_555
C85_16 C72_16 1_555 1_555
O17_16 C74_16 1_555 1_555
C86_16 C74_16 1_555 1_555
C87_16 O16_16 1_555 1_555
C88_16 O17_16 1_555 1_555
O18_16 C87_16 1_555 1_555
C89_16 C87_16 1_555 1_555
O19_16 C88_16 1_555 1_555
C90_16 C88_16 1_555 1_555
C34_16 C45_16 1_555 1_555
C69_16 C83_16 1_555 1_555
C73_16 C85_16 1_555 1_555
C75_16 C86_16 1_555 1_555
O20_9 H9_25 1_555 1_555
C18_16 H11_16 1_555 1_555
C34_16 H14_16 1_555 1_555
C19_16 H18_16 1_555 1_555
C17_16 H20_16 1_555 1_555
O5_16 H31_16 1_555 1_555
C45_16 H35_16 1_555 1_555
O6_16 H40_16 1_555 1_555
C60_16 H51_16 1_555 1_555
C64_16 H52_16 1_555 1_555
C62_16 H53_16 1_555 1_555
C75_16 H54_16 1_555 1_555
C66_16 H55_16 1_555 1_555
O14_16 H56_16 1_555 1_555
C85_16 H57_16 1_555 1_555
C65_16 H58_16 1_555 1_555
C83_16 H59_16 1_555 1_555
C73_16 H60_16 1_555 1_555
C67_16 H63_16 1_555 1_555
C86_16 H64_16 1_555 1_555
C61_16 H65_16 1_555 1_555
C63_16 H66_16 1_555 1_555
C69_16 H67_16 1_555 1_555
C90_16 H73_16 1_555 1_555
C90_16 H74_16 1_555 1_555
C90_16 H75_16 1_555 1_555
C89_16 H81_16 1_555 1_555
C89_16 H82_16 1_555 1_555
C89_16 H83_16 1_555 1_555
O1_8 H100_25 1_555 1_555
N15_16 Fe7_11 1_555 1_555
N16_16 Fe7_11 1_555 1_555
C21_16 N15_16 1_555 1_555
C22_16 N15_16 1_555 1_555
C23_16 N16_16 1_555 1_555
C24_16 N16_16 1_555 1_555
C37_16 C21_16 1_555 1_555
C38_16 C22_16 1_555 1_555
C39_16 C23_16 1_555 1_555
C40_16 C24_16 1_555 1_555
O7_16 C37_16 1_555 1_555
C47_16 C37_16 1_555 1_555
O8_16 C39_16 1_555 1_555
C48_16 C39_16 1_555 1_555
C52_16 O7_16 1_555 1_555
C53_16 O8_16 1_555 1_555
O12_16 C52_16 1_555 1_555
C57_16 C52_16 1_555 1_555
O13_16 C53_16 1_555 1_555
C58_16 C53_16 1_555 1_555
O15_16 C70_16 1_555 1_555
C84_16 C70_16 1_555 1_555
C36_16 C46_16 1_555 1_555
C38_16 C47_16 1_555 1_555
C40_16 C48_16 1_555 1_555
C21_16 H12_16 1_555 1_555
C38_16 H15_16 1_555 1_555
C22_16 H17_16 1_555 1_555
C24_16 H19_16 1_555 1_555
C40_16 H22_16 1_555 1_555
C23_16 H24_16 1_555 1_555
C36_16 H25_16 1_555 1_555
C46_16 H28_16 1_555 1_555
C47_16 H29_16 1_555 1_555
C48_16 H30_16 1_555 1_555
C57_16 H45_16 1_555 1_555
C57_16 H46_16 1_555 1_555
C57_16 H47_16 1_555 1_555
C58_16 H48_16 1_555 1_555
C58_16 H49_16 1_555 1_555
C58_16 H50_16 1_555 1_555
C84_16 H62_16 1_555 1_555
O1_9 H100_26 1_555 1_555
N13_17 Fe6_9 1_555 1_555
N14_17 Fe6_9 1_555 1_555
N15_17 Fe7_7 1_555 1_555
N16_17 Fe7_7 1_555 1_555
C17_17 N13_17 1_555 1_555
C18_17 N13_17 1_555 1_555
C19_17 N14_17 1_555 1_555
C20_17 N14_17 1_555 1_555
C21_17 N15_17 1_555 1_555
C22_17 N15_17 1_555 1_555
C23_17 N16_17 1_555 1_555
C24_17 N16_17 1_555 1_555
C33_17 C17_17 1_555 1_555
C34_17 C18_17 1_555 1_555
C35_17 C19_17 1_555 1_555
C36_17 C20_17 1_555 1_555
C37_17 C21_17 1_555 1_555
C38_17 C22_17 1_555 1_555
C39_17 C23_17 1_555 1_555
C40_17 C24_17 1_555 1_555
O5_17 C33_17 1_555 1_555
C45_17 C33_17 1_555 1_555
O6_17 C35_17 1_555 1_555
C46_17 C35_17 1_555 1_555
O7_17 C37_17 1_555 1_555
C47_17 C37_17 1_555 1_555
O8_17 C39_17 1_555 1_555
C48_17 C39_17 1_555 1_555
C52_17 O7_17 1_555 1_555
C53_17 O8_17 1_555 1_555
O12_17 C52_17 1_555 1_555
C57_17 C52_17 1_555 1_555
O13_17 C53_17 1_555 1_555
C58_17 C53_17 1_555 1_555
N18_17 Fe6_9 1_555 1_555
N19_17 Fe6_9 1_555 1_555
N21_17 Fe7_7 1_555 1_555
N22_17 Fe7_7 1_555 1_555
C60_17 N18_17 1_555 1_555
C61_17 N18_17 1_555 1_555
C62_17 N19_17 1_555 1_555
C63_17 N19_17 1_555 1_555
C64_17 N21_17 1_555 1_555
C65_17 N21_17 1_555 1_555
C66_17 N22_17 1_555 1_555
C67_17 N22_17 1_555 1_555
C68_17 C60_17 1_555 1_555
C69_17 C61_17 1_555 1_555
C70_17 C62_17 1_555 1_555
C71_17 C63_17 1_555 1_555
C72_17 C64_17 1_555 1_555
C73_17 C65_17 1_555 1_555
C74_17 C66_17 1_555 1_555
C75_17 C67_17 1_555 1_555
O14_17 C68_17 1_555 1_555
C83_17 C68_17 1_555 1_555
O15_17 C70_17 1_555 1_555
C84_17 C70_17 1_555 1_555
O16_17 C72_17 1_555 1_555
C85_17 C72_17 1_555 1_555
O17_17 C74_17 1_555 1_555
C86_17 C74_17 1_555 1_555
C87_17 O16_17 1_555 1_555
C88_17 O17_17 1_555 1_555
O18_17 C87_17 1_555 1_555
C89_17 C87_17 1_555 1_555
O19_17 C88_17 1_555 1_555
C90_17 C88_17 1_555 1_555
C34_17 C45_17 1_555 1_555
C36_17 C46_17 1_555 1_555
C38_17 C47_17 1_555 1_555
C40_17 C48_17 1_555 1_555
C69_17 C83_17 1_555 1_555
C71_17 C84_17 1_555 1_555
C73_17 C85_17 1_555 1_555
C75_17 C86_17 1_555 1_555
O20_7 H9_26 1_555 1_555
C18_17 H11_17 1_555 1_555
C21_17 H12_17 1_555 1_555
C34_17 H14_17 1_555 1_555
C38_17 H15_17 1_555 1_555
C20_17 H16_17 1_555 1_555
C22_17 H17_17 1_555 1_555
C19_17 H18_17 1_555 1_555
C24_17 H19_17 1_555 1_555
C17_17 H20_17 1_555 1_555
C40_17 H22_17 1_555 1_555
C23_17 H24_17 1_555 1_555
C36_17 H25_17 1_555 1_555
C46_17 H28_17 1_555 1_555
C47_17 H29_17 1_555 1_555
C48_17 H30_17 1_555 1_555
O5_17 H31_17 1_555 1_555
C45_17 H35_17 1_555 1_555
O6_17 H40_17 1_555 1_555
C57_17 H45_17 1_555 1_555
C57_17 H46_17 1_555 1_555
C57_17 H47_17 1_555 1_555
C58_17 H48_17 1_555 1_555
C58_17 H49_17 1_555 1_555
C58_17 H50_17 1_555 1_555
C60_17 H51_17 1_555 1_555
C64_17 H52_17 1_555 1_555
C62_17 H53_17 1_555 1_555
C75_17 H54_17 1_555 1_555
C66_17 H55_17 1_555 1_555
O14_17 H56_17 1_555 1_555
C85_17 H57_17 1_555 1_555
C65_17 H58_17 1_555 1_555
C83_17 H59_17 1_555 1_555
C73_17 H60_17 1_555 1_555
O15_17 H61_17 1_555 1_555
C84_17 H62_17 1_555 1_555
C67_17 H63_17 1_555 1_555
C86_17 H64_17 1_555 1_555
C61_17 H65_17 1_555 1_555
C63_17 H66_17 1_555 1_555
C69_17 H67_17 1_555 1_555
C71_17 H68_17 1_555 1_555
C90_17 H73_17 1_555 1_555
C90_17 H74_17 1_555 1_555
C90_17 H75_17 1_555 1_555
C89_17 H81_17 1_555 1_555
C89_17 H82_17 1_555 1_555
C89_17 H83_17 1_555 1_555
N15_18 Fe7_8 1_555 1_555
N16_18 Fe7_8 1_555 1_555
C21_18 N15_18 1_555 1_555
C22_18 N15_18 1_555 1_555
C23_18 N16_18 1_555 1_555
C24_18 N16_18 1_555 1_555
C37_18 C21_18 1_555 1_555
C38_18 C22_18 1_555 1_555
C39_18 C23_18 1_555 1_555
C40_18 C24_18 1_555 1_555
O7_18 C37_18 1_555 1_555
C47_18 C37_18 1_555 1_555
O8_18 C39_18 1_555 1_555
C48_18 C39_18 1_555 1_555
C52_18 O7_18 1_555 1_555
C53_18 O8_18 1_555 1_555
O12_18 C52_18 1_555 1_555
C57_18 C52_18 1_555 1_555
O13_18 C53_18 1_555 1_555
C58_18 C53_18 1_555 1_555
O15_18 C70_18 1_555 1_555
C84_18 C70_18 1_555 1_555
C36_18 C46_18 1_555 1_555
C38_18 C47_18 1_555 1_555
C40_18 C48_18 1_555 1_555
C21_18 H12_18 1_555 1_555
C38_18 H15_18 1_555 1_555
C22_18 H17_18 1_555 1_555
C24_18 H19_18 1_555 1_555
C40_18 H22_18 1_555 1_555
C23_18 H24_18 1_555 1_555
C36_18 H25_18 1_555 1_555
C46_18 H28_18 1_555 1_555
C47_18 H29_18 1_555 1_555
C48_18 H30_18 1_555 1_555
C57_18 H45_18 1_555 1_555
C57_18 H46_18 1_555 1_555
C57_18 H47_18 1_555 1_555
C58_18 H48_18 1_555 1_555
C58_18 H49_18 1_555 1_555
C58_18 H50_18 1_555 1_555
C84_18 H62_18 1_555 1_555
N13_18 Fe6_10 1_555 1_555
N14_18 Fe6_10 1_555 1_555
C17_18 N13_18 1_555 1_555
C18_18 N13_18 1_555 1_555
C19_18 N14_18 1_555 1_555
C20_18 N14_18 1_555 1_555
C33_18 C17_18 1_555 1_555
C34_18 C18_18 1_555 1_555
C35_18 C19_18 1_555 1_555
O5_18 C33_18 1_555 1_555
C45_18 C33_18 1_555 1_555
O6_18 C35_18 1_555 1_555
N18_18 Fe6_10 1_555 1_555
N19_18 Fe6_10 1_555 1_555
N21_18 Fe7_9 1_555 1_555
N22_18 Fe7_9 1_555 1_555
C60_18 N18_18 1_555 1_555
C61_18 N18_18 1_555 1_555
C62_18 N19_18 1_555 1_555
C63_18 N19_18 1_555 1_555
C64_18 N21_18 1_555 1_555
C65_18 N21_18 1_555 1_555
C66_18 N22_18 1_555 1_555
C67_18 N22_18 1_555 1_555
C68_18 C60_18 1_555 1_555
C69_18 C61_18 1_555 1_555
C71_18 C63_18 1_555 1_555
C72_18 C64_18 1_555 1_555
C73_18 C65_18 1_555 1_555
C74_18 C66_18 1_555 1_555
C75_18 C67_18 1_555 1_555
O14_18 C68_18 1_555 1_555
C83_18 C68_18 1_555 1_555
O16_18 C72_18 1_555 1_555
C85_18 C72_18 1_555 1_555
O17_18 C74_18 1_555 1_555
C86_18 C74_18 1_555 1_555
C87_18 O16_18 1_555 1_555
C88_18 O17_18 1_555 1_555
O18_18 C87_18 1_555 1_555
C89_18 C87_18 1_555 1_555
O19_18 C88_18 1_555 1_555
C90_18 C88_18 1_555 1_555
C34_18 C45_18 1_555 1_555
C69_18 C83_18 1_555 1_555
C73_18 C85_18 1_555 1_555
C75_18 C86_18 1_555 1_555
O20_8 H9_27 1_555 1_555
C18_18 H11_18 1_555 1_555
C34_18 H14_18 1_555 1_555
C19_18 H18_18 1_555 1_555
C17_18 H20_18 1_555 1_555
O5_18 H31_18 1_555 1_555
C45_18 H35_18 1_555 1_555
O6_18 H40_18 1_555 1_555
C60_18 H51_18 1_555 1_555
C64_18 H52_18 1_555 1_555
C62_18 H53_18 1_555 1_555
C75_18 H54_18 1_555 1_555
C66_18 H55_18 1_555 1_555
O14_18 H56_18 1_555 1_555
C85_18 H57_18 1_555 1_555
C65_18 H58_18 1_555 1_555
C83_18 H59_18 1_555 1_555
C73_18 H60_18 1_555 1_555
C67_18 H63_18 1_555 1_555
C86_18 H64_18 1_555 1_555
C61_18 H65_18 1_555 1_555
C63_18 H66_18 1_555 1_555
C69_18 H67_18 1_555 1_555
C90_18 H73_18 1_555 1_555
C90_18 H74_18 1_555 1_555
C90_18 H75_18 1_555 1_555
C89_18 H81_18 1_555 1_555
C89_18 H82_18 1_555 1_555
C89_18 H83_18 1_555 1_555
O1_7 H100_27 1_555 1_555
O20_14 H9_28 1_555 1_555
O1_15 H100_28 1_555 1_555
O20_15 H9_29 1_555 1_555
O1_13 H100_29 1_555 1_555
O20_13 H9_30 1_555 1_555
O1_14 H100_30 1_555 1_555
O20_11 H9_31 1_555 1_555
O1_12 H100_31 1_555 1_555
O20_12 H9_32 1_555 1_555
O1_10 H100_32 1_555 1_555
O20_10 H9_33 1_555 1_555
O1_11 H100_33 1_555 1_555
O1_18 H100_34 1_555 1_555
O20_17 H9_34 1_555 1_555
O20_18 H9_35 1_555 1_555
O1_16 H100_35 1_555 1_555
O1_17 H100_36 1_555 1_555
O20_16 H9_36 1_555 1_555

#END
