
###############################################################################
#
# This file contains modified crystal structure data generated from the
# MOF subset of the Cambridge Structural Database (CSD) v543 
# hosted by the Cambridge Crystallographic Data Centre (CCDC).
#
# This work is licensed under the Creative Commons
# Attribution-NonCommercial-ShareAlike 4.0 International License.
# To view a copy of this license, visit
# http://creativecommons.org/licenses/by-nc-sa/4.0/
# or send a letter to
# Creative Commons, PO Box 1866, Mountain View, CA 94042, USA.
#
# CIF created using the CSD Python API on 29 September 2022
# The structure has been converted into the P1 space group
# The structure has a 3D framework
# The original CSD entry BODCUV09 is in the rhombohedral crystal system
# The framework has been calculated to contain at least 10.0% void space
# The void calculation uses a probe of radius 1.32A, grid spacing 0.4
# H atom positions have been added when not included in the experimental data
#
###############################################################################

data_BODCUV09
_chemical_formula_moiety         '(C2088 H1836 Fe80 N573 Nb36 O468)n'
_symmetry_cell_setting           triclinic
_symmetry_space_group_name_H-M   'P 1'
_symmetry_Int_Tables_number      1
_space_group_name_Hall           'P 1'
loop_
_symmetry_equiv_pos_site_id
_symmetry_equiv_pos_as_xyz
1 x,y,z
_cell_length_a                   46.796(8)
_cell_length_b                   46.796(8)
_cell_length_c                   32.489(8)
_cell_angle_alpha                90
_cell_angle_beta                 90
_cell_angle_gamma                120
_cell_volume                     61614.7
loop_
_atom_site_label
_atom_site_type_symbol
_atom_site_fract_x
_atom_site_fract_y
_atom_site_fract_z
_atom_site_U_iso_or_equiv
_atom_site_thermal_displace_type
Nb1 Nb 0.533806 0.678790 0.079777 0.0063 Uiso
C1 C 0.489967 0.640214 0.107452 0.0127 Uiso
C2 C 0.586820 0.700440 0.076869 0.0127 Uiso
C3 C 0.536369 0.672805 0.013853 0.0127 Uiso
C4 C 0.553739 0.727918 0.052576 0.0127 Uiso
C5 C 0.529698 0.710349 0.125196 0.0127 Uiso
C6 C 0.490599 0.678667 0.053797 0.0127 Uiso
C7 C 0.536772 0.634362 0.067870 0.0127 Uiso
C8 C 0.549176 0.668278 0.139369 0.0127 Uiso
N1 N 0.466790 0.618781 0.123753 0.0127 Uiso
N2 N 0.615150 0.711514 0.076944 0.0127 Uiso
N4 N 0.565201 0.754376 0.039534 0.0127 Uiso
N5 N 0.528444 0.728643 0.147663 0.0127 Uiso
N6 N 0.467964 0.678483 0.039763 0.0127 Uiso
N7 N 0.538394 0.611277 0.060244 0.0127 Uiso
N8 N 0.557336 0.662489 0.170284 0.0127 Uiso
Fe1 Fe 0.431794 0.576055 0.155052 0.0063 Uiso
Fe2 Fe 0.666667 0.737581 0.083333 0.0063 Uiso
N9 N 0.441010 0.606146 0.213522 0.0127 Uiso
N10 N 0.472684 0.567601 0.177818 0.0127 Uiso
N11 N 0.425660 0.545942 0.096033 0.0127 Uiso
N12 N 0.391784 0.586131 0.132649 0.0127 Uiso
N13 N 0.672022 0.775585 0.035598 0.0127 Uiso
N14 N 0.669573 0.704591 0.035268 0.0127 Uiso
C9 C 0.422237 0.593937 0.247860 0.0127 Uiso
C10 C 0.465822 0.637324 0.215063 0.0127 Uiso
C11 C 0.503445 0.583670 0.160617 0.0127 Uiso
C12 C 0.467440 0.546591 0.208819 0.0127 Uiso
C13 C 0.397018 0.519557 0.087239 0.0127 Uiso
C14 C 0.450426 0.553683 0.068495 0.0127 Uiso
C15 C 0.396158 0.602351 0.096420 0.0127 Uiso
C16 C 0.363734 0.576659 0.153972 0.0127 Uiso
C17 C 0.644257 0.776124 0.025382 0.0127 Uiso
C18 C 0.700137 0.797140 0.017077 0.0127 Uiso
C19 C 0.698581 0.712692 0.017714 0.0127 Uiso
C20 C 0.642867 0.676021 0.022555 0.0127 Uiso
C25 C 0.427444 0.611933 0.283948 0.0127 Uiso
C26 C 0.472570 0.656971 0.250386 0.0127 Uiso
C27 C 0.528583 0.578654 0.174390 0.0127 Uiso
C28 C 0.492023 0.540879 0.223532 0.0127 Uiso
C29 C 0.393138 0.501120 0.051340 0.0127 Uiso
C30 C 0.448351 0.537217 0.033870 0.0127 Uiso
C31 C 0.372751 0.609036 0.081624 0.0127 Uiso
C32 C 0.338827 0.582948 0.140036 0.0127 Uiso
O1 O 0.408287 0.599356 0.318605 0.0127 Uiso
C41 C 0.453237 0.644129 0.284922 0.0127 Uiso
O2 O 0.558261 0.596710 0.153870 0.0127 Uiso
C42 C 0.522551 0.556608 0.206775 0.0127 Uiso
O3 O 0.363628 0.474476 0.043520 0.0127 Uiso
C43 C 0.418741 0.509770 0.024347 0.0127 Uiso
O4 O 0.380108 0.626962 0.041486 0.0127 Uiso
C44 C 0.343077 0.599394 0.103276 0.0127 Uiso
C49 C 0.572132 0.586200 0.129927 0.0127 Uiso
C50 C 0.359195 0.447516 0.069267 0.0127 Uiso
C51 C 0.395679 0.661551 0.049865 0.0127 Uiso
C52 C 0.544877 0.553586 0.015255 0.0127 Uiso
O9 O 0.570965 0.558990 0.137403 0.0127 Uiso
C54 C 0.589039 0.607878 0.094069 0.0127 Uiso
O10 O 0.334891 0.419337 0.064275 0.0127 Uiso
C55 C 0.383137 0.453457 0.100843 0.0127 Uiso
O11 O 0.412211 0.674874 0.080771 0.0127 Uiso
C56 C 0.390262 0.681787 0.016549 0.0127 Uiso
O12 O 0.577796 0.579377 0.023678 0.0127 Uiso
C57 C 0.529607 0.523632 0.041579 0.0127 Uiso
Fe4 Fe 0.522406 0.765127 0.178281 0.0063 Uiso
N17 N 0.395310 0.533532 0.185670 0.0127 Uiso
N18 N 0.661311 0.770230 0.131069 0.0127 Uiso
N19 N 0.663760 0.701685 0.131399 0.0127 Uiso
N20 N 0.718183 0.763031 0.089723 0.0127 Uiso
C59 C 0.377016 0.513984 0.208137 0.0127 Uiso
C60 C 0.689076 0.798534 0.141285 0.0127 Uiso
C61 C 0.633196 0.763670 0.149590 0.0127 Uiso
C62 C 0.634752 0.680778 0.148953 0.0127 Uiso
C63 C 0.690466 0.699821 0.144112 0.0127 Uiso
Nb2 Nb 0.345457 0.478317 0.253556 0.0063 Uiso
C68 C 0.689713 0.821051 0.170045 0.0127 Uiso
C69 C 0.632344 0.785286 0.178608 0.0127 Uiso
C70 C 0.631042 0.658011 0.178713 0.0127 Uiso
C71 C 0.689071 0.677864 0.173646 0.0127 Uiso
C76 C 0.306881 0.483580 0.225881 0.0127 Uiso
C77 C 0.367107 0.446953 0.256464 0.0127 Uiso
C78 C 0.339472 0.469769 0.319480 0.0127 Uiso
C79 C 0.394585 0.507512 0.280757 0.0127 Uiso
C80 C 0.345334 0.521401 0.279536 0.0127 Uiso
C81 C 0.301029 0.430923 0.265463 0.0127 Uiso
C82 C 0.334945 0.452435 0.193964 0.0127 Uiso
O14 O 0.718036 0.849208 0.179523 0.0127 Uiso
C83 C 0.660037 0.813700 0.189017 0.0127 Uiso
O15 O 0.600354 0.637060 0.195719 0.0127 Uiso
C84 C 0.658568 0.656379 0.191434 0.0127 Uiso
N24 N 0.285448 0.485324 0.209580 0.0127 Uiso
N25 N 0.378181 0.429697 0.256389 0.0127 Uiso
N26 N 0.337974 0.467148 0.354887 0.0127 Uiso
N27 N 0.421043 0.522508 0.293799 0.0127 Uiso
N28 N 0.345150 0.543852 0.293570 0.0127 Uiso
N29 N 0.277944 0.406216 0.273089 0.0127 Uiso
N30 N 0.329156 0.438486 0.163049 0.0127 Uiso
Fe5 Fe 0.242722 0.477594 0.178281 0.0063 Uiso
Fe6 Fe 0.404247 0.404248 0.250000 0.0063 Uiso
Fe7 Fe 0.333333 0.465058 0.416667 0.0063 Uiso
N31 N 0.272813 0.498469 0.119811 0.0127 Uiso
N32 N 0.234268 0.428250 0.155515 0.0127 Uiso
N33 N 0.212609 0.453615 0.237300 0.0127 Uiso
N34 N 0.252798 0.527680 0.200684 0.0127 Uiso
N35 N 0.200199 0.471556 0.147663 0.0127 Uiso
C91 C 0.260604 0.505033 0.085473 0.0127 Uiso
C92 C 0.303991 0.504835 0.118270 0.0127 Uiso
C93 C 0.250337 0.413558 0.172716 0.0127 Uiso
C94 C 0.213258 0.412484 0.124514 0.0127 Uiso
C95 C 0.186224 0.455872 0.246094 0.0127 Uiso
C96 C 0.220350 0.436590 0.264838 0.0127 Uiso
C97 C 0.269018 0.539526 0.236913 0.0127 Uiso
C98 C 0.243326 0.546258 0.179361 0.0127 Uiso
C99 C 0.278600 0.517822 0.049385 0.0127 Uiso
C100 C 0.323638 0.517734 0.082947 0.0127 Uiso
C101 C 0.245321 0.383404 0.158943 0.0127 Uiso
C102 C 0.207546 0.382189 0.109801 0.0127 Uiso
C103 C 0.167787 0.441315 0.281993 0.0127 Uiso
C104 C 0.203884 0.422199 0.299463 0.0127 Uiso
C105 C 0.275703 0.569618 0.251709 0.0127 Uiso
C106 C 0.249615 0.577454 0.193297 0.0127 Uiso
O20 O 0.266023 0.524402 0.014728 0.0127 Uiso
C107 C 0.310796 0.524225 0.048411 0.0127 Uiso
O21 O 0.263377 0.371782 0.179463 0.0127 Uiso
C108 C 0.223275 0.367390 0.126558 0.0127 Uiso
O22 O 0.141143 0.444181 0.289813 0.0127 Uiso
C109 C 0.176437 0.424362 0.308986 0.0127 Uiso
O23 O 0.293629 0.580187 0.291847 0.0127 Uiso
C110 C 0.266061 0.589650 0.230057 0.0127 Uiso
C111 C 0.252867 0.347401 0.203406 0.0127 Uiso
C112 C 0.114183 0.421654 0.264066 0.0127 Uiso
C113 C 0.328218 0.599205 0.283468 0.0127 Uiso
O24 O 0.225657 0.321358 0.195930 0.0127 Uiso
C114 C 0.274545 0.352172 0.239264 0.0127 Uiso
O25 O 0.086004 0.417779 0.269058 0.0127 Uiso
C115 C 0.120124 0.403653 0.232490 0.0127 Uiso
O26 O 0.341541 0.595996 0.252562 0.0127 Uiso
C116 C 0.348454 0.624858 0.316784 0.0127 Uiso
H5 H 0.712102 0.804044 0.126325 . .
H7 H 0.363963 0.672864 0.0133418 . .
H8 H 0.402915 0.707696 0.0254277 . .
H10 H 0.608129 0.631958 0.104939 . .
H11 H 0.60022 0.596812 0.0752708 . .
H12 H 0.571154 0.610745 0.0757274 . .
H14 H 0.384211 0.471833 0.122326 . .
H15 H 0.376021 0.43057 0.117263 . .
H16 H 0.407285 0.462461 0.08682 . .
H17 H 0.523111 0.501977 0.0227387 . .
H18 H 0.547056 0.52585 0.0652841 . .
H19 H 0.507455 0.521102 0.0560183 . .
H20 H 0.610502 0.74105 0.141941 . .
H21 H 0.612976 0.681761 0.139292 . .
H22 H 0.714295 0.716556 0.130263 . .
H25 H 0.711206 0.677359 0.182778 . .
H26 H 0.608998 0.779191 0.19313 . .
H27 H 0.727116 0.862843 0.154338 . .
H28 H 0.656362 0.638698 0.214795 . .
H32 H 0.65915 0.830401 0.211654 . .
H33 H 0.58486 0.623319 0.173671 . .
H34 H 0.562804 0.8392 0.00204053 . .
H40 H 0.277412 0.372925 0.257606 . .
H41 H 0.263478 0.329925 0.258062 . .
H42 H 0.298625 0.357162 0.228394 . .
H43 H 0.230344 0.536854 0.150315 . .
H44 H 0.21207 0.409089 0.319594 . .
H45 H 0.200236 0.423817 0.1104 . .
H46 H 0.178668 0.469147 0.225324 . .
H47 H 0.218913 0.343651 0.115172 . .
H48 H 0.32575 0.534233 0.0208023 . .
H49 H 0.271368 0.613598 0.241847 . .
H50 H 0.235233 0.500001 0.0861841 . .
H51 H 0.276829 0.524798 0.25447 . .
H52 H 0.26753 0.425894 0.197907 . .
H53 H 0.242008 0.434476 0.258052 . .
H54 H 0.348953 0.522587 0.0828744 . .
H55 H 0.190262 0.370274 0.0845727 . .
H56 H 0.241571 0.591752 0.175226 . .
H57 H 0.259255 0.540879 0.0214086 . .
H58 H 0.162153 0.413113 0.336754 . .
H59 H 0.314526 0.499849 0.145338 . .
H60 H 0.129128 0.388509 0.246513 . .
H61 H 0.0972366 0.387882 0.21607 . .
H62 H 0.1385 0.420955 0.211007 . .
H63 H 0.345774 0.612362 0.34601 . .
H64 H 0.374363 0.638115 0.307906 . .
H65 H 0.339531 0.642235 0.319992 . .
H66 H 0.443087 0.53357 0.222933 . .
H67 H 0.376187 0.512001 0.108009 . .
H68 H 0.418697 0.610162 0.0788635 . .
H69 H 0.508302 0.600863 0.135426 . .
H70 H 0.474199 0.575341 0.0752818 . .
H71 H 0.401899 0.568567 0.247149 . .
H72 H 0.360157 0.563677 0.183018 . .
H73 H 0.621231 0.758608 0.0403417 . .
H74 H 0.481344 0.647859 0.187995 . .
H75 H 0.722831 0.797215 0.0247262 . .
H78 H 0.720357 0.735451 0.0273743 . .
H82 H 0.541929 0.552247 0.218162 . .
H83 H 0.324437 0.604701 0.0914867 . .
H84 H 0.316486 0.574904 0.158108 . .
H85 H 0.619038 0.668928 0.0364041 . .
H88 H 0.606218 0.802393 0.0123289 . .
H89 H 0.469648 0.545404 0.0137395 . .
H90 H 0.409489 0.579902 0.328479 . .
H91 H 0.486654 0.523595 0.248761 . .
H92 H 0.493032 0.682286 0.250459 . .
H93 H 0.458184 0.659084 0.312531 . .
N3 N 0.537492 0.671307 0.978446 0.0127 Uiso
Fe3 Fe 0.534942 0.666667 0.916667 0.0063 Uiso
N15 N 0.548308 0.630128 0.920772 0.0127 Uiso
N16 N 0.484713 0.630556 0.922284 0.0127 Uiso
C21 C 0.534357 0.604935 0.948614 0.0127 Uiso
C22 C 0.571793 0.630310 0.895514 0.0127 Uiso
C23 C 0.469459 0.605504 0.895181 0.0127 Uiso
C24 C 0.467040 0.632555 0.954369 0.0127 Uiso
C33 C 0.643620 0.798004 0.996622 0.0127 Uiso
C34 C 0.700989 0.819608 0.988059 0.0127 Uiso
C35 C 0.702291 0.693635 0.987954 0.0127 Uiso
C36 C 0.644262 0.655459 0.993021 0.0127 Uiso
C37 C 0.542927 0.580925 0.951610 0.0127 Uiso
C38 C 0.581238 0.606990 0.897209 0.0127 Uiso
C39 C 0.436682 0.582405 0.899806 0.0127 Uiso
C40 C 0.434674 0.610033 0.959528 0.0127 Uiso
O5 O 0.615297 0.797838 0.987144 0.0127 Uiso
C45 C 0.673296 0.820329 0.977650 0.0127 Uiso
O6 O 0.732979 0.703372 0.970948 0.0127 Uiso
C46 C 0.674765 0.664477 0.975233 0.0127 Uiso
O7 O 0.526446 0.556224 0.981847 0.0127 Uiso
C47 C 0.566638 0.581267 0.925956 0.0127 Uiso
O8 O 0.422079 0.556771 0.870453 0.0127 Uiso
C48 C 0.418566 0.584047 0.931852 0.0127 Uiso
C53 C 0.421624 0.527405 0.879940 0.0127 Uiso
O13 O 0.442941 0.526607 0.899021 0.0127 Uiso
C58 C 0.391650 0.493968 0.864745 0.0127 Uiso
N21 N 0.584847 0.703205 0.912561 0.0127 Uiso
N22 N 0.520824 0.702777 0.911049 0.0127 Uiso
N23 N 0.532852 0.662026 0.854887 0.0127 Uiso
C64 C 0.596089 0.728398 0.884719 0.0127 Uiso
C65 C 0.608150 0.703023 0.937819 0.0127 Uiso
C66 C 0.530622 0.727829 0.938152 0.0127 Uiso
C67 C 0.501152 0.700778 0.878964 0.0127 Uiso
C72 C 0.628669 0.752408 0.881723 0.0127 Uiso
C73 C 0.640915 0.726343 0.936124 0.0127 Uiso
C74 C 0.520944 0.750928 0.933527 0.0127 Uiso
C75 C 0.491308 0.723300 0.873805 0.0127 Uiso
O16 O 0.636889 0.777109 0.851486 0.0127 Uiso
C85 C 0.652038 0.752066 0.907377 0.0127 Uiso
O17 O 0.531975 0.776562 0.962880 0.0127 Uiso
C86 C 0.501186 0.749286 0.901481 0.0127 Uiso
C87 C 0.657958 0.779747 0.818078 0.0127 Uiso
C88 C 0.560886 0.805928 0.953393 0.0127 Uiso
O18 O 0.665086 0.753956 0.809655 0.0127 Uiso
C89 C 0.672642 0.809701 0.791754 0.0127 Uiso
O19 O 0.583001 0.806726 0.934312 0.0127 Uiso
C90 C 0.564349 0.839365 0.968588 0.0127 Uiso
H1 H 0.493163 0.680637 0.856981 . .
H2 H 0.390271 0.494133 0.831293 . .
H3 H 0.394985 0.473572 0.874557 . .
H4 H 0.368903 0.491005 0.877846 . .
H6 H 0.578394 0.729487 0.863946 . .
H9 H 0.400078 0.679107 0.987324 . .
H13 H 0.600211 0.683309 0.960427 . .
H23 H 0.546354 0.729739 0.963936 . .
H24 H 0.493493 0.767588 0.897777 . .
H29 H 0.658331 0.724928 0.957074 . .
H30 H 0.47558 0.721062 0.847863 . .
H31 H 0.677974 0.770957 0.905359 . .
H35 H 0.58808 0.859762 0.958777 . .
H36 H 0.544564 0.842328 0.955488 . .
H37 H 0.687801 0.831356 0.810595 . .
H38 H 0.687873 0.807483 0.768049 . .
H39 H 0.65302 0.812231 0.777315 . .
H76 H 0.479193 0.652697 0.976353 . .
H77 H 0.622128 0.63282 0.983889 . .
H79 H 0.421185 0.612272 0.98547 . .
H80 H 0.583569 0.650025 0.872906 . .
H81 H 0.60007 0.608405 0.876259 . .
H86 H 0.515574 0.603847 0.969388 . .
H87 H 0.415707 0.495486 0.996579 . .
H94 H 0.724335 0.836859 0.973537 . .
H95 H 0.483282 0.603595 0.869398 . .
H96 H 0.674183 0.837918 0.955012 . .
H97 H 0.573683 0.562376 0.927974 . .
H98 H 0.392571 0.565745 0.935557 . .
H99 H 0.748473 0.705125 0.992996 . .
H100 H 0.676971 0.649002 0.951871 . .
O9_2 O 0.441010 0.011975 0.137403 0.0127 Uiso
C57_2 C 0.476368 0.005975 0.041579 0.0127 Uiso
C71_2 C 0.322136 0.011208 0.173646 0.0127 Uiso
C84_2 C 0.343621 0.002190 0.191434 0.0127 Uiso
Fe6_2 Fe 0.595752 -0.000000 0.250000 0.0063 Uiso
H11_2 H 0.403188 0.00340865 0.0752708 . .
H17_2 H 0.498023 0.021134 0.0227387 . .
H18_2 H 0.47415 0.0212061 0.0652841 . .
H25_2 H 0.322641 0.0338468 0.182778 . .
H28_2 H 0.361302 0.0176648 0.214795 . .
C35_2 C 0.306365 0.008656 0.987954 0.0127 Uiso
O6_2 O 0.296628 0.029607 0.970948 0.0127 Uiso
C46_2 C 0.335523 0.010288 0.975233 0.0127 Uiso
H97_2 H 0.437624 0.0113071 0.927974 . .
H99_2 H 0.294875 0.0433477 0.992996 . .
H100_2 H 0.350998 0.027969 0.951871 . .
Nb1_2 Nb 0.321210 0.855016 0.079777 0.0063 Uiso
C1_2 C 0.359786 0.849753 0.107452 0.0127 Uiso
C2_2 C 0.299560 0.886380 0.076869 0.0127 Uiso
C3_2 C 0.327195 0.863564 0.013853 0.0127 Uiso
C4_2 C 0.272082 0.825821 0.052576 0.0127 Uiso
C5_2 C 0.289651 0.819349 0.125196 0.0127 Uiso
C6_2 C 0.321333 0.811932 0.053797 0.0127 Uiso
C7_2 C 0.365638 0.902410 0.067870 0.0127 Uiso
C8_2 C 0.331722 0.880898 0.139369 0.0127 Uiso
N1_2 N 0.381219 0.848009 0.123753 0.0127 Uiso
N2_2 N 0.288486 0.903636 0.076944 0.0127 Uiso
N4_2 N 0.245624 0.810825 0.039534 0.0127 Uiso
N5_2 N 0.271357 0.799801 0.147663 0.0127 Uiso
N6_2 N 0.321517 0.789481 0.039763 0.0127 Uiso
N7_2 N 0.388723 0.927117 0.060244 0.0127 Uiso
N8_2 N 0.337511 0.894847 0.170284 0.0127 Uiso
Fe1_2 Fe 0.423945 0.855739 0.155052 0.0063 Uiso
Fe2_2 Fe 0.262419 0.929086 0.083333 0.0063 Uiso
N9_2 N 0.393854 0.834864 0.213522 0.0127 Uiso
N10_2 N 0.432399 0.905083 0.177818 0.0127 Uiso
N11_2 N 0.454058 0.879718 0.096033 0.0127 Uiso
N12_2 N 0.413869 0.805653 0.132649 0.0127 Uiso
N13_2 N 0.224415 0.896437 0.035598 0.0127 Uiso
N14_2 N 0.295409 0.964982 0.035268 0.0127 Uiso
C9_2 C 0.406063 0.828300 0.247860 0.0127 Uiso
C10_2 C 0.362676 0.828498 0.215063 0.0127 Uiso
C11_2 C 0.416330 0.919775 0.160617 0.0127 Uiso
C12_2 C 0.453409 0.920849 0.208819 0.0127 Uiso
C13_2 C 0.480443 0.877461 0.087239 0.0127 Uiso
C14_2 C 0.446317 0.896743 0.068495 0.0127 Uiso
C15_2 C 0.397649 0.793807 0.096420 0.0127 Uiso
C16_2 C 0.423341 0.787075 0.153972 0.0127 Uiso
C17_2 C 0.223876 0.868133 0.025382 0.0127 Uiso
C18_2 C 0.202860 0.902997 0.017077 0.0127 Uiso
C19_2 C 0.287308 0.985889 0.017714 0.0127 Uiso
C20_2 C 0.323979 0.966846 0.022555 0.0127 Uiso
C25_2 C 0.388067 0.815511 0.283948 0.0127 Uiso
C26_2 C 0.343029 0.815599 0.250386 0.0127 Uiso
C27_2 C 0.421346 0.949929 0.174390 0.0127 Uiso
C28_2 C 0.459121 0.951144 0.223532 0.0127 Uiso
C29_2 C 0.498880 0.892018 0.051340 0.0127 Uiso
C30_2 C 0.462783 0.911134 0.033870 0.0127 Uiso
C31_2 C 0.390964 0.763715 0.081624 0.0127 Uiso
C32_2 C 0.417052 0.755879 0.140036 0.0127 Uiso
O1_2 O 0.400644 0.808931 0.318605 0.0127 Uiso
C41_2 C 0.355871 0.809108 0.284922 0.0127 Uiso
O2_2 O 0.403290 0.961551 0.153870 0.0127 Uiso
C42_2 C 0.443392 0.965943 0.206775 0.0127 Uiso
O3_2 O 0.525524 0.889152 0.043520 0.0127 Uiso
C43_2 C 0.490230 0.908971 0.024347 0.0127 Uiso
O4_2 O 0.373038 0.753146 0.041486 0.0127 Uiso
C44_2 C 0.400606 0.743683 0.103276 0.0127 Uiso
C49_2 C 0.413800 0.985932 0.129927 0.0127 Uiso
C50_2 C 0.552484 0.911679 0.069267 0.0127 Uiso
C51_2 C 0.338449 0.734128 0.049865 0.0127 Uiso
C52_2 C 0.446414 0.991291 0.015255 0.0127 Uiso
C54_2 C 0.392122 0.981161 0.094069 0.0127 Uiso
O10_2 O 0.580663 0.915554 0.064275 0.0127 Uiso
C55_2 C 0.546543 0.929680 0.100843 0.0127 Uiso
O11_2 O 0.325126 0.737337 0.080771 0.0127 Uiso
C56_2 C 0.318213 0.708475 0.016549 0.0127 Uiso
O12_2 O 0.420623 0.998419 0.023678 0.0127 Uiso
Fe4_2 Fe 0.234873 0.757278 0.178281 0.0063 Uiso
N17_2 N 0.466468 0.861777 0.185670 0.0127 Uiso
N18_2 N 0.229770 0.891082 0.131069 0.0127 Uiso
N19_2 N 0.298315 0.962076 0.131399 0.0127 Uiso
N20_2 N 0.236969 0.955153 0.089723 0.0127 Uiso
C59_2 C 0.486016 0.863031 0.208137 0.0127 Uiso
C60_2 C 0.201466 0.890543 0.141285 0.0127 Uiso
C61_2 C 0.236330 0.869527 0.149590 0.0127 Uiso
C62_2 C 0.319222 0.953975 0.148953 0.0127 Uiso
C63_2 C 0.300179 0.990646 0.144112 0.0127 Uiso
Nb2_2 Nb 0.521683 0.867139 0.253556 0.0063 Uiso
C68_2 C 0.178949 0.868663 0.170045 0.0127 Uiso
C69_2 C 0.214714 0.847059 0.178608 0.0127 Uiso
C70_2 C 0.341989 0.973032 0.178713 0.0127 Uiso
C76_2 C 0.516420 0.823300 0.225881 0.0127 Uiso
C77_2 C 0.553047 0.920153 0.256464 0.0127 Uiso
C78_2 C 0.530231 0.869702 0.319480 0.0127 Uiso
C79_2 C 0.492488 0.887072 0.280757 0.0127 Uiso
C80_2 C 0.478599 0.823932 0.279536 0.0127 Uiso
C81_2 C 0.569077 0.870105 0.265463 0.0127 Uiso
C82_2 C 0.547565 0.882509 0.193964 0.0127 Uiso
O14_2 O 0.150792 0.868829 0.179523 0.0127 Uiso
C83_2 C 0.186300 0.846338 0.189017 0.0127 Uiso
O15_2 O 0.362940 0.963295 0.195719 0.0127 Uiso
N24_2 N 0.514676 0.800123 0.209580 0.0127 Uiso
N25_2 N 0.570303 0.948483 0.256389 0.0127 Uiso
N26_2 N 0.532852 0.870825 0.354887 0.0127 Uiso
N27_2 N 0.477492 0.898534 0.293799 0.0127 Uiso
N28_2 N 0.456148 0.801297 0.293570 0.0127 Uiso
N29_2 N 0.593784 0.871727 0.273089 0.0127 Uiso
N30_2 N 0.561514 0.890669 0.163049 0.0127 Uiso
Fe6_3 Fe 0.595752 1.000000 0.250000 0.0063 Uiso
Fe7_2 Fe 0.534942 0.868275 0.416667 0.0063 Uiso
N31_2 N 0.501531 0.774343 0.119811 0.0127 Uiso
N32_2 N 0.571750 0.806017 0.155515 0.0127 Uiso
N33_2 N 0.546385 0.758993 0.237300 0.0127 Uiso
N34_2 N 0.472320 0.725117 0.200684 0.0127 Uiso
C91_2 C 0.494967 0.755570 0.085473 0.0127 Uiso
C92_2 C 0.495165 0.799155 0.118270 0.0127 Uiso
C93_2 C 0.586442 0.836778 0.172716 0.0127 Uiso
C94_2 C 0.587516 0.800773 0.124514 0.0127 Uiso
C95_2 C 0.544128 0.730351 0.246094 0.0127 Uiso
C96_2 C 0.563410 0.783759 0.264838 0.0127 Uiso
C97_2 C 0.460474 0.729491 0.236913 0.0127 Uiso
C98_2 C 0.453742 0.697067 0.179361 0.0127 Uiso
C99_2 C 0.482178 0.760777 0.049385 0.0127 Uiso
C100_2 C 0.482266 0.805903 0.082947 0.0127 Uiso
C101_2 C 0.616596 0.861916 0.158943 0.0127 Uiso
C102_2 C 0.617811 0.825356 0.109801 0.0127 Uiso
C103_2 C 0.558685 0.726471 0.281993 0.0127 Uiso
C104_2 C 0.577801 0.781684 0.299463 0.0127 Uiso
C105_2 C 0.430382 0.706084 0.251709 0.0127 Uiso
C106_2 C 0.422546 0.672160 0.193297 0.0127 Uiso
O20_2 O 0.475598 0.741620 0.014728 0.0127 Uiso
C107_2 C 0.475775 0.786570 0.048411 0.0127 Uiso
O21_2 O 0.628218 0.891594 0.179463 0.0127 Uiso
C108_2 C 0.632610 0.855884 0.126558 0.0127 Uiso
O22_2 O 0.555819 0.696961 0.289813 0.0127 Uiso
C109_2 C 0.575638 0.752074 0.308986 0.0127 Uiso
O23_2 O 0.419813 0.713441 0.291847 0.0127 Uiso
C110_2 C 0.410350 0.676410 0.230057 0.0127 Uiso
C111_2 C 0.652599 0.905465 0.203406 0.0127 Uiso
C112_2 C 0.578346 0.692528 0.264066 0.0127 Uiso
C113_2 C 0.400795 0.729012 0.283468 0.0127 Uiso
O24_2 O 0.678642 0.904298 0.195930 0.0127 Uiso
C114_2 C 0.647828 0.922372 0.239264 0.0127 Uiso
O25_2 O 0.582221 0.668224 0.269058 0.0127 Uiso
C115_2 C 0.596347 0.716470 0.232490 0.0127 Uiso
O26_2 O 0.404004 0.745544 0.252562 0.0127 Uiso
C116_2 C 0.375142 0.723595 0.316784 0.0127 Uiso
H5_2 H 0.195956 0.908059 0.126325 . .
H7_2 H 0.327136 0.691099 0.0133418 . .
H8_2 H 0.292304 0.695219 0.0254277 . .
H10_2 H 0.368042 0.976171 0.104939 . .
H12_2 H 0.389255 0.960408 0.0757274 . .
H14_2 H 0.528167 0.912378 0.122326 . .
H15_2 H 0.56943 0.945451 0.117263 . .
H16_2 H 0.537539 0.944824 0.08682 . .
H19_2 H 0.478898 0.986353 0.0560183 . .
H20_2 H 0.25895 0.869452 0.141941 . .
H21_2 H 0.318239 0.931216 0.139292 . .
H22_2 H 0.283444 0.997739 0.130263 . .
H26_2 H 0.220809 0.829807 0.19313 . .
H27_2 H 0.137157 0.864273 0.154338 . .
H32_2 H 0.169599 0.828749 0.211654 . .
H33_2 H 0.376681 0.961541 0.173671 . .
H34_2 H 0.1608 0.723604 0.00204053 . .
H40_2 H 0.627075 0.904487 0.257606 . .
H41_2 H 0.670075 0.933554 0.258062 . .
H42_2 H 0.642838 0.941462 0.228394 . .
H43_2 H 0.463146 0.69349 0.150315 . .
H44_2 H 0.590911 0.802981 0.319594 . .
H45_2 H 0.576183 0.77642 0.1104 . .
H46_2 H 0.530853 0.709521 0.225324 . .
H47_2 H 0.656349 0.875263 0.115172 . .
H48_2 H 0.465767 0.791518 0.0208023 . .
H49_2 H 0.386402 0.65777 0.241847 . .
H50_2 H 0.499999 0.735232 0.0861841 . .
H51_2 H 0.475202 0.752031 0.25447 . .
H52_2 H 0.574106 0.841635 0.197907 . .
H53_2 H 0.565524 0.807532 0.258052 . .
H54_2 H 0.477413 0.826365 0.0828744 . .
H55_2 H 0.629726 0.819988 0.0845727 . .
H56_2 H 0.408248 0.649819 0.175226 . .
H57_2 H 0.459121 0.718377 0.0214086 . .
H58_2 H 0.586887 0.74904 0.336754 . .
H59_2 H 0.500151 0.814677 0.145338 . .
H60_2 H 0.611491 0.740618 0.246513 . .
H61_2 H 0.612118 0.709355 0.21607 . .
H62_2 H 0.579045 0.717545 0.211007 . .
H63_2 H 0.387638 0.733412 0.34601 . .
H64_2 H 0.361885 0.736248 0.307906 . .
H65_2 H 0.357765 0.697296 0.319992 . .
H66_2 H 0.46643 0.909517 0.222933 . .
H67_2 H 0.487999 0.864186 0.108009 . .
H68_2 H 0.389838 0.808535 0.0788635 . .
H69_2 H 0.399137 0.907439 0.135426 . .
H70_2 H 0.424659 0.898858 0.0752818 . .
H71_2 H 0.431433 0.833332 0.247149 . .
H72_2 H 0.436323 0.796479 0.183018 . .
H73_2 H 0.241392 0.862623 0.0403417 . .
H74_2 H 0.352141 0.833485 0.187995 . .
H75_2 H 0.202785 0.925617 0.0247262 . .
H78_2 H 0.264549 0.984906 0.0273743 . .
H82_2 H 0.447753 0.989683 0.218162 . .
H83_2 H 0.395299 0.719735 0.0914867 . .
H84_2 H 0.425096 0.741581 0.158108 . .
H85_2 H 0.331072 0.950111 0.0364041 . .
H88_2 H 0.197607 0.803824 0.0123289 . .
H89_2 H 0.454596 0.924244 0.0137395 . .
H90_2 H 0.420098 0.829587 0.328479 . .
H91_2 H 0.476405 0.963059 0.248761 . .
H92_2 H 0.317714 0.810746 0.250459 . .
H93_2 H 0.340916 0.799101 0.312531 . .
N3_2 N 0.328693 0.866185 0.978446 0.0127 Uiso
Fe3_2 Fe 0.333333 0.868275 0.916667 0.0063 Uiso
N15_2 N 0.369872 0.918180 0.920772 0.0127 Uiso
N16_2 N 0.369444 0.854157 0.922284 0.0127 Uiso
C21_2 C 0.395065 0.929422 0.948614 0.0127 Uiso
C22_2 C 0.369690 0.941483 0.895514 0.0127 Uiso
C23_2 C 0.394496 0.863955 0.895181 0.0127 Uiso
C24_2 C 0.367445 0.834485 0.954369 0.0127 Uiso
C33_2 C 0.201996 0.845616 0.996622 0.0127 Uiso
C34_2 C 0.180392 0.881381 0.988059 0.0127 Uiso
C36_2 C 0.344541 0.988803 0.993021 0.0127 Uiso
C37_2 C 0.419075 0.962002 0.951610 0.0127 Uiso
C38_2 C 0.393010 0.974248 0.897209 0.0127 Uiso
C39_2 C 0.417595 0.854277 0.899806 0.0127 Uiso
C40_2 C 0.389967 0.824641 0.959528 0.0127 Uiso
O5_2 O 0.202162 0.817459 0.987144 0.0127 Uiso
C45_2 C 0.179671 0.852967 0.977650 0.0127 Uiso
O7_2 O 0.443776 0.970222 0.981847 0.0127 Uiso
C47_2 C 0.418733 0.985371 0.925956 0.0127 Uiso
O8_2 O 0.443229 0.865308 0.870453 0.0127 Uiso
C48_2 C 0.415953 0.834519 0.931852 0.0127 Uiso
C53_2 C 0.472595 0.894219 0.879940 0.0127 Uiso
O13_2 O 0.473393 0.916334 0.899021 0.0127 Uiso
C58_2 C 0.506032 0.897682 0.864745 0.0127 Uiso
N21_2 N 0.296795 0.881641 0.912561 0.0127 Uiso
N22_2 N 0.297223 0.818046 0.911049 0.0127 Uiso
N23_2 N 0.337974 0.870825 0.854887 0.0127 Uiso
C64_2 C 0.271602 0.867690 0.884719 0.0127 Uiso
C65_2 C 0.296977 0.905126 0.937819 0.0127 Uiso
C66_2 C 0.272171 0.802792 0.938152 0.0127 Uiso
C67_2 C 0.299222 0.800373 0.878964 0.0127 Uiso
C72_2 C 0.247592 0.876260 0.881723 0.0127 Uiso
C73_2 C 0.273657 0.914571 0.936124 0.0127 Uiso
C74_2 C 0.249072 0.770015 0.933527 0.0127 Uiso
C75_2 C 0.276700 0.768007 0.873805 0.0127 Uiso
O16_2 O 0.222891 0.859779 0.851486 0.0127 Uiso
C85_2 C 0.247934 0.899971 0.907377 0.0127 Uiso
O17_2 O 0.223438 0.755412 0.962880 0.0127 Uiso
C86_2 C 0.250714 0.751899 0.901481 0.0127 Uiso
C87_2 C 0.220253 0.878210 0.818078 0.0127 Uiso
C88_2 C 0.194072 0.754957 0.953393 0.0127 Uiso
O18_2 O 0.246044 0.911129 0.809655 0.0127 Uiso
C89_2 C 0.190299 0.862940 0.791754 0.0127 Uiso
O19_2 O 0.193274 0.776274 0.934312 0.0127 Uiso
C90_2 C 0.160635 0.724983 0.968588 0.0127 Uiso
H1_2 H 0.319363 0.812526 0.856981 . .
H2_2 H 0.505867 0.896137 0.831293 . .
H3_2 H 0.526428 0.921413 0.874557 . .
H4_2 H 0.508995 0.877897 0.877846 . .
H6_2 H 0.270513 0.848907 0.863946 . .
H9_2 H 0.320893 0.720971 0.987324 . .
H13_2 H 0.316691 0.916902 0.960427 . .
H23_2 H 0.270261 0.816616 0.963936 . .
H24_2 H 0.232412 0.725905 0.897777 . .
H29_2 H 0.275072 0.933403 0.957074 . .
H30_2 H 0.278938 0.754518 0.847863 . .
H31_2 H 0.229043 0.907017 0.905359 . .
H35_2 H 0.140238 0.728318 0.958777 . .
H36_2 H 0.157672 0.702236 0.955488 . .
H37_2 H 0.168644 0.856445 0.810595 . .
H38_2 H 0.192517 0.88039 0.768049 . .
H39_2 H 0.187769 0.840789 0.777315 . .
H76_2 H 0.347303 0.826496 0.976353 . .
H77_2 H 0.36718 0.989308 0.983889 . .
H79_2 H 0.387728 0.808913 0.98547 . .
H80_2 H 0.349975 0.933544 0.872906 . .
H81_2 H 0.391595 0.991665 0.876259 . .
H86_2 H 0.396153 0.911727 0.969388 . .
H87_2 H 0.504514 0.920221 0.996579 . .
H94_2 H 0.163141 0.887476 0.973537 . .
H95_2 H 0.396405 0.879688 0.869398 . .
H96_2 H 0.162082 0.836266 0.955012 . .
H98_2 H 0.434255 0.826826 0.935557 . .
Nb1_3 Nb 0.144984 0.466194 0.079777 0.0063 Uiso
C1_3 C 0.150247 0.510033 0.107452 0.0127 Uiso
C2_3 C 0.113620 0.413180 0.076869 0.0127 Uiso
C3_3 C 0.136436 0.463631 0.013853 0.0127 Uiso
C4_3 C 0.174179 0.446261 0.052576 0.0127 Uiso
C5_3 C 0.180651 0.470302 0.125196 0.0127 Uiso
C6_3 C 0.188068 0.509401 0.053797 0.0127 Uiso
C7_3 C 0.097590 0.463228 0.067870 0.0127 Uiso
C8_3 C 0.119102 0.450824 0.139369 0.0127 Uiso
N1_3 N 0.151991 0.533210 0.123753 0.0127 Uiso
N2_3 N 0.096364 0.384850 0.076944 0.0127 Uiso
N4_3 N 0.189175 0.434799 0.039534 0.0127 Uiso
N6_3 N 0.210519 0.532036 0.039763 0.0127 Uiso
N7_3 N 0.072883 0.461606 0.060244 0.0127 Uiso
N8_3 N 0.105153 0.442664 0.170284 0.0127 Uiso
Fe1_3 Fe 0.144261 0.568206 0.155052 0.0063 Uiso
Fe2_3 Fe 0.070914 0.333333 0.083333 0.0063 Uiso
N9_3 N 0.165136 0.558990 0.213522 0.0127 Uiso
N10_3 N 0.094917 0.527316 0.177818 0.0127 Uiso
N11_3 N 0.120282 0.574340 0.096033 0.0127 Uiso
N12_3 N 0.194347 0.608216 0.132649 0.0127 Uiso
N13_3 N 0.103563 0.327978 0.035598 0.0127 Uiso
N14_3 N 0.035018 0.330427 0.035268 0.0127 Uiso
C9_3 C 0.171700 0.577763 0.247860 0.0127 Uiso
C10_3 C 0.171502 0.534178 0.215063 0.0127 Uiso
C11_3 C 0.080225 0.496555 0.160617 0.0127 Uiso
C12_3 C 0.079151 0.532560 0.208819 0.0127 Uiso
C13_3 C 0.122539 0.602982 0.087239 0.0127 Uiso
C14_3 C 0.103257 0.549574 0.068495 0.0127 Uiso
C15_3 C 0.206193 0.603842 0.096420 0.0127 Uiso
C16_3 C 0.212925 0.636266 0.153972 0.0127 Uiso
C17_3 C 0.131867 0.355743 0.025382 0.0127 Uiso
C18_3 C 0.097003 0.299863 0.017077 0.0127 Uiso
C19_3 C 0.014111 0.301419 0.017714 0.0127 Uiso
C20_3 C 0.033154 0.357133 0.022555 0.0127 Uiso
C25_3 C 0.184489 0.572556 0.283948 0.0127 Uiso
C26_3 C 0.184401 0.527430 0.250386 0.0127 Uiso
C27_3 C 0.050071 0.471417 0.174390 0.0127 Uiso
C28_3 C 0.048856 0.507977 0.223532 0.0127 Uiso
C29_3 C 0.107982 0.606862 0.051340 0.0127 Uiso
C30_3 C 0.088866 0.551649 0.033870 0.0127 Uiso
C31_3 C 0.236285 0.627249 0.081624 0.0127 Uiso
C32_3 C 0.244121 0.661173 0.140036 0.0127 Uiso
O1_3 O 0.191069 0.591713 0.318605 0.0127 Uiso
C41_3 C 0.190892 0.546763 0.284922 0.0127 Uiso
O2_3 O 0.038449 0.441739 0.153870 0.0127 Uiso
C42_3 C 0.034057 0.477449 0.206775 0.0127 Uiso
O3_3 O 0.110848 0.636372 0.043520 0.0127 Uiso
C43_3 C 0.091029 0.581259 0.024347 0.0127 Uiso
O4_3 O 0.246854 0.619892 0.041486 0.0127 Uiso
C44_3 C 0.256317 0.656923 0.103276 0.0127 Uiso
C49_3 C 0.014068 0.427868 0.129927 0.0127 Uiso
C50_3 C 0.088321 0.640805 0.069267 0.0127 Uiso
C51_3 C 0.265872 0.604321 0.049865 0.0127 Uiso
C52_3 C 0.008709 0.455123 0.015255 0.0127 Uiso
C54_3 C 0.018839 0.410961 0.094069 0.0127 Uiso
O10_3 O 0.084446 0.665109 0.064275 0.0127 Uiso
C55_3 C 0.070320 0.616863 0.100843 0.0127 Uiso
O11_3 O 0.262663 0.587789 0.080771 0.0127 Uiso
C56_3 C 0.291525 0.609738 0.016549 0.0127 Uiso
O12_3 O 0.001581 0.422204 0.023678 0.0127 Uiso
N17_3 N 0.138223 0.604690 0.185670 0.0127 Uiso
N18_3 N 0.108918 0.338689 0.131069 0.0127 Uiso
N19_3 N 0.037924 0.336240 0.131399 0.0127 Uiso
N20_3 N 0.044847 0.281817 0.089723 0.0127 Uiso
C59_3 C 0.136969 0.622984 0.208137 0.0127 Uiso
C60_3 C 0.109457 0.310924 0.141285 0.0127 Uiso
C61_3 C 0.130473 0.366804 0.149590 0.0127 Uiso
C62_3 C 0.046025 0.365248 0.148953 0.0127 Uiso
C63_3 C 0.009354 0.309534 0.144112 0.0127 Uiso
Nb2_3 Nb 0.132861 0.654543 0.253556 0.0063 Uiso
C68_3 C 0.131337 0.310287 0.170045 0.0127 Uiso
C69_3 C 0.152941 0.367656 0.178608 0.0127 Uiso
C70_3 C 0.026968 0.368958 0.178713 0.0127 Uiso
C76_3 C 0.176700 0.693119 0.225881 0.0127 Uiso
C77_3 C 0.079847 0.632893 0.256464 0.0127 Uiso
C78_3 C 0.130298 0.660528 0.319480 0.0127 Uiso
C79_3 C 0.112928 0.605415 0.280757 0.0127 Uiso
C80_3 C 0.176068 0.654666 0.279536 0.0127 Uiso
C81_3 C 0.129895 0.698971 0.265463 0.0127 Uiso
C82_3 C 0.117491 0.665055 0.193964 0.0127 Uiso
O14_3 O 0.131171 0.281964 0.179523 0.0127 Uiso
C83_3 C 0.153662 0.339963 0.189017 0.0127 Uiso
O15_3 O 0.036705 0.399646 0.195719 0.0127 Uiso
N24_3 N 0.199877 0.714552 0.209580 0.0127 Uiso
N25_3 N 0.051517 0.621819 0.256389 0.0127 Uiso
N26_3 N 0.129175 0.662026 0.354887 0.0127 Uiso
N27_3 N 0.101466 0.578957 0.293799 0.0127 Uiso
N28_3 N 0.198703 0.654850 0.293570 0.0127 Uiso
N29_3 N 0.128273 0.722056 0.273089 0.0127 Uiso
N30_3 N 0.109331 0.670844 0.163049 0.0127 Uiso
Fe6_4 Fe 0.000000 0.595753 0.250000 0.0063 Uiso
Fe7_3 Fe 0.131725 0.666667 0.416667 0.0063 Uiso
N31_3 N 0.225657 0.727187 0.119811 0.0127 Uiso
N32_3 N 0.193983 0.765732 0.155515 0.0127 Uiso
N33_3 N 0.241007 0.787391 0.237300 0.0127 Uiso
N34_3 N 0.274883 0.747202 0.200684 0.0127 Uiso
C91_3 C 0.244430 0.739396 0.085473 0.0127 Uiso
C92_3 C 0.200845 0.696009 0.118270 0.0127 Uiso
C93_3 C 0.163222 0.749663 0.172716 0.0127 Uiso
C94_3 C 0.199227 0.786742 0.124514 0.0127 Uiso
C95_3 C 0.269649 0.813776 0.246094 0.0127 Uiso
C96_3 C 0.216241 0.779650 0.264838 0.0127 Uiso
C97_3 C 0.270509 0.730982 0.236913 0.0127 Uiso
C98_3 C 0.302933 0.756674 0.179361 0.0127 Uiso
C99_3 C 0.239223 0.721400 0.049385 0.0127 Uiso
C100_3 C 0.194097 0.676362 0.082947 0.0127 Uiso
C101_3 C 0.138084 0.754679 0.158943 0.0127 Uiso
C102_3 C 0.174644 0.792454 0.109801 0.0127 Uiso
C103_3 C 0.273529 0.832213 0.281993 0.0127 Uiso
C104_3 C 0.218316 0.796116 0.299463 0.0127 Uiso
C105_3 C 0.293916 0.724297 0.251709 0.0127 Uiso
C106_3 C 0.327840 0.750385 0.193297 0.0127 Uiso
O20_3 O 0.258380 0.733977 0.014728 0.0127 Uiso
C107_3 C 0.213430 0.689204 0.048411 0.0127 Uiso
O21_3 O 0.108406 0.736623 0.179463 0.0127 Uiso
C108_3 C 0.144116 0.776725 0.126558 0.0127 Uiso
O22_3 O 0.303039 0.858857 0.289813 0.0127 Uiso
C109_3 C 0.247926 0.823563 0.308986 0.0127 Uiso
O23_3 O 0.286559 0.706371 0.291847 0.0127 Uiso
C110_3 C 0.323590 0.733939 0.230057 0.0127 Uiso
C111_3 C 0.094535 0.747133 0.203406 0.0127 Uiso
C112_3 C 0.307472 0.885817 0.264066 0.0127 Uiso
C113_3 C 0.270988 0.671782 0.283468 0.0127 Uiso
O24_3 O 0.095702 0.774343 0.195930 0.0127 Uiso
C114_3 C 0.077628 0.725455 0.239264 0.0127 Uiso
O25_3 O 0.331776 0.913996 0.269058 0.0127 Uiso
C115_3 C 0.283530 0.879876 0.232490 0.0127 Uiso
O26_3 O 0.254456 0.658459 0.252562 0.0127 Uiso
C116_3 C 0.276405 0.651546 0.316784 0.0127 Uiso
H5_3 H 0.0919415 0.287898 0.126325 . .
H7_3 H 0.308901 0.636037 0.0133418 . .
H8_3 H 0.304781 0.597085 0.0254277 . .
H10_3 H 0.023829 0.391871 0.104939 . .
H12_3 H 0.0395918 0.428846 0.0757274 . .
H14_3 H 0.0876217 0.615789 0.122326 . .
H15_3 H 0.0545485 0.623979 0.117263 . .
H16_3 H 0.0551762 0.592715 0.08682 . .
H19_3 H 0.0136469 0.492545 0.0560183 . .
H20_3 H 0.130548 0.389498 0.141941 . .
H21_3 H 0.0687843 0.387024 0.139292 . .
H22_3 H 0.00226103 0.285705 0.130263 . .
H26_3 H 0.170193 0.391002 0.19313 . .
H27_3 H 0.135727 0.272884 0.154338 . .
H32_3 H 0.171251 0.34085 0.211654 . .
H33_3 H 0.0384586 0.41514 0.173671 . .
H34_3 H 0.276396 0.437196 0.00204053 . .
H40_3 H 0.0955131 0.722588 0.257606 . .
H41_3 H 0.0664464 0.736522 0.258062 . .
H42_3 H 0.0585375 0.701375 0.228394 . .
H43_3 H 0.30651 0.769656 0.150315 . .
H44_3 H 0.197019 0.78793 0.319594 . .
H45_3 H 0.22358 0.799764 0.1104 . .
H46_3 H 0.290479 0.821332 0.225324 . .
H47_3 H 0.124737 0.781087 0.115172 . .
H48_3 H 0.208482 0.67425 0.0208023 . .
H49_3 H 0.34223 0.728632 0.241847 . .
H50_3 H 0.264768 0.764767 0.0861841 . .
H51_3 H 0.247969 0.723171 0.25447 . .
H52_3 H 0.158365 0.73247 0.197907 . .
H53_3 H 0.192468 0.757992 0.258052 . .
H54_3 H 0.173635 0.651047 0.0828744 . .
H55_3 H 0.180012 0.809738 0.0845727 . .
H56_3 H 0.350181 0.758429 0.175226 . .
H57_3 H 0.281623 0.740745 0.0214086 . .
H58_3 H 0.25096 0.837847 0.336754 . .
H59_3 H 0.185323 0.685474 0.145338 . .
H60_3 H 0.259382 0.870872 0.246513 . .
H61_3 H 0.290645 0.902763 0.21607 . .
H62_3 H 0.282455 0.8615 0.211007 . .
H63_3 H 0.266588 0.654226 0.34601 . .
H64_3 H 0.263752 0.625637 0.307906 . .
H65_3 H 0.302704 0.660469 0.319992 . .
H66_3 H 0.0904832 0.556913 0.222933 . .
H67_3 H 0.135814 0.623813 0.108009 . .
H68_3 H 0.191465 0.581303 0.0788635 . .
H69_3 H 0.0925608 0.491698 0.135426 . .
H70_3 H 0.101142 0.525801 0.0752818 . .
H71_3 H 0.166668 0.598101 0.247149 . .
H72_3 H 0.203521 0.639843 0.183018 . .
H73_3 H 0.137377 0.378769 0.0403417 . .
H74_3 H 0.166515 0.518656 0.187995 . .
H75_3 H 0.0743833 0.277169 0.0247262 . .
H78_3 H 0.0150939 0.279643 0.0273743 . .
H82_3 H 0.0103174 0.458071 0.218162 . .
H83_3 H 0.280265 0.675563 0.0914867 . .
H84_3 H 0.258419 0.683514 0.158108 . .
H85_3 H 0.0498895 0.380962 0.0364041 . .
H88_3 H 0.196176 0.393782 0.0123289 . .
H89_3 H 0.075756 0.530352 0.0137395 . .
H90_3 H 0.170413 0.590511 0.328479 . .
H91_3 H 0.0369409 0.513346 0.248761 . .
H92_3 H 0.189254 0.506968 0.250459 . .
H93_3 H 0.200899 0.541816 0.312531 . .
N3_3 N 0.133815 0.462508 0.978446 0.0127 Uiso
Fe3_3 Fe 0.131725 0.465058 0.916667 0.0063 Uiso
N15_3 N 0.081820 0.451692 0.920772 0.0127 Uiso
N16_3 N 0.145843 0.515287 0.922284 0.0127 Uiso
C21_3 C 0.070578 0.465643 0.948614 0.0127 Uiso
C22_3 C 0.058517 0.428207 0.895514 0.0127 Uiso
C23_3 C 0.136045 0.530541 0.895181 0.0127 Uiso
C24_3 C 0.165515 0.532960 0.954369 0.0127 Uiso
C33_3 C 0.154384 0.356380 0.996622 0.0127 Uiso
C34_3 C 0.118619 0.299011 0.988059 0.0127 Uiso
C36_3 C 0.011197 0.355738 0.993021 0.0127 Uiso
C37_3 C 0.037998 0.457073 0.951610 0.0127 Uiso
C38_3 C 0.025752 0.418762 0.897209 0.0127 Uiso
C39_3 C 0.145723 0.563318 0.899806 0.0127 Uiso
C40_3 C 0.175359 0.565326 0.959528 0.0127 Uiso
O5_3 O 0.182541 0.384703 0.987144 0.0127 Uiso
C45_3 C 0.147033 0.326704 0.977650 0.0127 Uiso
O7_3 O 0.029778 0.473554 0.981847 0.0127 Uiso
C47_3 C 0.014629 0.433362 0.925956 0.0127 Uiso
O8_3 O 0.134692 0.577921 0.870453 0.0127 Uiso
C48_3 C 0.165481 0.581434 0.931852 0.0127 Uiso
C53_3 C 0.105781 0.578376 0.879940 0.0127 Uiso
O13_3 O 0.083666 0.557059 0.899021 0.0127 Uiso
C58_3 C 0.102318 0.608350 0.864745 0.0127 Uiso
N21_3 N 0.118359 0.415153 0.912561 0.0127 Uiso
N22_3 N 0.181954 0.479176 0.911049 0.0127 Uiso
N23_3 N 0.129175 0.467148 0.854887 0.0127 Uiso
C64_3 C 0.132310 0.403911 0.884719 0.0127 Uiso
C65_3 C 0.094874 0.391850 0.937819 0.0127 Uiso
C66_3 C 0.197208 0.469378 0.938152 0.0127 Uiso
C67_3 C 0.199627 0.498848 0.878964 0.0127 Uiso
C72_3 C 0.123740 0.371331 0.881723 0.0127 Uiso
C73_3 C 0.085429 0.359085 0.936124 0.0127 Uiso
C74_3 C 0.229985 0.479056 0.933527 0.0127 Uiso
C75_3 C 0.231993 0.508692 0.873805 0.0127 Uiso
O16_3 O 0.140221 0.363111 0.851486 0.0127 Uiso
C85_3 C 0.100029 0.347962 0.907377 0.0127 Uiso
O17_3 O 0.244588 0.468025 0.962880 0.0127 Uiso
C86_3 C 0.248101 0.498814 0.901481 0.0127 Uiso
C87_3 C 0.121790 0.342042 0.818078 0.0127 Uiso
C88_3 C 0.245043 0.439114 0.953393 0.0127 Uiso
O18_3 O 0.088871 0.334914 0.809655 0.0127 Uiso
C89_3 C 0.137060 0.327358 0.791754 0.0127 Uiso
O19_3 O 0.223726 0.416999 0.934312 0.0127 Uiso
C90_3 C 0.275017 0.435651 0.968588 0.0127 Uiso
H1_3 H 0.187474 0.506837 0.856981 . .
H2_3 H 0.103863 0.609729 0.831293 . .
H3_3 H 0.0785868 0.605015 0.874557 . .
H4_3 H 0.122103 0.631097 0.877846 . .
H6_3 H 0.151093 0.421606 0.863946 . .
H9_3 H 0.279029 0.599922 0.987324 . .
H13_3 H 0.0830977 0.399789 0.960427 . .
H23_3 H 0.183384 0.453646 0.963936 . .
H24_3 H 0.274095 0.506507 0.897777 . .
H29_3 H 0.0665967 0.341669 0.957074 . .
H30_3 H 0.245482 0.52442 0.847863 . .
H31_3 H 0.0929832 0.322026 0.905359 . .
H35_3 H 0.271682 0.41192 0.958777 . .
H36_3 H 0.297764 0.455436 0.955488 . .
H37_3 H 0.143555 0.312199 0.810595 . .
H38_3 H 0.11961 0.312127 0.768049 . .
H39_3 H 0.159211 0.34698 0.777315 . .
H76_3 H 0.173504 0.520807 0.976353 . .
H77_3 H 0.010692 0.377872 0.983889 . .
H79_3 H 0.191087 0.578815 0.98547 . .
H80_3 H 0.0664558 0.416431 0.872906 . .
H81_3 H 0.00833517 0.39993 0.876259 . .
H86_3 H 0.0882727 0.484426 0.969388 . .
H87_3 H 0.0797795 0.584293 0.996579 . .
H94_3 H 0.112524 0.275665 0.973537 . .
H95_3 H 0.120312 0.516718 0.869398 . .
H96_3 H 0.163734 0.325817 0.955012 . .
H98_3 H 0.173174 0.607429 0.935557 . .
O9_3 O 0.988025 0.429035 0.137403 0.0127 Uiso
C57_3 C 0.994025 0.470393 0.041579 0.0127 Uiso
C71_3 C 0.988792 0.310929 0.173646 0.0127 Uiso
C84_3 C 0.997810 0.341432 0.191434 0.0127 Uiso
Fe6_5 Fe 1.000000 0.595753 0.250000 0.0063 Uiso
H11_3 H 0.996591 0.39978 0.0752708 . .
H17_3 H 0.978866 0.476889 0.0227387 . .
H18_3 H 0.978794 0.452944 0.0652841 . .
H25_3 H 0.966153 0.288794 0.182778 . .
H28_3 H 0.982335 0.343638 0.214795 . .
C35_3 C 0.991344 0.297709 0.987954 0.0127 Uiso
O6_3 O 0.970393 0.267021 0.970948 0.0127 Uiso
C46_3 C 0.989712 0.325235 0.975233 0.0127 Uiso
H97_3 H 0.988693 0.426317 0.927974 . .
H99_3 H 0.956652 0.251527 0.992996 . .
H100_3 H 0.972031 0.323029 0.951871 . .
Fe2_4 Fe 0.000000 0.404248 0.750000 0.0063 Uiso
N13_4 N 0.005355 0.442252 0.702265 0.0127 Uiso
N14_4 N 0.002906 0.371258 0.701935 0.0127 Uiso
C18_4 C 0.033470 0.463807 0.683744 0.0127 Uiso
C19_4 C 0.031914 0.379359 0.684381 0.0127 Uiso
C34_4 C 0.034322 0.486275 0.654726 0.0127 Uiso
C35_4 C 0.035624 0.360302 0.654621 0.0127 Uiso
C45_4 C 0.006629 0.486996 0.644317 0.0127 Uiso
O6_4 O 0.066312 0.370039 0.637615 0.0127 Uiso
C46_4 C 0.008098 0.331144 0.641900 0.0127 Uiso
N20_4 N 0.051517 0.429697 0.756389 0.0127 Uiso
C60_4 C 0.022410 0.465200 0.807951 0.0127 Uiso
C63_4 C 0.023800 0.366487 0.810778 0.0127 Uiso
C68_4 C 0.023047 0.487717 0.836711 0.0127 Uiso
C71_4 C 0.022405 0.344530 0.840312 0.0127 Uiso
O14_4 O 0.051370 0.515874 0.846189 0.0127 Uiso
C89_4 C 0.005975 0.476368 0.458421 0.0127 Uiso
H5_4 H 0.0454356 0.47071 0.792992 . .
H22_4 H 0.0476285 0.383223 0.796929 . .
H25_4 H 0.0445389 0.344025 0.849444 . .
H27_4 H 0.0604491 0.529509 0.821004 . .
H31_4 H 0.0113071 0.437624 0.572026 . .
H37_4 H 0.021134 0.498023 0.477261 . .
H38_4 H 0.0212061 0.47415 0.434716 . .
H75_4 H 0.0561647 0.463881 0.691393 . .
H78_4 H 0.0536904 0.402118 0.694041 . .
H94_4 H 0.0576686 0.503526 0.640204 . .
H96_4 H 0.00751641 0.504584 0.621679 . .
H99_4 H 0.0818062 0.371792 0.659663 . .
H100_4 H 0.0103042 0.315669 0.618538 . .
N26_4 N 0.671307 0.133815 0.021554 0.0127 Uiso
Fe7_4 Fe 0.666666 0.131725 0.083334 0.0063 Uiso
H58_4 H 0.495486 0.0797795 0.003421 . .
H63_4 H 0.679107 0.279029 0.0126765 . .
Nb1_4 Nb 0.867139 0.345457 0.746444 0.0063 Uiso
C1_4 C 0.823300 0.306881 0.774119 0.0127 Uiso
C2_4 C 0.920153 0.367107 0.743536 0.0127 Uiso
C3_4 C 0.869702 0.339472 0.680520 0.0127 Uiso
C4_4 C 0.887072 0.394585 0.719243 0.0127 Uiso
C5_4 C 0.863031 0.377016 0.791863 0.0127 Uiso
C6_4 C 0.823932 0.345334 0.720464 0.0127 Uiso
C7_4 C 0.870105 0.301029 0.734537 0.0127 Uiso
C8_4 C 0.882509 0.334945 0.806036 0.0127 Uiso
N1_4 N 0.800123 0.285448 0.790420 0.0127 Uiso
N2_4 N 0.948483 0.378181 0.743611 0.0127 Uiso
N3_4 N 0.870825 0.337974 0.645113 0.0127 Uiso
N4_4 N 0.898534 0.421043 0.706201 0.0127 Uiso
N5_3 N 0.861777 0.395310 0.814330 0.0127 Uiso
N6_4 N 0.801297 0.345150 0.706430 0.0127 Uiso
N7_4 N 0.871727 0.277944 0.726911 0.0127 Uiso
N8_4 N 0.890669 0.329156 0.836951 0.0127 Uiso
Fe1_4 Fe 0.765127 0.242722 0.821719 0.0063 Uiso
Fe2_5 Fe 1.000000 0.404248 0.750000 0.0063 Uiso
Fe3_4 Fe 0.868275 0.333334 0.583334 0.0063 Uiso
N9_4 N 0.774343 0.272813 0.880189 0.0127 Uiso
N10_4 N 0.806017 0.234268 0.844485 0.0127 Uiso
N11_4 N 0.758993 0.212609 0.762700 0.0127 Uiso
N12_4 N 0.725117 0.252798 0.799316 0.0127 Uiso
N15_4 N 0.881641 0.296795 0.587439 0.0127 Uiso
N16_4 N 0.818046 0.297223 0.588951 0.0127 Uiso
C9_4 C 0.755570 0.260604 0.914527 0.0127 Uiso
C10_4 C 0.799155 0.303991 0.881730 0.0127 Uiso
C11_4 C 0.836778 0.250337 0.827284 0.0127 Uiso
C12_4 C 0.800773 0.213258 0.875486 0.0127 Uiso
C13_4 C 0.730351 0.186224 0.753906 0.0127 Uiso
C14_4 C 0.783759 0.220350 0.735162 0.0127 Uiso
C15_4 C 0.729491 0.269018 0.763087 0.0127 Uiso
C16_4 C 0.697067 0.243326 0.820639 0.0127 Uiso
C17_4 C 0.977590 0.442791 0.692049 0.0127 Uiso
C20_4 C 0.976200 0.342688 0.689222 0.0127 Uiso
C21_4 C 0.867690 0.271602 0.615281 0.0127 Uiso
C22_4 C 0.905126 0.296977 0.562181 0.0127 Uiso
C23_4 C 0.802792 0.272171 0.561848 0.0127 Uiso
C24_4 C 0.800373 0.299222 0.621036 0.0127 Uiso
C25_4 C 0.760777 0.278600 0.950615 0.0127 Uiso
C26_4 C 0.805903 0.323638 0.917053 0.0127 Uiso
C27_4 C 0.861916 0.245321 0.841057 0.0127 Uiso
C28_4 C 0.825356 0.207546 0.890199 0.0127 Uiso
C29_4 C 0.726471 0.167787 0.718007 0.0127 Uiso
C30_4 C 0.781684 0.203884 0.700537 0.0127 Uiso
C31_4 C 0.706084 0.275703 0.748291 0.0127 Uiso
C32_4 C 0.672160 0.249615 0.806703 0.0127 Uiso
C33_4 C 0.976953 0.464671 0.663289 0.0127 Uiso
C36_4 C 0.977595 0.322126 0.659688 0.0127 Uiso
C37_4 C 0.876260 0.247592 0.618277 0.0127 Uiso
C38_4 C 0.914571 0.273657 0.563876 0.0127 Uiso
C39_4 C 0.770015 0.249072 0.566473 0.0127 Uiso
C40_4 C 0.768007 0.276700 0.626195 0.0127 Uiso
O1_4 O 0.741620 0.266023 0.985272 0.0127 Uiso
C41_4 C 0.786570 0.310796 0.951589 0.0127 Uiso
O2_4 O 0.891594 0.263377 0.820537 0.0127 Uiso
C42_4 C 0.855884 0.223275 0.873442 0.0127 Uiso
O3_4 O 0.696961 0.141143 0.710187 0.0127 Uiso
C43_4 C 0.752074 0.176437 0.691014 0.0127 Uiso
O4_4 O 0.713441 0.293629 0.708153 0.0127 Uiso
C44_4 C 0.676410 0.266061 0.769943 0.0127 Uiso
O5_4 O 0.948630 0.464505 0.653811 0.0127 Uiso
O7_4 O 0.859779 0.222891 0.648514 0.0127 Uiso
C47_4 C 0.899971 0.247934 0.592623 0.0127 Uiso
O8_4 O 0.755412 0.223438 0.537120 0.0127 Uiso
C48_4 C 0.751899 0.250714 0.598519 0.0127 Uiso
C49_4 C 0.905465 0.252867 0.796594 0.0127 Uiso
C50_4 C 0.692528 0.114183 0.735934 0.0127 Uiso
C51_4 C 0.729012 0.328218 0.716532 0.0127 Uiso
C52_4 C 0.878210 0.220253 0.681922 0.0127 Uiso
C53_4 C 0.754957 0.194072 0.546607 0.0127 Uiso
O9_4 O 0.904298 0.225657 0.804070 0.0127 Uiso
C54_4 C 0.922372 0.274545 0.760736 0.0127 Uiso
O10_4 O 0.668224 0.086004 0.730942 0.0127 Uiso
C55_4 C 0.716470 0.120124 0.767510 0.0127 Uiso
O11_4 O 0.745544 0.341541 0.747438 0.0127 Uiso
C56_4 C 0.723595 0.348454 0.683216 0.0127 Uiso
O12_4 O 0.911129 0.246044 0.690345 0.0127 Uiso
C57_4 C 0.862940 0.190299 0.708246 0.0127 Uiso
O13_4 O 0.776274 0.193274 0.565688 0.0127 Uiso
C58_4 C 0.724983 0.160635 0.531412 0.0127 Uiso
Fe4_3 Fe 0.855739 0.431794 0.844948 0.0063 Uiso
N17_4 N 0.728643 0.200199 0.852337 0.0127 Uiso
N18_4 N 0.994645 0.436896 0.797735 0.0127 Uiso
N19_4 N 0.997094 0.368351 0.798065 0.0127 Uiso
N21_4 N 0.918180 0.369872 0.579228 0.0127 Uiso
N22_4 N 0.854157 0.369444 0.577716 0.0127 Uiso
N23_4 N 0.866185 0.328693 0.521554 0.0127 Uiso
C59_4 C 0.710349 0.180651 0.874804 0.0127 Uiso
C61_4 C 0.966530 0.430336 0.816256 0.0127 Uiso
C62_4 C 0.968086 0.347444 0.815619 0.0127 Uiso
C64_4 C 0.929422 0.395065 0.551386 0.0127 Uiso
C65_4 C 0.941483 0.369690 0.604486 0.0127 Uiso
C66_4 C 0.863955 0.394496 0.604819 0.0127 Uiso
C67_4 C 0.834485 0.367445 0.545631 0.0127 Uiso
Nb2_4 Nb 0.678790 0.144984 0.920223 0.0063 Uiso
C69_4 C 0.965678 0.451952 0.845274 0.0127 Uiso
C70_4 C 0.964376 0.324677 0.845379 0.0127 Uiso
C72_4 C 0.962002 0.419075 0.548390 0.0127 Uiso
C73_4 C 0.974248 0.393010 0.602791 0.0127 Uiso
C74_4 C 0.854277 0.417595 0.600194 0.0127 Uiso
C75_4 C 0.824641 0.389967 0.540472 0.0127 Uiso
C76_4 C 0.640214 0.150247 0.892548 0.0127 Uiso
C77_4 C 0.700440 0.113620 0.923131 0.0127 Uiso
C78_4 C 0.672805 0.136436 0.986147 0.0127 Uiso
C79_4 C 0.727918 0.174179 0.947424 0.0127 Uiso
C80_4 C 0.678667 0.188068 0.946203 0.0127 Uiso
C81_4 C 0.634362 0.097590 0.932130 0.0127 Uiso
C82_4 C 0.668278 0.119102 0.860631 0.0127 Uiso
C83_4 C 0.993371 0.480366 0.855683 0.0127 Uiso
O15_4 O 0.933688 0.303726 0.862385 0.0127 Uiso
C84_4 C 0.991902 0.323045 0.858100 0.0127 Uiso
O16_4 O 0.970222 0.443776 0.518153 0.0127 Uiso
C85_4 C 0.985371 0.418733 0.574044 0.0127 Uiso
O17_4 O 0.865308 0.443229 0.629547 0.0127 Uiso
C86_4 C 0.834519 0.415953 0.568148 0.0127 Uiso
N24_4 N 0.618781 0.151991 0.876247 0.0127 Uiso
N25_4 N 0.711514 0.096364 0.923056 0.0127 Uiso
N27_4 N 0.754376 0.189175 0.960466 0.0127 Uiso
N28_4 N 0.678483 0.210519 0.960237 0.0127 Uiso
N29_4 N 0.611277 0.072883 0.939756 0.0127 Uiso
N30_4 N 0.662489 0.105153 0.829716 0.0127 Uiso
C87_4 C 0.991291 0.446414 0.484745 0.0127 Uiso
C88_4 C 0.894219 0.472595 0.620060 0.0127 Uiso
Fe5_2 Fe 0.576055 0.144261 0.844948 0.0063 Uiso
Fe6_6 Fe 0.737581 0.070914 0.916666 0.0063 Uiso
O18_4 O 0.998419 0.420623 0.476322 0.0127 Uiso
O19_4 O 0.916334 0.473393 0.600979 0.0127 Uiso
C90_4 C 0.897682 0.506032 0.635255 0.0127 Uiso
N31_4 N 0.606146 0.165136 0.786478 0.0127 Uiso
N32_4 N 0.567601 0.094917 0.822182 0.0127 Uiso
N33_4 N 0.545942 0.120282 0.903967 0.0127 Uiso
N34_4 N 0.586131 0.194347 0.867351 0.0127 Uiso
N35_2 N 0.533532 0.138223 0.814330 0.0127 Uiso
C91_4 C 0.593937 0.171700 0.752140 0.0127 Uiso
C92_4 C 0.637324 0.171502 0.784937 0.0127 Uiso
C93_4 C 0.583670 0.080225 0.839383 0.0127 Uiso
C94_4 C 0.546591 0.079151 0.791181 0.0127 Uiso
C95_4 C 0.519557 0.122539 0.912761 0.0127 Uiso
C96_4 C 0.553683 0.103257 0.931505 0.0127 Uiso
C97_4 C 0.602351 0.206193 0.903580 0.0127 Uiso
C98_4 C 0.576659 0.212925 0.846028 0.0127 Uiso
C99_4 C 0.611933 0.184489 0.716052 0.0127 Uiso
C100_4 C 0.656971 0.184401 0.749614 0.0127 Uiso
C101_4 C 0.578654 0.050071 0.825610 0.0127 Uiso
C102_4 C 0.540879 0.048856 0.776468 0.0127 Uiso
C103_4 C 0.501120 0.107982 0.948660 0.0127 Uiso
C104_4 C 0.537217 0.088866 0.966130 0.0127 Uiso
C105_4 C 0.609036 0.236285 0.918376 0.0127 Uiso
C106_4 C 0.582948 0.244121 0.859964 0.0127 Uiso
O20_4 O 0.599356 0.191069 0.681395 0.0127 Uiso
C107_4 C 0.644129 0.190892 0.715078 0.0127 Uiso
O21_4 O 0.596710 0.038449 0.846130 0.0127 Uiso
C108_4 C 0.556608 0.034057 0.793225 0.0127 Uiso
O22_4 O 0.474476 0.110848 0.956480 0.0127 Uiso
C109_4 C 0.509770 0.091029 0.975653 0.0127 Uiso
O23_4 O 0.626962 0.246854 0.958514 0.0127 Uiso
C110_4 C 0.599394 0.256317 0.896724 0.0127 Uiso
C111_4 C 0.586200 0.014068 0.870073 0.0127 Uiso
C112_4 C 0.447516 0.088321 0.930733 0.0127 Uiso
C113_4 C 0.661551 0.265872 0.950135 0.0127 Uiso
C114_4 C 0.607878 0.018839 0.905931 0.0127 Uiso
O25_4 O 0.419337 0.084446 0.935725 0.0127 Uiso
C115_4 C 0.453457 0.070320 0.899157 0.0127 Uiso
O26_4 O 0.674874 0.262663 0.919229 0.0127 Uiso
C116_4 C 0.681787 0.291525 0.983451 0.0127 Uiso
H1_4 H 0.826496 0.347303 0.523647 . .
H2_4 H 0.723604 0.1608 0.497959 . .
H3_4 H 0.728318 0.140238 0.541223 . .
H4_4 H 0.702236 0.157672 0.544512 . .
H6_4 H 0.911727 0.396153 0.530612 . .
H7_4 H 0.697296 0.339531 0.680008 . .
H8_4 H 0.736248 0.374363 0.692094 . .
H9_4 H 0.733412 0.345774 0.65399 . .
H10_4 H 0.941462 0.298625 0.771606 . .
H11_4 H 0.933554 0.263478 0.741938 . .
H12_4 H 0.904487 0.277412 0.742394 . .
H13_4 H 0.933544 0.349975 0.627094 . .
H14_4 H 0.717545 0.1385 0.788993 . .
H15_4 H 0.709355 0.0972366 0.78393 . .
H16_4 H 0.740618 0.129128 0.753487 . .
H17_4 H 0.856445 0.168644 0.689405 . .
H18_4 H 0.88039 0.192517 0.731951 . .
H19_4 H 0.840789 0.187769 0.722685 . .
H20_4 H 0.943835 0.407717 0.808607 . .
H21_4 H 0.94631 0.348427 0.805959 . .
H23_4 H 0.879688 0.396405 0.630602 . .
H24_4 H 0.826826 0.434255 0.564443 . .
H26_4 H 0.942331 0.445857 0.859796 . .
H28_4 H 0.989696 0.305364 0.881462 . .
H29_4 H 0.991665 0.391595 0.623741 . .
H30_4 H 0.808913 0.387728 0.51453 . .
H32_4 H 0.992484 0.497068 0.878321 . .
H33_4 H 0.918194 0.289986 0.840337 . .
H34_4 H 0.896137 0.505867 0.668707 . .
H35_4 H 0.921413 0.526428 0.625443 . .
H36_4 H 0.877897 0.508995 0.622154 . .
H39_4 H 0.986353 0.478898 0.443982 . .
H40_4 H 0.610745 0.0395918 0.924273 . .
H42_4 H 0.631958 0.023829 0.895061 . .
H43_4 H 0.563677 0.203521 0.816982 . .
H44_4 H 0.545404 0.075756 0.98626 . .
H45_4 H 0.53357 0.0904832 0.777067 . .
H46_4 H 0.512001 0.135814 0.891991 . .
H47_4 H 0.552247 0.0103174 0.781838 . .
H48_4 H 0.659084 0.200899 0.687469 . .
H49_4 H 0.604701 0.280265 0.908513 . .
H50_4 H 0.568567 0.166668 0.752851 . .
H51_4 H 0.610162 0.191465 0.921136 . .
H52_4 H 0.600863 0.0925608 0.864574 . .
H53_4 H 0.575341 0.101142 0.924718 . .
H54_4 H 0.682286 0.189254 0.749541 . .
H55_4 H 0.523595 0.0369409 0.751239 . .
H56_4 H 0.574904 0.258419 0.841892 . .
H57_4 H 0.592588 0.207545 0.688075 . .
H59_4 H 0.647859 0.166515 0.812005 . .
H60_4 H 0.462461 0.0551762 0.91318 . .
H61_4 H 0.43057 0.0545485 0.882737 . .
H62_4 H 0.471833 0.0876217 0.877674 . .
H64_4 H 0.707696 0.304781 0.974572 . .
H65_4 H 0.672864 0.308901 0.986658 . .
H66_4 H 0.77642 0.200236 0.8896 . .
H67_4 H 0.709521 0.178668 0.774676 . .
H68_4 H 0.752031 0.276829 0.74553 . .
H69_4 H 0.841635 0.26753 0.802093 . .
H70_4 H 0.807532 0.242008 0.741948 . .
H71_4 H 0.735232 0.235233 0.913816 . .
H72_4 H 0.69349 0.230344 0.849685 . .
H73_4 H 0.954564 0.425275 0.707008 . .
H74_4 H 0.814677 0.314526 0.854662 . .
H76_4 H 0.812526 0.319363 0.643019 . .
H77_4 H 0.955461 0.299487 0.650556 . .
H79_4 H 0.754518 0.278938 0.652137 . .
H80_4 H 0.916902 0.316691 0.539573 . .
H81_4 H 0.933403 0.275072 0.542926 . .
H82_4 H 0.875263 0.218913 0.884828 . .
H83_4 H 0.65777 0.271368 0.758153 . .
H84_4 H 0.649819 0.241571 0.824774 . .
H85_4 H 0.952372 0.335594 0.703071 . .
H86_4 H 0.848907 0.270513 0.636054 . .
H87_4 H 0.74904 0.162153 0.663246 . .
H88_4 H 0.939551 0.46906 0.678996 . .
H89_4 H 0.802981 0.21207 0.680406 . .
H90_4 H 0.742822 0.246568 0.995145 . .
H91_4 H 0.819988 0.190262 0.915427 . .
H92_4 H 0.826365 0.348953 0.917126 . .
H93_4 H 0.791518 0.32575 0.979198 . .
H95_4 H 0.816616 0.270261 0.536064 . .
H97_4 H 0.907017 0.229043 0.594641 . .
H98_4 H 0.725905 0.232412 0.602223 . .
O24_4 O 0.558990 0.988025 0.862597 0.0127 Uiso
H41_4 H 0.596812 0.996591 0.924729 . .
O24_5 O 0.011975 0.570965 0.862597 0.0127 Uiso
H41_5 H 0.00340865 0.60022 0.924729 . .
N26_5 N 0.866185 0.537492 0.021554 0.0127 Uiso
Fe7_5 Fe 0.868275 0.534942 0.083334 0.0063 Uiso
H58_5 H 0.920221 0.415707 0.003421 . .
H63_5 H 0.720971 0.400078 0.0126765 . .
Nb1_5 Nb 0.654543 0.521683 0.746444 0.0063 Uiso
C1_5 C 0.693119 0.516420 0.774119 0.0127 Uiso
C2_5 C 0.632893 0.553047 0.743536 0.0127 Uiso
C3_5 C 0.660528 0.530231 0.680520 0.0127 Uiso
C4_5 C 0.605415 0.492488 0.719243 0.0127 Uiso
C5_5 C 0.622984 0.486016 0.791863 0.0127 Uiso
C6_5 C 0.654666 0.478599 0.720464 0.0127 Uiso
C7_5 C 0.698971 0.569077 0.734537 0.0127 Uiso
C8_5 C 0.665055 0.547565 0.806036 0.0127 Uiso
N1_5 N 0.714552 0.514676 0.790420 0.0127 Uiso
N2_5 N 0.621819 0.570303 0.743611 0.0127 Uiso
N3_5 N 0.662026 0.532852 0.645113 0.0127 Uiso
N4_5 N 0.578957 0.477492 0.706201 0.0127 Uiso
N5_4 N 0.604690 0.466468 0.814330 0.0127 Uiso
N6_5 N 0.654850 0.456148 0.706430 0.0127 Uiso
N7_5 N 0.722056 0.593784 0.726911 0.0127 Uiso
N8_5 N 0.670844 0.561514 0.836951 0.0127 Uiso
Fe1_5 Fe 0.757278 0.522406 0.821719 0.0063 Uiso
Fe2_6 Fe 0.595752 0.595753 0.750000 0.0063 Uiso
Fe3_5 Fe 0.666666 0.534942 0.583334 0.0063 Uiso
N9_5 N 0.727187 0.501531 0.880189 0.0127 Uiso
N10_5 N 0.765732 0.571750 0.844485 0.0127 Uiso
N11_5 N 0.787391 0.546385 0.762700 0.0127 Uiso
N12_5 N 0.747202 0.472320 0.799316 0.0127 Uiso
N13_5 N 0.557748 0.563104 0.702265 0.0127 Uiso
N14_5 N 0.628742 0.631649 0.701935 0.0127 Uiso
N15_5 N 0.703205 0.584847 0.587439 0.0127 Uiso
N16_5 N 0.702777 0.520824 0.588951 0.0127 Uiso
C9_5 C 0.739396 0.494967 0.914527 0.0127 Uiso
C10_5 C 0.696009 0.495165 0.881730 0.0127 Uiso
C11_5 C 0.749663 0.586442 0.827284 0.0127 Uiso
C12_5 C 0.786742 0.587516 0.875486 0.0127 Uiso
C13_5 C 0.813776 0.544128 0.753906 0.0127 Uiso
C14_5 C 0.779650 0.563410 0.735162 0.0127 Uiso
C15_5 C 0.730982 0.460474 0.763087 0.0127 Uiso
C16_5 C 0.756674 0.453742 0.820639 0.0127 Uiso
C17_5 C 0.557209 0.534800 0.692049 0.0127 Uiso
C18_5 C 0.536193 0.569664 0.683744 0.0127 Uiso
C19_5 C 0.620641 0.652556 0.684381 0.0127 Uiso
C20_5 C 0.657312 0.633513 0.689222 0.0127 Uiso
C21_5 C 0.728398 0.596089 0.615281 0.0127 Uiso
C22_5 C 0.703023 0.608150 0.562181 0.0127 Uiso
C23_5 C 0.727829 0.530622 0.561848 0.0127 Uiso
C24_5 C 0.700778 0.501152 0.621036 0.0127 Uiso
C25_5 C 0.721400 0.482178 0.950615 0.0127 Uiso
C26_5 C 0.676362 0.482266 0.917053 0.0127 Uiso
C27_5 C 0.754679 0.616596 0.841057 0.0127 Uiso
C28_5 C 0.792454 0.617811 0.890199 0.0127 Uiso
C29_5 C 0.832213 0.558685 0.718007 0.0127 Uiso
C30_5 C 0.796116 0.577801 0.700537 0.0127 Uiso
C31_5 C 0.724297 0.430382 0.748291 0.0127 Uiso
C32_5 C 0.750385 0.422546 0.806703 0.0127 Uiso
C33_5 C 0.535329 0.512283 0.663289 0.0127 Uiso
C34_5 C 0.513725 0.548048 0.654726 0.0127 Uiso
C35_5 C 0.639698 0.675323 0.654621 0.0127 Uiso
C36_5 C 0.677874 0.655470 0.659688 0.0127 Uiso
C37_5 C 0.752408 0.628669 0.618277 0.0127 Uiso
C38_5 C 0.726343 0.640915 0.563876 0.0127 Uiso
C39_5 C 0.750928 0.520944 0.566473 0.0127 Uiso
C40_5 C 0.723300 0.491308 0.626195 0.0127 Uiso
O1_5 O 0.733977 0.475598 0.985272 0.0127 Uiso
C41_5 C 0.689204 0.475775 0.951589 0.0127 Uiso
O2_5 O 0.736623 0.628218 0.820537 0.0127 Uiso
C42_5 C 0.776725 0.632610 0.873442 0.0127 Uiso
O3_5 O 0.858857 0.555819 0.710187 0.0127 Uiso
C43_5 C 0.823563 0.575638 0.691014 0.0127 Uiso
O4_5 O 0.706371 0.419813 0.708153 0.0127 Uiso
C44_5 C 0.733939 0.410350 0.769943 0.0127 Uiso
O5_5 O 0.535495 0.484126 0.653811 0.0127 Uiso
C45_5 C 0.513004 0.519634 0.644317 0.0127 Uiso
O6_5 O 0.629961 0.696274 0.637615 0.0127 Uiso
C46_5 C 0.668856 0.676955 0.641900 0.0127 Uiso
O7_5 O 0.777109 0.636889 0.648514 0.0127 Uiso
C47_5 C 0.752066 0.652038 0.592623 0.0127 Uiso
O8_5 O 0.776562 0.531975 0.537120 0.0127 Uiso
C48_5 C 0.749286 0.501186 0.598519 0.0127 Uiso
C49_5 C 0.747133 0.652599 0.796594 0.0127 Uiso
C50_5 C 0.885817 0.578346 0.735934 0.0127 Uiso
C51_5 C 0.671782 0.400795 0.716532 0.0127 Uiso
C52_5 C 0.779747 0.657958 0.681922 0.0127 Uiso
C53_5 C 0.805928 0.560886 0.546607 0.0127 Uiso
O9_5 O 0.774343 0.678642 0.804070 0.0127 Uiso
C54_5 C 0.725455 0.647828 0.760736 0.0127 Uiso
O10_5 O 0.913996 0.582221 0.730942 0.0127 Uiso
C55_5 C 0.879876 0.596347 0.767510 0.0127 Uiso
O11_5 O 0.658459 0.404004 0.747438 0.0127 Uiso
C56_5 C 0.651546 0.375142 0.683216 0.0127 Uiso
O12_5 O 0.753956 0.665086 0.690345 0.0127 Uiso
C57_5 C 0.809701 0.672642 0.708246 0.0127 Uiso
O13_5 O 0.806726 0.583001 0.565688 0.0127 Uiso
C58_5 C 0.839365 0.564349 0.531412 0.0127 Uiso
Fe4_4 Fe 0.568206 0.423945 0.844948 0.0063 Uiso
N17_5 N 0.799801 0.528444 0.852337 0.0127 Uiso
N18_5 N 0.563104 0.557748 0.797735 0.0127 Uiso
N19_5 N 0.631649 0.628742 0.798065 0.0127 Uiso
N20_5 N 0.570303 0.621819 0.756389 0.0127 Uiso
N21_5 N 0.630128 0.548308 0.579228 0.0127 Uiso
N22_5 N 0.630556 0.484713 0.577716 0.0127 Uiso
N23_5 N 0.671307 0.537492 0.521554 0.0127 Uiso
C59_5 C 0.819349 0.529698 0.874804 0.0127 Uiso
C60_5 C 0.534800 0.557209 0.807951 0.0127 Uiso
C61_5 C 0.569664 0.536193 0.816256 0.0127 Uiso
C62_5 C 0.652556 0.620641 0.815619 0.0127 Uiso
C63_5 C 0.633513 0.657312 0.810778 0.0127 Uiso
C64_5 C 0.604935 0.534357 0.551386 0.0127 Uiso
C65_5 C 0.630310 0.571793 0.604486 0.0127 Uiso
C66_5 C 0.605504 0.469459 0.604819 0.0127 Uiso
C67_5 C 0.632555 0.467040 0.545631 0.0127 Uiso
Nb2_5 Nb 0.855016 0.533806 0.920223 0.0063 Uiso
C68_5 C 0.512283 0.535329 0.836711 0.0127 Uiso
C69_5 C 0.548048 0.513725 0.845274 0.0127 Uiso
C70_5 C 0.675323 0.639698 0.845379 0.0127 Uiso
C71_5 C 0.655470 0.677874 0.840312 0.0127 Uiso
C72_5 C 0.580925 0.542927 0.548390 0.0127 Uiso
C73_5 C 0.606990 0.581238 0.602791 0.0127 Uiso
C74_5 C 0.582405 0.436682 0.600194 0.0127 Uiso
C75_5 C 0.610033 0.434674 0.540472 0.0127 Uiso
C76_5 C 0.849753 0.489967 0.892548 0.0127 Uiso
C77_5 C 0.886380 0.586820 0.923131 0.0127 Uiso
C78_5 C 0.863564 0.536369 0.986147 0.0127 Uiso
C79_5 C 0.825821 0.553739 0.947424 0.0127 Uiso
C80_5 C 0.811932 0.490599 0.946203 0.0127 Uiso
C81_5 C 0.902410 0.536772 0.932130 0.0127 Uiso
C82_5 C 0.880898 0.549176 0.860631 0.0127 Uiso
O14_5 O 0.484126 0.535495 0.846189 0.0127 Uiso
C83_5 C 0.519634 0.513004 0.855683 0.0127 Uiso
O15_5 O 0.696274 0.629961 0.862385 0.0127 Uiso
C84_5 C 0.676955 0.668856 0.858100 0.0127 Uiso
O16_5 O 0.556224 0.526446 0.518153 0.0127 Uiso
C85_5 C 0.581267 0.566638 0.574044 0.0127 Uiso
O17_5 O 0.556771 0.422079 0.629547 0.0127 Uiso
C86_5 C 0.584047 0.418566 0.568148 0.0127 Uiso
N24_5 N 0.848009 0.466790 0.876247 0.0127 Uiso
N25_5 N 0.903636 0.615150 0.923056 0.0127 Uiso
N27_5 N 0.810825 0.565201 0.960466 0.0127 Uiso
N28_5 N 0.789481 0.467964 0.960237 0.0127 Uiso
N29_5 N 0.927117 0.538394 0.939756 0.0127 Uiso
N30_5 N 0.894847 0.557336 0.829716 0.0127 Uiso
C87_5 C 0.553586 0.544877 0.484745 0.0127 Uiso
C88_5 C 0.527405 0.421624 0.620060 0.0127 Uiso
Fe6_7 Fe 0.929086 0.666666 0.916666 0.0063 Uiso
O18_5 O 0.579377 0.577796 0.476322 0.0127 Uiso
C89_5 C 0.523632 0.529607 0.458421 0.0127 Uiso
O19_5 O 0.526607 0.442941 0.600979 0.0127 Uiso
C90_5 C 0.493968 0.391650 0.635255 0.0127 Uiso
N31_5 N 0.834864 0.441010 0.786478 0.0127 Uiso
N32_5 N 0.905083 0.472684 0.822182 0.0127 Uiso
N33_5 N 0.879718 0.425660 0.903967 0.0127 Uiso
N34_5 N 0.805653 0.391784 0.867351 0.0127 Uiso
C91_5 C 0.828300 0.422237 0.752140 0.0127 Uiso
C92_5 C 0.828498 0.465822 0.784937 0.0127 Uiso
C93_5 C 0.919775 0.503445 0.839383 0.0127 Uiso
C94_5 C 0.920849 0.467440 0.791181 0.0127 Uiso
C95_5 C 0.877461 0.397018 0.912761 0.0127 Uiso
C96_5 C 0.896743 0.450426 0.931505 0.0127 Uiso
C97_5 C 0.793807 0.396158 0.903580 0.0127 Uiso
C98_5 C 0.787075 0.363734 0.846028 0.0127 Uiso
C99_5 C 0.815511 0.427444 0.716052 0.0127 Uiso
C100_5 C 0.815599 0.472570 0.749614 0.0127 Uiso
C101_5 C 0.949929 0.528583 0.825610 0.0127 Uiso
C102_5 C 0.951144 0.492023 0.776468 0.0127 Uiso
C103_5 C 0.892018 0.393138 0.948660 0.0127 Uiso
C104_5 C 0.911134 0.448351 0.966130 0.0127 Uiso
C105_5 C 0.763715 0.372751 0.918376 0.0127 Uiso
C106_5 C 0.755879 0.338827 0.859964 0.0127 Uiso
O20_5 O 0.808931 0.408287 0.681395 0.0127 Uiso
C107_5 C 0.809108 0.453237 0.715078 0.0127 Uiso
O21_5 O 0.961551 0.558261 0.846130 0.0127 Uiso
C108_5 C 0.965943 0.522551 0.793225 0.0127 Uiso
O22_5 O 0.889152 0.363628 0.956480 0.0127 Uiso
C109_5 C 0.908971 0.418741 0.975653 0.0127 Uiso
O23_5 O 0.753146 0.380108 0.958514 0.0127 Uiso
C110_5 C 0.743683 0.343077 0.896724 0.0127 Uiso
C111_5 C 0.985932 0.572132 0.870073 0.0127 Uiso
C112_5 C 0.911679 0.359195 0.930733 0.0127 Uiso
C113_5 C 0.734128 0.395679 0.950135 0.0127 Uiso
C114_5 C 0.981161 0.589039 0.905931 0.0127 Uiso
O25_5 O 0.915554 0.334891 0.935725 0.0127 Uiso
C115_5 C 0.929680 0.383137 0.899157 0.0127 Uiso
O26_5 O 0.737337 0.412211 0.919229 0.0127 Uiso
C116_5 C 0.708475 0.390262 0.983451 0.0127 Uiso
H1_5 H 0.652697 0.479193 0.523647 . .
H2_5 H 0.8392 0.562804 0.497959 . .
H3_5 H 0.859762 0.58808 0.541223 . .
H4_5 H 0.842328 0.544564 0.544512 . .
H5_5 H 0.52929 0.574725 0.792992 . .
H6_5 H 0.603847 0.515574 0.530612 . .
H7_5 H 0.660469 0.357765 0.680008 . .
H8_5 H 0.625637 0.361885 0.692094 . .
H9_5 H 0.654226 0.387638 0.65399 . .
H10_5 H 0.701375 0.642838 0.771606 . .
H11_5 H 0.736522 0.670075 0.741938 . .
H12_5 H 0.722588 0.627075 0.742394 . .
H13_5 H 0.650025 0.583569 0.627094 . .
H14_5 H 0.8615 0.579045 0.788993 . .
H15_5 H 0.902763 0.612118 0.78393 . .
H16_5 H 0.870872 0.611491 0.753487 . .
H17_5 H 0.831356 0.687801 0.689405 . .
H18_5 H 0.807483 0.687873 0.731951 . .
H19_5 H 0.812231 0.65302 0.722685 . .
H20_5 H 0.592283 0.536119 0.808607 . .
H21_5 H 0.651573 0.597882 0.805959 . .
H22_5 H 0.616777 0.664406 0.796929 . .
H23_5 H 0.603595 0.483282 0.630602 . .
H24_5 H 0.565745 0.392571 0.564443 . .
H25_5 H 0.655975 0.700513 0.849444 . .
H26_5 H 0.554143 0.496474 0.859796 . .
H27_5 H 0.470491 0.53094 0.821004 . .
H28_5 H 0.694636 0.684331 0.881462 . .
H29_5 H 0.608405 0.60007 0.623741 . .
H30_5 H 0.612272 0.421185 0.51453 . .
H31_5 H 0.562376 0.573683 0.572026 . .
H32_5 H 0.502932 0.495416 0.878321 . .
H33_5 H 0.710014 0.628208 0.840337 . .
H34_5 H 0.494133 0.390271 0.668707 . .
H35_5 H 0.473572 0.394985 0.625443 . .
H36_5 H 0.491005 0.368903 0.622154 . .
H37_5 H 0.501977 0.523111 0.477261 . .
H38_5 H 0.52585 0.547056 0.434716 . .
H39_5 H 0.521102 0.507455 0.443982 . .
H40_5 H 0.960408 0.571154 0.924273 . .
H42_5 H 0.976171 0.608129 0.895061 . .
H43_5 H 0.796479 0.360157 0.816982 . .
H44_5 H 0.924244 0.469648 0.98626 . .
H45_5 H 0.909517 0.443087 0.777067 . .
H46_5 H 0.864186 0.376187 0.891991 . .
H47_5 H 0.989683 0.541929 0.781838 . .
H48_5 H 0.799101 0.458184 0.687469 . .
H49_5 H 0.719735 0.324437 0.908513 . .
H50_5 H 0.833332 0.401899 0.752851 . .
H51_5 H 0.808535 0.418697 0.921136 . .
H52_5 H 0.907439 0.508302 0.864574 . .
H53_5 H 0.898858 0.474199 0.924718 . .
H54_5 H 0.810746 0.493032 0.749541 . .
H55_5 H 0.963059 0.486654 0.751239 . .
H56_5 H 0.741581 0.316486 0.841892 . .
H57_5 H 0.792455 0.385043 0.688075 . .
H59_5 H 0.833485 0.481344 0.812005 . .
H60_5 H 0.944824 0.407285 0.91318 . .
H61_5 H 0.945451 0.376021 0.882737 . .
H62_5 H 0.912378 0.384211 0.877674 . .
H64_5 H 0.695219 0.402915 0.974572 . .
H65_5 H 0.691099 0.363963 0.986658 . .
H66_5 H 0.799764 0.576183 0.8896 . .
H67_5 H 0.821332 0.530853 0.774676 . .
H68_5 H 0.723171 0.475202 0.74553 . .
H69_5 H 0.73247 0.574106 0.802093 . .
H70_5 H 0.757992 0.565524 0.741948 . .
H71_5 H 0.764767 0.499999 0.913816 . .
H72_5 H 0.769656 0.463146 0.849685 . .
H73_5 H 0.574725 0.52929 0.707008 . .
H74_5 H 0.685474 0.500151 0.854662 . .
H75_5 H 0.536119 0.592283 0.691393 . .
H76_5 H 0.680637 0.493163 0.643019 . .
H77_5 H 0.700513 0.655975 0.650556 . .
H78_5 H 0.597882 0.651573 0.694041 . .
H79_5 H 0.721062 0.47558 0.652137 . .
H80_5 H 0.683309 0.600211 0.539573 . .
H81_5 H 0.724928 0.658331 0.542926 . .
H82_5 H 0.781087 0.656349 0.884828 . .
H83_5 H 0.728632 0.386402 0.758153 . .
H84_5 H 0.758429 0.408248 0.824774 . .
H85_5 H 0.664406 0.616777 0.703071 . .
H86_5 H 0.729487 0.578394 0.636054 . .
H87_5 H 0.837847 0.586887 0.663246 . .
H88_5 H 0.53094 0.470491 0.678996 . .
H89_5 H 0.78793 0.590911 0.680406 . .
H90_5 H 0.753432 0.496253 0.995145 . .
H91_5 H 0.809738 0.629726 0.915427 . .
H92_5 H 0.651047 0.477413 0.917126 . .
H93_5 H 0.67425 0.465767 0.979198 . .
H94_5 H 0.496474 0.554143 0.640204 . .
H95_5 H 0.729739 0.546354 0.536064 . .
H96_5 H 0.495416 0.502932 0.621679 . .
H97_5 H 0.770957 0.677974 0.594641 . .
H98_5 H 0.767588 0.493493 0.602223 . .
H99_5 H 0.628208 0.710014 0.659663 . .
H100_5 H 0.684331 0.694636 0.618538 . .
N26_6 N 0.462508 0.328693 0.021554 0.0127 Uiso
Fe7_6 Fe 0.465058 0.333334 0.083334 0.0063 Uiso
H58_6 H 0.584293 0.504514 0.003421 . .
H63_6 H 0.599922 0.320893 0.0126765 . .
Nb1_6 Nb 0.478317 0.132861 0.746444 0.0063 Uiso
C1_6 C 0.483580 0.176700 0.774119 0.0127 Uiso
C2_6 C 0.446953 0.079847 0.743536 0.0127 Uiso
C3_6 C 0.469769 0.130298 0.680520 0.0127 Uiso
C4_6 C 0.507512 0.112928 0.719243 0.0127 Uiso
C5_6 C 0.513984 0.136969 0.791863 0.0127 Uiso
C6_6 C 0.521401 0.176068 0.720464 0.0127 Uiso
C7_6 C 0.430923 0.129895 0.734537 0.0127 Uiso
C8_6 C 0.452435 0.117491 0.806036 0.0127 Uiso
N1_6 N 0.485324 0.199877 0.790420 0.0127 Uiso
N2_6 N 0.429697 0.051517 0.743611 0.0127 Uiso
N3_6 N 0.467148 0.129175 0.645113 0.0127 Uiso
N4_6 N 0.522508 0.101466 0.706201 0.0127 Uiso
N6_6 N 0.543852 0.198703 0.706430 0.0127 Uiso
N7_6 N 0.406216 0.128273 0.726911 0.0127 Uiso
N8_6 N 0.438486 0.109331 0.836951 0.0127 Uiso
Fe1_6 Fe 0.477594 0.234873 0.821719 0.0063 Uiso
Fe2_7 Fe 0.404247 -0.000000 0.750000 0.0063 Uiso
Fe3_6 Fe 0.465058 0.131725 0.583334 0.0063 Uiso
N9_6 N 0.498469 0.225657 0.880189 0.0127 Uiso
N10_6 N 0.428250 0.193983 0.844485 0.0127 Uiso
N11_6 N 0.453615 0.241007 0.762700 0.0127 Uiso
N12_6 N 0.527680 0.274883 0.799316 0.0127 Uiso
N15_6 N 0.415153 0.118359 0.587439 0.0127 Uiso
N16_6 N 0.479176 0.181954 0.588951 0.0127 Uiso
C9_6 C 0.505033 0.244430 0.914527 0.0127 Uiso
C10_6 C 0.504835 0.200845 0.881730 0.0127 Uiso
C11_6 C 0.413558 0.163222 0.827284 0.0127 Uiso
C12_6 C 0.412484 0.199227 0.875486 0.0127 Uiso
C13_6 C 0.455872 0.269649 0.753906 0.0127 Uiso
C14_6 C 0.436590 0.216241 0.735162 0.0127 Uiso
C15_6 C 0.539526 0.270509 0.763087 0.0127 Uiso
C16_6 C 0.546258 0.302933 0.820639 0.0127 Uiso
C17_6 C 0.465200 0.022410 0.692049 0.0127 Uiso
C20_6 C 0.366487 0.023800 0.689222 0.0127 Uiso
C21_6 C 0.403911 0.132310 0.615281 0.0127 Uiso
C22_6 C 0.391850 0.094874 0.562181 0.0127 Uiso
C23_6 C 0.469378 0.197208 0.561848 0.0127 Uiso
C24_6 C 0.498848 0.199627 0.621036 0.0127 Uiso
C25_6 C 0.517822 0.239223 0.950615 0.0127 Uiso
C26_6 C 0.517734 0.194097 0.917053 0.0127 Uiso
C27_6 C 0.383404 0.138084 0.841057 0.0127 Uiso
C28_6 C 0.382189 0.174644 0.890199 0.0127 Uiso
C29_6 C 0.441315 0.273529 0.718007 0.0127 Uiso
C30_6 C 0.422199 0.218316 0.700537 0.0127 Uiso
C31_6 C 0.569618 0.293916 0.748291 0.0127 Uiso
C32_6 C 0.577454 0.327840 0.806703 0.0127 Uiso
C33_6 C 0.487717 0.023047 0.663289 0.0127 Uiso
C36_6 C 0.344530 0.022405 0.659688 0.0127 Uiso
C37_6 C 0.371331 0.123740 0.618277 0.0127 Uiso
C38_6 C 0.359085 0.085429 0.563876 0.0127 Uiso
C39_6 C 0.479056 0.229985 0.566473 0.0127 Uiso
C40_6 C 0.508692 0.231993 0.626195 0.0127 Uiso
O1_6 O 0.524402 0.258380 0.985272 0.0127 Uiso
C41_6 C 0.524225 0.213430 0.951589 0.0127 Uiso
O2_6 O 0.371782 0.108406 0.820537 0.0127 Uiso
C42_6 C 0.367390 0.144116 0.873442 0.0127 Uiso
O3_6 O 0.444181 0.303039 0.710187 0.0127 Uiso
C43_6 C 0.424362 0.247926 0.691014 0.0127 Uiso
O4_6 O 0.580187 0.286559 0.708153 0.0127 Uiso
C44_6 C 0.589650 0.323590 0.769943 0.0127 Uiso
O5_6 O 0.515874 0.051370 0.653811 0.0127 Uiso
O7_6 O 0.363111 0.140221 0.648514 0.0127 Uiso
C47_6 C 0.347962 0.100029 0.592623 0.0127 Uiso
O8_6 O 0.468025 0.244588 0.537120 0.0127 Uiso
C48_6 C 0.498814 0.248101 0.598519 0.0127 Uiso
C49_6 C 0.347401 0.094535 0.796594 0.0127 Uiso
C50_6 C 0.421654 0.307472 0.735934 0.0127 Uiso
C51_6 C 0.599205 0.270988 0.716532 0.0127 Uiso
C52_6 C 0.342042 0.121790 0.681922 0.0127 Uiso
C53_6 C 0.439114 0.245043 0.546607 0.0127 Uiso
O9_6 O 0.321358 0.095702 0.804070 0.0127 Uiso
C54_6 C 0.352172 0.077628 0.760736 0.0127 Uiso
O10_6 O 0.417779 0.331776 0.730942 0.0127 Uiso
C55_6 C 0.403653 0.283530 0.767510 0.0127 Uiso
O11_6 O 0.595996 0.254456 0.747438 0.0127 Uiso
C56_6 C 0.624858 0.276405 0.683216 0.0127 Uiso
O12_6 O 0.334914 0.088871 0.690345 0.0127 Uiso
C57_6 C 0.327358 0.137060 0.708246 0.0127 Uiso
O13_6 O 0.416999 0.223726 0.565688 0.0127 Uiso
C58_6 C 0.435651 0.275017 0.531412 0.0127 Uiso
N17_6 N 0.471556 0.271357 0.852337 0.0127 Uiso
N18_6 N 0.442252 0.005355 0.797735 0.0127 Uiso
N19_6 N 0.371258 0.002906 0.798065 0.0127 Uiso
N21_6 N 0.451692 0.081820 0.579228 0.0127 Uiso
N22_6 N 0.515287 0.145843 0.577716 0.0127 Uiso
N23_6 N 0.462508 0.133815 0.521554 0.0127 Uiso
C59_6 C 0.470302 0.289651 0.874804 0.0127 Uiso
C61_6 C 0.463807 0.033470 0.816256 0.0127 Uiso
C62_6 C 0.379359 0.031914 0.815619 0.0127 Uiso
C64_6 C 0.465643 0.070578 0.551386 0.0127 Uiso
C65_6 C 0.428207 0.058517 0.604486 0.0127 Uiso
C66_6 C 0.530541 0.136045 0.604819 0.0127 Uiso
C67_6 C 0.532960 0.165515 0.545631 0.0127 Uiso
Nb2_6 Nb 0.466194 0.321210 0.920223 0.0063 Uiso
C69_6 C 0.486275 0.034322 0.845274 0.0127 Uiso
C70_6 C 0.360302 0.035624 0.845379 0.0127 Uiso
C72_6 C 0.457073 0.037998 0.548390 0.0127 Uiso
C73_6 C 0.418762 0.025752 0.602791 0.0127 Uiso
C74_6 C 0.563318 0.145723 0.600194 0.0127 Uiso
C75_6 C 0.565326 0.175359 0.540472 0.0127 Uiso
C76_6 C 0.510033 0.359786 0.892548 0.0127 Uiso
C77_6 C 0.413180 0.299560 0.923131 0.0127 Uiso
C78_6 C 0.463631 0.327195 0.986147 0.0127 Uiso
C79_6 C 0.446261 0.272082 0.947424 0.0127 Uiso
C80_6 C 0.509401 0.321333 0.946203 0.0127 Uiso
C81_6 C 0.463228 0.365638 0.932130 0.0127 Uiso
C82_6 C 0.450824 0.331722 0.860631 0.0127 Uiso
C83_6 C 0.486996 0.006629 0.855683 0.0127 Uiso
O15_6 O 0.370039 0.066312 0.862385 0.0127 Uiso
C84_6 C 0.331144 0.008098 0.858100 0.0127 Uiso
O16_6 O 0.473554 0.029778 0.518153 0.0127 Uiso
C85_6 C 0.433362 0.014629 0.574044 0.0127 Uiso
O17_6 O 0.577921 0.134692 0.629547 0.0127 Uiso
C86_6 C 0.581434 0.165481 0.568148 0.0127 Uiso
N24_6 N 0.533210 0.381219 0.876247 0.0127 Uiso
N25_6 N 0.384850 0.288486 0.923056 0.0127 Uiso
N27_6 N 0.434799 0.245624 0.960466 0.0127 Uiso
N28_6 N 0.532036 0.321517 0.960237 0.0127 Uiso
N29_6 N 0.461606 0.388723 0.939756 0.0127 Uiso
N30_6 N 0.442664 0.337511 0.829716 0.0127 Uiso
C87_6 C 0.455123 0.008709 0.484745 0.0127 Uiso
C88_6 C 0.578376 0.105781 0.620060 0.0127 Uiso
Fe6_8 Fe 0.333334 0.262419 0.916666 0.0063 Uiso
O18_6 O 0.422204 0.001581 0.476322 0.0127 Uiso
O19_6 O 0.557059 0.083666 0.600979 0.0127 Uiso
C90_6 C 0.608350 0.102318 0.635255 0.0127 Uiso
N31_6 N 0.558990 0.393854 0.786478 0.0127 Uiso
N32_6 N 0.527316 0.432399 0.822182 0.0127 Uiso
N33_6 N 0.574340 0.454058 0.903967 0.0127 Uiso
N34_6 N 0.608216 0.413869 0.867351 0.0127 Uiso
C91_6 C 0.577763 0.406063 0.752140 0.0127 Uiso
C92_6 C 0.534178 0.362676 0.784937 0.0127 Uiso
C93_6 C 0.496555 0.416330 0.839383 0.0127 Uiso
C94_6 C 0.532560 0.453409 0.791181 0.0127 Uiso
C95_6 C 0.602982 0.480443 0.912761 0.0127 Uiso
C96_6 C 0.549574 0.446317 0.931505 0.0127 Uiso
C97_6 C 0.603842 0.397649 0.903580 0.0127 Uiso
C98_6 C 0.636266 0.423341 0.846028 0.0127 Uiso
C99_6 C 0.572556 0.388067 0.716052 0.0127 Uiso
C100_6 C 0.527430 0.343029 0.749614 0.0127 Uiso
C101_6 C 0.471417 0.421346 0.825610 0.0127 Uiso
C102_6 C 0.507977 0.459121 0.776468 0.0127 Uiso
C103_6 C 0.606862 0.498880 0.948660 0.0127 Uiso
C104_6 C 0.551649 0.462783 0.966130 0.0127 Uiso
C105_6 C 0.627249 0.390964 0.918376 0.0127 Uiso
C106_6 C 0.661173 0.417052 0.859964 0.0127 Uiso
O20_6 O 0.591713 0.400644 0.681395 0.0127 Uiso
C107_6 C 0.546763 0.355871 0.715078 0.0127 Uiso
O21_6 O 0.441739 0.403290 0.846130 0.0127 Uiso
C108_6 C 0.477449 0.443392 0.793225 0.0127 Uiso
O22_6 O 0.636372 0.525524 0.956480 0.0127 Uiso
C109_6 C 0.581259 0.490230 0.975653 0.0127 Uiso
O23_6 O 0.619892 0.373038 0.958514 0.0127 Uiso
C110_6 C 0.656923 0.400606 0.896724 0.0127 Uiso
C111_6 C 0.427868 0.413800 0.870073 0.0127 Uiso
C112_6 C 0.640805 0.552484 0.930733 0.0127 Uiso
C113_6 C 0.604321 0.338449 0.950135 0.0127 Uiso
O24_6 O 0.429035 0.441010 0.862597 0.0127 Uiso
C114_6 C 0.410961 0.392122 0.905931 0.0127 Uiso
O25_6 O 0.665109 0.580663 0.935725 0.0127 Uiso
C115_6 C 0.616863 0.546543 0.899157 0.0127 Uiso
O26_6 O 0.587789 0.325126 0.919229 0.0127 Uiso
C116_6 C 0.609738 0.318213 0.983451 0.0127 Uiso
H1_6 H 0.520807 0.173504 0.523647 . .
H2_6 H 0.437196 0.276396 0.497959 . .
H3_6 H 0.41192 0.271682 0.541223 . .
H4_6 H 0.455436 0.297764 0.544512 . .
H6_6 H 0.484426 0.0882727 0.530612 . .
H7_6 H 0.642235 0.302704 0.680008 . .
H8_6 H 0.638115 0.263752 0.692094 . .
H9_6 H 0.612362 0.266588 0.65399 . .
H10_6 H 0.357162 0.0585375 0.771606 . .
H11_6 H 0.329925 0.0664464 0.741938 . .
H12_6 H 0.372925 0.0955131 0.742394 . .
H13_6 H 0.416431 0.0664558 0.627094 . .
H14_6 H 0.420955 0.282455 0.788993 . .
H15_6 H 0.387882 0.290645 0.78393 . .
H16_6 H 0.388509 0.259382 0.753487 . .
H17_6 H 0.312199 0.143555 0.689405 . .
H18_6 H 0.312127 0.11961 0.731951 . .
H19_6 H 0.34698 0.159211 0.722685 . .
H20_6 H 0.463881 0.0561647 0.808607 . .
H21_6 H 0.402118 0.0536904 0.805959 . .
H23_6 H 0.516718 0.120312 0.630602 . .
H24_6 H 0.607429 0.173174 0.564443 . .
H26_6 H 0.503526 0.0576686 0.859796 . .
H28_6 H 0.315669 0.0103042 0.881462 . .
H29_6 H 0.39993 0.00833517 0.623741 . .
H30_6 H 0.578815 0.191087 0.51453 . .
H32_6 H 0.504584 0.00751641 0.878321 . .
H33_6 H 0.371792 0.0818062 0.840337 . .
H34_6 H 0.609729 0.103863 0.668707 . .
H35_6 H 0.605015 0.0785868 0.625443 . .
H36_6 H 0.631097 0.122103 0.622154 . .
H39_6 H 0.492545 0.0136469 0.443982 . .
H40_6 H 0.428846 0.389255 0.924273 . .
H41_6 H 0.39978 0.403188 0.924729 . .
H42_6 H 0.391871 0.368042 0.895061 . .
H43_6 H 0.639843 0.436323 0.816982 . .
H44_6 H 0.530352 0.454596 0.98626 . .
H45_6 H 0.556913 0.46643 0.777067 . .
H46_6 H 0.623813 0.487999 0.891991 . .
H47_6 H 0.458071 0.447753 0.781838 . .
H48_6 H 0.541816 0.340916 0.687469 . .
H49_6 H 0.675563 0.395299 0.908513 . .
H50_6 H 0.598101 0.431433 0.752851 . .
H51_6 H 0.581303 0.389838 0.921136 . .
H52_6 H 0.491698 0.399137 0.864574 . .
H53_6 H 0.525801 0.424659 0.924718 . .
H54_6 H 0.506968 0.317714 0.749541 . .
H55_6 H 0.513346 0.476405 0.751239 . .
H56_6 H 0.683514 0.425096 0.841892 . .
H57_6 H 0.614957 0.407412 0.688075 . .
H59_6 H 0.518656 0.352141 0.812005 . .
H60_6 H 0.592715 0.537539 0.91318 . .
H61_6 H 0.623979 0.56943 0.882737 . .
H62_6 H 0.615789 0.528167 0.877674 . .
H64_6 H 0.597085 0.292304 0.974572 . .
H65_6 H 0.636037 0.327136 0.986658 . .
H66_6 H 0.423817 0.22358 0.8896 . .
H67_6 H 0.469147 0.290479 0.774676 . .
H68_6 H 0.524798 0.247969 0.74553 . .
H69_6 H 0.425894 0.158365 0.802093 . .
H70_6 H 0.434476 0.192468 0.741948 . .
H71_6 H 0.500001 0.264768 0.913816 . .
H72_6 H 0.536854 0.30651 0.849685 . .
H73_6 H 0.47071 0.0454356 0.707008 . .
H74_6 H 0.499849 0.185323 0.854662 . .
H76_6 H 0.506837 0.187474 0.643019 . .
H77_6 H 0.344025 0.0445389 0.650556 . .
H79_6 H 0.52442 0.245482 0.652137 . .
H80_6 H 0.399789 0.0830977 0.539573 . .
H81_6 H 0.341669 0.0665967 0.542926 . .
H82_6 H 0.343651 0.124737 0.884828 . .
H83_6 H 0.613598 0.34223 0.758153 . .
H84_6 H 0.591752 0.350181 0.824774 . .
H85_6 H 0.383223 0.0476285 0.703071 . .
H86_6 H 0.421606 0.151093 0.636054 . .
H87_6 H 0.413113 0.25096 0.663246 . .
H88_6 H 0.529509 0.0604491 0.678996 . .
H89_6 H 0.409089 0.197019 0.680406 . .
H90_6 H 0.503747 0.257178 0.995145 . .
H91_6 H 0.370274 0.180012 0.915427 . .
H92_6 H 0.522587 0.173635 0.917126 . .
H93_6 H 0.534233 0.208482 0.979198 . .
H95_6 H 0.453646 0.183384 0.536064 . .
H97_6 H 0.322026 0.0929832 0.594641 . .
H98_6 H 0.506507 0.274095 0.602223 . .
Fe2_8 Fe 0.404247 1.000000 0.750000 0.0063 Uiso
N13_6 N 0.436896 0.994645 0.702265 0.0127 Uiso
N14_6 N 0.368351 0.997094 0.701935 0.0127 Uiso
C18_6 C 0.430336 0.966530 0.683744 0.0127 Uiso
C19_6 C 0.347444 0.968086 0.684381 0.0127 Uiso
C34_6 C 0.451952 0.965678 0.654726 0.0127 Uiso
C35_6 C 0.324677 0.964376 0.654621 0.0127 Uiso
C45_6 C 0.480366 0.993371 0.644317 0.0127 Uiso
O6_6 O 0.303726 0.933688 0.637615 0.0127 Uiso
C46_6 C 0.323045 0.991902 0.641900 0.0127 Uiso
N20_6 N 0.378181 0.948483 0.756389 0.0127 Uiso
C60_6 C 0.442791 0.977590 0.807951 0.0127 Uiso
C63_6 C 0.342688 0.976200 0.810778 0.0127 Uiso
C68_6 C 0.464671 0.976953 0.836711 0.0127 Uiso
C71_6 C 0.322126 0.977595 0.840312 0.0127 Uiso
O14_6 O 0.464505 0.948630 0.846189 0.0127 Uiso
C89_6 C 0.470393 0.994025 0.458421 0.0127 Uiso
H5_6 H 0.425275 0.954564 0.792992 . .
H22_6 H 0.335594 0.952372 0.796929 . .
H25_6 H 0.299487 0.955461 0.849444 . .
H27_6 H 0.46906 0.939551 0.821004 . .
H31_6 H 0.426317 0.988693 0.572026 . .
H37_6 H 0.476889 0.978866 0.477261 . .
H38_6 H 0.452944 0.978794 0.434716 . .
H75_6 H 0.407717 0.943835 0.691393 . .
H78_6 H 0.348427 0.94631 0.694041 . .
H94_6 H 0.445857 0.942331 0.640204 . .
H96_6 H 0.497068 0.992484 0.621679 . .
H99_6 H 0.289986 0.918194 0.659663 . .
H100_6 H 0.305364 0.989696 0.618538 . .
Nb1_7 Nb 0.200473 0.012123 0.413110 0.0063 Uiso
C2_7 C 0.253487 0.033773 0.410202 0.0127 Uiso
C3_7 C 0.203036 0.006138 0.347186 0.0127 Uiso
C4_7 C 0.220406 0.061251 0.385909 0.0127 Uiso
C5_7 C 0.196365 0.043682 0.458529 0.0127 Uiso
C6_7 C 0.157266 0.012000 0.387130 0.0127 Uiso
C8_7 C 0.215843 0.001611 0.472702 0.0127 Uiso
N2_7 N 0.281817 0.044847 0.410277 0.0127 Uiso
N3_7 N 0.204159 0.004640 0.311779 0.0127 Uiso
N4_7 N 0.231868 0.087709 0.372867 0.0127 Uiso
N5_5 N 0.195111 0.061976 0.480996 0.0127 Uiso
N6_7 N 0.134631 0.011816 0.373096 0.0127 Uiso
Fe2_9 Fe 0.333334 0.070914 0.416666 0.0063 Uiso
Fe3_7 Fe 0.201609 0.000000 0.250000 0.0063 Uiso
N13_7 N 0.338689 0.108918 0.368931 0.0127 Uiso
N14_7 N 0.336240 0.037924 0.368601 0.0127 Uiso
C17_7 C 0.310924 0.109457 0.358715 0.0127 Uiso
C18_7 C 0.366804 0.130473 0.350410 0.0127 Uiso
C19_7 C 0.365248 0.046025 0.351047 0.0127 Uiso
C20_7 C 0.309534 0.009354 0.355888 0.0127 Uiso
C33_7 C 0.310287 0.131337 0.329955 0.0127 Uiso
C34_7 C 0.367656 0.152941 0.321392 0.0127 Uiso
C35_7 C 0.368958 0.026968 0.321287 0.0127 Uiso
O5_7 O 0.281964 0.131171 0.320477 0.0127 Uiso
C45_7 C 0.339963 0.153662 0.310983 0.0127 Uiso
O6_7 O 0.399646 0.036705 0.304281 0.0127 Uiso
O11_7 O 0.078878 0.008207 0.414104 0.0127 Uiso
C56_7 C 0.056929 0.015120 0.349882 0.0127 Uiso
Fe4_5 Fe 0.189072 0.098461 0.511615 0.0063 Uiso
N18_7 N 0.327978 0.103563 0.464402 0.0127 Uiso
N19_7 N 0.330427 0.035018 0.464732 0.0127 Uiso
N20_7 N 0.384850 0.096364 0.423056 0.0127 Uiso
N21_7 N 0.251513 0.036539 0.245895 0.0127 Uiso
N22_7 N 0.187490 0.036111 0.244383 0.0127 Uiso
C60_7 C 0.355743 0.131867 0.474618 0.0127 Uiso
C61_7 C 0.299863 0.097003 0.482923 0.0127 Uiso
C62_7 C 0.301419 0.014111 0.482286 0.0127 Uiso
C63_7 C 0.357133 0.033154 0.477445 0.0127 Uiso
C64_7 C 0.262755 0.061732 0.218053 0.0127 Uiso
C65_7 C 0.274816 0.036357 0.271153 0.0127 Uiso
C66_7 C 0.197288 0.061163 0.271486 0.0127 Uiso
C67_7 C 0.167818 0.034112 0.212298 0.0127 Uiso
C68_7 C 0.356380 0.154384 0.503378 0.0127 Uiso
C69_7 C 0.299011 0.118619 0.511941 0.0127 Uiso
C71_7 C 0.355738 0.011197 0.506979 0.0127 Uiso
C72_7 C 0.295335 0.085742 0.215057 0.0127 Uiso
C73_7 C 0.307581 0.059677 0.269458 0.0127 Uiso
C74_7 C 0.187610 0.084262 0.266861 0.0127 Uiso
C75_7 C 0.157974 0.056634 0.207139 0.0127 Uiso
O14_7 O 0.384703 0.182541 0.512856 0.0127 Uiso
C83_7 C 0.326704 0.147033 0.522350 0.0127 Uiso
O16_7 O 0.303555 0.110443 0.184820 0.0127 Uiso
C85_7 C 0.318704 0.085400 0.240711 0.0127 Uiso
O17_7 O 0.198641 0.109896 0.296214 0.0127 Uiso
C86_7 C 0.167852 0.082620 0.234815 0.0127 Uiso
C87_7 C 0.324624 0.113081 0.151412 0.0127 Uiso
C88_7 C 0.227552 0.139262 0.286727 0.0127 Uiso
O18_7 O 0.331752 0.087290 0.142989 0.0127 Uiso
C89_7 C 0.339308 0.143035 0.125088 0.0127 Uiso
O19_7 O 0.249667 0.140060 0.267646 0.0127 Uiso
C90_7 C 0.231015 0.172699 0.301922 0.0127 Uiso
H1_7 H 0.15983 0.01397 0.190314 . .
H5_7 H 0.378769 0.137377 0.459658 . .
H6_7 H 0.245061 0.0628199 0.197279 . .
H7_7 H 0.0306297 0.00619772 0.346675 . .
H8_7 H 0.0695814 0.0410294 0.358761 . .
H9_7 H 0.0667451 0.0124404 0.320657 . .
H13_7 H 0.266878 0.0166419 0.293761 . .
H20_7 H 0.277169 0.0743833 0.475274 . .
H21_7 H 0.279643 0.0150939 0.472626 . .
H22_7 H 0.380962 0.0498895 0.463596 . .
H23_7 H 0.213021 0.0630719 0.297269 . .
H24_7 H 0.16016 0.100922 0.23111 . .
H25_7 H 0.377872 0.010692 0.516111 . .
H26_7 H 0.275665 0.112524 0.526463 . .
H27_7 H 0.393782 0.196176 0.487671 . .
H29_7 H 0.324998 0.0582615 0.290408 . .
H30_7 H 0.142247 0.054395 0.181196 . .
H31_7 H 0.34464 0.10429 0.238693 . .
H32_7 H 0.325817 0.163734 0.544988 . .
H34_7 H 0.229471 0.172533 0.335374 . .
H35_7 H 0.254747 0.193095 0.29211 . .
H36_7 H 0.211231 0.175661 0.288821 . .
H37_7 H 0.354467 0.164689 0.143928 . .
H38_7 H 0.354539 0.140817 0.101383 . .
H39_7 H 0.319686 0.145564 0.110648 . .
H73_7 H 0.287898 0.0919415 0.373675 . .
H75_7 H 0.389498 0.130548 0.358059 . .
H78_7 H 0.387024 0.0687843 0.360708 . .
H85_7 H 0.285705 0.00226103 0.369737 . .
H88_7 H 0.272884 0.135727 0.345662 . .
H92_7 H 0.159699 0.0156194 0.583792 . .
H94_7 H 0.391002 0.170193 0.30687 . .
H96_7 H 0.34085 0.171251 0.288346 . .
H99_7 H 0.41514 0.0384586 0.326329 . .
C1_7 C 0.156634 0.973547 0.440785 0.0127 Uiso
C7_7 C 0.203439 0.967695 0.401203 0.0127 Uiso
N1_7 N 0.133457 0.952114 0.457086 0.0127 Uiso
N7_7 N 0.205061 0.944610 0.393577 0.0127 Uiso
N8_7 N 0.224003 0.995822 0.503617 0.0127 Uiso
Fe1_7 Fe 0.098461 0.909388 0.488385 0.0063 Uiso
Fe3_8 Fe 0.201609 1.000000 0.250000 0.0063 Uiso
N9_7 N 0.107677 0.939479 0.546855 0.0127 Uiso
N10_7 N 0.139351 0.900934 0.511151 0.0127 Uiso
N11_7 N 0.092327 0.879275 0.429366 0.0127 Uiso
N12_7 N 0.058451 0.919464 0.465982 0.0127 Uiso
N15_7 N 0.214975 0.963461 0.254105 0.0127 Uiso
N16_7 N 0.151380 0.963889 0.255617 0.0127 Uiso
C9_7 C 0.088904 0.927270 0.581193 0.0127 Uiso
C10_7 C 0.132489 0.970657 0.548396 0.0127 Uiso
C11_7 C 0.170112 0.917003 0.493950 0.0127 Uiso
C12_7 C 0.134107 0.879924 0.542152 0.0127 Uiso
C13_7 C 0.063685 0.852890 0.420572 0.0127 Uiso
C14_7 C 0.117093 0.887016 0.401828 0.0127 Uiso
C15_7 C 0.062825 0.935684 0.429753 0.0127 Uiso
C16_7 C 0.030401 0.909992 0.487305 0.0127 Uiso
C21_7 C 0.201024 0.938268 0.281947 0.0127 Uiso
C22_7 C 0.238460 0.963643 0.228847 0.0127 Uiso
C23_7 C 0.136126 0.938837 0.228514 0.0127 Uiso
C24_7 C 0.133707 0.965888 0.287702 0.0127 Uiso
C25_7 C 0.094111 0.945266 0.617281 0.0127 Uiso
C26_7 C 0.139237 0.990304 0.583719 0.0127 Uiso
C27_7 C 0.195250 0.911987 0.507723 0.0127 Uiso
C28_7 C 0.158690 0.874212 0.556865 0.0127 Uiso
C29_7 C 0.059805 0.834453 0.384673 0.0127 Uiso
C30_7 C 0.115018 0.870550 0.367203 0.0127 Uiso
C31_7 C 0.039418 0.942369 0.414957 0.0127 Uiso
C32_7 C 0.005494 0.916281 0.473369 0.0127 Uiso
C36_7 C 0.310929 0.988792 0.326354 0.0127 Uiso
C37_7 C 0.209594 0.914258 0.284943 0.0127 Uiso
C38_7 C 0.247905 0.940323 0.230542 0.0127 Uiso
C39_7 C 0.103349 0.915738 0.233139 0.0127 Uiso
C40_7 C 0.101341 0.943366 0.292861 0.0127 Uiso
O1_7 O 0.074954 0.932689 0.651938 0.0127 Uiso
C41_7 C 0.119904 0.977462 0.618255 0.0127 Uiso
O2_7 O 0.224928 0.930043 0.487203 0.0127 Uiso
C42_7 C 0.189218 0.889941 0.540108 0.0127 Uiso
O3_7 O 0.030295 0.807809 0.376853 0.0127 Uiso
C43_7 C 0.085408 0.843103 0.357680 0.0127 Uiso
O4_7 O 0.046775 0.960295 0.374819 0.0127 Uiso
C44_7 C 0.009744 0.932727 0.436609 0.0127 Uiso
C46_7 C 0.341432 0.997810 0.308566 0.0127 Uiso
O7_7 O 0.193113 0.889557 0.315180 0.0127 Uiso
C47_7 C 0.233305 0.914600 0.259289 0.0127 Uiso
O8_7 O 0.088746 0.890104 0.203786 0.0127 Uiso
C48_7 C 0.085233 0.917380 0.265185 0.0127 Uiso
C49_7 C 0.238799 0.919533 0.463260 0.0127 Uiso
C50_7 C 0.025862 0.780849 0.402600 0.0127 Uiso
C51_7 C 0.062346 0.994884 0.383198 0.0127 Uiso
C52_7 C 0.211544 0.886919 0.348588 0.0127 Uiso
C53_7 C 0.088291 0.860738 0.213273 0.0127 Uiso
O9_7 O 0.237632 0.892323 0.470736 0.0127 Uiso
C54_7 C 0.255706 0.941211 0.427402 0.0127 Uiso
O10_7 O 0.001558 0.752670 0.397608 0.0127 Uiso
C55_7 C 0.049804 0.786790 0.434176 0.0127 Uiso
O12_7 O 0.244463 0.912710 0.357011 0.0127 Uiso
C57_7 C 0.196274 0.856965 0.374912 0.0127 Uiso
O13_7 O 0.109608 0.859940 0.232354 0.0127 Uiso
C58_7 C 0.058317 0.827301 0.198078 0.0127 Uiso
N17_7 N 0.061976 0.866866 0.519004 0.0127 Uiso
N23_7 N 0.199518 0.995360 0.188221 0.0127 Uiso
C59_7 C 0.043682 0.847318 0.541471 0.0127 Uiso
Nb2_7 Nb 0.012123 0.811651 0.586890 0.0063 Uiso
C70_7 C 0.297709 0.991344 0.512046 0.0127 Uiso
C77_7 C 0.033773 0.780287 0.589798 0.0127 Uiso
C78_7 C 0.006138 0.803103 0.652814 0.0127 Uiso
C79_7 C 0.061251 0.840846 0.614091 0.0127 Uiso
C80_7 C 0.012000 0.854735 0.612870 0.0127 Uiso
C82_7 C 0.001611 0.785769 0.527298 0.0127 Uiso
O15_7 O 0.267021 0.970393 0.529052 0.0127 Uiso
C84_7 C 0.325235 0.989712 0.524767 0.0127 Uiso
N25_7 N 0.044847 0.763031 0.589723 0.0127 Uiso
N26_7 N 0.004640 0.800482 0.688221 0.0127 Uiso
N27_7 N 0.087709 0.855842 0.627133 0.0127 Uiso
N28_7 N 0.011816 0.877186 0.626904 0.0127 Uiso
Fe6_9 Fe 0.070914 0.737581 0.583333 0.0063 Uiso
Fe7_7 Fe -0.000000 0.798391 0.750000 0.0063 Uiso
O26_7 O 0.008207 0.929330 0.585896 0.0127 Uiso
C116_7 C 0.015120 0.958192 0.650118 0.0127 Uiso
H2_7 H 0.0569374 0.827467 0.164626 . .
H3_7 H 0.0616517 0.806905 0.20789 . .
H4_7 H 0.0355693 0.824339 0.211179 . .
H10_7 H 0.274796 0.965291 0.438273 . .
H11_7 H 0.266887 0.930145 0.408604 . .
H12_7 H 0.23782 0.944079 0.409061 . .
H14_7 H 0.050878 0.805166 0.455659 . .
H15_7 H 0.0426881 0.763903 0.450596 . .
H16_7 H 0.0739516 0.795794 0.420153 . .
H17_7 H 0.189778 0.835311 0.356072 . .
H18_7 H 0.213723 0.859183 0.398617 . .
H19_7 H 0.174122 0.854436 0.389352 . .
H28_7 H 0.323029 0.972031 0.548129 . .
H33_7 H 0.251527 0.956652 0.507004 . .
H54_7 H 0.0156194 0.855921 0.416208 . .
H63_7 H 0.0124404 0.945695 0.679343 . .
H64_7 H 0.0410294 0.971448 0.641239 . .
H65_7 H 0.00619772 0.975568 0.653325 . .
H66_7 H 0.109753 0.866903 0.556266 . .
H67_7 H 0.042854 0.845334 0.441342 . .
H68_7 H 0.085364 0.943495 0.412197 . .
H69_7 H 0.174969 0.934196 0.46876 . .
H70_7 H 0.140865 0.908675 0.408615 . .
H71_7 H 0.0685654 0.9019 0.580483 . .
H72_7 H 0.0268232 0.897011 0.516352 . .
H74_7 H 0.148011 0.981193 0.521328 . .
H76_7 H 0.14586 0.98603 0.309686 . .
H77_7 H 0.288794 0.966153 0.317222 . .
H79_7 H 0.0878518 0.945605 0.318804 . .
H80_7 H 0.250236 0.983358 0.206239 . .
H81_7 H 0.266737 0.941738 0.209592 . .
H82_7 H 0.208596 0.88558 0.551495 . .
H86_7 H 0.182241 0.93718 0.302721 . .
H87_7 H 0.0823735 0.82882 0.329912 . .
H89_7 H 0.136314 0.878737 0.347073 . .
H90_7 H 0.0761552 0.913235 0.661812 . .
H91_7 H 0.153321 0.856929 0.582094 . .
H93_7 H 0.124851 0.992417 0.645864 . .
H95_7 H 0.149949 0.936928 0.202731 . .
H97_7 H 0.24035 0.89571 0.261307 . .
H98_7 H 0.0592379 0.899078 0.26889 . .
H100_7 H 0.343638 0.982335 0.285205 . .
C76_7 C 0.973547 0.816914 0.559215 0.0127 Uiso
C81_7 C 0.967695 0.764257 0.598797 0.0127 Uiso
N24_7 N 0.952114 0.818658 0.542914 0.0127 Uiso
N29_7 N 0.944610 0.739550 0.606423 0.0127 Uiso
N30_7 N 0.995822 0.771820 0.496383 0.0127 Uiso
Fe5_3 Fe 0.909388 0.810928 0.511615 0.0063 Uiso
Fe7_8 Fe 1.000000 0.798391 0.750000 0.0063 Uiso
N31_7 N 0.939479 0.831803 0.453145 0.0127 Uiso
N32_7 N 0.900934 0.761584 0.488849 0.0127 Uiso
N33_7 N 0.879275 0.786949 0.570634 0.0127 Uiso
N34_7 N 0.919464 0.861014 0.534018 0.0127 Uiso
N35_3 N 0.866866 0.804889 0.480996 0.0127 Uiso
C91_7 C 0.927270 0.838367 0.418807 0.0127 Uiso
C92_7 C 0.970657 0.838169 0.451604 0.0127 Uiso
C93_7 C 0.917003 0.746892 0.506050 0.0127 Uiso
C94_7 C 0.879924 0.745818 0.457848 0.0127 Uiso
C95_7 C 0.852890 0.789206 0.579428 0.0127 Uiso
C96_7 C 0.887016 0.769924 0.598172 0.0127 Uiso
C97_7 C 0.935684 0.872860 0.570247 0.0127 Uiso
C98_7 C 0.909992 0.879592 0.512695 0.0127 Uiso
C99_7 C 0.945266 0.851156 0.382719 0.0127 Uiso
C100_7 C 0.990304 0.851068 0.416281 0.0127 Uiso
C101_7 C 0.911987 0.716738 0.492277 0.0127 Uiso
C102_7 C 0.874212 0.715523 0.443135 0.0127 Uiso
C103_7 C 0.834453 0.774649 0.615327 0.0127 Uiso
C104_7 C 0.870550 0.755533 0.632797 0.0127 Uiso
C105_7 C 0.942369 0.902952 0.585043 0.0127 Uiso
C106_7 C 0.916281 0.910788 0.526631 0.0127 Uiso
O20_7 O 0.932689 0.857736 0.348062 0.0127 Uiso
C107_7 C 0.977462 0.857559 0.381745 0.0127 Uiso
O21_7 O 0.930043 0.705116 0.512797 0.0127 Uiso
C108_7 C 0.889941 0.700724 0.459892 0.0127 Uiso
O22_7 O 0.807809 0.777515 0.623147 0.0127 Uiso
C109_7 C 0.843103 0.757696 0.642320 0.0127 Uiso
O23_7 O 0.960295 0.913521 0.625181 0.0127 Uiso
C110_7 C 0.932727 0.922984 0.563391 0.0127 Uiso
C111_7 C 0.919533 0.680735 0.536740 0.0127 Uiso
C112_7 C 0.780849 0.754988 0.597400 0.0127 Uiso
C113_7 C 0.994884 0.932539 0.616802 0.0127 Uiso
O24_7 O 0.892323 0.654692 0.529264 0.0127 Uiso
C114_7 C 0.941211 0.685506 0.572598 0.0127 Uiso
O25_7 O 0.752670 0.751113 0.602392 0.0127 Uiso
C115_7 C 0.786790 0.736987 0.565824 0.0127 Uiso
H40_7 H 0.944079 0.706258 0.590939 . .
H41_7 H 0.930145 0.663258 0.591396 . .
H42_7 H 0.965291 0.690496 0.561727 . .
H43_7 H 0.897011 0.870187 0.483648 . .
H44_7 H 0.878737 0.742423 0.652927 . .
H45_7 H 0.866903 0.75715 0.443734 . .
H46_7 H 0.845334 0.80248 0.558658 . .
H47_7 H 0.88558 0.676984 0.448505 . .
H48_7 H 0.992417 0.867566 0.354136 . .
H49_7 H 0.938035 0.946931 0.57518 . .
H50_7 H 0.9019 0.833335 0.419517 . .
H51_7 H 0.943495 0.858131 0.587803 . .
H52_7 H 0.934196 0.759227 0.53124 . .
H53_7 H 0.908675 0.767809 0.591385 . .
H55_7 H 0.856929 0.703608 0.417906 . .
H56_7 H 0.908238 0.925085 0.508559 . .
H57_7 H 0.925922 0.874212 0.354742 . .
H58_7 H 0.82882 0.746446 0.670088 . .
H59_7 H 0.981193 0.833182 0.478672 . .
H60_7 H 0.795794 0.721843 0.579847 . .
H61_7 H 0.763903 0.721215 0.549404 . .
H62_7 H 0.805166 0.754288 0.544341 . .
H83_7 H 0.991103 0.938035 0.42482 . .
H84_7 H 0.983152 0.908238 0.491441 . .
C1_8 C 0.026453 0.183086 0.440785 0.0127 Uiso
C7_8 C 0.032305 0.235743 0.401203 0.0127 Uiso
N1_8 N 0.047886 0.181342 0.457086 0.0127 Uiso
N7_8 N 0.055390 0.260450 0.393577 0.0127 Uiso
N8_8 N 0.004178 0.228180 0.503617 0.0127 Uiso
Fe1_8 Fe 0.090612 0.189072 0.488385 0.0063 Uiso
Fe3_9 Fe -0.000000 0.201608 0.250000 0.0063 Uiso
N9_8 N 0.060521 0.168197 0.546855 0.0127 Uiso
N10_8 N 0.099066 0.238416 0.511151 0.0127 Uiso
N11_8 N 0.120725 0.213051 0.429366 0.0127 Uiso
N12_8 N 0.080536 0.138986 0.465982 0.0127 Uiso
N15_8 N 0.036539 0.251513 0.254105 0.0127 Uiso
N16_8 N 0.036111 0.187490 0.255617 0.0127 Uiso
C9_8 C 0.072730 0.161633 0.581193 0.0127 Uiso
C10_8 C 0.029343 0.161831 0.548396 0.0127 Uiso
C11_8 C 0.082997 0.253108 0.493950 0.0127 Uiso
C12_8 C 0.120076 0.254182 0.542152 0.0127 Uiso
C13_8 C 0.147110 0.210794 0.420572 0.0127 Uiso
C14_8 C 0.112984 0.230076 0.401828 0.0127 Uiso
C15_8 C 0.064316 0.127140 0.429753 0.0127 Uiso
C16_8 C 0.090008 0.120408 0.487305 0.0127 Uiso
C21_8 C 0.061732 0.262755 0.281947 0.0127 Uiso
C22_8 C 0.036357 0.274816 0.228847 0.0127 Uiso
C23_8 C 0.061163 0.197288 0.228514 0.0127 Uiso
C24_8 C 0.034112 0.167818 0.287702 0.0127 Uiso
C25_8 C 0.054734 0.148844 0.617281 0.0127 Uiso
C26_8 C 0.009696 0.148932 0.583719 0.0127 Uiso
C27_8 C 0.088013 0.283262 0.507723 0.0127 Uiso
C28_8 C 0.125788 0.284477 0.556865 0.0127 Uiso
C29_8 C 0.165547 0.225351 0.384673 0.0127 Uiso
C30_8 C 0.129450 0.244467 0.367203 0.0127 Uiso
C31_8 C 0.057631 0.097048 0.414957 0.0127 Uiso
C32_8 C 0.083719 0.089212 0.473369 0.0127 Uiso
C36_8 C 0.011208 0.322136 0.326354 0.0127 Uiso
C37_8 C 0.085742 0.295335 0.284943 0.0127 Uiso
C38_8 C 0.059677 0.307581 0.230542 0.0127 Uiso
C39_8 C 0.084262 0.187610 0.233139 0.0127 Uiso
C40_8 C 0.056634 0.157974 0.292861 0.0127 Uiso
O1_8 O 0.067311 0.142264 0.651938 0.0127 Uiso
C41_8 C 0.022538 0.142441 0.618255 0.0127 Uiso
O2_8 O 0.069957 0.294884 0.487203 0.0127 Uiso
C42_8 C 0.110059 0.299276 0.540108 0.0127 Uiso
O3_8 O 0.192191 0.222485 0.376853 0.0127 Uiso
C43_8 C 0.156897 0.242304 0.357680 0.0127 Uiso
O4_8 O 0.039705 0.086479 0.374819 0.0127 Uiso
C44_8 C 0.067273 0.077016 0.436609 0.0127 Uiso
C46_8 C 0.002190 0.343621 0.308566 0.0127 Uiso
O7_8 O 0.110443 0.303555 0.315180 0.0127 Uiso
C47_8 C 0.085400 0.318704 0.259289 0.0127 Uiso
O8_8 O 0.109896 0.198641 0.203786 0.0127 Uiso
C48_8 C 0.082620 0.167852 0.265185 0.0127 Uiso
C49_8 C 0.080467 0.319265 0.463260 0.0127 Uiso
C50_8 C 0.219151 0.245012 0.402600 0.0127 Uiso
C51_8 C 0.005116 0.067461 0.383198 0.0127 Uiso
C52_8 C 0.113081 0.324624 0.348588 0.0127 Uiso
C53_8 C 0.139262 0.227552 0.213273 0.0127 Uiso
O9_8 O 0.107677 0.345308 0.470736 0.0127 Uiso
C54_8 C 0.058789 0.314494 0.427402 0.0127 Uiso
O10_8 O 0.247330 0.248887 0.397608 0.0127 Uiso
C55_8 C 0.213210 0.263013 0.434176 0.0127 Uiso
O12_8 O 0.087290 0.331752 0.357011 0.0127 Uiso
C57_8 C 0.143035 0.339308 0.374912 0.0127 Uiso
O13_8 O 0.140060 0.249667 0.232354 0.0127 Uiso
C58_8 C 0.172699 0.231015 0.198078 0.0127 Uiso
N17_8 N 0.133134 0.195111 0.519004 0.0127 Uiso
N23_8 N 0.004640 0.204159 0.188221 0.0127 Uiso
C59_8 C 0.152682 0.196365 0.541471 0.0127 Uiso
Nb2_8 Nb 0.188349 0.200473 0.586890 0.0063 Uiso
C70_8 C 0.008656 0.306365 0.512046 0.0127 Uiso
C76_8 C 0.183086 0.156634 0.559215 0.0127 Uiso
C77_8 C 0.219713 0.253487 0.589798 0.0127 Uiso
C78_8 C 0.196897 0.203036 0.652814 0.0127 Uiso
C79_8 C 0.159154 0.220406 0.614091 0.0127 Uiso
C80_8 C 0.145265 0.157266 0.612870 0.0127 Uiso
C81_8 C 0.235743 0.203439 0.598797 0.0127 Uiso
C82_8 C 0.214231 0.215843 0.527298 0.0127 Uiso
O15_8 O 0.029607 0.296628 0.529052 0.0127 Uiso
C84_8 C 0.010288 0.335523 0.524767 0.0127 Uiso
N24_8 N 0.181342 0.133457 0.542914 0.0127 Uiso
N25_8 N 0.236969 0.281817 0.589723 0.0127 Uiso
N26_8 N 0.199518 0.204159 0.688221 0.0127 Uiso
N27_8 N 0.144158 0.231868 0.627133 0.0127 Uiso
N28_8 N 0.122814 0.134631 0.626904 0.0127 Uiso
N29_8 N 0.260450 0.205061 0.606423 0.0127 Uiso
N30_8 N 0.228180 0.224003 0.496383 0.0127 Uiso
Fe6_10 Fe 0.262419 0.333333 0.583333 0.0063 Uiso
Fe7_9 Fe 0.201609 0.201608 0.750000 0.0063 Uiso
N31_8 N 0.168197 0.107677 0.453145 0.0127 Uiso
N32_8 N 0.238416 0.139351 0.488849 0.0127 Uiso
N33_8 N 0.213051 0.092327 0.570634 0.0127 Uiso
N34_8 N 0.138986 0.058451 0.534018 0.0127 Uiso
C91_8 C 0.161633 0.088904 0.418807 0.0127 Uiso
C92_8 C 0.161831 0.132489 0.451604 0.0127 Uiso
C93_8 C 0.253108 0.170112 0.506050 0.0127 Uiso
C94_8 C 0.254182 0.134107 0.457848 0.0127 Uiso
C95_8 C 0.210794 0.063685 0.579428 0.0127 Uiso
C96_8 C 0.230076 0.117093 0.598172 0.0127 Uiso
C97_8 C 0.127140 0.062825 0.570247 0.0127 Uiso
C98_8 C 0.120408 0.030401 0.512695 0.0127 Uiso
C99_8 C 0.148844 0.094111 0.382719 0.0127 Uiso
C100_8 C 0.148932 0.139237 0.416281 0.0127 Uiso
C101_8 C 0.283262 0.195250 0.492277 0.0127 Uiso
C102_8 C 0.284477 0.158690 0.443135 0.0127 Uiso
C103_8 C 0.225351 0.059805 0.615327 0.0127 Uiso
C104_8 C 0.244467 0.115018 0.632797 0.0127 Uiso
C105_8 C 0.097048 0.039418 0.585043 0.0127 Uiso
C106_8 C 0.089212 0.005494 0.526631 0.0127 Uiso
O20_8 O 0.142264 0.074954 0.348062 0.0127 Uiso
C107_8 C 0.142441 0.119904 0.381745 0.0127 Uiso
O21_8 O 0.294884 0.224928 0.512797 0.0127 Uiso
C108_8 C 0.299276 0.189218 0.459892 0.0127 Uiso
O22_8 O 0.222485 0.030295 0.623147 0.0127 Uiso
C109_8 C 0.242304 0.085408 0.642320 0.0127 Uiso
O23_8 O 0.086479 0.046775 0.625181 0.0127 Uiso
C110_8 C 0.077016 0.009744 0.563391 0.0127 Uiso
C111_8 C 0.319265 0.238799 0.536740 0.0127 Uiso
C112_8 C 0.245012 0.025862 0.597400 0.0127 Uiso
C113_8 C 0.067461 0.062346 0.616802 0.0127 Uiso
O24_8 O 0.345308 0.237632 0.529264 0.0127 Uiso
C114_8 C 0.314494 0.255706 0.572598 0.0127 Uiso
O25_8 O 0.248887 0.001558 0.602392 0.0127 Uiso
C115_8 C 0.263013 0.049804 0.565824 0.0127 Uiso
O26_8 O 0.070670 0.078878 0.585896 0.0127 Uiso
C116_8 C 0.041808 0.056929 0.650118 0.0127 Uiso
H2_8 H 0.172533 0.229471 0.164626 . .
H3_8 H 0.193095 0.254747 0.20789 . .
H4_8 H 0.175661 0.211231 0.211179 . .
H10_8 H 0.0347085 0.309504 0.438273 . .
H11_8 H 0.069855 0.336742 0.408604 . .
H12_8 H 0.0559212 0.293742 0.409061 . .
H14_8 H 0.194834 0.245712 0.455659 . .
H15_8 H 0.236097 0.278785 0.450596 . .
H16_8 H 0.204206 0.278157 0.420153 . .
H17_8 H 0.164689 0.354467 0.356072 . .
H18_8 H 0.140817 0.354539 0.398617 . .
H19_8 H 0.145564 0.319686 0.389352 . .
H28_8 H 0.027969 0.350998 0.548129 . .
H33_8 H 0.0433477 0.294875 0.507004 . .
H40_8 H 0.293742 0.23782 0.590939 . .
H41_8 H 0.336742 0.266887 0.591396 . .
H42_8 H 0.309504 0.274796 0.561727 . .
H43_8 H 0.129813 0.0268232 0.483648 . .
H44_8 H 0.257577 0.136314 0.652927 . .
H45_8 H 0.24285 0.109753 0.443734 . .
H46_8 H 0.19752 0.042854 0.558658 . .
H47_8 H 0.323016 0.208596 0.448505 . .
H48_8 H 0.132434 0.124851 0.354136 . .
H50_8 H 0.166665 0.0685654 0.419517 . .
H51_8 H 0.141869 0.085364 0.587803 . .
H52_8 H 0.240773 0.174969 0.53124 . .
H53_8 H 0.232191 0.140865 0.591385 . .
H54_8 H 0.144079 0.159699 0.416208 . .
H55_8 H 0.296392 0.153321 0.417906 . .
H57_8 H 0.125788 0.0517099 0.354742 . .
H58_8 H 0.253554 0.0823735 0.670088 . .
H59_8 H 0.166818 0.148011 0.478672 . .
H60_8 H 0.278157 0.0739516 0.579847 . .
H61_8 H 0.278785 0.0426881 0.549404 . .
H62_8 H 0.245712 0.050878 0.544341 . .
H63_8 H 0.0543047 0.0667451 0.679343 . .
H64_8 H 0.0285519 0.0695814 0.641239 . .
H65_8 H 0.024432 0.0306297 0.653325 . .
H66_8 H 0.133097 0.24285 0.556266 . .
H67_8 H 0.154666 0.19752 0.441342 . .
H68_8 H 0.0565047 0.141869 0.412197 . .
H69_8 H 0.0658037 0.240773 0.46876 . .
H70_8 H 0.0913254 0.232191 0.408615 . .
H71_8 H 0.0980999 0.166665 0.580483 . .
H72_8 H 0.102989 0.129813 0.516352 . .
H74_8 H 0.0188073 0.166818 0.521328 . .
H76_8 H 0.01397 0.15983 0.309686 . .
H77_8 H 0.0338468 0.322641 0.317222 . .
H79_8 H 0.054395 0.142247 0.318804 . .
H80_8 H 0.0166419 0.266878 0.206239 . .
H81_8 H 0.0582615 0.324998 0.209592 . .
H82_8 H 0.11442 0.323016 0.551495 . .
H83_8 H 0.0619653 0.0530687 0.42482 . .
H84_8 H 0.0917624 0.0749147 0.491441 . .
H86_8 H 0.0628199 0.245061 0.302721 . .
H87_8 H 0.17118 0.253554 0.329912 . .
H89_8 H 0.121263 0.257577 0.347073 . .
H90_8 H 0.0867649 0.16292 0.661812 . .
H91_8 H 0.143071 0.296392 0.582094 . .
H93_8 H 0.00758289 0.132434 0.645864 . .
H95_8 H 0.0630719 0.213021 0.202731 . .
H97_8 H 0.10429 0.34464 0.261307 . .
H98_8 H 0.100922 0.16016 0.26889 . .
H100_8 H 0.0176648 0.361302 0.285205 . .
H49_8 H 0.0530687 0.991103 0.57518 . .
H56_8 H 0.0749147 0.983152 0.508559 . .
Nb1_8 Nb 0.987877 0.188349 0.413110 0.0063 Uiso
C2_8 C 0.966227 0.219713 0.410202 0.0127 Uiso
C3_8 C 0.993862 0.196897 0.347186 0.0127 Uiso
C4_8 C 0.938749 0.159154 0.385909 0.0127 Uiso
C5_8 C 0.956318 0.152682 0.458529 0.0127 Uiso
C6_8 C 0.988000 0.145265 0.387130 0.0127 Uiso
C8_8 C 0.998389 0.214231 0.472702 0.0127 Uiso
N2_8 N 0.955153 0.236969 0.410277 0.0127 Uiso
N3_8 N 0.995360 0.199518 0.311779 0.0127 Uiso
N4_8 N 0.912291 0.144158 0.372867 0.0127 Uiso
N5_6 N 0.938024 0.133134 0.480996 0.0127 Uiso
N6_8 N 0.988184 0.122814 0.373096 0.0127 Uiso
Fe2_10 Fe 0.929086 0.262419 0.416666 0.0063 Uiso
Fe3_10 Fe 1.000000 0.201608 0.250000 0.0063 Uiso
N13_8 N 0.891082 0.229770 0.368931 0.0127 Uiso
N14_8 N 0.962076 0.298315 0.368601 0.0127 Uiso
C17_8 C 0.890543 0.201466 0.358715 0.0127 Uiso
C18_8 C 0.869527 0.236330 0.350410 0.0127 Uiso
C19_8 C 0.953975 0.319222 0.351047 0.0127 Uiso
C20_8 C 0.990646 0.300179 0.355888 0.0127 Uiso
C33_8 C 0.868663 0.178949 0.329955 0.0127 Uiso
C34_8 C 0.847059 0.214714 0.321392 0.0127 Uiso
C35_8 C 0.973032 0.341989 0.321287 0.0127 Uiso
O5_8 O 0.868829 0.150792 0.320477 0.0127 Uiso
C45_8 C 0.846338 0.186300 0.310983 0.0127 Uiso
O6_8 O 0.963295 0.362940 0.304281 0.0127 Uiso
O11_8 O 0.991793 0.070670 0.414104 0.0127 Uiso
C56_8 C 0.984880 0.041808 0.349882 0.0127 Uiso
Fe4_6 Fe 0.901539 0.090612 0.511615 0.0063 Uiso
N18_8 N 0.896437 0.224415 0.464402 0.0127 Uiso
N19_8 N 0.964982 0.295409 0.464732 0.0127 Uiso
N20_8 N 0.903636 0.288486 0.423056 0.0127 Uiso
N21_8 N 0.963461 0.214975 0.245895 0.0127 Uiso
N22_8 N 0.963889 0.151380 0.244383 0.0127 Uiso
C60_8 C 0.868133 0.223876 0.474618 0.0127 Uiso
C61_8 C 0.902997 0.202860 0.482923 0.0127 Uiso
C62_8 C 0.985889 0.287308 0.482286 0.0127 Uiso
C63_8 C 0.966846 0.323979 0.477445 0.0127 Uiso
C64_8 C 0.938268 0.201024 0.218053 0.0127 Uiso
C65_8 C 0.963643 0.238460 0.271153 0.0127 Uiso
C66_8 C 0.938837 0.136126 0.271486 0.0127 Uiso
C67_8 C 0.965888 0.133707 0.212298 0.0127 Uiso
C68_8 C 0.845616 0.201996 0.503378 0.0127 Uiso
C69_8 C 0.881381 0.180392 0.511941 0.0127 Uiso
C71_8 C 0.988803 0.344541 0.506979 0.0127 Uiso
C72_8 C 0.914258 0.209594 0.215057 0.0127 Uiso
C73_8 C 0.940323 0.247905 0.269458 0.0127 Uiso
C74_8 C 0.915738 0.103349 0.266861 0.0127 Uiso
C75_8 C 0.943366 0.101341 0.207139 0.0127 Uiso
O14_8 O 0.817459 0.202162 0.512856 0.0127 Uiso
C83_8 C 0.852967 0.179671 0.522350 0.0127 Uiso
O16_8 O 0.889557 0.193113 0.184820 0.0127 Uiso
C85_8 C 0.914600 0.233305 0.240711 0.0127 Uiso
O17_8 O 0.890104 0.088746 0.296214 0.0127 Uiso
C86_8 C 0.917380 0.085233 0.234815 0.0127 Uiso
C87_8 C 0.886919 0.211544 0.151412 0.0127 Uiso
C88_8 C 0.860738 0.088291 0.286727 0.0127 Uiso
O18_8 O 0.912710 0.244463 0.142989 0.0127 Uiso
C89_8 C 0.856965 0.196274 0.125088 0.0127 Uiso
O19_8 O 0.859940 0.109608 0.267646 0.0127 Uiso
C90_8 C 0.827301 0.058317 0.301922 0.0127 Uiso
H1_8 H 0.98603 0.14586 0.190314 . .
H5_8 H 0.862623 0.241392 0.459658 . .
H6_8 H 0.93718 0.182241 0.197279 . .
H7_8 H 0.993802 0.024432 0.346675 . .
H8_8 H 0.958971 0.0285519 0.358761 . .
H9_8 H 0.98756 0.0543047 0.320657 . .
H13_8 H 0.983358 0.250236 0.293761 . .
H20_8 H 0.925617 0.202785 0.475274 . .
H21_8 H 0.984906 0.264549 0.472626 . .
H22_8 H 0.950111 0.331072 0.463596 . .
H23_8 H 0.936928 0.149949 0.297269 . .
H24_8 H 0.899078 0.0592379 0.23111 . .
H25_8 H 0.989308 0.36718 0.516111 . .
H26_8 H 0.887476 0.163141 0.526463 . .
H27_8 H 0.803824 0.197607 0.487671 . .
H29_8 H 0.941738 0.266737 0.290408 . .
H30_8 H 0.945605 0.0878518 0.181196 . .
H31_8 H 0.89571 0.24035 0.238693 . .
H32_8 H 0.836266 0.162082 0.544988 . .
H34_8 H 0.827467 0.0569374 0.335374 . .
H35_8 H 0.806905 0.0616517 0.29211 . .
H36_8 H 0.824339 0.0355693 0.288821 . .
H37_8 H 0.835311 0.189778 0.143928 . .
H38_8 H 0.859183 0.213723 0.101383 . .
H39_8 H 0.854436 0.174122 0.110648 . .
H73_8 H 0.908059 0.195956 0.373675 . .
H75_8 H 0.869452 0.25895 0.358059 . .
H78_8 H 0.931216 0.318239 0.360708 . .
H85_8 H 0.997739 0.283444 0.369737 . .
H88_8 H 0.864273 0.137157 0.345662 . .
H92_8 H 0.984381 0.144079 0.583792 . .
H94_8 H 0.829807 0.220809 0.30687 . .
H96_8 H 0.828749 0.169599 0.288346 . .
H99_8 H 0.961541 0.376681 0.326329 . .
H49_9 H 0.00889652 0.0619653 0.57518 . .
H56_9 H 0.0168477 0.0917624 0.508559 . .
C76_9 C 0.843366 0.026453 0.559215 0.0127 Uiso
C81_9 C 0.796561 0.032305 0.598797 0.0127 Uiso
N24_9 N 0.866543 0.047886 0.542914 0.0127 Uiso
N29_9 N 0.794939 0.055390 0.606423 0.0127 Uiso
N30_9 N 0.775997 0.004178 0.496383 0.0127 Uiso
Fe7_10 Fe 0.798392 0.000000 0.750000 0.0063 Uiso
N31_9 N 0.892323 0.060521 0.453145 0.0127 Uiso
N32_9 N 0.860649 0.099066 0.488849 0.0127 Uiso
N33_9 N 0.907673 0.120725 0.570634 0.0127 Uiso
N34_9 N 0.941549 0.080536 0.534018 0.0127 Uiso
C91_9 C 0.911096 0.072730 0.418807 0.0127 Uiso
C92_9 C 0.867511 0.029343 0.451604 0.0127 Uiso
C93_9 C 0.829888 0.082997 0.506050 0.0127 Uiso
C94_9 C 0.865893 0.120076 0.457848 0.0127 Uiso
C95_9 C 0.936315 0.147110 0.579428 0.0127 Uiso
C96_9 C 0.882907 0.112984 0.598172 0.0127 Uiso
C97_9 C 0.937175 0.064316 0.570247 0.0127 Uiso
C98_9 C 0.969599 0.090008 0.512695 0.0127 Uiso
C99_9 C 0.905889 0.054734 0.382719 0.0127 Uiso
C100_9 C 0.860763 0.009696 0.416281 0.0127 Uiso
C101_9 C 0.804750 0.088013 0.492277 0.0127 Uiso
C102_9 C 0.841310 0.125788 0.443135 0.0127 Uiso
C103_9 C 0.940195 0.165547 0.615327 0.0127 Uiso
C104_9 C 0.884982 0.129450 0.632797 0.0127 Uiso
C105_9 C 0.960582 0.057631 0.585043 0.0127 Uiso
C106_9 C 0.994506 0.083719 0.526631 0.0127 Uiso
O20_9 O 0.925046 0.067311 0.348062 0.0127 Uiso
C107_9 C 0.880096 0.022538 0.381745 0.0127 Uiso
O21_9 O 0.775072 0.069957 0.512797 0.0127 Uiso
C108_9 C 0.810782 0.110059 0.459892 0.0127 Uiso
O22_9 O 0.969705 0.192191 0.623147 0.0127 Uiso
C109_9 C 0.914592 0.156897 0.642320 0.0127 Uiso
O23_9 O 0.953225 0.039705 0.625181 0.0127 Uiso
C110_9 C 0.990256 0.067273 0.563391 0.0127 Uiso
C111_9 C 0.761201 0.080467 0.536740 0.0127 Uiso
C112_9 C 0.974138 0.219151 0.597400 0.0127 Uiso
C113_9 C 0.937654 0.005116 0.616802 0.0127 Uiso
O24_9 O 0.762368 0.107677 0.529264 0.0127 Uiso
C114_9 C 0.744294 0.058789 0.572598 0.0127 Uiso
O25_9 O 0.998442 0.247330 0.602392 0.0127 Uiso
C115_9 C 0.950196 0.213210 0.565824 0.0127 Uiso
H40_9 H 0.76218 0.0559212 0.590939 . .
H41_9 H 0.733113 0.069855 0.591396 . .
H42_9 H 0.725204 0.0347085 0.561727 . .
H43_9 H 0.973177 0.102989 0.483648 . .
H44_9 H 0.863686 0.121263 0.652927 . .
H45_9 H 0.890247 0.133097 0.443734 . .
H46_9 H 0.957146 0.154666 0.558658 . .
H47_9 H 0.791404 0.11442 0.448505 . .
H48_9 H 0.875149 0.00758289 0.354136 . .
H50_9 H 0.931435 0.0980999 0.419517 . .
H51_9 H 0.914636 0.0565047 0.587803 . .
H52_9 H 0.825031 0.0658037 0.53124 . .
H53_9 H 0.859135 0.0913254 0.591385 . .
H55_9 H 0.846679 0.143071 0.417906 . .
H57_9 H 0.94829 0.0740782 0.354742 . .
H58_9 H 0.917626 0.17118 0.670088 . .
H59_9 H 0.851989 0.0188073 0.478672 . .
H60_9 H 0.926048 0.204206 0.579847 . .
H61_9 H 0.957312 0.236097 0.549404 . .
H62_9 H 0.949122 0.194834 0.544341 . .
H83_9 H 0.946931 0.00889652 0.42482 . .
H84_9 H 0.925085 0.0168477 0.491441 . .
Nb1_9 Nb 0.811651 0.799527 0.413110 0.0063 Uiso
C1_9 C 0.816914 0.843366 0.440785 0.0127 Uiso
C2_9 C 0.780287 0.746513 0.410202 0.0127 Uiso
C3_9 C 0.803103 0.796964 0.347186 0.0127 Uiso
C4_9 C 0.840846 0.779594 0.385909 0.0127 Uiso
C5_9 C 0.847318 0.803635 0.458529 0.0127 Uiso
C6_9 C 0.854735 0.842734 0.387130 0.0127 Uiso
C7_9 C 0.764257 0.796561 0.401203 0.0127 Uiso
C8_9 C 0.785769 0.784157 0.472702 0.0127 Uiso
N1_9 N 0.818658 0.866543 0.457086 0.0127 Uiso
N2_9 N 0.763031 0.718183 0.410277 0.0127 Uiso
N3_9 N 0.800482 0.795841 0.311779 0.0127 Uiso
N4_9 N 0.855842 0.768132 0.372867 0.0127 Uiso
N6_9 N 0.877186 0.865369 0.373096 0.0127 Uiso
N7_9 N 0.739550 0.794939 0.393577 0.0127 Uiso
N8_9 N 0.771820 0.775997 0.503617 0.0127 Uiso
Fe1_9 Fe 0.810928 0.901539 0.488385 0.0063 Uiso
Fe2_11 Fe 0.737581 0.666666 0.416666 0.0063 Uiso
Fe3_11 Fe 0.798392 0.798391 0.250000 0.0063 Uiso
N9_9 N 0.831803 0.892323 0.546855 0.0127 Uiso
N10_9 N 0.761584 0.860649 0.511151 0.0127 Uiso
N11_9 N 0.786949 0.907673 0.429366 0.0127 Uiso
N12_9 N 0.861014 0.941549 0.465982 0.0127 Uiso
N13_9 N 0.770230 0.661311 0.368931 0.0127 Uiso
N14_9 N 0.701685 0.663760 0.368601 0.0127 Uiso
N15_9 N 0.748487 0.785025 0.254105 0.0127 Uiso
N16_9 N 0.812510 0.848620 0.255617 0.0127 Uiso
C9_9 C 0.838367 0.911096 0.581193 0.0127 Uiso
C10_9 C 0.838169 0.867511 0.548396 0.0127 Uiso
C11_9 C 0.746892 0.829888 0.493950 0.0127 Uiso
C12_9 C 0.745818 0.865893 0.542152 0.0127 Uiso
C13_9 C 0.789206 0.936315 0.420572 0.0127 Uiso
C14_9 C 0.769924 0.882907 0.401828 0.0127 Uiso
C15_9 C 0.872860 0.937175 0.429753 0.0127 Uiso
C16_9 C 0.879592 0.969599 0.487305 0.0127 Uiso
C17_9 C 0.798534 0.689076 0.358715 0.0127 Uiso
C18_9 C 0.763670 0.633196 0.350410 0.0127 Uiso
C19_9 C 0.680778 0.634752 0.351047 0.0127 Uiso
C20_9 C 0.699821 0.690466 0.355888 0.0127 Uiso
C21_9 C 0.737245 0.798976 0.281947 0.0127 Uiso
C22_9 C 0.725184 0.761540 0.228847 0.0127 Uiso
C23_9 C 0.802712 0.863874 0.228514 0.0127 Uiso
C24_9 C 0.832182 0.866293 0.287702 0.0127 Uiso
C25_9 C 0.851156 0.905889 0.617281 0.0127 Uiso
C26_9 C 0.851068 0.860763 0.583719 0.0127 Uiso
C27_9 C 0.716738 0.804750 0.507723 0.0127 Uiso
C28_9 C 0.715523 0.841310 0.556865 0.0127 Uiso
C29_9 C 0.774649 0.940195 0.384673 0.0127 Uiso
C30_9 C 0.755533 0.884982 0.367203 0.0127 Uiso
C31_9 C 0.902952 0.960582 0.414957 0.0127 Uiso
C32_9 C 0.910788 0.994506 0.473369 0.0127 Uiso
C33_9 C 0.821051 0.689713 0.329955 0.0127 Uiso
C34_9 C 0.785286 0.632344 0.321392 0.0127 Uiso
C35_9 C 0.658011 0.631042 0.321287 0.0127 Uiso
C36_9 C 0.677864 0.689071 0.326354 0.0127 Uiso
C37_9 C 0.704665 0.790406 0.284943 0.0127 Uiso
C38_9 C 0.692419 0.752095 0.230542 0.0127 Uiso
C39_9 C 0.812390 0.896651 0.233139 0.0127 Uiso
C40_9 C 0.842026 0.898659 0.292861 0.0127 Uiso
O1_9 O 0.857736 0.925046 0.651938 0.0127 Uiso
C41_9 C 0.857559 0.880096 0.618255 0.0127 Uiso
O2_9 O 0.705116 0.775072 0.487203 0.0127 Uiso
C42_9 C 0.700724 0.810782 0.540108 0.0127 Uiso
O3_9 O 0.777515 0.969705 0.376853 0.0127 Uiso
C43_9 C 0.757696 0.914592 0.357680 0.0127 Uiso
O4_9 O 0.913521 0.953225 0.374819 0.0127 Uiso
C44_9 C 0.922984 0.990256 0.436609 0.0127 Uiso
O5_9 O 0.849208 0.718036 0.320477 0.0127 Uiso
C45_9 C 0.813700 0.660037 0.310983 0.0127 Uiso
O6_9 O 0.637060 0.600354 0.304281 0.0127 Uiso
C46_9 C 0.656379 0.658568 0.308566 0.0127 Uiso
O7_9 O 0.696445 0.806887 0.315180 0.0127 Uiso
C47_9 C 0.681296 0.766695 0.259289 0.0127 Uiso
O8_9 O 0.801359 0.911254 0.203786 0.0127 Uiso
C48_9 C 0.832148 0.914767 0.265185 0.0127 Uiso
C49_9 C 0.680735 0.761201 0.463260 0.0127 Uiso
C50_9 C 0.754988 0.974138 0.402600 0.0127 Uiso
C51_9 C 0.932539 0.937654 0.383198 0.0127 Uiso
C52_9 C 0.675376 0.788456 0.348588 0.0127 Uiso
C53_9 C 0.772448 0.911709 0.213273 0.0127 Uiso
O9_9 O 0.654692 0.762368 0.470736 0.0127 Uiso
C54_9 C 0.685506 0.744294 0.427402 0.0127 Uiso
O10_9 O 0.751113 0.998442 0.397608 0.0127 Uiso
C55_9 C 0.736987 0.950196 0.434176 0.0127 Uiso
O11_9 O 0.929330 0.921122 0.414104 0.0127 Uiso
C56_9 C 0.958192 0.943071 0.349882 0.0127 Uiso
O12_9 O 0.668248 0.755537 0.357011 0.0127 Uiso
C57_9 C 0.660692 0.803726 0.374912 0.0127 Uiso
O13_9 O 0.750333 0.890392 0.232354 0.0127 Uiso
C58_9 C 0.768985 0.941683 0.198078 0.0127 Uiso
N17_9 N 0.804889 0.938024 0.519004 0.0127 Uiso
N18_9 N 0.775585 0.672022 0.464402 0.0127 Uiso
N19_9 N 0.704591 0.669573 0.464732 0.0127 Uiso
N20_9 N 0.711514 0.615150 0.423056 0.0127 Uiso
N21_9 N 0.785025 0.748487 0.245895 0.0127 Uiso
N22_9 N 0.848620 0.812510 0.244383 0.0127 Uiso
N23_9 N 0.795841 0.800482 0.188221 0.0127 Uiso
C59_9 C 0.803635 0.956318 0.541471 0.0127 Uiso
C60_9 C 0.776124 0.644257 0.474618 0.0127 Uiso
C61_9 C 0.797140 0.700137 0.482923 0.0127 Uiso
C62_9 C 0.712692 0.698581 0.482286 0.0127 Uiso
C63_9 C 0.676021 0.642867 0.477445 0.0127 Uiso
C64_9 C 0.798976 0.737245 0.218053 0.0127 Uiso
C65_9 C 0.761540 0.725184 0.271153 0.0127 Uiso
C66_9 C 0.863874 0.802712 0.271486 0.0127 Uiso
C67_9 C 0.866293 0.832182 0.212298 0.0127 Uiso
Nb2_9 Nb 0.799527 0.987877 0.586890 0.0063 Uiso
C68_9 C 0.798004 0.643620 0.503378 0.0127 Uiso
C69_9 C 0.819608 0.700989 0.511941 0.0127 Uiso
C70_9 C 0.693635 0.702291 0.512046 0.0127 Uiso
C71_9 C 0.655459 0.644262 0.506979 0.0127 Uiso
C72_9 C 0.790406 0.704665 0.215057 0.0127 Uiso
C73_9 C 0.752095 0.692419 0.269458 0.0127 Uiso
C74_9 C 0.896651 0.812390 0.266861 0.0127 Uiso
C75_9 C 0.898659 0.842026 0.207139 0.0127 Uiso
C77_9 C 0.746513 0.966227 0.589798 0.0127 Uiso
C78_9 C 0.796964 0.993862 0.652814 0.0127 Uiso
C79_9 C 0.779594 0.938749 0.614091 0.0127 Uiso
C80_9 C 0.842734 0.988000 0.612870 0.0127 Uiso
C82_9 C 0.784157 0.998389 0.527298 0.0127 Uiso
O14_9 O 0.797838 0.615297 0.512856 0.0127 Uiso
C83_9 C 0.820329 0.673296 0.522350 0.0127 Uiso
O15_9 O 0.703372 0.732979 0.529052 0.0127 Uiso
C84_9 C 0.664477 0.674765 0.524767 0.0127 Uiso
O16_9 O 0.806887 0.696445 0.184820 0.0127 Uiso
C85_9 C 0.766695 0.681296 0.240711 0.0127 Uiso
O17_9 O 0.911254 0.801359 0.296214 0.0127 Uiso
C86_9 C 0.914767 0.832148 0.234815 0.0127 Uiso
N25_9 N 0.718183 0.955153 0.589723 0.0127 Uiso
N26_9 N 0.795841 0.995360 0.688221 0.0127 Uiso
N27_9 N 0.768132 0.912291 0.627133 0.0127 Uiso
N28_9 N 0.865369 0.988184 0.626904 0.0127 Uiso
C87_9 C 0.788456 0.675376 0.151412 0.0127 Uiso
C88_9 C 0.911709 0.772448 0.286727 0.0127 Uiso
Fe6_11 Fe 0.666667 0.929086 0.583333 0.0063 Uiso
Fe7_11 Fe 0.798392 1.000000 0.750000 0.0063 Uiso
O18_9 O 0.755537 0.668248 0.142989 0.0127 Uiso
C89_9 C 0.803726 0.660692 0.125088 0.0127 Uiso
O19_9 O 0.890392 0.750333 0.267646 0.0127 Uiso
C90_9 C 0.941683 0.768985 0.301922 0.0127 Uiso
O26_9 O 0.921122 0.991793 0.585896 0.0127 Uiso
C116_9 C 0.943071 0.984880 0.650118 0.0127 Uiso
H1_9 H 0.85414 0.84017 0.190314 . .
H2_9 H 0.770529 0.943063 0.164626 . .
H3_9 H 0.745253 0.938348 0.20789 . .
H4_9 H 0.788769 0.964431 0.211179 . .
H5_9 H 0.758608 0.621231 0.459658 . .
H6_9 H 0.817759 0.754939 0.197279 . .
H7_9 H 0.975568 0.96937 0.346675 . .
H8_9 H 0.971448 0.930419 0.358761 . .
H9_9 H 0.945695 0.933255 0.320657 . .
H10_9 H 0.690496 0.725204 0.438273 . .
H11_9 H 0.663258 0.733113 0.408604 . .
H12_9 H 0.706258 0.76218 0.409061 . .
H13_9 H 0.749764 0.733122 0.293761 . .
H14_9 H 0.754288 0.949122 0.455659 . .
H15_9 H 0.721215 0.957312 0.450596 . .
H16_9 H 0.721843 0.926048 0.420153 . .
H17_9 H 0.645533 0.810222 0.356072 . .
H18_9 H 0.645461 0.786277 0.398617 . .
H19_9 H 0.680314 0.825878 0.389352 . .
H20_9 H 0.797215 0.722831 0.475274 . .
H21_9 H 0.735451 0.720357 0.472626 . .
H22_9 H 0.668928 0.619038 0.463596 . .
H23_9 H 0.850051 0.786979 0.297269 . .
H24_9 H 0.940762 0.83984 0.23111 . .
H25_9 H 0.63282 0.622128 0.516111 . .
H26_9 H 0.836859 0.724335 0.526463 . .
H27_9 H 0.802393 0.606218 0.487671 . .
H28_9 H 0.649002 0.676971 0.548129 . .
H29_9 H 0.733263 0.675002 0.290408 . .
H30_9 H 0.912148 0.857753 0.181196 . .
H31_9 H 0.75965 0.65536 0.238693 . .
H32_9 H 0.837918 0.674183 0.544988 . .
H33_9 H 0.705125 0.748473 0.507004 . .
H34_9 H 0.943063 0.770529 0.335374 . .
H35_9 H 0.938348 0.745253 0.29211 . .
H36_9 H 0.964431 0.788769 0.288821 . .
H37_9 H 0.810222 0.645533 0.143928 . .
H38_9 H 0.786277 0.645461 0.101383 . .
H39_9 H 0.825878 0.680314 0.110648 . .
H54_9 H 0.840301 0.984381 0.416208 . .
H63_9 H 0.933255 0.98756 0.679343 . .
H64_9 H 0.930419 0.958971 0.641239 . .
H65_9 H 0.96937 0.993802 0.653325 . .
H66_9 H 0.75715 0.890247 0.556266 . .
H67_9 H 0.80248 0.957146 0.441342 . .
H68_9 H 0.858131 0.914636 0.412197 . .
H69_9 H 0.759227 0.825031 0.46876 . .
H70_9 H 0.767809 0.859135 0.408615 . .
H71_9 H 0.833335 0.931435 0.580483 . .
H72_9 H 0.870187 0.973177 0.516352 . .
H73_9 H 0.804044 0.712102 0.373675 . .
H74_9 H 0.833182 0.851989 0.521328 . .
H75_9 H 0.74105 0.610502 0.358059 . .
H76_9 H 0.84017 0.85414 0.309686 . .
H77_9 H 0.677359 0.711206 0.317222 . .
H78_9 H 0.681761 0.612976 0.360708 . .
H79_9 H 0.857753 0.912148 0.318804 . .
H80_9 H 0.733122 0.749764 0.206239 . .
H81_9 H 0.675002 0.733263 0.209592 . .
H82_9 H 0.676984 0.791404 0.551495 . .
H85_9 H 0.716556 0.714295 0.369737 . .
H86_9 H 0.754939 0.817759 0.302721 . .
H87_9 H 0.746446 0.917626 0.329912 . .
H88_9 H 0.862843 0.727116 0.345662 . .
H89_9 H 0.742423 0.863686 0.347073 . .
H90_9 H 0.83708 0.923845 0.661812 . .
H91_9 H 0.703608 0.846679 0.582094 . .
H92_9 H 0.855921 0.840301 0.583792 . .
H93_9 H 0.867566 0.875149 0.645864 . .
H94_9 H 0.779191 0.608998 0.30687 . .
H95_9 H 0.786979 0.850051 0.202731 . .
H96_9 H 0.830401 0.65915 0.288346 . .
H97_9 H 0.65536 0.75965 0.261307 . .
H98_9 H 0.83984 0.940762 0.26889 . .
H99_9 H 0.623319 0.58486 0.326329 . .
H100_9 H 0.638698 0.656362 0.285205 . .
Nb1_10 Nb 0.678790 0.533806 0.420223 0.0063 Uiso
C1_10 C 0.640214 0.489967 0.392548 0.0127 Uiso
C2_10 C 0.700440 0.586820 0.423131 0.0127 Uiso
C3_10 C 0.672805 0.536369 0.486147 0.0127 Uiso
C4_10 C 0.727918 0.553739 0.447424 0.0127 Uiso
C5_10 C 0.710349 0.529698 0.374804 0.0127 Uiso
C6_10 C 0.678667 0.490599 0.446203 0.0127 Uiso
C7_10 C 0.634362 0.536772 0.432130 0.0127 Uiso
C8_10 C 0.668278 0.549176 0.360631 0.0127 Uiso
N1_10 N 0.618781 0.466790 0.376247 0.0127 Uiso
N4_10 N 0.754376 0.565201 0.460466 0.0127 Uiso
N5_7 N 0.728643 0.528444 0.352337 0.0127 Uiso
N6_10 N 0.678483 0.467964 0.460237 0.0127 Uiso
N7_10 N 0.611277 0.538394 0.439756 0.0127 Uiso
N8_10 N 0.662489 0.557336 0.329716 0.0127 Uiso
Fe1_10 Fe 0.576055 0.431794 0.344948 0.0063 Uiso
N9_10 N 0.606146 0.441010 0.286478 0.0127 Uiso
N10_10 N 0.567601 0.472684 0.322182 0.0127 Uiso
N11_10 N 0.545942 0.425660 0.403967 0.0127 Uiso
N12_10 N 0.586131 0.391784 0.367351 0.0127 Uiso
C9_10 C 0.593937 0.422237 0.252140 0.0127 Uiso
C10_10 C 0.637324 0.465822 0.284937 0.0127 Uiso
C11_10 C 0.583670 0.503445 0.339383 0.0127 Uiso
C12_10 C 0.546591 0.467440 0.291181 0.0127 Uiso
C13_10 C 0.519557 0.397018 0.412761 0.0127 Uiso
C14_10 C 0.553683 0.450426 0.431505 0.0127 Uiso
C15_10 C 0.602351 0.396158 0.403580 0.0127 Uiso
C16_10 C 0.576659 0.363734 0.346028 0.0127 Uiso
C25_10 C 0.611933 0.427444 0.216052 0.0127 Uiso
C26_10 C 0.656971 0.472570 0.249614 0.0127 Uiso
C27_10 C 0.578654 0.528583 0.325610 0.0127 Uiso
C28_10 C 0.540879 0.492023 0.276468 0.0127 Uiso
C29_10 C 0.501120 0.393138 0.448660 0.0127 Uiso
C30_10 C 0.537217 0.448351 0.466130 0.0127 Uiso
C31_10 C 0.609036 0.372751 0.418376 0.0127 Uiso
C32_10 C 0.582948 0.338827 0.359964 0.0127 Uiso
O1_10 O 0.599356 0.408287 0.181395 0.0127 Uiso
C41_10 C 0.644129 0.453237 0.215078 0.0127 Uiso
O2_10 O 0.596710 0.558261 0.346130 0.0127 Uiso
C42_10 C 0.556608 0.522551 0.293225 0.0127 Uiso
O3_10 O 0.474476 0.363628 0.456480 0.0127 Uiso
C43_10 C 0.509770 0.418741 0.475653 0.0127 Uiso
O4_10 O 0.626962 0.380108 0.458514 0.0127 Uiso
C44_10 C 0.599394 0.343077 0.396724 0.0127 Uiso
C49_10 C 0.586200 0.572132 0.370073 0.0127 Uiso
C50_10 C 0.447516 0.359195 0.430733 0.0127 Uiso
C51_10 C 0.661551 0.395679 0.450135 0.0127 Uiso
O9_10 O 0.558990 0.570965 0.362597 0.0127 Uiso
C54_10 C 0.607878 0.589039 0.405931 0.0127 Uiso
O10_10 O 0.419337 0.334891 0.435725 0.0127 Uiso
C55_10 C 0.453457 0.383137 0.399157 0.0127 Uiso
O11_10 O 0.674874 0.412211 0.419229 0.0127 Uiso
C56_10 C 0.681787 0.390262 0.483451 0.0127 Uiso
Fe4_7 Fe 0.765127 0.522406 0.321719 0.0063 Uiso
N17_10 N 0.533532 0.395310 0.314330 0.0127 Uiso
C59_10 C 0.513984 0.377016 0.291863 0.0127 Uiso
Nb2_10 Nb 0.478317 0.345457 0.246444 0.0063 Uiso
C76_10 C 0.483580 0.306881 0.274119 0.0127 Uiso
C77_10 C 0.446953 0.367107 0.243536 0.0127 Uiso
C78_10 C 0.469769 0.339472 0.180520 0.0127 Uiso
C79_10 C 0.507512 0.394585 0.219243 0.0127 Uiso
C80_10 C 0.521401 0.345334 0.220464 0.0127 Uiso
C81_10 C 0.430923 0.301029 0.234537 0.0127 Uiso
C82_10 C 0.452435 0.334945 0.306036 0.0127 Uiso
N24_10 N 0.485324 0.285448 0.290420 0.0127 Uiso
N25_10 N 0.429697 0.378181 0.243611 0.0127 Uiso
N26_10 N 0.467148 0.337974 0.145113 0.0127 Uiso
N27_10 N 0.522508 0.421043 0.206201 0.0127 Uiso
N28_10 N 0.543852 0.345150 0.206430 0.0127 Uiso
N29_10 N 0.406216 0.277944 0.226911 0.0127 Uiso
N30_10 N 0.438486 0.329156 0.336951 0.0127 Uiso
Fe5_4 Fe 0.477594 0.242722 0.321719 0.0063 Uiso
N31_10 N 0.498469 0.272813 0.380189 0.0127 Uiso
N32_10 N 0.428250 0.234268 0.344485 0.0127 Uiso
N33_10 N 0.453615 0.212609 0.262700 0.0127 Uiso
N34_10 N 0.527680 0.252798 0.299316 0.0127 Uiso
N35_4 N 0.471556 0.200199 0.352337 0.0127 Uiso
C91_10 C 0.505033 0.260604 0.414527 0.0127 Uiso
C92_10 C 0.504835 0.303991 0.381730 0.0127 Uiso
C93_10 C 0.413558 0.250337 0.327284 0.0127 Uiso
C94_10 C 0.412484 0.213258 0.375486 0.0127 Uiso
C95_10 C 0.455872 0.186224 0.253906 0.0127 Uiso
C96_10 C 0.436590 0.220350 0.235162 0.0127 Uiso
C97_10 C 0.539526 0.269018 0.263087 0.0127 Uiso
C98_10 C 0.546258 0.243326 0.320639 0.0127 Uiso
C99_10 C 0.517822 0.278600 0.450615 0.0127 Uiso
C100_10 C 0.517734 0.323638 0.417053 0.0127 Uiso
C101_10 C 0.383404 0.245321 0.341057 0.0127 Uiso
C102_10 C 0.382189 0.207546 0.390199 0.0127 Uiso
C103_10 C 0.441315 0.167787 0.218007 0.0127 Uiso
C104_10 C 0.422199 0.203884 0.200537 0.0127 Uiso
C105_10 C 0.569618 0.275703 0.248291 0.0127 Uiso
C106_10 C 0.577454 0.249615 0.306703 0.0127 Uiso
O20_10 O 0.524402 0.266023 0.485272 0.0127 Uiso
C107_10 C 0.524225 0.310796 0.451589 0.0127 Uiso
O21_10 O 0.371782 0.263377 0.320537 0.0127 Uiso
C108_10 C 0.367390 0.223275 0.373442 0.0127 Uiso
O22_10 O 0.444181 0.141143 0.210187 0.0127 Uiso
C109_10 C 0.424362 0.176437 0.191014 0.0127 Uiso
O23_10 O 0.580187 0.293629 0.208153 0.0127 Uiso
C110_10 C 0.589650 0.266061 0.269943 0.0127 Uiso
C111_10 C 0.347401 0.252867 0.296594 0.0127 Uiso
C112_10 C 0.421654 0.114183 0.235934 0.0127 Uiso
C113_10 C 0.599205 0.328218 0.216532 0.0127 Uiso
O24_10 O 0.321358 0.225657 0.304070 0.0127 Uiso
C114_10 C 0.352172 0.274545 0.260736 0.0127 Uiso
O25_10 O 0.417779 0.086004 0.230942 0.0127 Uiso
C115_10 C 0.403653 0.120124 0.267510 0.0127 Uiso
O26_10 O 0.595996 0.341541 0.247438 0.0127 Uiso
C116_10 C 0.624858 0.348454 0.183216 0.0127 Uiso
H7_10 H 0.672864 0.363963 0.486658 . .
H8_10 H 0.707696 0.402915 0.474572 . .
H9_10 H 0.679107 0.400078 0.512676 . .
H10_10 H 0.631958 0.608129 0.395061 . .
H11_10 H 0.596812 0.60022 0.424729 . .
H12_10 H 0.610745 0.571154 0.424273 . .
H14_10 H 0.471833 0.384211 0.377674 . .
H15_10 H 0.43057 0.376021 0.382737 . .
H16_10 H 0.462461 0.407285 0.41318 . .
H40_10 H 0.372925 0.277412 0.242394 . .
H41_10 H 0.329925 0.263478 0.241938 . .
H42_10 H 0.357162 0.298625 0.271606 . .
H43_10 H 0.536854 0.230344 0.349685 . .
H44_10 H 0.409089 0.21207 0.180406 . .
H45_10 H 0.423817 0.200236 0.3896 . .
H46_10 H 0.469147 0.178668 0.274676 . .
H47_10 H 0.343651 0.218913 0.384828 . .
H48_10 H 0.534233 0.32575 0.479198 . .
H49_10 H 0.613598 0.271368 0.258153 . .
H50_10 H 0.500001 0.235233 0.413816 . .
H51_10 H 0.524798 0.276829 0.24553 . .
H52_10 H 0.425894 0.26753 0.302093 . .
H53_10 H 0.434476 0.242008 0.241948 . .
H54_10 H 0.522587 0.348953 0.417126 . .
H55_10 H 0.370274 0.190262 0.415427 . .
H56_10 H 0.591752 0.241571 0.324774 . .
H57_10 H 0.540879 0.259255 0.478591 . .
H58_10 H 0.413113 0.162153 0.163246 . .
H59_10 H 0.499849 0.314526 0.354662 . .
H60_10 H 0.388509 0.129128 0.253487 . .
H61_10 H 0.387882 0.0972366 0.28393 . .
H62_10 H 0.420955 0.1385 0.288993 . .
H63_10 H 0.612362 0.345774 0.15399 . .
H64_10 H 0.638115 0.374363 0.192094 . .
H65_10 H 0.642235 0.339531 0.180008 . .
H66_10 H 0.53357 0.443087 0.277067 . .
H67_10 H 0.512001 0.376187 0.391991 . .
H68_10 H 0.610162 0.418697 0.421136 . .
H69_10 H 0.600863 0.508302 0.364574 . .
H70_10 H 0.575341 0.474199 0.424718 . .
H71_10 H 0.568567 0.401899 0.252851 . .
H72_10 H 0.563677 0.360157 0.316982 . .
H74_10 H 0.647859 0.481344 0.312005 . .
H82_10 H 0.552247 0.541929 0.281838 . .
H83_10 H 0.604701 0.324437 0.408513 . .
H84_10 H 0.574904 0.316486 0.341892 . .
H87_10 H 0.495486 0.415707 0.503421 . .
H89_10 H 0.545404 0.469648 0.48626 . .
H90_10 H 0.579902 0.409489 0.171521 . .
H91_10 H 0.523595 0.486654 0.251239 . .
H92_10 H 0.682286 0.493032 0.249541 . .
H93_10 H 0.659084 0.458184 0.187469 . .
Nb1_11 Nb 0.466194 0.144984 0.420223 0.0063 Uiso
C1_11 C 0.510033 0.150247 0.392548 0.0127 Uiso
C2_11 C 0.413180 0.113620 0.423131 0.0127 Uiso
C3_11 C 0.463631 0.136436 0.486147 0.0127 Uiso
C4_11 C 0.446261 0.174179 0.447424 0.0127 Uiso
C5_11 C 0.470302 0.180651 0.374804 0.0127 Uiso
C6_11 C 0.509401 0.188068 0.446203 0.0127 Uiso
C7_11 C 0.463228 0.097590 0.432130 0.0127 Uiso
C8_11 C 0.450824 0.119102 0.360631 0.0127 Uiso
N1_11 N 0.533210 0.151991 0.376247 0.0127 Uiso
N4_11 N 0.434799 0.189175 0.460466 0.0127 Uiso
N6_11 N 0.532036 0.210519 0.460237 0.0127 Uiso
N7_11 N 0.461606 0.072883 0.439756 0.0127 Uiso
N8_11 N 0.442664 0.105153 0.329716 0.0127 Uiso
Fe1_11 Fe 0.568206 0.144261 0.344948 0.0063 Uiso
N9_11 N 0.558990 0.165136 0.286478 0.0127 Uiso
N10_11 N 0.527316 0.094917 0.322182 0.0127 Uiso
N11_11 N 0.574340 0.120282 0.403967 0.0127 Uiso
N12_11 N 0.608216 0.194347 0.367351 0.0127 Uiso
C9_11 C 0.577763 0.171700 0.252140 0.0127 Uiso
C10_11 C 0.534178 0.171502 0.284937 0.0127 Uiso
C11_11 C 0.496555 0.080225 0.339383 0.0127 Uiso
C12_11 C 0.532560 0.079151 0.291181 0.0127 Uiso
C13_11 C 0.602982 0.122539 0.412761 0.0127 Uiso
C14_11 C 0.549574 0.103257 0.431505 0.0127 Uiso
C15_11 C 0.603842 0.206193 0.403580 0.0127 Uiso
C16_11 C 0.636266 0.212925 0.346028 0.0127 Uiso
C25_11 C 0.572556 0.184489 0.216052 0.0127 Uiso
C26_11 C 0.527430 0.184401 0.249614 0.0127 Uiso
C27_11 C 0.471417 0.050071 0.325610 0.0127 Uiso
C28_11 C 0.507977 0.048856 0.276468 0.0127 Uiso
C29_11 C 0.606862 0.107982 0.448660 0.0127 Uiso
C30_11 C 0.551649 0.088866 0.466130 0.0127 Uiso
C31_11 C 0.627249 0.236285 0.418376 0.0127 Uiso
C32_11 C 0.661173 0.244121 0.359964 0.0127 Uiso
O1_11 O 0.591713 0.191069 0.181395 0.0127 Uiso
C41_11 C 0.546763 0.190892 0.215078 0.0127 Uiso
O2_11 O 0.441739 0.038449 0.346130 0.0127 Uiso
C42_11 C 0.477449 0.034057 0.293225 0.0127 Uiso
O3_11 O 0.636372 0.110848 0.456480 0.0127 Uiso
C43_11 C 0.581259 0.091029 0.475653 0.0127 Uiso
O4_11 O 0.619892 0.246854 0.458514 0.0127 Uiso
C44_11 C 0.656923 0.256317 0.396724 0.0127 Uiso
C49_11 C 0.427868 0.014068 0.370073 0.0127 Uiso
C50_11 C 0.640805 0.088321 0.430733 0.0127 Uiso
C51_11 C 0.604321 0.265872 0.450135 0.0127 Uiso
C54_11 C 0.410961 0.018839 0.405931 0.0127 Uiso
O10_11 O 0.665109 0.084446 0.435725 0.0127 Uiso
C55_11 C 0.616863 0.070320 0.399157 0.0127 Uiso
O11_11 O 0.587789 0.262663 0.419229 0.0127 Uiso
C56_11 C 0.609738 0.291525 0.483451 0.0127 Uiso
N17_11 N 0.604690 0.138223 0.314330 0.0127 Uiso
C59_11 C 0.622984 0.136969 0.291863 0.0127 Uiso
Nb2_11 Nb 0.654543 0.132861 0.246444 0.0063 Uiso
C76_11 C 0.693119 0.176700 0.274119 0.0127 Uiso
C77_11 C 0.632893 0.079847 0.243536 0.0127 Uiso
C78_11 C 0.660528 0.130298 0.180520 0.0127 Uiso
C79_11 C 0.605415 0.112928 0.219243 0.0127 Uiso
C80_11 C 0.654666 0.176068 0.220464 0.0127 Uiso
C81_11 C 0.698971 0.129895 0.234537 0.0127 Uiso
C82_11 C 0.665055 0.117491 0.306036 0.0127 Uiso
N24_11 N 0.714552 0.199877 0.290420 0.0127 Uiso
N25_11 N 0.621819 0.051517 0.243611 0.0127 Uiso
N26_11 N 0.662026 0.129175 0.145113 0.0127 Uiso
N27_11 N 0.578957 0.101466 0.206201 0.0127 Uiso
N28_11 N 0.654850 0.198703 0.206430 0.0127 Uiso
N29_11 N 0.722056 0.128273 0.226911 0.0127 Uiso
N30_11 N 0.670844 0.109331 0.336951 0.0127 Uiso
Fe5_5 Fe 0.757278 0.234873 0.321719 0.0063 Uiso
N31_11 N 0.727187 0.225657 0.380189 0.0127 Uiso
N32_11 N 0.765732 0.193983 0.344485 0.0127 Uiso
N33_11 N 0.787391 0.241007 0.262700 0.0127 Uiso
N34_11 N 0.747202 0.274883 0.299316 0.0127 Uiso
N35_5 N 0.799801 0.271357 0.352337 0.0127 Uiso
C91_11 C 0.739396 0.244430 0.414527 0.0127 Uiso
C92_11 C 0.696009 0.200845 0.381730 0.0127 Uiso
C93_11 C 0.749663 0.163222 0.327284 0.0127 Uiso
C94_11 C 0.786742 0.199227 0.375486 0.0127 Uiso
C95_11 C 0.813776 0.269649 0.253906 0.0127 Uiso
C96_11 C 0.779650 0.216241 0.235162 0.0127 Uiso
C97_11 C 0.730982 0.270509 0.263087 0.0127 Uiso
C98_11 C 0.756674 0.302933 0.320639 0.0127 Uiso
C99_11 C 0.721400 0.239223 0.450615 0.0127 Uiso
C100_11 C 0.676362 0.194097 0.417053 0.0127 Uiso
C101_11 C 0.754679 0.138084 0.341057 0.0127 Uiso
C102_11 C 0.792454 0.174644 0.390199 0.0127 Uiso
C103_11 C 0.832213 0.273529 0.218007 0.0127 Uiso
C104_11 C 0.796116 0.218316 0.200537 0.0127 Uiso
C105_11 C 0.724297 0.293916 0.248291 0.0127 Uiso
C106_11 C 0.750385 0.327840 0.306703 0.0127 Uiso
O20_11 O 0.733977 0.258380 0.485272 0.0127 Uiso
C107_11 C 0.689204 0.213430 0.451589 0.0127 Uiso
O21_11 O 0.736623 0.108406 0.320537 0.0127 Uiso
C108_11 C 0.776725 0.144116 0.373442 0.0127 Uiso
O22_11 O 0.858857 0.303039 0.210187 0.0127 Uiso
C109_11 C 0.823563 0.247926 0.191014 0.0127 Uiso
O23_11 O 0.706371 0.286559 0.208153 0.0127 Uiso
C110_11 C 0.733939 0.323590 0.269943 0.0127 Uiso
C111_11 C 0.747133 0.094535 0.296594 0.0127 Uiso
C112_11 C 0.885817 0.307472 0.235934 0.0127 Uiso
C113_11 C 0.671782 0.270988 0.216532 0.0127 Uiso
O24_11 O 0.774343 0.095702 0.304070 0.0127 Uiso
C114_11 C 0.725455 0.077628 0.260736 0.0127 Uiso
O25_11 O 0.913996 0.331776 0.230942 0.0127 Uiso
C115_11 C 0.879876 0.283530 0.267510 0.0127 Uiso
O26_11 O 0.658459 0.254456 0.247438 0.0127 Uiso
C116_11 C 0.651546 0.276405 0.183216 0.0127 Uiso
H7_11 H 0.636037 0.308901 0.486658 . .
H8_11 H 0.597085 0.304781 0.474572 . .
H9_11 H 0.599922 0.279029 0.512676 . .
H10_11 H 0.391871 0.023829 0.395061 . .
H12_11 H 0.428846 0.0395918 0.424273 . .
H14_11 H 0.615789 0.0876217 0.377674 . .
H15_11 H 0.623979 0.0545485 0.382737 . .
H16_11 H 0.592715 0.0551762 0.41318 . .
H40_11 H 0.722588 0.0955131 0.242394 . .
H41_11 H 0.736522 0.0664464 0.241938 . .
H42_11 H 0.701375 0.0585375 0.271606 . .
H43_11 H 0.769656 0.30651 0.349685 . .
H44_11 H 0.78793 0.197019 0.180406 . .
H45_11 H 0.799764 0.22358 0.3896 . .
H46_11 H 0.821332 0.290479 0.274676 . .
H47_11 H 0.781087 0.124737 0.384828 . .
H48_11 H 0.67425 0.208482 0.479198 . .
H49_11 H 0.728632 0.34223 0.258153 . .
H50_11 H 0.764767 0.264768 0.413816 . .
H51_11 H 0.723171 0.247969 0.24553 . .
H52_11 H 0.73247 0.158365 0.302093 . .
H53_11 H 0.757992 0.192468 0.241948 . .
H54_11 H 0.651047 0.173635 0.417126 . .
H55_11 H 0.809738 0.180012 0.415427 . .
H56_11 H 0.758429 0.350181 0.324774 . .
H57_11 H 0.740745 0.281623 0.478591 . .
H58_11 H 0.837847 0.25096 0.163246 . .
H59_11 H 0.685474 0.185323 0.354662 . .
H60_11 H 0.870872 0.259382 0.253487 . .
H61_11 H 0.902763 0.290645 0.28393 . .
H62_11 H 0.8615 0.282455 0.288993 . .
H63_11 H 0.654226 0.266588 0.15399 . .
H64_11 H 0.625637 0.263752 0.192094 . .
H65_11 H 0.660469 0.302704 0.180008 . .
H66_11 H 0.556913 0.0904832 0.277067 . .
H67_11 H 0.623813 0.135814 0.391991 . .
H68_11 H 0.581303 0.191465 0.421136 . .
H69_11 H 0.491698 0.0925608 0.364574 . .
H70_11 H 0.525801 0.101142 0.424718 . .
H71_11 H 0.598101 0.166668 0.252851 . .
H72_11 H 0.639843 0.203521 0.316982 . .
H74_11 H 0.518656 0.166515 0.312005 . .
H82_11 H 0.458071 0.0103174 0.281838 . .
H83_11 H 0.675563 0.280265 0.408513 . .
H84_11 H 0.683514 0.258419 0.341892 . .
H87_11 H 0.584293 0.0797795 0.503421 . .
H89_11 H 0.530352 0.075756 0.48626 . .
H90_11 H 0.590511 0.170413 0.171521 . .
H91_11 H 0.513346 0.0369409 0.251239 . .
H92_11 H 0.506968 0.189254 0.249541 . .
H93_11 H 0.541816 0.200899 0.187469 . .
O9_11 O 0.429035 0.988025 0.362597 0.0127 Uiso
H11_11 H 0.39978 0.996591 0.424729 . .
O9_12 O 0.011975 0.441010 0.362597 0.0127 Uiso
H11_12 H 0.00340865 0.403188 0.424729 . .
Nb1_12 Nb 0.855016 0.321210 0.420223 0.0063 Uiso
C1_12 C 0.849753 0.359786 0.392548 0.0127 Uiso
C2_12 C 0.886380 0.299560 0.423131 0.0127 Uiso
C3_12 C 0.863564 0.327195 0.486147 0.0127 Uiso
C4_12 C 0.825821 0.272082 0.447424 0.0127 Uiso
C5_12 C 0.819349 0.289651 0.374804 0.0127 Uiso
C6_12 C 0.811932 0.321333 0.446203 0.0127 Uiso
C7_12 C 0.902410 0.365638 0.432130 0.0127 Uiso
C8_12 C 0.880898 0.331722 0.360631 0.0127 Uiso
N1_12 N 0.848009 0.381219 0.376247 0.0127 Uiso
N4_12 N 0.810825 0.245624 0.460466 0.0127 Uiso
N6_12 N 0.789481 0.321517 0.460237 0.0127 Uiso
N7_12 N 0.927117 0.388723 0.439756 0.0127 Uiso
N8_12 N 0.894847 0.337511 0.329716 0.0127 Uiso
Fe1_12 Fe 0.855739 0.423945 0.344948 0.0063 Uiso
N9_12 N 0.834864 0.393854 0.286478 0.0127 Uiso
N10_12 N 0.905083 0.432399 0.322182 0.0127 Uiso
N11_12 N 0.879718 0.454058 0.403967 0.0127 Uiso
N12_12 N 0.805653 0.413869 0.367351 0.0127 Uiso
C9_12 C 0.828300 0.406063 0.252140 0.0127 Uiso
C10_12 C 0.828498 0.362676 0.284937 0.0127 Uiso
C11_12 C 0.919775 0.416330 0.339383 0.0127 Uiso
C12_12 C 0.920849 0.453409 0.291181 0.0127 Uiso
C13_12 C 0.877461 0.480443 0.412761 0.0127 Uiso
C14_12 C 0.896743 0.446317 0.431505 0.0127 Uiso
C15_12 C 0.793807 0.397649 0.403580 0.0127 Uiso
C16_12 C 0.787075 0.423341 0.346028 0.0127 Uiso
C25_12 C 0.815511 0.388067 0.216052 0.0127 Uiso
C26_12 C 0.815599 0.343029 0.249614 0.0127 Uiso
C27_12 C 0.949929 0.421346 0.325610 0.0127 Uiso
C28_12 C 0.951144 0.459121 0.276468 0.0127 Uiso
C29_12 C 0.892018 0.498880 0.448660 0.0127 Uiso
C30_12 C 0.911134 0.462783 0.466130 0.0127 Uiso
C31_12 C 0.763715 0.390964 0.418376 0.0127 Uiso
C32_12 C 0.755879 0.417052 0.359964 0.0127 Uiso
O1_12 O 0.808931 0.400644 0.181395 0.0127 Uiso
C41_12 C 0.809108 0.355871 0.215078 0.0127 Uiso
O2_12 O 0.961551 0.403290 0.346130 0.0127 Uiso
C42_12 C 0.965943 0.443392 0.293225 0.0127 Uiso
O3_12 O 0.889152 0.525524 0.456480 0.0127 Uiso
C43_12 C 0.908971 0.490230 0.475653 0.0127 Uiso
O4_12 O 0.753146 0.373038 0.458514 0.0127 Uiso
C44_12 C 0.743683 0.400606 0.396724 0.0127 Uiso
C49_12 C 0.985932 0.413800 0.370073 0.0127 Uiso
C50_12 C 0.911679 0.552484 0.430733 0.0127 Uiso
C51_12 C 0.734128 0.338449 0.450135 0.0127 Uiso
C54_12 C 0.981161 0.392122 0.405931 0.0127 Uiso
O10_12 O 0.915554 0.580663 0.435725 0.0127 Uiso
C55_12 C 0.929680 0.546543 0.399157 0.0127 Uiso
O11_12 O 0.737337 0.325126 0.419229 0.0127 Uiso
C56_12 C 0.708475 0.318213 0.483451 0.0127 Uiso
N17_12 N 0.861777 0.466468 0.314330 0.0127 Uiso
C59_12 C 0.863031 0.486016 0.291863 0.0127 Uiso
Nb2_12 Nb 0.867139 0.521683 0.246444 0.0063 Uiso
C76_12 C 0.823300 0.516420 0.274119 0.0127 Uiso
C77_12 C 0.920153 0.553047 0.243536 0.0127 Uiso
C78_12 C 0.869702 0.530231 0.180520 0.0127 Uiso
C79_12 C 0.887072 0.492488 0.219243 0.0127 Uiso
C80_12 C 0.823932 0.478599 0.220464 0.0127 Uiso
C81_12 C 0.870105 0.569077 0.234537 0.0127 Uiso
C82_12 C 0.882509 0.547565 0.306036 0.0127 Uiso
N24_12 N 0.800123 0.514676 0.290420 0.0127 Uiso
N25_12 N 0.948483 0.570303 0.243611 0.0127 Uiso
N26_12 N 0.870825 0.532852 0.145113 0.0127 Uiso
N27_12 N 0.898534 0.477492 0.206201 0.0127 Uiso
N28_12 N 0.801297 0.456148 0.206430 0.0127 Uiso
N29_12 N 0.871727 0.593784 0.226911 0.0127 Uiso
N30_12 N 0.890669 0.561514 0.336951 0.0127 Uiso
N31_12 N 0.774343 0.501531 0.380189 0.0127 Uiso
N32_12 N 0.806017 0.571750 0.344485 0.0127 Uiso
N33_12 N 0.758993 0.546385 0.262700 0.0127 Uiso
N34_12 N 0.725117 0.472320 0.299316 0.0127 Uiso
C91_12 C 0.755570 0.494967 0.414527 0.0127 Uiso
C92_12 C 0.799155 0.495165 0.381730 0.0127 Uiso
C93_12 C 0.836778 0.586442 0.327284 0.0127 Uiso
C94_12 C 0.800773 0.587516 0.375486 0.0127 Uiso
C95_12 C 0.730351 0.544128 0.253906 0.0127 Uiso
C96_12 C 0.783759 0.563410 0.235162 0.0127 Uiso
C97_12 C 0.729491 0.460474 0.263087 0.0127 Uiso
C98_12 C 0.697067 0.453742 0.320639 0.0127 Uiso
C99_12 C 0.760777 0.482178 0.450615 0.0127 Uiso
C100_12 C 0.805903 0.482266 0.417053 0.0127 Uiso
C101_12 C 0.861916 0.616596 0.341057 0.0127 Uiso
C102_12 C 0.825356 0.617811 0.390199 0.0127 Uiso
C103_12 C 0.726471 0.558685 0.218007 0.0127 Uiso
C104_12 C 0.781684 0.577801 0.200537 0.0127 Uiso
C105_12 C 0.706084 0.430382 0.248291 0.0127 Uiso
C106_12 C 0.672160 0.422546 0.306703 0.0127 Uiso
O20_12 O 0.741620 0.475598 0.485272 0.0127 Uiso
C107_12 C 0.786570 0.475775 0.451589 0.0127 Uiso
O21_12 O 0.891594 0.628218 0.320537 0.0127 Uiso
C108_12 C 0.855884 0.632610 0.373442 0.0127 Uiso
O22_12 O 0.696961 0.555819 0.210187 0.0127 Uiso
C109_12 C 0.752074 0.575638 0.191014 0.0127 Uiso
O23_12 O 0.713441 0.419813 0.208153 0.0127 Uiso
C110_12 C 0.676410 0.410350 0.269943 0.0127 Uiso
C111_12 C 0.905465 0.652599 0.296594 0.0127 Uiso
C112_12 C 0.692528 0.578346 0.235934 0.0127 Uiso
C113_12 C 0.729012 0.400795 0.216532 0.0127 Uiso
O24_12 O 0.904298 0.678642 0.304070 0.0127 Uiso
C114_12 C 0.922372 0.647828 0.260736 0.0127 Uiso
O25_12 O 0.668224 0.582221 0.230942 0.0127 Uiso
C115_12 C 0.716470 0.596347 0.267510 0.0127 Uiso
O26_12 O 0.745544 0.404004 0.247438 0.0127 Uiso
C116_12 C 0.723595 0.375142 0.183216 0.0127 Uiso
H7_12 H 0.691099 0.327136 0.486658 . .
H8_12 H 0.695219 0.292304 0.474572 . .
H9_12 H 0.720971 0.320893 0.512676 . .
H10_12 H 0.976171 0.368042 0.395061 . .
H12_12 H 0.960408 0.389255 0.424273 . .
H14_12 H 0.912378 0.528167 0.377674 . .
H15_12 H 0.945451 0.56943 0.382737 . .
H16_12 H 0.944824 0.537539 0.41318 . .
H40_12 H 0.904487 0.627075 0.242394 . .
H41_12 H 0.933554 0.670075 0.241938 . .
H42_12 H 0.941462 0.642838 0.271606 . .
H43_12 H 0.69349 0.463146 0.349685 . .
H44_12 H 0.802981 0.590911 0.180406 . .
H45_12 H 0.77642 0.576183 0.3896 . .
H46_12 H 0.709521 0.530853 0.274676 . .
H47_12 H 0.875263 0.656349 0.384828 . .
H48_12 H 0.791518 0.465767 0.479198 . .
H49_12 H 0.65777 0.386402 0.258153 . .
H50_12 H 0.735232 0.499999 0.413816 . .
H51_12 H 0.752031 0.475202 0.24553 . .
H52_12 H 0.841635 0.574106 0.302093 . .
H53_12 H 0.807532 0.565524 0.241948 . .
H54_12 H 0.826365 0.477413 0.417126 . .
H55_12 H 0.819988 0.629726 0.415427 . .
H56_12 H 0.649819 0.408248 0.324774 . .
H57_12 H 0.718377 0.459121 0.478591 . .
H58_12 H 0.74904 0.586887 0.163246 . .
H59_12 H 0.814677 0.500151 0.354662 . .
H60_12 H 0.740618 0.611491 0.253487 . .
H61_12 H 0.709355 0.612118 0.28393 . .
H62_12 H 0.717545 0.579045 0.288993 . .
H63_12 H 0.733412 0.387638 0.15399 . .
H64_12 H 0.736248 0.361885 0.192094 . .
H65_12 H 0.697296 0.357765 0.180008 . .
H66_12 H 0.909517 0.46643 0.277067 . .
H67_12 H 0.864186 0.487999 0.391991 . .
H68_12 H 0.808535 0.389838 0.421136 . .
H69_12 H 0.907439 0.399137 0.364574 . .
H70_12 H 0.898858 0.424659 0.424718 . .
H71_12 H 0.833332 0.431433 0.252851 . .
H72_12 H 0.796479 0.436323 0.316982 . .
H74_12 H 0.833485 0.352141 0.312005 . .
H82_12 H 0.989683 0.447753 0.281838 . .
H83_12 H 0.719735 0.395299 0.408513 . .
H84_12 H 0.741581 0.425096 0.341892 . .
H87_12 H 0.920221 0.504514 0.503421 . .
H89_12 H 0.924244 0.454596 0.48626 . .
H90_12 H 0.829587 0.420098 0.171521 . .
H91_12 H 0.963059 0.476405 0.251239 . .
H92_12 H 0.810746 0.317714 0.249541 . .
H93_12 H 0.799101 0.340916 0.187469 . .
Nb1_13 Nb 0.345457 0.867139 0.753556 0.0063 Uiso
C1_13 C 0.306881 0.823300 0.725881 0.0127 Uiso
C2_13 C 0.367107 0.920153 0.756464 0.0127 Uiso
C3_13 C 0.339472 0.869702 0.819480 0.0127 Uiso
C4_13 C 0.394585 0.887072 0.780757 0.0127 Uiso
C5_13 C 0.377016 0.863031 0.708137 0.0127 Uiso
C6_13 C 0.345334 0.823932 0.779536 0.0127 Uiso
C7_13 C 0.301029 0.870105 0.765463 0.0127 Uiso
C8_13 C 0.334945 0.882509 0.693964 0.0127 Uiso
N1_13 N 0.285448 0.800123 0.709580 0.0127 Uiso
N4_13 N 0.421043 0.898534 0.793799 0.0127 Uiso
N5_8 N 0.395310 0.861777 0.685670 0.0127 Uiso
N6_13 N 0.345150 0.801297 0.793570 0.0127 Uiso
N7_13 N 0.277944 0.871727 0.773089 0.0127 Uiso
N8_13 N 0.329156 0.890669 0.663049 0.0127 Uiso
Fe1_13 Fe 0.242722 0.765127 0.678281 0.0063 Uiso
N9_13 N 0.272813 0.774343 0.619811 0.0127 Uiso
N10_13 N 0.234268 0.806017 0.655515 0.0127 Uiso
N11_13 N 0.212609 0.758993 0.737300 0.0127 Uiso
N12_13 N 0.252798 0.725117 0.700684 0.0127 Uiso
C9_13 C 0.260604 0.755570 0.585473 0.0127 Uiso
C10_13 C 0.303991 0.799155 0.618270 0.0127 Uiso
C11_13 C 0.250337 0.836778 0.672716 0.0127 Uiso
C12_13 C 0.213258 0.800773 0.624514 0.0127 Uiso
C13_13 C 0.186224 0.730351 0.746094 0.0127 Uiso
C14_13 C 0.220350 0.783759 0.764838 0.0127 Uiso
C15_13 C 0.269018 0.729491 0.736913 0.0127 Uiso
C16_13 C 0.243326 0.697067 0.679361 0.0127 Uiso
C25_13 C 0.278600 0.760777 0.549385 0.0127 Uiso
C26_13 C 0.323638 0.805903 0.582947 0.0127 Uiso
C27_13 C 0.245321 0.861916 0.658943 0.0127 Uiso
C28_13 C 0.207546 0.825356 0.609801 0.0127 Uiso
C29_13 C 0.167787 0.726471 0.781993 0.0127 Uiso
C30_13 C 0.203884 0.781684 0.799463 0.0127 Uiso
C31_13 C 0.275703 0.706084 0.751709 0.0127 Uiso
C32_13 C 0.249615 0.672160 0.693297 0.0127 Uiso
O1_13 O 0.266023 0.741620 0.514728 0.0127 Uiso
C41_13 C 0.310796 0.786570 0.548411 0.0127 Uiso
O2_13 O 0.263377 0.891594 0.679463 0.0127 Uiso
C42_13 C 0.223275 0.855884 0.626558 0.0127 Uiso
O3_13 O 0.141143 0.696961 0.789813 0.0127 Uiso
C43_13 C 0.176437 0.752074 0.808986 0.0127 Uiso
O4_13 O 0.293629 0.713441 0.791847 0.0127 Uiso
C44_13 C 0.266061 0.676410 0.730057 0.0127 Uiso
C49_13 C 0.252867 0.905465 0.703406 0.0127 Uiso
C50_13 C 0.114183 0.692528 0.764066 0.0127 Uiso
C51_13 C 0.328218 0.729012 0.783468 0.0127 Uiso
O9_13 O 0.225657 0.904298 0.695930 0.0127 Uiso
C54_13 C 0.274545 0.922372 0.739264 0.0127 Uiso
O10_13 O 0.086004 0.668224 0.769058 0.0127 Uiso
C55_13 C 0.120124 0.716470 0.732490 0.0127 Uiso
O11_13 O 0.341541 0.745544 0.752562 0.0127 Uiso
C56_13 C 0.348454 0.723595 0.816784 0.0127 Uiso
Fe4_8 Fe 0.431794 0.855739 0.655052 0.0063 Uiso
N17_13 N 0.200199 0.728643 0.647663 0.0127 Uiso
C59_13 C 0.180651 0.710349 0.625196 0.0127 Uiso
Nb2_13 Nb 0.144984 0.678790 0.579777 0.0063 Uiso
C76_13 C 0.150247 0.640214 0.607452 0.0127 Uiso
C77_13 C 0.113620 0.700440 0.576869 0.0127 Uiso
C78_13 C 0.136436 0.672805 0.513853 0.0127 Uiso
C79_13 C 0.174179 0.727918 0.552576 0.0127 Uiso
C80_13 C 0.188068 0.678667 0.553797 0.0127 Uiso
C81_13 C 0.097590 0.634362 0.567870 0.0127 Uiso
C82_13 C 0.119102 0.668278 0.639369 0.0127 Uiso
N24_13 N 0.151991 0.618781 0.623753 0.0127 Uiso
N25_13 N 0.096364 0.711514 0.576944 0.0127 Uiso
N26_13 N 0.133815 0.671307 0.478446 0.0127 Uiso
N27_13 N 0.189175 0.754376 0.539534 0.0127 Uiso
N28_13 N 0.210519 0.678483 0.539763 0.0127 Uiso
N29_13 N 0.072883 0.611277 0.560244 0.0127 Uiso
N30_13 N 0.105153 0.662489 0.670284 0.0127 Uiso
Fe5_6 Fe 0.144261 0.576055 0.655052 0.0063 Uiso
N31_13 N 0.165136 0.606146 0.713522 0.0127 Uiso
N32_13 N 0.094917 0.567601 0.677818 0.0127 Uiso
N33_13 N 0.120282 0.545942 0.596033 0.0127 Uiso
N34_13 N 0.194347 0.586131 0.632649 0.0127 Uiso
N35_6 N 0.138223 0.533532 0.685670 0.0127 Uiso
C91_13 C 0.171700 0.593937 0.747860 0.0127 Uiso
C92_13 C 0.171502 0.637324 0.715063 0.0127 Uiso
C93_13 C 0.080225 0.583670 0.660617 0.0127 Uiso
C94_13 C 0.079151 0.546591 0.708819 0.0127 Uiso
C95_13 C 0.122539 0.519557 0.587239 0.0127 Uiso
C96_13 C 0.103257 0.553683 0.568495 0.0127 Uiso
C97_13 C 0.206193 0.602351 0.596420 0.0127 Uiso
C98_13 C 0.212925 0.576659 0.653972 0.0127 Uiso
C99_13 C 0.184489 0.611933 0.783948 0.0127 Uiso
C100_13 C 0.184401 0.656971 0.750386 0.0127 Uiso
C101_13 C 0.050071 0.578654 0.674390 0.0127 Uiso
C102_13 C 0.048856 0.540879 0.723532 0.0127 Uiso
C103_13 C 0.107982 0.501120 0.551340 0.0127 Uiso
C104_13 C 0.088866 0.537217 0.533870 0.0127 Uiso
C105_13 C 0.236285 0.609036 0.581624 0.0127 Uiso
C106_13 C 0.244121 0.582948 0.640036 0.0127 Uiso
O20_13 O 0.191069 0.599356 0.818605 0.0127 Uiso
C107_13 C 0.190892 0.644129 0.784922 0.0127 Uiso
O21_13 O 0.038449 0.596710 0.653870 0.0127 Uiso
C108_13 C 0.034057 0.556608 0.706775 0.0127 Uiso
O22_13 O 0.110848 0.474476 0.543520 0.0127 Uiso
C109_13 C 0.091029 0.509770 0.524347 0.0127 Uiso
O23_13 O 0.246854 0.626962 0.541486 0.0127 Uiso
C110_13 C 0.256317 0.599394 0.603276 0.0127 Uiso
C111_13 C 0.014068 0.586200 0.629927 0.0127 Uiso
C112_13 C 0.088321 0.447516 0.569267 0.0127 Uiso
C113_13 C 0.265872 0.661551 0.549865 0.0127 Uiso
C114_13 C 0.018839 0.607878 0.594069 0.0127 Uiso
O25_13 O 0.084446 0.419337 0.564275 0.0127 Uiso
C115_13 C 0.070320 0.453457 0.600843 0.0127 Uiso
O26_13 O 0.262663 0.674874 0.580771 0.0127 Uiso
C116_13 C 0.291525 0.681787 0.516549 0.0127 Uiso
H7_13 H 0.339531 0.697296 0.819992 . .
H8_13 H 0.374363 0.736248 0.807906 . .
H9_13 H 0.345774 0.733412 0.84601 . .
H10_13 H 0.298625 0.941462 0.728394 . .
H11_13 H 0.263478 0.933554 0.758062 . .
H12_13 H 0.277412 0.904487 0.757606 . .
H14_13 H 0.1385 0.717545 0.711007 . .
H15_13 H 0.0972366 0.709355 0.71607 . .
H16_13 H 0.129128 0.740618 0.746513 . .
H40_13 H 0.0395918 0.610745 0.575727 . .
H42_13 H 0.023829 0.631958 0.604939 . .
H43_13 H 0.203521 0.563677 0.683018 . .
H44_13 H 0.075756 0.545404 0.51374 . .
H45_13 H 0.0904832 0.53357 0.722933 . .
H46_13 H 0.135814 0.512001 0.608009 . .
H47_13 H 0.0103174 0.552247 0.718162 . .
H48_13 H 0.200899 0.659084 0.812531 . .
H49_13 H 0.280265 0.604701 0.591487 . .
H50_13 H 0.166668 0.568567 0.747149 . .
H51_13 H 0.191465 0.610162 0.578864 . .
H52_13 H 0.0925608 0.600863 0.635426 . .
H53_13 H 0.101142 0.575341 0.575282 . .
H54_13 H 0.189254 0.682286 0.750459 . .
H55_13 H 0.0369409 0.523595 0.748761 . .
H56_13 H 0.258419 0.574904 0.658108 . .
H57_13 H 0.207545 0.592588 0.811925 . .
H58_13 H 0.0797795 0.495486 0.496579 . .
H59_13 H 0.166515 0.647859 0.687995 . .
H60_13 H 0.0551762 0.462461 0.58682 . .
H61_13 H 0.0545485 0.43057 0.617263 . .
H62_13 H 0.0876217 0.471833 0.622326 . .
H63_13 H 0.279029 0.679107 0.487324 . .
H64_13 H 0.304781 0.707696 0.525428 . .
H65_13 H 0.308901 0.672864 0.513342 . .
H66_13 H 0.200236 0.77642 0.6104 . .
H67_13 H 0.178668 0.709521 0.725324 . .
H68_13 H 0.276829 0.752031 0.75447 . .
H69_13 H 0.26753 0.841635 0.697907 . .
H70_13 H 0.242008 0.807532 0.758052 . .
H71_13 H 0.235233 0.735232 0.586184 . .
H72_13 H 0.230344 0.69349 0.650315 . .
H74_13 H 0.314526 0.814677 0.645338 . .
H82_13 H 0.218913 0.875263 0.615172 . .
H83_13 H 0.271368 0.65777 0.741847 . .
H84_13 H 0.241571 0.649819 0.675226 . .
H87_13 H 0.162153 0.74904 0.836754 . .
H89_13 H 0.21207 0.802981 0.819594 . .
H90_13 H 0.246568 0.742822 0.504855 . .
H91_13 H 0.190262 0.819988 0.584573 . .
H92_13 H 0.348953 0.826365 0.582874 . .
H93_13 H 0.32575 0.791518 0.520802 . .
O24_13 O 0.988025 0.558990 0.637403 0.0127 Uiso
H41_13 H 0.996591 0.596812 0.575271 . .
Nb1_14 Nb 0.132861 0.478317 0.753556 0.0063 Uiso
C1_14 C 0.176700 0.483580 0.725881 0.0127 Uiso
C2_14 C 0.079847 0.446953 0.756464 0.0127 Uiso
C3_14 C 0.130298 0.469769 0.819480 0.0127 Uiso
C4_14 C 0.112928 0.507512 0.780757 0.0127 Uiso
C5_14 C 0.136969 0.513984 0.708137 0.0127 Uiso
C6_14 C 0.176068 0.521401 0.779536 0.0127 Uiso
C7_14 C 0.129895 0.430923 0.765463 0.0127 Uiso
C8_14 C 0.117491 0.452435 0.693964 0.0127 Uiso
N1_14 N 0.199877 0.485324 0.709580 0.0127 Uiso
N4_14 N 0.101466 0.522508 0.793799 0.0127 Uiso
N6_14 N 0.198703 0.543852 0.793570 0.0127 Uiso
N7_14 N 0.128273 0.406216 0.773089 0.0127 Uiso
N8_14 N 0.109331 0.438486 0.663049 0.0127 Uiso
Fe1_14 Fe 0.234873 0.477594 0.678281 0.0063 Uiso
N9_14 N 0.225657 0.498469 0.619811 0.0127 Uiso
N10_14 N 0.193983 0.428250 0.655515 0.0127 Uiso
N11_14 N 0.241007 0.453615 0.737300 0.0127 Uiso
N12_14 N 0.274883 0.527680 0.700684 0.0127 Uiso
C9_14 C 0.244430 0.505033 0.585473 0.0127 Uiso
C10_14 C 0.200845 0.504835 0.618270 0.0127 Uiso
C11_14 C 0.163222 0.413558 0.672716 0.0127 Uiso
C12_14 C 0.199227 0.412484 0.624514 0.0127 Uiso
C13_14 C 0.269649 0.455872 0.746094 0.0127 Uiso
C14_14 C 0.216241 0.436590 0.764838 0.0127 Uiso
C15_14 C 0.270509 0.539526 0.736913 0.0127 Uiso
C16_14 C 0.302933 0.546258 0.679361 0.0127 Uiso
C25_14 C 0.239223 0.517822 0.549385 0.0127 Uiso
C26_14 C 0.194097 0.517734 0.582947 0.0127 Uiso
C27_14 C 0.138084 0.383404 0.658943 0.0127 Uiso
C28_14 C 0.174644 0.382189 0.609801 0.0127 Uiso
C29_14 C 0.273529 0.441315 0.781993 0.0127 Uiso
C30_14 C 0.218316 0.422199 0.799463 0.0127 Uiso
C31_14 C 0.293916 0.569618 0.751709 0.0127 Uiso
C32_14 C 0.327840 0.577454 0.693297 0.0127 Uiso
O1_14 O 0.258380 0.524402 0.514728 0.0127 Uiso
C41_14 C 0.213430 0.524225 0.548411 0.0127 Uiso
O2_14 O 0.108406 0.371782 0.679463 0.0127 Uiso
C42_14 C 0.144116 0.367390 0.626558 0.0127 Uiso
O3_14 O 0.303039 0.444181 0.789813 0.0127 Uiso
C43_14 C 0.247926 0.424362 0.808986 0.0127 Uiso
O4_14 O 0.286559 0.580187 0.791847 0.0127 Uiso
C44_14 C 0.323590 0.589650 0.730057 0.0127 Uiso
C49_14 C 0.094535 0.347401 0.703406 0.0127 Uiso
C50_14 C 0.307472 0.421654 0.764066 0.0127 Uiso
C51_14 C 0.270988 0.599205 0.783468 0.0127 Uiso
O9_14 O 0.095702 0.321358 0.695930 0.0127 Uiso
C54_14 C 0.077628 0.352172 0.739264 0.0127 Uiso
O10_14 O 0.331776 0.417779 0.769058 0.0127 Uiso
C55_14 C 0.283530 0.403653 0.732490 0.0127 Uiso
O11_14 O 0.254456 0.595996 0.752562 0.0127 Uiso
C56_14 C 0.276405 0.624858 0.816784 0.0127 Uiso
N17_14 N 0.271357 0.471556 0.647663 0.0127 Uiso
C59_14 C 0.289651 0.470302 0.625196 0.0127 Uiso
Nb2_14 Nb 0.321210 0.466194 0.579777 0.0063 Uiso
C76_14 C 0.359786 0.510033 0.607452 0.0127 Uiso
C77_14 C 0.299560 0.413180 0.576869 0.0127 Uiso
C78_14 C 0.327195 0.463631 0.513853 0.0127 Uiso
C79_14 C 0.272082 0.446261 0.552576 0.0127 Uiso
C80_14 C 0.321333 0.509401 0.553797 0.0127 Uiso
C81_14 C 0.365638 0.463228 0.567870 0.0127 Uiso
C82_14 C 0.331722 0.450824 0.639369 0.0127 Uiso
N24_14 N 0.381219 0.533210 0.623753 0.0127 Uiso
N25_14 N 0.288486 0.384850 0.576944 0.0127 Uiso
N26_14 N 0.328693 0.462508 0.478446 0.0127 Uiso
N27_14 N 0.245624 0.434799 0.539534 0.0127 Uiso
N28_14 N 0.321517 0.532036 0.539763 0.0127 Uiso
N29_14 N 0.388723 0.461606 0.560244 0.0127 Uiso
N30_14 N 0.337511 0.442664 0.670284 0.0127 Uiso
Fe5_7 Fe 0.423945 0.568206 0.655052 0.0063 Uiso
N31_14 N 0.393854 0.558990 0.713522 0.0127 Uiso
N32_14 N 0.432399 0.527316 0.677818 0.0127 Uiso
N33_14 N 0.454058 0.574340 0.596033 0.0127 Uiso
N34_14 N 0.413869 0.608216 0.632649 0.0127 Uiso
N35_7 N 0.466468 0.604690 0.685670 0.0127 Uiso
C91_14 C 0.406063 0.577763 0.747860 0.0127 Uiso
C92_14 C 0.362676 0.534178 0.715063 0.0127 Uiso
C93_14 C 0.416330 0.496555 0.660617 0.0127 Uiso
C94_14 C 0.453409 0.532560 0.708819 0.0127 Uiso
C95_14 C 0.480443 0.602982 0.587239 0.0127 Uiso
C96_14 C 0.446317 0.549574 0.568495 0.0127 Uiso
C97_14 C 0.397649 0.603842 0.596420 0.0127 Uiso
C98_14 C 0.423341 0.636266 0.653972 0.0127 Uiso
C99_14 C 0.388067 0.572556 0.783948 0.0127 Uiso
C100_14 C 0.343029 0.527430 0.750386 0.0127 Uiso
C101_14 C 0.421346 0.471417 0.674390 0.0127 Uiso
C102_14 C 0.459121 0.507977 0.723532 0.0127 Uiso
C103_14 C 0.498880 0.606862 0.551340 0.0127 Uiso
C104_14 C 0.462783 0.551649 0.533870 0.0127 Uiso
C105_14 C 0.390964 0.627249 0.581624 0.0127 Uiso
C106_14 C 0.417052 0.661173 0.640036 0.0127 Uiso
O20_14 O 0.400644 0.591713 0.818605 0.0127 Uiso
C107_14 C 0.355871 0.546763 0.784922 0.0127 Uiso
O21_14 O 0.403290 0.441739 0.653870 0.0127 Uiso
C108_14 C 0.443392 0.477449 0.706775 0.0127 Uiso
O22_14 O 0.525524 0.636372 0.543520 0.0127 Uiso
C109_14 C 0.490230 0.581259 0.524347 0.0127 Uiso
O23_14 O 0.373038 0.619892 0.541486 0.0127 Uiso
C110_14 C 0.400606 0.656923 0.603276 0.0127 Uiso
C111_14 C 0.413800 0.427868 0.629927 0.0127 Uiso
C112_14 C 0.552484 0.640805 0.569267 0.0127 Uiso
C113_14 C 0.338449 0.604321 0.549865 0.0127 Uiso
O24_14 O 0.441010 0.429035 0.637403 0.0127 Uiso
C114_14 C 0.392122 0.410961 0.594069 0.0127 Uiso
O25_14 O 0.580663 0.665109 0.564275 0.0127 Uiso
C115_14 C 0.546543 0.616863 0.600843 0.0127 Uiso
O26_14 O 0.325126 0.587789 0.580771 0.0127 Uiso
C116_14 C 0.318213 0.609738 0.516549 0.0127 Uiso
H7_14 H 0.302704 0.642235 0.819992 . .
H8_14 H 0.263752 0.638115 0.807906 . .
H9_14 H 0.266588 0.612362 0.84601 . .
H10_14 H 0.0585375 0.357162 0.728394 . .
H11_14 H 0.0664464 0.329925 0.758062 . .
H12_14 H 0.0955131 0.372925 0.757606 . .
H14_14 H 0.282455 0.420955 0.711007 . .
H15_14 H 0.290645 0.387882 0.71607 . .
H16_14 H 0.259382 0.388509 0.746513 . .
H40_14 H 0.389255 0.428846 0.575727 . .
H41_14 H 0.403188 0.39978 0.575271 . .
H42_14 H 0.368042 0.391871 0.604939 . .
H43_14 H 0.436323 0.639843 0.683018 . .
H44_14 H 0.454596 0.530352 0.51374 . .
H45_14 H 0.46643 0.556913 0.722933 . .
H46_14 H 0.487999 0.623813 0.608009 . .
H47_14 H 0.447753 0.458071 0.718162 . .
H48_14 H 0.340916 0.541816 0.812531 . .
H49_14 H 0.395299 0.675563 0.591487 . .
H50_14 H 0.431433 0.598101 0.747149 . .
H51_14 H 0.389838 0.581303 0.578864 . .
H52_14 H 0.399137 0.491698 0.635426 . .
H53_14 H 0.424659 0.525801 0.575282 . .
H54_14 H 0.317714 0.506968 0.750459 . .
H55_14 H 0.476405 0.513346 0.748761 . .
H56_14 H 0.425096 0.683514 0.658108 . .
H57_14 H 0.407412 0.614957 0.811925 . .
H58_14 H 0.504514 0.584293 0.496579 . .
H59_14 H 0.352141 0.518656 0.687995 . .
H60_14 H 0.537539 0.592715 0.58682 . .
H61_14 H 0.56943 0.623979 0.617263 . .
H62_14 H 0.528167 0.615789 0.622326 . .
H63_14 H 0.320893 0.599922 0.487324 . .
H64_14 H 0.292304 0.597085 0.525428 . .
H65_14 H 0.327136 0.636037 0.513342 . .
H66_14 H 0.22358 0.423817 0.6104 . .
H67_14 H 0.290479 0.469147 0.725324 . .
H68_14 H 0.247969 0.524798 0.75447 . .
H69_14 H 0.158365 0.425894 0.697907 . .
H70_14 H 0.192468 0.434476 0.758052 . .
H71_14 H 0.264768 0.500001 0.586184 . .
H72_14 H 0.30651 0.536854 0.650315 . .
H74_14 H 0.185323 0.499849 0.645338 . .
H82_14 H 0.124737 0.343651 0.615172 . .
H83_14 H 0.34223 0.613598 0.741847 . .
H84_14 H 0.350181 0.591752 0.675226 . .
H87_14 H 0.25096 0.413113 0.836754 . .
H89_14 H 0.197019 0.409089 0.819594 . .
H90_14 H 0.257178 0.503747 0.504855 . .
H91_14 H 0.180012 0.370274 0.584573 . .
H92_14 H 0.173635 0.522587 0.582874 . .
H93_14 H 0.208482 0.534233 0.520802 . .
O24_15 O 0.570965 0.011975 0.637403 0.0127 Uiso
H41_15 H 0.60022 0.00340865 0.575271 . .
Nb1_15 Nb 0.521683 0.654543 0.753556 0.0063 Uiso
C1_15 C 0.516420 0.693119 0.725881 0.0127 Uiso
C2_15 C 0.553047 0.632893 0.756464 0.0127 Uiso
C3_15 C 0.530231 0.660528 0.819480 0.0127 Uiso
C4_15 C 0.492488 0.605415 0.780757 0.0127 Uiso
C5_15 C 0.486016 0.622984 0.708137 0.0127 Uiso
C6_15 C 0.478599 0.654666 0.779536 0.0127 Uiso
C7_15 C 0.569077 0.698971 0.765463 0.0127 Uiso
C8_15 C 0.547565 0.665055 0.693964 0.0127 Uiso
N1_15 N 0.514676 0.714552 0.709580 0.0127 Uiso
N4_15 N 0.477492 0.578957 0.793799 0.0127 Uiso
N6_15 N 0.456148 0.654850 0.793570 0.0127 Uiso
N7_15 N 0.593784 0.722056 0.773089 0.0127 Uiso
N8_15 N 0.561514 0.670844 0.663049 0.0127 Uiso
Fe1_15 Fe 0.522406 0.757278 0.678281 0.0063 Uiso
N9_15 N 0.501531 0.727187 0.619811 0.0127 Uiso
N10_15 N 0.571750 0.765732 0.655515 0.0127 Uiso
N11_15 N 0.546385 0.787391 0.737300 0.0127 Uiso
N12_15 N 0.472320 0.747202 0.700684 0.0127 Uiso
C9_15 C 0.494967 0.739396 0.585473 0.0127 Uiso
C10_15 C 0.495165 0.696009 0.618270 0.0127 Uiso
C11_15 C 0.586442 0.749663 0.672716 0.0127 Uiso
C12_15 C 0.587516 0.786742 0.624514 0.0127 Uiso
C13_15 C 0.544128 0.813776 0.746094 0.0127 Uiso
C14_15 C 0.563410 0.779650 0.764838 0.0127 Uiso
C15_15 C 0.460474 0.730982 0.736913 0.0127 Uiso
C16_15 C 0.453742 0.756674 0.679361 0.0127 Uiso
C25_15 C 0.482178 0.721400 0.549385 0.0127 Uiso
C26_15 C 0.482266 0.676362 0.582947 0.0127 Uiso
C27_15 C 0.616596 0.754679 0.658943 0.0127 Uiso
C28_15 C 0.617811 0.792454 0.609801 0.0127 Uiso
C29_15 C 0.558685 0.832213 0.781993 0.0127 Uiso
C30_15 C 0.577801 0.796116 0.799463 0.0127 Uiso
C31_15 C 0.430382 0.724297 0.751709 0.0127 Uiso
C32_15 C 0.422546 0.750385 0.693297 0.0127 Uiso
O1_15 O 0.475598 0.733977 0.514728 0.0127 Uiso
C41_15 C 0.475775 0.689204 0.548411 0.0127 Uiso
O2_15 O 0.628218 0.736623 0.679463 0.0127 Uiso
C42_15 C 0.632610 0.776725 0.626558 0.0127 Uiso
O3_15 O 0.555819 0.858857 0.789813 0.0127 Uiso
C43_15 C 0.575638 0.823563 0.808986 0.0127 Uiso
O4_15 O 0.419813 0.706371 0.791847 0.0127 Uiso
C44_15 C 0.410350 0.733939 0.730057 0.0127 Uiso
C49_15 C 0.652599 0.747133 0.703406 0.0127 Uiso
C50_15 C 0.578346 0.885817 0.764066 0.0127 Uiso
C51_15 C 0.400795 0.671782 0.783468 0.0127 Uiso
O9_15 O 0.678642 0.774343 0.695930 0.0127 Uiso
C54_15 C 0.647828 0.725455 0.739264 0.0127 Uiso
O10_15 O 0.582221 0.913996 0.769058 0.0127 Uiso
C55_15 C 0.596347 0.879876 0.732490 0.0127 Uiso
O11_15 O 0.404004 0.658459 0.752562 0.0127 Uiso
C56_15 C 0.375142 0.651546 0.816784 0.0127 Uiso
N17_15 N 0.528444 0.799801 0.647663 0.0127 Uiso
C59_15 C 0.529698 0.819349 0.625196 0.0127 Uiso
Nb2_15 Nb 0.533806 0.855016 0.579777 0.0063 Uiso
C76_15 C 0.489967 0.849753 0.607452 0.0127 Uiso
C77_15 C 0.586820 0.886380 0.576869 0.0127 Uiso
C78_15 C 0.536369 0.863564 0.513853 0.0127 Uiso
C79_15 C 0.553739 0.825821 0.552576 0.0127 Uiso
C80_15 C 0.490599 0.811932 0.553797 0.0127 Uiso
C81_15 C 0.536772 0.902410 0.567870 0.0127 Uiso
C82_15 C 0.549176 0.880898 0.639369 0.0127 Uiso
N24_15 N 0.466790 0.848009 0.623753 0.0127 Uiso
N25_15 N 0.615150 0.903636 0.576944 0.0127 Uiso
N26_15 N 0.537492 0.866185 0.478446 0.0127 Uiso
N27_15 N 0.565201 0.810825 0.539534 0.0127 Uiso
N28_15 N 0.467964 0.789481 0.539763 0.0127 Uiso
N29_15 N 0.538394 0.927117 0.560244 0.0127 Uiso
N30_15 N 0.557336 0.894847 0.670284 0.0127 Uiso
N31_15 N 0.441010 0.834864 0.713522 0.0127 Uiso
N32_15 N 0.472684 0.905083 0.677818 0.0127 Uiso
N33_15 N 0.425660 0.879718 0.596033 0.0127 Uiso
N34_15 N 0.391784 0.805653 0.632649 0.0127 Uiso
C91_15 C 0.422237 0.828300 0.747860 0.0127 Uiso
C92_15 C 0.465822 0.828498 0.715063 0.0127 Uiso
C93_15 C 0.503445 0.919775 0.660617 0.0127 Uiso
C94_15 C 0.467440 0.920849 0.708819 0.0127 Uiso
C95_15 C 0.397018 0.877461 0.587239 0.0127 Uiso
C96_15 C 0.450426 0.896743 0.568495 0.0127 Uiso
C97_15 C 0.396158 0.793807 0.596420 0.0127 Uiso
C98_15 C 0.363734 0.787075 0.653972 0.0127 Uiso
C99_15 C 0.427444 0.815511 0.783948 0.0127 Uiso
C100_15 C 0.472570 0.815599 0.750386 0.0127 Uiso
C101_15 C 0.528583 0.949929 0.674390 0.0127 Uiso
C102_15 C 0.492023 0.951144 0.723532 0.0127 Uiso
C103_15 C 0.393138 0.892018 0.551340 0.0127 Uiso
C104_15 C 0.448351 0.911134 0.533870 0.0127 Uiso
C105_15 C 0.372751 0.763715 0.581624 0.0127 Uiso
C106_15 C 0.338827 0.755879 0.640036 0.0127 Uiso
O20_15 O 0.408287 0.808931 0.818605 0.0127 Uiso
C107_15 C 0.453237 0.809108 0.784922 0.0127 Uiso
O21_15 O 0.558261 0.961551 0.653870 0.0127 Uiso
C108_15 C 0.522551 0.965943 0.706775 0.0127 Uiso
O22_15 O 0.363628 0.889152 0.543520 0.0127 Uiso
C109_15 C 0.418741 0.908971 0.524347 0.0127 Uiso
O23_15 O 0.380108 0.753146 0.541486 0.0127 Uiso
C110_15 C 0.343077 0.743683 0.603276 0.0127 Uiso
C111_15 C 0.572132 0.985932 0.629927 0.0127 Uiso
C112_15 C 0.359195 0.911679 0.569267 0.0127 Uiso
C113_15 C 0.395679 0.734128 0.549865 0.0127 Uiso
C114_15 C 0.589039 0.981161 0.594069 0.0127 Uiso
O25_15 O 0.334891 0.915554 0.564275 0.0127 Uiso
C115_15 C 0.383137 0.929680 0.600843 0.0127 Uiso
O26_15 O 0.412211 0.737337 0.580771 0.0127 Uiso
C116_15 C 0.390262 0.708475 0.516549 0.0127 Uiso
H7_15 H 0.357765 0.660469 0.819992 . .
H8_15 H 0.361885 0.625637 0.807906 . .
H9_15 H 0.387638 0.654226 0.84601 . .
H10_15 H 0.642838 0.701375 0.728394 . .
H11_15 H 0.670075 0.736522 0.758062 . .
H12_15 H 0.627075 0.722588 0.757606 . .
H14_15 H 0.579045 0.8615 0.711007 . .
H15_15 H 0.612118 0.902763 0.71607 . .
H16_15 H 0.611491 0.870872 0.746513 . .
H40_15 H 0.571154 0.960408 0.575727 . .
H42_15 H 0.608129 0.976171 0.604939 . .
H43_15 H 0.360157 0.796479 0.683018 . .
H44_15 H 0.469648 0.924244 0.51374 . .
H45_15 H 0.443087 0.909517 0.722933 . .
H46_15 H 0.376187 0.864186 0.608009 . .
H47_15 H 0.541929 0.989683 0.718162 . .
H48_15 H 0.458184 0.799101 0.812531 . .
H49_15 H 0.324437 0.719735 0.591487 . .
H50_15 H 0.401899 0.833332 0.747149 . .
H51_15 H 0.418697 0.808535 0.578864 . .
H52_15 H 0.508302 0.907439 0.635426 . .
H53_15 H 0.474199 0.898858 0.575282 . .
H54_15 H 0.493032 0.810746 0.750459 . .
H55_15 H 0.486654 0.963059 0.748761 . .
H56_15 H 0.316486 0.741581 0.658108 . .
H57_15 H 0.385043 0.792455 0.811925 . .
H58_15 H 0.415707 0.920221 0.496579 . .
H59_15 H 0.481344 0.833485 0.687995 . .
H60_15 H 0.407285 0.944824 0.58682 . .
H61_15 H 0.376021 0.945451 0.617263 . .
H62_15 H 0.384211 0.912378 0.622326 . .
H63_15 H 0.400078 0.720971 0.487324 . .
H64_15 H 0.402915 0.695219 0.525428 . .
H65_15 H 0.363963 0.691099 0.513342 . .
H66_15 H 0.576183 0.799764 0.6104 . .
H67_15 H 0.530853 0.821332 0.725324 . .
H68_15 H 0.475202 0.723171 0.75447 . .
H69_15 H 0.574106 0.73247 0.697907 . .
H70_15 H 0.565524 0.757992 0.758052 . .
H71_15 H 0.499999 0.764767 0.586184 . .
H72_15 H 0.463146 0.769656 0.650315 . .
H74_15 H 0.500151 0.685474 0.645338 . .
H82_15 H 0.656349 0.781087 0.615172 . .
H83_15 H 0.386402 0.728632 0.741847 . .
H84_15 H 0.408248 0.758429 0.675226 . .
H87_15 H 0.586887 0.837847 0.836754 . .
H89_15 H 0.590911 0.78793 0.819594 . .
H90_15 H 0.496253 0.753432 0.504855 . .
H91_15 H 0.629726 0.809738 0.584573 . .
H92_15 H 0.477413 0.651047 0.582874 . .
H93_15 H 0.465767 0.67425 0.520802 . .
Nb1_16 Nb 0.012123 0.200473 0.086890 0.0063 Uiso
C2_16 C 0.033773 0.253487 0.089798 0.0127 Uiso
C3_16 C 0.006138 0.203036 0.152814 0.0127 Uiso
C4_16 C 0.061251 0.220406 0.114091 0.0127 Uiso
C5_16 C 0.043682 0.196365 0.041471 0.0127 Uiso
C6_16 C 0.012000 0.157266 0.112870 0.0127 Uiso
C8_16 C 0.001611 0.215843 0.027298 0.0127 Uiso
N4_16 N 0.087709 0.231868 0.127133 0.0127 Uiso
N5_9 N 0.061976 0.195111 0.019004 0.0127 Uiso
N6_16 N 0.011816 0.134631 0.126904 0.0127 Uiso
O11_16 O 0.008207 0.078878 0.085896 0.0127 Uiso
C56_16 C 0.015120 0.056929 0.150118 0.0127 Uiso
H7_16 H 0.00619772 0.0306297 0.153325 . .
H8_16 H 0.0410294 0.0695814 0.141239 . .
H9_16 H 0.0124404 0.0667451 0.179343 . .
Fe4_9 Fe 0.098461 0.189072 0.988385 0.0063 Uiso
H92_16 H 0.0156194 0.159699 0.916208 . .
C1_16 C 0.973547 0.156634 0.059215 0.0127 Uiso
C7_16 C 0.967695 0.203439 0.098797 0.0127 Uiso
N1_16 N 0.952114 0.133457 0.042914 0.0127 Uiso
N7_16 N 0.944610 0.205061 0.106423 0.0127 Uiso
Fe1_16 Fe 0.909388 0.098461 0.011615 0.0063 Uiso
N11_16 N 0.879275 0.092327 0.070634 0.0127 Uiso
N12_16 N 0.919464 0.058451 0.034018 0.0127 Uiso
C11_16 C 0.917003 0.170112 0.006050 0.0127 Uiso
C13_16 C 0.852890 0.063685 0.079428 0.0127 Uiso
C14_16 C 0.887016 0.117093 0.098172 0.0127 Uiso
C15_16 C 0.935684 0.062825 0.070247 0.0127 Uiso
C16_16 C 0.909992 0.030401 0.012695 0.0127 Uiso
C29_16 C 0.834453 0.059805 0.115327 0.0127 Uiso
C30_16 C 0.870550 0.115018 0.132797 0.0127 Uiso
C31_16 C 0.942369 0.039418 0.085043 0.0127 Uiso
C32_16 C 0.916281 0.005494 0.026631 0.0127 Uiso
O2_16 O 0.930043 0.224928 0.012797 0.0127 Uiso
O3_16 O 0.807809 0.030295 0.123147 0.0127 Uiso
C43_16 C 0.843103 0.085408 0.142320 0.0127 Uiso
O4_16 O 0.960295 0.046775 0.125181 0.0127 Uiso
C44_16 C 0.932727 0.009744 0.063391 0.0127 Uiso
C49_16 C 0.919533 0.238799 0.036740 0.0127 Uiso
C50_16 C 0.780849 0.025862 0.097400 0.0127 Uiso
C51_16 C 0.994884 0.062346 0.116802 0.0127 Uiso
O9_16 O 0.892323 0.237632 0.029264 0.0127 Uiso
C54_16 C 0.941211 0.255706 0.072598 0.0127 Uiso
O10_16 O 0.752670 0.001558 0.102392 0.0127 Uiso
C55_16 C 0.786790 0.049804 0.065824 0.0127 Uiso
H10_16 H 0.965291 0.274796 0.0617274 . .
H11_16 H 0.930145 0.266887 0.0913958 . .
H12_16 H 0.944079 0.23782 0.0909393 . .
H14_16 H 0.805166 0.050878 0.0443405 . .
H15_16 H 0.763903 0.0426881 0.0494038 . .
H16_16 H 0.795794 0.0739516 0.0798467 . .
H54_16 H 0.855921 0.0156194 0.0837923 . .
H67_16 H 0.845334 0.042854 0.0586576 . .
H68_16 H 0.943495 0.085364 0.0878032 . .
H69_16 H 0.934196 0.174969 0.0312404 . .
H70_16 H 0.908675 0.140865 0.0913849 . .
H87_16 H 0.82882 0.0823735 0.170088 . .
H89_16 H 0.878737 0.136314 0.152927 . .
N8_16 N 0.995822 0.224003 0.996383 0.0127 Uiso
N9_16 N 0.939479 0.107677 0.953145 0.0127 Uiso
N10_16 N 0.900934 0.139351 0.988849 0.0127 Uiso
C9_16 C 0.927270 0.088904 0.918807 0.0127 Uiso
C10_16 C 0.970657 0.132489 0.951604 0.0127 Uiso
C12_16 C 0.879924 0.134107 0.957848 0.0127 Uiso
C25_16 C 0.945266 0.094111 0.882719 0.0127 Uiso
C26_16 C 0.990304 0.139237 0.916281 0.0127 Uiso
C27_16 C 0.911987 0.195250 0.992277 0.0127 Uiso
C28_16 C 0.874212 0.158690 0.943135 0.0127 Uiso
O1_16 O 0.932689 0.074954 0.848062 0.0127 Uiso
C41_16 C 0.977462 0.119904 0.881745 0.0127 Uiso
C42_16 C 0.889941 0.189218 0.959892 0.0127 Uiso
N17_16 N 0.866866 0.061976 0.980996 0.0127 Uiso
C59_16 C 0.847318 0.043682 0.958529 0.0127 Uiso
Nb2_16 Nb 0.811651 0.012123 0.913110 0.0063 Uiso
C77_16 C 0.780287 0.033773 0.910202 0.0127 Uiso
C78_16 C 0.803103 0.006138 0.847186 0.0127 Uiso
C79_16 C 0.840846 0.061251 0.885909 0.0127 Uiso
C80_16 C 0.854735 0.012000 0.887130 0.0127 Uiso
C82_16 C 0.785769 0.001611 0.972702 0.0127 Uiso
N25_16 N 0.763031 0.044847 0.910277 0.0127 Uiso
N26_16 N 0.800482 0.004640 0.811779 0.0127 Uiso
N27_16 N 0.855842 0.087709 0.872867 0.0127 Uiso
N28_16 N 0.877186 0.011816 0.873096 0.0127 Uiso
O26_16 O 0.929330 0.008207 0.914104 0.0127 Uiso
C116_16 C 0.958192 0.015120 0.849882 0.0127 Uiso
H63_16 H 0.945695 0.0124404 0.820657 . .
H64_16 H 0.971448 0.0410294 0.858761 . .
H65_16 H 0.975568 0.00619772 0.846675 . .
H66_16 H 0.866903 0.109753 0.943734 . .
H71_16 H 0.9019 0.0685654 0.919517 . .
H72_16 H 0.897011 0.0268232 0.983648 . .
H74_16 H 0.981193 0.148011 0.978672 . .
H82_16 H 0.88558 0.208596 0.948505 . .
H90_16 H 0.913235 0.0761552 0.838188 . .
H91_16 H 0.856929 0.153321 0.917906 . .
H93_16 H 0.992417 0.124851 0.854136 . .
N30_16 N 0.771820 0.995822 0.003617 0.0127 Uiso
N31_16 N 0.831803 0.939479 0.046855 0.0127 Uiso
N32_16 N 0.761584 0.900934 0.011151 0.0127 Uiso
N35_8 N 0.804889 0.866866 0.019004 0.0127 Uiso
C91_16 C 0.838367 0.927270 0.081193 0.0127 Uiso
C92_16 C 0.838169 0.970657 0.048396 0.0127 Uiso
C94_16 C 0.745818 0.879924 0.042152 0.0127 Uiso
C99_16 C 0.851156 0.945266 0.117281 0.0127 Uiso
C100_16 C 0.851068 0.990304 0.083719 0.0127 Uiso
C101_16 C 0.716738 0.911987 0.007723 0.0127 Uiso
C102_16 C 0.715523 0.874212 0.056865 0.0127 Uiso
O20_16 O 0.857736 0.932689 0.151938 0.0127 Uiso
C107_16 C 0.857559 0.977462 0.118255 0.0127 Uiso
C108_16 C 0.700724 0.889941 0.040108 0.0127 Uiso
H43_16 H 0.870187 0.897011 0.0163518 . .
H45_16 H 0.75715 0.866903 0.0562663 . .
H47_16 H 0.676984 0.88558 0.0514951 . .
H48_16 H 0.867566 0.992417 0.145864 . .
H50_16 H 0.833335 0.9019 0.0804825 . .
H55_16 H 0.703608 0.856929 0.082094 . .
H57_16 H 0.874212 0.925922 0.145258 . .
H59_16 H 0.833182 0.981193 0.0213284 . .
H83_16 H 0.938035 0.991103 0.07518 . .
H84_16 H 0.908238 0.983152 0.00855886 . .
C76_16 C 0.816914 0.973547 0.940785 0.0127 Uiso
C81_16 C 0.764257 0.967695 0.901203 0.0127 Uiso
N24_16 N 0.818658 0.952114 0.957086 0.0127 Uiso
N29_16 N 0.739550 0.944610 0.893577 0.0127 Uiso
Fe5_8 Fe 0.810928 0.909388 0.988385 0.0063 Uiso
N33_16 N 0.786949 0.879275 0.929366 0.0127 Uiso
N34_16 N 0.861014 0.919464 0.965982 0.0127 Uiso
C93_16 C 0.746892 0.917003 0.993950 0.0127 Uiso
C95_16 C 0.789206 0.852890 0.920572 0.0127 Uiso
C96_16 C 0.769924 0.887016 0.901828 0.0127 Uiso
C97_16 C 0.872860 0.935684 0.929753 0.0127 Uiso
C98_16 C 0.879592 0.909992 0.987305 0.0127 Uiso
C103_16 C 0.774649 0.834453 0.884673 0.0127 Uiso
C104_16 C 0.755533 0.870550 0.867203 0.0127 Uiso
C105_16 C 0.902952 0.942369 0.914957 0.0127 Uiso
C106_16 C 0.910788 0.916281 0.973369 0.0127 Uiso
O21_16 O 0.705116 0.930043 0.987203 0.0127 Uiso
O22_16 O 0.777515 0.807809 0.876853 0.0127 Uiso
C109_16 C 0.757696 0.843103 0.857680 0.0127 Uiso
O23_16 O 0.913521 0.960295 0.874819 0.0127 Uiso
C110_16 C 0.922984 0.932727 0.936609 0.0127 Uiso
C111_16 C 0.680735 0.919533 0.963260 0.0127 Uiso
C112_16 C 0.754988 0.780849 0.902600 0.0127 Uiso
C113_16 C 0.932539 0.994884 0.883198 0.0127 Uiso
O24_16 O 0.654692 0.892323 0.970736 0.0127 Uiso
C114_16 C 0.685506 0.941211 0.927402 0.0127 Uiso
O25_16 O 0.751113 0.752670 0.897608 0.0127 Uiso
C115_16 C 0.736987 0.786790 0.934176 0.0127 Uiso
H40_16 H 0.706258 0.944079 0.909061 . .
H41_16 H 0.663258 0.930145 0.908604 . .
H42_16 H 0.690496 0.965291 0.938273 . .
H44_16 H 0.742423 0.878737 0.847073 . .
H46_16 H 0.80248 0.845334 0.941342 . .
H49_16 H 0.946931 0.938035 0.92482 . .
H51_16 H 0.858131 0.943495 0.912197 . .
H52_16 H 0.759227 0.934196 0.96876 . .
H53_16 H 0.767809 0.908675 0.908615 . .
H56_16 H 0.925085 0.908238 0.991441 . .
H58_16 H 0.746446 0.82882 0.829912 . .
H60_16 H 0.721843 0.795794 0.920153 . .
H61_16 H 0.721215 0.763903 0.950596 . .
H62_16 H 0.754288 0.805166 0.955659 . .
H49_17 H 0.0619653 0.00889652 0.92482 . .
H56_17 H 0.0917624 0.0168477 0.991441 . .
N30_17 N 0.004178 0.775997 0.003617 0.0127 Uiso
N31_17 N 0.060521 0.892323 0.046855 0.0127 Uiso
N32_17 N 0.099066 0.860649 0.011151 0.0127 Uiso
N35_9 N 0.133134 0.938024 0.019004 0.0127 Uiso
C91_17 C 0.072730 0.911096 0.081193 0.0127 Uiso
C92_17 C 0.029343 0.867511 0.048396 0.0127 Uiso
C94_17 C 0.120076 0.865893 0.042152 0.0127 Uiso
C99_17 C 0.054734 0.905889 0.117281 0.0127 Uiso
C100_17 C 0.009696 0.860763 0.083719 0.0127 Uiso
C101_17 C 0.088013 0.804750 0.007723 0.0127 Uiso
C102_17 C 0.125788 0.841310 0.056865 0.0127 Uiso
O20_17 O 0.067311 0.925046 0.151938 0.0127 Uiso
C107_17 C 0.022538 0.880096 0.118255 0.0127 Uiso
C108_17 C 0.110059 0.810782 0.040108 0.0127 Uiso
H43_17 H 0.102989 0.973177 0.0163518 . .
H45_17 H 0.133097 0.890247 0.0562663 . .
H47_17 H 0.11442 0.791404 0.0514951 . .
H48_17 H 0.00758289 0.875149 0.145864 . .
H50_17 H 0.0980999 0.931435 0.0804825 . .
H55_17 H 0.143071 0.846679 0.082094 . .
H57_17 H 0.0740782 0.94829 0.145258 . .
H59_17 H 0.0188073 0.851989 0.0213284 . .
H83_17 H 0.00889652 0.946931 0.07518 . .
H84_17 H 0.0168477 0.925085 0.00855886 . .
C76_17 C 0.026453 0.843366 0.940785 0.0127 Uiso
C81_17 C 0.032305 0.796561 0.901203 0.0127 Uiso
N24_17 N 0.047886 0.866543 0.957086 0.0127 Uiso
N29_17 N 0.055390 0.794939 0.893577 0.0127 Uiso
Fe5_9 Fe 0.090612 0.901539 0.988385 0.0063 Uiso
N33_17 N 0.120725 0.907673 0.929366 0.0127 Uiso
N34_17 N 0.080536 0.941549 0.965982 0.0127 Uiso
C93_17 C 0.082997 0.829888 0.993950 0.0127 Uiso
C95_17 C 0.147110 0.936315 0.920572 0.0127 Uiso
C96_17 C 0.112984 0.882907 0.901828 0.0127 Uiso
C97_17 C 0.064316 0.937175 0.929753 0.0127 Uiso
C98_17 C 0.090008 0.969599 0.987305 0.0127 Uiso
C103_17 C 0.165547 0.940195 0.884673 0.0127 Uiso
C104_17 C 0.129450 0.884982 0.867203 0.0127 Uiso
C105_17 C 0.057631 0.960582 0.914957 0.0127 Uiso
C106_17 C 0.083719 0.994506 0.973369 0.0127 Uiso
O21_17 O 0.069957 0.775072 0.987203 0.0127 Uiso
O22_17 O 0.192191 0.969705 0.876853 0.0127 Uiso
C109_17 C 0.156897 0.914592 0.857680 0.0127 Uiso
O23_17 O 0.039705 0.953225 0.874819 0.0127 Uiso
C110_17 C 0.067273 0.990256 0.936609 0.0127 Uiso
C111_17 C 0.080467 0.761201 0.963260 0.0127 Uiso
C112_17 C 0.219151 0.974138 0.902600 0.0127 Uiso
C113_17 C 0.005116 0.937654 0.883198 0.0127 Uiso
O24_17 O 0.107677 0.762368 0.970736 0.0127 Uiso
C114_17 C 0.058789 0.744294 0.927402 0.0127 Uiso
O25_17 O 0.247330 0.998442 0.897608 0.0127 Uiso
C115_17 C 0.213210 0.950196 0.934176 0.0127 Uiso
H40_17 H 0.0559212 0.76218 0.909061 . .
H41_17 H 0.069855 0.733113 0.908604 . .
H42_17 H 0.0347085 0.725204 0.938273 . .
H44_17 H 0.121263 0.863686 0.847073 . .
H46_17 H 0.154666 0.957146 0.941342 . .
H51_17 H 0.0565047 0.914636 0.912197 . .
H52_17 H 0.0658037 0.825031 0.96876 . .
H53_17 H 0.0913254 0.859135 0.908615 . .
H58_17 H 0.17118 0.917626 0.829912 . .
H60_17 H 0.204206 0.926048 0.920153 . .
H61_17 H 0.236097 0.957312 0.950596 . .
H62_17 H 0.194834 0.949122 0.955659 . .
Nb1_17 Nb 0.799527 0.811651 0.086890 0.0063 Uiso
C1_17 C 0.843366 0.816914 0.059215 0.0127 Uiso
C2_17 C 0.746513 0.780287 0.089798 0.0127 Uiso
C3_17 C 0.796964 0.803103 0.152814 0.0127 Uiso
C4_17 C 0.779594 0.840846 0.114091 0.0127 Uiso
C5_17 C 0.803635 0.847318 0.041471 0.0127 Uiso
C6_17 C 0.842734 0.854735 0.112870 0.0127 Uiso
C7_17 C 0.796561 0.764257 0.098797 0.0127 Uiso
C8_17 C 0.784157 0.785769 0.027298 0.0127 Uiso
N1_17 N 0.866543 0.818658 0.042914 0.0127 Uiso
N4_17 N 0.768132 0.855842 0.127133 0.0127 Uiso
N6_17 N 0.865369 0.877186 0.126904 0.0127 Uiso
N7_17 N 0.794939 0.739550 0.106423 0.0127 Uiso
Fe1_17 Fe 0.901539 0.810928 0.011615 0.0063 Uiso
N11_17 N 0.907673 0.786949 0.070634 0.0127 Uiso
N12_17 N 0.941549 0.861014 0.034018 0.0127 Uiso
C11_17 C 0.829888 0.746892 0.006050 0.0127 Uiso
C13_17 C 0.936315 0.789206 0.079428 0.0127 Uiso
C14_17 C 0.882907 0.769924 0.098172 0.0127 Uiso
C15_17 C 0.937175 0.872860 0.070247 0.0127 Uiso
C16_17 C 0.969599 0.879592 0.012695 0.0127 Uiso
C29_17 C 0.940195 0.774649 0.115327 0.0127 Uiso
C30_17 C 0.884982 0.755533 0.132797 0.0127 Uiso
C31_17 C 0.960582 0.902952 0.085043 0.0127 Uiso
C32_17 C 0.994506 0.910788 0.026631 0.0127 Uiso
O2_17 O 0.775072 0.705116 0.012797 0.0127 Uiso
O3_17 O 0.969705 0.777515 0.123147 0.0127 Uiso
C43_17 C 0.914592 0.757696 0.142320 0.0127 Uiso
O4_17 O 0.953225 0.913521 0.125181 0.0127 Uiso
C44_17 C 0.990256 0.922984 0.063391 0.0127 Uiso
C49_17 C 0.761201 0.680735 0.036740 0.0127 Uiso
C50_17 C 0.974138 0.754988 0.097400 0.0127 Uiso
C51_17 C 0.937654 0.932539 0.116802 0.0127 Uiso
O9_17 O 0.762368 0.654692 0.029264 0.0127 Uiso
C54_17 C 0.744294 0.685506 0.072598 0.0127 Uiso
O10_17 O 0.998442 0.751113 0.102392 0.0127 Uiso
C55_17 C 0.950196 0.736987 0.065824 0.0127 Uiso
O11_17 O 0.921122 0.929330 0.085896 0.0127 Uiso
C56_17 C 0.943071 0.958192 0.150118 0.0127 Uiso
H7_17 H 0.96937 0.975568 0.153325 . .
H8_17 H 0.930419 0.971448 0.141239 . .
H9_17 H 0.933255 0.945695 0.179343 . .
H10_17 H 0.725204 0.690496 0.0617274 . .
H11_17 H 0.733113 0.663258 0.0913958 . .
H12_17 H 0.76218 0.706258 0.0909393 . .
H14_17 H 0.949122 0.754288 0.0443405 . .
H15_17 H 0.957312 0.721215 0.0494038 . .
H16_17 H 0.926048 0.721843 0.0798467 . .
H54_17 H 0.984381 0.840301 0.0837923 . .
H67_17 H 0.957146 0.80248 0.0586576 . .
H68_17 H 0.914636 0.858131 0.0878032 . .
H69_17 H 0.825031 0.759227 0.0312404 . .
H70_17 H 0.859135 0.767809 0.0913849 . .
H87_17 H 0.917626 0.746446 0.170088 . .
H89_17 H 0.863686 0.742423 0.152927 . .
N8_17 N 0.775997 0.771820 0.996383 0.0127 Uiso
N9_17 N 0.892323 0.831803 0.953145 0.0127 Uiso
N10_17 N 0.860649 0.761584 0.988849 0.0127 Uiso
C9_17 C 0.911096 0.838367 0.918807 0.0127 Uiso
C10_17 C 0.867511 0.838169 0.951604 0.0127 Uiso
C12_17 C 0.865893 0.745818 0.957848 0.0127 Uiso
C25_17 C 0.905889 0.851156 0.882719 0.0127 Uiso
C26_17 C 0.860763 0.851068 0.916281 0.0127 Uiso
C27_17 C 0.804750 0.716738 0.992277 0.0127 Uiso
C28_17 C 0.841310 0.715523 0.943135 0.0127 Uiso
O1_17 O 0.925046 0.857736 0.848062 0.0127 Uiso
C41_17 C 0.880096 0.857559 0.881745 0.0127 Uiso
C42_17 C 0.810782 0.700724 0.959892 0.0127 Uiso
N17_17 N 0.938024 0.804889 0.980996 0.0127 Uiso
C59_17 C 0.956318 0.803635 0.958529 0.0127 Uiso
Nb2_17 Nb 0.987877 0.799527 0.913110 0.0063 Uiso
C77_17 C 0.966227 0.746513 0.910202 0.0127 Uiso
C78_17 C 0.993862 0.796964 0.847186 0.0127 Uiso
C79_17 C 0.938749 0.779594 0.885909 0.0127 Uiso
C80_17 C 0.988000 0.842734 0.887130 0.0127 Uiso
C82_17 C 0.998389 0.784157 0.972702 0.0127 Uiso
N25_17 N 0.955153 0.718183 0.910277 0.0127 Uiso
N26_17 N 0.995360 0.795841 0.811779 0.0127 Uiso
N27_17 N 0.912291 0.768132 0.872867 0.0127 Uiso
N28_17 N 0.988184 0.865369 0.873096 0.0127 Uiso
O26_17 O 0.991793 0.921122 0.914104 0.0127 Uiso
C116_17 C 0.984880 0.943071 0.849882 0.0127 Uiso
H63_17 H 0.98756 0.933255 0.820657 . .
H64_17 H 0.958971 0.930419 0.858761 . .
H65_17 H 0.993802 0.96937 0.846675 . .
H66_17 H 0.890247 0.75715 0.943734 . .
H71_17 H 0.931435 0.833335 0.919517 . .
H72_17 H 0.973177 0.870187 0.983648 . .
H74_17 H 0.851989 0.833182 0.978672 . .
H82_17 H 0.791404 0.676984 0.948505 . .
H90_17 H 0.923845 0.83708 0.838188 . .
H91_17 H 0.846679 0.703608 0.917906 . .
H92_17 H 0.840301 0.855921 0.916208 . .
H93_17 H 0.875149 0.867566 0.854136 . .
C1_18 C 0.183086 0.026453 0.059215 0.0127 Uiso
C7_18 C 0.235743 0.032305 0.098797 0.0127 Uiso
N1_18 N 0.181342 0.047886 0.042914 0.0127 Uiso
N7_18 N 0.260450 0.055390 0.106423 0.0127 Uiso
Fe1_18 Fe 0.189072 0.090612 0.011615 0.0063 Uiso
N11_18 N 0.213051 0.120725 0.070634 0.0127 Uiso
N12_18 N 0.138986 0.080536 0.034018 0.0127 Uiso
C11_18 C 0.253108 0.082997 0.006050 0.0127 Uiso
C13_18 C 0.210794 0.147110 0.079428 0.0127 Uiso
C14_18 C 0.230076 0.112984 0.098172 0.0127 Uiso
C15_18 C 0.127140 0.064316 0.070247 0.0127 Uiso
C16_18 C 0.120408 0.090008 0.012695 0.0127 Uiso
C29_18 C 0.225351 0.165547 0.115327 0.0127 Uiso
C30_18 C 0.244467 0.129450 0.132797 0.0127 Uiso
C31_18 C 0.097048 0.057631 0.085043 0.0127 Uiso
C32_18 C 0.089212 0.083719 0.026631 0.0127 Uiso
O2_18 O 0.294884 0.069957 0.012797 0.0127 Uiso
O3_18 O 0.222485 0.192191 0.123147 0.0127 Uiso
C43_18 C 0.242304 0.156897 0.142320 0.0127 Uiso
O4_18 O 0.086479 0.039705 0.125181 0.0127 Uiso
C44_18 C 0.077016 0.067273 0.063391 0.0127 Uiso
C49_18 C 0.319265 0.080467 0.036740 0.0127 Uiso
C50_18 C 0.245012 0.219151 0.097400 0.0127 Uiso
C51_18 C 0.067461 0.005116 0.116802 0.0127 Uiso
O9_18 O 0.345308 0.107677 0.029264 0.0127 Uiso
C54_18 C 0.314494 0.058789 0.072598 0.0127 Uiso
O10_18 O 0.248887 0.247330 0.102392 0.0127 Uiso
C55_18 C 0.263013 0.213210 0.065824 0.0127 Uiso
N30_18 N 0.224003 0.228180 0.003617 0.0127 Uiso
N31_18 N 0.107677 0.168197 0.046855 0.0127 Uiso
N32_18 N 0.139351 0.238416 0.011151 0.0127 Uiso
C91_18 C 0.088904 0.161633 0.081193 0.0127 Uiso
C92_18 C 0.132489 0.161831 0.048396 0.0127 Uiso
C94_18 C 0.134107 0.254182 0.042152 0.0127 Uiso
C99_18 C 0.094111 0.148844 0.117281 0.0127 Uiso
C100_18 C 0.139237 0.148932 0.083719 0.0127 Uiso
C101_18 C 0.195250 0.283262 0.007723 0.0127 Uiso
C102_18 C 0.158690 0.284477 0.056865 0.0127 Uiso
O20_18 O 0.074954 0.142264 0.151938 0.0127 Uiso
C107_18 C 0.119904 0.142441 0.118255 0.0127 Uiso
C108_18 C 0.189218 0.299276 0.040108 0.0127 Uiso
H10_18 H 0.309504 0.0347085 0.0617274 . .
H11_18 H 0.336742 0.069855 0.0913958 . .
H12_18 H 0.293742 0.0559212 0.0909393 . .
H14_18 H 0.245712 0.194834 0.0443405 . .
H15_18 H 0.278785 0.236097 0.0494038 . .
H16_18 H 0.278157 0.204206 0.0798467 . .
H43_18 H 0.0268232 0.129813 0.0163518 . .
H45_18 H 0.109753 0.24285 0.0562663 . .
H47_18 H 0.208596 0.323016 0.0514951 . .
H48_18 H 0.124851 0.132434 0.145864 . .
H50_18 H 0.0685654 0.166665 0.0804825 . .
H54_18 H 0.159699 0.144079 0.0837923 . .
H55_18 H 0.153321 0.296392 0.082094 . .
H57_18 H 0.0517099 0.125788 0.145258 . .
H59_18 H 0.148011 0.166818 0.0213284 . .
H67_18 H 0.19752 0.154666 0.0586576 . .
H68_18 H 0.141869 0.0565047 0.0878032 . .
H69_18 H 0.240773 0.0658037 0.0312404 . .
H70_18 H 0.232191 0.0913254 0.0913849 . .
H83_18 H 0.0530687 0.0619653 0.07518 . .
H84_18 H 0.0749147 0.0917624 0.00855886 . .
H87_18 H 0.253554 0.17118 0.170088 . .
H89_18 H 0.257577 0.121263 0.152927 . .
N8_18 N 0.228180 0.004178 0.996383 0.0127 Uiso
N9_18 N 0.168197 0.060521 0.953145 0.0127 Uiso
N10_18 N 0.238416 0.099066 0.988849 0.0127 Uiso
C9_18 C 0.161633 0.072730 0.918807 0.0127 Uiso
C10_18 C 0.161831 0.029343 0.951604 0.0127 Uiso
C12_18 C 0.254182 0.120076 0.957848 0.0127 Uiso
C25_18 C 0.148844 0.054734 0.882719 0.0127 Uiso
C26_18 C 0.148932 0.009696 0.916281 0.0127 Uiso
C27_18 C 0.283262 0.088013 0.992277 0.0127 Uiso
C28_18 C 0.284477 0.125788 0.943135 0.0127 Uiso
O1_18 O 0.142264 0.067311 0.848062 0.0127 Uiso
C41_18 C 0.142441 0.022538 0.881745 0.0127 Uiso
C42_18 C 0.299276 0.110059 0.959892 0.0127 Uiso
N17_18 N 0.195111 0.133134 0.980996 0.0127 Uiso
C59_18 C 0.196365 0.152682 0.958529 0.0127 Uiso
Nb2_18 Nb 0.200473 0.188349 0.913110 0.0063 Uiso
C76_18 C 0.156634 0.183086 0.940785 0.0127 Uiso
C77_18 C 0.253487 0.219713 0.910202 0.0127 Uiso
C78_18 C 0.203036 0.196897 0.847186 0.0127 Uiso
C79_18 C 0.220406 0.159154 0.885909 0.0127 Uiso
C80_18 C 0.157266 0.145265 0.887130 0.0127 Uiso
C81_18 C 0.203439 0.235743 0.901203 0.0127 Uiso
C82_18 C 0.215843 0.214231 0.972702 0.0127 Uiso
N24_18 N 0.133457 0.181342 0.957086 0.0127 Uiso
N25_18 N 0.281817 0.236969 0.910277 0.0127 Uiso
N26_18 N 0.204159 0.199518 0.811779 0.0127 Uiso
N27_18 N 0.231868 0.144158 0.872867 0.0127 Uiso
N28_18 N 0.134631 0.122814 0.873096 0.0127 Uiso
N29_18 N 0.205061 0.260450 0.893577 0.0127 Uiso
N33_18 N 0.092327 0.213051 0.929366 0.0127 Uiso
N34_18 N 0.058451 0.138986 0.965982 0.0127 Uiso
C93_18 C 0.170112 0.253108 0.993950 0.0127 Uiso
C95_18 C 0.063685 0.210794 0.920572 0.0127 Uiso
C96_18 C 0.117093 0.230076 0.901828 0.0127 Uiso
C97_18 C 0.062825 0.127140 0.929753 0.0127 Uiso
C98_18 C 0.030401 0.120408 0.987305 0.0127 Uiso
C103_18 C 0.059805 0.225351 0.884673 0.0127 Uiso
C104_18 C 0.115018 0.244467 0.867203 0.0127 Uiso
C105_18 C 0.039418 0.097048 0.914957 0.0127 Uiso
C106_18 C 0.005494 0.089212 0.973369 0.0127 Uiso
O21_18 O 0.224928 0.294884 0.987203 0.0127 Uiso
O22_18 O 0.030295 0.222485 0.876853 0.0127 Uiso
C109_18 C 0.085408 0.242304 0.857680 0.0127 Uiso
O23_18 O 0.046775 0.086479 0.874819 0.0127 Uiso
C110_18 C 0.009744 0.077016 0.936609 0.0127 Uiso
C111_18 C 0.238799 0.319265 0.963260 0.0127 Uiso
C112_18 C 0.025862 0.245012 0.902600 0.0127 Uiso
C113_18 C 0.062346 0.067461 0.883198 0.0127 Uiso
O24_18 O 0.237632 0.345308 0.970736 0.0127 Uiso
C114_18 C 0.255706 0.314494 0.927402 0.0127 Uiso
O25_18 O 0.001558 0.248887 0.897608 0.0127 Uiso
C115_18 C 0.049804 0.263013 0.934176 0.0127 Uiso
O26_18 O 0.078878 0.070670 0.914104 0.0127 Uiso
C116_18 C 0.056929 0.041808 0.849882 0.0127 Uiso
H40_18 H 0.23782 0.293742 0.909061 . .
H41_18 H 0.266887 0.336742 0.908604 . .
H42_18 H 0.274796 0.309504 0.938273 . .
H44_18 H 0.136314 0.257577 0.847073 . .
H46_18 H 0.042854 0.19752 0.941342 . .
H51_18 H 0.085364 0.141869 0.912197 . .
H52_18 H 0.174969 0.240773 0.96876 . .
H53_18 H 0.140865 0.232191 0.908615 . .
H58_18 H 0.0823735 0.253554 0.829912 . .
H60_18 H 0.0739516 0.278157 0.920153 . .
H61_18 H 0.0426881 0.278785 0.950596 . .
H62_18 H 0.050878 0.245712 0.955659 . .
H63_18 H 0.0667451 0.0543047 0.820657 . .
H64_18 H 0.0695814 0.0285519 0.858761 . .
H65_18 H 0.0306297 0.024432 0.846675 . .
H66_18 H 0.24285 0.133097 0.943734 . .
H71_18 H 0.166665 0.0980999 0.919517 . .
H72_18 H 0.129813 0.102989 0.983648 . .
H74_18 H 0.166818 0.0188073 0.978672 . .
H82_18 H 0.323016 0.11442 0.948505 . .
H90_18 H 0.16292 0.0867649 0.838188 . .
H91_18 H 0.296392 0.143071 0.917906 . .
H93_18 H 0.132434 0.00758289 0.854136 . .
Nb1_18 Nb 0.188349 0.987877 0.086890 0.0063 Uiso
C2_18 C 0.219713 0.966227 0.089798 0.0127 Uiso
C3_18 C 0.196897 0.993862 0.152814 0.0127 Uiso
C4_18 C 0.159154 0.938749 0.114091 0.0127 Uiso
C5_18 C 0.152682 0.956318 0.041471 0.0127 Uiso
C6_18 C 0.145265 0.988000 0.112870 0.0127 Uiso
C8_18 C 0.214231 0.998389 0.027298 0.0127 Uiso
N4_18 N 0.144158 0.912291 0.127133 0.0127 Uiso
N6_18 N 0.122814 0.988184 0.126904 0.0127 Uiso
O11_18 O 0.070670 0.991793 0.085896 0.0127 Uiso
C56_18 C 0.041808 0.984880 0.150118 0.0127 Uiso
H7_18 H 0.024432 0.993802 0.153325 . .
H8_18 H 0.0285519 0.958971 0.141239 . .
H9_18 H 0.0543047 0.98756 0.179343 . .
H92_18 H 0.144079 0.984381 0.916208 . .
H49_18 H 0.991103 0.0530687 0.92482 . .
H56_18 H 0.983152 0.0749147 0.991441 . .
N15_10 N 0.451692 0.369872 0.079228 0.0127 Uiso
N16_10 N 0.515287 0.369444 0.077716 0.0127 Uiso
C21_10 C 0.465643 0.395065 0.051386 0.0127 Uiso
C22_10 C 0.428207 0.369690 0.104486 0.0127 Uiso
C23_10 C 0.530541 0.394496 0.104819 0.0127 Uiso
C24_10 C 0.532960 0.367445 0.045631 0.0127 Uiso
C33_10 C 0.356380 0.201996 0.003378 0.0127 Uiso
C34_10 C 0.299011 0.180392 0.011941 0.0127 Uiso
C35_10 C 0.297709 0.306365 0.012046 0.0127 Uiso
C36_10 C 0.355738 0.344541 0.006979 0.0127 Uiso
C37_10 C 0.457073 0.419075 0.048390 0.0127 Uiso
C38_10 C 0.418762 0.393010 0.102791 0.0127 Uiso
C39_10 C 0.563318 0.417595 0.100194 0.0127 Uiso
C40_10 C 0.565326 0.389967 0.040472 0.0127 Uiso
O5_10 O 0.384703 0.202162 0.012856 0.0127 Uiso
C45_10 C 0.326704 0.179671 0.022350 0.0127 Uiso
O6_10 O 0.267021 0.296628 0.029052 0.0127 Uiso
C46_10 C 0.325235 0.335523 0.024767 0.0127 Uiso
O7_10 O 0.473554 0.443776 0.018153 0.0127 Uiso
C47_10 C 0.433362 0.418733 0.074044 0.0127 Uiso
O8_10 O 0.577921 0.443229 0.129547 0.0127 Uiso
C48_10 C 0.581434 0.415953 0.068148 0.0127 Uiso
C53_10 C 0.578376 0.472595 0.120060 0.0127 Uiso
O13_10 O 0.557059 0.473393 0.100979 0.0127 Uiso
C58_10 C 0.608350 0.506032 0.135255 0.0127 Uiso
N21_10 N 0.415153 0.296795 0.087439 0.0127 Uiso
N22_10 N 0.479176 0.297223 0.088951 0.0127 Uiso
C64_10 C 0.403911 0.271602 0.115281 0.0127 Uiso
C65_10 C 0.391850 0.296977 0.062181 0.0127 Uiso
C66_10 C 0.469378 0.272171 0.061848 0.0127 Uiso
C67_10 C 0.498848 0.299222 0.121036 0.0127 Uiso
C72_10 C 0.371331 0.247592 0.118277 0.0127 Uiso
C73_10 C 0.359085 0.273657 0.063876 0.0127 Uiso
C74_10 C 0.479056 0.249072 0.066473 0.0127 Uiso
C75_10 C 0.508692 0.276700 0.126195 0.0127 Uiso
O16_10 O 0.363111 0.222891 0.148514 0.0127 Uiso
C85_10 C 0.347962 0.247934 0.092623 0.0127 Uiso
O17_10 O 0.468025 0.223438 0.037120 0.0127 Uiso
C86_10 C 0.498814 0.250714 0.098519 0.0127 Uiso
C87_10 C 0.342042 0.220253 0.181922 0.0127 Uiso
C88_10 C 0.439114 0.194072 0.046607 0.0127 Uiso
O18_10 O 0.334914 0.246044 0.190345 0.0127 Uiso
C89_10 C 0.327358 0.190299 0.208246 0.0127 Uiso
O19_10 O 0.416999 0.193274 0.065688 0.0127 Uiso
C90_10 C 0.435651 0.160635 0.031412 0.0127 Uiso
H1_10 H 0.506837 0.319363 0.143019 . .
H2_10 H 0.609729 0.505867 0.168707 . .
H3_10 H 0.605015 0.526428 0.125443 . .
H4_10 H 0.631097 0.508995 0.122154 . .
H6_10 H 0.421606 0.270513 0.136054 . .
H13_10 H 0.399789 0.316691 0.0395727 . .
H23_10 H 0.453646 0.270261 0.0360645 . .
H24_10 H 0.506507 0.232412 0.102223 . .
H29_10 H 0.341669 0.275072 0.0429257 . .
H30_10 H 0.52442 0.278938 0.152137 . .
H31_10 H 0.322026 0.229043 0.0946406 . .
H35_10 H 0.41192 0.140238 0.0412232 . .
H36_10 H 0.455436 0.157672 0.0445123 . .
H37_10 H 0.312199 0.168644 0.189405 . .
H38_10 H 0.312127 0.192517 0.231951 . .
H39_10 H 0.34698 0.187769 0.222685 . .
H76_10 H 0.520807 0.347303 0.0236472 . .
H77_10 H 0.377872 0.36718 0.0161108 . .
H79_10 H 0.578815 0.387728 0.0145298 . .
H80_10 H 0.416431 0.349975 0.127094 . .
H81_10 H 0.39993 0.391595 0.123741 . .
H86_10 H 0.484426 0.396153 0.0306123 . .
H94_10 H 0.275665 0.163141 0.0264629 . .
H95_10 H 0.516718 0.396405 0.130602 . .
H96_10 H 0.325817 0.162082 0.0449875 . .
H97_10 H 0.426317 0.437624 0.072026 . .
H98_10 H 0.607429 0.434255 0.0644433 . .
H99_10 H 0.251527 0.294875 0.00700415 . .
H100_10 H 0.323029 0.350998 0.0481288 . .
N13_10 N 0.327978 0.224415 0.964402 0.0127 Uiso
N14_10 N 0.330427 0.295409 0.964732 0.0127 Uiso
C17_10 C 0.355743 0.223876 0.974618 0.0127 Uiso
C18_10 C 0.299863 0.202860 0.982923 0.0127 Uiso
C19_10 C 0.301419 0.287308 0.982286 0.0127 Uiso
C20_10 C 0.357133 0.323979 0.977445 0.0127 Uiso
C52_10 C 0.455123 0.446414 0.984745 0.0127 Uiso
O12_10 O 0.422204 0.420623 0.976322 0.0127 Uiso
C57_10 C 0.470393 0.476368 0.958421 0.0127 Uiso
N18_10 N 0.338689 0.229770 0.868931 0.0127 Uiso
N19_10 N 0.336240 0.298315 0.868601 0.0127 Uiso
C60_10 C 0.310924 0.201466 0.858715 0.0127 Uiso
C61_10 C 0.366804 0.236330 0.850410 0.0127 Uiso
C62_10 C 0.365248 0.319222 0.851047 0.0127 Uiso
C63_10 C 0.309534 0.300179 0.855888 0.0127 Uiso
C68_10 C 0.310287 0.178949 0.829955 0.0127 Uiso
C69_10 C 0.367656 0.214714 0.821392 0.0127 Uiso
C70_10 C 0.368958 0.341989 0.821287 0.0127 Uiso
C71_10 C 0.310929 0.322136 0.826354 0.0127 Uiso
O14_10 O 0.281964 0.150792 0.820477 0.0127 Uiso
C83_10 C 0.339963 0.186300 0.810983 0.0127 Uiso
O15_10 O 0.399646 0.362940 0.804281 0.0127 Uiso
C84_10 C 0.341432 0.343621 0.808566 0.0127 Uiso
H5_10 H 0.287898 0.195956 0.873675 . .
H17_10 H 0.476889 0.498023 0.977261 . .
H18_10 H 0.452944 0.47415 0.934716 . .
H19_10 H 0.492545 0.478898 0.943982 . .
H20_10 H 0.389498 0.25895 0.858059 . .
H21_10 H 0.387024 0.318239 0.860708 . .
H22_10 H 0.285705 0.283444 0.869737 . .
H25_10 H 0.288794 0.322641 0.817222 . .
H26_10 H 0.391002 0.220809 0.80687 . .
H27_10 H 0.272884 0.137157 0.845662 . .
H28_10 H 0.343638 0.361302 0.785205 . .
H32_10 H 0.34085 0.169599 0.788346 . .
H33_10 H 0.41514 0.376681 0.826329 . .
H34_10 H 0.437196 0.1608 0.997959 . .
H57_19 H 0.740745 0.459121 0.978591 . .
H73_10 H 0.378769 0.241392 0.959658 . .
H75_10 H 0.277169 0.202785 0.975274 . .
H78_10 H 0.279643 0.264549 0.972626 . .
H85_10 H 0.380962 0.331072 0.963596 . .
H88_10 H 0.393782 0.197607 0.987671 . .
H90_19 H 0.590511 0.420098 0.671521 . .
N15_11 N 0.630128 0.081820 0.079228 0.0127 Uiso
N16_11 N 0.630556 0.145843 0.077716 0.0127 Uiso
C21_11 C 0.604935 0.070578 0.051386 0.0127 Uiso
C22_11 C 0.630310 0.058517 0.104486 0.0127 Uiso
C23_11 C 0.605504 0.136045 0.104819 0.0127 Uiso
C24_11 C 0.632555 0.165515 0.045631 0.0127 Uiso
C33_11 C 0.798004 0.154384 0.003378 0.0127 Uiso
C34_11 C 0.819608 0.118619 0.011941 0.0127 Uiso
C36_11 C 0.655459 0.011197 0.006979 0.0127 Uiso
C37_11 C 0.580925 0.037998 0.048390 0.0127 Uiso
C38_11 C 0.606990 0.025752 0.102791 0.0127 Uiso
C39_11 C 0.582405 0.145723 0.100194 0.0127 Uiso
C40_11 C 0.610033 0.175359 0.040472 0.0127 Uiso
O5_11 O 0.797838 0.182541 0.012856 0.0127 Uiso
C45_11 C 0.820329 0.147033 0.022350 0.0127 Uiso
O7_11 O 0.556224 0.029778 0.018153 0.0127 Uiso
C47_11 C 0.581267 0.014629 0.074044 0.0127 Uiso
O8_11 O 0.556771 0.134692 0.129547 0.0127 Uiso
C48_11 C 0.584047 0.165481 0.068148 0.0127 Uiso
C53_11 C 0.527405 0.105781 0.120060 0.0127 Uiso
O13_11 O 0.526607 0.083666 0.100979 0.0127 Uiso
C58_11 C 0.493968 0.102318 0.135255 0.0127 Uiso
N21_11 N 0.703205 0.118359 0.087439 0.0127 Uiso
N22_11 N 0.702777 0.181954 0.088951 0.0127 Uiso
C64_11 C 0.728398 0.132310 0.115281 0.0127 Uiso
C65_11 C 0.703023 0.094874 0.062181 0.0127 Uiso
C66_11 C 0.727829 0.197208 0.061848 0.0127 Uiso
C67_11 C 0.700778 0.199627 0.121036 0.0127 Uiso
C72_11 C 0.752408 0.123740 0.118277 0.0127 Uiso
C73_11 C 0.726343 0.085429 0.063876 0.0127 Uiso
C74_11 C 0.750928 0.229985 0.066473 0.0127 Uiso
C75_11 C 0.723300 0.231993 0.126195 0.0127 Uiso
O16_11 O 0.777109 0.140221 0.148514 0.0127 Uiso
C85_11 C 0.752066 0.100029 0.092623 0.0127 Uiso
O17_11 O 0.776562 0.244588 0.037120 0.0127 Uiso
C86_11 C 0.749286 0.248101 0.098519 0.0127 Uiso
C87_11 C 0.779747 0.121790 0.181922 0.0127 Uiso
C88_11 C 0.805928 0.245043 0.046607 0.0127 Uiso
O18_11 O 0.753956 0.088871 0.190345 0.0127 Uiso
C89_11 C 0.809701 0.137060 0.208246 0.0127 Uiso
O19_11 O 0.806726 0.223726 0.065688 0.0127 Uiso
C90_11 C 0.839365 0.275017 0.031412 0.0127 Uiso
H1_11 H 0.680637 0.187474 0.143019 . .
H2_11 H 0.494133 0.103863 0.168707 . .
H3_11 H 0.473572 0.0785868 0.125443 . .
H4_11 H 0.491005 0.122103 0.122154 . .
H6_11 H 0.729487 0.151093 0.136054 . .
H13_11 H 0.683309 0.0830977 0.0395727 . .
H23_11 H 0.729739 0.183384 0.0360645 . .
H24_11 H 0.767588 0.274095 0.102223 . .
H29_11 H 0.724928 0.0665967 0.0429257 . .
H30_11 H 0.721062 0.245482 0.152137 . .
H31_11 H 0.770957 0.0929832 0.0946406 . .
H35_11 H 0.859762 0.271682 0.0412232 . .
H36_11 H 0.842328 0.297764 0.0445123 . .
H37_11 H 0.831356 0.143555 0.189405 . .
H38_11 H 0.807483 0.11961 0.231951 . .
H39_11 H 0.812231 0.159211 0.222685 . .
H76_11 H 0.652697 0.173504 0.0236472 . .
H77_11 H 0.63282 0.010692 0.0161108 . .
H79_11 H 0.612272 0.191087 0.0145298 . .
H80_11 H 0.650025 0.0664558 0.127094 . .
H81_11 H 0.608405 0.00833517 0.123741 . .
H86_11 H 0.603847 0.0882727 0.0306123 . .
H94_11 H 0.836859 0.112524 0.0264629 . .
H95_11 H 0.603595 0.120312 0.130602 . .
H96_11 H 0.837918 0.163734 0.0449875 . .
H98_11 H 0.565745 0.173174 0.0644433 . .
N13_11 N 0.775585 0.103563 0.964402 0.0127 Uiso
N14_11 N 0.704591 0.035018 0.964732 0.0127 Uiso
C17_11 C 0.776124 0.131867 0.974618 0.0127 Uiso
C18_11 C 0.797140 0.097003 0.982923 0.0127 Uiso
C19_11 C 0.712692 0.014111 0.982286 0.0127 Uiso
C20_11 C 0.676021 0.033154 0.977445 0.0127 Uiso
C52_11 C 0.553586 0.008709 0.984745 0.0127 Uiso
O12_11 O 0.579377 0.001581 0.976322 0.0127 Uiso
N18_11 N 0.770230 0.108918 0.868931 0.0127 Uiso
N19_11 N 0.701685 0.037924 0.868601 0.0127 Uiso
C60_11 C 0.798534 0.109457 0.858715 0.0127 Uiso
C61_11 C 0.763670 0.130473 0.850410 0.0127 Uiso
C62_11 C 0.680778 0.046025 0.851047 0.0127 Uiso
C63_11 C 0.699821 0.009354 0.855888 0.0127 Uiso
C68_11 C 0.821051 0.131337 0.829955 0.0127 Uiso
C69_11 C 0.785286 0.152941 0.821392 0.0127 Uiso
C70_11 C 0.658011 0.026968 0.821287 0.0127 Uiso
O14_11 O 0.849208 0.131171 0.820477 0.0127 Uiso
C83_11 C 0.813700 0.153662 0.810983 0.0127 Uiso
O15_11 O 0.637060 0.036705 0.804281 0.0127 Uiso
H5_11 H 0.804044 0.0919415 0.873675 . .
H19_11 H 0.521102 0.0136469 0.943982 . .
H20_11 H 0.74105 0.130548 0.858059 . .
H21_11 H 0.681761 0.0687843 0.860708 . .
H22_11 H 0.716556 0.00226103 0.869737 . .
H26_11 H 0.779191 0.170193 0.80687 . .
H27_11 H 0.862843 0.135727 0.845662 . .
H32_11 H 0.830401 0.171251 0.788346 . .
H33_11 H 0.623319 0.0384586 0.826329 . .
H34_11 H 0.8392 0.276396 0.997959 . .
H57_20 H 0.540879 0.281623 0.978591 . .
H73_11 H 0.758608 0.137377 0.959658 . .
H75_11 H 0.797215 0.0743833 0.975274 . .
H78_11 H 0.735451 0.0150939 0.972626 . .
H85_11 H 0.668928 0.0498895 0.963596 . .
H88_11 H 0.802393 0.196176 0.987671 . .
H90_20 H 0.579902 0.170413 0.671521 . .
C35_11 C 0.693635 0.991344 0.012046 0.0127 Uiso
O6_11 O 0.703372 0.970393 0.029052 0.0127 Uiso
C46_11 C 0.664477 0.989712 0.024767 0.0127 Uiso
H97_11 H 0.562376 0.988693 0.072026 . .
H99_11 H 0.705125 0.956652 0.00700415 . .
H100_11 H 0.649002 0.972031 0.0481288 . .
C57_11 C 0.523632 0.994025 0.958421 0.0127 Uiso
C71_11 C 0.677864 0.988792 0.826354 0.0127 Uiso
C84_11 C 0.656379 0.997810 0.808566 0.0127 Uiso
H17_11 H 0.501977 0.978866 0.977261 . .
H18_11 H 0.52585 0.978794 0.934716 . .
H25_11 H 0.677359 0.966153 0.817222 . .
H28_11 H 0.638698 0.982335 0.785205 . .
C35_12 C 0.008656 0.702291 0.012046 0.0127 Uiso
O6_12 O 0.029607 0.732979 0.029052 0.0127 Uiso
C46_12 C 0.010288 0.674765 0.024767 0.0127 Uiso
H97_12 H 0.0113071 0.573683 0.072026 . .
H99_12 H 0.0433477 0.748473 0.00700415 . .
H100_12 H 0.027969 0.676971 0.0481288 . .
C57_12 C 0.005975 0.529607 0.958421 0.0127 Uiso
C71_12 C 0.011208 0.689071 0.826354 0.0127 Uiso
C84_12 C 0.002190 0.658568 0.808566 0.0127 Uiso
H17_12 H 0.021134 0.523111 0.977261 . .
H18_12 H 0.0212061 0.547056 0.934716 . .
H25_12 H 0.0338468 0.711206 0.817222 . .
H28_12 H 0.0176648 0.656362 0.785205 . .
N15_12 N 0.918180 0.548308 0.079228 0.0127 Uiso
N16_12 N 0.854157 0.484713 0.077716 0.0127 Uiso
C21_12 C 0.929422 0.534357 0.051386 0.0127 Uiso
C22_12 C 0.941483 0.571793 0.104486 0.0127 Uiso
C23_12 C 0.863955 0.469459 0.104819 0.0127 Uiso
C24_12 C 0.834485 0.467040 0.045631 0.0127 Uiso
C33_12 C 0.845616 0.643620 0.003378 0.0127 Uiso
C34_12 C 0.881381 0.700989 0.011941 0.0127 Uiso
C36_12 C 0.988803 0.644262 0.006979 0.0127 Uiso
C37_12 C 0.962002 0.542927 0.048390 0.0127 Uiso
C38_12 C 0.974248 0.581238 0.102791 0.0127 Uiso
C39_12 C 0.854277 0.436682 0.100194 0.0127 Uiso
C40_12 C 0.824641 0.434674 0.040472 0.0127 Uiso
O5_12 O 0.817459 0.615297 0.012856 0.0127 Uiso
C45_12 C 0.852967 0.673296 0.022350 0.0127 Uiso
O7_12 O 0.970222 0.526446 0.018153 0.0127 Uiso
C47_12 C 0.985371 0.566638 0.074044 0.0127 Uiso
O8_12 O 0.865308 0.422079 0.129547 0.0127 Uiso
C48_12 C 0.834519 0.418566 0.068148 0.0127 Uiso
C53_12 C 0.894219 0.421624 0.120060 0.0127 Uiso
O13_12 O 0.916334 0.442941 0.100979 0.0127 Uiso
C58_12 C 0.897682 0.391650 0.135255 0.0127 Uiso
N21_12 N 0.881641 0.584847 0.087439 0.0127 Uiso
N22_12 N 0.818046 0.520824 0.088951 0.0127 Uiso
C64_12 C 0.867690 0.596089 0.115281 0.0127 Uiso
C65_12 C 0.905126 0.608150 0.062181 0.0127 Uiso
C66_12 C 0.802792 0.530622 0.061848 0.0127 Uiso
C67_12 C 0.800373 0.501152 0.121036 0.0127 Uiso
C72_12 C 0.876260 0.628669 0.118277 0.0127 Uiso
C73_12 C 0.914571 0.640915 0.063876 0.0127 Uiso
C74_12 C 0.770015 0.520944 0.066473 0.0127 Uiso
C75_12 C 0.768007 0.491308 0.126195 0.0127 Uiso
O16_12 O 0.859779 0.636889 0.148514 0.0127 Uiso
C85_12 C 0.899971 0.652038 0.092623 0.0127 Uiso
O17_12 O 0.755412 0.531975 0.037120 0.0127 Uiso
C86_12 C 0.751899 0.501186 0.098519 0.0127 Uiso
C87_12 C 0.878210 0.657958 0.181922 0.0127 Uiso
C88_12 C 0.754957 0.560886 0.046607 0.0127 Uiso
O18_12 O 0.911129 0.665086 0.190345 0.0127 Uiso
C89_12 C 0.862940 0.672642 0.208246 0.0127 Uiso
O19_12 O 0.776274 0.583001 0.065688 0.0127 Uiso
C90_12 C 0.724983 0.564349 0.031412 0.0127 Uiso
H1_12 H 0.812526 0.493163 0.143019 . .
H2_12 H 0.896137 0.390271 0.168707 . .
H3_12 H 0.921413 0.394985 0.125443 . .
H4_12 H 0.877897 0.368903 0.122154 . .
H6_12 H 0.848907 0.578394 0.136054 . .
H13_12 H 0.916902 0.600211 0.0395727 . .
H23_12 H 0.816616 0.546354 0.0360645 . .
H24_12 H 0.725905 0.493493 0.102223 . .
H29_12 H 0.933403 0.658331 0.0429257 . .
H30_12 H 0.754518 0.47558 0.152137 . .
H31_12 H 0.907017 0.677974 0.0946406 . .
H35_12 H 0.728318 0.58808 0.0412232 . .
H36_12 H 0.702236 0.544564 0.0445123 . .
H37_12 H 0.856445 0.687801 0.189405 . .
H38_12 H 0.88039 0.687873 0.231951 . .
H39_12 H 0.840789 0.65302 0.222685 . .
H76_12 H 0.826496 0.479193 0.0236472 . .
H77_12 H 0.989308 0.622128 0.0161108 . .
H79_12 H 0.808913 0.421185 0.0145298 . .
H80_12 H 0.933544 0.583569 0.127094 . .
H81_12 H 0.991665 0.60007 0.123741 . .
H86_12 H 0.911727 0.515574 0.0306123 . .
H94_12 H 0.887476 0.724335 0.0264629 . .
H95_12 H 0.879688 0.483282 0.130602 . .
H96_12 H 0.836266 0.674183 0.0449875 . .
H98_12 H 0.826826 0.392571 0.0644433 . .
N13_12 N 0.896437 0.672022 0.964402 0.0127 Uiso
N14_12 N 0.964982 0.669573 0.964732 0.0127 Uiso
C17_12 C 0.868133 0.644257 0.974618 0.0127 Uiso
C18_12 C 0.902997 0.700137 0.982923 0.0127 Uiso
C19_12 C 0.985889 0.698581 0.982286 0.0127 Uiso
C20_12 C 0.966846 0.642867 0.977445 0.0127 Uiso
C52_12 C 0.991291 0.544877 0.984745 0.0127 Uiso
O12_12 O 0.998419 0.577796 0.976322 0.0127 Uiso
N18_12 N 0.891082 0.661311 0.868931 0.0127 Uiso
N19_12 N 0.962076 0.663760 0.868601 0.0127 Uiso
C60_12 C 0.890543 0.689076 0.858715 0.0127 Uiso
C61_12 C 0.869527 0.633196 0.850410 0.0127 Uiso
C62_12 C 0.953975 0.634752 0.851047 0.0127 Uiso
C63_12 C 0.990646 0.690466 0.855888 0.0127 Uiso
C68_12 C 0.868663 0.689713 0.829955 0.0127 Uiso
C69_12 C 0.847059 0.632344 0.821392 0.0127 Uiso
C70_12 C 0.973032 0.631042 0.821287 0.0127 Uiso
O14_12 O 0.868829 0.718036 0.820477 0.0127 Uiso
C83_12 C 0.846338 0.660037 0.810983 0.0127 Uiso
O15_12 O 0.963295 0.600354 0.804281 0.0127 Uiso
H5_12 H 0.908059 0.712102 0.873675 . .
H19_12 H 0.986353 0.507455 0.943982 . .
H20_12 H 0.869452 0.610502 0.858059 . .
H21_12 H 0.931216 0.612976 0.860708 . .
H22_12 H 0.997739 0.714295 0.869737 . .
H26_12 H 0.829807 0.608998 0.80687 . .
H27_12 H 0.864273 0.727116 0.845662 . .
H32_12 H 0.828749 0.65915 0.788346 . .
H33_12 H 0.961541 0.58486 0.826329 . .
H34_12 H 0.723604 0.562804 0.997959 . .
H57_21 H 0.718377 0.259255 0.978591 . .
H73_12 H 0.862623 0.621231 0.959658 . .
H75_12 H 0.925617 0.722831 0.975274 . .
H78_12 H 0.984906 0.720357 0.972626 . .
H85_12 H 0.950111 0.619038 0.963596 . .
H88_12 H 0.803824 0.606218 0.987671 . .
H90_21 H 0.829587 0.409489 0.671521 . .
N15_13 N 0.118359 0.703205 0.412561 0.0127 Uiso
N16_13 N 0.181954 0.702777 0.411049 0.0127 Uiso
C17_13 C 0.022410 0.557209 0.307951 0.0127 Uiso
C20_13 C 0.023800 0.657312 0.310778 0.0127 Uiso
C21_13 C 0.132310 0.728398 0.384719 0.0127 Uiso
C22_13 C 0.094874 0.703023 0.437819 0.0127 Uiso
C23_13 C 0.197208 0.727829 0.438152 0.0127 Uiso
C24_13 C 0.199627 0.700778 0.378964 0.0127 Uiso
C33_13 C 0.023047 0.535329 0.336711 0.0127 Uiso
C36_13 C 0.022405 0.677874 0.340312 0.0127 Uiso
C37_13 C 0.123740 0.752408 0.381723 0.0127 Uiso
C38_13 C 0.085429 0.726343 0.436124 0.0127 Uiso
C39_13 C 0.229985 0.750928 0.433527 0.0127 Uiso
C40_13 C 0.231993 0.723300 0.373805 0.0127 Uiso
O5_13 O 0.051370 0.535495 0.346189 0.0127 Uiso
O7_13 O 0.140221 0.777109 0.351486 0.0127 Uiso
C47_13 C 0.100029 0.752066 0.407377 0.0127 Uiso
O8_13 O 0.244588 0.776562 0.462880 0.0127 Uiso
C48_13 C 0.248101 0.749286 0.401481 0.0127 Uiso
C52_13 C 0.121790 0.779747 0.318078 0.0127 Uiso
C53_13 C 0.245043 0.805928 0.453393 0.0127 Uiso
O12_13 O 0.088871 0.753956 0.309655 0.0127 Uiso
C57_13 C 0.137060 0.809701 0.291754 0.0127 Uiso
O13_13 O 0.223726 0.806726 0.434312 0.0127 Uiso
C58_13 C 0.275017 0.839365 0.468588 0.0127 Uiso
N18_13 N 0.005355 0.563104 0.202265 0.0127 Uiso
N19_13 N 0.002906 0.631649 0.201935 0.0127 Uiso
N21_13 N 0.081820 0.630128 0.420772 0.0127 Uiso
N22_13 N 0.145843 0.630556 0.422284 0.0127 Uiso
C61_13 C 0.033470 0.569664 0.183744 0.0127 Uiso
C62_13 C 0.031914 0.652556 0.184381 0.0127 Uiso
C64_13 C 0.070578 0.604935 0.448614 0.0127 Uiso
C65_13 C 0.058517 0.630310 0.395514 0.0127 Uiso
C66_13 C 0.136045 0.605504 0.395181 0.0127 Uiso
C67_13 C 0.165515 0.632555 0.454369 0.0127 Uiso
C69_13 C 0.034322 0.548048 0.154726 0.0127 Uiso
C70_13 C 0.035624 0.675323 0.154621 0.0127 Uiso
C72_13 C 0.037998 0.580925 0.451610 0.0127 Uiso
C73_13 C 0.025752 0.606990 0.397209 0.0127 Uiso
C74_13 C 0.145723 0.582405 0.399806 0.0127 Uiso
C75_13 C 0.175359 0.610033 0.459528 0.0127 Uiso
C83_13 C 0.006629 0.519634 0.144317 0.0127 Uiso
O15_13 O 0.066312 0.696274 0.137615 0.0127 Uiso
C84_13 C 0.008098 0.676955 0.141900 0.0127 Uiso
O16_13 O 0.029778 0.556224 0.481847 0.0127 Uiso
C85_13 C 0.014629 0.581267 0.425956 0.0127 Uiso
O17_13 O 0.134692 0.556771 0.370453 0.0127 Uiso
C86_13 C 0.165481 0.584047 0.431852 0.0127 Uiso
C87_13 C 0.008709 0.553586 0.515255 0.0127 Uiso
C88_13 C 0.105781 0.527405 0.379940 0.0127 Uiso
O18_13 O 0.001581 0.579377 0.523678 0.0127 Uiso
O19_13 O 0.083666 0.526607 0.399021 0.0127 Uiso
C90_13 C 0.102318 0.493968 0.364745 0.0127 Uiso
H1_13 H 0.173504 0.652697 0.476353 . .
H2_13 H 0.276396 0.8392 0.502041 . .
H3_13 H 0.271682 0.859762 0.458777 . .
H4_13 H 0.297764 0.842328 0.455488 . .
H6_13 H 0.0882727 0.603847 0.469388 . .
H13_13 H 0.0664558 0.650025 0.372906 . .
H17_13 H 0.143555 0.831356 0.310595 . .
H18_13 H 0.11961 0.807483 0.268049 . .
H19_13 H 0.159211 0.812231 0.277315 . .
H20_13 H 0.0561647 0.592283 0.191393 . .
H21_13 H 0.0536904 0.651573 0.194041 . .
H23_13 H 0.120312 0.603595 0.369398 . .
H24_13 H 0.173174 0.565745 0.435557 . .
H26_13 H 0.0576686 0.554143 0.140204 . .
H28_13 H 0.0103042 0.694636 0.118538 . .
H29_13 H 0.00833517 0.608405 0.376259 . .
H30_13 H 0.191087 0.612272 0.48547 . .
H32_13 H 0.00751641 0.502932 0.121679 . .
H33_13 H 0.0818062 0.710014 0.159663 . .
H34_13 H 0.103863 0.494133 0.331293 . .
H35_13 H 0.0785868 0.473572 0.374557 . .
H36_13 H 0.122103 0.491005 0.377846 . .
H39_13 H 0.0136469 0.521102 0.556018 . .
H57_22 H 0.407412 0.792455 0.311925 . .
H73_13 H 0.0454356 0.574725 0.292992 . .
H76_13 H 0.187474 0.680637 0.356981 . .
H77_13 H 0.0445389 0.700513 0.349444 . .
H79_13 H 0.245482 0.721062 0.347863 . .
H80_13 H 0.0830977 0.683309 0.460427 . .
H81_13 H 0.0665967 0.724928 0.457074 . .
H85_13 H 0.0476285 0.664406 0.296929 . .
H86_13 H 0.151093 0.729487 0.363946 . .
H88_13 H 0.0604491 0.53094 0.321004 . .
H90_22 H 0.257178 0.753432 0.00485461 . .
H95_13 H 0.183384 0.729739 0.463936 . .
H97_13 H 0.0929832 0.770957 0.405359 . .
H98_13 H 0.274095 0.767588 0.397777 . .
N13_13 N 0.994645 0.557748 0.297735 0.0127 Uiso
N14_13 N 0.997094 0.628742 0.298065 0.0127 Uiso
C18_13 C 0.966530 0.536193 0.316256 0.0127 Uiso
C19_13 C 0.968086 0.620641 0.315619 0.0127 Uiso
C34_13 C 0.965678 0.513725 0.345274 0.0127 Uiso
C35_13 C 0.964376 0.639698 0.345379 0.0127 Uiso
C45_13 C 0.993371 0.513004 0.355683 0.0127 Uiso
O6_13 O 0.933688 0.629961 0.362385 0.0127 Uiso
C46_13 C 0.991902 0.668856 0.358100 0.0127 Uiso
C60_13 C 0.977590 0.534800 0.192049 0.0127 Uiso
C63_13 C 0.976200 0.633513 0.189222 0.0127 Uiso
C68_13 C 0.976953 0.512283 0.163289 0.0127 Uiso
C71_13 C 0.977595 0.655470 0.159688 0.0127 Uiso
O14_13 O 0.948630 0.484126 0.153811 0.0127 Uiso
C89_13 C 0.994025 0.523632 0.541579 0.0127 Uiso
H5_13 H 0.954564 0.52929 0.207008 . .
H22_13 H 0.952372 0.616777 0.203071 . .
H25_13 H 0.955461 0.655975 0.150556 . .
H27_13 H 0.939551 0.470491 0.178996 . .
H31_13 H 0.988693 0.562376 0.427974 . .
H37_13 H 0.978866 0.501977 0.522739 . .
H38_13 H 0.978794 0.52585 0.565284 . .
H75_13 H 0.943835 0.536119 0.308607 . .
H78_13 H 0.94631 0.597882 0.305959 . .
H94_13 H 0.942331 0.496474 0.359796 . .
H96_13 H 0.992484 0.495416 0.378321 . .
H99_13 H 0.918194 0.628208 0.340337 . .
H100_13 H 0.989696 0.684331 0.381462 . .
N13_14 N 0.442252 0.436896 0.297735 0.0127 Uiso
N14_14 N 0.371258 0.368351 0.298065 0.0127 Uiso
N15_14 N 0.296795 0.415153 0.412561 0.0127 Uiso
N16_14 N 0.297223 0.479176 0.411049 0.0127 Uiso
C17_14 C 0.442791 0.465200 0.307951 0.0127 Uiso
C18_14 C 0.463807 0.430336 0.316256 0.0127 Uiso
C19_14 C 0.379359 0.347444 0.315619 0.0127 Uiso
C20_14 C 0.342688 0.366487 0.310778 0.0127 Uiso
C21_14 C 0.271602 0.403911 0.384719 0.0127 Uiso
C22_14 C 0.296977 0.391850 0.437819 0.0127 Uiso
C23_14 C 0.272171 0.469378 0.438152 0.0127 Uiso
C24_14 C 0.299222 0.498848 0.378964 0.0127 Uiso
C33_14 C 0.464671 0.487717 0.336711 0.0127 Uiso
C34_14 C 0.486275 0.451952 0.345274 0.0127 Uiso
C35_14 C 0.360302 0.324677 0.345379 0.0127 Uiso
C36_14 C 0.322126 0.344530 0.340312 0.0127 Uiso
C37_14 C 0.247592 0.371331 0.381723 0.0127 Uiso
C38_14 C 0.273657 0.359085 0.436124 0.0127 Uiso
C39_14 C 0.249072 0.479056 0.433527 0.0127 Uiso
C40_14 C 0.276700 0.508692 0.373805 0.0127 Uiso
O5_14 O 0.464505 0.515874 0.346189 0.0127 Uiso
C45_14 C 0.486996 0.480366 0.355683 0.0127 Uiso
O6_14 O 0.370039 0.303726 0.362385 0.0127 Uiso
C46_14 C 0.331144 0.323045 0.358100 0.0127 Uiso
O7_14 O 0.222891 0.363111 0.351486 0.0127 Uiso
C47_14 C 0.247934 0.347962 0.407377 0.0127 Uiso
O8_14 O 0.223438 0.468025 0.462880 0.0127 Uiso
C48_14 C 0.250714 0.498814 0.401481 0.0127 Uiso
C52_14 C 0.220253 0.342042 0.318078 0.0127 Uiso
C53_14 C 0.194072 0.439114 0.453393 0.0127 Uiso
O12_14 O 0.246044 0.334914 0.309655 0.0127 Uiso
C57_14 C 0.190299 0.327358 0.291754 0.0127 Uiso
O13_14 O 0.193274 0.416999 0.434312 0.0127 Uiso
C58_14 C 0.160635 0.435651 0.468588 0.0127 Uiso
N18_14 N 0.436896 0.442252 0.202265 0.0127 Uiso
N19_14 N 0.368351 0.371258 0.201935 0.0127 Uiso
N21_14 N 0.369872 0.451692 0.420772 0.0127 Uiso
N22_14 N 0.369444 0.515287 0.422284 0.0127 Uiso
C60_14 C 0.465200 0.442791 0.192049 0.0127 Uiso
C61_14 C 0.430336 0.463807 0.183744 0.0127 Uiso
C62_14 C 0.347444 0.379359 0.184381 0.0127 Uiso
C63_14 C 0.366487 0.342688 0.189222 0.0127 Uiso
C64_14 C 0.395065 0.465643 0.448614 0.0127 Uiso
C65_14 C 0.369690 0.428207 0.395514 0.0127 Uiso
C66_14 C 0.394496 0.530541 0.395181 0.0127 Uiso
C67_14 C 0.367445 0.532960 0.454369 0.0127 Uiso
C68_14 C 0.487717 0.464671 0.163289 0.0127 Uiso
C69_14 C 0.451952 0.486275 0.154726 0.0127 Uiso
C70_14 C 0.324677 0.360302 0.154621 0.0127 Uiso
C71_14 C 0.344530 0.322126 0.159688 0.0127 Uiso
C72_14 C 0.419075 0.457073 0.451610 0.0127 Uiso
C73_14 C 0.393010 0.418762 0.397209 0.0127 Uiso
C74_14 C 0.417595 0.563318 0.399806 0.0127 Uiso
C75_14 C 0.389967 0.565326 0.459528 0.0127 Uiso
O14_14 O 0.515874 0.464505 0.153811 0.0127 Uiso
C83_14 C 0.480366 0.486996 0.144317 0.0127 Uiso
O15_14 O 0.303726 0.370039 0.137615 0.0127 Uiso
C84_14 C 0.323045 0.331144 0.141900 0.0127 Uiso
O16_14 O 0.443776 0.473554 0.481847 0.0127 Uiso
C85_14 C 0.418733 0.433362 0.425956 0.0127 Uiso
O17_14 O 0.443229 0.577921 0.370453 0.0127 Uiso
C86_14 C 0.415953 0.581434 0.431852 0.0127 Uiso
C87_14 C 0.446414 0.455123 0.515255 0.0127 Uiso
C88_14 C 0.472595 0.578376 0.379940 0.0127 Uiso
O18_14 O 0.420623 0.422204 0.523678 0.0127 Uiso
C89_14 C 0.476368 0.470393 0.541579 0.0127 Uiso
O19_14 O 0.473393 0.557059 0.399021 0.0127 Uiso
C90_14 C 0.506032 0.608350 0.364745 0.0127 Uiso
H1_14 H 0.347303 0.520807 0.476353 . .
H2_14 H 0.1608 0.437196 0.502041 . .
H3_14 H 0.140238 0.41192 0.458777 . .
H4_14 H 0.157672 0.455436 0.455488 . .
H5_14 H 0.47071 0.425275 0.207008 . .
H6_14 H 0.396153 0.484426 0.469388 . .
H13_14 H 0.349975 0.416431 0.372906 . .
H17_14 H 0.168644 0.312199 0.310595 . .
H18_14 H 0.192517 0.312127 0.268049 . .
H19_14 H 0.187769 0.34698 0.277315 . .
H20_14 H 0.407717 0.463881 0.191393 . .
H21_14 H 0.348427 0.402118 0.194041 . .
H22_14 H 0.383223 0.335594 0.203071 . .
H23_14 H 0.396405 0.516718 0.369398 . .
H24_14 H 0.434255 0.607429 0.435557 . .
H25_14 H 0.344025 0.299487 0.150556 . .
H26_14 H 0.445857 0.503526 0.140204 . .
H27_14 H 0.529509 0.46906 0.178996 . .
H28_14 H 0.305364 0.315669 0.118538 . .
H29_14 H 0.391595 0.39993 0.376259 . .
H30_14 H 0.387728 0.578815 0.48547 . .
H31_14 H 0.437624 0.426317 0.427974 . .
H32_14 H 0.497068 0.504584 0.121679 . .
H33_14 H 0.289986 0.371792 0.159663 . .
H34_14 H 0.505867 0.609729 0.331293 . .
H35_14 H 0.526428 0.605015 0.374557 . .
H36_14 H 0.508995 0.631097 0.377846 . .
H37_14 H 0.498023 0.476889 0.522739 . .
H38_14 H 0.47415 0.452944 0.565284 . .
H39_14 H 0.478898 0.492545 0.556018 . .
H57_23 H 0.207545 0.614957 0.311925 . .
H73_14 H 0.425275 0.47071 0.292992 . .
H75_14 H 0.463881 0.407717 0.308607 . .
H76_14 H 0.319363 0.506837 0.356981 . .
H77_14 H 0.299487 0.344025 0.349444 . .
H78_14 H 0.402118 0.348427 0.305959 . .
H79_14 H 0.278938 0.52442 0.347863 . .
H80_14 H 0.316691 0.399789 0.460427 . .
H81_14 H 0.275072 0.341669 0.457074 . .
H85_14 H 0.335594 0.383223 0.296929 . .
H86_14 H 0.270513 0.421606 0.363946 . .
H88_14 H 0.46906 0.529509 0.321004 . .
H90_23 H 0.246568 0.503747 0.00485461 . .
H94_14 H 0.503526 0.445857 0.359796 . .
H95_14 H 0.270261 0.453646 0.463936 . .
H96_14 H 0.504584 0.497068 0.378321 . .
H97_14 H 0.229043 0.322026 0.405359 . .
H98_14 H 0.232412 0.506507 0.397777 . .
H99_14 H 0.371792 0.289986 0.340337 . .
H100_14 H 0.315669 0.305364 0.381462 . .
N13_15 N 0.563104 0.005355 0.297735 0.0127 Uiso
N14_15 N 0.631649 0.002906 0.298065 0.0127 Uiso
C18_15 C 0.569664 0.033470 0.316256 0.0127 Uiso
C19_15 C 0.652556 0.031914 0.315619 0.0127 Uiso
C34_15 C 0.548048 0.034322 0.345274 0.0127 Uiso
C35_15 C 0.675323 0.035624 0.345379 0.0127 Uiso
C45_15 C 0.519634 0.006629 0.355683 0.0127 Uiso
O6_15 O 0.696274 0.066312 0.362385 0.0127 Uiso
C46_15 C 0.676955 0.008098 0.358100 0.0127 Uiso
C60_15 C 0.557209 0.022410 0.192049 0.0127 Uiso
C63_15 C 0.657312 0.023800 0.189222 0.0127 Uiso
C68_15 C 0.535329 0.023047 0.163289 0.0127 Uiso
C71_15 C 0.677874 0.022405 0.159688 0.0127 Uiso
O14_15 O 0.535495 0.051370 0.153811 0.0127 Uiso
C89_15 C 0.529607 0.005975 0.541579 0.0127 Uiso
H5_15 H 0.574725 0.0454356 0.207008 . .
H22_15 H 0.664406 0.0476285 0.203071 . .
H25_15 H 0.700513 0.0445389 0.150556 . .
H27_15 H 0.53094 0.0604491 0.178996 . .
H31_15 H 0.573683 0.0113071 0.427974 . .
H37_15 H 0.523111 0.021134 0.522739 . .
H38_15 H 0.547056 0.0212061 0.565284 . .
H75_15 H 0.592283 0.0561647 0.308607 . .
H78_15 H 0.651573 0.0536904 0.305959 . .
H94_15 H 0.554143 0.0576686 0.359796 . .
H96_15 H 0.502932 0.00751641 0.378321 . .
H99_15 H 0.710014 0.0818062 0.340337 . .
H100_15 H 0.694636 0.0103042 0.381462 . .
N15_15 N 0.584847 0.881641 0.412561 0.0127 Uiso
N16_15 N 0.520824 0.818046 0.411049 0.0127 Uiso
C17_15 C 0.534800 0.977590 0.307951 0.0127 Uiso
C20_15 C 0.633513 0.976200 0.310778 0.0127 Uiso
C21_15 C 0.596089 0.867690 0.384719 0.0127 Uiso
C22_15 C 0.608150 0.905126 0.437819 0.0127 Uiso
C23_15 C 0.530622 0.802792 0.438152 0.0127 Uiso
C24_15 C 0.501152 0.800373 0.378964 0.0127 Uiso
C33_15 C 0.512283 0.976953 0.336711 0.0127 Uiso
C36_15 C 0.655470 0.977595 0.340312 0.0127 Uiso
C37_15 C 0.628669 0.876260 0.381723 0.0127 Uiso
C38_15 C 0.640915 0.914571 0.436124 0.0127 Uiso
C39_15 C 0.520944 0.770015 0.433527 0.0127 Uiso
C40_15 C 0.491308 0.768007 0.373805 0.0127 Uiso
O5_15 O 0.484126 0.948630 0.346189 0.0127 Uiso
O7_15 O 0.636889 0.859779 0.351486 0.0127 Uiso
C47_15 C 0.652038 0.899971 0.407377 0.0127 Uiso
O8_15 O 0.531975 0.755412 0.462880 0.0127 Uiso
C48_15 C 0.501186 0.751899 0.401481 0.0127 Uiso
C52_15 C 0.657958 0.878210 0.318078 0.0127 Uiso
C53_15 C 0.560886 0.754957 0.453393 0.0127 Uiso
O12_15 O 0.665086 0.911129 0.309655 0.0127 Uiso
C57_15 C 0.672642 0.862940 0.291754 0.0127 Uiso
O13_15 O 0.583001 0.776274 0.434312 0.0127 Uiso
C58_15 C 0.564349 0.724983 0.468588 0.0127 Uiso
N18_15 N 0.557748 0.994645 0.202265 0.0127 Uiso
N19_15 N 0.628742 0.997094 0.201935 0.0127 Uiso
N21_15 N 0.548308 0.918180 0.420772 0.0127 Uiso
N22_15 N 0.484713 0.854157 0.422284 0.0127 Uiso
C61_15 C 0.536193 0.966530 0.183744 0.0127 Uiso
C62_15 C 0.620641 0.968086 0.184381 0.0127 Uiso
C64_15 C 0.534357 0.929422 0.448614 0.0127 Uiso
C65_15 C 0.571793 0.941483 0.395514 0.0127 Uiso
C66_15 C 0.469459 0.863955 0.395181 0.0127 Uiso
C67_15 C 0.467040 0.834485 0.454369 0.0127 Uiso
C69_15 C 0.513725 0.965678 0.154726 0.0127 Uiso
C70_15 C 0.639698 0.964376 0.154621 0.0127 Uiso
C72_15 C 0.542927 0.962002 0.451610 0.0127 Uiso
C73_15 C 0.581238 0.974248 0.397209 0.0127 Uiso
C74_15 C 0.436682 0.854277 0.399806 0.0127 Uiso
C75_15 C 0.434674 0.824641 0.459528 0.0127 Uiso
C83_15 C 0.513004 0.993371 0.144317 0.0127 Uiso
O15_15 O 0.629961 0.933688 0.137615 0.0127 Uiso
C84_15 C 0.668856 0.991902 0.141900 0.0127 Uiso
O16_15 O 0.526446 0.970222 0.481847 0.0127 Uiso
C85_15 C 0.566638 0.985371 0.425956 0.0127 Uiso
O17_15 O 0.422079 0.865308 0.370453 0.0127 Uiso
C86_15 C 0.418566 0.834519 0.431852 0.0127 Uiso
C87_15 C 0.544877 0.991291 0.515255 0.0127 Uiso
C88_15 C 0.421624 0.894219 0.379940 0.0127 Uiso
O18_15 O 0.577796 0.998419 0.523678 0.0127 Uiso
O19_15 O 0.442941 0.916334 0.399021 0.0127 Uiso
C90_15 C 0.391650 0.897682 0.364745 0.0127 Uiso
H1_15 H 0.479193 0.826496 0.476353 . .
H2_15 H 0.562804 0.723604 0.502041 . .
H3_15 H 0.58808 0.728318 0.458777 . .
H4_15 H 0.544564 0.702236 0.455488 . .
H6_15 H 0.515574 0.911727 0.469388 . .
H13_15 H 0.583569 0.933544 0.372906 . .
H17_15 H 0.687801 0.856445 0.310595 . .
H18_15 H 0.687873 0.88039 0.268049 . .
H19_15 H 0.65302 0.840789 0.277315 . .
H20_15 H 0.536119 0.943835 0.191393 . .
H21_15 H 0.597882 0.94631 0.194041 . .
H23_15 H 0.483282 0.879688 0.369398 . .
H24_15 H 0.392571 0.826826 0.435557 . .
H26_15 H 0.496474 0.942331 0.140204 . .
H28_15 H 0.684331 0.989696 0.118538 . .
H29_15 H 0.60007 0.991665 0.376259 . .
H30_15 H 0.421185 0.808913 0.48547 . .
H32_15 H 0.495416 0.992484 0.121679 . .
H33_15 H 0.628208 0.918194 0.159663 . .
H34_15 H 0.390271 0.896137 0.331293 . .
H35_15 H 0.394985 0.921413 0.374557 . .
H36_15 H 0.368903 0.877897 0.377846 . .
H39_15 H 0.507455 0.986353 0.556018 . .
H57_24 H 0.385043 0.592588 0.311925 . .
H73_15 H 0.52929 0.954564 0.292992 . .
H76_15 H 0.493163 0.812526 0.356981 . .
H77_15 H 0.655975 0.955461 0.349444 . .
H79_15 H 0.47558 0.754518 0.347863 . .
H80_15 H 0.600211 0.916902 0.460427 . .
H81_15 H 0.658331 0.933403 0.457074 . .
H85_15 H 0.616777 0.952372 0.296929 . .
H86_15 H 0.578394 0.848907 0.363946 . .
H88_15 H 0.470491 0.939551 0.321004 . .
H90_24 H 0.496253 0.742822 0.00485461 . .
H95_15 H 0.546354 0.816616 0.463936 . .
H97_15 H 0.677974 0.907017 0.405359 . .
H98_15 H 0.493493 0.725905 0.397777 . .
H57_25 H 0.0740782 0.125788 0.645258 . .
N15_16 N 0.785025 0.036539 0.745895 0.0127 Uiso
N16_16 N 0.848620 0.036111 0.744383 0.0127 Uiso
C21_16 C 0.798976 0.061732 0.718053 0.0127 Uiso
C22_16 C 0.761540 0.036357 0.771153 0.0127 Uiso
C23_16 C 0.863874 0.061163 0.771486 0.0127 Uiso
C24_16 C 0.866293 0.034112 0.712298 0.0127 Uiso
C36_16 C 0.689071 0.011208 0.673646 0.0127 Uiso
C37_16 C 0.790406 0.085742 0.715057 0.0127 Uiso
C38_16 C 0.752095 0.059677 0.769458 0.0127 Uiso
C39_16 C 0.896651 0.084262 0.766861 0.0127 Uiso
C40_16 C 0.898659 0.056634 0.707139 0.0127 Uiso
C46_16 C 0.658568 0.002190 0.691434 0.0127 Uiso
O7_16 O 0.806887 0.110443 0.684820 0.0127 Uiso
C47_16 C 0.766695 0.085400 0.740711 0.0127 Uiso
O8_16 O 0.911254 0.109896 0.796214 0.0127 Uiso
C48_16 C 0.914767 0.082620 0.734815 0.0127 Uiso
C52_16 C 0.788456 0.113081 0.651412 0.0127 Uiso
C53_16 C 0.911709 0.139262 0.786727 0.0127 Uiso
O12_16 O 0.755537 0.087290 0.642989 0.0127 Uiso
C57_16 C 0.803726 0.143035 0.625088 0.0127 Uiso
O13_16 O 0.890392 0.140060 0.767646 0.0127 Uiso
C58_16 C 0.941683 0.172699 0.801922 0.0127 Uiso
C70_16 C 0.702291 0.008656 0.487954 0.0127 Uiso
O15_16 O 0.732979 0.029607 0.470948 0.0127 Uiso
C84_16 C 0.674765 0.010288 0.475233 0.0127 Uiso
H2_16 H 0.943063 0.172533 0.835374 . .
H3_16 H 0.938348 0.193095 0.79211 . .
H4_16 H 0.964431 0.175661 0.788821 . .
H17_16 H 0.810222 0.164689 0.643928 . .
H18_16 H 0.786277 0.140817 0.601383 . .
H19_16 H 0.825878 0.145564 0.610648 . .
H28_16 H 0.676971 0.027969 0.451871 . .
H33_16 H 0.748473 0.0433477 0.492996 . .
H76_16 H 0.85414 0.01397 0.690314 . .
H77_16 H 0.711206 0.0338468 0.682778 . .
H79_16 H 0.912148 0.054395 0.681196 . .
H80_16 H 0.749764 0.0166419 0.793761 . .
H81_16 H 0.733263 0.0582615 0.790408 . .
H86_16 H 0.817759 0.0628199 0.697279 . .
H90_25 H 0.923845 0.0867649 0.338188 . .
H95_16 H 0.850051 0.0630719 0.797269 . .
H97_16 H 0.75965 0.10429 0.738693 . .
H98_16 H 0.940762 0.100922 0.73111 . .
H100_16 H 0.656362 0.0176648 0.714795 . .
N13_16 N 0.661311 0.891082 0.631069 0.0127 Uiso
N14_16 N 0.663760 0.962076 0.631399 0.0127 Uiso
C17_16 C 0.689076 0.890543 0.641285 0.0127 Uiso
C18_16 C 0.633196 0.869527 0.649590 0.0127 Uiso
C19_16 C 0.634752 0.953975 0.648953 0.0127 Uiso
C20_16 C 0.690466 0.990646 0.644112 0.0127 Uiso
C33_16 C 0.689713 0.868663 0.670045 0.0127 Uiso
C34_16 C 0.632344 0.847059 0.678608 0.0127 Uiso
C35_16 C 0.631042 0.973032 0.678713 0.0127 Uiso
O5_16 O 0.718036 0.868829 0.679523 0.0127 Uiso
C45_16 C 0.660037 0.846338 0.689017 0.0127 Uiso
O6_16 O 0.600354 0.963295 0.695719 0.0127 Uiso
N18_16 N 0.672022 0.896437 0.535598 0.0127 Uiso
N19_16 N 0.669573 0.964982 0.535268 0.0127 Uiso
N21_16 N 0.748487 0.963461 0.754105 0.0127 Uiso
N22_16 N 0.812510 0.963889 0.755617 0.0127 Uiso
C60_16 C 0.644257 0.868133 0.525382 0.0127 Uiso
C61_16 C 0.700137 0.902997 0.517077 0.0127 Uiso
C62_16 C 0.698581 0.985889 0.517714 0.0127 Uiso
C63_16 C 0.642867 0.966846 0.522555 0.0127 Uiso
C64_16 C 0.737245 0.938268 0.781947 0.0127 Uiso
C65_16 C 0.725184 0.963643 0.728847 0.0127 Uiso
C66_16 C 0.802712 0.938837 0.728514 0.0127 Uiso
C67_16 C 0.832182 0.965888 0.787702 0.0127 Uiso
C68_16 C 0.643620 0.845616 0.496622 0.0127 Uiso
C69_16 C 0.700989 0.881381 0.488059 0.0127 Uiso
C71_16 C 0.644262 0.988803 0.493021 0.0127 Uiso
C72_16 C 0.704665 0.914258 0.784943 0.0127 Uiso
C73_16 C 0.692419 0.940323 0.730542 0.0127 Uiso
C74_16 C 0.812390 0.915738 0.733139 0.0127 Uiso
C75_16 C 0.842026 0.943366 0.792861 0.0127 Uiso
O14_16 O 0.615297 0.817459 0.487144 0.0127 Uiso
C83_16 C 0.673296 0.852967 0.477650 0.0127 Uiso
O16_16 O 0.696445 0.889557 0.815180 0.0127 Uiso
C85_16 C 0.681296 0.914600 0.759289 0.0127 Uiso
O17_16 O 0.801359 0.890104 0.703786 0.0127 Uiso
C86_16 C 0.832148 0.917380 0.765185 0.0127 Uiso
C87_16 C 0.675376 0.886919 0.848588 0.0127 Uiso
C88_16 C 0.772448 0.860738 0.713273 0.0127 Uiso
O18_16 O 0.668248 0.912710 0.857011 0.0127 Uiso
C89_16 C 0.660692 0.856965 0.874912 0.0127 Uiso
O19_16 O 0.750333 0.859940 0.732354 0.0127 Uiso
C90_16 C 0.768985 0.827301 0.698078 0.0127 Uiso
H1_16 H 0.84017 0.98603 0.809686 . .
H5_16 H 0.621231 0.862623 0.540342 . .
H6_16 H 0.754939 0.93718 0.802721 . .
H13_16 H 0.733122 0.983358 0.706239 . .
H20_16 H 0.722831 0.925617 0.524726 . .
H21_16 H 0.720357 0.984906 0.527374 . .
H22_16 H 0.619038 0.950111 0.536404 . .
H23_16 H 0.786979 0.936928 0.702731 . .
H24_16 H 0.83984 0.899078 0.76889 . .
H25_16 H 0.622128 0.989308 0.483889 . .
H26_16 H 0.724335 0.887476 0.473537 . .
H27_16 H 0.606218 0.803824 0.512329 . .
H29_16 H 0.675002 0.941738 0.709592 . .
H30_16 H 0.857753 0.945605 0.818804 . .
H31_16 H 0.65536 0.89571 0.761307 . .
H32_16 H 0.674183 0.836266 0.455012 . .
H34_16 H 0.770529 0.827467 0.664626 . .
H35_16 H 0.745253 0.806905 0.70789 . .
H36_16 H 0.788769 0.824339 0.711179 . .
H37_16 H 0.645533 0.835311 0.856072 . .
H38_16 H 0.645461 0.859183 0.898617 . .
H39_16 H 0.680314 0.854436 0.889352 . .
H73_16 H 0.712102 0.908059 0.626325 . .
H75_16 H 0.610502 0.869452 0.641941 . .
H78_16 H 0.612976 0.931216 0.639292 . .
H85_16 H 0.714295 0.997739 0.630263 . .
H88_16 H 0.727116 0.864273 0.654338 . .
H94_16 H 0.608998 0.829807 0.69313 . .
H96_16 H 0.65915 0.828749 0.711654 . .
H99_16 H 0.58486 0.961541 0.673671 . .
N13_17 N 0.108918 0.770230 0.631069 0.0127 Uiso
N14_17 N 0.037924 0.701685 0.631399 0.0127 Uiso
C17_17 C 0.109457 0.798534 0.641285 0.0127 Uiso
C18_17 C 0.130473 0.763670 0.649590 0.0127 Uiso
C19_17 C 0.046025 0.680778 0.648953 0.0127 Uiso
C20_17 C 0.009354 0.699821 0.644112 0.0127 Uiso
C33_17 C 0.131337 0.821051 0.670045 0.0127 Uiso
C34_17 C 0.152941 0.785286 0.678608 0.0127 Uiso
C35_17 C 0.026968 0.658011 0.678713 0.0127 Uiso
O5_17 O 0.131171 0.849208 0.679523 0.0127 Uiso
C45_17 C 0.153662 0.813700 0.689017 0.0127 Uiso
O6_17 O 0.036705 0.637060 0.695719 0.0127 Uiso
N18_17 N 0.103563 0.775585 0.535598 0.0127 Uiso
N19_17 N 0.035018 0.704591 0.535268 0.0127 Uiso
N21_17 N 0.036539 0.785025 0.754105 0.0127 Uiso
N22_17 N 0.036111 0.848620 0.755617 0.0127 Uiso
C60_17 C 0.131867 0.776124 0.525382 0.0127 Uiso
C61_17 C 0.097003 0.797140 0.517077 0.0127 Uiso
C62_17 C 0.014111 0.712692 0.517714 0.0127 Uiso
C63_17 C 0.033154 0.676021 0.522555 0.0127 Uiso
C64_17 C 0.061732 0.798976 0.781947 0.0127 Uiso
C65_17 C 0.036357 0.761540 0.728847 0.0127 Uiso
C66_17 C 0.061163 0.863874 0.728514 0.0127 Uiso
C67_17 C 0.034112 0.866293 0.787702 0.0127 Uiso
C68_17 C 0.154384 0.798004 0.496622 0.0127 Uiso
C69_17 C 0.118619 0.819608 0.488059 0.0127 Uiso
C71_17 C 0.011197 0.655459 0.493021 0.0127 Uiso
C72_17 C 0.085742 0.790406 0.784943 0.0127 Uiso
C73_17 C 0.059677 0.752095 0.730542 0.0127 Uiso
C74_17 C 0.084262 0.896651 0.733139 0.0127 Uiso
C75_17 C 0.056634 0.898659 0.792861 0.0127 Uiso
O14_17 O 0.182541 0.797838 0.487144 0.0127 Uiso
C83_17 C 0.147033 0.820329 0.477650 0.0127 Uiso
O16_17 O 0.110443 0.806887 0.815180 0.0127 Uiso
C85_17 C 0.085400 0.766695 0.759289 0.0127 Uiso
O17_17 O 0.109896 0.911254 0.703786 0.0127 Uiso
C86_17 C 0.082620 0.914767 0.765185 0.0127 Uiso
C87_17 C 0.113081 0.788456 0.848588 0.0127 Uiso
C88_17 C 0.139262 0.911709 0.713273 0.0127 Uiso
O18_17 O 0.087290 0.755537 0.857011 0.0127 Uiso
C89_17 C 0.143035 0.803726 0.874912 0.0127 Uiso
O19_17 O 0.140060 0.890392 0.732354 0.0127 Uiso
C90_17 C 0.172699 0.941683 0.698078 0.0127 Uiso
H1_17 H 0.01397 0.85414 0.809686 . .
H5_17 H 0.137377 0.758608 0.540342 . .
H6_17 H 0.0628199 0.817759 0.802721 . .
H13_17 H 0.0166419 0.749764 0.706239 . .
H20_17 H 0.0743833 0.797215 0.524726 . .
H21_17 H 0.0150939 0.735451 0.527374 . .
H22_17 H 0.0498895 0.668928 0.536404 . .
H23_17 H 0.0630719 0.850051 0.702731 . .
H24_17 H 0.100922 0.940762 0.76889 . .
H25_17 H 0.010692 0.63282 0.483889 . .
H26_17 H 0.112524 0.836859 0.473537 . .
H27_17 H 0.196176 0.802393 0.512329 . .
H29_17 H 0.0582615 0.733263 0.709592 . .
H30_17 H 0.054395 0.912148 0.818804 . .
H31_17 H 0.10429 0.75965 0.761307 . .
H32_17 H 0.163734 0.837918 0.455012 . .
H34_17 H 0.172533 0.943063 0.664626 . .
H35_17 H 0.193095 0.938348 0.70789 . .
H36_17 H 0.175661 0.964431 0.711179 . .
H37_17 H 0.164689 0.810222 0.856072 . .
H38_17 H 0.140817 0.786277 0.898617 . .
H39_17 H 0.145564 0.825878 0.889352 . .
H73_17 H 0.0919415 0.804044 0.626325 . .
H75_17 H 0.130548 0.74105 0.641941 . .
H78_17 H 0.0687843 0.681761 0.639292 . .
H85_17 H 0.00226103 0.716556 0.630263 . .
H88_17 H 0.135727 0.862843 0.654338 . .
H94_17 H 0.170193 0.779191 0.69313 . .
H96_17 H 0.171251 0.830401 0.711654 . .
H99_17 H 0.0384586 0.623319 0.673671 . .
N15_17 N 0.963461 0.748487 0.745895 0.0127 Uiso
N16_17 N 0.963889 0.812510 0.744383 0.0127 Uiso
C21_17 C 0.938268 0.737245 0.718053 0.0127 Uiso
C22_17 C 0.963643 0.725184 0.771153 0.0127 Uiso
C23_17 C 0.938837 0.802712 0.771486 0.0127 Uiso
C24_17 C 0.965888 0.832182 0.712298 0.0127 Uiso
C36_17 C 0.988792 0.677864 0.673646 0.0127 Uiso
C37_17 C 0.914258 0.704665 0.715057 0.0127 Uiso
C38_17 C 0.940323 0.692419 0.769458 0.0127 Uiso
C39_17 C 0.915738 0.812390 0.766861 0.0127 Uiso
C40_17 C 0.943366 0.842026 0.707139 0.0127 Uiso
C46_17 C 0.997810 0.656379 0.691434 0.0127 Uiso
O7_17 O 0.889557 0.696445 0.684820 0.0127 Uiso
C47_17 C 0.914600 0.681296 0.740711 0.0127 Uiso
O8_17 O 0.890104 0.801359 0.796214 0.0127 Uiso
C48_17 C 0.917380 0.832148 0.734815 0.0127 Uiso
C52_17 C 0.886919 0.675376 0.651412 0.0127 Uiso
C53_17 C 0.860738 0.772448 0.786727 0.0127 Uiso
O12_17 O 0.912710 0.668248 0.642989 0.0127 Uiso
C57_17 C 0.856965 0.660692 0.625088 0.0127 Uiso
O13_17 O 0.859940 0.750333 0.767646 0.0127 Uiso
C58_17 C 0.827301 0.768985 0.801922 0.0127 Uiso
C70_17 C 0.991344 0.693635 0.487954 0.0127 Uiso
O15_17 O 0.970393 0.703372 0.470948 0.0127 Uiso
C84_17 C 0.989712 0.664477 0.475233 0.0127 Uiso
H2_17 H 0.827467 0.770529 0.835374 . .
H3_17 H 0.806905 0.745253 0.79211 . .
H4_17 H 0.824339 0.788769 0.788821 . .
H17_17 H 0.835311 0.645533 0.643928 . .
H18_17 H 0.859183 0.645461 0.601383 . .
H19_17 H 0.854436 0.680314 0.610648 . .
H28_17 H 0.972031 0.649002 0.451871 . .
H33_17 H 0.956652 0.705125 0.492996 . .
H57_26 H 0.874212 0.94829 0.645258 . .
H76_17 H 0.98603 0.84017 0.690314 . .
H77_17 H 0.966153 0.677359 0.682778 . .
H79_17 H 0.945605 0.857753 0.681196 . .
H80_17 H 0.983358 0.733122 0.793761 . .
H81_17 H 0.941738 0.675002 0.790408 . .
H86_17 H 0.93718 0.754939 0.697279 . .
H90_26 H 0.913235 0.83708 0.338188 . .
H95_17 H 0.936928 0.786979 0.797269 . .
H97_17 H 0.89571 0.65536 0.738693 . .
H98_17 H 0.899078 0.83984 0.73111 . .
H100_17 H 0.982335 0.638698 0.714795 . .
N13_18 N 0.229770 0.338689 0.631069 0.0127 Uiso
N14_18 N 0.298315 0.336240 0.631399 0.0127 Uiso
N15_18 N 0.251513 0.214975 0.745895 0.0127 Uiso
N16_18 N 0.187490 0.151380 0.744383 0.0127 Uiso
C17_18 C 0.201466 0.310924 0.641285 0.0127 Uiso
C18_18 C 0.236330 0.366804 0.649590 0.0127 Uiso
C19_18 C 0.319222 0.365248 0.648953 0.0127 Uiso
C20_18 C 0.300179 0.309534 0.644112 0.0127 Uiso
C21_18 C 0.262755 0.201024 0.718053 0.0127 Uiso
C22_18 C 0.274816 0.238460 0.771153 0.0127 Uiso
C23_18 C 0.197288 0.136126 0.771486 0.0127 Uiso
C24_18 C 0.167818 0.133707 0.712298 0.0127 Uiso
C33_18 C 0.178949 0.310287 0.670045 0.0127 Uiso
C34_18 C 0.214714 0.367656 0.678608 0.0127 Uiso
C35_18 C 0.341989 0.368958 0.678713 0.0127 Uiso
C36_18 C 0.322136 0.310929 0.673646 0.0127 Uiso
C37_18 C 0.295335 0.209594 0.715057 0.0127 Uiso
C38_18 C 0.307581 0.247905 0.769458 0.0127 Uiso
C39_18 C 0.187610 0.103349 0.766861 0.0127 Uiso
C40_18 C 0.157974 0.101341 0.707139 0.0127 Uiso
O5_18 O 0.150792 0.281964 0.679523 0.0127 Uiso
C45_18 C 0.186300 0.339963 0.689017 0.0127 Uiso
O6_18 O 0.362940 0.399646 0.695719 0.0127 Uiso
C46_18 C 0.343621 0.341432 0.691434 0.0127 Uiso
O7_18 O 0.303555 0.193113 0.684820 0.0127 Uiso
C47_18 C 0.318704 0.233305 0.740711 0.0127 Uiso
O8_18 O 0.198641 0.088746 0.796214 0.0127 Uiso
C48_18 C 0.167852 0.085233 0.734815 0.0127 Uiso
C52_18 C 0.324624 0.211544 0.651412 0.0127 Uiso
C53_18 C 0.227552 0.088291 0.786727 0.0127 Uiso
O12_18 O 0.331752 0.244463 0.642989 0.0127 Uiso
C57_18 C 0.339308 0.196274 0.625088 0.0127 Uiso
O13_18 O 0.249667 0.109608 0.767646 0.0127 Uiso
C58_18 C 0.231015 0.058317 0.801922 0.0127 Uiso
N18_18 N 0.224415 0.327978 0.535598 0.0127 Uiso
N19_18 N 0.295409 0.330427 0.535268 0.0127 Uiso
N21_18 N 0.214975 0.251513 0.754105 0.0127 Uiso
N22_18 N 0.151380 0.187490 0.755617 0.0127 Uiso
C60_18 C 0.223876 0.355743 0.525382 0.0127 Uiso
C61_18 C 0.202860 0.299863 0.517077 0.0127 Uiso
C62_18 C 0.287308 0.301419 0.517714 0.0127 Uiso
C63_18 C 0.323979 0.357133 0.522555 0.0127 Uiso
C64_18 C 0.201024 0.262755 0.781947 0.0127 Uiso
C65_18 C 0.238460 0.274816 0.728847 0.0127 Uiso
C66_18 C 0.136126 0.197288 0.728514 0.0127 Uiso
C67_18 C 0.133707 0.167818 0.787702 0.0127 Uiso
C68_18 C 0.201996 0.356380 0.496622 0.0127 Uiso
C69_18 C 0.180392 0.299011 0.488059 0.0127 Uiso
C70_18 C 0.306365 0.297709 0.487954 0.0127 Uiso
C71_18 C 0.344541 0.355738 0.493021 0.0127 Uiso
C72_18 C 0.209594 0.295335 0.784943 0.0127 Uiso
C73_18 C 0.247905 0.307581 0.730542 0.0127 Uiso
C74_18 C 0.103349 0.187610 0.733139 0.0127 Uiso
C75_18 C 0.101341 0.157974 0.792861 0.0127 Uiso
O14_18 O 0.202162 0.384703 0.487144 0.0127 Uiso
C83_18 C 0.179671 0.326704 0.477650 0.0127 Uiso
O15_18 O 0.296628 0.267021 0.470948 0.0127 Uiso
C84_18 C 0.335523 0.325235 0.475233 0.0127 Uiso
O16_18 O 0.193113 0.303555 0.815180 0.0127 Uiso
C85_18 C 0.233305 0.318704 0.759289 0.0127 Uiso
O17_18 O 0.088746 0.198641 0.703786 0.0127 Uiso
C86_18 C 0.085233 0.167852 0.765185 0.0127 Uiso
C87_18 C 0.211544 0.324624 0.848588 0.0127 Uiso
C88_18 C 0.088291 0.227552 0.713273 0.0127 Uiso
O18_18 O 0.244463 0.331752 0.857011 0.0127 Uiso
C89_18 C 0.196274 0.339308 0.874912 0.0127 Uiso
O19_18 O 0.109608 0.249667 0.732354 0.0127 Uiso
C90_18 C 0.058317 0.231015 0.698078 0.0127 Uiso
H1_18 H 0.14586 0.15983 0.809686 . .
H2_18 H 0.229471 0.0569374 0.835374 . .
H3_18 H 0.254747 0.0616517 0.79211 . .
H4_18 H 0.211231 0.0355693 0.788821 . .
H5_18 H 0.241392 0.378769 0.540342 . .
H6_18 H 0.182241 0.245061 0.802721 . .
H13_18 H 0.250236 0.266878 0.706239 . .
H17_18 H 0.354467 0.189778 0.643928 . .
H18_18 H 0.354539 0.213723 0.601383 . .
H19_18 H 0.319686 0.174122 0.610648 . .
H20_18 H 0.202785 0.277169 0.524726 . .
H21_18 H 0.264549 0.279643 0.527374 . .
H22_18 H 0.331072 0.380962 0.536404 . .
H23_18 H 0.149949 0.213021 0.702731 . .
H24_18 H 0.0592379 0.16016 0.76889 . .
H25_18 H 0.36718 0.377872 0.483889 . .
H26_18 H 0.163141 0.275665 0.473537 . .
H27_18 H 0.197607 0.393782 0.512329 . .
H28_18 H 0.350998 0.323029 0.451871 . .
H29_18 H 0.266737 0.324998 0.709592 . .
H30_18 H 0.0878518 0.142247 0.818804 . .
H31_18 H 0.24035 0.34464 0.761307 . .
H32_18 H 0.162082 0.325817 0.455012 . .
H33_18 H 0.294875 0.251527 0.492996 . .
H34_18 H 0.0569374 0.229471 0.664626 . .
H35_18 H 0.0616517 0.254747 0.70789 . .
H36_18 H 0.0355693 0.211231 0.711179 . .
H37_18 H 0.189778 0.354467 0.856072 . .
H38_18 H 0.213723 0.354539 0.898617 . .
H39_18 H 0.174122 0.319686 0.889352 . .
H73_18 H 0.195956 0.287898 0.626325 . .
H75_18 H 0.25895 0.389498 0.641941 . .
H76_18 H 0.15983 0.14586 0.690314 . .
H77_18 H 0.322641 0.288794 0.682778 . .
H78_18 H 0.318239 0.387024 0.639292 . .
H79_18 H 0.142247 0.0878518 0.681196 . .
H80_18 H 0.266878 0.250236 0.793761 . .
H81_18 H 0.324998 0.266737 0.790408 . .
H85_18 H 0.283444 0.285705 0.630263 . .
H86_18 H 0.245061 0.182241 0.697279 . .
H88_18 H 0.137157 0.272884 0.654338 . .
H90_27 H 0.16292 0.0761552 0.338188 . .
H94_18 H 0.220809 0.391002 0.69313 . .
H95_18 H 0.213021 0.149949 0.797269 . .
H96_18 H 0.169599 0.34085 0.711654 . .
H97_18 H 0.34464 0.24035 0.738693 . .
H98_18 H 0.16016 0.0592379 0.73111 . .
H99_18 H 0.376681 0.41514 0.673671 . .
H100_18 H 0.361302 0.343638 0.714795 . .
H57_27 H 0.0517099 0.925922 0.645258 . .
H57_28 H 0.459121 0.740745 0.521409 . .
H90_28 H 0.420098 0.590511 0.828479 . .
H57_29 H 0.259255 0.718377 0.521409 . .
H90_29 H 0.409489 0.829587 0.828479 . .
H57_30 H 0.281623 0.540879 0.521409 . .
H90_30 H 0.170413 0.579902 0.828479 . .
H57_31 H 0.792455 0.407412 0.188075 . .
H90_31 H 0.753432 0.257178 0.495145 . .
H57_32 H 0.592588 0.385043 0.188075 . .
H90_32 H 0.742822 0.496253 0.495145 . .
H57_33 H 0.614957 0.207545 0.188075 . .
H90_33 H 0.503747 0.246568 0.495145 . .
H57_34 H 0.125788 0.0740782 0.854742 . .
H90_34 H 0.0867649 0.923845 0.161812 . .
H90_35 H 0.0761552 0.16292 0.161812 . .
H57_35 H 0.925922 0.0517099 0.854742 . .
H90_36 H 0.83708 0.913235 0.161812 . .
H57_36 H 0.94829 0.874212 0.854742 . .
loop_
_geom_bond_atom_site_label_1
_geom_bond_atom_site_label_2
_geom_bond_site_symmetry_1
_geom_bond_site_symmetry_2
Nb1 C1 1_555 1_555
C1 N1 1_555 1_555
C2 Nb1 1_555 1_555
C3 Nb1 1_555 1_555
C4 Nb1 1_555 1_555
C5 Nb1 1_555 1_555
C6 Nb1 1_555 1_555
C7 Nb1 1_555 1_555
C8 Nb1 1_555 1_555
N1 Fe1 1_555 1_555
N2 C2 1_555 1_555
N4 C4 1_555 1_555
N5 C5 1_555 1_555
N6 C6 1_555 1_555
N7 C7 1_555 1_555
N8 C8 1_555 1_555
Fe1 N9 1_555 1_555
Fe2 N2 1_555 1_555
N9 C9 1_555 1_555
N10 Fe1 1_555 1_555
N11 Fe1 1_555 1_555
N12 Fe1 1_555 1_555
N13 Fe2 1_555 1_555
N14 Fe2 1_555 1_555
C9 C25 1_555 1_555
C10 N9 1_555 1_555
C11 N10 1_555 1_555
C12 N10 1_555 1_555
C13 N11 1_555 1_555
C14 N11 1_555 1_555
C15 N12 1_555 1_555
C16 N12 1_555 1_555
C17 N13 1_555 1_555
C18 N13 1_555 1_555
C19 N14 1_555 1_555
C20 N14 1_555 1_555
C25 O1 1_555 1_555
C26 C10 1_555 1_555
C27 C11 1_555 1_555
C28 C12 1_555 1_555
C29 C13 1_555 1_555
C30 C14 1_555 1_555
C31 C15 1_555 1_555
C32 C16 1_555 1_555
C41 C25 1_555 1_555
O2 C27 1_555 1_555
C42 C27 1_555 1_555
O3 C29 1_555 1_555
C43 C29 1_555 1_555
O4 C31 1_555 1_555
C44 C31 1_555 1_555
C49 O2 1_555 1_555
C50 O3 1_555 1_555
C51 O4 1_555 1_555
O9 C49 1_555 1_555
C54 C49 1_555 1_555
O10 C50 1_555 1_555
C55 C50 1_555 1_555
O11 C51 1_555 1_555
C56 C51 1_555 1_555
O12 C52 1_555 1_555
C57 C52 1_555 1_555
Fe4 N5 1_555 1_555
N17 Fe1 1_555 1_555
N18 Fe2 1_555 1_555
N19 Fe2 1_555 1_555
N20 Fe2 1_555 1_555
C59 N17 1_555 1_555
C60 N18 1_555 1_555
C61 N18 1_555 1_555
C62 N19 1_555 1_555
C63 N19 1_555 1_555
Nb2 C59 1_555 1_555
C68 C60 1_555 1_555
C69 C61 1_555 1_555
C70 C62 1_555 1_555
C71 C63 1_555 1_555
C76 Nb2 1_555 1_555
C77 Nb2 1_555 1_555
C78 Nb2 1_555 1_555
C79 Nb2 1_555 1_555
C80 Nb2 1_555 1_555
C81 Nb2 1_555 1_555
C82 Nb2 1_555 1_555
O14 C68 1_555 1_555
C83 C68 1_555 1_555
O15 C70 1_555 1_555
C84 C70 1_555 1_555
N24 C76 1_555 1_555
N25 C77 1_555 1_555
N26 C78 1_555 1_555
N27 C79 1_555 1_555
N28 C80 1_555 1_555
N29 C81 1_555 1_555
N30 C82 1_555 1_555
Fe5 N24 1_555 1_555
Fe6 N25 1_555 1_555
Fe7 N26 1_555 1_555
N31 Fe5 1_555 1_555
N32 Fe5 1_555 1_555
N33 Fe5 1_555 1_555
N34 Fe5 1_555 1_555
N35 Fe5 1_555 1_555
C91 N31 1_555 1_555
C92 N31 1_555 1_555
C93 N32 1_555 1_555
C94 N32 1_555 1_555
C95 N33 1_555 1_555
C96 N33 1_555 1_555
C97 N34 1_555 1_555
C98 N34 1_555 1_555
C99 C91 1_555 1_555
C100 C92 1_555 1_555
C101 C93 1_555 1_555
C102 C94 1_555 1_555
C103 C95 1_555 1_555
C104 C96 1_555 1_555
C105 C97 1_555 1_555
C106 C98 1_555 1_555
O20 C99 1_555 1_555
C107 C99 1_555 1_555
O21 C101 1_555 1_555
C108 C101 1_555 1_555
O22 C103 1_555 1_555
C109 C103 1_555 1_555
O23 C105 1_555 1_555
C110 C105 1_555 1_555
C111 O21 1_555 1_555
C112 O22 1_555 1_555
C113 O23 1_555 1_555
O24 C111 1_555 1_555
C114 C111 1_555 1_555
O25 C112 1_555 1_555
C115 C112 1_555 1_555
O26 C113 1_555 1_555
C116 C113 1_555 1_555
C26 C41 1_555 1_555
C28 C42 1_555 1_555
C30 C43 1_555 1_555
C32 C44 1_555 1_555
C69 C83 1_555 1_555
C71 C84 1_555 1_555
C100 C107 1_555 1_555
C102 C108 1_555 1_555
C104 C109 1_555 1_555
C106 C110 1_555 1_555
C60 H5 1_555 1_555
C56 H7 1_555 1_555
C56 H8 1_555 1_555
C54 H10 1_555 1_555
C54 H11 1_555 1_555
C54 H12 1_555 1_555
C55 H14 1_555 1_555
C55 H15 1_555 1_555
C55 H16 1_555 1_555
C57 H17 1_555 1_555
C57 H18 1_555 1_555
C57 H19 1_555 1_555
C61 H20 1_555 1_555
C62 H21 1_555 1_555
C63 H22 1_555 1_555
C71 H25 1_555 1_555
C69 H26 1_555 1_555
O14 H27 1_555 1_555
C84 H28 1_555 1_555
C83 H32 1_555 1_555
O15 H33 1_555 1_555
C114 H40 1_555 1_555
C114 H41 1_555 1_555
C114 H42 1_555 1_555
C98 H43 1_555 1_555
C104 H44 1_555 1_555
C94 H45 1_555 1_555
C95 H46 1_555 1_555
C108 H47 1_555 1_555
C107 H48 1_555 1_555
C110 H49 1_555 1_555
C91 H50 1_555 1_555
C97 H51 1_555 1_555
C93 H52 1_555 1_555
C96 H53 1_555 1_555
C100 H54 1_555 1_555
C102 H55 1_555 1_555
C106 H56 1_555 1_555
O20 H57 1_555 1_555
C109 H58 1_555 1_555
C92 H59 1_555 1_555
C115 H60 1_555 1_555
C115 H61 1_555 1_555
C115 H62 1_555 1_555
C116 H63 1_555 1_555
C116 H64 1_555 1_555
C116 H65 1_555 1_555
C12 H66 1_555 1_555
C13 H67 1_555 1_555
C15 H68 1_555 1_555
C11 H69 1_555 1_555
C14 H70 1_555 1_555
C9 H71 1_555 1_555
C16 H72 1_555 1_555
C17 H73 1_555 1_555
C10 H74 1_555 1_555
C18 H75 1_555 1_555
C19 H78 1_555 1_555
C42 H82 1_555 1_555
C44 H83 1_555 1_555
C32 H84 1_555 1_555
C20 H85 1_555 1_555
C30 H89 1_555 1_555
O1 H90 1_555 1_555
C28 H91 1_555 1_555
C26 H92 1_555 1_555
C41 H93 1_555 1_555
Fe3 N3 1_555 1_555
N15 Fe3 1_555 1_555
N16 Fe3 1_555 1_555
C21 N15 1_555 1_555
C22 N15 1_555 1_555
C23 N16 1_555 1_555
C24 N16 1_555 1_555
C37 C21 1_555 1_555
C38 C22 1_555 1_555
C39 C23 1_555 1_555
C40 C24 1_555 1_555
O5 C33 1_555 1_555
C45 C33 1_555 1_555
O6 C35 1_555 1_555
C46 C35 1_555 1_555
O7 C37 1_555 1_555
C47 C37 1_555 1_555
O8 C39 1_555 1_555
C48 C39 1_555 1_555
C53 O8 1_555 1_555
O13 C53 1_555 1_555
C58 C53 1_555 1_555
N21 Fe3 1_555 1_555
N22 Fe3 1_555 1_555
N23 Fe3 1_555 1_555
C64 N21 1_555 1_555
C65 N21 1_555 1_555
C66 N22 1_555 1_555
C67 N22 1_555 1_555
C72 C64 1_555 1_555
C73 C65 1_555 1_555
C74 C66 1_555 1_555
C75 C67 1_555 1_555
O16 C72 1_555 1_555
C85 C72 1_555 1_555
O17 C74 1_555 1_555
C86 C74 1_555 1_555
C87 O16 1_555 1_555
C88 O17 1_555 1_555
O18 C87 1_555 1_555
C89 C87 1_555 1_555
O19 C88 1_555 1_555
C90 C88 1_555 1_555
C34 C45 1_555 1_555
C36 C46 1_555 1_555
C38 C47 1_555 1_555
C40 C48 1_555 1_555
C73 C85 1_555 1_555
C75 C86 1_555 1_555
C67 H1 1_555 1_555
C58 H2 1_555 1_555
C58 H3 1_555 1_555
C58 H4 1_555 1_555
C64 H6 1_555 1_555
C65 H13 1_555 1_555
C66 H23 1_555 1_555
C86 H24 1_555 1_555
C73 H29 1_555 1_555
C75 H30 1_555 1_555
C85 H31 1_555 1_555
C90 H35 1_555 1_555
C90 H36 1_555 1_555
C89 H37 1_555 1_555
C89 H38 1_555 1_555
C89 H39 1_555 1_555
C24 H76 1_555 1_555
C36 H77 1_555 1_555
C40 H79 1_555 1_555
C22 H80 1_555 1_555
C38 H81 1_555 1_555
C21 H86 1_555 1_555
C34 H94 1_555 1_555
C23 H95 1_555 1_555
C45 H96 1_555 1_555
C47 H97 1_555 1_555
C48 H98 1_555 1_555
O6 H99 1_555 1_555
C46 H100 1_555 1_555
C71_2 C84_2 1_555 1_555
C57_2 H17_2 1_555 1_555
C57_2 H18_2 1_555 1_555
C71_2 H25_2 1_555 1_555
C84_2 H28_2 1_555 1_555
O6_2 C35_2 1_555 1_555
C46_2 C35_2 1_555 1_555
O6_2 H99_2 1_555 1_555
C46_2 H100_2 1_555 1_555
Nb1_2 C1_2 1_555 1_555
C1_2 N1_2 1_555 1_555
C2_2 Nb1_2 1_555 1_555
C3_2 Nb1_2 1_555 1_555
C4_2 Nb1_2 1_555 1_555
C5_2 Nb1_2 1_555 1_555
C6_2 Nb1_2 1_555 1_555
C7_2 Nb1_2 1_555 1_555
C8_2 Nb1_2 1_555 1_555
N1_2 Fe1_2 1_555 1_555
N2_2 C2_2 1_555 1_555
N4_2 C4_2 1_555 1_555
N5_2 C5_2 1_555 1_555
N6_2 C6_2 1_555 1_555
N7_2 C7_2 1_555 1_555
N8_2 C8_2 1_555 1_555
Fe1_2 N9_2 1_555 1_555
Fe2_2 N2_2 1_555 1_555
N9_2 C9_2 1_555 1_555
N10_2 Fe1_2 1_555 1_555
N11_2 Fe1_2 1_555 1_555
N12_2 Fe1_2 1_555 1_555
N13_2 Fe2_2 1_555 1_555
N14_2 Fe2_2 1_555 1_555
C9_2 C25_2 1_555 1_555
C10_2 N9_2 1_555 1_555
C11_2 N10_2 1_555 1_555
C12_2 N10_2 1_555 1_555
C13_2 N11_2 1_555 1_555
C14_2 N11_2 1_555 1_555
C15_2 N12_2 1_555 1_555
C16_2 N12_2 1_555 1_555
C17_2 N13_2 1_555 1_555
C18_2 N13_2 1_555 1_555
C19_2 N14_2 1_555 1_555
C20_2 N14_2 1_555 1_555
C25_2 O1_2 1_555 1_555
C26_2 C10_2 1_555 1_555
C27_2 C11_2 1_555 1_555
C28_2 C12_2 1_555 1_555
C29_2 C13_2 1_555 1_555
C30_2 C14_2 1_555 1_555
C31_2 C15_2 1_555 1_555
C32_2 C16_2 1_555 1_555
C41_2 C25_2 1_555 1_555
O2_2 C27_2 1_555 1_555
C42_2 C27_2 1_555 1_555
O3_2 C29_2 1_555 1_555
C43_2 C29_2 1_555 1_555
O4_2 C31_2 1_555 1_555
C44_2 C31_2 1_555 1_555
C49_2 O2_2 1_555 1_555
C50_2 O3_2 1_555 1_555
C51_2 O4_2 1_555 1_555
C54_2 C49_2 1_555 1_555
O10_2 C50_2 1_555 1_555
C55_2 C50_2 1_555 1_555
O11_2 C51_2 1_555 1_555
C56_2 C51_2 1_555 1_555
O12_2 C52_2 1_555 1_555
Fe4_2 N5_2 1_555 1_555
N17_2 Fe1_2 1_555 1_555
N18_2 Fe2_2 1_555 1_555
N19_2 Fe2_2 1_555 1_555
N20_2 Fe2_2 1_555 1_555
C59_2 N17_2 1_555 1_555
C60_2 N18_2 1_555 1_555
C61_2 N18_2 1_555 1_555
C62_2 N19_2 1_555 1_555
C63_2 N19_2 1_555 1_555
Nb2_2 C59_2 1_555 1_555
C68_2 C60_2 1_555 1_555
C69_2 C61_2 1_555 1_555
C70_2 C62_2 1_555 1_555
C76_2 Nb2_2 1_555 1_555
C77_2 Nb2_2 1_555 1_555
C78_2 Nb2_2 1_555 1_555
C79_2 Nb2_2 1_555 1_555
C80_2 Nb2_2 1_555 1_555
C81_2 Nb2_2 1_555 1_555
C82_2 Nb2_2 1_555 1_555
O14_2 C68_2 1_555 1_555
C83_2 C68_2 1_555 1_555
O15_2 C70_2 1_555 1_555
N24_2 C76_2 1_555 1_555
N25_2 C77_2 1_555 1_555
N26_2 C78_2 1_555 1_555
N27_2 C79_2 1_555 1_555
N28_2 C80_2 1_555 1_555
N29_2 C81_2 1_555 1_555
N30_2 C82_2 1_555 1_555
Fe4 N24_2 1_555 1_555
Fe6_3 N25_2 1_555 1_555
Fe7_2 N26_2 1_555 1_555
N31_2 Fe4 1_555 1_555
N32_2 Fe4 1_555 1_555
N33_2 Fe4 1_555 1_555
N34_2 Fe4 1_555 1_555
C91_2 N31_2 1_555 1_555
C92_2 N31_2 1_555 1_555
C93_2 N32_2 1_555 1_555
C94_2 N32_2 1_555 1_555
C95_2 N33_2 1_555 1_555
C96_2 N33_2 1_555 1_555
C97_2 N34_2 1_555 1_555
C98_2 N34_2 1_555 1_555
C99_2 C91_2 1_555 1_555
C100_2 C92_2 1_555 1_555
C101_2 C93_2 1_555 1_555
C102_2 C94_2 1_555 1_555
C103_2 C95_2 1_555 1_555
C104_2 C96_2 1_555 1_555
C105_2 C97_2 1_555 1_555
C106_2 C98_2 1_555 1_555
O20_2 C99_2 1_555 1_555
C107_2 C99_2 1_555 1_555
O21_2 C101_2 1_555 1_555
C108_2 C101_2 1_555 1_555
O22_2 C103_2 1_555 1_555
C109_2 C103_2 1_555 1_555
O23_2 C105_2 1_555 1_555
C110_2 C105_2 1_555 1_555
C111_2 O21_2 1_555 1_555
C112_2 O22_2 1_555 1_555
C113_2 O23_2 1_555 1_555
O24_2 C111_2 1_555 1_555
C114_2 C111_2 1_555 1_555
O25_2 C112_2 1_555 1_555
C115_2 C112_2 1_555 1_555
O26_2 C113_2 1_555 1_555
C116_2 C113_2 1_555 1_555
C26_2 C41_2 1_555 1_555
C28_2 C42_2 1_555 1_555
C30_2 C43_2 1_555 1_555
C32_2 C44_2 1_555 1_555
C69_2 C83_2 1_555 1_555
C100_2 C107_2 1_555 1_555
C102_2 C108_2 1_555 1_555
C104_2 C109_2 1_555 1_555
C106_2 C110_2 1_555 1_555
C60_2 H5_2 1_555 1_555
C56_2 H7_2 1_555 1_555
C56_2 H8_2 1_555 1_555
C54_2 H10_2 1_555 1_555
C54_2 H12_2 1_555 1_555
C55_2 H14_2 1_555 1_555
C55_2 H15_2 1_555 1_555
C55_2 H16_2 1_555 1_555
C61_2 H20_2 1_555 1_555
C62_2 H21_2 1_555 1_555
C63_2 H22_2 1_555 1_555
C69_2 H26_2 1_555 1_555
O14_2 H27_2 1_555 1_555
C83_2 H32_2 1_555 1_555
O15_2 H33_2 1_555 1_555
C114_2 H40_2 1_555 1_555
C114_2 H41_2 1_555 1_555
C114_2 H42_2 1_555 1_555
C98_2 H43_2 1_555 1_555
C104_2 H44_2 1_555 1_555
C94_2 H45_2 1_555 1_555
C95_2 H46_2 1_555 1_555
C108_2 H47_2 1_555 1_555
C107_2 H48_2 1_555 1_555
C110_2 H49_2 1_555 1_555
C91_2 H50_2 1_555 1_555
C97_2 H51_2 1_555 1_555
C93_2 H52_2 1_555 1_555
C96_2 H53_2 1_555 1_555
C100_2 H54_2 1_555 1_555
C102_2 H55_2 1_555 1_555
C106_2 H56_2 1_555 1_555
O20_2 H57_2 1_555 1_555
C109_2 H58_2 1_555 1_555
C92_2 H59_2 1_555 1_555
C115_2 H60_2 1_555 1_555
C115_2 H61_2 1_555 1_555
C115_2 H62_2 1_555 1_555
C116_2 H63_2 1_555 1_555
C116_2 H64_2 1_555 1_555
C116_2 H65_2 1_555 1_555
C12_2 H66_2 1_555 1_555
C13_2 H67_2 1_555 1_555
C15_2 H68_2 1_555 1_555
C11_2 H69_2 1_555 1_555
C14_2 H70_2 1_555 1_555
C9_2 H71_2 1_555 1_555
C16_2 H72_2 1_555 1_555
C17_2 H73_2 1_555 1_555
C10_2 H74_2 1_555 1_555
C18_2 H75_2 1_555 1_555
C19_2 H78_2 1_555 1_555
C42_2 H82_2 1_555 1_555
C44_2 H83_2 1_555 1_555
C32_2 H84_2 1_555 1_555
C20_2 H85_2 1_555 1_555
C30_2 H89_2 1_555 1_555
O1_2 H90_2 1_555 1_555
C28_2 H91_2 1_555 1_555
C26_2 H92_2 1_555 1_555
C41_2 H93_2 1_555 1_555
Fe3_2 N3_2 1_555 1_555
N15_2 Fe3_2 1_555 1_555
N16_2 Fe3_2 1_555 1_555
C21_2 N15_2 1_555 1_555
C22_2 N15_2 1_555 1_555
C23_2 N16_2 1_555 1_555
C24_2 N16_2 1_555 1_555
C37_2 C21_2 1_555 1_555
C38_2 C22_2 1_555 1_555
C39_2 C23_2 1_555 1_555
C40_2 C24_2 1_555 1_555
O5_2 C33_2 1_555 1_555
C45_2 C33_2 1_555 1_555
O7_2 C37_2 1_555 1_555
C47_2 C37_2 1_555 1_555
O8_2 C39_2 1_555 1_555
C48_2 C39_2 1_555 1_555
C53_2 O8_2 1_555 1_555
O13_2 C53_2 1_555 1_555
C58_2 C53_2 1_555 1_555
N21_2 Fe3_2 1_555 1_555
N22_2 Fe3_2 1_555 1_555
N23_2 Fe3_2 1_555 1_555
C64_2 N21_2 1_555 1_555
C65_2 N21_2 1_555 1_555
C66_2 N22_2 1_555 1_555
C67_2 N22_2 1_555 1_555
C72_2 C64_2 1_555 1_555
C73_2 C65_2 1_555 1_555
C74_2 C66_2 1_555 1_555
C75_2 C67_2 1_555 1_555
O16_2 C72_2 1_555 1_555
C85_2 C72_2 1_555 1_555
O17_2 C74_2 1_555 1_555
C86_2 C74_2 1_555 1_555
C87_2 O16_2 1_555 1_555
C88_2 O17_2 1_555 1_555
O18_2 C87_2 1_555 1_555
C89_2 C87_2 1_555 1_555
O19_2 C88_2 1_555 1_555
C90_2 C88_2 1_555 1_555
C34_2 C45_2 1_555 1_555
C38_2 C47_2 1_555 1_555
C40_2 C48_2 1_555 1_555
C73_2 C85_2 1_555 1_555
C75_2 C86_2 1_555 1_555
C67_2 H1_2 1_555 1_555
C58_2 H2_2 1_555 1_555
C58_2 H3_2 1_555 1_555
C58_2 H4_2 1_555 1_555
C64_2 H6_2 1_555 1_555
C65_2 H13_2 1_555 1_555
C66_2 H23_2 1_555 1_555
C86_2 H24_2 1_555 1_555
C73_2 H29_2 1_555 1_555
C75_2 H30_2 1_555 1_555
C85_2 H31_2 1_555 1_555
C90_2 H35_2 1_555 1_555
C90_2 H36_2 1_555 1_555
C89_2 H37_2 1_555 1_555
C89_2 H38_2 1_555 1_555
C89_2 H39_2 1_555 1_555
C24_2 H76_2 1_555 1_555
C36_2 H77_2 1_555 1_555
C40_2 H79_2 1_555 1_555
C22_2 H80_2 1_555 1_555
C38_2 H81_2 1_555 1_555
C21_2 H86_2 1_555 1_555
C34_2 H94_2 1_555 1_555
C23_2 H95_2 1_555 1_555
C45_2 H96_2 1_555 1_555
C48_2 H98_2 1_555 1_555
Nb1_3 C1_3 1_555 1_555
C1_3 N1_3 1_555 1_555
C2_3 Nb1_3 1_555 1_555
C3_3 Nb1_3 1_555 1_555
C4_3 Nb1_3 1_555 1_555
C5_3 Nb1_3 1_555 1_555
C6_3 Nb1_3 1_555 1_555
C7_3 Nb1_3 1_555 1_555
C8_3 Nb1_3 1_555 1_555
N1_3 Fe1_3 1_555 1_555
N2_3 C2_3 1_555 1_555
N4_3 C4_3 1_555 1_555
N35 C5_3 1_555 1_555
N6_3 C6_3 1_555 1_555
N7_3 C7_3 1_555 1_555
N8_3 C8_3 1_555 1_555
Fe1_3 N9_3 1_555 1_555
Fe2_3 N2_3 1_555 1_555
N9_3 C9_3 1_555 1_555
N10_3 Fe1_3 1_555 1_555
N11_3 Fe1_3 1_555 1_555
N12_3 Fe1_3 1_555 1_555
N13_3 Fe2_3 1_555 1_555
N14_3 Fe2_3 1_555 1_555
C9_3 C25_3 1_555 1_555
C10_3 N9_3 1_555 1_555
C11_3 N10_3 1_555 1_555
C12_3 N10_3 1_555 1_555
C13_3 N11_3 1_555 1_555
C14_3 N11_3 1_555 1_555
C15_3 N12_3 1_555 1_555
C16_3 N12_3 1_555 1_555
C17_3 N13_3 1_555 1_555
C18_3 N13_3 1_555 1_555
C19_3 N14_3 1_555 1_555
C20_3 N14_3 1_555 1_555
C25_3 O1_3 1_555 1_555
C26_3 C10_3 1_555 1_555
C27_3 C11_3 1_555 1_555
C28_3 C12_3 1_555 1_555
C29_3 C13_3 1_555 1_555
C30_3 C14_3 1_555 1_555
C31_3 C15_3 1_555 1_555
C32_3 C16_3 1_555 1_555
C41_3 C25_3 1_555 1_555
O2_3 C27_3 1_555 1_555
C42_3 C27_3 1_555 1_555
O3_3 C29_3 1_555 1_555
C43_3 C29_3 1_555 1_555
O4_3 C31_3 1_555 1_555
C44_3 C31_3 1_555 1_555
C49_3 O2_3 1_555 1_555
C50_3 O3_3 1_555 1_555
C51_3 O4_3 1_555 1_555
C54_3 C49_3 1_555 1_555
O10_3 C50_3 1_555 1_555
C55_3 C50_3 1_555 1_555
O11_3 C51_3 1_555 1_555
C56_3 C51_3 1_555 1_555
O12_3 C52_3 1_555 1_555
N17_3 Fe1_3 1_555 1_555
N18_3 Fe2_3 1_555 1_555
N19_3 Fe2_3 1_555 1_555
N20_3 Fe2_3 1_555 1_555
C59_3 N17_3 1_555 1_555
C60_3 N18_3 1_555 1_555
C61_3 N18_3 1_555 1_555
C62_3 N19_3 1_555 1_555
C63_3 N19_3 1_555 1_555
Nb2_3 C59_3 1_555 1_555
C68_3 C60_3 1_555 1_555
C69_3 C61_3 1_555 1_555
C70_3 C62_3 1_555 1_555
C76_3 Nb2_3 1_555 1_555
C77_3 Nb2_3 1_555 1_555
C78_3 Nb2_3 1_555 1_555
C79_3 Nb2_3 1_555 1_555
C80_3 Nb2_3 1_555 1_555
C81_3 Nb2_3 1_555 1_555
C82_3 Nb2_3 1_555 1_555
O14_3 C68_3 1_555 1_555
C83_3 C68_3 1_555 1_555
O15_3 C70_3 1_555 1_555
N24_3 C76_3 1_555 1_555
N25_3 C77_3 1_555 1_555
N26_3 C78_3 1_555 1_555
N27_3 C79_3 1_555 1_555
N28_3 C80_3 1_555 1_555
N29_3 C81_3 1_555 1_555
N30_3 C82_3 1_555 1_555
Fe4_2 N24_3 1_555 1_555
Fe6_4 N25_3 1_555 1_555
Fe7_3 N26_3 1_555 1_555
N31_3 Fe4_2 1_555 1_555
N32_3 Fe4_2 1_555 1_555
N33_3 Fe4_2 1_555 1_555
N34_3 Fe4_2 1_555 1_555
C91_3 N31_3 1_555 1_555
C92_3 N31_3 1_555 1_555
C93_3 N32_3 1_555 1_555
C94_3 N32_3 1_555 1_555
C95_3 N33_3 1_555 1_555
C96_3 N33_3 1_555 1_555
C97_3 N34_3 1_555 1_555
C98_3 N34_3 1_555 1_555
C99_3 C91_3 1_555 1_555
C100_3 C92_3 1_555 1_555
C101_3 C93_3 1_555 1_555
C102_3 C94_3 1_555 1_555
C103_3 C95_3 1_555 1_555
C104_3 C96_3 1_555 1_555
C105_3 C97_3 1_555 1_555
C106_3 C98_3 1_555 1_555
O20_3 C99_3 1_555 1_555
C107_3 C99_3 1_555 1_555
O21_3 C101_3 1_555 1_555
C108_3 C101_3 1_555 1_555
O22_3 C103_3 1_555 1_555
C109_3 C103_3 1_555 1_555
O23_3 C105_3 1_555 1_555
C110_3 C105_3 1_555 1_555
C111_3 O21_3 1_555 1_555
C112_3 O22_3 1_555 1_555
C113_3 O23_3 1_555 1_555
O24_3 C111_3 1_555 1_555
C114_3 C111_3 1_555 1_555
O25_3 C112_3 1_555 1_555
C115_3 C112_3 1_555 1_555
O26_3 C113_3 1_555 1_555
C116_3 C113_3 1_555 1_555
C26_3 C41_3 1_555 1_555
C28_3 C42_3 1_555 1_555
C30_3 C43_3 1_555 1_555
C32_3 C44_3 1_555 1_555
C69_3 C83_3 1_555 1_555
C100_3 C107_3 1_555 1_555
C102_3 C108_3 1_555 1_555
C104_3 C109_3 1_555 1_555
C106_3 C110_3 1_555 1_555
C60_3 H5_3 1_555 1_555
C56_3 H7_3 1_555 1_555
C56_3 H8_3 1_555 1_555
C54_3 H10_3 1_555 1_555
C54_3 H12_3 1_555 1_555
C55_3 H14_3 1_555 1_555
C55_3 H15_3 1_555 1_555
C55_3 H16_3 1_555 1_555
C61_3 H20_3 1_555 1_555
C62_3 H21_3 1_555 1_555
C63_3 H22_3 1_555 1_555
C69_3 H26_3 1_555 1_555
O14_3 H27_3 1_555 1_555
C83_3 H32_3 1_555 1_555
O15_3 H33_3 1_555 1_555
C114_3 H40_3 1_555 1_555
C114_3 H41_3 1_555 1_555
C114_3 H42_3 1_555 1_555
C98_3 H43_3 1_555 1_555
C104_3 H44_3 1_555 1_555
C94_3 H45_3 1_555 1_555
C95_3 H46_3 1_555 1_555
C108_3 H47_3 1_555 1_555
C107_3 H48_3 1_555 1_555
C110_3 H49_3 1_555 1_555
C91_3 H50_3 1_555 1_555
C97_3 H51_3 1_555 1_555
C93_3 H52_3 1_555 1_555
C96_3 H53_3 1_555 1_555
C100_3 H54_3 1_555 1_555
C102_3 H55_3 1_555 1_555
C106_3 H56_3 1_555 1_555
O20_3 H57_3 1_555 1_555
C109_3 H58_3 1_555 1_555
C92_3 H59_3 1_555 1_555
C115_3 H60_3 1_555 1_555
C115_3 H61_3 1_555 1_555
C115_3 H62_3 1_555 1_555
C116_3 H63_3 1_555 1_555
C116_3 H64_3 1_555 1_555
C116_3 H65_3 1_555 1_555
C12_3 H66_3 1_555 1_555
C13_3 H67_3 1_555 1_555
C15_3 H68_3 1_555 1_555
C11_3 H69_3 1_555 1_555
C14_3 H70_3 1_555 1_555
C9_3 H71_3 1_555 1_555
C16_3 H72_3 1_555 1_555
C17_3 H73_3 1_555 1_555
C10_3 H74_3 1_555 1_555
C18_3 H75_3 1_555 1_555
C19_3 H78_3 1_555 1_555
C42_3 H82_3 1_555 1_555
C44_3 H83_3 1_555 1_555
C32_3 H84_3 1_555 1_555
C20_3 H85_3 1_555 1_555
C30_3 H89_3 1_555 1_555
O1_3 H90_3 1_555 1_555
C28_3 H91_3 1_555 1_555
C26_3 H92_3 1_555 1_555
C41_3 H93_3 1_555 1_555
Fe3_3 N3_3 1_555 1_555
N15_3 Fe3_3 1_555 1_555
N16_3 Fe3_3 1_555 1_555
C21_3 N15_3 1_555 1_555
C22_3 N15_3 1_555 1_555
C23_3 N16_3 1_555 1_555
C24_3 N16_3 1_555 1_555
C37_3 C21_3 1_555 1_555
C38_3 C22_3 1_555 1_555
C39_3 C23_3 1_555 1_555
C40_3 C24_3 1_555 1_555
O5_3 C33_3 1_555 1_555
C45_3 C33_3 1_555 1_555
O7_3 C37_3 1_555 1_555
C47_3 C37_3 1_555 1_555
O8_3 C39_3 1_555 1_555
C48_3 C39_3 1_555 1_555
C53_3 O8_3 1_555 1_555
O13_3 C53_3 1_555 1_555
C58_3 C53_3 1_555 1_555
N21_3 Fe3_3 1_555 1_555
N22_3 Fe3_3 1_555 1_555
N23_3 Fe3_3 1_555 1_555
C64_3 N21_3 1_555 1_555
C65_3 N21_3 1_555 1_555
C66_3 N22_3 1_555 1_555
C67_3 N22_3 1_555 1_555
C72_3 C64_3 1_555 1_555
C73_3 C65_3 1_555 1_555
C74_3 C66_3 1_555 1_555
C75_3 C67_3 1_555 1_555
O16_3 C72_3 1_555 1_555
C85_3 C72_3 1_555 1_555
O17_3 C74_3 1_555 1_555
C86_3 C74_3 1_555 1_555
C87_3 O16_3 1_555 1_555
C88_3 O17_3 1_555 1_555
O18_3 C87_3 1_555 1_555
C89_3 C87_3 1_555 1_555
O19_3 C88_3 1_555 1_555
C90_3 C88_3 1_555 1_555
C34_3 C45_3 1_555 1_555
C38_3 C47_3 1_555 1_555
C40_3 C48_3 1_555 1_555
C73_3 C85_3 1_555 1_555
C75_3 C86_3 1_555 1_555
C67_3 H1_3 1_555 1_555
C58_3 H2_3 1_555 1_555
C58_3 H3_3 1_555 1_555
C58_3 H4_3 1_555 1_555
C64_3 H6_3 1_555 1_555
C65_3 H13_3 1_555 1_555
C66_3 H23_3 1_555 1_555
C86_3 H24_3 1_555 1_555
C73_3 H29_3 1_555 1_555
C75_3 H30_3 1_555 1_555
C85_3 H31_3 1_555 1_555
C90_3 H35_3 1_555 1_555
C90_3 H36_3 1_555 1_555
C89_3 H37_3 1_555 1_555
C89_3 H38_3 1_555 1_555
C89_3 H39_3 1_555 1_555
C24_3 H76_3 1_555 1_555
C36_3 H77_3 1_555 1_555
C40_3 H79_3 1_555 1_555
C22_3 H80_3 1_555 1_555
C38_3 H81_3 1_555 1_555
C21_3 H86_3 1_555 1_555
C34_3 H94_3 1_555 1_555
C23_3 H95_3 1_555 1_555
C45_3 H96_3 1_555 1_555
C48_3 H98_3 1_555 1_555
C71_3 C84_3 1_555 1_555
C57_3 H17_3 1_555 1_555
C57_3 H18_3 1_555 1_555
C71_3 H25_3 1_555 1_555
C84_3 H28_3 1_555 1_555
O6_3 C35_3 1_555 1_555
C46_3 C35_3 1_555 1_555
O6_3 H99_3 1_555 1_555
C46_3 H100_3 1_555 1_555
N13_4 Fe2_4 1_555 1_555
N14_4 Fe2_4 1_555 1_555
C18_4 N13_4 1_555 1_555
C19_4 N14_4 1_555 1_555
C34_4 C18_4 1_555 1_555
C35_4 C19_4 1_555 1_555
O6_4 C35_4 1_555 1_555
C46_4 C35_4 1_555 1_555
N20_4 Fe2_4 1_555 1_555
C68_4 C60_4 1_555 1_555
C71_4 C63_4 1_555 1_555
O14_4 C68_4 1_555 1_555
C34_4 C45_4 1_555 1_555
C60_4 H5_4 1_555 1_555
C63_4 H22_4 1_555 1_555
C71_4 H25_4 1_555 1_555
O14_4 H27_4 1_555 1_555
C89_4 H37_4 1_555 1_555
C89_4 H38_4 1_555 1_555
C18_4 H75_4 1_555 1_555
C19_4 H78_4 1_555 1_555
C34_4 H94_4 1_555 1_555
C45_4 H96_4 1_555 1_555
O6_4 H99_4 1_555 1_555
C46_4 H100_4 1_555 1_555
Fe7_4 N26_4 1_555 1_555
Nb1_4 C1_4 1_555 1_555
C1_4 N1_4 1_555 1_555
C2_4 Nb1_4 1_555 1_555
C3_4 Nb1_4 1_555 1_555
C4_4 Nb1_4 1_555 1_555
C5_4 Nb1_4 1_555 1_555
C6_4 Nb1_4 1_555 1_555
C7_4 Nb1_4 1_555 1_555
C8_4 Nb1_4 1_555 1_555
N1_4 Fe1_4 1_555 1_555
N2_4 C2_4 1_555 1_555
N3_4 C3_4 1_555 1_555
N4_4 C4_4 1_555 1_555
N5_3 C5_4 1_555 1_555
N6_4 C6_4 1_555 1_555
N7_4 C7_4 1_555 1_555
N8_4 C8_4 1_555 1_555
Fe1_4 N9_4 1_555 1_555
Fe2_5 N2_4 1_555 1_555
Fe3_4 N3_4 1_555 1_555
N9_4 C9_4 1_555 1_555
N10_4 Fe1_4 1_555 1_555
N11_4 Fe1_4 1_555 1_555
N12_4 Fe1_4 1_555 1_555
N15_4 Fe3_4 1_555 1_555
N16_4 Fe3_4 1_555 1_555
C9_4 C25_4 1_555 1_555
C10_4 N9_4 1_555 1_555
C11_4 N10_4 1_555 1_555
C12_4 N10_4 1_555 1_555
C13_4 N11_4 1_555 1_555
C14_4 N11_4 1_555 1_555
C15_4 N12_4 1_555 1_555
C16_4 N12_4 1_555 1_555
C21_4 N15_4 1_555 1_555
C22_4 N15_4 1_555 1_555
C23_4 N16_4 1_555 1_555
C24_4 N16_4 1_555 1_555
C25_4 O1_4 1_555 1_555
C26_4 C10_4 1_555 1_555
C27_4 C11_4 1_555 1_555
C28_4 C12_4 1_555 1_555
C29_4 C13_4 1_555 1_555
C30_4 C14_4 1_555 1_555
C31_4 C15_4 1_555 1_555
C32_4 C16_4 1_555 1_555
C33_4 C17_4 1_555 1_555
C36_4 C20_4 1_555 1_555
C37_4 C21_4 1_555 1_555
C38_4 C22_4 1_555 1_555
C39_4 C23_4 1_555 1_555
C40_4 C24_4 1_555 1_555
C41_4 C25_4 1_555 1_555
O2_4 C27_4 1_555 1_555
C42_4 C27_4 1_555 1_555
O3_4 C29_4 1_555 1_555
C43_4 C29_4 1_555 1_555
O4_4 C31_4 1_555 1_555
C44_4 C31_4 1_555 1_555
O5_4 C33_4 1_555 1_555
O7_4 C37_4 1_555 1_555
C47_4 C37_4 1_555 1_555
O8_4 C39_4 1_555 1_555
C48_4 C39_4 1_555 1_555
C49_4 O2_4 1_555 1_555
C50_4 O3_4 1_555 1_555
C51_4 O4_4 1_555 1_555
C52_4 O7_4 1_555 1_555
C53_4 O8_4 1_555 1_555
O9_4 C49_4 1_555 1_555
C54_4 C49_4 1_555 1_555
O10_4 C50_4 1_555 1_555
C55_4 C50_4 1_555 1_555
O11_4 C51_4 1_555 1_555
C56_4 C51_4 1_555 1_555
O12_4 C52_4 1_555 1_555
C57_4 C52_4 1_555 1_555
O13_4 C53_4 1_555 1_555
C58_4 C53_4 1_555 1_555
Fe4_3 N5_3 1_555 1_555
N17_4 Fe1_4 1_555 1_555
N18_4 Fe2_5 1_555 1_555
N19_4 Fe2_5 1_555 1_555
N21_4 Fe3_4 1_555 1_555
N22_4 Fe3_4 1_555 1_555
N23_4 Fe3_4 1_555 1_555
C59_4 N17_4 1_555 1_555
C61_4 N18_4 1_555 1_555
C62_4 N19_4 1_555 1_555
C64_4 N21_4 1_555 1_555
C65_4 N21_4 1_555 1_555
C66_4 N22_4 1_555 1_555
C67_4 N22_4 1_555 1_555
Nb2_4 C59_4 1_555 1_555
C69_4 C61_4 1_555 1_555
C70_4 C62_4 1_555 1_555
C72_4 C64_4 1_555 1_555
C73_4 C65_4 1_555 1_555
C74_4 C66_4 1_555 1_555
C75_4 C67_4 1_555 1_555
C76_4 Nb2_4 1_555 1_555
C77_4 Nb2_4 1_555 1_555
C78_4 Nb2_4 1_555 1_555
C79_4 Nb2_4 1_555 1_555
C80_4 Nb2_4 1_555 1_555
C81_4 Nb2_4 1_555 1_555
C82_4 Nb2_4 1_555 1_555
O15_4 C70_4 1_555 1_555
C84_4 C70_4 1_555 1_555
O16_4 C72_4 1_555 1_555
C85_4 C72_4 1_555 1_555
O17_4 C74_4 1_555 1_555
C86_4 C74_4 1_555 1_555
N24_4 C76_4 1_555 1_555
N25_4 C77_4 1_555 1_555
N27_4 C79_4 1_555 1_555
N28_4 C80_4 1_555 1_555
N29_4 C81_4 1_555 1_555
N30_4 C82_4 1_555 1_555
C87_4 O16_4 1_555 1_555
C88_4 O17_4 1_555 1_555
Fe5_2 N24_4 1_555 1_555
Fe6_6 N25_4 1_555 1_555
O18_4 C87_4 1_555 1_555
O19_4 C88_4 1_555 1_555
C90_4 C88_4 1_555 1_555
N31_4 Fe5_2 1_555 1_555
N32_4 Fe5_2 1_555 1_555
N33_4 Fe5_2 1_555 1_555
N34_4 Fe5_2 1_555 1_555
N35_2 Fe5_2 1_555 1_555
C91_4 N31_4 1_555 1_555
C92_4 N31_4 1_555 1_555
C93_4 N32_4 1_555 1_555
C94_4 N32_4 1_555 1_555
C95_4 N33_4 1_555 1_555
C96_4 N33_4 1_555 1_555
C97_4 N34_4 1_555 1_555
C98_4 N34_4 1_555 1_555
C99_4 C91_4 1_555 1_555
C100_4 C92_4 1_555 1_555
C101_4 C93_4 1_555 1_555
C102_4 C94_4 1_555 1_555
C103_4 C95_4 1_555 1_555
C104_4 C96_4 1_555 1_555
C105_4 C97_4 1_555 1_555
C106_4 C98_4 1_555 1_555
O20_4 C99_4 1_555 1_555
C107_4 C99_4 1_555 1_555
O21_4 C101_4 1_555 1_555
C108_4 C101_4 1_555 1_555
O22_4 C103_4 1_555 1_555
C109_4 C103_4 1_555 1_555
O23_4 C105_4 1_555 1_555
C110_4 C105_4 1_555 1_555
C111_4 O21_4 1_555 1_555
C112_4 O22_4 1_555 1_555
C113_4 O23_4 1_555 1_555
C114_4 C111_4 1_555 1_555
O25_4 C112_4 1_555 1_555
C115_4 C112_4 1_555 1_555
O26_4 C113_4 1_555 1_555
C116_4 C113_4 1_555 1_555
C26_4 C41_4 1_555 1_555
C28_4 C42_4 1_555 1_555
C30_4 C43_4 1_555 1_555
C32_4 C44_4 1_555 1_555
C38_4 C47_4 1_555 1_555
C40_4 C48_4 1_555 1_555
C69_4 C83_4 1_555 1_555
C73_4 C85_4 1_555 1_555
C75_4 C86_4 1_555 1_555
C100_4 C107_4 1_555 1_555
C102_4 C108_4 1_555 1_555
C104_4 C109_4 1_555 1_555
C106_4 C110_4 1_555 1_555
C67_4 H1_4 1_555 1_555
C58_4 H2_4 1_555 1_555
C58_4 H3_4 1_555 1_555
C58_4 H4_4 1_555 1_555
C64_4 H6_4 1_555 1_555
C56_4 H7_4 1_555 1_555
C56_4 H8_4 1_555 1_555
C56_4 H9_4 1_555 1_555
C54_4 H10_4 1_555 1_555
C54_4 H11_4 1_555 1_555
C54_4 H12_4 1_555 1_555
C65_4 H13_4 1_555 1_555
C55_4 H14_4 1_555 1_555
C55_4 H15_4 1_555 1_555
C55_4 H16_4 1_555 1_555
C57_4 H17_4 1_555 1_555
C57_4 H18_4 1_555 1_555
C57_4 H19_4 1_555 1_555
C61_4 H20_4 1_555 1_555
C62_4 H21_4 1_555 1_555
C66_4 H23_4 1_555 1_555
C86_4 H24_4 1_555 1_555
C69_4 H26_4 1_555 1_555
C84_4 H28_4 1_555 1_555
C73_4 H29_4 1_555 1_555
C75_4 H30_4 1_555 1_555
C83_4 H32_4 1_555 1_555
O15_4 H33_4 1_555 1_555
C90_4 H34_4 1_555 1_555
C90_4 H35_4 1_555 1_555
C90_4 H36_4 1_555 1_555
C114_4 H40_4 1_555 1_555
C114_4 H42_4 1_555 1_555
C98_4 H43_4 1_555 1_555
C104_4 H44_4 1_555 1_555
C94_4 H45_4 1_555 1_555
C95_4 H46_4 1_555 1_555
C108_4 H47_4 1_555 1_555
C107_4 H48_4 1_555 1_555
C110_4 H49_4 1_555 1_555
C91_4 H50_4 1_555 1_555
C97_4 H51_4 1_555 1_555
C93_4 H52_4 1_555 1_555
C96_4 H53_4 1_555 1_555
C100_4 H54_4 1_555 1_555
C102_4 H55_4 1_555 1_555
C106_4 H56_4 1_555 1_555
O20_4 H57_4 1_555 1_555
C92_4 H59_4 1_555 1_555
C115_4 H60_4 1_555 1_555
C115_4 H61_4 1_555 1_555
C115_4 H62_4 1_555 1_555
C116_4 H64_4 1_555 1_555
C116_4 H65_4 1_555 1_555
C12_4 H66_4 1_555 1_555
C13_4 H67_4 1_555 1_555
C15_4 H68_4 1_555 1_555
C11_4 H69_4 1_555 1_555
C14_4 H70_4 1_555 1_555
C9_4 H71_4 1_555 1_555
C16_4 H72_4 1_555 1_555
C17_4 H73_4 1_555 1_555
C10_4 H74_4 1_555 1_555
C24_4 H76_4 1_555 1_555
C36_4 H77_4 1_555 1_555
C40_4 H79_4 1_555 1_555
C22_4 H80_4 1_555 1_555
C38_4 H81_4 1_555 1_555
C42_4 H82_4 1_555 1_555
C44_4 H83_4 1_555 1_555
C32_4 H84_4 1_555 1_555
C20_4 H85_4 1_555 1_555
C21_4 H86_4 1_555 1_555
C43_4 H87_4 1_555 1_555
O5_4 H88_4 1_555 1_555
C30_4 H89_4 1_555 1_555
O1_4 H90_4 1_555 1_555
C28_4 H91_4 1_555 1_555
C26_4 H92_4 1_555 1_555
C41_4 H93_4 1_555 1_555
C23_4 H95_4 1_555 1_555
C47_4 H97_4 1_555 1_555
C48_4 H98_4 1_555 1_555
Fe7_5 N26_5 1_555 1_555
Nb1_5 C1_5 1_555 1_555
C1_5 N1_5 1_555 1_555
C2_5 Nb1_5 1_555 1_555
C3_5 Nb1_5 1_555 1_555
C4_5 Nb1_5 1_555 1_555
C5_5 Nb1_5 1_555 1_555
C6_5 Nb1_5 1_555 1_555
C7_5 Nb1_5 1_555 1_555
C8_5 Nb1_5 1_555 1_555
N1_5 Fe1_5 1_555 1_555
N2_5 C2_5 1_555 1_555
N3_5 C3_5 1_555 1_555
N4_5 C4_5 1_555 1_555
N5_4 C5_5 1_555 1_555
N6_5 C6_5 1_555 1_555
N7_5 C7_5 1_555 1_555
N8_5 C8_5 1_555 1_555
Fe1_5 N9_5 1_555 1_555
Fe2_6 N2_5 1_555 1_555
Fe3_5 N3_5 1_555 1_555
N9_5 C9_5 1_555 1_555
N10_5 Fe1_5 1_555 1_555
N11_5 Fe1_5 1_555 1_555
N12_5 Fe1_5 1_555 1_555
N13_5 Fe2_6 1_555 1_555
N14_5 Fe2_6 1_555 1_555
N15_5 Fe3_5 1_555 1_555
N16_5 Fe3_5 1_555 1_555
C9_5 C25_5 1_555 1_555
C10_5 N9_5 1_555 1_555
C11_5 N10_5 1_555 1_555
C12_5 N10_5 1_555 1_555
C13_5 N11_5 1_555 1_555
C14_5 N11_5 1_555 1_555
C15_5 N12_5 1_555 1_555
C16_5 N12_5 1_555 1_555
C17_5 N13_5 1_555 1_555
C18_5 N13_5 1_555 1_555
C19_5 N14_5 1_555 1_555
C20_5 N14_5 1_555 1_555
C21_5 N15_5 1_555 1_555
C22_5 N15_5 1_555 1_555
C23_5 N16_5 1_555 1_555
C24_5 N16_5 1_555 1_555
C25_5 O1_5 1_555 1_555
C26_5 C10_5 1_555 1_555
C27_5 C11_5 1_555 1_555
C28_5 C12_5 1_555 1_555
C29_5 C13_5 1_555 1_555
C30_5 C14_5 1_555 1_555
C31_5 C15_5 1_555 1_555
C32_5 C16_5 1_555 1_555
C33_5 C17_5 1_555 1_555
C34_5 C18_5 1_555 1_555
C35_5 C19_5 1_555 1_555
C36_5 C20_5 1_555 1_555
C37_5 C21_5 1_555 1_555
C38_5 C22_5 1_555 1_555
C39_5 C23_5 1_555 1_555
C40_5 C24_5 1_555 1_555
C41_5 C25_5 1_555 1_555
O2_5 C27_5 1_555 1_555
C42_5 C27_5 1_555 1_555
O3_5 C29_5 1_555 1_555
C43_5 C29_5 1_555 1_555
O4_5 C31_5 1_555 1_555
C44_5 C31_5 1_555 1_555
O5_5 C33_5 1_555 1_555
C45_5 C33_5 1_555 1_555
O6_5 C35_5 1_555 1_555
C46_5 C35_5 1_555 1_555
O7_5 C37_5 1_555 1_555
C47_5 C37_5 1_555 1_555
O8_5 C39_5 1_555 1_555
C48_5 C39_5 1_555 1_555
C49_5 O2_5 1_555 1_555
C50_5 O3_5 1_555 1_555
C51_5 O4_5 1_555 1_555
C52_5 O7_5 1_555 1_555
C53_5 O8_5 1_555 1_555
O9_5 C49_5 1_555 1_555
C54_5 C49_5 1_555 1_555
O10_5 C50_5 1_555 1_555
C55_5 C50_5 1_555 1_555
O11_5 C51_5 1_555 1_555
C56_5 C51_5 1_555 1_555
O12_5 C52_5 1_555 1_555
C57_5 C52_5 1_555 1_555
O13_5 C53_5 1_555 1_555
C58_5 C53_5 1_555 1_555
Fe4_4 N5_4 1_555 1_555
N17_5 Fe1_5 1_555 1_555
N18_5 Fe2_6 1_555 1_555
N19_5 Fe2_6 1_555 1_555
N20_5 Fe2_6 1_555 1_555
N21_5 Fe3_5 1_555 1_555
N22_5 Fe3_5 1_555 1_555
N23_5 Fe3_5 1_555 1_555
C59_5 N17_5 1_555 1_555
C60_5 N18_5 1_555 1_555
C61_5 N18_5 1_555 1_555
C62_5 N19_5 1_555 1_555
C63_5 N19_5 1_555 1_555
C64_5 N21_5 1_555 1_555
C65_5 N21_5 1_555 1_555
C66_5 N22_5 1_555 1_555
C67_5 N22_5 1_555 1_555
Nb2_5 C59_5 1_555 1_555
C68_5 C60_5 1_555 1_555
C69_5 C61_5 1_555 1_555
C70_5 C62_5 1_555 1_555
C71_5 C63_5 1_555 1_555
C72_5 C64_5 1_555 1_555
C73_5 C65_5 1_555 1_555
C74_5 C66_5 1_555 1_555
C75_5 C67_5 1_555 1_555
C76_5 Nb2_5 1_555 1_555
C77_5 Nb2_5 1_555 1_555
C78_5 Nb2_5 1_555 1_555
C79_5 Nb2_5 1_555 1_555
C80_5 Nb2_5 1_555 1_555
C81_5 Nb2_5 1_555 1_555
C82_5 Nb2_5 1_555 1_555
O14_5 C68_5 1_555 1_555
C83_5 C68_5 1_555 1_555
O15_5 C70_5 1_555 1_555
C84_5 C70_5 1_555 1_555
O16_5 C72_5 1_555 1_555
C85_5 C72_5 1_555 1_555
O17_5 C74_5 1_555 1_555
C86_5 C74_5 1_555 1_555
N24_5 C76_5 1_555 1_555
N25_5 C77_5 1_555 1_555
N27_5 C79_5 1_555 1_555
N28_5 C80_5 1_555 1_555
N29_5 C81_5 1_555 1_555
N30_5 C82_5 1_555 1_555
C87_5 O16_5 1_555 1_555
C88_5 O17_5 1_555 1_555
Fe4_3 N24_5 1_555 1_555
Fe6_7 N25_5 1_555 1_555
O18_5 C87_5 1_555 1_555
C89_5 C87_5 1_555 1_555
O19_5 C88_5 1_555 1_555
C90_5 C88_5 1_555 1_555
N31_5 Fe4_3 1_555 1_555
N32_5 Fe4_3 1_555 1_555
N33_5 Fe4_3 1_555 1_555
N34_5 Fe4_3 1_555 1_555
C91_5 N31_5 1_555 1_555
C92_5 N31_5 1_555 1_555
C93_5 N32_5 1_555 1_555
C94_5 N32_5 1_555 1_555
C95_5 N33_5 1_555 1_555
C96_5 N33_5 1_555 1_555
C97_5 N34_5 1_555 1_555
C98_5 N34_5 1_555 1_555
C99_5 C91_5 1_555 1_555
C100_5 C92_5 1_555 1_555
C101_5 C93_5 1_555 1_555
C102_5 C94_5 1_555 1_555
C103_5 C95_5 1_555 1_555
C104_5 C96_5 1_555 1_555
C105_5 C97_5 1_555 1_555
C106_5 C98_5 1_555 1_555
O20_5 C99_5 1_555 1_555
C107_5 C99_5 1_555 1_555
O21_5 C101_5 1_555 1_555
C108_5 C101_5 1_555 1_555
O22_5 C103_5 1_555 1_555
C109_5 C103_5 1_555 1_555
O23_5 C105_5 1_555 1_555
C110_5 C105_5 1_555 1_555
C111_5 O21_5 1_555 1_555
C112_5 O22_5 1_555 1_555
C113_5 O23_5 1_555 1_555
C114_5 C111_5 1_555 1_555
O25_5 C112_5 1_555 1_555
C115_5 C112_5 1_555 1_555
O26_5 C113_5 1_555 1_555
C116_5 C113_5 1_555 1_555
C26_5 C41_5 1_555 1_555
C28_5 C42_5 1_555 1_555
C30_5 C43_5 1_555 1_555
C32_5 C44_5 1_555 1_555
C34_5 C45_5 1_555 1_555
C36_5 C46_5 1_555 1_555
C38_5 C47_5 1_555 1_555
C40_5 C48_5 1_555 1_555
C69_5 C83_5 1_555 1_555
C71_5 C84_5 1_555 1_555
C73_5 C85_5 1_555 1_555
C75_5 C86_5 1_555 1_555
C100_5 C107_5 1_555 1_555
C102_5 C108_5 1_555 1_555
C104_5 C109_5 1_555 1_555
C106_5 C110_5 1_555 1_555
C67_5 H1_5 1_555 1_555
C58_5 H2_5 1_555 1_555
C58_5 H3_5 1_555 1_555
C58_5 H4_5 1_555 1_555
C60_5 H5_5 1_555 1_555
C64_5 H6_5 1_555 1_555
C56_5 H7_5 1_555 1_555
C56_5 H8_5 1_555 1_555
C56_5 H9_5 1_555 1_555
C54_5 H10_5 1_555 1_555
C54_5 H11_5 1_555 1_555
C54_5 H12_5 1_555 1_555
C65_5 H13_5 1_555 1_555
C55_5 H14_5 1_555 1_555
C55_5 H15_5 1_555 1_555
C55_5 H16_5 1_555 1_555
C57_5 H17_5 1_555 1_555
C57_5 H18_5 1_555 1_555
C57_5 H19_5 1_555 1_555
C61_5 H20_5 1_555 1_555
C62_5 H21_5 1_555 1_555
C63_5 H22_5 1_555 1_555
C66_5 H23_5 1_555 1_555
C86_5 H24_5 1_555 1_555
C71_5 H25_5 1_555 1_555
C69_5 H26_5 1_555 1_555
O14_5 H27_5 1_555 1_555
C84_5 H28_5 1_555 1_555
C73_5 H29_5 1_555 1_555
C75_5 H30_5 1_555 1_555
C85_5 H31_5 1_555 1_555
C83_5 H32_5 1_555 1_555
O15_5 H33_5 1_555 1_555
C90_5 H34_5 1_555 1_555
C90_5 H35_5 1_555 1_555
C90_5 H36_5 1_555 1_555
C89_5 H37_5 1_555 1_555
C89_5 H38_5 1_555 1_555
C89_5 H39_5 1_555 1_555
C114_5 H40_5 1_555 1_555
C114_5 H42_5 1_555 1_555
C98_5 H43_5 1_555 1_555
C104_5 H44_5 1_555 1_555
C94_5 H45_5 1_555 1_555
C95_5 H46_5 1_555 1_555
C108_5 H47_5 1_555 1_555
C107_5 H48_5 1_555 1_555
C110_5 H49_5 1_555 1_555
C91_5 H50_5 1_555 1_555
C97_5 H51_5 1_555 1_555
C93_5 H52_5 1_555 1_555
C96_5 H53_5 1_555 1_555
C100_5 H54_5 1_555 1_555
C102_5 H55_5 1_555 1_555
C106_5 H56_5 1_555 1_555
O20_5 H57_5 1_555 1_555
C92_5 H59_5 1_555 1_555
C115_5 H60_5 1_555 1_555
C115_5 H61_5 1_555 1_555
C115_5 H62_5 1_555 1_555
C116_5 H64_5 1_555 1_555
C116_5 H65_5 1_555 1_555
C12_5 H66_5 1_555 1_555
C13_5 H67_5 1_555 1_555
C15_5 H68_5 1_555 1_555
C11_5 H69_5 1_555 1_555
C14_5 H70_5 1_555 1_555
C9_5 H71_5 1_555 1_555
C16_5 H72_5 1_555 1_555
C17_5 H73_5 1_555 1_555
C10_5 H74_5 1_555 1_555
C18_5 H75_5 1_555 1_555
C24_5 H76_5 1_555 1_555
C36_5 H77_5 1_555 1_555
C19_5 H78_5 1_555 1_555
C40_5 H79_5 1_555 1_555
C22_5 H80_5 1_555 1_555
C38_5 H81_5 1_555 1_555
C42_5 H82_5 1_555 1_555
C44_5 H83_5 1_555 1_555
C32_5 H84_5 1_555 1_555
C20_5 H85_5 1_555 1_555
C21_5 H86_5 1_555 1_555
C43_5 H87_5 1_555 1_555
O5_5 H88_5 1_555 1_555
C30_5 H89_5 1_555 1_555
O1_5 H90_5 1_555 1_555
C28_5 H91_5 1_555 1_555
C26_5 H92_5 1_555 1_555
C41_5 H93_5 1_555 1_555
C34_5 H94_5 1_555 1_555
C23_5 H95_5 1_555 1_555
C45_5 H96_5 1_555 1_555
C47_5 H97_5 1_555 1_555
C48_5 H98_5 1_555 1_555
O6_5 H99_5 1_555 1_555
C46_5 H100_5 1_555 1_555
Fe7_6 N26_6 1_555 1_555
Nb1_6 C1_6 1_555 1_555
C1_6 N1_6 1_555 1_555
C2_6 Nb1_6 1_555 1_555
C3_6 Nb1_6 1_555 1_555
C4_6 Nb1_6 1_555 1_555
C5_6 Nb1_6 1_555 1_555
C6_6 Nb1_6 1_555 1_555
C7_6 Nb1_6 1_555 1_555
C8_6 Nb1_6 1_555 1_555
N1_6 Fe1_6 1_555 1_555
N2_6 C2_6 1_555 1_555
N3_6 C3_6 1_555 1_555
N4_6 C4_6 1_555 1_555
N35_2 C5_6 1_555 1_555
N6_6 C6_6 1_555 1_555
N7_6 C7_6 1_555 1_555
N8_6 C8_6 1_555 1_555
Fe1_6 N9_6 1_555 1_555
Fe2_7 N2_6 1_555 1_555
Fe3_6 N3_6 1_555 1_555
N9_6 C9_6 1_555 1_555
N10_6 Fe1_6 1_555 1_555
N11_6 Fe1_6 1_555 1_555
N12_6 Fe1_6 1_555 1_555
N15_6 Fe3_6 1_555 1_555
N16_6 Fe3_6 1_555 1_555
C9_6 C25_6 1_555 1_555
C10_6 N9_6 1_555 1_555
C11_6 N10_6 1_555 1_555
C12_6 N10_6 1_555 1_555
C13_6 N11_6 1_555 1_555
C14_6 N11_6 1_555 1_555
C15_6 N12_6 1_555 1_555
C16_6 N12_6 1_555 1_555
C21_6 N15_6 1_555 1_555
C22_6 N15_6 1_555 1_555
C23_6 N16_6 1_555 1_555
C24_6 N16_6 1_555 1_555
C25_6 O1_6 1_555 1_555
C26_6 C10_6 1_555 1_555
C27_6 C11_6 1_555 1_555
C28_6 C12_6 1_555 1_555
C29_6 C13_6 1_555 1_555
C30_6 C14_6 1_555 1_555
C31_6 C15_6 1_555 1_555
C32_6 C16_6 1_555 1_555
C33_6 C17_6 1_555 1_555
C36_6 C20_6 1_555 1_555
C37_6 C21_6 1_555 1_555
C38_6 C22_6 1_555 1_555
C39_6 C23_6 1_555 1_555
C40_6 C24_6 1_555 1_555
C41_6 C25_6 1_555 1_555
O2_6 C27_6 1_555 1_555
C42_6 C27_6 1_555 1_555
O3_6 C29_6 1_555 1_555
C43_6 C29_6 1_555 1_555
O4_6 C31_6 1_555 1_555
C44_6 C31_6 1_555 1_555
O5_6 C33_6 1_555 1_555
O7_6 C37_6 1_555 1_555
C47_6 C37_6 1_555 1_555
O8_6 C39_6 1_555 1_555
C48_6 C39_6 1_555 1_555
C49_6 O2_6 1_555 1_555
C50_6 O3_6 1_555 1_555
C51_6 O4_6 1_555 1_555
C52_6 O7_6 1_555 1_555
C53_6 O8_6 1_555 1_555
O9_6 C49_6 1_555 1_555
C54_6 C49_6 1_555 1_555
O10_6 C50_6 1_555 1_555
C55_6 C50_6 1_555 1_555
O11_6 C51_6 1_555 1_555
C56_6 C51_6 1_555 1_555
O12_6 C52_6 1_555 1_555
C57_6 C52_6 1_555 1_555
O13_6 C53_6 1_555 1_555
C58_6 C53_6 1_555 1_555
N17_6 Fe1_6 1_555 1_555
N18_6 Fe2_7 1_555 1_555
N19_6 Fe2_7 1_555 1_555
N21_6 Fe3_6 1_555 1_555
N22_6 Fe3_6 1_555 1_555
N23_6 Fe3_6 1_555 1_555
C59_6 N17_6 1_555 1_555
C61_6 N18_6 1_555 1_555
C62_6 N19_6 1_555 1_555
C64_6 N21_6 1_555 1_555
C65_6 N21_6 1_555 1_555
C66_6 N22_6 1_555 1_555
C67_6 N22_6 1_555 1_555
Nb2_6 C59_6 1_555 1_555
C69_6 C61_6 1_555 1_555
C70_6 C62_6 1_555 1_555
C72_6 C64_6 1_555 1_555
C73_6 C65_6 1_555 1_555
C74_6 C66_6 1_555 1_555
C75_6 C67_6 1_555 1_555
C76_6 Nb2_6 1_555 1_555
C77_6 Nb2_6 1_555 1_555
C78_6 Nb2_6 1_555 1_555
C79_6 Nb2_6 1_555 1_555
C80_6 Nb2_6 1_555 1_555
C81_6 Nb2_6 1_555 1_555
C82_6 Nb2_6 1_555 1_555
O15_6 C70_6 1_555 1_555
C84_6 C70_6 1_555 1_555
O16_6 C72_6 1_555 1_555
C85_6 C72_6 1_555 1_555
O17_6 C74_6 1_555 1_555
C86_6 C74_6 1_555 1_555
N24_6 C76_6 1_555 1_555
N25_6 C77_6 1_555 1_555
N27_6 C79_6 1_555 1_555
N28_6 C80_6 1_555 1_555
N29_6 C81_6 1_555 1_555
N30_6 C82_6 1_555 1_555
C87_6 O16_6 1_555 1_555
C88_6 O17_6 1_555 1_555
Fe4_4 N24_6 1_555 1_555
Fe6_8 N25_6 1_555 1_555
O18_6 C87_6 1_555 1_555
O19_6 C88_6 1_555 1_555
C90_6 C88_6 1_555 1_555
N31_6 Fe4_4 1_555 1_555
N32_6 Fe4_4 1_555 1_555
N33_6 Fe4_4 1_555 1_555
N34_6 Fe4_4 1_555 1_555
C91_6 N31_6 1_555 1_555
C92_6 N31_6 1_555 1_555
C93_6 N32_6 1_555 1_555
C94_6 N32_6 1_555 1_555
C95_6 N33_6 1_555 1_555
C96_6 N33_6 1_555 1_555
C97_6 N34_6 1_555 1_555
C98_6 N34_6 1_555 1_555
C99_6 C91_6 1_555 1_555
C100_6 C92_6 1_555 1_555
C101_6 C93_6 1_555 1_555
C102_6 C94_6 1_555 1_555
C103_6 C95_6 1_555 1_555
C104_6 C96_6 1_555 1_555
C105_6 C97_6 1_555 1_555
C106_6 C98_6 1_555 1_555
O20_6 C99_6 1_555 1_555
C107_6 C99_6 1_555 1_555
O21_6 C101_6 1_555 1_555
C108_6 C101_6 1_555 1_555
O22_6 C103_6 1_555 1_555
C109_6 C103_6 1_555 1_555
O23_6 C105_6 1_555 1_555
C110_6 C105_6 1_555 1_555
C111_6 O21_6 1_555 1_555
C112_6 O22_6 1_555 1_555
C113_6 O23_6 1_555 1_555
O24_6 C111_6 1_555 1_555
C114_6 C111_6 1_555 1_555
O25_6 C112_6 1_555 1_555
C115_6 C112_6 1_555 1_555
O26_6 C113_6 1_555 1_555
C116_6 C113_6 1_555 1_555
C26_6 C41_6 1_555 1_555
C28_6 C42_6 1_555 1_555
C30_6 C43_6 1_555 1_555
C32_6 C44_6 1_555 1_555
C38_6 C47_6 1_555 1_555
C40_6 C48_6 1_555 1_555
C69_6 C83_6 1_555 1_555
C73_6 C85_6 1_555 1_555
C75_6 C86_6 1_555 1_555
C100_6 C107_6 1_555 1_555
C102_6 C108_6 1_555 1_555
C104_6 C109_6 1_555 1_555
C106_6 C110_6 1_555 1_555
C67_6 H1_6 1_555 1_555
C58_6 H2_6 1_555 1_555
C58_6 H3_6 1_555 1_555
C58_6 H4_6 1_555 1_555
C64_6 H6_6 1_555 1_555
C56_6 H7_6 1_555 1_555
C56_6 H8_6 1_555 1_555
C56_6 H9_6 1_555 1_555
C54_6 H10_6 1_555 1_555
C54_6 H11_6 1_555 1_555
C54_6 H12_6 1_555 1_555
C65_6 H13_6 1_555 1_555
C55_6 H14_6 1_555 1_555
C55_6 H15_6 1_555 1_555
C55_6 H16_6 1_555 1_555
C57_6 H17_6 1_555 1_555
C57_6 H18_6 1_555 1_555
C57_6 H19_6 1_555 1_555
C61_6 H20_6 1_555 1_555
C62_6 H21_6 1_555 1_555
C66_6 H23_6 1_555 1_555
C86_6 H24_6 1_555 1_555
C69_6 H26_6 1_555 1_555
C84_6 H28_6 1_555 1_555
C73_6 H29_6 1_555 1_555
C75_6 H30_6 1_555 1_555
C83_6 H32_6 1_555 1_555
O15_6 H33_6 1_555 1_555
C90_6 H34_6 1_555 1_555
C90_6 H35_6 1_555 1_555
C90_6 H36_6 1_555 1_555
C114_6 H40_6 1_555 1_555
C114_6 H41_6 1_555 1_555
C114_6 H42_6 1_555 1_555
C98_6 H43_6 1_555 1_555
C104_6 H44_6 1_555 1_555
C94_6 H45_6 1_555 1_555
C95_6 H46_6 1_555 1_555
C108_6 H47_6 1_555 1_555
C107_6 H48_6 1_555 1_555
C110_6 H49_6 1_555 1_555
C91_6 H50_6 1_555 1_555
C97_6 H51_6 1_555 1_555
C93_6 H52_6 1_555 1_555
C96_6 H53_6 1_555 1_555
C100_6 H54_6 1_555 1_555
C102_6 H55_6 1_555 1_555
C106_6 H56_6 1_555 1_555
O20_6 H57_6 1_555 1_555
C92_6 H59_6 1_555 1_555
C115_6 H60_6 1_555 1_555
C115_6 H61_6 1_555 1_555
C115_6 H62_6 1_555 1_555
C116_6 H64_6 1_555 1_555
C116_6 H65_6 1_555 1_555
C12_6 H66_6 1_555 1_555
C13_6 H67_6 1_555 1_555
C15_6 H68_6 1_555 1_555
C11_6 H69_6 1_555 1_555
C14_6 H70_6 1_555 1_555
C9_6 H71_6 1_555 1_555
C16_6 H72_6 1_555 1_555
C17_6 H73_6 1_555 1_555
C10_6 H74_6 1_555 1_555
C24_6 H76_6 1_555 1_555
C36_6 H77_6 1_555 1_555
C40_6 H79_6 1_555 1_555
C22_6 H80_6 1_555 1_555
C38_6 H81_6 1_555 1_555
C42_6 H82_6 1_555 1_555
C44_6 H83_6 1_555 1_555
C32_6 H84_6 1_555 1_555
C20_6 H85_6 1_555 1_555
C21_6 H86_6 1_555 1_555
C43_6 H87_6 1_555 1_555
O5_6 H88_6 1_555 1_555
C30_6 H89_6 1_555 1_555
O1_6 H90_6 1_555 1_555
C28_6 H91_6 1_555 1_555
C26_6 H92_6 1_555 1_555
C41_6 H93_6 1_555 1_555
C23_6 H95_6 1_555 1_555
C47_6 H97_6 1_555 1_555
C48_6 H98_6 1_555 1_555
N13_6 Fe2_8 1_555 1_555
N14_6 Fe2_8 1_555 1_555
C18_6 N13_6 1_555 1_555
C19_6 N14_6 1_555 1_555
C34_6 C18_6 1_555 1_555
C35_6 C19_6 1_555 1_555
O6_6 C35_6 1_555 1_555
C46_6 C35_6 1_555 1_555
N20_6 Fe2_8 1_555 1_555
C68_6 C60_6 1_555 1_555
C71_6 C63_6 1_555 1_555
O14_6 C68_6 1_555 1_555
C34_6 C45_6 1_555 1_555
C60_6 H5_6 1_555 1_555
C63_6 H22_6 1_555 1_555
C71_6 H25_6 1_555 1_555
O14_6 H27_6 1_555 1_555
C89_6 H37_6 1_555 1_555
C89_6 H38_6 1_555 1_555
C18_6 H75_6 1_555 1_555
C19_6 H78_6 1_555 1_555
C34_6 H94_6 1_555 1_555
C45_6 H96_6 1_555 1_555
O6_6 H99_6 1_555 1_555
C46_6 H100_6 1_555 1_555
C2_7 Nb1_7 1_555 1_555
C3_7 Nb1_7 1_555 1_555
C4_7 Nb1_7 1_555 1_555
C5_7 Nb1_7 1_555 1_555
C6_7 Nb1_7 1_555 1_555
C8_7 Nb1_7 1_555 1_555
N2_7 C2_7 1_555 1_555
N3_7 C3_7 1_555 1_555
N4_7 C4_7 1_555 1_555
N5_5 C5_7 1_555 1_555
N6_7 C6_7 1_555 1_555
Fe2_9 N2_7 1_555 1_555
Fe3_7 N3_7 1_555 1_555
N13_7 Fe2_9 1_555 1_555
N14_7 Fe2_9 1_555 1_555
C17_7 N13_7 1_555 1_555
C18_7 N13_7 1_555 1_555
C19_7 N14_7 1_555 1_555
C20_7 N14_7 1_555 1_555
C33_7 C17_7 1_555 1_555
C34_7 C18_7 1_555 1_555
C35_7 C19_7 1_555 1_555
O5_7 C33_7 1_555 1_555
C45_7 C33_7 1_555 1_555
O6_7 C35_7 1_555 1_555
Fe4_5 N5_5 1_555 1_555
N18_7 Fe2_9 1_555 1_555
N19_7 Fe2_9 1_555 1_555
N20_7 Fe2_9 1_555 1_555
N21_7 Fe3_7 1_555 1_555
N22_7 Fe3_7 1_555 1_555
C60_7 N18_7 1_555 1_555
C61_7 N18_7 1_555 1_555
C62_7 N19_7 1_555 1_555
C63_7 N19_7 1_555 1_555
C64_7 N21_7 1_555 1_555
C65_7 N21_7 1_555 1_555
C66_7 N22_7 1_555 1_555
C67_7 N22_7 1_555 1_555
C68_7 C60_7 1_555 1_555
C69_7 C61_7 1_555 1_555
C71_7 C63_7 1_555 1_555
C72_7 C64_7 1_555 1_555
C73_7 C65_7 1_555 1_555
C74_7 C66_7 1_555 1_555
C75_7 C67_7 1_555 1_555
O14_7 C68_7 1_555 1_555
C83_7 C68_7 1_555 1_555
O16_7 C72_7 1_555 1_555
C85_7 C72_7 1_555 1_555
O17_7 C74_7 1_555 1_555
C86_7 C74_7 1_555 1_555
C87_7 O16_7 1_555 1_555
C88_7 O17_7 1_555 1_555
O18_7 C87_7 1_555 1_555
C89_7 C87_7 1_555 1_555
O19_7 C88_7 1_555 1_555
C90_7 C88_7 1_555 1_555
C34_7 C45_7 1_555 1_555
C69_7 C83_7 1_555 1_555
C73_7 C85_7 1_555 1_555
C75_7 C86_7 1_555 1_555
C67_7 H1_7 1_555 1_555
C60_7 H5_7 1_555 1_555
C64_7 H6_7 1_555 1_555
C56_7 H7_7 1_555 1_555
C56_7 H8_7 1_555 1_555
C56_7 H9_7 1_555 1_555
C65_7 H13_7 1_555 1_555
C61_7 H20_7 1_555 1_555
C62_7 H21_7 1_555 1_555
C63_7 H22_7 1_555 1_555
C66_7 H23_7 1_555 1_555
C86_7 H24_7 1_555 1_555
C71_7 H25_7 1_555 1_555
C69_7 H26_7 1_555 1_555
O14_7 H27_7 1_555 1_555
C73_7 H29_7 1_555 1_555
C75_7 H30_7 1_555 1_555
C85_7 H31_7 1_555 1_555
C83_7 H32_7 1_555 1_555
C90_7 H34_7 1_555 1_555
C90_7 H35_7 1_555 1_555
C90_7 H36_7 1_555 1_555
C89_7 H37_7 1_555 1_555
C89_7 H38_7 1_555 1_555
C89_7 H39_7 1_555 1_555
C17_7 H73_7 1_555 1_555
C18_7 H75_7 1_555 1_555
C19_7 H78_7 1_555 1_555
C20_7 H85_7 1_555 1_555
O5_7 H88_7 1_555 1_555
C34_7 H94_7 1_555 1_555
C45_7 H96_7 1_555 1_555
O6_7 H99_7 1_555 1_555
C1_7 N1_7 1_555 1_555
N1_7 Fe1_7 1_555 1_555
N7_7 C7_7 1_555 1_555
Fe1_7 N9_7 1_555 1_555
N9_7 C9_7 1_555 1_555
N10_7 Fe1_7 1_555 1_555
N11_7 Fe1_7 1_555 1_555
N12_7 Fe1_7 1_555 1_555
N15_7 Fe3_8 1_555 1_555
N16_7 Fe3_8 1_555 1_555
C9_7 C25_7 1_555 1_555
C10_7 N9_7 1_555 1_555
C11_7 N10_7 1_555 1_555
C12_7 N10_7 1_555 1_555
C13_7 N11_7 1_555 1_555
C14_7 N11_7 1_555 1_555
C15_7 N12_7 1_555 1_555
C16_7 N12_7 1_555 1_555
C21_7 N15_7 1_555 1_555
C22_7 N15_7 1_555 1_555
C23_7 N16_7 1_555 1_555
C24_7 N16_7 1_555 1_555
C25_7 O1_7 1_555 1_555
C26_7 C10_7 1_555 1_555
C27_7 C11_7 1_555 1_555
C28_7 C12_7 1_555 1_555
C29_7 C13_7 1_555 1_555
C30_7 C14_7 1_555 1_555
C31_7 C15_7 1_555 1_555
C32_7 C16_7 1_555 1_555
C37_7 C21_7 1_555 1_555
C38_7 C22_7 1_555 1_555
C39_7 C23_7 1_555 1_555
C40_7 C24_7 1_555 1_555
C41_7 C25_7 1_555 1_555
O2_7 C27_7 1_555 1_555
C42_7 C27_7 1_555 1_555
O3_7 C29_7 1_555 1_555
C43_7 C29_7 1_555 1_555
O4_7 C31_7 1_555 1_555
C44_7 C31_7 1_555 1_555
O7_7 C37_7 1_555 1_555
C47_7 C37_7 1_555 1_555
O8_7 C39_7 1_555 1_555
C48_7 C39_7 1_555 1_555
C49_7 O2_7 1_555 1_555
C50_7 O3_7 1_555 1_555
C51_7 O4_7 1_555 1_555
C52_7 O7_7 1_555 1_555
C53_7 O8_7 1_555 1_555
O9_7 C49_7 1_555 1_555
C54_7 C49_7 1_555 1_555
O10_7 C50_7 1_555 1_555
C55_7 C50_7 1_555 1_555
O12_7 C52_7 1_555 1_555
C57_7 C52_7 1_555 1_555
O13_7 C53_7 1_555 1_555
C58_7 C53_7 1_555 1_555
N17_7 Fe1_7 1_555 1_555
N23_7 Fe3_8 1_555 1_555
C59_7 N17_7 1_555 1_555
Nb2_7 C59_7 1_555 1_555
C77_7 Nb2_7 1_555 1_555
C78_7 Nb2_7 1_555 1_555
C79_7 Nb2_7 1_555 1_555
C80_7 Nb2_7 1_555 1_555
C82_7 Nb2_7 1_555 1_555
O15_7 C70_7 1_555 1_555
C84_7 C70_7 1_555 1_555
N25_7 C77_7 1_555 1_555
N26_7 C78_7 1_555 1_555
N27_7 C79_7 1_555 1_555
N28_7 C80_7 1_555 1_555
Fe6_9 N25_7 1_555 1_555
Fe7_7 N26_7 1_555 1_555
C26_7 C41_7 1_555 1_555
C28_7 C42_7 1_555 1_555
C30_7 C43_7 1_555 1_555
C32_7 C44_7 1_555 1_555
C36_7 C46_7 1_555 1_555
C38_7 C47_7 1_555 1_555
C40_7 C48_7 1_555 1_555
C58_7 H2_7 1_555 1_555
C58_7 H3_7 1_555 1_555
C58_7 H4_7 1_555 1_555
C54_7 H10_7 1_555 1_555
C54_7 H11_7 1_555 1_555
C54_7 H12_7 1_555 1_555
C55_7 H14_7 1_555 1_555
C55_7 H15_7 1_555 1_555
C55_7 H16_7 1_555 1_555
C57_7 H17_7 1_555 1_555
C57_7 H18_7 1_555 1_555
C57_7 H19_7 1_555 1_555
C84_7 H28_7 1_555 1_555
O15_7 H33_7 1_555 1_555
C116_7 H63_7 1_555 1_555
C116_7 H64_7 1_555 1_555
C116_7 H65_7 1_555 1_555
C12_7 H66_7 1_555 1_555
C13_7 H67_7 1_555 1_555
C15_7 H68_7 1_555 1_555
C11_7 H69_7 1_555 1_555
C14_7 H70_7 1_555 1_555
C9_7 H71_7 1_555 1_555
C16_7 H72_7 1_555 1_555
C10_7 H74_7 1_555 1_555
C24_7 H76_7 1_555 1_555
C36_7 H77_7 1_555 1_555
C40_7 H79_7 1_555 1_555
C22_7 H80_7 1_555 1_555
C38_7 H81_7 1_555 1_555
C42_7 H82_7 1_555 1_555
C21_7 H86_7 1_555 1_555
C43_7 H87_7 1_555 1_555
C30_7 H89_7 1_555 1_555
O1_7 H90_7 1_555 1_555
C28_7 H91_7 1_555 1_555
C41_7 H93_7 1_555 1_555
C23_7 H95_7 1_555 1_555
C47_7 H97_7 1_555 1_555
C48_7 H98_7 1_555 1_555
C46_7 H100_7 1_555 1_555
N24_7 C76_7 1_555 1_555
N29_7 C81_7 1_555 1_555
Fe5_3 N24_7 1_555 1_555
N31_7 Fe5_3 1_555 1_555
N32_7 Fe5_3 1_555 1_555
N33_7 Fe5_3 1_555 1_555
N34_7 Fe5_3 1_555 1_555
N35_3 Fe5_3 1_555 1_555
C91_7 N31_7 1_555 1_555
C92_7 N31_7 1_555 1_555
C93_7 N32_7 1_555 1_555
C94_7 N32_7 1_555 1_555
C95_7 N33_7 1_555 1_555
C96_7 N33_7 1_555 1_555
C97_7 N34_7 1_555 1_555
C98_7 N34_7 1_555 1_555
C99_7 C91_7 1_555 1_555
C100_7 C92_7 1_555 1_555
C101_7 C93_7 1_555 1_555
C102_7 C94_7 1_555 1_555
C103_7 C95_7 1_555 1_555
C104_7 C96_7 1_555 1_555
C105_7 C97_7 1_555 1_555
C106_7 C98_7 1_555 1_555
O20_7 C99_7 1_555 1_555
C107_7 C99_7 1_555 1_555
O21_7 C101_7 1_555 1_555
C108_7 C101_7 1_555 1_555
O22_7 C103_7 1_555 1_555
C109_7 C103_7 1_555 1_555
O23_7 C105_7 1_555 1_555
C110_7 C105_7 1_555 1_555
C111_7 O21_7 1_555 1_555
C112_7 O22_7 1_555 1_555
C113_7 O23_7 1_555 1_555
O24_7 C111_7 1_555 1_555
C114_7 C111_7 1_555 1_555
O25_7 C112_7 1_555 1_555
C115_7 C112_7 1_555 1_555
C100_7 C107_7 1_555 1_555
C102_7 C108_7 1_555 1_555
C104_7 C109_7 1_555 1_555
C106_7 C110_7 1_555 1_555
C114_7 H40_7 1_555 1_555
C114_7 H41_7 1_555 1_555
C114_7 H42_7 1_555 1_555
C98_7 H43_7 1_555 1_555
C104_7 H44_7 1_555 1_555
C94_7 H45_7 1_555 1_555
C95_7 H46_7 1_555 1_555
C108_7 H47_7 1_555 1_555
C107_7 H48_7 1_555 1_555
C110_7 H49_7 1_555 1_555
C91_7 H50_7 1_555 1_555
C97_7 H51_7 1_555 1_555
C93_7 H52_7 1_555 1_555
C96_7 H53_7 1_555 1_555
C102_7 H55_7 1_555 1_555
C106_7 H56_7 1_555 1_555
O20_7 H57_7 1_555 1_555
C109_7 H58_7 1_555 1_555
C92_7 H59_7 1_555 1_555
C115_7 H60_7 1_555 1_555
C115_7 H61_7 1_555 1_555
C115_7 H62_7 1_555 1_555
C1_8 N1_8 1_555 1_555
N1_8 Fe1_8 1_555 1_555
N7_8 C7_8 1_555 1_555
Fe1_8 N9_8 1_555 1_555
N9_8 C9_8 1_555 1_555
N10_8 Fe1_8 1_555 1_555
N11_8 Fe1_8 1_555 1_555
N12_8 Fe1_8 1_555 1_555
N15_8 Fe3_9 1_555 1_555
N16_8 Fe3_9 1_555 1_555
C9_8 C25_8 1_555 1_555
C10_8 N9_8 1_555 1_555
C11_8 N10_8 1_555 1_555
C12_8 N10_8 1_555 1_555
C13_8 N11_8 1_555 1_555
C14_8 N11_8 1_555 1_555
C15_8 N12_8 1_555 1_555
C16_8 N12_8 1_555 1_555
C21_8 N15_8 1_555 1_555
C22_8 N15_8 1_555 1_555
C23_8 N16_8 1_555 1_555
C24_8 N16_8 1_555 1_555
C25_8 O1_8 1_555 1_555
C26_8 C10_8 1_555 1_555
C27_8 C11_8 1_555 1_555
C28_8 C12_8 1_555 1_555
C29_8 C13_8 1_555 1_555
C30_8 C14_8 1_555 1_555
C31_8 C15_8 1_555 1_555
C32_8 C16_8 1_555 1_555
C37_8 C21_8 1_555 1_555
C38_8 C22_8 1_555 1_555
C39_8 C23_8 1_555 1_555
C40_8 C24_8 1_555 1_555
C41_8 C25_8 1_555 1_555
O2_8 C27_8 1_555 1_555
C42_8 C27_8 1_555 1_555
O3_8 C29_8 1_555 1_555
C43_8 C29_8 1_555 1_555
O4_8 C31_8 1_555 1_555
C44_8 C31_8 1_555 1_555
O7_8 C37_8 1_555 1_555
C47_8 C37_8 1_555 1_555
O8_8 C39_8 1_555 1_555
C48_8 C39_8 1_555 1_555
C49_8 O2_8 1_555 1_555
C50_8 O3_8 1_555 1_555
C51_8 O4_8 1_555 1_555
C52_8 O7_8 1_555 1_555
C53_8 O8_8 1_555 1_555
O9_8 C49_8 1_555 1_555
C54_8 C49_8 1_555 1_555
O10_8 C50_8 1_555 1_555
C55_8 C50_8 1_555 1_555
O12_8 C52_8 1_555 1_555
C57_8 C52_8 1_555 1_555
O13_8 C53_8 1_555 1_555
C58_8 C53_8 1_555 1_555
N17_8 Fe1_8 1_555 1_555
N23_8 Fe3_9 1_555 1_555
C59_8 N17_8 1_555 1_555
Nb2_8 C59_8 1_555 1_555
C76_8 Nb2_8 1_555 1_555
C77_8 Nb2_8 1_555 1_555
C78_8 Nb2_8 1_555 1_555
C79_8 Nb2_8 1_555 1_555
C80_8 Nb2_8 1_555 1_555
C81_8 Nb2_8 1_555 1_555
C82_8 Nb2_8 1_555 1_555
O15_8 C70_8 1_555 1_555
C84_8 C70_8 1_555 1_555
N24_8 C76_8 1_555 1_555
N25_8 C77_8 1_555 1_555
N26_8 C78_8 1_555 1_555
N27_8 C79_8 1_555 1_555
N28_8 C80_8 1_555 1_555
N29_8 C81_8 1_555 1_555
N30_8 C82_8 1_555 1_555
Fe4_5 N24_8 1_555 1_555
Fe6_10 N25_8 1_555 1_555
Fe7_9 N26_8 1_555 1_555
N31_8 Fe4_5 1_555 1_555
N32_8 Fe4_5 1_555 1_555
N33_8 Fe4_5 1_555 1_555
N34_8 Fe4_5 1_555 1_555
C91_8 N31_8 1_555 1_555
C92_8 N31_8 1_555 1_555
C93_8 N32_8 1_555 1_555
C94_8 N32_8 1_555 1_555
C95_8 N33_8 1_555 1_555
C96_8 N33_8 1_555 1_555
C97_8 N34_8 1_555 1_555
C98_8 N34_8 1_555 1_555
C99_8 C91_8 1_555 1_555
C100_8 C92_8 1_555 1_555
C101_8 C93_8 1_555 1_555
C102_8 C94_8 1_555 1_555
C103_8 C95_8 1_555 1_555
C104_8 C96_8 1_555 1_555
C105_8 C97_8 1_555 1_555
C106_8 C98_8 1_555 1_555
O20_8 C99_8 1_555 1_555
C107_8 C99_8 1_555 1_555
O21_8 C101_8 1_555 1_555
C108_8 C101_8 1_555 1_555
O22_8 C103_8 1_555 1_555
C109_8 C103_8 1_555 1_555
O23_8 C105_8 1_555 1_555
C110_8 C105_8 1_555 1_555
C111_8 O21_8 1_555 1_555
C112_8 O22_8 1_555 1_555
C113_8 O23_8 1_555 1_555
O24_8 C111_8 1_555 1_555
C114_8 C111_8 1_555 1_555
O25_8 C112_8 1_555 1_555
C115_8 C112_8 1_555 1_555
O26_8 C113_8 1_555 1_555
C116_8 C113_8 1_555 1_555
C26_8 C41_8 1_555 1_555
C28_8 C42_8 1_555 1_555
C30_8 C43_8 1_555 1_555
C32_8 C44_8 1_555 1_555
C36_8 C46_8 1_555 1_555
C38_8 C47_8 1_555 1_555
C40_8 C48_8 1_555 1_555
C100_8 C107_8 1_555 1_555
C102_8 C108_8 1_555 1_555
C104_8 C109_8 1_555 1_555
C106_8 C110_8 1_555 1_555
C58_8 H2_8 1_555 1_555
C58_8 H3_8 1_555 1_555
C58_8 H4_8 1_555 1_555
C54_8 H10_8 1_555 1_555
C54_8 H11_8 1_555 1_555
C54_8 H12_8 1_555 1_555
C55_8 H14_8 1_555 1_555
C55_8 H15_8 1_555 1_555
C55_8 H16_8 1_555 1_555
C57_8 H17_8 1_555 1_555
C57_8 H18_8 1_555 1_555
C57_8 H19_8 1_555 1_555
C84_8 H28_8 1_555 1_555
O15_8 H33_8 1_555 1_555
C114_8 H40_8 1_555 1_555
C114_8 H41_8 1_555 1_555
C114_8 H42_8 1_555 1_555
C98_8 H43_8 1_555 1_555
C104_8 H44_8 1_555 1_555
C94_8 H45_8 1_555 1_555
C95_8 H46_8 1_555 1_555
C108_8 H47_8 1_555 1_555
C107_8 H48_8 1_555 1_555
C91_8 H50_8 1_555 1_555
C97_8 H51_8 1_555 1_555
C93_8 H52_8 1_555 1_555
C96_8 H53_8 1_555 1_555
C100_8 H54_8 1_555 1_555
C102_8 H55_8 1_555 1_555
O20_8 H57_8 1_555 1_555
C109_8 H58_8 1_555 1_555
C92_8 H59_8 1_555 1_555
C115_8 H60_8 1_555 1_555
C115_8 H61_8 1_555 1_555
C115_8 H62_8 1_555 1_555
C116_8 H63_8 1_555 1_555
C116_8 H64_8 1_555 1_555
C116_8 H65_8 1_555 1_555
C12_8 H66_8 1_555 1_555
C13_8 H67_8 1_555 1_555
C15_8 H68_8 1_555 1_555
C11_8 H69_8 1_555 1_555
C14_8 H70_8 1_555 1_555
C9_8 H71_8 1_555 1_555
C16_8 H72_8 1_555 1_555
C10_8 H74_8 1_555 1_555
C24_8 H76_8 1_555 1_555
C36_8 H77_8 1_555 1_555
C40_8 H79_8 1_555 1_555
C22_8 H80_8 1_555 1_555
C38_8 H81_8 1_555 1_555
C42_8 H82_8 1_555 1_555
C44_8 H83_8 1_555 1_555
C32_8 H84_8 1_555 1_555
C21_8 H86_8 1_555 1_555
C43_8 H87_8 1_555 1_555
C30_8 H89_8 1_555 1_555
O1_8 H90_8 1_555 1_555
C28_8 H91_8 1_555 1_555
C41_8 H93_8 1_555 1_555
C23_8 H95_8 1_555 1_555
C47_8 H97_8 1_555 1_555
C48_8 H98_8 1_555 1_555
C46_8 H100_8 1_555 1_555
C2_8 Nb1_8 1_555 1_555
C3_8 Nb1_8 1_555 1_555
C4_8 Nb1_8 1_555 1_555
C5_8 Nb1_8 1_555 1_555
C6_8 Nb1_8 1_555 1_555
C8_8 Nb1_8 1_555 1_555
N2_8 C2_8 1_555 1_555
N3_8 C3_8 1_555 1_555
N4_8 C4_8 1_555 1_555
N5_6 C5_8 1_555 1_555
N6_8 C6_8 1_555 1_555
Fe2_10 N2_8 1_555 1_555
Fe3_10 N3_8 1_555 1_555
N13_8 Fe2_10 1_555 1_555
N14_8 Fe2_10 1_555 1_555
C17_8 N13_8 1_555 1_555
C18_8 N13_8 1_555 1_555
C19_8 N14_8 1_555 1_555
C20_8 N14_8 1_555 1_555
C33_8 C17_8 1_555 1_555
C34_8 C18_8 1_555 1_555
C35_8 C19_8 1_555 1_555
O5_8 C33_8 1_555 1_555
C45_8 C33_8 1_555 1_555
O6_8 C35_8 1_555 1_555
Fe4_6 N5_6 1_555 1_555
N18_8 Fe2_10 1_555 1_555
N19_8 Fe2_10 1_555 1_555
N20_8 Fe2_10 1_555 1_555
N21_8 Fe3_10 1_555 1_555
N22_8 Fe3_10 1_555 1_555
C60_8 N18_8 1_555 1_555
C61_8 N18_8 1_555 1_555
C62_8 N19_8 1_555 1_555
C63_8 N19_8 1_555 1_555
C64_8 N21_8 1_555 1_555
C65_8 N21_8 1_555 1_555
C66_8 N22_8 1_555 1_555
C67_8 N22_8 1_555 1_555
C68_8 C60_8 1_555 1_555
C69_8 C61_8 1_555 1_555
C71_8 C63_8 1_555 1_555
C72_8 C64_8 1_555 1_555
C73_8 C65_8 1_555 1_555
C74_8 C66_8 1_555 1_555
C75_8 C67_8 1_555 1_555
O14_8 C68_8 1_555 1_555
C83_8 C68_8 1_555 1_555
O16_8 C72_8 1_555 1_555
C85_8 C72_8 1_555 1_555
O17_8 C74_8 1_555 1_555
C86_8 C74_8 1_555 1_555
C87_8 O16_8 1_555 1_555
C88_8 O17_8 1_555 1_555
O18_8 C87_8 1_555 1_555
C89_8 C87_8 1_555 1_555
O19_8 C88_8 1_555 1_555
C90_8 C88_8 1_555 1_555
C34_8 C45_8 1_555 1_555
C69_8 C83_8 1_555 1_555
C73_8 C85_8 1_555 1_555
C75_8 C86_8 1_555 1_555
C67_8 H1_8 1_555 1_555
C60_8 H5_8 1_555 1_555
C64_8 H6_8 1_555 1_555
C56_8 H7_8 1_555 1_555
C56_8 H8_8 1_555 1_555
C56_8 H9_8 1_555 1_555
C65_8 H13_8 1_555 1_555
C61_8 H20_8 1_555 1_555
C62_8 H21_8 1_555 1_555
C63_8 H22_8 1_555 1_555
C66_8 H23_8 1_555 1_555
C86_8 H24_8 1_555 1_555
C71_8 H25_8 1_555 1_555
C69_8 H26_8 1_555 1_555
O14_8 H27_8 1_555 1_555
C73_8 H29_8 1_555 1_555
C75_8 H30_8 1_555 1_555
C85_8 H31_8 1_555 1_555
C83_8 H32_8 1_555 1_555
C90_8 H34_8 1_555 1_555
C90_8 H35_8 1_555 1_555
C90_8 H36_8 1_555 1_555
C89_8 H37_8 1_555 1_555
C89_8 H38_8 1_555 1_555
C89_8 H39_8 1_555 1_555
C17_8 H73_8 1_555 1_555
C18_8 H75_8 1_555 1_555
C19_8 H78_8 1_555 1_555
C20_8 H85_8 1_555 1_555
O5_8 H88_8 1_555 1_555
C34_8 H94_8 1_555 1_555
C45_8 H96_8 1_555 1_555
O6_8 H99_8 1_555 1_555
N24_9 C76_9 1_555 1_555
N29_9 C81_9 1_555 1_555
Fe4_6 N24_9 1_555 1_555
N31_9 Fe4_6 1_555 1_555
N32_9 Fe4_6 1_555 1_555
N33_9 Fe4_6 1_555 1_555
N34_9 Fe4_6 1_555 1_555
C91_9 N31_9 1_555 1_555
C92_9 N31_9 1_555 1_555
C93_9 N32_9 1_555 1_555
C94_9 N32_9 1_555 1_555
C95_9 N33_9 1_555 1_555
C96_9 N33_9 1_555 1_555
C97_9 N34_9 1_555 1_555
C98_9 N34_9 1_555 1_555
C99_9 C91_9 1_555 1_555
C100_9 C92_9 1_555 1_555
C101_9 C93_9 1_555 1_555
C102_9 C94_9 1_555 1_555
C103_9 C95_9 1_555 1_555
C104_9 C96_9 1_555 1_555
C105_9 C97_9 1_555 1_555
C106_9 C98_9 1_555 1_555
O20_9 C99_9 1_555 1_555
C107_9 C99_9 1_555 1_555
O21_9 C101_9 1_555 1_555
C108_9 C101_9 1_555 1_555
O22_9 C103_9 1_555 1_555
C109_9 C103_9 1_555 1_555
O23_9 C105_9 1_555 1_555
C110_9 C105_9 1_555 1_555
C111_9 O21_9 1_555 1_555
C112_9 O22_9 1_555 1_555
C113_9 O23_9 1_555 1_555
O24_9 C111_9 1_555 1_555
C114_9 C111_9 1_555 1_555
O25_9 C112_9 1_555 1_555
C115_9 C112_9 1_555 1_555
C100_9 C107_9 1_555 1_555
C102_9 C108_9 1_555 1_555
C104_9 C109_9 1_555 1_555
C106_9 C110_9 1_555 1_555
C114_9 H40_9 1_555 1_555
C114_9 H41_9 1_555 1_555
C114_9 H42_9 1_555 1_555
C98_9 H43_9 1_555 1_555
C104_9 H44_9 1_555 1_555
C94_9 H45_9 1_555 1_555
C95_9 H46_9 1_555 1_555
C108_9 H47_9 1_555 1_555
C107_9 H48_9 1_555 1_555
C91_9 H50_9 1_555 1_555
C97_9 H51_9 1_555 1_555
C93_9 H52_9 1_555 1_555
C96_9 H53_9 1_555 1_555
C102_9 H55_9 1_555 1_555
O20_9 H57_9 1_555 1_555
C109_9 H58_9 1_555 1_555
C92_9 H59_9 1_555 1_555
C115_9 H60_9 1_555 1_555
C115_9 H61_9 1_555 1_555
C115_9 H62_9 1_555 1_555
Nb1_9 C1_9 1_555 1_555
C1_9 N1_9 1_555 1_555
C2_9 Nb1_9 1_555 1_555
C3_9 Nb1_9 1_555 1_555
C4_9 Nb1_9 1_555 1_555
C5_9 Nb1_9 1_555 1_555
C6_9 Nb1_9 1_555 1_555
C7_9 Nb1_9 1_555 1_555
C8_9 Nb1_9 1_555 1_555
N1_9 Fe1_9 1_555 1_555
N2_9 C2_9 1_555 1_555
N3_9 C3_9 1_555 1_555
N4_9 C4_9 1_555 1_555
N35_3 C5_9 1_555 1_555
N6_9 C6_9 1_555 1_555
N7_9 C7_9 1_555 1_555
N8_9 C8_9 1_555 1_555
Fe1_9 N9_9 1_555 1_555
Fe2_11 N2_9 1_555 1_555
Fe3_11 N3_9 1_555 1_555
N9_9 C9_9 1_555 1_555
N10_9 Fe1_9 1_555 1_555
N11_9 Fe1_9 1_555 1_555
N12_9 Fe1_9 1_555 1_555
N13_9 Fe2_11 1_555 1_555
N14_9 Fe2_11 1_555 1_555
N15_9 Fe3_11 1_555 1_555
N16_9 Fe3_11 1_555 1_555
C9_9 C25_9 1_555 1_555
C10_9 N9_9 1_555 1_555
C11_9 N10_9 1_555 1_555
C12_9 N10_9 1_555 1_555
C13_9 N11_9 1_555 1_555
C14_9 N11_9 1_555 1_555
C15_9 N12_9 1_555 1_555
C16_9 N12_9 1_555 1_555
C17_9 N13_9 1_555 1_555
C18_9 N13_9 1_555 1_555
C19_9 N14_9 1_555 1_555
C20_9 N14_9 1_555 1_555
C21_9 N15_9 1_555 1_555
C22_9 N15_9 1_555 1_555
C23_9 N16_9 1_555 1_555
C24_9 N16_9 1_555 1_555
C25_9 O1_9 1_555 1_555
C26_9 C10_9 1_555 1_555
C27_9 C11_9 1_555 1_555
C28_9 C12_9 1_555 1_555
C29_9 C13_9 1_555 1_555
C30_9 C14_9 1_555 1_555
C31_9 C15_9 1_555 1_555
C32_9 C16_9 1_555 1_555
C33_9 C17_9 1_555 1_555
C34_9 C18_9 1_555 1_555
C35_9 C19_9 1_555 1_555
C36_9 C20_9 1_555 1_555
C37_9 C21_9 1_555 1_555
C38_9 C22_9 1_555 1_555
C39_9 C23_9 1_555 1_555
C40_9 C24_9 1_555 1_555
C41_9 C25_9 1_555 1_555
O2_9 C27_9 1_555 1_555
C42_9 C27_9 1_555 1_555
O3_9 C29_9 1_555 1_555
C43_9 C29_9 1_555 1_555
O4_9 C31_9 1_555 1_555
C44_9 C31_9 1_555 1_555
O5_9 C33_9 1_555 1_555
C45_9 C33_9 1_555 1_555
O6_9 C35_9 1_555 1_555
C46_9 C35_9 1_555 1_555
O7_9 C37_9 1_555 1_555
C47_9 C37_9 1_555 1_555
O8_9 C39_9 1_555 1_555
C48_9 C39_9 1_555 1_555
C49_9 O2_9 1_555 1_555
C50_9 O3_9 1_555 1_555
C51_9 O4_9 1_555 1_555
C52_9 O7_9 1_555 1_555
C53_9 O8_9 1_555 1_555
O9_9 C49_9 1_555 1_555
C54_9 C49_9 1_555 1_555
O10_9 C50_9 1_555 1_555
C55_9 C50_9 1_555 1_555
O11_9 C51_9 1_555 1_555
C56_9 C51_9 1_555 1_555
O12_9 C52_9 1_555 1_555
C57_9 C52_9 1_555 1_555
O13_9 C53_9 1_555 1_555
C58_9 C53_9 1_555 1_555
N17_9 Fe1_9 1_555 1_555
N18_9 Fe2_11 1_555 1_555
N19_9 Fe2_11 1_555 1_555
N20_9 Fe2_11 1_555 1_555
N21_9 Fe3_11 1_555 1_555
N22_9 Fe3_11 1_555 1_555
N23_9 Fe3_11 1_555 1_555
C59_9 N17_9 1_555 1_555
C60_9 N18_9 1_555 1_555
C61_9 N18_9 1_555 1_555
C62_9 N19_9 1_555 1_555
C63_9 N19_9 1_555 1_555
C64_9 N21_9 1_555 1_555
C65_9 N21_9 1_555 1_555
C66_9 N22_9 1_555 1_555
C67_9 N22_9 1_555 1_555
Nb2_9 C59_9 1_555 1_555
C68_9 C60_9 1_555 1_555
C69_9 C61_9 1_555 1_555
C70_9 C62_9 1_555 1_555
C71_9 C63_9 1_555 1_555
C72_9 C64_9 1_555 1_555
C73_9 C65_9 1_555 1_555
C74_9 C66_9 1_555 1_555
C75_9 C67_9 1_555 1_555
C77_9 Nb2_9 1_555 1_555
C78_9 Nb2_9 1_555 1_555
C79_9 Nb2_9 1_555 1_555
C80_9 Nb2_9 1_555 1_555
C82_9 Nb2_9 1_555 1_555
O14_9 C68_9 1_555 1_555
C83_9 C68_9 1_555 1_555
O15_9 C70_9 1_555 1_555
C84_9 C70_9 1_555 1_555
O16_9 C72_9 1_555 1_555
C85_9 C72_9 1_555 1_555
O17_9 C74_9 1_555 1_555
C86_9 C74_9 1_555 1_555
N25_9 C77_9 1_555 1_555
N26_9 C78_9 1_555 1_555
N27_9 C79_9 1_555 1_555
N28_9 C80_9 1_555 1_555
C87_9 O16_9 1_555 1_555
C88_9 O17_9 1_555 1_555
Fe6_11 N25_9 1_555 1_555
Fe7_11 N26_9 1_555 1_555
O18_9 C87_9 1_555 1_555
C89_9 C87_9 1_555 1_555
O19_9 C88_9 1_555 1_555
C90_9 C88_9 1_555 1_555
C26_9 C41_9 1_555 1_555
C28_9 C42_9 1_555 1_555
C30_9 C43_9 1_555 1_555
C32_9 C44_9 1_555 1_555
C34_9 C45_9 1_555 1_555
C36_9 C46_9 1_555 1_555
C38_9 C47_9 1_555 1_555
C40_9 C48_9 1_555 1_555
C69_9 C83_9 1_555 1_555
C71_9 C84_9 1_555 1_555
C73_9 C85_9 1_555 1_555
C75_9 C86_9 1_555 1_555
C67_9 H1_9 1_555 1_555
C58_9 H2_9 1_555 1_555
C58_9 H3_9 1_555 1_555
C58_9 H4_9 1_555 1_555
C60_9 H5_9 1_555 1_555
C64_9 H6_9 1_555 1_555
C56_9 H7_9 1_555 1_555
C56_9 H8_9 1_555 1_555
C56_9 H9_9 1_555 1_555
C54_9 H10_9 1_555 1_555
C54_9 H11_9 1_555 1_555
C54_9 H12_9 1_555 1_555
C65_9 H13_9 1_555 1_555
C55_9 H14_9 1_555 1_555
C55_9 H15_9 1_555 1_555
C55_9 H16_9 1_555 1_555
C57_9 H17_9 1_555 1_555
C57_9 H18_9 1_555 1_555
C57_9 H19_9 1_555 1_555
C61_9 H20_9 1_555 1_555
C62_9 H21_9 1_555 1_555
C63_9 H22_9 1_555 1_555
C66_9 H23_9 1_555 1_555
C86_9 H24_9 1_555 1_555
C71_9 H25_9 1_555 1_555
C69_9 H26_9 1_555 1_555
O14_9 H27_9 1_555 1_555
C84_9 H28_9 1_555 1_555
C73_9 H29_9 1_555 1_555
C75_9 H30_9 1_555 1_555
C85_9 H31_9 1_555 1_555
C83_9 H32_9 1_555 1_555
O15_9 H33_9 1_555 1_555
C90_9 H34_9 1_555 1_555
C90_9 H35_9 1_555 1_555
C90_9 H36_9 1_555 1_555
C89_9 H37_9 1_555 1_555
C89_9 H38_9 1_555 1_555
C89_9 H39_9 1_555 1_555
C116_9 H63_9 1_555 1_555
C116_9 H64_9 1_555 1_555
C116_9 H65_9 1_555 1_555
C12_9 H66_9 1_555 1_555
C13_9 H67_9 1_555 1_555
C15_9 H68_9 1_555 1_555
C11_9 H69_9 1_555 1_555
C14_9 H70_9 1_555 1_555
C9_9 H71_9 1_555 1_555
C16_9 H72_9 1_555 1_555
C17_9 H73_9 1_555 1_555
C10_9 H74_9 1_555 1_555
C18_9 H75_9 1_555 1_555
C24_9 H76_9 1_555 1_555
C36_9 H77_9 1_555 1_555
C19_9 H78_9 1_555 1_555
C40_9 H79_9 1_555 1_555
C22_9 H80_9 1_555 1_555
C38_9 H81_9 1_555 1_555
C42_9 H82_9 1_555 1_555
C20_9 H85_9 1_555 1_555
C21_9 H86_9 1_555 1_555
C43_9 H87_9 1_555 1_555
O5_9 H88_9 1_555 1_555
C30_9 H89_9 1_555 1_555
O1_9 H90_9 1_555 1_555
C28_9 H91_9 1_555 1_555
C26_9 H92_9 1_555 1_555
C41_9 H93_9 1_555 1_555
C34_9 H94_9 1_555 1_555
C23_9 H95_9 1_555 1_555
C45_9 H96_9 1_555 1_555
C47_9 H97_9 1_555 1_555
C48_9 H98_9 1_555 1_555
O6_9 H99_9 1_555 1_555
C46_9 H100_9 1_555 1_555
Nb1_10 C1_10 1_555 1_555
C1_10 N1_10 1_555 1_555
C2_10 Nb1_10 1_555 1_555
C3_10 Nb1_10 1_555 1_555
C4_10 Nb1_10 1_555 1_555
C5_10 Nb1_10 1_555 1_555
C6_10 Nb1_10 1_555 1_555
C7_10 Nb1_10 1_555 1_555
C8_10 Nb1_10 1_555 1_555
N1_10 Fe1_10 1_555 1_555
N20_9 C2_10 1_555 1_555
N23_5 C3_10 1_555 1_555
N4_10 C4_10 1_555 1_555
N5_7 C5_10 1_555 1_555
N6_10 C6_10 1_555 1_555
N7_10 C7_10 1_555 1_555
N8_10 C8_10 1_555 1_555
Fe1_10 N9_10 1_555 1_555
N9_10 C9_10 1_555 1_555
N10_10 Fe1_10 1_555 1_555
N11_10 Fe1_10 1_555 1_555
N12_10 Fe1_10 1_555 1_555
C9_10 C25_10 1_555 1_555
C10_10 N9_10 1_555 1_555
C11_10 N10_10 1_555 1_555
C12_10 N10_10 1_555 1_555
C13_10 N11_10 1_555 1_555
C14_10 N11_10 1_555 1_555
C15_10 N12_10 1_555 1_555
C16_10 N12_10 1_555 1_555
C25_10 O1_10 1_555 1_555
C26_10 C10_10 1_555 1_555
C27_10 C11_10 1_555 1_555
C28_10 C12_10 1_555 1_555
C29_10 C13_10 1_555 1_555
C30_10 C14_10 1_555 1_555
C31_10 C15_10 1_555 1_555
C32_10 C16_10 1_555 1_555
C41_10 C25_10 1_555 1_555
O2_10 C27_10 1_555 1_555
C42_10 C27_10 1_555 1_555
O3_10 C29_10 1_555 1_555
C43_10 C29_10 1_555 1_555
O4_10 C31_10 1_555 1_555
C44_10 C31_10 1_555 1_555
C49_10 O2_10 1_555 1_555
C50_10 O3_10 1_555 1_555
C51_10 O4_10 1_555 1_555
O9_10 C49_10 1_555 1_555
C54_10 C49_10 1_555 1_555
O10_10 C50_10 1_555 1_555
C55_10 C50_10 1_555 1_555
O11_10 C51_10 1_555 1_555
C56_10 C51_10 1_555 1_555
Fe4_7 N5_7 1_555 1_555
N17_10 Fe1_10 1_555 1_555
C59_10 N17_10 1_555 1_555
Nb2_10 C59_10 1_555 1_555
C76_10 Nb2_10 1_555 1_555
C77_10 Nb2_10 1_555 1_555
C78_10 Nb2_10 1_555 1_555
C79_10 Nb2_10 1_555 1_555
C80_10 Nb2_10 1_555 1_555
C81_10 Nb2_10 1_555 1_555
C82_10 Nb2_10 1_555 1_555
N24_10 C76_10 1_555 1_555
N25_10 C77_10 1_555 1_555
N26_10 C78_10 1_555 1_555
N27_10 C79_10 1_555 1_555
N28_10 C80_10 1_555 1_555
N29_10 C81_10 1_555 1_555
N30_10 C82_10 1_555 1_555
Fe5_4 N24_10 1_555 1_555
Fe6 N25_10 1_555 1_555
Fe7_6 N26_10 1_555 1_555
N31_10 Fe5_4 1_555 1_555
N32_10 Fe5_4 1_555 1_555
N33_10 Fe5_4 1_555 1_555
N34_10 Fe5_4 1_555 1_555
N35_4 Fe5_4 1_555 1_555
C91_10 N31_10 1_555 1_555
C92_10 N31_10 1_555 1_555
C93_10 N32_10 1_555 1_555
C94_10 N32_10 1_555 1_555
C95_10 N33_10 1_555 1_555
C96_10 N33_10 1_555 1_555
C97_10 N34_10 1_555 1_555
C98_10 N34_10 1_555 1_555
C99_10 C91_10 1_555 1_555
C100_10 C92_10 1_555 1_555
C101_10 C93_10 1_555 1_555
C102_10 C94_10 1_555 1_555
C103_10 C95_10 1_555 1_555
C104_10 C96_10 1_555 1_555
C105_10 C97_10 1_555 1_555
C106_10 C98_10 1_555 1_555
O20_10 C99_10 1_555 1_555
C107_10 C99_10 1_555 1_555
O21_10 C101_10 1_555 1_555
C108_10 C101_10 1_555 1_555
O22_10 C103_10 1_555 1_555
C109_10 C103_10 1_555 1_555
O23_10 C105_10 1_555 1_555
C110_10 C105_10 1_555 1_555
C111_10 O21_10 1_555 1_555
C112_10 O22_10 1_555 1_555
C113_10 O23_10 1_555 1_555
O24_10 C111_10 1_555 1_555
C114_10 C111_10 1_555 1_555
O25_10 C112_10 1_555 1_555
C115_10 C112_10 1_555 1_555
O26_10 C113_10 1_555 1_555
C116_10 C113_10 1_555 1_555
C26_10 C41_10 1_555 1_555
C28_10 C42_10 1_555 1_555
C30_10 C43_10 1_555 1_555
C32_10 C44_10 1_555 1_555
C100_10 C107_10 1_555 1_555
C102_10 C108_10 1_555 1_555
C104_10 C109_10 1_555 1_555
C106_10 C110_10 1_555 1_555
C56_10 H7_10 1_555 1_555
C56_10 H8_10 1_555 1_555
C56_10 H9_10 1_555 1_555
C54_10 H10_10 1_555 1_555
C54_10 H11_10 1_555 1_555
C54_10 H12_10 1_555 1_555
C55_10 H14_10 1_555 1_555
C55_10 H15_10 1_555 1_555
C55_10 H16_10 1_555 1_555
C114_10 H40_10 1_555 1_555
C114_10 H41_10 1_555 1_555
C114_10 H42_10 1_555 1_555
C98_10 H43_10 1_555 1_555
C104_10 H44_10 1_555 1_555
C94_10 H45_10 1_555 1_555
C95_10 H46_10 1_555 1_555
C108_10 H47_10 1_555 1_555
C107_10 H48_10 1_555 1_555
C110_10 H49_10 1_555 1_555
C91_10 H50_10 1_555 1_555
C97_10 H51_10 1_555 1_555
C93_10 H52_10 1_555 1_555
C96_10 H53_10 1_555 1_555
C100_10 H54_10 1_555 1_555
C102_10 H55_10 1_555 1_555
C106_10 H56_10 1_555 1_555
O20_10 H57_10 1_555 1_555
C109_10 H58_10 1_555 1_555
C92_10 H59_10 1_555 1_555
C115_10 H60_10 1_555 1_555
C115_10 H61_10 1_555 1_555
C115_10 H62_10 1_555 1_555
C116_10 H63_10 1_555 1_555
C116_10 H64_10 1_555 1_555
C116_10 H65_10 1_555 1_555
C12_10 H66_10 1_555 1_555
C13_10 H67_10 1_555 1_555
C15_10 H68_10 1_555 1_555
C11_10 H69_10 1_555 1_555
C14_10 H70_10 1_555 1_555
C9_10 H71_10 1_555 1_555
C16_10 H72_10 1_555 1_555
C10_10 H74_10 1_555 1_555
C42_10 H82_10 1_555 1_555
C44_10 H83_10 1_555 1_555
C32_10 H84_10 1_555 1_555
C43_10 H87_10 1_555 1_555
C30_10 H89_10 1_555 1_555
O1_10 H90_10 1_555 1_555
C28_10 H91_10 1_555 1_555
C26_10 H92_10 1_555 1_555
C41_10 H93_10 1_555 1_555
Nb1_11 C1_11 1_555 1_555
C1_11 N1_11 1_555 1_555
C2_11 Nb1_11 1_555 1_555
C3_11 Nb1_11 1_555 1_555
C4_11 Nb1_11 1_555 1_555
C5_11 Nb1_11 1_555 1_555
C6_11 Nb1_11 1_555 1_555
C7_11 Nb1_11 1_555 1_555
C8_11 Nb1_11 1_555 1_555
N1_11 Fe1_11 1_555 1_555
N20_7 C2_11 1_555 1_555
N23_6 C3_11 1_555 1_555
N4_11 C4_11 1_555 1_555
N35_4 C5_11 1_555 1_555
N6_11 C6_11 1_555 1_555
N7_11 C7_11 1_555 1_555
N8_11 C8_11 1_555 1_555
Fe1_11 N9_11 1_555 1_555
N9_11 C9_11 1_555 1_555
N10_11 Fe1_11 1_555 1_555
N11_11 Fe1_11 1_555 1_555
N12_11 Fe1_11 1_555 1_555
C9_11 C25_11 1_555 1_555
C10_11 N9_11 1_555 1_555
C11_11 N10_11 1_555 1_555
C12_11 N10_11 1_555 1_555
C13_11 N11_11 1_555 1_555
C14_11 N11_11 1_555 1_555
C15_11 N12_11 1_555 1_555
C16_11 N12_11 1_555 1_555
C25_11 O1_11 1_555 1_555
C26_11 C10_11 1_555 1_555
C27_11 C11_11 1_555 1_555
C28_11 C12_11 1_555 1_555
C29_11 C13_11 1_555 1_555
C30_11 C14_11 1_555 1_555
C31_11 C15_11 1_555 1_555
C32_11 C16_11 1_555 1_555
C41_11 C25_11 1_555 1_555
O2_11 C27_11 1_555 1_555
C42_11 C27_11 1_555 1_555
O3_11 C29_11 1_555 1_555
C43_11 C29_11 1_555 1_555
O4_11 C31_11 1_555 1_555
C44_11 C31_11 1_555 1_555
C49_11 O2_11 1_555 1_555
C50_11 O3_11 1_555 1_555
C51_11 O4_11 1_555 1_555
C54_11 C49_11 1_555 1_555
O10_11 C50_11 1_555 1_555
C55_11 C50_11 1_555 1_555
O11_11 C51_11 1_555 1_555
C56_11 C51_11 1_555 1_555
N17_11 Fe1_11 1_555 1_555
C59_11 N17_11 1_555 1_555
Nb2_11 C59_11 1_555 1_555
C76_11 Nb2_11 1_555 1_555
C77_11 Nb2_11 1_555 1_555
C78_11 Nb2_11 1_555 1_555
C79_11 Nb2_11 1_555 1_555
C80_11 Nb2_11 1_555 1_555
C81_11 Nb2_11 1_555 1_555
C82_11 Nb2_11 1_555 1_555
N24_11 C76_11 1_555 1_555
N25_11 C77_11 1_555 1_555
N26_11 C78_11 1_555 1_555
N27_11 C79_11 1_555 1_555
N28_11 C80_11 1_555 1_555
N29_11 C81_11 1_555 1_555
N30_11 C82_11 1_555 1_555
Fe5_5 N24_11 1_555 1_555
Fe6_2 N25_11 1_555 1_555
Fe7_4 N26_11 1_555 1_555
N31_11 Fe5_5 1_555 1_555
N32_11 Fe5_5 1_555 1_555
N33_11 Fe5_5 1_555 1_555
N34_11 Fe5_5 1_555 1_555
N35_5 Fe5_5 1_555 1_555
C91_11 N31_11 1_555 1_555
C92_11 N31_11 1_555 1_555
C93_11 N32_11 1_555 1_555
C94_11 N32_11 1_555 1_555
C95_11 N33_11 1_555 1_555
C96_11 N33_11 1_555 1_555
C97_11 N34_11 1_555 1_555
C98_11 N34_11 1_555 1_555
C99_11 C91_11 1_555 1_555
C100_11 C92_11 1_555 1_555
C101_11 C93_11 1_555 1_555
C102_11 C94_11 1_555 1_555
C103_11 C95_11 1_555 1_555
C104_11 C96_11 1_555 1_555
C105_11 C97_11 1_555 1_555
C106_11 C98_11 1_555 1_555
O20_11 C99_11 1_555 1_555
C107_11 C99_11 1_555 1_555
O21_11 C101_11 1_555 1_555
C108_11 C101_11 1_555 1_555
O22_11 C103_11 1_555 1_555
C109_11 C103_11 1_555 1_555
O23_11 C105_11 1_555 1_555
C110_11 C105_11 1_555 1_555
C111_11 O21_11 1_555 1_555
C112_11 O22_11 1_555 1_555
C113_11 O23_11 1_555 1_555
O24_11 C111_11 1_555 1_555
C114_11 C111_11 1_555 1_555
O25_11 C112_11 1_555 1_555
C115_11 C112_11 1_555 1_555
O26_11 C113_11 1_555 1_555
C116_11 C113_11 1_555 1_555
C26_11 C41_11 1_555 1_555
C28_11 C42_11 1_555 1_555
C30_11 C43_11 1_555 1_555
C32_11 C44_11 1_555 1_555
C100_11 C107_11 1_555 1_555
C102_11 C108_11 1_555 1_555
C104_11 C109_11 1_555 1_555
C106_11 C110_11 1_555 1_555
C56_11 H7_11 1_555 1_555
C56_11 H8_11 1_555 1_555
C56_11 H9_11 1_555 1_555
C54_11 H10_11 1_555 1_555
C54_11 H12_11 1_555 1_555
C55_11 H14_11 1_555 1_555
C55_11 H15_11 1_555 1_555
C55_11 H16_11 1_555 1_555
C114_11 H40_11 1_555 1_555
C114_11 H41_11 1_555 1_555
C114_11 H42_11 1_555 1_555
C98_11 H43_11 1_555 1_555
C104_11 H44_11 1_555 1_555
C94_11 H45_11 1_555 1_555
C95_11 H46_11 1_555 1_555
C108_11 H47_11 1_555 1_555
C107_11 H48_11 1_555 1_555
C110_11 H49_11 1_555 1_555
C91_11 H50_11 1_555 1_555
C97_11 H51_11 1_555 1_555
C93_11 H52_11 1_555 1_555
C96_11 H53_11 1_555 1_555
C100_11 H54_11 1_555 1_555
C102_11 H55_11 1_555 1_555
C106_11 H56_11 1_555 1_555
O20_11 H57_11 1_555 1_555
C109_11 H58_11 1_555 1_555
C92_11 H59_11 1_555 1_555
C115_11 H60_11 1_555 1_555
C115_11 H61_11 1_555 1_555
C115_11 H62_11 1_555 1_555
C116_11 H63_11 1_555 1_555
C116_11 H64_11 1_555 1_555
C116_11 H65_11 1_555 1_555
C12_11 H66_11 1_555 1_555
C13_11 H67_11 1_555 1_555
C15_11 H68_11 1_555 1_555
C11_11 H69_11 1_555 1_555
C14_11 H70_11 1_555 1_555
C9_11 H71_11 1_555 1_555
C16_11 H72_11 1_555 1_555
C10_11 H74_11 1_555 1_555
C42_11 H82_11 1_555 1_555
C44_11 H83_11 1_555 1_555
C32_11 H84_11 1_555 1_555
C43_11 H87_11 1_555 1_555
C30_11 H89_11 1_555 1_555
O1_11 H90_11 1_555 1_555
C28_11 H91_11 1_555 1_555
C26_11 H92_11 1_555 1_555
C41_11 H93_11 1_555 1_555
Nb1_12 C1_12 1_555 1_555
C1_12 N1_12 1_555 1_555
C2_12 Nb1_12 1_555 1_555
C3_12 Nb1_12 1_555 1_555
C4_12 Nb1_12 1_555 1_555
C5_12 Nb1_12 1_555 1_555
C6_12 Nb1_12 1_555 1_555
C7_12 Nb1_12 1_555 1_555
C8_12 Nb1_12 1_555 1_555
N1_12 Fe1_12 1_555 1_555
N20_8 C2_12 1_555 1_555
N23_4 C3_12 1_555 1_555
N4_12 C4_12 1_555 1_555
N35_5 C5_12 1_555 1_555
N6_12 C6_12 1_555 1_555
N7_12 C7_12 1_555 1_555
N8_12 C8_12 1_555 1_555
Fe1_12 N9_12 1_555 1_555
N9_12 C9_12 1_555 1_555
N10_12 Fe1_12 1_555 1_555
N11_12 Fe1_12 1_555 1_555
N12_12 Fe1_12 1_555 1_555
C9_12 C25_12 1_555 1_555
C10_12 N9_12 1_555 1_555
C11_12 N10_12 1_555 1_555
C12_12 N10_12 1_555 1_555
C13_12 N11_12 1_555 1_555
C14_12 N11_12 1_555 1_555
C15_12 N12_12 1_555 1_555
C16_12 N12_12 1_555 1_555
C25_12 O1_12 1_555 1_555
C26_12 C10_12 1_555 1_555
C27_12 C11_12 1_555 1_555
C28_12 C12_12 1_555 1_555
C29_12 C13_12 1_555 1_555
C30_12 C14_12 1_555 1_555
C31_12 C15_12 1_555 1_555
C32_12 C16_12 1_555 1_555
C41_12 C25_12 1_555 1_555
O2_12 C27_12 1_555 1_555
C42_12 C27_12 1_555 1_555
O3_12 C29_12 1_555 1_555
C43_12 C29_12 1_555 1_555
O4_12 C31_12 1_555 1_555
C44_12 C31_12 1_555 1_555
C49_12 O2_12 1_555 1_555
C50_12 O3_12 1_555 1_555
C51_12 O4_12 1_555 1_555
C54_12 C49_12 1_555 1_555
O10_12 C50_12 1_555 1_555
C55_12 C50_12 1_555 1_555
O11_12 C51_12 1_555 1_555
C56_12 C51_12 1_555 1_555
N17_12 Fe1_12 1_555 1_555
C59_12 N17_12 1_555 1_555
Nb2_12 C59_12 1_555 1_555
C76_12 Nb2_12 1_555 1_555
C77_12 Nb2_12 1_555 1_555
C78_12 Nb2_12 1_555 1_555
C79_12 Nb2_12 1_555 1_555
C80_12 Nb2_12 1_555 1_555
C81_12 Nb2_12 1_555 1_555
C82_12 Nb2_12 1_555 1_555
N24_12 C76_12 1_555 1_555
N25_12 C77_12 1_555 1_555
N26_12 C78_12 1_555 1_555
N27_12 C79_12 1_555 1_555
N28_12 C80_12 1_555 1_555
N29_12 C81_12 1_555 1_555
N30_12 C82_12 1_555 1_555
Fe4_7 N24_12 1_555 1_555
Fe6_5 N25_12 1_555 1_555
Fe7_5 N26_12 1_555 1_555
N31_12 Fe4_7 1_555 1_555
N32_12 Fe4_7 1_555 1_555
N33_12 Fe4_7 1_555 1_555
N34_12 Fe4_7 1_555 1_555
C91_12 N31_12 1_555 1_555
C92_12 N31_12 1_555 1_555
C93_12 N32_12 1_555 1_555
C94_12 N32_12 1_555 1_555
C95_12 N33_12 1_555 1_555
C96_12 N33_12 1_555 1_555
C97_12 N34_12 1_555 1_555
C98_12 N34_12 1_555 1_555
C99_12 C91_12 1_555 1_555
C100_12 C92_12 1_555 1_555
C101_12 C93_12 1_555 1_555
C102_12 C94_12 1_555 1_555
C103_12 C95_12 1_555 1_555
C104_12 C96_12 1_555 1_555
C105_12 C97_12 1_555 1_555
C106_12 C98_12 1_555 1_555
O20_12 C99_12 1_555 1_555
C107_12 C99_12 1_555 1_555
O21_12 C101_12 1_555 1_555
C108_12 C101_12 1_555 1_555
O22_12 C103_12 1_555 1_555
C109_12 C103_12 1_555 1_555
O23_12 C105_12 1_555 1_555
C110_12 C105_12 1_555 1_555
C111_12 O21_12 1_555 1_555
C112_12 O22_12 1_555 1_555
C113_12 O23_12 1_555 1_555
O24_12 C111_12 1_555 1_555
C114_12 C111_12 1_555 1_555
O25_12 C112_12 1_555 1_555
C115_12 C112_12 1_555 1_555
O26_12 C113_12 1_555 1_555
C116_12 C113_12 1_555 1_555
C26_12 C41_12 1_555 1_555
C28_12 C42_12 1_555 1_555
C30_12 C43_12 1_555 1_555
C32_12 C44_12 1_555 1_555
C100_12 C107_12 1_555 1_555
C102_12 C108_12 1_555 1_555
C104_12 C109_12 1_555 1_555
C106_12 C110_12 1_555 1_555
C56_12 H7_12 1_555 1_555
C56_12 H8_12 1_555 1_555
C56_12 H9_12 1_555 1_555
C54_12 H10_12 1_555 1_555
C54_12 H12_12 1_555 1_555
C55_12 H14_12 1_555 1_555
C55_12 H15_12 1_555 1_555
C55_12 H16_12 1_555 1_555
C114_12 H40_12 1_555 1_555
C114_12 H41_12 1_555 1_555
C114_12 H42_12 1_555 1_555
C98_12 H43_12 1_555 1_555
C104_12 H44_12 1_555 1_555
C94_12 H45_12 1_555 1_555
C95_12 H46_12 1_555 1_555
C108_12 H47_12 1_555 1_555
C107_12 H48_12 1_555 1_555
C110_12 H49_12 1_555 1_555
C91_12 H50_12 1_555 1_555
C97_12 H51_12 1_555 1_555
C93_12 H52_12 1_555 1_555
C96_12 H53_12 1_555 1_555
C100_12 H54_12 1_555 1_555
C102_12 H55_12 1_555 1_555
C106_12 H56_12 1_555 1_555
O20_12 H57_12 1_555 1_555
C109_12 H58_12 1_555 1_555
C92_12 H59_12 1_555 1_555
C115_12 H60_12 1_555 1_555
C115_12 H61_12 1_555 1_555
C115_12 H62_12 1_555 1_555
C116_12 H63_12 1_555 1_555
C116_12 H64_12 1_555 1_555
C116_12 H65_12 1_555 1_555
C12_12 H66_12 1_555 1_555
C13_12 H67_12 1_555 1_555
C15_12 H68_12 1_555 1_555
C11_12 H69_12 1_555 1_555
C14_12 H70_12 1_555 1_555
C9_12 H71_12 1_555 1_555
C16_12 H72_12 1_555 1_555
C10_12 H74_12 1_555 1_555
C42_12 H82_12 1_555 1_555
C44_12 H83_12 1_555 1_555
C32_12 H84_12 1_555 1_555
C43_12 H87_12 1_555 1_555
C30_12 H89_12 1_555 1_555
O1_12 H90_12 1_555 1_555
C28_12 H91_12 1_555 1_555
C26_12 H92_12 1_555 1_555
C41_12 H93_12 1_555 1_555
Nb1_13 C1_13 1_555 1_555
C1_13 N1_13 1_555 1_555
C2_13 Nb1_13 1_555 1_555
C3_13 Nb1_13 1_555 1_555
C4_13 Nb1_13 1_555 1_555
C5_13 Nb1_13 1_555 1_555
C6_13 Nb1_13 1_555 1_555
C7_13 Nb1_13 1_555 1_555
C8_13 Nb1_13 1_555 1_555
N1_13 Fe1_13 1_555 1_555
N20_6 C2_13 1_555 1_555
N23_2 C3_13 1_555 1_555
N4_13 C4_13 1_555 1_555
N5_8 C5_13 1_555 1_555
N6_13 C6_13 1_555 1_555
N7_13 C7_13 1_555 1_555
N8_13 C8_13 1_555 1_555
Fe1_13 N9_13 1_555 1_555
N9_13 C9_13 1_555 1_555
N10_13 Fe1_13 1_555 1_555
N11_13 Fe1_13 1_555 1_555
N12_13 Fe1_13 1_555 1_555
C9_13 C25_13 1_555 1_555
C10_13 N9_13 1_555 1_555
C11_13 N10_13 1_555 1_555
C12_13 N10_13 1_555 1_555
C13_13 N11_13 1_555 1_555
C14_13 N11_13 1_555 1_555
C15_13 N12_13 1_555 1_555
C16_13 N12_13 1_555 1_555
C25_13 O1_13 1_555 1_555
C26_13 C10_13 1_555 1_555
C27_13 C11_13 1_555 1_555
C28_13 C12_13 1_555 1_555
C29_13 C13_13 1_555 1_555
C30_13 C14_13 1_555 1_555
C31_13 C15_13 1_555 1_555
C32_13 C16_13 1_555 1_555
C41_13 C25_13 1_555 1_555
O2_13 C27_13 1_555 1_555
C42_13 C27_13 1_555 1_555
O3_13 C29_13 1_555 1_555
C43_13 C29_13 1_555 1_555
O4_13 C31_13 1_555 1_555
C44_13 C31_13 1_555 1_555
C49_13 O2_13 1_555 1_555
C50_13 O3_13 1_555 1_555
C51_13 O4_13 1_555 1_555
O9_13 C49_13 1_555 1_555
C54_13 C49_13 1_555 1_555
O10_13 C50_13 1_555 1_555
C55_13 C50_13 1_555 1_555
O11_13 C51_13 1_555 1_555
C56_13 C51_13 1_555 1_555
Fe4_8 N5_8 1_555 1_555
N17_13 Fe1_13 1_555 1_555
C59_13 N17_13 1_555 1_555
Nb2_13 C59_13 1_555 1_555
C76_13 Nb2_13 1_555 1_555
C77_13 Nb2_13 1_555 1_555
C78_13 Nb2_13 1_555 1_555
C79_13 Nb2_13 1_555 1_555
C80_13 Nb2_13 1_555 1_555
C81_13 Nb2_13 1_555 1_555
C82_13 Nb2_13 1_555 1_555
N24_13 C76_13 1_555 1_555
N25_13 C77_13 1_555 1_555
N26_13 C78_13 1_555 1_555
N27_13 C79_13 1_555 1_555
N28_13 C80_13 1_555 1_555
N29_13 C81_13 1_555 1_555
N30_13 C82_13 1_555 1_555
Fe5_6 N24_13 1_555 1_555
Fe6_9 N25_13 1_555 1_555
Fe7_3 N26_13 1_555 1_555
N31_13 Fe5_6 1_555 1_555
N32_13 Fe5_6 1_555 1_555
N33_13 Fe5_6 1_555 1_555
N34_13 Fe5_6 1_555 1_555
N35_6 Fe5_6 1_555 1_555
C91_13 N31_13 1_555 1_555
C92_13 N31_13 1_555 1_555
C93_13 N32_13 1_555 1_555
C94_13 N32_13 1_555 1_555
C95_13 N33_13 1_555 1_555
C96_13 N33_13 1_555 1_555
C97_13 N34_13 1_555 1_555
C98_13 N34_13 1_555 1_555
C99_13 C91_13 1_555 1_555
C100_13 C92_13 1_555 1_555
C101_13 C93_13 1_555 1_555
C102_13 C94_13 1_555 1_555
C103_13 C95_13 1_555 1_555
C104_13 C96_13 1_555 1_555
C105_13 C97_13 1_555 1_555
C106_13 C98_13 1_555 1_555
O20_13 C99_13 1_555 1_555
C107_13 C99_13 1_555 1_555
O21_13 C101_13 1_555 1_555
C108_13 C101_13 1_555 1_555
O22_13 C103_13 1_555 1_555
C109_13 C103_13 1_555 1_555
O23_13 C105_13 1_555 1_555
C110_13 C105_13 1_555 1_555
C111_13 O21_13 1_555 1_555
C112_13 O22_13 1_555 1_555
C113_13 O23_13 1_555 1_555
C114_13 C111_13 1_555 1_555
O25_13 C112_13 1_555 1_555
C115_13 C112_13 1_555 1_555
O26_13 C113_13 1_555 1_555
C116_13 C113_13 1_555 1_555
C26_13 C41_13 1_555 1_555
C28_13 C42_13 1_555 1_555
C30_13 C43_13 1_555 1_555
C32_13 C44_13 1_555 1_555
C100_13 C107_13 1_555 1_555
C102_13 C108_13 1_555 1_555
C104_13 C109_13 1_555 1_555
C106_13 C110_13 1_555 1_555
C56_13 H7_13 1_555 1_555
C56_13 H8_13 1_555 1_555
C56_13 H9_13 1_555 1_555
C54_13 H10_13 1_555 1_555
C54_13 H11_13 1_555 1_555
C54_13 H12_13 1_555 1_555
C55_13 H14_13 1_555 1_555
C55_13 H15_13 1_555 1_555
C55_13 H16_13 1_555 1_555
C114_13 H40_13 1_555 1_555
C114_13 H42_13 1_555 1_555
C98_13 H43_13 1_555 1_555
C104_13 H44_13 1_555 1_555
C94_13 H45_13 1_555 1_555
C95_13 H46_13 1_555 1_555
C108_13 H47_13 1_555 1_555
C107_13 H48_13 1_555 1_555
C110_13 H49_13 1_555 1_555
C91_13 H50_13 1_555 1_555
C97_13 H51_13 1_555 1_555
C93_13 H52_13 1_555 1_555
C96_13 H53_13 1_555 1_555
C100_13 H54_13 1_555 1_555
C102_13 H55_13 1_555 1_555
C106_13 H56_13 1_555 1_555
O20_13 H57_13 1_555 1_555
C109_13 H58_13 1_555 1_555
C92_13 H59_13 1_555 1_555
C115_13 H60_13 1_555 1_555
C115_13 H61_13 1_555 1_555
C115_13 H62_13 1_555 1_555
C116_13 H63_13 1_555 1_555
C116_13 H64_13 1_555 1_555
C116_13 H65_13 1_555 1_555
C12_13 H66_13 1_555 1_555
C13_13 H67_13 1_555 1_555
C15_13 H68_13 1_555 1_555
C11_13 H69_13 1_555 1_555
C14_13 H70_13 1_555 1_555
C9_13 H71_13 1_555 1_555
C16_13 H72_13 1_555 1_555
C10_13 H74_13 1_555 1_555
C42_13 H82_13 1_555 1_555
C44_13 H83_13 1_555 1_555
C32_13 H84_13 1_555 1_555
C43_13 H87_13 1_555 1_555
C30_13 H89_13 1_555 1_555
O1_13 H90_13 1_555 1_555
C28_13 H91_13 1_555 1_555
C26_13 H92_13 1_555 1_555
C41_13 H93_13 1_555 1_555
Nb1_14 C1_14 1_555 1_555
C1_14 N1_14 1_555 1_555
C2_14 Nb1_14 1_555 1_555
C3_14 Nb1_14 1_555 1_555
C4_14 Nb1_14 1_555 1_555
C5_14 Nb1_14 1_555 1_555
C6_14 Nb1_14 1_555 1_555
C7_14 Nb1_14 1_555 1_555
C8_14 Nb1_14 1_555 1_555
N1_14 Fe1_14 1_555 1_555
N20_4 C2_14 1_555 1_555
N23_3 C3_14 1_555 1_555
N4_14 C4_14 1_555 1_555
N35_6 C5_14 1_555 1_555
N6_14 C6_14 1_555 1_555
N7_14 C7_14 1_555 1_555
N8_14 C8_14 1_555 1_555
Fe1_14 N9_14 1_555 1_555
N9_14 C9_14 1_555 1_555
N10_14 Fe1_14 1_555 1_555
N11_14 Fe1_14 1_555 1_555
N12_14 Fe1_14 1_555 1_555
C9_14 C25_14 1_555 1_555
C10_14 N9_14 1_555 1_555
C11_14 N10_14 1_555 1_555
C12_14 N10_14 1_555 1_555
C13_14 N11_14 1_555 1_555
C14_14 N11_14 1_555 1_555
C15_14 N12_14 1_555 1_555
C16_14 N12_14 1_555 1_555
C25_14 O1_14 1_555 1_555
C26_14 C10_14 1_555 1_555
C27_14 C11_14 1_555 1_555
C28_14 C12_14 1_555 1_555
C29_14 C13_14 1_555 1_555
C30_14 C14_14 1_555 1_555
C31_14 C15_14 1_555 1_555
C32_14 C16_14 1_555 1_555
C41_14 C25_14 1_555 1_555
O2_14 C27_14 1_555 1_555
C42_14 C27_14 1_555 1_555
O3_14 C29_14 1_555 1_555
C43_14 C29_14 1_555 1_555
O4_14 C31_14 1_555 1_555
C44_14 C31_14 1_555 1_555
C49_14 O2_14 1_555 1_555
C50_14 O3_14 1_555 1_555
C51_14 O4_14 1_555 1_555
O9_14 C49_14 1_555 1_555
C54_14 C49_14 1_555 1_555
O10_14 C50_14 1_555 1_555
C55_14 C50_14 1_555 1_555
O11_14 C51_14 1_555 1_555
C56_14 C51_14 1_555 1_555
N17_14 Fe1_14 1_555 1_555
C59_14 N17_14 1_555 1_555
Nb2_14 C59_14 1_555 1_555
C76_14 Nb2_14 1_555 1_555
C77_14 Nb2_14 1_555 1_555
C78_14 Nb2_14 1_555 1_555
C79_14 Nb2_14 1_555 1_555
C80_14 Nb2_14 1_555 1_555
C81_14 Nb2_14 1_555 1_555
C82_14 Nb2_14 1_555 1_555
N24_14 C76_14 1_555 1_555
N25_14 C77_14 1_555 1_555
N26_14 C78_14 1_555 1_555
N27_14 C79_14 1_555 1_555
N28_14 C80_14 1_555 1_555
N29_14 C81_14 1_555 1_555
N30_14 C82_14 1_555 1_555
Fe5_7 N24_14 1_555 1_555
Fe6_10 N25_14 1_555 1_555
Fe7 N26_14 1_555 1_555
N31_14 Fe5_7 1_555 1_555
N32_14 Fe5_7 1_555 1_555
N33_14 Fe5_7 1_555 1_555
N34_14 Fe5_7 1_555 1_555
N35_7 Fe5_7 1_555 1_555
C91_14 N31_14 1_555 1_555
C92_14 N31_14 1_555 1_555
C93_14 N32_14 1_555 1_555
C94_14 N32_14 1_555 1_555
C95_14 N33_14 1_555 1_555
C96_14 N33_14 1_555 1_555
C97_14 N34_14 1_555 1_555
C98_14 N34_14 1_555 1_555
C99_14 C91_14 1_555 1_555
C100_14 C92_14 1_555 1_555
C101_14 C93_14 1_555 1_555
C102_14 C94_14 1_555 1_555
C103_14 C95_14 1_555 1_555
C104_14 C96_14 1_555 1_555
C105_14 C97_14 1_555 1_555
C106_14 C98_14 1_555 1_555
O20_14 C99_14 1_555 1_555
C107_14 C99_14 1_555 1_555
O21_14 C101_14 1_555 1_555
C108_14 C101_14 1_555 1_555
O22_14 C103_14 1_555 1_555
C109_14 C103_14 1_555 1_555
O23_14 C105_14 1_555 1_555
C110_14 C105_14 1_555 1_555
C111_14 O21_14 1_555 1_555
C112_14 O22_14 1_555 1_555
C113_14 O23_14 1_555 1_555
O24_14 C111_14 1_555 1_555
C114_14 C111_14 1_555 1_555
O25_14 C112_14 1_555 1_555
C115_14 C112_14 1_555 1_555
O26_14 C113_14 1_555 1_555
C116_14 C113_14 1_555 1_555
C26_14 C41_14 1_555 1_555
C28_14 C42_14 1_555 1_555
C30_14 C43_14 1_555 1_555
C32_14 C44_14 1_555 1_555
C100_14 C107_14 1_555 1_555
C102_14 C108_14 1_555 1_555
C104_14 C109_14 1_555 1_555
C106_14 C110_14 1_555 1_555
C56_14 H7_14 1_555 1_555
C56_14 H8_14 1_555 1_555
C56_14 H9_14 1_555 1_555
C54_14 H10_14 1_555 1_555
C54_14 H11_14 1_555 1_555
C54_14 H12_14 1_555 1_555
C55_14 H14_14 1_555 1_555
C55_14 H15_14 1_555 1_555
C55_14 H16_14 1_555 1_555
C114_14 H40_14 1_555 1_555
C114_14 H41_14 1_555 1_555
C114_14 H42_14 1_555 1_555
C98_14 H43_14 1_555 1_555
C104_14 H44_14 1_555 1_555
C94_14 H45_14 1_555 1_555
C95_14 H46_14 1_555 1_555
C108_14 H47_14 1_555 1_555
C107_14 H48_14 1_555 1_555
C110_14 H49_14 1_555 1_555
C91_14 H50_14 1_555 1_555
C97_14 H51_14 1_555 1_555
C93_14 H52_14 1_555 1_555
C96_14 H53_14 1_555 1_555
C100_14 H54_14 1_555 1_555
C102_14 H55_14 1_555 1_555
C106_14 H56_14 1_555 1_555
O20_14 H57_14 1_555 1_555
C109_14 H58_14 1_555 1_555
C92_14 H59_14 1_555 1_555
C115_14 H60_14 1_555 1_555
C115_14 H61_14 1_555 1_555
C115_14 H62_14 1_555 1_555
C116_14 H63_14 1_555 1_555
C116_14 H64_14 1_555 1_555
C116_14 H65_14 1_555 1_555
C12_14 H66_14 1_555 1_555
C13_14 H67_14 1_555 1_555
C15_14 H68_14 1_555 1_555
C11_14 H69_14 1_555 1_555
C14_14 H70_14 1_555 1_555
C9_14 H71_14 1_555 1_555
C16_14 H72_14 1_555 1_555
C10_14 H74_14 1_555 1_555
C42_14 H82_14 1_555 1_555
C44_14 H83_14 1_555 1_555
C32_14 H84_14 1_555 1_555
C43_14 H87_14 1_555 1_555
C30_14 H89_14 1_555 1_555
O1_14 H90_14 1_555 1_555
C28_14 H91_14 1_555 1_555
C26_14 H92_14 1_555 1_555
C41_14 H93_14 1_555 1_555
Nb1_15 C1_15 1_555 1_555
C1_15 N1_15 1_555 1_555
C2_15 Nb1_15 1_555 1_555
C3_15 Nb1_15 1_555 1_555
C4_15 Nb1_15 1_555 1_555
C5_15 Nb1_15 1_555 1_555
C6_15 Nb1_15 1_555 1_555
C7_15 Nb1_15 1_555 1_555
C8_15 Nb1_15 1_555 1_555
N1_15 Fe1_15 1_555 1_555
N20_5 C2_15 1_555 1_555
N23 C3_15 1_555 1_555
N4_15 C4_15 1_555 1_555
N35_7 C5_15 1_555 1_555
N6_15 C6_15 1_555 1_555
N7_15 C7_15 1_555 1_555
N8_15 C8_15 1_555 1_555
Fe1_15 N9_15 1_555 1_555
N9_15 C9_15 1_555 1_555
N10_15 Fe1_15 1_555 1_555
N11_15 Fe1_15 1_555 1_555
N12_15 Fe1_15 1_555 1_555
C9_15 C25_15 1_555 1_555
C10_15 N9_15 1_555 1_555
C11_15 N10_15 1_555 1_555
C12_15 N10_15 1_555 1_555
C13_15 N11_15 1_555 1_555
C14_15 N11_15 1_555 1_555
C15_15 N12_15 1_555 1_555
C16_15 N12_15 1_555 1_555
C25_15 O1_15 1_555 1_555
C26_15 C10_15 1_555 1_555
C27_15 C11_15 1_555 1_555
C28_15 C12_15 1_555 1_555
C29_15 C13_15 1_555 1_555
C30_15 C14_15 1_555 1_555
C31_15 C15_15 1_555 1_555
C32_15 C16_15 1_555 1_555
C41_15 C25_15 1_555 1_555
O2_15 C27_15 1_555 1_555
C42_15 C27_15 1_555 1_555
O3_15 C29_15 1_555 1_555
C43_15 C29_15 1_555 1_555
O4_15 C31_15 1_555 1_555
C44_15 C31_15 1_555 1_555
C49_15 O2_15 1_555 1_555
C50_15 O3_15 1_555 1_555
C51_15 O4_15 1_555 1_555
O9_15 C49_15 1_555 1_555
C54_15 C49_15 1_555 1_555
O10_15 C50_15 1_555 1_555
C55_15 C50_15 1_555 1_555
O11_15 C51_15 1_555 1_555
C56_15 C51_15 1_555 1_555
N17_15 Fe1_15 1_555 1_555
C59_15 N17_15 1_555 1_555
Nb2_15 C59_15 1_555 1_555
C76_15 Nb2_15 1_555 1_555
C77_15 Nb2_15 1_555 1_555
C78_15 Nb2_15 1_555 1_555
C79_15 Nb2_15 1_555 1_555
C80_15 Nb2_15 1_555 1_555
C81_15 Nb2_15 1_555 1_555
C82_15 Nb2_15 1_555 1_555
N24_15 C76_15 1_555 1_555
N25_15 C77_15 1_555 1_555
N26_15 C78_15 1_555 1_555
N27_15 C79_15 1_555 1_555
N28_15 C80_15 1_555 1_555
N29_15 C81_15 1_555 1_555
N30_15 C82_15 1_555 1_555
Fe4_8 N24_15 1_555 1_555
Fe6_11 N25_15 1_555 1_555
Fe7_2 N26_15 1_555 1_555
N31_15 Fe4_8 1_555 1_555
N32_15 Fe4_8 1_555 1_555
N33_15 Fe4_8 1_555 1_555
N34_15 Fe4_8 1_555 1_555
C91_15 N31_15 1_555 1_555
C92_15 N31_15 1_555 1_555
C93_15 N32_15 1_555 1_555
C94_15 N32_15 1_555 1_555
C95_15 N33_15 1_555 1_555
C96_15 N33_15 1_555 1_555
C97_15 N34_15 1_555 1_555
C98_15 N34_15 1_555 1_555
C99_15 C91_15 1_555 1_555
C100_15 C92_15 1_555 1_555
C101_15 C93_15 1_555 1_555
C102_15 C94_15 1_555 1_555
C103_15 C95_15 1_555 1_555
C104_15 C96_15 1_555 1_555
C105_15 C97_15 1_555 1_555
C106_15 C98_15 1_555 1_555
O20_15 C99_15 1_555 1_555
C107_15 C99_15 1_555 1_555
O21_15 C101_15 1_555 1_555
C108_15 C101_15 1_555 1_555
O22_15 C103_15 1_555 1_555
C109_15 C103_15 1_555 1_555
O23_15 C105_15 1_555 1_555
C110_15 C105_15 1_555 1_555
C111_15 O21_15 1_555 1_555
C112_15 O22_15 1_555 1_555
C113_15 O23_15 1_555 1_555
C114_15 C111_15 1_555 1_555
O25_15 C112_15 1_555 1_555
C115_15 C112_15 1_555 1_555
O26_15 C113_15 1_555 1_555
C116_15 C113_15 1_555 1_555
C26_15 C41_15 1_555 1_555
C28_15 C42_15 1_555 1_555
C30_15 C43_15 1_555 1_555
C32_15 C44_15 1_555 1_555
C100_15 C107_15 1_555 1_555
C102_15 C108_15 1_555 1_555
C104_15 C109_15 1_555 1_555
C106_15 C110_15 1_555 1_555
C56_15 H7_15 1_555 1_555
C56_15 H8_15 1_555 1_555
C56_15 H9_15 1_555 1_555
C54_15 H10_15 1_555 1_555
C54_15 H11_15 1_555 1_555
C54_15 H12_15 1_555 1_555
C55_15 H14_15 1_555 1_555
C55_15 H15_15 1_555 1_555
C55_15 H16_15 1_555 1_555
C114_15 H40_15 1_555 1_555
C114_15 H42_15 1_555 1_555
C98_15 H43_15 1_555 1_555
C104_15 H44_15 1_555 1_555
C94_15 H45_15 1_555 1_555
C95_15 H46_15 1_555 1_555
C108_15 H47_15 1_555 1_555
C107_15 H48_15 1_555 1_555
C110_15 H49_15 1_555 1_555
C91_15 H50_15 1_555 1_555
C97_15 H51_15 1_555 1_555
C93_15 H52_15 1_555 1_555
C96_15 H53_15 1_555 1_555
C100_15 H54_15 1_555 1_555
C102_15 H55_15 1_555 1_555
C106_15 H56_15 1_555 1_555
O20_15 H57_15 1_555 1_555
C109_15 H58_15 1_555 1_555
C92_15 H59_15 1_555 1_555
C115_15 H60_15 1_555 1_555
C115_15 H61_15 1_555 1_555
C115_15 H62_15 1_555 1_555
C116_15 H63_15 1_555 1_555
C116_15 H64_15 1_555 1_555
C116_15 H65_15 1_555 1_555
C12_15 H66_15 1_555 1_555
C13_15 H67_15 1_555 1_555
C15_15 H68_15 1_555 1_555
C11_15 H69_15 1_555 1_555
C14_15 H70_15 1_555 1_555
C9_15 H71_15 1_555 1_555
C16_15 H72_15 1_555 1_555
C10_15 H74_15 1_555 1_555
C42_15 H82_15 1_555 1_555
C44_15 H83_15 1_555 1_555
C32_15 H84_15 1_555 1_555
C43_15 H87_15 1_555 1_555
C30_15 H89_15 1_555 1_555
O1_15 H90_15 1_555 1_555
C28_15 H91_15 1_555 1_555
C26_15 H92_15 1_555 1_555
C41_15 H93_15 1_555 1_555
C2_16 Nb1_16 1_555 1_555
C3_16 Nb1_16 1_555 1_555
C4_16 Nb1_16 1_555 1_555
C5_16 Nb1_16 1_555 1_555
C6_16 Nb1_16 1_555 1_555
C8_16 Nb1_16 1_555 1_555
N20_3 C2_16 1_555 1_555
N23_8 C3_16 1_555 1_555
N4_16 C4_16 1_555 1_555
N5_9 C5_16 1_555 1_555
N6_16 C6_16 1_555 1_555
C56_16 H7_16 1_555 1_555
C56_16 H8_16 1_555 1_555
C56_16 H9_16 1_555 1_555
C1_16 N1_16 1_555 1_555
N1_16 Fe1_16 1_555 1_555
N7_16 C7_16 1_555 1_555
N11_16 Fe1_16 1_555 1_555
N12_16 Fe1_16 1_555 1_555
C13_16 N11_16 1_555 1_555
C14_16 N11_16 1_555 1_555
C15_16 N12_16 1_555 1_555
C16_16 N12_16 1_555 1_555
C29_16 C13_16 1_555 1_555
C30_16 C14_16 1_555 1_555
C31_16 C15_16 1_555 1_555
C32_16 C16_16 1_555 1_555
O3_16 C29_16 1_555 1_555
C43_16 C29_16 1_555 1_555
O4_16 C31_16 1_555 1_555
C44_16 C31_16 1_555 1_555
C49_16 O2_16 1_555 1_555
C50_16 O3_16 1_555 1_555
C51_16 O4_16 1_555 1_555
O9_16 C49_16 1_555 1_555
C54_16 C49_16 1_555 1_555
O10_16 C50_16 1_555 1_555
C55_16 C50_16 1_555 1_555
C30_16 C43_16 1_555 1_555
C32_16 C44_16 1_555 1_555
C54_16 H10_16 1_555 1_555
C54_16 H11_16 1_555 1_555
C54_16 H12_16 1_555 1_555
C55_16 H14_16 1_555 1_555
C55_16 H15_16 1_555 1_555
C55_16 H16_16 1_555 1_555
C13_16 H67_16 1_555 1_555
C15_16 H68_16 1_555 1_555
C11_16 H69_16 1_555 1_555
C14_16 H70_16 1_555 1_555
C43_16 H87_16 1_555 1_555
C30_16 H89_16 1_555 1_555
N9_16 C9_16 1_555 1_555
C9_16 C25_16 1_555 1_555
C10_16 N9_16 1_555 1_555
C12_16 N10_16 1_555 1_555
C25_16 O1_16 1_555 1_555
C26_16 C10_16 1_555 1_555
C28_16 C12_16 1_555 1_555
C41_16 C25_16 1_555 1_555
C42_16 C27_16 1_555 1_555
C59_16 N17_16 1_555 1_555
Nb2_16 C59_16 1_555 1_555
C77_16 Nb2_16 1_555 1_555
C78_16 Nb2_16 1_555 1_555
C79_16 Nb2_16 1_555 1_555
C80_16 Nb2_16 1_555 1_555
C82_16 Nb2_16 1_555 1_555
N25_16 C77_16 1_555 1_555
N26_16 C78_16 1_555 1_555
N27_16 C79_16 1_555 1_555
N28_16 C80_16 1_555 1_555
Fe6_6 N25_16 1_555 1_555
Fe7_10 N26_16 1_555 1_555
C26_16 C41_16 1_555 1_555
C28_16 C42_16 1_555 1_555
C116_16 H63_16 1_555 1_555
C116_16 H64_16 1_555 1_555
C116_16 H65_16 1_555 1_555
C12_16 H66_16 1_555 1_555
C9_16 H71_16 1_555 1_555
C10_16 H74_16 1_555 1_555
C42_16 H82_16 1_555 1_555
O1_16 H90_16 1_555 1_555
C28_16 H91_16 1_555 1_555
C41_16 H93_16 1_555 1_555
C91_16 N31_16 1_555 1_555
C92_16 N31_16 1_555 1_555
C94_16 N32_16 1_555 1_555
C99_16 C91_16 1_555 1_555
C100_16 C92_16 1_555 1_555
C102_16 C94_16 1_555 1_555
O20_16 C99_16 1_555 1_555
C107_16 C99_16 1_555 1_555
C108_16 C101_16 1_555 1_555
C100_16 C107_16 1_555 1_555
C102_16 C108_16 1_555 1_555
C94_16 H45_16 1_555 1_555
C108_16 H47_16 1_555 1_555
C107_16 H48_16 1_555 1_555
C91_16 H50_16 1_555 1_555
C102_16 H55_16 1_555 1_555
O20_16 H57_16 1_555 1_555
C92_16 H59_16 1_555 1_555
N24_16 C76_16 1_555 1_555
N29_16 C81_16 1_555 1_555
Fe5_8 N24_16 1_555 1_555
N33_16 Fe5_8 1_555 1_555
N34_16 Fe5_8 1_555 1_555
C95_16 N33_16 1_555 1_555
C96_16 N33_16 1_555 1_555
C97_16 N34_16 1_555 1_555
C98_16 N34_16 1_555 1_555
C103_16 C95_16 1_555 1_555
C104_16 C96_16 1_555 1_555
C105_16 C97_16 1_555 1_555
C106_16 C98_16 1_555 1_555
O22_16 C103_16 1_555 1_555
C109_16 C103_16 1_555 1_555
O23_16 C105_16 1_555 1_555
C110_16 C105_16 1_555 1_555
C111_16 O21_16 1_555 1_555
C112_16 O22_16 1_555 1_555
C113_16 O23_16 1_555 1_555
O24_16 C111_16 1_555 1_555
C114_16 C111_16 1_555 1_555
O25_16 C112_16 1_555 1_555
C115_16 C112_16 1_555 1_555
C104_16 C109_16 1_555 1_555
C106_16 C110_16 1_555 1_555
C114_16 H40_16 1_555 1_555
C114_16 H41_16 1_555 1_555
C114_16 H42_16 1_555 1_555
C104_16 H44_16 1_555 1_555
C95_16 H46_16 1_555 1_555
C110_16 H49_16 1_555 1_555
C97_16 H51_16 1_555 1_555
C93_16 H52_16 1_555 1_555
C96_16 H53_16 1_555 1_555
C106_16 H56_16 1_555 1_555
C109_16 H58_16 1_555 1_555
C115_16 H60_16 1_555 1_555
C115_16 H61_16 1_555 1_555
C115_16 H62_16 1_555 1_555
C91_17 N31_17 1_555 1_555
C92_17 N31_17 1_555 1_555
C94_17 N32_17 1_555 1_555
C99_17 C91_17 1_555 1_555
C100_17 C92_17 1_555 1_555
C102_17 C94_17 1_555 1_555
O20_17 C99_17 1_555 1_555
C107_17 C99_17 1_555 1_555
C108_17 C101_17 1_555 1_555
C100_17 C107_17 1_555 1_555
C102_17 C108_17 1_555 1_555
C94_17 H45_17 1_555 1_555
C108_17 H47_17 1_555 1_555
C107_17 H48_17 1_555 1_555
C91_17 H50_17 1_555 1_555
C102_17 H55_17 1_555 1_555
O20_17 H57_17 1_555 1_555
C92_17 H59_17 1_555 1_555
N24_17 C76_17 1_555 1_555
N29_17 C81_17 1_555 1_555
Fe5_9 N24_17 1_555 1_555
N33_17 Fe5_9 1_555 1_555
N34_17 Fe5_9 1_555 1_555
C95_17 N33_17 1_555 1_555
C96_17 N33_17 1_555 1_555
C97_17 N34_17 1_555 1_555
C98_17 N34_17 1_555 1_555
C103_17 C95_17 1_555 1_555
C104_17 C96_17 1_555 1_555
C105_17 C97_17 1_555 1_555
C106_17 C98_17 1_555 1_555
O22_17 C103_17 1_555 1_555
C109_17 C103_17 1_555 1_555
O23_17 C105_17 1_555 1_555
C110_17 C105_17 1_555 1_555
C111_17 O21_17 1_555 1_555
C112_17 O22_17 1_555 1_555
C113_17 O23_17 1_555 1_555
O24_17 C111_17 1_555 1_555
C114_17 C111_17 1_555 1_555
O25_17 C112_17 1_555 1_555
C115_17 C112_17 1_555 1_555
C104_17 C109_17 1_555 1_555
C106_17 C110_17 1_555 1_555
C114_17 H40_17 1_555 1_555
C114_17 H41_17 1_555 1_555
C114_17 H42_17 1_555 1_555
C104_17 H44_17 1_555 1_555
C95_17 H46_17 1_555 1_555
C97_17 H51_17 1_555 1_555
C93_17 H52_17 1_555 1_555
C96_17 H53_17 1_555 1_555
C109_17 H58_17 1_555 1_555
C115_17 H60_17 1_555 1_555
C115_17 H61_17 1_555 1_555
C115_17 H62_17 1_555 1_555
Nb1_17 C1_17 1_555 1_555
C1_17 N1_17 1_555 1_555
C2_17 Nb1_17 1_555 1_555
C3_17 Nb1_17 1_555 1_555
C4_17 Nb1_17 1_555 1_555
C5_17 Nb1_17 1_555 1_555
C6_17 Nb1_17 1_555 1_555
C7_17 Nb1_17 1_555 1_555
C8_17 Nb1_17 1_555 1_555
N1_17 Fe1_17 1_555 1_555
N20 C2_17 1_555 1_555
N23_9 C3_17 1_555 1_555
N4_17 C4_17 1_555 1_555
N35_8 C5_17 1_555 1_555
N6_17 C6_17 1_555 1_555
N7_17 C7_17 1_555 1_555
N11_17 Fe1_17 1_555 1_555
N12_17 Fe1_17 1_555 1_555
C13_17 N11_17 1_555 1_555
C14_17 N11_17 1_555 1_555
C15_17 N12_17 1_555 1_555
C16_17 N12_17 1_555 1_555
C29_17 C13_17 1_555 1_555
C30_17 C14_17 1_555 1_555
C31_17 C15_17 1_555 1_555
C32_17 C16_17 1_555 1_555
O3_17 C29_17 1_555 1_555
C43_17 C29_17 1_555 1_555
O4_17 C31_17 1_555 1_555
C44_17 C31_17 1_555 1_555
C49_17 O2_17 1_555 1_555
C50_17 O3_17 1_555 1_555
C51_17 O4_17 1_555 1_555
O9_17 C49_17 1_555 1_555
C54_17 C49_17 1_555 1_555
O10_17 C50_17 1_555 1_555
C55_17 C50_17 1_555 1_555
O11_17 C51_17 1_555 1_555
C56_17 C51_17 1_555 1_555
C30_17 C43_17 1_555 1_555
C32_17 C44_17 1_555 1_555
C56_17 H7_17 1_555 1_555
C56_17 H8_17 1_555 1_555
C56_17 H9_17 1_555 1_555
C54_17 H10_17 1_555 1_555
C54_17 H11_17 1_555 1_555
C54_17 H12_17 1_555 1_555
C55_17 H14_17 1_555 1_555
C55_17 H15_17 1_555 1_555
C55_17 H16_17 1_555 1_555
C13_17 H67_17 1_555 1_555
C15_17 H68_17 1_555 1_555
C11_17 H69_17 1_555 1_555
C14_17 H70_17 1_555 1_555
C43_17 H87_17 1_555 1_555
C30_17 H89_17 1_555 1_555
N9_17 C9_17 1_555 1_555
C9_17 C25_17 1_555 1_555
C10_17 N9_17 1_555 1_555
C12_17 N10_17 1_555 1_555
C25_17 O1_17 1_555 1_555
C26_17 C10_17 1_555 1_555
C28_17 C12_17 1_555 1_555
C41_17 C25_17 1_555 1_555
C42_17 C27_17 1_555 1_555
C59_17 N17_17 1_555 1_555
Nb2_17 C59_17 1_555 1_555
C77_17 Nb2_17 1_555 1_555
C78_17 Nb2_17 1_555 1_555
C79_17 Nb2_17 1_555 1_555
C80_17 Nb2_17 1_555 1_555
C82_17 Nb2_17 1_555 1_555
N25_17 C77_17 1_555 1_555
N26_17 C78_17 1_555 1_555
N27_17 C79_17 1_555 1_555
N28_17 C80_17 1_555 1_555
Fe6_7 N25_17 1_555 1_555
Fe7_8 N26_17 1_555 1_555
C26_17 C41_17 1_555 1_555
C28_17 C42_17 1_555 1_555
C116_17 H63_17 1_555 1_555
C116_17 H64_17 1_555 1_555
C116_17 H65_17 1_555 1_555
C12_17 H66_17 1_555 1_555
C9_17 H71_17 1_555 1_555
C10_17 H74_17 1_555 1_555
C42_17 H82_17 1_555 1_555
O1_17 H90_17 1_555 1_555
C28_17 H91_17 1_555 1_555
C26_17 H92_17 1_555 1_555
C41_17 H93_17 1_555 1_555
C1_18 N1_18 1_555 1_555
N1_18 Fe1_18 1_555 1_555
N7_18 C7_18 1_555 1_555
N11_18 Fe1_18 1_555 1_555
N12_18 Fe1_18 1_555 1_555
C13_18 N11_18 1_555 1_555
C14_18 N11_18 1_555 1_555
C15_18 N12_18 1_555 1_555
C16_18 N12_18 1_555 1_555
C29_18 C13_18 1_555 1_555
C30_18 C14_18 1_555 1_555
C31_18 C15_18 1_555 1_555
C32_18 C16_18 1_555 1_555
O3_18 C29_18 1_555 1_555
C43_18 C29_18 1_555 1_555
O4_18 C31_18 1_555 1_555
C44_18 C31_18 1_555 1_555
C49_18 O2_18 1_555 1_555
C50_18 O3_18 1_555 1_555
C51_18 O4_18 1_555 1_555
O9_18 C49_18 1_555 1_555
C54_18 C49_18 1_555 1_555
O10_18 C50_18 1_555 1_555
C55_18 C50_18 1_555 1_555
C91_18 N31_18 1_555 1_555
C92_18 N31_18 1_555 1_555
C94_18 N32_18 1_555 1_555
C99_18 C91_18 1_555 1_555
C100_18 C92_18 1_555 1_555
C102_18 C94_18 1_555 1_555
O20_18 C99_18 1_555 1_555
C107_18 C99_18 1_555 1_555
C108_18 C101_18 1_555 1_555
C30_18 C43_18 1_555 1_555
C32_18 C44_18 1_555 1_555
C100_18 C107_18 1_555 1_555
C102_18 C108_18 1_555 1_555
C54_18 H10_18 1_555 1_555
C54_18 H11_18 1_555 1_555
C54_18 H12_18 1_555 1_555
C55_18 H14_18 1_555 1_555
C55_18 H15_18 1_555 1_555
C55_18 H16_18 1_555 1_555
C94_18 H45_18 1_555 1_555
C108_18 H47_18 1_555 1_555
C107_18 H48_18 1_555 1_555
C91_18 H50_18 1_555 1_555
C100_18 H54_18 1_555 1_555
C102_18 H55_18 1_555 1_555
O20_18 H57_18 1_555 1_555
C92_18 H59_18 1_555 1_555
C13_18 H67_18 1_555 1_555
C15_18 H68_18 1_555 1_555
C11_18 H69_18 1_555 1_555
C14_18 H70_18 1_555 1_555
C44_18 H83_18 1_555 1_555
C32_18 H84_18 1_555 1_555
C43_18 H87_18 1_555 1_555
C30_18 H89_18 1_555 1_555
N9_18 C9_18 1_555 1_555
C9_18 C25_18 1_555 1_555
C10_18 N9_18 1_555 1_555
C12_18 N10_18 1_555 1_555
C25_18 O1_18 1_555 1_555
C26_18 C10_18 1_555 1_555
C28_18 C12_18 1_555 1_555
C41_18 C25_18 1_555 1_555
C42_18 C27_18 1_555 1_555
C59_18 N17_18 1_555 1_555
Nb2_18 C59_18 1_555 1_555
C76_18 Nb2_18 1_555 1_555
C77_18 Nb2_18 1_555 1_555
C78_18 Nb2_18 1_555 1_555
C79_18 Nb2_18 1_555 1_555
C80_18 Nb2_18 1_555 1_555
C81_18 Nb2_18 1_555 1_555
C82_18 Nb2_18 1_555 1_555
N24_18 C76_18 1_555 1_555
N25_18 C77_18 1_555 1_555
N26_18 C78_18 1_555 1_555
N27_18 C79_18 1_555 1_555
N28_18 C80_18 1_555 1_555
N29_18 C81_18 1_555 1_555
Fe4_9 N24_18 1_555 1_555
Fe6_8 N25_18 1_555 1_555
Fe7_9 N26_18 1_555 1_555
N33_18 Fe4_9 1_555 1_555
N34_18 Fe4_9 1_555 1_555
C95_18 N33_18 1_555 1_555
C96_18 N33_18 1_555 1_555
C97_18 N34_18 1_555 1_555
C98_18 N34_18 1_555 1_555
C103_18 C95_18 1_555 1_555
C104_18 C96_18 1_555 1_555
C105_18 C97_18 1_555 1_555
C106_18 C98_18 1_555 1_555
O22_18 C103_18 1_555 1_555
C109_18 C103_18 1_555 1_555
O23_18 C105_18 1_555 1_555
C110_18 C105_18 1_555 1_555
C111_18 O21_18 1_555 1_555
C112_18 O22_18 1_555 1_555
C113_18 O23_18 1_555 1_555
O24_18 C111_18 1_555 1_555
C114_18 C111_18 1_555 1_555
O25_18 C112_18 1_555 1_555
C115_18 C112_18 1_555 1_555
O26_18 C113_18 1_555 1_555
C116_18 C113_18 1_555 1_555
C26_18 C41_18 1_555 1_555
C28_18 C42_18 1_555 1_555
C104_18 C109_18 1_555 1_555
C106_18 C110_18 1_555 1_555
C114_18 H40_18 1_555 1_555
C114_18 H41_18 1_555 1_555
C114_18 H42_18 1_555 1_555
C104_18 H44_18 1_555 1_555
C95_18 H46_18 1_555 1_555
C97_18 H51_18 1_555 1_555
C93_18 H52_18 1_555 1_555
C96_18 H53_18 1_555 1_555
C109_18 H58_18 1_555 1_555
C115_18 H60_18 1_555 1_555
C115_18 H61_18 1_555 1_555
C115_18 H62_18 1_555 1_555
C116_18 H63_18 1_555 1_555
C116_18 H64_18 1_555 1_555
C116_18 H65_18 1_555 1_555
C12_18 H66_18 1_555 1_555
C9_18 H71_18 1_555 1_555
C10_18 H74_18 1_555 1_555
C42_18 H82_18 1_555 1_555
O1_18 H90_18 1_555 1_555
C28_18 H91_18 1_555 1_555
C41_18 H93_18 1_555 1_555
C2_18 Nb1_18 1_555 1_555
C3_18 Nb1_18 1_555 1_555
C4_18 Nb1_18 1_555 1_555
C5_18 Nb1_18 1_555 1_555
C6_18 Nb1_18 1_555 1_555
C8_18 Nb1_18 1_555 1_555
N20_2 C2_18 1_555 1_555
N23_7 C3_18 1_555 1_555
N4_18 C4_18 1_555 1_555
N35_9 C5_18 1_555 1_555
N6_18 C6_18 1_555 1_555
C56_18 H7_18 1_555 1_555
C56_18 H8_18 1_555 1_555
C56_18 H9_18 1_555 1_555
N15_10 Fe7_6 1_555 1_555
N16_10 Fe7_6 1_555 1_555
C21_10 N15_10 1_555 1_555
C22_10 N15_10 1_555 1_555
C23_10 N16_10 1_555 1_555
C24_10 N16_10 1_555 1_555
C37_10 C21_10 1_555 1_555
C38_10 C22_10 1_555 1_555
C39_10 C23_10 1_555 1_555
C40_10 C24_10 1_555 1_555
O5_10 C33_10 1_555 1_555
C45_10 C33_10 1_555 1_555
O6_10 C35_10 1_555 1_555
C46_10 C35_10 1_555 1_555
O7_10 C37_10 1_555 1_555
C47_10 C37_10 1_555 1_555
O8_10 C39_10 1_555 1_555
C48_10 C39_10 1_555 1_555
C53_10 O8_10 1_555 1_555
O13_10 C53_10 1_555 1_555
C58_10 C53_10 1_555 1_555
N21_10 Fe7_6 1_555 1_555
N22_10 Fe7_6 1_555 1_555
C64_10 N21_10 1_555 1_555
C65_10 N21_10 1_555 1_555
C66_10 N22_10 1_555 1_555
C67_10 N22_10 1_555 1_555
C72_10 C64_10 1_555 1_555
C73_10 C65_10 1_555 1_555
C74_10 C66_10 1_555 1_555
C75_10 C67_10 1_555 1_555
O16_10 C72_10 1_555 1_555
C85_10 C72_10 1_555 1_555
O17_10 C74_10 1_555 1_555
C86_10 C74_10 1_555 1_555
C87_10 O16_10 1_555 1_555
C88_10 O17_10 1_555 1_555
O18_10 C87_10 1_555 1_555
C89_10 C87_10 1_555 1_555
O19_10 C88_10 1_555 1_555
C90_10 C88_10 1_555 1_555
C34_10 C45_10 1_555 1_555
C36_10 C46_10 1_555 1_555
C38_10 C47_10 1_555 1_555
C40_10 C48_10 1_555 1_555
C73_10 C85_10 1_555 1_555
C75_10 C86_10 1_555 1_555
C67_10 H1_10 1_555 1_555
C58_10 H2_10 1_555 1_555
C58_10 H3_10 1_555 1_555
C58_10 H4_10 1_555 1_555
C64_10 H6_10 1_555 1_555
C65_10 H13_10 1_555 1_555
C66_10 H23_10 1_555 1_555
C86_10 H24_10 1_555 1_555
C73_10 H29_10 1_555 1_555
C75_10 H30_10 1_555 1_555
C85_10 H31_10 1_555 1_555
C90_10 H35_10 1_555 1_555
C90_10 H36_10 1_555 1_555
C89_10 H37_10 1_555 1_555
C89_10 H38_10 1_555 1_555
C89_10 H39_10 1_555 1_555
C24_10 H76_10 1_555 1_555
C36_10 H77_10 1_555 1_555
C40_10 H79_10 1_555 1_555
C22_10 H80_10 1_555 1_555
C38_10 H81_10 1_555 1_555
C21_10 H86_10 1_555 1_555
C34_10 H94_10 1_555 1_555
C23_10 H95_10 1_555 1_555
C45_10 H96_10 1_555 1_555
C47_10 H97_10 1_555 1_555
C48_10 H98_10 1_555 1_555
O6_10 H99_10 1_555 1_555
C46_10 H100_10 1_555 1_555
N13_10 Fe6_8 1_555 1_555
N14_10 Fe6_8 1_555 1_555
C17_10 N13_10 1_555 1_555
C18_10 N13_10 1_555 1_555
C19_10 N14_10 1_555 1_555
C20_10 N14_10 1_555 1_555
O12_10 C52_10 1_555 1_555
C57_10 C52_10 1_555 1_555
N18_10 Fe6_8 1_555 1_555
N19_10 Fe6_8 1_555 1_555
C60_10 N18_10 1_555 1_555
C61_10 N18_10 1_555 1_555
C62_10 N19_10 1_555 1_555
C63_10 N19_10 1_555 1_555
C68_10 C60_10 1_555 1_555
C69_10 C61_10 1_555 1_555
C70_10 C62_10 1_555 1_555
C71_10 C63_10 1_555 1_555
O14_10 C68_10 1_555 1_555
C83_10 C68_10 1_555 1_555
O15_10 C70_10 1_555 1_555
C84_10 C70_10 1_555 1_555
C69_10 C83_10 1_555 1_555
C71_10 C84_10 1_555 1_555
C60_10 H5_10 1_555 1_555
C57_10 H17_10 1_555 1_555
C57_10 H18_10 1_555 1_555
C57_10 H19_10 1_555 1_555
C61_10 H20_10 1_555 1_555
C62_10 H21_10 1_555 1_555
C63_10 H22_10 1_555 1_555
C71_10 H25_10 1_555 1_555
C69_10 H26_10 1_555 1_555
O14_10 H27_10 1_555 1_555
C84_10 H28_10 1_555 1_555
C83_10 H32_10 1_555 1_555
O15_10 H33_10 1_555 1_555
O1_5 H57_19 1_555 1_555
C17_10 H73_10 1_555 1_555
C18_10 H75_10 1_555 1_555
C19_10 H78_10 1_555 1_555
C20_10 H85_10 1_555 1_555
O20_6 H90_19 1_555 1_555
N15_11 Fe7_4 1_555 1_555
N16_11 Fe7_4 1_555 1_555
C21_11 N15_11 1_555 1_555
C22_11 N15_11 1_555 1_555
C23_11 N16_11 1_555 1_555
C24_11 N16_11 1_555 1_555
C37_11 C21_11 1_555 1_555
C38_11 C22_11 1_555 1_555
C39_11 C23_11 1_555 1_555
C40_11 C24_11 1_555 1_555
O5_11 C33_11 1_555 1_555
C45_11 C33_11 1_555 1_555
O7_11 C37_11 1_555 1_555
C47_11 C37_11 1_555 1_555
O8_11 C39_11 1_555 1_555
C48_11 C39_11 1_555 1_555
C53_11 O8_11 1_555 1_555
O13_11 C53_11 1_555 1_555
C58_11 C53_11 1_555 1_555
N21_11 Fe7_4 1_555 1_555
N22_11 Fe7_4 1_555 1_555
C64_11 N21_11 1_555 1_555
C65_11 N21_11 1_555 1_555
C66_11 N22_11 1_555 1_555
C67_11 N22_11 1_555 1_555
C72_11 C64_11 1_555 1_555
C73_11 C65_11 1_555 1_555
C74_11 C66_11 1_555 1_555
C75_11 C67_11 1_555 1_555
O16_11 C72_11 1_555 1_555
C85_11 C72_11 1_555 1_555
O17_11 C74_11 1_555 1_555
C86_11 C74_11 1_555 1_555
C87_11 O16_11 1_555 1_555
C88_11 O17_11 1_555 1_555
O18_11 C87_11 1_555 1_555
C89_11 C87_11 1_555 1_555
O19_11 C88_11 1_555 1_555
C90_11 C88_11 1_555 1_555
C34_11 C45_11 1_555 1_555
C38_11 C47_11 1_555 1_555
C40_11 C48_11 1_555 1_555
C73_11 C85_11 1_555 1_555
C75_11 C86_11 1_555 1_555
C67_11 H1_11 1_555 1_555
C58_11 H2_11 1_555 1_555
C58_11 H3_11 1_555 1_555
C58_11 H4_11 1_555 1_555
C64_11 H6_11 1_555 1_555
C65_11 H13_11 1_555 1_555
C66_11 H23_11 1_555 1_555
C86_11 H24_11 1_555 1_555
C73_11 H29_11 1_555 1_555
C75_11 H30_11 1_555 1_555
C85_11 H31_11 1_555 1_555
C90_11 H35_11 1_555 1_555
C90_11 H36_11 1_555 1_555
C89_11 H37_11 1_555 1_555
C89_11 H38_11 1_555 1_555
C89_11 H39_11 1_555 1_555
C24_11 H76_11 1_555 1_555
C36_11 H77_11 1_555 1_555
C40_11 H79_11 1_555 1_555
C22_11 H80_11 1_555 1_555
C38_11 H81_11 1_555 1_555
C21_11 H86_11 1_555 1_555
C34_11 H94_11 1_555 1_555
C23_11 H95_11 1_555 1_555
C45_11 H96_11 1_555 1_555
C48_11 H98_11 1_555 1_555
N13_11 Fe6_6 1_555 1_555
N14_11 Fe6_6 1_555 1_555
C17_11 N13_11 1_555 1_555
C18_11 N13_11 1_555 1_555
C19_11 N14_11 1_555 1_555
C20_11 N14_11 1_555 1_555
O12_11 C52_11 1_555 1_555
N18_11 Fe6_6 1_555 1_555
N19_11 Fe6_6 1_555 1_555
C60_11 N18_11 1_555 1_555
C61_11 N18_11 1_555 1_555
C62_11 N19_11 1_555 1_555
C63_11 N19_11 1_555 1_555
C68_11 C60_11 1_555 1_555
C69_11 C61_11 1_555 1_555
C70_11 C62_11 1_555 1_555
O14_11 C68_11 1_555 1_555
C83_11 C68_11 1_555 1_555
O15_11 C70_11 1_555 1_555
C69_11 C83_11 1_555 1_555
C60_11 H5_11 1_555 1_555
C61_11 H20_11 1_555 1_555
C62_11 H21_11 1_555 1_555
C63_11 H22_11 1_555 1_555
C69_11 H26_11 1_555 1_555
O14_11 H27_11 1_555 1_555
C83_11 H32_11 1_555 1_555
O15_11 H33_11 1_555 1_555
O1_6 H57_20 1_555 1_555
C17_11 H73_11 1_555 1_555
C18_11 H75_11 1_555 1_555
C19_11 H78_11 1_555 1_555
C20_11 H85_11 1_555 1_555
O20_4 H90_20 1_555 1_555
O6_11 C35_11 1_555 1_555
C46_11 C35_11 1_555 1_555
O6_11 H99_11 1_555 1_555
C46_11 H100_11 1_555 1_555
C71_11 C84_11 1_555 1_555
C57_11 H17_11 1_555 1_555
C57_11 H18_11 1_555 1_555
C71_11 H25_11 1_555 1_555
C84_11 H28_11 1_555 1_555
O6_12 C35_12 1_555 1_555
C46_12 C35_12 1_555 1_555
O6_12 H99_12 1_555 1_555
C46_12 H100_12 1_555 1_555
C71_12 C84_12 1_555 1_555
C57_12 H17_12 1_555 1_555
C57_12 H18_12 1_555 1_555
C71_12 H25_12 1_555 1_555
C84_12 H28_12 1_555 1_555
N15_12 Fe7_5 1_555 1_555
N16_12 Fe7_5 1_555 1_555
C21_12 N15_12 1_555 1_555
C22_12 N15_12 1_555 1_555
C23_12 N16_12 1_555 1_555
C24_12 N16_12 1_555 1_555
C37_12 C21_12 1_555 1_555
C38_12 C22_12 1_555 1_555
C39_12 C23_12 1_555 1_555
C40_12 C24_12 1_555 1_555
O5_12 C33_12 1_555 1_555
C45_12 C33_12 1_555 1_555
O7_12 C37_12 1_555 1_555
C47_12 C37_12 1_555 1_555
O8_12 C39_12 1_555 1_555
C48_12 C39_12 1_555 1_555
C53_12 O8_12 1_555 1_555
O13_12 C53_12 1_555 1_555
C58_12 C53_12 1_555 1_555
N21_12 Fe7_5 1_555 1_555
N22_12 Fe7_5 1_555 1_555
C64_12 N21_12 1_555 1_555
C65_12 N21_12 1_555 1_555
C66_12 N22_12 1_555 1_555
C67_12 N22_12 1_555 1_555
C72_12 C64_12 1_555 1_555
C73_12 C65_12 1_555 1_555
C74_12 C66_12 1_555 1_555
C75_12 C67_12 1_555 1_555
O16_12 C72_12 1_555 1_555
C85_12 C72_12 1_555 1_555
O17_12 C74_12 1_555 1_555
C86_12 C74_12 1_555 1_555
C87_12 O16_12 1_555 1_555
C88_12 O17_12 1_555 1_555
O18_12 C87_12 1_555 1_555
C89_12 C87_12 1_555 1_555
O19_12 C88_12 1_555 1_555
C90_12 C88_12 1_555 1_555
C34_12 C45_12 1_555 1_555
C38_12 C47_12 1_555 1_555
C40_12 C48_12 1_555 1_555
C73_12 C85_12 1_555 1_555
C75_12 C86_12 1_555 1_555
C67_12 H1_12 1_555 1_555
C58_12 H2_12 1_555 1_555
C58_12 H3_12 1_555 1_555
C58_12 H4_12 1_555 1_555
C64_12 H6_12 1_555 1_555
C65_12 H13_12 1_555 1_555
C66_12 H23_12 1_555 1_555
C86_12 H24_12 1_555 1_555
C73_12 H29_12 1_555 1_555
C75_12 H30_12 1_555 1_555
C85_12 H31_12 1_555 1_555
C90_12 H35_12 1_555 1_555
C90_12 H36_12 1_555 1_555
C89_12 H37_12 1_555 1_555
C89_12 H38_12 1_555 1_555
C89_12 H39_12 1_555 1_555
C24_12 H76_12 1_555 1_555
C36_12 H77_12 1_555 1_555
C40_12 H79_12 1_555 1_555
C22_12 H80_12 1_555 1_555
C38_12 H81_12 1_555 1_555
C21_12 H86_12 1_555 1_555
C34_12 H94_12 1_555 1_555
C23_12 H95_12 1_555 1_555
C45_12 H96_12 1_555 1_555
C48_12 H98_12 1_555 1_555
N13_12 Fe6_7 1_555 1_555
N14_12 Fe6_7 1_555 1_555
C17_12 N13_12 1_555 1_555
C18_12 N13_12 1_555 1_555
C19_12 N14_12 1_555 1_555
C20_12 N14_12 1_555 1_555
O12_12 C52_12 1_555 1_555
N18_12 Fe6_7 1_555 1_555
N19_12 Fe6_7 1_555 1_555
C60_12 N18_12 1_555 1_555
C61_12 N18_12 1_555 1_555
C62_12 N19_12 1_555 1_555
C63_12 N19_12 1_555 1_555
C68_12 C60_12 1_555 1_555
C69_12 C61_12 1_555 1_555
C70_12 C62_12 1_555 1_555
O14_12 C68_12 1_555 1_555
C83_12 C68_12 1_555 1_555
O15_12 C70_12 1_555 1_555
C69_12 C83_12 1_555 1_555
C60_12 H5_12 1_555 1_555
C61_12 H20_12 1_555 1_555
C62_12 H21_12 1_555 1_555
C63_12 H22_12 1_555 1_555
C69_12 H26_12 1_555 1_555
O14_12 H27_12 1_555 1_555
C83_12 H32_12 1_555 1_555
O15_12 H33_12 1_555 1_555
O1_4 H57_21 1_555 1_555
C17_12 H73_12 1_555 1_555
C18_12 H75_12 1_555 1_555
C19_12 H78_12 1_555 1_555
C20_12 H85_12 1_555 1_555
O20_5 H90_21 1_555 1_555
N15_13 Fe7_3 1_555 1_555
N16_13 Fe7_3 1_555 1_555
C21_13 N15_13 1_555 1_555
C22_13 N15_13 1_555 1_555
C23_13 N16_13 1_555 1_555
C24_13 N16_13 1_555 1_555
C33_13 C17_13 1_555 1_555
C36_13 C20_13 1_555 1_555
C37_13 C21_13 1_555 1_555
C38_13 C22_13 1_555 1_555
C39_13 C23_13 1_555 1_555
C40_13 C24_13 1_555 1_555
O5_13 C33_13 1_555 1_555
O7_13 C37_13 1_555 1_555
C47_13 C37_13 1_555 1_555
O8_13 C39_13 1_555 1_555
C48_13 C39_13 1_555 1_555
C52_13 O7_13 1_555 1_555
C53_13 O8_13 1_555 1_555
O12_13 C52_13 1_555 1_555
C57_13 C52_13 1_555 1_555
O13_13 C53_13 1_555 1_555
C58_13 C53_13 1_555 1_555
N18_13 Fe6_4 1_555 1_555
N19_13 Fe6_4 1_555 1_555
N21_13 Fe7_3 1_555 1_555
N22_13 Fe7_3 1_555 1_555
C61_13 N18_13 1_555 1_555
C62_13 N19_13 1_555 1_555
C64_13 N21_13 1_555 1_555
C65_13 N21_13 1_555 1_555
C66_13 N22_13 1_555 1_555
C67_13 N22_13 1_555 1_555
C69_13 C61_13 1_555 1_555
C70_13 C62_13 1_555 1_555
C72_13 C64_13 1_555 1_555
C73_13 C65_13 1_555 1_555
C74_13 C66_13 1_555 1_555
C75_13 C67_13 1_555 1_555
O15_13 C70_13 1_555 1_555
C84_13 C70_13 1_555 1_555
O16_13 C72_13 1_555 1_555
C85_13 C72_13 1_555 1_555
O17_13 C74_13 1_555 1_555
C86_13 C74_13 1_555 1_555
C87_13 O16_13 1_555 1_555
C88_13 O17_13 1_555 1_555
O18_13 C87_13 1_555 1_555
O19_13 C88_13 1_555 1_555
C90_13 C88_13 1_555 1_555
C38_13 C47_13 1_555 1_555
C40_13 C48_13 1_555 1_555
C69_13 C83_13 1_555 1_555
C73_13 C85_13 1_555 1_555
C75_13 C86_13 1_555 1_555
C67_13 H1_13 1_555 1_555
C58_13 H2_13 1_555 1_555
C58_13 H3_13 1_555 1_555
C58_13 H4_13 1_555 1_555
C64_13 H6_13 1_555 1_555
C65_13 H13_13 1_555 1_555
C57_13 H17_13 1_555 1_555
C57_13 H18_13 1_555 1_555
C57_13 H19_13 1_555 1_555
C61_13 H20_13 1_555 1_555
C62_13 H21_13 1_555 1_555
C66_13 H23_13 1_555 1_555
C86_13 H24_13 1_555 1_555
C69_13 H26_13 1_555 1_555
C84_13 H28_13 1_555 1_555
C73_13 H29_13 1_555 1_555
C75_13 H30_13 1_555 1_555
C83_13 H32_13 1_555 1_555
O15_13 H33_13 1_555 1_555
C90_13 H34_13 1_555 1_555
C90_13 H35_13 1_555 1_555
C90_13 H36_13 1_555 1_555
O1_2 H57_22 1_555 1_555
C17_13 H73_13 1_555 1_555
C24_13 H76_13 1_555 1_555
C36_13 H77_13 1_555 1_555
C40_13 H79_13 1_555 1_555
C22_13 H80_13 1_555 1_555
C38_13 H81_13 1_555 1_555
C20_13 H85_13 1_555 1_555
C21_13 H86_13 1_555 1_555
O5_13 H88_13 1_555 1_555
O20_3 H90_22 1_555 1_555
C23_13 H95_13 1_555 1_555
C47_13 H97_13 1_555 1_555
C48_13 H98_13 1_555 1_555
N13_13 Fe6_5 1_555 1_555
N14_13 Fe6_5 1_555 1_555
C18_13 N13_13 1_555 1_555
C19_13 N14_13 1_555 1_555
C34_13 C18_13 1_555 1_555
C35_13 C19_13 1_555 1_555
O6_13 C35_13 1_555 1_555
C46_13 C35_13 1_555 1_555
C68_13 C60_13 1_555 1_555
C71_13 C63_13 1_555 1_555
O14_13 C68_13 1_555 1_555
C34_13 C45_13 1_555 1_555
C60_13 H5_13 1_555 1_555
C63_13 H22_13 1_555 1_555
C71_13 H25_13 1_555 1_555
O14_13 H27_13 1_555 1_555
C89_13 H37_13 1_555 1_555
C89_13 H38_13 1_555 1_555
C18_13 H75_13 1_555 1_555
C19_13 H78_13 1_555 1_555
C34_13 H94_13 1_555 1_555
C45_13 H96_13 1_555 1_555
O6_13 H99_13 1_555 1_555
C46_13 H100_13 1_555 1_555
N13_14 Fe6 1_555 1_555
N14_14 Fe6 1_555 1_555
N15_14 Fe7 1_555 1_555
N16_14 Fe7 1_555 1_555
C17_14 N13_14 1_555 1_555
C18_14 N13_14 1_555 1_555
C19_14 N14_14 1_555 1_555
C20_14 N14_14 1_555 1_555
C21_14 N15_14 1_555 1_555
C22_14 N15_14 1_555 1_555
C23_14 N16_14 1_555 1_555
C24_14 N16_14 1_555 1_555
C33_14 C17_14 1_555 1_555
C34_14 C18_14 1_555 1_555
C35_14 C19_14 1_555 1_555
C36_14 C20_14 1_555 1_555
C37_14 C21_14 1_555 1_555
C38_14 C22_14 1_555 1_555
C39_14 C23_14 1_555 1_555
C40_14 C24_14 1_555 1_555
O5_14 C33_14 1_555 1_555
C45_14 C33_14 1_555 1_555
O6_14 C35_14 1_555 1_555
C46_14 C35_14 1_555 1_555
O7_14 C37_14 1_555 1_555
C47_14 C37_14 1_555 1_555
O8_14 C39_14 1_555 1_555
C48_14 C39_14 1_555 1_555
C52_14 O7_14 1_555 1_555
C53_14 O8_14 1_555 1_555
O12_14 C52_14 1_555 1_555
C57_14 C52_14 1_555 1_555
O13_14 C53_14 1_555 1_555
C58_14 C53_14 1_555 1_555
N18_14 Fe6 1_555 1_555
N19_14 Fe6 1_555 1_555
N21_14 Fe7 1_555 1_555
N22_14 Fe7 1_555 1_555
C60_14 N18_14 1_555 1_555
C61_14 N18_14 1_555 1_555
C62_14 N19_14 1_555 1_555
C63_14 N19_14 1_555 1_555
C64_14 N21_14 1_555 1_555
C65_14 N21_14 1_555 1_555
C66_14 N22_14 1_555 1_555
C67_14 N22_14 1_555 1_555
C68_14 C60_14 1_555 1_555
C69_14 C61_14 1_555 1_555
C70_14 C62_14 1_555 1_555
C71_14 C63_14 1_555 1_555
C72_14 C64_14 1_555 1_555
C73_14 C65_14 1_555 1_555
C74_14 C66_14 1_555 1_555
C75_14 C67_14 1_555 1_555
O14_14 C68_14 1_555 1_555
C83_14 C68_14 1_555 1_555
O15_14 C70_14 1_555 1_555
C84_14 C70_14 1_555 1_555
O16_14 C72_14 1_555 1_555
C85_14 C72_14 1_555 1_555
O17_14 C74_14 1_555 1_555
C86_14 C74_14 1_555 1_555
C87_14 O16_14 1_555 1_555
C88_14 O17_14 1_555 1_555
O18_14 C87_14 1_555 1_555
C89_14 C87_14 1_555 1_555
O19_14 C88_14 1_555 1_555
C90_14 C88_14 1_555 1_555
C34_14 C45_14 1_555 1_555
C36_14 C46_14 1_555 1_555
C38_14 C47_14 1_555 1_555
C40_14 C48_14 1_555 1_555
C69_14 C83_14 1_555 1_555
C71_14 C84_14 1_555 1_555
C73_14 C85_14 1_555 1_555
C75_14 C86_14 1_555 1_555
C67_14 H1_14 1_555 1_555
C58_14 H2_14 1_555 1_555
C58_14 H3_14 1_555 1_555
C58_14 H4_14 1_555 1_555
C60_14 H5_14 1_555 1_555
C64_14 H6_14 1_555 1_555
C65_14 H13_14 1_555 1_555
C57_14 H17_14 1_555 1_555
C57_14 H18_14 1_555 1_555
C57_14 H19_14 1_555 1_555
C61_14 H20_14 1_555 1_555
C62_14 H21_14 1_555 1_555
C63_14 H22_14 1_555 1_555
C66_14 H23_14 1_555 1_555
C86_14 H24_14 1_555 1_555
C71_14 H25_14 1_555 1_555
C69_14 H26_14 1_555 1_555
O14_14 H27_14 1_555 1_555
C84_14 H28_14 1_555 1_555
C73_14 H29_14 1_555 1_555
C75_14 H30_14 1_555 1_555
C85_14 H31_14 1_555 1_555
C83_14 H32_14 1_555 1_555
O15_14 H33_14 1_555 1_555
C90_14 H34_14 1_555 1_555
C90_14 H35_14 1_555 1_555
C90_14 H36_14 1_555 1_555
C89_14 H37_14 1_555 1_555
C89_14 H38_14 1_555 1_555
C89_14 H39_14 1_555 1_555
O1_3 H57_23 1_555 1_555
C17_14 H73_14 1_555 1_555
C18_14 H75_14 1_555 1_555
C24_14 H76_14 1_555 1_555
C36_14 H77_14 1_555 1_555
C19_14 H78_14 1_555 1_555
C40_14 H79_14 1_555 1_555
C22_14 H80_14 1_555 1_555
C38_14 H81_14 1_555 1_555
C20_14 H85_14 1_555 1_555
C21_14 H86_14 1_555 1_555
O5_14 H88_14 1_555 1_555
O20 H90_23 1_555 1_555
C34_14 H94_14 1_555 1_555
C23_14 H95_14 1_555 1_555
C45_14 H96_14 1_555 1_555
C47_14 H97_14 1_555 1_555
C48_14 H98_14 1_555 1_555
O6_14 H99_14 1_555 1_555
C46_14 H100_14 1_555 1_555
N13_15 Fe6_2 1_555 1_555
N14_15 Fe6_2 1_555 1_555
C18_15 N13_15 1_555 1_555
C19_15 N14_15 1_555 1_555
C34_15 C18_15 1_555 1_555
C35_15 C19_15 1_555 1_555
O6_15 C35_15 1_555 1_555
C46_15 C35_15 1_555 1_555
C68_15 C60_15 1_555 1_555
C71_15 C63_15 1_555 1_555
O14_15 C68_15 1_555 1_555
C34_15 C45_15 1_555 1_555
C60_15 H5_15 1_555 1_555
C63_15 H22_15 1_555 1_555
C71_15 H25_15 1_555 1_555
O14_15 H27_15 1_555 1_555
C89_15 H37_15 1_555 1_555
C89_15 H38_15 1_555 1_555
C18_15 H75_15 1_555 1_555
C19_15 H78_15 1_555 1_555
C34_15 H94_15 1_555 1_555
C45_15 H96_15 1_555 1_555
O6_15 H99_15 1_555 1_555
C46_15 H100_15 1_555 1_555
N15_15 Fe7_2 1_555 1_555
N16_15 Fe7_2 1_555 1_555
C21_15 N15_15 1_555 1_555
C22_15 N15_15 1_555 1_555
C23_15 N16_15 1_555 1_555
C24_15 N16_15 1_555 1_555
C33_15 C17_15 1_555 1_555
C36_15 C20_15 1_555 1_555
C37_15 C21_15 1_555 1_555
C38_15 C22_15 1_555 1_555
C39_15 C23_15 1_555 1_555
C40_15 C24_15 1_555 1_555
O5_15 C33_15 1_555 1_555
O7_15 C37_15 1_555 1_555
C47_15 C37_15 1_555 1_555
O8_15 C39_15 1_555 1_555
C48_15 C39_15 1_555 1_555
C52_15 O7_15 1_555 1_555
C53_15 O8_15 1_555 1_555
O12_15 C52_15 1_555 1_555
C57_15 C52_15 1_555 1_555
O13_15 C53_15 1_555 1_555
C58_15 C53_15 1_555 1_555
N18_15 Fe6_3 1_555 1_555
N19_15 Fe6_3 1_555 1_555
N21_15 Fe7_2 1_555 1_555
N22_15 Fe7_2 1_555 1_555
C61_15 N18_15 1_555 1_555
C62_15 N19_15 1_555 1_555
C64_15 N21_15 1_555 1_555
C65_15 N21_15 1_555 1_555
C66_15 N22_15 1_555 1_555
C67_15 N22_15 1_555 1_555
C69_15 C61_15 1_555 1_555
C70_15 C62_15 1_555 1_555
C72_15 C64_15 1_555 1_555
C73_15 C65_15 1_555 1_555
C74_15 C66_15 1_555 1_555
C75_15 C67_15 1_555 1_555
O15_15 C70_15 1_555 1_555
C84_15 C70_15 1_555 1_555
O16_15 C72_15 1_555 1_555
C85_15 C72_15 1_555 1_555
O17_15 C74_15 1_555 1_555
C86_15 C74_15 1_555 1_555
C87_15 O16_15 1_555 1_555
C88_15 O17_15 1_555 1_555
O18_15 C87_15 1_555 1_555
O19_15 C88_15 1_555 1_555
C90_15 C88_15 1_555 1_555
C38_15 C47_15 1_555 1_555
C40_15 C48_15 1_555 1_555
C69_15 C83_15 1_555 1_555
C73_15 C85_15 1_555 1_555
C75_15 C86_15 1_555 1_555
C67_15 H1_15 1_555 1_555
C58_15 H2_15 1_555 1_555
C58_15 H3_15 1_555 1_555
C58_15 H4_15 1_555 1_555
C64_15 H6_15 1_555 1_555
C65_15 H13_15 1_555 1_555
C57_15 H17_15 1_555 1_555
C57_15 H18_15 1_555 1_555
C57_15 H19_15 1_555 1_555
C61_15 H20_15 1_555 1_555
C62_15 H21_15 1_555 1_555
C66_15 H23_15 1_555 1_555
C86_15 H24_15 1_555 1_555
C69_15 H26_15 1_555 1_555
C84_15 H28_15 1_555 1_555
C73_15 H29_15 1_555 1_555
C75_15 H30_15 1_555 1_555
C83_15 H32_15 1_555 1_555
O15_15 H33_15 1_555 1_555
C90_15 H34_15 1_555 1_555
C90_15 H35_15 1_555 1_555
C90_15 H36_15 1_555 1_555
O1 H57_24 1_555 1_555
C17_15 H73_15 1_555 1_555
C24_15 H76_15 1_555 1_555
C36_15 H77_15 1_555 1_555
C40_15 H79_15 1_555 1_555
C22_15 H80_15 1_555 1_555
C38_15 H81_15 1_555 1_555
C20_15 H85_15 1_555 1_555
C21_15 H86_15 1_555 1_555
O5_15 H88_15 1_555 1_555
O20_2 H90_24 1_555 1_555
C23_15 H95_15 1_555 1_555
C47_15 H97_15 1_555 1_555
C48_15 H98_15 1_555 1_555
O1_8 H57_25 1_555 1_555
N15_16 Fe7_10 1_555 1_555
N16_16 Fe7_10 1_555 1_555
C21_16 N15_16 1_555 1_555
C22_16 N15_16 1_555 1_555
C23_16 N16_16 1_555 1_555
C24_16 N16_16 1_555 1_555
C37_16 C21_16 1_555 1_555
C38_16 C22_16 1_555 1_555
C39_16 C23_16 1_555 1_555
C40_16 C24_16 1_555 1_555
O7_16 C37_16 1_555 1_555
C47_16 C37_16 1_555 1_555
O8_16 C39_16 1_555 1_555
C48_16 C39_16 1_555 1_555
C52_16 O7_16 1_555 1_555
C53_16 O8_16 1_555 1_555
O12_16 C52_16 1_555 1_555
C57_16 C52_16 1_555 1_555
O13_16 C53_16 1_555 1_555
C58_16 C53_16 1_555 1_555
O15_16 C70_16 1_555 1_555
C84_16 C70_16 1_555 1_555
C36_16 C46_16 1_555 1_555
C38_16 C47_16 1_555 1_555
C40_16 C48_16 1_555 1_555
C58_16 H2_16 1_555 1_555
C58_16 H3_16 1_555 1_555
C58_16 H4_16 1_555 1_555
C57_16 H17_16 1_555 1_555
C57_16 H18_16 1_555 1_555
C57_16 H19_16 1_555 1_555
C84_16 H28_16 1_555 1_555
O15_16 H33_16 1_555 1_555
C24_16 H76_16 1_555 1_555
C36_16 H77_16 1_555 1_555
C40_16 H79_16 1_555 1_555
C22_16 H80_16 1_555 1_555
C38_16 H81_16 1_555 1_555
C21_16 H86_16 1_555 1_555
O20_9 H90_25 1_555 1_555
C23_16 H95_16 1_555 1_555
C47_16 H97_16 1_555 1_555
C48_16 H98_16 1_555 1_555
C46_16 H100_16 1_555 1_555
N13_16 Fe6_11 1_555 1_555
N14_16 Fe6_11 1_555 1_555
C17_16 N13_16 1_555 1_555
C18_16 N13_16 1_555 1_555
C19_16 N14_16 1_555 1_555
C20_16 N14_16 1_555 1_555
C33_16 C17_16 1_555 1_555
C34_16 C18_16 1_555 1_555
C35_16 C19_16 1_555 1_555
O5_16 C33_16 1_555 1_555
C45_16 C33_16 1_555 1_555
O6_16 C35_16 1_555 1_555
N18_16 Fe6_11 1_555 1_555
N19_16 Fe6_11 1_555 1_555
N21_16 Fe7_11 1_555 1_555
N22_16 Fe7_11 1_555 1_555
C60_16 N18_16 1_555 1_555
C61_16 N18_16 1_555 1_555
C62_16 N19_16 1_555 1_555
C63_16 N19_16 1_555 1_555
C64_16 N21_16 1_555 1_555
C65_16 N21_16 1_555 1_555
C66_16 N22_16 1_555 1_555
C67_16 N22_16 1_555 1_555
C68_16 C60_16 1_555 1_555
C69_16 C61_16 1_555 1_555
C71_16 C63_16 1_555 1_555
C72_16 C64_16 1_555 1_555
C73_16 C65_16 1_555 1_555
C74_16 C66_16 1_555 1_555
C75_16 C67_16 1_555 1_555
O14_16 C68_16 1_555 1_555
C83_16 C68_16 1_555 1_555
O16_16 C72_16 1_555 1_555
C85_16 C72_16 1_555 1_555
O17_16 C74_16 1_555 1_555
C86_16 C74_16 1_555 1_555
C87_16 O16_16 1_555 1_555
C88_16 O17_16 1_555 1_555
O18_16 C87_16 1_555 1_555
C89_16 C87_16 1_555 1_555
O19_16 C88_16 1_555 1_555
C90_16 C88_16 1_555 1_555
C34_16 C45_16 1_555 1_555
C69_16 C83_16 1_555 1_555
C73_16 C85_16 1_555 1_555
C75_16 C86_16 1_555 1_555
C67_16 H1_16 1_555 1_555
C60_16 H5_16 1_555 1_555
C64_16 H6_16 1_555 1_555
C65_16 H13_16 1_555 1_555
C61_16 H20_16 1_555 1_555
C62_16 H21_16 1_555 1_555
C63_16 H22_16 1_555 1_555
C66_16 H23_16 1_555 1_555
C86_16 H24_16 1_555 1_555
C71_16 H25_16 1_555 1_555
C69_16 H26_16 1_555 1_555
O14_16 H27_16 1_555 1_555
C73_16 H29_16 1_555 1_555
C75_16 H30_16 1_555 1_555
C85_16 H31_16 1_555 1_555
C83_16 H32_16 1_555 1_555
C90_16 H34_16 1_555 1_555
C90_16 H35_16 1_555 1_555
C90_16 H36_16 1_555 1_555
C89_16 H37_16 1_555 1_555
C89_16 H38_16 1_555 1_555
C89_16 H39_16 1_555 1_555
C17_16 H73_16 1_555 1_555
C18_16 H75_16 1_555 1_555
C19_16 H78_16 1_555 1_555
C20_16 H85_16 1_555 1_555
O5_16 H88_16 1_555 1_555
C34_16 H94_16 1_555 1_555
C45_16 H96_16 1_555 1_555
O6_16 H99_16 1_555 1_555
N13_17 Fe6_9 1_555 1_555
N14_17 Fe6_9 1_555 1_555
C17_17 N13_17 1_555 1_555
C18_17 N13_17 1_555 1_555
C19_17 N14_17 1_555 1_555
C20_17 N14_17 1_555 1_555
C33_17 C17_17 1_555 1_555
C34_17 C18_17 1_555 1_555
C35_17 C19_17 1_555 1_555
O5_17 C33_17 1_555 1_555
C45_17 C33_17 1_555 1_555
O6_17 C35_17 1_555 1_555
N18_17 Fe6_9 1_555 1_555
N19_17 Fe6_9 1_555 1_555
N21_17 Fe7_7 1_555 1_555
N22_17 Fe7_7 1_555 1_555
C60_17 N18_17 1_555 1_555
C61_17 N18_17 1_555 1_555
C62_17 N19_17 1_555 1_555
C63_17 N19_17 1_555 1_555
C64_17 N21_17 1_555 1_555
C65_17 N21_17 1_555 1_555
C66_17 N22_17 1_555 1_555
C67_17 N22_17 1_555 1_555
C68_17 C60_17 1_555 1_555
C69_17 C61_17 1_555 1_555
C71_17 C63_17 1_555 1_555
C72_17 C64_17 1_555 1_555
C73_17 C65_17 1_555 1_555
C74_17 C66_17 1_555 1_555
C75_17 C67_17 1_555 1_555
O14_17 C68_17 1_555 1_555
C83_17 C68_17 1_555 1_555
O16_17 C72_17 1_555 1_555
C85_17 C72_17 1_555 1_555
O17_17 C74_17 1_555 1_555
C86_17 C74_17 1_555 1_555
C87_17 O16_17 1_555 1_555
C88_17 O17_17 1_555 1_555
O18_17 C87_17 1_555 1_555
C89_17 C87_17 1_555 1_555
O19_17 C88_17 1_555 1_555
C90_17 C88_17 1_555 1_555
C34_17 C45_17 1_555 1_555
C69_17 C83_17 1_555 1_555
C73_17 C85_17 1_555 1_555
C75_17 C86_17 1_555 1_555
C67_17 H1_17 1_555 1_555
C60_17 H5_17 1_555 1_555
C64_17 H6_17 1_555 1_555
C65_17 H13_17 1_555 1_555
C61_17 H20_17 1_555 1_555
C62_17 H21_17 1_555 1_555
C63_17 H22_17 1_555 1_555
C66_17 H23_17 1_555 1_555
C86_17 H24_17 1_555 1_555
C71_17 H25_17 1_555 1_555
C69_17 H26_17 1_555 1_555
O14_17 H27_17 1_555 1_555
C73_17 H29_17 1_555 1_555
C75_17 H30_17 1_555 1_555
C85_17 H31_17 1_555 1_555
C83_17 H32_17 1_555 1_555
C90_17 H34_17 1_555 1_555
C90_17 H35_17 1_555 1_555
C90_17 H36_17 1_555 1_555
C89_17 H37_17 1_555 1_555
C89_17 H38_17 1_555 1_555
C89_17 H39_17 1_555 1_555
C17_17 H73_17 1_555 1_555
C18_17 H75_17 1_555 1_555
C19_17 H78_17 1_555 1_555
C20_17 H85_17 1_555 1_555
O5_17 H88_17 1_555 1_555
C34_17 H94_17 1_555 1_555
C45_17 H96_17 1_555 1_555
O6_17 H99_17 1_555 1_555
N15_17 Fe7_8 1_555 1_555
N16_17 Fe7_8 1_555 1_555
C21_17 N15_17 1_555 1_555
C22_17 N15_17 1_555 1_555
C23_17 N16_17 1_555 1_555
C24_17 N16_17 1_555 1_555
C37_17 C21_17 1_555 1_555
C38_17 C22_17 1_555 1_555
C39_17 C23_17 1_555 1_555
C40_17 C24_17 1_555 1_555
O7_17 C37_17 1_555 1_555
C47_17 C37_17 1_555 1_555
O8_17 C39_17 1_555 1_555
C48_17 C39_17 1_555 1_555
C52_17 O7_17 1_555 1_555
C53_17 O8_17 1_555 1_555
O12_17 C52_17 1_555 1_555
C57_17 C52_17 1_555 1_555
O13_17 C53_17 1_555 1_555
C58_17 C53_17 1_555 1_555
O15_17 C70_17 1_555 1_555
C84_17 C70_17 1_555 1_555
C36_17 C46_17 1_555 1_555
C38_17 C47_17 1_555 1_555
C40_17 C48_17 1_555 1_555
C58_17 H2_17 1_555 1_555
C58_17 H3_17 1_555 1_555
C58_17 H4_17 1_555 1_555
C57_17 H17_17 1_555 1_555
C57_17 H18_17 1_555 1_555
C57_17 H19_17 1_555 1_555
C84_17 H28_17 1_555 1_555
O15_17 H33_17 1_555 1_555
O1_9 H57_26 1_555 1_555
C24_17 H76_17 1_555 1_555
C36_17 H77_17 1_555 1_555
C40_17 H79_17 1_555 1_555
C22_17 H80_17 1_555 1_555
C38_17 H81_17 1_555 1_555
C21_17 H86_17 1_555 1_555
O20_7 H90_26 1_555 1_555
C23_17 H95_17 1_555 1_555
C47_17 H97_17 1_555 1_555
C48_17 H98_17 1_555 1_555
C46_17 H100_17 1_555 1_555
N13_18 Fe6_10 1_555 1_555
N14_18 Fe6_10 1_555 1_555
N15_18 Fe7_9 1_555 1_555
N16_18 Fe7_9 1_555 1_555
C17_18 N13_18 1_555 1_555
C18_18 N13_18 1_555 1_555
C19_18 N14_18 1_555 1_555
C20_18 N14_18 1_555 1_555
C21_18 N15_18 1_555 1_555
C22_18 N15_18 1_555 1_555
C23_18 N16_18 1_555 1_555
C24_18 N16_18 1_555 1_555
C33_18 C17_18 1_555 1_555
C34_18 C18_18 1_555 1_555
C35_18 C19_18 1_555 1_555
C36_18 C20_18 1_555 1_555
C37_18 C21_18 1_555 1_555
C38_18 C22_18 1_555 1_555
C39_18 C23_18 1_555 1_555
C40_18 C24_18 1_555 1_555
O5_18 C33_18 1_555 1_555
C45_18 C33_18 1_555 1_555
O6_18 C35_18 1_555 1_555
C46_18 C35_18 1_555 1_555
O7_18 C37_18 1_555 1_555
C47_18 C37_18 1_555 1_555
O8_18 C39_18 1_555 1_555
C48_18 C39_18 1_555 1_555
C52_18 O7_18 1_555 1_555
C53_18 O8_18 1_555 1_555
O12_18 C52_18 1_555 1_555
C57_18 C52_18 1_555 1_555
O13_18 C53_18 1_555 1_555
C58_18 C53_18 1_555 1_555
N18_18 Fe6_10 1_555 1_555
N19_18 Fe6_10 1_555 1_555
N21_18 Fe7_9 1_555 1_555
N22_18 Fe7_9 1_555 1_555
C60_18 N18_18 1_555 1_555
C61_18 N18_18 1_555 1_555
C62_18 N19_18 1_555 1_555
C63_18 N19_18 1_555 1_555
C64_18 N21_18 1_555 1_555
C65_18 N21_18 1_555 1_555
C66_18 N22_18 1_555 1_555
C67_18 N22_18 1_555 1_555
C68_18 C60_18 1_555 1_555
C69_18 C61_18 1_555 1_555
C70_18 C62_18 1_555 1_555
C71_18 C63_18 1_555 1_555
C72_18 C64_18 1_555 1_555
C73_18 C65_18 1_555 1_555
C74_18 C66_18 1_555 1_555
C75_18 C67_18 1_555 1_555
O14_18 C68_18 1_555 1_555
C83_18 C68_18 1_555 1_555
O15_18 C70_18 1_555 1_555
C84_18 C70_18 1_555 1_555
O16_18 C72_18 1_555 1_555
C85_18 C72_18 1_555 1_555
O17_18 C74_18 1_555 1_555
C86_18 C74_18 1_555 1_555
C87_18 O16_18 1_555 1_555
C88_18 O17_18 1_555 1_555
O18_18 C87_18 1_555 1_555
C89_18 C87_18 1_555 1_555
O19_18 C88_18 1_555 1_555
C90_18 C88_18 1_555 1_555
C34_18 C45_18 1_555 1_555
C36_18 C46_18 1_555 1_555
C38_18 C47_18 1_555 1_555
C40_18 C48_18 1_555 1_555
C69_18 C83_18 1_555 1_555
C71_18 C84_18 1_555 1_555
C73_18 C85_18 1_555 1_555
C75_18 C86_18 1_555 1_555
C67_18 H1_18 1_555 1_555
C58_18 H2_18 1_555 1_555
C58_18 H3_18 1_555 1_555
C58_18 H4_18 1_555 1_555
C60_18 H5_18 1_555 1_555
C64_18 H6_18 1_555 1_555
C65_18 H13_18 1_555 1_555
C57_18 H17_18 1_555 1_555
C57_18 H18_18 1_555 1_555
C57_18 H19_18 1_555 1_555
C61_18 H20_18 1_555 1_555
C62_18 H21_18 1_555 1_555
C63_18 H22_18 1_555 1_555
C66_18 H23_18 1_555 1_555
C86_18 H24_18 1_555 1_555
C71_18 H25_18 1_555 1_555
C69_18 H26_18 1_555 1_555
O14_18 H27_18 1_555 1_555
C84_18 H28_18 1_555 1_555
C73_18 H29_18 1_555 1_555
C75_18 H30_18 1_555 1_555
C85_18 H31_18 1_555 1_555
C83_18 H32_18 1_555 1_555
O15_18 H33_18 1_555 1_555
C90_18 H34_18 1_555 1_555
C90_18 H35_18 1_555 1_555
C90_18 H36_18 1_555 1_555
C89_18 H37_18 1_555 1_555
C89_18 H38_18 1_555 1_555
C89_18 H39_18 1_555 1_555
C17_18 H73_18 1_555 1_555
C18_18 H75_18 1_555 1_555
C24_18 H76_18 1_555 1_555
C36_18 H77_18 1_555 1_555
C19_18 H78_18 1_555 1_555
C40_18 H79_18 1_555 1_555
C22_18 H80_18 1_555 1_555
C38_18 H81_18 1_555 1_555
C20_18 H85_18 1_555 1_555
C21_18 H86_18 1_555 1_555
O5_18 H88_18 1_555 1_555
O20_8 H90_27 1_555 1_555
C34_18 H94_18 1_555 1_555
C23_18 H95_18 1_555 1_555
C45_18 H96_18 1_555 1_555
C47_18 H97_18 1_555 1_555
C48_18 H98_18 1_555 1_555
O6_18 H99_18 1_555 1_555
C46_18 H100_18 1_555 1_555
O1_7 H57_27 1_555 1_555
O1_15 H57_28 1_555 1_555
O20_14 H90_28 1_555 1_555
O1_13 H57_29 1_555 1_555
O20_15 H90_29 1_555 1_555
O1_14 H57_30 1_555 1_555
O20_13 H90_30 1_555 1_555
O1_12 H57_31 1_555 1_555
O20_11 H90_31 1_555 1_555
O1_10 H57_32 1_555 1_555
O20_12 H90_32 1_555 1_555
O1_11 H57_33 1_555 1_555
O20_10 H90_33 1_555 1_555
O1_18 H57_34 1_555 1_555
O20_17 H90_34 1_555 1_555
O20_18 H90_35 1_555 1_555
O1_16 H57_35 1_555 1_555
O20_16 H90_36 1_555 1_555
O1_17 H57_36 1_555 1_555

#END
