
###############################################################################
#
# This file contains modified crystal structure data generated from the
# MOF subset of the Cambridge Structural Database (CSD) v543 
# hosted by the Cambridge Crystallographic Data Centre (CCDC).
#
# This work is licensed under the Creative Commons
# Attribution-NonCommercial-ShareAlike 4.0 International License.
# To view a copy of this license, visit
# http://creativecommons.org/licenses/by-nc-sa/4.0/
# or send a letter to
# Creative Commons, PO Box 1866, Mountain View, CA 94042, USA.
#
# CIF created using the CSD Python API on 29 September 2022
# The structure has been converted into the P1 space group
# The structure has a 3D framework
# The original CSD entry BOFBII is in the monoclinic crystal system
# The framework has been calculated to contain at least 10.0% void space
# The void calculation uses a probe of radius 1.32A, grid spacing 0.4
# The framework is charged, counterions have been retained in the structure
#
###############################################################################

data_BOFBII
_chemical_formula_moiety         '(C26 H8 Bi6 Na4 O42)n'
_symmetry_cell_setting           triclinic
_symmetry_space_group_name_H-M   'P 1'
_symmetry_Int_Tables_number      1
_space_group_name_Hall           'P 1'
loop_
_symmetry_equiv_pos_site_id
_symmetry_equiv_pos_as_xyz
1 x,y,z
_cell_length_a                   12.020(5)
_cell_length_b                   11.190(8)
_cell_length_c                   11.067(10)
_cell_angle_alpha                90
_cell_angle_beta                 121.78(2)
_cell_angle_gamma                90
_cell_volume                     1265.38
loop_
_atom_site_label
_atom_site_type_symbol
_atom_site_fract_x
_atom_site_fract_y
_atom_site_fract_z
Na1 Na 0.5000 0.0000 0.5000
Na1_2 Na 0.5000 1.0000 0.5000
Na1_3 Na 0.0000 0.5000 0.5000
Na1_4 Na 1.0000 0.5000 0.5000
Bi1 Bi 0.143179(14) 0.0000 0.339872(16)
O1 O 0.0340(3) 0.1196(2) 0.1142(3)
O2 O 0.3386(2) 0.1292(2) 0.4939(3)
O4 O 0.4097(2) 0.2934(2) 0.6252(3)
C1 C 0.0000 0.0686(4) 0.0000
C2 C 0.3219(3) 0.2277(3) 0.5340(3)
O6 O 0.3211(4) 0.0000 0.2573(5)
H1 H 0.327(6) 0.063(3) 0.220(6)
Bi3 Bi 0.356821(14) 0.5000 0.660128(16)
O10 O 0.1614(2) 0.3708(2) 0.5061(3)
O15 O 0.0641(3) 0.0000 0.6845(4)
O17 O 0.0903(2) 0.2066(2) 0.3748(3)
O22 O 0.1683(3) 0.0000 0.5688(4)
C5 C 0.1781(3) 0.2723(3) 0.4660(3)
C8 C 0.0657(4) 0.0000 0.5722(5)
C1_2 C 0.0000 0.0686(4) 1.0000
Bi1_2 Bi 0.143179(14) 1.0000 0.339872(16)
O6_2 O 0.3211(4) 1.0000 0.2573(5)
O8 O 0.0340(3) 0.8804(2) 0.1142(3)
O11 O 0.3386(2) 0.8708(2) 0.4939(3)
O12 O 0.1614(2) 0.6292(2) 0.5061(3)
O15_2 O 0.0641(3) 1.0000 0.6845(4)
O18 O 0.4097(2) 0.7066(2) 0.6252(3)
O19 O 0.0903(2) 0.7934(2) 0.3748(3)
O22_2 O 0.1683(3) 1.0000 0.5688(4)
C4 C 0.0000 0.9314(4) 0.0000
C6 C 0.3219(3) 0.7723(3) 0.5340(3)
C7 C 0.1781(3) 0.7277(3) 0.4660(3)
C8_2 C 0.0657(4) 1.0000 0.5722(5)
H2 H 0.327(6) 0.937(3) 0.220(6)
C4_2 C 0.0000 0.9314(4) 1.0000
O3 O 0.9359(3) -0.0000 0.3155(4)
O5 O 0.8317(3) 0.0000 0.4312(4)
C1_3 C 1.0000 0.0686(4) 0.0000
C3 C 0.9343(4) -0.0000 0.4278(5)
Bi4 Bi 0.856821(14) 0.0000 0.660128(16)
C1_4 C 1.0000 0.0686(4) 1.0000
O7 O 0.9660(3) 0.1196(2) 0.8858(3)
O14 O 0.6614(2) 0.1292(2) 0.5061(3)
O21 O 0.9097(2) 0.2066(2) 0.6252(3)
O24 O 0.6789(4) 0.0000 0.7427(5)
H3 H 0.673(6) 0.063(3) 0.780(6)
O3_2 O 0.9359(3) 1.0000 0.3155(4)
O5_2 O 0.8317(3) 1.0000 0.4312(4)
C3_2 C 0.9343(4) 1.0000 0.4278(5)
Bi4_2 Bi 0.856821(14) 1.0000 0.660128(16)
C4_3 C 1.0000 0.9314(4) 0.0000
O9 O 0.9660(3) 0.8804(2) 0.8858(3)
O13 O 0.6614(2) 0.8708(2) 0.5061(3)
O20 O 0.9097(2) 0.7934(2) 0.6252(3)
C4_4 C 1.0000 0.9314(4) 1.0000
O24_2 O 0.6789(4) 1.0000 0.7427(5)
H4 H 0.673(6) 0.937(3) 0.780(6)
Bi1_3 Bi 0.643179(14) 0.5000 0.339872(16)
O1_2 O 0.5340(3) 0.6196(2) 0.1142(3)
O2_2 O 0.8386(2) 0.6292(2) 0.4939(3)
O3_3 O 0.4359(3) 0.5000 0.3155(4)
O5_3 O 0.3317(3) 0.5000 0.4312(4)
C1_5 C 0.5000 0.5686(4) 0.0000
C2_2 C 0.8219(3) 0.7277(3) 0.5340(3)
C3_3 C 0.4343(4) 0.5000 0.4278(5)
O6_3 O 0.8211(4) 0.5000 0.2573(5)
H1_2 H 0.827(6) 0.563(3) 0.220(6)
O8_2 O 0.5340(3) 0.3804(2) 0.1142(3)
O11_2 O 0.8386(2) 0.3708(2) 0.4939(3)
O15_3 O 0.5641(3) 0.5000 0.6845(4)
O17_2 O 0.5903(2) 0.7066(2) 0.3748(3)
O19_2 O 0.5903(2) 0.2934(2) 0.3748(3)
O22_3 O 0.6683(3) 0.5000 0.5688(4)
C4_5 C 0.5000 0.4314(4) 0.0000
C5_2 C 0.6781(3) 0.7723(3) 0.4660(3)
C6_2 C 0.8219(3) 0.2723(3) 0.5340(3)
C7_2 C 0.6781(3) 0.2277(3) 0.4660(3)
C8_3 C 0.5657(4) 0.5000 0.5722(5)
H2_2 H 0.827(6) 0.437(3) 0.220(6)
C1_6 C 0.5000 0.5686(4) 1.0000
O7_2 O 0.4660(3) 0.6196(2) 0.8858(3)
O9_2 O 0.4660(3) 0.3804(2) 0.8858(3)
C4_6 C 0.5000 0.4314(4) 1.0000
O24_3 O 0.1789(4) 0.5000 0.7427(5)
H3_2 H 0.173(6) 0.563(3) 0.780(6)
H4_2 H 0.173(6) 0.437(3) 0.780(6)
loop_
_geom_bond_atom_site_label_1
_geom_bond_atom_site_label_2
_geom_bond_site_symmetry_1
_geom_bond_site_symmetry_2
Bi1 O1 1_555 1_555
O1 C1 1_555 1_555
O2 Bi1 1_555 1_555
O4 C2 1_555 1_555
C2 O2 1_555 1_555
O6 Bi1 1_555 1_555
H1 O6 1_555 1_555
Bi3 O4 1_555 1_555
O10 Bi3 1_555 1_555
O17 Bi1 1_555 1_555
O22 Bi1 1_555 1_555
C5 C2 1_555 1_555
O10 C5 1_555 1_555
O15 C8 1_555 1_555
O17 C5 1_555 1_555
O22 C8 1_555 1_555
O6_2 Bi1_2 1_555 1_555
Bi3 O12 1_555 1_555
O8 Bi1_2 1_555 1_555
O11 Bi1_2 1_555 1_555
O12 C7 1_555 1_555
O18 Bi3 1_555 1_555
O19 Bi1_2 1_555 1_555
O22_2 Bi1_2 1_555 1_555
C6 O11 1_555 1_555
C7 O19 1_555 1_555
H2 O6_2 1_555 1_555
O8 C4 1_555 1_555
O15_2 C8_2 1_555 1_555
O18 C6 1_555 1_555
O22_2 C8_2 1_555 1_555
C6 C7 1_555 1_555
O5 C3 1_555 1_555
C3 O3 1_555 1_555
Bi4 O5 1_555 1_555
C1_4 O7 1_555 1_555
Bi4 O7 1_555 1_555
O14 Bi4 1_555 1_555
O21 Bi4 1_555 1_555
O24 Bi4 1_555 1_555
H3 O24 1_555 1_555
O5_2 C3_2 1_555 1_555
C3_2 O3_2 1_555 1_555
Bi4_2 O5_2 1_555 1_555
O9 Bi4_2 1_555 1_555
O13 Bi4_2 1_555 1_555
O20 Bi4_2 1_555 1_555
O24_2 Bi4_2 1_555 1_555
H4 O24_2 1_555 1_555
O9 C4_4 1_555 1_555
Bi1_3 O1_2 1_555 1_555
O1_2 C1_5 1_555 1_555
O2_2 Bi1_3 1_555 1_555
O3_3 Bi1_3 1_555 1_555
O20 C2_2 1_555 1_555
O5_3 C3_3 1_555 1_555
C2_2 O2_2 1_555 1_555
C3_3 O3_3 1_555 1_555
O6_3 Bi1_3 1_555 1_555
H1_2 O6_3 1_555 1_555
Bi3 O5_3 1_555 1_555
O8_2 Bi1_3 1_555 1_555
O11_2 Bi1_3 1_555 1_555
O14 C7_2 1_555 1_555
O15_3 Bi3 1_555 1_555
O17_2 Bi1_3 1_555 1_555
O19_2 Bi1_3 1_555 1_555
O22_3 Bi1_3 1_555 1_555
C4_5 C1_5 1_555 1_555
C5_2 C2_2 1_555 1_555
C6_2 O11_2 1_555 1_555
C7_2 O19_2 1_555 1_555
C8_3 C3_3 1_555 1_555
H2_2 O6_3 1_555 1_555
O8_2 C4_5 1_555 1_555
O13 C5_2 1_555 1_555
O15_3 C8_3 1_555 1_555
O17_2 C5_2 1_555 1_555
O21 C6_2 1_555 1_555
O22_3 C8_3 1_555 1_555
C6_2 C7_2 1_555 1_555
C1_6 O7_2 1_555 1_555
Bi3 O7_2 1_555 1_555
O9_2 Bi3 1_555 1_555
C4_6 C1_6 1_555 1_555
O24_3 Bi3 1_555 1_555
H3_2 O24_3 1_555 1_555
H4_2 O24_3 1_555 1_555
O9_2 C4_6 1_555 1_555

#END
