
###############################################################################
#
# This file contains modified crystal structure data generated from the
# MOF subset of the Cambridge Structural Database (CSD) v543 
# hosted by the Cambridge Crystallographic Data Centre (CCDC).
#
# This work is licensed under the Creative Commons
# Attribution-NonCommercial-ShareAlike 4.0 International License.
# To view a copy of this license, visit
# http://creativecommons.org/licenses/by-nc-sa/4.0/
# or send a letter to
# Creative Commons, PO Box 1866, Mountain View, CA 94042, USA.
#
# CIF created using the CSD Python API on 29 September 2022
# The structure has been converted into the P1 space group
# The structure has a 3D framework
# The original CSD entry BOFCEG is in the monoclinic crystal system
# The framework has been calculated to contain at least 10.0% void space
# The void calculation uses a probe of radius 1.32A, grid spacing 0.4
#
###############################################################################

data_BOFCEG
_chemical_formula_moiety         '(C28 H16 N12 O16 Zn4)n'
_symmetry_cell_setting           triclinic
_symmetry_space_group_name_H-M   'P 1'
_symmetry_Int_Tables_number      1
_space_group_name_Hall           'P 1'
loop_
_symmetry_equiv_pos_site_id
_symmetry_equiv_pos_as_xyz
1 x,y,z
_cell_length_a                   13.7620(8)
_cell_length_b                   9.563(5)
_cell_length_c                   9.883(5)
_cell_angle_alpha                90
_cell_angle_beta                 101.074(5)
_cell_angle_gamma                90
_cell_volume                     1276.44
loop_
_atom_site_label
_atom_site_type_symbol
_atom_site_fract_x
_atom_site_fract_y
_atom_site_fract_z
O5 O 0.27309(17) 0.0136(3) 0.0983(3)
N10 N 0.49243(19) 0.1006(3) 0.1434(3)
C3 C 0.0338(3) 0.9048(4) 0.1049(4)
O3 O 0.1560(2) 0.8274(3) 0.2886(3)
H2 H 0.1692 0.7721 0.3530
O4 O 0.0088(2) 0.7253(4) 0.2611(4)
C7 C 0.0644(3) 0.8079(4) 0.2244(4)
O6 O 0.22866(19) 0.8062(3) 0.0163(3)
C9 C 0.2088(3) 0.9261(4) 0.0529(3)
C11 C 0.1015(2) 0.9675(4) 0.0347(3)
Zn2 Zn 0.40432(3) 0.93176(4) 0.09915(3)
N4 N 0.44139(19) 0.7897(3) 0.2486(3)
N5 N 0.44018(19) 0.6537(3) 0.4295(3)
N6 N 0.50757(19) 0.6006(3) 0.3566(3)
C13 C 0.4031(2) 0.7667(3) 0.3619(3)
H7 H 0.3559 0.8239 0.3895
C14 C 0.5057(3) 0.6836(3) 0.2513(3)
H8 H 0.5448 0.6707 0.1852
Zn4 Zn 0.40432(3) 0.56824(4) 0.59915(3)
Zn6 Zn 0.59568(3) 0.43176(4) 0.40085(3)
N7 N 0.44018(19) 0.8463(3) 0.9295(3)
N8 N 0.55982(19) 0.1537(3) 0.0705(3)
Zn1 Zn 0.59568(3) 0.06824(4) 0.90085(3)
N1 N 0.55861(19) 0.2103(3) 0.7514(3)
O2 O 0.77134(19) 0.1938(3) 0.9837(3)
N2 N 0.55982(19) 0.3463(3) 0.5705(3)
N3 N 0.49243(19) 0.3994(3) 0.6434(3)
C2 C 0.7912(3) 0.0739(4) 0.9471(3)
C4 C 0.8985(2) 0.0325(4) 0.9653(3)
C5 C 0.5969(2) 0.2333(3) 0.6381(3)
H3 H 0.6441 0.1761 0.6105
C6 C 0.4943(3) 0.3164(3) 0.7487(3)
H4 H 0.4552 0.3293 0.8148
C10 C 0.9662(3) 0.0952(4) 0.8951(4)
O7 O 0.8440(2) 0.1726(3) 0.7114(3)
H6 H 0.8308 0.2279 0.6470
O8 O 0.9912(2) 0.2747(4) 0.7389(4)
C12 C 0.9356(3) 0.1921(4) 0.7756(4)
O1 O 0.72691(17) 0.9864(3) 0.9017(3)
N9 N 0.50757(19) 0.8994(3) 0.8566(3)
N1_2 N 0.44139(19) 0.7103(3) 0.7486(3)
O1_2 O 0.27309(17) 0.4864(3) 0.5983(3)
O2_2 O 0.22866(19) 0.6938(3) 0.5163(3)
C1 C 0.0663(3) 0.4369(4) 0.4308(4)
H1 H 0.1107 0.3935 0.3843
C2_2 C 0.2088(3) 0.5739(4) 0.5529(3)
C4_2 C 0.1015(2) 0.5325(4) 0.5347(3)
C5_2 C 0.4031(2) 0.7333(3) 0.8619(3)
H3_2 H 0.3559 0.6761 0.8895
C6_2 C 0.5057(3) 0.8164(3) 0.7513(3)
H4_2 H 0.5448 0.8293 0.6852
C10_2 C 0.0338(3) 0.5952(4) 0.6049(4)
O7_2 O 0.1560(2) 0.6726(3) 0.7886(3)
H6_2 H 0.1692 0.7279 0.8530
O8_2 O 0.0088(2) 0.7747(4) 0.7611(4)
C12_2 C 0.0644(3) 0.6921(4) 0.7244(4)
C3_2 C 0.9662(3) 0.4048(4) 0.3951(4)
O3_2 O 0.8440(2) 0.3274(3) 0.2114(3)
H2_2 H 0.8308 0.2721 0.1470
O4_2 O 0.9912(2) 0.2253(4) 0.2389(4)
C7_2 C 0.9356(3) 0.3079(4) 0.2756(4)
O5_2 O 0.72691(17) 0.5136(3) 0.4017(3)
O6_2 O 0.77134(19) 0.3062(3) 0.4837(3)
C8 C 0.9337(3) 0.5631(4) 0.5692(4)
H5 H 0.8893 0.6065 0.6157
C9_2 C 0.7912(3) 0.4261(4) 0.4471(3)
C11_2 C 0.8985(2) 0.4675(4) 0.4653(3)
N4_2 N 0.55861(19) 0.2897(3) 0.2514(3)
C13_2 C 0.5969(2) 0.2667(3) 0.1381(3)
H7_2 H 0.6441 0.3239 0.1105
C14_2 C 0.4943(3) 0.1836(3) 0.2487(3)
H8_2 H 0.4552 0.1707 0.3148
C8_2 C 0.0663(3) 0.0631(4) 0.9308(4)
H5_2 H 0.1107 0.1065 0.8843
C1_2 C 0.9337(3) 0.9369(4) 0.0692(4)
H1_2 H 0.8893 0.8935 0.1157
loop_
_geom_bond_atom_site_label_1
_geom_bond_atom_site_label_2
_geom_bond_site_symmetry_1
_geom_bond_site_symmetry_2
O3 H2 1_555 1_555
O4 C7 1_555 1_555
C7 C3 1_555 1_555
O6 C9 1_555 1_555
C9 C11 1_555 1_555
C11 C3 1_555 1_555
N4 Zn2 1_555 1_555
N5 N6 1_555 1_555
N6 C14 1_555 1_555
C13 N4 1_555 1_555
H7 C13 1_555 1_555
C14 N4 1_555 1_555
H8 C14 1_555 1_555
Zn4 N5 1_555 1_555
Zn6 N6 1_555 1_555
O3 C7 1_555 1_555
N5 C13 1_555 1_555
Zn1 N1 1_555 1_555
N1 C5 1_555 1_555
O2 C2 1_555 1_555
N2 N3 1_555 1_555
N3 C6 1_555 1_555
C5 N2 1_555 1_555
H3 C5 1_555 1_555
C6 N1 1_555 1_555
H4 C6 1_555 1_555
C10 C4 1_555 1_555
O7 H6 1_555 1_555
O8 C12 1_555 1_555
C12 C10 1_555 1_555
Zn4 N3 1_555 1_555
Zn6 N2 1_555 1_555
C2 C4 1_555 1_555
O7 C12 1_555 1_555
Zn4 N1_2 1_555 1_555
N1_2 C5_2 1_555 1_555
O1_2 Zn4 1_555 1_555
O2_2 C2_2 1_555 1_555
N7 N9 1_555 1_555
C1 H1 1_555 1_555
N9 C6_2 1_555 1_555
C2_2 O1_2 1_555 1_555
C4_2 C1 1_555 1_555
C5_2 N7 1_555 1_555
H3_2 C5_2 1_555 1_555
C6_2 N1_2 1_555 1_555
H4_2 C6_2 1_555 1_555
C10_2 C4_2 1_555 1_555
O7_2 H6_2 1_555 1_555
O8_2 C12_2 1_555 1_555
C12_2 C10_2 1_555 1_555
C2_2 C4_2 1_555 1_555
O7_2 C12_2 1_555 1_555
O3_2 H2_2 1_555 1_555
O4_2 C7_2 1_555 1_555
C7_2 C3_2 1_555 1_555
O5_2 C9_2 1_555 1_555
O6_2 C9_2 1_555 1_555
C8 H5 1_555 1_555
C9_2 C11_2 1_555 1_555
C11_2 C3_2 1_555 1_555
Zn6 O5_2 1_555 1_555
N4_2 Zn6 1_555 1_555
N8 N10 1_555 1_555
N10 C14_2 1_555 1_555
C13_2 N4_2 1_555 1_555
H7_2 C13_2 1_555 1_555
C14_2 N4_2 1_555 1_555
H8_2 C14_2 1_555 1_555
O3_2 C7_2 1_555 1_555
C8 C11_2 1_555 1_555
N8 C13_2 1_555 1_555
C8_2 H5_2 1_555 1_555
C1_2 H1_2 1_555 1_555

#END
