
###############################################################################
#
# This file contains modified crystal structure data generated from the
# MOF subset of the Cambridge Structural Database (CSD) v543 
# hosted by the Cambridge Crystallographic Data Centre (CCDC).
#
# This work is licensed under the Creative Commons
# Attribution-NonCommercial-ShareAlike 4.0 International License.
# To view a copy of this license, visit
# http://creativecommons.org/licenses/by-nc-sa/4.0/
# or send a letter to
# Creative Commons, PO Box 1866, Mountain View, CA 94042, USA.
#
# CIF created using the CSD Python API on 29 September 2022
# The structure has been converted into the P1 space group
# The structure has a 3D framework
# The original CSD entry BOFGUZ is in the monoclinic crystal system
# The framework has been calculated to contain at least 10.0% void space
# The void calculation uses a probe of radius 1.32A, grid spacing 0.4
#
###############################################################################

data_BOFGUZ
_chemical_formula_moiety         '(C104 H64 Cu8 N16 O48 Zn7)n'
_symmetry_cell_setting           triclinic
_symmetry_space_group_name_H-M   'P 1'
_symmetry_Int_Tables_number      1
_space_group_name_Hall           'P 1'
loop_
_symmetry_equiv_pos_site_id
_symmetry_equiv_pos_as_xyz
1 x,y,z
_cell_length_a                   9.9900(16)
_cell_length_b                   15.153(3)
_cell_length_c                   20.307(3)
_cell_angle_alpha                90
_cell_angle_beta                 94.152(2)
_cell_angle_gamma                90
_cell_volume                     3065.97
loop_
_atom_site_label
_atom_site_type_symbol
_atom_site_fract_x
_atom_site_fract_y
_atom_site_fract_z
N9 N 0.1735(5) 0.5847(3) 0.0121(2)
C25 C 0.6523(5) 0.4615(3) 0.0539(2)
H15 H 0.6239 0.4700 0.0960
C26 C 0.7779(6) 0.4285(4) 0.0453(3)
H16 H 0.8324 0.4145 0.0829
C48 C 0.2529(5) 0.5661(4) 0.0665(3)
H29 H 0.2205 0.5758 0.1076
C49 C 0.3813(5) 0.5329(3) 0.0634(2)
H30 H 0.4337 0.5207 0.1021
C50 C 0.4320(5) 0.5180(3) 0.0021(3)
O28 O 0.1101(4) 0.1254(3) 0.70688(18)
O32 O 0.1886(4) 0.0445(2) 0.82038(17)
Zn3 Zn 0.00850(6) 0.03546(4) 0.76384(3)
C28 C 0.0375(5) 0.8572(4) 0.7223(2)
C40 C 0.4251(6) 0.7734(4) 0.9695(3)
C41 C 0.3699(5) 0.7941(4) 0.9076(3)
H23 H 0.4197 0.7848 0.8713
C42 C 0.2434(6) 0.8279(4) 0.8981(3)
H24 H 0.2099 0.8418 0.8554
C43 C 0.7672(6) 0.6839(4) 0.9418(3)
H25 H 0.8167 0.6695 0.9063
C44 C 0.6392(5) 0.7149(3) 0.9292(2)
H26 H 0.6034 0.7204 0.8858
C45 C 0.5620(6) 0.7383(4) 0.9812(2)
N6 N 0.1659(4) 0.8418(3) 0.9483(2)
O15 O 0.0717(3) 0.9320(2) 0.70451(16)
O16 O 0.0579(4) 0.7867(2) 0.69477(16)
O26 O 0.1795(4) 0.6679(3) 0.80378(18)
O30 O 0.1035(4) 0.5913(3) 0.68904(18)
C1 C 0.0304(5) 0.1484(3) 0.2110(2)
C7 C 0.2775(5) 0.0456(4) 0.0900(2)
H1 H 0.2581 0.0478 0.1340
C8 C 0.4008(5) 0.0175(4) 0.0750(2)
H2 H 0.4639 0.0005 0.1086
C9 C 0.4329(6) 0.0142(3) 0.0090(3)
Cu1 Cu 0.01062(7) 0.11160(5) 0.06484(3)
N1 N 0.1820(4) 0.0706(3) 0.04311(19)
O1 O 0.0432(4) 0.0773(2) 0.18013(17)
O2 O 0.0652(3) 0.2218(2) 0.19229(16)
Zn2 Zn 0.00402(5) 0.32358(4) 0.25493(3)
C29 C 0.2725(5) 0.3716(3) 0.2941(2)
C30 C 0.2358(5) 0.4217(3) 0.2297(2)
O17 O 0.1842(4) 0.3276(3) 0.31835(18)
O19 O 0.3916(4) 0.3807(3) 0.31921(18)
O21 O 0.1190(4) 0.4133(2) 0.20518(18)
O23 O 0.3251(4) 0.4654(2) 0.20550(18)
Zn4 Zn 0.50850(6) 0.46454(4) 0.26384(3)
C10 C 0.3339(6) 0.0404(4) 0.9619(3)
H3 H 0.3504 0.0402 0.9174
C11 C 0.2124(5) 0.0665(3) 0.9809(2)
H4 H 0.1468 0.0824 0.9482
O20 O 0.8916(4) 0.1193(3) 0.81921(18)
O24 O 0.8251(4) 0.0346(2) 0.70550(18)
C3 C 0.2275(5) 0.8716(3) 0.2059(2)
C4 C 0.2642(5) 0.9217(3) 0.2703(2)
O5 O 0.3158(4) 0.8276(3) 0.18165(18)
O6 O 0.1084(4) 0.8807(3) 0.18079(18)
O7 O 0.3810(4) 0.9133(2) 0.29482(18)
O8 O 0.1749(4) 0.9654(2) 0.29450(18)
C36 C 0.6661(6) 0.9596(4) 0.0381(3)
H19 H 0.6496 0.9598 0.0826
C37 C 0.7876(5) 0.9335(3) 0.0191(2)
H20 H 0.8532 0.9176 0.0518
Zn7 Zn 0.49598(5) 0.82358(4) 0.24507(3)
C27 C 0.9696(5) 0.8516(3) 0.7890(2)
C33 C 0.7225(5) 0.9544(4) 0.9100(2)
H17 H 0.7419 0.9522 0.8660
C34 C 0.5992(5) 0.9825(4) 0.9250(2)
H18 H 0.5361 0.9995 0.8914
C35 C 0.5671(6) 0.9858(3) 0.9910(3)
Cu3 Cu 0.98938(7) 0.88840(5) 0.93516(3)
N5 N 0.8180(4) 0.9294(3) 0.95689(19)
O13 O 0.9568(4) 0.9227(2) 0.81987(17)
O14 O 0.9348(3) 0.7782(2) 0.80771(16)
O18 O 0.8158(4) 0.6724(3) 0.68165(18)
O22 O 0.8810(4) 0.5867(2) 0.79482(18)
Zn6 Zn 0.99598(5) 0.67642(4) 0.74507(3)
C2 C 0.9625(5) 0.1428(4) 0.2777(2)
C14 C 0.5749(6) 0.2266(4) 0.0305(3)
C15 C 0.6301(5) 0.2059(4) 0.0924(3)
H7 H 0.5803 0.2152 0.1287
C16 C 0.7566(6) 0.1721(4) 0.1019(3)
H8 H 0.7901 0.1582 0.1446
C17 C 0.2328(6) 0.3161(4) 0.0582(3)
H9 H 0.1833 0.3305 0.0937
C18 C 0.3608(5) 0.2851(3) 0.0708(2)
H10 H 0.3966 0.2796 0.1142
C19 C 0.4380(6) 0.2617(4) 0.0188(2)
N2 N 0.8341(4) 0.1582(3) 0.0517(2)
O3 O 0.9283(3) 0.0680(2) 0.29549(16)
O4 O 0.9421(4) 0.2133(2) 0.30523(16)
C31 C 0.7317(5) 0.3702(3) 0.2260(3)
C32 C 0.7766(5) 0.4155(3) 0.2920(3)
O25 O 0.8205(4) 0.3321(3) 0.19622(18)
O27 O 0.6101(4) 0.3746(3) 0.20688(18)
O29 O 0.8965(4) 0.4087(3) 0.31096(18)
O31 O 0.6886(4) 0.4555(2) 0.32038(17)
C5 C 0.7683(5) 0.8702(3) 0.2740(3)
C6 C 0.7234(5) 0.9155(3) 0.2080(3)
O9 O 0.6795(4) 0.8321(3) 0.30378(18)
O10 O 0.8899(4) 0.8746(3) 0.29312(18)
O11 O 0.6035(4) 0.9087(3) 0.18904(18)
O12 O 0.8114(4) 0.9555(2) 0.17962(17)
Zn1 Zn 0.99150(6) 0.96454(4) 0.23616(3)
C48_2 C 0.2471(5) 0.0661(4) 0.4335(3)
H29_2 H 0.2795 0.0758 0.3924
C49_2 C 0.1187(5) 0.0329(3) 0.4366(2)
H30_2 H 0.0663 0.0207 0.3979
C50_2 C 0.0680(5) 0.0180(3) 0.4979(3)
C51 C 0.1523(5) 0.0385(3) 0.5539(2)
H31 H 0.1239 0.0300 0.5960
C52 C 0.2779(6) 0.0715(4) 0.5453(3)
H32 H 0.3324 0.0855 0.5829
Cu5 Cu 0.50038(7) 0.12930(5) 0.48112(3)
N8 N 0.3265(5) 0.0847(3) 0.4879(2)
C17_2 C 0.2672(6) 0.8161(4) 0.4418(3)
H9_2 H 0.3167 0.8305 0.4063
C18_2 C 0.1392(5) 0.7851(3) 0.4292(2)
H10_2 H 0.1034 0.7796 0.3858
C19_2 C 0.0620(6) 0.7617(4) 0.4812(2)
C20 C 0.1191(5) 0.7734(4) 0.5434(2)
H11 H 0.0713 0.7597 0.5796
C21 C 0.2491(5) 0.8058(3) 0.5526(2)
H12 H 0.2860 0.8136 0.5956
C22 C 0.7529(5) 0.9339(4) 0.5665(3)
H13 H 0.7205 0.9242 0.6076
C23 C 0.8813(5) 0.9671(3) 0.5634(2)
H14 H 0.9337 0.9793 0.6021
C24 C 0.9320(5) 0.9820(3) 0.5021(3)
C25_2 C 0.8477(5) 0.9615(3) 0.4461(2)
H15_2 H 0.8761 0.9700 0.4040
C26_2 C 0.7221(6) 0.9285(4) 0.4547(3)
H16_2 H 0.6676 0.9145 0.4171
Cu2 Cu 0.49962(7) 0.87070(5) 0.51888(3)
N3 N 0.3240(5) 0.8266(3) 0.5028(2)
N4 N 0.6735(5) 0.9153(3) 0.5121(2)
C1_2 C 0.4696(5) 0.6484(3) 0.2890(2)
C2_2 C 0.5375(5) 0.6428(4) 0.2223(2)
C7_2 C 0.2225(5) 0.5456(4) 0.4100(2)
H1_2 H 0.2419 0.5478 0.3660
C8_2 C 0.0992(5) 0.5175(4) 0.4250(2)
H2_2 H 0.0361 0.5005 0.3914
C9_2 C 0.0671(6) 0.5142(3) 0.4910(3)
C10_2 C 0.1661(6) 0.5404(4) 0.5381(3)
H3_2 H 0.1496 0.5402 0.5826
C11_2 C 0.2876(5) 0.5665(3) 0.5191(2)
H4_2 H 0.3532 0.5824 0.5518
C12 C 0.7176(5) 0.6770(4) 0.5097(3)
H5 H 0.6654 0.6660 0.5449
C13 C 0.8445(6) 0.7118(4) 0.5229(3)
H6 H 0.8762 0.7252 0.5659
C14_2 C 0.9251(6) 0.7266(4) 0.4695(3)
C15_2 C 0.8699(5) 0.7059(4) 0.4076(3)
H7_2 H 0.9197 0.7152 0.3713
C16_2 C 0.7434(6) 0.6721(4) 0.3981(3)
H8_2 H 0.7099 0.6582 0.3554
Cu1_2 Cu 0.48938(7) 0.61160(5) 0.43516(3)
N1_2 N 0.3180(4) 0.5706(3) 0.45689(19)
N2_2 N 0.6659(4) 0.6582(3) 0.4483(2)
O1_2 O 0.4568(4) 0.5773(2) 0.31987(17)
O2_2 O 0.4348(3) 0.7218(2) 0.30771(16)
O3_2 O 0.5717(3) 0.5680(2) 0.20451(16)
O4_2 O 0.5579(4) 0.7133(2) 0.19477(16)
C27_2 C 0.5304(5) 0.3516(3) 0.7110(2)
C28_2 C 0.4625(5) 0.3572(4) 0.7777(2)
C33_2 C 0.7775(5) 0.4544(4) 0.5900(2)
H17_2 H 0.7581 0.4522 0.6340
C34_2 C 0.9008(5) 0.4825(4) 0.5750(2)
H18_2 H 0.9639 0.4995 0.6086
C35_2 C 0.9329(6) 0.4858(3) 0.5090(3)
C36_2 C 0.8339(6) 0.4596(4) 0.4619(3)
H19_2 H 0.8504 0.4598 0.4174
C37_2 C 0.7124(5) 0.4335(3) 0.4809(2)
H20_2 H 0.6468 0.4176 0.4482
C38 C 0.2824(5) 0.3230(4) 0.4903(3)
H21 H 0.3346 0.3340 0.4551
C39 C 0.1555(6) 0.2882(4) 0.4771(3)
H22 H 0.1238 0.2748 0.4341
C40_2 C 0.0749(6) 0.2734(4) 0.5305(3)
C41_2 C 0.1301(5) 0.2941(4) 0.5924(3)
H23_2 H 0.0803 0.2848 0.6287
C42_2 C 0.2566(6) 0.3279(4) 0.6019(3)
H24_2 H 0.2901 0.3418 0.6446
Cu3_2 Cu 0.51062(7) 0.38840(5) 0.56484(3)
N5_2 N 0.6820(4) 0.4294(3) 0.54311(19)
N6_2 N 0.3341(4) 0.3418(3) 0.5517(2)
O13_2 O 0.5432(4) 0.4227(2) 0.68013(17)
O14_2 O 0.5652(3) 0.2782(2) 0.69229(16)
O15_2 O 0.4283(3) 0.4320(2) 0.79549(16)
O16_2 O 0.4421(4) 0.2867(2) 0.80523(16)
O18_2 O 0.6842(4) 0.1724(3) 0.81835(18)
O20_2 O 0.6084(4) 0.6193(3) 0.68079(18)
O22_2 O 0.6190(4) 0.0867(2) 0.70518(18)
O24_2 O 0.6749(4) 0.5346(2) 0.79450(18)
O26_2 O 0.3205(4) 0.1679(3) 0.69622(18)
O28_2 O 0.3899(4) 0.6254(3) 0.79312(18)
O30_2 O 0.3965(4) 0.0913(3) 0.81096(18)
O32_2 O 0.3114(4) 0.5445(2) 0.67962(17)
Zn3_2 Zn 0.49150(6) 0.53546(4) 0.73616(3)
Zn6_2 Zn 0.50402(5) 0.17642(4) 0.75493(3)
C43_2 C 0.7328(6) 0.1839(4) 0.5582(3)
H25_2 H 0.6833 0.1695 0.5937
C44_2 C 0.8608(5) 0.2149(3) 0.5708(2)
H26_2 H 0.8966 0.2204 0.6142
C45_2 C 0.9380(6) 0.2383(4) 0.5188(2)
C46 C 0.8809(5) 0.2266(4) 0.4566(2)
H27 H 0.9287 0.2403 0.4204
C47 C 0.7509(5) 0.1942(3) 0.4474(2)
H28 H 0.7140 0.1864 0.4044
N7 N 0.6760(5) 0.1734(3) 0.4972(2)
C5_2 C 0.2317(5) 0.1298(3) 0.7260(3)
C6_2 C 0.2766(5) 0.0845(3) 0.7920(3)
C31_2 C 0.2683(5) 0.6298(3) 0.7740(3)
C32_2 C 0.2234(5) 0.5845(3) 0.7080(3)
C3_2 C 0.7725(5) 0.1284(3) 0.7941(2)
C4_2 C 0.7358(5) 0.0783(3) 0.7297(2)
C29_2 C 0.7275(5) 0.6284(3) 0.7059(2)
C30_2 C 0.7642(5) 0.5783(3) 0.7703(2)
C38_2 C 0.2176(5) 0.8230(4) 0.0097(3)
H21_2 H 0.1654 0.8340 0.0449
C39_2 C 0.3445(6) 0.7882(4) 0.0229(3)
H22_2 H 0.3762 0.7748 0.0659
C46_2 C 0.6191(5) 0.7266(4) 0.0434(2)
H27_2 H 0.5713 0.7403 0.0796
C47_2 C 0.7491(5) 0.6942(3) 0.0526(2)
H28_2 H 0.7860 0.6864 0.0956
Cu4 Cu 0.99962(7) 0.62930(5) 0.01888(3)
N7_2 N 0.8240(5) 0.6734(3) 0.0028(2)
C12_2 C 0.7824(5) 0.1770(4) 0.9903(3)
H5_2 H 0.8346 0.1660 0.9551
C13_2 C 0.6555(6) 0.2118(4) 0.9771(3)
H6_2 H 0.6238 0.2252 0.9341
C20_2 C 0.3809(5) 0.2734(4) 0.9566(2)
H11_2 H 0.4287 0.2597 0.9204
C21_2 C 0.2509(5) 0.3058(3) 0.9474(2)
H12_2 H 0.2140 0.3136 0.9044
Cu2_2 Cu 0.00038(7) 0.37070(5) 0.98112(3)
N3_2 N 0.1760(5) 0.3266(3) 0.9972(2)
C22_2 C 0.7471(5) 0.4339(4) 0.9335(3)
H13_2 H 0.7795 0.4242 0.8924
C23_2 C 0.6187(5) 0.4671(3) 0.9366(2)
H14_2 H 0.5663 0.4793 0.8979
C24_2 C 0.5680(5) 0.4820(3) 0.9979(3)
N4_2 N 0.8265(5) 0.4153(3) 0.9879(2)
C51_2 C 0.3477(5) 0.5385(3) 0.9461(2)
H31_2 H 0.3761 0.5300 0.9040
C52_2 C 0.2221(6) 0.5715(4) 0.9547(3)
H32_2 H 0.1676 0.5855 0.9171
loop_
_geom_bond_atom_site_label_1
_geom_bond_atom_site_label_2
_geom_bond_site_symmetry_1
_geom_bond_site_symmetry_2
H15 C25 1_555 1_555
C26 C25 1_555 1_555
H16 C26 1_555 1_555
C48 H29 1_555 1_555
C49 C48 1_555 1_555
H30 C49 1_555 1_555
N9 C48 1_555 1_555
C49 C50 1_555 1_555
O28 Zn3 1_555 1_555
O32 Zn3 1_555 1_555
C28 O15 1_555 1_555
C41 C40 1_555 1_555
H23 C41 1_555 1_555
C42 C41 1_555 1_555
H24 C42 1_555 1_555
C43 H25 1_555 1_555
C44 C43 1_555 1_555
H26 C44 1_555 1_555
C45 C40 1_555 1_555
O16 C28 1_555 1_555
C42 N6 1_555 1_555
C44 C45 1_555 1_555
C7 H1 1_555 1_555
C8 C7 1_555 1_555
H2 C8 1_555 1_555
C9 C8 1_555 1_555
Cu1 N1 1_555 1_555
N1 C7 1_555 1_555
O1 C1 1_555 1_555
O2 C1 1_555 1_555
Zn2 O2 1_555 1_555
C29 C30 1_555 1_555
C30 O21 1_555 1_555
O17 Zn2 1_555 1_555
O19 C29 1_555 1_555
O21 Zn2 1_555 1_555
O23 C30 1_555 1_555
Zn4 O19 1_555 1_555
Cu1 O1 1_555 1_555
C29 O17 1_555 1_555
O23 Zn4 1_555 1_555
H3 C10 1_555 1_555
C11 C10 1_555 1_555
H4 C11 1_555 1_555
C3 C4 1_555 1_555
C4 O7 1_555 1_555
O5 C3 1_555 1_555
O6 C3 1_555 1_555
O7 Zn7 1_555 1_555
O8 C4 1_555 1_555
H19 C36 1_555 1_555
C37 C36 1_555 1_555
H20 C37 1_555 1_555
Zn7 O5 1_555 1_555
C33 H17 1_555 1_555
C34 C33 1_555 1_555
H18 C34 1_555 1_555
Cu3 N5 1_555 1_555
N5 C33 1_555 1_555
O13 C27 1_555 1_555
O14 C27 1_555 1_555
O18 Zn6 1_555 1_555
O22 Zn6 1_555 1_555
Zn6 O14 1_555 1_555
C34 C35 1_555 1_555
Cu3 O13 1_555 1_555
C2 O3 1_555 1_555
C15 C14 1_555 1_555
H7 C15 1_555 1_555
C16 C15 1_555 1_555
H8 C16 1_555 1_555
C17 H9 1_555 1_555
C18 C17 1_555 1_555
H10 C18 1_555 1_555
C19 C14 1_555 1_555
O4 C2 1_555 1_555
C31 C32 1_555 1_555
C32 O29 1_555 1_555
O27 C31 1_555 1_555
O31 C32 1_555 1_555
Zn4 O27 1_555 1_555
C16 N2 1_555 1_555
C18 C19 1_555 1_555
C31 O25 1_555 1_555
O31 Zn4 1_555 1_555
C5 C6 1_555 1_555
C6 O11 1_555 1_555
O9 C5 1_555 1_555
O10 C5 1_555 1_555
O11 Zn7 1_555 1_555
O12 C6 1_555 1_555
Zn7 O9 1_555 1_555
O10 Zn1 1_555 1_555
O12 Zn1 1_555 1_555
C48_2 H29_2 1_555 1_555
C49_2 C48_2 1_555 1_555
H30_2 C49_2 1_555 1_555
C51 C50_2 1_555 1_555
H31 C51 1_555 1_555
C52 C51 1_555 1_555
H32 C52 1_555 1_555
Cu5 N8 1_555 1_555
N8 C48_2 1_555 1_555
C49_2 C50_2 1_555 1_555
C52 N8 1_555 1_555
C17_2 H9_2 1_555 1_555
C18_2 C17_2 1_555 1_555
H10_2 C18_2 1_555 1_555
C20 C19_2 1_555 1_555
H11 C20 1_555 1_555
C21 C20 1_555 1_555
H12 C21 1_555 1_555
C22 H13 1_555 1_555
C23 C22 1_555 1_555
H14 C23 1_555 1_555
C24 C23 1_555 1_555
C25_2 C24 1_555 1_555
H15_2 C25_2 1_555 1_555
C26_2 C25_2 1_555 1_555
H16_2 C26_2 1_555 1_555
Cu2 N3 1_555 1_555
N3 C17_2 1_555 1_555
N4 C22 1_555 1_555
C18_2 C19_2 1_555 1_555
C21 N3 1_555 1_555
C26_2 N4 1_555 1_555
Cu2 N4 1_555 1_555
C1_2 C2_2 1_555 1_555
C2_2 O3_2 1_555 1_555
C7_2 H1_2 1_555 1_555
C8_2 C7_2 1_555 1_555
H2_2 C8_2 1_555 1_555
C9_2 C8_2 1_555 1_555
C10_2 C9_2 1_555 1_555
H3_2 C10_2 1_555 1_555
C11_2 C10_2 1_555 1_555
H4_2 C11_2 1_555 1_555
C12 H5 1_555 1_555
C13 C12 1_555 1_555
H6 C13 1_555 1_555
C14_2 C13 1_555 1_555
C15_2 C14_2 1_555 1_555
H7_2 C15_2 1_555 1_555
C16_2 C15_2 1_555 1_555
H8_2 C16_2 1_555 1_555
Cu1_2 N1_2 1_555 1_555
N1_2 C7_2 1_555 1_555
N2_2 C12 1_555 1_555
O1_2 C1_2 1_555 1_555
O2_2 C1_2 1_555 1_555
O3_2 Zn4 1_555 1_555
O4_2 C2_2 1_555 1_555
Zn4 O1_2 1_555 1_555
Zn7 O2_2 1_555 1_555
C11_2 N1_2 1_555 1_555
C16_2 N2_2 1_555 1_555
Cu1_2 N2_2 1_555 1_555
Cu1_2 O1_2 1_555 1_555
O4_2 Zn7 1_555 1_555
C27_2 C28_2 1_555 1_555
C28_2 O15_2 1_555 1_555
C33_2 H17_2 1_555 1_555
C34_2 C33_2 1_555 1_555
H18_2 C34_2 1_555 1_555
C36_2 C35_2 1_555 1_555
H19_2 C36_2 1_555 1_555
C37_2 C36_2 1_555 1_555
H20_2 C37_2 1_555 1_555
C38 H21 1_555 1_555
C39 C38 1_555 1_555
H22 C39 1_555 1_555
C40_2 C39 1_555 1_555
C41_2 C40_2 1_555 1_555
H23_2 C41_2 1_555 1_555
C42_2 C41_2 1_555 1_555
H24_2 C42_2 1_555 1_555
Cu3_2 N5_2 1_555 1_555
N5_2 C33_2 1_555 1_555
N6_2 C38 1_555 1_555
O13_2 C27_2 1_555 1_555
O14_2 C27_2 1_555 1_555
O15_2 Zn3_2 1_555 1_555
O16_2 C28_2 1_555 1_555
O18_2 Zn6_2 1_555 1_555
O20_2 Zn3_2 1_555 1_555
O22_2 Zn6_2 1_555 1_555
O24_2 Zn3_2 1_555 1_555
O26_2 Zn6_2 1_555 1_555
O28_2 Zn3_2 1_555 1_555
O30_2 Zn6_2 1_555 1_555
O32_2 Zn3_2 1_555 1_555
Zn3_2 O13_2 1_555 1_555
Zn6_2 O14_2 1_555 1_555
C34_2 C35_2 1_555 1_555
C37_2 N5_2 1_555 1_555
C42_2 N6_2 1_555 1_555
Cu3_2 N6_2 1_555 1_555
Cu3_2 O13_2 1_555 1_555
O16_2 Zn6_2 1_555 1_555
C43_2 H25_2 1_555 1_555
C44_2 C43_2 1_555 1_555
H26_2 C44_2 1_555 1_555
C46 C45_2 1_555 1_555
H27 C46 1_555 1_555
C47 C46 1_555 1_555
H28 C47 1_555 1_555
Cu5 N7 1_555 1_555
N7 C43_2 1_555 1_555
C44_2 C45_2 1_555 1_555
C47 N7 1_555 1_555
C5_2 C6_2 1_555 1_555
C6_2 O30_2 1_555 1_555
O26_2 C5_2 1_555 1_555
O28 C5_2 1_555 1_555
O32 C6_2 1_555 1_555
C31_2 C32_2 1_555 1_555
C32_2 O30 1_555 1_555
O28_2 C31_2 1_555 1_555
O32_2 C32_2 1_555 1_555
C31_2 O26 1_555 1_555
C3_2 C4_2 1_555 1_555
C4_2 O22_2 1_555 1_555
O18_2 C3_2 1_555 1_555
O20 C3_2 1_555 1_555
O24 C4_2 1_555 1_555
C29_2 C30_2 1_555 1_555
C30_2 O22 1_555 1_555
O20_2 C29_2 1_555 1_555
O24_2 C30_2 1_555 1_555
C29_2 O18 1_555 1_555
C38_2 H21_2 1_555 1_555
C39_2 C38_2 1_555 1_555
H22_2 C39_2 1_555 1_555
H27_2 C46_2 1_555 1_555
C47_2 C46_2 1_555 1_555
H28_2 C47_2 1_555 1_555
Cu4 N7_2 1_555 1_555
C47_2 N7_2 1_555 1_555
C12_2 H5_2 1_555 1_555
C13_2 C12_2 1_555 1_555
H6_2 C13_2 1_555 1_555
H11_2 C20_2 1_555 1_555
C21_2 C20_2 1_555 1_555
H12_2 C21_2 1_555 1_555
Cu2_2 N3_2 1_555 1_555
C21_2 N3_2 1_555 1_555
C22_2 H13_2 1_555 1_555
C23_2 C22_2 1_555 1_555
H14_2 C23_2 1_555 1_555
C24_2 C23_2 1_555 1_555
N4_2 C22_2 1_555 1_555
H31_2 C51_2 1_555 1_555
C52_2 C51_2 1_555 1_555
H32_2 C52_2 1_555 1_555

#END
