
###############################################################################
#
# This file contains modified crystal structure data generated from the
# MOF subset of the Cambridge Structural Database (CSD) v543 
# hosted by the Cambridge Crystallographic Data Centre (CCDC).
#
# This work is licensed under the Creative Commons
# Attribution-NonCommercial-ShareAlike 4.0 International License.
# To view a copy of this license, visit
# http://creativecommons.org/licenses/by-nc-sa/4.0/
# or send a letter to
# Creative Commons, PO Box 1866, Mountain View, CA 94042, USA.
#
# CIF created using the CSD Python API on 29 September 2022
# The structure has been converted into the P1 space group
# The structure has a 3D framework
# The original CSD entry BOGNES is in the cubic crystal system
# The original CSD entry BOGNES is in a Sohncke space group
# The framework has been calculated to contain at least 10.0% void space
# The void calculation uses a probe of radius 1.32A, grid spacing 0.4
# H atom positions have been added when not included in the experimental data
#
###############################################################################

data_BOGNES
_chemical_formula_moiety         '(C1488 H912 O128 P48 Zr34)n'
_symmetry_cell_setting           triclinic
_symmetry_space_group_name_H-M   'P 1'
_symmetry_Int_Tables_number      1
_space_group_name_Hall           'P 1'
loop_
_symmetry_equiv_pos_site_id
_symmetry_equiv_pos_as_xyz
1 x,y,z
_cell_length_a                   46.116(2)
_cell_length_b                   46.116(2)
_cell_length_c                   46.116(2)
_cell_angle_alpha                90
_cell_angle_beta                 90
_cell_angle_gamma                90
_cell_volume                     98074.2
loop_
_atom_site_label
_atom_site_type_symbol
_atom_site_fract_x
_atom_site_fract_y
_atom_site_fract_z
Zr1 Zr -0.0000 0.0000 0.0537
O4 O 0.0079 0.0399 0.0798
O6 O 0.0256 0.0256 0.0256
O8 O 0.0399 0.0079 0.0791
Zr3 Zr 0.0000 0.0537 0.0000
Zr5 Zr 0.0537 0.0000 0.0000
O19 O 0.0798 0.0079 0.0399
O22 O 0.0791 0.0399 0.0079
Zr3_2 Zr 0.0000 0.0537 1.0000
Zr5_2 Zr 0.0537 0.0000 1.0000
O16 O 0.0291 0.0291 0.9709
Zr1_2 Zr 0.0000 1.0000 0.0537
O5 O 0.0291 0.9709 0.0291
Zr4 Zr 0.0000 0.9463 0.0000
Zr5_3 Zr 0.0537 1.0000 0.0000
Zr4_2 Zr 0.0000 0.9463 1.0000
Zr5_4 Zr 0.0537 1.0000 1.0000
O18 O 0.0256 0.9744 0.9744
O20 O 0.0798 0.9921 0.9601
O21 O 0.0791 0.9601 0.9921
Zr1_3 Zr 1.0000 0.0000 0.0537
O1 O 0.9709 0.0291 0.0291
C4 C 0.8840(17) 0.0005(6) 0.0839(11)
C19 C 0.7262 0.0297 0.1924
C22 C 0.7453 0.0529 0.1915
C23 C 0.7082 0.0240 0.1689
C26 C 0.7466 0.0705 0.1670
C27 C 0.7094 0.0415 0.1444
C30 C 0.7286 0.0648 0.1435
Zr2 Zr 0.9463 0.0000 0.0000
Zr3_3 Zr 1.0000 0.0537 0.0000
C37 C 0.9161(11) 0.1160(17) 0.0005(6)
C72 C 0.8076 0.2738 0.0297
C84 C 0.8085 0.2547 0.0529
C85 C 0.8311 0.2918 0.0240
C95 C 0.7738 0.0297 0.3076
C102 C 0.8330 0.2534 0.0705
C103 C 0.8556 0.2906 0.0415
C114 C 0.7547 0.0529 0.3085
C115 C 0.7918 0.0240 0.3311
C120 C 0.6924 0.2262 0.0297
C124 C 0.8565 0.2714 0.0648
C134 C 0.7534 0.0705 0.3330
C135 C 0.7906 0.0415 0.3556
C139 C 0.6915 0.2453 0.0529
C140 C 0.6689 0.2082 0.0240
C151 C 0.7714 0.0648 0.3565
C154 C 0.6670 0.2466 0.0705
C155 C 0.6444 0.2094 0.0415
C166 C 0.6435 0.2286 0.0648
C172 C 0.6160(17) 0.0005(6) 0.4161(11)
C179 C 0.5839(11) 0.3840(17) 0.0005(6)
Zr6 Zr 0.5537 0.0000 0.5000
Zr7 Zr 0.5000 0.0000 0.4463
Zr8 Zr 0.5000 0.4463 0.0000
Zr9 Zr 0.5537 0.5000 0.0000
H1 H 0.624346 0.229512 0.0785811
H10 H 0.610056 0.345431 0.00322605
H11 H 0.572422 0.379672 0.0206783
H12 H 0.620328 0.0206783 0.427578
H16 H 0.879672 0.0206783 0.072422
H17 H 0.845431 0.00322605 0.110056
H21 H 0.759306 0.0573646 0.209981
H28 H 0.761666 0.0886683 0.16625
H29 H 0.729512 0.0785811 0.124346
H32 H 0.927578 0.120328 0.0206783
H35 H 0.693155 0.00581561 0.169692
H37 H 0.889944 0.154569 0.00322605
H38 H 0.695364 0.0370096 0.125948
H43 H 0.830308 0.306845 0.00581561
H51 H 0.790019 0.240694 0.0573646
H66 H 0.83375 0.238334 0.0886683
H69 H 0.804636 0.0370096 0.374052
H71 H 0.709981 0.259306 0.0573646
H72 H 0.874052 0.304636 0.0370096
H75 H 0.875654 0.270488 0.0785811
H77 H 0.669692 0.193155 0.00581561
H78 H 0.770488 0.0785811 0.375654
H83 H 0.740694 0.0573646 0.290019
H88 H 0.66625 0.261666 0.0886683
H89 H 0.738334 0.0886683 0.33375
H94 H 0.806845 0.00581561 0.330308
H99 H 0.654569 0.00322605 0.389944
H111 H 0.625948 0.195364 0.0370096
Zr2_2 Zr 0.9463 0.0000 1.0000
Zr3_4 Zr 1.0000 0.0537 1.0000
O10 O 0.9209 0.0399 0.9921
O13 O 0.9744 0.0256 0.9744
O14 O 0.9202 0.0079 0.9601
O15 O 0.9601 0.0798 0.9921
C32 C 0.9356 0.0645 0.9899
C34 C 0.9225(7) 0.0913(13) 0.9845(15)
C36 C 0.9079(14) 0.0858(8) 0.9588(13)
C40 C 0.8868(11) 0.1050(17) 0.9490(6)
C41 C 0.8950(15) 0.1352(7) 0.9907(14)
C44 C 0.8804(8) 0.1297(13) 0.9650(15)
C46 C 0.8525(15) 0.1551(13) 0.9681(16)
C48 C 0.8363(14) 0.1762(13) 0.9578(15)
C50 C 0.8135(5) 0.1991(6) 0.9491(7)
C52 C 0.8114(7) 0.2198(8) 0.9709(6)
C53 C 0.7934(4) 0.1986(4) 0.9267(5)
C56 C 0.7890(9) 0.2400(6) 0.9703(6)
C57 C 0.7710(4) 0.2189(4) 0.9262(6)
C58 C 0.7955(7) 0.1779(5) 0.9049(7)
C63 C 0.7688(7) 0.2396(4) 0.9480(8)
P2 P 0.7796 0.2724 0.9963
C64 C 0.7508(5) 0.2184(7) 0.9038(8)
C65 C 0.7753(9) 0.1775(7) 0.8826(6)
C71 C 0.7312(7) 0.2604(4) 0.9480(8)
C73 C 0.7972 0.2948 0.9649
C74 C 0.7530(8) 0.1977(9) 0.8820(6)
C82 C 0.7110(9) 0.2600(6) 0.9703(6)
C83 C 0.7290(4) 0.2811(4) 0.9262(6)
C86 C 0.7837 0.3218 0.9639
C87 C 0.8228 0.2903 0.9498
C99 C 0.6886(7) 0.2802(8) 0.9709(6)
P5 P 0.7204 0.2276 0.9963
C100 C 0.7066(4) 0.3014(4) 0.9267(5)
C101 C 0.7492(5) 0.2816(7) 0.9038(8)
C104 C 0.7959 0.3442 0.9478
C105 C 0.8350 0.3126 0.9337
C119 C 0.6865(5) 0.3009(6) 0.9491(7)
C121 C 0.7028 0.2052 0.9649
C122 C 0.7045(7) 0.3221(5) 0.9049(7)
C123 C 0.7470(8) 0.3023(9) 0.8820(6)
C125 C 0.8216 0.3396 0.9327
C138 C 0.6637(14) 0.3238(13) 0.9578(15)
C141 C 0.7163 0.1782 0.9639
C142 C 0.6772 0.2097 0.9498
C143 C 0.7247(9) 0.3225(7) 0.8826(6)
C153 C 0.6475(15) 0.3449(13) 0.9681(16)
C156 C 0.7041 0.1558 0.9478
C157 C 0.6650 0.1874 0.9337
C165 C 0.6196(8) 0.3703(13) 0.9650(15)
C167 C 0.6784 0.1604 0.9327
C173 C 0.6132(11) 0.3950(17) 0.9490(6)
C174 C 0.6050(15) 0.3648(7) 0.9907(14)
C178 C 0.5921(14) 0.4142(8) 0.9588(13)
C183 C 0.5775(7) 0.4087(13) 0.9845(15)
C185 C 0.5644 0.4355 0.9899
O25 O 0.5399 0.4202 0.9921
O26 O 0.5791 0.4601 0.9921
Zr8_2 Zr 0.5000 0.4463 1.0000
Zr9_2 Zr 0.5537 0.5000 1.0000
H6 H 0.587044 0.433569 0.946274
H8 H 0.668784 0.142886 0.920113
H9 H 0.624678 0.399328 0.928822
H31 H 0.912956 0.0664305 0.946274
H36 H 0.875322 0.100672 0.928822
H42 H 0.766728 0.265782 0.903344
H46 H 0.776951 0.161283 0.865515
H49 H 0.737216 0.197333 0.86444
H50 H 0.812971 0.162018 0.905317
H52 H 0.763579 0.325376 0.975732
H53 H 0.833369 0.269197 0.950576
H58 H 0.672755 0.279792 0.988405
H59 H 0.827245 0.220208 0.988405
H63 H 0.733272 0.234218 0.903344
H68 H 0.785344 0.365309 0.947019
H79 H 0.762784 0.302667 0.86444
H80 H 0.855089 0.308957 0.921834
H85 H 0.687029 0.337982 0.905317
H87 H 0.736421 0.174624 0.975732
H91 H 0.723049 0.338717 0.865515
H92 H 0.644911 0.191043 0.921834
H93 H 0.666631 0.230803 0.950576
H103 H 0.831216 0.357114 0.920113
H112 H 0.714656 0.134691 0.947019
Zr1_4 Zr 1.0000 1.0000 0.0537
O2 O 0.9744 0.9744 0.0256
O3 O 0.9601 0.9921 0.0791
C1 C 0.9355 0.9899 0.0644
C2 C 0.9087(13) 0.9845(15) 0.0775(7)
C3 C 0.9142(8) 0.9588(13) 0.0921(14)
C5 C 0.8950(17) 0.9490(6) 0.1132(11)
C6 C 0.8648(7) 0.9907(14) 0.1050(15)
C7 C 0.8703(13) 0.9650(15) 0.1196(8)
C8 C 0.8449(13) 0.9681(16) 0.1475(15)
C9 C 0.8238(13) 0.9578(15) 0.1637(14)
C10 C 0.8009(6) 0.9491(7) 0.1865(5)
C11 C 0.7802(8) 0.9709(6) 0.1886(7)
C12 C 0.8014(4) 0.9267(5) 0.2066(4)
C13 C 0.7600(6) 0.9703(6) 0.2110(9)
C14 C 0.7811(4) 0.9262(6) 0.2290(4)
C15 C 0.8221(5) 0.9049(7) 0.2045(7)
C16 C 0.7604(4) 0.9480(8) 0.2312(7)
P1 P 0.7276 0.9963 0.2204
C17 C 0.7816(7) 0.9038(8) 0.2492(5)
C18 C 0.8225(7) 0.8826(6) 0.2247(9)
C20 C 0.7052 0.9649 0.2028
C21 C 0.8023(9) 0.8820(6) 0.2470(8)
C24 C 0.6782 0.9639 0.2163
C25 C 0.7097 0.9498 0.1772
C28 C 0.6558 0.9478 0.2041
C29 C 0.6874 0.9337 0.1650
C31 C 0.6604 0.9327 0.1784
O7 O 0.9921 0.9601 0.0798
Zr2_3 Zr 0.9463 1.0000 0.0000
Zr4_3 Zr 1.0000 0.9463 0.0000
O9 O 0.9202 0.9921 0.0399
O11 O 0.9209 0.9601 0.0079
O17 O 0.9601 0.9202 0.0079
C33 C 0.9356 0.9355 0.0101
C35 C 0.9225(7) 0.9087(13) 0.0155(15)
C38 C 0.9079(14) 0.9142(8) 0.0412(13)
C42 C 0.8868(11) 0.8950(17) 0.0510(6)
C43 C 0.8950(15) 0.8648(7) 0.0093(14)
C45 C 0.8804(8) 0.8703(13) 0.0350(15)
C47 C 0.8525(15) 0.8449(13) 0.0319(16)
C49 C 0.8363(14) 0.8238(13) 0.0422(15)
C51 C 0.8135(5) 0.8009(6) 0.0509(7)
C54 C 0.8114(7) 0.7802(8) 0.0291(6)
C55 C 0.7934(4) 0.8014(4) 0.0733(5)
C59 C 0.7890(9) 0.7600(6) 0.0297(6)
C60 C 0.7710(4) 0.7811(4) 0.0738(6)
C61 C 0.7955(7) 0.8221(5) 0.0951(7)
C62 C 0.7396(4) 0.9480(8) 0.2688(7)
C66 C 0.7688(7) 0.7604(4) 0.0520(8)
P3 P 0.7796 0.7276 0.0037
C67 C 0.7508(5) 0.7816(7) 0.0962(8)
C68 C 0.7753(9) 0.8225(7) 0.1174(6)
C69 C 0.7400(6) 0.9703(6) 0.2890(9)
C70 C 0.7189(4) 0.9262(6) 0.2710(4)
C75 C 0.7312(7) 0.7396(4) 0.0520(8)
C77 C 0.7972 0.7052 0.0351
C78 C 0.7530(8) 0.8023(9) 0.1180(6)
C79 C 0.7198(8) 0.9709(6) 0.3114(7)
P4 P 0.7724 0.9963 0.2796
C80 C 0.6986(4) 0.9267(5) 0.2934(4)
C81 C 0.7184(7) 0.9038(8) 0.2508(5)
C88 C 0.7110(9) 0.7400(6) 0.0297(6)
C89 C 0.7290(4) 0.7189(4) 0.0738(6)
C92 C 0.7837 0.6782 0.0361
C93 C 0.8228 0.7097 0.0502
C94 C 0.6991(6) 0.9491(7) 0.3135(5)
C96 C 0.7948 0.9649 0.2972
C97 C 0.6779(5) 0.9049(7) 0.2955(7)
C98 C 0.6977(9) 0.8820(6) 0.2530(8)
C106 C 0.6886(7) 0.7198(8) 0.0291(6)
P6 P 0.7204 0.7724 0.0037
C107 C 0.7066(4) 0.6986(4) 0.0733(5)
C108 C 0.7492(5) 0.7184(7) 0.0962(8)
C111 C 0.7959 0.6558 0.0522
C112 C 0.8350 0.6874 0.0663
C113 C 0.6762(13) 0.9578(15) 0.3363(14)
C116 C 0.8218 0.9639 0.2837
C117 C 0.7903 0.9498 0.3228
C118 C 0.6775(7) 0.8826(6) 0.2753(9)
C126 C 0.6865(5) 0.6991(6) 0.0509(7)
C128 C 0.7028 0.7948 0.0351
C129 C 0.7045(7) 0.6779(5) 0.0951(7)
C130 C 0.7470(8) 0.6977(9) 0.1180(6)
C132 C 0.8216 0.6604 0.0673
C133 C 0.6551(13) 0.9681(16) 0.3525(15)
C136 C 0.8442 0.9478 0.2959
C137 C 0.8126 0.9337 0.3350
C144 C 0.6637(14) 0.6762(13) 0.0422(15)
C147 C 0.7163 0.8218 0.0361
C148 C 0.6772 0.7903 0.0502
C149 C 0.7247(9) 0.6775(7) 0.1174(6)
C150 C 0.6297(13) 0.9650(15) 0.3804(8)
C152 C 0.8396 0.9327 0.3216
C158 C 0.6475(15) 0.6551(13) 0.0319(16)
C161 C 0.7041 0.8442 0.0522
C162 C 0.6650 0.8126 0.0663
C163 C 0.6050(17) 0.9490(6) 0.3868(11)
C164 C 0.6352(7) 0.9907(14) 0.3950(15)
C168 C 0.6196(8) 0.6297(13) 0.0350(15)
C170 C 0.6784 0.8396 0.0673
C171 C 0.5858(8) 0.9588(13) 0.4079(14)
C175 C 0.6132(11) 0.6050(17) 0.0510(6)
C176 C 0.6050(15) 0.6352(7) 0.0093(14)
C177 C 0.5913(13) 0.9845(15) 0.4225(7)
C180 C 0.5921(14) 0.5858(8) 0.0412(13)
C182 C 0.5645 0.9899 0.4356
C184 C 0.5775(7) 0.5913(13) 0.0155(15)
O23 O 0.5798 0.9921 0.4601
O24 O 0.5399 0.9921 0.4209
C186 C 0.5644 0.5645 0.0101
Zr6_2 Zr 0.5537 1.0000 0.5000
Zr7_2 Zr 0.5000 1.0000 0.4463
O27 O 0.5399 0.5798 0.0079
O28 O 0.5791 0.5399 0.0079
Zr10 Zr 0.5000 0.5537 0.0000
H2 H 0.624678 0.600672 0.0711783
H7 H 0.566431 0.946274 0.412956
H13 H 0.587044 0.566431 0.0537261
H14 H 0.668784 0.857114 0.0798873
H15 H 0.899328 0.928822 0.124678
H18 H 0.933569 0.946274 0.0870444
H19 H 0.779792 0.988405 0.172755
H20 H 0.837982 0.905317 0.187029
H22 H 0.674624 0.975732 0.236421
H23 H 0.765782 0.903344 0.266728
H24 H 0.691043 0.921834 0.144911
H25 H 0.642886 0.920113 0.168784
H26 H 0.802667 0.86444 0.262784
H27 H 0.730803 0.950576 0.166631
H30 H 0.838717 0.865515 0.223049
H33 H 0.912956 0.933569 0.0537261
H39 H 0.634691 0.947019 0.214656
H40 H 0.662018 0.905317 0.312971
H41 H 0.697333 0.86444 0.237216
H44 H 0.737216 0.802667 0.13556
H47 H 0.776951 0.838717 0.134485
H48 H 0.812971 0.837982 0.0946833
H56 H 0.827245 0.779792 0.0115952
H57 H 0.763579 0.674624 0.0242684
H60 H 0.734218 0.903344 0.233272
H61 H 0.733272 0.765782 0.0966556
H62 H 0.833369 0.730803 0.049424
H64 H 0.720208 0.988405 0.327245
H65 H 0.875322 0.899328 0.0711783
H67 H 0.769197 0.950576 0.333369
H70 H 0.865309 0.947019 0.285344
H74 H 0.666631 0.769197 0.049424
H76 H 0.736421 0.825376 0.0242684
H81 H 0.661283 0.865515 0.276951
H82 H 0.766728 0.734218 0.0966556
H84 H 0.672755 0.720208 0.0115952
H86 H 0.808957 0.921834 0.355089
H90 H 0.785344 0.634691 0.0529808
H96 H 0.714656 0.865309 0.0529808
H97 H 0.644911 0.808957 0.0781656
H98 H 0.600672 0.928822 0.375322
H100 H 0.831216 0.642886 0.0798873
H101 H 0.825376 0.975732 0.263579
H106 H 0.762784 0.697333 0.13556
H108 H 0.723049 0.661283 0.134485
H109 H 0.857114 0.920113 0.331216
H110 H 0.687029 0.662018 0.0946833
H114 H 0.855089 0.691043 0.0781656
Zr2_4 Zr 0.9463 1.0000 1.0000
Zr4_4 Zr 1.0000 0.9463 1.0000
O12 O 0.9709 0.9709 0.9709
C39 C 0.9161(11) 0.8840(17) 0.9995(6)
C76 C 0.8076 0.7262 0.9703
C90 C 0.8085 0.7453 0.9471
C91 C 0.8311 0.7082 0.9760
C109 C 0.8330 0.7466 0.9295
C110 C 0.8556 0.7094 0.9585
C127 C 0.6924 0.7738 0.9703
C131 C 0.8565 0.7286 0.9352
C145 C 0.6915 0.7547 0.9471
C146 C 0.6689 0.7918 0.9760
C159 C 0.6670 0.7534 0.9295
C160 C 0.6444 0.7906 0.9585
C169 C 0.6435 0.7714 0.9352
C181 C 0.5839(11) 0.6160(17) 0.9995(6)
Zr10_2 Zr 0.5000 0.5537 1.0000
H3 H 0.610056 0.654569 0.996774
H4 H 0.624346 0.770488 0.921419
H5 H 0.572422 0.620328 0.979322
H34 H 0.927578 0.879672 0.979322
H45 H 0.889944 0.845431 0.996774
H54 H 0.790019 0.759306 0.942635
H55 H 0.830308 0.693155 0.994184
H73 H 0.709981 0.740694 0.942635
H95 H 0.625948 0.804636 0.96299
H102 H 0.874052 0.695364 0.96299
H104 H 0.875654 0.729512 0.921419
H105 H 0.669692 0.806845 0.994184
H107 H 0.83375 0.761666 0.911332
H113 H 0.66625 0.738334 0.911332
C1_2 C 0.0645 0.0101 0.0644
C2_2 C 0.0913(13) 0.0155(15) 0.0775(7)
C3_2 C 0.0858(8) 0.0412(13) 0.0921(14)
C5_2 C 0.1050(17) 0.0510(6) 0.1132(11)
C6_2 C 0.1352(7) 0.0093(14) 0.1050(15)
C7_2 C 0.1297(13) 0.0350(15) 0.1196(8)
C8_2 C 0.1551(13) 0.0319(16) 0.1475(15)
C9_2 C 0.1762(13) 0.0422(15) 0.1637(14)
C10_2 C 0.1991(6) 0.0509(7) 0.1865(5)
C11_2 C 0.2198(8) 0.0291(6) 0.1886(7)
C12_2 C 0.1986(4) 0.0733(5) 0.2066(4)
C13_2 C 0.2400(6) 0.0297(6) 0.2110(9)
C14_2 C 0.2189(4) 0.0738(6) 0.2290(4)
C15_2 C 0.1779(5) 0.0951(7) 0.2045(7)
C16_2 C 0.2396(4) 0.0520(8) 0.2312(7)
P1_2 P 0.2724 0.0037 0.2204
C17_2 C 0.2184(7) 0.0962(8) 0.2492(5)
C18_2 C 0.1775(7) 0.1174(6) 0.2247(9)
C20_2 C 0.2948 0.0351 0.2028
C21_2 C 0.1977(9) 0.1180(6) 0.2470(8)
C24_2 C 0.3218 0.0361 0.2163
C25_2 C 0.2903 0.0502 0.1772
C28_2 C 0.3442 0.0522 0.2041
C29_2 C 0.3126 0.0663 0.1650
C31_2 C 0.3396 0.0673 0.1784
O17_2 O 0.0399 0.0798 0.0079
C33_2 C 0.0644 0.0645 0.0101
C35_2 C 0.0775(7) 0.0913(13) 0.0155(15)
C38_2 C 0.0921(14) 0.0858(8) 0.0412(13)
C42_2 C 0.1132(11) 0.1050(17) 0.0510(6)
C43_2 C 0.1050(15) 0.1352(7) 0.0093(14)
C45_2 C 0.1196(8) 0.1297(13) 0.0350(15)
C47_2 C 0.1475(15) 0.1551(13) 0.0319(16)
C49_2 C 0.1637(14) 0.1762(13) 0.0422(15)
C51_2 C 0.1865(5) 0.1991(6) 0.0509(7)
C54_2 C 0.1886(7) 0.2198(8) 0.0291(6)
C55_2 C 0.2066(4) 0.1986(4) 0.0733(5)
C59_2 C 0.2110(9) 0.2400(6) 0.0297(6)
C60_2 C 0.2290(4) 0.2189(4) 0.0738(6)
C61_2 C 0.2045(7) 0.1779(5) 0.0951(7)
C62_2 C 0.2604(4) 0.0520(8) 0.2688(7)
C66_2 C 0.2312(7) 0.2396(4) 0.0520(8)
P3_2 P 0.2204 0.2724 0.0037
C67_2 C 0.2492(5) 0.2184(7) 0.0962(8)
C68_2 C 0.2247(9) 0.1775(7) 0.1174(6)
C69_2 C 0.2600(6) 0.0297(6) 0.2890(9)
C70_2 C 0.2811(4) 0.0738(6) 0.2710(4)
C75_2 C 0.2688(7) 0.2604(4) 0.0520(8)
C77_2 C 0.2028 0.2948 0.0351
C78_2 C 0.2470(8) 0.1977(9) 0.1180(6)
C79_2 C 0.2802(8) 0.0291(6) 0.3114(7)
P4_2 P 0.2276 0.0037 0.2796
C80_2 C 0.3014(4) 0.0733(5) 0.2934(4)
C81_2 C 0.2816(7) 0.0962(8) 0.2508(5)
C88_2 C 0.2890(9) 0.2600(6) 0.0297(6)
C89_2 C 0.2710(4) 0.2811(4) 0.0738(6)
C92_2 C 0.2163 0.3218 0.0361
C93_2 C 0.1772 0.2903 0.0502
C94_2 C 0.3009(6) 0.0509(7) 0.3135(5)
C96_2 C 0.2052 0.0351 0.2972
C97_2 C 0.3221(5) 0.0951(7) 0.2955(7)
C98_2 C 0.3023(9) 0.1180(6) 0.2530(8)
C106_2 C 0.3114(7) 0.2802(8) 0.0291(6)
P6_2 P 0.2796 0.2276 0.0037
C107_2 C 0.2934(4) 0.3014(4) 0.0733(5)
C108_2 C 0.2508(5) 0.2816(7) 0.0962(8)
C111_2 C 0.2041 0.3442 0.0522
C112_2 C 0.1650 0.3126 0.0663
C113_2 C 0.3238(13) 0.0422(15) 0.3363(14)
C116_2 C 0.1782 0.0361 0.2837
C117_2 C 0.2097 0.0502 0.3228
C118_2 C 0.3225(7) 0.1174(6) 0.2753(9)
C126_2 C 0.3135(5) 0.3009(6) 0.0509(7)
C128_2 C 0.2972 0.2052 0.0351
C129_2 C 0.2955(7) 0.3221(5) 0.0951(7)
C130_2 C 0.2530(8) 0.3023(9) 0.1180(6)
C132_2 C 0.1784 0.3396 0.0673
C133_2 C 0.3449(13) 0.0319(16) 0.3525(15)
C136_2 C 0.1558 0.0522 0.2959
C137_2 C 0.1874 0.0663 0.3350
C144_2 C 0.3363(14) 0.3238(13) 0.0422(15)
C147_2 C 0.2837 0.1782 0.0361
C148_2 C 0.3228 0.2097 0.0502
C149_2 C 0.2753(9) 0.3225(7) 0.1174(6)
C150_2 C 0.3703(13) 0.0350(15) 0.3804(8)
C152_2 C 0.1604 0.0673 0.3216
C158_2 C 0.3525(15) 0.3449(13) 0.0319(16)
C161_2 C 0.2959 0.1558 0.0522
C162_2 C 0.3350 0.1874 0.0663
C163_2 C 0.3950(17) 0.0510(6) 0.3868(11)
C164_2 C 0.3648(7) 0.0093(14) 0.3950(15)
C168_2 C 0.3804(8) 0.3703(13) 0.0350(15)
C170_2 C 0.3216 0.1604 0.0673
C171_2 C 0.4142(8) 0.0412(13) 0.4079(14)
C175_2 C 0.3868(11) 0.3950(17) 0.0510(6)
C176_2 C 0.3950(15) 0.3648(7) 0.0093(14)
C177_2 C 0.4087(13) 0.0155(15) 0.4225(7)
C180_2 C 0.4079(14) 0.4142(8) 0.0412(13)
C182_2 C 0.4355 0.0101 0.4356
C184_2 C 0.4225(7) 0.4087(13) 0.0155(15)
O23_2 O 0.4202 0.0079 0.4601
O24_2 O 0.4601 0.0079 0.4209
C186_2 C 0.4356 0.4355 0.0101
Zr6_3 Zr 0.4463 0.0000 0.5000
O27_2 O 0.4601 0.4202 0.0079
O28_2 O 0.4209 0.4601 0.0079
Zr11 Zr 0.4463 0.5000 0.0000
H2_2 H 0.375322 0.399328 0.0711783
H7_2 H 0.433569 0.0537261 0.412956
H13_2 H 0.412956 0.433569 0.0537261
H14_2 H 0.331216 0.142886 0.0798873
H15_2 H 0.100672 0.0711783 0.124678
H18_2 H 0.0664305 0.0537261 0.0870444
H19_2 H 0.220208 0.0115952 0.172755
H20_2 H 0.162018 0.0946833 0.187029
H22_2 H 0.325376 0.0242684 0.236421
H23_2 H 0.234218 0.0966556 0.266728
H24_2 H 0.308957 0.0781656 0.144911
H25_2 H 0.357114 0.0798873 0.168784
H26_2 H 0.197333 0.13556 0.262784
H27_2 H 0.269197 0.049424 0.166631
H30_2 H 0.161283 0.134485 0.223049
H33_2 H 0.0870444 0.0664305 0.0537261
H39_2 H 0.365309 0.0529808 0.214656
H40_2 H 0.337982 0.0946833 0.312971
H41_2 H 0.302667 0.13556 0.237216
H44_2 H 0.262784 0.197333 0.13556
H47_2 H 0.223049 0.161283 0.134485
H48_2 H 0.187029 0.162018 0.0946833
H56_2 H 0.172755 0.220208 0.0115952
H57_2 H 0.236421 0.325376 0.0242684
H60_2 H 0.265782 0.0966556 0.233272
H61_2 H 0.266728 0.234218 0.0966556
H62_2 H 0.166631 0.269197 0.049424
H64_2 H 0.279792 0.0115952 0.327245
H65_2 H 0.124678 0.100672 0.0711783
H67_2 H 0.230803 0.049424 0.333369
H70_2 H 0.134691 0.0529808 0.285344
H74_2 H 0.333369 0.230803 0.049424
H76_2 H 0.263579 0.174624 0.0242684
H81_2 H 0.338717 0.134485 0.276951
H82_2 H 0.233272 0.265782 0.0966556
H84_2 H 0.327245 0.279792 0.0115952
H86_2 H 0.191043 0.0781656 0.355089
H90_2 H 0.214656 0.365309 0.0529808
H96_2 H 0.285344 0.134691 0.0529808
H97_2 H 0.355089 0.191043 0.0781656
H98_2 H 0.399328 0.0711783 0.375322
H100_2 H 0.168784 0.357114 0.0798873
H101_2 H 0.174624 0.0242684 0.263579
H106_2 H 0.237216 0.302667 0.13556
H108_2 H 0.276951 0.338717 0.134485
H109_2 H 0.142886 0.0798873 0.331216
H110_2 H 0.312971 0.337982 0.0946833
H114_2 H 0.144911 0.308957 0.0781656
C39_2 C 0.0839(11) 0.1160(17) 0.9995(6)
C76_2 C 0.1924 0.2738 0.9703
C90_2 C 0.1915 0.2547 0.9471
C91_2 C 0.1689 0.2918 0.9760
C109_2 C 0.1670 0.2534 0.9295
C110_2 C 0.1444 0.2906 0.9585
C127_2 C 0.3076 0.2262 0.9703
C131_2 C 0.1435 0.2714 0.9352
C145_2 C 0.3085 0.2453 0.9471
C146_2 C 0.3311 0.2082 0.9760
C159_2 C 0.3330 0.2466 0.9295
C160_2 C 0.3556 0.2094 0.9585
C169_2 C 0.3565 0.2286 0.9352
C181_2 C 0.4161(11) 0.3840(17) 0.9995(6)
Zr11_2 Zr 0.4463 0.5000 1.0000
H3_2 H 0.389944 0.345431 0.996774
H4_2 H 0.375654 0.229512 0.921419
H5_2 H 0.427578 0.379672 0.979322
H34_2 H 0.072422 0.120328 0.979322
H45_2 H 0.110056 0.154569 0.996774
H54_2 H 0.209981 0.240694 0.942635
H55_2 H 0.169692 0.306845 0.994184
H73_2 H 0.290019 0.259306 0.942635
H95_2 H 0.374052 0.195364 0.96299
H102_2 H 0.125948 0.304636 0.96299
H104_2 H 0.124346 0.270488 0.921419
H105_2 H 0.330308 0.193155 0.994184
H107_2 H 0.16625 0.238334 0.911332
H113_2 H 0.33375 0.261666 0.911332
C4_2 C 0.1160(17) 0.9995(6) 0.0839(11)
C19_2 C 0.2738 0.9703 0.1924
C22_2 C 0.2547 0.9471 0.1915
C23_2 C 0.2918 0.9760 0.1689
C26_2 C 0.2534 0.9295 0.1670
C27_2 C 0.2906 0.9585 0.1444
C30_2 C 0.2714 0.9352 0.1435
C37_2 C 0.0839(11) 0.8840(17) 0.0005(6)
C72_2 C 0.1924 0.7262 0.0297
C84_2 C 0.1915 0.7453 0.0529
C85_2 C 0.1689 0.7082 0.0240
C95_2 C 0.2262 0.9703 0.3076
C102_2 C 0.1670 0.7466 0.0705
C103_2 C 0.1444 0.7094 0.0415
C114_2 C 0.2453 0.9471 0.3085
C115_2 C 0.2082 0.9760 0.3311
C120_2 C 0.3076 0.7738 0.0297
C124_2 C 0.1435 0.7286 0.0648
C134_2 C 0.2466 0.9295 0.3330
C135_2 C 0.2094 0.9585 0.3556
C139_2 C 0.3085 0.7547 0.0529
C140_2 C 0.3311 0.7918 0.0240
C151_2 C 0.2286 0.9352 0.3565
C154_2 C 0.3330 0.7534 0.0705
C155_2 C 0.3556 0.7906 0.0415
C166_2 C 0.3565 0.7714 0.0648
C172_2 C 0.3840(17) 0.9995(6) 0.4161(11)
C179_2 C 0.4161(11) 0.6160(17) 0.0005(6)
Zr6_4 Zr 0.4463 1.0000 0.5000
H1_2 H 0.375654 0.770488 0.0785811
H10_2 H 0.389944 0.654569 0.00322605
H11_2 H 0.427578 0.620328 0.0206783
H12_2 H 0.379672 0.979322 0.427578
H16_2 H 0.120328 0.979322 0.072422
H17_2 H 0.154569 0.996774 0.110056
H21_2 H 0.240694 0.942635 0.209981
H28_2 H 0.238334 0.911332 0.16625
H29_2 H 0.270488 0.921419 0.124346
H32_2 H 0.072422 0.879672 0.0206783
H35_2 H 0.306845 0.994184 0.169692
H37_2 H 0.110056 0.845431 0.00322605
H38_2 H 0.304636 0.96299 0.125948
H43_2 H 0.169692 0.693155 0.00581561
H51_2 H 0.209981 0.759306 0.0573646
H66_2 H 0.16625 0.761666 0.0886683
H69_2 H 0.195364 0.96299 0.374052
H71_2 H 0.290019 0.740694 0.0573646
H72_2 H 0.125948 0.695364 0.0370096
H75_2 H 0.124346 0.729512 0.0785811
H77_2 H 0.330308 0.806845 0.00581561
H78_2 H 0.229512 0.921419 0.375654
H83_2 H 0.259306 0.942635 0.290019
H88_2 H 0.33375 0.738334 0.0886683
H89_2 H 0.261666 0.911332 0.33375
H94_2 H 0.193155 0.994184 0.330308
H99_2 H 0.345431 0.996774 0.389944
H111_2 H 0.374052 0.804636 0.0370096
O15_2 O 0.0399 0.9202 0.9921
C32_2 C 0.0644 0.9355 0.9899
C34_2 C 0.0775(7) 0.9087(13) 0.9845(15)
C36_2 C 0.0921(14) 0.9142(8) 0.9588(13)
C40_2 C 0.1132(11) 0.8950(17) 0.9490(6)
C41_2 C 0.1050(15) 0.8648(7) 0.9907(14)
C44_2 C 0.1196(8) 0.8703(13) 0.9650(15)
C46_2 C 0.1475(15) 0.8449(13) 0.9681(16)
C48_2 C 0.1637(14) 0.8238(13) 0.9578(15)
C50_2 C 0.1865(5) 0.8009(6) 0.9491(7)
C52_2 C 0.1886(7) 0.7802(8) 0.9709(6)
C53_2 C 0.2066(4) 0.8014(4) 0.9267(5)
C56_2 C 0.2110(9) 0.7600(6) 0.9703(6)
C57_2 C 0.2290(4) 0.7811(4) 0.9262(6)
C58_2 C 0.2045(7) 0.8221(5) 0.9049(7)
C63_2 C 0.2312(7) 0.7604(4) 0.9480(8)
P2_2 P 0.2204 0.7276 0.9963
C64_2 C 0.2492(5) 0.7816(7) 0.9038(8)
C65_2 C 0.2247(9) 0.8225(7) 0.8826(6)
C71_2 C 0.2688(7) 0.7396(4) 0.9480(8)
C73_2 C 0.2028 0.7052 0.9649
C74_2 C 0.2470(8) 0.8023(9) 0.8820(6)
C82_2 C 0.2890(9) 0.7400(6) 0.9703(6)
C83_2 C 0.2710(4) 0.7189(4) 0.9262(6)
C86_2 C 0.2163 0.6782 0.9639
C87_2 C 0.1772 0.7097 0.9498
C99_2 C 0.3114(7) 0.7198(8) 0.9709(6)
P5_2 P 0.2796 0.7724 0.9963
C100_2 C 0.2934(4) 0.6986(4) 0.9267(5)
C101_2 C 0.2508(5) 0.7184(7) 0.9038(8)
C104_2 C 0.2041 0.6558 0.9478
C105_2 C 0.1650 0.6874 0.9337
C119_2 C 0.3135(5) 0.6991(6) 0.9491(7)
C121_2 C 0.2972 0.7948 0.9649
C122_2 C 0.2955(7) 0.6779(5) 0.9049(7)
C123_2 C 0.2530(8) 0.6977(9) 0.8820(6)
C125_2 C 0.1784 0.6604 0.9327
C138_2 C 0.3363(14) 0.6762(13) 0.9578(15)
C141_2 C 0.2837 0.8218 0.9639
C142_2 C 0.3228 0.7903 0.9498
C143_2 C 0.2753(9) 0.6775(7) 0.8826(6)
C153_2 C 0.3525(15) 0.6551(13) 0.9681(16)
C156_2 C 0.2959 0.8442 0.9478
C157_2 C 0.3350 0.8126 0.9337
C165_2 C 0.3804(8) 0.6297(13) 0.9650(15)
C167_2 C 0.3216 0.8396 0.9327
C173_2 C 0.3868(11) 0.6050(17) 0.9490(6)
C174_2 C 0.3950(15) 0.6352(7) 0.9907(14)
C178_2 C 0.4079(14) 0.5858(8) 0.9588(13)
C183_2 C 0.4225(7) 0.5913(13) 0.9845(15)
C185_2 C 0.4356 0.5645 0.9899
O25_2 O 0.4601 0.5798 0.9921
O26_2 O 0.4209 0.5399 0.9921
H6_2 H 0.412956 0.566431 0.946274
H8_2 H 0.331216 0.857114 0.920113
H9_2 H 0.375322 0.600672 0.928822
H31_2 H 0.0870444 0.933569 0.946274
H36_2 H 0.124678 0.899328 0.928822
H42_2 H 0.233272 0.734218 0.903344
H46_2 H 0.223049 0.838717 0.865515
H49_2 H 0.262784 0.802667 0.86444
H50_2 H 0.187029 0.837982 0.905317
H52_2 H 0.236421 0.674624 0.975732
H53_2 H 0.166631 0.730803 0.950576
H58_2 H 0.327245 0.720208 0.988405
H59_2 H 0.172755 0.779792 0.988405
H63_2 H 0.266728 0.765782 0.903344
H68_2 H 0.214656 0.634691 0.947019
H79_2 H 0.237216 0.697333 0.86444
H80_2 H 0.144911 0.691043 0.921834
H85_2 H 0.312971 0.662018 0.905317
H87_2 H 0.263579 0.825376 0.975732
H91_2 H 0.276951 0.661283 0.865515
H92_2 H 0.355089 0.808957 0.921834
H93_2 H 0.333369 0.769197 0.950576
H103_2 H 0.168784 0.642886 0.920113
H112_2 H 0.285344 0.865309 0.947019
Zr1_5 Zr 0.0000 0.0000 0.9463
C4_3 C 0.1160(17) 0.0005(6) 0.9161(11)
C19_3 C 0.2738 0.0297 0.8076
C22_3 C 0.2547 0.0529 0.8085
C23_3 C 0.2918 0.0240 0.8311
C26_3 C 0.2534 0.0705 0.8330
C27_3 C 0.2906 0.0415 0.8556
C30_3 C 0.2714 0.0648 0.8565
C95_3 C 0.2262 0.0297 0.6924
C114_3 C 0.2453 0.0529 0.6915
C115_3 C 0.2082 0.0240 0.6689
C134_3 C 0.2466 0.0705 0.6670
C135_3 C 0.2094 0.0415 0.6444
C151_3 C 0.2286 0.0648 0.6435
C172_3 C 0.3840(17) 0.0005(6) 0.5839(11)
Zr7_3 Zr 0.5000 0.0000 0.5537
H12_3 H 0.379672 0.0206783 0.572422
H16_3 H 0.120328 0.0206783 0.927578
H17_3 H 0.154569 0.00322605 0.889944
H21_3 H 0.240694 0.0573646 0.790019
H28_3 H 0.238334 0.0886683 0.83375
H29_3 H 0.270488 0.0785811 0.875654
H35_3 H 0.306845 0.00581561 0.830308
H38_3 H 0.304636 0.0370096 0.874052
H69_3 H 0.195364 0.0370096 0.625948
H78_3 H 0.229512 0.0785811 0.624346
H83_3 H 0.259306 0.0573646 0.709981
H89_3 H 0.261666 0.0886683 0.66625
H94_3 H 0.193155 0.00581561 0.669692
H99_3 H 0.345431 0.00322605 0.610056
Zr1_6 Zr 0.0000 1.0000 0.9463
O3_2 O 0.0399 0.9921 0.9209
C1_3 C 0.0645 0.9899 0.9356
C2_3 C 0.0913(13) 0.9845(15) 0.9225(7)
C3_3 C 0.0858(8) 0.9588(13) 0.9079(14)
C5_3 C 0.1050(17) 0.9490(6) 0.8868(11)
C6_3 C 0.1352(7) 0.9907(14) 0.8950(15)
C7_3 C 0.1297(13) 0.9650(15) 0.8804(8)
C8_3 C 0.1551(13) 0.9681(16) 0.8525(15)
C9_3 C 0.1762(13) 0.9578(15) 0.8363(14)
C10_3 C 0.1991(6) 0.9491(7) 0.8135(5)
C11_3 C 0.2198(8) 0.9709(6) 0.8114(7)
C12_3 C 0.1986(4) 0.9267(5) 0.7934(4)
C13_3 C 0.2400(6) 0.9703(6) 0.7890(9)
C14_3 C 0.2189(4) 0.9262(6) 0.7710(4)
C15_3 C 0.1779(5) 0.9049(7) 0.7955(7)
C16_3 C 0.2396(4) 0.9480(8) 0.7688(7)
P1_3 P 0.2724 0.9963 0.7796
C17_3 C 0.2184(7) 0.9038(8) 0.7508(5)
C18_3 C 0.1775(7) 0.8826(6) 0.7753(9)
C20_3 C 0.2948 0.9649 0.7972
C21_3 C 0.1977(9) 0.8820(6) 0.7530(8)
C24_3 C 0.3218 0.9639 0.7837
C25_3 C 0.2903 0.9498 0.8228
C28_3 C 0.3442 0.9478 0.7959
C29_3 C 0.3126 0.9337 0.8350
C31_3 C 0.3396 0.9327 0.8216
O7_2 O 0.0079 0.9601 0.9202
C62_3 C 0.2604(4) 0.9480(8) 0.7312(7)
C69_3 C 0.2600(6) 0.9703(6) 0.7110(9)
C70_3 C 0.2811(4) 0.9262(6) 0.7290(4)
C79_3 C 0.2802(8) 0.9709(6) 0.6886(7)
P4_3 P 0.2276 0.9963 0.7204
C80_3 C 0.3014(4) 0.9267(5) 0.7066(4)
C81_3 C 0.2816(7) 0.9038(8) 0.7492(5)
C94_3 C 0.3009(6) 0.9491(7) 0.6865(5)
C96_3 C 0.2052 0.9649 0.7028
C97_3 C 0.3221(5) 0.9049(7) 0.7045(7)
C98_3 C 0.3023(9) 0.8820(6) 0.7470(8)
C113_3 C 0.3238(13) 0.9578(15) 0.6637(14)
C116_3 C 0.1782 0.9639 0.7163
C117_3 C 0.2097 0.9498 0.6772
C118_3 C 0.3225(7) 0.8826(6) 0.7247(9)
C133_3 C 0.3449(13) 0.9681(16) 0.6475(15)
C136_3 C 0.1558 0.9478 0.7041
C137_3 C 0.1874 0.9337 0.6650
C150_3 C 0.3703(13) 0.9650(15) 0.6196(8)
C152_3 C 0.1604 0.9327 0.6784
C163_3 C 0.3950(17) 0.9490(6) 0.6132(11)
C164_3 C 0.3648(7) 0.9907(14) 0.6050(15)
C171_3 C 0.4142(8) 0.9588(13) 0.5921(14)
C177_3 C 0.4087(13) 0.9845(15) 0.5775(7)
C182_3 C 0.4355 0.9899 0.5644
O23_3 O 0.4202 0.9921 0.5399
O24_3 O 0.4601 0.9921 0.5791
Zr7_4 Zr 0.5000 1.0000 0.5537
H7_3 H 0.433569 0.946274 0.587044
H15_3 H 0.100672 0.928822 0.875322
H18_3 H 0.0664305 0.946274 0.912956
H19_3 H 0.220208 0.988405 0.827245
H20_3 H 0.162018 0.905317 0.812971
H22_3 H 0.325376 0.975732 0.763579
H23_3 H 0.234218 0.903344 0.733272
H24_3 H 0.308957 0.921834 0.855089
H25_3 H 0.357114 0.920113 0.831216
H26_3 H 0.197333 0.86444 0.737216
H27_3 H 0.269197 0.950576 0.833369
H30_3 H 0.161283 0.865515 0.776951
H39_3 H 0.365309 0.947019 0.785344
H40_3 H 0.337982 0.905317 0.687029
H41_3 H 0.302667 0.86444 0.762784
H60_3 H 0.265782 0.903344 0.766728
H64_3 H 0.279792 0.988405 0.672755
H67_3 H 0.230803 0.950576 0.666631
H70_3 H 0.134691 0.947019 0.714656
H81_3 H 0.338717 0.865515 0.723049
H86_3 H 0.191043 0.921834 0.644911
H98_3 H 0.399328 0.928822 0.624678
H101_3 H 0.174624 0.975732 0.736421
H109_3 H 0.142886 0.920113 0.668784
Zr1_7 Zr 1.0000 0.0000 0.9463
O4_2 O 0.9921 0.0399 0.9202
O8_2 O 0.9601 0.0079 0.9209
Zr1_8 Zr 1.0000 1.0000 0.9463
C1_4 C 0.9355 0.0101 0.9356
C2_4 C 0.9087(13) 0.0155(15) 0.9225(7)
C3_4 C 0.9142(8) 0.0412(13) 0.9079(14)
C5_4 C 0.8950(17) 0.0510(6) 0.8868(11)
C6_4 C 0.8648(7) 0.0093(14) 0.8950(15)
C7_4 C 0.8703(13) 0.0350(15) 0.8804(8)
C8_4 C 0.8449(13) 0.0319(16) 0.8525(15)
C9_4 C 0.8238(13) 0.0422(15) 0.8363(14)
C10_4 C 0.8009(6) 0.0509(7) 0.8135(5)
C11_4 C 0.7802(8) 0.0291(6) 0.8114(7)
C12_4 C 0.8014(4) 0.0733(5) 0.7934(4)
C13_4 C 0.7600(6) 0.0297(6) 0.7890(9)
C14_4 C 0.7811(4) 0.0738(6) 0.7710(4)
C15_4 C 0.8221(5) 0.0951(7) 0.7955(7)
C16_4 C 0.7604(4) 0.0520(8) 0.7688(7)
P1_4 P 0.7276 0.0037 0.7796
C17_4 C 0.7816(7) 0.0962(8) 0.7508(5)
C18_4 C 0.8225(7) 0.1174(6) 0.7753(9)
C20_4 C 0.7052 0.0351 0.7972
C21_4 C 0.8023(9) 0.1180(6) 0.7530(8)
C24_4 C 0.6782 0.0361 0.7837
C25_4 C 0.7097 0.0502 0.8228
C28_4 C 0.6558 0.0522 0.7959
C29_4 C 0.6874 0.0663 0.8350
C31_4 C 0.6604 0.0673 0.8216
C62_4 C 0.7396(4) 0.0520(8) 0.7312(7)
C69_4 C 0.7400(6) 0.0297(6) 0.7110(9)
C70_4 C 0.7189(4) 0.0738(6) 0.7290(4)
C79_4 C 0.7198(8) 0.0291(6) 0.6886(7)
P4_4 P 0.7724 0.0037 0.7204
C80_4 C 0.6986(4) 0.0733(5) 0.7066(4)
C81_4 C 0.7184(7) 0.0962(8) 0.7492(5)
C94_4 C 0.6991(6) 0.0509(7) 0.6865(5)
C96_4 C 0.7948 0.0351 0.7028
C97_4 C 0.6779(5) 0.0951(7) 0.7045(7)
C98_4 C 0.6977(9) 0.1180(6) 0.7470(8)
C113_4 C 0.6762(13) 0.0422(15) 0.6637(14)
C116_4 C 0.8218 0.0361 0.7163
C117_4 C 0.7903 0.0502 0.6772
C118_4 C 0.6775(7) 0.1174(6) 0.7247(9)
C133_4 C 0.6551(13) 0.0319(16) 0.6475(15)
C136_4 C 0.8442 0.0522 0.7041
C137_4 C 0.8126 0.0663 0.6650
C150_4 C 0.6297(13) 0.0350(15) 0.6196(8)
C152_4 C 0.8396 0.0673 0.6784
C163_4 C 0.6050(17) 0.0510(6) 0.6132(11)
C164_4 C 0.6352(7) 0.0093(14) 0.6050(15)
C171_4 C 0.5858(8) 0.0412(13) 0.5921(14)
C177_4 C 0.5913(13) 0.0155(15) 0.5775(7)
C182_4 C 0.5645 0.0101 0.5644
O23_4 O 0.5798 0.0079 0.5399
O24_4 O 0.5399 0.0079 0.5791
H7_4 H 0.566431 0.0537261 0.587044
H15_4 H 0.899328 0.0711783 0.875322
H18_4 H 0.933569 0.0537261 0.912956
H19_4 H 0.779792 0.0115952 0.827245
H20_4 H 0.837982 0.0946833 0.812971
H22_4 H 0.674624 0.0242684 0.763579
H23_4 H 0.765782 0.0966556 0.733272
H24_4 H 0.691043 0.0781656 0.855089
H25_4 H 0.642886 0.0798873 0.831216
H26_4 H 0.802667 0.13556 0.737216
H27_4 H 0.730803 0.049424 0.833369
H30_4 H 0.838717 0.134485 0.776951
H39_4 H 0.634691 0.0529808 0.785344
H40_4 H 0.662018 0.0946833 0.687029
H41_4 H 0.697333 0.13556 0.762784
H60_4 H 0.734218 0.0966556 0.766728
H64_4 H 0.720208 0.0115952 0.672755
H67_4 H 0.769197 0.049424 0.666631
H70_4 H 0.865309 0.0529808 0.714656
H81_4 H 0.661283 0.134485 0.723049
H86_4 H 0.808957 0.0781656 0.644911
H98_4 H 0.600672 0.0711783 0.624678
H101_4 H 0.825376 0.0242684 0.736421
H109_4 H 0.857114 0.0798873 0.668784
C4_4 C 0.8840(17) 0.9995(6) 0.9161(11)
C19_4 C 0.7262 0.9703 0.8076
C22_4 C 0.7453 0.9471 0.8085
C23_4 C 0.7082 0.9760 0.8311
C26_4 C 0.7466 0.9295 0.8330
C27_4 C 0.7094 0.9585 0.8556
C30_4 C 0.7286 0.9352 0.8565
C95_4 C 0.7738 0.9703 0.6924
C114_4 C 0.7547 0.9471 0.6915
C115_4 C 0.7918 0.9760 0.6689
C134_4 C 0.7534 0.9295 0.6670
C135_4 C 0.7906 0.9585 0.6444
C151_4 C 0.7714 0.9352 0.6435
C172_4 C 0.6160(17) 0.9995(6) 0.5839(11)
H12_4 H 0.620328 0.979322 0.572422
H16_4 H 0.879672 0.979322 0.927578
H17_4 H 0.845431 0.996774 0.889944
H21_4 H 0.759306 0.942635 0.790019
H28_4 H 0.761666 0.911332 0.83375
H29_4 H 0.729512 0.921419 0.875654
H35_4 H 0.693155 0.994184 0.830308
H38_4 H 0.695364 0.96299 0.874052
H69_4 H 0.804636 0.96299 0.625948
H78_4 H 0.770488 0.921419 0.624346
H83_4 H 0.740694 0.942635 0.709981
H89_4 H 0.738334 0.911332 0.66625
H94_4 H 0.806845 0.994184 0.669692
H99_4 H 0.654569 0.996774 0.610056
O22_2 O 0.0079 0.0791 0.0399
C37_3 C 0.0005(6) 0.9161(11) 0.1160(17)
C72_3 C 0.0297 0.8076 0.2738
C84_3 C 0.0529 0.8085 0.2547
C85_3 C 0.0240 0.8311 0.2918
C102_3 C 0.0705 0.8330 0.2534
C103_3 C 0.0415 0.8556 0.2906
C120_3 C 0.0297 0.6924 0.2262
C124_3 C 0.0648 0.8565 0.2714
C139_3 C 0.0529 0.6915 0.2453
C140_3 C 0.0240 0.6689 0.2082
C154_3 C 0.0705 0.6670 0.2466
C155_3 C 0.0415 0.6444 0.2094
C166_3 C 0.0648 0.6435 0.2286
C179_3 C 0.0005(6) 0.5839(11) 0.3840(17)
Zr8_3 Zr 0.0000 0.5000 0.4463
Zr9_3 Zr 0.0000 0.5537 0.5000
H1_3 H 0.0785811 0.624346 0.229512
H10_3 H 0.00322605 0.610056 0.345431
H11_3 H 0.0206783 0.572422 0.379672
H32_3 H 0.0206783 0.927578 0.120328
H37_3 H 0.00322605 0.889944 0.154569
H43_3 H 0.00581561 0.830308 0.306845
H51_3 H 0.0573646 0.790019 0.240694
H66_3 H 0.0886683 0.83375 0.238334
H71_3 H 0.0573646 0.709981 0.259306
H72_3 H 0.0370096 0.874052 0.304636
H75_3 H 0.0785811 0.875654 0.270488
H77_3 H 0.00581561 0.669692 0.193155
H88_3 H 0.0886683 0.66625 0.261666
H111_3 H 0.0370096 0.625948 0.195364
O11_2 O 0.0079 0.9209 0.9601
C33_3 C 0.0101 0.9356 0.9355
C35_3 C 0.0155(15) 0.9225(7) 0.9087(13)
C38_3 C 0.0412(13) 0.9079(14) 0.9142(8)
C42_3 C 0.0510(6) 0.8868(11) 0.8950(17)
C43_3 C 0.0093(14) 0.8950(15) 0.8648(7)
C45_3 C 0.0350(15) 0.8804(8) 0.8703(13)
C47_3 C 0.0319(16) 0.8525(15) 0.8449(13)
C49_3 C 0.0422(15) 0.8363(14) 0.8238(13)
C51_3 C 0.0509(7) 0.8135(5) 0.8009(6)
C54_3 C 0.0291(6) 0.8114(7) 0.7802(8)
C55_3 C 0.0733(5) 0.7934(4) 0.8014(4)
C59_3 C 0.0297(6) 0.7890(9) 0.7600(6)
C60_3 C 0.0738(6) 0.7710(4) 0.7811(4)
C61_3 C 0.0951(7) 0.7955(7) 0.8221(5)
C66_3 C 0.0520(8) 0.7688(7) 0.7604(4)
P3_3 P 0.0037 0.7796 0.7276
C67_3 C 0.0962(8) 0.7508(5) 0.7816(7)
C68_3 C 0.1174(6) 0.7753(9) 0.8225(7)
C75_3 C 0.0520(8) 0.7312(7) 0.7396(4)
C77_3 C 0.0351 0.7972 0.7052
C78_3 C 0.1180(6) 0.7530(8) 0.8023(9)
C88_3 C 0.0297(6) 0.7110(9) 0.7400(6)
C89_3 C 0.0738(6) 0.7290(4) 0.7189(4)
C92_3 C 0.0361 0.7837 0.6782
C93_3 C 0.0502 0.8228 0.7097
C106_3 C 0.0291(6) 0.6886(7) 0.7198(8)
P6_3 P 0.0037 0.7204 0.7724
C107_3 C 0.0733(5) 0.7066(4) 0.6986(4)
C108_3 C 0.0962(8) 0.7492(5) 0.7184(7)
C111_3 C 0.0522 0.7959 0.6558
C112_3 C 0.0663 0.8350 0.6874
C126_3 C 0.0509(7) 0.6865(5) 0.6991(6)
C128_3 C 0.0351 0.7028 0.7948
C129_3 C 0.0951(7) 0.7045(7) 0.6779(5)
C130_3 C 0.1180(6) 0.7470(8) 0.6977(9)
C132_3 C 0.0673 0.8216 0.6604
C144_3 C 0.0422(15) 0.6637(14) 0.6762(13)
C147_3 C 0.0361 0.7163 0.8218
C148_3 C 0.0502 0.6772 0.7903
C149_3 C 0.1174(6) 0.7247(9) 0.6775(7)
C158_3 C 0.0319(16) 0.6475(15) 0.6551(13)
C161_3 C 0.0522 0.7041 0.8442
C162_3 C 0.0663 0.6650 0.8126
C168_3 C 0.0350(15) 0.6196(8) 0.6297(13)
C170_3 C 0.0673 0.6784 0.8396
C175_3 C 0.0510(6) 0.6132(11) 0.6050(17)
C176_3 C 0.0093(14) 0.6050(15) 0.6352(7)
C180_3 C 0.0412(13) 0.5921(14) 0.5858(8)
C184_3 C 0.0155(15) 0.5775(7) 0.5913(13)
C186_3 C 0.0101 0.5644 0.5645
O27_3 O 0.0079 0.5399 0.5798
O28_3 O 0.0079 0.5791 0.5399
Zr10_3 Zr 0.0000 0.5000 0.5537
H2_3 H 0.0711783 0.624678 0.600672
H13_3 H 0.0537261 0.587044 0.566431
H14_3 H 0.0798873 0.668784 0.857114
H33_3 H 0.0537261 0.912956 0.933569
H44_3 H 0.13556 0.737216 0.802667
H47_3 H 0.134485 0.776951 0.838717
H48_3 H 0.0946833 0.812971 0.837982
H56_3 H 0.0115952 0.827245 0.779792
H57_3 H 0.0242684 0.763579 0.674624
H61_3 H 0.0966556 0.733272 0.765782
H62_3 H 0.049424 0.833369 0.730803
H65_3 H 0.0711783 0.875322 0.899328
H74_3 H 0.049424 0.666631 0.769197
H76_3 H 0.0242684 0.736421 0.825376
H82_3 H 0.0966556 0.766728 0.734218
H84_3 H 0.0115952 0.672755 0.720208
H90_3 H 0.0529808 0.785344 0.634691
H96_3 H 0.0529808 0.714656 0.865309
H97_3 H 0.0781656 0.644911 0.808957
H100_3 H 0.0798873 0.831216 0.642886
H106_3 H 0.13556 0.762784 0.697333
H108_3 H 0.134485 0.723049 0.661283
H110_3 H 0.0946833 0.687029 0.662018
H114_3 H 0.0781656 0.855089 0.691043
O21_2 O 0.9921 0.0791 0.9601
O10_2 O 0.9921 0.9209 0.0399
C32_3 C 0.9899 0.9356 0.0645
C34_3 C 0.9845(15) 0.9225(7) 0.0913(13)
C36_3 C 0.9588(13) 0.9079(14) 0.0858(8)
C40_3 C 0.9490(6) 0.8868(11) 0.1050(17)
C41_3 C 0.9907(14) 0.8950(15) 0.1352(7)
C44_3 C 0.9650(15) 0.8804(8) 0.1297(13)
C46_3 C 0.9681(16) 0.8525(15) 0.1551(13)
C48_3 C 0.9578(15) 0.8363(14) 0.1762(13)
C50_3 C 0.9491(7) 0.8135(5) 0.1991(6)
C52_3 C 0.9709(6) 0.8114(7) 0.2198(8)
C53_3 C 0.9267(5) 0.7934(4) 0.1986(4)
C56_3 C 0.9703(6) 0.7890(9) 0.2400(6)
C57_3 C 0.9262(6) 0.7710(4) 0.2189(4)
C58_3 C 0.9049(7) 0.7955(7) 0.1779(5)
C63_3 C 0.9480(8) 0.7688(7) 0.2396(4)
P2_3 P 0.9963 0.7796 0.2724
C64_3 C 0.9038(8) 0.7508(5) 0.2184(7)
C65_3 C 0.8826(6) 0.7753(9) 0.1775(7)
C71_3 C 0.9480(8) 0.7312(7) 0.2604(4)
C73_3 C 0.9649 0.7972 0.2948
C74_3 C 0.8820(6) 0.7530(8) 0.1977(9)
C82_3 C 0.9703(6) 0.7110(9) 0.2600(6)
C83_3 C 0.9262(6) 0.7290(4) 0.2811(4)
C86_3 C 0.9639 0.7837 0.3218
C87_3 C 0.9498 0.8228 0.2903
C99_3 C 0.9709(6) 0.6886(7) 0.2802(8)
P5_3 P 0.9963 0.7204 0.2276
C100_3 C 0.9267(5) 0.7066(4) 0.3014(4)
C101_3 C 0.9038(8) 0.7492(5) 0.2816(7)
C104_3 C 0.9478 0.7959 0.3442
C105_3 C 0.9337 0.8350 0.3126
C119_3 C 0.9491(7) 0.6865(5) 0.3009(6)
C121_3 C 0.9649 0.7028 0.2052
C122_3 C 0.9049(7) 0.7045(7) 0.3221(5)
C123_3 C 0.8820(6) 0.7470(8) 0.3023(9)
C125_3 C 0.9327 0.8216 0.3396
C138_3 C 0.9578(15) 0.6637(14) 0.3238(13)
C141_3 C 0.9639 0.7163 0.1782
C142_3 C 0.9498 0.6772 0.2097
C143_3 C 0.8826(6) 0.7247(9) 0.3225(7)
C153_3 C 0.9681(16) 0.6475(15) 0.3449(13)
C156_3 C 0.9478 0.7041 0.1558
C157_3 C 0.9337 0.6650 0.1874
C165_3 C 0.9650(15) 0.6196(8) 0.3703(13)
C167_3 C 0.9327 0.6784 0.1604
C173_3 C 0.9490(6) 0.6132(11) 0.3950(17)
C174_3 C 0.9907(14) 0.6050(15) 0.3648(7)
C178_3 C 0.9588(13) 0.5921(14) 0.4142(8)
C183_3 C 0.9845(15) 0.5775(7) 0.4087(13)
C185_3 C 0.9899 0.5644 0.4355
O25_3 O 0.9921 0.5399 0.4202
O26_3 O 0.9921 0.5791 0.4601
Zr8_4 Zr 1.0000 0.5000 0.4463
Zr9_4 Zr 1.0000 0.5537 0.5000
H6_3 H 0.946274 0.587044 0.433569
H8_3 H 0.920113 0.668784 0.142886
H9_3 H 0.928822 0.624678 0.399328
H31_3 H 0.946274 0.912956 0.0664305
H36_3 H 0.928822 0.875322 0.100672
H42_3 H 0.903344 0.766728 0.265782
H46_3 H 0.865515 0.776951 0.161283
H49_3 H 0.86444 0.737216 0.197333
H50_3 H 0.905317 0.812971 0.162018
H52_3 H 0.975732 0.763579 0.325376
H53_3 H 0.950576 0.833369 0.269197
H58_3 H 0.988405 0.672755 0.279792
H59_3 H 0.988405 0.827245 0.220208
H63_3 H 0.903344 0.733272 0.234218
H68_3 H 0.947019 0.785344 0.365309
H79_3 H 0.86444 0.762784 0.302667
H80_3 H 0.921834 0.855089 0.308957
H85_3 H 0.905317 0.687029 0.337982
H87_3 H 0.975732 0.736421 0.174624
H91_3 H 0.865515 0.723049 0.338717
H92_3 H 0.921834 0.644911 0.191043
H93_3 H 0.950576 0.666631 0.230803
H103_3 H 0.920113 0.831216 0.357114
H112_3 H 0.947019 0.714656 0.134691
C39_3 C 0.9995(6) 0.9161(11) 0.8840(17)
C76_3 C 0.9703 0.8076 0.7262
C90_3 C 0.9471 0.8085 0.7453
C91_3 C 0.9760 0.8311 0.7082
C109_3 C 0.9295 0.8330 0.7466
C110_3 C 0.9585 0.8556 0.7094
C127_3 C 0.9703 0.6924 0.7738
C131_3 C 0.9352 0.8565 0.7286
C145_3 C 0.9471 0.6915 0.7547
C146_3 C 0.9760 0.6689 0.7918
C159_3 C 0.9295 0.6670 0.7534
C160_3 C 0.9585 0.6444 0.7906
C169_3 C 0.9352 0.6435 0.7714
C181_3 C 0.9995(6) 0.5839(11) 0.6160(17)
Zr10_4 Zr 1.0000 0.5000 0.5537
H3_3 H 0.996774 0.610056 0.654569
H4_3 H 0.921419 0.624346 0.770488
H5_3 H 0.979322 0.572422 0.620328
H34_3 H 0.979322 0.927578 0.879672
H45_3 H 0.996774 0.889944 0.845431
H54_3 H 0.942635 0.790019 0.759306
H55_3 H 0.994184 0.830308 0.693155
H73_3 H 0.942635 0.709981 0.740694
H95_3 H 0.96299 0.625948 0.804636
H102_3 H 0.96299 0.874052 0.695364
H104_3 H 0.921419 0.875654 0.729512
H105_3 H 0.994184 0.669692 0.806845
H107_3 H 0.911332 0.83375 0.761666
H113_3 H 0.911332 0.66625 0.738334
C33_4 C 0.0101 0.0644 0.0645
C35_4 C 0.0155(15) 0.0775(7) 0.0913(13)
C38_4 C 0.0412(13) 0.0921(14) 0.0858(8)
C42_4 C 0.0510(6) 0.1132(11) 0.1050(17)
C43_4 C 0.0093(14) 0.1050(15) 0.1352(7)
C45_4 C 0.0350(15) 0.1196(8) 0.1297(13)
C47_4 C 0.0319(16) 0.1475(15) 0.1551(13)
C49_4 C 0.0422(15) 0.1637(14) 0.1762(13)
C51_4 C 0.0509(7) 0.1865(5) 0.1991(6)
C54_4 C 0.0291(6) 0.1886(7) 0.2198(8)
C55_4 C 0.0733(5) 0.2066(4) 0.1986(4)
C59_4 C 0.0297(6) 0.2110(9) 0.2400(6)
C60_4 C 0.0738(6) 0.2290(4) 0.2189(4)
C61_4 C 0.0951(7) 0.2045(7) 0.1779(5)
C66_4 C 0.0520(8) 0.2312(7) 0.2396(4)
P3_4 P 0.0037 0.2204 0.2724
C67_4 C 0.0962(8) 0.2492(5) 0.2184(7)
C68_4 C 0.1174(6) 0.2247(9) 0.1775(7)
C75_4 C 0.0520(8) 0.2688(7) 0.2604(4)
C77_4 C 0.0351 0.2028 0.2948
C78_4 C 0.1180(6) 0.2470(8) 0.1977(9)
C88_4 C 0.0297(6) 0.2890(9) 0.2600(6)
C89_4 C 0.0738(6) 0.2710(4) 0.2811(4)
C92_4 C 0.0361 0.2163 0.3218
C93_4 C 0.0502 0.1772 0.2903
C106_4 C 0.0291(6) 0.3114(7) 0.2802(8)
P6_4 P 0.0037 0.2796 0.2276
C107_4 C 0.0733(5) 0.2934(4) 0.3014(4)
C108_4 C 0.0962(8) 0.2508(5) 0.2816(7)
C111_4 C 0.0522 0.2041 0.3442
C112_4 C 0.0663 0.1650 0.3126
C126_4 C 0.0509(7) 0.3135(5) 0.3009(6)
C128_4 C 0.0351 0.2972 0.2052
C129_4 C 0.0951(7) 0.2955(7) 0.3221(5)
C130_4 C 0.1180(6) 0.2530(8) 0.3023(9)
C132_4 C 0.0673 0.1784 0.3396
C144_4 C 0.0422(15) 0.3363(14) 0.3238(13)
C147_4 C 0.0361 0.2837 0.1782
C148_4 C 0.0502 0.3228 0.2097
C149_4 C 0.1174(6) 0.2753(9) 0.3225(7)
C158_4 C 0.0319(16) 0.3525(15) 0.3449(13)
C161_4 C 0.0522 0.2959 0.1558
C162_4 C 0.0663 0.3350 0.1874
C168_4 C 0.0350(15) 0.3804(8) 0.3703(13)
C170_4 C 0.0673 0.3216 0.1604
C175_4 C 0.0510(6) 0.3868(11) 0.3950(17)
C176_4 C 0.0093(14) 0.3950(15) 0.3648(7)
C180_4 C 0.0412(13) 0.4079(14) 0.4142(8)
C184_4 C 0.0155(15) 0.4225(7) 0.4087(13)
C186_4 C 0.0101 0.4356 0.4355
O27_4 O 0.0079 0.4601 0.4202
O28_4 O 0.0079 0.4209 0.4601
Zr11_3 Zr 0.0000 0.4463 0.5000
H2_4 H 0.0711783 0.375322 0.399328
H13_4 H 0.0537261 0.412956 0.433569
H14_4 H 0.0798873 0.331216 0.142886
H33_4 H 0.0537261 0.0870444 0.0664305
H44_4 H 0.13556 0.262784 0.197333
H47_4 H 0.134485 0.223049 0.161283
H48_4 H 0.0946833 0.187029 0.162018
H56_4 H 0.0115952 0.172755 0.220208
H57_4 H 0.0242684 0.236421 0.325376
H61_4 H 0.0966556 0.266728 0.234218
H62_4 H 0.049424 0.166631 0.269197
H65_4 H 0.0711783 0.124678 0.100672
H74_4 H 0.049424 0.333369 0.230803
H76_4 H 0.0242684 0.263579 0.174624
H82_4 H 0.0966556 0.233272 0.265782
H84_4 H 0.0115952 0.327245 0.279792
H90_4 H 0.0529808 0.214656 0.365309
H96_4 H 0.0529808 0.285344 0.134691
H97_4 H 0.0781656 0.355089 0.191043
H100_4 H 0.0798873 0.168784 0.357114
H106_4 H 0.13556 0.237216 0.302667
H108_4 H 0.134485 0.276951 0.338717
H110_4 H 0.0946833 0.312971 0.337982
H114_4 H 0.0781656 0.144911 0.308957
C37_4 C 0.0005(6) 0.0839(11) 0.8840(17)
C72_4 C 0.0297 0.1924 0.7262
C84_4 C 0.0529 0.1915 0.7453
C85_4 C 0.0240 0.1689 0.7082
C102_4 C 0.0705 0.1670 0.7466
C103_4 C 0.0415 0.1444 0.7094
C120_4 C 0.0297 0.3076 0.7738
C124_4 C 0.0648 0.1435 0.7286
C139_4 C 0.0529 0.3085 0.7547
C140_4 C 0.0240 0.3311 0.7918
C154_4 C 0.0705 0.3330 0.7534
C155_4 C 0.0415 0.3556 0.7906
C166_4 C 0.0648 0.3565 0.7714
C179_4 C 0.0005(6) 0.4161(11) 0.6160(17)
H1_4 H 0.0785811 0.375654 0.770488
H10_4 H 0.00322605 0.389944 0.654569
H11_4 H 0.0206783 0.427578 0.620328
H32_4 H 0.0206783 0.072422 0.879672
H37_4 H 0.00322605 0.110056 0.845431
H43_4 H 0.00581561 0.169692 0.693155
H51_4 H 0.0573646 0.209981 0.759306
H66_4 H 0.0886683 0.16625 0.761666
H71_4 H 0.0573646 0.290019 0.740694
H72_4 H 0.0370096 0.125948 0.695364
H75_4 H 0.0785811 0.124346 0.729512
H77_4 H 0.00581561 0.330308 0.806845
H88_4 H 0.0886683 0.33375 0.738334
H111_4 H 0.0370096 0.374052 0.804636
C39_4 C 0.9995(6) 0.0839(11) 0.1160(17)
C76_4 C 0.9703 0.1924 0.2738
C90_4 C 0.9471 0.1915 0.2547
C91_4 C 0.9760 0.1689 0.2918
C109_4 C 0.9295 0.1670 0.2534
C110_4 C 0.9585 0.1444 0.2906
C127_4 C 0.9703 0.3076 0.2262
C131_4 C 0.9352 0.1435 0.2714
C145_4 C 0.9471 0.3085 0.2453
C146_4 C 0.9760 0.3311 0.2082
C159_4 C 0.9295 0.3330 0.2466
C160_4 C 0.9585 0.3556 0.2094
C169_4 C 0.9352 0.3565 0.2286
C181_4 C 0.9995(6) 0.4161(11) 0.3840(17)
Zr11_4 Zr 1.0000 0.4463 0.5000
H3_4 H 0.996774 0.389944 0.345431
H4_4 H 0.921419 0.375654 0.229512
H5_4 H 0.979322 0.427578 0.379672
H34_4 H 0.979322 0.072422 0.120328
H45_4 H 0.996774 0.110056 0.154569
H54_4 H 0.942635 0.209981 0.240694
H55_4 H 0.994184 0.169692 0.306845
H73_4 H 0.942635 0.290019 0.259306
H95_4 H 0.96299 0.374052 0.195364
H102_4 H 0.96299 0.125948 0.304636
H104_4 H 0.921419 0.124346 0.270488
H105_4 H 0.994184 0.330308 0.193155
H107_4 H 0.911332 0.16625 0.238334
H113_4 H 0.911332 0.33375 0.261666
C32_4 C 0.9899 0.0644 0.9355
C34_4 C 0.9845(15) 0.0775(7) 0.9087(13)
C36_4 C 0.9588(13) 0.0921(14) 0.9142(8)
C40_4 C 0.9490(6) 0.1132(11) 0.8950(17)
C41_4 C 0.9907(14) 0.1050(15) 0.8648(7)
C44_4 C 0.9650(15) 0.1196(8) 0.8703(13)
C46_4 C 0.9681(16) 0.1475(15) 0.8449(13)
C48_4 C 0.9578(15) 0.1637(14) 0.8238(13)
C50_4 C 0.9491(7) 0.1865(5) 0.8009(6)
C52_4 C 0.9709(6) 0.1886(7) 0.7802(8)
C53_4 C 0.9267(5) 0.2066(4) 0.8014(4)
C56_4 C 0.9703(6) 0.2110(9) 0.7600(6)
C57_4 C 0.9262(6) 0.2290(4) 0.7811(4)
C58_4 C 0.9049(7) 0.2045(7) 0.8221(5)
C63_4 C 0.9480(8) 0.2312(7) 0.7604(4)
P2_4 P 0.9963 0.2204 0.7276
C64_4 C 0.9038(8) 0.2492(5) 0.7816(7)
C65_4 C 0.8826(6) 0.2247(9) 0.8225(7)
C71_4 C 0.9480(8) 0.2688(7) 0.7396(4)
C73_4 C 0.9649 0.2028 0.7052
C74_4 C 0.8820(6) 0.2470(8) 0.8023(9)
C82_4 C 0.9703(6) 0.2890(9) 0.7400(6)
C83_4 C 0.9262(6) 0.2710(4) 0.7189(4)
C86_4 C 0.9639 0.2163 0.6782
C87_4 C 0.9498 0.1772 0.7097
C99_4 C 0.9709(6) 0.3114(7) 0.7198(8)
P5_4 P 0.9963 0.2796 0.7724
C100_4 C 0.9267(5) 0.2934(4) 0.6986(4)
C101_4 C 0.9038(8) 0.2508(5) 0.7184(7)
C104_4 C 0.9478 0.2041 0.6558
C105_4 C 0.9337 0.1650 0.6874
C119_4 C 0.9491(7) 0.3135(5) 0.6991(6)
C121_4 C 0.9649 0.2972 0.7948
C122_4 C 0.9049(7) 0.2955(7) 0.6779(5)
C123_4 C 0.8820(6) 0.2530(8) 0.6977(9)
C125_4 C 0.9327 0.1784 0.6604
C138_4 C 0.9578(15) 0.3363(14) 0.6762(13)
C141_4 C 0.9639 0.2837 0.8218
C142_4 C 0.9498 0.3228 0.7903
C143_4 C 0.8826(6) 0.2753(9) 0.6775(7)
C153_4 C 0.9681(16) 0.3525(15) 0.6551(13)
C156_4 C 0.9478 0.2959 0.8442
C157_4 C 0.9337 0.3350 0.8126
C165_4 C 0.9650(15) 0.3804(8) 0.6297(13)
C167_4 C 0.9327 0.3216 0.8396
C173_4 C 0.9490(6) 0.3868(11) 0.6050(17)
C174_4 C 0.9907(14) 0.3950(15) 0.6352(7)
C178_4 C 0.9588(13) 0.4079(14) 0.5858(8)
C183_4 C 0.9845(15) 0.4225(7) 0.5913(13)
C185_4 C 0.9899 0.4356 0.5645
O25_4 O 0.9921 0.4601 0.5798
O26_4 O 0.9921 0.4209 0.5399
H6_4 H 0.946274 0.412956 0.566431
H8_4 H 0.920113 0.331216 0.857114
H9_4 H 0.928822 0.375322 0.600672
H31_4 H 0.946274 0.0870444 0.933569
H36_4 H 0.928822 0.124678 0.899328
H42_4 H 0.903344 0.233272 0.734218
H46_4 H 0.865515 0.223049 0.838717
H49_4 H 0.86444 0.262784 0.802667
H50_4 H 0.905317 0.187029 0.837982
H52_4 H 0.975732 0.236421 0.674624
H53_4 H 0.950576 0.166631 0.730803
H58_4 H 0.988405 0.327245 0.720208
H59_4 H 0.988405 0.172755 0.779792
H63_4 H 0.903344 0.266728 0.765782
H68_4 H 0.947019 0.214656 0.634691
H79_4 H 0.86444 0.237216 0.697333
H80_4 H 0.921834 0.144911 0.691043
H85_4 H 0.905317 0.312971 0.662018
H87_4 H 0.975732 0.263579 0.825376
H91_4 H 0.865515 0.276951 0.661283
H92_4 H 0.921834 0.355089 0.808957
H93_4 H 0.950576 0.333369 0.769197
H103_4 H 0.920113 0.168784 0.642886
H112_4 H 0.947019 0.285344 0.865309
O5_2 O 0.0291 0.4709 0.5291
O6_2 O 0.0256 0.5256 0.5256
O8_3 O 0.0399 0.5079 0.5791
Zr5_5 Zr 0.0537 0.5000 0.5000
O16_2 O 0.0291 0.5291 0.4709
O18_2 O 0.0256 0.4744 0.4744
O19_2 O 0.0798 0.5079 0.5399
O20_2 O 0.0798 0.4921 0.4601
O21_3 O 0.0791 0.4601 0.4921
O22_3 O 0.0791 0.5399 0.5079
O1_2 O 0.9709 0.5291 0.5291
O2_2 O 0.9744 0.4744 0.5256
O3_3 O 0.9601 0.4921 0.5791
C1_5 C 0.9355 0.4899 0.5644
C2_5 C 0.9087(13) 0.4845(15) 0.5775(7)
C3_5 C 0.9142(8) 0.4588(13) 0.5921(14)
C4_5 C 0.8840(17) 0.5005(6) 0.5839(11)
C5_5 C 0.8950(17) 0.4490(6) 0.6132(11)
C6_5 C 0.8648(7) 0.4907(14) 0.6050(15)
C7_5 C 0.8703(13) 0.4650(15) 0.6196(8)
C8_5 C 0.8449(13) 0.4681(16) 0.6475(15)
C9_5 C 0.8238(13) 0.4578(15) 0.6637(14)
C10_5 C 0.8009(6) 0.4491(7) 0.6865(5)
C11_5 C 0.7802(8) 0.4709(6) 0.6886(7)
C12_5 C 0.8014(4) 0.4267(5) 0.7066(4)
C13_5 C 0.7600(6) 0.4703(6) 0.7110(9)
C14_5 C 0.7811(4) 0.4262(6) 0.7290(4)
C15_5 C 0.8221(5) 0.4049(7) 0.7045(7)
C16_5 C 0.7604(4) 0.4480(8) 0.7312(7)
P1_5 P 0.7276 0.4963 0.7204
C17_5 C 0.7816(7) 0.4038(8) 0.7492(5)
C18_5 C 0.8225(7) 0.3826(6) 0.7247(9)
C19_5 C 0.7262 0.5297 0.6924
C20_5 C 0.7052 0.4649 0.7028
C21_5 C 0.8023(9) 0.3820(6) 0.7470(8)
C22_5 C 0.7453 0.5529 0.6915
C23_5 C 0.7082 0.5240 0.6689
C24_5 C 0.6782 0.4639 0.7163
C25_5 C 0.7097 0.4498 0.6772
C26_5 C 0.7466 0.5705 0.6670
C27_5 C 0.7094 0.5415 0.6444
C28_5 C 0.6558 0.4478 0.7041
C29_5 C 0.6874 0.4337 0.6650
C30_5 C 0.7286 0.5648 0.6435
C31_5 C 0.6604 0.4327 0.6784
Zr2_5 Zr 0.9463 0.5000 0.5000
O9_2 O 0.9202 0.4921 0.5399
O10_3 O 0.9209 0.5399 0.4921
O11_3 O 0.9209 0.4601 0.5079
O12_2 O 0.9709 0.4709 0.4709
O13_2 O 0.9744 0.5256 0.4744
O14_2 O 0.9202 0.5079 0.4601
O15_3 O 0.9601 0.5798 0.4921
O17_3 O 0.9601 0.4202 0.5079
C32_5 C 0.9356 0.5645 0.4899
C33_5 C 0.9356 0.4355 0.5101
C34_5 C 0.9225(7) 0.5913(13) 0.4845(15)
C35_5 C 0.9225(7) 0.4087(13) 0.5155(15)
C36_5 C 0.9079(14) 0.5858(8) 0.4588(13)
C37_5 C 0.9161(11) 0.6160(17) 0.5005(6)
C38_5 C 0.9079(14) 0.4142(8) 0.5412(13)
C39_5 C 0.9161(11) 0.3840(17) 0.4995(6)
C40_5 C 0.8868(11) 0.6050(17) 0.4490(6)
C41_5 C 0.8950(15) 0.6352(7) 0.4907(14)
C42_5 C 0.8868(11) 0.3950(17) 0.5510(6)
C43_5 C 0.8950(15) 0.3648(7) 0.5093(14)
C44_5 C 0.8804(8) 0.6297(13) 0.4650(15)
C45_5 C 0.8804(8) 0.3703(13) 0.5350(15)
C46_5 C 0.8525(15) 0.6551(13) 0.4681(16)
C47_5 C 0.8525(15) 0.3449(13) 0.5319(16)
C48_5 C 0.8363(14) 0.6762(13) 0.4578(15)
C49_5 C 0.8363(14) 0.3238(13) 0.5422(15)
C50_5 C 0.8135(5) 0.6991(6) 0.4491(7)
C51_5 C 0.8135(5) 0.3009(6) 0.5509(7)
C52_5 C 0.8114(7) 0.7198(8) 0.4709(6)
C53_5 C 0.7934(4) 0.6986(4) 0.4267(5)
C54_5 C 0.8114(7) 0.2802(8) 0.5291(6)
C55_5 C 0.7934(4) 0.3014(4) 0.5733(5)
C56_5 C 0.7890(9) 0.7400(6) 0.4703(6)
C57_5 C 0.7710(4) 0.7189(4) 0.4262(6)
C58_5 C 0.7955(7) 0.6779(5) 0.4049(7)
C59_5 C 0.7890(9) 0.2600(6) 0.5297(6)
C60_5 C 0.7710(4) 0.2811(4) 0.5738(6)
C61_5 C 0.7955(7) 0.3221(5) 0.5951(7)
C62_5 C 0.7396(4) 0.4480(8) 0.7688(7)
C63_5 C 0.7688(7) 0.7396(4) 0.4480(8)
P2_5 P 0.7796 0.7724 0.4963
C64_5 C 0.7508(5) 0.7184(7) 0.4038(8)
C65_5 C 0.7753(9) 0.6775(7) 0.3826(6)
C66_5 C 0.7688(7) 0.2604(4) 0.5520(8)
P3_5 P 0.7796 0.2276 0.5037
C67_5 C 0.7508(5) 0.2816(7) 0.5962(8)
C68_5 C 0.7753(9) 0.3225(7) 0.6174(6)
C69_5 C 0.7400(6) 0.4703(6) 0.7890(9)
C70_5 C 0.7189(4) 0.4262(6) 0.7710(4)
C71_5 C 0.7312(7) 0.7604(4) 0.4480(8)
C72_5 C 0.8076 0.7738 0.5297
C73_5 C 0.7972 0.7948 0.4649
C74_5 C 0.7530(8) 0.6977(9) 0.3820(6)
C75_5 C 0.7312(7) 0.2396(4) 0.5520(8)
C76_5 C 0.8076 0.2262 0.4703
C77_5 C 0.7972 0.2052 0.5351
C78_5 C 0.7530(8) 0.3023(9) 0.6180(6)
C79_5 C 0.7198(8) 0.4709(6) 0.8114(7)
P4_5 P 0.7724 0.4963 0.7796
C80_5 C 0.6986(4) 0.4267(5) 0.7934(4)
C81_5 C 0.7184(7) 0.4038(8) 0.7508(5)
C82_5 C 0.7110(9) 0.7600(6) 0.4703(6)
C83_5 C 0.7290(4) 0.7811(4) 0.4262(6)
C84_5 C 0.8085 0.7547 0.5529
C85_5 C 0.8311 0.7918 0.5240
C86_5 C 0.7837 0.8218 0.4639
C87_5 C 0.8228 0.7903 0.4498
C88_5 C 0.7110(9) 0.2400(6) 0.5297(6)
C89_5 C 0.7290(4) 0.2189(4) 0.5738(6)
C90_5 C 0.8085 0.2453 0.4471
C91_5 C 0.8311 0.2082 0.4760
C92_5 C 0.7837 0.1782 0.5361
C93_5 C 0.8228 0.2097 0.5502
C94_5 C 0.6991(6) 0.4491(7) 0.8135(5)
C95_5 C 0.7738 0.5297 0.8076
C96_5 C 0.7948 0.4649 0.7972
C97_5 C 0.6779(5) 0.4049(7) 0.7955(7)
C98_5 C 0.6977(9) 0.3820(6) 0.7530(8)
C99_5 C 0.6886(7) 0.7802(8) 0.4709(6)
P5_5 P 0.7204 0.7276 0.4963
C100_5 C 0.7066(4) 0.8014(4) 0.4267(5)
C101_5 C 0.7492(5) 0.7816(7) 0.4038(8)
C102_5 C 0.8330 0.7534 0.5705
C103_5 C 0.8556 0.7906 0.5415
C104_5 C 0.7959 0.8442 0.4478
C105_5 C 0.8350 0.8126 0.4337
C106_5 C 0.6886(7) 0.2198(8) 0.5291(6)
P6_5 P 0.7204 0.2724 0.5037
C107_5 C 0.7066(4) 0.1986(4) 0.5733(5)
C108_5 C 0.7492(5) 0.2184(7) 0.5962(8)
C109_5 C 0.8330 0.2466 0.4295
C110_5 C 0.8556 0.2094 0.4585
C111_5 C 0.7959 0.1558 0.5522
C112_5 C 0.8350 0.1874 0.5663
C113_5 C 0.6762(13) 0.4578(15) 0.8363(14)
C114_5 C 0.7547 0.5529 0.8085
C115_5 C 0.7918 0.5240 0.8311
C116_5 C 0.8218 0.4639 0.7837
C117_5 C 0.7903 0.4498 0.8228
C118_5 C 0.6775(7) 0.3826(6) 0.7753(9)
C119_5 C 0.6865(5) 0.8009(6) 0.4491(7)
C120_5 C 0.6924 0.7262 0.5297
C121_5 C 0.7028 0.7052 0.4649
C122_5 C 0.7045(7) 0.8221(5) 0.4049(7)
C123_5 C 0.7470(8) 0.8023(9) 0.3820(6)
C124_5 C 0.8565 0.7714 0.5648
C125_5 C 0.8216 0.8396 0.4327
C126_5 C 0.6865(5) 0.1991(6) 0.5509(7)
C127_5 C 0.6924 0.2738 0.4703
C128_5 C 0.7028 0.2948 0.5351
C129_5 C 0.7045(7) 0.1779(5) 0.5951(7)
C130_5 C 0.7470(8) 0.1977(9) 0.6180(6)
C131_5 C 0.8565 0.2286 0.4352
C132_5 C 0.8216 0.1604 0.5673
C133_5 C 0.6551(13) 0.4681(16) 0.8525(15)
C134_5 C 0.7534 0.5705 0.8330
C135_5 C 0.7906 0.5415 0.8556
C136_5 C 0.8442 0.4478 0.7959
C137_5 C 0.8126 0.4337 0.8350
C138_5 C 0.6637(14) 0.8238(13) 0.4578(15)
C139_5 C 0.6915 0.7453 0.5529
C140_5 C 0.6689 0.7082 0.5240
C141_5 C 0.7163 0.6782 0.4639
C142_5 C 0.6772 0.7097 0.4498
C143_5 C 0.7247(9) 0.8225(7) 0.3826(6)
C144_5 C 0.6637(14) 0.1762(13) 0.5422(15)
C145_5 C 0.6915 0.2547 0.4471
C146_5 C 0.6689 0.2918 0.4760
C147_5 C 0.7163 0.3218 0.5361
C148_5 C 0.6772 0.2903 0.5502
C149_5 C 0.7247(9) 0.1775(7) 0.6174(6)
C150_5 C 0.6297(13) 0.4650(15) 0.8804(8)
C151_5 C 0.7714 0.5648 0.8565
C152_5 C 0.8396 0.4327 0.8216
C153_5 C 0.6475(15) 0.8449(13) 0.4681(16)
C154_5 C 0.6670 0.7466 0.5705
C155_5 C 0.6444 0.7094 0.5415
C156_5 C 0.7041 0.6558 0.4478
C157_5 C 0.6650 0.6874 0.4337
C158_5 C 0.6475(15) 0.1551(13) 0.5319(16)
C159_5 C 0.6670 0.2534 0.4295
C160_5 C 0.6444 0.2906 0.4585
C161_5 C 0.7041 0.3442 0.5522
C162_5 C 0.6650 0.3126 0.5663
C163_5 C 0.6050(17) 0.4490(6) 0.8868(11)
C164_5 C 0.6352(7) 0.4907(14) 0.8950(15)
C165_5 C 0.6196(8) 0.8703(13) 0.4650(15)
C166_5 C 0.6435 0.7286 0.5648
C167_5 C 0.6784 0.6604 0.4327
C168_5 C 0.6196(8) 0.1297(13) 0.5350(15)
C169_5 C 0.6435 0.2714 0.4352
C170_5 C 0.6784 0.3396 0.5673
C171_5 C 0.5858(8) 0.4588(13) 0.9079(14)
C172_5 C 0.6160(17) 0.5005(6) 0.9161(11)
C173_5 C 0.6132(11) 0.8950(17) 0.4490(6)
C174_5 C 0.6050(15) 0.8648(7) 0.4907(14)
C175_5 C 0.6132(11) 0.1050(17) 0.5510(6)
C176_5 C 0.6050(15) 0.1352(7) 0.5093(14)
C177_5 C 0.5913(13) 0.4845(15) 0.9225(7)
C178_5 C 0.5921(14) 0.9142(8) 0.4588(13)
C179_5 C 0.5839(11) 0.8840(17) 0.5005(6)
C180_5 C 0.5921(14) 0.0858(8) 0.5412(13)
C181_5 C 0.5839(11) 0.1160(17) 0.4995(6)
C182_5 C 0.5645 0.4899 0.9356
C183_5 C 0.5775(7) 0.9087(13) 0.4845(15)
C184_5 C 0.5775(7) 0.0913(13) 0.5155(15)
O23_5 O 0.5798 0.4921 0.9601
O24_5 O 0.5399 0.4921 0.9209
C185_5 C 0.5644 0.9355 0.4899
C186_5 C 0.5644 0.0645 0.5101
Zr7_5 Zr 0.5000 0.5000 0.9463
O25_5 O 0.5399 0.9202 0.4921
O26_5 O 0.5791 0.9601 0.4921
O27_5 O 0.5399 0.0798 0.5079
O28_5 O 0.5791 0.0399 0.5079
Zr8_5 Zr 0.5000 0.9463 0.5000
Zr10_5 Zr 0.5000 0.0537 0.5000
H1_5 H 0.624346 0.729512 0.578581
H2_5 H 0.624678 0.100672 0.571178
H3_5 H 0.610056 0.154569 0.496774
H4_5 H 0.624346 0.270488 0.421419
H5_5 H 0.572422 0.120328 0.479322
H6_5 H 0.587044 0.933569 0.446274
H7_5 H 0.566431 0.446274 0.912956
H8_5 H 0.668784 0.642886 0.420113
H9_5 H 0.624678 0.899328 0.428822
H10_5 H 0.610056 0.845431 0.503226
H11_5 H 0.572422 0.879672 0.520678
H12_5 H 0.620328 0.520678 0.927578
H13_5 H 0.587044 0.0664305 0.553726
H14_5 H 0.668784 0.357114 0.579887
H15_5 H 0.899328 0.428822 0.624678
H16_5 H 0.879672 0.520678 0.572422
H17_5 H 0.845431 0.503226 0.610056
H18_5 H 0.933569 0.446274 0.587044
H19_5 H 0.779792 0.488405 0.672755
H20_5 H 0.837982 0.405317 0.687029
H21_5 H 0.759306 0.557365 0.709981
H22_5 H 0.674624 0.475732 0.736421
H23_5 H 0.765782 0.403344 0.766728
H24_5 H 0.691043 0.421834 0.644911
H25_5 H 0.642886 0.420113 0.668784
H26_5 H 0.802667 0.36444 0.762784
H27_5 H 0.730803 0.450576 0.666631
H28_5 H 0.761666 0.588668 0.66625
H29_5 H 0.729512 0.578581 0.624346
H30_5 H 0.838717 0.365515 0.723049
H31_5 H 0.912956 0.566431 0.446274
H32_5 H 0.927578 0.620328 0.520678
H33_5 H 0.912956 0.433569 0.553726
H34_5 H 0.927578 0.379672 0.479322
H35_5 H 0.693155 0.505816 0.669692
H36_5 H 0.875322 0.600672 0.428822
H37_5 H 0.889944 0.654569 0.503226
H38_5 H 0.695364 0.53701 0.625948
H39_5 H 0.634691 0.447019 0.714656
H40_5 H 0.662018 0.405317 0.812971
H41_5 H 0.697333 0.36444 0.737216
H42_5 H 0.766728 0.765782 0.403344
H43_5 H 0.830308 0.806845 0.505816
H44_5 H 0.737216 0.302667 0.63556
H45_5 H 0.889944 0.345431 0.496774
H46_5 H 0.776951 0.661283 0.365515
H47_5 H 0.776951 0.338717 0.634485
H48_5 H 0.812971 0.337982 0.594683
H49_5 H 0.737216 0.697333 0.36444
H50_5 H 0.812971 0.662018 0.405317
H51_5 H 0.790019 0.740694 0.557365
H52_5 H 0.763579 0.825376 0.475732
H53_5 H 0.833369 0.769197 0.450576
H54_5 H 0.790019 0.259306 0.442635
H55_5 H 0.830308 0.193155 0.494184
H56_5 H 0.827245 0.279792 0.511595
H57_5 H 0.763579 0.174624 0.524268
H58_5 H 0.672755 0.779792 0.488405
H59_5 H 0.827245 0.720208 0.488405
H60_5 H 0.734218 0.403344 0.733272
H61_5 H 0.733272 0.265782 0.596656
H62_5 H 0.833369 0.230803 0.549424
H63_5 H 0.733272 0.734218 0.403344
H64_5 H 0.720208 0.488405 0.827245
H65_5 H 0.875322 0.399328 0.571178
H66_5 H 0.83375 0.738334 0.588668
H67_5 H 0.769197 0.450576 0.833369
H68_5 H 0.785344 0.865309 0.447019
H69_5 H 0.804636 0.53701 0.874052
H70_5 H 0.865309 0.447019 0.785344
H71_5 H 0.709981 0.759306 0.557365
H72_5 H 0.874052 0.804636 0.53701
H73_5 H 0.709981 0.240694 0.442635
H74_5 H 0.666631 0.269197 0.549424
H75_5 H 0.875654 0.770488 0.578581
H76_5 H 0.736421 0.325376 0.524268
H77_5 H 0.669692 0.693155 0.505816
H78_5 H 0.770488 0.578581 0.875654
H79_5 H 0.762784 0.802667 0.36444
H80_5 H 0.855089 0.808957 0.421834
H81_5 H 0.661283 0.365515 0.776951
H82_5 H 0.766728 0.234218 0.596656
H83_5 H 0.740694 0.557365 0.790019
H84_5 H 0.672755 0.220208 0.511595
H85_5 H 0.687029 0.837982 0.405317
H86_5 H 0.808957 0.421834 0.855089
H87_5 H 0.736421 0.674624 0.475732
H88_5 H 0.66625 0.761666 0.588668
H89_5 H 0.738334 0.588668 0.83375
H90_5 H 0.785344 0.134691 0.552981
H91_5 H 0.723049 0.838717 0.365515
H92_5 H 0.644911 0.691043 0.421834
H93_5 H 0.666631 0.730803 0.450576
H94_5 H 0.806845 0.505816 0.830308
H95_5 H 0.625948 0.304636 0.46299
H96_5 H 0.714656 0.365309 0.552981
H97_5 H 0.644911 0.308957 0.578166
H98_5 H 0.600672 0.428822 0.875322
H99_5 H 0.654569 0.503226 0.889944
H100_5 H 0.831216 0.142886 0.579887
H101_5 H 0.825376 0.475732 0.763579
H102_5 H 0.874052 0.195364 0.46299
H103_5 H 0.831216 0.857114 0.420113
H104_5 H 0.875654 0.229512 0.421419
H105_5 H 0.669692 0.306845 0.494184
H106_5 H 0.762784 0.197333 0.63556
H107_5 H 0.83375 0.261666 0.411332
H108_5 H 0.723049 0.161283 0.634485
H109_5 H 0.857114 0.420113 0.831216
H110_5 H 0.687029 0.162018 0.594683
H111_5 H 0.625948 0.695364 0.53701
H112_5 H 0.714656 0.634691 0.447019
H113_5 H 0.66625 0.238334 0.411332
H114_5 H 0.855089 0.191043 0.578166
C1_6 C 0.0645 0.5101 0.5644
C2_6 C 0.0913(13) 0.5155(15) 0.5775(7)
C3_6 C 0.0858(8) 0.5412(13) 0.5921(14)
C4_6 C 0.1160(17) 0.4995(6) 0.5839(11)
C5_6 C 0.1050(17) 0.5510(6) 0.6132(11)
C6_6 C 0.1352(7) 0.5093(14) 0.6050(15)
C7_6 C 0.1297(13) 0.5350(15) 0.6196(8)
C8_6 C 0.1551(13) 0.5319(16) 0.6475(15)
C9_6 C 0.1762(13) 0.5422(15) 0.6637(14)
C10_6 C 0.1991(6) 0.5509(7) 0.6865(5)
C11_6 C 0.2198(8) 0.5291(6) 0.6886(7)
C12_6 C 0.1986(4) 0.5733(5) 0.7066(4)
C13_6 C 0.2400(6) 0.5297(6) 0.7110(9)
C14_6 C 0.2189(4) 0.5738(6) 0.7290(4)
C15_6 C 0.1779(5) 0.5951(7) 0.7045(7)
C16_6 C 0.2396(4) 0.5520(8) 0.7312(7)
P1_6 P 0.2724 0.5037 0.7204
C17_6 C 0.2184(7) 0.5962(8) 0.7492(5)
C18_6 C 0.1775(7) 0.6174(6) 0.7247(9)
C19_6 C 0.2738 0.4703 0.6924
C20_6 C 0.2948 0.5351 0.7028
C21_6 C 0.1977(9) 0.6180(6) 0.7470(8)
C22_6 C 0.2547 0.4471 0.6915
C23_6 C 0.2918 0.4760 0.6689
C24_6 C 0.3218 0.5361 0.7163
C25_6 C 0.2903 0.5502 0.6772
C26_6 C 0.2534 0.4295 0.6670
C27_6 C 0.2906 0.4585 0.6444
C28_6 C 0.3442 0.5522 0.7041
C29_6 C 0.3126 0.5663 0.6650
C30_6 C 0.2714 0.4352 0.6435
C31_6 C 0.3396 0.5673 0.6784
O15_4 O 0.0399 0.4202 0.4921
O17_4 O 0.0399 0.5798 0.5079
C32_6 C 0.0644 0.4355 0.4899
C33_6 C 0.0644 0.5645 0.5101
C34_6 C 0.0775(7) 0.4087(13) 0.4845(15)
C35_6 C 0.0775(7) 0.5913(13) 0.5155(15)
C36_6 C 0.0921(14) 0.4142(8) 0.4588(13)
C37_6 C 0.0839(11) 0.3840(17) 0.5005(6)
C38_6 C 0.0921(14) 0.5858(8) 0.5412(13)
C39_6 C 0.0839(11) 0.6160(17) 0.4995(6)
C40_6 C 0.1132(11) 0.3950(17) 0.4490(6)
C41_6 C 0.1050(15) 0.3648(7) 0.4907(14)
C42_6 C 0.1132(11) 0.6050(17) 0.5510(6)
C43_6 C 0.1050(15) 0.6352(7) 0.5093(14)
C44_6 C 0.1196(8) 0.3703(13) 0.4650(15)
C45_6 C 0.1196(8) 0.6297(13) 0.5350(15)
C46_6 C 0.1475(15) 0.3449(13) 0.4681(16)
C47_6 C 0.1475(15) 0.6551(13) 0.5319(16)
C48_6 C 0.1637(14) 0.3238(13) 0.4578(15)
C49_6 C 0.1637(14) 0.6762(13) 0.5422(15)
C50_6 C 0.1865(5) 0.3009(6) 0.4491(7)
C51_6 C 0.1865(5) 0.6991(6) 0.5509(7)
C52_6 C 0.1886(7) 0.2802(8) 0.4709(6)
C53_6 C 0.2066(4) 0.3014(4) 0.4267(5)
C54_6 C 0.1886(7) 0.7198(8) 0.5291(6)
C55_6 C 0.2066(4) 0.6986(4) 0.5733(5)
C56_6 C 0.2110(9) 0.2600(6) 0.4703(6)
C57_6 C 0.2290(4) 0.2811(4) 0.4262(6)
C58_6 C 0.2045(7) 0.3221(5) 0.4049(7)
C59_6 C 0.2110(9) 0.7400(6) 0.5297(6)
C60_6 C 0.2290(4) 0.7189(4) 0.5738(6)
C61_6 C 0.2045(7) 0.6779(5) 0.5951(7)
C62_6 C 0.2604(4) 0.5520(8) 0.7688(7)
C63_6 C 0.2312(7) 0.2604(4) 0.4480(8)
P2_6 P 0.2204 0.2276 0.4963
C64_6 C 0.2492(5) 0.2816(7) 0.4038(8)
C65_6 C 0.2247(9) 0.3225(7) 0.3826(6)
C66_6 C 0.2312(7) 0.7396(4) 0.5520(8)
P3_6 P 0.2204 0.7724 0.5037
C67_6 C 0.2492(5) 0.7184(7) 0.5962(8)
C68_6 C 0.2247(9) 0.6775(7) 0.6174(6)
C69_6 C 0.2600(6) 0.5297(6) 0.7890(9)
C70_6 C 0.2811(4) 0.5738(6) 0.7710(4)
C71_6 C 0.2688(7) 0.2396(4) 0.4480(8)
C72_6 C 0.1924 0.2262 0.5297
C73_6 C 0.2028 0.2052 0.4649
C74_6 C 0.2470(8) 0.3023(9) 0.3820(6)
C75_6 C 0.2688(7) 0.7604(4) 0.5520(8)
C76_6 C 0.1924 0.7738 0.4703
C77_6 C 0.2028 0.7948 0.5351
C78_6 C 0.2470(8) 0.6977(9) 0.6180(6)
C79_6 C 0.2802(8) 0.5291(6) 0.8114(7)
P4_6 P 0.2276 0.5037 0.7796
C80_6 C 0.3014(4) 0.5733(5) 0.7934(4)
C81_6 C 0.2816(7) 0.5962(8) 0.7508(5)
C82_6 C 0.2890(9) 0.2400(6) 0.4703(6)
C83_6 C 0.2710(4) 0.2189(4) 0.4262(6)
C84_6 C 0.1915 0.2453 0.5529
C85_6 C 0.1689 0.2082 0.5240
C86_6 C 0.2163 0.1782 0.4639
C87_6 C 0.1772 0.2097 0.4498
C88_6 C 0.2890(9) 0.7600(6) 0.5297(6)
C89_6 C 0.2710(4) 0.7811(4) 0.5738(6)
C90_6 C 0.1915 0.7547 0.4471
C91_6 C 0.1689 0.7918 0.4760
C92_6 C 0.2163 0.8218 0.5361
C93_6 C 0.1772 0.7903 0.5502
C94_6 C 0.3009(6) 0.5509(7) 0.8135(5)
C95_6 C 0.2262 0.4703 0.8076
C96_6 C 0.2052 0.5351 0.7972
C97_6 C 0.3221(5) 0.5951(7) 0.7955(7)
C98_6 C 0.3023(9) 0.6180(6) 0.7530(8)
C99_6 C 0.3114(7) 0.2198(8) 0.4709(6)
P5_6 P 0.2796 0.2724 0.4963
C100_6 C 0.2934(4) 0.1986(4) 0.4267(5)
C101_6 C 0.2508(5) 0.2184(7) 0.4038(8)
C102_6 C 0.1670 0.2466 0.5705
C103_6 C 0.1444 0.2094 0.5415
C104_6 C 0.2041 0.1558 0.4478
C105_6 C 0.1650 0.1874 0.4337
C106_6 C 0.3114(7) 0.7802(8) 0.5291(6)
P6_6 P 0.2796 0.7276 0.5037
C107_6 C 0.2934(4) 0.8014(4) 0.5733(5)
C108_6 C 0.2508(5) 0.7816(7) 0.5962(8)
C109_6 C 0.1670 0.7534 0.4295
C110_6 C 0.1444 0.7906 0.4585
C111_6 C 0.2041 0.8442 0.5522
C112_6 C 0.1650 0.8126 0.5663
C113_6 C 0.3238(13) 0.5422(15) 0.8363(14)
C114_6 C 0.2453 0.4471 0.8085
C115_6 C 0.2082 0.4760 0.8311
C116_6 C 0.1782 0.5361 0.7837
C117_6 C 0.2097 0.5502 0.8228
C118_6 C 0.3225(7) 0.6174(6) 0.7753(9)
C119_6 C 0.3135(5) 0.1991(6) 0.4491(7)
C120_6 C 0.3076 0.2738 0.5297
C121_6 C 0.2972 0.2948 0.4649
C122_6 C 0.2955(7) 0.1779(5) 0.4049(7)
C123_6 C 0.2530(8) 0.1977(9) 0.3820(6)
C124_6 C 0.1435 0.2286 0.5648
C125_6 C 0.1784 0.1604 0.4327
C126_6 C 0.3135(5) 0.8009(6) 0.5509(7)
C127_6 C 0.3076 0.7262 0.4703
C128_6 C 0.2972 0.7052 0.5351
C129_6 C 0.2955(7) 0.8221(5) 0.5951(7)
C130_6 C 0.2530(8) 0.8023(9) 0.6180(6)
C131_6 C 0.1435 0.7714 0.4352
C132_6 C 0.1784 0.8396 0.5673
C133_6 C 0.3449(13) 0.5319(16) 0.8525(15)
C134_6 C 0.2466 0.4295 0.8330
C135_6 C 0.2094 0.4585 0.8556
C136_6 C 0.1558 0.5522 0.7959
C137_6 C 0.1874 0.5663 0.8350
C138_6 C 0.3363(14) 0.1762(13) 0.4578(15)
C139_6 C 0.3085 0.2547 0.5529
C140_6 C 0.3311 0.2918 0.5240
C141_6 C 0.2837 0.3218 0.4639
C142_6 C 0.3228 0.2903 0.4498
C143_6 C 0.2753(9) 0.1775(7) 0.3826(6)
C144_6 C 0.3363(14) 0.8238(13) 0.5422(15)
C145_6 C 0.3085 0.7453 0.4471
C146_6 C 0.3311 0.7082 0.4760
C147_6 C 0.2837 0.6782 0.5361
C148_6 C 0.3228 0.7097 0.5502
C149_6 C 0.2753(9) 0.8225(7) 0.6174(6)
C150_6 C 0.3703(13) 0.5350(15) 0.8804(8)
C151_6 C 0.2286 0.4352 0.8565
C152_6 C 0.1604 0.5673 0.8216
C153_6 C 0.3525(15) 0.1551(13) 0.4681(16)
C154_6 C 0.3330 0.2534 0.5705
C155_6 C 0.3556 0.2906 0.5415
C156_6 C 0.2959 0.3442 0.4478
C157_6 C 0.3350 0.3126 0.4337
C158_6 C 0.3525(15) 0.8449(13) 0.5319(16)
C159_6 C 0.3330 0.7466 0.4295
C160_6 C 0.3556 0.7094 0.4585
C161_6 C 0.2959 0.6558 0.5522
C162_6 C 0.3350 0.6874 0.5663
C163_6 C 0.3950(17) 0.5510(6) 0.8868(11)
C164_6 C 0.3648(7) 0.5093(14) 0.8950(15)
C165_6 C 0.3804(8) 0.1297(13) 0.4650(15)
C166_6 C 0.3565 0.2714 0.5648
C167_6 C 0.3216 0.3396 0.4327
C168_6 C 0.3804(8) 0.8703(13) 0.5350(15)
C169_6 C 0.3565 0.7286 0.4352
C170_6 C 0.3216 0.6604 0.5673
C171_6 C 0.4142(8) 0.5412(13) 0.9079(14)
C172_6 C 0.3840(17) 0.4995(6) 0.9161(11)
C173_6 C 0.3868(11) 0.1050(17) 0.4490(6)
C174_6 C 0.3950(15) 0.1352(7) 0.4907(14)
C175_6 C 0.3868(11) 0.8950(17) 0.5510(6)
C176_6 C 0.3950(15) 0.8648(7) 0.5093(14)
C177_6 C 0.4087(13) 0.5155(15) 0.9225(7)
C178_6 C 0.4079(14) 0.0858(8) 0.4588(13)
C179_6 C 0.4161(11) 0.1160(17) 0.5005(6)
C180_6 C 0.4079(14) 0.9142(8) 0.5412(13)
C181_6 C 0.4161(11) 0.8840(17) 0.4995(6)
C182_6 C 0.4355 0.5101 0.9356
C183_6 C 0.4225(7) 0.0913(13) 0.4845(15)
C184_6 C 0.4225(7) 0.9087(13) 0.5155(15)
O23_6 O 0.4202 0.5079 0.9601
O24_6 O 0.4601 0.5079 0.9209
C185_6 C 0.4356 0.0645 0.4899
C186_6 C 0.4356 0.9355 0.5101
O25_6 O 0.4601 0.0798 0.4921
O26_6 O 0.4209 0.0399 0.4921
O27_6 O 0.4601 0.9202 0.5079
O28_6 O 0.4209 0.9601 0.5079
H1_6 H 0.375654 0.270488 0.578581
H2_6 H 0.375322 0.899328 0.571178
H3_6 H 0.389944 0.845431 0.496774
H4_6 H 0.375654 0.729512 0.421419
H5_6 H 0.427578 0.879672 0.479322
H6_6 H 0.412956 0.0664305 0.446274
H7_6 H 0.433569 0.553726 0.912956
H8_6 H 0.331216 0.357114 0.420113
H9_6 H 0.375322 0.100672 0.428822
H10_6 H 0.389944 0.154569 0.503226
H11_6 H 0.427578 0.120328 0.520678
H12_6 H 0.379672 0.479322 0.927578
H13_6 H 0.412956 0.933569 0.553726
H14_6 H 0.331216 0.642886 0.579887
H15_6 H 0.100672 0.571178 0.624678
H16_6 H 0.120328 0.479322 0.572422
H17_6 H 0.154569 0.496774 0.610056
H18_6 H 0.0664305 0.553726 0.587044
H19_6 H 0.220208 0.511595 0.672755
H20_6 H 0.162018 0.594683 0.687029
H21_6 H 0.240694 0.442635 0.709981
H22_6 H 0.325376 0.524268 0.736421
H23_6 H 0.234218 0.596656 0.766728
H24_6 H 0.308957 0.578166 0.644911
H25_6 H 0.357114 0.579887 0.668784
H26_6 H 0.197333 0.63556 0.762784
H27_6 H 0.269197 0.549424 0.666631
H28_6 H 0.238334 0.411332 0.66625
H29_6 H 0.270488 0.421419 0.624346
H30_6 H 0.161283 0.634485 0.723049
H31_6 H 0.0870444 0.433569 0.446274
H32_6 H 0.072422 0.379672 0.520678
H33_6 H 0.0870444 0.566431 0.553726
H34_6 H 0.072422 0.620328 0.479322
H35_6 H 0.306845 0.494184 0.669692
H36_6 H 0.124678 0.399328 0.428822
H37_6 H 0.110056 0.345431 0.503226
H38_6 H 0.304636 0.46299 0.625948
H39_6 H 0.365309 0.552981 0.714656
H40_6 H 0.337982 0.594683 0.812971
H41_6 H 0.302667 0.63556 0.737216
H42_6 H 0.233272 0.234218 0.403344
H43_6 H 0.169692 0.193155 0.505816
H44_6 H 0.262784 0.697333 0.63556
H45_6 H 0.110056 0.654569 0.496774
H46_6 H 0.223049 0.338717 0.365515
H47_6 H 0.223049 0.661283 0.634485
H48_6 H 0.187029 0.662018 0.594683
H49_6 H 0.262784 0.302667 0.36444
H50_6 H 0.187029 0.337982 0.405317
H51_6 H 0.209981 0.259306 0.557365
H52_6 H 0.236421 0.174624 0.475732
H53_6 H 0.166631 0.230803 0.450576
H54_6 H 0.209981 0.740694 0.442635
H55_6 H 0.169692 0.806845 0.494184
H56_6 H 0.172755 0.720208 0.511595
H57_6 H 0.236421 0.825376 0.524268
H58_6 H 0.327245 0.220208 0.488405
H59_6 H 0.172755 0.279792 0.488405
H60_6 H 0.265782 0.596656 0.733272
H61_6 H 0.266728 0.734218 0.596656
H62_6 H 0.166631 0.769197 0.549424
H63_6 H 0.266728 0.265782 0.403344
H64_6 H 0.279792 0.511595 0.827245
H65_6 H 0.124678 0.600672 0.571178
H66_6 H 0.16625 0.261666 0.588668
H67_6 H 0.230803 0.549424 0.833369
H68_6 H 0.214656 0.134691 0.447019
H69_6 H 0.195364 0.46299 0.874052
H70_6 H 0.134691 0.552981 0.785344
H71_6 H 0.290019 0.240694 0.557365
H72_6 H 0.125948 0.195364 0.53701
H73_6 H 0.290019 0.759306 0.442635
H74_6 H 0.333369 0.730803 0.549424
H75_6 H 0.124346 0.229512 0.578581
H76_6 H 0.263579 0.674624 0.524268
H77_6 H 0.330308 0.306845 0.505816
H78_6 H 0.229512 0.421419 0.875654
H79_6 H 0.237216 0.197333 0.36444
H80_6 H 0.144911 0.191043 0.421834
H81_6 H 0.338717 0.634485 0.776951
H82_6 H 0.233272 0.765782 0.596656
H83_6 H 0.259306 0.442635 0.790019
H84_6 H 0.327245 0.779792 0.511595
H85_6 H 0.312971 0.162018 0.405317
H86_6 H 0.191043 0.578166 0.855089
H87_6 H 0.263579 0.325376 0.475732
H88_6 H 0.33375 0.238334 0.588668
H89_6 H 0.261666 0.411332 0.83375
H90_6 H 0.214656 0.865309 0.552981
H91_6 H 0.276951 0.161283 0.365515
H92_6 H 0.355089 0.308957 0.421834
H93_6 H 0.333369 0.269197 0.450576
H94_6 H 0.193155 0.494184 0.830308
H95_6 H 0.374052 0.695364 0.46299
H96_6 H 0.285344 0.634691 0.552981
H97_6 H 0.355089 0.691043 0.578166
H98_6 H 0.399328 0.571178 0.875322
H99_6 H 0.345431 0.496774 0.889944
H100_6 H 0.168784 0.857114 0.579887
H101_6 H 0.174624 0.524268 0.763579
H102_6 H 0.125948 0.804636 0.46299
H103_6 H 0.168784 0.142886 0.420113
H104_6 H 0.124346 0.770488 0.421419
H105_6 H 0.330308 0.693155 0.494184
H106_6 H 0.237216 0.802667 0.63556
H107_6 H 0.16625 0.738334 0.411332
H108_6 H 0.276951 0.838717 0.634485
H109_6 H 0.142886 0.579887 0.831216
H110_6 H 0.312971 0.837982 0.594683
H111_6 H 0.374052 0.304636 0.53701
H112_6 H 0.285344 0.365309 0.447019
H113_6 H 0.33375 0.761666 0.411332
H114_6 H 0.144911 0.808957 0.578166
O3_4 O 0.0399 0.4921 0.4209
C1_7 C 0.0645 0.4899 0.4356
C2_7 C 0.0913(13) 0.4845(15) 0.4225(7)
C3_7 C 0.0858(8) 0.4588(13) 0.4079(14)
C4_7 C 0.1160(17) 0.5005(6) 0.4161(11)
C5_7 C 0.1050(17) 0.4490(6) 0.3868(11)
C6_7 C 0.1352(7) 0.4907(14) 0.3950(15)
C7_7 C 0.1297(13) 0.4650(15) 0.3804(8)
C8_7 C 0.1551(13) 0.4681(16) 0.3525(15)
C9_7 C 0.1762(13) 0.4578(15) 0.3363(14)
C10_7 C 0.1991(6) 0.4491(7) 0.3135(5)
C11_7 C 0.2198(8) 0.4709(6) 0.3114(7)
C12_7 C 0.1986(4) 0.4267(5) 0.2934(4)
C13_7 C 0.2400(6) 0.4703(6) 0.2890(9)
C14_7 C 0.2189(4) 0.4262(6) 0.2710(4)
C15_7 C 0.1779(5) 0.4049(7) 0.2955(7)
C16_7 C 0.2396(4) 0.4480(8) 0.2688(7)
P1_7 P 0.2724 0.4963 0.2796
C17_7 C 0.2184(7) 0.4038(8) 0.2508(5)
C18_7 C 0.1775(7) 0.3826(6) 0.2753(9)
C19_7 C 0.2738 0.5297 0.3076
C20_7 C 0.2948 0.4649 0.2972
C21_7 C 0.1977(9) 0.3820(6) 0.2530(8)
C22_7 C 0.2547 0.5529 0.3085
C23_7 C 0.2918 0.5240 0.3311
C24_7 C 0.3218 0.4639 0.2837
C25_7 C 0.2903 0.4498 0.3228
C26_7 C 0.2534 0.5705 0.3330
C27_7 C 0.2906 0.5415 0.3556
C28_7 C 0.3442 0.4478 0.2959
C29_7 C 0.3126 0.4337 0.3350
C30_7 C 0.2714 0.5648 0.3565
C31_7 C 0.3396 0.4327 0.3216
C62_7 C 0.2604(4) 0.4480(8) 0.2312(7)
C69_7 C 0.2600(6) 0.4703(6) 0.2110(9)
C70_7 C 0.2811(4) 0.4262(6) 0.2290(4)
C79_7 C 0.2802(8) 0.4709(6) 0.1886(7)
P4_7 P 0.2276 0.4963 0.2204
C80_7 C 0.3014(4) 0.4267(5) 0.2066(4)
C81_7 C 0.2816(7) 0.4038(8) 0.2492(5)
C94_7 C 0.3009(6) 0.4491(7) 0.1865(5)
C95_7 C 0.2262 0.5297 0.1924
C96_7 C 0.2052 0.4649 0.2028
C97_7 C 0.3221(5) 0.4049(7) 0.2045(7)
C98_7 C 0.3023(9) 0.3820(6) 0.2470(8)
C113_7 C 0.3238(13) 0.4578(15) 0.1637(14)
C114_7 C 0.2453 0.5529 0.1915
C115_7 C 0.2082 0.5240 0.1689
C116_7 C 0.1782 0.4639 0.2163
C117_7 C 0.2097 0.4498 0.1772
C118_7 C 0.3225(7) 0.3826(6) 0.2247(9)
C133_7 C 0.3449(13) 0.4681(16) 0.1475(15)
C134_7 C 0.2466 0.5705 0.1670
C135_7 C 0.2094 0.5415 0.1444
C136_7 C 0.1558 0.4478 0.2041
C137_7 C 0.1874 0.4337 0.1650
C150_7 C 0.3703(13) 0.4650(15) 0.1196(8)
C151_7 C 0.2286 0.5648 0.1435
C152_7 C 0.1604 0.4327 0.1784
C163_7 C 0.3950(17) 0.4490(6) 0.1132(11)
C164_7 C 0.3648(7) 0.4907(14) 0.1050(15)
C171_7 C 0.4142(8) 0.4588(13) 0.0921(14)
C172_7 C 0.3840(17) 0.5005(6) 0.0839(11)
C177_7 C 0.4087(13) 0.4845(15) 0.0775(7)
C182_7 C 0.4355 0.4899 0.0644
O23_7 O 0.4202 0.4921 0.0399
O24_7 O 0.4601 0.4921 0.0791
Zr7_6 Zr 0.5000 0.5000 0.0537
H7_7 H 0.433569 0.446274 0.0870444
H12_7 H 0.379672 0.520678 0.072422
H15_7 H 0.100672 0.428822 0.375322
H16_7 H 0.120328 0.520678 0.427578
H17_7 H 0.154569 0.503226 0.389944
H18_7 H 0.0664305 0.446274 0.412956
H19_7 H 0.220208 0.488405 0.327245
H20_7 H 0.162018 0.405317 0.312971
H21_7 H 0.240694 0.557365 0.290019
H22_7 H 0.325376 0.475732 0.263579
H23_7 H 0.234218 0.403344 0.233272
H24_7 H 0.308957 0.421834 0.355089
H25_7 H 0.357114 0.420113 0.331216
H26_7 H 0.197333 0.36444 0.237216
H27_7 H 0.269197 0.450576 0.333369
H28_7 H 0.238334 0.588668 0.33375
H29_7 H 0.270488 0.578581 0.375654
H30_7 H 0.161283 0.365515 0.276951
H35_7 H 0.306845 0.505816 0.330308
H38_7 H 0.304636 0.53701 0.374052
H39_7 H 0.365309 0.447019 0.285344
H40_7 H 0.337982 0.405317 0.187029
H41_7 H 0.302667 0.36444 0.262784
H60_7 H 0.265782 0.403344 0.266728
H64_7 H 0.279792 0.488405 0.172755
H67_7 H 0.230803 0.450576 0.166631
H69_7 H 0.195364 0.53701 0.125948
H70_7 H 0.134691 0.447019 0.214656
H78_7 H 0.229512 0.578581 0.124346
H81_7 H 0.338717 0.365515 0.223049
H83_7 H 0.259306 0.557365 0.209981
H86_7 H 0.191043 0.421834 0.144911
H89_7 H 0.261666 0.588668 0.16625
H94_7 H 0.193155 0.505816 0.169692
H98_7 H 0.399328 0.428822 0.124678
H99_7 H 0.345431 0.503226 0.110056
H101_7 H 0.174624 0.475732 0.236421
H109_7 H 0.142886 0.420113 0.168784
O8_4 O 0.9601 0.5079 0.4209
C1_8 C 0.9355 0.5101 0.4356
C2_8 C 0.9087(13) 0.5155(15) 0.4225(7)
C3_8 C 0.9142(8) 0.5412(13) 0.4079(14)
C4_8 C 0.8840(17) 0.4995(6) 0.4161(11)
C5_8 C 0.8950(17) 0.5510(6) 0.3868(11)
C6_8 C 0.8648(7) 0.5093(14) 0.3950(15)
C7_8 C 0.8703(13) 0.5350(15) 0.3804(8)
C8_8 C 0.8449(13) 0.5319(16) 0.3525(15)
C9_8 C 0.8238(13) 0.5422(15) 0.3363(14)
C10_8 C 0.8009(6) 0.5509(7) 0.3135(5)
C11_8 C 0.7802(8) 0.5291(6) 0.3114(7)
C12_8 C 0.8014(4) 0.5733(5) 0.2934(4)
C13_8 C 0.7600(6) 0.5297(6) 0.2890(9)
C14_8 C 0.7811(4) 0.5738(6) 0.2710(4)
C15_8 C 0.8221(5) 0.5951(7) 0.2955(7)
C16_8 C 0.7604(4) 0.5520(8) 0.2688(7)
P1_8 P 0.7276 0.5037 0.2796
C17_8 C 0.7816(7) 0.5962(8) 0.2508(5)
C18_8 C 0.8225(7) 0.6174(6) 0.2753(9)
C19_8 C 0.7262 0.4703 0.3076
C20_8 C 0.7052 0.5351 0.2972
C21_8 C 0.8023(9) 0.6180(6) 0.2530(8)
C22_8 C 0.7453 0.4471 0.3085
C23_8 C 0.7082 0.4760 0.3311
C24_8 C 0.6782 0.5361 0.2837
C25_8 C 0.7097 0.5502 0.3228
C26_8 C 0.7466 0.4295 0.3330
C27_8 C 0.7094 0.4585 0.3556
C28_8 C 0.6558 0.5522 0.2959
C29_8 C 0.6874 0.5663 0.3350
C30_8 C 0.7286 0.4352 0.3565
C31_8 C 0.6604 0.5673 0.3216
C62_8 C 0.7396(4) 0.5520(8) 0.2312(7)
C69_8 C 0.7400(6) 0.5297(6) 0.2110(9)
C70_8 C 0.7189(4) 0.5738(6) 0.2290(4)
C79_8 C 0.7198(8) 0.5291(6) 0.1886(7)
P4_8 P 0.7724 0.5037 0.2204
C80_8 C 0.6986(4) 0.5733(5) 0.2066(4)
C81_8 C 0.7184(7) 0.5962(8) 0.2492(5)
C94_8 C 0.6991(6) 0.5509(7) 0.1865(5)
C95_8 C 0.7738 0.4703 0.1924
C96_8 C 0.7948 0.5351 0.2028
C97_8 C 0.6779(5) 0.5951(7) 0.2045(7)
C98_8 C 0.6977(9) 0.6180(6) 0.2470(8)
C113_8 C 0.6762(13) 0.5422(15) 0.1637(14)
C114_8 C 0.7547 0.4471 0.1915
C115_8 C 0.7918 0.4760 0.1689
C116_8 C 0.8218 0.5361 0.2163
C117_8 C 0.7903 0.5502 0.1772
C118_8 C 0.6775(7) 0.6174(6) 0.2247(9)
C133_8 C 0.6551(13) 0.5319(16) 0.1475(15)
C134_8 C 0.7534 0.4295 0.1670
C135_8 C 0.7906 0.4585 0.1444
C136_8 C 0.8442 0.5522 0.2041
C137_8 C 0.8126 0.5663 0.1650
C150_8 C 0.6297(13) 0.5350(15) 0.1196(8)
C151_8 C 0.7714 0.4352 0.1435
C152_8 C 0.8396 0.5673 0.1784
C163_8 C 0.6050(17) 0.5510(6) 0.1132(11)
C164_8 C 0.6352(7) 0.5093(14) 0.1050(15)
C171_8 C 0.5858(8) 0.5412(13) 0.0921(14)
C172_8 C 0.6160(17) 0.4995(6) 0.0839(11)
C177_8 C 0.5913(13) 0.5155(15) 0.0775(7)
C182_8 C 0.5645 0.5101 0.0644
O23_8 O 0.5798 0.5079 0.0399
O24_8 O 0.5399 0.5079 0.0791
H7_8 H 0.566431 0.553726 0.0870444
H12_8 H 0.620328 0.479322 0.072422
H15_8 H 0.899328 0.571178 0.375322
H16_8 H 0.879672 0.479322 0.427578
H17_8 H 0.845431 0.496774 0.389944
H18_8 H 0.933569 0.553726 0.412956
H19_8 H 0.779792 0.511595 0.327245
H20_8 H 0.837982 0.594683 0.312971
H21_8 H 0.759306 0.442635 0.290019
H22_8 H 0.674624 0.524268 0.263579
H23_8 H 0.765782 0.596656 0.233272
H24_8 H 0.691043 0.578166 0.355089
H25_8 H 0.642886 0.579887 0.331216
H26_8 H 0.802667 0.63556 0.237216
H27_8 H 0.730803 0.549424 0.333369
H28_8 H 0.761666 0.411332 0.33375
H29_8 H 0.729512 0.421419 0.375654
H30_8 H 0.838717 0.634485 0.276951
H35_8 H 0.693155 0.494184 0.330308
H38_8 H 0.695364 0.46299 0.374052
H39_8 H 0.634691 0.552981 0.285344
H40_8 H 0.662018 0.594683 0.187029
H41_8 H 0.697333 0.63556 0.262784
H60_8 H 0.734218 0.596656 0.266728
H64_8 H 0.720208 0.511595 0.172755
H67_8 H 0.769197 0.549424 0.166631
H69_8 H 0.804636 0.46299 0.125948
H70_8 H 0.865309 0.552981 0.214656
H78_8 H 0.770488 0.421419 0.124346
H81_8 H 0.661283 0.634485 0.223049
H83_8 H 0.740694 0.442635 0.209981
H86_8 H 0.808957 0.578166 0.144911
H89_8 H 0.738334 0.411332 0.16625
H94_8 H 0.806845 0.494184 0.169692
H98_8 H 0.600672 0.571178 0.124678
H99_8 H 0.654569 0.496774 0.110056
H101_8 H 0.825376 0.524268 0.236421
H109_8 H 0.857114 0.579887 0.168784
O1_3 O 0.4709 0.0291 0.5291
O4_3 O 0.5079 0.0399 0.5798
O6_3 O 0.5256 0.0256 0.5256
O13_3 O 0.4744 0.0256 0.4744
O16_3 O 0.5291 0.0291 0.4709
O2_3 O 0.4744 0.9744 0.5256
O5_3 O 0.5291 0.9709 0.5291
O7_3 O 0.4921 0.9601 0.5798
O12_3 O 0.4709 0.9709 0.4709
O18_3 O 0.5256 0.9744 0.4744
O4_4 O 0.4921 0.0399 0.4202
O7_4 O 0.5079 0.9601 0.4202
O21_4 O 0.4921 0.0791 0.4601
O22_4 O 0.5079 0.0791 0.5399
O10_4 O 0.4921 0.9209 0.5399
O11_4 O 0.5079 0.9209 0.4601
C32_7 C 0.4899 0.9356 0.5645
C33_7 C 0.5101 0.9356 0.4355
C34_7 C 0.4845(15) 0.9225(7) 0.5913(13)
C35_7 C 0.5155(15) 0.9225(7) 0.4087(13)
C36_7 C 0.4588(13) 0.9079(14) 0.5858(8)
C37_7 C 0.5005(6) 0.9161(11) 0.6160(17)
C38_7 C 0.5412(13) 0.9079(14) 0.4142(8)
C39_7 C 0.4995(6) 0.9161(11) 0.3840(17)
C40_7 C 0.4490(6) 0.8868(11) 0.6050(17)
C41_7 C 0.4907(14) 0.8950(15) 0.6352(7)
C42_7 C 0.5510(6) 0.8868(11) 0.3950(17)
C43_7 C 0.5093(14) 0.8950(15) 0.3648(7)
C44_7 C 0.4650(15) 0.8804(8) 0.6297(13)
C45_7 C 0.5350(15) 0.8804(8) 0.3703(13)
C46_7 C 0.4681(16) 0.8525(15) 0.6551(13)
C47_7 C 0.5319(16) 0.8525(15) 0.3449(13)
C48_7 C 0.4578(15) 0.8363(14) 0.6762(13)
C49_7 C 0.5422(15) 0.8363(14) 0.3238(13)
C50_7 C 0.4491(7) 0.8135(5) 0.6991(6)
C51_7 C 0.5509(7) 0.8135(5) 0.3009(6)
C52_7 C 0.4709(6) 0.8114(7) 0.7198(8)
C53_7 C 0.4267(5) 0.7934(4) 0.6986(4)
C54_7 C 0.5291(6) 0.8114(7) 0.2802(8)
C55_7 C 0.5733(5) 0.7934(4) 0.3014(4)
C56_7 C 0.4703(6) 0.7890(9) 0.7400(6)
C57_7 C 0.4262(6) 0.7710(4) 0.7189(4)
C58_7 C 0.4049(7) 0.7955(7) 0.6779(5)
C59_7 C 0.5297(6) 0.7890(9) 0.2600(6)
C60_7 C 0.5738(6) 0.7710(4) 0.2811(4)
C61_7 C 0.5951(7) 0.7955(7) 0.3221(5)
C63_7 C 0.4480(8) 0.7688(7) 0.7396(4)
P2_7 P 0.4963 0.7796 0.7724
C64_7 C 0.4038(8) 0.7508(5) 0.7184(7)
C65_7 C 0.3826(6) 0.7753(9) 0.6775(7)
C66_7 C 0.5520(8) 0.7688(7) 0.2604(4)
P3_7 P 0.5037 0.7796 0.2276
C67_7 C 0.5962(8) 0.7508(5) 0.2816(7)
C68_7 C 0.6174(6) 0.7753(9) 0.3225(7)
C71_7 C 0.4480(8) 0.7312(7) 0.7604(4)
C72_7 C 0.5297 0.8076 0.7738
C73_7 C 0.4649 0.7972 0.7948
C74_7 C 0.3820(6) 0.7530(8) 0.6977(9)
C75_7 C 0.5520(8) 0.7312(7) 0.2396(4)
C76_7 C 0.4703 0.8076 0.2262
C77_7 C 0.5351 0.7972 0.2052
C78_7 C 0.6180(6) 0.7530(8) 0.3023(9)
C82_7 C 0.4703(6) 0.7110(9) 0.7600(6)
C83_7 C 0.4262(6) 0.7290(4) 0.7811(4)
C84_7 C 0.5529 0.8085 0.7547
C85_7 C 0.5240 0.8311 0.7918
C86_7 C 0.4639 0.7837 0.8218
C87_7 C 0.4498 0.8228 0.7903
C88_7 C 0.5297(6) 0.7110(9) 0.2400(6)
C89_7 C 0.5738(6) 0.7290(4) 0.2189(4)
C90_7 C 0.4471 0.8085 0.2453
C91_7 C 0.4760 0.8311 0.2082
C92_7 C 0.5361 0.7837 0.1782
C93_7 C 0.5502 0.8228 0.2097
C99_7 C 0.4709(6) 0.6886(7) 0.7802(8)
P5_7 P 0.4963 0.7204 0.7276
C100_7 C 0.4267(5) 0.7066(4) 0.8014(4)
C101_7 C 0.4038(8) 0.7492(5) 0.7816(7)
C102_7 C 0.5705 0.8330 0.7534
C103_7 C 0.5415 0.8556 0.7906
C104_7 C 0.4478 0.7959 0.8442
C105_7 C 0.4337 0.8350 0.8126
C106_7 C 0.5291(6) 0.6886(7) 0.2198(8)
P6_7 P 0.5037 0.7204 0.2724
C107_7 C 0.5733(5) 0.7066(4) 0.1986(4)
C108_7 C 0.5962(8) 0.7492(5) 0.2184(7)
C109_7 C 0.4295 0.8330 0.2466
C110_7 C 0.4585 0.8556 0.2094
C111_7 C 0.5522 0.7959 0.1558
C112_7 C 0.5663 0.8350 0.1874
C119_7 C 0.4491(7) 0.6865(5) 0.8009(6)
C120_7 C 0.5297 0.6924 0.7262
C121_7 C 0.4649 0.7028 0.7052
C122_7 C 0.4049(7) 0.7045(7) 0.8221(5)
C123_7 C 0.3820(6) 0.7470(8) 0.8023(9)
C124_7 C 0.5648 0.8565 0.7714
C125_7 C 0.4327 0.8216 0.8396
C126_7 C 0.5509(7) 0.6865(5) 0.1991(6)
C127_7 C 0.4703 0.6924 0.2738
C128_7 C 0.5351 0.7028 0.2948
C129_7 C 0.5951(7) 0.7045(7) 0.1779(5)
C130_7 C 0.6180(6) 0.7470(8) 0.1977(9)
C131_7 C 0.4352 0.8565 0.2286
C132_7 C 0.5673 0.8216 0.1604
C138_7 C 0.4578(15) 0.6637(14) 0.8238(13)
C139_7 C 0.5529 0.6915 0.7453
C140_7 C 0.5240 0.6689 0.7082
C141_7 C 0.4639 0.7163 0.6782
C142_7 C 0.4498 0.6772 0.7097
C143_7 C 0.3826(6) 0.7247(9) 0.8225(7)
C144_7 C 0.5422(15) 0.6637(14) 0.1762(13)
C145_7 C 0.4471 0.6915 0.2547
C146_7 C 0.4760 0.6689 0.2918
C147_7 C 0.5361 0.7163 0.3218
C148_7 C 0.5502 0.6772 0.2903
C149_7 C 0.6174(6) 0.7247(9) 0.1775(7)
C153_7 C 0.4681(16) 0.6475(15) 0.8449(13)
C154_7 C 0.5705 0.6670 0.7466
C155_7 C 0.5415 0.6444 0.7094
C156_7 C 0.4478 0.7041 0.6558
C157_7 C 0.4337 0.6650 0.6874
C158_7 C 0.5319(16) 0.6475(15) 0.1551(13)
C159_7 C 0.4295 0.6670 0.2534
C160_7 C 0.4585 0.6444 0.2906
C161_7 C 0.5522 0.7041 0.3442
C162_7 C 0.5663 0.6650 0.3126
C165_7 C 0.4650(15) 0.6196(8) 0.8703(13)
C166_7 C 0.5648 0.6435 0.7286
C167_7 C 0.4327 0.6784 0.6604
C168_7 C 0.5350(15) 0.6196(8) 0.1297(13)
C169_7 C 0.4352 0.6435 0.2714
C170_7 C 0.5673 0.6784 0.3396
C173_7 C 0.4490(6) 0.6132(11) 0.8950(17)
C174_7 C 0.4907(14) 0.6050(15) 0.8648(7)
C175_7 C 0.5510(6) 0.6132(11) 0.1050(17)
C176_7 C 0.5093(14) 0.6050(15) 0.1352(7)
C178_7 C 0.4588(13) 0.5921(14) 0.9142(8)
C179_7 C 0.5005(6) 0.5839(11) 0.8840(17)
C180_7 C 0.5412(13) 0.5921(14) 0.0858(8)
C181_7 C 0.4995(6) 0.5839(11) 0.1160(17)
C183_7 C 0.4845(15) 0.5775(7) 0.9087(13)
C184_7 C 0.5155(15) 0.5775(7) 0.0913(13)
C185_7 C 0.4899 0.5644 0.9355
C186_7 C 0.5101 0.5644 0.0645
O25_7 O 0.4921 0.5399 0.9202
O26_7 O 0.4921 0.5791 0.9601
O27_7 O 0.5079 0.5399 0.0798
O28_7 O 0.5079 0.5791 0.0399
H1_7 H 0.578581 0.624346 0.729512
H2_7 H 0.571178 0.624678 0.100672
H3_7 H 0.496774 0.610056 0.154569
H4_7 H 0.421419 0.624346 0.270488
H5_7 H 0.479322 0.572422 0.120328
H6_7 H 0.446274 0.587044 0.933569
H8_7 H 0.420113 0.668784 0.642886
H9_7 H 0.428822 0.624678 0.899328
H10_7 H 0.503226 0.610056 0.845431
H11_7 H 0.520678 0.572422 0.879672
H13_7 H 0.553726 0.587044 0.0664305
H14_7 H 0.579887 0.668784 0.357114
H31_7 H 0.446274 0.912956 0.566431
H32_7 H 0.520678 0.927578 0.620328
H33_7 H 0.553726 0.912956 0.433569
H34_7 H 0.479322 0.927578 0.379672
H36_7 H 0.428822 0.875322 0.600672
H37_7 H 0.503226 0.889944 0.654569
H42_7 H 0.403344 0.766728 0.765782
H43_7 H 0.505816 0.830308 0.806845
H44_7 H 0.63556 0.737216 0.302667
H45_7 H 0.496774 0.889944 0.345431
H46_7 H 0.365515 0.776951 0.661283
H47_7 H 0.634485 0.776951 0.338717
H48_7 H 0.594683 0.812971 0.337982
H49_7 H 0.36444 0.737216 0.697333
H50_7 H 0.405317 0.812971 0.662018
H51_7 H 0.557365 0.790019 0.740694
H52_7 H 0.475732 0.763579 0.825376
H53_7 H 0.450576 0.833369 0.769197
H54_7 H 0.442635 0.790019 0.259306
H55_7 H 0.494184 0.830308 0.193155
H56_7 H 0.511595 0.827245 0.279792
H57_7 H 0.524268 0.763579 0.174624
H58_7 H 0.488405 0.672755 0.779792
H59_7 H 0.488405 0.827245 0.720208
H61_7 H 0.596656 0.733272 0.265782
H62_7 H 0.549424 0.833369 0.230803
H63_7 H 0.403344 0.733272 0.734218
H65_7 H 0.571178 0.875322 0.399328
H66_7 H 0.588668 0.83375 0.738334
H68_7 H 0.447019 0.785344 0.865309
H71_7 H 0.557365 0.709981 0.759306
H72_7 H 0.53701 0.874052 0.804636
H73_7 H 0.442635 0.709981 0.240694
H74_7 H 0.549424 0.666631 0.269197
H75_7 H 0.578581 0.875654 0.770488
H76_7 H 0.524268 0.736421 0.325376
H77_7 H 0.505816 0.669692 0.693155
H79_7 H 0.36444 0.762784 0.802667
H80_7 H 0.421834 0.855089 0.808957
H82_7 H 0.596656 0.766728 0.234218
H84_7 H 0.511595 0.672755 0.220208
H85_7 H 0.405317 0.687029 0.837982
H87_7 H 0.475732 0.736421 0.674624
H88_7 H 0.588668 0.66625 0.761666
H90_7 H 0.552981 0.785344 0.134691
H91_7 H 0.365515 0.723049 0.838717
H92_7 H 0.421834 0.644911 0.691043
H93_7 H 0.450576 0.666631 0.730803
H95_7 H 0.46299 0.625948 0.304636
H96_7 H 0.552981 0.714656 0.365309
H97_7 H 0.578166 0.644911 0.308957
H100_7 H 0.579887 0.831216 0.142886
H102_7 H 0.46299 0.874052 0.195364
H103_7 H 0.420113 0.831216 0.857114
H104_7 H 0.421419 0.875654 0.229512
H105_7 H 0.494184 0.669692 0.306845
H106_7 H 0.63556 0.762784 0.197333
H107_7 H 0.411332 0.83375 0.261666
H108_7 H 0.634485 0.723049 0.161283
H110_7 H 0.594683 0.687029 0.162018
H111_7 H 0.53701 0.625948 0.695364
H112_7 H 0.447019 0.714656 0.634691
H113_7 H 0.411332 0.66625 0.238334
H114_7 H 0.578166 0.855089 0.191043
C32_8 C 0.4899 0.0644 0.4355
C33_8 C 0.5101 0.0644 0.5645
C34_8 C 0.4845(15) 0.0775(7) 0.4087(13)
C35_8 C 0.5155(15) 0.0775(7) 0.5913(13)
C36_8 C 0.4588(13) 0.0921(14) 0.4142(8)
C37_8 C 0.5005(6) 0.0839(11) 0.3840(17)
C38_8 C 0.5412(13) 0.0921(14) 0.5858(8)
C39_8 C 0.4995(6) 0.0839(11) 0.6160(17)
C40_8 C 0.4490(6) 0.1132(11) 0.3950(17)
C41_8 C 0.4907(14) 0.1050(15) 0.3648(7)
C42_8 C 0.5510(6) 0.1132(11) 0.6050(17)
C43_8 C 0.5093(14) 0.1050(15) 0.6352(7)
C44_8 C 0.4650(15) 0.1196(8) 0.3703(13)
C45_8 C 0.5350(15) 0.1196(8) 0.6297(13)
C46_8 C 0.4681(16) 0.1475(15) 0.3449(13)
C47_8 C 0.5319(16) 0.1475(15) 0.6551(13)
C48_8 C 0.4578(15) 0.1637(14) 0.3238(13)
C49_8 C 0.5422(15) 0.1637(14) 0.6762(13)
C50_8 C 0.4491(7) 0.1865(5) 0.3009(6)
C51_8 C 0.5509(7) 0.1865(5) 0.6991(6)
C52_8 C 0.4709(6) 0.1886(7) 0.2802(8)
C53_8 C 0.4267(5) 0.2066(4) 0.3014(4)
C54_8 C 0.5291(6) 0.1886(7) 0.7198(8)
C55_8 C 0.5733(5) 0.2066(4) 0.6986(4)
C56_8 C 0.4703(6) 0.2110(9) 0.2600(6)
C57_8 C 0.4262(6) 0.2290(4) 0.2811(4)
C58_8 C 0.4049(7) 0.2045(7) 0.3221(5)
C59_8 C 0.5297(6) 0.2110(9) 0.7400(6)
C60_8 C 0.5738(6) 0.2290(4) 0.7189(4)
C61_8 C 0.5951(7) 0.2045(7) 0.6779(5)
C63_8 C 0.4480(8) 0.2312(7) 0.2604(4)
P2_8 P 0.4963 0.2204 0.2276
C64_8 C 0.4038(8) 0.2492(5) 0.2816(7)
C65_8 C 0.3826(6) 0.2247(9) 0.3225(7)
C66_8 C 0.5520(8) 0.2312(7) 0.7396(4)
P3_8 P 0.5037 0.2204 0.7724
C67_8 C 0.5962(8) 0.2492(5) 0.7184(7)
C68_8 C 0.6174(6) 0.2247(9) 0.6775(7)
C71_8 C 0.4480(8) 0.2688(7) 0.2396(4)
C72_8 C 0.5297 0.1924 0.2262
C73_8 C 0.4649 0.2028 0.2052
C74_8 C 0.3820(6) 0.2470(8) 0.3023(9)
C75_8 C 0.5520(8) 0.2688(7) 0.7604(4)
C76_8 C 0.4703 0.1924 0.7738
C77_8 C 0.5351 0.2028 0.7948
C78_8 C 0.6180(6) 0.2470(8) 0.6977(9)
C82_8 C 0.4703(6) 0.2890(9) 0.2400(6)
C83_8 C 0.4262(6) 0.2710(4) 0.2189(4)
C84_8 C 0.5529 0.1915 0.2453
C85_8 C 0.5240 0.1689 0.2082
C86_8 C 0.4639 0.2163 0.1782
C87_8 C 0.4498 0.1772 0.2097
C88_8 C 0.5297(6) 0.2890(9) 0.7600(6)
C89_8 C 0.5738(6) 0.2710(4) 0.7811(4)
C90_8 C 0.4471 0.1915 0.7547
C91_8 C 0.4760 0.1689 0.7918
C92_8 C 0.5361 0.2163 0.8218
C93_8 C 0.5502 0.1772 0.7903
C99_8 C 0.4709(6) 0.3114(7) 0.2198(8)
P5_8 P 0.4963 0.2796 0.2724
C100_8 C 0.4267(5) 0.2934(4) 0.1986(4)
C101_8 C 0.4038(8) 0.2508(5) 0.2184(7)
C102_8 C 0.5705 0.1670 0.2466
C103_8 C 0.5415 0.1444 0.2094
C104_8 C 0.4478 0.2041 0.1558
C105_8 C 0.4337 0.1650 0.1874
C106_8 C 0.5291(6) 0.3114(7) 0.7802(8)
P6_8 P 0.5037 0.2796 0.7276
C107_8 C 0.5733(5) 0.2934(4) 0.8014(4)
C108_8 C 0.5962(8) 0.2508(5) 0.7816(7)
C109_8 C 0.4295 0.1670 0.7534
C110_8 C 0.4585 0.1444 0.7906
C111_8 C 0.5522 0.2041 0.8442
C112_8 C 0.5663 0.1650 0.8126
C119_8 C 0.4491(7) 0.3135(5) 0.1991(6)
C120_8 C 0.5297 0.3076 0.2738
C121_8 C 0.4649 0.2972 0.2948
C122_8 C 0.4049(7) 0.2955(7) 0.1779(5)
C123_8 C 0.3820(6) 0.2530(8) 0.1977(9)
C124_8 C 0.5648 0.1435 0.2286
C125_8 C 0.4327 0.1784 0.1604
C126_8 C 0.5509(7) 0.3135(5) 0.8009(6)
C127_8 C 0.4703 0.3076 0.7262
C128_8 C 0.5351 0.2972 0.7052
C129_8 C 0.5951(7) 0.2955(7) 0.8221(5)
C130_8 C 0.6180(6) 0.2530(8) 0.8023(9)
C131_8 C 0.4352 0.1435 0.7714
C132_8 C 0.5673 0.1784 0.8396
C138_8 C 0.4578(15) 0.3363(14) 0.1762(13)
C139_8 C 0.5529 0.3085 0.2547
C140_8 C 0.5240 0.3311 0.2918
C141_8 C 0.4639 0.2837 0.3218
C142_8 C 0.4498 0.3228 0.2903
C143_8 C 0.3826(6) 0.2753(9) 0.1775(7)
C144_8 C 0.5422(15) 0.3363(14) 0.8238(13)
C145_8 C 0.4471 0.3085 0.7453
C146_8 C 0.4760 0.3311 0.7082
C147_8 C 0.5361 0.2837 0.6782
C148_8 C 0.5502 0.3228 0.7097
C149_8 C 0.6174(6) 0.2753(9) 0.8225(7)
C153_8 C 0.4681(16) 0.3525(15) 0.1551(13)
C154_8 C 0.5705 0.3330 0.2534
C155_8 C 0.5415 0.3556 0.2906
C156_8 C 0.4478 0.2959 0.3442
C157_8 C 0.4337 0.3350 0.3126
C158_8 C 0.5319(16) 0.3525(15) 0.8449(13)
C159_8 C 0.4295 0.3330 0.7466
C160_8 C 0.4585 0.3556 0.7094
C161_8 C 0.5522 0.2959 0.6558
C162_8 C 0.5663 0.3350 0.6874
C165_8 C 0.4650(15) 0.3804(8) 0.1297(13)
C166_8 C 0.5648 0.3565 0.2714
C167_8 C 0.4327 0.3216 0.3396
C168_8 C 0.5350(15) 0.3804(8) 0.8703(13)
C169_8 C 0.4352 0.3565 0.7286
C170_8 C 0.5673 0.3216 0.6604
C173_8 C 0.4490(6) 0.3868(11) 0.1050(17)
C174_8 C 0.4907(14) 0.3950(15) 0.1352(7)
C175_8 C 0.5510(6) 0.3868(11) 0.8950(17)
C176_8 C 0.5093(14) 0.3950(15) 0.8648(7)
C178_8 C 0.4588(13) 0.4079(14) 0.0858(8)
C179_8 C 0.5005(6) 0.4161(11) 0.1160(17)
C180_8 C 0.5412(13) 0.4079(14) 0.9142(8)
C181_8 C 0.4995(6) 0.4161(11) 0.8840(17)
C183_8 C 0.4845(15) 0.4225(7) 0.0913(13)
C184_8 C 0.5155(15) 0.4225(7) 0.9087(13)
C185_8 C 0.4899 0.4356 0.0645
C186_8 C 0.5101 0.4356 0.9355
O25_8 O 0.4921 0.4601 0.0798
O26_8 O 0.4921 0.4209 0.0399
O27_8 O 0.5079 0.4601 0.9202
O28_8 O 0.5079 0.4209 0.9601
H1_8 H 0.578581 0.375654 0.270488
H2_8 H 0.571178 0.375322 0.899328
H3_8 H 0.496774 0.389944 0.845431
H4_8 H 0.421419 0.375654 0.729512
H5_8 H 0.479322 0.427578 0.879672
H6_8 H 0.446274 0.412956 0.0664305
H8_8 H 0.420113 0.331216 0.357114
H9_8 H 0.428822 0.375322 0.100672
H10_8 H 0.503226 0.389944 0.154569
H11_8 H 0.520678 0.427578 0.120328
H13_8 H 0.553726 0.412956 0.933569
H14_8 H 0.579887 0.331216 0.642886
H31_8 H 0.446274 0.0870444 0.433569
H32_8 H 0.520678 0.072422 0.379672
H33_8 H 0.553726 0.0870444 0.566431
H34_8 H 0.479322 0.072422 0.620328
H36_8 H 0.428822 0.124678 0.399328
H37_8 H 0.503226 0.110056 0.345431
H42_8 H 0.403344 0.233272 0.234218
H43_8 H 0.505816 0.169692 0.193155
H44_8 H 0.63556 0.262784 0.697333
H45_8 H 0.496774 0.110056 0.654569
H46_8 H 0.365515 0.223049 0.338717
H47_8 H 0.634485 0.223049 0.661283
H48_8 H 0.594683 0.187029 0.662018
H49_8 H 0.36444 0.262784 0.302667
H50_8 H 0.405317 0.187029 0.337982
H51_8 H 0.557365 0.209981 0.259306
H52_8 H 0.475732 0.236421 0.174624
H53_8 H 0.450576 0.166631 0.230803
H54_8 H 0.442635 0.209981 0.740694
H55_8 H 0.494184 0.169692 0.806845
H56_8 H 0.511595 0.172755 0.720208
H57_8 H 0.524268 0.236421 0.825376
H58_8 H 0.488405 0.327245 0.220208
H59_8 H 0.488405 0.172755 0.279792
H61_8 H 0.596656 0.266728 0.734218
H62_8 H 0.549424 0.166631 0.769197
H63_8 H 0.403344 0.266728 0.265782
H65_8 H 0.571178 0.124678 0.600672
H66_8 H 0.588668 0.16625 0.261666
H68_8 H 0.447019 0.214656 0.134691
H71_8 H 0.557365 0.290019 0.240694
H72_8 H 0.53701 0.125948 0.195364
H73_8 H 0.442635 0.290019 0.759306
H74_8 H 0.549424 0.333369 0.730803
H75_8 H 0.578581 0.124346 0.229512
H76_8 H 0.524268 0.263579 0.674624
H77_8 H 0.505816 0.330308 0.306845
H79_8 H 0.36444 0.237216 0.197333
H80_8 H 0.421834 0.144911 0.191043
H82_8 H 0.596656 0.233272 0.765782
H84_8 H 0.511595 0.327245 0.779792
H85_8 H 0.405317 0.312971 0.162018
H87_8 H 0.475732 0.263579 0.325376
H88_8 H 0.588668 0.33375 0.238334
H90_8 H 0.552981 0.214656 0.865309
H91_8 H 0.365515 0.276951 0.161283
H92_8 H 0.421834 0.355089 0.308957
H93_8 H 0.450576 0.333369 0.269197
H95_8 H 0.46299 0.374052 0.695364
H96_8 H 0.552981 0.285344 0.634691
H97_8 H 0.578166 0.355089 0.691043
H100_8 H 0.579887 0.168784 0.857114
H102_8 H 0.46299 0.125948 0.804636
H103_8 H 0.420113 0.168784 0.142886
H104_8 H 0.421419 0.124346 0.770488
H105_8 H 0.494184 0.330308 0.693155
H106_8 H 0.63556 0.237216 0.802667
H107_8 H 0.411332 0.16625 0.738334
H108_8 H 0.634485 0.276951 0.838717
H110_8 H 0.594683 0.312971 0.837982
H111_8 H 0.53701 0.374052 0.304636
H112_8 H 0.447019 0.285344 0.365309
H113_8 H 0.411332 0.33375 0.761666
H114_8 H 0.578166 0.144911 0.808957
O1_4 O 0.4709 0.5291 0.0291
O2_4 O 0.4744 0.4744 0.0256
O5_4 O 0.5291 0.4709 0.0291
O6_4 O 0.5256 0.5256 0.0256
O12_4 O 0.4709 0.4709 0.9709
O13_4 O 0.4744 0.5256 0.9744
O16_4 O 0.5291 0.5291 0.9709
O18_4 O 0.5256 0.4744 0.9744
loop_
_geom_bond_atom_site_label_1
_geom_bond_atom_site_label_2
_geom_bond_site_symmetry_1
_geom_bond_site_symmetry_2
O4 Zr1 1_555 1_555
O6 Zr1 1_555 1_555
O8 Zr1 1_555 1_555
O19 Zr5 1_555 1_555
O22 Zr5 1_555 1_555
O6 Zr3 1_555 1_555
O6 Zr5 1_555 1_555
O16 Zr3_2 1_555 1_555
Zr5_2 O16 1_555 1_555
O5 Zr1_2 1_555 1_555
Zr5_3 O5 1_555 1_555
O5 Zr4 1_555 1_555
O18 Zr4_2 1_555 1_555
O20 Zr5_4 1_555 1_555
O21 Zr5_4 1_555 1_555
Zr5_4 O18 1_555 1_555
Zr1_3 O1 1_555 1_555
O1 Zr2 1_555 1_555
C22 C19 1_555 1_555
C23 C19 1_555 1_555
C26 C22 1_555 1_555
C27 C23 1_555 1_555
C30 C26 1_555 1_555
Zr3_3 O1 1_555 1_555
C84 C72 1_555 1_555
C85 C72 1_555 1_555
C102 C84 1_555 1_555
C103 C85 1_555 1_555
C114 C95 1_555 1_555
C115 C95 1_555 1_555
C124 C102 1_555 1_555
C134 C114 1_555 1_555
C135 C115 1_555 1_555
C139 C120 1_555 1_555
C140 C120 1_555 1_555
C151 C134 1_555 1_555
C154 C139 1_555 1_555
C155 C140 1_555 1_555
C166 C154 1_555 1_555
C27 C30 1_555 1_555
C103 C124 1_555 1_555
C135 C151 1_555 1_555
C155 C166 1_555 1_555
C166 H1 1_555 1_555
C179 H11 1_555 1_555
C172 H12 1_555 1_555
C4 H16 1_555 1_555
C22 H21 1_555 1_555
C26 H28 1_555 1_555
C30 H29 1_555 1_555
C37 H32 1_555 1_555
C23 H35 1_555 1_555
C27 H38 1_555 1_555
C85 H43 1_555 1_555
C84 H51 1_555 1_555
C102 H66 1_555 1_555
C135 H69 1_555 1_555
C139 H71 1_555 1_555
C103 H72 1_555 1_555
C124 H75 1_555 1_555
C140 H77 1_555 1_555
C151 H78 1_555 1_555
C114 H83 1_555 1_555
C154 H88 1_555 1_555
C134 H89 1_555 1_555
C115 H94 1_555 1_555
C155 H111 1_555 1_555
O10 Zr2_2 1_555 1_555
O13 Zr2_2 1_555 1_555
O14 Zr2_2 1_555 1_555
O15 Zr3_4 1_555 1_555
C32 O10 1_555 1_555
C34 C32 1_555 1_555
C36 C34 1_555 1_555
C40 C36 1_555 1_555
C44 C40 1_555 1_555
C46 C44 1_555 1_555
C48 C46 1_555 1_555
C50 C48 1_555 1_555
C52 C50 1_555 1_555
C53 C50 1_555 1_555
C56 C52 1_555 1_555
C57 C53 1_555 1_555
C58 C53 1_555 1_555
C63 C56 1_555 1_555
P2 C56 1_555 1_555
C64 C57 1_555 1_555
C65 C58 1_555 1_555
C71 C63 1_555 1_555
C73 P2 1_555 1_555
C74 C64 1_555 1_555
C82 C71 1_555 1_555
C83 C71 1_555 1_555
C86 C73 1_555 1_555
C87 C73 1_555 1_555
C99 C82 1_555 1_555
P5 C82 1_555 1_555
C100 C83 1_555 1_555
C101 C83 1_555 1_555
C104 C86 1_555 1_555
C105 C87 1_555 1_555
C119 C99 1_555 1_555
C121 P5 1_555 1_555
C122 C100 1_555 1_555
C123 C101 1_555 1_555
C125 C104 1_555 1_555
C138 C119 1_555 1_555
C141 C121 1_555 1_555
C142 C121 1_555 1_555
C143 C122 1_555 1_555
C153 C138 1_555 1_555
C156 C141 1_555 1_555
C157 C142 1_555 1_555
C165 C153 1_555 1_555
C167 C156 1_555 1_555
C173 C165 1_555 1_555
C174 C165 1_555 1_555
C178 C173 1_555 1_555
C183 C178 1_555 1_555
C185 C183 1_555 1_555
O25 C185 1_555 1_555
O26 C185 1_555 1_555
Zr8_2 O25 1_555 1_555
Zr9_2 O26 1_555 1_555
Zr3_4 O13 1_555 1_555
O15 C32 1_555 1_555
C41 C44 1_555 1_555
C57 C63 1_555 1_555
C65 C74 1_555 1_555
C100 C119 1_555 1_555
C105 C125 1_555 1_555
C123 C143 1_555 1_555
C157 C167 1_555 1_555
C178 H6 1_555 1_555
C167 H8 1_555 1_555
C173 H9 1_555 1_555
C36 H31 1_555 1_555
C40 H36 1_555 1_555
C101 H42 1_555 1_555
C65 H46 1_555 1_555
C74 H49 1_555 1_555
C58 H50 1_555 1_555
C86 H52 1_555 1_555
C87 H53 1_555 1_555
C99 H58 1_555 1_555
C52 H59 1_555 1_555
C64 H63 1_555 1_555
C104 H68 1_555 1_555
C123 H79 1_555 1_555
C105 H80 1_555 1_555
C122 H85 1_555 1_555
C141 H87 1_555 1_555
C143 H91 1_555 1_555
C157 H92 1_555 1_555
C142 H93 1_555 1_555
C125 H103 1_555 1_555
C156 H112 1_555 1_555
O2 Zr1_4 1_555 1_555
O3 Zr1_4 1_555 1_555
C1 O3 1_555 1_555
C2 C1 1_555 1_555
C3 C2 1_555 1_555
C5 C3 1_555 1_555
C7 C5 1_555 1_555
C8 C7 1_555 1_555
C9 C8 1_555 1_555
C10 C9 1_555 1_555
C11 C10 1_555 1_555
C12 C10 1_555 1_555
C13 C11 1_555 1_555
C14 C12 1_555 1_555
C15 C12 1_555 1_555
C16 C13 1_555 1_555
P1 C13 1_555 1_555
C17 C14 1_555 1_555
C18 C15 1_555 1_555
C20 P1 1_555 1_555
C21 C17 1_555 1_555
C24 C20 1_555 1_555
C25 C20 1_555 1_555
C28 C24 1_555 1_555
C29 C25 1_555 1_555
C31 C28 1_555 1_555
O7 Zr1_4 1_555 1_555
Zr2_3 O2 1_555 1_555
Zr4_3 O2 1_555 1_555
O9 C1 1_555 1_555
O11 Zr2_3 1_555 1_555
O17 Zr4_3 1_555 1_555
C33 O11 1_555 1_555
C35 C33 1_555 1_555
C38 C35 1_555 1_555
C42 C38 1_555 1_555
C45 C42 1_555 1_555
C47 C45 1_555 1_555
C49 C47 1_555 1_555
C51 C49 1_555 1_555
C54 C51 1_555 1_555
C55 C51 1_555 1_555
C59 C54 1_555 1_555
C60 C55 1_555 1_555
C61 C55 1_555 1_555
C62 C16 1_555 1_555
C66 C59 1_555 1_555
P3 C59 1_555 1_555
C67 C60 1_555 1_555
C68 C61 1_555 1_555
C69 C62 1_555 1_555
C70 C62 1_555 1_555
C75 C66 1_555 1_555
C77 P3 1_555 1_555
C78 C67 1_555 1_555
C79 C69 1_555 1_555
P4 C69 1_555 1_555
C80 C70 1_555 1_555
C81 C70 1_555 1_555
C88 C75 1_555 1_555
C89 C75 1_555 1_555
C92 C77 1_555 1_555
C93 C77 1_555 1_555
C94 C79 1_555 1_555
C96 P4 1_555 1_555
C97 C80 1_555 1_555
C98 C81 1_555 1_555
C106 C88 1_555 1_555
P6 C88 1_555 1_555
C107 C89 1_555 1_555
C108 C89 1_555 1_555
C111 C92 1_555 1_555
C112 C93 1_555 1_555
C113 C94 1_555 1_555
C116 C96 1_555 1_555
C117 C96 1_555 1_555
C118 C97 1_555 1_555
C126 C106 1_555 1_555
C128 P6 1_555 1_555
C129 C107 1_555 1_555
C130 C108 1_555 1_555
C132 C111 1_555 1_555
C133 C113 1_555 1_555
C136 C116 1_555 1_555
C137 C117 1_555 1_555
C144 C126 1_555 1_555
C147 C128 1_555 1_555
C148 C128 1_555 1_555
C149 C129 1_555 1_555
C150 C133 1_555 1_555
C152 C136 1_555 1_555
C158 C144 1_555 1_555
C161 C147 1_555 1_555
C162 C148 1_555 1_555
C163 C150 1_555 1_555
C164 C150 1_555 1_555
C168 C158 1_555 1_555
C170 C161 1_555 1_555
C171 C163 1_555 1_555
C175 C168 1_555 1_555
C176 C168 1_555 1_555
C177 C171 1_555 1_555
C180 C175 1_555 1_555
C182 C177 1_555 1_555
C184 C180 1_555 1_555
O23 C182 1_555 1_555
O24 C182 1_555 1_555
C186 C184 1_555 1_555
Zr6_2 O23 1_555 1_555
Zr7_2 O24 1_555 1_555
O27 C186 1_555 1_555
O28 C186 1_555 1_555
Zr10 O27 1_555 1_555
Zr9 O28 1_555 1_555
C6 C7 1_555 1_555
C14 C16 1_555 1_555
C18 C21 1_555 1_555
C29 C31 1_555 1_555
Zr2_3 O9 1_555 1_555
O17 C33 1_555 1_555
C43 C45 1_555 1_555
C60 C66 1_555 1_555
C68 C78 1_555 1_555
C80 C94 1_555 1_555
C98 C118 1_555 1_555
C107 C126 1_555 1_555
C112 C132 1_555 1_555
C130 C149 1_555 1_555
C137 C152 1_555 1_555
C162 C170 1_555 1_555
C175 H2 1_555 1_555
C171 H7 1_555 1_555
C180 H13 1_555 1_555
C170 H14 1_555 1_555
C5 H15 1_555 1_555
C3 H18 1_555 1_555
C11 H19 1_555 1_555
C15 H20 1_555 1_555
C24 H22 1_555 1_555
C17 H23 1_555 1_555
C29 H24 1_555 1_555
C31 H25 1_555 1_555
C21 H26 1_555 1_555
C25 H27 1_555 1_555
C18 H30 1_555 1_555
C38 H33 1_555 1_555
C28 H39 1_555 1_555
C97 H40 1_555 1_555
C98 H41 1_555 1_555
C78 H44 1_555 1_555
C68 H47 1_555 1_555
C61 H48 1_555 1_555
C54 H56 1_555 1_555
C92 H57 1_555 1_555
C81 H60 1_555 1_555
C67 H61 1_555 1_555
C93 H62 1_555 1_555
C79 H64 1_555 1_555
C42 H65 1_555 1_555
C117 H67 1_555 1_555
C136 H70 1_555 1_555
C148 H74 1_555 1_555
C147 H76 1_555 1_555
C118 H81 1_555 1_555
C108 H82 1_555 1_555
C106 H84 1_555 1_555
C137 H86 1_555 1_555
C111 H90 1_555 1_555
C161 H96 1_555 1_555
C162 H97 1_555 1_555
C163 H98 1_555 1_555
C132 H100 1_555 1_555
C116 H101 1_555 1_555
C130 H106 1_555 1_555
C149 H108 1_555 1_555
C152 H109 1_555 1_555
C129 H110 1_555 1_555
C112 H114 1_555 1_555
O12 Zr2_4 1_555 1_555
C90 C76 1_555 1_555
C91 C76 1_555 1_555
C109 C90 1_555 1_555
C110 C91 1_555 1_555
C131 C109 1_555 1_555
C145 C127 1_555 1_555
C146 C127 1_555 1_555
C159 C145 1_555 1_555
C160 C146 1_555 1_555
C169 C159 1_555 1_555
Zr4_4 O12 1_555 1_555
C110 C131 1_555 1_555
C160 C169 1_555 1_555
C169 H4 1_555 1_555
C181 H5 1_555 1_555
C39 H34 1_555 1_555
C90 H54 1_555 1_555
C91 H55 1_555 1_555
C145 H73 1_555 1_555
C160 H95 1_555 1_555
C110 H102 1_555 1_555
C131 H104 1_555 1_555
C146 H105 1_555 1_555
C109 H107 1_555 1_555
C159 H113 1_555 1_555
C1_2 O8 1_555 1_555
C2_2 C1_2 1_555 1_555
C3_2 C2_2 1_555 1_555
C5_2 C3_2 1_555 1_555
C7_2 C5_2 1_555 1_555
C8_2 C7_2 1_555 1_555
C9_2 C8_2 1_555 1_555
C10_2 C9_2 1_555 1_555
C11_2 C10_2 1_555 1_555
C12_2 C10_2 1_555 1_555
C13_2 C11_2 1_555 1_555
C14_2 C12_2 1_555 1_555
C15_2 C12_2 1_555 1_555
C16_2 C13_2 1_555 1_555
P1_2 C13_2 1_555 1_555
C17_2 C14_2 1_555 1_555
C18_2 C15_2 1_555 1_555
C20_2 P1_2 1_555 1_555
C21_2 C17_2 1_555 1_555
C24_2 C20_2 1_555 1_555
C25_2 C20_2 1_555 1_555
C28_2 C24_2 1_555 1_555
C29_2 C25_2 1_555 1_555
C31_2 C28_2 1_555 1_555
O19 C1_2 1_555 1_555
O17_2 Zr3 1_555 1_555
C33_2 O22 1_555 1_555
C35_2 C33_2 1_555 1_555
C38_2 C35_2 1_555 1_555
C42_2 C38_2 1_555 1_555
C45_2 C42_2 1_555 1_555
C47_2 C45_2 1_555 1_555
C49_2 C47_2 1_555 1_555
C51_2 C49_2 1_555 1_555
C54_2 C51_2 1_555 1_555
C55_2 C51_2 1_555 1_555
C59_2 C54_2 1_555 1_555
C60_2 C55_2 1_555 1_555
C61_2 C55_2 1_555 1_555
C62_2 C16_2 1_555 1_555
C66_2 C59_2 1_555 1_555
P3_2 C59_2 1_555 1_555
C67_2 C60_2 1_555 1_555
C68_2 C61_2 1_555 1_555
C69_2 C62_2 1_555 1_555
C70_2 C62_2 1_555 1_555
C75_2 C66_2 1_555 1_555
C77_2 P3_2 1_555 1_555
C78_2 C67_2 1_555 1_555
C79_2 C69_2 1_555 1_555
P4_2 C69_2 1_555 1_555
C80_2 C70_2 1_555 1_555
C81_2 C70_2 1_555 1_555
C88_2 C75_2 1_555 1_555
C89_2 C75_2 1_555 1_555
C92_2 C77_2 1_555 1_555
C93_2 C77_2 1_555 1_555
C94_2 C79_2 1_555 1_555
C96_2 P4_2 1_555 1_555
C97_2 C80_2 1_555 1_555
C98_2 C81_2 1_555 1_555
C106_2 C88_2 1_555 1_555
P6_2 C88_2 1_555 1_555
C107_2 C89_2 1_555 1_555
C108_2 C89_2 1_555 1_555
C111_2 C92_2 1_555 1_555
C112_2 C93_2 1_555 1_555
C113_2 C94_2 1_555 1_555
C116_2 C96_2 1_555 1_555
C117_2 C96_2 1_555 1_555
C118_2 C97_2 1_555 1_555
C126_2 C106_2 1_555 1_555
C128_2 P6_2 1_555 1_555
C129_2 C107_2 1_555 1_555
C130_2 C108_2 1_555 1_555
C132_2 C111_2 1_555 1_555
C133_2 C113_2 1_555 1_555
C136_2 C116_2 1_555 1_555
C137_2 C117_2 1_555 1_555
C144_2 C126_2 1_555 1_555
C147_2 C128_2 1_555 1_555
C148_2 C128_2 1_555 1_555
C149_2 C129_2 1_555 1_555
C150_2 C133_2 1_555 1_555
C152_2 C136_2 1_555 1_555
C158_2 C144_2 1_555 1_555
C161_2 C147_2 1_555 1_555
C162_2 C148_2 1_555 1_555
C163_2 C150_2 1_555 1_555
C164_2 C150_2 1_555 1_555
C168_2 C158_2 1_555 1_555
C170_2 C161_2 1_555 1_555
C171_2 C163_2 1_555 1_555
C175_2 C168_2 1_555 1_555
C176_2 C168_2 1_555 1_555
C177_2 C171_2 1_555 1_555
C180_2 C175_2 1_555 1_555
C182_2 C177_2 1_555 1_555
C184_2 C180_2 1_555 1_555
O23_2 C182_2 1_555 1_555
O24_2 C182_2 1_555 1_555
C186_2 C184_2 1_555 1_555
Zr6_3 O23_2 1_555 1_555
Zr7 O24_2 1_555 1_555
O27_2 C186_2 1_555 1_555
O28_2 C186_2 1_555 1_555
Zr8 O27_2 1_555 1_555
Zr11 O28_2 1_555 1_555
C6_2 C7_2 1_555 1_555
C14_2 C16_2 1_555 1_555
C18_2 C21_2 1_555 1_555
C29_2 C31_2 1_555 1_555
O17_2 C33_2 1_555 1_555
C43_2 C45_2 1_555 1_555
C60_2 C66_2 1_555 1_555
C68_2 C78_2 1_555 1_555
C80_2 C94_2 1_555 1_555
C98_2 C118_2 1_555 1_555
C107_2 C126_2 1_555 1_555
C112_2 C132_2 1_555 1_555
C130_2 C149_2 1_555 1_555
C137_2 C152_2 1_555 1_555
C162_2 C170_2 1_555 1_555
C175_2 H2_2 1_555 1_555
C171_2 H7_2 1_555 1_555
C180_2 H13_2 1_555 1_555
C170_2 H14_2 1_555 1_555
C5_2 H15_2 1_555 1_555
C3_2 H18_2 1_555 1_555
C11_2 H19_2 1_555 1_555
C15_2 H20_2 1_555 1_555
C24_2 H22_2 1_555 1_555
C17_2 H23_2 1_555 1_555
C29_2 H24_2 1_555 1_555
C31_2 H25_2 1_555 1_555
C21_2 H26_2 1_555 1_555
C25_2 H27_2 1_555 1_555
C18_2 H30_2 1_555 1_555
C38_2 H33_2 1_555 1_555
C28_2 H39_2 1_555 1_555
C97_2 H40_2 1_555 1_555
C98_2 H41_2 1_555 1_555
C78_2 H44_2 1_555 1_555
C68_2 H47_2 1_555 1_555
C61_2 H48_2 1_555 1_555
C54_2 H56_2 1_555 1_555
C92_2 H57_2 1_555 1_555
C81_2 H60_2 1_555 1_555
C67_2 H61_2 1_555 1_555
C93_2 H62_2 1_555 1_555
C79_2 H64_2 1_555 1_555
C42_2 H65_2 1_555 1_555
C117_2 H67_2 1_555 1_555
C136_2 H70_2 1_555 1_555
C148_2 H74_2 1_555 1_555
C147_2 H76_2 1_555 1_555
C118_2 H81_2 1_555 1_555
C108_2 H82_2 1_555 1_555
C106_2 H84_2 1_555 1_555
C137_2 H86_2 1_555 1_555
C111_2 H90_2 1_555 1_555
C161_2 H96_2 1_555 1_555
C162_2 H97_2 1_555 1_555
C163_2 H98_2 1_555 1_555
C132_2 H100_2 1_555 1_555
C116_2 H101_2 1_555 1_555
C130_2 H106_2 1_555 1_555
C149_2 H108_2 1_555 1_555
C152_2 H109_2 1_555 1_555
C129_2 H110_2 1_555 1_555
C112_2 H114_2 1_555 1_555
C90_2 C76_2 1_555 1_555
C91_2 C76_2 1_555 1_555
C109_2 C90_2 1_555 1_555
C110_2 C91_2 1_555 1_555
C131_2 C109_2 1_555 1_555
C145_2 C127_2 1_555 1_555
C146_2 C127_2 1_555 1_555
C159_2 C145_2 1_555 1_555
C160_2 C146_2 1_555 1_555
C169_2 C159_2 1_555 1_555
C110_2 C131_2 1_555 1_555
C160_2 C169_2 1_555 1_555
C169_2 H4_2 1_555 1_555
C181_2 H5_2 1_555 1_555
C39_2 H34_2 1_555 1_555
C90_2 H54_2 1_555 1_555
C91_2 H55_2 1_555 1_555
C145_2 H73_2 1_555 1_555
C160_2 H95_2 1_555 1_555
C110_2 H102_2 1_555 1_555
C131_2 H104_2 1_555 1_555
C146_2 H105_2 1_555 1_555
C109_2 H107_2 1_555 1_555
C159_2 H113_2 1_555 1_555
C22_2 C19_2 1_555 1_555
C23_2 C19_2 1_555 1_555
C26_2 C22_2 1_555 1_555
C27_2 C23_2 1_555 1_555
C30_2 C26_2 1_555 1_555
C84_2 C72_2 1_555 1_555
C85_2 C72_2 1_555 1_555
C102_2 C84_2 1_555 1_555
C103_2 C85_2 1_555 1_555
C114_2 C95_2 1_555 1_555
C115_2 C95_2 1_555 1_555
C124_2 C102_2 1_555 1_555
C134_2 C114_2 1_555 1_555
C135_2 C115_2 1_555 1_555
C139_2 C120_2 1_555 1_555
C140_2 C120_2 1_555 1_555
C151_2 C134_2 1_555 1_555
C154_2 C139_2 1_555 1_555
C155_2 C140_2 1_555 1_555
C166_2 C154_2 1_555 1_555
C27_2 C30_2 1_555 1_555
C103_2 C124_2 1_555 1_555
C135_2 C151_2 1_555 1_555
C155_2 C166_2 1_555 1_555
C166_2 H1_2 1_555 1_555
C179_2 H11_2 1_555 1_555
C172_2 H12_2 1_555 1_555
C4_2 H16_2 1_555 1_555
C22_2 H21_2 1_555 1_555
C26_2 H28_2 1_555 1_555
C30_2 H29_2 1_555 1_555
C37_2 H32_2 1_555 1_555
C23_2 H35_2 1_555 1_555
C27_2 H38_2 1_555 1_555
C85_2 H43_2 1_555 1_555
C84_2 H51_2 1_555 1_555
C102_2 H66_2 1_555 1_555
C135_2 H69_2 1_555 1_555
C139_2 H71_2 1_555 1_555
C103_2 H72_2 1_555 1_555
C124_2 H75_2 1_555 1_555
C140_2 H77_2 1_555 1_555
C151_2 H78_2 1_555 1_555
C114_2 H83_2 1_555 1_555
C154_2 H88_2 1_555 1_555
C134_2 H89_2 1_555 1_555
C115_2 H94_2 1_555 1_555
C155_2 H111_2 1_555 1_555
O15_2 Zr4_2 1_555 1_555
C32_2 O21 1_555 1_555
C34_2 C32_2 1_555 1_555
C36_2 C34_2 1_555 1_555
C40_2 C36_2 1_555 1_555
C44_2 C40_2 1_555 1_555
C46_2 C44_2 1_555 1_555
C48_2 C46_2 1_555 1_555
C50_2 C48_2 1_555 1_555
C52_2 C50_2 1_555 1_555
C53_2 C50_2 1_555 1_555
C56_2 C52_2 1_555 1_555
C57_2 C53_2 1_555 1_555
C58_2 C53_2 1_555 1_555
C63_2 C56_2 1_555 1_555
P2_2 C56_2 1_555 1_555
C64_2 C57_2 1_555 1_555
C65_2 C58_2 1_555 1_555
C71_2 C63_2 1_555 1_555
C73_2 P2_2 1_555 1_555
C74_2 C64_2 1_555 1_555
C82_2 C71_2 1_555 1_555
C83_2 C71_2 1_555 1_555
C86_2 C73_2 1_555 1_555
C87_2 C73_2 1_555 1_555
C99_2 C82_2 1_555 1_555
P5_2 C82_2 1_555 1_555
C100_2 C83_2 1_555 1_555
C101_2 C83_2 1_555 1_555
C104_2 C86_2 1_555 1_555
C105_2 C87_2 1_555 1_555
C119_2 C99_2 1_555 1_555
C121_2 P5_2 1_555 1_555
C122_2 C100_2 1_555 1_555
C123_2 C101_2 1_555 1_555
C125_2 C104_2 1_555 1_555
C138_2 C119_2 1_555 1_555
C141_2 C121_2 1_555 1_555
C142_2 C121_2 1_555 1_555
C143_2 C122_2 1_555 1_555
C153_2 C138_2 1_555 1_555
C156_2 C141_2 1_555 1_555
C157_2 C142_2 1_555 1_555
C165_2 C153_2 1_555 1_555
C167_2 C156_2 1_555 1_555
C173_2 C165_2 1_555 1_555
C174_2 C165_2 1_555 1_555
C178_2 C173_2 1_555 1_555
C183_2 C178_2 1_555 1_555
C185_2 C183_2 1_555 1_555
O25_2 C185_2 1_555 1_555
O26_2 C185_2 1_555 1_555
Zr10_2 O25_2 1_555 1_555
Zr11_2 O26_2 1_555 1_555
O15_2 C32_2 1_555 1_555
C41_2 C44_2 1_555 1_555
C57_2 C63_2 1_555 1_555
C65_2 C74_2 1_555 1_555
C100_2 C119_2 1_555 1_555
C105_2 C125_2 1_555 1_555
C123_2 C143_2 1_555 1_555
C157_2 C167_2 1_555 1_555
C178_2 H6_2 1_555 1_555
C167_2 H8_2 1_555 1_555
C173_2 H9_2 1_555 1_555
C36_2 H31_2 1_555 1_555
C40_2 H36_2 1_555 1_555
C101_2 H42_2 1_555 1_555
C65_2 H46_2 1_555 1_555
C74_2 H49_2 1_555 1_555
C58_2 H50_2 1_555 1_555
C86_2 H52_2 1_555 1_555
C87_2 H53_2 1_555 1_555
C99_2 H58_2 1_555 1_555
C52_2 H59_2 1_555 1_555
C64_2 H63_2 1_555 1_555
C104_2 H68_2 1_555 1_555
C123_2 H79_2 1_555 1_555
C105_2 H80_2 1_555 1_555
C122_2 H85_2 1_555 1_555
C141_2 H87_2 1_555 1_555
C143_2 H91_2 1_555 1_555
C157_2 H92_2 1_555 1_555
C142_2 H93_2 1_555 1_555
C125_2 H103_2 1_555 1_555
C156_2 H112_2 1_555 1_555
Zr1_5 O16 1_555 1_555
C22_3 C19_3 1_555 1_555
C23_3 C19_3 1_555 1_555
C26_3 C22_3 1_555 1_555
C27_3 C23_3 1_555 1_555
C30_3 C26_3 1_555 1_555
C114_3 C95_3 1_555 1_555
C115_3 C95_3 1_555 1_555
C134_3 C114_3 1_555 1_555
C135_3 C115_3 1_555 1_555
C151_3 C134_3 1_555 1_555
C27_3 C30_3 1_555 1_555
C135_3 C151_3 1_555 1_555
C172_3 H12_3 1_555 1_555
C4_3 H16_3 1_555 1_555
C22_3 H21_3 1_555 1_555
C26_3 H28_3 1_555 1_555
C30_3 H29_3 1_555 1_555
C23_3 H35_3 1_555 1_555
C27_3 H38_3 1_555 1_555
C135_3 H69_3 1_555 1_555
C151_3 H78_3 1_555 1_555
C114_3 H83_3 1_555 1_555
C134_3 H89_3 1_555 1_555
C115_3 H94_3 1_555 1_555
O18 Zr1_6 1_555 1_555
O3_2 Zr1_6 1_555 1_555
C1_3 O3_2 1_555 1_555
C2_3 C1_3 1_555 1_555
C3_3 C2_3 1_555 1_555
C5_3 C3_3 1_555 1_555
C7_3 C5_3 1_555 1_555
C8_3 C7_3 1_555 1_555
C9_3 C8_3 1_555 1_555
C10_3 C9_3 1_555 1_555
C11_3 C10_3 1_555 1_555
C12_3 C10_3 1_555 1_555
C13_3 C11_3 1_555 1_555
C14_3 C12_3 1_555 1_555
C15_3 C12_3 1_555 1_555
C16_3 C13_3 1_555 1_555
P1_3 C13_3 1_555 1_555
C17_3 C14_3 1_555 1_555
C18_3 C15_3 1_555 1_555
C20_3 P1_3 1_555 1_555
C21_3 C17_3 1_555 1_555
C24_3 C20_3 1_555 1_555
C25_3 C20_3 1_555 1_555
C28_3 C24_3 1_555 1_555
C29_3 C25_3 1_555 1_555
C31_3 C28_3 1_555 1_555
O7_2 Zr1_6 1_555 1_555
O20 C1_3 1_555 1_555
C62_3 C16_3 1_555 1_555
C69_3 C62_3 1_555 1_555
C70_3 C62_3 1_555 1_555
C79_3 C69_3 1_555 1_555
P4_3 C69_3 1_555 1_555
C80_3 C70_3 1_555 1_555
C81_3 C70_3 1_555 1_555
C94_3 C79_3 1_555 1_555
C96_3 P4_3 1_555 1_555
C97_3 C80_3 1_555 1_555
C98_3 C81_3 1_555 1_555
C113_3 C94_3 1_555 1_555
C116_3 C96_3 1_555 1_555
C117_3 C96_3 1_555 1_555
C118_3 C97_3 1_555 1_555
C133_3 C113_3 1_555 1_555
C136_3 C116_3 1_555 1_555
C137_3 C117_3 1_555 1_555
C150_3 C133_3 1_555 1_555
C152_3 C136_3 1_555 1_555
C163_3 C150_3 1_555 1_555
C164_3 C150_3 1_555 1_555
C171_3 C163_3 1_555 1_555
C177_3 C171_3 1_555 1_555
C182_3 C177_3 1_555 1_555
O23_3 C182_3 1_555 1_555
O24_3 C182_3 1_555 1_555
Zr6_4 O23_3 1_555 1_555
Zr7_4 O24_3 1_555 1_555
C6_3 C7_3 1_555 1_555
C14_3 C16_3 1_555 1_555
C18_3 C21_3 1_555 1_555
C29_3 C31_3 1_555 1_555
C80_3 C94_3 1_555 1_555
C98_3 C118_3 1_555 1_555
C137_3 C152_3 1_555 1_555
C171_3 H7_3 1_555 1_555
C5_3 H15_3 1_555 1_555
C3_3 H18_3 1_555 1_555
C11_3 H19_3 1_555 1_555
C15_3 H20_3 1_555 1_555
C24_3 H22_3 1_555 1_555
C17_3 H23_3 1_555 1_555
C29_3 H24_3 1_555 1_555
C31_3 H25_3 1_555 1_555
C21_3 H26_3 1_555 1_555
C25_3 H27_3 1_555 1_555
C18_3 H30_3 1_555 1_555
C28_3 H39_3 1_555 1_555
C97_3 H40_3 1_555 1_555
C98_3 H41_3 1_555 1_555
C81_3 H60_3 1_555 1_555
C79_3 H64_3 1_555 1_555
C117_3 H67_3 1_555 1_555
C136_3 H70_3 1_555 1_555
C118_3 H81_3 1_555 1_555
C137_3 H86_3 1_555 1_555
C163_3 H98_3 1_555 1_555
C116_3 H101_3 1_555 1_555
C152_3 H109_3 1_555 1_555
O4_2 Zr1_7 1_555 1_555
O13 Zr1_7 1_555 1_555
O8_2 Zr1_7 1_555 1_555
O12 Zr1_8 1_555 1_555
C1_4 O8_2 1_555 1_555
C2_4 C1_4 1_555 1_555
C3_4 C2_4 1_555 1_555
C5_4 C3_4 1_555 1_555
C7_4 C5_4 1_555 1_555
C8_4 C7_4 1_555 1_555
C9_4 C8_4 1_555 1_555
C10_4 C9_4 1_555 1_555
C11_4 C10_4 1_555 1_555
C12_4 C10_4 1_555 1_555
C13_4 C11_4 1_555 1_555
C14_4 C12_4 1_555 1_555
C15_4 C12_4 1_555 1_555
C16_4 C13_4 1_555 1_555
P1_4 C13_4 1_555 1_555
C17_4 C14_4 1_555 1_555
C18_4 C15_4 1_555 1_555
C20_4 P1_4 1_555 1_555
C21_4 C17_4 1_555 1_555
C24_4 C20_4 1_555 1_555
C25_4 C20_4 1_555 1_555
C28_4 C24_4 1_555 1_555
C29_4 C25_4 1_555 1_555
C31_4 C28_4 1_555 1_555
O14 C1_4 1_555 1_555
C62_4 C16_4 1_555 1_555
C69_4 C62_4 1_555 1_555
C70_4 C62_4 1_555 1_555
C79_4 C69_4 1_555 1_555
P4_4 C69_4 1_555 1_555
C80_4 C70_4 1_555 1_555
C81_4 C70_4 1_555 1_555
C94_4 C79_4 1_555 1_555
C96_4 P4_4 1_555 1_555
C97_4 C80_4 1_555 1_555
C98_4 C81_4 1_555 1_555
C113_4 C94_4 1_555 1_555
C116_4 C96_4 1_555 1_555
C117_4 C96_4 1_555 1_555
C118_4 C97_4 1_555 1_555
C133_4 C113_4 1_555 1_555
C136_4 C116_4 1_555 1_555
C137_4 C117_4 1_555 1_555
C150_4 C133_4 1_555 1_555
C152_4 C136_4 1_555 1_555
C163_4 C150_4 1_555 1_555
C164_4 C150_4 1_555 1_555
C171_4 C163_4 1_555 1_555
C177_4 C171_4 1_555 1_555
C182_4 C177_4 1_555 1_555
O23_4 C182_4 1_555 1_555
O24_4 C182_4 1_555 1_555
Zr6 O23_4 1_555 1_555
Zr7_3 O24_4 1_555 1_555
C6_4 C7_4 1_555 1_555
C14_4 C16_4 1_555 1_555
C18_4 C21_4 1_555 1_555
C29_4 C31_4 1_555 1_555
C80_4 C94_4 1_555 1_555
C98_4 C118_4 1_555 1_555
C137_4 C152_4 1_555 1_555
C171_4 H7_4 1_555 1_555
C5_4 H15_4 1_555 1_555
C3_4 H18_4 1_555 1_555
C11_4 H19_4 1_555 1_555
C15_4 H20_4 1_555 1_555
C24_4 H22_4 1_555 1_555
C17_4 H23_4 1_555 1_555
C29_4 H24_4 1_555 1_555
C31_4 H25_4 1_555 1_555
C21_4 H26_4 1_555 1_555
C25_4 H27_4 1_555 1_555
C18_4 H30_4 1_555 1_555
C28_4 H39_4 1_555 1_555
C97_4 H40_4 1_555 1_555
C98_4 H41_4 1_555 1_555
C81_4 H60_4 1_555 1_555
C79_4 H64_4 1_555 1_555
C117_4 H67_4 1_555 1_555
C136_4 H70_4 1_555 1_555
C118_4 H81_4 1_555 1_555
C137_4 H86_4 1_555 1_555
C163_4 H98_4 1_555 1_555
C116_4 H101_4 1_555 1_555
C152_4 H109_4 1_555 1_555
C22_4 C19_4 1_555 1_555
C23_4 C19_4 1_555 1_555
C26_4 C22_4 1_555 1_555
C27_4 C23_4 1_555 1_555
C30_4 C26_4 1_555 1_555
C114_4 C95_4 1_555 1_555
C115_4 C95_4 1_555 1_555
C134_4 C114_4 1_555 1_555
C135_4 C115_4 1_555 1_555
C151_4 C134_4 1_555 1_555
C27_4 C30_4 1_555 1_555
C135_4 C151_4 1_555 1_555
C172_4 H12_4 1_555 1_555
C4_4 H16_4 1_555 1_555
C22_4 H21_4 1_555 1_555
C26_4 H28_4 1_555 1_555
C30_4 H29_4 1_555 1_555
C23_4 H35_4 1_555 1_555
C27_4 H38_4 1_555 1_555
C135_4 H69_4 1_555 1_555
C151_4 H78_4 1_555 1_555
C114_4 H83_4 1_555 1_555
C134_4 H89_4 1_555 1_555
C115_4 H94_4 1_555 1_555
O22_2 Zr3 1_555 1_555
C84_3 C72_3 1_555 1_555
C85_3 C72_3 1_555 1_555
C102_3 C84_3 1_555 1_555
C103_3 C85_3 1_555 1_555
C124_3 C102_3 1_555 1_555
C139_3 C120_3 1_555 1_555
C140_3 C120_3 1_555 1_555
C154_3 C139_3 1_555 1_555
C155_3 C140_3 1_555 1_555
C166_3 C154_3 1_555 1_555
C103_3 C124_3 1_555 1_555
C155_3 C166_3 1_555 1_555
C166_3 H1_3 1_555 1_555
C179_3 H11_3 1_555 1_555
C37_3 H32_3 1_555 1_555
C85_3 H43_3 1_555 1_555
C84_3 H51_3 1_555 1_555
C102_3 H66_3 1_555 1_555
C139_3 H71_3 1_555 1_555
C103_3 H72_3 1_555 1_555
C124_3 H75_3 1_555 1_555
C140_3 H77_3 1_555 1_555
C154_3 H88_3 1_555 1_555
C155_3 H111_3 1_555 1_555
O11_2 Zr4_2 1_555 1_555
C33_3 O11_2 1_555 1_555
C35_3 C33_3 1_555 1_555
C38_3 C35_3 1_555 1_555
C42_3 C38_3 1_555 1_555
C45_3 C42_3 1_555 1_555
C47_3 C45_3 1_555 1_555
C49_3 C47_3 1_555 1_555
C51_3 C49_3 1_555 1_555
C54_3 C51_3 1_555 1_555
C55_3 C51_3 1_555 1_555
C59_3 C54_3 1_555 1_555
C60_3 C55_3 1_555 1_555
C61_3 C55_3 1_555 1_555
C66_3 C59_3 1_555 1_555
P3_3 C59_3 1_555 1_555
C67_3 C60_3 1_555 1_555
C68_3 C61_3 1_555 1_555
C75_3 C66_3 1_555 1_555
C77_3 P3_3 1_555 1_555
C78_3 C67_3 1_555 1_555
C88_3 C75_3 1_555 1_555
C89_3 C75_3 1_555 1_555
C92_3 C77_3 1_555 1_555
C93_3 C77_3 1_555 1_555
C106_3 C88_3 1_555 1_555
P6_3 C88_3 1_555 1_555
C107_3 C89_3 1_555 1_555
C108_3 C89_3 1_555 1_555
C111_3 C92_3 1_555 1_555
C112_3 C93_3 1_555 1_555
C126_3 C106_3 1_555 1_555
C128_3 P6_3 1_555 1_555
C129_3 C107_3 1_555 1_555
C130_3 C108_3 1_555 1_555
C132_3 C111_3 1_555 1_555
C144_3 C126_3 1_555 1_555
C147_3 C128_3 1_555 1_555
C148_3 C128_3 1_555 1_555
C149_3 C129_3 1_555 1_555
C158_3 C144_3 1_555 1_555
C161_3 C147_3 1_555 1_555
C162_3 C148_3 1_555 1_555
C168_3 C158_3 1_555 1_555
C170_3 C161_3 1_555 1_555
C175_3 C168_3 1_555 1_555
C176_3 C168_3 1_555 1_555
C180_3 C175_3 1_555 1_555
C184_3 C180_3 1_555 1_555
C186_3 C184_3 1_555 1_555
O27_3 C186_3 1_555 1_555
O28_3 C186_3 1_555 1_555
Zr10_3 O27_3 1_555 1_555
Zr9_3 O28_3 1_555 1_555
O7_2 C33_3 1_555 1_555
C43_3 C45_3 1_555 1_555
C60_3 C66_3 1_555 1_555
C68_3 C78_3 1_555 1_555
C107_3 C126_3 1_555 1_555
C112_3 C132_3 1_555 1_555
C130_3 C149_3 1_555 1_555
C162_3 C170_3 1_555 1_555
C175_3 H2_3 1_555 1_555
C180_3 H13_3 1_555 1_555
C170_3 H14_3 1_555 1_555
C38_3 H33_3 1_555 1_555
C78_3 H44_3 1_555 1_555
C68_3 H47_3 1_555 1_555
C61_3 H48_3 1_555 1_555
C54_3 H56_3 1_555 1_555
C92_3 H57_3 1_555 1_555
C67_3 H61_3 1_555 1_555
C93_3 H62_3 1_555 1_555
C42_3 H65_3 1_555 1_555
C148_3 H74_3 1_555 1_555
C147_3 H76_3 1_555 1_555
C108_3 H82_3 1_555 1_555
C106_3 H84_3 1_555 1_555
C111_3 H90_3 1_555 1_555
C161_3 H96_3 1_555 1_555
C162_3 H97_3 1_555 1_555
C132_3 H100_3 1_555 1_555
C130_3 H106_3 1_555 1_555
C149_3 H108_3 1_555 1_555
C129_3 H110_3 1_555 1_555
C112_3 H114_3 1_555 1_555
O21_2 Zr3_4 1_555 1_555
O10_2 Zr4_3 1_555 1_555
C32_3 O10_2 1_555 1_555
C34_3 C32_3 1_555 1_555
C36_3 C34_3 1_555 1_555
C40_3 C36_3 1_555 1_555
C44_3 C40_3 1_555 1_555
C46_3 C44_3 1_555 1_555
C48_3 C46_3 1_555 1_555
C50_3 C48_3 1_555 1_555
C52_3 C50_3 1_555 1_555
C53_3 C50_3 1_555 1_555
C56_3 C52_3 1_555 1_555
C57_3 C53_3 1_555 1_555
C58_3 C53_3 1_555 1_555
C63_3 C56_3 1_555 1_555
P2_3 C56_3 1_555 1_555
C64_3 C57_3 1_555 1_555
C65_3 C58_3 1_555 1_555
C71_3 C63_3 1_555 1_555
C73_3 P2_3 1_555 1_555
C74_3 C64_3 1_555 1_555
C82_3 C71_3 1_555 1_555
C83_3 C71_3 1_555 1_555
C86_3 C73_3 1_555 1_555
C87_3 C73_3 1_555 1_555
C99_3 C82_3 1_555 1_555
P5_3 C82_3 1_555 1_555
C100_3 C83_3 1_555 1_555
C101_3 C83_3 1_555 1_555
C104_3 C86_3 1_555 1_555
C105_3 C87_3 1_555 1_555
C119_3 C99_3 1_555 1_555
C121_3 P5_3 1_555 1_555
C122_3 C100_3 1_555 1_555
C123_3 C101_3 1_555 1_555
C125_3 C104_3 1_555 1_555
C138_3 C119_3 1_555 1_555
C141_3 C121_3 1_555 1_555
C142_3 C121_3 1_555 1_555
C143_3 C122_3 1_555 1_555
C153_3 C138_3 1_555 1_555
C156_3 C141_3 1_555 1_555
C157_3 C142_3 1_555 1_555
C165_3 C153_3 1_555 1_555
C167_3 C156_3 1_555 1_555
C173_3 C165_3 1_555 1_555
C174_3 C165_3 1_555 1_555
C178_3 C173_3 1_555 1_555
C183_3 C178_3 1_555 1_555
C185_3 C183_3 1_555 1_555
O25_3 C185_3 1_555 1_555
O26_3 C185_3 1_555 1_555
Zr8_4 O25_3 1_555 1_555
Zr9_4 O26_3 1_555 1_555
O7 C32_3 1_555 1_555
C41_3 C44_3 1_555 1_555
C57_3 C63_3 1_555 1_555
C65_3 C74_3 1_555 1_555
C100_3 C119_3 1_555 1_555
C105_3 C125_3 1_555 1_555
C123_3 C143_3 1_555 1_555
C157_3 C167_3 1_555 1_555
C178_3 H6_3 1_555 1_555
C167_3 H8_3 1_555 1_555
C173_3 H9_3 1_555 1_555
C36_3 H31_3 1_555 1_555
C40_3 H36_3 1_555 1_555
C101_3 H42_3 1_555 1_555
C65_3 H46_3 1_555 1_555
C74_3 H49_3 1_555 1_555
C58_3 H50_3 1_555 1_555
C86_3 H52_3 1_555 1_555
C87_3 H53_3 1_555 1_555
C99_3 H58_3 1_555 1_555
C52_3 H59_3 1_555 1_555
C64_3 H63_3 1_555 1_555
C104_3 H68_3 1_555 1_555
C123_3 H79_3 1_555 1_555
C105_3 H80_3 1_555 1_555
C122_3 H85_3 1_555 1_555
C141_3 H87_3 1_555 1_555
C143_3 H91_3 1_555 1_555
C157_3 H92_3 1_555 1_555
C142_3 H93_3 1_555 1_555
C125_3 H103_3 1_555 1_555
C156_3 H112_3 1_555 1_555
C90_3 C76_3 1_555 1_555
C91_3 C76_3 1_555 1_555
C109_3 C90_3 1_555 1_555
C110_3 C91_3 1_555 1_555
C131_3 C109_3 1_555 1_555
C145_3 C127_3 1_555 1_555
C146_3 C127_3 1_555 1_555
C159_3 C145_3 1_555 1_555
C160_3 C146_3 1_555 1_555
C169_3 C159_3 1_555 1_555
C110_3 C131_3 1_555 1_555
C160_3 C169_3 1_555 1_555
C169_3 H4_3 1_555 1_555
C181_3 H5_3 1_555 1_555
C39_3 H34_3 1_555 1_555
C90_3 H54_3 1_555 1_555
C91_3 H55_3 1_555 1_555
C145_3 H73_3 1_555 1_555
C160_3 H95_3 1_555 1_555
C110_3 H102_3 1_555 1_555
C131_3 H104_3 1_555 1_555
C146_3 H105_3 1_555 1_555
C109_3 H107_3 1_555 1_555
C159_3 H113_3 1_555 1_555
C33_4 O22_2 1_555 1_555
C35_4 C33_4 1_555 1_555
C38_4 C35_4 1_555 1_555
C42_4 C38_4 1_555 1_555
C45_4 C42_4 1_555 1_555
C47_4 C45_4 1_555 1_555
C49_4 C47_4 1_555 1_555
C51_4 C49_4 1_555 1_555
C54_4 C51_4 1_555 1_555
C55_4 C51_4 1_555 1_555
C59_4 C54_4 1_555 1_555
C60_4 C55_4 1_555 1_555
C61_4 C55_4 1_555 1_555
C66_4 C59_4 1_555 1_555
P3_4 C59_4 1_555 1_555
C67_4 C60_4 1_555 1_555
C68_4 C61_4 1_555 1_555
C75_4 C66_4 1_555 1_555
C77_4 P3_4 1_555 1_555
C78_4 C67_4 1_555 1_555
C88_4 C75_4 1_555 1_555
C89_4 C75_4 1_555 1_555
C92_4 C77_4 1_555 1_555
C93_4 C77_4 1_555 1_555
C106_4 C88_4 1_555 1_555
P6_4 C88_4 1_555 1_555
C107_4 C89_4 1_555 1_555
C108_4 C89_4 1_555 1_555
C111_4 C92_4 1_555 1_555
C112_4 C93_4 1_555 1_555
C126_4 C106_4 1_555 1_555
C128_4 P6_4 1_555 1_555
C129_4 C107_4 1_555 1_555
C130_4 C108_4 1_555 1_555
C132_4 C111_4 1_555 1_555
C144_4 C126_4 1_555 1_555
C147_4 C128_4 1_555 1_555
C148_4 C128_4 1_555 1_555
C149_4 C129_4 1_555 1_555
C158_4 C144_4 1_555 1_555
C161_4 C147_4 1_555 1_555
C162_4 C148_4 1_555 1_555
C168_4 C158_4 1_555 1_555
C170_4 C161_4 1_555 1_555
C175_4 C168_4 1_555 1_555
C176_4 C168_4 1_555 1_555
C180_4 C175_4 1_555 1_555
C184_4 C180_4 1_555 1_555
C186_4 C184_4 1_555 1_555
O27_4 C186_4 1_555 1_555
O28_4 C186_4 1_555 1_555
Zr8_3 O27_4 1_555 1_555
Zr11_3 O28_4 1_555 1_555
O4 C33_4 1_555 1_555
C43_4 C45_4 1_555 1_555
C60_4 C66_4 1_555 1_555
C68_4 C78_4 1_555 1_555
C107_4 C126_4 1_555 1_555
C112_4 C132_4 1_555 1_555
C130_4 C149_4 1_555 1_555
C162_4 C170_4 1_555 1_555
C175_4 H2_4 1_555 1_555
C180_4 H13_4 1_555 1_555
C170_4 H14_4 1_555 1_555
C38_4 H33_4 1_555 1_555
C78_4 H44_4 1_555 1_555
C68_4 H47_4 1_555 1_555
C61_4 H48_4 1_555 1_555
C54_4 H56_4 1_555 1_555
C92_4 H57_4 1_555 1_555
C67_4 H61_4 1_555 1_555
C93_4 H62_4 1_555 1_555
C42_4 H65_4 1_555 1_555
C148_4 H74_4 1_555 1_555
C147_4 H76_4 1_555 1_555
C108_4 H82_4 1_555 1_555
C106_4 H84_4 1_555 1_555
C111_4 H90_4 1_555 1_555
C161_4 H96_4 1_555 1_555
C162_4 H97_4 1_555 1_555
C132_4 H100_4 1_555 1_555
C130_4 H106_4 1_555 1_555
C149_4 H108_4 1_555 1_555
C129_4 H110_4 1_555 1_555
C112_4 H114_4 1_555 1_555
C84_4 C72_4 1_555 1_555
C85_4 C72_4 1_555 1_555
C102_4 C84_4 1_555 1_555
C103_4 C85_4 1_555 1_555
C124_4 C102_4 1_555 1_555
C139_4 C120_4 1_555 1_555
C140_4 C120_4 1_555 1_555
C154_4 C139_4 1_555 1_555
C155_4 C140_4 1_555 1_555
C166_4 C154_4 1_555 1_555
C103_4 C124_4 1_555 1_555
C155_4 C166_4 1_555 1_555
C166_4 H1_4 1_555 1_555
C179_4 H11_4 1_555 1_555
C37_4 H32_4 1_555 1_555
C85_4 H43_4 1_555 1_555
C84_4 H51_4 1_555 1_555
C102_4 H66_4 1_555 1_555
C139_4 H71_4 1_555 1_555
C103_4 H72_4 1_555 1_555
C124_4 H75_4 1_555 1_555
C140_4 H77_4 1_555 1_555
C154_4 H88_4 1_555 1_555
C155_4 H111_4 1_555 1_555
C90_4 C76_4 1_555 1_555
C91_4 C76_4 1_555 1_555
C109_4 C90_4 1_555 1_555
C110_4 C91_4 1_555 1_555
C131_4 C109_4 1_555 1_555
C145_4 C127_4 1_555 1_555
C146_4 C127_4 1_555 1_555
C159_4 C145_4 1_555 1_555
C160_4 C146_4 1_555 1_555
C169_4 C159_4 1_555 1_555
C110_4 C131_4 1_555 1_555
C160_4 C169_4 1_555 1_555
C169_4 H4_4 1_555 1_555
C181_4 H5_4 1_555 1_555
C39_4 H34_4 1_555 1_555
C90_4 H54_4 1_555 1_555
C91_4 H55_4 1_555 1_555
C145_4 H73_4 1_555 1_555
C160_4 H95_4 1_555 1_555
C110_4 H102_4 1_555 1_555
C131_4 H104_4 1_555 1_555
C146_4 H105_4 1_555 1_555
C109_4 H107_4 1_555 1_555
C159_4 H113_4 1_555 1_555
C32_4 O21_2 1_555 1_555
C34_4 C32_4 1_555 1_555
C36_4 C34_4 1_555 1_555
C40_4 C36_4 1_555 1_555
C44_4 C40_4 1_555 1_555
C46_4 C44_4 1_555 1_555
C48_4 C46_4 1_555 1_555
C50_4 C48_4 1_555 1_555
C52_4 C50_4 1_555 1_555
C53_4 C50_4 1_555 1_555
C56_4 C52_4 1_555 1_555
C57_4 C53_4 1_555 1_555
C58_4 C53_4 1_555 1_555
C63_4 C56_4 1_555 1_555
P2_4 C56_4 1_555 1_555
C64_4 C57_4 1_555 1_555
C65_4 C58_4 1_555 1_555
C71_4 C63_4 1_555 1_555
C73_4 P2_4 1_555 1_555
C74_4 C64_4 1_555 1_555
C82_4 C71_4 1_555 1_555
C83_4 C71_4 1_555 1_555
C86_4 C73_4 1_555 1_555
C87_4 C73_4 1_555 1_555
C99_4 C82_4 1_555 1_555
P5_4 C82_4 1_555 1_555
C100_4 C83_4 1_555 1_555
C101_4 C83_4 1_555 1_555
C104_4 C86_4 1_555 1_555
C105_4 C87_4 1_555 1_555
C119_4 C99_4 1_555 1_555
C121_4 P5_4 1_555 1_555
C122_4 C100_4 1_555 1_555
C123_4 C101_4 1_555 1_555
C125_4 C104_4 1_555 1_555
C138_4 C119_4 1_555 1_555
C141_4 C121_4 1_555 1_555
C142_4 C121_4 1_555 1_555
C143_4 C122_4 1_555 1_555
C153_4 C138_4 1_555 1_555
C156_4 C141_4 1_555 1_555
C157_4 C142_4 1_555 1_555
C165_4 C153_4 1_555 1_555
C167_4 C156_4 1_555 1_555
C173_4 C165_4 1_555 1_555
C174_4 C165_4 1_555 1_555
C178_4 C173_4 1_555 1_555
C183_4 C178_4 1_555 1_555
C185_4 C183_4 1_555 1_555
O25_4 C185_4 1_555 1_555
O26_4 C185_4 1_555 1_555
Zr10_4 O25_4 1_555 1_555
Zr11_4 O26_4 1_555 1_555
O4_2 C32_4 1_555 1_555
C41_4 C44_4 1_555 1_555
C57_4 C63_4 1_555 1_555
C65_4 C74_4 1_555 1_555
C100_4 C119_4 1_555 1_555
C105_4 C125_4 1_555 1_555
C123_4 C143_4 1_555 1_555
C157_4 C167_4 1_555 1_555
C178_4 H6_4 1_555 1_555
C167_4 H8_4 1_555 1_555
C173_4 H9_4 1_555 1_555
C36_4 H31_4 1_555 1_555
C40_4 H36_4 1_555 1_555
C101_4 H42_4 1_555 1_555
C65_4 H46_4 1_555 1_555
C74_4 H49_4 1_555 1_555
C58_4 H50_4 1_555 1_555
C86_4 H52_4 1_555 1_555
C87_4 H53_4 1_555 1_555
C99_4 H58_4 1_555 1_555
C52_4 H59_4 1_555 1_555
C64_4 H63_4 1_555 1_555
C104_4 H68_4 1_555 1_555
C123_4 H79_4 1_555 1_555
C105_4 H80_4 1_555 1_555
C122_4 H85_4 1_555 1_555
C141_4 H87_4 1_555 1_555
C143_4 H91_4 1_555 1_555
C157_4 H92_4 1_555 1_555
C142_4 H93_4 1_555 1_555
C125_4 H103_4 1_555 1_555
C156_4 H112_4 1_555 1_555
O5_2 Zr10_3 1_555 1_555
O6_2 Zr10_3 1_555 1_555
O8_3 Zr10_3 1_555 1_555
Zr5_5 O5_2 1_555 1_555
O16_2 Zr9_3 1_555 1_555
O18_2 Zr11_3 1_555 1_555
O19_2 Zr5_5 1_555 1_555
O20_2 Zr5_5 1_555 1_555
O21_3 Zr5_5 1_555 1_555
O22_3 Zr5_5 1_555 1_555
O5_2 Zr11_3 1_555 1_555
O6_2 Zr9_3 1_555 1_555
O6_2 Zr5_5 1_555 1_555
Zr5_5 O16_2 1_555 1_555
Zr5_5 O18_2 1_555 1_555
Zr10_4 O1_2 1_555 1_555
O1_2 Zr2_5 1_555 1_555
O2_2 Zr10_4 1_555 1_555
O3_3 Zr10_4 1_555 1_555
C1_5 O3_3 1_555 1_555
C2_5 C1_5 1_555 1_555
C3_5 C2_5 1_555 1_555
C4_5 C2_5 1_555 1_555
C5_5 C3_5 1_555 1_555
C6_5 C4_5 1_555 1_555
C7_5 C5_5 1_555 1_555
C8_5 C7_5 1_555 1_555
C9_5 C8_5 1_555 1_555
C10_5 C9_5 1_555 1_555
C11_5 C10_5 1_555 1_555
C12_5 C10_5 1_555 1_555
C13_5 C11_5 1_555 1_555
C14_5 C12_5 1_555 1_555
C15_5 C12_5 1_555 1_555
C16_5 C13_5 1_555 1_555
P1_5 C13_5 1_555 1_555
C17_5 C14_5 1_555 1_555
C18_5 C15_5 1_555 1_555
C19_5 P1_5 1_555 1_555
C20_5 P1_5 1_555 1_555
C21_5 C17_5 1_555 1_555
C22_5 C19_5 1_555 1_555
C23_5 C19_5 1_555 1_555
C24_5 C20_5 1_555 1_555
C25_5 C20_5 1_555 1_555
C26_5 C22_5 1_555 1_555
C27_5 C23_5 1_555 1_555
C28_5 C24_5 1_555 1_555
C29_5 C25_5 1_555 1_555
C30_5 C26_5 1_555 1_555
C31_5 C28_5 1_555 1_555
Zr2_5 O2_2 1_555 1_555
Zr9_4 O1_2 1_555 1_555
Zr11_4 O2_2 1_555 1_555
O9_2 C1_5 1_555 1_555
O10_3 Zr2_5 1_555 1_555
O11_3 Zr2_5 1_555 1_555
O12_2 Zr2_5 1_555 1_555
O13_2 Zr2_5 1_555 1_555
O14_2 Zr2_5 1_555 1_555
O15_3 Zr9_4 1_555 1_555
O17_3 Zr11_4 1_555 1_555
C32_5 O10_3 1_555 1_555
C33_5 O11_3 1_555 1_555
C34_5 C32_5 1_555 1_555
C35_5 C33_5 1_555 1_555
C36_5 C34_5 1_555 1_555
C37_5 C34_5 1_555 1_555
C38_5 C35_5 1_555 1_555
C39_5 C35_5 1_555 1_555
C40_5 C36_5 1_555 1_555
C41_5 C37_5 1_555 1_555
C42_5 C38_5 1_555 1_555
C43_5 C39_5 1_555 1_555
C44_5 C40_5 1_555 1_555
C45_5 C42_5 1_555 1_555
C46_5 C44_5 1_555 1_555
C47_5 C45_5 1_555 1_555
C48_5 C46_5 1_555 1_555
C49_5 C47_5 1_555 1_555
C50_5 C48_5 1_555 1_555
C51_5 C49_5 1_555 1_555
C52_5 C50_5 1_555 1_555
C53_5 C50_5 1_555 1_555
C54_5 C51_5 1_555 1_555
C55_5 C51_5 1_555 1_555
C56_5 C52_5 1_555 1_555
C57_5 C53_5 1_555 1_555
C58_5 C53_5 1_555 1_555
C59_5 C54_5 1_555 1_555
C60_5 C55_5 1_555 1_555
C61_5 C55_5 1_555 1_555
C62_5 C16_5 1_555 1_555
C63_5 C56_5 1_555 1_555
P2_5 C56_5 1_555 1_555
C64_5 C57_5 1_555 1_555
C65_5 C58_5 1_555 1_555
C66_5 C59_5 1_555 1_555
P3_5 C59_5 1_555 1_555
C67_5 C60_5 1_555 1_555
C68_5 C61_5 1_555 1_555
C69_5 C62_5 1_555 1_555
C70_5 C62_5 1_555 1_555
C71_5 C63_5 1_555 1_555
C72_5 P2_5 1_555 1_555
C73_5 P2_5 1_555 1_555
C74_5 C64_5 1_555 1_555
C75_5 C66_5 1_555 1_555
C76_5 P3_5 1_555 1_555
C77_5 P3_5 1_555 1_555
C78_5 C67_5 1_555 1_555
C79_5 C69_5 1_555 1_555
P4_5 C69_5 1_555 1_555
C80_5 C70_5 1_555 1_555
C81_5 C70_5 1_555 1_555
C82_5 C71_5 1_555 1_555
C83_5 C71_5 1_555 1_555
C84_5 C72_5 1_555 1_555
C85_5 C72_5 1_555 1_555
C86_5 C73_5 1_555 1_555
C87_5 C73_5 1_555 1_555
C88_5 C75_5 1_555 1_555
C89_5 C75_5 1_555 1_555
C90_5 C76_5 1_555 1_555
C91_5 C76_5 1_555 1_555
C92_5 C77_5 1_555 1_555
C93_5 C77_5 1_555 1_555
C94_5 C79_5 1_555 1_555
C95_5 P4_5 1_555 1_555
C96_5 P4_5 1_555 1_555
C97_5 C80_5 1_555 1_555
C98_5 C81_5 1_555 1_555
C99_5 C82_5 1_555 1_555
P5_5 C82_5 1_555 1_555
C100_5 C83_5 1_555 1_555
C101_5 C83_5 1_555 1_555
C102_5 C84_5 1_555 1_555
C103_5 C85_5 1_555 1_555
C104_5 C86_5 1_555 1_555
C105_5 C87_5 1_555 1_555
C106_5 C88_5 1_555 1_555
P6_5 C88_5 1_555 1_555
C107_5 C89_5 1_555 1_555
C108_5 C89_5 1_555 1_555
C109_5 C90_5 1_555 1_555
C110_5 C91_5 1_555 1_555
C111_5 C92_5 1_555 1_555
C112_5 C93_5 1_555 1_555
C113_5 C94_5 1_555 1_555
C114_5 C95_5 1_555 1_555
C115_5 C95_5 1_555 1_555
C116_5 C96_5 1_555 1_555
C117_5 C96_5 1_555 1_555
C118_5 C97_5 1_555 1_555
C119_5 C99_5 1_555 1_555
C120_5 P5_5 1_555 1_555
C121_5 P5_5 1_555 1_555
C122_5 C100_5 1_555 1_555
C123_5 C101_5 1_555 1_555
C124_5 C102_5 1_555 1_555
C125_5 C104_5 1_555 1_555
C126_5 C106_5 1_555 1_555
C127_5 P6_5 1_555 1_555
C128_5 P6_5 1_555 1_555
C129_5 C107_5 1_555 1_555
C130_5 C108_5 1_555 1_555
C131_5 C109_5 1_555 1_555
C132_5 C111_5 1_555 1_555
C133_5 C113_5 1_555 1_555
C134_5 C114_5 1_555 1_555
C135_5 C115_5 1_555 1_555
C136_5 C116_5 1_555 1_555
C137_5 C117_5 1_555 1_555
C138_5 C119_5 1_555 1_555
C139_5 C120_5 1_555 1_555
C140_5 C120_5 1_555 1_555
C141_5 C121_5 1_555 1_555
C142_5 C121_5 1_555 1_555
C143_5 C122_5 1_555 1_555
C144_5 C126_5 1_555 1_555
C145_5 C127_5 1_555 1_555
C146_5 C127_5 1_555 1_555
C147_5 C128_5 1_555 1_555
C148_5 C128_5 1_555 1_555
C149_5 C129_5 1_555 1_555
C150_5 C133_5 1_555 1_555
C151_5 C134_5 1_555 1_555
C152_5 C136_5 1_555 1_555
C153_5 C138_5 1_555 1_555
C154_5 C139_5 1_555 1_555
C155_5 C140_5 1_555 1_555
C156_5 C141_5 1_555 1_555
C157_5 C142_5 1_555 1_555
C158_5 C144_5 1_555 1_555
C159_5 C145_5 1_555 1_555
C160_5 C146_5 1_555 1_555
C161_5 C147_5 1_555 1_555
C162_5 C148_5 1_555 1_555
C163_5 C150_5 1_555 1_555
C164_5 C150_5 1_555 1_555
C165_5 C153_5 1_555 1_555
C166_5 C154_5 1_555 1_555
C167_5 C156_5 1_555 1_555
C168_5 C158_5 1_555 1_555
C169_5 C159_5 1_555 1_555
C170_5 C161_5 1_555 1_555
C171_5 C163_5 1_555 1_555
C172_5 C164_5 1_555 1_555
C173_5 C165_5 1_555 1_555
C174_5 C165_5 1_555 1_555
C175_5 C168_5 1_555 1_555
C176_5 C168_5 1_555 1_555
C177_5 C171_5 1_555 1_555
C178_5 C173_5 1_555 1_555
C179_5 C174_5 1_555 1_555
C180_5 C175_5 1_555 1_555
C181_5 C176_5 1_555 1_555
C182_5 C177_5 1_555 1_555
C183_5 C178_5 1_555 1_555
C184_5 C180_5 1_555 1_555
O23_5 C182_5 1_555 1_555
O24_5 C182_5 1_555 1_555
C185_5 C183_5 1_555 1_555
C186_5 C184_5 1_555 1_555
Zr9_2 O23_5 1_555 1_555
Zr7_5 O24_5 1_555 1_555
O25_5 C185_5 1_555 1_555
O26_5 C185_5 1_555 1_555
O27_5 C186_5 1_555 1_555
O28_5 C186_5 1_555 1_555
Zr8_5 O25_5 1_555 1_555
Zr6_2 O26_5 1_555 1_555
Zr10_5 O27_5 1_555 1_555
Zr6 O28_5 1_555 1_555
C6_5 C7_5 1_555 1_555
C14_5 C16_5 1_555 1_555
C18_5 C21_5 1_555 1_555
C27_5 C30_5 1_555 1_555
C29_5 C31_5 1_555 1_555
Zr2_5 O9_2 1_555 1_555
Zr9_4 O13_2 1_555 1_555
Zr11_4 O12_2 1_555 1_555
O15_3 C32_5 1_555 1_555
O17_3 C33_5 1_555 1_555
C41_5 C44_5 1_555 1_555
C43_5 C45_5 1_555 1_555
C57_5 C63_5 1_555 1_555
C60_5 C66_5 1_555 1_555
C65_5 C74_5 1_555 1_555
C68_5 C78_5 1_555 1_555
C80_5 C94_5 1_555 1_555
C98_5 C118_5 1_555 1_555
C100_5 C119_5 1_555 1_555
C103_5 C124_5 1_555 1_555
C105_5 C125_5 1_555 1_555
C107_5 C126_5 1_555 1_555
C110_5 C131_5 1_555 1_555
C112_5 C132_5 1_555 1_555
C123_5 C143_5 1_555 1_555
C130_5 C149_5 1_555 1_555
C135_5 C151_5 1_555 1_555
C137_5 C152_5 1_555 1_555
C155_5 C166_5 1_555 1_555
C157_5 C167_5 1_555 1_555
C160_5 C169_5 1_555 1_555
C162_5 C170_5 1_555 1_555
C172_5 C177_5 1_555 1_555
C179_5 C183_5 1_555 1_555
C181_5 C184_5 1_555 1_555
C166_5 H1_5 1_555 1_555
C175_5 H2_5 1_555 1_555
C176_5 H3_5 1_555 1_555
C169_5 H4_5 1_555 1_555
C181_5 H5_5 1_555 1_555
C178_5 H6_5 1_555 1_555
C171_5 H7_5 1_555 1_555
C167_5 H8_5 1_555 1_555
C173_5 H9_5 1_555 1_555
C174_5 H10_5 1_555 1_555
C179_5 H11_5 1_555 1_555
C172_5 H12_5 1_555 1_555
C180_5 H13_5 1_555 1_555
C170_5 H14_5 1_555 1_555
C5_5 H15_5 1_555 1_555
C4_5 H16_5 1_555 1_555
C6_5 H17_5 1_555 1_555
C3_5 H18_5 1_555 1_555
C11_5 H19_5 1_555 1_555
C15_5 H20_5 1_555 1_555
C22_5 H21_5 1_555 1_555
C24_5 H22_5 1_555 1_555
C17_5 H23_5 1_555 1_555
C29_5 H24_5 1_555 1_555
C31_5 H25_5 1_555 1_555
C21_5 H26_5 1_555 1_555
C25_5 H27_5 1_555 1_555
C26_5 H28_5 1_555 1_555
C30_5 H29_5 1_555 1_555
C18_5 H30_5 1_555 1_555
C36_5 H31_5 1_555 1_555
C37_5 H32_5 1_555 1_555
C38_5 H33_5 1_555 1_555
C39_5 H34_5 1_555 1_555
C23_5 H35_5 1_555 1_555
C40_5 H36_5 1_555 1_555
C41_5 H37_5 1_555 1_555
C27_5 H38_5 1_555 1_555
C28_5 H39_5 1_555 1_555
C97_5 H40_5 1_555 1_555
C98_5 H41_5 1_555 1_555
C101_5 H42_5 1_555 1_555
C85_5 H43_5 1_555 1_555
C78_5 H44_5 1_555 1_555
C43_5 H45_5 1_555 1_555
C65_5 H46_5 1_555 1_555
C68_5 H47_5 1_555 1_555
C61_5 H48_5 1_555 1_555
C74_5 H49_5 1_555 1_555
C58_5 H50_5 1_555 1_555
C84_5 H51_5 1_555 1_555
C86_5 H52_5 1_555 1_555
C87_5 H53_5 1_555 1_555
C90_5 H54_5 1_555 1_555
C91_5 H55_5 1_555 1_555
C54_5 H56_5 1_555 1_555
C92_5 H57_5 1_555 1_555
C99_5 H58_5 1_555 1_555
C52_5 H59_5 1_555 1_555
C81_5 H60_5 1_555 1_555
C67_5 H61_5 1_555 1_555
C93_5 H62_5 1_555 1_555
C64_5 H63_5 1_555 1_555
C79_5 H64_5 1_555 1_555
C42_5 H65_5 1_555 1_555
C102_5 H66_5 1_555 1_555
C117_5 H67_5 1_555 1_555
C104_5 H68_5 1_555 1_555
C135_5 H69_5 1_555 1_555
C136_5 H70_5 1_555 1_555
C139_5 H71_5 1_555 1_555
C103_5 H72_5 1_555 1_555
C145_5 H73_5 1_555 1_555
C148_5 H74_5 1_555 1_555
C124_5 H75_5 1_555 1_555
C147_5 H76_5 1_555 1_555
C140_5 H77_5 1_555 1_555
C151_5 H78_5 1_555 1_555
C123_5 H79_5 1_555 1_555
C105_5 H80_5 1_555 1_555
C118_5 H81_5 1_555 1_555
C108_5 H82_5 1_555 1_555
C114_5 H83_5 1_555 1_555
C106_5 H84_5 1_555 1_555
C122_5 H85_5 1_555 1_555
C137_5 H86_5 1_555 1_555
C141_5 H87_5 1_555 1_555
C154_5 H88_5 1_555 1_555
C134_5 H89_5 1_555 1_555
C111_5 H90_5 1_555 1_555
C143_5 H91_5 1_555 1_555
C157_5 H92_5 1_555 1_555
C142_5 H93_5 1_555 1_555
C115_5 H94_5 1_555 1_555
C160_5 H95_5 1_555 1_555
C161_5 H96_5 1_555 1_555
C162_5 H97_5 1_555 1_555
C163_5 H98_5 1_555 1_555
C164_5 H99_5 1_555 1_555
C132_5 H100_5 1_555 1_555
C116_5 H101_5 1_555 1_555
C110_5 H102_5 1_555 1_555
C125_5 H103_5 1_555 1_555
C131_5 H104_5 1_555 1_555
C146_5 H105_5 1_555 1_555
C130_5 H106_5 1_555 1_555
C109_5 H107_5 1_555 1_555
C149_5 H108_5 1_555 1_555
C152_5 H109_5 1_555 1_555
C129_5 H110_5 1_555 1_555
C155_5 H111_5 1_555 1_555
C156_5 H112_5 1_555 1_555
C159_5 H113_5 1_555 1_555
C112_5 H114_5 1_555 1_555
C1_6 O8_3 1_555 1_555
C2_6 C1_6 1_555 1_555
C3_6 C2_6 1_555 1_555
C4_6 C2_6 1_555 1_555
C5_6 C3_6 1_555 1_555
C6_6 C4_6 1_555 1_555
C7_6 C5_6 1_555 1_555
C8_6 C7_6 1_555 1_555
C9_6 C8_6 1_555 1_555
C10_6 C9_6 1_555 1_555
C11_6 C10_6 1_555 1_555
C12_6 C10_6 1_555 1_555
C13_6 C11_6 1_555 1_555
C14_6 C12_6 1_555 1_555
C15_6 C12_6 1_555 1_555
C16_6 C13_6 1_555 1_555
P1_6 C13_6 1_555 1_555
C17_6 C14_6 1_555 1_555
C18_6 C15_6 1_555 1_555
C19_6 P1_6 1_555 1_555
C20_6 P1_6 1_555 1_555
C21_6 C17_6 1_555 1_555
C22_6 C19_6 1_555 1_555
C23_6 C19_6 1_555 1_555
C24_6 C20_6 1_555 1_555
C25_6 C20_6 1_555 1_555
C26_6 C22_6 1_555 1_555
C27_6 C23_6 1_555 1_555
C28_6 C24_6 1_555 1_555
C29_6 C25_6 1_555 1_555
C30_6 C26_6 1_555 1_555
C31_6 C28_6 1_555 1_555
O19_2 C1_6 1_555 1_555
O15_4 Zr11_3 1_555 1_555
O17_4 Zr9_3 1_555 1_555
C32_6 O21_3 1_555 1_555
C33_6 O22_3 1_555 1_555
C34_6 C32_6 1_555 1_555
C35_6 C33_6 1_555 1_555
C36_6 C34_6 1_555 1_555
C37_6 C34_6 1_555 1_555
C38_6 C35_6 1_555 1_555
C39_6 C35_6 1_555 1_555
C40_6 C36_6 1_555 1_555
C41_6 C37_6 1_555 1_555
C42_6 C38_6 1_555 1_555
C43_6 C39_6 1_555 1_555
C44_6 C40_6 1_555 1_555
C45_6 C42_6 1_555 1_555
C46_6 C44_6 1_555 1_555
C47_6 C45_6 1_555 1_555
C48_6 C46_6 1_555 1_555
C49_6 C47_6 1_555 1_555
C50_6 C48_6 1_555 1_555
C51_6 C49_6 1_555 1_555
C52_6 C50_6 1_555 1_555
C53_6 C50_6 1_555 1_555
C54_6 C51_6 1_555 1_555
C55_6 C51_6 1_555 1_555
C56_6 C52_6 1_555 1_555
C57_6 C53_6 1_555 1_555
C58_6 C53_6 1_555 1_555
C59_6 C54_6 1_555 1_555
C60_6 C55_6 1_555 1_555
C61_6 C55_6 1_555 1_555
C62_6 C16_6 1_555 1_555
C63_6 C56_6 1_555 1_555
P2_6 C56_6 1_555 1_555
C64_6 C57_6 1_555 1_555
C65_6 C58_6 1_555 1_555
C66_6 C59_6 1_555 1_555
P3_6 C59_6 1_555 1_555
C67_6 C60_6 1_555 1_555
C68_6 C61_6 1_555 1_555
C69_6 C62_6 1_555 1_555
C70_6 C62_6 1_555 1_555
C71_6 C63_6 1_555 1_555
C72_6 P2_6 1_555 1_555
C73_6 P2_6 1_555 1_555
C74_6 C64_6 1_555 1_555
C75_6 C66_6 1_555 1_555
C76_6 P3_6 1_555 1_555
C77_6 P3_6 1_555 1_555
C78_6 C67_6 1_555 1_555
C79_6 C69_6 1_555 1_555
P4_6 C69_6 1_555 1_555
C80_6 C70_6 1_555 1_555
C81_6 C70_6 1_555 1_555
C82_6 C71_6 1_555 1_555
C83_6 C71_6 1_555 1_555
C84_6 C72_6 1_555 1_555
C85_6 C72_6 1_555 1_555
C86_6 C73_6 1_555 1_555
C87_6 C73_6 1_555 1_555
C88_6 C75_6 1_555 1_555
C89_6 C75_6 1_555 1_555
C90_6 C76_6 1_555 1_555
C91_6 C76_6 1_555 1_555
C92_6 C77_6 1_555 1_555
C93_6 C77_6 1_555 1_555
C94_6 C79_6 1_555 1_555
C95_6 P4_6 1_555 1_555
C96_6 P4_6 1_555 1_555
C97_6 C80_6 1_555 1_555
C98_6 C81_6 1_555 1_555
C99_6 C82_6 1_555 1_555
P5_6 C82_6 1_555 1_555
C100_6 C83_6 1_555 1_555
C101_6 C83_6 1_555 1_555
C102_6 C84_6 1_555 1_555
C103_6 C85_6 1_555 1_555
C104_6 C86_6 1_555 1_555
C105_6 C87_6 1_555 1_555
C106_6 C88_6 1_555 1_555
P6_6 C88_6 1_555 1_555
C107_6 C89_6 1_555 1_555
C108_6 C89_6 1_555 1_555
C109_6 C90_6 1_555 1_555
C110_6 C91_6 1_555 1_555
C111_6 C92_6 1_555 1_555
C112_6 C93_6 1_555 1_555
C113_6 C94_6 1_555 1_555
C114_6 C95_6 1_555 1_555
C115_6 C95_6 1_555 1_555
C116_6 C96_6 1_555 1_555
C117_6 C96_6 1_555 1_555
C118_6 C97_6 1_555 1_555
C119_6 C99_6 1_555 1_555
C120_6 P5_6 1_555 1_555
C121_6 P5_6 1_555 1_555
C122_6 C100_6 1_555 1_555
C123_6 C101_6 1_555 1_555
C124_6 C102_6 1_555 1_555
C125_6 C104_6 1_555 1_555
C126_6 C106_6 1_555 1_555
C127_6 P6_6 1_555 1_555
C128_6 P6_6 1_555 1_555
C129_6 C107_6 1_555 1_555
C130_6 C108_6 1_555 1_555
C131_6 C109_6 1_555 1_555
C132_6 C111_6 1_555 1_555
C133_6 C113_6 1_555 1_555
C134_6 C114_6 1_555 1_555
C135_6 C115_6 1_555 1_555
C136_6 C116_6 1_555 1_555
C137_6 C117_6 1_555 1_555
C138_6 C119_6 1_555 1_555
C139_6 C120_6 1_555 1_555
C140_6 C120_6 1_555 1_555
C141_6 C121_6 1_555 1_555
C142_6 C121_6 1_555 1_555
C143_6 C122_6 1_555 1_555
C144_6 C126_6 1_555 1_555
C145_6 C127_6 1_555 1_555
C146_6 C127_6 1_555 1_555
C147_6 C128_6 1_555 1_555
C148_6 C128_6 1_555 1_555
C149_6 C129_6 1_555 1_555
C150_6 C133_6 1_555 1_555
C151_6 C134_6 1_555 1_555
C152_6 C136_6 1_555 1_555
C153_6 C138_6 1_555 1_555
C154_6 C139_6 1_555 1_555
C155_6 C140_6 1_555 1_555
C156_6 C141_6 1_555 1_555
C157_6 C142_6 1_555 1_555
C158_6 C144_6 1_555 1_555
C159_6 C145_6 1_555 1_555
C160_6 C146_6 1_555 1_555
C161_6 C147_6 1_555 1_555
C162_6 C148_6 1_555 1_555
C163_6 C150_6 1_555 1_555
C164_6 C150_6 1_555 1_555
C165_6 C153_6 1_555 1_555
C166_6 C154_6 1_555 1_555
C167_6 C156_6 1_555 1_555
C168_6 C158_6 1_555 1_555
C169_6 C159_6 1_555 1_555
C170_6 C161_6 1_555 1_555
C171_6 C163_6 1_555 1_555
C172_6 C164_6 1_555 1_555
C173_6 C165_6 1_555 1_555
C174_6 C165_6 1_555 1_555
C175_6 C168_6 1_555 1_555
C176_6 C168_6 1_555 1_555
C177_6 C171_6 1_555 1_555
C178_6 C173_6 1_555 1_555
C179_6 C174_6 1_555 1_555
C180_6 C175_6 1_555 1_555
C181_6 C176_6 1_555 1_555
C182_6 C177_6 1_555 1_555
C183_6 C178_6 1_555 1_555
C184_6 C180_6 1_555 1_555
O23_6 C182_6 1_555 1_555
O24_6 C182_6 1_555 1_555
C185_6 C183_6 1_555 1_555
C186_6 C184_6 1_555 1_555
Zr11_2 O23_6 1_555 1_555
Zr7_5 O24_6 1_555 1_555
O25_6 C185_6 1_555 1_555
O26_6 C185_6 1_555 1_555
O27_6 C186_6 1_555 1_555
O28_6 C186_6 1_555 1_555
Zr10_5 O25_6 1_555 1_555
Zr6_3 O26_6 1_555 1_555
Zr8_5 O27_6 1_555 1_555
Zr6_4 O28_6 1_555 1_555
C6_6 C7_6 1_555 1_555
C14_6 C16_6 1_555 1_555
C18_6 C21_6 1_555 1_555
C27_6 C30_6 1_555 1_555
C29_6 C31_6 1_555 1_555
O15_4 C32_6 1_555 1_555
O17_4 C33_6 1_555 1_555
C41_6 C44_6 1_555 1_555
C43_6 C45_6 1_555 1_555
C57_6 C63_6 1_555 1_555
C60_6 C66_6 1_555 1_555
C65_6 C74_6 1_555 1_555
C68_6 C78_6 1_555 1_555
C80_6 C94_6 1_555 1_555
C98_6 C118_6 1_555 1_555
C100_6 C119_6 1_555 1_555
C103_6 C124_6 1_555 1_555
C105_6 C125_6 1_555 1_555
C107_6 C126_6 1_555 1_555
C110_6 C131_6 1_555 1_555
C112_6 C132_6 1_555 1_555
C123_6 C143_6 1_555 1_555
C130_6 C149_6 1_555 1_555
C135_6 C151_6 1_555 1_555
C137_6 C152_6 1_555 1_555
C155_6 C166_6 1_555 1_555
C157_6 C167_6 1_555 1_555
C160_6 C169_6 1_555 1_555
C162_6 C170_6 1_555 1_555
C172_6 C177_6 1_555 1_555
C179_6 C183_6 1_555 1_555
C181_6 C184_6 1_555 1_555
C166_6 H1_6 1_555 1_555
C175_6 H2_6 1_555 1_555
C176_6 H3_6 1_555 1_555
C169_6 H4_6 1_555 1_555
C181_6 H5_6 1_555 1_555
C178_6 H6_6 1_555 1_555
C171_6 H7_6 1_555 1_555
C167_6 H8_6 1_555 1_555
C173_6 H9_6 1_555 1_555
C174_6 H10_6 1_555 1_555
C179_6 H11_6 1_555 1_555
C172_6 H12_6 1_555 1_555
C180_6 H13_6 1_555 1_555
C170_6 H14_6 1_555 1_555
C5_6 H15_6 1_555 1_555
C4_6 H16_6 1_555 1_555
C6_6 H17_6 1_555 1_555
C3_6 H18_6 1_555 1_555
C11_6 H19_6 1_555 1_555
C15_6 H20_6 1_555 1_555
C22_6 H21_6 1_555 1_555
C24_6 H22_6 1_555 1_555
C17_6 H23_6 1_555 1_555
C29_6 H24_6 1_555 1_555
C31_6 H25_6 1_555 1_555
C21_6 H26_6 1_555 1_555
C25_6 H27_6 1_555 1_555
C26_6 H28_6 1_555 1_555
C30_6 H29_6 1_555 1_555
C18_6 H30_6 1_555 1_555
C36_6 H31_6 1_555 1_555
C37_6 H32_6 1_555 1_555
C38_6 H33_6 1_555 1_555
C39_6 H34_6 1_555 1_555
C23_6 H35_6 1_555 1_555
C40_6 H36_6 1_555 1_555
C41_6 H37_6 1_555 1_555
C27_6 H38_6 1_555 1_555
C28_6 H39_6 1_555 1_555
C97_6 H40_6 1_555 1_555
C98_6 H41_6 1_555 1_555
C101_6 H42_6 1_555 1_555
C85_6 H43_6 1_555 1_555
C78_6 H44_6 1_555 1_555
C43_6 H45_6 1_555 1_555
C65_6 H46_6 1_555 1_555
C68_6 H47_6 1_555 1_555
C61_6 H48_6 1_555 1_555
C74_6 H49_6 1_555 1_555
C58_6 H50_6 1_555 1_555
C84_6 H51_6 1_555 1_555
C86_6 H52_6 1_555 1_555
C87_6 H53_6 1_555 1_555
C90_6 H54_6 1_555 1_555
C91_6 H55_6 1_555 1_555
C54_6 H56_6 1_555 1_555
C92_6 H57_6 1_555 1_555
C99_6 H58_6 1_555 1_555
C52_6 H59_6 1_555 1_555
C81_6 H60_6 1_555 1_555
C67_6 H61_6 1_555 1_555
C93_6 H62_6 1_555 1_555
C64_6 H63_6 1_555 1_555
C79_6 H64_6 1_555 1_555
C42_6 H65_6 1_555 1_555
C102_6 H66_6 1_555 1_555
C117_6 H67_6 1_555 1_555
C104_6 H68_6 1_555 1_555
C135_6 H69_6 1_555 1_555
C136_6 H70_6 1_555 1_555
C139_6 H71_6 1_555 1_555
C103_6 H72_6 1_555 1_555
C145_6 H73_6 1_555 1_555
C148_6 H74_6 1_555 1_555
C124_6 H75_6 1_555 1_555
C147_6 H76_6 1_555 1_555
C140_6 H77_6 1_555 1_555
C151_6 H78_6 1_555 1_555
C123_6 H79_6 1_555 1_555
C105_6 H80_6 1_555 1_555
C118_6 H81_6 1_555 1_555
C108_6 H82_6 1_555 1_555
C114_6 H83_6 1_555 1_555
C106_6 H84_6 1_555 1_555
C122_6 H85_6 1_555 1_555
C137_6 H86_6 1_555 1_555
C141_6 H87_6 1_555 1_555
C154_6 H88_6 1_555 1_555
C134_6 H89_6 1_555 1_555
C111_6 H90_6 1_555 1_555
C143_6 H91_6 1_555 1_555
C157_6 H92_6 1_555 1_555
C142_6 H93_6 1_555 1_555
C115_6 H94_6 1_555 1_555
C160_6 H95_6 1_555 1_555
C161_6 H96_6 1_555 1_555
C162_6 H97_6 1_555 1_555
C163_6 H98_6 1_555 1_555
C164_6 H99_6 1_555 1_555
C132_6 H100_6 1_555 1_555
C116_6 H101_6 1_555 1_555
C110_6 H102_6 1_555 1_555
C125_6 H103_6 1_555 1_555
C131_6 H104_6 1_555 1_555
C146_6 H105_6 1_555 1_555
C130_6 H106_6 1_555 1_555
C109_6 H107_6 1_555 1_555
C149_6 H108_6 1_555 1_555
C152_6 H109_6 1_555 1_555
C129_6 H110_6 1_555 1_555
C155_6 H111_6 1_555 1_555
C156_6 H112_6 1_555 1_555
C159_6 H113_6 1_555 1_555
C112_6 H114_6 1_555 1_555
Zr8_3 O16_2 1_555 1_555
O18_2 Zr8_3 1_555 1_555
O3_4 Zr8_3 1_555 1_555
C1_7 O3_4 1_555 1_555
C2_7 C1_7 1_555 1_555
C3_7 C2_7 1_555 1_555
C4_7 C2_7 1_555 1_555
C5_7 C3_7 1_555 1_555
C6_7 C4_7 1_555 1_555
C7_7 C5_7 1_555 1_555
C8_7 C7_7 1_555 1_555
C9_7 C8_7 1_555 1_555
C10_7 C9_7 1_555 1_555
C11_7 C10_7 1_555 1_555
C12_7 C10_7 1_555 1_555
C13_7 C11_7 1_555 1_555
C14_7 C12_7 1_555 1_555
C15_7 C12_7 1_555 1_555
C16_7 C13_7 1_555 1_555
P1_7 C13_7 1_555 1_555
C17_7 C14_7 1_555 1_555
C18_7 C15_7 1_555 1_555
C19_7 P1_7 1_555 1_555
C20_7 P1_7 1_555 1_555
C21_7 C17_7 1_555 1_555
C22_7 C19_7 1_555 1_555
C23_7 C19_7 1_555 1_555
C24_7 C20_7 1_555 1_555
C25_7 C20_7 1_555 1_555
C26_7 C22_7 1_555 1_555
C27_7 C23_7 1_555 1_555
C28_7 C24_7 1_555 1_555
C29_7 C25_7 1_555 1_555
C30_7 C26_7 1_555 1_555
C31_7 C28_7 1_555 1_555
O20_2 C1_7 1_555 1_555
C62_7 C16_7 1_555 1_555
C69_7 C62_7 1_555 1_555
C70_7 C62_7 1_555 1_555
C79_7 C69_7 1_555 1_555
P4_7 C69_7 1_555 1_555
C80_7 C70_7 1_555 1_555
C81_7 C70_7 1_555 1_555
C94_7 C79_7 1_555 1_555
C95_7 P4_7 1_555 1_555
C96_7 P4_7 1_555 1_555
C97_7 C80_7 1_555 1_555
C98_7 C81_7 1_555 1_555
C113_7 C94_7 1_555 1_555
C114_7 C95_7 1_555 1_555
C115_7 C95_7 1_555 1_555
C116_7 C96_7 1_555 1_555
C117_7 C96_7 1_555 1_555
C118_7 C97_7 1_555 1_555
C133_7 C113_7 1_555 1_555
C134_7 C114_7 1_555 1_555
C135_7 C115_7 1_555 1_555
C136_7 C116_7 1_555 1_555
C137_7 C117_7 1_555 1_555
C150_7 C133_7 1_555 1_555
C151_7 C134_7 1_555 1_555
C152_7 C136_7 1_555 1_555
C163_7 C150_7 1_555 1_555
C164_7 C150_7 1_555 1_555
C171_7 C163_7 1_555 1_555
C172_7 C164_7 1_555 1_555
C177_7 C171_7 1_555 1_555
C182_7 C177_7 1_555 1_555
O23_7 C182_7 1_555 1_555
O24_7 C182_7 1_555 1_555
Zr11 O23_7 1_555 1_555
Zr7_6 O24_7 1_555 1_555
C6_7 C7_7 1_555 1_555
C14_7 C16_7 1_555 1_555
C18_7 C21_7 1_555 1_555
C27_7 C30_7 1_555 1_555
C29_7 C31_7 1_555 1_555
C80_7 C94_7 1_555 1_555
C98_7 C118_7 1_555 1_555
C135_7 C151_7 1_555 1_555
C137_7 C152_7 1_555 1_555
C172_7 C177_7 1_555 1_555
C171_7 H7_7 1_555 1_555
C172_7 H12_7 1_555 1_555
C5_7 H15_7 1_555 1_555
C4_7 H16_7 1_555 1_555
C6_7 H17_7 1_555 1_555
C3_7 H18_7 1_555 1_555
C11_7 H19_7 1_555 1_555
C15_7 H20_7 1_555 1_555
C22_7 H21_7 1_555 1_555
C24_7 H22_7 1_555 1_555
C17_7 H23_7 1_555 1_555
C29_7 H24_7 1_555 1_555
C31_7 H25_7 1_555 1_555
C21_7 H26_7 1_555 1_555
C25_7 H27_7 1_555 1_555
C26_7 H28_7 1_555 1_555
C30_7 H29_7 1_555 1_555
C18_7 H30_7 1_555 1_555
C23_7 H35_7 1_555 1_555
C27_7 H38_7 1_555 1_555
C28_7 H39_7 1_555 1_555
C97_7 H40_7 1_555 1_555
C98_7 H41_7 1_555 1_555
C81_7 H60_7 1_555 1_555
C79_7 H64_7 1_555 1_555
C117_7 H67_7 1_555 1_555
C135_7 H69_7 1_555 1_555
C136_7 H70_7 1_555 1_555
C151_7 H78_7 1_555 1_555
C118_7 H81_7 1_555 1_555
C114_7 H83_7 1_555 1_555
C137_7 H86_7 1_555 1_555
C134_7 H89_7 1_555 1_555
C115_7 H94_7 1_555 1_555
C163_7 H98_7 1_555 1_555
C164_7 H99_7 1_555 1_555
C116_7 H101_7 1_555 1_555
C152_7 H109_7 1_555 1_555
O12_2 Zr8_4 1_555 1_555
O13_2 Zr8_4 1_555 1_555
O8_4 Zr8_4 1_555 1_555
C1_8 O8_4 1_555 1_555
C2_8 C1_8 1_555 1_555
C3_8 C2_8 1_555 1_555
C4_8 C2_8 1_555 1_555
C5_8 C3_8 1_555 1_555
C6_8 C4_8 1_555 1_555
C7_8 C5_8 1_555 1_555
C8_8 C7_8 1_555 1_555
C9_8 C8_8 1_555 1_555
C10_8 C9_8 1_555 1_555
C11_8 C10_8 1_555 1_555
C12_8 C10_8 1_555 1_555
C13_8 C11_8 1_555 1_555
C14_8 C12_8 1_555 1_555
C15_8 C12_8 1_555 1_555
C16_8 C13_8 1_555 1_555
P1_8 C13_8 1_555 1_555
C17_8 C14_8 1_555 1_555
C18_8 C15_8 1_555 1_555
C19_8 P1_8 1_555 1_555
C20_8 P1_8 1_555 1_555
C21_8 C17_8 1_555 1_555
C22_8 C19_8 1_555 1_555
C23_8 C19_8 1_555 1_555
C24_8 C20_8 1_555 1_555
C25_8 C20_8 1_555 1_555
C26_8 C22_8 1_555 1_555
C27_8 C23_8 1_555 1_555
C28_8 C24_8 1_555 1_555
C29_8 C25_8 1_555 1_555
C30_8 C26_8 1_555 1_555
C31_8 C28_8 1_555 1_555
O14_2 C1_8 1_555 1_555
C62_8 C16_8 1_555 1_555
C69_8 C62_8 1_555 1_555
C70_8 C62_8 1_555 1_555
C79_8 C69_8 1_555 1_555
P4_8 C69_8 1_555 1_555
C80_8 C70_8 1_555 1_555
C81_8 C70_8 1_555 1_555
C94_8 C79_8 1_555 1_555
C95_8 P4_8 1_555 1_555
C96_8 P4_8 1_555 1_555
C97_8 C80_8 1_555 1_555
C98_8 C81_8 1_555 1_555
C113_8 C94_8 1_555 1_555
C114_8 C95_8 1_555 1_555
C115_8 C95_8 1_555 1_555
C116_8 C96_8 1_555 1_555
C117_8 C96_8 1_555 1_555
C118_8 C97_8 1_555 1_555
C133_8 C113_8 1_555 1_555
C134_8 C114_8 1_555 1_555
C135_8 C115_8 1_555 1_555
C136_8 C116_8 1_555 1_555
C137_8 C117_8 1_555 1_555
C150_8 C133_8 1_555 1_555
C151_8 C134_8 1_555 1_555
C152_8 C136_8 1_555 1_555
C163_8 C150_8 1_555 1_555
C164_8 C150_8 1_555 1_555
C171_8 C163_8 1_555 1_555
C172_8 C164_8 1_555 1_555
C177_8 C171_8 1_555 1_555
C182_8 C177_8 1_555 1_555
O23_8 C182_8 1_555 1_555
O24_8 C182_8 1_555 1_555
Zr9 O23_8 1_555 1_555
Zr7_6 O24_8 1_555 1_555
C6_8 C7_8 1_555 1_555
C14_8 C16_8 1_555 1_555
C18_8 C21_8 1_555 1_555
C27_8 C30_8 1_555 1_555
C29_8 C31_8 1_555 1_555
C80_8 C94_8 1_555 1_555
C98_8 C118_8 1_555 1_555
C135_8 C151_8 1_555 1_555
C137_8 C152_8 1_555 1_555
C172_8 C177_8 1_555 1_555
C171_8 H7_8 1_555 1_555
C172_8 H12_8 1_555 1_555
C5_8 H15_8 1_555 1_555
C4_8 H16_8 1_555 1_555
C6_8 H17_8 1_555 1_555
C3_8 H18_8 1_555 1_555
C11_8 H19_8 1_555 1_555
C15_8 H20_8 1_555 1_555
C22_8 H21_8 1_555 1_555
C24_8 H22_8 1_555 1_555
C17_8 H23_8 1_555 1_555
C29_8 H24_8 1_555 1_555
C31_8 H25_8 1_555 1_555
C21_8 H26_8 1_555 1_555
C25_8 H27_8 1_555 1_555
C26_8 H28_8 1_555 1_555
C30_8 H29_8 1_555 1_555
C18_8 H30_8 1_555 1_555
C23_8 H35_8 1_555 1_555
C27_8 H38_8 1_555 1_555
C28_8 H39_8 1_555 1_555
C97_8 H40_8 1_555 1_555
C98_8 H41_8 1_555 1_555
C81_8 H60_8 1_555 1_555
C79_8 H64_8 1_555 1_555
C117_8 H67_8 1_555 1_555
C135_8 H69_8 1_555 1_555
C136_8 H70_8 1_555 1_555
C151_8 H78_8 1_555 1_555
C118_8 H81_8 1_555 1_555
C114_8 H83_8 1_555 1_555
C137_8 H86_8 1_555 1_555
C134_8 H89_8 1_555 1_555
C115_8 H94_8 1_555 1_555
C163_8 H98_8 1_555 1_555
C164_8 H99_8 1_555 1_555
C116_8 H101_8 1_555 1_555
C152_8 H109_8 1_555 1_555
Zr7_3 O1_3 1_555 1_555
O1_3 Zr6_3 1_555 1_555
O4_3 Zr7_3 1_555 1_555
O6_3 Zr7_3 1_555 1_555
Zr10_5 O1_3 1_555 1_555
O13_3 Zr6_3 1_555 1_555
O16_3 Zr10_5 1_555 1_555
O6_3 Zr10_5 1_555 1_555
O6_3 Zr6 1_555 1_555
Zr10_5 O13_3 1_555 1_555
Zr6 O16_3 1_555 1_555
O2_3 Zr7_4 1_555 1_555
O5_3 Zr7_4 1_555 1_555
O7_3 Zr7_4 1_555 1_555
Zr6_4 O2_3 1_555 1_555
Zr8_5 O2_3 1_555 1_555
Zr6_2 O5_3 1_555 1_555
O12_3 Zr6_4 1_555 1_555
O18_3 Zr8_5 1_555 1_555
O5_3 Zr8_5 1_555 1_555
Zr8_5 O12_3 1_555 1_555
Zr6_2 O18_3 1_555 1_555
Zr7 O16_3 1_555 1_555
O4_4 Zr7 1_555 1_555
O13_3 Zr7 1_555 1_555
O18_3 Zr7_2 1_555 1_555
O12_3 Zr7_2 1_555 1_555
O7_4 Zr7_2 1_555 1_555
O21_4 Zr10_5 1_555 1_555
O22_4 Zr10_5 1_555 1_555
O10_4 Zr8_5 1_555 1_555
O11_4 Zr8_5 1_555 1_555
C32_7 O10_4 1_555 1_555
C33_7 O11_4 1_555 1_555
C34_7 C32_7 1_555 1_555
C35_7 C33_7 1_555 1_555
C36_7 C34_7 1_555 1_555
C37_7 C34_7 1_555 1_555
C38_7 C35_7 1_555 1_555
C39_7 C35_7 1_555 1_555
C40_7 C36_7 1_555 1_555
C41_7 C37_7 1_555 1_555
C42_7 C38_7 1_555 1_555
C43_7 C39_7 1_555 1_555
C44_7 C40_7 1_555 1_555
C45_7 C42_7 1_555 1_555
C46_7 C44_7 1_555 1_555
C47_7 C45_7 1_555 1_555
C48_7 C46_7 1_555 1_555
C49_7 C47_7 1_555 1_555
C50_7 C48_7 1_555 1_555
C51_7 C49_7 1_555 1_555
C52_7 C50_7 1_555 1_555
C53_7 C50_7 1_555 1_555
C54_7 C51_7 1_555 1_555
C55_7 C51_7 1_555 1_555
C56_7 C52_7 1_555 1_555
C57_7 C53_7 1_555 1_555
C58_7 C53_7 1_555 1_555
C59_7 C54_7 1_555 1_555
C60_7 C55_7 1_555 1_555
C61_7 C55_7 1_555 1_555
C63_7 C56_7 1_555 1_555
P2_7 C56_7 1_555 1_555
C64_7 C57_7 1_555 1_555
C65_7 C58_7 1_555 1_555
C66_7 C59_7 1_555 1_555
P3_7 C59_7 1_555 1_555
C67_7 C60_7 1_555 1_555
C68_7 C61_7 1_555 1_555
C71_7 C63_7 1_555 1_555
C72_7 P2_7 1_555 1_555
C73_7 P2_7 1_555 1_555
C74_7 C64_7 1_555 1_555
C75_7 C66_7 1_555 1_555
C76_7 P3_7 1_555 1_555
C77_7 P3_7 1_555 1_555
C78_7 C67_7 1_555 1_555
C82_7 C71_7 1_555 1_555
C83_7 C71_7 1_555 1_555
C84_7 C72_7 1_555 1_555
C85_7 C72_7 1_555 1_555
C86_7 C73_7 1_555 1_555
C87_7 C73_7 1_555 1_555
C88_7 C75_7 1_555 1_555
C89_7 C75_7 1_555 1_555
C90_7 C76_7 1_555 1_555
C91_7 C76_7 1_555 1_555
C92_7 C77_7 1_555 1_555
C93_7 C77_7 1_555 1_555
C99_7 C82_7 1_555 1_555
P5_7 C82_7 1_555 1_555
C100_7 C83_7 1_555 1_555
C101_7 C83_7 1_555 1_555
C102_7 C84_7 1_555 1_555
C103_7 C85_7 1_555 1_555
C104_7 C86_7 1_555 1_555
C105_7 C87_7 1_555 1_555
C106_7 C88_7 1_555 1_555
P6_7 C88_7 1_555 1_555
C107_7 C89_7 1_555 1_555
C108_7 C89_7 1_555 1_555
C109_7 C90_7 1_555 1_555
C110_7 C91_7 1_555 1_555
C111_7 C92_7 1_555 1_555
C112_7 C93_7 1_555 1_555
C119_7 C99_7 1_555 1_555
C120_7 P5_7 1_555 1_555
C121_7 P5_7 1_555 1_555
C122_7 C100_7 1_555 1_555
C123_7 C101_7 1_555 1_555
C124_7 C102_7 1_555 1_555
C125_7 C104_7 1_555 1_555
C126_7 C106_7 1_555 1_555
C127_7 P6_7 1_555 1_555
C128_7 P6_7 1_555 1_555
C129_7 C107_7 1_555 1_555
C130_7 C108_7 1_555 1_555
C131_7 C109_7 1_555 1_555
C132_7 C111_7 1_555 1_555
C138_7 C119_7 1_555 1_555
C139_7 C120_7 1_555 1_555
C140_7 C120_7 1_555 1_555
C141_7 C121_7 1_555 1_555
C142_7 C121_7 1_555 1_555
C143_7 C122_7 1_555 1_555
C144_7 C126_7 1_555 1_555
C145_7 C127_7 1_555 1_555
C146_7 C127_7 1_555 1_555
C147_7 C128_7 1_555 1_555
C148_7 C128_7 1_555 1_555
C149_7 C129_7 1_555 1_555
C153_7 C138_7 1_555 1_555
C154_7 C139_7 1_555 1_555
C155_7 C140_7 1_555 1_555
C156_7 C141_7 1_555 1_555
C157_7 C142_7 1_555 1_555
C158_7 C144_7 1_555 1_555
C159_7 C145_7 1_555 1_555
C160_7 C146_7 1_555 1_555
C161_7 C147_7 1_555 1_555
C162_7 C148_7 1_555 1_555
C165_7 C153_7 1_555 1_555
C166_7 C154_7 1_555 1_555
C167_7 C156_7 1_555 1_555
C168_7 C158_7 1_555 1_555
C169_7 C159_7 1_555 1_555
C170_7 C161_7 1_555 1_555
C173_7 C165_7 1_555 1_555
C174_7 C165_7 1_555 1_555
C175_7 C168_7 1_555 1_555
C176_7 C168_7 1_555 1_555
C178_7 C173_7 1_555 1_555
C179_7 C174_7 1_555 1_555
C180_7 C175_7 1_555 1_555
C181_7 C176_7 1_555 1_555
C183_7 C178_7 1_555 1_555
C184_7 C180_7 1_555 1_555
C185_7 C183_7 1_555 1_555
C186_7 C184_7 1_555 1_555
O25_7 C185_7 1_555 1_555
O26_7 C185_7 1_555 1_555
O27_7 C186_7 1_555 1_555
O28_7 C186_7 1_555 1_555
Zr7_5 O25_7 1_555 1_555
Zr10_2 O26_7 1_555 1_555
Zr7_6 O27_7 1_555 1_555
Zr10 O28_7 1_555 1_555
O7_3 C32_7 1_555 1_555
O7_4 C33_7 1_555 1_555
C41_7 C44_7 1_555 1_555
C43_7 C45_7 1_555 1_555
C57_7 C63_7 1_555 1_555
C60_7 C66_7 1_555 1_555
C65_7 C74_7 1_555 1_555
C68_7 C78_7 1_555 1_555
C100_7 C119_7 1_555 1_555
C103_7 C124_7 1_555 1_555
C105_7 C125_7 1_555 1_555
C107_7 C126_7 1_555 1_555
C110_7 C131_7 1_555 1_555
C112_7 C132_7 1_555 1_555
C123_7 C143_7 1_555 1_555
C130_7 C149_7 1_555 1_555
C155_7 C166_7 1_555 1_555
C157_7 C167_7 1_555 1_555
C160_7 C169_7 1_555 1_555
C162_7 C170_7 1_555 1_555
C179_7 C183_7 1_555 1_555
C181_7 C184_7 1_555 1_555
C166_7 H1_7 1_555 1_555
C175_7 H2_7 1_555 1_555
C176_7 H3_7 1_555 1_555
C169_7 H4_7 1_555 1_555
C181_7 H5_7 1_555 1_555
C178_7 H6_7 1_555 1_555
C167_7 H8_7 1_555 1_555
C173_7 H9_7 1_555 1_555
C174_7 H10_7 1_555 1_555
C179_7 H11_7 1_555 1_555
C180_7 H13_7 1_555 1_555
C170_7 H14_7 1_555 1_555
C36_7 H31_7 1_555 1_555
C37_7 H32_7 1_555 1_555
C38_7 H33_7 1_555 1_555
C39_7 H34_7 1_555 1_555
C40_7 H36_7 1_555 1_555
C41_7 H37_7 1_555 1_555
C101_7 H42_7 1_555 1_555
C85_7 H43_7 1_555 1_555
C78_7 H44_7 1_555 1_555
C43_7 H45_7 1_555 1_555
C65_7 H46_7 1_555 1_555
C68_7 H47_7 1_555 1_555
C61_7 H48_7 1_555 1_555
C74_7 H49_7 1_555 1_555
C58_7 H50_7 1_555 1_555
C84_7 H51_7 1_555 1_555
C86_7 H52_7 1_555 1_555
C87_7 H53_7 1_555 1_555
C90_7 H54_7 1_555 1_555
C91_7 H55_7 1_555 1_555
C54_7 H56_7 1_555 1_555
C92_7 H57_7 1_555 1_555
C99_7 H58_7 1_555 1_555
C52_7 H59_7 1_555 1_555
C67_7 H61_7 1_555 1_555
C93_7 H62_7 1_555 1_555
C64_7 H63_7 1_555 1_555
C42_7 H65_7 1_555 1_555
C102_7 H66_7 1_555 1_555
C104_7 H68_7 1_555 1_555
C139_7 H71_7 1_555 1_555
C103_7 H72_7 1_555 1_555
C145_7 H73_7 1_555 1_555
C148_7 H74_7 1_555 1_555
C124_7 H75_7 1_555 1_555
C147_7 H76_7 1_555 1_555
C140_7 H77_7 1_555 1_555
C123_7 H79_7 1_555 1_555
C105_7 H80_7 1_555 1_555
C108_7 H82_7 1_555 1_555
C106_7 H84_7 1_555 1_555
C122_7 H85_7 1_555 1_555
C141_7 H87_7 1_555 1_555
C154_7 H88_7 1_555 1_555
C111_7 H90_7 1_555 1_555
C143_7 H91_7 1_555 1_555
C157_7 H92_7 1_555 1_555
C142_7 H93_7 1_555 1_555
C160_7 H95_7 1_555 1_555
C161_7 H96_7 1_555 1_555
C162_7 H97_7 1_555 1_555
C132_7 H100_7 1_555 1_555
C110_7 H102_7 1_555 1_555
C125_7 H103_7 1_555 1_555
C131_7 H104_7 1_555 1_555
C146_7 H105_7 1_555 1_555
C130_7 H106_7 1_555 1_555
C109_7 H107_7 1_555 1_555
C149_7 H108_7 1_555 1_555
C129_7 H110_7 1_555 1_555
C155_7 H111_7 1_555 1_555
C156_7 H112_7 1_555 1_555
C159_7 H113_7 1_555 1_555
C112_7 H114_7 1_555 1_555
C32_8 O21_4 1_555 1_555
C33_8 O22_4 1_555 1_555
C34_8 C32_8 1_555 1_555
C35_8 C33_8 1_555 1_555
C36_8 C34_8 1_555 1_555
C37_8 C34_8 1_555 1_555
C38_8 C35_8 1_555 1_555
C39_8 C35_8 1_555 1_555
C40_8 C36_8 1_555 1_555
C41_8 C37_8 1_555 1_555
C42_8 C38_8 1_555 1_555
C43_8 C39_8 1_555 1_555
C44_8 C40_8 1_555 1_555
C45_8 C42_8 1_555 1_555
C46_8 C44_8 1_555 1_555
C47_8 C45_8 1_555 1_555
C48_8 C46_8 1_555 1_555
C49_8 C47_8 1_555 1_555
C50_8 C48_8 1_555 1_555
C51_8 C49_8 1_555 1_555
C52_8 C50_8 1_555 1_555
C53_8 C50_8 1_555 1_555
C54_8 C51_8 1_555 1_555
C55_8 C51_8 1_555 1_555
C56_8 C52_8 1_555 1_555
C57_8 C53_8 1_555 1_555
C58_8 C53_8 1_555 1_555
C59_8 C54_8 1_555 1_555
C60_8 C55_8 1_555 1_555
C61_8 C55_8 1_555 1_555
C63_8 C56_8 1_555 1_555
P2_8 C56_8 1_555 1_555
C64_8 C57_8 1_555 1_555
C65_8 C58_8 1_555 1_555
C66_8 C59_8 1_555 1_555
P3_8 C59_8 1_555 1_555
C67_8 C60_8 1_555 1_555
C68_8 C61_8 1_555 1_555
C71_8 C63_8 1_555 1_555
C72_8 P2_8 1_555 1_555
C73_8 P2_8 1_555 1_555
C74_8 C64_8 1_555 1_555
C75_8 C66_8 1_555 1_555
C76_8 P3_8 1_555 1_555
C77_8 P3_8 1_555 1_555
C78_8 C67_8 1_555 1_555
C82_8 C71_8 1_555 1_555
C83_8 C71_8 1_555 1_555
C84_8 C72_8 1_555 1_555
C85_8 C72_8 1_555 1_555
C86_8 C73_8 1_555 1_555
C87_8 C73_8 1_555 1_555
C88_8 C75_8 1_555 1_555
C89_8 C75_8 1_555 1_555
C90_8 C76_8 1_555 1_555
C91_8 C76_8 1_555 1_555
C92_8 C77_8 1_555 1_555
C93_8 C77_8 1_555 1_555
C99_8 C82_8 1_555 1_555
P5_8 C82_8 1_555 1_555
C100_8 C83_8 1_555 1_555
C101_8 C83_8 1_555 1_555
C102_8 C84_8 1_555 1_555
C103_8 C85_8 1_555 1_555
C104_8 C86_8 1_555 1_555
C105_8 C87_8 1_555 1_555
C106_8 C88_8 1_555 1_555
P6_8 C88_8 1_555 1_555
C107_8 C89_8 1_555 1_555
C108_8 C89_8 1_555 1_555
C109_8 C90_8 1_555 1_555
C110_8 C91_8 1_555 1_555
C111_8 C92_8 1_555 1_555
C112_8 C93_8 1_555 1_555
C119_8 C99_8 1_555 1_555
C120_8 P5_8 1_555 1_555
C121_8 P5_8 1_555 1_555
C122_8 C100_8 1_555 1_555
C123_8 C101_8 1_555 1_555
C124_8 C102_8 1_555 1_555
C125_8 C104_8 1_555 1_555
C126_8 C106_8 1_555 1_555
C127_8 P6_8 1_555 1_555
C128_8 P6_8 1_555 1_555
C129_8 C107_8 1_555 1_555
C130_8 C108_8 1_555 1_555
C131_8 C109_8 1_555 1_555
C132_8 C111_8 1_555 1_555
C138_8 C119_8 1_555 1_555
C139_8 C120_8 1_555 1_555
C140_8 C120_8 1_555 1_555
C141_8 C121_8 1_555 1_555
C142_8 C121_8 1_555 1_555
C143_8 C122_8 1_555 1_555
C144_8 C126_8 1_555 1_555
C145_8 C127_8 1_555 1_555
C146_8 C127_8 1_555 1_555
C147_8 C128_8 1_555 1_555
C148_8 C128_8 1_555 1_555
C149_8 C129_8 1_555 1_555
C153_8 C138_8 1_555 1_555
C154_8 C139_8 1_555 1_555
C155_8 C140_8 1_555 1_555
C156_8 C141_8 1_555 1_555
C157_8 C142_8 1_555 1_555
C158_8 C144_8 1_555 1_555
C159_8 C145_8 1_555 1_555
C160_8 C146_8 1_555 1_555
C161_8 C147_8 1_555 1_555
C162_8 C148_8 1_555 1_555
C165_8 C153_8 1_555 1_555
C166_8 C154_8 1_555 1_555
C167_8 C156_8 1_555 1_555
C168_8 C158_8 1_555 1_555
C169_8 C159_8 1_555 1_555
C170_8 C161_8 1_555 1_555
C173_8 C165_8 1_555 1_555
C174_8 C165_8 1_555 1_555
C175_8 C168_8 1_555 1_555
C176_8 C168_8 1_555 1_555
C178_8 C173_8 1_555 1_555
C179_8 C174_8 1_555 1_555
C180_8 C175_8 1_555 1_555
C181_8 C176_8 1_555 1_555
C183_8 C178_8 1_555 1_555
C184_8 C180_8 1_555 1_555
C185_8 C183_8 1_555 1_555
C186_8 C184_8 1_555 1_555
O25_8 C185_8 1_555 1_555
O26_8 C185_8 1_555 1_555
O27_8 C186_8 1_555 1_555
O28_8 C186_8 1_555 1_555
Zr7_6 O25_8 1_555 1_555
Zr8 O26_8 1_555 1_555
Zr7_5 O27_8 1_555 1_555
Zr8_2 O28_8 1_555 1_555
O4_4 C32_8 1_555 1_555
O4_3 C33_8 1_555 1_555
C41_8 C44_8 1_555 1_555
C43_8 C45_8 1_555 1_555
C57_8 C63_8 1_555 1_555
C60_8 C66_8 1_555 1_555
C65_8 C74_8 1_555 1_555
C68_8 C78_8 1_555 1_555
C100_8 C119_8 1_555 1_555
C103_8 C124_8 1_555 1_555
C105_8 C125_8 1_555 1_555
C107_8 C126_8 1_555 1_555
C110_8 C131_8 1_555 1_555
C112_8 C132_8 1_555 1_555
C123_8 C143_8 1_555 1_555
C130_8 C149_8 1_555 1_555
C155_8 C166_8 1_555 1_555
C157_8 C167_8 1_555 1_555
C160_8 C169_8 1_555 1_555
C162_8 C170_8 1_555 1_555
C179_8 C183_8 1_555 1_555
C181_8 C184_8 1_555 1_555
C166_8 H1_8 1_555 1_555
C175_8 H2_8 1_555 1_555
C176_8 H3_8 1_555 1_555
C169_8 H4_8 1_555 1_555
C181_8 H5_8 1_555 1_555
C178_8 H6_8 1_555 1_555
C167_8 H8_8 1_555 1_555
C173_8 H9_8 1_555 1_555
C174_8 H10_8 1_555 1_555
C179_8 H11_8 1_555 1_555
C180_8 H13_8 1_555 1_555
C170_8 H14_8 1_555 1_555
C36_8 H31_8 1_555 1_555
C37_8 H32_8 1_555 1_555
C38_8 H33_8 1_555 1_555
C39_8 H34_8 1_555 1_555
C40_8 H36_8 1_555 1_555
C41_8 H37_8 1_555 1_555
C101_8 H42_8 1_555 1_555
C85_8 H43_8 1_555 1_555
C78_8 H44_8 1_555 1_555
C43_8 H45_8 1_555 1_555
C65_8 H46_8 1_555 1_555
C68_8 H47_8 1_555 1_555
C61_8 H48_8 1_555 1_555
C74_8 H49_8 1_555 1_555
C58_8 H50_8 1_555 1_555
C84_8 H51_8 1_555 1_555
C86_8 H52_8 1_555 1_555
C87_8 H53_8 1_555 1_555
C90_8 H54_8 1_555 1_555
C91_8 H55_8 1_555 1_555
C54_8 H56_8 1_555 1_555
C92_8 H57_8 1_555 1_555
C99_8 H58_8 1_555 1_555
C52_8 H59_8 1_555 1_555
C67_8 H61_8 1_555 1_555
C93_8 H62_8 1_555 1_555
C64_8 H63_8 1_555 1_555
C42_8 H65_8 1_555 1_555
C102_8 H66_8 1_555 1_555
C104_8 H68_8 1_555 1_555
C139_8 H71_8 1_555 1_555
C103_8 H72_8 1_555 1_555
C145_8 H73_8 1_555 1_555
C148_8 H74_8 1_555 1_555
C124_8 H75_8 1_555 1_555
C147_8 H76_8 1_555 1_555
C140_8 H77_8 1_555 1_555
C123_8 H79_8 1_555 1_555
C105_8 H80_8 1_555 1_555
C108_8 H82_8 1_555 1_555
C106_8 H84_8 1_555 1_555
C122_8 H85_8 1_555 1_555
C141_8 H87_8 1_555 1_555
C154_8 H88_8 1_555 1_555
C111_8 H90_8 1_555 1_555
C143_8 H91_8 1_555 1_555
C157_8 H92_8 1_555 1_555
C142_8 H93_8 1_555 1_555
C160_8 H95_8 1_555 1_555
C161_8 H96_8 1_555 1_555
C162_8 H97_8 1_555 1_555
C132_8 H100_8 1_555 1_555
C110_8 H102_8 1_555 1_555
C125_8 H103_8 1_555 1_555
C131_8 H104_8 1_555 1_555
C146_8 H105_8 1_555 1_555
C130_8 H106_8 1_555 1_555
C109_8 H107_8 1_555 1_555
C149_8 H108_8 1_555 1_555
C129_8 H110_8 1_555 1_555
C155_8 H111_8 1_555 1_555
C156_8 H112_8 1_555 1_555
C159_8 H113_8 1_555 1_555
C112_8 H114_8 1_555 1_555
Zr7_6 O1_4 1_555 1_555
O1_4 Zr11 1_555 1_555
O2_4 Zr7_6 1_555 1_555
O5_4 Zr7_6 1_555 1_555
O6_4 Zr7_6 1_555 1_555
Zr11 O2_4 1_555 1_555
Zr10 O1_4 1_555 1_555
Zr8 O2_4 1_555 1_555
Zr9 O5_4 1_555 1_555
O5_4 Zr8 1_555 1_555
O6_4 Zr10 1_555 1_555
O6_4 Zr9 1_555 1_555
O12_4 Zr11_2 1_555 1_555
O13_4 Zr11_2 1_555 1_555
O16_4 Zr10_2 1_555 1_555
O18_4 Zr8_2 1_555 1_555
Zr10_2 O13_4 1_555 1_555
Zr8_2 O12_4 1_555 1_555
Zr9_2 O16_4 1_555 1_555
Zr9_2 O18_4 1_555 1_555
Zr7_5 O16_4 1_555 1_555
O18_4 Zr7_5 1_555 1_555
O12_4 Zr7_5 1_555 1_555
O13_4 Zr7_5 1_555 1_555

#END
