
###############################################################################
#
# This file contains modified crystal structure data generated from the
# MOF subset of the Cambridge Structural Database (CSD) v543 
# hosted by the Cambridge Crystallographic Data Centre (CCDC).
#
# This work is licensed under the Creative Commons
# Attribution-NonCommercial-ShareAlike 4.0 International License.
# To view a copy of this license, visit
# http://creativecommons.org/licenses/by-nc-sa/4.0/
# or send a letter to
# Creative Commons, PO Box 1866, Mountain View, CA 94042, USA.
#
# CIF created using the CSD Python API on 29 September 2022
# The structure has been converted into the P1 space group
# The structure has a 3D framework
# The original CSD entry BOGXIF is in the rhombohedral crystal system
# The framework has been calculated to contain at least 10.0% void space
# The void calculation uses a probe of radius 1.32A, grid spacing 0.4
#
###############################################################################

data_BOGXIF
_chemical_formula_moiety         '(C108 H180 Cu14 N54)n'
_symmetry_cell_setting           triclinic
_symmetry_space_group_name_H-M   'P 1'
_symmetry_Int_Tables_number      1
_space_group_name_Hall           'P 1'
loop_
_symmetry_equiv_pos_site_id
_symmetry_equiv_pos_as_xyz
1 x,y,z
_cell_length_a                   19.6891(8)
_cell_length_b                   19.6891(8)
_cell_length_c                   14.1971(7)
_cell_angle_alpha                90
_cell_angle_beta                 90
_cell_angle_gamma                120.00
_cell_volume                     4766.31
loop_
_atom_site_label
_atom_site_type_symbol
_atom_site_fract_x
_atom_site_fract_y
_atom_site_fract_z
Cu1 Cu 0.58471(2) 0.54850(2) 0.43773(2)
N1 N 0.50592(14) 0.54674(14) 0.61296(16)
N2 N 0.57483(13) 0.58578(14) 0.56074(16)
N3 N 0.58931(14) 0.65539(14) 0.68979(15)
C1 C 0.51759(17) 0.59026(17) 0.68947(19)
C2 C 0.4590(2) 0.5697(2) 0.7666(2)
H1 H 0.4809 0.5612 0.8253
H2 H 0.4113 0.5196 0.7505
C3 C 0.4360(3) 0.6309(3) 0.7848(4)
H3 H 0.3991 0.6143 0.8376
H4 H 0.4112 0.6374 0.7284
H5 H 0.4829 0.6809 0.8003
C4 C 0.62218(17) 0.64973(16) 0.60906(19)
C5 C 0.70332(17) 0.70859(19) 0.5789(2)
H6 H 0.7073 0.7606 0.5736
H7 H 0.7133 0.6941 0.5158
C6 C 0.7659(2) 0.7148(3) 0.6463(3)
H8 H 0.8177 0.7544 0.6231
H9 H 0.7634 0.6639 0.6505
H10 H 0.7570 0.7301 0.7087
Cu2 Cu 0.41529(2) 0.45150(2) 0.56227(2)
Cu3 Cu 0.63046(3) 0.74862(2) 0.77106(2)
N4 N 0.49408(14) 0.45326(14) 0.38704(16)
N5 N 0.67794(14) 0.60059(20) 0.35646(15)
Cu1_2 Cu 0.45150(2) 0.03621(3) 0.43773(2)
H7_2 H 0.3059 0.0192 0.5158
C6_2 C 0.2852(3) 0.0511(4) 0.6463(3)
H8_2 H 0.2456 0.0633 0.6231
H9_2 H 0.3361 0.0995 0.6505
H10_2 H 0.2699 0.0269 0.7087
N4_2 N 0.54674(14) 0.04082(20) 0.38704(16)
N5_2 N 0.39941(20) 0.07736(24) 0.35646(15)
N1_2 N 0.45326(14) 0.95918(20) 0.61296(16)
N2_2 N 0.41422(14) 0.98905(19) 0.56074(16)
N3_2 N 0.34461(14) 0.93392(20) 0.68979(15)
C1_2 C 0.40974(17) 0.92733(24) 0.68947(19)
C2_2 C 0.4303(2) 0.8893(3) 0.7666(2)
H1_2 H 0.4388 0.9197 0.8253
H2_2 H 0.4804 0.8917 0.7505
C3_2 C 0.3691(3) 0.8051(4) 0.7848(4)
H3_2 H 0.3857 0.7848 0.8376
H4_2 H 0.3626 0.7738 0.7284
H5_2 H 0.3191 0.8020 0.8003
C4_2 C 0.35027(16) 0.97245(23) 0.60906(19)
C5_2 C 0.29141(19) 0.99473(25) 0.5789(2)
H6_2 H 0.2394 0.9467 0.5736
Cu2_2 Cu 0.54850(2) 0.96379(3) 0.56227(2)
Cu3_2 Cu 0.25138(2) 0.88183(4) 0.77106(2)
N1_3 N 0.04082(20) 0.49408(14) 0.61296(16)
N2_3 N 0.01095(19) 0.42517(13) 0.56074(16)
N3_3 N 0.06608(20) 0.41069(14) 0.68979(15)
C1_3 C 0.07267(24) 0.48241(17) 0.68947(19)
C2_3 C 0.1107(3) 0.5410(2) 0.7666(2)
H1_3 H 0.0803 0.5191 0.8253
H2_3 H 0.1083 0.5887 0.7505
C3_3 C 0.1949(4) 0.5640(3) 0.7848(4)
H3_3 H 0.2152 0.6009 0.8376
H4_3 H 0.2262 0.5888 0.7284
H5_3 H 0.1980 0.5171 0.8003
C4_3 C 0.02755(23) 0.37782(17) 0.60906(19)
C5_3 C 0.00527(25) 0.29668(17) 0.5789(2)
H6_3 H 0.0533 0.2927 0.5736
Cu2_3 Cu 0.03621(3) 0.58471(2) 0.56227(2)
Cu3_3 Cu 0.11817(4) 0.36954(3) 0.77106(2)
Cu1_3 Cu 0.96379(3) 0.41529(2) 0.43773(2)
H7_3 H 0.9808 0.2867 0.5158
C6_3 C 0.9489(4) 0.2341(2) 0.6463(3)
H8_3 H 0.9367 0.1823 0.6231
H9_3 H 0.9005 0.2366 0.6505
H10_3 H 0.9731 0.2430 0.7087
N4_3 N 0.95918(20) 0.50592(14) 0.38704(16)
N5_3 N 0.92264(24) 0.32206(14) 0.35646(15)
H5_4 H 0.1496 0.0142 0.1336
H10_4 H 0.4237 0.0634 0.0420
Cu3_4 Cu 0.29712(3) 0.08196(2) 0.10440(2)
N1_4 N 0.17259(14) 0.88007(14) 0.94629(16)
N2_4 N 0.24150(13) 0.91911(14) 0.89407(16)
C4_4 C 0.28885(17) 0.98306(16) 0.94239(19)
H9_4 H 0.4301 0.9972 0.9838
Cu2_4 Cu 0.08196(2) 0.78483(2) 0.89560(2)
N4_4 N 0.16075(14) 0.78659(14) 0.72037(16)
N1_5 N 0.11993(14) 0.29251(20) 0.94629(16)
N2_5 N 0.08089(14) 0.32238(19) 0.89407(16)
C4_5 C 0.01694(16) 0.30578(23) 0.94239(19)
H9_5 H 0.0028 0.4328 0.9838
Cu2_5 Cu 0.21517(2) 0.29712(3) 0.89560(2)
N4_5 N 0.21341(14) 0.37415(20) 0.72037(16)
H5_5 H 0.9858 0.1353 0.1336
H10_5 H 0.9366 0.3602 0.0420
Cu3_5 Cu 0.91804(2) 0.21517(4) 0.10440(2)
N3_4 N 0.73275(20) 0.74402(14) 0.02312(15)
C1_4 C 0.73934(24) 0.81574(17) 0.02280(19)
C2_4 C 0.7774(3) 0.8743(2) 0.0999(2)
H1_4 H 0.7470 0.8524 0.1586
H2_4 H 0.7750 0.9220 0.0838
C3_4 C 0.8616(4) 0.8973(3) 0.1181(4)
H3_4 H 0.8819 0.9342 0.1709
H4_4 H 0.8929 0.9221 0.0617
H5_6 H 0.8647 0.8504 0.1336
H10_6 H 0.6398 0.5763 0.0420
Cu3_6 Cu 0.78483(4) 0.70288(3) 0.10440(2)
N1_6 N 0.70749(20) 0.82741(14) 0.94629(16)
N2_6 N 0.67762(19) 0.75850(13) 0.89407(16)
C4_6 C 0.69422(23) 0.71115(17) 0.94239(19)
C5_4 C 0.67194(25) 0.63001(17) 0.9122(2)
H6_4 H 0.7200 0.6260 0.9069
H7_4 H 0.6475 0.6200 0.8491
C6_4 C 0.6156(4) 0.5674(2) 0.9796(3)
H8_4 H 0.6034 0.5156 0.9564
H9_6 H 0.5672 0.5699 0.9838
Cu2_6 Cu 0.70288(3) 0.91804(2) 0.89560(2)
N4_6 N 0.62585(20) 0.83925(14) 0.72037(16)
N1_7 N 0.83925(14) 0.21341(14) 0.27963(16)
N2_7 N 0.90816(13) 0.25245(14) 0.22741(16)
C1_5 C 0.85092(17) 0.25693(17) 0.35614(19)
C2_5 C 0.7923(2) 0.2364(2) 0.4333(2)
H1_5 H 0.8142 0.2279 0.4920
H2_5 H 0.7446 0.1863 0.4172
C3_5 C 0.7693(3) 0.2976(3) 0.4515(4)
H3_5 H 0.7324 0.2810 0.5043
H4_5 H 0.7445 0.3041 0.3951
H5_7 H 0.8162 0.3476 0.4670
C4_7 C 0.95551(17) 0.31640(16) 0.27573(19)
Cu2_7 Cu 0.74862(2) 0.11817(2) 0.22894(2)
N4_7 N 0.82741(14) 0.11993(14) 0.05371(16)
N1_8 N 0.78659(14) 0.62585(20) 0.27963(16)
N2_8 N 0.74755(14) 0.65572(19) 0.22741(16)
C1_6 C 0.74307(17) 0.59400(24) 0.35614(19)
C2_6 C 0.7636(2) 0.5560(3) 0.4333(2)
H1_6 H 0.7721 0.5864 0.4920
H2_6 H 0.8137 0.5584 0.4172
C3_6 C 0.7024(3) 0.4718(4) 0.4515(4)
H3_6 H 0.7190 0.4515 0.5043
H4_6 H 0.6959 0.4405 0.3951
H5_8 H 0.6524 0.4687 0.4670
C4_8 C 0.68360(16) 0.63912(23) 0.27573(19)
C5_5 C 0.62474(19) 0.66140(25) 0.2456(2)
H6_5 H 0.5727 0.6134 0.2403
H7_5 H 0.6392 0.6859 0.1825
C6_5 C 0.6185(3) 0.7178(4) 0.3130(3)
H8_5 H 0.5789 0.7300 0.2898
H9_7 H 0.6694 0.7662 0.3172
H10_7 H 0.6032 0.6936 0.3754
Cu2_8 Cu 0.88183(2) 0.63046(3) 0.22894(2)
N4_8 N 0.88007(14) 0.70749(20) 0.05371(16)
N1_9 N 0.37415(20) 0.16075(14) 0.27963(16)
N2_9 N 0.34428(19) 0.09184(13) 0.22741(16)
C1_7 C 0.40600(24) 0.14908(17) 0.35614(19)
C2_7 C 0.4440(3) 0.2077(2) 0.4333(2)
H1_7 H 0.4136 0.1858 0.4920
H2_7 H 0.4416 0.2554 0.4172
C3_7 C 0.5282(4) 0.2307(3) 0.4515(4)
H3_7 H 0.5485 0.2676 0.5043
H4_7 H 0.5595 0.2555 0.3951
H5_9 H 0.5313 0.1838 0.4670
C4_9 C 0.36088(23) 0.04449(17) 0.27573(19)
Cu2_9 Cu 0.36954(3) 0.25138(2) 0.22894(2)
N4_9 N 0.29251(20) 0.17259(14) 0.05371(16)
N2_10 N 0.42517(13) 0.41422(14) 0.43926(16)
N3_5 N 0.41069(14) 0.34461(14) 0.31021(15)
C1_8 C 0.48241(17) 0.40974(17) 0.31053(19)
C2_8 C 0.5410(2) 0.4303(2) 0.2334(2)
H1_8 H 0.5191 0.4388 0.1747
H2_8 H 0.5887 0.4804 0.2495
C3_8 C 0.5640(3) 0.3691(3) 0.2152(4)
H3_8 H 0.6009 0.3857 0.1624
H4_8 H 0.5888 0.3626 0.2716
H5_10 H 0.5171 0.3191 0.1997
C4_10 C 0.37782(17) 0.35027(16) 0.39094(19)
C5_6 C 0.29668(17) 0.29141(19) 0.4211(2)
H6_6 H 0.2927 0.2394 0.4264
H7_6 H 0.2867 0.3059 0.4842
C6_6 C 0.2341(2) 0.2852(3) 0.3537(3)
H8_6 H 0.1823 0.2456 0.3769
H9_8 H 0.2366 0.3361 0.3495
H10_8 H 0.2430 0.2699 0.2913
N5_4 N 0.32206(14) 0.39941(20) 0.64354(15)
N2_11 N 0.58578(14) 0.01095(19) 0.43926(16)
N3_6 N 0.65539(14) 0.06608(20) 0.31021(15)
C1_9 C 0.59026(17) 0.07267(24) 0.31053(19)
C2_9 C 0.5697(2) 0.1107(3) 0.2334(2)
H1_9 H 0.5612 0.0803 0.1747
H2_9 H 0.5196 0.1083 0.2495
C3_9 C 0.6309(3) 0.1949(4) 0.2152(4)
H3_9 H 0.6143 0.2152 0.1624
H4_9 H 0.6374 0.2262 0.2716
H5_11 H 0.6809 0.1980 0.1997
C4_11 C 0.64973(16) 0.02755(23) 0.39094(19)
C5_7 C 0.70859(19) 0.00527(25) 0.4211(2)
H6_7 H 0.7606 0.0533 0.4264
H7_7 H 0.6941 0.9808 0.4842
C6_7 C 0.7148(3) 0.9489(4) 0.3537(3)
H8_7 H 0.7544 0.9367 0.3769
H9_9 H 0.6639 0.9005 0.3495
H10_9 H 0.7301 0.9731 0.2913
N5_5 N 0.60059(20) 0.92264(24) 0.64354(15)
H7_8 H 0.0192 0.7133 0.4842
C6_8 C 0.0511(4) 0.7659(2) 0.3537(3)
H8_8 H 0.0633 0.8177 0.3769
H9_10 H 0.0995 0.7634 0.3495
H10_10 H 0.0269 0.7570 0.2913
N5_6 N 0.07736(24) 0.67794(14) 0.64354(15)
N2_12 N 0.98905(19) 0.57483(13) 0.43926(16)
N3_7 N 0.93392(20) 0.58931(14) 0.31021(15)
C1_10 C 0.92733(24) 0.51759(17) 0.31053(19)
C2_10 C 0.8893(3) 0.4590(2) 0.2334(2)
H1_10 H 0.9197 0.4809 0.1747
H2_10 H 0.8917 0.4113 0.2495
C3_10 C 0.8051(4) 0.4360(3) 0.2152(4)
H3_10 H 0.7848 0.3991 0.1624
H4_10 H 0.7738 0.4112 0.2716
H5_12 H 0.8020 0.4829 0.1997
C4_12 C 0.97245(23) 0.62218(17) 0.39094(19)
C5_8 C 0.99473(25) 0.70332(17) 0.4211(2)
H6_8 H 0.9467 0.7073 0.4264
N2_13 N 0.75850(13) 0.08089(14) 0.10593(16)
C4_13 C 0.71115(17) 0.01694(16) 0.05761(19)
H9_11 H 0.5699 0.0028 0.0162
H5_13 H 0.8504 0.9858 0.8664
H10_11 H 0.5763 0.9366 0.9580
H5_14 H 0.0142 0.8647 0.8664
H10_12 H 0.0634 0.6398 0.9580
N2_14 N 0.91911(14) 0.67762(19) 0.10593(16)
C4_14 C 0.98306(16) 0.69422(23) 0.05761(19)
H9_12 H 0.9972 0.5672 0.0162
N2_15 N 0.32238(19) 0.24150(13) 0.10593(16)
C4_15 C 0.30578(23) 0.28885(17) 0.05761(19)
C5_9 C 0.32806(25) 0.36999(17) 0.0878(2)
H6_9 H 0.2800 0.3740 0.0931
H7_9 H 0.3525 0.3800 0.1509
C6_9 C 0.3844(4) 0.4326(2) 0.0204(3)
H8_9 H 0.3966 0.4844 0.0436
H9_13 H 0.4328 0.4301 0.0162
N3_8 N 0.26725(20) 0.25598(14) 0.97688(15)
C1_11 C 0.26066(24) 0.18426(17) 0.97720(19)
C2_11 C 0.2226(3) 0.1257(2) 0.9001(2)
H1_11 H 0.2530 0.1476 0.8414
H2_11 H 0.2250 0.0780 0.9162
C3_11 C 0.1384(4) 0.1027(3) 0.8819(4)
H3_11 H 0.1181 0.0658 0.8291
H4_11 H 0.1071 0.0779 0.9383
H5_15 H 0.1353 0.1496 0.8664
H10_13 H 0.3602 0.4237 0.9580
N2_16 N 0.09184(13) 0.74755(14) 0.77259(16)
C1_12 C 0.14908(17) 0.74307(17) 0.64386(19)
C2_12 C 0.2077(2) 0.7636(2) 0.5667(2)
H1_12 H 0.1858 0.7721 0.5080
H2_12 H 0.2554 0.8137 0.5828
C3_12 C 0.2307(3) 0.7024(3) 0.5485(4)
H3_12 H 0.2676 0.7190 0.4957
H4_12 H 0.2555 0.6959 0.6049
H5_16 H 0.1838 0.6524 0.5330
C4_16 C 0.04449(17) 0.68360(16) 0.72427(19)
N2_17 N 0.25245(14) 0.34428(19) 0.77259(16)
C1_13 C 0.25693(17) 0.40600(24) 0.64386(19)
C2_13 C 0.2364(2) 0.4440(3) 0.5667(2)
H1_13 H 0.2279 0.4136 0.5080
H2_13 H 0.1863 0.4416 0.5828
C3_13 C 0.2976(3) 0.5282(4) 0.5485(4)
H3_13 H 0.2810 0.5485 0.4957
H4_13 H 0.3041 0.5595 0.6049
H5_17 H 0.3476 0.5313 0.5330
C4_17 C 0.31640(16) 0.36088(23) 0.72427(19)
C5_10 C 0.37526(19) 0.33860(25) 0.7544(2)
H6_10 H 0.4273 0.3866 0.7597
H7_10 H 0.3608 0.3141 0.8175
C6_10 C 0.3815(3) 0.2822(4) 0.6870(3)
H8_10 H 0.4211 0.2700 0.7102
H9_14 H 0.3306 0.2338 0.6828
H10_14 H 0.3968 0.3064 0.6246
N2_18 N 0.65572(19) 0.90816(13) 0.77259(16)
C1_14 C 0.59400(24) 0.85092(17) 0.64386(19)
C2_14 C 0.5560(3) 0.7923(2) 0.5667(2)
H1_14 H 0.5864 0.8142 0.5080
H2_14 H 0.5584 0.7446 0.5828
C3_14 C 0.4718(4) 0.7693(3) 0.5485(4)
H3_14 H 0.4515 0.7324 0.4957
H4_14 H 0.4405 0.7445 0.6049
H5_18 H 0.4687 0.8162 0.5330
C4_18 C 0.63912(23) 0.95551(17) 0.72427(19)
C5_11 C 0.36999(17) 0.04192(19) 0.9122(2)
H6_11 H 0.3740 0.0939 0.9069
H7_11 H 0.3800 0.0274 0.8491
C6_11 C 0.4326(2) 0.0481(3) 0.9796(3)
H8_11 H 0.4844 0.0877 0.9564
N3_9 N 0.25598(14) 0.98872(14) 0.02312(15)
C1_15 C 0.18426(17) 0.92359(17) 0.02280(19)
C2_15 C 0.1257(2) 0.9030(2) 0.0999(2)
H1_15 H 0.1476 0.8945 0.1586
H2_15 H 0.0780 0.8529 0.0838
C3_15 C 0.1027(3) 0.9642(3) 0.1181(4)
H3_15 H 0.0658 0.9476 0.1709
H4_15 H 0.0779 0.9707 0.0617
C5_12 C 0.33860(25) 0.96335(17) 0.2456(2)
H6_12 H 0.3866 0.9594 0.2403
H7_12 H 0.3141 0.9534 0.1825
C6_12 C 0.2822(4) 0.9008(2) 0.3130(3)
H8_12 H 0.2700 0.8490 0.2898
H9_15 H 0.2338 0.9033 0.3172
H10_15 H 0.3064 0.9097 0.3754
N3_10 N 0.01128(14) 0.26725(20) 0.02312(15)
C1_16 C 0.07641(17) 0.26066(24) 0.02280(19)
C2_16 C 0.0970(2) 0.2226(3) 0.0999(2)
H1_16 H 0.1055 0.2530 0.1586
H2_16 H 0.1471 0.2250 0.0838
C3_16 C 0.0358(3) 0.1384(4) 0.1181(4)
H3_16 H 0.0524 0.1181 0.1709
H4_16 H 0.0293 0.1071 0.0617
C5_13 C 0.03665(17) 0.37526(19) 0.2456(2)
H6_13 H 0.0406 0.4273 0.2403
H7_13 H 0.0466 0.3608 0.1825
C6_13 C 0.0992(2) 0.3815(3) 0.3130(3)
H8_13 H 0.1510 0.4211 0.2898
H9_16 H 0.0967 0.3306 0.3172
H10_16 H 0.0903 0.3968 0.3754
C5_14 C 0.95808(19) 0.32806(25) 0.9122(2)
H6_14 H 0.9061 0.2800 0.9069
H7_14 H 0.9726 0.3525 0.8491
C6_14 C 0.9519(3) 0.3844(4) 0.9796(3)
H8_14 H 0.9123 0.3966 0.9564
N3_11 N 0.74402(14) 0.01128(14) 0.97688(15)
C1_17 C 0.81574(17) 0.07641(17) 0.97720(19)
C2_17 C 0.8743(2) 0.0970(2) 0.9001(2)
H1_17 H 0.8524 0.1055 0.8414
H2_17 H 0.9220 0.1471 0.9162
C3_17 C 0.8973(3) 0.0358(3) 0.8819(4)
H3_17 H 0.9342 0.0524 0.8291
H4_17 H 0.9221 0.0293 0.9383
C5_15 C 0.66140(25) 0.03665(17) 0.7544(2)
H6_15 H 0.6134 0.0406 0.7597
H7_15 H 0.6859 0.0466 0.8175
C6_15 C 0.7178(4) 0.0992(2) 0.6870(3)
H8_15 H 0.7300 0.1510 0.7102
H9_17 H 0.7662 0.0967 0.6828
H10_17 H 0.6936 0.0903 0.6246
C5_16 C 0.63001(17) 0.95808(19) 0.0878(2)
H6_16 H 0.6260 0.9061 0.0931
H7_16 H 0.6200 0.9726 0.1509
C6_16 C 0.5674(2) 0.9519(3) 0.0204(3)
H8_16 H 0.5156 0.9123 0.0436
C5_17 C 0.04192(19) 0.67194(25) 0.0878(2)
H6_17 H 0.0939 0.7200 0.0931
H7_17 H 0.0274 0.6475 0.1509
C6_17 C 0.0481(3) 0.6156(4) 0.0204(3)
H8_17 H 0.0877 0.6034 0.0436
N3_12 N 0.98872(14) 0.73275(20) 0.97688(15)
C1_18 C 0.92359(17) 0.73934(24) 0.97720(19)
C2_18 C 0.9030(2) 0.7774(3) 0.9001(2)
H1_18 H 0.8945 0.7470 0.8414
H2_18 H 0.8529 0.7750 0.9162
C3_18 C 0.9642(3) 0.8616(4) 0.8819(4)
H3_18 H 0.9476 0.8819 0.8291
H4_18 H 0.9707 0.8929 0.9383
C5_18 C 0.96335(17) 0.62474(19) 0.7544(2)
H6_18 H 0.9594 0.5727 0.7597
H7_18 H 0.9534 0.6392 0.8175
C6_18 C 0.9008(2) 0.6185(3) 0.6870(3)
H8_18 H 0.8490 0.5789 0.7102
H9_18 H 0.9033 0.6694 0.6828
H10_18 H 0.9097 0.6032 0.6246
loop_
_geom_bond_atom_site_label_1
_geom_bond_atom_site_label_2
_geom_bond_site_symmetry_1
_geom_bond_site_symmetry_2
Cu1 N2 1_555 1_555
N1 N2 1_555 1_555
N2 C4 1_555 1_555
N3 C1 1_555 1_555
C1 N1 1_555 1_555
C2 C1 1_555 1_555
H1 C2 1_555 1_555
H2 C2 1_555 1_555
C3 C2 1_555 1_555
H3 C3 1_555 1_555
H4 C3 1_555 1_555
H5 C3 1_555 1_555
C4 N3 1_555 1_555
C5 C4 1_555 1_555
H6 C5 1_555 1_555
H7 C5 1_555 1_555
C6 C5 1_555 1_555
H8 C6 1_555 1_555
H9 C6 1_555 1_555
H10 C6 1_555 1_555
Cu2 N1 1_555 1_555
Cu3 N3 1_555 1_555
N4 Cu1 1_555 1_555
N5 Cu1 1_555 1_555
H8_2 C6_2 1_555 1_555
H9_2 C6_2 1_555 1_555
H10_2 C6_2 1_555 1_555
N4_2 Cu1_2 1_555 1_555
N5_2 Cu1_2 1_555 1_555
N1_2 N2_2 1_555 1_555
N2_2 C4_2 1_555 1_555
N3_2 C1_2 1_555 1_555
C1_2 N1_2 1_555 1_555
C2_2 C1_2 1_555 1_555
H1_2 C2_2 1_555 1_555
H2_2 C2_2 1_555 1_555
C3_2 C2_2 1_555 1_555
H3_2 C3_2 1_555 1_555
H4_2 C3_2 1_555 1_555
H5_2 C3_2 1_555 1_555
C4_2 N3_2 1_555 1_555
C5_2 C4_2 1_555 1_555
H6_2 C5_2 1_555 1_555
Cu2_2 N1_2 1_555 1_555
Cu3_2 N3_2 1_555 1_555
N1_3 N2_3 1_555 1_555
N2_3 C4_3 1_555 1_555
N3_3 C1_3 1_555 1_555
C1_3 N1_3 1_555 1_555
C2_3 C1_3 1_555 1_555
H1_3 C2_3 1_555 1_555
H2_3 C2_3 1_555 1_555
C3_3 C2_3 1_555 1_555
H3_3 C3_3 1_555 1_555
H4_3 C3_3 1_555 1_555
H5_3 C3_3 1_555 1_555
C4_3 N3_3 1_555 1_555
C5_3 C4_3 1_555 1_555
H6_3 C5_3 1_555 1_555
Cu2_3 N1_3 1_555 1_555
Cu3_3 N3_3 1_555 1_555
H8_3 C6_3 1_555 1_555
H9_3 C6_3 1_555 1_555
H10_3 C6_3 1_555 1_555
N4_3 Cu1_3 1_555 1_555
N5_3 Cu1_3 1_555 1_555
Cu3_2 N2_4 1_555 1_555
N1_4 N2_4 1_555 1_555
N2_4 C4_4 1_555 1_555
Cu2_4 N1_4 1_555 1_555
N4_4 Cu3_2 1_555 1_555
Cu3_3 N2_5 1_555 1_555
N1_5 N2_5 1_555 1_555
N2_5 C4_5 1_555 1_555
Cu2_5 N1_5 1_555 1_555
N4_5 Cu3_3 1_555 1_555
N3_4 C1_4 1_555 1_555
C2_4 C1_4 1_555 1_555
H1_4 C2_4 1_555 1_555
H2_4 C2_4 1_555 1_555
C3_4 C2_4 1_555 1_555
H3_4 C3_4 1_555 1_555
H4_4 C3_4 1_555 1_555
H5_6 C3_4 1_555 1_555
Cu3_6 N3_4 1_555 1_555
Cu3 N2_6 1_555 1_555
N1_6 N2_6 1_555 1_555
N2_6 C4_6 1_555 1_555
C5_4 C4_6 1_555 1_555
H6_4 C5_4 1_555 1_555
H7_4 C5_4 1_555 1_555
C6_4 C5_4 1_555 1_555
H8_4 C6_4 1_555 1_555
H9_6 C6_4 1_555 1_555
Cu2_6 N1_6 1_555 1_555
N4_6 Cu3 1_555 1_555
Cu3_5 N2_7 1_555 1_555
N1_7 N2_7 1_555 1_555
N2_7 C4_7 1_555 1_555
N5_3 C1_5 1_555 1_555
C1_5 N1_7 1_555 1_555
C2_5 C1_5 1_555 1_555
H1_5 C2_5 1_555 1_555
H2_5 C2_5 1_555 1_555
C3_5 C2_5 1_555 1_555
H3_5 C3_5 1_555 1_555
H4_5 C3_5 1_555 1_555
H5_7 C3_5 1_555 1_555
C4_7 N5_3 1_555 1_555
Cu2_7 N1_7 1_555 1_555
N4_7 Cu3_5 1_555 1_555
Cu3_6 N2_8 1_555 1_555
N1_8 N2_8 1_555 1_555
N2_8 C4_8 1_555 1_555
N5 C1_6 1_555 1_555
C1_6 N1_8 1_555 1_555
C2_6 C1_6 1_555 1_555
H1_6 C2_6 1_555 1_555
H2_6 C2_6 1_555 1_555
C3_6 C2_6 1_555 1_555
H3_6 C3_6 1_555 1_555
H4_6 C3_6 1_555 1_555
H5_8 C3_6 1_555 1_555
C4_8 N5 1_555 1_555
C5_5 C4_8 1_555 1_555
H6_5 C5_5 1_555 1_555
H7_5 C5_5 1_555 1_555
C6_5 C5_5 1_555 1_555
H8_5 C6_5 1_555 1_555
H9_7 C6_5 1_555 1_555
H10_7 C6_5 1_555 1_555
Cu2_8 N1_8 1_555 1_555
N4_8 Cu3_6 1_555 1_555
Cu3_4 N2_9 1_555 1_555
N1_9 N2_9 1_555 1_555
N2_9 C4_9 1_555 1_555
N5_2 C1_7 1_555 1_555
C1_7 N1_9 1_555 1_555
C2_7 C1_7 1_555 1_555
H1_7 C2_7 1_555 1_555
H2_7 C2_7 1_555 1_555
C3_7 C2_7 1_555 1_555
H3_7 C3_7 1_555 1_555
H4_7 C3_7 1_555 1_555
H5_9 C3_7 1_555 1_555
C4_9 N5_2 1_555 1_555
Cu2_9 N1_9 1_555 1_555
N4_9 Cu3_4 1_555 1_555
Cu2 N2_10 1_555 1_555
N4 N2_10 1_555 1_555
N2_10 C4_10 1_555 1_555
N3_5 C1_8 1_555 1_555
C1_8 N4 1_555 1_555
C2_8 C1_8 1_555 1_555
H1_8 C2_8 1_555 1_555
H2_8 C2_8 1_555 1_555
C3_8 C2_8 1_555 1_555
H3_8 C3_8 1_555 1_555
H4_8 C3_8 1_555 1_555
H5_10 C3_8 1_555 1_555
C4_10 N3_5 1_555 1_555
C5_6 C4_10 1_555 1_555
H6_6 C5_6 1_555 1_555
H7_6 C5_6 1_555 1_555
C6_6 C5_6 1_555 1_555
H8_6 C6_6 1_555 1_555
H9_8 C6_6 1_555 1_555
H10_8 C6_6 1_555 1_555
Cu2_9 N3_5 1_555 1_555
N5_4 Cu2 1_555 1_555
N4_2 N2_11 1_555 1_555
N2_11 C4_11 1_555 1_555
N3_6 C1_9 1_555 1_555
C1_9 N4_2 1_555 1_555
C2_9 C1_9 1_555 1_555
H1_9 C2_9 1_555 1_555
H2_9 C2_9 1_555 1_555
C3_9 C2_9 1_555 1_555
H3_9 C3_9 1_555 1_555
H4_9 C3_9 1_555 1_555
H5_11 C3_9 1_555 1_555
C4_11 N3_6 1_555 1_555
C5_7 C4_11 1_555 1_555
H6_7 C5_7 1_555 1_555
Cu2_7 N3_6 1_555 1_555
H8_7 C6_7 1_555 1_555
H9_9 C6_7 1_555 1_555
H10_9 C6_7 1_555 1_555
N5_5 Cu2_2 1_555 1_555
H8_8 C6_8 1_555 1_555
H9_10 C6_8 1_555 1_555
H10_10 C6_8 1_555 1_555
N5_6 Cu2_3 1_555 1_555
N4_3 N2_12 1_555 1_555
N2_12 C4_12 1_555 1_555
N3_7 C1_10 1_555 1_555
C1_10 N4_3 1_555 1_555
C2_10 C1_10 1_555 1_555
H1_10 C2_10 1_555 1_555
H2_10 C2_10 1_555 1_555
C3_10 C2_10 1_555 1_555
H3_10 C3_10 1_555 1_555
H4_10 C3_10 1_555 1_555
H5_12 C3_10 1_555 1_555
C4_12 N3_7 1_555 1_555
C5_8 C4_12 1_555 1_555
H6_8 C5_8 1_555 1_555
Cu2_8 N3_7 1_555 1_555
Cu2_7 N2_13 1_555 1_555
N4_7 N2_13 1_555 1_555
N2_13 C4_13 1_555 1_555
Cu2_8 N2_14 1_555 1_555
N4_8 N2_14 1_555 1_555
N2_14 C4_14 1_555 1_555
Cu2_9 N2_15 1_555 1_555
N4_9 N2_15 1_555 1_555
N2_15 C4_15 1_555 1_555
C5_9 C4_15 1_555 1_555
H6_9 C5_9 1_555 1_555
H7_9 C5_9 1_555 1_555
C6_9 C5_9 1_555 1_555
H8_9 C6_9 1_555 1_555
H9_13 C6_9 1_555 1_555
N3_8 C1_11 1_555 1_555
C2_11 C1_11 1_555 1_555
H1_11 C2_11 1_555 1_555
H2_11 C2_11 1_555 1_555
C3_11 C2_11 1_555 1_555
H3_11 C3_11 1_555 1_555
H4_11 C3_11 1_555 1_555
H5_15 C3_11 1_555 1_555
Cu2_5 N3_8 1_555 1_555
Cu2_4 N2_16 1_555 1_555
N4_4 N2_16 1_555 1_555
N2_16 C4_16 1_555 1_555
N5_6 C1_12 1_555 1_555
C1_12 N4_4 1_555 1_555
C2_12 C1_12 1_555 1_555
H1_12 C2_12 1_555 1_555
H2_12 C2_12 1_555 1_555
C3_12 C2_12 1_555 1_555
H3_12 C3_12 1_555 1_555
H4_12 C3_12 1_555 1_555
H5_16 C3_12 1_555 1_555
C4_16 N5_6 1_555 1_555
Cu2_5 N2_17 1_555 1_555
N4_5 N2_17 1_555 1_555
N2_17 C4_17 1_555 1_555
N5_4 C1_13 1_555 1_555
C1_13 N4_5 1_555 1_555
C2_13 C1_13 1_555 1_555
H1_13 C2_13 1_555 1_555
H2_13 C2_13 1_555 1_555
C3_13 C2_13 1_555 1_555
H3_13 C3_13 1_555 1_555
H4_13 C3_13 1_555 1_555
H5_17 C3_13 1_555 1_555
C4_17 N5_4 1_555 1_555
C5_10 C4_17 1_555 1_555
H6_10 C5_10 1_555 1_555
H7_10 C5_10 1_555 1_555
C6_10 C5_10 1_555 1_555
H8_10 C6_10 1_555 1_555
H9_14 C6_10 1_555 1_555
H10_14 C6_10 1_555 1_555
Cu2_6 N2_18 1_555 1_555
N4_6 N2_18 1_555 1_555
N2_18 C4_18 1_555 1_555
N5_5 C1_14 1_555 1_555
C1_14 N4_6 1_555 1_555
C2_14 C1_14 1_555 1_555
H1_14 C2_14 1_555 1_555
H2_14 C2_14 1_555 1_555
C3_14 C2_14 1_555 1_555
H3_14 C3_14 1_555 1_555
H4_14 C3_14 1_555 1_555
H5_18 C3_14 1_555 1_555
C4_18 N5_5 1_555 1_555
H6_11 C5_11 1_555 1_555
H7_11 C5_11 1_555 1_555
C6_11 C5_11 1_555 1_555
H8_11 C6_11 1_555 1_555
N3_9 C1_15 1_555 1_555
C2_15 C1_15 1_555 1_555
H1_15 C2_15 1_555 1_555
H2_15 C2_15 1_555 1_555
C3_15 C2_15 1_555 1_555
H3_15 C3_15 1_555 1_555
H4_15 C3_15 1_555 1_555
H6_12 C5_12 1_555 1_555
H7_12 C5_12 1_555 1_555
C6_12 C5_12 1_555 1_555
H8_12 C6_12 1_555 1_555
H9_15 C6_12 1_555 1_555
H10_15 C6_12 1_555 1_555
N3_10 C1_16 1_555 1_555
C2_16 C1_16 1_555 1_555
H1_16 C2_16 1_555 1_555
H2_16 C2_16 1_555 1_555
C3_16 C2_16 1_555 1_555
H3_16 C3_16 1_555 1_555
H4_16 C3_16 1_555 1_555
H6_13 C5_13 1_555 1_555
H7_13 C5_13 1_555 1_555
C6_13 C5_13 1_555 1_555
H8_13 C6_13 1_555 1_555
H9_16 C6_13 1_555 1_555
H10_16 C6_13 1_555 1_555
H6_14 C5_14 1_555 1_555
H7_14 C5_14 1_555 1_555
C6_14 C5_14 1_555 1_555
H8_14 C6_14 1_555 1_555
N3_11 C1_17 1_555 1_555
C2_17 C1_17 1_555 1_555
H1_17 C2_17 1_555 1_555
H2_17 C2_17 1_555 1_555
C3_17 C2_17 1_555 1_555
H3_17 C3_17 1_555 1_555
H4_17 C3_17 1_555 1_555
H6_15 C5_15 1_555 1_555
H7_15 C5_15 1_555 1_555
C6_15 C5_15 1_555 1_555
H8_15 C6_15 1_555 1_555
H9_17 C6_15 1_555 1_555
H10_17 C6_15 1_555 1_555
H6_16 C5_16 1_555 1_555
H7_16 C5_16 1_555 1_555
C6_16 C5_16 1_555 1_555
H8_16 C6_16 1_555 1_555
H6_17 C5_17 1_555 1_555
H7_17 C5_17 1_555 1_555
C6_17 C5_17 1_555 1_555
H8_17 C6_17 1_555 1_555
N3_12 C1_18 1_555 1_555
C2_18 C1_18 1_555 1_555
H1_18 C2_18 1_555 1_555
H2_18 C2_18 1_555 1_555
C3_18 C2_18 1_555 1_555
H3_18 C3_18 1_555 1_555
H4_18 C3_18 1_555 1_555
H6_18 C5_18 1_555 1_555
H7_18 C5_18 1_555 1_555
C6_18 C5_18 1_555 1_555
H8_18 C6_18 1_555 1_555
H9_18 C6_18 1_555 1_555
H10_18 C6_18 1_555 1_555

#END
