
###############################################################################
#
# This file contains modified crystal structure data generated from the
# MOF subset of the Cambridge Structural Database (CSD) v543 
# hosted by the Cambridge Crystallographic Data Centre (CCDC).
#
# This work is licensed under the Creative Commons
# Attribution-NonCommercial-ShareAlike 4.0 International License.
# To view a copy of this license, visit
# http://creativecommons.org/licenses/by-nc-sa/4.0/
# or send a letter to
# Creative Commons, PO Box 1866, Mountain View, CA 94042, USA.
#
# CIF created using the CSD Python API on 29 September 2022
# The structure has been converted into the P1 space group
# The structure has a 3D framework
# The original CSD entry BOGXIF03 is in the rhombohedral crystal system
# The framework has been calculated to contain at least 10.0% void space
# The void calculation uses a probe of radius 1.32A, grid spacing 0.4
#
###############################################################################

data_BOGXIF03
_chemical_formula_moiety         '(C108 H180 Cu18 N54)n'
_symmetry_cell_setting           triclinic
_symmetry_space_group_name_H-M   'P 1'
_symmetry_Int_Tables_number      1
_space_group_name_Hall           'P 1'
loop_
_symmetry_equiv_pos_site_id
_symmetry_equiv_pos_as_xyz
1 x,y,z
_cell_length_a                   19.6809(3)
_cell_length_b                   19.6809(3)
_cell_length_c                   14.1877(3)
_cell_angle_alpha                90
_cell_angle_beta                 90
_cell_angle_gamma                120
_cell_volume                     4759.18
loop_
_atom_site_label
_atom_site_type_symbol
_atom_site_fract_x
_atom_site_fract_y
_atom_site_fract_z
Cu1 Cu 0.41326(2) 0.45191(2) 0.55885(3)
N1 N 0.50406(13) 0.54687(14) 0.61271(16)
N2 N 0.57430(13) 0.58463(13) 0.56422(16)
N3 N 0.58658(14) 0.65254(13) 0.69363(15)
C1 C 0.62116(16) 0.64640(15) 0.61455(19)
C2 C 0.7034(2) 0.7046(2) 0.5869(3)
H1 H 0.7084 0.7560 0.5815
H2 H 0.7144 0.6904 0.5257
C3 C 0.7636(3) 0.7084(5) 0.6584(5)
H3 H 0.7555 0.7265 0.7179
H4 H 0.8155 0.7441 0.6360
H5 H 0.7574 0.6572 0.6659
C4 C 0.51452(17) 0.58933(16) 0.6895(2)
C5 C 0.4537(3) 0.5682(3) 0.7643(3)
H6 H 0.4055 0.5231 0.7425
H7 H 0.4706 0.5520 0.8199
C6 C 0.4357(5) 0.6281(5) 0.7923(7)
H8 H 0.4061 0.6127 0.8498
H9 H 0.4055 0.6347 0.7437
H10 H 0.4837 0.6768 0.8018
Cu2 Cu 0.58674(2) 0.54809(2) 0.44115(3)
Cu3 Cu 0.62802(3) 0.74659(2) 0.77448(3)
N4 N 0.42570(13) 0.41537(13) 0.43578(16)
N5 N 0.31921(13) 0.39929(19) 0.63970(15)
H2_2 H 0.3096 0.0240 0.5257
C3_2 C 0.2916(5) 0.0552(6) 0.6584(5)
H3_2 H 0.2735 0.0290 0.7179
H4_2 H 0.2559 0.0714 0.6360
H5_2 H 0.3428 0.1002 0.6659
Cu2_2 Cu 0.45191(2) 0.03865(3) 0.44115(3)
N4_2 N 0.58463(13) 0.01033(18) 0.43578(16)
Cu1_2 Cu 0.54809(2) 0.96135(3) 0.55885(3)
N1_2 N 0.45313(14) 0.95719(19) 0.61271(16)
N2_2 N 0.41537(13) 0.98967(18) 0.56422(16)
N3_2 N 0.34746(13) 0.93404(19) 0.69363(15)
C1_2 C 0.35360(15) 0.97476(22) 0.61455(19)
C2_2 C 0.2954(2) 0.9988(3) 0.5869(3)
H1_2 H 0.2440 0.9524 0.5815
C4_2 C 0.41067(16) 0.92519(23) 0.6895(2)
C5_2 C 0.4318(3) 0.8855(4) 0.7643(3)
H6_2 H 0.4769 0.8824 0.7425
H7_2 H 0.4480 0.9186 0.8199
C6_2 C 0.3719(5) 0.8076(7) 0.7923(7)
H8_2 H 0.3873 0.7934 0.8498
H9_2 H 0.3653 0.7708 0.7437
H10_2 H 0.3232 0.8069 0.8018
Cu3_2 Cu 0.25341(2) 0.88142(4) 0.77448(3)
N5_2 N 0.60071(19) 0.91991(23) 0.63970(15)
Cu1_3 Cu 0.03865(3) 0.58674(2) 0.55885(3)
N1_3 N 0.04281(19) 0.49594(13) 0.61271(16)
N2_3 N 0.01033(18) 0.42570(13) 0.56422(16)
N3_3 N 0.06596(19) 0.41342(14) 0.69363(15)
C1_3 C 0.02524(22) 0.37884(16) 0.61455(19)
C2_3 C 0.0012(3) 0.2966(2) 0.5869(3)
H1_3 H 0.0476 0.2916 0.5815
C4_3 C 0.07481(23) 0.48548(17) 0.6895(2)
C5_3 C 0.1145(4) 0.5463(3) 0.7643(3)
H6_3 H 0.1176 0.5945 0.7425
H7_3 H 0.0814 0.5294 0.8199
C6_3 C 0.1924(7) 0.5643(5) 0.7923(7)
H8_3 H 0.2066 0.5939 0.8498
H9_3 H 0.2292 0.5945 0.7437
H10_3 H 0.1931 0.5163 0.8018
Cu3_3 Cu 0.11858(4) 0.37198(3) 0.77448(3)
N5_3 N 0.08009(23) 0.68079(13) 0.63970(15)
H2_3 H 0.9760 0.2856 0.5257
C3_3 C 0.9448(6) 0.2364(3) 0.6584(5)
H3_3 H 0.9710 0.2445 0.7179
H4_3 H 0.9286 0.1845 0.6360
H5_3 H 0.8998 0.2426 0.6659
Cu2_3 Cu 0.96135(3) 0.41326(2) 0.44115(3)
N4_3 N 0.98967(18) 0.57430(13) 0.43578(16)
H3_4 H 0.4222 0.0598 0.0512
H10_4 H 0.1504 0.0101 0.1351
Cu3_4 Cu 0.29468(3) 0.07993(2) 0.10782(3)
Cu1_4 Cu 0.07993(2) 0.78524(2) 0.89218(3)
N1_4 N 0.17073(13) 0.88020(14) 0.94604(16)
N2_4 N 0.24097(13) 0.91796(13) 0.89755(16)
C1_4 C 0.28783(16) 0.97973(15) 0.94788(19)
H5_4 H 0.4241 0.9905 0.9992
N4_4 N 0.09237(13) 0.74870(13) 0.76911(16)
Cu1_5 Cu 0.21476(2) 0.29468(3) 0.89218(3)
N1_5 N 0.11980(14) 0.29052(19) 0.94604(16)
N2_5 N 0.08204(13) 0.32300(18) 0.89755(16)
C1_5 C 0.02027(15) 0.30809(22) 0.94788(19)
H5_5 H 0.0095 0.4335 0.9992
N4_5 N 0.25130(13) 0.34366(18) 0.76911(16)
N5_4 N 0.26737(19) 0.25325(23) 0.97304(15)
H3_5 H 0.9402 0.3623 0.0512
H10_5 H 0.9899 0.1402 0.1351
Cu3_5 Cu 0.92007(2) 0.21476(4) 0.10782(3)
N3_4 N 0.73263(19) 0.74675(14) 0.02696(15)
H3_6 H 0.6377 0.5778 0.0512
C4_4 C 0.74148(23) 0.81881(17) 0.0228(2)
C5_4 C 0.7812(4) 0.8796(3) 0.0976(3)
H6_4 H 0.7843 0.9278 0.0758
H7_4 H 0.7481 0.8627 0.1532
C6_4 C 0.8591(7) 0.8976(5) 0.1256(7)
H8_4 H 0.8733 0.9272 0.1831
H9_4 H 0.8959 0.9278 0.0770
H10_6 H 0.8598 0.8496 0.1351
Cu3_6 Cu 0.78524(4) 0.70532(3) 0.10782(3)
Cu1_6 Cu 0.70532(3) 0.92007(2) 0.89218(3)
N1_6 N 0.70948(19) 0.82927(13) 0.94604(16)
N2_6 N 0.67700(18) 0.75903(13) 0.89755(16)
C1_6 C 0.69191(22) 0.71217(16) 0.94788(19)
C2_4 C 0.6679(3) 0.6299(2) 0.9202(3)
H1_4 H 0.7143 0.6249 0.9148
H2_4 H 0.6427 0.6189 0.8590
C3_4 C 0.6115(6) 0.5697(3) 0.9917(5)
H4_4 H 0.5953 0.5178 0.9693
H5_6 H 0.5665 0.5759 0.9992
N4_6 N 0.65634(18) 0.90763(13) 0.76911(16)
Cu1_7 Cu 0.74659(2) 0.11858(2) 0.22552(3)
N1_7 N 0.83739(13) 0.21354(14) 0.27938(16)
N2_7 N 0.90763(13) 0.25130(13) 0.23089(16)
N3_5 N 0.91991(14) 0.31921(13) 0.36030(15)
C1_7 C 0.95449(16) 0.31307(15) 0.28122(19)
C4_5 C 0.84785(17) 0.25600(16) 0.3562(2)
C5_5 C 0.7870(3) 0.2349(3) 0.4310(3)
H6_5 H 0.7388 0.1898 0.4092
H7_5 H 0.8039 0.2187 0.4866
C6_5 C 0.7690(5) 0.2948(5) 0.4590(7)
H8_5 H 0.7394 0.2794 0.5165
H9_5 H 0.7388 0.3014 0.4104
H10_7 H 0.8170 0.3435 0.4685
N4_7 N 0.75903(13) 0.08204(13) 0.10245(16)
N5_5 N 0.65254(13) 0.06596(19) 0.30637(15)
Cu1_8 Cu 0.88142(2) 0.62802(3) 0.22552(3)
N1_8 N 0.78646(14) 0.62386(19) 0.27938(16)
N2_8 N 0.74870(13) 0.65634(18) 0.23089(16)
N3_6 N 0.68079(13) 0.60071(19) 0.36030(15)
C1_8 C 0.68693(15) 0.64143(22) 0.28122(19)
C2_5 C 0.6287(2) 0.6655(3) 0.2536(3)
H1_5 H 0.5773 0.6191 0.2482
H2_5 H 0.6429 0.6907 0.1924
C3_5 C 0.6249(5) 0.7219(6) 0.3251(5)
H3_7 H 0.6068 0.6957 0.3846
H4_5 H 0.5892 0.7381 0.3027
H5_7 H 0.6761 0.7669 0.3326
C4_6 C 0.74400(16) 0.59186(23) 0.3562(2)
C5_6 C 0.7651(3) 0.5522(4) 0.4310(3)
H6_6 H 0.8102 0.5491 0.4092
H7_6 H 0.7813 0.5853 0.4866
C6_6 C 0.7052(5) 0.4743(7) 0.4590(7)
H8_6 H 0.7206 0.4601 0.5165
H9_6 H 0.6986 0.4375 0.4104
H10_8 H 0.6565 0.4736 0.4685
N4_8 N 0.91796(13) 0.67700(18) 0.10245(16)
N5_6 N 0.93404(19) 0.58658(23) 0.30637(15)
Cu1_9 Cu 0.37198(3) 0.25341(2) 0.22552(3)
N1_9 N 0.37614(19) 0.16261(13) 0.27938(16)
N2_9 N 0.34366(18) 0.09237(13) 0.23089(16)
N3_7 N 0.39929(19) 0.08009(14) 0.36030(15)
C1_9 C 0.35857(22) 0.04551(16) 0.28122(19)
C4_7 C 0.40814(23) 0.15215(17) 0.3562(2)
C5_7 C 0.4478(4) 0.2130(3) 0.4310(3)
H6_7 H 0.4509 0.2612 0.4092
H7_7 H 0.4147 0.1961 0.4866
C6_7 C 0.5257(7) 0.2310(5) 0.4590(7)
H8_7 H 0.5399 0.2606 0.5165
H9_7 H 0.5625 0.2612 0.4104
H10_9 H 0.5264 0.1830 0.4685
N4_9 N 0.32300(18) 0.24097(13) 0.10245(16)
N5_7 N 0.41342(23) 0.34746(13) 0.30637(15)
N1_10 N 0.49594(13) 0.45313(14) 0.38729(16)
C1_10 C 0.37884(16) 0.35360(15) 0.38545(19)
C2_6 C 0.2966(2) 0.2954(2) 0.4131(3)
H1_6 H 0.2916 0.2440 0.4185
H2_6 H 0.2856 0.3096 0.4743
C3_6 C 0.2364(3) 0.2916(5) 0.3416(5)
H3_8 H 0.2445 0.2735 0.2821
H4_6 H 0.1845 0.2559 0.3640
H5_8 H 0.2426 0.3428 0.3341
C4_8 C 0.48548(17) 0.41067(16) 0.3105(2)
C5_8 C 0.5463(3) 0.4318(3) 0.2357(3)
H6_8 H 0.5945 0.4769 0.2575
H7_8 H 0.5294 0.4480 0.1801
C6_8 C 0.5643(5) 0.3719(5) 0.2077(7)
H8_8 H 0.5939 0.3873 0.1502
H9_8 H 0.5945 0.3653 0.2563
H10_10 H 0.5163 0.3232 0.1982
N1_11 N 0.54687(14) 0.04281(19) 0.38729(16)
C1_11 C 0.64640(15) 0.02524(22) 0.38545(19)
C2_7 C 0.7046(2) 0.0012(3) 0.4131(3)
H1_7 H 0.7560 0.0476 0.4185
C4_9 C 0.58933(16) 0.07481(23) 0.3105(2)
C5_9 C 0.5682(3) 0.1145(4) 0.2357(3)
H6_9 H 0.5231 0.1176 0.2575
H7_9 H 0.5520 0.0814 0.1801
C6_9 C 0.6281(5) 0.1924(7) 0.2077(7)
H8_9 H 0.6127 0.2066 0.1502
H9_9 H 0.6347 0.2292 0.2563
H10_11 H 0.6768 0.1931 0.1982
H2_7 H 0.6904 0.9760 0.4743
C3_7 C 0.7084(5) 0.9448(6) 0.3416(5)
H3_9 H 0.7265 0.9710 0.2821
H4_7 H 0.7441 0.9286 0.3640
H5_9 H 0.6572 0.8998 0.3341
H2_8 H 0.0240 0.7144 0.4743
C3_8 C 0.0552(6) 0.7636(3) 0.3416(5)
H3_10 H 0.0290 0.7555 0.2821
H4_8 H 0.0714 0.8155 0.3640
H5_10 H 0.1002 0.7574 0.3341
N1_12 N 0.95719(19) 0.50406(13) 0.38729(16)
C1_12 C 0.97476(22) 0.62116(16) 0.38545(19)
C2_8 C 0.9988(3) 0.7034(2) 0.4131(3)
H1_8 H 0.9524 0.7084 0.4185
C4_10 C 0.92519(23) 0.51452(17) 0.3105(2)
C5_10 C 0.8855(4) 0.4537(3) 0.2357(3)
H6_10 H 0.8824 0.4055 0.2575
H7_10 H 0.9186 0.4706 0.1801
C6_10 C 0.8076(7) 0.4357(5) 0.2077(7)
H8_10 H 0.7934 0.4061 0.1502
H9_10 H 0.7708 0.4055 0.2563
H10_12 H 0.8069 0.4837 0.1982
N1_13 N 0.82927(13) 0.11980(14) 0.05396(16)
C1_13 C 0.71217(16) 0.02027(15) 0.05212(19)
H5_11 H 0.5759 0.0095 0.0008
H3_11 H 0.5778 0.9402 0.9488
H10_13 H 0.8496 0.9899 0.8649
H3_12 H 0.0598 0.6377 0.9488
H10_14 H 0.0101 0.8598 0.8649
N1_14 N 0.88020(14) 0.70948(19) 0.05396(16)
C1_14 C 0.97973(15) 0.69191(22) 0.05212(19)
H5_12 H 0.9905 0.5665 0.0008
N1_15 N 0.29052(19) 0.17073(13) 0.05396(16)
C1_15 C 0.30809(22) 0.28783(16) 0.05212(19)
C2_9 C 0.3321(3) 0.3701(2) 0.0798(3)
H1_9 H 0.2857 0.3751 0.0852
H2_9 H 0.3573 0.3811 0.1410
C3_9 C 0.3885(6) 0.4303(3) 0.0083(5)
H4_9 H 0.4047 0.4822 0.0307
H5_13 H 0.4335 0.4241 0.0008
H3_13 H 0.3623 0.4222 0.9488
C4_11 C 0.25852(23) 0.18119(17) 0.9772(2)
C5_11 C 0.2188(4) 0.1204(3) 0.9024(3)
H6_11 H 0.2157 0.0722 0.9242
H7_11 H 0.2519 0.1373 0.8468
C6_11 C 0.1409(7) 0.1024(5) 0.8744(7)
H8_11 H 0.1267 0.0728 0.8169
H9_11 H 0.1041 0.0722 0.9230
H10_15 H 0.1402 0.1504 0.8649
N1_16 N 0.16261(13) 0.78646(14) 0.72062(16)
C1_16 C 0.04551(16) 0.68693(15) 0.71878(19)
C4_12 C 0.15215(17) 0.74400(16) 0.6438(2)
C5_12 C 0.2130(3) 0.7651(3) 0.5690(3)
H6_12 H 0.2612 0.8102 0.5908
H7_12 H 0.1961 0.7813 0.5134
C6_12 C 0.2310(5) 0.7052(5) 0.5410(7)
H8_12 H 0.2606 0.7206 0.4835
H9_12 H 0.2612 0.6986 0.5896
H10_16 H 0.1830 0.6565 0.5315
N1_17 N 0.21354(14) 0.37614(19) 0.72062(16)
C1_17 C 0.31307(15) 0.35857(22) 0.71878(19)
C2_10 C 0.3713(2) 0.3345(3) 0.7464(3)
H1_10 H 0.4227 0.3809 0.7518
H2_10 H 0.3571 0.3093 0.8076
C3_10 C 0.3751(5) 0.2781(6) 0.6749(5)
H3_14 H 0.3932 0.3043 0.6154
H4_10 H 0.4108 0.2619 0.6973
H5_14 H 0.3239 0.2331 0.6674
C4_13 C 0.25600(16) 0.40814(23) 0.6438(2)
C5_13 C 0.2349(3) 0.4478(4) 0.5690(3)
H6_13 H 0.1898 0.4509 0.5908
H7_13 H 0.2187 0.4147 0.5134
C6_13 C 0.2948(5) 0.5257(7) 0.5410(7)
H8_13 H 0.2794 0.5399 0.4835
H9_13 H 0.3014 0.5625 0.5896
H10_17 H 0.3435 0.5264 0.5315
N1_18 N 0.62386(19) 0.83739(13) 0.72062(16)
C1_18 C 0.64143(22) 0.95449(16) 0.71878(19)
C4_14 C 0.59186(23) 0.84785(17) 0.6438(2)
C5_14 C 0.5522(4) 0.7870(3) 0.5690(3)
H6_14 H 0.5491 0.7388 0.5908
H7_14 H 0.5853 0.8039 0.5134
C6_14 C 0.4743(7) 0.7690(5) 0.5410(7)
H8_14 H 0.4601 0.7394 0.4835
H9_14 H 0.4375 0.7388 0.5896
H10_18 H 0.4736 0.8170 0.5315
C2_11 C 0.3701(2) 0.0379(2) 0.9202(3)
H1_11 H 0.3751 0.0893 0.9148
H2_11 H 0.3811 0.0237 0.8590
C3_11 C 0.4303(3) 0.0417(5) 0.9917(5)
H4_11 H 0.4822 0.0774 0.9693
N3_8 N 0.25325(14) 0.98587(13) 0.02696(15)
C4_15 C 0.18119(17) 0.92266(16) 0.0228(2)
C5_15 C 0.1204(3) 0.9015(3) 0.0976(3)
H6_15 H 0.0722 0.8564 0.0758
H7_15 H 0.1373 0.8853 0.1532
C6_15 C 0.1024(5) 0.9614(5) 0.1256(7)
H8_15 H 0.0728 0.9460 0.1831
H9_15 H 0.0722 0.9680 0.0770
N5_8 N 0.98587(13) 0.73263(19) 0.97304(15)
C4_16 C 0.92266(16) 0.74148(23) 0.9772(2)
C5_16 C 0.9015(3) 0.7812(4) 0.9024(3)
H6_16 H 0.8564 0.7843 0.9242
H7_16 H 0.8853 0.7481 0.8468
C6_16 C 0.9614(5) 0.8591(7) 0.8744(7)
H8_16 H 0.9460 0.8733 0.8169
H9_16 H 0.9680 0.8959 0.9230
N3_9 N 0.01413(13) 0.26737(19) 0.02696(15)
C4_17 C 0.07734(16) 0.25852(23) 0.0228(2)
C5_17 C 0.0985(3) 0.2188(4) 0.0976(3)
H6_17 H 0.1436 0.2157 0.0758
H7_17 H 0.1147 0.2519 0.1532
C6_17 C 0.0386(5) 0.1409(7) 0.1256(7)
H8_17 H 0.0540 0.1267 0.1831
H9_17 H 0.0320 0.1041 0.0770
C2_12 C 0.9621(2) 0.3321(3) 0.9202(3)
H1_12 H 0.9107 0.2857 0.9148
H2_12 H 0.9763 0.3573 0.8590
C3_12 C 0.9583(5) 0.3885(6) 0.9917(5)
H4_12 H 0.9226 0.4047 0.9693
N5_9 N 0.74675(23) 0.01413(13) 0.97304(15)
C4_18 C 0.81881(17) 0.07734(16) 0.9772(2)
C5_18 C 0.8796(3) 0.0985(3) 0.9024(3)
H6_18 H 0.9278 0.1436 0.9242
H7_18 H 0.8627 0.1147 0.8468
C6_18 C 0.8976(5) 0.0386(5) 0.8744(7)
H8_18 H 0.9272 0.0540 0.8169
H9_18 H 0.9278 0.0320 0.9230
C2_13 C 0.0367(2) 0.3713(2) 0.2536(3)
H1_13 H 0.0417 0.4227 0.2482
H2_13 H 0.0477 0.3571 0.1924
C3_13 C 0.0969(3) 0.3751(5) 0.3251(5)
H3_15 H 0.0888 0.3932 0.3846
H4_13 H 0.1488 0.4108 0.3027
H5_15 H 0.0907 0.3239 0.3326
C2_14 C 0.3345(3) 0.9633(2) 0.2536(3)
H1_14 H 0.3809 0.9583 0.2482
H2_14 H 0.3093 0.9523 0.1924
C3_14 C 0.2781(6) 0.9031(3) 0.3251(5)
H3_16 H 0.3043 0.9112 0.3846
H4_14 H 0.2619 0.8512 0.3027
H5_16 H 0.2331 0.9093 0.3326
C2_15 C 0.6299(2) 0.9621(2) 0.0798(3)
H1_15 H 0.6249 0.9107 0.0852
H2_15 H 0.6189 0.9763 0.1410
C3_15 C 0.5697(3) 0.9583(5) 0.0083(5)
H4_15 H 0.5178 0.9226 0.0307
C2_16 C 0.0379(2) 0.6679(3) 0.0798(3)
H1_16 H 0.0893 0.7143 0.0852
H2_16 H 0.0237 0.6427 0.1410
C3_16 C 0.0417(5) 0.6115(6) 0.0083(5)
H4_16 H 0.0774 0.5953 0.0307
C2_17 C 0.9633(2) 0.6287(2) 0.7464(3)
H1_17 H 0.9583 0.5773 0.7518
H2_17 H 0.9523 0.6429 0.8076
C3_17 C 0.9031(3) 0.6249(5) 0.6749(5)
H3_17 H 0.9112 0.6068 0.6154
H4_17 H 0.8512 0.5892 0.6973
H5_17 H 0.9093 0.6761 0.6674
C2_18 C 0.6655(3) 0.0367(2) 0.7464(3)
H1_18 H 0.6191 0.0417 0.7518
H2_18 H 0.6907 0.0477 0.8076
C3_18 C 0.7219(6) 0.0969(3) 0.6749(5)
H3_18 H 0.6957 0.0888 0.6154
H4_18 H 0.7381 0.1488 0.6973
H5_18 H 0.7669 0.0907 0.6674
loop_
_geom_bond_atom_site_label_1
_geom_bond_atom_site_label_2
_geom_bond_site_symmetry_1
_geom_bond_site_symmetry_2
Cu1 N1 1_555 1_555
N1 N2 1_555 1_555
N2 C1 1_555 1_555
N3 C1 1_555 1_555
C1 C2 1_555 1_555
C2 H1 1_555 1_555
H2 C2 1_555 1_555
C3 C2 1_555 1_555
H3 C3 1_555 1_555
H4 C3 1_555 1_555
H5 C3 1_555 1_555
C4 N1 1_555 1_555
C5 C4 1_555 1_555
H6 C5 1_555 1_555
H7 C5 1_555 1_555
C6 C5 1_555 1_555
H8 C6 1_555 1_555
H9 C6 1_555 1_555
H10 C6 1_555 1_555
Cu2 N2 1_555 1_555
Cu3 N3 1_555 1_555
N4 Cu1 1_555 1_555
N5 Cu1 1_555 1_555
N3 C4 1_555 1_555
H3_2 C3_2 1_555 1_555
H4_2 C3_2 1_555 1_555
H5_2 C3_2 1_555 1_555
Cu1_2 N1_2 1_555 1_555
N1_2 N2_2 1_555 1_555
N2_2 C1_2 1_555 1_555
N3_2 C1_2 1_555 1_555
C1_2 C2_2 1_555 1_555
C2_2 H1_2 1_555 1_555
C4_2 N1_2 1_555 1_555
C5_2 C4_2 1_555 1_555
H6_2 C5_2 1_555 1_555
H7_2 C5_2 1_555 1_555
C6_2 C5_2 1_555 1_555
H8_2 C6_2 1_555 1_555
H9_2 C6_2 1_555 1_555
H10_2 C6_2 1_555 1_555
Cu3_2 N3_2 1_555 1_555
N5_2 Cu1_2 1_555 1_555
N3_2 C4_2 1_555 1_555
Cu1_3 N1_3 1_555 1_555
N1_3 N2_3 1_555 1_555
N2_3 C1_3 1_555 1_555
N3_3 C1_3 1_555 1_555
C1_3 C2_3 1_555 1_555
C2_3 H1_3 1_555 1_555
C4_3 N1_3 1_555 1_555
C5_3 C4_3 1_555 1_555
H6_3 C5_3 1_555 1_555
H7_3 C5_3 1_555 1_555
C6_3 C5_3 1_555 1_555
H8_3 C6_3 1_555 1_555
H9_3 C6_3 1_555 1_555
H10_3 C6_3 1_555 1_555
Cu3_3 N3_3 1_555 1_555
N5_3 Cu1_3 1_555 1_555
N3_3 C4_3 1_555 1_555
H3_3 C3_3 1_555 1_555
H4_3 C3_3 1_555 1_555
H5_3 C3_3 1_555 1_555
Cu1_4 N1_4 1_555 1_555
N1_4 N2_4 1_555 1_555
N2_4 C1_4 1_555 1_555
Cu3_2 N2_4 1_555 1_555
N4_4 Cu1_4 1_555 1_555
Cu1_5 N1_5 1_555 1_555
N1_5 N2_5 1_555 1_555
N2_5 C1_5 1_555 1_555
Cu3_3 N2_5 1_555 1_555
N4_5 Cu1_5 1_555 1_555
N5_4 Cu1_5 1_555 1_555
C5_4 C4_4 1_555 1_555
H6_4 C5_4 1_555 1_555
H7_4 C5_4 1_555 1_555
C6_4 C5_4 1_555 1_555
H8_4 C6_4 1_555 1_555
H9_4 C6_4 1_555 1_555
H10_6 C6_4 1_555 1_555
Cu3_6 N3_4 1_555 1_555
N3_4 C4_4 1_555 1_555
Cu1_6 N1_6 1_555 1_555
N1_6 N2_6 1_555 1_555
N2_6 C1_6 1_555 1_555
C1_6 C2_4 1_555 1_555
C2_4 H1_4 1_555 1_555
H2_4 C2_4 1_555 1_555
C3_4 C2_4 1_555 1_555
H4_4 C3_4 1_555 1_555
H5_6 C3_4 1_555 1_555
Cu3 N2_6 1_555 1_555
N4_6 Cu1_6 1_555 1_555
Cu1_7 N1_7 1_555 1_555
N1_7 N2_7 1_555 1_555
N2_7 C1_7 1_555 1_555
N3_5 C1_7 1_555 1_555
C4_5 N1_7 1_555 1_555
C5_5 C4_5 1_555 1_555
H6_5 C5_5 1_555 1_555
H7_5 C5_5 1_555 1_555
C6_5 C5_5 1_555 1_555
H8_5 C6_5 1_555 1_555
H9_5 C6_5 1_555 1_555
H10_7 C6_5 1_555 1_555
Cu3_5 N2_7 1_555 1_555
Cu2_3 N3_5 1_555 1_555
N4_7 Cu1_7 1_555 1_555
N5_5 Cu1_7 1_555 1_555
N3_5 C4_5 1_555 1_555
Cu1_8 N1_8 1_555 1_555
N1_8 N2_8 1_555 1_555
N2_8 C1_8 1_555 1_555
N3_6 C1_8 1_555 1_555
C1_8 C2_5 1_555 1_555
C2_5 H1_5 1_555 1_555
H2_5 C2_5 1_555 1_555
C3_5 C2_5 1_555 1_555
H3_7 C3_5 1_555 1_555
H4_5 C3_5 1_555 1_555
H5_7 C3_5 1_555 1_555
C4_6 N1_8 1_555 1_555
C5_6 C4_6 1_555 1_555
H6_6 C5_6 1_555 1_555
H7_6 C5_6 1_555 1_555
C6_6 C5_6 1_555 1_555
H8_6 C6_6 1_555 1_555
H9_6 C6_6 1_555 1_555
H10_8 C6_6 1_555 1_555
Cu3_6 N2_8 1_555 1_555
Cu2 N3_6 1_555 1_555
N4_8 Cu1_8 1_555 1_555
N5_6 Cu1_8 1_555 1_555
N3_6 C4_6 1_555 1_555
Cu1_9 N1_9 1_555 1_555
N1_9 N2_9 1_555 1_555
N2_9 C1_9 1_555 1_555
N3_7 C1_9 1_555 1_555
C4_7 N1_9 1_555 1_555
C5_7 C4_7 1_555 1_555
H6_7 C5_7 1_555 1_555
H7_7 C5_7 1_555 1_555
C6_7 C5_7 1_555 1_555
H8_7 C6_7 1_555 1_555
H9_7 C6_7 1_555 1_555
H10_9 C6_7 1_555 1_555
Cu3_4 N2_9 1_555 1_555
Cu2_2 N3_7 1_555 1_555
N4_9 Cu1_9 1_555 1_555
N5_7 Cu1_9 1_555 1_555
N3_7 C4_7 1_555 1_555
Cu2 N1_10 1_555 1_555
N1_10 N4 1_555 1_555
N4 C1_10 1_555 1_555
N5_7 C1_10 1_555 1_555
C1_10 C2_6 1_555 1_555
C2_6 H1_6 1_555 1_555
H2_6 C2_6 1_555 1_555
C3_6 C2_6 1_555 1_555
H3_8 C3_6 1_555 1_555
H4_6 C3_6 1_555 1_555
H5_8 C3_6 1_555 1_555
C4_8 N1_10 1_555 1_555
C5_8 C4_8 1_555 1_555
H6_8 C5_8 1_555 1_555
H7_8 C5_8 1_555 1_555
C6_8 C5_8 1_555 1_555
H8_8 C6_8 1_555 1_555
H9_8 C6_8 1_555 1_555
H10_10 C6_8 1_555 1_555
N5_7 C4_8 1_555 1_555
Cu2_2 N1_11 1_555 1_555
N1_11 N4_2 1_555 1_555
N4_2 C1_11 1_555 1_555
N5_5 C1_11 1_555 1_555
C1_11 C2_7 1_555 1_555
C2_7 H1_7 1_555 1_555
C4_9 N1_11 1_555 1_555
C5_9 C4_9 1_555 1_555
H6_9 C5_9 1_555 1_555
H7_9 C5_9 1_555 1_555
C6_9 C5_9 1_555 1_555
H8_9 C6_9 1_555 1_555
H9_9 C6_9 1_555 1_555
H10_11 C6_9 1_555 1_555
N5_5 C4_9 1_555 1_555
H3_9 C3_7 1_555 1_555
H4_7 C3_7 1_555 1_555
H5_9 C3_7 1_555 1_555
H3_10 C3_8 1_555 1_555
H4_8 C3_8 1_555 1_555
H5_10 C3_8 1_555 1_555
Cu2_3 N1_12 1_555 1_555
N1_12 N4_3 1_555 1_555
N4_3 C1_12 1_555 1_555
N5_6 C1_12 1_555 1_555
C1_12 C2_8 1_555 1_555
C2_8 H1_8 1_555 1_555
C4_10 N1_12 1_555 1_555
C5_10 C4_10 1_555 1_555
H6_10 C5_10 1_555 1_555
H7_10 C5_10 1_555 1_555
C6_10 C5_10 1_555 1_555
H8_10 C6_10 1_555 1_555
H9_10 C6_10 1_555 1_555
H10_12 C6_10 1_555 1_555
N5_6 C4_10 1_555 1_555
Cu3_5 N1_13 1_555 1_555
N1_13 N4_7 1_555 1_555
N4_7 C1_13 1_555 1_555
Cu3_6 N1_14 1_555 1_555
N1_14 N4_8 1_555 1_555
N4_8 C1_14 1_555 1_555
Cu3_4 N1_15 1_555 1_555
N1_15 N4_9 1_555 1_555
N4_9 C1_15 1_555 1_555
C1_15 C2_9 1_555 1_555
C2_9 H1_9 1_555 1_555
H2_9 C2_9 1_555 1_555
C3_9 C2_9 1_555 1_555
H4_9 C3_9 1_555 1_555
H5_13 C3_9 1_555 1_555
C5_11 C4_11 1_555 1_555
H6_11 C5_11 1_555 1_555
H7_11 C5_11 1_555 1_555
C6_11 C5_11 1_555 1_555
H8_11 C6_11 1_555 1_555
H9_11 C6_11 1_555 1_555
H10_15 C6_11 1_555 1_555
N5_4 C4_11 1_555 1_555
Cu3_2 N1_16 1_555 1_555
N1_16 N4_4 1_555 1_555
N4_4 C1_16 1_555 1_555
N5_3 C1_16 1_555 1_555
C4_12 N1_16 1_555 1_555
C5_12 C4_12 1_555 1_555
H6_12 C5_12 1_555 1_555
H7_12 C5_12 1_555 1_555
C6_12 C5_12 1_555 1_555
H8_12 C6_12 1_555 1_555
H9_12 C6_12 1_555 1_555
H10_16 C6_12 1_555 1_555
N5_3 C4_12 1_555 1_555
Cu3_3 N1_17 1_555 1_555
N1_17 N4_5 1_555 1_555
N4_5 C1_17 1_555 1_555
N5 C1_17 1_555 1_555
C1_17 C2_10 1_555 1_555
C2_10 H1_10 1_555 1_555
H2_10 C2_10 1_555 1_555
C3_10 C2_10 1_555 1_555
H3_14 C3_10 1_555 1_555
H4_10 C3_10 1_555 1_555
H5_14 C3_10 1_555 1_555
C4_13 N1_17 1_555 1_555
C5_13 C4_13 1_555 1_555
H6_13 C5_13 1_555 1_555
H7_13 C5_13 1_555 1_555
C6_13 C5_13 1_555 1_555
H8_13 C6_13 1_555 1_555
H9_13 C6_13 1_555 1_555
H10_17 C6_13 1_555 1_555
N5 C4_13 1_555 1_555
Cu3 N1_18 1_555 1_555
N1_18 N4_6 1_555 1_555
N4_6 C1_18 1_555 1_555
N5_2 C1_18 1_555 1_555
C4_14 N1_18 1_555 1_555
C5_14 C4_14 1_555 1_555
H6_14 C5_14 1_555 1_555
H7_14 C5_14 1_555 1_555
C6_14 C5_14 1_555 1_555
H8_14 C6_14 1_555 1_555
H9_14 C6_14 1_555 1_555
H10_18 C6_14 1_555 1_555
N5_2 C4_14 1_555 1_555
C2_11 H1_11 1_555 1_555
H2_11 C2_11 1_555 1_555
C3_11 C2_11 1_555 1_555
H4_11 C3_11 1_555 1_555
C5_15 C4_15 1_555 1_555
H6_15 C5_15 1_555 1_555
H7_15 C5_15 1_555 1_555
C6_15 C5_15 1_555 1_555
H8_15 C6_15 1_555 1_555
H9_15 C6_15 1_555 1_555
N3_8 C4_15 1_555 1_555
C5_16 C4_16 1_555 1_555
H6_16 C5_16 1_555 1_555
H7_16 C5_16 1_555 1_555
C6_16 C5_16 1_555 1_555
H8_16 C6_16 1_555 1_555
H9_16 C6_16 1_555 1_555
N5_8 C4_16 1_555 1_555
C5_17 C4_17 1_555 1_555
H6_17 C5_17 1_555 1_555
H7_17 C5_17 1_555 1_555
C6_17 C5_17 1_555 1_555
H8_17 C6_17 1_555 1_555
H9_17 C6_17 1_555 1_555
N3_9 C4_17 1_555 1_555
C2_12 H1_12 1_555 1_555
H2_12 C2_12 1_555 1_555
C3_12 C2_12 1_555 1_555
H4_12 C3_12 1_555 1_555
C5_18 C4_18 1_555 1_555
H6_18 C5_18 1_555 1_555
H7_18 C5_18 1_555 1_555
C6_18 C5_18 1_555 1_555
H8_18 C6_18 1_555 1_555
H9_18 C6_18 1_555 1_555
N5_9 C4_18 1_555 1_555
C2_13 H1_13 1_555 1_555
H2_13 C2_13 1_555 1_555
C3_13 C2_13 1_555 1_555
H3_15 C3_13 1_555 1_555
H4_13 C3_13 1_555 1_555
H5_15 C3_13 1_555 1_555
C2_14 H1_14 1_555 1_555
H2_14 C2_14 1_555 1_555
C3_14 C2_14 1_555 1_555
H3_16 C3_14 1_555 1_555
H4_14 C3_14 1_555 1_555
H5_16 C3_14 1_555 1_555
C2_15 H1_15 1_555 1_555
H2_15 C2_15 1_555 1_555
C3_15 C2_15 1_555 1_555
H4_15 C3_15 1_555 1_555
C2_16 H1_16 1_555 1_555
H2_16 C2_16 1_555 1_555
C3_16 C2_16 1_555 1_555
H4_16 C3_16 1_555 1_555
C2_17 H1_17 1_555 1_555
H2_17 C2_17 1_555 1_555
C3_17 C2_17 1_555 1_555
H3_17 C3_17 1_555 1_555
H4_17 C3_17 1_555 1_555
H5_17 C3_17 1_555 1_555
C2_18 H1_18 1_555 1_555
H2_18 C2_18 1_555 1_555
C3_18 C2_18 1_555 1_555
H3_18 C3_18 1_555 1_555
H4_18 C3_18 1_555 1_555
H5_18 C3_18 1_555 1_555

#END
