
###############################################################################
#
# This file contains modified crystal structure data generated from the
# MOF subset of the Cambridge Structural Database (CSD) v543 
# hosted by the Cambridge Crystallographic Data Centre (CCDC).
#
# This work is licensed under the Creative Commons
# Attribution-NonCommercial-ShareAlike 4.0 International License.
# To view a copy of this license, visit
# http://creativecommons.org/licenses/by-nc-sa/4.0/
# or send a letter to
# Creative Commons, PO Box 1866, Mountain View, CA 94042, USA.
#
# CIF created using the CSD Python API on 29 September 2022
# The structure has been converted into the P1 space group
# The structure has a 3D framework
# The original CSD entry BOGXIF02 is in the rhombohedral crystal system
# The framework has been calculated to contain at least 10.0% void space
# The void calculation uses a probe of radius 1.32A, grid spacing 0.4
#
###############################################################################

data_BOGXIF02
_chemical_formula_moiety         '(C108 H180 Cu18 N54)n'
_symmetry_cell_setting           triclinic
_symmetry_space_group_name_H-M   'P 1'
_symmetry_Int_Tables_number      1
_space_group_name_Hall           'P 1'
loop_
_symmetry_equiv_pos_site_id
_symmetry_equiv_pos_as_xyz
1 x,y,z
_cell_length_a                   19.7501(13)
_cell_length_b                   19.7501(13)
_cell_length_c                   14.1928(10)
_cell_angle_alpha                90
_cell_angle_beta                 90
_cell_angle_gamma                120
_cell_volume                     4794.43
loop_
_atom_site_label
_atom_site_type_symbol
_atom_site_fract_x
_atom_site_fract_y
_atom_site_fract_z
Cu1 Cu 0.415160(18) 0.451837(19) 0.56181(2)
N1 N 0.50557(13) 0.54766(13) 0.61231(15)
N2 N 0.57456(12) 0.58576(12) 0.56108(15)
N3 N 0.58872(13) 0.65538(12) 0.68962(15)
C1 C 0.51712(16) 0.59091(16) 0.68849(18)
C2 C 0.4578(2) 0.5700(2) 0.7656(2)
H1 H 0.4096 0.5213 0.7476
H2 H 0.4783 0.5590 0.8237
C3 C 0.4369(3) 0.6303(3) 0.7868(4)
H3 H 0.3957 0.6106 0.8348
H4 H 0.4181 0.6431 0.7294
H5 H 0.4831 0.6773 0.8105
C4 C 0.62201(15) 0.64949(15) 0.60957(18)
C5 C 0.70278(18) 0.70783(19) 0.5794(2)
H6 H 0.7067 0.7596 0.5729
H7 H 0.7130 0.6927 0.5168
C6 C 0.7644(2) 0.7146(3) 0.6476(4)
H8 H 0.8162 0.7542 0.6250
H9 H 0.7622 0.6640 0.6525
H10 H 0.7549 0.7299 0.7097
Cu2 Cu 0.584840(18) 0.548163(19) 0.43819(2)
Cu3 Cu 0.629990(26) 0.748493(18) 0.77152(2)
N4 N 0.42544(12) 0.41424(12) 0.43892(15)
N5 N 0.32205(12) 0.39999(18) 0.64371(15)
H7_2 H 0.3073 0.0203 0.5168
C6_2 C 0.2854(3) 0.0498(4) 0.6476(4)
H8_2 H 0.2458 0.0620 0.6250
H9_2 H 0.3360 0.0982 0.6525
H10_2 H 0.2701 0.0250 0.7097
Cu2_2 Cu 0.451837(19) 0.036677(26) 0.43819(2)
N4_2 N 0.58576(12) 0.01120(17) 0.43892(15)
Cu1_2 Cu 0.548163(19) 0.963323(26) 0.56181(2)
N1_2 N 0.45234(13) 0.95791(18) 0.61231(15)
N2_2 N 0.41424(12) 0.98880(17) 0.56108(15)
N3_2 N 0.34462(12) 0.93334(18) 0.68962(15)
C1_2 C 0.40909(16) 0.92621(23) 0.68849(18)
C2_2 C 0.4300(2) 0.8878(3) 0.7656(2)
H1_2 H 0.4787 0.8883 0.7476
H2_2 H 0.4410 0.9193 0.8237
C3_2 C 0.3697(3) 0.8066(4) 0.7868(4)
H3_2 H 0.3894 0.7851 0.8348
H4_2 H 0.3569 0.7750 0.7294
H5_2 H 0.3227 0.8058 0.8105
C4_2 C 0.35051(15) 0.97252(21) 0.60957(18)
C5_2 C 0.29217(19) 0.99495(26) 0.5794(2)
H6_2 H 0.2404 0.9471 0.5729
Cu3_2 Cu 0.251507(18) 0.881496(32) 0.77152(2)
N5_2 N 0.60001(18) 0.92205(22) 0.64371(15)
Cu1_3 Cu 0.036677(26) 0.584840(18) 0.56181(2)
N1_3 N 0.04209(18) 0.49443(13) 0.61231(15)
N2_3 N 0.01120(17) 0.42544(12) 0.56108(15)
N3_3 N 0.06666(18) 0.41128(13) 0.68962(15)
C1_3 C 0.07379(23) 0.48288(16) 0.68849(18)
C2_3 C 0.1122(3) 0.5422(2) 0.7656(2)
H1_3 H 0.1117 0.5904 0.7476
H2_3 H 0.0807 0.5217 0.8237
C3_3 C 0.1934(4) 0.5631(3) 0.7868(4)
H3_3 H 0.2149 0.6043 0.8348
H4_3 H 0.2250 0.5819 0.7294
H5_3 H 0.1942 0.5169 0.8105
C4_3 C 0.02748(21) 0.37799(15) 0.60957(18)
C5_3 C 0.00505(26) 0.29722(18) 0.5794(2)
H6_3 H 0.0529 0.2933 0.5729
Cu3_3 Cu 0.118504(32) 0.370010(26) 0.77152(2)
N5_3 N 0.07795(22) 0.67795(12) 0.64371(15)
H7_3 H 0.9797 0.2870 0.5168
C6_3 C 0.9502(4) 0.2356(2) 0.6476(4)
H8_3 H 0.9380 0.1838 0.6250
H9_3 H 0.9018 0.2378 0.6525
H10_3 H 0.9750 0.2451 0.7097
Cu2_3 Cu 0.963323(26) 0.415160(18) 0.43819(2)
N4_3 N 0.98880(17) 0.57456(12) 0.43892(15)
H5_4 H 0.1498 0.0106 0.1438
H10_4 H 0.4216 0.0632 0.0430
Cu3_4 Cu 0.296656(26) 0.081827(18) 0.10486(2)
Cu1_4 Cu 0.081827(18) 0.785170(19) 0.89514(2)
N1_4 N 0.17224(13) 0.88099(13) 0.94564(15)
N2_4 N 0.24123(12) 0.91909(12) 0.89441(15)
C4_4 C 0.28868(15) 0.98282(15) 0.94290(18)
H9_4 H 0.4289 0.9973 0.9858
N4_4 N 0.09211(12) 0.74757(12) 0.77225(15)
Cu1_5 Cu 0.214830(19) 0.296656(26) 0.89514(2)
N1_5 N 0.11901(13) 0.29124(18) 0.94564(15)
N2_5 N 0.08091(12) 0.32213(17) 0.89441(15)
C4_5 C 0.01718(15) 0.30585(21) 0.94290(18)
H9_5 H 0.0027 0.4315 0.9858
N4_5 N 0.25243(12) 0.34453(17) 0.77225(15)
N5_4 N 0.26667(18) 0.25539(22) 0.97705(15)
H5_5 H 0.9894 0.1391 0.1438
H10_5 H 0.9368 0.3583 0.0430
Cu3_5 Cu 0.918173(18) 0.214830(32) 0.10486(2)
N3_4 N 0.73333(18) 0.74461(13) 0.02295(15)
C1_4 C 0.74046(23) 0.81621(16) 0.02182(18)
C2_4 C 0.7789(3) 0.8755(2) 0.0989(2)
H1_4 H 0.7784 0.9237 0.0809
H2_4 H 0.7474 0.8550 0.1570
C3_4 C 0.8601(4) 0.8964(3) 0.1201(4)
H3_4 H 0.8816 0.9376 0.1681
H4_4 H 0.8917 0.9152 0.0627
H5_6 H 0.8609 0.8502 0.1438
H10_6 H 0.6417 0.5784 0.0430
Cu3_6 Cu 0.785170(32) 0.703344(26) 0.10486(2)
Cu1_6 Cu 0.703344(26) 0.918173(18) 0.89514(2)
N1_6 N 0.70876(18) 0.82776(13) 0.94564(15)
N2_6 N 0.67787(17) 0.75877(12) 0.89441(15)
C4_6 C 0.69415(21) 0.71132(15) 0.94290(18)
C5_4 C 0.67172(26) 0.63055(18) 0.9127(2)
H6_4 H 0.7196 0.6266 0.9062
H7_4 H 0.6464 0.6203 0.8501
C6_4 C 0.6169(4) 0.5689(2) 0.9809(4)
H8_4 H 0.6047 0.5171 0.9583
H9_6 H 0.5685 0.5711 0.9858
N4_6 N 0.65547(17) 0.90789(12) 0.77225(15)
Cu1_7 Cu 0.748493(18) 0.118504(19) 0.22848(2)
N1_7 N 0.83890(13) 0.21433(13) 0.27898(15)
N2_7 N 0.90789(12) 0.25243(12) 0.22775(15)
N3_5 N 0.92205(13) 0.32205(12) 0.35629(15)
C1_5 C 0.85045(16) 0.25758(16) 0.35516(18)
C2_5 C 0.7911(2) 0.2367(2) 0.4323(2)
H1_5 H 0.7429 0.1880 0.4143
H2_5 H 0.8116 0.2257 0.4904
C3_5 C 0.7702(3) 0.2970(3) 0.4535(4)
H3_5 H 0.7290 0.2773 0.5015
H4_5 H 0.7514 0.3098 0.3961
H5_7 H 0.8164 0.3440 0.4772
C4_7 C 0.95534(15) 0.31616(15) 0.27624(18)
N4_7 N 0.75877(12) 0.08091(12) 0.10559(15)
N5_5 N 0.65538(12) 0.06666(18) 0.31038(15)
Cu1_8 Cu 0.881496(19) 0.629990(26) 0.22848(2)
N1_8 N 0.78567(13) 0.62458(18) 0.27898(15)
N2_8 N 0.74757(12) 0.65547(17) 0.22775(15)
N3_6 N 0.67795(12) 0.60001(18) 0.35629(15)
C1_6 C 0.74242(16) 0.59288(23) 0.35516(18)
C2_6 C 0.7633(2) 0.5545(3) 0.4323(2)
H1_6 H 0.8120 0.5550 0.4143
H2_6 H 0.7743 0.5860 0.4904
C3_6 C 0.7030(3) 0.4733(4) 0.4535(4)
H3_6 H 0.7227 0.4518 0.5015
H4_6 H 0.6902 0.4417 0.3961
H5_8 H 0.6560 0.4725 0.4772
C4_8 C 0.68384(15) 0.63919(21) 0.27624(18)
C5_5 C 0.62550(19) 0.66162(26) 0.2461(2)
H6_5 H 0.5737 0.6138 0.2396
H7_5 H 0.6406 0.6870 0.1835
C6_5 C 0.6187(3) 0.7165(4) 0.3143(4)
H8_5 H 0.5791 0.7287 0.2917
H9_7 H 0.6693 0.7649 0.3192
H10_7 H 0.6034 0.6917 0.3764
N4_8 N 0.91909(12) 0.67787(17) 0.10559(15)
N5_6 N 0.93334(18) 0.58872(22) 0.31038(15)
Cu1_9 Cu 0.370010(26) 0.251507(18) 0.22848(2)
N1_9 N 0.37542(18) 0.16110(13) 0.27898(15)
N2_9 N 0.34453(17) 0.09211(12) 0.22775(15)
N3_7 N 0.39999(18) 0.07795(13) 0.35629(15)
C1_7 C 0.40712(23) 0.14955(16) 0.35516(18)
C2_7 C 0.4455(3) 0.2089(2) 0.4323(2)
H1_7 H 0.4450 0.2571 0.4143
H2_7 H 0.4140 0.1884 0.4904
C3_7 C 0.5267(4) 0.2298(3) 0.4535(4)
H3_7 H 0.5482 0.2710 0.5015
H4_7 H 0.5583 0.2486 0.3961
H5_9 H 0.5275 0.1836 0.4772
C4_9 C 0.36081(21) 0.04466(15) 0.27624(18)
N4_9 N 0.32213(17) 0.24123(12) 0.10559(15)
N5_7 N 0.41128(22) 0.34462(12) 0.31038(15)
N1_10 N 0.49443(13) 0.45234(13) 0.38769(15)
C1_8 C 0.48288(16) 0.40909(16) 0.31151(18)
C2_8 C 0.5422(2) 0.4300(2) 0.2344(2)
H1_8 H 0.5904 0.4787 0.2524
H2_8 H 0.5217 0.4410 0.1763
C3_8 C 0.5631(3) 0.3697(3) 0.2132(4)
H3_8 H 0.6043 0.3894 0.1652
H4_8 H 0.5819 0.3569 0.2706
H5_10 H 0.5169 0.3227 0.1895
C4_10 C 0.37799(15) 0.35051(15) 0.39043(18)
C5_6 C 0.29722(18) 0.29217(19) 0.4206(2)
H6_6 H 0.2933 0.2404 0.4271
H7_6 H 0.2870 0.3073 0.4832
C6_6 C 0.2356(2) 0.2854(3) 0.3524(4)
H8_6 H 0.1838 0.2458 0.3750
H9_8 H 0.2378 0.3360 0.3475
H10_8 H 0.2451 0.2701 0.2903
N1_11 N 0.54766(13) 0.04209(18) 0.38769(15)
C1_9 C 0.59091(16) 0.07379(23) 0.31151(18)
C2_9 C 0.5700(2) 0.1122(3) 0.2344(2)
H1_9 H 0.5213 0.1117 0.2524
H2_9 H 0.5590 0.0807 0.1763
C3_9 C 0.6303(3) 0.1934(4) 0.2132(4)
H3_9 H 0.6106 0.2149 0.1652
H4_9 H 0.6431 0.2250 0.2706
H5_11 H 0.6773 0.1942 0.1895
C4_11 C 0.64949(15) 0.02748(21) 0.39043(18)
C5_7 C 0.70783(19) 0.00505(26) 0.4206(2)
H6_7 H 0.7596 0.0529 0.4271
H7_7 H 0.6927 0.9797 0.4832
C6_7 C 0.7146(3) 0.9502(4) 0.3524(4)
H8_7 H 0.7542 0.9380 0.3750
H9_9 H 0.6640 0.9018 0.3475
H10_9 H 0.7299 0.9750 0.2903
H7_8 H 0.0203 0.7130 0.4832
C6_8 C 0.0498(4) 0.7644(2) 0.3524(4)
H8_8 H 0.0620 0.8162 0.3750
H9_10 H 0.0982 0.7622 0.3475
H10_10 H 0.0250 0.7549 0.2903
N1_12 N 0.95791(18) 0.50557(13) 0.38769(15)
C1_10 C 0.92621(23) 0.51712(16) 0.31151(18)
C2_10 C 0.8878(3) 0.4578(2) 0.2344(2)
H1_10 H 0.8883 0.4096 0.2524
H2_10 H 0.9193 0.4783 0.1763
C3_10 C 0.8066(4) 0.4369(3) 0.2132(4)
H3_10 H 0.7851 0.3957 0.1652
H4_10 H 0.7750 0.4181 0.2706
H5_12 H 0.8058 0.4831 0.1895
C4_12 C 0.97252(21) 0.62201(15) 0.39043(18)
C5_8 C 0.99495(26) 0.70278(18) 0.4206(2)
H6_8 H 0.9471 0.7067 0.4271
N1_13 N 0.82776(13) 0.11901(13) 0.05436(15)
C4_13 C 0.71132(15) 0.01718(15) 0.05710(18)
H9_11 H 0.5711 0.0027 0.0142
H5_13 H 0.8502 0.9894 0.8562
H10_11 H 0.5784 0.9368 0.9570
H5_14 H 0.0106 0.8609 0.8562
H10_12 H 0.0632 0.6417 0.9570
N1_14 N 0.88099(13) 0.70876(18) 0.05436(15)
C4_14 C 0.98282(15) 0.69415(21) 0.05710(18)
H9_12 H 0.9973 0.5685 0.0142
N1_15 N 0.29124(18) 0.17224(13) 0.05436(15)
C4_15 C 0.30585(21) 0.28868(15) 0.05710(18)
C5_9 C 0.32828(26) 0.36945(18) 0.0873(2)
H6_9 H 0.2804 0.3734 0.0938
H7_9 H 0.3536 0.3797 0.1499
C6_9 C 0.3831(4) 0.4311(2) 0.0191(4)
H8_9 H 0.3953 0.4829 0.0417
H9_13 H 0.4315 0.4289 0.0142
C1_11 C 0.25954(23) 0.18379(16) 0.97818(18)
C2_11 C 0.2211(3) 0.1245(2) 0.9011(2)
H1_11 H 0.2216 0.0763 0.9191
H2_11 H 0.2526 0.1450 0.8430
C3_11 C 0.1399(4) 0.1036(3) 0.8799(4)
H3_11 H 0.1184 0.0624 0.8319
H4_11 H 0.1083 0.0848 0.9373
H5_15 H 0.1391 0.1498 0.8562
H10_13 H 0.3583 0.4216 0.9570
N1_16 N 0.16110(13) 0.78567(13) 0.72102(15)
C1_12 C 0.14955(16) 0.74242(16) 0.64484(18)
C2_12 C 0.2089(2) 0.7633(2) 0.5677(2)
H1_12 H 0.2571 0.8120 0.5857
H2_12 H 0.1884 0.7743 0.5096
C3_12 C 0.2298(3) 0.7030(3) 0.5465(4)
H3_12 H 0.2710 0.7227 0.4985
H4_12 H 0.2486 0.6902 0.6039
H5_16 H 0.1836 0.6560 0.5228
C4_16 C 0.04466(15) 0.68384(15) 0.72376(18)
N1_17 N 0.21433(13) 0.37542(18) 0.72102(15)
C1_13 C 0.25758(16) 0.40712(23) 0.64484(18)
C2_13 C 0.2367(2) 0.4455(3) 0.5677(2)
H1_13 H 0.1880 0.4450 0.5857
H2_13 H 0.2257 0.4140 0.5096
C3_13 C 0.2970(3) 0.5267(4) 0.5465(4)
H3_13 H 0.2773 0.5482 0.4985
H4_13 H 0.3098 0.5583 0.6039
H5_17 H 0.3440 0.5275 0.5228
C4_17 C 0.31616(15) 0.36081(21) 0.72376(18)
C5_10 C 0.37450(19) 0.33838(26) 0.7539(2)
H6_10 H 0.4263 0.3862 0.7604
H7_10 H 0.3594 0.3130 0.8165
C6_10 C 0.3813(3) 0.2835(4) 0.6857(4)
H8_10 H 0.4209 0.2713 0.7083
H9_14 H 0.3307 0.2351 0.6808
H10_14 H 0.3966 0.3083 0.6236
N1_18 N 0.62458(18) 0.83890(13) 0.72102(15)
C1_14 C 0.59288(23) 0.85045(16) 0.64484(18)
C2_14 C 0.5545(3) 0.7911(2) 0.5677(2)
H1_14 H 0.5550 0.7429 0.5857
H2_14 H 0.5860 0.8116 0.5096
C3_14 C 0.4733(4) 0.7702(3) 0.5465(4)
H3_14 H 0.4518 0.7290 0.4985
H4_14 H 0.4417 0.7514 0.6039
H5_18 H 0.4725 0.8164 0.5228
C4_18 C 0.63919(21) 0.95534(15) 0.72376(18)
C5_11 C 0.36945(18) 0.04116(19) 0.9127(2)
H6_11 H 0.3734 0.0929 0.9062
H7_11 H 0.3797 0.0260 0.8501
C6_11 C 0.4311(2) 0.0479(3) 0.9809(4)
H8_11 H 0.4829 0.0875 0.9583
N3_8 N 0.25539(13) 0.98871(12) 0.02295(15)
C1_15 C 0.18379(16) 0.92424(16) 0.02182(18)
C2_15 C 0.1245(2) 0.9033(2) 0.0989(2)
H1_15 H 0.0763 0.8546 0.0809
H2_15 H 0.1450 0.8923 0.1570
C3_15 C 0.1036(3) 0.9636(3) 0.1201(4)
H3_15 H 0.0624 0.9439 0.1681
H4_15 H 0.0848 0.9764 0.0627
N5_8 N 0.98871(12) 0.73333(18) 0.97705(15)
C1_16 C 0.92424(16) 0.74046(23) 0.97818(18)
C2_16 C 0.9033(2) 0.7789(3) 0.9011(2)
H1_16 H 0.8546 0.7784 0.9191
H2_16 H 0.8923 0.7474 0.8430
C3_16 C 0.9636(3) 0.8601(4) 0.8799(4)
H3_16 H 0.9439 0.8816 0.8319
H4_16 H 0.9764 0.8917 0.9373
N3_9 N 0.01129(12) 0.26667(18) 0.02295(15)
C1_17 C 0.07576(16) 0.25954(23) 0.02182(18)
C2_17 C 0.0967(2) 0.2211(3) 0.0989(2)
H1_17 H 0.1454 0.2216 0.0809
H2_17 H 0.1077 0.2526 0.1570
C3_17 C 0.0364(3) 0.1399(4) 0.1201(4)
H3_17 H 0.0561 0.1184 0.1681
H4_17 H 0.0236 0.1083 0.0627
C5_12 C 0.95884(19) 0.32828(26) 0.9127(2)
H6_12 H 0.9071 0.2804 0.9062
H7_12 H 0.9740 0.3536 0.8501
C6_12 C 0.9521(3) 0.3831(4) 0.9809(4)
H8_12 H 0.9125 0.3953 0.9583
N5_9 N 0.74461(22) 0.01129(12) 0.97705(15)
C1_18 C 0.81621(16) 0.07576(16) 0.97818(18)
C2_18 C 0.8755(2) 0.0967(2) 0.9011(2)
H1_18 H 0.9237 0.1454 0.9191
H2_18 H 0.8550 0.1077 0.8430
C3_18 C 0.8964(3) 0.0364(3) 0.8799(4)
H3_18 H 0.9376 0.0561 0.8319
H4_18 H 0.9152 0.0236 0.9373
C5_13 C 0.03611(18) 0.37450(19) 0.2461(2)
H6_13 H 0.0400 0.4263 0.2396
H7_13 H 0.0463 0.3594 0.1835
C6_13 C 0.0977(2) 0.3813(3) 0.3143(4)
H8_13 H 0.1495 0.4209 0.2917
H9_15 H 0.0955 0.3307 0.3192
H10_15 H 0.0882 0.3966 0.3764
C5_14 C 0.33838(26) 0.96389(18) 0.2461(2)
H6_14 H 0.3862 0.9600 0.2396
H7_14 H 0.3130 0.9537 0.1835
C6_14 C 0.2835(4) 0.9023(2) 0.3143(4)
H8_14 H 0.2713 0.8505 0.2917
H9_16 H 0.2351 0.9045 0.3192
H10_16 H 0.3083 0.9118 0.3764
C5_15 C 0.63055(18) 0.95884(19) 0.0873(2)
H6_15 H 0.6266 0.9071 0.0938
H7_15 H 0.6203 0.9740 0.1499
C6_15 C 0.5689(2) 0.9521(3) 0.0191(4)
H8_15 H 0.5171 0.9125 0.0417
C5_16 C 0.04116(19) 0.67172(26) 0.0873(2)
H6_16 H 0.0929 0.7196 0.0938
H7_16 H 0.0260 0.6464 0.1499
C6_16 C 0.0479(3) 0.6169(4) 0.0191(4)
H8_16 H 0.0875 0.6047 0.0417
C5_17 C 0.96389(18) 0.62550(19) 0.7539(2)
H6_17 H 0.9600 0.5737 0.7604
H7_17 H 0.9537 0.6406 0.8165
C6_17 C 0.9023(2) 0.6187(3) 0.6857(4)
H8_17 H 0.8505 0.5791 0.7083
H9_17 H 0.9045 0.6693 0.6808
H10_17 H 0.9118 0.6034 0.6236
C5_18 C 0.66162(26) 0.03611(18) 0.7539(2)
H6_18 H 0.6138 0.0400 0.7604
H7_18 H 0.6870 0.0463 0.8165
C6_18 C 0.7165(4) 0.0977(2) 0.6857(4)
H8_18 H 0.7287 0.1495 0.7083
H9_18 H 0.7649 0.0955 0.6808
H10_18 H 0.6917 0.0882 0.6236
loop_
_geom_bond_atom_site_label_1
_geom_bond_atom_site_label_2
_geom_bond_site_symmetry_1
_geom_bond_site_symmetry_2
Cu1 N1 1_555 1_555
N1 N2 1_555 1_555
N2 C4 1_555 1_555
N3 C1 1_555 1_555
C1 N1 1_555 1_555
C2 C1 1_555 1_555
H1 C2 1_555 1_555
H2 C2 1_555 1_555
C3 C2 1_555 1_555
H3 C3 1_555 1_555
H4 C3 1_555 1_555
H5 C3 1_555 1_555
C4 N3 1_555 1_555
C5 C4 1_555 1_555
H6 C5 1_555 1_555
H7 C5 1_555 1_555
C6 C5 1_555 1_555
H8 C6 1_555 1_555
H9 C6 1_555 1_555
H10 C6 1_555 1_555
Cu2 N2 1_555 1_555
Cu3 N3 1_555 1_555
N4 Cu1 1_555 1_555
N5 Cu1 1_555 1_555
H8_2 C6_2 1_555 1_555
H9_2 C6_2 1_555 1_555
H10_2 C6_2 1_555 1_555
Cu1_2 N1_2 1_555 1_555
N1_2 N2_2 1_555 1_555
N2_2 C4_2 1_555 1_555
N3_2 C1_2 1_555 1_555
C1_2 N1_2 1_555 1_555
C2_2 C1_2 1_555 1_555
H1_2 C2_2 1_555 1_555
H2_2 C2_2 1_555 1_555
C3_2 C2_2 1_555 1_555
H3_2 C3_2 1_555 1_555
H4_2 C3_2 1_555 1_555
H5_2 C3_2 1_555 1_555
C4_2 N3_2 1_555 1_555
C5_2 C4_2 1_555 1_555
H6_2 C5_2 1_555 1_555
Cu3_2 N3_2 1_555 1_555
N5_2 Cu1_2 1_555 1_555
Cu1_3 N1_3 1_555 1_555
N1_3 N2_3 1_555 1_555
N2_3 C4_3 1_555 1_555
N3_3 C1_3 1_555 1_555
C1_3 N1_3 1_555 1_555
C2_3 C1_3 1_555 1_555
H1_3 C2_3 1_555 1_555
H2_3 C2_3 1_555 1_555
C3_3 C2_3 1_555 1_555
H3_3 C3_3 1_555 1_555
H4_3 C3_3 1_555 1_555
H5_3 C3_3 1_555 1_555
C4_3 N3_3 1_555 1_555
C5_3 C4_3 1_555 1_555
H6_3 C5_3 1_555 1_555
Cu3_3 N3_3 1_555 1_555
N5_3 Cu1_3 1_555 1_555
H8_3 C6_3 1_555 1_555
H9_3 C6_3 1_555 1_555
H10_3 C6_3 1_555 1_555
Cu1_4 N1_4 1_555 1_555
N1_4 N2_4 1_555 1_555
N2_4 C4_4 1_555 1_555
Cu3_2 N2_4 1_555 1_555
N4_4 Cu1_4 1_555 1_555
Cu1_5 N1_5 1_555 1_555
N1_5 N2_5 1_555 1_555
N2_5 C4_5 1_555 1_555
Cu3_3 N2_5 1_555 1_555
N4_5 Cu1_5 1_555 1_555
N5_4 Cu1_5 1_555 1_555
N3_4 C1_4 1_555 1_555
C2_4 C1_4 1_555 1_555
H1_4 C2_4 1_555 1_555
H2_4 C2_4 1_555 1_555
C3_4 C2_4 1_555 1_555
H3_4 C3_4 1_555 1_555
H4_4 C3_4 1_555 1_555
H5_6 C3_4 1_555 1_555
Cu3_6 N3_4 1_555 1_555
Cu1_6 N1_6 1_555 1_555
N1_6 N2_6 1_555 1_555
N2_6 C4_6 1_555 1_555
C5_4 C4_6 1_555 1_555
H6_4 C5_4 1_555 1_555
H7_4 C5_4 1_555 1_555
C6_4 C5_4 1_555 1_555
H8_4 C6_4 1_555 1_555
H9_6 C6_4 1_555 1_555
Cu3 N2_6 1_555 1_555
N4_6 Cu1_6 1_555 1_555
Cu1_7 N1_7 1_555 1_555
N1_7 N2_7 1_555 1_555
N2_7 C4_7 1_555 1_555
N3_5 C1_5 1_555 1_555
C1_5 N1_7 1_555 1_555
C2_5 C1_5 1_555 1_555
H1_5 C2_5 1_555 1_555
H2_5 C2_5 1_555 1_555
C3_5 C2_5 1_555 1_555
H3_5 C3_5 1_555 1_555
H4_5 C3_5 1_555 1_555
H5_7 C3_5 1_555 1_555
C4_7 N3_5 1_555 1_555
Cu3_5 N2_7 1_555 1_555
Cu2_3 N3_5 1_555 1_555
N4_7 Cu1_7 1_555 1_555
N5_5 Cu1_7 1_555 1_555
Cu1_8 N1_8 1_555 1_555
N1_8 N2_8 1_555 1_555
N2_8 C4_8 1_555 1_555
N3_6 C1_6 1_555 1_555
C1_6 N1_8 1_555 1_555
C2_6 C1_6 1_555 1_555
H1_6 C2_6 1_555 1_555
H2_6 C2_6 1_555 1_555
C3_6 C2_6 1_555 1_555
H3_6 C3_6 1_555 1_555
H4_6 C3_6 1_555 1_555
H5_8 C3_6 1_555 1_555
C4_8 N3_6 1_555 1_555
C5_5 C4_8 1_555 1_555
H6_5 C5_5 1_555 1_555
H7_5 C5_5 1_555 1_555
C6_5 C5_5 1_555 1_555
H8_5 C6_5 1_555 1_555
H9_7 C6_5 1_555 1_555
H10_7 C6_5 1_555 1_555
Cu3_6 N2_8 1_555 1_555
Cu2 N3_6 1_555 1_555
N4_8 Cu1_8 1_555 1_555
N5_6 Cu1_8 1_555 1_555
Cu1_9 N1_9 1_555 1_555
N1_9 N2_9 1_555 1_555
N2_9 C4_9 1_555 1_555
N3_7 C1_7 1_555 1_555
C1_7 N1_9 1_555 1_555
C2_7 C1_7 1_555 1_555
H1_7 C2_7 1_555 1_555
H2_7 C2_7 1_555 1_555
C3_7 C2_7 1_555 1_555
H3_7 C3_7 1_555 1_555
H4_7 C3_7 1_555 1_555
H5_9 C3_7 1_555 1_555
C4_9 N3_7 1_555 1_555
Cu3_4 N2_9 1_555 1_555
Cu2_2 N3_7 1_555 1_555
N4_9 Cu1_9 1_555 1_555
N5_7 Cu1_9 1_555 1_555
Cu2 N1_10 1_555 1_555
N1_10 N4 1_555 1_555
N4 C4_10 1_555 1_555
N5_7 C1_8 1_555 1_555
C1_8 N1_10 1_555 1_555
C2_8 C1_8 1_555 1_555
H1_8 C2_8 1_555 1_555
H2_8 C2_8 1_555 1_555
C3_8 C2_8 1_555 1_555
H3_8 C3_8 1_555 1_555
H4_8 C3_8 1_555 1_555
H5_10 C3_8 1_555 1_555
C4_10 N5_7 1_555 1_555
C5_6 C4_10 1_555 1_555
H6_6 C5_6 1_555 1_555
H7_6 C5_6 1_555 1_555
C6_6 C5_6 1_555 1_555
H8_6 C6_6 1_555 1_555
H9_8 C6_6 1_555 1_555
H10_8 C6_6 1_555 1_555
Cu2_2 N1_11 1_555 1_555
N1_11 N4_2 1_555 1_555
N4_2 C4_11 1_555 1_555
N5_5 C1_9 1_555 1_555
C1_9 N1_11 1_555 1_555
C2_9 C1_9 1_555 1_555
H1_9 C2_9 1_555 1_555
H2_9 C2_9 1_555 1_555
C3_9 C2_9 1_555 1_555
H3_9 C3_9 1_555 1_555
H4_9 C3_9 1_555 1_555
H5_11 C3_9 1_555 1_555
C4_11 N5_5 1_555 1_555
C5_7 C4_11 1_555 1_555
H6_7 C5_7 1_555 1_555
H8_7 C6_7 1_555 1_555
H9_9 C6_7 1_555 1_555
H10_9 C6_7 1_555 1_555
H8_8 C6_8 1_555 1_555
H9_10 C6_8 1_555 1_555
H10_10 C6_8 1_555 1_555
Cu2_3 N1_12 1_555 1_555
N1_12 N4_3 1_555 1_555
N4_3 C4_12 1_555 1_555
N5_6 C1_10 1_555 1_555
C1_10 N1_12 1_555 1_555
C2_10 C1_10 1_555 1_555
H1_10 C2_10 1_555 1_555
H2_10 C2_10 1_555 1_555
C3_10 C2_10 1_555 1_555
H3_10 C3_10 1_555 1_555
H4_10 C3_10 1_555 1_555
H5_12 C3_10 1_555 1_555
C4_12 N5_6 1_555 1_555
C5_8 C4_12 1_555 1_555
H6_8 C5_8 1_555 1_555
Cu3_5 N1_13 1_555 1_555
N1_13 N4_7 1_555 1_555
N4_7 C4_13 1_555 1_555
Cu3_6 N1_14 1_555 1_555
N1_14 N4_8 1_555 1_555
N4_8 C4_14 1_555 1_555
Cu3_4 N1_15 1_555 1_555
N1_15 N4_9 1_555 1_555
N4_9 C4_15 1_555 1_555
C5_9 C4_15 1_555 1_555
H6_9 C5_9 1_555 1_555
H7_9 C5_9 1_555 1_555
C6_9 C5_9 1_555 1_555
H8_9 C6_9 1_555 1_555
H9_13 C6_9 1_555 1_555
N5_4 C1_11 1_555 1_555
C2_11 C1_11 1_555 1_555
H1_11 C2_11 1_555 1_555
H2_11 C2_11 1_555 1_555
C3_11 C2_11 1_555 1_555
H3_11 C3_11 1_555 1_555
H4_11 C3_11 1_555 1_555
H5_15 C3_11 1_555 1_555
Cu3_2 N1_16 1_555 1_555
N1_16 N4_4 1_555 1_555
N4_4 C4_16 1_555 1_555
N5_3 C1_12 1_555 1_555
C1_12 N1_16 1_555 1_555
C2_12 C1_12 1_555 1_555
H1_12 C2_12 1_555 1_555
H2_12 C2_12 1_555 1_555
C3_12 C2_12 1_555 1_555
H3_12 C3_12 1_555 1_555
H4_12 C3_12 1_555 1_555
H5_16 C3_12 1_555 1_555
C4_16 N5_3 1_555 1_555
Cu3_3 N1_17 1_555 1_555
N1_17 N4_5 1_555 1_555
N4_5 C4_17 1_555 1_555
N5 C1_13 1_555 1_555
C1_13 N1_17 1_555 1_555
C2_13 C1_13 1_555 1_555
H1_13 C2_13 1_555 1_555
H2_13 C2_13 1_555 1_555
C3_13 C2_13 1_555 1_555
H3_13 C3_13 1_555 1_555
H4_13 C3_13 1_555 1_555
H5_17 C3_13 1_555 1_555
C4_17 N5 1_555 1_555
C5_10 C4_17 1_555 1_555
H6_10 C5_10 1_555 1_555
H7_10 C5_10 1_555 1_555
C6_10 C5_10 1_555 1_555
H8_10 C6_10 1_555 1_555
H9_14 C6_10 1_555 1_555
H10_14 C6_10 1_555 1_555
Cu3 N1_18 1_555 1_555
N1_18 N4_6 1_555 1_555
N4_6 C4_18 1_555 1_555
N5_2 C1_14 1_555 1_555
C1_14 N1_18 1_555 1_555
C2_14 C1_14 1_555 1_555
H1_14 C2_14 1_555 1_555
H2_14 C2_14 1_555 1_555
C3_14 C2_14 1_555 1_555
H3_14 C3_14 1_555 1_555
H4_14 C3_14 1_555 1_555
H5_18 C3_14 1_555 1_555
C4_18 N5_2 1_555 1_555
H6_11 C5_11 1_555 1_555
H7_11 C5_11 1_555 1_555
C6_11 C5_11 1_555 1_555
H8_11 C6_11 1_555 1_555
N3_8 C1_15 1_555 1_555
C2_15 C1_15 1_555 1_555
H1_15 C2_15 1_555 1_555
H2_15 C2_15 1_555 1_555
C3_15 C2_15 1_555 1_555
H3_15 C3_15 1_555 1_555
H4_15 C3_15 1_555 1_555
N5_8 C1_16 1_555 1_555
C2_16 C1_16 1_555 1_555
H1_16 C2_16 1_555 1_555
H2_16 C2_16 1_555 1_555
C3_16 C2_16 1_555 1_555
H3_16 C3_16 1_555 1_555
H4_16 C3_16 1_555 1_555
N3_9 C1_17 1_555 1_555
C2_17 C1_17 1_555 1_555
H1_17 C2_17 1_555 1_555
H2_17 C2_17 1_555 1_555
C3_17 C2_17 1_555 1_555
H3_17 C3_17 1_555 1_555
H4_17 C3_17 1_555 1_555
H6_12 C5_12 1_555 1_555
H7_12 C5_12 1_555 1_555
C6_12 C5_12 1_555 1_555
H8_12 C6_12 1_555 1_555
N5_9 C1_18 1_555 1_555
C2_18 C1_18 1_555 1_555
H1_18 C2_18 1_555 1_555
H2_18 C2_18 1_555 1_555
C3_18 C2_18 1_555 1_555
H3_18 C3_18 1_555 1_555
H4_18 C3_18 1_555 1_555
H6_13 C5_13 1_555 1_555
H7_13 C5_13 1_555 1_555
C6_13 C5_13 1_555 1_555
H8_13 C6_13 1_555 1_555
H9_15 C6_13 1_555 1_555
H10_15 C6_13 1_555 1_555
H6_14 C5_14 1_555 1_555
H7_14 C5_14 1_555 1_555
C6_14 C5_14 1_555 1_555
H8_14 C6_14 1_555 1_555
H9_16 C6_14 1_555 1_555
H10_16 C6_14 1_555 1_555
H6_15 C5_15 1_555 1_555
H7_15 C5_15 1_555 1_555
C6_15 C5_15 1_555 1_555
H8_15 C6_15 1_555 1_555
H6_16 C5_16 1_555 1_555
H7_16 C5_16 1_555 1_555
C6_16 C5_16 1_555 1_555
H8_16 C6_16 1_555 1_555
H6_17 C5_17 1_555 1_555
H7_17 C5_17 1_555 1_555
C6_17 C5_17 1_555 1_555
H8_17 C6_17 1_555 1_555
H9_17 C6_17 1_555 1_555
H10_17 C6_17 1_555 1_555
H6_18 C5_18 1_555 1_555
H7_18 C5_18 1_555 1_555
C6_18 C5_18 1_555 1_555
H8_18 C6_18 1_555 1_555
H9_18 C6_18 1_555 1_555
H10_18 C6_18 1_555 1_555

#END
