
###############################################################################
#
# This file contains modified crystal structure data generated from the
# MOF subset of the Cambridge Structural Database (CSD) v543 
# hosted by the Cambridge Crystallographic Data Centre (CCDC).
#
# This work is licensed under the Creative Commons
# Attribution-NonCommercial-ShareAlike 4.0 International License.
# To view a copy of this license, visit
# http://creativecommons.org/licenses/by-nc-sa/4.0/
# or send a letter to
# Creative Commons, PO Box 1866, Mountain View, CA 94042, USA.
#
# CIF created using the CSD Python API on 29 September 2022
# The structure has been converted into the P1 space group
# The structure has a 3D framework
# The original CSD entry BOGXOL is in the rhombohedral crystal system
# The framework has been calculated to contain at least 10.0% void space
# The void calculation uses a probe of radius 1.32A, grid spacing 0.4
#
###############################################################################

data_BOGXOL
_chemical_formula_moiety         '(C108 H180 Cu14 N54)n'
_symmetry_cell_setting           triclinic
_symmetry_space_group_name_H-M   'P 1'
_symmetry_Int_Tables_number      1
_space_group_name_Hall           'P 1'
loop_
_symmetry_equiv_pos_site_id
_symmetry_equiv_pos_as_xyz
1 x,y,z
_cell_length_a                   19.4290(17)
_cell_length_b                   19.4290(17)
_cell_length_c                   14.3210(19)
_cell_angle_alpha                90
_cell_angle_beta                 90
_cell_angle_gamma                120.00
_cell_volume                     4681.71
loop_
_atom_site_label
_atom_site_type_symbol
_atom_site_fract_x
_atom_site_fract_y
_atom_site_fract_z
Cu1 Cu 0.585780(12) 0.549900(12) 0.439530(15)
N1 N 0.50598(8) 0.54499(8) 0.61422(10)
N2 N 0.57589(8) 0.58486(8) 0.56306(10)
N3 N 0.59042(9) 0.65345(8) 0.69235(10)
C1 C 0.51750(10) 0.58779(10) 0.69094(12)
C2 C 0.45784(12) 0.56611(11) 0.76727(14)
H1 H 0.4802 0.5580 0.8256
H2 H 0.4099 0.5151 0.7513
C3 C 0.43348(15) 0.62816(15) 0.7848(2)
H3 H 0.3949 0.6105 0.8360
H4 H 0.4094 0.6352 0.7281
H5 H 0.4804 0.6788 0.8016
C4 C 0.62413(10) 0.64872(10) 0.61212(12)
C5 C 0.70645(10) 0.70876(11) 0.58259(13)
H6 H 0.7094 0.7607 0.5737
H7 H 0.7181 0.6925 0.5218
C6 C 0.76919(12) 0.71850(15) 0.65278(19)
H8 H 0.8218 0.7584 0.6300
H9 H 0.7675 0.6676 0.6609
H10 H 0.7588 0.7358 0.7128
Cu2 Cu 0.414220(12) 0.450100(12) 0.560470(15)
Cu3 Cu 0.630787(17) 0.747553(12) 0.772863(15)
N4 N 0.49402(8) 0.45501(8) 0.38578(10)
N5 N 0.67988(8) 0.60364(12) 0.35902(10)
Cu1_2 Cu 0.450100(12) 0.035880(17) 0.439530(15)
H7_2 H 0.3075 0.0256 0.5218
C6_2 C 0.28150(15) 0.05069(19) 0.65278(19)
H8_2 H 0.2416 0.0634 0.6300
H9_2 H 0.3324 0.0999 0.6609
H10_2 H 0.2642 0.0230 0.7128
N4_2 N 0.54499(8) 0.03901(11) 0.38578(10)
N5_2 N 0.39636(12) 0.07625(14) 0.35902(10)
N1_2 N 0.45501(8) 0.96099(11) 0.61422(10)
N2_2 N 0.41514(8) 0.99103(11) 0.56306(10)
N3_2 N 0.34655(8) 0.93697(12) 0.69235(10)
C1_2 C 0.41221(10) 0.92971(14) 0.69094(12)
C2_2 C 0.43389(11) 0.89173(16) 0.76727(14)
H1_2 H 0.4420 0.9222 0.8256
H2_2 H 0.4849 0.8948 0.7513
C3_2 C 0.37184(15) 0.80532(21) 0.7848(2)
H3_2 H 0.3895 0.7844 0.8360
H4_2 H 0.3648 0.7742 0.7281
H5_2 H 0.3212 0.8016 0.8016
C4_2 C 0.35128(10) 0.97541(14) 0.61212(12)
C5_2 C 0.29124(11) 0.99769(15) 0.58259(13)
H6_2 H 0.2393 0.9487 0.5737
Cu2_2 Cu 0.549900(12) 0.964120(17) 0.560470(15)
Cu3_2 Cu 0.252447(12) 0.883233(21) 0.772863(15)
N1_3 N 0.03901(11) 0.49402(8) 0.61422(10)
N2_3 N 0.00897(11) 0.42411(8) 0.56306(10)
N3_3 N 0.06303(12) 0.40958(9) 0.69235(10)
C1_3 C 0.07029(14) 0.48250(10) 0.69094(12)
C2_3 C 0.10827(16) 0.54216(12) 0.76727(14)
H1_3 H 0.0778 0.5198 0.8256
H2_3 H 0.1052 0.5901 0.7513
C3_3 C 0.19468(21) 0.56652(15) 0.7848(2)
H3_3 H 0.2156 0.6051 0.8360
H4_3 H 0.2258 0.5906 0.7281
H5_3 H 0.1984 0.5196 0.8016
C4_3 C 0.02459(14) 0.37587(10) 0.61212(12)
C5_3 C 0.00231(15) 0.29355(10) 0.58259(13)
H6_3 H 0.0513 0.2906 0.5737
Cu2_3 Cu 0.035880(17) 0.585780(12) 0.560470(15)
Cu3_3 Cu 0.116767(21) 0.369213(17) 0.772863(15)
Cu1_3 Cu 0.964120(17) 0.414220(12) 0.439530(15)
H7_3 H 0.9744 0.2819 0.5218
C6_3 C 0.94931(19) 0.23081(12) 0.65278(19)
H8_3 H 0.9366 0.1782 0.6300
H9_3 H 0.9001 0.2325 0.6609
H10_3 H 0.9770 0.2412 0.7128
N4_3 N 0.96099(11) 0.50598(8) 0.38578(10)
N5_3 N 0.92375(14) 0.32012(8) 0.35902(10)
H5_4 H 0.1471 0.0121 0.1349
H10_4 H 0.4255 0.0691 0.0461
Cu3_4 Cu 0.297453(17) 0.080887(12) 0.106197(15)
N1_4 N 0.17265(8) 0.87832(8) 0.94755(10)
N2_4 N 0.24256(8) 0.91819(8) 0.89639(10)
C4_4 C 0.29080(10) 0.98205(10) 0.94545(12)
Cu2_4 Cu 0.080887(12) 0.783433(12) 0.893803(15)
N4_4 N 0.16069(8) 0.78834(8) 0.71911(10)
N1_5 N 0.12168(8) 0.29432(11) 0.94755(10)
N2_5 N 0.08181(8) 0.32436(11) 0.89639(10)
C4_5 C 0.01795(10) 0.30874(14) 0.94545(12)
Cu2_5 Cu 0.216567(12) 0.297453(17) 0.893803(15)
N4_5 N 0.21166(8) 0.37234(11) 0.71911(10)
H5_5 H 0.9879 0.1349 0.1349
H10_5 H 0.9309 0.3563 0.0461
Cu3_5 Cu 0.919113(12) 0.216567(21) 0.106197(15)
N3_4 N 0.72970(12) 0.74291(9) 0.02568(10)
C1_4 C 0.73696(14) 0.81583(10) 0.02427(12)
C2_4 C 0.77494(16) 0.87549(12) 0.10060(14)
H1_4 H 0.7445 0.8531 0.1589
H2_4 H 0.7719 0.9234 0.0846
C3_4 C 0.86135(21) 0.89985(15) 0.1181(2)
H3_4 H 0.8823 0.9384 0.1693
H4_4 H 0.8925 0.9239 0.0614
H5_6 H 0.8651 0.8529 0.1349
H10_6 H 0.6437 0.5745 0.0461
Cu3_6 Cu 0.783433(21) 0.702547(17) 0.106197(15)
N1_6 N 0.70568(11) 0.82735(8) 0.94755(10)
N2_6 N 0.67564(11) 0.75744(8) 0.89639(10)
C4_6 C 0.69126(14) 0.70920(10) 0.94545(12)
C5_4 C 0.66898(15) 0.62688(10) 0.91592(13)
H6_4 H 0.7180 0.6239 0.9070
H7_4 H 0.6411 0.6152 0.8551
C6_4 C 0.61598(19) 0.56414(12) 0.98611(19)
H8_4 H 0.6033 0.5115 0.9633
H9_4 H 0.5668 0.5658 0.9942
Cu2_6 Cu 0.702547(17) 0.919113(12) 0.893803(15)
N4_6 N 0.62766(11) 0.83931(8) 0.71911(10)
N1_7 N 0.83931(8) 0.21166(8) 0.28089(10)
N2_7 N 0.90922(8) 0.25153(8) 0.22973(10)
C1_5 C 0.85083(10) 0.25446(10) 0.35761(12)
C2_5 C 0.79117(12) 0.23278(11) 0.43394(14)
H1_5 H 0.8135 0.2247 0.4923
H2_5 H 0.7432 0.1818 0.4180
C3_5 C 0.76681(15) 0.29483(15) 0.4515(2)
H3_5 H 0.7282 0.2772 0.5027
H4_5 H 0.7427 0.3019 0.3948
H5_7 H 0.8137 0.3455 0.4683
C4_7 C 0.95746(10) 0.31539(10) 0.27879(12)
Cu2_7 Cu 0.747553(12) 0.116767(12) 0.227137(15)
N4_7 N 0.82735(8) 0.12168(8) 0.05245(10)
N1_8 N 0.78834(8) 0.62766(11) 0.28089(10)
N2_8 N 0.74847(8) 0.65770(11) 0.22973(10)
C1_6 C 0.74554(10) 0.59638(14) 0.35761(12)
C2_6 C 0.76722(11) 0.55840(16) 0.43394(14)
H1_6 H 0.7753 0.5889 0.4923
H2_6 H 0.8182 0.5615 0.4180
C3_6 C 0.70517(15) 0.47199(21) 0.4515(2)
H3_6 H 0.7228 0.4511 0.5027
H4_6 H 0.6981 0.4409 0.3948
H5_8 H 0.6545 0.4683 0.4683
C4_8 C 0.68461(10) 0.64208(14) 0.27879(12)
C5_5 C 0.62457(11) 0.66436(15) 0.24926(13)
H6_5 H 0.5726 0.6154 0.2404
H7_5 H 0.6408 0.6923 0.1885
C6_5 C 0.61483(15) 0.71736(19) 0.31945(19)
H8_5 H 0.5749 0.7301 0.2967
H9_5 H 0.6657 0.7666 0.3276
H10_7 H 0.5975 0.6897 0.3795
Cu2_8 Cu 0.883233(12) 0.630787(17) 0.227137(15)
N4_8 N 0.87832(8) 0.70568(11) 0.05245(10)
N1_9 N 0.37234(11) 0.16069(8) 0.28089(10)
N2_9 N 0.34230(11) 0.09078(8) 0.22973(10)
C1_7 C 0.40362(14) 0.14917(10) 0.35761(12)
C2_7 C 0.44160(16) 0.20883(12) 0.43394(14)
H1_7 H 0.4111 0.1865 0.4923
H2_7 H 0.4385 0.2568 0.4180
C3_7 C 0.52801(21) 0.23319(15) 0.4515(2)
H3_7 H 0.5489 0.2718 0.5027
H4_7 H 0.5591 0.2573 0.3948
H5_9 H 0.5317 0.1863 0.4683
C4_9 C 0.35792(14) 0.04254(10) 0.27879(12)
Cu2_9 Cu 0.369213(17) 0.252447(12) 0.227137(15)
N4_9 N 0.29432(11) 0.17265(8) 0.05245(10)
N2_10 N 0.42411(8) 0.41514(8) 0.43694(10)
N3_5 N 0.40958(9) 0.34655(8) 0.30765(10)
C1_8 C 0.48250(10) 0.41221(10) 0.30906(12)
C2_8 C 0.54216(12) 0.43389(11) 0.23273(14)
H1_8 H 0.5198 0.4420 0.1744
H2_8 H 0.5901 0.4849 0.2487
C3_8 C 0.56652(15) 0.37184(15) 0.2152(2)
H3_8 H 0.6051 0.3895 0.1640
H4_8 H 0.5906 0.3648 0.2719
H5_10 H 0.5196 0.3212 0.1984
C4_10 C 0.37587(10) 0.35128(10) 0.38788(12)
C5_6 C 0.29355(10) 0.29124(11) 0.41741(13)
H6_6 H 0.2906 0.2393 0.4263
H7_6 H 0.2819 0.3075 0.4782
C6_6 C 0.23081(12) 0.28150(15) 0.34722(19)
H8_6 H 0.1782 0.2416 0.3700
H9_6 H 0.2325 0.3324 0.3391
H10_8 H 0.2412 0.2642 0.2872
N5_4 N 0.32012(8) 0.39636(12) 0.64098(10)
N2_11 N 0.58486(8) 0.00897(11) 0.43694(10)
N3_6 N 0.65345(8) 0.06303(12) 0.30765(10)
C1_9 C 0.58779(10) 0.07029(14) 0.30906(12)
C2_9 C 0.56611(11) 0.10827(16) 0.23273(14)
H1_9 H 0.5580 0.0778 0.1744
H2_9 H 0.5151 0.1052 0.2487
C3_9 C 0.62816(15) 0.19468(21) 0.2152(2)
H3_9 H 0.6105 0.2156 0.1640
H4_9 H 0.6352 0.2258 0.2719
H5_11 H 0.6788 0.1984 0.1984
C4_11 C 0.64872(10) 0.02459(14) 0.38788(12)
C5_7 C 0.70876(11) 0.00231(15) 0.41741(13)
H6_7 H 0.7607 0.0513 0.4263
H7_7 H 0.6925 0.9744 0.4782
C6_7 C 0.71850(15) 0.94931(19) 0.34722(19)
H8_7 H 0.7584 0.9366 0.3700
H9_7 H 0.6676 0.9001 0.3391
H10_9 H 0.7358 0.9770 0.2872
N5_5 N 0.60364(12) 0.92375(14) 0.64098(10)
H7_8 H 0.0256 0.7181 0.4782
C6_8 C 0.05069(19) 0.76919(12) 0.34722(19)
H8_8 H 0.0634 0.8218 0.3700
H9_8 H 0.0999 0.7675 0.3391
H10_10 H 0.0230 0.7588 0.2872
N5_6 N 0.07625(14) 0.67988(8) 0.64098(10)
N2_12 N 0.99103(11) 0.57589(8) 0.43694(10)
N3_7 N 0.93697(12) 0.59042(9) 0.30765(10)
C1_10 C 0.92971(14) 0.51750(10) 0.30906(12)
C2_10 C 0.89173(16) 0.45784(12) 0.23273(14)
H1_10 H 0.9222 0.4802 0.1744
H2_10 H 0.8948 0.4099 0.2487
C3_10 C 0.80532(21) 0.43348(15) 0.2152(2)
H3_10 H 0.7844 0.3949 0.1640
H4_10 H 0.7742 0.4094 0.2719
H5_12 H 0.8016 0.4804 0.1984
C4_12 C 0.97541(14) 0.62413(10) 0.38788(12)
C5_8 C 0.99769(15) 0.70645(10) 0.41741(13)
H6_8 H 0.9487 0.7094 0.4263
N2_13 N 0.75744(8) 0.08181(8) 0.10361(10)
C4_13 C 0.70920(10) 0.01795(10) 0.05455(12)
H5_13 H 0.8529 0.9879 0.8651
H10_11 H 0.5745 0.9309 0.9539
H5_14 H 0.0121 0.8651 0.8651
H10_12 H 0.0691 0.6437 0.9539
N2_14 N 0.91819(8) 0.67564(11) 0.10361(10)
C4_14 C 0.98205(10) 0.69126(14) 0.05455(12)
N2_15 N 0.32436(11) 0.24256(8) 0.10361(10)
C4_15 C 0.30874(14) 0.29080(10) 0.05455(12)
C5_9 C 0.33102(15) 0.37312(10) 0.08408(13)
H6_9 H 0.2820 0.3761 0.0930
H7_9 H 0.3589 0.3848 0.1449
C6_9 C 0.38402(19) 0.43586(12) 0.01389(19)
H8_9 H 0.3967 0.4885 0.0367
H9_9 H 0.4332 0.4342 0.0058
N3_8 N 0.27030(12) 0.25709(9) 0.97432(10)
C1_11 C 0.26304(14) 0.18417(10) 0.97573(12)
C2_11 C 0.22506(16) 0.12451(12) 0.89940(14)
H1_11 H 0.2555 0.1469 0.8411
H2_11 H 0.2281 0.0766 0.9154
C3_11 C 0.13865(21) 0.10015(15) 0.8819(2)
H3_11 H 0.1177 0.0616 0.8307
H4_11 H 0.1075 0.0761 0.9386
H5_15 H 0.1349 0.1471 0.8651
H10_13 H 0.3563 0.4255 0.9539
N2_16 N 0.09078(8) 0.74847(8) 0.77027(10)
C1_12 C 0.14917(10) 0.74554(10) 0.64239(12)
C2_12 C 0.20883(12) 0.76722(11) 0.56606(14)
H1_12 H 0.1865 0.7753 0.5077
H2_12 H 0.2568 0.8182 0.5820
C3_12 C 0.23319(15) 0.70517(15) 0.5485(2)
H3_12 H 0.2718 0.7228 0.4973
H4_12 H 0.2573 0.6981 0.6052
H5_16 H 0.1863 0.6545 0.5317
C4_16 C 0.04254(10) 0.68461(10) 0.72121(12)
N2_17 N 0.25153(8) 0.34230(11) 0.77027(10)
C1_13 C 0.25446(10) 0.40362(14) 0.64239(12)
C2_13 C 0.23278(11) 0.44160(16) 0.56606(14)
H1_13 H 0.2247 0.4111 0.5077
H2_13 H 0.1818 0.4385 0.5820
C3_13 C 0.29483(15) 0.52801(21) 0.5485(2)
H3_13 H 0.2772 0.5489 0.4973
H4_13 H 0.3019 0.5591 0.6052
H5_17 H 0.3455 0.5317 0.5317
C4_17 C 0.31539(10) 0.35792(14) 0.72121(12)
C5_10 C 0.37543(11) 0.33564(15) 0.75074(13)
H6_10 H 0.4274 0.3846 0.7596
H7_10 H 0.3592 0.3077 0.8115
C6_10 C 0.38517(15) 0.28264(19) 0.68055(19)
H8_10 H 0.4251 0.2699 0.7033
H9_10 H 0.3343 0.2334 0.6724
H10_14 H 0.4025 0.3103 0.6205
N2_18 N 0.65770(11) 0.90922(8) 0.77027(10)
C1_14 C 0.59638(14) 0.85083(10) 0.64239(12)
C2_14 C 0.55840(16) 0.79117(12) 0.56606(14)
H1_14 H 0.5889 0.8135 0.5077
H2_14 H 0.5615 0.7432 0.5820
C3_14 C 0.47199(21) 0.76681(15) 0.5485(2)
H3_14 H 0.4511 0.7282 0.4973
H4_14 H 0.4409 0.7427 0.6052
H5_18 H 0.4683 0.8137 0.5317
C4_18 C 0.64208(14) 0.95746(10) 0.72121(12)
C5_11 C 0.37312(10) 0.04209(11) 0.91592(13)
H6_11 H 0.3761 0.0940 0.9070
H7_11 H 0.3848 0.0258 0.8551
C6_11 C 0.43586(12) 0.05183(15) 0.98611(19)
H8_11 H 0.4885 0.0917 0.9633
H9_11 H 0.4342 0.0009 0.9942
N3_9 N 0.25709(9) 0.98678(8) 0.02568(10)
C1_15 C 0.18417(10) 0.92112(10) 0.02427(12)
C2_15 C 0.12451(12) 0.89944(11) 0.10060(14)
H1_15 H 0.1469 0.8913 0.1589
H2_15 H 0.0766 0.8484 0.0846
C3_15 C 0.10015(15) 0.96149(15) 0.1181(2)
H3_15 H 0.0616 0.9438 0.1693
H4_15 H 0.0761 0.9685 0.0614
C5_12 C 0.33564(15) 0.96022(10) 0.24926(13)
H6_12 H 0.3846 0.9573 0.2404
H7_12 H 0.3077 0.9486 0.1885
C6_12 C 0.28264(19) 0.89748(12) 0.31945(19)
H8_12 H 0.2699 0.8449 0.2967
H9_12 H 0.2334 0.8992 0.3276
H10_15 H 0.3103 0.9079 0.3795
N3_10 N 0.01322(8) 0.27030(12) 0.02568(10)
C1_16 C 0.07888(10) 0.26304(14) 0.02427(12)
C2_16 C 0.10056(11) 0.22506(16) 0.10060(14)
H1_16 H 0.1087 0.2555 0.1589
H2_16 H 0.1516 0.2281 0.0846
C3_16 C 0.03851(15) 0.13865(21) 0.1181(2)
H3_16 H 0.0562 0.1177 0.1693
H4_16 H 0.0315 0.1075 0.0614
C5_13 C 0.03978(10) 0.37543(11) 0.24926(13)
H6_13 H 0.0427 0.4274 0.2404
H7_13 H 0.0514 0.3592 0.1885
C6_13 C 0.10252(12) 0.38517(15) 0.31945(19)
H8_13 H 0.1551 0.4251 0.2967
H9_13 H 0.1008 0.3343 0.3276
H10_16 H 0.0921 0.4025 0.3795
C5_14 C 0.95791(11) 0.33102(15) 0.91592(13)
H6_14 H 0.9060 0.2820 0.9070
H7_14 H 0.9742 0.3589 0.8551
C6_14 C 0.94817(15) 0.38402(19) 0.98611(19)
H8_14 H 0.9083 0.3967 0.9633
H9_14 H 0.9991 0.4332 0.9942
N3_11 N 0.74291(9) 0.01322(8) 0.97432(10)
C1_17 C 0.81583(10) 0.07888(10) 0.97573(12)
C2_17 C 0.87549(12) 0.10056(11) 0.89940(14)
H1_17 H 0.8531 0.1087 0.8411
H2_17 H 0.9234 0.1516 0.9154
C3_17 C 0.89985(15) 0.03851(15) 0.8819(2)
H3_17 H 0.9384 0.0562 0.8307
H4_17 H 0.9239 0.0315 0.9386
C5_15 C 0.66436(15) 0.03978(10) 0.75074(13)
H6_15 H 0.6154 0.0427 0.7596
H7_15 H 0.6923 0.0514 0.8115
C6_15 C 0.71736(19) 0.10252(12) 0.68055(19)
H8_15 H 0.7301 0.1551 0.7033
H9_15 H 0.7666 0.1008 0.6724
H10_17 H 0.6897 0.0921 0.6205
C5_16 C 0.62688(10) 0.95791(11) 0.08408(13)
H6_16 H 0.6239 0.9060 0.0930
H7_16 H 0.6152 0.9742 0.1449
C6_16 C 0.56414(12) 0.94817(15) 0.01389(19)
H8_16 H 0.5115 0.9083 0.0367
H9_16 H 0.5658 0.9991 0.0058
C5_17 C 0.04209(11) 0.66898(15) 0.08408(13)
H6_17 H 0.0940 0.7180 0.0930
H7_17 H 0.0258 0.6411 0.1449
C6_17 C 0.05183(15) 0.61598(19) 0.01389(19)
H8_17 H 0.0917 0.6033 0.0367
H9_17 H 0.0009 0.5668 0.0058
N3_12 N 0.98678(8) 0.72970(12) 0.97432(10)
C1_18 C 0.92112(10) 0.73696(14) 0.97573(12)
C2_18 C 0.89944(11) 0.77494(16) 0.89940(14)
H1_18 H 0.8913 0.7445 0.8411
H2_18 H 0.8484 0.7719 0.9154
C3_18 C 0.96149(15) 0.86135(21) 0.8819(2)
H3_18 H 0.9438 0.8823 0.8307
H4_18 H 0.9685 0.8925 0.9386
C5_18 C 0.96022(10) 0.62457(11) 0.75074(13)
H6_18 H 0.9573 0.5726 0.7596
H7_18 H 0.9486 0.6408 0.8115
C6_18 C 0.89748(12) 0.61483(15) 0.68055(19)
H8_18 H 0.8449 0.5749 0.7033
H9_18 H 0.8992 0.6657 0.6724
H10_18 H 0.9079 0.5975 0.6205
loop_
_geom_bond_atom_site_label_1
_geom_bond_atom_site_label_2
_geom_bond_site_symmetry_1
_geom_bond_site_symmetry_2
Cu1 N2 1_555 1_555
N1 N2 1_555 1_555
N2 C4 1_555 1_555
N3 C1 1_555 1_555
C1 N1 1_555 1_555
C2 C1 1_555 1_555
H1 C2 1_555 1_555
H2 C2 1_555 1_555
C3 C2 1_555 1_555
H3 C3 1_555 1_555
H4 C3 1_555 1_555
H5 C3 1_555 1_555
C4 N3 1_555 1_555
C5 C4 1_555 1_555
H6 C5 1_555 1_555
H7 C5 1_555 1_555
C6 C5 1_555 1_555
H8 C6 1_555 1_555
H9 C6 1_555 1_555
H10 C6 1_555 1_555
Cu2 N1 1_555 1_555
Cu3 N3 1_555 1_555
N4 Cu1 1_555 1_555
N5 Cu1 1_555 1_555
H8_2 C6_2 1_555 1_555
H9_2 C6_2 1_555 1_555
H10_2 C6_2 1_555 1_555
N4_2 Cu1_2 1_555 1_555
N5_2 Cu1_2 1_555 1_555
N1_2 N2_2 1_555 1_555
N2_2 C4_2 1_555 1_555
N3_2 C1_2 1_555 1_555
C1_2 N1_2 1_555 1_555
C2_2 C1_2 1_555 1_555
H1_2 C2_2 1_555 1_555
H2_2 C2_2 1_555 1_555
C3_2 C2_2 1_555 1_555
H3_2 C3_2 1_555 1_555
H4_2 C3_2 1_555 1_555
H5_2 C3_2 1_555 1_555
C4_2 N3_2 1_555 1_555
C5_2 C4_2 1_555 1_555
H6_2 C5_2 1_555 1_555
Cu2_2 N1_2 1_555 1_555
Cu3_2 N3_2 1_555 1_555
N1_3 N2_3 1_555 1_555
N2_3 C4_3 1_555 1_555
N3_3 C1_3 1_555 1_555
C1_3 N1_3 1_555 1_555
C2_3 C1_3 1_555 1_555
H1_3 C2_3 1_555 1_555
H2_3 C2_3 1_555 1_555
C3_3 C2_3 1_555 1_555
H3_3 C3_3 1_555 1_555
H4_3 C3_3 1_555 1_555
H5_3 C3_3 1_555 1_555
C4_3 N3_3 1_555 1_555
C5_3 C4_3 1_555 1_555
H6_3 C5_3 1_555 1_555
Cu2_3 N1_3 1_555 1_555
Cu3_3 N3_3 1_555 1_555
H8_3 C6_3 1_555 1_555
H9_3 C6_3 1_555 1_555
H10_3 C6_3 1_555 1_555
N4_3 Cu1_3 1_555 1_555
N5_3 Cu1_3 1_555 1_555
Cu3_2 N2_4 1_555 1_555
N1_4 N2_4 1_555 1_555
N2_4 C4_4 1_555 1_555
Cu2_4 N1_4 1_555 1_555
N4_4 Cu3_2 1_555 1_555
Cu3_3 N2_5 1_555 1_555
N1_5 N2_5 1_555 1_555
N2_5 C4_5 1_555 1_555
Cu2_5 N1_5 1_555 1_555
N4_5 Cu3_3 1_555 1_555
N3_4 C1_4 1_555 1_555
C2_4 C1_4 1_555 1_555
H1_4 C2_4 1_555 1_555
H2_4 C2_4 1_555 1_555
C3_4 C2_4 1_555 1_555
H3_4 C3_4 1_555 1_555
H4_4 C3_4 1_555 1_555
H5_6 C3_4 1_555 1_555
Cu3_6 N3_4 1_555 1_555
Cu3 N2_6 1_555 1_555
N1_6 N2_6 1_555 1_555
N2_6 C4_6 1_555 1_555
C5_4 C4_6 1_555 1_555
H6_4 C5_4 1_555 1_555
H7_4 C5_4 1_555 1_555
C6_4 C5_4 1_555 1_555
H8_4 C6_4 1_555 1_555
H9_4 C6_4 1_555 1_555
Cu2_6 N1_6 1_555 1_555
N4_6 Cu3 1_555 1_555
Cu3_5 N2_7 1_555 1_555
N1_7 N2_7 1_555 1_555
N2_7 C4_7 1_555 1_555
N5_3 C1_5 1_555 1_555
C1_5 N1_7 1_555 1_555
C2_5 C1_5 1_555 1_555
H1_5 C2_5 1_555 1_555
H2_5 C2_5 1_555 1_555
C3_5 C2_5 1_555 1_555
H3_5 C3_5 1_555 1_555
H4_5 C3_5 1_555 1_555
H5_7 C3_5 1_555 1_555
C4_7 N5_3 1_555 1_555
Cu2_7 N1_7 1_555 1_555
N4_7 Cu3_5 1_555 1_555
Cu3_6 N2_8 1_555 1_555
N1_8 N2_8 1_555 1_555
N2_8 C4_8 1_555 1_555
N5 C1_6 1_555 1_555
C1_6 N1_8 1_555 1_555
C2_6 C1_6 1_555 1_555
H1_6 C2_6 1_555 1_555
H2_6 C2_6 1_555 1_555
C3_6 C2_6 1_555 1_555
H3_6 C3_6 1_555 1_555
H4_6 C3_6 1_555 1_555
H5_8 C3_6 1_555 1_555
C4_8 N5 1_555 1_555
C5_5 C4_8 1_555 1_555
H6_5 C5_5 1_555 1_555
H7_5 C5_5 1_555 1_555
C6_5 C5_5 1_555 1_555
H8_5 C6_5 1_555 1_555
H9_5 C6_5 1_555 1_555
H10_7 C6_5 1_555 1_555
Cu2_8 N1_8 1_555 1_555
N4_8 Cu3_6 1_555 1_555
Cu3_4 N2_9 1_555 1_555
N1_9 N2_9 1_555 1_555
N2_9 C4_9 1_555 1_555
N5_2 C1_7 1_555 1_555
C1_7 N1_9 1_555 1_555
C2_7 C1_7 1_555 1_555
H1_7 C2_7 1_555 1_555
H2_7 C2_7 1_555 1_555
C3_7 C2_7 1_555 1_555
H3_7 C3_7 1_555 1_555
H4_7 C3_7 1_555 1_555
H5_9 C3_7 1_555 1_555
C4_9 N5_2 1_555 1_555
Cu2_9 N1_9 1_555 1_555
N4_9 Cu3_4 1_555 1_555
Cu2 N2_10 1_555 1_555
N4 N2_10 1_555 1_555
N2_10 C4_10 1_555 1_555
N3_5 C1_8 1_555 1_555
C1_8 N4 1_555 1_555
C2_8 C1_8 1_555 1_555
H1_8 C2_8 1_555 1_555
H2_8 C2_8 1_555 1_555
C3_8 C2_8 1_555 1_555
H3_8 C3_8 1_555 1_555
H4_8 C3_8 1_555 1_555
H5_10 C3_8 1_555 1_555
C4_10 N3_5 1_555 1_555
C5_6 C4_10 1_555 1_555
H6_6 C5_6 1_555 1_555
H7_6 C5_6 1_555 1_555
C6_6 C5_6 1_555 1_555
H8_6 C6_6 1_555 1_555
H9_6 C6_6 1_555 1_555
H10_8 C6_6 1_555 1_555
Cu2_9 N3_5 1_555 1_555
N5_4 Cu2 1_555 1_555
N4_2 N2_11 1_555 1_555
N2_11 C4_11 1_555 1_555
N3_6 C1_9 1_555 1_555
C1_9 N4_2 1_555 1_555
C2_9 C1_9 1_555 1_555
H1_9 C2_9 1_555 1_555
H2_9 C2_9 1_555 1_555
C3_9 C2_9 1_555 1_555
H3_9 C3_9 1_555 1_555
H4_9 C3_9 1_555 1_555
H5_11 C3_9 1_555 1_555
C4_11 N3_6 1_555 1_555
C5_7 C4_11 1_555 1_555
H6_7 C5_7 1_555 1_555
Cu2_7 N3_6 1_555 1_555
H8_7 C6_7 1_555 1_555
H9_7 C6_7 1_555 1_555
H10_9 C6_7 1_555 1_555
N5_5 Cu2_2 1_555 1_555
H8_8 C6_8 1_555 1_555
H9_8 C6_8 1_555 1_555
H10_10 C6_8 1_555 1_555
N5_6 Cu2_3 1_555 1_555
N4_3 N2_12 1_555 1_555
N2_12 C4_12 1_555 1_555
N3_7 C1_10 1_555 1_555
C1_10 N4_3 1_555 1_555
C2_10 C1_10 1_555 1_555
H1_10 C2_10 1_555 1_555
H2_10 C2_10 1_555 1_555
C3_10 C2_10 1_555 1_555
H3_10 C3_10 1_555 1_555
H4_10 C3_10 1_555 1_555
H5_12 C3_10 1_555 1_555
C4_12 N3_7 1_555 1_555
C5_8 C4_12 1_555 1_555
H6_8 C5_8 1_555 1_555
Cu2_8 N3_7 1_555 1_555
Cu2_7 N2_13 1_555 1_555
N4_7 N2_13 1_555 1_555
N2_13 C4_13 1_555 1_555
Cu2_8 N2_14 1_555 1_555
N4_8 N2_14 1_555 1_555
N2_14 C4_14 1_555 1_555
Cu2_9 N2_15 1_555 1_555
N4_9 N2_15 1_555 1_555
N2_15 C4_15 1_555 1_555
C5_9 C4_15 1_555 1_555
H6_9 C5_9 1_555 1_555
H7_9 C5_9 1_555 1_555
C6_9 C5_9 1_555 1_555
H8_9 C6_9 1_555 1_555
H9_9 C6_9 1_555 1_555
N3_8 C1_11 1_555 1_555
C2_11 C1_11 1_555 1_555
H1_11 C2_11 1_555 1_555
H2_11 C2_11 1_555 1_555
C3_11 C2_11 1_555 1_555
H3_11 C3_11 1_555 1_555
H4_11 C3_11 1_555 1_555
H5_15 C3_11 1_555 1_555
Cu2_5 N3_8 1_555 1_555
Cu2_4 N2_16 1_555 1_555
N4_4 N2_16 1_555 1_555
N2_16 C4_16 1_555 1_555
N5_6 C1_12 1_555 1_555
C1_12 N4_4 1_555 1_555
C2_12 C1_12 1_555 1_555
H1_12 C2_12 1_555 1_555
H2_12 C2_12 1_555 1_555
C3_12 C2_12 1_555 1_555
H3_12 C3_12 1_555 1_555
H4_12 C3_12 1_555 1_555
H5_16 C3_12 1_555 1_555
C4_16 N5_6 1_555 1_555
Cu2_5 N2_17 1_555 1_555
N4_5 N2_17 1_555 1_555
N2_17 C4_17 1_555 1_555
N5_4 C1_13 1_555 1_555
C1_13 N4_5 1_555 1_555
C2_13 C1_13 1_555 1_555
H1_13 C2_13 1_555 1_555
H2_13 C2_13 1_555 1_555
C3_13 C2_13 1_555 1_555
H3_13 C3_13 1_555 1_555
H4_13 C3_13 1_555 1_555
H5_17 C3_13 1_555 1_555
C4_17 N5_4 1_555 1_555
C5_10 C4_17 1_555 1_555
H6_10 C5_10 1_555 1_555
H7_10 C5_10 1_555 1_555
C6_10 C5_10 1_555 1_555
H8_10 C6_10 1_555 1_555
H9_10 C6_10 1_555 1_555
H10_14 C6_10 1_555 1_555
Cu2_6 N2_18 1_555 1_555
N4_6 N2_18 1_555 1_555
N2_18 C4_18 1_555 1_555
N5_5 C1_14 1_555 1_555
C1_14 N4_6 1_555 1_555
C2_14 C1_14 1_555 1_555
H1_14 C2_14 1_555 1_555
H2_14 C2_14 1_555 1_555
C3_14 C2_14 1_555 1_555
H3_14 C3_14 1_555 1_555
H4_14 C3_14 1_555 1_555
H5_18 C3_14 1_555 1_555
C4_18 N5_5 1_555 1_555
H6_11 C5_11 1_555 1_555
H7_11 C5_11 1_555 1_555
C6_11 C5_11 1_555 1_555
H8_11 C6_11 1_555 1_555
H9_11 C6_11 1_555 1_555
N3_9 C1_15 1_555 1_555
C2_15 C1_15 1_555 1_555
H1_15 C2_15 1_555 1_555
H2_15 C2_15 1_555 1_555
C3_15 C2_15 1_555 1_555
H3_15 C3_15 1_555 1_555
H4_15 C3_15 1_555 1_555
H6_12 C5_12 1_555 1_555
H7_12 C5_12 1_555 1_555
C6_12 C5_12 1_555 1_555
H8_12 C6_12 1_555 1_555
H9_12 C6_12 1_555 1_555
H10_15 C6_12 1_555 1_555
N3_10 C1_16 1_555 1_555
C2_16 C1_16 1_555 1_555
H1_16 C2_16 1_555 1_555
H2_16 C2_16 1_555 1_555
C3_16 C2_16 1_555 1_555
H3_16 C3_16 1_555 1_555
H4_16 C3_16 1_555 1_555
H6_13 C5_13 1_555 1_555
H7_13 C5_13 1_555 1_555
C6_13 C5_13 1_555 1_555
H8_13 C6_13 1_555 1_555
H9_13 C6_13 1_555 1_555
H10_16 C6_13 1_555 1_555
H6_14 C5_14 1_555 1_555
H7_14 C5_14 1_555 1_555
C6_14 C5_14 1_555 1_555
H8_14 C6_14 1_555 1_555
H9_14 C6_14 1_555 1_555
N3_11 C1_17 1_555 1_555
C2_17 C1_17 1_555 1_555
H1_17 C2_17 1_555 1_555
H2_17 C2_17 1_555 1_555
C3_17 C2_17 1_555 1_555
H3_17 C3_17 1_555 1_555
H4_17 C3_17 1_555 1_555
H6_15 C5_15 1_555 1_555
H7_15 C5_15 1_555 1_555
C6_15 C5_15 1_555 1_555
H8_15 C6_15 1_555 1_555
H9_15 C6_15 1_555 1_555
H10_17 C6_15 1_555 1_555
H6_16 C5_16 1_555 1_555
H7_16 C5_16 1_555 1_555
C6_16 C5_16 1_555 1_555
H8_16 C6_16 1_555 1_555
H9_16 C6_16 1_555 1_555
H6_17 C5_17 1_555 1_555
H7_17 C5_17 1_555 1_555
C6_17 C5_17 1_555 1_555
H8_17 C6_17 1_555 1_555
H9_17 C6_17 1_555 1_555
N3_12 C1_18 1_555 1_555
C2_18 C1_18 1_555 1_555
H1_18 C2_18 1_555 1_555
H2_18 C2_18 1_555 1_555
C3_18 C2_18 1_555 1_555
H3_18 C3_18 1_555 1_555
H4_18 C3_18 1_555 1_555
H6_18 C5_18 1_555 1_555
H7_18 C5_18 1_555 1_555
C6_18 C5_18 1_555 1_555
H8_18 C6_18 1_555 1_555
H9_18 C6_18 1_555 1_555
H10_18 C6_18 1_555 1_555

#END
