
###############################################################################
#
# This file contains modified crystal structure data generated from the
# MOF subset of the Cambridge Structural Database (CSD) v543 
# hosted by the Cambridge Crystallographic Data Centre (CCDC).
#
# This work is licensed under the Creative Commons
# Attribution-NonCommercial-ShareAlike 4.0 International License.
# To view a copy of this license, visit
# http://creativecommons.org/licenses/by-nc-sa/4.0/
# or send a letter to
# Creative Commons, PO Box 1866, Mountain View, CA 94042, USA.
#
# CIF created using the CSD Python API on 29 September 2022
# The structure has been converted into the P1 space group
# The structure has a 3D framework
# The original CSD entry BOHJAK is in the cubic crystal system
# The original CSD entry BOHJAK is in a Sohncke space group
# The framework has been calculated to contain at least 10.0% void space
# The void calculation uses a probe of radius 1.32A, grid spacing 0.4
# H atom positions have been added when not included in the experimental data
# Generated hydrogen atom positions removed from atoms on special positions
#
###############################################################################

data_BOHJAK
_chemical_formula_moiety         '(C84 H228 Al4 K4 O92 8-)n'
_symmetry_cell_setting           triclinic
_symmetry_space_group_name_H-M   'P 1'
_symmetry_Int_Tables_number      1
_space_group_name_Hall           'P 1'
loop_
_symmetry_equiv_pos_site_id
_symmetry_equiv_pos_as_xyz
1 x,y,z
_cell_length_a                   15.0093(9)
_cell_length_b                   15.0093(9)
_cell_length_c                   15.0093(9)
_cell_angle_alpha                90
_cell_angle_beta                 90
_cell_angle_gamma                90
_cell_volume                     3381.28
loop_
_atom_site_label
_atom_site_type_symbol
_atom_site_fract_x
_atom_site_fract_y
_atom_site_fract_z
K1 K 0.76012(5) 0.26012(5) 0.23988(5)
O2 O 0.7136(2) 0.08905(15) 0.20126(18)
O7 O 0.8642(9) 0.2306(9) 0.0868(7)
C1 C 0.7112(2) 0.0073(2) 0.2056(2)
H5 H 0.7206 0.0555 0.3824
H8 H 0.8586 0.0007 0.4716
H11 H 0.8629 0.0228 0.2968
Al2 Al 0.83582(6) 0.16418(6) 0.66418(6)
Al3 Al 0.33582(6) 0.33582(6) 0.33582(6)
O8 O 0.85821(15) 0.18416(15) 0.54287(14)
O9 O 0.45713(14) 0.35821(15) 0.31584(15)
O12 O 0.79874(18) 0.2136(2) 0.41095(15)
O13 O 0.58905(15) 0.29874(18) 0.2864(2)
O14 O 0.72408(15) 0.21322(14) 0.63278(13)
O15 O 0.36722(13) 0.22408(15) 0.28678(14)
H12 H 0.6856 0.2236 0.6707
H13 H 0.3293 0.1856 0.2764
O18 O 0.5539(2) 0.20350(19) 0.64956(17)
O19 O 0.35044(17) 0.0539(2) 0.29650(19)
H16 H 0.5129 0.2229 0.6801
H17 H 0.3199 0.0129 0.2771
O20 O 0.4732(2) 0.3702(2) 0.61780(19)
H18 H 0.4757 0.3435 0.6654
O22 O 0.62530(16) 0.4753(2) 0.5858(2)
O23 O 0.4142(2) 0.12530(16) 0.0247(2)
H20 H 0.6423 0.4915 0.5365
H21 H 0.4635 0.1423 0.0085
O24 O 0.9132(7) 0.3642(9) 0.2694(9)
O25 O 0.7306(9) 0.4132(7) 0.1358(9)
C8 C 0.7944(2) 0.2112(2) 0.4927(2)
C9 C 0.5073(2) 0.2944(2) 0.2888(2)
C10 C 0.7115(2) 0.24110(19) 0.5428(2)
C11 C 0.4572(2) 0.2115(2) 0.25890(19)
C12 C 0.6245(2) 0.2033(2) 0.5064(2)
C13 C 0.4936(2) 0.1245(2) 0.2967(2)
H22 H 0.6176 0.2206 0.4445
H23 H 0.5555 0.1176 0.2794
H24 H 0.6261 0.1387 0.5091
H25 H 0.4909 0.1261 0.3613
C14 C 0.5460(3) 0.2374(2) 0.5600(2)
C15 C 0.4400(2) 0.0460(3) 0.2626(2)
H26 H 0.4910 0.2139 0.5337
C16 C 0.5411(3) 0.3382(2) 0.5600(2)
C17 C 0.4400(2) 0.0411(3) 0.1618(2)
H28 H 0.5284 0.3586 0.4993
H29 H 0.5007 0.0284 0.1414
C18 C 0.6294(2) 0.3804(2) 0.5912(2)
C19 C 0.4088(2) 0.1294(2) 0.1196(2)
H30 H 0.6381 0.3643 0.6538
H31 H 0.3462 0.1381 0.1357
C20 C 0.7080(2) 0.3441(2) 0.5388(2)
C21 C 0.4612(2) 0.2080(2) 0.1559(2)
H32 H 0.7628 0.3683 0.5629
H33 H 0.4371 0.2628 0.1317
H34 H 0.7032 0.3629 0.4772
H35 H 0.5228 0.2032 0.1371
Al1 Al 0.66418(6) 0.83582(6) 0.16418(6)
O1 O 0.68416(15) 0.95713(14) 0.14179(15)
O3 O 0.71322(14) 0.86722(13) 0.27592(15)
H1 H 0.7236 0.8293 0.3144
O4 O 0.70350(19) 0.85044(17) 0.4461(2)
H2 H 0.7229 0.8199 0.4871
O5 O 0.8702(2) 0.88220(19) 0.5268(2)
H3 H 0.8435 0.8346 0.5243
O6 O 0.9753(2) 0.9142(2) 0.37470(16)
H4 H 0.9915 0.9635 0.3577
C2 C 0.74110(19) 0.9572(2) 0.2885(2)
C3 C 0.7033(2) 0.9936(2) 0.3755(2)
H6 H 0.6387 0.9909 0.3739
C4 C 0.7374(2) 0.9400(2) 0.4540(3)
H7 H 0.7139 0.9663 0.5090
C5 C 0.8382(2) 0.9400(2) 0.4589(3)
C6 C 0.8804(2) 0.9088(2) 0.3706(2)
H9 H 0.8643 0.8462 0.3619
C7 C 0.8441(2) 0.9612(2) 0.2920(2)
H10 H 0.8683 0.9371 0.2372
O10 O 0.64179(15) 0.81584(15) 0.04287(14)
O11 O 0.54287(14) 0.85821(15) 0.18416(15)
O16 O 0.77592(15) 0.78678(14) 0.13278(13)
O17 O 0.63278(13) 0.72408(15) 0.21322(14)
H14 H 0.8144 0.7764 0.1707
H15 H 0.6707 0.6856 0.2236
O21 O 0.38220(19) 0.9732(2) 0.1298(2)
H19 H 0.3346 0.9757 0.1565
H27 H 0.4663 0.9910 0.2861
H36 H 0.589474 0.696795 0.171302
H37 H 0.803205 0.828698 0.0894742
Al3_2 Al 0.16418(6) 0.66418(6) 0.83582(6)
O9_2 O 0.04287(14) 0.64179(15) 0.81584(15)
O15_2 O 0.13278(13) 0.77592(15) 0.78678(14)
H13_2 H 0.1707 0.8144 0.7764
O19_2 O 0.14956(17) 0.9461(2) 0.79650(19)
H17_2 H 0.1801 0.9871 0.7771
O23_2 O 0.0858(2) 0.87470(16) 0.5247(2)
H21_2 H 0.0365 0.8577 0.5085
C11_2 C 0.0428(2) 0.7885(2) 0.75890(19)
C13_2 C 0.0064(2) 0.8755(2) 0.7967(2)
H25_2 H 0.0091 0.8739 0.8613
C15_2 C 0.0600(2) 0.9540(3) 0.7626(2)
C17_2 C 0.0600(2) 0.9589(3) 0.6618(2)
C19_2 C 0.0912(2) 0.8706(2) 0.6196(2)
H31_2 H 0.1538 0.8619 0.6357
C21_2 C 0.0388(2) 0.7920(2) 0.6559(2)
H33_2 H 0.0629 0.7372 0.6317
O1_2 O 0.81584(15) 0.04287(14) 0.64179(15)
O3_2 O 0.78678(14) 0.13278(13) 0.77592(15)
H1_2 H 0.7764 0.1707 0.8144
O4_2 O 0.79650(19) 0.14956(17) 0.9461(2)
H2_2 H 0.7771 0.1801 0.9871
O6_2 O 0.5247(2) 0.0858(2) 0.87470(16)
H4_2 H 0.5085 0.0365 0.8577
C2_2 C 0.75890(19) 0.0428(2) 0.7885(2)
C3_2 C 0.7967(2) 0.0064(2) 0.8755(2)
H6_2 H 0.8613 0.0091 0.8739
C4_2 C 0.7626(2) 0.0600(2) 0.9540(3)
C5_2 C 0.6618(2) 0.0600(2) 0.9589(3)
C6_2 C 0.6196(2) 0.0912(2) 0.8706(2)
H9_2 H 0.6357 0.1538 0.8619
C7_2 C 0.6559(2) 0.0388(2) 0.7920(2)
H10_2 H 0.6317 0.0629 0.7372
O11_2 O 0.95713(14) 0.14179(15) 0.68416(15)
O17_2 O 0.86722(13) 0.27592(15) 0.71322(14)
H15_2 H 0.8293 0.3144 0.7236
H36_2 H 0.910526 0.303205 0.671302
H37_2 H 0.696795 0.171302 0.589474
O18_2 O 0.9461(2) 0.79650(19) 0.14956(17)
H16_2 H 0.9871 0.7771 0.1801
O22_2 O 0.87470(16) 0.5247(2) 0.0858(2)
H20_2 H 0.8577 0.5085 0.0365
C10_2 C 0.7885(2) 0.75890(19) 0.0428(2)
C12_2 C 0.8755(2) 0.7967(2) 0.0064(2)
H24_2 H 0.8739 0.8613 0.0091
C14_2 C 0.9540(3) 0.7626(2) 0.0600(2)
C16_2 C 0.9589(3) 0.6618(2) 0.0600(2)
C18_2 C 0.8706(2) 0.6196(2) 0.0912(2)
H30_2 H 0.8619 0.6357 0.1538
C20_2 C 0.7920(2) 0.6559(2) 0.0388(2)
H32_2 H 0.7372 0.6317 0.0629
K1_2 K 0.23988(5) 0.76012(5) 0.26012(5)
O1_3 O 0.31584(15) 0.45713(14) 0.35821(15)
O2_2 O 0.2864(2) 0.58905(15) 0.29874(18)
O3_3 O 0.28678(14) 0.36722(13) 0.22408(15)
H1_3 H 0.2764 0.3293 0.1856
O4_3 O 0.29650(19) 0.35044(17) 0.0539(2)
H2_3 H 0.2771 0.3199 0.0129
O6_3 O 0.0247(2) 0.4142(2) 0.12530(16)
H4_3 H 0.0085 0.4635 0.1423
O7_2 O 0.1358(9) 0.7306(9) 0.4132(7)
C1_2 C 0.2888(2) 0.5073(2) 0.2944(2)
C2_3 C 0.25890(19) 0.4572(2) 0.2115(2)
C3_3 C 0.2967(2) 0.4936(2) 0.1245(2)
H5_2 H 0.2794 0.5555 0.1176
H6_3 H 0.3613 0.4909 0.1261
C4_3 C 0.2626(2) 0.4400(2) 0.0460(3)
C5_3 C 0.1618(2) 0.4400(2) 0.0411(3)
H8_2 H 0.1414 0.5007 0.0284
C6_3 C 0.1196(2) 0.4088(2) 0.1294(2)
H9_3 H 0.1357 0.3462 0.1381
C7_3 C 0.1559(2) 0.4612(2) 0.2080(2)
H10_3 H 0.1317 0.4371 0.2628
H11_2 H 0.1371 0.5228 0.2032
O10_2 O 0.35821(15) 0.31584(15) 0.45713(14)
O12_2 O 0.20126(18) 0.7136(2) 0.08905(15)
O13_2 O 0.41095(15) 0.79874(18) 0.2136(2)
O16_2 O 0.22408(15) 0.28678(14) 0.36722(13)
H14_2 H 0.1856 0.2764 0.3293
O19_3 O 0.64956(17) 0.5539(2) 0.20350(19)
H17_3 H 0.6801 0.5129 0.2229
O21_2 O 0.61780(19) 0.4732(2) 0.3702(2)
H19_2 H 0.6654 0.4757 0.3435
O23_3 O 0.5858(2) 0.62530(16) 0.4753(2)
H21_3 H 0.5365 0.6423 0.4915
O24_2 O 0.0868(7) 0.8642(9) 0.2306(9)
O25_2 O 0.2694(9) 0.9132(7) 0.3642(9)
C8_2 C 0.2056(2) 0.7112(2) 0.0073(2)
C9_2 C 0.4927(2) 0.7944(2) 0.2112(2)
C11_3 C 0.5428(2) 0.7115(2) 0.24110(19)
C13_3 C 0.5064(2) 0.6245(2) 0.2033(2)
H22_2 H 0.3824 0.7206 0.0555
H23_2 H 0.4445 0.6176 0.2206
H25_3 H 0.5091 0.6261 0.1387
C15_3 C 0.5600(2) 0.5460(3) 0.2374(2)
H27_2 H 0.5337 0.4910 0.2139
C17_3 C 0.5600(2) 0.5411(3) 0.3382(2)
H28_2 H 0.4716 0.8586 0.0007
H29_2 H 0.4993 0.5284 0.3586
C19_3 C 0.5912(2) 0.6294(2) 0.3804(2)
H31_3 H 0.6538 0.6381 0.3643
C21_3 C 0.5388(2) 0.7080(2) 0.3441(2)
H33_3 H 0.5629 0.7628 0.3683
H34_2 H 0.2968 0.8629 0.0228
H35_2 H 0.4772 0.7032 0.3629
H36_3 H 0.410526 0.196795 0.328698
H37_3 H 0.196795 0.328698 0.410526
O5_2 O 0.1298(2) 0.38220(19) 0.9732(2)
H3_2 H 0.1565 0.3346 0.9757
H7_2 H 0.2861 0.4663 0.9910
O8_2 O 0.14179(15) 0.68416(15) 0.95713(14)
O14_2 O 0.27592(15) 0.71322(14) 0.86722(13)
H12_2 H 0.3144 0.7236 0.8293
O18_3 O 0.4461(2) 0.70350(19) 0.85044(17)
H16_3 H 0.4871 0.7229 0.8199
O20_2 O 0.5268(2) 0.8702(2) 0.88220(19)
H18_2 H 0.5243 0.8435 0.8346
O22_3 O 0.37470(16) 0.9753(2) 0.9142(2)
H20_3 H 0.3577 0.9915 0.9635
C10_3 C 0.2885(2) 0.74110(19) 0.9572(2)
C12_3 C 0.3755(2) 0.7033(2) 0.9936(2)
H24_3 H 0.3739 0.6387 0.9909
C14_3 C 0.4540(3) 0.7374(2) 0.9400(2)
H26_2 H 0.5090 0.7139 0.9663
C16_3 C 0.4589(3) 0.8382(2) 0.9400(2)
C18_3 C 0.3706(2) 0.8804(2) 0.9088(2)
H30_3 H 0.3619 0.8643 0.8462
C20_3 C 0.2920(2) 0.8441(2) 0.9612(2)
H32_3 H 0.2372 0.8683 0.9371
K1_3 K 0.26012(5) 0.23988(5) 0.76012(5)
O1_4 O 0.18416(15) 0.54287(14) 0.85821(15)
O2_3 O 0.2136(2) 0.41095(15) 0.79874(18)
O3_4 O 0.21322(14) 0.63278(13) 0.72408(15)
H1_4 H 0.2236 0.6707 0.6856
O4_4 O 0.20350(19) 0.64956(17) 0.5539(2)
H2_4 H 0.2229 0.6801 0.5129
O5_3 O 0.3702(2) 0.61780(19) 0.4732(2)
H3_3 H 0.3435 0.6654 0.4757
O6_4 O 0.4753(2) 0.5858(2) 0.62530(16)
H4_4 H 0.4915 0.5365 0.6423
O7_3 O 0.3642(9) 0.2694(9) 0.9132(7)
C1_3 C 0.2112(2) 0.4927(2) 0.7944(2)
C2_4 C 0.24110(19) 0.5428(2) 0.7115(2)
C3_4 C 0.2033(2) 0.5064(2) 0.6245(2)
H5_3 H 0.2206 0.4445 0.6176
H6_4 H 0.1387 0.5091 0.6261
C4_4 C 0.2374(2) 0.5600(2) 0.5460(3)
H7_3 H 0.2139 0.5337 0.4910
C5_4 C 0.3382(2) 0.5600(2) 0.5411(3)
H8_3 H 0.3586 0.4993 0.5284
C6_4 C 0.3804(2) 0.5912(2) 0.6294(2)
H9_4 H 0.3643 0.6538 0.6381
C7_4 C 0.3441(2) 0.5388(2) 0.7080(2)
H10_4 H 0.3683 0.5629 0.7628
H11_3 H 0.3629 0.4772 0.7032
O12_3 O 0.29874(18) 0.2864(2) 0.58905(15)
O13_3 O 0.08905(15) 0.20126(18) 0.7136(2)
O18_4 O 0.0539(2) 0.29650(19) 0.35044(17)
H16_4 H 0.0129 0.2771 0.3199
O22_4 O 0.12530(16) 0.0247(2) 0.4142(2)
H20_4 H 0.1423 0.0085 0.4635
O24_3 O 0.4132(7) 0.1358(9) 0.7306(9)
O25_3 O 0.2306(9) 0.0868(7) 0.8642(9)
C8_3 C 0.2944(2) 0.2888(2) 0.5073(2)
C9_3 C 0.0073(2) 0.2056(2) 0.7112(2)
C10_4 C 0.2115(2) 0.25890(19) 0.4572(2)
C12_4 C 0.1245(2) 0.2967(2) 0.4936(2)
H22_3 H 0.1176 0.2794 0.5555
H23_3 H 0.0555 0.3824 0.7206
H24_4 H 0.1261 0.3613 0.4909
C14_4 C 0.0460(3) 0.2626(2) 0.4400(2)
C16_4 C 0.0411(3) 0.1618(2) 0.4400(2)
H28_3 H 0.0284 0.1414 0.5007
H29_3 H 0.0007 0.4716 0.8586
C18_4 C 0.1294(2) 0.1196(2) 0.4088(2)
H30_4 H 0.1381 0.1357 0.3462
C20_4 C 0.2080(2) 0.1559(2) 0.4612(2)
H32_4 H 0.2628 0.1317 0.4371
H34_3 H 0.2032 0.1371 0.5228
H35_3 H 0.0228 0.2968 0.8629
H36_4 H 0.0894742 0.803205 0.828698
H37_4 H 0.303205 0.671302 0.910526
O19_4 O 0.85044(17) 0.4461(2) 0.70350(19)
H17_4 H 0.8199 0.4871 0.7229
O20_3 O 0.9732(2) 0.1298(2) 0.38220(19)
O21_3 O 0.88220(19) 0.5268(2) 0.8702(2)
H18_3 H 0.9757 0.1565 0.3346
H19_3 H 0.8346 0.5243 0.8435
O23_4 O 0.9142(2) 0.37470(16) 0.9753(2)
H21_4 H 0.9635 0.3577 0.9915
C11_4 C 0.9572(2) 0.2885(2) 0.74110(19)
C13_4 C 0.9936(2) 0.3755(2) 0.7033(2)
H25_4 H 0.9909 0.3739 0.6387
C15_4 C 0.9400(2) 0.4540(3) 0.7374(2)
H26_3 H 0.9910 0.2861 0.4663
H27_3 H 0.9663 0.5090 0.7139
C17_4 C 0.9400(2) 0.4589(3) 0.8382(2)
C19_4 C 0.9088(2) 0.3706(2) 0.8804(2)
H31_4 H 0.8462 0.3619 0.8643
C21_4 C 0.9612(2) 0.2920(2) 0.8441(2)
H33_4 H 0.9371 0.2372 0.8683
H36_5 H 0.171302 0.589474 0.696795
H36_6 H 0.671302 0.910526 0.303205
H36_7 H 0.328698 0.410526 0.196795
H36_8 H 0.828698 0.0894742 0.803205
O21_4 O 0.11780(19) 0.0268(2) 0.6298(2)
H19_4 H 0.1654 0.0243 0.6565
H27_4 H 0.0337 0.0090 0.7861
O20_4 O 0.0268(2) 0.6298(2) 0.11780(19)
H18_4 H 0.0243 0.6565 0.1654
H26_4 H 0.0090 0.7861 0.0337
O5_4 O 0.6298(2) 0.11780(19) 0.0268(2)
H3_4 H 0.6565 0.1654 0.0243
H7_4 H 0.7861 0.0337 0.0090
K1_4 K 0.73988(5) 0.73988(5) 0.73988(5)
O2_4 O 0.7864(2) 0.91095(15) 0.70126(18)
O7_4 O 0.6358(9) 0.7694(9) 0.5868(7)
C1_4 C 0.7888(2) 0.9927(2) 0.7056(2)
H5_4 H 0.7794 0.9445 0.8824
H8_4 H 0.6414 0.9993 0.9716
H11_4 H 0.6371 0.9772 0.7968
O12_4 O 0.70126(18) 0.7864(2) 0.91095(15)
O13_4 O 0.91095(15) 0.70126(18) 0.7864(2)
O24_4 O 0.5868(7) 0.6358(9) 0.7694(9)
O25_4 O 0.7694(9) 0.5868(7) 0.6358(9)
C8_4 C 0.7056(2) 0.7888(2) 0.9927(2)
C9_4 C 0.9927(2) 0.7056(2) 0.7888(2)
H22_4 H 0.8824 0.7794 0.9445
H23_4 H 0.9445 0.8824 0.7794
H28_4 H 0.9716 0.6414 0.9993
H29_4 H 0.9993 0.9716 0.6414
H34_4 H 0.7968 0.6371 0.9772
H35_4 H 0.9772 0.7968 0.6371
O26 O 0.7571(4) 0.2973(3) 0.0544(3)
H44 H 0.823259 0.2973 0.0544
O26_2 O 0.7429(4) 0.7027(3) 0.5544(3)
H44_2 H 0.676741 0.7027 0.5544
O26_3 O 0.2429(4) 0.7973(3) 0.4456(3)
H44_3 H 0.176741 0.7973 0.4456
O26_4 O 0.2571(4) 0.2027(3) 0.9456(3)
H44_4 H 0.323259 0.2027 0.9456
O26_5 O 0.0544(3) 0.7571(4) 0.2973(3)
H44_5 H 0.0544 0.823259 0.2973
O26_6 O 0.5544(3) 0.7429(4) 0.7027(3)
H44_6 H 0.5544 0.676741 0.7027
O26_7 O 0.4456(3) 0.2429(4) 0.7973(3)
H44_7 H 0.4456 0.176741 0.7973
O26_8 O 0.9456(3) 0.2571(4) 0.2027(3)
H44_8 H 0.9456 0.323259 0.2027
O26_9 O 0.2973(3) 0.0544(3) 0.7571(4)
H44_9 H 0.2973 0.0544 0.823259
O26_10 O 0.7027(3) 0.5544(3) 0.7429(4)
H44_10 H 0.7027 0.5544 0.676741
O26_11 O 0.7973(3) 0.4456(3) 0.2429(4)
H44_11 H 0.7973 0.4456 0.176741
O26_12 O 0.2027(3) 0.9456(3) 0.2571(4)
H44_12 H 0.2027 0.9456 0.323259
loop_
_geom_bond_atom_site_label_1
_geom_bond_atom_site_label_2
_geom_bond_site_symmetry_1
_geom_bond_site_symmetry_2
K1 O2 1_555 1_555
O2 C1 1_555 1_555
O7 K1 1_555 1_555
Al2 O8 1_555 1_555
Al3 O9 1_555 1_555
O8 C8 1_555 1_555
O9 C9 1_555 1_555
O12 K1 1_555 1_555
O13 K1 1_555 1_555
O14 Al2 1_555 1_555
O15 Al3 1_555 1_555
H12 O14 1_555 1_555
H13 O15 1_555 1_555
O18 H16 1_555 1_555
O19 H17 1_555 1_555
O20 H18 1_555 1_555
O22 H20 1_555 1_555
O23 H21 1_555 1_555
O24 K1 1_555 1_555
O25 K1 1_555 1_555
C8 O12 1_555 1_555
C9 O13 1_555 1_555
C10 O14 1_555 1_555
C11 O15 1_555 1_555
C12 C10 1_555 1_555
C13 C11 1_555 1_555
H22 C12 1_555 1_555
H23 C13 1_555 1_555
H24 C12 1_555 1_555
H25 C13 1_555 1_555
C14 O18 1_555 1_555
C15 O19 1_555 1_555
H26 C14 1_555 1_555
C16 O20 1_555 1_555
H28 C16 1_555 1_555
H29 C17 1_555 1_555
C18 O22 1_555 1_555
C19 O23 1_555 1_555
H30 C18 1_555 1_555
H31 C19 1_555 1_555
C20 C10 1_555 1_555
C21 C11 1_555 1_555
H32 C20 1_555 1_555
H33 C21 1_555 1_555
H34 C20 1_555 1_555
H35 C21 1_555 1_555
C8 C10 1_555 1_555
C9 C11 1_555 1_555
C12 C14 1_555 1_555
C13 C15 1_555 1_555
C14 C16 1_555 1_555
C15 C17 1_555 1_555
C16 C18 1_555 1_555
C17 C19 1_555 1_555
C18 C20 1_555 1_555
C19 C21 1_555 1_555
Al1 O1 1_555 1_555
O3 Al1 1_555 1_555
H1 O3 1_555 1_555
O4 H2 1_555 1_555
O5 H3 1_555 1_555
O6 H4 1_555 1_555
C2 O3 1_555 1_555
C3 C2 1_555 1_555
H6 C3 1_555 1_555
C4 O4 1_555 1_555
H7 C4 1_555 1_555
C5 O5 1_555 1_555
C6 O6 1_555 1_555
H9 C6 1_555 1_555
C7 C2 1_555 1_555
H10 C7 1_555 1_555
O10 Al1 1_555 1_555
O11 Al1 1_555 1_555
O16 Al1 1_555 1_555
O17 Al1 1_555 1_555
H14 O16 1_555 1_555
H15 O17 1_555 1_555
O21 H19 1_555 1_555
C3 C4 1_555 1_555
C4 C5 1_555 1_555
C5 C6 1_555 1_555
C6 C7 1_555 1_555
O17 H36 1_555 1_555
O16 H37 1_555 1_555
Al3_2 O9_2 1_555 1_555
O15_2 Al3_2 1_555 1_555
H13_2 O15_2 1_555 1_555
O19_2 H17_2 1_555 1_555
O23_2 H21_2 1_555 1_555
C11_2 O15_2 1_555 1_555
C13_2 C11_2 1_555 1_555
H25_2 C13_2 1_555 1_555
C15_2 O19_2 1_555 1_555
C19_2 O23_2 1_555 1_555
H31_2 C19_2 1_555 1_555
C21_2 C11_2 1_555 1_555
H33_2 C21_2 1_555 1_555
C13_2 C15_2 1_555 1_555
C15_2 C17_2 1_555 1_555
C17_2 C19_2 1_555 1_555
C19_2 C21_2 1_555 1_555
Al2 O1_2 1_555 1_555
O3_2 Al2 1_555 1_555
H1_2 O3_2 1_555 1_555
O4_2 H2_2 1_555 1_555
O6_2 H4_2 1_555 1_555
C2_2 O3_2 1_555 1_555
C3_2 C2_2 1_555 1_555
H6_2 C3_2 1_555 1_555
C4_2 O4_2 1_555 1_555
C6_2 O6_2 1_555 1_555
H9_2 C6_2 1_555 1_555
C7_2 C2_2 1_555 1_555
H10_2 C7_2 1_555 1_555
O11_2 Al2 1_555 1_555
O17_2 Al2 1_555 1_555
H15_2 O17_2 1_555 1_555
C3_2 C4_2 1_555 1_555
C4_2 C5_2 1_555 1_555
C5_2 C6_2 1_555 1_555
C6_2 C7_2 1_555 1_555
O17_2 H36_2 1_555 1_555
O14 H37_2 1_555 1_555
O18_2 H16_2 1_555 1_555
O22_2 H20_2 1_555 1_555
C10_2 O16 1_555 1_555
C12_2 C10_2 1_555 1_555
H24_2 C12_2 1_555 1_555
C14_2 O18_2 1_555 1_555
C18_2 O22_2 1_555 1_555
H30_2 C18_2 1_555 1_555
C20_2 C10_2 1_555 1_555
H32_2 C20_2 1_555 1_555
C12_2 C14_2 1_555 1_555
C14_2 C16_2 1_555 1_555
C16_2 C18_2 1_555 1_555
C18_2 C20_2 1_555 1_555
K1_2 O2_2 1_555 1_555
Al3 O1_3 1_555 1_555
O1_3 C1_2 1_555 1_555
O2_2 C1_2 1_555 1_555
O3_3 Al3 1_555 1_555
H1_3 O3_3 1_555 1_555
O4_3 H2_3 1_555 1_555
O6_3 H4_3 1_555 1_555
O7_2 K1_2 1_555 1_555
C1_2 C2_3 1_555 1_555
C2_3 O3_3 1_555 1_555
C3_3 C2_3 1_555 1_555
H5_2 C3_3 1_555 1_555
H6_3 C3_3 1_555 1_555
C4_3 O4_3 1_555 1_555
H8_2 C5_3 1_555 1_555
C6_3 O6_3 1_555 1_555
H9_3 C6_3 1_555 1_555
C7_3 C2_3 1_555 1_555
H10_3 C7_3 1_555 1_555
H11_2 C7_3 1_555 1_555
O11 C9_2 1_555 1_555
O10_2 Al3 1_555 1_555
O12_2 K1_2 1_555 1_555
O13_2 K1_2 1_555 1_555
O16_2 Al3 1_555 1_555
H14_2 O16_2 1_555 1_555
O19_3 H17_3 1_555 1_555
O21_2 H19_2 1_555 1_555
O23_3 H21_3 1_555 1_555
O24_2 K1_2 1_555 1_555
O25_2 K1_2 1_555 1_555
C8_2 O12_2 1_555 1_555
C9_2 O13_2 1_555 1_555
C11_3 O17 1_555 1_555
C13_3 C11_3 1_555 1_555
H23_2 C13_3 1_555 1_555
H25_3 C13_3 1_555 1_555
C15_3 O19_3 1_555 1_555
H27_2 C15_3 1_555 1_555
C17_3 O21_2 1_555 1_555
H29_2 C17_3 1_555 1_555
C19_3 O23_3 1_555 1_555
H31_3 C19_3 1_555 1_555
C21_3 C11_3 1_555 1_555
H33_3 C21_3 1_555 1_555
H35_2 C21_3 1_555 1_555
C3_3 C4_3 1_555 1_555
C4_3 C5_3 1_555 1_555
C5_3 C6_3 1_555 1_555
C6_3 C7_3 1_555 1_555
C9_2 C11_3 1_555 1_555
C13_3 C15_3 1_555 1_555
C15_3 C17_3 1_555 1_555
C17_3 C19_3 1_555 1_555
C19_3 C21_3 1_555 1_555
O15 H36_3 1_555 1_555
O16_2 H37_3 1_555 1_555
O5_2 H3_2 1_555 1_555
Al3_2 O8_2 1_555 1_555
O14_2 Al3_2 1_555 1_555
H12_2 O14_2 1_555 1_555
O18_3 H16_3 1_555 1_555
O20_2 H18_2 1_555 1_555
O22_3 H20_3 1_555 1_555
C10_3 O14_2 1_555 1_555
C12_3 C10_3 1_555 1_555
H24_3 C12_3 1_555 1_555
C14_3 O18_3 1_555 1_555
H26_2 C14_3 1_555 1_555
C16_3 O20_2 1_555 1_555
C18_3 O22_3 1_555 1_555
H30_3 C18_3 1_555 1_555
C20_3 C10_3 1_555 1_555
H32_3 C20_3 1_555 1_555
C12_3 C14_3 1_555 1_555
C14_3 C16_3 1_555 1_555
C16_3 C18_3 1_555 1_555
C18_3 C20_3 1_555 1_555
K1_3 O2_3 1_555 1_555
Al3_2 O1_4 1_555 1_555
O1_4 C1_3 1_555 1_555
O2_3 C1_3 1_555 1_555
O3_4 Al3_2 1_555 1_555
H1_4 O3_4 1_555 1_555
O4_4 H2_4 1_555 1_555
O5_3 H3_3 1_555 1_555
O6_4 H4_4 1_555 1_555
O7_3 K1_3 1_555 1_555
C1_3 C2_4 1_555 1_555
C2_4 O3_4 1_555 1_555
C3_4 C2_4 1_555 1_555
H5_3 C3_4 1_555 1_555
H6_4 C3_4 1_555 1_555
C4_4 O4_4 1_555 1_555
H7_3 C4_4 1_555 1_555
C5_4 O5_3 1_555 1_555
H8_3 C5_4 1_555 1_555
C6_4 O6_4 1_555 1_555
H9_4 C6_4 1_555 1_555
C7_4 C2_4 1_555 1_555
H10_4 C7_4 1_555 1_555
H11_3 C7_4 1_555 1_555
O10_2 C8_3 1_555 1_555
O12_3 K1_3 1_555 1_555
O13_3 K1_3 1_555 1_555
O18_4 H16_4 1_555 1_555
O22_4 H20_4 1_555 1_555
O24_3 K1_3 1_555 1_555
O25_3 K1_3 1_555 1_555
C8_3 O12_3 1_555 1_555
C9_3 O13_3 1_555 1_555
C10_4 O16_2 1_555 1_555
C12_4 C10_4 1_555 1_555
H22_3 C12_4 1_555 1_555
H24_4 C12_4 1_555 1_555
C14_4 O18_4 1_555 1_555
H28_3 C16_4 1_555 1_555
C18_4 O22_4 1_555 1_555
H30_4 C18_4 1_555 1_555
C20_4 C10_4 1_555 1_555
H32_4 C20_4 1_555 1_555
H34_3 C20_4 1_555 1_555
C3_4 C4_4 1_555 1_555
C4_4 C5_4 1_555 1_555
C5_4 C6_4 1_555 1_555
C6_4 C7_4 1_555 1_555
C8_3 C10_4 1_555 1_555
C12_4 C14_4 1_555 1_555
C14_4 C16_4 1_555 1_555
C16_4 C18_4 1_555 1_555
C18_4 C20_4 1_555 1_555
O15_2 H36_4 1_555 1_555
O14_2 H37_4 1_555 1_555
O19_4 H17_4 1_555 1_555
O20_3 H18_3 1_555 1_555
O21_3 H19_3 1_555 1_555
O23_4 H21_4 1_555 1_555
C11_4 O17_2 1_555 1_555
C13_4 C11_4 1_555 1_555
H25_4 C13_4 1_555 1_555
C15_4 O19_4 1_555 1_555
H27_3 C15_4 1_555 1_555
C17_4 O21_3 1_555 1_555
C19_4 O23_4 1_555 1_555
H31_4 C19_4 1_555 1_555
C21_4 C11_4 1_555 1_555
H33_4 C21_4 1_555 1_555
C13_4 C15_4 1_555 1_555
C15_4 C17_4 1_555 1_555
C17_4 C19_4 1_555 1_555
C19_4 C21_4 1_555 1_555
O3_4 H36_5 1_555 1_555
O3 H36_6 1_555 1_555
O3_3 H36_7 1_555 1_555
O3_2 H36_8 1_555 1_555
O21_4 H19_4 1_555 1_555
O20_4 H18_4 1_555 1_555
O5_4 H3_4 1_555 1_555
K1_4 O2_4 1_555 1_555
O2_4 C1_4 1_555 1_555
O7_4 K1_4 1_555 1_555
O12_4 K1_4 1_555 1_555
O13_4 K1_4 1_555 1_555
O24_4 K1_4 1_555 1_555
O25_4 K1_4 1_555 1_555
C8_4 O12_4 1_555 1_555
C9_4 O13_4 1_555 1_555
O26 H44 1_555 1_555
O26_2 H44_2 1_555 1_555
O26_3 H44_3 1_555 1_555
O26_4 H44_4 1_555 1_555
O26_5 H44_5 1_555 1_555
O26_6 H44_6 1_555 1_555
O26_7 H44_7 1_555 1_555
O26_8 H44_8 1_555 1_555
O26_9 H44_9 1_555 1_555
O26_10 H44_10 1_555 1_555
O26_11 H44_11 1_555 1_555
O26_12 H44_12 1_555 1_555

#END
