
###############################################################################
#
# This file contains modified crystal structure data generated from the
# MOF subset of the Cambridge Structural Database (CSD) v543 
# hosted by the Cambridge Crystallographic Data Centre (CCDC).
#
# This work is licensed under the Creative Commons
# Attribution-NonCommercial-ShareAlike 4.0 International License.
# To view a copy of this license, visit
# http://creativecommons.org/licenses/by-nc-sa/4.0/
# or send a letter to
# Creative Commons, PO Box 1866, Mountain View, CA 94042, USA.
#
# CIF created using the CSD Python API on 29 September 2022
# The structure has been converted into the P1 space group
# The structure has a 3D framework
# The original CSD entry BOKQEZ is in the rhombohedral crystal system
# The framework has been calculated to contain at least 10.0% void space
# The void calculation uses a probe of radius 1.32A, grid spacing 0.4
# H atom positions have been added when not included in the experimental data
# Generated hydrogen atom positions removed from atoms on special positions
#
###############################################################################

data_BOKQEZ
_chemical_formula_moiety         '(C216 H216 Mn60 O194 S36)n'
_symmetry_cell_setting           triclinic
_symmetry_space_group_name_H-M   'P 1'
_symmetry_Int_Tables_number      1
_space_group_name_Hall           'P 1'
loop_
_symmetry_equiv_pos_site_id
_symmetry_equiv_pos_as_xyz
1 x,y,z
_cell_length_a                   15.2429(11)
_cell_length_b                   15.2429(11)
_cell_length_c                   56.173(4)
_cell_angle_alpha                90
_cell_angle_beta                 90
_cell_angle_gamma                120
_cell_volume                     11303
loop_
_atom_site_label
_atom_site_type_symbol
_atom_site_fract_x
_atom_site_fract_y
_atom_site_fract_z
C9 C 0.0169(5) 0.3452(7) 0.02183(8)
H3 H 0.0382 0.3338 0.0364
C10 C 0.0691(5) 0.3567(7) 0.00028(9)
C27 C 0.0050(5) 0.3215(7) 0.14484(8)
H9 H 0.0377 0.3329 0.1303
C28 C 0.0457(5) 0.3100(7) 0.16639(9)
H10 H 0.1081 0.3134 0.1677
O26 O 0.0843(2) 0.2932(3) 0.21640(5)
O28 O 0.0837(3) 0.4816(4) 0.08662(9)
Mn20 Mn 0.13468(4) 0.26320(4) 0.248436(8)
H4 H 0.1281 0.3533 0.9990
C11 C 0.0226(3) 0.3733(4) 0.98146(6)
C12 C 0.0581(3) 0.3951(4) 0.95603(6)
O10 O 0.1245(2) 0.3735(3) 0.95027(5)
O11 O 0.0183(2) 0.4319(3) 0.94313(4)
Mn11 Mn 0.20482(6) 0.40347(4) 0.918231(8)
Mn16 Mn 0.07014(4) 0.53815(6) 0.915102(8)
Mn1 Mn 0.40347(4) 0.19865(4) 0.081769(8)
Mn2 Mn 0.6667 0.3333 0.054996(17)
C1 C 0.4850(3) 0.1382(3) 0.03773(6)
C2 C 0.4196(3) 0.0670(3) 0.01905(6)
O1 O 0.55850(18) 0.3333 0.0833
O2 O 0.4560(2) 0.1166(2) 0.05920(4)
O3 O 0.5644(2) 0.2131(2) 0.03156(5)
O6 O 0.2496(3) 0.0645(3) 0.08005(9)
Mn3 Mn 0.80135(4) 0.20482(6) 0.081769(8)
C7 C 0.8618(3) 0.3468(4) 0.03773(6)
C8 C 0.9330(3) 0.3526(4) 0.01905(6)
O7 O 0.6667 0.22520(18) 0.0833
O8 O 0.8834(2) 0.3394(3) 0.05920(4)
O9 O 0.7869(2) 0.3513(3) 0.03156(5)
O12 O 0.9355(3) 0.1851(4) 0.08005(9)
Mn4 Mn 0.79518(6) 0.59653(4) 0.081769(8)
C13 C 0.6532(4) 0.5150(3) 0.03773(6)
C14 C 0.6474(4) 0.5804(3) 0.01905(6)
C15 C 0.6548(7) 0.6717(5) 0.02183(8)
H5 H 0.6662 0.7044 0.0364
C16 C 0.6433(7) 0.7124(5) 0.00028(9)
O13 O 0.77480(18) 0.44150(18) 0.0833
O14 O 0.6606(3) 0.5440(2) 0.05920(4)
O15 O 0.6487(3) 0.4356(2) 0.03156(5)
O18 O 0.8149(4) 0.7504(3) 0.08005(9)
Mn5 Mn 0.53815(6) 0.46802(4) 0.084898(8)
Mn6 Mn 0.6667 0.3334 0.111671(17)
C19 C 0.6801(4) 0.5285(3) 0.12894(6)
C20 C 0.6859(4) 0.5997(3) 0.14762(6)
C21 C 0.6785(7) 0.6836(5) 0.14484(8)
H7 H 0.6671 0.7049 0.1303
C22 C 0.6900(7) 0.7358(5) 0.16639(9)
H8 H 0.6866 0.7948 0.1677
C23 C 0.7066(4) 0.6893(3) 0.18521(6)
C24 C 0.7284(4) 0.7248(3) 0.21064(6)
O19 O 0.6727(3) 0.5501(2) 0.10747(4)
O20 O 0.6846(3) 0.4536(2) 0.13511(5)
O21 O 0.7068(3) 0.7912(2) 0.21640(5)
O22 O 0.7652(3) 0.6850(2) 0.22354(4)
O23 O 0.5184(4) 0.6022(3) 0.08662(9)
S4 S 0.70901(10) 0.58317(7) 0.176541(14)
Mn7 Mn 0.92986(4) 0.46185(6) 0.084898(8)
C25 C 0.8483(3) 0.3199(4) 0.12894(6)
C26 C 0.9137(3) 0.3141(4) 0.14762(6)
C29 C 0.9826(3) 0.2934(4) 0.18521(6)
C30 C 0.9963(3) 0.2716(4) 0.21064(6)
O24 O 0.8773(2) 0.3273(3) 0.10747(4)
O25 O 0.7689(2) 0.3154(3) 0.13511(5)
O27 O 0.9197(2) 0.2348(3) 0.22354(4)
S5 S 0.87415(7) 0.29099(10) 0.176541(14)
Mn8 Mn 0.53198(4) 0.07014(4) 0.084898(8)
C31 C 0.4715(3) 0.1517(3) 0.12894(6)
C32 C 0.4003(3) 0.0863(3) 0.14762(6)
C35 C 0.3107(3) 0.0174(3) 0.18521(6)
C36 C 0.2752(3) 0.0037(3) 0.21064(6)
O29 O 0.4499(2) 0.1227(2) 0.10747(4)
O30 O 0.5464(2) 0.2311(2) 0.13511(5)
O32 O 0.3150(2) 0.0803(2) 0.22354(4)
S6 S 0.41683(7) 0.12585(7) 0.176541(14)
Mn12 Mn 0.26320(4) 0.13468(4) 0.251564(8)
Mn13 Mn 0.86532(4) 0.12851(6) 0.251564(8)
Mn14 Mn 0.87149(6) 0.73680(4) 0.251564(8)
Mn19 Mn 0.73680(4) 0.87149(6) 0.248436(8)
O34 O 0.7510(2) 0.1245(2) 0.04973(5)
O35 O 0.8755(2) 0.6265(3) 0.04973(5)
O36 O 0.3735(3) 0.2490(2) 0.04973(5)
O37 O 0.9598(3) 0.5422(2) 0.11694(5)
O38 O 0.5823(2) 0.0402(3) 0.11694(5)
O39 O 0.4578(2) 0.4177(2) 0.11694(5)
O40 O 0.5864(2) 0.0183(2) 0.05687(4)
O41 O 0.9817(2) 0.5681(3) 0.05687(4)
O42 O 0.4319(3) 0.4136(2) 0.05687(4)
O43 O 0.9014(3) 0.6484(2) 0.10980(4)
O44 O 0.7469(2) 0.0986(3) 0.10980(4)
O45 O 0.3516(2) 0.2531(2) 0.10980(4)
S1 S 0.45918(7) 0.08350(7) 0.990126(14)
S2 S 0.91650(7) 0.37568(10) 0.990126(14)
H6 H 0.6467 0.7748 0.9990
C17 C 0.6267(4) 0.6493(3) 0.98146(6)
C18 C 0.6049(4) 0.6630(3) 0.95603(6)
O16 O 0.6265(3) 0.7510(2) 0.95027(5)
O17 O 0.5681(3) 0.5864(2) 0.94313(4)
S3 S 0.62432(10) 0.54082(7) 0.990126(14)
Mn9 Mn 0.59653(4) 0.80135(4) 0.918231(8)
Mn15 Mn 0.46185(6) 0.53198(4) 0.915102(8)
C3 C 0.3283(5) 0.9831(5) 0.02183(8)
H1 H 0.2956 0.9618 0.0364
C4 C 0.2876(5) 0.9309(5) 0.00028(9)
C33 C 0.3164(5) 0.9950(5) 0.14484(8)
H11 H 0.2951 0.9623 0.1303
C34 C 0.2642(5) 0.9543(5) 0.16639(9)
H12 H 0.2052 0.8919 0.1677
O31 O 0.2088(2) 0.9157(2) 0.21640(5)
O33 O 0.3978(3) 0.9163(3) 0.08662(9)
Mn18 Mn 0.12851(6) 0.86532(4) 0.248436(8)
H2 H 0.2252 0.8719 0.9990
C5 C 0.3507(3) 0.9774(3) 0.98146(6)
C6 C 0.3370(3) 0.9419(3) 0.95603(6)
O4 O 0.2490(2) 0.8755(2) 0.95027(5)
O5 O 0.4136(2) 0.9817(2) 0.94313(4)
Mn10 Mn 0.19865(4) 0.79518(6) 0.918231(8)
Mn17 Mn 0.46802(4) 0.92986(4) 0.915102(8)
C3_2 C 0.3452(7) 0.0169(5) 0.47817(8)
H1_2 H 0.3338 0.0382 0.4636
C4_2 C 0.3567(7) 0.0691(5) 0.49972(9)
H2_2 H 0.3533 0.1281 0.5010
C5_2 C 0.3733(4) 0.0226(3) 0.51854(6)
C6_2 C 0.3951(4) 0.0581(3) 0.54397(6)
O4_2 O 0.3735(3) 0.1245(2) 0.54973(5)
O5_2 O 0.4319(3) 0.0183(2) 0.55687(4)
C33_2 C 0.3215(7) 0.0050(5) 0.35516(8)
H11_2 H 0.3329 0.0377 0.3697
C34_2 C 0.3100(7) 0.0457(5) 0.33361(9)
H12_2 H 0.3134 0.1081 0.3323
O31_2 O 0.2932(3) 0.0843(2) 0.28360(5)
O33_2 O 0.4816(4) 0.0837(3) 0.41338(9)
Mn10_2 Mn 0.40347(7) 0.20482(6) 0.581769(8)
Mn17_2 Mn 0.53815(6) 0.07014(4) 0.584898(8)
Mn1_2 Mn 0.20482(6) 0.80135(4) 0.418231(8)
Mn2_2 Mn 0.3334 0.6667 0.445004(17)
C1_2 C 0.3468(4) 0.8618(3) 0.46227(6)
C2_2 C 0.3526(4) 0.9330(3) 0.48095(6)
O1_2 O 0.22520(18) 0.6667 0.4167
O2_2 O 0.3394(3) 0.8834(2) 0.44080(4)
O3_2 O 0.3513(3) 0.7869(2) 0.46844(5)
O6_2 O 0.1851(4) 0.9355(3) 0.41995(9)
S1_2 S 0.37568(10) 0.91650(7) 0.509874(14)
Mn3_2 Mn 0.59653(7) 0.79518(6) 0.418231(8)
C7_2 C 0.5150(5) 0.6532(4) 0.46227(6)
C8_2 C 0.5804(5) 0.6474(4) 0.48095(6)
C9_2 C 0.6717(9) 0.6548(7) 0.47817(8)
H3_2 H 0.7044 0.6662 0.4636
C10_2 C 0.7124(9) 0.6433(7) 0.49972(9)
H4_2 H 0.7748 0.6467 0.5010
C11_2 C 0.6493(5) 0.6267(4) 0.51854(6)
C12_2 C 0.6630(5) 0.6049(4) 0.54397(6)
O7_2 O 0.44150(18) 0.77480(18) 0.4167
O8_2 O 0.5440(4) 0.6606(3) 0.44080(4)
O9_2 O 0.4356(4) 0.6487(3) 0.46844(5)
O10_2 O 0.7510(4) 0.6265(3) 0.54973(5)
O11_2 O 0.5864(4) 0.5681(3) 0.55687(4)
O12_2 O 0.7504(5) 0.8149(4) 0.41995(9)
S2_2 S 0.54082(12) 0.62432(10) 0.509874(14)
Mn4_2 Mn 0.19865(7) 0.40347(4) 0.418231(8)
C13_2 C 0.1382(5) 0.4850(3) 0.46227(6)
C14_2 C 0.0670(5) 0.4196(3) 0.48095(6)
O13_2 O 0.33330(25) 0.55850(18) 0.4167
O14_2 O 0.1166(4) 0.4560(2) 0.44080(4)
O15_2 O 0.2131(4) 0.5644(2) 0.46844(5)
O18_2 O 0.0645(5) 0.2496(3) 0.41995(9)
S3_2 S 0.08350(12) 0.45918(7) 0.509874(14)
Mn5_2 Mn 0.07014(7) 0.53198(4) 0.415102(8)
Mn6_2 Mn 0.3334 0.6666 0.388329(17)
C19_2 C 0.1517(5) 0.4715(3) 0.37106(6)
C20_2 C 0.0863(5) 0.4003(3) 0.35238(6)
C23_2 C 0.0174(5) 0.3107(3) 0.31479(6)
C24_2 C 0.0037(5) 0.2752(3) 0.28936(6)
O19_2 O 0.1227(4) 0.4499(2) 0.39253(4)
O20_2 O 0.2311(4) 0.5464(2) 0.36489(5)
O22_2 O 0.0803(4) 0.3150(2) 0.27646(4)
S4_2 S 0.12585(12) 0.41683(7) 0.323459(14)
Mn7_2 Mn 0.46802(7) 0.53815(6) 0.415102(8)
C25_2 C 0.5285(5) 0.6801(4) 0.37106(6)
C26_2 C 0.5997(5) 0.6859(4) 0.35238(6)
C27_2 C 0.6836(9) 0.6785(7) 0.35516(8)
H9_2 H 0.7049 0.6671 0.3697
C28_2 C 0.7358(9) 0.6900(7) 0.33361(9)
H10_2 H 0.7948 0.6866 0.3323
C29_2 C 0.6893(5) 0.7066(4) 0.31479(6)
C30_2 C 0.7248(5) 0.7284(4) 0.28936(6)
O24_2 O 0.5501(4) 0.6727(3) 0.39253(4)
O25_2 O 0.4536(4) 0.6846(3) 0.36489(5)
O26_2 O 0.7912(4) 0.7068(3) 0.28360(5)
O27_2 O 0.6850(4) 0.7652(3) 0.27646(4)
O28_2 O 0.6022(5) 0.5184(4) 0.41338(9)
S5_2 S 0.58317(12) 0.70901(10) 0.323459(14)
Mn8_2 Mn 0.46185(6) 0.92986(4) 0.415102(8)
C31_2 C 0.3199(4) 0.8483(3) 0.37106(6)
C32_2 C 0.3141(4) 0.9137(3) 0.35238(6)
C35_2 C 0.2934(4) 0.9826(3) 0.31479(6)
C36_2 C 0.2716(4) 0.9963(3) 0.28936(6)
O29_2 O 0.3273(3) 0.8773(2) 0.39253(4)
O30_2 O 0.3154(3) 0.7689(2) 0.36489(5)
O32_2 O 0.2348(3) 0.9197(2) 0.27646(4)
S6_2 S 0.29099(10) 0.87415(7) 0.323459(14)
Mn11_2 Mn 0.80135(7) 0.59653(4) 0.581769(8)
Mn16_2 Mn 0.53198(7) 0.46185(6) 0.584898(8)
O34_2 O 0.6265(3) 0.8755(2) 0.45027(5)
O35_2 O 0.2490(4) 0.3735(3) 0.45027(5)
O36_2 O 0.1245(4) 0.7510(2) 0.45027(5)
O37_2 O 0.4177(4) 0.4578(2) 0.38306(5)
O38_2 O 0.5422(4) 0.9598(3) 0.38306(5)
O39_2 O 0.0402(3) 0.5823(2) 0.38306(5)
O40_2 O 0.5681(3) 0.9817(2) 0.44313(4)
O41_2 O 0.4136(4) 0.4319(3) 0.44313(4)
O42_2 O 0.0183(4) 0.5864(2) 0.44313(4)
O43_2 O 0.2531(4) 0.3516(2) 0.39020(4)
O44_2 O 0.6484(4) 0.9014(3) 0.39020(4)
O45_2 O 0.0986(3) 0.7469(2) 0.39020(4)
C15_2 C 0.9831(9) 0.3283(5) 0.47817(8)
H5_2 H 0.9618 0.2956 0.4636
C16_2 C 0.9309(9) 0.2876(5) 0.49972(9)
H6_2 H 0.8719 0.2252 0.5010
C17_2 C 0.9774(5) 0.3507(3) 0.51854(6)
C18_2 C 0.9419(5) 0.3370(3) 0.54397(6)
O16_2 O 0.8755(4) 0.2490(2) 0.54973(5)
O17_2 O 0.9817(4) 0.4136(2) 0.55687(4)
C21_2 C 0.9950(9) 0.3164(5) 0.35516(8)
H7_2 H 0.9623 0.2951 0.3697
C22_2 C 0.9543(9) 0.2642(5) 0.33361(9)
H8_2 H 0.8919 0.2052 0.3323
O21_2 O 0.9157(4) 0.2088(2) 0.28360(5)
O23_2 O 0.9163(5) 0.3978(3) 0.41338(9)
Mn9_2 Mn 0.79518(6) 0.19865(4) 0.581769(8)
Mn15_2 Mn 0.92986(7) 0.46802(4) 0.584898(8)
Mn2_3 Mn 0.0001 0.0000 0.778337(17)
C1_3 C 0.0135(4) 0.1951(3) 0.79560(6)
C2_3 C 0.0193(4) 0.2663(3) 0.81428(6)
C3_3 C 0.0119(7) 0.3502(5) 0.81150(8)
H1_3 H 0.0005 0.3715 0.7969
C4_3 C 0.0234(7) 0.4024(5) 0.83305(9)
H2_3 H 0.0200 0.4614 0.8343
C5_3 C 0.0400(4) 0.3559(3) 0.85187(6)
C6_3 C 0.0618(4) 0.3914(3) 0.87730(6)
O2_3 O 0.0061(3) 0.2167(2) 0.77413(4)
O3_3 O 0.0180(3) 0.1202(2) 0.80177(5)
O4_3 O 0.0402(3) 0.4578(2) 0.88306(5)
O5_3 O 0.0986(3) 0.3516(2) 0.89020(4)
S1_3 S 0.04235(10) 0.24983(7) 0.843207(14)
Mn3_3 Mn 0.26320(7) 0.12851(6) 0.751564(8)
O7_3 O 0.10817(18) 0.10813(18) 0.7500
O12_3 O 0.4171(5) 0.1482(4) 0.75328(9)
Mn6_3 Mn 0.0000 -0.0000 0.721663(17)
C25_3 C 0.1951(5) 0.0135(4) 0.70440(6)
C26_3 C 0.2663(5) 0.0193(4) 0.68572(6)
C27_3 C 0.3502(9) 0.0119(7) 0.68850(8)
H9_3 H 0.3715 0.0005 0.7031
C28_3 C 0.4024(9) 0.0234(7) 0.66695(9)
H10_3 H 0.4614 0.0200 0.6657
C29_3 C 0.3559(5) 0.0400(4) 0.64813(6)
C30_3 C 0.3914(5) 0.0618(4) 0.62270(6)
O24_3 O 0.2167(4) 0.0061(3) 0.72587(4)
O25_3 O 0.1202(4) 0.0180(3) 0.69823(5)
O26_3 O 0.4578(4) 0.0402(3) 0.61694(5)
O27_3 O 0.3516(4) 0.0986(3) 0.60980(4)
S5_3 S 0.24983(12) 0.04235(10) 0.656793(14)
Mn8_3 Mn 0.12851(6) 0.26320(4) 0.748436(8)
O33_3 O 0.1482(4) 0.4171(3) 0.74672(9)
O34_3 O 0.2932(3) 0.2088(2) 0.78360(5)
O38_3 O 0.2088(4) 0.2932(3) 0.71640(5)
O40_3 O 0.2348(3) 0.3150(2) 0.77646(4)
O44_3 O 0.3150(4) 0.2348(3) 0.72354(4)
Mn2_4 Mn 0.0001 1.0000 0.778337(17)
C7_3 C 0.1817(5) 0.9865(4) 0.79560(6)
C8_3 C 0.2471(5) 0.9807(4) 0.81428(6)
C9_3 C 0.3384(9) 0.9881(7) 0.81150(8)
H3_3 H 0.3711 0.9995 0.7969
C10_3 C 0.3791(9) 0.9766(7) 0.83305(9)
H4_3 H 0.4415 0.9800 0.8343
C11_3 C 0.3160(5) 0.9600(4) 0.85187(6)
C12_3 C 0.3297(5) 0.9382(4) 0.87730(6)
O8_3 O 0.2107(4) 0.9939(3) 0.77413(4)
O9_3 O 0.1023(4) 0.9820(3) 0.80177(5)
O10_3 O 0.4177(4) 0.9598(3) 0.88306(5)
O11_3 O 0.2531(4) 0.9014(3) 0.89020(4)
S2_3 S 0.20749(12) 0.95765(10) 0.843207(14)
O13_3 O -0.00003(25) 0.89183(18) 0.7500
Mn6_4 Mn 0.0000 1.0000 0.721663(17)
Mn7_3 Mn 0.13468(7) 0.87149(6) 0.748436(8)
O28_3 O 0.2688(5) 0.8518(4) 0.74672(9)
O37_3 O 0.0843(4) 0.7912(2) 0.71640(5)
O41_3 O 0.0803(4) 0.7652(3) 0.77646(4)
Mn1_3 Mn 0.87149(6) 0.13468(4) 0.751564(8)
O1_3 O 0.89187(18) 0.0000 0.7500
O6_3 O 0.8518(4) 0.2688(3) 0.75328(9)
Mn6_5 Mn 1.0000 -0.0000 0.721663(17)
C31_3 C 0.9865(4) 0.1817(3) 0.70440(6)
C32_3 C 0.9807(4) 0.2471(3) 0.68572(6)
C33_3 C 0.9881(7) 0.3384(5) 0.68850(8)
H11_3 H 0.9995 0.3711 0.7031
C34_3 C 0.9766(7) 0.3791(5) 0.66695(9)
H12_3 H 0.9800 0.4415 0.6657
C35_3 C 0.9600(4) 0.3160(3) 0.64813(6)
C36_3 C 0.9382(4) 0.3297(3) 0.62270(6)
O29_3 O 0.9939(3) 0.2107(2) 0.72587(4)
O30_3 O 0.9820(3) 0.1023(2) 0.69823(5)
O31_3 O 0.9598(3) 0.4177(2) 0.61694(5)
O32_3 O 0.9014(3) 0.2531(2) 0.60980(4)
S6_3 S 0.95765(10) 0.20749(7) 0.656793(14)
O36_3 O 0.7912(4) 0.0843(2) 0.78360(5)
O45_3 O 0.7652(3) 0.0803(2) 0.72354(4)
O1_4 O 0.89187(18) 1.0000 0.7500
Mn4_3 Mn 0.86532(7) 0.73680(4) 0.751564(8)
C13_3 C 0.8049(5) 0.8183(3) 0.79560(6)
C14_3 C 0.7337(5) 0.7529(3) 0.81428(6)
C15_3 C 0.6498(9) 0.6616(5) 0.81150(8)
H5_3 H 0.6285 0.6289 0.7969
C16_3 C 0.5976(9) 0.6209(5) 0.83305(9)
H6_3 H 0.5386 0.5585 0.8343
C17_3 C 0.6441(5) 0.6840(3) 0.85187(6)
C18_3 C 0.6086(5) 0.6703(3) 0.87730(6)
O13_4 O 0.99997(25) 0.89183(18) 0.7500
O14_3 O 0.7833(4) 0.7893(2) 0.77413(4)
O15_3 O 0.8798(4) 0.8977(2) 0.80177(5)
O16_3 O 0.5422(4) 0.5823(2) 0.88306(5)
O17_3 O 0.6484(4) 0.7469(2) 0.89020(4)
O18_3 O 0.7312(5) 0.5829(3) 0.75328(9)
S3_3 S 0.75017(12) 0.79251(7) 0.843207(14)
Mn5_3 Mn 0.73680(7) 0.86532(4) 0.748436(8)
Mn6_6 Mn 1.0000 1.0000 0.721663(17)
C19_3 C 0.8183(5) 0.8049(3) 0.70440(6)
C20_3 C 0.7529(5) 0.7337(3) 0.68572(6)
C21_3 C 0.6616(9) 0.6498(5) 0.68850(8)
H7_3 H 0.6289 0.6285 0.7031
C22_3 C 0.6209(9) 0.5976(5) 0.66695(9)
H8_3 H 0.5585 0.5386 0.6657
C23_3 C 0.6840(5) 0.6441(3) 0.64813(6)
C24_3 C 0.6703(5) 0.6086(3) 0.62270(6)
O19_3 O 0.7893(4) 0.7833(2) 0.72587(4)
O20_3 O 0.8977(4) 0.8798(2) 0.69823(5)
O21_3 O 0.5823(4) 0.5422(2) 0.61694(5)
O22_3 O 0.7469(4) 0.6484(2) 0.60980(4)
O23_3 O 0.5829(5) 0.7312(3) 0.74672(9)
S4_3 S 0.79251(12) 0.75017(7) 0.656793(14)
O35_3 O 0.9157(4) 0.7068(3) 0.78360(5)
O39_3 O 0.7068(3) 0.9157(2) 0.71640(5)
O42_3 O 0.6850(4) 0.9197(2) 0.77646(4)
O43_3 O 0.9197(4) 0.6850(2) 0.72354(4)
Mn2_5 Mn 1.0000 0.9999 0.778337(17)
Mn2_6 Mn 1.0000 0.0000 0.778337(17)
H2_4 H 0.7748 0.1281 0.0010
C5_4 C 0.6493(3) 0.0226(3) 0.01854(6)
C6_4 C 0.6630(3) 0.0581(3) 0.04397(6)
C3_4 C 0.6717(5) 0.0169(5) 0.97817(8)
H1_4 H 0.7044 0.0382 0.9636
C4_4 C 0.7124(5) 0.0691(5) 0.99972(9)
C33_4 C 0.6836(5) 0.0050(5) 0.85516(8)
H11_4 H 0.7049 0.0377 0.8697
C34_4 C 0.7358(5) 0.0457(5) 0.83361(9)
H12_4 H 0.7948 0.1081 0.8323
O33_4 O 0.6022(3) 0.0837(3) 0.91338(9)
S1_4 S 0.54082(7) 0.91650(7) 0.009874(14)
S2_4 S 0.08350(7) 0.62432(10) 0.009874(14)
H6_4 H 0.3533 0.2252 0.0010
C17_4 C 0.3733(4) 0.3507(3) 0.01854(6)
C18_4 C 0.3951(4) 0.3370(3) 0.04397(6)
S3_4 S 0.37568(10) 0.45918(7) 0.009874(14)
Mn2_7 Mn 0.3333 0.6667 0.945004(17)
C1_4 C 0.5150(3) 0.8618(3) 0.96227(6)
C2_4 C 0.5804(3) 0.9330(3) 0.98095(6)
O1_5 O 0.44150(18) 0.6667 0.9167
O2_4 O 0.5440(2) 0.8834(2) 0.94080(4)
O3_4 O 0.4356(2) 0.7869(2) 0.96844(5)
O6_4 O 0.7504(3) 0.9355(3) 0.91995(9)
C7_4 C 0.1382(3) 0.6532(4) 0.96227(6)
C8_4 C 0.0670(3) 0.6474(4) 0.98095(6)
O7_4 O 0.3333 0.77480(18) 0.9167
O8_4 O 0.1166(2) 0.6606(3) 0.94080(4)
O9_4 O 0.2131(2) 0.6487(3) 0.96844(5)
O12_4 O 0.0645(3) 0.8149(4) 0.91995(9)
C13_4 C 0.3468(4) 0.4850(3) 0.96227(6)
C14_4 C 0.3526(4) 0.4196(3) 0.98095(6)
C15_4 C 0.3452(7) 0.3283(5) 0.97817(8)
H5_4 H 0.3338 0.2956 0.9636
C16_4 C 0.3567(7) 0.2876(5) 0.99972(9)
O13_5 O 0.22520(18) 0.55850(18) 0.9167
O14_4 O 0.3394(3) 0.4560(2) 0.94080(4)
O15_4 O 0.3513(3) 0.5644(2) 0.96844(5)
O18_4 O 0.1851(4) 0.2496(3) 0.91995(9)
Mn6_7 Mn 0.3333 0.6666 0.888329(17)
C19_4 C 0.3199(4) 0.4715(3) 0.87106(6)
C20_4 C 0.3141(4) 0.4003(3) 0.85238(6)
C21_4 C 0.3215(7) 0.3164(5) 0.85516(8)
H7_4 H 0.3329 0.2951 0.8697
C22_4 C 0.3100(7) 0.2642(5) 0.83361(9)
H8_4 H 0.3134 0.2052 0.8323
C23_4 C 0.2934(4) 0.3107(3) 0.81479(6)
C24_4 C 0.2716(4) 0.2752(3) 0.78936(6)
O19_4 O 0.3273(3) 0.4499(2) 0.89253(4)
O20_4 O 0.3154(3) 0.5464(2) 0.86489(5)
O23_4 O 0.4816(4) 0.3978(3) 0.91338(9)
S4_4 S 0.29099(10) 0.41683(7) 0.823459(14)
C25_4 C 0.1517(3) 0.6801(4) 0.87106(6)
C26_4 C 0.0863(3) 0.6859(4) 0.85238(6)
C29_4 C 0.0174(3) 0.7066(4) 0.81479(6)
C30_4 C 0.0037(3) 0.7284(4) 0.78936(6)
O24_4 O 0.1227(2) 0.6727(3) 0.89253(4)
O25_4 O 0.2311(2) 0.6846(3) 0.86489(5)
S5_4 S 0.12585(7) 0.70901(10) 0.823459(14)
C31_4 C 0.5285(3) 0.8483(3) 0.87106(6)
C32_4 C 0.5997(3) 0.9137(3) 0.85238(6)
C35_4 C 0.6893(3) 0.9826(3) 0.81479(6)
C36_4 C 0.7248(3) 0.9963(3) 0.78936(6)
O29_4 O 0.5501(2) 0.8773(2) 0.89253(4)
O30_4 O 0.4536(2) 0.7689(2) 0.86489(5)
S6_4 S 0.58317(7) 0.87415(7) 0.823459(14)
H4_4 H 0.8719 0.6467 0.0010
C11_4 C 0.9774(3) 0.6267(4) 0.01854(6)
C12_4 C 0.9419(3) 0.6049(4) 0.04397(6)
C9_4 C 0.9831(5) 0.6548(7) 0.97817(8)
H3_4 H 0.9618 0.6662 0.9636
C10_4 C 0.9309(5) 0.6433(7) 0.99972(9)
C27_4 C 0.9950(5) 0.6785(7) 0.85516(8)
H9_4 H 0.9623 0.6671 0.8697
C28_4 C 0.9543(5) 0.6900(7) 0.83361(9)
H10_4 H 0.8919 0.6866 0.8323
O28_4 O 0.9163(3) 0.5184(4) 0.91338(9)
C15_5 C 0.0169(9) 0.6717(5) 0.52183(8)
H5_5 H 0.0382 0.7044 0.5364
C16_5 C 0.0691(9) 0.7124(5) 0.50028(9)
H6_5 H 0.1281 0.7748 0.4990
C17_5 C 0.0226(5) 0.6493(3) 0.48146(6)
C18_5 C 0.0581(5) 0.6630(3) 0.45603(6)
C21_5 C 0.0050(9) 0.6836(5) 0.64484(8)
H7_5 H 0.0377 0.7049 0.6303
C22_5 C 0.0457(9) 0.7358(5) 0.66639(9)
H8_5 H 0.1081 0.7948 0.6677
O23_5 O 0.0837(5) 0.6022(3) 0.58662(9)
Mn2_8 Mn 0.6666 0.3333 0.554996(17)
C1_5 C 0.6532(4) 0.1382(3) 0.53773(6)
C2_5 C 0.6474(4) 0.0670(3) 0.51905(6)
O1_6 O 0.77480(18) 0.3333 0.5833
O2_5 O 0.6606(3) 0.1166(2) 0.55920(4)
O3_5 O 0.6487(3) 0.2131(2) 0.53156(5)
O6_5 O 0.8149(4) 0.0645(3) 0.58005(9)
S1_5 S 0.62432(10) 0.08350(7) 0.490126(14)
C7_5 C 0.4850(5) 0.3468(4) 0.53773(6)
C8_5 C 0.4196(5) 0.3526(4) 0.51905(6)
C9_5 C 0.3283(9) 0.3452(7) 0.52183(8)
H3_5 H 0.2956 0.3338 0.5364
C10_5 C 0.2876(9) 0.3567(7) 0.50028(9)
H4_5 H 0.2252 0.3533 0.4990
C11_5 C 0.3507(5) 0.3733(4) 0.48146(6)
C12_5 C 0.3370(5) 0.3951(4) 0.45603(6)
O7_5 O 0.55850(18) 0.22520(18) 0.5833
O8_5 O 0.4560(4) 0.3394(3) 0.55920(4)
O9_5 O 0.5644(4) 0.3513(3) 0.53156(5)
O12_5 O 0.2496(5) 0.1851(4) 0.58005(9)
S2_5 S 0.45918(12) 0.37568(10) 0.490126(14)
C13_5 C 0.8618(5) 0.5150(3) 0.53773(6)
C14_5 C 0.9330(5) 0.5804(3) 0.51905(6)
O13_6 O 0.66670(25) 0.44150(18) 0.5833
O14_5 O 0.8834(4) 0.5440(2) 0.55920(4)
O15_5 O 0.7869(4) 0.4356(2) 0.53156(5)
O18_5 O 0.9355(5) 0.7504(3) 0.58005(9)
S3_5 S 0.91650(12) 0.54082(7) 0.490126(14)
Mn6_8 Mn 0.6666 0.3334 0.611671(17)
C19_5 C 0.8483(5) 0.5285(3) 0.62894(6)
C20_5 C 0.9137(5) 0.5997(3) 0.64762(6)
C23_5 C 0.9826(5) 0.6893(3) 0.68521(6)
C24_5 C 0.9963(5) 0.7248(3) 0.71064(6)
O19_5 O 0.8773(4) 0.5501(2) 0.60747(4)
O20_5 O 0.7689(4) 0.4536(2) 0.63511(5)
S4_5 S 0.87415(12) 0.58317(7) 0.676541(14)
C25_5 C 0.4715(5) 0.3199(4) 0.62894(6)
C26_5 C 0.4003(5) 0.3141(4) 0.64762(6)
C27_5 C 0.3164(9) 0.3215(7) 0.64484(8)
H9_5 H 0.2951 0.3329 0.6303
C28_5 C 0.2642(9) 0.3100(7) 0.66639(9)
H10_5 H 0.2052 0.3134 0.6677
C29_5 C 0.3107(5) 0.2934(4) 0.68521(6)
C30_5 C 0.2752(5) 0.2716(4) 0.71064(6)
O24_5 O 0.4499(4) 0.3273(3) 0.60747(4)
O25_5 O 0.5464(4) 0.3154(3) 0.63511(5)
O28_5 O 0.3978(5) 0.4816(4) 0.58662(9)
S5_5 S 0.41683(12) 0.29099(10) 0.676541(14)
C31_5 C 0.6801(4) 0.1517(3) 0.62894(6)
C32_5 C 0.6859(4) 0.0863(3) 0.64762(6)
C35_5 C 0.7066(4) 0.0174(3) 0.68521(6)
C36_5 C 0.7284(4) 0.0037(3) 0.71064(6)
O29_5 O 0.6727(3) 0.1227(2) 0.60747(4)
O30_5 O 0.6846(3) 0.2311(2) 0.63511(5)
S6_5 S 0.70901(10) 0.12585(7) 0.676541(14)
C3_5 C 0.6548(7) 0.9831(5) 0.52183(8)
H1_5 H 0.6662 0.9618 0.5364
C4_5 C 0.6433(7) 0.9309(5) 0.50028(9)
H2_5 H 0.6467 0.8719 0.4990
C5_5 C 0.6267(4) 0.9774(3) 0.48146(6)
C6_5 C 0.6049(4) 0.9419(3) 0.45603(6)
C33_5 C 0.6785(7) 0.9950(5) 0.64484(8)
H11_5 H 0.6671 0.9623 0.6303
C34_5 C 0.6900(7) 0.9543(5) 0.66639(9)
H12_5 H 0.6866 0.8919 0.6677
O33_5 O 0.5184(4) 0.9163(3) 0.58662(9)
O1_7 O 0.10813(18) -0.0000 0.2500
C13_6 C 0.1951(5) 0.1817(3) 0.20440(6)
C14_6 C 0.2663(5) 0.2471(3) 0.18572(6)
C15_6 C 0.3502(9) 0.3384(5) 0.18850(8)
H5_6 H 0.3715 0.3711 0.2031
C16_6 C 0.4024(9) 0.3791(5) 0.16695(9)
H6_6 H 0.4614 0.4415 0.1657
C17_6 C 0.3559(5) 0.3160(3) 0.14813(6)
C18_6 C 0.3914(5) 0.3297(3) 0.12270(6)
O13_7 O 0.00003(25) 0.10817(18) 0.2500
O14_6 O 0.2167(4) 0.2107(2) 0.22587(4)
O15_6 O 0.1202(4) 0.1023(2) 0.19823(5)
O18_6 O 0.2688(5) 0.4171(3) 0.24672(9)
S3_6 S 0.24983(12) 0.20749(7) 0.156793(14)
Mn6_9 Mn -0.0000 0.0000 0.278337(17)
C19_6 C 0.1817(5) 0.1951(3) 0.29560(6)
C20_6 C 0.2471(5) 0.2663(3) 0.31428(6)
C21_6 C 0.3384(9) 0.3502(5) 0.31150(8)
H7_6 H 0.3711 0.3715 0.2969
C22_6 C 0.3791(9) 0.4024(5) 0.33305(9)
H8_6 H 0.4415 0.4614 0.3343
C23_6 C 0.3160(5) 0.3559(3) 0.35187(6)
C24_6 C 0.3297(5) 0.3914(3) 0.37730(6)
O19_6 O 0.2107(4) 0.2167(2) 0.27413(4)
O20_6 O 0.1023(4) 0.1202(2) 0.30177(5)
O23_6 O 0.4171(5) 0.2688(3) 0.25328(9)
S4_6 S 0.20749(12) 0.24983(7) 0.343207(14)
O1_8 O 0.10813(18) 1.0000 0.2500
O6_6 O 0.1482(4) 0.7312(3) 0.24672(9)
Mn6_10 Mn -0.0000 1.0000 0.278337(17)
C31_6 C 0.0135(4) 0.8183(3) 0.29560(6)
C32_6 C 0.0193(4) 0.7529(3) 0.31428(6)
C33_6 C 0.0119(7) 0.6616(5) 0.31150(8)
H11_6 H 0.0005 0.6289 0.2969
C34_6 C 0.0234(7) 0.6209(5) 0.33305(9)
H12_6 H 0.0200 0.5585 0.3343
C35_6 C 0.0400(4) 0.6840(3) 0.35187(6)
C36_6 C 0.0618(4) 0.6703(3) 0.37730(6)
O29_6 O 0.0061(3) 0.7893(2) 0.27413(4)
O30_6 O 0.0180(3) 0.8977(2) 0.30177(5)
S6_6 S 0.04235(10) 0.79251(7) 0.343207(14)
Mn2_9 Mn 0.9999 -0.0000 0.221663(17)
C7_6 C 0.8183(5) 0.0135(4) 0.20440(6)
C8_6 C 0.7529(5) 0.0193(4) 0.18572(6)
C9_6 C 0.6616(9) 0.0119(7) 0.18850(8)
H3_6 H 0.6289 0.0005 0.2031
C10_6 C 0.6209(9) 0.0234(7) 0.16695(9)
H4_6 H 0.5585 0.0200 0.1657
C11_6 C 0.6840(5) 0.0400(4) 0.14813(6)
C12_6 C 0.6703(5) 0.0618(4) 0.12270(6)
O8_6 O 0.7893(4) 0.0061(3) 0.22587(4)
O9_6 O 0.8977(4) 0.0180(3) 0.19823(5)
S2_6 S 0.79251(12) 0.04235(10) 0.156793(14)
O13_8 O 1.00003(25) 0.10817(18) 0.2500
Mn6_11 Mn 1.0000 0.0000 0.278337(17)
O28_6 O 0.7312(5) 0.1482(4) 0.25328(9)
Mn2_10 Mn 0.9999 1.0000 0.221663(17)
C1_6 C 0.9865(4) 0.8049(3) 0.20440(6)
C2_6 C 0.9807(4) 0.7337(3) 0.18572(6)
C3_6 C 0.9881(7) 0.6498(5) 0.18850(8)
H1_6 H 0.9995 0.6285 0.2031
C4_6 C 0.9766(7) 0.5976(5) 0.16695(9)
H2_6 H 0.9800 0.5386 0.1657
C5_6 C 0.9600(4) 0.6441(3) 0.14813(6)
C6_6 C 0.9382(4) 0.6086(3) 0.12270(6)
O2_6 O 0.9939(3) 0.7833(2) 0.22587(4)
O3_6 O 0.9820(3) 0.8798(2) 0.19823(5)
S1_6 S 0.95765(10) 0.75017(7) 0.156793(14)
O7_6 O 0.89183(18) 0.89187(18) 0.2500
O12_6 O 0.5829(5) 0.8518(4) 0.24672(9)
Mn6_12 Mn 1.0000 1.0000 0.278337(17)
C25_6 C 0.8049(5) 0.9865(4) 0.29560(6)
C26_6 C 0.7337(5) 0.9807(4) 0.31428(6)
C27_6 C 0.6498(9) 0.9881(7) 0.31150(8)
H9_6 H 0.6285 0.9995 0.2969
C28_6 C 0.5976(9) 0.9766(7) 0.33305(9)
H10_6 H 0.5386 0.9800 0.3343
C29_6 C 0.6441(5) 0.9600(4) 0.35187(6)
C30_6 C 0.6086(5) 0.9382(4) 0.37730(6)
O24_6 O 0.7833(4) 0.9939(3) 0.27413(4)
O25_6 O 0.8798(4) 0.9820(3) 0.30177(5)
S5_6 S 0.75017(12) 0.95765(10) 0.343207(14)
O33_6 O 0.8518(4) 0.5829(3) 0.25328(9)
Mn2_11 Mn 0.0000 0.0001 0.221663(17)
Mn2_12 Mn 0.0000 1.0000 0.221663(17)
loop_
_geom_bond_atom_site_label_1
_geom_bond_atom_site_label_2
_geom_bond_site_symmetry_1
_geom_bond_site_symmetry_2
C9 H3 1_555 1_555
C10 C9 1_555 1_555
C27 H9 1_555 1_555
C28 C27 1_555 1_555
H10 C28 1_555 1_555
Mn20 O26 1_555 1_555
C12 C11 1_555 1_555
O10 C12 1_555 1_555
O11 C12 1_555 1_555
Mn11 O10 1_555 1_555
Mn16 O11 1_555 1_555
Mn1 O1 1_555 1_555
Mn2 O1 1_555 1_555
C1 C2 1_555 1_555
O1 Mn5 1_555 1_555
O2 Mn1 1_555 1_555
O3 Mn2 1_555 1_555
O6 Mn1 1_555 1_555
Mn3 O7 1_555 1_555
C7 C8 1_555 1_555
O7 Mn2 1_555 1_555
O8 Mn3 1_555 1_555
O9 Mn2 1_555 1_555
O12 Mn3 1_555 1_555
Mn4 O13 1_555 1_555
C13 C14 1_555 1_555
C14 C15 1_555 1_555
C15 H5 1_555 1_555
C16 C15 1_555 1_555
O13 Mn2 1_555 1_555
O14 Mn4 1_555 1_555
O15 Mn2 1_555 1_555
O18 Mn4 1_555 1_555
Mn5 O14 1_555 1_555
Mn6 O1 1_555 1_555
C19 C20 1_555 1_555
C20 C21 1_555 1_555
C21 H7 1_555 1_555
C22 C21 1_555 1_555
H8 C22 1_555 1_555
C23 C22 1_555 1_555
C24 C23 1_555 1_555
O19 Mn4 1_555 1_555
O20 Mn6 1_555 1_555
O21 C24 1_555 1_555
O22 C24 1_555 1_555
O23 Mn5 1_555 1_555
S4 C20 1_555 1_555
Mn7 O8 1_555 1_555
C25 C26 1_555 1_555
C30 C29 1_555 1_555
O24 Mn3 1_555 1_555
O25 Mn6 1_555 1_555
O27 C30 1_555 1_555
S5 C26 1_555 1_555
Mn8 O2 1_555 1_555
C31 C32 1_555 1_555
C36 C35 1_555 1_555
O29 Mn1 1_555 1_555
O30 Mn6 1_555 1_555
O32 C36 1_555 1_555
S6 C32 1_555 1_555
Mn12 O32 1_555 1_555
Mn13 O27 1_555 1_555
Mn14 O22 1_555 1_555
Mn19 O21 1_555 1_555
O34 Mn3 1_555 1_555
O35 Mn4 1_555 1_555
O36 Mn1 1_555 1_555
O37 Mn7 1_555 1_555
O38 Mn8 1_555 1_555
O39 Mn5 1_555 1_555
O40 Mn8 1_555 1_555
O41 Mn7 1_555 1_555
O42 Mn5 1_555 1_555
O43 Mn4 1_555 1_555
O44 Mn3 1_555 1_555
O45 Mn1 1_555 1_555
C1 O2 1_555 1_555
C1 O3 1_555 1_555
C7 O8 1_555 1_555
C7 O9 1_555 1_555
O7 Mn6 1_555 1_555
O7 Mn8 1_555 1_555
C13 O14 1_555 1_555
C13 O15 1_555 1_555
O13 Mn6 1_555 1_555
O13 Mn7 1_555 1_555
Mn5 O19 1_555 1_555
C19 O19 1_555 1_555
C19 O20 1_555 1_555
C23 S4 1_555 1_555
Mn7 O24 1_555 1_555
C25 O24 1_555 1_555
C25 O25 1_555 1_555
C29 S5 1_555 1_555
Mn8 O29 1_555 1_555
C31 O29 1_555 1_555
C31 O30 1_555 1_555
C35 S6 1_555 1_555
C18 C17 1_555 1_555
O16 C18 1_555 1_555
O17 C18 1_555 1_555
Mn9 O16 1_555 1_555
Mn15 O17 1_555 1_555
C17 S3 1_555 1_555
C3 H1 1_555 1_555
C4 C3 1_555 1_555
C33 H11 1_555 1_555
C34 C33 1_555 1_555
H12 C34 1_555 1_555
Mn18 O31 1_555 1_555
C6 C5 1_555 1_555
O4 C6 1_555 1_555
O5 C6 1_555 1_555
Mn10 O4 1_555 1_555
Mn17 O5 1_555 1_555
C3_2 H1_2 1_555 1_555
C4_2 C3_2 1_555 1_555
H2_2 C4_2 1_555 1_555
C5_2 C4_2 1_555 1_555
C6_2 C5_2 1_555 1_555
O4_2 C6_2 1_555 1_555
O5_2 C6_2 1_555 1_555
C33_2 H11_2 1_555 1_555
C34_2 C33_2 1_555 1_555
H12_2 C34_2 1_555 1_555
Mn10_2 O4_2 1_555 1_555
Mn17_2 O5_2 1_555 1_555
Mn12 O31_2 1_555 1_555
Mn1_2 O1_2 1_555 1_555
Mn2_2 O1_2 1_555 1_555
C1_2 C2_2 1_555 1_555
O1_2 Mn5_2 1_555 1_555
O2_2 Mn1_2 1_555 1_555
O3_2 Mn2_2 1_555 1_555
O6_2 Mn1_2 1_555 1_555
S1_2 C2_2 1_555 1_555
Mn3_2 O7_2 1_555 1_555
C7_2 C8_2 1_555 1_555
C8_2 C9_2 1_555 1_555
C9_2 H3_2 1_555 1_555
C10_2 C9_2 1_555 1_555
H4_2 C10_2 1_555 1_555
C11_2 C10_2 1_555 1_555
C12_2 C11_2 1_555 1_555
O7_2 Mn2_2 1_555 1_555
O8_2 Mn3_2 1_555 1_555
O9_2 Mn2_2 1_555 1_555
O10_2 C12_2 1_555 1_555
O11_2 C12_2 1_555 1_555
O12_2 Mn3_2 1_555 1_555
S2_2 C8_2 1_555 1_555
Mn4_2 O13_2 1_555 1_555
C13_2 C14_2 1_555 1_555
O13_2 Mn2_2 1_555 1_555
O14_2 Mn4_2 1_555 1_555
O15_2 Mn2_2 1_555 1_555
O18_2 Mn4_2 1_555 1_555
S3_2 C14_2 1_555 1_555
Mn5_2 O14_2 1_555 1_555
Mn6_2 O1_2 1_555 1_555
C19_2 C20_2 1_555 1_555
C24_2 C23_2 1_555 1_555
O19_2 Mn4_2 1_555 1_555
O20_2 Mn6_2 1_555 1_555
O22_2 C24_2 1_555 1_555
S4_2 C20_2 1_555 1_555
Mn7_2 O8_2 1_555 1_555
C25_2 C26_2 1_555 1_555
C26_2 C27_2 1_555 1_555
C27_2 H9_2 1_555 1_555
C28_2 C27_2 1_555 1_555
H10_2 C28_2 1_555 1_555
C29_2 C28_2 1_555 1_555
C30_2 C29_2 1_555 1_555
O24_2 Mn3_2 1_555 1_555
O25_2 Mn6_2 1_555 1_555
O26_2 C30_2 1_555 1_555
O27_2 C30_2 1_555 1_555
O28_2 Mn7_2 1_555 1_555
S5_2 C26_2 1_555 1_555
Mn8_2 O2_2 1_555 1_555
C31_2 C32_2 1_555 1_555
C36_2 C35_2 1_555 1_555
O29_2 Mn1_2 1_555 1_555
O30_2 Mn6_2 1_555 1_555
O32_2 C36_2 1_555 1_555
S6_2 C32_2 1_555 1_555
Mn11_2 O10_2 1_555 1_555
Mn18 O32_2 1_555 1_555
Mn19 O27_2 1_555 1_555
Mn20 O22_2 1_555 1_555
Mn16_2 O11_2 1_555 1_555
Mn14 O26_2 1_555 1_555
O34_2 Mn3_2 1_555 1_555
O35_2 Mn4_2 1_555 1_555
O36_2 Mn1_2 1_555 1_555
O37_2 Mn7_2 1_555 1_555
O38_2 Mn8_2 1_555 1_555
O39_2 Mn5_2 1_555 1_555
O40_2 Mn8_2 1_555 1_555
O41_2 Mn7_2 1_555 1_555
O42_2 Mn5_2 1_555 1_555
O43_2 Mn4_2 1_555 1_555
O44_2 Mn3_2 1_555 1_555
O45_2 Mn1_2 1_555 1_555
C1_2 O2_2 1_555 1_555
C1_2 O3_2 1_555 1_555
C7_2 O8_2 1_555 1_555
C7_2 O9_2 1_555 1_555
C11_2 S2_2 1_555 1_555
O7_2 Mn6_2 1_555 1_555
O7_2 Mn8_2 1_555 1_555
C13_2 O14_2 1_555 1_555
C13_2 O15_2 1_555 1_555
O13_2 Mn6_2 1_555 1_555
O13_2 Mn7_2 1_555 1_555
Mn5_2 O19_2 1_555 1_555
C19_2 O19_2 1_555 1_555
C19_2 O20_2 1_555 1_555
C23_2 S4_2 1_555 1_555
Mn7_2 O24_2 1_555 1_555
C25_2 O24_2 1_555 1_555
C25_2 O25_2 1_555 1_555
C29_2 S5_2 1_555 1_555
Mn8_2 O29_2 1_555 1_555
C31_2 O29_2 1_555 1_555
C31_2 O30_2 1_555 1_555
C35_2 S6_2 1_555 1_555
C15_2 H5_2 1_555 1_555
C16_2 C15_2 1_555 1_555
H6_2 C16_2 1_555 1_555
C17_2 C16_2 1_555 1_555
C18_2 C17_2 1_555 1_555
O16_2 C18_2 1_555 1_555
O17_2 C18_2 1_555 1_555
C21_2 H7_2 1_555 1_555
C22_2 C21_2 1_555 1_555
H8_2 C22_2 1_555 1_555
Mn9_2 O16_2 1_555 1_555
Mn15_2 O17_2 1_555 1_555
Mn13 O21_2 1_555 1_555
C1_3 C2_3 1_555 1_555
C2_3 C3_3 1_555 1_555
C3_3 H1_3 1_555 1_555
C4_3 C3_3 1_555 1_555
H2_3 C4_3 1_555 1_555
C5_3 C4_3 1_555 1_555
C6_3 C5_3 1_555 1_555
O3_3 Mn2_3 1_555 1_555
O4_3 C6_3 1_555 1_555
O5_3 C6_3 1_555 1_555
S1_3 C2_3 1_555 1_555
Mn3_3 O7_3 1_555 1_555
O7_3 Mn2_3 1_555 1_555
O12_3 Mn3_3 1_555 1_555
C25_3 C26_3 1_555 1_555
C26_3 C27_3 1_555 1_555
C27_3 H9_3 1_555 1_555
C28_3 C27_3 1_555 1_555
H10_3 C28_3 1_555 1_555
C29_3 C28_3 1_555 1_555
C30_3 C29_3 1_555 1_555
O24_3 Mn3_3 1_555 1_555
O25_3 Mn6_3 1_555 1_555
O26_3 C30_3 1_555 1_555
O27_3 C30_3 1_555 1_555
S5_3 C26_3 1_555 1_555
Mn8_3 O2_3 1_555 1_555
O33_3 Mn8_3 1_555 1_555
Mn16 O4_3 1_555 1_555
Mn10_2 O27_3 1_555 1_555
Mn11 O5_3 1_555 1_555
Mn17_2 O26_3 1_555 1_555
O34_3 Mn3_3 1_555 1_555
O38_3 Mn8_3 1_555 1_555
O40_3 Mn8_3 1_555 1_555
O44_3 Mn3_3 1_555 1_555
C1_3 O2_3 1_555 1_555
C1_3 O3_3 1_555 1_555
C5_3 S1_3 1_555 1_555
O7_3 Mn6_3 1_555 1_555
O7_3 Mn8_3 1_555 1_555
C25_3 O24_3 1_555 1_555
C25_3 O25_3 1_555 1_555
C29_3 S5_3 1_555 1_555
C7_3 C8_3 1_555 1_555
C8_3 C9_3 1_555 1_555
C9_3 H3_3 1_555 1_555
C10_3 C9_3 1_555 1_555
H4_3 C10_3 1_555 1_555
C11_3 C10_3 1_555 1_555
C12_3 C11_3 1_555 1_555
O9_3 Mn2_4 1_555 1_555
O10_3 C12_3 1_555 1_555
O11_3 C12_3 1_555 1_555
S2_3 C8_3 1_555 1_555
O13_3 Mn2_4 1_555 1_555
Mn7_3 O8_3 1_555 1_555
O28_3 Mn7_3 1_555 1_555
Mn17 O10_3 1_555 1_555
Mn10 O11_3 1_555 1_555
O37_3 Mn7_3 1_555 1_555
O41_3 Mn7_3 1_555 1_555
C7_3 O8_3 1_555 1_555
C7_3 O9_3 1_555 1_555
C11_3 S2_3 1_555 1_555
O13_3 Mn6_4 1_555 1_555
O13_3 Mn7_3 1_555 1_555
Mn1_3 O1_3 1_555 1_555
O6_3 Mn1_3 1_555 1_555
Mn6_5 O1_3 1_555 1_555
C31_3 C32_3 1_555 1_555
C32_3 C33_3 1_555 1_555
C33_3 H11_3 1_555 1_555
C34_3 C33_3 1_555 1_555
H12_3 C34_3 1_555 1_555
C35_3 C34_3 1_555 1_555
C36_3 C35_3 1_555 1_555
O29_3 Mn1_3 1_555 1_555
O30_3 Mn6_5 1_555 1_555
O31_3 C36_3 1_555 1_555
O32_3 C36_3 1_555 1_555
S6_3 C32_3 1_555 1_555
Mn9_2 O32_3 1_555 1_555
Mn15_2 O31_3 1_555 1_555
O36_3 Mn1_3 1_555 1_555
O45_3 Mn1_3 1_555 1_555
C31_3 O29_3 1_555 1_555
C31_3 O30_3 1_555 1_555
C35_3 S6_3 1_555 1_555
O1_4 Mn5_3 1_555 1_555
Mn4_3 O13_4 1_555 1_555
C13_3 C14_3 1_555 1_555
C14_3 C15_3 1_555 1_555
C15_3 H5_3 1_555 1_555
C16_3 C15_3 1_555 1_555
H6_3 C16_3 1_555 1_555
C17_3 C16_3 1_555 1_555
C18_3 C17_3 1_555 1_555
O14_3 Mn4_3 1_555 1_555
O16_3 C18_3 1_555 1_555
O17_3 C18_3 1_555 1_555
O18_3 Mn4_3 1_555 1_555
S3_3 C14_3 1_555 1_555
Mn5_3 O14_3 1_555 1_555
Mn6_6 O1_4 1_555 1_555
C19_3 C20_3 1_555 1_555
C20_3 C21_3 1_555 1_555
C21_3 H7_3 1_555 1_555
C22_3 C21_3 1_555 1_555
H8_3 C22_3 1_555 1_555
C23_3 C22_3 1_555 1_555
C24_3 C23_3 1_555 1_555
O19_3 Mn4_3 1_555 1_555
O20_3 Mn6_6 1_555 1_555
O21_3 C24_3 1_555 1_555
O22_3 C24_3 1_555 1_555
O23_3 Mn5_3 1_555 1_555
S4_3 C20_3 1_555 1_555
Mn15 O16_3 1_555 1_555
Mn11_2 O22_3 1_555 1_555
Mn9 O17_3 1_555 1_555
Mn16_2 O21_3 1_555 1_555
O35_3 Mn4_3 1_555 1_555
O39_3 Mn5_3 1_555 1_555
O42_3 Mn5_3 1_555 1_555
O43_3 Mn4_3 1_555 1_555
C13_3 O14_3 1_555 1_555
C13_3 O15_3 1_555 1_555
C17_3 S3_3 1_555 1_555
O13_4 Mn6_6 1_555 1_555
Mn5_3 O19_3 1_555 1_555
C19_3 O19_3 1_555 1_555
C19_3 O20_3 1_555 1_555
C23_3 S4_3 1_555 1_555
O13_4 Mn2_5 1_555 1_555
O15_3 Mn2_5 1_555 1_555
O1_4 Mn2_5 1_555 1_555
O1_3 Mn2_6 1_555 1_555
C6_4 C5_4 1_555 1_555
O34 C6_4 1_555 1_555
O40 C6_4 1_555 1_555
C3_4 H1_4 1_555 1_555
C4_4 C3_4 1_555 1_555
C33_4 H11_4 1_555 1_555
C34_4 C33_4 1_555 1_555
H12_4 C34_4 1_555 1_555
C18_4 C17_4 1_555 1_555
O36 C18_4 1_555 1_555
O42 C18_4 1_555 1_555
C17_4 S3_4 1_555 1_555
Mn9 O1_5 1_555 1_555
Mn2_7 O1_5 1_555 1_555
C1_4 C2_4 1_555 1_555
O1_5 Mn15 1_555 1_555
O2_4 Mn9 1_555 1_555
O3_4 Mn2_7 1_555 1_555
O6_4 Mn9 1_555 1_555
Mn10 O7_4 1_555 1_555
C7_4 C8_4 1_555 1_555
O7_4 Mn2_7 1_555 1_555
O8_4 Mn10 1_555 1_555
O9_4 Mn2_7 1_555 1_555
O12_4 Mn10 1_555 1_555
Mn11 O13_5 1_555 1_555
C13_4 C14_4 1_555 1_555
C14_4 C15_4 1_555 1_555
C15_4 H5_4 1_555 1_555
C16_4 C15_4 1_555 1_555
O13_5 Mn2_7 1_555 1_555
O14_4 Mn11 1_555 1_555
O15_4 Mn2_7 1_555 1_555
O18_4 Mn11 1_555 1_555
Mn15 O14_4 1_555 1_555
Mn6_7 O1_5 1_555 1_555
C19_4 C20_4 1_555 1_555
C20_4 C21_4 1_555 1_555
C21_4 H7_4 1_555 1_555
C22_4 C21_4 1_555 1_555
H8_4 C22_4 1_555 1_555
C23_4 C22_4 1_555 1_555
C24_4 C23_4 1_555 1_555
O19_4 Mn11 1_555 1_555
O20_4 Mn6_7 1_555 1_555
O34_3 C24_4 1_555 1_555
O40_3 C24_4 1_555 1_555
O23_4 Mn15 1_555 1_555
S4_4 C20_4 1_555 1_555
Mn16 O8_4 1_555 1_555
C25_4 C26_4 1_555 1_555
C30_4 C29_4 1_555 1_555
O24_4 Mn10 1_555 1_555
O25_4 Mn6_7 1_555 1_555
O41_3 C30_4 1_555 1_555
S5_4 C26_4 1_555 1_555
Mn17 O2_4 1_555 1_555
C31_4 C32_4 1_555 1_555
C36_4 C35_4 1_555 1_555
O29_4 Mn9 1_555 1_555
O30_4 Mn6_7 1_555 1_555
O42_3 C36_4 1_555 1_555
S6_4 C32_4 1_555 1_555
C1_4 O2_4 1_555 1_555
C1_4 O3_4 1_555 1_555
C7_4 O8_4 1_555 1_555
C7_4 O9_4 1_555 1_555
O7_4 Mn6_7 1_555 1_555
O7_4 Mn17 1_555 1_555
C13_4 O14_4 1_555 1_555
C13_4 O15_4 1_555 1_555
O13_5 Mn6_7 1_555 1_555
O13_5 Mn16 1_555 1_555
Mn15 O19_4 1_555 1_555
C19_4 O19_4 1_555 1_555
C19_4 O20_4 1_555 1_555
C23_4 S4_4 1_555 1_555
Mn16 O24_4 1_555 1_555
C25_4 O24_4 1_555 1_555
C25_4 O25_4 1_555 1_555
C29_4 S5_4 1_555 1_555
Mn17 O29_4 1_555 1_555
C31_4 O29_4 1_555 1_555
C31_4 O30_4 1_555 1_555
C35_4 S6_4 1_555 1_555
C12_4 C11_4 1_555 1_555
O35 C12_4 1_555 1_555
O41 C12_4 1_555 1_555
C9_4 H3_4 1_555 1_555
C10_4 C9_4 1_555 1_555
C27_4 H9_4 1_555 1_555
C28_4 C27_4 1_555 1_555
H10_4 C28_4 1_555 1_555
C15_5 H5_5 1_555 1_555
C16_5 C15_5 1_555 1_555
H6_5 C16_5 1_555 1_555
C17_5 C16_5 1_555 1_555
C18_5 C17_5 1_555 1_555
O36_2 C18_5 1_555 1_555
O42_2 C18_5 1_555 1_555
C21_5 H7_5 1_555 1_555
C22_5 C21_5 1_555 1_555
H8_5 C22_5 1_555 1_555
Mn9_2 O1_6 1_555 1_555
Mn2_8 O1_6 1_555 1_555
C1_5 C2_5 1_555 1_555
O1_6 Mn15_2 1_555 1_555
O2_5 Mn9_2 1_555 1_555
O3_5 Mn2_8 1_555 1_555
O6_5 Mn9_2 1_555 1_555
S1_5 C2_5 1_555 1_555
Mn10_2 O7_5 1_555 1_555
C7_5 C8_5 1_555 1_555
C8_5 C9_5 1_555 1_555
C9_5 H3_5 1_555 1_555
C10_5 C9_5 1_555 1_555
H4_5 C10_5 1_555 1_555
C11_5 C10_5 1_555 1_555
C12_5 C11_5 1_555 1_555
O7_5 Mn2_8 1_555 1_555
O8_5 Mn10_2 1_555 1_555
O9_5 Mn2_8 1_555 1_555
O35_2 C12_5 1_555 1_555
O41_2 C12_5 1_555 1_555
O12_5 Mn10_2 1_555 1_555
S2_5 C8_5 1_555 1_555
Mn11_2 O13_6 1_555 1_555
C13_5 C14_5 1_555 1_555
O13_6 Mn2_8 1_555 1_555
O14_5 Mn11_2 1_555 1_555
O15_5 Mn2_8 1_555 1_555
O18_5 Mn11_2 1_555 1_555
S3_5 C14_5 1_555 1_555
Mn15_2 O14_5 1_555 1_555
Mn6_8 O1_6 1_555 1_555
C19_5 C20_5 1_555 1_555
C24_5 C23_5 1_555 1_555
O19_5 Mn11_2 1_555 1_555
O20_5 Mn6_8 1_555 1_555
O43_3 C24_5 1_555 1_555
S4_5 C20_5 1_555 1_555
Mn16_2 O8_5 1_555 1_555
C25_5 C26_5 1_555 1_555
C26_5 C27_5 1_555 1_555
C27_5 H9_5 1_555 1_555
C28_5 C27_5 1_555 1_555
H10_5 C28_5 1_555 1_555
C29_5 C28_5 1_555 1_555
C30_5 C29_5 1_555 1_555
O24_5 Mn10_2 1_555 1_555
O25_5 Mn6_8 1_555 1_555
O38_3 C30_5 1_555 1_555
O44_3 C30_5 1_555 1_555
O28_5 Mn16_2 1_555 1_555
S5_5 C26_5 1_555 1_555
Mn17_2 O2_5 1_555 1_555
C31_5 C32_5 1_555 1_555
C36_5 C35_5 1_555 1_555
O29_5 Mn9_2 1_555 1_555
O30_5 Mn6_8 1_555 1_555
O45_3 C36_5 1_555 1_555
S6_5 C32_5 1_555 1_555
C1_5 O2_5 1_555 1_555
C1_5 O3_5 1_555 1_555
C7_5 O8_5 1_555 1_555
C7_5 O9_5 1_555 1_555
C11_5 S2_5 1_555 1_555
O7_5 Mn6_8 1_555 1_555
O7_5 Mn17_2 1_555 1_555
C13_5 O14_5 1_555 1_555
C13_5 O15_5 1_555 1_555
O13_6 Mn6_8 1_555 1_555
O13_6 Mn16_2 1_555 1_555
Mn15_2 O19_5 1_555 1_555
C19_5 O19_5 1_555 1_555
C19_5 O20_5 1_555 1_555
C23_5 S4_5 1_555 1_555
Mn16_2 O24_5 1_555 1_555
C25_5 O24_5 1_555 1_555
C25_5 O25_5 1_555 1_555
C29_5 S5_5 1_555 1_555
Mn17_2 O29_5 1_555 1_555
C31_5 O29_5 1_555 1_555
C31_5 O30_5 1_555 1_555
C35_5 S6_5 1_555 1_555
C3_5 H1_5 1_555 1_555
C4_5 C3_5 1_555 1_555
H2_5 C4_5 1_555 1_555
C5_5 C4_5 1_555 1_555
C6_5 C5_5 1_555 1_555
O34_2 C6_5 1_555 1_555
O40_2 C6_5 1_555 1_555
C33_5 H11_5 1_555 1_555
C34_5 C33_5 1_555 1_555
H12_5 C34_5 1_555 1_555
O1_7 Mn12 1_555 1_555
Mn20 O13_7 1_555 1_555
C13_6 C14_6 1_555 1_555
C14_6 C15_6 1_555 1_555
C15_6 H5_6 1_555 1_555
C16_6 C15_6 1_555 1_555
H6_6 C16_6 1_555 1_555
C17_6 C16_6 1_555 1_555
C18_6 C17_6 1_555 1_555
O14_6 Mn20 1_555 1_555
O39 C18_6 1_555 1_555
O45 C18_6 1_555 1_555
O18_6 Mn20 1_555 1_555
S3_6 C14_6 1_555 1_555
Mn12 O14_6 1_555 1_555
Mn6_9 O1_7 1_555 1_555
C19_6 C20_6 1_555 1_555
C20_6 C21_6 1_555 1_555
C21_6 H7_6 1_555 1_555
C22_6 C21_6 1_555 1_555
H8_6 C22_6 1_555 1_555
C23_6 C22_6 1_555 1_555
C24_6 C23_6 1_555 1_555
O19_6 Mn20 1_555 1_555
O20_6 Mn6_9 1_555 1_555
O37_2 C24_6 1_555 1_555
O43_2 C24_6 1_555 1_555
O23_6 Mn12 1_555 1_555
S4_6 C20_6 1_555 1_555
C13_6 O14_6 1_555 1_555
C13_6 O15_6 1_555 1_555
C17_6 S3_6 1_555 1_555
O13_7 Mn6_9 1_555 1_555
Mn12 O19_6 1_555 1_555
C19_6 O19_6 1_555 1_555
C19_6 O20_6 1_555 1_555
C23_6 S4_6 1_555 1_555
Mn18 O1_8 1_555 1_555
O6_6 Mn18 1_555 1_555
Mn6_10 O1_8 1_555 1_555
C31_6 C32_6 1_555 1_555
C32_6 C33_6 1_555 1_555
C33_6 H11_6 1_555 1_555
C34_6 C33_6 1_555 1_555
H12_6 C34_6 1_555 1_555
C35_6 C34_6 1_555 1_555
C36_6 C35_6 1_555 1_555
O29_6 Mn18 1_555 1_555
O30_6 Mn6_10 1_555 1_555
O39_2 C36_6 1_555 1_555
O45_2 C36_6 1_555 1_555
S6_6 C32_6 1_555 1_555
C31_6 O29_6 1_555 1_555
C31_6 O30_6 1_555 1_555
C35_6 S6_6 1_555 1_555
C7_6 C8_6 1_555 1_555
C8_6 C9_6 1_555 1_555
C9_6 H3_6 1_555 1_555
C10_6 C9_6 1_555 1_555
H4_6 C10_6 1_555 1_555
C11_6 C10_6 1_555 1_555
C12_6 C11_6 1_555 1_555
O9_6 Mn2_9 1_555 1_555
O38 C12_6 1_555 1_555
O44 C12_6 1_555 1_555
S2_6 C8_6 1_555 1_555
O13_8 Mn2_9 1_555 1_555
Mn13 O8_6 1_555 1_555
O28_6 Mn13 1_555 1_555
C7_6 O8_6 1_555 1_555
C7_6 O9_6 1_555 1_555
C11_6 S2_6 1_555 1_555
O13_8 Mn6_11 1_555 1_555
O13_8 Mn13 1_555 1_555
C1_6 C2_6 1_555 1_555
C2_6 C3_6 1_555 1_555
C3_6 H1_6 1_555 1_555
C4_6 C3_6 1_555 1_555
H2_6 C4_6 1_555 1_555
C5_6 C4_6 1_555 1_555
C6_6 C5_6 1_555 1_555
O3_6 Mn2_10 1_555 1_555
O37 C6_6 1_555 1_555
O43 C6_6 1_555 1_555
S1_6 C2_6 1_555 1_555
Mn19 O7_6 1_555 1_555
O7_6 Mn2_10 1_555 1_555
O12_6 Mn19 1_555 1_555
C25_6 C26_6 1_555 1_555
C26_6 C27_6 1_555 1_555
C27_6 H9_6 1_555 1_555
C28_6 C27_6 1_555 1_555
H10_6 C28_6 1_555 1_555
C29_6 C28_6 1_555 1_555
C30_6 C29_6 1_555 1_555
O24_6 Mn19 1_555 1_555
O25_6 Mn6_12 1_555 1_555
O38_2 C30_6 1_555 1_555
O44_2 C30_6 1_555 1_555
S5_6 C26_6 1_555 1_555
Mn14 O2_6 1_555 1_555
O33_6 Mn14 1_555 1_555
C1_6 O2_6 1_555 1_555
C1_6 O3_6 1_555 1_555
C5_6 S1_6 1_555 1_555
O7_6 Mn6_12 1_555 1_555
O7_6 Mn14 1_555 1_555
C25_6 O24_6 1_555 1_555
C25_6 O25_6 1_555 1_555
C29_6 S5_6 1_555 1_555
O13_7 Mn2_11 1_555 1_555
O15_6 Mn2_11 1_555 1_555
O1_7 Mn2_11 1_555 1_555
O1_8 Mn2_12 1_555 1_555

#END
