
###############################################################################
#
# This file contains modified crystal structure data generated from the
# MOF subset of the Cambridge Structural Database (CSD) v543 
# hosted by the Cambridge Crystallographic Data Centre (CCDC).
#
# This work is licensed under the Creative Commons
# Attribution-NonCommercial-ShareAlike 4.0 International License.
# To view a copy of this license, visit
# http://creativecommons.org/licenses/by-nc-sa/4.0/
# or send a letter to
# Creative Commons, PO Box 1866, Mountain View, CA 94042, USA.
#
# CIF created using the CSD Python API on 29 September 2022
# The structure has been converted into the P1 space group
# The structure has a 3D framework
# The original CSD entry BOMCUB is in the hexagonal crystal system
# The original CSD entry BOMCUB is in a Sohncke space group
# The framework has been calculated to contain at least 10.0% void space
# The void calculation uses a probe of radius 1.32A, grid spacing 0.4
# The framework is charged, counterions have been retained in the structure
#
###############################################################################

data_BOMCUB
_chemical_formula_moiety         '(C12 H12 In5 N16 O24 11+)n'
_symmetry_cell_setting           triclinic
_symmetry_space_group_name_H-M   'P 1'
_symmetry_Int_Tables_number      1
_space_group_name_Hall           'P 1'
loop_
_symmetry_equiv_pos_site_id
_symmetry_equiv_pos_as_xyz
1 x,y,z
_cell_length_a                   9.025(1)
_cell_length_b                   9.025(1)
_cell_length_c                   11.343(1)
_cell_angle_alpha                90
_cell_angle_beta                 90
_cell_angle_gamma                120
_cell_volume                     800.116
loop_
_atom_site_label
_atom_site_type_symbol
_atom_site_fract_x
_atom_site_fract_y
_atom_site_fract_z
In1 In 0.50000 0.50000 0.33330
O1 O 0.26810 0.34680 0.43860
O2 O 0.44690 0.68830 0.44460
C1 C 0.21090 0.42190 0.50000
C2 C 0.30980 0.61950 0.50000
O3 O 0.34680 0.26810 0.22807
O4 O 0.73190 0.65320 0.43860
O5 O 0.65320 0.73190 0.22807
O6 O 0.68830 0.44690 0.22207
O7 O 0.55310 0.31170 0.44460
O8 O 0.31170 0.55310 0.22207
O9 O 0.07870 0.34680 0.56140
O10 O 0.24140 0.68830 0.55540
C3 C 0.42190 0.21090 0.16667
C4 C 0.61950 0.30980 0.16667
In2 In -0.00000 0.50000 0.66663
O11 O 0.34680 0.07870 0.10527
O12 O 0.68830 0.24140 0.11127
In3 In 0.50000 0.00000 -0.00003
In3_2 In 0.50000 0.00000 0.99997
In3_3 In 0.50000 1.00000 -0.00003
In3_4 In 0.50000 1.00000 0.99997
In2_2 In 1.00000 0.50000 0.66663
O3_2 O 0.73190 0.07870 0.89473
O6_2 O 0.55310 0.24140 0.88873
C3_2 C 0.78910 0.21100 0.83333
C4_2 C 0.69020 0.30970 0.83333
O11_2 O 0.92130 0.26810 0.77193
O12_2 O 0.75860 0.44690 0.77793
O1_2 O 0.65320 0.92130 0.10527
O2_2 O 0.31170 0.75860 0.11127
C1_2 C 0.57810 0.78900 0.16667
C2_2 C 0.38050 0.69030 0.16667
O5_2 O 0.26810 0.92130 0.89473
O8_2 O 0.44690 0.75860 0.88873
O1_3 O 0.07870 0.73190 0.77193
O2_3 O 0.24140 0.55310 0.77793
C1_3 C 0.21100 0.78910 0.83333
C2_3 C 0.30970 0.69020 0.83333
O3_3 O 0.92130 0.65320 0.56140
O6_3 O 0.75860 0.31170 0.55540
C3_3 C 0.78900 0.57810 0.50000
C4_3 C 0.69030 0.38050 0.50000
N1 N 0.00000 0.00000 0.00000
N1_2 N -0.00000 0.00000 1.00000
H1 H 0.10420 0.07630 0.94740
N1_3 N -0.00000 1.00000 0.00000
H2 H 0.02790 0.92370 0.05260
N1_4 N -0.00000 1.00000 1.00000
N1_5 N 1.00000 0.00000 0.00000
H4 H 0.97210 0.07630 0.05260
N1_6 N 1.00000 0.00000 1.00000
N1_7 N 1.00000 1.00000 0.00000
N1_8 N 1.00000 1.00000 1.00000
H3 H 0.89580 0.92370 0.94740
N1_9 N -0.00000 -0.00000 0.66667
H2_2 H 0.07630 0.10420 0.71927
N1_10 N 0.00000 1.00000 0.66667
H3_2 H 0.07630 0.97210 0.61407
N1_11 N 1.00000 -0.00000 0.66667
H1_2 H 0.92370 0.02790 0.61407
N1_12 N 1.00000 1.00000 0.66667
H4_2 H 0.92370 0.89580 0.71927
N1_13 N -0.00000 -0.00000 0.33333
H3_3 H 0.02790 0.10420 0.28073
H4_3 H 0.10420 0.02790 0.38593
N1_14 N -0.00000 1.00000 0.33333
N1_15 N 1.00000 -0.00000 0.33333
N1_16 N 1.00000 1.00000 0.33333
H1_3 H 0.97210 0.89580 0.28073
H2_3 H 0.89580 0.97210 0.38593
loop_
_geom_bond_atom_site_label_1
_geom_bond_atom_site_label_2
_geom_bond_site_symmetry_1
_geom_bond_site_symmetry_2
In1 O1 1_555 1_555
O1 C1 1_555 1_555
O2 In1 1_555 1_555
C1 C2 1_555 1_555
C2 O2 1_555 1_555
O3 In1 1_555 1_555
O4 In1 1_555 1_555
O5 In1 1_555 1_555
O6 In1 1_555 1_555
O7 In1 1_555 1_555
O8 In1 1_555 1_555
O9 C1 1_555 1_555
O10 C2 1_555 1_555
C3 O3 1_555 1_555
C4 O6 1_555 1_555
In2 O9 1_555 1_555
O11 C3 1_555 1_555
O12 C4 1_555 1_555
In3 O11 1_555 1_555
O10 In2 1_555 1_555
C3 C4 1_555 1_555
O12 In3 1_555 1_555
O3_2 In3_2 1_555 1_555
O6_2 In3_2 1_555 1_555
C3_2 O3_2 1_555 1_555
C4_2 O6_2 1_555 1_555
O11_2 C3_2 1_555 1_555
O12_2 C4_2 1_555 1_555
In2_2 O11_2 1_555 1_555
C3_2 C4_2 1_555 1_555
O12_2 In2_2 1_555 1_555
In3_3 O1_2 1_555 1_555
O1_2 C1_2 1_555 1_555
O2_2 In3_3 1_555 1_555
C1_2 C2_2 1_555 1_555
C2_2 O2_2 1_555 1_555
O5 C1_2 1_555 1_555
O8 C2_2 1_555 1_555
O5_2 In3_4 1_555 1_555
O8_2 In3_4 1_555 1_555
In2 O1_3 1_555 1_555
O1_3 C1_3 1_555 1_555
O2_3 In2 1_555 1_555
C1_3 C2_3 1_555 1_555
C2_3 O2_3 1_555 1_555
O5_2 C1_3 1_555 1_555
O8_2 C2_3 1_555 1_555
O3_3 In2_2 1_555 1_555
O6_3 In2_2 1_555 1_555
C3_3 O3_3 1_555 1_555
C4_3 O6_3 1_555 1_555
O4 C3_3 1_555 1_555
O7 C4_3 1_555 1_555
C3_3 C4_3 1_555 1_555
N1_2 H1 1_555 1_555
H2 N1_3 1_555 1_555
H4 N1_5 1_555 1_555
H3 N1_8 1_555 1_555
H2_2 N1_9 1_555 1_555
H3_2 N1_10 1_555 1_555
N1_11 H1_2 1_555 1_555
H4_2 N1_12 1_555 1_555
H3_3 N1_13 1_555 1_555
H4_3 N1_13 1_555 1_555
N1_16 H1_3 1_555 1_555
H2_3 N1_16 1_555 1_555

#END
