
###############################################################################
#
# This file contains modified crystal structure data generated from the
# MOF subset of the Cambridge Structural Database (CSD) v543 
# hosted by the Cambridge Crystallographic Data Centre (CCDC).
#
# This work is licensed under the Creative Commons
# Attribution-NonCommercial-ShareAlike 4.0 International License.
# To view a copy of this license, visit
# http://creativecommons.org/licenses/by-nc-sa/4.0/
# or send a letter to
# Creative Commons, PO Box 1866, Mountain View, CA 94042, USA.
#
# CIF created using the CSD Python API on 29 September 2022
# The structure has been converted into the P1 space group
# The structure has a 3D framework
# The original CSD entry BOMCOX is in the monoclinic crystal system
# The framework has been calculated to contain at least 10.0% void space
# The void calculation uses a probe of radius 1.32A, grid spacing 0.4
#
###############################################################################

data_BOMCOX
_chemical_formula_moiety         '(C160 H104 N16 O40 Zn8)n'
_symmetry_cell_setting           triclinic
_symmetry_space_group_name_H-M   'P 1'
_symmetry_Int_Tables_number      1
_space_group_name_Hall           'P 1'
loop_
_symmetry_equiv_pos_site_id
_symmetry_equiv_pos_as_xyz
1 x,y,z
_cell_length_a                   12.344(3)
_cell_length_b                   26.323(5)
_cell_length_c                   15.663(3)
_cell_angle_alpha                90
_cell_angle_beta                 97.56(3)
_cell_angle_gamma                90
_cell_volume                     5045.16
loop_
_atom_site_label
_atom_site_type_symbol
_atom_site_fract_x
_atom_site_fract_y
_atom_site_fract_z
N4 N 0.1196(4) 0.25945(19) 0.1108(3)
C38 C 0.1550(5) 0.2833(2) 0.0453(4)
H24 H 0.2274 0.2963 0.0533
C39 C 0.0157(6) 0.2429(3) 0.0997(4)
Zn3 Zn 0.22368(6) 0.24099(3) 0.22120(5)
Zn2 Zn 0.38279(6) 0.26324(3) 0.40834(5)
O1 O 0.4543(4) 0.2975(2) 0.3219(3)
O2 O 0.3439(4) 0.28881(16) 0.1974(3)
O3 O 0.6782(5) 0.45522(19) 0.1008(4)
O4 O 0.5080(4) 0.68171(18) 0.1257(3)
O5 O 0.6777(4) 0.69478(17) 0.0983(3)
O6 O 0.2599(4) 0.30981(17) 0.4222(3)
O7 O 0.1546(4) 0.27811(17) 0.3071(3)
N1 N 0.4851(4) 0.2746(2) 0.5167(3)
N2 N 0.7790(5) 0.2636(3) 0.7711(4)
N3 N 0.8256(5) 0.2617(3) 0.8574(4)
C1 C 0.4247(5) 0.3078(2) 0.2439(4)
C2 C 0.4913(5) 0.3466(2) 0.2057(4)
C3 C 0.5665(6) 0.3751(3) 0.2587(5)
H1 H 0.5766 0.3689 0.3189
C4 C 0.6274(6) 0.4126(3) 0.2249(5)
H2 H 0.6775 0.4328 0.2616
C5 C 0.6133(6) 0.4199(3) 0.1363(5)
C6 C 0.5401(7) 0.3926(3) 0.0831(5)
H3 H 0.5323 0.3982 0.0227
C7 C 0.4765(7) 0.3562(3) 0.1173(4)
H4 H 0.4229 0.3378 0.0805
C8 C 0.6562(6) 0.5062(3) 0.1100(5)
C9 C 0.7342(6) 0.5390(3) 0.0841(6)
H5 H 0.7984 0.5261 0.0643
C10 C 0.7160(6) 0.5910(3) 0.0878(5)
H6 H 0.7681 0.6138 0.0696
C11 C 0.6234(5) 0.6101(2) 0.1174(4)
C12 C 0.5488(6) 0.5765(3) 0.1429(5)
H7 H 0.4847 0.5894 0.1627
C13 C 0.5642(6) 0.5244(3) 0.1407(5)
H8 H 0.5124 0.5018 0.1598
C14 C 0.6000(5) 0.6654(3) 0.1153(4)
C15 C 0.1725(5) 0.3086(2) 0.3701(4)
C16 C 0.0839(5) 0.3446(2) 0.3825(4)
C17 C 0.0906(6) 0.3773(3) 0.4524(5)
H9 H 0.1535 0.3767 0.4944
C18 C 0.0065(7) 0.4107(3) 0.4614(6)
H10 H 0.0108 0.4325 0.5101
C29 C 0.5868(6) 0.2536(3) 0.5294(5)
H17 H 0.6125 0.2367 0.4824
C30 C 0.6532(6) 0.2555(3) 0.6052(5)
H18 H 0.7247 0.2415 0.6106
C31 C 0.6143(5) 0.2782(3) 0.6745(4)
C32 C 0.5121(5) 0.3019(3) 0.6633(4)
H19 H 0.4866 0.3199 0.7093
C33 C 0.4498(5) 0.2985(3) 0.5844(4)
H20 H 0.3792 0.3136 0.5770
C34 C 0.6787(6) 0.2788(3) 0.7621(4)
H21 H 0.6464 0.2901 0.8105
C35 C 0.9227(5) 0.2763(3) 0.8671(4)
H22 H 0.9546 0.2900 0.8201
C36 C 0.9859(5) 0.2720(3) 0.9525(4)
Zn5 Zn 0.61721(6) 0.76324(3) 0.09166(5)
O11 O 0.3223(4) 0.19478(17) 0.4017(3)
O12 O 0.1105(4) 0.16568(19) 0.2442(3)
O13 O 0.2721(4) 0.17233(17) 0.1990(3)
O8 O 0.8295(5) 0.4440(2) 0.4101(4)
O9 O 0.8895(4) 0.66568(19) 0.2558(3)
O10 O 0.7279(4) 0.67233(17) 0.3010(3)
C19 C 0.9173(7) 0.4122(3) 0.4000(5)
C20 C 0.9057(7) 0.3792(3) 0.3299(6)
H11 H 0.8419 0.3800 0.2888
C21 C 0.9899(6) 0.3449(3) 0.3213(5)
H12 H 0.9837 0.3219 0.2742
C22 C 0.8296(6) 0.4929(3) 0.3753(5)
C23 C 0.7389(6) 0.5219(3) 0.3880(5)
H13 H 0.6827 0.5084 0.4174
C24 C 0.7330(6) 0.5715(3) 0.3563(5)
H14 H 0.6721 0.5920 0.3649
C25 C 0.8142(6) 0.5918(2) 0.3122(4)
C26 C 0.9017(6) 0.5607(3) 0.2998(5)
H15 H 0.9572 0.5737 0.2692
C27 C 0.9105(7) 0.5113(3) 0.3306(5)
H16 H 0.9709 0.4907 0.3212
C28 C 0.8124(6) 0.6461(2) 0.2864(4)
Zn4 Zn 0.77632(6) 0.74099(3) 0.27880(5)
C23_2 C 0.2611(6) 0.0219(3) 0.1120(5)
H13_2 H 0.3173 0.0084 0.0826
C24_2 C 0.2670(6) 0.0715(3) 0.1437(5)
H14_2 H 0.3279 0.0920 0.1351
C25_2 C 0.1858(6) 0.0918(2) 0.1878(4)
C26_2 C 0.0983(6) 0.0607(3) 0.2002(5)
H15_2 H 0.0428 0.0737 0.2308
C27_2 C 0.0895(7) 0.0113(3) 0.1694(5)
C28_2 C 0.1876(6) 0.1461(2) 0.2136(4)
O4_2 O 0.4920(4) 0.18171(18) 0.3743(3)
C8_2 C 0.3438(6) 0.0062(3) 0.3900(5)
C9_2 C 0.2658(6) 0.0390(3) 0.4159(6)
H5_2 H 0.2016 0.0261 0.4357
C10_2 C 0.2840(6) 0.0910(3) 0.4122(5)
H6_2 H 0.2319 0.1138 0.4304
C11_2 C 0.3766(5) 0.1101(2) 0.3826(4)
C12_2 C 0.4512(6) 0.0765(3) 0.3571(5)
H7_2 H 0.5153 0.0894 0.3373
C13_2 C 0.4358(6) 0.0244(3) 0.3593(5)
H8_2 H 0.4876 0.0018 0.3402
C14_2 C 0.4000(5) 0.1654(3) 0.3847(4)
O1_2 O 0.5457(4) 0.7975(2) 0.1781(3)
O2_2 O 0.6561(4) 0.78881(16) 0.3026(3)
O3_2 O 0.3218(5) 0.95522(19) 0.3992(4)
O6_2 O 0.7401(4) 0.80981(17) 0.0778(3)
O7_2 O 0.8454(4) 0.77811(17) 0.1929(3)
C1_2 C 0.5753(5) 0.8078(2) 0.2561(4)
C2_2 C 0.5087(5) 0.8466(2) 0.2943(4)
C3_2 C 0.4335(6) 0.8751(3) 0.2413(5)
H1_2 H 0.4234 0.8689 0.1811
C4_2 C 0.3726(6) 0.9126(3) 0.2751(5)
H2_2 H 0.3225 0.9328 0.2384
C5_2 C 0.3867(6) 0.9199(3) 0.3637(5)
C6_2 C 0.4599(7) 0.8926(3) 0.4169(5)
H3_2 H 0.4677 0.8982 0.4773
C7_2 C 0.5235(7) 0.8562(3) 0.3827(4)
H4_2 H 0.5771 0.8378 0.4195
C15_2 C 0.8275(5) 0.8086(2) 0.1299(4)
C16_2 C 0.9161(5) 0.8446(2) 0.1175(4)
C17_2 C 0.9094(6) 0.8773(3) 0.0476(5)
H9_2 H 0.8465 0.8767 0.0056
C18_2 C 0.9935(7) 0.9107(3) 0.0386(6)
H17_2 H 0.3875 0.7367 0.0176
N5 N 0.8804(4) 0.75945(19) 0.3892(3)
C37 C 0.9065(5) 0.7905(2) 0.5331(4)
H23 H 0.8765 0.8079 0.5777
C38_2 C 0.8450(5) 0.7833(2) 0.4547(4)
H24_2 H 0.7726 0.7963 0.4467
C39_2 C 0.9843(6) 0.7429(3) 0.4003(4)
C37_2 C 0.0935(5) 0.2905(2) 0.9669(4)
H23_2 H 0.1235 0.3079 0.9223
H25 H 0.9872 0.2272 0.1466
C40 C 0.9492(6) 0.2480(3) 0.0223(5)
H26 H 0.8769 0.2349 0.0166
O8_2 O 0.1705(5) 0.9440(2) 0.0899(4)
C19_2 C 0.0827(7) 0.9122(3) 0.1000(5)
C20_2 C 0.0943(7) 0.8792(3) 0.1701(6)
H11_2 H 0.1581 0.8800 0.2112
C21_2 C 0.0101(6) 0.8449(3) 0.1787(5)
H12_2 H 0.0163 0.8219 0.2258
C22_2 C 0.1704(6) 0.9929(3) 0.1247(5)
H16_2 H 0.0291 0.9907 0.1788
N1_2 N 0.5149(4) 0.7746(2) 0.9833(3)
N2_2 N 0.2210(5) 0.7636(3) 0.7289(4)
N3_2 N 0.1744(5) 0.7617(3) 0.6426(4)
H10_2 H 0.9892 0.9325 0.9899
C29_2 C 0.4132(6) 0.7536(3) 0.9706(5)
C30_2 C 0.3468(6) 0.7555(3) 0.8948(5)
H18_2 H 0.2753 0.7415 0.8894
C31_2 C 0.3857(5) 0.7782(3) 0.8255(4)
C32_2 C 0.4879(5) 0.8019(3) 0.8367(4)
H19_2 H 0.5134 0.8199 0.7907
C33_2 C 0.5502(5) 0.7985(3) 0.9156(4)
H20_2 H 0.6208 0.8136 0.9230
C34_2 C 0.3213(6) 0.7788(3) 0.7379(4)
H21_2 H 0.3536 0.7901 0.6895
C35_2 C 0.0773(5) 0.7763(3) 0.6329(4)
H22_2 H 0.0454 0.7900 0.6799
C36_2 C 0.0141(5) 0.7720(3) 0.5475(4)
H25_2 H 0.0128 0.7272 0.3534
C40_2 C 0.0508(6) 0.7480(3) 0.4777(5)
H26_2 H 0.1231 0.7349 0.4834
O8_3 O 0.1705(5) 0.5560(2) 0.5899(4)
O9_2 O 0.1105(4) 0.33432(19) 0.7442(3)
O10_2 O 0.2721(4) 0.32767(17) 0.6990(3)
C19_3 C 0.0827(7) 0.5878(3) 0.6000(5)
C20_3 C 0.0943(7) 0.6208(3) 0.6701(6)
H11_3 H 0.1581 0.6200 0.7112
C21_3 C 0.0101(6) 0.6551(3) 0.6787(5)
H12_3 H 0.0163 0.6781 0.7258
C22_3 C 0.1704(6) 0.5071(3) 0.6247(5)
C23_3 C 0.2611(6) 0.4781(3) 0.6120(5)
H13_3 H 0.3173 0.4916 0.5826
C24_3 C 0.2670(6) 0.4285(3) 0.6437(5)
H14_3 H 0.3279 0.4080 0.6351
C25_3 C 0.1858(6) 0.4082(2) 0.6878(4)
C26_3 C 0.0983(6) 0.4393(3) 0.7002(5)
H15_3 H 0.0428 0.4263 0.7308
C27_3 C 0.0895(7) 0.4887(3) 0.6694(5)
H16_3 H 0.0291 0.5093 0.6788
C28_3 C 0.1876(6) 0.3539(2) 0.7136(4)
Zn4_2 Zn 0.22368(6) 0.25901(3) 0.72120(5)
Zn1 Zn 0.77632(6) 0.75901(3) 0.77880(5)
Zn2_2 Zn 0.61721(6) 0.73676(3) 0.59166(5)
O1_3 O 0.5457(4) 0.7025(2) 0.6781(3)
O2_3 O 0.6561(4) 0.71119(16) 0.8026(3)
O3_3 O 0.3218(5) 0.54478(19) 0.8992(4)
O4_3 O 0.4920(4) 0.31829(18) 0.8743(3)
O5_2 O 0.3223(4) 0.30522(17) 0.9017(3)
O6_3 O 0.7401(4) 0.69019(17) 0.5778(3)
O7_3 O 0.8454(4) 0.72189(17) 0.6929(3)
N1_3 N 0.5149(4) 0.7254(2) 0.4833(3)
N2_3 N 0.2210(5) 0.7364(3) 0.2289(4)
N3_3 N 0.1744(5) 0.7383(3) 0.1426(4)
C1_3 C 0.5753(5) 0.6922(2) 0.7561(4)
C2_3 C 0.5087(5) 0.6534(2) 0.7943(4)
C3_3 C 0.4335(6) 0.6249(3) 0.7413(5)
H1_3 H 0.4234 0.6311 0.6811
C4_3 C 0.3726(6) 0.5874(3) 0.7751(5)
H2_3 H 0.3225 0.5672 0.7384
C5_3 C 0.3867(6) 0.5801(3) 0.8637(5)
C6_3 C 0.4599(7) 0.6074(3) 0.9169(5)
H3_3 H 0.4677 0.6018 0.9773
C7_3 C 0.5235(7) 0.6438(3) 0.8827(4)
H4_3 H 0.5771 0.6622 0.9195
C8_3 C 0.3438(6) 0.4938(3) 0.8900(5)
C9_3 C 0.2658(6) 0.4610(3) 0.9159(6)
H5_3 H 0.2016 0.4739 0.9357
C10_3 C 0.2840(6) 0.4090(3) 0.9122(5)
H6_3 H 0.2319 0.3862 0.9304
C11_3 C 0.3766(5) 0.3899(2) 0.8826(4)
C12_3 C 0.4512(6) 0.4235(3) 0.8571(5)
H7_3 H 0.5153 0.4106 0.8373
C13_3 C 0.4358(6) 0.4756(3) 0.8593(5)
H8_3 H 0.4876 0.4982 0.8402
C14_3 C 0.4000(5) 0.3346(3) 0.8847(4)
C15_3 C 0.8275(5) 0.6914(2) 0.6299(4)
C16_3 C 0.9161(5) 0.6554(2) 0.6175(4)
C17_3 C 0.9094(6) 0.6227(3) 0.5476(5)
H9_3 H 0.8465 0.6233 0.5056
C18_3 C 0.9935(7) 0.5893(3) 0.5386(6)
H10_3 H 0.9892 0.5675 0.4899
C29_3 C 0.4132(6) 0.7464(3) 0.4706(5)
H17_3 H 0.3875 0.7633 0.5176
C30_3 C 0.3468(6) 0.7445(3) 0.3948(5)
H18_3 H 0.2753 0.7585 0.3894
C31_3 C 0.3857(5) 0.7218(3) 0.3255(4)
C32_3 C 0.4879(5) 0.6981(3) 0.3367(4)
H19_3 H 0.5134 0.6801 0.2907
C33_3 C 0.5502(5) 0.7015(3) 0.4156(4)
H20_3 H 0.6208 0.6864 0.4230
C34_3 C 0.3213(6) 0.7212(3) 0.2379(4)
H21_3 H 0.3536 0.7099 0.1895
C35_3 C 0.0773(5) 0.7237(3) 0.1329(4)
H22_3 H 0.0454 0.7100 0.1799
C36_3 C 0.0141(5) 0.7280(3) 0.0475(4)
Zn5_2 Zn 0.38279(6) 0.23676(3) 0.90834(5)
O11_2 O 0.6777(4) 0.80522(17) 0.5983(3)
O12_2 O 0.8895(4) 0.83432(19) 0.7558(3)
O13_2 O 0.7279(4) 0.82767(17) 0.8010(3)
N5_2 N 0.8804(4) 0.74055(19) 0.8892(3)
C38_3 C 0.8450(5) 0.7167(2) 0.9547(4)
H24_3 H 0.7726 0.7037 0.9467
C39_3 C 0.9843(6) 0.7571(3) 0.9003(4)
N4_2 N 0.1196(4) 0.24055(19) 0.6108(3)
C37_3 C 0.0935(5) 0.2095(2) 0.4669(4)
H23_3 H 0.1235 0.1921 0.4223
C38_4 C 0.1550(5) 0.2167(2) 0.5453(4)
H24_4 H 0.2274 0.2037 0.5533
C39_4 C 0.0157(6) 0.2571(3) 0.5997(4)
O1_4 O 0.4543(4) 0.2025(2) 0.8219(3)
O2_4 O 0.3439(4) 0.21119(16) 0.6974(3)
O3_4 O 0.6782(5) 0.04478(19) 0.6008(4)
O6_4 O 0.2599(4) 0.19019(17) 0.9222(3)
O7_4 O 0.1546(4) 0.22189(17) 0.8071(3)
C1_4 C 0.4247(5) 0.1922(2) 0.7439(4)
C2_4 C 0.4913(5) 0.1534(2) 0.7057(4)
C3_4 C 0.5665(6) 0.1249(3) 0.7587(5)
H1_4 H 0.5766 0.1311 0.8189
C4_4 C 0.6274(6) 0.0874(3) 0.7249(5)
H2_4 H 0.6775 0.0672 0.7616
C5_4 C 0.6133(6) 0.0801(3) 0.6363(5)
C6_4 C 0.5401(7) 0.1074(3) 0.5831(5)
H3_4 H 0.5323 0.1018 0.5227
C7_4 C 0.4765(7) 0.1438(3) 0.6173(4)
H4_4 H 0.4229 0.1622 0.5805
C15_4 C 0.1725(5) 0.1914(2) 0.8701(4)
C16_4 C 0.0839(5) 0.1554(2) 0.8825(4)
C17_4 C 0.0906(6) 0.1227(3) 0.9524(5)
H9_4 H 0.1535 0.1233 0.9944
C18_4 C 0.0065(7) 0.0893(3) 0.9614(6)
H17_4 H 0.6125 0.2633 0.9824
O4_4 O 0.5080(4) 0.81829(18) 0.6257(3)
C8_4 C 0.6562(6) 0.9938(3) 0.6100(5)
C9_4 C 0.7342(6) 0.9610(3) 0.5841(6)
H5_4 H 0.7984 0.9739 0.5643
C10_4 C 0.7160(6) 0.9090(3) 0.5878(5)
H6_4 H 0.7681 0.8862 0.5696
C11_4 C 0.6234(5) 0.8899(2) 0.6174(4)
C12_4 C 0.5488(6) 0.9235(3) 0.6429(5)
H7_4 H 0.4847 0.9106 0.6627
C13_4 C 0.5642(6) 0.9756(3) 0.6407(5)
H8_4 H 0.5124 0.9982 0.6598
C14_4 C 0.6000(5) 0.8346(3) 0.6153(4)
C23_4 C 0.7389(6) 0.9781(3) 0.8880(5)
H13_4 H 0.6827 0.9916 0.9174
C24_4 C 0.7330(6) 0.9285(3) 0.8563(5)
H14_4 H 0.6721 0.9080 0.8649
C25_4 C 0.8142(6) 0.9082(2) 0.8122(4)
C26_4 C 0.9017(6) 0.9393(3) 0.7998(5)
H15_4 H 0.9572 0.9263 0.7692
C27_4 C 0.9105(7) 0.9887(3) 0.8306(5)
C28_4 C 0.8124(6) 0.8539(2) 0.7864(4)
H25_3 H 0.0128 0.7728 0.8534
C40_3 C 0.0508(6) 0.7520(3) 0.9777(5)
H26_3 H 0.1231 0.7651 0.9834
C37_4 C 0.9065(5) 0.7095(2) 0.0331(4)
H23_4 H 0.8765 0.6921 0.0777
N1_4 N 0.4851(4) 0.2254(2) 0.0167(3)
N2_4 N 0.7790(5) 0.2364(3) 0.2711(4)
N3_4 N 0.8256(5) 0.2383(3) 0.3574(4)
H10_4 H 0.0108 0.0675 0.0101
C29_4 C 0.5868(6) 0.2464(3) 0.0294(5)
C30_4 C 0.6532(6) 0.2445(3) 0.1052(5)
H18_4 H 0.7247 0.2585 0.1106
C31_4 C 0.6143(5) 0.2218(3) 0.1745(4)
C32_4 C 0.5121(5) 0.1981(3) 0.1633(4)
H19_4 H 0.4866 0.1801 0.2093
C33_4 C 0.4498(5) 0.2015(3) 0.0844(4)
H20_4 H 0.3792 0.1864 0.0770
C34_4 C 0.6787(6) 0.2212(3) 0.2621(4)
H21_4 H 0.6464 0.2099 0.3105
C35_4 C 0.9227(5) 0.2237(3) 0.3671(4)
H22_4 H 0.9546 0.2100 0.3201
C36_4 C 0.9859(5) 0.2280(3) 0.4525(4)
H25_4 H 0.9872 0.2728 0.6466
C40_4 C 0.9492(6) 0.2520(3) 0.5223(5)
H26_4 H 0.8769 0.2651 0.5166
O8_4 O 0.8295(5) 0.0560(2) 0.9101(4)
C19_4 C 0.9173(7) 0.0878(3) 0.9000(5)
C20_4 C 0.9057(7) 0.1208(3) 0.8299(6)
H11_4 H 0.8419 0.1200 0.7888
C21_4 C 0.9899(6) 0.1551(3) 0.8213(5)
H12_4 H 0.9837 0.1781 0.7742
C22_4 C 0.8296(6) 0.0071(3) 0.8753(5)
H16_4 H 0.9709 0.0093 0.8212
loop_
_geom_bond_atom_site_label_1
_geom_bond_atom_site_label_2
_geom_bond_site_symmetry_1
_geom_bond_site_symmetry_2
N4 C38 1_555 1_555
H24 C38 1_555 1_555
C39 N4 1_555 1_555
Zn3 N4 1_555 1_555
Zn3 O2 1_555 1_555
Zn2 O1 1_555 1_555
O1 C1 1_555 1_555
O2 C1 1_555 1_555
O3 C5 1_555 1_555
O4 C14 1_555 1_555
O5 C14 1_555 1_555
O6 Zn2 1_555 1_555
O7 Zn3 1_555 1_555
N1 Zn2 1_555 1_555
N2 N3 1_555 1_555
N3 C35 1_555 1_555
C1 C2 1_555 1_555
C2 C3 1_555 1_555
C3 H1 1_555 1_555
C4 C3 1_555 1_555
H2 C4 1_555 1_555
C5 C4 1_555 1_555
C6 C5 1_555 1_555
H3 C6 1_555 1_555
C7 C2 1_555 1_555
H4 C7 1_555 1_555
C8 O3 1_555 1_555
C9 C8 1_555 1_555
H5 C9 1_555 1_555
C10 C9 1_555 1_555
H6 C10 1_555 1_555
C11 C10 1_555 1_555
C12 C11 1_555 1_555
H7 C12 1_555 1_555
C13 C8 1_555 1_555
H8 C13 1_555 1_555
C14 C11 1_555 1_555
C15 O6 1_555 1_555
C16 C15 1_555 1_555
C17 C16 1_555 1_555
H9 C17 1_555 1_555
C18 C17 1_555 1_555
H10 C18 1_555 1_555
C29 N1 1_555 1_555
H17 C29 1_555 1_555
C30 C29 1_555 1_555
H18 C30 1_555 1_555
C31 C30 1_555 1_555
C32 C31 1_555 1_555
H19 C32 1_555 1_555
C33 N1 1_555 1_555
H20 C33 1_555 1_555
C34 N2 1_555 1_555
H21 C34 1_555 1_555
C35 H22 1_555 1_555
C36 C35 1_555 1_555
Zn5 O5 1_555 1_555
O11 Zn2 1_555 1_555
O12 Zn3 1_555 1_555
O13 Zn3 1_555 1_555
O7 C15 1_555 1_555
C6 C7 1_555 1_555
C12 C13 1_555 1_555
C31 C34 1_555 1_555
C32 C33 1_555 1_555
O8 C19 1_555 1_555
O9 C28 1_555 1_555
O10 C28 1_555 1_555
C20 C19 1_555 1_555
H11 C20 1_555 1_555
H12 C21 1_555 1_555
C22 O8 1_555 1_555
C23 C22 1_555 1_555
H13 C23 1_555 1_555
C24 C23 1_555 1_555
H14 C24 1_555 1_555
C25 C24 1_555 1_555
C26 C25 1_555 1_555
H15 C26 1_555 1_555
C27 C22 1_555 1_555
H16 C27 1_555 1_555
C28 C25 1_555 1_555
Zn4 O9 1_555 1_555
O10 Zn4 1_555 1_555
C20 C21 1_555 1_555
C26 C27 1_555 1_555
O12 C28_2 1_555 1_555
O13 C28_2 1_555 1_555
H13_2 C23_2 1_555 1_555
C24_2 C23_2 1_555 1_555
H14_2 C24_2 1_555 1_555
C25_2 C24_2 1_555 1_555
C26_2 C25_2 1_555 1_555
H15_2 C26_2 1_555 1_555
C28_2 C25_2 1_555 1_555
C26_2 C27_2 1_555 1_555
O4_2 C14_2 1_555 1_555
O11 C14_2 1_555 1_555
C9_2 C8_2 1_555 1_555
H5_2 C9_2 1_555 1_555
C10_2 C9_2 1_555 1_555
H6_2 C10_2 1_555 1_555
C11_2 C10_2 1_555 1_555
C12_2 C11_2 1_555 1_555
H7_2 C12_2 1_555 1_555
C13_2 C8_2 1_555 1_555
H8_2 C13_2 1_555 1_555
C14_2 C11_2 1_555 1_555
C12_2 C13_2 1_555 1_555
Zn4 O2_2 1_555 1_555
Zn5 O1_2 1_555 1_555
O1_2 C1_2 1_555 1_555
O2_2 C1_2 1_555 1_555
O3_2 C5_2 1_555 1_555
O6_2 Zn5 1_555 1_555
O7_2 Zn4 1_555 1_555
C1_2 C2_2 1_555 1_555
C2_2 C3_2 1_555 1_555
C3_2 H1_2 1_555 1_555
C4_2 C3_2 1_555 1_555
H2_2 C4_2 1_555 1_555
C5_2 C4_2 1_555 1_555
C6_2 C5_2 1_555 1_555
H3_2 C6_2 1_555 1_555
C7_2 C2_2 1_555 1_555
H4_2 C7_2 1_555 1_555
C15_2 O6_2 1_555 1_555
C16_2 C15_2 1_555 1_555
C17_2 C16_2 1_555 1_555
H9_2 C17_2 1_555 1_555
C18_2 C17_2 1_555 1_555
N5 Zn4 1_555 1_555
O7_2 C15_2 1_555 1_555
C6_2 C7_2 1_555 1_555
N5 C38_2 1_555 1_555
H23 C37 1_555 1_555
C38_2 C37 1_555 1_555
H24_2 C38_2 1_555 1_555
C39_2 N5 1_555 1_555
H23_2 C37_2 1_555 1_555
H26 C40 1_555 1_555
O8_2 C19_2 1_555 1_555
C20_2 C19_2 1_555 1_555
H11_2 C20_2 1_555 1_555
H12_2 C21_2 1_555 1_555
C22_2 O8_2 1_555 1_555
C20_2 C21_2 1_555 1_555
N2_2 N3_2 1_555 1_555
N3_2 C35_2 1_555 1_555
C29_2 N1_2 1_555 1_555
C30_2 C29_2 1_555 1_555
H18_2 C30_2 1_555 1_555
C31_2 C30_2 1_555 1_555
C32_2 C31_2 1_555 1_555
H19_2 C32_2 1_555 1_555
C33_2 N1_2 1_555 1_555
H20_2 C33_2 1_555 1_555
C34_2 N2_2 1_555 1_555
H21_2 C34_2 1_555 1_555
C35_2 H22_2 1_555 1_555
C36_2 C35_2 1_555 1_555
C40_2 C36_2 1_555 1_555
H26_2 C40_2 1_555 1_555
C31_2 C34_2 1_555 1_555
C32_2 C33_2 1_555 1_555
O8_3 C19_3 1_555 1_555
O9_2 C28_3 1_555 1_555
O10_2 C28_3 1_555 1_555
C20_3 C19_3 1_555 1_555
H11_3 C20_3 1_555 1_555
H12_3 C21_3 1_555 1_555
C22_3 O8_3 1_555 1_555
C23_3 C22_3 1_555 1_555
H13_3 C23_3 1_555 1_555
C24_3 C23_3 1_555 1_555
H14_3 C24_3 1_555 1_555
C25_3 C24_3 1_555 1_555
C26_3 C25_3 1_555 1_555
H15_3 C26_3 1_555 1_555
C27_3 C22_3 1_555 1_555
H16_3 C27_3 1_555 1_555
C28_3 C25_3 1_555 1_555
Zn4_2 O9_2 1_555 1_555
O10_2 Zn4_2 1_555 1_555
C20_3 C21_3 1_555 1_555
C26_3 C27_3 1_555 1_555
Zn1 O2_3 1_555 1_555
Zn2_2 O1_3 1_555 1_555
O1_3 C1_3 1_555 1_555
O2_3 C1_3 1_555 1_555
O3_3 C5_3 1_555 1_555
O4_3 C14_3 1_555 1_555
O5_2 C14_3 1_555 1_555
O6_3 Zn2_2 1_555 1_555
O7_3 Zn1 1_555 1_555
N1_3 Zn2_2 1_555 1_555
N2_3 N3_3 1_555 1_555
N3_3 C35_3 1_555 1_555
C1_3 C2_3 1_555 1_555
C2_3 C3_3 1_555 1_555
C3_3 H1_3 1_555 1_555
C4_3 C3_3 1_555 1_555
H2_3 C4_3 1_555 1_555
C5_3 C4_3 1_555 1_555
C6_3 C5_3 1_555 1_555
H3_3 C6_3 1_555 1_555
C7_3 C2_3 1_555 1_555
H4_3 C7_3 1_555 1_555
C8_3 O3_3 1_555 1_555
C9_3 C8_3 1_555 1_555
H5_3 C9_3 1_555 1_555
C10_3 C9_3 1_555 1_555
H6_3 C10_3 1_555 1_555
C11_3 C10_3 1_555 1_555
C12_3 C11_3 1_555 1_555
H7_3 C12_3 1_555 1_555
C13_3 C8_3 1_555 1_555
H8_3 C13_3 1_555 1_555
C14_3 C11_3 1_555 1_555
C15_3 O6_3 1_555 1_555
C16_3 C15_3 1_555 1_555
C17_3 C16_3 1_555 1_555
H9_3 C17_3 1_555 1_555
C18_3 C17_3 1_555 1_555
H10_3 C18_3 1_555 1_555
C29_3 N1_3 1_555 1_555
H17_3 C29_3 1_555 1_555
C30_3 C29_3 1_555 1_555
H18_3 C30_3 1_555 1_555
C31_3 C30_3 1_555 1_555
C32_3 C31_3 1_555 1_555
H19_3 C32_3 1_555 1_555
C33_3 N1_3 1_555 1_555
H20_3 C33_3 1_555 1_555
C34_3 N2_3 1_555 1_555
H21_3 C34_3 1_555 1_555
C35_3 H22_3 1_555 1_555
C36_3 C35_3 1_555 1_555
Zn5_2 O5_2 1_555 1_555
O11_2 Zn2_2 1_555 1_555
O12_2 Zn1 1_555 1_555
O13_2 Zn1 1_555 1_555
N5_2 Zn1 1_555 1_555
O7_3 C15_3 1_555 1_555
C6_3 C7_3 1_555 1_555
C12_3 C13_3 1_555 1_555
C31_3 C34_3 1_555 1_555
C32_3 C33_3 1_555 1_555
N5_2 C38_3 1_555 1_555
H24_3 C38_3 1_555 1_555
C39_3 N5_2 1_555 1_555
N4_2 C38_4 1_555 1_555
H23_3 C37_3 1_555 1_555
C38_4 C37_3 1_555 1_555
H24_4 C38_4 1_555 1_555
C39_4 N4_2 1_555 1_555
Zn4_2 N4_2 1_555 1_555
Zn4_2 O2_4 1_555 1_555
Zn5_2 O1_4 1_555 1_555
O1_4 C1_4 1_555 1_555
O2_4 C1_4 1_555 1_555
O3_4 C5_4 1_555 1_555
O6_4 Zn5_2 1_555 1_555
O7_4 Zn4_2 1_555 1_555
C1_4 C2_4 1_555 1_555
C2_4 C3_4 1_555 1_555
C3_4 H1_4 1_555 1_555
C4_4 C3_4 1_555 1_555
H2_4 C4_4 1_555 1_555
C5_4 C4_4 1_555 1_555
C6_4 C5_4 1_555 1_555
H3_4 C6_4 1_555 1_555
C7_4 C2_4 1_555 1_555
H4_4 C7_4 1_555 1_555
C15_4 O6_4 1_555 1_555
C16_4 C15_4 1_555 1_555
C17_4 C16_4 1_555 1_555
H9_4 C17_4 1_555 1_555
C18_4 C17_4 1_555 1_555
O7_4 C15_4 1_555 1_555
C6_4 C7_4 1_555 1_555
O4_4 C14_4 1_555 1_555
O11_2 C14_4 1_555 1_555
C9_4 C8_4 1_555 1_555
H5_4 C9_4 1_555 1_555
C10_4 C9_4 1_555 1_555
H6_4 C10_4 1_555 1_555
C11_4 C10_4 1_555 1_555
C12_4 C11_4 1_555 1_555
H7_4 C12_4 1_555 1_555
C13_4 C8_4 1_555 1_555
H8_4 C13_4 1_555 1_555
C14_4 C11_4 1_555 1_555
C12_4 C13_4 1_555 1_555
O12_2 C28_4 1_555 1_555
O13_2 C28_4 1_555 1_555
H13_4 C23_4 1_555 1_555
C24_4 C23_4 1_555 1_555
H14_4 C24_4 1_555 1_555
C25_4 C24_4 1_555 1_555
C26_4 C25_4 1_555 1_555
H15_4 C26_4 1_555 1_555
C28_4 C25_4 1_555 1_555
C26_4 C27_4 1_555 1_555
H26_3 C40_3 1_555 1_555
H23_4 C37_4 1_555 1_555
N2_4 N3_4 1_555 1_555
N3_4 C35_4 1_555 1_555
C29_4 N1_4 1_555 1_555
C30_4 C29_4 1_555 1_555
H18_4 C30_4 1_555 1_555
C31_4 C30_4 1_555 1_555
C32_4 C31_4 1_555 1_555
H19_4 C32_4 1_555 1_555
C33_4 N1_4 1_555 1_555
H20_4 C33_4 1_555 1_555
C34_4 N2_4 1_555 1_555
H21_4 C34_4 1_555 1_555
C35_4 H22_4 1_555 1_555
C36_4 C35_4 1_555 1_555
C40_4 C36_4 1_555 1_555
H26_4 C40_4 1_555 1_555
C31_4 C34_4 1_555 1_555
C32_4 C33_4 1_555 1_555
O8_4 C19_4 1_555 1_555
C20_4 C19_4 1_555 1_555
H11_4 C20_4 1_555 1_555
H12_4 C21_4 1_555 1_555
C22_4 O8_4 1_555 1_555
C20_4 C21_4 1_555 1_555

#END
