
###############################################################################
#
# This file contains modified crystal structure data generated from the
# MOF subset of the Cambridge Structural Database (CSD) v543 
# hosted by the Cambridge Crystallographic Data Centre (CCDC).
#
# This work is licensed under the Creative Commons
# Attribution-NonCommercial-ShareAlike 4.0 International License.
# To view a copy of this license, visit
# http://creativecommons.org/licenses/by-nc-sa/4.0/
# or send a letter to
# Creative Commons, PO Box 1866, Mountain View, CA 94042, USA.
#
# CIF created using the CSD Python API on 29 September 2022
# The structure has been converted into the P1 space group
# The structure has a 3D framework
# The original CSD entry BOMVUX is in the monoclinic crystal system
# The framework has been calculated to contain at least 10.0% void space
# The void calculation uses a probe of radius 1.32A, grid spacing 0.4
# The framework is charged, counterions have been retained in the structure
#
###############################################################################

data_BOMVUX
_chemical_formula_moiety         '(C156 H132 Br4 Mn9 N24 O29 1+)n'
_symmetry_cell_setting           triclinic
_symmetry_space_group_name_H-M   'P 1'
_symmetry_Int_Tables_number      1
_space_group_name_Hall           'P 1'
loop_
_symmetry_equiv_pos_site_id
_symmetry_equiv_pos_as_xyz
1 x,y,z
_cell_length_a                   12.337(3)
_cell_length_b                   32.664(7)
_cell_length_c                   12.964(3)
_cell_angle_alpha                90
_cell_angle_beta                 93.65(3)
_cell_angle_gamma                90
_cell_volume                     5213.58
loop_
_atom_site_label
_atom_site_type_symbol
_atom_site_fract_x
_atom_site_fract_y
_atom_site_fract_z
Br1 Br 0.34034(13) 0.7500 0.87884(15)
Mn1 Mn 0.22329(18) 0.7500 0.70754(17)
N1 N 0.1143(5) 0.79312(17) 0.7581(5)
C1 C 0.3203(11) 0.7881(3) 0.6689(12)
C2 C 0.1486(19) 0.7500 0.5779(14)
N2 N 0.0508(5) 0.78649(16) 0.8417(5)
C3 C 0.0788(6) 0.8271(2) 0.7160(7)
O1 O 0.3803(10) 0.8094(3) 0.6367(11)
O2 O 0.1034(11) 0.7500 0.5092(8)
C5 C 0.0714(10) 0.7500 0.9045(8)
C7 C 0.1162(9) 0.8466(3) 0.6229(8)
H1 H 0.0237 0.7500 0.9631
H2 H 0.1478 0.7500 0.9331
H3 H 0.1778 0.8647 0.6420
H4 H 0.0569 0.8628 0.5895
H5 H 0.1390 0.8256 0.5750
H9 H 0.0088 0.9209 0.8027
N7 N 0.1143(5) 0.70688(17) 0.7581(5)
N8 N 0.0508(5) 0.71351(16) 0.8417(5)
C41 C 0.0788(6) 0.6729(2) 0.7160(7)
C44 C 0.1162(9) 0.6534(3) 0.6229(8)
H35 H 0.1778 0.6353 0.6420
H36 H 0.0569 0.6372 0.5895
H37 H 0.1390 0.6744 0.5750
H41 H 0.0088 0.5791 0.8027
C78 C 0.3203(11) 0.7119(3) 0.6689(12)
O15 O 0.3803(10) 0.6906(3) 0.6367(11)
O3 O 0.7676(3) 0.01515(13) 0.6389(3)
Mn2 Mn 0.70175(5) 0.07105(2) 0.59063(5)
Mn3 Mn 0.5000 0.0000 0.5000
O5 O 0.5296(3) 0.05778(12) 0.5898(3)
C31 C 0.0379(4) 0.11933(18) 0.6324(4)
C33 C 0.0223(5) 0.1845(2) 0.7468(6)
C34 C 0.1565(4) 0.1145(2) 0.6246(5)
H26 H 0.0462 0.0521 0.5024
H28 H 0.1002 0.1811 0.7645
H30 H 0.0101 0.2098 0.7070
C35 C 0.2210(5) 0.1470(2) 0.5902(6)
C36 C 0.2054(4) 0.07656(19) 0.6459(5)
H31 H 0.1891 0.1729 0.5743
C37 C 0.3310(5) 0.1409(2) 0.5796(7)
H32 H 0.1630 0.0545 0.6692
C38 C 0.3141(4) 0.07075(17) 0.6334(5)
H33 H 0.3746 0.1627 0.5573
C39 C 0.3781(4) 0.10244(19) 0.6017(4)
H34 H 0.3456 0.0446 0.6467
C40 C 0.4956(4) 0.09563(18) 0.5866(4)
O8 O 0.5585(3) 0.12429(13) 0.5766(3)
O17 O 0.3669(4) 0.02721(15) 0.4150(4)
N13 N 0.6925(3) 0.09142(13) 0.7609(3)
O19 O 0.7116(3) 0.07189(15) 0.4294(3)
N15 N 0.8601(3) 0.10381(14) 0.6096(3)
O21 O 0.5953(5) 0.02301(15) 0.3821(3)
N9 N 0.3075(3) 0.90858(13) 0.2391(3)
N10 N 0.1399(3) 0.89619(14) 0.3904(3)
C60 C 0.2963(5) 0.90635(19) 0.0656(3)
C61 C 0.3325(4) 0.92854(18) 0.1552(4)
C62 C 0.2480(4) 0.87116(19) 0.1006(3)
C63 C 0.3908(6) 0.9691(2) 0.1624(4)
N11 N 0.2571(3) 0.87284(14) 0.2064(3)
C64 C 0.1958(6) 0.8358(2) 0.0457(4)
H49 H 0.3386 0.9913 0.1481
H50 H 0.4253 0.9725 0.2321
H51 H 0.4464 0.9699 0.1118
C65 C 0.2191(4) 0.84540(16) 0.2825(4)
H53 H 0.1262 0.8299 0.0750
H54 H 0.2433 0.8118 0.0538
N12 N 0.1255(3) 0.86158(13) 0.3300(3)
H55 H 0.2000 0.8188 0.2494
H56 H 0.2781 0.8405 0.3364
C66 C 0.0413(4) 0.90758(17) 0.4126(4)
C67 C 0.0189(4) 0.85131(18) 0.3163(4)
C69 C 0.0289(5) 0.9458(2) 0.4776(6)
H57 H 0.0467 0.9700 0.4373
H59 H 0.0781 0.9442 0.5398
H61 H 0.0164 0.8139 0.1896
Mn8 Mn 0.29825(5) 0.92895(2) 0.40937(5)
C4 C 0.9743(5) 0.81493(17) 0.8497(5)
C6 C 0.9849(6) 0.8423(2) 0.7722(6)
C8 C 0.8886(7) 0.8127(3) 0.9267(6)
C9 C 0.9183(6) 0.8781(2) 0.7402(5)
H6 H 0.8749 0.7840 0.9436
H7 H 0.8215 0.8253 0.8973
H8 H 0.9137 0.8274 0.9897
C10 C 0.9441(9) 0.9157(3) 0.7609(9)
C11 C 0.8067(9) 0.8743(3) 0.7133(8)
C12 C 0.8824(8) 0.9489(2) 0.7252(7)
C13 C 0.7400(8) 0.9067(2) 0.6775(8)
H10 H 0.7743 0.8482 0.7197
C14 C 0.7860(4) 0.94480(18) 0.6749(4)
H11 H 0.9103 0.9757 0.7373
H12 H 0.6659 0.9025 0.6560
C15 C 0.7247(4) 0.98018(18) 0.6282(4)
O4 O 0.6331(4) 0.97279(15) 0.5850(4)
Mn3_2 Mn 0.5000 1.0000 0.5000
C42 C 0.9743(5) 0.68507(17) 0.8497(5)
C43 C 0.9849(6) 0.6577(2) 0.7722(6)
C45 C 0.8886(7) 0.6873(3) 0.9267(6)
C46 C 0.9183(6) 0.6219(2) 0.7402(5)
H38 H 0.8749 0.7160 0.9436
H39 H 0.8215 0.6747 0.8973
H40 H 0.9137 0.6726 0.9897
C47 C 0.9441(9) 0.5843(3) 0.7609(9)
C48 C 0.8067(9) 0.6257(3) 0.7133(8)
C49 C 0.8824(8) 0.5511(2) 0.7252(7)
C50 C 0.7400(8) 0.5933(2) 0.6775(8)
H42 H 0.7743 0.6518 0.7197
C51 C 0.7860(4) 0.55520(18) 0.6749(4)
H43 H 0.9103 0.5243 0.7373
H44 H 0.6659 0.5975 0.6560
C52 C 0.7247(4) 0.51982(18) 0.6282(4)
O9 O 0.7676(3) 0.48485(13) 0.6389(3)
O10 O 0.6331(4) 0.52721(15) 0.5850(4)
O12 O 0.2884(3) 0.92811(15) 0.5706(3)
O13 O 0.4047(5) 0.97699(15) 0.6179(3)
C53 C 0.3436(4) 0.94896(16) 0.6373(4)
C54 C 0.3280(4) 0.93872(18) 0.7488(4)
C55 C 0.2368(9) 0.9235(5) 0.7835(6)
C56 C 0.4184(8) 0.9456(4) 0.8225(6)
H45 H 0.1774 0.9188 0.7347
C57 C 0.2229(8) 0.9142(4) 0.8859(6)
H46 H 0.4842 0.9571 0.8014
C58 C 0.4071(8) 0.9351(3) 0.9252(6)
C59 C 0.3065(4) 0.91730(19) 0.9555(3)
H47 H 0.1539 0.9056 0.9065
H48 H 0.4654 0.9396 0.9754
H52 H 0.1834 0.8423 0.9722
Mn9 Mn 0.70175(5) 0.42895(2) 0.59063(5)
Mn11 Mn 0.5000 0.5000 0.5000
O18 O 0.4704(3) 0.94222(12) 0.4102(3)
C16 C 0.6564(4) 0.05104(16) 0.3627(4)
C17 C 0.6720(4) 0.06128(18) 0.2512(4)
C18 C 0.7632(9) 0.0765(5) 0.2165(6)
C19 C 0.5816(8) 0.0544(4) 0.1775(6)
H13 H 0.8226 0.0812 0.2653
C20 C 0.7771(8) 0.0858(4) 0.1141(6)
H14 H 0.5158 0.0429 0.1986
C21 C 0.5929(8) 0.0649(3) 0.0748(6)
C22 C 0.6935(4) 0.08270(19) 0.0445(3)
H15 H 0.8461 0.0944 0.0935
H16 H 0.5346 0.0604 0.0246
H20 H 0.8166 0.1577 0.0278
C23 C 0.7037(5) 0.09365(19) 0.9344(3)
C24 C 0.6675(4) 0.07146(18) 0.8448(4)
C25 C 0.7520(4) 0.12884(19) 0.8994(3)
C26 C 0.6092(6) 0.0309(2) 0.8376(4)
N5 N 0.7429(3) 0.12716(14) 0.7936(3)
C27 C 0.8042(6) 0.1642(2) 0.9543(4)
H17 H 0.6614 0.0087 0.8519
H18 H 0.5747 0.0275 0.7679
H19 H 0.5536 0.0301 0.8882
C28 C 0.7809(4) 0.15460(16) 0.7175(4)
H21 H 0.8738 0.1701 0.9250
H22 H 0.7567 0.1882 0.9462
N6 N 0.8745(3) 0.13842(13) 0.6700(3)
H23 H 0.8000 0.1812 0.7506
H24 H 0.7219 0.1595 0.6636
C29 C 0.9587(4) 0.09242(17) 0.5874(4)
C30 C 0.9811(4) 0.14869(18) 0.6837(4)
C32 C 0.9711(5) 0.0542(2) 0.5224(6)
H25 H 0.9533 0.0300 0.5627
H27 H 0.9219 0.0558 0.4602
H29 H 0.9836 0.1861 0.8104
C68 C 0.9621(4) 0.88067(18) 0.3676(4)
C70 C 0.9777(5) 0.8155(2) 0.2532(6)
C71 C 0.8435(4) 0.8855(2) 0.3754(5)
H58 H 0.9538 0.9479 0.4976
H60 H 0.8998 0.8189 0.2355
H62 H 0.9899 0.7902 0.2930
C72 C 0.7790(5) 0.8530(2) 0.4098(6)
C73 C 0.7946(4) 0.92344(19) 0.3541(5)
H63 H 0.8109 0.8271 0.4257
C74 C 0.6690(5) 0.8591(2) 0.4204(7)
H64 H 0.8370 0.9455 0.3308
C75 C 0.6859(4) 0.92925(17) 0.3666(5)
H65 H 0.6254 0.8373 0.4427
C76 C 0.6219(4) 0.89756(19) 0.3983(4)
H66 H 0.6544 0.9554 0.3533
C77 C 0.5044(4) 0.90437(18) 0.4134(4)
O14 O 0.4415(3) 0.87571(13) 0.4234(3)
O16 O 0.2324(3) 0.98485(13) 0.3611(3)
N3 N 0.3075(3) 0.59142(13) 0.2391(3)
N4 N 0.1399(3) 0.60381(14) 0.3904(3)
C23_2 C 0.2963(5) 0.59365(19) 0.0656(3)
C24_2 C 0.3325(4) 0.57146(18) 0.1552(4)
C25_2 C 0.2480(4) 0.62884(19) 0.1006(3)
C26_2 C 0.3908(6) 0.5309(2) 0.1624(4)
N5_2 N 0.2571(3) 0.62716(14) 0.2064(3)
C27_2 C 0.1958(6) 0.6642(2) 0.0457(4)
H17_2 H 0.3386 0.5087 0.1481
H18_2 H 0.4253 0.5275 0.2321
H19_2 H 0.4464 0.5301 0.1118
C28_2 C 0.2191(4) 0.65460(16) 0.2825(4)
H21_2 H 0.1262 0.6701 0.0750
H22_2 H 0.2433 0.6882 0.0538
N6_2 N 0.1255(3) 0.63842(13) 0.3300(3)
H23_2 H 0.2000 0.6812 0.2494
H24_2 H 0.2781 0.6595 0.3364
C29_2 C 0.0413(4) 0.59242(17) 0.4126(4)
C30_2 C 0.0189(4) 0.64869(18) 0.3163(4)
C32_2 C 0.0289(5) 0.5542(2) 0.4776(6)
H25_2 H 0.0467 0.5300 0.4373
H27_2 H 0.0781 0.5558 0.5398
H29_2 H 0.0164 0.6861 0.1896
Mn5 Mn 0.29825(5) 0.57105(2) 0.40937(5)
O6 O 0.2884(3) 0.57189(15) 0.5706(3)
O7 O 0.4047(5) 0.52301(15) 0.6179(3)
C16_2 C 0.3436(4) 0.55104(16) 0.6373(4)
C17_2 C 0.3280(4) 0.56128(18) 0.7488(4)
C18_2 C 0.2368(9) 0.5765(5) 0.7835(6)
C19_2 C 0.4184(8) 0.5544(4) 0.8225(6)
H13_2 H 0.1774 0.5812 0.7347
C20_2 C 0.2229(8) 0.5858(4) 0.8859(6)
H14_2 H 0.4842 0.5429 0.8014
C21_2 C 0.4071(8) 0.5649(3) 0.9252(6)
C22_2 C 0.3065(4) 0.58270(19) 0.9555(3)
H15_2 H 0.1539 0.5944 0.9065
H16_2 H 0.4654 0.5604 0.9754
H20_2 H 0.1834 0.6577 0.9722
O11 O 0.5296(3) 0.44222(12) 0.5898(3)
C68_2 C 0.0379(4) 0.38067(18) 0.6324(4)
C70_2 C 0.0223(5) 0.3155(2) 0.7468(6)
C71_2 C 0.1565(4) 0.3855(2) 0.6246(5)
H58_2 H 0.0462 0.4479 0.5024
H60_2 H 0.1002 0.3189 0.7645
H62_2 H 0.0101 0.2902 0.7070
C72_2 C 0.2210(5) 0.3530(2) 0.5902(6)
C73_2 C 0.2054(4) 0.42344(19) 0.6459(5)
H63_2 H 0.1891 0.3271 0.5743
C74_2 C 0.3310(5) 0.3591(2) 0.5796(7)
H64_2 H 0.1630 0.4455 0.6692
C75_2 C 0.3141(4) 0.42925(17) 0.6334(5)
H65_2 H 0.3746 0.3373 0.5573
C76_2 C 0.3781(4) 0.39756(19) 0.6017(4)
H66_2 H 0.3456 0.4554 0.6467
C77_2 C 0.4956(4) 0.40437(18) 0.5866(4)
O14_2 O 0.5585(3) 0.37571(13) 0.5766(3)
N14 N 0.6925(3) 0.40858(13) 0.7609(3)
O20 O 0.7116(3) 0.42811(15) 0.4294(3)
N16 N 0.8601(3) 0.39619(14) 0.6096(3)
C4_2 C 0.0257(5) 0.31493(17) 0.1503(5)
C6_2 C 0.0151(6) 0.3423(2) 0.2278(6)
C8_2 C 0.1114(7) 0.3127(3) 0.0733(6)
C9_2 C 0.0817(6) 0.3781(2) 0.2598(5)
H6_2 H 0.1251 0.2840 0.0564
H7_2 H 0.1785 0.3253 0.1027
H8_2 H 0.0863 0.3274 0.0103
C10_2 C 0.0559(9) 0.4157(3) 0.2391(9)
C11_2 C 0.1933(9) 0.3743(3) 0.2867(8)
C12_2 C 0.1176(8) 0.4489(2) 0.2748(7)
C13_2 C 0.2600(8) 0.4067(2) 0.3225(8)
H10_2 H 0.2257 0.3482 0.2803
C14_2 C 0.2140(4) 0.44480(18) 0.3251(4)
H11_2 H 0.0897 0.4757 0.2627
H12_2 H 0.3341 0.4025 0.3440
C15_2 C 0.2753(4) 0.48018(18) 0.3718(4)
O3_2 O 0.2324(3) 0.51515(13) 0.3611(3)
O4_2 O 0.3669(4) 0.47279(15) 0.4150(4)
O5_2 O 0.4704(3) 0.55778(12) 0.4102(3)
C31_2 C 0.9621(4) 0.61933(18) 0.3676(4)
C33_2 C 0.9777(5) 0.6845(2) 0.2532(6)
C34_2 C 0.8435(4) 0.6145(2) 0.3754(5)
H26_2 H 0.9538 0.5521 0.4976
H28_2 H 0.8998 0.6811 0.2355
H30_2 H 0.9899 0.7098 0.2930
C35_2 C 0.7790(5) 0.6470(2) 0.4098(6)
C36_2 C 0.7946(4) 0.57656(19) 0.3541(5)
H31_2 H 0.8109 0.6729 0.4257
C37_2 C 0.6690(5) 0.6409(2) 0.4204(7)
H32_2 H 0.8370 0.5545 0.3308
C38_2 C 0.6859(4) 0.57075(17) 0.3666(5)
H33_2 H 0.6254 0.6627 0.4427
C39_2 C 0.6219(4) 0.60244(19) 0.3983(4)
H34_2 H 0.6544 0.5446 0.3533
C40_2 C 0.5044(4) 0.59563(18) 0.4134(4)
O8_2 O 0.4415(3) 0.62429(13) 0.4234(3)
C42_2 C 0.0257(5) 0.18507(17) 0.1503(5)
C43_2 C 0.0151(6) 0.1577(2) 0.2278(6)
C45_2 C 0.1114(7) 0.1873(3) 0.0733(6)
C46_2 C 0.0817(6) 0.1219(2) 0.2598(5)
H38_2 H 0.1251 0.2160 0.0564
H39_2 H 0.1785 0.1747 0.1027
H40_2 H 0.0863 0.1726 0.0103
C47_2 C 0.0559(9) 0.0843(3) 0.2391(9)
C48_2 C 0.1933(9) 0.1257(3) 0.2867(8)
C49_2 C 0.1176(8) 0.0511(2) 0.2748(7)
C50_2 C 0.2600(8) 0.0933(2) 0.3225(8)
H42_2 H 0.2257 0.1518 0.2803
C51_2 C 0.2140(4) 0.05520(18) 0.3251(4)
H43_2 H 0.0897 0.0243 0.2627
H44_2 H 0.3341 0.0975 0.3440
C52_2 C 0.2753(4) 0.01982(18) 0.3718(4)
O13_2 O 0.5953(5) 0.47699(15) 0.3821(3)
C53_2 C 0.6564(4) 0.44896(16) 0.3627(4)
C54_2 C 0.6720(4) 0.43872(18) 0.2512(4)
C55_2 C 0.7632(9) 0.4235(5) 0.2165(6)
C56_2 C 0.5816(8) 0.4456(4) 0.1775(6)
H45_2 H 0.8226 0.4188 0.2653
C57_2 C 0.7771(8) 0.4142(4) 0.1141(6)
H46_2 H 0.5158 0.4571 0.1986
C58_2 C 0.5929(8) 0.4351(3) 0.0748(6)
C59_2 C 0.6935(4) 0.41730(19) 0.0445(3)
H47_2 H 0.8461 0.4056 0.0935
H48_2 H 0.5346 0.4396 0.0246
H52_2 H 0.8166 0.3423 0.0278
C60_2 C 0.7037(5) 0.40635(19) 0.9344(3)
C61_2 C 0.6675(4) 0.42854(18) 0.8448(4)
C62_2 C 0.7520(4) 0.37116(19) 0.8994(3)
C63_2 C 0.6092(6) 0.4691(2) 0.8376(4)
N11_2 N 0.7429(3) 0.37284(14) 0.7936(3)
C64_2 C 0.8042(6) 0.3358(2) 0.9543(4)
H49_2 H 0.6614 0.4913 0.8519
H50_2 H 0.5747 0.4725 0.7679
H51_2 H 0.5536 0.4699 0.8882
C65_2 C 0.7809(4) 0.34540(16) 0.7175(4)
H53_2 H 0.8738 0.3299 0.9250
H54_2 H 0.7567 0.3118 0.9462
N12_2 N 0.8745(3) 0.36158(13) 0.6700(3)
H55_2 H 0.8000 0.3188 0.7506
H56_2 H 0.7219 0.3405 0.6636
C66_2 C 0.9587(4) 0.40758(17) 0.5874(4)
C67_2 C 0.9811(4) 0.35131(18) 0.6837(4)
C69_2 C 0.9711(5) 0.4458(2) 0.5224(6)
H57_2 H 0.9533 0.4700 0.5627
H59_2 H 0.9219 0.4442 0.4602
H61_2 H 0.9836 0.3139 0.8104
Br1_2 Br 0.65966(13) 0.2500 0.12116(15)
Mn1_2 Mn 0.77671(18) 0.2500 0.29246(17)
N1_2 N 0.8857(5) 0.29312(17) 0.2419(5)
C1_2 C 0.6797(11) 0.2881(3) 0.3311(12)
C2_2 C 0.8514(19) 0.2500 0.4221(14)
N2_2 N 0.9492(5) 0.28649(16) 0.1583(5)
C3_2 C 0.9212(6) 0.3271(2) 0.2840(7)
O1_2 O 0.6197(10) 0.3094(3) 0.3633(11)
O2_2 O 0.8966(11) 0.2500 0.4908(8)
C5_2 C 0.9286(10) 0.2500 0.0955(8)
C7_2 C 0.8838(9) 0.3466(3) 0.3771(8)
H1_2 H 0.9763 0.2500 0.0369
H2_2 H 0.8522 0.2500 0.0669
H3_2 H 0.8222 0.3647 0.3580
H4_2 H 0.9431 0.3628 0.4105
H5_2 H 0.8610 0.3256 0.4250
H9_2 H 0.9912 0.4209 0.1973
N7_2 N 0.8857(5) 0.20688(17) 0.2419(5)
N8_2 N 0.9492(5) 0.21351(16) 0.1583(5)
C41_2 C 0.9212(6) 0.1729(2) 0.2840(7)
C44_2 C 0.8838(9) 0.1534(3) 0.3771(8)
H35_2 H 0.8222 0.1353 0.3580
H36_2 H 0.9431 0.1372 0.4105
H37_2 H 0.8610 0.1744 0.4250
H41_2 H 0.9912 0.0791 0.1973
C78_2 C 0.6797(11) 0.2119(3) 0.3311(12)
O15_2 O 0.6197(10) 0.1906(3) 0.3633(11)
Br2 Br 0.6969(17) 0.2500 0.7375(13)
Br2_2 Br 0.3031(17) 0.7500 0.2625(13)
loop_
_geom_bond_atom_site_label_1
_geom_bond_atom_site_label_2
_geom_bond_site_symmetry_1
_geom_bond_site_symmetry_2
Br1 Mn1 1_555 1_555
Mn1 N1 1_555 1_555
N1 N2 1_555 1_555
C1 Mn1 1_555 1_555
C2 Mn1 1_555 1_555
C3 N1 1_555 1_555
O1 C1 1_555 1_555
O2 C2 1_555 1_555
C5 N2 1_555 1_555
C7 C3 1_555 1_555
H1 C5 1_555 1_555
H2 C5 1_555 1_555
H3 C7 1_555 1_555
H4 C7 1_555 1_555
H5 C7 1_555 1_555
N7 Mn1 1_555 1_555
N8 C5 1_555 1_555
C41 N7 1_555 1_555
C44 C41 1_555 1_555
H35 C44 1_555 1_555
H36 C44 1_555 1_555
H37 C44 1_555 1_555
C78 Mn1 1_555 1_555
O15 C78 1_555 1_555
N7 N8 1_555 1_555
Mn2 O3 1_555 1_555
O5 Mn2 1_555 1_555
C34 C31 1_555 1_555
H28 C33 1_555 1_555
H30 C33 1_555 1_555
C35 C34 1_555 1_555
C36 C34 1_555 1_555
H31 C35 1_555 1_555
C37 C35 1_555 1_555
H32 C36 1_555 1_555
C38 C36 1_555 1_555
H33 C37 1_555 1_555
C39 C37 1_555 1_555
H34 C38 1_555 1_555
C40 O5 1_555 1_555
O8 Mn2 1_555 1_555
O17 Mn3 1_555 1_555
N13 Mn2 1_555 1_555
O19 Mn2 1_555 1_555
N15 Mn2 1_555 1_555
O21 Mn3 1_555 1_555
Mn3 O5 1_555 1_555
C38 C39 1_555 1_555
C39 C40 1_555 1_555
C40 O8 1_555 1_555
N9 C61 1_555 1_555
N10 N12 1_555 1_555
C61 C60 1_555 1_555
C62 C60 1_555 1_555
C63 C61 1_555 1_555
N11 N9 1_555 1_555
C64 C62 1_555 1_555
H49 C63 1_555 1_555
H50 C63 1_555 1_555
H51 C63 1_555 1_555
C65 N11 1_555 1_555
H53 C64 1_555 1_555
H54 C64 1_555 1_555
N12 C65 1_555 1_555
H55 C65 1_555 1_555
H56 C65 1_555 1_555
C66 N10 1_555 1_555
C67 N12 1_555 1_555
C69 C66 1_555 1_555
H57 C69 1_555 1_555
H59 C69 1_555 1_555
Mn8 N9 1_555 1_555
N10 Mn8 1_555 1_555
C62 N11 1_555 1_555
C4 C6 1_555 1_555
C8 C4 1_555 1_555
C9 C6 1_555 1_555
H6 C8 1_555 1_555
H7 C8 1_555 1_555
H8 C8 1_555 1_555
C10 C9 1_555 1_555
C11 C9 1_555 1_555
C12 C10 1_555 1_555
C13 C11 1_555 1_555
H10 C11 1_555 1_555
C14 C12 1_555 1_555
H11 C12 1_555 1_555
H12 C13 1_555 1_555
C15 C14 1_555 1_555
O4 C15 1_555 1_555
Mn3_2 O4 1_555 1_555
C45 C42 1_555 1_555
C46 C43 1_555 1_555
H38 C45 1_555 1_555
H39 C45 1_555 1_555
H40 C45 1_555 1_555
C47 C46 1_555 1_555
C48 C46 1_555 1_555
C49 C47 1_555 1_555
C50 C48 1_555 1_555
H42 C48 1_555 1_555
C51 C49 1_555 1_555
H43 C49 1_555 1_555
H44 C50 1_555 1_555
C52 C51 1_555 1_555
O9 C52 1_555 1_555
O10 C52 1_555 1_555
O12 C53 1_555 1_555
O13 Mn3_2 1_555 1_555
C53 O13 1_555 1_555
C54 C53 1_555 1_555
C55 C54 1_555 1_555
C56 C54 1_555 1_555
H45 C55 1_555 1_555
C57 C55 1_555 1_555
H46 C56 1_555 1_555
C58 C56 1_555 1_555
C59 C57 1_555 1_555
H47 C57 1_555 1_555
H48 C58 1_555 1_555
Mn8 O12 1_555 1_555
Mn9 O9 1_555 1_555
Mn11 O10 1_555 1_555
O18 Mn3_2 1_555 1_555
C13 C14 1_555 1_555
C42 C43 1_555 1_555
C50 C51 1_555 1_555
C58 C59 1_555 1_555
Mn8 O18 1_555 1_555
O19 C16 1_555 1_555
O21 C16 1_555 1_555
C16 C17 1_555 1_555
C17 C18 1_555 1_555
C18 H13 1_555 1_555
C19 C17 1_555 1_555
C20 C18 1_555 1_555
H14 C19 1_555 1_555
C21 C19 1_555 1_555
C22 C20 1_555 1_555
H15 C20 1_555 1_555
H16 C21 1_555 1_555
C21 C22 1_555 1_555
N13 C24 1_555 1_555
N15 N6 1_555 1_555
C24 C23 1_555 1_555
C25 C23 1_555 1_555
C26 C24 1_555 1_555
N5 N13 1_555 1_555
C27 C25 1_555 1_555
H17 C26 1_555 1_555
H18 C26 1_555 1_555
H19 C26 1_555 1_555
C28 N5 1_555 1_555
H21 C27 1_555 1_555
H22 C27 1_555 1_555
N6 C28 1_555 1_555
H23 C28 1_555 1_555
H24 C28 1_555 1_555
C29 N15 1_555 1_555
C30 N6 1_555 1_555
C32 C29 1_555 1_555
H25 C32 1_555 1_555
H27 C32 1_555 1_555
C25 N5 1_555 1_555
O18 C77 1_555 1_555
C71 C68 1_555 1_555
H60 C70 1_555 1_555
H62 C70 1_555 1_555
C72 C71 1_555 1_555
C73 C71 1_555 1_555
H63 C72 1_555 1_555
C74 C72 1_555 1_555
H64 C73 1_555 1_555
C75 C73 1_555 1_555
H65 C74 1_555 1_555
C76 C74 1_555 1_555
H66 C75 1_555 1_555
C77 C76 1_555 1_555
O14 Mn8 1_555 1_555
O16 Mn8 1_555 1_555
C75 C76 1_555 1_555
C77 O14 1_555 1_555
N3 C24_2 1_555 1_555
N4 N6_2 1_555 1_555
C24_2 C23_2 1_555 1_555
C25_2 C23_2 1_555 1_555
C26_2 C24_2 1_555 1_555
N5_2 N3 1_555 1_555
C27_2 C25_2 1_555 1_555
H17_2 C26_2 1_555 1_555
H18_2 C26_2 1_555 1_555
H19_2 C26_2 1_555 1_555
C28_2 N5_2 1_555 1_555
H21_2 C27_2 1_555 1_555
H22_2 C27_2 1_555 1_555
N6_2 C28_2 1_555 1_555
H23_2 C28_2 1_555 1_555
H24_2 C28_2 1_555 1_555
C29_2 N4 1_555 1_555
C30_2 N6_2 1_555 1_555
C32_2 C29_2 1_555 1_555
H25_2 C32_2 1_555 1_555
H27_2 C32_2 1_555 1_555
Mn5 N3 1_555 1_555
N4 Mn5 1_555 1_555
C25_2 N5_2 1_555 1_555
O6 C16_2 1_555 1_555
O7 C16_2 1_555 1_555
C16_2 C17_2 1_555 1_555
C17_2 C18_2 1_555 1_555
C18_2 H13_2 1_555 1_555
C19_2 C17_2 1_555 1_555
C20_2 C18_2 1_555 1_555
H14_2 C19_2 1_555 1_555
C21_2 C19_2 1_555 1_555
C22_2 C20_2 1_555 1_555
H15_2 C20_2 1_555 1_555
H16_2 C21_2 1_555 1_555
Mn9 O11 1_555 1_555
O11 C77_2 1_555 1_555
C71_2 C68_2 1_555 1_555
H60_2 C70_2 1_555 1_555
H62_2 C70_2 1_555 1_555
C72_2 C71_2 1_555 1_555
C73_2 C71_2 1_555 1_555
H63_2 C72_2 1_555 1_555
C74_2 C72_2 1_555 1_555
H64_2 C73_2 1_555 1_555
C75_2 C73_2 1_555 1_555
H65_2 C74_2 1_555 1_555
C76_2 C74_2 1_555 1_555
H66_2 C75_2 1_555 1_555
C77_2 C76_2 1_555 1_555
O14_2 Mn9 1_555 1_555
Mn5 O6 1_555 1_555
Mn11 O7 1_555 1_555
N14 Mn9 1_555 1_555
O20 Mn9 1_555 1_555
N16 Mn9 1_555 1_555
C21_2 C22_2 1_555 1_555
O11 Mn11 1_555 1_555
C75_2 C76_2 1_555 1_555
C77_2 O14_2 1_555 1_555
C4_2 C6_2 1_555 1_555
C8_2 C4_2 1_555 1_555
C9_2 C6_2 1_555 1_555
H6_2 C8_2 1_555 1_555
H7_2 C8_2 1_555 1_555
H8_2 C8_2 1_555 1_555
C10_2 C9_2 1_555 1_555
C11_2 C9_2 1_555 1_555
C12_2 C10_2 1_555 1_555
C13_2 C11_2 1_555 1_555
H10_2 C11_2 1_555 1_555
C14_2 C12_2 1_555 1_555
H11_2 C12_2 1_555 1_555
H12_2 C13_2 1_555 1_555
C15_2 C14_2 1_555 1_555
O3_2 C15_2 1_555 1_555
O4_2 C15_2 1_555 1_555
Mn5 O3_2 1_555 1_555
Mn11 O4_2 1_555 1_555
O5_2 Mn5 1_555 1_555
C34_2 C31_2 1_555 1_555
H28_2 C33_2 1_555 1_555
H30_2 C33_2 1_555 1_555
C35_2 C34_2 1_555 1_555
C36_2 C34_2 1_555 1_555
H31_2 C35_2 1_555 1_555
C37_2 C35_2 1_555 1_555
H32_2 C36_2 1_555 1_555
C38_2 C36_2 1_555 1_555
H33_2 C37_2 1_555 1_555
C39_2 C37_2 1_555 1_555
H34_2 C38_2 1_555 1_555
C40_2 O5_2 1_555 1_555
O8_2 Mn5 1_555 1_555
C45_2 C42_2 1_555 1_555
C46_2 C43_2 1_555 1_555
H38_2 C45_2 1_555 1_555
H39_2 C45_2 1_555 1_555
H40_2 C45_2 1_555 1_555
C47_2 C46_2 1_555 1_555
C48_2 C46_2 1_555 1_555
C49_2 C47_2 1_555 1_555
C50_2 C48_2 1_555 1_555
H42_2 C48_2 1_555 1_555
C51_2 C49_2 1_555 1_555
H43_2 C49_2 1_555 1_555
H44_2 C50_2 1_555 1_555
C52_2 C51_2 1_555 1_555
O17 C52_2 1_555 1_555
O20 C53_2 1_555 1_555
O13_2 Mn11 1_555 1_555
C53_2 O13_2 1_555 1_555
C54_2 C53_2 1_555 1_555
C55_2 C54_2 1_555 1_555
C56_2 C54_2 1_555 1_555
H45_2 C55_2 1_555 1_555
C57_2 C55_2 1_555 1_555
H46_2 C56_2 1_555 1_555
C58_2 C56_2 1_555 1_555
C59_2 C57_2 1_555 1_555
H47_2 C57_2 1_555 1_555
H48_2 C58_2 1_555 1_555
C13_2 C14_2 1_555 1_555
Mn11 O5_2 1_555 1_555
C38_2 C39_2 1_555 1_555
C39_2 C40_2 1_555 1_555
C40_2 O8_2 1_555 1_555
C42_2 C43_2 1_555 1_555
C50_2 C51_2 1_555 1_555
C58_2 C59_2 1_555 1_555
N14 C61_2 1_555 1_555
N16 N12_2 1_555 1_555
C61_2 C60_2 1_555 1_555
C62_2 C60_2 1_555 1_555
C63_2 C61_2 1_555 1_555
N11_2 N14 1_555 1_555
C64_2 C62_2 1_555 1_555
H49_2 C63_2 1_555 1_555
H50_2 C63_2 1_555 1_555
H51_2 C63_2 1_555 1_555
C65_2 N11_2 1_555 1_555
H53_2 C64_2 1_555 1_555
H54_2 C64_2 1_555 1_555
N12_2 C65_2 1_555 1_555
H55_2 C65_2 1_555 1_555
H56_2 C65_2 1_555 1_555
C66_2 N16 1_555 1_555
C67_2 N12_2 1_555 1_555
C69_2 C66_2 1_555 1_555
H57_2 C69_2 1_555 1_555
H59_2 C69_2 1_555 1_555
C62_2 N11_2 1_555 1_555
Br1_2 Mn1_2 1_555 1_555
Mn1_2 N1_2 1_555 1_555
N1_2 N2_2 1_555 1_555
C1_2 Mn1_2 1_555 1_555
C2_2 Mn1_2 1_555 1_555
C3_2 N1_2 1_555 1_555
O1_2 C1_2 1_555 1_555
O2_2 C2_2 1_555 1_555
C5_2 N2_2 1_555 1_555
C7_2 C3_2 1_555 1_555
H1_2 C5_2 1_555 1_555
H2_2 C5_2 1_555 1_555
H3_2 C7_2 1_555 1_555
H4_2 C7_2 1_555 1_555
H5_2 C7_2 1_555 1_555
N7_2 Mn1_2 1_555 1_555
N8_2 C5_2 1_555 1_555
C41_2 N7_2 1_555 1_555
C44_2 C41_2 1_555 1_555
H35_2 C44_2 1_555 1_555
H36_2 C44_2 1_555 1_555
H37_2 C44_2 1_555 1_555
C78_2 Mn1_2 1_555 1_555
O15_2 C78_2 1_555 1_555
N7_2 N8_2 1_555 1_555

#END
