
###############################################################################
#
# This file contains modified crystal structure data generated from the
# MOF subset of the Cambridge Structural Database (CSD) v543 
# hosted by the Cambridge Crystallographic Data Centre (CCDC).
#
# This work is licensed under the Creative Commons
# Attribution-NonCommercial-ShareAlike 4.0 International License.
# To view a copy of this license, visit
# http://creativecommons.org/licenses/by-nc-sa/4.0/
# or send a letter to
# Creative Commons, PO Box 1866, Mountain View, CA 94042, USA.
#
# CIF created using the CSD Python API on 29 September 2022
# The structure has been converted into the P1 space group
# The structure has a 3D framework
# The original CSD entry BOMWUY is in the monoclinic crystal system
# The framework has been calculated to contain at least 10.0% void space
# The void calculation uses a probe of radius 1.32A, grid spacing 0.4
#
###############################################################################

data_BOMWUY
_chemical_formula_moiety         '(C184 H232 O236 S24 Tb32)n'
_symmetry_cell_setting           triclinic
_symmetry_space_group_name_H-M   'P 1'
_symmetry_Int_Tables_number      1
_space_group_name_Hall           'P 1'
loop_
_symmetry_equiv_pos_site_id
_symmetry_equiv_pos_as_xyz
1 x,y,z
_cell_length_a                   23.225(3)
_cell_length_b                   13.4213(15)
_cell_length_c                   29.911(3)
_cell_angle_alpha                90
_cell_angle_beta                 109.8260(10)
_cell_angle_gamma                90
_cell_volume                     8770.91
loop_
_atom_site_label
_atom_site_type_symbol
_atom_site_fract_x
_atom_site_fract_y
_atom_site_fract_z
H41 H 0.730459 0.090703 0.009185
Tb3 Tb 0.24648(2) 0.03871(2) 0.66017(2)
S3 S 0.43042(6) 0.21143(12) 0.90096(5)
H3 H 0.435034 0.018048 0.620637
O9 O 0.14028(17) 0.0856(3) 0.62360(14)
H5 H 0.105434 0.057519 0.618842
H6 H 0.123474 0.138559 0.608642
O11 O 0.23069(19) 0.1409(3) 0.72082(15)
H7 H 0.251430 0.193126 0.733111
H8 H 0.210030 0.132875 0.739601
O13 O 0.2793(2) 0.0723(3) 0.51998(13)
H9 H 0.269541 0.090703 0.490815
H10 H 0.293291 0.123753 0.537425
O17 O 0.1555(2) 0.0065(4) 0.51955(16)
H14 H 0.150287 0.057811 0.501396
O18 O 0.4279(2) 0.1098(3) 0.91781(17)
O19 O 0.47457(19) 0.2719(4) 0.93533(16)
O20 O 0.36978(16) 0.2556(3) 0.88348(13)
O21 O 0.33877(15) 0.1144(3) 0.70899(12)
O22 O 0.41866(15) 0.0149(3) 0.71739(13)
O29 O 0.31022(14) 0.0050(2) 0.61325(10)
H17 H 0.330097 0.055304 0.609203
C15 C 0.3931(2) 0.0891(3) 0.72847(16)
C16 C 0.4331(2) 0.1492(3) 0.76999(16)
C17 C 0.4149(2) 0.1595(4) 0.80944(18)
H25 H 0.380(3) 0.147(4) 0.8064(19)
C18 C 0.4544(2) 0.2027(4) 0.85075(17)
C19 C 0.5123(2) 0.2348(4) 0.85332(19)
H26 H 0.538(3) 0.262(4) 0.882(2)
C20 C 0.5294(2) 0.2269(4) 0.81370(19)
H27 H 0.566(3) 0.249(4) 0.815(2)
C21 C 0.4910(2) 0.1838(3) 0.77140(17)
S4 S 0.56958(6) 0.21143(12) 0.59904(5)
O31 O 0.5721(2) 0.1098(3) 0.58219(17)
O32 O 0.52543(19) 0.2719(4) 0.56467(16)
O33 O 0.63022(16) 0.2556(3) 0.61652(13)
O34 O 0.66123(15) 0.1144(3) 0.79101(12)
O35 O 0.58134(15) 0.0149(3) 0.78261(13)
C24 C 0.6069(2) 0.0891(3) 0.77153(16)
C25 C 0.5669(2) 0.1492(3) 0.73001(16)
C26 C 0.5851(2) 0.1595(4) 0.69056(18)
H30 H 0.620(3) 0.147(4) 0.6936(19)
C27 C 0.5456(2) 0.2027(4) 0.64925(17)
C28 C 0.4877(2) 0.2348(4) 0.64668(19)
H31 H 0.462(3) 0.262(4) 0.618(2)
C29 C 0.4706(2) 0.2269(4) 0.68630(19)
H32 H 0.434(3) 0.249(4) 0.685(2)
C30 C 0.5090(2) 0.1838(3) 0.72860(17)
Tb7 Tb 0.75352(2) 0.03871(2) 0.83983(2)
H35 H 0.564966 0.018048 0.879363
O44 O 0.85972(17) 0.0856(3) 0.87640(14)
H37 H 0.894566 0.057519 0.881158
H38 H 0.876526 0.138559 0.891358
O46 O 0.76931(19) 0.1409(3) 0.77918(15)
H39 H 0.748570 0.193126 0.766889
H40 H 0.789970 0.132875 0.760399
O48 O 0.7207(2) 0.0723(3) 0.98002(13)
H42 H 0.706709 0.123753 0.962575
O52 O 0.8445(2) 0.0065(4) 0.98045(16)
H46 H 0.849713 0.057811 0.998604
O59 O 0.68978(14) 0.0050(2) 0.88675(10)
H49 H 0.669903 0.055304 0.890797
Tb10 Tb 0.74070(2) 0.26132(2) 0.65205(2)
Tb12 Tb 0.25930(2) 0.26132(2) 0.84795(2)
O61 O 0.24018(16) 0.1924(2) 0.61753(11)
O62 O 0.75982(16) 0.1924(2) 0.88247(11)
O50 O 0.78389(17) 0.9275(3) 0.04006(12)
H43 H 0.821775 0.919096 0.056857
H44 H 0.762025 0.912136 0.057197
O55 O 0.83308(16) 0.6365(3) 0.02320(12)
Tb18 Tb 0.74865(2) 0.58601(2) 0.04444(2)
Tb1 Tb 0.24070(2) 0.76132(2) 0.65205(2)
Tb2 Tb 0.38851(2) 0.89221(2) 0.65836(2)
Tb4 Tb 0.24865(2) 0.91399(2) 0.54444(2)
S1 S 0.55160(6) 0.67755(9) 0.89206(4)
S2 S 0.27067(6) 0.26900(9) 0.59960(4)
O1 O 0.56014(18) 0.7775(3) 0.87705(13)
O2 O 0.5303(3) 0.6770(4) 0.93094(15)
O3 O 0.6070(2) 0.6194(4) 0.8998(2)
O4 O 0.50051(16) 0.9163(3) 0.69093(14)
H1 H 0.525834 0.963934 0.702927
H2 H 0.524224 0.917234 0.674257
O5 O 0.2274(2) 0.3308(3) 0.56447(13)
O6 O 0.41973(19) 0.9793(3) 0.59663(16)
H4 H 0.444074 0.979288 0.580437
O7 O 0.3187(2) 0.2272(3) 0.58388(16)
O10 O 0.32541(14) 0.6775(2) 0.70693(11)
O12 O 0.41065(15) 0.7605(3) 0.71250(12)
O14 O 0.28987(15) 0.2941(2) 0.78089(11)
O15 O 0.21611(17) 0.9275(3) 0.45994(12)
H11 H 0.178225 0.919096 0.443143
H12 H 0.237975 0.912136 0.442803
O16 O 0.31003(15) 0.4528(2) 0.79969(12)
H13 H 0.123927 0.974691 0.520866
O23 O 0.23193(18) 0.6141(3) 0.60477(13)
O24 O 0.20779(17) 0.5858(3) 0.66841(13)
O25 O 0.16692(16) 0.6365(3) 0.47680(12)
O26 O 0.18952(19) 0.7736(3) 0.52139(15)
O27 O 0.30553(15) 0.7997(3) 0.60760(11)
H15 H 0.320(2) 0.759(4) 0.6002(17)
O28 O 0.20546(14) 0.9071(2) 0.60671(11)
H16 H 0.167724 0.902706 0.594241
O30 O 0.30549(14) 0.8956(2) 0.68896(11)
H18 H 0.315155 0.890054 0.718897
C1 C 0.3818(2) 0.6931(3) 0.72477(15)
C2 C 0.4184(2) 0.6269(3) 0.76581(16)
C3 C 0.4630(2) 0.6732(4) 0.80355(17)
H19 H 0.470(2) 0.742(4) 0.8007(18)
C4 C 0.4952(2) 0.6189(4) 0.84389(17)
C5 C 0.4847(2) 0.5180(4) 0.84654(17)
H20 H 0.510(3) 0.482(5) 0.873(2)
C6 C 0.4427(2) 0.4713(4) 0.80885(17)
H21 H 0.436(2) 0.408(4) 0.8111(19)
C7 C 0.4075(2) 0.5238(3) 0.76808(16)
C8 C 0.3682(2) 0.4652(3) 0.72677(16)
C9 C 0.3791(2) 0.4762(3) 0.68357(17)
H22 H 0.409(2) 0.523(4) 0.6811(18)
C10 C 0.3498(2) 0.4170(4) 0.64473(18)
H23 H 0.358(3) 0.427(4) 0.618(2)
C11 C 0.3082(2) 0.3465(3) 0.64844(16)
C12 C 0.2955(2) 0.3363(3) 0.69008(17)
H24 H 0.266608 0.289824 0.691695
C13 C 0.3252(2) 0.3941(3) 0.72945(16)
C14 C 0.3072(2) 0.3795(3) 0.77345(16)
C22 C 0.2135(2) 0.5569(4) 0.63051(19)
H28 H 0.203911 0.491228 0.620955
C23 C 0.1563(2) 0.7041(4) 0.50202(18)
H29 H 0.118(3) 0.710(4) 0.5079(19)
Tb5 Tb 0.75930(2) 0.76132(2) 0.84795(2)
Tb6 Tb 0.61149(2) 0.89221(2) 0.84164(2)
Tb8 Tb 0.75135(2) 0.91399(2) 0.95556(2)
S5 S 0.44840(6) 0.67755(9) 0.60794(4)
S6 S 0.72933(6) 0.26900(9) 0.90040(4)
O36 O 0.43986(18) 0.7775(3) 0.62295(13)
O37 O 0.4697(3) 0.6770(4) 0.56906(15)
O38 O 0.3930(2) 0.6194(4) 0.6002(2)
O39 O 0.49949(16) 0.9163(3) 0.80907(14)
H33 H 0.474166 0.963934 0.797073
H34 H 0.475776 0.917234 0.825743
O40 O 0.7726(2) 0.3308(3) 0.93553(13)
O41 O 0.58027(19) 0.9793(3) 0.90337(16)
H36 H 0.555926 0.979288 0.919563
O42 O 0.6813(2) 0.2272(3) 0.91612(16)
O45 O 0.67459(14) 0.6775(2) 0.79307(11)
O47 O 0.58935(15) 0.7605(3) 0.78750(12)
O49 O 0.71013(15) 0.2941(2) 0.71911(11)
O51 O 0.68997(15) 0.4528(2) 0.70031(12)
H45 H 0.876073 0.974691 0.979134
O53 O 0.76807(18) 0.6141(3) 0.89523(13)
O54 O 0.79221(17) 0.5858(3) 0.83159(13)
O56 O 0.81048(19) 0.7736(3) 0.97861(15)
O57 O 0.69447(15) 0.7997(3) 0.89240(11)
H47 H 0.680(2) 0.759(4) 0.8998(17)
O58 O 0.79454(14) 0.9071(2) 0.89329(11)
H48 H 0.832276 0.902706 0.905759
O60 O 0.69451(14) 0.8956(2) 0.81104(11)
H50 H 0.684845 0.890054 0.781103
C31 C 0.6182(2) 0.6931(3) 0.77523(15)
C32 C 0.5816(2) 0.6269(3) 0.73419(16)
C33 C 0.5370(2) 0.6732(4) 0.69645(17)
H51 H 0.530(2) 0.742(4) 0.6993(18)
C34 C 0.5048(2) 0.6189(4) 0.65611(17)
C35 C 0.5153(2) 0.5180(4) 0.65346(17)
H52 H 0.490(3) 0.482(5) 0.627(2)
C36 C 0.5573(2) 0.4713(4) 0.69115(17)
H53 H 0.564(2) 0.408(4) 0.6889(19)
C37 C 0.5925(2) 0.5238(3) 0.73192(16)
C38 C 0.6318(2) 0.4652(3) 0.77323(16)
C39 C 0.6209(2) 0.4762(3) 0.81643(17)
H54 H 0.591(2) 0.523(4) 0.8189(18)
C40 C 0.6502(2) 0.4170(4) 0.85527(18)
H55 H 0.642(3) 0.427(4) 0.882(2)
C41 C 0.6918(2) 0.3465(3) 0.85156(16)
C42 C 0.7045(2) 0.3363(3) 0.80992(17)
H56 H 0.733392 0.289824 0.808305
C43 C 0.6748(2) 0.3941(3) 0.77055(16)
C44 C 0.6928(2) 0.3795(3) 0.72655(16)
C45 C 0.7865(2) 0.5569(4) 0.86949(19)
H57 H 0.796089 0.491228 0.879045
C46 C 0.8437(2) 0.7041(4) 0.99798(18)
H58 H 0.882(3) 0.710(4) 0.9921(19)
Tb15 Tb 0.74648(2) 0.53871(2) 0.66017(2)
Tb16 Tb 0.25352(2) 0.53871(2) 0.83983(2)
Tb17 Tb 0.25135(2) 0.58601(2) 0.45556(2)
O63 O 0.78987(15) 0.7941(2) 0.78089(11)
O64 O 0.21013(15) 0.7941(2) 0.71911(11)
O65 O 0.81003(15) 0.9528(2) 0.79969(12)
O66 O 0.18997(15) 0.9528(2) 0.70031(12)
O67 O 0.86978(16) 0.7556(3) 0.88348(13)
O68 O 0.13022(16) 0.7556(3) 0.61652(13)
O69 O 0.33308(16) 0.8635(3) 0.52320(12)
O70 O 0.66692(16) 0.8635(3) 0.97680(12)
H41_2 H 0.230459 0.590703 0.009185
O50_2 O 0.28389(17) 0.4275(3) 0.04006(12)
H43_2 H 0.321775 0.419096 0.056857
H44_2 H 0.262025 0.412136 0.057197
O55_2 O 0.33308(16) 0.1365(3) 0.02320(12)
Tb18_2 Tb 0.24865(2) 0.08601(2) 0.04444(2)
S1_2 S 0.05160(6) 0.17755(9) 0.89206(4)
O1_2 O 0.06014(18) 0.2775(3) 0.87705(13)
O2_2 O 0.0303(3) 0.1770(4) 0.93094(15)
O3_2 O 0.1070(2) 0.1194(4) 0.8998(2)
O4_2 O 0.00051(16) 0.4163(3) 0.69093(14)
H1_2 H 0.025834 0.463934 0.702927
H2_2 H 0.024224 0.417234 0.674257
C19_2 C 0.0123(2) 0.7348(4) 0.85332(19)
H26_2 H 0.038(3) 0.762(4) 0.882(2)
C20_2 C 0.0294(2) 0.7269(4) 0.81370(19)
H27_2 H 0.066(3) 0.749(4) 0.815(2)
S4_2 S 0.06958(6) 0.71143(12) 0.59904(5)
O31_2 O 0.0721(2) 0.6098(3) 0.58219(17)
O32_2 O 0.02543(19) 0.7719(4) 0.56467(16)
O34_2 O 0.16123(15) 0.6144(3) 0.79101(12)
O35_2 O 0.08134(15) 0.5149(3) 0.78261(13)
C24_2 C 0.1069(2) 0.5891(3) 0.77153(16)
C25_2 C 0.0669(2) 0.6492(3) 0.73001(16)
C26_2 C 0.0851(2) 0.6595(4) 0.69056(18)
H30_2 H 0.120(3) 0.647(4) 0.6936(19)
C27_2 C 0.0456(2) 0.7027(4) 0.64925(17)
C30_2 C 0.0090(2) 0.6838(3) 0.72860(17)
Tb6_2 Tb 0.11149(2) 0.39221(2) 0.84164(2)
Tb8_2 Tb 0.25135(2) 0.41399(2) 0.95556(2)
O41_2 O 0.08027(19) 0.4793(3) 0.90337(16)
H35_2 H 0.064966 0.518048 0.879363
H36_2 H 0.055926 0.479288 0.919563
O44_2 O 0.35972(17) 0.5856(3) 0.87640(14)
H37_2 H 0.394566 0.557519 0.881158
H38_2 H 0.376526 0.638559 0.891358
O45_2 O 0.17459(14) 0.1775(2) 0.79307(11)
O46_2 O 0.26931(19) 0.6409(3) 0.77918(15)
H39_2 H 0.248570 0.693126 0.766889
H40_2 H 0.289970 0.632875 0.760399
O47_2 O 0.08935(15) 0.2605(3) 0.78750(12)
O48_2 O 0.2207(2) 0.5723(3) 0.98002(13)
H42_2 H 0.206709 0.623753 0.962575
O52_2 O 0.3445(2) 0.5065(4) 0.98045(16)
H45_2 H 0.376073 0.474691 0.979134
H46_2 H 0.349713 0.557811 0.998604
O53_2 O 0.26807(18) 0.1141(3) 0.89523(13)
O54_2 O 0.29221(17) 0.0858(3) 0.83159(13)
O56_2 O 0.31048(19) 0.2736(3) 0.97861(15)
O57_2 O 0.19447(15) 0.2997(3) 0.89240(11)
H47_2 H 0.180(2) 0.259(4) 0.8998(17)
O58_2 O 0.29454(14) 0.4071(2) 0.89329(11)
H48_2 H 0.332276 0.402706 0.905759
O59_2 O 0.18978(14) 0.5050(2) 0.88675(10)
H49_2 H 0.169903 0.555304 0.890797
O60_2 O 0.19451(14) 0.3956(2) 0.81104(11)
H50_2 H 0.184845 0.390054 0.781103
C31_2 C 0.1182(2) 0.1931(3) 0.77523(15)
C32_2 C 0.0816(2) 0.1269(3) 0.73419(16)
C33_2 C 0.0370(2) 0.1732(4) 0.69645(17)
H51_2 H 0.030(2) 0.242(4) 0.6993(18)
C34_2 C 0.0048(2) 0.1189(4) 0.65611(17)
C35_2 C 0.0153(2) 0.0180(4) 0.65346(17)
C37_2 C 0.0925(2) 0.0238(3) 0.73192(16)
H54_2 H 0.091(2) 0.023(4) 0.8189(18)
C45_2 C 0.2865(2) 0.0569(4) 0.86949(19)
C46_2 C 0.3437(2) 0.2041(4) 0.99798(18)
H58_2 H 0.382(3) 0.210(4) 0.9921(19)
O62_2 O 0.25982(16) 0.6924(2) 0.88247(11)
O70_2 O 0.16692(16) 0.3635(3) 0.97680(12)
H20_2 H 0.010(3) 0.982(5) 0.873(2)
S6_2 S 0.22933(6) 0.76900(9) 0.90040(4)
O40_2 O 0.2726(2) 0.8308(3) 0.93553(13)
O42_2 O 0.1813(2) 0.7272(3) 0.91612(16)
C36_2 C 0.0573(2) 0.9713(4) 0.69115(17)
H53_2 H 0.064(2) 0.908(4) 0.6889(19)
C38_2 C 0.1318(2) 0.9652(3) 0.77323(16)
C39_2 C 0.1209(2) 0.9762(3) 0.81643(17)
C40_2 C 0.1502(2) 0.9170(4) 0.85527(18)
H55_2 H 0.142(3) 0.927(4) 0.882(2)
C41_2 C 0.1918(2) 0.8465(3) 0.85156(16)
C42_2 C 0.2045(2) 0.8363(3) 0.80992(17)
H56_2 H 0.233392 0.789824 0.808305
C43_2 C 0.1748(2) 0.8941(3) 0.77055(16)
C44_2 C 0.1928(2) 0.8795(3) 0.72655(16)
H57_2 H 0.296089 0.991228 0.879045
Tb2_2 Tb 0.88851(2) 0.39221(2) 0.65836(2)
Tb4_2 Tb 0.74865(2) 0.41399(2) 0.54444(2)
S3_2 S 0.93042(6) 0.71143(12) 0.90096(5)
O6_2 O 0.91973(19) 0.4793(3) 0.59663(16)
H3_2 H 0.935034 0.518048 0.620637
H4_2 H 0.944074 0.479288 0.580437
O9_2 O 0.64028(17) 0.5856(3) 0.62360(14)
H5_2 H 0.605434 0.557519 0.618842
H6_2 H 0.623474 0.638559 0.608642
O10_2 O 0.82541(14) 0.1775(2) 0.70693(11)
O11_2 O 0.73069(19) 0.6409(3) 0.72082(15)
H7_2 H 0.751430 0.693126 0.733111
H8_2 H 0.710030 0.632875 0.739601
O12_2 O 0.91065(15) 0.2605(3) 0.71250(12)
O13_2 O 0.7793(2) 0.5723(3) 0.51998(13)
H9_2 H 0.769541 0.590703 0.490815
H10_2 H 0.793291 0.623753 0.537425
O15_2 O 0.71611(17) 0.4275(3) 0.45994(12)
H11_2 H 0.678225 0.419096 0.443143
H12_2 H 0.737975 0.412136 0.442803
O17_2 O 0.6555(2) 0.5065(4) 0.51955(16)
H13_2 H 0.623927 0.474691 0.520866
H14_2 H 0.650287 0.557811 0.501396
O18_2 O 0.9279(2) 0.6098(3) 0.91781(17)
O19_2 O 0.97457(19) 0.7719(4) 0.93533(16)
O21_2 O 0.83877(15) 0.6144(3) 0.70899(12)
O22_2 O 0.91866(15) 0.5149(3) 0.71739(13)
O23_2 O 0.73193(18) 0.1141(3) 0.60477(13)
O24_2 O 0.70779(17) 0.0858(3) 0.66841(13)
O25_2 O 0.66692(16) 0.1365(3) 0.47680(12)
O26_2 O 0.68952(19) 0.2736(3) 0.52139(15)
O27_2 O 0.80553(15) 0.2997(3) 0.60760(11)
H15_2 H 0.820(2) 0.259(4) 0.6002(17)
O28_2 O 0.70546(14) 0.4071(2) 0.60671(11)
H16_2 H 0.667724 0.402706 0.594241
O29_2 O 0.81022(14) 0.5050(2) 0.61325(10)
H17_2 H 0.830097 0.555304 0.609203
O30_2 O 0.80549(14) 0.3956(2) 0.68896(11)
H18_2 H 0.815155 0.390054 0.718897
C1_2 C 0.8818(2) 0.1931(3) 0.72477(15)
C2_2 C 0.9184(2) 0.1269(3) 0.76581(16)
C3_2 C 0.9630(2) 0.1732(4) 0.80355(17)
H19_2 H 0.970(2) 0.242(4) 0.8007(18)
C4_2 C 0.9952(2) 0.1189(4) 0.84389(17)
C5_2 C 0.9847(2) 0.0180(4) 0.84654(17)
C7_2 C 0.9075(2) 0.0238(3) 0.76808(16)
H22_2 H 0.909(2) 0.023(4) 0.6811(18)
C15_2 C 0.8931(2) 0.5891(3) 0.72847(16)
C16_2 C 0.9331(2) 0.6492(3) 0.76999(16)
C17_2 C 0.9149(2) 0.6595(4) 0.80944(18)
H25_2 H 0.880(3) 0.647(4) 0.8064(19)
C18_2 C 0.9544(2) 0.7027(4) 0.85075(17)
C21_2 C 0.9910(2) 0.6838(3) 0.77140(17)
C22_2 C 0.7135(2) 0.0569(4) 0.63051(19)
C23_2 C 0.6563(2) 0.2041(4) 0.50202(18)
H29_2 H 0.618(3) 0.210(4) 0.5079(19)
C28_2 C 0.9877(2) 0.7348(4) 0.64668(19)
H31_2 H 0.962(3) 0.762(4) 0.618(2)
C29_2 C 0.9706(2) 0.7269(4) 0.68630(19)
H32_2 H 0.934(3) 0.749(4) 0.685(2)
S5_2 S 0.94840(6) 0.17755(9) 0.60794(4)
O36_2 O 0.93986(18) 0.2775(3) 0.62295(13)
O37_2 O 0.9697(3) 0.1770(4) 0.56906(15)
O38_2 O 0.8930(2) 0.1194(4) 0.6002(2)
O39_2 O 0.99949(16) 0.4163(3) 0.80907(14)
H33_2 H 0.974166 0.463934 0.797073
H34_2 H 0.975776 0.417234 0.825743
Tb17_2 Tb 0.75135(2) 0.08601(2) 0.45556(2)
O61_2 O 0.74018(16) 0.6924(2) 0.61753(11)
O69_2 O 0.83308(16) 0.3635(3) 0.52320(12)
S2_2 S 0.77067(6) 0.76900(9) 0.59960(4)
O5_2 O 0.7274(2) 0.8308(3) 0.56447(13)
O7_2 O 0.8187(2) 0.7272(3) 0.58388(16)
C6_2 C 0.9427(2) 0.9713(4) 0.80885(17)
H21_2 H 0.936(2) 0.908(4) 0.8111(19)
C8_2 C 0.8682(2) 0.9652(3) 0.72677(16)
C9_2 C 0.8791(2) 0.9762(3) 0.68357(17)
C10_2 C 0.8498(2) 0.9170(4) 0.64473(18)
H23_2 H 0.858(3) 0.927(4) 0.618(2)
C11_2 C 0.8082(2) 0.8465(3) 0.64844(16)
C12_2 C 0.7955(2) 0.8363(3) 0.69008(17)
H24_2 H 0.766608 0.789824 0.691695
C13_2 C 0.8252(2) 0.8941(3) 0.72945(16)
C14_2 C 0.8072(2) 0.8795(3) 0.77345(16)
H28_2 H 0.703911 0.991228 0.620955
H52_2 H 0.990(3) 0.982(5) 0.627(2)
Tb1_2 Tb 0.75930(2) 0.23868(2) 0.34795(2)
Tb2_3 Tb 0.61149(2) 0.10779(2) 0.34164(2)
S1_3 S 0.44840(6) 0.32245(9) 0.10794(4)
S2_3 S 0.72933(6) 0.73100(9) 0.40040(4)
O1_3 O 0.43986(18) 0.2225(3) 0.12295(13)
O2_3 O 0.4697(3) 0.3230(4) 0.06906(15)
O3_3 O 0.3930(2) 0.3806(4) 0.1002(2)
O4_3 O 0.49949(16) 0.0837(3) 0.30907(14)
H1_3 H 0.474166 0.036066 0.297073
H2_3 H 0.475776 0.082766 0.325743
O5_3 O 0.7726(2) 0.6692(3) 0.43553(13)
O6_3 O 0.58027(19) 0.0207(3) 0.40337(16)
H4_3 H 0.555926 0.020712 0.419563
O7_3 O 0.6813(2) 0.7728(3) 0.41612(16)
O8 O 0.75982(16) 0.8076(2) 0.38247(11)
O10_3 O 0.67459(14) 0.3225(2) 0.29307(11)
O12_3 O 0.58935(15) 0.2395(3) 0.28750(12)
O14_2 O 0.71013(15) 0.7059(2) 0.21911(11)
O15_3 O 0.78389(17) 0.0725(3) 0.54006(12)
H11_3 H 0.821775 0.080904 0.556857
H12_3 H 0.762025 0.087864 0.557197
O16_2 O 0.68997(15) 0.5472(2) 0.20031(12)
H13_3 H 0.876073 0.025309 0.479134
O23_3 O 0.76807(18) 0.3859(3) 0.39523(13)
O24_3 O 0.79221(17) 0.4142(3) 0.33159(13)
O26_3 O 0.81048(19) 0.2264(3) 0.47861(15)
O27_3 O 0.69447(15) 0.2003(3) 0.39240(11)
H15_3 H 0.680(2) 0.241(4) 0.3998(17)
O28_3 O 0.79454(14) 0.0929(2) 0.39329(11)
H16_3 H 0.832276 0.097294 0.405759
O30_3 O 0.69451(14) 0.1044(2) 0.31104(11)
H18_3 H 0.684845 0.109946 0.281103
C1_3 C 0.6182(2) 0.3069(3) 0.27523(15)
C2_3 C 0.5816(2) 0.3731(3) 0.23419(16)
C3_3 C 0.5370(2) 0.3268(4) 0.19645(17)
H19_3 H 0.530(2) 0.258(4) 0.1993(18)
C4_3 C 0.5048(2) 0.3811(4) 0.15611(17)
C5_3 C 0.5153(2) 0.4820(4) 0.15346(17)
H20_3 H 0.490(3) 0.518(5) 0.127(2)
C6_3 C 0.5573(2) 0.5287(4) 0.19115(17)
H21_3 H 0.564(2) 0.592(4) 0.1889(19)
C7_3 C 0.5925(2) 0.4762(3) 0.23192(16)
C8_3 C 0.6318(2) 0.5348(3) 0.27323(16)
C9_3 C 0.6209(2) 0.5238(3) 0.31643(17)
H22_3 H 0.591(2) 0.477(4) 0.3189(18)
C10_3 C 0.6502(2) 0.5830(4) 0.35527(18)
H23_3 H 0.642(3) 0.573(4) 0.382(2)
C11_3 C 0.6918(2) 0.6535(3) 0.35156(16)
C12_3 C 0.7045(2) 0.6637(3) 0.30992(17)
H24_3 H 0.733392 0.710176 0.308305
C13_3 C 0.6748(2) 0.6059(3) 0.27055(16)
C14_3 C 0.6928(2) 0.6205(3) 0.22655(16)
C22_3 C 0.7865(2) 0.4431(4) 0.36949(19)
H28_3 H 0.796089 0.508772 0.379045
C23_3 C 0.8437(2) 0.2959(4) 0.49798(18)
H29_3 H 0.882(3) 0.290(4) 0.4921(19)
Tb5_2 Tb 0.24070(2) 0.23868(2) 0.15205(2)
Tb6_3 Tb 0.38851(2) 0.10779(2) 0.15836(2)
S5_3 S 0.55160(6) 0.32245(9) 0.39206(4)
S6_3 S 0.27067(6) 0.73100(9) 0.09960(4)
O36_3 O 0.56014(18) 0.2225(3) 0.37705(13)
O37_3 O 0.5303(3) 0.3230(4) 0.43094(15)
O38_3 O 0.6070(2) 0.3806(4) 0.3998(2)
O39_3 O 0.50051(16) 0.0837(3) 0.19093(14)
H33_3 H 0.525834 0.036066 0.202927
H34_3 H 0.524224 0.082766 0.174257
O40_3 O 0.2274(2) 0.6692(3) 0.06447(13)
O41_3 O 0.41973(19) 0.0207(3) 0.09663(16)
H36_3 H 0.444074 0.020712 0.080437
O42_3 O 0.3187(2) 0.7728(3) 0.08388(16)
O43 O 0.24018(16) 0.8076(2) 0.11753(11)
O45_3 O 0.32541(14) 0.3225(2) 0.20693(11)
O47_3 O 0.41065(15) 0.2395(3) 0.21250(12)
O49_2 O 0.28987(15) 0.7059(2) 0.28089(11)
O51_2 O 0.31003(15) 0.5472(2) 0.29969(12)
H45_3 H 0.123927 0.025309 0.020866
O53_3 O 0.23193(18) 0.3859(3) 0.10477(13)
O54_3 O 0.20779(17) 0.4142(3) 0.16841(13)
O56_3 O 0.18952(19) 0.2264(3) 0.02139(15)
O57_3 O 0.30553(15) 0.2003(3) 0.10760(11)
H47_3 H 0.320(2) 0.241(4) 0.1002(17)
O58_3 O 0.20546(14) 0.0929(2) 0.10671(11)
H48_3 H 0.167724 0.097294 0.094241
O60_3 O 0.30549(14) 0.1044(2) 0.18896(11)
H50_3 H 0.315155 0.109946 0.218897
C31_3 C 0.3818(2) 0.3069(3) 0.22477(15)
C32_3 C 0.4184(2) 0.3731(3) 0.26581(16)
C33_3 C 0.4630(2) 0.3268(4) 0.30355(17)
H51_3 H 0.470(2) 0.258(4) 0.3007(18)
C34_3 C 0.4952(2) 0.3811(4) 0.34389(17)
C35_3 C 0.4847(2) 0.4820(4) 0.34654(17)
H52_3 H 0.510(3) 0.518(5) 0.373(2)
C36_3 C 0.4427(2) 0.5287(4) 0.30885(17)
H53_3 H 0.436(2) 0.592(4) 0.3111(19)
C37_3 C 0.4075(2) 0.4762(3) 0.26808(16)
C38_3 C 0.3682(2) 0.5348(3) 0.22677(16)
C39_3 C 0.3791(2) 0.5238(3) 0.18357(17)
H54_3 H 0.409(2) 0.477(4) 0.1811(18)
C40_3 C 0.3498(2) 0.5830(4) 0.14473(18)
H55_3 H 0.358(3) 0.573(4) 0.118(2)
C41_3 C 0.3082(2) 0.6535(3) 0.14844(16)
C42_3 C 0.2955(2) 0.6637(3) 0.19008(17)
H56_3 H 0.266608 0.710176 0.191695
C43_3 C 0.3252(2) 0.6059(3) 0.22945(16)
C44_3 C 0.3072(2) 0.6205(3) 0.27345(16)
C45_3 C 0.2135(2) 0.4431(4) 0.13051(19)
H57_3 H 0.203911 0.508772 0.120955
C46_3 C 0.1563(2) 0.2959(4) 0.00202(18)
H58_3 H 0.118(3) 0.290(4) 0.0079(19)
Tb9 Tb 0.25930(2) 0.73868(2) 0.34795(2)
Tb11 Tb 0.74070(2) 0.73868(2) 0.15205(2)
Tb13 Tb 0.75352(2) 0.96129(2) 0.33983(2)
Tb14 Tb 0.24648(2) 0.96129(2) 0.16017(2)
Tb15_2 Tb 0.25352(2) 0.46129(2) 0.33983(2)
Tb16_2 Tb 0.74648(2) 0.46129(2) 0.16017(2)
O63_2 O 0.21013(15) 0.2059(2) 0.21911(11)
O64_2 O 0.78987(15) 0.2059(2) 0.28089(11)
O65_2 O 0.18997(15) 0.0472(2) 0.20031(12)
O66_2 O 0.81003(15) 0.0472(2) 0.29969(12)
O67_2 O 0.13022(16) 0.2444(3) 0.11652(13)
O68_2 O 0.86978(16) 0.2444(3) 0.38348(13)
O50_3 O 0.21611(17) 0.0725(3) 0.95994(12)
H43_3 H 0.178225 0.080904 0.943143
H44_3 H 0.237975 0.087864 0.942803
S3_3 S 0.56958(6) 0.78857(12) 0.09904(5)
H3_3 H 0.564966 0.981952 0.379363
O9_3 O 0.85972(17) 0.9144(3) 0.37640(14)
H5_3 H 0.894566 0.942481 0.381158
H6_3 H 0.876526 0.861441 0.391358
O11_3 O 0.76931(19) 0.8591(3) 0.27918(15)
H7_3 H 0.748570 0.806874 0.266889
H8_3 H 0.789970 0.867125 0.260399
O13_3 O 0.7207(2) 0.9277(3) 0.48002(13)
H9_3 H 0.730459 0.909297 0.509185
H10_3 H 0.706709 0.876247 0.462575
O17_3 O 0.8445(2) 0.9935(4) 0.48045(16)
H14_3 H 0.849713 0.942189 0.498604
O18_3 O 0.5721(2) 0.8902(3) 0.08219(17)
O19_3 O 0.52543(19) 0.7281(4) 0.06467(16)
O20_2 O 0.63022(16) 0.7444(3) 0.11652(13)
O21_3 O 0.66123(15) 0.8856(3) 0.29101(12)
O22_3 O 0.58134(15) 0.9851(3) 0.28261(13)
O29_3 O 0.68978(14) 0.9950(2) 0.38675(10)
H17_3 H 0.669903 0.944696 0.390797
C15_3 C 0.6069(2) 0.9109(3) 0.27153(16)
C16_3 C 0.5669(2) 0.8508(3) 0.23001(16)
C17_3 C 0.5851(2) 0.8405(4) 0.19056(18)
H25_3 H 0.620(3) 0.853(4) 0.1936(19)
C18_3 C 0.5456(2) 0.7973(4) 0.14925(17)
C19_3 C 0.4877(2) 0.7652(4) 0.14668(19)
H26_3 H 0.462(3) 0.738(4) 0.118(2)
C20_3 C 0.4706(2) 0.7731(4) 0.18630(19)
H27_3 H 0.434(3) 0.751(4) 0.185(2)
C21_3 C 0.5090(2) 0.8162(3) 0.22860(17)
S4_3 S 0.43042(6) 0.78857(12) 0.40096(5)
O31_3 O 0.4279(2) 0.8902(3) 0.41781(17)
O32_3 O 0.47457(19) 0.7281(4) 0.43533(16)
O33_2 O 0.36978(16) 0.7444(3) 0.38348(13)
O34_3 O 0.33877(15) 0.8856(3) 0.20899(12)
O35_3 O 0.41866(15) 0.9851(3) 0.21739(13)
C24_3 C 0.3931(2) 0.9109(3) 0.22847(16)
C25_3 C 0.4331(2) 0.8508(3) 0.26999(16)
C26_3 C 0.4149(2) 0.8405(4) 0.30944(18)
H30_3 H 0.380(3) 0.853(4) 0.3064(19)
C27_3 C 0.4544(2) 0.7973(4) 0.35075(17)
C28_3 C 0.5123(2) 0.7652(4) 0.35332(19)
H31_3 H 0.538(3) 0.738(4) 0.382(2)
C29_3 C 0.5294(2) 0.7731(4) 0.31370(19)
H32_3 H 0.566(3) 0.751(4) 0.315(2)
C30_3 C 0.4910(2) 0.8162(3) 0.27140(17)
H35_3 H 0.435034 0.981952 0.120637
O44_3 O 0.14028(17) 0.9144(3) 0.12360(14)
H37_3 H 0.105434 0.942481 0.118842
H38_3 H 0.123474 0.861441 0.108642
O46_3 O 0.23069(19) 0.8591(3) 0.22082(15)
H39_3 H 0.251430 0.806874 0.233111
H40_3 H 0.210030 0.867125 0.239601
O48_3 O 0.2793(2) 0.9277(3) 0.01998(13)
H42_3 H 0.293291 0.876247 0.037425
O52_3 O 0.1555(2) 0.9935(4) 0.01955(16)
H46_3 H 0.150287 0.942189 0.001396
O59_3 O 0.31022(14) 0.9950(2) 0.11325(10)
H49_3 H 0.330097 0.944696 0.109203
S2_4 S 0.22933(6) 0.23100(9) 0.40040(4)
O5_4 O 0.2726(2) 0.1692(3) 0.43553(13)
O7_4 O 0.1813(2) 0.2728(3) 0.41612(16)
O8_2 O 0.25982(16) 0.3076(2) 0.38247(11)
C6_4 C 0.0573(2) 0.0287(4) 0.19115(17)
H21_4 H 0.064(2) 0.092(4) 0.1889(19)
C8_4 C 0.1318(2) 0.0348(3) 0.27323(16)
C9_4 C 0.1209(2) 0.0238(3) 0.31643(17)
C10_4 C 0.1502(2) 0.0830(4) 0.35527(18)
H23_4 H 0.142(3) 0.073(4) 0.382(2)
C11_4 C 0.1918(2) 0.1535(3) 0.35156(16)
C12_4 C 0.2045(2) 0.1637(3) 0.30992(17)
H24_4 H 0.233392 0.210176 0.308305
C13_4 C 0.1748(2) 0.1059(3) 0.27055(16)
C14_4 C 0.1928(2) 0.1205(3) 0.22655(16)
H28_4 H 0.296089 0.008772 0.379045
H52_4 H 0.010(3) 0.018(5) 0.373(2)
Tb2_4 Tb 0.11149(2) 0.60779(2) 0.34164(2)
S3_4 S 0.06958(6) 0.28857(12) 0.09904(5)
O6_4 O 0.08027(19) 0.5207(3) 0.40337(16)
H3_4 H 0.064966 0.481952 0.379363
H4_4 H 0.055926 0.520712 0.419563
O9_4 O 0.35972(17) 0.4144(3) 0.37640(14)
H5_4 H 0.394566 0.442481 0.381158
H6_4 H 0.376526 0.361441 0.391358
O10_4 O 0.17459(14) 0.8225(2) 0.29307(11)
O11_4 O 0.26931(19) 0.3591(3) 0.27918(15)
H7_4 H 0.248570 0.306874 0.266889
H8_4 H 0.289970 0.367125 0.260399
O12_4 O 0.08935(15) 0.7395(3) 0.28750(12)
O13_4 O 0.2207(2) 0.4277(3) 0.48002(13)
H9_4 H 0.230459 0.409297 0.509185
H10_4 H 0.206709 0.376247 0.462575
O15_4 O 0.28389(17) 0.5725(3) 0.54006(12)
H11_4 H 0.321775 0.580904 0.556857
H12_4 H 0.262025 0.587864 0.557197
O17_4 O 0.3445(2) 0.4935(4) 0.48045(16)
H13_4 H 0.376073 0.525309 0.479134
H14_4 H 0.349713 0.442189 0.498604
O18_4 O 0.0721(2) 0.3902(3) 0.08219(17)
O19_4 O 0.02543(19) 0.2281(4) 0.06467(16)
O21_4 O 0.16123(15) 0.3856(3) 0.29101(12)
O22_4 O 0.08134(15) 0.4851(3) 0.28261(13)
O23_4 O 0.26807(18) 0.8859(3) 0.39523(13)
O24_4 O 0.29221(17) 0.9142(3) 0.33159(13)
O26_4 O 0.31048(19) 0.7264(3) 0.47861(15)
O27_4 O 0.19447(15) 0.7003(3) 0.39240(11)
H15_4 H 0.180(2) 0.741(4) 0.3998(17)
O28_4 O 0.29454(14) 0.5929(2) 0.39329(11)
H16_4 H 0.332276 0.597294 0.405759
O29_4 O 0.18978(14) 0.4950(2) 0.38675(10)
H17_4 H 0.169903 0.444696 0.390797
O30_4 O 0.19451(14) 0.6044(2) 0.31104(11)
H18_4 H 0.184845 0.609946 0.281103
C1_4 C 0.1182(2) 0.8069(3) 0.27523(15)
C2_4 C 0.0816(2) 0.8731(3) 0.23419(16)
C3_4 C 0.0370(2) 0.8268(4) 0.19645(17)
H19_4 H 0.030(2) 0.758(4) 0.1993(18)
C4_4 C 0.0048(2) 0.8811(4) 0.15611(17)
C5_4 C 0.0153(2) 0.9820(4) 0.15346(17)
C7_4 C 0.0925(2) 0.9762(3) 0.23192(16)
H22_4 H 0.091(2) 0.977(4) 0.3189(18)
C15_4 C 0.1069(2) 0.4109(3) 0.27153(16)
C16_4 C 0.0669(2) 0.3508(3) 0.23001(16)
C17_4 C 0.0851(2) 0.3405(4) 0.19056(18)
H25_4 H 0.120(3) 0.353(4) 0.1936(19)
C18_4 C 0.0456(2) 0.2973(4) 0.14925(17)
C21_4 C 0.0090(2) 0.3162(3) 0.22860(17)
C22_4 C 0.2865(2) 0.9431(4) 0.36949(19)
C23_4 C 0.3437(2) 0.7959(4) 0.49798(18)
H29_4 H 0.382(3) 0.790(4) 0.4921(19)
C28_4 C 0.0123(2) 0.2652(4) 0.35332(19)
H31_4 H 0.038(3) 0.238(4) 0.382(2)
C29_4 C 0.0294(2) 0.2731(4) 0.31370(19)
H32_4 H 0.066(3) 0.251(4) 0.315(2)
S5_4 S 0.05160(6) 0.82245(9) 0.39206(4)
O36_4 O 0.06014(18) 0.7225(3) 0.37705(13)
O37_4 O 0.0303(3) 0.8230(4) 0.43094(15)
O38_4 O 0.1070(2) 0.8806(4) 0.3998(2)
O39_4 O 0.00051(16) 0.5837(3) 0.19093(14)
H33_4 H 0.025834 0.536066 0.202927
H34_4 H 0.024224 0.582766 0.174257
H20_4 H 0.990(3) 0.018(5) 0.127(2)
S6_4 S 0.77067(6) 0.23100(9) 0.09960(4)
O40_4 O 0.7274(2) 0.1692(3) 0.06447(13)
O42_4 O 0.8187(2) 0.2728(3) 0.08388(16)
O43_2 O 0.74018(16) 0.3076(2) 0.11753(11)
C36_4 C 0.9427(2) 0.0287(4) 0.30885(17)
H53_4 H 0.936(2) 0.092(4) 0.3111(19)
C38_4 C 0.8682(2) 0.0348(3) 0.22677(16)
C39_4 C 0.8791(2) 0.0238(3) 0.18357(17)
C40_4 C 0.8498(2) 0.0830(4) 0.14473(18)
H55_4 H 0.858(3) 0.073(4) 0.118(2)
C41_4 C 0.8082(2) 0.1535(3) 0.14844(16)
C42_4 C 0.7955(2) 0.1637(3) 0.19008(17)
H56_4 H 0.766608 0.210176 0.191695
C43_4 C 0.8252(2) 0.1059(3) 0.22945(16)
C44_4 C 0.8072(2) 0.1205(3) 0.27345(16)
H57_4 H 0.703911 0.008772 0.120955
S1_4 S 0.94840(6) 0.82245(9) 0.10794(4)
O1_4 O 0.93986(18) 0.7225(3) 0.12295(13)
O2_4 O 0.9697(3) 0.8230(4) 0.06906(15)
O3_4 O 0.8930(2) 0.8806(4) 0.1002(2)
O4_4 O 0.99949(16) 0.5837(3) 0.30907(14)
H1_4 H 0.974166 0.536066 0.297073
H2_4 H 0.975776 0.582766 0.325743
C19_4 C 0.9877(2) 0.2652(4) 0.14668(19)
H26_4 H 0.962(3) 0.238(4) 0.118(2)
C20_4 C 0.9706(2) 0.2731(4) 0.18630(19)
H27_4 H 0.934(3) 0.251(4) 0.185(2)
S4_4 S 0.93042(6) 0.28857(12) 0.40096(5)
O31_4 O 0.9279(2) 0.3902(3) 0.41781(17)
O32_4 O 0.97457(19) 0.2281(4) 0.43533(16)
O34_4 O 0.83877(15) 0.3856(3) 0.20899(12)
O35_4 O 0.91866(15) 0.4851(3) 0.21739(13)
C24_4 C 0.8931(2) 0.4109(3) 0.22847(16)
C25_4 C 0.9331(2) 0.3508(3) 0.26999(16)
C26_4 C 0.9149(2) 0.3405(4) 0.30944(18)
H30_4 H 0.880(3) 0.353(4) 0.3064(19)
C27_4 C 0.9544(2) 0.2973(4) 0.35075(17)
C30_4 C 0.9910(2) 0.3162(3) 0.27140(17)
Tb6_4 Tb 0.88851(2) 0.60779(2) 0.15836(2)
O41_4 O 0.91973(19) 0.5207(3) 0.09663(16)
H35_4 H 0.935034 0.481952 0.120637
H36_4 H 0.944074 0.520712 0.080437
O44_4 O 0.64028(17) 0.4144(3) 0.12360(14)
H37_4 H 0.605434 0.442481 0.118842
H38_4 H 0.623474 0.361441 0.108642
O45_4 O 0.82541(14) 0.8225(2) 0.20693(11)
O46_4 O 0.73069(19) 0.3591(3) 0.22082(15)
H39_4 H 0.751430 0.306874 0.233111
H40_4 H 0.710030 0.367125 0.239601
O47_4 O 0.91065(15) 0.7395(3) 0.21250(12)
O48_4 O 0.7793(2) 0.4277(3) 0.01998(13)
H42_4 H 0.793291 0.376247 0.037425
O52_4 O 0.6555(2) 0.4935(4) 0.01955(16)
H45_4 H 0.623927 0.525309 0.020866
H46_4 H 0.650287 0.442189 0.001396
O53_4 O 0.73193(18) 0.8859(3) 0.10477(13)
O54_4 O 0.70779(17) 0.9142(3) 0.16841(13)
O56_4 O 0.68952(19) 0.7264(3) 0.02139(15)
O57_4 O 0.80553(15) 0.7003(3) 0.10760(11)
H47_4 H 0.820(2) 0.741(4) 0.1002(17)
O58_4 O 0.70546(14) 0.5929(2) 0.10671(11)
H48_4 H 0.667724 0.597294 0.094241
O59_4 O 0.81022(14) 0.4950(2) 0.11325(10)
H49_4 H 0.830097 0.444696 0.109203
O60_4 O 0.80549(14) 0.6044(2) 0.18896(11)
H50_4 H 0.815155 0.609946 0.218897
C31_4 C 0.8818(2) 0.8069(3) 0.22477(15)
C32_4 C 0.9184(2) 0.8731(3) 0.26581(16)
C33_4 C 0.9630(2) 0.8268(4) 0.30355(17)
H51_4 H 0.970(2) 0.758(4) 0.3007(18)
C34_4 C 0.9952(2) 0.8811(4) 0.34389(17)
C35_4 C 0.9847(2) 0.9820(4) 0.34654(17)
C37_4 C 0.9075(2) 0.9762(3) 0.26808(16)
H54_4 H 0.909(2) 0.977(4) 0.1811(18)
C45_4 C 0.7135(2) 0.9431(4) 0.13051(19)
C46_4 C 0.6563(2) 0.7959(4) 0.00202(18)
H58_4 H 0.618(3) 0.790(4) 0.0079(19)
H41_3 H 0.769541 0.409297 0.990815
O50_4 O 0.71611(17) 0.5725(3) 0.95994(12)
H43_4 H 0.678225 0.580904 0.943143
H44_4 H 0.737975 0.587864 0.942803
H41_4 H 0.269541 0.909297 0.990815
loop_
_geom_bond_atom_site_label_1
_geom_bond_atom_site_label_2
_geom_bond_site_symmetry_1
_geom_bond_site_symmetry_2
Tb3 O9 1_555 1_555
S3 O18 1_555 1_555
O9 H5 1_555 1_555
H6 O9 1_555 1_555
O11 Tb3 1_555 1_555
H7 O11 1_555 1_555
H8 O11 1_555 1_555
O13 H9 1_555 1_555
H10 O13 1_555 1_555
H14 O17 1_555 1_555
O19 S3 1_555 1_555
O20 S3 1_555 1_555
O21 Tb3 1_555 1_555
H17 O29 1_555 1_555
C15 O21 1_555 1_555
C16 C15 1_555 1_555
C17 C16 1_555 1_555
H25 C17 1_555 1_555
C18 S3 1_555 1_555
C19 C18 1_555 1_555
H26 C19 1_555 1_555
C20 C19 1_555 1_555
H27 C20 1_555 1_555
C21 C16 1_555 1_555
S4 O31 1_555 1_555
O32 S4 1_555 1_555
O33 S4 1_555 1_555
O34 C24 1_555 1_555
O35 C24 1_555 1_555
C24 C25 1_555 1_555
C25 C26 1_555 1_555
C26 H30 1_555 1_555
C27 S4 1_555 1_555
C28 C27 1_555 1_555
H31 C28 1_555 1_555
C29 C28 1_555 1_555
H32 C29 1_555 1_555
C30 C21 1_555 1_555
Tb7 O34 1_555 1_555
O44 Tb7 1_555 1_555
H37 O44 1_555 1_555
H38 O44 1_555 1_555
O46 Tb7 1_555 1_555
H39 O46 1_555 1_555
H40 O46 1_555 1_555
H42 O48 1_555 1_555
H46 O52 1_555 1_555
H49 O59 1_555 1_555
Tb10 O33 1_555 1_555
Tb12 O20 1_555 1_555
O61 Tb3 1_555 1_555
O62 Tb7 1_555 1_555
Tb3 O29 1_555 1_555
O22 C15 1_555 1_555
C17 C18 1_555 1_555
C20 C21 1_555 1_555
C25 C30 1_555 1_555
C26 C27 1_555 1_555
C29 C30 1_555 1_555
Tb7 O59 1_555 1_555
H43 O50 1_555 1_555
H44 O50 1_555 1_555
Tb18 O55 1_555 1_555
Tb1 O10 1_555 1_555
Tb2 O4 1_555 1_555
S1 O1 1_555 1_555
S2 O5 1_555 1_555
O1 Tb6 1_555 1_555
O2 S1 1_555 1_555
O3 S1 1_555 1_555
O4 H1 1_555 1_555
H2 O4 1_555 1_555
O6 Tb2 1_555 1_555
H4 O6 1_555 1_555
O7 S2 1_555 1_555
O61 S2 1_555 1_555
O10 C1 1_555 1_555
O12 Tb2 1_555 1_555
O14 C14 1_555 1_555
O15 Tb4 1_555 1_555
H11 O15 1_555 1_555
H12 O15 1_555 1_555
O16 C14 1_555 1_555
O23 Tb1 1_555 1_555
O24 Tb1 1_555 1_555
O25 C23 1_555 1_555
O26 Tb4 1_555 1_555
O27 Tb1 1_555 1_555
H15 O27 1_555 1_555
O28 Tb1 1_555 1_555
H16 O28 1_555 1_555
O30 Tb1 1_555 1_555
H18 O30 1_555 1_555
C1 O12 1_555 1_555
C2 C1 1_555 1_555
C3 C2 1_555 1_555
H19 C3 1_555 1_555
C4 S1 1_555 1_555
C5 C4 1_555 1_555
H20 C5 1_555 1_555
C6 C5 1_555 1_555
H21 C6 1_555 1_555
C7 C2 1_555 1_555
C8 C7 1_555 1_555
C9 C8 1_555 1_555
H22 C9 1_555 1_555
C10 C9 1_555 1_555
H23 C10 1_555 1_555
C11 S2 1_555 1_555
C12 C11 1_555 1_555
H24 C12 1_555 1_555
C13 C8 1_555 1_555
C14 C13 1_555 1_555
C22 O23 1_555 1_555
H28 C22 1_555 1_555
C23 O26 1_555 1_555
H29 C23 1_555 1_555
Tb5 O45 1_555 1_555
S5 O36 1_555 1_555
S6 O40 1_555 1_555
O36 Tb2 1_555 1_555
O37 S5 1_555 1_555
O38 S5 1_555 1_555
O39 Tb6 1_555 1_555
H33 O39 1_555 1_555
H34 O39 1_555 1_555
O41 Tb6 1_555 1_555
H36 O41 1_555 1_555
O42 S6 1_555 1_555
O62 S6 1_555 1_555
O45 C31 1_555 1_555
O47 Tb6 1_555 1_555
O49 C44 1_555 1_555
O51 C44 1_555 1_555
O53 Tb5 1_555 1_555
O54 Tb5 1_555 1_555
O56 Tb8 1_555 1_555
O57 Tb5 1_555 1_555
H47 O57 1_555 1_555
O58 Tb5 1_555 1_555
H48 O58 1_555 1_555
O60 Tb5 1_555 1_555
H50 O60 1_555 1_555
C31 O47 1_555 1_555
C32 C31 1_555 1_555
C33 C32 1_555 1_555
H51 C33 1_555 1_555
C34 S5 1_555 1_555
C35 C34 1_555 1_555
H52 C35 1_555 1_555
C36 C35 1_555 1_555
H53 C36 1_555 1_555
C37 C32 1_555 1_555
C38 C37 1_555 1_555
C39 C38 1_555 1_555
H54 C39 1_555 1_555
C40 C39 1_555 1_555
H55 C40 1_555 1_555
C41 S6 1_555 1_555
C42 C41 1_555 1_555
H56 C42 1_555 1_555
C43 C38 1_555 1_555
C44 C43 1_555 1_555
C45 O53 1_555 1_555
H57 C45 1_555 1_555
C46 O56 1_555 1_555
H58 C46 1_555 1_555
Tb10 O49 1_555 1_555
Tb12 O14 1_555 1_555
Tb15 O51 1_555 1_555
Tb16 O16 1_555 1_555
Tb17 O25 1_555 1_555
O63 Tb5 1_555 1_555
O64 Tb1 1_555 1_555
O67 Tb5 1_555 1_555
O68 Tb1 1_555 1_555
O69 Tb4 1_555 1_555
O70 Tb8 1_555 1_555
Tb2 O27 1_555 1_555
Tb2 O30 1_555 1_555
Tb4 O27 1_555 1_555
Tb4 O28 1_555 1_555
O24 C22 1_555 1_555
C3 C4 1_555 1_555
C6 C7 1_555 1_555
C10 C11 1_555 1_555
C12 C13 1_555 1_555
Tb6 O57 1_555 1_555
Tb6 O60 1_555 1_555
Tb8 O57 1_555 1_555
Tb8 O58 1_555 1_555
O54 C45 1_555 1_555
C33 C34 1_555 1_555
C36 C37 1_555 1_555
C40 C41 1_555 1_555
C42 C43 1_555 1_555
H43_2 O50_2 1_555 1_555
H44_2 O50_2 1_555 1_555
Tb18_2 O55_2 1_555 1_555
S1_2 O1_2 1_555 1_555
O1_2 Tb6_2 1_555 1_555
O2_2 S1_2 1_555 1_555
O3_2 S1_2 1_555 1_555
O4_2 H1_2 1_555 1_555
H2_2 O4_2 1_555 1_555
H26_2 C19_2 1_555 1_555
C20_2 C19_2 1_555 1_555
H27_2 C20_2 1_555 1_555
S4_2 O31_2 1_555 1_555
O32_2 S4_2 1_555 1_555
O68 S4_2 1_555 1_555
O34_2 C24_2 1_555 1_555
O35_2 C24_2 1_555 1_555
C24_2 C25_2 1_555 1_555
C25_2 C26_2 1_555 1_555
C26_2 H30_2 1_555 1_555
C27_2 S4_2 1_555 1_555
Tb12 O45_2 1_555 1_555
Tb6_2 O35_2 1_555 1_555
Tb16 O34_2 1_555 1_555
Tb8_2 O48_2 1_555 1_555
O41_2 Tb6_2 1_555 1_555
H35_2 O41_2 1_555 1_555
H36_2 O41_2 1_555 1_555
O44_2 Tb16 1_555 1_555
H37_2 O44_2 1_555 1_555
H38_2 O44_2 1_555 1_555
O45_2 C31_2 1_555 1_555
O46_2 Tb16 1_555 1_555
H39_2 O46_2 1_555 1_555
H40_2 O46_2 1_555 1_555
O47_2 Tb6_2 1_555 1_555
H42_2 O48_2 1_555 1_555
O52_2 Tb8_2 1_555 1_555
H45_2 O52_2 1_555 1_555
H46_2 O52_2 1_555 1_555
O53_2 Tb12 1_555 1_555
O54_2 Tb12 1_555 1_555
O56_2 Tb8_2 1_555 1_555
O57_2 Tb12 1_555 1_555
H47_2 O57_2 1_555 1_555
O58_2 Tb12 1_555 1_555
H48_2 O58_2 1_555 1_555
O59_2 Tb6_2 1_555 1_555
H49_2 O59_2 1_555 1_555
O60_2 Tb12 1_555 1_555
H50_2 O60_2 1_555 1_555
C31_2 O47_2 1_555 1_555
C32_2 C31_2 1_555 1_555
C33_2 C32_2 1_555 1_555
H51_2 C33_2 1_555 1_555
C35_2 C34_2 1_555 1_555
C37_2 C32_2 1_555 1_555
C45_2 O53_2 1_555 1_555
C46_2 O56_2 1_555 1_555
H58_2 C46_2 1_555 1_555
O62_2 Tb16 1_555 1_555
O70_2 Tb8_2 1_555 1_555
C25_2 C30_2 1_555 1_555
C26_2 C27_2 1_555 1_555
Tb6_2 O57_2 1_555 1_555
Tb6_2 O60_2 1_555 1_555
Tb16 O58_2 1_555 1_555
Tb16 O59_2 1_555 1_555
Tb16 O60_2 1_555 1_555
Tb8_2 O57_2 1_555 1_555
Tb8_2 O58_2 1_555 1_555
Tb8_2 O59_2 1_555 1_555
O54_2 C45_2 1_555 1_555
C33_2 C34_2 1_555 1_555
S6_2 O40_2 1_555 1_555
O42_2 S6_2 1_555 1_555
O62_2 S6_2 1_555 1_555
O64 C44_2 1_555 1_555
O66 C44_2 1_555 1_555
H53_2 C36_2 1_555 1_555
C39_2 C38_2 1_555 1_555
C40_2 C39_2 1_555 1_555
H55_2 C40_2 1_555 1_555
C41_2 S6_2 1_555 1_555
C42_2 C41_2 1_555 1_555
H56_2 C42_2 1_555 1_555
C43_2 C38_2 1_555 1_555
C44_2 C43_2 1_555 1_555
C40_2 C41_2 1_555 1_555
C42_2 C43_2 1_555 1_555
Tb10 O10_2 1_555 1_555
Tb15 O9_2 1_555 1_555
Tb4_2 O13_2 1_555 1_555
S3_2 O18_2 1_555 1_555
O6_2 Tb2_2 1_555 1_555
H3_2 O6_2 1_555 1_555
H4_2 O6_2 1_555 1_555
O9_2 H5_2 1_555 1_555
H6_2 O9_2 1_555 1_555
O10_2 C1_2 1_555 1_555
O11_2 Tb15 1_555 1_555
H7_2 O11_2 1_555 1_555
H8_2 O11_2 1_555 1_555
O12_2 Tb2_2 1_555 1_555
O13_2 H9_2 1_555 1_555
H10_2 O13_2 1_555 1_555
O15_2 Tb4_2 1_555 1_555
H11_2 O15_2 1_555 1_555
H12_2 O15_2 1_555 1_555
O17_2 Tb4_2 1_555 1_555
H13_2 O17_2 1_555 1_555
H14_2 O17_2 1_555 1_555
O19_2 S3_2 1_555 1_555
O67 S3_2 1_555 1_555
O21_2 Tb15 1_555 1_555
O22_2 Tb2_2 1_555 1_555
O23_2 Tb10 1_555 1_555
O24_2 Tb10 1_555 1_555
O25_2 C23_2 1_555 1_555
O26_2 Tb4_2 1_555 1_555
O27_2 Tb10 1_555 1_555
H15_2 O27_2 1_555 1_555
O28_2 Tb10 1_555 1_555
H16_2 O28_2 1_555 1_555
O29_2 Tb2_2 1_555 1_555
H17_2 O29_2 1_555 1_555
O30_2 Tb10 1_555 1_555
H18_2 O30_2 1_555 1_555
C1_2 O12_2 1_555 1_555
C2_2 C1_2 1_555 1_555
C3_2 C2_2 1_555 1_555
H19_2 C3_2 1_555 1_555
C5_2 C4_2 1_555 1_555
C7_2 C2_2 1_555 1_555
C15_2 O21_2 1_555 1_555
C16_2 C15_2 1_555 1_555
C17_2 C16_2 1_555 1_555
H25_2 C17_2 1_555 1_555
C18_2 S3_2 1_555 1_555
C21_2 C16_2 1_555 1_555
C22_2 O23_2 1_555 1_555
C23_2 O26_2 1_555 1_555
H29_2 C23_2 1_555 1_555
H31_2 C28_2 1_555 1_555
C29_2 C28_2 1_555 1_555
H32_2 C29_2 1_555 1_555
S5_2 O36_2 1_555 1_555
O36_2 Tb2_2 1_555 1_555
O37_2 S5_2 1_555 1_555
O38_2 S5_2 1_555 1_555
H33_2 O39_2 1_555 1_555
H34_2 O39_2 1_555 1_555
Tb17_2 O25_2 1_555 1_555
O61_2 Tb15 1_555 1_555
O69_2 Tb4_2 1_555 1_555
Tb2_2 O27_2 1_555 1_555
Tb2_2 O30_2 1_555 1_555
Tb15 O28_2 1_555 1_555
Tb15 O29_2 1_555 1_555
Tb15 O30_2 1_555 1_555
Tb4_2 O27_2 1_555 1_555
Tb4_2 O28_2 1_555 1_555
Tb4_2 O29_2 1_555 1_555
O22_2 C15_2 1_555 1_555
O24_2 C22_2 1_555 1_555
C3_2 C4_2 1_555 1_555
C17_2 C18_2 1_555 1_555
S2_2 O5_2 1_555 1_555
O7_2 S2_2 1_555 1_555
O61_2 S2_2 1_555 1_555
O63 C14_2 1_555 1_555
O65 C14_2 1_555 1_555
H21_2 C6_2 1_555 1_555
C9_2 C8_2 1_555 1_555
C10_2 C9_2 1_555 1_555
H23_2 C10_2 1_555 1_555
C11_2 S2_2 1_555 1_555
C12_2 C11_2 1_555 1_555
H24_2 C12_2 1_555 1_555
C13_2 C8_2 1_555 1_555
C14_2 C13_2 1_555 1_555
C10_2 C11_2 1_555 1_555
C12_2 C13_2 1_555 1_555
Tb1_2 O10_3 1_555 1_555
Tb2_3 O4_3 1_555 1_555
S1_3 O1_3 1_555 1_555
S2_3 O5_3 1_555 1_555
O1_3 Tb6_3 1_555 1_555
O2_3 S1_3 1_555 1_555
O3_3 S1_3 1_555 1_555
O4_3 H1_3 1_555 1_555
H2_3 O4_3 1_555 1_555
O6_3 Tb2_3 1_555 1_555
H4_3 O6_3 1_555 1_555
O7_3 S2_3 1_555 1_555
O8 S2_3 1_555 1_555
O10_3 C1_3 1_555 1_555
O12_3 Tb2_3 1_555 1_555
O14_2 C14_3 1_555 1_555
O15_3 Tb17_2 1_555 1_555
H11_3 O15_3 1_555 1_555
H12_3 O15_3 1_555 1_555
O16_2 C14_3 1_555 1_555
O23_3 Tb1_2 1_555 1_555
O24_3 Tb1_2 1_555 1_555
O69_2 C23_3 1_555 1_555
O26_3 Tb17_2 1_555 1_555
O27_3 Tb1_2 1_555 1_555
H15_3 O27_3 1_555 1_555
O28_3 Tb1_2 1_555 1_555
H16_3 O28_3 1_555 1_555
O30_3 Tb1_2 1_555 1_555
H18_3 O30_3 1_555 1_555
C1_3 O12_3 1_555 1_555
C2_3 C1_3 1_555 1_555
C3_3 C2_3 1_555 1_555
H19_3 C3_3 1_555 1_555
C4_3 S1_3 1_555 1_555
C5_3 C4_3 1_555 1_555
H20_3 C5_3 1_555 1_555
C6_3 C5_3 1_555 1_555
H21_3 C6_3 1_555 1_555
C7_3 C2_3 1_555 1_555
C8_3 C7_3 1_555 1_555
C9_3 C8_3 1_555 1_555
H22_3 C9_3 1_555 1_555
C10_3 C9_3 1_555 1_555
H23_3 C10_3 1_555 1_555
C11_3 S2_3 1_555 1_555
C12_3 C11_3 1_555 1_555
H24_3 C12_3 1_555 1_555
C13_3 C8_3 1_555 1_555
C14_3 C13_3 1_555 1_555
C22_3 O23_3 1_555 1_555
H28_3 C22_3 1_555 1_555
C23_3 O26_3 1_555 1_555
H29_3 C23_3 1_555 1_555
Tb5_2 O45_3 1_555 1_555
S5_3 O36_3 1_555 1_555
S6_3 O40_3 1_555 1_555
O36_3 Tb2_3 1_555 1_555
O37_3 S5_3 1_555 1_555
O38_3 S5_3 1_555 1_555
O39_3 Tb6_3 1_555 1_555
H33_3 O39_3 1_555 1_555
H34_3 O39_3 1_555 1_555
O41_3 Tb6_3 1_555 1_555
H36_3 O41_3 1_555 1_555
O42_3 S6_3 1_555 1_555
O43 S6_3 1_555 1_555
O45_3 C31_3 1_555 1_555
O47_3 Tb6_3 1_555 1_555
O49_2 C44_3 1_555 1_555
O51_2 C44_3 1_555 1_555
O53_3 Tb5_2 1_555 1_555
O54_3 Tb5_2 1_555 1_555
O56_3 Tb18_2 1_555 1_555
O57_3 Tb5_2 1_555 1_555
H47_3 O57_3 1_555 1_555
O58_3 Tb5_2 1_555 1_555
H48_3 O58_3 1_555 1_555
O60_3 Tb5_2 1_555 1_555
H50_3 O60_3 1_555 1_555
C31_3 O47_3 1_555 1_555
C32_3 C31_3 1_555 1_555
C33_3 C32_3 1_555 1_555
H51_3 C33_3 1_555 1_555
C34_3 S5_3 1_555 1_555
C35_3 C34_3 1_555 1_555
H52_3 C35_3 1_555 1_555
C36_3 C35_3 1_555 1_555
H53_3 C36_3 1_555 1_555
C37_3 C32_3 1_555 1_555
C38_3 C37_3 1_555 1_555
C39_3 C38_3 1_555 1_555
H54_3 C39_3 1_555 1_555
C40_3 C39_3 1_555 1_555
H55_3 C40_3 1_555 1_555
C41_3 S6_3 1_555 1_555
C42_3 C41_3 1_555 1_555
H56_3 C42_3 1_555 1_555
C43_3 C38_3 1_555 1_555
C44_3 C43_3 1_555 1_555
C45_3 O53_3 1_555 1_555
H57_3 C45_3 1_555 1_555
C46_3 O56_3 1_555 1_555
H58_3 C46_3 1_555 1_555
Tb9 O49_2 1_555 1_555
Tb11 O14_2 1_555 1_555
Tb13 O8 1_555 1_555
Tb14 O43 1_555 1_555
Tb15_2 O51_2 1_555 1_555
Tb16_2 O16_2 1_555 1_555
O63_2 Tb5_2 1_555 1_555
O64_2 Tb1_2 1_555 1_555
O67_2 Tb5_2 1_555 1_555
O68_2 Tb1_2 1_555 1_555
Tb2_3 O27_3 1_555 1_555
Tb2_3 O30_3 1_555 1_555
Tb17_2 O27_3 1_555 1_555
Tb17_2 O28_3 1_555 1_555
O24_3 C22_3 1_555 1_555
C3_3 C4_3 1_555 1_555
C6_3 C7_3 1_555 1_555
C10_3 C11_3 1_555 1_555
C12_3 C13_3 1_555 1_555
Tb6_3 O57_3 1_555 1_555
Tb6_3 O60_3 1_555 1_555
Tb18_2 O57_3 1_555 1_555
Tb18_2 O58_3 1_555 1_555
O54_3 C45_3 1_555 1_555
C33_3 C34_3 1_555 1_555
C36_3 C37_3 1_555 1_555
C40_3 C41_3 1_555 1_555
C42_3 C43_3 1_555 1_555
H43_3 O50_3 1_555 1_555
H44_3 O50_3 1_555 1_555
Tb13 O9_3 1_555 1_555
S3_3 O18_3 1_555 1_555
O9_3 H5_3 1_555 1_555
H6_3 O9_3 1_555 1_555
O11_3 Tb13 1_555 1_555
H7_3 O11_3 1_555 1_555
H8_3 O11_3 1_555 1_555
O13_3 H9_3 1_555 1_555
H10_3 O13_3 1_555 1_555
H14_3 O17_3 1_555 1_555
O19_3 S3_3 1_555 1_555
O20_2 S3_3 1_555 1_555
O21_3 Tb13 1_555 1_555
H17_3 O29_3 1_555 1_555
C15_3 O21_3 1_555 1_555
C16_3 C15_3 1_555 1_555
C17_3 C16_3 1_555 1_555
H25_3 C17_3 1_555 1_555
C18_3 S3_3 1_555 1_555
C19_3 C18_3 1_555 1_555
H26_3 C19_3 1_555 1_555
C20_3 C19_3 1_555 1_555
H27_3 C20_3 1_555 1_555
C21_3 C16_3 1_555 1_555
S4_3 O31_3 1_555 1_555
O32_3 S4_3 1_555 1_555
O33_2 S4_3 1_555 1_555
O34_3 C24_3 1_555 1_555
O35_3 C24_3 1_555 1_555
C24_3 C25_3 1_555 1_555
C25_3 C26_3 1_555 1_555
C26_3 H30_3 1_555 1_555
C27_3 S4_3 1_555 1_555
C28_3 C27_3 1_555 1_555
H31_3 C28_3 1_555 1_555
C29_3 C28_3 1_555 1_555
H32_3 C29_3 1_555 1_555
C30_3 C21_3 1_555 1_555
Tb14 O34_3 1_555 1_555
O44_3 Tb14 1_555 1_555
H37_3 O44_3 1_555 1_555
H38_3 O44_3 1_555 1_555
O46_3 Tb14 1_555 1_555
H39_3 O46_3 1_555 1_555
H40_3 O46_3 1_555 1_555
H42_3 O48_3 1_555 1_555
H46_3 O52_3 1_555 1_555
H49_3 O59_3 1_555 1_555
Tb9 O33_2 1_555 1_555
Tb11 O20_2 1_555 1_555
Tb13 O29_3 1_555 1_555
O22_3 C15_3 1_555 1_555
C17_3 C18_3 1_555 1_555
C20_3 C21_3 1_555 1_555
C25_3 C30_3 1_555 1_555
C26_3 C27_3 1_555 1_555
C29_3 C30_3 1_555 1_555
Tb14 O59_3 1_555 1_555
S2_4 O5_4 1_555 1_555
O7_4 S2_4 1_555 1_555
O8_2 S2_4 1_555 1_555
O63_2 C14_4 1_555 1_555
O65_2 C14_4 1_555 1_555
H21_4 C6_4 1_555 1_555
C9_4 C8_4 1_555 1_555
C10_4 C9_4 1_555 1_555
H23_4 C10_4 1_555 1_555
C11_4 S2_4 1_555 1_555
C12_4 C11_4 1_555 1_555
H24_4 C12_4 1_555 1_555
C13_4 C8_4 1_555 1_555
C14_4 C13_4 1_555 1_555
Tb15_2 O8_2 1_555 1_555
C10_4 C11_4 1_555 1_555
C12_4 C13_4 1_555 1_555
Tb9 O10_4 1_555 1_555
Tb15_2 O9_4 1_555 1_555
Tb17 O13_4 1_555 1_555
S3_4 O18_4 1_555 1_555
O6_4 Tb2_4 1_555 1_555
H3_4 O6_4 1_555 1_555
H4_4 O6_4 1_555 1_555
O9_4 H5_4 1_555 1_555
H6_4 O9_4 1_555 1_555
O10_4 C1_4 1_555 1_555
O11_4 Tb15_2 1_555 1_555
H7_4 O11_4 1_555 1_555
H8_4 O11_4 1_555 1_555
O12_4 Tb2_4 1_555 1_555
O13_4 H9_4 1_555 1_555
H10_4 O13_4 1_555 1_555
O15_4 Tb17 1_555 1_555
H11_4 O15_4 1_555 1_555
H12_4 O15_4 1_555 1_555
O17_4 Tb17 1_555 1_555
H13_4 O17_4 1_555 1_555
H14_4 O17_4 1_555 1_555
O19_4 S3_4 1_555 1_555
O67_2 S3_4 1_555 1_555
O21_4 Tb15_2 1_555 1_555
O22_4 Tb2_4 1_555 1_555
O23_4 Tb9 1_555 1_555
O24_4 Tb9 1_555 1_555
O69 C23_4 1_555 1_555
O26_4 Tb17 1_555 1_555
O27_4 Tb9 1_555 1_555
H15_4 O27_4 1_555 1_555
O28_4 Tb9 1_555 1_555
H16_4 O28_4 1_555 1_555
O29_4 Tb2_4 1_555 1_555
H17_4 O29_4 1_555 1_555
O30_4 Tb9 1_555 1_555
H18_4 O30_4 1_555 1_555
C1_4 O12_4 1_555 1_555
C2_4 C1_4 1_555 1_555
C3_4 C2_4 1_555 1_555
H19_4 C3_4 1_555 1_555
C5_4 C4_4 1_555 1_555
C7_4 C2_4 1_555 1_555
C15_4 O21_4 1_555 1_555
C16_4 C15_4 1_555 1_555
C17_4 C16_4 1_555 1_555
H25_4 C17_4 1_555 1_555
C18_4 S3_4 1_555 1_555
C21_4 C16_4 1_555 1_555
C22_4 O23_4 1_555 1_555
C23_4 O26_4 1_555 1_555
H29_4 C23_4 1_555 1_555
H31_4 C28_4 1_555 1_555
C29_4 C28_4 1_555 1_555
H32_4 C29_4 1_555 1_555
S5_4 O36_4 1_555 1_555
O36_4 Tb2_4 1_555 1_555
O37_4 S5_4 1_555 1_555
O38_4 S5_4 1_555 1_555
H33_4 O39_4 1_555 1_555
H34_4 O39_4 1_555 1_555
Tb2_4 O27_4 1_555 1_555
Tb2_4 O30_4 1_555 1_555
Tb15_2 O28_4 1_555 1_555
Tb15_2 O29_4 1_555 1_555
Tb15_2 O30_4 1_555 1_555
Tb17 O27_4 1_555 1_555
Tb17 O28_4 1_555 1_555
Tb17 O29_4 1_555 1_555
O22_4 C15_4 1_555 1_555
O24_4 C22_4 1_555 1_555
C3_4 C4_4 1_555 1_555
C17_4 C18_4 1_555 1_555
S6_4 O40_4 1_555 1_555
O42_4 S6_4 1_555 1_555
O43_2 S6_4 1_555 1_555
O64_2 C44_4 1_555 1_555
O66_2 C44_4 1_555 1_555
H53_4 C36_4 1_555 1_555
C39_4 C38_4 1_555 1_555
C40_4 C39_4 1_555 1_555
H55_4 C40_4 1_555 1_555
C41_4 S6_4 1_555 1_555
C42_4 C41_4 1_555 1_555
H56_4 C42_4 1_555 1_555
C43_4 C38_4 1_555 1_555
C44_4 C43_4 1_555 1_555
Tb16_2 O43_2 1_555 1_555
C40_4 C41_4 1_555 1_555
C42_4 C43_4 1_555 1_555
S1_4 O1_4 1_555 1_555
O1_4 Tb6_4 1_555 1_555
O2_4 S1_4 1_555 1_555
O3_4 S1_4 1_555 1_555
O4_4 H1_4 1_555 1_555
H2_4 O4_4 1_555 1_555
H26_4 C19_4 1_555 1_555
C20_4 C19_4 1_555 1_555
H27_4 C20_4 1_555 1_555
S4_4 O31_4 1_555 1_555
O32_4 S4_4 1_555 1_555
O68_2 S4_4 1_555 1_555
O34_4 C24_4 1_555 1_555
O35_4 C24_4 1_555 1_555
C24_4 C25_4 1_555 1_555
C25_4 C26_4 1_555 1_555
C26_4 H30_4 1_555 1_555
C27_4 S4_4 1_555 1_555
Tb11 O45_4 1_555 1_555
Tb6_4 O35_4 1_555 1_555
Tb16_2 O34_4 1_555 1_555
Tb18 O48_4 1_555 1_555
O41_4 Tb6_4 1_555 1_555
H35_4 O41_4 1_555 1_555
H36_4 O41_4 1_555 1_555
O44_4 Tb16_2 1_555 1_555
H37_4 O44_4 1_555 1_555
H38_4 O44_4 1_555 1_555
O45_4 C31_4 1_555 1_555
O46_4 Tb16_2 1_555 1_555
H39_4 O46_4 1_555 1_555
H40_4 O46_4 1_555 1_555
O47_4 Tb6_4 1_555 1_555
H42_4 O48_4 1_555 1_555
O52_4 Tb18 1_555 1_555
H45_4 O52_4 1_555 1_555
H46_4 O52_4 1_555 1_555
O53_4 Tb11 1_555 1_555
O54_4 Tb11 1_555 1_555
O56_4 Tb18 1_555 1_555
O57_4 Tb11 1_555 1_555
H47_4 O57_4 1_555 1_555
O58_4 Tb11 1_555 1_555
H48_4 O58_4 1_555 1_555
O59_4 Tb6_4 1_555 1_555
H49_4 O59_4 1_555 1_555
O60_4 Tb11 1_555 1_555
H50_4 O60_4 1_555 1_555
C31_4 O47_4 1_555 1_555
C32_4 C31_4 1_555 1_555
C33_4 C32_4 1_555 1_555
H51_4 C33_4 1_555 1_555
C35_4 C34_4 1_555 1_555
C37_4 C32_4 1_555 1_555
C45_4 O53_4 1_555 1_555
C46_4 O56_4 1_555 1_555
H58_4 C46_4 1_555 1_555
C25_4 C30_4 1_555 1_555
C26_4 C27_4 1_555 1_555
Tb6_4 O57_4 1_555 1_555
Tb6_4 O60_4 1_555 1_555
Tb16_2 O58_4 1_555 1_555
Tb16_2 O59_4 1_555 1_555
Tb16_2 O60_4 1_555 1_555
Tb18 O57_4 1_555 1_555
Tb18 O58_4 1_555 1_555
Tb18 O59_4 1_555 1_555
O54_4 C45_4 1_555 1_555
C33_4 C34_4 1_555 1_555
H43_4 O50_4 1_555 1_555
H44_4 O50_4 1_555 1_555

#END
