
###############################################################################
#
# This file contains modified crystal structure data generated from the
# MOF subset of the Cambridge Structural Database (CSD) v543 
# hosted by the Cambridge Crystallographic Data Centre (CCDC).
#
# This work is licensed under the Creative Commons
# Attribution-NonCommercial-ShareAlike 4.0 International License.
# To view a copy of this license, visit
# http://creativecommons.org/licenses/by-nc-sa/4.0/
# or send a letter to
# Creative Commons, PO Box 1866, Mountain View, CA 94042, USA.
#
# CIF created using the CSD Python API on 29 September 2022
# The structure has been converted into the P1 space group
# The structure has a 3D framework
# The original CSD entry BOMWAE is in the monoclinic crystal system
# The framework has been calculated to contain at least 10.0% void space
# The void calculation uses a probe of radius 1.32A, grid spacing 0.4
#
###############################################################################

data_BOMWAE
_chemical_formula_moiety         '(C156 H132 Br4 Mn9 N24 O29)n'
_symmetry_cell_setting           triclinic
_symmetry_space_group_name_H-M   'P 1'
_symmetry_Int_Tables_number      1
_space_group_name_Hall           'P 1'
loop_
_symmetry_equiv_pos_site_id
_symmetry_equiv_pos_as_xyz
1 x,y,z
_cell_length_a                   12.419(3)
_cell_length_b                   32.994(7)
_cell_length_c                   12.986(3)
_cell_angle_alpha                90
_cell_angle_beta                 94.89(3)
_cell_angle_gamma                90
_cell_volume                     5301.68
loop_
_atom_site_label
_atom_site_type_symbol
_atom_site_fract_x
_atom_site_fract_y
_atom_site_fract_z
Mn2 Mn 0.5000 -0.0000 0.0000
H13 H 0.0927 0.0520 0.0234
O19 O 0.2910(2) 0.07256(9) 0.06105(18)
O23 O 0.4256(3) 0.03084(10) 0.1167(2)
O25 O 0.6463(2) 0.02695(9) 0.0660(2)
Mn1 Mn 0.29819(3) 0.06987(2) 0.89931(3)
Mn2_2 Mn 0.5000 -0.0000 1.0000
O1 O 0.23089(19) 0.01417(7) 0.85451(19)
N1 N 0.1379(2) 0.10136(8) 0.8805(2)
N2 N 0.1190(2) 0.13329(9) 0.8155(2)
N3 N 0.2548(2) 0.12628(9) 0.6967(2)
N4 N 0.2986(2) 0.09005(9) 0.7277(2)
C2 C 0.0405(2) 0.08777(10) 0.9010(2)
C4 C 0.3316(3) 0.07284(11) 0.6428(3)
C12 C 0.3424(3) 0.06810(12) 0.2404(3)
C13 C 0.2589(3) 0.13209(12) 0.5937(3)
C14 C 0.0114(3) 0.14024(12) 0.7938(3)
C15 C 0.4165(3) 0.07078(15) 0.4186(3)
H6 H 0.4747 0.0656 0.4692
C17 C 0.2115(3) 0.15198(10) 0.7738(3)
H8 H 0.2683 0.1571 0.8306
H9 H 0.1898 0.1784 0.7422
C20 C 0.3538(3) 0.05600(11) 0.1297(3)
C21 C 0.3228(3) 0.08913(13) 0.4474(3)
C25 C 0.0300(3) 0.05273(12) 0.9722(3)
H11 H 0.0267 0.0275 0.9323
C26 C 0.3077(3) 0.09843(12) 0.5564(3)
C27 C 0.4257(3) 0.05995(14) 0.3163(3)
H14 H 0.4895 0.0469 0.2979
C29 C 0.2179(4) 0.17041(16) 0.5409(3)
H16 H 0.1403 0.1677 0.5206
H17 H 0.2565 0.1751 0.4793
H18 H 0.2300 0.1933 0.5885
C30 C 0.3839(4) 0.03207(13) 0.6483(3)
H19 H 0.4626 0.0353 0.6524
H20 H 0.3599 0.0165 0.5863
H21 H 0.3635 0.0177 0.7097
C31 C 0.2406(3) 0.09813(16) 0.3708(3)
H22 H 0.1771 0.1115 0.3890
C33 C 0.2503(3) 0.08785(15) 0.2682(3)
H23 H 0.1938 0.0943 0.2168
H30 H 0.0144 0.1745 0.6631
O17 O 0.44197(18) 0.11965(8) 0.9023(2)
O21 O 0.46836(17) 0.05359(7) 0.89538(18)
Mn2_3 Mn 0.5000 1.0000 0.0000
O11 O 0.55803(18) 0.88035(8) 0.0977(2)
O13 O 0.53164(17) 0.94641(7) 0.10462(18)
C53 C 0.4964(3) 0.90974(11) 0.1076(3)
C56 C 0.0420(3) 0.88858(10) 0.1518(3)
C57 C 0.3173(3) 0.93683(11) 0.1487(3)
H45 H 0.3488 0.9630 0.1568
C58 C 0.3807(3) 0.90360(11) 0.1269(3)
C59 C 0.2071(3) 0.93143(11) 0.1588(3)
H46 H 0.1640 0.9541 0.1738
C60 C 0.1597(3) 0.89344(11) 0.1471(3)
C61 C 0.3348(3) 0.86520(11) 0.1183(3)
H47 H 0.3786 0.8424 0.1060
C69 C 0.2246(3) 0.86008(12) 0.1276(3)
H51 H 0.1934 0.8338 0.1207
C77 C 0.0307(3) 0.82712(18) 0.2787(5)
H64 H 0.0288 0.8011 0.2422
H65 H 0.1053 0.8334 0.3045
Mn8 Mn 0.70181(3) 0.93013(2) 0.10069(3)
Mn13 Mn 0.5000 0.5000 0.0000
Mn2_4 Mn 0.5000 1.0000 1.0000
C3 C 0.2681(3) 0.97975(10) 0.8801(2)
C16 C 0.1147(3) 0.94802(11) 0.7698(3)
H7 H 0.0969 0.9740 0.7416
C18 C 0.0747(3) 0.87661(11) 0.7802(3)
C19 C 0.0055(3) 0.84057(11) 0.7525(3)
C23 C 0.0140(3) 0.81448(11) 0.6713(3)
C24 C 0.2019(3) 0.94379(10) 0.8421(3)
C28 C 0.0527(3) 0.91452(12) 0.7381(3)
C34 C 0.2249(4) 0.90566(12) 0.8839(3)
H24 H 0.2847 0.9023 0.9338
C35 C 0.0909(4) 0.81429(14) 0.5891(3)
H25 H 0.1372 0.7903 0.5971
H26 H 0.1358 0.8388 0.5951
H27 H 0.0503 0.8137 0.5210
C37 C 0.1617(4) 0.87254(12) 0.8537(4)
H31 H 0.1780 0.8468 0.8836
O6 O 0.3537(2) 0.97305(9) 0.9340(2)
O9 O 0.23089(19) 0.48583(7) 0.85451(19)
C41 C 0.2681(3) 0.52025(10) 0.8801(2)
C42 C 0.1147(3) 0.55198(11) 0.7698(3)
H35 H 0.0969 0.5260 0.7416
C43 C 0.0747(3) 0.62339(11) 0.7802(3)
C44 C 0.0055(3) 0.65943(11) 0.7525(3)
C45 C 0.0140(3) 0.68552(11) 0.6713(3)
C46 C 0.2019(3) 0.55621(10) 0.8421(3)
C47 C 0.0527(3) 0.58548(12) 0.7381(3)
C49 C 0.2249(4) 0.59434(12) 0.8839(3)
H37 H 0.2847 0.5977 0.9338
C50 C 0.0909(4) 0.68571(14) 0.5891(3)
H38 H 0.1372 0.7097 0.5971
H39 H 0.1358 0.6612 0.5951
H40 H 0.0503 0.6863 0.5210
C51 C 0.1617(4) 0.62746(12) 0.8537(4)
H41 H 0.1780 0.6532 0.8836
O10 O 0.3537(2) 0.52695(9) 0.9340(2)
H53 H 0.0362 0.9443 0.9925
Mn9 Mn 0.29819(3) 0.43013(2) 0.89931(3)
Mn13_2 Mn 0.5000 0.5000 1.0000
O24 O 0.5744(3) 0.96916(10) 0.8833(2)
H12 H 0.9638 0.0557 0.0075
C1 C 0.5036(3) 0.09026(11) 0.8924(3)
C5 C 0.9580(3) 0.11142(10) 0.8482(3)
C6 C 0.6827(3) 0.06317(11) 0.8513(3)
H1 H 0.6512 0.0370 0.8432
C7 C 0.6193(3) 0.09640(11) 0.8731(3)
C9 C 0.7929(3) 0.06857(11) 0.8412(3)
H4 H 0.8360 0.0459 0.8262
C10 C 0.8403(3) 0.10656(11) 0.8529(3)
C11 C 0.6652(3) 0.13480(11) 0.8817(3)
H5 H 0.6214 0.1576 0.8940
C22 C 0.7754(3) 0.13992(12) 0.8724(3)
H10 H 0.8066 0.1662 0.8793
C36 C 0.9693(3) 0.17288(18) 0.7213(5)
H28 H 0.9712 0.1989 0.7578
H29 H 0.8947 0.1666 0.6955
O8 O 0.8587(4) 0.7500 0.0139(4)
O12 O 0.7090(2) 0.92744(9) 0.93895(18)
N9 N 0.8621(2) 0.89864(8) 0.1195(2)
N10 N 0.8810(2) 0.86671(9) 0.1845(2)
N11 N 0.7452(2) 0.87372(9) 0.3033(2)
N12 N 0.7014(2) 0.90995(9) 0.2723(2)
C54 C 0.9595(2) 0.91223(10) 0.0990(2)
C55 C 0.6684(3) 0.92716(11) 0.3572(3)
C62 C 0.6576(3) 0.93190(12) 0.7596(3)
C63 C 0.7411(3) 0.86791(12) 0.4063(3)
C64 C 0.9886(3) 0.85976(12) 0.2062(3)
C65 C 0.5835(3) 0.92922(15) 0.5814(3)
H48 H 0.5253 0.9344 0.5308
C66 C 0.7885(3) 0.84802(10) 0.2262(3)
H49 H 0.7317 0.8429 0.1694
H50 H 0.8102 0.8216 0.2578
C67 C 0.6462(3) 0.94400(11) 0.8703(3)
C68 C 0.6772(3) 0.91087(13) 0.5526(3)
C70 C 0.9700(3) 0.94727(12) 0.0278(3)
H52 H 0.9733 0.9725 0.0677
C71 C 0.6923(3) 0.90157(12) 0.4436(3)
C72 C 0.5743(3) 0.94005(14) 0.6837(3)
H55 H 0.5105 0.9531 0.7021
C73 C 0.7821(4) 0.82959(16) 0.4591(3)
H56 H 0.8597 0.8323 0.4794
H57 H 0.7435 0.8249 0.5207
H58 H 0.7700 0.8067 0.4115
C74 C 0.6161(4) 0.96793(13) 0.3517(3)
H59 H 0.5374 0.9647 0.3476
H60 H 0.6401 0.9835 0.4137
H61 H 0.6365 0.9823 0.2903
C75 C 0.7594(3) 0.90187(16) 0.6292(3)
H62 H 0.8229 0.8885 0.6110
C76 C 0.7497(3) 0.91215(15) 0.7318(3)
H63 H 0.8062 0.9057 0.7832
H66 H 0.9856 0.8255 0.3369
O16 O 0.76911(19) 0.98583(7) 0.14549(19)
Mn3 Mn 0.76714(8) 0.7500 0.80881(9)
N5 N 0.9362(3) 0.78596(9) 0.6782(3)
C8 C 0.9154(5) 0.7500 0.6161(4)
H2 H 0.9622 0.7500 0.5581
H3 H 0.8392 0.7500 0.5867
N6 N 0.8790(3) 0.79232(10) 0.7618(3)
H15 H 0.9943 0.9177 0.6865
C32 C 0.9219(3) 0.82576(11) 0.8083(3)
C38 C 0.8881(5) 0.84250(15) 0.9071(4)
H32 H 0.8090 0.8430 0.9047
H33 H 0.9161 0.8701 0.9169
H34 H 0.9169 0.8254 0.9648
O7 O 0.6125(5) 0.8106(2) 0.8705(7)
C39 C 0.6736(6) 0.7883(2) 0.8457(7)
C40 C 0.8233(10) 0.7500 0.9445(8)
Br1 Br 0.65094(8) 0.7500 0.63497(9)
N7 N 0.9362(3) 0.71404(9) 0.6782(3)
N8 N 0.8790(3) 0.70768(10) 0.7618(3)
H36 H 0.9943 0.5823 0.6865
C48 C 0.9219(3) 0.67424(11) 0.8083(3)
C52 C 0.8881(5) 0.65750(15) 0.9071(4)
H42 H 0.8090 0.6570 0.9047
H43 H 0.9161 0.6299 0.9169
H44 H 0.9169 0.6746 0.9648
H54 H 0.9073 0.9480 0.9766
O15 O 0.6125(5) 0.6894(2) 0.8705(7)
C78 C 0.6736(6) 0.7117(2) 0.8457(7)
Mn3_2 Mn 0.23286(8) 0.2500 0.19119(9)
O2 O 0.55803(18) 0.61965(8) 0.0977(2)
O4 O 0.53164(17) 0.55359(7) 0.10462(18)
C1_2 C 0.4964(3) 0.59026(11) 0.1076(3)
C5_2 C 0.0420(3) 0.61142(10) 0.1518(3)
C6_2 C 0.3173(3) 0.56317(11) 0.1487(3)
H1_2 H 0.3488 0.5370 0.1568
C7_2 C 0.3807(3) 0.59640(11) 0.1269(3)
N5_2 N 0.0638(3) 0.28596(9) 0.3218(3)
C8_2 C 0.0846(5) 0.2500 0.3839(4)
H2_2 H 0.0378 0.2500 0.4419
H3_2 H 0.1608 0.2500 0.4133
N6_2 N 0.1210(3) 0.29232(10) 0.2382(3)
C9_2 C 0.2071(3) 0.56857(11) 0.1588(3)
H4_2 H 0.1640 0.5459 0.1738
C10_2 C 0.1597(3) 0.60656(11) 0.1471(3)
C11_2 C 0.3348(3) 0.63480(11) 0.1183(3)
H5_2 H 0.3786 0.6576 0.1060
C22_2 C 0.2246(3) 0.63992(12) 0.1276(3)
H10_2 H 0.1934 0.6662 0.1207
H15_2 H 0.0057 0.4177 0.3135
C32_2 C 0.0781(3) 0.32576(11) 0.1917(3)
C36_2 C 0.0307(3) 0.67288(18) 0.2787(5)
H28_2 H 0.0288 0.6989 0.2422
H29_2 H 0.1053 0.6666 0.3045
C38_2 C 0.1119(5) 0.34250(15) 0.0929(4)
H32_2 H 0.1910 0.3430 0.0953
H33_2 H 0.0839 0.3701 0.0831
H34_2 H 0.0831 0.3254 0.0352
O7_2 O 0.3875(5) 0.3106(2) 0.1295(7)
C39_2 C 0.3264(6) 0.2883(2) 0.1543(7)
C40_2 C 0.1767(10) 0.2500 0.0555(8)
Br1_2 Br 0.34906(8) 0.2500 0.36503(9)
N7_2 N 0.0638(3) 0.21404(9) 0.3218(3)
N8_2 N 0.1210(3) 0.20768(10) 0.2382(3)
H36_2 H 0.0057 0.0823 0.3135
C48_2 C 0.0781(3) 0.17424(11) 0.1917(3)
C52_2 C 0.1119(5) 0.15750(15) 0.0929(4)
H42_2 H 0.1910 0.1570 0.0953
H43_2 H 0.0839 0.1299 0.0831
H44_2 H 0.0831 0.1746 0.0352
H54_2 H 0.0927 0.4480 0.0234
O15_2 O 0.3875(5) 0.1894(2) 0.1295(7)
C78_2 C 0.3264(6) 0.2117(2) 0.1543(7)
Mn5 Mn 0.70181(3) 0.56987(2) 0.10069(3)
O20 O 0.2910(2) 0.42744(9) 0.06105(18)
H12_2 H 0.0362 0.5557 0.9925
O8_2 O 0.1413(4) 0.2500 0.9861(4)
N9_2 N 0.1379(2) 0.39864(8) 0.8805(2)
N10_2 N 0.1190(2) 0.36671(9) 0.8155(2)
N11_2 N 0.2548(2) 0.37372(9) 0.6967(2)
O14 O 0.4256(3) 0.46916(10) 0.1167(2)
N12_2 N 0.2986(2) 0.40995(9) 0.7277(2)
C54_2 C 0.0405(2) 0.41223(10) 0.9010(2)
C55_2 C 0.3316(3) 0.42716(11) 0.6428(3)
C62_2 C 0.3424(3) 0.43190(12) 0.2404(3)
C63_2 C 0.2589(3) 0.36791(12) 0.5937(3)
C64_2 C 0.0114(3) 0.35976(12) 0.7938(3)
C65_2 C 0.4165(3) 0.42922(15) 0.4186(3)
H48_2 H 0.4747 0.4344 0.4692
C66_2 C 0.2115(3) 0.34802(10) 0.7738(3)
H49_2 H 0.2683 0.3429 0.8306
H50_2 H 0.1898 0.3216 0.7422
C67_2 C 0.3538(3) 0.44400(11) 0.1297(3)
C68_2 C 0.3228(3) 0.41087(13) 0.4474(3)
C70_2 C 0.0300(3) 0.44727(12) 0.9722(3)
H52_2 H 0.0267 0.4725 0.9323
C71_2 C 0.3077(3) 0.40157(12) 0.5564(3)
C72_2 C 0.4257(3) 0.44005(14) 0.3163(3)
H55_2 H 0.4895 0.4531 0.2979
C73_2 C 0.2179(4) 0.32959(16) 0.5409(3)
H56_2 H 0.1403 0.3323 0.5206
H57_2 H 0.2565 0.3249 0.4793
H58_2 H 0.2300 0.3067 0.5885
C74_2 C 0.3839(4) 0.46793(13) 0.6483(3)
H59_2 H 0.4626 0.4647 0.6524
H60_2 H 0.3599 0.4835 0.5863
H61_2 H 0.3635 0.4823 0.7097
C75_2 C 0.2406(3) 0.40187(16) 0.3708(3)
H62_2 H 0.1771 0.3885 0.3890
C76_2 C 0.2503(3) 0.41215(15) 0.2682(3)
H63_2 H 0.1938 0.4057 0.2168
H66_2 H 0.0144 0.3255 0.6631
O18 O 0.44197(18) 0.38035(8) 0.9023(2)
O22 O 0.46836(17) 0.44641(7) 0.89538(18)
O1_2 O 0.76911(19) 0.51417(7) 0.14549(19)
O3 O 0.7090(2) 0.57256(9) 0.93895(18)
N1_2 N 0.8621(2) 0.60136(8) 0.1195(2)
N2_2 N 0.8810(2) 0.63329(9) 0.1845(2)
N3_2 N 0.7452(2) 0.62628(9) 0.3033(2)
O5 O 0.5744(3) 0.53084(10) 0.8833(2)
N4_2 N 0.7014(2) 0.59005(9) 0.2723(2)
C2_2 C 0.9595(2) 0.58777(10) 0.0990(2)
C3_2 C 0.7319(3) 0.47975(10) 0.1199(2)
C4_2 C 0.6684(3) 0.57284(11) 0.3572(3)
C12_2 C 0.6576(3) 0.56810(12) 0.7596(3)
C13_2 C 0.7411(3) 0.63209(12) 0.4063(3)
C14_2 C 0.9886(3) 0.64024(12) 0.2062(3)
C15_2 C 0.5835(3) 0.57078(15) 0.5814(3)
H6_2 H 0.5253 0.5656 0.5308
C16_2 C 0.8853(3) 0.44802(11) 0.2302(3)
H7_2 H 0.9031 0.4740 0.2584
C17_2 C 0.7885(3) 0.65198(10) 0.2262(3)
H8_2 H 0.7317 0.6571 0.1694
H9_2 H 0.8102 0.6784 0.2578
C18_2 C 0.9253(3) 0.37661(11) 0.2198(3)
C19_2 C 0.9945(3) 0.34057(11) 0.2475(3)
C20_2 C 0.6462(3) 0.55600(11) 0.8703(3)
C21_2 C 0.6772(3) 0.58913(13) 0.5526(3)
C23_2 C 0.9860(3) 0.31448(11) 0.3287(3)
C24_2 C 0.7981(3) 0.44379(10) 0.1579(3)
C25_2 C 0.9700(3) 0.55273(12) 0.0278(3)
H11_2 H 0.9733 0.5275 0.0677
C26_2 C 0.6923(3) 0.59843(12) 0.4436(3)
C27_2 C 0.5743(3) 0.55995(14) 0.6837(3)
H14_2 H 0.5105 0.5469 0.7021
C28_2 C 0.9473(3) 0.41452(12) 0.2619(3)
C29_2 C 0.7821(4) 0.67041(16) 0.4591(3)
H16_2 H 0.8597 0.6677 0.4794
H17_2 H 0.7435 0.6751 0.5207
H18_2 H 0.7700 0.6933 0.4115
C30_2 C 0.6161(4) 0.53207(13) 0.3517(3)
H19_2 H 0.5374 0.5353 0.3476
H20_2 H 0.6401 0.5165 0.4137
H21_2 H 0.6365 0.5177 0.2903
C31_2 C 0.7594(3) 0.59813(16) 0.6292(3)
H22_2 H 0.8229 0.6115 0.6110
C33_2 C 0.7497(3) 0.58785(15) 0.7318(3)
H23_2 H 0.8062 0.5943 0.7832
C34_2 C 0.7751(4) 0.40566(12) 0.1161(3)
H24_2 H 0.7153 0.4023 0.0662
C35_2 C 0.9091(4) 0.31429(14) 0.4109(3)
H25_2 H 0.8628 0.2903 0.4029
H26_2 H 0.8642 0.3388 0.4049
H27_2 H 0.9497 0.3137 0.4790
H30_2 H 0.9856 0.6745 0.3369
C37_2 C 0.8383(4) 0.37254(12) 0.1463(4)
H31_2 H 0.8220 0.3468 0.1164
O6_2 O 0.6463(2) 0.47305(9) 0.0660(2)
C41_2 C 0.7319(3) 0.02025(10) 0.1199(2)
C42_2 C 0.8853(3) 0.05198(11) 0.2302(3)
H35_2 H 0.9031 0.0260 0.2584
C43_2 C 0.9253(3) 0.12339(11) 0.2198(3)
C44_2 C 0.9945(3) 0.15943(11) 0.2475(3)
C45_2 C 0.9860(3) 0.18552(11) 0.3287(3)
C46_2 C 0.7981(3) 0.05621(10) 0.1579(3)
C47_2 C 0.9473(3) 0.08548(12) 0.2619(3)
C49_2 C 0.7751(4) 0.09434(12) 0.1161(3)
H37_2 H 0.7153 0.0977 0.0662
C50_2 C 0.9091(4) 0.18571(14) 0.4109(3)
H38_2 H 0.8628 0.2097 0.4029
H39_2 H 0.8642 0.1612 0.4049
H40_2 H 0.9497 0.1863 0.4790
C51_2 C 0.8383(4) 0.12746(12) 0.1463(4)
H41_2 H 0.8220 0.1532 0.1164
H53_2 H 0.9638 0.4443 0.0075
H13_2 H 0.9073 0.5520 0.9766
C53_2 C 0.5036(3) 0.40974(11) 0.8924(3)
C56_2 C 0.9580(3) 0.38858(10) 0.8482(3)
C57_2 C 0.6827(3) 0.43683(11) 0.8513(3)
H45_2 H 0.6512 0.4630 0.8432
C58_2 C 0.6193(3) 0.40360(11) 0.8731(3)
C59_2 C 0.7929(3) 0.43143(11) 0.8412(3)
H46_2 H 0.8360 0.4541 0.8262
C60_2 C 0.8403(3) 0.39344(11) 0.8529(3)
C61_2 C 0.6652(3) 0.36520(11) 0.8817(3)
H47_2 H 0.6214 0.3424 0.8940
C69_2 C 0.7754(3) 0.36008(12) 0.8724(3)
H51_2 H 0.8066 0.3338 0.8793
C77_2 C 0.9693(3) 0.32712(18) 0.7213(5)
H64_2 H 0.9712 0.3011 0.7578
H65_2 H 0.8947 0.3334 0.6955
Br2 Br 0.1192(4) 0.2500 0.6614(3)
Br2_2 Br 0.8808(4) 0.7500 0.3386(3)
loop_
_geom_bond_atom_site_label_1
_geom_bond_atom_site_label_2
_geom_bond_site_symmetry_1
_geom_bond_site_symmetry_2
O23 Mn2 1_555 1_555
O25 Mn2 1_555 1_555
Mn1 O1 1_555 1_555
O19 C20 1_555 1_555
N1 Mn1 1_555 1_555
N2 N1 1_555 1_555
N3 N4 1_555 1_555
O23 C20 1_555 1_555
N4 Mn1 1_555 1_555
C2 N1 1_555 1_555
C4 N4 1_555 1_555
C12 C20 1_555 1_555
C13 N3 1_555 1_555
C14 N2 1_555 1_555
C15 H6 1_555 1_555
C17 N2 1_555 1_555
H8 C17 1_555 1_555
H9 C17 1_555 1_555
C21 C15 1_555 1_555
C25 C2 1_555 1_555
H11 C25 1_555 1_555
C26 C4 1_555 1_555
C27 C12 1_555 1_555
H14 C27 1_555 1_555
C29 C13 1_555 1_555
H16 C29 1_555 1_555
H17 C29 1_555 1_555
H18 C29 1_555 1_555
C30 C4 1_555 1_555
H19 C30 1_555 1_555
H20 C30 1_555 1_555
H21 C30 1_555 1_555
C31 C21 1_555 1_555
H22 C31 1_555 1_555
C33 C12 1_555 1_555
H23 C33 1_555 1_555
O17 Mn1 1_555 1_555
O21 Mn1 1_555 1_555
Mn2_2 O21 1_555 1_555
N3 C17 1_555 1_555
C13 C26 1_555 1_555
C15 C27 1_555 1_555
C21 C26 1_555 1_555
C31 C33 1_555 1_555
O11 C53 1_555 1_555
O13 Mn2_3 1_555 1_555
C53 O13 1_555 1_555
C57 H45 1_555 1_555
C58 C53 1_555 1_555
C59 C57 1_555 1_555
H46 C59 1_555 1_555
C60 C56 1_555 1_555
C61 C58 1_555 1_555
H47 C61 1_555 1_555
C69 C60 1_555 1_555
H51 C69 1_555 1_555
H64 C77 1_555 1_555
H65 C77 1_555 1_555
Mn8 O11 1_555 1_555
O13 Mn8 1_555 1_555
C57 C58 1_555 1_555
C59 C60 1_555 1_555
C61 C69 1_555 1_555
Mn2_4 O6 1_555 1_555
C3 C24 1_555 1_555
C16 H7 1_555 1_555
C18 C19 1_555 1_555
C19 C23 1_555 1_555
C24 C16 1_555 1_555
C28 C16 1_555 1_555
C34 C24 1_555 1_555
H24 C34 1_555 1_555
C35 C23 1_555 1_555
H25 C35 1_555 1_555
H26 C35 1_555 1_555
H27 C35 1_555 1_555
C37 C18 1_555 1_555
H31 C37 1_555 1_555
O6 C3 1_555 1_555
O9 C41 1_555 1_555
C41 C46 1_555 1_555
C42 H35 1_555 1_555
C43 C44 1_555 1_555
C44 C45 1_555 1_555
C46 C42 1_555 1_555
C47 C42 1_555 1_555
C49 C46 1_555 1_555
H37 C49 1_555 1_555
C50 C45 1_555 1_555
H38 C50 1_555 1_555
H39 C50 1_555 1_555
H40 C50 1_555 1_555
C51 C43 1_555 1_555
H41 C51 1_555 1_555
O10 C41 1_555 1_555
Mn9 O9 1_555 1_555
Mn13_2 O10 1_555 1_555
O24 Mn2_4 1_555 1_555
C18 C28 1_555 1_555
C34 C37 1_555 1_555
C43 C47 1_555 1_555
C49 C51 1_555 1_555
O17 C1 1_555 1_555
O21 C1 1_555 1_555
C1 C7 1_555 1_555
C6 H1 1_555 1_555
C7 C6 1_555 1_555
C9 C6 1_555 1_555
H4 C9 1_555 1_555
C10 C5 1_555 1_555
C11 C7 1_555 1_555
H5 C11 1_555 1_555
C22 C10 1_555 1_555
H10 C22 1_555 1_555
H28 C36 1_555 1_555
H29 C36 1_555 1_555
C9 C10 1_555 1_555
C11 C22 1_555 1_555
Mn8 N9 1_555 1_555
O12 C67 1_555 1_555
N9 N10 1_555 1_555
N10 C64 1_555 1_555
N11 N12 1_555 1_555
O24 C67 1_555 1_555
N12 Mn8 1_555 1_555
C54 N9 1_555 1_555
C55 N12 1_555 1_555
C62 C67 1_555 1_555
C63 N11 1_555 1_555
C65 H48 1_555 1_555
C66 N10 1_555 1_555
H49 C66 1_555 1_555
H50 C66 1_555 1_555
C68 C65 1_555 1_555
C70 C54 1_555 1_555
H52 C70 1_555 1_555
C71 C55 1_555 1_555
C72 C62 1_555 1_555
H55 C72 1_555 1_555
C73 C63 1_555 1_555
H56 C73 1_555 1_555
H57 C73 1_555 1_555
H58 C73 1_555 1_555
C74 C55 1_555 1_555
H59 C74 1_555 1_555
H60 C74 1_555 1_555
H61 C74 1_555 1_555
C75 C68 1_555 1_555
H62 C75 1_555 1_555
C76 C62 1_555 1_555
H63 C76 1_555 1_555
O16 Mn8 1_555 1_555
N11 C66 1_555 1_555
C63 C71 1_555 1_555
C65 C72 1_555 1_555
C68 C71 1_555 1_555
C75 C76 1_555 1_555
Mn3 N6 1_555 1_555
N5 C8 1_555 1_555
C8 H2 1_555 1_555
H3 C8 1_555 1_555
N6 N5 1_555 1_555
C32 N6 1_555 1_555
C38 C32 1_555 1_555
H32 C38 1_555 1_555
H33 C38 1_555 1_555
H34 C38 1_555 1_555
O7 C39 1_555 1_555
C39 Mn3 1_555 1_555
C40 Mn3 1_555 1_555
Br1 Mn3 1_555 1_555
N7 C8 1_555 1_555
N8 Mn3 1_555 1_555
C48 N8 1_555 1_555
C52 C48 1_555 1_555
H42 C52 1_555 1_555
H43 C52 1_555 1_555
H44 C52 1_555 1_555
O15 C78 1_555 1_555
C78 Mn3 1_555 1_555
N7 N8 1_555 1_555
Mn3_2 N6_2 1_555 1_555
O2 C1_2 1_555 1_555
O4 C1_2 1_555 1_555
C1_2 C7_2 1_555 1_555
C6_2 H1_2 1_555 1_555
C7_2 C6_2 1_555 1_555
N5_2 C8_2 1_555 1_555
C8_2 H2_2 1_555 1_555
H3_2 C8_2 1_555 1_555
N6_2 N5_2 1_555 1_555
C9_2 C6_2 1_555 1_555
H4_2 C9_2 1_555 1_555
C10_2 C5_2 1_555 1_555
C11_2 C7_2 1_555 1_555
H5_2 C11_2 1_555 1_555
C22_2 C10_2 1_555 1_555
H10_2 C22_2 1_555 1_555
C32_2 N6_2 1_555 1_555
H28_2 C36_2 1_555 1_555
H29_2 C36_2 1_555 1_555
C38_2 C32_2 1_555 1_555
H32_2 C38_2 1_555 1_555
H33_2 C38_2 1_555 1_555
H34_2 C38_2 1_555 1_555
O7_2 C39_2 1_555 1_555
C39_2 Mn3_2 1_555 1_555
C40_2 Mn3_2 1_555 1_555
Br1_2 Mn3_2 1_555 1_555
N7_2 C8_2 1_555 1_555
N8_2 Mn3_2 1_555 1_555
C48_2 N8_2 1_555 1_555
C52_2 C48_2 1_555 1_555
H42_2 C52_2 1_555 1_555
H43_2 C52_2 1_555 1_555
H44_2 C52_2 1_555 1_555
O15_2 C78_2 1_555 1_555
C78_2 Mn3_2 1_555 1_555
Mn5 O2 1_555 1_555
Mn13 O4 1_555 1_555
O4 Mn5 1_555 1_555
C9_2 C10_2 1_555 1_555
C11_2 C22_2 1_555 1_555
N7_2 N8_2 1_555 1_555
Mn9 N9_2 1_555 1_555
O20 C67_2 1_555 1_555
N9_2 N10_2 1_555 1_555
N10_2 C64_2 1_555 1_555
N11_2 N12_2 1_555 1_555
O14 C67_2 1_555 1_555
N12_2 Mn9 1_555 1_555
C54_2 N9_2 1_555 1_555
C55_2 N12_2 1_555 1_555
C62_2 C67_2 1_555 1_555
C63_2 N11_2 1_555 1_555
C65_2 H48_2 1_555 1_555
C66_2 N10_2 1_555 1_555
H49_2 C66_2 1_555 1_555
H50_2 C66_2 1_555 1_555
C68_2 C65_2 1_555 1_555
C70_2 C54_2 1_555 1_555
H52_2 C70_2 1_555 1_555
C71_2 C55_2 1_555 1_555
C72_2 C62_2 1_555 1_555
H55_2 C72_2 1_555 1_555
C73_2 C63_2 1_555 1_555
H56_2 C73_2 1_555 1_555
H57_2 C73_2 1_555 1_555
H58_2 C73_2 1_555 1_555
C74_2 C55_2 1_555 1_555
H59_2 C74_2 1_555 1_555
H60_2 C74_2 1_555 1_555
H61_2 C74_2 1_555 1_555
C75_2 C68_2 1_555 1_555
H62_2 C75_2 1_555 1_555
C76_2 C62_2 1_555 1_555
H63_2 C76_2 1_555 1_555
Mn13 O14 1_555 1_555
O18 Mn9 1_555 1_555
O22 Mn9 1_555 1_555
N11_2 C66_2 1_555 1_555
C63_2 C71_2 1_555 1_555
C65_2 C72_2 1_555 1_555
C68_2 C71_2 1_555 1_555
C75_2 C76_2 1_555 1_555
Mn13_2 O22 1_555 1_555
Mn5 O1_2 1_555 1_555
Mn13 O6_2 1_555 1_555
O1_2 C3_2 1_555 1_555
O3 C20_2 1_555 1_555
N1_2 Mn5 1_555 1_555
N2_2 N1_2 1_555 1_555
N3_2 N4_2 1_555 1_555
O5 C20_2 1_555 1_555
N4_2 Mn5 1_555 1_555
C2_2 N1_2 1_555 1_555
C3_2 C24_2 1_555 1_555
C4_2 N4_2 1_555 1_555
C12_2 C20_2 1_555 1_555
C13_2 N3_2 1_555 1_555
C14_2 N2_2 1_555 1_555
C15_2 H6_2 1_555 1_555
C16_2 H7_2 1_555 1_555
C17_2 N2_2 1_555 1_555
H8_2 C17_2 1_555 1_555
H9_2 C17_2 1_555 1_555
C18_2 C19_2 1_555 1_555
C19_2 C23_2 1_555 1_555
C21_2 C15_2 1_555 1_555
C24_2 C16_2 1_555 1_555
C25_2 C2_2 1_555 1_555
H11_2 C25_2 1_555 1_555
C26_2 C4_2 1_555 1_555
C27_2 C12_2 1_555 1_555
H14_2 C27_2 1_555 1_555
C28_2 C16_2 1_555 1_555
C29_2 C13_2 1_555 1_555
H16_2 C29_2 1_555 1_555
H17_2 C29_2 1_555 1_555
H18_2 C29_2 1_555 1_555
C30_2 C4_2 1_555 1_555
H19_2 C30_2 1_555 1_555
H20_2 C30_2 1_555 1_555
H21_2 C30_2 1_555 1_555
C31_2 C21_2 1_555 1_555
H22_2 C31_2 1_555 1_555
C33_2 C12_2 1_555 1_555
H23_2 C33_2 1_555 1_555
C34_2 C24_2 1_555 1_555
H24_2 C34_2 1_555 1_555
C35_2 C23_2 1_555 1_555
H25_2 C35_2 1_555 1_555
H26_2 C35_2 1_555 1_555
H27_2 C35_2 1_555 1_555
C37_2 C18_2 1_555 1_555
H31_2 C37_2 1_555 1_555
O6_2 C3_2 1_555 1_555
C41_2 C46_2 1_555 1_555
C42_2 H35_2 1_555 1_555
C43_2 C44_2 1_555 1_555
C44_2 C45_2 1_555 1_555
C46_2 C42_2 1_555 1_555
C47_2 C42_2 1_555 1_555
C49_2 C46_2 1_555 1_555
H37_2 C49_2 1_555 1_555
C50_2 C45_2 1_555 1_555
H38_2 C50_2 1_555 1_555
H39_2 C50_2 1_555 1_555
H40_2 C50_2 1_555 1_555
C51_2 C43_2 1_555 1_555
H41_2 C51_2 1_555 1_555
O25 C41_2 1_555 1_555
Mn13_2 O5 1_555 1_555
N3_2 C17_2 1_555 1_555
C13_2 C26_2 1_555 1_555
C15_2 C27_2 1_555 1_555
C18_2 C28_2 1_555 1_555
C21_2 C26_2 1_555 1_555
C31_2 C33_2 1_555 1_555
C34_2 C37_2 1_555 1_555
C43_2 C47_2 1_555 1_555
C49_2 C51_2 1_555 1_555
O18 C53_2 1_555 1_555
C53_2 O22 1_555 1_555
C57_2 H45_2 1_555 1_555
C58_2 C53_2 1_555 1_555
C59_2 C57_2 1_555 1_555
H46_2 C59_2 1_555 1_555
C60_2 C56_2 1_555 1_555
C61_2 C58_2 1_555 1_555
H47_2 C61_2 1_555 1_555
C69_2 C60_2 1_555 1_555
H51_2 C69_2 1_555 1_555
H64_2 C77_2 1_555 1_555
H65_2 C77_2 1_555 1_555
C57_2 C58_2 1_555 1_555
C59_2 C60_2 1_555 1_555
C61_2 C69_2 1_555 1_555

#END
