
###############################################################################
#
# This file contains modified crystal structure data generated from the
# MOF subset of the Cambridge Structural Database (CSD) v543 
# hosted by the Cambridge Crystallographic Data Centre (CCDC).
#
# This work is licensed under the Creative Commons
# Attribution-NonCommercial-ShareAlike 4.0 International License.
# To view a copy of this license, visit
# http://creativecommons.org/licenses/by-nc-sa/4.0/
# or send a letter to
# Creative Commons, PO Box 1866, Mountain View, CA 94042, USA.
#
# CIF created using the CSD Python API on 29 September 2022
# The structure has been converted into the P1 space group
# The structure has a 3D framework
# The original CSD entry BOMXAF is in the monoclinic crystal system
# The framework has been calculated to contain at least 10.0% void space
# The void calculation uses a probe of radius 1.32A, grid spacing 0.4
#
###############################################################################

data_BOMXAF
_chemical_formula_moiety         '(C184 H232 Eu32 O236 S24)n'
_symmetry_cell_setting           triclinic
_symmetry_space_group_name_H-M   'P 1'
_symmetry_Int_Tables_number      1
_space_group_name_Hall           'P 1'
loop_
_symmetry_equiv_pos_site_id
_symmetry_equiv_pos_as_xyz
1 x,y,z
_cell_length_a                   23.292(3)
_cell_length_b                   13.4630(15)
_cell_length_c                   30.071(4)
_cell_angle_alpha                90
_cell_angle_beta                 109.8870(10)
_cell_angle_gamma                90
_cell_volume                     8867.33
loop_
_atom_site_label
_atom_site_type_symbol
_atom_site_fract_x
_atom_site_fract_y
_atom_site_fract_z
H42 H 0.730504 0.093035 0.009201
Eu3 Eu 0.24597(2) 0.03916(2) 0.66025(2)
S3 S 0.43231(6) 0.21111(12) 0.90102(5)
O8 O 0.23082(19) 0.1408(3) 0.72158(15)
H5 H 0.211871 0.130703 0.737224
H6 H 0.254071 0.184773 0.739694
O10 O 0.13894(17) 0.0866(3) 0.62353(15)
H7 H 0.106228 0.054835 0.607945
H8 H 0.123048 0.139745 0.608525
O12 O 0.2782(2) 0.0740(3) 0.51964(14)
H9 H 0.291406 0.127335 0.535539
H10 H 0.269496 0.093035 0.490799
O14 O 0.1534(2) 0.0057(4) 0.51817(16)
H12 H 0.145522 0.058339 0.500933
O18 O 0.4306(2) 0.1104(4) 0.91812(16)
O19 O 0.47648(19) 0.2720(4) 0.93493(16)
O20 O 0.37166(16) 0.2546(3) 0.88413(13)
O21 O 0.33982(15) 0.1144(2) 0.70929(13)
O22 O 0.41885(15) 0.0146(3) 0.71836(13)
O29 O 0.30985(14) 0.0046(2) 0.61311(11)
H17 H 0.330040 0.058426 0.605761
C15 C 0.3939(2) 0.0892(3) 0.72910(17)
C16 C 0.4335(2) 0.1486(3) 0.77037(17)
C17 C 0.4163(2) 0.1588(4) 0.80955(18)
H25 H 0.378037 0.136667 0.808564
C18 C 0.4557(2) 0.2020(4) 0.85074(18)
C19 C 0.5134(2) 0.2346(4) 0.85303(19)
H26 H 0.540451 0.260902 0.880909
C20 C 0.5297(2) 0.2272(4) 0.81314(19)
H27 H 0.567508 0.251529 0.814073
C21 C 0.4914(2) 0.1844(3) 0.77166(17)
S4 S 0.56769(6) 0.21111(12) 0.59898(5)
O31 O 0.5694(2) 0.1104(4) 0.58188(16)
O32 O 0.52352(19) 0.2720(4) 0.56507(16)
O33 O 0.62834(16) 0.2546(3) 0.61587(13)
O34 O 0.66018(15) 0.1144(2) 0.79071(13)
O35 O 0.58115(15) 0.0146(3) 0.78164(13)
C24 C 0.6061(2) 0.0892(3) 0.77090(17)
C25 C 0.5665(2) 0.1486(3) 0.72963(17)
C26 C 0.5837(2) 0.1588(4) 0.69045(18)
H30 H 0.621963 0.136667 0.691436
C27 C 0.5443(2) 0.2020(4) 0.64926(18)
C28 C 0.4866(2) 0.2346(4) 0.64697(19)
H31 H 0.459549 0.260902 0.619091
C29 C 0.4703(2) 0.2272(4) 0.68686(19)
H32 H 0.432492 0.251529 0.685927
C30 C 0.5086(2) 0.1844(3) 0.72834(17)
Eu7 Eu 0.75403(2) 0.03916(2) 0.83975(2)
O43 O 0.76918(19) 0.1408(3) 0.77842(15)
H37 H 0.788129 0.130703 0.762776
H38 H 0.745929 0.184773 0.760306
O45 O 0.86106(17) 0.0866(3) 0.87647(15)
H39 H 0.893772 0.054835 0.892055
H40 H 0.876952 0.139745 0.891475
O47 O 0.7218(2) 0.0740(3) 0.98036(14)
H41 H 0.708594 0.127335 0.964461
O49 O 0.8466(2) 0.0057(4) 0.98183(16)
H44 H 0.854478 0.058339 0.999067
O59 O 0.69015(14) 0.0046(2) 0.88689(11)
H49 H 0.669960 0.058426 0.894239
Eu10 Eu 0.73961(2) 0.25970(2) 0.65177(2)
Eu12 Eu 0.26039(2) 0.25970(2) 0.84823(2)
O61 O 0.23991(16) 0.1932(2) 0.61720(12)
O62 O 0.76009(16) 0.1932(2) 0.88280(12)
O51 O 0.78444(17) 0.9279(3) 0.04118(13)
H45 H 0.762458 0.919469 0.058781
H46 H 0.821328 0.907219 0.054831
O55 O 0.83437(17) 0.6346(3) 0.02302(13)
Eu18 Eu 0.74796(2) 0.58635(2) 0.04364(2)
Eu1 Eu 0.23961(2) 0.75970(2) 0.65177(2)
Eu2 Eu 0.38915(2) 0.89146(2) 0.65843(2)
Eu4 Eu 0.24796(2) 0.91365(2) 0.54364(2)
S1 S 0.55140(6) 0.67579(10) 0.89177(4)
S2 S 0.27032(6) 0.27048(9) 0.59970(4)
O1 O 0.55861(18) 0.7765(3) 0.87691(13)
O2 O 0.5301(2) 0.6740(4) 0.93075(16)
O3 O 0.6068(2) 0.6192(4) 0.89930(19)
O4 O 0.50174(16) 0.9176(3) 0.69116(14)
H1 H 0.521816 0.953081 0.715211
H2 H 0.524656 0.915881 0.673981
O5 O 0.2273(2) 0.3329(3) 0.56511(13)
O6 O 0.42258(16) 0.9807(3) 0.59708(15)
H3 H 0.401182 0.967359 0.568031
H4 H 0.462312 0.963339 0.599561
O7 O 0.3175(2) 0.2290(3) 0.58368(16)
O11 O 0.32563(14) 0.6757(2) 0.70751(12)
O13 O 0.41057(15) 0.7578(3) 0.71252(12)
H11 H 0.122392 0.971109 0.518333
O15 O 0.29038(15) 0.2930(2) 0.78042(12)
O16 O 0.21556(17) 0.9279(3) 0.45882(13)
H13 H 0.237542 0.919469 0.441219
H14 H 0.178672 0.907219 0.445169
O17 O 0.31070(15) 0.4515(2) 0.79946(13)
O23 O 0.23041(18) 0.6108(3) 0.60468(14)
O24 O 0.20639(16) 0.5835(3) 0.66817(13)
O25 O 0.16563(17) 0.6346(3) 0.47698(13)
O26 O 0.18853(19) 0.7713(3) 0.52074(15)
O27 O 0.30532(14) 0.7983(2) 0.60717(11)
H15 H 0.315807 0.742682 0.593264
O28 O 0.20463(15) 0.9068(2) 0.60607(11)
H16 H 0.162417 0.899399 0.595491
O30 O 0.30550(14) 0.8948(2) 0.68894(11)
H18 H 0.315062 0.899400 0.721529
C1 C 0.3821(2) 0.6909(3) 0.72522(17)
C2 C 0.4185(2) 0.6248(4) 0.76580(17)
C3 C 0.4629(2) 0.6714(4) 0.80354(17)
H19 H 0.470762 0.738807 0.801851
C4 C 0.4952(2) 0.6179(4) 0.84323(17)
C5 C 0.4849(2) 0.5163(4) 0.84624(17)
H20 H 0.506282 0.480601 0.873292
C6 C 0.4424(2) 0.4699(4) 0.80847(18)
H21 H 0.436434 0.401860 0.809838
C7 C 0.4081(2) 0.5226(3) 0.76799(16)
C8 C 0.3685(2) 0.4647(3) 0.72665(17)
C9 C 0.3789(2) 0.4748(4) 0.68383(18)
H22 H 0.406806 0.522263 0.681608
C10 C 0.3497(2) 0.4176(4) 0.64477(18)
H23 H 0.357702 0.425734 0.616733
C11 C 0.3079(2) 0.3472(3) 0.64840(17)
C12 C 0.2957(2) 0.3358(3) 0.69019(17)
H24 H 0.267324 0.288749 0.691859
C13 C 0.3255(2) 0.3938(3) 0.72973(16)
C14 C 0.3079(2) 0.3787(3) 0.77305(16)
C22 C 0.2123(2) 0.5549(4) 0.6305(2)
H28 H 0.202757 0.489271 0.621163
C23 C 0.1551(2) 0.7016(4) 0.50165(19)
H29 H 0.117582 0.698630 0.506179
Eu5 Eu 0.76039(2) 0.75970(2) 0.84823(2)
Eu6 Eu 0.61085(2) 0.89146(2) 0.84157(2)
Eu8 Eu 0.75204(2) 0.91365(2) 0.95636(2)
S5 S 0.44860(6) 0.67579(10) 0.60823(4)
S6 S 0.72968(6) 0.27048(9) 0.90030(4)
O36 O 0.44139(18) 0.7765(3) 0.62309(13)
O37 O 0.4699(2) 0.6740(4) 0.56925(16)
O38 O 0.3932(2) 0.6192(4) 0.60070(19)
O39 O 0.49826(16) 0.9176(3) 0.80884(14)
H33 H 0.478184 0.953081 0.784789
H34 H 0.475344 0.915881 0.826019
O40 O 0.7727(2) 0.3329(3) 0.93489(13)
O41 O 0.57742(16) 0.9807(3) 0.90292(15)
H35 H 0.598818 0.967359 0.931969
H36 H 0.537688 0.963339 0.900439
O42 O 0.6825(2) 0.2290(3) 0.91632(16)
O46 O 0.67437(14) 0.6757(2) 0.79249(12)
O48 O 0.58943(15) 0.7578(3) 0.78748(12)
H43 H 0.877608 0.971109 0.981667
O50 O 0.70962(15) 0.2930(2) 0.71958(12)
O52 O 0.68930(15) 0.4515(2) 0.70054(13)
O53 O 0.76959(18) 0.6108(3) 0.89532(14)
O54 O 0.79361(16) 0.5835(3) 0.83183(13)
O56 O 0.81147(19) 0.7713(3) 0.97926(15)
O57 O 0.69468(14) 0.7983(2) 0.89283(11)
H47 H 0.684193 0.742682 0.906736
O58 O 0.79537(15) 0.9068(2) 0.89393(11)
H48 H 0.837583 0.899399 0.904509
O60 O 0.69450(14) 0.8948(2) 0.81106(11)
H50 H 0.684938 0.899400 0.778471
C31 C 0.6179(2) 0.6909(3) 0.77478(17)
C32 C 0.5815(2) 0.6248(4) 0.73420(17)
C33 C 0.5371(2) 0.6714(4) 0.69646(17)
H51 H 0.529238 0.738807 0.698149
C34 C 0.5048(2) 0.6179(4) 0.65677(17)
C35 C 0.5151(2) 0.5163(4) 0.65376(17)
H52 H 0.493718 0.480601 0.626708
C36 C 0.5576(2) 0.4699(4) 0.69153(18)
H53 H 0.563566 0.401860 0.690162
C37 C 0.5919(2) 0.5226(3) 0.73201(16)
C38 C 0.6315(2) 0.4647(3) 0.77335(17)
C39 C 0.6211(2) 0.4748(4) 0.81617(18)
H54 H 0.593194 0.522263 0.818392
C40 C 0.6503(2) 0.4176(4) 0.85523(18)
H55 H 0.642298 0.425734 0.883267
C41 C 0.6921(2) 0.3472(3) 0.85160(17)
C42 C 0.7043(2) 0.3358(3) 0.80981(17)
H56 H 0.732676 0.288749 0.808141
C43 C 0.6745(2) 0.3938(3) 0.77027(16)
C44 C 0.6921(2) 0.3787(3) 0.72695(16)
C45 C 0.7877(2) 0.5549(4) 0.8695(2)
H57 H 0.797243 0.489271 0.878837
C46 C 0.8449(2) 0.7016(4) 0.99835(19)
H58 H 0.882418 0.698630 0.993821
Eu15 Eu 0.74597(2) 0.53916(2) 0.66025(2)
Eu16 Eu 0.25403(2) 0.53916(2) 0.83975(2)
Eu17 Eu 0.25204(2) 0.58635(2) 0.45636(2)
O63 O 0.79038(15) 0.7930(2) 0.78042(12)
O64 O 0.20962(15) 0.7930(2) 0.71958(12)
O65 O 0.81070(15) 0.9515(2) 0.79946(13)
O66 O 0.18930(15) 0.9515(2) 0.70054(13)
O67 O 0.87166(16) 0.7546(3) 0.88413(13)
O68 O 0.12834(16) 0.7546(3) 0.61587(13)
O69 O 0.33437(17) 0.8654(3) 0.52302(13)
O70 O 0.66563(17) 0.8654(3) 0.97698(13)
H42_2 H 0.230504 0.593035 0.009201
O51_2 O 0.28444(17) 0.4279(3) 0.04118(13)
H45_2 H 0.262458 0.419469 0.058781
H46_2 H 0.321328 0.407219 0.054831
O55_2 O 0.33437(17) 0.1346(3) 0.02302(13)
Eu18_2 Eu 0.24796(2) 0.08635(2) 0.04364(2)
S1_2 S 0.05140(6) 0.17579(10) 0.89177(4)
O1_2 O 0.05861(18) 0.2765(3) 0.87691(13)
O2_2 O 0.0301(2) 0.1740(4) 0.93075(16)
O3_2 O 0.1068(2) 0.1192(4) 0.89930(19)
O4_2 O 0.00174(16) 0.4176(3) 0.69116(14)
H1_2 H 0.021816 0.453081 0.715211
H2_2 H 0.024656 0.415881 0.673981
C19_2 C 0.0134(2) 0.7346(4) 0.85303(19)
H26_2 H 0.040451 0.760902 0.880909
C20_2 C 0.0297(2) 0.7272(4) 0.81314(19)
H27_2 H 0.067508 0.751529 0.814073
S4_2 S 0.06769(6) 0.71111(12) 0.59898(5)
O31_2 O 0.0694(2) 0.6104(4) 0.58188(16)
O32_2 O 0.02352(19) 0.7720(4) 0.56507(16)
O34_2 O 0.16018(15) 0.6144(2) 0.79071(13)
O35_2 O 0.08115(15) 0.5146(3) 0.78164(13)
C24_2 C 0.1061(2) 0.5892(3) 0.77090(17)
C25_2 C 0.0665(2) 0.6486(3) 0.72963(17)
C26_2 C 0.0837(2) 0.6588(4) 0.69045(18)
H30_2 H 0.121963 0.636667 0.691436
C27_2 C 0.0443(2) 0.7020(4) 0.64926(18)
C30_2 C 0.0086(2) 0.6844(3) 0.72834(17)
Eu6_2 Eu 0.11085(2) 0.39146(2) 0.84157(2)
Eu8_2 Eu 0.25204(2) 0.41365(2) 0.95636(2)
O41_2 O 0.07742(16) 0.4807(3) 0.90292(15)
H35_2 H 0.098818 0.467359 0.931969
H36_2 H 0.037688 0.463339 0.900439
O43_2 O 0.26918(19) 0.6408(3) 0.77842(15)
H37_2 H 0.288129 0.630703 0.762776
H38_2 H 0.245929 0.684773 0.760306
O45_2 O 0.36106(17) 0.5866(3) 0.87647(15)
H39_2 H 0.393772 0.554835 0.892055
H40_2 H 0.376952 0.639745 0.891475
O46_2 O 0.17437(14) 0.1757(2) 0.79249(12)
O47_2 O 0.2218(2) 0.5740(3) 0.98036(14)
H41_2 H 0.208594 0.627335 0.964461
O48_2 O 0.08943(15) 0.2578(3) 0.78748(12)
O49_2 O 0.3466(2) 0.5057(4) 0.98183(16)
H43_2 H 0.377608 0.471109 0.981667
H44_2 H 0.354478 0.558339 0.999067
O53_2 O 0.26959(18) 0.1108(3) 0.89532(14)
O54_2 O 0.29361(16) 0.0835(3) 0.83183(13)
O56_2 O 0.31147(19) 0.2713(3) 0.97926(15)
O57_2 O 0.19468(14) 0.2983(2) 0.89283(11)
H47_2 H 0.184193 0.242682 0.906736
O58_2 O 0.29537(15) 0.4068(2) 0.89393(11)
H48_2 H 0.337583 0.399399 0.904509
O59_2 O 0.19015(14) 0.5046(2) 0.88689(11)
H49_2 H 0.169960 0.558426 0.894239
O60_2 O 0.19450(14) 0.3948(2) 0.81106(11)
H50_2 H 0.184938 0.399400 0.778471
C31_2 C 0.1179(2) 0.1909(3) 0.77478(17)
C32_2 C 0.0815(2) 0.1248(4) 0.73420(17)
C33_2 C 0.0371(2) 0.1714(4) 0.69646(17)
H51_2 H 0.029238 0.238807 0.698149
C34_2 C 0.0048(2) 0.1179(4) 0.65677(17)
C35_2 C 0.0151(2) 0.0163(4) 0.65376(17)
C37_2 C 0.0919(2) 0.0226(3) 0.73201(16)
H54_2 H 0.093194 0.022263 0.818392
C45_2 C 0.2877(2) 0.0549(4) 0.8695(2)
C46_2 C 0.3449(2) 0.2016(4) 0.99835(19)
H58_2 H 0.382418 0.198630 0.993821
O62_2 O 0.26009(16) 0.6932(2) 0.88280(12)
O70_2 O 0.16563(17) 0.3654(3) 0.97698(13)
H20_2 H 0.006282 0.980601 0.873292
S6_2 S 0.22968(6) 0.77048(9) 0.90030(4)
O40_2 O 0.2727(2) 0.8329(3) 0.93489(13)
O42_2 O 0.1825(2) 0.7290(3) 0.91632(16)
C36_2 C 0.0576(2) 0.9699(4) 0.69153(18)
H53_2 H 0.063566 0.901860 0.690162
C38_2 C 0.1315(2) 0.9647(3) 0.77335(17)
C39_2 C 0.1211(2) 0.9748(4) 0.81617(18)
C40_2 C 0.1503(2) 0.9176(4) 0.85523(18)
H55_2 H 0.142298 0.925734 0.883267
C41_2 C 0.1921(2) 0.8472(3) 0.85160(17)
C42_2 C 0.2043(2) 0.8358(3) 0.80981(17)
H56_2 H 0.232676 0.788749 0.808141
C43_2 C 0.1745(2) 0.8938(3) 0.77027(16)
C44_2 C 0.1921(2) 0.8787(3) 0.72695(16)
H57_2 H 0.297243 0.989271 0.878837
Eu2_2 Eu 0.88915(2) 0.39146(2) 0.65843(2)
Eu4_2 Eu 0.74796(2) 0.41365(2) 0.54364(2)
S3_2 S 0.93231(6) 0.71111(12) 0.90102(5)
O6_2 O 0.92258(16) 0.4807(3) 0.59708(15)
H3_2 H 0.901182 0.467359 0.568031
H4_2 H 0.962312 0.463339 0.599561
O8_2 O 0.73082(19) 0.6408(3) 0.72158(15)
H5_2 H 0.711871 0.630703 0.737224
H6_2 H 0.754071 0.684773 0.739694
O10_2 O 0.63894(17) 0.5866(3) 0.62353(15)
H7_2 H 0.606228 0.554835 0.607945
H8_2 H 0.623048 0.639745 0.608525
O11_2 O 0.82563(14) 0.1757(2) 0.70751(12)
O12_2 O 0.7782(2) 0.5740(3) 0.51964(14)
H9_2 H 0.791406 0.627335 0.535539
H10_2 H 0.769496 0.593035 0.490799
O13_2 O 0.91057(15) 0.2578(3) 0.71252(12)
O14_2 O 0.6534(2) 0.5057(4) 0.51817(16)
H11_2 H 0.622392 0.471109 0.518333
H12_2 H 0.645522 0.558339 0.500933
O16_2 O 0.71556(17) 0.4279(3) 0.45882(13)
H13_2 H 0.737542 0.419469 0.441219
H14_2 H 0.678672 0.407219 0.445169
O18_2 O 0.9306(2) 0.6104(4) 0.91812(16)
O19_2 O 0.97648(19) 0.7720(4) 0.93493(16)
O21_2 O 0.83982(15) 0.6144(2) 0.70929(13)
O22_2 O 0.91885(15) 0.5146(3) 0.71836(13)
O23_2 O 0.73041(18) 0.1108(3) 0.60468(14)
O24_2 O 0.70639(16) 0.0835(3) 0.66817(13)
O25_2 O 0.66563(17) 0.1346(3) 0.47698(13)
O26_2 O 0.68853(19) 0.2713(3) 0.52074(15)
O27_2 O 0.80532(14) 0.2983(2) 0.60717(11)
H15_2 H 0.815807 0.242682 0.593264
O28_2 O 0.70463(15) 0.4068(2) 0.60607(11)
H16_2 H 0.662417 0.399399 0.595491
O29_2 O 0.80985(14) 0.5046(2) 0.61311(11)
H17_2 H 0.830040 0.558426 0.605761
O30_2 O 0.80550(14) 0.3948(2) 0.68894(11)
H18_2 H 0.815062 0.399400 0.721529
C1_2 C 0.8821(2) 0.1909(3) 0.72522(17)
C2_2 C 0.9185(2) 0.1248(4) 0.76580(17)
C3_2 C 0.9629(2) 0.1714(4) 0.80354(17)
H19_2 H 0.970762 0.238807 0.801851
C4_2 C 0.9952(2) 0.1179(4) 0.84323(17)
C5_2 C 0.9849(2) 0.0163(4) 0.84624(17)
C7_2 C 0.9081(2) 0.0226(3) 0.76799(16)
H22_2 H 0.906806 0.022263 0.681608
C15_2 C 0.8939(2) 0.5892(3) 0.72910(17)
C16_2 C 0.9335(2) 0.6486(3) 0.77037(17)
C17_2 C 0.9163(2) 0.6588(4) 0.80955(18)
H25_2 H 0.878037 0.636667 0.808564
C18_2 C 0.9557(2) 0.7020(4) 0.85074(18)
C21_2 C 0.9914(2) 0.6844(3) 0.77166(17)
C22_2 C 0.7123(2) 0.0549(4) 0.6305(2)
C23_2 C 0.6551(2) 0.2016(4) 0.50165(19)
H29_2 H 0.617582 0.198630 0.506179
C28_2 C 0.9866(2) 0.7346(4) 0.64697(19)
H31_2 H 0.959549 0.760902 0.619091
C29_2 C 0.9703(2) 0.7272(4) 0.68686(19)
H32_2 H 0.932492 0.751529 0.685927
S5_2 S 0.94860(6) 0.17579(10) 0.60823(4)
O36_2 O 0.94139(18) 0.2765(3) 0.62309(13)
O37_2 O 0.9699(2) 0.1740(4) 0.56925(16)
O38_2 O 0.8932(2) 0.1192(4) 0.60070(19)
O39_2 O 0.99826(16) 0.4176(3) 0.80884(14)
H33_2 H 0.978184 0.453081 0.784789
H34_2 H 0.975344 0.415881 0.826019
Eu17_2 Eu 0.75204(2) 0.08635(2) 0.45636(2)
O61_2 O 0.73991(16) 0.6932(2) 0.61720(12)
O69_2 O 0.83437(17) 0.3654(3) 0.52302(13)
S2_2 S 0.77032(6) 0.77048(9) 0.59970(4)
O5_2 O 0.7273(2) 0.8329(3) 0.56511(13)
O7_2 O 0.8175(2) 0.7290(3) 0.58368(16)
C6_2 C 0.9424(2) 0.9699(4) 0.80847(18)
H21_2 H 0.936434 0.901860 0.809838
C8_2 C 0.8685(2) 0.9647(3) 0.72665(17)
C9_2 C 0.8789(2) 0.9748(4) 0.68383(18)
C10_2 C 0.8497(2) 0.9176(4) 0.64477(18)
H23_2 H 0.857702 0.925734 0.616733
C11_2 C 0.8079(2) 0.8472(3) 0.64840(17)
C12_2 C 0.7957(2) 0.8358(3) 0.69019(17)
H24_2 H 0.767324 0.788749 0.691859
C13_2 C 0.8255(2) 0.8938(3) 0.72973(16)
C14_2 C 0.8079(2) 0.8787(3) 0.77305(16)
H28_2 H 0.702757 0.989271 0.621163
H52_2 H 0.993718 0.980601 0.626708
Eu1_2 Eu 0.76039(2) 0.24030(2) 0.34823(2)
Eu2_3 Eu 0.61085(2) 0.10854(2) 0.34157(2)
S1_3 S 0.44860(6) 0.32421(10) 0.10823(4)
S2_3 S 0.72968(6) 0.72952(9) 0.40030(4)
O1_3 O 0.44139(18) 0.2235(3) 0.12309(13)
O2_3 O 0.4699(2) 0.3260(4) 0.06925(16)
O3_3 O 0.3932(2) 0.3808(4) 0.10070(19)
O4_3 O 0.49826(16) 0.0824(3) 0.30884(14)
H1_3 H 0.478184 0.046919 0.284789
H2_3 H 0.475344 0.084119 0.326019
O5_3 O 0.7727(2) 0.6671(3) 0.43489(13)
O6_3 O 0.57742(16) 0.0193(3) 0.40292(15)
H3_3 H 0.598818 0.032641 0.431969
H4_3 H 0.537688 0.036661 0.400439
O7_3 O 0.6825(2) 0.7710(3) 0.41632(16)
O9 O 0.76009(16) 0.8068(2) 0.38280(12)
O11_3 O 0.67437(14) 0.3243(2) 0.29249(12)
O13_3 O 0.58943(15) 0.2422(3) 0.28748(12)
H11_3 H 0.877608 0.028891 0.481667
O15_2 O 0.70962(15) 0.7070(2) 0.21958(12)
O16_3 O 0.78444(17) 0.0721(3) 0.54118(13)
H13_3 H 0.762458 0.080531 0.558781
H14_3 H 0.821328 0.092781 0.554831
O17_2 O 0.68930(15) 0.5485(2) 0.20054(13)
O23_3 O 0.76959(18) 0.3892(3) 0.39532(14)
O24_3 O 0.79361(16) 0.4165(3) 0.33183(13)
O26_3 O 0.81147(19) 0.2287(3) 0.47926(15)
O27_3 O 0.69468(14) 0.2017(2) 0.39283(11)
H15_3 H 0.684193 0.257318 0.406736
O28_3 O 0.79537(15) 0.0932(2) 0.39393(11)
H16_3 H 0.837583 0.100601 0.404509
O30_3 O 0.69450(14) 0.1052(2) 0.31106(11)
H18_3 H 0.684938 0.100600 0.278471
C1_3 C 0.6179(2) 0.3091(3) 0.27478(17)
C2_3 C 0.5815(2) 0.3752(4) 0.23420(17)
C3_3 C 0.5371(2) 0.3286(4) 0.19646(17)
H19_3 H 0.529238 0.261193 0.198149
C4_3 C 0.5048(2) 0.3821(4) 0.15677(17)
C5_3 C 0.5151(2) 0.4837(4) 0.15376(17)
H20_3 H 0.493718 0.519399 0.126708
C6_3 C 0.5576(2) 0.5301(4) 0.19153(18)
H21_3 H 0.563566 0.598140 0.190162
C7_3 C 0.5919(2) 0.4774(3) 0.23201(16)
C8_3 C 0.6315(2) 0.5353(3) 0.27335(17)
C9_3 C 0.6211(2) 0.5252(4) 0.31617(18)
H22_3 H 0.593194 0.477737 0.318392
C10_3 C 0.6503(2) 0.5824(4) 0.35523(18)
H23_3 H 0.642298 0.574266 0.383267
C11_3 C 0.6921(2) 0.6528(3) 0.35160(17)
C12_3 C 0.7043(2) 0.6642(3) 0.30981(17)
H24_3 H 0.732676 0.711251 0.308141
C13_3 C 0.6745(2) 0.6062(3) 0.27027(16)
C14_3 C 0.6921(2) 0.6213(3) 0.22695(16)
C22_3 C 0.7877(2) 0.4451(4) 0.3695(2)
H28_3 H 0.797243 0.510729 0.378837
C23_3 C 0.8449(2) 0.2984(4) 0.49835(19)
H29_3 H 0.882418 0.301370 0.493821
Eu5_2 Eu 0.23961(2) 0.24030(2) 0.15177(2)
Eu6_3 Eu 0.38915(2) 0.10854(2) 0.15843(2)
S5_3 S 0.55140(6) 0.32421(10) 0.39177(4)
S6_3 S 0.27032(6) 0.72952(9) 0.09970(4)
O36_3 O 0.55861(18) 0.2235(3) 0.37691(13)
O37_3 O 0.5301(2) 0.3260(4) 0.43075(16)
O38_3 O 0.6068(2) 0.3808(4) 0.39930(19)
O39_3 O 0.50174(16) 0.0824(3) 0.19116(14)
H33_3 H 0.521816 0.046919 0.215211
H34_3 H 0.524656 0.084119 0.173981
O40_3 O 0.2273(2) 0.6671(3) 0.06511(13)
O41_3 O 0.42258(16) 0.0193(3) 0.09708(15)
H35_3 H 0.401182 0.032641 0.068031
H36_3 H 0.462312 0.036661 0.099561
O42_3 O 0.3175(2) 0.7710(3) 0.08368(16)
O44 O 0.23991(16) 0.8068(2) 0.11720(12)
O46_3 O 0.32563(14) 0.3243(2) 0.20751(12)
O48_3 O 0.41057(15) 0.2422(3) 0.21252(12)
H43_3 H 0.122392 0.028891 0.018333
O50_2 O 0.29038(15) 0.7070(2) 0.28042(12)
O52_2 O 0.31070(15) 0.5485(2) 0.29946(13)
O53_3 O 0.23041(18) 0.3892(3) 0.10468(14)
O54_3 O 0.20639(16) 0.4165(3) 0.16817(13)
O56_3 O 0.18853(19) 0.2287(3) 0.02074(15)
O57_3 O 0.30532(14) 0.2017(2) 0.10717(11)
H47_3 H 0.315807 0.257318 0.093264
O58_3 O 0.20463(15) 0.0932(2) 0.10607(11)
H48_3 H 0.162417 0.100601 0.095491
O60_3 O 0.30550(14) 0.1052(2) 0.18894(11)
H50_3 H 0.315062 0.100600 0.221529
C31_3 C 0.3821(2) 0.3091(3) 0.22522(17)
C32_3 C 0.4185(2) 0.3752(4) 0.26580(17)
C33_3 C 0.4629(2) 0.3286(4) 0.30354(17)
H51_3 H 0.470762 0.261193 0.301851
C34_3 C 0.4952(2) 0.3821(4) 0.34323(17)
C35_3 C 0.4849(2) 0.4837(4) 0.34624(17)
H52_3 H 0.506282 0.519399 0.373292
C36_3 C 0.4424(2) 0.5301(4) 0.30847(18)
H53_3 H 0.436434 0.598140 0.309838
C37_3 C 0.4081(2) 0.4774(3) 0.26799(16)
C38_3 C 0.3685(2) 0.5353(3) 0.22665(17)
C39_3 C 0.3789(2) 0.5252(4) 0.18383(18)
H54_3 H 0.406806 0.477737 0.181608
C40_3 C 0.3497(2) 0.5824(4) 0.14477(18)
H55_3 H 0.357702 0.574266 0.116733
C41_3 C 0.3079(2) 0.6528(3) 0.14840(17)
C42_3 C 0.2957(2) 0.6642(3) 0.19019(17)
H56_3 H 0.267324 0.711251 0.191859
C43_3 C 0.3255(2) 0.6062(3) 0.22973(16)
C44_3 C 0.3079(2) 0.6213(3) 0.27305(16)
C45_3 C 0.2123(2) 0.4451(4) 0.1305(2)
H57_3 H 0.202757 0.510729 0.121163
C46_3 C 0.1551(2) 0.2984(4) 0.00165(19)
H58_3 H 0.117582 0.301370 0.006179
Eu9 Eu 0.26039(2) 0.74030(2) 0.34823(2)
Eu11 Eu 0.73961(2) 0.74030(2) 0.15177(2)
Eu13 Eu 0.75403(2) 0.96084(2) 0.33975(2)
Eu14 Eu 0.24597(2) 0.96084(2) 0.16025(2)
Eu15_2 Eu 0.25403(2) 0.46084(2) 0.33975(2)
Eu16_2 Eu 0.74597(2) 0.46084(2) 0.16025(2)
O63_2 O 0.20962(15) 0.2070(2) 0.21958(12)
O64_2 O 0.79038(15) 0.2070(2) 0.28042(12)
O65_2 O 0.18930(15) 0.0485(2) 0.20054(13)
O66_2 O 0.81070(15) 0.0485(2) 0.29946(13)
O67_2 O 0.12834(16) 0.2454(3) 0.11587(13)
O68_2 O 0.87166(16) 0.2454(3) 0.38413(13)
O51_3 O 0.21556(17) 0.0721(3) 0.95882(13)
H45_3 H 0.237542 0.080531 0.941219
H46_3 H 0.178672 0.092781 0.945169
S3_3 S 0.56769(6) 0.78889(12) 0.09898(5)
O8_3 O 0.76918(19) 0.8592(3) 0.27842(15)
H5_3 H 0.788129 0.869297 0.262776
H6_3 H 0.745929 0.815227 0.260306
O10_3 O 0.86106(17) 0.9134(3) 0.37647(15)
H7_3 H 0.893772 0.945165 0.392055
H8_3 H 0.876952 0.860255 0.391475
O12_3 O 0.7218(2) 0.9260(3) 0.48036(14)
H9_3 H 0.708594 0.872665 0.464461
H10_3 H 0.730504 0.906965 0.509201
O14_3 O 0.8466(2) 0.9943(4) 0.48183(16)
H12_3 H 0.854478 0.941661 0.499067
O18_3 O 0.5694(2) 0.8896(4) 0.08188(16)
O19_3 O 0.52352(19) 0.7280(4) 0.06507(16)
O20_2 O 0.62834(16) 0.7454(3) 0.11587(13)
O21_3 O 0.66018(15) 0.8856(2) 0.29071(13)
O22_3 O 0.58115(15) 0.9854(3) 0.28164(13)
O29_3 O 0.69015(14) 0.9954(2) 0.38689(11)
H17_3 H 0.669960 0.941574 0.394239
C15_3 C 0.6061(2) 0.9108(3) 0.27090(17)
C16_3 C 0.5665(2) 0.8514(3) 0.22963(17)
C17_3 C 0.5837(2) 0.8412(4) 0.19045(18)
H25_3 H 0.621963 0.863333 0.191436
C18_3 C 0.5443(2) 0.7980(4) 0.14926(18)
C19_3 C 0.4866(2) 0.7654(4) 0.14697(19)
H26_3 H 0.459549 0.739098 0.119091
C20_3 C 0.4703(2) 0.7728(4) 0.18686(19)
H27_3 H 0.432492 0.748471 0.185927
C21_3 C 0.5086(2) 0.8156(3) 0.22834(17)
S4_3 S 0.43231(6) 0.78889(12) 0.40102(5)
O31_3 O 0.4306(2) 0.8896(4) 0.41812(16)
O32_3 O 0.47648(19) 0.7280(4) 0.43493(16)
O33_2 O 0.37166(16) 0.7454(3) 0.38413(13)
O34_3 O 0.33982(15) 0.8856(2) 0.20929(13)
O35_3 O 0.41885(15) 0.9854(3) 0.21836(13)
C24_3 C 0.3939(2) 0.9108(3) 0.22910(17)
C25_3 C 0.4335(2) 0.8514(3) 0.27037(17)
C26_3 C 0.4163(2) 0.8412(4) 0.30955(18)
H30_3 H 0.378037 0.863333 0.308564
C27_3 C 0.4557(2) 0.7980(4) 0.35074(18)
C28_3 C 0.5134(2) 0.7654(4) 0.35303(19)
H31_3 H 0.540451 0.739098 0.380909
C29_3 C 0.5297(2) 0.7728(4) 0.31314(19)
H32_3 H 0.567508 0.748471 0.314073
C30_3 C 0.4914(2) 0.8156(3) 0.27166(17)
O43_3 O 0.23082(19) 0.8592(3) 0.22158(15)
H37_3 H 0.211871 0.869297 0.237224
H38_3 H 0.254071 0.815227 0.239694
O45_3 O 0.13894(17) 0.9134(3) 0.12353(15)
H39_3 H 0.106228 0.945165 0.107945
H40_3 H 0.123048 0.860255 0.108525
O47_3 O 0.2782(2) 0.9260(3) 0.01964(14)
H41_3 H 0.291406 0.872665 0.035539
O49_3 O 0.1534(2) 0.9943(4) 0.01817(16)
H44_3 H 0.145522 0.941661 0.000933
O59_3 O 0.30985(14) 0.9954(2) 0.11311(11)
H49_3 H 0.330040 0.941574 0.105761
S2_4 S 0.22968(6) 0.22952(9) 0.40030(4)
O5_4 O 0.2727(2) 0.1671(3) 0.43489(13)
O7_4 O 0.1825(2) 0.2710(3) 0.41632(16)
O9_2 O 0.26009(16) 0.3068(2) 0.38280(12)
C6_4 C 0.0576(2) 0.0301(4) 0.19153(18)
H21_4 H 0.063566 0.098140 0.190162
C8_4 C 0.1315(2) 0.0353(3) 0.27335(17)
C9_4 C 0.1211(2) 0.0252(4) 0.31617(18)
C10_4 C 0.1503(2) 0.0824(4) 0.35523(18)
H23_4 H 0.142298 0.074266 0.383267
C11_4 C 0.1921(2) 0.1528(3) 0.35160(17)
C12_4 C 0.2043(2) 0.1642(3) 0.30981(17)
H24_4 H 0.232676 0.211251 0.308141
C13_4 C 0.1745(2) 0.1062(3) 0.27027(16)
C14_4 C 0.1921(2) 0.1213(3) 0.22695(16)
H28_4 H 0.297243 0.010729 0.378837
H52_4 H 0.006282 0.019399 0.373292
Eu2_4 Eu 0.11085(2) 0.60854(2) 0.34157(2)
S3_4 S 0.06769(6) 0.28889(12) 0.09898(5)
O6_4 O 0.07742(16) 0.5193(3) 0.40292(15)
H3_4 H 0.098818 0.532641 0.431969
H4_4 H 0.037688 0.536661 0.400439
O8_4 O 0.26918(19) 0.3592(3) 0.27842(15)
H5_4 H 0.288129 0.369297 0.262776
H6_4 H 0.245929 0.315227 0.260306
O10_4 O 0.36106(17) 0.4134(3) 0.37647(15)
H7_4 H 0.393772 0.445165 0.392055
H8_4 H 0.376952 0.360255 0.391475
O11_4 O 0.17437(14) 0.8243(2) 0.29249(12)
O12_4 O 0.2218(2) 0.4260(3) 0.48036(14)
H9_4 H 0.208594 0.372665 0.464461
H10_4 H 0.230504 0.406965 0.509201
O13_4 O 0.08943(15) 0.7422(3) 0.28748(12)
O14_4 O 0.3466(2) 0.4943(4) 0.48183(16)
H11_4 H 0.377608 0.528891 0.481667
H12_4 H 0.354478 0.441661 0.499067
O16_4 O 0.28444(17) 0.5721(3) 0.54118(13)
H13_4 H 0.262458 0.580531 0.558781
H14_4 H 0.321328 0.592781 0.554831
O18_4 O 0.0694(2) 0.3896(4) 0.08188(16)
O19_4 O 0.02352(19) 0.2280(4) 0.06507(16)
O21_4 O 0.16018(15) 0.3856(2) 0.29071(13)
O22_4 O 0.08115(15) 0.4854(3) 0.28164(13)
O23_4 O 0.26959(18) 0.8892(3) 0.39532(14)
O24_4 O 0.29361(16) 0.9165(3) 0.33183(13)
O26_4 O 0.31147(19) 0.7287(3) 0.47926(15)
O27_4 O 0.19468(14) 0.7017(2) 0.39283(11)
H15_4 H 0.184193 0.757318 0.406736
O28_4 O 0.29537(15) 0.5932(2) 0.39393(11)
H16_4 H 0.337583 0.600601 0.404509
O29_4 O 0.19015(14) 0.4954(2) 0.38689(11)
H17_4 H 0.169960 0.441574 0.394239
O30_4 O 0.19450(14) 0.6052(2) 0.31106(11)
H18_4 H 0.184938 0.600600 0.278471
C1_4 C 0.1179(2) 0.8091(3) 0.27478(17)
C2_4 C 0.0815(2) 0.8752(4) 0.23420(17)
C3_4 C 0.0371(2) 0.8286(4) 0.19646(17)
H19_4 H 0.029238 0.761193 0.198149
C4_4 C 0.0048(2) 0.8821(4) 0.15677(17)
C5_4 C 0.0151(2) 0.9837(4) 0.15376(17)
C7_4 C 0.0919(2) 0.9774(3) 0.23201(16)
H22_4 H 0.093194 0.977737 0.318392
C15_4 C 0.1061(2) 0.4108(3) 0.27090(17)
C16_4 C 0.0665(2) 0.3514(3) 0.22963(17)
C17_4 C 0.0837(2) 0.3412(4) 0.19045(18)
H25_4 H 0.121963 0.363333 0.191436
C18_4 C 0.0443(2) 0.2980(4) 0.14926(18)
C21_4 C 0.0086(2) 0.3156(3) 0.22834(17)
C22_4 C 0.2877(2) 0.9451(4) 0.3695(2)
C23_4 C 0.3449(2) 0.7984(4) 0.49835(19)
H29_4 H 0.382418 0.801370 0.493821
C28_4 C 0.0134(2) 0.2654(4) 0.35303(19)
H31_4 H 0.040451 0.239098 0.380909
C29_4 C 0.0297(2) 0.2728(4) 0.31314(19)
H32_4 H 0.067508 0.248471 0.314073
S5_4 S 0.05140(6) 0.82421(10) 0.39177(4)
O36_4 O 0.05861(18) 0.7235(3) 0.37691(13)
O37_4 O 0.0301(2) 0.8260(4) 0.43075(16)
O38_4 O 0.1068(2) 0.8808(4) 0.39930(19)
O39_4 O 0.00174(16) 0.5824(3) 0.19116(14)
H33_4 H 0.021816 0.546919 0.215211
H34_4 H 0.024656 0.584119 0.173981
H20_4 H 0.993718 0.019399 0.126708
S6_4 S 0.77032(6) 0.22952(9) 0.09970(4)
O40_4 O 0.7273(2) 0.1671(3) 0.06511(13)
O42_4 O 0.8175(2) 0.2710(3) 0.08368(16)
O44_2 O 0.73991(16) 0.3068(2) 0.11720(12)
C36_4 C 0.9424(2) 0.0301(4) 0.30847(18)
H53_4 H 0.936434 0.098140 0.309838
C38_4 C 0.8685(2) 0.0353(3) 0.22665(17)
C39_4 C 0.8789(2) 0.0252(4) 0.18383(18)
C40_4 C 0.8497(2) 0.0824(4) 0.14477(18)
H55_4 H 0.857702 0.074266 0.116733
C41_4 C 0.8079(2) 0.1528(3) 0.14840(17)
C42_4 C 0.7957(2) 0.1642(3) 0.19019(17)
H56_4 H 0.767324 0.211251 0.191859
C43_4 C 0.8255(2) 0.1062(3) 0.22973(16)
C44_4 C 0.8079(2) 0.1213(3) 0.27305(16)
H57_4 H 0.702757 0.010729 0.121163
S1_4 S 0.94860(6) 0.82421(10) 0.10823(4)
O1_4 O 0.94139(18) 0.7235(3) 0.12309(13)
O2_4 O 0.9699(2) 0.8260(4) 0.06925(16)
O3_4 O 0.8932(2) 0.8808(4) 0.10070(19)
O4_4 O 0.99826(16) 0.5824(3) 0.30884(14)
H1_4 H 0.978184 0.546919 0.284789
H2_4 H 0.975344 0.584119 0.326019
C19_4 C 0.9866(2) 0.2654(4) 0.14697(19)
H26_4 H 0.959549 0.239098 0.119091
C20_4 C 0.9703(2) 0.2728(4) 0.18686(19)
H27_4 H 0.932492 0.248471 0.185927
S4_4 S 0.93231(6) 0.28889(12) 0.40102(5)
O31_4 O 0.9306(2) 0.3896(4) 0.41812(16)
O32_4 O 0.97648(19) 0.2280(4) 0.43493(16)
O34_4 O 0.83982(15) 0.3856(2) 0.20929(13)
O35_4 O 0.91885(15) 0.4854(3) 0.21836(13)
C24_4 C 0.8939(2) 0.4108(3) 0.22910(17)
C25_4 C 0.9335(2) 0.3514(3) 0.27037(17)
C26_4 C 0.9163(2) 0.3412(4) 0.30955(18)
H30_4 H 0.878037 0.363333 0.308564
C27_4 C 0.9557(2) 0.2980(4) 0.35074(18)
C30_4 C 0.9914(2) 0.3156(3) 0.27166(17)
Eu6_4 Eu 0.88915(2) 0.60854(2) 0.15843(2)
O41_4 O 0.92258(16) 0.5193(3) 0.09708(15)
H35_4 H 0.901182 0.532641 0.068031
H36_4 H 0.962312 0.536661 0.099561
O43_4 O 0.73082(19) 0.3592(3) 0.22158(15)
H37_4 H 0.711871 0.369297 0.237224
H38_4 H 0.754071 0.315227 0.239694
O45_4 O 0.63894(17) 0.4134(3) 0.12353(15)
H39_4 H 0.606228 0.445165 0.107945
H40_4 H 0.623048 0.360255 0.108525
O46_4 O 0.82563(14) 0.8243(2) 0.20751(12)
O47_4 O 0.7782(2) 0.4260(3) 0.01964(14)
H41_4 H 0.791406 0.372665 0.035539
O48_4 O 0.91057(15) 0.7422(3) 0.21252(12)
O49_4 O 0.6534(2) 0.4943(4) 0.01817(16)
H43_4 H 0.622392 0.528891 0.018333
H44_4 H 0.645522 0.441661 0.000933
O53_4 O 0.73041(18) 0.8892(3) 0.10468(14)
O54_4 O 0.70639(16) 0.9165(3) 0.16817(13)
O56_4 O 0.68853(19) 0.7287(3) 0.02074(15)
O57_4 O 0.80532(14) 0.7017(2) 0.10717(11)
H47_4 H 0.815807 0.757318 0.093264
O58_4 O 0.70463(15) 0.5932(2) 0.10607(11)
H48_4 H 0.662417 0.600601 0.095491
O59_4 O 0.80985(14) 0.4954(2) 0.11311(11)
H49_4 H 0.830040 0.441574 0.105761
O60_4 O 0.80550(14) 0.6052(2) 0.18894(11)
H50_4 H 0.815062 0.600600 0.221529
C31_4 C 0.8821(2) 0.8091(3) 0.22522(17)
C32_4 C 0.9185(2) 0.8752(4) 0.26580(17)
C33_4 C 0.9629(2) 0.8286(4) 0.30354(17)
H51_4 H 0.970762 0.761193 0.301851
C34_4 C 0.9952(2) 0.8821(4) 0.34323(17)
C35_4 C 0.9849(2) 0.9837(4) 0.34624(17)
C37_4 C 0.9081(2) 0.9774(3) 0.26799(16)
H54_4 H 0.906806 0.977737 0.181608
C45_4 C 0.7123(2) 0.9451(4) 0.1305(2)
C46_4 C 0.6551(2) 0.7984(4) 0.00165(19)
H58_4 H 0.617582 0.801370 0.006179
H42_3 H 0.769496 0.406965 0.990799
O51_4 O 0.71556(17) 0.5721(3) 0.95882(13)
H45_4 H 0.737542 0.580531 0.941219
H46_4 H 0.678672 0.592781 0.945169
H42_4 H 0.269496 0.906965 0.990799
loop_
_geom_bond_atom_site_label_1
_geom_bond_atom_site_label_2
_geom_bond_site_symmetry_1
_geom_bond_site_symmetry_2
Eu3 O8 1_555 1_555
S3 O18 1_555 1_555
O8 H5 1_555 1_555
H6 O8 1_555 1_555
O10 Eu3 1_555 1_555
H7 O10 1_555 1_555
H8 O10 1_555 1_555
O12 H9 1_555 1_555
H10 O12 1_555 1_555
H12 O14 1_555 1_555
O19 S3 1_555 1_555
O20 S3 1_555 1_555
O21 Eu3 1_555 1_555
H17 O29 1_555 1_555
C15 O21 1_555 1_555
C16 C15 1_555 1_555
C17 C16 1_555 1_555
H25 C17 1_555 1_555
C18 S3 1_555 1_555
C19 C18 1_555 1_555
H26 C19 1_555 1_555
C20 C19 1_555 1_555
H27 C20 1_555 1_555
C21 C16 1_555 1_555
S4 O31 1_555 1_555
O32 S4 1_555 1_555
O33 S4 1_555 1_555
O34 C24 1_555 1_555
O35 C24 1_555 1_555
C24 C25 1_555 1_555
C25 C26 1_555 1_555
C26 H30 1_555 1_555
C27 S4 1_555 1_555
C28 C27 1_555 1_555
H31 C28 1_555 1_555
C29 C28 1_555 1_555
H32 C29 1_555 1_555
C30 C21 1_555 1_555
Eu7 O34 1_555 1_555
O43 Eu7 1_555 1_555
H37 O43 1_555 1_555
H38 O43 1_555 1_555
O45 Eu7 1_555 1_555
H39 O45 1_555 1_555
H40 O45 1_555 1_555
O47 H41 1_555 1_555
H44 O49 1_555 1_555
H49 O59 1_555 1_555
Eu10 O33 1_555 1_555
Eu12 O20 1_555 1_555
O61 Eu3 1_555 1_555
O62 Eu7 1_555 1_555
Eu3 O29 1_555 1_555
O22 C15 1_555 1_555
C17 C18 1_555 1_555
C20 C21 1_555 1_555
C25 C30 1_555 1_555
C26 C27 1_555 1_555
C29 C30 1_555 1_555
Eu7 O59 1_555 1_555
H45 O51 1_555 1_555
H46 O51 1_555 1_555
Eu18 O55 1_555 1_555
Eu1 O11 1_555 1_555
Eu2 O4 1_555 1_555
S1 O1 1_555 1_555
S2 O5 1_555 1_555
O1 Eu6 1_555 1_555
O2 S1 1_555 1_555
O3 S1 1_555 1_555
O4 H1 1_555 1_555
H2 O4 1_555 1_555
O6 Eu2 1_555 1_555
H3 O6 1_555 1_555
H4 O6 1_555 1_555
O7 S2 1_555 1_555
O61 S2 1_555 1_555
O11 C1 1_555 1_555
O13 Eu2 1_555 1_555
O15 C14 1_555 1_555
O16 Eu4 1_555 1_555
H13 O16 1_555 1_555
H14 O16 1_555 1_555
O17 C14 1_555 1_555
O23 Eu1 1_555 1_555
O24 Eu1 1_555 1_555
O25 C23 1_555 1_555
O26 Eu4 1_555 1_555
O27 Eu1 1_555 1_555
H15 O27 1_555 1_555
O28 Eu1 1_555 1_555
H16 O28 1_555 1_555
O30 Eu1 1_555 1_555
H18 O30 1_555 1_555
C1 O13 1_555 1_555
C2 C1 1_555 1_555
C3 C2 1_555 1_555
H19 C3 1_555 1_555
C4 S1 1_555 1_555
C5 C4 1_555 1_555
H20 C5 1_555 1_555
C6 C5 1_555 1_555
H21 C6 1_555 1_555
C7 C2 1_555 1_555
C8 C7 1_555 1_555
C9 C8 1_555 1_555
H22 C9 1_555 1_555
C10 C9 1_555 1_555
H23 C10 1_555 1_555
C11 S2 1_555 1_555
C12 C11 1_555 1_555
H24 C12 1_555 1_555
C13 C8 1_555 1_555
C14 C13 1_555 1_555
C22 O23 1_555 1_555
H28 C22 1_555 1_555
C23 O26 1_555 1_555
H29 C23 1_555 1_555
Eu5 O46 1_555 1_555
S5 O36 1_555 1_555
S6 O40 1_555 1_555
O36 Eu2 1_555 1_555
O37 S5 1_555 1_555
O38 S5 1_555 1_555
O39 Eu6 1_555 1_555
H33 O39 1_555 1_555
H34 O39 1_555 1_555
O41 Eu6 1_555 1_555
H35 O41 1_555 1_555
H36 O41 1_555 1_555
O42 S6 1_555 1_555
O62 S6 1_555 1_555
O46 C31 1_555 1_555
O48 Eu6 1_555 1_555
O50 C44 1_555 1_555
O52 C44 1_555 1_555
O53 Eu5 1_555 1_555
O54 Eu5 1_555 1_555
O56 Eu8 1_555 1_555
O57 Eu5 1_555 1_555
H47 O57 1_555 1_555
O58 Eu5 1_555 1_555
H48 O58 1_555 1_555
O60 Eu5 1_555 1_555
H50 O60 1_555 1_555
C31 O48 1_555 1_555
C32 C31 1_555 1_555
C33 C32 1_555 1_555
H51 C33 1_555 1_555
C34 S5 1_555 1_555
C35 C34 1_555 1_555
H52 C35 1_555 1_555
C36 C35 1_555 1_555
H53 C36 1_555 1_555
C37 C32 1_555 1_555
C38 C37 1_555 1_555
C39 C38 1_555 1_555
H54 C39 1_555 1_555
C40 C39 1_555 1_555
H55 C40 1_555 1_555
C41 S6 1_555 1_555
C42 C41 1_555 1_555
H56 C42 1_555 1_555
C43 C38 1_555 1_555
C44 C43 1_555 1_555
C45 O53 1_555 1_555
H57 C45 1_555 1_555
C46 O56 1_555 1_555
H58 C46 1_555 1_555
Eu10 O50 1_555 1_555
Eu12 O15 1_555 1_555
Eu15 O52 1_555 1_555
Eu16 O17 1_555 1_555
Eu17 O25 1_555 1_555
O63 Eu5 1_555 1_555
O64 Eu1 1_555 1_555
O67 Eu5 1_555 1_555
O68 Eu1 1_555 1_555
O69 Eu4 1_555 1_555
O70 Eu8 1_555 1_555
Eu2 O27 1_555 1_555
Eu2 O30 1_555 1_555
Eu4 O27 1_555 1_555
Eu4 O28 1_555 1_555
O24 C22 1_555 1_555
C3 C4 1_555 1_555
C6 C7 1_555 1_555
C10 C11 1_555 1_555
C12 C13 1_555 1_555
Eu6 O57 1_555 1_555
Eu6 O60 1_555 1_555
Eu8 O57 1_555 1_555
Eu8 O58 1_555 1_555
O54 C45 1_555 1_555
C33 C34 1_555 1_555
C36 C37 1_555 1_555
C40 C41 1_555 1_555
C42 C43 1_555 1_555
H45_2 O51_2 1_555 1_555
H46_2 O51_2 1_555 1_555
Eu18_2 O55_2 1_555 1_555
S1_2 O1_2 1_555 1_555
O1_2 Eu6_2 1_555 1_555
O2_2 S1_2 1_555 1_555
O3_2 S1_2 1_555 1_555
O4_2 H1_2 1_555 1_555
H2_2 O4_2 1_555 1_555
H26_2 C19_2 1_555 1_555
C20_2 C19_2 1_555 1_555
H27_2 C20_2 1_555 1_555
S4_2 O31_2 1_555 1_555
O32_2 S4_2 1_555 1_555
O68 S4_2 1_555 1_555
O34_2 C24_2 1_555 1_555
O35_2 C24_2 1_555 1_555
C24_2 C25_2 1_555 1_555
C25_2 C26_2 1_555 1_555
C26_2 H30_2 1_555 1_555
C27_2 S4_2 1_555 1_555
Eu12 O46_2 1_555 1_555
Eu6_2 O35_2 1_555 1_555
Eu16 O34_2 1_555 1_555
Eu8_2 O47_2 1_555 1_555
O41_2 Eu6_2 1_555 1_555
H35_2 O41_2 1_555 1_555
H36_2 O41_2 1_555 1_555
O43_2 Eu16 1_555 1_555
H37_2 O43_2 1_555 1_555
H38_2 O43_2 1_555 1_555
O45_2 Eu16 1_555 1_555
H39_2 O45_2 1_555 1_555
H40_2 O45_2 1_555 1_555
O46_2 C31_2 1_555 1_555
O47_2 H41_2 1_555 1_555
O48_2 Eu6_2 1_555 1_555
O49_2 Eu8_2 1_555 1_555
H43_2 O49_2 1_555 1_555
H44_2 O49_2 1_555 1_555
O53_2 Eu12 1_555 1_555
O54_2 Eu12 1_555 1_555
O56_2 Eu8_2 1_555 1_555
O57_2 Eu12 1_555 1_555
H47_2 O57_2 1_555 1_555
O58_2 Eu12 1_555 1_555
H48_2 O58_2 1_555 1_555
O59_2 Eu6_2 1_555 1_555
H49_2 O59_2 1_555 1_555
O60_2 Eu12 1_555 1_555
H50_2 O60_2 1_555 1_555
C31_2 O48_2 1_555 1_555
C32_2 C31_2 1_555 1_555
C33_2 C32_2 1_555 1_555
H51_2 C33_2 1_555 1_555
C35_2 C34_2 1_555 1_555
C37_2 C32_2 1_555 1_555
C45_2 O53_2 1_555 1_555
C46_2 O56_2 1_555 1_555
H58_2 C46_2 1_555 1_555
O62_2 Eu16 1_555 1_555
O70_2 Eu8_2 1_555 1_555
C25_2 C30_2 1_555 1_555
C26_2 C27_2 1_555 1_555
Eu6_2 O57_2 1_555 1_555
Eu6_2 O60_2 1_555 1_555
Eu16 O58_2 1_555 1_555
Eu16 O59_2 1_555 1_555
Eu16 O60_2 1_555 1_555
Eu8_2 O57_2 1_555 1_555
Eu8_2 O58_2 1_555 1_555
Eu8_2 O59_2 1_555 1_555
O54_2 C45_2 1_555 1_555
C33_2 C34_2 1_555 1_555
S6_2 O40_2 1_555 1_555
O42_2 S6_2 1_555 1_555
O62_2 S6_2 1_555 1_555
O64 C44_2 1_555 1_555
O66 C44_2 1_555 1_555
H53_2 C36_2 1_555 1_555
C39_2 C38_2 1_555 1_555
C40_2 C39_2 1_555 1_555
H55_2 C40_2 1_555 1_555
C41_2 S6_2 1_555 1_555
C42_2 C41_2 1_555 1_555
H56_2 C42_2 1_555 1_555
C43_2 C38_2 1_555 1_555
C44_2 C43_2 1_555 1_555
C40_2 C41_2 1_555 1_555
C42_2 C43_2 1_555 1_555
Eu10 O11_2 1_555 1_555
Eu15 O8_2 1_555 1_555
Eu4_2 O12_2 1_555 1_555
S3_2 O18_2 1_555 1_555
O6_2 Eu2_2 1_555 1_555
H3_2 O6_2 1_555 1_555
H4_2 O6_2 1_555 1_555
O8_2 H5_2 1_555 1_555
H6_2 O8_2 1_555 1_555
O10_2 Eu15 1_555 1_555
H7_2 O10_2 1_555 1_555
H8_2 O10_2 1_555 1_555
O11_2 C1_2 1_555 1_555
O12_2 H9_2 1_555 1_555
H10_2 O12_2 1_555 1_555
O13_2 Eu2_2 1_555 1_555
O14_2 Eu4_2 1_555 1_555
H11_2 O14_2 1_555 1_555
H12_2 O14_2 1_555 1_555
O16_2 Eu4_2 1_555 1_555
H13_2 O16_2 1_555 1_555
H14_2 O16_2 1_555 1_555
O19_2 S3_2 1_555 1_555
O67 S3_2 1_555 1_555
O21_2 Eu15 1_555 1_555
O22_2 Eu2_2 1_555 1_555
O23_2 Eu10 1_555 1_555
O24_2 Eu10 1_555 1_555
O25_2 C23_2 1_555 1_555
O26_2 Eu4_2 1_555 1_555
O27_2 Eu10 1_555 1_555
H15_2 O27_2 1_555 1_555
O28_2 Eu10 1_555 1_555
H16_2 O28_2 1_555 1_555
O29_2 Eu2_2 1_555 1_555
H17_2 O29_2 1_555 1_555
O30_2 Eu10 1_555 1_555
H18_2 O30_2 1_555 1_555
C1_2 O13_2 1_555 1_555
C2_2 C1_2 1_555 1_555
C3_2 C2_2 1_555 1_555
H19_2 C3_2 1_555 1_555
C5_2 C4_2 1_555 1_555
C7_2 C2_2 1_555 1_555
C15_2 O21_2 1_555 1_555
C16_2 C15_2 1_555 1_555
C17_2 C16_2 1_555 1_555
H25_2 C17_2 1_555 1_555
C18_2 S3_2 1_555 1_555
C21_2 C16_2 1_555 1_555
C22_2 O23_2 1_555 1_555
C23_2 O26_2 1_555 1_555
H29_2 C23_2 1_555 1_555
H31_2 C28_2 1_555 1_555
C29_2 C28_2 1_555 1_555
H32_2 C29_2 1_555 1_555
S5_2 O36_2 1_555 1_555
O36_2 Eu2_2 1_555 1_555
O37_2 S5_2 1_555 1_555
O38_2 S5_2 1_555 1_555
H33_2 O39_2 1_555 1_555
H34_2 O39_2 1_555 1_555
Eu17_2 O25_2 1_555 1_555
O61_2 Eu15 1_555 1_555
O69_2 Eu4_2 1_555 1_555
Eu2_2 O27_2 1_555 1_555
Eu2_2 O30_2 1_555 1_555
Eu15 O28_2 1_555 1_555
Eu15 O29_2 1_555 1_555
Eu15 O30_2 1_555 1_555
Eu4_2 O27_2 1_555 1_555
Eu4_2 O28_2 1_555 1_555
Eu4_2 O29_2 1_555 1_555
O22_2 C15_2 1_555 1_555
O24_2 C22_2 1_555 1_555
C3_2 C4_2 1_555 1_555
C17_2 C18_2 1_555 1_555
S2_2 O5_2 1_555 1_555
O7_2 S2_2 1_555 1_555
O61_2 S2_2 1_555 1_555
O63 C14_2 1_555 1_555
O65 C14_2 1_555 1_555
H21_2 C6_2 1_555 1_555
C9_2 C8_2 1_555 1_555
C10_2 C9_2 1_555 1_555
H23_2 C10_2 1_555 1_555
C11_2 S2_2 1_555 1_555
C12_2 C11_2 1_555 1_555
H24_2 C12_2 1_555 1_555
C13_2 C8_2 1_555 1_555
C14_2 C13_2 1_555 1_555
C10_2 C11_2 1_555 1_555
C12_2 C13_2 1_555 1_555
Eu1_2 O11_3 1_555 1_555
Eu2_3 O4_3 1_555 1_555
S1_3 O1_3 1_555 1_555
S2_3 O5_3 1_555 1_555
O1_3 Eu6_3 1_555 1_555
O2_3 S1_3 1_555 1_555
O3_3 S1_3 1_555 1_555
O4_3 H1_3 1_555 1_555
H2_3 O4_3 1_555 1_555
O6_3 Eu2_3 1_555 1_555
H3_3 O6_3 1_555 1_555
H4_3 O6_3 1_555 1_555
O7_3 S2_3 1_555 1_555
O9 S2_3 1_555 1_555
O11_3 C1_3 1_555 1_555
O13_3 Eu2_3 1_555 1_555
O15_2 C14_3 1_555 1_555
O16_3 Eu17_2 1_555 1_555
H13_3 O16_3 1_555 1_555
H14_3 O16_3 1_555 1_555
O17_2 C14_3 1_555 1_555
O23_3 Eu1_2 1_555 1_555
O24_3 Eu1_2 1_555 1_555
O69_2 C23_3 1_555 1_555
O26_3 Eu17_2 1_555 1_555
O27_3 Eu1_2 1_555 1_555
H15_3 O27_3 1_555 1_555
O28_3 Eu1_2 1_555 1_555
H16_3 O28_3 1_555 1_555
O30_3 Eu1_2 1_555 1_555
H18_3 O30_3 1_555 1_555
C1_3 O13_3 1_555 1_555
C2_3 C1_3 1_555 1_555
C3_3 C2_3 1_555 1_555
H19_3 C3_3 1_555 1_555
C4_3 S1_3 1_555 1_555
C5_3 C4_3 1_555 1_555
H20_3 C5_3 1_555 1_555
C6_3 C5_3 1_555 1_555
H21_3 C6_3 1_555 1_555
C7_3 C2_3 1_555 1_555
C8_3 C7_3 1_555 1_555
C9_3 C8_3 1_555 1_555
H22_3 C9_3 1_555 1_555
C10_3 C9_3 1_555 1_555
H23_3 C10_3 1_555 1_555
C11_3 S2_3 1_555 1_555
C12_3 C11_3 1_555 1_555
H24_3 C12_3 1_555 1_555
C13_3 C8_3 1_555 1_555
C14_3 C13_3 1_555 1_555
C22_3 O23_3 1_555 1_555
H28_3 C22_3 1_555 1_555
C23_3 O26_3 1_555 1_555
H29_3 C23_3 1_555 1_555
Eu5_2 O46_3 1_555 1_555
S5_3 O36_3 1_555 1_555
S6_3 O40_3 1_555 1_555
O36_3 Eu2_3 1_555 1_555
O37_3 S5_3 1_555 1_555
O38_3 S5_3 1_555 1_555
O39_3 Eu6_3 1_555 1_555
H33_3 O39_3 1_555 1_555
H34_3 O39_3 1_555 1_555
O41_3 Eu6_3 1_555 1_555
H35_3 O41_3 1_555 1_555
H36_3 O41_3 1_555 1_555
O42_3 S6_3 1_555 1_555
O44 S6_3 1_555 1_555
O46_3 C31_3 1_555 1_555
O48_3 Eu6_3 1_555 1_555
O50_2 C44_3 1_555 1_555
O52_2 C44_3 1_555 1_555
O53_3 Eu5_2 1_555 1_555
O54_3 Eu5_2 1_555 1_555
O56_3 Eu18_2 1_555 1_555
O57_3 Eu5_2 1_555 1_555
H47_3 O57_3 1_555 1_555
O58_3 Eu5_2 1_555 1_555
H48_3 O58_3 1_555 1_555
O60_3 Eu5_2 1_555 1_555
H50_3 O60_3 1_555 1_555
C31_3 O48_3 1_555 1_555
C32_3 C31_3 1_555 1_555
C33_3 C32_3 1_555 1_555
H51_3 C33_3 1_555 1_555
C34_3 S5_3 1_555 1_555
C35_3 C34_3 1_555 1_555
H52_3 C35_3 1_555 1_555
C36_3 C35_3 1_555 1_555
H53_3 C36_3 1_555 1_555
C37_3 C32_3 1_555 1_555
C38_3 C37_3 1_555 1_555
C39_3 C38_3 1_555 1_555
H54_3 C39_3 1_555 1_555
C40_3 C39_3 1_555 1_555
H55_3 C40_3 1_555 1_555
C41_3 S6_3 1_555 1_555
C42_3 C41_3 1_555 1_555
H56_3 C42_3 1_555 1_555
C43_3 C38_3 1_555 1_555
C44_3 C43_3 1_555 1_555
C45_3 O53_3 1_555 1_555
H57_3 C45_3 1_555 1_555
C46_3 O56_3 1_555 1_555
H58_3 C46_3 1_555 1_555
Eu9 O50_2 1_555 1_555
Eu11 O15_2 1_555 1_555
Eu13 O9 1_555 1_555
Eu14 O44 1_555 1_555
Eu15_2 O52_2 1_555 1_555
Eu16_2 O17_2 1_555 1_555
O63_2 Eu5_2 1_555 1_555
O64_2 Eu1_2 1_555 1_555
O67_2 Eu5_2 1_555 1_555
O68_2 Eu1_2 1_555 1_555
Eu2_3 O27_3 1_555 1_555
Eu2_3 O30_3 1_555 1_555
Eu17_2 O27_3 1_555 1_555
Eu17_2 O28_3 1_555 1_555
O24_3 C22_3 1_555 1_555
C3_3 C4_3 1_555 1_555
C6_3 C7_3 1_555 1_555
C10_3 C11_3 1_555 1_555
C12_3 C13_3 1_555 1_555
Eu6_3 O57_3 1_555 1_555
Eu6_3 O60_3 1_555 1_555
Eu18_2 O57_3 1_555 1_555
Eu18_2 O58_3 1_555 1_555
O54_3 C45_3 1_555 1_555
C33_3 C34_3 1_555 1_555
C36_3 C37_3 1_555 1_555
C40_3 C41_3 1_555 1_555
C42_3 C43_3 1_555 1_555
H45_3 O51_3 1_555 1_555
H46_3 O51_3 1_555 1_555
Eu13 O8_3 1_555 1_555
S3_3 O18_3 1_555 1_555
O8_3 H5_3 1_555 1_555
H6_3 O8_3 1_555 1_555
O10_3 Eu13 1_555 1_555
H7_3 O10_3 1_555 1_555
H8_3 O10_3 1_555 1_555
O12_3 H9_3 1_555 1_555
H10_3 O12_3 1_555 1_555
H12_3 O14_3 1_555 1_555
O19_3 S3_3 1_555 1_555
O20_2 S3_3 1_555 1_555
O21_3 Eu13 1_555 1_555
H17_3 O29_3 1_555 1_555
C15_3 O21_3 1_555 1_555
C16_3 C15_3 1_555 1_555
C17_3 C16_3 1_555 1_555
H25_3 C17_3 1_555 1_555
C18_3 S3_3 1_555 1_555
C19_3 C18_3 1_555 1_555
H26_3 C19_3 1_555 1_555
C20_3 C19_3 1_555 1_555
H27_3 C20_3 1_555 1_555
C21_3 C16_3 1_555 1_555
S4_3 O31_3 1_555 1_555
O32_3 S4_3 1_555 1_555
O33_2 S4_3 1_555 1_555
O34_3 C24_3 1_555 1_555
O35_3 C24_3 1_555 1_555
C24_3 C25_3 1_555 1_555
C25_3 C26_3 1_555 1_555
C26_3 H30_3 1_555 1_555
C27_3 S4_3 1_555 1_555
C28_3 C27_3 1_555 1_555
H31_3 C28_3 1_555 1_555
C29_3 C28_3 1_555 1_555
H32_3 C29_3 1_555 1_555
C30_3 C21_3 1_555 1_555
Eu14 O34_3 1_555 1_555
O43_3 Eu14 1_555 1_555
H37_3 O43_3 1_555 1_555
H38_3 O43_3 1_555 1_555
O45_3 Eu14 1_555 1_555
H39_3 O45_3 1_555 1_555
H40_3 O45_3 1_555 1_555
O47_3 H41_3 1_555 1_555
H44_3 O49_3 1_555 1_555
H49_3 O59_3 1_555 1_555
Eu9 O33_2 1_555 1_555
Eu11 O20_2 1_555 1_555
Eu13 O29_3 1_555 1_555
O22_3 C15_3 1_555 1_555
C17_3 C18_3 1_555 1_555
C20_3 C21_3 1_555 1_555
C25_3 C30_3 1_555 1_555
C26_3 C27_3 1_555 1_555
C29_3 C30_3 1_555 1_555
Eu14 O59_3 1_555 1_555
S2_4 O5_4 1_555 1_555
O7_4 S2_4 1_555 1_555
O9_2 S2_4 1_555 1_555
O63_2 C14_4 1_555 1_555
O65_2 C14_4 1_555 1_555
H21_4 C6_4 1_555 1_555
C9_4 C8_4 1_555 1_555
C10_4 C9_4 1_555 1_555
H23_4 C10_4 1_555 1_555
C11_4 S2_4 1_555 1_555
C12_4 C11_4 1_555 1_555
H24_4 C12_4 1_555 1_555
C13_4 C8_4 1_555 1_555
C14_4 C13_4 1_555 1_555
Eu15_2 O9_2 1_555 1_555
C10_4 C11_4 1_555 1_555
C12_4 C13_4 1_555 1_555
Eu9 O11_4 1_555 1_555
Eu15_2 O8_4 1_555 1_555
Eu17 O12_4 1_555 1_555
S3_4 O18_4 1_555 1_555
O6_4 Eu2_4 1_555 1_555
H3_4 O6_4 1_555 1_555
H4_4 O6_4 1_555 1_555
O8_4 H5_4 1_555 1_555
H6_4 O8_4 1_555 1_555
O10_4 Eu15_2 1_555 1_555
H7_4 O10_4 1_555 1_555
H8_4 O10_4 1_555 1_555
O11_4 C1_4 1_555 1_555
O12_4 H9_4 1_555 1_555
H10_4 O12_4 1_555 1_555
O13_4 Eu2_4 1_555 1_555
O14_4 Eu17 1_555 1_555
H11_4 O14_4 1_555 1_555
H12_4 O14_4 1_555 1_555
O16_4 Eu17 1_555 1_555
H13_4 O16_4 1_555 1_555
H14_4 O16_4 1_555 1_555
O19_4 S3_4 1_555 1_555
O67_2 S3_4 1_555 1_555
O21_4 Eu15_2 1_555 1_555
O22_4 Eu2_4 1_555 1_555
O23_4 Eu9 1_555 1_555
O24_4 Eu9 1_555 1_555
O69 C23_4 1_555 1_555
O26_4 Eu17 1_555 1_555
O27_4 Eu9 1_555 1_555
H15_4 O27_4 1_555 1_555
O28_4 Eu9 1_555 1_555
H16_4 O28_4 1_555 1_555
O29_4 Eu2_4 1_555 1_555
H17_4 O29_4 1_555 1_555
O30_4 Eu9 1_555 1_555
H18_4 O30_4 1_555 1_555
C1_4 O13_4 1_555 1_555
C2_4 C1_4 1_555 1_555
C3_4 C2_4 1_555 1_555
H19_4 C3_4 1_555 1_555
C5_4 C4_4 1_555 1_555
C7_4 C2_4 1_555 1_555
C15_4 O21_4 1_555 1_555
C16_4 C15_4 1_555 1_555
C17_4 C16_4 1_555 1_555
H25_4 C17_4 1_555 1_555
C18_4 S3_4 1_555 1_555
C21_4 C16_4 1_555 1_555
C22_4 O23_4 1_555 1_555
C23_4 O26_4 1_555 1_555
H29_4 C23_4 1_555 1_555
H31_4 C28_4 1_555 1_555
C29_4 C28_4 1_555 1_555
H32_4 C29_4 1_555 1_555
S5_4 O36_4 1_555 1_555
O36_4 Eu2_4 1_555 1_555
O37_4 S5_4 1_555 1_555
O38_4 S5_4 1_555 1_555
H33_4 O39_4 1_555 1_555
H34_4 O39_4 1_555 1_555
Eu2_4 O27_4 1_555 1_555
Eu2_4 O30_4 1_555 1_555
Eu15_2 O28_4 1_555 1_555
Eu15_2 O29_4 1_555 1_555
Eu15_2 O30_4 1_555 1_555
Eu17 O27_4 1_555 1_555
Eu17 O28_4 1_555 1_555
Eu17 O29_4 1_555 1_555
O22_4 C15_4 1_555 1_555
O24_4 C22_4 1_555 1_555
C3_4 C4_4 1_555 1_555
C17_4 C18_4 1_555 1_555
S6_4 O40_4 1_555 1_555
O42_4 S6_4 1_555 1_555
O44_2 S6_4 1_555 1_555
O64_2 C44_4 1_555 1_555
O66_2 C44_4 1_555 1_555
H53_4 C36_4 1_555 1_555
C39_4 C38_4 1_555 1_555
C40_4 C39_4 1_555 1_555
H55_4 C40_4 1_555 1_555
C41_4 S6_4 1_555 1_555
C42_4 C41_4 1_555 1_555
H56_4 C42_4 1_555 1_555
C43_4 C38_4 1_555 1_555
C44_4 C43_4 1_555 1_555
Eu16_2 O44_2 1_555 1_555
C40_4 C41_4 1_555 1_555
C42_4 C43_4 1_555 1_555
S1_4 O1_4 1_555 1_555
O1_4 Eu6_4 1_555 1_555
O2_4 S1_4 1_555 1_555
O3_4 S1_4 1_555 1_555
O4_4 H1_4 1_555 1_555
H2_4 O4_4 1_555 1_555
H26_4 C19_4 1_555 1_555
C20_4 C19_4 1_555 1_555
H27_4 C20_4 1_555 1_555
S4_4 O31_4 1_555 1_555
O32_4 S4_4 1_555 1_555
O68_2 S4_4 1_555 1_555
O34_4 C24_4 1_555 1_555
O35_4 C24_4 1_555 1_555
C24_4 C25_4 1_555 1_555
C25_4 C26_4 1_555 1_555
C26_4 H30_4 1_555 1_555
C27_4 S4_4 1_555 1_555
Eu11 O46_4 1_555 1_555
Eu6_4 O35_4 1_555 1_555
Eu16_2 O34_4 1_555 1_555
Eu18 O47_4 1_555 1_555
O41_4 Eu6_4 1_555 1_555
H35_4 O41_4 1_555 1_555
H36_4 O41_4 1_555 1_555
O43_4 Eu16_2 1_555 1_555
H37_4 O43_4 1_555 1_555
H38_4 O43_4 1_555 1_555
O45_4 Eu16_2 1_555 1_555
H39_4 O45_4 1_555 1_555
H40_4 O45_4 1_555 1_555
O46_4 C31_4 1_555 1_555
O47_4 H41_4 1_555 1_555
O48_4 Eu6_4 1_555 1_555
O49_4 Eu18 1_555 1_555
H43_4 O49_4 1_555 1_555
H44_4 O49_4 1_555 1_555
O53_4 Eu11 1_555 1_555
O54_4 Eu11 1_555 1_555
O56_4 Eu18 1_555 1_555
O57_4 Eu11 1_555 1_555
H47_4 O57_4 1_555 1_555
O58_4 Eu11 1_555 1_555
H48_4 O58_4 1_555 1_555
O59_4 Eu6_4 1_555 1_555
H49_4 O59_4 1_555 1_555
O60_4 Eu11 1_555 1_555
H50_4 O60_4 1_555 1_555
C31_4 O48_4 1_555 1_555
C32_4 C31_4 1_555 1_555
C33_4 C32_4 1_555 1_555
H51_4 C33_4 1_555 1_555
C35_4 C34_4 1_555 1_555
C37_4 C32_4 1_555 1_555
C45_4 O53_4 1_555 1_555
C46_4 O56_4 1_555 1_555
H58_4 C46_4 1_555 1_555
C25_4 C30_4 1_555 1_555
C26_4 C27_4 1_555 1_555
Eu6_4 O57_4 1_555 1_555
Eu6_4 O60_4 1_555 1_555
Eu16_2 O58_4 1_555 1_555
Eu16_2 O59_4 1_555 1_555
Eu16_2 O60_4 1_555 1_555
Eu18 O57_4 1_555 1_555
Eu18 O58_4 1_555 1_555
Eu18 O59_4 1_555 1_555
O54_4 C45_4 1_555 1_555
C33_4 C34_4 1_555 1_555
H45_4 O51_4 1_555 1_555
H46_4 O51_4 1_555 1_555

#END
