
###############################################################################
#
# This file contains modified crystal structure data generated from the
# MOF subset of the Cambridge Structural Database (CSD) v543 
# hosted by the Cambridge Crystallographic Data Centre (CCDC).
#
# This work is licensed under the Creative Commons
# Attribution-NonCommercial-ShareAlike 4.0 International License.
# To view a copy of this license, visit
# http://creativecommons.org/licenses/by-nc-sa/4.0/
# or send a letter to
# Creative Commons, PO Box 1866, Mountain View, CA 94042, USA.
#
# CIF created using the CSD Python API on 29 September 2022
# The structure has been converted into the P1 space group
# The structure has a 3D framework
# The original CSD entry BONCEP is in the triclinic crystal system
# The framework has been calculated to contain at least 10.0% void space
# The void calculation uses a probe of radius 1.32A, grid spacing 0.4
#
###############################################################################

data_BONCEP
_chemical_formula_moiety         '(C82 H50 Cd2 N12 O20)n'
_symmetry_cell_setting           triclinic
_symmetry_space_group_name_H-M   'P 1'
_symmetry_Int_Tables_number      1
_space_group_name_Hall           'P 1'
loop_
_symmetry_equiv_pos_site_id
_symmetry_equiv_pos_as_xyz
1 x,y,z
_cell_length_a                   10.807(5)
_cell_length_b                   13.173(6)
_cell_length_c                   16.344(7)
_cell_angle_alpha                77.063(7)
_cell_angle_beta                 82.965(7)
_cell_angle_gamma                69.313(6)
_cell_volume                     2119.07
loop_
_atom_site_label
_atom_site_type_symbol
_atom_site_fract_x
_atom_site_fract_y
_atom_site_fract_z
_atom_site_U_iso_or_equiv
_atom_site_thermal_displace_type
C23 C 0.023(14) 0.274(12) 0.390(9) 0.0472 Uani
H10 H 0.0755 0.3032 0.3497 0.0570 Uiso
C28 C 0.106(14) 0.425(11) 0.465(9) 0.0424 Uani
H13 H 0.1769 0.3754 0.4412 0.0540 Uiso
Cd2 Cd 0.0276(8) 0.1172(7) 0.2702(6) 0.0350 Uani
C37 C 0.090(17) 0.824(13) 0.545(10) 0.0562 Uani
H21 H 0.1288 0.8792 0.5303 0.0690 Uiso
C38 C 0.107(16) 0.746(14) 0.500(10) 0.0577 Uani
H22 H 0.1604 0.7354 0.4518 0.0690 Uiso
C39 C 0.015(14) 0.592(11) 0.519(9) 0.0470 Uani
C41 C 0.121(14) 0.517(11) 0.485(9) 0.0472 Uani
H24 H 0.2026 0.5270 0.4763 0.0560 Uiso
N5 N 0.009(11) 0.812(9) 0.615(8) 0.0438 Uani
N6 N 0.028(12) 0.685(9) 0.541(8) 0.0423 Uani
O29 O 0.197(9) 0.224(9) 0.214(8) 0.0664 Uani
O31 O 0.249(9) 0.051(9) 0.269(8) 0.0644 Uani
C1 C 0.843(12) 0.242(10) 0.148(8) 0.0366 Uani
C2 C 0.751(11) 0.290(9) 0.078(7) 0.0308 Uani
C3 C 0.777(13) 0.372(11) 0.016(8) 0.0426 Uani
H1 H 0.8506 0.3923 0.0192 0.0520 Uiso
C7 C 0.556(12) 0.314(10) 0.007(8) 0.0348 Uani
H3 H 0.4821 0.2954 0.0039 0.0440 Uiso
C8 C 0.640(10) 0.259(9) 0.075(8) 0.0304 Uani
C9 C 0.598(11) 0.176(9) 0.141(8) 0.0325 Uani
C10 C 0.466(11) 0.198(10) 0.165(8) 0.0379 Uani
H4 H 0.4043 0.2661 0.1440 0.0450 Uiso
C11 C 0.424(10) 0.119(10) 0.219(8) 0.0345 Uani
C12 C 0.515(12) 0.020(10) 0.255(8) 0.0354 Uani
C14 C 0.278(13) 0.134(13) 0.236(10) 0.0482 Uani
C15 C 0.691(11) 0.074(9) 0.176(7) 0.0285 Uani
H6 H 0.7795 0.0606 0.1594 0.0360 Uiso
C24 C 0.910(17) 0.176(13) 0.455(10) 0.0562 Uani
H11 H 0.8712 0.1208 0.4697 0.0690 Uiso
C25 C 0.893(16) 0.254(14) 0.500(10) 0.0577 Uani
H12 H 0.8396 0.2646 0.5482 0.0690 Uiso
C26 C 0.985(14) 0.408(11) 0.481(9) 0.0470 Uani
C29 C 0.879(14) 0.483(11) 0.515(9) 0.0472 Uani
H14 H 0.7974 0.4730 0.5237 0.0560 Uiso
C30 C 0.547(18) 0.370(13) 0.440(10) 0.0609 Uani
H15 H 0.5375 0.4377 0.4522 0.0720 Uiso
C31 C 0.507(17) 0.288(13) 0.492(10) 0.0580 Uani
H16 H 0.4670 0.2898 0.5459 0.0700 Uiso
C32 C 0.596(13) 0.239(10) 0.373(8) 0.0383 Uani
H17 H 0.6267 0.1976 0.3307 0.0480 Uiso
C33 C 0.521(15) 0.101(10) 0.475(8) 0.0450 Uani
C34 C 0.619(15) 0.005(12) 0.457(10) 0.0512 Uani
H18 H 0.6987 0.0081 0.4297 0.0640 Uiso
C35 C 0.405(15) 0.095(12) 0.518(10) 0.0558 Uani
H19 H 0.3411 0.1591 0.5310 0.0660 Uiso
Cd1 Cd 0.6706(9) 0.4319(7) 0.2509(6) 0.0355 Uani
N1 N 0.991(11) 0.188(9) 0.385(8) 0.0438 Uani
N2 N 0.972(12) 0.315(9) 0.459(8) 0.0423 Uani
N3 N 0.600(11) 0.337(9) 0.367(7) 0.0412 Uani
N4 N 0.541(13) 0.205(9) 0.448(7) 0.0493 Uani
O1 O 0.819(9) 0.277(7) 0.214(6) 0.0465 Uani
O2 O 0.950(9) 0.165(9) 0.137(6) 0.0537 Uani
O6 O 0.868(10) 0.027(8) 0.322(6) 0.0470 Uani
C36 C 0.977(14) 0.726(12) 0.610(9) 0.0472 Uani
H20 H 0.9245 0.6968 0.6503 0.0570 Uiso
C40 C 0.894(14) 0.575(11) 0.535(9) 0.0424 Uani
H23 H 0.8231 0.6246 0.5588 0.0540 Uiso
H34 H 0.5144 0.0303 0.7059 0.0420 Uiso
C60 C 0.344(11) 0.006(9) 0.767(8) 0.0306 Uani
C63 C 0.255(12) 0.117(9) 0.734(7) 0.0307 Uani
C64 C 0.301(12) 0.208(10) 0.725(8) 0.0319 Uani
H36 H 0.3887 0.1951 0.7342 0.0420 Uiso
C65 C 0.213(12) 0.317(9) 0.703(8) 0.0336 Uani
C66 C 0.265(14) 0.409(10) 0.701(8) 0.0420 Uani
C67 C 0.085(13) 0.336(10) 0.689(9) 0.0446 Uani
H37 H 0.0274 0.4084 0.6755 0.0510 Uiso
C68 C 0.040(13) 0.249(9) 0.695(9) 0.0405 Uani
C69 C 0.124(11) 0.142(9) 0.714(8) 0.0325 Uani
C70 C 0.069(13) 0.051(9) 0.713(9) 0.0414 Uani
O17 O 0.182(9) 0.496(7) 0.723(7) 0.0500 Uani
O18 O 0.380(10) 0.399(9) 0.684(8) 0.0609 Uani
Cd8 Cd 0.3294(9) 0.5681(7) 0.7491(6) 0.0355 Uani
Cd11 Cd 0.9724(8) 0.8828(7) 0.7298(6) 0.0350 Uani
O22 O 0.484(11) 0.471(9) 0.179(6) 0.0554 Uani
O24 O 0.611(10) 0.569(8) 0.126(6) 0.0531 Uani
O25 O 0.818(9) 0.504(7) 0.277(7) 0.0500 Uani
O27 O 0.620(10) 0.601(9) 0.316(8) 0.0609 Uani
C4 C 0.695(13) 0.425(11) 0.950(8) 0.0427 Uani
H2 H 0.7139 0.4793 0.9080 0.0520 Uiso
C5 C 0.583(12) 0.397(10) 0.945(7) 0.0394 Uani
C6 C 0.489(14) 0.455(11) 0.875(8) 0.0424 Uani
O3 O 0.516(11) 0.529(9) 0.821(6) 0.0554 Uani
O4 O 0.389(10) 0.431(8) 0.874(6) 0.0531 Uani
C51 C 0.305(13) 0.575(11) 0.050(8) 0.0427 Uani
H31 H 0.2861 0.5207 0.0920 0.0520 Uiso
C52 C 0.417(12) 0.603(10) 0.055(7) 0.0394 Uani
C53 C 0.511(14) 0.545(11) 0.125(8) 0.0424 Uani
H5 H 0.4856 0.9697 0.2941 0.0420 Uiso
C13 C 0.656(11) 0.994(9) 0.233(8) 0.0306 Uani
C16 C 0.745(12) 0.883(9) 0.266(7) 0.0307 Uani
C17 C 0.699(12) 0.792(10) 0.275(8) 0.0319 Uani
H7 H 0.6113 0.8049 0.2658 0.0420 Uiso
C18 C 0.787(12) 0.683(9) 0.297(8) 0.0336 Uani
C19 C 0.735(14) 0.591(10) 0.299(8) 0.0420 Uani
C20 C 0.915(13) 0.664(10) 0.311(9) 0.0446 Uani
H8 H 0.9726 0.5916 0.3245 0.0510 Uiso
C21 C 0.960(13) 0.751(9) 0.305(9) 0.0405 Uani
C22 C 0.876(11) 0.858(9) 0.286(8) 0.0325 Uani
C27 C 0.931(13) 0.949(9) 0.287(9) 0.0414 Uani
C42 C 0.453(18) 0.630(13) 0.560(10) 0.0609 Uani
H25 H 0.4625 0.5623 0.5478 0.0720 Uiso
C43 C 0.493(17) 0.712(13) 0.508(10) 0.0580 Uani
H26 H 0.5330 0.7102 0.4541 0.0700 Uiso
C44 C 0.404(13) 0.761(10) 0.627(8) 0.0383 Uani
H27 H 0.3733 0.8024 0.6693 0.0480 Uiso
C45 C 0.479(15) 0.899(10) 0.525(8) 0.0450 Uani
C46 C 0.381(15) 0.995(12) 0.543(10) 0.0512 Uani
H28 H 0.3013 0.9919 0.5703 0.0640 Uiso
C47 C 0.595(15) 0.905(12) 0.482(10) 0.0558 Uani
H29 H 0.6589 0.8409 0.4690 0.0660 Uiso
N7 N 0.400(11) 0.663(9) 0.633(7) 0.0412 Uani
N8 N 0.459(13) 0.795(9) 0.552(7) 0.0493 Uani
C48 C 0.157(12) 0.758(10) 0.852(8) 0.0366 Uani
C49 C 0.249(11) 0.710(9) 0.922(7) 0.0308 Uani
C50 C 0.223(13) 0.628(11) 0.984(8) 0.0426 Uani
H30 H 0.1494 0.6077 0.9808 0.0520 Uiso
C54 C 0.444(12) 0.686(10) 0.993(8) 0.0348 Uani
H32 H 0.5179 0.7046 0.9961 0.0440 Uiso
C55 C 0.360(10) 0.741(9) 0.925(8) 0.0304 Uani
C56 C 0.402(11) 0.824(9) 0.859(8) 0.0325 Uani
C57 C 0.534(11) 0.802(10) 0.835(8) 0.0379 Uani
H33 H 0.5957 0.7339 0.8560 0.0450 Uiso
C58 C 0.576(10) 0.881(10) 0.781(8) 0.0345 Uani
C59 C 0.485(12) 0.980(10) 0.745(8) 0.0354 Uani
C61 C 0.722(13) 0.866(13) 0.764(10) 0.0482 Uani
C62 C 0.309(11) 0.926(9) 0.824(7) 0.0285 Uani
H35 H 0.2205 0.9394 0.8406 0.0360 Uiso
O11 O 0.181(9) 0.723(7) 0.786(6) 0.0465 Uani
O12 O 0.050(9) 0.835(9) 0.863(6) 0.0537 Uani
O16 O 0.132(10) 0.973(8) 0.678(6) 0.0470 Uani
O19 O 0.803(9) 0.776(9) 0.786(8) 0.0664 Uani
O20 O 0.751(9) 0.949(9) 0.731(8) 0.0644 Uani
H9 H 0.0481 0.7367 0.3141 0.0500 Uiso
O5 O 0.045(9) 0.940(8) 0.253(8) 0.0620 Uani
H38 H 0.9519 0.2633 0.6859 0.0500 Uiso
O15 O 0.955(9) 0.060(8) 0.747(8) 0.0620 Uani
H44 H 0.0375 0.7967 0.0737 0.1070 Uiso
C75 C 0.61(2) 0.012(18) 0.950(12) 0.0781 Uani
H42 H 0.6846 0.0178 0.9163 0.0940 Uiso
C77 C 0.08(2) 0.30(2) 0.910(14) 0.0861 Uani
H45 H 0.0320 0.3692 0.8871 0.1050 Uiso
C78 C 0.21(2) 0.260(19) 0.928(12) 0.0759 Uani
H46 H 0.2701 0.3018 0.9207 0.0970 Uiso
C79 C 0.14(2) 0.115(17) 0.964(14) 0.0773 Uani
H47 H 0.1387 0.0444 0.9855 0.0920 Uiso
C80 C 0.378(18) 0.073(16) 0.981(12) 0.0695 Uani
C82 C 0.484(19) 0.090(19) 0.931(13) 0.0785 Uani
H49 H 0.4722 0.1507 0.8873 0.0940 Uiso
N12 N 0.040(18) 0.203(17) 0.932(12) 0.0906 Uani
N13 N 0.247(16) 0.148(14) 0.961(11) 0.0759 Uani
C71 C 0.92(2) 0.70(2) 0.090(14) 0.0861 Uani
H39 H 0.9680 0.6308 0.1129 0.1050 Uiso
C72 C 0.79(2) 0.740(19) 0.072(12) 0.0759 Uani
H40 H 0.7299 0.6982 0.0793 0.0970 Uiso
C73 C 0.86(2) 0.885(17) 0.036(14) 0.0773 Uani
H41 H 0.8613 0.9556 0.0145 0.0920 Uiso
C74 C 0.622(18) 0.927(16) 0.019(12) 0.0695 Uani
C76 C 0.516(19) 0.910(19) 0.069(13) 0.0785 Uani
H43 H 0.5278 0.8493 0.1127 0.0940 Uiso
N10 N 0.960(18) 0.797(17) 0.068(12) 0.0906 Uani
N11 N 0.753(16) 0.852(14) 0.039(11) 0.0759 Uani
C81 C 0.39(2) 0.988(18) 0.050(12) 0.0781 Uani
H48 H 0.3154 0.9822 0.0837 0.0940 Uiso
H50 H 0.9625 0.2033 0.9263 0.1070 Uiso
loop_
_atom_site_aniso_label
_atom_site_aniso_U_11
_atom_site_aniso_U_22
_atom_site_aniso_U_33
_atom_site_aniso_U_23
_atom_site_aniso_U_13
_atom_site_aniso_U_12
C23 0.04 0.05 0.05 0 0 -0.02
C28 0.04 0.04 0.05 -0.01 0.01 -0.02
Cd2 0.023 0.031 0.052 -0.003 -0.006 -0.012
C37 0.07 0.06 0.06 -0.01 0 -0.05
C38 0.06 0.08 0.05 -0.01 0.01 -0.05
C39 0.05 0.04 0.05 0 0 -0.02
C41 0.04 0.05 0.05 0 0 -0.02
N5 0.03 0.04 0.07 -0.01 -0.01 -0.02
N6 0.04 0.04 0.05 0 -0.01 -0.02
O29 0.02 0.06 0.09 0.02 0 0
O31 0.03 0.05 0.11 0 0 -0.02
C1 0.03 0.04 0.04 0.01 -0.01 -0.02
C2 0.02 0.03 0.04 0 0 -0.01
C3 0.04 0.05 0.04 0.01 0 -0.03
C7 0.02 0.04 0.04 0 0 -0.01
C8 0.02 0.02 0.04 0.01 -0.01 0
C9 0.02 0.03 0.04 0.01 0 -0.01
C10 0.02 0.03 0.05 0.01 -0.01 0
C11 0.01 0.04 0.05 0 0 -0.01
C12 0.03 0.03 0.05 0 0 -0.02
C14 0.03 0.06 0.06 -0.01 -0.01 -0.02
C15 0.02 0.02 0.04 0.01 0 -0.01
C24 0.07 0.06 0.06 -0.01 0 -0.05
C25 0.06 0.08 0.05 -0.01 0.01 -0.05
C26 0.05 0.04 0.05 0 0 -0.02
C29 0.04 0.05 0.05 0 0 -0.02
C30 0.09 0.05 0.05 -0.01 0.02 -0.04
C31 0.08 0.05 0.05 -0.01 0.03 -0.04
C32 0.04 0.03 0.04 0.01 0.01 -0.02
C33 0.06 0.03 0.04 0.01 0 -0.02
C34 0.05 0.04 0.06 0.01 0.02 -0.03
C35 0.05 0.04 0.07 0 0.02 -0.02
Cd1 0.037 0.027 0.042 0.008 -0.005 -0.018
N1 0.03 0.04 0.07 -0.01 -0.01 -0.02
N2 0.04 0.04 0.05 0 -0.01 -0.02
N3 0.05 0.03 0.04 0.01 0 -0.02
N4 0.07 0.04 0.04 0 0.01 -0.03
O1 0.04 0.03 0.06 0 -0.02 0
O2 0.02 0.07 0.06 0 0 -0.01
O6 0.05 0.04 0.06 -0.01 0.01 -0.03
C36 0.04 0.05 0.05 0 0 -0.02
C40 0.04 0.04 0.05 -0.01 0.01 -0.02
C60 0.02 0.02 0.05 -0.01 -0.01 0
C63 0.03 0.02 0.04 0 0 -0.01
C64 0.03 0.03 0.04 0 0 -0.02
C65 0.04 0.02 0.04 0 -0.01 -0.01
C66 0.05 0.03 0.05 0.01 0 -0.03
C67 0.04 0.03 0.06 0 -0.01 -0.01
C68 0.04 0.02 0.06 0.01 -0.03 -0.01
C69 0.02 0.03 0.04 0.01 0 -0.01
C70 0.04 0.02 0.06 0.01 -0.02 -0.01
O17 0.04 0.03 0.08 -0.01 -0.01 -0.01
O18 0.04 0.06 0.09 -0.02 0.02 -0.03
Cd8 0.037 0.027 0.042 0.008 -0.005 -0.018
Cd11 0.023 0.031 0.052 -0.003 -0.006 -0.012
O22 0.06 0.05 0.05 0.02 0 -0.03
O24 0.04 0.05 0.06 0.02 -0.01 -0.02
O25 0.04 0.03 0.08 -0.01 -0.01 -0.01
O27 0.04 0.06 0.09 -0.02 0.02 -0.03
C4 0.03 0.04 0.05 0.02 0 -0.02
C5 0.04 0.03 0.03 0.01 0 0
C6 0.04 0.04 0.04 0 0 -0.01
O3 0.06 0.05 0.05 0.02 0 -0.03
O4 0.04 0.05 0.06 0.02 -0.01 -0.02
C51 0.03 0.04 0.05 0.02 0 -0.02
C52 0.04 0.03 0.03 0.01 0 0
C53 0.04 0.04 0.04 0 0 -0.01
C13 0.02 0.02 0.05 -0.01 -0.01 0
C16 0.03 0.02 0.04 0 0 -0.01
C17 0.03 0.03 0.04 0 0 -0.02
C18 0.04 0.02 0.04 0 -0.01 -0.01
C19 0.05 0.03 0.05 0.01 0 -0.03
C20 0.04 0.03 0.06 0 -0.01 -0.01
C21 0.04 0.02 0.06 0.01 -0.03 -0.01
C22 0.02 0.03 0.04 0.01 0 -0.01
C27 0.04 0.02 0.06 0.01 -0.02 -0.01
C42 0.09 0.05 0.05 -0.01 0.02 -0.04
C43 0.08 0.05 0.05 -0.01 0.03 -0.04
C44 0.04 0.03 0.04 0.01 0.01 -0.02
C45 0.06 0.03 0.04 0.01 0 -0.02
C46 0.05 0.04 0.06 0.01 0.02 -0.03
C47 0.05 0.04 0.07 0 0.02 -0.02
N7 0.05 0.03 0.04 0.01 0 -0.02
N8 0.07 0.04 0.04 0 0.01 -0.03
C48 0.03 0.04 0.04 0.01 -0.01 -0.02
C49 0.02 0.03 0.04 0 0 -0.01
C50 0.04 0.05 0.04 0.01 0 -0.03
C54 0.02 0.04 0.04 0 0 -0.01
C55 0.02 0.02 0.04 0.01 -0.01 0
C56 0.02 0.03 0.04 0.01 0 -0.01
C57 0.02 0.03 0.05 0.01 -0.01 0
C58 0.01 0.04 0.05 0 0 -0.01
C59 0.03 0.03 0.05 0 0 -0.02
C61 0.03 0.06 0.06 -0.01 -0.01 -0.02
C62 0.02 0.02 0.04 0.01 0 -0.01
O11 0.04 0.03 0.06 0 -0.02 0
O12 0.02 0.07 0.06 0 0 -0.01
O16 0.05 0.04 0.06 -0.01 0.01 -0.03
O19 0.02 0.06 0.09 0.02 0 0
O20 0.03 0.05 0.11 0 0 -0.02
O5 0.03 0.05 0.11 -0.02 0.01 -0.02
O15 0.03 0.05 0.11 -0.02 0.01 -0.02
C75 0.09 0.09 0.06 0.01 -0.01 -0.05
C77 0.07 0.09 0.08 -0.01 0 -0.01
C78 0.06 0.1 0.07 0.01 0.01 -0.05
C79 0.07 0.07 0.09 -0.02 0 -0.02
C80 0.06 0.08 0.07 -0.02 -0.01 -0.02
C82 0.06 0.11 0.07 -0.02 0.02 -0.04
N12 0.07 0.11 0.09 -0.04 0.01 -0.02
N13 0.07 0.08 0.08 -0.02 -0.02 -0.02
C71 0.07 0.09 0.08 -0.01 0 -0.01
C72 0.06 0.1 0.07 0.01 0.01 -0.05
C73 0.07 0.07 0.09 -0.02 0 -0.02
C74 0.06 0.08 0.07 -0.02 -0.01 -0.02
C76 0.06 0.11 0.07 -0.02 0.02 -0.04
N10 0.07 0.11 0.09 -0.04 0.01 -0.02
N11 0.07 0.08 0.08 -0.02 -0.02 -0.02
C81 0.09 0.09 0.06 0.01 -0.01 -0.05
loop_
_geom_bond_atom_site_label_1
_geom_bond_atom_site_label_2
_geom_bond_site_symmetry_1
_geom_bond_site_symmetry_2
C23 H10 1_555 1_555
C28 H13 1_555 1_555
C37 H21 1_555 1_555
C38 C37 1_555 1_555
H22 C38 1_555 1_555
C41 C28 1_555 1_555
H24 C41 1_555 1_555
O29 Cd2 1_555 1_555
O31 Cd2 1_555 1_555
C37 N5 1_555 1_555
C38 N6 1_555 1_555
C39 C41 1_555 1_555
C39 N6 1_555 1_555
C1 C2 1_555 1_555
C2 C3 1_555 1_555
C3 H1 1_555 1_555
H3 C7 1_555 1_555
C8 C2 1_555 1_555
C9 C8 1_555 1_555
C10 C9 1_555 1_555
H4 C10 1_555 1_555
C11 C10 1_555 1_555
C12 C11 1_555 1_555
C14 C11 1_555 1_555
C15 C9 1_555 1_555
H6 C15 1_555 1_555
C24 H11 1_555 1_555
C25 C24 1_555 1_555
H12 C25 1_555 1_555
C29 C26 1_555 1_555
H14 C29 1_555 1_555
C30 H15 1_555 1_555
C31 C30 1_555 1_555
H16 C31 1_555 1_555
C32 H17 1_555 1_555
C33 C34 1_555 1_555
C34 H18 1_555 1_555
C35 C33 1_555 1_555
H19 C35 1_555 1_555
Cd1 N3 1_555 1_555
N3 C30 1_555 1_555
N4 C31 1_555 1_555
O1 C1 1_555 1_555
O2 C1 1_555 1_555
O29 C14 1_555 1_555
O31 C14 1_555 1_555
C36 H20 1_555 1_555
C40 C29 1_555 1_555
H23 C40 1_555 1_555
C63 C60 1_555 1_555
C64 C63 1_555 1_555
H36 C64 1_555 1_555
C65 C64 1_555 1_555
C66 C65 1_555 1_555
C67 C65 1_555 1_555
H37 C67 1_555 1_555
C68 C67 1_555 1_555
C69 C63 1_555 1_555
C70 C69 1_555 1_555
O17 C66 1_555 1_555
O18 C66 1_555 1_555
Cd8 O17 1_555 1_555
O22 Cd1 1_555 1_555
O24 Cd1 1_555 1_555
O25 Cd1 1_555 1_555
O27 Cd1 1_555 1_555
C7 C8 1_555 1_555
C24 N1 1_555 1_555
C25 N2 1_555 1_555
C26 N2 1_555 1_555
C32 N3 1_555 1_555
C32 N4 1_555 1_555
C33 N4 1_555 1_555
Cd1 O1 1_555 1_555
C68 C69 1_555 1_555
O18 Cd8 1_555 1_555
H2 C4 1_555 1_555
C5 C4 1_555 1_555
C6 C5 1_555 1_555
O3 C6 1_555 1_555
O4 C6 1_555 1_555
Cd8 O3 1_555 1_555
O4 Cd8 1_555 1_555
H31 C51 1_555 1_555
C52 C51 1_555 1_555
C53 C52 1_555 1_555
O22 C53 1_555 1_555
O24 C53 1_555 1_555
C16 C13 1_555 1_555
C17 C16 1_555 1_555
H7 C17 1_555 1_555
C18 C17 1_555 1_555
C19 C18 1_555 1_555
C20 C18 1_555 1_555
H8 C20 1_555 1_555
C21 C20 1_555 1_555
C22 C16 1_555 1_555
C27 C22 1_555 1_555
O25 C19 1_555 1_555
O27 C19 1_555 1_555
C42 H25 1_555 1_555
C43 C42 1_555 1_555
H26 C43 1_555 1_555
C44 H27 1_555 1_555
C45 C46 1_555 1_555
H28 C46 1_555 1_555
H29 C47 1_555 1_555
N7 C42 1_555 1_555
N8 C43 1_555 1_555
C48 C49 1_555 1_555
C49 C50 1_555 1_555
C50 H30 1_555 1_555
H32 C54 1_555 1_555
C55 C49 1_555 1_555
C56 C55 1_555 1_555
C57 C56 1_555 1_555
H33 C57 1_555 1_555
C58 C57 1_555 1_555
C59 C58 1_555 1_555
C61 C58 1_555 1_555
C62 C56 1_555 1_555
H35 C62 1_555 1_555
Cd8 N7 1_555 1_555
O11 C48 1_555 1_555
O12 C48 1_555 1_555
O19 C61 1_555 1_555
O20 C61 1_555 1_555
Cd11 O19 1_555 1_555
C21 C22 1_555 1_555
C44 N7 1_555 1_555
C44 N8 1_555 1_555
C45 C47 1_555 1_555
C45 N8 1_555 1_555
C54 C55 1_555 1_555
Cd8 O11 1_555 1_555
O20 Cd11 1_555 1_555
C75 H42 1_555 1_555
C77 H45 1_555 1_555
C78 C77 1_555 1_555
H46 C78 1_555 1_555
C79 H47 1_555 1_555
C82 C75 1_555 1_555
H49 C82 1_555 1_555
N12 C77 1_555 1_555
N13 C78 1_555 1_555
C79 N12 1_555 1_555
C79 N13 1_555 1_555
C80 C82 1_555 1_555
C80 N13 1_555 1_555
C71 H39 1_555 1_555
C72 C71 1_555 1_555
H40 C72 1_555 1_555
C73 H41 1_555 1_555
C76 C74 1_555 1_555
H43 C76 1_555 1_555
N10 C71 1_555 1_555
N11 C72 1_555 1_555
C81 C76 1_555 1_555
H48 C81 1_555 1_555
C73 N10 1_555 1_555
C73 N11 1_555 1_555
C74 N11 1_555 1_555

#END
