
###############################################################################
#
# This file contains modified crystal structure data generated from the
# MOF subset of the Cambridge Structural Database (CSD) v543 
# hosted by the Cambridge Crystallographic Data Centre (CCDC).
#
# This work is licensed under the Creative Commons
# Attribution-NonCommercial-ShareAlike 4.0 International License.
# To view a copy of this license, visit
# http://creativecommons.org/licenses/by-nc-sa/4.0/
# or send a letter to
# Creative Commons, PO Box 1866, Mountain View, CA 94042, USA.
#
# CIF created using the CSD Python API on 29 September 2022
# The structure has been converted into the P1 space group
# The structure has a 3D framework
# The original CSD entry BONMEX is in the monoclinic crystal system
# The framework has been calculated to contain at least 10.0% void space
# The void calculation uses a probe of radius 1.32A, grid spacing 0.4
#
###############################################################################

data_BONMEX
_chemical_formula_moiety         '(C160 H112 N32 Ni8 O35)n'
_symmetry_cell_setting           triclinic
_symmetry_space_group_name_H-M   'P 1'
_symmetry_Int_Tables_number      1
_space_group_name_Hall           'P 1'
loop_
_symmetry_equiv_pos_site_id
_symmetry_equiv_pos_as_xyz
1 x,y,z
_cell_length_a                   14.248(4)
_cell_length_b                   26.912(9)
_cell_length_c                   18.125(3)
_cell_angle_alpha                90
_cell_angle_beta                 100.584(6)
_cell_angle_gamma                90
_cell_volume                     6831.65
loop_
_atom_site_label
_atom_site_type_symbol
_atom_site_fract_x
_atom_site_fract_y
_atom_site_fract_z
Ni1 Ni 0.37506(3) 0.393544(15) 0.22649(2)
O1 O 0.43684(14) 0.44513(7) 0.16794(11)
O2 O 0.45643(15) 0.30323(9) 0.12632(13)
O3 O 0.59141(13) 0.42819(7) 0.17003(10)
N1 N 0.13396(18) 0.47490(10) 0.12781(16)
O4 O 0.33157(13) 0.35427(8) 0.12549(11)
O5 O 0.5000 0.35102(9) 0.2500
C1 C 0.5066(2) 0.47510(11) 0.06890(16)
N2 N 0.25437(17) 0.43670(10) 0.19946(15)
N3 N 0.2573(2) 0.29085(11) 0.35931(18)
C2 C 0.4212(2) 0.49452(12) 0.03303(18)
H1 H 0.3670 0.4908 0.0544
C3 C 0.3078(2) 0.28259(12) 0.04903(18)
C4 C 0.0660(2) 0.48794(13) 0.0630(2)
C5 C 0.2537(3) 0.26951(13) 0.4303(2)
C6 C 0.3700(2) 0.31633(13) 0.10398(18)
N4 N 0.30202(17) 0.34029(10) 0.27460(15)
C7 C 0.5124(2) 0.44697(11) 0.14164(17)
C10 C 0.2019(2) 0.43927(13) 0.13244(19)
H4 H 0.2102 0.4190 0.0926
C12 C 0.2125(2) 0.29307(12) 0.02466(19)
H6 H 0.1864 0.3219 0.0408
C13 C 0.3191(2) 0.32565(12) 0.34571(19)
H7 H 0.3682 0.3381 0.3819
C14 C 0.1682(3) 0.25643(14) 0.4483(2)
H8 H 0.1122 0.2608 0.4135
C15 C 0.1643(3) 0.23648(14) 0.5188(2)
H9 H 0.1060 0.2273 0.5308
C17 C 0.1444(3) 0.49616(14) 0.1980(2)
H11 H 0.1078 0.5215 0.2131
C18 C 0.2241(3) 0.31217(14) 0.2425(2)
H12 H 0.1949 0.3140 0.1923
C19 C 0.2197(3) 0.47210(14) 0.2407(2)
H13 H 0.2438 0.4790 0.2909
C20 C 0.1958(3) 0.28166(16) 0.2936(2)
H14 H 0.1453 0.2592 0.2857
Ni2 Ni 0.62494(3) 0.393544(15) 0.27351(2)
Ni7 Ni 0.12494(3) 0.106456(15) 0.77351(2)
O7 O 0.56316(14) 0.44513(7) 0.33206(11)
O10 O 0.40859(13) 0.42819(7) 0.32997(10)
O12 O 0.66843(13) 0.35427(8) 0.37451(11)
N7 N 0.74563(17) 0.43670(10) 0.30054(15)
N8 N 0.2427(2) 0.20915(11) 0.64069(18)
C25 C 0.2463(3) 0.23049(13) 0.5697(2)
N9 N 0.19798(17) 0.15971(10) 0.72540(15)
N10 N 0.69798(17) 0.34029(10) 0.22540(15)
C28 C 0.3444(2) 0.23900(13) 0.02361(19)
H16 H 0.4086 0.2314 0.0395
C29 C 0.5853(2) 0.48022(13) 0.03520(18)
H17 H 0.6434 0.4667 0.0581
C33 C 0.1809(2) 0.17435(12) 0.65429(19)
H21 H 0.1318 0.1619 0.6181
C34 C 0.3318(3) 0.24357(14) 0.5517(2)
H22 H 0.3878 0.2392 0.5865
C35 C 0.3357(3) 0.26352(14) 0.4812(2)
H23 H 0.3940 0.2727 0.4692
C38 C 0.2759(3) 0.18783(14) 0.7575(2)
H26 H 0.3051 0.1860 0.8077
C40 C 0.3042(3) 0.21834(16) 0.7064(2)
H28 H 0.3547 0.2408 0.7143
C8 C 0.1556(2) 0.26100(13) 0.97639(19)
H2 H 0.0914 0.2686 0.9605
C9 C 0.4147(2) 0.51978(13) 0.96480(18)
H3 H 0.3566 0.5333 0.9419
Ni4 Ni 0.62494(3) 0.606456(15) 0.77351(2)
Ni5 Ni 0.37506(3) 0.606456(15) 0.72649(2)
O6 O 0.56316(14) 0.55487(7) 0.83206(11)
O8 O 0.04357(15) 0.19677(9) 0.87368(13)
O9 O 0.40859(13) 0.57181(7) 0.82997(10)
O11 O 0.16843(13) 0.14573(8) 0.87451(11)
C21 C 0.4934(2) 0.52490(11) 0.93110(16)
C22 C 0.5788(2) 0.50548(12) 0.96697(18)
H15 H 0.6330 0.5092 0.9456
C23 C 0.1922(2) 0.21741(12) 0.95097(18)
C26 C 0.1300(2) 0.18367(13) 0.89602(18)
C27 C 0.4876(2) 0.55303(11) 0.85836(17)
C31 C 0.0112(2) 0.48414(13) 0.9301(2)
H19 H 0.0197 0.4733 0.8830
C32 C 0.2875(2) 0.20693(12) 0.97534(19)
H20 H 0.3136 0.1781 0.9592
C36 C 0.0774(2) 0.47192(14) 0.9936(2)
H24 H 0.1301 0.4526 0.9890
C11 C 0.9888(2) 0.51586(13) 0.0699(2)
H5 H 0.9803 0.5267 0.1170
C16 C 0.9226(2) 0.52808(14) 0.0064(2)
H10 H 0.8699 0.5474 0.0110
N5 N 0.86604(18) 0.52510(10) 0.87219(16)
N6 N 0.74563(17) 0.56330(10) 0.80054(15)
C24 C 0.9340(2) 0.51206(13) 0.9370(2)
C30 C 0.7981(2) 0.56073(13) 0.86756(19)
H18 H 0.7898 0.5810 0.9074
C37 C 0.8556(3) 0.50384(14) 0.8020(2)
H25 H 0.8922 0.4785 0.7869
C39 C 0.7803(3) 0.52790(14) 0.7593(2)
H27 H 0.7562 0.5210 0.7091
C11_2 C 0.0112(2) 0.51586(13) 0.4301(2)
H5_2 H 0.0197 0.5267 0.3830
C16_2 C 0.0774(2) 0.52808(14) 0.4936(2)
H10_2 H 0.1301 0.5474 0.4890
N5_2 N 0.13396(18) 0.52510(10) 0.62781(16)
N6_2 N 0.25437(17) 0.56330(10) 0.69946(15)
C24_2 C 0.0660(2) 0.51206(13) 0.5630(2)
C30_2 C 0.2019(2) 0.56073(13) 0.63244(19)
H18_2 H 0.2102 0.5810 0.5926
C37_2 C 0.1444(3) 0.50384(14) 0.6980(2)
H25_2 H 0.1078 0.4785 0.7131
C39_2 C 0.2197(3) 0.52790(14) 0.7407(2)
H27_2 H 0.2438 0.5210 0.7909
O2_2 O 0.54357(15) 0.30323(9) 0.37368(13)
N1_2 N 0.86604(18) 0.47490(10) 0.37219(16)
C1_2 C 0.4934(2) 0.47510(11) 0.43110(16)
N3_2 N 0.7427(2) 0.29085(11) 0.14069(18)
C2_2 C 0.5788(2) 0.49452(12) 0.46697(18)
H1_2 H 0.6330 0.4908 0.4456
C3_2 C 0.6922(2) 0.28259(12) 0.45097(18)
C4_2 C 0.9340(2) 0.48794(13) 0.4370(2)
C5_2 C 0.7463(3) 0.26951(13) 0.0697(2)
C6_2 C 0.6300(2) 0.31633(13) 0.39602(18)
C7_2 C 0.4876(2) 0.44697(11) 0.35836(17)
C8_2 C 0.8444(2) 0.26100(13) 0.52361(19)
H2_2 H 0.9086 0.2686 0.5395
C9_2 C 0.5853(2) 0.51978(13) 0.53520(18)
H3_2 H 0.6434 0.5333 0.5581
C10_2 C 0.7981(2) 0.43927(13) 0.36756(19)
H4_2 H 0.7898 0.4190 0.4074
C12_2 C 0.7875(2) 0.29307(12) 0.47534(19)
H6_2 H 0.8136 0.3219 0.4592
C13_2 C 0.6809(2) 0.32565(12) 0.15429(19)
H7_2 H 0.6318 0.3381 0.1181
C14_2 C 0.8318(3) 0.25643(14) 0.0517(2)
H8_2 H 0.8878 0.2608 0.0865
C17_2 C 0.8556(3) 0.49616(14) 0.3020(2)
H11_2 H 0.8922 0.5215 0.2869
C18_2 C 0.7759(3) 0.31217(14) 0.2575(2)
H12_2 H 0.8051 0.3140 0.3077
C19_2 C 0.7803(3) 0.47210(14) 0.2593(2)
H13_2 H 0.7562 0.4790 0.2091
C20_2 C 0.8042(3) 0.28166(16) 0.2064(2)
H14_2 H 0.8547 0.2592 0.2143
Ni6 Ni 0.87506(3) 0.106456(15) 0.72649(2)
O6_2 O 0.43684(14) 0.55487(7) 0.66794(11)
O8_2 O 0.95643(15) 0.19677(9) 0.62632(13)
O9_2 O 0.59141(13) 0.57181(7) 0.67003(10)
O11_2 O 0.83157(13) 0.14573(8) 0.62549(11)
C21_2 C 0.5066(2) 0.52490(11) 0.56890(16)
C22_2 C 0.4212(2) 0.50548(12) 0.53303(18)
H15_2 H 0.3670 0.5092 0.5544
C23_2 C 0.8078(2) 0.21741(12) 0.54903(18)
C26_2 C 0.8700(2) 0.18367(13) 0.60398(18)
C27_2 C 0.5124(2) 0.55303(11) 0.64164(17)
C28_2 C 0.6556(2) 0.23900(13) 0.47639(19)
H16_2 H 0.5914 0.2314 0.4605
C29_2 C 0.4147(2) 0.48022(13) 0.46480(18)
H17_2 H 0.3566 0.4667 0.4419
C31_2 C 0.9888(2) 0.48414(13) 0.5699(2)
H19_2 H 0.9803 0.4733 0.6170
C32_2 C 0.7125(2) 0.20693(12) 0.52466(19)
H20_2 H 0.6864 0.1781 0.5408
C35_2 C 0.6643(3) 0.26352(14) 0.0188(2)
H23_2 H 0.6060 0.2727 0.0308
C36_2 C 0.9226(2) 0.47192(14) 0.5064(2)
H24_2 H 0.8699 0.4526 0.5110
C15_2 C 0.8357(3) 0.23648(14) 0.9812(2)
H9_2 H 0.8940 0.2273 0.9692
N8_2 N 0.7573(2) 0.20915(11) 0.85931(18)
C25_2 C 0.7537(3) 0.23049(13) 0.9303(2)
N9_2 N 0.80202(17) 0.15971(10) 0.77460(15)
C33_2 C 0.8191(2) 0.17435(12) 0.84571(19)
H21_2 H 0.8682 0.1619 0.8819
C34_2 C 0.6682(3) 0.24357(14) 0.9483(2)
H22_2 H 0.6122 0.2392 0.9135
C38_2 C 0.7241(3) 0.18783(14) 0.7425(2)
H26_2 H 0.6949 0.1860 0.6923
C40_2 C 0.6958(3) 0.21834(16) 0.7936(2)
H28_2 H 0.6453 0.2408 0.7857
O6_3 O 0.06316(14) 0.05487(7) 0.83206(11)
C22_3 C 0.0788(2) 0.00548(12) 0.96697(18)
H15_3 H 0.1330 0.0092 0.9456
O3_2 O 0.09141(13) 0.92819(7) 0.17003(10)
O5_2 O -0.0000 0.85102(9) 0.2500
C1_3 C 0.0066(2) 0.97510(11) 0.06890(16)
C7_3 C 0.0124(2) 0.94697(11) 0.14164(17)
Ni2_2 Ni 0.12494(3) 0.893544(15) 0.27351(2)
O7_2 O 0.06316(14) 0.94513(7) 0.33206(11)
O12_2 O 0.16843(13) 0.85427(8) 0.37451(11)
N7_2 N 0.24563(17) 0.93670(10) 0.30054(15)
N10_2 N 0.19798(17) 0.84029(10) 0.22540(15)
C29_3 C 0.0853(2) 0.98022(13) 0.03520(18)
H17_3 H 0.1434 0.9667 0.0581
C11_3 C 0.4888(2) 0.01586(13) 0.0699(2)
H5_3 H 0.4803 0.0267 0.1170
C16_3 C 0.4226(2) 0.02808(14) 0.0064(2)
H10_3 H 0.3699 0.0474 0.0110
H11_3 H 0.6078 0.0215 0.2131
C9_3 C 0.9147(2) 0.01978(13) 0.96480(18)
H3_3 H 0.8566 0.0333 0.9419
O9_3 O 0.90859(13) 0.07181(7) 0.82997(10)
N5_3 N 0.36604(18) 0.02510(10) 0.87219(16)
C21_3 C 0.9934(2) 0.02490(11) 0.93110(16)
N6_3 N 0.24563(17) 0.06330(10) 0.80054(15)
C24_3 C 0.4340(2) 0.01206(13) 0.9370(2)
C27_3 C 0.9876(2) 0.05303(11) 0.85836(17)
C30_3 C 0.2981(2) 0.06073(13) 0.86756(19)
H18_3 H 0.2898 0.0810 0.9074
C37_3 C 0.3556(3) 0.00384(14) 0.8020(2)
C39_3 C 0.2803(3) 0.02790(14) 0.7593(2)
H27_3 H 0.2562 0.0210 0.7091
Ni1_2 Ni 0.87506(3) 0.893544(15) 0.22649(2)
O1_2 O 0.93684(14) 0.94513(7) 0.16794(11)
O2_3 O 0.95643(15) 0.80323(9) 0.12632(13)
N1_3 N 0.63396(18) 0.97490(10) 0.12781(16)
O4_2 O 0.83157(13) 0.85427(8) 0.12549(11)
O5_3 O 1.0000 0.85102(9) 0.2500
N2_2 N 0.75437(17) 0.93670(10) 0.19946(15)
N3_3 N 0.7573(2) 0.79085(11) 0.35931(18)
C2_3 C 0.9212(2) 0.99452(12) 0.03303(18)
H1_3 H 0.8670 0.9908 0.0544
C3_3 C 0.8078(2) 0.78259(12) 0.04903(18)
C4_3 C 0.5660(2) 0.98794(13) 0.0630(2)
C5_3 C 0.7537(3) 0.76951(13) 0.4303(2)
C6_3 C 0.8700(2) 0.81633(13) 0.10398(18)
N4_2 N 0.80202(17) 0.84029(10) 0.27460(15)
C10_3 C 0.7019(2) 0.93927(13) 0.13244(19)
H4_3 H 0.7102 0.9190 0.0926
C12_3 C 0.7125(2) 0.79307(12) 0.02466(19)
H6_3 H 0.6864 0.8219 0.0408
C13_3 C 0.8191(2) 0.82565(12) 0.34571(19)
H7_3 H 0.8682 0.8381 0.3819
C14_3 C 0.6682(3) 0.75643(14) 0.4483(2)
H8_3 H 0.6122 0.7608 0.4135
C15_3 C 0.6643(3) 0.73648(14) 0.5188(2)
H9_3 H 0.6060 0.7273 0.5308
C17_3 C 0.6444(3) 0.99616(14) 0.1980(2)
C18_3 C 0.7241(3) 0.81217(14) 0.2425(2)
H12_3 H 0.6949 0.8140 0.1923
C19_3 C 0.7197(3) 0.97210(14) 0.2407(2)
H13_3 H 0.7438 0.9790 0.2909
C20_3 C 0.6958(3) 0.78166(16) 0.2936(2)
H14_3 H 0.6453 0.7592 0.2857
O10_2 O 0.90859(13) 0.92819(7) 0.32997(10)
N8_3 N 0.7427(2) 0.70915(11) 0.64069(18)
C25_3 C 0.7463(3) 0.73049(13) 0.5697(2)
N9_3 N 0.69798(17) 0.65971(10) 0.72540(15)
C28_3 C 0.8444(2) 0.73900(13) 0.02361(19)
H16_3 H 0.9086 0.7314 0.0395
C33_3 C 0.6809(2) 0.67435(12) 0.65429(19)
H21_3 H 0.6318 0.6619 0.6181
C34_3 C 0.8318(3) 0.74357(14) 0.5517(2)
H22_3 H 0.8878 0.7392 0.5865
C35_3 C 0.8357(3) 0.76352(14) 0.4812(2)
H23_3 H 0.8940 0.7727 0.4692
C38_3 C 0.7759(3) 0.68783(14) 0.7575(2)
H26_3 H 0.8051 0.6860 0.8077
C40_3 C 0.8042(3) 0.71834(16) 0.7064(2)
H28_3 H 0.8547 0.7408 0.7143
C8_3 C 0.6556(2) 0.76100(13) 0.97639(19)
H2_3 H 0.5914 0.7686 0.9605
O8_3 O 0.54357(15) 0.69677(9) 0.87368(13)
O11_3 O 0.66843(13) 0.64573(8) 0.87451(11)
C23_3 C 0.6922(2) 0.71741(12) 0.95097(18)
C26_3 C 0.6300(2) 0.68367(13) 0.89602(18)
C31_3 C 0.5112(2) 0.98414(13) 0.9301(2)
H19_3 H 0.5197 0.9733 0.8830
C32_3 C 0.7875(2) 0.70693(12) 0.97534(19)
H20_3 H 0.8136 0.6781 0.9592
C36_3 C 0.5774(2) 0.97192(14) 0.9936(2)
H24_3 H 0.6301 0.9526 0.9890
H25_3 H 0.3922 0.9785 0.7869
C9_4 C 0.0853(2) 0.01978(13) 0.53520(18)
H3_4 H 0.1434 0.0333 0.5581
C11_4 C 0.5112(2) 0.01586(13) 0.4301(2)
H5_4 H 0.5197 0.0267 0.3830
C16_4 C 0.5774(2) 0.02808(14) 0.4936(2)
H10_4 H 0.6301 0.0474 0.4890
H11_4 H 0.3922 0.0215 0.2869
O9_4 O 0.09141(13) 0.07181(7) 0.67003(10)
N5_4 N 0.63396(18) 0.02510(10) 0.62781(16)
C21_4 C 0.0066(2) 0.02490(11) 0.56890(16)
N6_4 N 0.75437(17) 0.06330(10) 0.69946(15)
C24_4 C 0.5660(2) 0.01206(13) 0.5630(2)
C27_4 C 0.0124(2) 0.05303(11) 0.64164(17)
C30_4 C 0.7019(2) 0.06073(13) 0.63244(19)
H18_4 H 0.7102 0.0810 0.5926
C37_4 C 0.6444(3) 0.00384(14) 0.6980(2)
C39_4 C 0.7197(3) 0.02790(14) 0.7407(2)
H27_4 H 0.7438 0.0210 0.7909
O2_4 O 0.04357(15) 0.80323(9) 0.37368(13)
N1_4 N 0.36604(18) 0.97490(10) 0.37219(16)
N3_4 N 0.2427(2) 0.79085(11) 0.14069(18)
C2_4 C 0.0788(2) 0.99452(12) 0.46697(18)
H1_4 H 0.1330 0.9908 0.4456
C3_4 C 0.1922(2) 0.78259(12) 0.45097(18)
C4_4 C 0.4340(2) 0.98794(13) 0.4370(2)
C5_4 C 0.2463(3) 0.76951(13) 0.0697(2)
C6_4 C 0.1300(2) 0.81633(13) 0.39602(18)
C8_4 C 0.3444(2) 0.76100(13) 0.52361(19)
H2_4 H 0.4086 0.7686 0.5395
C10_4 C 0.2981(2) 0.93927(13) 0.36756(19)
H4_4 H 0.2898 0.9190 0.4074
C12_4 C 0.2875(2) 0.79307(12) 0.47534(19)
H6_4 H 0.3136 0.8219 0.4592
C13_4 C 0.1809(2) 0.82565(12) 0.15429(19)
H7_4 H 0.1318 0.8381 0.1181
C14_4 C 0.3318(3) 0.75643(14) 0.0517(2)
H8_4 H 0.3878 0.7608 0.0865
C17_4 C 0.3556(3) 0.99616(14) 0.3020(2)
C18_4 C 0.2759(3) 0.81217(14) 0.2575(2)
H12_4 H 0.3051 0.8140 0.3077
C19_4 C 0.2803(3) 0.97210(14) 0.2593(2)
H13_4 H 0.2562 0.9790 0.2091
C20_4 C 0.3042(3) 0.78166(16) 0.2064(2)
H14_4 H 0.3547 0.7592 0.2143
O8_4 O 0.45643(15) 0.69677(9) 0.62632(13)
O11_4 O 0.33157(13) 0.64573(8) 0.62549(11)
C23_4 C 0.3078(2) 0.71741(12) 0.54903(18)
C26_4 C 0.3700(2) 0.68367(13) 0.60398(18)
C28_4 C 0.1556(2) 0.73900(13) 0.47639(19)
H16_4 H 0.0914 0.7314 0.4605
C31_4 C 0.4888(2) 0.98414(13) 0.5699(2)
H19_4 H 0.4803 0.9733 0.6170
C32_4 C 0.2125(2) 0.70693(12) 0.52466(19)
H20_4 H 0.1864 0.6781 0.5408
C35_4 C 0.1643(3) 0.76352(14) 0.0188(2)
H23_4 H 0.1060 0.7727 0.0308
C36_4 C 0.4226(2) 0.97192(14) 0.5064(2)
H24_4 H 0.3699 0.9526 0.5110
H25_4 H 0.6078 0.9785 0.7131
C15_4 C 0.3357(3) 0.73648(14) 0.9812(2)
H9_4 H 0.3940 0.7273 0.9692
N8_4 N 0.2573(2) 0.70915(11) 0.85931(18)
C25_4 C 0.2537(3) 0.73049(13) 0.9303(2)
N9_4 N 0.30202(17) 0.65971(10) 0.77460(15)
C33_4 C 0.3191(2) 0.67435(12) 0.84571(19)
H21_4 H 0.3682 0.6619 0.8819
C34_4 C 0.1682(3) 0.74357(14) 0.9483(2)
H22_4 H 0.1122 0.7392 0.9135
C38_4 C 0.2241(3) 0.68783(14) 0.7425(2)
H26_4 H 0.1949 0.6860 0.6923
C40_4 C 0.1958(3) 0.71834(16) 0.7936(2)
H28_4 H 0.1453 0.7408 0.7857
O6_4 O 0.93684(14) 0.05487(7) 0.66794(11)
C22_4 C 0.9212(2) 0.00548(12) 0.53303(18)
H15_4 H 0.8670 0.0092 0.5544
C1_4 C 0.9934(2) 0.97510(11) 0.43110(16)
C7_4 C 0.9876(2) 0.94697(11) 0.35836(17)
C29_4 C 0.9147(2) 0.98022(13) 0.46480(18)
H17_4 H 0.8566 0.9667 0.4419
O5_4 O 0.5000 0.64898(9) 0.7500
O5_5 O 0.0000 0.14898(9) 0.7500
O5_6 O 1.0000 0.14898(9) 0.7500
loop_
_geom_bond_atom_site_label_1
_geom_bond_atom_site_label_2
_geom_bond_site_symmetry_1
_geom_bond_site_symmetry_2
Ni1 O1 1_555 1_555
O1 C7 1_555 1_555
O2 C6 1_555 1_555
O3 C7 1_555 1_555
N1 C4 1_555 1_555
O4 Ni1 1_555 1_555
O5 Ni1 1_555 1_555
C1 C2 1_555 1_555
N2 Ni1 1_555 1_555
N3 C5 1_555 1_555
C2 H1 1_555 1_555
C3 C6 1_555 1_555
C5 C14 1_555 1_555
C6 O4 1_555 1_555
N4 Ni1 1_555 1_555
C7 C1 1_555 1_555
C10 N1 1_555 1_555
H4 C10 1_555 1_555
C12 C3 1_555 1_555
H6 C12 1_555 1_555
C13 N3 1_555 1_555
H7 C13 1_555 1_555
C14 H8 1_555 1_555
C15 C14 1_555 1_555
H9 C15 1_555 1_555
C17 N1 1_555 1_555
H11 C17 1_555 1_555
C18 N4 1_555 1_555
H12 C18 1_555 1_555
C19 N2 1_555 1_555
H13 C19 1_555 1_555
C20 N3 1_555 1_555
H14 C20 1_555 1_555
Ni2 O3 1_555 1_555
Ni7 N9 1_555 1_555
O7 Ni2 1_555 1_555
O10 Ni1 1_555 1_555
O12 Ni2 1_555 1_555
N7 Ni2 1_555 1_555
N8 C25 1_555 1_555
C25 C15 1_555 1_555
N9 C33 1_555 1_555
N10 Ni2 1_555 1_555
C28 C3 1_555 1_555
H16 C28 1_555 1_555
C29 C1 1_555 1_555
H17 C29 1_555 1_555
C33 N8 1_555 1_555
H21 C33 1_555 1_555
C34 C25 1_555 1_555
H22 C34 1_555 1_555
C35 C5 1_555 1_555
H23 C35 1_555 1_555
C38 N9 1_555 1_555
H26 C38 1_555 1_555
C40 N8 1_555 1_555
H28 C40 1_555 1_555
O5 Ni2 1_555 1_555
N2 C10 1_555 1_555
N4 C13 1_555 1_555
C17 C19 1_555 1_555
C18 C20 1_555 1_555
C34 C35 1_555 1_555
C38 C40 1_555 1_555
C8 H2 1_555 1_555
H3 C9 1_555 1_555
Ni4 O6 1_555 1_555
Ni5 O9 1_555 1_555
Ni7 O11 1_555 1_555
O6 C27 1_555 1_555
O8 C26 1_555 1_555
O9 C27 1_555 1_555
O11 C26 1_555 1_555
C21 C9 1_555 1_555
C22 C21 1_555 1_555
H15 C22 1_555 1_555
C23 C8 1_555 1_555
C26 C23 1_555 1_555
C27 C21 1_555 1_555
H19 C31 1_555 1_555
C32 C23 1_555 1_555
H20 C32 1_555 1_555
H24 C36 1_555 1_555
C31 C36 1_555 1_555
C11 H5 1_555 1_555
C16 C11 1_555 1_555
H10 C16 1_555 1_555
Ni4 N6 1_555 1_555
N5 C24 1_555 1_555
N6 C30 1_555 1_555
C30 N5 1_555 1_555
H18 C30 1_555 1_555
C37 N5 1_555 1_555
H25 C37 1_555 1_555
C39 N6 1_555 1_555
H27 C39 1_555 1_555
C37 C39 1_555 1_555
C11_2 H5_2 1_555 1_555
C16_2 C11_2 1_555 1_555
H10_2 C16_2 1_555 1_555
Ni5 N6_2 1_555 1_555
N5_2 C24_2 1_555 1_555
N6_2 C30_2 1_555 1_555
C24_2 C16_2 1_555 1_555
C30_2 N5_2 1_555 1_555
H18_2 C30_2 1_555 1_555
C37_2 N5_2 1_555 1_555
H25_2 C37_2 1_555 1_555
C39_2 N6_2 1_555 1_555
H27_2 C39_2 1_555 1_555
C37_2 C39_2 1_555 1_555
O7 C7_2 1_555 1_555
O2_2 C6_2 1_555 1_555
O10 C7_2 1_555 1_555
N1_2 C4_2 1_555 1_555
C1_2 C2_2 1_555 1_555
N3_2 C5_2 1_555 1_555
C2_2 H1_2 1_555 1_555
C3_2 C6_2 1_555 1_555
C5_2 C14_2 1_555 1_555
C6_2 O12 1_555 1_555
C7_2 C1_2 1_555 1_555
C8_2 H2_2 1_555 1_555
C9_2 C2_2 1_555 1_555
H3_2 C9_2 1_555 1_555
C10_2 N1_2 1_555 1_555
H4_2 C10_2 1_555 1_555
C12_2 C3_2 1_555 1_555
H6_2 C12_2 1_555 1_555
C13_2 N3_2 1_555 1_555
H7_2 C13_2 1_555 1_555
C14_2 H8_2 1_555 1_555
C17_2 N1_2 1_555 1_555
H11_2 C17_2 1_555 1_555
C18_2 N10 1_555 1_555
H12_2 C18_2 1_555 1_555
C19_2 N7 1_555 1_555
H13_2 C19_2 1_555 1_555
C20_2 N3_2 1_555 1_555
H14_2 C20_2 1_555 1_555
Ni5 O6_2 1_555 1_555
Ni4 O9_2 1_555 1_555
Ni6 O11_2 1_555 1_555
O6_2 C27_2 1_555 1_555
O8_2 C26_2 1_555 1_555
O9_2 C27_2 1_555 1_555
O11_2 C26_2 1_555 1_555
C21_2 C9_2 1_555 1_555
C22_2 C21_2 1_555 1_555
H15_2 C22_2 1_555 1_555
C23_2 C8_2 1_555 1_555
C26_2 C23_2 1_555 1_555
C27_2 C21_2 1_555 1_555
C28_2 C3_2 1_555 1_555
H16_2 C28_2 1_555 1_555
C29_2 C1_2 1_555 1_555
H17_2 C29_2 1_555 1_555
H19_2 C31_2 1_555 1_555
C32_2 C23_2 1_555 1_555
H20_2 C32_2 1_555 1_555
C35_2 C5_2 1_555 1_555
H23_2 C35_2 1_555 1_555
C36_2 C4_2 1_555 1_555
H24_2 C36_2 1_555 1_555
N7 C10_2 1_555 1_555
N10 C13_2 1_555 1_555
C8_2 C12_2 1_555 1_555
C17_2 C19_2 1_555 1_555
C18_2 C20_2 1_555 1_555
C22_2 C29_2 1_555 1_555
C28_2 C32_2 1_555 1_555
C31_2 C36_2 1_555 1_555
H9_2 C15_2 1_555 1_555
Ni6 N9_2 1_555 1_555
N8_2 C25_2 1_555 1_555
C25_2 C15_2 1_555 1_555
N9_2 C33_2 1_555 1_555
C33_2 N8_2 1_555 1_555
H21_2 C33_2 1_555 1_555
C34_2 C25_2 1_555 1_555
H22_2 C34_2 1_555 1_555
C38_2 N9_2 1_555 1_555
H26_2 C38_2 1_555 1_555
C40_2 N8_2 1_555 1_555
H28_2 C40_2 1_555 1_555
C38_2 C40_2 1_555 1_555
Ni7 O6_3 1_555 1_555
H15_3 C22_3 1_555 1_555
O3_2 C7_3 1_555 1_555
C7_3 C1_3 1_555 1_555
Ni2_2 O3_2 1_555 1_555
O7_2 Ni2_2 1_555 1_555
O12_2 Ni2_2 1_555 1_555
N7_2 Ni2_2 1_555 1_555
N10_2 Ni2_2 1_555 1_555
C29_3 C1_3 1_555 1_555
H17_3 C29_3 1_555 1_555
O5_2 Ni2_2 1_555 1_555
C11_3 H5_3 1_555 1_555
C16_3 C11_3 1_555 1_555
H10_3 C16_3 1_555 1_555
H3_3 C9_3 1_555 1_555
Ni7 N6_3 1_555 1_555
Ni6 O9_3 1_555 1_555
O9_3 C27_3 1_555 1_555
N5_3 C24_3 1_555 1_555
C21_3 C9_3 1_555 1_555
N6_3 C30_3 1_555 1_555
C27_3 C21_3 1_555 1_555
C30_3 N5_3 1_555 1_555
H18_3 C30_3 1_555 1_555
C37_3 N5_3 1_555 1_555
C39_3 N6_3 1_555 1_555
H27_3 C39_3 1_555 1_555
C37_3 C39_3 1_555 1_555
Ni1_2 O1_2 1_555 1_555
O2_3 C6_3 1_555 1_555
N1_3 C4_3 1_555 1_555
O4_2 Ni1_2 1_555 1_555
O5_3 Ni1_2 1_555 1_555
N2_2 Ni1_2 1_555 1_555
N3_3 C5_3 1_555 1_555
C2_3 H1_3 1_555 1_555
C3_3 C6_3 1_555 1_555
C5_3 C14_3 1_555 1_555
C6_3 O4_2 1_555 1_555
N4_2 Ni1_2 1_555 1_555
C10_3 N1_3 1_555 1_555
H4_3 C10_3 1_555 1_555
C12_3 C3_3 1_555 1_555
H6_3 C12_3 1_555 1_555
C13_3 N3_3 1_555 1_555
H7_3 C13_3 1_555 1_555
C14_3 H8_3 1_555 1_555
C15_3 C14_3 1_555 1_555
H9_3 C15_3 1_555 1_555
C17_3 N1_3 1_555 1_555
C18_3 N4_2 1_555 1_555
H12_3 C18_3 1_555 1_555
C19_3 N2_2 1_555 1_555
H13_3 C19_3 1_555 1_555
C20_3 N3_3 1_555 1_555
H14_3 C20_3 1_555 1_555
Ni4 N9_3 1_555 1_555
O10_2 Ni1_2 1_555 1_555
N8_3 C25_3 1_555 1_555
C25_3 C15_3 1_555 1_555
N9_3 C33_3 1_555 1_555
C28_3 C3_3 1_555 1_555
H16_3 C28_3 1_555 1_555
C33_3 N8_3 1_555 1_555
H21_3 C33_3 1_555 1_555
C34_3 C25_3 1_555 1_555
H22_3 C34_3 1_555 1_555
C35_3 C5_3 1_555 1_555
H23_3 C35_3 1_555 1_555
C38_3 N9_3 1_555 1_555
H26_3 C38_3 1_555 1_555
C40_3 N8_3 1_555 1_555
H28_3 C40_3 1_555 1_555
N2_2 C10_3 1_555 1_555
N4_2 C13_3 1_555 1_555
C17_3 C19_3 1_555 1_555
C18_3 C20_3 1_555 1_555
C34_3 C35_3 1_555 1_555
C38_3 C40_3 1_555 1_555
C8_3 H2_3 1_555 1_555
Ni4 O11_3 1_555 1_555
O8_3 C26_3 1_555 1_555
O11_3 C26_3 1_555 1_555
C23_3 C8_3 1_555 1_555
C26_3 C23_3 1_555 1_555
H19_3 C31_3 1_555 1_555
C32_3 C23_3 1_555 1_555
H20_3 C32_3 1_555 1_555
H24_3 C36_3 1_555 1_555
C31_3 C36_3 1_555 1_555
H3_4 C9_4 1_555 1_555
C11_4 H5_4 1_555 1_555
C16_4 C11_4 1_555 1_555
H10_4 C16_4 1_555 1_555
Ni6 N6_4 1_555 1_555
Ni7 O9_4 1_555 1_555
O9_4 C27_4 1_555 1_555
N5_4 C24_4 1_555 1_555
C21_4 C9_4 1_555 1_555
N6_4 C30_4 1_555 1_555
C24_4 C16_4 1_555 1_555
C27_4 C21_4 1_555 1_555
C30_4 N5_4 1_555 1_555
H18_4 C30_4 1_555 1_555
C37_4 N5_4 1_555 1_555
C39_4 N6_4 1_555 1_555
H27_4 C39_4 1_555 1_555
C37_4 C39_4 1_555 1_555
O2_4 C6_4 1_555 1_555
N1_4 C4_4 1_555 1_555
N3_4 C5_4 1_555 1_555
C2_4 H1_4 1_555 1_555
C3_4 C6_4 1_555 1_555
C5_4 C14_4 1_555 1_555
C6_4 O12_2 1_555 1_555
C8_4 H2_4 1_555 1_555
C10_4 N1_4 1_555 1_555
H4_4 C10_4 1_555 1_555
C12_4 C3_4 1_555 1_555
H6_4 C12_4 1_555 1_555
C13_4 N3_4 1_555 1_555
H7_4 C13_4 1_555 1_555
C14_4 H8_4 1_555 1_555
C17_4 N1_4 1_555 1_555
C18_4 N10_2 1_555 1_555
H12_4 C18_4 1_555 1_555
C19_4 N7_2 1_555 1_555
H13_4 C19_4 1_555 1_555
C20_4 N3_4 1_555 1_555
H14_4 C20_4 1_555 1_555
Ni5 O11_4 1_555 1_555
O8_4 C26_4 1_555 1_555
O11_4 C26_4 1_555 1_555
C23_4 C8_4 1_555 1_555
C26_4 C23_4 1_555 1_555
C28_4 C3_4 1_555 1_555
H16_4 C28_4 1_555 1_555
H19_4 C31_4 1_555 1_555
C32_4 C23_4 1_555 1_555
H20_4 C32_4 1_555 1_555
C35_4 C5_4 1_555 1_555
H23_4 C35_4 1_555 1_555
C36_4 C4_4 1_555 1_555
H24_4 C36_4 1_555 1_555
N7_2 C10_4 1_555 1_555
N10_2 C13_4 1_555 1_555
C8_4 C12_4 1_555 1_555
C17_4 C19_4 1_555 1_555
C18_4 C20_4 1_555 1_555
C28_4 C32_4 1_555 1_555
C31_4 C36_4 1_555 1_555
H9_4 C15_4 1_555 1_555
Ni5 N9_4 1_555 1_555
N8_4 C25_4 1_555 1_555
C25_4 C15_4 1_555 1_555
N9_4 C33_4 1_555 1_555
C33_4 N8_4 1_555 1_555
H21_4 C33_4 1_555 1_555
C34_4 C25_4 1_555 1_555
H22_4 C34_4 1_555 1_555
C38_4 N9_4 1_555 1_555
H26_4 C38_4 1_555 1_555
C40_4 N8_4 1_555 1_555
H28_4 C40_4 1_555 1_555
C38_4 C40_4 1_555 1_555
Ni6 O6_4 1_555 1_555
H15_4 C22_4 1_555 1_555
O10_2 C7_4 1_555 1_555
C7_4 C1_4 1_555 1_555
C29_4 C1_4 1_555 1_555
H17_4 C29_4 1_555 1_555
O5_4 Ni4 1_555 1_555
O5_4 Ni5 1_555 1_555
O5_5 Ni7 1_555 1_555
O5_6 Ni6 1_555 1_555

#END
