
###############################################################################
#
# This file contains modified crystal structure data generated from the
# MOF subset of the Cambridge Structural Database (CSD) v543 
# hosted by the Cambridge Crystallographic Data Centre (CCDC).
#
# This work is licensed under the Creative Commons
# Attribution-NonCommercial-ShareAlike 4.0 International License.
# To view a copy of this license, visit
# http://creativecommons.org/licenses/by-nc-sa/4.0/
# or send a letter to
# Creative Commons, PO Box 1866, Mountain View, CA 94042, USA.
#
# CIF created using the CSD Python API on 29 September 2022
# The structure has been converted into the P1 space group
# The structure has a 3D framework
# The original CSD entry BONMAT is in the orthorhombic crystal system
# The framework has been calculated to contain at least 10.0% void space
# The void calculation uses a probe of radius 1.32A, grid spacing 0.4
#
###############################################################################

data_BONMAT
_chemical_formula_moiety         '(C320 H224 N64 Ni16 O77)n'
_symmetry_cell_setting           triclinic
_symmetry_space_group_name_H-M   'P 1'
_symmetry_Int_Tables_number      1
_space_group_name_Hall           'P 1'
loop_
_symmetry_equiv_pos_site_id
_symmetry_equiv_pos_as_xyz
1 x,y,z
_cell_length_a                   37.129(7)
_cell_length_b                   14.135(4)
_cell_length_c                   26.074(3)
_cell_angle_alpha                90
_cell_angle_beta                 90
_cell_angle_gamma                90
_cell_volume                     13684.1
loop_
_atom_site_label
_atom_site_type_symbol
_atom_site_fract_x
_atom_site_fract_y
_atom_site_fract_z
Ni1 Ni 0.269528(16) 0.13562(4) 0.25024(2)
O1 O 0.2500 0.2500 0.29271(18)
O2 O 0.29389(10) 0.2251(3) 0.19709(14)
O3 O 0.27927(10) 0.3757(2) 0.21409(15)
O4 O 0.43306(10) 0.3840(3) 0.04025(15)
C1 C 0.32979(14) 0.3451(4) 0.1623(2)
O5 O 0.43668(12) 0.5126(3) 0.08885(19)
N3 N 0.28904(12) 0.0286(3) 0.20500(19)
C2 C 0.37735(16) 0.3128(4) 0.1017(2)
H1 H 0.3893 0.2703 0.0805
C3 C 0.38894(14) 0.4057(4) 0.1041(2)
C4 C 0.34080(16) 0.4386(4) 0.1638(2)
H2 H 0.3275 0.4816 0.1832
C5 C 0.34801(16) 0.2818(4) 0.1306(2)
H3 H 0.3406 0.2190 0.1288
C7 C 0.29813(13) 0.3110(4) 0.19387(19)
C8 C 0.32298(17) 0.0069(5) 0.2002(3)
H4 H 0.3414 0.0346 0.2192
C9 C 0.37064(16) 0.4700(4) 0.1378(3)
H5 H 0.3789 0.5316 0.1420
C11 C 0.42255(14) 0.4411(4) 0.0757(2)
H8 H 0.3902 0.0169 0.1623
Ni2 Ni 0.230472(16) 0.36438(4) 0.25024(2)
Ni3 Ni 0.480472(16) 0.38562(4) 0.00024(2)
Ni5 Ni 0.019528(16) 0.11438(4) 0.00024(2)
O6 O 0.20611(10) 0.2749(3) 0.19709(14)
O7 O 0.22073(10) 0.1243(2) 0.21409(15)
O8 O 0.06694(10) 0.1160(3) 0.04025(15)
O9 O 0.31694(10) 0.1340(3) 0.29025(15)
O10 O 0.18306(10) 0.3660(3) 0.29025(15)
C21 C 0.17021(14) 0.1549(4) 0.1623(2)
N8 N 0.21096(12) 0.4714(3) 0.20500(19)
N9 N 0.25021(13) 0.0413(4) 0.30474(19)
N10 N 0.24979(13) 0.4587(4) 0.30474(19)
C22 C 0.12265(16) 0.1872(4) 0.1017(2)
H15 H 0.1107 0.2297 0.0805
C23 C 0.11106(14) 0.0943(4) 0.1041(2)
C24 C 0.15920(16) 0.0614(4) 0.1638(2)
H16 H 0.1725 0.0184 0.1832
C25 C 0.15199(16) 0.2182(4) 0.1306(2)
H17 H 0.1594 0.2810 0.1288
C27 C 0.20187(13) 0.1890(4) 0.19387(19)
C29 C 0.12936(16) 0.0300(4) 0.1378(3)
C30 C 0.21568(14) 0.0240(4) 0.3134(2)
H20 H 0.1969 0.0535 0.2961
C31 C 0.07745(14) 0.0589(4) 0.0757(2)
H23 H 0.1470 0.0379 0.3505
N1 N 0.46131(13) 0.7905(4) 0.0998(2)
N2 N 0.32826(15) 0.9386(4) 0.1639(2)
N4 N 0.50021(13) 0.7087(4) 0.05474(19)
C6 C 0.36283(18) 0.9008(5) 0.1478(3)
C10 C 0.46568(14) 0.7260(4) 0.0634(2)
H6 H 0.4469 0.6965 0.0461
C12 C 0.4249(2) 0.9176(6) 0.1382(3)
H7 H 0.4456 0.9528 0.1441
C13 C 0.3920(2) 0.9546(6) 0.1512(3)
C14 C 0.42772(16) 0.8299(5) 0.1166(3)
C15 C 0.39598(19) 0.7736(5) 0.1131(4)
H9 H 0.3970 0.7121 0.1005
C16 C 0.3638(2) 0.8124(6) 0.1290(3)
H10 H 0.3426 0.7773 0.1266
C17 C 0.51783(19) 0.7622(6) 0.0888(3)
H11 H 0.5428 0.7663 0.0914
C18 C 0.2945(2) 0.9157(6) 0.1451(3)
H12 H 0.2889 0.8708 0.1202
C19 C 0.2717(2) 0.9717(6) 0.1703(3)
H13 H 0.2470 0.9721 0.1649
C20 C 0.4942(2) 0.8097(6) 0.1190(3)
H14 H 0.4996 0.8477 0.1471
Ni4 Ni 0.519528(16) 0.61438(4) 0.00024(2)
Ni6 Ni 0.019528(16) 0.61438(4) 0.50024(2)
N5 N 0.21131(13) 0.9595(4) 0.3498(2)
O11 O 0.06332(12) 0.9874(3) 0.08885(19)
N6 N 0.07826(15) 0.8114(4) 0.4139(2)
N7 N 0.03904(12) 0.7214(3) 0.45500(19)
C26 C 0.11283(18) 0.8492(5) 0.3978(3)
C28 C 0.07298(17) 0.7431(5) 0.4502(3)
H18 H 0.0914 0.7154 0.4692
H19 H 0.1211 0.9684 0.1420
C32 C 0.1749(2) 0.8324(6) 0.3882(3)
H21 H 0.1956 0.7972 0.3941
C33 C 0.1420(2) 0.7954(6) 0.4012(3)
H22 H 0.1402 0.7331 0.4123
C34 C 0.17772(16) 0.9201(5) 0.3666(3)
C35 C 0.14598(19) 0.9764(5) 0.3631(4)
C36 C 0.1138(2) 0.9376(6) 0.3790(3)
H24 H 0.0926 0.9727 0.3766
C37 C 0.26783(19) 0.9878(6) 0.3388(3)
H25 H 0.2928 0.9837 0.3414
C38 C 0.0445(2) 0.8343(6) 0.3951(3)
H26 H 0.0389 0.8792 0.3702
C39 C 0.0217(2) 0.7783(6) 0.4203(3)
C40 C 0.2442(2) 0.9403(6) 0.3690(3)
H28 H 0.2496 0.9023 0.3971
H27 H 0.9970 0.7779 0.4149
H27_2 H 0.0030 0.2221 0.4149
N1_2 N 0.53869(13) 0.2095(4) 0.0998(2)
N2_2 N 0.67174(15) 0.0614(4) 0.1639(2)
N4_2 N 0.49979(13) 0.2913(4) 0.05474(19)
C6_2 C 0.63717(18) 0.0992(5) 0.1478(3)
C10_2 C 0.53432(14) 0.2740(4) 0.0634(2)
H6_2 H 0.5531 0.3035 0.0461
C12_2 C 0.5751(2) 0.0824(6) 0.1382(3)
H7_2 H 0.5544 0.0472 0.1441
C13_2 C 0.6080(2) 0.0454(6) 0.1512(3)
C14_2 C 0.57228(16) 0.1701(5) 0.1166(3)
C15_2 C 0.60402(19) 0.2264(5) 0.1131(4)
H9_2 H 0.6030 0.2879 0.1005
C16_2 C 0.6362(2) 0.1876(6) 0.1290(3)
H10_2 H 0.6574 0.2227 0.1266
C17_2 C 0.48217(19) 0.2378(6) 0.0888(3)
H11_2 H 0.4572 0.2337 0.0914
C18_2 C 0.7055(2) 0.0843(6) 0.1451(3)
H12_2 H 0.7111 0.1292 0.1202
C19_2 C 0.7283(2) 0.0283(6) 0.1703(3)
H13_2 H 0.7530 0.0279 0.1649
C20_2 C 0.5058(2) 0.1903(6) 0.1190(3)
H14_2 H 0.5004 0.1523 0.1471
Ni6_2 Ni 0.980472(16) 0.38562(4) 0.50024(2)
N5_2 N 0.78869(13) 0.0405(4) 0.3498(2)
O11_2 O 0.93668(12) 0.0126(3) 0.08885(19)
N6_2 N 0.92174(15) 0.1886(4) 0.4139(2)
N7_2 N 0.96096(12) 0.2786(3) 0.45500(19)
C26_2 C 0.88717(18) 0.1508(5) 0.3978(3)
C28_2 C 0.92702(17) 0.2569(5) 0.4502(3)
H18_2 H 0.9086 0.2846 0.4692
H19_2 H 0.8789 0.0316 0.1420
C32_2 C 0.8251(2) 0.1676(6) 0.3882(3)
H21_2 H 0.8044 0.2028 0.3941
C33_2 C 0.8580(2) 0.2046(6) 0.4012(3)
H22_2 H 0.8598 0.2669 0.4123
C34_2 C 0.82228(16) 0.0799(5) 0.3666(3)
C35_2 C 0.85402(19) 0.0236(5) 0.3631(4)
C36_2 C 0.8862(2) 0.0624(6) 0.3790(3)
H24_2 H 0.9074 0.0273 0.3766
C37_2 C 0.73217(19) 0.0122(6) 0.3388(3)
H25_2 H 0.7072 0.0163 0.3414
C38_2 C 0.9555(2) 0.1657(6) 0.3951(3)
H26_2 H 0.9611 0.1208 0.3702
C39_2 C 0.9783(2) 0.2217(6) 0.4203(3)
C40_2 C 0.7558(2) 0.0597(6) 0.3690(3)
H28_2 H 0.7504 0.0977 0.3971
Ni1_2 Ni 0.730472(16) 0.86438(4) 0.25024(2)
O1_2 O 0.7500 0.7500 0.29271(18)
O2_2 O 0.70611(10) 0.7749(3) 0.19709(14)
O3_2 O 0.72073(10) 0.6243(2) 0.21409(15)
O4_2 O 0.56694(10) 0.6160(3) 0.04025(15)
C1_2 C 0.67021(14) 0.6549(4) 0.1623(2)
O5_2 O 0.56332(12) 0.4874(3) 0.08885(19)
N3_2 N 0.71096(12) 0.9714(3) 0.20500(19)
C2_2 C 0.62265(16) 0.6872(4) 0.1017(2)
H1_2 H 0.6107 0.7297 0.0805
C3_2 C 0.61106(14) 0.5943(4) 0.1041(2)
C4_2 C 0.65920(16) 0.5614(4) 0.1638(2)
H2_2 H 0.6725 0.5184 0.1832
C5_2 C 0.65199(16) 0.7182(4) 0.1306(2)
H3_2 H 0.6594 0.7810 0.1288
C7_2 C 0.70187(13) 0.6890(4) 0.19387(19)
C8_2 C 0.67702(17) 0.9931(5) 0.2002(3)
H4_2 H 0.6586 0.9654 0.2192
C9_2 C 0.62936(16) 0.5300(4) 0.1378(3)
H5_2 H 0.6211 0.4684 0.1420
C11_2 C 0.57745(14) 0.5589(4) 0.0757(2)
H8_2 H 0.6098 0.9831 0.1623
Ni2_2 Ni 0.769528(16) 0.63562(4) 0.25024(2)
Ni5_2 Ni 0.980472(16) 0.88562(4) 0.00024(2)
O6_2 O 0.79389(10) 0.7251(3) 0.19709(14)
O7_2 O 0.77927(10) 0.8757(2) 0.21409(15)
O8_2 O 0.93306(10) 0.8840(3) 0.04025(15)
O9_2 O 0.68306(10) 0.8660(3) 0.29025(15)
O10_2 O 0.81694(10) 0.6340(3) 0.29025(15)
C21_2 C 0.82979(14) 0.8451(4) 0.1623(2)
N8_2 N 0.78904(12) 0.5286(3) 0.20500(19)
N9_2 N 0.74979(13) 0.9587(4) 0.30474(19)
N10_2 N 0.75021(13) 0.5413(4) 0.30474(19)
C22_2 C 0.87735(16) 0.8128(4) 0.1017(2)
H15_2 H 0.8893 0.7703 0.0805
C23_2 C 0.88894(14) 0.9057(4) 0.1041(2)
C24_2 C 0.84080(16) 0.9386(4) 0.1638(2)
H16_2 H 0.8275 0.9816 0.1832
C25_2 C 0.84801(16) 0.7818(4) 0.1306(2)
H17_2 H 0.8406 0.7190 0.1288
C27_2 C 0.79813(13) 0.8110(4) 0.19387(19)
C29_2 C 0.87064(16) 0.9700(4) 0.1378(3)
C30_2 C 0.78432(14) 0.9760(4) 0.3134(2)
H20_2 H 0.8031 0.9465 0.2961
C31_2 C 0.92255(14) 0.9411(4) 0.0757(2)
H23_2 H 0.8530 0.9621 0.3505
O1_3 O -0.0000 0.5000 0.54271(18)
O6_3 O 0.04389(10) 0.5249(3) 0.44709(14)
O7_3 O 0.02927(10) 0.3743(2) 0.46409(15)
O10_3 O 0.06694(10) 0.6160(3) 0.54025(15)
C21_3 C 0.07979(14) 0.4049(4) 0.4123(2)
N5_3 N 0.03869(13) 0.2095(4) 0.5998(2)
O11_3 O 0.18668(12) 0.2374(3) 0.33885(19)
N6_3 N 0.17174(15) 0.0614(4) 0.6639(2)
N10_3 N 0.00021(13) 0.7087(4) 0.55474(19)
C22_3 C 0.12735(16) 0.4372(4) 0.3517(2)
H15_3 H 0.1393 0.4797 0.3305
C23_3 C 0.13894(14) 0.3443(4) 0.3541(2)
C24_3 C 0.09080(16) 0.3114(4) 0.4138(2)
H16_3 H 0.0775 0.2684 0.4332
C25_3 C 0.09801(16) 0.4682(4) 0.3806(2)
H17_3 H 0.0906 0.5310 0.3788
C26_3 C 0.13717(18) 0.0992(5) 0.6478(3)
C27_3 C 0.04813(13) 0.4390(4) 0.44387(19)
C29_3 C 0.12064(16) 0.2800(4) 0.3878(3)
H19_3 H 0.1289 0.2184 0.3920
C30_3 C 0.03432(14) 0.2740(4) 0.5634(2)
H20_3 H 0.0531 0.3035 0.5461
C31_3 C 0.17255(14) 0.3089(4) 0.3257(2)
C32_3 C 0.0751(2) 0.0824(6) 0.6382(3)
H21_3 H 0.0544 0.0472 0.6441
C33_3 C 0.1080(2) 0.0454(6) 0.6512(3)
C34_3 C 0.07228(16) 0.1701(5) 0.6166(3)
C35_3 C 0.10402(19) 0.2264(5) 0.6131(4)
H23_3 H 0.1030 0.2879 0.6005
C36_3 C 0.1362(2) 0.1876(6) 0.6290(3)
H24_3 H 0.1574 0.2227 0.6266
C38_3 C 0.2055(2) 0.0843(6) 0.6451(3)
H26_3 H 0.2111 0.1292 0.6202
C39_3 C 0.2283(2) 0.0283(6) 0.6703(3)
H27_3 H 0.2530 0.0279 0.6649
C40_3 C 0.0058(2) 0.1903(6) 0.6190(3)
H28_3 H 0.0004 0.1523 0.6471
Ni6_3 Ni 0.230472(16) 0.86438(4) 0.75024(2)
N7_3 N 0.21096(12) 0.9714(3) 0.70500(19)
C28_3 C 0.17702(17) 0.9931(5) 0.7002(3)
H18_3 H 0.1586 0.9654 0.7192
H22_3 H 0.1098 0.9831 0.6623
O1_4 O 1.0000 0.5000 0.54271(18)
O2_3 O 0.95611(10) 0.4751(3) 0.44709(14)
O3_3 O 0.97073(10) 0.6257(2) 0.46409(15)
C1_3 C 0.92021(14) 0.5951(4) 0.4123(2)
O5_3 O 0.81332(12) 0.7626(3) 0.33885(19)
C2_3 C 0.87265(16) 0.5628(4) 0.3517(2)
H1_3 H 0.8607 0.5203 0.3305
C3_3 C 0.86106(14) 0.6557(4) 0.3541(2)
C4_3 C 0.90920(16) 0.6886(4) 0.4138(2)
H2_3 H 0.9225 0.7316 0.4332
C5_3 C 0.90199(16) 0.5318(4) 0.3806(2)
H3_3 H 0.9094 0.4690 0.3788
C7_3 C 0.95187(13) 0.5610(4) 0.44387(19)
C9_3 C 0.87936(16) 0.7200(4) 0.3878(3)
H5_3 H 0.8711 0.7816 0.3920
C11_3 C 0.82745(14) 0.6911(4) 0.3257(2)
O9_3 O 0.93306(10) 0.3840(3) 0.54025(15)
N9_3 N 0.99979(13) 0.2913(4) 0.55474(19)
C37_3 C 0.98217(19) 0.2378(6) 0.5888(3)
H25_3 H 0.9572 0.2337 0.5914
Ni1_3 Ni 0.519528(16) 0.11438(4) 0.50024(2)
O1_5 O 0.5000 0.0000 0.54271(18)
O2_4 O 0.54389(10) 0.0249(3) 0.44709(14)
N1_3 N 0.71131(13) 0.4595(4) 0.3498(2)
N2_3 N 0.57826(15) 0.3114(4) 0.4139(2)
N3_3 N 0.53904(12) 0.2214(3) 0.45500(19)
H3_4 H 0.5906 0.0310 0.3788
C6_3 C 0.61283(18) 0.3492(5) 0.3978(3)
C8_3 C 0.57298(17) 0.2431(5) 0.4502(3)
H4_3 H 0.5914 0.2154 0.4692
C10_3 C 0.71568(14) 0.5240(4) 0.3134(2)
H6_3 H 0.6969 0.5535 0.2961
C12_3 C 0.6749(2) 0.3324(6) 0.3882(3)
H7_3 H 0.6956 0.2972 0.3941
C13_3 C 0.6420(2) 0.2954(6) 0.4012(3)
H8_3 H 0.6402 0.2331 0.4123
C14_3 C 0.67772(16) 0.4201(5) 0.3666(3)
C15_3 C 0.64598(19) 0.4764(5) 0.3631(4)
H9_3 H 0.6470 0.5379 0.3505
C16_3 C 0.6138(2) 0.4376(6) 0.3790(3)
H10_3 H 0.5926 0.4727 0.3766
C17_3 C 0.76783(19) 0.4878(6) 0.3388(3)
H11_3 H 0.7928 0.4837 0.3414
C18_3 C 0.5445(2) 0.3343(6) 0.3951(3)
H12_3 H 0.5389 0.3792 0.3702
C19_3 C 0.5217(2) 0.2783(6) 0.4203(3)
H13_3 H 0.4970 0.2779 0.4149
C20_3 C 0.7442(2) 0.4403(6) 0.3690(3)
H14_3 H 0.7496 0.4023 0.3971
Ni6_4 Ni 0.269528(16) 0.63562(4) 0.75024(2)
O7_4 O 0.47073(10) 0.1257(2) 0.46409(15)
O9_4 O 0.56694(10) 0.1160(3) 0.54025(15)
C21_4 C 0.42021(14) 0.0951(4) 0.4123(2)
N5_4 N 0.46131(13) 0.2905(4) 0.5998(2)
O11_4 O 0.31332(12) 0.2626(3) 0.33885(19)
N6_4 N 0.32826(15) 0.4386(4) 0.6639(2)
N7_4 N 0.28904(12) 0.5286(3) 0.70500(19)
N9_4 N 0.50021(13) 0.2087(4) 0.55474(19)
C22_4 C 0.37265(16) 0.0628(4) 0.3517(2)
H15_4 H 0.3607 0.0203 0.3305
C23_4 C 0.36106(14) 0.1557(4) 0.3541(2)
C24_4 C 0.40920(16) 0.1886(4) 0.4138(2)
H16_4 H 0.4225 0.2316 0.4332
C25_4 C 0.40199(16) 0.0318(4) 0.3806(2)
C26_4 C 0.36283(18) 0.4008(5) 0.6478(3)
C27_4 C 0.45187(13) 0.0610(4) 0.44387(19)
C28_4 C 0.32298(17) 0.5069(5) 0.7002(3)
H18_4 H 0.3414 0.5346 0.7192
C29_4 C 0.37936(16) 0.2200(4) 0.3878(3)
H19_4 H 0.3711 0.2816 0.3920
C30_4 C 0.46568(14) 0.2260(4) 0.5634(2)
H20_4 H 0.4469 0.1965 0.5461
C31_4 C 0.32745(14) 0.1911(4) 0.3257(2)
C32_4 C 0.4249(2) 0.4176(6) 0.6382(3)
H21_4 H 0.4456 0.4528 0.6441
C33_4 C 0.3920(2) 0.4546(6) 0.6512(3)
H22_4 H 0.3902 0.5169 0.6623
C34_4 C 0.42772(16) 0.3299(5) 0.6166(3)
C35_4 C 0.39598(19) 0.2736(5) 0.6131(4)
H23_4 H 0.3970 0.2121 0.6005
C36_4 C 0.3638(2) 0.3124(6) 0.6290(3)
H24_4 H 0.3426 0.2773 0.6266
C37_4 C 0.51783(19) 0.2622(6) 0.5888(3)
H25_4 H 0.5428 0.2663 0.5914
C38_4 C 0.2945(2) 0.4157(6) 0.6451(3)
H26_4 H 0.2889 0.3708 0.6202
C39_4 C 0.2717(2) 0.4717(6) 0.6703(3)
H27_4 H 0.2470 0.4721 0.6649
C40_4 C 0.4942(2) 0.3097(6) 0.6190(3)
H28_4 H 0.4996 0.3477 0.6471
O1_6 O 0.5000 1.0000 0.54271(18)
O3_4 O 0.52927(10) 0.8743(2) 0.46409(15)
C1_4 C 0.57979(14) 0.9049(4) 0.4123(2)
O5_4 O 0.68668(12) 0.7374(3) 0.33885(19)
C2_4 C 0.62735(16) 0.9372(4) 0.3517(2)
H1_4 H 0.6393 0.9797 0.3305
C3_4 C 0.63894(14) 0.8443(4) 0.3541(2)
C4_4 C 0.59080(16) 0.8114(4) 0.4138(2)
H2_4 H 0.5775 0.7684 0.4332
C5_4 C 0.59801(16) 0.9682(4) 0.3806(2)
C7_4 C 0.54813(13) 0.9390(4) 0.44387(19)
C9_4 C 0.62064(16) 0.7800(4) 0.3878(3)
H5_4 H 0.6289 0.7184 0.3920
C11_4 C 0.67255(14) 0.8089(4) 0.3257(2)
Ni2_3 Ni 0.480472(16) 0.88562(4) 0.50024(2)
O6_4 O 0.45611(10) 0.9751(3) 0.44709(14)
O10_4 O 0.43306(10) 0.8840(3) 0.54025(15)
N8_3 N 0.46096(12) 0.7786(3) 0.45500(19)
N10_4 N 0.49979(13) 0.7913(4) 0.55474(19)
H17_4 H 0.4094 0.9690 0.3788
O5_5 O 0.43668(12) 0.0126(3) 0.58885(19)
H5_5 H 0.3789 0.0316 0.6420
O1_7 O 0.2500 0.7500 0.79271(18)
O2_5 O 0.29389(10) 0.7251(3) 0.69709(14)
O3_5 O 0.27927(10) 0.8757(2) 0.71409(15)
C1_5 C 0.32979(14) 0.8451(4) 0.6623(2)
C2_5 C 0.37735(16) 0.8128(4) 0.6017(2)
H1_5 H 0.3893 0.7703 0.5805
C3_5 C 0.38894(14) 0.9057(4) 0.6041(2)
C4_5 C 0.34080(16) 0.9386(4) 0.6638(2)
H2_5 H 0.3275 0.9816 0.6832
C5_5 C 0.34801(16) 0.7818(4) 0.6306(2)
H3_5 H 0.3406 0.7190 0.6288
C7_5 C 0.29813(13) 0.8110(4) 0.69387(19)
C9_5 C 0.37064(16) 0.9700(4) 0.6378(3)
C11_5 C 0.42255(14) 0.9411(4) 0.5757(2)
O6_5 O 0.20611(10) 0.7749(3) 0.69709(14)
O7_5 O 0.22073(10) 0.6243(2) 0.71409(15)
O9_5 O 0.31694(10) 0.6340(3) 0.79025(15)
O10_5 O 0.18306(10) 0.8660(3) 0.79025(15)
C21_5 C 0.17021(14) 0.6549(4) 0.6623(2)
N5_5 N 0.21131(13) 0.4595(4) 0.8498(2)
O11_5 O 0.06332(12) 0.4874(3) 0.58885(19)
N6_5 N 0.07826(15) 0.3114(4) 0.9139(2)
N7_5 N 0.03904(12) 0.2214(3) 0.95500(19)
N9_5 N 0.25021(13) 0.5413(4) 0.80474(19)
N10_5 N 0.24979(13) 0.9587(4) 0.80474(19)
C22_5 C 0.12265(16) 0.6872(4) 0.6017(2)
H15_5 H 0.1107 0.7297 0.5805
C23_5 C 0.11106(14) 0.5943(4) 0.6041(2)
C24_5 C 0.15920(16) 0.5614(4) 0.6638(2)
H16_5 H 0.1725 0.5184 0.6832
C25_5 C 0.15199(16) 0.7182(4) 0.6306(2)
H17_5 H 0.1594 0.7810 0.6288
C26_5 C 0.11283(18) 0.3492(5) 0.8978(3)
C27_5 C 0.20187(13) 0.6890(4) 0.69387(19)
C28_5 C 0.07298(17) 0.2431(5) 0.9502(3)
H18_5 H 0.0914 0.2154 0.9692
C29_5 C 0.12936(16) 0.5300(4) 0.6378(3)
H19_5 H 0.1211 0.4684 0.6420
C30_5 C 0.21568(14) 0.5240(4) 0.8134(2)
H20_5 H 0.1969 0.5535 0.7961
C31_5 C 0.07745(14) 0.5589(4) 0.5757(2)
C32_5 C 0.1749(2) 0.3324(6) 0.8882(3)
H21_5 H 0.1956 0.2972 0.8941
C33_5 C 0.1420(2) 0.2954(6) 0.9012(3)
H22_5 H 0.1402 0.2331 0.9123
C34_5 C 0.17772(16) 0.4201(5) 0.8666(3)
C35_5 C 0.14598(19) 0.4764(5) 0.8631(4)
H23_5 H 0.1470 0.5379 0.8505
C36_5 C 0.1138(2) 0.4376(6) 0.8790(3)
H24_5 H 0.0926 0.4727 0.8766
C37_5 C 0.26783(19) 0.4878(6) 0.8388(3)
H25_5 H 0.2928 0.4837 0.8414
C38_5 C 0.0445(2) 0.3343(6) 0.8951(3)
H26_5 H 0.0389 0.3792 0.8702
C39_5 C 0.0217(2) 0.2783(6) 0.9203(3)
C40_5 C 0.2442(2) 0.4403(6) 0.8690(3)
H28_5 H 0.2496 0.4023 0.8971
H27_5 H 0.9970 0.2779 0.9149
H27_6 H 0.0030 0.7221 0.9149
Ni1_4 Ni 0.730472(16) 0.36438(4) 0.75024(2)
O1_8 O 0.7500 0.2500 0.79271(18)
O2_6 O 0.70611(10) 0.2749(3) 0.69709(14)
O3_6 O 0.72073(10) 0.1243(2) 0.71409(15)
C1_6 C 0.67021(14) 0.1549(4) 0.6623(2)
N1_4 N 0.53869(13) 0.7095(4) 0.5998(2)
N2_4 N 0.67174(15) 0.5614(4) 0.6639(2)
N3_4 N 0.71096(12) 0.4714(3) 0.70500(19)
C2_6 C 0.62265(16) 0.1872(4) 0.6017(2)
H1_6 H 0.6107 0.2297 0.5805
C3_6 C 0.61106(14) 0.0943(4) 0.6041(2)
C4_6 C 0.65920(16) 0.0614(4) 0.6638(2)
H2_6 H 0.6725 0.0184 0.6832
C5_6 C 0.65199(16) 0.2182(4) 0.6306(2)
H3_6 H 0.6594 0.2810 0.6288
C6_4 C 0.63717(18) 0.5992(5) 0.6478(3)
C7_6 C 0.70187(13) 0.1890(4) 0.69387(19)
C8_4 C 0.67702(17) 0.4931(5) 0.7002(3)
H4_4 H 0.6586 0.4654 0.7192
C9_6 C 0.62936(16) 0.0300(4) 0.6378(3)
C10_4 C 0.53432(14) 0.7740(4) 0.5634(2)
H6_4 H 0.5531 0.8035 0.5461
C11_6 C 0.57745(14) 0.0589(4) 0.5757(2)
C12_4 C 0.5751(2) 0.5824(6) 0.6382(3)
H7_4 H 0.5544 0.5472 0.6441
C13_4 C 0.6080(2) 0.5454(6) 0.6512(3)
H8_4 H 0.6098 0.4831 0.6623
C14_4 C 0.57228(16) 0.6701(5) 0.6166(3)
C15_4 C 0.60402(19) 0.7264(5) 0.6131(4)
H9_4 H 0.6030 0.7879 0.6005
C16_4 C 0.6362(2) 0.6876(6) 0.6290(3)
H10_4 H 0.6574 0.7227 0.6266
C17_4 C 0.48217(19) 0.7378(6) 0.5888(3)
H11_4 H 0.4572 0.7337 0.5914
C18_4 C 0.7055(2) 0.5843(6) 0.6451(3)
H12_4 H 0.7111 0.6292 0.6202
C19_4 C 0.7283(2) 0.5283(6) 0.6703(3)
H13_4 H 0.7530 0.5279 0.6649
C20_4 C 0.5058(2) 0.6903(6) 0.6190(3)
H14_4 H 0.5004 0.6523 0.6471
Ni2_4 Ni 0.769528(16) 0.13562(4) 0.75024(2)
O6_6 O 0.79389(10) 0.2251(3) 0.69709(14)
O7_6 O 0.77927(10) 0.3757(2) 0.71409(15)
O9_6 O 0.68306(10) 0.3660(3) 0.79025(15)
O10_6 O 0.81694(10) 0.1340(3) 0.79025(15)
C21_6 C 0.82979(14) 0.3451(4) 0.6623(2)
N5_6 N 0.78869(13) 0.5405(4) 0.8498(2)
O11_6 O 0.93668(12) 0.5126(3) 0.58885(19)
N6_6 N 0.92174(15) 0.6886(4) 0.9139(2)
N7_6 N 0.96096(12) 0.7786(3) 0.95500(19)
N8_4 N 0.78904(12) 0.0286(3) 0.70500(19)
N9_6 N 0.74979(13) 0.4587(4) 0.80474(19)
N10_6 N 0.75021(13) 0.0413(4) 0.80474(19)
C22_6 C 0.87735(16) 0.3128(4) 0.6017(2)
H15_6 H 0.8893 0.2703 0.5805
C23_6 C 0.88894(14) 0.4057(4) 0.6041(2)
C24_6 C 0.84080(16) 0.4386(4) 0.6638(2)
H16_6 H 0.8275 0.4816 0.6832
C25_6 C 0.84801(16) 0.2818(4) 0.6306(2)
H17_6 H 0.8406 0.2190 0.6288
C26_6 C 0.88717(18) 0.6508(5) 0.8978(3)
C27_6 C 0.79813(13) 0.3110(4) 0.69387(19)
C28_6 C 0.92702(17) 0.7569(5) 0.9502(3)
H18_6 H 0.9086 0.7846 0.9692
C29_6 C 0.87064(16) 0.4700(4) 0.6378(3)
H19_6 H 0.8789 0.5316 0.6420
C30_6 C 0.78432(14) 0.4760(4) 0.8134(2)
H20_6 H 0.8031 0.4465 0.7961
C31_6 C 0.92255(14) 0.4411(4) 0.5757(2)
C32_6 C 0.8251(2) 0.6676(6) 0.8882(3)
H21_6 H 0.8044 0.7028 0.8941
C33_6 C 0.8580(2) 0.7046(6) 0.9012(3)
H22_6 H 0.8598 0.7669 0.9123
C34_6 C 0.82228(16) 0.5799(5) 0.8666(3)
C35_6 C 0.85402(19) 0.5236(5) 0.8631(4)
H23_6 H 0.8530 0.4621 0.8505
C36_6 C 0.8862(2) 0.5624(6) 0.8790(3)
H24_6 H 0.9074 0.5273 0.8766
C37_6 C 0.73217(19) 0.5122(6) 0.8388(3)
H25_6 H 0.7072 0.5163 0.8414
C38_6 C 0.9555(2) 0.6657(6) 0.8951(3)
H26_6 H 0.9611 0.6208 0.8702
C39_6 C 0.9783(2) 0.7217(6) 0.9203(3)
C40_6 C 0.7558(2) 0.5597(6) 0.8690(3)
H28_6 H 0.7504 0.5977 0.8971
O5_6 O 0.56332(12) 0.9874(3) 0.58885(19)
H5_6 H 0.6211 0.9684 0.6420
O1_9 O -0.0000 -0.0000 0.04271(18)
N10_7 N 0.00021(13) 0.2087(4) 0.05474(19)
O6_7 O 0.04389(10) 0.0249(3) 0.94709(14)
H17_7 H 0.0906 0.0310 0.8788
O1_10 O -0.0000 1.0000 0.04271(18)
N5_7 N 0.03869(13) 0.7095(4) 0.0998(2)
N6_7 N 0.17174(15) 0.5614(4) 0.1639(2)
C26_7 C 0.13717(18) 0.5992(5) 0.1478(3)
C28_7 C 0.17702(17) 0.4931(5) 0.2002(3)
H18_7 H 0.1586 0.4654 0.2192
C30_7 C 0.03432(14) 0.7740(4) 0.0634(2)
H20_7 H 0.0531 0.8035 0.0461
C32_7 C 0.0751(2) 0.5824(6) 0.1382(3)
H21_7 H 0.0544 0.5472 0.1441
C33_7 C 0.1080(2) 0.5454(6) 0.1512(3)
H22_7 H 0.1098 0.4831 0.1623
C34_7 C 0.07228(16) 0.6701(5) 0.1166(3)
C35_7 C 0.10402(19) 0.7264(5) 0.1131(4)
H23_7 H 0.1030 0.7879 0.1005
C36_7 C 0.1362(2) 0.6876(6) 0.1290(3)
H24_7 H 0.1574 0.7227 0.1266
C38_7 C 0.2055(2) 0.5843(6) 0.1451(3)
H26_7 H 0.2111 0.6292 0.1202
C39_7 C 0.2283(2) 0.5283(6) 0.1703(3)
H27_7 H 0.2530 0.5279 0.1649
C40_7 C 0.0058(2) 0.6903(6) 0.1190(3)
H28_7 H 0.0004 0.6523 0.1471
O7_7 O 0.02927(10) 0.8743(2) 0.96409(15)
C21_7 C 0.07979(14) 0.9049(4) 0.9123(2)
O11_7 O 0.18668(12) 0.7374(3) 0.83885(19)
C22_7 C 0.12735(16) 0.9372(4) 0.8517(2)
H15_7 H 0.1393 0.9797 0.8305
C23_7 C 0.13894(14) 0.8443(4) 0.8541(2)
C24_7 C 0.09080(16) 0.8114(4) 0.9138(2)
H16_7 H 0.0775 0.7684 0.9332
C25_7 C 0.09801(16) 0.9682(4) 0.8806(2)
C27_7 C 0.04813(13) 0.9390(4) 0.94387(19)
C29_7 C 0.12064(16) 0.7800(4) 0.8878(3)
H19_7 H 0.1289 0.7184 0.8920
C31_7 C 0.17255(14) 0.8089(4) 0.8257(2)
O1_11 O 1.0000 -0.0000 0.04271(18)
O3_7 O 0.97073(10) 0.1257(2) 0.96409(15)
C1_7 C 0.92021(14) 0.0951(4) 0.9123(2)
O5_7 O 0.81332(12) 0.2626(3) 0.83885(19)
C2_7 C 0.87265(16) 0.0628(4) 0.8517(2)
H1_7 H 0.8607 0.0203 0.8305
C3_7 C 0.86106(14) 0.1557(4) 0.8541(2)
C4_7 C 0.90920(16) 0.1886(4) 0.9138(2)
H2_7 H 0.9225 0.2316 0.9332
C5_7 C 0.90199(16) 0.0318(4) 0.8806(2)
C7_7 C 0.95187(13) 0.0610(4) 0.94387(19)
C9_7 C 0.87936(16) 0.2200(4) 0.8878(3)
H5_7 H 0.8711 0.2816 0.8920
C11_7 C 0.82745(14) 0.1911(4) 0.8257(2)
O1_12 O 1.0000 1.0000 0.04271(18)
N9_7 N 0.99979(13) 0.7913(4) 0.05474(19)
C37_7 C 0.98217(19) 0.7378(6) 0.0888(3)
H25_7 H 0.9572 0.7337 0.0914
O2_7 O 0.95611(10) 0.9751(3) 0.94709(14)
H3_7 H 0.9094 0.9690 0.8788
C10_5 C 0.71568(14) 0.0240(4) 0.8134(2)
H6_5 H 0.6969 0.0535 0.7961
H9_5 H 0.6470 0.0379 0.8505
O1_13 O 0.5000 0.5000 0.04271(18)
O2_8 O 0.54389(10) 0.5249(3) 0.94709(14)
O3_8 O 0.52927(10) 0.3743(2) 0.96409(15)
C1_8 C 0.57979(14) 0.4049(4) 0.9123(2)
N1_5 N 0.71131(13) 0.9595(4) 0.8498(2)
O5_8 O 0.68668(12) 0.2374(3) 0.83885(19)
N2_5 N 0.57826(15) 0.8114(4) 0.9139(2)
N3_5 N 0.53904(12) 0.7214(3) 0.95500(19)
C2_8 C 0.62735(16) 0.4372(4) 0.8517(2)
H1_8 H 0.6393 0.4797 0.8305
C3_8 C 0.63894(14) 0.3443(4) 0.8541(2)
C4_8 C 0.59080(16) 0.3114(4) 0.9138(2)
H2_8 H 0.5775 0.2684 0.9332
C5_8 C 0.59801(16) 0.4682(4) 0.8806(2)
H3_8 H 0.5906 0.5310 0.8788
C6_5 C 0.61283(18) 0.8492(5) 0.8978(3)
C7_8 C 0.54813(13) 0.4390(4) 0.94387(19)
C8_5 C 0.57298(17) 0.7431(5) 0.9502(3)
H4_5 H 0.5914 0.7154 0.9692
C9_8 C 0.62064(16) 0.2800(4) 0.8878(3)
H5_8 H 0.6289 0.2184 0.8920
C11_8 C 0.67255(14) 0.3089(4) 0.8257(2)
C12_5 C 0.6749(2) 0.8324(6) 0.8882(3)
H7_5 H 0.6956 0.7972 0.8941
C13_5 C 0.6420(2) 0.7954(6) 0.9012(3)
H8_5 H 0.6402 0.7331 0.9123
C14_5 C 0.67772(16) 0.9201(5) 0.8666(3)
C15_5 C 0.64598(19) 0.9764(5) 0.8631(4)
C16_5 C 0.6138(2) 0.9376(6) 0.8790(3)
H10_5 H 0.5926 0.9727 0.8766
C17_5 C 0.76783(19) 0.9878(6) 0.8388(3)
H11_5 H 0.7928 0.9837 0.8414
C18_5 C 0.5445(2) 0.8343(6) 0.8951(3)
H12_5 H 0.5389 0.8792 0.8702
C19_5 C 0.5217(2) 0.7783(6) 0.9203(3)
H13_5 H 0.4970 0.7779 0.9149
C20_5 C 0.7442(2) 0.9403(6) 0.8690(3)
H14_5 H 0.7496 0.9023 0.8971
O6_8 O 0.45611(10) 0.4751(3) 0.94709(14)
O7_8 O 0.47073(10) 0.6257(2) 0.96409(15)
C21_8 C 0.42021(14) 0.5951(4) 0.9123(2)
O11_8 O 0.31332(12) 0.7626(3) 0.83885(19)
N8_5 N 0.46096(12) 0.2786(3) 0.95500(19)
C22_8 C 0.37265(16) 0.5628(4) 0.8517(2)
H15_8 H 0.3607 0.5203 0.8305
C23_8 C 0.36106(14) 0.6557(4) 0.8541(2)
C24_8 C 0.40920(16) 0.6886(4) 0.9138(2)
H16_8 H 0.4225 0.7316 0.9332
C25_8 C 0.40199(16) 0.5318(4) 0.8806(2)
H17_8 H 0.4094 0.4690 0.8788
C27_8 C 0.45187(13) 0.5610(4) 0.94387(19)
C29_8 C 0.37936(16) 0.7200(4) 0.8878(3)
H19_8 H 0.3711 0.7816 0.8920
C31_8 C 0.32745(14) 0.6911(4) 0.8257(2)
C17_6 C 0.01783(19) 0.7622(6) 0.5888(3)
H11_6 H 0.0428 0.7663 0.5914
C8_6 C 0.82298(17) 0.0069(5) 0.7002(3)
H4_6 H 0.8414 0.0346 0.7192
H8_6 H 0.8902 0.0169 0.6623
N1_6 N 0.96131(13) 0.7905(4) 0.5998(2)
N2_6 N 0.82826(15) 0.9386(4) 0.6639(2)
C6_6 C 0.86283(18) 0.9008(5) 0.6478(3)
C10_6 C 0.96568(14) 0.7260(4) 0.5634(2)
H6_6 H 0.9469 0.6965 0.5461
C12_6 C 0.9249(2) 0.9176(6) 0.6382(3)
H7_6 H 0.9456 0.9528 0.6441
C13_6 C 0.8920(2) 0.9546(6) 0.6512(3)
C14_6 C 0.92772(16) 0.8299(5) 0.6166(3)
C15_6 C 0.89598(19) 0.7736(5) 0.6131(4)
H9_6 H 0.8970 0.7121 0.6005
C16_6 C 0.8638(2) 0.8124(6) 0.6290(3)
H10_6 H 0.8426 0.7773 0.6266
C18_6 C 0.7945(2) 0.9157(6) 0.6451(3)
H12_6 H 0.7889 0.8708 0.6202
C19_6 C 0.7717(2) 0.9717(6) 0.6703(3)
H13_6 H 0.7470 0.9721 0.6649
C20_6 C 0.9942(2) 0.8097(6) 0.6190(3)
H14_6 H 0.9996 0.8477 0.6471
N5_8 N 0.28869(13) 0.0405(4) 0.8498(2)
N6_8 N 0.42174(15) 0.1886(4) 0.9139(2)
C26_8 C 0.38717(18) 0.1508(5) 0.8978(3)
C28_8 C 0.42702(17) 0.2569(5) 0.9502(3)
H18_8 H 0.4086 0.2846 0.9692
C32_8 C 0.3251(2) 0.1676(6) 0.8882(3)
H21_8 H 0.3044 0.2028 0.8941
C33_8 C 0.3580(2) 0.2046(6) 0.9012(3)
H22_8 H 0.3598 0.2669 0.9123
C34_8 C 0.32228(16) 0.0799(5) 0.8666(3)
C35_8 C 0.35402(19) 0.0236(5) 0.8631(4)
C36_8 C 0.3862(2) 0.0624(6) 0.8790(3)
H24_8 H 0.4074 0.0273 0.8766
C37_8 C 0.23217(19) 0.0122(6) 0.8388(3)
H25_8 H 0.2072 0.0163 0.8414
C38_8 C 0.4555(2) 0.1657(6) 0.8951(3)
H26_8 H 0.4611 0.1208 0.8702
C39_8 C 0.4783(2) 0.2217(6) 0.9203(3)
H27_8 H 0.5030 0.2221 0.9149
C40_8 C 0.2558(2) 0.0597(6) 0.8690(3)
H28_8 H 0.2504 0.0977 0.8971
C30_8 C 0.28432(14) 0.9760(4) 0.8134(2)
H20_8 H 0.3031 0.9465 0.7961
H23_8 H 0.3530 0.9621 0.8505
C37_9 C 0.01783(19) 0.2622(6) 0.0888(3)
H25_9 H 0.0428 0.2663 0.0914
N5_9 N 0.96131(13) 0.2905(4) 0.0998(2)
N6_9 N 0.82826(15) 0.4386(4) 0.1639(2)
C26_9 C 0.86283(18) 0.4008(5) 0.1478(3)
C28_9 C 0.82298(17) 0.5069(5) 0.2002(3)
H18_9 H 0.8414 0.5346 0.2192
C30_9 C 0.96568(14) 0.2260(4) 0.0634(2)
H20_9 H 0.9469 0.1965 0.0461
C32_9 C 0.9249(2) 0.4176(6) 0.1382(3)
H21_9 H 0.9456 0.4528 0.1441
C33_9 C 0.8920(2) 0.4546(6) 0.1512(3)
H22_9 H 0.8902 0.5169 0.1623
C34_9 C 0.92772(16) 0.3299(5) 0.1166(3)
C35_9 C 0.89598(19) 0.2736(5) 0.1131(4)
H23_9 H 0.8970 0.2121 0.1005
C36_9 C 0.8638(2) 0.3124(6) 0.1290(3)
H24_9 H 0.8426 0.2773 0.1266
C38_9 C 0.7945(2) 0.4157(6) 0.1451(3)
H26_9 H 0.7889 0.3708 0.1202
C39_9 C 0.7717(2) 0.4717(6) 0.1703(3)
H27_9 H 0.7470 0.4721 0.1649
C40_9 C 0.9942(2) 0.3097(6) 0.1190(3)
H28_9 H 0.9996 0.3477 0.1471
N5_10 N 0.28869(13) 0.5405(4) 0.3498(2)
N6_10 N 0.42174(15) 0.6886(4) 0.4139(2)
C26_10 C 0.38717(18) 0.6508(5) 0.3978(3)
C28_10 C 0.42702(17) 0.7569(5) 0.4502(3)
H18_10 H 0.4086 0.7846 0.4692
C30_10 C 0.28432(14) 0.4760(4) 0.3134(2)
H20_10 H 0.3031 0.4465 0.2961
C32_10 C 0.3251(2) 0.6676(6) 0.3882(3)
H21_10 H 0.3044 0.7028 0.3941
C33_10 C 0.3580(2) 0.7046(6) 0.4012(3)
H22_10 H 0.3598 0.7669 0.4123
C34_10 C 0.32228(16) 0.5799(5) 0.3666(3)
C35_10 C 0.35402(19) 0.5236(5) 0.3631(4)
H23_10 H 0.3530 0.4621 0.3505
C36_10 C 0.3862(2) 0.5624(6) 0.3790(3)
H24_10 H 0.4074 0.5273 0.3766
C37_10 C 0.23217(19) 0.5122(6) 0.3388(3)
H25_10 H 0.2072 0.5163 0.3414
C38_10 C 0.4555(2) 0.6657(6) 0.3951(3)
H26_10 H 0.4611 0.6208 0.3702
C39_10 C 0.4783(2) 0.7217(6) 0.4203(3)
H27_10 H 0.5030 0.7221 0.4149
C40_10 C 0.2558(2) 0.5597(6) 0.3690(3)
H28_10 H 0.2504 0.5977 0.3971
loop_
_geom_bond_atom_site_label_1
_geom_bond_atom_site_label_2
_geom_bond_site_symmetry_1
_geom_bond_site_symmetry_2
Ni1 O1 1_555 1_555
O1 Ni2 1_555 1_555
O2 Ni1 1_555 1_555
O3 C7 1_555 1_555
O4 C11 1_555 1_555
C1 C4 1_555 1_555
O5 C11 1_555 1_555
N3 Ni1 1_555 1_555
C2 H1 1_555 1_555
C3 C2 1_555 1_555
C4 H2 1_555 1_555
C5 C1 1_555 1_555
H3 C5 1_555 1_555
C7 O2 1_555 1_555
H4 C8 1_555 1_555
C9 C3 1_555 1_555
H5 C9 1_555 1_555
C11 C3 1_555 1_555
Ni2 O3 1_555 1_555
Ni3 O4 1_555 1_555
Ni5 O8 1_555 1_555
O6 Ni2 1_555 1_555
O7 Ni1 1_555 1_555
O8 C31 1_555 1_555
O9 Ni1 1_555 1_555
O10 Ni2 1_555 1_555
C21 C24 1_555 1_555
N8 Ni2 1_555 1_555
N9 Ni1 1_555 1_555
N10 Ni2 1_555 1_555
C22 H15 1_555 1_555
C23 C22 1_555 1_555
C24 H16 1_555 1_555
C25 C21 1_555 1_555
H17 C25 1_555 1_555
C27 O6 1_555 1_555
C29 C23 1_555 1_555
C30 N9 1_555 1_555
H20 C30 1_555 1_555
C31 C23 1_555 1_555
C1 C7 1_555 1_555
N3 C8 1_555 1_555
C2 C5 1_555 1_555
C4 C9 1_555 1_555
O7 C27 1_555 1_555
C21 C27 1_555 1_555
C22 C25 1_555 1_555
C24 C29 1_555 1_555
N1 C10 1_555 1_555
N2 C6 1_555 1_555
N4 C10 1_555 1_555
C6 C13 1_555 1_555
C10 H6 1_555 1_555
C12 H7 1_555 1_555
C13 C12 1_555 1_555
C14 N1 1_555 1_555
C15 C14 1_555 1_555
H9 C15 1_555 1_555
C16 C6 1_555 1_555
H10 C16 1_555 1_555
C17 N4 1_555 1_555
H11 C17 1_555 1_555
C18 N2 1_555 1_555
H12 C18 1_555 1_555
H13 C19 1_555 1_555
C20 N1 1_555 1_555
H14 C20 1_555 1_555
Ni4 N4 1_555 1_555
Ni6 N7 1_555 1_555
N6 C26 1_555 1_555
N7 C28 1_555 1_555
C26 C33 1_555 1_555
C28 N6 1_555 1_555
H18 C28 1_555 1_555
C32 H21 1_555 1_555
C33 C32 1_555 1_555
H22 C33 1_555 1_555
C34 N5 1_555 1_555
C35 C34 1_555 1_555
C36 C26 1_555 1_555
H24 C36 1_555 1_555
H25 C37 1_555 1_555
C38 N6 1_555 1_555
H26 C38 1_555 1_555
C39 N7 1_555 1_555
C40 N5 1_555 1_555
H28 C40 1_555 1_555
C12 C14 1_555 1_555
C15 C16 1_555 1_555
C17 C20 1_555 1_555
C18 C19 1_555 1_555
C32 C34 1_555 1_555
C35 C36 1_555 1_555
C37 C40 1_555 1_555
C38 C39 1_555 1_555
N1_2 C10_2 1_555 1_555
N2_2 C6_2 1_555 1_555
N4_2 C10_2 1_555 1_555
C6_2 C13_2 1_555 1_555
C10_2 H6_2 1_555 1_555
C12_2 H7_2 1_555 1_555
C13_2 C12_2 1_555 1_555
C14_2 N1_2 1_555 1_555
C15_2 C14_2 1_555 1_555
H9_2 C15_2 1_555 1_555
C16_2 C6_2 1_555 1_555
H10_2 C16_2 1_555 1_555
C17_2 N4_2 1_555 1_555
H11_2 C17_2 1_555 1_555
C18_2 N2_2 1_555 1_555
H12_2 C18_2 1_555 1_555
H13_2 C19_2 1_555 1_555
C20_2 N1_2 1_555 1_555
H14_2 C20_2 1_555 1_555
Ni3 N4_2 1_555 1_555
Ni6_2 N7_2 1_555 1_555
N6_2 C26_2 1_555 1_555
N7_2 C28_2 1_555 1_555
C26_2 C33_2 1_555 1_555
C28_2 N6_2 1_555 1_555
H18_2 C28_2 1_555 1_555
C32_2 H21_2 1_555 1_555
C33_2 C32_2 1_555 1_555
H22_2 C33_2 1_555 1_555
C34_2 N5_2 1_555 1_555
C35_2 C34_2 1_555 1_555
C36_2 C26_2 1_555 1_555
H24_2 C36_2 1_555 1_555
H25_2 C37_2 1_555 1_555
C38_2 N6_2 1_555 1_555
H26_2 C38_2 1_555 1_555
C39_2 N7_2 1_555 1_555
C40_2 N5_2 1_555 1_555
H28_2 C40_2 1_555 1_555
C12_2 C14_2 1_555 1_555
C15_2 C16_2 1_555 1_555
C17_2 C20_2 1_555 1_555
C18_2 C19_2 1_555 1_555
C32_2 C34_2 1_555 1_555
C35_2 C36_2 1_555 1_555
C37_2 C40_2 1_555 1_555
C38_2 C39_2 1_555 1_555
Ni1_2 O1_2 1_555 1_555
O1_2 Ni2_2 1_555 1_555
O2_2 Ni1_2 1_555 1_555
O3_2 C7_2 1_555 1_555
O4_2 C11_2 1_555 1_555
C1_2 C4_2 1_555 1_555
O5_2 C11_2 1_555 1_555
N3_2 Ni1_2 1_555 1_555
C2_2 H1_2 1_555 1_555
C3_2 C2_2 1_555 1_555
C4_2 H2_2 1_555 1_555
C5_2 C1_2 1_555 1_555
H3_2 C5_2 1_555 1_555
C7_2 O2_2 1_555 1_555
H4_2 C8_2 1_555 1_555
C9_2 C3_2 1_555 1_555
H5_2 C9_2 1_555 1_555
C11_2 C3_2 1_555 1_555
Ni2_2 O3_2 1_555 1_555
Ni4 O4_2 1_555 1_555
Ni5_2 O8_2 1_555 1_555
O6_2 Ni2_2 1_555 1_555
O7_2 Ni1_2 1_555 1_555
O8_2 C31_2 1_555 1_555
O9_2 Ni1_2 1_555 1_555
O10_2 Ni2_2 1_555 1_555
C21_2 C24_2 1_555 1_555
N8_2 Ni2_2 1_555 1_555
N9_2 Ni1_2 1_555 1_555
N10_2 Ni2_2 1_555 1_555
C22_2 H15_2 1_555 1_555
C23_2 C22_2 1_555 1_555
C24_2 H16_2 1_555 1_555
C25_2 C21_2 1_555 1_555
H17_2 C25_2 1_555 1_555
C27_2 O6_2 1_555 1_555
C29_2 C23_2 1_555 1_555
C30_2 N9_2 1_555 1_555
H20_2 C30_2 1_555 1_555
C31_2 C23_2 1_555 1_555
C1_2 C7_2 1_555 1_555
N3_2 C8_2 1_555 1_555
C2_2 C5_2 1_555 1_555
C4_2 C9_2 1_555 1_555
O7_2 C27_2 1_555 1_555
C21_2 C27_2 1_555 1_555
C22_2 C25_2 1_555 1_555
C24_2 C29_2 1_555 1_555
O1_3 Ni6 1_555 1_555
O6_3 Ni6 1_555 1_555
O10 C31_3 1_555 1_555
O10_3 Ni6 1_555 1_555
C21_3 C24_3 1_555 1_555
N5_3 C30_3 1_555 1_555
O11_3 C31_3 1_555 1_555
N6_3 C26_3 1_555 1_555
N10_3 Ni6 1_555 1_555
C22_3 H15_3 1_555 1_555
C23_3 C22_3 1_555 1_555
C24_3 H16_3 1_555 1_555
C25_3 C21_3 1_555 1_555
H17_3 C25_3 1_555 1_555
C26_3 C33_3 1_555 1_555
C27_3 O6_3 1_555 1_555
C29_3 C23_3 1_555 1_555
H19_3 C29_3 1_555 1_555
H20_3 C30_3 1_555 1_555
C31_3 C23_3 1_555 1_555
C32_3 H21_3 1_555 1_555
C33_3 C32_3 1_555 1_555
C34_3 N5_3 1_555 1_555
C35_3 C34_3 1_555 1_555
H23_3 C35_3 1_555 1_555
C36_3 C26_3 1_555 1_555
H24_3 C36_3 1_555 1_555
C38_3 N6_3 1_555 1_555
H26_3 C38_3 1_555 1_555
H27_3 C39_3 1_555 1_555
C40_3 N5_3 1_555 1_555
H28_3 C40_3 1_555 1_555
O7_3 C27_3 1_555 1_555
C21_3 C27_3 1_555 1_555
C22_3 C25_3 1_555 1_555
C24_3 C29_3 1_555 1_555
C32_3 C34_3 1_555 1_555
C35_3 C36_3 1_555 1_555
C38_3 C39_3 1_555 1_555
Ni6_3 N7_3 1_555 1_555
N7_3 C28_3 1_555 1_555
H18_3 C28_3 1_555 1_555
Ni6_2 O1_4 1_555 1_555
O2_3 Ni6_2 1_555 1_555
O3_3 C7_3 1_555 1_555
O10_2 C11_3 1_555 1_555
C1_3 C4_3 1_555 1_555
O5_3 C11_3 1_555 1_555
C2_3 H1_3 1_555 1_555
C3_3 C2_3 1_555 1_555
C4_3 H2_3 1_555 1_555
C5_3 C1_3 1_555 1_555
H3_3 C5_3 1_555 1_555
C7_3 O2_3 1_555 1_555
C9_3 C3_3 1_555 1_555
H5_3 C9_3 1_555 1_555
C11_3 C3_3 1_555 1_555
O9_3 Ni6_2 1_555 1_555
N9_3 Ni6_2 1_555 1_555
C37_3 N9_3 1_555 1_555
H25_3 C37_3 1_555 1_555
C1_3 C7_3 1_555 1_555
C2_3 C5_3 1_555 1_555
C4_3 C9_3 1_555 1_555
Ni1_3 O1_5 1_555 1_555
O2_4 Ni1_3 1_555 1_555
N1_3 C10_3 1_555 1_555
N2_3 C6_3 1_555 1_555
N3_3 Ni1_3 1_555 1_555
N10_2 C10_3 1_555 1_555
C6_3 C13_3 1_555 1_555
C8_3 N2_3 1_555 1_555
H4_3 C8_3 1_555 1_555
C10_3 H6_3 1_555 1_555
C12_3 H7_3 1_555 1_555
C13_3 C12_3 1_555 1_555
H8_3 C13_3 1_555 1_555
C14_3 N1_3 1_555 1_555
C15_3 C14_3 1_555 1_555
H9_3 C15_3 1_555 1_555
C16_3 C6_3 1_555 1_555
H10_3 C16_3 1_555 1_555
C17_3 N10_2 1_555 1_555
H11_3 C17_3 1_555 1_555
C18_3 N2_3 1_555 1_555
H12_3 C18_3 1_555 1_555
C19_3 N3_3 1_555 1_555
H13_3 C19_3 1_555 1_555
C20_3 N1_3 1_555 1_555
H14_3 C20_3 1_555 1_555
Ni6_4 N7_4 1_555 1_555
O7_4 Ni1_3 1_555 1_555
O9 C31_4 1_555 1_555
O9_4 Ni1_3 1_555 1_555
C21_4 C24_4 1_555 1_555
N5_4 C30_4 1_555 1_555
O11_4 C31_4 1_555 1_555
N6_4 C26_4 1_555 1_555
N7_4 C28_4 1_555 1_555
N9_4 Ni1_3 1_555 1_555
C22_4 H15_4 1_555 1_555
C23_4 C22_4 1_555 1_555
C24_4 H16_4 1_555 1_555
C25_4 C21_4 1_555 1_555
C26_4 C33_4 1_555 1_555
C28_4 N6_4 1_555 1_555
H18_4 C28_4 1_555 1_555
C29_4 C23_4 1_555 1_555
H19_4 C29_4 1_555 1_555
C30_4 N9_4 1_555 1_555
H20_4 C30_4 1_555 1_555
C31_4 C23_4 1_555 1_555
C32_4 H21_4 1_555 1_555
C33_4 C32_4 1_555 1_555
H22_4 C33_4 1_555 1_555
C34_4 N5_4 1_555 1_555
C35_4 C34_4 1_555 1_555
H23_4 C35_4 1_555 1_555
C36_4 C26_4 1_555 1_555
H24_4 C36_4 1_555 1_555
C37_4 N9_4 1_555 1_555
H25_4 C37_4 1_555 1_555
C38_4 N6_4 1_555 1_555
H26_4 C38_4 1_555 1_555
C39_4 N7_4 1_555 1_555
H27_4 C39_4 1_555 1_555
C40_4 N5_4 1_555 1_555
H28_4 C40_4 1_555 1_555
N3_3 C8_3 1_555 1_555
C12_3 C14_3 1_555 1_555
C15_3 C16_3 1_555 1_555
C17_3 C20_3 1_555 1_555
C18_3 C19_3 1_555 1_555
O7_4 C27_4 1_555 1_555
C21_4 C27_4 1_555 1_555
C22_4 C25_4 1_555 1_555
C24_4 C29_4 1_555 1_555
C32_4 C34_4 1_555 1_555
C35_4 C36_4 1_555 1_555
C37_4 C40_4 1_555 1_555
C38_4 C39_4 1_555 1_555
O1_6 Ni2_3 1_555 1_555
O3_4 C7_4 1_555 1_555
O9_2 C11_4 1_555 1_555
C1_4 C4_4 1_555 1_555
O5_4 C11_4 1_555 1_555
C2_4 H1_4 1_555 1_555
C3_4 C2_4 1_555 1_555
C4_4 H2_4 1_555 1_555
C5_4 C1_4 1_555 1_555
C9_4 C3_4 1_555 1_555
H5_4 C9_4 1_555 1_555
C11_4 C3_4 1_555 1_555
Ni2_3 O3_4 1_555 1_555
O6_4 Ni2_3 1_555 1_555
O10_4 Ni2_3 1_555 1_555
N8_3 Ni2_3 1_555 1_555
N10_4 Ni2_3 1_555 1_555
C1_4 C7_4 1_555 1_555
C2_4 C5_4 1_555 1_555
C4_4 C9_4 1_555 1_555
Ni6_4 O1_7 1_555 1_555
O1_7 Ni6_3 1_555 1_555
O2_5 Ni6_4 1_555 1_555
O3_5 C7_5 1_555 1_555
O10_4 C11_5 1_555 1_555
C1_5 C4_5 1_555 1_555
C2_5 H1_5 1_555 1_555
C3_5 C2_5 1_555 1_555
C4_5 H2_5 1_555 1_555
C5_5 C1_5 1_555 1_555
H3_5 C5_5 1_555 1_555
C7_5 O2_5 1_555 1_555
C9_5 C3_5 1_555 1_555
C11_5 C3_5 1_555 1_555
Ni6_3 O3_5 1_555 1_555
O6_5 Ni6_3 1_555 1_555
O7_5 Ni6_4 1_555 1_555
O10_3 C31_5 1_555 1_555
O9_5 Ni6_4 1_555 1_555
O10_5 Ni6_3 1_555 1_555
C21_5 C24_5 1_555 1_555
N5_5 C30_5 1_555 1_555
O11_5 C31_5 1_555 1_555
N6_5 C26_5 1_555 1_555
N7_5 C28_5 1_555 1_555
N9_5 Ni6_4 1_555 1_555
N10_5 Ni6_3 1_555 1_555
C22_5 H15_5 1_555 1_555
C23_5 C22_5 1_555 1_555
C24_5 H16_5 1_555 1_555
C25_5 C21_5 1_555 1_555
H17_5 C25_5 1_555 1_555
C26_5 C33_5 1_555 1_555
C27_5 O6_5 1_555 1_555
C28_5 N6_5 1_555 1_555
H18_5 C28_5 1_555 1_555
C29_5 C23_5 1_555 1_555
H19_5 C29_5 1_555 1_555
C30_5 N9_5 1_555 1_555
H20_5 C30_5 1_555 1_555
C31_5 C23_5 1_555 1_555
C32_5 H21_5 1_555 1_555
C33_5 C32_5 1_555 1_555
H22_5 C33_5 1_555 1_555
C34_5 N5_5 1_555 1_555
C35_5 C34_5 1_555 1_555
H23_5 C35_5 1_555 1_555
C36_5 C26_5 1_555 1_555
H24_5 C36_5 1_555 1_555
C37_5 N9_5 1_555 1_555
H25_5 C37_5 1_555 1_555
C38_5 N6_5 1_555 1_555
H26_5 C38_5 1_555 1_555
C39_5 N7_5 1_555 1_555
C40_5 N5_5 1_555 1_555
H28_5 C40_5 1_555 1_555
C1_5 C7_5 1_555 1_555
C2_5 C5_5 1_555 1_555
C4_5 C9_5 1_555 1_555
O7_5 C27_5 1_555 1_555
C21_5 C27_5 1_555 1_555
C22_5 C25_5 1_555 1_555
C24_5 C29_5 1_555 1_555
C32_5 C34_5 1_555 1_555
C35_5 C36_5 1_555 1_555
C37_5 C40_5 1_555 1_555
C38_5 C39_5 1_555 1_555
Ni1_4 O1_8 1_555 1_555
O1_8 Ni2_4 1_555 1_555
O2_6 Ni1_4 1_555 1_555
O3_6 C7_6 1_555 1_555
O9_4 C11_6 1_555 1_555
C1_6 C4_6 1_555 1_555
N1_4 C10_4 1_555 1_555
N2_4 C6_4 1_555 1_555
N3_4 Ni1_4 1_555 1_555
N10_4 C10_4 1_555 1_555
C2_6 H1_6 1_555 1_555
C3_6 C2_6 1_555 1_555
C4_6 H2_6 1_555 1_555
C5_6 C1_6 1_555 1_555
H3_6 C5_6 1_555 1_555
C6_4 C13_4 1_555 1_555
C7_6 O2_6 1_555 1_555
C8_4 N2_4 1_555 1_555
H4_4 C8_4 1_555 1_555
C9_6 C3_6 1_555 1_555
C10_4 H6_4 1_555 1_555
C11_6 C3_6 1_555 1_555
C12_4 H7_4 1_555 1_555
C13_4 C12_4 1_555 1_555
H8_4 C13_4 1_555 1_555
C14_4 N1_4 1_555 1_555
C15_4 C14_4 1_555 1_555
H9_4 C15_4 1_555 1_555
C16_4 C6_4 1_555 1_555
H10_4 C16_4 1_555 1_555
C17_4 N10_4 1_555 1_555
H11_4 C17_4 1_555 1_555
C18_4 N2_4 1_555 1_555
H12_4 C18_4 1_555 1_555
C19_4 N3_4 1_555 1_555
H13_4 C19_4 1_555 1_555
C20_4 N1_4 1_555 1_555
H14_4 C20_4 1_555 1_555
Ni2_4 O3_6 1_555 1_555
O6_6 Ni2_4 1_555 1_555
O7_6 Ni1_4 1_555 1_555
O9_3 C31_6 1_555 1_555
O9_6 Ni1_4 1_555 1_555
O10_6 Ni2_4 1_555 1_555
C21_6 C24_6 1_555 1_555
N5_6 C30_6 1_555 1_555
O11_6 C31_6 1_555 1_555
N6_6 C26_6 1_555 1_555
N7_6 C28_6 1_555 1_555
N8_4 Ni2_4 1_555 1_555
N9_6 Ni1_4 1_555 1_555
N10_6 Ni2_4 1_555 1_555
C22_6 H15_6 1_555 1_555
C23_6 C22_6 1_555 1_555
C24_6 H16_6 1_555 1_555
C25_6 C21_6 1_555 1_555
H17_6 C25_6 1_555 1_555
C26_6 C33_6 1_555 1_555
C27_6 O6_6 1_555 1_555
C28_6 N6_6 1_555 1_555
H18_6 C28_6 1_555 1_555
C29_6 C23_6 1_555 1_555
H19_6 C29_6 1_555 1_555
C30_6 N9_6 1_555 1_555
H20_6 C30_6 1_555 1_555
C31_6 C23_6 1_555 1_555
C32_6 H21_6 1_555 1_555
C33_6 C32_6 1_555 1_555
H22_6 C33_6 1_555 1_555
C34_6 N5_6 1_555 1_555
C35_6 C34_6 1_555 1_555
H23_6 C35_6 1_555 1_555
C36_6 C26_6 1_555 1_555
H24_6 C36_6 1_555 1_555
C37_6 N9_6 1_555 1_555
H25_6 C37_6 1_555 1_555
C38_6 N6_6 1_555 1_555
H26_6 C38_6 1_555 1_555
C39_6 N7_6 1_555 1_555
C40_6 N5_6 1_555 1_555
H28_6 C40_6 1_555 1_555
C1_6 C7_6 1_555 1_555
N3_4 C8_4 1_555 1_555
C2_6 C5_6 1_555 1_555
C4_6 C9_6 1_555 1_555
C12_4 C14_4 1_555 1_555
C15_4 C16_4 1_555 1_555
C17_4 C20_4 1_555 1_555
C18_4 C19_4 1_555 1_555
O7_6 C27_6 1_555 1_555
C21_6 C27_6 1_555 1_555
C22_6 C25_6 1_555 1_555
C24_6 C29_6 1_555 1_555
C32_6 C34_6 1_555 1_555
C35_6 C36_6 1_555 1_555
C37_6 C40_6 1_555 1_555
C38_6 C39_6 1_555 1_555
O1_9 Ni5 1_555 1_555
N10_7 Ni5 1_555 1_555
N5_7 C30_7 1_555 1_555
N6_7 C26_7 1_555 1_555
N8 C28_7 1_555 1_555
C26_7 C33_7 1_555 1_555
C28_7 N6_7 1_555 1_555
H18_7 C28_7 1_555 1_555
H20_7 C30_7 1_555 1_555
C32_7 H21_7 1_555 1_555
C33_7 C32_7 1_555 1_555
H22_7 C33_7 1_555 1_555
C34_7 N5_7 1_555 1_555
C35_7 C34_7 1_555 1_555
H23_7 C35_7 1_555 1_555
C36_7 C26_7 1_555 1_555
H24_7 C36_7 1_555 1_555
C38_7 N6_7 1_555 1_555
H26_7 C38_7 1_555 1_555
C39_7 N8 1_555 1_555
H27_7 C39_7 1_555 1_555
C40_7 N5_7 1_555 1_555
H28_7 C40_7 1_555 1_555
C32_7 C34_7 1_555 1_555
C35_7 C36_7 1_555 1_555
C38_7 C39_7 1_555 1_555
O10_5 C31_7 1_555 1_555
C21_7 C24_7 1_555 1_555
O11_7 C31_7 1_555 1_555
C22_7 H15_7 1_555 1_555
C23_7 C22_7 1_555 1_555
C24_7 H16_7 1_555 1_555
C25_7 C21_7 1_555 1_555
C29_7 C23_7 1_555 1_555
H19_7 C29_7 1_555 1_555
C31_7 C23_7 1_555 1_555
O7_7 C27_7 1_555 1_555
C21_7 C27_7 1_555 1_555
C22_7 C25_7 1_555 1_555
C24_7 C29_7 1_555 1_555
O3_7 C7_7 1_555 1_555
O10_6 C11_7 1_555 1_555
C1_7 C4_7 1_555 1_555
O5_7 C11_7 1_555 1_555
C2_7 H1_7 1_555 1_555
C3_7 C2_7 1_555 1_555
C4_7 H2_7 1_555 1_555
C5_7 C1_7 1_555 1_555
C9_7 C3_7 1_555 1_555
H5_7 C9_7 1_555 1_555
C11_7 C3_7 1_555 1_555
C1_7 C7_7 1_555 1_555
C2_7 C5_7 1_555 1_555
C4_7 C9_7 1_555 1_555
Ni5_2 O1_12 1_555 1_555
N9_7 Ni5_2 1_555 1_555
C37_7 N9_7 1_555 1_555
H25_7 C37_7 1_555 1_555
N10_6 C10_5 1_555 1_555
C10_5 H6_5 1_555 1_555
Ni4 O1_13 1_555 1_555
O1_13 Ni3 1_555 1_555
O3_8 C7_8 1_555 1_555
O9_6 C11_8 1_555 1_555
C1_8 C4_8 1_555 1_555
O5_8 C11_8 1_555 1_555
N2_5 C6_5 1_555 1_555
C2_8 H1_8 1_555 1_555
C3_8 C2_8 1_555 1_555
C4_8 H2_8 1_555 1_555
C5_8 C1_8 1_555 1_555
H3_8 C5_8 1_555 1_555
C6_5 C13_5 1_555 1_555
C7_8 O2_8 1_555 1_555
C8_5 N2_5 1_555 1_555
H4_5 C8_5 1_555 1_555
C9_8 C3_8 1_555 1_555
H5_8 C9_8 1_555 1_555
C11_8 C3_8 1_555 1_555
C12_5 H7_5 1_555 1_555
C13_5 C12_5 1_555 1_555
H8_5 C13_5 1_555 1_555
C14_5 N1_5 1_555 1_555
C15_5 C14_5 1_555 1_555
C16_5 C6_5 1_555 1_555
H10_5 C16_5 1_555 1_555
H11_5 C17_5 1_555 1_555
C18_5 N2_5 1_555 1_555
H12_5 C18_5 1_555 1_555
C19_5 N3_5 1_555 1_555
H13_5 C19_5 1_555 1_555
C20_5 N1_5 1_555 1_555
H14_5 C20_5 1_555 1_555
O9_5 C31_8 1_555 1_555
C21_8 C24_8 1_555 1_555
O11_8 C31_8 1_555 1_555
C22_8 H15_8 1_555 1_555
C23_8 C22_8 1_555 1_555
C24_8 H16_8 1_555 1_555
C25_8 C21_8 1_555 1_555
H17_8 C25_8 1_555 1_555
C27_8 O6_8 1_555 1_555
C29_8 C23_8 1_555 1_555
H19_8 C29_8 1_555 1_555
C31_8 C23_8 1_555 1_555
C1_8 C7_8 1_555 1_555
N3_5 C8_5 1_555 1_555
C2_8 C5_8 1_555 1_555
C4_8 C9_8 1_555 1_555
C12_5 C14_5 1_555 1_555
C15_5 C16_5 1_555 1_555
C17_5 C20_5 1_555 1_555
C18_5 C19_5 1_555 1_555
O7_8 C27_8 1_555 1_555
C21_8 C27_8 1_555 1_555
C22_8 C25_8 1_555 1_555
C24_8 C29_8 1_555 1_555
C17_6 N10_3 1_555 1_555
H11_6 C17_6 1_555 1_555
H4_6 C8_6 1_555 1_555
N8_4 C8_6 1_555 1_555
N1_6 C10_6 1_555 1_555
N2_6 C6_6 1_555 1_555
C6_6 C13_6 1_555 1_555
C10_6 H6_6 1_555 1_555
C12_6 H7_6 1_555 1_555
C13_6 C12_6 1_555 1_555
C14_6 N1_6 1_555 1_555
C15_6 C14_6 1_555 1_555
H9_6 C15_6 1_555 1_555
C16_6 C6_6 1_555 1_555
H10_6 C16_6 1_555 1_555
C18_6 N2_6 1_555 1_555
H12_6 C18_6 1_555 1_555
H13_6 C19_6 1_555 1_555
C20_6 N1_6 1_555 1_555
H14_6 C20_6 1_555 1_555
C12_6 C14_6 1_555 1_555
C15_6 C16_6 1_555 1_555
C18_6 C19_6 1_555 1_555
N6_8 C26_8 1_555 1_555
N8_5 C28_8 1_555 1_555
C26_8 C33_8 1_555 1_555
C28_8 N6_8 1_555 1_555
H18_8 C28_8 1_555 1_555
C32_8 H21_8 1_555 1_555
C33_8 C32_8 1_555 1_555
H22_8 C33_8 1_555 1_555
C34_8 N5_8 1_555 1_555
C35_8 C34_8 1_555 1_555
C36_8 C26_8 1_555 1_555
H24_8 C36_8 1_555 1_555
H25_8 C37_8 1_555 1_555
C38_8 N6_8 1_555 1_555
H26_8 C38_8 1_555 1_555
C39_8 N8_5 1_555 1_555
H27_8 C39_8 1_555 1_555
C40_8 N5_8 1_555 1_555
H28_8 C40_8 1_555 1_555
C32_8 C34_8 1_555 1_555
C35_8 C36_8 1_555 1_555
C37_8 C40_8 1_555 1_555
C38_8 C39_8 1_555 1_555
C30_8 N10_5 1_555 1_555
H20_8 C30_8 1_555 1_555
C37_9 N10_7 1_555 1_555
H25_9 C37_9 1_555 1_555
N5_9 C30_9 1_555 1_555
N6_9 C26_9 1_555 1_555
N8_2 C28_9 1_555 1_555
C26_9 C33_9 1_555 1_555
C28_9 N6_9 1_555 1_555
H18_9 C28_9 1_555 1_555
H20_9 C30_9 1_555 1_555
C32_9 H21_9 1_555 1_555
C33_9 C32_9 1_555 1_555
H22_9 C33_9 1_555 1_555
C34_9 N5_9 1_555 1_555
C35_9 C34_9 1_555 1_555
H23_9 C35_9 1_555 1_555
C36_9 C26_9 1_555 1_555
H24_9 C36_9 1_555 1_555
C38_9 N6_9 1_555 1_555
H26_9 C38_9 1_555 1_555
C39_9 N8_2 1_555 1_555
H27_9 C39_9 1_555 1_555
C40_9 N5_9 1_555 1_555
H28_9 C40_9 1_555 1_555
C32_9 C34_9 1_555 1_555
C35_9 C36_9 1_555 1_555
C38_9 C39_9 1_555 1_555
N5_10 C30_10 1_555 1_555
N6_10 C26_10 1_555 1_555
N8_3 C28_10 1_555 1_555
C26_10 C33_10 1_555 1_555
C28_10 N6_10 1_555 1_555
H18_10 C28_10 1_555 1_555
C30_10 N10 1_555 1_555
H20_10 C30_10 1_555 1_555
C32_10 H21_10 1_555 1_555
C33_10 C32_10 1_555 1_555
H22_10 C33_10 1_555 1_555
C34_10 N5_10 1_555 1_555
C35_10 C34_10 1_555 1_555
H23_10 C35_10 1_555 1_555
C36_10 C26_10 1_555 1_555
H24_10 C36_10 1_555 1_555
C37_10 N10 1_555 1_555
H25_10 C37_10 1_555 1_555
C38_10 N6_10 1_555 1_555
H26_10 C38_10 1_555 1_555
C39_10 N8_3 1_555 1_555
H27_10 C39_10 1_555 1_555
C40_10 N5_10 1_555 1_555
H28_10 C40_10 1_555 1_555
C32_10 C34_10 1_555 1_555
C35_10 C36_10 1_555 1_555
C37_10 C40_10 1_555 1_555
C38_10 C39_10 1_555 1_555

#END
