
###############################################################################
#
# This file contains modified crystal structure data generated from the
# MOF subset of the Cambridge Structural Database (CSD) v543 
# hosted by the Cambridge Crystallographic Data Centre (CCDC).
#
# This work is licensed under the Creative Commons
# Attribution-NonCommercial-ShareAlike 4.0 International License.
# To view a copy of this license, visit
# http://creativecommons.org/licenses/by-nc-sa/4.0/
# or send a letter to
# Creative Commons, PO Box 1866, Mountain View, CA 94042, USA.
#
# CIF created using the CSD Python API on 29 September 2022
# The structure has been converted into the P1 space group
# The structure has a 3D framework
# The original CSD entry BONWIL is in the monoclinic crystal system
# The framework has been calculated to contain at least 10.0% void space
# The void calculation uses a probe of radius 1.32A, grid spacing 0.4
#
###############################################################################

data_BONWIL
_chemical_formula_moiety         '(C148 H112 N16 O76 Zn12)n'
_symmetry_cell_setting           triclinic
_symmetry_space_group_name_H-M   'P 1'
_symmetry_Int_Tables_number      1
_space_group_name_Hall           'P 1'
loop_
_symmetry_equiv_pos_site_id
_symmetry_equiv_pos_as_xyz
1 x,y,z
_cell_length_a                   27.101(3)
_cell_length_b                   9.2732(10)
_cell_length_c                   16.9792(15)
_cell_angle_alpha                90
_cell_angle_beta                 99.156(5)
_cell_angle_gamma                90
_cell_volume                     4212.73
loop_
_atom_site_label
_atom_site_type_symbol
_atom_site_fract_x
_atom_site_fract_y
_atom_site_fract_z
H14 H 0.1019 0.6363 0.0367
Zn6 Zn 0.172367(11) 0.39369(3) 0.049488(17)
N2 N 0.10019(8) 0.4387(2) 0.99587(14)
C14 C 0.07351(11) 0.3504(3) 0.94278(19)
H11 H 0.0839 0.2552 0.9400
C15 C 0.03127(12) 0.3946(3) 0.8920(2)
H12 H 0.0139 0.3300 0.8558
C16 C 0.01485(10) 0.5366(3) 0.89535(16)
C17 C 0.04184(11) 0.6260(3) 0.95107(18)
H13 H 0.0318 0.7210 0.9560
C18 C 0.08404(11) 0.5741(3) 0.99971(18)
H1 H 0.8721 0.0206 0.6323
Zn5 Zn 0.672367(11) 0.10631(3) 0.549488(17)
Zn1 Zn 0.826904(10) 0.79725(3) 0.657672(17)
Zn2 Zn 0.827633(11) 0.39369(3) 0.450512(17)
O1 O 0.76721(6) 0.65751(18) 0.69311(10)
O2 O 0.87263(7) 0.9420(2) 0.61042(11)
H2 H 0.8441 0.9111 0.6028
O3 O 0.82217(7) 0.6335(2) 0.57509(12)
O4 O 0.79206(7) 0.4148(2) 0.54166(12)
O5 O 0.69799(8) 0.28362(19) 0.59916(12)
O6 O 0.63478(8) 0.4119(2) 0.53380(13)
O7 O 0.68180(7) 0.4331(2) 0.74745(11)
O8 O 0.63633(9) 0.6234(2) 0.77142(13)
O9 O 0.68257(7) 0.94481(19) 0.62571(12)
O10 O 0.75932(7) 0.8940(2) 0.60130(12)
N1 N 0.88769(9) 0.6958(2) 0.73462(14)
C1 C 0.75797(9) 0.5320(2) 0.64190(14)
H3 H 0.7625 0.4445 0.6746
C2 C 0.70345(9) 0.5421(3) 0.60160(14)
H4 H 0.7031 0.5992 0.5529
C3 C 0.67918(9) 0.6360(3) 0.66026(14)
H5 H 0.6505 0.6888 0.6317
C4 C 0.72210(9) 0.7401(2) 0.68975(14)
H6 H 0.7190 0.7737 0.7435
C5 C 0.79394(9) 0.5291(3) 0.58177(15)
C6 C 0.67657(10) 0.4018(3) 0.57698(15)
C7 C 0.66448(9) 0.5564(3) 0.73235(15)
C8 C 0.72231(9) 0.8711(3) 0.63382(15)
C9 C 0.89305(11) 0.5568(3) 0.75112(18)
H7 H 0.8686 0.4938 0.7269
C10 C 0.93309(12) 0.5000(3) 0.80246(19)
H8 H 0.9350 0.4012 0.8118
C11 C 0.97042(10) 0.5906(3) 0.84017(17)
C12 C 0.96427(12) 0.7367(3) 0.8236(2)
H9 H 0.9875 0.8029 0.8482
C13 C 0.92341(12) 0.7836(3) 0.7704(2)
H10 H 0.9207 0.8816 0.7588
Zn3 Zn 0.673096(10) 0.29725(3) 0.842328(17)
O11 O 0.80201(8) 0.21638(19) 0.40084(12)
O12 O 0.81820(7) 0.9331(2) 0.75255(11)
O13 O 0.81743(7) 0.55519(19) 0.37429(12)
N3 N 0.89981(8) 0.4387(2) 0.50413(14)
H1_2 H 0.1279 0.0206 0.8677
Zn5_2 Zn 0.327633(11) 0.10631(3) 0.950512(17)
O11_2 O 0.19799(8) 0.21638(19) 0.09916(12)
O13_2 O 0.18257(7) 0.55519(19) 0.12571(12)
Zn1_2 Zn 0.173096(10) 0.79725(3) 0.842328(17)
O1_2 O 0.23279(6) 0.65751(18) 0.80689(10)
O2_2 O 0.12737(7) 0.9420(2) 0.88958(11)
H2_2 H 0.1559 0.9111 0.8972
O3_2 O 0.17783(7) 0.6335(2) 0.92491(12)
O4_2 O 0.20794(7) 0.4148(2) 0.95834(12)
O5_2 O 0.30201(8) 0.28362(19) 0.90084(12)
O6_2 O 0.36522(8) 0.4119(2) 0.96620(13)
O7_2 O 0.31820(7) 0.4331(2) 0.75255(11)
O8_2 O 0.36367(9) 0.6234(2) 0.72858(13)
O9_2 O 0.31743(7) 0.94481(19) 0.87429(12)
O10_2 O 0.24068(7) 0.8940(2) 0.89870(12)
N1_2 N 0.11231(9) 0.6958(2) 0.76538(14)
C1_2 C 0.24203(9) 0.5320(2) 0.85810(14)
H3_2 H 0.2375 0.4445 0.8254
C2_2 C 0.29655(9) 0.5421(3) 0.89840(14)
H4_2 H 0.2969 0.5992 0.9471
C3_2 C 0.32082(9) 0.6360(3) 0.83974(14)
H5_2 H 0.3495 0.6888 0.8683
C4_2 C 0.27790(9) 0.7401(2) 0.81025(14)
H6_2 H 0.2810 0.7737 0.7565
C5_2 C 0.20606(9) 0.5291(3) 0.91823(15)
C6_2 C 0.32343(10) 0.4018(3) 0.92302(15)
C7_2 C 0.33552(9) 0.5564(3) 0.76765(15)
C8_2 C 0.27769(9) 0.8711(3) 0.86618(15)
C9_2 C 0.10695(11) 0.5568(3) 0.74888(18)
H7_2 H 0.1314 0.4938 0.7731
C10_2 C 0.06691(12) 0.5000(3) 0.69754(19)
H8_2 H 0.0650 0.4012 0.6882
C11_2 C 0.02958(10) 0.5906(3) 0.65983(17)
C12_2 C 0.03573(12) 0.7367(3) 0.6764(2)
H9_2 H 0.0125 0.8029 0.6518
C13_2 C 0.07659(12) 0.7836(3) 0.7296(2)
H10_2 H 0.0793 0.8816 0.7412
Zn3_2 Zn 0.326904(10) 0.29725(3) 0.657672(17)
O12_2 O 0.18180(7) 0.9331(2) 0.74745(11)
C14_2 C 0.92649(11) 0.3504(3) 0.55722(19)
H11_2 H 0.9161 0.2552 0.5600
C15_2 C 0.96873(12) 0.3946(3) 0.6080(2)
H12_2 H 0.9861 0.3300 0.6442
C16_2 C 0.98515(10) 0.5366(3) 0.60465(16)
C17_2 C 0.95816(11) 0.6260(3) 0.54893(18)
H13_2 H 0.9682 0.7210 0.5440
C18_2 C 0.91596(11) 0.5741(3) 0.50029(18)
H14_2 H 0.8981 0.6363 0.4633
O1_3 O 0.26721(6) 0.15751(18) 0.69311(10)
O2_3 O 0.37263(7) 0.4420(2) 0.61042(11)
H1_3 H 0.3721 0.5206 0.6323
H2_3 H 0.3441 0.4111 0.6028
O3_3 O 0.32217(7) 0.1335(2) 0.57509(12)
O8_3 O 0.13633(9) 0.1234(2) 0.77142(13)
O9_3 O 0.18257(7) 0.44481(19) 0.62571(12)
O10_3 O 0.25932(7) 0.3940(2) 0.60130(12)
N1_3 N 0.38769(9) 0.1958(2) 0.73462(14)
C1_3 C 0.25797(9) 0.0320(2) 0.64190(14)
C2_3 C 0.20345(9) 0.0421(3) 0.60160(14)
H4_3 H 0.2031 0.0992 0.5529
C3_3 C 0.17918(9) 0.1360(3) 0.66026(14)
H5_3 H 0.1505 0.1888 0.6317
C4_3 C 0.22210(9) 0.2401(2) 0.68975(14)
H6_3 H 0.2190 0.2737 0.7435
C5_3 C 0.29394(9) 0.0291(3) 0.58177(15)
C7_3 C 0.16448(9) 0.0564(3) 0.73235(15)
C8_3 C 0.22231(9) 0.3711(3) 0.63382(15)
C9_3 C 0.39305(11) 0.0568(3) 0.75112(18)
C10_3 C 0.43309(12) -0.0000(3) 0.80246(19)
C11_3 C 0.47042(10) 0.0906(3) 0.84017(17)
C12_3 C 0.46427(12) 0.2367(3) 0.8236(2)
H9_3 H 0.4875 0.3029 0.8482
C13_3 C 0.42341(12) 0.2836(3) 0.7704(2)
H10_3 H 0.4207 0.3816 0.7588
C16_3 C 0.51485(10) 0.0366(3) 0.89535(16)
C17_3 C 0.54184(11) 0.1260(3) 0.95107(18)
H13_3 H 0.5318 0.2210 0.9560
C18_3 C 0.58404(11) 0.0741(3) 0.99971(18)
Zn5_3 Zn 0.172367(11) 0.60631(3) 0.549488(17)
O13_3 O 0.31743(7) 0.05519(19) 0.37429(12)
Zn6_2 Zn 0.672367(11) 0.89369(3) 0.049488(17)
Zn2_2 Zn 0.327633(11) 0.89369(3) 0.450512(17)
O4_3 O 0.29206(7) 0.9148(2) 0.54166(12)
O5_3 O 0.19799(8) 0.78362(19) 0.59916(12)
O6_3 O 0.13478(8) 0.9119(2) 0.53380(13)
N2_2 N 0.60019(8) 0.9387(2) 0.99587(14)
H3_3 H 0.2625 0.9445 0.6746
C6_3 C 0.17657(10) 0.9018(3) 0.57698(15)
H7_3 H 0.3686 0.9938 0.7269
C10_4 C 0.43309(12) 1.0000(3) 0.80246(19)
H8_3 H 0.4350 0.9012 0.8118
C14_3 C 0.57351(11) 0.8504(3) 0.94278(19)
H11_3 H 0.5839 0.7552 0.9400
C15_3 C 0.53127(12) 0.8946(3) 0.8920(2)
H12_3 H 0.5139 0.8300 0.8558
O11_3 O 0.30201(8) 0.71638(19) 0.40084(12)
N3_2 N 0.39981(8) 0.9387(2) 0.50413(14)
O13_4 O 0.68257(7) 0.05519(19) 0.12571(12)
O1_4 O 0.73279(6) 0.15751(18) 0.80689(10)
O2_4 O 0.62737(7) 0.4420(2) 0.88958(11)
H1_4 H 0.6279 0.5206 0.8677
H2_4 H 0.6559 0.4111 0.8972
O3_4 O 0.67783(7) 0.1335(2) 0.92491(12)
O8_4 O 0.86367(9) 0.1234(2) 0.72858(13)
O9_4 O 0.81743(7) 0.44481(19) 0.87429(12)
O10_4 O 0.74068(7) 0.3940(2) 0.89870(12)
N1_4 N 0.61231(9) 0.1958(2) 0.76538(14)
C1_4 C 0.74203(9) 0.0320(2) 0.85810(14)
C2_4 C 0.79655(9) 0.0421(3) 0.89840(14)
H4_4 H 0.7969 0.0992 0.9471
C3_4 C 0.82082(9) 0.1360(3) 0.83974(14)
H5_4 H 0.8495 0.1888 0.8683
C4_4 C 0.77790(9) 0.2401(2) 0.81025(14)
H6_4 H 0.7810 0.2737 0.7565
C5_4 C 0.70606(9) 0.0291(3) 0.91823(15)
C7_4 C 0.83552(9) 0.0564(3) 0.76765(15)
C8_4 C 0.77769(9) 0.3711(3) 0.86618(15)
C9_4 C 0.60695(11) 0.0568(3) 0.74888(18)
C10_5 C 0.56691(12) 0.0000(3) 0.69754(19)
C11_4 C 0.52958(10) 0.0906(3) 0.65983(17)
C12_4 C 0.53573(12) 0.2367(3) 0.6764(2)
H9_4 H 0.5125 0.3029 0.6518
C13_4 C 0.57659(12) 0.2836(3) 0.7296(2)
H10_4 H 0.5793 0.3816 0.7412
C16_4 C 0.48515(10) 0.0366(3) 0.60465(16)
C17_4 C 0.45816(11) 0.1260(3) 0.54893(18)
H13_4 H 0.4682 0.2210 0.5440
C18_4 C 0.41596(11) 0.0741(3) 0.50029(18)
H14_3 H 0.3981 0.1363 0.4633
Zn5_4 Zn 0.827633(11) 0.60631(3) 0.950512(17)
O11_4 O 0.69799(8) 0.71638(19) 0.09916(12)
O4_4 O 0.70794(7) 0.9148(2) 0.95834(12)
O5_4 O 0.80201(8) 0.78362(19) 0.90084(12)
O6_4 O 0.86522(8) 0.9119(2) 0.96620(13)
H3_4 H 0.7375 0.9445 0.8254
C6_4 C 0.82343(10) 0.9018(3) 0.92302(15)
H7_4 H 0.6314 0.9938 0.7731
C10_6 C 0.56691(12) 1.0000(3) 0.69754(19)
H8_4 H 0.5650 0.9012 0.6882
C14_4 C 0.42649(11) 0.8504(3) 0.55722(19)
H11_4 H 0.4161 0.7552 0.5600
C15_4 C 0.46873(12) 0.8946(3) 0.6080(2)
H12_4 H 0.4861 0.8300 0.6442
Zn1_3 Zn 0.173096(10) 0.20275(3) 0.342328(17)
O1_5 O 0.23279(6) 0.34249(18) 0.30689(10)
O2_5 O 0.12737(7) 0.0580(2) 0.38958(11)
H2_5 H 0.1559 0.0889 0.3972
O3_5 O 0.17783(7) 0.3665(2) 0.42491(12)
O4_5 O 0.20794(7) 0.5852(2) 0.45834(12)
O6_5 O 0.36522(8) 0.5881(2) 0.46620(13)
O7_3 O 0.31820(7) 0.5669(2) 0.25255(11)
O8_5 O 0.36367(9) 0.3766(2) 0.22858(13)
O10_5 O 0.24068(7) 0.1060(2) 0.39870(12)
N1_5 N 0.11231(9) 0.3042(2) 0.26538(14)
C1_5 C 0.24203(9) 0.4680(2) 0.35810(14)
H3_5 H 0.2375 0.5555 0.3254
C2_5 C 0.29655(9) 0.4579(3) 0.39840(14)
H4_5 H 0.2969 0.4008 0.4471
C3_5 C 0.32082(9) 0.3640(3) 0.33974(14)
H5_5 H 0.3495 0.3112 0.3683
C4_5 C 0.27790(9) 0.2599(2) 0.31025(14)
H6_5 H 0.2810 0.2263 0.2565
C5_5 C 0.20606(9) 0.4709(3) 0.41823(15)
C6_5 C 0.32343(10) 0.5982(3) 0.42302(15)
C7_5 C 0.33552(9) 0.4436(3) 0.26765(15)
C8_5 C 0.27769(9) 0.1289(3) 0.36618(15)
C9_5 C 0.10695(11) 0.4432(3) 0.24888(18)
H7_5 H 0.1314 0.5062 0.2731
C10_7 C 0.06691(12) 0.5000(3) 0.19754(19)
H8_5 H 0.0650 0.5988 0.1882
C11_5 C 0.02958(10) 0.4094(3) 0.15983(17)
C12_5 C 0.03573(12) 0.2633(3) 0.1764(2)
H9_5 H 0.0125 0.1971 0.1518
C13_5 C 0.07659(12) 0.2164(3) 0.2296(2)
H10_5 H 0.0793 0.1184 0.2412
Zn3_3 Zn 0.326904(10) 0.70275(3) 0.157672(17)
O12_3 O 0.18180(7) 0.0669(2) 0.24745(11)
N3_3 N 0.10019(8) 0.5613(2) 0.49587(14)
H1_5 H 0.1279 0.9794 0.3677
N2_3 N 0.89981(8) 0.5613(2) 0.00413(14)
C14_5 C 0.92649(11) 0.6496(3) 0.05722(19)
H11_5 H 0.9161 0.7448 0.0600
C15_5 C 0.96873(12) 0.6054(3) 0.1080(2)
H12_5 H 0.9861 0.6700 0.1442
C16_5 C 0.98515(10) 0.4634(3) 0.10465(16)
C17_5 C 0.95816(11) 0.3740(3) 0.04893(18)
H13_5 H 0.9682 0.2790 0.0440
C18_5 C 0.91596(11) 0.4259(3) 0.00029(18)
H14_4 H 0.8981 0.3637 0.9633
C14_6 C 0.07351(11) 0.6496(3) 0.44278(19)
H11_6 H 0.0839 0.7448 0.4400
C15_6 C 0.03127(12) 0.6054(3) 0.3920(2)
H12_6 H 0.0139 0.6700 0.3558
C16_6 C 0.01485(10) 0.4634(3) 0.39535(16)
C17_6 C 0.04184(11) 0.3740(3) 0.45107(18)
H13_6 H 0.0318 0.2790 0.4560
C18_6 C 0.08404(11) 0.4259(3) 0.49971(18)
H14_5 H 0.1019 0.3637 0.5367
Zn1_4 Zn 0.826904(10) 0.20275(3) 0.157672(17)
O1_6 O 0.76721(6) 0.34249(18) 0.19311(10)
O2_6 O 0.87263(7) 0.0580(2) 0.11042(11)
H2_6 H 0.8441 0.0889 0.1028
O3_6 O 0.82217(7) 0.3665(2) 0.07509(12)
O4_6 O 0.79206(7) 0.5852(2) 0.04166(12)
O6_6 O 0.63478(8) 0.5881(2) 0.03380(13)
O7_4 O 0.68180(7) 0.5669(2) 0.24745(11)
O8_6 O 0.63633(9) 0.3766(2) 0.27142(13)
O10_6 O 0.75932(7) 0.1060(2) 0.10130(12)
N1_6 N 0.88769(9) 0.3042(2) 0.23462(14)
C1_6 C 0.75797(9) 0.4680(2) 0.14190(14)
H3_6 H 0.7625 0.5555 0.1746
C2_6 C 0.70345(9) 0.4579(3) 0.10160(14)
H4_6 H 0.7031 0.4008 0.0529
C3_6 C 0.67918(9) 0.3640(3) 0.16026(14)
H5_6 H 0.6505 0.3112 0.1317
C4_6 C 0.72210(9) 0.2599(2) 0.18975(14)
H6_6 H 0.7190 0.2263 0.2435
C5_6 C 0.79394(9) 0.4709(3) 0.08177(15)
C6_6 C 0.67657(10) 0.5982(3) 0.07698(15)
C7_6 C 0.66448(9) 0.4436(3) 0.23235(15)
C8_6 C 0.72231(9) 0.1289(3) 0.13382(15)
C9_6 C 0.89305(11) 0.4432(3) 0.25112(18)
H7_6 H 0.8686 0.5062 0.2269
C10_8 C 0.93309(12) 0.5000(3) 0.30246(19)
H8_6 H 0.9350 0.5988 0.3118
C11_6 C 0.97042(10) 0.4094(3) 0.34017(17)
C12_6 C 0.96427(12) 0.2633(3) 0.3236(2)
H9_6 H 0.9875 0.1971 0.3482
C13_6 C 0.92341(12) 0.2164(3) 0.2704(2)
H10_6 H 0.9207 0.1184 0.2588
Zn3_4 Zn 0.673096(10) 0.70275(3) 0.342328(17)
O12_4 O 0.81820(7) 0.0669(2) 0.25255(11)
H1_6 H 0.8721 0.9794 0.1323
O4_7 O 0.70794(7) 0.0852(2) 0.45834(12)
O6_7 O 0.86522(8) 0.0881(2) 0.46620(13)
N2_4 N 0.39981(8) 0.0613(2) 0.00413(14)
H3_7 H 0.7375 0.0555 0.3254
C6_7 C 0.82343(10) 0.0982(3) 0.42302(15)
H7_7 H 0.6314 0.0062 0.2731
C10_9 C 0.56691(12) 0.0000(3) 0.19754(19)
H8_7 H 0.5650 0.0988 0.1882
C14_7 C 0.42649(11) 0.1496(3) 0.05722(19)
H11_7 H 0.4161 0.2448 0.0600
C15_7 C 0.46873(12) 0.1054(3) 0.1080(2)
H12_7 H 0.4861 0.1700 0.1442
N3_4 N 0.60019(8) 0.0613(2) 0.49587(14)
O1_7 O 0.73279(6) 0.84249(18) 0.30689(10)
O2_7 O 0.62737(7) 0.5580(2) 0.38958(11)
H1_7 H 0.6279 0.4794 0.3677
H2_7 H 0.6559 0.5889 0.3972
O3_7 O 0.67783(7) 0.8665(2) 0.42491(12)
O8_7 O 0.86367(9) 0.8766(2) 0.22858(13)
O10_7 O 0.74068(7) 0.6060(2) 0.39870(12)
N1_7 N 0.61231(9) 0.8042(2) 0.26538(14)
C1_7 C 0.74203(9) 0.9680(2) 0.35810(14)
C2_7 C 0.79655(9) 0.9579(3) 0.39840(14)
H4_7 H 0.7969 0.9008 0.4471
C3_7 C 0.82082(9) 0.8640(3) 0.33974(14)
H5_7 H 0.8495 0.8112 0.3683
C4_7 C 0.77790(9) 0.7599(2) 0.31025(14)
H6_7 H 0.7810 0.7263 0.2565
C5_7 C 0.70606(9) 0.9709(3) 0.41823(15)
C7_7 C 0.83552(9) 0.9436(3) 0.26765(15)
C8_7 C 0.77769(9) 0.6289(3) 0.36618(15)
C9_7 C 0.60695(11) 0.9432(3) 0.24888(18)
C10_10 C 0.56691(12) 1.0000(3) 0.19754(19)
C11_7 C 0.52958(10) 0.9094(3) 0.15983(17)
C12_7 C 0.53573(12) 0.7633(3) 0.1764(2)
H9_7 H 0.5125 0.6971 0.1518
C13_7 C 0.57659(12) 0.7164(3) 0.2296(2)
H10_7 H 0.5793 0.6184 0.2412
C16_7 C 0.48515(10) 0.9634(3) 0.10465(16)
C17_7 C 0.45816(11) 0.8740(3) 0.04893(18)
H13_7 H 0.4682 0.7790 0.0440
C18_7 C 0.41596(11) 0.9259(3) 0.00029(18)
O4_8 O 0.29206(7) 0.0852(2) 0.04166(12)
O6_8 O 0.13478(8) 0.0881(2) 0.03380(13)
H3_8 H 0.2625 0.0555 0.1746
C6_8 C 0.17657(10) 0.0982(3) 0.07698(15)
H7_8 H 0.3686 0.0062 0.2269
C10_11 C 0.43309(12) 0.0000(3) 0.30246(19)
H8_8 H 0.4350 0.0988 0.3118
C14_8 C 0.57351(11) 0.1496(3) 0.44278(19)
H11_8 H 0.5839 0.2448 0.4400
C15_8 C 0.53127(12) 0.1054(3) 0.3920(2)
H12_8 H 0.5139 0.1700 0.3558
O1_8 O 0.26721(6) 0.84249(18) 0.19311(10)
O2_8 O 0.37263(7) 0.5580(2) 0.11042(11)
H1_8 H 0.3721 0.4794 0.1323
H2_8 H 0.3441 0.5889 0.1028
O3_8 O 0.32217(7) 0.8665(2) 0.07509(12)
O8_8 O 0.13633(9) 0.8766(2) 0.27142(13)
O10_8 O 0.25932(7) 0.6060(2) 0.10130(12)
N1_8 N 0.38769(9) 0.8042(2) 0.23462(14)
C1_8 C 0.25797(9) 0.9680(2) 0.14190(14)
C2_8 C 0.20345(9) 0.9579(3) 0.10160(14)
H4_8 H 0.2031 0.9008 0.0529
C3_8 C 0.17918(9) 0.8640(3) 0.16026(14)
H5_8 H 0.1505 0.8112 0.1317
C4_8 C 0.22210(9) 0.7599(2) 0.18975(14)
H6_8 H 0.2190 0.7263 0.2435
C5_8 C 0.29394(9) 0.9709(3) 0.08177(15)
C7_8 C 0.16448(9) 0.9436(3) 0.23235(15)
C8_8 C 0.22231(9) 0.6289(3) 0.13382(15)
C9_8 C 0.39305(11) 0.9432(3) 0.25112(18)
C10_12 C 0.43309(12) 1.0000(3) 0.30246(19)
C11_8 C 0.47042(10) 0.9094(3) 0.34017(17)
C12_8 C 0.46427(12) 0.7633(3) 0.3236(2)
H9_8 H 0.4875 0.6971 0.3482
C13_8 C 0.42341(12) 0.7164(3) 0.2704(2)
H10_8 H 0.4207 0.6184 0.2588
C16_8 C 0.51485(10) 0.9634(3) 0.39535(16)
C17_8 C 0.54184(11) 0.8740(3) 0.45107(18)
H13_8 H 0.5318 0.7790 0.4560
C18_8 C 0.58404(11) 0.9259(3) 0.49971(18)
H14_6 H 0.6019 0.8637 0.5367
H14_7 H 0.6019 0.1363 0.0367
H14_8 H 0.3981 0.8637 0.9633
loop_
_geom_bond_atom_site_label_1
_geom_bond_atom_site_label_2
_geom_bond_site_symmetry_1
_geom_bond_site_symmetry_2
N2 C14 1_555 1_555
C14 H11 1_555 1_555
C15 C14 1_555 1_555
H12 C15 1_555 1_555
C17 C16 1_555 1_555
H13 C17 1_555 1_555
C18 N2 1_555 1_555
C15 C16 1_555 1_555
C17 C18 1_555 1_555
Zn1 O1 1_555 1_555
Zn2 O4 1_555 1_555
O1 C1 1_555 1_555
O2 Zn1 1_555 1_555
H2 O2 1_555 1_555
O3 Zn1 1_555 1_555
O4 C5 1_555 1_555
O5 C6 1_555 1_555
O6 C6 1_555 1_555
O7 C7 1_555 1_555
O8 C7 1_555 1_555
O9 C8 1_555 1_555
O10 Zn1 1_555 1_555
N1 Zn1 1_555 1_555
C1 H3 1_555 1_555
C2 C1 1_555 1_555
H4 C2 1_555 1_555
C3 C2 1_555 1_555
H5 C3 1_555 1_555
C4 O1 1_555 1_555
H6 C4 1_555 1_555
C5 O3 1_555 1_555
C6 C2 1_555 1_555
C7 C3 1_555 1_555
C8 O10 1_555 1_555
C9 N1 1_555 1_555
H7 C9 1_555 1_555
C10 C9 1_555 1_555
H8 C10 1_555 1_555
C11 C10 1_555 1_555
C12 C11 1_555 1_555
H9 C12 1_555 1_555
C13 N1 1_555 1_555
H10 C13 1_555 1_555
Zn3 O7 1_555 1_555
Zn5 O5 1_555 1_555
O11 Zn2 1_555 1_555
O12 Zn1 1_555 1_555
O13 Zn2 1_555 1_555
N3 Zn2 1_555 1_555
C1 C5 1_555 1_555
C3 C4 1_555 1_555
C4 C8 1_555 1_555
C12 C13 1_555 1_555
O11_2 Zn6 1_555 1_555
O13_2 Zn6 1_555 1_555
Zn1_2 O1_2 1_555 1_555
O1_2 C1_2 1_555 1_555
O2_2 Zn1_2 1_555 1_555
H2_2 O2_2 1_555 1_555
O3_2 Zn1_2 1_555 1_555
O4_2 C5_2 1_555 1_555
O5_2 C6_2 1_555 1_555
O6_2 C6_2 1_555 1_555
O7_2 C7_2 1_555 1_555
O8_2 C7_2 1_555 1_555
O9_2 C8_2 1_555 1_555
O10_2 Zn1_2 1_555 1_555
N1_2 Zn1_2 1_555 1_555
C1_2 H3_2 1_555 1_555
C2_2 C1_2 1_555 1_555
H4_2 C2_2 1_555 1_555
C3_2 C2_2 1_555 1_555
H5_2 C3_2 1_555 1_555
C4_2 O1_2 1_555 1_555
H6_2 C4_2 1_555 1_555
C5_2 O3_2 1_555 1_555
C6_2 C2_2 1_555 1_555
C7_2 C3_2 1_555 1_555
C8_2 O10_2 1_555 1_555
C9_2 N1_2 1_555 1_555
H7_2 C9_2 1_555 1_555
C10_2 C9_2 1_555 1_555
H8_2 C10_2 1_555 1_555
C11_2 C10_2 1_555 1_555
C12_2 C11_2 1_555 1_555
H9_2 C12_2 1_555 1_555
C13_2 N1_2 1_555 1_555
H10_2 C13_2 1_555 1_555
Zn3_2 O7_2 1_555 1_555
Zn5_2 O5_2 1_555 1_555
O12_2 Zn1_2 1_555 1_555
C1_2 C5_2 1_555 1_555
C3_2 C4_2 1_555 1_555
C4_2 C8_2 1_555 1_555
C12_2 C13_2 1_555 1_555
N3 C14_2 1_555 1_555
C14_2 H11_2 1_555 1_555
C15_2 C14_2 1_555 1_555
H12_2 C15_2 1_555 1_555
C17_2 C16_2 1_555 1_555
H13_2 C17_2 1_555 1_555
C18_2 N3 1_555 1_555
H14_2 C18_2 1_555 1_555
C15_2 C16_2 1_555 1_555
C17_2 C18_2 1_555 1_555
Zn3_2 O1_3 1_555 1_555
O1_3 C1_3 1_555 1_555
O2_3 Zn3_2 1_555 1_555
H1_3 O2_3 1_555 1_555
H2_3 O2_3 1_555 1_555
O3_3 Zn3_2 1_555 1_555
O8_3 C7_3 1_555 1_555
O9_3 C8_3 1_555 1_555
O10_3 Zn3_2 1_555 1_555
N1_3 Zn3_2 1_555 1_555
C2_3 C1_3 1_555 1_555
H4_3 C2_3 1_555 1_555
C3_3 C2_3 1_555 1_555
H5_3 C3_3 1_555 1_555
C4_3 O1_3 1_555 1_555
H6_3 C4_3 1_555 1_555
C5_3 O3_3 1_555 1_555
C7_3 C3_3 1_555 1_555
C8_3 O10_3 1_555 1_555
C9_3 N1_3 1_555 1_555
C10_3 C9_3 1_555 1_555
C11_3 C10_3 1_555 1_555
C12_3 C11_3 1_555 1_555
H9_3 C12_3 1_555 1_555
C13_3 N1_3 1_555 1_555
H10_3 C13_3 1_555 1_555
C16_3 C11_3 1_555 1_555
C17_3 C16_3 1_555 1_555
H13_3 C17_3 1_555 1_555
Zn5_3 O9_3 1_555 1_555
C1_3 C5_3 1_555 1_555
C3_3 C4_3 1_555 1_555
C4_3 C8_3 1_555 1_555
C12_3 C13_3 1_555 1_555
C17_3 C18_3 1_555 1_555
Zn2_2 O4_3 1_555 1_555
O5_3 C6_3 1_555 1_555
O6_3 C6_3 1_555 1_555
N2_2 C14_3 1_555 1_555
H8_3 C10_4 1_555 1_555
C14_3 H11_3 1_555 1_555
C15_3 C14_3 1_555 1_555
H12_3 C15_3 1_555 1_555
Zn5_3 O5_3 1_555 1_555
O11_3 Zn2_2 1_555 1_555
N3_2 Zn2_2 1_555 1_555
Zn3 O1_4 1_555 1_555
O1_4 C1_4 1_555 1_555
O2_4 Zn3 1_555 1_555
H1_4 O2_4 1_555 1_555
H2_4 O2_4 1_555 1_555
O3_4 Zn3 1_555 1_555
O8_4 C7_4 1_555 1_555
O9_4 C8_4 1_555 1_555
O10_4 Zn3 1_555 1_555
N1_4 Zn3 1_555 1_555
C2_4 C1_4 1_555 1_555
H4_4 C2_4 1_555 1_555
C3_4 C2_4 1_555 1_555
H5_4 C3_4 1_555 1_555
C4_4 O1_4 1_555 1_555
H6_4 C4_4 1_555 1_555
C5_4 O3_4 1_555 1_555
C7_4 C3_4 1_555 1_555
C8_4 O10_4 1_555 1_555
C9_4 N1_4 1_555 1_555
C10_5 C9_4 1_555 1_555
C11_4 C10_5 1_555 1_555
C12_4 C11_4 1_555 1_555
H9_4 C12_4 1_555 1_555
C13_4 N1_4 1_555 1_555
H10_4 C13_4 1_555 1_555
C16_4 C11_4 1_555 1_555
C17_4 C16_4 1_555 1_555
H13_4 C17_4 1_555 1_555
H14_3 C18_4 1_555 1_555
Zn5_4 O9_4 1_555 1_555
C1_4 C5_4 1_555 1_555
C3_4 C4_4 1_555 1_555
C4_4 C8_4 1_555 1_555
C12_4 C13_4 1_555 1_555
C17_4 C18_4 1_555 1_555
O11_4 Zn6_2 1_555 1_555
O5_4 C6_4 1_555 1_555
O6_4 C6_4 1_555 1_555
N3_2 C14_4 1_555 1_555
H8_4 C10_6 1_555 1_555
C14_4 H11_4 1_555 1_555
C15_4 C14_4 1_555 1_555
H12_4 C15_4 1_555 1_555
Zn5_4 O5_4 1_555 1_555
Zn1_3 O1_5 1_555 1_555
Zn5_3 O4_5 1_555 1_555
O1_5 C1_5 1_555 1_555
O2_5 Zn1_3 1_555 1_555
H2_5 O2_5 1_555 1_555
O3_5 Zn1_3 1_555 1_555
O4_5 C5_5 1_555 1_555
O11_3 C6_5 1_555 1_555
O6_5 C6_5 1_555 1_555
O7_3 C7_5 1_555 1_555
O8_5 C7_5 1_555 1_555
O13_3 C8_5 1_555 1_555
O10_5 Zn1_3 1_555 1_555
N1_5 Zn1_3 1_555 1_555
C1_5 H3_5 1_555 1_555
C2_5 C1_5 1_555 1_555
H4_5 C2_5 1_555 1_555
C3_5 C2_5 1_555 1_555
H5_5 C3_5 1_555 1_555
C4_5 O1_5 1_555 1_555
H6_5 C4_5 1_555 1_555
C5_5 O3_5 1_555 1_555
C6_5 C2_5 1_555 1_555
C7_5 C3_5 1_555 1_555
C8_5 O10_5 1_555 1_555
C9_5 N1_5 1_555 1_555
H7_5 C9_5 1_555 1_555
C10_7 C9_5 1_555 1_555
H8_5 C10_7 1_555 1_555
C11_5 C10_7 1_555 1_555
C12_5 C11_5 1_555 1_555
H9_5 C12_5 1_555 1_555
C13_5 N1_5 1_555 1_555
H10_5 C13_5 1_555 1_555
Zn3_3 O7_3 1_555 1_555
O12_3 Zn1_3 1_555 1_555
N3_3 Zn5_3 1_555 1_555
C1_5 C5_5 1_555 1_555
C3_5 C4_5 1_555 1_555
C4_5 C8_5 1_555 1_555
C12_5 C13_5 1_555 1_555
N2_3 C14_5 1_555 1_555
C14_5 H11_5 1_555 1_555
C15_5 C14_5 1_555 1_555
H12_5 C15_5 1_555 1_555
C17_5 C16_5 1_555 1_555
H13_5 C17_5 1_555 1_555
C18_5 N2_3 1_555 1_555
C15_5 C16_5 1_555 1_555
C17_5 C18_5 1_555 1_555
N3_3 C14_6 1_555 1_555
C14_6 H11_6 1_555 1_555
C15_6 C14_6 1_555 1_555
H12_6 C15_6 1_555 1_555
C17_6 C16_6 1_555 1_555
H13_6 C17_6 1_555 1_555
C18_6 N3_3 1_555 1_555
H14_5 C18_6 1_555 1_555
C15_6 C16_6 1_555 1_555
C17_6 C18_6 1_555 1_555
Zn1_4 O1_6 1_555 1_555
O1_6 C1_6 1_555 1_555
O2_6 Zn1_4 1_555 1_555
H2_6 O2_6 1_555 1_555
O3_6 Zn1_4 1_555 1_555
O4_6 C5_6 1_555 1_555
O11_4 C6_6 1_555 1_555
O6_6 C6_6 1_555 1_555
O7_4 C7_6 1_555 1_555
O8_6 C7_6 1_555 1_555
O13_4 C8_6 1_555 1_555
O10_6 Zn1_4 1_555 1_555
N1_6 Zn1_4 1_555 1_555
C1_6 H3_6 1_555 1_555
C2_6 C1_6 1_555 1_555
H4_6 C2_6 1_555 1_555
C3_6 C2_6 1_555 1_555
H5_6 C3_6 1_555 1_555
C4_6 O1_6 1_555 1_555
H6_6 C4_6 1_555 1_555
C5_6 O3_6 1_555 1_555
C6_6 C2_6 1_555 1_555
C7_6 C3_6 1_555 1_555
C8_6 O10_6 1_555 1_555
C9_6 N1_6 1_555 1_555
H7_6 C9_6 1_555 1_555
C10_8 C9_6 1_555 1_555
H8_6 C10_8 1_555 1_555
C11_6 C10_8 1_555 1_555
C12_6 C11_6 1_555 1_555
H9_6 C12_6 1_555 1_555
C13_6 N1_6 1_555 1_555
H10_6 C13_6 1_555 1_555
Zn3_4 O7_4 1_555 1_555
O12_4 Zn1_4 1_555 1_555
C1_6 C5_6 1_555 1_555
C3_6 C4_6 1_555 1_555
C4_6 C8_6 1_555 1_555
C12_6 C13_6 1_555 1_555
Zn5 O4_7 1_555 1_555
O11 C6_7 1_555 1_555
O6_7 C6_7 1_555 1_555
N2_4 C14_7 1_555 1_555
H8_7 C10_9 1_555 1_555
C14_7 H11_7 1_555 1_555
C15_7 C14_7 1_555 1_555
H12_7 C15_7 1_555 1_555
N3_4 Zn5 1_555 1_555
Zn3_4 O1_7 1_555 1_555
O1_7 C1_7 1_555 1_555
O2_7 Zn3_4 1_555 1_555
H1_7 O2_7 1_555 1_555
H2_7 O2_7 1_555 1_555
O3_7 Zn3_4 1_555 1_555
O8_7 C7_7 1_555 1_555
O13 C8_7 1_555 1_555
O10_7 Zn3_4 1_555 1_555
N1_7 Zn3_4 1_555 1_555
C2_7 C1_7 1_555 1_555
H4_7 C2_7 1_555 1_555
C3_7 C2_7 1_555 1_555
H5_7 C3_7 1_555 1_555
C4_7 O1_7 1_555 1_555
H6_7 C4_7 1_555 1_555
C5_7 O3_7 1_555 1_555
C7_7 C3_7 1_555 1_555
C8_7 O10_7 1_555 1_555
C9_7 N1_7 1_555 1_555
C10_10 C9_7 1_555 1_555
C11_7 C10_10 1_555 1_555
C12_7 C11_7 1_555 1_555
H9_7 C12_7 1_555 1_555
C13_7 N1_7 1_555 1_555
H10_7 C13_7 1_555 1_555
C16_7 C11_7 1_555 1_555
C17_7 C16_7 1_555 1_555
H13_7 C17_7 1_555 1_555
C1_7 C5_7 1_555 1_555
C3_7 C4_7 1_555 1_555
C4_7 C8_7 1_555 1_555
C12_7 C13_7 1_555 1_555
C17_7 C18_7 1_555 1_555
O11_2 C6_8 1_555 1_555
O6_8 C6_8 1_555 1_555
N3_4 C14_8 1_555 1_555
H8_8 C10_11 1_555 1_555
C14_8 H11_8 1_555 1_555
C15_8 C14_8 1_555 1_555
H12_8 C15_8 1_555 1_555
Zn3_3 O1_8 1_555 1_555
O1_8 C1_8 1_555 1_555
O2_8 Zn3_3 1_555 1_555
H1_8 O2_8 1_555 1_555
H2_8 O2_8 1_555 1_555
O3_8 Zn3_3 1_555 1_555
O8_8 C7_8 1_555 1_555
O13_2 C8_8 1_555 1_555
O10_8 Zn3_3 1_555 1_555
N1_8 Zn3_3 1_555 1_555
C2_8 C1_8 1_555 1_555
H4_8 C2_8 1_555 1_555
C3_8 C2_8 1_555 1_555
H5_8 C3_8 1_555 1_555
C4_8 O1_8 1_555 1_555
H6_8 C4_8 1_555 1_555
C5_8 O3_8 1_555 1_555
C7_8 C3_8 1_555 1_555
C8_8 O10_8 1_555 1_555
C9_8 N1_8 1_555 1_555
C10_12 C9_8 1_555 1_555
C11_8 C10_12 1_555 1_555
C12_8 C11_8 1_555 1_555
H9_8 C12_8 1_555 1_555
C13_8 N1_8 1_555 1_555
H10_8 C13_8 1_555 1_555
C16_8 C11_8 1_555 1_555
C17_8 C16_8 1_555 1_555
H13_8 C17_8 1_555 1_555
H14_6 C18_8 1_555 1_555
C1_8 C5_8 1_555 1_555
C3_8 C4_8 1_555 1_555
C4_8 C8_8 1_555 1_555
C12_8 C13_8 1_555 1_555
C17_8 C18_8 1_555 1_555

#END
