
###############################################################################
#
# This file contains modified crystal structure data generated from the
# MOF subset of the Cambridge Structural Database (CSD) v543 
# hosted by the Cambridge Crystallographic Data Centre (CCDC).
#
# This work is licensed under the Creative Commons
# Attribution-NonCommercial-ShareAlike 4.0 International License.
# To view a copy of this license, visit
# http://creativecommons.org/licenses/by-nc-sa/4.0/
# or send a letter to
# Creative Commons, PO Box 1866, Mountain View, CA 94042, USA.
#
# CIF created using the CSD Python API on 29 September 2022
# The structure has been converted into the P1 space group
# The structure has a 3D framework
# The original CSD entry BOPHIZ is in the triclinic crystal system
# The framework has been calculated to contain at least 10.0% void space
# The void calculation uses a probe of radius 1.32A, grid spacing 0.4
# The framework is charged, counterions have been retained in the structure
# H atom positions have been added when not included in the experimental data
#
###############################################################################

data_BOPHIZ
_chemical_formula_moiety         '(C98 H74 Cd5 N4 O36 1-)n'
_symmetry_cell_setting           triclinic
_symmetry_space_group_name_H-M   'P 1'
_symmetry_Int_Tables_number      1
_space_group_name_Hall           'P 1'
loop_
_symmetry_equiv_pos_site_id
_symmetry_equiv_pos_as_xyz
1 x,y,z
_cell_length_a                   11.2195(4)
_cell_length_b                   15.8170(7)
_cell_length_c                   18.0989(6)
_cell_angle_alpha                102.099(3)
_cell_angle_beta                 96.385(3)
_cell_angle_gamma                98.947(3)
_cell_volume                     3067.68
loop_
_atom_site_label
_atom_site_type_symbol
_atom_site_fract_x
_atom_site_fract_y
_atom_site_fract_z
N1 N 0.5954(16) 0.6980(12) 0.1038(9)
H1 H 0.5727 0.7408 0.0827
H2 H 0.6686 0.6902 0.0906
C1 C 0.612(2) 0.7313(16) 0.1915(12)
H3 H 0.5823 0.7854 0.2040
H4 H 0.6972 0.7410 0.2119
H5 H 0.5674 0.6881 0.2132
C2 C 0.5075(18) 0.6163(15) 0.0693(12)
H6 H 0.5095 0.6008 0.0153
H7 H 0.4270 0.6249 0.0782
H8 H 0.5287 0.5699 0.0920
N1_2 N 0.4046(16) 0.3020(12) 0.8962(9)
H1_2 H 0.4273 0.2592 0.9173
H2_2 H 0.3314 0.3098 0.9094
C1_2 C 0.388(2) 0.2687(16) 0.8085(12)
H3_2 H 0.4177 0.2146 0.7960
H4_2 H 0.3028 0.2590 0.7881
H5_2 H 0.4326 0.3119 0.7868
C2_2 C 0.4925(18) 0.3837(15) 0.9307(12)
H6_2 H 0.4905 0.3992 0.9847
H7_2 H 0.5730 0.3751 0.9218
H8_2 H 0.4713 0.4301 0.9080
O1 O 0.5299(7) 0.2104(6) 0.5908(5)
O2 O 0.5441(7) 0.3506(6) 0.6376(5)
C3 C 0.3493(9) 0.2682(7) 0.5752(5)
C4 C 0.2709(8) 0.1873(6) 0.5638(6)
H9 H 0.3024 0.1391 0.5739
C5 C 0.1462(8) 0.1769(6) 0.5375(5)
C6 C 0.1020(9) 0.2486(7) 0.5224(6)
H10 H 0.0191 0.2434 0.5060
C7 C 0.1794(9) 0.3290(7) 0.5313(6)
H11 H 0.1481 0.3762 0.5189
C8 C 0.3021(9) 0.3396(7) 0.5583(6)
H12 H 0.3528 0.3939 0.5652
C9 C 0.0681(8) 0.0873(7) 0.5218(6)
C12 C 0.4839(9) 0.2772(8) 0.6036(6)
C27 C 0.0070(8) 0.5440(6) 0.5781(5)
C28 C 0.0793(8) 0.5765(6) 0.5283(5)
H19 H 0.1343 0.6291 0.5478
C29 C 0.0240(8) 0.5954(7) 0.6581(5)
C30 C 0.1396(9) 0.6225(7) 0.7011(6)
H20 H 0.2067 0.6066 0.6795
C31 C 0.1573(10) 0.6723(8) 0.7752(6)
H21 H 0.2357 0.6904 0.8025
C32 C 0.0595(10) 0.6951(8) 0.8087(6)
H22 H 0.0716 0.7283 0.8587
C58 C 0.1149(8) 0.0162(6) 0.4848(6)
H40 H 0.1940 0.0271 0.4736
O27 O 0.1817(9) 0.6652(6) 0.4321(5)
O28 O 0.1886(9) 0.5502(7) 0.3490(5)
O29 O 0.2710(6) 0.3632(5) 0.2264(4)
O30 O 0.1554(7) 0.2636(5) 0.1309(4)
C72 C 0.1541(10) 0.5865(7) 0.4062(6)
C73 C 0.0750(8) 0.5360(6) 0.4521(5)
C80 C 0.0574(9) 0.3312(7) 0.2320(5)
C81 C 0.0764(9) 0.3790(7) 0.3085(5)
H50 H 0.1542 0.3935 0.3367
C82 C 0.1681(9) 0.3166(7) 0.1941(5)
Cd6 Cd 0.73090(6) 0.25003(4) 0.63584(4)
Cd10 Cd 0.26910(6) 0.74997(4) 0.36416(4)
Cd14 Cd 0.35852(6) 0.32119(4) 0.11530(4)
O40 O 0.9334(7) 0.1889(5) 0.6387(5)
O41 O 0.7735(7) 0.1349(5) 0.5502(5)
O42 O 0.6770(8) 0.1549(5) 0.7296(4)
O43 O 0.7603(6) 0.2937(4) 0.7647(4)
O48 O 0.8183(9) 0.3348(6) 0.5679(5)
Cd15 Cd 0.63529(10) 0.49321(8) 0.69717(6)
Cd17 Cd 0.36471(10) 0.50679(8) 0.30283(6)
O21 O 0.0666(7) 0.8111(5) 0.3613(5)
O22 O 0.2265(7) 0.8651(5) 0.4498(5)
C57 C 0.0518(9) 0.9304(7) 0.4636(6)
C60 C 0.1166(10) 0.8630(7) 0.4199(7)
O7 O 0.4080(7) 0.2153(4) 0.0178(4)
O8 O 0.4365(8) 0.1925(5) 0.1326(4)
O16 O 0.2700(7) 0.4221(5) 0.0681(5)
H15 H 0.8129 0.3364 0.0345
C18 C 0.6965(9) 0.2213(6) 0.0148(5)
H16 H 0.6909 0.2222 0.0658
C22 C 0.4771(9) 0.0832(6) 0.0301(5)
C23 C 0.4191(9) 0.0090(6) 0.0516(5)
H18 H 0.3649 0.0158 0.0869
C24 C 0.4389(10) 0.1704(6) 0.0628(6)
C45 C 0.0968(8) 0.4539(6) 0.0036(6)
C46 C 0.1957(9) 0.3998(7) 0.0078(7)
H53 H 0.0279 0.6165 0.2086
C90 C 0.0411(8) 0.4775(6) 0.0664(5)
H55 H 0.0693 0.4627 0.1114
Cd2 Cd 0.64148(6) 0.67881(4) 0.88470(4)
O10 O 0.8114(9) 0.4498(7) 0.6510(5)
O11 O 0.7290(6) 0.6368(5) 0.7736(4)
O12 O 0.8446(7) 0.7364(5) 0.8691(4)
O13 O 0.4677(8) 0.5307(7) 0.7473(5)
O14 O 0.4638(7) 0.5926(6) 0.8671(5)
O15 O 0.1964(8) 0.3364(6) 0.9551(5)
C10 C 0.9482(9) 0.0696(7) 0.5364(6)
C13 C 0.8834(10) 0.1370(7) 0.5801(7)
C14 C 0.7175(9) 0.2223(6) 0.7805(5)
C15 C 0.7126(9) 0.2217(6) 0.8632(5)
C16 C 0.7805(10) 0.2908(6) 0.9212(5)
H14 H 0.8319 0.3366 0.9094
C17 C 0.7698(10) 0.2898(7) 0.9958(6)
C19 C 0.6311(8) 0.1512(6) 0.9580(5)
C20 C 0.6413(9) 0.1522(6) 0.8828(5)
H17 H 0.5992 0.1051 0.8442
C21 C 0.5594(8) 0.0747(6) 0.9786(5)
C25 C 0.8459(10) 0.4135(7) 0.5938(6)
C26 C 0.9250(8) 0.4640(6) 0.5479(5)
C33 C 0.9426(9) 0.6688(7) 0.7680(5)
C34 C 0.9236(9) 0.6210(7) 0.6915(5)
H23 H 0.8458 0.6065 0.6633
C35 C 0.8319(9) 0.6834(7) 0.8059(5)
C36 C 0.4201(10) 0.5419(8) 0.8055(7)
C37 C 0.2932(9) 0.4907(7) 0.8031(6)
C38 C 0.2308(10) 0.4360(8) 0.7357(7)
H24 H 0.2697 0.4260 0.6928
C39 C 0.1118(11) 0.3963(9) 0.7315(7)
H25 H 0.0700 0.3607 0.6855
C40 C 0.0537(10) 0.4086(8) 0.7950(6)
C41 C 0.1179(9) 0.4590(7) 0.8646(6)
C42 C 0.2363(8) 0.4999(6) 0.8677(5)
H27 H 0.2790 0.5343 0.9140
C44 C 0.0567(8) 0.4767(6) 0.9341(5)
O17 O 0.6860(9) 0.4496(6) 0.7941(8)
H29 H 0.7388 0.4952 0.8456
H30 H 0.7429 0.3993 0.7917
O18 O 0.5936(16) 0.5459(13) 0.5862(10)
N2 N 0.515(3) 0.6777(19) 0.5994(18)
C47 C 0.508(3) 0.587(2) 0.590(2)
C48 C 0.430(3) 0.604(2) 0.547(2)
H31 H 0.3470 0.5932 0.5576
H32 H 0.4388 0.5931 0.4936
C49 C 0.620(4) 0.746(3) 0.636(3)
H33 H 0.6086 0.7713 0.6876
H34 H 0.6287 0.7912 0.6082
H35 H 0.6928 0.7209 0.6380
C74 C 0.9930(8) 0.4560(6) 0.4219(5)
C75 C 0.9207(8) 0.4235(6) 0.4717(5)
H46 H 0.8657 0.3709 0.4522
C76 C 0.9760(8) 0.4046(7) 0.3419(5)
C77 C 0.8604(9) 0.3775(7) 0.2989(6)
H47 H 0.7933 0.3934 0.3205
C78 C 0.8427(10) 0.3277(8) 0.2248(6)
H48 H 0.7643 0.3096 0.1975
C79 C 0.9405(10) 0.3049(8) 0.1913(6)
H49 H 0.9284 0.2717 0.1413
O45 O 0.5920(7) 0.7847(4) 0.9822(4)
O47 O 0.5635(8) 0.8075(5) 0.8674(4)
O53 O 0.7300(7) 0.5779(5) 0.9319(5)
H63 H 0.463643 0.548318 0.562865
H64 H 0.417357 0.548065 0.585511
O23 O 0.3230(8) 0.8451(5) 0.2704(4)
O24 O 0.2397(6) 0.7063(4) 0.2353(4)
C61 C 0.2825(9) 0.7777(6) 0.2195(5)
C62 C 0.2874(9) 0.7783(6) 0.1368(5)
C63 C 0.2195(10) 0.7092(6) 0.0788(5)
H41 H 0.1681 0.6634 0.0906
C64 C 0.2302(10) 0.7102(7) 0.0042(6)
C66 C 0.3689(8) 0.8488(6) 0.0420(5)
C67 C 0.3587(9) 0.8478(6) 0.1172(5)
H44 H 0.4008 0.8949 0.1558
C68 C 0.4406(8) 0.9253(6) 0.0214(5)
C11 C 0.8851(8) 0.9838(6) 0.5152(6)
H13 H 0.8060 0.9729 0.5264
O19 O 0.4701(7) 0.7896(6) 0.4092(5)
O20 O 0.4559(7) 0.6494(6) 0.3624(5)
C50 C 0.6507(9) 0.7318(7) 0.4248(5)
C51 C 0.7291(8) 0.8127(6) 0.4362(6)
H36 H 0.6976 0.8609 0.4261
C52 C 0.8538(8) 0.8231(6) 0.4625(5)
C53 C 0.8980(9) 0.7514(7) 0.4776(6)
H37 H 0.9809 0.7566 0.4940
C54 C 0.8206(9) 0.6710(7) 0.4687(6)
H38 H 0.8519 0.6238 0.4811
C55 C 0.6979(9) 0.6604(7) 0.4417(6)
H39 H 0.6472 0.6061 0.4348
C56 C 0.9319(8) 0.9127(7) 0.4782(6)
C59 C 0.5161(9) 0.7228(8) 0.3964(6)
H42 H 0.1871 0.6636 0.9655
C65 C 0.3035(9) 0.7787(6) 0.9852(5)
H43 H 0.3091 0.7778 0.9342
C69 C 0.5229(9) 0.9168(6) 0.9699(5)
C70 C 0.5809(9) 0.9910(6) 0.9484(5)
H45 H 0.6351 0.9842 0.9131
C71 C 0.5611(10) 0.8296(6) 0.9372(6)
O31 O 0.5323(8) 0.4693(7) 0.2527(5)
O32 O 0.5362(7) 0.4074(6) 0.1329(5)
O33 O 0.8036(8) 0.6636(6) 0.0449(5)
C83 C 0.5799(10) 0.4581(8) 0.1945(7)
C84 C 0.7068(9) 0.5093(7) 0.1969(6)
C85 C 0.7692(10) 0.5640(8) 0.2643(7)
H51 H 0.7303 0.5740 0.3072
C86 C 0.8882(11) 0.6037(9) 0.2685(7)
H52 H 0.9300 0.6393 0.3145
C87 C 0.9463(10) 0.5914(8) 0.2050(6)
C88 C 0.8821(9) 0.5410(7) 0.1354(6)
C89 C 0.7637(8) 0.5001(6) 0.1323(5)
H54 H 0.7210 0.4657 0.0860
C91 C 0.9433(8) 0.5233(6) 0.0659(5)
O35 O 0.3140(9) 0.5504(6) 0.2059(8)
H56 H 0.2612 0.5048 0.1544
H57 H 0.2571 0.6007 0.2083
O36 O 0.4064(16) 0.4541(13) 0.4138(10)
N3 N 0.485(3) 0.3223(19) 0.4006(18)
C94 C 0.492(3) 0.413(2) 0.410(2)
C95 C 0.570(3) 0.396(2) 0.453(2)
H58 H 0.6530 0.4068 0.4424
H59 H 0.5612 0.4069 0.5064
C96 C 0.380(4) 0.254(3) 0.364(3)
H60 H 0.3914 0.2287 0.3124
H61 H 0.3713 0.2088 0.3918
H62 H 0.3072 0.2791 0.3620
H65 H 0.582643 0.451935 0.414489
H66 H 0.536357 0.451682 0.437135
H26 H 0.9721 0.3835 0.7914
C43 C 0.9589(8) 0.5225(6) 0.9336(5)
H28 H 0.9307 0.5373 0.8886
C92 C 0.9032(8) 0.5461(6) 0.9964(6)
C93 C 0.8043(9) 0.6002(7) 0.9922(7)
loop_
_geom_bond_atom_site_label_1
_geom_bond_atom_site_label_2
_geom_bond_site_symmetry_1
_geom_bond_site_symmetry_2
N1 H1 1_555 1_555
H2 N1 1_555 1_555
C1 N1 1_555 1_555
H3 C1 1_555 1_555
H4 C1 1_555 1_555
H5 C1 1_555 1_555
C2 N1 1_555 1_555
H6 C2 1_555 1_555
H7 C2 1_555 1_555
H8 C2 1_555 1_555
N1_2 H1_2 1_555 1_555
H2_2 N1_2 1_555 1_555
C1_2 N1_2 1_555 1_555
H3_2 C1_2 1_555 1_555
H4_2 C1_2 1_555 1_555
H5_2 C1_2 1_555 1_555
C2_2 N1_2 1_555 1_555
H6_2 C2_2 1_555 1_555
H7_2 C2_2 1_555 1_555
H8_2 C2_2 1_555 1_555
O1 C12 1_555 1_555
O2 C12 1_555 1_555
C3 C4 1_555 1_555
C4 H9 1_555 1_555
C5 C4 1_555 1_555
C6 C5 1_555 1_555
H10 C6 1_555 1_555
C7 C6 1_555 1_555
H11 C7 1_555 1_555
C8 C3 1_555 1_555
H12 C8 1_555 1_555
C9 C5 1_555 1_555
C12 C3 1_555 1_555
C28 C27 1_555 1_555
H19 C28 1_555 1_555
C29 C27 1_555 1_555
C30 C29 1_555 1_555
H20 C30 1_555 1_555
C31 C30 1_555 1_555
H21 C31 1_555 1_555
C32 C31 1_555 1_555
H22 C32 1_555 1_555
C58 C9 1_555 1_555
H40 C58 1_555 1_555
O27 C72 1_555 1_555
O28 C72 1_555 1_555
O29 C82 1_555 1_555
O30 C82 1_555 1_555
C72 C73 1_555 1_555
C73 C28 1_555 1_555
H50 C81 1_555 1_555
C82 C80 1_555 1_555
Cd6 O1 1_555 1_555
Cd10 O27 1_555 1_555
Cd14 O29 1_555 1_555
O40 Cd6 1_555 1_555
O41 Cd6 1_555 1_555
O42 Cd6 1_555 1_555
O43 Cd6 1_555 1_555
O48 Cd6 1_555 1_555
Cd15 O2 1_555 1_555
Cd17 O28 1_555 1_555
C7 C8 1_555 1_555
O29 Cd17 1_555 1_555
O30 Cd14 1_555 1_555
C80 C81 1_555 1_555
O21 C60 1_555 1_555
O22 C60 1_555 1_555
C60 C57 1_555 1_555
Cd10 O21 1_555 1_555
O22 Cd10 1_555 1_555
O7 C24 1_555 1_555
O8 C24 1_555 1_555
O16 C46 1_555 1_555
H16 C18 1_555 1_555
C23 C22 1_555 1_555
H18 C23 1_555 1_555
C24 C22 1_555 1_555
C46 C45 1_555 1_555
C90 C45 1_555 1_555
H55 C90 1_555 1_555
Cd14 O7 1_555 1_555
O8 Cd14 1_555 1_555
O16 Cd14 1_555 1_555
Cd2 O11 1_555 1_555
O40 C13 1_555 1_555
O10 C25 1_555 1_555
O11 C35 1_555 1_555
O12 Cd2 1_555 1_555
O13 C36 1_555 1_555
O14 Cd2 1_555 1_555
C13 O41 1_555 1_555
C14 O42 1_555 1_555
C15 C14 1_555 1_555
C16 C15 1_555 1_555
H14 C16 1_555 1_555
C17 C16 1_555 1_555
C20 C15 1_555 1_555
H17 C20 1_555 1_555
C21 C19 1_555 1_555
C25 O48 1_555 1_555
C26 C25 1_555 1_555
H23 C34 1_555 1_555
C35 O12 1_555 1_555
C36 O14 1_555 1_555
C37 C36 1_555 1_555
C38 C37 1_555 1_555
H24 C38 1_555 1_555
C39 C38 1_555 1_555
H25 C39 1_555 1_555
C40 C39 1_555 1_555
C41 C40 1_555 1_555
C42 C37 1_555 1_555
H27 C42 1_555 1_555
C44 C41 1_555 1_555
O17 H29 1_555 1_555
H30 O17 1_555 1_555
O18 C47 1_555 1_555
N2 C47 1_555 1_555
C48 N2 1_555 1_555
H31 C48 1_555 1_555
H32 C48 1_555 1_555
C49 N2 1_555 1_555
H33 C49 1_555 1_555
H34 C49 1_555 1_555
H35 C49 1_555 1_555
Cd15 O10 1_555 1_555
C75 C26 1_555 1_555
H46 C75 1_555 1_555
C76 C74 1_555 1_555
C77 C76 1_555 1_555
H47 C77 1_555 1_555
C78 C77 1_555 1_555
H48 C78 1_555 1_555
C79 C78 1_555 1_555
H49 C79 1_555 1_555
O45 Cd2 1_555 1_555
O47 Cd2 1_555 1_555
O53 Cd2 1_555 1_555
O43 C14 1_555 1_555
O11 Cd15 1_555 1_555
O13 Cd15 1_555 1_555
C10 C13 1_555 1_555
C19 C20 1_555 1_555
C33 C34 1_555 1_555
C33 C35 1_555 1_555
C41 C42 1_555 1_555
O17 Cd15 1_555 1_555
O18 Cd15 1_555 1_555
C74 C75 1_555 1_555
C48 H63 1_555 1_555
C47 H64 1_555 1_555
O23 C61 1_555 1_555
O24 C61 1_555 1_555
C61 C62 1_555 1_555
C62 C63 1_555 1_555
C63 H41 1_555 1_555
C64 C63 1_555 1_555
C67 C62 1_555 1_555
H44 C67 1_555 1_555
Cd10 O23 1_555 1_555
O24 Cd10 1_555 1_555
C66 C67 1_555 1_555
C66 C68 1_555 1_555
H13 C11 1_555 1_555
O19 C59 1_555 1_555
O20 C59 1_555 1_555
C50 C51 1_555 1_555
C51 H36 1_555 1_555
C52 C51 1_555 1_555
C53 C52 1_555 1_555
H37 C53 1_555 1_555
C54 C53 1_555 1_555
H38 C54 1_555 1_555
C55 C50 1_555 1_555
H39 C55 1_555 1_555
C56 C11 1_555 1_555
C59 C50 1_555 1_555
O45 C71 1_555 1_555
O47 C71 1_555 1_555
H43 C65 1_555 1_555
H45 C70 1_555 1_555
C71 C69 1_555 1_555
Cd10 O19 1_555 1_555
Cd17 O20 1_555 1_555
C52 C56 1_555 1_555
C54 C55 1_555 1_555
C69 C70 1_555 1_555
O31 C83 1_555 1_555
O32 C83 1_555 1_555
C83 C84 1_555 1_555
C84 C85 1_555 1_555
C85 H51 1_555 1_555
C86 C85 1_555 1_555
H52 C86 1_555 1_555
C87 C86 1_555 1_555
C88 C87 1_555 1_555
C89 C84 1_555 1_555
H54 C89 1_555 1_555
C91 C88 1_555 1_555
Cd14 O32 1_555 1_555
O35 H56 1_555 1_555
H57 O35 1_555 1_555
O36 C94 1_555 1_555
N3 C94 1_555 1_555
C95 N3 1_555 1_555
H58 C95 1_555 1_555
H59 C95 1_555 1_555
C96 N3 1_555 1_555
H60 C96 1_555 1_555
H61 C96 1_555 1_555
H62 C96 1_555 1_555
Cd17 O31 1_555 1_555
C88 C89 1_555 1_555
O35 Cd17 1_555 1_555
O36 Cd17 1_555 1_555
C94 H65 1_555 1_555
C95 H66 1_555 1_555
C43 H28 1_555 1_555
O53 C93 1_555 1_555
C92 C43 1_555 1_555
C93 C92 1_555 1_555

#END
