
###############################################################################
#
# This file contains modified crystal structure data generated from the
# MOF subset of the Cambridge Structural Database (CSD) v543 
# hosted by the Cambridge Crystallographic Data Centre (CCDC).
#
# This work is licensed under the Creative Commons
# Attribution-NonCommercial-ShareAlike 4.0 International License.
# To view a copy of this license, visit
# http://creativecommons.org/licenses/by-nc-sa/4.0/
# or send a letter to
# Creative Commons, PO Box 1866, Mountain View, CA 94042, USA.
#
# CIF created using the CSD Python API on 29 September 2022
# The structure has been converted into the P1 space group
# The structure has a 3D framework
# The original CSD entry BOPPUU is in the cubic crystal system
# The framework has been calculated to contain at least 10.0% void space
# The void calculation uses a probe of radius 1.32A, grid spacing 0.4
# The framework is charged, counterions have been retained in the structure
#
###############################################################################

data_BOPPUU
_chemical_formula_moiety         '(C36 H36 Fe8 O48 3-)n'
_symmetry_cell_setting           triclinic
_symmetry_space_group_name_H-M   'P 1'
_symmetry_Int_Tables_number      1
_space_group_name_Hall           'P 1'
loop_
_symmetry_equiv_pos_site_id
_symmetry_equiv_pos_as_xyz
1 x,y,z
_cell_length_a                   12.0256(2)
_cell_length_b                   12.0256(2)
_cell_length_c                   12.0256(2)
_cell_angle_alpha                90
_cell_angle_beta                 90
_cell_angle_gamma                90
_cell_volume                     1739.08
loop_
_atom_site_label
_atom_site_type_symbol
_atom_site_fract_x
_atom_site_fract_y
_atom_site_fract_z
Fe1 Fe 0.2500 0.2500 0.2500
O1 O 0.0918(3) 0.2971(3) 0.1923(3)
C1 C 0.0000 0.2616(8) 0.2212(8)
H1 H -0.0000 0.223(7) 0.253(7)
O2 O 0.1923(3) 0.0918(3) 0.2971(3)
O3 O 0.2971(3) 0.1923(3) 0.0918(3)
O4 O 0.4082(3) 0.2029(3) 0.3077(3)
O5 O 0.3077(3) 0.4082(3) 0.2029(3)
O6 O 0.2029(3) 0.3077(3) 0.4082(3)
C2 C 0.2212(8) 0.0000 0.2616(8)
C3 C 0.2616(8) 0.2212(8) 0.0000
C4 C 0.5000 0.2384(8) 0.2788(8)
C5 C 0.2788(8) 0.5000 0.2384(8)
C6 C 0.2384(8) 0.2788(8) 0.5000
H2 H 0.253(7) 0.0000 0.223(7)
H3 H 0.223(7) 0.253(7) 0.0000
O10 O 0.5918(3) 0.2029(3) 0.3077(3)
H4 H 0.5000 0.277(7) 0.247(7)
O11 O 0.3077(3) 0.5918(3) 0.2029(3)
H5 H 0.247(7) 0.5000 0.277(7)
O12 O 0.2029(3) 0.3077(3) 0.5918(3)
H6 H 0.277(7) 0.247(7) 0.5000
Fe5 Fe 0.7500 0.2500 0.2500
Fe6 Fe 0.2500 0.7500 0.2500
Fe7 Fe 0.2500 0.2500 0.7500
O13 O 0.6923(3) 0.4082(3) 0.2029(3)
O14 O 0.7971(3) 0.3077(3) 0.4082(3)
O15 O 0.9082(3) 0.2971(3) 0.1923(3)
O16 O 0.8077(3) 0.0918(3) 0.2971(3)
O17 O 0.7029(3) 0.1923(3) 0.0918(3)
O18 O 0.2029(3) 0.6923(3) 0.4082(3)
O19 O 0.4082(3) 0.7971(3) 0.3077(3)
O20 O 0.1923(3) 0.9082(3) 0.2971(3)
O21 O 0.2971(3) 0.8077(3) 0.0918(3)
O22 O 0.0918(3) 0.7029(3) 0.1923(3)
O23 O 0.4082(3) 0.2029(3) 0.6923(3)
O24 O 0.3077(3) 0.4082(3) 0.7971(3)
O25 O 0.2971(3) 0.1923(3) 0.9082(3)
O26 O 0.0918(3) 0.2971(3) 0.8077(3)
O27 O 0.1923(3) 0.0918(3) 0.7029(3)
C7 C 0.7212(8) 0.5000 0.2384(8)
C8 C 0.7616(8) 0.2788(8) 0.5000
C9 C 0.2384(8) 0.7212(8) 0.5000
C10 C 0.5000 0.7616(8) 0.2788(8)
C11 C 0.5000 0.2384(8) 0.7212(8)
C12 C 0.2788(8) 0.5000 0.7616(8)
H7 H 0.753(7) 0.5000 0.277(7)
O28 O 0.6923(3) 0.5918(3) 0.2029(3)
H8 H 0.723(7) 0.247(7) 0.5000
O29 O 0.7971(3) 0.3077(3) 0.5918(3)
H9 H 0.277(7) 0.753(7) 0.5000
O30 O 0.2029(3) 0.6923(3) 0.5918(3)
H10 H 0.5000 0.723(7) 0.247(7)
O31 O 0.5918(3) 0.7971(3) 0.3077(3)
H11 H 0.5000 0.277(7) 0.753(7)
O32 O 0.5918(3) 0.2029(3) 0.6923(3)
H12 H 0.247(7) 0.5000 0.723(7)
O33 O 0.3077(3) 0.5918(3) 0.7971(3)
Fe8 Fe 0.7500 0.7500 0.2500
Fe9 Fe 0.7500 0.2500 0.7500
Fe10 Fe 0.2500 0.7500 0.7500
C3_2 C 0.2616(8) 0.2212(8) 1.0000
H3_2 H 0.223(7) 0.253(7) 1.0000
C2_2 C 0.2212(8) 1.0000 0.2616(8)
H2_2 H 0.253(7) 1.0000 0.223(7)
C1_2 C 1.0000 0.2616(8) 0.2212(8)
H1_2 H 1.0000 0.223(7) 0.253(7)
C2_3 C -0.0000 0.7384(8) 0.2212(8)
H2_3 H -0.0000 0.777(7) 0.253(7)
C3_3 C 0.7788(8) 0.0000 0.2616(8)
H3_3 H 0.747(7) 0.0000 0.223(7)
O1_2 O 0.7029(3) 0.8077(3) 0.0918(3)
C1_3 C 0.7384(8) 0.7788(8) 0.0000
H1_3 H 0.777(7) 0.747(7) 0.0000
O2_2 O 0.9082(3) 0.7029(3) 0.1923(3)
O3_2 O 0.8077(3) 0.9082(3) 0.2971(3)
O4_2 O 0.7971(3) 0.6923(3) 0.4082(3)
C2_4 C 1.0000 0.7384(8) 0.2212(8)
C3_4 C 0.7788(8) 1.0000 0.2616(8)
C4_2 C 0.7616(8) 0.7212(8) 0.5000
H2_4 H 1.0000 0.777(7) 0.253(7)
H3_4 H 0.747(7) 1.0000 0.223(7)
O10_2 O 0.7971(3) 0.6923(3) 0.5918(3)
H4_2 H 0.723(7) 0.753(7) 0.5000
Fe5_2 Fe 0.7500 0.7500 0.7500
O13_2 O 0.5918(3) 0.7971(3) 0.6923(3)
O14_2 O 0.6923(3) 0.5918(3) 0.7971(3)
O15_2 O 0.7029(3) 0.8077(3) 0.9082(3)
O16_2 O 0.9082(3) 0.7029(3) 0.8077(3)
O17_2 O 0.8077(3) 0.9082(3) 0.7029(3)
C7_2 C 0.5000 0.7616(8) 0.7212(8)
C8_2 C 0.7212(8) 0.5000 0.7616(8)
H7_2 H 0.5000 0.723(7) 0.753(7)
O28_2 O 0.4082(3) 0.7971(3) 0.6923(3)
H8_2 H 0.753(7) 0.5000 0.723(7)
O29_2 O 0.6923(3) 0.4082(3) 0.7971(3)
C1_4 C 0.7384(8) 0.7788(8) 1.0000
H1_4 H 0.777(7) 0.747(7) 1.0000
C1_5 C 0.2212(8) -0.0000 0.7384(8)
H1_5 H 0.253(7) -0.0000 0.777(7)
C2_5 C 0.2616(8) 0.7788(8) -0.0000
H2_5 H 0.223(7) 0.747(7) -0.0000
O1_3 O 0.1923(3) 0.9082(3) 0.7029(3)
C1_6 C 0.2212(8) 1.0000 0.7384(8)
H1_6 H 0.253(7) 1.0000 0.777(7)
O2_3 O 0.2971(3) 0.8077(3) 0.9082(3)
O3_3 O 0.0918(3) 0.7029(3) 0.8077(3)
C2_6 C 0.2616(8) 0.7788(8) 1.0000
C3_5 C 0.0000 0.7384(8) 0.7788(8)
H2_6 H 0.223(7) 0.747(7) 1.0000
H3_5 H 0.0000 0.777(7) 0.747(7)
C3_6 C 1.0000 0.7384(8) 0.7788(8)
H3_6 H 1.0000 0.777(7) 0.747(7)
C2_7 C 0.0000 0.2616(8) 0.7788(8)
H2_7 H 0.0000 0.223(7) 0.747(7)
C1_7 C 0.7384(8) 0.2212(8) -0.0000
H1_7 H 0.777(7) 0.253(7) 0.0000
O1_4 O 0.7029(3) 0.1923(3) 0.9082(3)
C1_8 C 0.7384(8) 0.2212(8) 1.0000
H1_8 H 0.777(7) 0.253(7) 1.0000
O2_4 O 0.9082(3) 0.2971(3) 0.8077(3)
O3_4 O 0.8077(3) 0.0918(3) 0.7029(3)
C2_8 C 1.0000 0.2616(8) 0.7788(8)
C3_7 C 0.7788(8) -0.0000 0.7384(8)
H2_8 H 1.0000 0.223(7) 0.747(7)
H3_7 H 0.747(7) -0.0000 0.777(7)
C3_8 C 0.7788(8) 1.0000 0.7384(8)
H3_8 H 0.747(7) 1.0000 0.777(7)
loop_
_geom_bond_atom_site_label_1
_geom_bond_atom_site_label_2
_geom_bond_site_symmetry_1
_geom_bond_site_symmetry_2
Fe1 O1 1_555 1_555
O1 C1 1_555 1_555
C1 H1 1_555 1_555
O2 Fe1 1_555 1_555
O3 Fe1 1_555 1_555
O4 Fe1 1_555 1_555
O5 Fe1 1_555 1_555
O6 Fe1 1_555 1_555
C2 O2 1_555 1_555
C3 O3 1_555 1_555
C4 O4 1_555 1_555
C5 O5 1_555 1_555
C6 O6 1_555 1_555
H2 C2 1_555 1_555
H3 C3 1_555 1_555
O10 C4 1_555 1_555
H4 C4 1_555 1_555
O11 C5 1_555 1_555
H5 C5 1_555 1_555
O12 C6 1_555 1_555
H6 C6 1_555 1_555
Fe5 O10 1_555 1_555
Fe6 O11 1_555 1_555
Fe7 O12 1_555 1_555
O13 Fe5 1_555 1_555
O14 Fe5 1_555 1_555
O15 Fe5 1_555 1_555
O16 Fe5 1_555 1_555
O17 Fe5 1_555 1_555
O18 Fe6 1_555 1_555
O19 Fe6 1_555 1_555
O20 Fe6 1_555 1_555
O21 Fe6 1_555 1_555
O22 Fe6 1_555 1_555
O23 Fe7 1_555 1_555
O24 Fe7 1_555 1_555
O25 Fe7 1_555 1_555
O26 Fe7 1_555 1_555
O27 Fe7 1_555 1_555
C7 O13 1_555 1_555
C8 O14 1_555 1_555
C9 O18 1_555 1_555
C10 O19 1_555 1_555
C11 O23 1_555 1_555
C12 O24 1_555 1_555
H7 C7 1_555 1_555
O28 C7 1_555 1_555
H8 C8 1_555 1_555
O29 C8 1_555 1_555
H9 C9 1_555 1_555
O30 C9 1_555 1_555
H10 C10 1_555 1_555
O31 C10 1_555 1_555
H11 C11 1_555 1_555
O32 C11 1_555 1_555
H12 C12 1_555 1_555
O33 C12 1_555 1_555
Fe8 O28 1_555 1_555
Fe9 O29 1_555 1_555
Fe10 O30 1_555 1_555
O31 Fe8 1_555 1_555
O32 Fe9 1_555 1_555
O33 Fe10 1_555 1_555
H3_2 C3_2 1_555 1_555
O25 C3_2 1_555 1_555
H2_2 C2_2 1_555 1_555
O20 C2_2 1_555 1_555
C1_2 H1_2 1_555 1_555
O15 C1_2 1_555 1_555
H2_3 C2_3 1_555 1_555
O22 C2_3 1_555 1_555
H3_3 C3_3 1_555 1_555
O16 C3_3 1_555 1_555
Fe8 O1_2 1_555 1_555
O1_2 C1_3 1_555 1_555
C1_3 H1_3 1_555 1_555
O2_2 Fe8 1_555 1_555
O3_2 Fe8 1_555 1_555
O4_2 Fe8 1_555 1_555
C2_4 O2_2 1_555 1_555
C3_4 O3_2 1_555 1_555
C4_2 O4_2 1_555 1_555
H2_4 C2_4 1_555 1_555
H3_4 C3_4 1_555 1_555
O10_2 C4_2 1_555 1_555
H4_2 C4_2 1_555 1_555
Fe5_2 O10_2 1_555 1_555
O13_2 Fe5_2 1_555 1_555
O14_2 Fe5_2 1_555 1_555
O15_2 Fe5_2 1_555 1_555
O16_2 Fe5_2 1_555 1_555
O17_2 Fe5_2 1_555 1_555
C7_2 O13_2 1_555 1_555
C8_2 O14_2 1_555 1_555
H7_2 C7_2 1_555 1_555
O28_2 C7_2 1_555 1_555
H8_2 C8_2 1_555 1_555
O29_2 C8_2 1_555 1_555
Fe10 O28_2 1_555 1_555
Fe9 O29_2 1_555 1_555
C1_4 H1_4 1_555 1_555
O15_2 C1_4 1_555 1_555
C1_5 H1_5 1_555 1_555
O27 C1_5 1_555 1_555
H2_5 C2_5 1_555 1_555
O21 C2_5 1_555 1_555
Fe10 O1_3 1_555 1_555
O1_3 C1_6 1_555 1_555
C1_6 H1_6 1_555 1_555
O2_3 Fe10 1_555 1_555
O3_3 Fe10 1_555 1_555
C2_6 O2_3 1_555 1_555
C3_5 O3_3 1_555 1_555
H2_6 C2_6 1_555 1_555
H3_5 C3_5 1_555 1_555
H3_6 C3_6 1_555 1_555
O16_2 C3_6 1_555 1_555
H2_7 C2_7 1_555 1_555
O26 C2_7 1_555 1_555
C1_7 H1_7 1_555 1_555
O17 C1_7 1_555 1_555
Fe9 O1_4 1_555 1_555
O1_4 C1_8 1_555 1_555
C1_8 H1_8 1_555 1_555
O2_4 Fe9 1_555 1_555
O3_4 Fe9 1_555 1_555
C2_8 O2_4 1_555 1_555
C3_7 O3_4 1_555 1_555
H2_8 C2_8 1_555 1_555
H3_7 C3_7 1_555 1_555
H3_8 C3_8 1_555 1_555
O17_2 C3_8 1_555 1_555

#END
