
###############################################################################
#
# This file contains modified crystal structure data generated from the
# MOF subset of the Cambridge Structural Database (CSD) v543 
# hosted by the Cambridge Crystallographic Data Centre (CCDC).
#
# This work is licensed under the Creative Commons
# Attribution-NonCommercial-ShareAlike 4.0 International License.
# To view a copy of this license, visit
# http://creativecommons.org/licenses/by-nc-sa/4.0/
# or send a letter to
# Creative Commons, PO Box 1866, Mountain View, CA 94042, USA.
#
# CIF created using the CSD Python API on 29 September 2022
# The structure has been converted into the P1 space group
# The structure has a 3D framework
# The original CSD entry BOQLUR is in the orthorhombic crystal system
# The framework has been calculated to contain at least 10.0% void space
# The void calculation uses a probe of radius 1.32A, grid spacing 0.4
#
###############################################################################

data_BOQLUR
_chemical_formula_moiety         '(C280 H192 Fe20 N104 O64 Pt24)n'
_symmetry_cell_setting           triclinic
_symmetry_space_group_name_H-M   'P 1'
_symmetry_Int_Tables_number      1
_space_group_name_Hall           'P 1'
loop_
_symmetry_equiv_pos_site_id
_symmetry_equiv_pos_as_xyz
1 x,y,z
_cell_length_a                   15.1120(4)
_cell_length_b                   21.1317(4)
_cell_length_c                   29.3846(8)
_cell_angle_alpha                90
_cell_angle_beta                 90
_cell_angle_gamma                90
_cell_volume                     9383.74
loop_
_atom_site_label
_atom_site_type_symbol
_atom_site_fract_x
_atom_site_fract_y
_atom_site_fract_z
Pt1 Pt 0.7500 0.50266(2) 0.5000
Pt2 Pt 0.5000 0.7500 0.37373(2)
Fe1 Fe 0.7500 0.75321(3) 0.5000
Fe2 Fe 0.2500 0.7500 0.2500
O1 O 0.4077(3) 0.4863(2) 0.13368(14)
O2 O 0.1819(3) 0.6742(2) 0.28226(16)
H1 H 0.2151 0.6557 0.3033
H2 H 0.1720 0.6428 0.2629
O3 O 0.4720(3) 0.67391(17) 0.06589(14)
O4 O 0.6594(3) 0.7606(2) 0.55506(17)
H3 H 0.611(3) 0.741(3) 0.5576(13)
N1 N 0.7500 0.3553(3) 0.5000
N2 N 0.6688(4) 0.4948(3) 0.4022(2)
N3 N 0.7500 0.6510(3) 0.5000
N4 N 0.6439(3) 0.75170(14) 0.45016(17)
N5 N 0.3563(3) 0.7432(2) 0.29757(17)
N6 N 0.3166(3) 0.6844(2) 0.20344(14)
N7 N 0.4374(3) 0.57976(19) 0.09864(13)
C1 C 0.7500 0.5970(3) 0.5000
C2 C 0.7500 0.4079(3) 0.5000
C3 C 0.6982(4) 0.4996(2) 0.4374(2)
C4 C 0.5931(3) 0.75124(16) 0.42173(18)
C5 C 0.4082(4) 0.7454(2) 0.32573(19)
C6 C 0.4043(4) 0.6795(3) 0.2008(2)
H4 H 0.4384 0.7006 0.2223
C7 C 0.4471(4) 0.6450(3) 0.16769(19)
H5 H 0.5086 0.6427 0.1670
C8 C 0.3979(3) 0.6144(3) 0.13625(17)
C9 C 0.3100(4) 0.6143(3) 0.1404(2)
H6 H 0.2753 0.5895 0.1213
C10 C 0.2709(4) 0.6518(3) 0.1737(2)
H7 H 0.2095 0.6538 0.1750
C11 C 0.4336(4) 0.5128(2) 0.10017(16)
C12 C 0.4683(3) 0.6162(2) 0.06284(16)
C13 C 0.4934(2) 0.5818(2) 0.02127(18)
C18 C 0.6730(4) 0.7968(3) 0.5954(2)
H10 H 0.6285 0.8291 0.5975
H11 H 0.7304 0.8161 0.5944
H12 H 0.6692 0.7695 0.6215
C27 C 0.4814(3) 0.3836(2) 0.0168(2)
H17 H 0.4808 0.3396 0.0158
C28 C 0.4572(3) 0.4152(2) 0.05639(17)
H18 H 0.4379 0.3925 0.0816
C29 C 0.4617(3) 0.4800(2) 0.05826(15)
C30 C 0.4883(3) 0.5163(2) 0.02013(16)
N10 N 0.3561(3) 0.74830(14) 0.45016(17)
N11 N 0.6437(3) 0.7568(2) 0.29757(17)
C31 C 0.4069(3) 0.74876(16) 0.42173(18)
C32 C 0.5918(4) 0.7546(2) 0.32573(19)
O7 O 0.8406(3) 0.7606(2) 0.44494(17)
H19 H 0.889(3) 0.741(3) 0.4424(13)
C33 C 0.8270(4) 0.7968(3) 0.4046(2)
H20 H 0.8715 0.8291 0.4025
H21 H 0.7696 0.8161 0.4056
H22 H 0.8308 0.7695 0.3785
O8 O 0.3181(3) 0.8258(2) 0.21774(16)
H23 H 0.2849 0.8443 0.1967
H24 H 0.3280 0.8572 0.2371
N12 N 0.8312(4) 0.4948(3) 0.5978(2)
C34 C 0.8018(4) 0.4996(2) 0.5626(2)
Fe3 Fe 0.2500 0.74679(3) 0.5000
Fe4 Fe 0.7500 0.25321(3) 0.5000
Fe6 Fe 0.7500 0.7500 0.2500
N13 N 0.7500 0.8553(3) 0.5000
N14 N 0.8561(3) 0.75170(14) 0.54984(17)
N15 N 0.1437(3) 0.7568(2) 0.20243(17)
N16 N 0.1834(3) 0.8156(2) 0.29656(14)
C14 C 0.5186(3) 0.6164(2) 0.9832(2)
H8 H 0.5192 0.6604 0.9842
C15 C 0.5428(3) 0.5848(2) 0.94361(17)
H9 H 0.5621 0.6075 0.9184
C16 C 0.5383(3) 0.5200(2) 0.94174(15)
C17 C 0.5117(3) 0.4837(2) 0.97987(16)
O5 O 0.5923(3) 0.5137(2) 0.86632(14)
O6 O 0.5280(3) 0.32609(17) 0.93411(14)
N8 N 0.6834(3) 0.3156(2) 0.79656(14)
N9 N 0.5626(3) 0.42024(19) 0.90136(13)
C19 C 0.5957(4) 0.3205(3) 0.7992(2)
H13 H 0.5616 0.2994 0.7777
C20 C 0.5529(4) 0.3550(3) 0.83231(19)
H14 H 0.4914 0.3573 0.8330
C21 C 0.6021(3) 0.3856(3) 0.86375(17)
C22 C 0.6900(4) 0.3857(3) 0.8596(2)
H15 H 0.7247 0.4105 0.8787
C23 C 0.7291(4) 0.3482(3) 0.8263(2)
H16 H 0.7905 0.3462 0.8250
C24 C 0.5664(4) 0.4872(2) 0.89983(16)
C25 C 0.5317(3) 0.3838(2) 0.93716(16)
C26 C 0.5066(2) 0.4182(2) 0.97873(18)
Fe5 Fe 0.7500 0.2500 0.7500
Fe3_2 Fe 0.2500 0.25321(3) 0.0000
Pt2_2 Pt 0.0000 0.2500 0.87373(2)
Fe2_2 Fe 0.2500 0.2500 0.7500
O1_2 O 0.0923(3) 0.5137(2) 0.63368(14)
O2_2 O 0.3181(3) 0.3258(2) 0.78226(16)
H1_2 H 0.2849 0.3443 0.8033
H2_2 H 0.3280 0.3572 0.7629
O3_2 O 0.0280(3) 0.32609(17) 0.56589(14)
N5_2 N 0.1437(3) 0.2568(2) 0.79757(17)
N6_2 N 0.1834(3) 0.3156(2) 0.70344(14)
N7_2 N 0.0626(3) 0.42024(19) 0.59864(13)
C5_2 C 0.0918(4) 0.2546(2) 0.82573(19)
C6_2 C 0.0957(4) 0.3205(3) 0.7008(2)
H4_2 H 0.0616 0.2994 0.7223
C7_2 C 0.0529(4) 0.3550(3) 0.66769(19)
C8_2 C 0.1021(3) 0.3856(3) 0.63625(17)
C9_2 C 0.1900(4) 0.3857(3) 0.6404(2)
H6_2 H 0.2247 0.4105 0.6213
C10_2 C 0.2291(4) 0.3482(3) 0.6737(2)
H7_2 H 0.2905 0.3462 0.6750
C11_2 C 0.0664(4) 0.4872(2) 0.60017(16)
C12_2 C 0.0317(3) 0.3838(2) 0.56284(16)
C13_2 C 0.0066(2) 0.4182(2) 0.52127(18)
H14_2 H 0.0086 0.6427 0.3330
C27_2 C 0.0186(3) 0.6164(2) 0.5168(2)
H17_2 H 0.0192 0.6604 0.5158
C28_2 C 0.0428(3) 0.5848(2) 0.55639(17)
H18_2 H 0.0621 0.6075 0.5816
C29_2 C 0.0383(3) 0.5200(2) 0.55826(15)
C30_2 C 0.0117(3) 0.4837(2) 0.52013(16)
N10_2 N 0.1439(3) 0.25170(14) 0.95016(17)
C31_2 C 0.0931(3) 0.25124(16) 0.92173(18)
O8_2 O 0.1819(3) 0.1742(2) 0.71774(16)
H23_2 H 0.2151 0.1557 0.6967
H24_2 H 0.1720 0.1428 0.7371
Fe3_3 Fe 0.2500 0.25321(3) 1.0000
N15_2 N 0.3563(3) 0.2432(2) 0.70243(17)
N16_2 N 0.3166(3) 0.1844(2) 0.79656(14)
Pt1_2 Pt 0.7500 0.49734(2) 0.0000
Fe1_2 Fe 0.7500 0.24679(3) 0.0000
O4_2 O 0.8406(3) 0.2394(2) 0.05506(17)
H3_2 H 0.889(3) 0.259(3) 0.0576(13)
N1_2 N 0.7500 0.6447(3) 0.0000
N3_2 N 0.7500 0.3490(3) 0.0000
C1_2 C 0.7500 0.4030(3) 0.0000
C2_2 C 0.7500 0.5921(3) 0.0000
C18_2 C 0.8270(4) 0.2032(3) 0.0954(2)
H10_2 H 0.8715 0.1709 0.0975
H11_2 H 0.7696 0.1839 0.0944
H12_2 H 0.8308 0.2305 0.1215
N12_2 N 0.6688(4) 0.5052(3) 0.0978(2)
C34_2 C 0.6982(4) 0.5004(2) 0.0626(2)
Fe4_2 Fe 0.7500 0.74679(3) 0.0000
N13_2 N 0.7500 0.1447(3) 0.0000
N14_2 N 0.6439(3) 0.24830(14) 0.04984(17)
Pt1_3 Pt 0.7500 0.49734(2) 1.0000
Pt2_3 Pt 1.0000 0.2500 0.87373(2)
Fe1_3 Fe 0.7500 0.24679(3) 1.0000
N1_3 N 0.7500 0.6447(3) 1.0000
N2_2 N 0.8312(4) 0.5052(3) 0.9022(2)
N3_3 N 0.7500 0.3490(3) 1.0000
N4_2 N 0.8561(3) 0.24830(14) 0.95016(17)
C1_3 C 0.7500 0.4030(3) 1.0000
C2_3 C 0.7500 0.5921(3) 1.0000
C3_2 C 0.8018(4) 0.5004(2) 0.9374(2)
C4_2 C 0.9069(3) 0.24876(16) 0.92173(18)
H5_2 H 0.9914 0.3573 0.6670
C14_2 C 0.9814(3) 0.3836(2) 0.4832(2)
H8_2 H 0.9808 0.3396 0.4842
C15_2 C 0.9572(3) 0.4152(2) 0.44361(17)
H9_2 H 0.9379 0.3925 0.4184
C16_2 C 0.9617(3) 0.4800(2) 0.44174(15)
C17_2 C 0.9883(3) 0.5163(2) 0.47987(16)
O5_2 O 0.9077(3) 0.4863(2) 0.36632(14)
O6_2 O 0.9720(3) 0.67391(17) 0.43411(14)
N8_2 N 0.8166(3) 0.6844(2) 0.29656(14)
N9_2 N 0.9374(3) 0.57976(19) 0.40136(13)
C19_2 C 0.9043(4) 0.6795(3) 0.2992(2)
H13_2 H 0.9384 0.7006 0.2777
C20_2 C 0.9471(4) 0.6450(3) 0.33231(19)
C21_2 C 0.8979(3) 0.6144(3) 0.36375(17)
C22_2 C 0.8100(4) 0.6143(3) 0.3596(2)
H15_2 H 0.7753 0.5895 0.3787
C23_2 C 0.7709(4) 0.6518(3) 0.3263(2)
H16_2 H 0.7095 0.6538 0.3250
C24_2 C 0.9336(4) 0.5128(2) 0.39983(16)
C25_2 C 0.9683(3) 0.6162(2) 0.43716(16)
C26_2 C 0.9934(2) 0.5818(2) 0.47873(18)
N11_2 N 0.8563(3) 0.2432(2) 0.79757(17)
C32_2 C 0.9082(4) 0.2454(2) 0.82573(19)
O7_2 O 0.6594(3) 0.2394(2) 0.94494(17)
H19_2 H 0.611(3) 0.259(3) 0.9424(13)
C33_2 C 0.6730(4) 0.2032(3) 0.9046(2)
H20_2 H 0.6285 0.1709 0.9025
H21_2 H 0.7304 0.1839 0.9056
H22_2 H 0.6692 0.2305 0.8785
Fe4_3 Fe 0.7500 0.74679(3) 1.0000
N13_3 N 0.7500 0.1447(3) 1.0000
Pt1_4 Pt 0.2500 0.00266(2) 0.0000
Pt2_4 Pt 0.5000 0.2500 0.12627(2)
Fe2_3 Fe 0.7500 0.2500 0.2500
O2_3 O 0.8181(3) 0.1742(2) 0.21774(16)
H1_3 H 0.7849 0.1557 0.1967
H2_3 H 0.8280 0.1428 0.2371
O3_3 O 0.5280(3) 0.17391(17) 0.43411(14)
N3_4 N 0.2500 0.1510(3) 0.0000
N4_3 N 0.3561(3) 0.25170(14) 0.04984(17)
N5_3 N 0.6437(3) 0.2432(2) 0.20243(17)
N6_3 N 0.6834(3) 0.1844(2) 0.29656(14)
N7_3 N 0.5626(3) 0.07976(19) 0.40136(13)
C1_4 C 0.2500 0.0970(3) 0.0000
C4_3 C 0.4069(3) 0.25124(16) 0.07827(18)
C5_3 C 0.5918(4) 0.2454(2) 0.17427(19)
C6_3 C 0.5957(4) 0.1795(3) 0.2992(2)
H4_3 H 0.5616 0.2006 0.2777
C7_3 C 0.5529(4) 0.1450(3) 0.33231(19)
H5_3 H 0.4914 0.1427 0.3330
C8_3 C 0.6021(3) 0.1144(3) 0.36375(17)
C9_3 C 0.6900(4) 0.1143(3) 0.3596(2)
H6_3 H 0.7247 0.0895 0.3787
C10_3 C 0.7291(4) 0.1518(3) 0.3263(2)
H7_3 H 0.7905 0.1538 0.3250
C11_3 C 0.5664(4) 0.0128(2) 0.39983(16)
C12_3 C 0.5317(3) 0.1162(2) 0.43716(16)
C13_3 C 0.5066(2) 0.0818(2) 0.47873(18)
C14_3 C 0.4814(3) 0.1164(2) 0.5168(2)
H8_3 H 0.4808 0.1604 0.5158
C15_3 C 0.4572(3) 0.0848(2) 0.55639(17)
H9_3 H 0.4379 0.1075 0.5816
C16_3 C 0.4617(3) 0.0200(2) 0.55826(15)
O5_3 O 0.4077(3) 0.0137(2) 0.63368(14)
C30_3 C 0.5117(3) 0.0163(2) 0.47987(16)
N11_3 N 0.3563(3) 0.2568(2) 0.20243(17)
C31_3 C 0.5931(3) 0.24876(16) 0.07827(18)
C32_3 C 0.4082(4) 0.2546(2) 0.17427(19)
O7_3 O 0.1594(3) 0.2606(2) 0.05506(17)
H19_3 H 0.111(3) 0.241(3) 0.0576(13)
C33_3 C 0.1730(4) 0.2968(3) 0.0954(2)
H20_3 H 0.1285 0.3291 0.0975
H21_3 H 0.2304 0.3161 0.0944
H22_3 H 0.1692 0.2695 0.1215
O8_3 O 0.6819(3) 0.3258(2) 0.28226(16)
H23_3 H 0.7151 0.3443 0.3033
H24_3 H 0.6720 0.3572 0.2629
Fe6_2 Fe 0.2500 0.2500 0.2500
N13_4 N 0.2500 0.3553(3) 0.0000
N15_3 N 0.8563(3) 0.2568(2) 0.29757(17)
N16_3 N 0.8166(3) 0.3156(2) 0.20344(14)
Pt1_5 Pt 0.2500 0.00266(2) 1.0000
O4_3 O 0.3406(3) 0.2606(2) 0.94494(17)
H3_3 H 0.389(3) 0.241(3) 0.9424(13)
N3_5 N 0.2500 0.1510(3) 1.0000
C1_5 C 0.2500 0.0970(3) 1.0000
C18_3 C 0.3270(4) 0.2968(3) 0.9046(2)
H10_3 H 0.3715 0.3291 0.9025
H11_3 H 0.2696 0.3161 0.9056
H12_3 H 0.3308 0.2695 0.8785
N13_5 N 0.2500 0.3553(3) 1.0000
O1_3 O 0.5923(3) 0.9863(2) 0.36632(14)
N1_4 N 0.2500 0.8553(3) 0.0000
N2_3 N 0.3312(4) 0.9948(3) 0.0978(2)
C2_4 C 0.2500 0.9079(3) 0.0000
C3_3 C 0.3018(4) 0.9996(2) 0.0626(2)
C17_3 C 0.4883(3) 0.9837(2) 0.52013(16)
O6_3 O 0.4720(3) 0.82609(17) 0.56589(14)
N8_3 N 0.3166(3) 0.8156(2) 0.70344(14)
N9_3 N 0.4374(3) 0.92024(19) 0.59864(13)
C19_3 C 0.4043(4) 0.8205(3) 0.7008(2)
H13_3 H 0.4384 0.7994 0.7223
C20_3 C 0.4471(4) 0.8550(3) 0.66769(19)
H14_3 H 0.5086 0.8573 0.6670
C21_3 C 0.3979(3) 0.8856(3) 0.63625(17)
C22_3 C 0.3100(4) 0.8857(3) 0.6404(2)
H15_3 H 0.2753 0.9105 0.6213
C23_3 C 0.2709(4) 0.8482(3) 0.6737(2)
H16_3 H 0.2095 0.8462 0.6750
C24_3 C 0.4336(4) 0.9872(2) 0.60017(16)
C25_3 C 0.4683(3) 0.8838(2) 0.56284(16)
C26_3 C 0.4934(2) 0.9182(2) 0.52127(18)
C27_3 C 0.5186(3) 0.8836(2) 0.4832(2)
H17_3 H 0.5192 0.8396 0.4842
C28_3 C 0.5428(3) 0.9152(2) 0.44361(17)
H18_3 H 0.5621 0.8925 0.4184
C29_3 C 0.5383(3) 0.9800(2) 0.44174(15)
Fe4_4 Fe 0.2500 0.75321(3) 0.0000
Fe5_2 Fe 0.2500 0.7500 0.7500
N1_5 N 0.2500 0.8553(3) 1.0000
C2_5 C 0.2500 0.9079(3) 1.0000
N12_3 N 0.1688(4) 0.9948(3) 0.9022(2)
C34_3 C 0.1982(4) 0.9996(2) 0.9374(2)
Fe4_5 Fe 0.2500 0.75321(3) 1.0000
C17_4 C 0.0117(3) 0.0163(2) 0.02013(16)
O6_4 O 0.0280(3) 0.17391(17) 0.06589(14)
N8_4 N 0.1834(3) 0.1844(2) 0.20344(14)
N9_4 N 0.0626(3) 0.07976(19) 0.09864(13)
C19_4 C 0.0957(4) 0.1795(3) 0.2008(2)
H13_4 H 0.0616 0.2006 0.2223
C20_4 C 0.0529(4) 0.1450(3) 0.16769(19)
C21_4 C 0.1021(3) 0.1144(3) 0.13625(17)
C22_4 C 0.1900(4) 0.1143(3) 0.1404(2)
H15_4 H 0.2247 0.0895 0.1213
C23_4 C 0.2291(4) 0.1518(3) 0.1737(2)
H16_4 H 0.2905 0.1538 0.1750
C24_4 C 0.0664(4) 0.0128(2) 0.10017(16)
C25_4 C 0.0317(3) 0.1162(2) 0.06284(16)
C26_4 C 0.0066(2) 0.0818(2) 0.02127(18)
N1_6 N 0.2500 0.1447(3) 0.5000
N2_4 N 0.1688(4) 0.0052(3) 0.5978(2)
C2_6 C 0.2500 0.0921(3) 0.5000
C3_4 C 0.1982(4) 0.0004(2) 0.5626(2)
N12_4 N 0.3312(4) 0.0052(3) 0.4022(2)
C34_4 C 0.3018(4) 0.0004(2) 0.4374(2)
Fe4_6 Fe 0.2500 0.24679(3) 0.5000
Pt1_6 Pt 0.2500 0.99734(2) 0.5000
Pt2_5 Pt -0.0000 0.7500 0.62627(2)
O4_4 O 0.1594(3) 0.7394(2) 0.44494(17)
H3_4 H 0.111(3) 0.759(3) 0.4424(13)
N3_6 N 0.2500 0.8490(3) 0.5000
N4_4 N 0.1439(3) 0.74830(14) 0.54984(17)
C1_6 C 0.2500 0.9030(3) 0.5000
C4_4 C 0.0931(3) 0.74876(16) 0.57827(18)
H5_4 H 0.0086 0.8573 0.8330
C18_4 C 0.1730(4) 0.7032(3) 0.4046(2)
H10_4 H 0.1285 0.6709 0.4025
H11_4 H 0.2304 0.6839 0.4056
H12_4 H 0.1692 0.7305 0.3785
N11_4 N 0.1437(3) 0.7432(2) 0.70243(17)
C32_4 C 0.0918(4) 0.7454(2) 0.67427(19)
O7_4 O 0.3406(3) 0.7394(2) 0.55506(17)
H19_4 H 0.389(3) 0.759(3) 0.5576(13)
C33_4 C 0.3270(4) 0.7032(3) 0.5954(2)
H20_4 H 0.3715 0.6709 0.5975
H21_4 H 0.2696 0.6839 0.5944
H22_4 H 0.3308 0.7305 0.6215
N13_6 N 0.2500 0.6447(3) 0.5000
H14_4 H 0.9914 0.1427 0.1670
Pt2_6 Pt 1.0000 0.7500 0.62627(2)
Fe2_4 Fe 0.7500 0.7500 0.7500
O2_4 O 0.6819(3) 0.8258(2) 0.71774(16)
H1_4 H 0.7151 0.8443 0.6967
H2_4 H 0.6720 0.8572 0.7371
O3_4 O 0.9720(3) 0.82609(17) 0.93411(14)
N5_4 N 0.8563(3) 0.7568(2) 0.70243(17)
N6_4 N 0.8166(3) 0.8156(2) 0.79656(14)
N7_4 N 0.9374(3) 0.92024(19) 0.90136(13)
C5_4 C 0.9082(4) 0.7546(2) 0.67427(19)
C6_4 C 0.9043(4) 0.8205(3) 0.7992(2)
H4_4 H 0.9384 0.7994 0.7777
C7_4 C 0.9471(4) 0.8550(3) 0.83231(19)
C8_4 C 0.8979(3) 0.8856(3) 0.86375(17)
C9_4 C 0.8100(4) 0.8857(3) 0.8596(2)
H6_4 H 0.7753 0.9105 0.8787
C10_4 C 0.7709(4) 0.8482(3) 0.8263(2)
H7_4 H 0.7095 0.8462 0.8250
C11_4 C 0.9336(4) 0.9872(2) 0.89983(16)
C12_4 C 0.9683(3) 0.8838(2) 0.93716(16)
C13_4 C 0.9934(2) 0.9182(2) 0.97873(18)
C30_4 C 0.9883(3) 0.9837(2) 0.97987(16)
C31_4 C 0.9069(3) 0.75124(16) 0.57827(18)
O8_4 O 0.8181(3) 0.6742(2) 0.78226(16)
H23_4 H 0.7849 0.6557 0.8033
H24_4 H 0.8280 0.6428 0.7629
N15_4 N 0.6437(3) 0.7432(2) 0.79757(17)
N16_4 N 0.6834(3) 0.6844(2) 0.70344(14)
H5_5 H 0.0086 0.1427 0.6670
C14_4 C 0.0186(3) 0.1164(2) 0.4832(2)
H8_4 H 0.0192 0.1604 0.4842
C15_4 C 0.0428(3) 0.0848(2) 0.44361(17)
H9_4 H 0.0621 0.1075 0.4184
C16_4 C 0.0383(3) 0.0200(2) 0.44174(15)
O5_4 O 0.0923(3) 0.0137(2) 0.36632(14)
C17_5 C 0.0117(3) 0.9837(2) 0.47987(16)
O6_5 O 0.0280(3) 0.82609(17) 0.43411(14)
N9_5 N 0.0626(3) 0.92024(19) 0.40136(13)
C19_5 C 0.0957(4) 0.8205(3) 0.2992(2)
H13_5 H 0.0616 0.7994 0.2777
C20_5 C 0.0529(4) 0.8550(3) 0.33231(19)
C21_5 C 0.1021(3) 0.8856(3) 0.36375(17)
C22_5 C 0.1900(4) 0.8857(3) 0.3596(2)
H15_5 H 0.2247 0.9105 0.3787
C23_5 C 0.2291(4) 0.8482(3) 0.3263(2)
H16_5 H 0.2905 0.8462 0.3250
C24_5 C 0.0664(4) 0.9872(2) 0.39983(16)
C25_5 C 0.0317(3) 0.8838(2) 0.43716(16)
C26_5 C 0.0066(2) 0.9182(2) 0.47873(18)
O2_5 O 0.6819(3) 0.1742(2) 0.78226(16)
H1_5 H 0.7151 0.1557 0.8033
H2_5 H 0.6720 0.1428 0.7629
O3_5 O 0.9720(3) 0.17391(17) 0.56589(14)
N6_5 N 0.8166(3) 0.1844(2) 0.70344(14)
N7_5 N 0.9374(3) 0.07976(19) 0.59864(13)
C6_5 C 0.9043(4) 0.1795(3) 0.7008(2)
H4_5 H 0.9384 0.2006 0.7223
C7_5 C 0.9471(4) 0.1450(3) 0.66769(19)
C8_5 C 0.8979(3) 0.1144(3) 0.63625(17)
C9_5 C 0.8100(4) 0.1143(3) 0.6404(2)
H6_5 H 0.7753 0.0895 0.6213
C10_5 C 0.7709(4) 0.1518(3) 0.6737(2)
H7_5 H 0.7095 0.1538 0.6750
C11_5 C 0.9336(4) 0.0128(2) 0.60017(16)
C12_5 C 0.9683(3) 0.1162(2) 0.56284(16)
C13_5 C 0.9934(2) 0.0818(2) 0.52127(18)
C30_5 C 0.9883(3) 0.0163(2) 0.52013(16)
O8_5 O 0.8181(3) 0.3258(2) 0.71774(16)
H23_5 H 0.7849 0.3443 0.6967
H24_5 H 0.8280 0.3572 0.7371
N15_5 N 0.6437(3) 0.2568(2) 0.70243(17)
O1_4 O 0.9077(3) 0.9863(2) 0.63368(14)
H14_5 H 0.9914 0.8573 0.3330
C27_4 C 0.9814(3) 0.8836(2) 0.5168(2)
H17_4 H 0.9808 0.8396 0.5158
C28_4 C 0.9572(3) 0.9152(2) 0.55639(17)
H18_4 H 0.9379 0.8925 0.5816
C29_4 C 0.9617(3) 0.9800(2) 0.55826(15)
O1_5 O 0.5923(3) 0.0137(2) 0.13368(14)
C27_5 C 0.5186(3) 0.1164(2) 0.0168(2)
H17_5 H 0.5192 0.1604 0.0158
C28_5 C 0.5428(3) 0.0848(2) 0.05639(17)
H18_5 H 0.5621 0.1075 0.0816
C29_5 C 0.5383(3) 0.0200(2) 0.05826(15)
C17_6 C 0.4883(3) 0.0163(2) 0.97987(16)
O6_6 O 0.4720(3) 0.17391(17) 0.93411(14)
N9_6 N 0.4374(3) 0.07976(19) 0.90136(13)
C19_6 C 0.4043(4) 0.1795(3) 0.7992(2)
H13_6 H 0.4384 0.2006 0.7777
C20_6 C 0.4471(4) 0.1450(3) 0.83231(19)
H14_6 H 0.5086 0.1427 0.8330
C21_6 C 0.3979(3) 0.1144(3) 0.86375(17)
C22_6 C 0.3100(4) 0.1143(3) 0.8596(2)
H15_6 H 0.2753 0.0895 0.8787
C23_6 C 0.2709(4) 0.1518(3) 0.8263(2)
H16_6 H 0.2095 0.1538 0.8250
C24_6 C 0.4336(4) 0.0128(2) 0.89983(16)
C25_6 C 0.4683(3) 0.1162(2) 0.93716(16)
C26_6 C 0.4934(2) 0.0818(2) 0.97873(18)
O2_6 O 0.8181(3) 0.8258(2) 0.28226(16)
H1_6 H 0.7849 0.8443 0.3033
H2_6 H 0.8280 0.8572 0.2629
O3_6 O 0.5280(3) 0.82609(17) 0.06589(14)
N6_6 N 0.6834(3) 0.8156(2) 0.20344(14)
N7_6 N 0.5626(3) 0.92024(19) 0.09864(13)
C6_6 C 0.5957(4) 0.8205(3) 0.2008(2)
H4_6 H 0.5616 0.7994 0.2223
C7_6 C 0.5529(4) 0.8550(3) 0.16769(19)
H5_6 H 0.4914 0.8573 0.1670
C8_6 C 0.6021(3) 0.8856(3) 0.13625(17)
C9_6 C 0.6900(4) 0.8857(3) 0.1404(2)
H6_6 H 0.7247 0.9105 0.1213
C10_6 C 0.7291(4) 0.8482(3) 0.1737(2)
H7_6 H 0.7905 0.8462 0.1750
C11_6 C 0.5664(4) 0.9872(2) 0.10017(16)
C12_6 C 0.5317(3) 0.8838(2) 0.06284(16)
C13_6 C 0.5066(2) 0.9182(2) 0.02127(18)
C30_6 C 0.5117(3) 0.9837(2) 0.02013(16)
O8_6 O 0.6819(3) 0.6742(2) 0.21774(16)
H23_6 H 0.7151 0.6557 0.1967
H24_6 H 0.6720 0.6428 0.2371
N15_6 N 0.8563(3) 0.7432(2) 0.20243(17)
C14_5 C 0.4814(3) 0.8836(2) 0.9832(2)
H8_5 H 0.4808 0.8396 0.9842
C15_5 C 0.4572(3) 0.9152(2) 0.94361(17)
H9_5 H 0.4379 0.8925 0.9184
C16_5 C 0.4617(3) 0.9800(2) 0.94174(15)
O5_5 O 0.4077(3) 0.9863(2) 0.86632(14)
H14_7 H 0.0086 0.3573 0.1670
O1_6 O 0.0923(3) 0.4863(2) 0.86632(14)
O2_7 O 0.3181(3) 0.6742(2) 0.71774(16)
H1_7 H 0.2849 0.6557 0.6967
H2_7 H 0.3280 0.6428 0.7371
O3_7 O 0.0280(3) 0.67391(17) 0.93411(14)
N6_7 N 0.1834(3) 0.6844(2) 0.79656(14)
N7_7 N 0.0626(3) 0.57976(19) 0.90136(13)
C6_7 C 0.0957(4) 0.6795(3) 0.7992(2)
H4_7 H 0.0616 0.7006 0.7777
C7_7 C 0.0529(4) 0.6450(3) 0.83231(19)
C8_7 C 0.1021(3) 0.6144(3) 0.86375(17)
C9_7 C 0.1900(4) 0.6143(3) 0.8596(2)
H6_7 H 0.2247 0.5895 0.8787
C10_7 C 0.2291(4) 0.6518(3) 0.8263(2)
H7_7 H 0.2905 0.6538 0.8250
C11_7 C 0.0664(4) 0.5128(2) 0.89983(16)
C12_7 C 0.0317(3) 0.6162(2) 0.93716(16)
C13_7 C 0.0066(2) 0.5818(2) 0.97873(18)
C27_6 C 0.0186(3) 0.3836(2) 0.9832(2)
H17_6 H 0.0192 0.3396 0.9842
C28_6 C 0.0428(3) 0.4152(2) 0.94361(17)
H18_6 H 0.0621 0.3925 0.9184
C29_6 C 0.0383(3) 0.4800(2) 0.94174(15)
C30_7 C 0.0117(3) 0.5163(2) 0.97987(16)
O8_7 O 0.1819(3) 0.8258(2) 0.78226(16)
H23_7 H 0.2151 0.8443 0.8033
H24_7 H 0.1720 0.8572 0.7629
N15_7 N 0.3563(3) 0.7568(2) 0.79757(17)
C14_6 C 0.9814(3) 0.6164(2) 0.0168(2)
H8_6 H 0.9808 0.6604 0.0158
C15_6 C 0.9572(3) 0.5848(2) 0.05639(17)
H9_6 H 0.9379 0.6075 0.0816
C16_6 C 0.9617(3) 0.5200(2) 0.05826(15)
C17_7 C 0.9883(3) 0.4837(2) 0.02013(16)
O5_6 O 0.9077(3) 0.5137(2) 0.13368(14)
O6_7 O 0.9720(3) 0.32609(17) 0.06589(14)
N9_7 N 0.9374(3) 0.42024(19) 0.09864(13)
C19_7 C 0.9043(4) 0.3205(3) 0.2008(2)
H13_7 H 0.9384 0.2994 0.2223
C20_7 C 0.9471(4) 0.3550(3) 0.16769(19)
C21_7 C 0.8979(3) 0.3856(3) 0.13625(17)
C22_7 C 0.8100(4) 0.3857(3) 0.1404(2)
H15_7 H 0.7753 0.4105 0.1213
C23_7 C 0.7709(4) 0.3482(3) 0.1737(2)
H16_7 H 0.7095 0.3462 0.1750
C24_7 C 0.9336(4) 0.4872(2) 0.10017(16)
C25_7 C 0.9683(3) 0.3838(2) 0.06284(16)
C26_7 C 0.9934(2) 0.4182(2) 0.02127(18)
H5_7 H 0.9914 0.6427 0.8330
O1_7 O 0.4077(3) 0.5137(2) 0.36632(14)
O2_8 O 0.1819(3) 0.3258(2) 0.21774(16)
H1_8 H 0.2151 0.3443 0.1967
H2_8 H 0.1720 0.3572 0.2371
O3_8 O 0.4720(3) 0.32609(17) 0.43411(14)
N6_8 N 0.3166(3) 0.3156(2) 0.29656(14)
N7_8 N 0.4374(3) 0.42024(19) 0.40136(13)
C6_8 C 0.4043(4) 0.3205(3) 0.2992(2)
H4_8 H 0.4384 0.2994 0.2777
C7_8 C 0.4471(4) 0.3550(3) 0.33231(19)
H5_8 H 0.5086 0.3573 0.3330
C8_8 C 0.3979(3) 0.3856(3) 0.36375(17)
C9_8 C 0.3100(4) 0.3857(3) 0.3596(2)
H6_8 H 0.2753 0.4105 0.3787
C10_8 C 0.2709(4) 0.3482(3) 0.3263(2)
H7_8 H 0.2095 0.3462 0.3250
C11_8 C 0.4336(4) 0.4872(2) 0.39983(16)
C12_8 C 0.4683(3) 0.3838(2) 0.43716(16)
C13_8 C 0.4934(2) 0.4182(2) 0.47873(18)
C14_7 C 0.5186(3) 0.3836(2) 0.5168(2)
H8_7 H 0.5192 0.3396 0.5158
C15_7 C 0.5428(3) 0.4152(2) 0.55639(17)
H9_7 H 0.5621 0.3925 0.5816
C16_7 C 0.5383(3) 0.4800(2) 0.55826(15)
C17_8 C 0.5117(3) 0.5163(2) 0.52013(16)
O5_7 O 0.5923(3) 0.4863(2) 0.63368(14)
O6_8 O 0.5280(3) 0.67391(17) 0.56589(14)
N9_8 N 0.5626(3) 0.57976(19) 0.59864(13)
C19_8 C 0.5957(4) 0.6795(3) 0.7008(2)
H13_8 H 0.5616 0.7006 0.7223
C20_8 C 0.5529(4) 0.6450(3) 0.66769(19)
H14_8 H 0.4914 0.6427 0.6670
C21_8 C 0.6021(3) 0.6144(3) 0.63625(17)
C22_8 C 0.6900(4) 0.6143(3) 0.6404(2)
H15_8 H 0.7247 0.5895 0.6213
C23_8 C 0.7291(4) 0.6518(3) 0.6737(2)
H16_8 H 0.7905 0.6538 0.6750
C24_8 C 0.5664(4) 0.5128(2) 0.60017(16)
C25_8 C 0.5317(3) 0.6162(2) 0.56284(16)
C26_8 C 0.5066(2) 0.5818(2) 0.52127(18)
C27_7 C 0.4814(3) 0.6164(2) 0.4832(2)
H17_7 H 0.4808 0.6604 0.4842
C28_7 C 0.4572(3) 0.5848(2) 0.44361(17)
H18_7 H 0.4379 0.6075 0.4184
C29_7 C 0.4617(3) 0.5200(2) 0.44174(15)
C30_8 C 0.4883(3) 0.4837(2) 0.47987(16)
O8_8 O 0.3181(3) 0.1742(2) 0.28226(16)
H23_8 H 0.2849 0.1557 0.3033
H24_8 H 0.3280 0.1428 0.2629
N15_8 N 0.1437(3) 0.2432(2) 0.29757(17)
Pt1_7 Pt 0.2500 0.49734(2) 0.5000
Pt2_7 Pt 0.5000 0.2500 0.62627(2)
O4_5 O 0.3406(3) 0.2394(2) 0.44494(17)
H3_5 H 0.389(3) 0.259(3) 0.4424(13)
N2_5 N 0.3312(4) 0.5052(3) 0.5978(2)
N3_7 N 0.2500 0.3490(3) 0.5000
N4_5 N 0.3561(3) 0.24830(14) 0.54984(17)
C1_7 C 0.2500 0.4030(3) 0.5000
C2_7 C 0.2500 0.5921(3) 0.5000
C3_5 C 0.3018(4) 0.5004(2) 0.5626(2)
C4_5 C 0.4069(3) 0.24876(16) 0.57827(18)
C5_5 C 0.5918(4) 0.2546(2) 0.67427(19)
C18_5 C 0.3270(4) 0.2032(3) 0.4046(2)
H10_5 H 0.3715 0.1709 0.4025
H11_5 H 0.2696 0.1839 0.4056
H12_5 H 0.3308 0.2305 0.3785
N10_3 N 0.6439(3) 0.25170(14) 0.54984(17)
C31_5 C 0.5931(3) 0.25124(16) 0.57827(18)
C32_5 C 0.4082(4) 0.2454(2) 0.67427(19)
O7_5 O 0.1594(3) 0.2394(2) 0.55506(17)
H19_5 H 0.111(3) 0.259(3) 0.5576(13)
C33_5 C 0.1730(4) 0.2032(3) 0.5954(2)
H20_5 H 0.1285 0.1709 0.5975
H21_5 H 0.2304 0.1839 0.5944
H22_5 H 0.1692 0.2305 0.6215
N12_5 N 0.1688(4) 0.5052(3) 0.4022(2)
C34_5 C 0.1982(4) 0.5004(2) 0.4374(2)
N14_3 N 0.1439(3) 0.24830(14) 0.45016(17)
Pt1_8 Pt 0.2500 0.50266(2) 0.0000
Pt2_8 Pt -0.0000 0.7500 0.12627(2)
N2_6 N 0.1688(4) 0.4948(3) 0.0978(2)
N3_8 N 0.2500 0.6510(3) 0.0000
N4_6 N 0.1439(3) 0.75170(14) 0.04984(17)
C1_8 C 0.2500 0.5970(3) 0.0000
C2_8 C 0.2500 0.4079(3) 0.0000
C3_6 C 0.1982(4) 0.4996(2) 0.0626(2)
C4_6 C 0.0931(3) 0.75124(16) 0.07827(18)
C32_6 C 0.0918(4) 0.7546(2) 0.17427(19)
O7_6 O 0.3406(3) 0.7606(2) 0.05506(17)
H19_6 H 0.389(3) 0.741(3) 0.0576(13)
C33_6 C 0.3270(4) 0.7968(3) 0.0954(2)
H20_6 H 0.3715 0.8291 0.0975
H21_6 H 0.2696 0.8161 0.0944
H22_6 H 0.3308 0.7695 0.1215
Pt1_9 Pt 0.2500 0.50266(2) 1.0000
O4_6 O 0.1594(3) 0.7606(2) 0.94494(17)
H3_6 H 0.111(3) 0.741(3) 0.9424(13)
N3_9 N 0.2500 0.6510(3) 1.0000
C1_9 C 0.2500 0.5970(3) 1.0000
C2_9 C 0.2500 0.4079(3) 1.0000
C18_6 C 0.1730(4) 0.7968(3) 0.9046(2)
H10_6 H 0.1285 0.8291 0.9025
H11_6 H 0.2304 0.8161 0.9056
H12_6 H 0.1692 0.7695 0.8785
N12_6 N 0.3312(4) 0.4948(3) 0.9022(2)
C34_6 C 0.3018(4) 0.4996(2) 0.9374(2)
N14_4 N 0.3561(3) 0.75170(14) 0.95016(17)
Pt2_9 Pt 1.0000 0.7500 0.12627(2)
C5_6 C 0.9082(4) 0.7454(2) 0.17427(19)
N10_4 N 0.8561(3) 0.74830(14) 0.04984(17)
C31_6 C 0.9069(3) 0.74876(16) 0.07827(18)
C2_10 C 0.7500 0.0921(3) 0.0000
N12_7 N 0.8312(4) 0.0052(3) 0.0978(2)
C34_7 C 0.8018(4) 0.0004(2) 0.0626(2)
N2_7 N 0.6688(4) 0.0052(3) 0.9022(2)
C2_11 C 0.7500 0.0921(3) 1.0000
C3_7 C 0.6982(4) 0.0004(2) 0.9374(2)
Pt1_10 Pt 0.7500 0.99734(2) 0.0000
O4_7 O 0.6594(3) 0.7394(2) 0.05506(17)
H3_7 H 0.611(3) 0.759(3) 0.0576(13)
N3_10 N 0.7500 0.8490(3) 0.0000
C1_10 C 0.7500 0.9030(3) 0.0000
C18_7 C 0.6730(4) 0.7032(3) 0.0954(2)
H10_7 H 0.6285 0.6709 0.0975
H11_7 H 0.7304 0.6839 0.0944
H12_7 H 0.6692 0.7305 0.1215
Pt1_11 Pt 0.7500 0.99734(2) 1.0000
Pt2_10 Pt 0.5000 0.7500 0.87373(2)
N3_11 N 0.7500 0.8490(3) 1.0000
N4_7 N 0.6439(3) 0.74830(14) 0.95016(17)
C1_11 C 0.7500 0.9030(3) 1.0000
C4_7 C 0.5931(3) 0.74876(16) 0.92173(18)
C5_7 C 0.4082(4) 0.7546(2) 0.82573(19)
C31_7 C 0.4069(3) 0.75124(16) 0.92173(18)
C32_7 C 0.5918(4) 0.7454(2) 0.82573(19)
O7_7 O 0.8406(3) 0.7394(2) 0.94494(17)
H19_7 H 0.889(3) 0.759(3) 0.9424(13)
C33_7 C 0.8270(4) 0.7032(3) 0.9046(2)
H20_7 H 0.8715 0.6709 0.9025
H21_7 H 0.7696 0.6839 0.9056
H22_7 H 0.8308 0.7305 0.8785
Pt2_11 Pt 0.0000 0.2500 0.37373(2)
C5_8 C 0.0918(4) 0.2454(2) 0.32573(19)
C31_8 C 0.0931(3) 0.24876(16) 0.42173(18)
Pt1_12 Pt 0.7500 0.00266(2) 0.5000
Pt2_12 Pt 1.0000 0.2500 0.37373(2)
O4_8 O 0.8406(3) 0.2606(2) 0.55506(17)
H3_8 H 0.889(3) 0.241(3) 0.5576(13)
N3_12 N 0.7500 0.1510(3) 0.5000
N4_8 N 0.8561(3) 0.25170(14) 0.45016(17)
C1_12 C 0.7500 0.0970(3) 0.5000
C4_8 C 0.9069(3) 0.25124(16) 0.42173(18)
C18_8 C 0.8270(4) 0.2968(3) 0.5954(2)
H10_8 H 0.8715 0.3291 0.5975
H11_8 H 0.7696 0.3161 0.5944
H12_8 H 0.8308 0.2695 0.6215
C32_8 C 0.9082(4) 0.2546(2) 0.32573(19)
O7_8 O 0.6594(3) 0.2606(2) 0.44494(17)
H19_8 H 0.611(3) 0.241(3) 0.4424(13)
C33_8 C 0.6730(4) 0.2968(3) 0.4046(2)
H20_8 H 0.6285 0.3291 0.4025
H21_8 H 0.7304 0.3161 0.4056
H22_8 H 0.6692 0.2695 0.3785
N2_8 N 0.8312(4) 0.9948(3) 0.4022(2)
C2_12 C 0.7500 0.9079(3) 0.5000
C3_8 C 0.8018(4) 0.9996(2) 0.4374(2)
N12_8 N 0.6688(4) 0.9948(3) 0.5978(2)
C34_8 C 0.6982(4) 0.9996(2) 0.5626(2)
C14_8 C 0.0186(3) 0.8836(2) 0.0168(2)
H8_8 H 0.0192 0.8396 0.0158
C15_8 C 0.0428(3) 0.9152(2) 0.05639(17)
H9_8 H 0.0621 0.8925 0.0816
C16_8 C 0.0383(3) 0.9800(2) 0.05826(15)
O5_8 O 0.0923(3) 0.9863(2) 0.13368(14)
O1_8 O 0.9077(3) 0.0137(2) 0.86632(14)
C27_8 C 0.9814(3) 0.1164(2) 0.9832(2)
H17_8 H 0.9808 0.1604 0.9842
C28_8 C 0.9572(3) 0.0848(2) 0.94361(17)
H18_8 H 0.9379 0.1075 0.9184
C29_8 C 0.9617(3) 0.0200(2) 0.94174(15)
loop_
_geom_bond_atom_site_label_1
_geom_bond_atom_site_label_2
_geom_bond_site_symmetry_1
_geom_bond_site_symmetry_2
Pt1 C1 1_555 1_555
Pt2 C4 1_555 1_555
Fe1 O4 1_555 1_555
Fe2 O2 1_555 1_555
O1 C11 1_555 1_555
O2 H1 1_555 1_555
H2 O2 1_555 1_555
O3 C12 1_555 1_555
O4 H3 1_555 1_555
N1 C2 1_555 1_555
N2 C3 1_555 1_555
N3 Fe1 1_555 1_555
N4 Fe1 1_555 1_555
N5 Fe2 1_555 1_555
N6 Fe2 1_555 1_555
N7 C8 1_555 1_555
C1 N3 1_555 1_555
C2 Pt1 1_555 1_555
C3 Pt1 1_555 1_555
C4 N4 1_555 1_555
C5 Pt2 1_555 1_555
C6 N6 1_555 1_555
H4 C6 1_555 1_555
C7 C6 1_555 1_555
H5 C7 1_555 1_555
C8 C7 1_555 1_555
C9 C8 1_555 1_555
H6 C9 1_555 1_555
C10 N6 1_555 1_555
H7 C10 1_555 1_555
C11 N7 1_555 1_555
C12 N7 1_555 1_555
C13 C12 1_555 1_555
C18 O4 1_555 1_555
H10 C18 1_555 1_555
H11 C18 1_555 1_555
H12 C18 1_555 1_555
H17 C27 1_555 1_555
C28 C27 1_555 1_555
H18 C28 1_555 1_555
C29 C11 1_555 1_555
C30 C13 1_555 1_555
N10 C31 1_555 1_555
N11 C32 1_555 1_555
C31 Pt2 1_555 1_555
C32 Pt2 1_555 1_555
O7 Fe1 1_555 1_555
H19 O7 1_555 1_555
C33 O7 1_555 1_555
H20 C33 1_555 1_555
H21 C33 1_555 1_555
H22 C33 1_555 1_555
O8 Fe2 1_555 1_555
H23 O8 1_555 1_555
H24 O8 1_555 1_555
N12 C34 1_555 1_555
C34 Pt1 1_555 1_555
Fe3 N10 1_555 1_555
Fe4 N1 1_555 1_555
Fe6 N11 1_555 1_555
N13 Fe1 1_555 1_555
N14 Fe1 1_555 1_555
N15 Fe2 1_555 1_555
N16 Fe2 1_555 1_555
N5 C5 1_555 1_555
C9 C10 1_555 1_555
C28 C29 1_555 1_555
C29 C30 1_555 1_555
H8 C14 1_555 1_555
C15 C14 1_555 1_555
H9 C15 1_555 1_555
C16 C15 1_555 1_555
C17 C16 1_555 1_555
O5 C24 1_555 1_555
O6 C25 1_555 1_555
N8 C19 1_555 1_555
N9 C21 1_555 1_555
C19 H13 1_555 1_555
C20 C19 1_555 1_555
H14 C20 1_555 1_555
C21 C20 1_555 1_555
C22 C21 1_555 1_555
H15 C22 1_555 1_555
C23 N8 1_555 1_555
H16 C23 1_555 1_555
C24 C16 1_555 1_555
C25 N9 1_555 1_555
C26 C17 1_555 1_555
Fe5 N8 1_555 1_555
N9 C24 1_555 1_555
C22 C23 1_555 1_555
C25 C26 1_555 1_555
Fe2_2 O2_2 1_555 1_555
O1_2 C11_2 1_555 1_555
O2_2 H1_2 1_555 1_555
H2_2 O2_2 1_555 1_555
O3_2 C12_2 1_555 1_555
N5_2 Fe2_2 1_555 1_555
N6_2 Fe2_2 1_555 1_555
N7_2 C8_2 1_555 1_555
C5_2 Pt2_2 1_555 1_555
C6_2 N6_2 1_555 1_555
H4_2 C6_2 1_555 1_555
C7_2 C6_2 1_555 1_555
C8_2 C7_2 1_555 1_555
C9_2 C8_2 1_555 1_555
H6_2 C9_2 1_555 1_555
C10_2 N6_2 1_555 1_555
H7_2 C10_2 1_555 1_555
C11_2 N7_2 1_555 1_555
C12_2 N7_2 1_555 1_555
C13_2 C12_2 1_555 1_555
H17_2 C27_2 1_555 1_555
C28_2 C27_2 1_555 1_555
H18_2 C28_2 1_555 1_555
C29_2 C11_2 1_555 1_555
C30_2 C13_2 1_555 1_555
N10_2 C31_2 1_555 1_555
C31_2 Pt2_2 1_555 1_555
O8_2 Fe2_2 1_555 1_555
H23_2 O8_2 1_555 1_555
H24_2 O8_2 1_555 1_555
Fe3_3 N10_2 1_555 1_555
N15_2 Fe2_2 1_555 1_555
N16_2 Fe2_2 1_555 1_555
N5_2 C5_2 1_555 1_555
C9_2 C10_2 1_555 1_555
C28_2 C29_2 1_555 1_555
C29_2 C30_2 1_555 1_555
Pt1_2 C1_2 1_555 1_555
Fe1_2 O4_2 1_555 1_555
O4_2 H3_2 1_555 1_555
N1_2 C2_2 1_555 1_555
N3_2 Fe1_2 1_555 1_555
C1_2 N3_2 1_555 1_555
C2_2 Pt1_2 1_555 1_555
C18_2 O4_2 1_555 1_555
H10_2 C18_2 1_555 1_555
H11_2 C18_2 1_555 1_555
H12_2 C18_2 1_555 1_555
N12_2 C34_2 1_555 1_555
C34_2 Pt1_2 1_555 1_555
Fe4_2 N1_2 1_555 1_555
N13_2 Fe1_2 1_555 1_555
N14_2 Fe1_2 1_555 1_555
Pt1_3 C1_3 1_555 1_555
Pt2_3 C4_2 1_555 1_555
N1_3 C2_3 1_555 1_555
N2_2 C3_2 1_555 1_555
N3_3 Fe1_3 1_555 1_555
N4_2 Fe1_3 1_555 1_555
C1_3 N3_3 1_555 1_555
C2_3 Pt1_3 1_555 1_555
C3_2 Pt1_3 1_555 1_555
C4_2 N4_2 1_555 1_555
H8_2 C14_2 1_555 1_555
C15_2 C14_2 1_555 1_555
H9_2 C15_2 1_555 1_555
C16_2 C15_2 1_555 1_555
C17_2 C16_2 1_555 1_555
O5_2 C24_2 1_555 1_555
O6_2 C25_2 1_555 1_555
N8_2 C19_2 1_555 1_555
N9_2 C21_2 1_555 1_555
C19_2 H13_2 1_555 1_555
C20_2 C19_2 1_555 1_555
C21_2 C20_2 1_555 1_555
C22_2 C21_2 1_555 1_555
H15_2 C22_2 1_555 1_555
C23_2 N8_2 1_555 1_555
H16_2 C23_2 1_555 1_555
C24_2 C16_2 1_555 1_555
C25_2 N9_2 1_555 1_555
C26_2 C17_2 1_555 1_555
N11_2 C32_2 1_555 1_555
C32_2 Pt2_3 1_555 1_555
O7_2 Fe1_3 1_555 1_555
H19_2 O7_2 1_555 1_555
C33_2 O7_2 1_555 1_555
H20_2 C33_2 1_555 1_555
H21_2 C33_2 1_555 1_555
H22_2 C33_2 1_555 1_555
Fe4_3 N1_3 1_555 1_555
Fe6 N8_2 1_555 1_555
Fe5 N11_2 1_555 1_555
N13_3 Fe1_3 1_555 1_555
N9_2 C24_2 1_555 1_555
C22_2 C23_2 1_555 1_555
C25_2 C26_2 1_555 1_555
Pt1_4 C1_4 1_555 1_555
Pt2_4 C4_3 1_555 1_555
Fe2_3 O2_3 1_555 1_555
O2_3 H1_3 1_555 1_555
H2_3 O2_3 1_555 1_555
O3_3 C12_3 1_555 1_555
N3_4 Fe3_2 1_555 1_555
N4_3 Fe3_2 1_555 1_555
N5_3 Fe2_3 1_555 1_555
N6_3 Fe2_3 1_555 1_555
N7_3 C8_3 1_555 1_555
C1_4 N3_4 1_555 1_555
C4_3 N4_3 1_555 1_555
C5_3 Pt2_4 1_555 1_555
C6_3 N6_3 1_555 1_555
H4_3 C6_3 1_555 1_555
C7_3 C6_3 1_555 1_555
H5_3 C7_3 1_555 1_555
C8_3 C7_3 1_555 1_555
C9_3 C8_3 1_555 1_555
H6_3 C9_3 1_555 1_555
C10_3 N6_3 1_555 1_555
H7_3 C10_3 1_555 1_555
C11_3 N7_3 1_555 1_555
C12_3 N7_3 1_555 1_555
C13_3 C12_3 1_555 1_555
C14_3 C13_3 1_555 1_555
H8_3 C14_3 1_555 1_555
C15_3 C14_3 1_555 1_555
H9_3 C15_3 1_555 1_555
C16_3 C15_3 1_555 1_555
C30_3 C13_3 1_555 1_555
N14_2 C31_3 1_555 1_555
N11_3 C32_3 1_555 1_555
C31_3 Pt2_4 1_555 1_555
C32_3 Pt2_4 1_555 1_555
O7_3 Fe3_2 1_555 1_555
H19_3 O7_3 1_555 1_555
C33_3 O7_3 1_555 1_555
H20_3 C33_3 1_555 1_555
H21_3 C33_3 1_555 1_555
H22_3 C33_3 1_555 1_555
O8_3 Fe2_3 1_555 1_555
H23_3 O8_3 1_555 1_555
H24_3 O8_3 1_555 1_555
Fe6_2 N11_3 1_555 1_555
N13_4 Fe3_2 1_555 1_555
N15_3 Fe2_3 1_555 1_555
N16_3 Fe2_3 1_555 1_555
N5_3 C5_3 1_555 1_555
C9_3 C10_3 1_555 1_555
Pt1_5 C1_5 1_555 1_555
Fe3_3 O4_3 1_555 1_555
O4_3 H3_3 1_555 1_555
N3_5 Fe3_3 1_555 1_555
C1_5 N3_5 1_555 1_555
C18_3 O4_3 1_555 1_555
H10_3 C18_3 1_555 1_555
H11_3 C18_3 1_555 1_555
H12_3 C18_3 1_555 1_555
N13_5 Fe3_3 1_555 1_555
N1_4 C2_4 1_555 1_555
N2_3 C3_3 1_555 1_555
O6_3 C25_3 1_555 1_555
N8_3 C19_3 1_555 1_555
N9_3 C21_3 1_555 1_555
C19_3 H13_3 1_555 1_555
C20_3 C19_3 1_555 1_555
H14_3 C20_3 1_555 1_555
C21_3 C20_3 1_555 1_555
C22_3 C21_3 1_555 1_555
H15_3 C22_3 1_555 1_555
C23_3 N8_3 1_555 1_555
H16_3 C23_3 1_555 1_555
C25_3 N9_3 1_555 1_555
C26_3 C17_3 1_555 1_555
C27_3 C26_3 1_555 1_555
H17_3 C27_3 1_555 1_555
C28_3 C27_3 1_555 1_555
H18_3 C28_3 1_555 1_555
Fe4_4 N1_4 1_555 1_555
Fe5_2 N8_3 1_555 1_555
N9_3 C24_3 1_555 1_555
C22_3 C23_3 1_555 1_555
C25_3 C26_3 1_555 1_555
C28_3 C29_3 1_555 1_555
N1_5 C2_5 1_555 1_555
N12_3 C34_3 1_555 1_555
Fe4_5 N1_5 1_555 1_555
O6_4 C25_4 1_555 1_555
N8_4 C19_4 1_555 1_555
N9_4 C21_4 1_555 1_555
C19_4 H13_4 1_555 1_555
C20_4 C19_4 1_555 1_555
C21_4 C20_4 1_555 1_555
C22_4 C21_4 1_555 1_555
H15_4 C22_4 1_555 1_555
C23_4 N8_4 1_555 1_555
H16_4 C23_4 1_555 1_555
C25_4 N9_4 1_555 1_555
C26_4 C17_4 1_555 1_555
Fe6_2 N8_4 1_555 1_555
N9_4 C24_4 1_555 1_555
C22_4 C23_4 1_555 1_555
C25_4 C26_4 1_555 1_555
N1_6 C2_6 1_555 1_555
N2_4 C3_4 1_555 1_555
N12_4 C34_4 1_555 1_555
Fe4_6 N1_6 1_555 1_555
Pt1_6 C1_6 1_555 1_555
Pt2_5 C4_4 1_555 1_555
Fe3 O4_4 1_555 1_555
O4_4 H3_4 1_555 1_555
N3_6 Fe3 1_555 1_555
N4_4 Fe3 1_555 1_555
C1_6 N3_6 1_555 1_555
C4_4 N4_4 1_555 1_555
C18_4 O4_4 1_555 1_555
H10_4 C18_4 1_555 1_555
H11_4 C18_4 1_555 1_555
H12_4 C18_4 1_555 1_555
N11_4 C32_4 1_555 1_555
C32_4 Pt2_5 1_555 1_555
O7_4 Fe3 1_555 1_555
H19_4 O7_4 1_555 1_555
C33_4 O7_4 1_555 1_555
H20_4 C33_4 1_555 1_555
H21_4 C33_4 1_555 1_555
H22_4 C33_4 1_555 1_555
Fe5_2 N11_4 1_555 1_555
N13_6 Fe3 1_555 1_555
Fe2_4 O2_4 1_555 1_555
O2_4 H1_4 1_555 1_555
H2_4 O2_4 1_555 1_555
O3_4 C12_4 1_555 1_555
N5_4 Fe2_4 1_555 1_555
N6_4 Fe2_4 1_555 1_555
N7_4 C8_4 1_555 1_555
C5_4 Pt2_6 1_555 1_555
C6_4 N6_4 1_555 1_555
H4_4 C6_4 1_555 1_555
C7_4 C6_4 1_555 1_555
C8_4 C7_4 1_555 1_555
C9_4 C8_4 1_555 1_555
H6_4 C9_4 1_555 1_555
C10_4 N6_4 1_555 1_555
H7_4 C10_4 1_555 1_555
C11_4 N7_4 1_555 1_555
C12_4 N7_4 1_555 1_555
C13_4 C12_4 1_555 1_555
C30_4 C13_4 1_555 1_555
N14 C31_4 1_555 1_555
C31_4 Pt2_6 1_555 1_555
O8_4 Fe2_4 1_555 1_555
H23_4 O8_4 1_555 1_555
H24_4 O8_4 1_555 1_555
N15_4 Fe2_4 1_555 1_555
N16_4 Fe2_4 1_555 1_555
N5_4 C5_4 1_555 1_555
C9_4 C10_4 1_555 1_555
H8_4 C14_4 1_555 1_555
C15_4 C14_4 1_555 1_555
H9_4 C15_4 1_555 1_555
C16_4 C15_4 1_555 1_555
O6_5 C25_5 1_555 1_555
N16 C19_5 1_555 1_555
N9_5 C21_5 1_555 1_555
C19_5 H13_5 1_555 1_555
C20_5 C19_5 1_555 1_555
C21_5 C20_5 1_555 1_555
C22_5 C21_5 1_555 1_555
H15_5 C22_5 1_555 1_555
C23_5 N16 1_555 1_555
H16_5 C23_5 1_555 1_555
C25_5 N9_5 1_555 1_555
C26_5 C17_5 1_555 1_555
N9_5 C24_5 1_555 1_555
C22_5 C23_5 1_555 1_555
C25_5 C26_5 1_555 1_555
Fe5 O2_5 1_555 1_555
O2_5 H1_5 1_555 1_555
H2_5 O2_5 1_555 1_555
O3_5 C12_5 1_555 1_555
N6_5 Fe5 1_555 1_555
N7_5 C8_5 1_555 1_555
C6_5 N6_5 1_555 1_555
H4_5 C6_5 1_555 1_555
C7_5 C6_5 1_555 1_555
C8_5 C7_5 1_555 1_555
C9_5 C8_5 1_555 1_555
H6_5 C9_5 1_555 1_555
C10_5 N6_5 1_555 1_555
H7_5 C10_5 1_555 1_555
C11_5 N7_5 1_555 1_555
C12_5 N7_5 1_555 1_555
C13_5 C12_5 1_555 1_555
C30_5 C13_5 1_555 1_555
O8_5 Fe5 1_555 1_555
H23_5 O8_5 1_555 1_555
H24_5 O8_5 1_555 1_555
N15_5 Fe5 1_555 1_555
C9_5 C10_5 1_555 1_555
H17_4 C27_4 1_555 1_555
C28_4 C27_4 1_555 1_555
H18_4 C28_4 1_555 1_555
C28_4 C29_4 1_555 1_555
H17_5 C27_5 1_555 1_555
C28_5 C27_5 1_555 1_555
H18_5 C28_5 1_555 1_555
C28_5 C29_5 1_555 1_555
O6_6 C25_6 1_555 1_555
N16_2 C19_6 1_555 1_555
N9_6 C21_6 1_555 1_555
C19_6 H13_6 1_555 1_555
C20_6 C19_6 1_555 1_555
H14_6 C20_6 1_555 1_555
C21_6 C20_6 1_555 1_555
C22_6 C21_6 1_555 1_555
H15_6 C22_6 1_555 1_555
C23_6 N16_2 1_555 1_555
H16_6 C23_6 1_555 1_555
C25_6 N9_6 1_555 1_555
C26_6 C17_6 1_555 1_555
N9_6 C24_6 1_555 1_555
C22_6 C23_6 1_555 1_555
C25_6 C26_6 1_555 1_555
Fe6 O2_6 1_555 1_555
O2_6 H1_6 1_555 1_555
H2_6 O2_6 1_555 1_555
O3_6 C12_6 1_555 1_555
N6_6 Fe6 1_555 1_555
N7_6 C8_6 1_555 1_555
C6_6 N6_6 1_555 1_555
H4_6 C6_6 1_555 1_555
C7_6 C6_6 1_555 1_555
H5_6 C7_6 1_555 1_555
C8_6 C7_6 1_555 1_555
C9_6 C8_6 1_555 1_555
H6_6 C9_6 1_555 1_555
C10_6 N6_6 1_555 1_555
H7_6 C10_6 1_555 1_555
C11_6 N7_6 1_555 1_555
C12_6 N7_6 1_555 1_555
C13_6 C12_6 1_555 1_555
C30_6 C13_6 1_555 1_555
O8_6 Fe6 1_555 1_555
H23_6 O8_6 1_555 1_555
H24_6 O8_6 1_555 1_555
N15_6 Fe6 1_555 1_555
C9_6 C10_6 1_555 1_555
H8_5 C14_5 1_555 1_555
C15_5 C14_5 1_555 1_555
H9_5 C15_5 1_555 1_555
C16_5 C15_5 1_555 1_555
Fe5_2 O2_7 1_555 1_555
O1_6 C11_7 1_555 1_555
O2_7 H1_7 1_555 1_555
H2_7 O2_7 1_555 1_555
O3_7 C12_7 1_555 1_555
N6_7 Fe5_2 1_555 1_555
N7_7 C8_7 1_555 1_555
C6_7 N6_7 1_555 1_555
H4_7 C6_7 1_555 1_555
C7_7 C6_7 1_555 1_555
C8_7 C7_7 1_555 1_555
C9_7 C8_7 1_555 1_555
H6_7 C9_7 1_555 1_555
C10_7 N6_7 1_555 1_555
H7_7 C10_7 1_555 1_555
C11_7 N7_7 1_555 1_555
C12_7 N7_7 1_555 1_555
C13_7 C12_7 1_555 1_555
H17_6 C27_6 1_555 1_555
C28_6 C27_6 1_555 1_555
H18_6 C28_6 1_555 1_555
C29_6 C11_7 1_555 1_555
C30_7 C13_7 1_555 1_555
O8_7 Fe5_2 1_555 1_555
H23_7 O8_7 1_555 1_555
H24_7 O8_7 1_555 1_555
N15_7 Fe5_2 1_555 1_555
C9_7 C10_7 1_555 1_555
C28_6 C29_6 1_555 1_555
C29_6 C30_7 1_555 1_555
H8_6 C14_6 1_555 1_555
C15_6 C14_6 1_555 1_555
H9_6 C15_6 1_555 1_555
C16_6 C15_6 1_555 1_555
C17_7 C16_6 1_555 1_555
O5_6 C24_7 1_555 1_555
O6_7 C25_7 1_555 1_555
N16_3 C19_7 1_555 1_555
N9_7 C21_7 1_555 1_555
C19_7 H13_7 1_555 1_555
C20_7 C19_7 1_555 1_555
C21_7 C20_7 1_555 1_555
C22_7 C21_7 1_555 1_555
H15_7 C22_7 1_555 1_555
C23_7 N16_3 1_555 1_555
H16_7 C23_7 1_555 1_555
C24_7 C16_6 1_555 1_555
C25_7 N9_7 1_555 1_555
C26_7 C17_7 1_555 1_555
N9_7 C24_7 1_555 1_555
C22_7 C23_7 1_555 1_555
C25_7 C26_7 1_555 1_555
Fe6_2 O2_8 1_555 1_555
O1_7 C11_8 1_555 1_555
O2_8 H1_8 1_555 1_555
H2_8 O2_8 1_555 1_555
O3_8 C12_8 1_555 1_555
N6_8 Fe6_2 1_555 1_555
N7_8 C8_8 1_555 1_555
C6_8 N6_8 1_555 1_555
H4_8 C6_8 1_555 1_555
C7_8 C6_8 1_555 1_555
H5_8 C7_8 1_555 1_555
C8_8 C7_8 1_555 1_555
C9_8 C8_8 1_555 1_555
H6_8 C9_8 1_555 1_555
C10_8 N6_8 1_555 1_555
H7_8 C10_8 1_555 1_555
C11_8 N7_8 1_555 1_555
C12_8 N7_8 1_555 1_555
C13_8 C12_8 1_555 1_555
C14_7 C13_8 1_555 1_555
H8_7 C14_7 1_555 1_555
C15_7 C14_7 1_555 1_555
H9_7 C15_7 1_555 1_555
C16_7 C15_7 1_555 1_555
C17_8 C16_7 1_555 1_555
O5_7 C24_8 1_555 1_555
O6_8 C25_8 1_555 1_555
N16_4 C19_8 1_555 1_555
N9_8 C21_8 1_555 1_555
C19_8 H13_8 1_555 1_555
C20_8 C19_8 1_555 1_555
H14_8 C20_8 1_555 1_555
C21_8 C20_8 1_555 1_555
C22_8 C21_8 1_555 1_555
H15_8 C22_8 1_555 1_555
C23_8 N16_4 1_555 1_555
H16_8 C23_8 1_555 1_555
C24_8 C16_7 1_555 1_555
C25_8 N9_8 1_555 1_555
C26_8 C17_8 1_555 1_555
C27_7 C26_8 1_555 1_555
H17_7 C27_7 1_555 1_555
C28_7 C27_7 1_555 1_555
H18_7 C28_7 1_555 1_555
C29_7 C11_8 1_555 1_555
C30_8 C13_8 1_555 1_555
O8_8 Fe6_2 1_555 1_555
H23_8 O8_8 1_555 1_555
H24_8 O8_8 1_555 1_555
N15_8 Fe6_2 1_555 1_555
C9_8 C10_8 1_555 1_555
C17_8 C30_8 1_555 1_555
N9_8 C24_8 1_555 1_555
C22_8 C23_8 1_555 1_555
C25_8 C26_8 1_555 1_555
C28_7 C29_7 1_555 1_555
C29_7 C30_8 1_555 1_555
Pt1_7 C1_7 1_555 1_555
Pt2_7 C4_5 1_555 1_555
Fe4_6 O4_5 1_555 1_555
O4_5 H3_5 1_555 1_555
N13_6 C2_7 1_555 1_555
N2_5 C3_5 1_555 1_555
N3_7 Fe4_6 1_555 1_555
N4_5 Fe4_6 1_555 1_555
C1_7 N3_7 1_555 1_555
C2_7 Pt1_7 1_555 1_555
C3_5 Pt1_7 1_555 1_555
C4_5 N4_5 1_555 1_555
C5_5 Pt2_7 1_555 1_555
C18_5 O4_5 1_555 1_555
H10_5 C18_5 1_555 1_555
H11_5 C18_5 1_555 1_555
H12_5 C18_5 1_555 1_555
N10_3 C31_5 1_555 1_555
N15_2 C32_5 1_555 1_555
C31_5 Pt2_7 1_555 1_555
C32_5 Pt2_7 1_555 1_555
O7_5 Fe4_6 1_555 1_555
H19_5 O7_5 1_555 1_555
C33_5 O7_5 1_555 1_555
H20_5 C33_5 1_555 1_555
H21_5 C33_5 1_555 1_555
H22_5 C33_5 1_555 1_555
N12_5 C34_5 1_555 1_555
C34_5 Pt1_7 1_555 1_555
Fe4 N10_3 1_555 1_555
N14_3 Fe4_6 1_555 1_555
N15_5 C5_5 1_555 1_555
Pt1_8 C1_8 1_555 1_555
Pt2_8 C4_6 1_555 1_555
N13_4 C2_8 1_555 1_555
N2_6 C3_6 1_555 1_555
N3_8 Fe4_4 1_555 1_555
N4_6 Fe4_4 1_555 1_555
C1_8 N3_8 1_555 1_555
C2_8 Pt1_8 1_555 1_555
C3_6 Pt1_8 1_555 1_555
C4_6 N4_6 1_555 1_555
N15 C32_6 1_555 1_555
C32_6 Pt2_8 1_555 1_555
O7_6 Fe4_4 1_555 1_555
H19_6 O7_6 1_555 1_555
C33_6 O7_6 1_555 1_555
H20_6 C33_6 1_555 1_555
H21_6 C33_6 1_555 1_555
H22_6 C33_6 1_555 1_555
Pt1_9 C1_9 1_555 1_555
Fe4_5 O4_6 1_555 1_555
O4_6 H3_6 1_555 1_555
N13_5 C2_9 1_555 1_555
N3_9 Fe4_5 1_555 1_555
C1_9 N3_9 1_555 1_555
C2_9 Pt1_9 1_555 1_555
C18_6 O4_6 1_555 1_555
H10_6 C18_6 1_555 1_555
H11_6 C18_6 1_555 1_555
H12_6 C18_6 1_555 1_555
N12_6 C34_6 1_555 1_555
C34_6 Pt1_9 1_555 1_555
N14_4 Fe4_5 1_555 1_555
C5_6 Pt2_9 1_555 1_555
N10_4 C31_6 1_555 1_555
C31_6 Pt2_9 1_555 1_555
Fe4_2 N10_4 1_555 1_555
N15_6 C5_6 1_555 1_555
N13_2 C2_10 1_555 1_555
N12_7 C34_7 1_555 1_555
N13_3 C2_11 1_555 1_555
N2_7 C3_7 1_555 1_555
Pt1_10 C1_10 1_555 1_555
Fe4_2 O4_7 1_555 1_555
O4_7 H3_7 1_555 1_555
N3_10 Fe4_2 1_555 1_555
C1_10 N3_10 1_555 1_555
C18_7 O4_7 1_555 1_555
H10_7 C18_7 1_555 1_555
H11_7 C18_7 1_555 1_555
H12_7 C18_7 1_555 1_555
Pt1_11 C1_11 1_555 1_555
Pt2_10 C4_7 1_555 1_555
N3_11 Fe4_3 1_555 1_555
N4_7 Fe4_3 1_555 1_555
C1_11 N3_11 1_555 1_555
C4_7 N4_7 1_555 1_555
C5_7 Pt2_10 1_555 1_555
N14_4 C31_7 1_555 1_555
N15_4 C32_7 1_555 1_555
C31_7 Pt2_10 1_555 1_555
C32_7 Pt2_10 1_555 1_555
O7_7 Fe4_3 1_555 1_555
H19_7 O7_7 1_555 1_555
C33_7 O7_7 1_555 1_555
H20_7 C33_7 1_555 1_555
H21_7 C33_7 1_555 1_555
H22_7 C33_7 1_555 1_555
N15_7 C5_7 1_555 1_555
C5_8 Pt2_11 1_555 1_555
N14_3 C31_8 1_555 1_555
C31_8 Pt2_11 1_555 1_555
N15_8 C5_8 1_555 1_555
Pt1_12 C1_12 1_555 1_555
Pt2_12 C4_8 1_555 1_555
Fe4 O4_8 1_555 1_555
O4_8 H3_8 1_555 1_555
N3_12 Fe4 1_555 1_555
N4_8 Fe4 1_555 1_555
C1_12 N3_12 1_555 1_555
C4_8 N4_8 1_555 1_555
C18_8 O4_8 1_555 1_555
H10_8 C18_8 1_555 1_555
H11_8 C18_8 1_555 1_555
H12_8 C18_8 1_555 1_555
N15_3 C32_8 1_555 1_555
C32_8 Pt2_12 1_555 1_555
O7_8 Fe4 1_555 1_555
H19_8 O7_8 1_555 1_555
C33_8 O7_8 1_555 1_555
H20_8 C33_8 1_555 1_555
H21_8 C33_8 1_555 1_555
H22_8 C33_8 1_555 1_555
N13 C2_12 1_555 1_555
N2_8 C3_8 1_555 1_555
N12_8 C34_8 1_555 1_555
H8_8 C14_8 1_555 1_555
C15_8 C14_8 1_555 1_555
H9_8 C15_8 1_555 1_555
C16_8 C15_8 1_555 1_555
H17_8 C27_8 1_555 1_555
C28_8 C27_8 1_555 1_555
H18_8 C28_8 1_555 1_555
C28_8 C29_8 1_555 1_555

#END
