
###############################################################################
#
# This file contains modified crystal structure data generated from the
# MOF subset of the Cambridge Structural Database (CSD) v543 
# hosted by the Cambridge Crystallographic Data Centre (CCDC).
#
# This work is licensed under the Creative Commons
# Attribution-NonCommercial-ShareAlike 4.0 International License.
# To view a copy of this license, visit
# http://creativecommons.org/licenses/by-nc-sa/4.0/
# or send a letter to
# Creative Commons, PO Box 1866, Mountain View, CA 94042, USA.
#
# CIF created using the CSD Python API on 29 September 2022
# The structure has been converted into the P1 space group
# The structure has a 3D framework
# The original CSD entry BOQVOT is in the monoclinic crystal system
# The framework has been calculated to contain at least 10.0% void space
# The void calculation uses a probe of radius 1.32A, grid spacing 0.4
#
###############################################################################

data_BOQVOT
_chemical_formula_moiety         '(C128 H80 Cd6 N30 O32)n'
_symmetry_cell_setting           triclinic
_symmetry_space_group_name_H-M   'P 1'
_symmetry_Int_Tables_number      1
_space_group_name_Hall           'P 1'
loop_
_symmetry_equiv_pos_site_id
_symmetry_equiv_pos_as_xyz
1 x,y,z
_cell_length_a                   20.351(4)
_cell_length_b                   11.855(2)
_cell_length_c                   14.893(3)
_cell_angle_alpha                90
_cell_angle_beta                 102.53(3)
_cell_angle_gamma                90
_cell_volume                     3507.52
loop_
_atom_site_label
_atom_site_type_symbol
_atom_site_fract_x
_atom_site_fract_y
_atom_site_fract_z
N8 N 0.4274(3) 0.0792(4) 0.9097(3)
C11 C 0.0060(4) 0.1946(5) 0.8927(5)
H4 H 0.0300 0.2408 0.8608
H7 H 0.1821 0.0295 0.9100
C31 C 0.3791(3) 0.1262(5) 0.9420(5)
H11 H 0.3861 0.1986 0.9663
C32 C 0.3184(3) 0.0740(4) 0.9421(4)
H12 H 0.2851 0.1113 0.9645
Cd4 Cd 0.532931(15) 0.16972(3) 0.930520(19)
N6 N 0.3465(2) 0.8058(4) 0.1566(4)
C13 C 0.0484(3) 0.9886(5) 0.1757(5)
C14 C 0.1057(3) 0.9295(4) 0.1676(4)
C15 C 0.1645(3) 0.9856(4) 0.1641(4)
C18 C 0.2278(3) 0.9246(4) 0.1599(4)
C19 C 0.2317(3) 0.8076(5) 0.1659(6)
C20 C 0.2907(4) 0.7531(5) 0.1650(6)
C21 C 0.3429(3) 0.9168(5) 0.1497(4)
C22 C 0.2864(3) 0.9786(4) 0.1514(5)
H13 H 0.0102 0.9474 0.1790
H14 H 0.1045 0.8506 0.1647
H17 H 0.1937 0.7656 0.1703
H18 H 0.2916 0.6738 0.1701
H19 H 0.3815 0.9550 0.1423
Cd7 Cd 0.442170(16) 0.69535(3) 0.17226(2)
O8 O 0.88018(19) 0.0384(3) 0.1090(3)
N4 N 0.9462(3) 0.1781(3) 0.0138(4)
C12 C 0.8821(3) 0.0093(4) 0.0285(4)
Cd6 Cd 0.942170(16) 0.19535(3) 0.17226(2)
O10 O 0.91654(19) 0.1155(3) 0.3007(2)
N11 N 0.8465(2) 0.3058(4) 0.1566(4)
O5 O 0.98295(19) 0.8396(3) 0.9370(3)
O6 O 0.91654(19) 0.8845(3) 0.8007(2)
O7 O 0.8481(2) 0.9338(4) 0.9831(3)
C7 C 0.9495(3) 0.9055(4) 0.8798(4)
Cd5 Cd 0.942170(16) 0.80465(3) 0.67226(2)
N12 N 0.9274(3) 0.5792(4) 0.9097(3)
N6_2 N 0.3465(2) 0.1942(4) 0.6566(4)
C13_2 C 0.0484(3) 0.0114(5) 0.6757(5)
C14_2 C 0.1057(3) 0.0705(4) 0.6676(4)
C15_2 C 0.1645(3) 0.0144(4) 0.6641(4)
C18_2 C 0.2278(3) 0.0754(4) 0.6599(4)
C19_2 C 0.2317(3) 0.1924(5) 0.6659(6)
C20_2 C 0.2907(4) 0.2469(5) 0.6650(6)
C21_2 C 0.3429(3) 0.0832(5) 0.6497(4)
C22_2 C 0.2864(3) 0.0214(4) 0.6514(5)
H13_2 H 0.0102 0.0526 0.6790
H14_2 H 0.1045 0.1494 0.6647
H17_2 H 0.1937 0.2344 0.6703
H18_2 H 0.2916 0.3262 0.6701
H19_2 H 0.3815 0.0450 0.6423
Cd7_2 Cd 0.442170(16) 0.30465(3) 0.67226(2)
N8_2 N 0.4274(3) 0.9208(4) 0.4097(3)
C11_2 C 0.0060(4) 0.8054(5) 0.3927(5)
H4_2 H 0.0300 0.7592 0.3608
H7_2 H 0.1821 0.9705 0.4100
C31_2 C 0.3791(3) 0.8738(5) 0.4420(5)
H11_2 H 0.3861 0.8014 0.4663
C32_2 C 0.3184(3) 0.9260(4) 0.4421(4)
H12_2 H 0.2851 0.8887 0.4645
Cd4_2 Cd 0.532931(15) 0.83028(3) 0.430520(19)
O5_2 O 0.98295(19) 0.1604(3) 0.4370(3)
O7_2 O 0.8481(2) 0.0662(4) 0.4831(3)
C7_2 C 0.9495(3) 0.0945(4) 0.3798(4)
O11 O 0.88018(19) 0.9616(3) 0.6090(3)
N10 N 0.9462(3) 0.8219(3) 0.5138(4)
N11_2 N 0.8465(2) 0.6942(4) 0.6566(4)
N12_2 N 0.9274(3) 0.4208(4) 0.4097(3)
N3 N 0.9929(3) 0.9107(4) 0.3647(3)
C8 C 0.9549(3) 0.9713(4) 0.4087(4)
C9 C 0.9291(3) 0.9273(4) 0.4810(4)
C10 C 0.9848(3) 0.7621(5) 0.4682(4)
H3 H 0.9977 0.6893 0.4879
C12_2 C 0.8821(3) 0.9907(4) 0.5285(4)
O1 O 0.5241(4) 0.1685(4) 0.0910(4)
O2 O 0.6108(3) 0.0647(4) 0.0728(3)
O8_2 O 0.38018(19) 0.5384(3) 0.1090(3)
N1 N 0.6326(2) 0.1611(4) 0.2684(3)
N4_2 N 0.4462(3) 0.6781(3) 0.0138(4)
C1 C 0.5721(4) 0.1052(5) 0.1192(4)
C2 C 0.5904(3) 0.0841(4) 0.2224(3)
C4 C 0.6247(3) 0.0679(4) 0.4040(4)
H1 H 0.6374 0.0647 0.4678
C5 C 0.6490(3) 0.1508(4) 0.3605(4)
H2 H 0.6782 0.2031 0.3947
C12_3 C 0.3821(3) 0.5093(4) 0.0285(4)
O5_3 O 0.48295(19) 0.3396(3) 0.9370(3)
O6_2 O 0.41654(19) 0.3845(3) 0.8007(2)
O7_3 O 0.3481(2) 0.4338(4) 0.9831(3)
N3_2 N 0.4929(3) 0.5893(4) 0.8647(3)
N7 N 0.6314(2) 0.2752(4) 0.9279(4)
C7_3 C 0.4495(3) 0.4055(4) 0.8798(4)
C8_2 C 0.4549(3) 0.5287(4) 0.9087(4)
C9_2 C 0.4291(3) 0.5727(4) 0.9810(4)
C10_2 C 0.4848(3) 0.7379(5) 0.9682(4)
H3_2 H 0.4977 0.8107 0.9879
C11_3 C 0.5060(4) 0.6946(5) 0.8927(5)
H4_3 H 0.5300 0.7408 0.8608
C23 C 0.6897(4) 0.2268(5) 0.9266(6)
H5 H 0.6919 0.1485 0.9303
C24 C 0.7477(3) 0.2843(5) 0.9202(5)
H6 H 0.7872 0.2450 0.9204
C25 C 0.7464(3) 0.3993(4) 0.9135(4)
C26 C 0.6856(3) 0.4513(5) 0.9138(5)
H7_3 H 0.6821 0.5295 0.9100
C27 C 0.6296(3) 0.3869(5) 0.9198(4)
H8 H 0.5889 0.4236 0.9182
C28 C 0.8081(3) 0.4646(4) 0.9079(4)
C29 C 0.8578(3) 0.4185(4) 0.8702(4)
H9 H 0.8521 0.3469 0.8441
C30 C 0.9158(3) 0.4777(5) 0.8709(4)
H10 H 0.9482 0.4458 0.8432
C31_3 C 0.8791(3) 0.6262(5) 0.9420(5)
H11_3 H 0.8861 0.6986 0.9663
C32_3 C 0.8184(3) 0.5740(4) 0.9421(4)
H12_3 H 0.7851 0.6113 0.9645
O9 O 0.50619(16) 0.1749(3) 0.7676(2)
N9 N 0.5829(2) 0.0108(3) 0.8600(3)
O3 O 0.5052(2) 0.9070(3) 0.1348(3)
O4 O 0.50619(16) 0.8251(3) 0.2676(2)
N2 N 0.5829(2) 0.9892(3) 0.3600(3)
N5 N 0.5458(2) 0.6011(4) 0.1787(4)
C3 C 0.5663(2) 0.9957(4) 0.2685(3)
C6 C 0.5225(3) 0.9034(4) 0.2184(4)
C13_3 C 0.5484(3) 0.4886(5) 0.1757(5)
C14_3 C 0.6057(3) 0.4295(4) 0.1676(4)
C15_3 C 0.6645(3) 0.4856(4) 0.1641(4)
C16 C 0.6619(3) 0.6032(4) 0.1673(5)
C17 C 0.6038(3) 0.6551(5) 0.1745(5)
C18_3 C 0.7278(3) 0.4246(4) 0.1599(4)
C19_3 C 0.7317(3) 0.3076(5) 0.1659(6)
C20_3 C 0.7907(4) 0.2531(5) 0.1650(6)
C21_3 C 0.8429(3) 0.4168(5) 0.1497(4)
C22_3 C 0.7864(3) 0.4786(4) 0.1514(5)
H13_3 H 0.5102 0.4474 0.1790
H14_3 H 0.6045 0.3506 0.1647
H15 H 0.6999 0.6449 0.1649
H16 H 0.6041 0.7332 0.1768
H17_3 H 0.6937 0.2656 0.1703
H18_3 H 0.7916 0.1738 0.1701
H19_3 H 0.8815 0.4550 0.1423
H20 H 0.7876 0.5564 0.1471
O10_2 O 0.41654(19) 0.6155(3) 0.3007(2)
O3_2 O 0.5052(2) 0.0930(3) 0.6348(3)
N5_2 N 0.5458(2) 0.3989(4) 0.6787(4)
C3_2 C 0.5663(2) 0.0043(4) 0.7685(3)
C6_2 C 0.5225(3) 0.0966(4) 0.7184(4)
C13_4 C 0.5484(3) 0.5114(5) 0.6757(5)
C14_4 C 0.6057(3) 0.5705(4) 0.6676(4)
C15_4 C 0.6645(3) 0.5144(4) 0.6641(4)
C16_2 C 0.6619(3) 0.3968(4) 0.6673(5)
C17_2 C 0.6038(3) 0.3449(5) 0.6745(5)
C18_4 C 0.7278(3) 0.5754(4) 0.6599(4)
C19_4 C 0.7317(3) 0.6924(5) 0.6659(6)
C20_4 C 0.7907(4) 0.7469(5) 0.6650(6)
C21_4 C 0.8429(3) 0.5832(5) 0.6497(4)
C22_4 C 0.7864(3) 0.5214(4) 0.6514(5)
H13_4 H 0.5102 0.5526 0.6790
H14_4 H 0.6045 0.6494 0.6647
H15_2 H 0.6999 0.3551 0.6649
H16_2 H 0.6041 0.2668 0.6768
H17_4 H 0.6937 0.7344 0.6703
H18_4 H 0.7916 0.8262 0.6701
H19_4 H 0.8815 0.5450 0.6423
H20_2 H 0.7876 0.4436 0.6471
O11_2 O 0.38018(19) 0.4616(3) 0.6090(3)
N10_2 N 0.4462(3) 0.3219(3) 0.5138(4)
O1_2 O 0.5241(4) 0.8315(4) 0.5910(4)
O2_2 O 0.6108(3) 0.9353(4) 0.5728(3)
O5_4 O 0.48295(19) 0.6604(3) 0.4370(3)
O7_4 O 0.3481(2) 0.5662(4) 0.4831(3)
N1_2 N 0.6326(2) 0.8389(4) 0.7684(3)
N3_3 N 0.4929(3) 0.4107(4) 0.3647(3)
N7_2 N 0.6314(2) 0.7248(4) 0.4279(4)
C1_2 C 0.5721(4) 0.8948(5) 0.6192(4)
C2_2 C 0.5904(3) 0.9159(4) 0.7224(3)
C4_2 C 0.6247(3) 0.9321(4) 0.9040(4)
H1_2 H 0.6374 0.9353 0.9678
C5_2 C 0.6490(3) 0.8492(4) 0.8605(4)
H2_2 H 0.6782 0.7969 0.8947
C7_4 C 0.4495(3) 0.5945(4) 0.3798(4)
C8_3 C 0.4549(3) 0.4713(4) 0.4087(4)
C9_3 C 0.4291(3) 0.4273(4) 0.4810(4)
C10_3 C 0.4848(3) 0.2621(5) 0.4682(4)
H3_3 H 0.4977 0.1893 0.4879
C11_4 C 0.5060(4) 0.3054(5) 0.3927(5)
H4_4 H 0.5300 0.2592 0.3608
C12_4 C 0.3821(3) 0.4907(4) 0.5285(4)
C23_2 C 0.6897(4) 0.7732(5) 0.4266(6)
H5_2 H 0.6919 0.8515 0.4303
C24_2 C 0.7477(3) 0.7157(5) 0.4202(5)
H6_2 H 0.7872 0.7550 0.4204
C25_2 C 0.7464(3) 0.6007(4) 0.4135(4)
C26_2 C 0.6856(3) 0.5487(5) 0.4138(5)
H7_4 H 0.6821 0.4705 0.4100
C27_2 C 0.6296(3) 0.6131(5) 0.4198(4)
H8_2 H 0.5889 0.5764 0.4182
C28_2 C 0.8081(3) 0.5354(4) 0.4079(4)
C29_2 C 0.8578(3) 0.5815(4) 0.3702(4)
H9_2 H 0.8521 0.6531 0.3441
C30_2 C 0.9158(3) 0.5223(5) 0.3709(4)
H10_2 H 0.9482 0.5542 0.3432
C31_4 C 0.8791(3) 0.3738(5) 0.4420(5)
H11_4 H 0.8861 0.3014 0.4663
C32_4 C 0.8184(3) 0.4260(4) 0.4421(4)
H12_4 H 0.7851 0.3887 0.4645
O1_3 O 0.0241(4) 0.6685(4) 0.0910(4)
O2_3 O 0.1108(3) 0.5647(4) 0.0728(3)
O3_3 O 0.0052(2) 0.4070(3) 0.1348(3)
O4_2 O 0.00619(16) 0.3251(3) 0.2676(2)
N1_3 N 0.1326(2) 0.6611(4) 0.2684(3)
N2_2 N 0.0829(2) 0.4892(3) 0.3600(3)
N5_3 N 0.0458(2) 0.1011(4) 0.1787(4)
C1_3 C 0.0721(4) 0.6052(5) 0.1192(4)
C2_3 C 0.0904(3) 0.5841(4) 0.2224(3)
C3_3 C 0.0663(2) 0.4957(4) 0.2685(3)
C4_3 C 0.1247(3) 0.5679(4) 0.4040(4)
H1_3 H 0.1374 0.5647 0.4678
C5_3 C 0.1490(3) 0.6508(4) 0.3605(4)
H2_3 H 0.1782 0.7031 0.3947
C6_3 C 0.0225(3) 0.4034(4) 0.2184(4)
C16_3 C 0.1619(3) 0.1032(4) 0.1673(5)
C17_3 C 0.1038(3) 0.1551(5) 0.1745(5)
H15_3 H 0.1999 0.1449 0.1649
H16_3 H 0.1041 0.2332 0.1768
H20_3 H 0.2876 0.0564 0.1471
Cd3 Cd 0.032931(15) 0.33028(3) 0.430520(19)
Cd1 Cd 0.032931(15) 0.66972(3) 0.930520(19)
N7_3 N 0.1314(2) 0.7752(4) 0.9279(4)
C23_3 C 0.1897(4) 0.7268(5) 0.9266(6)
H5_3 H 0.1919 0.6485 0.9303
C24_3 C 0.2477(3) 0.7843(5) 0.9202(5)
H6_3 H 0.2872 0.7450 0.9204
C25_3 C 0.2464(3) 0.8993(4) 0.9135(4)
C26_3 C 0.1856(3) 0.9513(5) 0.9138(5)
C27_3 C 0.1296(3) 0.8869(5) 0.9198(4)
H8_3 H 0.0889 0.9236 0.9182
C28_3 C 0.3081(3) 0.9646(4) 0.9079(4)
C29_3 C 0.3578(3) 0.9185(4) 0.8702(4)
H9_3 H 0.3521 0.8469 0.8441
C30_3 C 0.4158(3) 0.9777(5) 0.8709(4)
H10_3 H 0.4482 0.9458 0.8432
O9_2 O 0.00619(16) 0.6749(3) 0.7676(2)
N9_2 N 0.0829(2) 0.5108(3) 0.8600(3)
O1_4 O 0.0241(4) 0.3315(4) 0.5910(4)
O2_4 O 0.1108(3) 0.4353(4) 0.5728(3)
O3_4 O 0.0052(2) 0.5930(3) 0.6348(3)
N1_4 N 0.1326(2) 0.3389(4) 0.7684(3)
N5_4 N 0.0458(2) 0.8989(4) 0.6787(4)
N7_4 N 0.1314(2) 0.2248(4) 0.4279(4)
C1_4 C 0.0721(4) 0.3948(5) 0.6192(4)
C2_4 C 0.0904(3) 0.4159(4) 0.7224(3)
C3_4 C 0.0663(2) 0.5043(4) 0.7685(3)
C4_4 C 0.1247(3) 0.4321(4) 0.9040(4)
H1_4 H 0.1374 0.4353 0.9678
C5_4 C 0.1490(3) 0.3492(4) 0.8605(4)
H2_4 H 0.1782 0.2969 0.8947
C6_4 C 0.0225(3) 0.5966(4) 0.7184(4)
C16_4 C 0.1619(3) 0.8968(4) 0.6673(5)
C17_4 C 0.1038(3) 0.8449(5) 0.6745(5)
C23_4 C 0.1897(4) 0.2732(5) 0.4266(6)
H5_4 H 0.1919 0.3515 0.4303
C24_4 C 0.2477(3) 0.2157(5) 0.4202(5)
H6_4 H 0.2872 0.2550 0.4204
C25_4 C 0.2464(3) 0.1007(4) 0.4135(4)
C26_4 C 0.1856(3) 0.0487(5) 0.4138(5)
C27_4 C 0.1296(3) 0.1131(5) 0.4198(4)
H8_4 H 0.0889 0.0764 0.4182
C28_4 C 0.3081(3) 0.0354(4) 0.4079(4)
C29_4 C 0.3578(3) 0.0815(4) 0.3702(4)
H9_4 H 0.3521 0.1531 0.3441
C30_4 C 0.4158(3) 0.0223(5) 0.3709(4)
H10_4 H 0.4482 0.0542 0.3432
H15_4 H 0.1999 0.8551 0.6649
H16_4 H 0.1041 0.7668 0.6768
H20_4 H 0.2876 0.9436 0.6471
N3_4 N 0.9929(3) 0.0893(4) 0.8647(3)
C8_4 C 0.9549(3) 0.0287(4) 0.9087(4)
C9_4 C 0.9291(3) 0.0727(4) 0.9810(4)
C10_4 C 0.9848(3) 0.2379(5) 0.9682(4)
H3_4 H 0.9977 0.3107 0.9879
loop_
_geom_bond_atom_site_label_1
_geom_bond_atom_site_label_2
_geom_bond_site_symmetry_1
_geom_bond_site_symmetry_2
H4 C11 1_555 1_555
C31 N8 1_555 1_555
H11 C31 1_555 1_555
H12 C32 1_555 1_555
Cd4 N8 1_555 1_555
C31 C32 1_555 1_555
N6 C20 1_555 1_555
C14 C13 1_555 1_555
C15 C14 1_555 1_555
C18 C15 1_555 1_555
C19 C18 1_555 1_555
C20 C19 1_555 1_555
C21 N6 1_555 1_555
C22 C18 1_555 1_555
H13 C13 1_555 1_555
H14 C14 1_555 1_555
H17 C19 1_555 1_555
H18 C20 1_555 1_555
H19 C21 1_555 1_555
Cd7 N6 1_555 1_555
C21 C22 1_555 1_555
O8 C12 1_555 1_555
Cd6 O8 1_555 1_555
N4 Cd6 1_555 1_555
O10 Cd6 1_555 1_555
N11 Cd6 1_555 1_555
O6 C7 1_555 1_555
C7 O5 1_555 1_555
Cd5 O6 1_555 1_555
N6_2 C20_2 1_555 1_555
C14_2 C13_2 1_555 1_555
C15_2 C14_2 1_555 1_555
C18_2 C15_2 1_555 1_555
C19_2 C18_2 1_555 1_555
C20_2 C19_2 1_555 1_555
C21_2 N6_2 1_555 1_555
C22_2 C18_2 1_555 1_555
H13_2 C13_2 1_555 1_555
H14_2 C14_2 1_555 1_555
H17_2 C19_2 1_555 1_555
H18_2 C20_2 1_555 1_555
H19_2 C21_2 1_555 1_555
Cd7_2 N6_2 1_555 1_555
C21_2 C22_2 1_555 1_555
H4_2 C11_2 1_555 1_555
C31_2 N8_2 1_555 1_555
H11_2 C31_2 1_555 1_555
H12_2 C32_2 1_555 1_555
Cd4_2 N8_2 1_555 1_555
C31_2 C32_2 1_555 1_555
O10 C7_2 1_555 1_555
C7_2 O5_2 1_555 1_555
O11 Cd5 1_555 1_555
N10 Cd5 1_555 1_555
N11_2 Cd5 1_555 1_555
O11 C12_2 1_555 1_555
N3 C8 1_555 1_555
N10 C9 1_555 1_555
C9 C8 1_555 1_555
C10 N10 1_555 1_555
H3 C10 1_555 1_555
C12_2 C9 1_555 1_555
O1 C1 1_555 1_555
O8_2 C12_3 1_555 1_555
N1 C2 1_555 1_555
C1 O2 1_555 1_555
C2 C1 1_555 1_555
H1 C4 1_555 1_555
C5 N1 1_555 1_555
H2 C5 1_555 1_555
Cd7 O8_2 1_555 1_555
N4_2 Cd7 1_555 1_555
C4 C5 1_555 1_555
O5_3 Cd4 1_555 1_555
O6_2 C7_3 1_555 1_555
N3_2 C8_2 1_555 1_555
N7 Cd4 1_555 1_555
N12 C30 1_555 1_555
C7_3 O5_3 1_555 1_555
C8_2 C7_3 1_555 1_555
C9_2 C8_2 1_555 1_555
H3_2 C10_2 1_555 1_555
C11_3 N3_2 1_555 1_555
H4_3 C11_3 1_555 1_555
C23 N7 1_555 1_555
H5 C23 1_555 1_555
C24 C23 1_555 1_555
H6 C24 1_555 1_555
C25 C24 1_555 1_555
C26 C25 1_555 1_555
H7_3 C26 1_555 1_555
C27 N7 1_555 1_555
H8 C27 1_555 1_555
C28 C25 1_555 1_555
C29 C28 1_555 1_555
H9 C29 1_555 1_555
C30 C29 1_555 1_555
H10 C30 1_555 1_555
C31_3 N12 1_555 1_555
H11_3 C31_3 1_555 1_555
C32_3 C28 1_555 1_555
H12_3 C32_3 1_555 1_555
Cd7_2 O6_2 1_555 1_555
O9 Cd4 1_555 1_555
N9 Cd4 1_555 1_555
C10_2 C11_3 1_555 1_555
C26 C27 1_555 1_555
C31_3 C32_3 1_555 1_555
Cd7_2 O9 1_555 1_555
Cd7 O4 1_555 1_555
O3 C6 1_555 1_555
O4 C6 1_555 1_555
N2 C3 1_555 1_555
N5 Cd7 1_555 1_555
N11 C20_3 1_555 1_555
C6 C3 1_555 1_555
C13_3 N5 1_555 1_555
C14_3 C13_3 1_555 1_555
C15_3 C14_3 1_555 1_555
C16 C15_3 1_555 1_555
C17 N5 1_555 1_555
C18_3 C15_3 1_555 1_555
C19_3 C18_3 1_555 1_555
C20_3 C19_3 1_555 1_555
C21_3 N11 1_555 1_555
C22_3 C18_3 1_555 1_555
H13_3 C13_3 1_555 1_555
H14_3 C14_3 1_555 1_555
H15 C16 1_555 1_555
H16 C17 1_555 1_555
H17_3 C19_3 1_555 1_555
H18_3 C20_3 1_555 1_555
H19_3 C21_3 1_555 1_555
H20 C22_3 1_555 1_555
Cd4_2 O4 1_555 1_555
O10_2 Cd7 1_555 1_555
N2 Cd4_2 1_555 1_555
C16 C17 1_555 1_555
C21_3 C22_3 1_555 1_555
O3_2 C6_2 1_555 1_555
O9 C6_2 1_555 1_555
N9 C3_2 1_555 1_555
N5_2 Cd7_2 1_555 1_555
N11_2 C20_4 1_555 1_555
C6_2 C3_2 1_555 1_555
C13_4 N5_2 1_555 1_555
C14_4 C13_4 1_555 1_555
C15_4 C14_4 1_555 1_555
C16_2 C15_4 1_555 1_555
C17_2 N5_2 1_555 1_555
C18_4 C15_4 1_555 1_555
C19_4 C18_4 1_555 1_555
C20_4 C19_4 1_555 1_555
C21_4 N11_2 1_555 1_555
C22_4 C18_4 1_555 1_555
H13_4 C13_4 1_555 1_555
H14_4 C14_4 1_555 1_555
H15_2 C16_2 1_555 1_555
H16_2 C17_2 1_555 1_555
H17_4 C19_4 1_555 1_555
H18_4 C20_4 1_555 1_555
H19_4 C21_4 1_555 1_555
H20_2 C22_4 1_555 1_555
O11_2 Cd7_2 1_555 1_555
N10_2 Cd7_2 1_555 1_555
C16_2 C17_2 1_555 1_555
C21_4 C22_4 1_555 1_555
Cd4_2 O1_2 1_555 1_555
O1_2 C1_2 1_555 1_555
O2_2 Cd4_2 1_555 1_555
O5_4 Cd4_2 1_555 1_555
O10_2 C7_4 1_555 1_555
O7_4 C12_4 1_555 1_555
O11_2 C12_4 1_555 1_555
N1_2 C2_2 1_555 1_555
N3_3 C8_3 1_555 1_555
N10_2 C9_3 1_555 1_555
N7_2 Cd4_2 1_555 1_555
N12_2 C30_2 1_555 1_555
C1_2 O2_2 1_555 1_555
C2_2 C1_2 1_555 1_555
H1_2 C4_2 1_555 1_555
C5_2 N1_2 1_555 1_555
H2_2 C5_2 1_555 1_555
C7_4 O5_4 1_555 1_555
C8_3 C7_4 1_555 1_555
C9_3 C8_3 1_555 1_555
C10_3 N10_2 1_555 1_555
H3_3 C10_3 1_555 1_555
C11_4 N3_3 1_555 1_555
H4_4 C11_4 1_555 1_555
C12_4 C9_3 1_555 1_555
C23_2 N7_2 1_555 1_555
H5_2 C23_2 1_555 1_555
C24_2 C23_2 1_555 1_555
H6_2 C24_2 1_555 1_555
C25_2 C24_2 1_555 1_555
C26_2 C25_2 1_555 1_555
H7_4 C26_2 1_555 1_555
C27_2 N7_2 1_555 1_555
H8_2 C27_2 1_555 1_555
C28_2 C25_2 1_555 1_555
C29_2 C28_2 1_555 1_555
H9_2 C29_2 1_555 1_555
C30_2 C29_2 1_555 1_555
H10_2 C30_2 1_555 1_555
C31_4 N12_2 1_555 1_555
H11_4 C31_4 1_555 1_555
C32_4 C28_2 1_555 1_555
H12_4 C32_4 1_555 1_555
C4_2 C5_2 1_555 1_555
C10_3 C11_4 1_555 1_555
C26_2 C27_2 1_555 1_555
C31_4 C32_4 1_555 1_555
O1_3 C1_3 1_555 1_555
O3_3 C6_3 1_555 1_555
O4_2 C6_3 1_555 1_555
N1_3 C2_3 1_555 1_555
N2_2 C3_3 1_555 1_555
C1_3 O2_3 1_555 1_555
C2_3 C1_3 1_555 1_555
C3_3 C2_3 1_555 1_555
C4_3 N2_2 1_555 1_555
H1_3 C4_3 1_555 1_555
C5_3 N1_3 1_555 1_555
H2_3 C5_3 1_555 1_555
C6_3 C3_3 1_555 1_555
C17_3 N5_3 1_555 1_555
H15_3 C16_3 1_555 1_555
H16_3 C17_3 1_555 1_555
Cd3 O4_2 1_555 1_555
N2_2 Cd3 1_555 1_555
C4_3 C5_3 1_555 1_555
C16_3 C17_3 1_555 1_555
N7_3 Cd1 1_555 1_555
C23_3 N7_3 1_555 1_555
H5_3 C23_3 1_555 1_555
C24_3 C23_3 1_555 1_555
H6_3 C24_3 1_555 1_555
C25_3 C24_3 1_555 1_555
C26_3 C25_3 1_555 1_555
C27_3 N7_3 1_555 1_555
H8_3 C27_3 1_555 1_555
C28_3 C25_3 1_555 1_555
C29_3 C28_3 1_555 1_555
H9_3 C29_3 1_555 1_555
C30_3 C29_3 1_555 1_555
H10_3 C30_3 1_555 1_555
O9_2 Cd1 1_555 1_555
N9_2 Cd1 1_555 1_555
C26_3 C27_3 1_555 1_555
Cd3 O1_4 1_555 1_555
O1_4 C1_4 1_555 1_555
O2_4 Cd3 1_555 1_555
O3_4 C6_4 1_555 1_555
O9_2 C6_4 1_555 1_555
N1_4 C2_4 1_555 1_555
N9_2 C3_4 1_555 1_555
N7_4 Cd3 1_555 1_555
C1_4 O2_4 1_555 1_555
C2_4 C1_4 1_555 1_555
C3_4 C2_4 1_555 1_555
C4_4 N9_2 1_555 1_555
H1_4 C4_4 1_555 1_555
C5_4 N1_4 1_555 1_555
H2_4 C5_4 1_555 1_555
C6_4 C3_4 1_555 1_555
C17_4 N5_4 1_555 1_555
C23_4 N7_4 1_555 1_555
H5_4 C23_4 1_555 1_555
C24_4 C23_4 1_555 1_555
H6_4 C24_4 1_555 1_555
C25_4 C24_4 1_555 1_555
C26_4 C25_4 1_555 1_555
C27_4 N7_4 1_555 1_555
H8_4 C27_4 1_555 1_555
C28_4 C25_4 1_555 1_555
C29_4 C28_4 1_555 1_555
H9_4 C29_4 1_555 1_555
C30_4 C29_4 1_555 1_555
H10_4 C30_4 1_555 1_555
H15_4 C16_4 1_555 1_555
H16_4 C17_4 1_555 1_555
C4_4 C5_4 1_555 1_555
C16_4 C17_4 1_555 1_555
C26_4 C27_4 1_555 1_555
N3_4 C8_4 1_555 1_555
C9_4 C8_4 1_555 1_555
H3_4 C10_4 1_555 1_555

#END
