
###############################################################################
#
# This file contains modified crystal structure data generated from the
# MOF subset of the Cambridge Structural Database (CSD) v543 
# hosted by the Cambridge Crystallographic Data Centre (CCDC).
#
# This work is licensed under the Creative Commons
# Attribution-NonCommercial-ShareAlike 4.0 International License.
# To view a copy of this license, visit
# http://creativecommons.org/licenses/by-nc-sa/4.0/
# or send a letter to
# Creative Commons, PO Box 1866, Mountain View, CA 94042, USA.
#
# CIF created using the CSD Python API on 29 September 2022
# The structure has been converted into the P1 space group
# The structure has a 3D framework
# The original CSD entry BORKUR is in the orthorhombic crystal system
# The framework has been calculated to contain at least 10.0% void space
# The void calculation uses a probe of radius 1.32A, grid spacing 0.4
#
###############################################################################

data_BORKUR
_chemical_formula_moiety         '(C448 H256 Co16 N96 S160)n'
_symmetry_cell_setting           triclinic
_symmetry_space_group_name_H-M   'P 1'
_symmetry_Int_Tables_number      1
_space_group_name_Hall           'P 1'
loop_
_symmetry_equiv_pos_site_id
_symmetry_equiv_pos_as_xyz
1 x,y,z
_cell_length_a                   13.1462(8)
_cell_length_b                   33.0327(17)
_cell_length_c                   40.021(3)
_cell_angle_alpha                90
_cell_angle_beta                 90
_cell_angle_gamma                90
_cell_volume                     17379.3
loop_
_atom_site_label
_atom_site_type_symbol
_atom_site_fract_x
_atom_site_fract_y
_atom_site_fract_z
C10 C 0.0417(3) 0.54106(11) 0.23654(10)
H5 H 0.075180 0.518901 0.226133
C12 C 0.0860(3) 0.56074(11) 0.26300(9)
H7 H 0.150134 0.551130 0.270498
N2 N 0.04646(17) 0.59175(7) 0.27870(6)
C28 C 0.0682(2) 0.43381(9) 0.07336(8)
S10 S 0.17753(8) 0.45670(4) 0.07618(3)
Co4 Co 0.125000 0.625000 0.31878(2)
C1 C 0.6484(2) 0.60705(8) 0.16833(7)
C2 C 0.6893(2) 0.53342(9) 0.18375(7)
C3 C 0.7796(2) 0.55236(8) 0.18340(7)
C4 C 0.7202(2) 0.45635(8) 0.15946(7)
C5 C 0.7161(2) 0.41452(8) 0.16052(7)
H1 H 0.686210 0.400964 0.179010
C6 C 0.7564(2) 0.39291(8) 0.13413(7)
H2 H 0.753062 0.364201 0.135026
C7 C 0.8021(2) 0.45068(8) 0.10711(7)
H3 H 0.832458 0.463813 0.088494
C8 C 0.7634(2) 0.47432(8) 0.13207(7)
H4 H 0.766363 0.502984 0.130434
C9 C 0.9478(2) 0.55396(8) 0.22525(7)
C11 C 0.9036(2) 0.58631(10) 0.24130(8)
H6 H 0.838687 0.596089 0.234663
C13 C 0.9559(2) 0.60416(10) 0.26726(8)
H8 H 0.925523 0.626912 0.277801
C14 C 0.6818(2) 0.31619(9) 0.07336(8)
N1 N 0.79993(16) 0.40999(6) 0.10728(6)
N3 N 0.75796(18) 0.33297(7) 0.07037(6)
S1 S 0.58327(6) 0.56059(2) 0.16963(2)
S2 S 0.78113(6) 0.60185(2) 0.16729(2)
S3 S 0.66827(6) 0.48254(2) 0.19426(2)
S4 S 0.89426(6) 0.52734(3) 0.19131(2)
S5 S 0.57247(8) 0.29330(4) 0.07618(3)
Co1 Co 0.875000 0.375000 0.06878(2)
C15 C 0.6016(2) 0.64295(8) 0.16833(7)
C16 C 0.5607(2) 0.71658(9) 0.18375(7)
C17 C 0.4704(2) 0.69764(8) 0.18340(7)
C18 C 0.5298(2) 0.79365(8) 0.15946(7)
C19 C 0.5339(2) 0.83548(8) 0.16052(7)
H9 H 0.563790 0.849036 0.179010
C20 C 0.4936(2) 0.85709(8) 0.13413(7)
H10 H 0.496938 0.885799 0.135026
C21 C 0.4479(2) 0.79932(8) 0.10711(7)
H11 H 0.417542 0.786187 0.088494
C22 C 0.4866(2) 0.77568(8) 0.13207(7)
H12 H 0.483637 0.747016 0.130434
C23 C 0.3022(2) 0.69604(8) 0.22525(7)
C24 C 0.2083(3) 0.70894(11) 0.23654(10)
H13 H 0.174820 0.731099 0.226133
C25 C 0.3464(2) 0.66369(10) 0.24130(8)
H14 H 0.411313 0.653911 0.234663
C26 C 0.1640(3) 0.68926(11) 0.26300(9)
H15 H 0.099866 0.698870 0.270498
C27 C 0.2941(2) 0.64584(10) 0.26726(8)
H16 H 0.324477 0.623088 0.277801
N4 N 0.45007(16) 0.84001(6) 0.10728(6)
N5 N 0.20354(17) 0.65825(7) 0.27870(6)
S6 S 0.66673(6) 0.68941(2) 0.16963(2)
S7 S 0.46887(6) 0.64815(2) 0.16729(2)
S8 S 0.58173(6) 0.76746(2) 0.19426(2)
S9 S 0.35574(6) 0.72266(3) 0.19131(2)
N6 N 0.99204(18) 0.41703(7) 0.07037(6)
N7 N 0.95007(16) 0.34001(6) 0.10728(6)
N8 N 0.95354(17) 0.34175(7) 0.02870(6)
N9 N 0.79646(17) 0.40825(7) 0.02870(6)
Co2 Co 0.375000 0.875000 0.06878(2)
C1_2 C 0.1016(2) 0.14295(8) 0.16833(7)
C2_2 C 0.0607(2) 0.21658(9) 0.18375(7)
C4_2 C 0.0298(2) 0.29365(8) 0.15946(7)
C5_2 C 0.0339(2) 0.33548(8) 0.16052(7)
H1_2 H 0.063790 0.349036 0.179010
S1_2 S 0.16673(6) 0.18941(2) 0.16963(2)
S3_2 S 0.08173(6) 0.26746(2) 0.19426(2)
C15_2 C 0.1484(2) 0.10705(8) 0.16833(7)
C16_2 C 0.1893(2) 0.03342(9) 0.18375(7)
C17_2 C 0.2796(2) 0.05236(8) 0.18340(7)
H12_2 H 0.266363 0.002984 0.130434
C23_2 C 0.4478(2) 0.05396(8) 0.22525(7)
C24_2 C 0.5417(3) 0.04106(11) 0.23654(10)
H13_2 H 0.575180 0.018901 0.226133
C25_2 C 0.4036(2) 0.08631(10) 0.24130(8)
H14_2 H 0.338687 0.096089 0.234663
C26_2 C 0.5860(3) 0.06074(11) 0.26300(9)
H15_2 H 0.650134 0.051130 0.270498
C27_2 C 0.4559(2) 0.10416(10) 0.26726(8)
H16_2 H 0.425523 0.126912 0.277801
N5_2 N 0.54646(17) 0.09175(7) 0.27870(6)
S6_2 S 0.08327(6) 0.06059(2) 0.16963(2)
S7_2 S 0.28113(6) 0.10185(2) 0.16729(2)
S9_2 S 0.39426(6) 0.02734(3) 0.19131(2)
Co3 Co 0.625000 0.125000 0.31878(2)
C18_2 C 0.2202(2) 0.95635(8) 0.15946(7)
C19_2 C 0.2161(2) 0.91452(8) 0.16052(7)
H9_2 H 0.186210 0.900964 0.179010
C20_2 C 0.2564(2) 0.89291(8) 0.13413(7)
H10_2 H 0.253062 0.864201 0.135026
C21_2 C 0.3021(2) 0.95068(8) 0.10711(7)
H11_2 H 0.332458 0.963813 0.088494
C22_2 C 0.2634(2) 0.97432(8) 0.13207(7)
N4_2 N 0.29993(16) 0.90999(6) 0.10728(6)
S8_2 S 0.16827(6) 0.98254(2) 0.19426(2)
C3_2 C 0.9704(2) 0.19764(8) 0.18340(7)
C6_2 C 0.9936(2) 0.35709(8) 0.13413(7)
H2_2 H 0.996938 0.385799 0.135026
C7_2 C 0.9479(2) 0.29932(8) 0.10711(7)
H3_2 H 0.917542 0.286187 0.088494
C8_2 C 0.9866(2) 0.27568(8) 0.13207(7)
H4_2 H 0.983637 0.247016 0.130434
C9_2 C 0.8022(2) 0.19604(8) 0.22525(7)
C10_2 C 0.7083(3) 0.20894(11) 0.23654(10)
H5_2 H 0.674820 0.231099 0.226133
C11_2 C 0.8464(2) 0.16369(10) 0.24130(8)
H6_2 H 0.911313 0.153911 0.234663
C12_2 C 0.6640(3) 0.18926(11) 0.26300(9)
H7_2 H 0.599866 0.198870 0.270498
C13_2 C 0.7941(2) 0.14584(10) 0.26726(8)
H8_2 H 0.824477 0.123088 0.277801
N2_2 N 0.70354(17) 0.15825(7) 0.27870(6)
S2_2 S 0.96887(6) 0.14815(2) 0.16729(2)
S4_2 S 0.85574(6) 0.22266(3) 0.19131(2)
C10_3 C 0.0417(3) 0.04106(11) 0.73654(10)
H5_3 H 0.075180 0.018901 0.726133
C12_3 C 0.0860(3) 0.06074(11) 0.76300(9)
H7_3 H 0.150134 0.051130 0.770498
N2_3 N 0.04646(17) 0.09175(7) 0.77870(6)
Co4_2 Co 0.125000 0.125000 0.81878(2)
C28_2 C 0.0682(2) 0.93381(9) 0.57336(8)
S10_2 S 0.17753(8) 0.95670(4) 0.57618(3)
C1_3 C 0.6484(2) 0.10705(8) 0.66833(7)
C2_3 C 0.6893(2) 0.03342(9) 0.68375(7)
C3_3 C 0.7796(2) 0.05236(8) 0.68340(7)
H4_3 H 0.766363 0.002984 0.630434
C9_3 C 0.9478(2) 0.05396(8) 0.72525(7)
C11_3 C 0.9036(2) 0.08631(10) 0.74130(8)
H6_3 H 0.838687 0.096089 0.734663
C13_3 C 0.9559(2) 0.10416(10) 0.76726(8)
H8_3 H 0.925523 0.126912 0.777801
S1_3 S 0.58327(6) 0.06059(2) 0.66963(2)
S2_3 S 0.78113(6) 0.10185(2) 0.66729(2)
S4_3 S 0.89426(6) 0.02734(3) 0.69131(2)
C15_3 C 0.6016(2) 0.14295(8) 0.66833(7)
C16_3 C 0.5607(2) 0.21658(9) 0.68375(7)
C17_3 C 0.4704(2) 0.19764(8) 0.68340(7)
C18_3 C 0.5298(2) 0.29365(8) 0.65946(7)
C19_3 C 0.5339(2) 0.33548(8) 0.66052(7)
H9_3 H 0.563790 0.349036 0.679010
C20_3 C 0.4936(2) 0.35709(8) 0.63413(7)
H10_3 H 0.496938 0.385799 0.635026
C21_3 C 0.4479(2) 0.29932(8) 0.60711(7)
H11_3 H 0.417542 0.286187 0.588494
C22_3 C 0.4866(2) 0.27568(8) 0.63207(7)
H12_3 H 0.483637 0.247016 0.630434
C23_3 C 0.3022(2) 0.19604(8) 0.72525(7)
C24_3 C 0.2083(3) 0.20894(11) 0.73654(10)
H13_3 H 0.174820 0.231099 0.726133
C25_3 C 0.3464(2) 0.16369(10) 0.74130(8)
H14_3 H 0.411313 0.153911 0.734663
C26_3 C 0.1640(3) 0.18926(11) 0.76300(9)
H15_3 H 0.099866 0.198870 0.770498
C27_3 C 0.2941(2) 0.14584(10) 0.76726(8)
H16_3 H 0.324477 0.123088 0.777801
N4_3 N 0.45007(16) 0.34001(6) 0.60728(6)
N5_3 N 0.20354(17) 0.15825(7) 0.77870(6)
S6_3 S 0.66673(6) 0.18941(2) 0.66963(2)
S7_3 S 0.46887(6) 0.14815(2) 0.66729(2)
S8_3 S 0.58173(6) 0.26746(2) 0.69426(2)
S9_3 S 0.35574(6) 0.22266(3) 0.69131(2)
Co2_2 Co 0.375000 0.375000 0.56878(2)
C4_3 C 0.7202(2) 0.95635(8) 0.65946(7)
C5_3 C 0.7161(2) 0.91452(8) 0.66052(7)
H1_3 H 0.686210 0.900964 0.679010
C6_3 C 0.7564(2) 0.89291(8) 0.63413(7)
H2_3 H 0.753062 0.864201 0.635026
C7_3 C 0.8021(2) 0.95068(8) 0.60711(7)
H3_3 H 0.832458 0.963813 0.588494
C8_3 C 0.7634(2) 0.97432(8) 0.63207(7)
C14_2 C 0.6818(2) 0.81619(9) 0.57336(8)
N1_2 N 0.79993(16) 0.90999(6) 0.60728(6)
N3_2 N 0.75796(18) 0.83297(7) 0.57037(6)
S3_3 S 0.66827(6) 0.98254(2) 0.69426(2)
S5_2 S 0.57247(8) 0.79330(4) 0.57618(3)
Co1_2 Co 0.875000 0.875000 0.56878(2)
N6_2 N 0.99204(18) 0.91703(7) 0.57037(6)
N7_2 N 0.95007(16) 0.84001(6) 0.60728(6)
N8_2 N 0.95354(17) 0.84175(7) 0.52870(6)
N9_2 N 0.79646(17) 0.90825(7) 0.52870(6)
C1_4 C 0.1016(2) 0.64295(8) 0.66833(7)
C2_4 C 0.0607(2) 0.71658(9) 0.68375(7)
C4_4 C 0.0298(2) 0.79365(8) 0.65946(7)
C5_4 C 0.0339(2) 0.83548(8) 0.66052(7)
H1_4 H 0.063790 0.849036 0.679010
S1_4 S 0.16673(6) 0.68941(2) 0.66963(2)
S3_4 S 0.08173(6) 0.76746(2) 0.69426(2)
C15_4 C 0.1484(2) 0.60705(8) 0.66833(7)
C16_4 C 0.1893(2) 0.53342(9) 0.68375(7)
C17_4 C 0.2796(2) 0.55236(8) 0.68340(7)
C18_4 C 0.2202(2) 0.45635(8) 0.65946(7)
C19_4 C 0.2161(2) 0.41452(8) 0.66052(7)
H9_4 H 0.186210 0.400964 0.679010
C20_4 C 0.2564(2) 0.39291(8) 0.63413(7)
H10_4 H 0.253062 0.364201 0.635026
C21_4 C 0.3021(2) 0.45068(8) 0.60711(7)
H11_4 H 0.332458 0.463813 0.588494
C22_4 C 0.2634(2) 0.47432(8) 0.63207(7)
H12_4 H 0.266363 0.502984 0.630434
C23_4 C 0.4478(2) 0.55396(8) 0.72525(7)
C24_4 C 0.5417(3) 0.54106(11) 0.73654(10)
H13_4 H 0.575180 0.518901 0.726133
C25_4 C 0.4036(2) 0.58631(10) 0.74130(8)
H14_4 H 0.338687 0.596089 0.734663
C26_4 C 0.5860(3) 0.56074(11) 0.76300(9)
H15_4 H 0.650134 0.551130 0.770498
C27_4 C 0.4559(2) 0.60416(10) 0.76726(8)
H16_4 H 0.425523 0.626912 0.777801
N4_4 N 0.29993(16) 0.40999(6) 0.60728(6)
N5_4 N 0.54646(17) 0.59175(7) 0.77870(6)
S6_4 S 0.08327(6) 0.56059(2) 0.66963(2)
S7_4 S 0.28113(6) 0.60185(2) 0.66729(2)
S8_4 S 0.16827(6) 0.48254(2) 0.69426(2)
S9_4 S 0.39426(6) 0.52734(3) 0.69131(2)
Co3_2 Co 0.625000 0.625000 0.81878(2)
C3_4 C 0.9704(2) 0.69764(8) 0.68340(7)
C6_4 C 0.9936(2) 0.85709(8) 0.63413(7)
H2_4 H 0.996938 0.885799 0.635026
C7_4 C 0.9479(2) 0.79932(8) 0.60711(7)
H3_4 H 0.917542 0.786187 0.588494
C8_4 C 0.9866(2) 0.77568(8) 0.63207(7)
H4_4 H 0.983637 0.747016 0.630434
C9_4 C 0.8022(2) 0.69604(8) 0.72525(7)
C10_4 C 0.7083(3) 0.70894(11) 0.73654(10)
H5_4 H 0.674820 0.731099 0.726133
C11_4 C 0.8464(2) 0.66369(10) 0.74130(8)
H6_4 H 0.911313 0.653911 0.734663
C12_4 C 0.6640(3) 0.68926(11) 0.76300(9)
H7_4 H 0.599866 0.698870 0.770498
C13_4 C 0.7941(2) 0.64584(10) 0.76726(8)
H8_4 H 0.824477 0.623088 0.777801
N2_4 N 0.70354(17) 0.65825(7) 0.77870(6)
S2_4 S 0.96887(6) 0.64815(2) 0.66729(2)
S4_4 S 0.85574(6) 0.72266(3) 0.69131(2)
C14_3 C 0.1818(2) 0.31619(9) 0.57336(8)
N3_3 N 0.25796(18) 0.33297(7) 0.57037(6)
S5_3 S 0.07247(8) 0.29330(4) 0.57618(3)
C28_3 C 0.5682(2) 0.43381(9) 0.57336(8)
N6_3 N 0.49204(18) 0.41703(7) 0.57037(6)
S10_3 S 0.67753(8) 0.45670(4) 0.57618(3)
N8_3 N 0.45354(17) 0.34175(7) 0.52870(6)
N9_3 N 0.29646(17) 0.40825(7) 0.52870(6)
C14_4 C 0.1818(2) 0.81619(9) 0.07336(8)
N3_4 N 0.25796(18) 0.83297(7) 0.07037(6)
S5_4 S 0.07247(8) 0.79330(4) 0.07618(3)
C28_4 C 0.5682(2) 0.93381(9) 0.07336(8)
N6_4 N 0.49204(18) 0.91703(7) 0.07037(6)
S10_4 S 0.67753(8) 0.95670(4) 0.07618(3)
N8_4 N 0.45354(17) 0.84175(7) 0.02870(6)
N9_4 N 0.29646(17) 0.90825(7) 0.02870(6)
C3_5 C 0.0296(2) 0.44764(8) 0.43340(7)
C6_5 C 0.0064(2) 0.60709(8) 0.38413(7)
H2_5 H 0.003062 0.635799 0.385026
C7_5 C 0.0521(2) 0.54932(8) 0.35711(7)
H3_5 H 0.082458 0.536187 0.338494
C8_5 C 0.0134(2) 0.52568(8) 0.38207(7)
H4_5 H 0.016363 0.497016 0.380434
C9_5 C 0.1978(2) 0.44604(8) 0.47525(7)
C10_5 C 0.2917(3) 0.45894(11) 0.48654(10)
H5_5 H 0.325180 0.481099 0.476133
C11_5 C 0.1536(2) 0.41369(10) 0.49130(8)
H6_5 H 0.088687 0.403911 0.484663
C12_5 C 0.3360(3) 0.43926(11) 0.51300(9)
H7_5 H 0.400134 0.448870 0.520498
C13_5 C 0.2059(2) 0.39584(10) 0.51726(8)
H8_5 H 0.175523 0.373088 0.527801
N1_3 N 0.04993(16) 0.59001(6) 0.35728(6)
N3_5 N 0.00796(18) 0.66703(7) 0.32037(6)
S2_5 S 0.03113(6) 0.39815(2) 0.41729(2)
S4_5 S 0.14426(6) 0.47266(3) 0.44131(2)
C28_5 C 0.3182(2) 0.56619(9) 0.32336(8)
N6_5 N 0.24204(18) 0.58297(7) 0.32037(6)
S10_5 S 0.42753(8) 0.54330(4) 0.32618(3)
N7_3 N 0.20007(16) 0.65999(6) 0.35728(6)
C1_5 C 0.8984(2) 0.39295(8) 0.41833(7)
C2_5 C 0.9393(2) 0.46658(9) 0.43375(7)
C4_5 C 0.9702(2) 0.54365(8) 0.40946(7)
C5_5 C 0.9661(2) 0.58548(8) 0.41052(7)
H1_5 H 0.936210 0.599036 0.429010
C14_5 C 0.9318(2) 0.68381(9) 0.32336(8)
S1_5 S 0.83327(6) 0.43941(2) 0.41963(2)
S3_5 S 0.91827(6) 0.51746(2) 0.44426(2)
S5_5 S 0.82247(8) 0.70670(4) 0.32618(3)
C15_5 C 0.8516(2) 0.35705(8) 0.41833(7)
C16_5 C 0.8107(2) 0.28342(9) 0.43375(7)
C17_5 C 0.7204(2) 0.30236(8) 0.43340(7)
C18_5 C 0.7798(2) 0.20635(8) 0.40946(7)
C19_5 C 0.7839(2) 0.16452(8) 0.41052(7)
H9_5 H 0.813790 0.150964 0.429010
C20_5 C 0.7436(2) 0.14291(8) 0.38413(7)
H10_5 H 0.746938 0.114201 0.385026
C21_5 C 0.6979(2) 0.20068(8) 0.35711(7)
H11_5 H 0.667542 0.213813 0.338494
C22_5 C 0.7366(2) 0.22432(8) 0.38207(7)
H12_5 H 0.733637 0.252984 0.380434
C23_5 C 0.5522(2) 0.30396(8) 0.47525(7)
C24_5 C 0.4583(3) 0.29106(11) 0.48654(10)
H13_5 H 0.424820 0.268901 0.476133
C25_5 C 0.5964(2) 0.33631(10) 0.49130(8)
H14_5 H 0.661313 0.346089 0.484663
C26_5 C 0.4140(3) 0.31074(11) 0.51300(9)
H15_5 H 0.349866 0.301130 0.520498
C27_5 C 0.5441(2) 0.35416(10) 0.51726(8)
H16_5 H 0.574477 0.376912 0.527801
N4_5 N 0.70007(16) 0.15999(6) 0.35728(6)
S6_5 S 0.91673(6) 0.31059(2) 0.41963(2)
S7_5 S 0.71887(6) 0.35185(2) 0.41729(2)
S8_5 S 0.83173(6) 0.23254(2) 0.44426(2)
S9_5 S 0.60574(6) 0.27734(3) 0.44131(2)
C18_6 C 0.4702(2) 0.04365(8) 0.40946(7)
C19_6 C 0.4661(2) 0.08548(8) 0.41052(7)
H9_6 H 0.436210 0.099036 0.429010
C20_6 C 0.5064(2) 0.10709(8) 0.38413(7)
H10_6 H 0.503062 0.135799 0.385026
C21_6 C 0.5521(2) 0.04932(8) 0.35711(7)
H11_6 H 0.582458 0.036187 0.338494
C22_6 C 0.5134(2) 0.02568(8) 0.38207(7)
N4_6 N 0.54993(16) 0.09001(6) 0.35728(6)
S8_6 S 0.41827(6) 0.01746(2) 0.44426(2)
C1_6 C 0.3516(2) 0.85705(8) 0.41833(7)
C2_6 C 0.3107(2) 0.78342(9) 0.43375(7)
C3_6 C 0.2204(2) 0.80236(8) 0.43340(7)
C4_6 C 0.2798(2) 0.70635(8) 0.40946(7)
C5_6 C 0.2839(2) 0.66452(8) 0.41052(7)
H1_6 H 0.313790 0.650964 0.429010
C6_6 C 0.2436(2) 0.64291(8) 0.38413(7)
H2_6 H 0.246938 0.614201 0.385026
C7_6 C 0.1979(2) 0.70068(8) 0.35711(7)
H3_6 H 0.167542 0.713813 0.338494
C8_6 C 0.2366(2) 0.72432(8) 0.38207(7)
H4_6 H 0.233637 0.752984 0.380434
C9_6 C 0.0522(2) 0.80396(8) 0.47525(7)
C11_6 C 0.0964(2) 0.83631(10) 0.49130(8)
H6_6 H 0.161313 0.846089 0.484663
C13_6 C 0.0441(2) 0.85416(10) 0.51726(8)
H8_6 H 0.074477 0.876912 0.527801
S1_6 S 0.41673(6) 0.81059(2) 0.41963(2)
S2_6 S 0.21887(6) 0.85185(2) 0.41729(2)
S3_6 S 0.33173(6) 0.73254(2) 0.44426(2)
S4_6 S 0.10574(6) 0.77734(3) 0.44131(2)
C15_6 C 0.3984(2) 0.89295(8) 0.41833(7)
C16_6 C 0.4393(2) 0.96658(9) 0.43375(7)
C17_6 C 0.5296(2) 0.94764(8) 0.43340(7)
H12_6 H 0.516363 0.997016 0.380434
C23_6 C 0.6978(2) 0.94604(8) 0.47525(7)
C24_6 C 0.7917(3) 0.95894(11) 0.48654(10)
H13_6 H 0.825180 0.981099 0.476133
C25_6 C 0.6536(2) 0.91369(10) 0.49130(8)
H14_6 H 0.588687 0.903911 0.484663
C26_6 C 0.8360(3) 0.93926(11) 0.51300(9)
H15_6 H 0.900134 0.948870 0.520498
C27_6 C 0.7059(2) 0.89584(10) 0.51726(8)
H16_6 H 0.675523 0.873088 0.527801
S6_6 S 0.33327(6) 0.93941(2) 0.41963(2)
S7_6 S 0.53113(6) 0.89815(2) 0.41729(2)
S9_6 S 0.64426(6) 0.97266(3) 0.44131(2)
C10_6 C 0.9583(3) 0.79106(11) 0.48654(10)
H5_6 H 0.924820 0.768901 0.476133
C12_6 C 0.9140(3) 0.81074(11) 0.51300(9)
H7_6 H 0.849866 0.801130 0.520498
C6_7 C 0.0064(2) 0.10709(8) 0.88413(7)
H2_7 H 0.003062 0.135799 0.885026
C7_7 C 0.0521(2) 0.04932(8) 0.85711(7)
H3_7 H 0.082458 0.036187 0.838494
C8_7 C 0.0134(2) 0.02568(8) 0.88207(7)
N1_4 N 0.04993(16) 0.09001(6) 0.85728(6)
N3_6 N 0.00796(18) 0.16703(7) 0.82037(6)
C28_6 C 0.3182(2) 0.06619(9) 0.82336(8)
N6_6 N 0.24204(18) 0.08297(7) 0.82037(6)
S10_6 S 0.42753(8) 0.04330(4) 0.82618(3)
N7_4 N 0.20007(16) 0.15999(6) 0.85728(6)
C12_7 C 0.3360(3) 0.93926(11) 0.01300(9)
H7_7 H 0.400134 0.948870 0.020498
C13_7 C 0.2059(2) 0.89584(10) 0.01726(8)
H8_7 H 0.175523 0.873088 0.027801
C26_7 C 0.4140(3) 0.81074(11) 0.01300(9)
H15_7 H 0.349866 0.801130 0.020498
C27_7 C 0.5441(2) 0.85416(10) 0.01726(8)
H16_7 H 0.574477 0.876912 0.027801
C1_7 C 0.8984(2) 0.89295(8) 0.91833(7)
C2_7 C 0.9393(2) 0.96658(9) 0.93375(7)
S1_7 S 0.83327(6) 0.93941(2) 0.91963(2)
C15_7 C 0.8516(2) 0.85705(8) 0.91833(7)
C16_7 C 0.8107(2) 0.78342(9) 0.93375(7)
C17_7 C 0.7204(2) 0.80236(8) 0.93340(7)
C18_7 C 0.7798(2) 0.70635(8) 0.90946(7)
C19_7 C 0.7839(2) 0.66452(8) 0.91052(7)
H9_7 H 0.813790 0.650964 0.929010
C20_7 C 0.7436(2) 0.64291(8) 0.88413(7)
H10_7 H 0.746938 0.614201 0.885026
C21_7 C 0.6979(2) 0.70068(8) 0.85711(7)
H11_7 H 0.667542 0.713813 0.838494
C22_7 C 0.7366(2) 0.72432(8) 0.88207(7)
H12_7 H 0.733637 0.752984 0.880434
C23_7 C 0.5522(2) 0.80396(8) 0.97525(7)
C24_7 C 0.4583(3) 0.79106(11) 0.98654(10)
H13_7 H 0.424820 0.768901 0.976133
C25_7 C 0.5964(2) 0.83631(10) 0.99130(8)
H14_7 H 0.661313 0.846089 0.984663
N4_7 N 0.70007(16) 0.65999(6) 0.85728(6)
S6_7 S 0.91673(6) 0.81059(2) 0.91963(2)
S7_7 S 0.71887(6) 0.85185(2) 0.91729(2)
S8_7 S 0.83173(6) 0.73254(2) 0.94426(2)
S9_7 S 0.60574(6) 0.77734(3) 0.94131(2)
C13_8 C 0.0441(2) 0.35416(10) 0.01726(8)
H8_8 H 0.074477 0.376912 0.027801
C26_8 C 0.8360(3) 0.43926(11) 0.01300(9)
H15_8 H 0.900134 0.448870 0.020498
C27_8 C 0.7059(2) 0.39584(10) 0.01726(8)
H16_8 H 0.675523 0.373088 0.027801
C1_8 C 0.3516(2) 0.35705(8) 0.91833(7)
C2_8 C 0.3107(2) 0.28342(9) 0.93375(7)
C3_7 C 0.2204(2) 0.30236(8) 0.93340(7)
C4_7 C 0.2798(2) 0.20635(8) 0.90946(7)
C5_7 C 0.2839(2) 0.16452(8) 0.91052(7)
H1_7 H 0.313790 0.150964 0.929010
C6_8 C 0.2436(2) 0.14291(8) 0.88413(7)
H2_8 H 0.246938 0.114201 0.885026
C7_8 C 0.1979(2) 0.20068(8) 0.85711(7)
H3_8 H 0.167542 0.213813 0.838494
C8_8 C 0.2366(2) 0.22432(8) 0.88207(7)
H4_7 H 0.233637 0.252984 0.880434
C9_7 C 0.0522(2) 0.30396(8) 0.97525(7)
C11_7 C 0.0964(2) 0.33631(10) 0.99130(8)
H6_7 H 0.161313 0.346089 0.984663
S1_8 S 0.41673(6) 0.31059(2) 0.91963(2)
S2_7 S 0.21887(6) 0.35185(2) 0.91729(2)
S3_7 S 0.33173(6) 0.23254(2) 0.94426(2)
S4_7 S 0.10574(6) 0.27734(3) 0.94131(2)
C15_8 C 0.3984(2) 0.39295(8) 0.91833(7)
C16_8 C 0.4393(2) 0.46658(9) 0.93375(7)
C17_8 C 0.5296(2) 0.44764(8) 0.93340(7)
C18_8 C 0.4702(2) 0.54365(8) 0.90946(7)
C19_8 C 0.4661(2) 0.58548(8) 0.91052(7)
H9_8 H 0.436210 0.599036 0.929010
C20_8 C 0.5064(2) 0.60709(8) 0.88413(7)
H10_8 H 0.503062 0.635799 0.885026
C21_8 C 0.5521(2) 0.54932(8) 0.85711(7)
H11_8 H 0.582458 0.536187 0.838494
C22_8 C 0.5134(2) 0.52568(8) 0.88207(7)
H12_8 H 0.516363 0.497016 0.880434
C23_8 C 0.6978(2) 0.44604(8) 0.97525(7)
C24_8 C 0.7917(3) 0.45894(11) 0.98654(10)
H13_8 H 0.825180 0.481099 0.976133
C25_8 C 0.6536(2) 0.41369(10) 0.99130(8)
H14_8 H 0.588687 0.403911 0.984663
N4_8 N 0.54993(16) 0.59001(6) 0.85728(6)
S6_8 S 0.33327(6) 0.43941(2) 0.91963(2)
S7_8 S 0.53113(6) 0.39815(2) 0.91729(2)
S8_8 S 0.41827(6) 0.51746(2) 0.94426(2)
S9_8 S 0.64426(6) 0.47266(3) 0.94131(2)
C12_8 C 0.9140(3) 0.31074(11) 0.01300(9)
H7_8 H 0.849866 0.301130 0.020498
C14_6 C 0.4318(2) 0.68381(9) 0.82336(8)
N3_7 N 0.50796(18) 0.66703(7) 0.82037(6)
S5_6 S 0.32247(8) 0.70670(4) 0.82618(3)
C28_7 C 0.8182(2) 0.56619(9) 0.82336(8)
N6_7 N 0.74204(18) 0.58297(7) 0.82037(6)
S10_7 S 0.92753(8) 0.54330(4) 0.82618(3)
C14_7 C 0.4318(2) 0.18381(9) 0.32336(8)
N3_8 N 0.50796(18) 0.16703(7) 0.32037(6)
S5_7 S 0.32247(8) 0.20670(4) 0.32618(3)
C28_8 C 0.8182(2) 0.06619(9) 0.32336(8)
N6_8 N 0.74204(18) 0.08297(7) 0.32037(6)
S10_8 S 0.92753(8) 0.04330(4) 0.32618(3)
C1_9 C 0.1016(2) 0.60705(8) 0.58167(7)
C2_9 C 0.0607(2) 0.53342(9) 0.56625(7)
C4_8 C 0.0298(2) 0.45635(8) 0.59054(7)
C5_8 C 0.0339(2) 0.41452(8) 0.58948(7)
H1_8 H 0.063790 0.400964 0.570990
C14_8 C 0.0682(2) 0.31619(9) 0.67664(8)
S1_9 S 0.16673(6) 0.56059(2) 0.58037(2)
S3_8 S 0.08173(6) 0.48254(2) 0.55574(2)
S5_8 S 0.17753(8) 0.29330(4) 0.67382(3)
C15_9 C 0.1484(2) 0.64295(8) 0.58167(7)
C16_9 C 0.1893(2) 0.71658(9) 0.56625(7)
C17_9 C 0.2796(2) 0.69764(8) 0.56660(7)
C18_9 C 0.2202(2) 0.79365(8) 0.59054(7)
C19_9 C 0.2161(2) 0.83548(8) 0.58948(7)
H9_9 H 0.186210 0.849036 0.570990
C20_9 C 0.2564(2) 0.85709(8) 0.61587(7)
H10_9 H 0.253062 0.885799 0.614974
C21_9 C 0.3021(2) 0.79932(8) 0.64289(7)
H11_9 H 0.332458 0.786187 0.661506
C22_9 C 0.2634(2) 0.77568(8) 0.61793(7)
H12_9 H 0.266363 0.747016 0.619566
C23_9 C 0.4478(2) 0.69604(8) 0.52475(7)
C24_9 C 0.5417(3) 0.70894(11) 0.51346(10)
H13_9 H 0.575180 0.731099 0.523867
C25_9 C 0.4036(2) 0.66369(10) 0.50870(8)
H14_9 H 0.338687 0.653911 0.515337
C26_9 C 0.5860(3) 0.68926(11) 0.48700(9)
H15_9 H 0.650134 0.698870 0.479502
C27_9 C 0.4559(2) 0.64584(10) 0.48274(8)
H16_9 H 0.425523 0.623088 0.472199
N4_9 N 0.29993(16) 0.84001(6) 0.64272(6)
N5_5 N 0.54646(17) 0.65825(7) 0.47130(6)
S6_9 S 0.08327(6) 0.68941(2) 0.58037(2)
S7_9 S 0.28113(6) 0.64815(2) 0.58271(2)
S8_9 S 0.16827(6) 0.76746(2) 0.55574(2)
S9_9 S 0.39426(6) 0.72266(3) 0.55869(2)
Co2_3 Co 0.375000 0.875000 0.68122(2)
Co3_3 Co 0.625000 0.625000 0.43122(2)
C3_8 C 0.9704(2) 0.55236(8) 0.56660(7)
C6_9 C 0.9936(2) 0.39291(8) 0.61587(7)
H2_9 H 0.996938 0.364201 0.614974
C7_9 C 0.9479(2) 0.45068(8) 0.64289(7)
H3_9 H 0.917542 0.463813 0.661506
C8_9 C 0.9866(2) 0.47432(8) 0.61793(7)
H4_8 H 0.983637 0.502984 0.619566
C9_8 C 0.8022(2) 0.55396(8) 0.52475(7)
C10_7 C 0.7083(3) 0.54106(11) 0.51346(10)
H5_7 H 0.674820 0.518901 0.523867
C11_8 C 0.8464(2) 0.58631(10) 0.50870(8)
H6_8 H 0.911313 0.596089 0.515337
C12_9 C 0.6640(3) 0.56074(11) 0.48700(9)
H7_9 H 0.599866 0.551130 0.479502
C13_9 C 0.7941(2) 0.60416(10) 0.48274(8)
H8_9 H 0.824477 0.626912 0.472199
N1_5 N 0.95007(16) 0.40999(6) 0.64272(6)
N2_5 N 0.70354(17) 0.59175(7) 0.47130(6)
N3_9 N 0.99204(18) 0.33297(7) 0.67963(6)
S2_8 S 0.96887(6) 0.60185(2) 0.58271(2)
S4_8 S 0.85574(6) 0.52734(3) 0.55869(2)
Co1_3 Co 0.875000 0.375000 0.68122(2)
C28_9 C 0.6818(2) 0.43381(9) 0.67664(8)
N6_9 N 0.75796(18) 0.41703(7) 0.67963(6)
S10_9 S 0.57247(8) 0.45670(4) 0.67382(3)
N7_5 N 0.79993(16) 0.34001(6) 0.64272(6)
N8_5 N 0.79646(17) 0.34175(7) 0.72130(6)
N9_5 N 0.95354(17) 0.40825(7) 0.72130(6)
C10_8 C 0.0417(3) 0.20894(11) 0.51346(10)
H5_8 H 0.075180 0.231099 0.523867
C12_10 C 0.0860(3) 0.18926(11) 0.48700(9)
H7_10 H 0.150134 0.198870 0.479502
N2_6 N 0.04646(17) 0.15825(7) 0.47130(6)
Co4_3 Co 0.125000 0.125000 0.43122(2)
C1_10 C 0.6484(2) 0.14295(8) 0.58167(7)
C2_10 C 0.6893(2) 0.21658(9) 0.56625(7)
C3_9 C 0.7796(2) 0.19764(8) 0.56660(7)
C4_9 C 0.7202(2) 0.29365(8) 0.59054(7)
C5_9 C 0.7161(2) 0.33548(8) 0.58948(7)
H1_9 H 0.686210 0.349036 0.570990
C6_10 C 0.7564(2) 0.35709(8) 0.61587(7)
H2_10 H 0.753062 0.385799 0.614974
C7_10 C 0.8021(2) 0.29932(8) 0.64289(7)
H3_10 H 0.832458 0.286187 0.661506
C8_10 C 0.7634(2) 0.27568(8) 0.61793(7)
H4_9 H 0.766363 0.247016 0.619566
C9_9 C 0.9478(2) 0.19604(8) 0.52475(7)
C11_9 C 0.9036(2) 0.16369(10) 0.50870(8)
H6_9 H 0.838687 0.153911 0.515337
C13_10 C 0.9559(2) 0.14584(10) 0.48274(8)
H8_10 H 0.925523 0.123088 0.472199
S1_10 S 0.58327(6) 0.18941(2) 0.58037(2)
S2_9 S 0.78113(6) 0.14815(2) 0.58271(2)
S3_9 S 0.66827(6) 0.26746(2) 0.55574(2)
S4_9 S 0.89426(6) 0.22266(3) 0.55869(2)
C15_10 C 0.6016(2) 0.10705(8) 0.58167(7)
C16_10 C 0.5607(2) 0.03342(9) 0.56625(7)
C17_10 C 0.4704(2) 0.05236(8) 0.56660(7)
H12_10 H 0.483637 0.002984 0.619566
C23_10 C 0.3022(2) 0.05396(8) 0.52475(7)
C24_10 C 0.2083(3) 0.04106(11) 0.51346(10)
H13_10 H 0.174820 0.018901 0.523867
C25_10 C 0.3464(2) 0.08631(10) 0.50870(8)
H14_10 H 0.411313 0.096089 0.515337
C26_10 C 0.1640(3) 0.06074(11) 0.48700(9)
H15_10 H 0.099866 0.051130 0.479502
C27_10 C 0.2941(2) 0.10416(10) 0.48274(8)
H16_10 H 0.324477 0.126912 0.472199
N5_6 N 0.20354(17) 0.09175(7) 0.47130(6)
S6_10 S 0.66673(6) 0.06059(2) 0.58037(2)
S7_10 S 0.46887(6) 0.10185(2) 0.58271(2)
S9_10 S 0.35574(6) 0.02734(3) 0.55869(2)
C18_10 C 0.5298(2) 0.95635(8) 0.59054(7)
C19_10 C 0.5339(2) 0.91452(8) 0.58948(7)
H9_10 H 0.563790 0.900964 0.570990
C20_10 C 0.4936(2) 0.89291(8) 0.61587(7)
H10_10 H 0.496938 0.864201 0.614974
C21_10 C 0.4479(2) 0.95068(8) 0.64289(7)
H11_10 H 0.417542 0.963813 0.661506
C22_10 C 0.4866(2) 0.97432(8) 0.61793(7)
N4_10 N 0.45007(16) 0.90999(6) 0.64272(6)
S8_10 S 0.58173(6) 0.98254(2) 0.55574(2)
C1_11 C 0.1016(2) 0.10705(8) 0.08167(7)
C2_11 C 0.0607(2) 0.03342(9) 0.06625(7)
S1_11 S 0.16673(6) 0.06059(2) 0.08037(2)
C15_11 C 0.1484(2) 0.14295(8) 0.08167(7)
C16_11 C 0.1893(2) 0.21658(9) 0.06625(7)
C17_11 C 0.2796(2) 0.19764(8) 0.06660(7)
C18_11 C 0.2202(2) 0.29365(8) 0.09054(7)
C19_11 C 0.2161(2) 0.33548(8) 0.08948(7)
H9_11 H 0.186210 0.349036 0.070990
C20_11 C 0.2564(2) 0.35709(8) 0.11587(7)
H10_11 H 0.253062 0.385799 0.114974
C21_11 C 0.3021(2) 0.29932(8) 0.14289(7)
H11_11 H 0.332458 0.286187 0.161506
C22_11 C 0.2634(2) 0.27568(8) 0.11793(7)
H12_11 H 0.266363 0.247016 0.119566
C23_11 C 0.4478(2) 0.19604(8) 0.02475(7)
C24_11 C 0.5417(3) 0.20894(11) 0.01346(10)
H13_11 H 0.575180 0.231099 0.023867
C25_11 C 0.4036(2) 0.16369(10) 0.00870(8)
H14_11 H 0.338687 0.153911 0.015337
N4_11 N 0.29993(16) 0.34001(6) 0.14272(6)
S6_11 S 0.08327(6) 0.18941(2) 0.08037(2)
S7_11 S 0.28113(6) 0.14815(2) 0.08271(2)
S8_11 S 0.16827(6) 0.26746(2) 0.05574(2)
S9_11 S 0.39426(6) 0.22266(3) 0.05869(2)
Co2_4 Co 0.375000 0.375000 0.18122(2)
C26_11 C 0.5860(3) 0.18926(11) 0.98700(9)
H15_11 H 0.650134 0.198870 0.979502
C27_11 C 0.4559(2) 0.14584(10) 0.98274(8)
H16_11 H 0.425523 0.123088 0.972199
N5_7 N 0.54646(17) 0.15825(7) 0.97130(6)
Co3_4 Co 0.625000 0.125000 0.93122(2)
C12_11 C 0.6640(3) 0.06074(11) 0.98700(9)
H7_11 H 0.599866 0.051130 0.979502
C13_11 C 0.7941(2) 0.10416(10) 0.98274(8)
H8_11 H 0.824477 0.126912 0.972199
N2_7 N 0.70354(17) 0.09175(7) 0.97130(6)
C6_11 C 0.9936(2) 0.89291(8) 0.11587(7)
H2_11 H 0.996938 0.864201 0.114974
C7_11 C 0.9479(2) 0.95068(8) 0.14289(7)
H3_11 H 0.917542 0.963813 0.161506
C8_11 C 0.9866(2) 0.97432(8) 0.11793(7)
N1_6 N 0.95007(16) 0.90999(6) 0.14272(6)
N3_10 N 0.99204(18) 0.83297(7) 0.17963(6)
Co1_4 Co 0.875000 0.875000 0.18122(2)
C28_10 C 0.6818(2) 0.93381(9) 0.17664(8)
N6_10 N 0.75796(18) 0.91703(7) 0.17963(6)
S10_10 S 0.57247(8) 0.95670(4) 0.17382(3)
N7_6 N 0.79993(16) 0.84001(6) 0.14272(6)
N8_6 N 0.79646(17) 0.84175(7) 0.22130(6)
N9_6 N 0.95354(17) 0.90825(7) 0.22130(6)
C12_12 C 0.0860(3) 0.68926(11) 0.98700(9)
H7_12 H 0.150134 0.698870 0.979502
N2_8 N 0.04646(17) 0.65825(7) 0.97130(6)
Co4_4 Co 0.125000 0.625000 0.93122(2)
C1_12 C 0.6484(2) 0.64295(8) 0.08167(7)
C2_12 C 0.6893(2) 0.71658(9) 0.06625(7)
C3_10 C 0.7796(2) 0.69764(8) 0.06660(7)
C4_10 C 0.7202(2) 0.79365(8) 0.09054(7)
C5_10 C 0.7161(2) 0.83548(8) 0.08948(7)
H1_10 H 0.686210 0.849036 0.070990
C6_12 C 0.7564(2) 0.85709(8) 0.11587(7)
H2_12 H 0.753062 0.885799 0.114974
C7_12 C 0.8021(2) 0.79932(8) 0.14289(7)
H3_12 H 0.832458 0.786187 0.161506
C8_12 C 0.7634(2) 0.77568(8) 0.11793(7)
H4_10 H 0.766363 0.747016 0.119566
C9_10 C 0.9478(2) 0.69604(8) 0.02475(7)
C11_10 C 0.9036(2) 0.66369(10) 0.00870(8)
H6_10 H 0.838687 0.653911 0.015337
S1_12 S 0.58327(6) 0.68941(2) 0.08037(2)
S2_10 S 0.78113(6) 0.64815(2) 0.08271(2)
S3_10 S 0.66827(6) 0.76746(2) 0.05574(2)
S4_10 S 0.89426(6) 0.72266(3) 0.05869(2)
C15_12 C 0.6016(2) 0.60705(8) 0.08167(7)
C16_12 C 0.5607(2) 0.53342(9) 0.06625(7)
C17_12 C 0.4704(2) 0.55236(8) 0.06660(7)
C18_12 C 0.5298(2) 0.45635(8) 0.09054(7)
C19_12 C 0.5339(2) 0.41452(8) 0.08948(7)
H9_12 H 0.563790 0.400964 0.070990
C20_12 C 0.4936(2) 0.39291(8) 0.11587(7)
H10_12 H 0.496938 0.364201 0.114974
C21_12 C 0.4479(2) 0.45068(8) 0.14289(7)
H11_12 H 0.417542 0.463813 0.161506
C22_12 C 0.4866(2) 0.47432(8) 0.11793(7)
H12_12 H 0.483637 0.502984 0.119566
C23_12 C 0.3022(2) 0.55396(8) 0.02475(7)
C24_12 C 0.2083(3) 0.54106(11) 0.01346(10)
H13_12 H 0.174820 0.518901 0.023867
C25_12 C 0.3464(2) 0.58631(10) 0.00870(8)
H14_12 H 0.411313 0.596089 0.015337
N4_12 N 0.45007(16) 0.40999(6) 0.14272(6)
S6_12 S 0.66673(6) 0.56059(2) 0.08037(2)
S7_12 S 0.46887(6) 0.60185(2) 0.08271(2)
S8_12 S 0.58173(6) 0.48254(2) 0.05574(2)
S9_12 S 0.35574(6) 0.52734(3) 0.05869(2)
C13_12 C 0.9559(2) 0.64584(10) 0.98274(8)
H8_12 H 0.925523 0.623088 0.972199
C26_12 C 0.1640(3) 0.56074(11) 0.98700(9)
H15_12 H 0.099866 0.551130 0.979502
C27_12 C 0.2941(2) 0.60416(10) 0.98274(8)
H16_12 H 0.324477 0.626912 0.972199
N5_8 N 0.20354(17) 0.59175(7) 0.97130(6)
C14_9 C 0.5682(2) 0.31619(9) 0.17664(8)
N3_11 N 0.49204(18) 0.33297(7) 0.17963(6)
S5_9 S 0.67753(8) 0.29330(4) 0.17382(3)
C28_11 C 0.1818(2) 0.43381(9) 0.17664(8)
N6_11 N 0.25796(18) 0.41703(7) 0.17963(6)
S10_11 S 0.07247(8) 0.45670(4) 0.17382(3)
N8_7 N 0.29646(17) 0.34175(7) 0.22130(6)
N9_7 N 0.45354(17) 0.40825(7) 0.22130(6)
C14_10 C 0.5682(2) 0.81619(9) 0.67664(8)
N3_12 N 0.49204(18) 0.83297(7) 0.67963(6)
S5_10 S 0.67753(8) 0.79330(4) 0.67382(3)
C28_12 C 0.1818(2) 0.93381(9) 0.67664(8)
N6_12 N 0.25796(18) 0.91703(7) 0.67963(6)
S10_12 S 0.07247(8) 0.95670(4) 0.67382(3)
N8_8 N 0.29646(17) 0.84175(7) 0.72130(6)
N9_8 N 0.45354(17) 0.90825(7) 0.72130(6)
C1_13 C 0.3516(2) 0.39295(8) 0.83167(7)
C2_13 C 0.3107(2) 0.46658(9) 0.81625(7)
C3_11 C 0.2204(2) 0.44764(8) 0.81660(7)
C4_11 C 0.2798(2) 0.54365(8) 0.84054(7)
C5_11 C 0.2839(2) 0.58548(8) 0.83948(7)
H1_11 H 0.313790 0.599036 0.820990
C6_13 C 0.2436(2) 0.60709(8) 0.86587(7)
H2_13 H 0.246938 0.635799 0.864974
C7_13 C 0.1979(2) 0.54932(8) 0.89289(7)
H3_13 H 0.167542 0.536187 0.911506
C8_13 C 0.2366(2) 0.52568(8) 0.86793(7)
H4_11 H 0.233637 0.497016 0.869566
C9_11 C 0.0522(2) 0.44604(8) 0.77475(7)
C11_11 C 0.0964(2) 0.41369(10) 0.75870(8)
H6_11 H 0.161313 0.403911 0.765337
C13_13 C 0.0441(2) 0.39584(10) 0.73274(8)
H8_13 H 0.074477 0.373088 0.722199
C14_11 C 0.3182(2) 0.68381(9) 0.92664(8)
N1_7 N 0.20007(16) 0.59001(6) 0.89272(6)
N3_13 N 0.24204(18) 0.66703(7) 0.92963(6)
S1_13 S 0.41673(6) 0.43941(2) 0.83037(2)
S2_11 S 0.21887(6) 0.39815(2) 0.83271(2)
S3_11 S 0.33173(6) 0.51746(2) 0.80574(2)
S4_11 S 0.10574(6) 0.47266(3) 0.80869(2)
S5_11 S 0.42753(8) 0.70670(4) 0.92382(3)
C15_13 C 0.3984(2) 0.35705(8) 0.83167(7)
C16_13 C 0.4393(2) 0.28342(9) 0.81625(7)
C17_13 C 0.5296(2) 0.30236(8) 0.81660(7)
C18_13 C 0.4702(2) 0.20635(8) 0.84054(7)
C19_13 C 0.4661(2) 0.16452(8) 0.83948(7)
H9_13 H 0.436210 0.150964 0.820990
C20_13 C 0.5064(2) 0.14291(8) 0.86587(7)
H10_13 H 0.503062 0.114201 0.864974
C21_13 C 0.5521(2) 0.20068(8) 0.89289(7)
H11_13 H 0.582458 0.213813 0.911506
C22_13 C 0.5134(2) 0.22432(8) 0.86793(7)
H12_13 H 0.516363 0.252984 0.869566
C23_13 C 0.6978(2) 0.30396(8) 0.77475(7)
C24_13 C 0.7917(3) 0.29106(11) 0.76346(10)
H13_13 H 0.825180 0.268901 0.773867
C25_13 C 0.6536(2) 0.33631(10) 0.75870(8)
H14_13 H 0.588687 0.346089 0.765337
C26_13 C 0.8360(3) 0.31074(11) 0.73700(9)
H15_13 H 0.900134 0.301130 0.729502
C27_13 C 0.7059(2) 0.35416(10) 0.73274(8)
H16_13 H 0.675523 0.376912 0.722199
N4_13 N 0.54993(16) 0.15999(6) 0.89272(6)
S6_13 S 0.33327(6) 0.31059(2) 0.83037(2)
S7_13 S 0.53113(6) 0.35185(2) 0.83271(2)
S8_13 S 0.41827(6) 0.23254(2) 0.80574(2)
S9_13 S 0.64426(6) 0.27734(3) 0.80869(2)
N6_13 N 0.00796(18) 0.58297(7) 0.92963(6)
N7_7 N 0.04993(16) 0.65999(6) 0.89272(6)
C10_9 C 0.9583(3) 0.45894(11) 0.76346(10)
H5_9 H 0.924820 0.481099 0.773867
C12_13 C 0.9140(3) 0.43926(11) 0.73700(9)
H7_13 H 0.849866 0.448870 0.729502
C28_13 C 0.9318(2) 0.56619(9) 0.92664(8)
S10_13 S 0.82247(8) 0.54330(4) 0.92382(3)
C3_12 C 0.0296(2) 0.80236(8) 0.81660(7)
C6_14 C 0.0064(2) 0.64291(8) 0.86587(7)
H2_14 H 0.003062 0.614201 0.864974
C7_14 C 0.0521(2) 0.70068(8) 0.89289(7)
H3_14 H 0.082458 0.713813 0.911506
C8_14 C 0.0134(2) 0.72432(8) 0.86793(7)
H4_12 H 0.016363 0.752984 0.869566
C9_12 C 0.1978(2) 0.80396(8) 0.77475(7)
C10_10 C 0.2917(3) 0.79106(11) 0.76346(10)
H5_10 H 0.325180 0.768901 0.773867
C11_12 C 0.1536(2) 0.83631(10) 0.75870(8)
H6_12 H 0.088687 0.846089 0.765337
C12_14 C 0.3360(3) 0.81074(11) 0.73700(9)
H7_14 H 0.400134 0.801130 0.729502
C13_14 C 0.2059(2) 0.85416(10) 0.73274(8)
H8_14 H 0.175523 0.876912 0.722199
S2_12 S 0.03113(6) 0.85185(2) 0.83271(2)
S4_12 S 0.14426(6) 0.77734(3) 0.80869(2)
C18_14 C 0.7798(2) 0.04365(8) 0.84054(7)
C19_14 C 0.7839(2) 0.08548(8) 0.83948(7)
H9_14 H 0.813790 0.099036 0.820990
C20_14 C 0.7436(2) 0.10709(8) 0.86587(7)
H10_14 H 0.746938 0.135799 0.864974
C21_14 C 0.6979(2) 0.04932(8) 0.89289(7)
H11_14 H 0.667542 0.036187 0.911506
C22_14 C 0.7366(2) 0.02568(8) 0.86793(7)
N4_14 N 0.70007(16) 0.09001(6) 0.89272(6)
S8_14 S 0.83173(6) 0.01746(2) 0.80574(2)
C1_14 C 0.8984(2) 0.85705(8) 0.83167(7)
C2_14 C 0.9393(2) 0.78342(9) 0.81625(7)
C4_12 C 0.9702(2) 0.70635(8) 0.84054(7)
C5_12 C 0.9661(2) 0.66452(8) 0.83948(7)
H1_12 H 0.936210 0.650964 0.820990
S1_14 S 0.83327(6) 0.81059(2) 0.83037(2)
S3_12 S 0.91827(6) 0.73254(2) 0.80574(2)
C15_14 C 0.8516(2) 0.89295(8) 0.83167(7)
C16_14 C 0.8107(2) 0.96658(9) 0.81625(7)
C17_14 C 0.7204(2) 0.94764(8) 0.81660(7)
H12_14 H 0.733637 0.997016 0.869566
C23_14 C 0.5522(2) 0.94604(8) 0.77475(7)
C24_14 C 0.4583(3) 0.95894(11) 0.76346(10)
H13_14 H 0.424820 0.981099 0.773867
C25_14 C 0.5964(2) 0.91369(10) 0.75870(8)
H14_14 H 0.661313 0.903911 0.765337
C26_14 C 0.4140(3) 0.93926(11) 0.73700(9)
H15_14 H 0.349866 0.948870 0.729502
C27_14 C 0.5441(2) 0.89584(10) 0.73274(8)
H16_14 H 0.574477 0.873088 0.722199
S6_14 S 0.91673(6) 0.93941(2) 0.83037(2)
S7_14 S 0.71887(6) 0.89815(2) 0.83271(2)
S9_14 S 0.60574(6) 0.97266(3) 0.80869(2)
C4_13 C 0.2798(2) 0.04365(8) 0.34054(7)
C5_13 C 0.2839(2) 0.08548(8) 0.33948(7)
H1_13 H 0.313790 0.099036 0.320990
C6_15 C 0.2436(2) 0.10709(8) 0.36587(7)
H2_15 H 0.246938 0.135799 0.364974
C7_15 C 0.1979(2) 0.04932(8) 0.39289(7)
H3_15 H 0.167542 0.036187 0.411506
C8_15 C 0.2366(2) 0.02568(8) 0.36793(7)
C14_12 C 0.3182(2) 0.18381(9) 0.42664(8)
N1_8 N 0.20007(16) 0.09001(6) 0.39272(6)
N3_14 N 0.24204(18) 0.16703(7) 0.42963(6)
S3_13 S 0.33173(6) 0.01746(2) 0.30574(2)
S5_12 S 0.42753(8) 0.20670(4) 0.42382(3)
N6_14 N 0.00796(18) 0.08297(7) 0.42963(6)
N7_8 N 0.04993(16) 0.15999(6) 0.39272(6)
C1_15 C 0.3516(2) 0.89295(8) 0.33167(7)
C2_15 C 0.3107(2) 0.96658(9) 0.31625(7)
C3_13 C 0.2204(2) 0.94764(8) 0.31660(7)
H4_13 H 0.233637 0.997016 0.369566
C9_13 C 0.0522(2) 0.94604(8) 0.27475(7)
C11_13 C 0.0964(2) 0.91369(10) 0.25870(8)
H6_13 H 0.161313 0.903911 0.265337
C13_15 C 0.0441(2) 0.89584(10) 0.23274(8)
H8_15 H 0.074477 0.873088 0.222199
S1_15 S 0.41673(6) 0.93941(2) 0.33037(2)
S2_13 S 0.21887(6) 0.89815(2) 0.33271(2)
S4_13 S 0.10574(6) 0.97266(3) 0.30869(2)
C15_15 C 0.3984(2) 0.85705(8) 0.33167(7)
C16_15 C 0.4393(2) 0.78342(9) 0.31625(7)
C17_15 C 0.5296(2) 0.80236(8) 0.31660(7)
C18_15 C 0.4702(2) 0.70635(8) 0.34054(7)
C19_15 C 0.4661(2) 0.66452(8) 0.33948(7)
H9_15 H 0.436210 0.650964 0.320990
C20_15 C 0.5064(2) 0.64291(8) 0.36587(7)
H10_15 H 0.503062 0.614201 0.364974
C21_15 C 0.5521(2) 0.70068(8) 0.39289(7)
H11_15 H 0.582458 0.713813 0.411506
C22_15 C 0.5134(2) 0.72432(8) 0.36793(7)
H12_15 H 0.516363 0.752984 0.369566
C23_15 C 0.6978(2) 0.80396(8) 0.27475(7)
C24_15 C 0.7917(3) 0.79106(11) 0.26346(10)
H13_15 H 0.825180 0.768901 0.273867
C25_15 C 0.6536(2) 0.83631(10) 0.25870(8)
H14_15 H 0.588687 0.846089 0.265337
C26_15 C 0.8360(3) 0.81074(11) 0.23700(9)
H15_15 H 0.900134 0.801130 0.229502
C27_15 C 0.7059(2) 0.85416(10) 0.23274(8)
H16_15 H 0.675523 0.876912 0.222199
N4_15 N 0.54993(16) 0.65999(6) 0.39272(6)
S6_15 S 0.33327(6) 0.81059(2) 0.33037(2)
S7_15 S 0.53113(6) 0.85185(2) 0.33271(2)
S8_15 S 0.41827(6) 0.73254(2) 0.30574(2)
S9_15 S 0.64426(6) 0.77734(3) 0.30869(2)
C28_14 C 0.9318(2) 0.06619(9) 0.42664(8)
S10_14 S 0.82247(8) 0.04330(4) 0.42382(3)
C10_11 C 0.9583(3) 0.95894(11) 0.26346(10)
H5_11 H 0.924820 0.981099 0.273867
C12_15 C 0.9140(3) 0.93926(11) 0.23700(9)
H7_15 H 0.849866 0.948870 0.229502
C3_14 C 0.0296(2) 0.30236(8) 0.31660(7)
C6_16 C 0.0064(2) 0.14291(8) 0.36587(7)
H2_16 H 0.003062 0.114201 0.364974
C7_16 C 0.0521(2) 0.20068(8) 0.39289(7)
H3_16 H 0.082458 0.213813 0.411506
C8_16 C 0.0134(2) 0.22432(8) 0.36793(7)
H4_14 H 0.016363 0.252984 0.369566
C9_14 C 0.1978(2) 0.30396(8) 0.27475(7)
C10_12 C 0.2917(3) 0.29106(11) 0.26346(10)
H5_12 H 0.325180 0.268901 0.273867
C11_14 C 0.1536(2) 0.33631(10) 0.25870(8)
H6_14 H 0.088687 0.346089 0.265337
C12_16 C 0.3360(3) 0.31074(11) 0.23700(9)
H7_16 H 0.400134 0.301130 0.229502
C13_16 C 0.2059(2) 0.35416(10) 0.23274(8)
H8_16 H 0.175523 0.376912 0.222199
S2_14 S 0.03113(6) 0.35185(2) 0.33271(2)
S4_14 S 0.14426(6) 0.27734(3) 0.30869(2)
C1_16 C 0.8984(2) 0.35705(8) 0.33167(7)
C2_16 C 0.9393(2) 0.28342(9) 0.31625(7)
C4_14 C 0.9702(2) 0.20635(8) 0.34054(7)
C5_14 C 0.9661(2) 0.16452(8) 0.33948(7)
H1_14 H 0.936210 0.150964 0.320990
S1_16 S 0.83327(6) 0.31059(2) 0.33037(2)
S3_14 S 0.91827(6) 0.23254(2) 0.30574(2)
C15_16 C 0.8516(2) 0.39295(8) 0.33167(7)
C16_16 C 0.8107(2) 0.46658(9) 0.31625(7)
C17_16 C 0.7204(2) 0.44764(8) 0.31660(7)
C18_16 C 0.7798(2) 0.54365(8) 0.34054(7)
C19_16 C 0.7839(2) 0.58548(8) 0.33948(7)
H9_16 H 0.813790 0.599036 0.320990
C20_16 C 0.7436(2) 0.60709(8) 0.36587(7)
H10_16 H 0.746938 0.635799 0.364974
C21_16 C 0.6979(2) 0.54932(8) 0.39289(7)
H11_16 H 0.667542 0.536187 0.411506
C22_16 C 0.7366(2) 0.52568(8) 0.36793(7)
H12_16 H 0.733637 0.497016 0.369566
C23_16 C 0.5522(2) 0.44604(8) 0.27475(7)
C24_16 C 0.4583(3) 0.45894(11) 0.26346(10)
H13_16 H 0.424820 0.481099 0.273867
C25_16 C 0.5964(2) 0.41369(10) 0.25870(8)
H14_16 H 0.661313 0.403911 0.265337
C26_16 C 0.4140(3) 0.43926(11) 0.23700(9)
H15_16 H 0.349866 0.448870 0.229502
C27_16 C 0.5441(2) 0.39584(10) 0.23274(8)
H16_16 H 0.574477 0.373088 0.222199
N4_16 N 0.70007(16) 0.59001(6) 0.39272(6)
S6_16 S 0.91673(6) 0.43941(2) 0.33037(2)
S7_16 S 0.71887(6) 0.39815(2) 0.33271(2)
S8_16 S 0.83173(6) 0.51746(2) 0.30574(2)
S9_16 S 0.60574(6) 0.47266(3) 0.30869(2)
C14_13 C 0.8182(2) 0.68381(9) 0.42664(8)
N3_15 N 0.74204(18) 0.66703(7) 0.42963(6)
S5_13 S 0.92753(8) 0.70670(4) 0.42382(3)
C28_15 C 0.4318(2) 0.56619(9) 0.42664(8)
N6_15 N 0.50796(18) 0.58297(7) 0.42963(6)
S10_15 S 0.32247(8) 0.54330(4) 0.42382(3)
C14_14 C 0.8182(2) 0.18381(9) 0.92664(8)
N3_16 N 0.74204(18) 0.16703(7) 0.92963(6)
S5_14 S 0.92753(8) 0.20670(4) 0.92382(3)
C28_16 C 0.4318(2) 0.06619(9) 0.92664(8)
N6_16 N 0.50796(18) 0.08297(7) 0.92963(6)
S10_16 S 0.32247(8) 0.04330(4) 0.92382(3)
C4_15 C 0.0298(2) 0.95635(8) 0.09054(7)
C5_15 C 0.0339(2) 0.91452(8) 0.08948(7)
H1_15 H 0.063790 0.900964 0.070990
C14_15 C 0.0682(2) 0.81619(9) 0.17664(8)
S3_15 S 0.08173(6) 0.98254(2) 0.05574(2)
S5_15 S 0.17753(8) 0.79330(4) 0.17382(3)
C10_13 C 0.0417(3) 0.70894(11) 0.01346(10)
H5_13 H 0.075180 0.731099 0.023867
C3_15 C 0.9704(2) 0.05236(8) 0.06660(7)
H4_15 H 0.983637 0.002984 0.119566
C9_15 C 0.8022(2) 0.05396(8) 0.02475(7)
C10_14 C 0.7083(3) 0.04106(11) 0.01346(10)
H5_14 H 0.674820 0.018901 0.023867
C11_15 C 0.8464(2) 0.08631(10) 0.00870(8)
H6_15 H 0.911313 0.096089 0.015337
S2_15 S 0.96887(6) 0.10185(2) 0.08271(2)
S4_15 S 0.85574(6) 0.02734(3) 0.05869(2)
C3_16 C 0.0296(2) 0.94764(8) 0.93340(7)
H4_16 H 0.016363 0.997016 0.880434
C9_16 C 0.1978(2) 0.94604(8) 0.97525(7)
C10_15 C 0.2917(3) 0.95894(11) 0.98654(10)
H5_15 H 0.325180 0.981099 0.976133
C11_16 C 0.1536(2) 0.91369(10) 0.99130(8)
H6_16 H 0.088687 0.903911 0.984663
S2_16 S 0.03113(6) 0.89815(2) 0.91729(2)
S4_16 S 0.14426(6) 0.97266(3) 0.94131(2)
C4_16 C 0.9702(2) 0.04365(8) 0.90946(7)
C5_16 C 0.9661(2) 0.08548(8) 0.91052(7)
H1_16 H 0.936210 0.099036 0.929010
C14_16 C 0.9318(2) 0.18381(9) 0.82336(8)
S3_16 S 0.91827(6) 0.01746(2) 0.94426(2)
S5_16 S 0.82247(8) 0.20670(4) 0.82618(3)
C10_16 C 0.9583(3) 0.29106(11) 0.98654(10)
H5_16 H 0.924820 0.268901 0.976133
loop_
_geom_bond_atom_site_label_1
_geom_bond_atom_site_label_2
_geom_bond_site_symmetry_1
_geom_bond_site_symmetry_2
C10 H5 1_555 1_555
C12 C10 1_555 1_555
H7 C12 1_555 1_555
N2 C12 1_555 1_555
S10 C28 1_555 1_555
Co4 N2 1_555 1_555
C1 S1 1_555 1_555
C2 C3 1_555 1_555
C3 S2 1_555 1_555
C4 C5 1_555 1_555
C5 H1 1_555 1_555
C6 C5 1_555 1_555
H2 C6 1_555 1_555
C7 H3 1_555 1_555
C8 C4 1_555 1_555
H4 C8 1_555 1_555
C11 C9 1_555 1_555
H6 C11 1_555 1_555
C13 C11 1_555 1_555
H8 C13 1_555 1_555
C14 N3 1_555 1_555
N1 C6 1_555 1_555
N3 Co1 1_555 1_555
S1 C2 1_555 1_555
S2 C1 1_555 1_555
S3 C2 1_555 1_555
S4 C3 1_555 1_555
S5 C14 1_555 1_555
Co1 N1 1_555 1_555
C15 C1 1_555 1_555
C16 C17 1_555 1_555
C17 S7 1_555 1_555
C18 C19 1_555 1_555
C19 H9 1_555 1_555
C20 C19 1_555 1_555
H10 C20 1_555 1_555
C21 H11 1_555 1_555
C22 C18 1_555 1_555
H12 C22 1_555 1_555
C23 C24 1_555 1_555
C24 H13 1_555 1_555
C25 C23 1_555 1_555
H14 C25 1_555 1_555
C26 C24 1_555 1_555
H15 C26 1_555 1_555
C27 C25 1_555 1_555
H16 C27 1_555 1_555
N4 C20 1_555 1_555
N5 C26 1_555 1_555
S6 C15 1_555 1_555
S7 C15 1_555 1_555
S8 C16 1_555 1_555
S9 C17 1_555 1_555
N6 Co1 1_555 1_555
N7 Co1 1_555 1_555
N8 Co1 1_555 1_555
N9 Co1 1_555 1_555
Co2 N4 1_555 1_555
Co4 N5 1_555 1_555
C4 S3 1_555 1_555
C7 C8 1_555 1_555
C7 N1 1_555 1_555
C9 S4 1_555 1_555
C16 S6 1_555 1_555
C18 S8 1_555 1_555
C21 C22 1_555 1_555
C21 N4 1_555 1_555
C23 S9 1_555 1_555
C27 N5 1_555 1_555
C1_2 S1_2 1_555 1_555
C4_2 C5_2 1_555 1_555
C5_2 H1_2 1_555 1_555
S1_2 C2_2 1_555 1_555
S3_2 C2_2 1_555 1_555
C15_2 C1_2 1_555 1_555
C16_2 C17_2 1_555 1_555
C17_2 S7_2 1_555 1_555
C23_2 C24_2 1_555 1_555
C24_2 H13_2 1_555 1_555
C25_2 C23_2 1_555 1_555
H14_2 C25_2 1_555 1_555
C26_2 C24_2 1_555 1_555
H15_2 C26_2 1_555 1_555
C27_2 C25_2 1_555 1_555
H16_2 C27_2 1_555 1_555
N5_2 C26_2 1_555 1_555
S6_2 C15_2 1_555 1_555
S7_2 C15_2 1_555 1_555
S9_2 C17_2 1_555 1_555
Co3 N5_2 1_555 1_555
C4_2 S3_2 1_555 1_555
C16_2 S6_2 1_555 1_555
C23_2 S9_2 1_555 1_555
C27_2 N5_2 1_555 1_555
C18_2 C19_2 1_555 1_555
C19_2 H9_2 1_555 1_555
C20_2 C19_2 1_555 1_555
H10_2 C20_2 1_555 1_555
C21_2 H11_2 1_555 1_555
C22_2 C18_2 1_555 1_555
N4_2 C20_2 1_555 1_555
Co2 N4_2 1_555 1_555
C18_2 S8_2 1_555 1_555
C21_2 C22_2 1_555 1_555
C21_2 N4_2 1_555 1_555
C3_2 S2_2 1_555 1_555
H2_2 C6_2 1_555 1_555
C7_2 H3_2 1_555 1_555
H4_2 C8_2 1_555 1_555
C9_2 C10_2 1_555 1_555
C10_2 H5_2 1_555 1_555
C11_2 C9_2 1_555 1_555
H6_2 C11_2 1_555 1_555
C12_2 C10_2 1_555 1_555
H7_2 C12_2 1_555 1_555
C13_2 C11_2 1_555 1_555
H8_2 C13_2 1_555 1_555
N7 C6_2 1_555 1_555
N2_2 C12_2 1_555 1_555
S4_2 C3_2 1_555 1_555
Co3 N2_2 1_555 1_555
C7_2 C8_2 1_555 1_555
C7_2 N7 1_555 1_555
C9_2 S4_2 1_555 1_555
C13_2 N2_2 1_555 1_555
C10_3 H5_3 1_555 1_555
C12_3 C10_3 1_555 1_555
H7_3 C12_3 1_555 1_555
N2_3 C12_3 1_555 1_555
Co4_2 N2_3 1_555 1_555
S10_2 C28_2 1_555 1_555
C1_3 S1_3 1_555 1_555
C2_3 C3_3 1_555 1_555
C3_3 S2_3 1_555 1_555
C11_3 C9_3 1_555 1_555
H6_3 C11_3 1_555 1_555
C13_3 C11_3 1_555 1_555
H8_3 C13_3 1_555 1_555
S1_3 C2_3 1_555 1_555
S2_3 C1_3 1_555 1_555
S4_3 C3_3 1_555 1_555
C15_3 C1_3 1_555 1_555
C16_3 C17_3 1_555 1_555
C17_3 S7_3 1_555 1_555
C18_3 C19_3 1_555 1_555
C19_3 H9_3 1_555 1_555
C20_3 C19_3 1_555 1_555
H10_3 C20_3 1_555 1_555
C21_3 H11_3 1_555 1_555
C22_3 C18_3 1_555 1_555
H12_3 C22_3 1_555 1_555
C23_3 C24_3 1_555 1_555
C24_3 H13_3 1_555 1_555
C25_3 C23_3 1_555 1_555
H14_3 C25_3 1_555 1_555
C26_3 C24_3 1_555 1_555
H15_3 C26_3 1_555 1_555
C27_3 C25_3 1_555 1_555
H16_3 C27_3 1_555 1_555
N4_3 C20_3 1_555 1_555
N5_3 C26_3 1_555 1_555
S6_3 C15_3 1_555 1_555
S7_3 C15_3 1_555 1_555
S8_3 C16_3 1_555 1_555
S9_3 C17_3 1_555 1_555
Co2_2 N4_3 1_555 1_555
Co4_2 N5_3 1_555 1_555
C9_3 S4_3 1_555 1_555
C16_3 S6_3 1_555 1_555
C18_3 S8_3 1_555 1_555
C21_3 C22_3 1_555 1_555
C21_3 N4_3 1_555 1_555
C23_3 S9_3 1_555 1_555
C27_3 N5_3 1_555 1_555
C4_3 C5_3 1_555 1_555
C5_3 H1_3 1_555 1_555
C6_3 C5_3 1_555 1_555
H2_3 C6_3 1_555 1_555
C7_3 H3_3 1_555 1_555
C8_3 C4_3 1_555 1_555
C14_2 N3_2 1_555 1_555
N1_2 C6_3 1_555 1_555
N3_2 Co1_2 1_555 1_555
S5_2 C14_2 1_555 1_555
Co1_2 N1_2 1_555 1_555
N6_2 Co1_2 1_555 1_555
N7_2 Co1_2 1_555 1_555
N8_2 Co1_2 1_555 1_555
N9_2 Co1_2 1_555 1_555
C4_3 S3_3 1_555 1_555
C7_3 C8_3 1_555 1_555
C7_3 N1_2 1_555 1_555
C1_4 S1_4 1_555 1_555
C4_4 C5_4 1_555 1_555
C5_4 H1_4 1_555 1_555
S1_4 C2_4 1_555 1_555
S3_4 C2_4 1_555 1_555
C15_4 C1_4 1_555 1_555
C16_4 C17_4 1_555 1_555
C17_4 S7_4 1_555 1_555
C18_4 C19_4 1_555 1_555
C19_4 H9_4 1_555 1_555
C20_4 C19_4 1_555 1_555
H10_4 C20_4 1_555 1_555
C21_4 H11_4 1_555 1_555
C22_4 C18_4 1_555 1_555
H12_4 C22_4 1_555 1_555
C23_4 C24_4 1_555 1_555
C24_4 H13_4 1_555 1_555
C25_4 C23_4 1_555 1_555
H14_4 C25_4 1_555 1_555
C26_4 C24_4 1_555 1_555
H15_4 C26_4 1_555 1_555
C27_4 C25_4 1_555 1_555
H16_4 C27_4 1_555 1_555
N4_4 C20_4 1_555 1_555
N5_4 C26_4 1_555 1_555
S6_4 C15_4 1_555 1_555
S7_4 C15_4 1_555 1_555
S8_4 C16_4 1_555 1_555
S9_4 C17_4 1_555 1_555
Co2_2 N4_4 1_555 1_555
Co3_2 N5_4 1_555 1_555
C4_4 S3_4 1_555 1_555
C16_4 S6_4 1_555 1_555
C18_4 S8_4 1_555 1_555
C21_4 C22_4 1_555 1_555
C21_4 N4_4 1_555 1_555
C23_4 S9_4 1_555 1_555
C27_4 N5_4 1_555 1_555
C3_4 S2_4 1_555 1_555
H2_4 C6_4 1_555 1_555
C7_4 H3_4 1_555 1_555
H4_4 C8_4 1_555 1_555
C9_4 C10_4 1_555 1_555
C10_4 H5_4 1_555 1_555
C11_4 C9_4 1_555 1_555
H6_4 C11_4 1_555 1_555
C12_4 C10_4 1_555 1_555
H7_4 C12_4 1_555 1_555
C13_4 C11_4 1_555 1_555
H8_4 C13_4 1_555 1_555
N7_2 C6_4 1_555 1_555
N2_4 C12_4 1_555 1_555
S4_4 C3_4 1_555 1_555
Co3_2 N2_4 1_555 1_555
C7_4 C8_4 1_555 1_555
C7_4 N7_2 1_555 1_555
C9_4 S4_4 1_555 1_555
C13_4 N2_4 1_555 1_555
C14_3 N3_3 1_555 1_555
N3_3 Co2_2 1_555 1_555
S5_3 C14_3 1_555 1_555
C28_3 N6_3 1_555 1_555
N6_3 Co2_2 1_555 1_555
S10_3 C28_3 1_555 1_555
N8_3 Co2_2 1_555 1_555
N9_3 Co2_2 1_555 1_555
C14_4 N3_4 1_555 1_555
N3_4 Co2 1_555 1_555
S5_4 C14_4 1_555 1_555
C28_4 N6_4 1_555 1_555
N6_4 Co2 1_555 1_555
S10_4 C28_4 1_555 1_555
N8_4 Co2 1_555 1_555
N9_4 Co2 1_555 1_555
C3_5 S2_5 1_555 1_555
H2_5 C6_5 1_555 1_555
C7_5 H3_5 1_555 1_555
H4_5 C8_5 1_555 1_555
C9_5 C10_5 1_555 1_555
C10_5 H5_5 1_555 1_555
C11_5 C9_5 1_555 1_555
H6_5 C11_5 1_555 1_555
C12_5 C10_5 1_555 1_555
H7_5 C12_5 1_555 1_555
C13_5 C11_5 1_555 1_555
H8_5 C13_5 1_555 1_555
N1_3 C6_5 1_555 1_555
N9_3 C12_5 1_555 1_555
N3_5 Co4 1_555 1_555
S4_5 C3_5 1_555 1_555
Co4 N1_3 1_555 1_555
C28_5 N6_5 1_555 1_555
N6_5 Co4 1_555 1_555
S10_5 C28_5 1_555 1_555
N7_3 Co4 1_555 1_555
C7_5 C8_5 1_555 1_555
C7_5 N1_3 1_555 1_555
C9_5 S4_5 1_555 1_555
C13_5 N9_3 1_555 1_555
C1_5 S1_5 1_555 1_555
C4_5 C5_5 1_555 1_555
C5_5 H1_5 1_555 1_555
S1_5 C2_5 1_555 1_555
S3_5 C2_5 1_555 1_555
S5_5 C14_5 1_555 1_555
C15_5 C1_5 1_555 1_555
C16_5 C17_5 1_555 1_555
C17_5 S7_5 1_555 1_555
C18_5 C19_5 1_555 1_555
C19_5 H9_5 1_555 1_555
C20_5 C19_5 1_555 1_555
H10_5 C20_5 1_555 1_555
C21_5 H11_5 1_555 1_555
C22_5 C18_5 1_555 1_555
H12_5 C22_5 1_555 1_555
C23_5 C24_5 1_555 1_555
C24_5 H13_5 1_555 1_555
C25_5 C23_5 1_555 1_555
H14_5 C25_5 1_555 1_555
C26_5 C24_5 1_555 1_555
H15_5 C26_5 1_555 1_555
C27_5 C25_5 1_555 1_555
H16_5 C27_5 1_555 1_555
N4_5 C20_5 1_555 1_555
N8_3 C26_5 1_555 1_555
S6_5 C15_5 1_555 1_555
S7_5 C15_5 1_555 1_555
S8_5 C16_5 1_555 1_555
S9_5 C17_5 1_555 1_555
Co3 N4_5 1_555 1_555
C4_5 S3_5 1_555 1_555
C16_5 S6_5 1_555 1_555
C18_5 S8_5 1_555 1_555
C21_5 C22_5 1_555 1_555
C21_5 N4_5 1_555 1_555
C23_5 S9_5 1_555 1_555
C27_5 N8_3 1_555 1_555
C18_6 C19_6 1_555 1_555
C19_6 H9_6 1_555 1_555
C20_6 C19_6 1_555 1_555
H10_6 C20_6 1_555 1_555
C21_6 H11_6 1_555 1_555
C22_6 C18_6 1_555 1_555
N4_6 C20_6 1_555 1_555
Co3 N4_6 1_555 1_555
C18_6 S8_6 1_555 1_555
C21_6 C22_6 1_555 1_555
C21_6 N4_6 1_555 1_555
C1_6 S1_6 1_555 1_555
C2_6 C3_6 1_555 1_555
C3_6 S2_6 1_555 1_555
C4_6 C5_6 1_555 1_555
C5_6 H1_6 1_555 1_555
C6_6 C5_6 1_555 1_555
H2_6 C6_6 1_555 1_555
C7_6 H3_6 1_555 1_555
C8_6 C4_6 1_555 1_555
H4_6 C8_6 1_555 1_555
C11_6 C9_6 1_555 1_555
H6_6 C11_6 1_555 1_555
C13_6 C11_6 1_555 1_555
H8_6 C13_6 1_555 1_555
N7_3 C6_6 1_555 1_555
S1_6 C2_6 1_555 1_555
S2_6 C1_6 1_555 1_555
S3_6 C2_6 1_555 1_555
S4_6 C3_6 1_555 1_555
C15_6 C1_6 1_555 1_555
C16_6 C17_6 1_555 1_555
C17_6 S7_6 1_555 1_555
C23_6 C24_6 1_555 1_555
C24_6 H13_6 1_555 1_555
C25_6 C23_6 1_555 1_555
H14_6 C25_6 1_555 1_555
C26_6 C24_6 1_555 1_555
H15_6 C26_6 1_555 1_555
C27_6 C25_6 1_555 1_555
H16_6 C27_6 1_555 1_555
N9_2 C26_6 1_555 1_555
S6_6 C15_6 1_555 1_555
S7_6 C15_6 1_555 1_555
S9_6 C17_6 1_555 1_555
C4_6 S3_6 1_555 1_555
C7_6 C8_6 1_555 1_555
C7_6 N7_3 1_555 1_555
C9_6 S4_6 1_555 1_555
C16_6 S6_6 1_555 1_555
C23_6 S9_6 1_555 1_555
C27_6 N9_2 1_555 1_555
C10_6 H5_6 1_555 1_555
C12_6 C10_6 1_555 1_555
H7_6 C12_6 1_555 1_555
N8_2 C12_6 1_555 1_555
H2_7 C6_7 1_555 1_555
C7_7 H3_7 1_555 1_555
N1_4 C6_7 1_555 1_555
N3_6 Co4_2 1_555 1_555
Co4_2 N1_4 1_555 1_555
C28_6 N6_6 1_555 1_555
N6_6 Co4_2 1_555 1_555
S10_6 C28_6 1_555 1_555
N7_4 Co4_2 1_555 1_555
C7_7 C8_7 1_555 1_555
C7_7 N1_4 1_555 1_555
H7_7 C12_7 1_555 1_555
H8_7 C13_7 1_555 1_555
N9_4 C12_7 1_555 1_555
C13_7 N9_4 1_555 1_555
H15_7 C26_7 1_555 1_555
H16_7 C27_7 1_555 1_555
N8_4 C26_7 1_555 1_555
C27_7 N8_4 1_555 1_555
C1_7 S1_7 1_555 1_555
S1_7 C2_7 1_555 1_555
C15_7 C1_7 1_555 1_555
C16_7 C17_7 1_555 1_555
C17_7 S7_7 1_555 1_555
C18_7 C19_7 1_555 1_555
C19_7 H9_7 1_555 1_555
C20_7 C19_7 1_555 1_555
H10_7 C20_7 1_555 1_555
C21_7 H11_7 1_555 1_555
C22_7 C18_7 1_555 1_555
H12_7 C22_7 1_555 1_555
C23_7 C24_7 1_555 1_555
C24_7 H13_7 1_555 1_555
C25_7 C23_7 1_555 1_555
H14_7 C25_7 1_555 1_555
N4_7 C20_7 1_555 1_555
S6_7 C15_7 1_555 1_555
S7_7 C15_7 1_555 1_555
S8_7 C16_7 1_555 1_555
S9_7 C17_7 1_555 1_555
Co3_2 N4_7 1_555 1_555
C16_7 S6_7 1_555 1_555
C18_7 S8_7 1_555 1_555
C21_7 C22_7 1_555 1_555
C21_7 N4_7 1_555 1_555
C23_7 S9_7 1_555 1_555
H8_8 C13_8 1_555 1_555
H15_8 C26_8 1_555 1_555
H16_8 C27_8 1_555 1_555
N9 C26_8 1_555 1_555
C27_8 N9 1_555 1_555
C1_8 S1_8 1_555 1_555
C2_8 C3_7 1_555 1_555
C3_7 S2_7 1_555 1_555
C4_7 C5_7 1_555 1_555
C5_7 H1_7 1_555 1_555
C6_8 C5_7 1_555 1_555
H2_8 C6_8 1_555 1_555
C7_8 H3_8 1_555 1_555
C8_8 C4_7 1_555 1_555
H4_7 C8_8 1_555 1_555
C11_7 C9_7 1_555 1_555
H6_7 C11_7 1_555 1_555
N7_4 C6_8 1_555 1_555
S1_8 C2_8 1_555 1_555
S2_7 C1_8 1_555 1_555
S3_7 C2_8 1_555 1_555
S4_7 C3_7 1_555 1_555
C15_8 C1_8 1_555 1_555
C16_8 C17_8 1_555 1_555
C17_8 S7_8 1_555 1_555
C18_8 C19_8 1_555 1_555
C19_8 H9_8 1_555 1_555
C20_8 C19_8 1_555 1_555
H10_8 C20_8 1_555 1_555
C21_8 H11_8 1_555 1_555
C22_8 C18_8 1_555 1_555
H12_8 C22_8 1_555 1_555
C23_8 C24_8 1_555 1_555
C24_8 H13_8 1_555 1_555
C25_8 C23_8 1_555 1_555
H14_8 C25_8 1_555 1_555
N4_8 C20_8 1_555 1_555
S6_8 C15_8 1_555 1_555
S7_8 C15_8 1_555 1_555
S8_8 C16_8 1_555 1_555
S9_8 C17_8 1_555 1_555
Co3_2 N4_8 1_555 1_555
C4_7 S3_7 1_555 1_555
C7_8 C8_8 1_555 1_555
C7_8 N7_4 1_555 1_555
C9_7 S4_7 1_555 1_555
C16_8 S6_8 1_555 1_555
C18_8 S8_8 1_555 1_555
C21_8 C22_8 1_555 1_555
C21_8 N4_8 1_555 1_555
C23_8 S9_8 1_555 1_555
H7_8 C12_8 1_555 1_555
N8 C12_8 1_555 1_555
C14_6 N3_7 1_555 1_555
N3_7 Co3_2 1_555 1_555
S5_6 C14_6 1_555 1_555
C28_7 N6_7 1_555 1_555
N6_7 Co3_2 1_555 1_555
S10_7 C28_7 1_555 1_555
C14_7 N3_8 1_555 1_555
N3_8 Co3 1_555 1_555
S5_7 C14_7 1_555 1_555
C28_8 N6_8 1_555 1_555
N6_8 Co3 1_555 1_555
S10_8 C28_8 1_555 1_555
C1_9 S1_9 1_555 1_555
C4_8 C5_8 1_555 1_555
C5_8 H1_8 1_555 1_555
S1_9 C2_9 1_555 1_555
S3_8 C2_9 1_555 1_555
S5_8 C14_8 1_555 1_555
C15_9 C1_9 1_555 1_555
C16_9 C17_9 1_555 1_555
C17_9 S7_9 1_555 1_555
C18_9 C19_9 1_555 1_555
C19_9 H9_9 1_555 1_555
C20_9 C19_9 1_555 1_555
H10_9 C20_9 1_555 1_555
C21_9 H11_9 1_555 1_555
C22_9 C18_9 1_555 1_555
H12_9 C22_9 1_555 1_555
C23_9 C24_9 1_555 1_555
C24_9 H13_9 1_555 1_555
C25_9 C23_9 1_555 1_555
H14_9 C25_9 1_555 1_555
C26_9 C24_9 1_555 1_555
H15_9 C26_9 1_555 1_555
C27_9 C25_9 1_555 1_555
H16_9 C27_9 1_555 1_555
N4_9 C20_9 1_555 1_555
N5_5 C26_9 1_555 1_555
S6_9 C15_9 1_555 1_555
S7_9 C15_9 1_555 1_555
S8_9 C16_9 1_555 1_555
S9_9 C17_9 1_555 1_555
Co2_3 N4_9 1_555 1_555
Co3_3 N5_5 1_555 1_555
C4_8 S3_8 1_555 1_555
C16_9 S6_9 1_555 1_555
C18_9 S8_9 1_555 1_555
C21_9 C22_9 1_555 1_555
C21_9 N4_9 1_555 1_555
C23_9 S9_9 1_555 1_555
C27_9 N5_5 1_555 1_555
C3_8 S2_8 1_555 1_555
H2_9 C6_9 1_555 1_555
C7_9 H3_9 1_555 1_555
H4_8 C8_9 1_555 1_555
C9_8 C10_7 1_555 1_555
C10_7 H5_7 1_555 1_555
C11_8 C9_8 1_555 1_555
H6_8 C11_8 1_555 1_555
C12_9 C10_7 1_555 1_555
H7_9 C12_9 1_555 1_555
C13_9 C11_8 1_555 1_555
H8_9 C13_9 1_555 1_555
N1_5 C6_9 1_555 1_555
N2_5 C12_9 1_555 1_555
N3_9 Co1_3 1_555 1_555
S4_8 C3_8 1_555 1_555
Co1_3 N1_5 1_555 1_555
C28_9 N6_9 1_555 1_555
N6_9 Co1_3 1_555 1_555
S10_9 C28_9 1_555 1_555
N7_5 Co1_3 1_555 1_555
N8_5 Co1_3 1_555 1_555
N9_5 Co1_3 1_555 1_555
Co3_3 N2_5 1_555 1_555
C7_9 C8_9 1_555 1_555
C7_9 N1_5 1_555 1_555
C9_8 S4_8 1_555 1_555
C13_9 N2_5 1_555 1_555
C10_8 H5_8 1_555 1_555
C12_10 C10_8 1_555 1_555
H7_10 C12_10 1_555 1_555
N2_6 C12_10 1_555 1_555
Co4_3 N2_6 1_555 1_555
C1_10 S1_10 1_555 1_555
C2_10 C3_9 1_555 1_555
C3_9 S2_9 1_555 1_555
C4_9 C5_9 1_555 1_555
C5_9 H1_9 1_555 1_555
C6_10 C5_9 1_555 1_555
H2_10 C6_10 1_555 1_555
C7_10 H3_10 1_555 1_555
C8_10 C4_9 1_555 1_555
H4_9 C8_10 1_555 1_555
C11_9 C9_9 1_555 1_555
H6_9 C11_9 1_555 1_555
C13_10 C11_9 1_555 1_555
H8_10 C13_10 1_555 1_555
N7_5 C6_10 1_555 1_555
S1_10 C2_10 1_555 1_555
S2_9 C1_10 1_555 1_555
S3_9 C2_10 1_555 1_555
S4_9 C3_9 1_555 1_555
C15_10 C1_10 1_555 1_555
C16_10 C17_10 1_555 1_555
C17_10 S7_10 1_555 1_555
C23_10 C24_10 1_555 1_555
C24_10 H13_10 1_555 1_555
C25_10 C23_10 1_555 1_555
H14_10 C25_10 1_555 1_555
C26_10 C24_10 1_555 1_555
H15_10 C26_10 1_555 1_555
C27_10 C25_10 1_555 1_555
H16_10 C27_10 1_555 1_555
N5_6 C26_10 1_555 1_555
S6_10 C15_10 1_555 1_555
S7_10 C15_10 1_555 1_555
S9_10 C17_10 1_555 1_555
Co4_3 N5_6 1_555 1_555
C4_9 S3_9 1_555 1_555
C7_10 C8_10 1_555 1_555
C7_10 N7_5 1_555 1_555
C9_9 S4_9 1_555 1_555
C16_10 S6_10 1_555 1_555
C23_10 S9_10 1_555 1_555
C27_10 N5_6 1_555 1_555
C18_10 C19_10 1_555 1_555
C19_10 H9_10 1_555 1_555
C20_10 C19_10 1_555 1_555
H10_10 C20_10 1_555 1_555
C21_10 H11_10 1_555 1_555
C22_10 C18_10 1_555 1_555
N4_10 C20_10 1_555 1_555
Co2_3 N4_10 1_555 1_555
C18_10 S8_10 1_555 1_555
C21_10 C22_10 1_555 1_555
C21_10 N4_10 1_555 1_555
C1_11 S1_11 1_555 1_555
S1_11 C2_11 1_555 1_555
C15_11 C1_11 1_555 1_555
C16_11 C17_11 1_555 1_555
C17_11 S7_11 1_555 1_555
C18_11 C19_11 1_555 1_555
C19_11 H9_11 1_555 1_555
C20_11 C19_11 1_555 1_555
H10_11 C20_11 1_555 1_555
C21_11 H11_11 1_555 1_555
C22_11 C18_11 1_555 1_555
H12_11 C22_11 1_555 1_555
C23_11 C24_11 1_555 1_555
C24_11 H13_11 1_555 1_555
C25_11 C23_11 1_555 1_555
H14_11 C25_11 1_555 1_555
N4_11 C20_11 1_555 1_555
S6_11 C15_11 1_555 1_555
S7_11 C15_11 1_555 1_555
S8_11 C16_11 1_555 1_555
S9_11 C17_11 1_555 1_555
Co2_4 N4_11 1_555 1_555
C16_11 S6_11 1_555 1_555
C18_11 S8_11 1_555 1_555
C21_11 C22_11 1_555 1_555
C21_11 N4_11 1_555 1_555
C23_11 S9_11 1_555 1_555
H15_11 C26_11 1_555 1_555
H16_11 C27_11 1_555 1_555
N5_7 C26_11 1_555 1_555
Co3_4 N5_7 1_555 1_555
C27_11 N5_7 1_555 1_555
H7_11 C12_11 1_555 1_555
H8_11 C13_11 1_555 1_555
N2_7 C12_11 1_555 1_555
Co3_4 N2_7 1_555 1_555
C13_11 N2_7 1_555 1_555
H2_11 C6_11 1_555 1_555
C7_11 H3_11 1_555 1_555
N1_6 C6_11 1_555 1_555
N3_10 Co1_4 1_555 1_555
Co1_4 N1_6 1_555 1_555
C28_10 N6_10 1_555 1_555
N6_10 Co1_4 1_555 1_555
S10_10 C28_10 1_555 1_555
N7_6 Co1_4 1_555 1_555
N8_6 Co1_4 1_555 1_555
N9_6 Co1_4 1_555 1_555
C7_11 C8_11 1_555 1_555
C7_11 N1_6 1_555 1_555
H7_12 C12_12 1_555 1_555
N2_8 C12_12 1_555 1_555
Co4_4 N2_8 1_555 1_555
C1_12 S1_12 1_555 1_555
C2_12 C3_10 1_555 1_555
C3_10 S2_10 1_555 1_555
C4_10 C5_10 1_555 1_555
C5_10 H1_10 1_555 1_555
C6_12 C5_10 1_555 1_555
H2_12 C6_12 1_555 1_555
C7_12 H3_12 1_555 1_555
C8_12 C4_10 1_555 1_555
H4_10 C8_12 1_555 1_555
C11_10 C9_10 1_555 1_555
H6_10 C11_10 1_555 1_555
N7_6 C6_12 1_555 1_555
S1_12 C2_12 1_555 1_555
S2_10 C1_12 1_555 1_555
S3_10 C2_12 1_555 1_555
S4_10 C3_10 1_555 1_555
C15_12 C1_12 1_555 1_555
C16_12 C17_12 1_555 1_555
C17_12 S7_12 1_555 1_555
C18_12 C19_12 1_555 1_555
C19_12 H9_12 1_555 1_555
C20_12 C19_12 1_555 1_555
H10_12 C20_12 1_555 1_555
C21_12 H11_12 1_555 1_555
C22_12 C18_12 1_555 1_555
H12_12 C22_12 1_555 1_555
C23_12 C24_12 1_555 1_555
C24_12 H13_12 1_555 1_555
C25_12 C23_12 1_555 1_555
H14_12 C25_12 1_555 1_555
N4_12 C20_12 1_555 1_555
S6_12 C15_12 1_555 1_555
S7_12 C15_12 1_555 1_555
S8_12 C16_12 1_555 1_555
S9_12 C17_12 1_555 1_555
Co2_4 N4_12 1_555 1_555
C4_10 S3_10 1_555 1_555
C7_12 C8_12 1_555 1_555
C7_12 N7_6 1_555 1_555
C9_10 S4_10 1_555 1_555
C16_12 S6_12 1_555 1_555
C18_12 S8_12 1_555 1_555
C21_12 C22_12 1_555 1_555
C21_12 N4_12 1_555 1_555
C23_12 S9_12 1_555 1_555
H8_12 C13_12 1_555 1_555
H15_12 C26_12 1_555 1_555
H16_12 C27_12 1_555 1_555
N5_8 C26_12 1_555 1_555
Co4_4 N5_8 1_555 1_555
C27_12 N5_8 1_555 1_555
C14_9 N3_11 1_555 1_555
N3_11 Co2_4 1_555 1_555
S5_9 C14_9 1_555 1_555
C28_11 N6_11 1_555 1_555
N6_11 Co2_4 1_555 1_555
S10_11 C28_11 1_555 1_555
N8_7 Co2_4 1_555 1_555
N9_7 Co2_4 1_555 1_555
C14_10 N3_12 1_555 1_555
N3_12 Co2_3 1_555 1_555
S5_10 C14_10 1_555 1_555
C28_12 N6_12 1_555 1_555
N6_12 Co2_3 1_555 1_555
S10_12 C28_12 1_555 1_555
N8_8 Co2_3 1_555 1_555
N9_8 Co2_3 1_555 1_555
C1_13 S1_13 1_555 1_555
C2_13 C3_11 1_555 1_555
C3_11 S2_11 1_555 1_555
C4_11 C5_11 1_555 1_555
C5_11 H1_11 1_555 1_555
C6_13 C5_11 1_555 1_555
H2_13 C6_13 1_555 1_555
C7_13 H3_13 1_555 1_555
C8_13 C4_11 1_555 1_555
H4_11 C8_13 1_555 1_555
C11_11 C9_11 1_555 1_555
H6_11 C11_11 1_555 1_555
C13_13 C11_11 1_555 1_555
H8_13 C13_13 1_555 1_555
C14_11 N3_13 1_555 1_555
N1_7 C6_13 1_555 1_555
N3_13 Co4_4 1_555 1_555
S1_13 C2_13 1_555 1_555
S2_11 C1_13 1_555 1_555
S3_11 C2_13 1_555 1_555
S4_11 C3_11 1_555 1_555
S5_11 C14_11 1_555 1_555
Co4_4 N1_7 1_555 1_555
C15_13 C1_13 1_555 1_555
C16_13 C17_13 1_555 1_555
C17_13 S7_13 1_555 1_555
C18_13 C19_13 1_555 1_555
C19_13 H9_13 1_555 1_555
C20_13 C19_13 1_555 1_555
H10_13 C20_13 1_555 1_555
C21_13 H11_13 1_555 1_555
C22_13 C18_13 1_555 1_555
H12_13 C22_13 1_555 1_555
C23_13 C24_13 1_555 1_555
C24_13 H13_13 1_555 1_555
C25_13 C23_13 1_555 1_555
H14_13 C25_13 1_555 1_555
C26_13 C24_13 1_555 1_555
H15_13 C26_13 1_555 1_555
C27_13 C25_13 1_555 1_555
H16_13 C27_13 1_555 1_555
N4_13 C20_13 1_555 1_555
N8_5 C26_13 1_555 1_555
S6_13 C15_13 1_555 1_555
S7_13 C15_13 1_555 1_555
S8_13 C16_13 1_555 1_555
S9_13 C17_13 1_555 1_555
N6_13 Co4_4 1_555 1_555
N7_7 Co4_4 1_555 1_555
Co3_4 N4_13 1_555 1_555
C4_11 S3_11 1_555 1_555
C7_13 C8_13 1_555 1_555
C7_13 N1_7 1_555 1_555
C9_11 S4_11 1_555 1_555
C16_13 S6_13 1_555 1_555
C18_13 S8_13 1_555 1_555
C21_13 C22_13 1_555 1_555
C21_13 N4_13 1_555 1_555
C23_13 S9_13 1_555 1_555
C27_13 N8_5 1_555 1_555
C10_9 H5_9 1_555 1_555
C12_13 C10_9 1_555 1_555
H7_13 C12_13 1_555 1_555
N9_5 C12_13 1_555 1_555
S10_13 C28_13 1_555 1_555
C3_12 S2_12 1_555 1_555
H2_14 C6_14 1_555 1_555
C7_14 H3_14 1_555 1_555
H4_12 C8_14 1_555 1_555
C9_12 C10_10 1_555 1_555
C10_10 H5_10 1_555 1_555
C11_12 C9_12 1_555 1_555
H6_12 C11_12 1_555 1_555
C12_14 C10_10 1_555 1_555
H7_14 C12_14 1_555 1_555
C13_14 C11_12 1_555 1_555
H8_14 C13_14 1_555 1_555
N7_7 C6_14 1_555 1_555
N8_8 C12_14 1_555 1_555
S4_12 C3_12 1_555 1_555
C7_14 C8_14 1_555 1_555
C7_14 N7_7 1_555 1_555
C9_12 S4_12 1_555 1_555
C13_14 N8_8 1_555 1_555
C18_14 C19_14 1_555 1_555
C19_14 H9_14 1_555 1_555
C20_14 C19_14 1_555 1_555
H10_14 C20_14 1_555 1_555
C21_14 H11_14 1_555 1_555
C22_14 C18_14 1_555 1_555
N4_14 C20_14 1_555 1_555
Co3_4 N4_14 1_555 1_555
C18_14 S8_14 1_555 1_555
C21_14 C22_14 1_555 1_555
C21_14 N4_14 1_555 1_555
C1_14 S1_14 1_555 1_555
C4_12 C5_12 1_555 1_555
C5_12 H1_12 1_555 1_555
S1_14 C2_14 1_555 1_555
S3_12 C2_14 1_555 1_555
C15_14 C1_14 1_555 1_555
C16_14 C17_14 1_555 1_555
C17_14 S7_14 1_555 1_555
C23_14 C24_14 1_555 1_555
C24_14 H13_14 1_555 1_555
C25_14 C23_14 1_555 1_555
H14_14 C25_14 1_555 1_555
C26_14 C24_14 1_555 1_555
H15_14 C26_14 1_555 1_555
C27_14 C25_14 1_555 1_555
H16_14 C27_14 1_555 1_555
N9_8 C26_14 1_555 1_555
S6_14 C15_14 1_555 1_555
S7_14 C15_14 1_555 1_555
S9_14 C17_14 1_555 1_555
C4_12 S3_12 1_555 1_555
C16_14 S6_14 1_555 1_555
C23_14 S9_14 1_555 1_555
C27_14 N9_8 1_555 1_555
C4_13 C5_13 1_555 1_555
C5_13 H1_13 1_555 1_555
C6_15 C5_13 1_555 1_555
H2_15 C6_15 1_555 1_555
C7_15 H3_15 1_555 1_555
C8_15 C4_13 1_555 1_555
C14_12 N3_14 1_555 1_555
N1_8 C6_15 1_555 1_555
N3_14 Co4_3 1_555 1_555
S5_12 C14_12 1_555 1_555
Co4_3 N1_8 1_555 1_555
N6_14 Co4_3 1_555 1_555
N7_8 Co4_3 1_555 1_555
C4_13 S3_13 1_555 1_555
C7_15 C8_15 1_555 1_555
C7_15 N1_8 1_555 1_555
C1_15 S1_15 1_555 1_555
C2_15 C3_13 1_555 1_555
C3_13 S2_13 1_555 1_555
C11_13 C9_13 1_555 1_555
H6_13 C11_13 1_555 1_555
C13_15 C11_13 1_555 1_555
H8_15 C13_15 1_555 1_555
S1_15 C2_15 1_555 1_555
S2_13 C1_15 1_555 1_555
S4_13 C3_13 1_555 1_555
C15_15 C1_15 1_555 1_555
C16_15 C17_15 1_555 1_555
C17_15 S7_15 1_555 1_555
C18_15 C19_15 1_555 1_555
C19_15 H9_15 1_555 1_555
C20_15 C19_15 1_555 1_555
H10_15 C20_15 1_555 1_555
C21_15 H11_15 1_555 1_555
C22_15 C18_15 1_555 1_555
H12_15 C22_15 1_555 1_555
C23_15 C24_15 1_555 1_555
C24_15 H13_15 1_555 1_555
C25_15 C23_15 1_555 1_555
H14_15 C25_15 1_555 1_555
C26_15 C24_15 1_555 1_555
H15_15 C26_15 1_555 1_555
C27_15 C25_15 1_555 1_555
H16_15 C27_15 1_555 1_555
N4_15 C20_15 1_555 1_555
N8_6 C26_15 1_555 1_555
S6_15 C15_15 1_555 1_555
S7_15 C15_15 1_555 1_555
S8_15 C16_15 1_555 1_555
S9_15 C17_15 1_555 1_555
Co3_3 N4_15 1_555 1_555
C9_13 S4_13 1_555 1_555
C16_15 S6_15 1_555 1_555
C18_15 S8_15 1_555 1_555
C21_15 C22_15 1_555 1_555
C21_15 N4_15 1_555 1_555
C23_15 S9_15 1_555 1_555
C27_15 N8_6 1_555 1_555
S10_14 C28_14 1_555 1_555
C10_11 H5_11 1_555 1_555
C12_15 C10_11 1_555 1_555
H7_15 C12_15 1_555 1_555
N9_6 C12_15 1_555 1_555
C3_14 S2_14 1_555 1_555
H2_16 C6_16 1_555 1_555
C7_16 H3_16 1_555 1_555
H4_14 C8_16 1_555 1_555
C9_14 C10_12 1_555 1_555
C10_12 H5_12 1_555 1_555
C11_14 C9_14 1_555 1_555
H6_14 C11_14 1_555 1_555
C12_16 C10_12 1_555 1_555
H7_16 C12_16 1_555 1_555
C13_16 C11_14 1_555 1_555
H8_16 C13_16 1_555 1_555
N7_8 C6_16 1_555 1_555
N8_7 C12_16 1_555 1_555
S4_14 C3_14 1_555 1_555
C7_16 C8_16 1_555 1_555
C7_16 N7_8 1_555 1_555
C9_14 S4_14 1_555 1_555
C13_16 N8_7 1_555 1_555
C1_16 S1_16 1_555 1_555
C4_14 C5_14 1_555 1_555
C5_14 H1_14 1_555 1_555
S1_16 C2_16 1_555 1_555
S3_14 C2_16 1_555 1_555
C15_16 C1_16 1_555 1_555
C16_16 C17_16 1_555 1_555
C17_16 S7_16 1_555 1_555
C18_16 C19_16 1_555 1_555
C19_16 H9_16 1_555 1_555
C20_16 C19_16 1_555 1_555
H10_16 C20_16 1_555 1_555
C21_16 H11_16 1_555 1_555
C22_16 C18_16 1_555 1_555
H12_16 C22_16 1_555 1_555
C23_16 C24_16 1_555 1_555
C24_16 H13_16 1_555 1_555
C25_16 C23_16 1_555 1_555
H14_16 C25_16 1_555 1_555
C26_16 C24_16 1_555 1_555
H15_16 C26_16 1_555 1_555
C27_16 C25_16 1_555 1_555
H16_16 C27_16 1_555 1_555
N4_16 C20_16 1_555 1_555
N9_7 C26_16 1_555 1_555
S6_16 C15_16 1_555 1_555
S7_16 C15_16 1_555 1_555
S8_16 C16_16 1_555 1_555
S9_16 C17_16 1_555 1_555
Co3_3 N4_16 1_555 1_555
C4_14 S3_14 1_555 1_555
C16_16 S6_16 1_555 1_555
C18_16 S8_16 1_555 1_555
C21_16 C22_16 1_555 1_555
C21_16 N4_16 1_555 1_555
C23_16 S9_16 1_555 1_555
C27_16 N9_7 1_555 1_555
C14_13 N3_15 1_555 1_555
N3_15 Co3_3 1_555 1_555
S5_13 C14_13 1_555 1_555
C28_15 N6_15 1_555 1_555
N6_15 Co3_3 1_555 1_555
S10_15 C28_15 1_555 1_555
C14_14 N3_16 1_555 1_555
N3_16 Co3_4 1_555 1_555
S5_14 C14_14 1_555 1_555
C28_16 N6_16 1_555 1_555
N6_16 Co3_4 1_555 1_555
S10_16 C28_16 1_555 1_555
C4_15 C5_15 1_555 1_555
C5_15 H1_15 1_555 1_555
S5_15 C14_15 1_555 1_555
C4_15 S3_15 1_555 1_555
C10_13 H5_13 1_555 1_555
C3_15 S2_15 1_555 1_555
C9_15 C10_14 1_555 1_555
C10_14 H5_14 1_555 1_555
C11_15 C9_15 1_555 1_555
H6_15 C11_15 1_555 1_555
S4_15 C3_15 1_555 1_555
C9_15 S4_15 1_555 1_555
C3_16 S2_16 1_555 1_555
C9_16 C10_15 1_555 1_555
C10_15 H5_15 1_555 1_555
C11_16 C9_16 1_555 1_555
H6_16 C11_16 1_555 1_555
S4_16 C3_16 1_555 1_555
C9_16 S4_16 1_555 1_555
C4_16 C5_16 1_555 1_555
C5_16 H1_16 1_555 1_555
S5_16 C14_16 1_555 1_555
C4_16 S3_16 1_555 1_555
C10_16 H5_16 1_555 1_555

#END
