
###############################################################################
#
# This file contains modified crystal structure data generated from the
# MOF subset of the Cambridge Structural Database (CSD) v543 
# hosted by the Cambridge Crystallographic Data Centre (CCDC).
#
# This work is licensed under the Creative Commons
# Attribution-NonCommercial-ShareAlike 4.0 International License.
# To view a copy of this license, visit
# http://creativecommons.org/licenses/by-nc-sa/4.0/
# or send a letter to
# Creative Commons, PO Box 1866, Mountain View, CA 94042, USA.
#
# CIF created using the CSD Python API on 29 September 2022
# The structure has been converted into the P1 space group
# The structure has a 3D framework
# The original CSD entry BORKOL is in the orthorhombic crystal system
# The framework has been calculated to contain at least 10.0% void space
# The void calculation uses a probe of radius 1.32A, grid spacing 0.4
#
###############################################################################

data_BORKOL
_chemical_formula_moiety         '(C448 H256 Fe16 N96 S160)n'
_symmetry_cell_setting           triclinic
_symmetry_space_group_name_H-M   'P 1'
_symmetry_Int_Tables_number      1
_space_group_name_Hall           'P 1'
loop_
_symmetry_equiv_pos_site_id
_symmetry_equiv_pos_as_xyz
1 x,y,z
_cell_length_a                   13.1578(5)
_cell_length_b                   33.0511(13)
_cell_length_c                   40.2845(16)
_cell_angle_alpha                90
_cell_angle_beta                 90
_cell_angle_gamma                90
_cell_volume                     17518.9
loop_
_atom_site_label
_atom_site_type_symbol
_atom_site_fract_x
_atom_site_fract_y
_atom_site_fract_z
C1 C 0.14822(11) 0.60698(4) 0.16840(4)
C2 C 0.27842(12) 0.55243(4) 0.18368(4)
C3 C 0.18835(12) 0.53357(4) 0.18377(4)
C4 C 0.21900(11) 0.45680(4) 0.15998(4)
C5 C 0.26235(12) 0.47505(4) 0.13257(4)
H1 H 0.265569 0.503696 0.130951
C6 C 0.30082(12) 0.45103(4) 0.10764(4)
H2 H 0.330834 0.463962 0.088998
C7 C 0.21496(13) 0.41473(5) 0.16081(4)
H3 H 0.185123 0.401078 0.179129
C8 C 0.25506(12) 0.39323(4) 0.13455(4)
H4 H 0.251653 0.364534 0.135301
C9 C 0.58355(14) 0.55969(6) 0.26301(5)
H5 H 0.646726 0.549632 0.270897
C10 C 0.53899(15) 0.54012(6) 0.23657(5)
H6 H 0.571387 0.517545 0.226521
C11 C 0.44659(12) 0.55379(5) 0.22491(4)
C12 C 0.40298(12) 0.58653(5) 0.24070(4)
H7 H 0.338705 0.596585 0.233816
C13 C 0.45454(12) 0.60437(5) 0.26666(4)
H8 H 0.424287 0.627217 0.277011
C14 C 0.56938(13) 0.43431(5) 0.07330(4)
N1 N 0.29847(9) 0.41051(4) 0.10808(3)
N2 N 0.54406(10) 0.59170(4) 0.27821(3)
N3 N 0.49275(10) 0.41771(4) 0.07052(3)
S1 S 0.08306(3) 0.56072(2) 0.16965(2)
S2 S 0.28052(3) 0.60171(2) 0.16714(2)
S3 S 0.39297(3) 0.52734(2) 0.19124(2)
S4 S 0.16728(3) 0.48285(2) 0.19435(2)
S5 S 0.67840(4) 0.45683(2) 0.07655(2)
Fe1 Fe 0.375000 0.375000 0.06879(2)
C15 C 0.10178(11) 0.64302(4) 0.16840(4)
C17 C 0.06165(12) 0.71643(4) 0.18377(4)
C18 C 0.03100(11) 0.79320(4) 0.15998(4)
C21 C 0.03504(13) 0.83527(5) 0.16081(4)
H11 H 0.064877 0.848922 0.179129
S6 S 0.16694(3) 0.68928(2) 0.16965(2)
S9 S 0.08272(3) 0.76715(2) 0.19435(2)
C28 C 0.18062(13) 0.31569(5) 0.07330(4)
N6 N 0.25725(10) 0.33229(4) 0.07052(3)
S10 S 0.07160(4) 0.29317(2) 0.07655(2)
N7 N 0.45153(9) 0.33949(4) 0.10808(3)
N8 N 0.45594(10) 0.34170(4) 0.02821(3)
N9 N 0.29406(10) 0.40830(4) 0.02821(3)
Fe4 Fe 0.625000 0.625000 0.31879(2)
C16 C 0.97158(12) 0.69757(4) 0.18368(4)
C19 C 0.98765(12) 0.77495(4) 0.13257(4)
H9 H 0.984431 0.746304 0.130951
C20 C 0.94918(12) 0.79897(4) 0.10764(4)
H10 H 0.919166 0.786038 0.088998
C22 C 0.99494(12) 0.85677(4) 0.13455(4)
H12 H 0.998347 0.885466 0.135301
C23 C 0.66645(14) 0.69031(6) 0.26301(5)
H13 H 0.603274 0.700368 0.270897
C24 C 0.71101(15) 0.70988(6) 0.23657(5)
H14 H 0.678613 0.732455 0.226521
C25 C 0.80341(12) 0.69621(5) 0.22491(4)
C26 C 0.84702(12) 0.66347(5) 0.24070(4)
H15 H 0.911295 0.653415 0.233816
C27 C 0.79546(12) 0.64563(5) 0.26666(4)
H16 H 0.825713 0.622783 0.277011
N4 N 0.95153(9) 0.83949(4) 0.10808(3)
N5 N 0.70594(10) 0.65830(4) 0.27821(3)
S7 S 0.96948(3) 0.64829(2) 0.16714(2)
S8 S 0.85703(3) 0.72266(2) 0.19124(2)
Fe2 Fe 0.875000 0.875000 0.06879(2)
C23_2 C 0.08355(14) 0.05969(6) 0.26301(5)
H13_2 H 0.146726 0.049632 0.270897
C24_2 C 0.03899(15) 0.04012(6) 0.23657(5)
H14_2 H 0.071387 0.017545 0.226521
N5_2 N 0.04406(10) 0.09170(4) 0.27821(3)
Fe3 Fe 0.125000 0.125000 0.31879(2)
C1_2 C 0.60178(11) 0.14302(4) 0.16840(4)
C2_2 C 0.47158(12) 0.19757(4) 0.18368(4)
C3_2 C 0.56165(12) 0.21643(4) 0.18377(4)
C4_2 C 0.53100(11) 0.29320(4) 0.15998(4)
C5_2 C 0.48765(12) 0.27495(4) 0.13257(4)
H1_2 H 0.484431 0.246304 0.130951
C6_2 C 0.44918(12) 0.29897(4) 0.10764(4)
H2_2 H 0.419166 0.286038 0.088998
C7_2 C 0.53504(13) 0.33527(5) 0.16081(4)
H3_2 H 0.564877 0.348922 0.179129
C8_2 C 0.49494(12) 0.35677(4) 0.13455(4)
H4_2 H 0.498347 0.385466 0.135301
C9_2 C 0.16645(14) 0.19031(6) 0.26301(5)
H5_2 H 0.103274 0.200368 0.270897
C10_2 C 0.21101(15) 0.20988(6) 0.23657(5)
H6_2 H 0.178613 0.232455 0.226521
C11_2 C 0.30341(12) 0.19621(5) 0.22491(4)
C12_2 C 0.34702(12) 0.16347(5) 0.24070(4)
H7_2 H 0.411295 0.153415 0.233816
C13_2 C 0.29546(12) 0.14563(5) 0.26666(4)
H8_2 H 0.325713 0.122783 0.277011
N2_2 N 0.20594(10) 0.15830(4) 0.27821(3)
S1_2 S 0.66694(3) 0.18928(2) 0.16965(2)
S2_2 S 0.46948(3) 0.14829(2) 0.16714(2)
S3_2 S 0.35703(3) 0.22266(2) 0.19124(2)
S4_2 S 0.58272(3) 0.26715(2) 0.19435(2)
C15_2 C 0.64822(11) 0.10698(4) 0.16840(4)
C16_2 C 0.77842(12) 0.05243(4) 0.18368(4)
C17_2 C 0.68835(12) 0.03357(4) 0.18377(4)
H9_2 H 0.765569 0.003696 0.130951
C25_2 C 0.94659(12) 0.05379(5) 0.22491(4)
C26_2 C 0.90298(12) 0.08653(5) 0.24070(4)
H15_2 H 0.838705 0.096585 0.233816
C27_2 C 0.95454(12) 0.10437(5) 0.26666(4)
H16_2 H 0.924287 0.127217 0.277011
S6_2 S 0.58306(3) 0.06072(2) 0.16965(2)
S7_2 S 0.78052(3) 0.10171(2) 0.16714(2)
S8_2 S 0.89297(3) 0.02734(2) 0.19124(2)
C18_2 C 0.71900(11) 0.95680(4) 0.15998(4)
C19_2 C 0.76235(12) 0.97505(4) 0.13257(4)
C20_2 C 0.80082(12) 0.95103(4) 0.10764(4)
H10_2 H 0.830834 0.963962 0.088998
C21_2 C 0.71496(13) 0.91473(5) 0.16081(4)
H11_2 H 0.685123 0.901078 0.179129
C22_2 C 0.75506(12) 0.89323(4) 0.13455(4)
H12_2 H 0.751653 0.864534 0.135301
N4_2 N 0.79847(9) 0.91051(4) 0.10808(3)
S9_2 S 0.66728(3) 0.98285(2) 0.19435(2)
C1_3 C 0.14822(11) 0.10698(4) 0.66840(4)
C2_3 C 0.27842(12) 0.05243(4) 0.68368(4)
C3_3 C 0.18835(12) 0.03357(4) 0.68377(4)
H1_3 H 0.265569 0.003696 0.630951
C9_3 C 0.58355(14) 0.05969(6) 0.76301(5)
H5_3 H 0.646726 0.049632 0.770897
C10_3 C 0.53899(15) 0.04012(6) 0.73657(5)
H6_3 H 0.571387 0.017545 0.726521
C11_3 C 0.44659(12) 0.05379(5) 0.72491(4)
C12_3 C 0.40298(12) 0.08653(5) 0.74070(4)
H7_3 H 0.338705 0.096585 0.733816
C13_3 C 0.45454(12) 0.10437(5) 0.76666(4)
H8_3 H 0.424287 0.127217 0.777011
N2_3 N 0.54406(10) 0.09170(4) 0.77821(3)
S1_3 S 0.08306(3) 0.06072(2) 0.66965(2)
S2_3 S 0.28052(3) 0.10171(2) 0.66714(2)
S3_3 S 0.39297(3) 0.02734(2) 0.69124(2)
C15_3 C 0.10178(11) 0.14302(4) 0.66840(4)
C17_3 C 0.06165(12) 0.21643(4) 0.68377(4)
C18_3 C 0.03100(11) 0.29320(4) 0.65998(4)
C21_3 C 0.03504(13) 0.33527(5) 0.66081(4)
H11_3 H 0.064877 0.348922 0.679129
S6_3 S 0.16694(3) 0.18928(2) 0.66965(2)
S9_3 S 0.08272(3) 0.26715(2) 0.69435(2)
Fe4_2 Fe 0.625000 0.125000 0.81879(2)
C4_3 C 0.21900(11) 0.95680(4) 0.65998(4)
C5_3 C 0.26235(12) 0.97505(4) 0.63257(4)
C6_3 C 0.30082(12) 0.95103(4) 0.60764(4)
H2_3 H 0.330834 0.963962 0.588998
C7_3 C 0.21496(13) 0.91473(5) 0.66081(4)
H3_3 H 0.185123 0.901078 0.679129
C8_3 C 0.25506(12) 0.89323(4) 0.63455(4)
H4_3 H 0.251653 0.864534 0.635301
C14_2 C 0.56938(13) 0.93431(5) 0.57330(4)
N1_2 N 0.29847(9) 0.91051(4) 0.60808(3)
N3_2 N 0.49275(10) 0.91771(4) 0.57052(3)
S4_3 S 0.16728(3) 0.98285(2) 0.69435(2)
S5_2 S 0.67840(4) 0.95683(2) 0.57655(2)
Fe1_2 Fe 0.375000 0.875000 0.56879(2)
C28_2 C 0.18062(13) 0.81569(5) 0.57330(4)
N6_2 N 0.25725(10) 0.83229(4) 0.57052(3)
S10_2 S 0.07160(4) 0.79317(2) 0.57655(2)
N7_2 N 0.45153(9) 0.83949(4) 0.60808(3)
N8_2 N 0.45594(10) 0.84170(4) 0.52821(3)
N9_2 N 0.29406(10) 0.90830(4) 0.52821(3)
C16_3 C 0.97158(12) 0.19757(4) 0.68368(4)
C19_3 C 0.98765(12) 0.27495(4) 0.63257(4)
H9_3 H 0.984431 0.246304 0.630951
C20_3 C 0.94918(12) 0.29897(4) 0.60764(4)
H10_3 H 0.919166 0.286038 0.588998
C22_3 C 0.99494(12) 0.35677(4) 0.63455(4)
H12_3 H 0.998347 0.385466 0.635301
C23_3 C 0.66645(14) 0.19031(6) 0.76301(5)
H13_3 H 0.603274 0.200368 0.770897
C24_3 C 0.71101(15) 0.20988(6) 0.73657(5)
H14_3 H 0.678613 0.232455 0.726521
C25_3 C 0.80341(12) 0.19621(5) 0.72491(4)
C26_3 C 0.84702(12) 0.16347(5) 0.74070(4)
H15_3 H 0.911295 0.153415 0.733816
C27_3 C 0.79546(12) 0.14563(5) 0.76666(4)
H16_3 H 0.825713 0.122783 0.777011
N4_3 N 0.95153(9) 0.33949(4) 0.60808(3)
N5_3 N 0.70594(10) 0.15830(4) 0.77821(3)
S7_3 S 0.96948(3) 0.14829(2) 0.66714(2)
S8_3 S 0.85703(3) 0.22266(2) 0.69124(2)
Fe2_2 Fe 0.875000 0.375000 0.56879(2)
C23_4 C 0.08355(14) 0.55969(6) 0.76301(5)
H13_4 H 0.146726 0.549632 0.770897
C24_4 C 0.03899(15) 0.54012(6) 0.73657(5)
H14_4 H 0.071387 0.517545 0.726521
N5_4 N 0.04406(10) 0.59170(4) 0.77821(3)
Fe3_2 Fe 0.125000 0.625000 0.81879(2)
C1_4 C 0.60178(11) 0.64302(4) 0.66840(4)
C2_4 C 0.47158(12) 0.69757(4) 0.68368(4)
C3_4 C 0.56165(12) 0.71643(4) 0.68377(4)
C4_4 C 0.53100(11) 0.79320(4) 0.65998(4)
C5_4 C 0.48765(12) 0.77495(4) 0.63257(4)
H1_4 H 0.484431 0.746304 0.630951
C6_4 C 0.44918(12) 0.79897(4) 0.60764(4)
H2_4 H 0.419166 0.786038 0.588998
C7_4 C 0.53504(13) 0.83527(5) 0.66081(4)
H3_4 H 0.564877 0.848922 0.679129
C8_4 C 0.49494(12) 0.85677(4) 0.63455(4)
H4_4 H 0.498347 0.885466 0.635301
C9_4 C 0.16645(14) 0.69031(6) 0.76301(5)
H5_4 H 0.103274 0.700368 0.770897
C10_4 C 0.21101(15) 0.70988(6) 0.73657(5)
H6_4 H 0.178613 0.732455 0.726521
C11_4 C 0.30341(12) 0.69621(5) 0.72491(4)
C12_4 C 0.34702(12) 0.66347(5) 0.74070(4)
H7_4 H 0.411295 0.653415 0.733816
C13_4 C 0.29546(12) 0.64563(5) 0.76666(4)
H8_4 H 0.325713 0.622783 0.777011
N2_4 N 0.20594(10) 0.65830(4) 0.77821(3)
S1_4 S 0.66694(3) 0.68928(2) 0.66965(2)
S2_4 S 0.46948(3) 0.64829(2) 0.66714(2)
S3_4 S 0.35703(3) 0.72266(2) 0.69124(2)
S4_4 S 0.58272(3) 0.76715(2) 0.69435(2)
C15_4 C 0.64822(11) 0.60698(4) 0.66840(4)
C16_4 C 0.77842(12) 0.55243(4) 0.68368(4)
C17_4 C 0.68835(12) 0.53357(4) 0.68377(4)
C18_4 C 0.71900(11) 0.45680(4) 0.65998(4)
C19_4 C 0.76235(12) 0.47505(4) 0.63257(4)
H9_4 H 0.765569 0.503696 0.630951
C20_4 C 0.80082(12) 0.45103(4) 0.60764(4)
H10_4 H 0.830834 0.463962 0.588998
C21_4 C 0.71496(13) 0.41473(5) 0.66081(4)
H11_4 H 0.685123 0.401078 0.679129
C22_4 C 0.75506(12) 0.39323(4) 0.63455(4)
H12_4 H 0.751653 0.364534 0.635301
C25_4 C 0.94659(12) 0.55379(5) 0.72491(4)
C26_4 C 0.90298(12) 0.58653(5) 0.74070(4)
H15_4 H 0.838705 0.596585 0.733816
C27_4 C 0.95454(12) 0.60437(5) 0.76666(4)
H16_4 H 0.924287 0.627217 0.777011
N4_4 N 0.79847(9) 0.41051(4) 0.60808(3)
S6_4 S 0.58306(3) 0.56072(2) 0.66965(2)
S7_4 S 0.78052(3) 0.60171(2) 0.66714(2)
S8_4 S 0.89297(3) 0.52734(2) 0.69124(2)
S9_4 S 0.66728(3) 0.48285(2) 0.69435(2)
C14_3 C 0.06938(13) 0.43431(5) 0.57330(4)
S5_3 S 0.17840(4) 0.45683(2) 0.57655(2)
N3_3 N 0.99275(10) 0.41771(4) 0.57052(3)
C28_3 C 0.68062(13) 0.31569(5) 0.57330(4)
N6_3 N 0.75725(10) 0.33229(4) 0.57052(3)
S10_3 S 0.57160(4) 0.29317(2) 0.57655(2)
N8_3 N 0.95594(10) 0.34170(4) 0.52821(3)
N9_3 N 0.79406(10) 0.40830(4) 0.52821(3)
C14_4 C 0.06938(13) 0.93431(5) 0.07330(4)
S5_4 S 0.17840(4) 0.95683(2) 0.07655(2)
N3_4 N 0.99275(10) 0.91771(4) 0.07052(3)
C28_4 C 0.68062(13) 0.81569(5) 0.07330(4)
N6_4 N 0.75725(10) 0.83229(4) 0.07052(3)
S10_4 S 0.57160(4) 0.79317(2) 0.07655(2)
N8_4 N 0.95594(10) 0.84170(4) 0.02821(3)
N9_4 N 0.79406(10) 0.90830(4) 0.02821(3)
C1_5 C 0.39822(11) 0.39302(4) 0.41840(4)
C2_5 C 0.52842(12) 0.44757(4) 0.43368(4)
C3_5 C 0.43835(12) 0.46643(4) 0.43377(4)
C4_5 C 0.46900(11) 0.54320(4) 0.40998(4)
C5_5 C 0.51235(12) 0.52495(4) 0.38257(4)
H1_5 H 0.515569 0.496304 0.380951
C6_5 C 0.55082(12) 0.54897(4) 0.35764(4)
H2_5 H 0.580834 0.536038 0.338998
C7_5 C 0.46496(13) 0.58527(5) 0.41081(4)
H3_5 H 0.435123 0.598922 0.429129
C8_5 C 0.50506(12) 0.60677(4) 0.38455(4)
H4_5 H 0.501653 0.635466 0.385301
C9_5 C 0.83355(14) 0.44031(6) 0.51301(5)
H5_5 H 0.896726 0.450368 0.520897
C10_5 C 0.78899(15) 0.45988(6) 0.48657(5)
H6_5 H 0.821387 0.482455 0.476521
C11_5 C 0.69659(12) 0.44621(5) 0.47491(4)
C12_5 C 0.65298(12) 0.41347(5) 0.49070(4)
H7_5 H 0.588705 0.403415 0.483816
C13_5 C 0.70454(12) 0.39563(5) 0.51666(4)
H8_5 H 0.674287 0.372783 0.527011
C14_5 C 0.81938(13) 0.56569(5) 0.32330(4)
N1_3 N 0.54847(9) 0.58949(4) 0.35808(3)
N3_5 N 0.74275(10) 0.58229(4) 0.32052(3)
S1_5 S 0.33306(3) 0.43928(2) 0.41965(2)
S2_5 S 0.53052(3) 0.39829(2) 0.41714(2)
S3_5 S 0.64297(3) 0.47266(2) 0.44124(2)
S4_5 S 0.41728(3) 0.51715(2) 0.44435(2)
S5_5 S 0.92840(4) 0.54317(2) 0.32655(2)
C15_5 C 0.35178(11) 0.35698(4) 0.41840(4)
C16_5 C 0.22158(12) 0.30243(4) 0.43368(4)
C17_5 C 0.31165(12) 0.28357(4) 0.43377(4)
C18_5 C 0.28100(11) 0.20680(4) 0.40998(4)
C19_5 C 0.23765(12) 0.22505(4) 0.38257(4)
H9_5 H 0.234431 0.253696 0.380951
C20_5 C 0.19918(12) 0.20103(4) 0.35764(4)
H10_5 H 0.169166 0.213962 0.338998
C21_5 C 0.28504(13) 0.16473(5) 0.41081(4)
H11_5 H 0.314877 0.151078 0.429129
C22_5 C 0.24494(12) 0.14323(4) 0.38455(4)
H12_5 H 0.248347 0.114534 0.385301
C25_5 C 0.05341(12) 0.30379(5) 0.47491(4)
C26_5 C 0.09702(12) 0.33653(5) 0.49070(4)
H15_5 H 0.161295 0.346585 0.483816
C27_5 C 0.04546(12) 0.35437(5) 0.51666(4)
H16_5 H 0.075713 0.377217 0.527011
N4_5 N 0.20153(9) 0.16051(4) 0.35808(3)
S6_5 S 0.41694(3) 0.31072(2) 0.41965(2)
S7_5 S 0.21948(3) 0.35171(2) 0.41714(2)
S8_5 S 0.10703(3) 0.27734(2) 0.44124(2)
S9_5 S 0.33272(3) 0.23285(2) 0.44435(2)
C28_5 C 0.43062(13) 0.68431(5) 0.32330(4)
N6_5 N 0.50725(10) 0.66771(4) 0.32052(3)
S10_5 S 0.32160(4) 0.70683(2) 0.32655(2)
N7_3 N 0.70153(9) 0.66051(4) 0.35808(3)
C23_5 C 0.91645(14) 0.30969(6) 0.51301(5)
H13_5 H 0.853274 0.299632 0.520897
C24_5 C 0.96101(15) 0.29012(6) 0.48657(5)
H14_5 H 0.928613 0.267545 0.476521
C19_6 C 0.01235(12) 0.02495(4) 0.38257(4)
C20_6 C 0.05082(12) 0.04897(4) 0.35764(4)
H10_6 H 0.080834 0.036038 0.338998
C22_6 C 0.00506(12) 0.10677(4) 0.38455(4)
H12_6 H 0.001653 0.135466 0.385301
N4_6 N 0.04847(9) 0.08949(4) 0.35808(3)
C16_6 C 0.02842(12) 0.94757(4) 0.43368(4)
H9_6 H 0.015569 0.996304 0.380951
C23_6 C 0.33355(14) 0.94031(6) 0.51301(5)
H13_6 H 0.396726 0.950368 0.520897
C24_6 C 0.28899(15) 0.95988(6) 0.48657(5)
H14_6 H 0.321387 0.982455 0.476521
C25_6 C 0.19659(12) 0.94621(5) 0.47491(4)
C26_6 C 0.15298(12) 0.91347(5) 0.49070(4)
H15_6 H 0.088705 0.903415 0.483816
C27_6 C 0.20454(12) 0.89563(5) 0.51666(4)
H16_6 H 0.174287 0.872783 0.527011
S7_6 S 0.03052(3) 0.89829(2) 0.41714(2)
S8_6 S 0.14297(3) 0.97266(2) 0.44124(2)
C18_6 C 0.96900(11) 0.04320(4) 0.40998(4)
C21_6 C 0.96496(13) 0.08527(5) 0.41081(4)
H11_6 H 0.935123 0.098922 0.429129
S9_6 S 0.91728(3) 0.01715(2) 0.44435(2)
C1_6 C 0.85178(11) 0.85698(4) 0.41840(4)
C2_6 C 0.72158(12) 0.80243(4) 0.43368(4)
C3_6 C 0.81165(12) 0.78357(4) 0.43377(4)
C4_6 C 0.78100(11) 0.70680(4) 0.40998(4)
C5_6 C 0.73765(12) 0.72505(4) 0.38257(4)
H1_6 H 0.734431 0.753696 0.380951
C6_6 C 0.69918(12) 0.70103(4) 0.35764(4)
H2_6 H 0.669166 0.713962 0.338998
C7_6 C 0.78504(13) 0.66473(5) 0.41081(4)
H3_6 H 0.814877 0.651078 0.429129
C8_6 C 0.74494(12) 0.64323(4) 0.38455(4)
H4_6 H 0.748347 0.614534 0.385301
C9_6 C 0.41645(14) 0.80969(6) 0.51301(5)
H5_6 H 0.353274 0.799632 0.520897
C10_6 C 0.46101(15) 0.79012(6) 0.48657(5)
H6_6 H 0.428613 0.767545 0.476521
C11_6 C 0.55341(12) 0.80379(5) 0.47491(4)
C12_6 C 0.59702(12) 0.83653(5) 0.49070(4)
H7_6 H 0.661295 0.846585 0.483816
C13_6 C 0.54546(12) 0.85437(5) 0.51666(4)
H8_6 H 0.575713 0.877217 0.527011
S1_6 S 0.91694(3) 0.81072(2) 0.41965(2)
S2_6 S 0.71948(3) 0.85171(2) 0.41714(2)
S3_6 S 0.60703(3) 0.77734(2) 0.44124(2)
S4_6 S 0.83272(3) 0.73285(2) 0.44435(2)
C15_6 C 0.89822(11) 0.89302(4) 0.41840(4)
C17_6 C 0.93835(12) 0.96643(4) 0.43377(4)
S6_6 S 0.83306(3) 0.93928(2) 0.41965(2)
C4_7 C 0.46900(11) 0.04320(4) 0.90998(4)
C5_7 C 0.51235(12) 0.02495(4) 0.88257(4)
C6_7 C 0.55082(12) 0.04897(4) 0.85764(4)
H2_7 H 0.580834 0.036038 0.838998
C7_7 C 0.46496(13) 0.08527(5) 0.91081(4)
H3_7 H 0.435123 0.098922 0.929129
C8_7 C 0.50506(12) 0.10677(4) 0.88455(4)
H4_7 H 0.501653 0.135466 0.885301
C14_6 C 0.81938(13) 0.06569(5) 0.82330(4)
N1_4 N 0.54847(9) 0.08949(4) 0.85808(3)
N3_6 N 0.74275(10) 0.08229(4) 0.82052(3)
S4_7 S 0.41728(3) 0.01715(2) 0.94435(2)
S5_6 S 0.92840(4) 0.04317(2) 0.82655(2)
C28_6 C 0.43062(13) 0.18431(5) 0.82330(4)
N6_6 N 0.50725(10) 0.16771(4) 0.82052(3)
S10_6 S 0.32160(4) 0.20683(2) 0.82655(2)
N7_4 N 0.70153(9) 0.16051(4) 0.85808(3)
C9_7 C 0.83355(14) 0.94031(6) 0.01301(5)
H5_7 H 0.896726 0.950368 0.020897
C13_7 C 0.70454(12) 0.89563(5) 0.01666(4)
H8_7 H 0.674287 0.872783 0.027011
C27_7 C 0.04546(12) 0.85437(5) 0.01666(4)
H16_7 H 0.075713 0.877217 0.027011
C1_7 C 0.39822(11) 0.89302(4) 0.91840(4)
C2_7 C 0.52842(12) 0.94757(4) 0.93368(4)
C3_7 C 0.43835(12) 0.96643(4) 0.93377(4)
H1_7 H 0.515569 0.996304 0.880951
C10_7 C 0.78899(15) 0.95988(6) 0.98657(5)
H6_7 H 0.821387 0.982455 0.976521
C11_7 C 0.69659(12) 0.94621(5) 0.97491(4)
C12_7 C 0.65298(12) 0.91347(5) 0.99070(4)
H7_7 H 0.588705 0.903415 0.983816
S1_7 S 0.33306(3) 0.93928(2) 0.91965(2)
S2_7 S 0.53052(3) 0.89829(2) 0.91714(2)
S3_7 S 0.64297(3) 0.97266(2) 0.94124(2)
C15_7 C 0.35178(11) 0.85698(4) 0.91840(4)
C16_7 C 0.22158(12) 0.80243(4) 0.93368(4)
C17_7 C 0.31165(12) 0.78357(4) 0.93377(4)
C18_7 C 0.28100(11) 0.70680(4) 0.90998(4)
C19_7 C 0.23765(12) 0.72505(4) 0.88257(4)
H9_7 H 0.234431 0.753696 0.880951
C20_7 C 0.19918(12) 0.70103(4) 0.85764(4)
H10_7 H 0.169166 0.713962 0.838998
C21_7 C 0.28504(13) 0.66473(5) 0.91081(4)
H11_7 H 0.314877 0.651078 0.929129
C22_7 C 0.24494(12) 0.64323(4) 0.88455(4)
H12_7 H 0.248347 0.614534 0.885301
C25_7 C 0.05341(12) 0.80379(5) 0.97491(4)
C26_7 C 0.09702(12) 0.83653(5) 0.99070(4)
H15_7 H 0.161295 0.846585 0.983816
N4_7 N 0.20153(9) 0.66051(4) 0.85808(3)
S6_7 S 0.41694(3) 0.81072(2) 0.91965(2)
S7_7 S 0.21948(3) 0.85171(2) 0.91714(2)
S8_7 S 0.10703(3) 0.77734(2) 0.94124(2)
S9_7 S 0.33272(3) 0.73285(2) 0.94435(2)
C23_7 C 0.91645(14) 0.80969(6) 0.01301(5)
H13_7 H 0.853274 0.799632 0.020897
C24_7 C 0.96101(15) 0.79012(6) 0.98657(5)
H14_7 H 0.928613 0.767545 0.976521
C23_8 C 0.33355(14) 0.44031(6) 0.01301(5)
H13_8 H 0.396726 0.450368 0.020897
C27_8 C 0.20454(12) 0.39563(5) 0.01666(4)
H16_8 H 0.174287 0.372783 0.027011
C16_8 C 0.02842(12) 0.44757(4) 0.93368(4)
C19_8 C 0.01235(12) 0.52495(4) 0.88257(4)
H9_8 H 0.015569 0.496304 0.880951
C20_8 C 0.05082(12) 0.54897(4) 0.85764(4)
H10_8 H 0.080834 0.536038 0.838998
C22_8 C 0.00506(12) 0.60677(4) 0.88455(4)
H12_8 H 0.001653 0.635466 0.885301
C24_8 C 0.28899(15) 0.45988(6) 0.98657(5)
H14_8 H 0.321387 0.482455 0.976521
C25_8 C 0.19659(12) 0.44621(5) 0.97491(4)
C26_8 C 0.15298(12) 0.41347(5) 0.99070(4)
H15_8 H 0.088705 0.403415 0.983816
N4_8 N 0.04847(9) 0.58949(4) 0.85808(3)
S7_8 S 0.03052(3) 0.39829(2) 0.91714(2)
S8_8 S 0.14297(3) 0.47266(2) 0.94124(2)
C9_8 C 0.41645(14) 0.30969(6) 0.01301(5)
H5_8 H 0.353274 0.299632 0.020897
C13_8 C 0.54546(12) 0.35437(5) 0.01666(4)
H8_8 H 0.575713 0.377217 0.027011
C1_8 C 0.85178(11) 0.35698(4) 0.91840(4)
C2_8 C 0.72158(12) 0.30243(4) 0.93368(4)
C3_8 C 0.81165(12) 0.28357(4) 0.93377(4)
C4_8 C 0.78100(11) 0.20680(4) 0.90998(4)
C5_8 C 0.73765(12) 0.22505(4) 0.88257(4)
H1_8 H 0.734431 0.253696 0.880951
C6_8 C 0.69918(12) 0.20103(4) 0.85764(4)
H2_8 H 0.669166 0.213962 0.838998
C7_8 C 0.78504(13) 0.16473(5) 0.91081(4)
H3_8 H 0.814877 0.151078 0.929129
C8_8 C 0.74494(12) 0.14323(4) 0.88455(4)
H4_8 H 0.748347 0.114534 0.885301
C10_8 C 0.46101(15) 0.29012(6) 0.98657(5)
H6_8 H 0.428613 0.267545 0.976521
C11_8 C 0.55341(12) 0.30379(5) 0.97491(4)
C12_8 C 0.59702(12) 0.33653(5) 0.99070(4)
H7_8 H 0.661295 0.346585 0.983816
S1_8 S 0.91694(3) 0.31072(2) 0.91965(2)
S2_8 S 0.71948(3) 0.35171(2) 0.91714(2)
S3_8 S 0.60703(3) 0.27734(2) 0.94124(2)
S4_8 S 0.83272(3) 0.23285(2) 0.94435(2)
C15_8 C 0.89822(11) 0.39302(4) 0.91840(4)
C17_8 C 0.93835(12) 0.46643(4) 0.93377(4)
C18_8 C 0.96900(11) 0.54320(4) 0.90998(4)
C21_8 C 0.96496(13) 0.58527(5) 0.91081(4)
H11_8 H 0.935123 0.598922 0.929129
S6_8 S 0.83306(3) 0.43928(2) 0.91965(2)
S9_8 S 0.91728(3) 0.51715(2) 0.94435(2)
C14_7 C 0.31938(13) 0.56569(5) 0.82330(4)
N3_7 N 0.24275(10) 0.58229(4) 0.82052(3)
S5_7 S 0.42840(4) 0.54317(2) 0.82655(2)
N6_7 N 0.00725(10) 0.66771(4) 0.82052(3)
C28_7 C 0.93062(13) 0.68431(5) 0.82330(4)
S10_7 S 0.82160(4) 0.70683(2) 0.82655(2)
C14_8 C 0.31938(13) 0.06569(5) 0.32330(4)
N3_8 N 0.24275(10) 0.08229(4) 0.32052(3)
S5_8 S 0.42840(4) 0.04317(2) 0.32655(2)
N6_8 N 0.00725(10) 0.16771(4) 0.32052(3)
C28_8 C 0.93062(13) 0.18431(5) 0.32330(4)
S10_8 S 0.82160(4) 0.20683(2) 0.32655(2)
C23_9 C 0.08355(14) 0.69031(6) 0.48699(5)
H13_9 H 0.146726 0.700368 0.479103
C24_9 C 0.03899(15) 0.70988(6) 0.51343(5)
H14_9 H 0.071387 0.732455 0.523479
N5_5 N 0.04406(10) 0.65830(4) 0.47179(3)
Fe3_3 Fe 0.125000 0.625000 0.43121(2)
C1_9 C 0.60178(11) 0.60698(4) 0.58160(4)
C2_9 C 0.47158(12) 0.55243(4) 0.56632(4)
C3_9 C 0.56165(12) 0.53357(4) 0.56623(4)
C4_9 C 0.53100(11) 0.45680(4) 0.59002(4)
C5_9 C 0.48765(12) 0.47505(4) 0.61743(4)
H1_9 H 0.484431 0.503696 0.619049
C6_9 C 0.44918(12) 0.45103(4) 0.64236(4)
H2_9 H 0.419166 0.463962 0.661002
C7_9 C 0.53504(13) 0.41473(5) 0.58919(4)
H3_9 H 0.564877 0.401078 0.570871
C8_9 C 0.49494(12) 0.39323(4) 0.61545(4)
H4_9 H 0.498347 0.364534 0.614699
C9_9 C 0.16645(14) 0.55969(6) 0.48699(5)
H5_9 H 0.103274 0.549632 0.479103
C10_9 C 0.21101(15) 0.54012(6) 0.51343(5)
H6_9 H 0.178613 0.517545 0.523479
C11_9 C 0.30341(12) 0.55379(5) 0.52509(4)
C12_9 C 0.34702(12) 0.58653(5) 0.50930(4)
H7_9 H 0.411295 0.596585 0.516184
C13_9 C 0.29546(12) 0.60437(5) 0.48334(4)
H8_9 H 0.325713 0.627217 0.472989
C14_9 C 0.18062(13) 0.43431(5) 0.67670(4)
N1_5 N 0.45153(9) 0.41051(4) 0.64192(3)
N2_5 N 0.20594(10) 0.59170(4) 0.47179(3)
N3_9 N 0.25725(10) 0.41771(4) 0.67948(3)
S1_9 S 0.66694(3) 0.56072(2) 0.58035(2)
S2_9 S 0.46948(3) 0.60171(2) 0.58286(2)
S3_9 S 0.35703(3) 0.52734(2) 0.55876(2)
S4_9 S 0.58272(3) 0.48285(2) 0.55565(2)
S5_9 S 0.07160(4) 0.45683(2) 0.67345(2)
Fe1_3 Fe 0.375000 0.375000 0.68121(2)
C15_9 C 0.64822(11) 0.64302(4) 0.58160(4)
C16_9 C 0.77842(12) 0.69757(4) 0.56632(4)
C17_9 C 0.68835(12) 0.71643(4) 0.56623(4)
C18_9 C 0.71900(11) 0.79320(4) 0.59002(4)
C19_9 C 0.76235(12) 0.77495(4) 0.61743(4)
H9_9 H 0.765569 0.746304 0.619049
C20_9 C 0.80082(12) 0.79897(4) 0.64236(4)
H10_9 H 0.830834 0.786038 0.661002
C21_9 C 0.71496(13) 0.83527(5) 0.58919(4)
H11_9 H 0.685123 0.848922 0.570871
C22_9 C 0.75506(12) 0.85677(4) 0.61545(4)
H12_9 H 0.751653 0.885466 0.614699
C25_9 C 0.94659(12) 0.69621(5) 0.52509(4)
C26_9 C 0.90298(12) 0.66347(5) 0.50930(4)
H15_9 H 0.838705 0.653415 0.516184
C27_9 C 0.95454(12) 0.64563(5) 0.48334(4)
H16_9 H 0.924287 0.622783 0.472989
N4_9 N 0.79847(9) 0.83949(4) 0.64192(3)
S6_9 S 0.58306(3) 0.68928(2) 0.58035(2)
S7_9 S 0.78052(3) 0.64829(2) 0.58286(2)
S8_9 S 0.89297(3) 0.72266(2) 0.55876(2)
S9_9 S 0.66728(3) 0.76715(2) 0.55565(2)
C28_9 C 0.56938(13) 0.31569(5) 0.67670(4)
N6_9 N 0.49275(10) 0.33229(4) 0.67948(3)
S10_9 S 0.67840(4) 0.29317(2) 0.67345(2)
N7_5 N 0.29847(9) 0.33949(4) 0.64192(3)
N8_5 N 0.29406(10) 0.34170(4) 0.72179(3)
N9_5 N 0.45594(10) 0.40830(4) 0.72179(3)
Fe2_3 Fe 0.875000 0.875000 0.68121(2)
C1_10 C 0.14822(11) 0.14302(4) 0.58160(4)
C2_10 C 0.27842(12) 0.19757(4) 0.56632(4)
C3_10 C 0.18835(12) 0.21643(4) 0.56623(4)
C4_10 C 0.21900(11) 0.29320(4) 0.59002(4)
C5_10 C 0.26235(12) 0.27495(4) 0.61743(4)
H1_10 H 0.265569 0.246304 0.619049
C6_10 C 0.30082(12) 0.29897(4) 0.64236(4)
H2_10 H 0.330834 0.286038 0.661002
C7_10 C 0.21496(13) 0.33527(5) 0.58919(4)
H3_10 H 0.185123 0.348922 0.570871
C8_10 C 0.25506(12) 0.35677(4) 0.61545(4)
H4_10 H 0.251653 0.385466 0.614699
C9_10 C 0.58355(14) 0.19031(6) 0.48699(5)
H5_10 H 0.646726 0.200368 0.479103
C10_10 C 0.53899(15) 0.20988(6) 0.51343(5)
H6_10 H 0.571387 0.232455 0.523479
C11_10 C 0.44659(12) 0.19621(5) 0.52509(4)
C12_10 C 0.40298(12) 0.16347(5) 0.50930(4)
H7_10 H 0.338705 0.153415 0.516184
C13_10 C 0.45454(12) 0.14563(5) 0.48334(4)
H8_10 H 0.424287 0.122783 0.472989
N2_6 N 0.54406(10) 0.15830(4) 0.47179(3)
S1_10 S 0.08306(3) 0.18928(2) 0.58035(2)
S2_10 S 0.28052(3) 0.14829(2) 0.58286(2)
S3_10 S 0.39297(3) 0.22266(2) 0.55876(2)
S4_10 S 0.16728(3) 0.26715(2) 0.55565(2)
C15_10 C 0.10178(11) 0.10698(4) 0.58160(4)
C17_10 C 0.06165(12) 0.03357(4) 0.56623(4)
S6_10 S 0.16694(3) 0.06072(2) 0.58035(2)
Fe4_3 Fe 0.625000 0.125000 0.43121(2)
C18_10 C 0.03100(11) 0.95680(4) 0.59002(4)
C21_10 C 0.03504(13) 0.91473(5) 0.58919(4)
H11_10 H 0.064877 0.901078 0.570871
S9_10 S 0.08272(3) 0.98285(2) 0.55565(2)
C16_10 C 0.97158(12) 0.05243(4) 0.56632(4)
H9_10 H 0.984431 0.003696 0.619049
C23_10 C 0.66645(14) 0.05969(6) 0.48699(5)
H13_10 H 0.603274 0.049632 0.479103
C24_10 C 0.71101(15) 0.04012(6) 0.51343(5)
H14_10 H 0.678613 0.017545 0.523479
C25_10 C 0.80341(12) 0.05379(5) 0.52509(4)
C26_10 C 0.84702(12) 0.08653(5) 0.50930(4)
H15_10 H 0.911295 0.096585 0.516184
C27_10 C 0.79546(12) 0.10437(5) 0.48334(4)
H16_10 H 0.825713 0.127217 0.472989
N5_6 N 0.70594(10) 0.09170(4) 0.47179(3)
S7_10 S 0.96948(3) 0.10171(2) 0.58286(2)
S8_10 S 0.85703(3) 0.02734(2) 0.55876(2)
C19_10 C 0.98765(12) 0.97505(4) 0.61743(4)
C20_10 C 0.94918(12) 0.95103(4) 0.64236(4)
H10_10 H 0.919166 0.963962 0.661002
C22_10 C 0.99494(12) 0.89323(4) 0.61545(4)
H12_10 H 0.998347 0.864534 0.614699
N4_10 N 0.95153(9) 0.91051(4) 0.64192(3)
C24_11 C 0.03899(15) 0.20988(6) 0.01343(5)
H14_11 H 0.071387 0.232455 0.023479
C23_11 C 0.08355(14) 0.19031(6) 0.98699(5)
H13_11 H 0.146726 0.200368 0.979103
N5_7 N 0.04406(10) 0.15830(4) 0.97179(3)
Fe3_4 Fe 0.125000 0.125000 0.93121(2)
C1_11 C 0.60178(11) 0.10698(4) 0.08160(4)
C2_11 C 0.47158(12) 0.05243(4) 0.06632(4)
C3_11 C 0.56165(12) 0.03357(4) 0.06623(4)
H1_11 H 0.484431 0.003696 0.119049
C10_11 C 0.21101(15) 0.04012(6) 0.01343(5)
H6_11 H 0.178613 0.017545 0.023479
C11_11 C 0.30341(12) 0.05379(5) 0.02509(4)
C12_11 C 0.34702(12) 0.08653(5) 0.00930(4)
H7_11 H 0.411295 0.096585 0.016184
S1_11 S 0.66694(3) 0.06072(2) 0.08035(2)
S2_11 S 0.46948(3) 0.10171(2) 0.08286(2)
S3_11 S 0.35703(3) 0.02734(2) 0.05876(2)
C15_11 C 0.64822(11) 0.14302(4) 0.08160(4)
C16_11 C 0.77842(12) 0.19757(4) 0.06632(4)
C17_11 C 0.68835(12) 0.21643(4) 0.06623(4)
C18_11 C 0.71900(11) 0.29320(4) 0.09002(4)
C19_11 C 0.76235(12) 0.27495(4) 0.11743(4)
H9_11 H 0.765569 0.246304 0.119049
C20_11 C 0.80082(12) 0.29897(4) 0.14236(4)
H10_11 H 0.830834 0.286038 0.161002
C21_11 C 0.71496(13) 0.33527(5) 0.08919(4)
H11_11 H 0.685123 0.348922 0.070871
C22_11 C 0.75506(12) 0.35677(4) 0.11545(4)
H12_11 H 0.751653 0.385466 0.114699
C25_11 C 0.94659(12) 0.19621(5) 0.02509(4)
C26_11 C 0.90298(12) 0.16347(5) 0.00930(4)
H15_11 H 0.838705 0.153415 0.016184
N4_11 N 0.79847(9) 0.33949(4) 0.14192(3)
S6_11 S 0.58306(3) 0.18928(2) 0.08035(2)
S7_11 S 0.78052(3) 0.14829(2) 0.08286(2)
S8_11 S 0.89297(3) 0.22266(2) 0.05876(2)
S9_11 S 0.66728(3) 0.26715(2) 0.05565(2)
Fe2_4 Fe 0.875000 0.375000 0.18121(2)
C9_11 C 0.16645(14) 0.05969(6) 0.98699(5)
H5_11 H 0.103274 0.049632 0.979103
C13_11 C 0.29546(12) 0.10437(5) 0.98334(4)
H8_11 H 0.325713 0.127217 0.972989
N2_7 N 0.20594(10) 0.09170(4) 0.97179(3)
C27_11 C 0.95454(12) 0.14563(5) 0.98334(4)
H16_11 H 0.924287 0.122783 0.972989
C4_11 C 0.53100(11) 0.95680(4) 0.09002(4)
C5_11 C 0.48765(12) 0.97505(4) 0.11743(4)
C6_11 C 0.44918(12) 0.95103(4) 0.14236(4)
H2_11 H 0.419166 0.963962 0.161002
C7_11 C 0.53504(13) 0.91473(5) 0.08919(4)
H3_11 H 0.564877 0.901078 0.070871
C8_11 C 0.49494(12) 0.89323(4) 0.11545(4)
H4_11 H 0.498347 0.864534 0.114699
C14_10 C 0.18062(13) 0.93431(5) 0.17670(4)
N1_6 N 0.45153(9) 0.91051(4) 0.14192(3)
N3_10 N 0.25725(10) 0.91771(4) 0.17948(3)
S4_11 S 0.58272(3) 0.98285(2) 0.05565(2)
S5_10 S 0.07160(4) 0.95683(2) 0.17345(2)
Fe1_4 Fe 0.375000 0.875000 0.18121(2)
C28_10 C 0.56938(13) 0.81569(5) 0.17670(4)
N6_10 N 0.49275(10) 0.83229(4) 0.17948(3)
S10_10 S 0.67840(4) 0.79317(2) 0.17345(2)
N7_6 N 0.29847(9) 0.83949(4) 0.14192(3)
N8_6 N 0.29406(10) 0.84170(4) 0.22179(3)
N9_6 N 0.45594(10) 0.90830(4) 0.22179(3)
C1_12 C 0.14822(11) 0.64302(4) 0.08160(4)
C2_12 C 0.27842(12) 0.69757(4) 0.06632(4)
C3_12 C 0.18835(12) 0.71643(4) 0.06623(4)
C4_12 C 0.21900(11) 0.79320(4) 0.09002(4)
C5_12 C 0.26235(12) 0.77495(4) 0.11743(4)
H1_12 H 0.265569 0.746304 0.119049
C6_12 C 0.30082(12) 0.79897(4) 0.14236(4)
H2_12 H 0.330834 0.786038 0.161002
C7_12 C 0.21496(13) 0.83527(5) 0.08919(4)
H3_12 H 0.185123 0.848922 0.070871
C8_12 C 0.25506(12) 0.85677(4) 0.11545(4)
H4_12 H 0.251653 0.885466 0.114699
C10_12 C 0.53899(15) 0.70988(6) 0.01343(5)
H6_12 H 0.571387 0.732455 0.023479
C11_12 C 0.44659(12) 0.69621(5) 0.02509(4)
C12_12 C 0.40298(12) 0.66347(5) 0.00930(4)
H7_12 H 0.338705 0.653415 0.016184
S1_12 S 0.08306(3) 0.68928(2) 0.08035(2)
S2_12 S 0.28052(3) 0.64829(2) 0.08286(2)
S3_12 S 0.39297(3) 0.72266(2) 0.05876(2)
S4_12 S 0.16728(3) 0.76715(2) 0.05565(2)
C15_12 C 0.10178(11) 0.60698(4) 0.08160(4)
C17_12 C 0.06165(12) 0.53357(4) 0.06623(4)
C18_12 C 0.03100(11) 0.45680(4) 0.09002(4)
C21_12 C 0.03504(13) 0.41473(5) 0.08919(4)
H11_12 H 0.064877 0.401078 0.070871
S6_12 S 0.16694(3) 0.56072(2) 0.08035(2)
S9_12 S 0.08272(3) 0.48285(2) 0.05565(2)
C9_12 C 0.58355(14) 0.69031(6) 0.98699(5)
H5_12 H 0.646726 0.700368 0.979103
C13_12 C 0.45454(12) 0.64563(5) 0.98334(4)
H8_12 H 0.424287 0.622783 0.972989
N2_8 N 0.54406(10) 0.65830(4) 0.97179(3)
Fe4_4 Fe 0.625000 0.625000 0.93121(2)
C16_12 C 0.97158(12) 0.55243(4) 0.06632(4)
C19_12 C 0.98765(12) 0.47505(4) 0.11743(4)
H9_12 H 0.984431 0.503696 0.119049
C20_12 C 0.94918(12) 0.45103(4) 0.14236(4)
H10_12 H 0.919166 0.463962 0.161002
C22_12 C 0.99494(12) 0.39323(4) 0.11545(4)
H12_12 H 0.998347 0.364534 0.114699
C24_12 C 0.71101(15) 0.54012(6) 0.01343(5)
H14_12 H 0.678613 0.517545 0.023479
C25_12 C 0.80341(12) 0.55379(5) 0.02509(4)
C26_12 C 0.84702(12) 0.58653(5) 0.00930(4)
H15_12 H 0.911295 0.596585 0.016184
N4_12 N 0.95153(9) 0.41051(4) 0.14192(3)
S7_12 S 0.96948(3) 0.60171(2) 0.08286(2)
S8_12 S 0.85703(3) 0.52734(2) 0.05876(2)
C23_12 C 0.66645(14) 0.55969(6) 0.98699(5)
H13_12 H 0.603274 0.549632 0.979103
C27_12 C 0.79546(12) 0.60437(5) 0.98334(4)
H16_12 H 0.825713 0.627217 0.972989
N5_8 N 0.70594(10) 0.59170(4) 0.97179(3)
C28_11 C 0.06938(13) 0.31569(5) 0.17670(4)
S10_11 S 0.17840(4) 0.29317(2) 0.17345(2)
C14_11 C 0.68062(13) 0.43431(5) 0.17670(4)
N3_11 N 0.75725(10) 0.41771(4) 0.17948(3)
S5_11 S 0.57160(4) 0.45683(2) 0.17345(2)
N6_11 N 0.99275(10) 0.33229(4) 0.17948(3)
N8_7 N 0.79406(10) 0.34170(4) 0.22179(3)
N9_7 N 0.95594(10) 0.40830(4) 0.22179(3)
C28_12 C 0.06938(13) 0.81569(5) 0.67670(4)
S10_12 S 0.17840(4) 0.79317(2) 0.67345(2)
C14_12 C 0.68062(13) 0.93431(5) 0.67670(4)
N3_12 N 0.75725(10) 0.91771(4) 0.67948(3)
S5_12 S 0.57160(4) 0.95683(2) 0.67345(2)
N6_12 N 0.99275(10) 0.83229(4) 0.67948(3)
N8_8 N 0.79406(10) 0.84170(4) 0.72179(3)
N9_8 N 0.95594(10) 0.90830(4) 0.72179(3)
C16_13 C 0.02842(12) 0.30243(4) 0.81632(4)
C19_13 C 0.01235(12) 0.22505(4) 0.86743(4)
H9_13 H 0.015569 0.253696 0.869049
C20_13 C 0.05082(12) 0.20103(4) 0.89236(4)
H10_13 H 0.080834 0.213962 0.911002
C22_13 C 0.00506(12) 0.14323(4) 0.86545(4)
H12_13 H 0.001653 0.114534 0.864699
C23_13 C 0.33355(14) 0.30969(6) 0.73699(5)
H13_13 H 0.396726 0.299632 0.729103
C24_13 C 0.28899(15) 0.29012(6) 0.76343(5)
H14_13 H 0.321387 0.267545 0.773479
C25_13 C 0.19659(12) 0.30379(5) 0.77509(4)
C26_13 C 0.15298(12) 0.33653(5) 0.75930(4)
H15_13 H 0.088705 0.346585 0.766184
C27_13 C 0.20454(12) 0.35437(5) 0.73334(4)
H16_13 H 0.174287 0.377217 0.722989
N4_13 N 0.04847(9) 0.16051(4) 0.89192(3)
S7_13 S 0.03052(3) 0.35171(2) 0.83286(2)
S8_13 S 0.14297(3) 0.27734(2) 0.80876(2)
C1_13 C 0.85178(11) 0.39302(4) 0.83160(4)
C2_13 C 0.72158(12) 0.44757(4) 0.81632(4)
C3_13 C 0.81165(12) 0.46643(4) 0.81623(4)
C4_13 C 0.78100(11) 0.54320(4) 0.84002(4)
C5_13 C 0.73765(12) 0.52495(4) 0.86743(4)
H1_13 H 0.734431 0.496304 0.869049
C6_13 C 0.69918(12) 0.54897(4) 0.89236(4)
H2_13 H 0.669166 0.536038 0.911002
C7_13 C 0.78504(13) 0.58527(5) 0.83919(4)
H3_13 H 0.814877 0.598922 0.820871
C8_13 C 0.74494(12) 0.60677(4) 0.86545(4)
H4_13 H 0.748347 0.635466 0.864699
C9_13 C 0.41645(14) 0.44031(6) 0.73699(5)
H5_13 H 0.353274 0.450368 0.729103
C10_13 C 0.46101(15) 0.45988(6) 0.76343(5)
H6_13 H 0.428613 0.482455 0.773479
C11_13 C 0.55341(12) 0.44621(5) 0.77509(4)
C12_13 C 0.59702(12) 0.41347(5) 0.75930(4)
H7_13 H 0.661295 0.403415 0.766184
C13_13 C 0.54546(12) 0.39563(5) 0.73334(4)
H8_13 H 0.575713 0.372783 0.722989
C14_13 C 0.43062(13) 0.56569(5) 0.92670(4)
N1_7 N 0.70153(9) 0.58949(4) 0.89192(3)
N3_13 N 0.50725(10) 0.58229(4) 0.92948(3)
S1_13 S 0.91694(3) 0.43928(2) 0.83035(2)
S2_13 S 0.71948(3) 0.39829(2) 0.83286(2)
S3_13 S 0.60703(3) 0.47266(2) 0.80876(2)
S4_13 S 0.83272(3) 0.51715(2) 0.80565(2)
S5_13 S 0.32160(4) 0.54317(2) 0.92345(2)
C15_13 C 0.89822(11) 0.35698(4) 0.83160(4)
C17_13 C 0.93835(12) 0.28357(4) 0.81623(4)
C18_13 C 0.96900(11) 0.20680(4) 0.84002(4)
C21_13 C 0.96496(13) 0.16473(5) 0.83919(4)
H11_13 H 0.935123 0.151078 0.820871
S6_13 S 0.83306(3) 0.31072(2) 0.83035(2)
S9_13 S 0.91728(3) 0.23285(2) 0.80565(2)
C28_13 C 0.81938(13) 0.68431(5) 0.92670(4)
N6_13 N 0.74275(10) 0.66771(4) 0.92948(3)
S10_13 S 0.92840(4) 0.70683(2) 0.92345(2)
N7_7 N 0.54847(9) 0.66051(4) 0.89192(3)
C18_14 C 0.28100(11) 0.04320(4) 0.84002(4)
C19_14 C 0.23765(12) 0.02495(4) 0.86743(4)
C20_14 C 0.19918(12) 0.04897(4) 0.89236(4)
H10_14 H 0.169166 0.036038 0.911002
C21_14 C 0.28504(13) 0.08527(5) 0.83919(4)
H11_14 H 0.314877 0.098922 0.820871
C22_14 C 0.24494(12) 0.10677(4) 0.86545(4)
H12_14 H 0.248347 0.135466 0.864699
N4_14 N 0.20153(9) 0.08949(4) 0.89192(3)
S9_14 S 0.33272(3) 0.01715(2) 0.80565(2)
C1_14 C 0.39822(11) 0.85698(4) 0.83160(4)
C2_14 C 0.52842(12) 0.80243(4) 0.81632(4)
C3_14 C 0.43835(12) 0.78357(4) 0.81623(4)
C4_14 C 0.46900(11) 0.70680(4) 0.84002(4)
C5_14 C 0.51235(12) 0.72505(4) 0.86743(4)
H1_14 H 0.515569 0.753696 0.869049
C6_14 C 0.55082(12) 0.70103(4) 0.89236(4)
H2_14 H 0.580834 0.713962 0.911002
C7_14 C 0.46496(13) 0.66473(5) 0.83919(4)
H3_14 H 0.435123 0.651078 0.820871
C8_14 C 0.50506(12) 0.64323(4) 0.86545(4)
H4_14 H 0.501653 0.614534 0.864699
C9_14 C 0.83355(14) 0.80969(6) 0.73699(5)
H5_14 H 0.896726 0.799632 0.729103
C10_14 C 0.78899(15) 0.79012(6) 0.76343(5)
H6_14 H 0.821387 0.767545 0.773479
C11_14 C 0.69659(12) 0.80379(5) 0.77509(4)
C12_14 C 0.65298(12) 0.83653(5) 0.75930(4)
H7_14 H 0.588705 0.846585 0.766184
C13_14 C 0.70454(12) 0.85437(5) 0.73334(4)
H8_14 H 0.674287 0.877217 0.722989
S1_14 S 0.33306(3) 0.81072(2) 0.83035(2)
S2_14 S 0.53052(3) 0.85171(2) 0.83286(2)
S3_14 S 0.64297(3) 0.77734(2) 0.80876(2)
S4_14 S 0.41728(3) 0.73285(2) 0.80565(2)
C15_14 C 0.35178(11) 0.89302(4) 0.83160(4)
C16_14 C 0.22158(12) 0.94757(4) 0.81632(4)
C17_14 C 0.31165(12) 0.96643(4) 0.81623(4)
H9_14 H 0.234431 0.996304 0.869049
C25_14 C 0.05341(12) 0.94621(5) 0.77509(4)
C26_14 C 0.09702(12) 0.91347(5) 0.75930(4)
H15_14 H 0.161295 0.903415 0.766184
C27_14 C 0.04546(12) 0.89563(5) 0.73334(4)
H16_14 H 0.075713 0.872783 0.722989
S6_14 S 0.41694(3) 0.93928(2) 0.83035(2)
S7_14 S 0.21948(3) 0.89829(2) 0.83286(2)
S8_14 S 0.10703(3) 0.97266(2) 0.80876(2)
C23_14 C 0.91645(14) 0.94031(6) 0.73699(5)
H13_14 H 0.853274 0.950368 0.729103
C24_14 C 0.96101(15) 0.95988(6) 0.76343(5)
H14_14 H 0.928613 0.982455 0.773479
C16_15 C 0.02842(12) 0.80243(4) 0.31632(4)
C19_15 C 0.01235(12) 0.72505(4) 0.36743(4)
H9_15 H 0.015569 0.753696 0.369049
C20_15 C 0.05082(12) 0.70103(4) 0.39236(4)
H10_15 H 0.080834 0.713962 0.411002
C22_15 C 0.00506(12) 0.64323(4) 0.36545(4)
H12_15 H 0.001653 0.614534 0.364699
C23_15 C 0.33355(14) 0.80969(6) 0.23699(5)
H13_15 H 0.396726 0.799632 0.229103
C24_15 C 0.28899(15) 0.79012(6) 0.26343(5)
H14_15 H 0.321387 0.767545 0.273479
C25_15 C 0.19659(12) 0.80379(5) 0.27509(4)
C26_15 C 0.15298(12) 0.83653(5) 0.25930(4)
H15_15 H 0.088705 0.846585 0.266184
C27_15 C 0.20454(12) 0.85437(5) 0.23334(4)
H16_15 H 0.174287 0.877217 0.222989
N4_15 N 0.04847(9) 0.66051(4) 0.39192(3)
S7_15 S 0.03052(3) 0.85171(2) 0.33286(2)
S8_15 S 0.14297(3) 0.77734(2) 0.30876(2)
C4_15 C 0.78100(11) 0.04320(4) 0.34002(4)
C5_15 C 0.73765(12) 0.02495(4) 0.36743(4)
C6_15 C 0.69918(12) 0.04897(4) 0.39236(4)
H2_15 H 0.669166 0.036038 0.411002
C7_15 C 0.78504(13) 0.08527(5) 0.33919(4)
H3_15 H 0.814877 0.098922 0.320871
C8_15 C 0.74494(12) 0.10677(4) 0.36545(4)
H4_15 H 0.748347 0.135466 0.364699
C14_14 C 0.43062(13) 0.06569(5) 0.42670(4)
N1_8 N 0.70153(9) 0.08949(4) 0.39192(3)
N3_14 N 0.50725(10) 0.08229(4) 0.42948(3)
S4_15 S 0.83272(3) 0.01715(2) 0.30565(2)
S5_14 S 0.32160(4) 0.04317(2) 0.42345(2)
C28_14 C 0.81938(13) 0.18431(5) 0.42670(4)
N6_14 N 0.74275(10) 0.16771(4) 0.42948(3)
S10_14 S 0.92840(4) 0.20683(2) 0.42345(2)
N7_8 N 0.54847(9) 0.16051(4) 0.39192(3)
C1_15 C 0.85178(11) 0.89302(4) 0.33160(4)
C2_15 C 0.72158(12) 0.94757(4) 0.31632(4)
C3_15 C 0.81165(12) 0.96643(4) 0.31623(4)
H1_15 H 0.734431 0.996304 0.369049
C9_15 C 0.41645(14) 0.94031(6) 0.23699(5)
H5_15 H 0.353274 0.950368 0.229103
C10_15 C 0.46101(15) 0.95988(6) 0.26343(5)
H6_15 H 0.428613 0.982455 0.273479
C11_15 C 0.55341(12) 0.94621(5) 0.27509(4)
C12_15 C 0.59702(12) 0.91347(5) 0.25930(4)
H7_15 H 0.661295 0.903415 0.266184
C13_15 C 0.54546(12) 0.89563(5) 0.23334(4)
H8_15 H 0.575713 0.872783 0.222989
S1_15 S 0.91694(3) 0.93928(2) 0.33035(2)
S2_15 S 0.71948(3) 0.89829(2) 0.33286(2)
S3_15 S 0.60703(3) 0.97266(2) 0.30876(2)
C15_15 C 0.89822(11) 0.85698(4) 0.33160(4)
C17_15 C 0.93835(12) 0.78357(4) 0.31623(4)
C18_15 C 0.96900(11) 0.70680(4) 0.34002(4)
C21_15 C 0.96496(13) 0.66473(5) 0.33919(4)
H11_15 H 0.935123 0.651078 0.320871
S6_15 S 0.83306(3) 0.81072(2) 0.33035(2)
S9_15 S 0.91728(3) 0.73285(2) 0.30565(2)
C1_16 C 0.39822(11) 0.35698(4) 0.33160(4)
C2_16 C 0.52842(12) 0.30243(4) 0.31632(4)
C3_16 C 0.43835(12) 0.28357(4) 0.31623(4)
C4_16 C 0.46900(11) 0.20680(4) 0.34002(4)
C5_16 C 0.51235(12) 0.22505(4) 0.36743(4)
H1_16 H 0.515569 0.253696 0.369049
C6_16 C 0.55082(12) 0.20103(4) 0.39236(4)
H2_16 H 0.580834 0.213962 0.411002
C7_16 C 0.46496(13) 0.16473(5) 0.33919(4)
H3_16 H 0.435123 0.151078 0.320871
C8_16 C 0.50506(12) 0.14323(4) 0.36545(4)
H4_16 H 0.501653 0.114534 0.364699
C9_16 C 0.83355(14) 0.30969(6) 0.23699(5)
H5_16 H 0.896726 0.299632 0.229103
C10_16 C 0.78899(15) 0.29012(6) 0.26343(5)
H6_16 H 0.821387 0.267545 0.273479
C11_16 C 0.69659(12) 0.30379(5) 0.27509(4)
C12_16 C 0.65298(12) 0.33653(5) 0.25930(4)
H7_16 H 0.588705 0.346585 0.266184
C13_16 C 0.70454(12) 0.35437(5) 0.23334(4)
H8_16 H 0.674287 0.377217 0.222989
S1_16 S 0.33306(3) 0.31072(2) 0.33035(2)
S2_16 S 0.53052(3) 0.35171(2) 0.33286(2)
S3_16 S 0.64297(3) 0.27734(2) 0.30876(2)
S4_16 S 0.41728(3) 0.23285(2) 0.30565(2)
C15_16 C 0.35178(11) 0.39302(4) 0.33160(4)
C16_16 C 0.22158(12) 0.44757(4) 0.31632(4)
C17_16 C 0.31165(12) 0.46643(4) 0.31623(4)
C18_16 C 0.28100(11) 0.54320(4) 0.34002(4)
C19_16 C 0.23765(12) 0.52495(4) 0.36743(4)
H9_16 H 0.234431 0.496304 0.369049
C20_16 C 0.19918(12) 0.54897(4) 0.39236(4)
H10_16 H 0.169166 0.536038 0.411002
C21_16 C 0.28504(13) 0.58527(5) 0.33919(4)
H11_16 H 0.314877 0.598922 0.320871
C22_16 C 0.24494(12) 0.60677(4) 0.36545(4)
H12_16 H 0.248347 0.635466 0.364699
C25_16 C 0.05341(12) 0.44621(5) 0.27509(4)
C26_16 C 0.09702(12) 0.41347(5) 0.25930(4)
H15_16 H 0.161295 0.403415 0.266184
C27_16 C 0.04546(12) 0.39563(5) 0.23334(4)
H16_16 H 0.075713 0.372783 0.222989
N4_16 N 0.20153(9) 0.58949(4) 0.39192(3)
S6_16 S 0.41694(3) 0.43928(2) 0.33035(2)
S7_16 S 0.21948(3) 0.39829(2) 0.33286(2)
S8_16 S 0.10703(3) 0.47266(2) 0.30876(2)
S9_16 S 0.33272(3) 0.51715(2) 0.30565(2)
C23_16 C 0.91645(14) 0.44031(6) 0.23699(5)
H13_16 H 0.853274 0.450368 0.229103
C24_16 C 0.96101(15) 0.45988(6) 0.26343(5)
H14_16 H 0.928613 0.482455 0.273479
N3_15 N 0.00725(10) 0.58229(4) 0.42948(3)
C28_15 C 0.31938(13) 0.68431(5) 0.42670(4)
N6_15 N 0.24275(10) 0.66771(4) 0.42948(3)
S10_15 S 0.42840(4) 0.70683(2) 0.42345(2)
C14_15 C 0.93062(13) 0.56569(5) 0.42670(4)
S5_15 S 0.82160(4) 0.54317(2) 0.42345(2)
N3_16 N 0.00725(10) 0.08229(4) 0.92948(3)
C28_16 C 0.31938(13) 0.18431(5) 0.92670(4)
N6_16 N 0.24275(10) 0.16771(4) 0.92948(3)
S10_16 S 0.42840(4) 0.20683(2) 0.92345(2)
C14_16 C 0.93062(13) 0.06569(5) 0.92670(4)
S5_16 S 0.82160(4) 0.04317(2) 0.92345(2)
loop_
_geom_bond_atom_site_label_1
_geom_bond_atom_site_label_2
_geom_bond_site_symmetry_1
_geom_bond_site_symmetry_2
C1 S1 1_555 1_555
C2 C3 1_555 1_555
C3 S1 1_555 1_555
C4 C5 1_555 1_555
C5 H1 1_555 1_555
C6 C5 1_555 1_555
H2 C6 1_555 1_555
C7 C4 1_555 1_555
H3 C7 1_555 1_555
C8 C7 1_555 1_555
H4 C8 1_555 1_555
C9 H5 1_555 1_555
C10 C9 1_555 1_555
H6 C10 1_555 1_555
C11 C10 1_555 1_555
C12 C11 1_555 1_555
H7 C12 1_555 1_555
C13 C12 1_555 1_555
H8 C13 1_555 1_555
C14 N3 1_555 1_555
N1 C6 1_555 1_555
N2 C9 1_555 1_555
N3 Fe1 1_555 1_555
S2 C1 1_555 1_555
S3 C2 1_555 1_555
S4 C3 1_555 1_555
S5 C14 1_555 1_555
Fe1 N1 1_555 1_555
C15 C1 1_555 1_555
C17 S6 1_555 1_555
C21 C18 1_555 1_555
H11 C21 1_555 1_555
S6 C15 1_555 1_555
S9 C17 1_555 1_555
C28 N6 1_555 1_555
N6 Fe1 1_555 1_555
S10 C28 1_555 1_555
N7 Fe1 1_555 1_555
N8 Fe1 1_555 1_555
N9 Fe1 1_555 1_555
Fe4 N2 1_555 1_555
C2 S2 1_555 1_555
C4 S4 1_555 1_555
C8 N1 1_555 1_555
C11 S3 1_555 1_555
C13 N2 1_555 1_555
C18 S9 1_555 1_555
C19 H9 1_555 1_555
C20 C19 1_555 1_555
H10 C20 1_555 1_555
H12 C22 1_555 1_555
C23 H13 1_555 1_555
C24 C23 1_555 1_555
H14 C24 1_555 1_555
C25 C24 1_555 1_555
C26 C25 1_555 1_555
H15 C26 1_555 1_555
C27 C26 1_555 1_555
H16 C27 1_555 1_555
N4 C20 1_555 1_555
N5 C23 1_555 1_555
S8 C16 1_555 1_555
Fe2 N4 1_555 1_555
Fe4 N5 1_555 1_555
C16 S7 1_555 1_555
C22 N4 1_555 1_555
C25 S8 1_555 1_555
C27 N5 1_555 1_555
C23_2 H13_2 1_555 1_555
C24_2 C23_2 1_555 1_555
H14_2 C24_2 1_555 1_555
N5_2 C23_2 1_555 1_555
Fe3 N5_2 1_555 1_555
C1_2 S1_2 1_555 1_555
C2_2 C3_2 1_555 1_555
C3_2 S1_2 1_555 1_555
C4_2 C5_2 1_555 1_555
C5_2 H1_2 1_555 1_555
C6_2 C5_2 1_555 1_555
H2_2 C6_2 1_555 1_555
C7_2 C4_2 1_555 1_555
H3_2 C7_2 1_555 1_555
C8_2 C7_2 1_555 1_555
H4_2 C8_2 1_555 1_555
C9_2 H5_2 1_555 1_555
C10_2 C9_2 1_555 1_555
H6_2 C10_2 1_555 1_555
C11_2 C10_2 1_555 1_555
C12_2 C11_2 1_555 1_555
H7_2 C12_2 1_555 1_555
C13_2 C12_2 1_555 1_555
H8_2 C13_2 1_555 1_555
N7 C6_2 1_555 1_555
N2_2 C9_2 1_555 1_555
S2_2 C1_2 1_555 1_555
S3_2 C2_2 1_555 1_555
S4_2 C3_2 1_555 1_555
C15_2 C1_2 1_555 1_555
C16_2 C17_2 1_555 1_555
C17_2 S6_2 1_555 1_555
C26_2 C25_2 1_555 1_555
H15_2 C26_2 1_555 1_555
C27_2 C26_2 1_555 1_555
H16_2 C27_2 1_555 1_555
S6_2 C15_2 1_555 1_555
S7_2 C15_2 1_555 1_555
S8_2 C16_2 1_555 1_555
Fe3 N2_2 1_555 1_555
C2_2 S2_2 1_555 1_555
C4_2 S4_2 1_555 1_555
C8_2 N7 1_555 1_555
C11_2 S3_2 1_555 1_555
C13_2 N2_2 1_555 1_555
C16_2 S7_2 1_555 1_555
C25_2 S8_2 1_555 1_555
C18_2 C19_2 1_555 1_555
C20_2 C19_2 1_555 1_555
H10_2 C20_2 1_555 1_555
C21_2 C18_2 1_555 1_555
H11_2 C21_2 1_555 1_555
C22_2 C21_2 1_555 1_555
H12_2 C22_2 1_555 1_555
N4_2 C20_2 1_555 1_555
Fe2 N4_2 1_555 1_555
C18_2 S9_2 1_555 1_555
C22_2 N4_2 1_555 1_555
C1_3 S1_3 1_555 1_555
C2_3 C3_3 1_555 1_555
C3_3 S1_3 1_555 1_555
C9_3 H5_3 1_555 1_555
C10_3 C9_3 1_555 1_555
H6_3 C10_3 1_555 1_555
C11_3 C10_3 1_555 1_555
C12_3 C11_3 1_555 1_555
H7_3 C12_3 1_555 1_555
C13_3 C12_3 1_555 1_555
H8_3 C13_3 1_555 1_555
N2_3 C9_3 1_555 1_555
S2_3 C1_3 1_555 1_555
S3_3 C2_3 1_555 1_555
C15_3 C1_3 1_555 1_555
C17_3 S6_3 1_555 1_555
C21_3 C18_3 1_555 1_555
H11_3 C21_3 1_555 1_555
S6_3 C15_3 1_555 1_555
S9_3 C17_3 1_555 1_555
Fe4_2 N2_3 1_555 1_555
C2_3 S2_3 1_555 1_555
C11_3 S3_3 1_555 1_555
C13_3 N2_3 1_555 1_555
C18_3 S9_3 1_555 1_555
C4_3 C5_3 1_555 1_555
C6_3 C5_3 1_555 1_555
H2_3 C6_3 1_555 1_555
C7_3 C4_3 1_555 1_555
H3_3 C7_3 1_555 1_555
C8_3 C7_3 1_555 1_555
H4_3 C8_3 1_555 1_555
C14_2 N3_2 1_555 1_555
N1_2 C6_3 1_555 1_555
N3_2 Fe1_2 1_555 1_555
S5_2 C14_2 1_555 1_555
Fe1_2 N1_2 1_555 1_555
C28_2 N6_2 1_555 1_555
N6_2 Fe1_2 1_555 1_555
S10_2 C28_2 1_555 1_555
N7_2 Fe1_2 1_555 1_555
N8_2 Fe1_2 1_555 1_555
N9_2 Fe1_2 1_555 1_555
C4_3 S4_3 1_555 1_555
C8_3 N1_2 1_555 1_555
C19_3 H9_3 1_555 1_555
C20_3 C19_3 1_555 1_555
H10_3 C20_3 1_555 1_555
H12_3 C22_3 1_555 1_555
C23_3 H13_3 1_555 1_555
C24_3 C23_3 1_555 1_555
H14_3 C24_3 1_555 1_555
C25_3 C24_3 1_555 1_555
C26_3 C25_3 1_555 1_555
H15_3 C26_3 1_555 1_555
C27_3 C26_3 1_555 1_555
H16_3 C27_3 1_555 1_555
N4_3 C20_3 1_555 1_555
N5_3 C23_3 1_555 1_555
S8_3 C16_3 1_555 1_555
Fe2_2 N4_3 1_555 1_555
Fe4_2 N5_3 1_555 1_555
C16_3 S7_3 1_555 1_555
C22_3 N4_3 1_555 1_555
C25_3 S8_3 1_555 1_555
C27_3 N5_3 1_555 1_555
C23_4 H13_4 1_555 1_555
C24_4 C23_4 1_555 1_555
H14_4 C24_4 1_555 1_555
N5_4 C23_4 1_555 1_555
Fe3_2 N5_4 1_555 1_555
C1_4 S1_4 1_555 1_555
C2_4 C3_4 1_555 1_555
C3_4 S1_4 1_555 1_555
C4_4 C5_4 1_555 1_555
C5_4 H1_4 1_555 1_555
C6_4 C5_4 1_555 1_555
H2_4 C6_4 1_555 1_555
C7_4 C4_4 1_555 1_555
H3_4 C7_4 1_555 1_555
C8_4 C7_4 1_555 1_555
H4_4 C8_4 1_555 1_555
C9_4 H5_4 1_555 1_555
C10_4 C9_4 1_555 1_555
H6_4 C10_4 1_555 1_555
C11_4 C10_4 1_555 1_555
C12_4 C11_4 1_555 1_555
H7_4 C12_4 1_555 1_555
C13_4 C12_4 1_555 1_555
H8_4 C13_4 1_555 1_555
N7_2 C6_4 1_555 1_555
N2_4 C9_4 1_555 1_555
S2_4 C1_4 1_555 1_555
S3_4 C2_4 1_555 1_555
S4_4 C3_4 1_555 1_555
C15_4 C1_4 1_555 1_555
C16_4 C17_4 1_555 1_555
C17_4 S6_4 1_555 1_555
C18_4 C19_4 1_555 1_555
C19_4 H9_4 1_555 1_555
C20_4 C19_4 1_555 1_555
H10_4 C20_4 1_555 1_555
C21_4 C18_4 1_555 1_555
H11_4 C21_4 1_555 1_555
C22_4 C21_4 1_555 1_555
H12_4 C22_4 1_555 1_555
C26_4 C25_4 1_555 1_555
H15_4 C26_4 1_555 1_555
C27_4 C26_4 1_555 1_555
H16_4 C27_4 1_555 1_555
N4_4 C20_4 1_555 1_555
S6_4 C15_4 1_555 1_555
S7_4 C15_4 1_555 1_555
S8_4 C16_4 1_555 1_555
S9_4 C17_4 1_555 1_555
Fe2_2 N4_4 1_555 1_555
Fe3_2 N2_4 1_555 1_555
C2_4 S2_4 1_555 1_555
C4_4 S4_4 1_555 1_555
C8_4 N7_2 1_555 1_555
C11_4 S3_4 1_555 1_555
C13_4 N2_4 1_555 1_555
C16_4 S7_4 1_555 1_555
C18_4 S9_4 1_555 1_555
C22_4 N4_4 1_555 1_555
C25_4 S8_4 1_555 1_555
S5_3 C14_3 1_555 1_555
N3_3 Fe2_2 1_555 1_555
C28_3 N6_3 1_555 1_555
N6_3 Fe2_2 1_555 1_555
S10_3 C28_3 1_555 1_555
N8_3 Fe2_2 1_555 1_555
N9_3 Fe2_2 1_555 1_555
S5_4 C14_4 1_555 1_555
N3_4 Fe2 1_555 1_555
C28_4 N6_4 1_555 1_555
N6_4 Fe2 1_555 1_555
S10_4 C28_4 1_555 1_555
N8_4 Fe2 1_555 1_555
N9_4 Fe2 1_555 1_555
C1_5 S1_5 1_555 1_555
C2_5 C3_5 1_555 1_555
C3_5 S1_5 1_555 1_555
C4_5 C5_5 1_555 1_555
C5_5 H1_5 1_555 1_555
C6_5 C5_5 1_555 1_555
H2_5 C6_5 1_555 1_555
C7_5 C4_5 1_555 1_555
H3_5 C7_5 1_555 1_555
C8_5 C7_5 1_555 1_555
H4_5 C8_5 1_555 1_555
C9_5 H5_5 1_555 1_555
C10_5 C9_5 1_555 1_555
H6_5 C10_5 1_555 1_555
C11_5 C10_5 1_555 1_555
C12_5 C11_5 1_555 1_555
H7_5 C12_5 1_555 1_555
C13_5 C12_5 1_555 1_555
H8_5 C13_5 1_555 1_555
C14_5 N3_5 1_555 1_555
N1_3 C6_5 1_555 1_555
N9_3 C9_5 1_555 1_555
N3_5 Fe4 1_555 1_555
S2_5 C1_5 1_555 1_555
S3_5 C2_5 1_555 1_555
S4_5 C3_5 1_555 1_555
S5_5 C14_5 1_555 1_555
Fe4 N1_3 1_555 1_555
C15_5 C1_5 1_555 1_555
C16_5 C17_5 1_555 1_555
C17_5 S6_5 1_555 1_555
C18_5 C19_5 1_555 1_555
C19_5 H9_5 1_555 1_555
C20_5 C19_5 1_555 1_555
H10_5 C20_5 1_555 1_555
C21_5 C18_5 1_555 1_555
H11_5 C21_5 1_555 1_555
C22_5 C21_5 1_555 1_555
H12_5 C22_5 1_555 1_555
C26_5 C25_5 1_555 1_555
H15_5 C26_5 1_555 1_555
C27_5 C26_5 1_555 1_555
H16_5 C27_5 1_555 1_555
N4_5 C20_5 1_555 1_555
S6_5 C15_5 1_555 1_555
S7_5 C15_5 1_555 1_555
S8_5 C16_5 1_555 1_555
S9_5 C17_5 1_555 1_555
C28_5 N6_5 1_555 1_555
N6_5 Fe4 1_555 1_555
S10_5 C28_5 1_555 1_555
N7_3 Fe4 1_555 1_555
Fe3 N4_5 1_555 1_555
C2_5 S2_5 1_555 1_555
C4_5 S4_5 1_555 1_555
C8_5 N1_3 1_555 1_555
C11_5 S3_5 1_555 1_555
C13_5 N9_3 1_555 1_555
C16_5 S7_5 1_555 1_555
C18_5 S9_5 1_555 1_555
C22_5 N4_5 1_555 1_555
C25_5 S8_5 1_555 1_555
C23_5 H13_5 1_555 1_555
C24_5 C23_5 1_555 1_555
H14_5 C24_5 1_555 1_555
N8_3 C23_5 1_555 1_555
C20_6 C19_6 1_555 1_555
H10_6 C20_6 1_555 1_555
H12_6 C22_6 1_555 1_555
N4_6 C20_6 1_555 1_555
Fe3 N4_6 1_555 1_555
C22_6 N4_6 1_555 1_555
C23_6 H13_6 1_555 1_555
C24_6 C23_6 1_555 1_555
H14_6 C24_6 1_555 1_555
C25_6 C24_6 1_555 1_555
C26_6 C25_6 1_555 1_555
H15_6 C26_6 1_555 1_555
C27_6 C26_6 1_555 1_555
H16_6 C27_6 1_555 1_555
N9_2 C23_6 1_555 1_555
S8_6 C16_6 1_555 1_555
C16_6 S7_6 1_555 1_555
C25_6 S8_6 1_555 1_555
C27_6 N9_2 1_555 1_555
C21_6 C18_6 1_555 1_555
H11_6 C21_6 1_555 1_555
C18_6 S9_6 1_555 1_555
C1_6 S1_6 1_555 1_555
C2_6 C3_6 1_555 1_555
C3_6 S1_6 1_555 1_555
C4_6 C5_6 1_555 1_555
C5_6 H1_6 1_555 1_555
C6_6 C5_6 1_555 1_555
H2_6 C6_6 1_555 1_555
C7_6 C4_6 1_555 1_555
H3_6 C7_6 1_555 1_555
C8_6 C7_6 1_555 1_555
H4_6 C8_6 1_555 1_555
C9_6 H5_6 1_555 1_555
C10_6 C9_6 1_555 1_555
H6_6 C10_6 1_555 1_555
C11_6 C10_6 1_555 1_555
C12_6 C11_6 1_555 1_555
H7_6 C12_6 1_555 1_555
C13_6 C12_6 1_555 1_555
H8_6 C13_6 1_555 1_555
N7_3 C6_6 1_555 1_555
N8_2 C9_6 1_555 1_555
S2_6 C1_6 1_555 1_555
S3_6 C2_6 1_555 1_555
S4_6 C3_6 1_555 1_555
C15_6 C1_6 1_555 1_555
C17_6 S6_6 1_555 1_555
S6_6 C15_6 1_555 1_555
C2_6 S2_6 1_555 1_555
C4_6 S4_6 1_555 1_555
C8_6 N7_3 1_555 1_555
C11_6 S3_6 1_555 1_555
C13_6 N8_2 1_555 1_555
C4_7 C5_7 1_555 1_555
C6_7 C5_7 1_555 1_555
H2_7 C6_7 1_555 1_555
C7_7 C4_7 1_555 1_555
H3_7 C7_7 1_555 1_555
C8_7 C7_7 1_555 1_555
H4_7 C8_7 1_555 1_555
C14_6 N3_6 1_555 1_555
N1_4 C6_7 1_555 1_555
N3_6 Fe4_2 1_555 1_555
S5_6 C14_6 1_555 1_555
Fe4_2 N1_4 1_555 1_555
C28_6 N6_6 1_555 1_555
N6_6 Fe4_2 1_555 1_555
S10_6 C28_6 1_555 1_555
N7_4 Fe4_2 1_555 1_555
C4_7 S4_7 1_555 1_555
C8_7 N1_4 1_555 1_555
C9_7 H5_7 1_555 1_555
H8_7 C13_7 1_555 1_555
N9_4 C9_7 1_555 1_555
H16_7 C27_7 1_555 1_555
C13_7 N9_4 1_555 1_555
C1_7 S1_7 1_555 1_555
C2_7 C3_7 1_555 1_555
C3_7 S1_7 1_555 1_555
H6_7 C10_7 1_555 1_555
C11_7 C10_7 1_555 1_555
C12_7 C11_7 1_555 1_555
H7_7 C12_7 1_555 1_555
S2_7 C1_7 1_555 1_555
S3_7 C2_7 1_555 1_555
C15_7 C1_7 1_555 1_555
C16_7 C17_7 1_555 1_555
C17_7 S6_7 1_555 1_555
C18_7 C19_7 1_555 1_555
C19_7 H9_7 1_555 1_555
C20_7 C19_7 1_555 1_555
H10_7 C20_7 1_555 1_555
C21_7 C18_7 1_555 1_555
H11_7 C21_7 1_555 1_555
C22_7 C21_7 1_555 1_555
H12_7 C22_7 1_555 1_555
C26_7 C25_7 1_555 1_555
H15_7 C26_7 1_555 1_555
N4_7 C20_7 1_555 1_555
S6_7 C15_7 1_555 1_555
S7_7 C15_7 1_555 1_555
S8_7 C16_7 1_555 1_555
S9_7 C17_7 1_555 1_555
Fe3_2 N4_7 1_555 1_555
C2_7 S2_7 1_555 1_555
C11_7 S3_7 1_555 1_555
C16_7 S7_7 1_555 1_555
C18_7 S9_7 1_555 1_555
C22_7 N4_7 1_555 1_555
C25_7 S8_7 1_555 1_555
C23_7 H13_7 1_555 1_555
N8_4 C23_7 1_555 1_555
H14_7 C24_7 1_555 1_555
C23_8 H13_8 1_555 1_555
H16_8 C27_8 1_555 1_555
N9 C23_8 1_555 1_555
C27_8 N9 1_555 1_555
C19_8 H9_8 1_555 1_555
C20_8 C19_8 1_555 1_555
H10_8 C20_8 1_555 1_555
H12_8 C22_8 1_555 1_555
H14_8 C24_8 1_555 1_555
C25_8 C24_8 1_555 1_555
C26_8 C25_8 1_555 1_555
H15_8 C26_8 1_555 1_555
N4_8 C20_8 1_555 1_555
S8_8 C16_8 1_555 1_555
Fe3_2 N4_8 1_555 1_555
C16_8 S7_8 1_555 1_555
C22_8 N4_8 1_555 1_555
C25_8 S8_8 1_555 1_555
C9_8 H5_8 1_555 1_555
H8_8 C13_8 1_555 1_555
N8 C9_8 1_555 1_555
C13_8 N8 1_555 1_555
C1_8 S1_8 1_555 1_555
C2_8 C3_8 1_555 1_555
C3_8 S1_8 1_555 1_555
C4_8 C5_8 1_555 1_555
C5_8 H1_8 1_555 1_555
C6_8 C5_8 1_555 1_555
H2_8 C6_8 1_555 1_555
C7_8 C4_8 1_555 1_555
H3_8 C7_8 1_555 1_555
C8_8 C7_8 1_555 1_555
H4_8 C8_8 1_555 1_555
H6_8 C10_8 1_555 1_555
C11_8 C10_8 1_555 1_555
C12_8 C11_8 1_555 1_555
H7_8 C12_8 1_555 1_555
N7_4 C6_8 1_555 1_555
S2_8 C1_8 1_555 1_555
S3_8 C2_8 1_555 1_555
S4_8 C3_8 1_555 1_555
C15_8 C1_8 1_555 1_555
C17_8 S6_8 1_555 1_555
C21_8 C18_8 1_555 1_555
H11_8 C21_8 1_555 1_555
S6_8 C15_8 1_555 1_555
S9_8 C17_8 1_555 1_555
C2_8 S2_8 1_555 1_555
C4_8 S4_8 1_555 1_555
C8_8 N7_4 1_555 1_555
C11_8 S3_8 1_555 1_555
C18_8 S9_8 1_555 1_555
C14_7 N3_7 1_555 1_555
N3_7 Fe3_2 1_555 1_555
S5_7 C14_7 1_555 1_555
N6_7 Fe3_2 1_555 1_555
S10_7 C28_7 1_555 1_555
C14_8 N3_8 1_555 1_555
N3_8 Fe3 1_555 1_555
S5_8 C14_8 1_555 1_555
N6_8 Fe3 1_555 1_555
S10_8 C28_8 1_555 1_555
C23_9 H13_9 1_555 1_555
C24_9 C23_9 1_555 1_555
H14_9 C24_9 1_555 1_555
N5_5 C23_9 1_555 1_555
Fe3_3 N5_5 1_555 1_555
C1_9 S1_9 1_555 1_555
C2_9 C3_9 1_555 1_555
C3_9 S1_9 1_555 1_555
C4_9 C5_9 1_555 1_555
C5_9 H1_9 1_555 1_555
C6_9 C5_9 1_555 1_555
H2_9 C6_9 1_555 1_555
C7_9 C4_9 1_555 1_555
H3_9 C7_9 1_555 1_555
C8_9 C7_9 1_555 1_555
H4_9 C8_9 1_555 1_555
C9_9 H5_9 1_555 1_555
C10_9 C9_9 1_555 1_555
H6_9 C10_9 1_555 1_555
C11_9 C10_9 1_555 1_555
C12_9 C11_9 1_555 1_555
H7_9 C12_9 1_555 1_555
C13_9 C12_9 1_555 1_555
H8_9 C13_9 1_555 1_555
C14_9 N3_9 1_555 1_555
N1_5 C6_9 1_555 1_555
N2_5 C9_9 1_555 1_555
N3_9 Fe1_3 1_555 1_555
S2_9 C1_9 1_555 1_555
S3_9 C2_9 1_555 1_555
S4_9 C3_9 1_555 1_555
S5_9 C14_9 1_555 1_555
Fe1_3 N1_5 1_555 1_555
C15_9 C1_9 1_555 1_555
C16_9 C17_9 1_555 1_555
C17_9 S6_9 1_555 1_555
C18_9 C19_9 1_555 1_555
C19_9 H9_9 1_555 1_555
C20_9 C19_9 1_555 1_555
H10_9 C20_9 1_555 1_555
C21_9 C18_9 1_555 1_555
H11_9 C21_9 1_555 1_555
C22_9 C21_9 1_555 1_555
H12_9 C22_9 1_555 1_555
C26_9 C25_9 1_555 1_555
H15_9 C26_9 1_555 1_555
C27_9 C26_9 1_555 1_555
H16_9 C27_9 1_555 1_555
N4_9 C20_9 1_555 1_555
S6_9 C15_9 1_555 1_555
S7_9 C15_9 1_555 1_555
S8_9 C16_9 1_555 1_555
S9_9 C17_9 1_555 1_555
C28_9 N6_9 1_555 1_555
N6_9 Fe1_3 1_555 1_555
S10_9 C28_9 1_555 1_555
N7_5 Fe1_3 1_555 1_555
N8_5 Fe1_3 1_555 1_555
N9_5 Fe1_3 1_555 1_555
Fe2_3 N4_9 1_555 1_555
Fe3_3 N2_5 1_555 1_555
C2_9 S2_9 1_555 1_555
C4_9 S4_9 1_555 1_555
C8_9 N1_5 1_555 1_555
C11_9 S3_9 1_555 1_555
C13_9 N2_5 1_555 1_555
C16_9 S7_9 1_555 1_555
C18_9 S9_9 1_555 1_555
C22_9 N4_9 1_555 1_555
C25_9 S8_9 1_555 1_555
C1_10 S1_10 1_555 1_555
C2_10 C3_10 1_555 1_555
C3_10 S1_10 1_555 1_555
C4_10 C5_10 1_555 1_555
C5_10 H1_10 1_555 1_555
C6_10 C5_10 1_555 1_555
H2_10 C6_10 1_555 1_555
C7_10 C4_10 1_555 1_555
H3_10 C7_10 1_555 1_555
C8_10 C7_10 1_555 1_555
H4_10 C8_10 1_555 1_555
C9_10 H5_10 1_555 1_555
C10_10 C9_10 1_555 1_555
H6_10 C10_10 1_555 1_555
C11_10 C10_10 1_555 1_555
C12_10 C11_10 1_555 1_555
H7_10 C12_10 1_555 1_555
C13_10 C12_10 1_555 1_555
H8_10 C13_10 1_555 1_555
N7_5 C6_10 1_555 1_555
N2_6 C9_10 1_555 1_555
S2_10 C1_10 1_555 1_555
S3_10 C2_10 1_555 1_555
S4_10 C3_10 1_555 1_555
C15_10 C1_10 1_555 1_555
C17_10 S6_10 1_555 1_555
S6_10 C15_10 1_555 1_555
Fe4_3 N2_6 1_555 1_555
C2_10 S2_10 1_555 1_555
C4_10 S4_10 1_555 1_555
C8_10 N7_5 1_555 1_555
C11_10 S3_10 1_555 1_555
C13_10 N2_6 1_555 1_555
C21_10 C18_10 1_555 1_555
H11_10 C21_10 1_555 1_555
C18_10 S9_10 1_555 1_555
C23_10 H13_10 1_555 1_555
C24_10 C23_10 1_555 1_555
H14_10 C24_10 1_555 1_555
C25_10 C24_10 1_555 1_555
C26_10 C25_10 1_555 1_555
H15_10 C26_10 1_555 1_555
C27_10 C26_10 1_555 1_555
H16_10 C27_10 1_555 1_555
N5_6 C23_10 1_555 1_555
S8_10 C16_10 1_555 1_555
Fe4_3 N5_6 1_555 1_555
C16_10 S7_10 1_555 1_555
C25_10 S8_10 1_555 1_555
C27_10 N5_6 1_555 1_555
C20_10 C19_10 1_555 1_555
H10_10 C20_10 1_555 1_555
H12_10 C22_10 1_555 1_555
N4_10 C20_10 1_555 1_555
Fe2_3 N4_10 1_555 1_555
C22_10 N4_10 1_555 1_555
H14_11 C24_11 1_555 1_555
C23_11 H13_11 1_555 1_555
N5_7 C23_11 1_555 1_555
Fe3_4 N5_7 1_555 1_555
C1_11 S1_11 1_555 1_555
C2_11 C3_11 1_555 1_555
C3_11 S1_11 1_555 1_555
H6_11 C10_11 1_555 1_555
C11_11 C10_11 1_555 1_555
C12_11 C11_11 1_555 1_555
H7_11 C12_11 1_555 1_555
S2_11 C1_11 1_555 1_555
S3_11 C2_11 1_555 1_555
C15_11 C1_11 1_555 1_555
C16_11 C17_11 1_555 1_555
C17_11 S6_11 1_555 1_555
C18_11 C19_11 1_555 1_555
C19_11 H9_11 1_555 1_555
C20_11 C19_11 1_555 1_555
H10_11 C20_11 1_555 1_555
C21_11 C18_11 1_555 1_555
H11_11 C21_11 1_555 1_555
C22_11 C21_11 1_555 1_555
H12_11 C22_11 1_555 1_555
C26_11 C25_11 1_555 1_555
H15_11 C26_11 1_555 1_555
N4_11 C20_11 1_555 1_555
S6_11 C15_11 1_555 1_555
S7_11 C15_11 1_555 1_555
S8_11 C16_11 1_555 1_555
S9_11 C17_11 1_555 1_555
Fe2_4 N4_11 1_555 1_555
C2_11 S2_11 1_555 1_555
C11_11 S3_11 1_555 1_555
C16_11 S7_11 1_555 1_555
C18_11 S9_11 1_555 1_555
C22_11 N4_11 1_555 1_555
C25_11 S8_11 1_555 1_555
C9_11 H5_11 1_555 1_555
H8_11 C13_11 1_555 1_555
N2_7 C9_11 1_555 1_555
H16_11 C27_11 1_555 1_555
Fe3_4 N2_7 1_555 1_555
C13_11 N2_7 1_555 1_555
C4_11 C5_11 1_555 1_555
C6_11 C5_11 1_555 1_555
H2_11 C6_11 1_555 1_555
C7_11 C4_11 1_555 1_555
H3_11 C7_11 1_555 1_555
C8_11 C7_11 1_555 1_555
H4_11 C8_11 1_555 1_555
C14_10 N3_10 1_555 1_555
N1_6 C6_11 1_555 1_555
N3_10 Fe1_4 1_555 1_555
S5_10 C14_10 1_555 1_555
Fe1_4 N1_6 1_555 1_555
C28_10 N6_10 1_555 1_555
N6_10 Fe1_4 1_555 1_555
S10_10 C28_10 1_555 1_555
N7_6 Fe1_4 1_555 1_555
N8_6 Fe1_4 1_555 1_555
N9_6 Fe1_4 1_555 1_555
C4_11 S4_11 1_555 1_555
C8_11 N1_6 1_555 1_555
C1_12 S1_12 1_555 1_555
C2_12 C3_12 1_555 1_555
C3_12 S1_12 1_555 1_555
C4_12 C5_12 1_555 1_555
C5_12 H1_12 1_555 1_555
C6_12 C5_12 1_555 1_555
H2_12 C6_12 1_555 1_555
C7_12 C4_12 1_555 1_555
H3_12 C7_12 1_555 1_555
C8_12 C7_12 1_555 1_555
H4_12 C8_12 1_555 1_555
H6_12 C10_12 1_555 1_555
C11_12 C10_12 1_555 1_555
C12_12 C11_12 1_555 1_555
H7_12 C12_12 1_555 1_555
N7_6 C6_12 1_555 1_555
S2_12 C1_12 1_555 1_555
S3_12 C2_12 1_555 1_555
S4_12 C3_12 1_555 1_555
C15_12 C1_12 1_555 1_555
C17_12 S6_12 1_555 1_555
C21_12 C18_12 1_555 1_555
H11_12 C21_12 1_555 1_555
S6_12 C15_12 1_555 1_555
S9_12 C17_12 1_555 1_555
C2_12 S2_12 1_555 1_555
C4_12 S4_12 1_555 1_555
C8_12 N7_6 1_555 1_555
C11_12 S3_12 1_555 1_555
C18_12 S9_12 1_555 1_555
C9_12 H5_12 1_555 1_555
H8_12 C13_12 1_555 1_555
N2_8 C9_12 1_555 1_555
Fe4_4 N2_8 1_555 1_555
C13_12 N2_8 1_555 1_555
C19_12 H9_12 1_555 1_555
C20_12 C19_12 1_555 1_555
H10_12 C20_12 1_555 1_555
H12_12 C22_12 1_555 1_555
H14_12 C24_12 1_555 1_555
C25_12 C24_12 1_555 1_555
C26_12 C25_12 1_555 1_555
H15_12 C26_12 1_555 1_555
N4_12 C20_12 1_555 1_555
S8_12 C16_12 1_555 1_555
Fe2_4 N4_12 1_555 1_555
C16_12 S7_12 1_555 1_555
C22_12 N4_12 1_555 1_555
C25_12 S8_12 1_555 1_555
C23_12 H13_12 1_555 1_555
H16_12 C27_12 1_555 1_555
N5_8 C23_12 1_555 1_555
Fe4_4 N5_8 1_555 1_555
C27_12 N5_8 1_555 1_555
S10_11 C28_11 1_555 1_555
C14_11 N3_11 1_555 1_555
N3_11 Fe2_4 1_555 1_555
S5_11 C14_11 1_555 1_555
N6_11 Fe2_4 1_555 1_555
N8_7 Fe2_4 1_555 1_555
N9_7 Fe2_4 1_555 1_555
S10_12 C28_12 1_555 1_555
C14_12 N3_12 1_555 1_555
N3_12 Fe2_3 1_555 1_555
S5_12 C14_12 1_555 1_555
N6_12 Fe2_3 1_555 1_555
N8_8 Fe2_3 1_555 1_555
N9_8 Fe2_3 1_555 1_555
C19_13 H9_13 1_555 1_555
C20_13 C19_13 1_555 1_555
H10_13 C20_13 1_555 1_555
H12_13 C22_13 1_555 1_555
C23_13 H13_13 1_555 1_555
C24_13 C23_13 1_555 1_555
H14_13 C24_13 1_555 1_555
C25_13 C24_13 1_555 1_555
C26_13 C25_13 1_555 1_555
H15_13 C26_13 1_555 1_555
C27_13 C26_13 1_555 1_555
H16_13 C27_13 1_555 1_555
N4_13 C20_13 1_555 1_555
N8_5 C23_13 1_555 1_555
S8_13 C16_13 1_555 1_555
Fe3_4 N4_13 1_555 1_555
C16_13 S7_13 1_555 1_555
C22_13 N4_13 1_555 1_555
C25_13 S8_13 1_555 1_555
C27_13 N8_5 1_555 1_555
C1_13 S1_13 1_555 1_555
C2_13 C3_13 1_555 1_555
C3_13 S1_13 1_555 1_555
C4_13 C5_13 1_555 1_555
C5_13 H1_13 1_555 1_555
C6_13 C5_13 1_555 1_555
H2_13 C6_13 1_555 1_555
C7_13 C4_13 1_555 1_555
H3_13 C7_13 1_555 1_555
C8_13 C7_13 1_555 1_555
H4_13 C8_13 1_555 1_555
C9_13 H5_13 1_555 1_555
C10_13 C9_13 1_555 1_555
H6_13 C10_13 1_555 1_555
C11_13 C10_13 1_555 1_555
C12_13 C11_13 1_555 1_555
H7_13 C12_13 1_555 1_555
C13_13 C12_13 1_555 1_555
H8_13 C13_13 1_555 1_555
C14_13 N3_13 1_555 1_555
N1_7 C6_13 1_555 1_555
N9_5 C9_13 1_555 1_555
N3_13 Fe4_4 1_555 1_555
S2_13 C1_13 1_555 1_555
S3_13 C2_13 1_555 1_555
S4_13 C3_13 1_555 1_555
S5_13 C14_13 1_555 1_555
Fe4_4 N1_7 1_555 1_555
C15_13 C1_13 1_555 1_555
C17_13 S6_13 1_555 1_555
C21_13 C18_13 1_555 1_555
H11_13 C21_13 1_555 1_555
S6_13 C15_13 1_555 1_555
S9_13 C17_13 1_555 1_555
C28_13 N6_13 1_555 1_555
N6_13 Fe4_4 1_555 1_555
S10_13 C28_13 1_555 1_555
N7_7 Fe4_4 1_555 1_555
C2_13 S2_13 1_555 1_555
C4_13 S4_13 1_555 1_555
C8_13 N1_7 1_555 1_555
C11_13 S3_13 1_555 1_555
C13_13 N9_5 1_555 1_555
C18_13 S9_13 1_555 1_555
C18_14 C19_14 1_555 1_555
C20_14 C19_14 1_555 1_555
H10_14 C20_14 1_555 1_555
C21_14 C18_14 1_555 1_555
H11_14 C21_14 1_555 1_555
C22_14 C21_14 1_555 1_555
H12_14 C22_14 1_555 1_555
N4_14 C20_14 1_555 1_555
Fe3_4 N4_14 1_555 1_555
C18_14 S9_14 1_555 1_555
C22_14 N4_14 1_555 1_555
C1_14 S1_14 1_555 1_555
C2_14 C3_14 1_555 1_555
C3_14 S1_14 1_555 1_555
C4_14 C5_14 1_555 1_555
C5_14 H1_14 1_555 1_555
C6_14 C5_14 1_555 1_555
H2_14 C6_14 1_555 1_555
C7_14 C4_14 1_555 1_555
H3_14 C7_14 1_555 1_555
C8_14 C7_14 1_555 1_555
H4_14 C8_14 1_555 1_555
C9_14 H5_14 1_555 1_555
C10_14 C9_14 1_555 1_555
H6_14 C10_14 1_555 1_555
C11_14 C10_14 1_555 1_555
C12_14 C11_14 1_555 1_555
H7_14 C12_14 1_555 1_555
C13_14 C12_14 1_555 1_555
H8_14 C13_14 1_555 1_555
N7_7 C6_14 1_555 1_555
N8_8 C9_14 1_555 1_555
S2_14 C1_14 1_555 1_555
S3_14 C2_14 1_555 1_555
S4_14 C3_14 1_555 1_555
C15_14 C1_14 1_555 1_555
C16_14 C17_14 1_555 1_555
C17_14 S6_14 1_555 1_555
C26_14 C25_14 1_555 1_555
H15_14 C26_14 1_555 1_555
C27_14 C26_14 1_555 1_555
H16_14 C27_14 1_555 1_555
S6_14 C15_14 1_555 1_555
S7_14 C15_14 1_555 1_555
S8_14 C16_14 1_555 1_555
C2_14 S2_14 1_555 1_555
C4_14 S4_14 1_555 1_555
C8_14 N7_7 1_555 1_555
C11_14 S3_14 1_555 1_555
C13_14 N8_8 1_555 1_555
C16_14 S7_14 1_555 1_555
C25_14 S8_14 1_555 1_555
C23_14 H13_14 1_555 1_555
C24_14 C23_14 1_555 1_555
H14_14 C24_14 1_555 1_555
N9_8 C23_14 1_555 1_555
C19_15 H9_15 1_555 1_555
C20_15 C19_15 1_555 1_555
H10_15 C20_15 1_555 1_555
H12_15 C22_15 1_555 1_555
C23_15 H13_15 1_555 1_555
C24_15 C23_15 1_555 1_555
H14_15 C24_15 1_555 1_555
C25_15 C24_15 1_555 1_555
C26_15 C25_15 1_555 1_555
H15_15 C26_15 1_555 1_555
C27_15 C26_15 1_555 1_555
H16_15 C27_15 1_555 1_555
N4_15 C20_15 1_555 1_555
N8_6 C23_15 1_555 1_555
S8_15 C16_15 1_555 1_555
Fe3_3 N4_15 1_555 1_555
C16_15 S7_15 1_555 1_555
C22_15 N4_15 1_555 1_555
C25_15 S8_15 1_555 1_555
C27_15 N8_6 1_555 1_555
C4_15 C5_15 1_555 1_555
C6_15 C5_15 1_555 1_555
H2_15 C6_15 1_555 1_555
C7_15 C4_15 1_555 1_555
H3_15 C7_15 1_555 1_555
C8_15 C7_15 1_555 1_555
H4_15 C8_15 1_555 1_555
C14_14 N3_14 1_555 1_555
N1_8 C6_15 1_555 1_555
N3_14 Fe4_3 1_555 1_555
S5_14 C14_14 1_555 1_555
Fe4_3 N1_8 1_555 1_555
C28_14 N6_14 1_555 1_555
N6_14 Fe4_3 1_555 1_555
S10_14 C28_14 1_555 1_555
N7_8 Fe4_3 1_555 1_555
C4_15 S4_15 1_555 1_555
C8_15 N1_8 1_555 1_555
C1_15 S1_15 1_555 1_555
C2_15 C3_15 1_555 1_555
C3_15 S1_15 1_555 1_555
C9_15 H5_15 1_555 1_555
C10_15 C9_15 1_555 1_555
H6_15 C10_15 1_555 1_555
C11_15 C10_15 1_555 1_555
C12_15 C11_15 1_555 1_555
H7_15 C12_15 1_555 1_555
C13_15 C12_15 1_555 1_555
H8_15 C13_15 1_555 1_555
N9_6 C9_15 1_555 1_555
S2_15 C1_15 1_555 1_555
S3_15 C2_15 1_555 1_555
C15_15 C1_15 1_555 1_555
C17_15 S6_15 1_555 1_555
C21_15 C18_15 1_555 1_555
H11_15 C21_15 1_555 1_555
S6_15 C15_15 1_555 1_555
S9_15 C17_15 1_555 1_555
C2_15 S2_15 1_555 1_555
C11_15 S3_15 1_555 1_555
C13_15 N9_6 1_555 1_555
C18_15 S9_15 1_555 1_555
C1_16 S1_16 1_555 1_555
C2_16 C3_16 1_555 1_555
C3_16 S1_16 1_555 1_555
C4_16 C5_16 1_555 1_555
C5_16 H1_16 1_555 1_555
C6_16 C5_16 1_555 1_555
H2_16 C6_16 1_555 1_555
C7_16 C4_16 1_555 1_555
H3_16 C7_16 1_555 1_555
C8_16 C7_16 1_555 1_555
H4_16 C8_16 1_555 1_555
C9_16 H5_16 1_555 1_555
C10_16 C9_16 1_555 1_555
H6_16 C10_16 1_555 1_555
C11_16 C10_16 1_555 1_555
C12_16 C11_16 1_555 1_555
H7_16 C12_16 1_555 1_555
C13_16 C12_16 1_555 1_555
H8_16 C13_16 1_555 1_555
N7_8 C6_16 1_555 1_555
N8_7 C9_16 1_555 1_555
S2_16 C1_16 1_555 1_555
S3_16 C2_16 1_555 1_555
S4_16 C3_16 1_555 1_555
C15_16 C1_16 1_555 1_555
C16_16 C17_16 1_555 1_555
C17_16 S6_16 1_555 1_555
C18_16 C19_16 1_555 1_555
C19_16 H9_16 1_555 1_555
C20_16 C19_16 1_555 1_555
H10_16 C20_16 1_555 1_555
C21_16 C18_16 1_555 1_555
H11_16 C21_16 1_555 1_555
C22_16 C21_16 1_555 1_555
H12_16 C22_16 1_555 1_555
C26_16 C25_16 1_555 1_555
H15_16 C26_16 1_555 1_555
C27_16 C26_16 1_555 1_555
H16_16 C27_16 1_555 1_555
N4_16 C20_16 1_555 1_555
S6_16 C15_16 1_555 1_555
S7_16 C15_16 1_555 1_555
S8_16 C16_16 1_555 1_555
S9_16 C17_16 1_555 1_555
Fe3_3 N4_16 1_555 1_555
C2_16 S2_16 1_555 1_555
C4_16 S4_16 1_555 1_555
C8_16 N7_8 1_555 1_555
C11_16 S3_16 1_555 1_555
C13_16 N8_7 1_555 1_555
C16_16 S7_16 1_555 1_555
C18_16 S9_16 1_555 1_555
C22_16 N4_16 1_555 1_555
C25_16 S8_16 1_555 1_555
C23_16 H13_16 1_555 1_555
C24_16 C23_16 1_555 1_555
H14_16 C24_16 1_555 1_555
N9_7 C23_16 1_555 1_555
N3_15 Fe3_3 1_555 1_555
C28_15 N6_15 1_555 1_555
N6_15 Fe3_3 1_555 1_555
S10_15 C28_15 1_555 1_555
S5_15 C14_15 1_555 1_555
N3_16 Fe3_4 1_555 1_555
C28_16 N6_16 1_555 1_555
N6_16 Fe3_4 1_555 1_555
S10_16 C28_16 1_555 1_555
S5_16 C14_16 1_555 1_555

#END
