
###############################################################################
#
# This file contains modified crystal structure data generated from the
# MOF subset of the Cambridge Structural Database (CSD) v543 
# hosted by the Cambridge Crystallographic Data Centre (CCDC).
#
# This work is licensed under the Creative Commons
# Attribution-NonCommercial-ShareAlike 4.0 International License.
# To view a copy of this license, visit
# http://creativecommons.org/licenses/by-nc-sa/4.0/
# or send a letter to
# Creative Commons, PO Box 1866, Mountain View, CA 94042, USA.
#
# CIF created using the CSD Python API on 29 September 2022
# The structure has been converted into the P1 space group
# The structure has a 3D framework
# The original CSD entry BORKIF is in the orthorhombic crystal system
# The framework has been calculated to contain at least 10.0% void space
# The void calculation uses a probe of radius 1.32A, grid spacing 0.4
#
###############################################################################

data_BORKIF
_chemical_formula_moiety         '(C448 H256 Mn16 N96 S160)n'
_symmetry_cell_setting           triclinic
_symmetry_space_group_name_H-M   'P 1'
_symmetry_Int_Tables_number      1
_space_group_name_Hall           'P 1'
loop_
_symmetry_equiv_pos_site_id
_symmetry_equiv_pos_as_xyz
1 x,y,z
_cell_length_a                   13.2346(9)
_cell_length_b                   32.997(2)
_cell_length_c                   40.420(3)
_cell_angle_alpha                90
_cell_angle_beta                 90
_cell_angle_gamma                90
_cell_volume                     17651.5
loop_
_atom_site_label
_atom_site_type_symbol
_atom_site_fract_x
_atom_site_fract_y
_atom_site_fract_z
C1 C 0.1482(3) 0.60668(11) 0.16905(9)
C2 C 0.2761(3) 0.55198(11) 0.18509(10)
C3 C 0.1864(3) 0.53294(11) 0.18470(10)
C4 C 0.2182(3) 0.45629(11) 0.16069(9)
C5 C 0.2135(3) 0.41410(11) 0.16116(9)
H1 H 0.183349 0.400262 0.179253
C6 C 0.2535(3) 0.39276(10) 0.13481(9)
H2 H 0.249004 0.364028 0.135086
C7 C 0.2610(3) 0.47459(11) 0.13373(9)
H3 H 0.263091 0.503301 0.132132
C8 C 0.3010(3) 0.45076(10) 0.10885(9)
H4 H 0.332314 0.463934 0.090631
C9 C 0.4439(3) 0.55382(11) 0.22678(10)
C10 C 0.5332(4) 0.53865(13) 0.23913(11)
H5 H 0.562459 0.514931 0.229864
C11 C 0.5794(3) 0.55817(13) 0.26494(11)
H6 H 0.640351 0.546958 0.273337
C12 C 0.4576(3) 0.60572(12) 0.26655(10)
H7 H 0.430455 0.629801 0.275896
C13 C 0.4046(3) 0.58772(12) 0.24121(11)
H8 H 0.342053 0.598655 0.233921
C14 C 0.4325(3) 0.68534(11) 0.32330(10)
N1 N 0.5446(2) 0.59171(9) 0.27897(7)
N2 N 0.5070(2) 0.66881(9) 0.32134(8)
S1 S 0.32394(11) 0.70841(5) 0.32637(5)
N3 N 0.2983(2) 0.41058(8) 0.10892(7)
S2 S 0.08270(8) 0.56058(3) 0.17004(3)
S3 S 0.27991(8) 0.60159(3) 0.16856(3)
S4 S 0.38948(9) 0.52662(3) 0.19355(3)
S5 S 0.16479(9) 0.48223(3) 0.19493(3)
Mn1 Mn 0.625000 0.625000 0.31952(2)
C15 C 0.1018(3) 0.64332(11) 0.16905(9)
C17 C 0.0636(3) 0.71706(11) 0.18470(10)
C18 C 0.0318(3) 0.79371(11) 0.16069(9)
C19 C 0.0365(3) 0.83590(11) 0.16116(9)
H9 H 0.066651 0.849738 0.179253
H10 H 0.000996 0.885972 0.135086
S6 S 0.16730(8) 0.68942(3) 0.17004(3)
S9 S 0.08521(9) 0.76777(3) 0.19493(3)
C28 C 0.8175(3) 0.56466(11) 0.32330(10)
N6 N 0.7430(2) 0.58119(9) 0.32134(8)
S10 S 0.92606(11) 0.54159(5) 0.32637(5)
N7 N 0.7054(2) 0.65829(9) 0.27897(7)
N8 N 0.5483(2) 0.58942(8) 0.35892(7)
N9 N 0.7017(2) 0.66058(8) 0.35892(7)
Mn4 Mn 0.375000 0.375000 0.06952(2)
C16 C 0.9739(3) 0.69802(11) 0.18509(10)
C20 C 0.9965(3) 0.85724(10) 0.13481(9)
C21 C 0.9890(3) 0.77541(11) 0.13373(9)
H11 H 0.986909 0.746699 0.132132
C22 C 0.9490(3) 0.79924(10) 0.10885(9)
H12 H 0.917686 0.786066 0.090631
C23 C 0.8061(3) 0.69618(11) 0.22678(10)
C24 C 0.7168(4) 0.71135(13) 0.23913(11)
H13 H 0.687541 0.735069 0.229864
C25 C 0.6706(3) 0.69183(13) 0.26494(11)
H14 H 0.609649 0.703042 0.273337
C26 C 0.7924(3) 0.64428(12) 0.26655(10)
H15 H 0.819545 0.620199 0.275896
C27 C 0.8454(3) 0.66228(12) 0.24121(11)
H16 H 0.907947 0.651345 0.233921
N5 N 0.9517(2) 0.83942(8) 0.10892(7)
S7 S 0.97009(8) 0.64841(3) 0.16856(3)
S8 S 0.86052(9) 0.72338(3) 0.19355(3)
Mn3 Mn 0.875000 0.875000 0.06952(2)
C24_2 C 0.0332(4) 0.03865(13) 0.23913(11)
H13_2 H 0.062459 0.014931 0.229864
C25_2 C 0.0794(3) 0.05817(13) 0.26494(11)
H14_2 H 0.140351 0.046958 0.273337
N4 N 0.0446(2) 0.09171(9) 0.27897(7)
Mn2 Mn 0.125000 0.125000 0.31952(2)
C1_2 C 0.6018(3) 0.14332(11) 0.16905(9)
C2_2 C 0.4739(3) 0.19802(11) 0.18509(10)
C3_2 C 0.5636(3) 0.21706(11) 0.18470(10)
C4_2 C 0.5318(3) 0.29371(11) 0.16069(9)
C5_2 C 0.5365(3) 0.33590(11) 0.16116(9)
H1_2 H 0.566651 0.349738 0.179253
C6_2 C 0.4965(3) 0.35724(10) 0.13481(9)
H2_2 H 0.500996 0.385972 0.135086
C7_2 C 0.4890(3) 0.27541(11) 0.13373(9)
H3_2 H 0.486909 0.246699 0.132132
C8_2 C 0.4490(3) 0.29924(10) 0.10885(9)
H4_2 H 0.417686 0.286066 0.090631
C9_2 C 0.3061(3) 0.19618(11) 0.22678(10)
C10_2 C 0.2168(4) 0.21135(13) 0.23913(11)
H5_2 H 0.187541 0.235069 0.229864
C11_2 C 0.1706(3) 0.19183(13) 0.26494(11)
H6_2 H 0.109649 0.203042 0.273337
C12_2 C 0.2924(3) 0.14428(12) 0.26655(10)
H7_2 H 0.319545 0.120199 0.275896
C13_2 C 0.3454(3) 0.16228(12) 0.24121(11)
H8_2 H 0.407947 0.151345 0.233921
C14_2 C 0.3175(3) 0.06466(11) 0.32330(10)
N1_2 N 0.2054(2) 0.15829(9) 0.27897(7)
N2_2 N 0.2430(2) 0.08119(9) 0.32134(8)
S1_2 S 0.42606(11) 0.04159(5) 0.32637(5)
N3_2 N 0.4517(2) 0.33942(8) 0.10892(7)
S2_2 S 0.66730(8) 0.18942(3) 0.17004(3)
S3_2 S 0.47009(8) 0.14841(3) 0.16856(3)
S4_2 S 0.36052(9) 0.22338(3) 0.19355(3)
S5_2 S 0.58521(9) 0.26777(3) 0.19493(3)
C15_2 C 0.6482(3) 0.10668(11) 0.16905(9)
C16_2 C 0.7761(3) 0.05198(11) 0.18509(10)
C17_2 C 0.6864(3) 0.03294(11) 0.18470(10)
H11_2 H 0.763091 0.003301 0.132132
C23_2 C 0.9439(3) 0.05382(11) 0.22678(10)
C26_2 C 0.9576(3) 0.10572(12) 0.26655(10)
H15_2 H 0.930455 0.129801 0.275896
C27_2 C 0.9046(3) 0.08772(12) 0.24121(11)
H16_2 H 0.842053 0.098655 0.233921
S6_2 S 0.58270(8) 0.06058(3) 0.17004(3)
S7_2 S 0.77991(8) 0.10159(3) 0.16856(3)
S8_2 S 0.88948(9) 0.02662(3) 0.19355(3)
N6_2 N 0.0070(2) 0.16881(9) 0.32134(8)
N8_2 N 0.2017(2) 0.16058(8) 0.35892(7)
N9_2 N 0.0483(2) 0.08942(8) 0.35892(7)
C18_2 C 0.7182(3) 0.95629(11) 0.16069(9)
C19_2 C 0.7135(3) 0.91410(11) 0.16116(9)
H9_2 H 0.683349 0.900262 0.179253
C20_2 C 0.7535(3) 0.89276(10) 0.13481(9)
H10_2 H 0.749004 0.864028 0.135086
C21_2 C 0.7610(3) 0.97459(11) 0.13373(9)
C22_2 C 0.8010(3) 0.95076(10) 0.10885(9)
H12_2 H 0.832314 0.963934 0.090631
N5_2 N 0.7983(2) 0.91058(8) 0.10892(7)
S9_2 S 0.66479(9) 0.98223(3) 0.19493(3)
C28_2 C 0.9325(3) 0.18534(11) 0.32330(10)
S10_2 S 0.82394(11) 0.20841(5) 0.32637(5)
C1_3 C 0.1482(3) 0.10668(11) 0.66905(9)
C2_3 C 0.2761(3) 0.05198(11) 0.68509(10)
C3_3 C 0.1864(3) 0.03294(11) 0.68470(10)
H3_3 H 0.263091 0.003301 0.632132
C9_3 C 0.4439(3) 0.05382(11) 0.72678(10)
C10_3 C 0.5332(4) 0.03865(13) 0.73913(11)
H5_3 H 0.562459 0.014931 0.729864
C11_3 C 0.5794(3) 0.05817(13) 0.76494(11)
H6_3 H 0.640351 0.046958 0.773337
C12_3 C 0.4576(3) 0.10572(12) 0.76655(10)
H7_3 H 0.430455 0.129801 0.775896
C13_3 C 0.4046(3) 0.08772(12) 0.74121(11)
H8_3 H 0.342053 0.098655 0.733921
C14_3 C 0.4325(3) 0.18534(11) 0.82330(10)
N1_3 N 0.5446(2) 0.09171(9) 0.77897(7)
N2_3 N 0.5070(2) 0.16881(9) 0.82134(8)
S1_3 S 0.32394(11) 0.20841(5) 0.82637(5)
S2_3 S 0.08270(8) 0.06058(3) 0.67004(3)
S3_3 S 0.27991(8) 0.10159(3) 0.66856(3)
S4_3 S 0.38948(9) 0.02662(3) 0.69355(3)
Mn1_2 Mn 0.625000 0.125000 0.81952(2)
C15_3 C 0.1018(3) 0.14332(11) 0.66905(9)
C17_3 C 0.0636(3) 0.21706(11) 0.68470(10)
C18_3 C 0.0318(3) 0.29371(11) 0.66069(9)
C19_3 C 0.0365(3) 0.33590(11) 0.66116(9)
H9_3 H 0.066651 0.349738 0.679253
H10_3 H 0.000996 0.385972 0.635086
S6_3 S 0.16730(8) 0.18942(3) 0.67004(3)
S9_3 S 0.08521(9) 0.26777(3) 0.69493(3)
C28_3 C 0.8175(3) 0.06466(11) 0.82330(10)
N6_3 N 0.7430(2) 0.08119(9) 0.82134(8)
S10_3 S 0.92606(11) 0.04159(5) 0.82637(5)
N7_2 N 0.7054(2) 0.15829(9) 0.77897(7)
N8_3 N 0.5483(2) 0.08942(8) 0.85892(7)
N9_3 N 0.7017(2) 0.16058(8) 0.85892(7)
C4_3 C 0.2182(3) 0.95629(11) 0.66069(9)
C5_3 C 0.2135(3) 0.91410(11) 0.66116(9)
H1_3 H 0.183349 0.900262 0.679253
C6_3 C 0.2535(3) 0.89276(10) 0.63481(9)
H2_3 H 0.249004 0.864028 0.635086
C7_3 C 0.2610(3) 0.97459(11) 0.63373(9)
C8_3 C 0.3010(3) 0.95076(10) 0.60885(9)
H4_3 H 0.332314 0.963934 0.590631
N3_3 N 0.2983(2) 0.91058(8) 0.60892(7)
S5_3 S 0.16479(9) 0.98223(3) 0.69493(3)
Mn4_2 Mn 0.375000 0.875000 0.56952(2)
C16_3 C 0.9739(3) 0.19802(11) 0.68509(10)
C20_3 C 0.9965(3) 0.35724(10) 0.63481(9)
C21_3 C 0.9890(3) 0.27541(11) 0.63373(9)
H11_3 H 0.986909 0.246699 0.632132
C22_3 C 0.9490(3) 0.29924(10) 0.60885(9)
H12_3 H 0.917686 0.286066 0.590631
C23_3 C 0.8061(3) 0.19618(11) 0.72678(10)
C24_3 C 0.7168(4) 0.21135(13) 0.73913(11)
H13_3 H 0.687541 0.235069 0.729864
C25_3 C 0.6706(3) 0.19183(13) 0.76494(11)
H14_3 H 0.609649 0.203042 0.773337
C26_3 C 0.7924(3) 0.14428(12) 0.76655(10)
H15_3 H 0.819545 0.120199 0.775896
C27_3 C 0.8454(3) 0.16228(12) 0.74121(11)
H16_3 H 0.907947 0.151345 0.733921
N5_3 N 0.9517(2) 0.33942(8) 0.60892(7)
S7_3 S 0.97009(8) 0.14841(3) 0.66856(3)
S8_3 S 0.86052(9) 0.22338(3) 0.69355(3)
Mn3_2 Mn 0.875000 0.375000 0.56952(2)
C24_4 C 0.0332(4) 0.53865(13) 0.73913(11)
H13_4 H 0.062459 0.514931 0.729864
C25_4 C 0.0794(3) 0.55817(13) 0.76494(11)
H14_4 H 0.140351 0.546958 0.773337
N4_2 N 0.0446(2) 0.59171(9) 0.77897(7)
Mn2_2 Mn 0.125000 0.625000 0.81952(2)
C1_4 C 0.6018(3) 0.64332(11) 0.66905(9)
C2_4 C 0.4739(3) 0.69802(11) 0.68509(10)
C3_4 C 0.5636(3) 0.71706(11) 0.68470(10)
C4_4 C 0.5318(3) 0.79371(11) 0.66069(9)
C5_4 C 0.5365(3) 0.83590(11) 0.66116(9)
H1_4 H 0.566651 0.849738 0.679253
C6_4 C 0.4965(3) 0.85724(10) 0.63481(9)
H2_4 H 0.500996 0.885972 0.635086
C7_4 C 0.4890(3) 0.77541(11) 0.63373(9)
H3_4 H 0.486909 0.746699 0.632132
C8_4 C 0.4490(3) 0.79924(10) 0.60885(9)
H4_4 H 0.417686 0.786066 0.590631
C9_4 C 0.3061(3) 0.69618(11) 0.72678(10)
C10_4 C 0.2168(4) 0.71135(13) 0.73913(11)
H5_4 H 0.187541 0.735069 0.729864
C11_4 C 0.1706(3) 0.69183(13) 0.76494(11)
H6_4 H 0.109649 0.703042 0.773337
C12_4 C 0.2924(3) 0.64428(12) 0.76655(10)
H7_4 H 0.319545 0.620199 0.775896
C13_4 C 0.3454(3) 0.66228(12) 0.74121(11)
H8_4 H 0.407947 0.651345 0.733921
C14_4 C 0.3175(3) 0.56466(11) 0.82330(10)
N1_4 N 0.2054(2) 0.65829(9) 0.77897(7)
N2_4 N 0.2430(2) 0.58119(9) 0.82134(8)
S1_4 S 0.42606(11) 0.54159(5) 0.82637(5)
N3_4 N 0.4517(2) 0.83942(8) 0.60892(7)
S2_4 S 0.66730(8) 0.68942(3) 0.67004(3)
S3_4 S 0.47009(8) 0.64841(3) 0.66856(3)
S4_4 S 0.36052(9) 0.72338(3) 0.69355(3)
S5_4 S 0.58521(9) 0.76777(3) 0.69493(3)
C15_4 C 0.6482(3) 0.60668(11) 0.66905(9)
C16_4 C 0.7761(3) 0.55198(11) 0.68509(10)
C17_4 C 0.6864(3) 0.53294(11) 0.68470(10)
C18_4 C 0.7182(3) 0.45629(11) 0.66069(9)
C19_4 C 0.7135(3) 0.41410(11) 0.66116(9)
H9_4 H 0.683349 0.400262 0.679253
C20_4 C 0.7535(3) 0.39276(10) 0.63481(9)
H10_4 H 0.749004 0.364028 0.635086
C21_4 C 0.7610(3) 0.47459(11) 0.63373(9)
H11_4 H 0.763091 0.503301 0.632132
C22_4 C 0.8010(3) 0.45076(10) 0.60885(9)
H12_4 H 0.832314 0.463934 0.590631
C23_4 C 0.9439(3) 0.55382(11) 0.72678(10)
C26_4 C 0.9576(3) 0.60572(12) 0.76655(10)
H15_4 H 0.930455 0.629801 0.775896
C27_4 C 0.9046(3) 0.58772(12) 0.74121(11)
H16_4 H 0.842053 0.598655 0.733921
N5_4 N 0.7983(2) 0.41058(8) 0.60892(7)
S6_4 S 0.58270(8) 0.56058(3) 0.67004(3)
S7_4 S 0.77991(8) 0.60159(3) 0.66856(3)
S8_4 S 0.88948(9) 0.52662(3) 0.69355(3)
S9_4 S 0.66479(9) 0.48223(3) 0.69493(3)
N6_4 N 0.0070(2) 0.66881(9) 0.82134(8)
N8_4 N 0.2017(2) 0.66058(8) 0.85892(7)
N9_4 N 0.0483(2) 0.58942(8) 0.85892(7)
C28_4 C 0.9325(3) 0.68534(11) 0.82330(10)
S10_4 S 0.82394(11) 0.70841(5) 0.82637(5)
C28_5 C 0.0675(3) 0.43534(11) 0.57330(10)
S10_5 S 0.17606(11) 0.45841(5) 0.57637(5)
C1_5 C 0.3982(3) 0.39332(11) 0.41905(9)
C2_5 C 0.5261(3) 0.44802(11) 0.43509(10)
C3_5 C 0.4364(3) 0.46706(11) 0.43470(10)
C4_5 C 0.4682(3) 0.54371(11) 0.41069(9)
C5_5 C 0.4635(3) 0.58590(11) 0.41116(9)
H1_5 H 0.433349 0.599738 0.429253
C6_5 C 0.5035(3) 0.60724(10) 0.38481(9)
H2_5 H 0.499004 0.635972 0.385086
C7_5 C 0.5110(3) 0.52541(11) 0.38373(9)
H3_5 H 0.513091 0.496699 0.382132
C8_5 C 0.5510(3) 0.54924(10) 0.35885(9)
H4_5 H 0.582314 0.536066 0.340631
C9_5 C 0.6939(3) 0.44618(11) 0.47678(10)
C10_5 C 0.7832(4) 0.46135(13) 0.48913(11)
H5_5 H 0.812459 0.485069 0.479864
C11_5 C 0.8294(3) 0.44183(13) 0.51494(11)
H6_5 H 0.890351 0.453042 0.523337
C12_5 C 0.7076(3) 0.39428(12) 0.51655(10)
H7_5 H 0.680455 0.370199 0.525896
C13_5 C 0.6546(3) 0.41228(12) 0.49121(11)
H8_5 H 0.592053 0.401345 0.483921
C14_5 C 0.6825(3) 0.31466(11) 0.57330(10)
N1_5 N 0.7946(2) 0.40829(9) 0.52897(7)
N2_5 N 0.7570(2) 0.33119(9) 0.57134(8)
S1_5 S 0.57394(11) 0.29159(5) 0.57637(5)
S2_5 S 0.33270(8) 0.43942(3) 0.42004(3)
S3_5 S 0.52991(8) 0.39841(3) 0.41856(3)
S4_5 S 0.63948(9) 0.47338(3) 0.44355(3)
S5_5 S 0.41479(9) 0.51777(3) 0.44493(3)
C15_5 C 0.3518(3) 0.35668(11) 0.41905(9)
C16_5 C 0.2239(3) 0.30198(11) 0.43509(10)
C17_5 C 0.3136(3) 0.28294(11) 0.43470(10)
C18_5 C 0.2818(3) 0.20629(11) 0.41069(9)
C19_5 C 0.2865(3) 0.16410(11) 0.41116(9)
H9_5 H 0.316651 0.150262 0.429253
C20_5 C 0.2465(3) 0.14276(10) 0.38481(9)
H10_5 H 0.250996 0.114028 0.385086
C21_5 C 0.2390(3) 0.22459(11) 0.38373(9)
H11_5 H 0.236909 0.253301 0.382132
C22_5 C 0.1990(3) 0.20076(10) 0.35885(9)
H12_5 H 0.167686 0.213934 0.340631
C23_5 C 0.0561(3) 0.30382(11) 0.47678(10)
C26_5 C 0.0424(3) 0.35572(12) 0.51655(10)
H15_5 H 0.069545 0.379801 0.525896
C27_5 C 0.0954(3) 0.33772(12) 0.49121(11)
H16_5 H 0.157947 0.348655 0.483921
S6_5 S 0.41730(8) 0.31058(3) 0.42004(3)
S7_5 S 0.22009(8) 0.35159(3) 0.41856(3)
S8_5 S 0.11052(9) 0.27662(3) 0.44355(3)
S9_5 S 0.33521(9) 0.23223(3) 0.44493(3)
N6_5 N 0.9930(2) 0.41881(9) 0.57134(8)
N7_3 N 0.9554(2) 0.34171(9) 0.52897(7)
C24_5 C 0.9668(4) 0.28865(13) 0.48913(11)
H13_5 H 0.937541 0.264931 0.479864
C25_5 C 0.9206(3) 0.30817(13) 0.51494(11)
H14_5 H 0.859649 0.296958 0.523337
C20_6 C 0.0035(3) 0.10724(10) 0.38481(9)
C21_6 C 0.0110(3) 0.02541(11) 0.38373(9)
C22_6 C 0.0510(3) 0.04924(10) 0.35885(9)
H12_6 H 0.082314 0.036066 0.340631
C16_6 C 0.0261(3) 0.94802(11) 0.43509(10)
H11_6 H 0.013091 0.996699 0.382132
C23_6 C 0.1939(3) 0.94618(11) 0.47678(10)
C24_6 C 0.2832(4) 0.96135(13) 0.48913(11)
H13_6 H 0.312459 0.985069 0.479864
C25_6 C 0.3294(3) 0.94183(13) 0.51494(11)
H14_6 H 0.390351 0.953042 0.523337
C26_6 C 0.2076(3) 0.89428(12) 0.51655(10)
H15_6 H 0.180455 0.870199 0.525896
C27_6 C 0.1546(3) 0.91228(12) 0.49121(11)
H16_6 H 0.092053 0.901345 0.483921
N4_3 N 0.2946(2) 0.90829(9) 0.52897(7)
S7_6 S 0.02991(8) 0.89841(3) 0.41856(3)
S8_6 S 0.13948(9) 0.97338(3) 0.44355(3)
C1_6 C 0.8518(3) 0.85668(11) 0.41905(9)
C2_6 C 0.7239(3) 0.80198(11) 0.43509(10)
C3_6 C 0.8136(3) 0.78294(11) 0.43470(10)
C4_6 C 0.7818(3) 0.70629(11) 0.41069(9)
C5_6 C 0.7865(3) 0.66410(11) 0.41116(9)
H1_6 H 0.816651 0.650262 0.429253
C6_6 C 0.7465(3) 0.64276(10) 0.38481(9)
H2_6 H 0.750996 0.614028 0.385086
C7_6 C 0.7390(3) 0.72459(11) 0.38373(9)
H3_6 H 0.736909 0.753301 0.382132
C8_6 C 0.6990(3) 0.70076(10) 0.35885(9)
H4_6 H 0.667686 0.713934 0.340631
C9_6 C 0.5561(3) 0.80382(11) 0.47678(10)
C10_6 C 0.4668(4) 0.78865(13) 0.48913(11)
H5_6 H 0.437541 0.764931 0.479864
C11_6 C 0.4206(3) 0.80817(13) 0.51494(11)
H6_6 H 0.359649 0.796958 0.523337
C12_6 C 0.5424(3) 0.85572(12) 0.51655(10)
H7_6 H 0.569545 0.879801 0.525896
C13_6 C 0.5954(3) 0.83772(12) 0.49121(11)
H8_6 H 0.657947 0.848655 0.483921
C14_6 C 0.5675(3) 0.93534(11) 0.57330(10)
N1_6 N 0.4554(2) 0.84171(9) 0.52897(7)
N2_6 N 0.4930(2) 0.91881(9) 0.57134(8)
S1_6 S 0.67606(11) 0.95841(5) 0.57637(5)
S2_6 S 0.91730(8) 0.81058(3) 0.42004(3)
S3_6 S 0.72009(8) 0.85159(3) 0.41856(3)
S4_6 S 0.61052(9) 0.77662(3) 0.44355(3)
S5_6 S 0.83521(9) 0.73223(3) 0.44493(3)
C15_6 C 0.8982(3) 0.89332(11) 0.41905(9)
C17_6 C 0.9364(3) 0.96706(11) 0.43470(10)
S6_6 S 0.83270(8) 0.93942(3) 0.42004(3)
C28_6 C 0.1825(3) 0.81466(11) 0.57330(10)
N6_6 N 0.2570(2) 0.83119(9) 0.57134(8)
S10_6 S 0.07394(11) 0.79159(5) 0.57637(5)
C28_7 C 0.0675(3) 0.93534(11) 0.07330(10)
S10_7 S 0.17606(11) 0.95841(5) 0.07637(5)
C4_7 C 0.4682(3) 0.04371(11) 0.91069(9)
C5_7 C 0.4635(3) 0.08590(11) 0.91116(9)
H1_7 H 0.433349 0.099738 0.929253
C6_7 C 0.5035(3) 0.10724(10) 0.88481(9)
H2_7 H 0.499004 0.135972 0.885086
C7_7 C 0.5110(3) 0.02541(11) 0.88373(9)
C8_7 C 0.5510(3) 0.04924(10) 0.85885(9)
H4_7 H 0.582314 0.036066 0.840631
S5_7 S 0.41479(9) 0.01777(3) 0.94493(3)
C11_7 C 0.8294(3) 0.94183(13) 0.01494(11)
H6_7 H 0.890351 0.953042 0.023337
C12_7 C 0.7076(3) 0.89428(12) 0.01655(10)
H7_7 H 0.680455 0.870199 0.025896
C14_7 C 0.6825(3) 0.81466(11) 0.07330(10)
N1_7 N 0.7946(2) 0.90829(9) 0.02897(7)
N2_7 N 0.7570(2) 0.83119(9) 0.07134(8)
S1_7 S 0.57394(11) 0.79159(5) 0.07637(5)
C26_7 C 0.0424(3) 0.85572(12) 0.01655(10)
H15_7 H 0.069545 0.879801 0.025896
N6_7 N 0.9930(2) 0.91881(9) 0.07134(8)
N7_4 N 0.9554(2) 0.84171(9) 0.02897(7)
C1_7 C 0.3982(3) 0.89332(11) 0.91905(9)
C2_7 C 0.5261(3) 0.94802(11) 0.93509(10)
C3_7 C 0.4364(3) 0.96706(11) 0.93470(10)
H3_7 H 0.513091 0.996699 0.882132
C9_7 C 0.6939(3) 0.94618(11) 0.97678(10)
C10_7 C 0.7832(4) 0.96135(13) 0.98913(11)
H5_7 H 0.812459 0.985069 0.979864
C13_7 C 0.6546(3) 0.91228(12) 0.99121(11)
H8_7 H 0.592053 0.901345 0.983921
S2_7 S 0.33270(8) 0.93942(3) 0.92004(3)
S3_7 S 0.52991(8) 0.89841(3) 0.91856(3)
S4_7 S 0.63948(9) 0.97338(3) 0.94355(3)
C15_7 C 0.3518(3) 0.85668(11) 0.91905(9)
C16_7 C 0.2239(3) 0.80198(11) 0.93509(10)
C17_7 C 0.3136(3) 0.78294(11) 0.93470(10)
C18_6 C 0.2818(3) 0.70629(11) 0.91069(9)
C19_6 C 0.2865(3) 0.66410(11) 0.91116(9)
H9_6 H 0.316651 0.650262 0.929253
C20_7 C 0.2465(3) 0.64276(10) 0.88481(9)
H10_6 H 0.250996 0.614028 0.885086
C21_7 C 0.2390(3) 0.72459(11) 0.88373(9)
H11_7 H 0.236909 0.753301 0.882132
C22_7 C 0.1990(3) 0.70076(10) 0.85885(9)
H12_7 H 0.167686 0.713934 0.840631
C23_7 C 0.0561(3) 0.80382(11) 0.97678(10)
C27_7 C 0.0954(3) 0.83772(12) 0.99121(11)
H16_7 H 0.157947 0.848655 0.983921
S6_7 S 0.41730(8) 0.81058(3) 0.92004(3)
S7_7 S 0.22009(8) 0.85159(3) 0.91856(3)
S8_7 S 0.11052(9) 0.77662(3) 0.94355(3)
S9_6 S 0.33521(9) 0.73223(3) 0.94493(3)
C25_7 C 0.9206(3) 0.80817(13) 0.01494(11)
H14_7 H 0.859649 0.796958 0.023337
C25_8 C 0.3294(3) 0.44183(13) 0.01494(11)
H14_8 H 0.390351 0.453042 0.023337
C26_8 C 0.2076(3) 0.39428(12) 0.01655(10)
H15_8 H 0.180455 0.370199 0.025896
N4_4 N 0.2946(2) 0.40829(9) 0.02897(7)
C16_8 C 0.0261(3) 0.44802(11) 0.93509(10)
C20_8 C 0.0035(3) 0.60724(10) 0.88481(9)
C21_8 C 0.0110(3) 0.52541(11) 0.88373(9)
H11_8 H 0.013091 0.496699 0.882132
C22_8 C 0.0510(3) 0.54924(10) 0.85885(9)
H12_8 H 0.082314 0.536066 0.840631
C23_8 C 0.1939(3) 0.44618(11) 0.97678(10)
C24_7 C 0.2832(4) 0.46135(13) 0.98913(11)
H13_7 H 0.312459 0.485069 0.979864
C27_8 C 0.1546(3) 0.41228(12) 0.99121(11)
H16_8 H 0.092053 0.401345 0.983921
S7_8 S 0.02991(8) 0.39841(3) 0.91856(3)
S8_8 S 0.13948(9) 0.47338(3) 0.94355(3)
C11_8 C 0.4206(3) 0.30817(13) 0.01494(11)
H6_8 H 0.359649 0.296958 0.023337
C12_8 C 0.5424(3) 0.35572(12) 0.01655(10)
H7_8 H 0.569545 0.379801 0.025896
C14_8 C 0.5675(3) 0.43534(11) 0.07330(10)
N1_8 N 0.4554(2) 0.34171(9) 0.02897(7)
N2_8 N 0.4930(2) 0.41881(9) 0.07134(8)
S1_8 S 0.67606(11) 0.45841(5) 0.07637(5)
C28_8 C 0.1825(3) 0.31466(11) 0.07330(10)
N6_8 N 0.2570(2) 0.33119(9) 0.07134(8)
S10_8 S 0.07394(11) 0.29159(5) 0.07637(5)
C1_8 C 0.8518(3) 0.35668(11) 0.91905(9)
C2_8 C 0.7239(3) 0.30198(11) 0.93509(10)
C3_8 C 0.8136(3) 0.28294(11) 0.93470(10)
C4_8 C 0.7818(3) 0.20629(11) 0.91069(9)
C5_8 C 0.7865(3) 0.16410(11) 0.91116(9)
H1_8 H 0.816651 0.150262 0.929253
C6_8 C 0.7465(3) 0.14276(10) 0.88481(9)
H2_8 H 0.750996 0.114028 0.885086
C7_8 C 0.7390(3) 0.22459(11) 0.88373(9)
H3_8 H 0.736909 0.253301 0.882132
C8_8 C 0.6990(3) 0.20076(10) 0.85885(9)
H4_8 H 0.667686 0.213934 0.840631
C9_8 C 0.5561(3) 0.30382(11) 0.97678(10)
C10_8 C 0.4668(4) 0.28865(13) 0.98913(11)
H5_8 H 0.437541 0.264931 0.979864
C13_8 C 0.5954(3) 0.33772(12) 0.99121(11)
H8_8 H 0.657947 0.348655 0.983921
S2_8 S 0.91730(8) 0.31058(3) 0.92004(3)
S3_8 S 0.72009(8) 0.35159(3) 0.91856(3)
S4_8 S 0.61052(9) 0.27662(3) 0.94355(3)
S5_8 S 0.83521(9) 0.23223(3) 0.94493(3)
C15_8 C 0.8982(3) 0.39332(11) 0.91905(9)
C17_8 C 0.9364(3) 0.46706(11) 0.93470(10)
C18_7 C 0.9682(3) 0.54371(11) 0.91069(9)
C19_7 C 0.9635(3) 0.58590(11) 0.91116(9)
H9_7 H 0.933349 0.599738 0.929253
H10_7 H 0.999004 0.635972 0.885086
S6_8 S 0.83270(8) 0.43942(3) 0.92004(3)
S9_7 S 0.91479(9) 0.51777(3) 0.94493(3)
C24_8 C 0.0332(4) 0.71135(13) 0.51087(11)
H13_8 H 0.062459 0.735069 0.520136
C25_9 C 0.0794(3) 0.69183(13) 0.48506(11)
H14_9 H 0.140351 0.703042 0.476663
N4_5 N 0.0446(2) 0.65829(9) 0.47103(7)
Mn2_3 Mn 0.125000 0.625000 0.43048(2)
C1_9 C 0.6018(3) 0.60668(11) 0.58095(9)
C2_9 C 0.4739(3) 0.55198(11) 0.56491(10)
C3_9 C 0.5636(3) 0.53294(11) 0.56530(10)
C4_9 C 0.5318(3) 0.45629(11) 0.58931(9)
C5_9 C 0.5365(3) 0.41410(11) 0.58884(9)
H1_9 H 0.566651 0.400262 0.570747
C6_9 C 0.4965(3) 0.39276(10) 0.61519(9)
H2_9 H 0.500996 0.364028 0.614914
C7_9 C 0.4890(3) 0.47459(11) 0.61627(9)
H3_9 H 0.486909 0.503301 0.617868
C8_9 C 0.4490(3) 0.45076(10) 0.64115(9)
H4_9 H 0.417686 0.463934 0.659369
C9_9 C 0.3061(3) 0.55382(11) 0.52322(10)
C10_9 C 0.2168(4) 0.53865(13) 0.51087(11)
H5_9 H 0.187541 0.514931 0.520136
C11_9 C 0.1706(3) 0.55817(13) 0.48506(11)
H6_9 H 0.109649 0.546958 0.476663
C12_9 C 0.2924(3) 0.60572(12) 0.48345(10)
H7_9 H 0.319545 0.629801 0.474104
C13_9 C 0.3454(3) 0.58772(12) 0.50879(11)
H8_9 H 0.407947 0.598655 0.516079
C14_9 C 0.3175(3) 0.68534(11) 0.42670(10)
N1_9 N 0.2054(2) 0.59171(9) 0.47103(7)
N2_9 N 0.2430(2) 0.66881(9) 0.42866(8)
S1_9 S 0.42606(11) 0.70841(5) 0.42363(5)
N3_5 N 0.4517(2) 0.41058(8) 0.64108(7)
S2_9 S 0.66730(8) 0.56058(3) 0.57996(3)
S3_9 S 0.47009(8) 0.60159(3) 0.58144(3)
S4_9 S 0.36052(9) 0.52662(3) 0.55645(3)
S5_9 S 0.58521(9) 0.48223(3) 0.55507(3)
C15_9 C 0.6482(3) 0.64332(11) 0.58095(9)
C16_9 C 0.7761(3) 0.69802(11) 0.56491(10)
C17_9 C 0.6864(3) 0.71706(11) 0.56530(10)
C18_8 C 0.7182(3) 0.79371(11) 0.58931(9)
C19_8 C 0.7135(3) 0.83590(11) 0.58884(9)
H9_8 H 0.683349 0.849738 0.570747
C20_9 C 0.7535(3) 0.85724(10) 0.61519(9)
H10_8 H 0.749004 0.885972 0.614914
C21_9 C 0.7610(3) 0.77541(11) 0.61627(9)
H11_9 H 0.763091 0.746699 0.617868
C22_9 C 0.8010(3) 0.79924(10) 0.64115(9)
H12_9 H 0.832314 0.786066 0.659369
C23_9 C 0.9439(3) 0.69618(11) 0.52322(10)
C26_9 C 0.9576(3) 0.64428(12) 0.48345(10)
H15_9 H 0.930455 0.620199 0.474104
C27_9 C 0.9046(3) 0.66228(12) 0.50879(11)
H16_9 H 0.842053 0.651345 0.516079
N5_5 N 0.7983(2) 0.83942(8) 0.64108(7)
S6_9 S 0.58270(8) 0.68942(3) 0.57996(3)
S7_9 S 0.77991(8) 0.64841(3) 0.58144(3)
S8_9 S 0.88948(9) 0.72338(3) 0.55645(3)
S9_8 S 0.66479(9) 0.76777(3) 0.55507(3)
N6_9 N 0.0070(2) 0.58119(9) 0.42866(8)
N8_5 N 0.2017(2) 0.58942(8) 0.39108(7)
N9_5 N 0.0483(2) 0.66058(8) 0.39108(7)
Mn3_3 Mn 0.875000 0.875000 0.68048(2)
Mn4_3 Mn 0.375000 0.375000 0.68048(2)
C28_9 C 0.9325(3) 0.56466(11) 0.42670(10)
S10_9 S 0.82394(11) 0.54159(5) 0.42363(5)
C1_10 C 0.1482(3) 0.14332(11) 0.58095(9)
C2_10 C 0.2761(3) 0.19802(11) 0.56491(10)
C3_10 C 0.1864(3) 0.21706(11) 0.56530(10)
C4_10 C 0.2182(3) 0.29371(11) 0.58931(9)
C5_10 C 0.2135(3) 0.33590(11) 0.58884(9)
H1_10 H 0.183349 0.349738 0.570747
C6_10 C 0.2535(3) 0.35724(10) 0.61519(9)
H2_10 H 0.249004 0.385972 0.614914
C7_10 C 0.2610(3) 0.27541(11) 0.61627(9)
H3_10 H 0.263091 0.246699 0.617868
C8_10 C 0.3010(3) 0.29924(10) 0.64115(9)
H4_10 H 0.332314 0.286066 0.659369
C9_10 C 0.4439(3) 0.19618(11) 0.52322(10)
C10_10 C 0.5332(4) 0.21135(13) 0.51087(11)
H5_10 H 0.562459 0.235069 0.520136
C11_10 C 0.5794(3) 0.19183(13) 0.48506(11)
H6_10 H 0.640351 0.203042 0.476663
C12_10 C 0.4576(3) 0.14428(12) 0.48345(10)
H7_10 H 0.430455 0.120199 0.474104
C13_10 C 0.4046(3) 0.16228(12) 0.50879(11)
H8_10 H 0.342053 0.151345 0.516079
C14_10 C 0.4325(3) 0.06466(11) 0.42670(10)
N1_10 N 0.5446(2) 0.15829(9) 0.47103(7)
N2_10 N 0.5070(2) 0.08119(9) 0.42866(8)
S1_10 S 0.32394(11) 0.04159(5) 0.42363(5)
N3_6 N 0.2983(2) 0.33942(8) 0.64108(7)
S2_10 S 0.08270(8) 0.18942(3) 0.57996(3)
S3_10 S 0.27991(8) 0.14841(3) 0.58144(3)
S4_10 S 0.38948(9) 0.22338(3) 0.55645(3)
S5_10 S 0.16479(9) 0.26777(3) 0.55507(3)
Mn1_3 Mn 0.625000 0.125000 0.43048(2)
C15_10 C 0.1018(3) 0.10668(11) 0.58095(9)
C17_10 C 0.0636(3) 0.03294(11) 0.56530(10)
S6_10 S 0.16730(8) 0.06058(3) 0.57996(3)
C28_10 C 0.8175(3) 0.18534(11) 0.42670(10)
N6_10 N 0.7430(2) 0.16881(9) 0.42866(8)
S10_10 S 0.92606(11) 0.20841(5) 0.42363(5)
N7_5 N 0.7054(2) 0.09171(9) 0.47103(7)
N8_6 N 0.5483(2) 0.16058(8) 0.39108(7)
N9_6 N 0.7017(2) 0.08942(8) 0.39108(7)
C16_10 C 0.9739(3) 0.05198(11) 0.56491(10)
H11_10 H 0.986909 0.003301 0.617868
C23_10 C 0.8061(3) 0.05382(11) 0.52322(10)
C24_9 C 0.7168(4) 0.03865(13) 0.51087(11)
H13_9 H 0.687541 0.014931 0.520136
C25_10 C 0.6706(3) 0.05817(13) 0.48506(11)
H14_10 H 0.609649 0.046958 0.476663
C26_10 C 0.7924(3) 0.10572(12) 0.48345(10)
H15_10 H 0.819545 0.129801 0.474104
C27_10 C 0.8454(3) 0.08772(12) 0.50879(11)
H16_10 H 0.907947 0.098655 0.516079
S7_10 S 0.97009(8) 0.10159(3) 0.58144(3)
S8_10 S 0.86052(9) 0.02662(3) 0.55645(3)
C20_10 C 0.9965(3) 0.89276(10) 0.61519(9)
C21_10 C 0.9890(3) 0.97459(11) 0.61627(9)
C22_10 C 0.9490(3) 0.95076(10) 0.64115(9)
H12_10 H 0.917686 0.963934 0.659369
N5_6 N 0.9517(2) 0.91058(8) 0.64108(7)
C25_11 C 0.0794(3) 0.19183(13) 0.98506(11)
H14_11 H 0.140351 0.203042 0.976663
N4_6 N 0.0446(2) 0.15829(9) 0.97103(7)
Mn2_4 Mn 0.125000 0.125000 0.93048(2)
C1_11 C 0.6018(3) 0.10668(11) 0.08095(9)
C2_11 C 0.4739(3) 0.05198(11) 0.06491(10)
C3_11 C 0.5636(3) 0.03294(11) 0.06530(10)
H3_11 H 0.486909 0.003301 0.117868
C9_11 C 0.3061(3) 0.05382(11) 0.02322(10)
C10_11 C 0.2168(4) 0.03865(13) 0.01087(11)
H5_11 H 0.187541 0.014931 0.020136
C13_11 C 0.3454(3) 0.08772(12) 0.00879(11)
H8_11 H 0.407947 0.098655 0.016079
S2_11 S 0.66730(8) 0.06058(3) 0.07996(3)
S3_11 S 0.47009(8) 0.10159(3) 0.08144(3)
S4_11 S 0.36052(9) 0.02662(3) 0.05645(3)
C15_11 C 0.6482(3) 0.14332(11) 0.08095(9)
C16_11 C 0.7761(3) 0.19802(11) 0.06491(10)
C17_11 C 0.6864(3) 0.21706(11) 0.06530(10)
C18_9 C 0.7182(3) 0.29371(11) 0.08931(9)
C19_9 C 0.7135(3) 0.33590(11) 0.08884(9)
H9_9 H 0.683349 0.349738 0.070747
C20_11 C 0.7535(3) 0.35724(10) 0.11519(9)
H10_9 H 0.749004 0.385972 0.114914
C21_11 C 0.7610(3) 0.27541(11) 0.11627(9)
H11_11 H 0.763091 0.246699 0.117868
C22_11 C 0.8010(3) 0.29924(10) 0.14115(9)
H12_11 H 0.832314 0.286066 0.159369
C23_11 C 0.9439(3) 0.19618(11) 0.02322(10)
C27_11 C 0.9046(3) 0.16228(12) 0.00879(11)
H16_11 H 0.842053 0.151345 0.016079
N5_7 N 0.7983(2) 0.33942(8) 0.14108(7)
S6_11 S 0.58270(8) 0.18942(3) 0.07996(3)
S7_11 S 0.77991(8) 0.14841(3) 0.08144(3)
S8_11 S 0.88948(9) 0.22338(3) 0.05645(3)
S9_9 S 0.66479(9) 0.26777(3) 0.05507(3)
Mn3_4 Mn 0.875000 0.375000 0.18048(2)
C11_11 C 0.1706(3) 0.05817(13) 0.98506(11)
H6_11 H 0.109649 0.046958 0.976663
C12_11 C 0.2924(3) 0.10572(12) 0.98345(10)
H7_11 H 0.319545 0.129801 0.974104
C14_11 C 0.3175(3) 0.18534(11) 0.92670(10)
N1_11 N 0.2054(2) 0.09171(9) 0.97103(7)
N2_11 N 0.2430(2) 0.16881(9) 0.92866(8)
S1_11 S 0.42606(11) 0.20841(5) 0.92363(5)
C26_11 C 0.9576(3) 0.14428(12) 0.98345(10)
H15_11 H 0.930455 0.120199 0.974104
N6_11 N 0.0070(2) 0.08119(9) 0.92866(8)
N8_7 N 0.2017(2) 0.08942(8) 0.89108(7)
N9_7 N 0.0483(2) 0.16058(8) 0.89108(7)
C4_11 C 0.5318(3) 0.95629(11) 0.08931(9)
C5_11 C 0.5365(3) 0.91410(11) 0.08884(9)
H1_11 H 0.566651 0.900262 0.070747
C6_11 C 0.4965(3) 0.89276(10) 0.11519(9)
H2_11 H 0.500996 0.864028 0.114914
C7_11 C 0.4890(3) 0.97459(11) 0.11627(9)
C8_11 C 0.4490(3) 0.95076(10) 0.14115(9)
H4_11 H 0.417686 0.963934 0.159369
N3_7 N 0.4517(2) 0.91058(8) 0.14108(7)
S5_11 S 0.58521(9) 0.98223(3) 0.05507(3)
Mn4_4 Mn 0.375000 0.875000 0.18048(2)
C28_11 C 0.9325(3) 0.06466(11) 0.92670(10)
S10_11 S 0.82394(11) 0.04159(5) 0.92363(5)
C1_12 C 0.1482(3) 0.64332(11) 0.08095(9)
C2_12 C 0.2761(3) 0.69802(11) 0.06491(10)
C3_12 C 0.1864(3) 0.71706(11) 0.06530(10)
C4_12 C 0.2182(3) 0.79371(11) 0.08931(9)
C5_12 C 0.2135(3) 0.83590(11) 0.08884(9)
H1_12 H 0.183349 0.849738 0.070747
C6_12 C 0.2535(3) 0.85724(10) 0.11519(9)
H2_12 H 0.249004 0.885972 0.114914
C7_12 C 0.2610(3) 0.77541(11) 0.11627(9)
H3_12 H 0.263091 0.746699 0.117868
C8_12 C 0.3010(3) 0.79924(10) 0.14115(9)
H4_12 H 0.332314 0.786066 0.159369
C9_12 C 0.4439(3) 0.69618(11) 0.02322(10)
C10_12 C 0.5332(4) 0.71135(13) 0.01087(11)
H5_12 H 0.562459 0.735069 0.020136
C13_12 C 0.4046(3) 0.66228(12) 0.00879(11)
H8_12 H 0.342053 0.651345 0.016079
N3_8 N 0.2983(2) 0.83942(8) 0.14108(7)
S2_12 S 0.08270(8) 0.68942(3) 0.07996(3)
S3_12 S 0.27991(8) 0.64841(3) 0.08144(3)
S4_12 S 0.38948(9) 0.72338(3) 0.05645(3)
S5_12 S 0.16479(9) 0.76777(3) 0.05507(3)
C15_12 C 0.1018(3) 0.60668(11) 0.08095(9)
C17_12 C 0.0636(3) 0.53294(11) 0.06530(10)
C18_10 C 0.0318(3) 0.45629(11) 0.08931(9)
C19_10 C 0.0365(3) 0.41410(11) 0.08884(9)
H9_10 H 0.066651 0.400262 0.070747
H10_10 H 0.000996 0.364028 0.114914
S6_12 S 0.16730(8) 0.56058(3) 0.07996(3)
S9_10 S 0.08521(9) 0.48223(3) 0.05507(3)
C11_12 C 0.5794(3) 0.69183(13) 0.98506(11)
H6_12 H 0.640351 0.703042 0.976663
C12_12 C 0.4576(3) 0.64428(12) 0.98345(10)
H7_12 H 0.430455 0.620199 0.974104
C14_12 C 0.4325(3) 0.56466(11) 0.92670(10)
N1_12 N 0.5446(2) 0.65829(9) 0.97103(7)
N2_12 N 0.5070(2) 0.58119(9) 0.92866(8)
S1_12 S 0.32394(11) 0.54159(5) 0.92363(5)
Mn1_4 Mn 0.625000 0.625000 0.93048(2)
C28_12 C 0.8175(3) 0.68534(11) 0.92670(10)
N6_12 N 0.7430(2) 0.66881(9) 0.92866(8)
S10_12 S 0.92606(11) 0.70841(5) 0.92363(5)
N7_6 N 0.7054(2) 0.59171(9) 0.97103(7)
N8_8 N 0.5483(2) 0.66058(8) 0.89108(7)
N9_8 N 0.7017(2) 0.58942(8) 0.89108(7)
C16_12 C 0.9739(3) 0.55198(11) 0.06491(10)
C20_12 C 0.9965(3) 0.39276(10) 0.11519(9)
C21_12 C 0.9890(3) 0.47459(11) 0.11627(9)
H11_12 H 0.986909 0.503301 0.117868
C22_12 C 0.9490(3) 0.45076(10) 0.14115(9)
H12_12 H 0.917686 0.463934 0.159369
C23_12 C 0.8061(3) 0.55382(11) 0.02322(10)
C24_10 C 0.7168(4) 0.53865(13) 0.01087(11)
H13_10 H 0.687541 0.514931 0.020136
C27_12 C 0.8454(3) 0.58772(12) 0.00879(11)
H16_12 H 0.907947 0.598655 0.016079
N5_8 N 0.9517(2) 0.41058(8) 0.14108(7)
S7_12 S 0.97009(8) 0.60159(3) 0.08144(3)
S8_12 S 0.86052(9) 0.52662(3) 0.05645(3)
C25_12 C 0.6706(3) 0.55817(13) 0.98506(11)
H14_12 H 0.609649 0.546958 0.976663
C26_12 C 0.7924(3) 0.60572(12) 0.98345(10)
H15_12 H 0.819545 0.629801 0.974104
C16_13 C 0.0261(3) 0.30198(11) 0.81491(10)
C20_13 C 0.0035(3) 0.14276(10) 0.86519(9)
C21_13 C 0.0110(3) 0.22459(11) 0.86627(9)
H11_13 H 0.013091 0.253301 0.867868
C22_13 C 0.0510(3) 0.20076(10) 0.89115(9)
H12_13 H 0.082314 0.213934 0.909369
C23_13 C 0.1939(3) 0.30382(11) 0.77322(10)
C24_11 C 0.2832(4) 0.28865(13) 0.76087(11)
H13_11 H 0.312459 0.264931 0.770136
C25_13 C 0.3294(3) 0.30817(13) 0.73506(11)
H14_13 H 0.390351 0.296958 0.726663
C26_13 C 0.2076(3) 0.35572(12) 0.73345(10)
H15_13 H 0.180455 0.379801 0.724104
C27_13 C 0.1546(3) 0.33772(12) 0.75879(11)
H16_13 H 0.092053 0.348655 0.766079
N4_7 N 0.2946(2) 0.34171(9) 0.72103(7)
S7_13 S 0.02991(8) 0.35159(3) 0.83144(3)
S8_13 S 0.13948(9) 0.27662(3) 0.80645(3)
C1_13 C 0.8518(3) 0.39332(11) 0.83095(9)
C2_13 C 0.7239(3) 0.44802(11) 0.81491(10)
C3_13 C 0.8136(3) 0.46706(11) 0.81530(10)
C4_13 C 0.7818(3) 0.54371(11) 0.83931(9)
C5_13 C 0.7865(3) 0.58590(11) 0.83884(9)
H1_13 H 0.816651 0.599738 0.820747
C6_13 C 0.7465(3) 0.60724(10) 0.86519(9)
H2_13 H 0.750996 0.635972 0.864914
C7_13 C 0.7390(3) 0.52541(11) 0.86627(9)
H3_13 H 0.736909 0.496699 0.867868
C8_13 C 0.6990(3) 0.54924(10) 0.89115(9)
H4_13 H 0.667686 0.536066 0.909369
C9_13 C 0.5561(3) 0.44618(11) 0.77322(10)
C10_13 C 0.4668(4) 0.46135(13) 0.76087(11)
H5_13 H 0.437541 0.485069 0.770136
C11_13 C 0.4206(3) 0.44183(13) 0.73506(11)
H6_13 H 0.359649 0.453042 0.726663
C12_13 C 0.5424(3) 0.39428(12) 0.73345(10)
H7_13 H 0.569545 0.370199 0.724104
C13_13 C 0.5954(3) 0.41228(12) 0.75879(11)
H8_13 H 0.657947 0.401345 0.766079
C14_13 C 0.5675(3) 0.31466(11) 0.67670(10)
N1_13 N 0.4554(2) 0.40829(9) 0.72103(7)
N2_13 N 0.4930(2) 0.33119(9) 0.67866(8)
S1_13 S 0.67606(11) 0.29159(5) 0.67363(5)
S2_13 S 0.91730(8) 0.43942(3) 0.82996(3)
S3_13 S 0.72009(8) 0.39841(3) 0.83144(3)
S4_13 S 0.61052(9) 0.47338(3) 0.80645(3)
S5_13 S 0.83521(9) 0.51777(3) 0.80507(3)
C15_13 C 0.8982(3) 0.35668(11) 0.83095(9)
C17_13 C 0.9364(3) 0.28294(11) 0.81530(10)
C18_11 C 0.9682(3) 0.20629(11) 0.83931(9)
C19_11 C 0.9635(3) 0.16410(11) 0.83884(9)
H9_11 H 0.933349 0.150262 0.820747
H10_11 H 0.999004 0.114028 0.864914
S6_13 S 0.83270(8) 0.31058(3) 0.82996(3)
S9_11 S 0.91479(9) 0.23223(3) 0.80507(3)
C28_13 C 0.1825(3) 0.43534(11) 0.67670(10)
N6_13 N 0.2570(2) 0.41881(9) 0.67866(8)
S10_13 S 0.07394(11) 0.45841(5) 0.67363(5)
C28_14 C 0.0675(3) 0.81466(11) 0.67670(10)
S10_14 S 0.17606(11) 0.79159(5) 0.67363(5)
C18_12 C 0.2818(3) 0.04371(11) 0.83931(9)
C19_12 C 0.2865(3) 0.08590(11) 0.83884(9)
H9_12 H 0.316651 0.099738 0.820747
C20_14 C 0.2465(3) 0.10724(10) 0.86519(9)
H10_12 H 0.250996 0.135972 0.864914
C21_14 C 0.2390(3) 0.02541(11) 0.86627(9)
C22_14 C 0.1990(3) 0.04924(10) 0.89115(9)
H12_14 H 0.167686 0.036066 0.909369
S9_12 S 0.33521(9) 0.01777(3) 0.80507(3)
C1_14 C 0.3982(3) 0.85668(11) 0.83095(9)
C2_14 C 0.5261(3) 0.80198(11) 0.81491(10)
C3_14 C 0.4364(3) 0.78294(11) 0.81530(10)
C4_14 C 0.4682(3) 0.70629(11) 0.83931(9)
C5_14 C 0.4635(3) 0.66410(11) 0.83884(9)
H1_14 H 0.433349 0.650262 0.820747
C6_14 C 0.5035(3) 0.64276(10) 0.86519(9)
H2_14 H 0.499004 0.614028 0.864914
C7_14 C 0.5110(3) 0.72459(11) 0.86627(9)
H3_14 H 0.513091 0.753301 0.867868
C8_14 C 0.5510(3) 0.70076(10) 0.89115(9)
H4_14 H 0.582314 0.713934 0.909369
C9_14 C 0.6939(3) 0.80382(11) 0.77322(10)
C10_14 C 0.7832(4) 0.78865(13) 0.76087(11)
H5_14 H 0.812459 0.764931 0.770136
C11_14 C 0.8294(3) 0.80817(13) 0.73506(11)
H6_14 H 0.890351 0.796958 0.726663
C12_14 C 0.7076(3) 0.85572(12) 0.73345(10)
H7_14 H 0.680455 0.879801 0.724104
C13_14 C 0.6546(3) 0.83772(12) 0.75879(11)
H8_14 H 0.592053 0.848655 0.766079
C14_14 C 0.6825(3) 0.93534(11) 0.67670(10)
N1_14 N 0.7946(2) 0.84171(9) 0.72103(7)
N2_14 N 0.7570(2) 0.91881(9) 0.67866(8)
S1_14 S 0.57394(11) 0.95841(5) 0.67363(5)
S2_14 S 0.33270(8) 0.81058(3) 0.82996(3)
S3_14 S 0.52991(8) 0.85159(3) 0.83144(3)
S4_14 S 0.63948(9) 0.77662(3) 0.80645(3)
S5_14 S 0.41479(9) 0.73223(3) 0.80507(3)
C15_14 C 0.3518(3) 0.89332(11) 0.83095(9)
C16_14 C 0.2239(3) 0.94802(11) 0.81491(10)
C17_14 C 0.3136(3) 0.96706(11) 0.81530(10)
H11_14 H 0.236909 0.996699 0.867868
C23_14 C 0.0561(3) 0.94618(11) 0.77322(10)
C26_14 C 0.0424(3) 0.89428(12) 0.73345(10)
H15_14 H 0.069545 0.870199 0.724104
C27_14 C 0.0954(3) 0.91228(12) 0.75879(11)
H16_14 H 0.157947 0.901345 0.766079
S6_14 S 0.41730(8) 0.93942(3) 0.82996(3)
S7_14 S 0.22009(8) 0.89841(3) 0.83144(3)
S8_14 S 0.11052(9) 0.97338(3) 0.80645(3)
N6_14 N 0.9930(2) 0.83119(9) 0.67866(8)
N7_7 N 0.9554(2) 0.90829(9) 0.72103(7)
C24_12 C 0.9668(4) 0.96135(13) 0.76087(11)
H13_12 H 0.937541 0.985069 0.770136
C25_14 C 0.9206(3) 0.94183(13) 0.73506(11)
H14_14 H 0.859649 0.953042 0.726663
C16_15 C 0.0261(3) 0.80198(11) 0.31491(10)
C20_15 C 0.0035(3) 0.64276(10) 0.36519(9)
C21_15 C 0.0110(3) 0.72459(11) 0.36627(9)
H11_15 H 0.013091 0.753301 0.367868
C22_15 C 0.0510(3) 0.70076(10) 0.39115(9)
H12_15 H 0.082314 0.713934 0.409369
C23_15 C 0.1939(3) 0.80382(11) 0.27322(10)
C24_13 C 0.2832(4) 0.78865(13) 0.26087(11)
H13_13 H 0.312459 0.764931 0.270136
C25_15 C 0.3294(3) 0.80817(13) 0.23506(11)
H14_15 H 0.390351 0.796958 0.226663
C26_15 C 0.2076(3) 0.85572(12) 0.23345(10)
H15_15 H 0.180455 0.879801 0.224104
C27_15 C 0.1546(3) 0.83772(12) 0.25879(11)
H16_15 H 0.092053 0.848655 0.266079
N4_8 N 0.2946(2) 0.84171(9) 0.22103(7)
S7_15 S 0.02991(8) 0.85159(3) 0.33144(3)
S8_15 S 0.13948(9) 0.77662(3) 0.30645(3)
C4_15 C 0.7818(3) 0.04371(11) 0.33931(9)
C5_15 C 0.7865(3) 0.08590(11) 0.33884(9)
H1_15 H 0.816651 0.099738 0.320747
C6_15 C 0.7465(3) 0.10724(10) 0.36519(9)
H2_15 H 0.750996 0.135972 0.364914
C7_15 C 0.7390(3) 0.02541(11) 0.36627(9)
C8_15 C 0.6990(3) 0.04924(10) 0.39115(9)
H4_15 H 0.667686 0.036066 0.409369
S5_15 S 0.83521(9) 0.01777(3) 0.30507(3)
C1_15 C 0.8518(3) 0.89332(11) 0.33095(9)
C2_15 C 0.7239(3) 0.94802(11) 0.31491(10)
C3_15 C 0.8136(3) 0.96706(11) 0.31530(10)
H3_15 H 0.736909 0.996699 0.367868
C9_15 C 0.5561(3) 0.94618(11) 0.27322(10)
C10_15 C 0.4668(4) 0.96135(13) 0.26087(11)
H5_15 H 0.437541 0.985069 0.270136
C11_15 C 0.4206(3) 0.94183(13) 0.23506(11)
H6_15 H 0.359649 0.953042 0.226663
C12_15 C 0.5424(3) 0.89428(12) 0.23345(10)
H7_15 H 0.569545 0.870199 0.224104
C13_15 C 0.5954(3) 0.91228(12) 0.25879(11)
H8_15 H 0.657947 0.901345 0.266079
C14_15 C 0.5675(3) 0.81466(11) 0.17670(10)
N1_15 N 0.4554(2) 0.90829(9) 0.22103(7)
N2_15 N 0.4930(2) 0.83119(9) 0.17866(8)
S1_15 S 0.67606(11) 0.79159(5) 0.17363(5)
S2_15 S 0.91730(8) 0.93942(3) 0.32996(3)
S3_15 S 0.72009(8) 0.89841(3) 0.33144(3)
S4_15 S 0.61052(9) 0.97338(3) 0.30645(3)
C15_15 C 0.8982(3) 0.85668(11) 0.33095(9)
C17_15 C 0.9364(3) 0.78294(11) 0.31530(10)
C18_13 C 0.9682(3) 0.70629(11) 0.33931(9)
C19_13 C 0.9635(3) 0.66410(11) 0.33884(9)
H9_13 H 0.933349 0.650262 0.320747
H10_13 H 0.999004 0.614028 0.364914
S6_15 S 0.83270(8) 0.81058(3) 0.32996(3)
S9_13 S 0.91479(9) 0.73223(3) 0.30507(3)
C28_15 C 0.1825(3) 0.93534(11) 0.17670(10)
N6_15 N 0.2570(2) 0.91881(9) 0.17866(8)
S10_15 S 0.07394(11) 0.95841(5) 0.17363(5)
C28_16 C 0.0675(3) 0.31466(11) 0.17670(10)
S10_16 S 0.17606(11) 0.29159(5) 0.17363(5)
C1_16 C 0.3982(3) 0.35668(11) 0.33095(9)
C2_16 C 0.5261(3) 0.30198(11) 0.31491(10)
C3_16 C 0.4364(3) 0.28294(11) 0.31530(10)
C4_16 C 0.4682(3) 0.20629(11) 0.33931(9)
C5_16 C 0.4635(3) 0.16410(11) 0.33884(9)
H1_16 H 0.433349 0.150262 0.320747
C6_16 C 0.5035(3) 0.14276(10) 0.36519(9)
H2_16 H 0.499004 0.114028 0.364914
C7_16 C 0.5110(3) 0.22459(11) 0.36627(9)
H3_16 H 0.513091 0.253301 0.367868
C8_16 C 0.5510(3) 0.20076(10) 0.39115(9)
H4_16 H 0.582314 0.213934 0.409369
C9_16 C 0.6939(3) 0.30382(11) 0.27322(10)
C10_16 C 0.7832(4) 0.28865(13) 0.26087(11)
H5_16 H 0.812459 0.264931 0.270136
C11_16 C 0.8294(3) 0.30817(13) 0.23506(11)
H6_16 H 0.890351 0.296958 0.226663
C12_16 C 0.7076(3) 0.35572(12) 0.23345(10)
H7_16 H 0.680455 0.379801 0.224104
C13_16 C 0.6546(3) 0.33772(12) 0.25879(11)
H8_16 H 0.592053 0.348655 0.266079
C14_16 C 0.6825(3) 0.43534(11) 0.17670(10)
N1_16 N 0.7946(2) 0.34171(9) 0.22103(7)
N2_16 N 0.7570(2) 0.41881(9) 0.17866(8)
S1_16 S 0.57394(11) 0.45841(5) 0.17363(5)
S2_16 S 0.33270(8) 0.31058(3) 0.32996(3)
S3_16 S 0.52991(8) 0.35159(3) 0.33144(3)
S4_16 S 0.63948(9) 0.27662(3) 0.30645(3)
S5_16 S 0.41479(9) 0.23223(3) 0.30507(3)
C15_16 C 0.3518(3) 0.39332(11) 0.33095(9)
C16_16 C 0.2239(3) 0.44802(11) 0.31491(10)
C17_16 C 0.3136(3) 0.46706(11) 0.31530(10)
C18_14 C 0.2818(3) 0.54371(11) 0.33931(9)
C19_14 C 0.2865(3) 0.58590(11) 0.33884(9)
H9_14 H 0.316651 0.599738 0.320747
C20_16 C 0.2465(3) 0.60724(10) 0.36519(9)
H10_14 H 0.250996 0.635972 0.364914
C21_16 C 0.2390(3) 0.52541(11) 0.36627(9)
H11_16 H 0.236909 0.496699 0.367868
C22_16 C 0.1990(3) 0.54924(10) 0.39115(9)
H12_16 H 0.167686 0.536066 0.409369
C23_16 C 0.0561(3) 0.44618(11) 0.27322(10)
C26_16 C 0.0424(3) 0.39428(12) 0.23345(10)
H15_16 H 0.069545 0.370199 0.224104
C27_16 C 0.0954(3) 0.41228(12) 0.25879(11)
H16_16 H 0.157947 0.401345 0.266079
S6_16 S 0.41730(8) 0.43942(3) 0.32996(3)
S7_16 S 0.22009(8) 0.39841(3) 0.33144(3)
S8_16 S 0.11052(9) 0.47338(3) 0.30645(3)
S9_14 S 0.33521(9) 0.51777(3) 0.30507(3)
N6_16 N 0.9930(2) 0.33119(9) 0.17866(8)
N7_8 N 0.9554(2) 0.40829(9) 0.22103(7)
C24_14 C 0.9668(4) 0.46135(13) 0.26087(11)
H13_14 H 0.937541 0.485069 0.270136
C25_16 C 0.9206(3) 0.44183(13) 0.23506(11)
H14_16 H 0.859649 0.453042 0.226663
C18_15 C 0.0318(3) 0.95629(11) 0.58931(9)
C19_15 C 0.0365(3) 0.91410(11) 0.58884(9)
H9_15 H 0.066651 0.900262 0.570747
H10_15 H 0.000996 0.864028 0.614914
S9_15 S 0.08521(9) 0.98223(3) 0.55507(3)
C24_15 C 0.0332(4) 0.21135(13) 0.01087(11)
H13_15 H 0.062459 0.235069 0.020136
C18_16 C 0.9682(3) 0.04371(11) 0.41069(9)
C19_16 C 0.9635(3) 0.08590(11) 0.41116(9)
H9_16 H 0.933349 0.099738 0.429253
H10_16 H 0.999004 0.135972 0.385086
S9_16 S 0.91479(9) 0.01777(3) 0.44493(3)
C24_16 C 0.9668(4) 0.78865(13) 0.98913(11)
H13_16 H 0.937541 0.764931 0.979864
loop_
_geom_bond_atom_site_label_1
_geom_bond_atom_site_label_2
_geom_bond_site_symmetry_1
_geom_bond_site_symmetry_2
C1 S2 1_555 1_555
C2 C3 1_555 1_555
C3 S2 1_555 1_555
C4 C5 1_555 1_555
C5 H1 1_555 1_555
C6 C5 1_555 1_555
H2 C6 1_555 1_555
C7 C4 1_555 1_555
H3 C7 1_555 1_555
C8 C7 1_555 1_555
H4 C8 1_555 1_555
C9 C10 1_555 1_555
C10 H5 1_555 1_555
C11 C10 1_555 1_555
H6 C11 1_555 1_555
C12 H7 1_555 1_555
C13 C9 1_555 1_555
H8 C13 1_555 1_555
C14 N2 1_555 1_555
N1 C11 1_555 1_555
N2 Mn1 1_555 1_555
S1 C14 1_555 1_555
N3 C6 1_555 1_555
S3 C1 1_555 1_555
S4 C2 1_555 1_555
S5 C3 1_555 1_555
Mn1 N1 1_555 1_555
C15 C1 1_555 1_555
C17 S6 1_555 1_555
C18 C19 1_555 1_555
C19 H9 1_555 1_555
S6 C15 1_555 1_555
S9 C17 1_555 1_555
C28 N6 1_555 1_555
N6 Mn1 1_555 1_555
S10 C28 1_555 1_555
N7 Mn1 1_555 1_555
N8 Mn1 1_555 1_555
N9 Mn1 1_555 1_555
Mn4 N3 1_555 1_555
C2 S3 1_555 1_555
C4 S5 1_555 1_555
C8 N3 1_555 1_555
C9 S4 1_555 1_555
C12 C13 1_555 1_555
C12 N1 1_555 1_555
C18 S9 1_555 1_555
H11 C21 1_555 1_555
C22 C21 1_555 1_555
H12 C22 1_555 1_555
C23 C24 1_555 1_555
C24 H13 1_555 1_555
C25 C24 1_555 1_555
H14 C25 1_555 1_555
C26 H15 1_555 1_555
C27 C23 1_555 1_555
H16 C27 1_555 1_555
N7 C25 1_555 1_555
N5 C20 1_555 1_555
S8 C16 1_555 1_555
Mn3 N5 1_555 1_555
C16 S7 1_555 1_555
C22 N5 1_555 1_555
C23 S8 1_555 1_555
C26 C27 1_555 1_555
C26 N7 1_555 1_555
C24_2 H13_2 1_555 1_555
C25_2 C24_2 1_555 1_555
H14_2 C25_2 1_555 1_555
N4 C25_2 1_555 1_555
Mn2 N4 1_555 1_555
C1_2 S2_2 1_555 1_555
C2_2 C3_2 1_555 1_555
C3_2 S2_2 1_555 1_555
C4_2 C5_2 1_555 1_555
C5_2 H1_2 1_555 1_555
C6_2 C5_2 1_555 1_555
H2_2 C6_2 1_555 1_555
C7_2 C4_2 1_555 1_555
H3_2 C7_2 1_555 1_555
C8_2 C7_2 1_555 1_555
H4_2 C8_2 1_555 1_555
C9_2 C10_2 1_555 1_555
C10_2 H5_2 1_555 1_555
C11_2 C10_2 1_555 1_555
H6_2 C11_2 1_555 1_555
C12_2 H7_2 1_555 1_555
C13_2 C9_2 1_555 1_555
H8_2 C13_2 1_555 1_555
C14_2 N2_2 1_555 1_555
N1_2 C11_2 1_555 1_555
N2_2 Mn2 1_555 1_555
S1_2 C14_2 1_555 1_555
N3_2 C6_2 1_555 1_555
S3_2 C1_2 1_555 1_555
S4_2 C2_2 1_555 1_555
S5_2 C3_2 1_555 1_555
Mn2 N1_2 1_555 1_555
C15_2 C1_2 1_555 1_555
C16_2 C17_2 1_555 1_555
C17_2 S6_2 1_555 1_555
C26_2 H15_2 1_555 1_555
C27_2 C23_2 1_555 1_555
H16_2 C27_2 1_555 1_555
S6_2 C15_2 1_555 1_555
S7_2 C15_2 1_555 1_555
S8_2 C16_2 1_555 1_555
N6_2 Mn2 1_555 1_555
N8_2 Mn2 1_555 1_555
N9_2 Mn2 1_555 1_555
Mn4 N3_2 1_555 1_555
C2_2 S3_2 1_555 1_555
C4_2 S5_2 1_555 1_555
C8_2 N3_2 1_555 1_555
C9_2 S4_2 1_555 1_555
C12_2 C13_2 1_555 1_555
C12_2 N1_2 1_555 1_555
C16_2 S7_2 1_555 1_555
C23_2 S8_2 1_555 1_555
C26_2 C27_2 1_555 1_555
C18_2 C19_2 1_555 1_555
C19_2 H9_2 1_555 1_555
C20_2 C19_2 1_555 1_555
H10_2 C20_2 1_555 1_555
C21_2 C18_2 1_555 1_555
C22_2 C21_2 1_555 1_555
H12_2 C22_2 1_555 1_555
N5_2 C20_2 1_555 1_555
Mn3 N5_2 1_555 1_555
C18_2 S9_2 1_555 1_555
C22_2 N5_2 1_555 1_555
S10_2 C28_2 1_555 1_555
C1_3 S2_3 1_555 1_555
C2_3 C3_3 1_555 1_555
C3_3 S2_3 1_555 1_555
C9_3 C10_3 1_555 1_555
C10_3 H5_3 1_555 1_555
C11_3 C10_3 1_555 1_555
H6_3 C11_3 1_555 1_555
C12_3 H7_3 1_555 1_555
C13_3 C9_3 1_555 1_555
H8_3 C13_3 1_555 1_555
C14_3 N2_3 1_555 1_555
N1_3 C11_3 1_555 1_555
N2_3 Mn1_2 1_555 1_555
S1_3 C14_3 1_555 1_555
S3_3 C1_3 1_555 1_555
S4_3 C2_3 1_555 1_555
Mn1_2 N1_3 1_555 1_555
C15_3 C1_3 1_555 1_555
C17_3 S6_3 1_555 1_555
C18_3 C19_3 1_555 1_555
C19_3 H9_3 1_555 1_555
S6_3 C15_3 1_555 1_555
S9_3 C17_3 1_555 1_555
C28_3 N6_3 1_555 1_555
N6_3 Mn1_2 1_555 1_555
S10_3 C28_3 1_555 1_555
N7_2 Mn1_2 1_555 1_555
N8_3 Mn1_2 1_555 1_555
N9_3 Mn1_2 1_555 1_555
C2_3 S3_3 1_555 1_555
C9_3 S4_3 1_555 1_555
C12_3 C13_3 1_555 1_555
C12_3 N1_3 1_555 1_555
C18_3 S9_3 1_555 1_555
C4_3 C5_3 1_555 1_555
C5_3 H1_3 1_555 1_555
C6_3 C5_3 1_555 1_555
H2_3 C6_3 1_555 1_555
C7_3 C4_3 1_555 1_555
C8_3 C7_3 1_555 1_555
H4_3 C8_3 1_555 1_555
N3_3 C6_3 1_555 1_555
Mn4_2 N3_3 1_555 1_555
C4_3 S5_3 1_555 1_555
C8_3 N3_3 1_555 1_555
H11_3 C21_3 1_555 1_555
C22_3 C21_3 1_555 1_555
H12_3 C22_3 1_555 1_555
C23_3 C24_3 1_555 1_555
C24_3 H13_3 1_555 1_555
C25_3 C24_3 1_555 1_555
H14_3 C25_3 1_555 1_555
C26_3 H15_3 1_555 1_555
C27_3 C23_3 1_555 1_555
H16_3 C27_3 1_555 1_555
N7_2 C25_3 1_555 1_555
N5_3 C20_3 1_555 1_555
S8_3 C16_3 1_555 1_555
Mn3_2 N5_3 1_555 1_555
C16_3 S7_3 1_555 1_555
C22_3 N5_3 1_555 1_555
C23_3 S8_3 1_555 1_555
C26_3 C27_3 1_555 1_555
C26_3 N7_2 1_555 1_555
C24_4 H13_4 1_555 1_555
C25_4 C24_4 1_555 1_555
H14_4 C25_4 1_555 1_555
N4_2 C25_4 1_555 1_555
Mn2_2 N4_2 1_555 1_555
C1_4 S2_4 1_555 1_555
C2_4 C3_4 1_555 1_555
C3_4 S2_4 1_555 1_555
C4_4 C5_4 1_555 1_555
C5_4 H1_4 1_555 1_555
C6_4 C5_4 1_555 1_555
H2_4 C6_4 1_555 1_555
C7_4 C4_4 1_555 1_555
H3_4 C7_4 1_555 1_555
C8_4 C7_4 1_555 1_555
H4_4 C8_4 1_555 1_555
C9_4 C10_4 1_555 1_555
C10_4 H5_4 1_555 1_555
C11_4 C10_4 1_555 1_555
H6_4 C11_4 1_555 1_555
C12_4 H7_4 1_555 1_555
C13_4 C9_4 1_555 1_555
H8_4 C13_4 1_555 1_555
C14_4 N2_4 1_555 1_555
N1_4 C11_4 1_555 1_555
N2_4 Mn2_2 1_555 1_555
S1_4 C14_4 1_555 1_555
N3_4 C6_4 1_555 1_555
S3_4 C1_4 1_555 1_555
S4_4 C2_4 1_555 1_555
S5_4 C3_4 1_555 1_555
Mn2_2 N1_4 1_555 1_555
C15_4 C1_4 1_555 1_555
C16_4 C17_4 1_555 1_555
C17_4 S6_4 1_555 1_555
C18_4 C19_4 1_555 1_555
C19_4 H9_4 1_555 1_555
C20_4 C19_4 1_555 1_555
H10_4 C20_4 1_555 1_555
C21_4 C18_4 1_555 1_555
H11_4 C21_4 1_555 1_555
C22_4 C21_4 1_555 1_555
H12_4 C22_4 1_555 1_555
C26_4 H15_4 1_555 1_555
C27_4 C23_4 1_555 1_555
H16_4 C27_4 1_555 1_555
N5_4 C20_4 1_555 1_555
S6_4 C15_4 1_555 1_555
S7_4 C15_4 1_555 1_555
S8_4 C16_4 1_555 1_555
S9_4 C17_4 1_555 1_555
N6_4 Mn2_2 1_555 1_555
N8_4 Mn2_2 1_555 1_555
N9_4 Mn2_2 1_555 1_555
Mn3_2 N5_4 1_555 1_555
Mn4_2 N3_4 1_555 1_555
C2_4 S3_4 1_555 1_555
C4_4 S5_4 1_555 1_555
C8_4 N3_4 1_555 1_555
C9_4 S4_4 1_555 1_555
C12_4 C13_4 1_555 1_555
C12_4 N1_4 1_555 1_555
C16_4 S7_4 1_555 1_555
C18_4 S9_4 1_555 1_555
C22_4 N5_4 1_555 1_555
C23_4 S8_4 1_555 1_555
C26_4 C27_4 1_555 1_555
S10_4 C28_4 1_555 1_555
S10_5 C28_5 1_555 1_555
C1_5 S2_5 1_555 1_555
C2_5 C3_5 1_555 1_555
C3_5 S2_5 1_555 1_555
C4_5 C5_5 1_555 1_555
C5_5 H1_5 1_555 1_555
C6_5 C5_5 1_555 1_555
H2_5 C6_5 1_555 1_555
C7_5 C4_5 1_555 1_555
H3_5 C7_5 1_555 1_555
C8_5 C7_5 1_555 1_555
H4_5 C8_5 1_555 1_555
C9_5 C10_5 1_555 1_555
C10_5 H5_5 1_555 1_555
C11_5 C10_5 1_555 1_555
H6_5 C11_5 1_555 1_555
C12_5 H7_5 1_555 1_555
C13_5 C9_5 1_555 1_555
H8_5 C13_5 1_555 1_555
C14_5 N2_5 1_555 1_555
N1_5 C11_5 1_555 1_555
N2_5 Mn3_2 1_555 1_555
S1_5 C14_5 1_555 1_555
N8 C6_5 1_555 1_555
S3_5 C1_5 1_555 1_555
S4_5 C2_5 1_555 1_555
S5_5 C3_5 1_555 1_555
Mn3_2 N1_5 1_555 1_555
C15_5 C1_5 1_555 1_555
C16_5 C17_5 1_555 1_555
C17_5 S6_5 1_555 1_555
C18_5 C19_5 1_555 1_555
C19_5 H9_5 1_555 1_555
C20_5 C19_5 1_555 1_555
H10_5 C20_5 1_555 1_555
C21_5 C18_5 1_555 1_555
H11_5 C21_5 1_555 1_555
C22_5 C21_5 1_555 1_555
H12_5 C22_5 1_555 1_555
C26_5 H15_5 1_555 1_555
C27_5 C23_5 1_555 1_555
H16_5 C27_5 1_555 1_555
N8_2 C20_5 1_555 1_555
S6_5 C15_5 1_555 1_555
S7_5 C15_5 1_555 1_555
S8_5 C16_5 1_555 1_555
S9_5 C17_5 1_555 1_555
N6_5 Mn3_2 1_555 1_555
N7_3 Mn3_2 1_555 1_555
C2_5 S3_5 1_555 1_555
C4_5 S5_5 1_555 1_555
C8_5 N8 1_555 1_555
C9_5 S4_5 1_555 1_555
C12_5 C13_5 1_555 1_555
C12_5 N1_5 1_555 1_555
C16_5 S7_5 1_555 1_555
C18_5 S9_5 1_555 1_555
C22_5 N8_2 1_555 1_555
C23_5 S8_5 1_555 1_555
C26_5 C27_5 1_555 1_555
C24_5 H13_5 1_555 1_555
C25_5 C24_5 1_555 1_555
H14_5 C25_5 1_555 1_555
N7_3 C25_5 1_555 1_555
C22_6 C21_6 1_555 1_555
H12_6 C22_6 1_555 1_555
N9_2 C20_6 1_555 1_555
C22_6 N9_2 1_555 1_555
C23_6 C24_6 1_555 1_555
C24_6 H13_6 1_555 1_555
C25_6 C24_6 1_555 1_555
H14_6 C25_6 1_555 1_555
C26_6 H15_6 1_555 1_555
C27_6 C23_6 1_555 1_555
H16_6 C27_6 1_555 1_555
N4_3 C25_6 1_555 1_555
S8_6 C16_6 1_555 1_555
Mn4_2 N4_3 1_555 1_555
C16_6 S7_6 1_555 1_555
C23_6 S8_6 1_555 1_555
C26_6 C27_6 1_555 1_555
C26_6 N4_3 1_555 1_555
C1_6 S2_6 1_555 1_555
C2_6 C3_6 1_555 1_555
C3_6 S2_6 1_555 1_555
C4_6 C5_6 1_555 1_555
C5_6 H1_6 1_555 1_555
C6_6 C5_6 1_555 1_555
H2_6 C6_6 1_555 1_555
C7_6 C4_6 1_555 1_555
H3_6 C7_6 1_555 1_555
C8_6 C7_6 1_555 1_555
H4_6 C8_6 1_555 1_555
C9_6 C10_6 1_555 1_555
C10_6 H5_6 1_555 1_555
C11_6 C10_6 1_555 1_555
H6_6 C11_6 1_555 1_555
C12_6 H7_6 1_555 1_555
C13_6 C9_6 1_555 1_555
H8_6 C13_6 1_555 1_555
C14_6 N2_6 1_555 1_555
N1_6 C11_6 1_555 1_555
N2_6 Mn4_2 1_555 1_555
S1_6 C14_6 1_555 1_555
N9 C6_6 1_555 1_555
S3_6 C1_6 1_555 1_555
S4_6 C2_6 1_555 1_555
S5_6 C3_6 1_555 1_555
Mn4_2 N1_6 1_555 1_555
C15_6 C1_6 1_555 1_555
C17_6 S6_6 1_555 1_555
S6_6 C15_6 1_555 1_555
C28_6 N6_6 1_555 1_555
N6_6 Mn4_2 1_555 1_555
S10_6 C28_6 1_555 1_555
C2_6 S3_6 1_555 1_555
C4_6 S5_6 1_555 1_555
C8_6 N9 1_555 1_555
C9_6 S4_6 1_555 1_555
C12_6 C13_6 1_555 1_555
C12_6 N1_6 1_555 1_555
S10_7 C28_7 1_555 1_555
C4_7 C5_7 1_555 1_555
C5_7 H1_7 1_555 1_555
C6_7 C5_7 1_555 1_555
H2_7 C6_7 1_555 1_555
C7_7 C4_7 1_555 1_555
C8_7 C7_7 1_555 1_555
H4_7 C8_7 1_555 1_555
N8_3 C6_7 1_555 1_555
C4_7 S5_7 1_555 1_555
C8_7 N8_3 1_555 1_555
H6_7 C11_7 1_555 1_555
C12_7 H7_7 1_555 1_555
C14_7 N2_7 1_555 1_555
N1_7 C11_7 1_555 1_555
N2_7 Mn3 1_555 1_555
S1_7 C14_7 1_555 1_555
Mn3 N1_7 1_555 1_555
C26_7 H15_7 1_555 1_555
N6_7 Mn3 1_555 1_555
N7_4 Mn3 1_555 1_555
C12_7 N1_7 1_555 1_555
C1_7 S2_7 1_555 1_555
C2_7 C3_7 1_555 1_555
C3_7 S2_7 1_555 1_555
C9_7 C10_7 1_555 1_555
C10_7 H5_7 1_555 1_555
C13_7 C9_7 1_555 1_555
H8_7 C13_7 1_555 1_555
S3_7 C1_7 1_555 1_555
S4_7 C2_7 1_555 1_555
C15_7 C1_7 1_555 1_555
C16_7 C17_7 1_555 1_555
C17_7 S6_7 1_555 1_555
C18_6 C19_6 1_555 1_555
C19_6 H9_6 1_555 1_555
C20_7 C19_6 1_555 1_555
H10_6 C20_7 1_555 1_555
C21_7 C18_6 1_555 1_555
H11_7 C21_7 1_555 1_555
C22_7 C21_7 1_555 1_555
H12_7 C22_7 1_555 1_555
C27_7 C23_7 1_555 1_555
H16_7 C27_7 1_555 1_555
N8_4 C20_7 1_555 1_555
S6_7 C15_7 1_555 1_555
S7_7 C15_7 1_555 1_555
S8_7 C16_7 1_555 1_555
S9_6 C17_7 1_555 1_555
C2_7 S3_7 1_555 1_555
C9_7 S4_7 1_555 1_555
C16_7 S7_7 1_555 1_555
C18_6 S9_6 1_555 1_555
C22_7 N8_4 1_555 1_555
C23_7 S8_7 1_555 1_555
H14_7 C25_7 1_555 1_555
N7_4 C25_7 1_555 1_555
H14_8 C25_8 1_555 1_555
C26_8 H15_8 1_555 1_555
N4_4 C25_8 1_555 1_555
Mn4 N4_4 1_555 1_555
C26_8 N4_4 1_555 1_555
H11_8 C21_8 1_555 1_555
C22_8 C21_8 1_555 1_555
H12_8 C22_8 1_555 1_555
C23_8 C24_7 1_555 1_555
C24_7 H13_7 1_555 1_555
C27_8 C23_8 1_555 1_555
H16_8 C27_8 1_555 1_555
N9_4 C20_8 1_555 1_555
S8_8 C16_8 1_555 1_555
C16_8 S7_8 1_555 1_555
C22_8 N9_4 1_555 1_555
C23_8 S8_8 1_555 1_555
H6_8 C11_8 1_555 1_555
C12_8 H7_8 1_555 1_555
C14_8 N2_8 1_555 1_555
N1_8 C11_8 1_555 1_555
N2_8 Mn4 1_555 1_555
S1_8 C14_8 1_555 1_555
Mn4 N1_8 1_555 1_555
C28_8 N6_8 1_555 1_555
N6_8 Mn4 1_555 1_555
S10_8 C28_8 1_555 1_555
C12_8 N1_8 1_555 1_555
C1_8 S2_8 1_555 1_555
C2_8 C3_8 1_555 1_555
C3_8 S2_8 1_555 1_555
C4_8 C5_8 1_555 1_555
C5_8 H1_8 1_555 1_555
C6_8 C5_8 1_555 1_555
H2_8 C6_8 1_555 1_555
C7_8 C4_8 1_555 1_555
H3_8 C7_8 1_555 1_555
C8_8 C7_8 1_555 1_555
H4_8 C8_8 1_555 1_555
C9_8 C10_8 1_555 1_555
C10_8 H5_8 1_555 1_555
C13_8 C9_8 1_555 1_555
H8_8 C13_8 1_555 1_555
N9_3 C6_8 1_555 1_555
S3_8 C1_8 1_555 1_555
S4_8 C2_8 1_555 1_555
S5_8 C3_8 1_555 1_555
C15_8 C1_8 1_555 1_555
C17_8 S6_8 1_555 1_555
C18_7 C19_7 1_555 1_555
C19_7 H9_7 1_555 1_555
S6_8 C15_8 1_555 1_555
S9_7 C17_8 1_555 1_555
C2_8 S3_8 1_555 1_555
C4_8 S5_8 1_555 1_555
C8_8 N9_3 1_555 1_555
C9_8 S4_8 1_555 1_555
C18_7 S9_7 1_555 1_555
C24_8 H13_8 1_555 1_555
C25_9 C24_8 1_555 1_555
H14_9 C25_9 1_555 1_555
N4_5 C25_9 1_555 1_555
Mn2_3 N4_5 1_555 1_555
C1_9 S2_9 1_555 1_555
C2_9 C3_9 1_555 1_555
C3_9 S2_9 1_555 1_555
C4_9 C5_9 1_555 1_555
C5_9 H1_9 1_555 1_555
C6_9 C5_9 1_555 1_555
H2_9 C6_9 1_555 1_555
C7_9 C4_9 1_555 1_555
H3_9 C7_9 1_555 1_555
C8_9 C7_9 1_555 1_555
H4_9 C8_9 1_555 1_555
C9_9 C10_9 1_555 1_555
C10_9 H5_9 1_555 1_555
C11_9 C10_9 1_555 1_555
H6_9 C11_9 1_555 1_555
C12_9 H7_9 1_555 1_555
C13_9 C9_9 1_555 1_555
H8_9 C13_9 1_555 1_555
C14_9 N2_9 1_555 1_555
N1_9 C11_9 1_555 1_555
N2_9 Mn2_3 1_555 1_555
S1_9 C14_9 1_555 1_555
N3_5 C6_9 1_555 1_555
S3_9 C1_9 1_555 1_555
S4_9 C2_9 1_555 1_555
S5_9 C3_9 1_555 1_555
Mn2_3 N1_9 1_555 1_555
C15_9 C1_9 1_555 1_555
C16_9 C17_9 1_555 1_555
C17_9 S6_9 1_555 1_555
C18_8 C19_8 1_555 1_555
C19_8 H9_8 1_555 1_555
C20_9 C19_8 1_555 1_555
H10_8 C20_9 1_555 1_555
C21_9 C18_8 1_555 1_555
H11_9 C21_9 1_555 1_555
C22_9 C21_9 1_555 1_555
H12_9 C22_9 1_555 1_555
C26_9 H15_9 1_555 1_555
C27_9 C23_9 1_555 1_555
H16_9 C27_9 1_555 1_555
N5_5 C20_9 1_555 1_555
S6_9 C15_9 1_555 1_555
S7_9 C15_9 1_555 1_555
S8_9 C16_9 1_555 1_555
S9_8 C17_9 1_555 1_555
N6_9 Mn2_3 1_555 1_555
N8_5 Mn2_3 1_555 1_555
N9_5 Mn2_3 1_555 1_555
Mn3_3 N5_5 1_555 1_555
Mn4_3 N3_5 1_555 1_555
C2_9 S3_9 1_555 1_555
C4_9 S5_9 1_555 1_555
C8_9 N3_5 1_555 1_555
C9_9 S4_9 1_555 1_555
C12_9 C13_9 1_555 1_555
C12_9 N1_9 1_555 1_555
C16_9 S7_9 1_555 1_555
C18_8 S9_8 1_555 1_555
C22_9 N5_5 1_555 1_555
C23_9 S8_9 1_555 1_555
C26_9 C27_9 1_555 1_555
S10_9 C28_9 1_555 1_555
C1_10 S2_10 1_555 1_555
C2_10 C3_10 1_555 1_555
C3_10 S2_10 1_555 1_555
C4_10 C5_10 1_555 1_555
C5_10 H1_10 1_555 1_555
C6_10 C5_10 1_555 1_555
H2_10 C6_10 1_555 1_555
C7_10 C4_10 1_555 1_555
H3_10 C7_10 1_555 1_555
C8_10 C7_10 1_555 1_555
H4_10 C8_10 1_555 1_555
C9_10 C10_10 1_555 1_555
C10_10 H5_10 1_555 1_555
C11_10 C10_10 1_555 1_555
H6_10 C11_10 1_555 1_555
C12_10 H7_10 1_555 1_555
C13_10 C9_10 1_555 1_555
H8_10 C13_10 1_555 1_555
C14_10 N2_10 1_555 1_555
N1_10 C11_10 1_555 1_555
N2_10 Mn1_3 1_555 1_555
S1_10 C14_10 1_555 1_555
N3_6 C6_10 1_555 1_555
S3_10 C1_10 1_555 1_555
S4_10 C2_10 1_555 1_555
S5_10 C3_10 1_555 1_555
Mn1_3 N1_10 1_555 1_555
C15_10 C1_10 1_555 1_555
C17_10 S6_10 1_555 1_555
S6_10 C15_10 1_555 1_555
C28_10 N6_10 1_555 1_555
N6_10 Mn1_3 1_555 1_555
S10_10 C28_10 1_555 1_555
N7_5 Mn1_3 1_555 1_555
N8_6 Mn1_3 1_555 1_555
N9_6 Mn1_3 1_555 1_555
Mn4_3 N3_6 1_555 1_555
C2_10 S3_10 1_555 1_555
C4_10 S5_10 1_555 1_555
C8_10 N3_6 1_555 1_555
C9_10 S4_10 1_555 1_555
C12_10 C13_10 1_555 1_555
C12_10 N1_10 1_555 1_555
C23_10 C24_9 1_555 1_555
C24_9 H13_9 1_555 1_555
C25_10 C24_9 1_555 1_555
H14_10 C25_10 1_555 1_555
C26_10 H15_10 1_555 1_555
C27_10 C23_10 1_555 1_555
H16_10 C27_10 1_555 1_555
N7_5 C25_10 1_555 1_555
S8_10 C16_10 1_555 1_555
C16_10 S7_10 1_555 1_555
C23_10 S8_10 1_555 1_555
C26_10 C27_10 1_555 1_555
C26_10 N7_5 1_555 1_555
C22_10 C21_10 1_555 1_555
H12_10 C22_10 1_555 1_555
N5_6 C20_10 1_555 1_555
Mn3_3 N5_6 1_555 1_555
C22_10 N5_6 1_555 1_555
H14_11 C25_11 1_555 1_555
N4_6 C25_11 1_555 1_555
Mn2_4 N4_6 1_555 1_555
C1_11 S2_11 1_555 1_555
C2_11 C3_11 1_555 1_555
C3_11 S2_11 1_555 1_555
C9_11 C10_11 1_555 1_555
C10_11 H5_11 1_555 1_555
C13_11 C9_11 1_555 1_555
H8_11 C13_11 1_555 1_555
S3_11 C1_11 1_555 1_555
S4_11 C2_11 1_555 1_555
C15_11 C1_11 1_555 1_555
C16_11 C17_11 1_555 1_555
C17_11 S6_11 1_555 1_555
C18_9 C19_9 1_555 1_555
C19_9 H9_9 1_555 1_555
C20_11 C19_9 1_555 1_555
H10_9 C20_11 1_555 1_555
C21_11 C18_9 1_555 1_555
H11_11 C21_11 1_555 1_555
C22_11 C21_11 1_555 1_555
H12_11 C22_11 1_555 1_555
C27_11 C23_11 1_555 1_555
H16_11 C27_11 1_555 1_555
N5_7 C20_11 1_555 1_555
S6_11 C15_11 1_555 1_555
S7_11 C15_11 1_555 1_555
S8_11 C16_11 1_555 1_555
S9_9 C17_11 1_555 1_555
Mn3_4 N5_7 1_555 1_555
C2_11 S3_11 1_555 1_555
C9_11 S4_11 1_555 1_555
C16_11 S7_11 1_555 1_555
C18_9 S9_9 1_555 1_555
C22_11 N5_7 1_555 1_555
C23_11 S8_11 1_555 1_555
H6_11 C11_11 1_555 1_555
C12_11 H7_11 1_555 1_555
C14_11 N2_11 1_555 1_555
N1_11 C11_11 1_555 1_555
N2_11 Mn2_4 1_555 1_555
S1_11 C14_11 1_555 1_555
Mn2_4 N1_11 1_555 1_555
C26_11 H15_11 1_555 1_555
N6_11 Mn2_4 1_555 1_555
N8_7 Mn2_4 1_555 1_555
N9_7 Mn2_4 1_555 1_555
C12_11 N1_11 1_555 1_555
C4_11 C5_11 1_555 1_555
C5_11 H1_11 1_555 1_555
C6_11 C5_11 1_555 1_555
H2_11 C6_11 1_555 1_555
C7_11 C4_11 1_555 1_555
C8_11 C7_11 1_555 1_555
H4_11 C8_11 1_555 1_555
N3_7 C6_11 1_555 1_555
Mn4_4 N3_7 1_555 1_555
C4_11 S5_11 1_555 1_555
C8_11 N3_7 1_555 1_555
S10_11 C28_11 1_555 1_555
C1_12 S2_12 1_555 1_555
C2_12 C3_12 1_555 1_555
C3_12 S2_12 1_555 1_555
C4_12 C5_12 1_555 1_555
C5_12 H1_12 1_555 1_555
C6_12 C5_12 1_555 1_555
H2_12 C6_12 1_555 1_555
C7_12 C4_12 1_555 1_555
H3_12 C7_12 1_555 1_555
C8_12 C7_12 1_555 1_555
H4_12 C8_12 1_555 1_555
C9_12 C10_12 1_555 1_555
C10_12 H5_12 1_555 1_555
C13_12 C9_12 1_555 1_555
H8_12 C13_12 1_555 1_555
N3_8 C6_12 1_555 1_555
S3_12 C1_12 1_555 1_555
S4_12 C2_12 1_555 1_555
S5_12 C3_12 1_555 1_555
C15_12 C1_12 1_555 1_555
C17_12 S6_12 1_555 1_555
C18_10 C19_10 1_555 1_555
C19_10 H9_10 1_555 1_555
S6_12 C15_12 1_555 1_555
S9_10 C17_12 1_555 1_555
Mn4_4 N3_8 1_555 1_555
C2_12 S3_12 1_555 1_555
C4_12 S5_12 1_555 1_555
C8_12 N3_8 1_555 1_555
C9_12 S4_12 1_555 1_555
C18_10 S9_10 1_555 1_555
H6_12 C11_12 1_555 1_555
C12_12 H7_12 1_555 1_555
C14_12 N2_12 1_555 1_555
N1_12 C11_12 1_555 1_555
N2_12 Mn1_4 1_555 1_555
S1_12 C14_12 1_555 1_555
Mn1_4 N1_12 1_555 1_555
C28_12 N6_12 1_555 1_555
N6_12 Mn1_4 1_555 1_555
S10_12 C28_12 1_555 1_555
N7_6 Mn1_4 1_555 1_555
N8_8 Mn1_4 1_555 1_555
N9_8 Mn1_4 1_555 1_555
C12_12 N1_12 1_555 1_555
H11_12 C21_12 1_555 1_555
C22_12 C21_12 1_555 1_555
H12_12 C22_12 1_555 1_555
C23_12 C24_10 1_555 1_555
C24_10 H13_10 1_555 1_555
C27_12 C23_12 1_555 1_555
H16_12 C27_12 1_555 1_555
N5_8 C20_12 1_555 1_555
S8_12 C16_12 1_555 1_555
Mn3_4 N5_8 1_555 1_555
C16_12 S7_12 1_555 1_555
C22_12 N5_8 1_555 1_555
C23_12 S8_12 1_555 1_555
H14_12 C25_12 1_555 1_555
C26_12 H15_12 1_555 1_555
N7_6 C25_12 1_555 1_555
C26_12 N7_6 1_555 1_555
H11_13 C21_13 1_555 1_555
C22_13 C21_13 1_555 1_555
H12_13 C22_13 1_555 1_555
C23_13 C24_11 1_555 1_555
C24_11 H13_11 1_555 1_555
C25_13 C24_11 1_555 1_555
H14_13 C25_13 1_555 1_555
C26_13 H15_13 1_555 1_555
C27_13 C23_13 1_555 1_555
H16_13 C27_13 1_555 1_555
N4_7 C25_13 1_555 1_555
N9_7 C20_13 1_555 1_555
S8_13 C16_13 1_555 1_555
Mn4_3 N4_7 1_555 1_555
C16_13 S7_13 1_555 1_555
C22_13 N9_7 1_555 1_555
C23_13 S8_13 1_555 1_555
C26_13 C27_13 1_555 1_555
C26_13 N4_7 1_555 1_555
C1_13 S2_13 1_555 1_555
C2_13 C3_13 1_555 1_555
C3_13 S2_13 1_555 1_555
C4_13 C5_13 1_555 1_555
C5_13 H1_13 1_555 1_555
C6_13 C5_13 1_555 1_555
H2_13 C6_13 1_555 1_555
C7_13 C4_13 1_555 1_555
H3_13 C7_13 1_555 1_555
C8_13 C7_13 1_555 1_555
H4_13 C8_13 1_555 1_555
C9_13 C10_13 1_555 1_555
C10_13 H5_13 1_555 1_555
C11_13 C10_13 1_555 1_555
H6_13 C11_13 1_555 1_555
C12_13 H7_13 1_555 1_555
C13_13 C9_13 1_555 1_555
H8_13 C13_13 1_555 1_555
C14_13 N2_13 1_555 1_555
N1_13 C11_13 1_555 1_555
N2_13 Mn4_3 1_555 1_555
S1_13 C14_13 1_555 1_555
N9_8 C6_13 1_555 1_555
S3_13 C1_13 1_555 1_555
S4_13 C2_13 1_555 1_555
S5_13 C3_13 1_555 1_555
Mn4_3 N1_13 1_555 1_555
C15_13 C1_13 1_555 1_555
C17_13 S6_13 1_555 1_555
C18_11 C19_11 1_555 1_555
C19_11 H9_11 1_555 1_555
S6_13 C15_13 1_555 1_555
S9_11 C17_13 1_555 1_555
C28_13 N6_13 1_555 1_555
N6_13 Mn4_3 1_555 1_555
S10_13 C28_13 1_555 1_555
C2_13 S3_13 1_555 1_555
C4_13 S5_13 1_555 1_555
C8_13 N9_8 1_555 1_555
C9_13 S4_13 1_555 1_555
C12_13 C13_13 1_555 1_555
C12_13 N1_13 1_555 1_555
C18_11 S9_11 1_555 1_555
S10_14 C28_14 1_555 1_555
C18_12 C19_12 1_555 1_555
C19_12 H9_12 1_555 1_555
C20_14 C19_12 1_555 1_555
H10_12 C20_14 1_555 1_555
C21_14 C18_12 1_555 1_555
C22_14 C21_14 1_555 1_555
H12_14 C22_14 1_555 1_555
N8_7 C20_14 1_555 1_555
C18_12 S9_12 1_555 1_555
C22_14 N8_7 1_555 1_555
C1_14 S2_14 1_555 1_555
C2_14 C3_14 1_555 1_555
C3_14 S2_14 1_555 1_555
C4_14 C5_14 1_555 1_555
C5_14 H1_14 1_555 1_555
C6_14 C5_14 1_555 1_555
H2_14 C6_14 1_555 1_555
C7_14 C4_14 1_555 1_555
H3_14 C7_14 1_555 1_555
C8_14 C7_14 1_555 1_555
H4_14 C8_14 1_555 1_555
C9_14 C10_14 1_555 1_555
C10_14 H5_14 1_555 1_555
C11_14 C10_14 1_555 1_555
H6_14 C11_14 1_555 1_555
C12_14 H7_14 1_555 1_555
C13_14 C9_14 1_555 1_555
H8_14 C13_14 1_555 1_555
C14_14 N2_14 1_555 1_555
N1_14 C11_14 1_555 1_555
N2_14 Mn3_3 1_555 1_555
S1_14 C14_14 1_555 1_555
N8_8 C6_14 1_555 1_555
S3_14 C1_14 1_555 1_555
S4_14 C2_14 1_555 1_555
S5_14 C3_14 1_555 1_555
Mn3_3 N1_14 1_555 1_555
C15_14 C1_14 1_555 1_555
C16_14 C17_14 1_555 1_555
C17_14 S6_14 1_555 1_555
C26_14 H15_14 1_555 1_555
C27_14 C23_14 1_555 1_555
H16_14 C27_14 1_555 1_555
S6_14 C15_14 1_555 1_555
S7_14 C15_14 1_555 1_555
S8_14 C16_14 1_555 1_555
N6_14 Mn3_3 1_555 1_555
N7_7 Mn3_3 1_555 1_555
C2_14 S3_14 1_555 1_555
C4_14 S5_14 1_555 1_555
C8_14 N8_8 1_555 1_555
C9_14 S4_14 1_555 1_555
C12_14 C13_14 1_555 1_555
C12_14 N1_14 1_555 1_555
C16_14 S7_14 1_555 1_555
C23_14 S8_14 1_555 1_555
C26_14 C27_14 1_555 1_555
C24_12 H13_12 1_555 1_555
C25_14 C24_12 1_555 1_555
H14_14 C25_14 1_555 1_555
N7_7 C25_14 1_555 1_555
H11_15 C21_15 1_555 1_555
C22_15 C21_15 1_555 1_555
H12_15 C22_15 1_555 1_555
C23_15 C24_13 1_555 1_555
C24_13 H13_13 1_555 1_555
C25_15 C24_13 1_555 1_555
H14_15 C25_15 1_555 1_555
C26_15 H15_15 1_555 1_555
C27_15 C23_15 1_555 1_555
H16_15 C27_15 1_555 1_555
N4_8 C25_15 1_555 1_555
N9_5 C20_15 1_555 1_555
S8_15 C16_15 1_555 1_555
Mn4_4 N4_8 1_555 1_555
C16_15 S7_15 1_555 1_555
C22_15 N9_5 1_555 1_555
C23_15 S8_15 1_555 1_555
C26_15 C27_15 1_555 1_555
C26_15 N4_8 1_555 1_555
C4_15 C5_15 1_555 1_555
C5_15 H1_15 1_555 1_555
C6_15 C5_15 1_555 1_555
H2_15 C6_15 1_555 1_555
C7_15 C4_15 1_555 1_555
C8_15 C7_15 1_555 1_555
H4_15 C8_15 1_555 1_555
N9_6 C6_15 1_555 1_555
C4_15 S5_15 1_555 1_555
C8_15 N9_6 1_555 1_555
C1_15 S2_15 1_555 1_555
C2_15 C3_15 1_555 1_555
C3_15 S2_15 1_555 1_555
C9_15 C10_15 1_555 1_555
C10_15 H5_15 1_555 1_555
C11_15 C10_15 1_555 1_555
H6_15 C11_15 1_555 1_555
C12_15 H7_15 1_555 1_555
C13_15 C9_15 1_555 1_555
H8_15 C13_15 1_555 1_555
C14_15 N2_15 1_555 1_555
N1_15 C11_15 1_555 1_555
N2_15 Mn4_4 1_555 1_555
S1_15 C14_15 1_555 1_555
S3_15 C1_15 1_555 1_555
S4_15 C2_15 1_555 1_555
Mn4_4 N1_15 1_555 1_555
C15_15 C1_15 1_555 1_555
C17_15 S6_15 1_555 1_555
C18_13 C19_13 1_555 1_555
C19_13 H9_13 1_555 1_555
S6_15 C15_15 1_555 1_555
S9_13 C17_15 1_555 1_555
C28_15 N6_15 1_555 1_555
N6_15 Mn4_4 1_555 1_555
S10_15 C28_15 1_555 1_555
C2_15 S3_15 1_555 1_555
C9_15 S4_15 1_555 1_555
C12_15 C13_15 1_555 1_555
C12_15 N1_15 1_555 1_555
C18_13 S9_13 1_555 1_555
S10_16 C28_16 1_555 1_555
C1_16 S2_16 1_555 1_555
C2_16 C3_16 1_555 1_555
C3_16 S2_16 1_555 1_555
C4_16 C5_16 1_555 1_555
C5_16 H1_16 1_555 1_555
C6_16 C5_16 1_555 1_555
H2_16 C6_16 1_555 1_555
C7_16 C4_16 1_555 1_555
H3_16 C7_16 1_555 1_555
C8_16 C7_16 1_555 1_555
H4_16 C8_16 1_555 1_555
C9_16 C10_16 1_555 1_555
C10_16 H5_16 1_555 1_555
C11_16 C10_16 1_555 1_555
H6_16 C11_16 1_555 1_555
C12_16 H7_16 1_555 1_555
C13_16 C9_16 1_555 1_555
H8_16 C13_16 1_555 1_555
C14_16 N2_16 1_555 1_555
N1_16 C11_16 1_555 1_555
N2_16 Mn3_4 1_555 1_555
S1_16 C14_16 1_555 1_555
N8_6 C6_16 1_555 1_555
S3_16 C1_16 1_555 1_555
S4_16 C2_16 1_555 1_555
S5_16 C3_16 1_555 1_555
Mn3_4 N1_16 1_555 1_555
C15_16 C1_16 1_555 1_555
C16_16 C17_16 1_555 1_555
C17_16 S6_16 1_555 1_555
C18_14 C19_14 1_555 1_555
C19_14 H9_14 1_555 1_555
C20_16 C19_14 1_555 1_555
H10_14 C20_16 1_555 1_555
C21_16 C18_14 1_555 1_555
H11_16 C21_16 1_555 1_555
C22_16 C21_16 1_555 1_555
H12_16 C22_16 1_555 1_555
C26_16 H15_16 1_555 1_555
C27_16 C23_16 1_555 1_555
H16_16 C27_16 1_555 1_555
N8_5 C20_16 1_555 1_555
S6_16 C15_16 1_555 1_555
S7_16 C15_16 1_555 1_555
S8_16 C16_16 1_555 1_555
S9_14 C17_16 1_555 1_555
N6_16 Mn3_4 1_555 1_555
N7_8 Mn3_4 1_555 1_555
C2_16 S3_16 1_555 1_555
C4_16 S5_16 1_555 1_555
C8_16 N8_6 1_555 1_555
C9_16 S4_16 1_555 1_555
C12_16 C13_16 1_555 1_555
C12_16 N1_16 1_555 1_555
C16_16 S7_16 1_555 1_555
C18_14 S9_14 1_555 1_555
C22_16 N8_5 1_555 1_555
C23_16 S8_16 1_555 1_555
C26_16 C27_16 1_555 1_555
C24_14 H13_14 1_555 1_555
C25_16 C24_14 1_555 1_555
H14_16 C25_16 1_555 1_555
N7_8 C25_16 1_555 1_555
C18_15 C19_15 1_555 1_555
C19_15 H9_15 1_555 1_555
C18_15 S9_15 1_555 1_555
C24_15 H13_15 1_555 1_555
C18_16 C19_16 1_555 1_555
C19_16 H9_16 1_555 1_555
C18_16 S9_16 1_555 1_555
C24_16 H13_16 1_555 1_555

#END
