
###############################################################################
#
# This file contains modified crystal structure data generated from the
# MOF subset of the Cambridge Structural Database (CSD) v543 
# hosted by the Cambridge Crystallographic Data Centre (CCDC).
#
# This work is licensed under the Creative Commons
# Attribution-NonCommercial-ShareAlike 4.0 International License.
# To view a copy of this license, visit
# http://creativecommons.org/licenses/by-nc-sa/4.0/
# or send a letter to
# Creative Commons, PO Box 1866, Mountain View, CA 94042, USA.
#
# CIF created using the CSD Python API on 29 September 2022
# The structure has been converted into the P1 space group
# The structure has a 3D framework
# The original CSD entry BOTCEU is in the rhombohedral crystal system
# The framework has been calculated to contain at least 10.0% void space
# The void calculation uses a probe of radius 1.32A, grid spacing 0.4
#
###############################################################################

data_BOTCEU
_chemical_formula_moiety         '(C324 H396 Cu36 N72 O36)n'
_symmetry_cell_setting           triclinic
_symmetry_space_group_name_H-M   'P 1'
_symmetry_Int_Tables_number      1
_space_group_name_Hall           'P 1'
loop_
_symmetry_equiv_pos_site_id
_symmetry_equiv_pos_as_xyz
1 x,y,z
_cell_length_a                   26.839(3)
_cell_length_b                   26.839(3)
_cell_length_c                   15.8317(16)
_cell_angle_alpha                90
_cell_angle_beta                 90
_cell_angle_gamma                120
_cell_volume                     9876.22
loop_
_atom_site_label
_atom_site_type_symbol
_atom_site_fract_x
_atom_site_fract_y
_atom_site_fract_z
Cu1 Cu 0.52510(4) 0.60906(3) 0.11769(5)
Cu2 Cu 0.58112(4) 0.74897(3) 0.13017(5)
O1 O 0.5715(2) 0.67963(18) 0.1782(3)
O2 O 0.4469(2) 0.5473(2) 0.1035(3)
N1 N 0.5323(2) 0.6525(2) 0.0172(3)
N2 N 0.5485(2) 0.7092(2) 0.0229(3)
C17 C 0.5926(5) 0.6825(5) 0.2626(6)
H17 H 0.5961 0.7164 0.2914
H18 H 0.6304 0.6852 0.2602
H19 H 0.5657 0.6477 0.2938
C18 C 0.4041(5) 0.5640(5) 0.0680(7)
H20 H 0.4203 0.5875 0.0172
H21 H 0.3967 0.5860 0.1105
H22 H 0.3680 0.5291 0.0537
Cu4 Cu 0.41564(3) 0.50118(5) 0.20316(5)
O3 O 0.5663(3) 0.7802(2) 0.2298(3)
N5 N 0.6394(2) 0.8259(2) 0.0962(3)
N6 N 0.5380(2) 0.5594(4) 0.1908(3)
Cu1_2 Cu 0.39094(3) 0.91604(5) 0.11769(5)
Cu2_2 Cu 0.25103(3) 0.83215(5) 0.13017(5)
O1_2 O 0.32037(18) 0.89187(27) 0.1782(3)
O2_2 O 0.4527(2) 0.8996(3) 0.1035(3)
N1_2 N 0.3475(2) 0.8798(3) 0.0172(3)
N2_2 N 0.2908(2) 0.8393(3) 0.0229(3)
C17_2 C 0.3175(5) 0.9101(7) 0.2626(6)
H17_2 H 0.2836 0.8797 0.2914
H18_2 H 0.3148 0.9452 0.2602
H19_2 H 0.3523 0.9180 0.2938
C18_2 C 0.4360(5) 0.8401(7) 0.0680(7)
H20_2 H 0.4125 0.8328 0.0172
H21_2 H 0.4140 0.8107 0.1105
H22_2 H 0.4709 0.8389 0.0537
Cu4_2 Cu 0.49882(5) 0.91445(6) 0.20316(5)
O3_2 O 0.2198(2) 0.7860(4) 0.2298(3)
N5_2 N 0.1741(2) 0.8136(3) 0.0962(3)
N6_2 N 0.4406(4) 0.9787(4) 0.1908(3)
Cu1_3 Cu 0.08396(5) 0.47490(4) 0.11769(5)
Cu2_3 Cu 0.16785(5) 0.41888(4) 0.13017(5)
O1_3 O 0.10813(27) 0.4285(2) 0.1782(3)
O2_3 O 0.1004(3) 0.5531(2) 0.1035(3)
N1_3 N 0.1202(3) 0.4677(2) 0.0172(3)
N2_3 N 0.1607(3) 0.4515(2) 0.0229(3)
C17_3 C 0.0899(7) 0.4074(5) 0.2626(6)
H17_3 H 0.1203 0.4039 0.2914
H18_3 H 0.0548 0.3696 0.2602
H19_3 H 0.0820 0.4343 0.2938
C18_3 C 0.1599(7) 0.5959(5) 0.0680(7)
H20_3 H 0.1672 0.5797 0.0172
H21_3 H 0.1893 0.6033 0.1105
H22_3 H 0.1611 0.6320 0.0537
Cu4_3 Cu 0.08555(6) 0.58436(3) 0.20316(5)
O3_3 O 0.2140(4) 0.4337(3) 0.2298(3)
N5_3 N 0.1864(3) 0.3606(2) 0.0962(3)
N6_3 N 0.0213(4) 0.4620(2) 0.1908(3)
N3 N 0.3606(2) 0.1741(2) 0.9038(3)
N4 N 0.3547(3) 0.1286(2) 0.8574(3)
C9 C 0.3153(3) 0.1540(3) 0.9576(4)
H9 H 0.2797 0.2029 0.9880
C11 C 0.2799(3) 0.0947(3) 0.9448(4)
C12 C 0.2286(3) 0.0550(3) 0.9931(4)
C14 C 0.1767(3) 0.0168(3) 0.9530(4)
H13 H 0.1738 0.0169 0.8932
C15 C 0.3072(4) 0.0813(3) 0.8807(4)
C16 C 0.2889(4) 0.0243(3) 0.8393(5)
H14 H 0.2623 0.0183 0.7931
H16 H 0.3230 0.0242 0.8169
Cu3 Cu 0.41729(5) 0.14157(4) 0.78436(5)
Cu5 Cu 0.41888(4) 0.25103(3) 0.86983(5)
N3_2 N 0.8259(2) 0.1864(3) 0.9038(3)
N4_2 N 0.8714(2) 0.2260(4) 0.8574(3)
C9_2 C 0.8460(3) 0.1612(4) 0.9576(4)
H9_2 H 0.7971 0.0767 0.9880
C11_2 C 0.9053(3) 0.1851(4) 0.9448(4)
C12_2 C 0.9450(3) 0.1735(4) 0.9931(4)
C14_2 C 0.9832(3) 0.1598(4) 0.9530(4)
H13_2 H 0.9831 0.1568 0.8932
C15_2 C 0.9187(3) 0.2258(5) 0.8807(4)
C16_2 C 0.9757(3) 0.2645(5) 0.8393(5)
H14_2 H 0.9817 0.2439 0.7931
H16_2 H 0.9758 0.2987 0.8169
Cu3_2 Cu 0.85843(4) 0.27573(6) 0.78436(5)
Cu5_2 Cu 0.74897(3) 0.16785(5) 0.86983(5)
N3_3 N 0.8136(3) 0.6394(2) 0.9038(3)
N4_3 N 0.7740(4) 0.6453(3) 0.8574(3)
H8 H 0.8580 0.9048 0.9728
C9_3 C 0.8388(4) 0.6847(3) 0.9576(4)
H9_3 H 0.9233 0.7203 0.9880
C11_3 C 0.8149(4) 0.7201(3) 0.9448(4)
C12_3 C 0.8265(4) 0.7714(3) 0.9931(4)
C14_3 C 0.8402(4) 0.8233(3) 0.9530(4)
H13_3 H 0.8432 0.8262 0.8932
C15_3 C 0.7742(5) 0.6928(4) 0.8807(4)
C16_3 C 0.7355(5) 0.7111(4) 0.8393(5)
H14_3 H 0.7561 0.7377 0.7931
H15 H 0.7236 0.7300 0.8810
H16_3 H 0.7013 0.6770 0.8169
Cu3_3 Cu 0.72427(6) 0.58271(5) 0.78436(5)
Cu5_3 Cu 0.83215(5) 0.58112(4) 0.86983(5)
N3_4 N 0.0272(2) 0.5075(2) 0.2372(3)
H11 H 0.0103 0.5618 0.3567
Cu2_4 Cu 0.91445(4) 0.41564(3) 0.79684(5)
O1_4 O 0.9048(2) 0.34630(18) 0.8449(3)
O2_4 O 0.7802(2) 0.2140(2) 0.7702(3)
N1_4 N 0.8656(2) 0.3192(2) 0.6839(3)
N2_4 N 0.8818(2) 0.3759(2) 0.6896(3)
C1 C 0.8520(3) 0.3026(3) 0.6035(4)
C2 C 0.8577(3) 0.3483(3) 0.5551(4)
C3 C 0.8765(3) 0.3938(3) 0.6123(4)
C4 C 0.8353(4) 0.2427(3) 0.5757(5)
H1 H 0.8359 0.2205 0.6244
H2 H 0.8626 0.2446 0.5330
H3 H 0.7965 0.2241 0.5516
C5 C 0.8871(3) 0.4535(3) 0.5956(5)
H4 H 0.8720 0.4657 0.6428
H5 H 0.8676 0.4535 0.5433
H6 H 0.9285 0.4801 0.5899
C6 C 0.8506(3) 0.3495(3) 0.4626(4)
C7 C 0.7988(3) 0.3120(3) 0.4215(4)
H7 H 0.7657 0.2866 0.4532
C8 C 0.7966(3) 0.3127(3) 0.3340(4)
H8_2 H 0.7618 0.2865 0.3062
C9_4 C 0.9819(3) 0.4874(3) 0.2910(4)
C10 C 0.9734(3) 0.5265(3) 0.3475(4)
H9_4 H 0.9463 0.5363 0.3214
H10 H 0.9579 0.5075 0.4018
C11_4 C 0.9465(3) 0.4281(3) 0.2782(4)
C12_4 C 0.8952(3) 0.3884(3) 0.3265(4)
C13 C 0.8978(3) 0.3871(3) 0.4144(4)
H12 H 0.9328 0.4128 0.4420
C14_4 C 0.8433(3) 0.3502(3) 0.2864(4)
H13_4 H 0.8404 0.3503 0.2266
C15_4 C 0.9738(4) 0.4147(3) 0.2141(4)
C16_4 C 0.9555(4) 0.3577(3) 0.1727(5)
H14_4 H 0.9289 0.3517 0.1265
H15_2 H 0.9366 0.3269 0.2144
H16_4 H 0.9896 0.3576 0.1503
C17_4 C 0.9259(5) 0.3492(5) 0.9293(6)
H17_4 H 0.9294 0.3831 0.9581
H18_4 H 0.9637 0.3519 0.9269
H19_4 H 0.8990 0.3144 0.9605
C18_4 C 0.7374(5) 0.2307(5) 0.7347(7)
H20_4 H 0.7536 0.2542 0.6839
H21_4 H 0.7300 0.2527 0.7772
H22_4 H 0.7013 0.1958 0.7204
O3_4 O 0.8996(3) 0.4469(2) 0.8965(3)
N5_4 N 0.9728(2) 0.4925(2) 0.7628(3)
Cu2_5 Cu 0.58436(3) 0.49882(5) 0.79684(5)
O1_5 O 0.65370(18) 0.55854(27) 0.8449(3)
O2_5 O 0.7860(2) 0.5663(3) 0.7702(3)
N1_5 N 0.6808(2) 0.5465(3) 0.6839(3)
N2_5 N 0.6241(2) 0.5060(3) 0.6896(3)
N3_5 N 0.4925(2) 0.5198(3) 0.2372(3)
C1_2 C 0.6974(3) 0.5495(4) 0.6035(4)
C2_2 C 0.6517(3) 0.5095(4) 0.5551(4)
C3_2 C 0.6062(3) 0.4828(4) 0.6123(4)
C4_2 C 0.7573(3) 0.5927(5) 0.5757(5)
H1_2 H 0.7795 0.6155 0.6244
H2_2 H 0.7554 0.6181 0.5330
H3_2 H 0.7759 0.5725 0.5516
C5_2 C 0.5465(3) 0.4337(4) 0.5956(5)
H4_2 H 0.5343 0.4064 0.6428
H5_2 H 0.5465 0.4142 0.5433
H6_2 H 0.5199 0.4485 0.5899
C6_2 C 0.6505(3) 0.5012(4) 0.4626(4)
C7_2 C 0.6880(3) 0.4869(4) 0.4215(4)
H7_2 H 0.7134 0.4792 0.4532
C8_2 C 0.6873(3) 0.4840(4) 0.3340(4)
H8_3 H 0.7135 0.4754 0.3062
C9_5 C 0.5126(3) 0.4946(4) 0.2910(4)
C10_2 C 0.4735(3) 0.4470(4) 0.3475(4)
H9_5 H 0.4637 0.4101 0.3214
H10_2 H 0.4925 0.4505 0.4018
H11_2 H 0.4382 0.4486 0.3567
C11_5 C 0.5719(3) 0.5185(4) 0.2782(4)
C12_5 C 0.6116(3) 0.5069(4) 0.3265(4)
C13_2 C 0.6129(3) 0.5108(4) 0.4144(4)
H12_2 H 0.5872 0.5201 0.4420
C14_5 C 0.6498(3) 0.4932(4) 0.2864(4)
H13_5 H 0.6497 0.4902 0.2266
C15_5 C 0.5853(3) 0.5592(5) 0.2141(4)
C16_5 C 0.6423(3) 0.5979(5) 0.1727(5)
H14_5 H 0.6483 0.5773 0.1265
H15_3 H 0.6731 0.6098 0.2144
H16_5 H 0.6424 0.6321 0.1503
C17_5 C 0.6508(5) 0.5768(7) 0.9293(6)
H17_5 H 0.6169 0.5464 0.9581
H18_5 H 0.6481 0.6119 0.9269
H19_5 H 0.6856 0.5847 0.9605
C18_5 C 0.7693(5) 0.5068(7) 0.7347(7)
H20_5 H 0.7458 0.4995 0.6839
H21_5 H 0.7473 0.4774 0.7772
H22_5 H 0.8042 0.5056 0.7204
O3_5 O 0.5531(2) 0.4527(4) 0.8965(3)
N5_5 N 0.5075(2) 0.4802(3) 0.7628(3)
Cu2_6 Cu 0.50118(5) 0.08555(4) 0.79684(5)
O1_6 O 0.44146(27) 0.0952(2) 0.8449(3)
O2_6 O 0.4337(3) 0.2198(2) 0.7702(3)
N1_6 N 0.4535(3) 0.1344(2) 0.6839(3)
N2_6 N 0.4940(3) 0.1182(2) 0.6896(3)
C1_3 C 0.4505(4) 0.1480(3) 0.6035(4)
C2_3 C 0.4905(4) 0.1423(3) 0.5551(4)
C3_3 C 0.5172(4) 0.1235(3) 0.6123(4)
C4_3 C 0.4073(5) 0.1647(4) 0.5757(5)
H1_3 H 0.3845 0.1641 0.6244
H2_3 H 0.3819 0.1374 0.5330
H3_3 H 0.4275 0.2035 0.5516
C5_3 C 0.5663(4) 0.1129(3) 0.5956(5)
H4_3 H 0.5936 0.1280 0.6428
H5_3 H 0.5858 0.1324 0.5433
H6_3 H 0.5515 0.0715 0.5899
C6_3 C 0.4988(4) 0.1494(3) 0.4626(4)
C7_3 C 0.5131(4) 0.2012(3) 0.4215(4)
H7_3 H 0.5208 0.2343 0.4532
C8_3 C 0.5160(4) 0.2034(3) 0.3340(4)
H8_4 H 0.5246 0.2382 0.3062
C9_6 C 0.5054(4) 0.0181(3) 0.2910(4)
C10_3 C 0.5530(4) 0.0266(3) 0.3475(4)
H9_6 H 0.5899 0.0537 0.3214
H10_3 H 0.5495 0.0421 0.4018
C11_6 C 0.4815(4) 0.0535(3) 0.2782(4)
C12_6 C 0.4931(4) 0.1048(3) 0.3265(4)
C13_3 C 0.4892(4) 0.1022(3) 0.4144(4)
H12_3 H 0.4799 0.0672 0.4420
C14_6 C 0.5068(4) 0.1567(3) 0.2864(4)
H13_6 H 0.5098 0.1596 0.2266
C15_6 C 0.4408(5) 0.0262(4) 0.2141(4)
C16_6 C 0.4021(5) 0.0445(4) 0.1727(5)
H14_6 H 0.4227 0.0711 0.1265
H15_4 H 0.3902 0.0634 0.2144
H16_6 H 0.3679 0.0104 0.1503
C17_6 C 0.4232(7) 0.0741(5) 0.9293(6)
H17_6 H 0.4536 0.0706 0.9581
H18_6 H 0.3881 0.0363 0.9269
H19_6 H 0.4153 0.1010 0.9605
C18_6 C 0.4932(7) 0.2626(5) 0.7347(7)
H20_6 H 0.5005 0.2464 0.6839
H21_6 H 0.5226 0.2700 0.7772
H22_6 H 0.4944 0.2987 0.7204
O3_6 O 0.5473(4) 0.1004(3) 0.8965(3)
N5_6 N 0.5198(3) 0.0272(2) 0.7628(3)
N3_6 N 0.4802(3) 0.9728(2) 0.2372(3)
H11_3 H 0.5514 0.9897 0.3567
Cu1_4 Cu 0.47490(4) 0.39094(3) 0.88231(5)
O1_7 O 0.4285(2) 0.32037(18) 0.8218(3)
N1_7 N 0.4677(2) 0.3475(2) 0.9828(3)
N2_7 N 0.4515(2) 0.2908(2) 0.9771(3)
C17_7 C 0.4074(5) 0.3175(5) 0.7374(6)
H17_7 H 0.4039 0.2836 0.7086
H18_7 H 0.3696 0.3148 0.7398
H19_7 H 0.4343 0.3523 0.7062
C18_7 C 0.5959(5) 0.4360(5) 0.9320(7)
H20_7 H 0.5797 0.4125 0.9828
H21_7 H 0.6033 0.4140 0.8895
H22_7 H 0.6320 0.4709 0.9463
N6_4 N 0.4620(2) 0.4406(4) 0.8092(3)
Cu1_5 Cu 0.60906(3) 0.08396(5) 0.88231(5)
O1_8 O 0.67963(18) 0.10813(27) 0.8218(3)
N1_8 N 0.6525(2) 0.1202(3) 0.9828(3)
N2_8 N 0.7092(2) 0.1607(3) 0.9771(3)
C17_8 C 0.6825(5) 0.0899(7) 0.7374(6)
H17_8 H 0.7164 0.1203 0.7086
H18_8 H 0.6852 0.0548 0.7398
H19_8 H 0.6477 0.0820 0.7062
C18_8 C 0.5640(5) 0.1599(7) 0.9320(7)
H20_8 H 0.5875 0.1672 0.9828
H21_8 H 0.5860 0.1893 0.8895
H22_8 H 0.5291 0.1611 0.9463
N6_5 N 0.5594(4) 0.0213(4) 0.8092(3)
Cu1_6 Cu 0.91604(5) 0.52510(4) 0.88231(5)
O1_9 O 0.89187(27) 0.5715(2) 0.8218(3)
N1_9 N 0.8798(3) 0.5323(2) 0.9828(3)
N2_9 N 0.8393(3) 0.5485(2) 0.9771(3)
C17_9 C 0.9101(7) 0.5926(5) 0.7374(6)
H17_9 H 0.8797 0.5961 0.7086
H18_9 H 0.9452 0.6304 0.7398
H19_9 H 0.9180 0.5657 0.7062
C18_9 C 0.8401(7) 0.4041(5) 0.9320(7)
H20_9 H 0.8328 0.4203 0.9828
H21_9 H 0.8107 0.3967 0.8895
H22_9 H 0.8389 0.3680 0.9463
N6_6 N 0.9787(4) 0.5380(2) 0.8092(3)
N4_4 N 0.6453(3) 0.8714(2) 0.1426(3)
C9_7 C 0.6847(3) 0.8460(3) 0.0424(4)
H9_7 H 0.7203 0.7971 0.0120
C11_7 C 0.7201(3) 0.9053(3) 0.0552(4)
C12_7 C 0.7714(3) 0.9450(3) 0.0069(4)
C14_7 C 0.8233(3) 0.9832(3) 0.0470(4)
H13_7 H 0.8262 0.9831 0.1068
C15_7 C 0.6928(4) 0.9187(3) 0.1193(4)
C16_7 C 0.7111(4) 0.9757(3) 0.1607(5)
H14_7 H 0.7377 0.9817 0.2069
H16_7 H 0.6770 0.9758 0.1831
Cu3_4 Cu 0.58271(5) 0.85843(4) 0.21564(5)
N4_5 N 0.1286(2) 0.7740(4) 0.1426(3)
C9_8 C 0.1540(3) 0.8388(4) 0.0424(4)
H9_8 H 0.2029 0.9233 0.0120
C11_8 C 0.0947(3) 0.8149(4) 0.0552(4)
C12_8 C 0.0550(3) 0.8265(4) 0.0069(4)
C14_8 C 0.0168(3) 0.8402(4) 0.0470(4)
H13_8 H 0.0169 0.8432 0.1068
C15_8 C 0.0813(3) 0.7742(5) 0.1193(4)
C16_8 C 0.0243(3) 0.7355(5) 0.1607(5)
H14_8 H 0.0183 0.7561 0.2069
H16_8 H 0.0242 0.7013 0.1831
Cu3_5 Cu 0.14157(4) 0.72427(6) 0.21564(5)
N4_6 N 0.2260(4) 0.3547(3) 0.1426(3)
H8_5 H 0.1420 0.0952 0.0272
C9_9 C 0.1612(4) 0.3153(3) 0.0424(4)
H9_9 H 0.0767 0.2797 0.0120
C11_9 C 0.1851(4) 0.2799(3) 0.0552(4)
C12_9 C 0.1735(4) 0.2286(3) 0.0069(4)
C14_9 C 0.1598(4) 0.1767(3) 0.0470(4)
H13_9 H 0.1568 0.1738 0.1068
C15_9 C 0.2258(5) 0.3072(4) 0.1193(4)
C16_9 C 0.2645(5) 0.2889(4) 0.1607(5)
H14_9 H 0.2439 0.2623 0.2069
H15_5 H 0.2764 0.2700 0.1190
H16_9 H 0.2987 0.3230 0.1831
Cu3_6 Cu 0.27573(6) 0.41729(5) 0.21564(5)
O1_10 O 0.0952(2) 0.65370(18) 0.1551(3)
N1_10 N 0.1344(2) 0.6808(2) 0.3161(3)
N2_10 N 0.1182(2) 0.6241(2) 0.3104(3)
C1_4 C 0.1480(3) 0.6974(3) 0.3965(4)
C2_4 C 0.1423(3) 0.6517(3) 0.4449(4)
C3_4 C 0.1235(3) 0.6062(3) 0.3877(4)
C4_4 C 0.1647(4) 0.7573(3) 0.4243(5)
H1_4 H 0.1641 0.7795 0.3756
H2_4 H 0.1374 0.7554 0.4670
H3_4 H 0.2035 0.7759 0.4484
C5_4 C 0.1129(3) 0.5465(3) 0.4044(5)
H4_4 H 0.1280 0.5343 0.3572
H5_4 H 0.1324 0.5465 0.4567
H6_4 H 0.0715 0.5199 0.4101
C6_4 C 0.1494(3) 0.6505(3) 0.5374(4)
C7_4 C 0.2012(3) 0.6880(3) 0.5785(4)
H7_4 H 0.2343 0.7134 0.5468
C8_4 C 0.2034(3) 0.6873(3) 0.6660(4)
H8_6 H 0.2382 0.7135 0.6938
C9_10 C 0.0181(3) 0.5126(3) 0.7090(4)
C10_4 C 0.0266(3) 0.4735(3) 0.6525(4)
H9_10 H 0.0537 0.4637 0.6786
H10_4 H 0.0421 0.4925 0.5982
C11_10 C 0.0535(3) 0.5719(3) 0.7218(4)
C12_10 C 0.1048(3) 0.6116(3) 0.6735(4)
C13_4 C 0.1022(3) 0.6129(3) 0.5856(4)
H12_4 H 0.0672 0.5872 0.5580
C14_10 C 0.1567(3) 0.6498(3) 0.7136(4)
H13_10 H 0.1596 0.6497 0.7734
C15_10 C 0.0262(4) 0.5853(3) 0.7859(4)
C16_10 C 0.0445(4) 0.6423(3) 0.8273(5)
H14_10 H 0.0711 0.6483 0.8735
H15_6 H 0.0634 0.6731 0.7856
H16_10 H 0.0104 0.6424 0.8497
C17_10 C 0.0741(5) 0.6508(5) 0.0707(6)
H17_10 H 0.0706 0.6169 0.0419
H18_10 H 0.0363 0.6481 0.0731
H19_10 H 0.1010 0.6856 0.0395
C18_10 C 0.2626(5) 0.7693(5) 0.2653(7)
H20_10 H 0.2464 0.7458 0.3161
H21_10 H 0.2700 0.7473 0.2228
H22_10 H 0.2987 0.8042 0.2796
H11_4 H 0.9897 0.4382 0.6433
O1_11 O 0.34630(18) 0.44146(27) 0.1551(3)
N1_11 N 0.3192(2) 0.4535(3) 0.3161(3)
N2_11 N 0.3759(2) 0.4940(3) 0.3104(3)
C1_5 C 0.3026(3) 0.4505(4) 0.3965(4)
C2_5 C 0.3483(3) 0.4905(4) 0.4449(4)
C3_5 C 0.3938(3) 0.5172(4) 0.3877(4)
C4_5 C 0.2427(3) 0.4073(5) 0.4243(5)
H1_5 H 0.2205 0.3845 0.3756
H2_5 H 0.2446 0.3819 0.4670
H3_5 H 0.2241 0.4275 0.4484
C5_5 C 0.4535(3) 0.5663(4) 0.4044(5)
H4_5 H 0.4657 0.5936 0.3572
H5_5 H 0.4535 0.5858 0.4567
H6_5 H 0.4801 0.5515 0.4101
C6_5 C 0.3495(3) 0.4988(4) 0.5374(4)
C7_5 C 0.3120(3) 0.5131(4) 0.5785(4)
H7_5 H 0.2866 0.5208 0.5468
C8_5 C 0.3127(3) 0.5160(4) 0.6660(4)
H8_7 H 0.2865 0.5246 0.6938
C9_11 C 0.4874(3) 0.5054(4) 0.7090(4)
C10_5 C 0.5265(3) 0.5530(4) 0.6525(4)
H9_11 H 0.5363 0.5899 0.6786
H10_5 H 0.5075 0.5495 0.5982
H11_5 H 0.5618 0.5514 0.6433
C11_11 C 0.4281(3) 0.4815(4) 0.7218(4)
C12_11 C 0.3884(3) 0.4931(4) 0.6735(4)
C13_5 C 0.3871(3) 0.4892(4) 0.5856(4)
H12_5 H 0.4128 0.4799 0.5580
C14_11 C 0.3502(3) 0.5068(4) 0.7136(4)
H13_11 H 0.3503 0.5098 0.7734
C15_11 C 0.4147(3) 0.4408(5) 0.7859(4)
C16_11 C 0.3577(3) 0.4021(5) 0.8273(5)
H14_11 H 0.3517 0.4227 0.8735
H15_7 H 0.3269 0.3902 0.7856
H16_11 H 0.3576 0.3679 0.8497
C17_11 C 0.3492(5) 0.4232(7) 0.0707(6)
H17_11 H 0.3831 0.4536 0.0419
H18_11 H 0.3519 0.3881 0.0731
H19_11 H 0.3144 0.4153 0.0395
C18_11 C 0.2307(5) 0.4932(7) 0.2653(7)
H20_11 H 0.2542 0.5005 0.3161
H21_11 H 0.2527 0.5226 0.2228
H22_11 H 0.1958 0.4944 0.2796
H11_6 H 0.4486 0.0103 0.6433
O1_12 O 0.55854(27) 0.9048(2) 0.1551(3)
N1_12 N 0.5465(3) 0.8656(2) 0.3161(3)
N2_12 N 0.5060(3) 0.8818(2) 0.3104(3)
C1_6 C 0.5495(4) 0.8520(3) 0.3965(4)
C2_6 C 0.5095(4) 0.8577(3) 0.4449(4)
C3_6 C 0.4828(4) 0.8765(3) 0.3877(4)
C4_6 C 0.5927(5) 0.8353(4) 0.4243(5)
H1_6 H 0.6155 0.8359 0.3756
H2_6 H 0.6181 0.8626 0.4670
H3_6 H 0.5725 0.7965 0.4484
C5_6 C 0.4337(4) 0.8871(3) 0.4044(5)
H4_6 H 0.4064 0.8720 0.3572
H5_6 H 0.4142 0.8676 0.4567
H6_6 H 0.4485 0.9285 0.4101
C6_6 C 0.5012(4) 0.8506(3) 0.5374(4)
C7_6 C 0.4869(4) 0.7988(3) 0.5785(4)
H7_6 H 0.4792 0.7657 0.5468
C8_6 C 0.4840(4) 0.7966(3) 0.6660(4)
H8_8 H 0.4754 0.7618 0.6938
C9_12 C 0.4946(4) 0.9819(3) 0.7090(4)
C10_6 C 0.4470(4) 0.9734(3) 0.6525(4)
H9_12 H 0.4101 0.9463 0.6786
H10_6 H 0.4505 0.9579 0.5982
C11_12 C 0.5185(4) 0.9465(3) 0.7218(4)
C12_12 C 0.5069(4) 0.8952(3) 0.6735(4)
C13_6 C 0.5108(4) 0.8978(3) 0.5856(4)
H12_6 H 0.5201 0.9328 0.5580
C14_12 C 0.4932(4) 0.8433(3) 0.7136(4)
H13_12 H 0.4902 0.8404 0.7734
C15_12 C 0.5592(5) 0.9738(4) 0.7859(4)
C16_12 C 0.5979(5) 0.9555(4) 0.8273(5)
H14_12 H 0.5773 0.9289 0.8735
H15_8 H 0.6098 0.9366 0.7856
H16_12 H 0.6321 0.9896 0.8497
C17_12 C 0.5768(7) 0.9259(5) 0.0707(6)
H17_12 H 0.5464 0.9294 0.0419
H18_12 H 0.6119 0.9637 0.0731
H19_12 H 0.5847 0.8990 0.0395
C18_12 C 0.5068(7) 0.7374(5) 0.2653(7)
H20_12 H 0.4995 0.7536 0.3161
H21_12 H 0.4774 0.7300 0.2228
H22_12 H 0.5056 0.7013 0.2796
N3_7 N 0.6939(2) 0.8408(2) 0.5705(3)
N4_7 N 0.6880(3) 0.7953(2) 0.5241(3)
C1_7 C 0.5187(3) 0.6359(3) 0.9368(4)
C2_7 C 0.5244(3) 0.6816(3) 0.8884(4)
C3_7 C 0.5432(3) 0.7271(3) 0.9456(4)
C4_7 C 0.5020(4) 0.5760(3) 0.9090(5)
H1_7 H 0.5026 0.5538 0.9577
H2_7 H 0.5293 0.5779 0.8663
H3_7 H 0.4632 0.5574 0.8849
C5_7 C 0.5538(3) 0.7868(3) 0.9289(5)
H4_7 H 0.5387 0.7990 0.9761
H5_7 H 0.5343 0.7868 0.8766
H6_7 H 0.5952 0.8134 0.9232
C6_7 C 0.5173(3) 0.6828(3) 0.7959(4)
C7_7 C 0.4655(3) 0.6453(3) 0.7548(4)
H7_7 H 0.4324 0.6199 0.7865
C8_7 C 0.4633(3) 0.6460(3) 0.6673(4)
H8_9 H 0.4285 0.6198 0.6395
C9_13 C 0.6486(3) 0.8207(3) 0.6243(4)
C10_7 C 0.6401(3) 0.8598(3) 0.6808(4)
H9_13 H 0.6130 0.8696 0.6547
H10_7 H 0.6246 0.8408 0.7351
H11_7 H 0.6770 0.8951 0.6900
C11_13 C 0.6132(3) 0.7614(3) 0.6115(4)
C12_13 C 0.5619(3) 0.7217(3) 0.6598(4)
C13_7 C 0.5645(3) 0.7204(3) 0.7477(4)
H12_7 H 0.5995 0.7461 0.7753
C14_13 C 0.5100(3) 0.6835(3) 0.6197(4)
H13_13 H 0.5071 0.6836 0.5599
C15_13 C 0.6405(4) 0.7480(3) 0.5474(4)
C16_13 C 0.6222(4) 0.6910(3) 0.5060(5)
H14_13 H 0.5956 0.6850 0.4598
H15_9 H 0.6033 0.6602 0.5477
H16_13 H 0.6563 0.6909 0.4836
Cu3_7 Cu 0.75063(5) 0.80823(4) 0.45102(5)
Cu5_4 Cu 0.75221(4) 0.91770(3) 0.53650(5)
Cu2_7 Cu 0.83452(5) 0.75221(4) 0.46350(5)
O1_13 O 0.77480(27) 0.7618(2) 0.5115(3)
O2_7 O 0.7671(3) 0.8864(2) 0.4368(3)
N1_13 N 0.7869(3) 0.8010(2) 0.3505(3)
N2_13 N 0.8274(3) 0.7848(2) 0.3562(3)
C1_8 C 0.7839(4) 0.8146(3) 0.2701(4)
C2_8 C 0.8239(4) 0.8089(3) 0.2217(4)
C3_8 C 0.8506(4) 0.7901(3) 0.2789(4)
C4_8 C 0.7407(5) 0.8313(4) 0.2423(5)
H1_8 H 0.7179 0.8307 0.2910
H2_8 H 0.7153 0.8040 0.1996
H3_8 H 0.7609 0.8701 0.2182
C5_8 C 0.8997(4) 0.7795(3) 0.2622(5)
H4_8 H 0.9270 0.7946 0.3094
H5_8 H 0.9192 0.7990 0.2099
H6_8 H 0.8849 0.7381 0.2565
C6_8 C 0.8322(4) 0.8160(3) 0.1292(4)
C7_8 C 0.8465(4) 0.8678(3) 0.0881(4)
H7_8 H 0.8542 0.9009 0.1198
C8_8 C 0.8494(4) 0.8700(3) 0.0006(4)
C10_8 C 0.8864(4) 0.6932(3) 0.0141(4)
H10_8 H 0.8829 0.7087 0.0684
H11_8 H 0.8848 0.6563 0.0233
C13_8 C 0.8226(4) 0.7688(3) 0.0810(4)
H12_8 H 0.8133 0.7338 0.1086
C17_13 C 0.7566(7) 0.7407(5) 0.5959(6)
H17_13 H 0.7870 0.7372 0.6247
H18_13 H 0.7215 0.7029 0.5935
H19_13 H 0.7487 0.7676 0.6271
C18_13 C 0.8266(7) 0.9292(5) 0.4013(7)
H20_13 H 0.8339 0.9130 0.3505
H21_13 H 0.8560 0.9366 0.4438
H22_13 H 0.8278 0.9653 0.3870
O3_7 O 0.8806(4) 0.7671(3) 0.5632(3)
N5_7 N 0.8531(3) 0.6939(2) 0.4295(3)
N4_8 N 0.8927(4) 0.6880(3) 0.4759(3)
C1_9 C 0.8828(4) 0.5187(3) 0.0632(4)
C2_9 C 0.8428(4) 0.5244(3) 0.1116(4)
C3_9 C 0.8161(4) 0.5432(3) 0.0544(4)
C4_9 C 0.9260(5) 0.5020(4) 0.0910(5)
H1_9 H 0.9488 0.5026 0.0423
H2_9 H 0.9514 0.5293 0.1337
H3_9 H 0.9058 0.4632 0.1151
C5_9 C 0.7670(4) 0.5538(3) 0.0711(5)
H4_9 H 0.7397 0.5387 0.0239
H5_9 H 0.7475 0.5343 0.1234
H6_9 H 0.7818 0.5952 0.0768
C6_9 C 0.8345(4) 0.5173(3) 0.2041(4)
C7_9 C 0.8202(4) 0.4655(3) 0.2452(4)
H7_9 H 0.8125 0.4324 0.2135
C8_9 C 0.8173(4) 0.4633(3) 0.3327(4)
H8_10 H 0.8087 0.4285 0.3605
C9_14 C 0.8279(4) 0.6486(3) 0.3757(4)
C10_9 C 0.7803(4) 0.6401(3) 0.3192(4)
H9_14 H 0.7434 0.6130 0.3453
H10_9 H 0.7838 0.6246 0.2649
H11_9 H 0.7819 0.6770 0.3100
C11_14 C 0.8518(4) 0.6132(3) 0.3885(4)
C12_14 C 0.8402(4) 0.5619(3) 0.3402(4)
C13_9 C 0.8441(4) 0.5645(3) 0.2523(4)
H12_9 H 0.8534 0.5995 0.2247
C14_14 C 0.8265(4) 0.5100(3) 0.3803(4)
H13_14 H 0.8235 0.5071 0.4401
C15_14 C 0.8925(5) 0.6405(4) 0.4526(4)
C16_14 C 0.9312(5) 0.6222(4) 0.4940(5)
H14_14 H 0.9106 0.5956 0.5402
H15_10 H 0.9431 0.6033 0.4523
H16_14 H 0.9654 0.6563 0.5164
Cu3_8 Cu 0.94239(6) 0.75063(5) 0.54898(5)
O1_14 O 0.7618(2) 0.98704(18) 0.4885(3)
N2_14 N 0.7848(2) 0.9575(2) 0.6438(3)
C2_10 C 0.8089(3) 0.9851(3) 0.7783(4)
C3_10 C 0.7901(3) 0.9396(3) 0.7211(4)
C5_10 C 0.7795(3) 0.8799(3) 0.7378(5)
H4_10 H 0.7946 0.8677 0.6906
H5_10 H 0.7990 0.8799 0.7901
H6_10 H 0.7381 0.8533 0.7435
C6_10 C 0.8160(3) 0.9839(3) 0.8708(4)
C10_10 C 0.6932(3) 0.8069(3) 0.9859(4)
H10_10 H 0.7087 0.8259 0.9316
H11_10 H 0.6563 0.7716 0.9767
C13_10 C 0.7688(3) 0.9463(3) 0.9190(4)
H12_10 H 0.7338 0.9206 0.8914
C17_14 C 0.7407(5) 0.9842(5) 0.4041(6)
H17_14 H 0.7372 0.9503 0.3753
H18_14 H 0.7029 0.9815 0.4065
N1_14 N 0.9858(2) 0.7869(3) 0.6495(3)
C1_10 C 0.9692(3) 0.7839(4) 0.7299(4)
C4_10 C 0.9093(3) 0.7407(5) 0.7577(5)
H1_10 H 0.8871 0.7179 0.7090
H2_10 H 0.9112 0.7153 0.8004
H3_10 H 0.8907 0.7609 0.7818
C7_10 C 0.9786(3) 0.8465(4) 0.9119(4)
H7_10 H 0.9532 0.8542 0.8802
C8_10 C 0.9793(3) 0.8494(4) 0.9994(4)
H19_14 H 0.9810 0.7487 0.3729
C18_14 C 0.8973(5) 0.8266(7) 0.5987(7)
H20_14 H 0.9208 0.8339 0.6495
H21_14 H 0.9193 0.8560 0.5562
H22_14 H 0.8624 0.8278 0.6130
N3_8 N 0.1592(2) 0.8531(3) 0.5705(3)
N4_9 N 0.2047(2) 0.8927(4) 0.5241(3)
C1_11 C 0.3641(3) 0.8828(4) 0.9368(4)
C2_11 C 0.3184(3) 0.8428(4) 0.8884(4)
C3_11 C 0.2729(3) 0.8161(4) 0.9456(4)
C4_11 C 0.4240(3) 0.9260(5) 0.9090(5)
H1_11 H 0.4462 0.9488 0.9577
H2_11 H 0.4221 0.9514 0.8663
H3_11 H 0.4426 0.9058 0.8849
C5_11 C 0.2132(3) 0.7670(4) 0.9289(5)
H4_11 H 0.2010 0.7397 0.9761
H5_11 H 0.2132 0.7475 0.8766
H6_11 H 0.1866 0.7818 0.9232
C6_11 C 0.3172(3) 0.8345(4) 0.7959(4)
C7_11 C 0.3547(3) 0.8202(4) 0.7548(4)
H7_11 H 0.3801 0.8125 0.7865
C8_11 C 0.3540(3) 0.8173(4) 0.6673(4)
H8_11 H 0.3802 0.8087 0.6395
C9_15 C 0.1793(3) 0.8279(4) 0.6243(4)
C10_11 C 0.1402(3) 0.7803(4) 0.6808(4)
H9_15 H 0.1304 0.7434 0.6547
H10_11 H 0.1592 0.7838 0.7351
H11_11 H 0.1049 0.7819 0.6900
C11_15 C 0.2386(3) 0.8518(4) 0.6115(4)
C12_15 C 0.2783(3) 0.8402(4) 0.6598(4)
C13_11 C 0.2796(3) 0.8441(4) 0.7477(4)
H12_11 H 0.2539 0.8534 0.7753
C14_15 C 0.3165(3) 0.8265(4) 0.6197(4)
H13_15 H 0.3164 0.8235 0.5599
C15_15 C 0.2520(3) 0.8925(5) 0.5474(4)
C16_15 C 0.3090(3) 0.9312(5) 0.5060(5)
H14_15 H 0.3150 0.9106 0.4598
H15_11 H 0.3398 0.9431 0.5477
H16_15 H 0.3091 0.9654 0.4836
Cu3_9 Cu 0.19177(4) 0.94239(6) 0.45102(5)
Cu5_5 Cu 0.08230(3) 0.83452(5) 0.53650(5)
O2_8 O 0.1136(2) 0.8806(2) 0.4368(3)
N1_15 N 0.1990(2) 0.9858(2) 0.3505(3)
C1_12 C 0.1854(3) 0.9692(3) 0.2701(4)
C4_12 C 0.1687(4) 0.9093(3) 0.2423(5)
H1_12 H 0.1693 0.8871 0.2910
H2_12 H 0.1960 0.9112 0.1996
H3_12 H 0.1299 0.8907 0.2182
C7_12 C 0.1322(3) 0.9786(3) 0.0881(4)
H7_12 H 0.0991 0.9532 0.1198
C8_12 C 0.1300(3) 0.9793(3) 0.0006(4)
H19_15 H 0.2324 0.9810 0.6271
C18_15 C 0.0708(5) 0.8973(5) 0.4013(7)
H20_15 H 0.0870 0.9208 0.3505
H21_15 H 0.0634 0.9193 0.4438
H22_15 H 0.0347 0.8624 0.3870
O1_15 O 0.01296(18) 0.77480(27) 0.4885(3)
N2_15 N 0.0425(2) 0.8274(3) 0.6438(3)
C2_12 C 0.0149(3) 0.8239(4) 0.7783(4)
C3_12 C 0.0604(3) 0.8506(4) 0.7211(4)
C5_12 C 0.1201(3) 0.8997(4) 0.7378(5)
H4_12 H 0.1323 0.9270 0.6906
H5_12 H 0.1201 0.9192 0.7901
H6_12 H 0.1467 0.8849 0.7435
C6_12 C 0.0161(3) 0.8322(4) 0.8708(4)
C10_12 C 0.1931(3) 0.8864(4) 0.9859(4)
H10_12 H 0.1741 0.8829 0.9316
H11_12 H 0.2284 0.8848 0.9767
C13_12 C 0.0537(3) 0.8226(4) 0.9190(4)
H12_12 H 0.0794 0.8133 0.8914
C17_15 C 0.0158(5) 0.7566(7) 0.4041(6)
H17_15 H 0.0497 0.7870 0.3753
H18_15 H 0.0185 0.7215 0.4065
N3_9 N 0.1469(3) 0.3061(2) 0.5705(3)
N4_10 N 0.1073(4) 0.3120(3) 0.5241(3)
C1_13 C 0.1172(4) 0.4813(3) 0.9368(4)
C2_13 C 0.1572(4) 0.4756(3) 0.8884(4)
C3_13 C 0.1839(4) 0.4568(3) 0.9456(4)
C4_13 C 0.0740(5) 0.4980(4) 0.9090(5)
H1_13 H 0.0512 0.4974 0.9577
H2_13 H 0.0486 0.4707 0.8663
H3_13 H 0.0942 0.5368 0.8849
C5_13 C 0.2330(4) 0.4462(3) 0.9289(5)
H4_13 H 0.2603 0.4613 0.9761
H5_13 H 0.2525 0.4657 0.8766
H6_13 H 0.2182 0.4048 0.9232
C6_13 C 0.1655(4) 0.4827(3) 0.7959(4)
C7_13 C 0.1798(4) 0.5345(3) 0.7548(4)
H7_13 H 0.1875 0.5676 0.7865
C8_13 C 0.1827(4) 0.5367(3) 0.6673(4)
H8_12 H 0.1913 0.5715 0.6395
C9_16 C 0.1721(4) 0.3514(3) 0.6243(4)
C10_13 C 0.2197(4) 0.3599(3) 0.6808(4)
H9_16 H 0.2566 0.3870 0.6547
H10_13 H 0.2162 0.3754 0.7351
H11_13 H 0.2181 0.3230 0.6900
C11_16 C 0.1482(4) 0.3868(3) 0.6115(4)
C12_16 C 0.1598(4) 0.4381(3) 0.6598(4)
C13_13 C 0.1559(4) 0.4355(3) 0.7477(4)
H12_13 H 0.1466 0.4005 0.7753
C14_16 C 0.1735(4) 0.4900(3) 0.6197(4)
H13_16 H 0.1765 0.4929 0.5599
C15_16 C 0.1075(5) 0.3595(4) 0.5474(4)
C16_16 C 0.0688(5) 0.3778(4) 0.5060(5)
H14_16 H 0.0894 0.4044 0.4598
H15_12 H 0.0569 0.3967 0.5477
H16_16 H 0.0346 0.3437 0.4836
Cu3_10 Cu 0.05761(6) 0.24937(5) 0.45102(5)
Cu5_6 Cu 0.16548(5) 0.24779(4) 0.53650(5)
Cu2_8 Cu 0.24779(4) 0.08230(3) 0.46350(5)
O1_16 O 0.2382(2) 0.01296(18) 0.5115(3)
N2_16 N 0.2152(2) 0.0425(2) 0.3562(3)
C2_14 C 0.1911(3) 0.0149(3) 0.2217(4)
C3_14 C 0.2099(3) 0.0604(3) 0.2789(4)
C5_14 C 0.2205(3) 0.1201(3) 0.2622(5)
H4_14 H 0.2054 0.1323 0.3094
H5_14 H 0.2010 0.1201 0.2099
H6_14 H 0.2619 0.1467 0.2565
C6_14 C 0.1840(3) 0.0161(3) 0.1292(4)
C10_14 C 0.3068(3) 0.1931(3) 0.0141(4)
H10_14 H 0.2913 0.1741 0.0684
H11_14 H 0.3437 0.2284 0.0233
C13_14 C 0.2312(3) 0.0537(3) 0.0810(4)
H12_14 H 0.2662 0.0794 0.1086
C17_16 C 0.2593(5) 0.0158(5) 0.5959(6)
H17_16 H 0.2628 0.0497 0.6247
H18_16 H 0.2971 0.0185 0.5935
O3_8 O 0.2329(3) 0.1136(2) 0.5632(3)
N5_8 N 0.3061(2) 0.1592(2) 0.4295(3)
O2_9 O 0.1194(2) 0.2329(3) 0.4368(3)
N1_16 N 0.0142(2) 0.2131(3) 0.3505(3)
C1_14 C 0.0308(3) 0.2161(4) 0.2701(4)
C4_14 C 0.0907(3) 0.2593(5) 0.2423(5)
H1_14 H 0.1129 0.2821 0.2910
H2_14 H 0.0888 0.2847 0.1996
H3_14 H 0.1093 0.2391 0.2182
C7_14 C 0.0214(3) 0.1535(4) 0.0881(4)
H7_14 H 0.0468 0.1458 0.1198
C8_14 C 0.0207(3) 0.1506(4) 0.0006(4)
H19_16 H 0.0190 0.2513 0.6271
C18_16 C 0.1027(5) 0.1734(7) 0.4013(7)
H20_16 H 0.0792 0.1661 0.3505
H21_16 H 0.0807 0.1440 0.4438
H22_16 H 0.1376 0.1722 0.3870
N4_11 N 0.3120(3) 0.2047(2) 0.4759(3)
C1_15 C 0.4813(3) 0.3641(3) 0.0632(4)
C2_15 C 0.4756(3) 0.3184(3) 0.1116(4)
C3_15 C 0.4568(3) 0.2729(3) 0.0544(4)
C4_15 C 0.4980(4) 0.4240(3) 0.0910(5)
H1_15 H 0.4974 0.4462 0.0423
H2_15 H 0.4707 0.4221 0.1337
H3_15 H 0.5368 0.4426 0.1151
C5_15 C 0.4462(3) 0.2132(3) 0.0711(5)
H4_15 H 0.4613 0.2010 0.0239
H5_15 H 0.4657 0.2132 0.1234
H6_15 H 0.4048 0.1866 0.0768
C6_15 C 0.4827(3) 0.3172(3) 0.2041(4)
C7_15 C 0.5345(3) 0.3547(3) 0.2452(4)
H7_15 H 0.5676 0.3801 0.2135
C8_15 C 0.5367(3) 0.3540(3) 0.3327(4)
H8_13 H 0.5715 0.3802 0.3605
C9_17 C 0.3514(3) 0.1793(3) 0.3757(4)
C10_15 C 0.3599(3) 0.1402(3) 0.3192(4)
H9_17 H 0.3870 0.1304 0.3453
H10_15 H 0.3754 0.1592 0.2649
H11_15 H 0.3230 0.1049 0.3100
C11_17 C 0.3868(3) 0.2386(3) 0.3885(4)
C12_17 C 0.4381(3) 0.2783(3) 0.3402(4)
C13_15 C 0.4355(3) 0.2796(3) 0.2523(4)
H12_15 H 0.4005 0.2539 0.2247
C14_17 C 0.4900(3) 0.3165(3) 0.3803(4)
H13_17 H 0.4929 0.3164 0.4401
C15_17 C 0.3595(4) 0.2520(3) 0.4526(4)
C16_17 C 0.3778(4) 0.3090(3) 0.4940(5)
H14_17 H 0.4044 0.3150 0.5402
H15_13 H 0.3967 0.3398 0.4523
H16_17 H 0.3437 0.3091 0.5164
Cu3_11 Cu 0.24937(5) 0.19177(4) 0.54898(5)
O1_17 O 0.22520(27) 0.2382(2) 0.4885(3)
N1_17 N 0.2131(3) 0.1990(2) 0.6495(3)
N2_17 N 0.1726(3) 0.2152(2) 0.6438(3)
C1_16 C 0.2161(4) 0.1854(3) 0.7299(4)
C2_16 C 0.1761(4) 0.1911(3) 0.7783(4)
C3_16 C 0.1494(4) 0.2099(3) 0.7211(4)
C4_16 C 0.2593(5) 0.1687(4) 0.7577(5)
H1_16 H 0.2821 0.1693 0.7090
H2_16 H 0.2847 0.1960 0.8004
H3_16 H 0.2391 0.1299 0.7818
C5_16 C 0.1003(4) 0.2205(3) 0.7378(5)
H4_16 H 0.0730 0.2054 0.6906
H5_16 H 0.0808 0.2010 0.7901
H6_16 H 0.1151 0.2619 0.7435
C6_16 C 0.1678(4) 0.1840(3) 0.8708(4)
C7_16 C 0.1535(4) 0.1322(3) 0.9119(4)
H7_16 H 0.1458 0.0991 0.8802
C8_16 C 0.1506(4) 0.1300(3) 0.9994(4)
C10_16 C 0.1136(4) 0.3068(3) 0.9859(4)
H10_16 H 0.1171 0.2913 0.9316
H11_16 H 0.1152 0.3437 0.9767
C13_16 C 0.1774(4) 0.2312(3) 0.9190(4)
H12_16 H 0.1867 0.2662 0.8914
C17_17 C 0.2434(7) 0.2593(5) 0.4041(6)
H17_17 H 0.2130 0.2628 0.3753
H18_17 H 0.2785 0.2971 0.4065
H19_17 H 0.2513 0.2324 0.3729
C18_17 C 0.1734(7) 0.0708(5) 0.5987(7)
H20_17 H 0.1661 0.0870 0.6495
H21_17 H 0.1440 0.0634 0.5562
H22_17 H 0.1722 0.0347 0.6130
H8_14 H 0.0952 0.9531 0.9728
H15_14 H 0.2700 0.9935 0.8810
H8_15 H 0.0469 0.1420 0.9728
H15_15 H 0.0065 0.2764 0.8810
Cu2_9 Cu 0.91770(3) 0.16548(5) 0.46350(5)
O1_18 O 0.98704(18) 0.22520(27) 0.5115(3)
N2_18 N 0.9575(2) 0.1726(3) 0.3562(3)
C2_17 C 0.9851(3) 0.1761(4) 0.2217(4)
C3_17 C 0.9396(3) 0.1494(4) 0.2789(4)
C5_17 C 0.8799(3) 0.1003(4) 0.2622(5)
H4_17 H 0.8677 0.0730 0.3094
H5_17 H 0.8799 0.0808 0.2099
H6_17 H 0.8533 0.1151 0.2565
C6_17 C 0.9839(3) 0.1678(4) 0.1292(4)
C10_17 C 0.8069(3) 0.1136(4) 0.0141(4)
H10_17 H 0.8259 0.1171 0.0684
H11_17 H 0.7716 0.1152 0.0233
C13_17 C 0.9463(3) 0.1774(4) 0.0810(4)
H12_17 H 0.9206 0.1867 0.1086
C17_18 C 0.9842(5) 0.2434(7) 0.5959(6)
H17_18 H 0.9503 0.2130 0.6247
H18_18 H 0.9815 0.2785 0.5935
O3_9 O 0.8864(2) 0.1194(4) 0.5632(3)
N5_9 N 0.8408(2) 0.1469(3) 0.4295(3)
N4_12 N 0.7953(2) 0.1073(4) 0.4759(3)
C1_17 C 0.6359(3) 0.1172(4) 0.0632(4)
C2_18 C 0.6816(3) 0.1572(4) 0.1116(4)
C3_18 C 0.7271(3) 0.1839(4) 0.0544(4)
C4_17 C 0.5760(3) 0.0740(5) 0.0910(5)
H1_17 H 0.5538 0.0512 0.0423
H2_17 H 0.5779 0.0486 0.1337
H3_17 H 0.5574 0.0942 0.1151
C5_18 C 0.7868(3) 0.2330(4) 0.0711(5)
H4_18 H 0.7990 0.2603 0.0239
H5_18 H 0.7868 0.2525 0.1234
H6_18 H 0.8134 0.2182 0.0768
C6_18 C 0.6828(3) 0.1655(4) 0.2041(4)
C7_17 C 0.6453(3) 0.1798(4) 0.2452(4)
H7_17 H 0.6199 0.1875 0.2135
C8_17 C 0.6460(3) 0.1827(4) 0.3327(4)
H8_16 H 0.6198 0.1913 0.3605
C9_18 C 0.8207(3) 0.1721(4) 0.3757(4)
C10_18 C 0.8598(3) 0.2197(4) 0.3192(4)
H9_18 H 0.8696 0.2566 0.3453
H10_18 H 0.8408 0.2162 0.2649
H11_18 H 0.8951 0.2181 0.3100
C11_18 C 0.7614(3) 0.1482(4) 0.3885(4)
C12_18 C 0.7217(3) 0.1598(4) 0.3402(4)
C13_18 C 0.7204(3) 0.1559(4) 0.2523(4)
H12_18 H 0.7461 0.1466 0.2247
C14_18 C 0.6835(3) 0.1735(4) 0.3803(4)
H13_18 H 0.6836 0.1765 0.4401
C15_18 C 0.7480(3) 0.1075(5) 0.4526(4)
C16_18 C 0.6910(3) 0.0688(5) 0.4940(5)
H14_18 H 0.6850 0.0894 0.5402
H15_16 H 0.6602 0.0569 0.4523
H16_18 H 0.6909 0.0346 0.5164
Cu3_12 Cu 0.80823(4) 0.05761(6) 0.54898(5)
N1_18 N 0.8010(2) 0.0142(2) 0.6495(3)
C1_18 C 0.8146(3) 0.0308(3) 0.7299(4)
C4_18 C 0.8313(4) 0.0907(3) 0.7577(5)
H1_18 H 0.8307 0.1129 0.7090
H2_18 H 0.8040 0.0888 0.8004
H3_18 H 0.8701 0.1093 0.7818
C7_18 C 0.8678(3) 0.0214(3) 0.9119(4)
H7_18 H 0.9009 0.0468 0.8802
C8_18 C 0.8700(3) 0.0207(3) 0.9994(4)
H19_18 H 0.7676 0.0190 0.3729
C18_18 C 0.9292(5) 0.1027(5) 0.5987(7)
H20_18 H 0.9130 0.0792 0.6495
H21_18 H 0.9366 0.0807 0.5562
H22_18 H 0.9653 0.1376 0.6130
H8_17 H 0.9048 0.0469 0.0272
H15_17 H 0.7300 0.0065 0.1190
H8_18 H 0.9531 0.8580 0.0272
H15_18 H 0.9935 0.7236 0.1190
loop_
_geom_bond_atom_site_label_1
_geom_bond_atom_site_label_2
_geom_bond_site_symmetry_1
_geom_bond_site_symmetry_2
Cu1 O1 1_555 1_555
Cu2 O1 1_555 1_555
O1 C17 1_555 1_555
O2 Cu1 1_555 1_555
N1 Cu1 1_555 1_555
N2 Cu2 1_555 1_555
C17 H17 1_555 1_555
H18 C17 1_555 1_555
H19 C17 1_555 1_555
C18 O2 1_555 1_555
H20 C18 1_555 1_555
H21 C18 1_555 1_555
H22 C18 1_555 1_555
Cu4 O2 1_555 1_555
O3 Cu2 1_555 1_555
N5 Cu2 1_555 1_555
N6 Cu1 1_555 1_555
N1 N2 1_555 1_555
Cu1_2 O1_2 1_555 1_555
Cu2_2 O1_2 1_555 1_555
O1_2 C17_2 1_555 1_555
O2_2 Cu1_2 1_555 1_555
N1_2 Cu1_2 1_555 1_555
N2_2 Cu2_2 1_555 1_555
C17_2 H17_2 1_555 1_555
H18_2 C17_2 1_555 1_555
H19_2 C17_2 1_555 1_555
C18_2 O2_2 1_555 1_555
H20_2 C18_2 1_555 1_555
H21_2 C18_2 1_555 1_555
H22_2 C18_2 1_555 1_555
Cu4_2 O2_2 1_555 1_555
O3_2 Cu2_2 1_555 1_555
N5_2 Cu2_2 1_555 1_555
N6_2 Cu1_2 1_555 1_555
N1_2 N2_2 1_555 1_555
Cu1_3 O1_3 1_555 1_555
Cu2_3 O1_3 1_555 1_555
O1_3 C17_3 1_555 1_555
O2_3 Cu1_3 1_555 1_555
N1_3 Cu1_3 1_555 1_555
N2_3 Cu2_3 1_555 1_555
C17_3 H17_3 1_555 1_555
H18_3 C17_3 1_555 1_555
H19_3 C17_3 1_555 1_555
C18_3 O2_3 1_555 1_555
H20_3 C18_3 1_555 1_555
H21_3 C18_3 1_555 1_555
H22_3 C18_3 1_555 1_555
Cu4_3 O2_3 1_555 1_555
O3_3 Cu2_3 1_555 1_555
N5_3 Cu2_3 1_555 1_555
N6_3 Cu1_3 1_555 1_555
N1_3 N2_3 1_555 1_555
N3 N4 1_555 1_555
N4 C15 1_555 1_555
C9 N3 1_555 1_555
C11 C9 1_555 1_555
C12 C11 1_555 1_555
H13 C14 1_555 1_555
C15 C11 1_555 1_555
C16 C15 1_555 1_555
H14 C16 1_555 1_555
H16 C16 1_555 1_555
Cu3 N4 1_555 1_555
Cu5 N3 1_555 1_555
C12 C14 1_555 1_555
N3_2 N4_2 1_555 1_555
N4_2 C15_2 1_555 1_555
C9_2 N3_2 1_555 1_555
C11_2 C9_2 1_555 1_555
C12_2 C11_2 1_555 1_555
H13_2 C14_2 1_555 1_555
C15_2 C11_2 1_555 1_555
C16_2 C15_2 1_555 1_555
H14_2 C16_2 1_555 1_555
H16_2 C16_2 1_555 1_555
Cu3_2 N4_2 1_555 1_555
Cu5_2 N3_2 1_555 1_555
C12_2 C14_2 1_555 1_555
N3_3 N4_3 1_555 1_555
N4_3 C15_3 1_555 1_555
C9_3 N3_3 1_555 1_555
C11_3 C9_3 1_555 1_555
C12_3 C11_3 1_555 1_555
H13_3 C14_3 1_555 1_555
C15_3 C11_3 1_555 1_555
C16_3 C15_3 1_555 1_555
H14_3 C16_3 1_555 1_555
H15 C16_3 1_555 1_555
H16_3 C16_3 1_555 1_555
Cu3_3 N4_3 1_555 1_555
Cu5_3 N3_3 1_555 1_555
C12_3 C14_3 1_555 1_555
N3_4 N6_3 1_555 1_555
Cu4_3 N3_4 1_555 1_555
Cu3_2 O1_4 1_555 1_555
Cu2_4 O1_4 1_555 1_555
O1_4 C17_4 1_555 1_555
O2_4 Cu3_2 1_555 1_555
N1_4 Cu3_2 1_555 1_555
N2_4 Cu2_4 1_555 1_555
C1 N1_4 1_555 1_555
C2 C1 1_555 1_555
C3 N2_4 1_555 1_555
C4 C1 1_555 1_555
H1 C4 1_555 1_555
H2 C4 1_555 1_555
H3 C4 1_555 1_555
C5 C3 1_555 1_555
H4 C5 1_555 1_555
H5 C5 1_555 1_555
H6 C5 1_555 1_555
C6 C2 1_555 1_555
C7 C6 1_555 1_555
H7 C7 1_555 1_555
C8 C7 1_555 1_555
H8_2 C8 1_555 1_555
C10 C9_4 1_555 1_555
H9_4 C10 1_555 1_555
H10 C10 1_555 1_555
C11_4 C9_4 1_555 1_555
C12_4 C11_4 1_555 1_555
C13 C6 1_555 1_555
H12 C13 1_555 1_555
C14_4 C8 1_555 1_555
H13_4 C14_4 1_555 1_555
C15_4 C11_4 1_555 1_555
C16_4 C15_4 1_555 1_555
H14_4 C16_4 1_555 1_555
H15_2 C16_4 1_555 1_555
H16_4 C16_4 1_555 1_555
C17_4 H17_4 1_555 1_555
H18_4 C17_4 1_555 1_555
H19_4 C17_4 1_555 1_555
C18_4 O2_4 1_555 1_555
H20_4 C18_4 1_555 1_555
H21_4 C18_4 1_555 1_555
H22_4 C18_4 1_555 1_555
Cu5_2 O2_4 1_555 1_555
O3_4 Cu2_4 1_555 1_555
N5_4 Cu2_4 1_555 1_555
N1_4 N2_4 1_555 1_555
C2 C3 1_555 1_555
C12_4 C13 1_555 1_555
C12_4 C14_4 1_555 1_555
Cu3_3 O1_5 1_555 1_555
Cu2_5 O1_5 1_555 1_555
O1_5 C17_5 1_555 1_555
O2_5 Cu3_3 1_555 1_555
N1_5 Cu3_3 1_555 1_555
N2_5 Cu2_5 1_555 1_555
N3_5 N6 1_555 1_555
N6 C15_5 1_555 1_555
C1_2 N1_5 1_555 1_555
C2_2 C1_2 1_555 1_555
C3_2 N2_5 1_555 1_555
C4_2 C1_2 1_555 1_555
H1_2 C4_2 1_555 1_555
H2_2 C4_2 1_555 1_555
H3_2 C4_2 1_555 1_555
C5_2 C3_2 1_555 1_555
H4_2 C5_2 1_555 1_555
H5_2 C5_2 1_555 1_555
H6_2 C5_2 1_555 1_555
C6_2 C2_2 1_555 1_555
C7_2 C6_2 1_555 1_555
H7_2 C7_2 1_555 1_555
C8_2 C7_2 1_555 1_555
H8_3 C8_2 1_555 1_555
C9_5 N3_5 1_555 1_555
C10_2 C9_5 1_555 1_555
H9_5 C10_2 1_555 1_555
H10_2 C10_2 1_555 1_555
H11_2 C10_2 1_555 1_555
C11_5 C9_5 1_555 1_555
C12_5 C11_5 1_555 1_555
C13_2 C6_2 1_555 1_555
H12_2 C13_2 1_555 1_555
C14_5 C8_2 1_555 1_555
H13_5 C14_5 1_555 1_555
C15_5 C11_5 1_555 1_555
C16_5 C15_5 1_555 1_555
H14_5 C16_5 1_555 1_555
H15_3 C16_5 1_555 1_555
H16_5 C16_5 1_555 1_555
C17_5 H17_5 1_555 1_555
H18_5 C17_5 1_555 1_555
H19_5 C17_5 1_555 1_555
C18_5 O2_5 1_555 1_555
H20_5 C18_5 1_555 1_555
H21_5 C18_5 1_555 1_555
H22_5 C18_5 1_555 1_555
Cu5_3 O2_5 1_555 1_555
Cu4 N3_5 1_555 1_555
O3_5 Cu2_5 1_555 1_555
N5_5 Cu2_5 1_555 1_555
N1_5 N2_5 1_555 1_555
C2_2 C3_2 1_555 1_555
C12_5 C13_2 1_555 1_555
C12_5 C14_5 1_555 1_555
Cu3 O1_6 1_555 1_555
Cu2_6 O1_6 1_555 1_555
O1_6 C17_6 1_555 1_555
O2_6 Cu3 1_555 1_555
N1_6 Cu3 1_555 1_555
N2_6 Cu2_6 1_555 1_555
C1_3 N1_6 1_555 1_555
C2_3 C1_3 1_555 1_555
C3_3 N2_6 1_555 1_555
C4_3 C1_3 1_555 1_555
H1_3 C4_3 1_555 1_555
H2_3 C4_3 1_555 1_555
H3_3 C4_3 1_555 1_555
C5_3 C3_3 1_555 1_555
H4_3 C5_3 1_555 1_555
H5_3 C5_3 1_555 1_555
H6_3 C5_3 1_555 1_555
C6_3 C2_3 1_555 1_555
C7_3 C6_3 1_555 1_555
H7_3 C7_3 1_555 1_555
C8_3 C7_3 1_555 1_555
H8_4 C8_3 1_555 1_555
C10_3 C9_6 1_555 1_555
H9_6 C10_3 1_555 1_555
H10_3 C10_3 1_555 1_555
C11_6 C9_6 1_555 1_555
C12_6 C11_6 1_555 1_555
C13_3 C6_3 1_555 1_555
H12_3 C13_3 1_555 1_555
C14_6 C8_3 1_555 1_555
H13_6 C14_6 1_555 1_555
C15_6 C11_6 1_555 1_555
C16_6 C15_6 1_555 1_555
H14_6 C16_6 1_555 1_555
H15_4 C16_6 1_555 1_555
H16_6 C16_6 1_555 1_555
C17_6 H17_6 1_555 1_555
H18_6 C17_6 1_555 1_555
H19_6 C17_6 1_555 1_555
C18_6 O2_6 1_555 1_555
H20_6 C18_6 1_555 1_555
H21_6 C18_6 1_555 1_555
H22_6 C18_6 1_555 1_555
Cu5 O2_6 1_555 1_555
O3_6 Cu2_6 1_555 1_555
N5_6 Cu2_6 1_555 1_555
N1_6 N2_6 1_555 1_555
C2_3 C3_3 1_555 1_555
C12_6 C13_3 1_555 1_555
C12_6 C14_6 1_555 1_555
N3_6 N6_2 1_555 1_555
Cu4_2 N3_6 1_555 1_555
Cu1_4 O1_7 1_555 1_555
Cu5 O1_7 1_555 1_555
O1_7 C17_7 1_555 1_555
O3_5 Cu1_4 1_555 1_555
N1_7 Cu1_4 1_555 1_555
N2_7 Cu5 1_555 1_555
C17_7 H17_7 1_555 1_555
H18_7 C17_7 1_555 1_555
H19_7 C17_7 1_555 1_555
C18_7 O3_5 1_555 1_555
H20_7 C18_7 1_555 1_555
H21_7 C18_7 1_555 1_555
H22_7 C18_7 1_555 1_555
N6_4 Cu1_4 1_555 1_555
N1_7 N2_7 1_555 1_555
Cu1_5 O1_8 1_555 1_555
Cu5_2 O1_8 1_555 1_555
O1_8 C17_8 1_555 1_555
O3_6 Cu1_5 1_555 1_555
N1_8 Cu1_5 1_555 1_555
N2_8 Cu5_2 1_555 1_555
C17_8 H17_8 1_555 1_555
H18_8 C17_8 1_555 1_555
H19_8 C17_8 1_555 1_555
C18_8 O3_6 1_555 1_555
H20_8 C18_8 1_555 1_555
H21_8 C18_8 1_555 1_555
H22_8 C18_8 1_555 1_555
N6_5 Cu1_5 1_555 1_555
N1_8 N2_8 1_555 1_555
Cu1_6 O1_9 1_555 1_555
Cu5_3 O1_9 1_555 1_555
O1_9 C17_9 1_555 1_555
O3_4 Cu1_6 1_555 1_555
N1_9 Cu1_6 1_555 1_555
N2_9 Cu5_3 1_555 1_555
C17_9 H17_9 1_555 1_555
H18_9 C17_9 1_555 1_555
H19_9 C17_9 1_555 1_555
C18_9 O3_4 1_555 1_555
H20_9 C18_9 1_555 1_555
H21_9 C18_9 1_555 1_555
H22_9 C18_9 1_555 1_555
N6_6 Cu1_6 1_555 1_555
N1_9 N2_9 1_555 1_555
N5 N4_4 1_555 1_555
N4_4 C15_7 1_555 1_555
C9_7 N5 1_555 1_555
C11_7 C9_7 1_555 1_555
C12_7 C11_7 1_555 1_555
H13_7 C14_7 1_555 1_555
C15_7 C11_7 1_555 1_555
C16_7 C15_7 1_555 1_555
H14_7 C16_7 1_555 1_555
H16_7 C16_7 1_555 1_555
Cu3_4 N4_4 1_555 1_555
C12_7 C14_7 1_555 1_555
N5_2 N4_5 1_555 1_555
N4_5 C15_8 1_555 1_555
C9_8 N5_2 1_555 1_555
C11_8 C9_8 1_555 1_555
C12_8 C11_8 1_555 1_555
H13_8 C14_8 1_555 1_555
C15_8 C11_8 1_555 1_555
C16_8 C15_8 1_555 1_555
H14_8 C16_8 1_555 1_555
H16_8 C16_8 1_555 1_555
Cu3_5 N4_5 1_555 1_555
C12_8 C14_8 1_555 1_555
N5_3 N4_6 1_555 1_555
N4_6 C15_9 1_555 1_555
C9_9 N5_3 1_555 1_555
C11_9 C9_9 1_555 1_555
C12_9 C11_9 1_555 1_555
H13_9 C14_9 1_555 1_555
C15_9 C11_9 1_555 1_555
C16_9 C15_9 1_555 1_555
H14_9 C16_9 1_555 1_555
H15_5 C16_9 1_555 1_555
H16_9 C16_9 1_555 1_555
Cu3_6 N4_6 1_555 1_555
C12_9 C14_9 1_555 1_555
Cu3_5 O1_10 1_555 1_555
Cu4_3 O1_10 1_555 1_555
O1_10 C17_10 1_555 1_555
O3_2 Cu3_5 1_555 1_555
N1_10 Cu3_5 1_555 1_555
N2_10 Cu4_3 1_555 1_555
C1_4 N1_10 1_555 1_555
C2_4 C1_4 1_555 1_555
C3_4 N2_10 1_555 1_555
C4_4 C1_4 1_555 1_555
H1_4 C4_4 1_555 1_555
H2_4 C4_4 1_555 1_555
H3_4 C4_4 1_555 1_555
C5_4 C3_4 1_555 1_555
H4_4 C5_4 1_555 1_555
H5_4 C5_4 1_555 1_555
H6_4 C5_4 1_555 1_555
C6_4 C2_4 1_555 1_555
C7_4 C6_4 1_555 1_555
H7_4 C7_4 1_555 1_555
C8_4 C7_4 1_555 1_555
H8_6 C8_4 1_555 1_555
C10_4 C9_10 1_555 1_555
H9_10 C10_4 1_555 1_555
H10_4 C10_4 1_555 1_555
C11_10 C9_10 1_555 1_555
C12_10 C11_10 1_555 1_555
C13_4 C6_4 1_555 1_555
H12_4 C13_4 1_555 1_555
C14_10 C8_4 1_555 1_555
H13_10 C14_10 1_555 1_555
C15_10 C11_10 1_555 1_555
C16_10 C15_10 1_555 1_555
H14_10 C16_10 1_555 1_555
H15_6 C16_10 1_555 1_555
H16_10 C16_10 1_555 1_555
C17_10 H17_10 1_555 1_555
H18_10 C17_10 1_555 1_555
H19_10 C17_10 1_555 1_555
C18_10 O3_2 1_555 1_555
H20_10 C18_10 1_555 1_555
H21_10 C18_10 1_555 1_555
H22_10 C18_10 1_555 1_555
N1_10 N2_10 1_555 1_555
C2_4 C3_4 1_555 1_555
C12_10 C13_4 1_555 1_555
C12_10 C14_10 1_555 1_555
N5_4 N6_6 1_555 1_555
Cu3_6 O1_11 1_555 1_555
Cu4 O1_11 1_555 1_555
O1_11 C17_11 1_555 1_555
O3_3 Cu3_6 1_555 1_555
N1_11 Cu3_6 1_555 1_555
N2_11 Cu4 1_555 1_555
N5_5 N6_4 1_555 1_555
N6_4 C15_11 1_555 1_555
C1_5 N1_11 1_555 1_555
C2_5 C1_5 1_555 1_555
C3_5 N2_11 1_555 1_555
C4_5 C1_5 1_555 1_555
H1_5 C4_5 1_555 1_555
H2_5 C4_5 1_555 1_555
H3_5 C4_5 1_555 1_555
C5_5 C3_5 1_555 1_555
H4_5 C5_5 1_555 1_555
H5_5 C5_5 1_555 1_555
H6_5 C5_5 1_555 1_555
C6_5 C2_5 1_555 1_555
C7_5 C6_5 1_555 1_555
H7_5 C7_5 1_555 1_555
C8_5 C7_5 1_555 1_555
H8_7 C8_5 1_555 1_555
C9_11 N5_5 1_555 1_555
C10_5 C9_11 1_555 1_555
H9_11 C10_5 1_555 1_555
H10_5 C10_5 1_555 1_555
H11_5 C10_5 1_555 1_555
C11_11 C9_11 1_555 1_555
C12_11 C11_11 1_555 1_555
C13_5 C6_5 1_555 1_555
H12_5 C13_5 1_555 1_555
C14_11 C8_5 1_555 1_555
H13_11 C14_11 1_555 1_555
C15_11 C11_11 1_555 1_555
C16_11 C15_11 1_555 1_555
H14_11 C16_11 1_555 1_555
H15_7 C16_11 1_555 1_555
H16_11 C16_11 1_555 1_555
C17_11 H17_11 1_555 1_555
H18_11 C17_11 1_555 1_555
H19_11 C17_11 1_555 1_555
C18_11 O3_3 1_555 1_555
H20_11 C18_11 1_555 1_555
H21_11 C18_11 1_555 1_555
H22_11 C18_11 1_555 1_555
N1_11 N2_11 1_555 1_555
C2_5 C3_5 1_555 1_555
C12_11 C13_5 1_555 1_555
C12_11 C14_11 1_555 1_555
N5_6 N6_5 1_555 1_555
Cu3_4 O1_12 1_555 1_555
Cu4_2 O1_12 1_555 1_555
O1_12 C17_12 1_555 1_555
O3 Cu3_4 1_555 1_555
N1_12 Cu3_4 1_555 1_555
N2_12 Cu4_2 1_555 1_555
C1_6 N1_12 1_555 1_555
C2_6 C1_6 1_555 1_555
C3_6 N2_12 1_555 1_555
C4_6 C1_6 1_555 1_555
H1_6 C4_6 1_555 1_555
H2_6 C4_6 1_555 1_555
H3_6 C4_6 1_555 1_555
C5_6 C3_6 1_555 1_555
H4_6 C5_6 1_555 1_555
H5_6 C5_6 1_555 1_555
H6_6 C5_6 1_555 1_555
C6_6 C2_6 1_555 1_555
C7_6 C6_6 1_555 1_555
H7_6 C7_6 1_555 1_555
C8_6 C7_6 1_555 1_555
H8_8 C8_6 1_555 1_555
C10_6 C9_12 1_555 1_555
H9_12 C10_6 1_555 1_555
H10_6 C10_6 1_555 1_555
C11_12 C9_12 1_555 1_555
C12_12 C11_12 1_555 1_555
C13_6 C6_6 1_555 1_555
H12_6 C13_6 1_555 1_555
C14_12 C8_6 1_555 1_555
H13_12 C14_12 1_555 1_555
C15_12 C11_12 1_555 1_555
C16_12 C15_12 1_555 1_555
H14_12 C16_12 1_555 1_555
H15_8 C16_12 1_555 1_555
H16_12 C16_12 1_555 1_555
C17_12 H17_12 1_555 1_555
H18_12 C17_12 1_555 1_555
H19_12 C17_12 1_555 1_555
C18_12 O3 1_555 1_555
H20_12 C18_12 1_555 1_555
H21_12 C18_12 1_555 1_555
H22_12 C18_12 1_555 1_555
N1_12 N2_12 1_555 1_555
C2_6 C3_6 1_555 1_555
C12_12 C13_6 1_555 1_555
C12_12 C14_12 1_555 1_555
N3_7 N4_7 1_555 1_555
N4_7 C15_13 1_555 1_555
C2_7 C1_7 1_555 1_555
C4_7 C1_7 1_555 1_555
H1_7 C4_7 1_555 1_555
H2_7 C4_7 1_555 1_555
H3_7 C4_7 1_555 1_555
C5_7 C3_7 1_555 1_555
H4_7 C5_7 1_555 1_555
H5_7 C5_7 1_555 1_555
H6_7 C5_7 1_555 1_555
C6_7 C2_7 1_555 1_555
C7_7 C6_7 1_555 1_555
H7_7 C7_7 1_555 1_555
C8_7 C7_7 1_555 1_555
H8_9 C8_7 1_555 1_555
C9_13 N3_7 1_555 1_555
C10_7 C9_13 1_555 1_555
H9_13 C10_7 1_555 1_555
H10_7 C10_7 1_555 1_555
H11_7 C10_7 1_555 1_555
C11_13 C9_13 1_555 1_555
C12_13 C11_13 1_555 1_555
C13_7 C6_7 1_555 1_555
H12_7 C13_7 1_555 1_555
C14_13 C8_7 1_555 1_555
H13_13 C14_13 1_555 1_555
C15_13 C11_13 1_555 1_555
C16_13 C15_13 1_555 1_555
H14_13 C16_13 1_555 1_555
H15_9 C16_13 1_555 1_555
H16_13 C16_13 1_555 1_555
Cu3_7 N4_7 1_555 1_555
Cu5_4 N3_7 1_555 1_555
C2_7 C3_7 1_555 1_555
C12_13 C13_7 1_555 1_555
C12_13 C14_13 1_555 1_555
Cu3_7 O1_13 1_555 1_555
Cu2_7 O1_13 1_555 1_555
O1_13 C17_13 1_555 1_555
O2_7 Cu3_7 1_555 1_555
N1_13 Cu3_7 1_555 1_555
N2_13 Cu2_7 1_555 1_555
C1_8 N1_13 1_555 1_555
C2_8 C1_8 1_555 1_555
C3_8 N2_13 1_555 1_555
C4_8 C1_8 1_555 1_555
H1_8 C4_8 1_555 1_555
H2_8 C4_8 1_555 1_555
H3_8 C4_8 1_555 1_555
C5_8 C3_8 1_555 1_555
H4_8 C5_8 1_555 1_555
H5_8 C5_8 1_555 1_555
H6_8 C5_8 1_555 1_555
C6_8 C2_8 1_555 1_555
C7_8 C6_8 1_555 1_555
H7_8 C7_8 1_555 1_555
C8_8 C7_8 1_555 1_555
H10_8 C10_8 1_555 1_555
H11_8 C10_8 1_555 1_555
C13_8 C6_8 1_555 1_555
H12_8 C13_8 1_555 1_555
C17_13 H17_13 1_555 1_555
H18_13 C17_13 1_555 1_555
H19_13 C17_13 1_555 1_555
C18_13 O2_7 1_555 1_555
H20_13 C18_13 1_555 1_555
H21_13 C18_13 1_555 1_555
H22_13 C18_13 1_555 1_555
Cu5_4 O2_7 1_555 1_555
O3_7 Cu2_7 1_555 1_555
N5_7 Cu2_7 1_555 1_555
N1_13 N2_13 1_555 1_555
C2_8 C3_8 1_555 1_555
N5_7 N4_8 1_555 1_555
N4_8 C15_14 1_555 1_555
C2_9 C1_9 1_555 1_555
C4_9 C1_9 1_555 1_555
H1_9 C4_9 1_555 1_555
H2_9 C4_9 1_555 1_555
H3_9 C4_9 1_555 1_555
C5_9 C3_9 1_555 1_555
H4_9 C5_9 1_555 1_555
H5_9 C5_9 1_555 1_555
H6_9 C5_9 1_555 1_555
C6_9 C2_9 1_555 1_555
C7_9 C6_9 1_555 1_555
H7_9 C7_9 1_555 1_555
C8_9 C7_9 1_555 1_555
H8_10 C8_9 1_555 1_555
C9_14 N5_7 1_555 1_555
C10_9 C9_14 1_555 1_555
H9_14 C10_9 1_555 1_555
H10_9 C10_9 1_555 1_555
H11_9 C10_9 1_555 1_555
C11_14 C9_14 1_555 1_555
C12_14 C11_14 1_555 1_555
C13_9 C6_9 1_555 1_555
H12_9 C13_9 1_555 1_555
C14_14 C8_9 1_555 1_555
H13_14 C14_14 1_555 1_555
C15_14 C11_14 1_555 1_555
C16_14 C15_14 1_555 1_555
H14_14 C16_14 1_555 1_555
H15_10 C16_14 1_555 1_555
H16_14 C16_14 1_555 1_555
Cu3_8 N4_8 1_555 1_555
C2_9 C3_9 1_555 1_555
C12_14 C13_9 1_555 1_555
C12_14 C14_14 1_555 1_555
Cu5_4 O1_14 1_555 1_555
O1_14 C17_14 1_555 1_555
N2_14 Cu5_4 1_555 1_555
C3_10 N2_14 1_555 1_555
C5_10 C3_10 1_555 1_555
H4_10 C5_10 1_555 1_555
H5_10 C5_10 1_555 1_555
H6_10 C5_10 1_555 1_555
C6_10 C2_10 1_555 1_555
H10_10 C10_10 1_555 1_555
H11_10 C10_10 1_555 1_555
C13_10 C6_10 1_555 1_555
H12_10 C13_10 1_555 1_555
C17_14 H17_14 1_555 1_555
H18_14 C17_14 1_555 1_555
C2_10 C3_10 1_555 1_555
O3_7 Cu3_8 1_555 1_555
N1_14 Cu3_8 1_555 1_555
C1_10 N1_14 1_555 1_555
C4_10 C1_10 1_555 1_555
H1_10 C4_10 1_555 1_555
H2_10 C4_10 1_555 1_555
H3_10 C4_10 1_555 1_555
H7_10 C7_10 1_555 1_555
C8_10 C7_10 1_555 1_555
C18_14 O3_7 1_555 1_555
H20_14 C18_14 1_555 1_555
H21_14 C18_14 1_555 1_555
H22_14 C18_14 1_555 1_555
N3_8 N4_9 1_555 1_555
N4_9 C15_15 1_555 1_555
C2_11 C1_11 1_555 1_555
C4_11 C1_11 1_555 1_555
H1_11 C4_11 1_555 1_555
H2_11 C4_11 1_555 1_555
H3_11 C4_11 1_555 1_555
C5_11 C3_11 1_555 1_555
H4_11 C5_11 1_555 1_555
H5_11 C5_11 1_555 1_555
H6_11 C5_11 1_555 1_555
C6_11 C2_11 1_555 1_555
C7_11 C6_11 1_555 1_555
H7_11 C7_11 1_555 1_555
C8_11 C7_11 1_555 1_555
H8_11 C8_11 1_555 1_555
C9_15 N3_8 1_555 1_555
C10_11 C9_15 1_555 1_555
H9_15 C10_11 1_555 1_555
H10_11 C10_11 1_555 1_555
H11_11 C10_11 1_555 1_555
C11_15 C9_15 1_555 1_555
C12_15 C11_15 1_555 1_555
C13_11 C6_11 1_555 1_555
H12_11 C13_11 1_555 1_555
C14_15 C8_11 1_555 1_555
H13_15 C14_15 1_555 1_555
C15_15 C11_15 1_555 1_555
C16_15 C15_15 1_555 1_555
H14_15 C16_15 1_555 1_555
H15_11 C16_15 1_555 1_555
H16_15 C16_15 1_555 1_555
Cu3_9 N4_9 1_555 1_555
Cu5_5 N3_8 1_555 1_555
C2_11 C3_11 1_555 1_555
C12_15 C13_11 1_555 1_555
C12_15 C14_15 1_555 1_555
O2_8 Cu3_9 1_555 1_555
N1_15 Cu3_9 1_555 1_555
C1_12 N1_15 1_555 1_555
C4_12 C1_12 1_555 1_555
H1_12 C4_12 1_555 1_555
H2_12 C4_12 1_555 1_555
H3_12 C4_12 1_555 1_555
H7_12 C7_12 1_555 1_555
C8_12 C7_12 1_555 1_555
C18_15 O2_8 1_555 1_555
H20_15 C18_15 1_555 1_555
H21_15 C18_15 1_555 1_555
H22_15 C18_15 1_555 1_555
Cu5_5 O2_8 1_555 1_555
Cu5_5 O1_15 1_555 1_555
O1_15 C17_15 1_555 1_555
N2_15 Cu5_5 1_555 1_555
C3_12 N2_15 1_555 1_555
C5_12 C3_12 1_555 1_555
H4_12 C5_12 1_555 1_555
H5_12 C5_12 1_555 1_555
H6_12 C5_12 1_555 1_555
C6_12 C2_12 1_555 1_555
H10_12 C10_12 1_555 1_555
H11_12 C10_12 1_555 1_555
C13_12 C6_12 1_555 1_555
H12_12 C13_12 1_555 1_555
C17_15 H17_15 1_555 1_555
H18_15 C17_15 1_555 1_555
C2_12 C3_12 1_555 1_555
N3_9 N4_10 1_555 1_555
N4_10 C15_16 1_555 1_555
C2_13 C1_13 1_555 1_555
C4_13 C1_13 1_555 1_555
H1_13 C4_13 1_555 1_555
H2_13 C4_13 1_555 1_555
H3_13 C4_13 1_555 1_555
C5_13 C3_13 1_555 1_555
H4_13 C5_13 1_555 1_555
H5_13 C5_13 1_555 1_555
H6_13 C5_13 1_555 1_555
C6_13 C2_13 1_555 1_555
C7_13 C6_13 1_555 1_555
H7_13 C7_13 1_555 1_555
C8_13 C7_13 1_555 1_555
H8_12 C8_13 1_555 1_555
C9_16 N3_9 1_555 1_555
C10_13 C9_16 1_555 1_555
H9_16 C10_13 1_555 1_555
H10_13 C10_13 1_555 1_555
H11_13 C10_13 1_555 1_555
C11_16 C9_16 1_555 1_555
C12_16 C11_16 1_555 1_555
C13_13 C6_13 1_555 1_555
H12_13 C13_13 1_555 1_555
C14_16 C8_13 1_555 1_555
H13_16 C14_16 1_555 1_555
C15_16 C11_16 1_555 1_555
C16_16 C15_16 1_555 1_555
H14_16 C16_16 1_555 1_555
H15_12 C16_16 1_555 1_555
H16_16 C16_16 1_555 1_555
Cu3_10 N4_10 1_555 1_555
Cu5_6 N3_9 1_555 1_555
C2_13 C3_13 1_555 1_555
C12_16 C13_13 1_555 1_555
C12_16 C14_16 1_555 1_555
Cu2_8 O1_16 1_555 1_555
O1_16 C17_16 1_555 1_555
N2_16 Cu2_8 1_555 1_555
C3_14 N2_16 1_555 1_555
C5_14 C3_14 1_555 1_555
H4_14 C5_14 1_555 1_555
H5_14 C5_14 1_555 1_555
H6_14 C5_14 1_555 1_555
C6_14 C2_14 1_555 1_555
H10_14 C10_14 1_555 1_555
H11_14 C10_14 1_555 1_555
C13_14 C6_14 1_555 1_555
H12_14 C13_14 1_555 1_555
C17_16 H17_16 1_555 1_555
H18_16 C17_16 1_555 1_555
O3_8 Cu2_8 1_555 1_555
N5_8 Cu2_8 1_555 1_555
C2_14 C3_14 1_555 1_555
O2_9 Cu3_10 1_555 1_555
N1_16 Cu3_10 1_555 1_555
C1_14 N1_16 1_555 1_555
C4_14 C1_14 1_555 1_555
H1_14 C4_14 1_555 1_555
H2_14 C4_14 1_555 1_555
H3_14 C4_14 1_555 1_555
H7_14 C7_14 1_555 1_555
C8_14 C7_14 1_555 1_555
C18_16 O2_9 1_555 1_555
H20_16 C18_16 1_555 1_555
H21_16 C18_16 1_555 1_555
H22_16 C18_16 1_555 1_555
Cu5_6 O2_9 1_555 1_555
N5_8 N4_11 1_555 1_555
N4_11 C15_17 1_555 1_555
C2_15 C1_15 1_555 1_555
C4_15 C1_15 1_555 1_555
H1_15 C4_15 1_555 1_555
H2_15 C4_15 1_555 1_555
H3_15 C4_15 1_555 1_555
C5_15 C3_15 1_555 1_555
H4_15 C5_15 1_555 1_555
H5_15 C5_15 1_555 1_555
H6_15 C5_15 1_555 1_555
C6_15 C2_15 1_555 1_555
C7_15 C6_15 1_555 1_555
H7_15 C7_15 1_555 1_555
C8_15 C7_15 1_555 1_555
H8_13 C8_15 1_555 1_555
C9_17 N5_8 1_555 1_555
C10_15 C9_17 1_555 1_555
H9_17 C10_15 1_555 1_555
H10_15 C10_15 1_555 1_555
H11_15 C10_15 1_555 1_555
C11_17 C9_17 1_555 1_555
C12_17 C11_17 1_555 1_555
C13_15 C6_15 1_555 1_555
H12_15 C13_15 1_555 1_555
C14_17 C8_15 1_555 1_555
H13_17 C14_17 1_555 1_555
C15_17 C11_17 1_555 1_555
C16_17 C15_17 1_555 1_555
H14_17 C16_17 1_555 1_555
H15_13 C16_17 1_555 1_555
H16_17 C16_17 1_555 1_555
Cu3_11 N4_11 1_555 1_555
C2_15 C3_15 1_555 1_555
C12_17 C13_15 1_555 1_555
C12_17 C14_17 1_555 1_555
Cu3_11 O1_17 1_555 1_555
Cu5_6 O1_17 1_555 1_555
O1_17 C17_17 1_555 1_555
O3_8 Cu3_11 1_555 1_555
N1_17 Cu3_11 1_555 1_555
N2_17 Cu5_6 1_555 1_555
C1_16 N1_17 1_555 1_555
C2_16 C1_16 1_555 1_555
C3_16 N2_17 1_555 1_555
C4_16 C1_16 1_555 1_555
H1_16 C4_16 1_555 1_555
H2_16 C4_16 1_555 1_555
H3_16 C4_16 1_555 1_555
C5_16 C3_16 1_555 1_555
H4_16 C5_16 1_555 1_555
H5_16 C5_16 1_555 1_555
H6_16 C5_16 1_555 1_555
C6_16 C2_16 1_555 1_555
C7_16 C6_16 1_555 1_555
H7_16 C7_16 1_555 1_555
C8_16 C7_16 1_555 1_555
H10_16 C10_16 1_555 1_555
H11_16 C10_16 1_555 1_555
C13_16 C6_16 1_555 1_555
H12_16 C13_16 1_555 1_555
C17_17 H17_17 1_555 1_555
H18_17 C17_17 1_555 1_555
H19_17 C17_17 1_555 1_555
C18_17 O3_8 1_555 1_555
H20_17 C18_17 1_555 1_555
H21_17 C18_17 1_555 1_555
H22_17 C18_17 1_555 1_555
N1_17 N2_17 1_555 1_555
C2_16 C3_16 1_555 1_555
Cu2_9 O1_18 1_555 1_555
O1_18 C17_18 1_555 1_555
N2_18 Cu2_9 1_555 1_555
C3_17 N2_18 1_555 1_555
C5_17 C3_17 1_555 1_555
H4_17 C5_17 1_555 1_555
H5_17 C5_17 1_555 1_555
H6_17 C5_17 1_555 1_555
C6_17 C2_17 1_555 1_555
H10_17 C10_17 1_555 1_555
H11_17 C10_17 1_555 1_555
C13_17 C6_17 1_555 1_555
H12_17 C13_17 1_555 1_555
C17_18 H17_18 1_555 1_555
H18_18 C17_18 1_555 1_555
O3_9 Cu2_9 1_555 1_555
N5_9 Cu2_9 1_555 1_555
C2_17 C3_17 1_555 1_555
N5_9 N4_12 1_555 1_555
N4_12 C15_18 1_555 1_555
C2_18 C1_17 1_555 1_555
C4_17 C1_17 1_555 1_555
H1_17 C4_17 1_555 1_555
H2_17 C4_17 1_555 1_555
H3_17 C4_17 1_555 1_555
C5_18 C3_18 1_555 1_555
H4_18 C5_18 1_555 1_555
H5_18 C5_18 1_555 1_555
H6_18 C5_18 1_555 1_555
C6_18 C2_18 1_555 1_555
C7_17 C6_18 1_555 1_555
H7_17 C7_17 1_555 1_555
C8_17 C7_17 1_555 1_555
H8_16 C8_17 1_555 1_555
C9_18 N5_9 1_555 1_555
C10_18 C9_18 1_555 1_555
H9_18 C10_18 1_555 1_555
H10_18 C10_18 1_555 1_555
H11_18 C10_18 1_555 1_555
C11_18 C9_18 1_555 1_555
C12_18 C11_18 1_555 1_555
C13_18 C6_18 1_555 1_555
H12_18 C13_18 1_555 1_555
C14_18 C8_17 1_555 1_555
H13_18 C14_18 1_555 1_555
C15_18 C11_18 1_555 1_555
C16_18 C15_18 1_555 1_555
H14_18 C16_18 1_555 1_555
H15_16 C16_18 1_555 1_555
H16_18 C16_18 1_555 1_555
Cu3_12 N4_12 1_555 1_555
C2_18 C3_18 1_555 1_555
C12_18 C13_18 1_555 1_555
C12_18 C14_18 1_555 1_555
O3_9 Cu3_12 1_555 1_555
N1_18 Cu3_12 1_555 1_555
C1_18 N1_18 1_555 1_555
C4_18 C1_18 1_555 1_555
H1_18 C4_18 1_555 1_555
H2_18 C4_18 1_555 1_555
H3_18 C4_18 1_555 1_555
H7_18 C7_18 1_555 1_555
C8_18 C7_18 1_555 1_555
C18_18 O3_9 1_555 1_555
H20_18 C18_18 1_555 1_555
H21_18 C18_18 1_555 1_555
H22_18 C18_18 1_555 1_555

#END
