
###############################################################################
#
# This file contains modified crystal structure data generated from the
# MOF subset of the Cambridge Structural Database (CSD) v543 
# hosted by the Cambridge Crystallographic Data Centre (CCDC).
#
# This work is licensed under the Creative Commons
# Attribution-NonCommercial-ShareAlike 4.0 International License.
# To view a copy of this license, visit
# http://creativecommons.org/licenses/by-nc-sa/4.0/
# or send a letter to
# Creative Commons, PO Box 1866, Mountain View, CA 94042, USA.
#
# CIF created using the CSD Python API on 29 September 2022
# The structure has been converted into the P1 space group
# The structure has a 3D framework
# The original CSD entry BOVHEB is in the monoclinic crystal system
# The framework has been calculated to contain at least 10.0% void space
# The void calculation uses a probe of radius 1.32A, grid spacing 0.4
# H atom positions have been added when not included in the experimental data
#
###############################################################################

data_BOVHEB
_chemical_formula_moiety         '(C124 H92 N36 O18 Zn8)n'
_symmetry_cell_setting           triclinic
_symmetry_space_group_name_H-M   'P 1'
_symmetry_Int_Tables_number      1
_space_group_name_Hall           'P 1'
loop_
_symmetry_equiv_pos_site_id
_symmetry_equiv_pos_as_xyz
1 x,y,z
_cell_length_a                   8.3860(13)
_cell_length_b                   17.1990(15)
_cell_length_c                   25.132(4)
_cell_angle_alpha                90
_cell_angle_beta                 94.182(5)
_cell_angle_gamma                90
_cell_volume                     3615.16
loop_
_atom_site_label
_atom_site_type_symbol
_atom_site_fract_x
_atom_site_fract_y
_atom_site_fract_z
O1 O 0.0655(7) 0.7172(3) 0.05594(15)
O2 O 0.0689(9) 0.5453(4) 0.1380(3)
C1 C 0.1352(13) 0.5200(6) 0.1786(4)
N2 N 0.2578(17) 0.4661(8) 0.1779(6)
C2 C 0.322(3) 0.4453(11) 0.2246(9)
H1 H 0.4043 0.4078 0.2202
H2 H 0.2409 0.4228 0.2450
H3 H 0.3664 0.4901 0.2429
C3 C 0.278(4) 0.4393(18) 0.1238(12)
H4 H 0.2077 0.4679 0.0991
H5 H 0.2527 0.3849 0.1212
H6 H 0.3867 0.4473 0.1155
Zn2 Zn 0.15372(8) 0.74532(3) 0.12527(2)
O7 O 0.0318(6) 0.7486(2) 0.18773(15)
N11 N 0.3552(7) 0.6875(2) 0.13836(17)
N12 N 0.2008(5) 0.8600(2) 0.11614(15)
H23 H 0.0976193 0.540092 0.216828
N1 N 0.5960(7) 0.6358(3) 0.13742(17)
Zn1 Zn 0.83395(8) 0.59393(4) 0.13272(2)
C6 C 0.4789(8) 0.6720(3) 0.10863(17)
N7 N 0.4003(8) 0.6573(3) 0.18719(16)
O5 O 0.8783(9) 0.6342(4) 0.06421(17)
C8 C 0.9766(8) 0.6673(3) 0.03823(19)
N9 N 0.5394(9) 0.6252(3) 0.18639(18)
C17 C 0.4512(8) 0.7652(3) 0.0324(2)
H12 H 0.4381 0.8052 0.0566
C23 C 0.4791(9) 0.6913(3) 0.0513(2)
C31 C 0.5027(12) 0.6331(4) 0.0148(2)
H22 H 0.5215 0.5823 0.0264
O6 O 0.8945(7) 0.6437(3) 0.20124(14)
N10 N 0.7548(5) 0.4834(2) 0.11996(15)
O3 O 0.3945(7) 0.8563(3) 0.70124(14)
N3 N 0.7548(5) 0.5166(2) 0.61996(15)
O4 O 0.5318(6) 0.7514(2) 0.68773(15)
N4 N 0.6895(6) 0.5338(3) 0.57060(16)
C4 C 0.8223(6) 0.5894(3) 0.70343(17)
N6 N 0.6569(6) 0.6075(2) 0.56859(17)
C5 C 0.9475(7) 0.6166(3) 0.87079(19)
N8 N 0.7008(5) 0.6400(2) 0.61614(15)
C7 C 0.3629(8) 0.8005(3) 0.8612(2)
H7 H 0.2968 0.8285 0.8824
C9 C 0.7790(7) 0.5339(3) 0.73951(18)
H8 H 0.7182 0.4913 0.7275
C11 C 0.9734(7) 0.6481(3) 0.97998(17)
C12 C 0.7624(6) 0.5826(3) 0.64676(17)
C13 C 0.9186(6) 0.6047(3) 0.81222(18)
C14 C 0.4638(7) 0.7952(3) 0.71669(18)
C15 C 0.9187(7) 0.6500(3) 0.72102(19)
H10 H 0.9539 0.6859 0.6968
C16 C 0.4423(8) 0.7818(3) 0.9793(2)
H11 H 0.4194 0.8323 0.9679
C19 C 0.8253(7) 0.5411(3) 0.79291(18)
H14 H 0.7944 0.5035 0.8167
C20 C 0.5488(11) 0.7153(4) 0.7961(2)
H15 H 0.6099 0.6856 0.7743
C21 C 0.4575(7) 0.7764(3) 0.77453(19)
C22 C 0.3647(7) 0.8169(3) 0.80707(19)
H16 H 0.3005 0.8568 0.7926
C24 C 0.4601(9) 0.7422(3) 0.8835(2)
C25 C 0.8966(13) 0.5826(4) 0.9605(2)
H17 H 0.8487 0.5492 0.9837
C26 C 0.5497(11) 0.6982(5) 0.8499(2)
H18 H 0.6107 0.6568 0.8638
C27 C 0.9639(8) 0.6575(3) 0.77536(19)
C28 C 0.8901(12) 0.5658(4) 0.9066(2)
H20 H 0.8457 0.5190 0.8944
C29 C 0.4985(13) 0.6505(4) 0.9608(2)
H21 H 0.5177 0.6111 0.9367
C30 C 0.4667(9) 0.7244(4) 0.9418(2)
Zn3 Zn 0.83395(8) 0.40607(4) 0.63272(2)
Zn4 Zn 0.33395(8) 0.90607(4) 0.63272(2)
Zn6 Zn 0.65372(8) 0.75468(3) 0.62527(2)
O1_2 O 0.0655(7) 0.2828(3) 0.55594(15)
O2_2 O 0.0689(9) 0.4547(4) 0.6380(3)
C1_2 C 0.1352(13) 0.4800(6) 0.6786(4)
N2_2 N 0.2578(17) 0.5339(8) 0.6779(6)
C2_2 C 0.322(3) 0.5547(11) 0.7246(9)
H1_2 H 0.4043 0.5922 0.7202
H2_2 H 0.2409 0.5772 0.7450
H3_2 H 0.3664 0.5099 0.7429
C3_2 C 0.278(4) 0.5607(18) 0.6238(12)
H4_2 H 0.2077 0.5321 0.5991
H5_2 H 0.2527 0.6151 0.6212
H6_2 H 0.3867 0.5527 0.6155
C10 C 0.0367(10) 0.3029(4) 0.4449(2)
H9 H 0.0902 0.2582 0.4571
C18 C 0.0218(10) 0.3192(5) 0.3911(2)
H13 H 0.0649 0.2844 0.3677
H19 H 0.0267 0.3004 0.2869
Zn2_2 Zn 0.15372(8) 0.25468(3) 0.62527(2)
O7_2 O 0.0318(6) 0.2514(2) 0.68773(15)
N11_2 N 0.3552(7) 0.3125(2) 0.63836(17)
N12_2 N 0.2008(5) 0.1400(2) 0.61614(15)
H23_2 H 0.0976193 0.459908 0.716828
N1_2 N 0.5960(7) 0.3642(3) 0.63742(17)
O3_2 O 0.3945(7) 0.1437(3) 0.20124(14)
O4_2 O 0.5318(6) 0.2486(2) 0.18773(15)
N4_2 N 0.6895(6) 0.4662(3) 0.07060(16)
C4_2 C 0.8223(6) 0.4106(3) 0.20343(17)
N6_2 N 0.6569(6) 0.3925(2) 0.06859(17)
C5_2 C 0.9475(7) 0.3834(3) 0.37079(19)
C6_2 C 0.4789(8) 0.3280(3) 0.60863(17)
N7_2 N 0.4003(8) 0.3427(3) 0.68719(16)
O5_2 O 0.8783(9) 0.3658(4) 0.56421(17)
N8_2 N 0.7008(5) 0.3600(2) 0.11614(15)
C7_2 C 0.3629(8) 0.1995(3) 0.3612(2)
H7_2 H 0.2968 0.1715 0.3824
C8_2 C 0.9766(8) 0.3327(3) 0.53823(19)
C9_2 C 0.7790(7) 0.4661(3) 0.23951(18)
H8_2 H 0.7182 0.5087 0.2275
C11_2 C 0.9734(7) 0.3519(3) 0.47998(17)
C12_2 C 0.7624(6) 0.4174(3) 0.14676(17)
C13_2 C 0.9186(6) 0.3953(3) 0.31222(18)
C14_2 C 0.4638(7) 0.2048(3) 0.21669(18)
C15_2 C 0.9187(7) 0.3500(3) 0.22102(19)
H10_2 H 0.9539 0.3141 0.1968
C16_2 C 0.4423(8) 0.2182(3) 0.4793(2)
H11_2 H 0.4194 0.1677 0.4679
N9_2 N 0.5394(9) 0.3748(3) 0.68639(18)
C17_2 C 0.4512(8) 0.2348(3) 0.5324(2)
H12_2 H 0.4381 0.1948 0.5566
C19_2 C 0.8253(7) 0.4589(3) 0.29291(18)
H14_2 H 0.7944 0.4965 0.3167
C20_2 C 0.5488(11) 0.2847(4) 0.2961(2)
H15_2 H 0.6099 0.3144 0.2743
C21_2 C 0.4575(7) 0.2236(3) 0.27453(19)
C22_2 C 0.3647(7) 0.1831(3) 0.30707(19)
H16_2 H 0.3005 0.1432 0.2926
C23_2 C 0.4791(9) 0.3087(3) 0.5513(2)
C24_2 C 0.4601(9) 0.2578(3) 0.3835(2)
C25_2 C 0.8966(13) 0.4174(4) 0.4605(2)
H17_2 H 0.8487 0.4508 0.4837
C26_2 C 0.5497(11) 0.3018(5) 0.3499(2)
H18_2 H 0.6107 0.3432 0.3638
C27_2 C 0.9639(8) 0.3425(3) 0.27536(19)
C28_2 C 0.8901(12) 0.4342(4) 0.4066(2)
H20_2 H 0.8457 0.4810 0.3944
C29_2 C 0.4985(13) 0.3495(4) 0.4608(2)
H21_2 H 0.5177 0.3889 0.4367
C30_2 C 0.4667(9) 0.2756(4) 0.4418(2)
C31_2 C 0.5027(12) 0.3669(4) 0.5148(2)
H22_2 H 0.5215 0.4177 0.5264
Zn4_2 Zn 0.33395(8) 0.09393(4) 0.13272(2)
O6_2 O 0.8945(7) 0.3563(3) 0.70124(14)
Zn6_2 Zn 0.65372(8) 0.24532(3) 0.12527(2)
N1_3 N 0.0960(7) 0.1358(3) 0.13742(17)
O1_3 O 0.5655(7) 0.2172(3) 0.05594(15)
O2_3 O 0.5689(9) 0.0453(4) 0.1380(3)
C1_3 C 0.6352(13) 0.0200(6) 0.1786(4)
O5_3 O 0.3783(9) 0.1342(4) 0.06421(17)
C8_3 C 0.4766(8) 0.1673(3) 0.03823(19)
N9_3 N 0.0394(9) 0.1252(3) 0.18639(18)
C31_3 C 0.0027(12) 0.1331(4) 0.0148(2)
H22_3 H 0.0215 0.0823 0.0264
N11_3 N 0.8552(7) 0.1875(2) 0.13836(17)
H23_3 H 0.597619 0.0400918 0.216828
N3_2 N 0.2548(5) 0.0166(2) 0.61996(15)
N4_3 N 0.1895(6) 0.0338(3) 0.57060(16)
C4_3 C 0.3223(6) 0.0894(3) 0.70343(17)
N6_3 N 0.1569(6) 0.1075(2) 0.56859(17)
C5_3 C 0.4475(7) 0.1166(3) 0.87079(19)
C9_3 C 0.2790(7) 0.0339(3) 0.73951(18)
C10_2 C 0.5367(10) 0.1971(4) 0.9449(2)
H9_2 H 0.5902 0.2418 0.9571
C11_3 C 0.4734(7) 0.1481(3) 0.97998(17)
C12_3 C 0.2624(6) 0.0826(3) 0.64676(17)
C13_3 C 0.4186(6) 0.1047(3) 0.81222(18)
C15_3 C 0.4187(7) 0.1500(3) 0.72102(19)
H10_3 H 0.4539 0.1859 0.6968
C18_2 C 0.5218(10) 0.1808(5) 0.8911(2)
H13_2 H 0.5649 0.2156 0.8677
C19_3 C 0.3253(7) 0.0411(3) 0.79291(18)
H14_3 H 0.2944 0.0035 0.8167
C20_3 C 0.0488(11) 0.2153(4) 0.7961(2)
H15_3 H 0.1099 0.1856 0.7743
C25_3 C 0.3966(13) 0.0826(4) 0.9605(2)
H17_3 H 0.3487 0.0492 0.9837
C26_3 C 0.0497(11) 0.1982(5) 0.8499(2)
H18_3 H 0.1107 0.1568 0.8638
C27_3 C 0.4639(8) 0.1575(3) 0.77536(19)
H19_2 H 0.5267 0.1996 0.7869
C28_3 C 0.3901(12) 0.0658(4) 0.9066(2)
H20_3 H 0.3457 0.0190 0.8944
H21_3 H 0.0177 0.1111 0.9367
N2_3 N 0.7578(17) 0.9661(8) 0.1779(6)
C2_3 C 0.822(3) 0.9453(11) 0.2246(9)
H1_3 H 0.9043 0.9078 0.2202
H2_3 H 0.7409 0.9228 0.2450
H3_3 H 0.8664 0.9901 0.2429
C3_3 C 0.778(4) 0.9393(18) 0.1238(12)
H4_3 H 0.7077 0.9679 0.0991
H5_3 H 0.7527 0.8849 0.1212
H6_3 H 0.8867 0.9473 0.1155
N10_2 N 0.2548(5) 0.9834(2) 0.11996(15)
H8_3 H 0.2182 0.9913 0.7275
C6_3 C 0.9789(8) 0.1720(3) 0.10863(17)
N7_3 N 0.9003(8) 0.1573(3) 0.18719(16)
C17_3 C 0.9512(8) 0.2652(3) 0.0324(2)
H12_3 H 0.9381 0.3052 0.0566
C23_3 C 0.9791(9) 0.1913(3) 0.0513(2)
C7_3 C 0.8629(8) 0.3005(3) 0.8612(2)
H7_3 H 0.7968 0.3285 0.8824
C14_3 C 0.9638(7) 0.2952(3) 0.71669(18)
C16_3 C 0.9423(8) 0.2818(3) 0.9793(2)
H11_3 H 0.9194 0.3323 0.9679
C21_3 C 0.9575(7) 0.2764(3) 0.77453(19)
C22_3 C 0.8647(7) 0.3169(3) 0.80707(19)
H16_3 H 0.8005 0.3568 0.7926
C24_3 C 0.9601(9) 0.2422(3) 0.8835(2)
C29_3 C 0.9985(13) 0.1505(4) 0.9608(2)
C30_3 C 0.9667(9) 0.2244(4) 0.9418(2)
N2_4 N 0.7578(17) 0.0339(8) 0.6779(6)
C2_4 C 0.822(3) 0.0547(11) 0.7246(9)
H1_4 H 0.9043 0.0922 0.7202
H2_4 H 0.7409 0.0772 0.7450
H3_4 H 0.8664 0.0099 0.7429
C3_4 C 0.778(4) 0.0607(18) 0.6238(12)
H4_4 H 0.7077 0.0321 0.5991
H5_4 H 0.7527 0.1151 0.6212
H6_4 H 0.8867 0.0527 0.6155
H8_4 H 0.2182 0.0087 0.2275
N1_4 N 0.0960(7) 0.8642(3) 0.63742(17)
O1_4 O 0.5655(7) 0.7828(3) 0.55594(15)
O2_4 O 0.5689(9) 0.9547(4) 0.6380(3)
C1_4 C 0.6352(13) 0.9800(6) 0.6786(4)
N4_4 N 0.1895(6) 0.9662(3) 0.07060(16)
C4_4 C 0.3223(6) 0.9106(3) 0.20343(17)
N6_4 N 0.1569(6) 0.8925(2) 0.06859(17)
C5_4 C 0.4475(7) 0.8834(3) 0.37079(19)
O5_4 O 0.3783(9) 0.8658(4) 0.56421(17)
C8_4 C 0.4766(8) 0.8327(3) 0.53823(19)
C9_4 C 0.2790(7) 0.9661(3) 0.23951(18)
C10_3 C 0.5367(10) 0.8029(4) 0.4449(2)
H9_3 H 0.5902 0.7582 0.4571
C11_4 C 0.4734(7) 0.8519(3) 0.47998(17)
C12_4 C 0.2624(6) 0.9174(3) 0.14676(17)
C13_4 C 0.4186(6) 0.8953(3) 0.31222(18)
C15_4 C 0.4187(7) 0.8500(3) 0.22102(19)
H10_4 H 0.4539 0.8141 0.1968
N9_4 N 0.0394(9) 0.8748(3) 0.68639(18)
C18_3 C 0.5218(10) 0.8192(5) 0.3911(2)
H13_3 H 0.5649 0.7844 0.3677
C19_4 C 0.3253(7) 0.9589(3) 0.29291(18)
H14_4 H 0.2944 0.9965 0.3167
C20_4 C 0.0488(11) 0.7847(4) 0.2961(2)
H15_4 H 0.1099 0.8144 0.2743
C25_4 C 0.3966(13) 0.9174(4) 0.4605(2)
H17_4 H 0.3487 0.9508 0.4837
C26_4 C 0.0497(11) 0.8018(5) 0.3499(2)
H18_4 H 0.1107 0.8432 0.3638
C27_4 C 0.4639(8) 0.8425(3) 0.27536(19)
H19_3 H 0.5267 0.8004 0.2869
C28_4 C 0.3901(12) 0.9342(4) 0.4066(2)
H20_4 H 0.3457 0.9810 0.3944
H21_4 H 0.0177 0.8889 0.4367
C31_4 C 0.0027(12) 0.8669(4) 0.5148(2)
H22_4 H 0.0215 0.9177 0.5264
N11_4 N 0.8552(7) 0.8125(2) 0.63836(17)
H23_4 H 0.597619 0.959908 0.716828
C6_4 C 0.9789(8) 0.8280(3) 0.60863(17)
N7_4 N 0.9003(8) 0.8427(3) 0.68719(16)
C7_4 C 0.8629(8) 0.6995(3) 0.3612(2)
H7_4 H 0.7968 0.6715 0.3824
C14_4 C 0.9638(7) 0.7048(3) 0.21669(18)
C16_4 C 0.9423(8) 0.7182(3) 0.4793(2)
H11_4 H 0.9194 0.6677 0.4679
C17_4 C 0.9512(8) 0.7348(3) 0.5324(2)
H12_4 H 0.9381 0.6948 0.5566
C21_4 C 0.9575(7) 0.7236(3) 0.27453(19)
C22_4 C 0.8647(7) 0.6831(3) 0.30707(19)
H16_4 H 0.8005 0.6432 0.2926
C23_4 C 0.9791(9) 0.8087(3) 0.5513(2)
C24_4 C 0.9601(9) 0.7578(3) 0.3835(2)
C29_4 C 0.9985(13) 0.8495(4) 0.4608(2)
C30_4 C 0.9667(9) 0.7756(4) 0.4418(2)
C10_4 C 0.0367(10) 0.6971(4) 0.9449(2)
H9_4 H 0.0902 0.7418 0.9571
C18_4 C 0.0218(10) 0.6808(5) 0.8911(2)
H13_4 H 0.0649 0.7156 0.8677
H19_4 H 0.0267 0.6996 0.7869
loop_
_geom_bond_atom_site_label_1
_geom_bond_atom_site_label_2
_geom_bond_site_symmetry_1
_geom_bond_site_symmetry_2
O2 C1 1_555 1_555
C1 N2 1_555 1_555
N2 C2 1_555 1_555
C2 H1 1_555 1_555
H2 C2 1_555 1_555
H3 C2 1_555 1_555
C3 N2 1_555 1_555
H4 C3 1_555 1_555
H5 C3 1_555 1_555
H6 C3 1_555 1_555
Zn2 O1 1_555 1_555
O7 Zn2 1_555 1_555
N11 Zn2 1_555 1_555
N12 Zn2 1_555 1_555
C1 H23 1_555 1_555
N1 Zn1 1_555 1_555
N11 C6 1_555 1_555
C6 N1 1_555 1_555
N7 N11 1_555 1_555
O5 Zn1 1_555 1_555
C8 O5 1_555 1_555
N9 N1 1_555 1_555
H12 C17 1_555 1_555
C23 C6 1_555 1_555
C31 C23 1_555 1_555
H22 C31 1_555 1_555
O6 Zn1 1_555 1_555
N10 Zn1 1_555 1_555
N7 N9 1_555 1_555
C17 C23 1_555 1_555
O3 C14 1_555 1_555
N3 N4 1_555 1_555
O4 C14 1_555 1_555
N4 N6 1_555 1_555
C4 C9 1_555 1_555
N6 N8 1_555 1_555
C5 C13 1_555 1_555
N8 C12 1_555 1_555
C7 H7 1_555 1_555
C9 H8 1_555 1_555
C12 N3 1_555 1_555
C13 C19 1_555 1_555
C14 C21 1_555 1_555
C15 C4 1_555 1_555
H10 C15 1_555 1_555
C16 H11 1_555 1_555
C19 C9 1_555 1_555
H14 C19 1_555 1_555
C20 H15 1_555 1_555
C21 C20 1_555 1_555
C22 C7 1_555 1_555
H16 C22 1_555 1_555
C24 C7 1_555 1_555
C25 C11 1_555 1_555
H17 C25 1_555 1_555
C26 C20 1_555 1_555
H18 C26 1_555 1_555
C27 C13 1_555 1_555
C28 C5 1_555 1_555
H20 C28 1_555 1_555
C29 H21 1_555 1_555
C30 C16 1_555 1_555
Zn3 N3 1_555 1_555
Zn4 O3 1_555 1_555
Zn6 O4 1_555 1_555
C4 C12 1_555 1_555
N8 Zn6 1_555 1_555
C15 C27 1_555 1_555
C21 C22 1_555 1_555
C24 C26 1_555 1_555
C24 C30 1_555 1_555
C25 C28 1_555 1_555
C29 C30 1_555 1_555
O2_2 C1_2 1_555 1_555
C1_2 N2_2 1_555 1_555
N2_2 C2_2 1_555 1_555
C2_2 H1_2 1_555 1_555
H2_2 C2_2 1_555 1_555
H3_2 C2_2 1_555 1_555
C3_2 N2_2 1_555 1_555
H4_2 C3_2 1_555 1_555
H5_2 C3_2 1_555 1_555
H6_2 C3_2 1_555 1_555
C10 H9 1_555 1_555
H13 C18 1_555 1_555
Zn2_2 O1_2 1_555 1_555
O7_2 Zn2_2 1_555 1_555
N11_2 Zn2_2 1_555 1_555
N12_2 Zn2_2 1_555 1_555
C10 C18 1_555 1_555
C1_2 H23_2 1_555 1_555
N1_2 Zn3 1_555 1_555
O3_2 C14_2 1_555 1_555
N10 N4_2 1_555 1_555
O4_2 C14_2 1_555 1_555
N4_2 N6_2 1_555 1_555
C4_2 C9_2 1_555 1_555
N11_2 C6_2 1_555 1_555
N6_2 N8_2 1_555 1_555
C5_2 C13_2 1_555 1_555
C6_2 N1_2 1_555 1_555
N7_2 N11_2 1_555 1_555
O5_2 Zn3 1_555 1_555
N8_2 C12_2 1_555 1_555
C7_2 H7_2 1_555 1_555
C8_2 O5_2 1_555 1_555
C9_2 H8_2 1_555 1_555
C11_2 C8_2 1_555 1_555
C12_2 N10 1_555 1_555
C13_2 C19_2 1_555 1_555
C14_2 C21_2 1_555 1_555
C15_2 C4_2 1_555 1_555
H10_2 C15_2 1_555 1_555
C16_2 H11_2 1_555 1_555
N9_2 N1_2 1_555 1_555
C17_2 C16_2 1_555 1_555
H12_2 C17_2 1_555 1_555
C19_2 C9_2 1_555 1_555
H14_2 C19_2 1_555 1_555
C20_2 H15_2 1_555 1_555
C21_2 C20_2 1_555 1_555
C22_2 C7_2 1_555 1_555
H16_2 C22_2 1_555 1_555
C23_2 C6_2 1_555 1_555
C24_2 C7_2 1_555 1_555
C25_2 C11_2 1_555 1_555
H17_2 C25_2 1_555 1_555
C26_2 C20_2 1_555 1_555
H18_2 C26_2 1_555 1_555
C27_2 C13_2 1_555 1_555
C28_2 C5_2 1_555 1_555
H20_2 C28_2 1_555 1_555
C29_2 H21_2 1_555 1_555
C30_2 C16_2 1_555 1_555
C31_2 C23_2 1_555 1_555
H22_2 C31_2 1_555 1_555
Zn4_2 O3_2 1_555 1_555
O6_2 Zn3 1_555 1_555
Zn6_2 O4_2 1_555 1_555
C4_2 C12_2 1_555 1_555
N7_2 N9_2 1_555 1_555
N8_2 Zn6_2 1_555 1_555
C15_2 C27_2 1_555 1_555
C17_2 C23_2 1_555 1_555
C21_2 C22_2 1_555 1_555
C24_2 C26_2 1_555 1_555
C24_2 C30_2 1_555 1_555
C25_2 C28_2 1_555 1_555
C29_2 C30_2 1_555 1_555
C29_2 C31_2 1_555 1_555
N1_3 Zn4_2 1_555 1_555
O1_3 C8_3 1_555 1_555
O2_3 C1_3 1_555 1_555
Zn4_2 O2_3 1_555 1_555
O5_3 Zn4_2 1_555 1_555
C8_3 O5_3 1_555 1_555
N9_3 N1_3 1_555 1_555
H22_3 C31_3 1_555 1_555
Zn6_2 O1_3 1_555 1_555
N11_3 Zn6_2 1_555 1_555
C1_3 H23_3 1_555 1_555
N3_2 N4_3 1_555 1_555
N4_3 N6_3 1_555 1_555
C4_3 C9_3 1_555 1_555
N6_3 N12_2 1_555 1_555
C5_3 C13_3 1_555 1_555
N12_2 C12_3 1_555 1_555
C10_2 H9_2 1_555 1_555
C12_3 N3_2 1_555 1_555
C13_3 C19_3 1_555 1_555
C15_3 C4_3 1_555 1_555
H10_3 C15_3 1_555 1_555
C18_2 C5_3 1_555 1_555
H13_2 C18_2 1_555 1_555
C19_3 C9_3 1_555 1_555
H14_3 C19_3 1_555 1_555
C20_3 H15_3 1_555 1_555
C25_3 C11_3 1_555 1_555
H17_3 C25_3 1_555 1_555
C26_3 C20_3 1_555 1_555
H18_3 C26_3 1_555 1_555
C27_3 C13_3 1_555 1_555
H19_2 C27_3 1_555 1_555
C28_3 C5_3 1_555 1_555
H20_3 C28_3 1_555 1_555
C4_3 C12_3 1_555 1_555
C10_2 C11_3 1_555 1_555
C10_2 C18_2 1_555 1_555
C15_3 C27_3 1_555 1_555
C25_3 C28_3 1_555 1_555
N2_3 C2_3 1_555 1_555
C2_3 H1_3 1_555 1_555
H2_3 C2_3 1_555 1_555
H3_3 C2_3 1_555 1_555
C3_3 N2_3 1_555 1_555
H4_3 C3_3 1_555 1_555
H5_3 C3_3 1_555 1_555
H6_3 C3_3 1_555 1_555
N11_3 C6_3 1_555 1_555
N7_3 N11_3 1_555 1_555
H12_3 C17_3 1_555 1_555
C23_3 C6_3 1_555 1_555
C17_3 C23_3 1_555 1_555
O6_2 C14_3 1_555 1_555
C7_3 H7_3 1_555 1_555
C14_3 C21_3 1_555 1_555
C16_3 H11_3 1_555 1_555
C22_3 C7_3 1_555 1_555
H16_3 C22_3 1_555 1_555
C24_3 C7_3 1_555 1_555
C30_3 C16_3 1_555 1_555
C21_3 C22_3 1_555 1_555
C24_3 C30_3 1_555 1_555
C29_3 C30_3 1_555 1_555
N2_4 C2_4 1_555 1_555
C2_4 H1_4 1_555 1_555
H2_4 C2_4 1_555 1_555
H3_4 C2_4 1_555 1_555
C3_4 N2_4 1_555 1_555
H4_4 C3_4 1_555 1_555
H5_4 C3_4 1_555 1_555
H6_4 C3_4 1_555 1_555
N1_4 Zn4 1_555 1_555
O1_4 C8_4 1_555 1_555
O2_4 C1_4 1_555 1_555
Zn4 O2_4 1_555 1_555
N10_2 N4_4 1_555 1_555
N4_4 N6_4 1_555 1_555
C4_4 C9_4 1_555 1_555
N6_4 N12 1_555 1_555
C5_4 C13_4 1_555 1_555
O5_4 Zn4 1_555 1_555
N12 C12_4 1_555 1_555
C8_4 O5_4 1_555 1_555
C10_3 H9_3 1_555 1_555
C11_4 C8_4 1_555 1_555
C12_4 N10_2 1_555 1_555
C13_4 C19_4 1_555 1_555
C15_4 C4_4 1_555 1_555
H10_4 C15_4 1_555 1_555
N9_4 N1_4 1_555 1_555
C18_3 C5_4 1_555 1_555
H13_3 C18_3 1_555 1_555
C19_4 C9_4 1_555 1_555
H14_4 C19_4 1_555 1_555
C20_4 H15_4 1_555 1_555
C25_4 C11_4 1_555 1_555
H17_4 C25_4 1_555 1_555
C26_4 C20_4 1_555 1_555
H18_4 C26_4 1_555 1_555
C27_4 C13_4 1_555 1_555
H19_3 C27_4 1_555 1_555
C28_4 C5_4 1_555 1_555
H20_4 C28_4 1_555 1_555
H22_4 C31_4 1_555 1_555
Zn6 O1_4 1_555 1_555
N11_4 Zn6 1_555 1_555
C4_4 C12_4 1_555 1_555
C10_3 C11_4 1_555 1_555
C10_3 C18_3 1_555 1_555
C15_4 C27_4 1_555 1_555
C25_4 C28_4 1_555 1_555
C1_4 H23_4 1_555 1_555
O6 C14_4 1_555 1_555
N11_4 C6_4 1_555 1_555
N7_4 N11_4 1_555 1_555
C7_4 H7_4 1_555 1_555
C14_4 C21_4 1_555 1_555
C16_4 H11_4 1_555 1_555
C17_4 C16_4 1_555 1_555
H12_4 C17_4 1_555 1_555
C22_4 C7_4 1_555 1_555
H16_4 C22_4 1_555 1_555
C23_4 C6_4 1_555 1_555
C24_4 C7_4 1_555 1_555
C30_4 C16_4 1_555 1_555
C17_4 C23_4 1_555 1_555
C21_4 C22_4 1_555 1_555
C24_4 C30_4 1_555 1_555
C29_4 C30_4 1_555 1_555
C10_4 H9_4 1_555 1_555
H13_4 C18_4 1_555 1_555
C10_4 C18_4 1_555 1_555

#END
