
###############################################################################
#
# This file contains modified crystal structure data generated from the
# MOF subset of the Cambridge Structural Database (CSD) v543 
# hosted by the Cambridge Crystallographic Data Centre (CCDC).
#
# This work is licensed under the Creative Commons
# Attribution-NonCommercial-ShareAlike 4.0 International License.
# To view a copy of this license, visit
# http://creativecommons.org/licenses/by-nc-sa/4.0/
# or send a letter to
# Creative Commons, PO Box 1866, Mountain View, CA 94042, USA.
#
# CIF created using the CSD Python API on 29 September 2022
# The structure has been converted into the P1 space group
# The structure has a 3D framework
# The original CSD entry BOWDIC is in the monoclinic crystal system
# The framework has been calculated to contain at least 10.0% void space
# The void calculation uses a probe of radius 1.32A, grid spacing 0.4
# H atom positions have been added when not included in the experimental data
#
###############################################################################

data_BOWDIC
_chemical_formula_moiety         '(C216 H152 Co18 N36 O84)n'
_symmetry_cell_setting           triclinic
_symmetry_space_group_name_H-M   'P 1'
_symmetry_Int_Tables_number      1
_space_group_name_Hall           'P 1'
loop_
_symmetry_equiv_pos_site_id
_symmetry_equiv_pos_as_xyz
1 x,y,z
_cell_length_a                   12.653(5)
_cell_length_b                   25.497(5)
_cell_length_c                   28.551(5)
_cell_angle_alpha                90
_cell_angle_beta                 90.945(5)
_cell_angle_gamma                90
_cell_volume                     9209.69
loop_
_atom_site_label
_atom_site_type_symbol
_atom_site_fract_x
_atom_site_fract_y
_atom_site_fract_z
N5 N 0.0510(3) 0.19271(16) 0.91933(15)
C25 C 0.0048(5) 0.1496(2) 0.9337(2)
H17 H 0.0028 0.1438 0.9665
C28 C 0.0110(5) 0.1661(2) 0.8402(2)
H19 H 0.0148 0.1730 0.8076
C29 C 0.0552(5) 0.2002(2) 0.8729(2)
H20 H 0.0903 0.2306 0.8617
Co19 Co 0.11313(6) 0.24935(2) 0.96762(3)
O1 O 0.7500 0.04243(16) 0.7500
O7 O 0.4602(3) 0.18868(13) 0.94041(13)
O8 O 0.3331(3) 0.16943(15) 0.88802(14)
O13 O 0.8651(3) 0.04423(13) 0.84118(13)
O14 O 0.9023(4) 0.09680(19) 0.78113(15)
N2 N 0.6331(3) 0.05003(15) 0.84505(14)
C7 C 0.5374(4) 0.06141(19) 0.82517(19)
H5 H 0.5180 0.0444 0.7967
C8 C 0.4662(4) 0.0968(2) 0.84454(19)
H6 H 0.4007 0.1040 0.8292
C9 C 0.4924(4) 0.12117(19) 0.88643(18)
C10 C 0.5871(4) 0.1085(2) 0.90784(19)
H7 H 0.6073 0.1243 0.9368
C11 C 0.6529(5) 0.0723(2) 0.8866(2)
H8 H 0.7162 0.0626 0.9027
C12 C 0.4212(4) 0.16188(19) 0.90691(18)
C26 C 0.9587(5) 0.1120(2) 0.9050(2)
H18 H 0.9272 0.0814 0.9175
C27 C 0.9605(5) 0.1212(2) 0.8567(2)
C30 C 0.9052(5) 0.0845(2) 0.8236(2)
O27 O 0.0398(3) 0.18868(13) 0.55959(13)
O28 O 0.1669(3) 0.16943(15) 0.61198(14)
C62 C 0.0338(4) 0.0968(2) 0.65546(19)
H42 H 0.0993 0.1040 0.6708
C63 C 0.0076(4) 0.12117(19) 0.61357(18)
C66 C 0.0788(4) 0.16188(19) 0.59309(18)
Co21 Co 0.39543(6) 0.25101(2) 0.97573(2)
Co22 Co 0.10457(6) 0.25101(2) 0.52427(2)
Co2 Co 0.24573(6) 0.49964(2) 0.18707(2)
Co3 Co 0.88687(6) 0.75065(2) 0.03238(3)
Co4 Co 0.60457(6) 0.74899(2) 0.02427(2)
O2 O 0.2500 0.54577(16) 0.2500
O3 O 0.7417(3) 0.74959(10) 0.07063(12)
O15 O 0.3465(3) 0.55094(13) 0.15417(12)
O16 O 0.3911(4) 0.60433(16) 0.21334(14)
N4 N 0.1172(3) 0.54572(15) 0.15884(14)
N6 N 0.5287(3) 0.69699(15) 0.07131(15)
C19 C 0.1223(5) 0.5649(2) 0.1154(2)
H13 H 0.1778 0.5527 0.0962
C20 C 0.0523(5) 0.6016(2) 0.0961(2)
H14 H 0.0617 0.6146 0.0652
C23 C 0.0313(4) 0.5610(2) 0.1833(2)
H16 H 0.0212 0.5467 0.2136
C31 C 0.4819(5) 0.6529(2) 0.0589(2)
H21 H 0.4807 0.6445 0.0265
C32 C 0.4338(5) 0.6173(2) 0.08917(19)
H22 H 0.3988 0.5869 0.0776
C33 C 0.4389(5) 0.6280(2) 0.1361(2)
C34 C 0.4864(5) 0.6744(2) 0.1516(2)
H23 H 0.4891 0.6832 0.1840
C35 C 0.5294(5) 0.7072(2) 0.1184(2)
H24 H 0.5615 0.7388 0.1289
C36 C 0.3896(5) 0.5919(2) 0.17096(19)
H25 H 0.3584 0.7572 0.0156
Co12 Co 0.25427(6) 0.49964(2) 0.31293(2)
O45 O 0.5398(3) 0.81132(13) 0.05959(13)
O47 O 0.9418(3) 0.68954(14) 0.07332(14)
O50 O 0.1414(3) 0.44630(12) 0.21309(11)
O51 O 0.3792(3) 0.45787(12) 0.20999(11)
N19 N 0.2456(3) 0.45192(14) 0.12563(13)
N21 N 0.9490(3) 0.80729(16) 0.08067(15)
Co1 Co 0.74478(6) 0.99815(2) 0.81303(2)
Co5 Co 0.2500 0.74901(3) 0.7500
O5 O 0.8462(3) 0.81250(13) 0.99027(13)
O6 O 0.6727(3) 0.80072(14) 0.97909(13)
O9 O 0.6609(3) 0.68362(13) 0.99125(13)
O10 O 0.8348(3) 0.69559(13) 0.98369(14)
O17 O 0.2702(3) 0.74911(10) 0.82239(12)
O18 O 0.1452(4) 0.74799(18) 0.87687(18)
O19 O 0.6414(3) 0.55370(12) 0.71309(11)
O20 O 0.6208(3) 0.54213(12) 0.79001(11)
O21 O 0.6164(3) 0.95650(12) 0.78837(11)
O22 O 0.6466(3) 0.94367(12) 0.71216(11)
N1 N 0.7474(3) 0.95113(14) 0.87473(13)
N3 N 0.7544(3) 0.54808(14) 0.87437(13)
N7 N 0.4765(3) 0.74824(13) 0.97302(15)
N8 N 0.3668(3) 0.68642(14) 0.74942(14)
N9 N 0.3680(3) 0.81130(14) 0.74846(15)
C1 C 0.8405(4) 0.93372(18) 0.89236(17)
H1 H 0.9037 0.9498 0.8820
C2 C 0.8483(4) 0.89366(18) 0.92476(18)
H2 H 0.9153 0.8827 0.9367
C3 C 0.7549(4) 0.86956(17) 0.93969(16)
C4 C 0.6610(4) 0.8881(2) 0.92195(17)
H3 H 0.5965 0.8729 0.9318
C5 C 0.6591(4) 0.92859(19) 0.88988(18)
H4 H 0.5928 0.9408 0.8782
C6 C 0.7593(4) 0.82365(18) 0.97287(16)
C13 C 0.6640(4) 0.56558(19) 0.89196(17)
H9 H 0.5994 0.5502 0.8814
C14 C 0.6605(4) 0.60478(19) 0.92457(17)
H10 H 0.5944 0.6162 0.9361
C15 C 0.7528(4) 0.62777(17) 0.94069(15)
C16 C 0.8472(4) 0.60899(19) 0.92367(17)
H11 H 0.9127 0.6231 0.9345
C17 C 0.8449(4) 0.56975(18) 0.89103(17)
H12 H 0.9101 0.5571 0.8795
C18 C 0.7509(4) 0.67332(18) 0.97489(16)
C37 C 0.3770(4) 0.75378(18) 0.9836(2)
C38 C 0.2973(4) 0.7548(2) 0.9493(2)
H26 H 0.2257 0.7593 0.9580
C39 C 0.3226(5) 0.74930(16) 0.9025(2)
C40 C 0.4300(4) 0.74361(19) 0.8914(2)
H27 H 0.4507 0.7399 0.8597
C41 C 0.5043(4) 0.74347(19) 0.92712(19)
H28 H 0.5769 0.7400 0.9197
C42 C 0.2371(5) 0.74903(17) 0.8644(2)
C43 C 0.3765(4) 0.65312(19) 0.78605(19)
H29 H 0.3300 0.6573 0.8116
C44 C 0.4498(4) 0.61369(19) 0.78821(17)
H30 H 0.4541 0.5915 0.8149
C45 C 0.5189(3) 0.60625(16) 0.75058(16)
C46 C 0.5076(4) 0.63956(18) 0.71270(18)
H31 H 0.5513 0.6353 0.6862
C47 C 0.4329(4) 0.67898(19) 0.71336(17)
H32 H 0.4278 0.7020 0.6872
C48 C 0.6006(4) 0.56312(16) 0.75189(16)
C49 C 0.4302(4) 0.82041(19) 0.71126(18)
H33 H 0.4227 0.7984 0.6846
C50 C 0.5038(4) 0.85988(19) 0.71015(18)
H34 H 0.5447 0.8651 0.6829
C51 C 0.5183(4) 0.89223(17) 0.74895(16)
C52 C 0.4528(4) 0.8832(2) 0.78662(18)
H35 H 0.4589 0.9046 0.8138
C53 C 0.3801(4) 0.8440(2) 0.78506(19)
H36 H 0.3355 0.8394 0.8112
C54 C 0.5999(4) 0.93465(17) 0.74935(16)
O31 O 0.5582(3) 0.68954(14) 0.42668(14)
O32 O 0.6900(3) 0.66861(15) 0.37910(15)
O35 O 0.1535(3) 0.55094(13) 0.34583(12)
O36 O 0.1089(4) 0.60433(16) 0.28666(14)
O37 O 0.2298(3) 0.74911(10) 0.67761(12)
O38 O 0.3548(4) 0.74799(18) 0.62313(18)
N13 N 0.3828(3) 0.54572(15) 0.34116(14)
N16 N 0.0235(3) 0.74824(13) 0.52698(15)
N17 N 0.1332(3) 0.68642(14) 0.75058(14)
N18 N 0.1320(3) 0.81130(14) 0.75154(15)
C73 C 0.3777(5) 0.5649(2) 0.3846(2)
H49 H 0.3222 0.5527 0.4038
C74 C 0.4477(5) 0.6016(2) 0.4039(2)
H50 H 0.4383 0.6146 0.4348
C75 C 0.5297(4) 0.6185(2) 0.37756(19)
C76 C 0.5429(4) 0.5969(2) 0.3342(2)
H51 H 0.6023 0.6062 0.3161
C77 C 0.4687(4) 0.5610(2) 0.3167(2)
H52 H 0.4788 0.5467 0.2864
C78 C 0.5995(4) 0.6618(2) 0.3960(2)
C85 C 0.0181(5) 0.6529(2) 0.4411(2)
H57 H 0.0193 0.6445 0.4735
C86 C 0.0662(5) 0.6173(2) 0.41083(19)
H58 H 0.1012 0.5869 0.4224
C87 C 0.0611(5) 0.6280(2) 0.3639(2)
C88 C 0.0136(5) 0.6744(2) 0.3484(2)
H59 H 0.0109 0.6832 0.3160
C90 C 0.1104(5) 0.5919(2) 0.32904(19)
C91 C 0.1230(4) 0.75378(18) 0.5164(2)
H61 H 0.1416 0.7572 0.4844
C92 C 0.2027(4) 0.7548(2) 0.5507(2)
H62 H 0.2743 0.7593 0.5420
C93 C 0.1774(5) 0.74930(16) 0.5975(2)
C94 C 0.0700(4) 0.74361(19) 0.6086(2)
H63 H 0.0493 0.7399 0.6403
C96 C 0.2629(5) 0.74903(17) 0.6356(2)
C97 C 0.1235(4) 0.65312(19) 0.71395(19)
H65 H 0.1700 0.6573 0.6884
C98 C 0.0502(4) 0.61369(19) 0.71179(17)
H66 H 0.0459 0.5915 0.6851
C101 C 0.0671(4) 0.67898(19) 0.78664(17)
H68 H 0.0722 0.7020 0.8128
C103 C 0.0698(4) 0.82041(19) 0.78874(18)
H69 H 0.0773 0.7984 0.8154
C106 C 0.0472(4) 0.8832(2) 0.71338(18)
H71 H 0.0411 0.9046 0.6862
C107 C 0.1199(4) 0.8440(2) 0.71494(19)
H72 H 0.1645 0.8394 0.6888
Co11 Co 0.75522(6) 0.99815(2) 0.68697(2)
Co14 Co 0.75427(6) 0.50036(2) 0.81293(2)
Co16 Co 0.74573(6) 0.50036(2) 0.68707(2)
Co18 Co 0.61313(6) 0.75065(2) 0.46762(3)
O49 O 0.3586(3) 0.44630(12) 0.28691(11)
O52 O 0.1208(3) 0.45787(12) 0.29001(11)
O54 O 0.8534(3) 0.94367(12) 0.78784(11)
N20 N 0.2544(3) 0.45192(14) 0.37437(13)
O33 O 0.6349(3) 0.04423(13) 0.65882(13)
O34 O 0.5977(4) 0.09680(19) 0.71887(15)
N11 N 0.8669(3) 0.05003(15) 0.65495(14)
N14 N 0.4490(3) 0.19271(16) 0.58067(15)
C61 C 0.9626(4) 0.06141(19) 0.67483(19)
H41 H 0.9820 0.0444 0.7033
C64 C 0.9129(4) 0.1085(2) 0.59216(19)
H43 H 0.8927 0.1243 0.5632
C65 C 0.8471(5) 0.0723(2) 0.6134(2)
H44 H 0.7838 0.0626 0.5973
C79 C 0.4952(5) 0.1496(2) 0.5663(2)
H53 H 0.4972 0.1438 0.5335
C80 C 0.5413(5) 0.1120(2) 0.5950(2)
H54 H 0.5728 0.0814 0.5825
C81 C 0.5395(5) 0.1212(2) 0.6433(2)
C82 C 0.4890(5) 0.1661(2) 0.6598(2)
H55 H 0.4852 0.1730 0.6924
C83 C 0.4448(5) 0.2002(2) 0.6271(2)
H56 H 0.4097 0.2306 0.6383
C84 C 0.5948(5) 0.0845(2) 0.6764(2)
Co20 Co 0.38687(6) 0.24935(2) 0.53238(3)
O12 O 0.8100(3) 0.66861(15) 0.12090(15)
C21 C 0.9703(4) 0.6185(2) 0.12244(19)
C22 C 0.9571(4) 0.5969(2) 0.1658(2)
H15 H 0.8977 0.6062 0.1839
C24 C 0.9005(4) 0.6618(2) 0.1040(2)
Co9 Co 0.89543(6) 0.74899(2) 0.47573(2)
O23 O 0.7583(3) 0.74959(10) 0.42937(12)
O24 O 0.4627(4) 0.74898(14) 0.50040(19)
O25 O 0.6538(3) 0.81250(13) 0.50973(13)
O26 O 0.8273(3) 0.80072(14) 0.52091(13)
O29 O 0.8391(3) 0.68362(13) 0.50875(13)
O30 O 0.6652(3) 0.69559(13) 0.51631(14)
O39 O 0.8586(3) 0.55370(12) 0.78691(11)
O40 O 0.8792(3) 0.54213(12) 0.70999(11)
O41 O 0.8836(3) 0.95650(12) 0.71163(11)
N10 N 0.7526(3) 0.95113(14) 0.62527(13)
N12 N 0.7456(3) 0.54808(14) 0.62563(13)
N15 N 0.9713(3) 0.69699(15) 0.42869(15)
C55 C 0.6595(4) 0.93372(18) 0.60764(17)
H37 H 0.5963 0.9498 0.6180
C56 C 0.6517(4) 0.89366(18) 0.57524(18)
H38 H 0.5847 0.8827 0.5633
C57 C 0.7451(4) 0.86956(17) 0.56031(16)
C58 C 0.8390(4) 0.8881(2) 0.57805(17)
H39 H 0.9035 0.8729 0.5682
C59 C 0.8409(4) 0.92859(19) 0.61012(18)
H40 H 0.9072 0.9408 0.6218
C60 C 0.7407(4) 0.82365(18) 0.52713(16)
C67 C 0.8360(4) 0.56558(19) 0.60804(17)
H45 H 0.9006 0.5502 0.6186
C68 C 0.8395(4) 0.60478(19) 0.57543(17)
H46 H 0.9056 0.6162 0.5639
C69 C 0.7472(4) 0.62777(17) 0.55931(15)
C70 C 0.6528(4) 0.60899(19) 0.57633(17)
H47 H 0.5873 0.6231 0.5655
C71 C 0.6551(4) 0.56975(18) 0.60897(17)
H48 H 0.5899 0.5571 0.6205
C72 C 0.7491(4) 0.67332(18) 0.52511(16)
C89 C 0.9706(5) 0.7072(2) 0.3816(2)
H60 H 0.9385 0.7388 0.3711
C95 C 0.9957(4) 0.74347(19) 0.57288(19)
H64 H 0.9231 0.7400 0.5803
C99 C 0.9811(3) 0.60625(16) 0.74942(16)
C100 C 0.9924(4) 0.63956(18) 0.78730(18)
H67 H 0.9487 0.6353 0.8138
C102 C 0.8994(4) 0.56312(16) 0.74811(16)
C104 C 0.9962(4) 0.85988(19) 0.78985(18)
H70 H 0.9553 0.8651 0.8171
C105 C 0.9817(4) 0.89223(17) 0.75105(16)
C108 C 0.9001(4) 0.93465(17) 0.75065(16)
O46 O 0.9602(3) 0.81132(13) 0.44041(13)
N22 N 0.5510(3) 0.80729(16) 0.41933(15)
H75 H 0.436319 0.712323 0.501358
H76 H 0.469851 0.76278 0.532821
Co6 Co 0.24478(6) 0.00185(2) 0.31303(2)
O23_2 O 0.2417(3) 0.25041(10) 0.57063(12)
O24_2 O 0.5373(4) 0.25102(14) 0.49960(19)
O25_2 O 0.3462(3) 0.18750(13) 0.49027(13)
O26_2 O 0.1727(3) 0.19928(14) 0.47909(13)
O29_2 O 0.1609(3) 0.31638(13) 0.49125(13)
O30_2 O 0.3348(3) 0.30441(13) 0.48369(14)
O41_2 O 0.1164(3) 0.04350(12) 0.28837(11)
O42 O 0.1466(3) 0.05633(12) 0.21216(11)
N10_2 N 0.2474(3) 0.04887(14) 0.37473(13)
N15_2 N 0.0287(3) 0.30301(15) 0.57131(15)
C55_2 C 0.3405(4) 0.06628(18) 0.39236(17)
H37_2 H 0.4037 0.0502 0.3820
C56_2 C 0.3483(4) 0.10634(18) 0.42476(18)
H38_2 H 0.4153 0.1173 0.4367
C57_2 C 0.2549(4) 0.13044(17) 0.43969(16)
C58_2 C 0.1610(4) 0.1119(2) 0.42195(17)
H39_2 H 0.0965 0.1271 0.4318
C59_2 C 0.1591(4) 0.07141(19) 0.38988(18)
H40_2 H 0.0928 0.0592 0.3782
C60_2 C 0.2593(4) 0.17635(18) 0.47287(16)
C67_2 C 0.1640(4) 0.43442(19) 0.39196(17)
H45_2 H 0.0994 0.4498 0.3814
C68_2 C 0.1605(4) 0.39522(19) 0.42457(17)
H46_2 H 0.0944 0.3838 0.4361
C69_2 C 0.2528(4) 0.37223(17) 0.44069(15)
C70_2 C 0.3472(4) 0.39101(19) 0.42367(17)
H47_2 H 0.4127 0.3769 0.4345
C71_2 C 0.3449(4) 0.43025(18) 0.39103(17)
H48_2 H 0.4101 0.4429 0.3795
C72_2 C 0.2509(4) 0.32668(18) 0.47489(16)
C89_2 C 0.0294(5) 0.2928(2) 0.6184(2)
H60_2 H 0.0615 0.2612 0.6289
C95_2 C 0.0043(4) 0.25653(19) 0.42712(19)
H64_2 H 0.0769 0.2600 0.4197
C99_2 C 0.0189(3) 0.39375(16) 0.25058(16)
C100_2 C 0.0076(4) 0.36044(18) 0.21270(18)
H67_2 H 0.0513 0.3647 0.1862
C102_2 C 0.1006(4) 0.43688(16) 0.25189(16)
C104_2 C 0.0038(4) 0.14012(19) 0.21015(18)
H70_2 H 0.0447 0.1349 0.1829
C105_2 C 0.0183(4) 0.10777(17) 0.24895(16)
C108_2 C 0.0999(4) 0.06535(17) 0.24935(16)
Co10 Co 0.25522(6) 0.00185(2) 0.18697(2)
O48 O 0.4418(3) 0.31046(14) 0.57332(14)
O53 O 0.3534(3) 0.05633(12) 0.28784(11)
H75_2 H 0.563681 0.287677 0.498642
H76_2 H 0.530149 0.23722 0.467179
O11 O 0.0582(3) 0.31046(14) 0.92668(14)
O12_2 O 0.1900(3) 0.33139(15) 0.87910(15)
C21_2 C 0.0297(4) 0.3815(2) 0.87756(19)
C22_2 C 0.0429(4) 0.4031(2) 0.8342(2)
H15_2 H 0.1023 0.3938 0.8161
C24_2 C 0.0995(4) 0.3382(2) 0.8960(2)
O33_2 O 0.3651(3) 0.95577(13) 0.34118(13)
O34_2 O 0.4023(4) 0.90320(19) 0.28113(15)
N11_2 N 0.1331(3) 0.94997(15) 0.34505(14)
C61_2 C 0.0374(4) 0.93859(19) 0.32517(19)
H41_2 H 0.0180 0.9556 0.2967
C64_2 C 0.0871(4) 0.8915(2) 0.40784(19)
H43_2 H 0.1073 0.8757 0.4368
C65_2 C 0.1529(5) 0.9277(2) 0.3866(2)
H44_2 H 0.2162 0.9374 0.4027
C79_2 C 0.5048(5) 0.8504(2) 0.4337(2)
H53_2 H 0.5028 0.8562 0.4665
C80_2 C 0.4587(5) 0.8880(2) 0.4050(2)
H54_2 H 0.4272 0.9186 0.4175
C81_2 C 0.4605(5) 0.8788(2) 0.3567(2)
C82_2 C 0.5110(5) 0.8339(2) 0.3402(2)
H55_2 H 0.5148 0.8270 0.3076
C83_2 C 0.5552(5) 0.7998(2) 0.3729(2)
H56_2 H 0.5903 0.7694 0.3617
C84_2 C 0.4052(5) 0.9155(2) 0.3236(2)
O43 O 0.2500 0.95757(16) 0.2500
Co5_2 Co 0.7500 0.25099(3) 0.2500
O5_2 O 0.1538(3) 0.18750(13) 0.00973(13)
O6_2 O 0.3273(3) 0.19928(14) 0.02091(13)
O9_2 O 0.3391(3) 0.31638(13) 0.00875(13)
O10_2 O 0.1652(3) 0.30441(13) 0.01631(14)
O17_2 O 0.7298(3) 0.25089(10) 0.17761(12)
O18_2 O 0.8548(4) 0.25201(18) 0.12313(18)
O21_2 O 0.3836(3) 0.04350(12) 0.21163(11)
N1_2 N 0.2526(3) 0.04887(14) 0.12527(13)
N7_2 N 0.5235(3) 0.25176(13) 0.02698(15)
N8_2 N 0.6332(3) 0.31358(14) 0.25058(14)
N9_2 N 0.6320(3) 0.18870(14) 0.25154(15)
C1_2 C 0.1595(4) 0.06628(18) 0.10764(17)
H1_2 H 0.0963 0.0502 0.1180
C2_2 C 0.1517(4) 0.10634(18) 0.07524(18)
H2_2 H 0.0847 0.1173 0.0633
C3_2 C 0.2451(4) 0.13044(17) 0.06031(16)
C4_2 C 0.3390(4) 0.1119(2) 0.07805(17)
H3_2 H 0.4035 0.1271 0.0682
C5_2 C 0.3409(4) 0.07141(19) 0.11012(18)
H4_2 H 0.4072 0.0592 0.1218
C6_2 C 0.2407(4) 0.17635(18) 0.02713(16)
C13_2 C 0.3360(4) 0.43442(19) 0.10804(17)
H9_2 H 0.4006 0.4498 0.1186
C14_2 C 0.3395(4) 0.39522(19) 0.07543(17)
H10_2 H 0.4056 0.3838 0.0639
C15_2 C 0.2472(4) 0.37223(17) 0.05931(15)
C16_2 C 0.1528(4) 0.39101(19) 0.07633(17)
H11_2 H 0.0873 0.3769 0.0655
C17_2 C 0.1551(4) 0.43025(18) 0.10897(17)
H12_2 H 0.0899 0.4429 0.1205
C18_2 C 0.2491(4) 0.32668(18) 0.02511(16)
C37_2 C 0.6230(4) 0.24622(18) 0.0164(2)
C38_2 C 0.7027(4) 0.2452(2) 0.0507(2)
H26_2 H 0.7743 0.2407 0.0420
C39_2 C 0.6774(5) 0.25070(16) 0.0975(2)
C40_2 C 0.5700(4) 0.25639(19) 0.1086(2)
H27_2 H 0.5493 0.2601 0.1403
C41_2 C 0.4957(4) 0.25653(19) 0.07288(19)
H28_2 H 0.4231 0.2600 0.0803
C42_2 C 0.7629(5) 0.25097(17) 0.1356(2)
C43_2 C 0.6235(4) 0.34688(19) 0.21395(19)
H29_2 H 0.6700 0.3427 0.1884
C44_2 C 0.5502(4) 0.38631(19) 0.21179(17)
H30_2 H 0.5459 0.4085 0.1851
C45_2 C 0.4811(3) 0.39375(16) 0.24942(16)
C46_2 C 0.4924(4) 0.36044(18) 0.28730(18)
H31_2 H 0.4487 0.3647 0.3138
C47_2 C 0.5671(4) 0.32102(19) 0.28664(17)
H32_2 H 0.5722 0.2980 0.3128
C48_2 C 0.3994(4) 0.43688(16) 0.24811(16)
C49_2 C 0.5698(4) 0.17959(19) 0.28874(18)
H33_2 H 0.5773 0.2016 0.3154
C50_2 C 0.4962(4) 0.14012(19) 0.28985(18)
H34_2 H 0.4553 0.1349 0.3171
C51_2 C 0.4817(4) 0.10777(17) 0.25105(16)
C52_2 C 0.5472(4) 0.1168(2) 0.21338(18)
H35_2 H 0.5411 0.0954 0.1862
C53_2 C 0.6199(4) 0.1560(2) 0.21494(19)
H36_2 H 0.6645 0.1606 0.1888
C54_2 C 0.4001(4) 0.06535(17) 0.25065(16)
O32_2 O 0.3100(3) 0.33139(15) 0.62090(15)
O35_2 O 0.8465(3) 0.44906(13) 0.65417(12)
O36_2 O 0.8911(4) 0.39567(16) 0.71334(14)
O37_2 O 0.7702(3) 0.25089(10) 0.32239(12)
O38_2 O 0.6452(4) 0.25201(18) 0.37687(18)
N13_2 N 0.6172(3) 0.45428(15) 0.65884(14)
N16_2 N 0.9765(3) 0.25176(13) 0.47302(15)
N17_2 N 0.8668(3) 0.31358(14) 0.24942(14)
N18_2 N 0.8680(3) 0.18870(14) 0.24846(15)
C73_2 C 0.6223(5) 0.4351(2) 0.6154(2)
H49_2 H 0.6778 0.4473 0.5962
C74_2 C 0.5523(5) 0.3984(2) 0.5961(2)
H50_2 H 0.5617 0.3854 0.5652
C75_2 C 0.4703(4) 0.3815(2) 0.62244(19)
C76_2 C 0.4571(4) 0.4031(2) 0.6658(2)
H51_2 H 0.3977 0.3938 0.6839
C77_2 C 0.5313(4) 0.4390(2) 0.6833(2)
H52_2 H 0.5212 0.4533 0.7136
C78_2 C 0.4005(4) 0.3382(2) 0.6040(2)
C85_2 C 0.9819(5) 0.3471(2) 0.5589(2)
H57_2 H 0.9807 0.3555 0.5265
C86_2 C 0.9338(5) 0.3827(2) 0.58917(19)
H58_2 H 0.8988 0.4131 0.5776
C87_2 C 0.9389(5) 0.3720(2) 0.6361(2)
C88_2 C 0.9864(5) 0.3256(2) 0.6516(2)
H59_2 H 0.9891 0.3168 0.6840
C90_2 C 0.8896(5) 0.4081(2) 0.67096(19)
C91_2 C 0.8770(4) 0.24622(18) 0.4836(2)
H61_2 H 0.8584 0.2428 0.5156
C92_2 C 0.7973(4) 0.2452(2) 0.4493(2)
H62_2 H 0.7257 0.2407 0.4580
C93_2 C 0.8226(5) 0.25070(16) 0.4025(2)
C94_2 C 0.9300(4) 0.25639(19) 0.3914(2)
H63_2 H 0.9507 0.2601 0.3597
C96_2 C 0.7371(5) 0.25097(17) 0.3644(2)
C97_2 C 0.8765(4) 0.34688(19) 0.28605(19)
H65_2 H 0.8300 0.3427 0.3116
C98_2 C 0.9498(4) 0.38631(19) 0.28821(17)
H66_2 H 0.9541 0.4085 0.3149
C101_2 C 0.9329(4) 0.32102(19) 0.21336(17)
H68_2 H 0.9278 0.2980 0.1872
C103_2 C 0.9302(4) 0.17959(19) 0.21126(18)
H69_2 H 0.9227 0.2016 0.1846
C106_2 C 0.9528(4) 0.1168(2) 0.28662(18)
H71_2 H 0.9589 0.0954 0.3138
C107_2 C 0.8801(4) 0.1560(2) 0.28506(19)
H72_2 H 0.8355 0.1606 0.3112
O44 O 0.7500 0.45423(16) 0.7500
O3_2 O 0.2583(3) 0.25041(10) 0.92937(12)
O15_2 O 0.6535(3) 0.44906(13) 0.84583(12)
O16_2 O 0.6089(4) 0.39567(16) 0.78666(14)
N4_2 N 0.8828(3) 0.45428(15) 0.84116(14)
N6_2 N 0.4713(3) 0.30301(15) 0.92869(15)
C19_2 C 0.8777(5) 0.4351(2) 0.8846(2)
H13_2 H 0.8222 0.4473 0.9038
C20_2 C 0.9477(5) 0.3984(2) 0.9039(2)
H14_2 H 0.9383 0.3854 0.9348
C23_2 C 0.9687(4) 0.4390(2) 0.8167(2)
H16_2 H 0.9788 0.4533 0.7864
C31_2 C 0.5181(5) 0.3471(2) 0.9411(2)
H21_2 H 0.5193 0.3555 0.9735
C32_2 C 0.5662(5) 0.3827(2) 0.91083(19)
H22_2 H 0.6012 0.4131 0.9224
C33_2 C 0.5611(5) 0.3720(2) 0.8639(2)
C34_2 C 0.5136(5) 0.3256(2) 0.8484(2)
H23_2 H 0.5109 0.3168 0.8160
C35_2 C 0.4706(5) 0.2928(2) 0.8816(2)
H24_2 H 0.4385 0.2612 0.8711
C36_2 C 0.6104(5) 0.4081(2) 0.82904(19)
H25_2 H 0.6416 0.2428 0.9844
O8_2 O 0.6669(3) 0.83057(15) 0.11198(14)
O13_2 O 0.1349(3) 0.95577(13) 0.15882(13)
O14_2 O 0.0977(4) 0.90320(19) 0.21887(15)
N2_2 N 0.3669(3) 0.94997(15) 0.15495(14)
C7_2 C 0.4626(4) 0.93859(19) 0.17483(19)
H5_2 H 0.4820 0.9556 0.2033
C8_2 C 0.5338(4) 0.9032(2) 0.15546(19)
H6_2 H 0.5993 0.8960 0.1708
C9_2 C 0.5076(4) 0.87883(19) 0.11357(18)
C10_2 C 0.4129(4) 0.8915(2) 0.09216(19)
H7_2 H 0.3927 0.8757 0.0632
C11_2 C 0.3471(5) 0.9277(2) 0.1134(2)
H8_2 H 0.2838 0.9374 0.0973
C12_2 C 0.5788(4) 0.83812(19) 0.09309(18)
C26_2 C 0.0413(5) 0.8880(2) 0.0950(2)
H18_2 H 0.0728 0.9186 0.0825
C27_2 C 0.0395(5) 0.8788(2) 0.1433(2)
C30_2 C 0.0948(5) 0.9155(2) 0.1764(2)
O28_2 O 0.8331(3) 0.83057(15) 0.38802(14)
C62_2 C 0.9662(4) 0.9032(2) 0.34454(19)
H42_2 H 0.9007 0.8960 0.3292
C63_2 C 0.9924(4) 0.87883(19) 0.38643(18)
C66_2 C 0.9212(4) 0.83812(19) 0.40691(18)
C25_2 C 0.9952(5) 0.8504(2) 0.0663(2)
H17_2 H 0.9972 0.8562 0.0335
C28_2 C 0.9890(5) 0.8339(2) 0.1598(2)
H19_2 H 0.9852 0.8270 0.1924
C29_2 C 0.9448(5) 0.7998(2) 0.1271(2)
H20_2 H 0.9097 0.7694 0.1383
O4 O 0.0373(4) 0.74898(14) 0.99960(19)
H73 H 0.0636812 0.712323 0.998642
H74 H 0.0301492 0.76278 0.967179
O4_2 O 0.9627(4) 0.25102(14) 0.00040(19)
H73_2 H 0.936319 0.287677 0.00135846
H74_2 H 0.969851 0.23722 0.0328208
loop_
_geom_bond_atom_site_label_1
_geom_bond_atom_site_label_2
_geom_bond_site_symmetry_1
_geom_bond_site_symmetry_2
N5 C25 1_555 1_555
C25 H17 1_555 1_555
H19 C28 1_555 1_555
C29 N5 1_555 1_555
H20 C29 1_555 1_555
Co19 N5 1_555 1_555
C28 C29 1_555 1_555
O7 C12 1_555 1_555
O8 C12 1_555 1_555
O14 C30 1_555 1_555
C7 N2 1_555 1_555
H5 C7 1_555 1_555
C8 C7 1_555 1_555
H6 C8 1_555 1_555
C9 C8 1_555 1_555
C10 C9 1_555 1_555
H7 C10 1_555 1_555
C11 N2 1_555 1_555
H8 C11 1_555 1_555
C12 C9 1_555 1_555
H18 C26 1_555 1_555
C27 C26 1_555 1_555
C30 O13 1_555 1_555
O27 C66 1_555 1_555
O28 C66 1_555 1_555
H42 C62 1_555 1_555
C63 C62 1_555 1_555
C66 C63 1_555 1_555
Co21 O7 1_555 1_555
Co22 O27 1_555 1_555
C10 C11 1_555 1_555
C27 C30 1_555 1_555
Co2 O2 1_555 1_555
Co3 O3 1_555 1_555
Co4 O3 1_555 1_555
O2 Co12 1_555 1_555
O15 Co2 1_555 1_555
O16 C36 1_555 1_555
N4 Co2 1_555 1_555
N6 Co4 1_555 1_555
C19 N4 1_555 1_555
H13 C19 1_555 1_555
C20 C19 1_555 1_555
H14 C20 1_555 1_555
C23 N4 1_555 1_555
H16 C23 1_555 1_555
C31 N6 1_555 1_555
H21 C31 1_555 1_555
C32 C31 1_555 1_555
H22 C32 1_555 1_555
C33 C32 1_555 1_555
C34 C33 1_555 1_555
H23 C34 1_555 1_555
C35 N6 1_555 1_555
H24 C35 1_555 1_555
C36 O15 1_555 1_555
O45 Co4 1_555 1_555
O47 Co3 1_555 1_555
O50 Co2 1_555 1_555
O51 Co2 1_555 1_555
N19 Co2 1_555 1_555
N21 Co3 1_555 1_555
C33 C36 1_555 1_555
C34 C35 1_555 1_555
Co5 O17 1_555 1_555
O17 C42 1_555 1_555
O18 C42 1_555 1_555
O19 C48 1_555 1_555
O20 C48 1_555 1_555
O21 Co1 1_555 1_555
O22 C54 1_555 1_555
N1 Co1 1_555 1_555
N3 C13 1_555 1_555
N8 Co5 1_555 1_555
N9 Co5 1_555 1_555
C1 N1 1_555 1_555
H1 C1 1_555 1_555
C2 C1 1_555 1_555
H2 C2 1_555 1_555
C3 C2 1_555 1_555
C4 C3 1_555 1_555
H3 C4 1_555 1_555
C5 N1 1_555 1_555
H4 C5 1_555 1_555
C6 O5 1_555 1_555
C13 H9 1_555 1_555
C14 C13 1_555 1_555
H10 C14 1_555 1_555
C15 C14 1_555 1_555
C16 C15 1_555 1_555
H11 C16 1_555 1_555
C17 N3 1_555 1_555
H12 C17 1_555 1_555
C18 O9 1_555 1_555
C37 N7 1_555 1_555
C38 C37 1_555 1_555
H26 C38 1_555 1_555
C39 C38 1_555 1_555
C40 C39 1_555 1_555
H27 C40 1_555 1_555
C41 N7 1_555 1_555
H28 C41 1_555 1_555
C42 C39 1_555 1_555
C43 N8 1_555 1_555
H29 C43 1_555 1_555
C44 C43 1_555 1_555
H30 C44 1_555 1_555
C45 C44 1_555 1_555
C46 C45 1_555 1_555
H31 C46 1_555 1_555
C47 N8 1_555 1_555
H32 C47 1_555 1_555
C48 C45 1_555 1_555
C49 N9 1_555 1_555
H33 C49 1_555 1_555
C50 C49 1_555 1_555
H34 C50 1_555 1_555
C51 C50 1_555 1_555
C52 C51 1_555 1_555
H35 C52 1_555 1_555
C53 N9 1_555 1_555
H36 C53 1_555 1_555
C54 O21 1_555 1_555
Co12 O35 1_555 1_555
O31 C78 1_555 1_555
O32 C78 1_555 1_555
O35 C90 1_555 1_555
O36 C90 1_555 1_555
O37 Co5 1_555 1_555
O38 C96 1_555 1_555
N13 Co12 1_555 1_555
N17 Co5 1_555 1_555
N18 Co5 1_555 1_555
C73 N13 1_555 1_555
H49 C73 1_555 1_555
C74 C73 1_555 1_555
H50 C74 1_555 1_555
C75 C74 1_555 1_555
C76 C75 1_555 1_555
H51 C76 1_555 1_555
C77 N13 1_555 1_555
H52 C77 1_555 1_555
C78 C75 1_555 1_555
H57 C85 1_555 1_555
C86 C85 1_555 1_555
H58 C86 1_555 1_555
C87 C86 1_555 1_555
C88 C87 1_555 1_555
H59 C88 1_555 1_555
C90 C87 1_555 1_555
C91 N16 1_555 1_555
H61 C91 1_555 1_555
C92 C91 1_555 1_555
H62 C92 1_555 1_555
C93 C92 1_555 1_555
C94 C93 1_555 1_555
H63 C94 1_555 1_555
C96 O37 1_555 1_555
C97 N17 1_555 1_555
H65 C97 1_555 1_555
C98 C97 1_555 1_555
H66 C98 1_555 1_555
C101 N17 1_555 1_555
H68 C101 1_555 1_555
C103 N18 1_555 1_555
H69 C103 1_555 1_555
H71 C106 1_555 1_555
C107 N18 1_555 1_555
H72 C107 1_555 1_555
Co11 O22 1_555 1_555
Co14 O20 1_555 1_555
Co16 O19 1_555 1_555
Co18 O31 1_555 1_555
O49 Co12 1_555 1_555
O52 Co12 1_555 1_555
O54 Co1 1_555 1_555
N20 Co12 1_555 1_555
O6 C6 1_555 1_555
O10 C18 1_555 1_555
N3 Co14 1_555 1_555
C3 C6 1_555 1_555
C4 C5 1_555 1_555
C15 C18 1_555 1_555
C16 C17 1_555 1_555
C40 C41 1_555 1_555
C46 C47 1_555 1_555
C51 C54 1_555 1_555
C52 C53 1_555 1_555
C76 C77 1_555 1_555
C93 C96 1_555 1_555
C106 C107 1_555 1_555
O33 C84 1_555 1_555
O34 C84 1_555 1_555
N14 C79 1_555 1_555
C61 N11 1_555 1_555
H41 C61 1_555 1_555
H43 C64 1_555 1_555
C65 N11 1_555 1_555
H44 C65 1_555 1_555
C79 H53 1_555 1_555
C80 C79 1_555 1_555
H54 C80 1_555 1_555
C81 C80 1_555 1_555
C82 C81 1_555 1_555
H55 C82 1_555 1_555
C83 N14 1_555 1_555
H56 C83 1_555 1_555
C84 C81 1_555 1_555
Co20 N14 1_555 1_555
C64 C65 1_555 1_555
C82 C83 1_555 1_555
O47 C24 1_555 1_555
O12 C24 1_555 1_555
C22 C21 1_555 1_555
H15 C22 1_555 1_555
C24 C21 1_555 1_555
Co18 O23 1_555 1_555
Co9 O23 1_555 1_555
O24 Co18 1_555 1_555
O25 Co18 1_555 1_555
O26 Co9 1_555 1_555
O29 Co9 1_555 1_555
O30 Co18 1_555 1_555
O39 C102 1_555 1_555
O40 C102 1_555 1_555
O41 Co11 1_555 1_555
O54 C108 1_555 1_555
N10 Co11 1_555 1_555
N12 C67 1_555 1_555
N15 Co9 1_555 1_555
C55 N10 1_555 1_555
H37 C55 1_555 1_555
C56 C55 1_555 1_555
H38 C56 1_555 1_555
C57 C56 1_555 1_555
C58 C57 1_555 1_555
H39 C58 1_555 1_555
C59 N10 1_555 1_555
H40 C59 1_555 1_555
C60 O25 1_555 1_555
C67 H45 1_555 1_555
C68 C67 1_555 1_555
H46 C68 1_555 1_555
C69 C68 1_555 1_555
C70 C69 1_555 1_555
H47 C70 1_555 1_555
C71 N12 1_555 1_555
H48 C71 1_555 1_555
C72 O29 1_555 1_555
C89 N15 1_555 1_555
H60 C89 1_555 1_555
H64 C95 1_555 1_555
C100 C99 1_555 1_555
H67 C100 1_555 1_555
C102 C99 1_555 1_555
H70 C104 1_555 1_555
C105 C104 1_555 1_555
C108 O41 1_555 1_555
Co14 O39 1_555 1_555
Co16 O40 1_555 1_555
O46 Co9 1_555 1_555
N22 Co18 1_555 1_555
O26 C60 1_555 1_555
O30 C72 1_555 1_555
N12 Co16 1_555 1_555
C57 C60 1_555 1_555
C58 C59 1_555 1_555
C69 C72 1_555 1_555
C70 C71 1_555 1_555
C105 C108 1_555 1_555
O24 H75 1_555 1_555
O24 H76 1_555 1_555
Co20 O23_2 1_555 1_555
Co22 O23_2 1_555 1_555
O24_2 Co20 1_555 1_555
O25_2 Co20 1_555 1_555
O26_2 Co22 1_555 1_555
O29_2 Co22 1_555 1_555
O30_2 Co20 1_555 1_555
O50 C102_2 1_555 1_555
O52 C102_2 1_555 1_555
O41_2 Co6 1_555 1_555
O42 C108_2 1_555 1_555
N10_2 Co6 1_555 1_555
N20 C67_2 1_555 1_555
N15_2 Co22 1_555 1_555
C55_2 N10_2 1_555 1_555
H37_2 C55_2 1_555 1_555
C56_2 C55_2 1_555 1_555
H38_2 C56_2 1_555 1_555
C57_2 C56_2 1_555 1_555
C58_2 C57_2 1_555 1_555
H39_2 C58_2 1_555 1_555
C59_2 N10_2 1_555 1_555
H40_2 C59_2 1_555 1_555
C60_2 O25_2 1_555 1_555
C67_2 H45_2 1_555 1_555
C68_2 C67_2 1_555 1_555
H46_2 C68_2 1_555 1_555
C69_2 C68_2 1_555 1_555
C70_2 C69_2 1_555 1_555
H47_2 C70_2 1_555 1_555
C71_2 N20 1_555 1_555
H48_2 C71_2 1_555 1_555
C72_2 O29_2 1_555 1_555
C89_2 N15_2 1_555 1_555
H60_2 C89_2 1_555 1_555
H64_2 C95_2 1_555 1_555
C100_2 C99_2 1_555 1_555
H67_2 C100_2 1_555 1_555
C102_2 C99_2 1_555 1_555
H70_2 C104_2 1_555 1_555
C105_2 C104_2 1_555 1_555
C108_2 O41_2 1_555 1_555
Co10 O42 1_555 1_555
O48 Co20 1_555 1_555
O53 Co6 1_555 1_555
O26_2 C60_2 1_555 1_555
O30_2 C72_2 1_555 1_555
C57_2 C60_2 1_555 1_555
C58_2 C59_2 1_555 1_555
C69_2 C72_2 1_555 1_555
C70_2 C71_2 1_555 1_555
C105_2 C108_2 1_555 1_555
O24_2 H75_2 1_555 1_555
O24_2 H76_2 1_555 1_555
O11 C24_2 1_555 1_555
O12_2 C24_2 1_555 1_555
C22_2 C21_2 1_555 1_555
H15_2 C22_2 1_555 1_555
C24_2 C21_2 1_555 1_555
Co19 O11 1_555 1_555
O33_2 C84_2 1_555 1_555
O34_2 C84_2 1_555 1_555
N22 C79_2 1_555 1_555
C61_2 N11_2 1_555 1_555
H41_2 C61_2 1_555 1_555
H43_2 C64_2 1_555 1_555
C65_2 N11_2 1_555 1_555
H44_2 C65_2 1_555 1_555
C79_2 H53_2 1_555 1_555
C80_2 C79_2 1_555 1_555
H54_2 C80_2 1_555 1_555
C81_2 C80_2 1_555 1_555
C82_2 C81_2 1_555 1_555
H55_2 C82_2 1_555 1_555
C83_2 N22 1_555 1_555
H56_2 C83_2 1_555 1_555
C84_2 C81_2 1_555 1_555
C64_2 C65_2 1_555 1_555
C82_2 C83_2 1_555 1_555
Co5_2 O17_2 1_555 1_555
O17_2 C42_2 1_555 1_555
O18_2 C42_2 1_555 1_555
O49 C48_2 1_555 1_555
O51 C48_2 1_555 1_555
O21_2 Co10 1_555 1_555
O53 C54_2 1_555 1_555
N1_2 Co10 1_555 1_555
N19 C13_2 1_555 1_555
N8_2 Co5_2 1_555 1_555
N9_2 Co5_2 1_555 1_555
C1_2 N1_2 1_555 1_555
H1_2 C1_2 1_555 1_555
C2_2 C1_2 1_555 1_555
H2_2 C2_2 1_555 1_555
C3_2 C2_2 1_555 1_555
C4_2 C3_2 1_555 1_555
H3_2 C4_2 1_555 1_555
C5_2 N1_2 1_555 1_555
H4_2 C5_2 1_555 1_555
C6_2 O5_2 1_555 1_555
C13_2 H9_2 1_555 1_555
C14_2 C13_2 1_555 1_555
H10_2 C14_2 1_555 1_555
C15_2 C14_2 1_555 1_555
C16_2 C15_2 1_555 1_555
H11_2 C16_2 1_555 1_555
C17_2 N19 1_555 1_555
H12_2 C17_2 1_555 1_555
C18_2 O9_2 1_555 1_555
C37_2 N7_2 1_555 1_555
C38_2 C37_2 1_555 1_555
H26_2 C38_2 1_555 1_555
C39_2 C38_2 1_555 1_555
C40_2 C39_2 1_555 1_555
H27_2 C40_2 1_555 1_555
C41_2 N7_2 1_555 1_555
H28_2 C41_2 1_555 1_555
C42_2 C39_2 1_555 1_555
C43_2 N8_2 1_555 1_555
H29_2 C43_2 1_555 1_555
C44_2 C43_2 1_555 1_555
H30_2 C44_2 1_555 1_555
C45_2 C44_2 1_555 1_555
C46_2 C45_2 1_555 1_555
H31_2 C46_2 1_555 1_555
C47_2 N8_2 1_555 1_555
H32_2 C47_2 1_555 1_555
C48_2 C45_2 1_555 1_555
C49_2 N9_2 1_555 1_555
H33_2 C49_2 1_555 1_555
C50_2 C49_2 1_555 1_555
H34_2 C50_2 1_555 1_555
C51_2 C50_2 1_555 1_555
C52_2 C51_2 1_555 1_555
H35_2 C52_2 1_555 1_555
C53_2 N9_2 1_555 1_555
H36_2 C53_2 1_555 1_555
C54_2 O21_2 1_555 1_555
Co16 O35_2 1_555 1_555
O48 C78_2 1_555 1_555
O32_2 C78_2 1_555 1_555
O35_2 C90_2 1_555 1_555
O36_2 C90_2 1_555 1_555
O37_2 Co5_2 1_555 1_555
O38_2 C96_2 1_555 1_555
N13_2 Co16 1_555 1_555
N17_2 Co5_2 1_555 1_555
N18_2 Co5_2 1_555 1_555
C73_2 N13_2 1_555 1_555
H49_2 C73_2 1_555 1_555
C74_2 C73_2 1_555 1_555
H50_2 C74_2 1_555 1_555
C75_2 C74_2 1_555 1_555
C76_2 C75_2 1_555 1_555
H51_2 C76_2 1_555 1_555
C77_2 N13_2 1_555 1_555
H52_2 C77_2 1_555 1_555
C78_2 C75_2 1_555 1_555
H57_2 C85_2 1_555 1_555
C86_2 C85_2 1_555 1_555
H58_2 C86_2 1_555 1_555
C87_2 C86_2 1_555 1_555
C88_2 C87_2 1_555 1_555
H59_2 C88_2 1_555 1_555
C90_2 C87_2 1_555 1_555
C91_2 N16_2 1_555 1_555
H61_2 C91_2 1_555 1_555
C92_2 C91_2 1_555 1_555
H62_2 C92_2 1_555 1_555
C93_2 C92_2 1_555 1_555
C94_2 C93_2 1_555 1_555
H63_2 C94_2 1_555 1_555
C96_2 O37_2 1_555 1_555
C97_2 N17_2 1_555 1_555
H65_2 C97_2 1_555 1_555
C98_2 C97_2 1_555 1_555
H66_2 C98_2 1_555 1_555
C101_2 N17_2 1_555 1_555
H68_2 C101_2 1_555 1_555
C103_2 N18_2 1_555 1_555
H69_2 C103_2 1_555 1_555
H71_2 C106_2 1_555 1_555
C107_2 N18_2 1_555 1_555
H72_2 C107_2 1_555 1_555
O44 Co16 1_555 1_555
O6_2 C6_2 1_555 1_555
O10_2 C18_2 1_555 1_555
C3_2 C6_2 1_555 1_555
C4_2 C5_2 1_555 1_555
C15_2 C18_2 1_555 1_555
C16_2 C17_2 1_555 1_555
C40_2 C41_2 1_555 1_555
C46_2 C47_2 1_555 1_555
C51_2 C54_2 1_555 1_555
C52_2 C53_2 1_555 1_555
C76_2 C77_2 1_555 1_555
C93_2 C96_2 1_555 1_555
C106_2 C107_2 1_555 1_555
Co14 O44 1_555 1_555
Co19 O3_2 1_555 1_555
Co21 O3_2 1_555 1_555
O15_2 Co14 1_555 1_555
O16_2 C36_2 1_555 1_555
N4_2 Co14 1_555 1_555
N6_2 Co21 1_555 1_555
C19_2 N4_2 1_555 1_555
H13_2 C19_2 1_555 1_555
C20_2 C19_2 1_555 1_555
H14_2 C20_2 1_555 1_555
C23_2 N4_2 1_555 1_555
H16_2 C23_2 1_555 1_555
C31_2 N6_2 1_555 1_555
H21_2 C31_2 1_555 1_555
C32_2 C31_2 1_555 1_555
H22_2 C32_2 1_555 1_555
C33_2 C32_2 1_555 1_555
C34_2 C33_2 1_555 1_555
H23_2 C34_2 1_555 1_555
C35_2 N6_2 1_555 1_555
H24_2 C35_2 1_555 1_555
C36_2 O15_2 1_555 1_555
C33_2 C36_2 1_555 1_555
C34_2 C35_2 1_555 1_555
O45 C12_2 1_555 1_555
O8_2 C12_2 1_555 1_555
O14_2 C30_2 1_555 1_555
C7_2 N2_2 1_555 1_555
H5_2 C7_2 1_555 1_555
C8_2 C7_2 1_555 1_555
H6_2 C8_2 1_555 1_555
C9_2 C8_2 1_555 1_555
C10_2 C9_2 1_555 1_555
H7_2 C10_2 1_555 1_555
C11_2 N2_2 1_555 1_555
H8_2 C11_2 1_555 1_555
C12_2 C9_2 1_555 1_555
H18_2 C26_2 1_555 1_555
C27_2 C26_2 1_555 1_555
C30_2 O13_2 1_555 1_555
O46 C66_2 1_555 1_555
O28_2 C66_2 1_555 1_555
H42_2 C62_2 1_555 1_555
C63_2 C62_2 1_555 1_555
C66_2 C63_2 1_555 1_555
C10_2 C11_2 1_555 1_555
C27_2 C30_2 1_555 1_555
N21 C25_2 1_555 1_555
C25_2 H17_2 1_555 1_555
H19_2 C28_2 1_555 1_555
C29_2 N21 1_555 1_555
H20_2 C29_2 1_555 1_555
C28_2 C29_2 1_555 1_555
O4 H73 1_555 1_555
O4 H74 1_555 1_555
O4_2 H73_2 1_555 1_555
O4_2 H74_2 1_555 1_555

#END
