
###############################################################################
#
# This file contains modified crystal structure data generated from the
# MOF subset of the Cambridge Structural Database (CSD) v543 
# hosted by the Cambridge Crystallographic Data Centre (CCDC).
#
# This work is licensed under the Creative Commons
# Attribution-NonCommercial-ShareAlike 4.0 International License.
# To view a copy of this license, visit
# http://creativecommons.org/licenses/by-nc-sa/4.0/
# or send a letter to
# Creative Commons, PO Box 1866, Mountain View, CA 94042, USA.
#
# CIF created using the CSD Python API on 29 September 2022
# The structure has been converted into the P1 space group
# The structure has a 3D framework
# The original CSD entry BOWDOI is in the monoclinic crystal system
# The framework has been calculated to contain at least 10.0% void space
# The void calculation uses a probe of radius 1.32A, grid spacing 0.4
# H atom positions have been added when not included in the experimental data
#
###############################################################################

data_BOWDOI
_chemical_formula_moiety         '(C432 H304 Co38 N72 O164)n'
_symmetry_cell_setting           triclinic
_symmetry_space_group_name_H-M   'P 1'
_symmetry_Int_Tables_number      1
_space_group_name_Hall           'P 1'
loop_
_symmetry_equiv_pos_site_id
_symmetry_equiv_pos_as_xyz
1 x,y,z
_cell_length_a                   31.263(5)
_cell_length_b                   25.383(5)
_cell_length_c                   26.217(5)
_cell_angle_alpha                90
_cell_angle_beta                 116.261(5)
_cell_angle_gamma                90
_cell_volume                     18657.2
loop_
_atom_site_label
_atom_site_type_symbol
_atom_site_fract_x
_atom_site_fract_y
_atom_site_fract_z
Co1 Co 0.067392(17) 0.23968(2) 0.02770(2)
Co4 Co 0.200530(18) 0.49697(2) 0.29190(2)
Co5 Co 0.0000 0.00634(3) 0.2500
O3 O 0.04103(8) 0.18433(10) 0.06559(10)
O8 O 0.09506(9) 0.28405(10) 0.10257(10)
O9 O 0.03115(12) 0.3260(2) 0.0945(2)
O16 O 0.07399(8) 0.00748(9) 0.29928(10)
O17 O 0.12887(9) 0.00073(11) 0.26712(11)
O18 O 0.23944(11) 0.04795(15) 0.07514(11)
O19 O 0.16701(8) 0.49476(9) 0.34596(9)
O20 O 0.23322(10) 0.49773(11) 0.23671(11)
O21 O 0.25322(9) 0.05773(10) 0.16482(10)
N1 N 0.00322(10) 0.06762(12) 0.19375(11)
N4 N 0.15725(11) 0.43205(14) 0.24307(14)
N8 N 0.22760(10) 0.00910(12) 0.47703(12)
N9 N 0.12973(10) 0.19312(12) 0.05947(12)
C3 C 0.00313(12) 0.13987(14) 0.11338(14)
C4 C 0.04180(12) 0.10751(15) 0.14228(15)
H3 H 0.0685 0.1095 0.1353
C5 C 0.04064(12) 0.07206(15) 0.18176(15)
H4 H 0.0669 0.0504 0.2008
C6 C 0.00250(12) 0.17794(13) 0.06878(14)
C19 C 0.17789(14) 0.39633(18) 0.22260(18)
H13 H 0.2108 0.3979 0.2354
C20 C 0.15302(14) 0.35805(18) 0.18420(19)
H14 H 0.1688 0.3341 0.1716
C21 C 0.10388(15) 0.3554(2) 0.1643(2)
C22 C 0.08306(15) 0.3887(2) 0.1884(2)
H15 H 0.0507 0.3861 0.1786
C23 C 0.11031(14) 0.42549(19) 0.22680(19)
H16 H 0.0956 0.4474 0.2427
C24 C 0.07412(14) 0.3181(2) 0.1159(2)
C40 C 0.15311(15) 0.36467(18) 0.00289(17)
H27 H 0.1793 0.3843 0.0273
C41 C 0.13536(14) 0.32493(17) 0.02386(16)
H28 H 0.1501 0.3185 0.0628
C43 C 0.18139(13) 0.00840(16) 0.46629(15)
H29 H 0.1738 0.0082 0.4968
C44 C 0.14471(12) 0.00793(16) 0.41176(16)
H30 H 0.1131 0.0072 0.4059
C45 C 0.15539(13) 0.00849(15) 0.36629(15)
C46 C 0.20258(13) 0.01033(16) 0.37684(15)
H31 H 0.2110 0.0112 0.3470
C47 C 0.23757(13) 0.01086(16) 0.43318(15)
H32 H 0.2694 0.0125 0.4401
C48 C 0.11616(12) 0.00552(14) 0.30521(14)
C49 C 0.14534(12) 0.17204(15) 0.02401(15)
C50 C 0.17908(12) 0.13277(16) 0.04016(15)
H34 H 0.1886 0.1186 0.0141
C51 C 0.19874(12) 0.11448(14) 0.09587(14)
C52 C 0.18411(13) 0.13860(16) 0.13335(15)
H35 H 0.1975 0.1287 0.1714
C53 C 0.15016(13) 0.17658(16) 0.11372(15)
H36 H 0.1405 0.1920 0.1391
C54 C 0.23389(12) 0.06964(15) 0.11394(15)
Co7 Co 0.060997(17) 0.24199(2) 0.53584(2)
Co8 Co 0.280934(18) 0.00639(2) 0.56338(2)
O23 O 0.03708(8) 0.19901(10) 0.46139(10)
O25 O 0.03624(8) 0.18536(10) 0.57373(10)
O27 O 0.08662(9) 0.28800(10) 0.60930(10)
O28 O 0.02330(12) 0.33880(19) 0.5917(2)
O31 O 0.24714(11) 0.06900(13) 0.57855(11)
O32 O 0.24899(9) 0.05985(10) 0.66431(10)
O33 O 0.17795(9) 0.44063(12) 0.45468(11)
O34 O 0.12396(10) 0.41754(12) 0.36763(11)
N11 N 0.00125(10) 0.05655(12) 0.69393(12)
N12 N 0.15303(11) 0.44037(14) 0.74268(13)
N14 N 0.12521(10) 0.19765(11) 0.56795(12)
N15 N 0.09003(10) 0.29792(12) 0.49729(12)
C55 C 0.03318(13) 0.09977(15) 0.33296(16)
H37 H 0.0588 0.0978 0.3241
C56 C 0.03555(13) 0.13634(15) 0.37350(15)
H38 H 0.0621 0.1579 0.3914
C61 C 0.03845(12) 0.06451(15) 0.68260(15)
H41 H 0.0651 0.0430 0.7000
C62 C 0.03882(13) 0.10382(15) 0.64573(15)
H42 H 0.0656 0.1087 0.6395
C67 C 0.10576(15) 0.4380(2) 0.7252(2)
H45 H 0.0918 0.4623 0.7399
C68 C 0.07712(16) 0.4016(2) 0.6869(2)
H46 H 0.0443 0.4025 0.6748
C69 C 0.09653(14) 0.36351(19) 0.66614(19)
C70 C 0.14610(14) 0.36221(18) 0.68821(18)
H47 H 0.1611 0.3355 0.6779
C71 C 0.17248(14) 0.40118(17) 0.72559(17)
H48 H 0.2055 0.4002 0.7397
C72 C 0.06636(15) 0.3267(2) 0.6191(2)
C79 C 0.14493(12) 0.17792(15) 0.62060(15)
H53 H 0.1342 0.1899 0.6464
C80 C 0.18055(12) 0.14052(15) 0.63834(15)
H54 H 0.1933 0.1274 0.6752
C81 C 0.19708(12) 0.12288(15) 0.60035(14)
C82 C 0.17769(13) 0.14436(16) 0.54628(15)
H55 H 0.1885 0.1337 0.5200
C83 C 0.14237(12) 0.18151(16) 0.53185(15)
H56 H 0.1298 0.1961 0.4956
C84 C 0.23446(12) 0.07972(15) 0.61589(14)
C85 C 0.07203(14) 0.30227(17) 0.44042(16)
H57 H 0.0476 0.2797 0.4176
C86 C 0.08847(15) 0.33895(17) 0.41493(16)
H58 H 0.0751 0.3410 0.3755
C87 C 0.12469(13) 0.37275(16) 0.44772(16)
C88 C 0.14410(15) 0.36810(18) 0.50594(17)
H59 H 0.1690 0.3898 0.5295
C89 C 0.12536(14) 0.32999(18) 0.52858(17)
H60 H 0.1384 0.3269 0.5679
C90 C 0.14358(13) 0.41381(17) 0.42054(15)
Co15 Co 0.219066(18) 0.49361(2) 0.43662(2)
Co19 Co 0.200530(18) 0.50303(2) 0.79190(2)
Co20 Co 0.299470(18) 0.00303(2) 0.70810(2)
O44 O 0.25101(9) 0.44015(10) 0.33569(10)
O46 O 0.32205(9) 0.05937(12) 0.54532(11)
O51 O 0.33299(8) 0.00524(9) 0.65404(9)
O54 O 0.24678(9) 0.55773(10) 0.33518(10)
N21 N 0.15303(11) 0.55963(14) 0.24268(13)
H73 H 0.208555 0.50301 0.196999
H74 H 0.25678 0.526896 0.247567
O1 O 0.00399(8) 0.28477(10) 0.99711(10)
O5 O 0.04144(8) 0.19855(9) 0.95160(9)
O14 O 0.12682(9) 0.42639(11) 0.86731(11)
O15 O 0.18342(10) 0.44583(12) 0.95465(11)
N7 N 0.09826(10) 0.29534(12) 0.99133(12)
C9 C 0.00057(12) 0.13529(14) 0.88136(15)
C10 C 0.03924(13) 0.12734(15) 0.86953(15)
H7 H 0.0665 0.1479 0.8869
C11 C 0.03632(12) 0.08809(15) 0.83127(15)
H8 H 0.0620 0.0836 0.8228
C12 C 0.00202(12) 0.17710(14) 0.92366(14)
C37 C 0.07816(13) 0.30469(16) 0.93514(15)
H25 H 0.0527 0.2838 0.9115
C38 C 0.09363(14) 0.34397(16) 0.91092(16)
H26 H 0.0786 0.3494 0.8718
C39 C 0.13153(13) 0.37497(15) 0.94518(16)
C42 C 0.14913(14) 0.41937(16) 0.92049(16)
H33 H 0.1328 0.1845 0.9868
Co10 Co 0.219066(18) 0.50639(2) 0.93662(2)
Co12 Co 0.280934(18) 0.99361(2) 0.06338(2)
Co17 Co 0.299470(18) 0.99697(2) 0.20810(2)
Co23 Co -0.0000 0.99366(3) 0.7500
O48 O 0.31658(10) 0.94583(12) 0.54535(11)
O50 O 0.23944(11) 0.95205(15) 0.57514(11)
N19 N 0.00125(10) 0.94345(12) 0.19393(12)
Co5_2 Co 1.0000 0.00634(3) 0.2500
O2 O 0.96292(8) 0.19901(10) 0.03861(10)
O12 O 0.82205(9) 0.44063(12) 0.04532(11)
O13 O 0.87604(10) 0.41754(12) 0.13237(11)
N6 N 0.90997(10) 0.29792(12) 0.00271(12)
C1 C 0.96682(13) 0.09977(15) 0.16704(16)
H1 H 0.9412 0.0978 0.1759
C2 C 0.96445(13) 0.13634(15) 0.12650(15)
H2 H 0.9379 0.1579 0.1086
H20 H 0.8702 0.1961 0.0044
C31 C 0.92797(14) 0.30227(17) 0.05958(16)
H21 H 0.9524 0.2797 0.0824
C32 C 0.91153(15) 0.33895(17) 0.08507(16)
H22 H 0.9249 0.3410 0.1245
C33 C 0.87531(13) 0.37275(16) 0.05228(16)
C36 C 0.85642(13) 0.41381(17) 0.07946(15)
Co6 Co 0.932608(17) 0.23968(2) 0.47230(2)
Co9 Co 0.799470(18) 0.49697(2) 0.20810(2)
O22 O 0.99601(8) 0.28477(10) 0.50289(10)
O24 O 0.95897(8) 0.18433(10) 0.43441(10)
O26 O 0.95856(8) 0.19855(9) 0.54840(9)
O29 O 0.90494(9) 0.28405(10) 0.39743(10)
O30 O 0.96885(12) 0.3260(2) 0.4055(2)
O35 O 0.87318(9) 0.42639(11) 0.63269(11)
O36 O 0.81658(10) 0.44583(12) 0.54535(11)
O37 O 0.92601(8) 0.00748(9) 0.20072(10)
O38 O 0.87113(9) 0.00073(11) 0.23288(11)
O39 O 0.76056(11) 0.04795(15) 0.42486(11)
O40 O 0.83299(8) 0.49476(9) 0.15404(9)
O41 O 0.76678(10) 0.49773(11) 0.26329(11)
O42 O 0.74678(9) 0.05773(10) 0.33518(10)
N10 N 0.99678(10) 0.06762(12) 0.30625(11)
N13 N 0.84275(11) 0.43205(14) 0.25693(14)
N16 N 0.90174(10) 0.29534(12) 0.50867(12)
N17 N 0.77240(10) 0.00910(12) 0.02297(12)
N18 N 0.87027(10) 0.19312(12) 0.44053(12)
C57 C 0.99687(12) 0.13987(14) 0.38662(14)
C58 C 0.95820(12) 0.10751(15) 0.35772(15)
H39 H 0.9315 0.1095 0.3647
C59 C 0.95936(12) 0.07206(15) 0.31824(15)
H40 H 0.9331 0.0504 0.2992
C60 C 0.99750(12) 0.17794(13) 0.43122(14)
C63 C 0.99943(12) 0.13529(14) 0.61864(15)
C64 C 0.96076(13) 0.12734(15) 0.63047(15)
H43 H 0.9335 0.1479 0.6131
C65 C 0.96368(12) 0.08809(15) 0.66873(15)
H44 H 0.9380 0.0836 0.6772
C66 C 0.99798(12) 0.17710(14) 0.57634(14)
C73 C 0.82211(14) 0.39633(18) 0.27740(18)
H49 H 0.7892 0.3979 0.2646
C74 C 0.84698(14) 0.35805(18) 0.31580(19)
H50 H 0.8312 0.3341 0.3284
C75 C 0.89612(15) 0.3554(2) 0.3357(2)
C76 C 0.91694(15) 0.3887(2) 0.3116(2)
H51 H 0.9493 0.3861 0.3214
C77 C 0.88969(14) 0.42549(19) 0.27320(19)
H52 H 0.9044 0.4474 0.2573
C78 C 0.92588(14) 0.3181(2) 0.3841(2)
C91 C 0.92184(13) 0.30469(16) 0.56486(15)
H61 H 0.9473 0.2838 0.5885
C92 C 0.90637(14) 0.34397(16) 0.58908(16)
H62 H 0.9214 0.3494 0.6282
C93 C 0.86847(13) 0.37497(15) 0.55482(16)
C94 C 0.84689(15) 0.36467(18) 0.49711(17)
H63 H 0.8207 0.3843 0.4727
C95 C 0.86464(14) 0.32493(17) 0.47614(16)
H64 H 0.8499 0.3185 0.4372
C96 C 0.85087(14) 0.41937(16) 0.57951(16)
C97 C 0.81861(13) 0.00840(16) 0.03371(15)
H65 H 0.8262 0.0082 0.0032
C98 C 0.85529(12) 0.00793(16) 0.08824(16)
H66 H 0.8869 0.0072 0.0941
C99 C 0.84461(13) 0.00849(15) 0.13371(15)
C100 C 0.79742(13) 0.01033(16) 0.12316(15)
H67 H 0.7890 0.0112 0.1530
C101 C 0.76243(13) 0.01086(16) 0.06682(15)
H68 H 0.7306 0.0125 0.0599
C102 C 0.88384(12) 0.00552(14) 0.19479(14)
C103 C 0.85466(12) 0.17204(15) 0.47599(15)
H69 H 0.8672 0.1845 0.5132
C104 C 0.82092(12) 0.13277(16) 0.45984(15)
H70 H 0.8114 0.1186 0.4859
C105 C 0.80126(12) 0.11448(14) 0.40413(14)
C106 C 0.81589(13) 0.13860(16) 0.36665(15)
H71 H 0.8025 0.1287 0.3286
C107 C 0.84984(13) 0.17658(16) 0.38628(15)
H72 H 0.8595 0.1920 0.3609
C108 C 0.76611(12) 0.06964(15) 0.38606(15)
Co11 Co 0.780934(18) 0.50639(2) 0.56338(2)
Co14 Co 0.780934(18) 0.49361(2) 0.06338(2)
O43 O 0.74899(9) 0.44015(10) 0.16431(10)
O53 O 0.75322(9) 0.55773(10) 0.16482(10)
N22 N 0.84697(11) 0.55963(14) 0.25732(13)
H75 H 0.791445 0.50301 0.303001
H76 H 0.74322 0.526896 0.252433
Co2 Co 0.939003(17) 0.24199(2) 0.96416(2)
Co3 Co 0.719066(18) 0.00639(2) 0.93662(2)
O4 O 0.96376(8) 0.18536(10) 0.92627(10)
O6 O 0.91338(9) 0.28800(10) 0.89070(10)
O7 O 0.97670(12) 0.33880(19) 0.9083(2)
O10 O 0.75286(11) 0.06900(13) 0.92145(11)
O11 O 0.75101(9) 0.05985(10) 0.83569(10)
N2 N 0.99875(10) 0.05655(12) 0.80607(12)
N3 N 0.84697(11) 0.44037(14) 0.75732(13)
N5 N 0.87479(10) 0.19765(11) 0.93205(12)
C7 C 0.96155(12) 0.06451(15) 0.81740(15)
H5 H 0.9349 0.0430 0.8000
C8 C 0.96118(13) 0.10382(15) 0.85427(15)
H6 H 0.9344 0.1087 0.8605
C13 C 0.89424(15) 0.4380(2) 0.7748(2)
H9 H 0.9082 0.4623 0.7601
C14 C 0.92288(16) 0.4016(2) 0.8131(2)
H10 H 0.9557 0.4025 0.8252
C15 C 0.90347(14) 0.36351(19) 0.83386(19)
C16 C 0.85390(14) 0.36221(18) 0.81179(18)
H11 H 0.8389 0.3355 0.8221
C17 C 0.82752(14) 0.40118(17) 0.77441(17)
H12 H 0.7945 0.4002 0.7603
C18 C 0.93364(15) 0.3267(2) 0.8809(2)
C25 C 0.85507(12) 0.17792(15) 0.87940(15)
H17 H 0.8658 0.1899 0.8536
C26 C 0.81945(12) 0.14052(15) 0.86166(15)
H18 H 0.8067 0.1274 0.8248
C27 C 0.80292(12) 0.12288(15) 0.89965(14)
C28 C 0.82231(13) 0.14436(16) 0.95372(15)
H19 H 0.8115 0.1337 0.9800
C29 C 0.85763(12) 0.18151(16) 0.96815(15)
C30 C 0.76554(12) 0.07972(15) 0.88411(14)
C34 C 0.85590(15) 0.36810(18) 0.99406(17)
H23 H 0.8310 0.3898 0.9705
C35 C 0.87464(14) 0.32999(18) 0.97142(17)
H24 H 0.8616 0.3269 0.9321
Co18 Co 0.799470(18) 0.50303(2) 0.70810(2)
Co21 Co 0.700530(18) 0.00303(2) 0.79190(2)
O45 O 0.67795(9) 0.05937(12) 0.95468(11)
O52 O 0.66701(8) 0.00524(9) 0.84596(9)
Co13 Co 0.719066(18) 0.99361(2) 0.43662(2)
Co16 Co 0.700530(18) 0.99697(2) 0.29190(2)
Co23_2 Co 1.0000 0.99366(3) 0.7500
N20 N 0.99875(10) 0.94345(12) 0.30607(12)
O47 O 0.68342(10) 0.94583(12) 0.95465(11)
O49 O 0.76056(11) 0.95205(15) 0.92486(11)
N21_2 N 0.65303(11) 0.05963(14) 0.24268(13)
N22_2 N 0.34697(11) 0.05963(14) 0.25732(13)
H73_2 H 0.708555 0.00300959 0.196999
H74_2 H 0.75678 0.0268955 0.247567
H75_2 H 0.291445 0.00300959 0.303001
H76_2 H 0.24322 0.0268955 0.252433
Co1_2 Co 0.567392(17) 0.73968(2) 0.02770(2)
Co5_3 Co 0.5000 0.50634(3) 0.2500
O2_2 O 0.46292(8) 0.69901(10) 0.03861(10)
O3_2 O 0.54103(8) 0.68433(10) 0.06559(10)
O8_2 O 0.59506(9) 0.78405(10) 0.10257(10)
O9_2 O 0.53115(12) 0.8260(2) 0.0945(2)
O12_2 O 0.32205(9) 0.94063(12) 0.04532(11)
O13_2 O 0.37604(10) 0.91754(12) 0.13237(11)
O16_2 O 0.57399(8) 0.50748(9) 0.29928(10)
O17_2 O 0.62887(9) 0.50073(11) 0.26712(11)
O18_2 O 0.73944(11) 0.54795(15) 0.07514(11)
O19_2 O 0.66701(8) 0.99476(9) 0.34596(9)
O20_2 O 0.73322(10) 0.99773(11) 0.23671(11)
N1_2 N 0.50322(10) 0.56762(12) 0.19375(11)
N4_2 N 0.65725(11) 0.93205(14) 0.24307(14)
N6_2 N 0.40997(10) 0.79792(12) 0.00271(12)
N8_2 N 0.72760(10) 0.50910(12) 0.47703(12)
N9_2 N 0.62973(10) 0.69312(12) 0.05947(12)
C1_2 C 0.46682(13) 0.59977(15) 0.16704(16)
H1_2 H 0.4412 0.5978 0.1759
C2_2 C 0.46445(13) 0.63634(15) 0.12650(15)
H2_2 H 0.4379 0.6579 0.1086
C3_2 C 0.50313(12) 0.63987(14) 0.11338(14)
C4_2 C 0.54180(12) 0.60751(15) 0.14228(15)
H3_2 H 0.5685 0.6095 0.1353
C5_2 C 0.54064(12) 0.57206(15) 0.18176(15)
H4_2 H 0.5669 0.5504 0.2008
C6_2 C 0.50250(12) 0.67794(13) 0.06878(14)
C19_2 C 0.67789(14) 0.89633(18) 0.22260(18)
H13_2 H 0.7108 0.8979 0.2354
C20_2 C 0.65302(14) 0.85805(18) 0.18420(19)
H14_2 H 0.6688 0.8341 0.1716
C21_2 C 0.60388(15) 0.8554(2) 0.1643(2)
C22_2 C 0.58306(15) 0.8887(2) 0.1884(2)
H15_2 H 0.5507 0.8861 0.1786
C23_2 C 0.61031(14) 0.92549(19) 0.22680(19)
H16_2 H 0.5956 0.9474 0.2427
C24_2 C 0.57412(14) 0.8181(2) 0.1159(2)
H20_2 H 0.3702 0.6961 0.0044
C31_2 C 0.42797(14) 0.80227(17) 0.05958(16)
H21_2 H 0.4524 0.7797 0.0824
C32_2 C 0.41153(15) 0.83895(17) 0.08507(16)
H22_2 H 0.4249 0.8410 0.1245
C33_2 C 0.37531(13) 0.87275(16) 0.05228(16)
C36_2 C 0.35642(13) 0.91381(17) 0.07946(15)
C40_2 C 0.65311(15) 0.86467(18) 0.00289(17)
H27_2 H 0.6793 0.8843 0.0273
C41_2 C 0.63536(14) 0.82493(17) 0.02386(16)
H28_2 H 0.6501 0.8185 0.0628
C43_2 C 0.68139(13) 0.50840(16) 0.46629(15)
H29_2 H 0.6738 0.5082 0.4968
C44_2 C 0.64471(12) 0.50793(16) 0.41176(16)
H30_2 H 0.6131 0.5072 0.4059
C45_2 C 0.65539(13) 0.50849(15) 0.36629(15)
C46_2 C 0.70258(13) 0.51033(16) 0.37684(15)
H31_2 H 0.7110 0.5112 0.3470
C47_2 C 0.73757(13) 0.51086(16) 0.43318(15)
H32_2 H 0.7694 0.5125 0.4401
C48_2 C 0.61616(12) 0.50552(14) 0.30521(14)
C49_2 C 0.64534(12) 0.67204(15) 0.02401(15)
C50_2 C 0.67908(12) 0.63277(16) 0.04016(15)
H34_2 H 0.6886 0.6186 0.0141
C51_2 C 0.69874(12) 0.61448(14) 0.09587(14)
C52_2 C 0.68411(13) 0.63860(16) 0.13335(15)
H35_2 H 0.6975 0.6287 0.1714
C53_2 C 0.65016(13) 0.67658(16) 0.11372(15)
H36_2 H 0.6405 0.6920 0.1391
C54_2 C 0.73389(12) 0.56964(15) 0.11394(15)
Co6_2 Co 0.432608(17) 0.73968(2) 0.47230(2)
Co7_2 Co 0.560997(17) 0.74199(2) 0.53584(2)
O22_2 O 0.49601(8) 0.78477(10) 0.50289(10)
O23_2 O 0.53708(8) 0.69901(10) 0.46139(10)
O24_2 O 0.45897(8) 0.68433(10) 0.43441(10)
O25_2 O 0.53624(8) 0.68536(10) 0.57373(10)
O26_2 O 0.45856(8) 0.69855(9) 0.54840(9)
O27_2 O 0.58662(9) 0.78800(10) 0.60930(10)
O28_2 O 0.52330(12) 0.83880(19) 0.5917(2)
O29_2 O 0.40494(9) 0.78405(10) 0.39743(10)
O30_2 O 0.46885(12) 0.8260(2) 0.4055(2)
O31_2 O 0.74714(11) 0.56900(13) 0.57855(11)
O32_2 O 0.74899(9) 0.55985(10) 0.66431(10)
O33_2 O 0.67795(9) 0.94063(12) 0.45468(11)
O34_2 O 0.62396(10) 0.91754(12) 0.36763(11)
O35_2 O 0.37318(9) 0.92639(11) 0.63269(11)
O37_2 O 0.42601(8) 0.50748(9) 0.20072(10)
O38_2 O 0.37113(9) 0.50073(11) 0.23288(11)
O39_2 O 0.26056(11) 0.54795(15) 0.42486(11)
O40_2 O 0.33299(8) 0.99476(9) 0.15404(9)
O41_2 O 0.26678(10) 0.99773(11) 0.26329(11)
N10_2 N 0.49678(10) 0.56762(12) 0.30625(11)
N11_2 N 0.50125(10) 0.55655(12) 0.69393(12)
N12_2 N 0.65303(11) 0.94037(14) 0.74268(13)
N13_2 N 0.34275(11) 0.93205(14) 0.25693(14)
N14_2 N 0.62521(10) 0.69765(11) 0.56795(12)
N15_2 N 0.59003(10) 0.79792(12) 0.49729(12)
N16_2 N 0.40174(10) 0.79534(12) 0.50867(12)
N17_2 N 0.27240(10) 0.50910(12) 0.02297(12)
N18_2 N 0.37027(10) 0.69312(12) 0.44053(12)
C55_2 C 0.53318(13) 0.59977(15) 0.33296(16)
H37_2 H 0.5588 0.5978 0.3241
C56_2 C 0.53555(13) 0.63634(15) 0.37350(15)
H38_2 H 0.5621 0.6579 0.3914
C57_2 C 0.49687(12) 0.63987(14) 0.38662(14)
C58_2 C 0.45820(12) 0.60751(15) 0.35772(15)
H39_2 H 0.4315 0.6095 0.3647
C59_2 C 0.45936(12) 0.57206(15) 0.31824(15)
H40_2 H 0.4331 0.5504 0.2992
C60_2 C 0.49750(12) 0.67794(13) 0.43122(14)
C61_2 C 0.53845(12) 0.56451(15) 0.68260(15)
H41_2 H 0.5651 0.5430 0.7000
C62_2 C 0.53882(13) 0.60382(15) 0.64573(15)
H42_2 H 0.5656 0.6087 0.6395
C63_2 C 0.49943(12) 0.63529(14) 0.61864(15)
C64_2 C 0.46076(13) 0.62734(15) 0.63047(15)
H43_2 H 0.4335 0.6479 0.6131
C65_2 C 0.46368(12) 0.58809(15) 0.66873(15)
H44_2 H 0.4380 0.5836 0.6772
C66_2 C 0.49798(12) 0.67710(14) 0.57634(14)
C67_2 C 0.60576(15) 0.9380(2) 0.7252(2)
H45_2 H 0.5918 0.9623 0.7399
C68_2 C 0.57712(16) 0.9016(2) 0.6869(2)
H46_2 H 0.5443 0.9025 0.6748
C69_2 C 0.59653(14) 0.86351(19) 0.66614(19)
C70_2 C 0.64610(14) 0.86221(18) 0.68821(18)
H47_2 H 0.6611 0.8355 0.6779
C71_2 C 0.67248(14) 0.90118(17) 0.72559(17)
H48_2 H 0.7055 0.9002 0.7397
C72_2 C 0.56636(15) 0.8267(2) 0.6191(2)
C73_2 C 0.32211(14) 0.89633(18) 0.27740(18)
H49_2 H 0.2892 0.8979 0.2646
C74_2 C 0.34698(14) 0.85805(18) 0.31580(19)
H50_2 H 0.3312 0.8341 0.3284
C75_2 C 0.39612(15) 0.8554(2) 0.3357(2)
C76_2 C 0.41694(15) 0.8887(2) 0.3116(2)
H51_2 H 0.4493 0.8861 0.3214
C77_2 C 0.38969(14) 0.92549(19) 0.27320(19)
H52_2 H 0.4044 0.9474 0.2573
C78_2 C 0.42588(14) 0.8181(2) 0.3841(2)
C79_2 C 0.64493(12) 0.67792(15) 0.62060(15)
H53_2 H 0.6342 0.6899 0.6464
C80_2 C 0.68055(12) 0.64052(15) 0.63834(15)
H54_2 H 0.6933 0.6274 0.6752
C81_2 C 0.69708(12) 0.62288(15) 0.60035(14)
C82_2 C 0.67769(13) 0.64436(16) 0.54628(15)
H55_2 H 0.6885 0.6337 0.5200
C83_2 C 0.64237(12) 0.68151(16) 0.53185(15)
H56_2 H 0.6298 0.6961 0.4956
C84_2 C 0.73446(12) 0.57972(15) 0.61589(14)
C85_2 C 0.57203(14) 0.80227(17) 0.44042(16)
H57_2 H 0.5476 0.7797 0.4176
C86_2 C 0.58847(15) 0.83895(17) 0.41493(16)
H58_2 H 0.5751 0.8410 0.3755
C87_2 C 0.62469(13) 0.87275(16) 0.44772(16)
C88_2 C 0.64410(15) 0.86810(18) 0.50594(17)
H59_2 H 0.6690 0.8898 0.5295
C89_2 C 0.62536(14) 0.82999(18) 0.52858(17)
H60_2 H 0.6384 0.8269 0.5679
C90_2 C 0.64358(13) 0.91381(17) 0.42054(15)
C91_2 C 0.42184(13) 0.80469(16) 0.56486(15)
H61_2 H 0.4473 0.7838 0.5885
C92_2 C 0.40637(14) 0.84397(16) 0.58908(16)
H62_2 H 0.4214 0.8494 0.6282
C93_2 C 0.36847(13) 0.87497(15) 0.55482(16)
C94_2 C 0.34689(15) 0.86467(18) 0.49711(17)
H63_2 H 0.3207 0.8843 0.4727
C95_2 C 0.36464(14) 0.82493(17) 0.47614(16)
H64_2 H 0.3499 0.8185 0.4372
C96_2 C 0.35087(14) 0.91937(16) 0.57951(16)
C97_2 C 0.31861(13) 0.50840(16) 0.03371(15)
H65_2 H 0.3262 0.5082 0.0032
C98_2 C 0.35529(12) 0.50793(16) 0.08824(16)
H66_2 H 0.3869 0.5072 0.0941
C99_2 C 0.34461(13) 0.50849(15) 0.13371(15)
C100_2 C 0.29742(13) 0.51033(16) 0.12316(15)
H67_2 H 0.2890 0.5112 0.1530
C101_2 C 0.26243(13) 0.51086(16) 0.06682(15)
H68_2 H 0.2306 0.5125 0.0599
C102_2 C 0.38384(12) 0.50552(14) 0.19479(14)
C103_2 C 0.35466(12) 0.67204(15) 0.47599(15)
H69_2 H 0.3672 0.6845 0.5132
C104_2 C 0.32092(12) 0.63277(16) 0.45984(15)
H70_2 H 0.3114 0.6186 0.4859
C105_2 C 0.30126(12) 0.61448(14) 0.40413(14)
C106_2 C 0.31589(13) 0.63860(16) 0.36665(15)
H71_2 H 0.3025 0.6287 0.3286
C107_2 C 0.34984(13) 0.67658(16) 0.38628(15)
H72_2 H 0.3595 0.6920 0.3609
C108_2 C 0.26611(12) 0.56964(15) 0.38606(15)
Co23_3 Co 0.5000 0.49366(3) 0.7500
O43_2 O 0.24899(9) 0.94015(10) 0.16431(10)
O44_2 O 0.75101(9) 0.94015(10) 0.33569(10)
O46_2 O 0.82205(9) 0.55937(12) 0.54532(11)
O50_2 O 0.73944(11) 0.45205(15) 0.57514(11)
O51_2 O 0.83299(8) 0.50524(9) 0.65404(9)
N19_2 N 0.50125(10) 0.44345(12) 0.19393(12)
N20_2 N 0.49875(10) 0.44345(12) 0.30607(12)
Co2_2 Co 0.439003(17) 0.74199(2) 0.96416(2)
O1_2 O 0.50399(8) 0.78477(10) 0.99711(10)
O4_2 O 0.46376(8) 0.68536(10) 0.92627(10)
O5_2 O 0.54144(8) 0.69855(9) 0.95160(9)
O6_2 O 0.41338(9) 0.78800(10) 0.89070(10)
O7_2 O 0.47670(12) 0.83880(19) 0.9083(2)
O10_2 O 0.25286(11) 0.56900(13) 0.92145(11)
O11_2 O 0.25101(9) 0.55985(10) 0.83569(10)
O14_2 O 0.62682(9) 0.92639(11) 0.86731(11)
N2_2 N 0.49875(10) 0.55655(12) 0.80607(12)
N3_2 N 0.34697(11) 0.94037(14) 0.75732(13)
N5_2 N 0.37479(10) 0.69765(11) 0.93205(12)
N7_2 N 0.59826(10) 0.79534(12) 0.99133(12)
C7_2 C 0.46155(12) 0.56451(15) 0.81740(15)
H5_2 H 0.4349 0.5430 0.8000
C8_2 C 0.46118(13) 0.60382(15) 0.85427(15)
H6_2 H 0.4344 0.6087 0.8605
C9_2 C 0.50057(12) 0.63529(14) 0.88136(15)
C10_2 C 0.53924(13) 0.62734(15) 0.86953(15)
H7_2 H 0.5665 0.6479 0.8869
C11_2 C 0.53632(12) 0.58809(15) 0.83127(15)
H8_2 H 0.5620 0.5836 0.8228
C12_2 C 0.50202(12) 0.67710(14) 0.92366(14)
C13_2 C 0.39424(15) 0.9380(2) 0.7748(2)
H9_2 H 0.4082 0.9623 0.7601
C14_2 C 0.42288(16) 0.9016(2) 0.8131(2)
H10_2 H 0.4557 0.9025 0.8252
C15_2 C 0.40347(14) 0.86351(19) 0.83386(19)
C16_2 C 0.35390(14) 0.86221(18) 0.81179(18)
H11_2 H 0.3389 0.8355 0.8221
C17_2 C 0.32752(14) 0.90118(17) 0.77441(17)
H12_2 H 0.2945 0.9002 0.7603
C18_2 C 0.43364(15) 0.8267(2) 0.8809(2)
C25_2 C 0.35507(12) 0.67792(15) 0.87940(15)
H17_2 H 0.3658 0.6899 0.8536
C26_2 C 0.31945(12) 0.64052(15) 0.86166(15)
H18_2 H 0.3067 0.6274 0.8248
C27_2 C 0.30292(12) 0.62288(15) 0.89965(14)
C28_2 C 0.32231(13) 0.64436(16) 0.95372(15)
H19_2 H 0.3115 0.6337 0.9800
C29_2 C 0.35763(12) 0.68151(16) 0.96815(15)
C30_2 C 0.26554(12) 0.57972(15) 0.88411(14)
C34_2 C 0.35590(15) 0.86810(18) 0.99406(17)
H23_2 H 0.3310 0.8898 0.9705
C35_2 C 0.37464(14) 0.82999(18) 0.97142(17)
H24_2 H 0.3616 0.8269 0.9321
C37_2 C 0.57816(13) 0.80469(16) 0.93514(15)
H25_2 H 0.5527 0.7838 0.9115
C38_2 C 0.59363(14) 0.84397(16) 0.91092(16)
H26_2 H 0.5786 0.8494 0.8718
C39_2 C 0.63153(13) 0.87497(15) 0.94518(16)
C42_2 C 0.64913(14) 0.91937(16) 0.92049(16)
H33_2 H 0.6328 0.6845 0.9868
O45_2 O 0.17795(9) 0.55937(12) 0.95468(11)
O49_2 O 0.26056(11) 0.45205(15) 0.92486(11)
O52_2 O 0.16701(8) 0.50524(9) 0.84596(9)
O47_2 O 0.31658(10) 0.05417(12) 0.04535(11)
Co2_3 Co 0.060997(17) 0.75801(2) 0.03584(2)
O4_3 O 0.03624(8) 0.81464(10) 0.07373(10)
O6_3 O 0.08662(9) 0.71200(10) 0.10930(10)
O7_3 O 0.02330(12) 0.66120(19) 0.0917(2)
O10_3 O 0.24714(11) 0.93100(13) 0.07855(11)
N5_3 N 0.12521(10) 0.80235(11) 0.06795(12)
C7_3 C 0.03845(12) 0.93549(15) 0.18260(15)
H5_3 H 0.0651 0.9570 0.2000
C8_3 C 0.03882(13) 0.89618(15) 0.14573(15)
H6_3 H 0.0656 0.8913 0.1395
C13_3 C 0.10576(15) 0.5620(2) 0.2252(2)
H9_3 H 0.0918 0.5377 0.2399
C14_3 C 0.07712(16) 0.5984(2) 0.1869(2)
H10_3 H 0.0443 0.5975 0.1748
C15_3 C 0.09653(14) 0.63649(19) 0.16614(19)
C16_3 C 0.14610(14) 0.63779(18) 0.18821(18)
H11_3 H 0.1611 0.6645 0.1779
C17_3 C 0.17248(14) 0.59882(17) 0.22559(17)
H12_3 H 0.2055 0.5998 0.2397
C18_3 C 0.06636(15) 0.6733(2) 0.1191(2)
C25_3 C 0.14493(12) 0.82208(15) 0.12060(15)
H17_3 H 0.1342 0.8101 0.1464
C26_3 C 0.18055(12) 0.85948(15) 0.13834(15)
H18_3 H 0.1933 0.8726 0.1752
C27_3 C 0.19708(12) 0.87712(15) 0.10035(14)
C28_3 C 0.17769(13) 0.85564(16) 0.04628(15)
H19_3 H 0.1885 0.8663 0.0200
C29_3 C 0.14237(12) 0.81849(16) 0.03185(15)
C30_3 C 0.23446(12) 0.92028(15) 0.11589(14)
C34_3 C 0.14410(15) 0.63190(18) 0.00594(17)
H23_3 H 0.1690 0.6102 0.0295
C35_3 C 0.12536(14) 0.67001(18) 0.02858(17)
H24_3 H 0.1384 0.6731 0.0679
O2_3 O 0.03708(8) 0.80099(10) 0.96139(10)
O13_3 O 0.12396(10) 0.58246(12) 0.86763(11)
N6_3 N 0.09003(10) 0.70208(12) 0.99729(12)
C1_3 C 0.03318(13) 0.90023(15) 0.83296(16)
H1_3 H 0.0588 0.9022 0.8241
C2_3 C 0.03555(13) 0.86366(15) 0.87350(15)
H2_3 H 0.0621 0.8421 0.8914
H20_3 H 0.1298 0.8039 0.9956
C31_3 C 0.07203(14) 0.69773(17) 0.94042(16)
H21_3 H 0.0476 0.7203 0.9176
C32_3 C 0.08847(15) 0.66105(17) 0.91493(16)
H22_3 H 0.0751 0.6590 0.8755
C33_3 C 0.12469(13) 0.62725(16) 0.94772(16)
C36_3 C 0.14358(13) 0.58619(17) 0.92054(15)
Co6_3 Co 0.067392(17) 0.76032(2) 0.52770(2)
O22_3 O 0.00399(8) 0.71523(10) 0.49711(10)
O24_3 O 0.04103(8) 0.81567(10) 0.56559(10)
O26_3 O 0.04144(8) 0.80145(9) 0.45160(9)
O29_3 O 0.09506(9) 0.71595(10) 0.60257(10)
O30_3 O 0.03115(12) 0.6740(2) 0.5945(2)
O35_3 O 0.12682(9) 0.57361(11) 0.36731(11)
O36_2 O 0.18342(10) 0.55417(12) 0.45465(11)
O37_3 O 0.07399(8) 0.99252(9) 0.79928(10)
O38_3 O 0.12887(9) 0.99927(11) 0.76712(11)
O41_3 O 0.23322(10) 0.50227(11) 0.73671(11)
O42_2 O 0.25322(9) 0.94227(10) 0.66482(10)
N10_3 N 0.00322(10) 0.93238(12) 0.69375(11)
N13_3 N 0.15725(11) 0.56795(14) 0.74307(14)
N16_3 N 0.09826(10) 0.70466(12) 0.49133(12)
N17_3 N 0.22760(10) 0.99090(12) 0.97703(12)
N18_3 N 0.12973(10) 0.80688(12) 0.55947(12)
C57_3 C 0.00313(12) 0.86013(14) 0.61338(14)
C58_3 C 0.04180(12) 0.89249(15) 0.64228(15)
H39_3 H 0.0685 0.8905 0.6353
C59_3 C 0.04064(12) 0.92794(15) 0.68176(15)
H40_3 H 0.0669 0.9496 0.7008
C60_3 C 0.00250(12) 0.82206(13) 0.56878(14)
C63_3 C 0.00057(12) 0.86471(14) 0.38136(15)
C64_3 C 0.03924(13) 0.87266(15) 0.36953(15)
H43_3 H 0.0665 0.8521 0.3869
C65_3 C 0.03632(12) 0.91191(15) 0.33127(15)
H44_3 H 0.0620 0.9164 0.3228
C66_3 C 0.00202(12) 0.82290(14) 0.42366(14)
C73_3 C 0.17789(14) 0.60367(18) 0.72260(18)
H49_3 H 0.2108 0.6021 0.7354
C74_3 C 0.15302(14) 0.64195(18) 0.68420(19)
H50_3 H 0.1688 0.6659 0.6716
C75_3 C 0.10388(15) 0.6446(2) 0.6643(2)
C76_3 C 0.08306(15) 0.6113(2) 0.6884(2)
H51_3 H 0.0507 0.6139 0.6786
C77_3 C 0.11031(14) 0.57451(19) 0.72680(19)
H52_3 H 0.0956 0.5526 0.7427
C78_3 C 0.07412(14) 0.6819(2) 0.6159(2)
C91_3 C 0.07816(13) 0.69531(16) 0.43514(15)
H61_3 H 0.0527 0.7162 0.4115
C92_3 C 0.09363(14) 0.65603(16) 0.41092(16)
H62_3 H 0.0786 0.6506 0.3718
C93_3 C 0.13153(13) 0.62503(15) 0.44518(16)
C94_3 C 0.15311(15) 0.63533(18) 0.50289(17)
H63_3 H 0.1793 0.6157 0.5273
C95_3 C 0.13536(14) 0.67507(17) 0.52386(16)
H64_3 H 0.1501 0.6815 0.5628
C96_3 C 0.14913(14) 0.58063(16) 0.42049(16)
C97_3 C 0.18139(13) 0.99160(16) 0.96629(15)
H65_3 H 0.1738 0.9918 0.9968
C98_3 C 0.14471(12) 0.99207(16) 0.91176(16)
H66_3 H 0.1131 0.9928 0.9059
C99_3 C 0.15539(13) 0.99151(15) 0.86629(15)
C100_3 C 0.20258(13) 0.98967(16) 0.87684(15)
H67_3 H 0.2110 0.9888 0.8470
C101_3 C 0.23757(13) 0.98914(16) 0.93318(15)
H68_3 H 0.2694 0.9875 0.9401
C102_3 C 0.11616(12) 0.99448(14) 0.80521(14)
C103_3 C 0.14534(12) 0.82796(15) 0.52401(15)
H69_3 H 0.1328 0.8155 0.4868
C104_3 C 0.17908(12) 0.86723(16) 0.54016(15)
H70_3 H 0.1886 0.8814 0.5141
C105_3 C 0.19874(12) 0.88552(14) 0.59587(14)
C106_3 C 0.18411(13) 0.86140(16) 0.63335(15)
H71_3 H 0.1975 0.8713 0.6714
C107_3 C 0.15016(13) 0.82342(16) 0.61372(15)
H72_3 H 0.1405 0.8080 0.6391
C108_3 C 0.23389(12) 0.93036(15) 0.61394(15)
O53_2 O 0.24678(9) 0.44227(10) 0.83518(10)
H75_3 H 0.208555 0.49699 0.696999
H76_3 H 0.25678 0.473104 0.747567
O48_2 O 0.68342(10) 0.05417(12) 0.45465(11)
O1_3 O 0.99601(8) 0.71523(10) 0.00289(10)
O5_3 O 0.95856(8) 0.80145(9) 0.04840(9)
O14_3 O 0.87318(9) 0.57361(11) 0.13269(11)
O15_2 O 0.81658(10) 0.55417(12) 0.04535(11)
N7_3 N 0.90174(10) 0.70466(12) 0.00867(12)
C9_3 C 0.99943(12) 0.86471(14) 0.11864(15)
C10_3 C 0.96076(13) 0.87266(15) 0.13047(15)
H7_3 H 0.9335 0.8521 0.1131
C11_3 C 0.96368(12) 0.91191(15) 0.16873(15)
H8_3 H 0.9380 0.9164 0.1772
C12_3 C 0.99798(12) 0.82290(14) 0.07634(14)
C37_3 C 0.92184(13) 0.69531(16) 0.06486(15)
H25_3 H 0.9473 0.7162 0.0885
C38_3 C 0.90637(14) 0.65603(16) 0.08908(16)
H26_3 H 0.9214 0.6506 0.1282
C39_3 C 0.86847(13) 0.62503(15) 0.05482(16)
C42_3 C 0.85087(14) 0.58063(16) 0.07951(16)
H33_3 H 0.8672 0.8155 0.0132
Co1_3 Co 0.932608(17) 0.76032(2) 0.97230(2)
O3_3 O 0.95897(8) 0.81567(10) 0.93441(10)
O8_3 O 0.90494(9) 0.71595(10) 0.89743(10)
O9_3 O 0.96885(12) 0.6740(2) 0.9055(2)
O16_3 O 0.92601(8) 0.99252(9) 0.70072(10)
O17_3 O 0.87113(9) 0.99927(11) 0.73288(11)
O20_3 O 0.76678(10) 0.50227(11) 0.76329(11)
O21_2 O 0.74678(9) 0.94227(10) 0.83518(10)
N1_3 N 0.99678(10) 0.93238(12) 0.80625(11)
N4_3 N 0.84275(11) 0.56795(14) 0.75693(14)
N8_3 N 0.77240(10) 0.99090(12) 0.52297(12)
N9_3 N 0.87027(10) 0.80688(12) 0.94053(12)
C3_3 C 0.99687(12) 0.86013(14) 0.88662(14)
C4_3 C 0.95820(12) 0.89249(15) 0.85772(15)
H3_3 H 0.9315 0.8905 0.8647
C5_3 C 0.95936(12) 0.92794(15) 0.81824(15)
H4_3 H 0.9331 0.9496 0.7992
C6_3 C 0.99750(12) 0.82206(13) 0.93122(14)
C19_3 C 0.82211(14) 0.60367(18) 0.77740(18)
H13_3 H 0.7892 0.6021 0.7646
C20_3 C 0.84698(14) 0.64195(18) 0.81580(19)
H14_3 H 0.8312 0.6659 0.8284
C21_3 C 0.89612(15) 0.6446(2) 0.8357(2)
C22_3 C 0.91694(15) 0.6113(2) 0.8116(2)
H15_3 H 0.9493 0.6139 0.8214
C23_3 C 0.88969(14) 0.57451(19) 0.77320(19)
H16_3 H 0.9044 0.5526 0.7573
C24_3 C 0.92588(14) 0.6819(2) 0.8841(2)
C40_3 C 0.84689(15) 0.63533(18) 0.99711(17)
H27_3 H 0.8207 0.6157 0.9727
C41_3 C 0.86464(14) 0.67507(17) 0.97614(16)
H28_3 H 0.8499 0.6815 0.9372
C43_3 C 0.81861(13) 0.99160(16) 0.53371(15)
H29_3 H 0.8262 0.9918 0.5032
C44_3 C 0.85529(12) 0.99207(16) 0.58824(16)
H30_3 H 0.8869 0.9928 0.5941
C45_3 C 0.84461(13) 0.99151(15) 0.63371(15)
C46_3 C 0.79742(13) 0.98967(16) 0.62316(15)
H31_3 H 0.7890 0.9888 0.6530
C47_3 C 0.76243(13) 0.98914(16) 0.56682(15)
H32_3 H 0.7306 0.9875 0.5599
C48_3 C 0.88384(12) 0.99448(14) 0.69479(14)
C49_3 C 0.85466(12) 0.82796(15) 0.97599(15)
C50_3 C 0.82092(12) 0.86723(16) 0.95984(15)
H34_3 H 0.8114 0.8814 0.9859
C51_3 C 0.80126(12) 0.88552(14) 0.90413(14)
C52_3 C 0.81589(13) 0.86140(16) 0.86665(15)
H35_3 H 0.8025 0.8713 0.8286
C53_3 C 0.84984(13) 0.82342(16) 0.88628(15)
H36_3 H 0.8595 0.8080 0.8609
C54_3 C 0.76611(12) 0.93036(15) 0.88606(15)
Co7_3 Co 0.939003(17) 0.75801(2) 0.46416(2)
O23_3 O 0.96292(8) 0.80099(10) 0.53861(10)
O25_3 O 0.96376(8) 0.81464(10) 0.42627(10)
O27_3 O 0.91338(9) 0.71200(10) 0.39070(10)
O28_3 O 0.97670(12) 0.66120(19) 0.4083(2)
O31_3 O 0.75286(11) 0.93100(13) 0.42145(11)
O34_3 O 0.87604(10) 0.58246(12) 0.63237(11)
N14_3 N 0.87479(10) 0.80235(11) 0.43205(12)
N15_3 N 0.90997(10) 0.70208(12) 0.50271(12)
C55_3 C 0.96682(13) 0.90023(15) 0.66704(16)
H37_3 H 0.9412 0.9022 0.6759
C56_3 C 0.96445(13) 0.86366(15) 0.62650(15)
H38_3 H 0.9379 0.8421 0.6086
C61_3 C 0.96155(12) 0.93549(15) 0.31740(15)
H41_3 H 0.9349 0.9570 0.3000
C62_3 C 0.96118(13) 0.89618(15) 0.35427(15)
H42_3 H 0.9344 0.8913 0.3605
C67_3 C 0.89424(15) 0.5620(2) 0.2748(2)
H45_3 H 0.9082 0.5377 0.2601
C68_3 C 0.92288(16) 0.5984(2) 0.3131(2)
H46_3 H 0.9557 0.5975 0.3252
C69_3 C 0.90347(14) 0.63649(19) 0.33386(19)
C70_3 C 0.85390(14) 0.63779(18) 0.31179(18)
H47_3 H 0.8389 0.6645 0.3221
C71_3 C 0.82752(14) 0.59882(17) 0.27441(17)
H48_3 H 0.7945 0.5998 0.2603
C72_3 C 0.93364(15) 0.6733(2) 0.3809(2)
C79_3 C 0.85507(12) 0.82208(15) 0.37940(15)
H53_3 H 0.8658 0.8101 0.3536
C80_3 C 0.81945(12) 0.85948(15) 0.36166(15)
H54_3 H 0.8067 0.8726 0.3248
C81_3 C 0.80292(12) 0.87712(15) 0.39965(14)
C82_3 C 0.82231(13) 0.85564(16) 0.45372(15)
H55_3 H 0.8115 0.8663 0.4800
C83_3 C 0.85763(12) 0.81849(16) 0.46815(15)
H56_3 H 0.8702 0.8039 0.5044
C84_3 C 0.76554(12) 0.92028(15) 0.38411(14)
C85_3 C 0.92797(14) 0.69773(17) 0.55958(16)
H57_3 H 0.9524 0.7203 0.5824
C86_3 C 0.91153(15) 0.66105(17) 0.58507(16)
H58_3 H 0.9249 0.6590 0.6245
C87_3 C 0.87531(13) 0.62725(16) 0.55228(16)
C88_3 C 0.85590(15) 0.63190(18) 0.49406(17)
H59_3 H 0.8310 0.6102 0.4705
C89_3 C 0.87464(14) 0.67001(18) 0.47142(17)
H60_3 H 0.8616 0.6731 0.4321
C90_3 C 0.85642(13) 0.58619(17) 0.57946(15)
O54_2 O 0.75322(9) 0.44227(10) 0.66482(10)
H73_3 H 0.791445 0.49699 0.803001
H74_3 H 0.74322 0.473104 0.752433
Co2_4 Co 0.560997(17) 0.25801(2) 0.03584(2)
O1_4 O 0.49601(8) 0.21523(10) 0.00289(10)
O4_4 O 0.53624(8) 0.31464(10) 0.07373(10)
O5_4 O 0.45856(8) 0.30145(9) 0.04840(9)
O6_4 O 0.58662(9) 0.21200(10) 0.10930(10)
O7_4 O 0.52330(12) 0.16120(19) 0.0917(2)
O10_4 O 0.74714(11) 0.43100(13) 0.07855(11)
O14_4 O 0.37318(9) 0.07361(11) 0.13269(11)
N5_4 N 0.62521(10) 0.30235(11) 0.06795(12)
N7_4 N 0.40174(10) 0.20466(12) 0.00867(12)
C7_4 C 0.53845(12) 0.43549(15) 0.18260(15)
H5_4 H 0.5651 0.4570 0.2000
C8_4 C 0.53882(13) 0.39618(15) 0.14573(15)
H6_4 H 0.5656 0.3913 0.1395
C9_4 C 0.49943(12) 0.36471(14) 0.11864(15)
C10_4 C 0.46076(13) 0.37266(15) 0.13047(15)
H7_4 H 0.4335 0.3521 0.1131
C11_4 C 0.46368(12) 0.41191(15) 0.16873(15)
H8_4 H 0.4380 0.4164 0.1772
C12_4 C 0.49798(12) 0.32290(14) 0.07634(14)
C13_4 C 0.60576(15) 0.0620(2) 0.2252(2)
H9_4 H 0.5918 0.0377 0.2399
C14_4 C 0.57712(16) 0.0984(2) 0.1869(2)
H10_4 H 0.5443 0.0975 0.1748
C15_4 C 0.59653(14) 0.13649(19) 0.16614(19)
C16_4 C 0.64610(14) 0.13779(18) 0.18821(18)
H11_4 H 0.6611 0.1645 0.1779
C17_4 C 0.67248(14) 0.09882(17) 0.22559(17)
H12_4 H 0.7055 0.0998 0.2397
C18_4 C 0.56636(15) 0.1733(2) 0.1191(2)
C25_4 C 0.64493(12) 0.32208(15) 0.12060(15)
H17_4 H 0.6342 0.3101 0.1464
C26_4 C 0.68055(12) 0.35948(15) 0.13834(15)
H18_4 H 0.6933 0.3726 0.1752
C27_4 C 0.69708(12) 0.37712(15) 0.10035(14)
C28_4 C 0.67769(13) 0.35564(16) 0.04628(15)
H19_4 H 0.6885 0.3663 0.0200
C29_4 C 0.64237(12) 0.31849(16) 0.03185(15)
C30_4 C 0.73446(12) 0.42028(15) 0.11589(14)
C34_4 C 0.64410(15) 0.13190(18) 0.00594(17)
H23_4 H 0.6690 0.1102 0.0295
C35_4 C 0.62536(14) 0.17001(18) 0.02858(17)
H24_4 H 0.6384 0.1731 0.0679
C37_4 C 0.42184(13) 0.19531(16) 0.06486(15)
H25_4 H 0.4473 0.2162 0.0885
C38_4 C 0.40637(14) 0.15603(16) 0.08908(16)
H26_4 H 0.4214 0.1506 0.1282
C39_4 C 0.36847(13) 0.12503(15) 0.05482(16)
C42_4 C 0.35087(14) 0.08063(16) 0.07951(16)
H33_4 H 0.3672 0.3155 0.0132
Co1_4 Co 0.432608(17) 0.26032(2) 0.97230(2)
O2_4 O 0.53708(8) 0.30099(10) 0.96139(10)
O3_4 O 0.45897(8) 0.31567(10) 0.93441(10)
O8_4 O 0.40494(9) 0.21595(10) 0.89743(10)
O9_4 O 0.46885(12) 0.1740(2) 0.9055(2)
O13_4 O 0.62396(10) 0.08246(12) 0.86763(11)
O16_4 O 0.42601(8) 0.49252(9) 0.70072(10)
O17_4 O 0.37113(9) 0.49927(11) 0.73288(11)
O20_4 O 0.26678(10) 0.00227(11) 0.76329(11)
N1_4 N 0.49678(10) 0.43238(12) 0.80625(11)
N4_4 N 0.34275(11) 0.06795(14) 0.75693(14)
N6_4 N 0.59003(10) 0.20208(12) 0.99729(12)
N8_4 N 0.27240(10) 0.49090(12) 0.52297(12)
N9_4 N 0.37027(10) 0.30688(12) 0.94053(12)
C1_4 C 0.53318(13) 0.40023(15) 0.83296(16)
H1_4 H 0.5588 0.4022 0.8241
C2_4 C 0.53555(13) 0.36366(15) 0.87350(15)
H2_4 H 0.5621 0.3421 0.8914
C3_4 C 0.49687(12) 0.36013(14) 0.88662(14)
C4_4 C 0.45820(12) 0.39249(15) 0.85772(15)
H3_4 H 0.4315 0.3905 0.8647
C5_4 C 0.45936(12) 0.42794(15) 0.81824(15)
H4_4 H 0.4331 0.4496 0.7992
C6_4 C 0.49750(12) 0.32206(13) 0.93122(14)
C19_4 C 0.32211(14) 0.10367(18) 0.77740(18)
H13_4 H 0.2892 0.1021 0.7646
C20_4 C 0.34698(14) 0.14195(18) 0.81580(19)
H14_4 H 0.3312 0.1659 0.8284
C21_4 C 0.39612(15) 0.1446(2) 0.8357(2)
C22_4 C 0.41694(15) 0.1113(2) 0.8116(2)
H15_4 H 0.4493 0.1139 0.8214
C23_4 C 0.38969(14) 0.07451(19) 0.77320(19)
H16_4 H 0.4044 0.0526 0.7573
C24_4 C 0.42588(14) 0.1819(2) 0.8841(2)
H20_4 H 0.6298 0.3039 0.9956
C31_4 C 0.57203(14) 0.19773(17) 0.94042(16)
H21_4 H 0.5476 0.2203 0.9176
C32_4 C 0.58847(15) 0.16105(17) 0.91493(16)
H22_4 H 0.5751 0.1590 0.8755
C33_4 C 0.62469(13) 0.12725(16) 0.94772(16)
C36_4 C 0.64358(13) 0.08619(17) 0.92054(15)
C40_4 C 0.34689(15) 0.13533(18) 0.99711(17)
H27_4 H 0.3207 0.1157 0.9727
C41_4 C 0.36464(14) 0.17507(17) 0.97614(16)
H28_4 H 0.3499 0.1815 0.9372
C43_4 C 0.31861(13) 0.49160(16) 0.53371(15)
H29_4 H 0.3262 0.4918 0.5032
C44_4 C 0.35529(12) 0.49207(16) 0.58824(16)
H30_4 H 0.3869 0.4928 0.5941
C45_4 C 0.34461(13) 0.49151(15) 0.63371(15)
C46_4 C 0.29742(13) 0.48967(16) 0.62316(15)
H31_4 H 0.2890 0.4888 0.6530
C47_4 C 0.26243(13) 0.48914(16) 0.56682(15)
H32_4 H 0.2306 0.4875 0.5599
C48_4 C 0.38384(12) 0.49448(14) 0.69479(14)
C49_4 C 0.35466(12) 0.32796(15) 0.97599(15)
C50_4 C 0.32092(12) 0.36723(16) 0.95984(15)
H34_4 H 0.3114 0.3814 0.9859
C51_4 C 0.30126(12) 0.38552(14) 0.90413(14)
C52_4 C 0.31589(13) 0.36140(16) 0.86665(15)
H35_4 H 0.3025 0.3713 0.8286
C53_4 C 0.34984(13) 0.32342(16) 0.88628(15)
H36_4 H 0.3595 0.3080 0.8609
C54_4 C 0.26611(12) 0.43036(15) 0.88606(15)
Co6_4 Co 0.567392(17) 0.26032(2) 0.52770(2)
Co7_4 Co 0.439003(17) 0.25801(2) 0.46416(2)
O22_4 O 0.50399(8) 0.21523(10) 0.49711(10)
O23_4 O 0.46292(8) 0.30099(10) 0.53861(10)
O24_4 O 0.54103(8) 0.31567(10) 0.56559(10)
O25_4 O 0.46376(8) 0.31464(10) 0.42627(10)
O26_4 O 0.54144(8) 0.30145(9) 0.45160(9)
O27_4 O 0.41338(9) 0.21200(10) 0.39070(10)
O28_4 O 0.47670(12) 0.16120(19) 0.4083(2)
O29_4 O 0.59506(9) 0.21595(10) 0.60257(10)
O30_4 O 0.53115(12) 0.1740(2) 0.5945(2)
O31_4 O 0.25286(11) 0.43100(13) 0.42145(11)
O34_4 O 0.37604(10) 0.08246(12) 0.63237(11)
O35_4 O 0.62682(9) 0.07361(11) 0.36731(11)
O37_4 O 0.57399(8) 0.49252(9) 0.79928(10)
O38_4 O 0.62887(9) 0.49927(11) 0.76712(11)
O41_4 O 0.73322(10) 0.00227(11) 0.73671(11)
N10_4 N 0.50322(10) 0.43238(12) 0.69375(11)
N13_4 N 0.65725(11) 0.06795(14) 0.74307(14)
N14_4 N 0.37479(10) 0.30235(11) 0.43205(12)
N15_4 N 0.40997(10) 0.20208(12) 0.50271(12)
N16_4 N 0.59826(10) 0.20466(12) 0.49133(12)
N17_4 N 0.72760(10) 0.49090(12) 0.97703(12)
N18_4 N 0.62973(10) 0.30688(12) 0.55947(12)
C55_4 C 0.46682(13) 0.40023(15) 0.66704(16)
H37_4 H 0.4412 0.4022 0.6759
C56_4 C 0.46445(13) 0.36366(15) 0.62650(15)
H38_4 H 0.4379 0.3421 0.6086
C57_4 C 0.50313(12) 0.36013(14) 0.61338(14)
C58_4 C 0.54180(12) 0.39249(15) 0.64228(15)
H39_4 H 0.5685 0.3905 0.6353
C59_4 C 0.54064(12) 0.42794(15) 0.68176(15)
H40_4 H 0.5669 0.4496 0.7008
C60_4 C 0.50250(12) 0.32206(13) 0.56878(14)
C61_4 C 0.46155(12) 0.43549(15) 0.31740(15)
H41_4 H 0.4349 0.4570 0.3000
C62_4 C 0.46118(13) 0.39618(15) 0.35427(15)
H42_4 H 0.4344 0.3913 0.3605
C63_4 C 0.50057(12) 0.36471(14) 0.38136(15)
C64_4 C 0.53924(13) 0.37266(15) 0.36953(15)
H43_4 H 0.5665 0.3521 0.3869
C65_4 C 0.53632(12) 0.41191(15) 0.33127(15)
H44_4 H 0.5620 0.4164 0.3228
C66_4 C 0.50202(12) 0.32290(14) 0.42366(14)
C67_4 C 0.39424(15) 0.0620(2) 0.2748(2)
H45_4 H 0.4082 0.0377 0.2601
C68_4 C 0.42288(16) 0.0984(2) 0.3131(2)
H46_4 H 0.4557 0.0975 0.3252
C69_4 C 0.40347(14) 0.13649(19) 0.33386(19)
C70_4 C 0.35390(14) 0.13779(18) 0.31179(18)
H47_4 H 0.3389 0.1645 0.3221
C71_4 C 0.32752(14) 0.09882(17) 0.27441(17)
H48_4 H 0.2945 0.0998 0.2603
C72_4 C 0.43364(15) 0.1733(2) 0.3809(2)
C73_4 C 0.67789(14) 0.10367(18) 0.72260(18)
H49_4 H 0.7108 0.1021 0.7354
C74_4 C 0.65302(14) 0.14195(18) 0.68420(19)
H50_4 H 0.6688 0.1659 0.6716
C75_4 C 0.60388(15) 0.1446(2) 0.6643(2)
C76_4 C 0.58306(15) 0.1113(2) 0.6884(2)
H51_4 H 0.5507 0.1139 0.6786
C77_4 C 0.61031(14) 0.07451(19) 0.72680(19)
H52_4 H 0.5956 0.0526 0.7427
C78_4 C 0.57412(14) 0.1819(2) 0.6159(2)
C79_4 C 0.35507(12) 0.32208(15) 0.37940(15)
H53_4 H 0.3658 0.3101 0.3536
C80_4 C 0.31945(12) 0.35948(15) 0.36166(15)
H54_4 H 0.3067 0.3726 0.3248
C81_4 C 0.30292(12) 0.37712(15) 0.39965(14)
C82_4 C 0.32231(13) 0.35564(16) 0.45372(15)
H55_4 H 0.3115 0.3663 0.4800
C83_4 C 0.35763(12) 0.31849(16) 0.46815(15)
H56_4 H 0.3702 0.3039 0.5044
C84_4 C 0.26554(12) 0.42028(15) 0.38411(14)
C85_4 C 0.42797(14) 0.19773(17) 0.55958(16)
H57_4 H 0.4524 0.2203 0.5824
C86_4 C 0.41153(15) 0.16105(17) 0.58507(16)
H58_4 H 0.4249 0.1590 0.6245
C87_4 C 0.37531(13) 0.12725(16) 0.55228(16)
C88_4 C 0.35590(15) 0.13190(18) 0.49406(17)
H59_4 H 0.3310 0.1102 0.4705
C89_4 C 0.37464(14) 0.17001(18) 0.47142(17)
H60_4 H 0.3616 0.1731 0.4321
C90_4 C 0.35642(13) 0.08619(17) 0.57946(15)
C91_4 C 0.57816(13) 0.19531(16) 0.43514(15)
H61_4 H 0.5527 0.2162 0.4115
C92_4 C 0.59363(14) 0.15603(16) 0.41092(16)
H62_4 H 0.5786 0.1506 0.3718
C93_4 C 0.63153(13) 0.12503(15) 0.44518(16)
C94_4 C 0.65311(15) 0.13533(18) 0.50289(17)
H63_4 H 0.6793 0.1157 0.5273
C95_4 C 0.63536(14) 0.17507(17) 0.52386(16)
H64_4 H 0.6501 0.1815 0.5628
C96_4 C 0.64913(14) 0.08063(16) 0.42049(16)
C97_4 C 0.68139(13) 0.49160(16) 0.96629(15)
H65_4 H 0.6738 0.4918 0.9968
C98_4 C 0.64471(12) 0.49207(16) 0.91176(16)
H66_4 H 0.6131 0.4928 0.9059
C99_4 C 0.65539(13) 0.49151(15) 0.86629(15)
C100_4 C 0.70258(13) 0.48967(16) 0.87684(15)
H67_4 H 0.7110 0.4888 0.8470
C101_4 C 0.73757(13) 0.48914(16) 0.93318(15)
H68_4 H 0.7694 0.4875 0.9401
C102_4 C 0.61616(12) 0.49448(14) 0.80521(14)
C103_4 C 0.64534(12) 0.32796(15) 0.52401(15)
H69_4 H 0.6328 0.3155 0.4868
C104_4 C 0.67908(12) 0.36723(16) 0.54016(15)
H70_4 H 0.6886 0.3814 0.5141
C105_4 C 0.69874(12) 0.38552(14) 0.59587(14)
C106_4 C 0.68411(13) 0.36140(16) 0.63335(15)
H71_4 H 0.6975 0.3713 0.6714
C107_4 C 0.65016(13) 0.32342(16) 0.61372(15)
H72_4 H 0.6405 0.3080 0.6391
C108_4 C 0.73389(12) 0.43036(15) 0.61394(15)
H73_4 H 0.291445 0.99699 0.803001
H74_4 H 0.24322 0.973104 0.752433
H75_4 H 0.708555 0.99699 0.696999
H76_4 H 0.75678 0.973104 0.747567
loop_
_geom_bond_atom_site_label_1
_geom_bond_atom_site_label_2
_geom_bond_site_symmetry_1
_geom_bond_site_symmetry_2
Co4 O19 1_555 1_555
Co5 O16 1_555 1_555
O3 Co1 1_555 1_555
O8 Co1 1_555 1_555
O9 C24 1_555 1_555
O16 C48 1_555 1_555
O17 C48 1_555 1_555
O18 C54 1_555 1_555
O19 Co15 1_555 1_555
O20 Co4 1_555 1_555
O21 C54 1_555 1_555
N1 Co5 1_555 1_555
N4 Co4 1_555 1_555
N8 C43 1_555 1_555
N9 Co1 1_555 1_555
C4 C3 1_555 1_555
H3 C4 1_555 1_555
C5 N1 1_555 1_555
H4 C5 1_555 1_555
C19 N4 1_555 1_555
H13 C19 1_555 1_555
C20 C19 1_555 1_555
H14 C20 1_555 1_555
C21 C20 1_555 1_555
C22 C21 1_555 1_555
H15 C22 1_555 1_555
C23 N4 1_555 1_555
H16 C23 1_555 1_555
C24 O8 1_555 1_555
H27 C40 1_555 1_555
H28 C41 1_555 1_555
C43 H29 1_555 1_555
C44 C43 1_555 1_555
H30 C44 1_555 1_555
C45 C44 1_555 1_555
C46 C45 1_555 1_555
H31 C46 1_555 1_555
C47 N8 1_555 1_555
H32 C47 1_555 1_555
C48 C45 1_555 1_555
C49 N9 1_555 1_555
C50 C49 1_555 1_555
H34 C50 1_555 1_555
C51 C50 1_555 1_555
C52 C51 1_555 1_555
H35 C52 1_555 1_555
C53 N9 1_555 1_555
H36 C53 1_555 1_555
C54 C51 1_555 1_555
Co8 N8 1_555 1_555
O23 Co7 1_555 1_555
O25 Co7 1_555 1_555
O27 Co7 1_555 1_555
O28 C72 1_555 1_555
O31 Co8 1_555 1_555
O32 C84 1_555 1_555
O33 C90 1_555 1_555
O34 C90 1_555 1_555
N11 C61 1_555 1_555
N12 C67 1_555 1_555
N14 Co7 1_555 1_555
N15 Co7 1_555 1_555
H37 C55 1_555 1_555
C56 C55 1_555 1_555
H38 C56 1_555 1_555
C61 H41 1_555 1_555
C62 C61 1_555 1_555
H42 C62 1_555 1_555
C67 H45 1_555 1_555
C68 C67 1_555 1_555
H46 C68 1_555 1_555
C69 C68 1_555 1_555
C70 C69 1_555 1_555
H47 C70 1_555 1_555
C71 N12 1_555 1_555
H48 C71 1_555 1_555
C72 O27 1_555 1_555
C79 N14 1_555 1_555
H53 C79 1_555 1_555
C80 C79 1_555 1_555
H54 C80 1_555 1_555
C81 C80 1_555 1_555
C82 C81 1_555 1_555
H55 C82 1_555 1_555
C83 N14 1_555 1_555
H56 C83 1_555 1_555
C84 O31 1_555 1_555
C85 N15 1_555 1_555
H57 C85 1_555 1_555
C86 C85 1_555 1_555
H58 C86 1_555 1_555
C87 C86 1_555 1_555
C88 C87 1_555 1_555
H59 C88 1_555 1_555
C89 N15 1_555 1_555
H60 C89 1_555 1_555
C90 C87 1_555 1_555
Co15 O33 1_555 1_555
Co19 N12 1_555 1_555
Co20 O32 1_555 1_555
O44 Co4 1_555 1_555
O46 Co8 1_555 1_555
O51 Co8 1_555 1_555
O54 Co4 1_555 1_555
N21 Co4 1_555 1_555
O3 C6 1_555 1_555
C3 C6 1_555 1_555
C4 C5 1_555 1_555
C21 C24 1_555 1_555
C22 C23 1_555 1_555
C40 C41 1_555 1_555
C46 C47 1_555 1_555
C52 C53 1_555 1_555
C69 C72 1_555 1_555
C70 C71 1_555 1_555
C81 C84 1_555 1_555
C82 C83 1_555 1_555
C88 C89 1_555 1_555
Co20 O51 1_555 1_555
O20 H73 1_555 1_555
O20 H74 1_555 1_555
O14 C42 1_555 1_555
O15 C42 1_555 1_555
C10 C9 1_555 1_555
H7 C10 1_555 1_555
H8 C11 1_555 1_555
C37 N7 1_555 1_555
H25 C37 1_555 1_555
C38 C37 1_555 1_555
H26 C38 1_555 1_555
C39 C38 1_555 1_555
C42 C39 1_555 1_555
Co10 O15 1_555 1_555
O5 C12 1_555 1_555
C9 C12 1_555 1_555
C10 C11 1_555 1_555
O12 C36 1_555 1_555
O13 C36 1_555 1_555
H1 C1 1_555 1_555
C2 C1 1_555 1_555
H2 C2 1_555 1_555
C31 N6 1_555 1_555
H21 C31 1_555 1_555
C32 C31 1_555 1_555
H22 C32 1_555 1_555
C33 C32 1_555 1_555
C36 C33 1_555 1_555
Co6 O22 1_555 1_555
Co9 O40 1_555 1_555
O24 Co6 1_555 1_555
O26 Co6 1_555 1_555
O29 Co6 1_555 1_555
O30 C78 1_555 1_555
O35 C96 1_555 1_555
O36 C96 1_555 1_555
O37 Co5_2 1_555 1_555
O38 C102 1_555 1_555
O39 C108 1_555 1_555
O40 Co14 1_555 1_555
O41 Co9 1_555 1_555
O42 C108 1_555 1_555
N10 Co5_2 1_555 1_555
N13 Co9 1_555 1_555
N16 Co6 1_555 1_555
N18 Co6 1_555 1_555
C58 C57 1_555 1_555
H39 C58 1_555 1_555
C59 N10 1_555 1_555
H40 C59 1_555 1_555
C64 C63 1_555 1_555
H43 C64 1_555 1_555
H44 C65 1_555 1_555
C73 N13 1_555 1_555
H49 C73 1_555 1_555
C74 C73 1_555 1_555
H50 C74 1_555 1_555
C75 C74 1_555 1_555
C76 C75 1_555 1_555
H51 C76 1_555 1_555
C77 N13 1_555 1_555
H52 C77 1_555 1_555
C78 O29 1_555 1_555
C91 N16 1_555 1_555
H61 C91 1_555 1_555
C92 C91 1_555 1_555
H62 C92 1_555 1_555
C93 C92 1_555 1_555
C94 C93 1_555 1_555
H63 C94 1_555 1_555
C95 N16 1_555 1_555
H64 C95 1_555 1_555
C96 C93 1_555 1_555
C97 N17 1_555 1_555
H65 C97 1_555 1_555
C98 C97 1_555 1_555
H66 C98 1_555 1_555
C99 C98 1_555 1_555
C100 C99 1_555 1_555
H67 C100 1_555 1_555
C101 N17 1_555 1_555
H68 C101 1_555 1_555
C102 O37 1_555 1_555
C103 N18 1_555 1_555
H69 C103 1_555 1_555
C104 C103 1_555 1_555
H70 C104 1_555 1_555
C105 C104 1_555 1_555
C106 C105 1_555 1_555
H71 C106 1_555 1_555
C107 N18 1_555 1_555
H72 C107 1_555 1_555
C108 C105 1_555 1_555
Co11 O36 1_555 1_555
Co14 O12 1_555 1_555
O43 Co9 1_555 1_555
O53 Co9 1_555 1_555
N22 Co9 1_555 1_555
O24 C60 1_555 1_555
O26 C66 1_555 1_555
C57 C60 1_555 1_555
C58 C59 1_555 1_555
C63 C66 1_555 1_555
C64 C65 1_555 1_555
C75 C78 1_555 1_555
C76 C77 1_555 1_555
C94 C95 1_555 1_555
C99 C102 1_555 1_555
C100 C101 1_555 1_555
C106 C107 1_555 1_555
O41 H75 1_555 1_555
O41 H76 1_555 1_555
Co3 O10 1_555 1_555
O4 Co2 1_555 1_555
O6 Co2 1_555 1_555
O7 C18 1_555 1_555
O10 C30 1_555 1_555
O11 C30 1_555 1_555
N2 C7 1_555 1_555
N3 C13 1_555 1_555
N5 Co2 1_555 1_555
C7 H5 1_555 1_555
C8 C7 1_555 1_555
H6 C8 1_555 1_555
C13 H9 1_555 1_555
C14 C13 1_555 1_555
H10 C14 1_555 1_555
C15 C14 1_555 1_555
C16 C15 1_555 1_555
H11 C16 1_555 1_555
C17 N3 1_555 1_555
H12 C17 1_555 1_555
C18 O6 1_555 1_555
C25 N5 1_555 1_555
H17 C25 1_555 1_555
C26 C25 1_555 1_555
H18 C26 1_555 1_555
C27 C26 1_555 1_555
C28 C27 1_555 1_555
H19 C28 1_555 1_555
C29 N5 1_555 1_555
C30 C27 1_555 1_555
H23 C34 1_555 1_555
H24 C35 1_555 1_555
Co18 N3 1_555 1_555
Co21 O11 1_555 1_555
O45 Co3 1_555 1_555
O52 Co3 1_555 1_555
C15 C18 1_555 1_555
C16 C17 1_555 1_555
C28 C29 1_555 1_555
C34 C35 1_555 1_555
Co21 O52 1_555 1_555
Co16 O19_2 1_555 1_555
Co5_3 O16_2 1_555 1_555
O3_2 Co1_2 1_555 1_555
O8_2 Co1_2 1_555 1_555
O9_2 C24_2 1_555 1_555
O12_2 C36_2 1_555 1_555
O13_2 C36_2 1_555 1_555
O16_2 C48_2 1_555 1_555
O17_2 C48_2 1_555 1_555
O18_2 C54_2 1_555 1_555
O19_2 Co13 1_555 1_555
O20_2 Co16 1_555 1_555
O53 C54_2 1_555 1_555
N1_2 Co5_3 1_555 1_555
N4_2 Co16 1_555 1_555
N8_2 C43_2 1_555 1_555
N9_2 Co1_2 1_555 1_555
C1_2 N1_2 1_555 1_555
H1_2 C1_2 1_555 1_555
C2_2 C1_2 1_555 1_555
H2_2 C2_2 1_555 1_555
C3_2 C2_2 1_555 1_555
C4_2 C3_2 1_555 1_555
H3_2 C4_2 1_555 1_555
C5_2 N1_2 1_555 1_555
H4_2 C5_2 1_555 1_555
C6_2 O2_2 1_555 1_555
C19_2 N4_2 1_555 1_555
H13_2 C19_2 1_555 1_555
C20_2 C19_2 1_555 1_555
H14_2 C20_2 1_555 1_555
C21_2 C20_2 1_555 1_555
C22_2 C21_2 1_555 1_555
H15_2 C22_2 1_555 1_555
C23_2 N4_2 1_555 1_555
H16_2 C23_2 1_555 1_555
C24_2 O8_2 1_555 1_555
C31_2 N6_2 1_555 1_555
H21_2 C31_2 1_555 1_555
C32_2 C31_2 1_555 1_555
H22_2 C32_2 1_555 1_555
C33_2 C32_2 1_555 1_555
C36_2 C33_2 1_555 1_555
H27_2 C40_2 1_555 1_555
H28_2 C41_2 1_555 1_555
C43_2 H29_2 1_555 1_555
C44_2 C43_2 1_555 1_555
H30_2 C44_2 1_555 1_555
C45_2 C44_2 1_555 1_555
C46_2 C45_2 1_555 1_555
H31_2 C46_2 1_555 1_555
C47_2 N8_2 1_555 1_555
H32_2 C47_2 1_555 1_555
C48_2 C45_2 1_555 1_555
C49_2 N9_2 1_555 1_555
C50_2 C49_2 1_555 1_555
H34_2 C50_2 1_555 1_555
C51_2 C50_2 1_555 1_555
C52_2 C51_2 1_555 1_555
H35_2 C52_2 1_555 1_555
C53_2 N9_2 1_555 1_555
H36_2 C53_2 1_555 1_555
C54_2 C51_2 1_555 1_555
Co6_2 O22_2 1_555 1_555
Co7_2 O22_2 1_555 1_555
Co11 N8_2 1_555 1_555
Co17 O40_2 1_555 1_555
O23_2 Co7_2 1_555 1_555
O24_2 Co6_2 1_555 1_555
O25_2 Co7_2 1_555 1_555
O26_2 Co6_2 1_555 1_555
O27_2 Co7_2 1_555 1_555
O28_2 C72_2 1_555 1_555
O29_2 Co6_2 1_555 1_555
O30_2 C78_2 1_555 1_555
O31_2 Co11 1_555 1_555
O32_2 C84_2 1_555 1_555
O33_2 C90_2 1_555 1_555
O34_2 C90_2 1_555 1_555
O35_2 C96_2 1_555 1_555
O48 C96_2 1_555 1_555
O37_2 Co5_3 1_555 1_555
O38_2 C102_2 1_555 1_555
O39_2 C108_2 1_555 1_555
O40_2 Co12 1_555 1_555
O41_2 Co17 1_555 1_555
O54 C108_2 1_555 1_555
N10_2 Co5_3 1_555 1_555
N11_2 C61_2 1_555 1_555
N12_2 C67_2 1_555 1_555
N13_2 Co17 1_555 1_555
N14_2 Co7_2 1_555 1_555
N15_2 Co7_2 1_555 1_555
N16_2 Co6_2 1_555 1_555
N18_2 Co6_2 1_555 1_555
C55_2 N10_2 1_555 1_555
H37_2 C55_2 1_555 1_555
C56_2 C55_2 1_555 1_555
H38_2 C56_2 1_555 1_555
C57_2 C56_2 1_555 1_555
C58_2 C57_2 1_555 1_555
H39_2 C58_2 1_555 1_555
C59_2 N10_2 1_555 1_555
H40_2 C59_2 1_555 1_555
C60_2 O23_2 1_555 1_555
C61_2 H41_2 1_555 1_555
C62_2 C61_2 1_555 1_555
H42_2 C62_2 1_555 1_555
C63_2 C62_2 1_555 1_555
C64_2 C63_2 1_555 1_555
H43_2 C64_2 1_555 1_555
C65_2 N11_2 1_555 1_555
H44_2 C65_2 1_555 1_555
C66_2 O25_2 1_555 1_555
C67_2 H45_2 1_555 1_555
C68_2 C67_2 1_555 1_555
H46_2 C68_2 1_555 1_555
C69_2 C68_2 1_555 1_555
C70_2 C69_2 1_555 1_555
H47_2 C70_2 1_555 1_555
C71_2 N12_2 1_555 1_555
H48_2 C71_2 1_555 1_555
C72_2 O27_2 1_555 1_555
C73_2 N13_2 1_555 1_555
H49_2 C73_2 1_555 1_555
C74_2 C73_2 1_555 1_555
H50_2 C74_2 1_555 1_555
C75_2 C74_2 1_555 1_555
C76_2 C75_2 1_555 1_555
H51_2 C76_2 1_555 1_555
C77_2 N13_2 1_555 1_555
H52_2 C77_2 1_555 1_555
C78_2 O29_2 1_555 1_555
C79_2 N14_2 1_555 1_555
H53_2 C79_2 1_555 1_555
C80_2 C79_2 1_555 1_555
H54_2 C80_2 1_555 1_555
C81_2 C80_2 1_555 1_555
C82_2 C81_2 1_555 1_555
H55_2 C82_2 1_555 1_555
C83_2 N14_2 1_555 1_555
H56_2 C83_2 1_555 1_555
C84_2 O31_2 1_555 1_555
C85_2 N15_2 1_555 1_555
H57_2 C85_2 1_555 1_555
C86_2 C85_2 1_555 1_555
H58_2 C86_2 1_555 1_555
C87_2 C86_2 1_555 1_555
C88_2 C87_2 1_555 1_555
H59_2 C88_2 1_555 1_555
C89_2 N15_2 1_555 1_555
H60_2 C89_2 1_555 1_555
C90_2 C87_2 1_555 1_555
C91_2 N16_2 1_555 1_555
H61_2 C91_2 1_555 1_555
C92_2 C91_2 1_555 1_555
H62_2 C92_2 1_555 1_555
C93_2 C92_2 1_555 1_555
C94_2 C93_2 1_555 1_555
H63_2 C94_2 1_555 1_555
C95_2 N16_2 1_555 1_555
H64_2 C95_2 1_555 1_555
C96_2 C93_2 1_555 1_555
C97_2 N17_2 1_555 1_555
H65_2 C97_2 1_555 1_555
C98_2 C97_2 1_555 1_555
H66_2 C98_2 1_555 1_555
C99_2 C98_2 1_555 1_555
C100_2 C99_2 1_555 1_555
H67_2 C100_2 1_555 1_555
C101_2 N17_2 1_555 1_555
H68_2 C101_2 1_555 1_555
C102_2 O37_2 1_555 1_555
C103_2 N18_2 1_555 1_555
H69_2 C103_2 1_555 1_555
C104_2 C103_2 1_555 1_555
H70_2 C104_2 1_555 1_555
C105_2 C104_2 1_555 1_555
C106_2 C105_2 1_555 1_555
H71_2 C106_2 1_555 1_555
C107_2 N18_2 1_555 1_555
H72_2 C107_2 1_555 1_555
C108_2 C105_2 1_555 1_555
Co14 O18_2 1_555 1_555
Co15 O39_2 1_555 1_555
Co12 O12_2 1_555 1_555
Co13 O33_2 1_555 1_555
Co18 O32_2 1_555 1_555
Co23_3 N11_2 1_555 1_555
O43_2 Co17 1_555 1_555
O44_2 Co16 1_555 1_555
O46_2 Co11 1_555 1_555
O50_2 Co11 1_555 1_555
O51_2 Co11 1_555 1_555
N19_2 Co5_3 1_555 1_555
N20_2 Co5_3 1_555 1_555
O3_2 C6_2 1_555 1_555
C3_2 C6_2 1_555 1_555
C4_2 C5_2 1_555 1_555
C21_2 C24_2 1_555 1_555
C22_2 C23_2 1_555 1_555
C40_2 C41_2 1_555 1_555
C46_2 C47_2 1_555 1_555
C52_2 C53_2 1_555 1_555
O24_2 C60_2 1_555 1_555
O26_2 C66_2 1_555 1_555
C57_2 C60_2 1_555 1_555
C58_2 C59_2 1_555 1_555
C63_2 C66_2 1_555 1_555
C64_2 C65_2 1_555 1_555
C69_2 C72_2 1_555 1_555
C70_2 C71_2 1_555 1_555
C75_2 C78_2 1_555 1_555
C76_2 C77_2 1_555 1_555
C81_2 C84_2 1_555 1_555
C82_2 C83_2 1_555 1_555
C88_2 C89_2 1_555 1_555
C94_2 C95_2 1_555 1_555
C99_2 C102_2 1_555 1_555
C100_2 C101_2 1_555 1_555
C106_2 C107_2 1_555 1_555
Co18 O51_2 1_555 1_555
Co2_2 O1_2 1_555 1_555
Co10 O10_2 1_555 1_555
O4_2 Co2_2 1_555 1_555
O6_2 Co2_2 1_555 1_555
O7_2 C18_2 1_555 1_555
O10_2 C30_2 1_555 1_555
O11_2 C30_2 1_555 1_555
O14_2 C42_2 1_555 1_555
O47 C42_2 1_555 1_555
N2_2 C7_2 1_555 1_555
N3_2 C13_2 1_555 1_555
N5_2 Co2_2 1_555 1_555
C7_2 H5_2 1_555 1_555
C8_2 C7_2 1_555 1_555
H6_2 C8_2 1_555 1_555
C9_2 C8_2 1_555 1_555
C10_2 C9_2 1_555 1_555
H7_2 C10_2 1_555 1_555
C11_2 N2_2 1_555 1_555
H8_2 C11_2 1_555 1_555
C12_2 O4_2 1_555 1_555
C13_2 H9_2 1_555 1_555
C14_2 C13_2 1_555 1_555
H10_2 C14_2 1_555 1_555
C15_2 C14_2 1_555 1_555
C16_2 C15_2 1_555 1_555
H11_2 C16_2 1_555 1_555
C17_2 N3_2 1_555 1_555
H12_2 C17_2 1_555 1_555
C18_2 O6_2 1_555 1_555
C25_2 N5_2 1_555 1_555
H17_2 C25_2 1_555 1_555
C26_2 C25_2 1_555 1_555
H18_2 C26_2 1_555 1_555
C27_2 C26_2 1_555 1_555
C28_2 C27_2 1_555 1_555
H19_2 C28_2 1_555 1_555
C29_2 N5_2 1_555 1_555
C30_2 C27_2 1_555 1_555
H23_2 C34_2 1_555 1_555
H24_2 C35_2 1_555 1_555
C37_2 N7_2 1_555 1_555
H25_2 C37_2 1_555 1_555
C38_2 C37_2 1_555 1_555
H26_2 C38_2 1_555 1_555
C39_2 C38_2 1_555 1_555
C42_2 C39_2 1_555 1_555
Co19 O11_2 1_555 1_555
Co23_3 N2_2 1_555 1_555
O45_2 Co10 1_555 1_555
O49_2 Co10 1_555 1_555
O52_2 Co10 1_555 1_555
O5_2 C12_2 1_555 1_555
C9_2 C12_2 1_555 1_555
C10_2 C11_2 1_555 1_555
C15_2 C18_2 1_555 1_555
C16_2 C17_2 1_555 1_555
C28_2 C29_2 1_555 1_555
C34_2 C35_2 1_555 1_555
Co19 O52_2 1_555 1_555
Co12 O10_3 1_555 1_555
O4_3 Co2_3 1_555 1_555
O6_3 Co2_3 1_555 1_555
O7_3 C18_3 1_555 1_555
O10_3 C30_3 1_555 1_555
O43_2 C30_3 1_555 1_555
N19 C7_3 1_555 1_555
N21 C13_3 1_555 1_555
N5_3 Co2_3 1_555 1_555
C7_3 H5_3 1_555 1_555
C8_3 C7_3 1_555 1_555
H6_3 C8_3 1_555 1_555
C13_3 H9_3 1_555 1_555
C14_3 C13_3 1_555 1_555
H10_3 C14_3 1_555 1_555
C15_3 C14_3 1_555 1_555
C16_3 C15_3 1_555 1_555
H11_3 C16_3 1_555 1_555
C17_3 N21 1_555 1_555
H12_3 C17_3 1_555 1_555
C18_3 O6_3 1_555 1_555
C25_3 N5_3 1_555 1_555
H17_3 C25_3 1_555 1_555
C26_3 C25_3 1_555 1_555
H18_3 C26_3 1_555 1_555
C27_3 C26_3 1_555 1_555
C28_3 C27_3 1_555 1_555
H19_3 C28_3 1_555 1_555
C29_3 N5_3 1_555 1_555
C30_3 C27_3 1_555 1_555
H23_3 C34_3 1_555 1_555
H24_3 C35_3 1_555 1_555
C15_3 C18_3 1_555 1_555
C16_3 C17_3 1_555 1_555
C28_3 C29_3 1_555 1_555
C34_3 C35_3 1_555 1_555
O45_2 C36_3 1_555 1_555
O13_3 C36_3 1_555 1_555
H1_3 C1_3 1_555 1_555
C2_3 C1_3 1_555 1_555
H2_3 C2_3 1_555 1_555
C31_3 N6_3 1_555 1_555
H21_3 C31_3 1_555 1_555
C32_3 C31_3 1_555 1_555
H22_3 C32_3 1_555 1_555
C33_3 C32_3 1_555 1_555
C36_3 C33_3 1_555 1_555
Co6_3 O22_3 1_555 1_555
O24_3 Co6_3 1_555 1_555
O26_3 Co6_3 1_555 1_555
O29_3 Co6_3 1_555 1_555
O30_3 C78_3 1_555 1_555
O35_3 C96_3 1_555 1_555
O36_2 C96_3 1_555 1_555
O37_3 Co23 1_555 1_555
O38_3 C102_3 1_555 1_555
O50 C108_3 1_555 1_555
O41_3 Co19 1_555 1_555
O42_2 C108_3 1_555 1_555
N10_3 Co23 1_555 1_555
N13_3 Co19 1_555 1_555
N16_3 Co6_3 1_555 1_555
N18_3 Co6_3 1_555 1_555
C58_3 C57_3 1_555 1_555
H39_3 C58_3 1_555 1_555
C59_3 N10_3 1_555 1_555
H40_3 C59_3 1_555 1_555
C64_3 C63_3 1_555 1_555
H43_3 C64_3 1_555 1_555
H44_3 C65_3 1_555 1_555
C73_3 N13_3 1_555 1_555
H49_3 C73_3 1_555 1_555
C74_3 C73_3 1_555 1_555
H50_3 C74_3 1_555 1_555
C75_3 C74_3 1_555 1_555
C76_3 C75_3 1_555 1_555
H51_3 C76_3 1_555 1_555
C77_3 N13_3 1_555 1_555
H52_3 C77_3 1_555 1_555
C78_3 O29_3 1_555 1_555
C91_3 N16_3 1_555 1_555
H61_3 C91_3 1_555 1_555
C92_3 C91_3 1_555 1_555
H62_3 C92_3 1_555 1_555
C93_3 C92_3 1_555 1_555
C94_3 C93_3 1_555 1_555
H63_3 C94_3 1_555 1_555
C95_3 N16_3 1_555 1_555
H64_3 C95_3 1_555 1_555
C96_3 C93_3 1_555 1_555
C97_3 N17_3 1_555 1_555
H65_3 C97_3 1_555 1_555
C98_3 C97_3 1_555 1_555
H66_3 C98_3 1_555 1_555
C99_3 C98_3 1_555 1_555
C100_3 C99_3 1_555 1_555
H67_3 C100_3 1_555 1_555
C101_3 N17_3 1_555 1_555
H68_3 C101_3 1_555 1_555
C102_3 O37_3 1_555 1_555
C103_3 N18_3 1_555 1_555
H69_3 C103_3 1_555 1_555
C104_3 C103_3 1_555 1_555
H70_3 C104_3 1_555 1_555
C105_3 C104_3 1_555 1_555
C106_3 C105_3 1_555 1_555
H71_3 C106_3 1_555 1_555
C107_3 N18_3 1_555 1_555
H72_3 C107_3 1_555 1_555
C108_3 C105_3 1_555 1_555
Co15 O36_2 1_555 1_555
O53_2 Co19 1_555 1_555
O24_3 C60_3 1_555 1_555
O26_3 C66_3 1_555 1_555
C57_3 C60_3 1_555 1_555
C58_3 C59_3 1_555 1_555
C63_3 C66_3 1_555 1_555
C64_3 C65_3 1_555 1_555
C75_3 C78_3 1_555 1_555
C76_3 C77_3 1_555 1_555
C94_3 C95_3 1_555 1_555
C99_3 C102_3 1_555 1_555
C100_3 C101_3 1_555 1_555
C106_3 C107_3 1_555 1_555
O41_3 H75_3 1_555 1_555
O41_3 H76_3 1_555 1_555
O14_3 C42_3 1_555 1_555
O15_2 C42_3 1_555 1_555
C10_3 C9_3 1_555 1_555
H7_3 C10_3 1_555 1_555
H8_3 C11_3 1_555 1_555
C37_3 N7_3 1_555 1_555
H25_3 C37_3 1_555 1_555
C38_3 C37_3 1_555 1_555
H26_3 C38_3 1_555 1_555
C39_3 C38_3 1_555 1_555
C42_3 C39_3 1_555 1_555
Co14 O15_2 1_555 1_555
O5_3 C12_3 1_555 1_555
C9_3 C12_3 1_555 1_555
C10_3 C11_3 1_555 1_555
Co23_2 O16_3 1_555 1_555
O3_3 Co1_3 1_555 1_555
O8_3 Co1_3 1_555 1_555
O9_3 C24_3 1_555 1_555
O16_3 C48_3 1_555 1_555
O17_3 C48_3 1_555 1_555
O49 C54_3 1_555 1_555
O20_3 Co18 1_555 1_555
O21_2 C54_3 1_555 1_555
N1_3 Co23_2 1_555 1_555
N4_3 Co18 1_555 1_555
N8_3 C43_3 1_555 1_555
N9_3 Co1_3 1_555 1_555
C4_3 C3_3 1_555 1_555
H3_3 C4_3 1_555 1_555
C5_3 N1_3 1_555 1_555
H4_3 C5_3 1_555 1_555
C19_3 N4_3 1_555 1_555
H13_3 C19_3 1_555 1_555
C20_3 C19_3 1_555 1_555
H14_3 C20_3 1_555 1_555
C21_3 C20_3 1_555 1_555
C22_3 C21_3 1_555 1_555
H15_3 C22_3 1_555 1_555
C23_3 N4_3 1_555 1_555
H16_3 C23_3 1_555 1_555
C24_3 O8_3 1_555 1_555
H27_3 C40_3 1_555 1_555
H28_3 C41_3 1_555 1_555
C43_3 H29_3 1_555 1_555
C44_3 C43_3 1_555 1_555
H30_3 C44_3 1_555 1_555
C45_3 C44_3 1_555 1_555
C46_3 C45_3 1_555 1_555
H31_3 C46_3 1_555 1_555
C47_3 N8_3 1_555 1_555
H32_3 C47_3 1_555 1_555
C48_3 C45_3 1_555 1_555
C49_3 N9_3 1_555 1_555
C50_3 C49_3 1_555 1_555
H34_3 C50_3 1_555 1_555
C51_3 C50_3 1_555 1_555
C52_3 C51_3 1_555 1_555
H35_3 C52_3 1_555 1_555
C53_3 N9_3 1_555 1_555
H36_3 C53_3 1_555 1_555
C54_3 C51_3 1_555 1_555
Co13 N8_3 1_555 1_555
O23_3 Co7_3 1_555 1_555
O25_3 Co7_3 1_555 1_555
O27_3 Co7_3 1_555 1_555
O28_3 C72_3 1_555 1_555
O31_3 Co13 1_555 1_555
O44_2 C84_3 1_555 1_555
O46_2 C90_3 1_555 1_555
O34_3 C90_3 1_555 1_555
N20 C61_3 1_555 1_555
N22 C67_3 1_555 1_555
N14_3 Co7_3 1_555 1_555
N15_3 Co7_3 1_555 1_555
H37_3 C55_3 1_555 1_555
C56_3 C55_3 1_555 1_555
H38_3 C56_3 1_555 1_555
C61_3 H41_3 1_555 1_555
C62_3 C61_3 1_555 1_555
H42_3 C62_3 1_555 1_555
C67_3 H45_3 1_555 1_555
C68_3 C67_3 1_555 1_555
H46_3 C68_3 1_555 1_555
C69_3 C68_3 1_555 1_555
C70_3 C69_3 1_555 1_555
H47_3 C70_3 1_555 1_555
C71_3 N22 1_555 1_555
H48_3 C71_3 1_555 1_555
C72_3 O27_3 1_555 1_555
C79_3 N14_3 1_555 1_555
H53_3 C79_3 1_555 1_555
C80_3 C79_3 1_555 1_555
H54_3 C80_3 1_555 1_555
C81_3 C80_3 1_555 1_555
C82_3 C81_3 1_555 1_555
H55_3 C82_3 1_555 1_555
C83_3 N14_3 1_555 1_555
H56_3 C83_3 1_555 1_555
C84_3 O31_3 1_555 1_555
C85_3 N15_3 1_555 1_555
H57_3 C85_3 1_555 1_555
C86_3 C85_3 1_555 1_555
H58_3 C86_3 1_555 1_555
C87_3 C86_3 1_555 1_555
C88_3 C87_3 1_555 1_555
H59_3 C88_3 1_555 1_555
C89_3 N15_3 1_555 1_555
H60_3 C89_3 1_555 1_555
C90_3 C87_3 1_555 1_555
O54_2 Co18 1_555 1_555
O3_3 C6_3 1_555 1_555
C3_3 C6_3 1_555 1_555
C4_3 C5_3 1_555 1_555
C21_3 C24_3 1_555 1_555
C22_3 C23_3 1_555 1_555
C40_3 C41_3 1_555 1_555
C46_3 C47_3 1_555 1_555
C52_3 C53_3 1_555 1_555
C69_3 C72_3 1_555 1_555
C70_3 C71_3 1_555 1_555
C81_3 C84_3 1_555 1_555
C82_3 C83_3 1_555 1_555
C88_3 C89_3 1_555 1_555
O20_3 H73_3 1_555 1_555
O20_3 H74_3 1_555 1_555
Co2_4 O1_4 1_555 1_555
Co14 O10_4 1_555 1_555
O4_4 Co2_4 1_555 1_555
O6_4 Co2_4 1_555 1_555
O7_4 C18_4 1_555 1_555
O10_4 C30_4 1_555 1_555
O43 C30_4 1_555 1_555
O14_4 C42_4 1_555 1_555
O47_2 C42_4 1_555 1_555
N19_2 C7_4 1_555 1_555
N21_2 C13_4 1_555 1_555
N5_4 Co2_4 1_555 1_555
C7_4 H5_4 1_555 1_555
C8_4 C7_4 1_555 1_555
H6_4 C8_4 1_555 1_555
C9_4 C8_4 1_555 1_555
C10_4 C9_4 1_555 1_555
H7_4 C10_4 1_555 1_555
C11_4 N19_2 1_555 1_555
H8_4 C11_4 1_555 1_555
C12_4 O4_4 1_555 1_555
C13_4 H9_4 1_555 1_555
C14_4 C13_4 1_555 1_555
H10_4 C14_4 1_555 1_555
C15_4 C14_4 1_555 1_555
C16_4 C15_4 1_555 1_555
H11_4 C16_4 1_555 1_555
C17_4 N21_2 1_555 1_555
H12_4 C17_4 1_555 1_555
C18_4 O6_4 1_555 1_555
C25_4 N5_4 1_555 1_555
H17_4 C25_4 1_555 1_555
C26_4 C25_4 1_555 1_555
H18_4 C26_4 1_555 1_555
C27_4 C26_4 1_555 1_555
C28_4 C27_4 1_555 1_555
H19_4 C28_4 1_555 1_555
C29_4 N5_4 1_555 1_555
C30_4 C27_4 1_555 1_555
H23_4 C34_4 1_555 1_555
H24_4 C35_4 1_555 1_555
C37_4 N7_4 1_555 1_555
H25_4 C37_4 1_555 1_555
C38_4 C37_4 1_555 1_555
H26_4 C38_4 1_555 1_555
C39_4 C38_4 1_555 1_555
C42_4 C39_4 1_555 1_555
O5_4 C12_4 1_555 1_555
C9_4 C12_4 1_555 1_555
C10_4 C11_4 1_555 1_555
C15_4 C18_4 1_555 1_555
C16_4 C17_4 1_555 1_555
C28_4 C29_4 1_555 1_555
C34_4 C35_4 1_555 1_555
Co23_3 O16_4 1_555 1_555
O3_4 Co1_4 1_555 1_555
O8_4 Co1_4 1_555 1_555
O9_4 C24_4 1_555 1_555
O45 C36_4 1_555 1_555
O13_4 C36_4 1_555 1_555
O16_4 C48_4 1_555 1_555
O17_4 C48_4 1_555 1_555
O49_2 C54_4 1_555 1_555
O20_4 Co20 1_555 1_555
O53_2 C54_4 1_555 1_555
N1_4 Co23_3 1_555 1_555
N4_4 Co20 1_555 1_555
N8_4 C43_4 1_555 1_555
N9_4 Co1_4 1_555 1_555
C1_4 N1_4 1_555 1_555
H1_4 C1_4 1_555 1_555
C2_4 C1_4 1_555 1_555
H2_4 C2_4 1_555 1_555
C3_4 C2_4 1_555 1_555
C4_4 C3_4 1_555 1_555
H3_4 C4_4 1_555 1_555
C5_4 N1_4 1_555 1_555
H4_4 C5_4 1_555 1_555
C6_4 O2_4 1_555 1_555
C19_4 N4_4 1_555 1_555
H13_4 C19_4 1_555 1_555
C20_4 C19_4 1_555 1_555
H14_4 C20_4 1_555 1_555
C21_4 C20_4 1_555 1_555
C22_4 C21_4 1_555 1_555
H15_4 C22_4 1_555 1_555
C23_4 N4_4 1_555 1_555
H16_4 C23_4 1_555 1_555
C24_4 O8_4 1_555 1_555
C31_4 N6_4 1_555 1_555
H21_4 C31_4 1_555 1_555
C32_4 C31_4 1_555 1_555
H22_4 C32_4 1_555 1_555
C33_4 C32_4 1_555 1_555
C36_4 C33_4 1_555 1_555
H27_4 C40_4 1_555 1_555
H28_4 C41_4 1_555 1_555
C43_4 H29_4 1_555 1_555
C44_4 C43_4 1_555 1_555
H30_4 C44_4 1_555 1_555
C45_4 C44_4 1_555 1_555
C46_4 C45_4 1_555 1_555
H31_4 C46_4 1_555 1_555
C47_4 N8_4 1_555 1_555
H32_4 C47_4 1_555 1_555
C48_4 C45_4 1_555 1_555
C49_4 N9_4 1_555 1_555
C50_4 C49_4 1_555 1_555
H34_4 C50_4 1_555 1_555
C51_4 C50_4 1_555 1_555
C52_4 C51_4 1_555 1_555
H35_4 C52_4 1_555 1_555
C53_4 N9_4 1_555 1_555
H36_4 C53_4 1_555 1_555
C54_4 C51_4 1_555 1_555
Co6_4 O22_4 1_555 1_555
Co7_4 O22_4 1_555 1_555
Co15 N8_4 1_555 1_555
O23_4 Co7_4 1_555 1_555
O24_4 Co6_4 1_555 1_555
O25_4 Co7_4 1_555 1_555
O26_4 Co6_4 1_555 1_555
O27_4 Co7_4 1_555 1_555
O28_4 C72_4 1_555 1_555
O29_4 Co6_4 1_555 1_555
O30_4 C78_4 1_555 1_555
O31_4 Co15 1_555 1_555
O44 C84_4 1_555 1_555
O46 C90_4 1_555 1_555
O34_4 C90_4 1_555 1_555
O35_4 C96_4 1_555 1_555
O48_2 C96_4 1_555 1_555
O37_4 Co23_3 1_555 1_555
O38_4 C102_4 1_555 1_555
O50_2 C108_4 1_555 1_555
O41_4 Co21 1_555 1_555
O54_2 C108_4 1_555 1_555
N10_4 Co23_3 1_555 1_555
N20_2 C61_4 1_555 1_555
N22_2 C67_4 1_555 1_555
N13_4 Co21 1_555 1_555
N14_4 Co7_4 1_555 1_555
N15_4 Co7_4 1_555 1_555
N16_4 Co6_4 1_555 1_555
N18_4 Co6_4 1_555 1_555
C55_4 N10_4 1_555 1_555
H37_4 C55_4 1_555 1_555
C56_4 C55_4 1_555 1_555
H38_4 C56_4 1_555 1_555
C57_4 C56_4 1_555 1_555
C58_4 C57_4 1_555 1_555
H39_4 C58_4 1_555 1_555
C59_4 N10_4 1_555 1_555
H40_4 C59_4 1_555 1_555
C60_4 O23_4 1_555 1_555
C61_4 H41_4 1_555 1_555
C62_4 C61_4 1_555 1_555
H42_4 C62_4 1_555 1_555
C63_4 C62_4 1_555 1_555
C64_4 C63_4 1_555 1_555
H43_4 C64_4 1_555 1_555
C65_4 N20_2 1_555 1_555
H44_4 C65_4 1_555 1_555
C66_4 O25_4 1_555 1_555
C67_4 H45_4 1_555 1_555
C68_4 C67_4 1_555 1_555
H46_4 C68_4 1_555 1_555
C69_4 C68_4 1_555 1_555
C70_4 C69_4 1_555 1_555
H47_4 C70_4 1_555 1_555
C71_4 N22_2 1_555 1_555
H48_4 C71_4 1_555 1_555
C72_4 O27_4 1_555 1_555
C73_4 N13_4 1_555 1_555
H49_4 C73_4 1_555 1_555
C74_4 C73_4 1_555 1_555
H50_4 C74_4 1_555 1_555
C75_4 C74_4 1_555 1_555
C76_4 C75_4 1_555 1_555
H51_4 C76_4 1_555 1_555
C77_4 N13_4 1_555 1_555
H52_4 C77_4 1_555 1_555
C78_4 O29_4 1_555 1_555
C79_4 N14_4 1_555 1_555
H53_4 C79_4 1_555 1_555
C80_4 C79_4 1_555 1_555
H54_4 C80_4 1_555 1_555
C81_4 C80_4 1_555 1_555
C82_4 C81_4 1_555 1_555
H55_4 C82_4 1_555 1_555
C83_4 N14_4 1_555 1_555
H56_4 C83_4 1_555 1_555
C84_4 O31_4 1_555 1_555
C85_4 N15_4 1_555 1_555
H57_4 C85_4 1_555 1_555
C86_4 C85_4 1_555 1_555
H58_4 C86_4 1_555 1_555
C87_4 C86_4 1_555 1_555
C88_4 C87_4 1_555 1_555
H59_4 C88_4 1_555 1_555
C89_4 N15_4 1_555 1_555
H60_4 C89_4 1_555 1_555
C90_4 C87_4 1_555 1_555
C91_4 N16_4 1_555 1_555
H61_4 C91_4 1_555 1_555
C92_4 C91_4 1_555 1_555
H62_4 C92_4 1_555 1_555
C93_4 C92_4 1_555 1_555
C94_4 C93_4 1_555 1_555
H63_4 C94_4 1_555 1_555
C95_4 N16_4 1_555 1_555
H64_4 C95_4 1_555 1_555
C96_4 C93_4 1_555 1_555
C97_4 N17_4 1_555 1_555
H65_4 C97_4 1_555 1_555
C98_4 C97_4 1_555 1_555
H66_4 C98_4 1_555 1_555
C99_4 C98_4 1_555 1_555
C100_4 C99_4 1_555 1_555
H67_4 C100_4 1_555 1_555
C101_4 N17_4 1_555 1_555
H68_4 C101_4 1_555 1_555
C102_4 O37_4 1_555 1_555
C103_4 N18_4 1_555 1_555
H69_4 C103_4 1_555 1_555
C104_4 C103_4 1_555 1_555
H70_4 C104_4 1_555 1_555
C105_4 C104_4 1_555 1_555
C106_4 C105_4 1_555 1_555
H71_4 C106_4 1_555 1_555
C107_4 N18_4 1_555 1_555
H72_4 C107_4 1_555 1_555
C108_4 C105_4 1_555 1_555
O3_4 C6_4 1_555 1_555
C3_4 C6_4 1_555 1_555
C4_4 C5_4 1_555 1_555
C21_4 C24_4 1_555 1_555
C22_4 C23_4 1_555 1_555
C40_4 C41_4 1_555 1_555
C46_4 C47_4 1_555 1_555
C52_4 C53_4 1_555 1_555
O24_4 C60_4 1_555 1_555
O26_4 C66_4 1_555 1_555
C57_4 C60_4 1_555 1_555
C58_4 C59_4 1_555 1_555
C63_4 C66_4 1_555 1_555
C64_4 C65_4 1_555 1_555
C69_4 C72_4 1_555 1_555
C70_4 C71_4 1_555 1_555
C75_4 C78_4 1_555 1_555
C76_4 C77_4 1_555 1_555
C81_4 C84_4 1_555 1_555
C82_4 C83_4 1_555 1_555
C88_4 C89_4 1_555 1_555
C94_4 C95_4 1_555 1_555
C99_4 C102_4 1_555 1_555
C100_4 C101_4 1_555 1_555
C106_4 C107_4 1_555 1_555

#END
