
###############################################################################
#
# This file contains modified crystal structure data generated from the
# MOF subset of the Cambridge Structural Database (CSD) v543 
# hosted by the Cambridge Crystallographic Data Centre (CCDC).
#
# This work is licensed under the Creative Commons
# Attribution-NonCommercial-ShareAlike 4.0 International License.
# To view a copy of this license, visit
# http://creativecommons.org/licenses/by-nc-sa/4.0/
# or send a letter to
# Creative Commons, PO Box 1866, Mountain View, CA 94042, USA.
#
# CIF created using the CSD Python API on 29 September 2022
# The structure has been converted into the P1 space group
# The structure has a 3D framework
# The original CSD entry BOWQAG is in the monoclinic crystal system
# The framework has been calculated to contain at least 10.0% void space
# The void calculation uses a probe of radius 1.32A, grid spacing 0.4
#
###############################################################################

data_BOWQAG
_chemical_formula_moiety         '(C72 H48 N40 Zn4)n'
_symmetry_cell_setting           triclinic
_symmetry_space_group_name_H-M   'P 1'
_symmetry_Int_Tables_number      1
_space_group_name_Hall           'P 1'
loop_
_symmetry_equiv_pos_site_id
_symmetry_equiv_pos_as_xyz
1 x,y,z
_cell_length_a                   6.7186(13)
_cell_length_b                   17.082(3)
_cell_length_c                   17.352(4)
_cell_angle_alpha                90
_cell_angle_beta                 98.77(3)
_cell_angle_gamma                90
_cell_volume                     1968.16
loop_
_atom_site_label
_atom_site_type_symbol
_atom_site_fract_x
_atom_site_fract_y
_atom_site_fract_z
N7 N 0.1415(3) 0.87997(11) 0.80587(11)
N8 N 0.1963(3) 0.82468(12) 0.85811(12)
N9 N 0.0501(3) 0.77109(12) 0.85149(12)
Zn3 Zn 0.27804(4) 0.981687(15) 0.796119(14)
N14 N 0.0995(3) 0.07083(11) 0.80878(11)
N16 N 0.1445(3) 0.12392(12) 0.86381(12)
Zn4 Zn 0.72196(4) 0.018313(15) 0.203881(14)
N12 N 0.4745(3) 0.01320(11) 0.12121(11)
C26 C 0.1012(3) 0.00311(13) 0.02395(13)
C27 C 0.1702(3) 0.07347(14) 0.05933(14)
H19 H 0.0906 0.1195 0.0506
C28 C 0.3543(3) 0.07610(14) 0.10706(14)
H20 H 0.3980 0.1244 0.1309
C24 C 0.4134(3) 0.94615(14) 0.08472(14)
H17 H 0.4994 0.9018 0.0923
C25 C 0.2305(3) 0.93908(14) 0.03664(14)
H18 H 0.1928 0.8904 0.0122
C4 C 0.2803(3) 0.01990(14) 0.55408(14)
H3 H 0.1838 0.0389 0.5126
C5 C 0.2313(3) 0.01459(14) 0.62784(14)
H4 H 0.1003 0.0301 0.6360
C6 C 0.5866(3) 0.05385(14) 0.91528(14)
H5 H 0.5006 0.0982 0.9077
C7 C 0.7695(3) 0.06092(14) 0.96336(14)
H6 H 0.8072 0.1096 0.9878
N11 N 0.6380(3) 0.01188(11) 0.31056(11)
N20 N 0.8585(3) 0.12003(11) 0.19413(11)
C19 C 0.4542(3) 0.03264(14) 0.32385(14)
H13 H 0.3593 0.0504 0.2812
C20 C 0.3967(3) 0.02945(14) 0.39642(14)
H14 H 0.2652 0.0458 0.4030
C21 C 0.5288(3) 0.00252(13) 0.46038(13)
N1 N 0.3620(3) 0.98812(11) 0.68944(11)
N2 N 0.5255(3) 0.98680(11) 0.87879(11)
C1 C 0.5458(3) 0.96736(14) 0.67615(14)
H1 H 0.6407 0.9496 0.7188
C2 C 0.6033(3) 0.97055(14) 0.60358(14)
H2 H 0.7348 0.9542 0.5970
C3 C 0.4712(3) 0.99748(13) 0.53962(13)
C8 C 0.8988(3) 0.99689(13) 0.97605(13)
C9 C 0.8298(3) 0.92653(14) 0.94067(14)
H7 H 0.9094 0.8805 0.9494
C10 C 0.6457(3) 0.92390(14) 0.89294(14)
H8 H 0.6020 0.8756 0.8691
N15 N 0.9005(3) 0.92917(11) 0.19122(11)
C22 C 0.7197(3) 0.98010(14) 0.44592(14)
H15 H 0.8162 0.9611 0.4874
C23 C 0.7687(3) 0.98541(14) 0.37216(14)
H16 H 0.8997 0.9699 0.3640
N8_2 N 0.8037(3) 0.17532(12) 0.14189(12)
N9_2 N 0.9499(3) 0.22891(12) 0.14851(12)
N16_2 N 0.8555(3) 0.87608(12) 0.13619(12)
N5 N 0.0060(3) 0.67526(12) 0.64234(12)
N6 N 0.0795(3) 0.58524(12) 0.73480(12)
N10 N 0.9608(3) 0.86443(12) 0.76411(12)
C11 C 0.1413(3) 0.64993(13) 0.70283(13)
C12 C 0.3369(3) 0.68813(13) 0.72726(13)
C13 C 0.4521(3) 0.67121(13) 0.79935(14)
H9 H 0.4023 0.6357 0.8340
C14 C 0.4113(3) 0.74011(14) 0.67699(14)
H10 H 0.3331 0.7522 0.6281
C15 C 0.9085(3) 0.79693(13) 0.79361(14)
C16 C 0.7135(3) 0.75756(13) 0.77015(14)
C17 C 0.5992(3) 0.77445(14) 0.69781(14)
H11 H 0.6500 0.8094 0.6629
C18 C 0.6385(3) 0.70605(13) 0.82041(14)
H12 H 0.7156 0.6946 0.8697
N17 N 0.9940(3) 0.17526(12) 0.85766(12)
N18 N 0.9205(3) 0.08524(12) 0.76520(12)
N23 N 0.0392(3) 0.36443(12) 0.73589(12)
C29 C 0.8587(3) 0.14993(13) 0.79717(13)
C30 C 0.6631(3) 0.18813(13) 0.77274(13)
C31 C 0.5479(3) 0.17121(13) 0.70065(14)
H21 H 0.5977 0.1357 0.6660
C32 C 0.5887(3) 0.24011(14) 0.82301(14)
H22 H 0.6669 0.2522 0.8719
C33 C 0.0915(3) 0.29693(13) 0.70639(14)
C34 C 0.2865(3) 0.25756(13) 0.72985(14)
C35 C 0.4008(3) 0.27445(14) 0.80219(14)
H23 H 0.3500 0.3094 0.8371
C36 C 0.3615(3) 0.20605(13) 0.67959(14)
H24 H 0.2844 0.1946 0.6303
Zn2 Zn 0.27804(4) 0.518313(15) 0.296119(14)
N11_2 N 0.3620(3) 0.51188(11) 0.18944(11)
N13 N 0.5255(3) 0.51320(11) 0.37879(11)
N15_2 N 0.0995(3) 0.42917(11) 0.30878(11)
N20_2 N 0.1415(3) 0.62003(11) 0.30587(11)
C19_2 C 0.5458(3) 0.53264(14) 0.17615(14)
H13_2 H 0.6407 0.5504 0.2188
C20_2 C 0.6033(3) 0.52945(14) 0.10358(14)
H14_2 H 0.7348 0.5458 0.0970
C21_2 C 0.4712(3) 0.50252(13) 0.03962(13)
C22_2 C 0.2803(3) 0.48010(14) 0.05408(14)
H15_2 H 0.1838 0.4611 0.0126
C23_2 C 0.2313(3) 0.48541(14) 0.12784(14)
H16_2 H 0.1003 0.4699 0.1360
C24_2 C 0.5866(3) 0.44615(14) 0.41528(14)
H17_2 H 0.5006 0.4018 0.4077
C25_2 C 0.7695(3) 0.43908(14) 0.46336(14)
H18_2 H 0.8072 0.3904 0.4878
C26_2 C 0.8988(3) 0.50311(13) 0.47605(13)
C27_2 C 0.8298(3) 0.57347(14) 0.44067(14)
H19_2 H 0.9094 0.6195 0.4494
C28_2 C 0.6457(3) 0.57610(14) 0.39294(14)
H20_2 H 0.6020 0.6244 0.3691
N4 N 0.1445(3) 0.37608(12) 0.36381(12)
N21 N 0.1963(3) 0.67532(12) 0.35811(12)
N22 N 0.0501(3) 0.72891(12) 0.35149(12)
Zn1 Zn 0.72196(4) 0.481687(15) 0.703881(14)
N1_2 N 0.6380(3) 0.48812(11) 0.81056(11)
N2_2 N 0.4745(3) 0.48680(11) 0.62121(11)
N3 N 0.9005(3) 0.57083(11) 0.69122(11)
N4_2 N 0.8555(3) 0.62392(12) 0.63619(12)
C1_2 C 0.4542(3) 0.46736(14) 0.82385(14)
H1_2 H 0.3593 0.4496 0.7812
C2_2 C 0.3967(3) 0.47055(14) 0.89642(14)
H2_2 H 0.2652 0.4542 0.9030
C3_2 C 0.5288(3) 0.49748(13) 0.96038(13)
C4_2 C 0.7197(3) 0.51990(14) 0.94592(14)
H3_2 H 0.8162 0.5389 0.9874
C5_2 C 0.7687(3) 0.51459(14) 0.87216(14)
H4_2 H 0.8997 0.5301 0.8640
C6_2 C 0.4134(3) 0.55385(14) 0.58472(14)
H5_2 H 0.4994 0.5982 0.5923
C7_2 C 0.2305(3) 0.56092(14) 0.53664(14)
H6_2 H 0.1928 0.6096 0.5122
C8_2 C 0.1012(3) 0.49689(13) 0.52395(13)
C9_2 C 0.1702(3) 0.42653(14) 0.55933(14)
H7_2 H 0.0906 0.3805 0.5506
C10_2 C 0.3543(3) 0.42390(14) 0.60706(14)
H8_2 H 0.3980 0.3756 0.6309
N19 N 0.8585(3) 0.37997(11) 0.69413(11)
N21_2 N 0.8037(3) 0.32468(12) 0.64189(12)
N22_2 N 0.9499(3) 0.27109(12) 0.64851(12)
N5_2 N 0.9940(3) 0.32474(12) 0.35766(12)
N6_2 N 0.9205(3) 0.41476(12) 0.26520(12)
N10_2 N 0.0392(3) 0.13557(12) 0.23589(12)
C11_2 C 0.8587(3) 0.35007(13) 0.29717(13)
C12_2 C 0.6631(3) 0.31187(13) 0.27274(13)
C13_2 C 0.5479(3) 0.32879(13) 0.20065(14)
H9_2 H 0.5977 0.3643 0.1660
C14_2 C 0.5887(3) 0.25989(14) 0.32301(14)
H10_2 H 0.6669 0.2478 0.3719
C15_2 C 0.0915(3) 0.20307(13) 0.20639(14)
C16_2 C 0.2865(3) 0.24244(13) 0.22985(14)
C17_2 C 0.4008(3) 0.22555(14) 0.30219(14)
H11_2 H 0.3500 0.1906 0.3371
C18_2 C 0.3615(3) 0.29395(13) 0.17959(14)
H12_2 H 0.2844 0.3054 0.1303
N17_2 N 0.0060(3) 0.82474(12) 0.14234(12)
N18_2 N 0.0795(3) 0.91476(12) 0.23480(12)
N23_2 N 0.9608(3) 0.63557(12) 0.26411(12)
C29_2 C 0.1413(3) 0.85007(13) 0.20283(13)
C30_2 C 0.3369(3) 0.81187(13) 0.22726(13)
C31_2 C 0.4521(3) 0.82879(13) 0.29935(14)
H21_2 H 0.4023 0.8643 0.3340
C32_2 C 0.4113(3) 0.75989(14) 0.17699(14)
H22_2 H 0.3331 0.7478 0.1281
C33_2 C 0.9085(3) 0.70307(13) 0.29361(14)
C34_2 C 0.7135(3) 0.74244(13) 0.27015(14)
C35_2 C 0.5992(3) 0.72555(14) 0.19781(14)
H23_2 H 0.6500 0.6906 0.1629
C36_2 C 0.6385(3) 0.79395(13) 0.32041(14)
H24_2 H 0.7156 0.8054 0.3697
loop_
_geom_bond_atom_site_label_1
_geom_bond_atom_site_label_2
_geom_bond_site_symmetry_1
_geom_bond_site_symmetry_2
N7 N8 1_555 1_555
N8 N9 1_555 1_555
Zn3 N7 1_555 1_555
N14 N16 1_555 1_555
Zn4 N12 1_555 1_555
C27 C26 1_555 1_555
H19 C27 1_555 1_555
C28 N12 1_555 1_555
H20 C28 1_555 1_555
C27 C28 1_555 1_555
C24 H17 1_555 1_555
C25 C24 1_555 1_555
H18 C25 1_555 1_555
H3 C4 1_555 1_555
H4 C5 1_555 1_555
H5 C6 1_555 1_555
C7 C6 1_555 1_555
H6 C7 1_555 1_555
Zn4 N11 1_555 1_555
N11 C19 1_555 1_555
N20 Zn4 1_555 1_555
C19 H13 1_555 1_555
C20 C19 1_555 1_555
H14 C20 1_555 1_555
C4 C5 1_555 1_555
C20 C21 1_555 1_555
Zn3 N1 1_555 1_555
N1 C1 1_555 1_555
N2 Zn3 1_555 1_555
C1 H1 1_555 1_555
C2 C1 1_555 1_555
H2 C2 1_555 1_555
C3 C2 1_555 1_555
C9 C8 1_555 1_555
H7 C9 1_555 1_555
C10 N2 1_555 1_555
H8 C10 1_555 1_555
H15 C22 1_555 1_555
H16 C23 1_555 1_555
C9 C10 1_555 1_555
C22 C23 1_555 1_555
N20 N8_2 1_555 1_555
N8_2 N9_2 1_555 1_555
N15 N16_2 1_555 1_555
C11 N5 1_555 1_555
C12 C11 1_555 1_555
C13 C12 1_555 1_555
H9 C13 1_555 1_555
C14 C12 1_555 1_555
H10 C14 1_555 1_555
C15 N10 1_555 1_555
C16 C15 1_555 1_555
C17 C14 1_555 1_555
H11 C17 1_555 1_555
C18 C13 1_555 1_555
H12 C18 1_555 1_555
N17 C29 1_555 1_555
C29 N18 1_555 1_555
C30 C29 1_555 1_555
C31 C30 1_555 1_555
H21 C31 1_555 1_555
C32 C30 1_555 1_555
H22 C32 1_555 1_555
C34 C33 1_555 1_555
C35 C32 1_555 1_555
H23 C35 1_555 1_555
C36 C31 1_555 1_555
H24 C36 1_555 1_555
N6 C11 1_555 1_555
C16 C17 1_555 1_555
C16 C18 1_555 1_555
N23 C33 1_555 1_555
C34 C35 1_555 1_555
C34 C36 1_555 1_555
Zn2 N11_2 1_555 1_555
N11_2 C19_2 1_555 1_555
N13 Zn2 1_555 1_555
N15_2 Zn2 1_555 1_555
N20_2 Zn2 1_555 1_555
C19_2 H13_2 1_555 1_555
C20_2 C19_2 1_555 1_555
H14_2 C20_2 1_555 1_555
C22_2 C21_2 1_555 1_555
H15_2 C22_2 1_555 1_555
C23_2 N11_2 1_555 1_555
H16_2 C23_2 1_555 1_555
C20_2 C21_2 1_555 1_555
C22_2 C23_2 1_555 1_555
N13 C24_2 1_555 1_555
C24_2 H17_2 1_555 1_555
C25_2 C24_2 1_555 1_555
H18_2 C25_2 1_555 1_555
C27_2 C26_2 1_555 1_555
H19_2 C27_2 1_555 1_555
C28_2 N13 1_555 1_555
H20_2 C28_2 1_555 1_555
C25_2 C26_2 1_555 1_555
C27_2 C28_2 1_555 1_555
N4 N15_2 1_555 1_555
N21 N20_2 1_555 1_555
N22 N21 1_555 1_555
Zn1 N1_2 1_555 1_555
N1_2 C1_2 1_555 1_555
N2_2 Zn1 1_555 1_555
N3 Zn1 1_555 1_555
N4_2 N3 1_555 1_555
C1_2 H1_2 1_555 1_555
C2_2 C1_2 1_555 1_555
H2_2 C2_2 1_555 1_555
C3_2 C2_2 1_555 1_555
C4_2 C3_2 1_555 1_555
H3_2 C4_2 1_555 1_555
C5_2 N1_2 1_555 1_555
H4_2 C5_2 1_555 1_555
C6_2 N2_2 1_555 1_555
H5_2 C6_2 1_555 1_555
C7_2 C6_2 1_555 1_555
H6_2 C7_2 1_555 1_555
C8_2 C7_2 1_555 1_555
C9_2 C8_2 1_555 1_555
H7_2 C9_2 1_555 1_555
C10_2 N2_2 1_555 1_555
H8_2 C10_2 1_555 1_555
N19 Zn1 1_555 1_555
N21_2 N19 1_555 1_555
N22_2 N21_2 1_555 1_555
C4_2 C5_2 1_555 1_555
C9_2 C10_2 1_555 1_555
C11_2 N5_2 1_555 1_555
C12_2 C11_2 1_555 1_555
C13_2 C12_2 1_555 1_555
H9_2 C13_2 1_555 1_555
C14_2 C12_2 1_555 1_555
H10_2 C14_2 1_555 1_555
C15_2 N10_2 1_555 1_555
C16_2 C15_2 1_555 1_555
C17_2 C14_2 1_555 1_555
H11_2 C17_2 1_555 1_555
C18_2 C13_2 1_555 1_555
H12_2 C18_2 1_555 1_555
N17_2 C29_2 1_555 1_555
C29_2 N18_2 1_555 1_555
C30_2 C29_2 1_555 1_555
C31_2 C30_2 1_555 1_555
H21_2 C31_2 1_555 1_555
C32_2 C30_2 1_555 1_555
H22_2 C32_2 1_555 1_555
C34_2 C33_2 1_555 1_555
C35_2 C32_2 1_555 1_555
H23_2 C35_2 1_555 1_555
C36_2 C31_2 1_555 1_555
H24_2 C36_2 1_555 1_555
N6_2 C11_2 1_555 1_555
C16_2 C17_2 1_555 1_555
C16_2 C18_2 1_555 1_555
N23_2 C33_2 1_555 1_555
C34_2 C35_2 1_555 1_555
C34_2 C36_2 1_555 1_555

#END
