
###############################################################################
#
# This file contains modified crystal structure data generated from the
# MOF subset of the Cambridge Structural Database (CSD) v543 
# hosted by the Cambridge Crystallographic Data Centre (CCDC).
#
# This work is licensed under the Creative Commons
# Attribution-NonCommercial-ShareAlike 4.0 International License.
# To view a copy of this license, visit
# http://creativecommons.org/licenses/by-nc-sa/4.0/
# or send a letter to
# Creative Commons, PO Box 1866, Mountain View, CA 94042, USA.
#
# CIF created using the CSD Python API on 29 September 2022
# The structure has been converted into the P1 space group
# The structure has a 3D framework
# The original CSD entry BOWSIQ is in the orthorhombic crystal system
# The framework has been calculated to contain at least 10.0% void space
# The void calculation uses a probe of radius 1.32A, grid spacing 0.4
#
###############################################################################

data_BOWSIQ
_chemical_formula_moiety         '(C416 H288 Cu16 N64 O96)n'
_symmetry_cell_setting           triclinic
_symmetry_space_group_name_H-M   'P 1'
_symmetry_Int_Tables_number      1
_space_group_name_Hall           'P 1'
loop_
_symmetry_equiv_pos_site_id
_symmetry_equiv_pos_as_xyz
1 x,y,z
_cell_length_a                   15.378(3)
_cell_length_b                   19.560(4)
_cell_length_c                   39.822(8)
_cell_angle_alpha                90
_cell_angle_beta                 90
_cell_angle_gamma                90
_cell_volume                     11978.2
loop_
_atom_site_label
_atom_site_type_symbol
_atom_site_fract_x
_atom_site_fract_y
_atom_site_fract_z
C1 C 0.4019(6) 0.1590(7) 0.16602(19)
C2 C 0.3617(4) 0.0907(4) 0.16368(16)
C3 C 0.2727(4) 0.0868(3) 0.16065(17)
H1 H 0.2400 0.1265 0.1582
C4 C 0.2316(5) 0.0234(3) 0.16122(18)
H2 H 0.1714 0.0204 0.1593
C7 C 0.4102(6) 0.0290(7) 0.16561(19)
H4 H 0.4706 0.0308 0.1666
C9 C 0.4419(5) 0.3585(3) 0.23785(17)
H5 H 0.4667 0.3933 0.2251
C10 C 0.4485(4) 0.3631(3) 0.27231(16)
H6 H 0.4780 0.3994 0.2822
C11 C 0.4108(4) 0.3130(3) 0.29182(15)
C12 C 0.3677(5) 0.2602(3) 0.27540(17)
H7 H 0.3411 0.2254 0.2875
C13 C 0.3655(4) 0.2606(4) 0.24129(17)
H8 H 0.3357 0.2253 0.2307
C14 C 0.4202(4) 0.3221(4) 0.32956(18)
C15 C 0.3823(5) 0.2671(4) 0.38323(17)
C16 C 0.3932(6) 0.3215(4) 0.40437(18)
H9 H 0.4025 0.3648 0.3954
C17 C 0.3908(6) 0.3134(4) 0.4379(2)
H10 H 0.3980 0.3512 0.4518
C18 C 0.3776(5) 0.2492(4) 0.45212(18)
C19 C 0.3638(7) 0.1949(4) 0.4309(2)
H11 H 0.3518 0.1520 0.4398
C20 C 0.3673(6) 0.2029(4) 0.39748(19)
H12 H 0.3596 0.1651 0.3836
C21 C 0.3807(7) 0.1856(5) 0.5066(2)
C22 C 0.3826(6) 0.1949(5) 0.5435(2)
C23 C 0.4128(11) 0.1429(6) 0.5617(3)
H13 H 0.4338 0.1045 0.5506
C24 C 0.4142(9) 0.1440(6) 0.5966(2)
H14 H 0.4328 0.1054 0.6083
C25 C 0.3583(7) 0.2500(5) 0.5963(2)
H15 H 0.3375 0.2879 0.6078
C26 C 0.3553(8) 0.2494(6) 0.5611(2)
H16 H 0.3341 0.2874 0.5498
Cu1 Cu 0.39512(5) 0.30543(4) 0.16776(2)
H17 H 0.354(4) 0.239(3) 0.3350(15)
H18 H 0.377(4) 0.282(2) 0.5033(12)
N1 N 0.4029(3) 0.3082(3) 0.22171(13)
N2 N 0.3824(4) 0.2712(3) 0.34792(14)
N3 N 0.3761(5) 0.2456(3) 0.48805(15)
N4 N 0.3900(4) 0.1978(3) 0.61342(14)
O1 O 0.3526(5) 0.2104(4) 0.16917(16)
O2 O 0.4832(4) 0.1644(5) 0.16416(16)
O5 O 0.4573(4) 0.3703(3) 0.34147(12)
O6 O 0.3862(7) 0.1290(4) 0.49349(17)
Cu2 Cu 0.39512(5) 0.19457(4) 0.66776(2)
Cu3 Cu 0.60488(5) 0.19457(4) 0.16776(2)
N5 N 0.3900(4) 0.3022(3) 0.11342(14)
O7 O 0.5168(4) 0.3356(5) 0.16416(16)
O8 O 0.3510(7) 0.4012(3) 0.16607(18)
C5 C 0.2809(6) 0.9654(3) 0.16464(17)
C6 C 0.3696(7) 0.9680(5) 0.16600(19)
H3 H 0.4017 0.9278 0.1672
C8 C 0.2304(11) 0.8972(4) 0.1682(2)
O3 O 0.1490(7) 0.9012(3) 0.16607(18)
O4 O 0.2712(7) 0.8440(3) 0.17212(15)
Cu4 Cu 0.10488(5) 0.80543(4) 0.16776(2)
C5_2 C 0.2191(6) 0.0346(3) 0.66464(17)
C6_2 C 0.1304(7) 0.0320(5) 0.66600(19)
H3_2 H 0.0983 0.0722 0.6672
C8_2 C 0.2696(11) 0.1028(4) 0.6682(2)
O3_2 O 0.3510(7) 0.0988(3) 0.66607(18)
O4_2 O 0.2288(7) 0.1560(3) 0.67212(15)
C21_2 C 0.1193(7) 0.8144(5) 0.0066(2)
C22_2 C 0.1174(6) 0.8051(5) 0.0435(2)
C23_2 C 0.0872(11) 0.8571(6) 0.0617(3)
H13_2 H 0.0662 0.8955 0.0506
C24_2 C 0.0858(9) 0.8560(6) 0.0966(2)
H14_2 H 0.0672 0.8946 0.1083
C25_2 C 0.1417(7) 0.7500(5) 0.0963(2)
H15_2 H 0.1625 0.7121 0.1078
C26_2 C 0.1447(8) 0.7506(6) 0.0611(2)
H16_2 H 0.1659 0.7126 0.0498
H18_2 H 0.123(4) 0.718(2) 0.0033(12)
N4_2 N 0.1100(4) 0.8022(3) 0.11342(14)
C1_2 C 0.0981(6) 0.8410(7) 0.66602(19)
C2_2 C 0.1383(4) 0.9093(4) 0.66368(16)
C3_2 C 0.2273(4) 0.9132(3) 0.66065(17)
H1_2 H 0.2600 0.8735 0.6582
C4_2 C 0.2684(5) 0.9766(3) 0.66122(18)
H2_2 H 0.3286 0.9796 0.6593
C7_2 C 0.0898(6) 0.9710(7) 0.66561(19)
H4_2 H 0.0294 0.9692 0.6666
C9_2 C 0.0581(5) 0.6415(3) 0.73785(17)
H5_2 H 0.0333 0.6067 0.7251
C10_2 C 0.0515(4) 0.6369(3) 0.77231(16)
H6_2 H 0.0220 0.6006 0.7822
C11_2 C 0.0892(4) 0.6870(3) 0.79182(15)
C12_2 C 0.1323(5) 0.7398(3) 0.77540(17)
H7_2 H 0.1589 0.7746 0.7875
C13_2 C 0.1345(4) 0.7394(4) 0.74129(17)
H8_2 H 0.1643 0.7747 0.7307
C14_2 C 0.0798(4) 0.6779(4) 0.82956(18)
C15_2 C 0.1177(5) 0.7329(4) 0.88323(17)
C16_2 C 0.1068(6) 0.6785(4) 0.90437(18)
H9_2 H 0.0975 0.6352 0.8954
C17_2 C 0.1092(6) 0.6866(4) 0.9379(2)
H10_2 H 0.1020 0.6488 0.9518
C18_2 C 0.1224(5) 0.7508(4) 0.95212(18)
C19_2 C 0.1362(7) 0.8051(4) 0.9309(2)
H11_2 H 0.1482 0.8480 0.9398
C20_2 C 0.1327(6) 0.7971(4) 0.89748(19)
H12_2 H 0.1404 0.8349 0.8836
Cu1_2 Cu 0.10488(5) 0.69457(4) 0.66776(2)
H17_2 H 0.146(4) 0.761(3) 0.8350(15)
N1_2 N 0.0971(3) 0.6918(3) 0.72171(13)
N2_2 N 0.1176(4) 0.7288(3) 0.84792(14)
N3_2 N 0.1239(5) 0.7544(3) 0.98805(15)
O1_2 O 0.1474(5) 0.7896(4) 0.66917(16)
O2_2 O 0.0168(4) 0.8356(5) 0.66416(16)
O5_2 O 0.0427(4) 0.6297(3) 0.84147(12)
O6_2 O 0.1138(7) 0.8710(4) 0.99349(17)
N5_2 N 0.1100(4) 0.6978(3) 0.61342(14)
O8_2 O 0.1490(7) 0.5988(3) 0.66607(18)
Cu3_2 Cu 0.89512(5) 0.80543(4) 0.66776(2)
O7_2 O 0.9832(4) 0.6644(5) 0.66416(16)
C21_3 C 0.8807(7) 0.6856(5) 0.0066(2)
C22_3 C 0.8826(6) 0.6949(5) 0.0435(2)
C23_3 C 0.9128(11) 0.6429(6) 0.0617(3)
H13_3 H 0.9338 0.6045 0.0506
C24_3 C 0.9142(9) 0.6440(6) 0.0966(2)
H14_3 H 0.9328 0.6054 0.1083
C25_3 C 0.8583(7) 0.7500(5) 0.0963(2)
H15_3 H 0.8375 0.7879 0.1078
C26_3 C 0.8553(8) 0.7494(6) 0.0611(2)
H16_3 H 0.8341 0.7874 0.0498
H18_3 H 0.877(4) 0.782(2) 0.0033(12)
N4_3 N 0.8900(4) 0.6978(3) 0.11342(14)
Cu2_2 Cu 0.89512(5) 0.69457(4) 0.16776(2)
C1_3 C 0.9019(6) 0.6590(7) 0.66602(19)
C2_3 C 0.8617(4) 0.5907(4) 0.66368(16)
C3_3 C 0.7727(4) 0.5868(3) 0.66065(17)
H1_3 H 0.7400 0.6265 0.6582
C4_3 C 0.7316(5) 0.5234(3) 0.66122(18)
H2_3 H 0.6714 0.5204 0.6593
C5_3 C 0.7809(6) 0.4654(3) 0.66464(17)
C6_3 C 0.8696(7) 0.4680(5) 0.66600(19)
H3_3 H 0.9017 0.4278 0.6672
C7_3 C 0.9102(6) 0.5290(7) 0.66561(19)
H4_3 H 0.9706 0.5308 0.6666
C8_3 C 0.7304(11) 0.3972(4) 0.6682(2)
C9_3 C 0.9419(5) 0.8585(3) 0.73785(17)
H5_3 H 0.9667 0.8933 0.7251
C10_3 C 0.9485(4) 0.8631(3) 0.77231(16)
H6_3 H 0.9780 0.8994 0.7822
C11_3 C 0.9108(4) 0.8130(3) 0.79182(15)
C12_3 C 0.8677(5) 0.7602(3) 0.77540(17)
H7_3 H 0.8411 0.7254 0.7875
C13_3 C 0.8655(4) 0.7606(4) 0.74129(17)
H8_3 H 0.8357 0.7253 0.7307
C14_3 C 0.9202(4) 0.8221(4) 0.82956(18)
C15_3 C 0.8823(5) 0.7671(4) 0.88323(17)
C16_3 C 0.8932(6) 0.8215(4) 0.90437(18)
H9_3 H 0.9025 0.8648 0.8954
C17_3 C 0.8908(6) 0.8134(4) 0.9379(2)
H10_3 H 0.8980 0.8512 0.9518
C18_3 C 0.8776(5) 0.7492(4) 0.95212(18)
C19_3 C 0.8638(7) 0.6949(4) 0.9309(2)
H11_3 H 0.8518 0.6520 0.9398
C20_3 C 0.8673(6) 0.7029(4) 0.89748(19)
H12_3 H 0.8596 0.6651 0.8836
H17_3 H 0.854(4) 0.739(3) 0.8350(15)
N1_3 N 0.9029(3) 0.8082(3) 0.72171(13)
N2_3 N 0.8824(4) 0.7712(3) 0.84792(14)
N3_3 N 0.8761(5) 0.7456(3) 0.98805(15)
O1_3 O 0.8526(5) 0.7104(4) 0.66917(16)
O3_3 O 0.6490(7) 0.4012(3) 0.66607(18)
O4_3 O 0.7712(7) 0.3440(3) 0.67212(15)
O5_3 O 0.9573(4) 0.8703(3) 0.84147(12)
O6_3 O 0.8862(7) 0.6290(4) 0.99349(17)
Cu4_2 Cu 0.60488(5) 0.30543(4) 0.66776(2)
N5_3 N 0.8900(4) 0.8022(3) 0.61342(14)
O8_3 O 0.8510(7) 0.9012(3) 0.66607(18)
C1_4 C 0.5981(6) 0.3410(7) 0.16602(19)
C2_4 C 0.6383(4) 0.4093(4) 0.16368(16)
C3_4 C 0.7273(4) 0.4132(3) 0.16065(17)
H1_4 H 0.7600 0.3735 0.1582
C4_4 C 0.7684(5) 0.4766(3) 0.16122(18)
H2_4 H 0.8286 0.4796 0.1593
C5_4 C 0.7191(6) 0.5346(3) 0.16464(17)
C6_4 C 0.6304(7) 0.5320(5) 0.16600(19)
H3_4 H 0.5983 0.5722 0.1672
C7_4 C 0.5898(6) 0.4710(7) 0.16561(19)
H4_4 H 0.5294 0.4692 0.1666
C8_4 C 0.7696(11) 0.6028(4) 0.1682(2)
C9_4 C 0.5581(5) 0.1415(3) 0.23785(17)
H5_4 H 0.5333 0.1067 0.2251
C10_4 C 0.5515(4) 0.1369(3) 0.27231(16)
H6_4 H 0.5220 0.1006 0.2822
C11_4 C 0.5892(4) 0.1870(3) 0.29182(15)
C12_4 C 0.6323(5) 0.2398(3) 0.27540(17)
H7_4 H 0.6589 0.2746 0.2875
C13_4 C 0.6345(4) 0.2394(4) 0.24129(17)
H8_4 H 0.6643 0.2747 0.2307
C14_4 C 0.5798(4) 0.1779(4) 0.32956(18)
C15_4 C 0.6177(5) 0.2329(4) 0.38323(17)
C16_4 C 0.6068(6) 0.1785(4) 0.40437(18)
H9_4 H 0.5975 0.1352 0.3954
C17_4 C 0.6092(6) 0.1866(4) 0.4379(2)
H10_4 H 0.6020 0.1488 0.4518
C18_4 C 0.6224(5) 0.2508(4) 0.45212(18)
C19_4 C 0.6362(7) 0.3051(4) 0.4309(2)
H11_4 H 0.6482 0.3480 0.4398
C20_4 C 0.6327(6) 0.2971(4) 0.39748(19)
H12_4 H 0.6404 0.3349 0.3836
C21_4 C 0.6193(7) 0.3144(5) 0.5066(2)
C22_4 C 0.6174(6) 0.3051(5) 0.5435(2)
C23_4 C 0.5872(11) 0.3571(6) 0.5617(3)
H13_4 H 0.5662 0.3955 0.5506
C24_4 C 0.5858(9) 0.3560(6) 0.5966(2)
H14_4 H 0.5672 0.3946 0.6083
C25_4 C 0.6417(7) 0.2500(5) 0.5963(2)
H15_4 H 0.6625 0.2121 0.6078
C26_4 C 0.6447(8) 0.2506(6) 0.5611(2)
H16_4 H 0.6659 0.2126 0.5498
H17_4 H 0.646(4) 0.261(3) 0.3350(15)
H18_4 H 0.623(4) 0.218(2) 0.5033(12)
N1_4 N 0.5971(3) 0.1918(3) 0.22171(13)
N2_4 N 0.6176(4) 0.2288(3) 0.34792(14)
N3_4 N 0.6239(5) 0.2544(3) 0.48805(15)
N4_4 N 0.6100(4) 0.3022(3) 0.61342(14)
O1_4 O 0.6474(5) 0.2896(4) 0.16917(16)
O3_4 O 0.8510(7) 0.5988(3) 0.16607(18)
O4_4 O 0.7288(7) 0.6560(3) 0.17212(15)
O5_4 O 0.5427(4) 0.1297(3) 0.34147(12)
O6_4 O 0.6138(7) 0.3710(4) 0.49349(17)
N5_4 N 0.6100(4) 0.1978(3) 0.11342(14)
O8_4 O 0.6490(7) 0.0988(3) 0.16607(18)
C21_5 C 0.3807(7) 0.3144(5) 0.0066(2)
C22_5 C 0.3826(6) 0.3051(5) 0.0435(2)
C23_5 C 0.4128(11) 0.3571(6) 0.0617(3)
H13_5 H 0.4338 0.3955 0.0506
C24_5 C 0.4142(9) 0.3560(6) 0.0966(2)
H14_5 H 0.4328 0.3946 0.1083
C25_5 C 0.3583(7) 0.2500(5) 0.0963(2)
H15_5 H 0.3375 0.2121 0.1078
C26_5 C 0.3553(8) 0.2506(6) 0.0611(2)
H16_5 H 0.3341 0.2126 0.0498
H18_5 H 0.377(4) 0.218(2) 0.0033(12)
C1_5 C 0.4019(6) 0.3410(7) 0.66602(19)
C2_5 C 0.3617(4) 0.4093(4) 0.66368(16)
C3_5 C 0.2727(4) 0.4132(3) 0.66065(17)
H1_5 H 0.2400 0.3735 0.6582
C4_5 C 0.2316(5) 0.4766(3) 0.66122(18)
H2_5 H 0.1714 0.4796 0.6593
C5_5 C 0.2809(6) 0.5346(3) 0.66464(17)
C6_5 C 0.3696(7) 0.5320(5) 0.66600(19)
H3_5 H 0.4017 0.5722 0.6672
C7_5 C 0.4102(6) 0.4710(7) 0.66561(19)
H4_5 H 0.4706 0.4692 0.6666
C8_5 C 0.2304(11) 0.6028(4) 0.6682(2)
C9_5 C 0.4419(5) 0.1415(3) 0.73785(17)
H5_5 H 0.4667 0.1067 0.7251
C10_5 C 0.4485(4) 0.1369(3) 0.77231(16)
H6_5 H 0.4780 0.1006 0.7822
C11_5 C 0.4108(4) 0.1870(3) 0.79182(15)
C12_5 C 0.3677(5) 0.2398(3) 0.77540(17)
H7_5 H 0.3411 0.2746 0.7875
C13_5 C 0.3655(4) 0.2394(4) 0.74129(17)
H8_5 H 0.3357 0.2747 0.7307
C14_5 C 0.4202(4) 0.1779(4) 0.82956(18)
C15_5 C 0.3823(5) 0.2329(4) 0.88323(17)
C16_5 C 0.3932(6) 0.1785(4) 0.90437(18)
H9_5 H 0.4025 0.1352 0.8954
C17_5 C 0.3908(6) 0.1866(4) 0.9379(2)
H10_5 H 0.3980 0.1488 0.9518
C18_5 C 0.3776(5) 0.2508(4) 0.95212(18)
C19_5 C 0.3638(7) 0.3051(4) 0.9309(2)
H11_5 H 0.3518 0.3480 0.9398
C20_5 C 0.3673(6) 0.2971(4) 0.89748(19)
H12_5 H 0.3596 0.3349 0.8836
H17_5 H 0.354(4) 0.261(3) 0.8350(15)
N1_5 N 0.4029(3) 0.1918(3) 0.72171(13)
N2_5 N 0.3824(4) 0.2288(3) 0.84792(14)
N3_5 N 0.3761(5) 0.2544(3) 0.98805(15)
O1_5 O 0.3526(5) 0.2896(4) 0.66917(16)
O2_3 O 0.4832(4) 0.3356(5) 0.66416(16)
O4_5 O 0.2712(7) 0.6560(3) 0.67212(15)
O5_5 O 0.4573(4) 0.1297(3) 0.84147(12)
O6_5 O 0.3862(7) 0.3710(4) 0.99349(17)
O7_3 O 0.5168(4) 0.1644(5) 0.66416(16)
C1_6 C 0.0981(6) 0.6590(7) 0.16602(19)
C2_6 C 0.1383(4) 0.5907(4) 0.16368(16)
C3_6 C 0.2273(4) 0.5868(3) 0.16065(17)
H1_6 H 0.2600 0.6265 0.1582
C4_6 C 0.2684(5) 0.5234(3) 0.16122(18)
H2_6 H 0.3286 0.5204 0.1593
C5_6 C 0.2191(6) 0.4654(3) 0.16464(17)
C6_6 C 0.1304(7) 0.4680(5) 0.16600(19)
H3_6 H 0.0983 0.4278 0.1672
C7_6 C 0.0898(6) 0.5290(7) 0.16561(19)
H4_6 H 0.0294 0.5308 0.1666
C8_6 C 0.2696(11) 0.3972(4) 0.1682(2)
C9_6 C 0.0581(5) 0.8585(3) 0.23785(17)
H5_6 H 0.0333 0.8933 0.2251
C10_6 C 0.0515(4) 0.8631(3) 0.27231(16)
H6_6 H 0.0220 0.8994 0.2822
C11_6 C 0.0892(4) 0.8130(3) 0.29182(15)
C12_6 C 0.1323(5) 0.7602(3) 0.27540(17)
H7_6 H 0.1589 0.7254 0.2875
C13_6 C 0.1345(4) 0.7606(4) 0.24129(17)
H8_6 H 0.1643 0.7253 0.2307
C14_6 C 0.0798(4) 0.8221(4) 0.32956(18)
C15_6 C 0.1177(5) 0.7671(4) 0.38323(17)
C16_6 C 0.1068(6) 0.8215(4) 0.40437(18)
H9_6 H 0.0975 0.8648 0.3954
C17_6 C 0.1092(6) 0.8134(4) 0.4379(2)
H10_6 H 0.1020 0.8512 0.4518
C18_6 C 0.1224(5) 0.7492(4) 0.45212(18)
C19_6 C 0.1362(7) 0.6949(4) 0.4309(2)
H11_6 H 0.1482 0.6520 0.4398
C20_6 C 0.1327(6) 0.7029(4) 0.39748(19)
H12_6 H 0.1404 0.6651 0.3836
C21_6 C 0.1193(7) 0.6856(5) 0.5066(2)
C22_6 C 0.1174(6) 0.6949(5) 0.5435(2)
C23_6 C 0.0872(11) 0.6429(6) 0.5617(3)
H13_6 H 0.0662 0.6045 0.5506
C24_6 C 0.0858(9) 0.6440(6) 0.5966(2)
H14_6 H 0.0672 0.6054 0.6083
C25_6 C 0.1417(7) 0.7500(5) 0.5963(2)
H15_6 H 0.1625 0.7879 0.6078
C26_6 C 0.1447(8) 0.7494(6) 0.5611(2)
H16_6 H 0.1659 0.7874 0.5498
H17_6 H 0.146(4) 0.739(3) 0.3350(15)
H18_6 H 0.123(4) 0.782(2) 0.5033(12)
N1_6 N 0.0971(3) 0.8082(3) 0.22171(13)
N2_6 N 0.1176(4) 0.7712(3) 0.34792(14)
N3_6 N 0.1239(5) 0.7456(3) 0.48805(15)
O1_6 O 0.1474(5) 0.7104(4) 0.16917(16)
O2_4 O 0.0168(4) 0.6644(5) 0.16416(16)
O4_6 O 0.2288(7) 0.3440(3) 0.17212(15)
O5_6 O 0.0427(4) 0.8703(3) 0.34147(12)
O6_6 O 0.1138(7) 0.6290(4) 0.49349(17)
O7_4 O 0.9832(4) 0.8356(5) 0.16416(16)
C5_7 C 0.7809(6) 0.0346(3) 0.16464(17)
C6_7 C 0.8696(7) 0.0320(5) 0.16600(19)
H3_7 H 0.9017 0.0722 0.1672
C8_7 C 0.7304(11) 0.1028(4) 0.1682(2)
O4_7 O 0.7712(7) 0.1560(3) 0.17212(15)
C1_7 C 0.9019(6) 0.8410(7) 0.16602(19)
C2_7 C 0.8617(4) 0.9093(4) 0.16368(16)
C3_7 C 0.7727(4) 0.9132(3) 0.16065(17)
H1_7 H 0.7400 0.8735 0.1582
C4_7 C 0.7316(5) 0.9766(3) 0.16122(18)
H2_7 H 0.6714 0.9796 0.1593
C7_7 C 0.9102(6) 0.9710(7) 0.16561(19)
H4_7 H 0.9706 0.9692 0.1666
C9_7 C 0.9419(5) 0.6415(3) 0.23785(17)
H5_7 H 0.9667 0.6067 0.2251
C10_7 C 0.9485(4) 0.6369(3) 0.27231(16)
H6_7 H 0.9780 0.6006 0.2822
C11_7 C 0.9108(4) 0.6870(3) 0.29182(15)
C12_7 C 0.8677(5) 0.7398(3) 0.27540(17)
H7_7 H 0.8411 0.7746 0.2875
C13_7 C 0.8655(4) 0.7394(4) 0.24129(17)
H8_7 H 0.8357 0.7747 0.2307
C14_7 C 0.9202(4) 0.6779(4) 0.32956(18)
C15_7 C 0.8823(5) 0.7329(4) 0.38323(17)
C16_7 C 0.8932(6) 0.6785(4) 0.40437(18)
H9_7 H 0.9025 0.6352 0.3954
C17_7 C 0.8908(6) 0.6866(4) 0.4379(2)
H10_7 H 0.8980 0.6488 0.4518
C18_7 C 0.8776(5) 0.7508(4) 0.45212(18)
C19_7 C 0.8638(7) 0.8051(4) 0.4309(2)
H11_7 H 0.8518 0.8480 0.4398
C20_7 C 0.8673(6) 0.7971(4) 0.39748(19)
H12_7 H 0.8596 0.8349 0.3836
C21_7 C 0.8807(7) 0.8144(5) 0.5066(2)
C22_7 C 0.8826(6) 0.8051(5) 0.5435(2)
C23_7 C 0.9128(11) 0.8571(6) 0.5617(3)
H13_7 H 0.9338 0.8955 0.5506
C24_7 C 0.9142(9) 0.8560(6) 0.5966(2)
H14_7 H 0.9328 0.8946 0.6083
C25_7 C 0.8583(7) 0.7500(5) 0.5963(2)
H15_7 H 0.8375 0.7121 0.6078
C26_7 C 0.8553(8) 0.7506(6) 0.5611(2)
H16_7 H 0.8341 0.7126 0.5498
H17_7 H 0.854(4) 0.761(3) 0.3350(15)
H18_7 H 0.877(4) 0.718(2) 0.5033(12)
N1_7 N 0.9029(3) 0.6918(3) 0.22171(13)
N2_7 N 0.8824(4) 0.7288(3) 0.34792(14)
N3_7 N 0.8761(5) 0.7544(3) 0.48805(15)
O1_7 O 0.8526(5) 0.7896(4) 0.16917(16)
O5_7 O 0.9573(4) 0.6297(3) 0.34147(12)
O6_7 O 0.8862(7) 0.8710(4) 0.49349(17)
C21_8 C 0.6193(7) 0.1856(5) 0.0066(2)
C22_8 C 0.6174(6) 0.1949(5) 0.0435(2)
C23_8 C 0.5872(11) 0.1429(6) 0.0617(3)
H13_8 H 0.5662 0.1045 0.0506
C24_8 C 0.5858(9) 0.1440(6) 0.0966(2)
H14_8 H 0.5672 0.1054 0.1083
C25_8 C 0.6417(7) 0.2500(5) 0.0963(2)
H15_8 H 0.6625 0.2879 0.1078
C26_8 C 0.6447(8) 0.2494(6) 0.0611(2)
H16_8 H 0.6659 0.2874 0.0498
H18_8 H 0.623(4) 0.282(2) 0.0033(12)
C1_8 C 0.5981(6) 0.1590(7) 0.66602(19)
C2_8 C 0.6383(4) 0.0907(4) 0.66368(16)
C3_8 C 0.7273(4) 0.0868(3) 0.66065(17)
H1_8 H 0.7600 0.1265 0.6582
C4_8 C 0.7684(5) 0.0234(3) 0.66122(18)
H2_8 H 0.8286 0.0204 0.6593
C7_8 C 0.5898(6) 0.0290(7) 0.66561(19)
H4_8 H 0.5294 0.0308 0.6666
C9_8 C 0.5581(5) 0.3585(3) 0.73785(17)
H5_8 H 0.5333 0.3933 0.7251
C10_8 C 0.5515(4) 0.3631(3) 0.77231(16)
H6_8 H 0.5220 0.3994 0.7822
C11_8 C 0.5892(4) 0.3130(3) 0.79182(15)
C12_8 C 0.6323(5) 0.2602(3) 0.77540(17)
H7_8 H 0.6589 0.2254 0.7875
C13_8 C 0.6345(4) 0.2606(4) 0.74129(17)
H8_8 H 0.6643 0.2253 0.7307
C14_8 C 0.5798(4) 0.3221(4) 0.82956(18)
C15_8 C 0.6177(5) 0.2671(4) 0.88323(17)
C16_8 C 0.6068(6) 0.3215(4) 0.90437(18)
H9_8 H 0.5975 0.3648 0.8954
C17_8 C 0.6092(6) 0.3134(4) 0.9379(2)
H10_8 H 0.6020 0.3512 0.9518
C18_8 C 0.6224(5) 0.2492(4) 0.95212(18)
C19_8 C 0.6362(7) 0.1949(4) 0.9309(2)
H11_8 H 0.6482 0.1520 0.9398
C20_8 C 0.6327(6) 0.2029(4) 0.89748(19)
H12_8 H 0.6404 0.1651 0.8836
H17_8 H 0.646(4) 0.239(3) 0.8350(15)
N1_8 N 0.5971(3) 0.3082(3) 0.72171(13)
N2_8 N 0.6176(4) 0.2712(3) 0.84792(14)
N3_8 N 0.6239(5) 0.2456(3) 0.98805(15)
O1_8 O 0.6474(5) 0.2104(4) 0.66917(16)
O5_8 O 0.5427(4) 0.3703(3) 0.84147(12)
O6_8 O 0.6138(7) 0.1290(4) 0.99349(17)
C5_8 C 0.7191(6) 0.9654(3) 0.66464(17)
C6_8 C 0.6304(7) 0.9680(5) 0.66600(19)
H3_8 H 0.5983 0.9278 0.6672
C8_8 C 0.7696(11) 0.8972(4) 0.6682(2)
O4_8 O 0.7288(7) 0.8440(3) 0.67212(15)
C1_9 C 0.5981(6) 0.6590(7) 0.33398(19)
C2_9 C 0.6383(4) 0.5907(4) 0.33632(16)
C3_9 C 0.7273(4) 0.5868(3) 0.33935(17)
H1_9 H 0.7600 0.6265 0.3418
C4_9 C 0.7684(5) 0.5234(3) 0.33878(18)
H2_9 H 0.8286 0.5204 0.3407
C5_9 C 0.7191(6) 0.4654(3) 0.33536(17)
C6_9 C 0.6304(7) 0.4680(5) 0.33400(19)
H3_9 H 0.5983 0.4278 0.3328
C7_9 C 0.5898(6) 0.5290(7) 0.33439(19)
H4_9 H 0.5294 0.5308 0.3334
C8_9 C 0.7696(11) 0.3972(4) 0.3318(2)
C9_9 C 0.5581(5) 0.8585(3) 0.26215(17)
H5_9 H 0.5333 0.8933 0.2749
C10_9 C 0.5515(4) 0.8631(3) 0.22769(16)
H6_9 H 0.5220 0.8994 0.2178
C11_9 C 0.5892(4) 0.8130(3) 0.20818(15)
C12_9 C 0.6323(5) 0.7602(3) 0.22460(17)
H7_9 H 0.6589 0.7254 0.2125
C13_9 C 0.6345(4) 0.7606(4) 0.25871(17)
H8_9 H 0.6643 0.7253 0.2693
C14_9 C 0.5798(4) 0.8221(4) 0.17044(18)
C15_9 C 0.6177(5) 0.7671(4) 0.11677(17)
C16_9 C 0.6068(6) 0.8215(4) 0.09563(18)
H9_9 H 0.5975 0.8648 0.1046
C17_9 C 0.6092(6) 0.8134(4) 0.0621(2)
H10_9 H 0.6020 0.8512 0.0482
C18_9 C 0.6224(5) 0.7492(4) 0.04788(18)
C19_9 C 0.6362(7) 0.6949(4) 0.0691(2)
H11_9 H 0.6482 0.6520 0.0602
C20_9 C 0.6327(6) 0.7029(4) 0.10252(19)
H12_9 H 0.6404 0.6651 0.1164
Cu1_3 Cu 0.60488(5) 0.80543(4) 0.33224(2)
H17_9 H 0.646(4) 0.739(3) 0.1650(15)
N1_9 N 0.5971(3) 0.8082(3) 0.27829(13)
N2_9 N 0.6176(4) 0.7712(3) 0.15208(14)
N3_9 N 0.6239(5) 0.7456(3) 0.01195(15)
O1_9 O 0.6474(5) 0.7104(4) 0.33083(16)
O2_5 O 0.5168(4) 0.6644(5) 0.33584(16)
O3_5 O 0.8510(7) 0.4012(3) 0.33393(18)
O4_9 O 0.7288(7) 0.3440(3) 0.32788(15)
O5_9 O 0.5427(4) 0.8703(3) 0.15853(12)
O6_9 O 0.6138(7) 0.6290(4) 0.00651(17)
Cu3_3 Cu 0.39512(5) 0.69457(4) 0.33224(2)
Cu4_3 Cu 0.89512(5) 0.30543(4) 0.33224(2)
N5_5 N 0.6100(4) 0.8022(3) 0.38658(14)
O7_5 O 0.4832(4) 0.8356(5) 0.33584(16)
O8_5 O 0.6490(7) 0.9012(3) 0.33393(18)
C21_9 C 0.6193(7) 0.6856(5) 0.9934(2)
C22_9 C 0.6174(6) 0.6949(5) 0.9565(2)
C23_9 C 0.5872(11) 0.6429(6) 0.9383(3)
H13_9 H 0.5662 0.6045 0.9494
C24_9 C 0.5858(9) 0.6440(6) 0.9034(2)
H14_9 H 0.5672 0.6054 0.8917
C25_9 C 0.6417(7) 0.7500(5) 0.9037(2)
H15_9 H 0.6625 0.7879 0.8922
C26_9 C 0.6447(8) 0.7494(6) 0.9389(2)
H16_9 H 0.6659 0.7874 0.9502
H18_9 H 0.623(4) 0.782(2) 0.9967(12)
N4_5 N 0.6100(4) 0.6978(3) 0.88658(14)
Cu2_3 Cu 0.60488(5) 0.69457(4) 0.83224(2)
Cu3_4 Cu 0.10488(5) 0.30543(4) 0.83224(2)
O7_6 O 0.0168(4) 0.1644(5) 0.83584(16)
C1_10 C 0.9019(6) 0.3410(7) 0.83398(19)
C2_10 C 0.8617(4) 0.4093(4) 0.83632(16)
C3_10 C 0.7727(4) 0.4132(3) 0.83935(17)
H1_10 H 0.7400 0.3735 0.8418
C4_10 C 0.7316(5) 0.4766(3) 0.83878(18)
H2_10 H 0.6714 0.4796 0.8407
C5_10 C 0.7809(6) 0.5346(3) 0.83536(17)
C6_10 C 0.8696(7) 0.5320(5) 0.83400(19)
H3_10 H 0.9017 0.5722 0.8328
C7_10 C 0.9102(6) 0.4710(7) 0.83439(19)
H4_10 H 0.9706 0.4692 0.8334
C8_10 C 0.7304(11) 0.6028(4) 0.8318(2)
C9_10 C 0.9419(5) 0.1415(3) 0.76215(17)
H5_10 H 0.9667 0.1067 0.7749
C10_10 C 0.9485(4) 0.1369(3) 0.72769(16)
H6_10 H 0.9780 0.1006 0.7178
C11_10 C 0.9108(4) 0.1870(3) 0.70818(15)
C12_10 C 0.8677(5) 0.2398(3) 0.72460(17)
H7_10 H 0.8411 0.2746 0.7125
C13_10 C 0.8655(4) 0.2394(4) 0.75871(17)
H8_10 H 0.8357 0.2747 0.7693
C14_10 C 0.9202(4) 0.1779(4) 0.67044(18)
C15_10 C 0.8823(5) 0.2329(4) 0.61677(17)
C16_10 C 0.8932(6) 0.1785(4) 0.59563(18)
H9_10 H 0.9025 0.1352 0.6046
C17_10 C 0.8908(6) 0.1866(4) 0.5621(2)
H10_10 H 0.8980 0.1488 0.5482
C18_10 C 0.8776(5) 0.2508(4) 0.54788(18)
C19_10 C 0.8638(7) 0.3051(4) 0.5691(2)
H11_10 H 0.8518 0.3480 0.5602
C20_10 C 0.8673(6) 0.2971(4) 0.60252(19)
H12_10 H 0.8596 0.3349 0.6164
C21_10 C 0.8807(7) 0.3144(5) 0.4934(2)
C22_10 C 0.8826(6) 0.3051(5) 0.4565(2)
C23_10 C 0.9128(11) 0.3571(6) 0.4383(3)
H13_10 H 0.9338 0.3955 0.4494
C24_10 C 0.9142(9) 0.3560(6) 0.4034(2)
H14_10 H 0.9328 0.3946 0.3917
C25_10 C 0.8583(7) 0.2500(5) 0.4037(2)
H15_10 H 0.8375 0.2121 0.3922
C26_10 C 0.8553(8) 0.2506(6) 0.4389(2)
H16_10 H 0.8341 0.2126 0.4502
Cu1_4 Cu 0.89512(5) 0.19457(4) 0.83224(2)
H17_10 H 0.854(4) 0.261(3) 0.6650(15)
H18_10 H 0.877(4) 0.218(2) 0.4967(12)
N1_10 N 0.9029(3) 0.1918(3) 0.77829(13)
N2_10 N 0.8824(4) 0.2288(3) 0.65208(14)
N3_10 N 0.8761(5) 0.2544(3) 0.51195(15)
N4_6 N 0.8900(4) 0.3022(3) 0.38658(14)
O1_10 O 0.8526(5) 0.2896(4) 0.83083(16)
O2_6 O 0.9832(4) 0.3356(5) 0.83584(16)
O3_6 O 0.6490(7) 0.5988(3) 0.83393(18)
O4_10 O 0.7712(7) 0.6560(3) 0.82788(15)
O5_10 O 0.9573(4) 0.1297(3) 0.65853(12)
O6_10 O 0.8862(7) 0.3710(4) 0.50651(17)
N5_6 N 0.8900(4) 0.1978(3) 0.88658(14)
O8_6 O 0.8510(7) 0.0988(3) 0.83393(18)
C1_11 C 0.0981(6) 0.1590(7) 0.83398(19)
C2_11 C 0.1383(4) 0.0907(4) 0.83632(16)
C3_11 C 0.2273(4) 0.0868(3) 0.83935(17)
H1_11 H 0.2600 0.1265 0.8418
C4_11 C 0.2684(5) 0.0234(3) 0.83878(18)
H2_11 H 0.3286 0.0204 0.8407
C7_11 C 0.0898(6) 0.0290(7) 0.83439(19)
H4_11 H 0.0294 0.0308 0.8334
C9_11 C 0.0581(5) 0.3585(3) 0.76215(17)
H5_11 H 0.0333 0.3933 0.7749
C10_11 C 0.0515(4) 0.3631(3) 0.72769(16)
H6_11 H 0.0220 0.3994 0.7178
C11_11 C 0.0892(4) 0.3130(3) 0.70818(15)
C12_11 C 0.1323(5) 0.2602(3) 0.72460(17)
H7_11 H 0.1589 0.2254 0.7125
C13_11 C 0.1345(4) 0.2606(4) 0.75871(17)
H8_11 H 0.1643 0.2253 0.7693
C14_11 C 0.0798(4) 0.3221(4) 0.67044(18)
C15_11 C 0.1177(5) 0.2671(4) 0.61677(17)
C16_11 C 0.1068(6) 0.3215(4) 0.59563(18)
H9_11 H 0.0975 0.3648 0.6046
C17_11 C 0.1092(6) 0.3134(4) 0.5621(2)
H10_11 H 0.1020 0.3512 0.5482
C18_11 C 0.1224(5) 0.2492(4) 0.54788(18)
C19_11 C 0.1362(7) 0.1949(4) 0.5691(2)
H11_11 H 0.1482 0.1520 0.5602
C20_11 C 0.1327(6) 0.2029(4) 0.60252(19)
H12_11 H 0.1404 0.1651 0.6164
C21_11 C 0.1193(7) 0.1856(5) 0.4934(2)
C22_11 C 0.1174(6) 0.1949(5) 0.4565(2)
C23_11 C 0.0872(11) 0.1429(6) 0.4383(3)
H13_11 H 0.0662 0.1045 0.4494
C24_11 C 0.0858(9) 0.1440(6) 0.4034(2)
H14_11 H 0.0672 0.1054 0.3917
C25_11 C 0.1417(7) 0.2500(5) 0.4037(2)
H15_11 H 0.1625 0.2879 0.3922
C26_11 C 0.1447(8) 0.2494(6) 0.4389(2)
H16_11 H 0.1659 0.2874 0.4502
H17_11 H 0.146(4) 0.239(3) 0.6650(15)
H18_11 H 0.123(4) 0.282(2) 0.4967(12)
N1_11 N 0.0971(3) 0.3082(3) 0.77829(13)
N2_11 N 0.1176(4) 0.2712(3) 0.65208(14)
N3_11 N 0.1239(5) 0.2456(3) 0.51195(15)
N4_7 N 0.1100(4) 0.1978(3) 0.38658(14)
O1_11 O 0.1474(5) 0.2104(4) 0.83083(16)
O5_11 O 0.0427(4) 0.3703(3) 0.65853(12)
O6_11 O 0.1138(7) 0.1290(4) 0.50651(17)
Cu2_4 Cu 0.10488(5) 0.19457(4) 0.33224(2)
N5_7 N 0.1100(4) 0.3022(3) 0.88658(14)
O8_7 O 0.1490(7) 0.4012(3) 0.83393(18)
C5_11 C 0.2191(6) 0.9654(3) 0.83536(17)
C6_11 C 0.1304(7) 0.9680(5) 0.83400(19)
H3_11 H 0.0983 0.9278 0.8328
C8_11 C 0.2696(11) 0.8972(4) 0.8318(2)
O3_7 O 0.3510(7) 0.9012(3) 0.83393(18)
O4_11 O 0.2288(7) 0.8440(3) 0.82788(15)
Cu4_4 Cu 0.39512(5) 0.80543(4) 0.83224(2)
C5_12 C 0.2809(6) 0.0346(3) 0.33536(17)
C6_12 C 0.3696(7) 0.0320(5) 0.33400(19)
H3_12 H 0.4017 0.0722 0.3328
C8_12 C 0.2304(11) 0.1028(4) 0.3318(2)
O3_8 O 0.1490(7) 0.0988(3) 0.33393(18)
O4_12 O 0.2712(7) 0.1560(3) 0.32788(15)
C1_12 C 0.4019(6) 0.8410(7) 0.33398(19)
C2_12 C 0.3617(4) 0.9093(4) 0.33632(16)
C3_12 C 0.2727(4) 0.9132(3) 0.33935(17)
H1_12 H 0.2400 0.8735 0.3418
C4_12 C 0.2316(5) 0.9766(3) 0.33878(18)
H2_12 H 0.1714 0.9796 0.3407
C7_12 C 0.4102(6) 0.9710(7) 0.33439(19)
H4_12 H 0.4706 0.9692 0.3334
C9_12 C 0.4419(5) 0.6415(3) 0.26215(17)
H5_12 H 0.4667 0.6067 0.2749
C10_12 C 0.4485(4) 0.6369(3) 0.22769(16)
H6_12 H 0.4780 0.6006 0.2178
C11_12 C 0.4108(4) 0.6870(3) 0.20818(15)
C12_12 C 0.3677(5) 0.7398(3) 0.22460(17)
H7_12 H 0.3411 0.7746 0.2125
C13_12 C 0.3655(4) 0.7394(4) 0.25871(17)
H8_12 H 0.3357 0.7747 0.2693
C14_12 C 0.4202(4) 0.6779(4) 0.17044(18)
C15_12 C 0.3823(5) 0.7329(4) 0.11677(17)
C16_12 C 0.3932(6) 0.6785(4) 0.09563(18)
H9_12 H 0.4025 0.6352 0.1046
C17_12 C 0.3908(6) 0.6866(4) 0.0621(2)
H10_12 H 0.3980 0.6488 0.0482
C18_12 C 0.3776(5) 0.7508(4) 0.04788(18)
C19_12 C 0.3638(7) 0.8051(4) 0.0691(2)
H11_12 H 0.3518 0.8480 0.0602
C20_12 C 0.3673(6) 0.7971(4) 0.10252(19)
H12_12 H 0.3596 0.8349 0.1164
H17_12 H 0.354(4) 0.761(3) 0.1650(15)
N1_12 N 0.4029(3) 0.6918(3) 0.27829(13)
N2_12 N 0.3824(4) 0.7288(3) 0.15208(14)
N3_12 N 0.3761(5) 0.7544(3) 0.01195(15)
O1_12 O 0.3526(5) 0.7896(4) 0.33083(16)
O5_12 O 0.4573(4) 0.6297(3) 0.15853(12)
O6_12 O 0.3862(7) 0.8710(4) 0.00651(17)
N5_8 N 0.3900(4) 0.6978(3) 0.38658(14)
O8_8 O 0.3510(7) 0.5988(3) 0.33393(18)
C21_12 C 0.3807(7) 0.8144(5) 0.9934(2)
C22_12 C 0.3826(6) 0.8051(5) 0.9565(2)
C23_12 C 0.4128(11) 0.8571(6) 0.9383(3)
H13_12 H 0.4338 0.8955 0.9494
C24_12 C 0.4142(9) 0.8560(6) 0.9034(2)
H14_12 H 0.4328 0.8946 0.8917
C25_12 C 0.3583(7) 0.7500(5) 0.9037(2)
H15_12 H 0.3375 0.7121 0.8922
C26_12 C 0.3553(8) 0.7506(6) 0.9389(2)
H16_12 H 0.3341 0.7126 0.9502
H18_12 H 0.377(4) 0.718(2) 0.9967(12)
N4_8 N 0.3900(4) 0.8022(3) 0.88658(14)
C5_13 C 0.7191(6) 0.0346(3) 0.83536(17)
C6_13 C 0.6304(7) 0.0320(5) 0.83400(19)
H3_13 H 0.5983 0.0722 0.8328
C8_13 C 0.7696(11) 0.1028(4) 0.8318(2)
O4_13 O 0.7288(7) 0.1560(3) 0.82788(15)
C1_13 C 0.5981(6) 0.8410(7) 0.83398(19)
C2_13 C 0.6383(4) 0.9093(4) 0.83632(16)
C3_13 C 0.7273(4) 0.9132(3) 0.83935(17)
H1_13 H 0.7600 0.8735 0.8418
C4_13 C 0.7684(5) 0.9766(3) 0.83878(18)
H2_13 H 0.8286 0.9796 0.8407
C7_13 C 0.5898(6) 0.9710(7) 0.83439(19)
H4_13 H 0.5294 0.9692 0.8334
C9_13 C 0.5581(5) 0.6415(3) 0.76215(17)
H5_13 H 0.5333 0.6067 0.7749
C10_13 C 0.5515(4) 0.6369(3) 0.72769(16)
H6_13 H 0.5220 0.6006 0.7178
C11_13 C 0.5892(4) 0.6870(3) 0.70818(15)
C12_13 C 0.6323(5) 0.7398(3) 0.72460(17)
H7_13 H 0.6589 0.7746 0.7125
C13_13 C 0.6345(4) 0.7394(4) 0.75871(17)
H8_13 H 0.6643 0.7747 0.7693
C14_13 C 0.5798(4) 0.6779(4) 0.67044(18)
C15_13 C 0.6177(5) 0.7329(4) 0.61677(17)
C16_13 C 0.6068(6) 0.6785(4) 0.59563(18)
H9_13 H 0.5975 0.6352 0.6046
C17_13 C 0.6092(6) 0.6866(4) 0.5621(2)
H10_13 H 0.6020 0.6488 0.5482
C18_13 C 0.6224(5) 0.7508(4) 0.54788(18)
C19_13 C 0.6362(7) 0.8051(4) 0.5691(2)
H11_13 H 0.6482 0.8480 0.5602
C20_13 C 0.6327(6) 0.7971(4) 0.60252(19)
H12_13 H 0.6404 0.8349 0.6164
C21_13 C 0.6193(7) 0.8144(5) 0.4934(2)
C22_13 C 0.6174(6) 0.8051(5) 0.4565(2)
C23_13 C 0.5872(11) 0.8571(6) 0.4383(3)
H13_13 H 0.5662 0.8955 0.4494
C24_13 C 0.5858(9) 0.8560(6) 0.4034(2)
H14_13 H 0.5672 0.8946 0.3917
C25_13 C 0.6417(7) 0.7500(5) 0.4037(2)
H15_13 H 0.6625 0.7121 0.3922
C26_13 C 0.6447(8) 0.7506(6) 0.4389(2)
H16_13 H 0.6659 0.7126 0.4502
H17_13 H 0.646(4) 0.761(3) 0.6650(15)
H18_13 H 0.623(4) 0.718(2) 0.4967(12)
N1_13 N 0.5971(3) 0.6918(3) 0.77829(13)
N2_13 N 0.6176(4) 0.7288(3) 0.65208(14)
N3_13 N 0.6239(5) 0.7544(3) 0.51195(15)
O1_13 O 0.6474(5) 0.7896(4) 0.83083(16)
O2_7 O 0.5168(4) 0.8356(5) 0.83584(16)
O5_13 O 0.5427(4) 0.6297(3) 0.65853(12)
O6_13 O 0.6138(7) 0.8710(4) 0.50651(17)
O7_7 O 0.4832(4) 0.6644(5) 0.83584(16)
O7_8 O 0.0168(4) 0.3356(5) 0.33584(16)
C1_14 C 0.9019(6) 0.1590(7) 0.33398(19)
C2_14 C 0.8617(4) 0.0907(4) 0.33632(16)
C3_14 C 0.7727(4) 0.0868(3) 0.33935(17)
H1_14 H 0.7400 0.1265 0.3418
C4_14 C 0.7316(5) 0.0234(3) 0.33878(18)
H2_14 H 0.6714 0.0204 0.3407
C7_14 C 0.9102(6) 0.0290(7) 0.33439(19)
H4_14 H 0.9706 0.0308 0.3334
C9_14 C 0.9419(5) 0.3585(3) 0.26215(17)
H5_14 H 0.9667 0.3933 0.2749
C10_14 C 0.9485(4) 0.3631(3) 0.22769(16)
H6_14 H 0.9780 0.3994 0.2178
C11_14 C 0.9108(4) 0.3130(3) 0.20818(15)
C12_14 C 0.8677(5) 0.2602(3) 0.22460(17)
H7_14 H 0.8411 0.2254 0.2125
C13_14 C 0.8655(4) 0.2606(4) 0.25871(17)
H8_14 H 0.8357 0.2253 0.2693
C14_14 C 0.9202(4) 0.3221(4) 0.17044(18)
C15_14 C 0.8823(5) 0.2671(4) 0.11677(17)
C16_14 C 0.8932(6) 0.3215(4) 0.09563(18)
H9_14 H 0.9025 0.3648 0.1046
C17_14 C 0.8908(6) 0.3134(4) 0.0621(2)
H10_14 H 0.8980 0.3512 0.0482
C18_14 C 0.8776(5) 0.2492(4) 0.04788(18)
C19_14 C 0.8638(7) 0.1949(4) 0.0691(2)
H11_14 H 0.8518 0.1520 0.0602
C20_14 C 0.8673(6) 0.2029(4) 0.10252(19)
H12_14 H 0.8596 0.1651 0.1164
H17_14 H 0.854(4) 0.239(3) 0.1650(15)
N1_14 N 0.9029(3) 0.3082(3) 0.27829(13)
N2_14 N 0.8824(4) 0.2712(3) 0.15208(14)
N3_14 N 0.8761(5) 0.2456(3) 0.01195(15)
O1_14 O 0.8526(5) 0.2104(4) 0.33083(16)
O2_8 O 0.9832(4) 0.1644(5) 0.33584(16)
O5_14 O 0.9573(4) 0.3703(3) 0.15853(12)
O6_14 O 0.8862(7) 0.1290(4) 0.00651(17)
C21_14 C 0.8807(7) 0.1856(5) 0.9934(2)
C22_14 C 0.8826(6) 0.1949(5) 0.9565(2)
C23_14 C 0.9128(11) 0.1429(6) 0.9383(3)
H13_14 H 0.9338 0.1045 0.9494
C24_14 C 0.9142(9) 0.1440(6) 0.9034(2)
H14_14 H 0.9328 0.1054 0.8917
C25_14 C 0.8583(7) 0.2500(5) 0.9037(2)
H15_14 H 0.8375 0.2879 0.8922
C26_14 C 0.8553(8) 0.2494(6) 0.9389(2)
H16_14 H 0.8341 0.2874 0.9502
H18_14 H 0.877(4) 0.282(2) 0.9967(12)
C5_14 C 0.7809(6) 0.9654(3) 0.33536(17)
C6_14 C 0.8696(7) 0.9680(5) 0.33400(19)
H3_14 H 0.9017 0.9278 0.3328
C8_14 C 0.7304(11) 0.8972(4) 0.3318(2)
O4_14 O 0.7712(7) 0.8440(3) 0.32788(15)
C1_15 C 0.0981(6) 0.3410(7) 0.33398(19)
C2_15 C 0.1383(4) 0.4093(4) 0.33632(16)
C3_15 C 0.2273(4) 0.4132(3) 0.33935(17)
H1_15 H 0.2600 0.3735 0.3418
C4_15 C 0.2684(5) 0.4766(3) 0.33878(18)
H2_15 H 0.3286 0.4796 0.3407
C5_15 C 0.2191(6) 0.5346(3) 0.33536(17)
C6_15 C 0.1304(7) 0.5320(5) 0.33400(19)
H3_15 H 0.0983 0.5722 0.3328
C7_15 C 0.0898(6) 0.4710(7) 0.33439(19)
H4_15 H 0.0294 0.4692 0.3334
C8_15 C 0.2696(11) 0.6028(4) 0.3318(2)
C9_15 C 0.0581(5) 0.1415(3) 0.26215(17)
H5_15 H 0.0333 0.1067 0.2749
C10_15 C 0.0515(4) 0.1369(3) 0.22769(16)
H6_15 H 0.0220 0.1006 0.2178
C11_15 C 0.0892(4) 0.1870(3) 0.20818(15)
C12_15 C 0.1323(5) 0.2398(3) 0.22460(17)
H7_15 H 0.1589 0.2746 0.2125
C13_15 C 0.1345(4) 0.2394(4) 0.25871(17)
H8_15 H 0.1643 0.2747 0.2693
C14_15 C 0.0798(4) 0.1779(4) 0.17044(18)
C15_15 C 0.1177(5) 0.2329(4) 0.11677(17)
C16_15 C 0.1068(6) 0.1785(4) 0.09563(18)
H9_15 H 0.0975 0.1352 0.1046
C17_15 C 0.1092(6) 0.1866(4) 0.0621(2)
H10_15 H 0.1020 0.1488 0.0482
C18_15 C 0.1224(5) 0.2508(4) 0.04788(18)
C19_15 C 0.1362(7) 0.3051(4) 0.0691(2)
H11_15 H 0.1482 0.3480 0.0602
C20_15 C 0.1327(6) 0.2971(4) 0.10252(19)
H12_15 H 0.1404 0.3349 0.1164
H17_15 H 0.146(4) 0.261(3) 0.1650(15)
N1_15 N 0.0971(3) 0.1918(3) 0.27829(13)
N2_15 N 0.1176(4) 0.2288(3) 0.15208(14)
N3_15 N 0.1239(5) 0.2544(3) 0.01195(15)
O1_15 O 0.1474(5) 0.2896(4) 0.33083(16)
O4_15 O 0.2288(7) 0.6560(3) 0.32788(15)
O5_15 O 0.0427(4) 0.1297(3) 0.15853(12)
O6_15 O 0.1138(7) 0.3710(4) 0.00651(17)
C21_15 C 0.1193(7) 0.3144(5) 0.9934(2)
C22_15 C 0.1174(6) 0.3051(5) 0.9565(2)
C23_15 C 0.0872(11) 0.3571(6) 0.9383(3)
H13_15 H 0.0662 0.3955 0.9494
C24_15 C 0.0858(9) 0.3560(6) 0.9034(2)
H14_15 H 0.0672 0.3946 0.8917
C25_15 C 0.1417(7) 0.2500(5) 0.9037(2)
H15_15 H 0.1625 0.2121 0.8922
C26_15 C 0.1447(8) 0.2506(6) 0.9389(2)
H16_15 H 0.1659 0.2126 0.9502
H18_15 H 0.123(4) 0.218(2) 0.9967(12)
C1_16 C 0.4019(6) 0.6590(7) 0.83398(19)
C2_16 C 0.3617(4) 0.5907(4) 0.83632(16)
C3_16 C 0.2727(4) 0.5868(3) 0.83935(17)
H1_16 H 0.2400 0.6265 0.8418
C4_16 C 0.2316(5) 0.5234(3) 0.83878(18)
H2_16 H 0.1714 0.5204 0.8407
C5_16 C 0.2809(6) 0.4654(3) 0.83536(17)
C6_16 C 0.3696(7) 0.4680(5) 0.83400(19)
H3_16 H 0.4017 0.4278 0.8328
C7_16 C 0.4102(6) 0.5290(7) 0.83439(19)
H4_16 H 0.4706 0.5308 0.8334
C8_16 C 0.2304(11) 0.3972(4) 0.8318(2)
C9_16 C 0.4419(5) 0.8585(3) 0.76215(17)
H5_16 H 0.4667 0.8933 0.7749
C10_16 C 0.4485(4) 0.8631(3) 0.72769(16)
H6_16 H 0.4780 0.8994 0.7178
C11_16 C 0.4108(4) 0.8130(3) 0.70818(15)
C12_16 C 0.3677(5) 0.7602(3) 0.72460(17)
H7_16 H 0.3411 0.7254 0.7125
C13_16 C 0.3655(4) 0.7606(4) 0.75871(17)
H8_16 H 0.3357 0.7253 0.7693
C14_16 C 0.4202(4) 0.8221(4) 0.67044(18)
C15_16 C 0.3823(5) 0.7671(4) 0.61677(17)
C16_16 C 0.3932(6) 0.8215(4) 0.59563(18)
H9_16 H 0.4025 0.8648 0.6046
C17_16 C 0.3908(6) 0.8134(4) 0.5621(2)
H10_16 H 0.3980 0.8512 0.5482
C18_16 C 0.3776(5) 0.7492(4) 0.54788(18)
C19_16 C 0.3638(7) 0.6949(4) 0.5691(2)
H11_16 H 0.3518 0.6520 0.5602
C20_16 C 0.3673(6) 0.7029(4) 0.60252(19)
H12_16 H 0.3596 0.6651 0.6164
C21_16 C 0.3807(7) 0.6856(5) 0.4934(2)
C22_16 C 0.3826(6) 0.6949(5) 0.4565(2)
C23_16 C 0.4128(11) 0.6429(6) 0.4383(3)
H13_16 H 0.4338 0.6045 0.4494
C24_16 C 0.4142(9) 0.6440(6) 0.4034(2)
H14_16 H 0.4328 0.6054 0.3917
C25_16 C 0.3583(7) 0.7500(5) 0.4037(2)
H15_16 H 0.3375 0.7879 0.3922
C26_16 C 0.3553(8) 0.7494(6) 0.4389(2)
H16_16 H 0.3341 0.7874 0.4502
H17_16 H 0.354(4) 0.739(3) 0.6650(15)
H18_16 H 0.377(4) 0.782(2) 0.4967(12)
N1_16 N 0.4029(3) 0.8082(3) 0.77829(13)
N2_16 N 0.3824(4) 0.7712(3) 0.65208(14)
N3_16 N 0.3761(5) 0.7456(3) 0.51195(15)
O1_16 O 0.3526(5) 0.7104(4) 0.83083(16)
O4_16 O 0.2712(7) 0.3440(3) 0.82788(15)
O5_16 O 0.4573(4) 0.8703(3) 0.65853(12)
O6_16 O 0.3862(7) 0.6290(4) 0.50651(17)
loop_
_geom_bond_atom_site_label_1
_geom_bond_atom_site_label_2
_geom_bond_site_symmetry_1
_geom_bond_site_symmetry_2
C1 C2 1_555 1_555
C2 C3 1_555 1_555
C3 H1 1_555 1_555
C4 C3 1_555 1_555
H2 C4 1_555 1_555
C7 C2 1_555 1_555
H4 C7 1_555 1_555
C9 H5 1_555 1_555
C10 C9 1_555 1_555
H6 C10 1_555 1_555
C11 C10 1_555 1_555
C12 C11 1_555 1_555
H7 C12 1_555 1_555
C13 C12 1_555 1_555
H8 C13 1_555 1_555
C14 C11 1_555 1_555
C15 C16 1_555 1_555
C16 H9 1_555 1_555
C17 C16 1_555 1_555
H10 C17 1_555 1_555
C18 C17 1_555 1_555
C19 C18 1_555 1_555
H11 C19 1_555 1_555
C20 C15 1_555 1_555
H12 C20 1_555 1_555
C21 C22 1_555 1_555
C22 C23 1_555 1_555
C23 H13 1_555 1_555
C24 C23 1_555 1_555
H14 C24 1_555 1_555
C25 H15 1_555 1_555
C26 C22 1_555 1_555
H16 C26 1_555 1_555
Cu1 N1 1_555 1_555
H17 N2 1_555 1_555
H18 N3 1_555 1_555
N1 C9 1_555 1_555
N2 C14 1_555 1_555
N3 C18 1_555 1_555
N4 C24 1_555 1_555
O1 C1 1_555 1_555
O2 C1 1_555 1_555
O5 C14 1_555 1_555
O6 C21 1_555 1_555
Cu2 N4 1_555 1_555
Cu3 O2 1_555 1_555
N5 Cu1 1_555 1_555
O7 Cu1 1_555 1_555
O8 Cu1 1_555 1_555
C13 N1 1_555 1_555
C15 N2 1_555 1_555
C19 C20 1_555 1_555
C21 N3 1_555 1_555
C25 C26 1_555 1_555
C25 N4 1_555 1_555
Cu1 O1 1_555 1_555
C6 C5 1_555 1_555
H3 C6 1_555 1_555
C8 C5 1_555 1_555
O3 C8 1_555 1_555
O4 C8 1_555 1_555
Cu4 O3 1_555 1_555
C6_2 C5_2 1_555 1_555
H3_2 C6_2 1_555 1_555
C8_2 C5_2 1_555 1_555
O3_2 C8_2 1_555 1_555
O4_2 C8_2 1_555 1_555
Cu2 O3_2 1_555 1_555
C21_2 C22_2 1_555 1_555
C22_2 C23_2 1_555 1_555
C23_2 H13_2 1_555 1_555
C24_2 C23_2 1_555 1_555
H14_2 C24_2 1_555 1_555
C25_2 H15_2 1_555 1_555
C26_2 C22_2 1_555 1_555
H16_2 C26_2 1_555 1_555
N4_2 C24_2 1_555 1_555
Cu4 N4_2 1_555 1_555
C25_2 C26_2 1_555 1_555
C25_2 N4_2 1_555 1_555
C1_2 C2_2 1_555 1_555
C2_2 C3_2 1_555 1_555
C3_2 H1_2 1_555 1_555
C4_2 C3_2 1_555 1_555
H2_2 C4_2 1_555 1_555
C7_2 C2_2 1_555 1_555
H4_2 C7_2 1_555 1_555
C9_2 H5_2 1_555 1_555
C10_2 C9_2 1_555 1_555
H6_2 C10_2 1_555 1_555
C11_2 C10_2 1_555 1_555
C12_2 C11_2 1_555 1_555
H7_2 C12_2 1_555 1_555
C13_2 C12_2 1_555 1_555
H8_2 C13_2 1_555 1_555
C14_2 C11_2 1_555 1_555
C15_2 C16_2 1_555 1_555
C16_2 H9_2 1_555 1_555
C17_2 C16_2 1_555 1_555
H10_2 C17_2 1_555 1_555
C18_2 C17_2 1_555 1_555
C19_2 C18_2 1_555 1_555
H11_2 C19_2 1_555 1_555
C20_2 C15_2 1_555 1_555
H12_2 C20_2 1_555 1_555
Cu1_2 N1_2 1_555 1_555
H17_2 N2_2 1_555 1_555
N1_2 C9_2 1_555 1_555
N2_2 C14_2 1_555 1_555
N3_2 C18_2 1_555 1_555
O1_2 C1_2 1_555 1_555
O2_2 C1_2 1_555 1_555
O5_2 C14_2 1_555 1_555
N5_2 Cu1_2 1_555 1_555
O8_2 Cu1_2 1_555 1_555
C13_2 N1_2 1_555 1_555
C15_2 N2_2 1_555 1_555
C19_2 C20_2 1_555 1_555
Cu1_2 O1_2 1_555 1_555
C21_3 C22_3 1_555 1_555
C22_3 C23_3 1_555 1_555
C23_3 H13_3 1_555 1_555
C24_3 C23_3 1_555 1_555
H14_3 C24_3 1_555 1_555
C25_3 H15_3 1_555 1_555
C26_3 C22_3 1_555 1_555
H16_3 C26_3 1_555 1_555
N4_3 C24_3 1_555 1_555
Cu2_2 N4_3 1_555 1_555
C25_3 C26_3 1_555 1_555
C25_3 N4_3 1_555 1_555
C1_3 C2_3 1_555 1_555
C2_3 C3_3 1_555 1_555
C3_3 H1_3 1_555 1_555
C4_3 C3_3 1_555 1_555
H2_3 C4_3 1_555 1_555
C5_3 C4_3 1_555 1_555
C6_3 C5_3 1_555 1_555
H3_3 C6_3 1_555 1_555
C7_3 C2_3 1_555 1_555
H4_3 C7_3 1_555 1_555
C8_3 C5_3 1_555 1_555
C9_3 H5_3 1_555 1_555
C10_3 C9_3 1_555 1_555
H6_3 C10_3 1_555 1_555
C11_3 C10_3 1_555 1_555
C12_3 C11_3 1_555 1_555
H7_3 C12_3 1_555 1_555
C13_3 C12_3 1_555 1_555
H8_3 C13_3 1_555 1_555
C14_3 C11_3 1_555 1_555
C15_3 C16_3 1_555 1_555
C16_3 H9_3 1_555 1_555
C17_3 C16_3 1_555 1_555
H10_3 C17_3 1_555 1_555
C18_3 C17_3 1_555 1_555
C19_3 C18_3 1_555 1_555
H11_3 C19_3 1_555 1_555
C20_3 C15_3 1_555 1_555
H12_3 C20_3 1_555 1_555
Cu3_2 N1_3 1_555 1_555
H17_3 N2_3 1_555 1_555
N1_3 C9_3 1_555 1_555
N2_3 C14_3 1_555 1_555
N3_3 C18_3 1_555 1_555
O1_3 C1_3 1_555 1_555
O7_2 C1_3 1_555 1_555
O3_3 C8_3 1_555 1_555
O4_3 C8_3 1_555 1_555
O5_3 C14_3 1_555 1_555
Cu4_2 O3_3 1_555 1_555
N5_3 Cu3_2 1_555 1_555
O8_3 Cu3_2 1_555 1_555
C6_3 C7_3 1_555 1_555
C13_3 N1_3 1_555 1_555
C15_3 N2_3 1_555 1_555
C19_3 C20_3 1_555 1_555
Cu3_2 O1_3 1_555 1_555
C1_4 C2_4 1_555 1_555
C2_4 C3_4 1_555 1_555
C3_4 H1_4 1_555 1_555
C4_4 C3_4 1_555 1_555
H2_4 C4_4 1_555 1_555
C5_4 C4_4 1_555 1_555
C6_4 C5_4 1_555 1_555
H3_4 C6_4 1_555 1_555
C7_4 C2_4 1_555 1_555
H4_4 C7_4 1_555 1_555
C8_4 C5_4 1_555 1_555
C9_4 H5_4 1_555 1_555
C10_4 C9_4 1_555 1_555
H6_4 C10_4 1_555 1_555
C11_4 C10_4 1_555 1_555
C12_4 C11_4 1_555 1_555
H7_4 C12_4 1_555 1_555
C13_4 C12_4 1_555 1_555
H8_4 C13_4 1_555 1_555
C14_4 C11_4 1_555 1_555
C15_4 C16_4 1_555 1_555
C16_4 H9_4 1_555 1_555
C17_4 C16_4 1_555 1_555
H10_4 C17_4 1_555 1_555
C18_4 C17_4 1_555 1_555
C19_4 C18_4 1_555 1_555
H11_4 C19_4 1_555 1_555
C20_4 C15_4 1_555 1_555
H12_4 C20_4 1_555 1_555
C21_4 C22_4 1_555 1_555
C22_4 C23_4 1_555 1_555
C23_4 H13_4 1_555 1_555
C24_4 C23_4 1_555 1_555
H14_4 C24_4 1_555 1_555
C25_4 H15_4 1_555 1_555
C26_4 C22_4 1_555 1_555
H16_4 C26_4 1_555 1_555
Cu3 N1_4 1_555 1_555
H17_4 N2_4 1_555 1_555
H18_4 N3_4 1_555 1_555
N1_4 C9_4 1_555 1_555
N2_4 C14_4 1_555 1_555
N3_4 C18_4 1_555 1_555
N4_4 C24_4 1_555 1_555
O1_4 C1_4 1_555 1_555
O7 C1_4 1_555 1_555
O3_4 C8_4 1_555 1_555
O4_4 C8_4 1_555 1_555
O5_4 C14_4 1_555 1_555
O6_4 C21_4 1_555 1_555
Cu4_2 N4_4 1_555 1_555
Cu2_2 O3_4 1_555 1_555
N5_4 Cu3 1_555 1_555
O8_4 Cu3 1_555 1_555
C6_4 C7_4 1_555 1_555
C13_4 N1_4 1_555 1_555
C15_4 N2_4 1_555 1_555
C19_4 C20_4 1_555 1_555
C21_4 N3_4 1_555 1_555
C25_4 C26_4 1_555 1_555
C25_4 N4_4 1_555 1_555
Cu3 O1_4 1_555 1_555
C21_5 C22_5 1_555 1_555
C22_5 C23_5 1_555 1_555
C23_5 H13_5 1_555 1_555
C24_5 C23_5 1_555 1_555
H14_5 C24_5 1_555 1_555
C25_5 H15_5 1_555 1_555
C26_5 C22_5 1_555 1_555
H16_5 C26_5 1_555 1_555
N5 C24_5 1_555 1_555
C25_5 C26_5 1_555 1_555
C25_5 N5 1_555 1_555
C1_5 C2_5 1_555 1_555
C2_5 C3_5 1_555 1_555
C3_5 H1_5 1_555 1_555
C4_5 C3_5 1_555 1_555
H2_5 C4_5 1_555 1_555
C5_5 C4_5 1_555 1_555
C6_5 C5_5 1_555 1_555
H3_5 C6_5 1_555 1_555
C7_5 C2_5 1_555 1_555
H4_5 C7_5 1_555 1_555
C8_5 C5_5 1_555 1_555
C9_5 H5_5 1_555 1_555
C10_5 C9_5 1_555 1_555
H6_5 C10_5 1_555 1_555
C11_5 C10_5 1_555 1_555
C12_5 C11_5 1_555 1_555
H7_5 C12_5 1_555 1_555
C13_5 C12_5 1_555 1_555
H8_5 C13_5 1_555 1_555
C14_5 C11_5 1_555 1_555
C15_5 C16_5 1_555 1_555
C16_5 H9_5 1_555 1_555
C17_5 C16_5 1_555 1_555
H10_5 C17_5 1_555 1_555
C18_5 C17_5 1_555 1_555
C19_5 C18_5 1_555 1_555
H11_5 C19_5 1_555 1_555
C20_5 C15_5 1_555 1_555
H12_5 C20_5 1_555 1_555
Cu2 N1_5 1_555 1_555
H17_5 N2_5 1_555 1_555
N1_5 C9_5 1_555 1_555
N2_5 C14_5 1_555 1_555
N3_5 C18_5 1_555 1_555
O1_5 C1_5 1_555 1_555
O2_3 C1_5 1_555 1_555
O8_2 C8_5 1_555 1_555
O4_5 C8_5 1_555 1_555
O5_5 C14_5 1_555 1_555
Cu4_2 O2_3 1_555 1_555
O7_3 Cu2 1_555 1_555
C6_5 C7_5 1_555 1_555
C13_5 N1_5 1_555 1_555
C15_5 N2_5 1_555 1_555
C19_5 C20_5 1_555 1_555
Cu2 O1_5 1_555 1_555
C1_6 C2_6 1_555 1_555
C2_6 C3_6 1_555 1_555
C3_6 H1_6 1_555 1_555
C4_6 C3_6 1_555 1_555
H2_6 C4_6 1_555 1_555
C5_6 C4_6 1_555 1_555
C6_6 C5_6 1_555 1_555
H3_6 C6_6 1_555 1_555
C7_6 C2_6 1_555 1_555
H4_6 C7_6 1_555 1_555
C8_6 C5_6 1_555 1_555
C9_6 H5_6 1_555 1_555
C10_6 C9_6 1_555 1_555
H6_6 C10_6 1_555 1_555
C11_6 C10_6 1_555 1_555
C12_6 C11_6 1_555 1_555
H7_6 C12_6 1_555 1_555
C13_6 C12_6 1_555 1_555
H8_6 C13_6 1_555 1_555
C14_6 C11_6 1_555 1_555
C15_6 C16_6 1_555 1_555
C16_6 H9_6 1_555 1_555
C17_6 C16_6 1_555 1_555
H10_6 C17_6 1_555 1_555
C18_6 C17_6 1_555 1_555
C19_6 C18_6 1_555 1_555
H11_6 C19_6 1_555 1_555
C20_6 C15_6 1_555 1_555
H12_6 C20_6 1_555 1_555
C21_6 C22_6 1_555 1_555
C22_6 C23_6 1_555 1_555
C23_6 H13_6 1_555 1_555
C24_6 C23_6 1_555 1_555
H14_6 C24_6 1_555 1_555
C25_6 H15_6 1_555 1_555
C26_6 C22_6 1_555 1_555
H16_6 C26_6 1_555 1_555
Cu4 N1_6 1_555 1_555
H17_6 N2_6 1_555 1_555
H18_6 N3_6 1_555 1_555
N1_6 C9_6 1_555 1_555
N2_6 C14_6 1_555 1_555
N3_6 C18_6 1_555 1_555
N5_2 C24_6 1_555 1_555
O1_6 C1_6 1_555 1_555
O2_4 C1_6 1_555 1_555
O8 C8_6 1_555 1_555
O4_6 C8_6 1_555 1_555
O5_6 C14_6 1_555 1_555
O6_6 C21_6 1_555 1_555
C6_6 C7_6 1_555 1_555
C13_6 N1_6 1_555 1_555
C15_6 N2_6 1_555 1_555
C19_6 C20_6 1_555 1_555
C21_6 N3_6 1_555 1_555
C25_6 C26_6 1_555 1_555
C25_6 N5_2 1_555 1_555
Cu4 O1_6 1_555 1_555
C6_7 C5_7 1_555 1_555
H3_7 C6_7 1_555 1_555
C8_7 C5_7 1_555 1_555
O8_4 C8_7 1_555 1_555
O4_7 C8_7 1_555 1_555
C1_7 C2_7 1_555 1_555
C2_7 C3_7 1_555 1_555
C3_7 H1_7 1_555 1_555
C4_7 C3_7 1_555 1_555
H2_7 C4_7 1_555 1_555
C7_7 C2_7 1_555 1_555
H4_7 C7_7 1_555 1_555
C9_7 H5_7 1_555 1_555
C10_7 C9_7 1_555 1_555
H6_7 C10_7 1_555 1_555
C11_7 C10_7 1_555 1_555
C12_7 C11_7 1_555 1_555
H7_7 C12_7 1_555 1_555
C13_7 C12_7 1_555 1_555
H8_7 C13_7 1_555 1_555
C14_7 C11_7 1_555 1_555
C15_7 C16_7 1_555 1_555
C16_7 H9_7 1_555 1_555
C17_7 C16_7 1_555 1_555
H10_7 C17_7 1_555 1_555
C18_7 C17_7 1_555 1_555
C19_7 C18_7 1_555 1_555
H11_7 C19_7 1_555 1_555
C20_7 C15_7 1_555 1_555
H12_7 C20_7 1_555 1_555
C21_7 C22_7 1_555 1_555
C22_7 C23_7 1_555 1_555
C23_7 H13_7 1_555 1_555
C24_7 C23_7 1_555 1_555
H14_7 C24_7 1_555 1_555
C25_7 H15_7 1_555 1_555
C26_7 C22_7 1_555 1_555
H16_7 C26_7 1_555 1_555
Cu2_2 N1_7 1_555 1_555
H17_7 N2_7 1_555 1_555
H18_7 N3_7 1_555 1_555
N1_7 C9_7 1_555 1_555
N2_7 C14_7 1_555 1_555
N3_7 C18_7 1_555 1_555
N5_3 C24_7 1_555 1_555
O1_7 C1_7 1_555 1_555
O7_4 C1_7 1_555 1_555
O5_7 C14_7 1_555 1_555
O6_7 C21_7 1_555 1_555
C13_7 N1_7 1_555 1_555
C15_7 N2_7 1_555 1_555
C19_7 C20_7 1_555 1_555
C21_7 N3_7 1_555 1_555
C25_7 C26_7 1_555 1_555
C25_7 N5_3 1_555 1_555
Cu2_2 O1_7 1_555 1_555
C21_8 C22_8 1_555 1_555
C22_8 C23_8 1_555 1_555
C23_8 H13_8 1_555 1_555
C24_8 C23_8 1_555 1_555
H14_8 C24_8 1_555 1_555
C25_8 H15_8 1_555 1_555
C26_8 C22_8 1_555 1_555
H16_8 C26_8 1_555 1_555
N5_4 C24_8 1_555 1_555
C25_8 C26_8 1_555 1_555
C25_8 N5_4 1_555 1_555
C1_8 C2_8 1_555 1_555
C2_8 C3_8 1_555 1_555
C3_8 H1_8 1_555 1_555
C4_8 C3_8 1_555 1_555
H2_8 C4_8 1_555 1_555
C7_8 C2_8 1_555 1_555
H4_8 C7_8 1_555 1_555
C9_8 H5_8 1_555 1_555
C10_8 C9_8 1_555 1_555
H6_8 C10_8 1_555 1_555
C11_8 C10_8 1_555 1_555
C12_8 C11_8 1_555 1_555
H7_8 C12_8 1_555 1_555
C13_8 C12_8 1_555 1_555
H8_8 C13_8 1_555 1_555
C14_8 C11_8 1_555 1_555
C15_8 C16_8 1_555 1_555
C16_8 H9_8 1_555 1_555
C17_8 C16_8 1_555 1_555
H10_8 C17_8 1_555 1_555
C18_8 C17_8 1_555 1_555
C19_8 C18_8 1_555 1_555
H11_8 C19_8 1_555 1_555
C20_8 C15_8 1_555 1_555
H12_8 C20_8 1_555 1_555
Cu4_2 N1_8 1_555 1_555
H17_8 N2_8 1_555 1_555
N1_8 C9_8 1_555 1_555
N2_8 C14_8 1_555 1_555
N3_8 C18_8 1_555 1_555
O1_8 C1_8 1_555 1_555
O7_3 C1_8 1_555 1_555
O5_8 C14_8 1_555 1_555
C13_8 N1_8 1_555 1_555
C15_8 N2_8 1_555 1_555
C19_8 C20_8 1_555 1_555
Cu4_2 O1_8 1_555 1_555
C6_8 C5_8 1_555 1_555
H3_8 C6_8 1_555 1_555
C8_8 C5_8 1_555 1_555
O8_3 C8_8 1_555 1_555
O4_8 C8_8 1_555 1_555
C1_9 C2_9 1_555 1_555
C2_9 C3_9 1_555 1_555
C3_9 H1_9 1_555 1_555
C4_9 C3_9 1_555 1_555
H2_9 C4_9 1_555 1_555
C5_9 C4_9 1_555 1_555
C6_9 C5_9 1_555 1_555
H3_9 C6_9 1_555 1_555
C7_9 C2_9 1_555 1_555
H4_9 C7_9 1_555 1_555
C8_9 C5_9 1_555 1_555
C9_9 H5_9 1_555 1_555
C10_9 C9_9 1_555 1_555
H6_9 C10_9 1_555 1_555
C11_9 C10_9 1_555 1_555
C12_9 C11_9 1_555 1_555
H7_9 C12_9 1_555 1_555
C13_9 C12_9 1_555 1_555
H8_9 C13_9 1_555 1_555
C14_9 C11_9 1_555 1_555
C15_9 C16_9 1_555 1_555
C16_9 H9_9 1_555 1_555
C17_9 C16_9 1_555 1_555
H10_9 C17_9 1_555 1_555
C18_9 C17_9 1_555 1_555
C19_9 C18_9 1_555 1_555
H11_9 C19_9 1_555 1_555
C20_9 C15_9 1_555 1_555
H12_9 C20_9 1_555 1_555
Cu1_3 N1_9 1_555 1_555
H17_9 N2_9 1_555 1_555
N1_9 C9_9 1_555 1_555
N2_9 C14_9 1_555 1_555
N3_9 C18_9 1_555 1_555
O1_9 C1_9 1_555 1_555
O2_5 C1_9 1_555 1_555
O3_5 C8_9 1_555 1_555
O4_9 C8_9 1_555 1_555
O5_9 C14_9 1_555 1_555
Cu3_3 O2_5 1_555 1_555
Cu4_3 O3_5 1_555 1_555
N5_5 Cu1_3 1_555 1_555
O7_5 Cu1_3 1_555 1_555
O8_5 Cu1_3 1_555 1_555
C6_9 C7_9 1_555 1_555
C13_9 N1_9 1_555 1_555
C15_9 N2_9 1_555 1_555
C19_9 C20_9 1_555 1_555
Cu1_3 O1_9 1_555 1_555
C21_9 C22_9 1_555 1_555
C22_9 C23_9 1_555 1_555
C23_9 H13_9 1_555 1_555
C24_9 C23_9 1_555 1_555
H14_9 C24_9 1_555 1_555
C25_9 H15_9 1_555 1_555
C26_9 C22_9 1_555 1_555
H16_9 C26_9 1_555 1_555
N4_5 C24_9 1_555 1_555
Cu2_3 N4_5 1_555 1_555
C25_9 C26_9 1_555 1_555
C25_9 N4_5 1_555 1_555
C1_10 C2_10 1_555 1_555
C2_10 C3_10 1_555 1_555
C3_10 H1_10 1_555 1_555
C4_10 C3_10 1_555 1_555
H2_10 C4_10 1_555 1_555
C5_10 C4_10 1_555 1_555
C6_10 C5_10 1_555 1_555
H3_10 C6_10 1_555 1_555
C7_10 C2_10 1_555 1_555
H4_10 C7_10 1_555 1_555
C8_10 C5_10 1_555 1_555
C9_10 H5_10 1_555 1_555
C10_10 C9_10 1_555 1_555
H6_10 C10_10 1_555 1_555
C11_10 C10_10 1_555 1_555
C12_10 C11_10 1_555 1_555
H7_10 C12_10 1_555 1_555
C13_10 C12_10 1_555 1_555
H8_10 C13_10 1_555 1_555
C14_10 C11_10 1_555 1_555
C15_10 C16_10 1_555 1_555
C16_10 H9_10 1_555 1_555
C17_10 C16_10 1_555 1_555
H10_10 C17_10 1_555 1_555
C18_10 C17_10 1_555 1_555
C19_10 C18_10 1_555 1_555
H11_10 C19_10 1_555 1_555
C20_10 C15_10 1_555 1_555
H12_10 C20_10 1_555 1_555
C21_10 C22_10 1_555 1_555
C22_10 C23_10 1_555 1_555
C23_10 H13_10 1_555 1_555
C24_10 C23_10 1_555 1_555
H14_10 C24_10 1_555 1_555
C25_10 H15_10 1_555 1_555
C26_10 C22_10 1_555 1_555
H16_10 C26_10 1_555 1_555
Cu1_4 N1_10 1_555 1_555
H17_10 N2_10 1_555 1_555
H18_10 N3_10 1_555 1_555
N1_10 C9_10 1_555 1_555
N2_10 C14_10 1_555 1_555
N3_10 C18_10 1_555 1_555
N4_6 C24_10 1_555 1_555
O1_10 C1_10 1_555 1_555
O2_6 C1_10 1_555 1_555
O3_6 C8_10 1_555 1_555
O4_10 C8_10 1_555 1_555
O5_10 C14_10 1_555 1_555
O6_10 C21_10 1_555 1_555
Cu4_3 N4_6 1_555 1_555
Cu2_3 O3_6 1_555 1_555
N5_6 Cu1_4 1_555 1_555
O8_6 Cu1_4 1_555 1_555
C6_10 C7_10 1_555 1_555
C13_10 N1_10 1_555 1_555
C15_10 N2_10 1_555 1_555
C19_10 C20_10 1_555 1_555
C21_10 N3_10 1_555 1_555
C25_10 C26_10 1_555 1_555
C25_10 N4_6 1_555 1_555
Cu1_4 O1_10 1_555 1_555
C1_11 C2_11 1_555 1_555
C2_11 C3_11 1_555 1_555
C3_11 H1_11 1_555 1_555
C4_11 C3_11 1_555 1_555
H2_11 C4_11 1_555 1_555
C7_11 C2_11 1_555 1_555
H4_11 C7_11 1_555 1_555
C9_11 H5_11 1_555 1_555
C10_11 C9_11 1_555 1_555
H6_11 C10_11 1_555 1_555
C11_11 C10_11 1_555 1_555
C12_11 C11_11 1_555 1_555
H7_11 C12_11 1_555 1_555
C13_11 C12_11 1_555 1_555
H8_11 C13_11 1_555 1_555
C14_11 C11_11 1_555 1_555
C15_11 C16_11 1_555 1_555
C16_11 H9_11 1_555 1_555
C17_11 C16_11 1_555 1_555
H10_11 C17_11 1_555 1_555
C18_11 C17_11 1_555 1_555
C19_11 C18_11 1_555 1_555
H11_11 C19_11 1_555 1_555
C20_11 C15_11 1_555 1_555
H12_11 C20_11 1_555 1_555
C21_11 C22_11 1_555 1_555
C22_11 C23_11 1_555 1_555
C23_11 H13_11 1_555 1_555
C24_11 C23_11 1_555 1_555
H14_11 C24_11 1_555 1_555
C25_11 H15_11 1_555 1_555
C26_11 C22_11 1_555 1_555
H16_11 C26_11 1_555 1_555
Cu3_4 N1_11 1_555 1_555
H17_11 N2_11 1_555 1_555
H18_11 N3_11 1_555 1_555
N1_11 C9_11 1_555 1_555
N2_11 C14_11 1_555 1_555
N3_11 C18_11 1_555 1_555
N4_7 C24_11 1_555 1_555
O1_11 C1_11 1_555 1_555
O7_6 C1_11 1_555 1_555
O5_11 C14_11 1_555 1_555
O6_11 C21_11 1_555 1_555
Cu2_4 N4_7 1_555 1_555
N5_7 Cu3_4 1_555 1_555
O8_7 Cu3_4 1_555 1_555
C13_11 N1_11 1_555 1_555
C15_11 N2_11 1_555 1_555
C19_11 C20_11 1_555 1_555
C21_11 N3_11 1_555 1_555
C25_11 C26_11 1_555 1_555
C25_11 N4_7 1_555 1_555
Cu3_4 O1_11 1_555 1_555
C6_11 C5_11 1_555 1_555
H3_11 C6_11 1_555 1_555
C8_11 C5_11 1_555 1_555
O3_7 C8_11 1_555 1_555
O4_11 C8_11 1_555 1_555
Cu4_4 O3_7 1_555 1_555
C6_12 C5_12 1_555 1_555
H3_12 C6_12 1_555 1_555
C8_12 C5_12 1_555 1_555
O3_8 C8_12 1_555 1_555
O4_12 C8_12 1_555 1_555
Cu2_4 O3_8 1_555 1_555
C1_12 C2_12 1_555 1_555
C2_12 C3_12 1_555 1_555
C3_12 H1_12 1_555 1_555
C4_12 C3_12 1_555 1_555
H2_12 C4_12 1_555 1_555
C7_12 C2_12 1_555 1_555
H4_12 C7_12 1_555 1_555
C9_12 H5_12 1_555 1_555
C10_12 C9_12 1_555 1_555
H6_12 C10_12 1_555 1_555
C11_12 C10_12 1_555 1_555
C12_12 C11_12 1_555 1_555
H7_12 C12_12 1_555 1_555
C13_12 C12_12 1_555 1_555
H8_12 C13_12 1_555 1_555
C14_12 C11_12 1_555 1_555
C15_12 C16_12 1_555 1_555
C16_12 H9_12 1_555 1_555
C17_12 C16_12 1_555 1_555
H10_12 C17_12 1_555 1_555
C18_12 C17_12 1_555 1_555
C19_12 C18_12 1_555 1_555
H11_12 C19_12 1_555 1_555
C20_12 C15_12 1_555 1_555
H12_12 C20_12 1_555 1_555
Cu3_3 N1_12 1_555 1_555
H17_12 N2_12 1_555 1_555
N1_12 C9_12 1_555 1_555
N2_12 C14_12 1_555 1_555
N3_12 C18_12 1_555 1_555
O1_12 C1_12 1_555 1_555
O7_5 C1_12 1_555 1_555
O5_12 C14_12 1_555 1_555
N5_8 Cu3_3 1_555 1_555
O8_8 Cu3_3 1_555 1_555
C13_12 N1_12 1_555 1_555
C15_12 N2_12 1_555 1_555
C19_12 C20_12 1_555 1_555
Cu3_3 O1_12 1_555 1_555
C21_12 C22_12 1_555 1_555
C22_12 C23_12 1_555 1_555
C23_12 H13_12 1_555 1_555
C24_12 C23_12 1_555 1_555
H14_12 C24_12 1_555 1_555
C25_12 H15_12 1_555 1_555
C26_12 C22_12 1_555 1_555
H16_12 C26_12 1_555 1_555
N4_8 C24_12 1_555 1_555
Cu4_4 N4_8 1_555 1_555
C25_12 C26_12 1_555 1_555
C25_12 N4_8 1_555 1_555
C6_13 C5_13 1_555 1_555
H3_13 C6_13 1_555 1_555
C8_13 C5_13 1_555 1_555
O8_6 C8_13 1_555 1_555
O4_13 C8_13 1_555 1_555
C1_13 C2_13 1_555 1_555
C2_13 C3_13 1_555 1_555
C3_13 H1_13 1_555 1_555
C4_13 C3_13 1_555 1_555
H2_13 C4_13 1_555 1_555
C7_13 C2_13 1_555 1_555
H4_13 C7_13 1_555 1_555
C9_13 H5_13 1_555 1_555
C10_13 C9_13 1_555 1_555
H6_13 C10_13 1_555 1_555
C11_13 C10_13 1_555 1_555
C12_13 C11_13 1_555 1_555
H7_13 C12_13 1_555 1_555
C13_13 C12_13 1_555 1_555
H8_13 C13_13 1_555 1_555
C14_13 C11_13 1_555 1_555
C15_13 C16_13 1_555 1_555
C16_13 H9_13 1_555 1_555
C17_13 C16_13 1_555 1_555
H10_13 C17_13 1_555 1_555
C18_13 C17_13 1_555 1_555
C19_13 C18_13 1_555 1_555
H11_13 C19_13 1_555 1_555
C20_13 C15_13 1_555 1_555
H12_13 C20_13 1_555 1_555
C21_13 C22_13 1_555 1_555
C22_13 C23_13 1_555 1_555
C23_13 H13_13 1_555 1_555
C24_13 C23_13 1_555 1_555
H14_13 C24_13 1_555 1_555
C25_13 H15_13 1_555 1_555
C26_13 C22_13 1_555 1_555
H16_13 C26_13 1_555 1_555
Cu2_3 N1_13 1_555 1_555
H17_13 N2_13 1_555 1_555
H18_13 N3_13 1_555 1_555
N1_13 C9_13 1_555 1_555
N2_13 C14_13 1_555 1_555
N3_13 C18_13 1_555 1_555
N5_5 C24_13 1_555 1_555
O1_13 C1_13 1_555 1_555
O2_7 C1_13 1_555 1_555
O5_13 C14_13 1_555 1_555
O6_13 C21_13 1_555 1_555
Cu4_4 O2_7 1_555 1_555
O7_7 Cu2_3 1_555 1_555
C13_13 N1_13 1_555 1_555
C15_13 N2_13 1_555 1_555
C19_13 C20_13 1_555 1_555
C21_13 N3_13 1_555 1_555
C25_13 C26_13 1_555 1_555
C25_13 N5_5 1_555 1_555
Cu2_3 O1_13 1_555 1_555
C1_14 C2_14 1_555 1_555
C2_14 C3_14 1_555 1_555
C3_14 H1_14 1_555 1_555
C4_14 C3_14 1_555 1_555
H2_14 C4_14 1_555 1_555
C7_14 C2_14 1_555 1_555
H4_14 C7_14 1_555 1_555
C9_14 H5_14 1_555 1_555
C10_14 C9_14 1_555 1_555
H6_14 C10_14 1_555 1_555
C11_14 C10_14 1_555 1_555
C12_14 C11_14 1_555 1_555
H7_14 C12_14 1_555 1_555
C13_14 C12_14 1_555 1_555
H8_14 C13_14 1_555 1_555
C14_14 C11_14 1_555 1_555
C15_14 C16_14 1_555 1_555
C16_14 H9_14 1_555 1_555
C17_14 C16_14 1_555 1_555
H10_14 C17_14 1_555 1_555
C18_14 C17_14 1_555 1_555
C19_14 C18_14 1_555 1_555
H11_14 C19_14 1_555 1_555
C20_14 C15_14 1_555 1_555
H12_14 C20_14 1_555 1_555
Cu4_3 N1_14 1_555 1_555
H17_14 N2_14 1_555 1_555
N1_14 C9_14 1_555 1_555
N2_14 C14_14 1_555 1_555
N3_14 C18_14 1_555 1_555
O1_14 C1_14 1_555 1_555
O2_8 C1_14 1_555 1_555
O5_14 C14_14 1_555 1_555
C13_14 N1_14 1_555 1_555
C15_14 N2_14 1_555 1_555
C19_14 C20_14 1_555 1_555
Cu4_3 O1_14 1_555 1_555
C21_14 C22_14 1_555 1_555
C22_14 C23_14 1_555 1_555
C23_14 H13_14 1_555 1_555
C24_14 C23_14 1_555 1_555
H14_14 C24_14 1_555 1_555
C25_14 H15_14 1_555 1_555
C26_14 C22_14 1_555 1_555
H16_14 C26_14 1_555 1_555
N5_6 C24_14 1_555 1_555
C25_14 C26_14 1_555 1_555
C25_14 N5_6 1_555 1_555
C6_14 C5_14 1_555 1_555
H3_14 C6_14 1_555 1_555
C8_14 C5_14 1_555 1_555
O8_5 C8_14 1_555 1_555
O4_14 C8_14 1_555 1_555
C1_15 C2_15 1_555 1_555
C2_15 C3_15 1_555 1_555
C3_15 H1_15 1_555 1_555
C4_15 C3_15 1_555 1_555
H2_15 C4_15 1_555 1_555
C5_15 C4_15 1_555 1_555
C6_15 C5_15 1_555 1_555
H3_15 C6_15 1_555 1_555
C7_15 C2_15 1_555 1_555
H4_15 C7_15 1_555 1_555
C8_15 C5_15 1_555 1_555
C9_15 H5_15 1_555 1_555
C10_15 C9_15 1_555 1_555
H6_15 C10_15 1_555 1_555
C11_15 C10_15 1_555 1_555
C12_15 C11_15 1_555 1_555
H7_15 C12_15 1_555 1_555
C13_15 C12_15 1_555 1_555
H8_15 C13_15 1_555 1_555
C14_15 C11_15 1_555 1_555
C15_15 C16_15 1_555 1_555
C16_15 H9_15 1_555 1_555
C17_15 C16_15 1_555 1_555
H10_15 C17_15 1_555 1_555
C18_15 C17_15 1_555 1_555
C19_15 C18_15 1_555 1_555
H11_15 C19_15 1_555 1_555
C20_15 C15_15 1_555 1_555
H12_15 C20_15 1_555 1_555
Cu2_4 N1_15 1_555 1_555
H17_15 N2_15 1_555 1_555
N1_15 C9_15 1_555 1_555
N2_15 C14_15 1_555 1_555
N3_15 C18_15 1_555 1_555
O1_15 C1_15 1_555 1_555
O7_8 C1_15 1_555 1_555
O8_8 C8_15 1_555 1_555
O4_15 C8_15 1_555 1_555
O5_15 C14_15 1_555 1_555
C6_15 C7_15 1_555 1_555
C13_15 N1_15 1_555 1_555
C15_15 N2_15 1_555 1_555
C19_15 C20_15 1_555 1_555
Cu2_4 O1_15 1_555 1_555
C21_15 C22_15 1_555 1_555
C22_15 C23_15 1_555 1_555
C23_15 H13_15 1_555 1_555
C24_15 C23_15 1_555 1_555
H14_15 C24_15 1_555 1_555
C25_15 H15_15 1_555 1_555
C26_15 C22_15 1_555 1_555
H16_15 C26_15 1_555 1_555
N5_7 C24_15 1_555 1_555
C25_15 C26_15 1_555 1_555
C25_15 N5_7 1_555 1_555
C1_16 C2_16 1_555 1_555
C2_16 C3_16 1_555 1_555
C3_16 H1_16 1_555 1_555
C4_16 C3_16 1_555 1_555
H2_16 C4_16 1_555 1_555
C5_16 C4_16 1_555 1_555
C6_16 C5_16 1_555 1_555
H3_16 C6_16 1_555 1_555
C7_16 C2_16 1_555 1_555
H4_16 C7_16 1_555 1_555
C8_16 C5_16 1_555 1_555
C9_16 H5_16 1_555 1_555
C10_16 C9_16 1_555 1_555
H6_16 C10_16 1_555 1_555
C11_16 C10_16 1_555 1_555
C12_16 C11_16 1_555 1_555
H7_16 C12_16 1_555 1_555
C13_16 C12_16 1_555 1_555
H8_16 C13_16 1_555 1_555
C14_16 C11_16 1_555 1_555
C15_16 C16_16 1_555 1_555
C16_16 H9_16 1_555 1_555
C17_16 C16_16 1_555 1_555
H10_16 C17_16 1_555 1_555
C18_16 C17_16 1_555 1_555
C19_16 C18_16 1_555 1_555
H11_16 C19_16 1_555 1_555
C20_16 C15_16 1_555 1_555
H12_16 C20_16 1_555 1_555
C21_16 C22_16 1_555 1_555
C22_16 C23_16 1_555 1_555
C23_16 H13_16 1_555 1_555
C24_16 C23_16 1_555 1_555
H14_16 C24_16 1_555 1_555
C25_16 H15_16 1_555 1_555
C26_16 C22_16 1_555 1_555
H16_16 C26_16 1_555 1_555
Cu4_4 N1_16 1_555 1_555
H17_16 N2_16 1_555 1_555
H18_16 N3_16 1_555 1_555
N1_16 C9_16 1_555 1_555
N2_16 C14_16 1_555 1_555
N3_16 C18_16 1_555 1_555
N5_8 C24_16 1_555 1_555
O1_16 C1_16 1_555 1_555
O7_7 C1_16 1_555 1_555
O8_7 C8_16 1_555 1_555
O4_16 C8_16 1_555 1_555
O5_16 C14_16 1_555 1_555
O6_16 C21_16 1_555 1_555
C6_16 C7_16 1_555 1_555
C13_16 N1_16 1_555 1_555
C15_16 N2_16 1_555 1_555
C19_16 C20_16 1_555 1_555
C21_16 N3_16 1_555 1_555
C25_16 C26_16 1_555 1_555
C25_16 N5_8 1_555 1_555
Cu4_4 O1_16 1_555 1_555

#END
