
###############################################################################
#
# This file contains modified crystal structure data generated from the
# MOF subset of the Cambridge Structural Database (CSD) v543 
# hosted by the Cambridge Crystallographic Data Centre (CCDC).
#
# This work is licensed under the Creative Commons
# Attribution-NonCommercial-ShareAlike 4.0 International License.
# To view a copy of this license, visit
# http://creativecommons.org/licenses/by-nc-sa/4.0/
# or send a letter to
# Creative Commons, PO Box 1866, Mountain View, CA 94042, USA.
#
# CIF created using the CSD Python API on 29 September 2022
# The structure has been converted into the P1 space group
# The structure has a 3D framework
# The original CSD entry BOWZUK is in the orthorhombic crystal system
# The framework has been calculated to contain at least 10.0% void space
# The void calculation uses a probe of radius 1.32A, grid spacing 0.4
# The framework is charged, counterions have been retained in the structure
#
###############################################################################

data_BOWZUK
_chemical_formula_moiety         '(C216 H184 N56 O8 Zn8 16+)n'
_symmetry_cell_setting           triclinic
_symmetry_space_group_name_H-M   'P 1'
_symmetry_Int_Tables_number      1
_space_group_name_Hall           'P 1'
loop_
_symmetry_equiv_pos_site_id
_symmetry_equiv_pos_as_xyz
1 x,y,z
_cell_length_a                   28.4095(12)
_cell_length_b                   28.0922(11)
_cell_length_c                   9.4743(5)
_cell_angle_alpha                90
_cell_angle_beta                 90
_cell_angle_gamma                90
_cell_volume                     7561.3
loop_
_atom_site_label
_atom_site_type_symbol
_atom_site_fract_x
_atom_site_fract_y
_atom_site_fract_z
O1 O 0.1696(3) 0.5167(4) 0.0676(8)
H22 H 0.1728 0.5468 0.0992
H23 H 0.1838 0.4926 0.1134
Zn1 Zn 0.131552(19) 0.511184(17) 0.90457(7)
N1 N 0.36746(11) 0.33949(11) 0.4006(3)
N2 N 0.38898(13) 0.07802(10) 0.6425(4)
N3 N 0.51327(12) 0.42657(11) 0.0927(3)
N4 N 0.57508(12) 0.47100(11) 0.0550(4)
N5 N 0.39479(11) 0.15532(10) 0.6213(3)
C1 C 0.40195(13) 0.36160(11) 0.3189(4)
C2 C 0.37168(14) 0.11606(13) 0.5789(4)
H1 H 0.3471 0.1157 0.5142
N6 N 0.20972(13) 0.44356(14) 0.5925(4)
C3 C 0.41765(14) 0.27943(12) 0.5078(4)
H2 H 0.4428 0.3006 0.5043
C4 C 0.24995(14) 0.41678(14) 0.5428(5)
C5 C 0.37435(14) 0.29312(12) 0.4569(4)
C6 C 0.38690(15) 0.20302(12) 0.5703(4)
C7 C 0.42852(15) 0.14129(14) 0.7162(4)
H3 H 0.4500 0.1607 0.7625
C8 C 0.47408(14) 0.40528(13) 0.1659(4)
N7 N 0.16226(14) 0.48294(13) 0.7332(5)
C9 C 0.43125(14) 0.33521(12) 0.2324(4)
H4 H 0.4265 0.3026 0.2243
C10 C 0.46731(15) 0.35647(13) 0.1579(4)
H5 H 0.4871 0.3380 0.1022
C11 C 0.32710(14) 0.36600(13) 0.4480(4)
C12 C 0.27618(18) 0.39116(17) 0.6370(5)
H6 H 0.2678 0.3905 0.7319
C13 C 0.34371(15) 0.21609(13) 0.5217(5)
H7 H 0.3185 0.1951 0.5272
C14 C 0.42428(15) 0.23421(12) 0.5645(4)
H8 H 0.4537 0.2251 0.5982
C15 C 0.54068(16) 0.46076(14) 0.1425(5)
H9 H 0.5361 0.4757 0.2289
C16 C 0.40877(15) 0.41097(13) 0.3244(5)
H10 H 0.3890 0.4296 0.3799
C17 C 0.33766(15) 0.26112(14) 0.4640(5)
H11 H 0.3083 0.2699 0.4295
C18 C 0.44456(15) 0.43232(13) 0.2480(5)
H12 H 0.4486 0.4651 0.2523
C19 C 0.42422(16) 0.09329(14) 0.7291(5)
H13 H 0.4424 0.0740 0.7875
C20 C 0.31546(16) 0.36601(17) 0.5901(5)
H14 H 0.3339 0.3492 0.6542
C21 C 0.20179(15) 0.45928(14) 0.7244(6)
H15 H 0.2219 0.4540 0.8002
C23 C 0.26041(19) 0.4157(2) 0.4024(6)
H17 H 0.2418 0.4326 0.3388
C25 C 0.2981(2) 0.3901(2) 0.3545(6)
H19 H 0.3044 0.3888 0.2582
C26 C 0.1437(3) 0.4828(3) 0.6062(8)
H20 H 0.1153 0.4972 0.5826
C27 C 0.1724(2) 0.4580(3) 0.5112(7)
H21 H 0.1674 0.4525 0.4155
Zn2 Zn 0.368448(19) 0.011184(17) 0.59543(7)
Zn3 Zn 0.631552(19) 0.511184(17) 0.09543(7)
N8 N 0.11102(13) 0.57802(10) 0.8575(4)
N9 N 0.07508(12) 0.47100(11) 0.9450(4)
O1_2 O 0.3304(3) 0.0167(4) 0.4324(8)
H22_2 H 0.3272 0.0468 0.4008
N5_2 N 0.10521(11) 0.65532(10) 0.8787(3)
C2_2 C 0.12832(14) 0.61606(13) 0.9211(4)
H1_2 H 0.1529 0.6157 0.9858
N6_2 N 0.29028(13) 0.94356(14) 0.9075(4)
C3_2 C 0.08235(14) 0.77943(12) 0.9922(4)
H2_2 H 0.0572 0.8006 0.9957
C4_2 C 0.25005(14) 0.91678(14) 0.9572(5)
C6_2 C 0.11310(15) 0.70302(12) 0.9297(4)
C7_2 C 0.07148(15) 0.64129(14) 0.7838(4)
H3_2 H 0.0500 0.6607 0.7375
N7_2 N 0.33774(14) 0.98294(13) 0.7668(5)
C12_2 C 0.22382(18) 0.89116(17) 0.8630(5)
H6_2 H 0.2322 0.8905 0.7681
C13_2 C 0.15629(15) 0.71609(13) 0.9783(5)
H7_2 H 0.1815 0.6951 0.9728
C14_2 C 0.07572(15) 0.73421(12) 0.9355(4)
H8_2 H 0.0463 0.7251 0.9018
C19_2 C 0.07578(16) 0.59329(14) 0.7709(5)
H13_2 H 0.0576 0.5740 0.7125
C20_2 C 0.18454(16) 0.86601(17) 0.9099(5)
H14_2 H 0.1661 0.8492 0.8458
C21_2 C 0.29821(15) 0.95928(14) 0.7756(6)
H15_2 H 0.2781 0.9540 0.6998
C26_2 C 0.3563(3) 0.9828(3) 0.8938(8)
H20_2 H 0.3847 0.9972 0.9174
C27_2 C 0.3276(2) 0.9580(3) 0.9888(7)
H23_2 H 0.3162 0.9926 0.3866
N9_2 N 0.42492(12) 0.97100(11) 0.5550(4)
Zn3_2 Zn 0.868448(19) 0.011184(17) 0.40457(7)
N3_2 N 0.98673(12) 0.92657(11) 0.4073(3)
N4_2 N 0.92492(12) 0.97100(11) 0.4450(4)
C15_2 C 0.95932(16) 0.96076(14) 0.3575(5)
H9_2 H 0.9639 0.9757 0.2711
C22 C 0.93187(18) 0.9426(2) 0.5602(5)
H16 H 0.9135 0.9423 0.6414
C24 C 0.97014(18) 0.9147(2) 0.5360(5)
H18 H 0.9825 0.8919 0.5966
N3_3 N 0.01327(12) 0.42657(11) 0.9073(3)
C15_3 C 0.04068(16) 0.46076(14) 0.8575(5)
H9_3 H 0.0361 0.4757 0.7711
N1_2 N 0.86746(11) 0.33949(11) 0.5994(3)
N2_2 N 0.88898(13) 0.07802(10) 0.3575(4)
N5_3 N 0.89479(11) 0.15532(10) 0.3787(3)
C1_2 C 0.90195(13) 0.36160(11) 0.6811(4)
C2_3 C 0.87168(14) 0.11606(13) 0.4211(4)
H1_3 H 0.8471 0.1157 0.4858
N6_3 N 0.70972(13) 0.44356(14) 0.4075(4)
C3_3 C 0.91765(14) 0.27943(12) 0.4922(4)
H2_3 H 0.9428 0.3006 0.4957
C4_3 C 0.74995(14) 0.41678(14) 0.4572(5)
C5_2 C 0.87435(14) 0.29312(12) 0.5431(4)
C6_3 C 0.88690(15) 0.20302(12) 0.4297(4)
C7_3 C 0.92852(15) 0.14129(14) 0.2838(4)
H3_3 H 0.9500 0.1607 0.2375
C8_2 C 0.97408(14) 0.40528(13) 0.8341(4)
N7_3 N 0.66226(14) 0.48294(13) 0.2668(5)
C9_2 C 0.93125(14) 0.33521(12) 0.7676(4)
H4_2 H 0.9265 0.3026 0.7757
C10_2 C 0.96731(15) 0.35647(13) 0.8421(4)
H5_2 H 0.9871 0.3380 0.8978
C11_2 C 0.82710(14) 0.36600(13) 0.5520(4)
C12_3 C 0.77618(18) 0.39116(17) 0.3630(5)
H6_3 H 0.7678 0.3905 0.2681
C13_3 C 0.84371(15) 0.21609(13) 0.4783(5)
H7_3 H 0.8185 0.1951 0.4728
C14_3 C 0.92428(15) 0.23421(12) 0.4355(4)
H8_3 H 0.9537 0.2251 0.4018
C16_2 C 0.90877(15) 0.41097(13) 0.6756(5)
H10_2 H 0.8890 0.4296 0.6201
C17_2 C 0.83766(15) 0.26112(14) 0.5360(5)
H11_2 H 0.8083 0.2699 0.5705
C18_2 C 0.94456(15) 0.43232(13) 0.7520(5)
H12_2 H 0.9486 0.4651 0.7477
C19_3 C 0.92422(16) 0.09329(14) 0.2709(5)
H13_3 H 0.9424 0.0740 0.2125
C20_3 C 0.81546(16) 0.36601(17) 0.4099(5)
H14_3 H 0.8339 0.3492 0.3458
C21_3 C 0.70179(15) 0.45928(14) 0.2756(6)
H15_3 H 0.7219 0.4540 0.1998
C23_2 C 0.76041(19) 0.4157(2) 0.5976(6)
H17_2 H 0.7418 0.4326 0.6612
C25_2 C 0.7981(2) 0.3901(2) 0.6455(6)
H19_2 H 0.8044 0.3888 0.7418
C26_3 C 0.6437(3) 0.4828(3) 0.3938(8)
H20_3 H 0.6153 0.4972 0.4174
C27_3 C 0.6724(2) 0.4580(3) 0.4888(7)
H21_2 H 0.6674 0.4525 0.5845
N8_2 N 0.61102(13) 0.57802(10) 0.1425(4)
O1_3 O 0.8304(3) 0.0167(4) 0.5676(8)
H22_3 H 0.8272 0.0468 0.5992
N5_4 N 0.60521(11) 0.65532(10) 0.1213(3)
C2_4 C 0.62832(14) 0.61606(13) 0.0789(4)
H1_4 H 0.6529 0.6157 0.0142
N6_4 N 0.79028(13) 0.94356(14) 0.0925(4)
C3_4 C 0.58235(14) 0.77943(12) 0.0078(4)
H2_4 H 0.5572 0.8006 0.0043
C4_4 C 0.75005(14) 0.91678(14) 0.0428(5)
C6_4 C 0.61310(15) 0.70302(12) 0.0703(4)
C7_4 C 0.57148(15) 0.64129(14) 0.2162(4)
H3_4 H 0.5500 0.6607 0.2625
N7_4 N 0.83774(14) 0.98294(13) 0.2332(5)
C12_4 C 0.72382(18) 0.89116(17) 0.1370(5)
H6_4 H 0.7322 0.8905 0.2319
C13_4 C 0.65629(15) 0.71609(13) 0.0217(5)
H7_4 H 0.6815 0.6951 0.0272
C14_4 C 0.57572(15) 0.73421(12) 0.0645(4)
H8_4 H 0.5463 0.7251 0.0982
C19_4 C 0.57578(16) 0.59329(14) 0.2291(5)
H13_4 H 0.5576 0.5740 0.2875
C20_4 C 0.68454(16) 0.86601(17) 0.0901(5)
H14_4 H 0.6661 0.8492 0.1542
C21_4 C 0.79821(15) 0.95928(14) 0.2244(6)
H15_4 H 0.7781 0.9540 0.3002
C26_4 C 0.8563(3) 0.9828(3) 0.1062(8)
H20_4 H 0.8847 0.9972 0.0826
C27_4 C 0.8276(2) 0.9580(3) 0.0112(7)
H23_3 H 0.8162 0.9926 0.6134
N1_3 N 0.63254(11) 0.83949(11) 0.9006(3)
N3_4 N 0.48673(12) 0.92657(11) 0.5927(3)
C1_3 C 0.59805(13) 0.86160(11) 0.8189(4)
C5_3 C 0.62565(14) 0.79312(12) 0.9569(4)
C8_3 C 0.52592(14) 0.90528(13) 0.6659(4)
C9_3 C 0.56875(14) 0.83521(12) 0.7324(4)
H4_3 H 0.5735 0.8026 0.7243
C10_3 C 0.53269(15) 0.85647(13) 0.6579(4)
H5_3 H 0.5129 0.8380 0.6022
C11_3 C 0.67290(14) 0.86600(13) 0.9480(4)
C15_4 C 0.45932(16) 0.96076(14) 0.6425(5)
H9_4 H 0.4639 0.9757 0.7289
C16_3 C 0.59123(15) 0.91097(13) 0.8244(5)
H10_3 H 0.6110 0.9296 0.8799
C17_3 C 0.66234(15) 0.76112(14) 0.9640(5)
H11_3 H 0.6917 0.7699 0.9295
C18_3 C 0.55544(15) 0.93232(13) 0.7480(5)
H12_3 H 0.5514 0.9651 0.7523
C22_2 C 0.43187(18) 0.9426(2) 0.4398(5)
H16_2 H 0.4135 0.9423 0.3586
C23_3 C 0.73959(19) 0.9157(2) 0.9024(6)
H17_3 H 0.7582 0.9326 0.8388
C24_2 C 0.47014(18) 0.9147(2) 0.4640(5)
H18_2 H 0.4825 0.8919 0.4034
C25_3 C 0.7019(2) 0.8901(2) 0.8545(6)
H19_3 H 0.6956 0.8888 0.7582
H21_3 H 0.8326 0.9525 0.9155
C22_3 C 0.56813(18) 0.4426(2) 0.9398(5)
H16_3 H 0.5865 0.4423 0.8586
C24_3 C 0.52986(18) 0.4147(2) 0.9640(5)
H18_3 H 0.5175 0.3919 0.9034
O1_4 O 0.3304(3) 0.4833(4) 0.0676(8)
H22_4 H 0.3272 0.4532 0.0992
H23_4 H 0.3162 0.5074 0.1134
Zn1_2 Zn 0.368448(19) 0.488816(17) 0.90457(7)
N1_4 N 0.13254(11) 0.66051(11) 0.4006(3)
N2_3 N 0.11102(13) 0.92198(10) 0.6425(4)
N5_5 N 0.10521(11) 0.84468(10) 0.6213(3)
C1_4 C 0.09805(13) 0.63840(11) 0.3189(4)
C2_5 C 0.12832(14) 0.88394(13) 0.5789(4)
H1_5 H 0.1529 0.8843 0.5142
N6_5 N 0.29028(13) 0.55644(14) 0.5925(4)
C3_5 C 0.08235(14) 0.72057(12) 0.5078(4)
H2_5 H 0.0572 0.6994 0.5043
C4_5 C 0.25005(14) 0.58322(14) 0.5428(5)
C5_4 C 0.12565(14) 0.70688(12) 0.4569(4)
C6_5 C 0.11310(15) 0.79698(12) 0.5703(4)
C7_5 C 0.07148(15) 0.85871(14) 0.7162(4)
H3_5 H 0.0500 0.8393 0.7625
C8_4 C 0.02592(14) 0.59472(13) 0.1659(4)
N7_5 N 0.33774(14) 0.51706(13) 0.7332(5)
C9_4 C 0.06875(14) 0.66479(12) 0.2324(4)
H4_4 H 0.0735 0.6974 0.2243
C10_4 C 0.03269(15) 0.64353(13) 0.1579(4)
H5_4 H 0.0129 0.6620 0.1022
C11_4 C 0.17290(14) 0.63400(13) 0.4480(4)
C12_5 C 0.22382(18) 0.60884(17) 0.6370(5)
H6_5 H 0.2322 0.6095 0.7319
C13_5 C 0.15629(15) 0.78391(13) 0.5217(5)
H7_5 H 0.1815 0.8049 0.5272
C14_5 C 0.07572(15) 0.76579(12) 0.5645(4)
H8_5 H 0.0463 0.7749 0.5982
C16_4 C 0.09123(15) 0.58903(13) 0.3244(5)
H10_4 H 0.1110 0.5704 0.3799
C17_4 C 0.16234(15) 0.73888(14) 0.4640(5)
H11_4 H 0.1917 0.7301 0.4295
C18_4 C 0.05544(15) 0.56768(13) 0.2480(5)
H12_4 H 0.0514 0.5349 0.2523
C19_5 C 0.07578(16) 0.90671(14) 0.7291(5)
H13_5 H 0.0576 0.9260 0.7875
C20_5 C 0.18454(16) 0.63399(17) 0.5901(5)
H14_5 H 0.1661 0.6508 0.6542
C21_5 C 0.29821(15) 0.54072(14) 0.7244(6)
H15_5 H 0.2781 0.5460 0.8002
C23_4 C 0.23959(19) 0.5843(2) 0.4024(6)
H17_4 H 0.2582 0.5674 0.3388
C25_4 C 0.2019(2) 0.6099(2) 0.3545(6)
H19_4 H 0.1956 0.6112 0.2582
C26_5 C 0.3563(3) 0.5172(3) 0.6062(8)
H20_5 H 0.3847 0.5028 0.5826
C27_5 C 0.3276(2) 0.5420(3) 0.5112(7)
H21_4 H 0.3326 0.5475 0.4155
Zn2_2 Zn 0.131552(19) 0.988816(17) 0.59543(7)
N8_3 N 0.38898(13) 0.42198(10) 0.8575(4)
N9_3 N 0.42492(12) 0.52900(11) 0.9450(4)
N3_5 N 0.98673(12) 0.57343(11) 0.0927(3)
N4_3 N 0.92492(12) 0.52900(11) 0.0550(4)
C15_5 C 0.95932(16) 0.53924(14) 0.1425(5)
H9_5 H 0.9639 0.5243 0.2289
Zn3_3 Zn 0.868448(19) 0.488816(17) 0.09543(7)
N1_5 N 0.36746(11) 0.16051(11) 0.0994(3)
N3_6 N 0.51327(12) 0.07343(11) 0.4073(3)
N4_4 N 0.57508(12) 0.02900(11) 0.4450(4)
C1_5 C 0.40195(13) 0.13840(11) 0.1811(4)
C5_5 C 0.37435(14) 0.20688(12) 0.0431(4)
C8_5 C 0.47408(14) 0.09472(13) 0.3341(4)
C9_5 C 0.43125(14) 0.16479(12) 0.2676(4)
H4_5 H 0.4265 0.1974 0.2757
C10_5 C 0.46731(15) 0.14353(13) 0.3421(4)
H5_5 H 0.4871 0.1620 0.3978
C11_5 C 0.32710(14) 0.13400(13) 0.0520(4)
C15_6 C 0.54068(16) 0.03924(14) 0.3575(5)
H9_6 H 0.5361 0.0243 0.2711
C16_5 C 0.40877(15) 0.08903(13) 0.1756(5)
H10_5 H 0.3890 0.0704 0.1201
C17_5 C 0.33766(15) 0.23888(14) 0.0360(5)
H11_5 H 0.3083 0.2301 0.0705
C18_5 C 0.44456(15) 0.06768(13) 0.2520(5)
H12_5 H 0.4486 0.0349 0.2477
C22_4 C 0.56813(18) 0.0574(2) 0.5602(5)
H16_4 H 0.5865 0.0577 0.6414
C23_5 C 0.26041(19) 0.0843(2) 0.0976(6)
H17_5 H 0.2418 0.0674 0.1612
C24_4 C 0.52986(18) 0.0853(2) 0.5360(5)
H18_4 H 0.5175 0.1081 0.5966
C25_5 C 0.2981(2) 0.1099(2) 0.1455(6)
H19_5 H 0.3044 0.1112 0.2418
H21_5 H 0.1674 0.0475 0.0845
N5_6 N 0.39479(11) 0.34468(10) 0.8787(3)
C2_6 C 0.37168(14) 0.38394(13) 0.9211(4)
H1_6 H 0.3471 0.3843 0.9858
N6_6 N 0.20972(13) 0.05644(14) 0.9075(4)
C3_6 C 0.41765(14) 0.22057(12) 0.9922(4)
H2_6 H 0.4428 0.1994 0.9957
C4_6 C 0.24995(14) 0.08322(14) 0.9572(5)
C6_6 C 0.38690(15) 0.29698(12) 0.9297(4)
C7_6 C 0.42852(15) 0.35871(14) 0.7838(4)
H3_6 H 0.4500 0.3393 0.7375
N7_6 N 0.16226(14) 0.01706(13) 0.7668(5)
C12_6 C 0.27618(18) 0.10884(17) 0.8630(5)
H6_6 H 0.2678 0.1095 0.7681
C13_6 C 0.34371(15) 0.28391(13) 0.9783(5)
H7_6 H 0.3185 0.3049 0.9728
C14_6 C 0.42428(15) 0.26579(12) 0.9355(4)
H8_6 H 0.4537 0.2749 0.9018
C19_6 C 0.42422(16) 0.40671(14) 0.7709(5)
H13_6 H 0.4424 0.4260 0.7125
C20_6 C 0.31546(16) 0.13399(17) 0.9099(5)
H14_6 H 0.3339 0.1508 0.8458
C21_6 C 0.20179(15) 0.04072(14) 0.7756(6)
H15_6 H 0.2219 0.0460 0.6998
C26_6 C 0.1437(3) 0.0172(3) 0.8938(8)
H20_6 H 0.1153 0.0028 0.9174
C27_6 C 0.1724(2) 0.0420(3) 0.9888(7)
H23_5 H 0.1838 0.0074 0.3866
N9_4 N 0.07508(12) 0.02900(11) 0.5550(4)
Zn3_4 Zn 0.631552(19) 0.988816(17) 0.40457(7)
O1_5 O 0.1696(3) 0.9833(4) 0.4324(8)
H22_5 H 0.1728 0.9532 0.4008
N1_6 N 0.63254(11) 0.66051(11) 0.5994(3)
N2_4 N 0.61102(13) 0.92198(10) 0.3575(4)
N3_7 N 0.48673(12) 0.57343(11) 0.9073(3)
N5_7 N 0.60521(11) 0.84468(10) 0.3787(3)
C1_6 C 0.59805(13) 0.63840(11) 0.6811(4)
C2_7 C 0.62832(14) 0.88394(13) 0.4211(4)
H1_7 H 0.6529 0.8843 0.4858
N6_7 N 0.79028(13) 0.55644(14) 0.4075(4)
C3_7 C 0.58235(14) 0.72057(12) 0.4922(4)
H2_7 H 0.5572 0.6994 0.4957
C4_7 C 0.75005(14) 0.58322(14) 0.4572(5)
C5_6 C 0.62565(14) 0.70688(12) 0.5431(4)
C6_7 C 0.61310(15) 0.79698(12) 0.4297(4)
C7_7 C 0.57148(15) 0.85871(14) 0.2838(4)
H3_7 H 0.5500 0.8393 0.2375
C8_6 C 0.52592(14) 0.59472(13) 0.8341(4)
N7_7 N 0.83774(14) 0.51706(13) 0.2668(5)
C9_6 C 0.56875(14) 0.66479(12) 0.7676(4)
H4_6 H 0.5735 0.6974 0.7757
C10_6 C 0.53269(15) 0.64353(13) 0.8421(4)
H5_6 H 0.5129 0.6620 0.8978
C11_6 C 0.67290(14) 0.63400(13) 0.5520(4)
C12_7 C 0.72382(18) 0.60884(17) 0.3630(5)
H6_7 H 0.7322 0.6095 0.2681
C13_7 C 0.65629(15) 0.78391(13) 0.4783(5)
H7_7 H 0.6815 0.8049 0.4728
C14_7 C 0.57572(15) 0.76579(12) 0.4355(4)
H8_7 H 0.5463 0.7749 0.4018
C15_7 C 0.45932(16) 0.53924(14) 0.8575(5)
H9_7 H 0.4639 0.5243 0.7711
C16_6 C 0.59123(15) 0.58903(13) 0.6756(5)
H10_6 H 0.6110 0.5704 0.6201
C17_6 C 0.66234(15) 0.73888(14) 0.5360(5)
H11_6 H 0.6917 0.7301 0.5705
C18_6 C 0.55544(15) 0.56768(13) 0.7520(5)
H12_6 H 0.5514 0.5349 0.7477
C19_7 C 0.57578(16) 0.90671(14) 0.2709(5)
H13_7 H 0.5576 0.9260 0.2125
C20_7 C 0.68454(16) 0.63399(17) 0.4099(5)
H14_7 H 0.6661 0.6508 0.3458
C21_7 C 0.79821(15) 0.54072(14) 0.2756(6)
H15_7 H 0.7781 0.5460 0.1998
C23_6 C 0.73959(19) 0.5843(2) 0.5976(6)
H17_6 H 0.7582 0.5674 0.6612
C25_6 C 0.7019(2) 0.6099(2) 0.6455(6)
H19_6 H 0.6956 0.6112 0.7418
C26_7 C 0.8563(3) 0.5172(3) 0.3938(8)
H20_7 H 0.8847 0.5028 0.4174
C27_7 C 0.8276(2) 0.5420(3) 0.4888(7)
H21_6 H 0.8326 0.5475 0.5845
N8_4 N 0.88898(13) 0.42198(10) 0.1425(4)
N3_8 N 0.01327(12) 0.07343(11) 0.5927(3)
C15_8 C 0.04068(16) 0.03924(14) 0.6425(5)
H9_8 H 0.0361 0.0243 0.7289
C22_5 C 0.06813(18) 0.0574(2) 0.4398(5)
H16_5 H 0.0865 0.0577 0.3586
C24_5 C 0.02986(18) 0.0853(2) 0.4640(5)
H18_5 H 0.0175 0.1081 0.4034
N5_8 N 0.89479(11) 0.34468(10) 0.1213(3)
C2_8 C 0.87168(14) 0.38394(13) 0.0789(4)
H1_8 H 0.8471 0.3843 0.0142
N6_8 N 0.70972(13) 0.05644(14) 0.0925(4)
C3_8 C 0.91765(14) 0.22057(12) 0.0078(4)
H2_8 H 0.9428 0.1994 0.0043
C4_8 C 0.74995(14) 0.08322(14) 0.0428(5)
C6_8 C 0.88690(15) 0.29698(12) 0.0703(4)
C7_8 C 0.92852(15) 0.35871(14) 0.2162(4)
H3_8 H 0.9500 0.3393 0.2625
N7_8 N 0.66226(14) 0.01706(13) 0.2332(5)
C12_8 C 0.77618(18) 0.10884(17) 0.1370(5)
H6_8 H 0.7678 0.1095 0.2319
C13_8 C 0.84371(15) 0.28391(13) 0.0217(5)
H7_8 H 0.8185 0.3049 0.0272
C14_8 C 0.92428(15) 0.26579(12) 0.0645(4)
H8_8 H 0.9537 0.2749 0.0982
C19_8 C 0.92422(16) 0.40671(14) 0.2291(5)
H13_8 H 0.9424 0.4260 0.2875
C20_8 C 0.81546(16) 0.13399(17) 0.0901(5)
H14_8 H 0.8339 0.1508 0.1542
C21_8 C 0.70179(15) 0.04072(14) 0.2244(6)
H15_8 H 0.7219 0.0460 0.3002
C26_8 C 0.6437(3) 0.0172(3) 0.1062(8)
H20_8 H 0.6153 0.0028 0.0826
C27_8 C 0.6724(2) 0.0420(3) 0.0112(7)
H23_6 H 0.6838 0.0074 0.6134
O1_6 O 0.6696(3) 0.9833(4) 0.5676(8)
H22_6 H 0.6728 0.9532 0.5992
C22_6 C 0.93187(18) 0.5574(2) 0.9398(5)
H16_6 H 0.9135 0.5577 0.8586
C24_6 C 0.97014(18) 0.5853(2) 0.9640(5)
H18_6 H 0.9825 0.6081 0.9034
N1_7 N 0.13254(11) 0.83949(11) 0.0994(3)
C1_7 C 0.09805(13) 0.86160(11) 0.1811(4)
C5_7 C 0.12565(14) 0.79312(12) 0.0431(4)
C8_7 C 0.02592(14) 0.90528(13) 0.3341(4)
C9_7 C 0.06875(14) 0.83521(12) 0.2676(4)
H4_7 H 0.0735 0.8026 0.2757
C10_7 C 0.03269(15) 0.85647(13) 0.3421(4)
H5_7 H 0.0129 0.8380 0.3978
C11_7 C 0.17290(14) 0.86600(13) 0.0520(4)
C16_7 C 0.09123(15) 0.91097(13) 0.1756(5)
H10_7 H 0.1110 0.9296 0.1201
C17_7 C 0.16234(15) 0.76112(14) 0.0360(5)
H11_7 H 0.1917 0.7699 0.0705
C18_7 C 0.05544(15) 0.93232(13) 0.2520(5)
H12_7 H 0.0514 0.9651 0.2477
C23_7 C 0.23959(19) 0.9157(2) 0.0976(6)
H17_7 H 0.2582 0.9326 0.1612
C25_7 C 0.2019(2) 0.8901(2) 0.1455(6)
H19_7 H 0.1956 0.8888 0.2418
H21_7 H 0.3326 0.9525 0.0845
C22_7 C 0.43187(18) 0.5574(2) 0.0602(5)
H16_7 H 0.4135 0.5577 0.1414
C24_7 C 0.47014(18) 0.5853(2) 0.0360(5)
H18_7 H 0.4825 0.6081 0.0966
O1_7 O 0.8304(3) 0.4833(4) 0.9324(8)
H22_7 H 0.8272 0.4532 0.9008
H23_7 H 0.8162 0.5074 0.8866
C22_8 C 0.06813(18) 0.4426(2) 0.0602(5)
H16_8 H 0.0865 0.4423 0.1414
C24_8 C 0.02986(18) 0.4147(2) 0.0360(5)
H18_8 H 0.0175 0.3919 0.0966
O1_8 O 0.6696(3) 0.5167(4) 0.9324(8)
H22_8 H 0.6728 0.5468 0.9008
H23_8 H 0.6838 0.4926 0.8866
N1_8 N 0.86746(11) 0.16051(11) 0.9006(3)
C1_8 C 0.90195(13) 0.13840(11) 0.8189(4)
C5_8 C 0.87435(14) 0.20688(12) 0.9569(4)
C8_8 C 0.97408(14) 0.09472(13) 0.6659(4)
C9_8 C 0.93125(14) 0.16479(12) 0.7324(4)
H4_8 H 0.9265 0.1974 0.7243
C10_8 C 0.96731(15) 0.14353(13) 0.6579(4)
H5_8 H 0.9871 0.1620 0.6022
C11_8 C 0.82710(14) 0.13400(13) 0.9480(4)
C16_8 C 0.90877(15) 0.08903(13) 0.8244(5)
H10_8 H 0.8890 0.0704 0.8799
C17_8 C 0.83766(15) 0.23888(14) 0.9640(5)
H11_8 H 0.8083 0.2301 0.9295
C18_8 C 0.94456(15) 0.06768(13) 0.7480(5)
H12_8 H 0.9486 0.0349 0.7523
C23_8 C 0.76041(19) 0.0843(2) 0.9024(6)
H17_8 H 0.7418 0.0674 0.8388
C25_8 C 0.7981(2) 0.1099(2) 0.8545(6)
H19_8 H 0.8044 0.1112 0.7582
H21_8 H 0.6674 0.0475 0.9155
loop_
_geom_bond_atom_site_label_1
_geom_bond_atom_site_label_2
_geom_bond_site_symmetry_1
_geom_bond_site_symmetry_2
H22 O1 1_555 1_555
H23 O1 1_555 1_555
Zn1 N7 1_555 1_555
N1 C1 1_555 1_555
N2 C2 1_555 1_555
N3 C8 1_555 1_555
N4 C15 1_555 1_555
N5 C2 1_555 1_555
C1 C9 1_555 1_555
C2 H1 1_555 1_555
N6 C4 1_555 1_555
C3 H2 1_555 1_555
C4 C12 1_555 1_555
C5 N1 1_555 1_555
C6 N5 1_555 1_555
C7 N5 1_555 1_555
H3 C7 1_555 1_555
C8 C10 1_555 1_555
N7 C21 1_555 1_555
C9 H4 1_555 1_555
C10 C9 1_555 1_555
H5 C10 1_555 1_555
C11 N1 1_555 1_555
C12 H6 1_555 1_555
C13 C6 1_555 1_555
H7 C13 1_555 1_555
C14 C3 1_555 1_555
H8 C14 1_555 1_555
C15 N3 1_555 1_555
H9 C15 1_555 1_555
C16 C1 1_555 1_555
H10 C16 1_555 1_555
C17 C5 1_555 1_555
H11 C17 1_555 1_555
C18 C8 1_555 1_555
H12 C18 1_555 1_555
C19 N2 1_555 1_555
H13 C19 1_555 1_555
C20 C11 1_555 1_555
H14 C20 1_555 1_555
C21 N6 1_555 1_555
H15 C21 1_555 1_555
C23 C4 1_555 1_555
H17 C23 1_555 1_555
C25 C11 1_555 1_555
H19 C25 1_555 1_555
C26 N7 1_555 1_555
H20 C26 1_555 1_555
C27 N6 1_555 1_555
H21 C27 1_555 1_555
Zn2 N2 1_555 1_555
Zn3 N4 1_555 1_555
N8 Zn1 1_555 1_555
N9 Zn1 1_555 1_555
C3 C5 1_555 1_555
C6 C14 1_555 1_555
C7 C19 1_555 1_555
C12 C20 1_555 1_555
C13 C17 1_555 1_555
C16 C18 1_555 1_555
C23 C25 1_555 1_555
C26 C27 1_555 1_555
O1_2 Zn2 1_555 1_555
H22_2 O1_2 1_555 1_555
N8 C2_2 1_555 1_555
N5_2 C2_2 1_555 1_555
C2_2 H1_2 1_555 1_555
N6_2 C4_2 1_555 1_555
C3_2 H2_2 1_555 1_555
C4_2 C12_2 1_555 1_555
C6_2 N5_2 1_555 1_555
C7_2 N5_2 1_555 1_555
H3_2 C7_2 1_555 1_555
N7_2 C21_2 1_555 1_555
C12_2 H6_2 1_555 1_555
C13_2 C6_2 1_555 1_555
H7_2 C13_2 1_555 1_555
C14_2 C3_2 1_555 1_555
H8_2 C14_2 1_555 1_555
C19_2 N8 1_555 1_555
H13_2 C19_2 1_555 1_555
H14_2 C20_2 1_555 1_555
C21_2 N6_2 1_555 1_555
H15_2 C21_2 1_555 1_555
C26_2 N7_2 1_555 1_555
H20_2 C26_2 1_555 1_555
C27_2 N6_2 1_555 1_555
C6_2 C14_2 1_555 1_555
C7_2 C19_2 1_555 1_555
C12_2 C20_2 1_555 1_555
C26_2 C27_2 1_555 1_555
N4_2 C15_2 1_555 1_555
C15_2 N3_2 1_555 1_555
H9_2 C15_2 1_555 1_555
C22 N4_2 1_555 1_555
H16 C22 1_555 1_555
C24 N3_2 1_555 1_555
H18 C24 1_555 1_555
C22 C24 1_555 1_555
N9 C15_3 1_555 1_555
C15_3 N3_3 1_555 1_555
H9_3 C15_3 1_555 1_555
Zn3 N7_3 1_555 1_555
N1_2 C1_2 1_555 1_555
N2_2 C2_3 1_555 1_555
N5_3 C2_3 1_555 1_555
C1_2 C9_2 1_555 1_555
C2_3 H1_3 1_555 1_555
N6_3 C4_3 1_555 1_555
C3_3 H2_3 1_555 1_555
C4_3 C12_3 1_555 1_555
C5_2 N1_2 1_555 1_555
C6_3 N5_3 1_555 1_555
C7_3 N5_3 1_555 1_555
H3_3 C7_3 1_555 1_555
C8_2 C10_2 1_555 1_555
N7_3 C21_3 1_555 1_555
C9_2 H4_2 1_555 1_555
C10_2 C9_2 1_555 1_555
H5_2 C10_2 1_555 1_555
C11_2 N1_2 1_555 1_555
C12_3 H6_3 1_555 1_555
C13_3 C6_3 1_555 1_555
H7_3 C13_3 1_555 1_555
C14_3 C3_3 1_555 1_555
H8_3 C14_3 1_555 1_555
C16_2 C1_2 1_555 1_555
H10_2 C16_2 1_555 1_555
C17_2 C5_2 1_555 1_555
H11_2 C17_2 1_555 1_555
C18_2 C8_2 1_555 1_555
H12_2 C18_2 1_555 1_555
C19_3 N2_2 1_555 1_555
H13_3 C19_3 1_555 1_555
C20_3 C11_2 1_555 1_555
H14_3 C20_3 1_555 1_555
C21_3 N6_3 1_555 1_555
H15_3 C21_3 1_555 1_555
C23_2 C4_3 1_555 1_555
H17_2 C23_2 1_555 1_555
C25_2 C11_2 1_555 1_555
H19_2 C25_2 1_555 1_555
C26_3 N7_3 1_555 1_555
H20_3 C26_3 1_555 1_555
C27_3 N6_3 1_555 1_555
H21_2 C27_3 1_555 1_555
Zn3_2 N2_2 1_555 1_555
N8_2 Zn3 1_555 1_555
C3_3 C5_2 1_555 1_555
C6_3 C14_3 1_555 1_555
C7_3 C19_3 1_555 1_555
C12_3 C20_3 1_555 1_555
C13_3 C17_2 1_555 1_555
C16_2 C18_2 1_555 1_555
C23_2 C25_2 1_555 1_555
C26_3 C27_3 1_555 1_555
O1_3 Zn3_2 1_555 1_555
H22_3 O1_3 1_555 1_555
N8_2 C2_4 1_555 1_555
N5_4 C2_4 1_555 1_555
C2_4 H1_4 1_555 1_555
N6_4 C4_4 1_555 1_555
C3_4 H2_4 1_555 1_555
C4_4 C12_4 1_555 1_555
C6_4 N5_4 1_555 1_555
C7_4 N5_4 1_555 1_555
H3_4 C7_4 1_555 1_555
N7_4 C21_4 1_555 1_555
C12_4 H6_4 1_555 1_555
C13_4 C6_4 1_555 1_555
H7_4 C13_4 1_555 1_555
C14_4 C3_4 1_555 1_555
H8_4 C14_4 1_555 1_555
C19_4 N8_2 1_555 1_555
H13_4 C19_4 1_555 1_555
H14_4 C20_4 1_555 1_555
C21_4 N6_4 1_555 1_555
H15_4 C21_4 1_555 1_555
C26_4 N7_4 1_555 1_555
H20_4 C26_4 1_555 1_555
C27_4 N6_4 1_555 1_555
C6_4 C14_4 1_555 1_555
C7_4 C19_4 1_555 1_555
C12_4 C20_4 1_555 1_555
C26_4 C27_4 1_555 1_555
N1_3 C1_3 1_555 1_555
N3_4 C8_3 1_555 1_555
N9_2 C15_4 1_555 1_555
C1_3 C9_3 1_555 1_555
C5_3 N1_3 1_555 1_555
C8_3 C10_3 1_555 1_555
C9_3 H4_3 1_555 1_555
C10_3 C9_3 1_555 1_555
H5_3 C10_3 1_555 1_555
C11_3 N1_3 1_555 1_555
C15_4 N3_4 1_555 1_555
H9_4 C15_4 1_555 1_555
C16_3 C1_3 1_555 1_555
H10_3 C16_3 1_555 1_555
C17_3 C5_3 1_555 1_555
H11_3 C17_3 1_555 1_555
C18_3 C8_3 1_555 1_555
H12_3 C18_3 1_555 1_555
C22_2 N9_2 1_555 1_555
H16_2 C22_2 1_555 1_555
H17_3 C23_3 1_555 1_555
C24_2 N3_4 1_555 1_555
H18_2 C24_2 1_555 1_555
C25_3 C11_3 1_555 1_555
H19_3 C25_3 1_555 1_555
C16_3 C18_3 1_555 1_555
C22_2 C24_2 1_555 1_555
C23_3 C25_3 1_555 1_555
H16_3 C22_3 1_555 1_555
H18_3 C24_3 1_555 1_555
C22_3 C24_3 1_555 1_555
H22_4 O1_4 1_555 1_555
H23_4 O1_4 1_555 1_555
Zn1_2 N7_5 1_555 1_555
N1_4 C1_4 1_555 1_555
N2_3 C2_5 1_555 1_555
N5_5 C2_5 1_555 1_555
C1_4 C9_4 1_555 1_555
C2_5 H1_5 1_555 1_555
N6_5 C4_5 1_555 1_555
C3_5 H2_5 1_555 1_555
C4_5 C12_5 1_555 1_555
C5_4 N1_4 1_555 1_555
C6_5 N5_5 1_555 1_555
C7_5 N5_5 1_555 1_555
H3_5 C7_5 1_555 1_555
C8_4 C10_4 1_555 1_555
N7_5 C21_5 1_555 1_555
C9_4 H4_4 1_555 1_555
C10_4 C9_4 1_555 1_555
H5_4 C10_4 1_555 1_555
C11_4 N1_4 1_555 1_555
C12_5 H6_5 1_555 1_555
C13_5 C6_5 1_555 1_555
H7_5 C13_5 1_555 1_555
C14_5 C3_5 1_555 1_555
H8_5 C14_5 1_555 1_555
C16_4 C1_4 1_555 1_555
H10_4 C16_4 1_555 1_555
C17_4 C5_4 1_555 1_555
H11_4 C17_4 1_555 1_555
C18_4 C8_4 1_555 1_555
H12_4 C18_4 1_555 1_555
C19_5 N2_3 1_555 1_555
H13_5 C19_5 1_555 1_555
C20_5 C11_4 1_555 1_555
H14_5 C20_5 1_555 1_555
C21_5 N6_5 1_555 1_555
H15_5 C21_5 1_555 1_555
C23_4 C4_5 1_555 1_555
H17_4 C23_4 1_555 1_555
C25_4 C11_4 1_555 1_555
H19_4 C25_4 1_555 1_555
C26_5 N7_5 1_555 1_555
H20_5 C26_5 1_555 1_555
C27_5 N6_5 1_555 1_555
H21_4 C27_5 1_555 1_555
Zn2_2 N2_3 1_555 1_555
N8_3 Zn1_2 1_555 1_555
N9_3 Zn1_2 1_555 1_555
C3_5 C5_4 1_555 1_555
C6_5 C14_5 1_555 1_555
C7_5 C19_5 1_555 1_555
C12_5 C20_5 1_555 1_555
C13_5 C17_4 1_555 1_555
C16_4 C18_4 1_555 1_555
C23_4 C25_4 1_555 1_555
C26_5 C27_5 1_555 1_555
N4_3 C15_5 1_555 1_555
C15_5 N3_5 1_555 1_555
H9_5 C15_5 1_555 1_555
Zn3_3 N4_3 1_555 1_555
N1_5 C1_5 1_555 1_555
N3_6 C8_5 1_555 1_555
N4_4 C15_6 1_555 1_555
C1_5 C9_5 1_555 1_555
C5_5 N1_5 1_555 1_555
C8_5 C10_5 1_555 1_555
C9_5 H4_5 1_555 1_555
C10_5 C9_5 1_555 1_555
H5_5 C10_5 1_555 1_555
C11_5 N1_5 1_555 1_555
C15_6 N3_6 1_555 1_555
H9_6 C15_6 1_555 1_555
C16_5 C1_5 1_555 1_555
H10_5 C16_5 1_555 1_555
C17_5 C5_5 1_555 1_555
H11_5 C17_5 1_555 1_555
C18_5 C8_5 1_555 1_555
H12_5 C18_5 1_555 1_555
C22_4 N4_4 1_555 1_555
H16_4 C22_4 1_555 1_555
H17_5 C23_5 1_555 1_555
C24_4 N3_6 1_555 1_555
H18_4 C24_4 1_555 1_555
C25_5 C11_5 1_555 1_555
H19_5 C25_5 1_555 1_555
C16_5 C18_5 1_555 1_555
C22_4 C24_4 1_555 1_555
C23_5 C25_5 1_555 1_555
N8_3 C2_6 1_555 1_555
N5_6 C2_6 1_555 1_555
C2_6 H1_6 1_555 1_555
N6_6 C4_6 1_555 1_555
C3_6 H2_6 1_555 1_555
C4_6 C12_6 1_555 1_555
C6_6 N5_6 1_555 1_555
C7_6 N5_6 1_555 1_555
H3_6 C7_6 1_555 1_555
N7_6 C21_6 1_555 1_555
C12_6 H6_6 1_555 1_555
C13_6 C6_6 1_555 1_555
H7_6 C13_6 1_555 1_555
C14_6 C3_6 1_555 1_555
H8_6 C14_6 1_555 1_555
C19_6 N8_3 1_555 1_555
H13_6 C19_6 1_555 1_555
H14_6 C20_6 1_555 1_555
C21_6 N6_6 1_555 1_555
H15_6 C21_6 1_555 1_555
C26_6 N7_6 1_555 1_555
H20_6 C26_6 1_555 1_555
C27_6 N6_6 1_555 1_555
C6_6 C14_6 1_555 1_555
C7_6 C19_6 1_555 1_555
C12_6 C20_6 1_555 1_555
C26_6 C27_6 1_555 1_555
O1_5 Zn2_2 1_555 1_555
H22_5 O1_5 1_555 1_555
Zn3_3 N7_7 1_555 1_555
N1_6 C1_6 1_555 1_555
N2_4 C2_7 1_555 1_555
N3_7 C8_6 1_555 1_555
N9_3 C15_7 1_555 1_555
N5_7 C2_7 1_555 1_555
C1_6 C9_6 1_555 1_555
C2_7 H1_7 1_555 1_555
N6_7 C4_7 1_555 1_555
C3_7 H2_7 1_555 1_555
C4_7 C12_7 1_555 1_555
C5_6 N1_6 1_555 1_555
C6_7 N5_7 1_555 1_555
C7_7 N5_7 1_555 1_555
H3_7 C7_7 1_555 1_555
C8_6 C10_6 1_555 1_555
N7_7 C21_7 1_555 1_555
C9_6 H4_6 1_555 1_555
C10_6 C9_6 1_555 1_555
H5_6 C10_6 1_555 1_555
C11_6 N1_6 1_555 1_555
C12_7 H6_7 1_555 1_555
C13_7 C6_7 1_555 1_555
H7_7 C13_7 1_555 1_555
C14_7 C3_7 1_555 1_555
H8_7 C14_7 1_555 1_555
C15_7 N3_7 1_555 1_555
H9_7 C15_7 1_555 1_555
C16_6 C1_6 1_555 1_555
H10_6 C16_6 1_555 1_555
C17_6 C5_6 1_555 1_555
H11_6 C17_6 1_555 1_555
C18_6 C8_6 1_555 1_555
H12_6 C18_6 1_555 1_555
C19_7 N2_4 1_555 1_555
H13_7 C19_7 1_555 1_555
C20_7 C11_6 1_555 1_555
H14_7 C20_7 1_555 1_555
C21_7 N6_7 1_555 1_555
H15_7 C21_7 1_555 1_555
C23_6 C4_7 1_555 1_555
H17_6 C23_6 1_555 1_555
C25_6 C11_6 1_555 1_555
H19_6 C25_6 1_555 1_555
C26_7 N7_7 1_555 1_555
H20_7 C26_7 1_555 1_555
C27_7 N6_7 1_555 1_555
H21_6 C27_7 1_555 1_555
Zn3_4 N2_4 1_555 1_555
N8_4 Zn3_3 1_555 1_555
C3_7 C5_6 1_555 1_555
C6_7 C14_7 1_555 1_555
C7_7 C19_7 1_555 1_555
C12_7 C20_7 1_555 1_555
C13_7 C17_6 1_555 1_555
C16_6 C18_6 1_555 1_555
C23_6 C25_6 1_555 1_555
C26_7 C27_7 1_555 1_555
N9_4 C15_8 1_555 1_555
C15_8 N3_8 1_555 1_555
H9_8 C15_8 1_555 1_555
C22_5 N9_4 1_555 1_555
H16_5 C22_5 1_555 1_555
C24_5 N3_8 1_555 1_555
H18_5 C24_5 1_555 1_555
C22_5 C24_5 1_555 1_555
N8_4 C2_8 1_555 1_555
N5_8 C2_8 1_555 1_555
C2_8 H1_8 1_555 1_555
N6_8 C4_8 1_555 1_555
C3_8 H2_8 1_555 1_555
C4_8 C12_8 1_555 1_555
C6_8 N5_8 1_555 1_555
C7_8 N5_8 1_555 1_555
H3_8 C7_8 1_555 1_555
N7_8 C21_8 1_555 1_555
C12_8 H6_8 1_555 1_555
C13_8 C6_8 1_555 1_555
H7_8 C13_8 1_555 1_555
C14_8 C3_8 1_555 1_555
H8_8 C14_8 1_555 1_555
C19_8 N8_4 1_555 1_555
H13_8 C19_8 1_555 1_555
H14_8 C20_8 1_555 1_555
C21_8 N6_8 1_555 1_555
H15_8 C21_8 1_555 1_555
C26_8 N7_8 1_555 1_555
H20_8 C26_8 1_555 1_555
C27_8 N6_8 1_555 1_555
C6_8 C14_8 1_555 1_555
C7_8 C19_8 1_555 1_555
C12_8 C20_8 1_555 1_555
C26_8 C27_8 1_555 1_555
O1_6 Zn3_4 1_555 1_555
H22_6 O1_6 1_555 1_555
H16_6 C22_6 1_555 1_555
H18_6 C24_6 1_555 1_555
C22_6 C24_6 1_555 1_555
N1_7 C1_7 1_555 1_555
C1_7 C9_7 1_555 1_555
C5_7 N1_7 1_555 1_555
C8_7 C10_7 1_555 1_555
C9_7 H4_7 1_555 1_555
C10_7 C9_7 1_555 1_555
H5_7 C10_7 1_555 1_555
C11_7 N1_7 1_555 1_555
C16_7 C1_7 1_555 1_555
H10_7 C16_7 1_555 1_555
C17_7 C5_7 1_555 1_555
H11_7 C17_7 1_555 1_555
C18_7 C8_7 1_555 1_555
H12_7 C18_7 1_555 1_555
H17_7 C23_7 1_555 1_555
C25_7 C11_7 1_555 1_555
H19_7 C25_7 1_555 1_555
C16_7 C18_7 1_555 1_555
C23_7 C25_7 1_555 1_555
H16_7 C22_7 1_555 1_555
H18_7 C24_7 1_555 1_555
C22_7 C24_7 1_555 1_555
H22_7 O1_7 1_555 1_555
H23_7 O1_7 1_555 1_555
H16_8 C22_8 1_555 1_555
H18_8 C24_8 1_555 1_555
C22_8 C24_8 1_555 1_555
H22_8 O1_8 1_555 1_555
H23_8 O1_8 1_555 1_555
N1_8 C1_8 1_555 1_555
C1_8 C9_8 1_555 1_555
C5_8 N1_8 1_555 1_555
C8_8 C10_8 1_555 1_555
C9_8 H4_8 1_555 1_555
C10_8 C9_8 1_555 1_555
H5_8 C10_8 1_555 1_555
C11_8 N1_8 1_555 1_555
C16_8 C1_8 1_555 1_555
H10_8 C16_8 1_555 1_555
C17_8 C5_8 1_555 1_555
H11_8 C17_8 1_555 1_555
C18_8 C8_8 1_555 1_555
H12_8 C18_8 1_555 1_555
H17_8 C23_8 1_555 1_555
C25_8 C11_8 1_555 1_555
H19_8 C25_8 1_555 1_555
C16_8 C18_8 1_555 1_555
C23_8 C25_8 1_555 1_555

#END
