
###############################################################################
#
# This file contains modified crystal structure data generated from the
# MOF subset of the Cambridge Structural Database (CSD) v543 
# hosted by the Cambridge Crystallographic Data Centre (CCDC).
#
# This work is licensed under the Creative Commons
# Attribution-NonCommercial-ShareAlike 4.0 International License.
# To view a copy of this license, visit
# http://creativecommons.org/licenses/by-nc-sa/4.0/
# or send a letter to
# Creative Commons, PO Box 1866, Mountain View, CA 94042, USA.
#
# CIF created using the CSD Python API on 29 September 2022
# The structure has been converted into the P1 space group
# The structure has a 3D framework
# The original CSD entry BOXFAW is in the cubic crystal system
# The framework has been calculated to contain at least 10.0% void space
# The void calculation uses a probe of radius 1.32A, grid spacing 0.4
# The framework is charged, counterions have been retained in the structure
# H atom positions have been added when not included in the experimental data
# Generated hydrogen atom positions removed from atoms on special positions
#
###############################################################################

data_BOXFAW
_chemical_formula_moiety         '(C2832 H3984 Cd144 O756 141+)n'
_symmetry_cell_setting           triclinic
_symmetry_space_group_name_H-M   'P 1'
_symmetry_Int_Tables_number      1
_space_group_name_Hall           'P 1'
loop_
_symmetry_equiv_pos_site_id
_symmetry_equiv_pos_as_xyz
1 x,y,z
_cell_length_a                   48.527(6)
_cell_length_b                   48.527(6)
_cell_length_c                   48.527(6)
_cell_angle_alpha                90
_cell_angle_beta                 90
_cell_angle_gamma                90
_cell_volume                     114275
loop_
_atom_site_label
_atom_site_type_symbol
_atom_site_fract_x
_atom_site_fract_y
_atom_site_fract_z
O1 O 0.0445(4) 0.2500 0.2500
O1_2 O 0.2500 0.0445(4) 0.2500
O1_3 O 0.2500 0.2500 0.0445(4)
O1_4 O 0.7500 0.5445(4) 0.2500
O1_5 O 0.7500 0.4555(4) 0.7500
O1_6 O 0.2500 0.5445(4) 0.7500
O1_7 O 0.5445(4) 0.7500 0.2500
O1_8 O 0.4555(4) 0.7500 0.7500
O1_9 O 0.5445(4) 0.2500 0.7500
O1_10 O 0.7500 0.7500 0.4555(4)
O1_11 O 0.7500 0.2500 0.5445(4)
O1_12 O 0.2500 0.7500 0.5445(4)
O1_13 O 0.0445(4) 0.7500 0.7500
O1_14 O 0.7500 0.0445(4) 0.7500
O1_15 O 0.7500 0.9555(4) 0.2500
O1_16 O 0.4555(4) 0.2500 0.2500
O1_17 O 0.7500 0.2500 0.9555(4)
O1_18 O 0.7500 0.7500 0.0445(4)
O1_19 O 0.2500 0.4555(4) 0.2500
O1_20 O 0.9555(4) 0.7500 0.2500
O1_21 O 0.2500 0.7500 0.9555(4)
O1_22 O 0.2500 0.9555(4) 0.7500
O1_23 O 0.9555(4) 0.2500 0.7500
O1_24 O 0.2500 0.2500 0.4555(4)
O1_25 O 0.9555(4) 0.7500 0.7500
O1_26 O 0.7500 0.9555(4) 0.7500
O1_27 O 0.7500 0.7500 0.9555(4)
O1_28 O 0.2500 0.4555(4) 0.7500
O1_29 O 0.2500 0.5445(4) 0.2500
O1_30 O 0.7500 0.4555(4) 0.2500
O1_31 O 0.4555(4) 0.2500 0.7500
O1_32 O 0.5445(4) 0.2500 0.2500
O1_33 O 0.4555(4) 0.7500 0.2500
O1_34 O 0.2500 0.2500 0.5445(4)
O1_35 O 0.2500 0.7500 0.4555(4)
O1_36 O 0.7500 0.2500 0.4555(4)
O1_37 O 0.9555(4) 0.2500 0.2500
O1_38 O 0.2500 0.9555(4) 0.2500
O1_39 O 0.2500 0.0445(4) 0.7500
O1_40 O 0.5445(4) 0.7500 0.7500
O1_41 O 0.2500 0.7500 0.0445(4)
O1_42 O 0.2500 0.2500 0.9555(4)
O1_43 O 0.7500 0.5445(4) 0.7500
O1_44 O 0.0445(4) 0.2500 0.7500
O1_45 O 0.7500 0.2500 0.0445(4)
O1_46 O 0.7500 0.0445(4) 0.2500
O1_47 O 0.0445(4) 0.7500 0.2500
O1_48 O 0.7500 0.7500 0.5445(4)
Cd1 Cd -0.0000 0.201728(5) 0.224881(5)
O3 O 0.02941(4) 0.23368(4) 0.20649(4)
O4 O -0.0000 0.2500 0.2500
O5 O -0.0000 0.17758(7) 0.18326(6)
C15 C 0.0000 0.1832(3) 0.15475(18)
H14 H -0.0000 0.1530(7) 0.1835(7)
Cd2 Cd 0.0000 0.275119(5) 0.201728(5)
Cd3 Cd -0.0000 0.224881(5) 0.298272(5)
Cd4 Cd -0.0000 0.298272(5) 0.275119(5)
Cd13 Cd 0.275119(5) 0.201728(5) 0.0000
Cd14 Cd 0.201728(5) 0.224881(5) 0.0000
Cd15 Cd 0.201728(5) -0.0000 0.275119(5)
Cd16 Cd 0.224881(5) -0.0000 0.201728(5)
O6 O 0.03360(4) 0.17055(4) 0.23896(4)
O10 O 0.03360(4) 0.26104(4) 0.17055(4)
O11 O 0.03360(4) 0.32945(4) 0.26104(4)
O14 O 0.03360(4) 0.23896(4) 0.32945(4)
O17 O 0.26104(4) 0.17055(4) 0.03360(4)
O18 O 0.17055(4) 0.03360(4) 0.26104(4)
O21 O 0.02941(4) 0.20649(4) 0.26632(4)
O26 O 0.02941(4) 0.29351(4) 0.23368(4)
O29 O 0.02941(4) 0.26632(4) 0.29351(4)
O32 O 0.23368(4) 0.20649(4) 0.02941(4)
O33 O 0.20649(4) 0.02941(4) 0.23368(4)
C16 C 0.04024(5) 0.23959(6) 0.18319(6)
C22 C 0.23959(6) 0.18319(6) 0.04024(5)
C23 C 0.18319(6) 0.04024(5) 0.23959(6)
C32 C 0.06230(5) 0.22124(6) 0.17179(6)
C33 C 0.22124(6) 0.17179(6) 0.06230(5)
C34 C 0.17179(6) 0.06230(5) 0.22124(6)
C43 C 0.07135(6) 0.19845(5) 0.18644(6)
C44 C 0.19845(5) 0.18644(6) 0.07135(6)
C45 C 0.18644(6) 0.07135(6) 0.19845(5)
H20 H 0.0630 0.1937 0.2035
H21 H 0.1937 0.2035 0.0630
H22 H 0.2035 0.0630 0.1937
C54 C 0.09264(5) 0.18262(6) 0.17592(6)
C55 C 0.18262(6) 0.17592(6) 0.09264(5)
C56 C 0.17592(6) 0.09264(5) 0.18262(6)
C65 C 0.10567(6) 0.18936(6) 0.15111(6)
C66 C 0.15111(6) 0.10567(6) 0.18936(6)
C67 C 0.18936(6) 0.15111(6) 0.10567(6)
C76 C 0.09573(6) 0.21179(6) 0.13605(6)
C77 C 0.13605(6) 0.09573(6) 0.21179(6)
C78 C 0.21179(6) 0.13605(6) 0.09573(6)
H31 H 0.1037 0.2164 0.1188
H32 H 0.1188 0.1037 0.2164
H33 H 0.2164 0.1188 0.1037
C87 C 0.07417(6) 0.22734(6) 0.14642(6)
C88 C 0.14642(6) 0.07417(6) 0.22734(6)
C89 C 0.22734(6) 0.14642(6) 0.07417(6)
H42 H 0.0673 0.2425 0.1360
H43 H 0.1360 0.0673 0.2425
H44 H 0.2425 0.1360 0.0673
C98 C 0.12822(6) 0.16911(6) 0.14650(6)
C99 C 0.14650(6) 0.12822(6) 0.16911(6)
C100 C 0.16911(6) 0.14650(6) 0.12822(6)
C109 C 0.12701(6) 0.14930(6) 0.16793(6)
C110 C 0.14930(6) 0.16793(6) 0.12701(6)
C111 C 0.16793(6) 0.12701(6) 0.14930(6)
C120 C 0.10416(6) 0.15665(6) 0.18853(6)
C121 C 0.15665(6) 0.18853(6) 0.10416(6)
C122 C 0.18853(6) 0.10416(6) 0.15665(6)
C131 C 0.11585(7) 0.16348(7) 0.21741(7)
C132 C 0.16348(7) 0.21741(7) 0.11585(7)
C133 C 0.21741(7) 0.11585(7) 0.16348(7)
H53 H 0.1225 0.1462 0.2260
H54 H 0.1462 0.2260 0.1225
H55 H 0.2260 0.1225 0.1462
H64 H 0.1007 0.1706 0.2290
H65 H 0.1706 0.2290 0.1007
H66 H 0.2290 0.1007 0.1706
C142 C 0.13903(9) 0.18418(8) 0.21773(8)
C143 C 0.18418(8) 0.21773(8) 0.13903(9)
C144 C 0.21773(8) 0.13903(9) 0.18418(8)
H75 H 0.1330 0.2011 0.2085
H76 H 0.2011 0.2085 0.1330
H77 H 0.2085 0.1330 0.2011
H86 H 0.1441 0.1883 0.2368
H87 H 0.1883 0.2368 0.1441
H88 H 0.2368 0.1441 0.1883
H97 H 0.1550 0.1765 0.2080
H98 H 0.1765 0.2080 0.1550
H99 H 0.2080 0.1550 0.1765
C153 C 0.07999(7) 0.13518(8) 0.18918(7)
C154 C 0.13518(8) 0.18918(7) 0.07999(7)
C155 C 0.18918(7) 0.07999(7) 0.13518(8)
H108 H 0.0651 0.1426 0.2011
H109 H 0.1426 0.2011 0.0651
H110 H 0.2011 0.0651 0.1426
H119 H 0.0868 0.1180 0.1979
H120 H 0.1180 0.1979 0.0868
H121 H 0.1979 0.0868 0.1180
C164 C 0.06771(9) 0.12789(9) 0.16142(9)
C165 C 0.12789(9) 0.16142(9) 0.06771(9)
C166 C 0.16142(9) 0.06771(9) 0.12789(9)
H130 H 0.0820 0.1200 0.1496
H131 H 0.1200 0.1496 0.0820
H132 H 0.1496 0.0820 0.1200
H141 H 0.0529 0.1144 0.1639
H142 H 0.1144 0.1639 0.0529
H143 H 0.1639 0.0529 0.1144
H152 H 0.0603 0.1445 0.1528
H153 H 0.1445 0.1528 0.0603
H154 H 0.1528 0.0603 0.1445
O36 O 0.0000 0.31674(6) 0.17758(7)
O37 O -0.0000 0.32242(7) 0.31674(6)
O38 O -0.0000 0.18326(6) 0.32242(7)
C170 C -0.0000 0.3168(3) 0.34525(18)
C171 C -0.0000 0.34525(18) 0.1832(3)
C172 C -0.0000 0.15475(18) 0.3168(3)
H158 H -0.0000 0.3470(7) 0.3165(7)
H159 H -0.0000 0.3165(7) 0.1530(7)
H160 H -0.0000 0.1835(7) 0.3470(7)
H164 H 0.0183231 0.350543 0.195026
H165 H -3.08149e-33 0.356681 0.163888
H167 H 0.0183231 0.149457 0.304974
H168 H -3.08149e-33 0.143319 0.336112
H170 H 0.0183231 0.304974 0.350543
H171 H -9.24446e-33 0.336112 0.356681
H176 H 0.0183231 0.195026 0.149457
H177 H -3.08149e-33 0.163888 0.143319
Cd13_2 Cd 0.275119(5) 0.201728(5) 1.0000
Cd14_2 Cd 0.201728(5) 0.224881(5) 1.0000
Cd15_2 Cd 0.201728(5) 1.0000 0.275119(5)
Cd16_2 Cd 0.224881(5) 1.0000 0.201728(5)
Cd1_2 Cd 1.0000 0.201728(5) 0.224881(5)
O2 O 0.96640(4) 0.17055(4) 0.23896(4)
O4_2 O 1.0000 0.2500 0.2500
C1 C 0.95976(5) 0.18319(6) 0.26041(6)
C2 C 0.93770(5) 0.17179(6) 0.27876(6)
C3 C 0.92865(6) 0.18644(6) 0.30155(5)
H1 H 0.9370 0.2035 0.3063
C4 C 0.90736(5) 0.17592(6) 0.31738(6)
C5 C 0.89433(6) 0.15111(6) 0.31064(6)
C6 C 0.90427(6) 0.13605(6) 0.28821(6)
H2 H 0.8963 0.1188 0.2836
C7 C 0.92583(6) 0.14642(6) 0.27266(6)
H3 H 0.9327 0.1360 0.2575
C8 C 0.87178(6) 0.14650(6) 0.33089(6)
C9 C 0.85070(6) 0.12701(6) 0.33207(6)
C10 C 0.89584(6) 0.18853(6) 0.34335(6)
C11 C 0.88415(7) 0.21741(7) 0.33652(7)
H4 H 0.8775 0.2260 0.3538
H5 H 0.8993 0.2290 0.3294
C12 C 0.86097(9) 0.21773(8) 0.31582(8)
H6 H 0.8670 0.2085 0.2989
H7 H 0.8559 0.2368 0.3117
H8 H 0.8450 0.2080 0.3235
C13 C 0.92001(7) 0.18918(7) 0.36482(8)
H9 H 0.9349 0.2011 0.3574
H10 H 0.9132 0.1979 0.3820
C14 C 0.93229(9) 0.16142(9) 0.37211(9)
H11 H 0.9180 0.1496 0.3800
H12 H 0.9471 0.1639 0.3856
H13 H 0.9397 0.1528 0.3555
O5_2 O 1.0000 0.17758(7) 0.18326(6)
C15_2 C 1.0000 0.1832(3) 0.15475(18)
H14_2 H 1.0000 0.1530(7) 0.1835(7)
Cd2_2 Cd 1.0000 0.275119(5) 0.201728(5)
Cd3_2 Cd 1.0000 0.224881(5) 0.298272(5)
Cd4_2 Cd 1.0000 0.298272(5) 0.275119(5)
Cd5 Cd 0.724881(5) -0.0000 0.298272(5)
Cd6 Cd 0.798272(5) -0.0000 0.275119(5)
Cd7 Cd 0.798272(5) 0.275119(5) 0.5000
Cd8 Cd 0.775119(5) 0.201728(5) 0.5000
Cd9 Cd 0.724881(5) 0.5000 0.201728(5)
Cd10 Cd 0.798272(5) 0.5000 0.224881(5)
Cd11 Cd 0.798272(5) 0.224881(5) 0.0000
Cd12 Cd 0.775119(5) 0.298272(5) 0.0000
Cd17 Cd 0.724881(5) 0.298272(5) 0.5000
Cd18 Cd 0.775119(5) 0.5000 0.298272(5)
O7 O 0.73896(4) 0.03360(4) 0.32945(4)
O8 O 0.82945(4) 0.26104(4) 0.46640(4)
O9 O 0.96640(4) 0.26104(4) 0.17055(4)
O12 O 0.96640(4) 0.32945(4) 0.26104(4)
O13 O 0.96640(4) 0.23896(4) 0.32945(4)
O15 O 0.73896(4) 0.46640(4) 0.17055(4)
O16 O 0.82945(4) 0.23896(4) 0.03360(4)
O19 O 0.73896(4) 0.32945(4) 0.46640(4)
O20 O 0.82945(4) 0.46640(4) 0.23896(4)
O22 O 0.97059(4) 0.23368(4) 0.20649(4)
O23 O 0.97059(4) 0.20649(4) 0.26632(4)
O24 O 0.76632(4) 0.02941(4) 0.29351(4)
O25 O 0.79351(4) 0.23368(4) 0.47059(4)
O27 O 0.97059(4) 0.29351(4) 0.23368(4)
O28 O 0.97059(4) 0.26632(4) 0.29351(4)
O30 O 0.76632(4) 0.47059(4) 0.20649(4)
O31 O 0.79351(4) 0.26632(4) 0.02941(4)
O34 O 0.76632(4) 0.29351(4) 0.47059(4)
O35 O 0.79351(4) 0.47059(4) 0.26632(4)
C17 C 0.76041(6) 0.04024(5) 0.31681(6)
C18 C 0.81681(6) 0.23959(6) 0.45976(5)
C19 C 0.95976(5) 0.31681(6) 0.23959(6)
C20 C 0.76041(6) 0.45976(5) 0.18319(6)
C21 C 0.81681(6) 0.26041(6) 0.04024(5)
C24 C 0.95976(5) 0.26041(6) 0.31681(6)
C25 C 0.76041(6) 0.31681(6) 0.45976(5)
C26 C 0.81681(6) 0.45976(5) 0.26041(6)
C27 C 0.77876(6) 0.06230(5) 0.32821(6)
C28 C 0.82821(6) 0.22124(6) 0.43770(5)
C29 C 0.93770(5) 0.32821(6) 0.22124(6)
C30 C 0.77876(6) 0.43770(5) 0.17179(6)
C31 C 0.82821(6) 0.27876(6) 0.06230(5)
C35 C 0.93770(5) 0.27876(6) 0.32821(6)
C36 C 0.77876(6) 0.32821(6) 0.43770(5)
C37 C 0.82821(6) 0.43770(5) 0.27876(6)
C38 C 0.80155(5) 0.07135(6) 0.31356(6)
C39 C 0.81356(6) 0.19845(5) 0.42865(6)
C40 C 0.92865(6) 0.31356(6) 0.19845(5)
C41 C 0.80155(5) 0.42865(6) 0.18644(6)
C42 C 0.81356(6) 0.30155(5) 0.07135(6)
C46 C 0.92865(6) 0.30155(5) 0.31356(6)
C47 C 0.80155(5) 0.31356(6) 0.42865(6)
C48 C 0.81356(6) 0.42865(6) 0.30155(5)
H15 H 0.8063 0.0630 0.2965
H16 H 0.7965 0.1937 0.4370
H17 H 0.9370 0.2965 0.1937
H18 H 0.8063 0.4370 0.2035
H19 H 0.7965 0.3063 0.0630
H23 H 0.9370 0.3063 0.2965
H24 H 0.8063 0.2965 0.4370
H25 H 0.7965 0.4370 0.3063
C49 C 0.81738(6) 0.09264(5) 0.32408(6)
C50 C 0.82408(6) 0.18262(6) 0.40736(5)
C51 C 0.90736(5) 0.32408(6) 0.18262(6)
C52 C 0.81738(6) 0.40736(5) 0.17592(6)
C53 C 0.82408(6) 0.31738(6) 0.09264(5)
C57 C 0.90736(5) 0.31738(6) 0.32408(6)
C58 C 0.81738(6) 0.32408(6) 0.40736(5)
C59 C 0.82408(6) 0.40736(5) 0.31738(6)
C60 C 0.81064(6) 0.10567(6) 0.34889(6)
C61 C 0.84889(6) 0.18936(6) 0.39433(6)
C62 C 0.89433(6) 0.34889(6) 0.18936(6)
C63 C 0.84889(6) 0.31064(6) 0.10567(6)
C64 C 0.81064(6) 0.39433(6) 0.15111(6)
C68 C 0.89433(6) 0.31064(6) 0.34889(6)
C69 C 0.84889(6) 0.39433(6) 0.31064(6)
C70 C 0.81064(6) 0.34889(6) 0.39433(6)
C71 C 0.78821(6) 0.09573(6) 0.36395(6)
C72 C 0.86395(6) 0.21179(6) 0.40427(6)
C73 C 0.90427(6) 0.36395(6) 0.21179(6)
C74 C 0.86395(6) 0.28821(6) 0.09573(6)
C75 C 0.78821(6) 0.40427(6) 0.13605(6)
C79 C 0.90427(6) 0.28821(6) 0.36395(6)
C80 C 0.86395(6) 0.40427(6) 0.28821(6)
C81 C 0.78821(6) 0.36395(6) 0.40427(6)
H26 H 0.7836 0.1037 0.3812
H27 H 0.8812 0.2164 0.3963
H28 H 0.8963 0.3812 0.2164
H29 H 0.8812 0.2836 0.1037
H30 H 0.7836 0.3963 0.1188
H34 H 0.8963 0.2836 0.3812
H35 H 0.8812 0.3963 0.2836
H36 H 0.7836 0.3812 0.3963
C82 C 0.77266(6) 0.07417(6) 0.35358(6)
C83 C 0.85358(6) 0.22734(6) 0.42583(6)
C84 C 0.92583(6) 0.35358(6) 0.22734(6)
C85 C 0.85358(6) 0.27266(6) 0.07417(6)
C86 C 0.77266(6) 0.42583(6) 0.14642(6)
C90 C 0.92583(6) 0.27266(6) 0.35358(6)
C91 C 0.85358(6) 0.42583(6) 0.27266(6)
C92 C 0.77266(6) 0.35358(6) 0.42583(6)
H37 H 0.7575 0.0673 0.3640
H38 H 0.8640 0.2425 0.4327
H39 H 0.9327 0.3640 0.2425
H40 H 0.8640 0.2575 0.0673
H41 H 0.7575 0.4327 0.1360
H45 H 0.9327 0.2575 0.3640
H46 H 0.8640 0.4327 0.2575
H47 H 0.7575 0.3640 0.4327
C93 C 0.83089(6) 0.12822(6) 0.35350(6)
C94 C 0.85350(6) 0.16911(6) 0.37178(6)
C95 C 0.87178(6) 0.35350(6) 0.16911(6)
C96 C 0.85350(6) 0.33089(6) 0.12822(6)
C97 C 0.83089(6) 0.37178(6) 0.14650(6)
C101 C 0.87178(6) 0.33089(6) 0.35350(6)
C102 C 0.85350(6) 0.37178(6) 0.33089(6)
C103 C 0.83089(6) 0.35350(6) 0.37178(6)
C104 C 0.87299(6) 0.16793(6) 0.35070(6)
C105 C 0.83207(6) 0.14930(6) 0.37299(6)
C106 C 0.87299(6) 0.33207(6) 0.14930(6)
C107 C 0.85070(6) 0.37299(6) 0.16793(6)
C108 C 0.83207(6) 0.35070(6) 0.12701(6)
C112 C 0.87299(6) 0.35070(6) 0.33207(6)
C113 C 0.85070(6) 0.33207(6) 0.37299(6)
C114 C 0.83207(6) 0.37299(6) 0.35070(6)
C115 C 0.84335(6) 0.10416(6) 0.31147(6)
C116 C 0.81147(6) 0.15665(6) 0.39584(6)
C117 C 0.89584(6) 0.31147(6) 0.15665(6)
C118 C 0.84335(6) 0.39584(6) 0.18853(6)
C119 C 0.81147(6) 0.34335(6) 0.10416(6)
C123 C 0.89584(6) 0.34335(6) 0.31147(6)
C124 C 0.84335(6) 0.31147(6) 0.39584(6)
C125 C 0.81147(6) 0.39584(6) 0.34335(6)
C126 C 0.83652(7) 0.11585(7) 0.28259(7)
C127 C 0.78259(7) 0.16348(7) 0.38415(7)
C128 C 0.88415(7) 0.28259(7) 0.16348(7)
C129 C 0.83652(7) 0.38415(7) 0.21741(7)
C130 C 0.78259(7) 0.33652(7) 0.11585(7)
C134 C 0.88415(7) 0.33652(7) 0.28259(7)
C135 C 0.83652(7) 0.28259(7) 0.38415(7)
C136 C 0.78259(7) 0.38415(7) 0.33652(7)
H48 H 0.8538 0.1225 0.2740
H49 H 0.7740 0.1462 0.3775
H50 H 0.8775 0.2740 0.1462
H51 H 0.8538 0.3775 0.2260
H52 H 0.7740 0.3538 0.1225
H56 H 0.8775 0.3538 0.2740
H57 H 0.8538 0.2740 0.3775
H58 H 0.7740 0.3775 0.3538
H59 H 0.8294 0.1007 0.2710
H60 H 0.7710 0.1706 0.3993
H61 H 0.8993 0.2710 0.1706
H62 H 0.8294 0.3993 0.2290
H63 H 0.7710 0.3294 0.1007
H67 H 0.8993 0.3294 0.2710
H68 H 0.8294 0.2710 0.3993
H69 H 0.7710 0.3993 0.3294
C137 C 0.81582(8) 0.13903(9) 0.28227(8)
C138 C 0.78227(8) 0.18418(8) 0.36097(9)
C139 C 0.86097(9) 0.28227(8) 0.18418(8)
C140 C 0.81582(8) 0.36097(9) 0.21773(8)
C141 C 0.78227(8) 0.31582(8) 0.13903(9)
C145 C 0.86097(9) 0.31582(8) 0.28227(8)
C146 C 0.81582(8) 0.28227(8) 0.36097(9)
C147 C 0.78227(8) 0.36097(9) 0.31582(8)
H70 H 0.7989 0.1330 0.2915
H71 H 0.7915 0.2011 0.3670
H72 H 0.8670 0.2915 0.2011
H73 H 0.7989 0.3670 0.2085
H74 H 0.7915 0.2989 0.1330
H78 H 0.8670 0.2989 0.2915
H79 H 0.7989 0.2915 0.3670
H80 H 0.7915 0.3670 0.2989
H81 H 0.8117 0.1441 0.2632
H82 H 0.7632 0.1883 0.3559
H83 H 0.8559 0.2632 0.1883
H84 H 0.8117 0.3559 0.2368
H85 H 0.7632 0.3117 0.1441
H89 H 0.8559 0.3117 0.2632
H90 H 0.8117 0.2632 0.3559
H91 H 0.7632 0.3559 0.3117
H92 H 0.8235 0.1550 0.2920
H93 H 0.7920 0.1765 0.3450
H94 H 0.8450 0.2920 0.1765
H95 H 0.8235 0.3450 0.2080
H96 H 0.7920 0.3235 0.1550
H100 H 0.8450 0.3235 0.2920
H101 H 0.8235 0.2920 0.3450
H102 H 0.7920 0.3450 0.3235
C148 C 0.86482(8) 0.07999(7) 0.31082(7)
C149 C 0.81082(7) 0.13518(8) 0.42001(7)
C150 C 0.92001(7) 0.31082(7) 0.13518(8)
C151 C 0.86482(8) 0.42001(7) 0.18918(7)
C152 C 0.81082(7) 0.36482(8) 0.07999(7)
C156 C 0.92001(7) 0.36482(8) 0.31082(7)
C157 C 0.86482(8) 0.31082(7) 0.42001(7)
C158 C 0.81082(7) 0.42001(7) 0.36482(8)
H103 H 0.8574 0.0651 0.2989
H104 H 0.7989 0.1426 0.4349
H105 H 0.9349 0.2989 0.1426
H106 H 0.8574 0.4349 0.2011
H107 H 0.7989 0.3574 0.0651
H111 H 0.9349 0.3574 0.2989
H112 H 0.8574 0.2989 0.4349
H113 H 0.7989 0.4349 0.3574
H114 H 0.8820 0.0868 0.3021
H115 H 0.8021 0.1180 0.4132
H116 H 0.9132 0.3021 0.1180
H117 H 0.8820 0.4132 0.1979
H118 H 0.8021 0.3820 0.0868
H122 H 0.9132 0.3820 0.3021
H123 H 0.8820 0.3021 0.4132
H124 H 0.8021 0.4132 0.3820
C159 C 0.87211(9) 0.06771(9) 0.33858(9)
C160 C 0.83858(9) 0.12789(9) 0.43229(9)
C161 C 0.93229(9) 0.33858(9) 0.12789(9)
C162 C 0.87211(9) 0.43229(9) 0.16142(9)
C163 C 0.83858(9) 0.37211(9) 0.06771(9)
C167 C 0.93229(9) 0.37211(9) 0.33858(9)
C168 C 0.87211(9) 0.33858(9) 0.43229(9)
C169 C 0.83858(9) 0.43229(9) 0.37211(9)
H125 H 0.8800 0.0820 0.3504
H126 H 0.8504 0.1200 0.4180
H127 H 0.9180 0.3504 0.1200
H128 H 0.8800 0.4180 0.1496
H129 H 0.8504 0.3800 0.0820
H133 H 0.9180 0.3800 0.3504
H134 H 0.8800 0.3504 0.4180
H135 H 0.8504 0.4180 0.3800
H136 H 0.8856 0.0529 0.3361
H137 H 0.8361 0.1144 0.4471
H138 H 0.9471 0.3361 0.1144
H139 H 0.8856 0.4471 0.1639
H140 H 0.8361 0.3856 0.0529
H144 H 0.9471 0.3856 0.3361
H145 H 0.8856 0.3361 0.4471
H146 H 0.8361 0.4471 0.3856
H147 H 0.8555 0.0603 0.3472
H148 H 0.8472 0.1445 0.4397
H149 H 0.9397 0.3472 0.1445
H150 H 0.8555 0.4397 0.1528
H151 H 0.8472 0.3555 0.0603
H155 H 0.9397 0.3555 0.3472
H156 H 0.8555 0.3472 0.4397
H157 H 0.8472 0.4397 0.3555
O36_2 O 1.0000 0.31674(6) 0.17758(7)
O37_2 O 1.0000 0.32242(7) 0.31674(6)
O38_2 O 1.0000 0.18326(6) 0.32242(7)
C170_2 C 1.0000 0.3168(3) 0.34525(18)
C171_2 C 1.0000 0.34525(18) 0.1832(3)
C172_2 C 1.0000 0.15475(18) 0.3168(3)
H158_2 H 1.0000 0.3470(7) 0.3165(7)
H159_2 H 1.0000 0.3165(7) 0.1530(7)
H160_2 H 1.0000 0.1835(7) 0.3470(7)
H165_2 H 1 0.356681 0.163888
H166 H 0.981677 0.350543 0.195026
H168_2 H 1 0.143319 0.336112
H169 H 0.981677 0.149457 0.304974
H171_2 H 1 0.336112 0.356681
H172 H 0.981677 0.304974 0.350543
H177_2 H 1 0.163888 0.143319
H178 H 0.981677 0.195026 0.149457
Cd11_2 Cd 0.798272(5) 0.224881(5) 1.0000
Cd12_2 Cd 0.775119(5) 0.298272(5) 1.0000
Cd5_2 Cd 0.724881(5) 1.0000 0.298272(5)
Cd6_2 Cd 0.798272(5) 1.0000 0.275119(5)
O4_3 O 0.2500 0.0000 0.2500
O5_3 O 0.18326(6) 0.0000 0.17758(7)
C15_3 C 0.15475(18) 0.0000 0.1832(3)
H14_3 H 0.1835(7) 0.0000 0.1530(7)
Cd3_3 Cd 0.298272(5) -0.0000 0.224881(5)
Cd4_3 Cd 0.275119(5) -0.0000 0.298272(5)
O6_2 O 0.23896(4) 0.03360(4) 0.17055(4)
O11_2 O 0.26104(4) 0.03360(4) 0.32945(4)
O14_2 O 0.32945(4) 0.03360(4) 0.23896(4)
O21_2 O 0.26632(4) 0.02941(4) 0.20649(4)
O26_2 O 0.23368(4) 0.02941(4) 0.29351(4)
O29_2 O 0.29351(4) 0.02941(4) 0.26632(4)
O36_3 O 0.17758(7) 0.0000 0.31674(6)
O37_3 O 0.31674(6) 0.0000 0.32242(7)
O38_3 O 0.32242(7) -0.0000 0.18326(6)
C170_3 C 0.34525(18) 0.0000 0.3168(3)
C171_3 C 0.1832(3) -0.0000 0.34525(18)
C172_3 C 0.3168(3) -0.0000 0.15475(18)
H158_3 H 0.3165(7) 0.0000 0.3470(7)
H159_3 H 0.1530(7) -0.0000 0.3165(7)
H160_3 H 0.3470(7) 0.0000 0.1835(7)
H164_2 H 0.195026 0.0183231 0.350543
H165_3 H 0.163888 0 0.356681
H167_2 H 0.304974 0.0183231 0.149457
H168_3 H 0.336112 -1.54074e-33 0.143319
H170_2 H 0.350543 0.0183231 0.304974
H171_3 H 0.356681 -3.08149e-33 0.336112
H176_2 H 0.149457 0.0183231 0.195026
H177_3 H 0.143319 0 0.163888
O2_2 O 0.23896(4) 0.96640(4) 0.17055(4)
O4_4 O 0.2500 1.0000 0.2500
C1_2 C 0.26041(6) 0.95976(5) 0.18319(6)
C2_2 C 0.27876(6) 0.93770(5) 0.17179(6)
C3_2 C 0.30155(5) 0.92865(6) 0.18644(6)
H1_2 H 0.3063 0.9370 0.2035
C4_2 C 0.31738(6) 0.90736(5) 0.17592(6)
C5_2 C 0.31064(6) 0.89433(6) 0.15111(6)
C6_2 C 0.28821(6) 0.90427(6) 0.13605(6)
H2_2 H 0.2836 0.8963 0.1188
C7_2 C 0.27266(6) 0.92583(6) 0.14642(6)
H3_2 H 0.2575 0.9327 0.1360
C8_2 C 0.33089(6) 0.87178(6) 0.14650(6)
C9_2 C 0.33207(6) 0.85070(6) 0.12701(6)
C10_2 C 0.34335(6) 0.89584(6) 0.18853(6)
C11_2 C 0.33652(7) 0.88415(7) 0.21741(7)
H4_2 H 0.3538 0.8775 0.2260
H5_2 H 0.3294 0.8993 0.2290
C12_2 C 0.31582(8) 0.86097(9) 0.21773(8)
H6_2 H 0.2989 0.8670 0.2085
H7_2 H 0.3117 0.8559 0.2368
H8_2 H 0.3235 0.8450 0.2080
C13_2 C 0.36482(8) 0.92001(7) 0.18918(7)
H9_2 H 0.3574 0.9349 0.2011
H10_2 H 0.3820 0.9132 0.1979
C14_2 C 0.37211(9) 0.93229(9) 0.16142(9)
H11_2 H 0.3800 0.9180 0.1496
H12_2 H 0.3856 0.9471 0.1639
H13_2 H 0.3555 0.9397 0.1528
O5_4 O 0.18326(6) 1.0000 0.17758(7)
C15_4 C 0.15475(18) 1.0000 0.1832(3)
H14_4 H 0.1835(7) 1.0000 0.1530(7)
Cd3_4 Cd 0.298272(5) 1.0000 0.224881(5)
Cd4_4 Cd 0.275119(5) 1.0000 0.298272(5)
Cd5_3 Cd 0.298272(5) 0.724881(5) -0.0000
Cd6_3 Cd 0.275119(5) 0.798272(5) -0.0000
Cd7_2 Cd 0.5000 0.798272(5) 0.275119(5)
Cd8_2 Cd 0.5000 0.775119(5) 0.201728(5)
Cd9_2 Cd 0.201728(5) 0.724881(5) 0.5000
Cd10_2 Cd 0.224881(5) 0.798272(5) 0.5000
Cd11_3 Cd -0.0000 0.798272(5) 0.224881(5)
Cd12_3 Cd -0.0000 0.775119(5) 0.298272(5)
Cd17_2 Cd 0.5000 0.724881(5) 0.298272(5)
Cd18_2 Cd 0.298272(5) 0.775119(5) 0.5000
O7_2 O 0.32945(4) 0.73896(4) 0.03360(4)
O8_2 O 0.46640(4) 0.82945(4) 0.26104(4)
O9_2 O 0.17055(4) 0.96640(4) 0.26104(4)
O12_2 O 0.26104(4) 0.96640(4) 0.32945(4)
O13_2 O 0.32945(4) 0.96640(4) 0.23896(4)
O15_2 O 0.17055(4) 0.73896(4) 0.46640(4)
O16_2 O 0.03360(4) 0.82945(4) 0.23896(4)
O19_2 O 0.46640(4) 0.73896(4) 0.32945(4)
O20_2 O 0.23896(4) 0.82945(4) 0.46640(4)
O22_2 O 0.20649(4) 0.97059(4) 0.23368(4)
O23_2 O 0.26632(4) 0.97059(4) 0.20649(4)
O24_2 O 0.29351(4) 0.76632(4) 0.02941(4)
O25_2 O 0.47059(4) 0.79351(4) 0.23368(4)
O27_2 O 0.23368(4) 0.97059(4) 0.29351(4)
O28_2 O 0.29351(4) 0.97059(4) 0.26632(4)
O30_2 O 0.20649(4) 0.76632(4) 0.47059(4)
O31_2 O 0.02941(4) 0.79351(4) 0.26632(4)
O34_2 O 0.47059(4) 0.76632(4) 0.29351(4)
O35_2 O 0.26632(4) 0.79351(4) 0.47059(4)
C17_2 C 0.31681(6) 0.76041(6) 0.04024(5)
C18_2 C 0.45976(5) 0.81681(6) 0.23959(6)
C19_2 C 0.23959(6) 0.95976(5) 0.31681(6)
C20_2 C 0.18319(6) 0.76041(6) 0.45976(5)
C21_2 C 0.04024(5) 0.81681(6) 0.26041(6)
C24_2 C 0.31681(6) 0.95976(5) 0.26041(6)
C25_2 C 0.45976(5) 0.76041(6) 0.31681(6)
C26_2 C 0.26041(6) 0.81681(6) 0.45976(5)
C27_2 C 0.32821(6) 0.77876(6) 0.06230(5)
C28_2 C 0.43770(5) 0.82821(6) 0.22124(6)
C29_2 C 0.22124(6) 0.93770(5) 0.32821(6)
C30_2 C 0.17179(6) 0.77876(6) 0.43770(5)
C31_2 C 0.06230(5) 0.82821(6) 0.27876(6)
C35_2 C 0.32821(6) 0.93770(5) 0.27876(6)
C36_2 C 0.43770(5) 0.77876(6) 0.32821(6)
C37_2 C 0.27876(6) 0.82821(6) 0.43770(5)
C38_2 C 0.31356(6) 0.80155(5) 0.07135(6)
C39_2 C 0.42865(6) 0.81356(6) 0.19845(5)
C40_2 C 0.19845(5) 0.92865(6) 0.31356(6)
C41_2 C 0.18644(6) 0.80155(5) 0.42865(6)
C42_2 C 0.07135(6) 0.81356(6) 0.30155(5)
C46_2 C 0.31356(6) 0.92865(6) 0.30155(5)
C47_2 C 0.42865(6) 0.80155(5) 0.31356(6)
C48_2 C 0.30155(5) 0.81356(6) 0.42865(6)
H15_2 H 0.2965 0.8063 0.0630
H16_2 H 0.4370 0.7965 0.1937
H17_2 H 0.1937 0.9370 0.2965
H18_2 H 0.2035 0.8063 0.4370
H19_2 H 0.0630 0.7965 0.3063
H23_2 H 0.2965 0.9370 0.3063
H24_2 H 0.4370 0.8063 0.2965
H25_2 H 0.3063 0.7965 0.4370
C49_2 C 0.32408(6) 0.81738(6) 0.09264(5)
C50_2 C 0.40736(5) 0.82408(6) 0.18262(6)
C51_2 C 0.18262(6) 0.90736(5) 0.32408(6)
C52_2 C 0.17592(6) 0.81738(6) 0.40736(5)
C53_2 C 0.09264(5) 0.82408(6) 0.31738(6)
C57_2 C 0.32408(6) 0.90736(5) 0.31738(6)
C58_2 C 0.40736(5) 0.81738(6) 0.32408(6)
C59_2 C 0.31738(6) 0.82408(6) 0.40736(5)
C60_2 C 0.34889(6) 0.81064(6) 0.10567(6)
C61_2 C 0.39433(6) 0.84889(6) 0.18936(6)
C62_2 C 0.18936(6) 0.89433(6) 0.34889(6)
C63_2 C 0.10567(6) 0.84889(6) 0.31064(6)
C64_2 C 0.15111(6) 0.81064(6) 0.39433(6)
C68_2 C 0.34889(6) 0.89433(6) 0.31064(6)
C69_2 C 0.31064(6) 0.84889(6) 0.39433(6)
C70_2 C 0.39433(6) 0.81064(6) 0.34889(6)
C71_2 C 0.36395(6) 0.78821(6) 0.09573(6)
C72_2 C 0.40427(6) 0.86395(6) 0.21179(6)
C73_2 C 0.21179(6) 0.90427(6) 0.36395(6)
C74_2 C 0.09573(6) 0.86395(6) 0.28821(6)
C75_2 C 0.13605(6) 0.78821(6) 0.40427(6)
C79_2 C 0.36395(6) 0.90427(6) 0.28821(6)
C80_2 C 0.28821(6) 0.86395(6) 0.40427(6)
C81_2 C 0.40427(6) 0.78821(6) 0.36395(6)
H26_2 H 0.3812 0.7836 0.1037
H27_2 H 0.3963 0.8812 0.2164
H28_2 H 0.2164 0.8963 0.3812
H29_2 H 0.1037 0.8812 0.2836
H30_2 H 0.1188 0.7836 0.3963
H34_2 H 0.3812 0.8963 0.2836
H35_2 H 0.2836 0.8812 0.3963
H36_2 H 0.3963 0.7836 0.3812
C82_2 C 0.35358(6) 0.77266(6) 0.07417(6)
C83_2 C 0.42583(6) 0.85358(6) 0.22734(6)
C84_2 C 0.22734(6) 0.92583(6) 0.35358(6)
C85_2 C 0.07417(6) 0.85358(6) 0.27266(6)
C86_2 C 0.14642(6) 0.77266(6) 0.42583(6)
C90_2 C 0.35358(6) 0.92583(6) 0.27266(6)
C91_2 C 0.27266(6) 0.85358(6) 0.42583(6)
C92_2 C 0.42583(6) 0.77266(6) 0.35358(6)
H37_2 H 0.3640 0.7575 0.0673
H38_2 H 0.4327 0.8640 0.2425
H39_2 H 0.2425 0.9327 0.3640
H40_2 H 0.0673 0.8640 0.2575
H41_2 H 0.1360 0.7575 0.4327
H45_2 H 0.3640 0.9327 0.2575
H46_2 H 0.2575 0.8640 0.4327
H47_2 H 0.4327 0.7575 0.3640
C93_2 C 0.35350(6) 0.83089(6) 0.12822(6)
C94_2 C 0.37178(6) 0.85350(6) 0.16911(6)
C95_2 C 0.16911(6) 0.87178(6) 0.35350(6)
C96_2 C 0.12822(6) 0.85350(6) 0.33089(6)
C97_2 C 0.14650(6) 0.83089(6) 0.37178(6)
C101_2 C 0.35350(6) 0.87178(6) 0.33089(6)
C102_2 C 0.33089(6) 0.85350(6) 0.37178(6)
C103_2 C 0.37178(6) 0.83089(6) 0.35350(6)
C104_2 C 0.35070(6) 0.87299(6) 0.16793(6)
C105_2 C 0.37299(6) 0.83207(6) 0.14930(6)
C106_2 C 0.14930(6) 0.87299(6) 0.33207(6)
C107_2 C 0.16793(6) 0.85070(6) 0.37299(6)
C108_2 C 0.12701(6) 0.83207(6) 0.35070(6)
C112_2 C 0.33207(6) 0.87299(6) 0.35070(6)
C113_2 C 0.37299(6) 0.85070(6) 0.33207(6)
C114_2 C 0.35070(6) 0.83207(6) 0.37299(6)
C115_2 C 0.31147(6) 0.84335(6) 0.10416(6)
C116_2 C 0.39584(6) 0.81147(6) 0.15665(6)
C117_2 C 0.15665(6) 0.89584(6) 0.31147(6)
C118_2 C 0.18853(6) 0.84335(6) 0.39584(6)
C119_2 C 0.10416(6) 0.81147(6) 0.34335(6)
C123_2 C 0.31147(6) 0.89584(6) 0.34335(6)
C124_2 C 0.39584(6) 0.84335(6) 0.31147(6)
C125_2 C 0.34335(6) 0.81147(6) 0.39584(6)
C126_2 C 0.28259(7) 0.83652(7) 0.11585(7)
C127_2 C 0.38415(7) 0.78259(7) 0.16348(7)
C128_2 C 0.16348(7) 0.88415(7) 0.28259(7)
C129_2 C 0.21741(7) 0.83652(7) 0.38415(7)
C130_2 C 0.11585(7) 0.78259(7) 0.33652(7)
C134_2 C 0.28259(7) 0.88415(7) 0.33652(7)
C135_2 C 0.38415(7) 0.83652(7) 0.28259(7)
C136_2 C 0.33652(7) 0.78259(7) 0.38415(7)
H48_2 H 0.2740 0.8538 0.1225
H49_2 H 0.3775 0.7740 0.1462
H50_2 H 0.1462 0.8775 0.2740
H51_2 H 0.2260 0.8538 0.3775
H52_2 H 0.1225 0.7740 0.3538
H56_2 H 0.2740 0.8775 0.3538
H57_2 H 0.3775 0.8538 0.2740
H58_2 H 0.3538 0.7740 0.3775
H59_2 H 0.2710 0.8294 0.1007
H60_2 H 0.3993 0.7710 0.1706
H61_2 H 0.1706 0.8993 0.2710
H62_2 H 0.2290 0.8294 0.3993
H63_2 H 0.1007 0.7710 0.3294
H67_2 H 0.2710 0.8993 0.3294
H68_2 H 0.3993 0.8294 0.2710
H69_2 H 0.3294 0.7710 0.3993
C137_2 C 0.28227(8) 0.81582(8) 0.13903(9)
C138_2 C 0.36097(9) 0.78227(8) 0.18418(8)
C139_2 C 0.18418(8) 0.86097(9) 0.28227(8)
C140_2 C 0.21773(8) 0.81582(8) 0.36097(9)
C141_2 C 0.13903(9) 0.78227(8) 0.31582(8)
C145_2 C 0.28227(8) 0.86097(9) 0.31582(8)
C146_2 C 0.36097(9) 0.81582(8) 0.28227(8)
C147_2 C 0.31582(8) 0.78227(8) 0.36097(9)
H70_2 H 0.2915 0.7989 0.1330
H71_2 H 0.3670 0.7915 0.2011
H72_2 H 0.2011 0.8670 0.2915
H73_2 H 0.2085 0.7989 0.3670
H74_2 H 0.1330 0.7915 0.2989
H78_2 H 0.2915 0.8670 0.2989
H79_2 H 0.3670 0.7989 0.2915
H80_2 H 0.2989 0.7915 0.3670
H81_2 H 0.2632 0.8117 0.1441
H82_2 H 0.3559 0.7632 0.1883
H83_2 H 0.1883 0.8559 0.2632
H84_2 H 0.2368 0.8117 0.3559
H85_2 H 0.1441 0.7632 0.3117
H89_2 H 0.2632 0.8559 0.3117
H90_2 H 0.3559 0.8117 0.2632
H91_2 H 0.3117 0.7632 0.3559
H92_2 H 0.2920 0.8235 0.1550
H93_2 H 0.3450 0.7920 0.1765
H94_2 H 0.1765 0.8450 0.2920
H95_2 H 0.2080 0.8235 0.3450
H96_2 H 0.1550 0.7920 0.3235
H100_2 H 0.2920 0.8450 0.3235
H101_2 H 0.3450 0.8235 0.2920
H102_2 H 0.3235 0.7920 0.3450
C148_2 C 0.31082(7) 0.86482(8) 0.07999(7)
C149_2 C 0.42001(7) 0.81082(7) 0.13518(8)
C150_2 C 0.13518(8) 0.92001(7) 0.31082(7)
C151_2 C 0.18918(7) 0.86482(8) 0.42001(7)
C152_2 C 0.07999(7) 0.81082(7) 0.36482(8)
C156_2 C 0.31082(7) 0.92001(7) 0.36482(8)
C157_2 C 0.42001(7) 0.86482(8) 0.31082(7)
C158_2 C 0.36482(8) 0.81082(7) 0.42001(7)
H103_2 H 0.2989 0.8574 0.0651
H104_2 H 0.4349 0.7989 0.1426
H105_2 H 0.1426 0.9349 0.2989
H106_2 H 0.2011 0.8574 0.4349
H107_2 H 0.0651 0.7989 0.3574
H111_2 H 0.2989 0.9349 0.3574
H112_2 H 0.4349 0.8574 0.2989
H113_2 H 0.3574 0.7989 0.4349
H114_2 H 0.3021 0.8820 0.0868
H115_2 H 0.4132 0.8021 0.1180
H116_2 H 0.1180 0.9132 0.3021
H117_2 H 0.1979 0.8820 0.4132
H118_2 H 0.0868 0.8021 0.3820
H122_2 H 0.3021 0.9132 0.3820
H123_2 H 0.4132 0.8820 0.3021
H124_2 H 0.3820 0.8021 0.4132
C159_2 C 0.33858(9) 0.87211(9) 0.06771(9)
C160_2 C 0.43229(9) 0.83858(9) 0.12789(9)
C161_2 C 0.12789(9) 0.93229(9) 0.33858(9)
C162_2 C 0.16142(9) 0.87211(9) 0.43229(9)
C163_2 C 0.06771(9) 0.83858(9) 0.37211(9)
C167_2 C 0.33858(9) 0.93229(9) 0.37211(9)
C168_2 C 0.43229(9) 0.87211(9) 0.33858(9)
C169_2 C 0.37211(9) 0.83858(9) 0.43229(9)
H125_2 H 0.3504 0.8800 0.0820
H126_2 H 0.4180 0.8504 0.1200
H127_2 H 0.1200 0.9180 0.3504
H128_2 H 0.1496 0.8800 0.4180
H129_2 H 0.0820 0.8504 0.3800
H133_2 H 0.3504 0.9180 0.3800
H134_2 H 0.4180 0.8800 0.3504
H135_2 H 0.3800 0.8504 0.4180
H136_2 H 0.3361 0.8856 0.0529
H137_2 H 0.4471 0.8361 0.1144
H138_2 H 0.1144 0.9471 0.3361
H139_2 H 0.1639 0.8856 0.4471
H140_2 H 0.0529 0.8361 0.3856
H144_2 H 0.3361 0.9471 0.3856
H145_2 H 0.4471 0.8856 0.3361
H146_2 H 0.3856 0.8361 0.4471
H147_2 H 0.3472 0.8555 0.0603
H148_2 H 0.4397 0.8472 0.1445
H149_2 H 0.1445 0.9397 0.3472
H150_2 H 0.1528 0.8555 0.4397
H151_2 H 0.0603 0.8472 0.3555
H155_2 H 0.3472 0.9397 0.3555
H156_2 H 0.4397 0.8555 0.3472
H157_2 H 0.3555 0.8472 0.4397
O36_4 O 0.17758(7) 1.0000 0.31674(6)
O37_4 O 0.31674(6) 1.0000 0.32242(7)
O38_4 O 0.32242(7) 1.0000 0.18326(6)
C170_4 C 0.34525(18) 1.0000 0.3168(3)
C171_4 C 0.1832(3) 1.0000 0.34525(18)
C172_4 C 0.3168(3) 1.0000 0.15475(18)
H158_4 H 0.3165(7) 1.0000 0.3470(7)
H159_4 H 0.1530(7) 1.0000 0.3165(7)
H160_4 H 0.3470(7) 1.0000 0.1835(7)
H165_4 H 0.163888 1 0.356681
H166_2 H 0.195026 0.981677 0.350543
H168_4 H 0.336112 1 0.143319
H169_2 H 0.304974 0.981677 0.149457
H171_4 H 0.356681 1 0.336112
H172_2 H 0.350543 0.981677 0.304974
H177_4 H 0.143319 1 0.163888
H178_2 H 0.149457 0.981677 0.195026
Cd5_4 Cd 0.298272(5) 0.724881(5) 1.0000
Cd6_4 Cd 0.275119(5) 0.798272(5) 1.0000
Cd11_4 Cd 1.0000 0.798272(5) 0.224881(5)
Cd12_4 Cd 1.0000 0.775119(5) 0.298272(5)
O4_5 O 0.2500 0.2500 0.0000
O5_5 O 0.17758(7) 0.18326(6) 0.0000
C15_5 C 0.1832(3) 0.15475(18) 0.0000
H14_5 H 0.1530(7) 0.1835(7) 0.0000
Cd3_5 Cd 0.224881(5) 0.298272(5) 0.0000
Cd4_5 Cd 0.298272(5) 0.275119(5) 0.0000
O6_3 O 0.17055(4) 0.23896(4) 0.03360(4)
O11_3 O 0.32945(4) 0.26104(4) 0.03360(4)
O14_3 O 0.23896(4) 0.32945(4) 0.03360(4)
O21_3 O 0.20649(4) 0.26632(4) 0.02941(4)
O26_3 O 0.29351(4) 0.23368(4) 0.02941(4)
O29_3 O 0.26632(4) 0.29351(4) 0.02941(4)
O36_5 O 0.31674(6) 0.17758(7) 0.0000
O37_5 O 0.32242(7) 0.31674(6) 0.0000
O38_5 O 0.18326(6) 0.32242(7) 0.0000
C170_5 C 0.3168(3) 0.34525(18) 0.0000
C171_5 C 0.34525(18) 0.1832(3) 0.0000
C172_5 C 0.15475(18) 0.3168(3) 0.0000
H158_5 H 0.3470(7) 0.3165(7) 0.0000
H159_5 H 0.3165(7) 0.1530(7) 0.0000
H160_5 H 0.1835(7) 0.3470(7) 0.0000
H164_3 H 0.350543 0.195026 0.0183231
H165_5 H 0.356681 0.163888 0
H167_3 H 0.149457 0.304974 0.0183231
H168_5 H 0.143319 0.336112 0
H170_3 H 0.304974 0.350543 0.0183231
H171_5 H 0.336112 0.356681 0
H176_3 H 0.195026 0.149457 0.0183231
H177_5 H 0.163888 0.143319 0
O2_3 O 0.17055(4) 0.23896(4) 0.96640(4)
O4_6 O 0.2500 0.2500 1.0000
C1_3 C 0.18319(6) 0.26041(6) 0.95976(5)
C2_3 C 0.17179(6) 0.27876(6) 0.93770(5)
C3_3 C 0.18644(6) 0.30155(5) 0.92865(6)
H1_3 H 0.2035 0.3063 0.9370
C4_3 C 0.17592(6) 0.31738(6) 0.90736(5)
C5_3 C 0.15111(6) 0.31064(6) 0.89433(6)
C6_3 C 0.13605(6) 0.28821(6) 0.90427(6)
H2_3 H 0.1188 0.2836 0.8963
C7_3 C 0.14642(6) 0.27266(6) 0.92583(6)
H3_3 H 0.1360 0.2575 0.9327
C8_3 C 0.14650(6) 0.33089(6) 0.87178(6)
C9_3 C 0.12701(6) 0.33207(6) 0.85070(6)
C10_3 C 0.18853(6) 0.34335(6) 0.89584(6)
C11_3 C 0.21741(7) 0.33652(7) 0.88415(7)
H4_3 H 0.2260 0.3538 0.8775
H5_3 H 0.2290 0.3294 0.8993
C12_3 C 0.21773(8) 0.31582(8) 0.86097(9)
H6_3 H 0.2085 0.2989 0.8670
H7_3 H 0.2368 0.3117 0.8559
H8_3 H 0.2080 0.3235 0.8450
C13_3 C 0.18918(7) 0.36482(8) 0.92001(7)
H9_3 H 0.2011 0.3574 0.9349
H10_3 H 0.1979 0.3820 0.9132
C14_3 C 0.16142(9) 0.37211(9) 0.93229(9)
H11_3 H 0.1496 0.3800 0.9180
H12_3 H 0.1639 0.3856 0.9471
H13_3 H 0.1528 0.3555 0.9397
O5_6 O 0.17758(7) 0.18326(6) 1.0000
C15_6 C 0.1832(3) 0.15475(18) 1.0000
H14_6 H 0.1530(7) 0.1835(7) 1.0000
Cd3_6 Cd 0.224881(5) 0.298272(5) 1.0000
Cd4_6 Cd 0.298272(5) 0.275119(5) 1.0000
Cd5_5 Cd -0.0000 0.298272(5) 0.724881(5)
Cd6_5 Cd -0.0000 0.275119(5) 0.798272(5)
Cd7_3 Cd 0.275119(5) 0.5000 0.798272(5)
Cd8_3 Cd 0.201728(5) 0.5000 0.775119(5)
Cd9_3 Cd 0.5000 0.201728(5) 0.724881(5)
Cd10_3 Cd 0.5000 0.224881(5) 0.798272(5)
Cd11_5 Cd 0.224881(5) -0.0000 0.798272(5)
Cd12_5 Cd 0.298272(5) -0.0000 0.775119(5)
Cd17_3 Cd 0.298272(5) 0.5000 0.724881(5)
Cd18_3 Cd 0.5000 0.298272(5) 0.775119(5)
O7_3 O 0.03360(4) 0.32945(4) 0.73896(4)
O8_3 O 0.26104(4) 0.46640(4) 0.82945(4)
O9_3 O 0.26104(4) 0.17055(4) 0.96640(4)
O12_3 O 0.32945(4) 0.26104(4) 0.96640(4)
O13_3 O 0.23896(4) 0.32945(4) 0.96640(4)
O15_3 O 0.46640(4) 0.17055(4) 0.73896(4)
O16_3 O 0.23896(4) 0.03360(4) 0.82945(4)
O19_3 O 0.32945(4) 0.46640(4) 0.73896(4)
O20_3 O 0.46640(4) 0.23896(4) 0.82945(4)
O22_3 O 0.23368(4) 0.20649(4) 0.97059(4)
O23_3 O 0.20649(4) 0.26632(4) 0.97059(4)
O24_3 O 0.02941(4) 0.29351(4) 0.76632(4)
O25_3 O 0.23368(4) 0.47059(4) 0.79351(4)
O27_3 O 0.29351(4) 0.23368(4) 0.97059(4)
O28_3 O 0.26632(4) 0.29351(4) 0.97059(4)
O30_3 O 0.47059(4) 0.20649(4) 0.76632(4)
O31_3 O 0.26632(4) 0.02941(4) 0.79351(4)
O34_3 O 0.29351(4) 0.47059(4) 0.76632(4)
O35_3 O 0.47059(4) 0.26632(4) 0.79351(4)
C17_3 C 0.04024(5) 0.31681(6) 0.76041(6)
C18_3 C 0.23959(6) 0.45976(5) 0.81681(6)
C19_3 C 0.31681(6) 0.23959(6) 0.95976(5)
C20_3 C 0.45976(5) 0.18319(6) 0.76041(6)
C21_3 C 0.26041(6) 0.04024(5) 0.81681(6)
C24_3 C 0.26041(6) 0.31681(6) 0.95976(5)
C25_3 C 0.31681(6) 0.45976(5) 0.76041(6)
C26_3 C 0.45976(5) 0.26041(6) 0.81681(6)
C27_3 C 0.06230(5) 0.32821(6) 0.77876(6)
C28_3 C 0.22124(6) 0.43770(5) 0.82821(6)
C29_3 C 0.32821(6) 0.22124(6) 0.93770(5)
C30_3 C 0.43770(5) 0.17179(6) 0.77876(6)
C31_3 C 0.27876(6) 0.06230(5) 0.82821(6)
C35_3 C 0.27876(6) 0.32821(6) 0.93770(5)
C36_3 C 0.32821(6) 0.43770(5) 0.77876(6)
C37_3 C 0.43770(5) 0.27876(6) 0.82821(6)
C38_3 C 0.07135(6) 0.31356(6) 0.80155(5)
C39_3 C 0.19845(5) 0.42865(6) 0.81356(6)
C40_3 C 0.31356(6) 0.19845(5) 0.92865(6)
C41_3 C 0.42865(6) 0.18644(6) 0.80155(5)
C42_3 C 0.30155(5) 0.07135(6) 0.81356(6)
C46_3 C 0.30155(5) 0.31356(6) 0.92865(6)
C47_3 C 0.31356(6) 0.42865(6) 0.80155(5)
C48_3 C 0.42865(6) 0.30155(5) 0.81356(6)
H15_3 H 0.0630 0.2965 0.8063
H16_3 H 0.1937 0.4370 0.7965
H17_3 H 0.2965 0.1937 0.9370
H18_3 H 0.4370 0.2035 0.8063
H19_3 H 0.3063 0.0630 0.7965
H23_3 H 0.3063 0.2965 0.9370
H24_3 H 0.2965 0.4370 0.8063
H25_3 H 0.4370 0.3063 0.7965
C49_3 C 0.09264(5) 0.32408(6) 0.81738(6)
C50_3 C 0.18262(6) 0.40736(5) 0.82408(6)
C51_3 C 0.32408(6) 0.18262(6) 0.90736(5)
C52_3 C 0.40736(5) 0.17592(6) 0.81738(6)
C53_3 C 0.31738(6) 0.09264(5) 0.82408(6)
C57_3 C 0.31738(6) 0.32408(6) 0.90736(5)
C58_3 C 0.32408(6) 0.40736(5) 0.81738(6)
C59_3 C 0.40736(5) 0.31738(6) 0.82408(6)
C60_3 C 0.10567(6) 0.34889(6) 0.81064(6)
C61_3 C 0.18936(6) 0.39433(6) 0.84889(6)
C62_3 C 0.34889(6) 0.18936(6) 0.89433(6)
C63_3 C 0.31064(6) 0.10567(6) 0.84889(6)
C64_3 C 0.39433(6) 0.15111(6) 0.81064(6)
C68_3 C 0.31064(6) 0.34889(6) 0.89433(6)
C69_3 C 0.39433(6) 0.31064(6) 0.84889(6)
C70_3 C 0.34889(6) 0.39433(6) 0.81064(6)
C71_3 C 0.09573(6) 0.36395(6) 0.78821(6)
C72_3 C 0.21179(6) 0.40427(6) 0.86395(6)
C73_3 C 0.36395(6) 0.21179(6) 0.90427(6)
C74_3 C 0.28821(6) 0.09573(6) 0.86395(6)
C75_3 C 0.40427(6) 0.13605(6) 0.78821(6)
C79_3 C 0.28821(6) 0.36395(6) 0.90427(6)
C80_3 C 0.40427(6) 0.28821(6) 0.86395(6)
C81_3 C 0.36395(6) 0.40427(6) 0.78821(6)
H26_3 H 0.1037 0.3812 0.7836
H27_3 H 0.2164 0.3963 0.8812
H28_3 H 0.3812 0.2164 0.8963
H29_3 H 0.2836 0.1037 0.8812
H30_3 H 0.3963 0.1188 0.7836
H34_3 H 0.2836 0.3812 0.8963
H35_3 H 0.3963 0.2836 0.8812
H36_3 H 0.3812 0.3963 0.7836
C82_3 C 0.07417(6) 0.35358(6) 0.77266(6)
C83_3 C 0.22734(6) 0.42583(6) 0.85358(6)
C84_3 C 0.35358(6) 0.22734(6) 0.92583(6)
C85_3 C 0.27266(6) 0.07417(6) 0.85358(6)
C86_3 C 0.42583(6) 0.14642(6) 0.77266(6)
C90_3 C 0.27266(6) 0.35358(6) 0.92583(6)
C91_3 C 0.42583(6) 0.27266(6) 0.85358(6)
C92_3 C 0.35358(6) 0.42583(6) 0.77266(6)
H37_3 H 0.0673 0.3640 0.7575
H38_3 H 0.2425 0.4327 0.8640
H39_3 H 0.3640 0.2425 0.9327
H40_3 H 0.2575 0.0673 0.8640
H41_3 H 0.4327 0.1360 0.7575
H45_3 H 0.2575 0.3640 0.9327
H46_3 H 0.4327 0.2575 0.8640
H47_3 H 0.3640 0.4327 0.7575
C93_3 C 0.12822(6) 0.35350(6) 0.83089(6)
C94_3 C 0.16911(6) 0.37178(6) 0.85350(6)
C95_3 C 0.35350(6) 0.16911(6) 0.87178(6)
C96_3 C 0.33089(6) 0.12822(6) 0.85350(6)
C97_3 C 0.37178(6) 0.14650(6) 0.83089(6)
C101_3 C 0.33089(6) 0.35350(6) 0.87178(6)
C102_3 C 0.37178(6) 0.33089(6) 0.85350(6)
C103_3 C 0.35350(6) 0.37178(6) 0.83089(6)
C104_3 C 0.16793(6) 0.35070(6) 0.87299(6)
C105_3 C 0.14930(6) 0.37299(6) 0.83207(6)
C106_3 C 0.33207(6) 0.14930(6) 0.87299(6)
C107_3 C 0.37299(6) 0.16793(6) 0.85070(6)
C108_3 C 0.35070(6) 0.12701(6) 0.83207(6)
C112_3 C 0.35070(6) 0.33207(6) 0.87299(6)
C113_3 C 0.33207(6) 0.37299(6) 0.85070(6)
C114_3 C 0.37299(6) 0.35070(6) 0.83207(6)
C115_3 C 0.10416(6) 0.31147(6) 0.84335(6)
C116_3 C 0.15665(6) 0.39584(6) 0.81147(6)
C117_3 C 0.31147(6) 0.15665(6) 0.89584(6)
C118_3 C 0.39584(6) 0.18853(6) 0.84335(6)
C119_3 C 0.34335(6) 0.10416(6) 0.81147(6)
C123_3 C 0.34335(6) 0.31147(6) 0.89584(6)
C124_3 C 0.31147(6) 0.39584(6) 0.84335(6)
C125_3 C 0.39584(6) 0.34335(6) 0.81147(6)
C126_3 C 0.11585(7) 0.28259(7) 0.83652(7)
C127_3 C 0.16348(7) 0.38415(7) 0.78259(7)
C128_3 C 0.28259(7) 0.16348(7) 0.88415(7)
C129_3 C 0.38415(7) 0.21741(7) 0.83652(7)
C130_3 C 0.33652(7) 0.11585(7) 0.78259(7)
C134_3 C 0.33652(7) 0.28259(7) 0.88415(7)
C135_3 C 0.28259(7) 0.38415(7) 0.83652(7)
C136_3 C 0.38415(7) 0.33652(7) 0.78259(7)
H48_3 H 0.1225 0.2740 0.8538
H49_3 H 0.1462 0.3775 0.7740
H50_3 H 0.2740 0.1462 0.8775
H51_3 H 0.3775 0.2260 0.8538
H52_3 H 0.3538 0.1225 0.7740
H56_3 H 0.3538 0.2740 0.8775
H57_3 H 0.2740 0.3775 0.8538
H58_3 H 0.3775 0.3538 0.7740
H59_3 H 0.1007 0.2710 0.8294
H60_3 H 0.1706 0.3993 0.7710
H61_3 H 0.2710 0.1706 0.8993
H62_3 H 0.3993 0.2290 0.8294
H63_3 H 0.3294 0.1007 0.7710
H67_3 H 0.3294 0.2710 0.8993
H68_3 H 0.2710 0.3993 0.8294
H69_3 H 0.3993 0.3294 0.7710
C137_3 C 0.13903(9) 0.28227(8) 0.81582(8)
C138_3 C 0.18418(8) 0.36097(9) 0.78227(8)
C139_3 C 0.28227(8) 0.18418(8) 0.86097(9)
C140_3 C 0.36097(9) 0.21773(8) 0.81582(8)
C141_3 C 0.31582(8) 0.13903(9) 0.78227(8)
C145_3 C 0.31582(8) 0.28227(8) 0.86097(9)
C146_3 C 0.28227(8) 0.36097(9) 0.81582(8)
C147_3 C 0.36097(9) 0.31582(8) 0.78227(8)
H70_3 H 0.1330 0.2915 0.7989
H71_3 H 0.2011 0.3670 0.7915
H72_3 H 0.2915 0.2011 0.8670
H73_3 H 0.3670 0.2085 0.7989
H74_3 H 0.2989 0.1330 0.7915
H78_3 H 0.2989 0.2915 0.8670
H79_3 H 0.2915 0.3670 0.7989
H80_3 H 0.3670 0.2989 0.7915
H81_3 H 0.1441 0.2632 0.8117
H82_3 H 0.1883 0.3559 0.7632
H83_3 H 0.2632 0.1883 0.8559
H84_3 H 0.3559 0.2368 0.8117
H85_3 H 0.3117 0.1441 0.7632
H89_3 H 0.3117 0.2632 0.8559
H90_3 H 0.2632 0.3559 0.8117
H91_3 H 0.3559 0.3117 0.7632
H92_3 H 0.1550 0.2920 0.8235
H93_3 H 0.1765 0.3450 0.7920
H94_3 H 0.2920 0.1765 0.8450
H95_3 H 0.3450 0.2080 0.8235
H96_3 H 0.3235 0.1550 0.7920
H100_3 H 0.3235 0.2920 0.8450
H101_3 H 0.2920 0.3450 0.8235
H102_3 H 0.3450 0.3235 0.7920
C148_3 C 0.07999(7) 0.31082(7) 0.86482(8)
C149_3 C 0.13518(8) 0.42001(7) 0.81082(7)
C150_3 C 0.31082(7) 0.13518(8) 0.92001(7)
C151_3 C 0.42001(7) 0.18918(7) 0.86482(8)
C152_3 C 0.36482(8) 0.07999(7) 0.81082(7)
C156_3 C 0.36482(8) 0.31082(7) 0.92001(7)
C157_3 C 0.31082(7) 0.42001(7) 0.86482(8)
C158_3 C 0.42001(7) 0.36482(8) 0.81082(7)
H103_3 H 0.0651 0.2989 0.8574
H104_3 H 0.1426 0.4349 0.7989
H105_3 H 0.2989 0.1426 0.9349
H106_3 H 0.4349 0.2011 0.8574
H107_3 H 0.3574 0.0651 0.7989
H111_3 H 0.3574 0.2989 0.9349
H112_3 H 0.2989 0.4349 0.8574
H113_3 H 0.4349 0.3574 0.7989
H114_3 H 0.0868 0.3021 0.8820
H115_3 H 0.1180 0.4132 0.8021
H116_3 H 0.3021 0.1180 0.9132
H117_3 H 0.4132 0.1979 0.8820
H118_3 H 0.3820 0.0868 0.8021
H122_3 H 0.3820 0.3021 0.9132
H123_3 H 0.3021 0.4132 0.8820
H124_3 H 0.4132 0.3820 0.8021
C159_3 C 0.06771(9) 0.33858(9) 0.87211(9)
C160_3 C 0.12789(9) 0.43229(9) 0.83858(9)
C161_3 C 0.33858(9) 0.12789(9) 0.93229(9)
C162_3 C 0.43229(9) 0.16142(9) 0.87211(9)
C163_3 C 0.37211(9) 0.06771(9) 0.83858(9)
C167_3 C 0.37211(9) 0.33858(9) 0.93229(9)
C168_3 C 0.33858(9) 0.43229(9) 0.87211(9)
C169_3 C 0.43229(9) 0.37211(9) 0.83858(9)
H125_3 H 0.0820 0.3504 0.8800
H126_3 H 0.1200 0.4180 0.8504
H127_3 H 0.3504 0.1200 0.9180
H128_3 H 0.4180 0.1496 0.8800
H129_3 H 0.3800 0.0820 0.8504
H133_3 H 0.3800 0.3504 0.9180
H134_3 H 0.3504 0.4180 0.8800
H135_3 H 0.4180 0.3800 0.8504
H136_3 H 0.0529 0.3361 0.8856
H137_3 H 0.1144 0.4471 0.8361
H138_3 H 0.3361 0.1144 0.9471
H139_3 H 0.4471 0.1639 0.8856
H140_3 H 0.3856 0.0529 0.8361
H144_3 H 0.3856 0.3361 0.9471
H145_3 H 0.3361 0.4471 0.8856
H146_3 H 0.4471 0.3856 0.8361
H147_3 H 0.0603 0.3472 0.8555
H148_3 H 0.1445 0.4397 0.8472
H149_3 H 0.3472 0.1445 0.9397
H150_3 H 0.4397 0.1528 0.8555
H151_3 H 0.3555 0.0603 0.8472
H155_3 H 0.3555 0.3472 0.9397
H156_3 H 0.3472 0.4397 0.8555
H157_3 H 0.4397 0.3555 0.8472
O36_6 O 0.31674(6) 0.17758(7) 1.0000
O37_6 O 0.32242(7) 0.31674(6) 1.0000
O38_6 O 0.18326(6) 0.32242(7) 1.0000
C170_6 C 0.3168(3) 0.34525(18) 1.0000
C171_6 C 0.34525(18) 0.1832(3) 1.0000
C172_6 C 0.15475(18) 0.3168(3) 1.0000
H158_6 H 0.3470(7) 0.3165(7) 1.0000
H159_6 H 0.3165(7) 0.1530(7) 1.0000
H160_6 H 0.1835(7) 0.3470(7) 1.0000
H165_6 H 0.356681 0.163888 1
H166_3 H 0.350543 0.195026 0.981677
H168_6 H 0.143319 0.336112 1
H169_3 H 0.149457 0.304974 0.981677
H171_6 H 0.336112 0.356681 1
H172_3 H 0.304974 0.350543 0.981677
H177_6 H 0.163888 0.143319 1
H178_3 H 0.195026 0.149457 0.981677
Cd11_6 Cd 0.224881(5) 1.0000 0.798272(5)
Cd12_6 Cd 0.298272(5) 1.0000 0.775119(5)
Cd5_6 Cd 1.0000 0.298272(5) 0.724881(5)
Cd6_6 Cd 1.0000 0.275119(5) 0.798272(5)
Cd1_3 Cd 0.701728(5) 0.5000 0.275119(5)
O2_4 O 0.67055(4) 0.46640(4) 0.26104(4)
O3_2 O 0.73368(4) 0.52941(4) 0.29351(4)
O4_7 O 0.7500 0.5000 0.2500
C1_4 C 0.68319(6) 0.45976(5) 0.23959(6)
C2_4 C 0.67179(6) 0.43770(5) 0.22124(6)
C3_4 C 0.68644(6) 0.42865(6) 0.19845(5)
H1_4 H 0.7035 0.4370 0.1937
C4_4 C 0.67592(6) 0.40736(5) 0.18262(6)
C5_4 C 0.65111(6) 0.39433(6) 0.18936(6)
C6_4 C 0.63605(6) 0.40427(6) 0.21179(6)
H2_4 H 0.6188 0.3963 0.2164
C7_4 C 0.64642(6) 0.42583(6) 0.22734(6)
H3_4 H 0.6360 0.4327 0.2425
C8_4 C 0.64650(6) 0.37178(6) 0.16911(6)
C9_4 C 0.62701(6) 0.35070(6) 0.16793(6)
C10_4 C 0.68853(6) 0.39584(6) 0.15665(6)
C11_4 C 0.71741(7) 0.38415(7) 0.16348(7)
H4_4 H 0.7260 0.3775 0.1462
H5_4 H 0.7290 0.3993 0.1706
C12_4 C 0.71773(8) 0.36097(9) 0.18418(8)
H6_4 H 0.7085 0.3670 0.2011
H7_4 H 0.7368 0.3559 0.1883
H8_4 H 0.7080 0.3450 0.1765
C13_4 C 0.68918(7) 0.42001(7) 0.13518(8)
H9_4 H 0.7011 0.4349 0.1426
H10_4 H 0.6979 0.4132 0.1180
C14_4 C 0.66142(9) 0.43229(9) 0.12789(9)
H11_4 H 0.6496 0.4180 0.1200
H12_4 H 0.6639 0.4471 0.1144
H13_4 H 0.6528 0.4397 0.1445
O5_7 O 0.67758(7) 0.5000 0.31674(6)
C15_7 C 0.6832(3) 0.5000 0.34525(18)
H14_7 H 0.6530(7) 0.5000 0.3165(7)
Cd5_7 Cd 0.5000 0.224881(5) 0.201728(5)
Cd6_7 Cd 0.5000 0.298272(5) 0.224881(5)
Cd8_4 Cd 0.701728(5) 0.275119(5) 0.0000
Cd13_3 Cd 0.701728(5) 0.775119(5) 0.5000
Cd14_3 Cd 0.724881(5) 0.701728(5) 0.5000
Cd15_3 Cd 0.5000 0.701728(5) 0.224881(5)
O6_4 O 0.67055(4) 0.53360(4) 0.26104(4)
O7_4 O 0.53360(4) 0.23896(4) 0.17055(4)
O8_4 O 0.76104(4) 0.32945(4) 0.03360(4)
O9_4 O 0.76104(4) 0.46640(4) 0.32945(4)
O10_2 O 0.76104(4) 0.53360(4) 0.32945(4)
O11_4 O 0.82945(4) 0.53360(4) 0.23896(4)
O14_4 O 0.73896(4) 0.53360(4) 0.17055(4)
O17_2 O 0.67055(4) 0.76104(4) 0.46640(4)
O18_2 O 0.53360(4) 0.67055(4) 0.23896(4)
O21_4 O 0.70649(4) 0.52941(4) 0.23368(4)
O22_4 O 0.73368(4) 0.47059(4) 0.29351(4)
O23_4 O 0.70649(4) 0.47059(4) 0.23368(4)
O24_4 O 0.52941(4) 0.26632(4) 0.20649(4)
O25_4 O 0.73368(4) 0.29351(4) 0.02941(4)
O26_4 O 0.79351(4) 0.52941(4) 0.26632(4)
O29_4 O 0.76632(4) 0.52941(4) 0.20649(4)
O32_2 O 0.70649(4) 0.73368(4) 0.47059(4)
O33_2 O 0.52941(4) 0.70649(4) 0.26632(4)
C16_2 C 0.73959(6) 0.54024(5) 0.31681(6)
C17_4 C 0.54024(5) 0.26041(6) 0.18319(6)
C18_4 C 0.73959(6) 0.31681(6) 0.04024(5)
C22_2 C 0.68319(6) 0.73959(6) 0.45976(5)
C23_2 C 0.54024(5) 0.68319(6) 0.26041(6)
C27_4 C 0.56230(5) 0.27876(6) 0.17179(6)
C28_4 C 0.72124(6) 0.32821(6) 0.06230(5)
C32_2 C 0.72124(6) 0.56230(5) 0.32821(6)
C33_2 C 0.67179(6) 0.72124(6) 0.43770(5)
C34_2 C 0.56230(5) 0.67179(6) 0.27876(6)
C38_4 C 0.57135(6) 0.30155(5) 0.18644(6)
C39_4 C 0.69845(5) 0.31356(6) 0.07135(6)
C43_2 C 0.69845(5) 0.57135(6) 0.31356(6)
C44_2 C 0.68644(6) 0.69845(5) 0.42865(6)
C45_2 C 0.57135(6) 0.68644(6) 0.30155(5)
H15_4 H 0.5630 0.3063 0.2035
H16_4 H 0.6937 0.2965 0.0630
H20_2 H 0.6937 0.5630 0.2965
H21_2 H 0.7035 0.6937 0.4370
H22_2 H 0.5630 0.7035 0.3063
C49_4 C 0.59264(5) 0.31738(6) 0.17592(6)
C50_4 C 0.68262(6) 0.32408(6) 0.09264(5)
C54_2 C 0.68262(6) 0.59264(5) 0.32408(6)
C55_2 C 0.67592(6) 0.68262(6) 0.40736(5)
C56_2 C 0.59264(5) 0.67592(6) 0.31738(6)
C60_4 C 0.60567(6) 0.31064(6) 0.15111(6)
C61_4 C 0.68936(6) 0.34889(6) 0.10567(6)
C65_2 C 0.68936(6) 0.60567(6) 0.34889(6)
C66_2 C 0.60567(6) 0.65111(6) 0.31064(6)
C67_2 C 0.65111(6) 0.68936(6) 0.39433(6)
C71_4 C 0.59573(6) 0.28821(6) 0.13605(6)
C72_4 C 0.71179(6) 0.36395(6) 0.09573(6)
C76_2 C 0.71179(6) 0.59573(6) 0.36395(6)
C77_2 C 0.59573(6) 0.63605(6) 0.28821(6)
C78_2 C 0.63605(6) 0.71179(6) 0.40427(6)
H26_4 H 0.6037 0.2836 0.1188
H27_4 H 0.7164 0.3812 0.1037
H31_2 H 0.7164 0.6037 0.3812
H32_2 H 0.6037 0.6188 0.2836
H33_2 H 0.6188 0.7164 0.3963
C82_4 C 0.57417(6) 0.27266(6) 0.14642(6)
C83_4 C 0.72734(6) 0.35358(6) 0.07417(6)
C87_2 C 0.72734(6) 0.57417(6) 0.35358(6)
C88_2 C 0.57417(6) 0.64642(6) 0.27266(6)
C89_2 C 0.64642(6) 0.72734(6) 0.42583(6)
H37_4 H 0.5673 0.2575 0.1360
H38_4 H 0.7425 0.3640 0.0673
H42_2 H 0.7425 0.5673 0.3640
H43_2 H 0.5673 0.6360 0.2575
H44_2 H 0.6360 0.7425 0.4327
C93_4 C 0.62822(6) 0.33089(6) 0.14650(6)
C94_4 C 0.66911(6) 0.35350(6) 0.12822(6)
C98_2 C 0.66911(6) 0.62822(6) 0.35350(6)
C99_2 C 0.62822(6) 0.64650(6) 0.33089(6)
C100_2 C 0.64650(6) 0.66911(6) 0.37178(6)
C104_4 C 0.66793(6) 0.37299(6) 0.14930(6)
C105_4 C 0.64930(6) 0.33207(6) 0.12701(6)
C109_2 C 0.64930(6) 0.62701(6) 0.33207(6)
C110_2 C 0.66793(6) 0.64930(6) 0.37299(6)
C111_2 C 0.62701(6) 0.66793(6) 0.35070(6)
C115_4 C 0.60416(6) 0.34335(6) 0.18853(6)
C116_4 C 0.65665(6) 0.31147(6) 0.10416(6)
C120_2 C 0.65665(6) 0.60416(6) 0.31147(6)
C121_2 C 0.68853(6) 0.65665(6) 0.39584(6)
C122_2 C 0.60416(6) 0.68853(6) 0.34335(6)
C126_4 C 0.61585(7) 0.33652(7) 0.21741(7)
C127_4 C 0.66348(7) 0.28259(7) 0.11585(7)
C131_2 C 0.66348(7) 0.61585(7) 0.28259(7)
C132_2 C 0.71741(7) 0.66348(7) 0.38415(7)
C133_2 C 0.61585(7) 0.71741(7) 0.33652(7)
H48_4 H 0.6225 0.3538 0.2260
H49_4 H 0.6462 0.2740 0.1225
H53_2 H 0.6462 0.6225 0.2740
H54_2 H 0.7260 0.6462 0.3775
H55_2 H 0.6225 0.7260 0.3538
H59_4 H 0.6007 0.3294 0.2290
H60_4 H 0.6706 0.2710 0.1007
H64_2 H 0.6706 0.6007 0.2710
H65_2 H 0.7290 0.6706 0.3993
H66_2 H 0.6007 0.7290 0.3294
C137_4 C 0.63903(9) 0.31582(8) 0.21773(8)
C138_4 C 0.68418(8) 0.28227(8) 0.13903(9)
C142_2 C 0.68418(8) 0.63903(9) 0.28227(8)
C143_2 C 0.71773(8) 0.68418(8) 0.36097(9)
C144_2 C 0.63903(9) 0.71773(8) 0.31582(8)
H70_4 H 0.6330 0.2989 0.2085
H71_4 H 0.7011 0.2915 0.1330
H75_2 H 0.7011 0.6330 0.2915
H76_2 H 0.7085 0.7011 0.3670
H77_2 H 0.6330 0.7085 0.2989
H81_4 H 0.6441 0.3117 0.2368
H82_4 H 0.6883 0.2632 0.1441
H86_2 H 0.6883 0.6441 0.2632
H87_2 H 0.7368 0.6883 0.3559
H88_2 H 0.6441 0.7368 0.3117
H92_4 H 0.6550 0.3235 0.2080
H93_4 H 0.6765 0.2920 0.1550
H97_2 H 0.6765 0.6550 0.2920
H98_2 H 0.7080 0.6765 0.3450
H99_2 H 0.6550 0.7080 0.3235
C148_4 C 0.57999(7) 0.36482(8) 0.18918(7)
C149_4 C 0.63518(8) 0.31082(7) 0.07999(7)
C153_2 C 0.63518(8) 0.57999(7) 0.31082(7)
C154_2 C 0.68918(7) 0.63518(8) 0.42001(7)
C155_2 C 0.57999(7) 0.68918(7) 0.36482(8)
H103_4 H 0.5651 0.3574 0.2011
H104_4 H 0.6426 0.2989 0.0651
H108_2 H 0.6426 0.5651 0.2989
H109_2 H 0.7011 0.6426 0.4349
H110_2 H 0.5651 0.7011 0.3574
H114_4 H 0.5868 0.3820 0.1979
H115_4 H 0.6180 0.3021 0.0868
H119_2 H 0.6180 0.5868 0.3021
H120_2 H 0.6979 0.6180 0.4132
H121_2 H 0.5868 0.6979 0.3820
C159_4 C 0.56771(9) 0.37211(9) 0.16142(9)
C160_4 C 0.62789(9) 0.33858(9) 0.06771(9)
C164_2 C 0.62789(9) 0.56771(9) 0.33858(9)
C165_2 C 0.66142(9) 0.62789(9) 0.43229(9)
C166_2 C 0.56771(9) 0.66142(9) 0.37211(9)
H125_4 H 0.5820 0.3800 0.1496
H126_4 H 0.6200 0.3504 0.0820
H130_2 H 0.6200 0.5820 0.3504
H131_2 H 0.6496 0.6200 0.4180
H132_2 H 0.5820 0.6496 0.3800
H136_4 H 0.5529 0.3856 0.1639
H137_4 H 0.6144 0.3361 0.0529
H141_2 H 0.6144 0.5529 0.3361
H142_2 H 0.6639 0.6144 0.4471
H143_2 H 0.5529 0.6639 0.3856
H147_4 H 0.5603 0.3555 0.1528
H148_4 H 0.6445 0.3472 0.0603
H152_2 H 0.6445 0.5603 0.3472
H153_2 H 0.6528 0.6445 0.4397
H154_2 H 0.5603 0.6528 0.3555
O36_7 O 0.81674(6) 0.5000 0.32242(7)
O37_7 O 0.82242(7) 0.5000 0.18326(6)
O38_7 O 0.68326(6) 0.5000 0.17758(7)
C170_7 C 0.8168(3) 0.5000 0.15475(18)
C171_7 C 0.84525(18) 0.5000 0.3168(3)
C172_7 C 0.65475(18) 0.5000 0.1832(3)
H158_7 H 0.8470(7) 0.5000 0.1835(7)
H159_7 H 0.8165(7) 0.5000 0.3470(7)
H160_7 H 0.6835(7) 0.5000 0.1530(7)
H164_4 H 0.850543 0.518323 0.304974
H165_7 H 0.856681 0.5 0.336112
H166_4 H 0.850543 0.481677 0.304974
H167_4 H 0.649457 0.518323 0.195026
H168_7 H 0.643319 0.5 0.163888
H169_4 H 0.649457 0.481677 0.195026
H170_4 H 0.804974 0.518323 0.149457
H171_7 H 0.836112 0.5 0.143319
H172_4 H 0.804974 0.481677 0.149457
H176_4 H 0.695026 0.518323 0.350543
H177_7 H 0.663888 0.5 0.356681
H178_4 H 0.695026 0.481677 0.350543
Cd8_5 Cd 0.701728(5) 0.275119(5) 1.0000
Cd9_4 Cd 0.0000 0.775119(5) 0.701728(5)
Cd10_4 Cd 0.0000 0.701728(5) 0.724881(5)
Cd18_4 Cd -0.0000 0.724881(5) 0.798272(5)
Cd7_4 Cd 0.775119(5) 0.701728(5) 0.0000
Cd8_6 Cd 0.701728(5) 0.724881(5) 0.0000
Cd17_4 Cd 0.798272(5) 0.775119(5) 0.0000
Cd1_4 Cd 0.701728(5) 0.5000 0.724881(5)
O2_5 O 0.67055(4) 0.53360(4) 0.73896(4)
O3_3 O 0.73368(4) 0.47059(4) 0.70649(4)
O4_8 O 0.7500 0.5000 0.7500
C1_5 C 0.68319(6) 0.54024(5) 0.76041(6)
C2_5 C 0.67179(6) 0.56230(5) 0.77876(6)
C3_5 C 0.68644(6) 0.57135(6) 0.80155(5)
H1_5 H 0.7035 0.5630 0.8063
C4_5 C 0.67592(6) 0.59264(5) 0.81738(6)
C5_5 C 0.65111(6) 0.60567(6) 0.81064(6)
C6_5 C 0.63605(6) 0.59573(6) 0.78821(6)
H2_5 H 0.6188 0.6037 0.7836
C7_5 C 0.64642(6) 0.57417(6) 0.77266(6)
H3_5 H 0.6360 0.5673 0.7575
C8_5 C 0.64650(6) 0.62822(6) 0.83089(6)
C9_5 C 0.62701(6) 0.64930(6) 0.83207(6)
C10_5 C 0.68853(6) 0.60416(6) 0.84335(6)
C11_5 C 0.71741(7) 0.61585(7) 0.83652(7)
H4_5 H 0.7260 0.6225 0.8538
H5_5 H 0.7290 0.6007 0.8294
C12_5 C 0.71773(8) 0.63903(9) 0.81582(8)
H6_5 H 0.7085 0.6330 0.7989
H7_5 H 0.7368 0.6441 0.8117
H8_5 H 0.7080 0.6550 0.8235
C13_5 C 0.68918(7) 0.57999(7) 0.86482(8)
H9_5 H 0.7011 0.5651 0.8574
H10_5 H 0.6979 0.5868 0.8820
C14_5 C 0.66142(9) 0.56771(9) 0.87211(9)
H11_5 H 0.6496 0.5820 0.8800
H12_5 H 0.6639 0.5529 0.8856
H13_5 H 0.6528 0.5603 0.8555
O5_8 O 0.67758(7) 0.5000 0.68326(6)
C15_8 C 0.6832(3) 0.5000 0.65475(18)
H14_8 H 0.6530(7) 0.5000 0.6835(7)
Cd2_3 Cd 0.775119(5) 0.5000 0.701728(5)
Cd3_7 Cd 0.724881(5) 0.5000 0.798272(5)
Cd4_7 Cd 0.798272(5) 0.5000 0.775119(5)
Cd5_8 Cd 0.5000 0.775119(5) 0.798272(5)
Cd6_8 Cd 0.5000 0.701728(5) 0.775119(5)
Cd7_5 Cd 0.775119(5) 0.701728(5) 1.0000
Cd8_7 Cd 0.701728(5) 0.724881(5) 1.0000
Cd9_5 Cd 1.0000 0.775119(5) 0.701728(5)
Cd10_5 Cd 1.0000 0.701728(5) 0.724881(5)
Cd12_7 Cd 0.798272(5) 0.724881(5) 0.5000
Cd13_4 Cd 0.701728(5) 0.224881(5) 0.5000
Cd16_3 Cd 0.5000 0.275119(5) 0.701728(5)
Cd17_5 Cd 0.798272(5) 0.775119(5) 1.0000
Cd18_5 Cd 1.0000 0.724881(5) 0.798272(5)
O6_5 O 0.67055(4) 0.46640(4) 0.73896(4)
O7_5 O 0.53360(4) 0.76104(4) 0.82945(4)
O8_5 O 0.76104(4) 0.67055(4) 0.96640(4)
O9_5 O 0.76104(4) 0.53360(4) 0.67055(4)
O10_3 O 0.76104(4) 0.46640(4) 0.67055(4)
O11_5 O 0.82945(4) 0.46640(4) 0.76104(4)
O12_4 O 0.82945(4) 0.53360(4) 0.76104(4)
O13_4 O 0.73896(4) 0.53360(4) 0.82945(4)
O14_5 O 0.73896(4) 0.46640(4) 0.82945(4)
O15_4 O 0.96640(4) 0.76104(4) 0.67055(4)
O16_4 O 0.73896(4) 0.67055(4) 0.53360(4)
O17_3 O 0.67055(4) 0.23896(4) 0.53360(4)
O18_3 O 0.53360(4) 0.32945(4) 0.76104(4)
O19_4 O 0.82945(4) 0.76104(4) 0.96640(4)
O20_4 O 0.96640(4) 0.67055(4) 0.73896(4)
O21_5 O 0.70649(4) 0.47059(4) 0.76632(4)
O22_5 O 0.73368(4) 0.52941(4) 0.70649(4)
O23_5 O 0.70649(4) 0.52941(4) 0.76632(4)
O24_5 O 0.52941(4) 0.73368(4) 0.79351(4)
O25_5 O 0.73368(4) 0.70649(4) 0.97059(4)
O26_5 O 0.79351(4) 0.47059(4) 0.73368(4)
O27_4 O 0.79351(4) 0.52941(4) 0.73368(4)
O28_4 O 0.76632(4) 0.52941(4) 0.79351(4)
O29_5 O 0.76632(4) 0.47059(4) 0.79351(4)
O30_4 O 0.97059(4) 0.73368(4) 0.70649(4)
O31_4 O 0.76632(4) 0.70649(4) 0.52941(4)
O32_3 O 0.70649(4) 0.26632(4) 0.52941(4)
O33_3 O 0.52941(4) 0.29351(4) 0.73368(4)
O34_4 O 0.79351(4) 0.73368(4) 0.97059(4)
O35_4 O 0.97059(4) 0.70649(4) 0.76632(4)
C16_3 C 0.73959(6) 0.45976(5) 0.68319(6)
C17_5 C 0.54024(5) 0.73959(6) 0.81681(6)
C18_5 C 0.73959(6) 0.68319(6) 0.95976(5)
C19_4 C 0.81681(6) 0.54024(5) 0.73959(6)
C20_4 C 0.95976(5) 0.73959(6) 0.68319(6)
C21_4 C 0.76041(6) 0.68319(6) 0.54024(5)
C22_3 C 0.68319(6) 0.26041(6) 0.54024(5)
C23_3 C 0.54024(5) 0.31681(6) 0.73959(6)
C24_4 C 0.76041(6) 0.54024(5) 0.81681(6)
C25_4 C 0.81681(6) 0.73959(6) 0.95976(5)
C26_4 C 0.95976(5) 0.68319(6) 0.76041(6)
C27_5 C 0.56230(5) 0.72124(6) 0.82821(6)
C28_5 C 0.72124(6) 0.67179(6) 0.93770(5)
C29_4 C 0.82821(6) 0.56230(5) 0.72124(6)
C30_4 C 0.93770(5) 0.72124(6) 0.67179(6)
C31_4 C 0.77876(6) 0.67179(6) 0.56230(5)
C32_3 C 0.72124(6) 0.43770(5) 0.67179(6)
C33_3 C 0.67179(6) 0.27876(6) 0.56230(5)
C34_3 C 0.56230(5) 0.32821(6) 0.72124(6)
C35_4 C 0.77876(6) 0.56230(5) 0.82821(6)
C36_4 C 0.82821(6) 0.72124(6) 0.93770(5)
C37_4 C 0.93770(5) 0.67179(6) 0.77876(6)
C38_5 C 0.57135(6) 0.69845(5) 0.81356(6)
C39_5 C 0.69845(5) 0.68644(6) 0.92865(6)
C40_4 C 0.81356(6) 0.57135(6) 0.69845(5)
C41_4 C 0.92865(6) 0.69845(5) 0.68644(6)
C42_4 C 0.80155(5) 0.68644(6) 0.57135(6)
C43_3 C 0.69845(5) 0.42865(6) 0.68644(6)
C44_3 C 0.68644(6) 0.30155(5) 0.57135(6)
C45_3 C 0.57135(6) 0.31356(6) 0.69845(5)
C46_4 C 0.80155(5) 0.57135(6) 0.81356(6)
C47_4 C 0.81356(6) 0.69845(5) 0.92865(6)
C48_4 C 0.92865(6) 0.68644(6) 0.80155(5)
H15_5 H 0.5630 0.6937 0.7965
H16_5 H 0.6937 0.7035 0.9370
H17_4 H 0.7965 0.5630 0.6937
H18_4 H 0.9370 0.6937 0.7035
H19_4 H 0.8063 0.7035 0.5630
H20_3 H 0.6937 0.4370 0.7035
H21_3 H 0.7035 0.3063 0.5630
H22_3 H 0.5630 0.2965 0.6937
H23_4 H 0.8063 0.5630 0.7965
H24_4 H 0.7965 0.6937 0.9370
H25_4 H 0.9370 0.7035 0.8063
C49_5 C 0.59264(5) 0.68262(6) 0.82408(6)
C50_5 C 0.68262(6) 0.67592(6) 0.90736(5)
C51_4 C 0.82408(6) 0.59264(5) 0.68262(6)
C52_4 C 0.90736(5) 0.68262(6) 0.67592(6)
C53_4 C 0.81738(6) 0.67592(6) 0.59264(5)
C54_3 C 0.68262(6) 0.40736(5) 0.67592(6)
C55_3 C 0.67592(6) 0.31738(6) 0.59264(5)
C56_3 C 0.59264(5) 0.32408(6) 0.68262(6)
C57_4 C 0.81738(6) 0.59264(5) 0.82408(6)
C58_4 C 0.82408(6) 0.68262(6) 0.90736(5)
C59_4 C 0.90736(5) 0.67592(6) 0.81738(6)
C60_5 C 0.60567(6) 0.68936(6) 0.84889(6)
C61_5 C 0.68936(6) 0.65111(6) 0.89433(6)
C62_4 C 0.84889(6) 0.60567(6) 0.68936(6)
C63_4 C 0.81064(6) 0.65111(6) 0.60567(6)
C64_4 C 0.89433(6) 0.68936(6) 0.65111(6)
C65_3 C 0.68936(6) 0.39433(6) 0.65111(6)
C66_3 C 0.60567(6) 0.34889(6) 0.68936(6)
C67_3 C 0.65111(6) 0.31064(6) 0.60567(6)
C68_4 C 0.81064(6) 0.60567(6) 0.84889(6)
C69_4 C 0.89433(6) 0.65111(6) 0.81064(6)
C70_4 C 0.84889(6) 0.68936(6) 0.89433(6)
C71_5 C 0.59573(6) 0.71179(6) 0.86395(6)
C72_5 C 0.71179(6) 0.63605(6) 0.90427(6)
C73_4 C 0.86395(6) 0.59573(6) 0.71179(6)
C74_4 C 0.78821(6) 0.63605(6) 0.59573(6)
C75_4 C 0.90427(6) 0.71179(6) 0.63605(6)
C76_3 C 0.71179(6) 0.40427(6) 0.63605(6)
C77_3 C 0.59573(6) 0.36395(6) 0.71179(6)
C78_3 C 0.63605(6) 0.28821(6) 0.59573(6)
C79_4 C 0.78821(6) 0.59573(6) 0.86395(6)
C80_4 C 0.90427(6) 0.63605(6) 0.78821(6)
C81_4 C 0.86395(6) 0.71179(6) 0.90427(6)
H26_5 H 0.6037 0.7164 0.8812
H27_5 H 0.7164 0.6188 0.8963
H28_4 H 0.8812 0.6037 0.7164
H29_4 H 0.7836 0.6188 0.6037
H30_4 H 0.8963 0.7164 0.6188
H31_3 H 0.7164 0.3963 0.6188
H32_3 H 0.6037 0.3812 0.7164
H33_3 H 0.6188 0.2836 0.6037
H34_4 H 0.7836 0.6037 0.8812
H35_4 H 0.8963 0.6188 0.7836
H36_4 H 0.8812 0.7164 0.8963
C82_5 C 0.57417(6) 0.72734(6) 0.85358(6)
C83_5 C 0.72734(6) 0.64642(6) 0.92583(6)
C84_4 C 0.85358(6) 0.57417(6) 0.72734(6)
C85_4 C 0.77266(6) 0.64642(6) 0.57417(6)
C86_4 C 0.92583(6) 0.72734(6) 0.64642(6)
C87_3 C 0.72734(6) 0.42583(6) 0.64642(6)
C88_3 C 0.57417(6) 0.35358(6) 0.72734(6)
C89_3 C 0.64642(6) 0.27266(6) 0.57417(6)
C90_4 C 0.77266(6) 0.57417(6) 0.85358(6)
C91_4 C 0.92583(6) 0.64642(6) 0.77266(6)
C92_4 C 0.85358(6) 0.72734(6) 0.92583(6)
H37_5 H 0.5673 0.7425 0.8640
H38_5 H 0.7425 0.6360 0.9327
H39_4 H 0.8640 0.5673 0.7425
H40_4 H 0.7575 0.6360 0.5673
H41_4 H 0.9327 0.7425 0.6360
H42_3 H 0.7425 0.4327 0.6360
H43_3 H 0.5673 0.3640 0.7425
H44_3 H 0.6360 0.2575 0.5673
H45_4 H 0.7575 0.5673 0.8640
H46_4 H 0.9327 0.6360 0.7575
H47_4 H 0.8640 0.7425 0.9327
C93_5 C 0.62822(6) 0.66911(6) 0.85350(6)
C94_5 C 0.66911(6) 0.64650(6) 0.87178(6)
C95_4 C 0.85350(6) 0.62822(6) 0.66911(6)
C96_4 C 0.83089(6) 0.64650(6) 0.62822(6)
C97_4 C 0.87178(6) 0.66911(6) 0.64650(6)
C98_3 C 0.66911(6) 0.37178(6) 0.64650(6)
C99_3 C 0.62822(6) 0.35350(6) 0.66911(6)
C100_3 C 0.64650(6) 0.33089(6) 0.62822(6)
C101_4 C 0.83089(6) 0.62822(6) 0.85350(6)
C102_4 C 0.87178(6) 0.64650(6) 0.83089(6)
C103_4 C 0.85350(6) 0.66911(6) 0.87178(6)
C104_5 C 0.66793(6) 0.62701(6) 0.85070(6)
C105_5 C 0.64930(6) 0.66793(6) 0.87299(6)
C106_4 C 0.83207(6) 0.62701(6) 0.64930(6)
C107_4 C 0.87299(6) 0.64930(6) 0.66793(6)
C108_4 C 0.85070(6) 0.66793(6) 0.62701(6)
C109_3 C 0.64930(6) 0.37299(6) 0.66793(6)
C110_3 C 0.66793(6) 0.35070(6) 0.62701(6)
C111_3 C 0.62701(6) 0.33207(6) 0.64930(6)
C112_4 C 0.85070(6) 0.62701(6) 0.83207(6)
C113_4 C 0.83207(6) 0.64930(6) 0.87299(6)
C114_4 C 0.87299(6) 0.66793(6) 0.85070(6)
C115_5 C 0.60416(6) 0.65665(6) 0.81147(6)
C116_5 C 0.65665(6) 0.68853(6) 0.89584(6)
C117_4 C 0.81147(6) 0.60416(6) 0.65665(6)
C118_4 C 0.89584(6) 0.65665(6) 0.68853(6)
C119_4 C 0.84335(6) 0.68853(6) 0.60416(6)
C120_3 C 0.65665(6) 0.39584(6) 0.68853(6)
C121_3 C 0.68853(6) 0.34335(6) 0.60416(6)
C122_3 C 0.60416(6) 0.31147(6) 0.65665(6)
C123_4 C 0.84335(6) 0.60416(6) 0.81147(6)
C124_4 C 0.81147(6) 0.65665(6) 0.89584(6)
C125_4 C 0.89584(6) 0.68853(6) 0.84335(6)
C126_5 C 0.61585(7) 0.66348(7) 0.78259(7)
C127_5 C 0.66348(7) 0.71741(7) 0.88415(7)
C128_4 C 0.78259(7) 0.61585(7) 0.66348(7)
C129_4 C 0.88415(7) 0.66348(7) 0.71741(7)
C130_4 C 0.83652(7) 0.71741(7) 0.61585(7)
C131_3 C 0.66348(7) 0.38415(7) 0.71741(7)
C132_3 C 0.71741(7) 0.33652(7) 0.61585(7)
C133_3 C 0.61585(7) 0.28259(7) 0.66348(7)
C134_4 C 0.83652(7) 0.61585(7) 0.78259(7)
C135_4 C 0.78259(7) 0.66348(7) 0.88415(7)
C136_4 C 0.88415(7) 0.71741(7) 0.83652(7)
H48_5 H 0.6225 0.6462 0.7740
H49_5 H 0.6462 0.7260 0.8775
H50_4 H 0.7740 0.6225 0.6462
H51_4 H 0.8775 0.6462 0.7260
H52_4 H 0.8538 0.7260 0.6225
H53_3 H 0.6462 0.3775 0.7260
H54_3 H 0.7260 0.3538 0.6225
H55_3 H 0.6225 0.2740 0.6462
H56_4 H 0.8538 0.6225 0.7740
H57_4 H 0.7740 0.6462 0.8775
H58_4 H 0.8775 0.7260 0.8538
H59_5 H 0.6007 0.6706 0.7710
H60_5 H 0.6706 0.7290 0.8993
H61_4 H 0.7710 0.6007 0.6706
H62_4 H 0.8993 0.6706 0.7290
H63_4 H 0.8294 0.7290 0.6007
H64_3 H 0.6706 0.3993 0.7290
H65_3 H 0.7290 0.3294 0.6007
H66_3 H 0.6007 0.2710 0.6706
H67_4 H 0.8294 0.6007 0.7710
H68_4 H 0.7710 0.6706 0.8993
H69_4 H 0.8993 0.7290 0.8294
C137_5 C 0.63903(9) 0.68418(8) 0.78227(8)
C138_5 C 0.68418(8) 0.71773(8) 0.86097(9)
C139_4 C 0.78227(8) 0.63903(9) 0.68418(8)
C140_4 C 0.86097(9) 0.68418(8) 0.71773(8)
C141_4 C 0.81582(8) 0.71773(8) 0.63903(9)
C142_3 C 0.68418(8) 0.36097(9) 0.71773(8)
C143_3 C 0.71773(8) 0.31582(8) 0.63903(9)
C144_3 C 0.63903(9) 0.28227(8) 0.68418(8)
C145_4 C 0.81582(8) 0.63903(9) 0.78227(8)
C146_4 C 0.78227(8) 0.68418(8) 0.86097(9)
C147_4 C 0.86097(9) 0.71773(8) 0.81582(8)
H70_5 H 0.6330 0.7011 0.7915
H71_5 H 0.7011 0.7085 0.8670
H72_4 H 0.7915 0.6330 0.7011
H73_4 H 0.8670 0.7011 0.7085
H74_4 H 0.7989 0.7085 0.6330
H75_3 H 0.7011 0.3670 0.7085
H76_3 H 0.7085 0.2989 0.6330
H77_3 H 0.6330 0.2915 0.7011
H78_4 H 0.7989 0.6330 0.7915
H79_4 H 0.7915 0.7011 0.8670
H80_4 H 0.8670 0.7085 0.7989
H81_5 H 0.6441 0.6883 0.7632
H82_5 H 0.6883 0.7368 0.8559
H83_4 H 0.7632 0.6441 0.6883
H84_4 H 0.8559 0.6883 0.7368
H85_4 H 0.8117 0.7368 0.6441
H86_3 H 0.6883 0.3559 0.7368
H87_3 H 0.7368 0.3117 0.6441
H88_3 H 0.6441 0.2632 0.6883
H89_4 H 0.8117 0.6441 0.7632
H90_4 H 0.7632 0.6883 0.8559
H91_4 H 0.8559 0.7368 0.8117
H92_5 H 0.6550 0.6765 0.7920
H93_5 H 0.6765 0.7080 0.8450
H94_4 H 0.7920 0.6550 0.6765
H95_4 H 0.8450 0.6765 0.7080
H96_4 H 0.8235 0.7080 0.6550
H97_3 H 0.6765 0.3450 0.7080
H98_3 H 0.7080 0.3235 0.6550
H99_3 H 0.6550 0.2920 0.6765
H100_4 H 0.8235 0.6550 0.7920
H101_4 H 0.7920 0.6765 0.8450
H102_4 H 0.8450 0.7080 0.8235
C148_5 C 0.57999(7) 0.63518(8) 0.81082(7)
C149_5 C 0.63518(8) 0.68918(7) 0.92001(7)
C150_4 C 0.81082(7) 0.57999(7) 0.63518(8)
C151_4 C 0.92001(7) 0.63518(8) 0.68918(7)
C152_4 C 0.86482(8) 0.68918(7) 0.57999(7)
C153_3 C 0.63518(8) 0.42001(7) 0.68918(7)
C154_3 C 0.68918(7) 0.36482(8) 0.57999(7)
C155_3 C 0.57999(7) 0.31082(7) 0.63518(8)
C156_4 C 0.86482(8) 0.57999(7) 0.81082(7)
C157_4 C 0.81082(7) 0.63518(8) 0.92001(7)
C158_4 C 0.92001(7) 0.68918(7) 0.86482(8)
H103_5 H 0.5651 0.6426 0.7989
H104_5 H 0.6426 0.7011 0.9349
H105_4 H 0.7989 0.5651 0.6426
H106_4 H 0.9349 0.6426 0.7011
H107_4 H 0.8574 0.7011 0.5651
H108_3 H 0.6426 0.4349 0.7011
H109_3 H 0.7011 0.3574 0.5651
H110_3 H 0.5651 0.2989 0.6426
H111_4 H 0.8574 0.5651 0.7989
H112_4 H 0.7989 0.6426 0.9349
H113_4 H 0.9349 0.7011 0.8574
H114_5 H 0.5868 0.6180 0.8021
H115_5 H 0.6180 0.6979 0.9132
H116_4 H 0.8021 0.5868 0.6180
H117_4 H 0.9132 0.6180 0.6979
H118_4 H 0.8820 0.6979 0.5868
H119_3 H 0.6180 0.4132 0.6979
H120_3 H 0.6979 0.3820 0.5868
H121_3 H 0.5868 0.3021 0.6180
H122_4 H 0.8820 0.5868 0.8021
H123_4 H 0.8021 0.6180 0.9132
H124_4 H 0.9132 0.6979 0.8820
C159_5 C 0.56771(9) 0.62789(9) 0.83858(9)
C160_5 C 0.62789(9) 0.66142(9) 0.93229(9)
C161_4 C 0.83858(9) 0.56771(9) 0.62789(9)
C162_4 C 0.93229(9) 0.62789(9) 0.66142(9)
C163_4 C 0.87211(9) 0.66142(9) 0.56771(9)
C164_3 C 0.62789(9) 0.43229(9) 0.66142(9)
C165_3 C 0.66142(9) 0.37211(9) 0.56771(9)
C166_3 C 0.56771(9) 0.33858(9) 0.62789(9)
C167_4 C 0.87211(9) 0.56771(9) 0.83858(9)
C168_4 C 0.83858(9) 0.62789(9) 0.93229(9)
C169_4 C 0.93229(9) 0.66142(9) 0.87211(9)
H125_5 H 0.5820 0.6200 0.8504
H126_5 H 0.6200 0.6496 0.9180
H127_4 H 0.8504 0.5820 0.6200
H128_4 H 0.9180 0.6200 0.6496
H129_4 H 0.8800 0.6496 0.5820
H130_3 H 0.6200 0.4180 0.6496
H131_3 H 0.6496 0.3800 0.5820
H132_3 H 0.5820 0.3504 0.6200
H133_4 H 0.8800 0.5820 0.8504
H134_4 H 0.8504 0.6200 0.9180
H135_4 H 0.9180 0.6496 0.8800
H136_5 H 0.5529 0.6144 0.8361
H137_5 H 0.6144 0.6639 0.9471
H138_4 H 0.8361 0.5529 0.6144
H139_4 H 0.9471 0.6144 0.6639
H140_4 H 0.8856 0.6639 0.5529
H141_3 H 0.6144 0.4471 0.6639
H142_3 H 0.6639 0.3856 0.5529
H143_3 H 0.5529 0.3361 0.6144
H144_4 H 0.8856 0.5529 0.8361
H145_4 H 0.8361 0.6144 0.9471
H146_4 H 0.9471 0.6639 0.8856
H147_5 H 0.5603 0.6445 0.8472
H148_5 H 0.6445 0.6528 0.9397
H149_4 H 0.8472 0.5603 0.6445
H150_4 H 0.9397 0.6445 0.6528
H151_4 H 0.8555 0.6528 0.5603
H152_3 H 0.6445 0.4397 0.6528
H153_3 H 0.6528 0.3555 0.5603
H154_3 H 0.5603 0.3472 0.6445
H155_4 H 0.8555 0.5603 0.8472
H156_4 H 0.8472 0.6445 0.9397
H157_4 H 0.9397 0.6528 0.8555
O36_8 O 0.81674(6) 0.5000 0.67758(7)
O37_8 O 0.82242(7) 0.5000 0.81674(6)
O38_8 O 0.68326(6) 0.5000 0.82242(7)
C170_8 C 0.8168(3) 0.5000 0.84525(18)
C171_8 C 0.84525(18) 0.5000 0.6832(3)
C172_8 C 0.65475(18) 0.5000 0.8168(3)
H158_8 H 0.8470(7) 0.5000 0.8165(7)
H159_8 H 0.8165(7) 0.5000 0.6530(7)
H160_8 H 0.6835(7) 0.5000 0.8470(7)
H164_5 H 0.850543 0.481677 0.695026
H165_8 H 0.856681 0.5 0.663888
H166_5 H 0.850543 0.518323 0.695026
H167_5 H 0.649457 0.481677 0.804974
H168_8 H 0.643319 0.5 0.836112
H169_5 H 0.649457 0.518323 0.804974
H170_5 H 0.804974 0.481677 0.850543
H171_8 H 0.836112 0.5 0.856681
H172_5 H 0.804974 0.518323 0.850543
H176_5 H 0.695026 0.481677 0.649457
H177_8 H 0.663888 0.5 0.643319
H178_5 H 0.695026 0.518323 0.649457
O3_4 O 0.26632(4) 0.52941(4) 0.70649(4)
O4_9 O 0.2500 0.5000 0.7500
O5_9 O 0.32242(7) 0.5000 0.68326(6)
C15_9 C 0.3168(3) 0.5000 0.65475(18)
H14_9 H 0.3470(7) 0.5000 0.6835(7)
Cd2_4 Cd 0.224881(5) 0.5000 0.701728(5)
Cd9_6 Cd 0.0000 0.224881(5) 0.701728(5)
Cd11_7 Cd 0.275119(5) 0.298272(5) 0.5000
Cd12_8 Cd 0.201728(5) 0.275119(5) 0.5000
Cd14_4 Cd 0.275119(5) 0.701728(5) 0.5000
Cd16_4 Cd 0.5000 0.724881(5) 0.701728(5)
O6_6 O 0.32945(4) 0.53360(4) 0.73896(4)
O9_6 O 0.23896(4) 0.46640(4) 0.67055(4)
O10_4 O 0.23896(4) 0.53360(4) 0.67055(4)
O11_6 O 0.17055(4) 0.53360(4) 0.76104(4)
O12_5 O 0.17055(4) 0.46640(4) 0.76104(4)
O14_6 O 0.26104(4) 0.53360(4) 0.82945(4)
O15_5 O 0.03360(4) 0.23896(4) 0.67055(4)
O16_5 O 0.26104(4) 0.32945(4) 0.53360(4)
O17_4 O 0.32945(4) 0.76104(4) 0.53360(4)
O18_4 O 0.46640(4) 0.67055(4) 0.76104(4)
O21_6 O 0.29351(4) 0.52941(4) 0.76632(4)
O22_6 O 0.26632(4) 0.47059(4) 0.70649(4)
O26_6 O 0.20649(4) 0.52941(4) 0.73368(4)
O27_5 O 0.20649(4) 0.47059(4) 0.73368(4)
O29_6 O 0.23368(4) 0.52941(4) 0.79351(4)
O30_5 O 0.02941(4) 0.26632(4) 0.70649(4)
O31_5 O 0.23368(4) 0.29351(4) 0.52941(4)
O32_4 O 0.29351(4) 0.73368(4) 0.52941(4)
O33_4 O 0.47059(4) 0.70649(4) 0.73368(4)
C16_4 C 0.26041(6) 0.54024(5) 0.68319(6)
C19_5 C 0.18319(6) 0.45976(5) 0.73959(6)
C20_5 C 0.04024(5) 0.26041(6) 0.68319(6)
C21_5 C 0.23959(6) 0.31681(6) 0.54024(5)
C22_4 C 0.31681(6) 0.73959(6) 0.54024(5)
C23_4 C 0.45976(5) 0.68319(6) 0.73959(6)
C29_5 C 0.17179(6) 0.43770(5) 0.72124(6)
C30_5 C 0.06230(5) 0.27876(6) 0.67179(6)
C31_5 C 0.22124(6) 0.32821(6) 0.56230(5)
C32_4 C 0.27876(6) 0.56230(5) 0.67179(6)
C33_4 C 0.32821(6) 0.72124(6) 0.56230(5)
C34_4 C 0.43770(5) 0.67179(6) 0.72124(6)
C40_5 C 0.18644(6) 0.42865(6) 0.69845(5)
C41_5 C 0.07135(6) 0.30155(5) 0.68644(6)
C42_5 C 0.19845(5) 0.31356(6) 0.57135(6)
C43_4 C 0.30155(5) 0.57135(6) 0.68644(6)
C44_4 C 0.31356(6) 0.69845(5) 0.57135(6)
C45_4 C 0.42865(6) 0.68644(6) 0.69845(5)
H17_5 H 0.2035 0.4370 0.6937
H18_5 H 0.0630 0.3063 0.7035
H19_5 H 0.1937 0.2965 0.5630
H20_4 H 0.3063 0.5630 0.7035
H21_4 H 0.2965 0.6937 0.5630
H22_4 H 0.4370 0.7035 0.6937
C51_5 C 0.17592(6) 0.40736(5) 0.68262(6)
C52_5 C 0.09264(5) 0.31738(6) 0.67592(6)
C53_5 C 0.18262(6) 0.32408(6) 0.59264(5)
C54_4 C 0.31738(6) 0.59264(5) 0.67592(6)
C55_4 C 0.32408(6) 0.68262(6) 0.59264(5)
C56_4 C 0.40736(5) 0.67592(6) 0.68262(6)
C62_5 C 0.15111(6) 0.39433(6) 0.68936(6)
C63_5 C 0.18936(6) 0.34889(6) 0.60567(6)
C64_5 C 0.10567(6) 0.31064(6) 0.65111(6)
C65_4 C 0.31064(6) 0.60567(6) 0.65111(6)
C66_4 C 0.39433(6) 0.65111(6) 0.68936(6)
C67_4 C 0.34889(6) 0.68936(6) 0.60567(6)
C73_5 C 0.13605(6) 0.40427(6) 0.71179(6)
C74_5 C 0.21179(6) 0.36395(6) 0.59573(6)
C75_5 C 0.09573(6) 0.28821(6) 0.63605(6)
C76_4 C 0.28821(6) 0.59573(6) 0.63605(6)
C77_4 C 0.40427(6) 0.63605(6) 0.71179(6)
C78_4 C 0.36395(6) 0.71179(6) 0.59573(6)
H28_5 H 0.1188 0.3963 0.7164
H29_5 H 0.2164 0.3812 0.6037
H30_5 H 0.1037 0.2836 0.6188
H31_4 H 0.2836 0.6037 0.6188
H32_4 H 0.3963 0.6188 0.7164
H33_4 H 0.3812 0.7164 0.6037
C84_5 C 0.14642(6) 0.42583(6) 0.72734(6)
C85_5 C 0.22734(6) 0.35358(6) 0.57417(6)
C86_5 C 0.07417(6) 0.27266(6) 0.64642(6)
C87_4 C 0.27266(6) 0.57417(6) 0.64642(6)
C88_4 C 0.42583(6) 0.64642(6) 0.72734(6)
C89_4 C 0.35358(6) 0.72734(6) 0.57417(6)
H39_5 H 0.1360 0.4327 0.7425
H40_5 H 0.2425 0.3640 0.5673
H41_5 H 0.0673 0.2575 0.6360
H42_4 H 0.2575 0.5673 0.6360
H43_4 H 0.4327 0.6360 0.7425
H44_4 H 0.3640 0.7425 0.5673
C95_5 C 0.14650(6) 0.37178(6) 0.66911(6)
C96_5 C 0.16911(6) 0.35350(6) 0.62822(6)
C97_5 C 0.12822(6) 0.33089(6) 0.64650(6)
C98_4 C 0.33089(6) 0.62822(6) 0.64650(6)
C99_4 C 0.37178(6) 0.64650(6) 0.66911(6)
C100_4 C 0.35350(6) 0.66911(6) 0.62822(6)
C106_5 C 0.16793(6) 0.37299(6) 0.64930(6)
C107_5 C 0.12701(6) 0.35070(6) 0.66793(6)
C108_5 C 0.14930(6) 0.33207(6) 0.62701(6)
C109_4 C 0.35070(6) 0.62701(6) 0.66793(6)
C110_4 C 0.33207(6) 0.64930(6) 0.62701(6)
C111_4 C 0.37299(6) 0.66793(6) 0.64930(6)
C117_5 C 0.18853(6) 0.39584(6) 0.65665(6)
C118_5 C 0.10416(6) 0.34335(6) 0.68853(6)
C119_5 C 0.15665(6) 0.31147(6) 0.60416(6)
C120_4 C 0.34335(6) 0.60416(6) 0.68853(6)
C121_4 C 0.31147(6) 0.65665(6) 0.60416(6)
C122_4 C 0.39584(6) 0.68853(6) 0.65665(6)
C128_5 C 0.21741(7) 0.38415(7) 0.66348(7)
C129_5 C 0.11585(7) 0.33652(7) 0.71741(7)
C130_5 C 0.16348(7) 0.28259(7) 0.61585(7)
C131_4 C 0.33652(7) 0.61585(7) 0.71741(7)
C132_4 C 0.28259(7) 0.66348(7) 0.61585(7)
C133_4 C 0.38415(7) 0.71741(7) 0.66348(7)
H50_5 H 0.2260 0.3775 0.6462
H51_5 H 0.1225 0.3538 0.7260
H52_5 H 0.1462 0.2740 0.6225
H53_4 H 0.3538 0.6225 0.7260
H54_4 H 0.2740 0.6462 0.6225
H55_4 H 0.3775 0.7260 0.6462
H61_5 H 0.2290 0.3993 0.6706
H62_5 H 0.1007 0.3294 0.7290
H63_5 H 0.1706 0.2710 0.6007
H64_4 H 0.3294 0.6007 0.7290
H65_4 H 0.2710 0.6706 0.6007
H66_4 H 0.3993 0.7290 0.6706
C139_5 C 0.21773(8) 0.36097(9) 0.68418(8)
C140_5 C 0.13903(9) 0.31582(8) 0.71773(8)
C141_5 C 0.18418(8) 0.28227(8) 0.63903(9)
C142_4 C 0.31582(8) 0.63903(9) 0.71773(8)
C143_4 C 0.28227(8) 0.68418(8) 0.63903(9)
C144_4 C 0.36097(9) 0.71773(8) 0.68418(8)
H72_5 H 0.2085 0.3670 0.7011
H73_5 H 0.1330 0.2989 0.7085
H74_5 H 0.2011 0.2915 0.6330
H75_4 H 0.2989 0.6330 0.7085
H76_4 H 0.2915 0.7011 0.6330
H77_4 H 0.3670 0.7085 0.7011
H83_5 H 0.2368 0.3559 0.6883
H84_5 H 0.1441 0.3117 0.7368
H85_5 H 0.1883 0.2632 0.6441
H86_4 H 0.3117 0.6441 0.7368
H87_4 H 0.2632 0.6883 0.6441
H88_4 H 0.3559 0.7368 0.6883
H94_5 H 0.2080 0.3450 0.6765
H95_5 H 0.1550 0.3235 0.7080
H96_5 H 0.1765 0.2920 0.6550
H97_4 H 0.3235 0.6550 0.7080
H98_4 H 0.2920 0.6765 0.6550
H99_4 H 0.3450 0.7080 0.6765
C150_5 C 0.18918(7) 0.42001(7) 0.63518(8)
C151_5 C 0.07999(7) 0.36482(8) 0.68918(7)
C152_5 C 0.13518(8) 0.31082(7) 0.57999(7)
C153_4 C 0.36482(8) 0.57999(7) 0.68918(7)
C154_4 C 0.31082(7) 0.63518(8) 0.57999(7)
C155_4 C 0.42001(7) 0.68918(7) 0.63518(8)
H105_5 H 0.2011 0.4349 0.6426
H106_5 H 0.0651 0.3574 0.7011
H107_5 H 0.1426 0.2989 0.5651
H108_4 H 0.3574 0.5651 0.7011
H109_4 H 0.2989 0.6426 0.5651
H110_4 H 0.4349 0.7011 0.6426
H116_5 H 0.1979 0.4132 0.6180
H117_5 H 0.0868 0.3820 0.6979
H118_5 H 0.1180 0.3021 0.5868
H119_4 H 0.3820 0.5868 0.6979
H120_4 H 0.3021 0.6180 0.5868
H121_4 H 0.4132 0.6979 0.6180
C161_5 C 0.16142(9) 0.43229(9) 0.62789(9)
C162_5 C 0.06771(9) 0.37211(9) 0.66142(9)
C163_5 C 0.12789(9) 0.33858(9) 0.56771(9)
C164_4 C 0.37211(9) 0.56771(9) 0.66142(9)
C165_4 C 0.33858(9) 0.62789(9) 0.56771(9)
C166_4 C 0.43229(9) 0.66142(9) 0.62789(9)
H127_5 H 0.1496 0.4180 0.6200
H128_5 H 0.0820 0.3800 0.6496
H129_5 H 0.1200 0.3504 0.5820
H130_4 H 0.3800 0.5820 0.6496
H131_4 H 0.3504 0.6200 0.5820
H132_4 H 0.4180 0.6496 0.6200
H138_5 H 0.1639 0.4471 0.6144
H139_5 H 0.0529 0.3856 0.6639
H140_5 H 0.1144 0.3361 0.5529
H141_4 H 0.3856 0.5529 0.6639
H142_4 H 0.3361 0.6144 0.5529
H143_4 H 0.4471 0.6639 0.6144
H149_5 H 0.1528 0.4397 0.6445
H150_5 H 0.0603 0.3555 0.6528
H151_5 H 0.1445 0.3472 0.5603
H152_4 H 0.3555 0.5603 0.6528
H153_4 H 0.3472 0.6445 0.5603
H154_4 H 0.4397 0.6528 0.6445
O36_9 O 0.18326(6) 0.5000 0.67758(7)
O37_9 O 0.17758(7) 0.5000 0.81674(6)
O38_9 O 0.31674(6) 0.5000 0.82242(7)
C170_9 C 0.1832(3) 0.5000 0.84525(18)
C171_9 C 0.15475(18) 0.5000 0.6832(3)
C172_9 C 0.34525(18) 0.5000 0.8168(3)
H158_9 H 0.1530(7) 0.5000 0.8165(7)
H159_9 H 0.1835(7) 0.5000 0.6530(7)
H160_9 H 0.3165(7) 0.5000 0.8470(7)
H164_6 H 0.149457 0.518323 0.695026
H165_9 H 0.143319 0.5 0.663888
H166_6 H 0.149457 0.481677 0.695026
H167_6 H 0.350543 0.518323 0.804974
H168_9 H 0.356681 0.5 0.836112
H169_6 H 0.350543 0.481677 0.804974
H170_6 H 0.195026 0.518323 0.850543
H171_9 H 0.163888 0.5 0.856681
H172_6 H 0.195026 0.481677 0.850543
H176_6 H 0.304974 0.518323 0.649457
H177_9 H 0.336112 0.5 0.643319
H178_6 H 0.304974 0.481677 0.649457
Cd9_7 Cd 1.0000 0.224881(5) 0.701728(5)
O4_10 O 0.5000 0.7500 0.2500
O5_10 O 0.5000 0.68326(6) 0.32242(7)
C15_10 C 0.5000 0.65475(18) 0.3168(3)
H14_10 H 0.5000 0.6835(7) 0.3470(7)
Cd9_8 Cd 0.224881(5) 0.701728(5) 0.0000
Cd11_8 Cd 0.298272(5) 0.5000 0.275119(5)
Cd12_9 Cd 0.275119(5) 0.5000 0.201728(5)
O6_7 O 0.53360(4) 0.73896(4) 0.32945(4)
O9_7 O 0.46640(4) 0.67055(4) 0.23896(4)
O11_7 O 0.53360(4) 0.76104(4) 0.17055(4)
O12_6 O 0.46640(4) 0.76104(4) 0.17055(4)
O14_7 O 0.53360(4) 0.82945(4) 0.26104(4)
O15_6 O 0.23896(4) 0.67055(4) 0.03360(4)
O16_6 O 0.32945(4) 0.53360(4) 0.26104(4)
O21_7 O 0.52941(4) 0.76632(4) 0.29351(4)
O22_7 O 0.47059(4) 0.70649(4) 0.26632(4)
O26_7 O 0.52941(4) 0.73368(4) 0.20649(4)
O27_6 O 0.47059(4) 0.73368(4) 0.20649(4)
O29_7 O 0.52941(4) 0.79351(4) 0.23368(4)
O30_6 O 0.26632(4) 0.70649(4) 0.02941(4)
O31_6 O 0.29351(4) 0.52941(4) 0.23368(4)
C19_6 C 0.45976(5) 0.73959(6) 0.18319(6)
C20_6 C 0.26041(6) 0.68319(6) 0.04024(5)
C21_6 C 0.31681(6) 0.54024(5) 0.23959(6)
C29_6 C 0.43770(5) 0.72124(6) 0.17179(6)
C30_6 C 0.27876(6) 0.67179(6) 0.06230(5)
C31_6 C 0.32821(6) 0.56230(5) 0.22124(6)
C40_6 C 0.42865(6) 0.69845(5) 0.18644(6)
C41_6 C 0.30155(5) 0.68644(6) 0.07135(6)
C42_6 C 0.31356(6) 0.57135(6) 0.19845(5)
H17_6 H 0.4370 0.6937 0.2035
H18_6 H 0.3063 0.7035 0.0630
H19_6 H 0.2965 0.5630 0.1937
C51_6 C 0.40736(5) 0.68262(6) 0.17592(6)
C52_6 C 0.31738(6) 0.67592(6) 0.09264(5)
C53_6 C 0.32408(6) 0.59264(5) 0.18262(6)
C62_6 C 0.39433(6) 0.68936(6) 0.15111(6)
C63_6 C 0.34889(6) 0.60567(6) 0.18936(6)
C64_6 C 0.31064(6) 0.65111(6) 0.10567(6)
C73_6 C 0.40427(6) 0.71179(6) 0.13605(6)
C74_6 C 0.36395(6) 0.59573(6) 0.21179(6)
C75_6 C 0.28821(6) 0.63605(6) 0.09573(6)
H28_6 H 0.3963 0.7164 0.1188
H29_6 H 0.3812 0.6037 0.2164
H30_6 H 0.2836 0.6188 0.1037
C84_6 C 0.42583(6) 0.72734(6) 0.14642(6)
C85_6 C 0.35358(6) 0.57417(6) 0.22734(6)
C86_6 C 0.27266(6) 0.64642(6) 0.07417(6)
H39_6 H 0.4327 0.7425 0.1360
H40_6 H 0.3640 0.5673 0.2425
H41_6 H 0.2575 0.6360 0.0673
C95_6 C 0.37178(6) 0.66911(6) 0.14650(6)
C96_6 C 0.35350(6) 0.62822(6) 0.16911(6)
C97_6 C 0.33089(6) 0.64650(6) 0.12822(6)
C106_6 C 0.37299(6) 0.64930(6) 0.16793(6)
C107_6 C 0.35070(6) 0.66793(6) 0.12701(6)
C108_6 C 0.33207(6) 0.62701(6) 0.14930(6)
C117_6 C 0.39584(6) 0.65665(6) 0.18853(6)
C118_6 C 0.34335(6) 0.68853(6) 0.10416(6)
C119_6 C 0.31147(6) 0.60416(6) 0.15665(6)
C128_6 C 0.38415(7) 0.66348(7) 0.21741(7)
C129_6 C 0.33652(7) 0.71741(7) 0.11585(7)
C130_6 C 0.28259(7) 0.61585(7) 0.16348(7)
H50_6 H 0.3775 0.6462 0.2260
H51_6 H 0.3538 0.7260 0.1225
H52_6 H 0.2740 0.6225 0.1462
H61_6 H 0.3993 0.6706 0.2290
H62_6 H 0.3294 0.7290 0.1007
H63_6 H 0.2710 0.6007 0.1706
C139_6 C 0.36097(9) 0.68418(8) 0.21773(8)
C140_6 C 0.31582(8) 0.71773(8) 0.13903(9)
C141_6 C 0.28227(8) 0.63903(9) 0.18418(8)
H72_6 H 0.3670 0.7011 0.2085
H73_6 H 0.2989 0.7085 0.1330
H74_6 H 0.2915 0.6330 0.2011
H83_6 H 0.3559 0.6883 0.2368
H84_6 H 0.3117 0.7368 0.1441
H85_6 H 0.2632 0.6441 0.1883
H94_6 H 0.3450 0.6765 0.2080
H95_6 H 0.3235 0.7080 0.1550
H96_6 H 0.2920 0.6550 0.1765
C150_6 C 0.42001(7) 0.63518(8) 0.18918(7)
C151_6 C 0.36482(8) 0.68918(7) 0.07999(7)
C152_6 C 0.31082(7) 0.57999(7) 0.13518(8)
H105_6 H 0.4349 0.6426 0.2011
H106_6 H 0.3574 0.7011 0.0651
H107_6 H 0.2989 0.5651 0.1426
H116_6 H 0.4132 0.6180 0.1979
H117_6 H 0.3820 0.6979 0.0868
H118_6 H 0.3021 0.5868 0.1180
C161_6 C 0.43229(9) 0.62789(9) 0.16142(9)
C162_6 C 0.37211(9) 0.66142(9) 0.06771(9)
C163_6 C 0.33858(9) 0.56771(9) 0.12789(9)
H127_6 H 0.4180 0.6200 0.1496
H128_6 H 0.3800 0.6496 0.0820
H129_6 H 0.3504 0.5820 0.1200
H138_6 H 0.4471 0.6144 0.1639
H139_6 H 0.3856 0.6639 0.0529
H140_6 H 0.3361 0.5529 0.1144
H149_6 H 0.4397 0.6445 0.1528
H150_6 H 0.3555 0.6528 0.0603
H151_6 H 0.3472 0.5603 0.1445
O36_10 O 0.5000 0.67758(7) 0.18326(6)
O37_10 O 0.5000 0.81674(6) 0.17758(7)
O38_10 O 0.5000 0.82242(7) 0.31674(6)
C170_10 C 0.5000 0.84525(18) 0.1832(3)
C171_10 C 0.5000 0.6832(3) 0.15475(18)
C172_10 C 0.5000 0.8168(3) 0.34525(18)
H158_10 H 0.5000 0.8165(7) 0.1530(7)
H159_10 H 0.5000 0.6530(7) 0.1835(7)
H160_10 H 0.5000 0.8470(7) 0.3165(7)
H164_7 H 0.518323 0.695026 0.149457
H165_10 H 0.5 0.663888 0.143319
H166_7 H 0.481677 0.695026 0.149457
H167_7 H 0.518323 0.804974 0.350543
H168_10 H 0.5 0.836112 0.356681
H169_7 H 0.481677 0.804974 0.350543
H170_7 H 0.518323 0.850543 0.195026
H171_10 H 0.5 0.856681 0.163888
H172_7 H 0.481677 0.850543 0.195026
H176_7 H 0.518323 0.649457 0.304974
H177_10 H 0.5 0.643319 0.336112
H178_7 H 0.481677 0.649457 0.304974
Cd9_9 Cd 0.224881(5) 0.701728(5) 1.0000
Cd7_6 Cd 0.701728(5) 0.0000 0.775119(5)
Cd8_8 Cd 0.724881(5) -0.0000 0.701728(5)
Cd17_6 Cd 0.775119(5) -0.0000 0.798272(5)
Cd18_6 Cd 0.724881(5) 0.798272(5) 0.0000
O2_6 O 0.53360(4) 0.73896(4) 0.67055(4)
O4_11 O 0.5000 0.7500 0.7500
C1_6 C 0.54024(5) 0.76041(6) 0.68319(6)
C2_6 C 0.56230(5) 0.77876(6) 0.67179(6)
C3_6 C 0.57135(6) 0.80155(5) 0.68644(6)
H1_6 H 0.5630 0.8063 0.7035
C4_6 C 0.59264(5) 0.81738(6) 0.67592(6)
C5_6 C 0.60567(6) 0.81064(6) 0.65111(6)
C6_6 C 0.59573(6) 0.78821(6) 0.63605(6)
H2_6 H 0.6037 0.7836 0.6188
C7_6 C 0.57417(6) 0.77266(6) 0.64642(6)
H3_6 H 0.5673 0.7575 0.6360
C8_6 C 0.62822(6) 0.83089(6) 0.64650(6)
C9_6 C 0.64930(6) 0.83207(6) 0.62701(6)
C10_6 C 0.60416(6) 0.84335(6) 0.68853(6)
C11_6 C 0.61585(7) 0.83652(7) 0.71741(7)
H4_6 H 0.6225 0.8538 0.7260
H5_6 H 0.6007 0.8294 0.7290
C12_6 C 0.63903(9) 0.81582(8) 0.71773(8)
H6_6 H 0.6330 0.7989 0.7085
H7_6 H 0.6441 0.8117 0.7368
H8_6 H 0.6550 0.8235 0.7080
C13_6 C 0.57999(7) 0.86482(8) 0.68918(7)
H9_6 H 0.5651 0.8574 0.7011
H10_6 H 0.5868 0.8820 0.6979
C14_6 C 0.56771(9) 0.87211(9) 0.66142(9)
H11_6 H 0.5820 0.8800 0.6496
H12_6 H 0.5529 0.8856 0.6639
H13_6 H 0.5603 0.8555 0.6528
O5_11 O 0.5000 0.68326(6) 0.67758(7)
C15_11 C 0.5000 0.65475(18) 0.6832(3)
H14_11 H 0.5000 0.6835(7) 0.6530(7)
Cd3_8 Cd 0.5000 0.798272(5) 0.724881(5)
Cd5_9 Cd 0.775119(5) 0.798272(5) 0.5000
Cd7_7 Cd 0.701728(5) 1.0000 0.775119(5)
Cd8_9 Cd 0.724881(5) 1.0000 0.701728(5)
Cd17_7 Cd 0.775119(5) 1.0000 0.798272(5)
Cd18_7 Cd 0.724881(5) 0.798272(5) 1.0000
O6_8 O 0.46640(4) 0.73896(4) 0.67055(4)
O7_6 O 0.76104(4) 0.82945(4) 0.53360(4)
O8_6 O 0.67055(4) 0.96640(4) 0.76104(4)
O9_8 O 0.53360(4) 0.67055(4) 0.76104(4)
O11_8 O 0.46640(4) 0.76104(4) 0.82945(4)
O13_5 O 0.53360(4) 0.82945(4) 0.73896(4)
O14_8 O 0.46640(4) 0.82945(4) 0.73896(4)
O19_5 O 0.76104(4) 0.96640(4) 0.82945(4)
O20_5 O 0.67055(4) 0.73896(4) 0.96640(4)
O21_8 O 0.47059(4) 0.76632(4) 0.70649(4)
O22_8 O 0.52941(4) 0.70649(4) 0.73368(4)
O23_6 O 0.52941(4) 0.76632(4) 0.70649(4)
O24_6 O 0.73368(4) 0.79351(4) 0.52941(4)
O25_6 O 0.70649(4) 0.97059(4) 0.73368(4)
O26_8 O 0.47059(4) 0.73368(4) 0.79351(4)
O28_5 O 0.52941(4) 0.79351(4) 0.76632(4)
O29_8 O 0.47059(4) 0.79351(4) 0.76632(4)
O34_5 O 0.73368(4) 0.97059(4) 0.79351(4)
O35_5 O 0.70649(4) 0.76632(4) 0.97059(4)
C17_6 C 0.73959(6) 0.81681(6) 0.54024(5)
C18_6 C 0.68319(6) 0.95976(5) 0.73959(6)
C24_5 C 0.54024(5) 0.81681(6) 0.76041(6)
C25_5 C 0.73959(6) 0.95976(5) 0.81681(6)
C26_5 C 0.68319(6) 0.76041(6) 0.95976(5)
C27_6 C 0.72124(6) 0.82821(6) 0.56230(5)
C28_6 C 0.67179(6) 0.93770(5) 0.72124(6)
C35_5 C 0.56230(5) 0.82821(6) 0.77876(6)
C36_5 C 0.72124(6) 0.93770(5) 0.82821(6)
C37_5 C 0.67179(6) 0.77876(6) 0.93770(5)
C38_6 C 0.69845(5) 0.81356(6) 0.57135(6)
C39_6 C 0.68644(6) 0.92865(6) 0.69845(5)
C46_5 C 0.57135(6) 0.81356(6) 0.80155(5)
C47_5 C 0.69845(5) 0.92865(6) 0.81356(6)
C48_5 C 0.68644(6) 0.80155(5) 0.92865(6)
H15_6 H 0.6937 0.7965 0.5630
H16_6 H 0.7035 0.9370 0.6937
H23_5 H 0.5630 0.7965 0.8063
H24_5 H 0.6937 0.9370 0.7965
H25_5 H 0.7035 0.8063 0.9370
C49_6 C 0.68262(6) 0.82408(6) 0.59264(5)
C50_6 C 0.67592(6) 0.90736(5) 0.68262(6)
C57_5 C 0.59264(5) 0.82408(6) 0.81738(6)
C58_5 C 0.68262(6) 0.90736(5) 0.82408(6)
C59_5 C 0.67592(6) 0.81738(6) 0.90736(5)
C60_6 C 0.68936(6) 0.84889(6) 0.60567(6)
C61_6 C 0.65111(6) 0.89433(6) 0.68936(6)
C68_5 C 0.60567(6) 0.84889(6) 0.81064(6)
C69_5 C 0.65111(6) 0.81064(6) 0.89433(6)
C70_5 C 0.68936(6) 0.89433(6) 0.84889(6)
C71_6 C 0.71179(6) 0.86395(6) 0.59573(6)
C72_6 C 0.63605(6) 0.90427(6) 0.71179(6)
C79_5 C 0.59573(6) 0.86395(6) 0.78821(6)
C80_5 C 0.63605(6) 0.78821(6) 0.90427(6)
C81_5 C 0.71179(6) 0.90427(6) 0.86395(6)
H26_6 H 0.7164 0.8812 0.6037
H27_6 H 0.6188 0.8963 0.7164
H34_5 H 0.6037 0.8812 0.7836
H35_5 H 0.6188 0.7836 0.8963
H36_5 H 0.7164 0.8963 0.8812
C82_6 C 0.72734(6) 0.85358(6) 0.57417(6)
C83_6 C 0.64642(6) 0.92583(6) 0.72734(6)
C90_5 C 0.57417(6) 0.85358(6) 0.77266(6)
C91_5 C 0.64642(6) 0.77266(6) 0.92583(6)
C92_5 C 0.72734(6) 0.92583(6) 0.85358(6)
H37_6 H 0.7425 0.8640 0.5673
H38_6 H 0.6360 0.9327 0.7425
H45_5 H 0.5673 0.8640 0.7575
H46_5 H 0.6360 0.7575 0.9327
H47_5 H 0.7425 0.9327 0.8640
C93_6 C 0.66911(6) 0.85350(6) 0.62822(6)
C94_6 C 0.64650(6) 0.87178(6) 0.66911(6)
C101_5 C 0.62822(6) 0.85350(6) 0.83089(6)
C102_5 C 0.64650(6) 0.83089(6) 0.87178(6)
C103_5 C 0.66911(6) 0.87178(6) 0.85350(6)
C104_6 C 0.62701(6) 0.85070(6) 0.66793(6)
C105_6 C 0.66793(6) 0.87299(6) 0.64930(6)
C112_5 C 0.62701(6) 0.83207(6) 0.85070(6)
C113_5 C 0.64930(6) 0.87299(6) 0.83207(6)
C114_5 C 0.66793(6) 0.85070(6) 0.87299(6)
C115_6 C 0.65665(6) 0.81147(6) 0.60416(6)
C116_6 C 0.68853(6) 0.89584(6) 0.65665(6)
C123_5 C 0.60416(6) 0.81147(6) 0.84335(6)
C124_5 C 0.65665(6) 0.89584(6) 0.81147(6)
C125_5 C 0.68853(6) 0.84335(6) 0.89584(6)
C126_6 C 0.66348(7) 0.78259(7) 0.61585(7)
C127_6 C 0.71741(7) 0.88415(7) 0.66348(7)
C134_5 C 0.61585(7) 0.78259(7) 0.83652(7)
C135_5 C 0.66348(7) 0.88415(7) 0.78259(7)
C136_5 C 0.71741(7) 0.83652(7) 0.88415(7)
H48_6 H 0.6462 0.7740 0.6225
H49_6 H 0.7260 0.8775 0.6462
H56_5 H 0.6225 0.7740 0.8538
H57_5 H 0.6462 0.8775 0.7740
H58_5 H 0.7260 0.8538 0.8775
H59_6 H 0.6706 0.7710 0.6007
H60_6 H 0.7290 0.8993 0.6706
H67_5 H 0.6007 0.7710 0.8294
H68_5 H 0.6706 0.8993 0.7710
H69_5 H 0.7290 0.8294 0.8993
C137_6 C 0.68418(8) 0.78227(8) 0.63903(9)
C138_6 C 0.71773(8) 0.86097(9) 0.68418(8)
C145_5 C 0.63903(9) 0.78227(8) 0.81582(8)
C146_5 C 0.68418(8) 0.86097(9) 0.78227(8)
C147_5 C 0.71773(8) 0.81582(8) 0.86097(9)
H70_6 H 0.7011 0.7915 0.6330
H71_6 H 0.7085 0.8670 0.7011
H78_5 H 0.6330 0.7915 0.7989
H79_5 H 0.7011 0.8670 0.7915
H80_5 H 0.7085 0.7989 0.8670
H81_6 H 0.6883 0.7632 0.6441
H82_6 H 0.7368 0.8559 0.6883
H89_5 H 0.6441 0.7632 0.8117
H90_5 H 0.6883 0.8559 0.7632
H91_5 H 0.7368 0.8117 0.8559
H92_6 H 0.6765 0.7920 0.6550
H93_6 H 0.7080 0.8450 0.6765
H100_5 H 0.6550 0.7920 0.8235
H101_5 H 0.6765 0.8450 0.7920
H102_5 H 0.7080 0.8235 0.8450
C148_6 C 0.63518(8) 0.81082(7) 0.57999(7)
C149_6 C 0.68918(7) 0.92001(7) 0.63518(8)
C156_5 C 0.57999(7) 0.81082(7) 0.86482(8)
C157_5 C 0.63518(8) 0.92001(7) 0.81082(7)
C158_5 C 0.68918(7) 0.86482(8) 0.92001(7)
H103_6 H 0.6426 0.7989 0.5651
H104_6 H 0.7011 0.9349 0.6426
H111_5 H 0.5651 0.7989 0.8574
H112_5 H 0.6426 0.9349 0.7989
H113_5 H 0.7011 0.8574 0.9349
H114_6 H 0.6180 0.8021 0.5868
H115_6 H 0.6979 0.9132 0.6180
H122_5 H 0.5868 0.8021 0.8820
H123_5 H 0.6180 0.9132 0.8021
H124_5 H 0.6979 0.8820 0.9132
C159_6 C 0.62789(9) 0.83858(9) 0.56771(9)
C160_6 C 0.66142(9) 0.93229(9) 0.62789(9)
C167_5 C 0.56771(9) 0.83858(9) 0.87211(9)
C168_5 C 0.62789(9) 0.93229(9) 0.83858(9)
C169_5 C 0.66142(9) 0.87211(9) 0.93229(9)
H125_6 H 0.6200 0.8504 0.5820
H126_6 H 0.6496 0.9180 0.6200
H133_5 H 0.5820 0.8504 0.8800
H134_5 H 0.6200 0.9180 0.8504
H135_5 H 0.6496 0.8800 0.9180
H136_6 H 0.6144 0.8361 0.5529
H137_6 H 0.6639 0.9471 0.6144
H144_5 H 0.5529 0.8361 0.8856
H145_5 H 0.6144 0.9471 0.8361
H146_5 H 0.6639 0.8856 0.9471
H147_6 H 0.6445 0.8472 0.5603
H148_6 H 0.6528 0.9397 0.6445
H155_5 H 0.5603 0.8472 0.8555
H156_5 H 0.6445 0.9397 0.8472
H157_5 H 0.6528 0.8555 0.9397
O36_11 O 0.5000 0.67758(7) 0.81674(6)
O37_11 O 0.5000 0.81674(6) 0.82242(7)
O38_11 O 0.5000 0.82242(7) 0.68326(6)
C170_11 C 0.5000 0.84525(18) 0.8168(3)
C171_11 C 0.5000 0.6832(3) 0.84525(18)
C172_11 C 0.5000 0.8168(3) 0.65475(18)
H158_11 H 0.5000 0.8165(7) 0.8470(7)
H159_11 H 0.5000 0.6530(7) 0.8165(7)
H160_11 H 0.5000 0.8470(7) 0.6835(7)
H164_8 H 0.481677 0.695026 0.850543
H165_11 H 0.5 0.663888 0.856681
H166_8 H 0.518323 0.695026 0.850543
H167_8 H 0.481677 0.804974 0.649457
H168_11 H 0.5 0.836112 0.643319
H169_8 H 0.518323 0.804974 0.649457
H170_8 H 0.481677 0.850543 0.804974
H171_11 H 0.5 0.856681 0.836112
H172_8 H 0.518323 0.850543 0.804974
H176_8 H 0.481677 0.649457 0.695026
H177_11 H 0.5 0.643319 0.663888
H178_8 H 0.518323 0.649457 0.695026
O2_7 O 0.46640(4) 0.26104(4) 0.67055(4)
O4_12 O 0.5000 0.2500 0.7500
C1_7 C 0.45976(5) 0.23959(6) 0.68319(6)
C2_7 C 0.43770(5) 0.22124(6) 0.67179(6)
C3_7 C 0.42865(6) 0.19845(5) 0.68644(6)
H1_7 H 0.4370 0.1937 0.7035
C4_7 C 0.40736(5) 0.18262(6) 0.67592(6)
C5_7 C 0.39433(6) 0.18936(6) 0.65111(6)
C6_7 C 0.40427(6) 0.21179(6) 0.63605(6)
H2_7 H 0.3963 0.2164 0.6188
C7_7 C 0.42583(6) 0.22734(6) 0.64642(6)
H3_7 H 0.4327 0.2425 0.6360
C8_7 C 0.37178(6) 0.16911(6) 0.64650(6)
C9_7 C 0.35070(6) 0.16793(6) 0.62701(6)
C10_7 C 0.39584(6) 0.15665(6) 0.68853(6)
C11_7 C 0.38415(7) 0.16348(7) 0.71741(7)
H4_7 H 0.3775 0.1462 0.7260
H5_7 H 0.3993 0.1706 0.7290
C12_7 C 0.36097(9) 0.18418(8) 0.71773(8)
H6_7 H 0.3670 0.2011 0.7085
H7_7 H 0.3559 0.1883 0.7368
H8_7 H 0.3450 0.1765 0.7080
C13_7 C 0.42001(7) 0.13518(8) 0.68918(7)
H9_7 H 0.4349 0.1426 0.7011
H10_7 H 0.4132 0.1180 0.6979
C14_7 C 0.43229(9) 0.12789(9) 0.66142(9)
H11_7 H 0.4180 0.1200 0.6496
H12_7 H 0.4471 0.1144 0.6639
H13_7 H 0.4397 0.1445 0.6528
O5_12 O 0.5000 0.31674(6) 0.67758(7)
C15_12 C 0.5000 0.34525(18) 0.6832(3)
H14_12 H 0.5000 0.3165(7) 0.6530(7)
Cd5_10 Cd 0.224881(5) 0.201728(5) 0.5000
Cd6_9 Cd 0.298272(5) 0.224881(5) 0.5000
Cd8_10 Cd 0.275119(5) -0.0000 0.701728(5)
O6_9 O 0.53360(4) 0.26104(4) 0.67055(4)
O7_7 O 0.23896(4) 0.17055(4) 0.53360(4)
O8_7 O 0.32945(4) 0.03360(4) 0.76104(4)
O9_9 O 0.46640(4) 0.32945(4) 0.76104(4)
O11_9 O 0.53360(4) 0.23896(4) 0.82945(4)
O14_9 O 0.53360(4) 0.17055(4) 0.73896(4)
O21_9 O 0.52941(4) 0.23368(4) 0.70649(4)
O22_9 O 0.47059(4) 0.29351(4) 0.73368(4)
O23_7 O 0.47059(4) 0.23368(4) 0.70649(4)
O24_7 O 0.26632(4) 0.20649(4) 0.52941(4)
O25_7 O 0.29351(4) 0.02941(4) 0.73368(4)
O26_9 O 0.52941(4) 0.26632(4) 0.79351(4)
O29_9 O 0.52941(4) 0.20649(4) 0.76632(4)
C17_7 C 0.26041(6) 0.18319(6) 0.54024(5)
C18_7 C 0.31681(6) 0.04024(5) 0.73959(6)
C27_7 C 0.27876(6) 0.17179(6) 0.56230(5)
C28_7 C 0.32821(6) 0.06230(5) 0.72124(6)
C38_7 C 0.30155(5) 0.18644(6) 0.57135(6)
C39_7 C 0.31356(6) 0.07135(6) 0.69845(5)
H15_7 H 0.3063 0.2035 0.5630
H16_7 H 0.2965 0.0630 0.6937
C49_7 C 0.31738(6) 0.17592(6) 0.59264(5)
C50_7 C 0.32408(6) 0.09264(5) 0.68262(6)
C60_7 C 0.31064(6) 0.15111(6) 0.60567(6)
C61_7 C 0.34889(6) 0.10567(6) 0.68936(6)
C71_7 C 0.28821(6) 0.13605(6) 0.59573(6)
C72_7 C 0.36395(6) 0.09573(6) 0.71179(6)
H26_7 H 0.2836 0.1188 0.6037
H27_7 H 0.3812 0.1037 0.7164
C82_7 C 0.27266(6) 0.14642(6) 0.57417(6)
C83_7 C 0.35358(6) 0.07417(6) 0.72734(6)
H37_7 H 0.2575 0.1360 0.5673
H38_7 H 0.3640 0.0673 0.7425
C93_7 C 0.33089(6) 0.14650(6) 0.62822(6)
C94_7 C 0.35350(6) 0.12822(6) 0.66911(6)
C104_7 C 0.37299(6) 0.14930(6) 0.66793(6)
C105_7 C 0.33207(6) 0.12701(6) 0.64930(6)
C115_7 C 0.34335(6) 0.18853(6) 0.60416(6)
C116_7 C 0.31147(6) 0.10416(6) 0.65665(6)
C126_7 C 0.33652(7) 0.21741(7) 0.61585(7)
C127_7 C 0.28259(7) 0.11585(7) 0.66348(7)
H48_7 H 0.3538 0.2260 0.6225
H49_7 H 0.2740 0.1225 0.6462
H59_7 H 0.3294 0.2290 0.6007
H60_7 H 0.2710 0.1007 0.6706
C137_7 C 0.31582(8) 0.21773(8) 0.63903(9)
C138_7 C 0.28227(8) 0.13903(9) 0.68418(8)
H70_7 H 0.2989 0.2085 0.6330
H71_7 H 0.2915 0.1330 0.7011
H81_7 H 0.3117 0.2368 0.6441
H82_7 H 0.2632 0.1441 0.6883
H92_7 H 0.3235 0.2080 0.6550
H93_7 H 0.2920 0.1550 0.6765
C148_7 C 0.36482(8) 0.18918(7) 0.57999(7)
C149_7 C 0.31082(7) 0.07999(7) 0.63518(8)
H103_7 H 0.3574 0.2011 0.5651
H104_7 H 0.2989 0.0651 0.6426
H114_7 H 0.3820 0.1979 0.5868
H115_7 H 0.3021 0.0868 0.6180
C159_7 C 0.37211(9) 0.16142(9) 0.56771(9)
C160_7 C 0.33858(9) 0.06771(9) 0.62789(9)
H125_7 H 0.3800 0.1496 0.5820
H126_7 H 0.3504 0.0820 0.6200
H136_7 H 0.3856 0.1639 0.5529
H137_7 H 0.3361 0.0529 0.6144
H147_7 H 0.3555 0.1528 0.5603
H148_7 H 0.3472 0.0603 0.6445
O36_12 O 0.5000 0.32242(7) 0.81674(6)
O37_12 O 0.5000 0.18326(6) 0.82242(7)
O38_12 O 0.5000 0.17758(7) 0.68326(6)
C170_12 C 0.5000 0.15475(18) 0.8168(3)
C171_12 C 0.5000 0.3168(3) 0.84525(18)
C172_12 C 0.5000 0.1832(3) 0.65475(18)
H158_12 H 0.5000 0.1835(7) 0.8470(7)
H159_12 H 0.5000 0.3470(7) 0.8165(7)
H160_12 H 0.5000 0.1530(7) 0.6835(7)
H164_9 H 0.518323 0.304974 0.850543
H165_12 H 0.5 0.336112 0.856681
H166_9 H 0.481677 0.304974 0.850543
H167_9 H 0.518323 0.195026 0.649457
H168_12 H 0.5 0.163888 0.643319
H169_9 H 0.481677 0.195026 0.649457
H170_9 H 0.518323 0.149457 0.804974
H171_12 H 0.5 0.143319 0.836112
H172_9 H 0.481677 0.149457 0.804974
H176_9 H 0.518323 0.350543 0.695026
H177_12 H 0.5 0.356681 0.663888
H178_9 H 0.481677 0.350543 0.695026
Cd8_11 Cd 0.275119(5) 1.0000 0.701728(5)
Cd17_8 Cd -0.0000 0.798272(5) 0.775119(5)
Cd18_8 Cd 0.798272(5) -0.0000 0.724881(5)
O4_13 O 0.7500 0.7500 0.5000
O5_13 O 0.68326(6) 0.67758(7) 0.5000
C15_13 C 0.65475(18) 0.6832(3) 0.5000
H14_13 H 0.6835(7) 0.6530(7) 0.5000
Cd17_9 Cd 1.0000 0.798272(5) 0.775119(5)
Cd18_9 Cd 0.798272(5) 1.0000 0.724881(5)
O6_10 O 0.73896(4) 0.67055(4) 0.46640(4)
O9_10 O 0.67055(4) 0.76104(4) 0.53360(4)
O11_10 O 0.76104(4) 0.82945(4) 0.46640(4)
O13_6 O 0.82945(4) 0.73896(4) 0.53360(4)
O14_10 O 0.82945(4) 0.73896(4) 0.46640(4)
O19_6 O 0.96640(4) 0.82945(4) 0.76104(4)
O20_6 O 0.73896(4) 0.96640(4) 0.67055(4)
O21_10 O 0.76632(4) 0.70649(4) 0.47059(4)
O22_10 O 0.70649(4) 0.73368(4) 0.52941(4)
O26_10 O 0.73368(4) 0.79351(4) 0.47059(4)
O28_6 O 0.79351(4) 0.76632(4) 0.52941(4)
O29_10 O 0.79351(4) 0.76632(4) 0.47059(4)
O34_6 O 0.97059(4) 0.79351(4) 0.73368(4)
O35_6 O 0.76632(4) 0.97059(4) 0.70649(4)
C24_6 C 0.81681(6) 0.76041(6) 0.54024(5)
C25_6 C 0.95976(5) 0.81681(6) 0.73959(6)
C26_6 C 0.76041(6) 0.95976(5) 0.68319(6)
C35_6 C 0.82821(6) 0.77876(6) 0.56230(5)
C36_6 C 0.93770(5) 0.82821(6) 0.72124(6)
C37_6 C 0.77876(6) 0.93770(5) 0.67179(6)
C46_6 C 0.81356(6) 0.80155(5) 0.57135(6)
C47_6 C 0.92865(6) 0.81356(6) 0.69845(5)
C48_6 C 0.80155(5) 0.92865(6) 0.68644(6)
H23_6 H 0.7965 0.8063 0.5630
H24_6 H 0.9370 0.7965 0.6937
H25_6 H 0.8063 0.9370 0.7035
C57_6 C 0.82408(6) 0.81738(6) 0.59264(5)
C58_6 C 0.90736(5) 0.82408(6) 0.68262(6)
C59_6 C 0.81738(6) 0.90736(5) 0.67592(6)
C68_6 C 0.84889(6) 0.81064(6) 0.60567(6)
C69_6 C 0.81064(6) 0.89433(6) 0.65111(6)
C70_6 C 0.89433(6) 0.84889(6) 0.68936(6)
C79_6 C 0.86395(6) 0.78821(6) 0.59573(6)
C80_6 C 0.78821(6) 0.90427(6) 0.63605(6)
C81_6 C 0.90427(6) 0.86395(6) 0.71179(6)
H34_6 H 0.8812 0.7836 0.6037
H35_6 H 0.7836 0.8963 0.6188
H36_6 H 0.8963 0.8812 0.7164
C90_6 C 0.85358(6) 0.77266(6) 0.57417(6)
C91_6 C 0.77266(6) 0.92583(6) 0.64642(6)
C92_6 C 0.92583(6) 0.85358(6) 0.72734(6)
H45_6 H 0.8640 0.7575 0.5673
H46_6 H 0.7575 0.9327 0.6360
H47_6 H 0.9327 0.8640 0.7425
C101_6 C 0.85350(6) 0.83089(6) 0.62822(6)
C102_6 C 0.83089(6) 0.87178(6) 0.64650(6)
C103_6 C 0.87178(6) 0.85350(6) 0.66911(6)
C112_6 C 0.83207(6) 0.85070(6) 0.62701(6)
C113_6 C 0.87299(6) 0.83207(6) 0.64930(6)
C114_6 C 0.85070(6) 0.87299(6) 0.66793(6)
C123_6 C 0.81147(6) 0.84335(6) 0.60416(6)
C124_6 C 0.89584(6) 0.81147(6) 0.65665(6)
C125_6 C 0.84335(6) 0.89584(6) 0.68853(6)
C134_6 C 0.78259(7) 0.83652(7) 0.61585(7)
C135_6 C 0.88415(7) 0.78259(7) 0.66348(7)
C136_6 C 0.83652(7) 0.88415(7) 0.71741(7)
H56_6 H 0.7740 0.8538 0.6225
H57_6 H 0.8775 0.7740 0.6462
H58_6 H 0.8538 0.8775 0.7260
H67_6 H 0.7710 0.8294 0.6007
H68_6 H 0.8993 0.7710 0.6706
H69_6 H 0.8294 0.8993 0.7290
C145_6 C 0.78227(8) 0.81582(8) 0.63903(9)
C146_6 C 0.86097(9) 0.78227(8) 0.68418(8)
C147_6 C 0.81582(8) 0.86097(9) 0.71773(8)
H78_6 H 0.7915 0.7989 0.6330
H79_6 H 0.8670 0.7915 0.7011
H80_6 H 0.7989 0.8670 0.7085
H89_6 H 0.7632 0.8117 0.6441
H90_6 H 0.8559 0.7632 0.6883
H91_6 H 0.8117 0.8559 0.7368
H100_6 H 0.7920 0.8235 0.6550
H101_6 H 0.8450 0.7920 0.6765
H102_6 H 0.8235 0.8450 0.7080
C156_6 C 0.81082(7) 0.86482(8) 0.57999(7)
C157_6 C 0.92001(7) 0.81082(7) 0.63518(8)
C158_6 C 0.86482(8) 0.92001(7) 0.68918(7)
H111_6 H 0.7989 0.8574 0.5651
H112_6 H 0.9349 0.7989 0.6426
H113_6 H 0.8574 0.9349 0.7011
H122_6 H 0.8021 0.8820 0.5868
H123_6 H 0.9132 0.8021 0.6180
H124_6 H 0.8820 0.9132 0.6979
C167_6 C 0.83858(9) 0.87211(9) 0.56771(9)
C168_6 C 0.93229(9) 0.83858(9) 0.62789(9)
C169_6 C 0.87211(9) 0.93229(9) 0.66142(9)
H133_6 H 0.8504 0.8800 0.5820
H134_6 H 0.9180 0.8504 0.6200
H135_6 H 0.8800 0.9180 0.6496
H144_6 H 0.8361 0.8856 0.5529
H145_6 H 0.9471 0.8361 0.6144
H146_6 H 0.8856 0.9471 0.6639
H155_6 H 0.8472 0.8555 0.5603
H156_6 H 0.9397 0.8472 0.6445
H157_6 H 0.8555 0.9397 0.6528
O36_13 O 0.67758(7) 0.81674(6) 0.5000
O37_13 O 0.81674(6) 0.82242(7) 0.5000
O38_13 O 0.82242(7) 0.68326(6) 0.5000
C170_13 C 0.84525(18) 0.8168(3) 0.5000
C171_13 C 0.6832(3) 0.84525(18) 0.5000
C172_13 C 0.8168(3) 0.65475(18) 0.5000
H158_13 H 0.8165(7) 0.8470(7) 0.5000
H159_13 H 0.6530(7) 0.8165(7) 0.5000
H160_13 H 0.8470(7) 0.6835(7) 0.5000
H164_10 H 0.695026 0.850543 0.481677
H165_13 H 0.663888 0.856681 0.5
H166_10 H 0.695026 0.850543 0.518323
H167_10 H 0.804974 0.649457 0.481677
H168_13 H 0.836112 0.643319 0.5
H169_10 H 0.804974 0.649457 0.518323
H170_10 H 0.850543 0.804974 0.481677
H171_13 H 0.856681 0.836112 0.5
H172_10 H 0.850543 0.804974 0.518323
H176_10 H 0.649457 0.695026 0.481677
H177_13 H 0.643319 0.663888 0.5
H178_10 H 0.649457 0.695026 0.518323
O4_14 O 0.7500 0.2500 0.5000
O5_14 O 0.68326(6) 0.32242(7) 0.5000
C15_14 C 0.65475(18) 0.3168(3) 0.5000
H14_14 H 0.6835(7) 0.3470(7) 0.5000
Cd9_10 Cd 0.701728(5) 0.0000 0.224881(5)
Cd11_9 Cd 0.5000 0.275119(5) 0.298272(5)
Cd12_10 Cd 0.5000 0.201728(5) 0.275119(5)
O6_11 O 0.73896(4) 0.32945(4) 0.53360(4)
O9_11 O 0.67055(4) 0.23896(4) 0.46640(4)
O11_11 O 0.76104(4) 0.17055(4) 0.53360(4)
O12_7 O 0.76104(4) 0.17055(4) 0.46640(4)
O14_11 O 0.82945(4) 0.26104(4) 0.53360(4)
O15_7 O 0.67055(4) 0.03360(4) 0.23896(4)
O16_7 O 0.53360(4) 0.26104(4) 0.32945(4)
O21_11 O 0.76632(4) 0.29351(4) 0.52941(4)
O22_11 O 0.70649(4) 0.26632(4) 0.47059(4)
O26_11 O 0.73368(4) 0.20649(4) 0.52941(4)
O27_7 O 0.73368(4) 0.20649(4) 0.47059(4)
O29_11 O 0.79351(4) 0.23368(4) 0.52941(4)
O30_7 O 0.70649(4) 0.02941(4) 0.26632(4)
O31_7 O 0.52941(4) 0.23368(4) 0.29351(4)
C19_7 C 0.73959(6) 0.18319(6) 0.45976(5)
C20_7 C 0.68319(6) 0.04024(5) 0.26041(6)
C21_7 C 0.54024(5) 0.23959(6) 0.31681(6)
C29_7 C 0.72124(6) 0.17179(6) 0.43770(5)
C30_7 C 0.67179(6) 0.06230(5) 0.27876(6)
C31_7 C 0.56230(5) 0.22124(6) 0.32821(6)
C40_7 C 0.69845(5) 0.18644(6) 0.42865(6)
C41_7 C 0.68644(6) 0.07135(6) 0.30155(5)
C42_7 C 0.57135(6) 0.19845(5) 0.31356(6)
H17_7 H 0.6937 0.2035 0.4370
H18_7 H 0.7035 0.0630 0.3063
H19_7 H 0.5630 0.1937 0.2965
C51_7 C 0.68262(6) 0.17592(6) 0.40736(5)
C52_7 C 0.67592(6) 0.09264(5) 0.31738(6)
C53_7 C 0.59264(5) 0.18262(6) 0.32408(6)
C62_7 C 0.68936(6) 0.15111(6) 0.39433(6)
C63_7 C 0.60567(6) 0.18936(6) 0.34889(6)
C64_7 C 0.65111(6) 0.10567(6) 0.31064(6)
C73_7 C 0.71179(6) 0.13605(6) 0.40427(6)
C74_7 C 0.59573(6) 0.21179(6) 0.36395(6)
C75_7 C 0.63605(6) 0.09573(6) 0.28821(6)
H28_7 H 0.7164 0.1188 0.3963
H29_7 H 0.6037 0.2164 0.3812
H30_7 H 0.6188 0.1037 0.2836
C84_7 C 0.72734(6) 0.14642(6) 0.42583(6)
C85_7 C 0.57417(6) 0.22734(6) 0.35358(6)
C86_7 C 0.64642(6) 0.07417(6) 0.27266(6)
H39_7 H 0.7425 0.1360 0.4327
H40_7 H 0.5673 0.2425 0.3640
H41_7 H 0.6360 0.0673 0.2575
C95_7 C 0.66911(6) 0.14650(6) 0.37178(6)
C96_7 C 0.62822(6) 0.16911(6) 0.35350(6)
C97_7 C 0.64650(6) 0.12822(6) 0.33089(6)
C106_7 C 0.64930(6) 0.16793(6) 0.37299(6)
C107_7 C 0.66793(6) 0.12701(6) 0.35070(6)
C108_7 C 0.62701(6) 0.14930(6) 0.33207(6)
C117_7 C 0.65665(6) 0.18853(6) 0.39584(6)
C118_7 C 0.68853(6) 0.10416(6) 0.34335(6)
C119_7 C 0.60416(6) 0.15665(6) 0.31147(6)
C128_7 C 0.66348(7) 0.21741(7) 0.38415(7)
C129_7 C 0.71741(7) 0.11585(7) 0.33652(7)
C130_7 C 0.61585(7) 0.16348(7) 0.28259(7)
H50_7 H 0.6462 0.2260 0.3775
H51_7 H 0.7260 0.1225 0.3538
H52_7 H 0.6225 0.1462 0.2740
H61_7 H 0.6706 0.2290 0.3993
H62_7 H 0.7290 0.1007 0.3294
H63_7 H 0.6007 0.1706 0.2710
C139_7 C 0.68418(8) 0.21773(8) 0.36097(9)
C140_7 C 0.71773(8) 0.13903(9) 0.31582(8)
C141_7 C 0.63903(9) 0.18418(8) 0.28227(8)
H72_7 H 0.7011 0.2085 0.3670
H73_7 H 0.7085 0.1330 0.2989
H74_7 H 0.6330 0.2011 0.2915
H83_7 H 0.6883 0.2368 0.3559
H84_7 H 0.7368 0.1441 0.3117
H85_7 H 0.6441 0.1883 0.2632
H94_7 H 0.6765 0.2080 0.3450
H95_7 H 0.7080 0.1550 0.3235
H96_7 H 0.6550 0.1765 0.2920
C150_7 C 0.63518(8) 0.18918(7) 0.42001(7)
C151_7 C 0.68918(7) 0.07999(7) 0.36482(8)
C152_7 C 0.57999(7) 0.13518(8) 0.31082(7)
H105_7 H 0.6426 0.2011 0.4349
H106_7 H 0.7011 0.0651 0.3574
H107_7 H 0.5651 0.1426 0.2989
H116_7 H 0.6180 0.1979 0.4132
H117_7 H 0.6979 0.0868 0.3820
H118_7 H 0.5868 0.1180 0.3021
C161_7 C 0.62789(9) 0.16142(9) 0.43229(9)
C162_7 C 0.66142(9) 0.06771(9) 0.37211(9)
C163_7 C 0.56771(9) 0.12789(9) 0.33858(9)
H127_7 H 0.6200 0.1496 0.4180
H128_7 H 0.6496 0.0820 0.3800
H129_7 H 0.5820 0.1200 0.3504
H138_7 H 0.6144 0.1639 0.4471
H139_7 H 0.6639 0.0529 0.3856
H140_7 H 0.5529 0.1144 0.3361
H149_7 H 0.6445 0.1528 0.4397
H150_7 H 0.6528 0.0603 0.3555
H151_7 H 0.5603 0.1445 0.3472
O36_14 O 0.67758(7) 0.18326(6) 0.5000
O37_14 O 0.81674(6) 0.17758(7) 0.5000
O38_14 O 0.82242(7) 0.31674(6) 0.5000
C170_14 C 0.84525(18) 0.1832(3) 0.5000
C171_14 C 0.6832(3) 0.15475(18) 0.5000
C172_14 C 0.8168(3) 0.34525(18) 0.5000
H158_14 H 0.8165(7) 0.1530(7) 0.5000
H159_14 H 0.6530(7) 0.1835(7) 0.5000
H160_14 H 0.8470(7) 0.3165(7) 0.5000
H164_11 H 0.695026 0.149457 0.518323
H165_14 H 0.663888 0.143319 0.5
H166_11 H 0.695026 0.149457 0.481677
H167_11 H 0.804974 0.350543 0.518323
H168_14 H 0.836112 0.356681 0.5
H169_11 H 0.804974 0.350543 0.481677
H170_11 H 0.850543 0.195026 0.518323
H171_14 H 0.856681 0.163888 0.5
H172_11 H 0.850543 0.195026 0.481677
H176_11 H 0.649457 0.304974 0.518323
H177_14 H 0.643319 0.336112 0.5
H178_11 H 0.649457 0.304974 0.481677
Cd9_11 Cd 0.701728(5) 1.0000 0.224881(5)
O2_8 O 0.26104(4) 0.67055(4) 0.46640(4)
O4_15 O 0.2500 0.7500 0.5000
C1_8 C 0.23959(6) 0.68319(6) 0.45976(5)
C2_8 C 0.22124(6) 0.67179(6) 0.43770(5)
C3_8 C 0.19845(5) 0.68644(6) 0.42865(6)
H1_8 H 0.1937 0.7035 0.4370
C4_8 C 0.18262(6) 0.67592(6) 0.40736(5)
C5_8 C 0.18936(6) 0.65111(6) 0.39433(6)
C6_8 C 0.21179(6) 0.63605(6) 0.40427(6)
H2_8 H 0.2164 0.6188 0.3963
C7_8 C 0.22734(6) 0.64642(6) 0.42583(6)
H3_8 H 0.2425 0.6360 0.4327
C8_8 C 0.16911(6) 0.64650(6) 0.37178(6)
C9_8 C 0.16793(6) 0.62701(6) 0.35070(6)
C10_8 C 0.15665(6) 0.68853(6) 0.39584(6)
C11_8 C 0.16348(7) 0.71741(7) 0.38415(7)
H4_8 H 0.1462 0.7260 0.3775
H5_8 H 0.1706 0.7290 0.3993
C12_8 C 0.18418(8) 0.71773(8) 0.36097(9)
H6_8 H 0.2011 0.7085 0.3670
H7_8 H 0.1883 0.7368 0.3559
H8_8 H 0.1765 0.7080 0.3450
C13_8 C 0.13518(8) 0.68918(7) 0.42001(7)
H9_8 H 0.1426 0.7011 0.4349
H10_8 H 0.1180 0.6979 0.4132
C14_8 C 0.12789(9) 0.66142(9) 0.43229(9)
H11_8 H 0.1200 0.6496 0.4180
H12_8 H 0.1144 0.6639 0.4471
H13_8 H 0.1445 0.6528 0.4397
O5_15 O 0.31674(6) 0.67758(7) 0.5000
C15_15 C 0.34525(18) 0.6832(3) 0.5000
H14_15 H 0.3165(7) 0.6530(7) 0.5000
Cd5_11 Cd 0.201728(5) 0.5000 0.224881(5)
Cd6_10 Cd 0.224881(5) 0.5000 0.298272(5)
Cd8_12 Cd -0.0000 0.701728(5) 0.275119(5)
O6_12 O 0.26104(4) 0.67055(4) 0.53360(4)
O7_8 O 0.17055(4) 0.53360(4) 0.23896(4)
O8_8 O 0.03360(4) 0.76104(4) 0.32945(4)
O9_12 O 0.32945(4) 0.76104(4) 0.46640(4)
O11_12 O 0.23896(4) 0.82945(4) 0.53360(4)
O14_12 O 0.17055(4) 0.73896(4) 0.53360(4)
O21_12 O 0.23368(4) 0.70649(4) 0.52941(4)
O22_12 O 0.29351(4) 0.73368(4) 0.47059(4)
O23_8 O 0.23368(4) 0.70649(4) 0.47059(4)
O24_8 O 0.20649(4) 0.52941(4) 0.26632(4)
O25_8 O 0.02941(4) 0.73368(4) 0.29351(4)
O26_12 O 0.26632(4) 0.79351(4) 0.52941(4)
O29_12 O 0.20649(4) 0.76632(4) 0.52941(4)
C17_8 C 0.18319(6) 0.54024(5) 0.26041(6)
C18_8 C 0.04024(5) 0.73959(6) 0.31681(6)
C27_8 C 0.17179(6) 0.56230(5) 0.27876(6)
C28_8 C 0.06230(5) 0.72124(6) 0.32821(6)
C38_8 C 0.18644(6) 0.57135(6) 0.30155(5)
C39_8 C 0.07135(6) 0.69845(5) 0.31356(6)
H15_8 H 0.2035 0.5630 0.3063
H16_8 H 0.0630 0.6937 0.2965
C49_8 C 0.17592(6) 0.59264(5) 0.31738(6)
C50_8 C 0.09264(5) 0.68262(6) 0.32408(6)
C60_8 C 0.15111(6) 0.60567(6) 0.31064(6)
C61_8 C 0.10567(6) 0.68936(6) 0.34889(6)
C71_8 C 0.13605(6) 0.59573(6) 0.28821(6)
C72_8 C 0.09573(6) 0.71179(6) 0.36395(6)
H26_8 H 0.1188 0.6037 0.2836
H27_8 H 0.1037 0.7164 0.3812
C82_8 C 0.14642(6) 0.57417(6) 0.27266(6)
C83_8 C 0.07417(6) 0.72734(6) 0.35358(6)
H37_8 H 0.1360 0.5673 0.2575
H38_8 H 0.0673 0.7425 0.3640
C93_8 C 0.14650(6) 0.62822(6) 0.33089(6)
C94_8 C 0.12822(6) 0.66911(6) 0.35350(6)
C104_8 C 0.14930(6) 0.66793(6) 0.37299(6)
C105_8 C 0.12701(6) 0.64930(6) 0.33207(6)
C115_8 C 0.18853(6) 0.60416(6) 0.34335(6)
C116_8 C 0.10416(6) 0.65665(6) 0.31147(6)
C126_8 C 0.21741(7) 0.61585(7) 0.33652(7)
C127_8 C 0.11585(7) 0.66348(7) 0.28259(7)
H48_8 H 0.2260 0.6225 0.3538
H49_8 H 0.1225 0.6462 0.2740
H59_8 H 0.2290 0.6007 0.3294
H60_8 H 0.1007 0.6706 0.2710
C137_8 C 0.21773(8) 0.63903(9) 0.31582(8)
C138_8 C 0.13903(9) 0.68418(8) 0.28227(8)
H70_8 H 0.2085 0.6330 0.2989
H71_8 H 0.1330 0.7011 0.2915
H81_8 H 0.2368 0.6441 0.3117
H82_8 H 0.1441 0.6883 0.2632
H92_8 H 0.2080 0.6550 0.3235
H93_8 H 0.1550 0.6765 0.2920
C148_8 C 0.18918(7) 0.57999(7) 0.36482(8)
C149_8 C 0.07999(7) 0.63518(8) 0.31082(7)
H103_8 H 0.2011 0.5651 0.3574
H104_8 H 0.0651 0.6426 0.2989
H114_8 H 0.1979 0.5868 0.3820
H115_8 H 0.0868 0.6180 0.3021
C159_8 C 0.16142(9) 0.56771(9) 0.37211(9)
C160_8 C 0.06771(9) 0.62789(9) 0.33858(9)
H125_8 H 0.1496 0.5820 0.3800
H126_8 H 0.0820 0.6200 0.3504
H136_8 H 0.1639 0.5529 0.3856
H137_8 H 0.0529 0.6144 0.3361
H147_8 H 0.1528 0.5603 0.3555
H148_8 H 0.0603 0.6445 0.3472
O36_15 O 0.32242(7) 0.81674(6) 0.5000
O37_15 O 0.18326(6) 0.82242(7) 0.5000
O38_15 O 0.17758(7) 0.68326(6) 0.5000
C170_15 C 0.15475(18) 0.8168(3) 0.5000
C171_15 C 0.3168(3) 0.84525(18) 0.5000
C172_15 C 0.1832(3) 0.65475(18) 0.5000
H158_15 H 0.1835(7) 0.8470(7) 0.5000
H159_15 H 0.3470(7) 0.8165(7) 0.5000
H160_15 H 0.1530(7) 0.6835(7) 0.5000
H164_12 H 0.304974 0.850543 0.518323
H165_15 H 0.336112 0.856681 0.5
H166_12 H 0.304974 0.850543 0.481677
H167_12 H 0.195026 0.649457 0.518323
H168_15 H 0.163888 0.643319 0.5
H169_12 H 0.195026 0.649457 0.481677
H170_12 H 0.149457 0.804974 0.518323
H171_15 H 0.143319 0.836112 0.5
H172_12 H 0.149457 0.804974 0.481677
H176_12 H 0.350543 0.695026 0.518323
H177_15 H 0.356681 0.663888 0.5
H178_12 H 0.350543 0.695026 0.481677
Cd8_13 Cd 1.0000 0.701728(5) 0.275119(5)
O3_5 O 0.02941(4) 0.73368(4) 0.70649(4)
O4_16 O -0.0000 0.7500 0.7500
O5_16 O -0.0000 0.67758(7) 0.68326(6)
C15_16 C -0.0000 0.6832(3) 0.65475(18)
H14_16 H -0.0000 0.6530(7) 0.6835(7)
O6_13 O 0.03360(4) 0.67055(4) 0.73896(4)
O10_5 O 0.03360(4) 0.76104(4) 0.67055(4)
O11_13 O 0.03360(4) 0.82945(4) 0.76104(4)
O14_13 O 0.03360(4) 0.73896(4) 0.82945(4)
O21_13 O 0.02941(4) 0.70649(4) 0.76632(4)
O26_13 O 0.02941(4) 0.79351(4) 0.73368(4)
O29_13 O 0.02941(4) 0.76632(4) 0.79351(4)
C16_5 C 0.04024(5) 0.73959(6) 0.68319(6)
C22_5 C 0.23959(6) 0.68319(6) 0.54024(5)
C23_5 C 0.18319(6) 0.54024(5) 0.73959(6)
C32_5 C 0.06230(5) 0.72124(6) 0.67179(6)
C33_5 C 0.22124(6) 0.67179(6) 0.56230(5)
C34_5 C 0.17179(6) 0.56230(5) 0.72124(6)
C43_5 C 0.07135(6) 0.69845(5) 0.68644(6)
C44_5 C 0.19845(5) 0.68644(6) 0.57135(6)
C45_5 C 0.18644(6) 0.57135(6) 0.69845(5)
H20_5 H 0.0630 0.6937 0.7035
H21_5 H 0.1937 0.7035 0.5630
H22_5 H 0.2035 0.5630 0.6937
C54_5 C 0.09264(5) 0.68262(6) 0.67592(6)
C55_5 C 0.18262(6) 0.67592(6) 0.59264(5)
C56_5 C 0.17592(6) 0.59264(5) 0.68262(6)
C65_5 C 0.10567(6) 0.68936(6) 0.65111(6)
C66_5 C 0.15111(6) 0.60567(6) 0.68936(6)
C67_5 C 0.18936(6) 0.65111(6) 0.60567(6)
C76_5 C 0.09573(6) 0.71179(6) 0.63605(6)
C77_5 C 0.13605(6) 0.59573(6) 0.71179(6)
C78_5 C 0.21179(6) 0.63605(6) 0.59573(6)
H31_5 H 0.1037 0.7164 0.6188
H32_5 H 0.1188 0.6037 0.7164
H33_5 H 0.2164 0.6188 0.6037
C87_5 C 0.07417(6) 0.72734(6) 0.64642(6)
C88_5 C 0.14642(6) 0.57417(6) 0.72734(6)
C89_5 C 0.22734(6) 0.64642(6) 0.57417(6)
H42_5 H 0.0673 0.7425 0.6360
H43_5 H 0.1360 0.5673 0.7425
H44_5 H 0.2425 0.6360 0.5673
C98_5 C 0.12822(6) 0.66911(6) 0.64650(6)
C99_5 C 0.14650(6) 0.62822(6) 0.66911(6)
C100_5 C 0.16911(6) 0.64650(6) 0.62822(6)
C109_5 C 0.12701(6) 0.64930(6) 0.66793(6)
C110_5 C 0.14930(6) 0.66793(6) 0.62701(6)
C111_5 C 0.16793(6) 0.62701(6) 0.64930(6)
C120_5 C 0.10416(6) 0.65665(6) 0.68853(6)
C121_5 C 0.15665(6) 0.68853(6) 0.60416(6)
C122_5 C 0.18853(6) 0.60416(6) 0.65665(6)
C131_5 C 0.11585(7) 0.66348(7) 0.71741(7)
C132_5 C 0.16348(7) 0.71741(7) 0.61585(7)
C133_5 C 0.21741(7) 0.61585(7) 0.66348(7)
H53_5 H 0.1225 0.6462 0.7260
H54_5 H 0.1462 0.7260 0.6225
H55_5 H 0.2260 0.6225 0.6462
H64_5 H 0.1007 0.6706 0.7290
H65_5 H 0.1706 0.7290 0.6007
H66_5 H 0.2290 0.6007 0.6706
C142_5 C 0.13903(9) 0.68418(8) 0.71773(8)
C143_5 C 0.18418(8) 0.71773(8) 0.63903(9)
C144_5 C 0.21773(8) 0.63903(9) 0.68418(8)
H75_5 H 0.1330 0.7011 0.7085
H76_5 H 0.2011 0.7085 0.6330
H77_5 H 0.2085 0.6330 0.7011
H86_5 H 0.1441 0.6883 0.7368
H87_5 H 0.1883 0.7368 0.6441
H88_5 H 0.2368 0.6441 0.6883
H97_5 H 0.1550 0.6765 0.7080
H98_5 H 0.1765 0.7080 0.6550
H99_5 H 0.2080 0.6550 0.6765
C153_5 C 0.07999(7) 0.63518(8) 0.68918(7)
C154_5 C 0.13518(8) 0.68918(7) 0.57999(7)
C155_5 C 0.18918(7) 0.57999(7) 0.63518(8)
H108_5 H 0.0651 0.6426 0.7011
H109_5 H 0.1426 0.7011 0.5651
H110_5 H 0.2011 0.5651 0.6426
H119_5 H 0.0868 0.6180 0.6979
H120_5 H 0.1180 0.6979 0.5868
H121_5 H 0.1979 0.5868 0.6180
C164_5 C 0.06771(9) 0.62789(9) 0.66142(9)
C165_5 C 0.12789(9) 0.66142(9) 0.56771(9)
C166_5 C 0.16142(9) 0.56771(9) 0.62789(9)
H130_5 H 0.0820 0.6200 0.6496
H131_5 H 0.1200 0.6496 0.5820
H132_5 H 0.1496 0.5820 0.6200
H141_5 H 0.0529 0.6144 0.6639
H142_5 H 0.1144 0.6639 0.5529
H143_5 H 0.1639 0.5529 0.6144
H152_5 H 0.0603 0.6445 0.6528
H153_5 H 0.1445 0.6528 0.5603
H154_5 H 0.1528 0.5603 0.6445
O36_16 O -0.0000 0.81674(6) 0.67758(7)
O37_16 O -0.0000 0.82242(7) 0.81674(6)
O38_16 O -0.0000 0.68326(6) 0.82242(7)
C170_16 C -0.0000 0.8168(3) 0.84525(18)
C171_16 C -0.0000 0.84525(18) 0.6832(3)
C172_16 C -0.0000 0.65475(18) 0.8168(3)
H158_16 H 0.0000 0.8470(7) 0.8165(7)
H159_16 H 0.0000 0.8165(7) 0.6530(7)
H160_16 H -0.0000 0.6835(7) 0.8470(7)
H164_13 H 0.0183231 0.850543 0.695026
H165_16 H 0 0.856681 0.663888
H167_13 H 0.0183231 0.649457 0.804974
H168_16 H -6.16298e-33 0.643319 0.836112
H170_13 H 0.0183231 0.804974 0.850543
H171_16 H 6.16298e-33 0.836112 0.856681
H176_13 H 0.0183231 0.695026 0.649457
H177_16 H -6.16298e-33 0.663888 0.643319
O4_17 O 1.0000 0.7500 0.7500
O5_17 O 1.0000 0.67758(7) 0.68326(6)
C15_17 C 1.0000 0.6832(3) 0.65475(18)
H14_17 H 1.0000 0.6530(7) 0.6835(7)
O13_7 O 0.96640(4) 0.73896(4) 0.82945(4)
O19_7 O 0.73896(4) 0.82945(4) 0.96640(4)
O20_7 O 0.82945(4) 0.96640(4) 0.73896(4)
O28_7 O 0.97059(4) 0.76632(4) 0.79351(4)
O34_7 O 0.76632(4) 0.79351(4) 0.97059(4)
O35_7 O 0.79351(4) 0.97059(4) 0.76632(4)
C24_7 C 0.95976(5) 0.76041(6) 0.81681(6)
C25_7 C 0.76041(6) 0.81681(6) 0.95976(5)
C26_7 C 0.81681(6) 0.95976(5) 0.76041(6)
C35_7 C 0.93770(5) 0.77876(6) 0.82821(6)
C36_7 C 0.77876(6) 0.82821(6) 0.93770(5)
C37_7 C 0.82821(6) 0.93770(5) 0.77876(6)
C46_7 C 0.92865(6) 0.80155(5) 0.81356(6)
C47_7 C 0.80155(5) 0.81356(6) 0.92865(6)
C48_7 C 0.81356(6) 0.92865(6) 0.80155(5)
H23_7 H 0.9370 0.8063 0.7965
H24_7 H 0.8063 0.7965 0.9370
H25_7 H 0.7965 0.9370 0.8063
C57_7 C 0.90736(5) 0.81738(6) 0.82408(6)
C58_7 C 0.81738(6) 0.82408(6) 0.90736(5)
C59_7 C 0.82408(6) 0.90736(5) 0.81738(6)
C68_7 C 0.89433(6) 0.81064(6) 0.84889(6)
C69_7 C 0.84889(6) 0.89433(6) 0.81064(6)
C70_7 C 0.81064(6) 0.84889(6) 0.89433(6)
C79_7 C 0.90427(6) 0.78821(6) 0.86395(6)
C80_7 C 0.86395(6) 0.90427(6) 0.78821(6)
C81_7 C 0.78821(6) 0.86395(6) 0.90427(6)
H34_7 H 0.8963 0.7836 0.8812
H35_7 H 0.8812 0.8963 0.7836
H36_7 H 0.7836 0.8812 0.8963
C90_7 C 0.92583(6) 0.77266(6) 0.85358(6)
C91_7 C 0.85358(6) 0.92583(6) 0.77266(6)
C92_7 C 0.77266(6) 0.85358(6) 0.92583(6)
H45_7 H 0.9327 0.7575 0.8640
H46_7 H 0.8640 0.9327 0.7575
H47_7 H 0.7575 0.8640 0.9327
C101_7 C 0.87178(6) 0.83089(6) 0.85350(6)
C102_7 C 0.85350(6) 0.87178(6) 0.83089(6)
C103_7 C 0.83089(6) 0.85350(6) 0.87178(6)
C112_7 C 0.87299(6) 0.85070(6) 0.83207(6)
C113_7 C 0.85070(6) 0.83207(6) 0.87299(6)
C114_7 C 0.83207(6) 0.87299(6) 0.85070(6)
C123_7 C 0.89584(6) 0.84335(6) 0.81147(6)
C124_7 C 0.84335(6) 0.81147(6) 0.89584(6)
C125_7 C 0.81147(6) 0.89584(6) 0.84335(6)
C134_7 C 0.88415(7) 0.83652(7) 0.78259(7)
C135_7 C 0.83652(7) 0.78259(7) 0.88415(7)
C136_7 C 0.78259(7) 0.88415(7) 0.83652(7)
H56_7 H 0.8775 0.8538 0.7740
H57_7 H 0.8538 0.7740 0.8775
H58_7 H 0.7740 0.8775 0.8538
H67_7 H 0.8993 0.8294 0.7710
H68_7 H 0.8294 0.7710 0.8993
H69_7 H 0.7710 0.8993 0.8294
C145_7 C 0.86097(9) 0.81582(8) 0.78227(8)
C146_7 C 0.81582(8) 0.78227(8) 0.86097(9)
C147_7 C 0.78227(8) 0.86097(9) 0.81582(8)
H78_7 H 0.8670 0.7989 0.7915
H79_7 H 0.7989 0.7915 0.8670
H80_7 H 0.7915 0.8670 0.7989
H89_7 H 0.8559 0.8117 0.7632
H90_7 H 0.8117 0.7632 0.8559
H91_7 H 0.7632 0.8559 0.8117
H100_7 H 0.8450 0.8235 0.7920
H101_7 H 0.8235 0.7920 0.8450
H102_7 H 0.7920 0.8450 0.8235
C156_7 C 0.92001(7) 0.86482(8) 0.81082(7)
C157_7 C 0.86482(8) 0.81082(7) 0.92001(7)
C158_7 C 0.81082(7) 0.92001(7) 0.86482(8)
H111_7 H 0.9349 0.8574 0.7989
H112_7 H 0.8574 0.7989 0.9349
H113_7 H 0.7989 0.9349 0.8574
H122_7 H 0.9132 0.8820 0.8021
H123_7 H 0.8820 0.8021 0.9132
H124_7 H 0.8021 0.9132 0.8820
C167_7 C 0.93229(9) 0.87211(9) 0.83858(9)
C168_7 C 0.87211(9) 0.83858(9) 0.93229(9)
C169_7 C 0.83858(9) 0.93229(9) 0.87211(9)
H133_7 H 0.9180 0.8800 0.8504
H134_7 H 0.8800 0.8504 0.9180
H135_7 H 0.8504 0.9180 0.8800
H144_7 H 0.9471 0.8856 0.8361
H145_7 H 0.8856 0.8361 0.9471
H146_7 H 0.8361 0.9471 0.8856
H155_7 H 0.9397 0.8555 0.8472
H156_7 H 0.8555 0.8472 0.9397
H157_7 H 0.8472 0.9397 0.8555
O36_17 O 1.0000 0.81674(6) 0.67758(7)
O37_17 O 1.0000 0.82242(7) 0.81674(6)
O38_17 O 1.0000 0.68326(6) 0.82242(7)
C170_17 C 1.0000 0.8168(3) 0.84525(18)
C171_17 C 1.0000 0.84525(18) 0.6832(3)
C172_17 C 1.0000 0.65475(18) 0.8168(3)
H158_17 H 1.0000 0.8470(7) 0.8165(7)
H159_17 H 1.0000 0.8165(7) 0.6530(7)
H160_17 H 1.0000 0.6835(7) 0.8470(7)
H165_17 H 1 0.856681 0.663888
H166_13 H 0.981677 0.850543 0.695026
H168_17 H 1 0.643319 0.836112
H169_13 H 0.981677 0.649457 0.804974
H171_17 H 1 0.836112 0.856681
H172_13 H 0.981677 0.804974 0.850543
H177_17 H 1 0.663888 0.643319
H178_13 H 0.981677 0.695026 0.649457
C1_9 C 0.26041(6) 0.45976(5) 0.68319(6)
C2_9 C 0.27876(6) 0.43770(5) 0.67179(6)
C3_9 C 0.30155(5) 0.42865(6) 0.68644(6)
H1_9 H 0.3063 0.4370 0.7035
C4_9 C 0.31738(6) 0.40736(5) 0.67592(6)
C5_9 C 0.31064(6) 0.39433(6) 0.65111(6)
C6_9 C 0.28821(6) 0.40427(6) 0.63605(6)
H2_9 H 0.2836 0.3963 0.6188
C7_9 C 0.27266(6) 0.42583(6) 0.64642(6)
H3_9 H 0.2575 0.4327 0.6360
C8_9 C 0.33089(6) 0.37178(6) 0.64650(6)
C9_9 C 0.33207(6) 0.35070(6) 0.62701(6)
C10_9 C 0.34335(6) 0.39584(6) 0.68853(6)
C11_9 C 0.33652(7) 0.38415(7) 0.71741(7)
H4_9 H 0.3538 0.3775 0.7260
H5_9 H 0.3294 0.3993 0.7290
C12_9 C 0.31582(8) 0.36097(9) 0.71773(8)
H6_9 H 0.2989 0.3670 0.7085
H7_9 H 0.3117 0.3559 0.7368
H8_9 H 0.3235 0.3450 0.7080
C13_9 C 0.36482(8) 0.42001(7) 0.68918(7)
H9_9 H 0.3574 0.4349 0.7011
H10_9 H 0.3820 0.4132 0.6979
C14_9 C 0.37211(9) 0.43229(9) 0.66142(9)
H11_9 H 0.3800 0.4180 0.6496
H12_9 H 0.3856 0.4471 0.6639
H13_9 H 0.3555 0.4397 0.6528
O7_9 O 0.32945(4) 0.23896(4) 0.53360(4)
O24_9 O 0.29351(4) 0.26632(4) 0.52941(4)
C17_9 C 0.31681(6) 0.26041(6) 0.54024(5)
C18_9 C 0.45976(5) 0.31681(6) 0.73959(6)
C27_9 C 0.32821(6) 0.27876(6) 0.56230(5)
C28_9 C 0.43770(5) 0.32821(6) 0.72124(6)
C38_9 C 0.31356(6) 0.30155(5) 0.57135(6)
C39_9 C 0.42865(6) 0.31356(6) 0.69845(5)
H15_9 H 0.2965 0.3063 0.5630
H16_9 H 0.4370 0.2965 0.6937
C49_9 C 0.32408(6) 0.31738(6) 0.59264(5)
C50_9 C 0.40736(5) 0.32408(6) 0.68262(6)
C60_9 C 0.34889(6) 0.31064(6) 0.60567(6)
C61_9 C 0.39433(6) 0.34889(6) 0.68936(6)
C71_9 C 0.36395(6) 0.28821(6) 0.59573(6)
C72_9 C 0.40427(6) 0.36395(6) 0.71179(6)
H26_9 H 0.3812 0.2836 0.6037
H27_9 H 0.3963 0.3812 0.7164
C82_9 C 0.35358(6) 0.27266(6) 0.57417(6)
C83_9 C 0.42583(6) 0.35358(6) 0.72734(6)
H37_9 H 0.3640 0.2575 0.5673
H38_9 H 0.4327 0.3640 0.7425
C93_9 C 0.35350(6) 0.33089(6) 0.62822(6)
C94_9 C 0.37178(6) 0.35350(6) 0.66911(6)
C104_9 C 0.35070(6) 0.37299(6) 0.66793(6)
C105_9 C 0.37299(6) 0.33207(6) 0.64930(6)
C115_9 C 0.31147(6) 0.34335(6) 0.60416(6)
C116_9 C 0.39584(6) 0.31147(6) 0.65665(6)
C126_9 C 0.28259(7) 0.33652(7) 0.61585(7)
C127_9 C 0.38415(7) 0.28259(7) 0.66348(7)
H48_9 H 0.2740 0.3538 0.6225
H49_9 H 0.3775 0.2740 0.6462
H59_9 H 0.2710 0.3294 0.6007
H60_9 H 0.3993 0.2710 0.6706
C137_9 C 0.28227(8) 0.31582(8) 0.63903(9)
C138_9 C 0.36097(9) 0.28227(8) 0.68418(8)
H70_9 H 0.2915 0.2989 0.6330
H71_9 H 0.3670 0.2915 0.7011
H81_9 H 0.2632 0.3117 0.6441
H82_9 H 0.3559 0.2632 0.6883
H92_9 H 0.2920 0.3235 0.6550
H93_9 H 0.3450 0.2920 0.6765
C148_9 C 0.31082(7) 0.36482(8) 0.57999(7)
C149_9 C 0.42001(7) 0.31082(7) 0.63518(8)
H103_9 H 0.2989 0.3574 0.5651
H104_9 H 0.4349 0.2989 0.6426
H114_9 H 0.3021 0.3820 0.5868
H115_9 H 0.4132 0.3021 0.6180
C159_9 C 0.33858(9) 0.37211(9) 0.56771(9)
C160_9 C 0.43229(9) 0.33858(9) 0.62789(9)
H125_9 H 0.3504 0.3800 0.5820
H126_9 H 0.4180 0.3504 0.6200
H136_9 H 0.3361 0.3856 0.5529
H137_9 H 0.4471 0.3361 0.6144
H147_9 H 0.3472 0.3555 0.5603
H148_9 H 0.4397 0.3472 0.6445
O16_8 O 0.23896(4) 0.53360(4) 0.32945(4)
O31_8 O 0.26632(4) 0.52941(4) 0.29351(4)
C19_8 C 0.31681(6) 0.73959(6) 0.45976(5)
C20_8 C 0.45976(5) 0.68319(6) 0.26041(6)
C21_8 C 0.26041(6) 0.54024(5) 0.31681(6)
C29_8 C 0.32821(6) 0.72124(6) 0.43770(5)
C30_8 C 0.43770(5) 0.67179(6) 0.27876(6)
C31_8 C 0.27876(6) 0.56230(5) 0.32821(6)
C40_8 C 0.31356(6) 0.69845(5) 0.42865(6)
C41_8 C 0.42865(6) 0.68644(6) 0.30155(5)
C42_8 C 0.30155(5) 0.57135(6) 0.31356(6)
H17_8 H 0.2965 0.6937 0.4370
H18_8 H 0.4370 0.7035 0.3063
H19_8 H 0.3063 0.5630 0.2965
C51_8 C 0.32408(6) 0.68262(6) 0.40736(5)
C52_8 C 0.40736(5) 0.67592(6) 0.31738(6)
C53_8 C 0.31738(6) 0.59264(5) 0.32408(6)
C62_8 C 0.34889(6) 0.68936(6) 0.39433(6)
C63_8 C 0.31064(6) 0.60567(6) 0.34889(6)
C64_8 C 0.39433(6) 0.65111(6) 0.31064(6)
C73_8 C 0.36395(6) 0.71179(6) 0.40427(6)
C74_8 C 0.28821(6) 0.59573(6) 0.36395(6)
C75_8 C 0.40427(6) 0.63605(6) 0.28821(6)
H28_8 H 0.3812 0.7164 0.3963
H29_8 H 0.2836 0.6037 0.3812
H30_8 H 0.3963 0.6188 0.2836
C84_8 C 0.35358(6) 0.72734(6) 0.42583(6)
C85_8 C 0.27266(6) 0.57417(6) 0.35358(6)
C86_8 C 0.42583(6) 0.64642(6) 0.27266(6)
H39_8 H 0.3640 0.7425 0.4327
H40_8 H 0.2575 0.5673 0.3640
H41_8 H 0.4327 0.6360 0.2575
C95_8 C 0.35350(6) 0.66911(6) 0.37178(6)
C96_8 C 0.33089(6) 0.62822(6) 0.35350(6)
C97_8 C 0.37178(6) 0.64650(6) 0.33089(6)
C106_8 C 0.33207(6) 0.64930(6) 0.37299(6)
C107_8 C 0.37299(6) 0.66793(6) 0.35070(6)
C108_8 C 0.35070(6) 0.62701(6) 0.33207(6)
C117_8 C 0.31147(6) 0.65665(6) 0.39584(6)
C118_8 C 0.39584(6) 0.68853(6) 0.34335(6)
C119_8 C 0.34335(6) 0.60416(6) 0.31147(6)
C128_8 C 0.28259(7) 0.66348(7) 0.38415(7)
C129_8 C 0.38415(7) 0.71741(7) 0.33652(7)
C130_8 C 0.33652(7) 0.61585(7) 0.28259(7)
H50_8 H 0.2740 0.6462 0.3775
H51_8 H 0.3775 0.7260 0.3538
H52_8 H 0.3538 0.6225 0.2740
H61_8 H 0.2710 0.6706 0.3993
H62_8 H 0.3993 0.7290 0.3294
H63_8 H 0.3294 0.6007 0.2710
C139_8 C 0.28227(8) 0.68418(8) 0.36097(9)
C140_8 C 0.36097(9) 0.71773(8) 0.31582(8)
C141_8 C 0.31582(8) 0.63903(9) 0.28227(8)
H72_8 H 0.2915 0.7011 0.3670
H73_8 H 0.3670 0.7085 0.2989
H74_8 H 0.2989 0.6330 0.2915
H83_8 H 0.2632 0.6883 0.3559
H84_8 H 0.3559 0.7368 0.3117
H85_8 H 0.3117 0.6441 0.2632
H94_8 H 0.2920 0.6765 0.3450
H95_8 H 0.3450 0.7080 0.3235
H96_8 H 0.3235 0.6550 0.2920
C150_8 C 0.31082(7) 0.63518(8) 0.42001(7)
C151_8 C 0.42001(7) 0.68918(7) 0.36482(8)
C152_8 C 0.36482(8) 0.57999(7) 0.31082(7)
H105_8 H 0.2989 0.6426 0.4349
H106_8 H 0.4349 0.7011 0.3574
H107_8 H 0.3574 0.5651 0.2989
H116_8 H 0.3021 0.6180 0.4132
H117_8 H 0.4132 0.6979 0.3820
H118_8 H 0.3820 0.5868 0.3021
C161_8 C 0.33858(9) 0.62789(9) 0.43229(9)
C162_8 C 0.43229(9) 0.66142(9) 0.37211(9)
C163_8 C 0.37211(9) 0.56771(9) 0.33858(9)
H127_8 H 0.3504 0.6200 0.4180
H128_8 H 0.4180 0.6496 0.3800
H129_8 H 0.3800 0.5820 0.3504
H138_8 H 0.3361 0.6144 0.4471
H139_8 H 0.4471 0.6639 0.3856
H140_8 H 0.3856 0.5529 0.3361
H149_8 H 0.3472 0.6445 0.4397
H150_8 H 0.4397 0.6528 0.3555
H151_8 H 0.3555 0.5603 0.3472
Cd14_5 Cd 0.724881(5) 0.201728(5) 0.0000
O3_6 O 0.73368(4) 0.02941(4) 0.79351(4)
O4_18 O 0.7500 -0.0000 0.7500
O5_18 O 0.67758(7) -0.0000 0.81674(6)
C15_18 C 0.6832(3) -0.0000 0.84525(18)
H14_18 H 0.6530(7) 0.0000 0.8165(7)
Cd14_6 Cd 0.724881(5) 0.201728(5) 1.0000
O6_14 O 0.67055(4) 0.03360(4) 0.76104(4)
O10_6 O 0.76104(4) 0.03360(4) 0.82945(4)
O11_14 O 0.82945(4) 0.03360(4) 0.73896(4)
O14_14 O 0.73896(4) 0.03360(4) 0.67055(4)
O17_5 O 0.67055(4) 0.26104(4) 0.96640(4)
O21_14 O 0.70649(4) 0.02941(4) 0.73368(4)
O26_14 O 0.79351(4) 0.02941(4) 0.76632(4)
O29_14 O 0.76632(4) 0.02941(4) 0.70649(4)
O32_5 O 0.70649(4) 0.23368(4) 0.97059(4)
C16_6 C 0.73959(6) 0.04024(5) 0.81681(6)
C22_6 C 0.68319(6) 0.23959(6) 0.95976(5)
C23_6 C 0.54024(5) 0.18319(6) 0.76041(6)
C32_6 C 0.72124(6) 0.06230(5) 0.82821(6)
C33_6 C 0.67179(6) 0.22124(6) 0.93770(5)
C34_6 C 0.56230(5) 0.17179(6) 0.77876(6)
C43_6 C 0.69845(5) 0.07135(6) 0.81356(6)
C44_6 C 0.68644(6) 0.19845(5) 0.92865(6)
C45_6 C 0.57135(6) 0.18644(6) 0.80155(5)
H20_6 H 0.6937 0.0630 0.7965
H21_6 H 0.7035 0.1937 0.9370
H22_6 H 0.5630 0.2035 0.8063
C54_6 C 0.68262(6) 0.09264(5) 0.82408(6)
C55_6 C 0.67592(6) 0.18262(6) 0.90736(5)
C56_6 C 0.59264(5) 0.17592(6) 0.81738(6)
C65_6 C 0.68936(6) 0.10567(6) 0.84889(6)
C66_6 C 0.60567(6) 0.15111(6) 0.81064(6)
C67_6 C 0.65111(6) 0.18936(6) 0.89433(6)
C76_6 C 0.71179(6) 0.09573(6) 0.86395(6)
C77_6 C 0.59573(6) 0.13605(6) 0.78821(6)
C78_6 C 0.63605(6) 0.21179(6) 0.90427(6)
H31_6 H 0.7164 0.1037 0.8812
H32_6 H 0.6037 0.1188 0.7836
H33_6 H 0.6188 0.2164 0.8963
C87_6 C 0.72734(6) 0.07417(6) 0.85358(6)
C88_6 C 0.57417(6) 0.14642(6) 0.77266(6)
C89_6 C 0.64642(6) 0.22734(6) 0.92583(6)
H42_6 H 0.7425 0.0673 0.8640
H43_6 H 0.5673 0.1360 0.7575
H44_6 H 0.6360 0.2425 0.9327
C98_6 C 0.66911(6) 0.12822(6) 0.85350(6)
C99_6 C 0.62822(6) 0.14650(6) 0.83089(6)
C100_6 C 0.64650(6) 0.16911(6) 0.87178(6)
C109_6 C 0.64930(6) 0.12701(6) 0.83207(6)
C110_6 C 0.66793(6) 0.14930(6) 0.87299(6)
C111_6 C 0.62701(6) 0.16793(6) 0.85070(6)
C120_6 C 0.65665(6) 0.10416(6) 0.81147(6)
C121_6 C 0.68853(6) 0.15665(6) 0.89584(6)
C122_6 C 0.60416(6) 0.18853(6) 0.84335(6)
C131_6 C 0.66348(7) 0.11585(7) 0.78259(7)
C132_6 C 0.71741(7) 0.16348(7) 0.88415(7)
C133_6 C 0.61585(7) 0.21741(7) 0.83652(7)
H53_6 H 0.6462 0.1225 0.7740
H54_6 H 0.7260 0.1462 0.8775
H55_6 H 0.6225 0.2260 0.8538
H64_6 H 0.6706 0.1007 0.7710
H65_6 H 0.7290 0.1706 0.8993
H66_6 H 0.6007 0.2290 0.8294
C142_6 C 0.68418(8) 0.13903(9) 0.78227(8)
C143_6 C 0.71773(8) 0.18418(8) 0.86097(9)
C144_6 C 0.63903(9) 0.21773(8) 0.81582(8)
H75_6 H 0.7011 0.1330 0.7915
H76_6 H 0.7085 0.2011 0.8670
H77_6 H 0.6330 0.2085 0.7989
H86_6 H 0.6883 0.1441 0.7632
H87_6 H 0.7368 0.1883 0.8559
H88_6 H 0.6441 0.2368 0.8117
H97_6 H 0.6765 0.1550 0.7920
H98_6 H 0.7080 0.1765 0.8450
H99_6 H 0.6550 0.2080 0.8235
C153_6 C 0.63518(8) 0.07999(7) 0.81082(7)
C154_6 C 0.68918(7) 0.13518(8) 0.92001(7)
C155_6 C 0.57999(7) 0.18918(7) 0.86482(8)
H108_6 H 0.6426 0.0651 0.7989
H109_6 H 0.7011 0.1426 0.9349
H110_6 H 0.5651 0.2011 0.8574
H119_6 H 0.6180 0.0868 0.8021
H120_6 H 0.6979 0.1180 0.9132
H121_6 H 0.5868 0.1979 0.8820
C164_6 C 0.62789(9) 0.06771(9) 0.83858(9)
C165_6 C 0.66142(9) 0.12789(9) 0.93229(9)
C166_6 C 0.56771(9) 0.16142(9) 0.87211(9)
H130_6 H 0.6200 0.0820 0.8504
H131_6 H 0.6496 0.1200 0.9180
H132_6 H 0.5820 0.1496 0.8800
H141_6 H 0.6144 0.0529 0.8361
H142_6 H 0.6639 0.1144 0.9471
H143_6 H 0.5529 0.1639 0.8856
H152_6 H 0.6445 0.0603 0.8472
H153_6 H 0.6528 0.1445 0.9397
H154_6 H 0.5603 0.1528 0.8555
O36_18 O 0.81674(6) -0.0000 0.82242(7)
O37_18 O 0.82242(7) 0.0000 0.68326(6)
O38_18 O 0.68326(6) -0.0000 0.67758(7)
C170_18 C 0.8168(3) -0.0000 0.65475(18)
C171_18 C 0.84525(18) -0.0000 0.8168(3)
C172_18 C 0.65475(18) 0.0000 0.6832(3)
H158_18 H 0.8470(7) -0.0000 0.6835(7)
H159_18 H 0.8165(7) -0.0000 0.8470(7)
H160_18 H 0.6835(7) 0.0000 0.6530(7)
H164_14 H 0.850543 0.0183231 0.804974
H165_18 H 0.856681 0 0.836112
H167_14 H 0.649457 0.0183231 0.695026
H168_18 H 0.643319 0 0.663888
H170_14 H 0.804974 0.0183231 0.649457
H171_18 H 0.836112 -6.16298e-33 0.643319
H176_14 H 0.695026 0.0183231 0.850543
H177_18 H 0.663888 -6.16298e-33 0.856681
O4_19 O 0.7500 1.0000 0.7500
O5_19 O 0.67758(7) 1.0000 0.81674(6)
C15_19 C 0.6832(3) 1.0000 0.84525(18)
H14_19 H 0.6530(7) 1.0000 0.8165(7)
O36_19 O 0.81674(6) 1.0000 0.82242(7)
O37_19 O 0.82242(7) 1.0000 0.68326(6)
O38_19 O 0.68326(6) 1.0000 0.67758(7)
C170_19 C 0.8168(3) 1.0000 0.65475(18)
C171_19 C 0.84525(18) 1.0000 0.8168(3)
C172_19 C 0.65475(18) 1.0000 0.6832(3)
H158_19 H 0.8470(7) 1.0000 0.6835(7)
H159_19 H 0.8165(7) 1.0000 0.8470(7)
H160_19 H 0.6835(7) 1.0000 0.6530(7)
H165_19 H 0.856681 1 0.836112
H166_14 H 0.850543 0.981677 0.804974
H168_19 H 0.643319 1 0.663888
H169_14 H 0.649457 0.981677 0.695026
H171_19 H 0.836112 1 0.643319
H172_14 H 0.804974 0.981677 0.649457
H177_19 H 0.663888 1 0.856681
H178_14 H 0.695026 0.981677 0.850543
O4_20 O 0.7500 0.0000 0.2500
O5_20 O 0.67758(7) -0.0000 0.18326(6)
C15_20 C 0.6832(3) -0.0000 0.15475(18)
H14_20 H 0.6530(7) -0.0000 0.1835(7)
Cd2_5 Cd 0.775119(5) -0.0000 0.201728(5)
O9_13 O 0.76104(4) 0.03360(4) 0.17055(4)
O12_8 O 0.82945(4) 0.03360(4) 0.26104(4)
O16_9 O 0.73896(4) 0.17055(4) 0.03360(4)
O22_13 O 0.73368(4) 0.02941(4) 0.20649(4)
O27_8 O 0.79351(4) 0.02941(4) 0.23368(4)
O31_9 O 0.76632(4) 0.20649(4) 0.02941(4)
C19_9 C 0.81681(6) 0.04024(5) 0.23959(6)
C20_9 C 0.95976(5) 0.23959(6) 0.18319(6)
C21_9 C 0.76041(6) 0.18319(6) 0.04024(5)
C29_9 C 0.82821(6) 0.06230(5) 0.22124(6)
C30_9 C 0.93770(5) 0.22124(6) 0.17179(6)
C31_9 C 0.77876(6) 0.17179(6) 0.06230(5)
C40_9 C 0.81356(6) 0.07135(6) 0.19845(5)
C41_9 C 0.92865(6) 0.19845(5) 0.18644(6)
C42_9 C 0.80155(5) 0.18644(6) 0.07135(6)
H17_9 H 0.7965 0.0630 0.1937
H18_9 H 0.9370 0.1937 0.2035
H19_9 H 0.8063 0.2035 0.0630
C51_9 C 0.82408(6) 0.09264(5) 0.18262(6)
C52_9 C 0.90736(5) 0.18262(6) 0.17592(6)
C53_9 C 0.81738(6) 0.17592(6) 0.09264(5)
C62_9 C 0.84889(6) 0.10567(6) 0.18936(6)
C63_9 C 0.81064(6) 0.15111(6) 0.10567(6)
C64_9 C 0.89433(6) 0.18936(6) 0.15111(6)
C73_9 C 0.86395(6) 0.09573(6) 0.21179(6)
C74_9 C 0.78821(6) 0.13605(6) 0.09573(6)
C75_9 C 0.90427(6) 0.21179(6) 0.13605(6)
H28_9 H 0.8812 0.1037 0.2164
H29_9 H 0.7836 0.1188 0.1037
H30_9 H 0.8963 0.2164 0.1188
C84_9 C 0.85358(6) 0.07417(6) 0.22734(6)
C85_9 C 0.77266(6) 0.14642(6) 0.07417(6)
C86_9 C 0.92583(6) 0.22734(6) 0.14642(6)
H39_9 H 0.8640 0.0673 0.2425
H40_9 H 0.7575 0.1360 0.0673
H41_9 H 0.9327 0.2425 0.1360
C95_9 C 0.85350(6) 0.12822(6) 0.16911(6)
C96_9 C 0.83089(6) 0.14650(6) 0.12822(6)
C97_9 C 0.87178(6) 0.16911(6) 0.14650(6)
C106_9 C 0.83207(6) 0.12701(6) 0.14930(6)
C107_9 C 0.87299(6) 0.14930(6) 0.16793(6)
C108_9 C 0.85070(6) 0.16793(6) 0.12701(6)
C117_9 C 0.81147(6) 0.10416(6) 0.15665(6)
C118_9 C 0.89584(6) 0.15665(6) 0.18853(6)
C119_9 C 0.84335(6) 0.18853(6) 0.10416(6)
C128_9 C 0.78259(7) 0.11585(7) 0.16348(7)
C129_9 C 0.88415(7) 0.16348(7) 0.21741(7)
C130_9 C 0.83652(7) 0.21741(7) 0.11585(7)
H50_9 H 0.7740 0.1225 0.1462
H51_9 H 0.8775 0.1462 0.2260
H52_9 H 0.8538 0.2260 0.1225
H61_9 H 0.7710 0.1007 0.1706
H62_9 H 0.8993 0.1706 0.2290
H63_9 H 0.8294 0.2290 0.1007
C139_9 C 0.78227(8) 0.13903(9) 0.18418(8)
C140_9 C 0.86097(9) 0.18418(8) 0.21773(8)
C141_9 C 0.81582(8) 0.21773(8) 0.13903(9)
H72_9 H 0.7915 0.1330 0.2011
H73_9 H 0.8670 0.2011 0.2085
H74_9 H 0.7989 0.2085 0.1330
H83_9 H 0.7632 0.1441 0.1883
H84_9 H 0.8559 0.1883 0.2368
H85_9 H 0.8117 0.2368 0.1441
H94_9 H 0.7920 0.1550 0.1765
H95_9 H 0.8450 0.1765 0.2080
H96_9 H 0.8235 0.2080 0.1550
C150_9 C 0.81082(7) 0.07999(7) 0.13518(8)
C151_9 C 0.92001(7) 0.13518(8) 0.18918(7)
C152_9 C 0.86482(8) 0.18918(7) 0.07999(7)
H105_9 H 0.7989 0.0651 0.1426
H106_9 H 0.9349 0.1426 0.2011
H107_9 H 0.8574 0.2011 0.0651
H116_9 H 0.8021 0.0868 0.1180
H117_9 H 0.9132 0.1180 0.1979
H118_9 H 0.8820 0.1979 0.0868
C161_9 C 0.83858(9) 0.06771(9) 0.12789(9)
C162_9 C 0.93229(9) 0.12789(9) 0.16142(9)
C163_9 C 0.87211(9) 0.16142(9) 0.06771(9)
H127_9 H 0.8504 0.0820 0.1200
H128_9 H 0.9180 0.1200 0.1496
H129_9 H 0.8800 0.1496 0.0820
H138_9 H 0.8361 0.0529 0.1144
H139_9 H 0.9471 0.1144 0.1639
H140_9 H 0.8856 0.1639 0.0529
H149_9 H 0.8472 0.0603 0.1445
H150_9 H 0.9397 0.1445 0.1528
H151_9 H 0.8555 0.1528 0.0603
O36_20 O 0.81674(6) 0.0000 0.17758(7)
O37_20 O 0.82242(7) 0.0000 0.31674(6)
O38_20 O 0.68326(6) 0.0000 0.32242(7)
C170_20 C 0.8168(3) -0.0000 0.34525(18)
C171_20 C 0.84525(18) 0.0000 0.1832(3)
C172_20 C 0.65475(18) -0.0000 0.3168(3)
H158_20 H 0.8470(7) -0.0000 0.3165(7)
H159_20 H 0.8165(7) 0.0000 0.1530(7)
H160_20 H 0.6835(7) 0.0000 0.3470(7)
H165_20 H 0.856681 0 0.163888
H166_15 H 0.850543 0.0183231 0.195026
H168_20 H 0.643319 -3.08149e-33 0.336112
H169_15 H 0.649457 0.0183231 0.304974
H171_20 H 0.836112 0 0.356681
H172_15 H 0.804974 0.0183231 0.350543
H177_20 H 0.663888 0 0.143319
H178_15 H 0.695026 0.0183231 0.149457
O3_7 O 0.73368(4) 0.97059(4) 0.20649(4)
O4_21 O 0.7500 1.0000 0.2500
O5_21 O 0.67758(7) 1.0000 0.18326(6)
C15_21 C 0.6832(3) 1.0000 0.15475(18)
H14_21 H 0.6530(7) 1.0000 0.1835(7)
Cd2_6 Cd 0.775119(5) 1.0000 0.201728(5)
O6_15 O 0.67055(4) 0.96640(4) 0.23896(4)
O10_7 O 0.76104(4) 0.96640(4) 0.17055(4)
O11_15 O 0.82945(4) 0.96640(4) 0.26104(4)
O14_15 O 0.73896(4) 0.96640(4) 0.32945(4)
O17_6 O 0.67055(4) 0.73896(4) 0.03360(4)
O21_15 O 0.70649(4) 0.97059(4) 0.26632(4)
O26_15 O 0.79351(4) 0.97059(4) 0.23368(4)
O29_15 O 0.76632(4) 0.97059(4) 0.29351(4)
O32_6 O 0.70649(4) 0.76632(4) 0.02941(4)
C16_7 C 0.73959(6) 0.95976(5) 0.18319(6)
C22_7 C 0.68319(6) 0.76041(6) 0.04024(5)
C23_7 C 0.54024(5) 0.81681(6) 0.23959(6)
C32_7 C 0.72124(6) 0.93770(5) 0.17179(6)
C33_7 C 0.67179(6) 0.77876(6) 0.06230(5)
C34_7 C 0.56230(5) 0.82821(6) 0.22124(6)
C43_7 C 0.69845(5) 0.92865(6) 0.18644(6)
C44_7 C 0.68644(6) 0.80155(5) 0.07135(6)
C45_7 C 0.57135(6) 0.81356(6) 0.19845(5)
H20_7 H 0.6937 0.9370 0.2035
H21_7 H 0.7035 0.8063 0.0630
H22_7 H 0.5630 0.7965 0.1937
C54_7 C 0.68262(6) 0.90736(5) 0.17592(6)
C55_7 C 0.67592(6) 0.81738(6) 0.09264(5)
C56_7 C 0.59264(5) 0.82408(6) 0.18262(6)
C65_7 C 0.68936(6) 0.89433(6) 0.15111(6)
C66_7 C 0.60567(6) 0.84889(6) 0.18936(6)
C67_7 C 0.65111(6) 0.81064(6) 0.10567(6)
C76_7 C 0.71179(6) 0.90427(6) 0.13605(6)
C77_7 C 0.59573(6) 0.86395(6) 0.21179(6)
C78_7 C 0.63605(6) 0.78821(6) 0.09573(6)
H31_7 H 0.7164 0.8963 0.1188
H32_7 H 0.6037 0.8812 0.2164
H33_7 H 0.6188 0.7836 0.1037
C87_7 C 0.72734(6) 0.92583(6) 0.14642(6)
C88_7 C 0.57417(6) 0.85358(6) 0.22734(6)
C89_7 C 0.64642(6) 0.77266(6) 0.07417(6)
H42_7 H 0.7425 0.9327 0.1360
H43_7 H 0.5673 0.8640 0.2425
H44_7 H 0.6360 0.7575 0.0673
C98_7 C 0.66911(6) 0.87178(6) 0.14650(6)
C99_7 C 0.62822(6) 0.85350(6) 0.16911(6)
C100_7 C 0.64650(6) 0.83089(6) 0.12822(6)
C109_7 C 0.64930(6) 0.87299(6) 0.16793(6)
C110_7 C 0.66793(6) 0.85070(6) 0.12701(6)
C111_7 C 0.62701(6) 0.83207(6) 0.14930(6)
C120_7 C 0.65665(6) 0.89584(6) 0.18853(6)
C121_7 C 0.68853(6) 0.84335(6) 0.10416(6)
C122_7 C 0.60416(6) 0.81147(6) 0.15665(6)
C131_7 C 0.66348(7) 0.88415(7) 0.21741(7)
C132_7 C 0.71741(7) 0.83652(7) 0.11585(7)
C133_7 C 0.61585(7) 0.78259(7) 0.16348(7)
H53_7 H 0.6462 0.8775 0.2260
H54_7 H 0.7260 0.8538 0.1225
H55_7 H 0.6225 0.7740 0.1462
H64_7 H 0.6706 0.8993 0.2290
H65_7 H 0.7290 0.8294 0.1007
H66_7 H 0.6007 0.7710 0.1706
C142_7 C 0.68418(8) 0.86097(9) 0.21773(8)
C143_7 C 0.71773(8) 0.81582(8) 0.13903(9)
C144_7 C 0.63903(9) 0.78227(8) 0.18418(8)
H75_7 H 0.7011 0.8670 0.2085
H76_7 H 0.7085 0.7989 0.1330
H77_7 H 0.6330 0.7915 0.2011
H86_7 H 0.6883 0.8559 0.2368
H87_7 H 0.7368 0.8117 0.1441
H88_7 H 0.6441 0.7632 0.1883
H97_7 H 0.6765 0.8450 0.2080
H98_7 H 0.7080 0.8235 0.1550
H99_7 H 0.6550 0.7920 0.1765
C153_7 C 0.63518(8) 0.92001(7) 0.18918(7)
C154_7 C 0.68918(7) 0.86482(8) 0.07999(7)
C155_7 C 0.57999(7) 0.81082(7) 0.13518(8)
H108_7 H 0.6426 0.9349 0.2011
H109_7 H 0.7011 0.8574 0.0651
H110_7 H 0.5651 0.7989 0.1426
H119_7 H 0.6180 0.9132 0.1979
H120_7 H 0.6979 0.8820 0.0868
H121_7 H 0.5868 0.8021 0.1180
C164_7 C 0.62789(9) 0.93229(9) 0.16142(9)
C165_7 C 0.66142(9) 0.87211(9) 0.06771(9)
C166_7 C 0.56771(9) 0.83858(9) 0.12789(9)
H130_7 H 0.6200 0.9180 0.1496
H131_7 H 0.6496 0.8800 0.0820
H132_7 H 0.5820 0.8504 0.1200
H141_7 H 0.6144 0.9471 0.1639
H142_7 H 0.6639 0.8856 0.0529
H143_7 H 0.5529 0.8361 0.1144
H152_7 H 0.6445 0.9397 0.1528
H153_7 H 0.6528 0.8555 0.0603
H154_7 H 0.5603 0.8472 0.1445
O36_21 O 0.81674(6) 1.0000 0.17758(7)
O37_21 O 0.82242(7) 1.0000 0.31674(6)
O38_21 O 0.68326(6) 1.0000 0.32242(7)
C170_21 C 0.8168(3) 1.0000 0.34525(18)
C171_21 C 0.84525(18) 1.0000 0.1832(3)
C172_21 C 0.65475(18) 1.0000 0.3168(3)
H158_21 H 0.8470(7) 1.0000 0.3165(7)
H159_21 H 0.8165(7) 1.0000 0.1530(7)
H160_21 H 0.6835(7) 1.0000 0.3470(7)
H164_15 H 0.850543 0.981677 0.195026
H165_21 H 0.856681 1 0.163888
H167_15 H 0.649457 0.981677 0.304974
H168_21 H 0.643319 1 0.336112
H170_15 H 0.804974 0.981677 0.350543
H171_21 H 0.836112 1 0.356681
H176_15 H 0.695026 0.981677 0.149457
H177_21 H 0.663888 1 0.143319
O18_5 O 0.46640(4) 0.17055(4) 0.26104(4)
O33_5 O 0.47059(4) 0.20649(4) 0.23368(4)
C16_8 C 0.26041(6) 0.04024(5) 0.18319(6)
C22_8 C 0.31681(6) 0.23959(6) 0.04024(5)
C23_8 C 0.45976(5) 0.18319(6) 0.23959(6)
C32_8 C 0.27876(6) 0.06230(5) 0.17179(6)
C33_8 C 0.32821(6) 0.22124(6) 0.06230(5)
C34_8 C 0.43770(5) 0.17179(6) 0.22124(6)
C43_8 C 0.30155(5) 0.07135(6) 0.18644(6)
C44_8 C 0.31356(6) 0.19845(5) 0.07135(6)
C45_8 C 0.42865(6) 0.18644(6) 0.19845(5)
H20_8 H 0.3063 0.0630 0.2035
H21_8 H 0.2965 0.1937 0.0630
H22_8 H 0.4370 0.2035 0.1937
C54_8 C 0.31738(6) 0.09264(5) 0.17592(6)
C55_8 C 0.32408(6) 0.18262(6) 0.09264(5)
C56_8 C 0.40736(5) 0.17592(6) 0.18262(6)
C65_8 C 0.31064(6) 0.10567(6) 0.15111(6)
C66_8 C 0.39433(6) 0.15111(6) 0.18936(6)
C67_8 C 0.34889(6) 0.18936(6) 0.10567(6)
C76_8 C 0.28821(6) 0.09573(6) 0.13605(6)
C77_8 C 0.40427(6) 0.13605(6) 0.21179(6)
C78_8 C 0.36395(6) 0.21179(6) 0.09573(6)
H31_8 H 0.2836 0.1037 0.1188
H32_8 H 0.3963 0.1188 0.2164
H33_8 H 0.3812 0.2164 0.1037
C87_8 C 0.27266(6) 0.07417(6) 0.14642(6)
C88_8 C 0.42583(6) 0.14642(6) 0.22734(6)
C89_8 C 0.35358(6) 0.22734(6) 0.07417(6)
H42_8 H 0.2575 0.0673 0.1360
H43_8 H 0.4327 0.1360 0.2425
H44_8 H 0.3640 0.2425 0.0673
C98_8 C 0.33089(6) 0.12822(6) 0.14650(6)
C99_8 C 0.37178(6) 0.14650(6) 0.16911(6)
C100_8 C 0.35350(6) 0.16911(6) 0.12822(6)
C109_8 C 0.35070(6) 0.12701(6) 0.16793(6)
C110_8 C 0.33207(6) 0.14930(6) 0.12701(6)
C111_8 C 0.37299(6) 0.16793(6) 0.14930(6)
C120_8 C 0.34335(6) 0.10416(6) 0.18853(6)
C121_8 C 0.31147(6) 0.15665(6) 0.10416(6)
C122_8 C 0.39584(6) 0.18853(6) 0.15665(6)
C131_8 C 0.33652(7) 0.11585(7) 0.21741(7)
C132_8 C 0.28259(7) 0.16348(7) 0.11585(7)
C133_8 C 0.38415(7) 0.21741(7) 0.16348(7)
H53_8 H 0.3538 0.1225 0.2260
H54_8 H 0.2740 0.1462 0.1225
H55_8 H 0.3775 0.2260 0.1462
H64_8 H 0.3294 0.1007 0.2290
H65_8 H 0.2710 0.1706 0.1007
H66_8 H 0.3993 0.2290 0.1706
C142_8 C 0.31582(8) 0.13903(9) 0.21773(8)
C143_8 C 0.28227(8) 0.18418(8) 0.13903(9)
C144_8 C 0.36097(9) 0.21773(8) 0.18418(8)
H75_8 H 0.2989 0.1330 0.2085
H76_8 H 0.2915 0.2011 0.1330
H77_8 H 0.3670 0.2085 0.2011
H86_8 H 0.3117 0.1441 0.2368
H87_8 H 0.2632 0.1883 0.1441
H88_8 H 0.3559 0.2368 0.1883
H97_8 H 0.3235 0.1550 0.2080
H98_8 H 0.2920 0.1765 0.1550
H99_8 H 0.3450 0.2080 0.1765
C153_8 C 0.36482(8) 0.07999(7) 0.18918(7)
C154_8 C 0.31082(7) 0.13518(8) 0.07999(7)
C155_8 C 0.42001(7) 0.18918(7) 0.13518(8)
H108_8 H 0.3574 0.0651 0.2011
H109_8 H 0.2989 0.1426 0.0651
H110_8 H 0.4349 0.2011 0.1426
H119_8 H 0.3820 0.0868 0.1979
H120_8 H 0.3021 0.1180 0.0868
H121_8 H 0.4132 0.1979 0.1180
C164_8 C 0.37211(9) 0.06771(9) 0.16142(9)
C165_8 C 0.33858(9) 0.12789(9) 0.06771(9)
C166_8 C 0.43229(9) 0.16142(9) 0.12789(9)
H130_8 H 0.3800 0.0820 0.1496
H131_8 H 0.3504 0.1200 0.0820
H132_8 H 0.4180 0.1496 0.1200
H141_8 H 0.3856 0.0529 0.1639
H142_8 H 0.3361 0.1144 0.0529
H143_8 H 0.4471 0.1639 0.1144
H152_8 H 0.3555 0.0603 0.1528
H153_8 H 0.3472 0.1445 0.0603
H154_8 H 0.4397 0.1528 0.1445
Cd9_12 Cd -0.0000 0.724881(5) 0.201728(5)
Cd12_11 Cd 0.201728(5) 0.775119(5) 0.0000
O15_8 O 0.03360(4) 0.73896(4) 0.17055(4)
O16_10 O 0.26104(4) 0.82945(4) 0.03360(4)
O30_8 O 0.02941(4) 0.76632(4) 0.20649(4)
O31_10 O 0.23368(4) 0.79351(4) 0.02941(4)
C19_10 C 0.18319(6) 0.95976(5) 0.23959(6)
C20_10 C 0.04024(5) 0.76041(6) 0.18319(6)
C21_10 C 0.23959(6) 0.81681(6) 0.04024(5)
C29_10 C 0.17179(6) 0.93770(5) 0.22124(6)
C30_10 C 0.06230(5) 0.77876(6) 0.17179(6)
C31_10 C 0.22124(6) 0.82821(6) 0.06230(5)
C40_10 C 0.18644(6) 0.92865(6) 0.19845(5)
C41_10 C 0.07135(6) 0.80155(5) 0.18644(6)
C42_10 C 0.19845(5) 0.81356(6) 0.07135(6)
H17_10 H 0.2035 0.9370 0.1937
H18_10 H 0.0630 0.8063 0.2035
H19_10 H 0.1937 0.7965 0.0630
C51_10 C 0.17592(6) 0.90736(5) 0.18262(6)
C52_10 C 0.09264(5) 0.81738(6) 0.17592(6)
C53_10 C 0.18262(6) 0.82408(6) 0.09264(5)
C62_10 C 0.15111(6) 0.89433(6) 0.18936(6)
C63_10 C 0.18936(6) 0.84889(6) 0.10567(6)
C64_10 C 0.10567(6) 0.81064(6) 0.15111(6)
C73_10 C 0.13605(6) 0.90427(6) 0.21179(6)
C74_10 C 0.21179(6) 0.86395(6) 0.09573(6)
C75_10 C 0.09573(6) 0.78821(6) 0.13605(6)
H28_10 H 0.1188 0.8963 0.2164
H29_10 H 0.2164 0.8812 0.1037
H30_10 H 0.1037 0.7836 0.1188
C84_10 C 0.14642(6) 0.92583(6) 0.22734(6)
C85_10 C 0.22734(6) 0.85358(6) 0.07417(6)
C86_10 C 0.07417(6) 0.77266(6) 0.14642(6)
H39_10 H 0.1360 0.9327 0.2425
H40_10 H 0.2425 0.8640 0.0673
H41_10 H 0.0673 0.7575 0.1360
C95_10 C 0.14650(6) 0.87178(6) 0.16911(6)
C96_10 C 0.16911(6) 0.85350(6) 0.12822(6)
C97_10 C 0.12822(6) 0.83089(6) 0.14650(6)
C106_10 C 0.16793(6) 0.87299(6) 0.14930(6)
C107_10 C 0.12701(6) 0.85070(6) 0.16793(6)
C108_10 C 0.14930(6) 0.83207(6) 0.12701(6)
C117_10 C 0.18853(6) 0.89584(6) 0.15665(6)
C118_10 C 0.10416(6) 0.84335(6) 0.18853(6)
C119_10 C 0.15665(6) 0.81147(6) 0.10416(6)
C128_10 C 0.21741(7) 0.88415(7) 0.16348(7)
C129_10 C 0.11585(7) 0.83652(7) 0.21741(7)
C130_10 C 0.16348(7) 0.78259(7) 0.11585(7)
H50_10 H 0.2260 0.8775 0.1462
H51_10 H 0.1225 0.8538 0.2260
H52_10 H 0.1462 0.7740 0.1225
H61_10 H 0.2290 0.8993 0.1706
H62_10 H 0.1007 0.8294 0.2290
H63_10 H 0.1706 0.7710 0.1007
C139_10 C 0.21773(8) 0.86097(9) 0.18418(8)
C140_10 C 0.13903(9) 0.81582(8) 0.21773(8)
C141_10 C 0.18418(8) 0.78227(8) 0.13903(9)
H72_10 H 0.2085 0.8670 0.2011
H73_10 H 0.1330 0.7989 0.2085
H74_10 H 0.2011 0.7915 0.1330
H83_10 H 0.2368 0.8559 0.1883
H84_10 H 0.1441 0.8117 0.2368
H85_10 H 0.1883 0.7632 0.1441
H94_10 H 0.2080 0.8450 0.1765
H95_10 H 0.1550 0.8235 0.2080
H96_10 H 0.1765 0.7920 0.1550
C150_10 C 0.18918(7) 0.92001(7) 0.13518(8)
C151_10 C 0.07999(7) 0.86482(8) 0.18918(7)
C152_10 C 0.13518(8) 0.81082(7) 0.07999(7)
H105_10 H 0.2011 0.9349 0.1426
H106_10 H 0.0651 0.8574 0.2011
H107_10 H 0.1426 0.7989 0.0651
H116_10 H 0.1979 0.9132 0.1180
H117_10 H 0.0868 0.8820 0.1979
H118_10 H 0.1180 0.8021 0.0868
C161_10 C 0.16142(9) 0.93229(9) 0.12789(9)
C162_10 C 0.06771(9) 0.87211(9) 0.16142(9)
C163_10 C 0.12789(9) 0.83858(9) 0.06771(9)
H127_10 H 0.1496 0.9180 0.1200
H128_10 H 0.0820 0.8800 0.1496
H129_10 H 0.1200 0.8504 0.0820
H138_10 H 0.1639 0.9471 0.1144
H139_10 H 0.0529 0.8856 0.1639
H140_10 H 0.1144 0.8361 0.0529
H149_10 H 0.1528 0.9397 0.1445
H150_10 H 0.0603 0.8555 0.1528
H151_10 H 0.1445 0.8472 0.0603
Cd12_12 Cd 0.201728(5) 0.775119(5) 1.0000
Cd9_13 Cd 1.0000 0.724881(5) 0.201728(5)
O4_22 O 0.5000 0.2500 0.2500
O5_22 O 0.5000 0.18326(6) 0.17758(7)
C15_22 C 0.5000 0.15475(18) 0.1832(3)
H14_22 H 0.5000 0.1835(7) 0.1530(7)
O6_16 O 0.46640(4) 0.23896(4) 0.17055(4)
O9_14 O 0.53360(4) 0.17055(4) 0.26104(4)
O11_16 O 0.46640(4) 0.26104(4) 0.32945(4)
O13_8 O 0.53360(4) 0.32945(4) 0.23896(4)
O14_16 O 0.46640(4) 0.32945(4) 0.23896(4)
O21_16 O 0.47059(4) 0.26632(4) 0.20649(4)
O22_14 O 0.52941(4) 0.20649(4) 0.23368(4)
O26_16 O 0.47059(4) 0.23368(4) 0.29351(4)
O28_8 O 0.52941(4) 0.29351(4) 0.26632(4)
O29_16 O 0.47059(4) 0.29351(4) 0.26632(4)
C24_8 C 0.54024(5) 0.31681(6) 0.26041(6)
C25_8 C 0.73959(6) 0.45976(5) 0.31681(6)
C26_8 C 0.68319(6) 0.26041(6) 0.45976(5)
C35_8 C 0.56230(5) 0.32821(6) 0.27876(6)
C36_8 C 0.72124(6) 0.43770(5) 0.32821(6)
C37_8 C 0.67179(6) 0.27876(6) 0.43770(5)
C46_8 C 0.57135(6) 0.31356(6) 0.30155(5)
C47_8 C 0.69845(5) 0.42865(6) 0.31356(6)
C48_8 C 0.68644(6) 0.30155(5) 0.42865(6)
H23_8 H 0.5630 0.2965 0.3063
H24_8 H 0.6937 0.4370 0.2965
H25_8 H 0.7035 0.3063 0.4370
C57_8 C 0.59264(5) 0.32408(6) 0.31738(6)
C58_8 C 0.68262(6) 0.40736(5) 0.32408(6)
C59_8 C 0.67592(6) 0.31738(6) 0.40736(5)
C68_8 C 0.60567(6) 0.34889(6) 0.31064(6)
C69_8 C 0.65111(6) 0.31064(6) 0.39433(6)
C70_8 C 0.68936(6) 0.39433(6) 0.34889(6)
C79_8 C 0.59573(6) 0.36395(6) 0.28821(6)
C80_8 C 0.63605(6) 0.28821(6) 0.40427(6)
C81_8 C 0.71179(6) 0.40427(6) 0.36395(6)
H34_8 H 0.6037 0.3812 0.2836
H35_8 H 0.6188 0.2836 0.3963
H36_8 H 0.7164 0.3963 0.3812
C90_8 C 0.57417(6) 0.35358(6) 0.27266(6)
C91_8 C 0.64642(6) 0.27266(6) 0.42583(6)
C92_8 C 0.72734(6) 0.42583(6) 0.35358(6)
H45_8 H 0.5673 0.3640 0.2575
H46_8 H 0.6360 0.2575 0.4327
H47_8 H 0.7425 0.4327 0.3640
C101_8 C 0.62822(6) 0.35350(6) 0.33089(6)
C102_8 C 0.64650(6) 0.33089(6) 0.37178(6)
C103_8 C 0.66911(6) 0.37178(6) 0.35350(6)
C112_8 C 0.62701(6) 0.33207(6) 0.35070(6)
C113_8 C 0.64930(6) 0.37299(6) 0.33207(6)
C114_8 C 0.66793(6) 0.35070(6) 0.37299(6)
C123_8 C 0.60416(6) 0.31147(6) 0.34335(6)
C124_8 C 0.65665(6) 0.39584(6) 0.31147(6)
C125_8 C 0.68853(6) 0.34335(6) 0.39584(6)
C134_8 C 0.61585(7) 0.28259(7) 0.33652(7)
C135_8 C 0.66348(7) 0.38415(7) 0.28259(7)
C136_8 C 0.71741(7) 0.33652(7) 0.38415(7)
H56_8 H 0.6225 0.2740 0.3538
H57_8 H 0.6462 0.3775 0.2740
H58_8 H 0.7260 0.3538 0.3775
H67_8 H 0.6007 0.2710 0.3294
H68_8 H 0.6706 0.3993 0.2710
H69_8 H 0.7290 0.3294 0.3993
C145_8 C 0.63903(9) 0.28227(8) 0.31582(8)
C146_8 C 0.68418(8) 0.36097(9) 0.28227(8)
C147_8 C 0.71773(8) 0.31582(8) 0.36097(9)
H78_8 H 0.6330 0.2915 0.2989
H79_8 H 0.7011 0.3670 0.2915
H80_8 H 0.7085 0.2989 0.3670
H89_8 H 0.6441 0.2632 0.3117
H90_8 H 0.6883 0.3559 0.2632
H91_8 H 0.7368 0.3117 0.3559
H100_8 H 0.6550 0.2920 0.3235
H101_8 H 0.6765 0.3450 0.2920
H102_8 H 0.7080 0.3235 0.3450
C156_8 C 0.57999(7) 0.31082(7) 0.36482(8)
C157_8 C 0.63518(8) 0.42001(7) 0.31082(7)
C158_8 C 0.68918(7) 0.36482(8) 0.42001(7)
H111_8 H 0.5651 0.2989 0.3574
H112_8 H 0.6426 0.4349 0.2989
H113_8 H 0.7011 0.3574 0.4349
H122_8 H 0.5868 0.3021 0.3820
H123_8 H 0.6180 0.4132 0.3021
H124_8 H 0.6979 0.3820 0.4132
C167_8 C 0.56771(9) 0.33858(9) 0.37211(9)
C168_8 C 0.62789(9) 0.43229(9) 0.33858(9)
C169_8 C 0.66142(9) 0.37211(9) 0.43229(9)
H133_8 H 0.5820 0.3504 0.3800
H134_8 H 0.6200 0.4180 0.3504
H135_8 H 0.6496 0.3800 0.4180
H144_8 H 0.5529 0.3361 0.3856
H145_8 H 0.6144 0.4471 0.3361
H146_8 H 0.6639 0.3856 0.4471
H155_8 H 0.5603 0.3472 0.3555
H156_8 H 0.6445 0.4397 0.3472
H157_8 H 0.6528 0.3555 0.4397
O36_22 O 0.5000 0.17758(7) 0.31674(6)
O37_22 O 0.5000 0.31674(6) 0.32242(7)
O38_22 O 0.5000 0.32242(7) 0.18326(6)
C170_22 C 0.5000 0.34525(18) 0.3168(3)
C171_22 C 0.5000 0.1832(3) 0.34525(18)
C172_22 C 0.5000 0.3168(3) 0.15475(18)
H158_22 H 0.5000 0.3165(7) 0.3470(7)
H159_22 H 0.5000 0.1530(7) 0.3165(7)
H160_22 H 0.5000 0.3470(7) 0.1835(7)
H164_16 H 0.481677 0.195026 0.350543
H165_22 H 0.5 0.163888 0.356681
H166_16 H 0.518323 0.195026 0.350543
H167_16 H 0.481677 0.304974 0.149457
H168_22 H 0.5 0.336112 0.143319
H169_16 H 0.518323 0.304974 0.149457
H170_16 H 0.481677 0.350543 0.304974
H171_22 H 0.5 0.356681 0.336112
H172_16 H 0.518323 0.350543 0.304974
H176_16 H 0.481677 0.149457 0.195026
H177_22 H 0.5 0.143319 0.163888
H178_16 H 0.518323 0.149457 0.195026
O4_23 O 0.7500 0.2500 0.0000
O5_23 O 0.68326(6) 0.17758(7) 0.0000
C15_23 C 0.65475(18) 0.1832(3) 0.0000
H14_23 H 0.6835(7) 0.1530(7) 0.0000
O9_15 O 0.67055(4) 0.26104(4) 0.03360(4)
O22_15 O 0.70649(4) 0.23368(4) 0.02941(4)
O36_23 O 0.67758(7) 0.31674(6) 0.0000
O37_23 O 0.81674(6) 0.32242(7) 0.0000
O38_23 O 0.82242(7) 0.18326(6) 0.0000
C170_23 C 0.84525(18) 0.3168(3) 0.0000
C171_23 C 0.6832(3) 0.34525(18) 0.0000
C172_23 C 0.8168(3) 0.15475(18) 0.0000
H158_23 H 0.8165(7) 0.3470(7) 0.0000
H159_23 H 0.6530(7) 0.3165(7) 0.0000
H160_23 H 0.8470(7) 0.1835(7) 0.0000
H165_23 H 0.663888 0.356681 0
H166_17 H 0.695026 0.350543 0.0183231
H168_23 H 0.836112 0.143319 0
H169_17 H 0.804974 0.149457 0.0183231
H171_23 H 0.856681 0.336112 0
H172_17 H 0.850543 0.304974 0.0183231
H177_23 H 0.643319 0.163888 0
H178_17 H 0.649457 0.195026 0.0183231
O4_24 O 0.7500 0.2500 1.0000
O5_24 O 0.68326(6) 0.17758(7) 1.0000
C15_24 C 0.65475(18) 0.1832(3) 1.0000
H14_24 H 0.6835(7) 0.1530(7) 1.0000
O6_17 O 0.73896(4) 0.17055(4) 0.96640(4)
O11_17 O 0.76104(4) 0.32945(4) 0.96640(4)
O14_17 O 0.82945(4) 0.23896(4) 0.96640(4)
O21_17 O 0.76632(4) 0.20649(4) 0.97059(4)
O26_17 O 0.73368(4) 0.29351(4) 0.97059(4)
O29_17 O 0.79351(4) 0.26632(4) 0.97059(4)
O36_24 O 0.67758(7) 0.31674(6) 1.0000
O37_24 O 0.81674(6) 0.32242(7) 1.0000
O38_24 O 0.82242(7) 0.18326(6) 1.0000
C170_24 C 0.84525(18) 0.3168(3) 1.0000
C171_24 C 0.6832(3) 0.34525(18) 1.0000
C172_24 C 0.8168(3) 0.15475(18) 1.0000
H158_24 H 0.8165(7) 0.3470(7) 1.0000
H159_24 H 0.6530(7) 0.3165(7) 1.0000
H160_24 H 0.8470(7) 0.1835(7) 1.0000
H164_17 H 0.695026 0.350543 0.981677
H165_24 H 0.663888 0.356681 1
H167_17 H 0.804974 0.149457 0.981677
H168_24 H 0.836112 0.143319 1
H170_17 H 0.850543 0.304974 0.981677
H171_24 H 0.856681 0.336112 1
H176_17 H 0.649457 0.195026 0.981677
H177_24 H 0.643319 0.163888 1
O4_25 O 0.7500 0.7500 0.0000
O5_25 O 0.68326(6) 0.82242(7) 0.0000
C15_25 C 0.65475(18) 0.8168(3) 0.0000
H14_25 H 0.6835(7) 0.8470(7) 0.0000
O6_18 O 0.73896(4) 0.82945(4) 0.03360(4)
O11_18 O 0.76104(4) 0.67055(4) 0.03360(4)
O14_18 O 0.82945(4) 0.76104(4) 0.03360(4)
O21_18 O 0.76632(4) 0.79351(4) 0.02941(4)
O26_18 O 0.73368(4) 0.70649(4) 0.02941(4)
O29_18 O 0.79351(4) 0.73368(4) 0.02941(4)
O36_25 O 0.67758(7) 0.68326(6) 0.0000
O37_25 O 0.81674(6) 0.67758(7) 0.0000
O38_25 O 0.82242(7) 0.81674(6) 0.0000
C170_25 C 0.84525(18) 0.6832(3) 0.0000
C171_25 C 0.6832(3) 0.65475(18) 0.0000
C172_25 C 0.8168(3) 0.84525(18) 0.0000
H158_25 H 0.8165(7) 0.6530(7) 0.0000
H159_25 H 0.6530(7) 0.6835(7) 0.0000
H160_25 H 0.8470(7) 0.8165(7) 0.0000
H164_18 H 0.695026 0.649457 0.0183231
H165_25 H 0.663888 0.643319 0
H167_18 H 0.804974 0.850543 0.0183231
H168_25 H 0.836112 0.856681 0
H170_18 H 0.850543 0.695026 0.0183231
H171_25 H 0.856681 0.663888 0
H176_18 H 0.649457 0.804974 0.0183231
H177_25 H 0.643319 0.836112 0
O4_26 O 0.7500 0.7500 1.0000
O5_26 O 0.68326(6) 0.82242(7) 1.0000
C15_26 C 0.65475(18) 0.8168(3) 1.0000
H14_26 H 0.6835(7) 0.8470(7) 1.0000
O36_26 O 0.67758(7) 0.68326(6) 1.0000
O37_26 O 0.81674(6) 0.67758(7) 1.0000
O38_26 O 0.82242(7) 0.81674(6) 1.0000
C170_26 C 0.84525(18) 0.6832(3) 1.0000
C171_26 C 0.6832(3) 0.65475(18) 1.0000
C172_26 C 0.8168(3) 0.84525(18) 1.0000
H158_26 H 0.8165(7) 0.6530(7) 1.0000
H159_26 H 0.6530(7) 0.6835(7) 1.0000
H160_26 H 0.8470(7) 0.8165(7) 1.0000
H165_26 H 0.663888 0.643319 1
H166_18 H 0.695026 0.649457 0.981677
H168_26 H 0.836112 0.856681 1
H169_18 H 0.804974 0.850543 0.981677
H171_26 H 0.856681 0.663888 1
H172_18 H 0.850543 0.695026 0.981677
H177_26 H 0.643319 0.836112 1
H178_18 H 0.649457 0.804974 0.981677
C1_10 C 0.23959(6) 0.18319(6) 0.95976(5)
C2_10 C 0.22124(6) 0.17179(6) 0.93770(5)
C3_10 C 0.19845(5) 0.18644(6) 0.92865(6)
H1_10 H 0.1937 0.2035 0.9370
C4_10 C 0.18262(6) 0.17592(6) 0.90736(5)
C5_10 C 0.18936(6) 0.15111(6) 0.89433(6)
C6_10 C 0.21179(6) 0.13605(6) 0.90427(6)
H2_10 H 0.2164 0.1188 0.8963
C7_10 C 0.22734(6) 0.14642(6) 0.92583(6)
H3_10 H 0.2425 0.1360 0.9327
C8_10 C 0.16911(6) 0.14650(6) 0.87178(6)
C9_10 C 0.16793(6) 0.12701(6) 0.85070(6)
C10_10 C 0.15665(6) 0.18853(6) 0.89584(6)
C11_10 C 0.16348(7) 0.21741(7) 0.88415(7)
H4_10 H 0.1462 0.2260 0.8775
H5_10 H 0.1706 0.2290 0.8993
C12_10 C 0.18418(8) 0.21773(8) 0.86097(9)
H6_10 H 0.2011 0.2085 0.8670
H7_10 H 0.1883 0.2368 0.8559
H8_10 H 0.1765 0.2080 0.8450
C13_10 C 0.13518(8) 0.18918(7) 0.92001(7)
H9_10 H 0.1426 0.2011 0.9349
H10_10 H 0.1180 0.1979 0.9132
C14_10 C 0.12789(9) 0.16142(9) 0.93229(9)
H11_10 H 0.1200 0.1496 0.9180
H12_10 H 0.1144 0.1639 0.9471
H13_10 H 0.1445 0.1528 0.9397
Cd5_12 Cd 0.201728(5) -0.0000 0.724881(5)
Cd8_14 Cd -0.0000 0.201728(5) 0.775119(5)
O7_10 O 0.17055(4) 0.03360(4) 0.73896(4)
O8_9 O 0.03360(4) 0.26104(4) 0.82945(4)
O24_10 O 0.20649(4) 0.02941(4) 0.76632(4)
O25_9 O 0.02941(4) 0.23368(4) 0.79351(4)
C17_10 C 0.18319(6) 0.04024(5) 0.76041(6)
C18_10 C 0.04024(5) 0.23959(6) 0.81681(6)
C27_10 C 0.17179(6) 0.06230(5) 0.77876(6)
C28_10 C 0.06230(5) 0.22124(6) 0.82821(6)
C38_10 C 0.18644(6) 0.07135(6) 0.80155(5)
C39_10 C 0.07135(6) 0.19845(5) 0.81356(6)
H15_10 H 0.2035 0.0630 0.8063
H16_10 H 0.0630 0.1937 0.7965
C49_10 C 0.17592(6) 0.09264(5) 0.81738(6)
C50_10 C 0.09264(5) 0.18262(6) 0.82408(6)
C60_10 C 0.15111(6) 0.10567(6) 0.81064(6)
C61_10 C 0.10567(6) 0.18936(6) 0.84889(6)
C71_10 C 0.13605(6) 0.09573(6) 0.78821(6)
C72_10 C 0.09573(6) 0.21179(6) 0.86395(6)
H26_10 H 0.1188 0.1037 0.7836
H27_10 H 0.1037 0.2164 0.8812
C82_10 C 0.14642(6) 0.07417(6) 0.77266(6)
C83_10 C 0.07417(6) 0.22734(6) 0.85358(6)
H37_10 H 0.1360 0.0673 0.7575
H38_10 H 0.0673 0.2425 0.8640
C93_10 C 0.14650(6) 0.12822(6) 0.83089(6)
C94_10 C 0.12822(6) 0.16911(6) 0.85350(6)
C104_10 C 0.14930(6) 0.16793(6) 0.87299(6)
C105_10 C 0.12701(6) 0.14930(6) 0.83207(6)
C115_10 C 0.18853(6) 0.10416(6) 0.84335(6)
C116_10 C 0.10416(6) 0.15665(6) 0.81147(6)
C126_10 C 0.21741(7) 0.11585(7) 0.83652(7)
C127_10 C 0.11585(7) 0.16348(7) 0.78259(7)
H48_10 H 0.2260 0.1225 0.8538
H49_10 H 0.1225 0.1462 0.7740
H59_10 H 0.2290 0.1007 0.8294
H60_10 H 0.1007 0.1706 0.7710
C137_10 C 0.21773(8) 0.13903(9) 0.81582(8)
C138_10 C 0.13903(9) 0.18418(8) 0.78227(8)
H70_10 H 0.2085 0.1330 0.7989
H71_10 H 0.1330 0.2011 0.7915
H81_10 H 0.2368 0.1441 0.8117
H82_10 H 0.1441 0.1883 0.7632
H92_10 H 0.2080 0.1550 0.8235
H93_10 H 0.1550 0.1765 0.7920
C148_10 C 0.18918(7) 0.07999(7) 0.86482(8)
C149_10 C 0.07999(7) 0.13518(8) 0.81082(7)
H103_10 H 0.2011 0.0651 0.8574
H104_10 H 0.0651 0.1426 0.7989
H114_10 H 0.1979 0.0868 0.8820
H115_10 H 0.0868 0.1180 0.8021
C159_10 C 0.16142(9) 0.06771(9) 0.87211(9)
C160_10 C 0.06771(9) 0.12789(9) 0.83858(9)
H125_10 H 0.1496 0.0820 0.8800
H126_10 H 0.0820 0.1200 0.8504
H136_10 H 0.1639 0.0529 0.8856
H137_10 H 0.0529 0.1144 0.8361
H147_10 H 0.1528 0.0603 0.8555
H148_10 H 0.0603 0.1445 0.8472
Cd5_13 Cd 0.201728(5) 1.0000 0.724881(5)
Cd8_15 Cd 1.0000 0.201728(5) 0.775119(5)
C16_9 C 0.54024(5) 0.23959(6) 0.68319(6)
C22_9 C 0.73959(6) 0.18319(6) 0.54024(5)
C23_9 C 0.68319(6) 0.04024(5) 0.73959(6)
C32_9 C 0.56230(5) 0.22124(6) 0.67179(6)
C33_9 C 0.72124(6) 0.17179(6) 0.56230(5)
C34_9 C 0.67179(6) 0.06230(5) 0.72124(6)
C43_9 C 0.57135(6) 0.19845(5) 0.68644(6)
C44_9 C 0.69845(5) 0.18644(6) 0.57135(6)
C45_9 C 0.68644(6) 0.07135(6) 0.69845(5)
H20_9 H 0.5630 0.1937 0.7035
H21_9 H 0.6937 0.2035 0.5630
H22_9 H 0.7035 0.0630 0.6937
C54_9 C 0.59264(5) 0.18262(6) 0.67592(6)
C55_9 C 0.68262(6) 0.17592(6) 0.59264(5)
C56_9 C 0.67592(6) 0.09264(5) 0.68262(6)
C65_9 C 0.60567(6) 0.18936(6) 0.65111(6)
C66_9 C 0.65111(6) 0.10567(6) 0.68936(6)
C67_9 C 0.68936(6) 0.15111(6) 0.60567(6)
C76_9 C 0.59573(6) 0.21179(6) 0.63605(6)
C77_9 C 0.63605(6) 0.09573(6) 0.71179(6)
C78_9 C 0.71179(6) 0.13605(6) 0.59573(6)
H31_9 H 0.6037 0.2164 0.6188
H32_9 H 0.6188 0.1037 0.7164
H33_9 H 0.7164 0.1188 0.6037
C87_9 C 0.57417(6) 0.22734(6) 0.64642(6)
C88_9 C 0.64642(6) 0.07417(6) 0.72734(6)
C89_9 C 0.72734(6) 0.14642(6) 0.57417(6)
H42_9 H 0.5673 0.2425 0.6360
H43_9 H 0.6360 0.0673 0.7425
H44_9 H 0.7425 0.1360 0.5673
C98_9 C 0.62822(6) 0.16911(6) 0.64650(6)
C99_9 C 0.64650(6) 0.12822(6) 0.66911(6)
C100_9 C 0.66911(6) 0.14650(6) 0.62822(6)
C109_9 C 0.62701(6) 0.14930(6) 0.66793(6)
C110_9 C 0.64930(6) 0.16793(6) 0.62701(6)
C111_9 C 0.66793(6) 0.12701(6) 0.64930(6)
C120_9 C 0.60416(6) 0.15665(6) 0.68853(6)
C121_9 C 0.65665(6) 0.18853(6) 0.60416(6)
C122_9 C 0.68853(6) 0.10416(6) 0.65665(6)
C131_9 C 0.61585(7) 0.16348(7) 0.71741(7)
C132_9 C 0.66348(7) 0.21741(7) 0.61585(7)
C133_9 C 0.71741(7) 0.11585(7) 0.66348(7)
H53_9 H 0.6225 0.1462 0.7260
H54_9 H 0.6462 0.2260 0.6225
H55_9 H 0.7260 0.1225 0.6462
H64_9 H 0.6007 0.1706 0.7290
H65_9 H 0.6706 0.2290 0.6007
H66_9 H 0.7290 0.1007 0.6706
C142_9 C 0.63903(9) 0.18418(8) 0.71773(8)
C143_9 C 0.68418(8) 0.21773(8) 0.63903(9)
C144_9 C 0.71773(8) 0.13903(9) 0.68418(8)
H75_9 H 0.6330 0.2011 0.7085
H76_9 H 0.7011 0.2085 0.6330
H77_9 H 0.7085 0.1330 0.7011
H86_9 H 0.6441 0.1883 0.7368
H87_9 H 0.6883 0.2368 0.6441
H88_9 H 0.7368 0.1441 0.6883
H97_9 H 0.6550 0.1765 0.7080
H98_9 H 0.6765 0.2080 0.6550
H99_9 H 0.7080 0.1550 0.6765
C153_9 C 0.57999(7) 0.13518(8) 0.68918(7)
C154_9 C 0.63518(8) 0.18918(7) 0.57999(7)
C155_9 C 0.68918(7) 0.07999(7) 0.63518(8)
H108_9 H 0.5651 0.1426 0.7011
H109_9 H 0.6426 0.2011 0.5651
H110_9 H 0.7011 0.0651 0.6426
H119_9 H 0.5868 0.1180 0.6979
H120_9 H 0.6180 0.1979 0.5868
H121_9 H 0.6979 0.0868 0.6180
C164_9 C 0.56771(9) 0.12789(9) 0.66142(9)
C165_9 C 0.62789(9) 0.16142(9) 0.56771(9)
C166_9 C 0.66142(9) 0.06771(9) 0.62789(9)
H130_9 H 0.5820 0.1200 0.6496
H131_9 H 0.6200 0.1496 0.5820
H132_9 H 0.6496 0.0820 0.6200
H141_9 H 0.5529 0.1144 0.6639
H142_9 H 0.6144 0.1639 0.5529
H143_9 H 0.6639 0.0529 0.6144
H152_9 H 0.5603 0.1445 0.6528
H153_9 H 0.6445 0.1528 0.5603
H154_9 H 0.6528 0.0603 0.6445
O17_7 O 0.17055(4) 0.76104(4) 0.96640(4)
O32_7 O 0.20649(4) 0.73368(4) 0.97059(4)
C16_10 C 0.23959(6) 0.54024(5) 0.81681(6)
C22_10 C 0.18319(6) 0.73959(6) 0.95976(5)
C23_10 C 0.04024(5) 0.68319(6) 0.76041(6)
C32_10 C 0.22124(6) 0.56230(5) 0.82821(6)
C33_10 C 0.17179(6) 0.72124(6) 0.93770(5)
C34_10 C 0.06230(5) 0.67179(6) 0.77876(6)
C43_10 C 0.19845(5) 0.57135(6) 0.81356(6)
C44_10 C 0.18644(6) 0.69845(5) 0.92865(6)
C45_10 C 0.07135(6) 0.68644(6) 0.80155(5)
H20_10 H 0.1937 0.5630 0.7965
H21_10 H 0.2035 0.6937 0.9370
H22_10 H 0.0630 0.7035 0.8063
C54_10 C 0.18262(6) 0.59264(5) 0.82408(6)
C55_10 C 0.17592(6) 0.68262(6) 0.90736(5)
C56_10 C 0.09264(5) 0.67592(6) 0.81738(6)
C65_10 C 0.18936(6) 0.60567(6) 0.84889(6)
C66_10 C 0.10567(6) 0.65111(6) 0.81064(6)
C67_10 C 0.15111(6) 0.68936(6) 0.89433(6)
C76_10 C 0.21179(6) 0.59573(6) 0.86395(6)
C77_10 C 0.09573(6) 0.63605(6) 0.78821(6)
C78_10 C 0.13605(6) 0.71179(6) 0.90427(6)
H31_10 H 0.2164 0.6037 0.8812
H32_10 H 0.1037 0.6188 0.7836
H33_10 H 0.1188 0.7164 0.8963
C87_10 C 0.22734(6) 0.57417(6) 0.85358(6)
C88_10 C 0.07417(6) 0.64642(6) 0.77266(6)
C89_10 C 0.14642(6) 0.72734(6) 0.92583(6)
H42_10 H 0.2425 0.5673 0.8640
H43_10 H 0.0673 0.6360 0.7575
H44_10 H 0.1360 0.7425 0.9327
C98_10 C 0.16911(6) 0.62822(6) 0.85350(6)
C99_10 C 0.12822(6) 0.64650(6) 0.83089(6)
C100_10 C 0.14650(6) 0.66911(6) 0.87178(6)
C109_10 C 0.14930(6) 0.62701(6) 0.83207(6)
C110_10 C 0.16793(6) 0.64930(6) 0.87299(6)
C111_10 C 0.12701(6) 0.66793(6) 0.85070(6)
C120_10 C 0.15665(6) 0.60416(6) 0.81147(6)
C121_10 C 0.18853(6) 0.65665(6) 0.89584(6)
C122_10 C 0.10416(6) 0.68853(6) 0.84335(6)
C131_10 C 0.16348(7) 0.61585(7) 0.78259(7)
C132_10 C 0.21741(7) 0.66348(7) 0.88415(7)
C133_10 C 0.11585(7) 0.71741(7) 0.83652(7)
H53_10 H 0.1462 0.6225 0.7740
H54_10 H 0.2260 0.6462 0.8775
H55_10 H 0.1225 0.7260 0.8538
H64_10 H 0.1706 0.6007 0.7710
H65_10 H 0.2290 0.6706 0.8993
H66_10 H 0.1007 0.7290 0.8294
C142_10 C 0.18418(8) 0.63903(9) 0.78227(8)
C143_10 C 0.21773(8) 0.68418(8) 0.86097(9)
C144_10 C 0.13903(9) 0.71773(8) 0.81582(8)
H75_10 H 0.2011 0.6330 0.7915
H76_10 H 0.2085 0.7011 0.8670
H77_10 H 0.1330 0.7085 0.7989
H86_10 H 0.1883 0.6441 0.7632
H87_10 H 0.2368 0.6883 0.8559
H88_10 H 0.1441 0.7368 0.8117
H97_10 H 0.1765 0.6550 0.7920
H98_10 H 0.2080 0.6765 0.8450
H99_10 H 0.1550 0.7080 0.8235
C153_10 C 0.13518(8) 0.57999(7) 0.81082(7)
C154_10 C 0.18918(7) 0.63518(8) 0.92001(7)
C155_10 C 0.07999(7) 0.68918(7) 0.86482(8)
H108_10 H 0.1426 0.5651 0.7989
H109_10 H 0.2011 0.6426 0.9349
H110_10 H 0.0651 0.7011 0.8574
H119_10 H 0.1180 0.5868 0.8021
H120_10 H 0.1979 0.6180 0.9132
H121_10 H 0.0868 0.6979 0.8820
C164_10 C 0.12789(9) 0.56771(9) 0.83858(9)
C165_10 C 0.16142(9) 0.62789(9) 0.93229(9)
C166_10 C 0.06771(9) 0.66142(9) 0.87211(9)
H130_10 H 0.1200 0.5820 0.8504
H131_10 H 0.1496 0.6200 0.9180
H132_10 H 0.0820 0.6496 0.8800
H141_10 H 0.1144 0.5529 0.8361
H142_10 H 0.1639 0.6144 0.9471
H143_10 H 0.0529 0.6639 0.8856
H152_10 H 0.1445 0.5603 0.8472
H153_10 H 0.1528 0.6445 0.9397
H154_10 H 0.0603 0.6528 0.8555
O3_8 O 0.23368(4) 0.47059(4) 0.20649(4)
O4_27 O 0.2500 0.5000 0.2500
O5_27 O 0.17758(7) 0.5000 0.18326(6)
C15_27 C 0.1832(3) 0.5000 0.15475(18)
H14_27 H 0.1530(7) 0.5000 0.1835(7)
O6_19 O 0.17055(4) 0.46640(4) 0.23896(4)
O9_16 O 0.26104(4) 0.53360(4) 0.17055(4)
O10_8 O 0.26104(4) 0.46640(4) 0.17055(4)
O11_19 O 0.32945(4) 0.46640(4) 0.26104(4)
O14_19 O 0.23896(4) 0.46640(4) 0.32945(4)
O21_19 O 0.20649(4) 0.47059(4) 0.26632(4)
O22_16 O 0.23368(4) 0.52941(4) 0.20649(4)
O26_19 O 0.29351(4) 0.47059(4) 0.23368(4)
O29_19 O 0.26632(4) 0.47059(4) 0.29351(4)
C16_11 C 0.23959(6) 0.45976(5) 0.18319(6)
C22_11 C 0.18319(6) 0.26041(6) 0.04024(5)
C23_11 C 0.04024(5) 0.31681(6) 0.23959(6)
C32_11 C 0.22124(6) 0.43770(5) 0.17179(6)
C33_11 C 0.17179(6) 0.27876(6) 0.06230(5)
C34_11 C 0.06230(5) 0.32821(6) 0.22124(6)
C43_11 C 0.19845(5) 0.42865(6) 0.18644(6)
C44_11 C 0.18644(6) 0.30155(5) 0.07135(6)
C45_11 C 0.07135(6) 0.31356(6) 0.19845(5)
H20_11 H 0.1937 0.4370 0.2035
H21_11 H 0.2035 0.3063 0.0630
H22_11 H 0.0630 0.2965 0.1937
C54_11 C 0.18262(6) 0.40736(5) 0.17592(6)
C55_11 C 0.17592(6) 0.31738(6) 0.09264(5)
C56_11 C 0.09264(5) 0.32408(6) 0.18262(6)
C65_11 C 0.18936(6) 0.39433(6) 0.15111(6)
C66_11 C 0.10567(6) 0.34889(6) 0.18936(6)
C67_11 C 0.15111(6) 0.31064(6) 0.10567(6)
C76_11 C 0.21179(6) 0.40427(6) 0.13605(6)
C77_11 C 0.09573(6) 0.36395(6) 0.21179(6)
C78_11 C 0.13605(6) 0.28821(6) 0.09573(6)
H31_11 H 0.2164 0.3963 0.1188
H32_11 H 0.1037 0.3812 0.2164
H33_11 H 0.1188 0.2836 0.1037
C87_11 C 0.22734(6) 0.42583(6) 0.14642(6)
C88_11 C 0.07417(6) 0.35358(6) 0.22734(6)
C89_11 C 0.14642(6) 0.27266(6) 0.07417(6)
H42_11 H 0.2425 0.4327 0.1360
H43_11 H 0.0673 0.3640 0.2425
H44_11 H 0.1360 0.2575 0.0673
C98_11 C 0.16911(6) 0.37178(6) 0.14650(6)
C99_11 C 0.12822(6) 0.35350(6) 0.16911(6)
C100_11 C 0.14650(6) 0.33089(6) 0.12822(6)
C109_11 C 0.14930(6) 0.37299(6) 0.16793(6)
C110_11 C 0.16793(6) 0.35070(6) 0.12701(6)
C111_11 C 0.12701(6) 0.33207(6) 0.14930(6)
C120_11 C 0.15665(6) 0.39584(6) 0.18853(6)
C121_11 C 0.18853(6) 0.34335(6) 0.10416(6)
C122_11 C 0.10416(6) 0.31147(6) 0.15665(6)
C131_11 C 0.16348(7) 0.38415(7) 0.21741(7)
C132_11 C 0.21741(7) 0.33652(7) 0.11585(7)
C133_11 C 0.11585(7) 0.28259(7) 0.16348(7)
H53_11 H 0.1462 0.3775 0.2260
H54_11 H 0.2260 0.3538 0.1225
H55_11 H 0.1225 0.2740 0.1462
H64_11 H 0.1706 0.3993 0.2290
H65_11 H 0.2290 0.3294 0.1007
H66_11 H 0.1007 0.2710 0.1706
C142_11 C 0.18418(8) 0.36097(9) 0.21773(8)
C143_11 C 0.21773(8) 0.31582(8) 0.13903(9)
C144_11 C 0.13903(9) 0.28227(8) 0.18418(8)
H75_11 H 0.2011 0.3670 0.2085
H76_11 H 0.2085 0.2989 0.1330
H77_11 H 0.1330 0.2915 0.2011
H86_11 H 0.1883 0.3559 0.2368
H87_11 H 0.2368 0.3117 0.1441
H88_11 H 0.1441 0.2632 0.1883
H97_11 H 0.1765 0.3450 0.2080
H98_11 H 0.2080 0.3235 0.1550
H99_11 H 0.1550 0.2920 0.1765
C153_11 C 0.13518(8) 0.42001(7) 0.18918(7)
C154_11 C 0.18918(7) 0.36482(8) 0.07999(7)
C155_11 C 0.07999(7) 0.31082(7) 0.13518(8)
H108_11 H 0.1426 0.4349 0.2011
H109_11 H 0.2011 0.3574 0.0651
H110_11 H 0.0651 0.2989 0.1426
H119_11 H 0.1180 0.4132 0.1979
H120_11 H 0.1979 0.3820 0.0868
H121_11 H 0.0868 0.3021 0.1180
C164_11 C 0.12789(9) 0.43229(9) 0.16142(9)
C165_11 C 0.16142(9) 0.37211(9) 0.06771(9)
C166_11 C 0.06771(9) 0.33858(9) 0.12789(9)
H130_11 H 0.1200 0.4180 0.1496
H131_11 H 0.1496 0.3800 0.0820
H132_11 H 0.0820 0.3504 0.1200
H141_11 H 0.1144 0.4471 0.1639
H142_11 H 0.1639 0.3856 0.0529
H143_11 H 0.0529 0.3361 0.1144
H152_11 H 0.1445 0.4397 0.1528
H153_11 H 0.1528 0.3555 0.0603
H154_11 H 0.0603 0.3472 0.1445
O36_27 O 0.31674(6) 0.5000 0.17758(7)
O37_27 O 0.32242(7) 0.5000 0.31674(6)
O38_27 O 0.18326(6) 0.5000 0.32242(7)
C170_27 C 0.3168(3) 0.5000 0.34525(18)
C171_27 C 0.34525(18) 0.5000 0.1832(3)
C172_27 C 0.15475(18) 0.5000 0.3168(3)
H158_27 H 0.3470(7) 0.5000 0.3165(7)
H159_27 H 0.3165(7) 0.5000 0.1530(7)
H160_27 H 0.1835(7) 0.5000 0.3470(7)
H164_19 H 0.350543 0.481677 0.195026
H165_27 H 0.356681 0.5 0.163888
H166_19 H 0.350543 0.518323 0.195026
H167_19 H 0.149457 0.481677 0.304974
H168_27 H 0.143319 0.5 0.336112
H169_19 H 0.149457 0.518323 0.304974
H170_19 H 0.304974 0.481677 0.350543
H171_27 H 0.336112 0.5 0.356681
H172_19 H 0.304974 0.518323 0.350543
H176_19 H 0.195026 0.481677 0.149457
H177_27 H 0.163888 0.5 0.143319
H178_19 H 0.195026 0.518323 0.149457
O18_6 O 0.96640(4) 0.67055(4) 0.26104(4)
O33_6 O 0.97059(4) 0.70649(4) 0.23368(4)
C16_12 C 0.76041(6) 0.54024(5) 0.18319(6)
C22_12 C 0.81681(6) 0.73959(6) 0.04024(5)
C23_12 C 0.95976(5) 0.68319(6) 0.23959(6)
C32_12 C 0.77876(6) 0.56230(5) 0.17179(6)
C33_12 C 0.82821(6) 0.72124(6) 0.06230(5)
C34_12 C 0.93770(5) 0.67179(6) 0.22124(6)
C43_12 C 0.80155(5) 0.57135(6) 0.18644(6)
C44_12 C 0.81356(6) 0.69845(5) 0.07135(6)
C45_12 C 0.92865(6) 0.68644(6) 0.19845(5)
H20_12 H 0.8063 0.5630 0.2035
H21_12 H 0.7965 0.6937 0.0630
H22_12 H 0.9370 0.7035 0.1937
C54_12 C 0.81738(6) 0.59264(5) 0.17592(6)
C55_12 C 0.82408(6) 0.68262(6) 0.09264(5)
C56_12 C 0.90736(5) 0.67592(6) 0.18262(6)
C65_12 C 0.81064(6) 0.60567(6) 0.15111(6)
C66_12 C 0.89433(6) 0.65111(6) 0.18936(6)
C67_12 C 0.84889(6) 0.68936(6) 0.10567(6)
C76_12 C 0.78821(6) 0.59573(6) 0.13605(6)
C77_12 C 0.90427(6) 0.63605(6) 0.21179(6)
C78_12 C 0.86395(6) 0.71179(6) 0.09573(6)
H31_12 H 0.7836 0.6037 0.1188
H32_12 H 0.8963 0.6188 0.2164
H33_12 H 0.8812 0.7164 0.1037
C87_12 C 0.77266(6) 0.57417(6) 0.14642(6)
C88_12 C 0.92583(6) 0.64642(6) 0.22734(6)
C89_12 C 0.85358(6) 0.72734(6) 0.07417(6)
H42_12 H 0.7575 0.5673 0.1360
H43_12 H 0.9327 0.6360 0.2425
H44_12 H 0.8640 0.7425 0.0673
C98_12 C 0.83089(6) 0.62822(6) 0.14650(6)
C99_12 C 0.87178(6) 0.64650(6) 0.16911(6)
C100_12 C 0.85350(6) 0.66911(6) 0.12822(6)
C109_12 C 0.85070(6) 0.62701(6) 0.16793(6)
C110_12 C 0.83207(6) 0.64930(6) 0.12701(6)
C111_12 C 0.87299(6) 0.66793(6) 0.14930(6)
C120_12 C 0.84335(6) 0.60416(6) 0.18853(6)
C121_12 C 0.81147(6) 0.65665(6) 0.10416(6)
C122_12 C 0.89584(6) 0.68853(6) 0.15665(6)
C131_12 C 0.83652(7) 0.61585(7) 0.21741(7)
C132_12 C 0.78259(7) 0.66348(7) 0.11585(7)
C133_12 C 0.88415(7) 0.71741(7) 0.16348(7)
H53_12 H 0.8538 0.6225 0.2260
H54_12 H 0.7740 0.6462 0.1225
H55_12 H 0.8775 0.7260 0.1462
H64_12 H 0.8294 0.6007 0.2290
H65_12 H 0.7710 0.6706 0.1007
H66_12 H 0.8993 0.7290 0.1706
C142_12 C 0.81582(8) 0.63903(9) 0.21773(8)
C143_12 C 0.78227(8) 0.68418(8) 0.13903(9)
C144_12 C 0.86097(9) 0.71773(8) 0.18418(8)
H75_12 H 0.7989 0.6330 0.2085
H76_12 H 0.7915 0.7011 0.1330
H77_12 H 0.8670 0.7085 0.2011
H86_12 H 0.8117 0.6441 0.2368
H87_12 H 0.7632 0.6883 0.1441
H88_12 H 0.8559 0.7368 0.1883
H97_12 H 0.8235 0.6550 0.2080
H98_12 H 0.7920 0.6765 0.1550
H99_12 H 0.8450 0.7080 0.1765
C153_12 C 0.86482(8) 0.57999(7) 0.18918(7)
C154_12 C 0.81082(7) 0.63518(8) 0.07999(7)
C155_12 C 0.92001(7) 0.68918(7) 0.13518(8)
H108_12 H 0.8574 0.5651 0.2011
H109_12 H 0.7989 0.6426 0.0651
H110_12 H 0.9349 0.7011 0.1426
H119_12 H 0.8820 0.5868 0.1979
H120_12 H 0.8021 0.6180 0.0868
H121_12 H 0.9132 0.6979 0.1180
C164_12 C 0.87211(9) 0.56771(9) 0.16142(9)
C165_12 C 0.83858(9) 0.62789(9) 0.06771(9)
C166_12 C 0.93229(9) 0.66142(9) 0.12789(9)
H130_12 H 0.8800 0.5820 0.1496
H131_12 H 0.8504 0.6200 0.0820
H132_12 H 0.9180 0.6496 0.1200
H141_12 H 0.8856 0.5529 0.1639
H142_12 H 0.8361 0.6144 0.0529
H143_12 H 0.9471 0.6639 0.1144
H152_12 H 0.8555 0.5603 0.1528
H153_12 H 0.8472 0.6445 0.0603
H154_12 H 0.9397 0.6528 0.1445
O4_28 O -0.0000 0.7500 0.2500
O5_28 O -0.0000 0.68326(6) 0.17758(7)
C15_28 C -0.0000 0.65475(18) 0.1832(3)
H14_28 H -0.0000 0.6835(7) 0.1530(7)
O9_17 O 0.03360(4) 0.67055(4) 0.26104(4)
O22_17 O 0.02941(4) 0.70649(4) 0.23368(4)
O36_28 O -0.0000 0.67758(7) 0.31674(6)
O37_28 O 0.0000 0.81674(6) 0.32242(7)
O38_28 O -0.0000 0.82242(7) 0.18326(6)
C170_28 C 0.0000 0.84525(18) 0.3168(3)
C171_28 C 0.0000 0.6832(3) 0.34525(18)
C172_28 C -0.0000 0.8168(3) 0.15475(18)
H158_28 H -0.0000 0.8165(7) 0.3470(7)
H159_28 H -0.0000 0.6530(7) 0.3165(7)
H160_28 H -0.0000 0.8470(7) 0.1835(7)
H165_28 H 3.08149e-33 0.663888 0.356681
H166_20 H 0.0183231 0.695026 0.350543
H168_28 H 7.70372e-33 0.836112 0.143319
H169_20 H 0.0183231 0.804974 0.149457
H171_28 H -6.16298e-33 0.856681 0.336112
H172_20 H 0.0183231 0.850543 0.304974
H177_28 H 0 0.643319 0.163888
H178_20 H 0.0183231 0.649457 0.195026
O4_29 O 1.0000 0.7500 0.2500
O5_29 O 1.0000 0.68326(6) 0.17758(7)
C15_29 C 1.0000 0.65475(18) 0.1832(3)
H14_29 H 1.0000 0.6835(7) 0.1530(7)
O6_20 O 0.96640(4) 0.73896(4) 0.17055(4)
O11_20 O 0.96640(4) 0.76104(4) 0.32945(4)
O14_20 O 0.96640(4) 0.82945(4) 0.23896(4)
O21_20 O 0.97059(4) 0.76632(4) 0.20649(4)
O26_20 O 0.97059(4) 0.73368(4) 0.29351(4)
O29_20 O 0.97059(4) 0.79351(4) 0.26632(4)
O36_29 O 1.0000 0.67758(7) 0.31674(6)
O37_29 O 1.0000 0.81674(6) 0.32242(7)
O38_29 O 1.0000 0.82242(7) 0.18326(6)
C170_29 C 1.0000 0.84525(18) 0.3168(3)
C171_29 C 1.0000 0.6832(3) 0.34525(18)
C172_29 C 1.0000 0.8168(3) 0.15475(18)
H158_29 H 1.0000 0.8165(7) 0.3470(7)
H159_29 H 1.0000 0.6530(7) 0.3165(7)
H160_29 H 1.0000 0.8470(7) 0.1835(7)
H164_20 H 0.981677 0.695026 0.350543
H165_29 H 1 0.663888 0.356681
H167_20 H 0.981677 0.804974 0.149457
H168_29 H 1 0.836112 0.143319
H170_20 H 0.981677 0.850543 0.304974
H171_29 H 1 0.856681 0.336112
H176_20 H 0.981677 0.649457 0.195026
H177_29 H 1 0.643319 0.163888
O4_30 O 0.2500 0.7500 0.0000
O5_30 O 0.18326(6) 0.67758(7) 0.0000
C15_30 C 0.15475(18) 0.6832(3) 0.0000
H14_30 H 0.1835(7) 0.6530(7) 0.0000
O9_18 O 0.17055(4) 0.76104(4) 0.03360(4)
O22_18 O 0.20649(4) 0.73368(4) 0.02941(4)
O36_30 O 0.17758(7) 0.81674(6) 0.0000
O37_30 O 0.31674(6) 0.82242(7) 0.0000
O38_30 O 0.32242(7) 0.68326(6) 0.0000
C170_30 C 0.34525(18) 0.8168(3) 0.0000
C171_30 C 0.1832(3) 0.84525(18) 0.0000
C172_30 C 0.3168(3) 0.65475(18) 0.0000
H158_30 H 0.3165(7) 0.8470(7) 0.0000
H159_30 H 0.1530(7) 0.8165(7) 0.0000
H160_30 H 0.3470(7) 0.6835(7) 0.0000
H165_30 H 0.163888 0.856681 0
H166_21 H 0.195026 0.850543 0.0183231
H168_30 H 0.336112 0.643319 0
H169_21 H 0.304974 0.649457 0.0183231
H171_30 H 0.356681 0.836112 0
H172_21 H 0.350543 0.804974 0.0183231
H177_30 H 0.143319 0.663888 0
H178_21 H 0.149457 0.695026 0.0183231
O4_31 O 0.2500 0.7500 1.0000
O5_31 O 0.18326(6) 0.67758(7) 1.0000
C15_31 C 0.15475(18) 0.6832(3) 1.0000
H14_31 H 0.1835(7) 0.6530(7) 1.0000
O6_21 O 0.23896(4) 0.67055(4) 0.96640(4)
O11_21 O 0.26104(4) 0.82945(4) 0.96640(4)
O14_21 O 0.32945(4) 0.73896(4) 0.96640(4)
O21_21 O 0.26632(4) 0.70649(4) 0.97059(4)
O26_21 O 0.23368(4) 0.79351(4) 0.97059(4)
O29_21 O 0.29351(4) 0.76632(4) 0.97059(4)
O36_31 O 0.17758(7) 0.81674(6) 1.0000
O37_31 O 0.31674(6) 0.82242(7) 1.0000
O38_31 O 0.32242(7) 0.68326(6) 1.0000
C170_31 C 0.34525(18) 0.8168(3) 1.0000
C171_31 C 0.1832(3) 0.84525(18) 1.0000
C172_31 C 0.3168(3) 0.65475(18) 1.0000
H158_31 H 0.3165(7) 0.8470(7) 1.0000
H159_31 H 0.1530(7) 0.8165(7) 1.0000
H160_31 H 0.3470(7) 0.6835(7) 1.0000
H164_21 H 0.195026 0.850543 0.981677
H165_31 H 0.163888 0.856681 1
H167_21 H 0.304974 0.649457 0.981677
H168_31 H 0.336112 0.643319 1
H170_21 H 0.350543 0.804974 0.981677
H171_31 H 0.356681 0.836112 1
H176_21 H 0.149457 0.695026 0.981677
H177_31 H 0.143319 0.663888 1
C16_13 C 0.54024(5) 0.73959(6) 0.18319(6)
C22_13 C 0.73959(6) 0.68319(6) 0.04024(5)
C23_13 C 0.68319(6) 0.54024(5) 0.23959(6)
C32_13 C 0.56230(5) 0.72124(6) 0.17179(6)
C33_13 C 0.72124(6) 0.67179(6) 0.06230(5)
C34_13 C 0.67179(6) 0.56230(5) 0.22124(6)
C43_13 C 0.57135(6) 0.69845(5) 0.18644(6)
C44_13 C 0.69845(5) 0.68644(6) 0.07135(6)
C45_13 C 0.68644(6) 0.57135(6) 0.19845(5)
H20_13 H 0.5630 0.6937 0.2035
H21_13 H 0.6937 0.7035 0.0630
H22_13 H 0.7035 0.5630 0.1937
C54_13 C 0.59264(5) 0.68262(6) 0.17592(6)
C55_13 C 0.68262(6) 0.67592(6) 0.09264(5)
C56_13 C 0.67592(6) 0.59264(5) 0.18262(6)
C65_13 C 0.60567(6) 0.68936(6) 0.15111(6)
C66_13 C 0.65111(6) 0.60567(6) 0.18936(6)
C67_13 C 0.68936(6) 0.65111(6) 0.10567(6)
C76_13 C 0.59573(6) 0.71179(6) 0.13605(6)
C77_13 C 0.63605(6) 0.59573(6) 0.21179(6)
C78_13 C 0.71179(6) 0.63605(6) 0.09573(6)
H31_13 H 0.6037 0.7164 0.1188
H32_13 H 0.6188 0.6037 0.2164
H33_13 H 0.7164 0.6188 0.1037
C87_13 C 0.57417(6) 0.72734(6) 0.14642(6)
C88_13 C 0.64642(6) 0.57417(6) 0.22734(6)
C89_13 C 0.72734(6) 0.64642(6) 0.07417(6)
H42_13 H 0.5673 0.7425 0.1360
H43_13 H 0.6360 0.5673 0.2425
H44_13 H 0.7425 0.6360 0.0673
C98_13 C 0.62822(6) 0.66911(6) 0.14650(6)
C99_13 C 0.64650(6) 0.62822(6) 0.16911(6)
C100_13 C 0.66911(6) 0.64650(6) 0.12822(6)
C109_13 C 0.62701(6) 0.64930(6) 0.16793(6)
C110_13 C 0.64930(6) 0.66793(6) 0.12701(6)
C111_13 C 0.66793(6) 0.62701(6) 0.14930(6)
C120_13 C 0.60416(6) 0.65665(6) 0.18853(6)
C121_13 C 0.65665(6) 0.68853(6) 0.10416(6)
C122_13 C 0.68853(6) 0.60416(6) 0.15665(6)
C131_13 C 0.61585(7) 0.66348(7) 0.21741(7)
C132_13 C 0.66348(7) 0.71741(7) 0.11585(7)
C133_13 C 0.71741(7) 0.61585(7) 0.16348(7)
H53_13 H 0.6225 0.6462 0.2260
H54_13 H 0.6462 0.7260 0.1225
H55_13 H 0.7260 0.6225 0.1462
H64_13 H 0.6007 0.6706 0.2290
H65_13 H 0.6706 0.7290 0.1007
H66_13 H 0.7290 0.6007 0.1706
C142_13 C 0.63903(9) 0.68418(8) 0.21773(8)
C143_13 C 0.68418(8) 0.71773(8) 0.13903(9)
C144_13 C 0.71773(8) 0.63903(9) 0.18418(8)
H75_13 H 0.6330 0.7011 0.2085
H76_13 H 0.7011 0.7085 0.1330
H77_13 H 0.7085 0.6330 0.2011
H86_13 H 0.6441 0.6883 0.2368
H87_13 H 0.6883 0.7368 0.1441
H88_13 H 0.7368 0.6441 0.1883
H97_13 H 0.6550 0.6765 0.2080
H98_13 H 0.6765 0.7080 0.1550
H99_13 H 0.7080 0.6550 0.1765
C153_13 C 0.57999(7) 0.63518(8) 0.18918(7)
C154_13 C 0.63518(8) 0.68918(7) 0.07999(7)
C155_13 C 0.68918(7) 0.57999(7) 0.13518(8)
H108_13 H 0.5651 0.6426 0.2011
H109_13 H 0.6426 0.7011 0.0651
H110_13 H 0.7011 0.5651 0.1426
H119_13 H 0.5868 0.6180 0.1979
H120_13 H 0.6180 0.6979 0.0868
H121_13 H 0.6979 0.5868 0.1180
C164_13 C 0.56771(9) 0.62789(9) 0.16142(9)
C165_13 C 0.62789(9) 0.66142(9) 0.06771(9)
C166_13 C 0.66142(9) 0.56771(9) 0.12789(9)
H130_13 H 0.5820 0.6200 0.1496
H131_13 H 0.6200 0.6496 0.0820
H132_13 H 0.6496 0.5820 0.1200
H141_13 H 0.5529 0.6144 0.1639
H142_13 H 0.6144 0.6639 0.0529
H143_13 H 0.6639 0.5529 0.1144
H152_13 H 0.5603 0.6445 0.1528
H153_13 H 0.6445 0.6528 0.0603
H154_13 H 0.6528 0.5603 0.1445
O17_8 O 0.17055(4) 0.26104(4) 0.46640(4)
O32_8 O 0.20649(4) 0.23368(4) 0.47059(4)
C16_14 C 0.23959(6) 0.04024(5) 0.31681(6)
C22_14 C 0.18319(6) 0.23959(6) 0.45976(5)
C23_14 C 0.04024(5) 0.18319(6) 0.26041(6)
C32_14 C 0.22124(6) 0.06230(5) 0.32821(6)
C33_14 C 0.17179(6) 0.22124(6) 0.43770(5)
C34_14 C 0.06230(5) 0.17179(6) 0.27876(6)
C43_14 C 0.19845(5) 0.07135(6) 0.31356(6)
C44_14 C 0.18644(6) 0.19845(5) 0.42865(6)
C45_14 C 0.07135(6) 0.18644(6) 0.30155(5)
H20_14 H 0.1937 0.0630 0.2965
H21_14 H 0.2035 0.1937 0.4370
H22_14 H 0.0630 0.2035 0.3063
C54_14 C 0.18262(6) 0.09264(5) 0.32408(6)
C55_14 C 0.17592(6) 0.18262(6) 0.40736(5)
C56_14 C 0.09264(5) 0.17592(6) 0.31738(6)
C65_14 C 0.18936(6) 0.10567(6) 0.34889(6)
C66_14 C 0.10567(6) 0.15111(6) 0.31064(6)
C67_14 C 0.15111(6) 0.18936(6) 0.39433(6)
C76_14 C 0.21179(6) 0.09573(6) 0.36395(6)
C77_14 C 0.09573(6) 0.13605(6) 0.28821(6)
C78_14 C 0.13605(6) 0.21179(6) 0.40427(6)
H31_14 H 0.2164 0.1037 0.3812
H32_14 H 0.1037 0.1188 0.2836
H33_14 H 0.1188 0.2164 0.3963
C87_14 C 0.22734(6) 0.07417(6) 0.35358(6)
C88_14 C 0.07417(6) 0.14642(6) 0.27266(6)
C89_14 C 0.14642(6) 0.22734(6) 0.42583(6)
H42_14 H 0.2425 0.0673 0.3640
H43_14 H 0.0673 0.1360 0.2575
H44_14 H 0.1360 0.2425 0.4327
C98_14 C 0.16911(6) 0.12822(6) 0.35350(6)
C99_14 C 0.12822(6) 0.14650(6) 0.33089(6)
C100_14 C 0.14650(6) 0.16911(6) 0.37178(6)
C109_14 C 0.14930(6) 0.12701(6) 0.33207(6)
C110_14 C 0.16793(6) 0.14930(6) 0.37299(6)
C111_14 C 0.12701(6) 0.16793(6) 0.35070(6)
C120_14 C 0.15665(6) 0.10416(6) 0.31147(6)
C121_14 C 0.18853(6) 0.15665(6) 0.39584(6)
C122_14 C 0.10416(6) 0.18853(6) 0.34335(6)
C131_14 C 0.16348(7) 0.11585(7) 0.28259(7)
C132_14 C 0.21741(7) 0.16348(7) 0.38415(7)
C133_14 C 0.11585(7) 0.21741(7) 0.33652(7)
H53_14 H 0.1462 0.1225 0.2740
H54_14 H 0.2260 0.1462 0.3775
H55_14 H 0.1225 0.2260 0.3538
H64_14 H 0.1706 0.1007 0.2710
H65_14 H 0.2290 0.1706 0.3993
H66_14 H 0.1007 0.2290 0.3294
C142_14 C 0.18418(8) 0.13903(9) 0.28227(8)
C143_14 C 0.21773(8) 0.18418(8) 0.36097(9)
C144_14 C 0.13903(9) 0.21773(8) 0.31582(8)
H75_14 H 0.2011 0.1330 0.2915
H76_14 H 0.2085 0.2011 0.3670
H77_14 H 0.1330 0.2085 0.2989
H86_14 H 0.1883 0.1441 0.2632
H87_14 H 0.2368 0.1883 0.3559
H88_14 H 0.1441 0.2368 0.3117
H97_14 H 0.1765 0.1550 0.2920
H98_14 H 0.2080 0.1765 0.3450
H99_14 H 0.1550 0.2080 0.3235
C153_14 C 0.13518(8) 0.07999(7) 0.31082(7)
C154_14 C 0.18918(7) 0.13518(8) 0.42001(7)
C155_14 C 0.07999(7) 0.18918(7) 0.36482(8)
H108_14 H 0.1426 0.0651 0.2989
H109_14 H 0.2011 0.1426 0.4349
H110_14 H 0.0651 0.2011 0.3574
H119_14 H 0.1180 0.0868 0.3021
H120_14 H 0.1979 0.1180 0.4132
H121_14 H 0.0868 0.1979 0.3820
C164_14 C 0.12789(9) 0.06771(9) 0.33858(9)
C165_14 C 0.16142(9) 0.12789(9) 0.43229(9)
C166_14 C 0.06771(9) 0.16142(9) 0.37211(9)
H130_14 H 0.1200 0.0820 0.3504
H131_14 H 0.1496 0.1200 0.4180
H132_14 H 0.0820 0.1496 0.3800
H141_14 H 0.1144 0.0529 0.3361
H142_14 H 0.1639 0.1144 0.4471
H143_14 H 0.0529 0.1639 0.3856
H152_14 H 0.1445 0.0603 0.3472
H153_14 H 0.1528 0.1445 0.4397
H154_14 H 0.0603 0.1528 0.3555
O4_32 O 0.2500 -0.0000 0.7500
O5_32 O 0.17758(7) 0.0000 0.68326(6)
C15_32 C 0.1832(3) -0.0000 0.65475(18)
H14_32 H 0.1530(7) -0.0000 0.6835(7)
O9_19 O 0.26104(4) 0.03360(4) 0.67055(4)
O22_19 O 0.23368(4) 0.02941(4) 0.70649(4)
O36_32 O 0.31674(6) -0.0000 0.67758(7)
O37_32 O 0.32242(7) -0.0000 0.81674(6)
O38_32 O 0.18326(6) -0.0000 0.82242(7)
C170_32 C 0.3168(3) -0.0000 0.84525(18)
C171_32 C 0.34525(18) 0.0000 0.6832(3)
C172_32 C 0.15475(18) -0.0000 0.8168(3)
H158_32 H 0.3470(7) 0.0000 0.8165(7)
H159_32 H 0.3165(7) 0.0000 0.6530(7)
H160_32 H 0.1835(7) -0.0000 0.8470(7)
H165_32 H 0.356681 0 0.663888
H166_22 H 0.350543 0.0183231 0.695026
H168_32 H 0.143319 0 0.836112
H169_22 H 0.149457 0.0183231 0.804974
H171_32 H 0.336112 -6.16298e-33 0.856681
H172_22 H 0.304974 0.0183231 0.850543
H177_32 H 0.163888 -6.16298e-33 0.643319
H178_22 H 0.195026 0.0183231 0.649457
O3_9 O 0.23368(4) 0.97059(4) 0.70649(4)
O4_33 O 0.2500 1.0000 0.7500
O5_33 O 0.17758(7) 1.0000 0.68326(6)
C15_33 C 0.1832(3) 1.0000 0.65475(18)
H14_33 H 0.1530(7) 1.0000 0.6835(7)
O6_22 O 0.17055(4) 0.96640(4) 0.73896(4)
O10_9 O 0.26104(4) 0.96640(4) 0.67055(4)
O11_22 O 0.32945(4) 0.96640(4) 0.76104(4)
O14_22 O 0.23896(4) 0.96640(4) 0.82945(4)
O21_22 O 0.20649(4) 0.97059(4) 0.76632(4)
O26_22 O 0.29351(4) 0.97059(4) 0.73368(4)
O29_22 O 0.26632(4) 0.97059(4) 0.79351(4)
C16_15 C 0.23959(6) 0.95976(5) 0.68319(6)
C22_15 C 0.18319(6) 0.76041(6) 0.54024(5)
C23_15 C 0.04024(5) 0.81681(6) 0.73959(6)
C32_15 C 0.22124(6) 0.93770(5) 0.67179(6)
C33_15 C 0.17179(6) 0.77876(6) 0.56230(5)
C34_15 C 0.06230(5) 0.82821(6) 0.72124(6)
C43_15 C 0.19845(5) 0.92865(6) 0.68644(6)
C44_15 C 0.18644(6) 0.80155(5) 0.57135(6)
C45_15 C 0.07135(6) 0.81356(6) 0.69845(5)
H20_15 H 0.1937 0.9370 0.7035
H21_15 H 0.2035 0.8063 0.5630
H22_15 H 0.0630 0.7965 0.6937
C54_15 C 0.18262(6) 0.90736(5) 0.67592(6)
C55_15 C 0.17592(6) 0.81738(6) 0.59264(5)
C56_15 C 0.09264(5) 0.82408(6) 0.68262(6)
C65_15 C 0.18936(6) 0.89433(6) 0.65111(6)
C66_15 C 0.10567(6) 0.84889(6) 0.68936(6)
C67_15 C 0.15111(6) 0.81064(6) 0.60567(6)
C76_15 C 0.21179(6) 0.90427(6) 0.63605(6)
C77_15 C 0.09573(6) 0.86395(6) 0.71179(6)
C78_15 C 0.13605(6) 0.78821(6) 0.59573(6)
H31_15 H 0.2164 0.8963 0.6188
H32_15 H 0.1037 0.8812 0.7164
H33_15 H 0.1188 0.7836 0.6037
C87_15 C 0.22734(6) 0.92583(6) 0.64642(6)
C88_15 C 0.07417(6) 0.85358(6) 0.72734(6)
C89_15 C 0.14642(6) 0.77266(6) 0.57417(6)
H42_15 H 0.2425 0.9327 0.6360
H43_15 H 0.0673 0.8640 0.7425
H44_15 H 0.1360 0.7575 0.5673
C98_15 C 0.16911(6) 0.87178(6) 0.64650(6)
C99_15 C 0.12822(6) 0.85350(6) 0.66911(6)
C100_15 C 0.14650(6) 0.83089(6) 0.62822(6)
C109_15 C 0.14930(6) 0.87299(6) 0.66793(6)
C110_15 C 0.16793(6) 0.85070(6) 0.62701(6)
C111_15 C 0.12701(6) 0.83207(6) 0.64930(6)
C120_15 C 0.15665(6) 0.89584(6) 0.68853(6)
C121_15 C 0.18853(6) 0.84335(6) 0.60416(6)
C122_15 C 0.10416(6) 0.81147(6) 0.65665(6)
C131_15 C 0.16348(7) 0.88415(7) 0.71741(7)
C132_15 C 0.21741(7) 0.83652(7) 0.61585(7)
C133_15 C 0.11585(7) 0.78259(7) 0.66348(7)
H53_15 H 0.1462 0.8775 0.7260
H54_15 H 0.2260 0.8538 0.6225
H55_15 H 0.1225 0.7740 0.6462
H64_15 H 0.1706 0.8993 0.7290
H65_15 H 0.2290 0.8294 0.6007
H66_15 H 0.1007 0.7710 0.6706
C142_15 C 0.18418(8) 0.86097(9) 0.71773(8)
C143_15 C 0.21773(8) 0.81582(8) 0.63903(9)
C144_15 C 0.13903(9) 0.78227(8) 0.68418(8)
H75_15 H 0.2011 0.8670 0.7085
H76_15 H 0.2085 0.7989 0.6330
H77_15 H 0.1330 0.7915 0.7011
H86_15 H 0.1883 0.8559 0.7368
H87_15 H 0.2368 0.8117 0.6441
H88_15 H 0.1441 0.7632 0.6883
H97_15 H 0.1765 0.8450 0.7080
H98_15 H 0.2080 0.8235 0.6550
H99_15 H 0.1550 0.7920 0.6765
C153_15 C 0.13518(8) 0.92001(7) 0.68918(7)
C154_15 C 0.18918(7) 0.86482(8) 0.57999(7)
C155_15 C 0.07999(7) 0.81082(7) 0.63518(8)
H108_15 H 0.1426 0.9349 0.7011
H109_15 H 0.2011 0.8574 0.5651
H110_15 H 0.0651 0.7989 0.6426
H119_15 H 0.1180 0.9132 0.6979
H120_15 H 0.1979 0.8820 0.5868
H121_15 H 0.0868 0.8021 0.6180
C164_15 C 0.12789(9) 0.93229(9) 0.66142(9)
C165_15 C 0.16142(9) 0.87211(9) 0.56771(9)
C166_15 C 0.06771(9) 0.83858(9) 0.62789(9)
H130_15 H 0.1200 0.9180 0.6496
H131_15 H 0.1496 0.8800 0.5820
H132_15 H 0.0820 0.8504 0.6200
H141_15 H 0.1144 0.9471 0.6639
H142_15 H 0.1639 0.8856 0.5529
H143_15 H 0.0529 0.8361 0.6144
H152_15 H 0.1445 0.9397 0.6528
H153_15 H 0.1528 0.8555 0.5603
H154_15 H 0.0603 0.8472 0.6445
O36_33 O 0.31674(6) 1.0000 0.67758(7)
O37_33 O 0.32242(7) 1.0000 0.81674(6)
O38_33 O 0.18326(6) 1.0000 0.82242(7)
C170_33 C 0.3168(3) 1.0000 0.84525(18)
C171_33 C 0.34525(18) 1.0000 0.6832(3)
C172_33 C 0.15475(18) 1.0000 0.8168(3)
H158_33 H 0.3470(7) 1.0000 0.8165(7)
H159_33 H 0.3165(7) 1.0000 0.6530(7)
H160_33 H 0.1835(7) 1.0000 0.8470(7)
H164_22 H 0.350543 0.981677 0.695026
H165_33 H 0.356681 1 0.663888
H167_22 H 0.149457 0.981677 0.804974
H168_33 H 0.143319 1 0.836112
H170_22 H 0.304974 0.981677 0.850543
H171_33 H 0.336112 1 0.856681
H176_22 H 0.195026 0.981677 0.649457
H177_33 H 0.163888 1 0.643319
O18_7 O 0.96640(4) 0.17055(4) 0.76104(4)
O33_7 O 0.97059(4) 0.20649(4) 0.73368(4)
C16_16 C 0.76041(6) 0.04024(5) 0.68319(6)
C22_16 C 0.81681(6) 0.23959(6) 0.54024(5)
C23_16 C 0.95976(5) 0.18319(6) 0.73959(6)
C32_16 C 0.77876(6) 0.06230(5) 0.67179(6)
C33_16 C 0.82821(6) 0.22124(6) 0.56230(5)
C34_16 C 0.93770(5) 0.17179(6) 0.72124(6)
C43_16 C 0.80155(5) 0.07135(6) 0.68644(6)
C44_16 C 0.81356(6) 0.19845(5) 0.57135(6)
C45_16 C 0.92865(6) 0.18644(6) 0.69845(5)
H20_16 H 0.8063 0.0630 0.7035
H21_16 H 0.7965 0.1937 0.5630
H22_16 H 0.9370 0.2035 0.6937
C54_16 C 0.81738(6) 0.09264(5) 0.67592(6)
C55_16 C 0.82408(6) 0.18262(6) 0.59264(5)
C56_16 C 0.90736(5) 0.17592(6) 0.68262(6)
C65_16 C 0.81064(6) 0.10567(6) 0.65111(6)
C66_16 C 0.89433(6) 0.15111(6) 0.68936(6)
C67_16 C 0.84889(6) 0.18936(6) 0.60567(6)
C76_16 C 0.78821(6) 0.09573(6) 0.63605(6)
C77_16 C 0.90427(6) 0.13605(6) 0.71179(6)
C78_16 C 0.86395(6) 0.21179(6) 0.59573(6)
H31_16 H 0.7836 0.1037 0.6188
H32_16 H 0.8963 0.1188 0.7164
H33_16 H 0.8812 0.2164 0.6037
C87_16 C 0.77266(6) 0.07417(6) 0.64642(6)
C88_16 C 0.92583(6) 0.14642(6) 0.72734(6)
C89_16 C 0.85358(6) 0.22734(6) 0.57417(6)
H42_16 H 0.7575 0.0673 0.6360
H43_16 H 0.9327 0.1360 0.7425
H44_16 H 0.8640 0.2425 0.5673
C98_16 C 0.83089(6) 0.12822(6) 0.64650(6)
C99_16 C 0.87178(6) 0.14650(6) 0.66911(6)
C100_16 C 0.85350(6) 0.16911(6) 0.62822(6)
C109_16 C 0.85070(6) 0.12701(6) 0.66793(6)
C110_16 C 0.83207(6) 0.14930(6) 0.62701(6)
C111_16 C 0.87299(6) 0.16793(6) 0.64930(6)
C120_16 C 0.84335(6) 0.10416(6) 0.68853(6)
C121_16 C 0.81147(6) 0.15665(6) 0.60416(6)
C122_16 C 0.89584(6) 0.18853(6) 0.65665(6)
C131_16 C 0.83652(7) 0.11585(7) 0.71741(7)
C132_16 C 0.78259(7) 0.16348(7) 0.61585(7)
C133_16 C 0.88415(7) 0.21741(7) 0.66348(7)
H53_16 H 0.8538 0.1225 0.7260
H54_16 H 0.7740 0.1462 0.6225
H55_16 H 0.8775 0.2260 0.6462
H64_16 H 0.8294 0.1007 0.7290
H65_16 H 0.7710 0.1706 0.6007
H66_16 H 0.8993 0.2290 0.6706
C142_16 C 0.81582(8) 0.13903(9) 0.71773(8)
C143_16 C 0.78227(8) 0.18418(8) 0.63903(9)
C144_16 C 0.86097(9) 0.21773(8) 0.68418(8)
H75_16 H 0.7989 0.1330 0.7085
H76_16 H 0.7915 0.2011 0.6330
H77_16 H 0.8670 0.2085 0.7011
H86_16 H 0.8117 0.1441 0.7368
H87_16 H 0.7632 0.1883 0.6441
H88_16 H 0.8559 0.2368 0.6883
H97_16 H 0.8235 0.1550 0.7080
H98_16 H 0.7920 0.1765 0.6550
H99_16 H 0.8450 0.2080 0.6765
C153_16 C 0.86482(8) 0.07999(7) 0.68918(7)
C154_16 C 0.81082(7) 0.13518(8) 0.57999(7)
C155_16 C 0.92001(7) 0.18918(7) 0.63518(8)
H108_16 H 0.8574 0.0651 0.7011
H109_16 H 0.7989 0.1426 0.5651
H110_16 H 0.9349 0.2011 0.6426
H119_16 H 0.8820 0.0868 0.6979
H120_16 H 0.8021 0.1180 0.5868
H121_16 H 0.9132 0.1979 0.6180
C164_16 C 0.87211(9) 0.06771(9) 0.66142(9)
C165_16 C 0.83858(9) 0.12789(9) 0.56771(9)
C166_16 C 0.93229(9) 0.16142(9) 0.62789(9)
H130_16 H 0.8800 0.0820 0.6496
H131_16 H 0.8504 0.1200 0.5820
H132_16 H 0.9180 0.1496 0.6200
H141_16 H 0.8856 0.0529 0.6639
H142_16 H 0.8361 0.1144 0.5529
H143_16 H 0.9471 0.1639 0.6144
H152_16 H 0.8555 0.0603 0.6528
H153_16 H 0.8472 0.1445 0.5603
H154_16 H 0.9397 0.1528 0.6445
O4_34 O -0.0000 0.2500 0.7500
O5_34 O -0.0000 0.18326(6) 0.67758(7)
C15_34 C -0.0000 0.15475(18) 0.6832(3)
H14_34 H -0.0000 0.1835(7) 0.6530(7)
O9_20 O 0.03360(4) 0.17055(4) 0.76104(4)
O22_20 O 0.02941(4) 0.20649(4) 0.73368(4)
O36_34 O -0.0000 0.17758(7) 0.81674(6)
O37_34 O -0.0000 0.31674(6) 0.82242(7)
O38_34 O -0.0000 0.32242(7) 0.68326(6)
C170_34 C -0.0000 0.34525(18) 0.8168(3)
C171_34 C -0.0000 0.1832(3) 0.84525(18)
C172_34 C -0.0000 0.3168(3) 0.65475(18)
H158_34 H -0.0000 0.3165(7) 0.8470(7)
H159_34 H -0.0000 0.1530(7) 0.8165(7)
H160_34 H -0.0000 0.3470(7) 0.6835(7)
H165_34 H -1.2326e-32 0.163888 0.856681
H166_23 H 0.0183231 0.195026 0.850543
H168_34 H -1.84889e-32 0.336112 0.643319
H169_23 H 0.0183231 0.304974 0.649457
H171_34 H -6.16298e-33 0.356681 0.836112
H172_23 H 0.0183231 0.350543 0.804974
H177_34 H 0 0.143319 0.663888
H178_23 H 0.0183231 0.149457 0.695026
O4_35 O 1.0000 0.2500 0.7500
O5_35 O 1.0000 0.18326(6) 0.67758(7)
C15_35 C 1.0000 0.15475(18) 0.6832(3)
H14_35 H 1.0000 0.1835(7) 0.6530(7)
O6_23 O 0.96640(4) 0.23896(4) 0.67055(4)
O11_23 O 0.96640(4) 0.26104(4) 0.82945(4)
O14_23 O 0.96640(4) 0.32945(4) 0.73896(4)
O21_23 O 0.97059(4) 0.26632(4) 0.70649(4)
O26_23 O 0.97059(4) 0.23368(4) 0.79351(4)
O29_23 O 0.97059(4) 0.29351(4) 0.76632(4)
O36_35 O 1.0000 0.17758(7) 0.81674(6)
O37_35 O 1.0000 0.31674(6) 0.82242(7)
O38_35 O 1.0000 0.32242(7) 0.68326(6)
C170_35 C 1.0000 0.34525(18) 0.8168(3)
C171_35 C 1.0000 0.1832(3) 0.84525(18)
C172_35 C 1.0000 0.3168(3) 0.65475(18)
H158_35 H 1.0000 0.3165(7) 0.8470(7)
H159_35 H 1.0000 0.1530(7) 0.8165(7)
H160_35 H 1.0000 0.3470(7) 0.6835(7)
H164_23 H 0.981677 0.195026 0.850543
H165_35 H 1 0.163888 0.856681
H167_23 H 0.981677 0.304974 0.649457
H168_35 H 1 0.336112 0.643319
H170_23 H 0.981677 0.350543 0.804974
H171_35 H 1 0.356681 0.836112
H176_23 H 0.981677 0.149457 0.695026
H177_35 H 1 0.143319 0.663888
O4_36 O 0.2500 0.2500 0.5000
O5_36 O 0.18326(6) 0.17758(7) 0.5000
C15_36 C 0.15475(18) 0.1832(3) 0.5000
H14_36 H 0.1835(7) 0.1530(7) 0.5000
O6_24 O 0.23896(4) 0.17055(4) 0.46640(4)
O9_21 O 0.17055(4) 0.26104(4) 0.53360(4)
O11_24 O 0.26104(4) 0.32945(4) 0.46640(4)
O14_24 O 0.32945(4) 0.23896(4) 0.46640(4)
O21_24 O 0.26632(4) 0.20649(4) 0.47059(4)
O22_21 O 0.20649(4) 0.23368(4) 0.52941(4)
O26_24 O 0.23368(4) 0.29351(4) 0.47059(4)
O29_24 O 0.29351(4) 0.26632(4) 0.47059(4)
O36_36 O 0.17758(7) 0.31674(6) 0.5000
O37_36 O 0.31674(6) 0.32242(7) 0.5000
O38_36 O 0.32242(7) 0.18326(6) 0.5000
C170_36 C 0.34525(18) 0.3168(3) 0.5000
C171_36 C 0.1832(3) 0.34525(18) 0.5000
C172_36 C 0.3168(3) 0.15475(18) 0.5000
H158_36 H 0.3165(7) 0.3470(7) 0.5000
H159_36 H 0.1530(7) 0.3165(7) 0.5000
H160_36 H 0.3470(7) 0.1835(7) 0.5000
H164_24 H 0.195026 0.350543 0.481677
H165_36 H 0.163888 0.356681 0.5
H166_24 H 0.195026 0.350543 0.518323
H167_24 H 0.304974 0.149457 0.481677
H168_36 H 0.336112 0.143319 0.5
H169_24 H 0.304974 0.149457 0.518323
H170_24 H 0.350543 0.304974 0.481677
H171_36 H 0.356681 0.336112 0.5
H172_24 H 0.350543 0.304974 0.518323
H176_24 H 0.149457 0.195026 0.481677
H177_36 H 0.143319 0.163888 0.5
H178_24 H 0.149457 0.195026 0.518323
C19_11 C 0.04024(5) 0.68319(6) 0.23959(6)
C20_11 C 0.23959(6) 0.54024(5) 0.18319(6)
C21_11 C 0.18319(6) 0.73959(6) 0.04024(5)
C29_11 C 0.06230(5) 0.67179(6) 0.22124(6)
C30_11 C 0.22124(6) 0.56230(5) 0.17179(6)
C31_11 C 0.17179(6) 0.72124(6) 0.06230(5)
C40_11 C 0.07135(6) 0.68644(6) 0.19845(5)
C41_11 C 0.19845(5) 0.57135(6) 0.18644(6)
C42_11 C 0.18644(6) 0.69845(5) 0.07135(6)
H17_11 H 0.0630 0.7035 0.1937
H18_11 H 0.1937 0.5630 0.2035
H19_11 H 0.2035 0.6937 0.0630
C51_11 C 0.09264(5) 0.67592(6) 0.18262(6)
C52_11 C 0.18262(6) 0.59264(5) 0.17592(6)
C53_11 C 0.17592(6) 0.68262(6) 0.09264(5)
C62_11 C 0.10567(6) 0.65111(6) 0.18936(6)
C63_11 C 0.15111(6) 0.68936(6) 0.10567(6)
C64_11 C 0.18936(6) 0.60567(6) 0.15111(6)
C73_11 C 0.09573(6) 0.63605(6) 0.21179(6)
C74_11 C 0.13605(6) 0.71179(6) 0.09573(6)
C75_11 C 0.21179(6) 0.59573(6) 0.13605(6)
H28_11 H 0.1037 0.6188 0.2164
H29_11 H 0.1188 0.7164 0.1037
H30_11 H 0.2164 0.6037 0.1188
C84_11 C 0.07417(6) 0.64642(6) 0.22734(6)
C85_11 C 0.14642(6) 0.72734(6) 0.07417(6)
C86_11 C 0.22734(6) 0.57417(6) 0.14642(6)
H39_11 H 0.0673 0.6360 0.2425
H40_11 H 0.1360 0.7425 0.0673
H41_11 H 0.2425 0.5673 0.1360
C95_11 C 0.12822(6) 0.64650(6) 0.16911(6)
C96_11 C 0.14650(6) 0.66911(6) 0.12822(6)
C97_11 C 0.16911(6) 0.62822(6) 0.14650(6)
C106_11 C 0.12701(6) 0.66793(6) 0.14930(6)
C107_11 C 0.14930(6) 0.62701(6) 0.16793(6)
C108_11 C 0.16793(6) 0.64930(6) 0.12701(6)
C117_11 C 0.10416(6) 0.68853(6) 0.15665(6)
C118_11 C 0.15665(6) 0.60416(6) 0.18853(6)
C119_11 C 0.18853(6) 0.65665(6) 0.10416(6)
C128_11 C 0.11585(7) 0.71741(7) 0.16348(7)
C129_11 C 0.16348(7) 0.61585(7) 0.21741(7)
C130_11 C 0.21741(7) 0.66348(7) 0.11585(7)
H50_11 H 0.1225 0.7260 0.1462
H51_11 H 0.1462 0.6225 0.2260
H52_11 H 0.2260 0.6462 0.1225
H61_11 H 0.1007 0.7290 0.1706
H62_11 H 0.1706 0.6007 0.2290
H63_11 H 0.2290 0.6706 0.1007
C139_11 C 0.13903(9) 0.71773(8) 0.18418(8)
C140_11 C 0.18418(8) 0.63903(9) 0.21773(8)
C141_11 C 0.21773(8) 0.68418(8) 0.13903(9)
H72_11 H 0.1330 0.7085 0.2011
H73_11 H 0.2011 0.6330 0.2085
H74_11 H 0.2085 0.7011 0.1330
H83_11 H 0.1441 0.7368 0.1883
H84_11 H 0.1883 0.6441 0.2368
H85_11 H 0.2368 0.6883 0.1441
H94_11 H 0.1550 0.7080 0.1765
H95_11 H 0.1765 0.6550 0.2080
H96_11 H 0.2080 0.6765 0.1550
C150_11 C 0.07999(7) 0.68918(7) 0.13518(8)
C151_11 C 0.13518(8) 0.57999(7) 0.18918(7)
C152_11 C 0.18918(7) 0.63518(8) 0.07999(7)
H105_11 H 0.0651 0.7011 0.1426
H106_11 H 0.1426 0.5651 0.2011
H107_11 H 0.2011 0.6426 0.0651
H116_11 H 0.0868 0.6979 0.1180
H117_11 H 0.1180 0.5868 0.1979
H118_11 H 0.1979 0.6180 0.0868
C161_11 C 0.06771(9) 0.66142(9) 0.12789(9)
C162_11 C 0.12789(9) 0.56771(9) 0.16142(9)
C163_11 C 0.16142(9) 0.62789(9) 0.06771(9)
H127_11 H 0.0820 0.6496 0.1200
H128_11 H 0.1200 0.5820 0.1496
H129_11 H 0.1496 0.6200 0.0820
H138_11 H 0.0529 0.6639 0.1144
H139_11 H 0.1144 0.5529 0.1639
H140_11 H 0.1639 0.6144 0.0529
H149_11 H 0.0603 0.6528 0.1445
H150_11 H 0.1445 0.5603 0.1528
H151_11 H 0.1528 0.6445 0.0603
C16_17 C 0.95976(5) 0.76041(6) 0.18319(6)
C22_17 C 0.76041(6) 0.81681(6) 0.04024(5)
C23_17 C 0.81681(6) 0.95976(5) 0.23959(6)
C32_17 C 0.93770(5) 0.77876(6) 0.17179(6)
C33_17 C 0.77876(6) 0.82821(6) 0.06230(5)
C34_17 C 0.82821(6) 0.93770(5) 0.22124(6)
C43_17 C 0.92865(6) 0.80155(5) 0.18644(6)
C44_17 C 0.80155(5) 0.81356(6) 0.07135(6)
C45_17 C 0.81356(6) 0.92865(6) 0.19845(5)
H20_17 H 0.9370 0.8063 0.2035
H21_17 H 0.8063 0.7965 0.0630
H22_17 H 0.7965 0.9370 0.1937
C54_17 C 0.90736(5) 0.81738(6) 0.17592(6)
C55_17 C 0.81738(6) 0.82408(6) 0.09264(5)
C56_17 C 0.82408(6) 0.90736(5) 0.18262(6)
C65_17 C 0.89433(6) 0.81064(6) 0.15111(6)
C66_17 C 0.84889(6) 0.89433(6) 0.18936(6)
C67_17 C 0.81064(6) 0.84889(6) 0.10567(6)
C76_17 C 0.90427(6) 0.78821(6) 0.13605(6)
C77_17 C 0.86395(6) 0.90427(6) 0.21179(6)
C78_17 C 0.78821(6) 0.86395(6) 0.09573(6)
H31_17 H 0.8963 0.7836 0.1188
H32_17 H 0.8812 0.8963 0.2164
H33_17 H 0.7836 0.8812 0.1037
C87_17 C 0.92583(6) 0.77266(6) 0.14642(6)
C88_17 C 0.85358(6) 0.92583(6) 0.22734(6)
C89_17 C 0.77266(6) 0.85358(6) 0.07417(6)
H42_17 H 0.9327 0.7575 0.1360
H43_17 H 0.8640 0.9327 0.2425
H44_17 H 0.7575 0.8640 0.0673
C98_17 C 0.87178(6) 0.83089(6) 0.14650(6)
C99_17 C 0.85350(6) 0.87178(6) 0.16911(6)
C100_17 C 0.83089(6) 0.85350(6) 0.12822(6)
C109_17 C 0.87299(6) 0.85070(6) 0.16793(6)
C110_17 C 0.85070(6) 0.83207(6) 0.12701(6)
C111_17 C 0.83207(6) 0.87299(6) 0.14930(6)
C120_17 C 0.89584(6) 0.84335(6) 0.18853(6)
C121_17 C 0.84335(6) 0.81147(6) 0.10416(6)
C122_17 C 0.81147(6) 0.89584(6) 0.15665(6)
C131_17 C 0.88415(7) 0.83652(7) 0.21741(7)
C132_17 C 0.83652(7) 0.78259(7) 0.11585(7)
C133_17 C 0.78259(7) 0.88415(7) 0.16348(7)
H53_17 H 0.8775 0.8538 0.2260
H54_17 H 0.8538 0.7740 0.1225
H55_17 H 0.7740 0.8775 0.1462
H64_17 H 0.8993 0.8294 0.2290
H65_17 H 0.8294 0.7710 0.1007
H66_17 H 0.7710 0.8993 0.1706
C142_17 C 0.86097(9) 0.81582(8) 0.21773(8)
C143_17 C 0.81582(8) 0.78227(8) 0.13903(9)
C144_17 C 0.78227(8) 0.86097(9) 0.18418(8)
H75_17 H 0.8670 0.7989 0.2085
H76_17 H 0.7989 0.7915 0.1330
H77_17 H 0.7915 0.8670 0.2011
H86_17 H 0.8559 0.8117 0.2368
H87_17 H 0.8117 0.7632 0.1441
H88_17 H 0.7632 0.8559 0.1883
H97_17 H 0.8450 0.8235 0.2080
H98_17 H 0.8235 0.7920 0.1550
H99_17 H 0.7920 0.8450 0.1765
C153_17 C 0.92001(7) 0.86482(8) 0.18918(7)
C154_17 C 0.86482(8) 0.81082(7) 0.07999(7)
C155_17 C 0.81082(7) 0.92001(7) 0.13518(8)
H108_17 H 0.9349 0.8574 0.2011
H109_17 H 0.8574 0.7989 0.0651
H110_17 H 0.7989 0.9349 0.1426
H119_17 H 0.9132 0.8820 0.1979
H120_17 H 0.8820 0.8021 0.0868
H121_17 H 0.8021 0.9132 0.1180
C164_17 C 0.93229(9) 0.87211(9) 0.16142(9)
C165_17 C 0.87211(9) 0.83858(9) 0.06771(9)
C166_17 C 0.83858(9) 0.93229(9) 0.12789(9)
H130_17 H 0.9180 0.8800 0.1496
H131_17 H 0.8800 0.8504 0.0820
H132_17 H 0.8504 0.9180 0.1200
H141_17 H 0.9471 0.8856 0.1639
H142_17 H 0.8856 0.8361 0.0529
H143_17 H 0.8361 0.9471 0.1144
H152_17 H 0.9397 0.8555 0.1528
H153_17 H 0.8555 0.8472 0.0603
H154_17 H 0.8472 0.9397 0.1445
C1_11 C 0.04024(5) 0.18319(6) 0.73959(6)
C2_11 C 0.06230(5) 0.17179(6) 0.72124(6)
C3_11 C 0.07135(6) 0.18644(6) 0.69845(5)
H1_11 H 0.0630 0.2035 0.6937
C4_11 C 0.09264(5) 0.17592(6) 0.68262(6)
C5_11 C 0.10567(6) 0.15111(6) 0.68936(6)
C6_11 C 0.09573(6) 0.13605(6) 0.71179(6)
H2_11 H 0.1037 0.1188 0.7164
C7_11 C 0.07417(6) 0.14642(6) 0.72734(6)
H3_11 H 0.0673 0.1360 0.7425
C8_11 C 0.12822(6) 0.14650(6) 0.66911(6)
C9_11 C 0.14930(6) 0.12701(6) 0.66793(6)
C10_11 C 0.10416(6) 0.18853(6) 0.65665(6)
C11_11 C 0.11585(7) 0.21741(7) 0.66348(7)
H4_11 H 0.1225 0.2260 0.6462
H5_11 H 0.1007 0.2290 0.6706
C12_11 C 0.13903(9) 0.21773(8) 0.68418(8)
H6_11 H 0.1330 0.2085 0.7011
H7_11 H 0.1441 0.2368 0.6883
H8_11 H 0.1550 0.2080 0.6765
C13_11 C 0.07999(7) 0.18918(7) 0.63518(8)
H9_11 H 0.0651 0.2011 0.6426
H10_11 H 0.0868 0.1979 0.6180
C14_11 C 0.06771(9) 0.16142(9) 0.62789(9)
H11_11 H 0.0820 0.1496 0.6200
H12_11 H 0.0529 0.1639 0.6144
H13_11 H 0.0603 0.1528 0.6445
C17_11 C 0.23959(6) 0.04024(5) 0.68319(6)
C18_11 C 0.18319(6) 0.23959(6) 0.54024(5)
C27_11 C 0.22124(6) 0.06230(5) 0.67179(6)
C28_11 C 0.17179(6) 0.22124(6) 0.56230(5)
C38_11 C 0.19845(5) 0.07135(6) 0.68644(6)
C39_11 C 0.18644(6) 0.19845(5) 0.57135(6)
H15_11 H 0.1937 0.0630 0.7035
H16_11 H 0.2035 0.1937 0.5630
C49_11 C 0.18262(6) 0.09264(5) 0.67592(6)
C50_11 C 0.17592(6) 0.18262(6) 0.59264(5)
C60_11 C 0.18936(6) 0.10567(6) 0.65111(6)
C61_11 C 0.15111(6) 0.18936(6) 0.60567(6)
C71_11 C 0.21179(6) 0.09573(6) 0.63605(6)
C72_11 C 0.13605(6) 0.21179(6) 0.59573(6)
H26_11 H 0.2164 0.1037 0.6188
H27_11 H 0.1188 0.2164 0.6037
C82_11 C 0.22734(6) 0.07417(6) 0.64642(6)
C83_11 C 0.14642(6) 0.22734(6) 0.57417(6)
H37_11 H 0.2425 0.0673 0.6360
H38_11 H 0.1360 0.2425 0.5673
C93_11 C 0.16911(6) 0.12822(6) 0.64650(6)
C94_11 C 0.14650(6) 0.16911(6) 0.62822(6)
C104_11 C 0.12701(6) 0.16793(6) 0.64930(6)
C105_11 C 0.16793(6) 0.14930(6) 0.62701(6)
C115_11 C 0.15665(6) 0.10416(6) 0.68853(6)
C116_11 C 0.18853(6) 0.15665(6) 0.60416(6)
C126_11 C 0.16348(7) 0.11585(7) 0.71741(7)
C127_11 C 0.21741(7) 0.16348(7) 0.61585(7)
H48_11 H 0.1462 0.1225 0.7260
H49_11 H 0.2260 0.1462 0.6225
H59_11 H 0.1706 0.1007 0.7290
H60_11 H 0.2290 0.1706 0.6007
C137_11 C 0.18418(8) 0.13903(9) 0.71773(8)
C138_11 C 0.21773(8) 0.18418(8) 0.63903(9)
H70_11 H 0.2011 0.1330 0.7085
H71_11 H 0.2085 0.2011 0.6330
H81_11 H 0.1883 0.1441 0.7368
H82_11 H 0.2368 0.1883 0.6441
H92_11 H 0.1765 0.1550 0.7080
H93_11 H 0.2080 0.1765 0.6550
C148_11 C 0.13518(8) 0.07999(7) 0.68918(7)
C149_11 C 0.18918(7) 0.13518(8) 0.57999(7)
H103_11 H 0.1426 0.0651 0.7011
H104_11 H 0.2011 0.1426 0.5651
H114_11 H 0.1180 0.0868 0.6979
H115_11 H 0.1979 0.1180 0.5868
C159_11 C 0.12789(9) 0.06771(9) 0.66142(9)
C160_11 C 0.16142(9) 0.12789(9) 0.56771(9)
H125_11 H 0.1200 0.0820 0.6496
H126_11 H 0.1496 0.1200 0.5820
H136_11 H 0.1144 0.0529 0.6639
H137_11 H 0.1639 0.1144 0.5529
H147_11 H 0.1445 0.0603 0.6528
H148_11 H 0.1528 0.1445 0.5603
C16_18 C 0.95976(5) 0.23959(6) 0.81681(6)
C22_18 C 0.76041(6) 0.18319(6) 0.95976(5)
C23_18 C 0.81681(6) 0.04024(5) 0.76041(6)
C32_18 C 0.93770(5) 0.22124(6) 0.82821(6)
C33_18 C 0.77876(6) 0.17179(6) 0.93770(5)
C34_18 C 0.82821(6) 0.06230(5) 0.77876(6)
C43_18 C 0.92865(6) 0.19845(5) 0.81356(6)
C44_18 C 0.80155(5) 0.18644(6) 0.92865(6)
C45_18 C 0.81356(6) 0.07135(6) 0.80155(5)
H20_18 H 0.9370 0.1937 0.7965
H21_18 H 0.8063 0.2035 0.9370
H22_18 H 0.7965 0.0630 0.8063
C54_18 C 0.90736(5) 0.18262(6) 0.82408(6)
C55_18 C 0.81738(6) 0.17592(6) 0.90736(5)
C56_18 C 0.82408(6) 0.09264(5) 0.81738(6)
C65_18 C 0.89433(6) 0.18936(6) 0.84889(6)
C66_18 C 0.84889(6) 0.10567(6) 0.81064(6)
C67_18 C 0.81064(6) 0.15111(6) 0.89433(6)
C76_18 C 0.90427(6) 0.21179(6) 0.86395(6)
C77_18 C 0.86395(6) 0.09573(6) 0.78821(6)
C78_18 C 0.78821(6) 0.13605(6) 0.90427(6)
H31_18 H 0.8963 0.2164 0.8812
H32_18 H 0.8812 0.1037 0.7836
H33_18 H 0.7836 0.1188 0.8963
C87_18 C 0.92583(6) 0.22734(6) 0.85358(6)
C88_18 C 0.85358(6) 0.07417(6) 0.77266(6)
C89_18 C 0.77266(6) 0.14642(6) 0.92583(6)
H42_18 H 0.9327 0.2425 0.8640
H43_18 H 0.8640 0.0673 0.7575
H44_18 H 0.7575 0.1360 0.9327
C98_18 C 0.87178(6) 0.16911(6) 0.85350(6)
C99_18 C 0.85350(6) 0.12822(6) 0.83089(6)
C100_18 C 0.83089(6) 0.14650(6) 0.87178(6)
C109_18 C 0.87299(6) 0.14930(6) 0.83207(6)
C110_18 C 0.85070(6) 0.16793(6) 0.87299(6)
C111_18 C 0.83207(6) 0.12701(6) 0.85070(6)
C120_18 C 0.89584(6) 0.15665(6) 0.81147(6)
C121_18 C 0.84335(6) 0.18853(6) 0.89584(6)
C122_18 C 0.81147(6) 0.10416(6) 0.84335(6)
C131_18 C 0.88415(7) 0.16348(7) 0.78259(7)
C132_18 C 0.83652(7) 0.21741(7) 0.88415(7)
C133_18 C 0.78259(7) 0.11585(7) 0.83652(7)
H53_18 H 0.8775 0.1462 0.7740
H54_18 H 0.8538 0.2260 0.8775
H55_18 H 0.7740 0.1225 0.8538
H64_18 H 0.8993 0.1706 0.7710
H65_18 H 0.8294 0.2290 0.8993
H66_18 H 0.7710 0.1007 0.8294
C142_18 C 0.86097(9) 0.18418(8) 0.78227(8)
C143_18 C 0.81582(8) 0.21773(8) 0.86097(9)
C144_18 C 0.78227(8) 0.13903(9) 0.81582(8)
H75_18 H 0.8670 0.2011 0.7915
H76_18 H 0.7989 0.2085 0.8670
H77_18 H 0.7915 0.1330 0.7989
H86_18 H 0.8559 0.1883 0.7632
H87_18 H 0.8117 0.2368 0.8559
H88_18 H 0.7632 0.1441 0.8117
H97_18 H 0.8450 0.1765 0.7920
H98_18 H 0.8235 0.2080 0.8450
H99_18 H 0.7920 0.1550 0.8235
C153_18 C 0.92001(7) 0.13518(8) 0.81082(7)
C154_18 C 0.86482(8) 0.18918(7) 0.92001(7)
C155_18 C 0.81082(7) 0.07999(7) 0.86482(8)
H108_18 H 0.9349 0.1426 0.7989
H109_18 H 0.8574 0.2011 0.9349
H110_18 H 0.7989 0.0651 0.8574
H119_18 H 0.9132 0.1180 0.8021
H120_18 H 0.8820 0.1979 0.9132
H121_18 H 0.8021 0.0868 0.8820
C164_18 C 0.93229(9) 0.12789(9) 0.83858(9)
C165_18 C 0.87211(9) 0.16142(9) 0.93229(9)
C166_18 C 0.83858(9) 0.06771(9) 0.87211(9)
H130_18 H 0.9180 0.1200 0.8504
H131_18 H 0.8800 0.1496 0.9180
H132_18 H 0.8504 0.0820 0.8800
H141_18 H 0.9471 0.1144 0.8361
H142_18 H 0.8856 0.1639 0.9471
H143_18 H 0.8361 0.0529 0.8856
H152_18 H 0.9397 0.1445 0.8472
H153_18 H 0.8555 0.1528 0.9397
H154_18 H 0.8472 0.0603 0.8555
C16_19 C 0.04024(5) 0.76041(6) 0.81681(6)
C22_19 C 0.23959(6) 0.81681(6) 0.95976(5)
C23_19 C 0.18319(6) 0.95976(5) 0.76041(6)
C32_19 C 0.06230(5) 0.77876(6) 0.82821(6)
C33_19 C 0.22124(6) 0.82821(6) 0.93770(5)
C34_19 C 0.17179(6) 0.93770(5) 0.77876(6)
C43_19 C 0.07135(6) 0.80155(5) 0.81356(6)
C44_19 C 0.19845(5) 0.81356(6) 0.92865(6)
C45_19 C 0.18644(6) 0.92865(6) 0.80155(5)
H20_19 H 0.0630 0.8063 0.7965
H21_19 H 0.1937 0.7965 0.9370
H22_19 H 0.2035 0.9370 0.8063
C54_19 C 0.09264(5) 0.81738(6) 0.82408(6)
C55_19 C 0.18262(6) 0.82408(6) 0.90736(5)
C56_19 C 0.17592(6) 0.90736(5) 0.81738(6)
C65_19 C 0.10567(6) 0.81064(6) 0.84889(6)
C66_19 C 0.15111(6) 0.89433(6) 0.81064(6)
C67_19 C 0.18936(6) 0.84889(6) 0.89433(6)
C76_19 C 0.09573(6) 0.78821(6) 0.86395(6)
C77_19 C 0.13605(6) 0.90427(6) 0.78821(6)
C78_19 C 0.21179(6) 0.86395(6) 0.90427(6)
H31_19 H 0.1037 0.7836 0.8812
H32_19 H 0.1188 0.8963 0.7836
H33_19 H 0.2164 0.8812 0.8963
C87_19 C 0.07417(6) 0.77266(6) 0.85358(6)
C88_19 C 0.14642(6) 0.92583(6) 0.77266(6)
C89_19 C 0.22734(6) 0.85358(6) 0.92583(6)
H42_19 H 0.0673 0.7575 0.8640
H43_19 H 0.1360 0.9327 0.7575
H44_19 H 0.2425 0.8640 0.9327
C98_19 C 0.12822(6) 0.83089(6) 0.85350(6)
C99_19 C 0.14650(6) 0.87178(6) 0.83089(6)
C100_19 C 0.16911(6) 0.85350(6) 0.87178(6)
C109_19 C 0.12701(6) 0.85070(6) 0.83207(6)
C110_19 C 0.14930(6) 0.83207(6) 0.87299(6)
C111_19 C 0.16793(6) 0.87299(6) 0.85070(6)
C120_19 C 0.10416(6) 0.84335(6) 0.81147(6)
C121_19 C 0.15665(6) 0.81147(6) 0.89584(6)
C122_19 C 0.18853(6) 0.89584(6) 0.84335(6)
C131_19 C 0.11585(7) 0.83652(7) 0.78259(7)
C132_19 C 0.16348(7) 0.78259(7) 0.88415(7)
C133_19 C 0.21741(7) 0.88415(7) 0.83652(7)
H53_19 H 0.1225 0.8538 0.7740
H54_19 H 0.1462 0.7740 0.8775
H55_19 H 0.2260 0.8775 0.8538
H64_19 H 0.1007 0.8294 0.7710
H65_19 H 0.1706 0.7710 0.8993
H66_19 H 0.2290 0.8993 0.8294
C142_19 C 0.13903(9) 0.81582(8) 0.78227(8)
C143_19 C 0.18418(8) 0.78227(8) 0.86097(9)
C144_19 C 0.21773(8) 0.86097(9) 0.81582(8)
H75_19 H 0.1330 0.7989 0.7915
H76_19 H 0.2011 0.7915 0.8670
H77_19 H 0.2085 0.8670 0.7989
H86_19 H 0.1441 0.8117 0.7632
H87_19 H 0.1883 0.7632 0.8559
H88_19 H 0.2368 0.8559 0.8117
H97_19 H 0.1550 0.8235 0.7920
H98_19 H 0.1765 0.7920 0.8450
H99_19 H 0.2080 0.8450 0.8235
C153_19 C 0.07999(7) 0.86482(8) 0.81082(7)
C154_19 C 0.13518(8) 0.81082(7) 0.92001(7)
C155_19 C 0.18918(7) 0.92001(7) 0.86482(8)
H108_19 H 0.0651 0.8574 0.7989
H109_19 H 0.1426 0.7989 0.9349
H110_19 H 0.2011 0.9349 0.8574
H119_19 H 0.0868 0.8820 0.8021
H120_19 H 0.1180 0.8021 0.9132
H121_19 H 0.1979 0.9132 0.8820
C164_19 C 0.06771(9) 0.87211(9) 0.83858(9)
C165_19 C 0.12789(9) 0.83858(9) 0.93229(9)
C166_19 C 0.16142(9) 0.93229(9) 0.87211(9)
H130_19 H 0.0820 0.8800 0.8504
H131_19 H 0.1200 0.8504 0.9180
H132_19 H 0.1496 0.9180 0.8800
H141_19 H 0.0529 0.8856 0.8361
H142_19 H 0.1144 0.8361 0.9471
H143_19 H 0.1639 0.9471 0.8856
H152_19 H 0.0603 0.8555 0.8472
H153_19 H 0.1445 0.8472 0.9397
H154_19 H 0.1528 0.9397 0.8555
C1_12 C 0.73959(6) 0.04024(5) 0.18319(6)
C2_12 C 0.72124(6) 0.06230(5) 0.17179(6)
C3_12 C 0.69845(5) 0.07135(6) 0.18644(6)
H1_12 H 0.6937 0.0630 0.2035
C4_12 C 0.68262(6) 0.09264(5) 0.17592(6)
C5_12 C 0.68936(6) 0.10567(6) 0.15111(6)
C6_12 C 0.71179(6) 0.09573(6) 0.13605(6)
H2_12 H 0.7164 0.1037 0.1188
C7_12 C 0.72734(6) 0.07417(6) 0.14642(6)
H3_12 H 0.7425 0.0673 0.1360
C8_12 C 0.66911(6) 0.12822(6) 0.14650(6)
C9_12 C 0.66793(6) 0.14930(6) 0.12701(6)
C10_12 C 0.65665(6) 0.10416(6) 0.18853(6)
C11_12 C 0.66348(7) 0.11585(7) 0.21741(7)
H4_12 H 0.6462 0.1225 0.2260
H5_12 H 0.6706 0.1007 0.2290
C12_12 C 0.68418(8) 0.13903(9) 0.21773(8)
H6_12 H 0.7011 0.1330 0.2085
H7_12 H 0.6883 0.1441 0.2368
H8_12 H 0.6765 0.1550 0.2080
C13_12 C 0.63518(8) 0.07999(7) 0.18918(7)
H9_12 H 0.6426 0.0651 0.2011
H10_12 H 0.6180 0.0868 0.1979
C14_12 C 0.62789(9) 0.06771(9) 0.16142(9)
H11_12 H 0.6200 0.0820 0.1496
H12_12 H 0.6144 0.0529 0.1639
H13_12 H 0.6445 0.0603 0.1528
C17_12 C 0.68319(6) 0.23959(6) 0.04024(5)
C18_12 C 0.54024(5) 0.18319(6) 0.23959(6)
C27_12 C 0.67179(6) 0.22124(6) 0.06230(5)
C28_12 C 0.56230(5) 0.17179(6) 0.22124(6)
C38_12 C 0.68644(6) 0.19845(5) 0.07135(6)
C39_12 C 0.57135(6) 0.18644(6) 0.19845(5)
H15_12 H 0.7035 0.1937 0.0630
H16_12 H 0.5630 0.2035 0.1937
C49_12 C 0.67592(6) 0.18262(6) 0.09264(5)
C50_12 C 0.59264(5) 0.17592(6) 0.18262(6)
C60_12 C 0.65111(6) 0.18936(6) 0.10567(6)
C61_12 C 0.60567(6) 0.15111(6) 0.18936(6)
C71_12 C 0.63605(6) 0.21179(6) 0.09573(6)
C72_12 C 0.59573(6) 0.13605(6) 0.21179(6)
H26_12 H 0.6188 0.2164 0.1037
H27_12 H 0.6037 0.1188 0.2164
C82_12 C 0.64642(6) 0.22734(6) 0.07417(6)
C83_12 C 0.57417(6) 0.14642(6) 0.22734(6)
H37_12 H 0.6360 0.2425 0.0673
H38_12 H 0.5673 0.1360 0.2425
C93_12 C 0.64650(6) 0.16911(6) 0.12822(6)
C94_12 C 0.62822(6) 0.14650(6) 0.16911(6)
C104_12 C 0.64930(6) 0.12701(6) 0.16793(6)
C105_12 C 0.62701(6) 0.16793(6) 0.14930(6)
C115_12 C 0.68853(6) 0.15665(6) 0.10416(6)
C116_12 C 0.60416(6) 0.18853(6) 0.15665(6)
C126_12 C 0.71741(7) 0.16348(7) 0.11585(7)
C127_12 C 0.61585(7) 0.21741(7) 0.16348(7)
H48_12 H 0.7260 0.1462 0.1225
H49_12 H 0.6225 0.2260 0.1462
H59_12 H 0.7290 0.1706 0.1007
H60_12 H 0.6007 0.2290 0.1706
C137_12 C 0.71773(8) 0.18418(8) 0.13903(9)
C138_12 C 0.63903(9) 0.21773(8) 0.18418(8)
H70_12 H 0.7085 0.2011 0.1330
H71_12 H 0.6330 0.2085 0.2011
H81_12 H 0.7368 0.1883 0.1441
H82_12 H 0.6441 0.2368 0.1883
H92_12 H 0.7080 0.1765 0.1550
H93_12 H 0.6550 0.2080 0.1765
C148_12 C 0.68918(7) 0.13518(8) 0.07999(7)
C149_12 C 0.57999(7) 0.18918(7) 0.13518(8)
H103_12 H 0.7011 0.1426 0.0651
H104_12 H 0.5651 0.2011 0.1426
H114_12 H 0.6979 0.1180 0.0868
H115_12 H 0.5868 0.1979 0.1180
C159_12 C 0.66142(9) 0.12789(9) 0.06771(9)
C160_12 C 0.56771(9) 0.16142(9) 0.12789(9)
H125_12 H 0.6496 0.1200 0.0820
H126_12 H 0.5820 0.1496 0.1200
H136_12 H 0.6639 0.1144 0.0529
H137_12 H 0.5529 0.1639 0.1144
H147_12 H 0.6528 0.1445 0.0603
H148_12 H 0.5603 0.1528 0.1445
C16_20 C 0.26041(6) 0.45976(5) 0.31681(6)
C22_20 C 0.31681(6) 0.26041(6) 0.45976(5)
C23_20 C 0.45976(5) 0.31681(6) 0.26041(6)
C32_20 C 0.27876(6) 0.43770(5) 0.32821(6)
C33_20 C 0.32821(6) 0.27876(6) 0.43770(5)
C34_20 C 0.43770(5) 0.32821(6) 0.27876(6)
C43_20 C 0.30155(5) 0.42865(6) 0.31356(6)
C44_20 C 0.31356(6) 0.30155(5) 0.42865(6)
C45_20 C 0.42865(6) 0.31356(6) 0.30155(5)
H20_20 H 0.3063 0.4370 0.2965
H21_20 H 0.2965 0.3063 0.4370
H22_20 H 0.4370 0.2965 0.3063
C54_20 C 0.31738(6) 0.40736(5) 0.32408(6)
C55_20 C 0.32408(6) 0.31738(6) 0.40736(5)
C56_20 C 0.40736(5) 0.32408(6) 0.31738(6)
C65_20 C 0.31064(6) 0.39433(6) 0.34889(6)
C66_20 C 0.39433(6) 0.34889(6) 0.31064(6)
C67_20 C 0.34889(6) 0.31064(6) 0.39433(6)
C76_20 C 0.28821(6) 0.40427(6) 0.36395(6)
C77_20 C 0.40427(6) 0.36395(6) 0.28821(6)
C78_20 C 0.36395(6) 0.28821(6) 0.40427(6)
H31_20 H 0.2836 0.3963 0.3812
H32_20 H 0.3963 0.3812 0.2836
H33_20 H 0.3812 0.2836 0.3963
C87_20 C 0.27266(6) 0.42583(6) 0.35358(6)
C88_20 C 0.42583(6) 0.35358(6) 0.27266(6)
C89_20 C 0.35358(6) 0.27266(6) 0.42583(6)
H42_20 H 0.2575 0.4327 0.3640
H43_20 H 0.4327 0.3640 0.2575
H44_20 H 0.3640 0.2575 0.4327
C98_20 C 0.33089(6) 0.37178(6) 0.35350(6)
C99_20 C 0.37178(6) 0.35350(6) 0.33089(6)
C100_20 C 0.35350(6) 0.33089(6) 0.37178(6)
C109_20 C 0.35070(6) 0.37299(6) 0.33207(6)
C110_20 C 0.33207(6) 0.35070(6) 0.37299(6)
C111_20 C 0.37299(6) 0.33207(6) 0.35070(6)
C120_20 C 0.34335(6) 0.39584(6) 0.31147(6)
C121_20 C 0.31147(6) 0.34335(6) 0.39584(6)
C122_20 C 0.39584(6) 0.31147(6) 0.34335(6)
C131_20 C 0.33652(7) 0.38415(7) 0.28259(7)
C132_20 C 0.28259(7) 0.33652(7) 0.38415(7)
C133_20 C 0.38415(7) 0.28259(7) 0.33652(7)
H53_20 H 0.3538 0.3775 0.2740
H54_20 H 0.2740 0.3538 0.3775
H55_20 H 0.3775 0.2740 0.3538
H64_20 H 0.3294 0.3993 0.2710
H65_20 H 0.2710 0.3294 0.3993
H66_20 H 0.3993 0.2710 0.3294
C142_20 C 0.31582(8) 0.36097(9) 0.28227(8)
C143_20 C 0.28227(8) 0.31582(8) 0.36097(9)
C144_20 C 0.36097(9) 0.28227(8) 0.31582(8)
H75_20 H 0.2989 0.3670 0.2915
H76_20 H 0.2915 0.2989 0.3670
H77_20 H 0.3670 0.2915 0.2989
H86_20 H 0.3117 0.3559 0.2632
H87_20 H 0.2632 0.3117 0.3559
H88_20 H 0.3559 0.2632 0.3117
H97_20 H 0.3235 0.3450 0.2920
H98_20 H 0.2920 0.3235 0.3450
H99_20 H 0.3450 0.2920 0.3235
C153_20 C 0.36482(8) 0.42001(7) 0.31082(7)
C154_20 C 0.31082(7) 0.36482(8) 0.42001(7)
C155_20 C 0.42001(7) 0.31082(7) 0.36482(8)
H108_20 H 0.3574 0.4349 0.2989
H109_20 H 0.2989 0.3574 0.4349
H110_20 H 0.4349 0.2989 0.3574
H119_20 H 0.3820 0.4132 0.3021
H120_20 H 0.3021 0.3820 0.4132
H121_20 H 0.4132 0.3021 0.3820
C164_20 C 0.37211(9) 0.43229(9) 0.33858(9)
C165_20 C 0.33858(9) 0.37211(9) 0.43229(9)
C166_20 C 0.43229(9) 0.33858(9) 0.37211(9)
H130_20 H 0.3800 0.4180 0.3504
H131_20 H 0.3504 0.3800 0.4180
H132_20 H 0.4180 0.3504 0.3800
H141_20 H 0.3856 0.4471 0.3361
H142_20 H 0.3361 0.3856 0.4471
H143_20 H 0.4471 0.3361 0.3856
H152_20 H 0.3555 0.4397 0.3472
H153_20 H 0.3472 0.3555 0.4397
H154_20 H 0.4397 0.3472 0.3555
C16_21 C 0.95976(5) 0.26041(6) 0.68319(6)
C22_21 C 0.76041(6) 0.31681(6) 0.54024(5)
C23_21 C 0.81681(6) 0.45976(5) 0.73959(6)
C32_21 C 0.93770(5) 0.27876(6) 0.67179(6)
C33_21 C 0.77876(6) 0.32821(6) 0.56230(5)
C34_21 C 0.82821(6) 0.43770(5) 0.72124(6)
C43_21 C 0.92865(6) 0.30155(5) 0.68644(6)
C44_21 C 0.80155(5) 0.31356(6) 0.57135(6)
C45_21 C 0.81356(6) 0.42865(6) 0.69845(5)
H20_21 H 0.9370 0.3063 0.7035
H21_21 H 0.8063 0.2965 0.5630
H22_21 H 0.7965 0.4370 0.6937
C54_21 C 0.90736(5) 0.31738(6) 0.67592(6)
C55_21 C 0.81738(6) 0.32408(6) 0.59264(5)
C56_21 C 0.82408(6) 0.40736(5) 0.68262(6)
C65_21 C 0.89433(6) 0.31064(6) 0.65111(6)
C66_21 C 0.84889(6) 0.39433(6) 0.68936(6)
C67_21 C 0.81064(6) 0.34889(6) 0.60567(6)
C76_21 C 0.90427(6) 0.28821(6) 0.63605(6)
C77_21 C 0.86395(6) 0.40427(6) 0.71179(6)
C78_21 C 0.78821(6) 0.36395(6) 0.59573(6)
H31_21 H 0.8963 0.2836 0.6188
H32_21 H 0.8812 0.3963 0.7164
H33_21 H 0.7836 0.3812 0.6037
C87_21 C 0.92583(6) 0.27266(6) 0.64642(6)
C88_21 C 0.85358(6) 0.42583(6) 0.72734(6)
C89_21 C 0.77266(6) 0.35358(6) 0.57417(6)
H42_21 H 0.9327 0.2575 0.6360
H43_21 H 0.8640 0.4327 0.7425
H44_21 H 0.7575 0.3640 0.5673
C98_21 C 0.87178(6) 0.33089(6) 0.64650(6)
C99_21 C 0.85350(6) 0.37178(6) 0.66911(6)
C100_21 C 0.83089(6) 0.35350(6) 0.62822(6)
C109_21 C 0.87299(6) 0.35070(6) 0.66793(6)
C110_21 C 0.85070(6) 0.33207(6) 0.62701(6)
C111_21 C 0.83207(6) 0.37299(6) 0.64930(6)
C120_21 C 0.89584(6) 0.34335(6) 0.68853(6)
C121_21 C 0.84335(6) 0.31147(6) 0.60416(6)
C122_21 C 0.81147(6) 0.39584(6) 0.65665(6)
C131_21 C 0.88415(7) 0.33652(7) 0.71741(7)
C132_21 C 0.83652(7) 0.28259(7) 0.61585(7)
C133_21 C 0.78259(7) 0.38415(7) 0.66348(7)
H53_21 H 0.8775 0.3538 0.7260
H54_21 H 0.8538 0.2740 0.6225
H55_21 H 0.7740 0.3775 0.6462
H64_21 H 0.8993 0.3294 0.7290
H65_21 H 0.8294 0.2710 0.6007
H66_21 H 0.7710 0.3993 0.6706
C142_21 C 0.86097(9) 0.31582(8) 0.71773(8)
C143_21 C 0.81582(8) 0.28227(8) 0.63903(9)
C144_21 C 0.78227(8) 0.36097(9) 0.68418(8)
H75_21 H 0.8670 0.2989 0.7085
H76_21 H 0.7989 0.2915 0.6330
H77_21 H 0.7915 0.3670 0.7011
H86_21 H 0.8559 0.3117 0.7368
H87_21 H 0.8117 0.2632 0.6441
H88_21 H 0.7632 0.3559 0.6883
H97_21 H 0.8450 0.3235 0.7080
H98_21 H 0.8235 0.2920 0.6550
H99_21 H 0.7920 0.3450 0.6765
C153_21 C 0.92001(7) 0.36482(8) 0.68918(7)
C154_21 C 0.86482(8) 0.31082(7) 0.57999(7)
C155_21 C 0.81082(7) 0.42001(7) 0.63518(8)
H108_21 H 0.9349 0.3574 0.7011
H109_21 H 0.8574 0.2989 0.5651
H110_21 H 0.7989 0.4349 0.6426
H119_21 H 0.9132 0.3820 0.6979
H120_21 H 0.8820 0.3021 0.5868
H121_21 H 0.8021 0.4132 0.6180
C164_21 C 0.93229(9) 0.37211(9) 0.66142(9)
C165_21 C 0.87211(9) 0.33858(9) 0.56771(9)
C166_21 C 0.83858(9) 0.43229(9) 0.62789(9)
H130_21 H 0.9180 0.3800 0.6496
H131_21 H 0.8800 0.3504 0.5820
H132_21 H 0.8504 0.4180 0.6200
H141_21 H 0.9471 0.3856 0.6639
H142_21 H 0.8856 0.3361 0.5529
H143_21 H 0.8361 0.4471 0.6144
H152_21 H 0.9397 0.3555 0.6528
H153_21 H 0.8555 0.3472 0.5603
H154_21 H 0.8472 0.4397 0.6445
C16_22 C 0.95976(5) 0.73959(6) 0.31681(6)
C22_22 C 0.76041(6) 0.68319(6) 0.45976(5)
C23_22 C 0.81681(6) 0.54024(5) 0.26041(6)
C32_22 C 0.93770(5) 0.72124(6) 0.32821(6)
C33_22 C 0.77876(6) 0.67179(6) 0.43770(5)
C34_22 C 0.82821(6) 0.56230(5) 0.27876(6)
C43_22 C 0.92865(6) 0.69845(5) 0.31356(6)
C44_22 C 0.80155(5) 0.68644(6) 0.42865(6)
C45_22 C 0.81356(6) 0.57135(6) 0.30155(5)
H20_22 H 0.9370 0.6937 0.2965
H21_22 H 0.8063 0.7035 0.4370
H22_22 H 0.7965 0.5630 0.3063
C54_22 C 0.90736(5) 0.68262(6) 0.32408(6)
C55_22 C 0.81738(6) 0.67592(6) 0.40736(5)
C56_22 C 0.82408(6) 0.59264(5) 0.31738(6)
C65_22 C 0.89433(6) 0.68936(6) 0.34889(6)
C66_22 C 0.84889(6) 0.60567(6) 0.31064(6)
C67_22 C 0.81064(6) 0.65111(6) 0.39433(6)
C76_22 C 0.90427(6) 0.71179(6) 0.36395(6)
C77_22 C 0.86395(6) 0.59573(6) 0.28821(6)
C78_22 C 0.78821(6) 0.63605(6) 0.40427(6)
H31_22 H 0.8963 0.7164 0.3812
H32_22 H 0.8812 0.6037 0.2836
H33_22 H 0.7836 0.6188 0.3963
C87_22 C 0.92583(6) 0.72734(6) 0.35358(6)
C88_22 C 0.85358(6) 0.57417(6) 0.27266(6)
C89_22 C 0.77266(6) 0.64642(6) 0.42583(6)
H42_22 H 0.9327 0.7425 0.3640
H43_22 H 0.8640 0.5673 0.2575
H44_22 H 0.7575 0.6360 0.4327
C98_22 C 0.87178(6) 0.66911(6) 0.35350(6)
C99_22 C 0.85350(6) 0.62822(6) 0.33089(6)
C100_22 C 0.83089(6) 0.64650(6) 0.37178(6)
C109_22 C 0.87299(6) 0.64930(6) 0.33207(6)
C110_22 C 0.85070(6) 0.66793(6) 0.37299(6)
C111_22 C 0.83207(6) 0.62701(6) 0.35070(6)
C120_22 C 0.89584(6) 0.65665(6) 0.31147(6)
C121_22 C 0.84335(6) 0.68853(6) 0.39584(6)
C122_22 C 0.81147(6) 0.60416(6) 0.34335(6)
C131_22 C 0.88415(7) 0.66348(7) 0.28259(7)
C132_22 C 0.83652(7) 0.71741(7) 0.38415(7)
C133_22 C 0.78259(7) 0.61585(7) 0.33652(7)
H53_22 H 0.8775 0.6462 0.2740
H54_22 H 0.8538 0.7260 0.3775
H55_22 H 0.7740 0.6225 0.3538
H64_22 H 0.8993 0.6706 0.2710
H65_22 H 0.8294 0.7290 0.3993
H66_22 H 0.7710 0.6007 0.3294
C142_22 C 0.86097(9) 0.68418(8) 0.28227(8)
C143_22 C 0.81582(8) 0.71773(8) 0.36097(9)
C144_22 C 0.78227(8) 0.63903(9) 0.31582(8)
H75_22 H 0.8670 0.7011 0.2915
H76_22 H 0.7989 0.7085 0.3670
H77_22 H 0.7915 0.6330 0.2989
H86_22 H 0.8559 0.6883 0.2632
H87_22 H 0.8117 0.7368 0.3559
H88_22 H 0.7632 0.6441 0.3117
H97_22 H 0.8450 0.6765 0.2920
H98_22 H 0.8235 0.7080 0.3450
H99_22 H 0.7920 0.6550 0.3235
C153_22 C 0.92001(7) 0.63518(8) 0.31082(7)
C154_22 C 0.86482(8) 0.68918(7) 0.42001(7)
C155_22 C 0.81082(7) 0.57999(7) 0.36482(8)
H108_22 H 0.9349 0.6426 0.2989
H109_22 H 0.8574 0.7011 0.4349
H110_22 H 0.7989 0.5651 0.3574
H119_22 H 0.9132 0.6180 0.3021
H120_22 H 0.8820 0.6979 0.4132
H121_22 H 0.8021 0.5868 0.3820
C164_22 C 0.93229(9) 0.62789(9) 0.33858(9)
C165_22 C 0.87211(9) 0.66142(9) 0.43229(9)
C166_22 C 0.83858(9) 0.56771(9) 0.37211(9)
H130_22 H 0.9180 0.6200 0.3504
H131_22 H 0.8800 0.6496 0.4180
H132_22 H 0.8504 0.5820 0.3800
H141_22 H 0.9471 0.6144 0.3361
H142_22 H 0.8856 0.6639 0.4471
H143_22 H 0.8361 0.5529 0.3856
H152_22 H 0.9397 0.6445 0.3472
H153_22 H 0.8555 0.6528 0.4397
H154_22 H 0.8472 0.5603 0.3555
C16_23 C 0.04024(5) 0.26041(6) 0.31681(6)
C22_23 C 0.23959(6) 0.31681(6) 0.45976(5)
C23_23 C 0.18319(6) 0.45976(5) 0.26041(6)
C32_23 C 0.06230(5) 0.27876(6) 0.32821(6)
C33_23 C 0.22124(6) 0.32821(6) 0.43770(5)
C34_23 C 0.17179(6) 0.43770(5) 0.27876(6)
C43_23 C 0.07135(6) 0.30155(5) 0.31356(6)
C44_23 C 0.19845(5) 0.31356(6) 0.42865(6)
C45_23 C 0.18644(6) 0.42865(6) 0.30155(5)
H20_23 H 0.0630 0.3063 0.2965
H21_23 H 0.1937 0.2965 0.4370
H22_23 H 0.2035 0.4370 0.3063
C54_23 C 0.09264(5) 0.31738(6) 0.32408(6)
C55_23 C 0.18262(6) 0.32408(6) 0.40736(5)
C56_23 C 0.17592(6) 0.40736(5) 0.31738(6)
C65_23 C 0.10567(6) 0.31064(6) 0.34889(6)
C66_23 C 0.15111(6) 0.39433(6) 0.31064(6)
C67_23 C 0.18936(6) 0.34889(6) 0.39433(6)
C76_23 C 0.09573(6) 0.28821(6) 0.36395(6)
C77_23 C 0.13605(6) 0.40427(6) 0.28821(6)
C78_23 C 0.21179(6) 0.36395(6) 0.40427(6)
H31_23 H 0.1037 0.2836 0.3812
H32_23 H 0.1188 0.3963 0.2836
H33_23 H 0.2164 0.3812 0.3963
C87_23 C 0.07417(6) 0.27266(6) 0.35358(6)
C88_23 C 0.14642(6) 0.42583(6) 0.27266(6)
C89_23 C 0.22734(6) 0.35358(6) 0.42583(6)
H42_23 H 0.0673 0.2575 0.3640
H43_23 H 0.1360 0.4327 0.2575
H44_23 H 0.2425 0.3640 0.4327
C98_23 C 0.12822(6) 0.33089(6) 0.35350(6)
C99_23 C 0.14650(6) 0.37178(6) 0.33089(6)
C100_23 C 0.16911(6) 0.35350(6) 0.37178(6)
C109_23 C 0.12701(6) 0.35070(6) 0.33207(6)
C110_23 C 0.14930(6) 0.33207(6) 0.37299(6)
C111_23 C 0.16793(6) 0.37299(6) 0.35070(6)
C120_23 C 0.10416(6) 0.34335(6) 0.31147(6)
C121_23 C 0.15665(6) 0.31147(6) 0.39584(6)
C122_23 C 0.18853(6) 0.39584(6) 0.34335(6)
C131_23 C 0.11585(7) 0.33652(7) 0.28259(7)
C132_23 C 0.16348(7) 0.28259(7) 0.38415(7)
C133_23 C 0.21741(7) 0.38415(7) 0.33652(7)
H53_23 H 0.1225 0.3538 0.2740
H54_23 H 0.1462 0.2740 0.3775
H55_23 H 0.2260 0.3775 0.3538
H64_23 H 0.1007 0.3294 0.2710
H65_23 H 0.1706 0.2710 0.3993
H66_23 H 0.2290 0.3993 0.3294
C142_23 C 0.13903(9) 0.31582(8) 0.28227(8)
C143_23 C 0.18418(8) 0.28227(8) 0.36097(9)
C144_23 C 0.21773(8) 0.36097(9) 0.31582(8)
H75_23 H 0.1330 0.2989 0.2915
H76_23 H 0.2011 0.2915 0.3670
H77_23 H 0.2085 0.3670 0.2989
H86_23 H 0.1441 0.3117 0.2632
H87_23 H 0.1883 0.2632 0.3559
H88_23 H 0.2368 0.3559 0.3117
H97_23 H 0.1550 0.3235 0.2920
H98_23 H 0.1765 0.2920 0.3450
H99_23 H 0.2080 0.3450 0.3235
C153_23 C 0.07999(7) 0.36482(8) 0.31082(7)
C154_23 C 0.13518(8) 0.31082(7) 0.42001(7)
C155_23 C 0.18918(7) 0.42001(7) 0.36482(8)
H108_23 H 0.0651 0.3574 0.2989
H109_23 H 0.1426 0.2989 0.4349
H110_23 H 0.2011 0.4349 0.3574
H119_23 H 0.0868 0.3820 0.3021
H120_23 H 0.1180 0.3021 0.4132
H121_23 H 0.1979 0.4132 0.3820
C164_23 C 0.06771(9) 0.37211(9) 0.33858(9)
C165_23 C 0.12789(9) 0.33858(9) 0.43229(9)
C166_23 C 0.16142(9) 0.43229(9) 0.37211(9)
H130_23 H 0.0820 0.3800 0.3504
H131_23 H 0.1200 0.3504 0.4180
H132_23 H 0.1496 0.4180 0.3800
H141_23 H 0.0529 0.3856 0.3361
H142_23 H 0.1144 0.3361 0.4471
H143_23 H 0.1639 0.4471 0.3856
H152_23 H 0.0603 0.3555 0.3472
H153_23 H 0.1445 0.3472 0.4397
H154_23 H 0.1528 0.4397 0.3555
C1_13 C 0.73959(6) 0.54024(5) 0.68319(6)
C2_13 C 0.72124(6) 0.56230(5) 0.67179(6)
C3_13 C 0.69845(5) 0.57135(6) 0.68644(6)
H1_13 H 0.6937 0.5630 0.7035
C4_13 C 0.68262(6) 0.59264(5) 0.67592(6)
C5_13 C 0.68936(6) 0.60567(6) 0.65111(6)
C6_13 C 0.71179(6) 0.59573(6) 0.63605(6)
H2_13 H 0.7164 0.6037 0.6188
C7_13 C 0.72734(6) 0.57417(6) 0.64642(6)
H3_13 H 0.7425 0.5673 0.6360
C8_13 C 0.66911(6) 0.62822(6) 0.64650(6)
C9_13 C 0.66793(6) 0.64930(6) 0.62701(6)
C10_13 C 0.65665(6) 0.60416(6) 0.68853(6)
C11_13 C 0.66348(7) 0.61585(7) 0.71741(7)
H4_13 H 0.6462 0.6225 0.7260
H5_13 H 0.6706 0.6007 0.7290
C12_13 C 0.68418(8) 0.63903(9) 0.71773(8)
H6_13 H 0.7011 0.6330 0.7085
H7_13 H 0.6883 0.6441 0.7368
H8_13 H 0.6765 0.6550 0.7080
C13_13 C 0.63518(8) 0.57999(7) 0.68918(7)
H9_13 H 0.6426 0.5651 0.7011
H10_13 H 0.6180 0.5868 0.6979
C14_13 C 0.62789(9) 0.56771(9) 0.66142(9)
H11_13 H 0.6200 0.5820 0.6496
H12_13 H 0.6144 0.5529 0.6639
H13_13 H 0.6445 0.5603 0.6528
C17_13 C 0.68319(6) 0.73959(6) 0.54024(5)
C18_13 C 0.54024(5) 0.68319(6) 0.73959(6)
C27_13 C 0.67179(6) 0.72124(6) 0.56230(5)
C28_13 C 0.56230(5) 0.67179(6) 0.72124(6)
C38_13 C 0.68644(6) 0.69845(5) 0.57135(6)
C39_13 C 0.57135(6) 0.68644(6) 0.69845(5)
H15_13 H 0.7035 0.6937 0.5630
H16_13 H 0.5630 0.7035 0.6937
C49_13 C 0.67592(6) 0.68262(6) 0.59264(5)
C50_13 C 0.59264(5) 0.67592(6) 0.68262(6)
C60_13 C 0.65111(6) 0.68936(6) 0.60567(6)
C61_13 C 0.60567(6) 0.65111(6) 0.68936(6)
C71_13 C 0.63605(6) 0.71179(6) 0.59573(6)
C72_13 C 0.59573(6) 0.63605(6) 0.71179(6)
H26_13 H 0.6188 0.7164 0.6037
H27_13 H 0.6037 0.6188 0.7164
C82_13 C 0.64642(6) 0.72734(6) 0.57417(6)
C83_13 C 0.57417(6) 0.64642(6) 0.72734(6)
H37_13 H 0.6360 0.7425 0.5673
H38_13 H 0.5673 0.6360 0.7425
C93_13 C 0.64650(6) 0.66911(6) 0.62822(6)
C94_13 C 0.62822(6) 0.64650(6) 0.66911(6)
C104_13 C 0.64930(6) 0.62701(6) 0.66793(6)
C105_13 C 0.62701(6) 0.66793(6) 0.64930(6)
C115_13 C 0.68853(6) 0.65665(6) 0.60416(6)
C116_13 C 0.60416(6) 0.68853(6) 0.65665(6)
C126_13 C 0.71741(7) 0.66348(7) 0.61585(7)
C127_13 C 0.61585(7) 0.71741(7) 0.66348(7)
H48_13 H 0.7260 0.6462 0.6225
H49_13 H 0.6225 0.7260 0.6462
H59_13 H 0.7290 0.6706 0.6007
H60_13 H 0.6007 0.7290 0.6706
C137_13 C 0.71773(8) 0.68418(8) 0.63903(9)
C138_13 C 0.63903(9) 0.71773(8) 0.68418(8)
H70_13 H 0.7085 0.7011 0.6330
H71_13 H 0.6330 0.7085 0.7011
H81_13 H 0.7368 0.6883 0.6441
H82_13 H 0.6441 0.7368 0.6883
H92_13 H 0.7080 0.6765 0.6550
H93_13 H 0.6550 0.7080 0.6765
C148_13 C 0.68918(7) 0.63518(8) 0.57999(7)
C149_13 C 0.57999(7) 0.68918(7) 0.63518(8)
H103_13 H 0.7011 0.6426 0.5651
H104_13 H 0.5651 0.7011 0.6426
H114_13 H 0.6979 0.6180 0.5868
H115_13 H 0.5868 0.6979 0.6180
C159_13 C 0.66142(9) 0.62789(9) 0.56771(9)
C160_13 C 0.56771(9) 0.66142(9) 0.62789(9)
H125_13 H 0.6496 0.6200 0.5820
H126_13 H 0.5820 0.6496 0.6200
H136_13 H 0.6639 0.6144 0.5529
H137_13 H 0.5529 0.6639 0.6144
H147_13 H 0.6528 0.6445 0.5603
H148_13 H 0.5603 0.6528 0.6445
C16_24 C 0.26041(6) 0.95976(5) 0.81681(6)
C22_24 C 0.31681(6) 0.76041(6) 0.95976(5)
C23_24 C 0.45976(5) 0.81681(6) 0.76041(6)
C32_24 C 0.27876(6) 0.93770(5) 0.82821(6)
C33_24 C 0.32821(6) 0.77876(6) 0.93770(5)
C34_24 C 0.43770(5) 0.82821(6) 0.77876(6)
C43_24 C 0.30155(5) 0.92865(6) 0.81356(6)
C44_24 C 0.31356(6) 0.80155(5) 0.92865(6)
C45_24 C 0.42865(6) 0.81356(6) 0.80155(5)
H20_24 H 0.3063 0.9370 0.7965
H21_24 H 0.2965 0.8063 0.9370
H22_24 H 0.4370 0.7965 0.8063
C54_24 C 0.31738(6) 0.90736(5) 0.82408(6)
C55_24 C 0.32408(6) 0.81738(6) 0.90736(5)
C56_24 C 0.40736(5) 0.82408(6) 0.81738(6)
C65_24 C 0.31064(6) 0.89433(6) 0.84889(6)
C66_24 C 0.39433(6) 0.84889(6) 0.81064(6)
C67_24 C 0.34889(6) 0.81064(6) 0.89433(6)
C76_24 C 0.28821(6) 0.90427(6) 0.86395(6)
C77_24 C 0.40427(6) 0.86395(6) 0.78821(6)
C78_24 C 0.36395(6) 0.78821(6) 0.90427(6)
H31_24 H 0.2836 0.8963 0.8812
H32_24 H 0.3963 0.8812 0.7836
H33_24 H 0.3812 0.7836 0.8963
C87_24 C 0.27266(6) 0.92583(6) 0.85358(6)
C88_24 C 0.42583(6) 0.85358(6) 0.77266(6)
C89_24 C 0.35358(6) 0.77266(6) 0.92583(6)
H42_24 H 0.2575 0.9327 0.8640
H43_24 H 0.4327 0.8640 0.7575
H44_24 H 0.3640 0.7575 0.9327
C98_24 C 0.33089(6) 0.87178(6) 0.85350(6)
C99_24 C 0.37178(6) 0.85350(6) 0.83089(6)
C100_24 C 0.35350(6) 0.83089(6) 0.87178(6)
C109_24 C 0.35070(6) 0.87299(6) 0.83207(6)
C110_24 C 0.33207(6) 0.85070(6) 0.87299(6)
C111_24 C 0.37299(6) 0.83207(6) 0.85070(6)
C120_24 C 0.34335(6) 0.89584(6) 0.81147(6)
C121_24 C 0.31147(6) 0.84335(6) 0.89584(6)
C122_24 C 0.39584(6) 0.81147(6) 0.84335(6)
C131_24 C 0.33652(7) 0.88415(7) 0.78259(7)
C132_24 C 0.28259(7) 0.83652(7) 0.88415(7)
C133_24 C 0.38415(7) 0.78259(7) 0.83652(7)
H53_24 H 0.3538 0.8775 0.7740
H54_24 H 0.2740 0.8538 0.8775
H55_24 H 0.3775 0.7740 0.8538
H64_24 H 0.3294 0.8993 0.7710
H65_24 H 0.2710 0.8294 0.8993
H66_24 H 0.3993 0.7710 0.8294
C142_24 C 0.31582(8) 0.86097(9) 0.78227(8)
C143_24 C 0.28227(8) 0.81582(8) 0.86097(9)
C144_24 C 0.36097(9) 0.78227(8) 0.81582(8)
H75_24 H 0.2989 0.8670 0.7915
H76_24 H 0.2915 0.7989 0.8670
H77_24 H 0.3670 0.7915 0.7989
H86_24 H 0.3117 0.8559 0.7632
H87_24 H 0.2632 0.8117 0.8559
H88_24 H 0.3559 0.7632 0.8117
H97_24 H 0.3235 0.8450 0.7920
H98_24 H 0.2920 0.8235 0.8450
H99_24 H 0.3450 0.7920 0.8235
C153_24 C 0.36482(8) 0.92001(7) 0.81082(7)
C154_24 C 0.31082(7) 0.86482(8) 0.92001(7)
C155_24 C 0.42001(7) 0.81082(7) 0.86482(8)
H108_24 H 0.3574 0.9349 0.7989
H109_24 H 0.2989 0.8574 0.9349
H110_24 H 0.4349 0.7989 0.8574
H119_24 H 0.3820 0.9132 0.8021
H120_24 H 0.3021 0.8820 0.9132
H121_24 H 0.4132 0.8021 0.8820
C164_24 C 0.37211(9) 0.93229(9) 0.83858(9)
C165_24 C 0.33858(9) 0.87211(9) 0.93229(9)
C166_24 C 0.43229(9) 0.83858(9) 0.87211(9)
H130_24 H 0.3800 0.9180 0.8504
H131_24 H 0.3504 0.8800 0.9180
H132_24 H 0.4180 0.8504 0.8800
H141_24 H 0.3856 0.9471 0.8361
H142_24 H 0.3361 0.8856 0.9471
H143_24 H 0.4471 0.8361 0.8856
H152_24 H 0.3555 0.9397 0.8472
H153_24 H 0.3472 0.8555 0.9397
H154_24 H 0.4397 0.8472 0.8555
C16_25 C 0.45976(5) 0.76041(6) 0.68319(6)
C22_25 C 0.26041(6) 0.81681(6) 0.54024(5)
C23_25 C 0.31681(6) 0.95976(5) 0.73959(6)
C32_25 C 0.43770(5) 0.77876(6) 0.67179(6)
C33_25 C 0.27876(6) 0.82821(6) 0.56230(5)
C34_25 C 0.32821(6) 0.93770(5) 0.72124(6)
C43_25 C 0.42865(6) 0.80155(5) 0.68644(6)
C44_25 C 0.30155(5) 0.81356(6) 0.57135(6)
C45_25 C 0.31356(6) 0.92865(6) 0.69845(5)
H20_25 H 0.4370 0.8063 0.7035
H21_25 H 0.3063 0.7965 0.5630
H22_25 H 0.2965 0.9370 0.6937
C54_25 C 0.40736(5) 0.81738(6) 0.67592(6)
C55_25 C 0.31738(6) 0.82408(6) 0.59264(5)
C56_25 C 0.32408(6) 0.90736(5) 0.68262(6)
C65_25 C 0.39433(6) 0.81064(6) 0.65111(6)
C66_25 C 0.34889(6) 0.89433(6) 0.68936(6)
C67_25 C 0.31064(6) 0.84889(6) 0.60567(6)
C76_25 C 0.40427(6) 0.78821(6) 0.63605(6)
C77_25 C 0.36395(6) 0.90427(6) 0.71179(6)
C78_25 C 0.28821(6) 0.86395(6) 0.59573(6)
H31_25 H 0.3963 0.7836 0.6188
H32_25 H 0.3812 0.8963 0.7164
H33_25 H 0.2836 0.8812 0.6037
C87_25 C 0.42583(6) 0.77266(6) 0.64642(6)
C88_25 C 0.35358(6) 0.92583(6) 0.72734(6)
C89_25 C 0.27266(6) 0.85358(6) 0.57417(6)
H42_25 H 0.4327 0.7575 0.6360
H43_25 H 0.3640 0.9327 0.7425
H44_25 H 0.2575 0.8640 0.5673
C98_25 C 0.37178(6) 0.83089(6) 0.64650(6)
C99_25 C 0.35350(6) 0.87178(6) 0.66911(6)
C100_25 C 0.33089(6) 0.85350(6) 0.62822(6)
C109_25 C 0.37299(6) 0.85070(6) 0.66793(6)
C110_25 C 0.35070(6) 0.83207(6) 0.62701(6)
C111_25 C 0.33207(6) 0.87299(6) 0.64930(6)
C120_25 C 0.39584(6) 0.84335(6) 0.68853(6)
C121_25 C 0.34335(6) 0.81147(6) 0.60416(6)
C122_25 C 0.31147(6) 0.89584(6) 0.65665(6)
C131_25 C 0.38415(7) 0.83652(7) 0.71741(7)
C132_25 C 0.33652(7) 0.78259(7) 0.61585(7)
C133_25 C 0.28259(7) 0.88415(7) 0.66348(7)
H53_25 H 0.3775 0.8538 0.7260
H54_25 H 0.3538 0.7740 0.6225
H55_25 H 0.2740 0.8775 0.6462
H64_25 H 0.3993 0.8294 0.7290
H65_25 H 0.3294 0.7710 0.6007
H66_25 H 0.2710 0.8993 0.6706
C142_25 C 0.36097(9) 0.81582(8) 0.71773(8)
C143_25 C 0.31582(8) 0.78227(8) 0.63903(9)
C144_25 C 0.28227(8) 0.86097(9) 0.68418(8)
H75_25 H 0.3670 0.7989 0.7085
H76_25 H 0.2989 0.7915 0.6330
H77_25 H 0.2915 0.8670 0.7011
H86_25 H 0.3559 0.8117 0.7368
H87_25 H 0.3117 0.7632 0.6441
H88_25 H 0.2632 0.8559 0.6883
H97_25 H 0.3450 0.8235 0.7080
H98_25 H 0.3235 0.7920 0.6550
H99_25 H 0.2920 0.8450 0.6765
C153_25 C 0.42001(7) 0.86482(8) 0.68918(7)
C154_25 C 0.36482(8) 0.81082(7) 0.57999(7)
C155_25 C 0.31082(7) 0.92001(7) 0.63518(8)
H108_25 H 0.4349 0.8574 0.7011
H109_25 H 0.3574 0.7989 0.5651
H110_25 H 0.2989 0.9349 0.6426
H119_25 H 0.4132 0.8820 0.6979
H120_25 H 0.3820 0.8021 0.5868
H121_25 H 0.3021 0.9132 0.6180
C164_25 C 0.43229(9) 0.87211(9) 0.66142(9)
C165_25 C 0.37211(9) 0.83858(9) 0.56771(9)
C166_25 C 0.33858(9) 0.93229(9) 0.62789(9)
H130_25 H 0.4180 0.8800 0.6496
H131_25 H 0.3800 0.8504 0.5820
H132_25 H 0.3504 0.9180 0.6200
H141_25 H 0.4471 0.8856 0.6639
H142_25 H 0.3856 0.8361 0.5529
H143_25 H 0.3361 0.9471 0.6144
H152_25 H 0.4397 0.8555 0.6528
H153_25 H 0.3555 0.8472 0.5603
H154_25 H 0.3472 0.9397 0.6445
C16_26 C 0.45976(5) 0.23959(6) 0.31681(6)
C22_26 C 0.26041(6) 0.18319(6) 0.45976(5)
C23_26 C 0.31681(6) 0.04024(5) 0.26041(6)
C32_26 C 0.43770(5) 0.22124(6) 0.32821(6)
C33_26 C 0.27876(6) 0.17179(6) 0.43770(5)
C34_26 C 0.32821(6) 0.06230(5) 0.27876(6)
C43_26 C 0.42865(6) 0.19845(5) 0.31356(6)
C44_26 C 0.30155(5) 0.18644(6) 0.42865(6)
C45_26 C 0.31356(6) 0.07135(6) 0.30155(5)
H20_26 H 0.4370 0.1937 0.2965
H21_26 H 0.3063 0.2035 0.4370
H22_26 H 0.2965 0.0630 0.3063
C54_26 C 0.40736(5) 0.18262(6) 0.32408(6)
C55_26 C 0.31738(6) 0.17592(6) 0.40736(5)
C56_26 C 0.32408(6) 0.09264(5) 0.31738(6)
C65_26 C 0.39433(6) 0.18936(6) 0.34889(6)
C66_26 C 0.34889(6) 0.10567(6) 0.31064(6)
C67_26 C 0.31064(6) 0.15111(6) 0.39433(6)
C76_26 C 0.40427(6) 0.21179(6) 0.36395(6)
C77_26 C 0.36395(6) 0.09573(6) 0.28821(6)
C78_26 C 0.28821(6) 0.13605(6) 0.40427(6)
H31_26 H 0.3963 0.2164 0.3812
H32_26 H 0.3812 0.1037 0.2836
H33_26 H 0.2836 0.1188 0.3963
C87_26 C 0.42583(6) 0.22734(6) 0.35358(6)
C88_26 C 0.35358(6) 0.07417(6) 0.27266(6)
C89_26 C 0.27266(6) 0.14642(6) 0.42583(6)
H42_26 H 0.4327 0.2425 0.3640
H43_26 H 0.3640 0.0673 0.2575
H44_26 H 0.2575 0.1360 0.4327
C98_26 C 0.37178(6) 0.16911(6) 0.35350(6)
C99_26 C 0.35350(6) 0.12822(6) 0.33089(6)
C100_26 C 0.33089(6) 0.14650(6) 0.37178(6)
C109_26 C 0.37299(6) 0.14930(6) 0.33207(6)
C110_26 C 0.35070(6) 0.16793(6) 0.37299(6)
C111_26 C 0.33207(6) 0.12701(6) 0.35070(6)
C120_26 C 0.39584(6) 0.15665(6) 0.31147(6)
C121_26 C 0.34335(6) 0.18853(6) 0.39584(6)
C122_26 C 0.31147(6) 0.10416(6) 0.34335(6)
C131_26 C 0.38415(7) 0.16348(7) 0.28259(7)
C132_26 C 0.33652(7) 0.21741(7) 0.38415(7)
C133_26 C 0.28259(7) 0.11585(7) 0.33652(7)
H53_26 H 0.3775 0.1462 0.2740
H54_26 H 0.3538 0.2260 0.3775
H55_26 H 0.2740 0.1225 0.3538
H64_26 H 0.3993 0.1706 0.2710
H65_26 H 0.3294 0.2290 0.3993
H66_26 H 0.2710 0.1007 0.3294
C142_26 C 0.36097(9) 0.18418(8) 0.28227(8)
C143_26 C 0.31582(8) 0.21773(8) 0.36097(9)
C144_26 C 0.28227(8) 0.13903(9) 0.31582(8)
H75_26 H 0.3670 0.2011 0.2915
H76_26 H 0.2989 0.2085 0.3670
H77_26 H 0.2915 0.1330 0.2989
H86_26 H 0.3559 0.1883 0.2632
H87_26 H 0.3117 0.2368 0.3559
H88_26 H 0.2632 0.1441 0.3117
H97_26 H 0.3450 0.1765 0.2920
H98_26 H 0.3235 0.2080 0.3450
H99_26 H 0.2920 0.1550 0.3235
C153_26 C 0.42001(7) 0.13518(8) 0.31082(7)
C154_26 C 0.36482(8) 0.18918(7) 0.42001(7)
C155_26 C 0.31082(7) 0.07999(7) 0.36482(8)
H108_26 H 0.4349 0.1426 0.2989
H109_26 H 0.3574 0.2011 0.4349
H110_26 H 0.2989 0.0651 0.3574
H119_26 H 0.4132 0.1180 0.3021
H120_26 H 0.3820 0.1979 0.4132
H121_26 H 0.3021 0.0868 0.3820
C164_26 C 0.43229(9) 0.12789(9) 0.33858(9)
C165_26 C 0.37211(9) 0.16142(9) 0.43229(9)
C166_26 C 0.33858(9) 0.06771(9) 0.37211(9)
H130_26 H 0.4180 0.1200 0.3504
H131_26 H 0.3800 0.1496 0.4180
H132_26 H 0.3504 0.0820 0.3800
H141_26 H 0.4471 0.1144 0.3361
H142_26 H 0.3856 0.1639 0.4471
H143_26 H 0.3361 0.0529 0.3856
H152_26 H 0.4397 0.1445 0.3472
H153_26 H 0.3555 0.1528 0.4397
H154_26 H 0.3472 0.0603 0.3555
C16_27 C 0.54024(5) 0.76041(6) 0.31681(6)
C22_27 C 0.73959(6) 0.81681(6) 0.45976(5)
C23_27 C 0.68319(6) 0.95976(5) 0.26041(6)
C32_27 C 0.56230(5) 0.77876(6) 0.32821(6)
C33_27 C 0.72124(6) 0.82821(6) 0.43770(5)
C34_27 C 0.67179(6) 0.93770(5) 0.27876(6)
C43_27 C 0.57135(6) 0.80155(5) 0.31356(6)
C44_27 C 0.69845(5) 0.81356(6) 0.42865(6)
C45_27 C 0.68644(6) 0.92865(6) 0.30155(5)
H20_27 H 0.5630 0.8063 0.2965
H21_27 H 0.6937 0.7965 0.4370
H22_27 H 0.7035 0.9370 0.3063
C54_27 C 0.59264(5) 0.81738(6) 0.32408(6)
C55_27 C 0.68262(6) 0.82408(6) 0.40736(5)
C56_27 C 0.67592(6) 0.90736(5) 0.31738(6)
C65_27 C 0.60567(6) 0.81064(6) 0.34889(6)
C66_27 C 0.65111(6) 0.89433(6) 0.31064(6)
C67_27 C 0.68936(6) 0.84889(6) 0.39433(6)
C76_27 C 0.59573(6) 0.78821(6) 0.36395(6)
C77_27 C 0.63605(6) 0.90427(6) 0.28821(6)
C78_27 C 0.71179(6) 0.86395(6) 0.40427(6)
H31_27 H 0.6037 0.7836 0.3812
H32_27 H 0.6188 0.8963 0.2836
H33_27 H 0.7164 0.8812 0.3963
C87_27 C 0.57417(6) 0.77266(6) 0.35358(6)
C88_27 C 0.64642(6) 0.92583(6) 0.27266(6)
C89_27 C 0.72734(6) 0.85358(6) 0.42583(6)
H42_27 H 0.5673 0.7575 0.3640
H43_27 H 0.6360 0.9327 0.2575
H44_27 H 0.7425 0.8640 0.4327
C98_27 C 0.62822(6) 0.83089(6) 0.35350(6)
C99_27 C 0.64650(6) 0.87178(6) 0.33089(6)
C100_27 C 0.66911(6) 0.85350(6) 0.37178(6)
C109_27 C 0.62701(6) 0.85070(6) 0.33207(6)
C110_27 C 0.64930(6) 0.83207(6) 0.37299(6)
C111_27 C 0.66793(6) 0.87299(6) 0.35070(6)
C120_27 C 0.60416(6) 0.84335(6) 0.31147(6)
C121_27 C 0.65665(6) 0.81147(6) 0.39584(6)
C122_27 C 0.68853(6) 0.89584(6) 0.34335(6)
C131_27 C 0.61585(7) 0.83652(7) 0.28259(7)
C132_27 C 0.66348(7) 0.78259(7) 0.38415(7)
C133_27 C 0.71741(7) 0.88415(7) 0.33652(7)
H53_27 H 0.6225 0.8538 0.2740
H54_27 H 0.6462 0.7740 0.3775
H55_27 H 0.7260 0.8775 0.3538
H64_27 H 0.6007 0.8294 0.2710
H65_27 H 0.6706 0.7710 0.3993
H66_27 H 0.7290 0.8993 0.3294
C142_27 C 0.63903(9) 0.81582(8) 0.28227(8)
C143_27 C 0.68418(8) 0.78227(8) 0.36097(9)
C144_27 C 0.71773(8) 0.86097(9) 0.31582(8)
H75_27 H 0.6330 0.7989 0.2915
H76_27 H 0.7011 0.7915 0.3670
H77_27 H 0.7085 0.8670 0.2989
H86_27 H 0.6441 0.8117 0.2632
H87_27 H 0.6883 0.7632 0.3559
H88_27 H 0.7368 0.8559 0.3117
H97_27 H 0.6550 0.8235 0.2920
H98_27 H 0.6765 0.7920 0.3450
H99_27 H 0.7080 0.8450 0.3235
C153_27 C 0.57999(7) 0.86482(8) 0.31082(7)
C154_27 C 0.63518(8) 0.81082(7) 0.42001(7)
C155_27 C 0.68918(7) 0.92001(7) 0.36482(8)
H108_27 H 0.5651 0.8574 0.2989
H109_27 H 0.6426 0.7989 0.4349
H110_27 H 0.7011 0.9349 0.3574
H119_27 H 0.5868 0.8820 0.3021
H120_27 H 0.6180 0.8021 0.4132
H121_27 H 0.6979 0.9132 0.3820
C164_27 C 0.56771(9) 0.87211(9) 0.33858(9)
C165_27 C 0.62789(9) 0.83858(9) 0.43229(9)
C166_27 C 0.66142(9) 0.93229(9) 0.37211(9)
H130_27 H 0.5820 0.8800 0.3504
H131_27 H 0.6200 0.8504 0.4180
H132_27 H 0.6496 0.9180 0.3800
H141_27 H 0.5529 0.8856 0.3361
H142_27 H 0.6144 0.8361 0.4471
H143_27 H 0.6639 0.9471 0.3856
H152_27 H 0.5603 0.8555 0.3472
H153_27 H 0.6445 0.8472 0.4397
H154_27 H 0.6528 0.9397 0.3555
C16_28 C 0.76041(6) 0.45976(5) 0.81681(6)
C22_28 C 0.81681(6) 0.26041(6) 0.95976(5)
C23_28 C 0.95976(5) 0.31681(6) 0.76041(6)
C32_28 C 0.77876(6) 0.43770(5) 0.82821(6)
C33_28 C 0.82821(6) 0.27876(6) 0.93770(5)
C34_28 C 0.93770(5) 0.32821(6) 0.77876(6)
C43_28 C 0.80155(5) 0.42865(6) 0.81356(6)
C44_28 C 0.81356(6) 0.30155(5) 0.92865(6)
C45_28 C 0.92865(6) 0.31356(6) 0.80155(5)
H20_28 H 0.8063 0.4370 0.7965
H21_28 H 0.7965 0.3063 0.9370
H22_28 H 0.9370 0.2965 0.8063
C54_28 C 0.81738(6) 0.40736(5) 0.82408(6)
C55_28 C 0.82408(6) 0.31738(6) 0.90736(5)
C56_28 C 0.90736(5) 0.32408(6) 0.81738(6)
C65_28 C 0.81064(6) 0.39433(6) 0.84889(6)
C66_28 C 0.89433(6) 0.34889(6) 0.81064(6)
C67_28 C 0.84889(6) 0.31064(6) 0.89433(6)
C76_28 C 0.78821(6) 0.40427(6) 0.86395(6)
C77_28 C 0.90427(6) 0.36395(6) 0.78821(6)
C78_28 C 0.86395(6) 0.28821(6) 0.90427(6)
H31_28 H 0.7836 0.3963 0.8812
H32_28 H 0.8963 0.3812 0.7836
H33_28 H 0.8812 0.2836 0.8963
C87_28 C 0.77266(6) 0.42583(6) 0.85358(6)
C88_28 C 0.92583(6) 0.35358(6) 0.77266(6)
C89_28 C 0.85358(6) 0.27266(6) 0.92583(6)
H42_28 H 0.7575 0.4327 0.8640
H43_28 H 0.9327 0.3640 0.7575
H44_28 H 0.8640 0.2575 0.9327
C98_28 C 0.83089(6) 0.37178(6) 0.85350(6)
C99_28 C 0.87178(6) 0.35350(6) 0.83089(6)
C100_28 C 0.85350(6) 0.33089(6) 0.87178(6)
C109_28 C 0.85070(6) 0.37299(6) 0.83207(6)
C110_28 C 0.83207(6) 0.35070(6) 0.87299(6)
C111_28 C 0.87299(6) 0.33207(6) 0.85070(6)
C120_28 C 0.84335(6) 0.39584(6) 0.81147(6)
C121_28 C 0.81147(6) 0.34335(6) 0.89584(6)
C122_28 C 0.89584(6) 0.31147(6) 0.84335(6)
C131_28 C 0.83652(7) 0.38415(7) 0.78259(7)
C132_28 C 0.78259(7) 0.33652(7) 0.88415(7)
C133_28 C 0.88415(7) 0.28259(7) 0.83652(7)
H53_28 H 0.8538 0.3775 0.7740
H54_28 H 0.7740 0.3538 0.8775
H55_28 H 0.8775 0.2740 0.8538
H64_28 H 0.8294 0.3993 0.7710
H65_28 H 0.7710 0.3294 0.8993
H66_28 H 0.8993 0.2710 0.8294
C142_28 C 0.81582(8) 0.36097(9) 0.78227(8)
C143_28 C 0.78227(8) 0.31582(8) 0.86097(9)
C144_28 C 0.86097(9) 0.28227(8) 0.81582(8)
H75_28 H 0.7989 0.3670 0.7915
H76_28 H 0.7915 0.2989 0.8670
H77_28 H 0.8670 0.2915 0.7989
H86_28 H 0.8117 0.3559 0.7632
H87_28 H 0.7632 0.3117 0.8559
H88_28 H 0.8559 0.2632 0.8117
H97_28 H 0.8235 0.3450 0.7920
H98_28 H 0.7920 0.3235 0.8450
H99_28 H 0.8450 0.2920 0.8235
C153_28 C 0.86482(8) 0.42001(7) 0.81082(7)
C154_28 C 0.81082(7) 0.36482(8) 0.92001(7)
C155_28 C 0.92001(7) 0.31082(7) 0.86482(8)
H108_28 H 0.8574 0.4349 0.7989
H109_28 H 0.7989 0.3574 0.9349
H110_28 H 0.9349 0.2989 0.8574
H119_28 H 0.8820 0.4132 0.8021
H120_28 H 0.8021 0.3820 0.9132
H121_28 H 0.9132 0.3021 0.8820
C164_28 C 0.87211(9) 0.43229(9) 0.83858(9)
C165_28 C 0.83858(9) 0.37211(9) 0.93229(9)
C166_28 C 0.93229(9) 0.33858(9) 0.87211(9)
H130_28 H 0.8800 0.4180 0.8504
H131_28 H 0.8504 0.3800 0.9180
H132_28 H 0.9180 0.3504 0.8800
H141_28 H 0.8856 0.4471 0.8361
H142_28 H 0.8361 0.3856 0.9471
H143_28 H 0.9471 0.3361 0.8856
H152_28 H 0.8555 0.4397 0.8472
H153_28 H 0.8472 0.3555 0.9397
H154_28 H 0.9397 0.3472 0.8555
C16_29 C 0.45976(5) 0.26041(6) 0.18319(6)
C22_29 C 0.26041(6) 0.31681(6) 0.04024(5)
C23_29 C 0.31681(6) 0.45976(5) 0.23959(6)
C32_29 C 0.43770(5) 0.27876(6) 0.17179(6)
C33_29 C 0.27876(6) 0.32821(6) 0.06230(5)
C34_29 C 0.32821(6) 0.43770(5) 0.22124(6)
C43_29 C 0.42865(6) 0.30155(5) 0.18644(6)
C44_29 C 0.30155(5) 0.31356(6) 0.07135(6)
C45_29 C 0.31356(6) 0.42865(6) 0.19845(5)
H20_29 H 0.4370 0.3063 0.2035
H21_29 H 0.3063 0.2965 0.0630
H22_29 H 0.2965 0.4370 0.1937
C54_29 C 0.40736(5) 0.31738(6) 0.17592(6)
C55_29 C 0.31738(6) 0.32408(6) 0.09264(5)
C56_29 C 0.32408(6) 0.40736(5) 0.18262(6)
C65_29 C 0.39433(6) 0.31064(6) 0.15111(6)
C66_29 C 0.34889(6) 0.39433(6) 0.18936(6)
C67_29 C 0.31064(6) 0.34889(6) 0.10567(6)
C76_29 C 0.40427(6) 0.28821(6) 0.13605(6)
C77_29 C 0.36395(6) 0.40427(6) 0.21179(6)
C78_29 C 0.28821(6) 0.36395(6) 0.09573(6)
H31_29 H 0.3963 0.2836 0.1188
H32_29 H 0.3812 0.3963 0.2164
H33_29 H 0.2836 0.3812 0.1037
C87_29 C 0.42583(6) 0.27266(6) 0.14642(6)
C88_29 C 0.35358(6) 0.42583(6) 0.22734(6)
C89_29 C 0.27266(6) 0.35358(6) 0.07417(6)
H42_29 H 0.4327 0.2575 0.1360
H43_29 H 0.3640 0.4327 0.2425
H44_29 H 0.2575 0.3640 0.0673
C98_29 C 0.37178(6) 0.33089(6) 0.14650(6)
C99_29 C 0.35350(6) 0.37178(6) 0.16911(6)
C100_29 C 0.33089(6) 0.35350(6) 0.12822(6)
C109_29 C 0.37299(6) 0.35070(6) 0.16793(6)
C110_29 C 0.35070(6) 0.33207(6) 0.12701(6)
C111_29 C 0.33207(6) 0.37299(6) 0.14930(6)
C120_29 C 0.39584(6) 0.34335(6) 0.18853(6)
C121_29 C 0.34335(6) 0.31147(6) 0.10416(6)
C122_29 C 0.31147(6) 0.39584(6) 0.15665(6)
C131_29 C 0.38415(7) 0.33652(7) 0.21741(7)
C132_29 C 0.33652(7) 0.28259(7) 0.11585(7)
C133_29 C 0.28259(7) 0.38415(7) 0.16348(7)
H53_29 H 0.3775 0.3538 0.2260
H54_29 H 0.3538 0.2740 0.1225
H55_29 H 0.2740 0.3775 0.1462
H64_29 H 0.3993 0.3294 0.2290
H65_29 H 0.3294 0.2710 0.1007
H66_29 H 0.2710 0.3993 0.1706
C142_29 C 0.36097(9) 0.31582(8) 0.21773(8)
C143_29 C 0.31582(8) 0.28227(8) 0.13903(9)
C144_29 C 0.28227(8) 0.36097(9) 0.18418(8)
H75_29 H 0.3670 0.2989 0.2085
H76_29 H 0.2989 0.2915 0.1330
H77_29 H 0.2915 0.3670 0.2011
H86_29 H 0.3559 0.3117 0.2368
H87_29 H 0.3117 0.2632 0.1441
H88_29 H 0.2632 0.3559 0.1883
H97_29 H 0.3450 0.3235 0.2080
H98_29 H 0.3235 0.2920 0.1550
H99_29 H 0.2920 0.3450 0.1765
C153_29 C 0.42001(7) 0.36482(8) 0.18918(7)
C154_29 C 0.36482(8) 0.31082(7) 0.07999(7)
C155_29 C 0.31082(7) 0.42001(7) 0.13518(8)
H108_29 H 0.4349 0.3574 0.2011
H109_29 H 0.3574 0.2989 0.0651
H110_29 H 0.2989 0.4349 0.1426
H119_29 H 0.4132 0.3820 0.1979
H120_29 H 0.3820 0.3021 0.0868
H121_29 H 0.3021 0.4132 0.1180
C164_29 C 0.43229(9) 0.37211(9) 0.16142(9)
C165_29 C 0.37211(9) 0.33858(9) 0.06771(9)
C166_29 C 0.33858(9) 0.43229(9) 0.12789(9)
H130_29 H 0.4180 0.3800 0.1496
H131_29 H 0.3800 0.3504 0.0820
H132_29 H 0.3504 0.4180 0.1200
H141_29 H 0.4471 0.3856 0.1639
H142_29 H 0.3856 0.3361 0.0529
H143_29 H 0.3361 0.4471 0.1144
H152_29 H 0.4397 0.3555 0.1528
H153_29 H 0.3555 0.3472 0.0603
H154_29 H 0.3472 0.4397 0.1445
C16_30 C 0.45976(5) 0.73959(6) 0.81681(6)
C22_30 C 0.26041(6) 0.68319(6) 0.95976(5)
C23_30 C 0.31681(6) 0.54024(5) 0.76041(6)
C32_30 C 0.43770(5) 0.72124(6) 0.82821(6)
C33_30 C 0.27876(6) 0.67179(6) 0.93770(5)
C34_30 C 0.32821(6) 0.56230(5) 0.77876(6)
C43_30 C 0.42865(6) 0.69845(5) 0.81356(6)
C44_30 C 0.30155(5) 0.68644(6) 0.92865(6)
C45_30 C 0.31356(6) 0.57135(6) 0.80155(5)
H20_30 H 0.4370 0.6937 0.7965
H21_30 H 0.3063 0.7035 0.9370
H22_30 H 0.2965 0.5630 0.8063
C54_30 C 0.40736(5) 0.68262(6) 0.82408(6)
C55_30 C 0.31738(6) 0.67592(6) 0.90736(5)
C56_30 C 0.32408(6) 0.59264(5) 0.81738(6)
C65_30 C 0.39433(6) 0.68936(6) 0.84889(6)
C66_30 C 0.34889(6) 0.60567(6) 0.81064(6)
C67_30 C 0.31064(6) 0.65111(6) 0.89433(6)
C76_30 C 0.40427(6) 0.71179(6) 0.86395(6)
C77_30 C 0.36395(6) 0.59573(6) 0.78821(6)
C78_30 C 0.28821(6) 0.63605(6) 0.90427(6)
H31_30 H 0.3963 0.7164 0.8812
H32_30 H 0.3812 0.6037 0.7836
H33_30 H 0.2836 0.6188 0.8963
C87_30 C 0.42583(6) 0.72734(6) 0.85358(6)
C88_30 C 0.35358(6) 0.57417(6) 0.77266(6)
C89_30 C 0.27266(6) 0.64642(6) 0.92583(6)
H42_30 H 0.4327 0.7425 0.8640
H43_30 H 0.3640 0.5673 0.7575
H44_30 H 0.2575 0.6360 0.9327
C98_30 C 0.37178(6) 0.66911(6) 0.85350(6)
C99_30 C 0.35350(6) 0.62822(6) 0.83089(6)
C100_30 C 0.33089(6) 0.64650(6) 0.87178(6)
C109_30 C 0.37299(6) 0.64930(6) 0.83207(6)
C110_30 C 0.35070(6) 0.66793(6) 0.87299(6)
C111_30 C 0.33207(6) 0.62701(6) 0.85070(6)
C120_30 C 0.39584(6) 0.65665(6) 0.81147(6)
C121_30 C 0.34335(6) 0.68853(6) 0.89584(6)
C122_30 C 0.31147(6) 0.60416(6) 0.84335(6)
C131_30 C 0.38415(7) 0.66348(7) 0.78259(7)
C132_30 C 0.33652(7) 0.71741(7) 0.88415(7)
C133_30 C 0.28259(7) 0.61585(7) 0.83652(7)
H53_30 H 0.3775 0.6462 0.7740
H54_30 H 0.3538 0.7260 0.8775
H55_30 H 0.2740 0.6225 0.8538
H64_30 H 0.3993 0.6706 0.7710
H65_30 H 0.3294 0.7290 0.8993
H66_30 H 0.2710 0.6007 0.8294
C142_30 C 0.36097(9) 0.68418(8) 0.78227(8)
C143_30 C 0.31582(8) 0.71773(8) 0.86097(9)
C144_30 C 0.28227(8) 0.63903(9) 0.81582(8)
H75_30 H 0.3670 0.7011 0.7915
H76_30 H 0.2989 0.7085 0.8670
H77_30 H 0.2915 0.6330 0.7989
H86_30 H 0.3559 0.6883 0.7632
H87_30 H 0.3117 0.7368 0.8559
H88_30 H 0.2632 0.6441 0.8117
H97_30 H 0.3450 0.6765 0.7920
H98_30 H 0.3235 0.7080 0.8450
H99_30 H 0.2920 0.6550 0.8235
C153_30 C 0.42001(7) 0.63518(8) 0.81082(7)
C154_30 C 0.36482(8) 0.68918(7) 0.92001(7)
C155_30 C 0.31082(7) 0.57999(7) 0.86482(8)
H108_30 H 0.4349 0.6426 0.7989
H109_30 H 0.3574 0.7011 0.9349
H110_30 H 0.2989 0.5651 0.8574
H119_30 H 0.4132 0.6180 0.8021
H120_30 H 0.3820 0.6979 0.9132
H121_30 H 0.3021 0.5868 0.8820
C164_30 C 0.43229(9) 0.62789(9) 0.83858(9)
C165_30 C 0.37211(9) 0.66142(9) 0.93229(9)
C166_30 C 0.33858(9) 0.56771(9) 0.87211(9)
H130_30 H 0.4180 0.6200 0.8504
H131_30 H 0.3800 0.6496 0.9180
H132_30 H 0.3504 0.5820 0.8800
H141_30 H 0.4471 0.6144 0.8361
H142_30 H 0.3856 0.6639 0.9471
H143_30 H 0.3361 0.5529 0.8856
H152_30 H 0.4397 0.6445 0.8472
H153_30 H 0.3555 0.6528 0.9397
H154_30 H 0.3472 0.5603 0.8555
C16_31 C 0.54024(5) 0.26041(6) 0.81681(6)
C22_31 C 0.73959(6) 0.31681(6) 0.95976(5)
C23_31 C 0.68319(6) 0.45976(5) 0.76041(6)
C32_31 C 0.56230(5) 0.27876(6) 0.82821(6)
C33_31 C 0.72124(6) 0.32821(6) 0.93770(5)
C34_31 C 0.67179(6) 0.43770(5) 0.77876(6)
C43_31 C 0.57135(6) 0.30155(5) 0.81356(6)
C44_31 C 0.69845(5) 0.31356(6) 0.92865(6)
C45_31 C 0.68644(6) 0.42865(6) 0.80155(5)
H20_31 H 0.5630 0.3063 0.7965
H21_31 H 0.6937 0.2965 0.9370
H22_31 H 0.7035 0.4370 0.8063
C54_31 C 0.59264(5) 0.31738(6) 0.82408(6)
C55_31 C 0.68262(6) 0.32408(6) 0.90736(5)
C56_31 C 0.67592(6) 0.40736(5) 0.81738(6)
C65_31 C 0.60567(6) 0.31064(6) 0.84889(6)
C66_31 C 0.65111(6) 0.39433(6) 0.81064(6)
C67_31 C 0.68936(6) 0.34889(6) 0.89433(6)
C76_31 C 0.59573(6) 0.28821(6) 0.86395(6)
C77_31 C 0.63605(6) 0.40427(6) 0.78821(6)
C78_31 C 0.71179(6) 0.36395(6) 0.90427(6)
H31_31 H 0.6037 0.2836 0.8812
H32_31 H 0.6188 0.3963 0.7836
H33_31 H 0.7164 0.3812 0.8963
C87_31 C 0.57417(6) 0.27266(6) 0.85358(6)
C88_31 C 0.64642(6) 0.42583(6) 0.77266(6)
C89_31 C 0.72734(6) 0.35358(6) 0.92583(6)
H42_31 H 0.5673 0.2575 0.8640
H43_31 H 0.6360 0.4327 0.7575
H44_31 H 0.7425 0.3640 0.9327
C98_31 C 0.62822(6) 0.33089(6) 0.85350(6)
C99_31 C 0.64650(6) 0.37178(6) 0.83089(6)
C100_31 C 0.66911(6) 0.35350(6) 0.87178(6)
C109_31 C 0.62701(6) 0.35070(6) 0.83207(6)
C110_31 C 0.64930(6) 0.33207(6) 0.87299(6)
C111_31 C 0.66793(6) 0.37299(6) 0.85070(6)
C120_31 C 0.60416(6) 0.34335(6) 0.81147(6)
C121_31 C 0.65665(6) 0.31147(6) 0.89584(6)
C122_31 C 0.68853(6) 0.39584(6) 0.84335(6)
C131_31 C 0.61585(7) 0.33652(7) 0.78259(7)
C132_31 C 0.66348(7) 0.28259(7) 0.88415(7)
C133_31 C 0.71741(7) 0.38415(7) 0.83652(7)
H53_31 H 0.6225 0.3538 0.7740
H54_31 H 0.6462 0.2740 0.8775
H55_31 H 0.7260 0.3775 0.8538
H64_31 H 0.6007 0.3294 0.7710
H65_31 H 0.6706 0.2710 0.8993
H66_31 H 0.7290 0.3993 0.8294
C142_31 C 0.63903(9) 0.31582(8) 0.78227(8)
C143_31 C 0.68418(8) 0.28227(8) 0.86097(9)
C144_31 C 0.71773(8) 0.36097(9) 0.81582(8)
H75_31 H 0.6330 0.2989 0.7915
H76_31 H 0.7011 0.2915 0.8670
H77_31 H 0.7085 0.3670 0.7989
H86_31 H 0.6441 0.3117 0.7632
H87_31 H 0.6883 0.2632 0.8559
H88_31 H 0.7368 0.3559 0.8117
H97_31 H 0.6550 0.3235 0.7920
H98_31 H 0.6765 0.2920 0.8450
H99_31 H 0.7080 0.3450 0.8235
C153_31 C 0.57999(7) 0.36482(8) 0.81082(7)
C154_31 C 0.63518(8) 0.31082(7) 0.92001(7)
C155_31 C 0.68918(7) 0.42001(7) 0.86482(8)
H108_31 H 0.5651 0.3574 0.7989
H109_31 H 0.6426 0.2989 0.9349
H110_31 H 0.7011 0.4349 0.8574
H119_31 H 0.5868 0.3820 0.8021
H120_31 H 0.6180 0.3021 0.9132
H121_31 H 0.6979 0.4132 0.8820
C164_31 C 0.56771(9) 0.37211(9) 0.83858(9)
C165_31 C 0.62789(9) 0.33858(9) 0.93229(9)
C166_31 C 0.66142(9) 0.43229(9) 0.87211(9)
H130_31 H 0.5820 0.3800 0.8504
H131_31 H 0.6200 0.3504 0.9180
H132_31 H 0.6496 0.4180 0.8800
H141_31 H 0.5529 0.3856 0.8361
H142_31 H 0.6144 0.3361 0.9471
H143_31 H 0.6639 0.4471 0.8856
H152_31 H 0.5603 0.3555 0.8472
H153_31 H 0.6445 0.3472 0.9397
H154_31 H 0.6528 0.4397 0.8555
C16_32 C 0.76041(6) 0.95976(5) 0.31681(6)
C22_32 C 0.81681(6) 0.76041(6) 0.45976(5)
C23_32 C 0.95976(5) 0.81681(6) 0.26041(6)
C32_32 C 0.77876(6) 0.93770(5) 0.32821(6)
C33_32 C 0.82821(6) 0.77876(6) 0.43770(5)
C34_32 C 0.93770(5) 0.82821(6) 0.27876(6)
C43_32 C 0.80155(5) 0.92865(6) 0.31356(6)
C44_32 C 0.81356(6) 0.80155(5) 0.42865(6)
C45_32 C 0.92865(6) 0.81356(6) 0.30155(5)
H20_32 H 0.8063 0.9370 0.2965
H21_32 H 0.7965 0.8063 0.4370
H22_32 H 0.9370 0.7965 0.3063
C54_32 C 0.81738(6) 0.90736(5) 0.32408(6)
C55_32 C 0.82408(6) 0.81738(6) 0.40736(5)
C56_32 C 0.90736(5) 0.82408(6) 0.31738(6)
C65_32 C 0.81064(6) 0.89433(6) 0.34889(6)
C66_32 C 0.89433(6) 0.84889(6) 0.31064(6)
C67_32 C 0.84889(6) 0.81064(6) 0.39433(6)
C76_32 C 0.78821(6) 0.90427(6) 0.36395(6)
C77_32 C 0.90427(6) 0.86395(6) 0.28821(6)
C78_32 C 0.86395(6) 0.78821(6) 0.40427(6)
H31_32 H 0.7836 0.8963 0.3812
H32_32 H 0.8963 0.8812 0.2836
H33_32 H 0.8812 0.7836 0.3963
C87_32 C 0.77266(6) 0.92583(6) 0.35358(6)
C88_32 C 0.92583(6) 0.85358(6) 0.27266(6)
C89_32 C 0.85358(6) 0.77266(6) 0.42583(6)
H42_32 H 0.7575 0.9327 0.3640
H43_32 H 0.9327 0.8640 0.2575
H44_32 H 0.8640 0.7575 0.4327
C98_32 C 0.83089(6) 0.87178(6) 0.35350(6)
C99_32 C 0.87178(6) 0.85350(6) 0.33089(6)
C100_32 C 0.85350(6) 0.83089(6) 0.37178(6)
C109_32 C 0.85070(6) 0.87299(6) 0.33207(6)
C110_32 C 0.83207(6) 0.85070(6) 0.37299(6)
C111_32 C 0.87299(6) 0.83207(6) 0.35070(6)
C120_32 C 0.84335(6) 0.89584(6) 0.31147(6)
C121_32 C 0.81147(6) 0.84335(6) 0.39584(6)
C122_32 C 0.89584(6) 0.81147(6) 0.34335(6)
C131_32 C 0.83652(7) 0.88415(7) 0.28259(7)
C132_32 C 0.78259(7) 0.83652(7) 0.38415(7)
C133_32 C 0.88415(7) 0.78259(7) 0.33652(7)
H53_32 H 0.8538 0.8775 0.2740
H54_32 H 0.7740 0.8538 0.3775
H55_32 H 0.8775 0.7740 0.3538
H64_32 H 0.8294 0.8993 0.2710
H65_32 H 0.7710 0.8294 0.3993
H66_32 H 0.8993 0.7710 0.3294
C142_32 C 0.81582(8) 0.86097(9) 0.28227(8)
C143_32 C 0.78227(8) 0.81582(8) 0.36097(9)
C144_32 C 0.86097(9) 0.78227(8) 0.31582(8)
H75_32 H 0.7989 0.8670 0.2915
H76_32 H 0.7915 0.7989 0.3670
H77_32 H 0.8670 0.7915 0.2989
H86_32 H 0.8117 0.8559 0.2632
H87_32 H 0.7632 0.8117 0.3559
H88_32 H 0.8559 0.7632 0.3117
H97_32 H 0.8235 0.8450 0.2920
H98_32 H 0.7920 0.8235 0.3450
H99_32 H 0.8450 0.7920 0.3235
C153_32 C 0.86482(8) 0.92001(7) 0.31082(7)
C154_32 C 0.81082(7) 0.86482(8) 0.42001(7)
C155_32 C 0.92001(7) 0.81082(7) 0.36482(8)
H108_32 H 0.8574 0.9349 0.2989
H109_32 H 0.7989 0.8574 0.4349
H110_32 H 0.9349 0.7989 0.3574
H119_32 H 0.8820 0.9132 0.3021
H120_32 H 0.8021 0.8820 0.4132
H121_32 H 0.9132 0.8021 0.3820
C164_32 C 0.87211(9) 0.93229(9) 0.33858(9)
C165_32 C 0.83858(9) 0.87211(9) 0.43229(9)
C166_32 C 0.93229(9) 0.83858(9) 0.37211(9)
H130_32 H 0.8800 0.9180 0.3504
H131_32 H 0.8504 0.8800 0.4180
H132_32 H 0.9180 0.8504 0.3800
H141_32 H 0.8856 0.9471 0.3361
H142_32 H 0.8361 0.8856 0.4471
H143_32 H 0.9471 0.8361 0.3856
H152_32 H 0.8555 0.9397 0.3472
H153_32 H 0.8472 0.8555 0.4397
H154_32 H 0.9397 0.8472 0.3555
O39 O -0.0000 0.12920(9) 0.21135(11)
O39_2 O 1.0000 0.12920(9) 0.21135(11)
O39_3 O 0.21135(11) -0.0000 0.12920(9)
O39_4 O 0.21135(11) 1.0000 0.12920(9)
O39_5 O 0.12920(9) 0.21135(11) -0.0000
O39_6 O 0.12920(9) 0.21135(11) 1.0000
O39_7 O 0.62920(9) 0.5000 0.28865(11)
O39_8 O 0.62920(9) 0.5000 0.71135(11)
O39_9 O 0.37080(9) 0.5000 0.71135(11)
O39_10 O 0.5000 0.71135(11) 0.37080(9)
O39_11 O 0.5000 0.71135(11) 0.62920(9)
O39_12 O 0.5000 0.28865(11) 0.62920(9)
O39_13 O 0.71135(11) 0.62920(9) 0.5000
O39_14 O 0.71135(11) 0.37080(9) 0.5000
O39_15 O 0.28865(11) 0.62920(9) 0.5000
O39_16 O -0.0000 0.62920(9) 0.71135(11)
O39_17 O 1.0000 0.62920(9) 0.71135(11)
O39_18 O 0.21135(11) 0.5000 0.62920(9)
O39_19 O 0.12920(9) 0.71135(11) 0.5000
O39_20 O 0.62920(9) -0.0000 0.78865(11)
O39_21 O 0.62920(9) 1.0000 0.78865(11)
O39_22 O 0.62920(9) 0.0000 0.21135(11)
O39_23 O 0.62920(9) 1.0000 0.21135(11)
O39_24 O 0.37080(9) -0.0000 0.21135(11)
O39_25 O 0.37080(9) 1.0000 0.21135(11)
O39_26 O 0.5000 0.21135(11) 0.87080(9)
O39_27 O 0.5000 0.21135(11) 0.12920(9)
O39_28 O 0.5000 0.78865(11) 0.12920(9)
O39_29 O 0.71135(11) 0.12920(9) 0.0000
O39_30 O 0.71135(11) 0.12920(9) 1.0000
O39_31 O 0.71135(11) 0.87080(9) -0.0000
O39_32 O 0.71135(11) 0.87080(9) 1.0000
O39_33 O 0.28865(11) 0.12920(9) -0.0000
O39_34 O 0.28865(11) 0.12920(9) 1.0000
O39_35 O 0.5000 0.12920(9) 0.71135(11)
O39_36 O 0.71135(11) -0.0000 0.62920(9)
O39_37 O 0.71135(11) 1.0000 0.62920(9)
O39_38 O 0.62920(9) 0.21135(11) 0.5000
O39_39 O 0.12920(9) 0.5000 0.78865(11)
O39_40 O 0.12920(9) 0.5000 0.21135(11)
O39_41 O 0.87080(9) 0.5000 0.21135(11)
O39_42 O -0.0000 0.71135(11) 0.87080(9)
O39_43 O 1.0000 0.71135(11) 0.87080(9)
O39_44 O 0.0000 0.71135(11) 0.12920(9)
O39_45 O 1.0000 0.71135(11) 0.12920(9)
O39_46 O -0.0000 0.28865(11) 0.12920(9)
O39_47 O 1.0000 0.28865(11) 0.12920(9)
O39_48 O 0.21135(11) 0.62920(9) 0.0000
O39_49 O 0.21135(11) 0.62920(9) 1.0000
O39_50 O 0.21135(11) 0.37080(9) -0.0000
O39_51 O 0.21135(11) 0.37080(9) 1.0000
O39_52 O 0.78865(11) 0.62920(9) -0.0000
O39_53 O 0.78865(11) 0.62920(9) 1.0000
O39_54 O 0.5000 0.62920(9) 0.21135(11)
O39_55 O 0.71135(11) 0.5000 0.12920(9)
O39_56 O 0.62920(9) 0.71135(11) -0.0000
O39_57 O 0.62920(9) 0.71135(11) 1.0000
O39_58 O 0.12920(9) -0.0000 0.28865(11)
O39_59 O 0.12920(9) 1.0000 0.28865(11)
O39_60 O 0.12920(9) 0.0000 0.71135(11)
O39_61 O 0.12920(9) 1.0000 0.71135(11)
O39_62 O 0.87080(9) -0.0000 0.71135(11)
O39_63 O 0.87080(9) 1.0000 0.71135(11)
O39_64 O -0.0000 0.21135(11) 0.37080(9)
O39_65 O 1.0000 0.21135(11) 0.37080(9)
O39_66 O -0.0000 0.21135(11) 0.62920(9)
O39_67 O 1.0000 0.21135(11) 0.62920(9)
O39_68 O -0.0000 0.78865(11) 0.62920(9)
O39_69 O 1.0000 0.78865(11) 0.62920(9)
O39_70 O 0.21135(11) 0.12920(9) 0.5000
O39_71 O 0.21135(11) 0.87080(9) 0.5000
O39_72 O 0.78865(11) 0.12920(9) 0.5000
O39_73 O 0.0000 0.87080(9) 0.21135(11)
O39_74 O 1.0000 0.87080(9) 0.21135(11)
O39_75 O -0.0000 0.12920(9) 0.78865(11)
O39_76 O 1.0000 0.12920(9) 0.78865(11)
O39_77 O -0.0000 0.87080(9) 0.78865(11)
O39_78 O 1.0000 0.87080(9) 0.78865(11)
O39_79 O 0.21135(11) 0.0000 0.87080(9)
O39_80 O 0.21135(11) 1.0000 0.87080(9)
O39_81 O 0.78865(11) 0.0000 0.12920(9)
O39_82 O 0.78865(11) 1.0000 0.12920(9)
O39_83 O 0.78865(11) -0.0000 0.87080(9)
O39_84 O 0.78865(11) 1.0000 0.87080(9)
O39_85 O 0.87080(9) 0.21135(11) 0.0000
O39_86 O 0.87080(9) 0.21135(11) 1.0000
O39_87 O 0.12920(9) 0.78865(11) 0.0000
O39_88 O 0.12920(9) 0.78865(11) 1.0000
O39_89 O 0.87080(9) 0.78865(11) -0.0000
O39_90 O 0.87080(9) 0.78865(11) 1.0000
O39_91 O 0.37080(9) 0.5000 0.28865(11)
O39_92 O 0.5000 0.28865(11) 0.37080(9)
O39_93 O 0.28865(11) 0.37080(9) 0.5000
O39_94 O 0.0000 0.37080(9) 0.71135(11)
O39_95 O 1.0000 0.37080(9) 0.71135(11)
O39_96 O 0.0000 0.62920(9) 0.28865(11)
O39_97 O 1.0000 0.62920(9) 0.28865(11)
O39_98 O -0.0000 0.37080(9) 0.28865(11)
O39_99 O 1.0000 0.37080(9) 0.28865(11)
O39_100 O 0.21135(11) 0.5000 0.37080(9)
O39_101 O 0.78865(11) 0.5000 0.62920(9)
O39_102 O 0.78865(11) 0.5000 0.37080(9)
O39_103 O 0.87080(9) 0.71135(11) 0.5000
O39_104 O 0.12920(9) 0.28865(11) 0.5000
O39_105 O 0.87080(9) 0.28865(11) 0.5000
O39_106 O 0.37080(9) 0.0000 0.78865(11)
O39_107 O 0.37080(9) 1.0000 0.78865(11)
O39_108 O 0.5000 0.78865(11) 0.87080(9)
O39_109 O 0.28865(11) 0.87080(9) 0.0000
O39_110 O 0.28865(11) 0.87080(9) 1.0000
O39_111 O 0.5000 0.87080(9) 0.71135(11)
O39_112 O 0.5000 0.12920(9) 0.28865(11)
O39_113 O 0.5000 0.87080(9) 0.28865(11)
O39_114 O 0.71135(11) 0.0000 0.37080(9)
O39_115 O 0.71135(11) 1.0000 0.37080(9)
O39_116 O 0.28865(11) 0.0000 0.62920(9)
O39_117 O 0.28865(11) 1.0000 0.62920(9)
O39_118 O 0.28865(11) -0.0000 0.37080(9)
O39_119 O 0.28865(11) 1.0000 0.37080(9)
O39_120 O 0.37080(9) 0.21135(11) 0.5000
O39_121 O 0.62920(9) 0.78865(11) 0.5000
O39_122 O 0.37080(9) 0.78865(11) 0.5000
O39_123 O 0.87080(9) 0.5000 0.78865(11)
O39_124 O 0.0000 0.28865(11) 0.87080(9)
O39_125 O 1.0000 0.28865(11) 0.87080(9)
O39_126 O 0.78865(11) 0.37080(9) 0.0000
O39_127 O 0.78865(11) 0.37080(9) 1.0000
O39_128 O 0.5000 0.37080(9) 0.21135(11)
O39_129 O 0.5000 0.62920(9) 0.78865(11)
O39_130 O 0.5000 0.37080(9) 0.78865(11)
O39_131 O 0.71135(11) 0.5000 0.87080(9)
O39_132 O 0.28865(11) 0.5000 0.12920(9)
O39_133 O 0.28865(11) 0.5000 0.87080(9)
O39_134 O 0.37080(9) 0.71135(11) 0.0000
O39_135 O 0.37080(9) 0.71135(11) 1.0000
O39_136 O 0.62920(9) 0.28865(11) 0.0000
O39_137 O 0.62920(9) 0.28865(11) 1.0000
O39_138 O 0.37080(9) 0.28865(11) -0.0000
O39_139 O 0.37080(9) 0.28865(11) 1.0000
O39_140 O 0.87080(9) 0.0000 0.28865(11)
O39_141 O 0.87080(9) 1.0000 0.28865(11)
O39_142 O -0.0000 0.78865(11) 0.37080(9)
O39_143 O 1.0000 0.78865(11) 0.37080(9)
O39_144 O 0.78865(11) 0.87080(9) 0.5000
loop_
_geom_bond_atom_site_label_1
_geom_bond_atom_site_label_2
_geom_bond_site_symmetry_1
_geom_bond_site_symmetry_2
O3 Cd1 1_555 1_555
O4 Cd1 1_555 1_555
O5 Cd1 1_555 1_555
C15 O5 1_555 1_555
H14 O5 1_555 1_555
Cd2 O3 1_555 1_555
Cd3 O4 1_555 1_555
Cd4 O4 1_555 1_555
Cd13 O17 1_555 1_555
Cd14 O32 1_555 1_555
Cd15 O18 1_555 1_555
Cd16 O33 1_555 1_555
O6 Cd1 1_555 1_555
O10 Cd2 1_555 1_555
O11 Cd4 1_555 1_555
O14 Cd3 1_555 1_555
O17 C22 1_555 1_555
O18 C23 1_555 1_555
O21 Cd1 1_555 1_555
O26 Cd2 1_555 1_555
O29 Cd3 1_555 1_555
O32 Cd13 1_555 1_555
O33 Cd15 1_555 1_555
C16 O3 1_555 1_555
C22 O32 1_555 1_555
C23 O33 1_555 1_555
C32 C16 1_555 1_555
C33 C22 1_555 1_555
C34 C23 1_555 1_555
C43 C32 1_555 1_555
C44 C33 1_555 1_555
C45 C34 1_555 1_555
H20 C43 1_555 1_555
H21 C44 1_555 1_555
H22 C45 1_555 1_555
C54 C43 1_555 1_555
C55 C44 1_555 1_555
C56 C45 1_555 1_555
C65 C54 1_555 1_555
C66 C56 1_555 1_555
C67 C55 1_555 1_555
C76 C65 1_555 1_555
C77 C66 1_555 1_555
C78 C67 1_555 1_555
H31 C76 1_555 1_555
H32 C77 1_555 1_555
H33 C78 1_555 1_555
C87 C32 1_555 1_555
C88 C34 1_555 1_555
C89 C33 1_555 1_555
H42 C87 1_555 1_555
H43 C88 1_555 1_555
H44 C89 1_555 1_555
C98 C65 1_555 1_555
C99 C66 1_555 1_555
C100 C67 1_555 1_555
C109 C98 1_555 1_555
C110 C98 1_555 1_555
C111 C99 1_555 1_555
C120 C54 1_555 1_555
C121 C55 1_555 1_555
C122 C56 1_555 1_555
C131 C120 1_555 1_555
C132 C121 1_555 1_555
C133 C122 1_555 1_555
H53 C131 1_555 1_555
H54 C132 1_555 1_555
H55 C133 1_555 1_555
H64 C131 1_555 1_555
H65 C132 1_555 1_555
H66 C133 1_555 1_555
C142 C131 1_555 1_555
C143 C132 1_555 1_555
C144 C133 1_555 1_555
H75 C142 1_555 1_555
H76 C143 1_555 1_555
H77 C144 1_555 1_555
H86 C142 1_555 1_555
H87 C143 1_555 1_555
H88 C144 1_555 1_555
H97 C142 1_555 1_555
H98 C143 1_555 1_555
H99 C144 1_555 1_555
C153 C120 1_555 1_555
C154 C121 1_555 1_555
C155 C122 1_555 1_555
H108 C153 1_555 1_555
H109 C154 1_555 1_555
H110 C155 1_555 1_555
H119 C153 1_555 1_555
H120 C154 1_555 1_555
H121 C155 1_555 1_555
C164 C153 1_555 1_555
C165 C154 1_555 1_555
C166 C155 1_555 1_555
H130 C164 1_555 1_555
H131 C165 1_555 1_555
H132 C166 1_555 1_555
H141 C164 1_555 1_555
H142 C165 1_555 1_555
H143 C166 1_555 1_555
H152 C164 1_555 1_555
H153 C165 1_555 1_555
H154 C166 1_555 1_555
O36 Cd2 1_555 1_555
O37 Cd4 1_555 1_555
O38 Cd3 1_555 1_555
C170 O37 1_555 1_555
C171 O36 1_555 1_555
C172 O38 1_555 1_555
H158 O37 1_555 1_555
H159 O36 1_555 1_555
H160 O38 1_555 1_555
O4 Cd2 1_555 1_555
Cd3 O21 1_555 1_555
Cd4 O26 1_555 1_555
Cd4 O29 1_555 1_555
O10 C16 1_555 1_555
C76 C87 1_555 1_555
C77 C88 1_555 1_555
C78 C89 1_555 1_555
C99 C109 1_555 1_555
C100 C110 1_555 1_555
C100 C111 1_555 1_555
C109 C120 1_555 1_555
C110 C121 1_555 1_555
C111 C122 1_555 1_555
C171 H164 1_555 1_555
C171 H165 1_555 1_555
C172 H167 1_555 1_555
C172 H168 1_555 1_555
C170 H170 1_555 1_555
C170 H171 1_555 1_555
C15 H176 1_555 1_555
C15 H177 1_555 1_555
Cd1_2 O2 1_555 1_555
O2 C1 1_555 1_555
O4_2 Cd1_2 1_555 1_555
C1 C2 1_555 1_555
C2 C3 1_555 1_555
C3 H1 1_555 1_555
C4 C3 1_555 1_555
C5 C4 1_555 1_555
C6 C5 1_555 1_555
H2 C6 1_555 1_555
C7 C2 1_555 1_555
H3 C7 1_555 1_555
C8 C5 1_555 1_555
C9 C8 1_555 1_555
C10 C4 1_555 1_555
C11 C10 1_555 1_555
H4 C11 1_555 1_555
H5 C11 1_555 1_555
C12 C11 1_555 1_555
H6 C12 1_555 1_555
H7 C12 1_555 1_555
H8 C12 1_555 1_555
C13 C10 1_555 1_555
H9 C13 1_555 1_555
H10 C13 1_555 1_555
C14 C13 1_555 1_555
H11 C14 1_555 1_555
H12 C14 1_555 1_555
H13 C14 1_555 1_555
O5_2 Cd1_2 1_555 1_555
C15_2 O5_2 1_555 1_555
H14_2 O5_2 1_555 1_555
Cd3_2 O4_2 1_555 1_555
Cd4_2 O4_2 1_555 1_555
Cd5 O7 1_555 1_555
Cd6 O24 1_555 1_555
Cd7 O8 1_555 1_555
Cd8 O25 1_555 1_555
Cd9 O15 1_555 1_555
Cd10 O20 1_555 1_555
Cd11 O16 1_555 1_555
Cd12 O31 1_555 1_555
Cd17 O19 1_555 1_555
Cd18 O35 1_555 1_555
O7 C17 1_555 1_555
O8 C18 1_555 1_555
O9 Cd2_2 1_555 1_555
O12 Cd4_2 1_555 1_555
O13 Cd3_2 1_555 1_555
O15 C20 1_555 1_555
O16 C21 1_555 1_555
O19 C25 1_555 1_555
O20 C26 1_555 1_555
O22 Cd1_2 1_555 1_555
O23 Cd1_2 1_555 1_555
O24 Cd5 1_555 1_555
O25 Cd7 1_555 1_555
O27 Cd2_2 1_555 1_555
O28 Cd3_2 1_555 1_555
O30 Cd9 1_555 1_555
O31 Cd11 1_555 1_555
O34 Cd7 1_555 1_555
O35 Cd10 1_555 1_555
C17 O24 1_555 1_555
C18 O25 1_555 1_555
C19 O12 1_555 1_555
C20 O30 1_555 1_555
C21 O31 1_555 1_555
C24 O13 1_555 1_555
C25 O34 1_555 1_555
C26 O35 1_555 1_555
C27 C17 1_555 1_555
C28 C18 1_555 1_555
C29 C19 1_555 1_555
C30 C20 1_555 1_555
C31 C21 1_555 1_555
C35 C24 1_555 1_555
C36 C25 1_555 1_555
C37 C26 1_555 1_555
C38 C27 1_555 1_555
C39 C28 1_555 1_555
C40 C29 1_555 1_555
C41 C30 1_555 1_555
C42 C31 1_555 1_555
C46 C35 1_555 1_555
C47 C36 1_555 1_555
C48 C37 1_555 1_555
H15 C38 1_555 1_555
H16 C39 1_555 1_555
H17 C40 1_555 1_555
H18 C41 1_555 1_555
H19 C42 1_555 1_555
H23 C46 1_555 1_555
H24 C47 1_555 1_555
H25 C48 1_555 1_555
C49 C38 1_555 1_555
C50 C39 1_555 1_555
C51 C40 1_555 1_555
C52 C41 1_555 1_555
C53 C42 1_555 1_555
C57 C46 1_555 1_555
C58 C47 1_555 1_555
C59 C48 1_555 1_555
C60 C49 1_555 1_555
C61 C50 1_555 1_555
C62 C51 1_555 1_555
C63 C53 1_555 1_555
C64 C52 1_555 1_555
C68 C57 1_555 1_555
C69 C59 1_555 1_555
C70 C58 1_555 1_555
C71 C60 1_555 1_555
C72 C61 1_555 1_555
C73 C62 1_555 1_555
C74 C63 1_555 1_555
C75 C64 1_555 1_555
C79 C68 1_555 1_555
C80 C69 1_555 1_555
C81 C70 1_555 1_555
H26 C71 1_555 1_555
H27 C72 1_555 1_555
H28 C73 1_555 1_555
H29 C74 1_555 1_555
H30 C75 1_555 1_555
H34 C79 1_555 1_555
H35 C80 1_555 1_555
H36 C81 1_555 1_555
C82 C27 1_555 1_555
C83 C28 1_555 1_555
C84 C29 1_555 1_555
C85 C31 1_555 1_555
C86 C30 1_555 1_555
C90 C35 1_555 1_555
C91 C37 1_555 1_555
C92 C36 1_555 1_555
H37 C82 1_555 1_555
H38 C83 1_555 1_555
H39 C84 1_555 1_555
H40 C85 1_555 1_555
H41 C86 1_555 1_555
H45 C90 1_555 1_555
H46 C91 1_555 1_555
H47 C92 1_555 1_555
C93 C9 1_555 1_555
C94 C61 1_555 1_555
C95 C62 1_555 1_555
C96 C63 1_555 1_555
C97 C64 1_555 1_555
C101 C68 1_555 1_555
C102 C69 1_555 1_555
C103 C70 1_555 1_555
C104 C8 1_555 1_555
C105 C93 1_555 1_555
C106 C95 1_555 1_555
C107 C95 1_555 1_555
C108 C96 1_555 1_555
C112 C101 1_555 1_555
C113 C101 1_555 1_555
C114 C102 1_555 1_555
C115 C9 1_555 1_555
C116 C50 1_555 1_555
C117 C51 1_555 1_555
C118 C52 1_555 1_555
C119 C53 1_555 1_555
C123 C57 1_555 1_555
C124 C58 1_555 1_555
C125 C59 1_555 1_555
C126 C115 1_555 1_555
C127 C116 1_555 1_555
C128 C117 1_555 1_555
C129 C118 1_555 1_555
C130 C119 1_555 1_555
C134 C123 1_555 1_555
C135 C124 1_555 1_555
C136 C125 1_555 1_555
H48 C126 1_555 1_555
H49 C127 1_555 1_555
H50 C128 1_555 1_555
H51 C129 1_555 1_555
H52 C130 1_555 1_555
H56 C134 1_555 1_555
H57 C135 1_555 1_555
H58 C136 1_555 1_555
H59 C126 1_555 1_555
H60 C127 1_555 1_555
H61 C128 1_555 1_555
H62 C129 1_555 1_555
H63 C130 1_555 1_555
H67 C134 1_555 1_555
H68 C135 1_555 1_555
H69 C136 1_555 1_555
C137 C126 1_555 1_555
C138 C127 1_555 1_555
C139 C128 1_555 1_555
C140 C129 1_555 1_555
C141 C130 1_555 1_555
C145 C134 1_555 1_555
C146 C135 1_555 1_555
C147 C136 1_555 1_555
H70 C137 1_555 1_555
H71 C138 1_555 1_555
H72 C139 1_555 1_555
H73 C140 1_555 1_555
H74 C141 1_555 1_555
H78 C145 1_555 1_555
H79 C146 1_555 1_555
H80 C147 1_555 1_555
H81 C137 1_555 1_555
H82 C138 1_555 1_555
H83 C139 1_555 1_555
H84 C140 1_555 1_555
H85 C141 1_555 1_555
H89 C145 1_555 1_555
H90 C146 1_555 1_555
H91 C147 1_555 1_555
H92 C137 1_555 1_555
H93 C138 1_555 1_555
H94 C139 1_555 1_555
H95 C140 1_555 1_555
H96 C141 1_555 1_555
H100 C145 1_555 1_555
H101 C146 1_555 1_555
H102 C147 1_555 1_555
C148 C115 1_555 1_555
C149 C116 1_555 1_555
C150 C117 1_555 1_555
C151 C118 1_555 1_555
C152 C119 1_555 1_555
C156 C123 1_555 1_555
C157 C124 1_555 1_555
C158 C125 1_555 1_555
H103 C148 1_555 1_555
H104 C149 1_555 1_555
H105 C150 1_555 1_555
H106 C151 1_555 1_555
H107 C152 1_555 1_555
H111 C156 1_555 1_555
H112 C157 1_555 1_555
H113 C158 1_555 1_555
H114 C148 1_555 1_555
H115 C149 1_555 1_555
H116 C150 1_555 1_555
H117 C151 1_555 1_555
H118 C152 1_555 1_555
H122 C156 1_555 1_555
H123 C157 1_555 1_555
H124 C158 1_555 1_555
C159 C148 1_555 1_555
C160 C149 1_555 1_555
C161 C150 1_555 1_555
C162 C151 1_555 1_555
C163 C152 1_555 1_555
C167 C156 1_555 1_555
C168 C157 1_555 1_555
C169 C158 1_555 1_555
H125 C159 1_555 1_555
H126 C160 1_555 1_555
H127 C161 1_555 1_555
H128 C162 1_555 1_555
H129 C163 1_555 1_555
H133 C167 1_555 1_555
H134 C168 1_555 1_555
H135 C169 1_555 1_555
H136 C159 1_555 1_555
H137 C160 1_555 1_555
H138 C161 1_555 1_555
H139 C162 1_555 1_555
H140 C163 1_555 1_555
H144 C167 1_555 1_555
H145 C168 1_555 1_555
H146 C169 1_555 1_555
H147 C159 1_555 1_555
H148 C160 1_555 1_555
H149 C161 1_555 1_555
H150 C162 1_555 1_555
H151 C163 1_555 1_555
H155 C167 1_555 1_555
H156 C168 1_555 1_555
H157 C169 1_555 1_555
O36_2 Cd2_2 1_555 1_555
O37_2 Cd4_2 1_555 1_555
O38_2 Cd3_2 1_555 1_555
C170_2 O37_2 1_555 1_555
C171_2 O36_2 1_555 1_555
C172_2 O38_2 1_555 1_555
H158_2 O37_2 1_555 1_555
H159_2 O36_2 1_555 1_555
H160_2 O38_2 1_555 1_555
O4_2 Cd2_2 1_555 1_555
C1 O23 1_555 1_555
C6 C7 1_555 1_555
C10 C104 1_555 1_555
Cd2_2 O22 1_555 1_555
Cd3_2 O23 1_555 1_555
Cd4_2 O27 1_555 1_555
Cd4_2 O28 1_555 1_555
Cd10 O30 1_555 1_555
Cd17 O34 1_555 1_555
O27 C19 1_555 1_555
O28 C24 1_555 1_555
C49 C115 1_555 1_555
C60 C93 1_555 1_555
C71 C82 1_555 1_555
C72 C83 1_555 1_555
C73 C84 1_555 1_555
C74 C85 1_555 1_555
C75 C86 1_555 1_555
C79 C90 1_555 1_555
C80 C91 1_555 1_555
C81 C92 1_555 1_555
C94 C104 1_555 1_555
C94 C105 1_555 1_555
C96 C106 1_555 1_555
C97 C107 1_555 1_555
C97 C108 1_555 1_555
C102 C112 1_555 1_555
C103 C113 1_555 1_555
C103 C114 1_555 1_555
C105 C116 1_555 1_555
C106 C117 1_555 1_555
C107 C118 1_555 1_555
C108 C119 1_555 1_555
C112 C123 1_555 1_555
C113 C124 1_555 1_555
C114 C125 1_555 1_555
C171_2 H165_2 1_555 1_555
C171_2 H166 1_555 1_555
C172_2 H168_2 1_555 1_555
C172_2 H169 1_555 1_555
C170_2 H171_2 1_555 1_555
C170_2 H172 1_555 1_555
C15_2 H177_2 1_555 1_555
C15_2 H178 1_555 1_555
O4_3 Cd16 1_555 1_555
O5_3 Cd16 1_555 1_555
C15_3 O5_3 1_555 1_555
H14_3 O5_3 1_555 1_555
Cd3_3 O4_3 1_555 1_555
Cd4_3 O4_3 1_555 1_555
O6_2 Cd16 1_555 1_555
O11_2 Cd4_3 1_555 1_555
O14_2 Cd3_3 1_555 1_555
O21_2 Cd16 1_555 1_555
O26_2 Cd15 1_555 1_555
O29_2 Cd3_3 1_555 1_555
O36_3 Cd15 1_555 1_555
O37_3 Cd4_3 1_555 1_555
O38_3 Cd3_3 1_555 1_555
C170_3 O37_3 1_555 1_555
C171_3 O36_3 1_555 1_555
C172_3 O38_3 1_555 1_555
H158_3 O37_3 1_555 1_555
H159_3 O36_3 1_555 1_555
H160_3 O38_3 1_555 1_555
O4_3 Cd15 1_555 1_555
Cd3_3 O21_2 1_555 1_555
Cd4_3 O26_2 1_555 1_555
Cd4_3 O29_2 1_555 1_555
C171_3 H164_2 1_555 1_555
C171_3 H165_3 1_555 1_555
C172_3 H167_2 1_555 1_555
C172_3 H168_3 1_555 1_555
C170_3 H170_2 1_555 1_555
C170_3 H171_3 1_555 1_555
C15_3 H176_2 1_555 1_555
C15_3 H177_3 1_555 1_555
Cd16_2 O2_2 1_555 1_555
O2_2 C1_2 1_555 1_555
O4_4 Cd16_2 1_555 1_555
C1_2 C2_2 1_555 1_555
C2_2 C3_2 1_555 1_555
C3_2 H1_2 1_555 1_555
C4_2 C3_2 1_555 1_555
C5_2 C4_2 1_555 1_555
C6_2 C5_2 1_555 1_555
H2_2 C6_2 1_555 1_555
C7_2 C2_2 1_555 1_555
H3_2 C7_2 1_555 1_555
C8_2 C5_2 1_555 1_555
C9_2 C8_2 1_555 1_555
C10_2 C4_2 1_555 1_555
C11_2 C10_2 1_555 1_555
H4_2 C11_2 1_555 1_555
H5_2 C11_2 1_555 1_555
C12_2 C11_2 1_555 1_555
H6_2 C12_2 1_555 1_555
H7_2 C12_2 1_555 1_555
H8_2 C12_2 1_555 1_555
C13_2 C10_2 1_555 1_555
H9_2 C13_2 1_555 1_555
H10_2 C13_2 1_555 1_555
C14_2 C13_2 1_555 1_555
H11_2 C14_2 1_555 1_555
H12_2 C14_2 1_555 1_555
H13_2 C14_2 1_555 1_555
O5_4 Cd16_2 1_555 1_555
C15_4 O5_4 1_555 1_555
H14_4 O5_4 1_555 1_555
Cd3_4 O4_4 1_555 1_555
Cd4_4 O4_4 1_555 1_555
Cd5_3 O7_2 1_555 1_555
Cd6_3 O24_2 1_555 1_555
Cd7_2 O8_2 1_555 1_555
Cd8_2 O25_2 1_555 1_555
Cd9_2 O15_2 1_555 1_555
Cd10_2 O20_2 1_555 1_555
Cd11_3 O16_2 1_555 1_555
Cd12_3 O31_2 1_555 1_555
Cd17_2 O19_2 1_555 1_555
Cd18_2 O35_2 1_555 1_555
O7_2 C17_2 1_555 1_555
O8_2 C18_2 1_555 1_555
O9_2 Cd15_2 1_555 1_555
O12_2 Cd4_4 1_555 1_555
O13_2 Cd3_4 1_555 1_555
O15_2 C20_2 1_555 1_555
O16_2 C21_2 1_555 1_555
O19_2 C25_2 1_555 1_555
O20_2 C26_2 1_555 1_555
O22_2 Cd16_2 1_555 1_555
O23_2 Cd16_2 1_555 1_555
O24_2 Cd5_3 1_555 1_555
O25_2 Cd7_2 1_555 1_555
O27_2 Cd15_2 1_555 1_555
O28_2 Cd3_4 1_555 1_555
O30_2 Cd9_2 1_555 1_555
O31_2 Cd11_3 1_555 1_555
O34_2 Cd7_2 1_555 1_555
O35_2 Cd10_2 1_555 1_555
C17_2 O24_2 1_555 1_555
C18_2 O25_2 1_555 1_555
C19_2 O12_2 1_555 1_555
C20_2 O30_2 1_555 1_555
C21_2 O31_2 1_555 1_555
C24_2 O13_2 1_555 1_555
C25_2 O34_2 1_555 1_555
C26_2 O35_2 1_555 1_555
C27_2 C17_2 1_555 1_555
C28_2 C18_2 1_555 1_555
C29_2 C19_2 1_555 1_555
C30_2 C20_2 1_555 1_555
C31_2 C21_2 1_555 1_555
C35_2 C24_2 1_555 1_555
C36_2 C25_2 1_555 1_555
C37_2 C26_2 1_555 1_555
C38_2 C27_2 1_555 1_555
C39_2 C28_2 1_555 1_555
C40_2 C29_2 1_555 1_555
C41_2 C30_2 1_555 1_555
C42_2 C31_2 1_555 1_555
C46_2 C35_2 1_555 1_555
C47_2 C36_2 1_555 1_555
C48_2 C37_2 1_555 1_555
H15_2 C38_2 1_555 1_555
H16_2 C39_2 1_555 1_555
H17_2 C40_2 1_555 1_555
H18_2 C41_2 1_555 1_555
H19_2 C42_2 1_555 1_555
H23_2 C46_2 1_555 1_555
H24_2 C47_2 1_555 1_555
H25_2 C48_2 1_555 1_555
C49_2 C38_2 1_555 1_555
C50_2 C39_2 1_555 1_555
C51_2 C40_2 1_555 1_555
C52_2 C41_2 1_555 1_555
C53_2 C42_2 1_555 1_555
C57_2 C46_2 1_555 1_555
C58_2 C47_2 1_555 1_555
C59_2 C48_2 1_555 1_555
C60_2 C49_2 1_555 1_555
C61_2 C50_2 1_555 1_555
C62_2 C51_2 1_555 1_555
C63_2 C53_2 1_555 1_555
C64_2 C52_2 1_555 1_555
C68_2 C57_2 1_555 1_555
C69_2 C59_2 1_555 1_555
C70_2 C58_2 1_555 1_555
C71_2 C60_2 1_555 1_555
C72_2 C61_2 1_555 1_555
C73_2 C62_2 1_555 1_555
C74_2 C63_2 1_555 1_555
C75_2 C64_2 1_555 1_555
C79_2 C68_2 1_555 1_555
C80_2 C69_2 1_555 1_555
C81_2 C70_2 1_555 1_555
H26_2 C71_2 1_555 1_555
H27_2 C72_2 1_555 1_555
H28_2 C73_2 1_555 1_555
H29_2 C74_2 1_555 1_555
H30_2 C75_2 1_555 1_555
H34_2 C79_2 1_555 1_555
H35_2 C80_2 1_555 1_555
H36_2 C81_2 1_555 1_555
C82_2 C27_2 1_555 1_555
C83_2 C28_2 1_555 1_555
C84_2 C29_2 1_555 1_555
C85_2 C31_2 1_555 1_555
C86_2 C30_2 1_555 1_555
C90_2 C35_2 1_555 1_555
C91_2 C37_2 1_555 1_555
C92_2 C36_2 1_555 1_555
H37_2 C82_2 1_555 1_555
H38_2 C83_2 1_555 1_555
H39_2 C84_2 1_555 1_555
H40_2 C85_2 1_555 1_555
H41_2 C86_2 1_555 1_555
H45_2 C90_2 1_555 1_555
H46_2 C91_2 1_555 1_555
H47_2 C92_2 1_555 1_555
C93_2 C9_2 1_555 1_555
C94_2 C61_2 1_555 1_555
C95_2 C62_2 1_555 1_555
C96_2 C63_2 1_555 1_555
C97_2 C64_2 1_555 1_555
C101_2 C68_2 1_555 1_555
C102_2 C69_2 1_555 1_555
C103_2 C70_2 1_555 1_555
C104_2 C8_2 1_555 1_555
C105_2 C93_2 1_555 1_555
C106_2 C95_2 1_555 1_555
C107_2 C95_2 1_555 1_555
C108_2 C96_2 1_555 1_555
C112_2 C101_2 1_555 1_555
C113_2 C101_2 1_555 1_555
C114_2 C102_2 1_555 1_555
C115_2 C9_2 1_555 1_555
C116_2 C50_2 1_555 1_555
C117_2 C51_2 1_555 1_555
C118_2 C52_2 1_555 1_555
C119_2 C53_2 1_555 1_555
C123_2 C57_2 1_555 1_555
C124_2 C58_2 1_555 1_555
C125_2 C59_2 1_555 1_555
C126_2 C115_2 1_555 1_555
C127_2 C116_2 1_555 1_555
C128_2 C117_2 1_555 1_555
C129_2 C118_2 1_555 1_555
C130_2 C119_2 1_555 1_555
C134_2 C123_2 1_555 1_555
C135_2 C124_2 1_555 1_555
C136_2 C125_2 1_555 1_555
H48_2 C126_2 1_555 1_555
H49_2 C127_2 1_555 1_555
H50_2 C128_2 1_555 1_555
H51_2 C129_2 1_555 1_555
H52_2 C130_2 1_555 1_555
H56_2 C134_2 1_555 1_555
H57_2 C135_2 1_555 1_555
H58_2 C136_2 1_555 1_555
H59_2 C126_2 1_555 1_555
H60_2 C127_2 1_555 1_555
H61_2 C128_2 1_555 1_555
H62_2 C129_2 1_555 1_555
H63_2 C130_2 1_555 1_555
H67_2 C134_2 1_555 1_555
H68_2 C135_2 1_555 1_555
H69_2 C136_2 1_555 1_555
C137_2 C126_2 1_555 1_555
C138_2 C127_2 1_555 1_555
C139_2 C128_2 1_555 1_555
C140_2 C129_2 1_555 1_555
C141_2 C130_2 1_555 1_555
C145_2 C134_2 1_555 1_555
C146_2 C135_2 1_555 1_555
C147_2 C136_2 1_555 1_555
H70_2 C137_2 1_555 1_555
H71_2 C138_2 1_555 1_555
H72_2 C139_2 1_555 1_555
H73_2 C140_2 1_555 1_555
H74_2 C141_2 1_555 1_555
H78_2 C145_2 1_555 1_555
H79_2 C146_2 1_555 1_555
H80_2 C147_2 1_555 1_555
H81_2 C137_2 1_555 1_555
H82_2 C138_2 1_555 1_555
H83_2 C139_2 1_555 1_555
H84_2 C140_2 1_555 1_555
H85_2 C141_2 1_555 1_555
H89_2 C145_2 1_555 1_555
H90_2 C146_2 1_555 1_555
H91_2 C147_2 1_555 1_555
H92_2 C137_2 1_555 1_555
H93_2 C138_2 1_555 1_555
H94_2 C139_2 1_555 1_555
H95_2 C140_2 1_555 1_555
H96_2 C141_2 1_555 1_555
H100_2 C145_2 1_555 1_555
H101_2 C146_2 1_555 1_555
H102_2 C147_2 1_555 1_555
C148_2 C115_2 1_555 1_555
C149_2 C116_2 1_555 1_555
C150_2 C117_2 1_555 1_555
C151_2 C118_2 1_555 1_555
C152_2 C119_2 1_555 1_555
C156_2 C123_2 1_555 1_555
C157_2 C124_2 1_555 1_555
C158_2 C125_2 1_555 1_555
H103_2 C148_2 1_555 1_555
H104_2 C149_2 1_555 1_555
H105_2 C150_2 1_555 1_555
H106_2 C151_2 1_555 1_555
H107_2 C152_2 1_555 1_555
H111_2 C156_2 1_555 1_555
H112_2 C157_2 1_555 1_555
H113_2 C158_2 1_555 1_555
H114_2 C148_2 1_555 1_555
H115_2 C149_2 1_555 1_555
H116_2 C150_2 1_555 1_555
H117_2 C151_2 1_555 1_555
H118_2 C152_2 1_555 1_555
H122_2 C156_2 1_555 1_555
H123_2 C157_2 1_555 1_555
H124_2 C158_2 1_555 1_555
C159_2 C148_2 1_555 1_555
C160_2 C149_2 1_555 1_555
C161_2 C150_2 1_555 1_555
C162_2 C151_2 1_555 1_555
C163_2 C152_2 1_555 1_555
C167_2 C156_2 1_555 1_555
C168_2 C157_2 1_555 1_555
C169_2 C158_2 1_555 1_555
H125_2 C159_2 1_555 1_555
H126_2 C160_2 1_555 1_555
H127_2 C161_2 1_555 1_555
H128_2 C162_2 1_555 1_555
H129_2 C163_2 1_555 1_555
H133_2 C167_2 1_555 1_555
H134_2 C168_2 1_555 1_555
H135_2 C169_2 1_555 1_555
H136_2 C159_2 1_555 1_555
H137_2 C160_2 1_555 1_555
H138_2 C161_2 1_555 1_555
H139_2 C162_2 1_555 1_555
H140_2 C163_2 1_555 1_555
H144_2 C167_2 1_555 1_555
H145_2 C168_2 1_555 1_555
H146_2 C169_2 1_555 1_555
H147_2 C159_2 1_555 1_555
H148_2 C160_2 1_555 1_555
H149_2 C161_2 1_555 1_555
H150_2 C162_2 1_555 1_555
H151_2 C163_2 1_555 1_555
H155_2 C167_2 1_555 1_555
H156_2 C168_2 1_555 1_555
H157_2 C169_2 1_555 1_555
O36_4 Cd15_2 1_555 1_555
O37_4 Cd4_4 1_555 1_555
O38_4 Cd3_4 1_555 1_555
C170_4 O37_4 1_555 1_555
C171_4 O36_4 1_555 1_555
C172_4 O38_4 1_555 1_555
H158_4 O37_4 1_555 1_555
H159_4 O36_4 1_555 1_555
H160_4 O38_4 1_555 1_555
O4_4 Cd15_2 1_555 1_555
C1_2 O23_2 1_555 1_555
C6_2 C7_2 1_555 1_555
C10_2 C104_2 1_555 1_555
Cd15_2 O22_2 1_555 1_555
Cd3_4 O23_2 1_555 1_555
Cd4_4 O27_2 1_555 1_555
Cd4_4 O28_2 1_555 1_555
Cd10_2 O30_2 1_555 1_555
Cd17_2 O34_2 1_555 1_555
O27_2 C19_2 1_555 1_555
O28_2 C24_2 1_555 1_555
C49_2 C115_2 1_555 1_555
C60_2 C93_2 1_555 1_555
C71_2 C82_2 1_555 1_555
C72_2 C83_2 1_555 1_555
C73_2 C84_2 1_555 1_555
C74_2 C85_2 1_555 1_555
C75_2 C86_2 1_555 1_555
C79_2 C90_2 1_555 1_555
C80_2 C91_2 1_555 1_555
C81_2 C92_2 1_555 1_555
C94_2 C104_2 1_555 1_555
C94_2 C105_2 1_555 1_555
C96_2 C106_2 1_555 1_555
C97_2 C107_2 1_555 1_555
C97_2 C108_2 1_555 1_555
C102_2 C112_2 1_555 1_555
C103_2 C113_2 1_555 1_555
C103_2 C114_2 1_555 1_555
C105_2 C116_2 1_555 1_555
C106_2 C117_2 1_555 1_555
C107_2 C118_2 1_555 1_555
C108_2 C119_2 1_555 1_555
C112_2 C123_2 1_555 1_555
C113_2 C124_2 1_555 1_555
C114_2 C125_2 1_555 1_555
C171_4 H165_4 1_555 1_555
C171_4 H166_2 1_555 1_555
C172_4 H168_4 1_555 1_555
C172_4 H169_2 1_555 1_555
C170_4 H171_4 1_555 1_555
C170_4 H172_2 1_555 1_555
C15_4 H177_4 1_555 1_555
C15_4 H178_2 1_555 1_555
O4_5 Cd14 1_555 1_555
O5_5 Cd14 1_555 1_555
C15_5 O5_5 1_555 1_555
H14_5 O5_5 1_555 1_555
Cd3_5 O4_5 1_555 1_555
Cd4_5 O4_5 1_555 1_555
O6_3 Cd14 1_555 1_555
O11_3 Cd4_5 1_555 1_555
O14_3 Cd3_5 1_555 1_555
O21_3 Cd14 1_555 1_555
O26_3 Cd13 1_555 1_555
O29_3 Cd3_5 1_555 1_555
O36_5 Cd13 1_555 1_555
O37_5 Cd4_5 1_555 1_555
O38_5 Cd3_5 1_555 1_555
C170_5 O37_5 1_555 1_555
C171_5 O36_5 1_555 1_555
C172_5 O38_5 1_555 1_555
H158_5 O37_5 1_555 1_555
H159_5 O36_5 1_555 1_555
H160_5 O38_5 1_555 1_555
O4_5 Cd13 1_555 1_555
Cd3_5 O21_3 1_555 1_555
Cd4_5 O26_3 1_555 1_555
Cd4_5 O29_3 1_555 1_555
C171_5 H164_3 1_555 1_555
C171_5 H165_5 1_555 1_555
C172_5 H167_3 1_555 1_555
C172_5 H168_5 1_555 1_555
C170_5 H170_3 1_555 1_555
C170_5 H171_5 1_555 1_555
C15_5 H176_3 1_555 1_555
C15_5 H177_5 1_555 1_555
Cd14_2 O2_3 1_555 1_555
O2_3 C1_3 1_555 1_555
O4_6 Cd14_2 1_555 1_555
C1_3 C2_3 1_555 1_555
C2_3 C3_3 1_555 1_555
C3_3 H1_3 1_555 1_555
C4_3 C3_3 1_555 1_555
C5_3 C4_3 1_555 1_555
C6_3 C5_3 1_555 1_555
H2_3 C6_3 1_555 1_555
C7_3 C2_3 1_555 1_555
H3_3 C7_3 1_555 1_555
C8_3 C5_3 1_555 1_555
C9_3 C8_3 1_555 1_555
C10_3 C4_3 1_555 1_555
C11_3 C10_3 1_555 1_555
H4_3 C11_3 1_555 1_555
H5_3 C11_3 1_555 1_555
C12_3 C11_3 1_555 1_555
H6_3 C12_3 1_555 1_555
H7_3 C12_3 1_555 1_555
H8_3 C12_3 1_555 1_555
C13_3 C10_3 1_555 1_555
H9_3 C13_3 1_555 1_555
H10_3 C13_3 1_555 1_555
C14_3 C13_3 1_555 1_555
H11_3 C14_3 1_555 1_555
H12_3 C14_3 1_555 1_555
H13_3 C14_3 1_555 1_555
O5_6 Cd14_2 1_555 1_555
C15_6 O5_6 1_555 1_555
H14_6 O5_6 1_555 1_555
Cd3_6 O4_6 1_555 1_555
Cd4_6 O4_6 1_555 1_555
Cd5_5 O7_3 1_555 1_555
Cd6_5 O24_3 1_555 1_555
Cd7_3 O8_3 1_555 1_555
Cd8_3 O25_3 1_555 1_555
Cd9_3 O15_3 1_555 1_555
Cd10_3 O20_3 1_555 1_555
Cd11_5 O16_3 1_555 1_555
Cd12_5 O31_3 1_555 1_555
Cd17_3 O19_3 1_555 1_555
Cd18_3 O35_3 1_555 1_555
O7_3 C17_3 1_555 1_555
O8_3 C18_3 1_555 1_555
O9_3 Cd13_2 1_555 1_555
O12_3 Cd4_6 1_555 1_555
O13_3 Cd3_6 1_555 1_555
O15_3 C20_3 1_555 1_555
O16_3 C21_3 1_555 1_555
O19_3 C25_3 1_555 1_555
O20_3 C26_3 1_555 1_555
O22_3 Cd14_2 1_555 1_555
O23_3 Cd14_2 1_555 1_555
O24_3 Cd5_5 1_555 1_555
O25_3 Cd7_3 1_555 1_555
O27_3 Cd13_2 1_555 1_555
O28_3 Cd3_6 1_555 1_555
O30_3 Cd9_3 1_555 1_555
O31_3 Cd11_5 1_555 1_555
O34_3 Cd7_3 1_555 1_555
O35_3 Cd10_3 1_555 1_555
C17_3 O24_3 1_555 1_555
C18_3 O25_3 1_555 1_555
C19_3 O12_3 1_555 1_555
C20_3 O30_3 1_555 1_555
C21_3 O31_3 1_555 1_555
C24_3 O13_3 1_555 1_555
C25_3 O34_3 1_555 1_555
C26_3 O35_3 1_555 1_555
C27_3 C17_3 1_555 1_555
C28_3 C18_3 1_555 1_555
C29_3 C19_3 1_555 1_555
C30_3 C20_3 1_555 1_555
C31_3 C21_3 1_555 1_555
C35_3 C24_3 1_555 1_555
C36_3 C25_3 1_555 1_555
C37_3 C26_3 1_555 1_555
C38_3 C27_3 1_555 1_555
C39_3 C28_3 1_555 1_555
C40_3 C29_3 1_555 1_555
C41_3 C30_3 1_555 1_555
C42_3 C31_3 1_555 1_555
C46_3 C35_3 1_555 1_555
C47_3 C36_3 1_555 1_555
C48_3 C37_3 1_555 1_555
H15_3 C38_3 1_555 1_555
H16_3 C39_3 1_555 1_555
H17_3 C40_3 1_555 1_555
H18_3 C41_3 1_555 1_555
H19_3 C42_3 1_555 1_555
H23_3 C46_3 1_555 1_555
H24_3 C47_3 1_555 1_555
H25_3 C48_3 1_555 1_555
C49_3 C38_3 1_555 1_555
C50_3 C39_3 1_555 1_555
C51_3 C40_3 1_555 1_555
C52_3 C41_3 1_555 1_555
C53_3 C42_3 1_555 1_555
C57_3 C46_3 1_555 1_555
C58_3 C47_3 1_555 1_555
C59_3 C48_3 1_555 1_555
C60_3 C49_3 1_555 1_555
C61_3 C50_3 1_555 1_555
C62_3 C51_3 1_555 1_555
C63_3 C53_3 1_555 1_555
C64_3 C52_3 1_555 1_555
C68_3 C57_3 1_555 1_555
C69_3 C59_3 1_555 1_555
C70_3 C58_3 1_555 1_555
C71_3 C60_3 1_555 1_555
C72_3 C61_3 1_555 1_555
C73_3 C62_3 1_555 1_555
C74_3 C63_3 1_555 1_555
C75_3 C64_3 1_555 1_555
C79_3 C68_3 1_555 1_555
C80_3 C69_3 1_555 1_555
C81_3 C70_3 1_555 1_555
H26_3 C71_3 1_555 1_555
H27_3 C72_3 1_555 1_555
H28_3 C73_3 1_555 1_555
H29_3 C74_3 1_555 1_555
H30_3 C75_3 1_555 1_555
H34_3 C79_3 1_555 1_555
H35_3 C80_3 1_555 1_555
H36_3 C81_3 1_555 1_555
C82_3 C27_3 1_555 1_555
C83_3 C28_3 1_555 1_555
C84_3 C29_3 1_555 1_555
C85_3 C31_3 1_555 1_555
C86_3 C30_3 1_555 1_555
C90_3 C35_3 1_555 1_555
C91_3 C37_3 1_555 1_555
C92_3 C36_3 1_555 1_555
H37_3 C82_3 1_555 1_555
H38_3 C83_3 1_555 1_555
H39_3 C84_3 1_555 1_555
H40_3 C85_3 1_555 1_555
H41_3 C86_3 1_555 1_555
H45_3 C90_3 1_555 1_555
H46_3 C91_3 1_555 1_555
H47_3 C92_3 1_555 1_555
C93_3 C9_3 1_555 1_555
C94_3 C61_3 1_555 1_555
C95_3 C62_3 1_555 1_555
C96_3 C63_3 1_555 1_555
C97_3 C64_3 1_555 1_555
C101_3 C68_3 1_555 1_555
C102_3 C69_3 1_555 1_555
C103_3 C70_3 1_555 1_555
C104_3 C8_3 1_555 1_555
C105_3 C93_3 1_555 1_555
C106_3 C95_3 1_555 1_555
C107_3 C95_3 1_555 1_555
C108_3 C96_3 1_555 1_555
C112_3 C101_3 1_555 1_555
C113_3 C101_3 1_555 1_555
C114_3 C102_3 1_555 1_555
C115_3 C9_3 1_555 1_555
C116_3 C50_3 1_555 1_555
C117_3 C51_3 1_555 1_555
C118_3 C52_3 1_555 1_555
C119_3 C53_3 1_555 1_555
C123_3 C57_3 1_555 1_555
C124_3 C58_3 1_555 1_555
C125_3 C59_3 1_555 1_555
C126_3 C115_3 1_555 1_555
C127_3 C116_3 1_555 1_555
C128_3 C117_3 1_555 1_555
C129_3 C118_3 1_555 1_555
C130_3 C119_3 1_555 1_555
C134_3 C123_3 1_555 1_555
C135_3 C124_3 1_555 1_555
C136_3 C125_3 1_555 1_555
H48_3 C126_3 1_555 1_555
H49_3 C127_3 1_555 1_555
H50_3 C128_3 1_555 1_555
H51_3 C129_3 1_555 1_555
H52_3 C130_3 1_555 1_555
H56_3 C134_3 1_555 1_555
H57_3 C135_3 1_555 1_555
H58_3 C136_3 1_555 1_555
H59_3 C126_3 1_555 1_555
H60_3 C127_3 1_555 1_555
H61_3 C128_3 1_555 1_555
H62_3 C129_3 1_555 1_555
H63_3 C130_3 1_555 1_555
H67_3 C134_3 1_555 1_555
H68_3 C135_3 1_555 1_555
H69_3 C136_3 1_555 1_555
C137_3 C126_3 1_555 1_555
C138_3 C127_3 1_555 1_555
C139_3 C128_3 1_555 1_555
C140_3 C129_3 1_555 1_555
C141_3 C130_3 1_555 1_555
C145_3 C134_3 1_555 1_555
C146_3 C135_3 1_555 1_555
C147_3 C136_3 1_555 1_555
H70_3 C137_3 1_555 1_555
H71_3 C138_3 1_555 1_555
H72_3 C139_3 1_555 1_555
H73_3 C140_3 1_555 1_555
H74_3 C141_3 1_555 1_555
H78_3 C145_3 1_555 1_555
H79_3 C146_3 1_555 1_555
H80_3 C147_3 1_555 1_555
H81_3 C137_3 1_555 1_555
H82_3 C138_3 1_555 1_555
H83_3 C139_3 1_555 1_555
H84_3 C140_3 1_555 1_555
H85_3 C141_3 1_555 1_555
H89_3 C145_3 1_555 1_555
H90_3 C146_3 1_555 1_555
H91_3 C147_3 1_555 1_555
H92_3 C137_3 1_555 1_555
H93_3 C138_3 1_555 1_555
H94_3 C139_3 1_555 1_555
H95_3 C140_3 1_555 1_555
H96_3 C141_3 1_555 1_555
H100_3 C145_3 1_555 1_555
H101_3 C146_3 1_555 1_555
H102_3 C147_3 1_555 1_555
C148_3 C115_3 1_555 1_555
C149_3 C116_3 1_555 1_555
C150_3 C117_3 1_555 1_555
C151_3 C118_3 1_555 1_555
C152_3 C119_3 1_555 1_555
C156_3 C123_3 1_555 1_555
C157_3 C124_3 1_555 1_555
C158_3 C125_3 1_555 1_555
H103_3 C148_3 1_555 1_555
H104_3 C149_3 1_555 1_555
H105_3 C150_3 1_555 1_555
H106_3 C151_3 1_555 1_555
H107_3 C152_3 1_555 1_555
H111_3 C156_3 1_555 1_555
H112_3 C157_3 1_555 1_555
H113_3 C158_3 1_555 1_555
H114_3 C148_3 1_555 1_555
H115_3 C149_3 1_555 1_555
H116_3 C150_3 1_555 1_555
H117_3 C151_3 1_555 1_555
H118_3 C152_3 1_555 1_555
H122_3 C156_3 1_555 1_555
H123_3 C157_3 1_555 1_555
H124_3 C158_3 1_555 1_555
C159_3 C148_3 1_555 1_555
C160_3 C149_3 1_555 1_555
C161_3 C150_3 1_555 1_555
C162_3 C151_3 1_555 1_555
C163_3 C152_3 1_555 1_555
C167_3 C156_3 1_555 1_555
C168_3 C157_3 1_555 1_555
C169_3 C158_3 1_555 1_555
H125_3 C159_3 1_555 1_555
H126_3 C160_3 1_555 1_555
H127_3 C161_3 1_555 1_555
H128_3 C162_3 1_555 1_555
H129_3 C163_3 1_555 1_555
H133_3 C167_3 1_555 1_555
H134_3 C168_3 1_555 1_555
H135_3 C169_3 1_555 1_555
H136_3 C159_3 1_555 1_555
H137_3 C160_3 1_555 1_555
H138_3 C161_3 1_555 1_555
H139_3 C162_3 1_555 1_555
H140_3 C163_3 1_555 1_555
H144_3 C167_3 1_555 1_555
H145_3 C168_3 1_555 1_555
H146_3 C169_3 1_555 1_555
H147_3 C159_3 1_555 1_555
H148_3 C160_3 1_555 1_555
H149_3 C161_3 1_555 1_555
H150_3 C162_3 1_555 1_555
H151_3 C163_3 1_555 1_555
H155_3 C167_3 1_555 1_555
H156_3 C168_3 1_555 1_555
H157_3 C169_3 1_555 1_555
O36_6 Cd13_2 1_555 1_555
O37_6 Cd4_6 1_555 1_555
O38_6 Cd3_6 1_555 1_555
C170_6 O37_6 1_555 1_555
C171_6 O36_6 1_555 1_555
C172_6 O38_6 1_555 1_555
H158_6 O37_6 1_555 1_555
H159_6 O36_6 1_555 1_555
H160_6 O38_6 1_555 1_555
O4_6 Cd13_2 1_555 1_555
C1_3 O23_3 1_555 1_555
C6_3 C7_3 1_555 1_555
C10_3 C104_3 1_555 1_555
Cd13_2 O22_3 1_555 1_555
Cd3_6 O23_3 1_555 1_555
Cd4_6 O27_3 1_555 1_555
Cd4_6 O28_3 1_555 1_555
Cd10_3 O30_3 1_555 1_555
Cd17_3 O34_3 1_555 1_555
O27_3 C19_3 1_555 1_555
O28_3 C24_3 1_555 1_555
C49_3 C115_3 1_555 1_555
C60_3 C93_3 1_555 1_555
C71_3 C82_3 1_555 1_555
C72_3 C83_3 1_555 1_555
C73_3 C84_3 1_555 1_555
C74_3 C85_3 1_555 1_555
C75_3 C86_3 1_555 1_555
C79_3 C90_3 1_555 1_555
C80_3 C91_3 1_555 1_555
C81_3 C92_3 1_555 1_555
C94_3 C104_3 1_555 1_555
C94_3 C105_3 1_555 1_555
C96_3 C106_3 1_555 1_555
C97_3 C107_3 1_555 1_555
C97_3 C108_3 1_555 1_555
C102_3 C112_3 1_555 1_555
C103_3 C113_3 1_555 1_555
C103_3 C114_3 1_555 1_555
C105_3 C116_3 1_555 1_555
C106_3 C117_3 1_555 1_555
C107_3 C118_3 1_555 1_555
C108_3 C119_3 1_555 1_555
C112_3 C123_3 1_555 1_555
C113_3 C124_3 1_555 1_555
C114_3 C125_3 1_555 1_555
C171_6 H165_6 1_555 1_555
C171_6 H166_3 1_555 1_555
C172_6 H168_6 1_555 1_555
C172_6 H169_3 1_555 1_555
C170_6 H171_6 1_555 1_555
C170_6 H172_3 1_555 1_555
C15_6 H177_6 1_555 1_555
C15_6 H178_3 1_555 1_555
Cd1_3 O2_4 1_555 1_555
O2_4 C1_4 1_555 1_555
O3_2 Cd1_3 1_555 1_555
O4_7 Cd1_3 1_555 1_555
C1_4 C2_4 1_555 1_555
C2_4 C3_4 1_555 1_555
C3_4 H1_4 1_555 1_555
C4_4 C3_4 1_555 1_555
C5_4 C4_4 1_555 1_555
C6_4 C5_4 1_555 1_555
H2_4 C6_4 1_555 1_555
C7_4 C2_4 1_555 1_555
H3_4 C7_4 1_555 1_555
C8_4 C5_4 1_555 1_555
C9_4 C8_4 1_555 1_555
C10_4 C4_4 1_555 1_555
C11_4 C10_4 1_555 1_555
H4_4 C11_4 1_555 1_555
H5_4 C11_4 1_555 1_555
C12_4 C11_4 1_555 1_555
H6_4 C12_4 1_555 1_555
H7_4 C12_4 1_555 1_555
H8_4 C12_4 1_555 1_555
C13_4 C10_4 1_555 1_555
H9_4 C13_4 1_555 1_555
H10_4 C13_4 1_555 1_555
C14_4 C13_4 1_555 1_555
H11_4 C14_4 1_555 1_555
H12_4 C14_4 1_555 1_555
H13_4 C14_4 1_555 1_555
O5_7 Cd1_3 1_555 1_555
C15_7 O5_7 1_555 1_555
H14_7 O5_7 1_555 1_555
Cd18 O3_2 1_555 1_555
Cd9 O4_7 1_555 1_555
Cd10 O4_7 1_555 1_555
Cd5_7 O7_4 1_555 1_555
Cd6_7 O24_4 1_555 1_555
Cd12 O8_4 1_555 1_555
Cd8_4 O25_4 1_555 1_555
Cd13_3 O17_2 1_555 1_555
Cd14_3 O32_2 1_555 1_555
Cd15_3 O18_2 1_555 1_555
Cd17_2 O33_2 1_555 1_555
O6_4 Cd1_3 1_555 1_555
O7_4 C17_4 1_555 1_555
O8_4 C18_4 1_555 1_555
O9_4 Cd18 1_555 1_555
O10_2 Cd18 1_555 1_555
O11_4 Cd10 1_555 1_555
O14_4 Cd9 1_555 1_555
O17_2 C22_2 1_555 1_555
O18_2 C23_2 1_555 1_555
O21_4 Cd1_3 1_555 1_555
O22_4 Cd1_3 1_555 1_555
O23_4 Cd1_3 1_555 1_555
O24_4 Cd5_7 1_555 1_555
O25_4 Cd12 1_555 1_555
O26_4 Cd18 1_555 1_555
O29_4 Cd9 1_555 1_555
O32_2 Cd13_3 1_555 1_555
O33_2 Cd15_3 1_555 1_555
C16_2 O3_2 1_555 1_555
C17_4 O24_4 1_555 1_555
C18_4 O25_4 1_555 1_555
C22_2 O32_2 1_555 1_555
C23_2 O33_2 1_555 1_555
C27_4 C17_4 1_555 1_555
C28_4 C18_4 1_555 1_555
C32_2 C16_2 1_555 1_555
C33_2 C22_2 1_555 1_555
C34_2 C23_2 1_555 1_555
C38_4 C27_4 1_555 1_555
C39_4 C28_4 1_555 1_555
C43_2 C32_2 1_555 1_555
C44_2 C33_2 1_555 1_555
C45_2 C34_2 1_555 1_555
H15_4 C38_4 1_555 1_555
H16_4 C39_4 1_555 1_555
H20_2 C43_2 1_555 1_555
H21_2 C44_2 1_555 1_555
H22_2 C45_2 1_555 1_555
C49_4 C38_4 1_555 1_555
C50_4 C39_4 1_555 1_555
C54_2 C43_2 1_555 1_555
C55_2 C44_2 1_555 1_555
C56_2 C45_2 1_555 1_555
C60_4 C49_4 1_555 1_555
C61_4 C50_4 1_555 1_555
C65_2 C54_2 1_555 1_555
C66_2 C56_2 1_555 1_555
C67_2 C55_2 1_555 1_555
C71_4 C60_4 1_555 1_555
C72_4 C61_4 1_555 1_555
C76_2 C65_2 1_555 1_555
C77_2 C66_2 1_555 1_555
C78_2 C67_2 1_555 1_555
H26_4 C71_4 1_555 1_555
H27_4 C72_4 1_555 1_555
H31_2 C76_2 1_555 1_555
H32_2 C77_2 1_555 1_555
H33_2 C78_2 1_555 1_555
C82_4 C27_4 1_555 1_555
C83_4 C28_4 1_555 1_555
C87_2 C32_2 1_555 1_555
C88_2 C34_2 1_555 1_555
C89_2 C33_2 1_555 1_555
H37_4 C82_4 1_555 1_555
H38_4 C83_4 1_555 1_555
H42_2 C87_2 1_555 1_555
H43_2 C88_2 1_555 1_555
H44_2 C89_2 1_555 1_555
C93_4 C9_4 1_555 1_555
C94_4 C61_4 1_555 1_555
C98_2 C65_2 1_555 1_555
C99_2 C66_2 1_555 1_555
C100_2 C67_2 1_555 1_555
C104_4 C8_4 1_555 1_555
C105_4 C93_4 1_555 1_555
C109_2 C98_2 1_555 1_555
C110_2 C98_2 1_555 1_555
C111_2 C99_2 1_555 1_555
C115_4 C9_4 1_555 1_555
C116_4 C50_4 1_555 1_555
C120_2 C54_2 1_555 1_555
C121_2 C55_2 1_555 1_555
C122_2 C56_2 1_555 1_555
C126_4 C115_4 1_555 1_555
C127_4 C116_4 1_555 1_555
C131_2 C120_2 1_555 1_555
C132_2 C121_2 1_555 1_555
C133_2 C122_2 1_555 1_555
H48_4 C126_4 1_555 1_555
H49_4 C127_4 1_555 1_555
H53_2 C131_2 1_555 1_555
H54_2 C132_2 1_555 1_555
H55_2 C133_2 1_555 1_555
H59_4 C126_4 1_555 1_555
H60_4 C127_4 1_555 1_555
H64_2 C131_2 1_555 1_555
H65_2 C132_2 1_555 1_555
H66_2 C133_2 1_555 1_555
C137_4 C126_4 1_555 1_555
C138_4 C127_4 1_555 1_555
C142_2 C131_2 1_555 1_555
C143_2 C132_2 1_555 1_555
C144_2 C133_2 1_555 1_555
H70_4 C137_4 1_555 1_555
H71_4 C138_4 1_555 1_555
H75_2 C142_2 1_555 1_555
H76_2 C143_2 1_555 1_555
H77_2 C144_2 1_555 1_555
H81_4 C137_4 1_555 1_555
H82_4 C138_4 1_555 1_555
H86_2 C142_2 1_555 1_555
H87_2 C143_2 1_555 1_555
H88_2 C144_2 1_555 1_555
H92_4 C137_4 1_555 1_555
H93_4 C138_4 1_555 1_555
H97_2 C142_2 1_555 1_555
H98_2 C143_2 1_555 1_555
H99_2 C144_2 1_555 1_555
C148_4 C115_4 1_555 1_555
C149_4 C116_4 1_555 1_555
C153_2 C120_2 1_555 1_555
C154_2 C121_2 1_555 1_555
C155_2 C122_2 1_555 1_555
H103_4 C148_4 1_555 1_555
H104_4 C149_4 1_555 1_555
H108_2 C153_2 1_555 1_555
H109_2 C154_2 1_555 1_555
H110_2 C155_2 1_555 1_555
H114_4 C148_4 1_555 1_555
H115_4 C149_4 1_555 1_555
H119_2 C153_2 1_555 1_555
H120_2 C154_2 1_555 1_555
H121_2 C155_2 1_555 1_555
C159_4 C148_4 1_555 1_555
C160_4 C149_4 1_555 1_555
C164_2 C153_2 1_555 1_555
C165_2 C154_2 1_555 1_555
C166_2 C155_2 1_555 1_555
H125_4 C159_4 1_555 1_555
H126_4 C160_4 1_555 1_555
H130_2 C164_2 1_555 1_555
H131_2 C165_2 1_555 1_555
H132_2 C166_2 1_555 1_555
H136_4 C159_4 1_555 1_555
H137_4 C160_4 1_555 1_555
H141_2 C164_2 1_555 1_555
H142_2 C165_2 1_555 1_555
H143_2 C166_2 1_555 1_555
H147_4 C159_4 1_555 1_555
H148_4 C160_4 1_555 1_555
H152_2 C164_2 1_555 1_555
H153_2 C165_2 1_555 1_555
H154_2 C166_2 1_555 1_555
O36_7 Cd18 1_555 1_555
O37_7 Cd10 1_555 1_555
O38_7 Cd9 1_555 1_555
C170_7 O37_7 1_555 1_555
C171_7 O36_7 1_555 1_555
C172_7 O38_7 1_555 1_555
H158_7 O37_7 1_555 1_555
H159_7 O36_7 1_555 1_555
H160_7 O38_7 1_555 1_555
O4_7 Cd18 1_555 1_555
C1_4 O23_4 1_555 1_555
C6_4 C7_4 1_555 1_555
C10_4 C104_4 1_555 1_555
Cd18 O22_4 1_555 1_555
Cd9 O21_4 1_555 1_555
Cd9 O23_4 1_555 1_555
Cd10 O26_4 1_555 1_555
Cd10 O29_4 1_555 1_555
O10_2 C16_2 1_555 1_555
C49_4 C115_4 1_555 1_555
C60_4 C93_4 1_555 1_555
C71_4 C82_4 1_555 1_555
C72_4 C83_4 1_555 1_555
C76_2 C87_2 1_555 1_555
C77_2 C88_2 1_555 1_555
C78_2 C89_2 1_555 1_555
C94_4 C104_4 1_555 1_555
C94_4 C105_4 1_555 1_555
C99_2 C109_2 1_555 1_555
C100_2 C110_2 1_555 1_555
C100_2 C111_2 1_555 1_555
C105_4 C116_4 1_555 1_555
C109_2 C120_2 1_555 1_555
C110_2 C121_2 1_555 1_555
C111_2 C122_2 1_555 1_555
C171_7 H164_4 1_555 1_555
C171_7 H165_7 1_555 1_555
C171_7 H166_4 1_555 1_555
C172_7 H167_4 1_555 1_555
C172_7 H168_7 1_555 1_555
C172_7 H169_4 1_555 1_555
C170_7 H170_4 1_555 1_555
C170_7 H171_7 1_555 1_555
C170_7 H172_4 1_555 1_555
C15_7 H176_4 1_555 1_555
C15_7 H177_7 1_555 1_555
C15_7 H178_4 1_555 1_555
Cd1_4 O2_5 1_555 1_555
O2_5 C1_5 1_555 1_555
O3_3 Cd1_4 1_555 1_555
O4_8 Cd1_4 1_555 1_555
C1_5 C2_5 1_555 1_555
C2_5 C3_5 1_555 1_555
C3_5 H1_5 1_555 1_555
C4_5 C3_5 1_555 1_555
C5_5 C4_5 1_555 1_555
C6_5 C5_5 1_555 1_555
H2_5 C6_5 1_555 1_555
C7_5 C2_5 1_555 1_555
H3_5 C7_5 1_555 1_555
C8_5 C5_5 1_555 1_555
C9_5 C8_5 1_555 1_555
C10_5 C4_5 1_555 1_555
C11_5 C10_5 1_555 1_555
H4_5 C11_5 1_555 1_555
H5_5 C11_5 1_555 1_555
C12_5 C11_5 1_555 1_555
H6_5 C12_5 1_555 1_555
H7_5 C12_5 1_555 1_555
H8_5 C12_5 1_555 1_555
C13_5 C10_5 1_555 1_555
H9_5 C13_5 1_555 1_555
H10_5 C13_5 1_555 1_555
C14_5 C13_5 1_555 1_555
H11_5 C14_5 1_555 1_555
H12_5 C14_5 1_555 1_555
H13_5 C14_5 1_555 1_555
O5_8 Cd1_4 1_555 1_555
C15_8 O5_8 1_555 1_555
H14_8 O5_8 1_555 1_555
Cd2_3 O3_3 1_555 1_555
Cd3_7 O4_8 1_555 1_555
Cd4_7 O4_8 1_555 1_555
Cd5_8 O7_5 1_555 1_555
Cd6_8 O24_5 1_555 1_555
Cd7_5 O8_5 1_555 1_555
Cd8_7 O25_5 1_555 1_555
Cd9_5 O15_4 1_555 1_555
Cd10_5 O20_4 1_555 1_555
Cd14_3 O16_4 1_555 1_555
Cd12_7 O31_4 1_555 1_555
Cd13_4 O17_3 1_555 1_555
Cd17 O32_3 1_555 1_555
Cd18_3 O18_3 1_555 1_555
Cd16_3 O33_3 1_555 1_555
Cd17_5 O19_4 1_555 1_555
Cd18_5 O35_4 1_555 1_555
O6_5 Cd1_4 1_555 1_555
O7_5 C17_5 1_555 1_555
O8_5 C18_5 1_555 1_555
O9_5 Cd2_3 1_555 1_555
O10_3 Cd2_3 1_555 1_555
O11_5 Cd4_7 1_555 1_555
O12_4 Cd4_7 1_555 1_555
O13_4 Cd3_7 1_555 1_555
O14_5 Cd3_7 1_555 1_555
O15_4 C20_4 1_555 1_555
O16_4 C21_4 1_555 1_555
O17_3 C22_3 1_555 1_555
O18_3 C23_3 1_555 1_555
O19_4 C25_4 1_555 1_555
O20_4 C26_4 1_555 1_555
O21_5 Cd1_4 1_555 1_555
O22_5 Cd1_4 1_555 1_555
O23_5 Cd1_4 1_555 1_555
O24_5 Cd5_8 1_555 1_555
O25_5 Cd7_5 1_555 1_555
O26_5 Cd2_3 1_555 1_555
O27_4 Cd2_3 1_555 1_555
O28_4 Cd3_7 1_555 1_555
O29_5 Cd3_7 1_555 1_555
O30_4 Cd9_5 1_555 1_555
O31_4 Cd14_3 1_555 1_555
O32_3 Cd13_4 1_555 1_555
O33_3 Cd18_3 1_555 1_555
O34_4 Cd7_5 1_555 1_555
O35_4 Cd10_5 1_555 1_555
C16_3 O3_3 1_555 1_555
C17_5 O24_5 1_555 1_555
C18_5 O25_5 1_555 1_555
C19_4 O12_4 1_555 1_555
C20_4 O30_4 1_555 1_555
C21_4 O31_4 1_555 1_555
C22_3 O32_3 1_555 1_555
C23_3 O33_3 1_555 1_555
C24_4 O13_4 1_555 1_555
C25_4 O34_4 1_555 1_555
C26_4 O35_4 1_555 1_555
C27_5 C17_5 1_555 1_555
C28_5 C18_5 1_555 1_555
C29_4 C19_4 1_555 1_555
C30_4 C20_4 1_555 1_555
C31_4 C21_4 1_555 1_555
C32_3 C16_3 1_555 1_555
C33_3 C22_3 1_555 1_555
C34_3 C23_3 1_555 1_555
C35_4 C24_4 1_555 1_555
C36_4 C25_4 1_555 1_555
C37_4 C26_4 1_555 1_555
C38_5 C27_5 1_555 1_555
C39_5 C28_5 1_555 1_555
C40_4 C29_4 1_555 1_555
C41_4 C30_4 1_555 1_555
C42_4 C31_4 1_555 1_555
C43_3 C32_3 1_555 1_555
C44_3 C33_3 1_555 1_555
C45_3 C34_3 1_555 1_555
C46_4 C35_4 1_555 1_555
C47_4 C36_4 1_555 1_555
C48_4 C37_4 1_555 1_555
H15_5 C38_5 1_555 1_555
H16_5 C39_5 1_555 1_555
H17_4 C40_4 1_555 1_555
H18_4 C41_4 1_555 1_555
H19_4 C42_4 1_555 1_555
H20_3 C43_3 1_555 1_555
H21_3 C44_3 1_555 1_555
H22_3 C45_3 1_555 1_555
H23_4 C46_4 1_555 1_555
H24_4 C47_4 1_555 1_555
H25_4 C48_4 1_555 1_555
C49_5 C38_5 1_555 1_555
C50_5 C39_5 1_555 1_555
C51_4 C40_4 1_555 1_555
C52_4 C41_4 1_555 1_555
C53_4 C42_4 1_555 1_555
C54_3 C43_3 1_555 1_555
C55_3 C44_3 1_555 1_555
C56_3 C45_3 1_555 1_555
C57_4 C46_4 1_555 1_555
C58_4 C47_4 1_555 1_555
C59_4 C48_4 1_555 1_555
C60_5 C49_5 1_555 1_555
C61_5 C50_5 1_555 1_555
C62_4 C51_4 1_555 1_555
C63_4 C53_4 1_555 1_555
C64_4 C52_4 1_555 1_555
C65_3 C54_3 1_555 1_555
C66_3 C56_3 1_555 1_555
C67_3 C55_3 1_555 1_555
C68_4 C57_4 1_555 1_555
C69_4 C59_4 1_555 1_555
C70_4 C58_4 1_555 1_555
C71_5 C60_5 1_555 1_555
C72_5 C61_5 1_555 1_555
C73_4 C62_4 1_555 1_555
C74_4 C63_4 1_555 1_555
C75_4 C64_4 1_555 1_555
C76_3 C65_3 1_555 1_555
C77_3 C66_3 1_555 1_555
C78_3 C67_3 1_555 1_555
C79_4 C68_4 1_555 1_555
C80_4 C69_4 1_555 1_555
C81_4 C70_4 1_555 1_555
H26_5 C71_5 1_555 1_555
H27_5 C72_5 1_555 1_555
H28_4 C73_4 1_555 1_555
H29_4 C74_4 1_555 1_555
H30_4 C75_4 1_555 1_555
H31_3 C76_3 1_555 1_555
H32_3 C77_3 1_555 1_555
H33_3 C78_3 1_555 1_555
H34_4 C79_4 1_555 1_555
H35_4 C80_4 1_555 1_555
H36_4 C81_4 1_555 1_555
C82_5 C27_5 1_555 1_555
C83_5 C28_5 1_555 1_555
C84_4 C29_4 1_555 1_555
C85_4 C31_4 1_555 1_555
C86_4 C30_4 1_555 1_555
C87_3 C32_3 1_555 1_555
C88_3 C34_3 1_555 1_555
C89_3 C33_3 1_555 1_555
C90_4 C35_4 1_555 1_555
C91_4 C37_4 1_555 1_555
C92_4 C36_4 1_555 1_555
H37_5 C82_5 1_555 1_555
H38_5 C83_5 1_555 1_555
H39_4 C84_4 1_555 1_555
H40_4 C85_4 1_555 1_555
H41_4 C86_4 1_555 1_555
H42_3 C87_3 1_555 1_555
H43_3 C88_3 1_555 1_555
H44_3 C89_3 1_555 1_555
H45_4 C90_4 1_555 1_555
H46_4 C91_4 1_555 1_555
H47_4 C92_4 1_555 1_555
C93_5 C9_5 1_555 1_555
C94_5 C61_5 1_555 1_555
C95_4 C62_4 1_555 1_555
C96_4 C63_4 1_555 1_555
C97_4 C64_4 1_555 1_555
C98_3 C65_3 1_555 1_555
C99_3 C66_3 1_555 1_555
C100_3 C67_3 1_555 1_555
C101_4 C68_4 1_555 1_555
C102_4 C69_4 1_555 1_555
C103_4 C70_4 1_555 1_555
C104_5 C8_5 1_555 1_555
C105_5 C93_5 1_555 1_555
C106_4 C95_4 1_555 1_555
C107_4 C95_4 1_555 1_555
C108_4 C96_4 1_555 1_555
C109_3 C98_3 1_555 1_555
C110_3 C98_3 1_555 1_555
C111_3 C99_3 1_555 1_555
C112_4 C101_4 1_555 1_555
C113_4 C101_4 1_555 1_555
C114_4 C102_4 1_555 1_555
C115_5 C9_5 1_555 1_555
C116_5 C50_5 1_555 1_555
C117_4 C51_4 1_555 1_555
C118_4 C52_4 1_555 1_555
C119_4 C53_4 1_555 1_555
C120_3 C54_3 1_555 1_555
C121_3 C55_3 1_555 1_555
C122_3 C56_3 1_555 1_555
C123_4 C57_4 1_555 1_555
C124_4 C58_4 1_555 1_555
C125_4 C59_4 1_555 1_555
C126_5 C115_5 1_555 1_555
C127_5 C116_5 1_555 1_555
C128_4 C117_4 1_555 1_555
C129_4 C118_4 1_555 1_555
C130_4 C119_4 1_555 1_555
C131_3 C120_3 1_555 1_555
C132_3 C121_3 1_555 1_555
C133_3 C122_3 1_555 1_555
C134_4 C123_4 1_555 1_555
C135_4 C124_4 1_555 1_555
C136_4 C125_4 1_555 1_555
H48_5 C126_5 1_555 1_555
H49_5 C127_5 1_555 1_555
H50_4 C128_4 1_555 1_555
H51_4 C129_4 1_555 1_555
H52_4 C130_4 1_555 1_555
H53_3 C131_3 1_555 1_555
H54_3 C132_3 1_555 1_555
H55_3 C133_3 1_555 1_555
H56_4 C134_4 1_555 1_555
H57_4 C135_4 1_555 1_555
H58_4 C136_4 1_555 1_555
H59_5 C126_5 1_555 1_555
H60_5 C127_5 1_555 1_555
H61_4 C128_4 1_555 1_555
H62_4 C129_4 1_555 1_555
H63_4 C130_4 1_555 1_555
H64_3 C131_3 1_555 1_555
H65_3 C132_3 1_555 1_555
H66_3 C133_3 1_555 1_555
H67_4 C134_4 1_555 1_555
H68_4 C135_4 1_555 1_555
H69_4 C136_4 1_555 1_555
C137_5 C126_5 1_555 1_555
C138_5 C127_5 1_555 1_555
C139_4 C128_4 1_555 1_555
C140_4 C129_4 1_555 1_555
C141_4 C130_4 1_555 1_555
C142_3 C131_3 1_555 1_555
C143_3 C132_3 1_555 1_555
C144_3 C133_3 1_555 1_555
C145_4 C134_4 1_555 1_555
C146_4 C135_4 1_555 1_555
C147_4 C136_4 1_555 1_555
H70_5 C137_5 1_555 1_555
H71_5 C138_5 1_555 1_555
H72_4 C139_4 1_555 1_555
H73_4 C140_4 1_555 1_555
H74_4 C141_4 1_555 1_555
H75_3 C142_3 1_555 1_555
H76_3 C143_3 1_555 1_555
H77_3 C144_3 1_555 1_555
H78_4 C145_4 1_555 1_555
H79_4 C146_4 1_555 1_555
H80_4 C147_4 1_555 1_555
H81_5 C137_5 1_555 1_555
H82_5 C138_5 1_555 1_555
H83_4 C139_4 1_555 1_555
H84_4 C140_4 1_555 1_555
H85_4 C141_4 1_555 1_555
H86_3 C142_3 1_555 1_555
H87_3 C143_3 1_555 1_555
H88_3 C144_3 1_555 1_555
H89_4 C145_4 1_555 1_555
H90_4 C146_4 1_555 1_555
H91_4 C147_4 1_555 1_555
H92_5 C137_5 1_555 1_555
H93_5 C138_5 1_555 1_555
H94_4 C139_4 1_555 1_555
H95_4 C140_4 1_555 1_555
H96_4 C141_4 1_555 1_555
H97_3 C142_3 1_555 1_555
H98_3 C143_3 1_555 1_555
H99_3 C144_3 1_555 1_555
H100_4 C145_4 1_555 1_555
H101_4 C146_4 1_555 1_555
H102_4 C147_4 1_555 1_555
C148_5 C115_5 1_555 1_555
C149_5 C116_5 1_555 1_555
C150_4 C117_4 1_555 1_555
C151_4 C118_4 1_555 1_555
C152_4 C119_4 1_555 1_555
C153_3 C120_3 1_555 1_555
C154_3 C121_3 1_555 1_555
C155_3 C122_3 1_555 1_555
C156_4 C123_4 1_555 1_555
C157_4 C124_4 1_555 1_555
C158_4 C125_4 1_555 1_555
H103_5 C148_5 1_555 1_555
H104_5 C149_5 1_555 1_555
H105_4 C150_4 1_555 1_555
H106_4 C151_4 1_555 1_555
H107_4 C152_4 1_555 1_555
H108_3 C153_3 1_555 1_555
H109_3 C154_3 1_555 1_555
H110_3 C155_3 1_555 1_555
H111_4 C156_4 1_555 1_555
H112_4 C157_4 1_555 1_555
H113_4 C158_4 1_555 1_555
H114_5 C148_5 1_555 1_555
H115_5 C149_5 1_555 1_555
H116_4 C150_4 1_555 1_555
H117_4 C151_4 1_555 1_555
H118_4 C152_4 1_555 1_555
H119_3 C153_3 1_555 1_555
H120_3 C154_3 1_555 1_555
H121_3 C155_3 1_555 1_555
H122_4 C156_4 1_555 1_555
H123_4 C157_4 1_555 1_555
H124_4 C158_4 1_555 1_555
C159_5 C148_5 1_555 1_555
C160_5 C149_5 1_555 1_555
C161_4 C150_4 1_555 1_555
C162_4 C151_4 1_555 1_555
C163_4 C152_4 1_555 1_555
C164_3 C153_3 1_555 1_555
C165_3 C154_3 1_555 1_555
C166_3 C155_3 1_555 1_555
C167_4 C156_4 1_555 1_555
C168_4 C157_4 1_555 1_555
C169_4 C158_4 1_555 1_555
H125_5 C159_5 1_555 1_555
H126_5 C160_5 1_555 1_555
H127_4 C161_4 1_555 1_555
H128_4 C162_4 1_555 1_555
H129_4 C163_4 1_555 1_555
H130_3 C164_3 1_555 1_555
H131_3 C165_3 1_555 1_555
H132_3 C166_3 1_555 1_555
H133_4 C167_4 1_555 1_555
H134_4 C168_4 1_555 1_555
H135_4 C169_4 1_555 1_555
H136_5 C159_5 1_555 1_555
H137_5 C160_5 1_555 1_555
H138_4 C161_4 1_555 1_555
H139_4 C162_4 1_555 1_555
H140_4 C163_4 1_555 1_555
H141_3 C164_3 1_555 1_555
H142_3 C165_3 1_555 1_555
H143_3 C166_3 1_555 1_555
H144_4 C167_4 1_555 1_555
H145_4 C168_4 1_555 1_555
H146_4 C169_4 1_555 1_555
H147_5 C159_5 1_555 1_555
H148_5 C160_5 1_555 1_555
H149_4 C161_4 1_555 1_555
H150_4 C162_4 1_555 1_555
H151_4 C163_4 1_555 1_555
H152_3 C164_3 1_555 1_555
H153_3 C165_3 1_555 1_555
H154_3 C166_3 1_555 1_555
H155_4 C167_4 1_555 1_555
H156_4 C168_4 1_555 1_555
H157_4 C169_4 1_555 1_555
O36_8 Cd2_3 1_555 1_555
O37_8 Cd4_7 1_555 1_555
O38_8 Cd3_7 1_555 1_555
C170_8 O37_8 1_555 1_555
C171_8 O36_8 1_555 1_555
C172_8 O38_8 1_555 1_555
H158_8 O37_8 1_555 1_555
H159_8 O36_8 1_555 1_555
H160_8 O38_8 1_555 1_555
O4_8 Cd2_3 1_555 1_555
C1_5 O23_5 1_555 1_555
C6_5 C7_5 1_555 1_555
C10_5 C104_5 1_555 1_555
Cd2_3 O22_5 1_555 1_555
Cd3_7 O21_5 1_555 1_555
Cd3_7 O23_5 1_555 1_555
Cd4_7 O26_5 1_555 1_555
Cd4_7 O27_4 1_555 1_555
Cd4_7 O28_4 1_555 1_555
Cd4_7 O29_5 1_555 1_555
Cd10_5 O30_4 1_555 1_555
Cd17_5 O34_4 1_555 1_555
O10_3 C16_3 1_555 1_555
O27_4 C19_4 1_555 1_555
O28_4 C24_4 1_555 1_555
C49_5 C115_5 1_555 1_555
C60_5 C93_5 1_555 1_555
C71_5 C82_5 1_555 1_555
C72_5 C83_5 1_555 1_555
C73_4 C84_4 1_555 1_555
C74_4 C85_4 1_555 1_555
C75_4 C86_4 1_555 1_555
C76_3 C87_3 1_555 1_555
C77_3 C88_3 1_555 1_555
C78_3 C89_3 1_555 1_555
C79_4 C90_4 1_555 1_555
C80_4 C91_4 1_555 1_555
C81_4 C92_4 1_555 1_555
C94_5 C104_5 1_555 1_555
C94_5 C105_5 1_555 1_555
C96_4 C106_4 1_555 1_555
C97_4 C107_4 1_555 1_555
C97_4 C108_4 1_555 1_555
C99_3 C109_3 1_555 1_555
C100_3 C110_3 1_555 1_555
C100_3 C111_3 1_555 1_555
C102_4 C112_4 1_555 1_555
C103_4 C113_4 1_555 1_555
C103_4 C114_4 1_555 1_555
C105_5 C116_5 1_555 1_555
C106_4 C117_4 1_555 1_555
C107_4 C118_4 1_555 1_555
C108_4 C119_4 1_555 1_555
C109_3 C120_3 1_555 1_555
C110_3 C121_3 1_555 1_555
C111_3 C122_3 1_555 1_555
C112_4 C123_4 1_555 1_555
C113_4 C124_4 1_555 1_555
C114_4 C125_4 1_555 1_555
C171_8 H164_5 1_555 1_555
C171_8 H165_8 1_555 1_555
C171_8 H166_5 1_555 1_555
C172_8 H167_5 1_555 1_555
C172_8 H168_8 1_555 1_555
C172_8 H169_5 1_555 1_555
C170_8 H170_5 1_555 1_555
C170_8 H171_8 1_555 1_555
C170_8 H172_5 1_555 1_555
C15_8 H176_5 1_555 1_555
C15_8 H177_8 1_555 1_555
C15_8 H178_5 1_555 1_555
O3_4 Cd17_3 1_555 1_555
O4_9 Cd17_3 1_555 1_555
O5_9 Cd17_3 1_555 1_555
C15_9 O5_9 1_555 1_555
H14_9 O5_9 1_555 1_555
Cd2_4 O3_4 1_555 1_555
Cd7_3 O4_9 1_555 1_555
Cd8_3 O4_9 1_555 1_555
Cd9_6 O15_5 1_555 1_555
Cd11_7 O16_5 1_555 1_555
Cd12_8 O31_5 1_555 1_555
Cd18_2 O17_4 1_555 1_555
Cd14_4 O32_4 1_555 1_555
Cd6_8 O18_4 1_555 1_555
Cd16_4 O33_4 1_555 1_555
O6_6 Cd17_3 1_555 1_555
O9_6 Cd2_4 1_555 1_555
O10_4 Cd2_4 1_555 1_555
O11_6 Cd8_3 1_555 1_555
O12_5 Cd8_3 1_555 1_555
O14_6 Cd7_3 1_555 1_555
O15_5 C20_5 1_555 1_555
O16_5 C21_5 1_555 1_555
O17_4 C22_4 1_555 1_555
O18_4 C23_4 1_555 1_555
O21_6 Cd17_3 1_555 1_555
O22_6 Cd17_3 1_555 1_555
O26_6 Cd2_4 1_555 1_555
O27_5 Cd2_4 1_555 1_555
O29_6 Cd7_3 1_555 1_555
O30_5 Cd9_6 1_555 1_555
O31_5 Cd11_7 1_555 1_555
O32_4 Cd18_2 1_555 1_555
O33_4 Cd6_8 1_555 1_555
C16_4 O3_4 1_555 1_555
C19_5 O12_5 1_555 1_555
C20_5 O30_5 1_555 1_555
C21_5 O31_5 1_555 1_555
C22_4 O32_4 1_555 1_555
C23_4 O33_4 1_555 1_555
C29_5 C19_5 1_555 1_555
C30_5 C20_5 1_555 1_555
C31_5 C21_5 1_555 1_555
C32_4 C16_4 1_555 1_555
C33_4 C22_4 1_555 1_555
C34_4 C23_4 1_555 1_555
C40_5 C29_5 1_555 1_555
C41_5 C30_5 1_555 1_555
C42_5 C31_5 1_555 1_555
C43_4 C32_4 1_555 1_555
C44_4 C33_4 1_555 1_555
C45_4 C34_4 1_555 1_555
H17_5 C40_5 1_555 1_555
H18_5 C41_5 1_555 1_555
H19_5 C42_5 1_555 1_555
H20_4 C43_4 1_555 1_555
H21_4 C44_4 1_555 1_555
H22_4 C45_4 1_555 1_555
C51_5 C40_5 1_555 1_555
C52_5 C41_5 1_555 1_555
C53_5 C42_5 1_555 1_555
C54_4 C43_4 1_555 1_555
C55_4 C44_4 1_555 1_555
C56_4 C45_4 1_555 1_555
C62_5 C51_5 1_555 1_555
C63_5 C53_5 1_555 1_555
C64_5 C52_5 1_555 1_555
C65_4 C54_4 1_555 1_555
C66_4 C56_4 1_555 1_555
C67_4 C55_4 1_555 1_555
C73_5 C62_5 1_555 1_555
C74_5 C63_5 1_555 1_555
C75_5 C64_5 1_555 1_555
C76_4 C65_4 1_555 1_555
C77_4 C66_4 1_555 1_555
C78_4 C67_4 1_555 1_555
H28_5 C73_5 1_555 1_555
H29_5 C74_5 1_555 1_555
H30_5 C75_5 1_555 1_555
H31_4 C76_4 1_555 1_555
H32_4 C77_4 1_555 1_555
H33_4 C78_4 1_555 1_555
C84_5 C29_5 1_555 1_555
C85_5 C31_5 1_555 1_555
C86_5 C30_5 1_555 1_555
C87_4 C32_4 1_555 1_555
C88_4 C34_4 1_555 1_555
C89_4 C33_4 1_555 1_555
H39_5 C84_5 1_555 1_555
H40_5 C85_5 1_555 1_555
H41_5 C86_5 1_555 1_555
H42_4 C87_4 1_555 1_555
H43_4 C88_4 1_555 1_555
H44_4 C89_4 1_555 1_555
C95_5 C62_5 1_555 1_555
C96_5 C63_5 1_555 1_555
C97_5 C64_5 1_555 1_555
C98_4 C65_4 1_555 1_555
C99_4 C66_4 1_555 1_555
C100_4 C67_4 1_555 1_555
C106_5 C95_5 1_555 1_555
C107_5 C95_5 1_555 1_555
C108_5 C96_5 1_555 1_555
C109_4 C98_4 1_555 1_555
C110_4 C98_4 1_555 1_555
C111_4 C99_4 1_555 1_555
C117_5 C51_5 1_555 1_555
C118_5 C52_5 1_555 1_555
C119_5 C53_5 1_555 1_555
C120_4 C54_4 1_555 1_555
C121_4 C55_4 1_555 1_555
C122_4 C56_4 1_555 1_555
C128_5 C117_5 1_555 1_555
C129_5 C118_5 1_555 1_555
C130_5 C119_5 1_555 1_555
C131_4 C120_4 1_555 1_555
C132_4 C121_4 1_555 1_555
C133_4 C122_4 1_555 1_555
H50_5 C128_5 1_555 1_555
H51_5 C129_5 1_555 1_555
H52_5 C130_5 1_555 1_555
H53_4 C131_4 1_555 1_555
H54_4 C132_4 1_555 1_555
H55_4 C133_4 1_555 1_555
H61_5 C128_5 1_555 1_555
H62_5 C129_5 1_555 1_555
H63_5 C130_5 1_555 1_555
H64_4 C131_4 1_555 1_555
H65_4 C132_4 1_555 1_555
H66_4 C133_4 1_555 1_555
C139_5 C128_5 1_555 1_555
C140_5 C129_5 1_555 1_555
C141_5 C130_5 1_555 1_555
C142_4 C131_4 1_555 1_555
C143_4 C132_4 1_555 1_555
C144_4 C133_4 1_555 1_555
H72_5 C139_5 1_555 1_555
H73_5 C140_5 1_555 1_555
H74_5 C141_5 1_555 1_555
H75_4 C142_4 1_555 1_555
H76_4 C143_4 1_555 1_555
H77_4 C144_4 1_555 1_555
H83_5 C139_5 1_555 1_555
H84_5 C140_5 1_555 1_555
H85_5 C141_5 1_555 1_555
H86_4 C142_4 1_555 1_555
H87_4 C143_4 1_555 1_555
H88_4 C144_4 1_555 1_555
H94_5 C139_5 1_555 1_555
H95_5 C140_5 1_555 1_555
H96_5 C141_5 1_555 1_555
H97_4 C142_4 1_555 1_555
H98_4 C143_4 1_555 1_555
H99_4 C144_4 1_555 1_555
C150_5 C117_5 1_555 1_555
C151_5 C118_5 1_555 1_555
C152_5 C119_5 1_555 1_555
C153_4 C120_4 1_555 1_555
C154_4 C121_4 1_555 1_555
C155_4 C122_4 1_555 1_555
H105_5 C150_5 1_555 1_555
H106_5 C151_5 1_555 1_555
H107_5 C152_5 1_555 1_555
H108_4 C153_4 1_555 1_555
H109_4 C154_4 1_555 1_555
H110_4 C155_4 1_555 1_555
H116_5 C150_5 1_555 1_555
H117_5 C151_5 1_555 1_555
H118_5 C152_5 1_555 1_555
H119_4 C153_4 1_555 1_555
H120_4 C154_4 1_555 1_555
H121_4 C155_4 1_555 1_555
C161_5 C150_5 1_555 1_555
C162_5 C151_5 1_555 1_555
C163_5 C152_5 1_555 1_555
C164_4 C153_4 1_555 1_555
C165_4 C154_4 1_555 1_555
C166_4 C155_4 1_555 1_555
H127_5 C161_5 1_555 1_555
H128_5 C162_5 1_555 1_555
H129_5 C163_5 1_555 1_555
H130_4 C164_4 1_555 1_555
H131_4 C165_4 1_555 1_555
H132_4 C166_4 1_555 1_555
H138_5 C161_5 1_555 1_555
H139_5 C162_5 1_555 1_555
H140_5 C163_5 1_555 1_555
H141_4 C164_4 1_555 1_555
H142_4 C165_4 1_555 1_555
H143_4 C166_4 1_555 1_555
H149_5 C161_5 1_555 1_555
H150_5 C162_5 1_555 1_555
H151_5 C163_5 1_555 1_555
H152_4 C164_4 1_555 1_555
H153_4 C165_4 1_555 1_555
H154_4 C166_4 1_555 1_555
O36_9 Cd2_4 1_555 1_555
O37_9 Cd8_3 1_555 1_555
O38_9 Cd7_3 1_555 1_555
C170_9 O37_9 1_555 1_555
C171_9 O36_9 1_555 1_555
C172_9 O38_9 1_555 1_555
H158_9 O37_9 1_555 1_555
H159_9 O36_9 1_555 1_555
H160_9 O38_9 1_555 1_555
O4_9 Cd2_4 1_555 1_555
Cd2_4 O22_6 1_555 1_555
Cd7_3 O21_6 1_555 1_555
Cd8_3 O26_6 1_555 1_555
Cd8_3 O27_5 1_555 1_555
Cd8_3 O29_6 1_555 1_555
Cd5_5 O30_5 1_555 1_555
O10_4 C16_4 1_555 1_555
O27_5 C19_5 1_555 1_555
C73_5 C84_5 1_555 1_555
C74_5 C85_5 1_555 1_555
C75_5 C86_5 1_555 1_555
C76_4 C87_4 1_555 1_555
C77_4 C88_4 1_555 1_555
C78_4 C89_4 1_555 1_555
C96_5 C106_5 1_555 1_555
C97_5 C107_5 1_555 1_555
C97_5 C108_5 1_555 1_555
C99_4 C109_4 1_555 1_555
C100_4 C110_4 1_555 1_555
C100_4 C111_4 1_555 1_555
C106_5 C117_5 1_555 1_555
C107_5 C118_5 1_555 1_555
C108_5 C119_5 1_555 1_555
C109_4 C120_4 1_555 1_555
C110_4 C121_4 1_555 1_555
C111_4 C122_4 1_555 1_555
C171_9 H164_6 1_555 1_555
C171_9 H165_9 1_555 1_555
C171_9 H166_6 1_555 1_555
C172_9 H167_6 1_555 1_555
C172_9 H168_9 1_555 1_555
C172_9 H169_6 1_555 1_555
C170_9 H170_6 1_555 1_555
C170_9 H171_9 1_555 1_555
C170_9 H172_6 1_555 1_555
C15_9 H176_6 1_555 1_555
C15_9 H177_9 1_555 1_555
C15_9 H178_6 1_555 1_555
O4_10 Cd17_2 1_555 1_555
O5_10 Cd17_2 1_555 1_555
C15_10 O5_10 1_555 1_555
H14_10 O5_10 1_555 1_555
Cd7_2 O4_10 1_555 1_555
Cd8_2 O4_10 1_555 1_555
Cd9_8 O15_6 1_555 1_555
Cd11_8 O16_6 1_555 1_555
Cd12_9 O31_6 1_555 1_555
O6_7 Cd17_2 1_555 1_555
O9_7 Cd15_3 1_555 1_555
O11_7 Cd8_2 1_555 1_555
O12_6 Cd8_2 1_555 1_555
O14_7 Cd7_2 1_555 1_555
O15_6 C20_6 1_555 1_555
O16_6 C21_6 1_555 1_555
O21_7 Cd17_2 1_555 1_555
O22_7 Cd17_2 1_555 1_555
O26_7 Cd15_3 1_555 1_555
O27_6 Cd15_3 1_555 1_555
O29_7 Cd7_2 1_555 1_555
O30_6 Cd9_8 1_555 1_555
O31_6 Cd11_8 1_555 1_555
C19_6 O12_6 1_555 1_555
C20_6 O30_6 1_555 1_555
C21_6 O31_6 1_555 1_555
C29_6 C19_6 1_555 1_555
C30_6 C20_6 1_555 1_555
C31_6 C21_6 1_555 1_555
C40_6 C29_6 1_555 1_555
C41_6 C30_6 1_555 1_555
C42_6 C31_6 1_555 1_555
H17_6 C40_6 1_555 1_555
H18_6 C41_6 1_555 1_555
H19_6 C42_6 1_555 1_555
C51_6 C40_6 1_555 1_555
C52_6 C41_6 1_555 1_555
C53_6 C42_6 1_555 1_555
C62_6 C51_6 1_555 1_555
C63_6 C53_6 1_555 1_555
C64_6 C52_6 1_555 1_555
C73_6 C62_6 1_555 1_555
C74_6 C63_6 1_555 1_555
C75_6 C64_6 1_555 1_555
H28_6 C73_6 1_555 1_555
H29_6 C74_6 1_555 1_555
H30_6 C75_6 1_555 1_555
C84_6 C29_6 1_555 1_555
C85_6 C31_6 1_555 1_555
C86_6 C30_6 1_555 1_555
H39_6 C84_6 1_555 1_555
H40_6 C85_6 1_555 1_555
H41_6 C86_6 1_555 1_555
C95_6 C62_6 1_555 1_555
C96_6 C63_6 1_555 1_555
C97_6 C64_6 1_555 1_555
C106_6 C95_6 1_555 1_555
C107_6 C95_6 1_555 1_555
C108_6 C96_6 1_555 1_555
C117_6 C51_6 1_555 1_555
C118_6 C52_6 1_555 1_555
C119_6 C53_6 1_555 1_555
C128_6 C117_6 1_555 1_555
C129_6 C118_6 1_555 1_555
C130_6 C119_6 1_555 1_555
H50_6 C128_6 1_555 1_555
H51_6 C129_6 1_555 1_555
H52_6 C130_6 1_555 1_555
H61_6 C128_6 1_555 1_555
H62_6 C129_6 1_555 1_555
H63_6 C130_6 1_555 1_555
C139_6 C128_6 1_555 1_555
C140_6 C129_6 1_555 1_555
C141_6 C130_6 1_555 1_555
H72_6 C139_6 1_555 1_555
H73_6 C140_6 1_555 1_555
H74_6 C141_6 1_555 1_555
H83_6 C139_6 1_555 1_555
H84_6 C140_6 1_555 1_555
H85_6 C141_6 1_555 1_555
H94_6 C139_6 1_555 1_555
H95_6 C140_6 1_555 1_555
H96_6 C141_6 1_555 1_555
C150_6 C117_6 1_555 1_555
C151_6 C118_6 1_555 1_555
C152_6 C119_6 1_555 1_555
H105_6 C150_6 1_555 1_555
H106_6 C151_6 1_555 1_555
H107_6 C152_6 1_555 1_555
H116_6 C150_6 1_555 1_555
H117_6 C151_6 1_555 1_555
H118_6 C152_6 1_555 1_555
C161_6 C150_6 1_555 1_555
C162_6 C151_6 1_555 1_555
C163_6 C152_6 1_555 1_555
H127_6 C161_6 1_555 1_555
H128_6 C162_6 1_555 1_555
H129_6 C163_6 1_555 1_555
H138_6 C161_6 1_555 1_555
H139_6 C162_6 1_555 1_555
H140_6 C163_6 1_555 1_555
H149_6 C161_6 1_555 1_555
H150_6 C162_6 1_555 1_555
H151_6 C163_6 1_555 1_555
O36_10 Cd15_3 1_555 1_555
O37_10 Cd8_2 1_555 1_555
O38_10 Cd7_2 1_555 1_555
C170_10 O37_10 1_555 1_555
C171_10 O36_10 1_555 1_555
C172_10 O38_10 1_555 1_555
H158_10 O37_10 1_555 1_555
H159_10 O36_10 1_555 1_555
H160_10 O38_10 1_555 1_555
O4_10 Cd15_3 1_555 1_555
Cd15_3 O22_7 1_555 1_555
Cd7_2 O21_7 1_555 1_555
Cd8_2 O26_7 1_555 1_555
Cd8_2 O27_6 1_555 1_555
Cd8_2 O29_7 1_555 1_555
Cd5_3 O30_6 1_555 1_555
O27_6 C19_6 1_555 1_555
C73_6 C84_6 1_555 1_555
C74_6 C85_6 1_555 1_555
C75_6 C86_6 1_555 1_555
C96_6 C106_6 1_555 1_555
C97_6 C107_6 1_555 1_555
C97_6 C108_6 1_555 1_555
C106_6 C117_6 1_555 1_555
C107_6 C118_6 1_555 1_555
C108_6 C119_6 1_555 1_555
C171_10 H164_7 1_555 1_555
C171_10 H165_10 1_555 1_555
C171_10 H166_7 1_555 1_555
C172_10 H167_7 1_555 1_555
C172_10 H168_10 1_555 1_555
C172_10 H169_7 1_555 1_555
C170_10 H170_7 1_555 1_555
C170_10 H171_10 1_555 1_555
C170_10 H172_7 1_555 1_555
C15_10 H176_7 1_555 1_555
C15_10 H177_10 1_555 1_555
C15_10 H178_7 1_555 1_555
Cd16_4 O2_6 1_555 1_555
O2_6 C1_6 1_555 1_555
O4_11 Cd16_4 1_555 1_555
C1_6 C2_6 1_555 1_555
C2_6 C3_6 1_555 1_555
C3_6 H1_6 1_555 1_555
C4_6 C3_6 1_555 1_555
C5_6 C4_6 1_555 1_555
C6_6 C5_6 1_555 1_555
H2_6 C6_6 1_555 1_555
C7_6 C2_6 1_555 1_555
H3_6 C7_6 1_555 1_555
C8_6 C5_6 1_555 1_555
C9_6 C8_6 1_555 1_555
C10_6 C4_6 1_555 1_555
C11_6 C10_6 1_555 1_555
H4_6 C11_6 1_555 1_555
H5_6 C11_6 1_555 1_555
C12_6 C11_6 1_555 1_555
H6_6 C12_6 1_555 1_555
H7_6 C12_6 1_555 1_555
H8_6 C12_6 1_555 1_555
C13_6 C10_6 1_555 1_555
H9_6 C13_6 1_555 1_555
H10_6 C13_6 1_555 1_555
C14_6 C13_6 1_555 1_555
H11_6 C14_6 1_555 1_555
H12_6 C14_6 1_555 1_555
H13_6 C14_6 1_555 1_555
O5_11 Cd16_4 1_555 1_555
C15_11 O5_11 1_555 1_555
H14_11 O5_11 1_555 1_555
Cd3_8 O4_11 1_555 1_555
Cd5_8 O4_11 1_555 1_555
Cd5_9 O7_6 1_555 1_555
Cd13_3 O24_6 1_555 1_555
Cd7_7 O8_6 1_555 1_555
Cd8_9 O25_6 1_555 1_555
Cd8_7 O20_5 1_555 1_555
Cd17_7 O19_5 1_555 1_555
Cd18_7 O35_5 1_555 1_555
O6_8 Cd16_4 1_555 1_555
O7_6 C17_6 1_555 1_555
O8_6 C18_6 1_555 1_555
O9_8 Cd6_8 1_555 1_555
O11_8 Cd5_8 1_555 1_555
O13_5 Cd3_8 1_555 1_555
O14_8 Cd3_8 1_555 1_555
O19_5 C25_5 1_555 1_555
O20_5 C26_5 1_555 1_555
O21_8 Cd16_4 1_555 1_555
O22_8 Cd16_4 1_555 1_555
O23_6 Cd16_4 1_555 1_555
O24_6 Cd5_9 1_555 1_555
O25_6 Cd7_7 1_555 1_555
O26_8 Cd6_8 1_555 1_555
O28_5 Cd3_8 1_555 1_555
O29_8 Cd3_8 1_555 1_555
O34_5 Cd7_7 1_555 1_555
O35_5 Cd8_7 1_555 1_555
C17_6 O24_6 1_555 1_555
C18_6 O25_6 1_555 1_555
C24_5 O13_5 1_555 1_555
C25_5 O34_5 1_555 1_555
C26_5 O35_5 1_555 1_555
C27_6 C17_6 1_555 1_555
C28_6 C18_6 1_555 1_555
C35_5 C24_5 1_555 1_555
C36_5 C25_5 1_555 1_555
C37_5 C26_5 1_555 1_555
C38_6 C27_6 1_555 1_555
C39_6 C28_6 1_555 1_555
C46_5 C35_5 1_555 1_555
C47_5 C36_5 1_555 1_555
C48_5 C37_5 1_555 1_555
H15_6 C38_6 1_555 1_555
H16_6 C39_6 1_555 1_555
H23_5 C46_5 1_555 1_555
H24_5 C47_5 1_555 1_555
H25_5 C48_5 1_555 1_555
C49_6 C38_6 1_555 1_555
C50_6 C39_6 1_555 1_555
C57_5 C46_5 1_555 1_555
C58_5 C47_5 1_555 1_555
C59_5 C48_5 1_555 1_555
C60_6 C49_6 1_555 1_555
C61_6 C50_6 1_555 1_555
C68_5 C57_5 1_555 1_555
C69_5 C59_5 1_555 1_555
C70_5 C58_5 1_555 1_555
C71_6 C60_6 1_555 1_555
C72_6 C61_6 1_555 1_555
C79_5 C68_5 1_555 1_555
C80_5 C69_5 1_555 1_555
C81_5 C70_5 1_555 1_555
H26_6 C71_6 1_555 1_555
H27_6 C72_6 1_555 1_555
H34_5 C79_5 1_555 1_555
H35_5 C80_5 1_555 1_555
H36_5 C81_5 1_555 1_555
C82_6 C27_6 1_555 1_555
C83_6 C28_6 1_555 1_555
C90_5 C35_5 1_555 1_555
C91_5 C37_5 1_555 1_555
C92_5 C36_5 1_555 1_555
H37_6 C82_6 1_555 1_555
H38_6 C83_6 1_555 1_555
H45_5 C90_5 1_555 1_555
H46_5 C91_5 1_555 1_555
H47_5 C92_5 1_555 1_555
C93_6 C9_6 1_555 1_555
C94_6 C61_6 1_555 1_555
C101_5 C68_5 1_555 1_555
C102_5 C69_5 1_555 1_555
C103_5 C70_5 1_555 1_555
C104_6 C8_6 1_555 1_555
C105_6 C93_6 1_555 1_555
C112_5 C101_5 1_555 1_555
C113_5 C101_5 1_555 1_555
C114_5 C102_5 1_555 1_555
C115_6 C9_6 1_555 1_555
C116_6 C50_6 1_555 1_555
C123_5 C57_5 1_555 1_555
C124_5 C58_5 1_555 1_555
C125_5 C59_5 1_555 1_555
C126_6 C115_6 1_555 1_555
C127_6 C116_6 1_555 1_555
C134_5 C123_5 1_555 1_555
C135_5 C124_5 1_555 1_555
C136_5 C125_5 1_555 1_555
H48_6 C126_6 1_555 1_555
H49_6 C127_6 1_555 1_555
H56_5 C134_5 1_555 1_555
H57_5 C135_5 1_555 1_555
H58_5 C136_5 1_555 1_555
H59_6 C126_6 1_555 1_555
H60_6 C127_6 1_555 1_555
H67_5 C134_5 1_555 1_555
H68_5 C135_5 1_555 1_555
H69_5 C136_5 1_555 1_555
C137_6 C126_6 1_555 1_555
C138_6 C127_6 1_555 1_555
C145_5 C134_5 1_555 1_555
C146_5 C135_5 1_555 1_555
C147_5 C136_5 1_555 1_555
H70_6 C137_6 1_555 1_555
H71_6 C138_6 1_555 1_555
H78_5 C145_5 1_555 1_555
H79_5 C146_5 1_555 1_555
H80_5 C147_5 1_555 1_555
H81_6 C137_6 1_555 1_555
H82_6 C138_6 1_555 1_555
H89_5 C145_5 1_555 1_555
H90_5 C146_5 1_555 1_555
H91_5 C147_5 1_555 1_555
H92_6 C137_6 1_555 1_555
H93_6 C138_6 1_555 1_555
H100_5 C145_5 1_555 1_555
H101_5 C146_5 1_555 1_555
H102_5 C147_5 1_555 1_555
C148_6 C115_6 1_555 1_555
C149_6 C116_6 1_555 1_555
C156_5 C123_5 1_555 1_555
C157_5 C124_5 1_555 1_555
C158_5 C125_5 1_555 1_555
H103_6 C148_6 1_555 1_555
H104_6 C149_6 1_555 1_555
H111_5 C156_5 1_555 1_555
H112_5 C157_5 1_555 1_555
H113_5 C158_5 1_555 1_555
H114_6 C148_6 1_555 1_555
H115_6 C149_6 1_555 1_555
H122_5 C156_5 1_555 1_555
H123_5 C157_5 1_555 1_555
H124_5 C158_5 1_555 1_555
C159_6 C148_6 1_555 1_555
C160_6 C149_6 1_555 1_555
C167_5 C156_5 1_555 1_555
C168_5 C157_5 1_555 1_555
C169_5 C158_5 1_555 1_555
H125_6 C159_6 1_555 1_555
H126_6 C160_6 1_555 1_555
H133_5 C167_5 1_555 1_555
H134_5 C168_5 1_555 1_555
H135_5 C169_5 1_555 1_555
H136_6 C159_6 1_555 1_555
H137_6 C160_6 1_555 1_555
H144_5 C167_5 1_555 1_555
H145_5 C168_5 1_555 1_555
H146_5 C169_5 1_555 1_555
H147_6 C159_6 1_555 1_555
H148_6 C160_6 1_555 1_555
H155_5 C167_5 1_555 1_555
H156_5 C168_5 1_555 1_555
H157_5 C169_5 1_555 1_555
O36_11 Cd6_8 1_555 1_555
O37_11 Cd5_8 1_555 1_555
O38_11 Cd3_8 1_555 1_555
C170_11 O37_11 1_555 1_555
C171_11 O36_11 1_555 1_555
C172_11 O38_11 1_555 1_555
H158_11 O37_11 1_555 1_555
H159_11 O36_11 1_555 1_555
H160_11 O38_11 1_555 1_555
O4_11 Cd6_8 1_555 1_555
C1_6 O23_6 1_555 1_555
C6_6 C7_6 1_555 1_555
C10_6 C104_6 1_555 1_555
Cd6_8 O22_8 1_555 1_555
Cd3_8 O21_8 1_555 1_555
Cd3_8 O23_6 1_555 1_555
Cd5_8 O26_8 1_555 1_555
Cd5_8 O28_5 1_555 1_555
Cd5_8 O29_8 1_555 1_555
Cd17_7 O34_5 1_555 1_555
O28_5 C24_5 1_555 1_555
C49_6 C115_6 1_555 1_555
C60_6 C93_6 1_555 1_555
C71_6 C82_6 1_555 1_555
C72_6 C83_6 1_555 1_555
C79_5 C90_5 1_555 1_555
C80_5 C91_5 1_555 1_555
C81_5 C92_5 1_555 1_555
C94_6 C104_6 1_555 1_555
C94_6 C105_6 1_555 1_555
C102_5 C112_5 1_555 1_555
C103_5 C113_5 1_555 1_555
C103_5 C114_5 1_555 1_555
C105_6 C116_6 1_555 1_555
C112_5 C123_5 1_555 1_555
C113_5 C124_5 1_555 1_555
C114_5 C125_5 1_555 1_555
C171_11 H164_8 1_555 1_555
C171_11 H165_11 1_555 1_555
C171_11 H166_8 1_555 1_555
C172_11 H167_8 1_555 1_555
C172_11 H168_11 1_555 1_555
C172_11 H169_8 1_555 1_555
C170_11 H170_8 1_555 1_555
C170_11 H171_11 1_555 1_555
C170_11 H172_8 1_555 1_555
C15_11 H176_8 1_555 1_555
C15_11 H177_11 1_555 1_555
C15_11 H178_8 1_555 1_555
Cd16_3 O2_7 1_555 1_555
O2_7 C1_7 1_555 1_555
O4_12 Cd16_3 1_555 1_555
C1_7 C2_7 1_555 1_555
C2_7 C3_7 1_555 1_555
C3_7 H1_7 1_555 1_555
C4_7 C3_7 1_555 1_555
C5_7 C4_7 1_555 1_555
C6_7 C5_7 1_555 1_555
H2_7 C6_7 1_555 1_555
C7_7 C2_7 1_555 1_555
H3_7 C7_7 1_555 1_555
C8_7 C5_7 1_555 1_555
C9_7 C8_7 1_555 1_555
C10_7 C4_7 1_555 1_555
C11_7 C10_7 1_555 1_555
H4_7 C11_7 1_555 1_555
H5_7 C11_7 1_555 1_555
C12_7 C11_7 1_555 1_555
H6_7 C12_7 1_555 1_555
H7_7 C12_7 1_555 1_555
H8_7 C12_7 1_555 1_555
C13_7 C10_7 1_555 1_555
H9_7 C13_7 1_555 1_555
H10_7 C13_7 1_555 1_555
C14_7 C13_7 1_555 1_555
H11_7 C14_7 1_555 1_555
H12_7 C14_7 1_555 1_555
H13_7 C14_7 1_555 1_555
O5_12 Cd16_3 1_555 1_555
C15_12 O5_12 1_555 1_555
H14_12 O5_12 1_555 1_555
Cd9_3 O4_12 1_555 1_555
Cd10_3 O4_12 1_555 1_555
Cd5_10 O7_7 1_555 1_555
Cd6_9 O24_7 1_555 1_555
Cd12_5 O8_7 1_555 1_555
Cd8_10 O25_7 1_555 1_555
O6_9 Cd16_3 1_555 1_555
O7_7 C17_7 1_555 1_555
O8_7 C18_7 1_555 1_555
O9_9 Cd18_3 1_555 1_555
O11_9 Cd10_3 1_555 1_555
O14_9 Cd9_3 1_555 1_555
O21_9 Cd16_3 1_555 1_555
O22_9 Cd16_3 1_555 1_555
O23_7 Cd16_3 1_555 1_555
O24_7 Cd5_10 1_555 1_555
O25_7 Cd12_5 1_555 1_555
O26_9 Cd18_3 1_555 1_555
O29_9 Cd9_3 1_555 1_555
C17_7 O24_7 1_555 1_555
C18_7 O25_7 1_555 1_555
C27_7 C17_7 1_555 1_555
C28_7 C18_7 1_555 1_555
C38_7 C27_7 1_555 1_555
C39_7 C28_7 1_555 1_555
H15_7 C38_7 1_555 1_555
H16_7 C39_7 1_555 1_555
C49_7 C38_7 1_555 1_555
C50_7 C39_7 1_555 1_555
C60_7 C49_7 1_555 1_555
C61_7 C50_7 1_555 1_555
C71_7 C60_7 1_555 1_555
C72_7 C61_7 1_555 1_555
H26_7 C71_7 1_555 1_555
H27_7 C72_7 1_555 1_555
C82_7 C27_7 1_555 1_555
C83_7 C28_7 1_555 1_555
H37_7 C82_7 1_555 1_555
H38_7 C83_7 1_555 1_555
C93_7 C9_7 1_555 1_555
C94_7 C61_7 1_555 1_555
C104_7 C8_7 1_555 1_555
C105_7 C93_7 1_555 1_555
C115_7 C9_7 1_555 1_555
C116_7 C50_7 1_555 1_555
C126_7 C115_7 1_555 1_555
C127_7 C116_7 1_555 1_555
H48_7 C126_7 1_555 1_555
H49_7 C127_7 1_555 1_555
H59_7 C126_7 1_555 1_555
H60_7 C127_7 1_555 1_555
C137_7 C126_7 1_555 1_555
C138_7 C127_7 1_555 1_555
H70_7 C137_7 1_555 1_555
H71_7 C138_7 1_555 1_555
H81_7 C137_7 1_555 1_555
H82_7 C138_7 1_555 1_555
H92_7 C137_7 1_555 1_555
H93_7 C138_7 1_555 1_555
C148_7 C115_7 1_555 1_555
C149_7 C116_7 1_555 1_555
H103_7 C148_7 1_555 1_555
H104_7 C149_7 1_555 1_555
H114_7 C148_7 1_555 1_555
H115_7 C149_7 1_555 1_555
C159_7 C148_7 1_555 1_555
C160_7 C149_7 1_555 1_555
H125_7 C159_7 1_555 1_555
H126_7 C160_7 1_555 1_555
H136_7 C159_7 1_555 1_555
H137_7 C160_7 1_555 1_555
H147_7 C159_7 1_555 1_555
H148_7 C160_7 1_555 1_555
O36_12 Cd18_3 1_555 1_555
O37_12 Cd10_3 1_555 1_555
O38_12 Cd9_3 1_555 1_555
C170_12 O37_12 1_555 1_555
C171_12 O36_12 1_555 1_555
C172_12 O38_12 1_555 1_555
H158_12 O37_12 1_555 1_555
H159_12 O36_12 1_555 1_555
H160_12 O38_12 1_555 1_555
O4_12 Cd18_3 1_555 1_555
C1_7 O23_7 1_555 1_555
C6_7 C7_7 1_555 1_555
C10_7 C104_7 1_555 1_555
Cd18_3 O22_9 1_555 1_555
Cd9_3 O21_9 1_555 1_555
Cd9_3 O23_7 1_555 1_555
Cd10_3 O26_9 1_555 1_555
Cd10_3 O29_9 1_555 1_555
C49_7 C115_7 1_555 1_555
C60_7 C93_7 1_555 1_555
C71_7 C82_7 1_555 1_555
C72_7 C83_7 1_555 1_555
C94_7 C104_7 1_555 1_555
C94_7 C105_7 1_555 1_555
C105_7 C116_7 1_555 1_555
C171_12 H164_9 1_555 1_555
C171_12 H165_12 1_555 1_555
C171_12 H166_9 1_555 1_555
C172_12 H167_9 1_555 1_555
C172_12 H168_12 1_555 1_555
C172_12 H169_9 1_555 1_555
C170_12 H170_9 1_555 1_555
C170_12 H171_12 1_555 1_555
C170_12 H172_9 1_555 1_555
C15_12 H176_9 1_555 1_555
C15_12 H177_12 1_555 1_555
C15_12 H178_9 1_555 1_555
O4_13 Cd14_3 1_555 1_555
O5_13 Cd14_3 1_555 1_555
C15_13 O5_13 1_555 1_555
H14_13 O5_13 1_555 1_555
Cd12_7 O4_13 1_555 1_555
Cd5_9 O4_13 1_555 1_555
Cd8_9 O20_6 1_555 1_555
Cd17_9 O19_6 1_555 1_555
Cd18_9 O35_6 1_555 1_555
O6_10 Cd14_3 1_555 1_555
O9_10 Cd13_3 1_555 1_555
O11_10 Cd5_9 1_555 1_555
O13_6 Cd12_7 1_555 1_555
O14_10 Cd12_7 1_555 1_555
O19_6 C25_6 1_555 1_555
O20_6 C26_6 1_555 1_555
O21_10 Cd14_3 1_555 1_555
O22_10 Cd14_3 1_555 1_555
O26_10 Cd13_3 1_555 1_555
O28_6 Cd12_7 1_555 1_555
O29_10 Cd12_7 1_555 1_555
O34_6 Cd9_5 1_555 1_555
O35_6 Cd8_9 1_555 1_555
C24_6 O13_6 1_555 1_555
C25_6 O34_6 1_555 1_555
C26_6 O35_6 1_555 1_555
C35_6 C24_6 1_555 1_555
C36_6 C25_6 1_555 1_555
C37_6 C26_6 1_555 1_555
C46_6 C35_6 1_555 1_555
C47_6 C36_6 1_555 1_555
C48_6 C37_6 1_555 1_555
H23_6 C46_6 1_555 1_555
H24_6 C47_6 1_555 1_555
H25_6 C48_6 1_555 1_555
C57_6 C46_6 1_555 1_555
C58_6 C47_6 1_555 1_555
C59_6 C48_6 1_555 1_555
C68_6 C57_6 1_555 1_555
C69_6 C59_6 1_555 1_555
C70_6 C58_6 1_555 1_555
C79_6 C68_6 1_555 1_555
C80_6 C69_6 1_555 1_555
C81_6 C70_6 1_555 1_555
H34_6 C79_6 1_555 1_555
H35_6 C80_6 1_555 1_555
H36_6 C81_6 1_555 1_555
C90_6 C35_6 1_555 1_555
C91_6 C37_6 1_555 1_555
C92_6 C36_6 1_555 1_555
H45_6 C90_6 1_555 1_555
H46_6 C91_6 1_555 1_555
H47_6 C92_6 1_555 1_555
C101_6 C68_6 1_555 1_555
C102_6 C69_6 1_555 1_555
C103_6 C70_6 1_555 1_555
C112_6 C101_6 1_555 1_555
C113_6 C101_6 1_555 1_555
C114_6 C102_6 1_555 1_555
C123_6 C57_6 1_555 1_555
C124_6 C58_6 1_555 1_555
C125_6 C59_6 1_555 1_555
C134_6 C123_6 1_555 1_555
C135_6 C124_6 1_555 1_555
C136_6 C125_6 1_555 1_555
H56_6 C134_6 1_555 1_555
H57_6 C135_6 1_555 1_555
H58_6 C136_6 1_555 1_555
H67_6 C134_6 1_555 1_555
H68_6 C135_6 1_555 1_555
H69_6 C136_6 1_555 1_555
C145_6 C134_6 1_555 1_555
C146_6 C135_6 1_555 1_555
C147_6 C136_6 1_555 1_555
H78_6 C145_6 1_555 1_555
H79_6 C146_6 1_555 1_555
H80_6 C147_6 1_555 1_555
H89_6 C145_6 1_555 1_555
H90_6 C146_6 1_555 1_555
H91_6 C147_6 1_555 1_555
H100_6 C145_6 1_555 1_555
H101_6 C146_6 1_555 1_555
H102_6 C147_6 1_555 1_555
C156_6 C123_6 1_555 1_555
C157_6 C124_6 1_555 1_555
C158_6 C125_6 1_555 1_555
H111_6 C156_6 1_555 1_555
H112_6 C157_6 1_555 1_555
H113_6 C158_6 1_555 1_555
H122_6 C156_6 1_555 1_555
H123_6 C157_6 1_555 1_555
H124_6 C158_6 1_555 1_555
C167_6 C156_6 1_555 1_555
C168_6 C157_6 1_555 1_555
C169_6 C158_6 1_555 1_555
H133_6 C167_6 1_555 1_555
H134_6 C168_6 1_555 1_555
H135_6 C169_6 1_555 1_555
H144_6 C167_6 1_555 1_555
H145_6 C168_6 1_555 1_555
H146_6 C169_6 1_555 1_555
H155_6 C167_6 1_555 1_555
H156_6 C168_6 1_555 1_555
H157_6 C169_6 1_555 1_555
O36_13 Cd13_3 1_555 1_555
O37_13 Cd5_9 1_555 1_555
O38_13 Cd12_7 1_555 1_555
C170_13 O37_13 1_555 1_555
C171_13 O36_13 1_555 1_555
C172_13 O38_13 1_555 1_555
H158_13 O37_13 1_555 1_555
H159_13 O36_13 1_555 1_555
H160_13 O38_13 1_555 1_555
O4_13 Cd13_3 1_555 1_555
Cd13_3 O22_10 1_555 1_555
Cd12_7 O21_10 1_555 1_555
Cd5_9 O26_10 1_555 1_555
Cd5_9 O28_6 1_555 1_555
Cd5_9 O29_10 1_555 1_555
Cd17_9 O34_6 1_555 1_555
O28_6 C24_6 1_555 1_555
C79_6 C90_6 1_555 1_555
C80_6 C91_6 1_555 1_555
C81_6 C92_6 1_555 1_555
C102_6 C112_6 1_555 1_555
C103_6 C113_6 1_555 1_555
C103_6 C114_6 1_555 1_555
C112_6 C123_6 1_555 1_555
C113_6 C124_6 1_555 1_555
C114_6 C125_6 1_555 1_555
C171_13 H164_10 1_555 1_555
C171_13 H165_13 1_555 1_555
C171_13 H166_10 1_555 1_555
C172_13 H167_10 1_555 1_555
C172_13 H168_13 1_555 1_555
C172_13 H169_10 1_555 1_555
C170_13 H170_10 1_555 1_555
C170_13 H171_13 1_555 1_555
C170_13 H172_10 1_555 1_555
C15_13 H176_10 1_555 1_555
C15_13 H177_13 1_555 1_555
C15_13 H178_10 1_555 1_555
O4_14 Cd17 1_555 1_555
O5_14 Cd17 1_555 1_555
C15_14 O5_14 1_555 1_555
H14_14 O5_14 1_555 1_555
Cd7 O4_14 1_555 1_555
Cd8 O4_14 1_555 1_555
Cd9_10 O15_7 1_555 1_555
Cd11_9 O16_7 1_555 1_555
Cd12_10 O31_7 1_555 1_555
O6_11 Cd17 1_555 1_555
O9_11 Cd13_4 1_555 1_555
O11_11 Cd8 1_555 1_555
O12_7 Cd8 1_555 1_555
O14_11 Cd7 1_555 1_555
O15_7 C20_7 1_555 1_555
O16_7 C21_7 1_555 1_555
O21_11 Cd17 1_555 1_555
O22_11 Cd17 1_555 1_555
O26_11 Cd13_4 1_555 1_555
O27_7 Cd13_4 1_555 1_555
O29_11 Cd7 1_555 1_555
O30_7 Cd9_10 1_555 1_555
O31_7 Cd11_9 1_555 1_555
C19_7 O12_7 1_555 1_555
C20_7 O30_7 1_555 1_555
C21_7 O31_7 1_555 1_555
C29_7 C19_7 1_555 1_555
C30_7 C20_7 1_555 1_555
C31_7 C21_7 1_555 1_555
C40_7 C29_7 1_555 1_555
C41_7 C30_7 1_555 1_555
C42_7 C31_7 1_555 1_555
H17_7 C40_7 1_555 1_555
H18_7 C41_7 1_555 1_555
H19_7 C42_7 1_555 1_555
C51_7 C40_7 1_555 1_555
C52_7 C41_7 1_555 1_555
C53_7 C42_7 1_555 1_555
C62_7 C51_7 1_555 1_555
C63_7 C53_7 1_555 1_555
C64_7 C52_7 1_555 1_555
C73_7 C62_7 1_555 1_555
C74_7 C63_7 1_555 1_555
C75_7 C64_7 1_555 1_555
H28_7 C73_7 1_555 1_555
H29_7 C74_7 1_555 1_555
H30_7 C75_7 1_555 1_555
C84_7 C29_7 1_555 1_555
C85_7 C31_7 1_555 1_555
C86_7 C30_7 1_555 1_555
H39_7 C84_7 1_555 1_555
H40_7 C85_7 1_555 1_555
H41_7 C86_7 1_555 1_555
C95_7 C62_7 1_555 1_555
C96_7 C63_7 1_555 1_555
C97_7 C64_7 1_555 1_555
C106_7 C95_7 1_555 1_555
C107_7 C95_7 1_555 1_555
C108_7 C96_7 1_555 1_555
C117_7 C51_7 1_555 1_555
C118_7 C52_7 1_555 1_555
C119_7 C53_7 1_555 1_555
C128_7 C117_7 1_555 1_555
C129_7 C118_7 1_555 1_555
C130_7 C119_7 1_555 1_555
H50_7 C128_7 1_555 1_555
H51_7 C129_7 1_555 1_555
H52_7 C130_7 1_555 1_555
H61_7 C128_7 1_555 1_555
H62_7 C129_7 1_555 1_555
H63_7 C130_7 1_555 1_555
C139_7 C128_7 1_555 1_555
C140_7 C129_7 1_555 1_555
C141_7 C130_7 1_555 1_555
H72_7 C139_7 1_555 1_555
H73_7 C140_7 1_555 1_555
H74_7 C141_7 1_555 1_555
H83_7 C139_7 1_555 1_555
H84_7 C140_7 1_555 1_555
H85_7 C141_7 1_555 1_555
H94_7 C139_7 1_555 1_555
H95_7 C140_7 1_555 1_555
H96_7 C141_7 1_555 1_555
C150_7 C117_7 1_555 1_555
C151_7 C118_7 1_555 1_555
C152_7 C119_7 1_555 1_555
H105_7 C150_7 1_555 1_555
H106_7 C151_7 1_555 1_555
H107_7 C152_7 1_555 1_555
H116_7 C150_7 1_555 1_555
H117_7 C151_7 1_555 1_555
H118_7 C152_7 1_555 1_555
C161_7 C150_7 1_555 1_555
C162_7 C151_7 1_555 1_555
C163_7 C152_7 1_555 1_555
H127_7 C161_7 1_555 1_555
H128_7 C162_7 1_555 1_555
H129_7 C163_7 1_555 1_555
H138_7 C161_7 1_555 1_555
H139_7 C162_7 1_555 1_555
H140_7 C163_7 1_555 1_555
H149_7 C161_7 1_555 1_555
H150_7 C162_7 1_555 1_555
H151_7 C163_7 1_555 1_555
O36_14 Cd13_4 1_555 1_555
O37_14 Cd8 1_555 1_555
O38_14 Cd7 1_555 1_555
C170_14 O37_14 1_555 1_555
C171_14 O36_14 1_555 1_555
C172_14 O38_14 1_555 1_555
H158_14 O37_14 1_555 1_555
H159_14 O36_14 1_555 1_555
H160_14 O38_14 1_555 1_555
O4_14 Cd13_4 1_555 1_555
Cd13_4 O22_11 1_555 1_555
Cd7 O21_11 1_555 1_555
Cd8 O26_11 1_555 1_555
Cd8 O27_7 1_555 1_555
Cd8 O29_11 1_555 1_555
Cd5 O30_7 1_555 1_555
O27_7 C19_7 1_555 1_555
C73_7 C84_7 1_555 1_555
C74_7 C85_7 1_555 1_555
C75_7 C86_7 1_555 1_555
C96_7 C106_7 1_555 1_555
C97_7 C107_7 1_555 1_555
C97_7 C108_7 1_555 1_555
C106_7 C117_7 1_555 1_555
C107_7 C118_7 1_555 1_555
C108_7 C119_7 1_555 1_555
C171_14 H164_11 1_555 1_555
C171_14 H165_14 1_555 1_555
C171_14 H166_11 1_555 1_555
C172_14 H167_11 1_555 1_555
C172_14 H168_14 1_555 1_555
C172_14 H169_11 1_555 1_555
C170_14 H170_11 1_555 1_555
C170_14 H171_14 1_555 1_555
C170_14 H172_11 1_555 1_555
C15_14 H176_11 1_555 1_555
C15_14 H177_14 1_555 1_555
C15_14 H178_11 1_555 1_555
Cd14_4 O2_8 1_555 1_555
O2_8 C1_8 1_555 1_555
O4_15 Cd14_4 1_555 1_555
C1_8 C2_8 1_555 1_555
C2_8 C3_8 1_555 1_555
C3_8 H1_8 1_555 1_555
C4_8 C3_8 1_555 1_555
C5_8 C4_8 1_555 1_555
C6_8 C5_8 1_555 1_555
H2_8 C6_8 1_555 1_555
C7_8 C2_8 1_555 1_555
H3_8 C7_8 1_555 1_555
C8_8 C5_8 1_555 1_555
C9_8 C8_8 1_555 1_555
C10_8 C4_8 1_555 1_555
C11_8 C10_8 1_555 1_555
H4_8 C11_8 1_555 1_555
H5_8 C11_8 1_555 1_555
C12_8 C11_8 1_555 1_555
H6_8 C12_8 1_555 1_555
H7_8 C12_8 1_555 1_555
H8_8 C12_8 1_555 1_555
C13_8 C10_8 1_555 1_555
H9_8 C13_8 1_555 1_555
H10_8 C13_8 1_555 1_555
C14_8 C13_8 1_555 1_555
H11_8 C14_8 1_555 1_555
H12_8 C14_8 1_555 1_555
H13_8 C14_8 1_555 1_555
O5_15 Cd14_4 1_555 1_555
C15_15 O5_15 1_555 1_555
H14_15 O5_15 1_555 1_555
Cd9_2 O4_15 1_555 1_555
Cd10_2 O4_15 1_555 1_555
Cd5_11 O7_8 1_555 1_555
Cd6_10 O24_8 1_555 1_555
Cd12_3 O8_8 1_555 1_555
Cd8_12 O25_8 1_555 1_555
O6_12 Cd14_4 1_555 1_555
O7_8 C17_8 1_555 1_555
O8_8 C18_8 1_555 1_555
O9_12 Cd18_2 1_555 1_555
O11_12 Cd10_2 1_555 1_555
O14_12 Cd9_2 1_555 1_555
O21_12 Cd14_4 1_555 1_555
O22_12 Cd14_4 1_555 1_555
O23_8 Cd14_4 1_555 1_555
O24_8 Cd5_11 1_555 1_555
O25_8 Cd12_3 1_555 1_555
O26_12 Cd18_2 1_555 1_555
O29_12 Cd9_2 1_555 1_555
C17_8 O24_8 1_555 1_555
C18_8 O25_8 1_555 1_555
C27_8 C17_8 1_555 1_555
C28_8 C18_8 1_555 1_555
C38_8 C27_8 1_555 1_555
C39_8 C28_8 1_555 1_555
H15_8 C38_8 1_555 1_555
H16_8 C39_8 1_555 1_555
C49_8 C38_8 1_555 1_555
C50_8 C39_8 1_555 1_555
C60_8 C49_8 1_555 1_555
C61_8 C50_8 1_555 1_555
C71_8 C60_8 1_555 1_555
C72_8 C61_8 1_555 1_555
H26_8 C71_8 1_555 1_555
H27_8 C72_8 1_555 1_555
C82_8 C27_8 1_555 1_555
C83_8 C28_8 1_555 1_555
H37_8 C82_8 1_555 1_555
H38_8 C83_8 1_555 1_555
C93_8 C9_8 1_555 1_555
C94_8 C61_8 1_555 1_555
C104_8 C8_8 1_555 1_555
C105_8 C93_8 1_555 1_555
C115_8 C9_8 1_555 1_555
C116_8 C50_8 1_555 1_555
C126_8 C115_8 1_555 1_555
C127_8 C116_8 1_555 1_555
H48_8 C126_8 1_555 1_555
H49_8 C127_8 1_555 1_555
H59_8 C126_8 1_555 1_555
H60_8 C127_8 1_555 1_555
C137_8 C126_8 1_555 1_555
C138_8 C127_8 1_555 1_555
H70_8 C137_8 1_555 1_555
H71_8 C138_8 1_555 1_555
H81_8 C137_8 1_555 1_555
H82_8 C138_8 1_555 1_555
H92_8 C137_8 1_555 1_555
H93_8 C138_8 1_555 1_555
C148_8 C115_8 1_555 1_555
C149_8 C116_8 1_555 1_555
H103_8 C148_8 1_555 1_555
H104_8 C149_8 1_555 1_555
H114_8 C148_8 1_555 1_555
H115_8 C149_8 1_555 1_555
C159_8 C148_8 1_555 1_555
C160_8 C149_8 1_555 1_555
H125_8 C159_8 1_555 1_555
H126_8 C160_8 1_555 1_555
H136_8 C159_8 1_555 1_555
H137_8 C160_8 1_555 1_555
H147_8 C159_8 1_555 1_555
H148_8 C160_8 1_555 1_555
O36_15 Cd18_2 1_555 1_555
O37_15 Cd10_2 1_555 1_555
O38_15 Cd9_2 1_555 1_555
C170_15 O37_15 1_555 1_555
C171_15 O36_15 1_555 1_555
C172_15 O38_15 1_555 1_555
H158_15 O37_15 1_555 1_555
H159_15 O36_15 1_555 1_555
H160_15 O38_15 1_555 1_555
O4_15 Cd18_2 1_555 1_555
C1_8 O23_8 1_555 1_555
C6_8 C7_8 1_555 1_555
C10_8 C104_8 1_555 1_555
Cd18_2 O22_12 1_555 1_555
Cd9_2 O21_12 1_555 1_555
Cd9_2 O23_8 1_555 1_555
Cd10_2 O26_12 1_555 1_555
Cd10_2 O29_12 1_555 1_555
C49_8 C115_8 1_555 1_555
C60_8 C93_8 1_555 1_555
C71_8 C82_8 1_555 1_555
C72_8 C83_8 1_555 1_555
C94_8 C104_8 1_555 1_555
C94_8 C105_8 1_555 1_555
C105_8 C116_8 1_555 1_555
C171_15 H164_12 1_555 1_555
C171_15 H165_15 1_555 1_555
C171_15 H166_12 1_555 1_555
C172_15 H167_12 1_555 1_555
C172_15 H168_15 1_555 1_555
C172_15 H169_12 1_555 1_555
C170_15 H170_12 1_555 1_555
C170_15 H171_15 1_555 1_555
C170_15 H172_12 1_555 1_555
C15_15 H176_12 1_555 1_555
C15_15 H177_15 1_555 1_555
C15_15 H178_12 1_555 1_555
O3_5 Cd10_4 1_555 1_555
O4_16 Cd10_4 1_555 1_555
O5_16 Cd10_4 1_555 1_555
C15_16 O5_16 1_555 1_555
H14_16 O5_16 1_555 1_555
Cd9_4 O3_5 1_555 1_555
Cd18_4 O4_16 1_555 1_555
Cd17_8 O4_16 1_555 1_555
O6_13 Cd10_4 1_555 1_555
O10_5 Cd9_4 1_555 1_555
O11_13 Cd17_8 1_555 1_555
O14_13 Cd18_4 1_555 1_555
O6_12 C22_5 1_555 1_555
O11_6 C23_5 1_555 1_555
O21_13 Cd10_4 1_555 1_555
O26_13 Cd9_4 1_555 1_555
O29_13 Cd18_4 1_555 1_555
C16_5 O3_5 1_555 1_555
C22_5 O21_12 1_555 1_555
C23_5 O26_6 1_555 1_555
C32_5 C16_5 1_555 1_555
C33_5 C22_5 1_555 1_555
C34_5 C23_5 1_555 1_555
C43_5 C32_5 1_555 1_555
C44_5 C33_5 1_555 1_555
C45_5 C34_5 1_555 1_555
H20_5 C43_5 1_555 1_555
H21_5 C44_5 1_555 1_555
H22_5 C45_5 1_555 1_555
C54_5 C43_5 1_555 1_555
C55_5 C44_5 1_555 1_555
C56_5 C45_5 1_555 1_555
C65_5 C54_5 1_555 1_555
C66_5 C56_5 1_555 1_555
C67_5 C55_5 1_555 1_555
C76_5 C65_5 1_555 1_555
C77_5 C66_5 1_555 1_555
C78_5 C67_5 1_555 1_555
H31_5 C76_5 1_555 1_555
H32_5 C77_5 1_555 1_555
H33_5 C78_5 1_555 1_555
C87_5 C32_5 1_555 1_555
C88_5 C34_5 1_555 1_555
C89_5 C33_5 1_555 1_555
H42_5 C87_5 1_555 1_555
H43_5 C88_5 1_555 1_555
H44_5 C89_5 1_555 1_555
C98_5 C65_5 1_555 1_555
C99_5 C66_5 1_555 1_555
C100_5 C67_5 1_555 1_555
C109_5 C98_5 1_555 1_555
C110_5 C98_5 1_555 1_555
C111_5 C99_5 1_555 1_555
C120_5 C54_5 1_555 1_555
C121_5 C55_5 1_555 1_555
C122_5 C56_5 1_555 1_555
C131_5 C120_5 1_555 1_555
C132_5 C121_5 1_555 1_555
C133_5 C122_5 1_555 1_555
H53_5 C131_5 1_555 1_555
H54_5 C132_5 1_555 1_555
H55_5 C133_5 1_555 1_555
H64_5 C131_5 1_555 1_555
H65_5 C132_5 1_555 1_555
H66_5 C133_5 1_555 1_555
C142_5 C131_5 1_555 1_555
C143_5 C132_5 1_555 1_555
C144_5 C133_5 1_555 1_555
H75_5 C142_5 1_555 1_555
H76_5 C143_5 1_555 1_555
H77_5 C144_5 1_555 1_555
H86_5 C142_5 1_555 1_555
H87_5 C143_5 1_555 1_555
H88_5 C144_5 1_555 1_555
H97_5 C142_5 1_555 1_555
H98_5 C143_5 1_555 1_555
H99_5 C144_5 1_555 1_555
C153_5 C120_5 1_555 1_555
C154_5 C121_5 1_555 1_555
C155_5 C122_5 1_555 1_555
H108_5 C153_5 1_555 1_555
H109_5 C154_5 1_555 1_555
H110_5 C155_5 1_555 1_555
H119_5 C153_5 1_555 1_555
H120_5 C154_5 1_555 1_555
H121_5 C155_5 1_555 1_555
C164_5 C153_5 1_555 1_555
C165_5 C154_5 1_555 1_555
C166_5 C155_5 1_555 1_555
H130_5 C164_5 1_555 1_555
H131_5 C165_5 1_555 1_555
H132_5 C166_5 1_555 1_555
H141_5 C164_5 1_555 1_555
H142_5 C165_5 1_555 1_555
H143_5 C166_5 1_555 1_555
H152_5 C164_5 1_555 1_555
H153_5 C165_5 1_555 1_555
H154_5 C166_5 1_555 1_555
O36_16 Cd9_4 1_555 1_555
O37_16 Cd17_8 1_555 1_555
O38_16 Cd18_4 1_555 1_555
C170_16 O37_16 1_555 1_555
C171_16 O36_16 1_555 1_555
C172_16 O38_16 1_555 1_555
H158_16 O37_16 1_555 1_555
H159_16 O36_16 1_555 1_555
H160_16 O38_16 1_555 1_555
O4_16 Cd9_4 1_555 1_555
Cd18_4 O21_13 1_555 1_555
Cd17_8 O26_13 1_555 1_555
Cd17_8 O29_13 1_555 1_555
O10_5 C16_5 1_555 1_555
C76_5 C87_5 1_555 1_555
C77_5 C88_5 1_555 1_555
C78_5 C89_5 1_555 1_555
C99_5 C109_5 1_555 1_555
C100_5 C110_5 1_555 1_555
C100_5 C111_5 1_555 1_555
C109_5 C120_5 1_555 1_555
C110_5 C121_5 1_555 1_555
C111_5 C122_5 1_555 1_555
C171_16 H164_13 1_555 1_555
C171_16 H165_16 1_555 1_555
C172_16 H167_13 1_555 1_555
C172_16 H168_16 1_555 1_555
C170_16 H170_13 1_555 1_555
C170_16 H171_16 1_555 1_555
C15_16 H176_13 1_555 1_555
C15_16 H177_16 1_555 1_555
O4_17 Cd10_5 1_555 1_555
O5_17 Cd10_5 1_555 1_555
C15_17 O5_17 1_555 1_555
H14_17 O5_17 1_555 1_555
Cd18_5 O4_17 1_555 1_555
Cd17_9 O4_17 1_555 1_555
Cd18_9 O20_7 1_555 1_555
Cd18_7 O19_7 1_555 1_555
Cd17_7 O35_7 1_555 1_555
O13_7 Cd18_5 1_555 1_555
O19_7 C25_7 1_555 1_555
O20_7 C26_7 1_555 1_555
O28_7 Cd18_5 1_555 1_555
O34_7 Cd17_5 1_555 1_555
O35_7 Cd18_9 1_555 1_555
C24_7 O13_7 1_555 1_555
C25_7 O34_7 1_555 1_555
C26_7 O35_7 1_555 1_555
C35_7 C24_7 1_555 1_555
C36_7 C25_7 1_555 1_555
C37_7 C26_7 1_555 1_555
C46_7 C35_7 1_555 1_555
C47_7 C36_7 1_555 1_555
C48_7 C37_7 1_555 1_555
H23_7 C46_7 1_555 1_555
H24_7 C47_7 1_555 1_555
H25_7 C48_7 1_555 1_555
C57_7 C46_7 1_555 1_555
C58_7 C47_7 1_555 1_555
C59_7 C48_7 1_555 1_555
C68_7 C57_7 1_555 1_555
C69_7 C59_7 1_555 1_555
C70_7 C58_7 1_555 1_555
C79_7 C68_7 1_555 1_555
C80_7 C69_7 1_555 1_555
C81_7 C70_7 1_555 1_555
H34_7 C79_7 1_555 1_555
H35_7 C80_7 1_555 1_555
H36_7 C81_7 1_555 1_555
C90_7 C35_7 1_555 1_555
C91_7 C37_7 1_555 1_555
C92_7 C36_7 1_555 1_555
H45_7 C90_7 1_555 1_555
H46_7 C91_7 1_555 1_555
H47_7 C92_7 1_555 1_555
C101_7 C68_7 1_555 1_555
C102_7 C69_7 1_555 1_555
C103_7 C70_7 1_555 1_555
C112_7 C101_7 1_555 1_555
C113_7 C101_7 1_555 1_555
C114_7 C102_7 1_555 1_555
C123_7 C57_7 1_555 1_555
C124_7 C58_7 1_555 1_555
C125_7 C59_7 1_555 1_555
C134_7 C123_7 1_555 1_555
C135_7 C124_7 1_555 1_555
C136_7 C125_7 1_555 1_555
H56_7 C134_7 1_555 1_555
H57_7 C135_7 1_555 1_555
H58_7 C136_7 1_555 1_555
H67_7 C134_7 1_555 1_555
H68_7 C135_7 1_555 1_555
H69_7 C136_7 1_555 1_555
C145_7 C134_7 1_555 1_555
C146_7 C135_7 1_555 1_555
C147_7 C136_7 1_555 1_555
H78_7 C145_7 1_555 1_555
H79_7 C146_7 1_555 1_555
H80_7 C147_7 1_555 1_555
H89_7 C145_7 1_555 1_555
H90_7 C146_7 1_555 1_555
H91_7 C147_7 1_555 1_555
H100_7 C145_7 1_555 1_555
H101_7 C146_7 1_555 1_555
H102_7 C147_7 1_555 1_555
C156_7 C123_7 1_555 1_555
C157_7 C124_7 1_555 1_555
C158_7 C125_7 1_555 1_555
H111_7 C156_7 1_555 1_555
H112_7 C157_7 1_555 1_555
H113_7 C158_7 1_555 1_555
H122_7 C156_7 1_555 1_555
H123_7 C157_7 1_555 1_555
H124_7 C158_7 1_555 1_555
C167_7 C156_7 1_555 1_555
C168_7 C157_7 1_555 1_555
C169_7 C158_7 1_555 1_555
H133_7 C167_7 1_555 1_555
H134_7 C168_7 1_555 1_555
H135_7 C169_7 1_555 1_555
H144_7 C167_7 1_555 1_555
H145_7 C168_7 1_555 1_555
H146_7 C169_7 1_555 1_555
H155_7 C167_7 1_555 1_555
H156_7 C168_7 1_555 1_555
H157_7 C169_7 1_555 1_555
O36_17 Cd9_5 1_555 1_555
O37_17 Cd17_9 1_555 1_555
O38_17 Cd18_5 1_555 1_555
C170_17 O37_17 1_555 1_555
C171_17 O36_17 1_555 1_555
C172_17 O38_17 1_555 1_555
H158_17 O37_17 1_555 1_555
H159_17 O36_17 1_555 1_555
H160_17 O38_17 1_555 1_555
O4_17 Cd9_5 1_555 1_555
Cd17_9 O28_7 1_555 1_555
Cd18_7 O34_7 1_555 1_555
O28_7 C24_7 1_555 1_555
C79_7 C90_7 1_555 1_555
C80_7 C91_7 1_555 1_555
C81_7 C92_7 1_555 1_555
C102_7 C112_7 1_555 1_555
C103_7 C113_7 1_555 1_555
C103_7 C114_7 1_555 1_555
C112_7 C123_7 1_555 1_555
C113_7 C124_7 1_555 1_555
C114_7 C125_7 1_555 1_555
C171_17 H165_17 1_555 1_555
C171_17 H166_13 1_555 1_555
C172_17 H168_17 1_555 1_555
C172_17 H169_13 1_555 1_555
C170_17 H171_17 1_555 1_555
C170_17 H172_13 1_555 1_555
C15_17 H177_17 1_555 1_555
C15_17 H178_13 1_555 1_555
O9_6 C1_9 1_555 1_555
C1_9 C2_9 1_555 1_555
C2_9 C3_9 1_555 1_555
C3_9 H1_9 1_555 1_555
C4_9 C3_9 1_555 1_555
C5_9 C4_9 1_555 1_555
C6_9 C5_9 1_555 1_555
H2_9 C6_9 1_555 1_555
C7_9 C2_9 1_555 1_555
H3_9 C7_9 1_555 1_555
C8_9 C5_9 1_555 1_555
C9_9 C8_9 1_555 1_555
C10_9 C4_9 1_555 1_555
C11_9 C10_9 1_555 1_555
H4_9 C11_9 1_555 1_555
H5_9 C11_9 1_555 1_555
C12_9 C11_9 1_555 1_555
H6_9 C12_9 1_555 1_555
H7_9 C12_9 1_555 1_555
H8_9 C12_9 1_555 1_555
C13_9 C10_9 1_555 1_555
H9_9 C13_9 1_555 1_555
H10_9 C13_9 1_555 1_555
C14_9 C13_9 1_555 1_555
H11_9 C14_9 1_555 1_555
H12_9 C14_9 1_555 1_555
H13_9 C14_9 1_555 1_555
Cd6_9 O7_9 1_555 1_555
Cd11_7 O24_9 1_555 1_555
O7_9 C17_9 1_555 1_555
O9_9 C18_9 1_555 1_555
O24_9 Cd6_9 1_555 1_555
C17_9 O24_9 1_555 1_555
C18_9 O22_9 1_555 1_555
C27_9 C17_9 1_555 1_555
C28_9 C18_9 1_555 1_555
C38_9 C27_9 1_555 1_555
C39_9 C28_9 1_555 1_555
H15_9 C38_9 1_555 1_555
H16_9 C39_9 1_555 1_555
C49_9 C38_9 1_555 1_555
C50_9 C39_9 1_555 1_555
C60_9 C49_9 1_555 1_555
C61_9 C50_9 1_555 1_555
C71_9 C60_9 1_555 1_555
C72_9 C61_9 1_555 1_555
H26_9 C71_9 1_555 1_555
H27_9 C72_9 1_555 1_555
C82_9 C27_9 1_555 1_555
C83_9 C28_9 1_555 1_555
H37_9 C82_9 1_555 1_555
H38_9 C83_9 1_555 1_555
C93_9 C9_9 1_555 1_555
C94_9 C61_9 1_555 1_555
C104_9 C8_9 1_555 1_555
C105_9 C93_9 1_555 1_555
C115_9 C9_9 1_555 1_555
C116_9 C50_9 1_555 1_555
C126_9 C115_9 1_555 1_555
C127_9 C116_9 1_555 1_555
H48_9 C126_9 1_555 1_555
H49_9 C127_9 1_555 1_555
H59_9 C126_9 1_555 1_555
H60_9 C127_9 1_555 1_555
C137_9 C126_9 1_555 1_555
C138_9 C127_9 1_555 1_555
H70_9 C137_9 1_555 1_555
H71_9 C138_9 1_555 1_555
H81_9 C137_9 1_555 1_555
H82_9 C138_9 1_555 1_555
H92_9 C137_9 1_555 1_555
H93_9 C138_9 1_555 1_555
C148_9 C115_9 1_555 1_555
C149_9 C116_9 1_555 1_555
H103_9 C148_9 1_555 1_555
H104_9 C149_9 1_555 1_555
H114_9 C148_9 1_555 1_555
H115_9 C149_9 1_555 1_555
C159_9 C148_9 1_555 1_555
C160_9 C149_9 1_555 1_555
H125_9 C159_9 1_555 1_555
H126_9 C160_9 1_555 1_555
H136_9 C159_9 1_555 1_555
H137_9 C160_9 1_555 1_555
H147_9 C159_9 1_555 1_555
H148_9 C160_9 1_555 1_555
C1_9 O22_6 1_555 1_555
C6_9 C7_9 1_555 1_555
C10_9 C104_9 1_555 1_555
C49_9 C115_9 1_555 1_555
C60_9 C93_9 1_555 1_555
C71_9 C82_9 1_555 1_555
C72_9 C83_9 1_555 1_555
C94_9 C104_9 1_555 1_555
C94_9 C105_9 1_555 1_555
C105_9 C116_9 1_555 1_555
Cd6_10 O16_8 1_555 1_555
Cd11_8 O31_8 1_555 1_555
O9_7 C20_8 1_555 1_555
O16_8 C21_8 1_555 1_555
O31_8 Cd6_10 1_555 1_555
C19_8 O9_12 1_555 1_555
C20_8 O22_7 1_555 1_555
C21_8 O31_8 1_555 1_555
C29_8 C19_8 1_555 1_555
C30_8 C20_8 1_555 1_555
C31_8 C21_8 1_555 1_555
C40_8 C29_8 1_555 1_555
C41_8 C30_8 1_555 1_555
C42_8 C31_8 1_555 1_555
H17_8 C40_8 1_555 1_555
H18_8 C41_8 1_555 1_555
H19_8 C42_8 1_555 1_555
C51_8 C40_8 1_555 1_555
C52_8 C41_8 1_555 1_555
C53_8 C42_8 1_555 1_555
C62_8 C51_8 1_555 1_555
C63_8 C53_8 1_555 1_555
C64_8 C52_8 1_555 1_555
C73_8 C62_8 1_555 1_555
C74_8 C63_8 1_555 1_555
C75_8 C64_8 1_555 1_555
H28_8 C73_8 1_555 1_555
H29_8 C74_8 1_555 1_555
H30_8 C75_8 1_555 1_555
C84_8 C29_8 1_555 1_555
C85_8 C31_8 1_555 1_555
C86_8 C30_8 1_555 1_555
H39_8 C84_8 1_555 1_555
H40_8 C85_8 1_555 1_555
H41_8 C86_8 1_555 1_555
C95_8 C62_8 1_555 1_555
C96_8 C63_8 1_555 1_555
C97_8 C64_8 1_555 1_555
C106_8 C95_8 1_555 1_555
C107_8 C95_8 1_555 1_555
C108_8 C96_8 1_555 1_555
C117_8 C51_8 1_555 1_555
C118_8 C52_8 1_555 1_555
C119_8 C53_8 1_555 1_555
C128_8 C117_8 1_555 1_555
C129_8 C118_8 1_555 1_555
C130_8 C119_8 1_555 1_555
H50_8 C128_8 1_555 1_555
H51_8 C129_8 1_555 1_555
H52_8 C130_8 1_555 1_555
H61_8 C128_8 1_555 1_555
H62_8 C129_8 1_555 1_555
H63_8 C130_8 1_555 1_555
C139_8 C128_8 1_555 1_555
C140_8 C129_8 1_555 1_555
C141_8 C130_8 1_555 1_555
H72_8 C139_8 1_555 1_555
H73_8 C140_8 1_555 1_555
H74_8 C141_8 1_555 1_555
H83_8 C139_8 1_555 1_555
H84_8 C140_8 1_555 1_555
H85_8 C141_8 1_555 1_555
H94_8 C139_8 1_555 1_555
H95_8 C140_8 1_555 1_555
H96_8 C141_8 1_555 1_555
C150_8 C117_8 1_555 1_555
C151_8 C118_8 1_555 1_555
C152_8 C119_8 1_555 1_555
H105_8 C150_8 1_555 1_555
H106_8 C151_8 1_555 1_555
H107_8 C152_8 1_555 1_555
H116_8 C150_8 1_555 1_555
H117_8 C151_8 1_555 1_555
H118_8 C152_8 1_555 1_555
C161_8 C150_8 1_555 1_555
C162_8 C151_8 1_555 1_555
C163_8 C152_8 1_555 1_555
H127_8 C161_8 1_555 1_555
H128_8 C162_8 1_555 1_555
H129_8 C163_8 1_555 1_555
H138_8 C161_8 1_555 1_555
H139_8 C162_8 1_555 1_555
H140_8 C163_8 1_555 1_555
H149_8 C161_8 1_555 1_555
H150_8 C162_8 1_555 1_555
H151_8 C163_8 1_555 1_555
O22_12 C19_8 1_555 1_555
C73_8 C84_8 1_555 1_555
C74_8 C85_8 1_555 1_555
C75_8 C86_8 1_555 1_555
C96_8 C106_8 1_555 1_555
C97_8 C107_8 1_555 1_555
C97_8 C108_8 1_555 1_555
C106_8 C117_8 1_555 1_555
C107_8 C118_8 1_555 1_555
C108_8 C119_8 1_555 1_555
O3_6 Cd7_6 1_555 1_555
O4_18 Cd7_6 1_555 1_555
O5_18 Cd7_6 1_555 1_555
C15_18 O5_18 1_555 1_555
H14_18 O5_18 1_555 1_555
Cd17_6 O3_6 1_555 1_555
Cd8_8 O4_18 1_555 1_555
Cd18_8 O4_18 1_555 1_555
Cd8_5 O17_5 1_555 1_555
Cd14_6 O32_5 1_555 1_555
O6_14 Cd7_6 1_555 1_555
O10_6 Cd17_6 1_555 1_555
O11_14 Cd18_8 1_555 1_555
O14_14 Cd8_8 1_555 1_555
O17_5 C22_6 1_555 1_555
O14_9 C23_6 1_555 1_555
O21_14 Cd7_6 1_555 1_555
O26_14 Cd17_6 1_555 1_555
O29_14 Cd8_8 1_555 1_555
O32_5 Cd8_5 1_555 1_555
C16_6 O3_6 1_555 1_555
C22_6 O32_5 1_555 1_555
C23_6 O29_9 1_555 1_555
C32_6 C16_6 1_555 1_555
C33_6 C22_6 1_555 1_555
C34_6 C23_6 1_555 1_555
C43_6 C32_6 1_555 1_555
C44_6 C33_6 1_555 1_555
C45_6 C34_6 1_555 1_555
H20_6 C43_6 1_555 1_555
H21_6 C44_6 1_555 1_555
H22_6 C45_6 1_555 1_555
C54_6 C43_6 1_555 1_555
C55_6 C44_6 1_555 1_555
C56_6 C45_6 1_555 1_555
C65_6 C54_6 1_555 1_555
C66_6 C56_6 1_555 1_555
C67_6 C55_6 1_555 1_555
C76_6 C65_6 1_555 1_555
C77_6 C66_6 1_555 1_555
C78_6 C67_6 1_555 1_555
H31_6 C76_6 1_555 1_555
H32_6 C77_6 1_555 1_555
H33_6 C78_6 1_555 1_555
C87_6 C32_6 1_555 1_555
C88_6 C34_6 1_555 1_555
C89_6 C33_6 1_555 1_555
H42_6 C87_6 1_555 1_555
H43_6 C88_6 1_555 1_555
H44_6 C89_6 1_555 1_555
C98_6 C65_6 1_555 1_555
C99_6 C66_6 1_555 1_555
C100_6 C67_6 1_555 1_555
C109_6 C98_6 1_555 1_555
C110_6 C98_6 1_555 1_555
C111_6 C99_6 1_555 1_555
C120_6 C54_6 1_555 1_555
C121_6 C55_6 1_555 1_555
C122_6 C56_6 1_555 1_555
C131_6 C120_6 1_555 1_555
C132_6 C121_6 1_555 1_555
C133_6 C122_6 1_555 1_555
H53_6 C131_6 1_555 1_555
H54_6 C132_6 1_555 1_555
H55_6 C133_6 1_555 1_555
H64_6 C131_6 1_555 1_555
H65_6 C132_6 1_555 1_555
H66_6 C133_6 1_555 1_555
C142_6 C131_6 1_555 1_555
C143_6 C132_6 1_555 1_555
C144_6 C133_6 1_555 1_555
H75_6 C142_6 1_555 1_555
H76_6 C143_6 1_555 1_555
H77_6 C144_6 1_555 1_555
H86_6 C142_6 1_555 1_555
H87_6 C143_6 1_555 1_555
H88_6 C144_6 1_555 1_555
H97_6 C142_6 1_555 1_555
H98_6 C143_6 1_555 1_555
H99_6 C144_6 1_555 1_555
C153_6 C120_6 1_555 1_555
C154_6 C121_6 1_555 1_555
C155_6 C122_6 1_555 1_555
H108_6 C153_6 1_555 1_555
H109_6 C154_6 1_555 1_555
H110_6 C155_6 1_555 1_555
H119_6 C153_6 1_555 1_555
H120_6 C154_6 1_555 1_555
H121_6 C155_6 1_555 1_555
C164_6 C153_6 1_555 1_555
C165_6 C154_6 1_555 1_555
C166_6 C155_6 1_555 1_555
H130_6 C164_6 1_555 1_555
H131_6 C165_6 1_555 1_555
H132_6 C166_6 1_555 1_555
H141_6 C164_6 1_555 1_555
H142_6 C165_6 1_555 1_555
H143_6 C166_6 1_555 1_555
H152_6 C164_6 1_555 1_555
H153_6 C165_6 1_555 1_555
H154_6 C166_6 1_555 1_555
O36_18 Cd17_6 1_555 1_555
O37_18 Cd18_8 1_555 1_555
O38_18 Cd8_8 1_555 1_555
C170_18 O37_18 1_555 1_555
C171_18 O36_18 1_555 1_555
C172_18 O38_18 1_555 1_555
H158_18 O37_18 1_555 1_555
H159_18 O36_18 1_555 1_555
H160_18 O38_18 1_555 1_555
O4_18 Cd17_6 1_555 1_555
Cd8_8 O21_14 1_555 1_555
Cd18_8 O26_14 1_555 1_555
Cd18_8 O29_14 1_555 1_555
O10_6 C16_6 1_555 1_555
C76_6 C87_6 1_555 1_555
C77_6 C88_6 1_555 1_555
C78_6 C89_6 1_555 1_555
C99_6 C109_6 1_555 1_555
C100_6 C110_6 1_555 1_555
C100_6 C111_6 1_555 1_555
C109_6 C120_6 1_555 1_555
C110_6 C121_6 1_555 1_555
C111_6 C122_6 1_555 1_555
C171_18 H164_14 1_555 1_555
C171_18 H165_18 1_555 1_555
C172_18 H167_14 1_555 1_555
C172_18 H168_18 1_555 1_555
C170_18 H170_14 1_555 1_555
C170_18 H171_18 1_555 1_555
C15_18 H176_14 1_555 1_555
C15_18 H177_18 1_555 1_555
O4_19 Cd7_7 1_555 1_555
O5_19 Cd7_7 1_555 1_555
C15_19 O5_19 1_555 1_555
H14_19 O5_19 1_555 1_555
Cd8_9 O4_19 1_555 1_555
Cd18_9 O4_19 1_555 1_555
O36_19 Cd17_7 1_555 1_555
O37_19 Cd18_9 1_555 1_555
O38_19 Cd8_9 1_555 1_555
C170_19 O37_19 1_555 1_555
C171_19 O36_19 1_555 1_555
C172_19 O38_19 1_555 1_555
H158_19 O37_19 1_555 1_555
H159_19 O36_19 1_555 1_555
H160_19 O38_19 1_555 1_555
O4_19 Cd17_7 1_555 1_555
C171_19 H165_19 1_555 1_555
C171_19 H166_14 1_555 1_555
C172_19 H168_19 1_555 1_555
C172_19 H169_14 1_555 1_555
C170_19 H171_19 1_555 1_555
C170_19 H172_14 1_555 1_555
C15_19 H177_19 1_555 1_555
C15_19 H178_14 1_555 1_555
O4_20 Cd9_10 1_555 1_555
O5_20 Cd9_10 1_555 1_555
C15_20 O5_20 1_555 1_555
H14_20 O5_20 1_555 1_555
Cd5 O4_20 1_555 1_555
Cd6 O4_20 1_555 1_555
Cd14_5 O16_9 1_555 1_555
Cd11 O31_9 1_555 1_555
O9_13 Cd2_5 1_555 1_555
O12_8 Cd6 1_555 1_555
O9 C20_9 1_555 1_555
O16_9 C21_9 1_555 1_555
O22_13 Cd9_10 1_555 1_555
O27_8 Cd2_5 1_555 1_555
O31_9 Cd14_5 1_555 1_555
C19_9 O12_8 1_555 1_555
C20_9 O22 1_555 1_555
C21_9 O31_9 1_555 1_555
C29_9 C19_9 1_555 1_555
C30_9 C20_9 1_555 1_555
C31_9 C21_9 1_555 1_555
C40_9 C29_9 1_555 1_555
C41_9 C30_9 1_555 1_555
C42_9 C31_9 1_555 1_555
H17_9 C40_9 1_555 1_555
H18_9 C41_9 1_555 1_555
H19_9 C42_9 1_555 1_555
C51_9 C40_9 1_555 1_555
C52_9 C41_9 1_555 1_555
C53_9 C42_9 1_555 1_555
C62_9 C51_9 1_555 1_555
C63_9 C53_9 1_555 1_555
C64_9 C52_9 1_555 1_555
C73_9 C62_9 1_555 1_555
C74_9 C63_9 1_555 1_555
C75_9 C64_9 1_555 1_555
H28_9 C73_9 1_555 1_555
H29_9 C74_9 1_555 1_555
H30_9 C75_9 1_555 1_555
C84_9 C29_9 1_555 1_555
C85_9 C31_9 1_555 1_555
C86_9 C30_9 1_555 1_555
H39_9 C84_9 1_555 1_555
H40_9 C85_9 1_555 1_555
H41_9 C86_9 1_555 1_555
C95_9 C62_9 1_555 1_555
C96_9 C63_9 1_555 1_555
C97_9 C64_9 1_555 1_555
C106_9 C95_9 1_555 1_555
C107_9 C95_9 1_555 1_555
C108_9 C96_9 1_555 1_555
C117_9 C51_9 1_555 1_555
C118_9 C52_9 1_555 1_555
C119_9 C53_9 1_555 1_555
C128_9 C117_9 1_555 1_555
C129_9 C118_9 1_555 1_555
C130_9 C119_9 1_555 1_555
H50_9 C128_9 1_555 1_555
H51_9 C129_9 1_555 1_555
H52_9 C130_9 1_555 1_555
H61_9 C128_9 1_555 1_555
H62_9 C129_9 1_555 1_555
H63_9 C130_9 1_555 1_555
C139_9 C128_9 1_555 1_555
C140_9 C129_9 1_555 1_555
C141_9 C130_9 1_555 1_555
H72_9 C139_9 1_555 1_555
H73_9 C140_9 1_555 1_555
H74_9 C141_9 1_555 1_555
H83_9 C139_9 1_555 1_555
H84_9 C140_9 1_555 1_555
H85_9 C141_9 1_555 1_555
H94_9 C139_9 1_555 1_555
H95_9 C140_9 1_555 1_555
H96_9 C141_9 1_555 1_555
C150_9 C117_9 1_555 1_555
C151_9 C118_9 1_555 1_555
C152_9 C119_9 1_555 1_555
H105_9 C150_9 1_555 1_555
H106_9 C151_9 1_555 1_555
H107_9 C152_9 1_555 1_555
H116_9 C150_9 1_555 1_555
H117_9 C151_9 1_555 1_555
H118_9 C152_9 1_555 1_555
C161_9 C150_9 1_555 1_555
C162_9 C151_9 1_555 1_555
C163_9 C152_9 1_555 1_555
H127_9 C161_9 1_555 1_555
H128_9 C162_9 1_555 1_555
H129_9 C163_9 1_555 1_555
H138_9 C161_9 1_555 1_555
H139_9 C162_9 1_555 1_555
H140_9 C163_9 1_555 1_555
H149_9 C161_9 1_555 1_555
H150_9 C162_9 1_555 1_555
H151_9 C163_9 1_555 1_555
O36_20 Cd2_5 1_555 1_555
O37_20 Cd6 1_555 1_555
O38_20 Cd5 1_555 1_555
C170_20 O37_20 1_555 1_555
C171_20 O36_20 1_555 1_555
C172_20 O38_20 1_555 1_555
H158_20 O37_20 1_555 1_555
H159_20 O36_20 1_555 1_555
H160_20 O38_20 1_555 1_555
O4_20 Cd2_5 1_555 1_555
Cd2_5 O22_13 1_555 1_555
Cd6 O27_8 1_555 1_555
O27_8 C19_9 1_555 1_555
C73_9 C84_9 1_555 1_555
C74_9 C85_9 1_555 1_555
C75_9 C86_9 1_555 1_555
C96_9 C106_9 1_555 1_555
C97_9 C107_9 1_555 1_555
C97_9 C108_9 1_555 1_555
C106_9 C117_9 1_555 1_555
C107_9 C118_9 1_555 1_555
C108_9 C119_9 1_555 1_555
C171_20 H165_20 1_555 1_555
C171_20 H166_15 1_555 1_555
C172_20 H168_20 1_555 1_555
C172_20 H169_15 1_555 1_555
C170_20 H171_20 1_555 1_555
C170_20 H172_15 1_555 1_555
C15_20 H177_20 1_555 1_555
C15_20 H178_15 1_555 1_555
O3_7 Cd9_11 1_555 1_555
O4_21 Cd9_11 1_555 1_555
O5_21 Cd9_11 1_555 1_555
C15_21 O5_21 1_555 1_555
H14_21 O5_21 1_555 1_555
Cd2_6 O3_7 1_555 1_555
Cd5_2 O4_21 1_555 1_555
Cd6_2 O4_21 1_555 1_555
Cd8_6 O17_6 1_555 1_555
Cd18_6 O32_6 1_555 1_555
O6_15 Cd9_11 1_555 1_555
O10_7 Cd2_6 1_555 1_555
O11_15 Cd6_2 1_555 1_555
O14_15 Cd5_2 1_555 1_555
O17_6 C22_7 1_555 1_555
O14_7 C23_7 1_555 1_555
O21_15 Cd9_11 1_555 1_555
O26_15 Cd2_6 1_555 1_555
O29_15 Cd5_2 1_555 1_555
O32_6 Cd8_6 1_555 1_555
C16_7 O3_7 1_555 1_555
C22_7 O32_6 1_555 1_555
C23_7 O29_7 1_555 1_555
C32_7 C16_7 1_555 1_555
C33_7 C22_7 1_555 1_555
C34_7 C23_7 1_555 1_555
C43_7 C32_7 1_555 1_555
C44_7 C33_7 1_555 1_555
C45_7 C34_7 1_555 1_555
H20_7 C43_7 1_555 1_555
H21_7 C44_7 1_555 1_555
H22_7 C45_7 1_555 1_555
C54_7 C43_7 1_555 1_555
C55_7 C44_7 1_555 1_555
C56_7 C45_7 1_555 1_555
C65_7 C54_7 1_555 1_555
C66_7 C56_7 1_555 1_555
C67_7 C55_7 1_555 1_555
C76_7 C65_7 1_555 1_555
C77_7 C66_7 1_555 1_555
C78_7 C67_7 1_555 1_555
H31_7 C76_7 1_555 1_555
H32_7 C77_7 1_555 1_555
H33_7 C78_7 1_555 1_555
C87_7 C32_7 1_555 1_555
C88_7 C34_7 1_555 1_555
C89_7 C33_7 1_555 1_555
H42_7 C87_7 1_555 1_555
H43_7 C88_7 1_555 1_555
H44_7 C89_7 1_555 1_555
C98_7 C65_7 1_555 1_555
C99_7 C66_7 1_555 1_555
C100_7 C67_7 1_555 1_555
C109_7 C98_7 1_555 1_555
C110_7 C98_7 1_555 1_555
C111_7 C99_7 1_555 1_555
C120_7 C54_7 1_555 1_555
C121_7 C55_7 1_555 1_555
C122_7 C56_7 1_555 1_555
C131_7 C120_7 1_555 1_555
C132_7 C121_7 1_555 1_555
C133_7 C122_7 1_555 1_555
H53_7 C131_7 1_555 1_555
H54_7 C132_7 1_555 1_555
H55_7 C133_7 1_555 1_555
H64_7 C131_7 1_555 1_555
H65_7 C132_7 1_555 1_555
H66_7 C133_7 1_555 1_555
C142_7 C131_7 1_555 1_555
C143_7 C132_7 1_555 1_555
C144_7 C133_7 1_555 1_555
H75_7 C142_7 1_555 1_555
H76_7 C143_7 1_555 1_555
H77_7 C144_7 1_555 1_555
H86_7 C142_7 1_555 1_555
H87_7 C143_7 1_555 1_555
H88_7 C144_7 1_555 1_555
H97_7 C142_7 1_555 1_555
H98_7 C143_7 1_555 1_555
H99_7 C144_7 1_555 1_555
C153_7 C120_7 1_555 1_555
C154_7 C121_7 1_555 1_555
C155_7 C122_7 1_555 1_555
H108_7 C153_7 1_555 1_555
H109_7 C154_7 1_555 1_555
H110_7 C155_7 1_555 1_555
H119_7 C153_7 1_555 1_555
H120_7 C154_7 1_555 1_555
H121_7 C155_7 1_555 1_555
C164_7 C153_7 1_555 1_555
C165_7 C154_7 1_555 1_555
C166_7 C155_7 1_555 1_555
H130_7 C164_7 1_555 1_555
H131_7 C165_7 1_555 1_555
H132_7 C166_7 1_555 1_555
H141_7 C164_7 1_555 1_555
H142_7 C165_7 1_555 1_555
H143_7 C166_7 1_555 1_555
H152_7 C164_7 1_555 1_555
H153_7 C165_7 1_555 1_555
H154_7 C166_7 1_555 1_555
O36_21 Cd2_6 1_555 1_555
O37_21 Cd6_2 1_555 1_555
O38_21 Cd5_2 1_555 1_555
C170_21 O37_21 1_555 1_555
C171_21 O36_21 1_555 1_555
C172_21 O38_21 1_555 1_555
H158_21 O37_21 1_555 1_555
H159_21 O36_21 1_555 1_555
H160_21 O38_21 1_555 1_555
O4_21 Cd2_6 1_555 1_555
Cd5_2 O21_15 1_555 1_555
Cd6_2 O26_15 1_555 1_555
Cd6_2 O29_15 1_555 1_555
O10_7 C16_7 1_555 1_555
C76_7 C87_7 1_555 1_555
C77_7 C88_7 1_555 1_555
C78_7 C89_7 1_555 1_555
C99_7 C109_7 1_555 1_555
C100_7 C110_7 1_555 1_555
C100_7 C111_7 1_555 1_555
C109_7 C120_7 1_555 1_555
C110_7 C121_7 1_555 1_555
C111_7 C122_7 1_555 1_555
C171_21 H164_15 1_555 1_555
C171_21 H165_21 1_555 1_555
C172_21 H167_15 1_555 1_555
C172_21 H168_21 1_555 1_555
C170_21 H170_15 1_555 1_555
C170_21 H171_21 1_555 1_555
C15_21 H176_15 1_555 1_555
C15_21 H177_21 1_555 1_555
Cd12_10 O18_5 1_555 1_555
Cd5_7 O33_5 1_555 1_555
O11_3 C22_8 1_555 1_555
O18_5 C23_8 1_555 1_555
O33_5 Cd12_10 1_555 1_555
C16_8 O21_2 1_555 1_555
C22_8 O26_3 1_555 1_555
C23_8 O33_5 1_555 1_555
C32_8 C16_8 1_555 1_555
C33_8 C22_8 1_555 1_555
C34_8 C23_8 1_555 1_555
C43_8 C32_8 1_555 1_555
C44_8 C33_8 1_555 1_555
C45_8 C34_8 1_555 1_555
H20_8 C43_8 1_555 1_555
H21_8 C44_8 1_555 1_555
H22_8 C45_8 1_555 1_555
C54_8 C43_8 1_555 1_555
C55_8 C44_8 1_555 1_555
C56_8 C45_8 1_555 1_555
C65_8 C54_8 1_555 1_555
C66_8 C56_8 1_555 1_555
C67_8 C55_8 1_555 1_555
C76_8 C65_8 1_555 1_555
C77_8 C66_8 1_555 1_555
C78_8 C67_8 1_555 1_555
H31_8 C76_8 1_555 1_555
H32_8 C77_8 1_555 1_555
H33_8 C78_8 1_555 1_555
C87_8 C32_8 1_555 1_555
C88_8 C34_8 1_555 1_555
C89_8 C33_8 1_555 1_555
H42_8 C87_8 1_555 1_555
H43_8 C88_8 1_555 1_555
H44_8 C89_8 1_555 1_555
C98_8 C65_8 1_555 1_555
C99_8 C66_8 1_555 1_555
C100_8 C67_8 1_555 1_555
C109_8 C98_8 1_555 1_555
C110_8 C98_8 1_555 1_555
C111_8 C99_8 1_555 1_555
C120_8 C54_8 1_555 1_555
C121_8 C55_8 1_555 1_555
C122_8 C56_8 1_555 1_555
C131_8 C120_8 1_555 1_555
C132_8 C121_8 1_555 1_555
C133_8 C122_8 1_555 1_555
H53_8 C131_8 1_555 1_555
H54_8 C132_8 1_555 1_555
H55_8 C133_8 1_555 1_555
H64_8 C131_8 1_555 1_555
H65_8 C132_8 1_555 1_555
H66_8 C133_8 1_555 1_555
C142_8 C131_8 1_555 1_555
C143_8 C132_8 1_555 1_555
C144_8 C133_8 1_555 1_555
H75_8 C142_8 1_555 1_555
H76_8 C143_8 1_555 1_555
H77_8 C144_8 1_555 1_555
H86_8 C142_8 1_555 1_555
H87_8 C143_8 1_555 1_555
H88_8 C144_8 1_555 1_555
H97_8 C142_8 1_555 1_555
H98_8 C143_8 1_555 1_555
H99_8 C144_8 1_555 1_555
C153_8 C120_8 1_555 1_555
C154_8 C121_8 1_555 1_555
C155_8 C122_8 1_555 1_555
H108_8 C153_8 1_555 1_555
H109_8 C154_8 1_555 1_555
H110_8 C155_8 1_555 1_555
H119_8 C153_8 1_555 1_555
H120_8 C154_8 1_555 1_555
H121_8 C155_8 1_555 1_555
C164_8 C153_8 1_555 1_555
C165_8 C154_8 1_555 1_555
C166_8 C155_8 1_555 1_555
H130_8 C164_8 1_555 1_555
H131_8 C165_8 1_555 1_555
H132_8 C166_8 1_555 1_555
H141_8 C164_8 1_555 1_555
H142_8 C165_8 1_555 1_555
H143_8 C166_8 1_555 1_555
H152_8 C164_8 1_555 1_555
H153_8 C165_8 1_555 1_555
H154_8 C166_8 1_555 1_555
O6_2 C16_8 1_555 1_555
C76_8 C87_8 1_555 1_555
C77_8 C88_8 1_555 1_555
C78_8 C89_8 1_555 1_555
C99_8 C109_8 1_555 1_555
C100_8 C110_8 1_555 1_555
C100_8 C111_8 1_555 1_555
C109_8 C120_8 1_555 1_555
C110_8 C121_8 1_555 1_555
C111_8 C122_8 1_555 1_555
Cd9_12 O15_8 1_555 1_555
Cd6_3 O16_10 1_555 1_555
Cd12_11 O31_10 1_555 1_555
O15_8 C20_10 1_555 1_555
O16_10 C21_10 1_555 1_555
O30_8 Cd9_12 1_555 1_555
O31_10 Cd6_3 1_555 1_555
C19_10 O9_2 1_555 1_555
C20_10 O30_8 1_555 1_555
C21_10 O31_10 1_555 1_555
C29_10 C19_10 1_555 1_555
C30_10 C20_10 1_555 1_555
C31_10 C21_10 1_555 1_555
C40_10 C29_10 1_555 1_555
C41_10 C30_10 1_555 1_555
C42_10 C31_10 1_555 1_555
H17_10 C40_10 1_555 1_555
H18_10 C41_10 1_555 1_555
H19_10 C42_10 1_555 1_555
C51_10 C40_10 1_555 1_555
C52_10 C41_10 1_555 1_555
C53_10 C42_10 1_555 1_555
C62_10 C51_10 1_555 1_555
C63_10 C53_10 1_555 1_555
C64_10 C52_10 1_555 1_555
C73_10 C62_10 1_555 1_555
C74_10 C63_10 1_555 1_555
C75_10 C64_10 1_555 1_555
H28_10 C73_10 1_555 1_555
H29_10 C74_10 1_555 1_555
H30_10 C75_10 1_555 1_555
C84_10 C29_10 1_555 1_555
C85_10 C31_10 1_555 1_555
C86_10 C30_10 1_555 1_555
H39_10 C84_10 1_555 1_555
H40_10 C85_10 1_555 1_555
H41_10 C86_10 1_555 1_555
C95_10 C62_10 1_555 1_555
C96_10 C63_10 1_555 1_555
C97_10 C64_10 1_555 1_555
C106_10 C95_10 1_555 1_555
C107_10 C95_10 1_555 1_555
C108_10 C96_10 1_555 1_555
C117_10 C51_10 1_555 1_555
C118_10 C52_10 1_555 1_555
C119_10 C53_10 1_555 1_555
C128_10 C117_10 1_555 1_555
C129_10 C118_10 1_555 1_555
C130_10 C119_10 1_555 1_555
H50_10 C128_10 1_555 1_555
H51_10 C129_10 1_555 1_555
H52_10 C130_10 1_555 1_555
H61_10 C128_10 1_555 1_555
H62_10 C129_10 1_555 1_555
H63_10 C130_10 1_555 1_555
C139_10 C128_10 1_555 1_555
C140_10 C129_10 1_555 1_555
C141_10 C130_10 1_555 1_555
H72_10 C139_10 1_555 1_555
H73_10 C140_10 1_555 1_555
H74_10 C141_10 1_555 1_555
H83_10 C139_10 1_555 1_555
H84_10 C140_10 1_555 1_555
H85_10 C141_10 1_555 1_555
H94_10 C139_10 1_555 1_555
H95_10 C140_10 1_555 1_555
H96_10 C141_10 1_555 1_555
C150_10 C117_10 1_555 1_555
C151_10 C118_10 1_555 1_555
C152_10 C119_10 1_555 1_555
H105_10 C150_10 1_555 1_555
H106_10 C151_10 1_555 1_555
H107_10 C152_10 1_555 1_555
H116_10 C150_10 1_555 1_555
H117_10 C151_10 1_555 1_555
H118_10 C152_10 1_555 1_555
C161_10 C150_10 1_555 1_555
C162_10 C151_10 1_555 1_555
C163_10 C152_10 1_555 1_555
H127_10 C161_10 1_555 1_555
H128_10 C162_10 1_555 1_555
H129_10 C163_10 1_555 1_555
H138_10 C161_10 1_555 1_555
H139_10 C162_10 1_555 1_555
H140_10 C163_10 1_555 1_555
H149_10 C161_10 1_555 1_555
H150_10 C162_10 1_555 1_555
H151_10 C163_10 1_555 1_555
Cd11_3 O30_8 1_555 1_555
O22_2 C19_10 1_555 1_555
C73_10 C84_10 1_555 1_555
C74_10 C85_10 1_555 1_555
C75_10 C86_10 1_555 1_555
C96_10 C106_10 1_555 1_555
C97_10 C107_10 1_555 1_555
C97_10 C108_10 1_555 1_555
C106_10 C117_10 1_555 1_555
C107_10 C118_10 1_555 1_555
C108_10 C119_10 1_555 1_555
O4_22 Cd5_7 1_555 1_555
O5_22 Cd5_7 1_555 1_555
C15_22 O5_22 1_555 1_555
H14_22 O5_22 1_555 1_555
Cd6_7 O4_22 1_555 1_555
Cd11_9 O4_22 1_555 1_555
O6_16 Cd5_7 1_555 1_555
O9_14 Cd12_10 1_555 1_555
O11_16 Cd11_9 1_555 1_555
O13_8 Cd6_7 1_555 1_555
O14_16 Cd6_7 1_555 1_555
O9_4 C25_8 1_555 1_555
O9_11 C26_8 1_555 1_555
O21_16 Cd5_7 1_555 1_555
O22_14 Cd5_7 1_555 1_555
O26_16 Cd12_10 1_555 1_555
O28_8 Cd6_7 1_555 1_555
O29_16 Cd6_7 1_555 1_555
C24_8 O13_8 1_555 1_555
C25_8 O22_4 1_555 1_555
C26_8 O22_11 1_555 1_555
C35_8 C24_8 1_555 1_555
C36_8 C25_8 1_555 1_555
C37_8 C26_8 1_555 1_555
C46_8 C35_8 1_555 1_555
C47_8 C36_8 1_555 1_555
C48_8 C37_8 1_555 1_555
H23_8 C46_8 1_555 1_555
H24_8 C47_8 1_555 1_555
H25_8 C48_8 1_555 1_555
C57_8 C46_8 1_555 1_555
C58_8 C47_8 1_555 1_555
C59_8 C48_8 1_555 1_555
C68_8 C57_8 1_555 1_555
C69_8 C59_8 1_555 1_555
C70_8 C58_8 1_555 1_555
C79_8 C68_8 1_555 1_555
C80_8 C69_8 1_555 1_555
C81_8 C70_8 1_555 1_555
H34_8 C79_8 1_555 1_555
H35_8 C80_8 1_555 1_555
H36_8 C81_8 1_555 1_555
C90_8 C35_8 1_555 1_555
C91_8 C37_8 1_555 1_555
C92_8 C36_8 1_555 1_555
H45_8 C90_8 1_555 1_555
H46_8 C91_8 1_555 1_555
H47_8 C92_8 1_555 1_555
C101_8 C68_8 1_555 1_555
C102_8 C69_8 1_555 1_555
C103_8 C70_8 1_555 1_555
C112_8 C101_8 1_555 1_555
C113_8 C101_8 1_555 1_555
C114_8 C102_8 1_555 1_555
C123_8 C57_8 1_555 1_555
C124_8 C58_8 1_555 1_555
C125_8 C59_8 1_555 1_555
C134_8 C123_8 1_555 1_555
C135_8 C124_8 1_555 1_555
C136_8 C125_8 1_555 1_555
H56_8 C134_8 1_555 1_555
H57_8 C135_8 1_555 1_555
H58_8 C136_8 1_555 1_555
H67_8 C134_8 1_555 1_555
H68_8 C135_8 1_555 1_555
H69_8 C136_8 1_555 1_555
C145_8 C134_8 1_555 1_555
C146_8 C135_8 1_555 1_555
C147_8 C136_8 1_555 1_555
H78_8 C145_8 1_555 1_555
H79_8 C146_8 1_555 1_555
H80_8 C147_8 1_555 1_555
H89_8 C145_8 1_555 1_555
H90_8 C146_8 1_555 1_555
H91_8 C147_8 1_555 1_555
H100_8 C145_8 1_555 1_555
H101_8 C146_8 1_555 1_555
H102_8 C147_8 1_555 1_555
C156_8 C123_8 1_555 1_555
C157_8 C124_8 1_555 1_555
C158_8 C125_8 1_555 1_555
H111_8 C156_8 1_555 1_555
H112_8 C157_8 1_555 1_555
H113_8 C158_8 1_555 1_555
H122_8 C156_8 1_555 1_555
H123_8 C157_8 1_555 1_555
H124_8 C158_8 1_555 1_555
C167_8 C156_8 1_555 1_555
C168_8 C157_8 1_555 1_555
C169_8 C158_8 1_555 1_555
H133_8 C167_8 1_555 1_555
H134_8 C168_8 1_555 1_555
H135_8 C169_8 1_555 1_555
H144_8 C167_8 1_555 1_555
H145_8 C168_8 1_555 1_555
H146_8 C169_8 1_555 1_555
H155_8 C167_8 1_555 1_555
H156_8 C168_8 1_555 1_555
H157_8 C169_8 1_555 1_555
O36_22 Cd12_10 1_555 1_555
O37_22 Cd11_9 1_555 1_555
O38_22 Cd6_7 1_555 1_555
C170_22 O37_22 1_555 1_555
C171_22 O36_22 1_555 1_555
C172_22 O38_22 1_555 1_555
H158_22 O37_22 1_555 1_555
H159_22 O36_22 1_555 1_555
H160_22 O38_22 1_555 1_555
O4_22 Cd12_10 1_555 1_555
Cd12_10 O22_14 1_555 1_555
Cd6_7 O21_16 1_555 1_555
Cd11_9 O26_16 1_555 1_555
Cd11_9 O28_8 1_555 1_555
Cd11_9 O29_16 1_555 1_555
O28_8 C24_8 1_555 1_555
C79_8 C90_8 1_555 1_555
C80_8 C91_8 1_555 1_555
C81_8 C92_8 1_555 1_555
C102_8 C112_8 1_555 1_555
C103_8 C113_8 1_555 1_555
C103_8 C114_8 1_555 1_555
C112_8 C123_8 1_555 1_555
C113_8 C124_8 1_555 1_555
C114_8 C125_8 1_555 1_555
C171_22 H164_16 1_555 1_555
C171_22 H165_22 1_555 1_555
C171_22 H166_16 1_555 1_555
C172_22 H167_16 1_555 1_555
C172_22 H168_22 1_555 1_555
C172_22 H169_16 1_555 1_555
C170_22 H170_16 1_555 1_555
C170_22 H171_22 1_555 1_555
C170_22 H172_16 1_555 1_555
C15_22 H176_16 1_555 1_555
C15_22 H177_22 1_555 1_555
C15_22 H178_16 1_555 1_555
O4_23 Cd14_5 1_555 1_555
O5_23 Cd14_5 1_555 1_555
C15_23 O5_23 1_555 1_555
H14_23 O5_23 1_555 1_555
Cd11 O4_23 1_555 1_555
Cd12 O4_23 1_555 1_555
O9_15 Cd8_4 1_555 1_555
O22_15 Cd14_5 1_555 1_555
O36_23 Cd8_4 1_555 1_555
O37_23 Cd12 1_555 1_555
O38_23 Cd11 1_555 1_555
C170_23 O37_23 1_555 1_555
C171_23 O36_23 1_555 1_555
C172_23 O38_23 1_555 1_555
H158_23 O37_23 1_555 1_555
H159_23 O36_23 1_555 1_555
H160_23 O38_23 1_555 1_555
O4_23 Cd8_4 1_555 1_555
Cd8_4 O22_15 1_555 1_555
C171_23 H165_23 1_555 1_555
C171_23 H166_17 1_555 1_555
C172_23 H168_23 1_555 1_555
C172_23 H169_17 1_555 1_555
C170_23 H171_23 1_555 1_555
C170_23 H172_17 1_555 1_555
C15_23 H177_23 1_555 1_555
C15_23 H178_17 1_555 1_555
O4_24 Cd14_6 1_555 1_555
O5_24 Cd14_6 1_555 1_555
C15_24 O5_24 1_555 1_555
H14_24 O5_24 1_555 1_555
Cd11_2 O4_24 1_555 1_555
Cd12_2 O4_24 1_555 1_555
O6_17 Cd14_6 1_555 1_555
O11_17 Cd12_2 1_555 1_555
O14_17 Cd11_2 1_555 1_555
O21_17 Cd14_6 1_555 1_555
O26_17 Cd8_5 1_555 1_555
O29_17 Cd11_2 1_555 1_555
O36_24 Cd8_5 1_555 1_555
O37_24 Cd12_2 1_555 1_555
O38_24 Cd11_2 1_555 1_555
C170_24 O37_24 1_555 1_555
C171_24 O36_24 1_555 1_555
C172_24 O38_24 1_555 1_555
H158_24 O37_24 1_555 1_555
H159_24 O36_24 1_555 1_555
H160_24 O38_24 1_555 1_555
O4_24 Cd8_5 1_555 1_555
Cd11_2 O21_17 1_555 1_555
Cd12_2 O26_17 1_555 1_555
Cd12_2 O29_17 1_555 1_555
C171_24 H164_17 1_555 1_555
C171_24 H165_24 1_555 1_555
C172_24 H167_17 1_555 1_555
C172_24 H168_24 1_555 1_555
C170_24 H170_17 1_555 1_555
C170_24 H171_24 1_555 1_555
C15_24 H176_17 1_555 1_555
C15_24 H177_24 1_555 1_555
O4_25 Cd18_6 1_555 1_555
O5_25 Cd18_6 1_555 1_555
C15_25 O5_25 1_555 1_555
H14_25 O5_25 1_555 1_555
Cd17_4 O4_25 1_555 1_555
Cd7_4 O4_25 1_555 1_555
O6_18 Cd18_6 1_555 1_555
O11_18 Cd7_4 1_555 1_555
O14_18 Cd17_4 1_555 1_555
O21_18 Cd18_6 1_555 1_555
O26_18 Cd8_6 1_555 1_555
O29_18 Cd17_4 1_555 1_555
O36_25 Cd8_6 1_555 1_555
O37_25 Cd7_4 1_555 1_555
O38_25 Cd17_4 1_555 1_555
C170_25 O37_25 1_555 1_555
C171_25 O36_25 1_555 1_555
C172_25 O38_25 1_555 1_555
H158_25 O37_25 1_555 1_555
H159_25 O36_25 1_555 1_555
H160_25 O38_25 1_555 1_555
O4_25 Cd8_6 1_555 1_555
Cd17_4 O21_18 1_555 1_555
Cd7_4 O26_18 1_555 1_555
Cd7_4 O29_18 1_555 1_555
C171_25 H164_18 1_555 1_555
C171_25 H165_25 1_555 1_555
C172_25 H167_18 1_555 1_555
C172_25 H168_25 1_555 1_555
C170_25 H170_18 1_555 1_555
C170_25 H171_25 1_555 1_555
C15_25 H176_18 1_555 1_555
C15_25 H177_25 1_555 1_555
O4_26 Cd18_7 1_555 1_555
O5_26 Cd18_7 1_555 1_555
C15_26 O5_26 1_555 1_555
H14_26 O5_26 1_555 1_555
Cd17_5 O4_26 1_555 1_555
Cd7_5 O4_26 1_555 1_555
O36_26 Cd8_7 1_555 1_555
O37_26 Cd7_5 1_555 1_555
O38_26 Cd17_5 1_555 1_555
C170_26 O37_26 1_555 1_555
C171_26 O36_26 1_555 1_555
C172_26 O38_26 1_555 1_555
H158_26 O37_26 1_555 1_555
H159_26 O36_26 1_555 1_555
H160_26 O38_26 1_555 1_555
O4_26 Cd8_7 1_555 1_555
C171_26 H165_26 1_555 1_555
C171_26 H166_18 1_555 1_555
C172_26 H168_26 1_555 1_555
C172_26 H169_18 1_555 1_555
C170_26 H171_26 1_555 1_555
C170_26 H172_18 1_555 1_555
C15_26 H177_26 1_555 1_555
C15_26 H178_18 1_555 1_555
O9_3 C1_10 1_555 1_555
C1_10 C2_10 1_555 1_555
C2_10 C3_10 1_555 1_555
C3_10 H1_10 1_555 1_555
C4_10 C3_10 1_555 1_555
C5_10 C4_10 1_555 1_555
C6_10 C5_10 1_555 1_555
H2_10 C6_10 1_555 1_555
C7_10 C2_10 1_555 1_555
H3_10 C7_10 1_555 1_555
C8_10 C5_10 1_555 1_555
C9_10 C8_10 1_555 1_555
C10_10 C4_10 1_555 1_555
C11_10 C10_10 1_555 1_555
H4_10 C11_10 1_555 1_555
H5_10 C11_10 1_555 1_555
C12_10 C11_10 1_555 1_555
H6_10 C12_10 1_555 1_555
H7_10 C12_10 1_555 1_555
H8_10 C12_10 1_555 1_555
C13_10 C10_10 1_555 1_555
H9_10 C13_10 1_555 1_555
H10_10 C13_10 1_555 1_555
C14_10 C13_10 1_555 1_555
H11_10 C14_10 1_555 1_555
H12_10 C14_10 1_555 1_555
H13_10 C14_10 1_555 1_555
Cd5_12 O7_10 1_555 1_555
Cd11_5 O24_10 1_555 1_555
Cd6_5 O8_9 1_555 1_555
Cd8_14 O25_9 1_555 1_555
O7_10 C17_10 1_555 1_555
O8_9 C18_10 1_555 1_555
O24_10 Cd5_12 1_555 1_555
O25_9 Cd6_5 1_555 1_555
C17_10 O24_10 1_555 1_555
C18_10 O25_9 1_555 1_555
C27_10 C17_10 1_555 1_555
C28_10 C18_10 1_555 1_555
C38_10 C27_10 1_555 1_555
C39_10 C28_10 1_555 1_555
H15_10 C38_10 1_555 1_555
H16_10 C39_10 1_555 1_555
C49_10 C38_10 1_555 1_555
C50_10 C39_10 1_555 1_555
C60_10 C49_10 1_555 1_555
C61_10 C50_10 1_555 1_555
C71_10 C60_10 1_555 1_555
C72_10 C61_10 1_555 1_555
H26_10 C71_10 1_555 1_555
H27_10 C72_10 1_555 1_555
C82_10 C27_10 1_555 1_555
C83_10 C28_10 1_555 1_555
H37_10 C82_10 1_555 1_555
H38_10 C83_10 1_555 1_555
C93_10 C9_10 1_555 1_555
C94_10 C61_10 1_555 1_555
C104_10 C8_10 1_555 1_555
C105_10 C93_10 1_555 1_555
C115_10 C9_10 1_555 1_555
C116_10 C50_10 1_555 1_555
C126_10 C115_10 1_555 1_555
C127_10 C116_10 1_555 1_555
H48_10 C126_10 1_555 1_555
H49_10 C127_10 1_555 1_555
H59_10 C126_10 1_555 1_555
H60_10 C127_10 1_555 1_555
C137_10 C126_10 1_555 1_555
C138_10 C127_10 1_555 1_555
H70_10 C137_10 1_555 1_555
H71_10 C138_10 1_555 1_555
H81_10 C137_10 1_555 1_555
H82_10 C138_10 1_555 1_555
H92_10 C137_10 1_555 1_555
H93_10 C138_10 1_555 1_555
C148_10 C115_10 1_555 1_555
C149_10 C116_10 1_555 1_555
H103_10 C148_10 1_555 1_555
H104_10 C149_10 1_555 1_555
H114_10 C148_10 1_555 1_555
H115_10 C149_10 1_555 1_555
C159_10 C148_10 1_555 1_555
C160_10 C149_10 1_555 1_555
H125_10 C159_10 1_555 1_555
H126_10 C160_10 1_555 1_555
H136_10 C159_10 1_555 1_555
H137_10 C160_10 1_555 1_555
H147_10 C159_10 1_555 1_555
H148_10 C160_10 1_555 1_555
C1_10 O22_3 1_555 1_555
C6_10 C7_10 1_555 1_555
C10_10 C104_10 1_555 1_555
C49_10 C115_10 1_555 1_555
C60_10 C93_10 1_555 1_555
C71_10 C82_10 1_555 1_555
C72_10 C83_10 1_555 1_555
C94_10 C104_10 1_555 1_555
C94_10 C105_10 1_555 1_555
C105_10 C116_10 1_555 1_555
O11_11 C22_9 1_555 1_555
O6_14 C23_9 1_555 1_555
C16_9 O21_9 1_555 1_555
C22_9 O26_11 1_555 1_555
C23_9 O21_14 1_555 1_555
C32_9 C16_9 1_555 1_555
C33_9 C22_9 1_555 1_555
C34_9 C23_9 1_555 1_555
C43_9 C32_9 1_555 1_555
C44_9 C33_9 1_555 1_555
C45_9 C34_9 1_555 1_555
H20_9 C43_9 1_555 1_555
H21_9 C44_9 1_555 1_555
H22_9 C45_9 1_555 1_555
C54_9 C43_9 1_555 1_555
C55_9 C44_9 1_555 1_555
C56_9 C45_9 1_555 1_555
C65_9 C54_9 1_555 1_555
C66_9 C56_9 1_555 1_555
C67_9 C55_9 1_555 1_555
C76_9 C65_9 1_555 1_555
C77_9 C66_9 1_555 1_555
C78_9 C67_9 1_555 1_555
H31_9 C76_9 1_555 1_555
H32_9 C77_9 1_555 1_555
H33_9 C78_9 1_555 1_555
C87_9 C32_9 1_555 1_555
C88_9 C34_9 1_555 1_555
C89_9 C33_9 1_555 1_555
H42_9 C87_9 1_555 1_555
H43_9 C88_9 1_555 1_555
H44_9 C89_9 1_555 1_555
C98_9 C65_9 1_555 1_555
C99_9 C66_9 1_555 1_555
C100_9 C67_9 1_555 1_555
C109_9 C98_9 1_555 1_555
C110_9 C98_9 1_555 1_555
C111_9 C99_9 1_555 1_555
C120_9 C54_9 1_555 1_555
C121_9 C55_9 1_555 1_555
C122_9 C56_9 1_555 1_555
C131_9 C120_9 1_555 1_555
C132_9 C121_9 1_555 1_555
C133_9 C122_9 1_555 1_555
H53_9 C131_9 1_555 1_555
H54_9 C132_9 1_555 1_555
H55_9 C133_9 1_555 1_555
H64_9 C131_9 1_555 1_555
H65_9 C132_9 1_555 1_555
H66_9 C133_9 1_555 1_555
C142_9 C131_9 1_555 1_555
C143_9 C132_9 1_555 1_555
C144_9 C133_9 1_555 1_555
H75_9 C142_9 1_555 1_555
H76_9 C143_9 1_555 1_555
H77_9 C144_9 1_555 1_555
H86_9 C142_9 1_555 1_555
H87_9 C143_9 1_555 1_555
H88_9 C144_9 1_555 1_555
H97_9 C142_9 1_555 1_555
H98_9 C143_9 1_555 1_555
H99_9 C144_9 1_555 1_555
C153_9 C120_9 1_555 1_555
C154_9 C121_9 1_555 1_555
C155_9 C122_9 1_555 1_555
H108_9 C153_9 1_555 1_555
H109_9 C154_9 1_555 1_555
H110_9 C155_9 1_555 1_555
H119_9 C153_9 1_555 1_555
H120_9 C154_9 1_555 1_555
H121_9 C155_9 1_555 1_555
C164_9 C153_9 1_555 1_555
C165_9 C154_9 1_555 1_555
C166_9 C155_9 1_555 1_555
H130_9 C164_9 1_555 1_555
H131_9 C165_9 1_555 1_555
H132_9 C166_9 1_555 1_555
H141_9 C164_9 1_555 1_555
H142_9 C165_9 1_555 1_555
H143_9 C166_9 1_555 1_555
H152_9 C164_9 1_555 1_555
H153_9 C165_9 1_555 1_555
H154_9 C166_9 1_555 1_555
O6_9 C16_9 1_555 1_555
C76_9 C87_9 1_555 1_555
C77_9 C88_9 1_555 1_555
C78_9 C89_9 1_555 1_555
C99_9 C109_9 1_555 1_555
C100_9 C110_9 1_555 1_555
C100_9 C111_9 1_555 1_555
C109_9 C120_9 1_555 1_555
C110_9 C121_9 1_555 1_555
C111_9 C122_9 1_555 1_555
Cd12_12 O17_7 1_555 1_555
Cd9_9 O32_7 1_555 1_555
O17_7 C22_10 1_555 1_555
O6_13 C23_10 1_555 1_555
O32_7 Cd12_12 1_555 1_555
C16_10 O29_6 1_555 1_555
C22_10 O32_7 1_555 1_555
C23_10 O21_13 1_555 1_555
C32_10 C16_10 1_555 1_555
C33_10 C22_10 1_555 1_555
C34_10 C23_10 1_555 1_555
C43_10 C32_10 1_555 1_555
C44_10 C33_10 1_555 1_555
C45_10 C34_10 1_555 1_555
H20_10 C43_10 1_555 1_555
H21_10 C44_10 1_555 1_555
H22_10 C45_10 1_555 1_555
C54_10 C43_10 1_555 1_555
C55_10 C44_10 1_555 1_555
C56_10 C45_10 1_555 1_555
C65_10 C54_10 1_555 1_555
C66_10 C56_10 1_555 1_555
C67_10 C55_10 1_555 1_555
C76_10 C65_10 1_555 1_555
C77_10 C66_10 1_555 1_555
C78_10 C67_10 1_555 1_555
H31_10 C76_10 1_555 1_555
H32_10 C77_10 1_555 1_555
H33_10 C78_10 1_555 1_555
C87_10 C32_10 1_555 1_555
C88_10 C34_10 1_555 1_555
C89_10 C33_10 1_555 1_555
H42_10 C87_10 1_555 1_555
H43_10 C88_10 1_555 1_555
H44_10 C89_10 1_555 1_555
C98_10 C65_10 1_555 1_555
C99_10 C66_10 1_555 1_555
C100_10 C67_10 1_555 1_555
C109_10 C98_10 1_555 1_555
C110_10 C98_10 1_555 1_555
C111_10 C99_10 1_555 1_555
C120_10 C54_10 1_555 1_555
C121_10 C55_10 1_555 1_555
C122_10 C56_10 1_555 1_555
C131_10 C120_10 1_555 1_555
C132_10 C121_10 1_555 1_555
C133_10 C122_10 1_555 1_555
H53_10 C131_10 1_555 1_555
H54_10 C132_10 1_555 1_555
H55_10 C133_10 1_555 1_555
H64_10 C131_10 1_555 1_555
H65_10 C132_10 1_555 1_555
H66_10 C133_10 1_555 1_555
C142_10 C131_10 1_555 1_555
C143_10 C132_10 1_555 1_555
C144_10 C133_10 1_555 1_555
H75_10 C142_10 1_555 1_555
H76_10 C143_10 1_555 1_555
H77_10 C144_10 1_555 1_555
H86_10 C142_10 1_555 1_555
H87_10 C143_10 1_555 1_555
H88_10 C144_10 1_555 1_555
H97_10 C142_10 1_555 1_555
H98_10 C143_10 1_555 1_555
H99_10 C144_10 1_555 1_555
C153_10 C120_10 1_555 1_555
C154_10 C121_10 1_555 1_555
C155_10 C122_10 1_555 1_555
H108_10 C153_10 1_555 1_555
H109_10 C154_10 1_555 1_555
H110_10 C155_10 1_555 1_555
H119_10 C153_10 1_555 1_555
H120_10 C154_10 1_555 1_555
H121_10 C155_10 1_555 1_555
C164_10 C153_10 1_555 1_555
C165_10 C154_10 1_555 1_555
C166_10 C155_10 1_555 1_555
H130_10 C164_10 1_555 1_555
H131_10 C165_10 1_555 1_555
H132_10 C166_10 1_555 1_555
H141_10 C164_10 1_555 1_555
H142_10 C165_10 1_555 1_555
H143_10 C166_10 1_555 1_555
H152_10 C164_10 1_555 1_555
H153_10 C165_10 1_555 1_555
H154_10 C166_10 1_555 1_555
O14_6 C16_10 1_555 1_555
C76_10 C87_10 1_555 1_555
C77_10 C88_10 1_555 1_555
C78_10 C89_10 1_555 1_555
C99_10 C109_10 1_555 1_555
C100_10 C110_10 1_555 1_555
C100_10 C111_10 1_555 1_555
C109_10 C120_10 1_555 1_555
C110_10 C121_10 1_555 1_555
C111_10 C122_10 1_555 1_555
O3_8 Cd5_11 1_555 1_555
O4_27 Cd5_11 1_555 1_555
O5_27 Cd5_11 1_555 1_555
C15_27 O5_27 1_555 1_555
H14_27 O5_27 1_555 1_555
Cd12_9 O3_8 1_555 1_555
Cd6_10 O4_27 1_555 1_555
Cd11_8 O4_27 1_555 1_555
O6_19 Cd5_11 1_555 1_555
O9_16 Cd12_9 1_555 1_555
O10_8 Cd12_9 1_555 1_555
O11_19 Cd11_8 1_555 1_555
O14_19 Cd6_10 1_555 1_555
O6_3 C22_11 1_555 1_555
O11 C23_11 1_555 1_555
O21_19 Cd5_11 1_555 1_555
O22_16 Cd5_11 1_555 1_555
O26_19 Cd12_9 1_555 1_555
O29_19 Cd6_10 1_555 1_555
C16_11 O3_8 1_555 1_555
C22_11 O21_3 1_555 1_555
C23_11 O26 1_555 1_555
C32_11 C16_11 1_555 1_555
C33_11 C22_11 1_555 1_555
C34_11 C23_11 1_555 1_555
C43_11 C32_11 1_555 1_555
C44_11 C33_11 1_555 1_555
C45_11 C34_11 1_555 1_555
H20_11 C43_11 1_555 1_555
H21_11 C44_11 1_555 1_555
H22_11 C45_11 1_555 1_555
C54_11 C43_11 1_555 1_555
C55_11 C44_11 1_555 1_555
C56_11 C45_11 1_555 1_555
C65_11 C54_11 1_555 1_555
C66_11 C56_11 1_555 1_555
C67_11 C55_11 1_555 1_555
C76_11 C65_11 1_555 1_555
C77_11 C66_11 1_555 1_555
C78_11 C67_11 1_555 1_555
H31_11 C76_11 1_555 1_555
H32_11 C77_11 1_555 1_555
H33_11 C78_11 1_555 1_555
C87_11 C32_11 1_555 1_555
C88_11 C34_11 1_555 1_555
C89_11 C33_11 1_555 1_555
H42_11 C87_11 1_555 1_555
H43_11 C88_11 1_555 1_555
H44_11 C89_11 1_555 1_555
C98_11 C65_11 1_555 1_555
C99_11 C66_11 1_555 1_555
C100_11 C67_11 1_555 1_555
C109_11 C98_11 1_555 1_555
C110_11 C98_11 1_555 1_555
C111_11 C99_11 1_555 1_555
C120_11 C54_11 1_555 1_555
C121_11 C55_11 1_555 1_555
C122_11 C56_11 1_555 1_555
C131_11 C120_11 1_555 1_555
C132_11 C121_11 1_555 1_555
C133_11 C122_11 1_555 1_555
H53_11 C131_11 1_555 1_555
H54_11 C132_11 1_555 1_555
H55_11 C133_11 1_555 1_555
H64_11 C131_11 1_555 1_555
H65_11 C132_11 1_555 1_555
H66_11 C133_11 1_555 1_555
C142_11 C131_11 1_555 1_555
C143_11 C132_11 1_555 1_555
C144_11 C133_11 1_555 1_555
H75_11 C142_11 1_555 1_555
H76_11 C143_11 1_555 1_555
H77_11 C144_11 1_555 1_555
H86_11 C142_11 1_555 1_555
H87_11 C143_11 1_555 1_555
H88_11 C144_11 1_555 1_555
H97_11 C142_11 1_555 1_555
H98_11 C143_11 1_555 1_555
H99_11 C144_11 1_555 1_555
C153_11 C120_11 1_555 1_555
C154_11 C121_11 1_555 1_555
C155_11 C122_11 1_555 1_555
H108_11 C153_11 1_555 1_555
H109_11 C154_11 1_555 1_555
H110_11 C155_11 1_555 1_555
H119_11 C153_11 1_555 1_555
H120_11 C154_11 1_555 1_555
H121_11 C155_11 1_555 1_555
C164_11 C153_11 1_555 1_555
C165_11 C154_11 1_555 1_555
C166_11 C155_11 1_555 1_555
H130_11 C164_11 1_555 1_555
H131_11 C165_11 1_555 1_555
H132_11 C166_11 1_555 1_555
H141_11 C164_11 1_555 1_555
H142_11 C165_11 1_555 1_555
H143_11 C166_11 1_555 1_555
H152_11 C164_11 1_555 1_555
H153_11 C165_11 1_555 1_555
H154_11 C166_11 1_555 1_555
O36_27 Cd12_9 1_555 1_555
O37_27 Cd11_8 1_555 1_555
O38_27 Cd6_10 1_555 1_555
C170_27 O37_27 1_555 1_555
C171_27 O36_27 1_555 1_555
C172_27 O38_27 1_555 1_555
H158_27 O37_27 1_555 1_555
H159_27 O36_27 1_555 1_555
H160_27 O38_27 1_555 1_555
O4_27 Cd12_9 1_555 1_555
Cd12_9 O22_16 1_555 1_555
Cd6_10 O21_19 1_555 1_555
Cd11_8 O26_19 1_555 1_555
Cd11_8 O29_19 1_555 1_555
O10_8 C16_11 1_555 1_555
C76_11 C87_11 1_555 1_555
C77_11 C88_11 1_555 1_555
C78_11 C89_11 1_555 1_555
C99_11 C109_11 1_555 1_555
C100_11 C110_11 1_555 1_555
C100_11 C111_11 1_555 1_555
C109_11 C120_11 1_555 1_555
C110_11 C121_11 1_555 1_555
C111_11 C122_11 1_555 1_555
C171_27 H164_19 1_555 1_555
C171_27 H165_27 1_555 1_555
C171_27 H166_19 1_555 1_555
C172_27 H167_19 1_555 1_555
C172_27 H168_27 1_555 1_555
C172_27 H169_19 1_555 1_555
C170_27 H170_19 1_555 1_555
C170_27 H171_27 1_555 1_555
C170_27 H172_19 1_555 1_555
C15_27 H176_19 1_555 1_555
C15_27 H177_27 1_555 1_555
C15_27 H178_19 1_555 1_555
Cd8_13 O18_6 1_555 1_555
Cd9_13 O33_6 1_555 1_555
O14_18 C22_12 1_555 1_555
O18_6 C23_12 1_555 1_555
O33_6 Cd8_13 1_555 1_555
C16_12 O29_4 1_555 1_555
C22_12 O29_18 1_555 1_555
C23_12 O33_6 1_555 1_555
C32_12 C16_12 1_555 1_555
C33_12 C22_12 1_555 1_555
C34_12 C23_12 1_555 1_555
C43_12 C32_12 1_555 1_555
C44_12 C33_12 1_555 1_555
C45_12 C34_12 1_555 1_555
H20_12 C43_12 1_555 1_555
H21_12 C44_12 1_555 1_555
H22_12 C45_12 1_555 1_555
C54_12 C43_12 1_555 1_555
C55_12 C44_12 1_555 1_555
C56_12 C45_12 1_555 1_555
C65_12 C54_12 1_555 1_555
C66_12 C56_12 1_555 1_555
C67_12 C55_12 1_555 1_555
C76_12 C65_12 1_555 1_555
C77_12 C66_12 1_555 1_555
C78_12 C67_12 1_555 1_555
H31_12 C76_12 1_555 1_555
H32_12 C77_12 1_555 1_555
H33_12 C78_12 1_555 1_555
C87_12 C32_12 1_555 1_555
C88_12 C34_12 1_555 1_555
C89_12 C33_12 1_555 1_555
H42_12 C87_12 1_555 1_555
H43_12 C88_12 1_555 1_555
H44_12 C89_12 1_555 1_555
C98_12 C65_12 1_555 1_555
C99_12 C66_12 1_555 1_555
C100_12 C67_12 1_555 1_555
C109_12 C98_12 1_555 1_555
C110_12 C98_12 1_555 1_555
C111_12 C99_12 1_555 1_555
C120_12 C54_12 1_555 1_555
C121_12 C55_12 1_555 1_555
C122_12 C56_12 1_555 1_555
C131_12 C120_12 1_555 1_555
C132_12 C121_12 1_555 1_555
C133_12 C122_12 1_555 1_555
H53_12 C131_12 1_555 1_555
H54_12 C132_12 1_555 1_555
H55_12 C133_12 1_555 1_555
H64_12 C131_12 1_555 1_555
H65_12 C132_12 1_555 1_555
H66_12 C133_12 1_555 1_555
C142_12 C131_12 1_555 1_555
C143_12 C132_12 1_555 1_555
C144_12 C133_12 1_555 1_555
H75_12 C142_12 1_555 1_555
H76_12 C143_12 1_555 1_555
H77_12 C144_12 1_555 1_555
H86_12 C142_12 1_555 1_555
H87_12 C143_12 1_555 1_555
H88_12 C144_12 1_555 1_555
H97_12 C142_12 1_555 1_555
H98_12 C143_12 1_555 1_555
H99_12 C144_12 1_555 1_555
C153_12 C120_12 1_555 1_555
C154_12 C121_12 1_555 1_555
C155_12 C122_12 1_555 1_555
H108_12 C153_12 1_555 1_555
H109_12 C154_12 1_555 1_555
H110_12 C155_12 1_555 1_555
H119_12 C153_12 1_555 1_555
H120_12 C154_12 1_555 1_555
H121_12 C155_12 1_555 1_555
C164_12 C153_12 1_555 1_555
C165_12 C154_12 1_555 1_555
C166_12 C155_12 1_555 1_555
H130_12 C164_12 1_555 1_555
H131_12 C165_12 1_555 1_555
H132_12 C166_12 1_555 1_555
H141_12 C164_12 1_555 1_555
H142_12 C165_12 1_555 1_555
H143_12 C166_12 1_555 1_555
H152_12 C164_12 1_555 1_555
H153_12 C165_12 1_555 1_555
H154_12 C166_12 1_555 1_555
O14_4 C16_12 1_555 1_555
C76_12 C87_12 1_555 1_555
C77_12 C88_12 1_555 1_555
C78_12 C89_12 1_555 1_555
C99_12 C109_12 1_555 1_555
C100_12 C110_12 1_555 1_555
C100_12 C111_12 1_555 1_555
C109_12 C120_12 1_555 1_555
C110_12 C121_12 1_555 1_555
C111_12 C122_12 1_555 1_555
O4_28 Cd9_12 1_555 1_555
O5_28 Cd9_12 1_555 1_555
C15_28 O5_28 1_555 1_555
H14_28 O5_28 1_555 1_555
Cd11_3 O4_28 1_555 1_555
Cd12_3 O4_28 1_555 1_555
O9_17 Cd8_12 1_555 1_555
O22_17 Cd9_12 1_555 1_555
O36_28 Cd8_12 1_555 1_555
O37_28 Cd12_3 1_555 1_555
O38_28 Cd11_3 1_555 1_555
C170_28 O37_28 1_555 1_555
C171_28 O36_28 1_555 1_555
C172_28 O38_28 1_555 1_555
H158_28 O37_28 1_555 1_555
H159_28 O36_28 1_555 1_555
H160_28 O38_28 1_555 1_555
O4_28 Cd8_12 1_555 1_555
Cd8_12 O22_17 1_555 1_555
C171_28 H165_28 1_555 1_555
C171_28 H166_20 1_555 1_555
C172_28 H168_28 1_555 1_555
C172_28 H169_20 1_555 1_555
C170_28 H171_28 1_555 1_555
C170_28 H172_20 1_555 1_555
C15_28 H177_28 1_555 1_555
C15_28 H178_20 1_555 1_555
O4_29 Cd9_13 1_555 1_555
O5_29 Cd9_13 1_555 1_555
C15_29 O5_29 1_555 1_555
H14_29 O5_29 1_555 1_555
Cd11_4 O4_29 1_555 1_555
Cd12_4 O4_29 1_555 1_555
O6_20 Cd9_13 1_555 1_555
O11_20 Cd12_4 1_555 1_555
O14_20 Cd11_4 1_555 1_555
O21_20 Cd9_13 1_555 1_555
O26_20 Cd8_13 1_555 1_555
O29_20 Cd11_4 1_555 1_555
O36_29 Cd8_13 1_555 1_555
O37_29 Cd12_4 1_555 1_555
O38_29 Cd11_4 1_555 1_555
C170_29 O37_29 1_555 1_555
C171_29 O36_29 1_555 1_555
C172_29 O38_29 1_555 1_555
H158_29 O37_29 1_555 1_555
H159_29 O36_29 1_555 1_555
H160_29 O38_29 1_555 1_555
O4_29 Cd8_13 1_555 1_555
Cd11_4 O21_20 1_555 1_555
Cd12_4 O26_20 1_555 1_555
Cd12_4 O29_20 1_555 1_555
C171_29 H164_20 1_555 1_555
C171_29 H165_29 1_555 1_555
C172_29 H167_20 1_555 1_555
C172_29 H168_29 1_555 1_555
C170_29 H170_20 1_555 1_555
C170_29 H171_29 1_555 1_555
C15_29 H176_20 1_555 1_555
C15_29 H177_29 1_555 1_555
O4_30 Cd9_8 1_555 1_555
O5_30 Cd9_8 1_555 1_555
C15_30 O5_30 1_555 1_555
H14_30 O5_30 1_555 1_555
Cd5_3 O4_30 1_555 1_555
Cd6_3 O4_30 1_555 1_555
O9_18 Cd12_11 1_555 1_555
O22_18 Cd9_8 1_555 1_555
O36_30 Cd12_11 1_555 1_555
O37_30 Cd6_3 1_555 1_555
O38_30 Cd5_3 1_555 1_555
C170_30 O37_30 1_555 1_555
C171_30 O36_30 1_555 1_555
C172_30 O38_30 1_555 1_555
H158_30 O37_30 1_555 1_555
H159_30 O36_30 1_555 1_555
H160_30 O38_30 1_555 1_555
O4_30 Cd12_11 1_555 1_555
Cd12_11 O22_18 1_555 1_555
C171_30 H165_30 1_555 1_555
C171_30 H166_21 1_555 1_555
C172_30 H168_30 1_555 1_555
C172_30 H169_21 1_555 1_555
C170_30 H171_30 1_555 1_555
C170_30 H172_21 1_555 1_555
C15_30 H177_30 1_555 1_555
C15_30 H178_21 1_555 1_555
O4_31 Cd9_9 1_555 1_555
O5_31 Cd9_9 1_555 1_555
C15_31 O5_31 1_555 1_555
H14_31 O5_31 1_555 1_555
Cd5_4 O4_31 1_555 1_555
Cd6_4 O4_31 1_555 1_555
O6_21 Cd9_9 1_555 1_555
O11_21 Cd6_4 1_555 1_555
O14_21 Cd5_4 1_555 1_555
O21_21 Cd9_9 1_555 1_555
O26_21 Cd12_12 1_555 1_555
O29_21 Cd5_4 1_555 1_555
O36_31 Cd12_12 1_555 1_555
O37_31 Cd6_4 1_555 1_555
O38_31 Cd5_4 1_555 1_555
C170_31 O37_31 1_555 1_555
C171_31 O36_31 1_555 1_555
C172_31 O38_31 1_555 1_555
H158_31 O37_31 1_555 1_555
H159_31 O36_31 1_555 1_555
H160_31 O38_31 1_555 1_555
O4_31 Cd12_12 1_555 1_555
Cd5_4 O21_21 1_555 1_555
Cd6_4 O26_21 1_555 1_555
Cd6_4 O29_21 1_555 1_555
C171_31 H164_21 1_555 1_555
C171_31 H165_31 1_555 1_555
C172_31 H167_21 1_555 1_555
C172_31 H168_31 1_555 1_555
C170_31 H170_21 1_555 1_555
C170_31 H171_31 1_555 1_555
C15_31 H176_21 1_555 1_555
C15_31 H177_31 1_555 1_555
O11_18 C22_13 1_555 1_555
O6_4 C23_13 1_555 1_555
C16_13 O26_7 1_555 1_555
C22_13 O26_18 1_555 1_555
C23_13 O21_4 1_555 1_555
C32_13 C16_13 1_555 1_555
C33_13 C22_13 1_555 1_555
C34_13 C23_13 1_555 1_555
C43_13 C32_13 1_555 1_555
C44_13 C33_13 1_555 1_555
C45_13 C34_13 1_555 1_555
H20_13 C43_13 1_555 1_555
H21_13 C44_13 1_555 1_555
H22_13 C45_13 1_555 1_555
C54_13 C43_13 1_555 1_555
C55_13 C44_13 1_555 1_555
C56_13 C45_13 1_555 1_555
C65_13 C54_13 1_555 1_555
C66_13 C56_13 1_555 1_555
C67_13 C55_13 1_555 1_555
C76_13 C65_13 1_555 1_555
C77_13 C66_13 1_555 1_555
C78_13 C67_13 1_555 1_555
H31_13 C76_13 1_555 1_555
H32_13 C77_13 1_555 1_555
H33_13 C78_13 1_555 1_555
C87_13 C32_13 1_555 1_555
C88_13 C34_13 1_555 1_555
C89_13 C33_13 1_555 1_555
H42_13 C87_13 1_555 1_555
H43_13 C88_13 1_555 1_555
H44_13 C89_13 1_555 1_555
C98_13 C65_13 1_555 1_555
C99_13 C66_13 1_555 1_555
C100_13 C67_13 1_555 1_555
C109_13 C98_13 1_555 1_555
C110_13 C98_13 1_555 1_555
C111_13 C99_13 1_555 1_555
C120_13 C54_13 1_555 1_555
C121_13 C55_13 1_555 1_555
C122_13 C56_13 1_555 1_555
C131_13 C120_13 1_555 1_555
C132_13 C121_13 1_555 1_555
C133_13 C122_13 1_555 1_555
H53_13 C131_13 1_555 1_555
H54_13 C132_13 1_555 1_555
H55_13 C133_13 1_555 1_555
H64_13 C131_13 1_555 1_555
H65_13 C132_13 1_555 1_555
H66_13 C133_13 1_555 1_555
C142_13 C131_13 1_555 1_555
C143_13 C132_13 1_555 1_555
C144_13 C133_13 1_555 1_555
H75_13 C142_13 1_555 1_555
H76_13 C143_13 1_555 1_555
H77_13 C144_13 1_555 1_555
H86_13 C142_13 1_555 1_555
H87_13 C143_13 1_555 1_555
H88_13 C144_13 1_555 1_555
H97_13 C142_13 1_555 1_555
H98_13 C143_13 1_555 1_555
H99_13 C144_13 1_555 1_555
C153_13 C120_13 1_555 1_555
C154_13 C121_13 1_555 1_555
C155_13 C122_13 1_555 1_555
H108_13 C153_13 1_555 1_555
H109_13 C154_13 1_555 1_555
H110_13 C155_13 1_555 1_555
H119_13 C153_13 1_555 1_555
H120_13 C154_13 1_555 1_555
H121_13 C155_13 1_555 1_555
C164_13 C153_13 1_555 1_555
C165_13 C154_13 1_555 1_555
C166_13 C155_13 1_555 1_555
H130_13 C164_13 1_555 1_555
H131_13 C165_13 1_555 1_555
H132_13 C166_13 1_555 1_555
H141_13 C164_13 1_555 1_555
H142_13 C165_13 1_555 1_555
H143_13 C166_13 1_555 1_555
H152_13 C164_13 1_555 1_555
H153_13 C165_13 1_555 1_555
H154_13 C166_13 1_555 1_555
O11_7 C16_13 1_555 1_555
C76_13 C87_13 1_555 1_555
C77_13 C88_13 1_555 1_555
C78_13 C89_13 1_555 1_555
C99_13 C109_13 1_555 1_555
C100_13 C110_13 1_555 1_555
C100_13 C111_13 1_555 1_555
C109_13 C120_13 1_555 1_555
C110_13 C121_13 1_555 1_555
C111_13 C122_13 1_555 1_555
Cd12_8 O17_8 1_555 1_555
Cd5_10 O32_8 1_555 1_555
O17_8 C22_14 1_555 1_555
O6 C23_14 1_555 1_555
O32_8 Cd12_8 1_555 1_555
C16_14 O26_2 1_555 1_555
C22_14 O32_8 1_555 1_555
C23_14 O21 1_555 1_555
C32_14 C16_14 1_555 1_555
C33_14 C22_14 1_555 1_555
C34_14 C23_14 1_555 1_555
C43_14 C32_14 1_555 1_555
C44_14 C33_14 1_555 1_555
C45_14 C34_14 1_555 1_555
H20_14 C43_14 1_555 1_555
H21_14 C44_14 1_555 1_555
H22_14 C45_14 1_555 1_555
C54_14 C43_14 1_555 1_555
C55_14 C44_14 1_555 1_555
C56_14 C45_14 1_555 1_555
C65_14 C54_14 1_555 1_555
C66_14 C56_14 1_555 1_555
C67_14 C55_14 1_555 1_555
C76_14 C65_14 1_555 1_555
C77_14 C66_14 1_555 1_555
C78_14 C67_14 1_555 1_555
H31_14 C76_14 1_555 1_555
H32_14 C77_14 1_555 1_555
H33_14 C78_14 1_555 1_555
C87_14 C32_14 1_555 1_555
C88_14 C34_14 1_555 1_555
C89_14 C33_14 1_555 1_555
H42_14 C87_14 1_555 1_555
H43_14 C88_14 1_555 1_555
H44_14 C89_14 1_555 1_555
C98_14 C65_14 1_555 1_555
C99_14 C66_14 1_555 1_555
C100_14 C67_14 1_555 1_555
C109_14 C98_14 1_555 1_555
C110_14 C98_14 1_555 1_555
C111_14 C99_14 1_555 1_555
C120_14 C54_14 1_555 1_555
C121_14 C55_14 1_555 1_555
C122_14 C56_14 1_555 1_555
C131_14 C120_14 1_555 1_555
C132_14 C121_14 1_555 1_555
C133_14 C122_14 1_555 1_555
H53_14 C131_14 1_555 1_555
H54_14 C132_14 1_555 1_555
H55_14 C133_14 1_555 1_555
H64_14 C131_14 1_555 1_555
H65_14 C132_14 1_555 1_555
H66_14 C133_14 1_555 1_555
C142_14 C131_14 1_555 1_555
C143_14 C132_14 1_555 1_555
C144_14 C133_14 1_555 1_555
H75_14 C142_14 1_555 1_555
H76_14 C143_14 1_555 1_555
H77_14 C144_14 1_555 1_555
H86_14 C142_14 1_555 1_555
H87_14 C143_14 1_555 1_555
H88_14 C144_14 1_555 1_555
H97_14 C142_14 1_555 1_555
H98_14 C143_14 1_555 1_555
H99_14 C144_14 1_555 1_555
C153_14 C120_14 1_555 1_555
C154_14 C121_14 1_555 1_555
C155_14 C122_14 1_555 1_555
H108_14 C153_14 1_555 1_555
H109_14 C154_14 1_555 1_555
H110_14 C155_14 1_555 1_555
H119_14 C153_14 1_555 1_555
H120_14 C154_14 1_555 1_555
H121_14 C155_14 1_555 1_555
C164_14 C153_14 1_555 1_555
C165_14 C154_14 1_555 1_555
C166_14 C155_14 1_555 1_555
H130_14 C164_14 1_555 1_555
H131_14 C165_14 1_555 1_555
H132_14 C166_14 1_555 1_555
H141_14 C164_14 1_555 1_555
H142_14 C165_14 1_555 1_555
H143_14 C166_14 1_555 1_555
H152_14 C164_14 1_555 1_555
H153_14 C165_14 1_555 1_555
H154_14 C166_14 1_555 1_555
O11_2 C16_14 1_555 1_555
C76_14 C87_14 1_555 1_555
C77_14 C88_14 1_555 1_555
C78_14 C89_14 1_555 1_555
C99_14 C109_14 1_555 1_555
C100_14 C110_14 1_555 1_555
C100_14 C111_14 1_555 1_555
C109_14 C120_14 1_555 1_555
C110_14 C121_14 1_555 1_555
C111_14 C122_14 1_555 1_555
O4_32 Cd5_12 1_555 1_555
O5_32 Cd5_12 1_555 1_555
C15_32 O5_32 1_555 1_555
H14_32 O5_32 1_555 1_555
Cd11_5 O4_32 1_555 1_555
Cd12_5 O4_32 1_555 1_555
O9_19 Cd8_10 1_555 1_555
O22_19 Cd5_12 1_555 1_555
O36_32 Cd8_10 1_555 1_555
O37_32 Cd12_5 1_555 1_555
O38_32 Cd11_5 1_555 1_555
C170_32 O37_32 1_555 1_555
C171_32 O36_32 1_555 1_555
C172_32 O38_32 1_555 1_555
H158_32 O37_32 1_555 1_555
H159_32 O36_32 1_555 1_555
H160_32 O38_32 1_555 1_555
O4_32 Cd8_10 1_555 1_555
Cd8_10 O22_19 1_555 1_555
C171_32 H165_32 1_555 1_555
C171_32 H166_22 1_555 1_555
C172_32 H168_32 1_555 1_555
C172_32 H169_22 1_555 1_555
C170_32 H171_32 1_555 1_555
C170_32 H172_22 1_555 1_555
C15_32 H177_32 1_555 1_555
C15_32 H178_22 1_555 1_555
O3_9 Cd5_13 1_555 1_555
O4_33 Cd5_13 1_555 1_555
O5_33 Cd5_13 1_555 1_555
C15_33 O5_33 1_555 1_555
H14_33 O5_33 1_555 1_555
Cd8_11 O3_9 1_555 1_555
Cd11_6 O4_33 1_555 1_555
Cd12_6 O4_33 1_555 1_555
O6_22 Cd5_13 1_555 1_555
O10_9 Cd8_11 1_555 1_555
O11_22 Cd12_6 1_555 1_555
O14_22 Cd11_6 1_555 1_555
O14_12 C22_15 1_555 1_555
O11_13 C23_15 1_555 1_555
O21_22 Cd5_13 1_555 1_555
O26_22 Cd8_11 1_555 1_555
O29_22 Cd11_6 1_555 1_555
C16_15 O3_9 1_555 1_555
C22_15 O29_12 1_555 1_555
C23_15 O26_13 1_555 1_555
C32_15 C16_15 1_555 1_555
C33_15 C22_15 1_555 1_555
C34_15 C23_15 1_555 1_555
C43_15 C32_15 1_555 1_555
C44_15 C33_15 1_555 1_555
C45_15 C34_15 1_555 1_555
H20_15 C43_15 1_555 1_555
H21_15 C44_15 1_555 1_555
H22_15 C45_15 1_555 1_555
C54_15 C43_15 1_555 1_555
C55_15 C44_15 1_555 1_555
C56_15 C45_15 1_555 1_555
C65_15 C54_15 1_555 1_555
C66_15 C56_15 1_555 1_555
C67_15 C55_15 1_555 1_555
C76_15 C65_15 1_555 1_555
C77_15 C66_15 1_555 1_555
C78_15 C67_15 1_555 1_555
H31_15 C76_15 1_555 1_555
H32_15 C77_15 1_555 1_555
H33_15 C78_15 1_555 1_555
C87_15 C32_15 1_555 1_555
C88_15 C34_15 1_555 1_555
C89_15 C33_15 1_555 1_555
H42_15 C87_15 1_555 1_555
H43_15 C88_15 1_555 1_555
H44_15 C89_15 1_555 1_555
C98_15 C65_15 1_555 1_555
C99_15 C66_15 1_555 1_555
C100_15 C67_15 1_555 1_555
C109_15 C98_15 1_555 1_555
C110_15 C98_15 1_555 1_555
C111_15 C99_15 1_555 1_555
C120_15 C54_15 1_555 1_555
C121_15 C55_15 1_555 1_555
C122_15 C56_15 1_555 1_555
C131_15 C120_15 1_555 1_555
C132_15 C121_15 1_555 1_555
C133_15 C122_15 1_555 1_555
H53_15 C131_15 1_555 1_555
H54_15 C132_15 1_555 1_555
H55_15 C133_15 1_555 1_555
H64_15 C131_15 1_555 1_555
H65_15 C132_15 1_555 1_555
H66_15 C133_15 1_555 1_555
C142_15 C131_15 1_555 1_555
C143_15 C132_15 1_555 1_555
C144_15 C133_15 1_555 1_555
H75_15 C142_15 1_555 1_555
H76_15 C143_15 1_555 1_555
H77_15 C144_15 1_555 1_555
H86_15 C142_15 1_555 1_555
H87_15 C143_15 1_555 1_555
H88_15 C144_15 1_555 1_555
H97_15 C142_15 1_555 1_555
H98_15 C143_15 1_555 1_555
H99_15 C144_15 1_555 1_555
C153_15 C120_15 1_555 1_555
C154_15 C121_15 1_555 1_555
C155_15 C122_15 1_555 1_555
H108_15 C153_15 1_555 1_555
H109_15 C154_15 1_555 1_555
H110_15 C155_15 1_555 1_555
H119_15 C153_15 1_555 1_555
H120_15 C154_15 1_555 1_555
H121_15 C155_15 1_555 1_555
C164_15 C153_15 1_555 1_555
C165_15 C154_15 1_555 1_555
C166_15 C155_15 1_555 1_555
H130_15 C164_15 1_555 1_555
H131_15 C165_15 1_555 1_555
H132_15 C166_15 1_555 1_555
H141_15 C164_15 1_555 1_555
H142_15 C165_15 1_555 1_555
H143_15 C166_15 1_555 1_555
H152_15 C164_15 1_555 1_555
H153_15 C165_15 1_555 1_555
H154_15 C166_15 1_555 1_555
O36_33 Cd8_11 1_555 1_555
O37_33 Cd12_6 1_555 1_555
O38_33 Cd11_6 1_555 1_555
C170_33 O37_33 1_555 1_555
C171_33 O36_33 1_555 1_555
C172_33 O38_33 1_555 1_555
H158_33 O37_33 1_555 1_555
H159_33 O36_33 1_555 1_555
H160_33 O38_33 1_555 1_555
O4_33 Cd8_11 1_555 1_555
Cd11_6 O21_22 1_555 1_555
Cd12_6 O26_22 1_555 1_555
Cd12_6 O29_22 1_555 1_555
O10_9 C16_15 1_555 1_555
C76_15 C87_15 1_555 1_555
C77_15 C88_15 1_555 1_555
C78_15 C89_15 1_555 1_555
C99_15 C109_15 1_555 1_555
C100_15 C110_15 1_555 1_555
C100_15 C111_15 1_555 1_555
C109_15 C120_15 1_555 1_555
C110_15 C121_15 1_555 1_555
C111_15 C122_15 1_555 1_555
C171_33 H164_22 1_555 1_555
C171_33 H165_33 1_555 1_555
C172_33 H167_22 1_555 1_555
C172_33 H168_33 1_555 1_555
C170_33 H170_22 1_555 1_555
C170_33 H171_33 1_555 1_555
C15_33 H176_22 1_555 1_555
C15_33 H177_33 1_555 1_555
Cd8_15 O18_7 1_555 1_555
Cd9_7 O33_7 1_555 1_555
O14_11 C22_16 1_555 1_555
O18_7 C23_16 1_555 1_555
O33_7 Cd8_15 1_555 1_555
C16_16 O29_14 1_555 1_555
C22_16 O29_11 1_555 1_555
C23_16 O33_7 1_555 1_555
C32_16 C16_16 1_555 1_555
C33_16 C22_16 1_555 1_555
C34_16 C23_16 1_555 1_555
C43_16 C32_16 1_555 1_555
C44_16 C33_16 1_555 1_555
C45_16 C34_16 1_555 1_555
H20_16 C43_16 1_555 1_555
H21_16 C44_16 1_555 1_555
H22_16 C45_16 1_555 1_555
C54_16 C43_16 1_555 1_555
C55_16 C44_16 1_555 1_555
C56_16 C45_16 1_555 1_555
C65_16 C54_16 1_555 1_555
C66_16 C56_16 1_555 1_555
C67_16 C55_16 1_555 1_555
C76_16 C65_16 1_555 1_555
C77_16 C66_16 1_555 1_555
C78_16 C67_16 1_555 1_555
H31_16 C76_16 1_555 1_555
H32_16 C77_16 1_555 1_555
H33_16 C78_16 1_555 1_555
C87_16 C32_16 1_555 1_555
C88_16 C34_16 1_555 1_555
C89_16 C33_16 1_555 1_555
H42_16 C87_16 1_555 1_555
H43_16 C88_16 1_555 1_555
H44_16 C89_16 1_555 1_555
C98_16 C65_16 1_555 1_555
C99_16 C66_16 1_555 1_555
C100_16 C67_16 1_555 1_555
C109_16 C98_16 1_555 1_555
C110_16 C98_16 1_555 1_555
C111_16 C99_16 1_555 1_555
C120_16 C54_16 1_555 1_555
C121_16 C55_16 1_555 1_555
C122_16 C56_16 1_555 1_555
C131_16 C120_16 1_555 1_555
C132_16 C121_16 1_555 1_555
C133_16 C122_16 1_555 1_555
H53_16 C131_16 1_555 1_555
H54_16 C132_16 1_555 1_555
H55_16 C133_16 1_555 1_555
H64_16 C131_16 1_555 1_555
H65_16 C132_16 1_555 1_555
H66_16 C133_16 1_555 1_555
C142_16 C131_16 1_555 1_555
C143_16 C132_16 1_555 1_555
C144_16 C133_16 1_555 1_555
H75_16 C142_16 1_555 1_555
H76_16 C143_16 1_555 1_555
H77_16 C144_16 1_555 1_555
H86_16 C142_16 1_555 1_555
H87_16 C143_16 1_555 1_555
H88_16 C144_16 1_555 1_555
H97_16 C142_16 1_555 1_555
H98_16 C143_16 1_555 1_555
H99_16 C144_16 1_555 1_555
C153_16 C120_16 1_555 1_555
C154_16 C121_16 1_555 1_555
C155_16 C122_16 1_555 1_555
H108_16 C153_16 1_555 1_555
H109_16 C154_16 1_555 1_555
H110_16 C155_16 1_555 1_555
H119_16 C153_16 1_555 1_555
H120_16 C154_16 1_555 1_555
H121_16 C155_16 1_555 1_555
C164_16 C153_16 1_555 1_555
C165_16 C154_16 1_555 1_555
C166_16 C155_16 1_555 1_555
H130_16 C164_16 1_555 1_555
H131_16 C165_16 1_555 1_555
H132_16 C166_16 1_555 1_555
H141_16 C164_16 1_555 1_555
H142_16 C165_16 1_555 1_555
H143_16 C166_16 1_555 1_555
H152_16 C164_16 1_555 1_555
H153_16 C165_16 1_555 1_555
H154_16 C166_16 1_555 1_555
O14_14 C16_16 1_555 1_555
C76_16 C87_16 1_555 1_555
C77_16 C88_16 1_555 1_555
C78_16 C89_16 1_555 1_555
C99_16 C109_16 1_555 1_555
C100_16 C110_16 1_555 1_555
C100_16 C111_16 1_555 1_555
C109_16 C120_16 1_555 1_555
C110_16 C121_16 1_555 1_555
C111_16 C122_16 1_555 1_555
O4_34 Cd9_6 1_555 1_555
O5_34 Cd9_6 1_555 1_555
C15_34 O5_34 1_555 1_555
H14_34 O5_34 1_555 1_555
Cd5_5 O4_34 1_555 1_555
Cd6_5 O4_34 1_555 1_555
O9_20 Cd8_14 1_555 1_555
O22_20 Cd9_6 1_555 1_555
O36_34 Cd8_14 1_555 1_555
O37_34 Cd6_5 1_555 1_555
O38_34 Cd5_5 1_555 1_555
C170_34 O37_34 1_555 1_555
C171_34 O36_34 1_555 1_555
C172_34 O38_34 1_555 1_555
H158_34 O37_34 1_555 1_555
H159_34 O36_34 1_555 1_555
H160_34 O38_34 1_555 1_555
O4_34 Cd8_14 1_555 1_555
Cd8_14 O22_20 1_555 1_555
C171_34 H165_34 1_555 1_555
C171_34 H166_23 1_555 1_555
C172_34 H168_34 1_555 1_555
C172_34 H169_23 1_555 1_555
C170_34 H171_34 1_555 1_555
C170_34 H172_23 1_555 1_555
C15_34 H177_34 1_555 1_555
C15_34 H178_23 1_555 1_555
O4_35 Cd9_7 1_555 1_555
O5_35 Cd9_7 1_555 1_555
C15_35 O5_35 1_555 1_555
H14_35 O5_35 1_555 1_555
Cd5_6 O4_35 1_555 1_555
Cd6_6 O4_35 1_555 1_555
O6_23 Cd9_7 1_555 1_555
O11_23 Cd6_6 1_555 1_555
O14_23 Cd5_6 1_555 1_555
O21_23 Cd9_7 1_555 1_555
O26_23 Cd8_15 1_555 1_555
O29_23 Cd5_6 1_555 1_555
O36_35 Cd8_15 1_555 1_555
O37_35 Cd6_6 1_555 1_555
O38_35 Cd5_6 1_555 1_555
C170_35 O37_35 1_555 1_555
C171_35 O36_35 1_555 1_555
C172_35 O38_35 1_555 1_555
H158_35 O37_35 1_555 1_555
H159_35 O36_35 1_555 1_555
H160_35 O38_35 1_555 1_555
O4_35 Cd8_15 1_555 1_555
Cd5_6 O21_23 1_555 1_555
Cd6_6 O26_23 1_555 1_555
Cd6_6 O29_23 1_555 1_555
C171_35 H164_23 1_555 1_555
C171_35 H165_35 1_555 1_555
C172_35 H167_23 1_555 1_555
C172_35 H168_35 1_555 1_555
C170_35 H170_23 1_555 1_555
C170_35 H171_35 1_555 1_555
C15_35 H176_23 1_555 1_555
C15_35 H177_35 1_555 1_555
O4_36 Cd5_10 1_555 1_555
O5_36 Cd5_10 1_555 1_555
C15_36 O5_36 1_555 1_555
H14_36 O5_36 1_555 1_555
Cd6_9 O4_36 1_555 1_555
Cd11_7 O4_36 1_555 1_555
O6_24 Cd5_10 1_555 1_555
O9_21 Cd12_8 1_555 1_555
O11_24 Cd11_7 1_555 1_555
O14_24 Cd6_9 1_555 1_555
O21_24 Cd5_10 1_555 1_555
O22_21 Cd5_10 1_555 1_555
O26_24 Cd12_8 1_555 1_555
O29_24 Cd6_9 1_555 1_555
O36_36 Cd12_8 1_555 1_555
O37_36 Cd11_7 1_555 1_555
O38_36 Cd6_9 1_555 1_555
C170_36 O37_36 1_555 1_555
C171_36 O36_36 1_555 1_555
C172_36 O38_36 1_555 1_555
H158_36 O37_36 1_555 1_555
H159_36 O36_36 1_555 1_555
H160_36 O38_36 1_555 1_555
O4_36 Cd12_8 1_555 1_555
Cd12_8 O22_21 1_555 1_555
Cd6_9 O21_24 1_555 1_555
Cd11_7 O26_24 1_555 1_555
Cd11_7 O29_24 1_555 1_555
C171_36 H164_24 1_555 1_555
C171_36 H165_36 1_555 1_555
C171_36 H166_24 1_555 1_555
C172_36 H167_24 1_555 1_555
C172_36 H168_36 1_555 1_555
C172_36 H169_24 1_555 1_555
C170_36 H170_24 1_555 1_555
C170_36 H171_36 1_555 1_555
C170_36 H172_24 1_555 1_555
C15_36 H176_24 1_555 1_555
C15_36 H177_36 1_555 1_555
C15_36 H178_24 1_555 1_555
O9_16 C20_11 1_555 1_555
O9_18 C21_11 1_555 1_555
C19_11 O9_17 1_555 1_555
C20_11 O22_16 1_555 1_555
C21_11 O22_18 1_555 1_555
C29_11 C19_11 1_555 1_555
C30_11 C20_11 1_555 1_555
C31_11 C21_11 1_555 1_555
C40_11 C29_11 1_555 1_555
C41_11 C30_11 1_555 1_555
C42_11 C31_11 1_555 1_555
H17_11 C40_11 1_555 1_555
H18_11 C41_11 1_555 1_555
H19_11 C42_11 1_555 1_555
C51_11 C40_11 1_555 1_555
C52_11 C41_11 1_555 1_555
C53_11 C42_11 1_555 1_555
C62_11 C51_11 1_555 1_555
C63_11 C53_11 1_555 1_555
C64_11 C52_11 1_555 1_555
C73_11 C62_11 1_555 1_555
C74_11 C63_11 1_555 1_555
C75_11 C64_11 1_555 1_555
H28_11 C73_11 1_555 1_555
H29_11 C74_11 1_555 1_555
H30_11 C75_11 1_555 1_555
C84_11 C29_11 1_555 1_555
C85_11 C31_11 1_555 1_555
C86_11 C30_11 1_555 1_555
H39_11 C84_11 1_555 1_555
H40_11 C85_11 1_555 1_555
H41_11 C86_11 1_555 1_555
C95_11 C62_11 1_555 1_555
C96_11 C63_11 1_555 1_555
C97_11 C64_11 1_555 1_555
C106_11 C95_11 1_555 1_555
C107_11 C95_11 1_555 1_555
C108_11 C96_11 1_555 1_555
C117_11 C51_11 1_555 1_555
C118_11 C52_11 1_555 1_555
C119_11 C53_11 1_555 1_555
C128_11 C117_11 1_555 1_555
C129_11 C118_11 1_555 1_555
C130_11 C119_11 1_555 1_555
H50_11 C128_11 1_555 1_555
H51_11 C129_11 1_555 1_555
H52_11 C130_11 1_555 1_555
H61_11 C128_11 1_555 1_555
H62_11 C129_11 1_555 1_555
H63_11 C130_11 1_555 1_555
C139_11 C128_11 1_555 1_555
C140_11 C129_11 1_555 1_555
C141_11 C130_11 1_555 1_555
H72_11 C139_11 1_555 1_555
H73_11 C140_11 1_555 1_555
H74_11 C141_11 1_555 1_555
H83_11 C139_11 1_555 1_555
H84_11 C140_11 1_555 1_555
H85_11 C141_11 1_555 1_555
H94_11 C139_11 1_555 1_555
H95_11 C140_11 1_555 1_555
H96_11 C141_11 1_555 1_555
C150_11 C117_11 1_555 1_555
C151_11 C118_11 1_555 1_555
C152_11 C119_11 1_555 1_555
H105_11 C150_11 1_555 1_555
H106_11 C151_11 1_555 1_555
H107_11 C152_11 1_555 1_555
H116_11 C150_11 1_555 1_555
H117_11 C151_11 1_555 1_555
H118_11 C152_11 1_555 1_555
C161_11 C150_11 1_555 1_555
C162_11 C151_11 1_555 1_555
C163_11 C152_11 1_555 1_555
H127_11 C161_11 1_555 1_555
H128_11 C162_11 1_555 1_555
H129_11 C163_11 1_555 1_555
H138_11 C161_11 1_555 1_555
H139_11 C162_11 1_555 1_555
H140_11 C163_11 1_555 1_555
H149_11 C161_11 1_555 1_555
H150_11 C162_11 1_555 1_555
H151_11 C163_11 1_555 1_555
O22_17 C19_11 1_555 1_555
C73_11 C84_11 1_555 1_555
C74_11 C85_11 1_555 1_555
C75_11 C86_11 1_555 1_555
C96_11 C106_11 1_555 1_555
C97_11 C107_11 1_555 1_555
C97_11 C108_11 1_555 1_555
C106_11 C117_11 1_555 1_555
C107_11 C118_11 1_555 1_555
C108_11 C119_11 1_555 1_555
O6_18 C22_17 1_555 1_555
O11_15 C23_17 1_555 1_555
C16_17 O21_20 1_555 1_555
C22_17 O21_18 1_555 1_555
C23_17 O26_15 1_555 1_555
C32_17 C16_17 1_555 1_555
C33_17 C22_17 1_555 1_555
C34_17 C23_17 1_555 1_555
C43_17 C32_17 1_555 1_555
C44_17 C33_17 1_555 1_555
C45_17 C34_17 1_555 1_555
H20_17 C43_17 1_555 1_555
H21_17 C44_17 1_555 1_555
H22_17 C45_17 1_555 1_555
C54_17 C43_17 1_555 1_555
C55_17 C44_17 1_555 1_555
C56_17 C45_17 1_555 1_555
C65_17 C54_17 1_555 1_555
C66_17 C56_17 1_555 1_555
C67_17 C55_17 1_555 1_555
C76_17 C65_17 1_555 1_555
C77_17 C66_17 1_555 1_555
C78_17 C67_17 1_555 1_555
H31_17 C76_17 1_555 1_555
H32_17 C77_17 1_555 1_555
H33_17 C78_17 1_555 1_555
C87_17 C32_17 1_555 1_555
C88_17 C34_17 1_555 1_555
C89_17 C33_17 1_555 1_555
H42_17 C87_17 1_555 1_555
H43_17 C88_17 1_555 1_555
H44_17 C89_17 1_555 1_555
C98_17 C65_17 1_555 1_555
C99_17 C66_17 1_555 1_555
C100_17 C67_17 1_555 1_555
C109_17 C98_17 1_555 1_555
C110_17 C98_17 1_555 1_555
C111_17 C99_17 1_555 1_555
C120_17 C54_17 1_555 1_555
C121_17 C55_17 1_555 1_555
C122_17 C56_17 1_555 1_555
C131_17 C120_17 1_555 1_555
C132_17 C121_17 1_555 1_555
C133_17 C122_17 1_555 1_555
H53_17 C131_17 1_555 1_555
H54_17 C132_17 1_555 1_555
H55_17 C133_17 1_555 1_555
H64_17 C131_17 1_555 1_555
H65_17 C132_17 1_555 1_555
H66_17 C133_17 1_555 1_555
C142_17 C131_17 1_555 1_555
C143_17 C132_17 1_555 1_555
C144_17 C133_17 1_555 1_555
H75_17 C142_17 1_555 1_555
H76_17 C143_17 1_555 1_555
H77_17 C144_17 1_555 1_555
H86_17 C142_17 1_555 1_555
H87_17 C143_17 1_555 1_555
H88_17 C144_17 1_555 1_555
H97_17 C142_17 1_555 1_555
H98_17 C143_17 1_555 1_555
H99_17 C144_17 1_555 1_555
C153_17 C120_17 1_555 1_555
C154_17 C121_17 1_555 1_555
C155_17 C122_17 1_555 1_555
H108_17 C153_17 1_555 1_555
H109_17 C154_17 1_555 1_555
H110_17 C155_17 1_555 1_555
H119_17 C153_17 1_555 1_555
H120_17 C154_17 1_555 1_555
H121_17 C155_17 1_555 1_555
C164_17 C153_17 1_555 1_555
C165_17 C154_17 1_555 1_555
C166_17 C155_17 1_555 1_555
H130_17 C164_17 1_555 1_555
H131_17 C165_17 1_555 1_555
H132_17 C166_17 1_555 1_555
H141_17 C164_17 1_555 1_555
H142_17 C165_17 1_555 1_555
H143_17 C166_17 1_555 1_555
H152_17 C164_17 1_555 1_555
H153_17 C165_17 1_555 1_555
H154_17 C166_17 1_555 1_555
O6_20 C16_17 1_555 1_555
C76_17 C87_17 1_555 1_555
C77_17 C88_17 1_555 1_555
C78_17 C89_17 1_555 1_555
C99_17 C109_17 1_555 1_555
C100_17 C110_17 1_555 1_555
C100_17 C111_17 1_555 1_555
C109_17 C120_17 1_555 1_555
C110_17 C121_17 1_555 1_555
C111_17 C122_17 1_555 1_555
O9_20 C1_11 1_555 1_555
C1_11 C2_11 1_555 1_555
C2_11 C3_11 1_555 1_555
C3_11 H1_11 1_555 1_555
C4_11 C3_11 1_555 1_555
C5_11 C4_11 1_555 1_555
C6_11 C5_11 1_555 1_555
H2_11 C6_11 1_555 1_555
C7_11 C2_11 1_555 1_555
H3_11 C7_11 1_555 1_555
C8_11 C5_11 1_555 1_555
C9_11 C8_11 1_555 1_555
C10_11 C4_11 1_555 1_555
C11_11 C10_11 1_555 1_555
H4_11 C11_11 1_555 1_555
H5_11 C11_11 1_555 1_555
C12_11 C11_11 1_555 1_555
H6_11 C12_11 1_555 1_555
H7_11 C12_11 1_555 1_555
H8_11 C12_11 1_555 1_555
C13_11 C10_11 1_555 1_555
H9_11 C13_11 1_555 1_555
H10_11 C13_11 1_555 1_555
C14_11 C13_11 1_555 1_555
H11_11 C14_11 1_555 1_555
H12_11 C14_11 1_555 1_555
H13_11 C14_11 1_555 1_555
O9_19 C17_11 1_555 1_555
O9_21 C18_11 1_555 1_555
C17_11 O22_19 1_555 1_555
C18_11 O22_21 1_555 1_555
C27_11 C17_11 1_555 1_555
C28_11 C18_11 1_555 1_555
C38_11 C27_11 1_555 1_555
C39_11 C28_11 1_555 1_555
H15_11 C38_11 1_555 1_555
H16_11 C39_11 1_555 1_555
C49_11 C38_11 1_555 1_555
C50_11 C39_11 1_555 1_555
C60_11 C49_11 1_555 1_555
C61_11 C50_11 1_555 1_555
C71_11 C60_11 1_555 1_555
C72_11 C61_11 1_555 1_555
H26_11 C71_11 1_555 1_555
H27_11 C72_11 1_555 1_555
C82_11 C27_11 1_555 1_555
C83_11 C28_11 1_555 1_555
H37_11 C82_11 1_555 1_555
H38_11 C83_11 1_555 1_555
C93_11 C9_11 1_555 1_555
C94_11 C61_11 1_555 1_555
C104_11 C8_11 1_555 1_555
C105_11 C93_11 1_555 1_555
C115_11 C9_11 1_555 1_555
C116_11 C50_11 1_555 1_555
C126_11 C115_11 1_555 1_555
C127_11 C116_11 1_555 1_555
H48_11 C126_11 1_555 1_555
H49_11 C127_11 1_555 1_555
H59_11 C126_11 1_555 1_555
H60_11 C127_11 1_555 1_555
C137_11 C126_11 1_555 1_555
C138_11 C127_11 1_555 1_555
H70_11 C137_11 1_555 1_555
H71_11 C138_11 1_555 1_555
H81_11 C137_11 1_555 1_555
H82_11 C138_11 1_555 1_555
H92_11 C137_11 1_555 1_555
H93_11 C138_11 1_555 1_555
C148_11 C115_11 1_555 1_555
C149_11 C116_11 1_555 1_555
H103_11 C148_11 1_555 1_555
H104_11 C149_11 1_555 1_555
H114_11 C148_11 1_555 1_555
H115_11 C149_11 1_555 1_555
C159_11 C148_11 1_555 1_555
C160_11 C149_11 1_555 1_555
H125_11 C159_11 1_555 1_555
H126_11 C160_11 1_555 1_555
H136_11 C159_11 1_555 1_555
H137_11 C160_11 1_555 1_555
H147_11 C159_11 1_555 1_555
H148_11 C160_11 1_555 1_555
C1_11 O22_20 1_555 1_555
C6_11 C7_11 1_555 1_555
C10_11 C104_11 1_555 1_555
C49_11 C115_11 1_555 1_555
C60_11 C93_11 1_555 1_555
C71_11 C82_11 1_555 1_555
C72_11 C83_11 1_555 1_555
C94_11 C104_11 1_555 1_555
C94_11 C105_11 1_555 1_555
C105_11 C116_11 1_555 1_555
O6_17 C22_18 1_555 1_555
O11_14 C23_18 1_555 1_555
C16_18 O26_23 1_555 1_555
C22_18 O21_17 1_555 1_555
C23_18 O26_14 1_555 1_555
C32_18 C16_18 1_555 1_555
C33_18 C22_18 1_555 1_555
C34_18 C23_18 1_555 1_555
C43_18 C32_18 1_555 1_555
C44_18 C33_18 1_555 1_555
C45_18 C34_18 1_555 1_555
H20_18 C43_18 1_555 1_555
H21_18 C44_18 1_555 1_555
H22_18 C45_18 1_555 1_555
C54_18 C43_18 1_555 1_555
C55_18 C44_18 1_555 1_555
C56_18 C45_18 1_555 1_555
C65_18 C54_18 1_555 1_555
C66_18 C56_18 1_555 1_555
C67_18 C55_18 1_555 1_555
C76_18 C65_18 1_555 1_555
C77_18 C66_18 1_555 1_555
C78_18 C67_18 1_555 1_555
H31_18 C76_18 1_555 1_555
H32_18 C77_18 1_555 1_555
H33_18 C78_18 1_555 1_555
C87_18 C32_18 1_555 1_555
C88_18 C34_18 1_555 1_555
C89_18 C33_18 1_555 1_555
H42_18 C87_18 1_555 1_555
H43_18 C88_18 1_555 1_555
H44_18 C89_18 1_555 1_555
C98_18 C65_18 1_555 1_555
C99_18 C66_18 1_555 1_555
C100_18 C67_18 1_555 1_555
C109_18 C98_18 1_555 1_555
C110_18 C98_18 1_555 1_555
C111_18 C99_18 1_555 1_555
C120_18 C54_18 1_555 1_555
C121_18 C55_18 1_555 1_555
C122_18 C56_18 1_555 1_555
C131_18 C120_18 1_555 1_555
C132_18 C121_18 1_555 1_555
C133_18 C122_18 1_555 1_555
H53_18 C131_18 1_555 1_555
H54_18 C132_18 1_555 1_555
H55_18 C133_18 1_555 1_555
H64_18 C131_18 1_555 1_555
H65_18 C132_18 1_555 1_555
H66_18 C133_18 1_555 1_555
C142_18 C131_18 1_555 1_555
C143_18 C132_18 1_555 1_555
C144_18 C133_18 1_555 1_555
H75_18 C142_18 1_555 1_555
H76_18 C143_18 1_555 1_555
H77_18 C144_18 1_555 1_555
H86_18 C142_18 1_555 1_555
H87_18 C143_18 1_555 1_555
H88_18 C144_18 1_555 1_555
H97_18 C142_18 1_555 1_555
H98_18 C143_18 1_555 1_555
H99_18 C144_18 1_555 1_555
C153_18 C120_18 1_555 1_555
C154_18 C121_18 1_555 1_555
C155_18 C122_18 1_555 1_555
H108_18 C153_18 1_555 1_555
H109_18 C154_18 1_555 1_555
H110_18 C155_18 1_555 1_555
H119_18 C153_18 1_555 1_555
H120_18 C154_18 1_555 1_555
H121_18 C155_18 1_555 1_555
C164_18 C153_18 1_555 1_555
C165_18 C154_18 1_555 1_555
C166_18 C155_18 1_555 1_555
H130_18 C164_18 1_555 1_555
H131_18 C165_18 1_555 1_555
H132_18 C166_18 1_555 1_555
H141_18 C164_18 1_555 1_555
H142_18 C165_18 1_555 1_555
H143_18 C166_18 1_555 1_555
H152_18 C164_18 1_555 1_555
H153_18 C165_18 1_555 1_555
H154_18 C166_18 1_555 1_555
O11_23 C16_18 1_555 1_555
C76_18 C87_18 1_555 1_555
C77_18 C88_18 1_555 1_555
C78_18 C89_18 1_555 1_555
C99_18 C109_18 1_555 1_555
C100_18 C110_18 1_555 1_555
C100_18 C111_18 1_555 1_555
C109_18 C120_18 1_555 1_555
C110_18 C121_18 1_555 1_555
C111_18 C122_18 1_555 1_555
O11_21 C22_19 1_555 1_555
O6_22 C23_19 1_555 1_555
C16_19 O29_13 1_555 1_555
C22_19 O26_21 1_555 1_555
C23_19 O21_22 1_555 1_555
C32_19 C16_19 1_555 1_555
C33_19 C22_19 1_555 1_555
C34_19 C23_19 1_555 1_555
C43_19 C32_19 1_555 1_555
C44_19 C33_19 1_555 1_555
C45_19 C34_19 1_555 1_555
H20_19 C43_19 1_555 1_555
H21_19 C44_19 1_555 1_555
H22_19 C45_19 1_555 1_555
C54_19 C43_19 1_555 1_555
C55_19 C44_19 1_555 1_555
C56_19 C45_19 1_555 1_555
C65_19 C54_19 1_555 1_555
C66_19 C56_19 1_555 1_555
C67_19 C55_19 1_555 1_555
C76_19 C65_19 1_555 1_555
C77_19 C66_19 1_555 1_555
C78_19 C67_19 1_555 1_555
H31_19 C76_19 1_555 1_555
H32_19 C77_19 1_555 1_555
H33_19 C78_19 1_555 1_555
C87_19 C32_19 1_555 1_555
C88_19 C34_19 1_555 1_555
C89_19 C33_19 1_555 1_555
H42_19 C87_19 1_555 1_555
H43_19 C88_19 1_555 1_555
H44_19 C89_19 1_555 1_555
C98_19 C65_19 1_555 1_555
C99_19 C66_19 1_555 1_555
C100_19 C67_19 1_555 1_555
C109_19 C98_19 1_555 1_555
C110_19 C98_19 1_555 1_555
C111_19 C99_19 1_555 1_555
C120_19 C54_19 1_555 1_555
C121_19 C55_19 1_555 1_555
C122_19 C56_19 1_555 1_555
C131_19 C120_19 1_555 1_555
C132_19 C121_19 1_555 1_555
C133_19 C122_19 1_555 1_555
H53_19 C131_19 1_555 1_555
H54_19 C132_19 1_555 1_555
H55_19 C133_19 1_555 1_555
H64_19 C131_19 1_555 1_555
H65_19 C132_19 1_555 1_555
H66_19 C133_19 1_555 1_555
C142_19 C131_19 1_555 1_555
C143_19 C132_19 1_555 1_555
C144_19 C133_19 1_555 1_555
H75_19 C142_19 1_555 1_555
H76_19 C143_19 1_555 1_555
H77_19 C144_19 1_555 1_555
H86_19 C142_19 1_555 1_555
H87_19 C143_19 1_555 1_555
H88_19 C144_19 1_555 1_555
H97_19 C142_19 1_555 1_555
H98_19 C143_19 1_555 1_555
H99_19 C144_19 1_555 1_555
C153_19 C120_19 1_555 1_555
C154_19 C121_19 1_555 1_555
C155_19 C122_19 1_555 1_555
H108_19 C153_19 1_555 1_555
H109_19 C154_19 1_555 1_555
H110_19 C155_19 1_555 1_555
H119_19 C153_19 1_555 1_555
H120_19 C154_19 1_555 1_555
H121_19 C155_19 1_555 1_555
C164_19 C153_19 1_555 1_555
C165_19 C154_19 1_555 1_555
C166_19 C155_19 1_555 1_555
H130_19 C164_19 1_555 1_555
H131_19 C165_19 1_555 1_555
H132_19 C166_19 1_555 1_555
H141_19 C164_19 1_555 1_555
H142_19 C165_19 1_555 1_555
H143_19 C166_19 1_555 1_555
H152_19 C164_19 1_555 1_555
H153_19 C165_19 1_555 1_555
H154_19 C166_19 1_555 1_555
O14_13 C16_19 1_555 1_555
C76_19 C87_19 1_555 1_555
C77_19 C88_19 1_555 1_555
C78_19 C89_19 1_555 1_555
C99_19 C109_19 1_555 1_555
C100_19 C110_19 1_555 1_555
C100_19 C111_19 1_555 1_555
C109_19 C120_19 1_555 1_555
C110_19 C121_19 1_555 1_555
C111_19 C122_19 1_555 1_555
O9_13 C1_12 1_555 1_555
C1_12 C2_12 1_555 1_555
C2_12 C3_12 1_555 1_555
C3_12 H1_12 1_555 1_555
C4_12 C3_12 1_555 1_555
C5_12 C4_12 1_555 1_555
C6_12 C5_12 1_555 1_555
H2_12 C6_12 1_555 1_555
C7_12 C2_12 1_555 1_555
H3_12 C7_12 1_555 1_555
C8_12 C5_12 1_555 1_555
C9_12 C8_12 1_555 1_555
C10_12 C4_12 1_555 1_555
C11_12 C10_12 1_555 1_555
H4_12 C11_12 1_555 1_555
H5_12 C11_12 1_555 1_555
C12_12 C11_12 1_555 1_555
H6_12 C12_12 1_555 1_555
H7_12 C12_12 1_555 1_555
H8_12 C12_12 1_555 1_555
C13_12 C10_12 1_555 1_555
H9_12 C13_12 1_555 1_555
H10_12 C13_12 1_555 1_555
C14_12 C13_12 1_555 1_555
H11_12 C14_12 1_555 1_555
H12_12 C14_12 1_555 1_555
H13_12 C14_12 1_555 1_555
O9_15 C17_12 1_555 1_555
O9_14 C18_12 1_555 1_555
C17_12 O22_15 1_555 1_555
C18_12 O22_14 1_555 1_555
C27_12 C17_12 1_555 1_555
C28_12 C18_12 1_555 1_555
C38_12 C27_12 1_555 1_555
C39_12 C28_12 1_555 1_555
H15_12 C38_12 1_555 1_555
H16_12 C39_12 1_555 1_555
C49_12 C38_12 1_555 1_555
C50_12 C39_12 1_555 1_555
C60_12 C49_12 1_555 1_555
C61_12 C50_12 1_555 1_555
C71_12 C60_12 1_555 1_555
C72_12 C61_12 1_555 1_555
H26_12 C71_12 1_555 1_555
H27_12 C72_12 1_555 1_555
C82_12 C27_12 1_555 1_555
C83_12 C28_12 1_555 1_555
H37_12 C82_12 1_555 1_555
H38_12 C83_12 1_555 1_555
C93_12 C9_12 1_555 1_555
C94_12 C61_12 1_555 1_555
C104_12 C8_12 1_555 1_555
C105_12 C93_12 1_555 1_555
C115_12 C9_12 1_555 1_555
C116_12 C50_12 1_555 1_555
C126_12 C115_12 1_555 1_555
C127_12 C116_12 1_555 1_555
H48_12 C126_12 1_555 1_555
H49_12 C127_12 1_555 1_555
H59_12 C126_12 1_555 1_555
H60_12 C127_12 1_555 1_555
C137_12 C126_12 1_555 1_555
C138_12 C127_12 1_555 1_555
H70_12 C137_12 1_555 1_555
H71_12 C138_12 1_555 1_555
H81_12 C137_12 1_555 1_555
H82_12 C138_12 1_555 1_555
H92_12 C137_12 1_555 1_555
H93_12 C138_12 1_555 1_555
C148_12 C115_12 1_555 1_555
C149_12 C116_12 1_555 1_555
H103_12 C148_12 1_555 1_555
H104_12 C149_12 1_555 1_555
H114_12 C148_12 1_555 1_555
H115_12 C149_12 1_555 1_555
C159_12 C148_12 1_555 1_555
C160_12 C149_12 1_555 1_555
H125_12 C159_12 1_555 1_555
H126_12 C160_12 1_555 1_555
H136_12 C159_12 1_555 1_555
H137_12 C160_12 1_555 1_555
H147_12 C159_12 1_555 1_555
H148_12 C160_12 1_555 1_555
C1_12 O22_13 1_555 1_555
C6_12 C7_12 1_555 1_555
C10_12 C104_12 1_555 1_555
C49_12 C115_12 1_555 1_555
C60_12 C93_12 1_555 1_555
C71_12 C82_12 1_555 1_555
C72_12 C83_12 1_555 1_555
C94_12 C104_12 1_555 1_555
C94_12 C105_12 1_555 1_555
C105_12 C116_12 1_555 1_555
O14_24 C22_20 1_555 1_555
O14_16 C23_20 1_555 1_555
C16_20 O29_19 1_555 1_555
C22_20 O29_24 1_555 1_555
C23_20 O29_16 1_555 1_555
C32_20 C16_20 1_555 1_555
C33_20 C22_20 1_555 1_555
C34_20 C23_20 1_555 1_555
C43_20 C32_20 1_555 1_555
C44_20 C33_20 1_555 1_555
C45_20 C34_20 1_555 1_555
H20_20 C43_20 1_555 1_555
H21_20 C44_20 1_555 1_555
H22_20 C45_20 1_555 1_555
C54_20 C43_20 1_555 1_555
C55_20 C44_20 1_555 1_555
C56_20 C45_20 1_555 1_555
C65_20 C54_20 1_555 1_555
C66_20 C56_20 1_555 1_555
C67_20 C55_20 1_555 1_555
C76_20 C65_20 1_555 1_555
C77_20 C66_20 1_555 1_555
C78_20 C67_20 1_555 1_555
H31_20 C76_20 1_555 1_555
H32_20 C77_20 1_555 1_555
H33_20 C78_20 1_555 1_555
C87_20 C32_20 1_555 1_555
C88_20 C34_20 1_555 1_555
C89_20 C33_20 1_555 1_555
H42_20 C87_20 1_555 1_555
H43_20 C88_20 1_555 1_555
H44_20 C89_20 1_555 1_555
C98_20 C65_20 1_555 1_555
C99_20 C66_20 1_555 1_555
C100_20 C67_20 1_555 1_555
C109_20 C98_20 1_555 1_555
C110_20 C98_20 1_555 1_555
C111_20 C99_20 1_555 1_555
C120_20 C54_20 1_555 1_555
C121_20 C55_20 1_555 1_555
C122_20 C56_20 1_555 1_555
C131_20 C120_20 1_555 1_555
C132_20 C121_20 1_555 1_555
C133_20 C122_20 1_555 1_555
H53_20 C131_20 1_555 1_555
H54_20 C132_20 1_555 1_555
H55_20 C133_20 1_555 1_555
H64_20 C131_20 1_555 1_555
H65_20 C132_20 1_555 1_555
H66_20 C133_20 1_555 1_555
C142_20 C131_20 1_555 1_555
C143_20 C132_20 1_555 1_555
C144_20 C133_20 1_555 1_555
H75_20 C142_20 1_555 1_555
H76_20 C143_20 1_555 1_555
H77_20 C144_20 1_555 1_555
H86_20 C142_20 1_555 1_555
H87_20 C143_20 1_555 1_555
H88_20 C144_20 1_555 1_555
H97_20 C142_20 1_555 1_555
H98_20 C143_20 1_555 1_555
H99_20 C144_20 1_555 1_555
C153_20 C120_20 1_555 1_555
C154_20 C121_20 1_555 1_555
C155_20 C122_20 1_555 1_555
H108_20 C153_20 1_555 1_555
H109_20 C154_20 1_555 1_555
H110_20 C155_20 1_555 1_555
H119_20 C153_20 1_555 1_555
H120_20 C154_20 1_555 1_555
H121_20 C155_20 1_555 1_555
C164_20 C153_20 1_555 1_555
C165_20 C154_20 1_555 1_555
C166_20 C155_20 1_555 1_555
H130_20 C164_20 1_555 1_555
H131_20 C165_20 1_555 1_555
H132_20 C166_20 1_555 1_555
H141_20 C164_20 1_555 1_555
H142_20 C165_20 1_555 1_555
H143_20 C166_20 1_555 1_555
H152_20 C164_20 1_555 1_555
H153_20 C165_20 1_555 1_555
H154_20 C166_20 1_555 1_555
O14_19 C16_20 1_555 1_555
C76_20 C87_20 1_555 1_555
C77_20 C88_20 1_555 1_555
C78_20 C89_20 1_555 1_555
C99_20 C109_20 1_555 1_555
C100_20 C110_20 1_555 1_555
C100_20 C111_20 1_555 1_555
C109_20 C120_20 1_555 1_555
C110_20 C121_20 1_555 1_555
C111_20 C122_20 1_555 1_555
O6_11 C22_21 1_555 1_555
O11_5 C23_21 1_555 1_555
C16_21 O21_23 1_555 1_555
C22_21 O21_11 1_555 1_555
C23_21 O26_5 1_555 1_555
C32_21 C16_21 1_555 1_555
C33_21 C22_21 1_555 1_555
C34_21 C23_21 1_555 1_555
C43_21 C32_21 1_555 1_555
C44_21 C33_21 1_555 1_555
C45_21 C34_21 1_555 1_555
H20_21 C43_21 1_555 1_555
H21_21 C44_21 1_555 1_555
H22_21 C45_21 1_555 1_555
C54_21 C43_21 1_555 1_555
C55_21 C44_21 1_555 1_555
C56_21 C45_21 1_555 1_555
C65_21 C54_21 1_555 1_555
C66_21 C56_21 1_555 1_555
C67_21 C55_21 1_555 1_555
C76_21 C65_21 1_555 1_555
C77_21 C66_21 1_555 1_555
C78_21 C67_21 1_555 1_555
H31_21 C76_21 1_555 1_555
H32_21 C77_21 1_555 1_555
H33_21 C78_21 1_555 1_555
C87_21 C32_21 1_555 1_555
C88_21 C34_21 1_555 1_555
C89_21 C33_21 1_555 1_555
H42_21 C87_21 1_555 1_555
H43_21 C88_21 1_555 1_555
H44_21 C89_21 1_555 1_555
C98_21 C65_21 1_555 1_555
C99_21 C66_21 1_555 1_555
C100_21 C67_21 1_555 1_555
C109_21 C98_21 1_555 1_555
C110_21 C98_21 1_555 1_555
C111_21 C99_21 1_555 1_555
C120_21 C54_21 1_555 1_555
C121_21 C55_21 1_555 1_555
C122_21 C56_21 1_555 1_555
C131_21 C120_21 1_555 1_555
C132_21 C121_21 1_555 1_555
C133_21 C122_21 1_555 1_555
H53_21 C131_21 1_555 1_555
H54_21 C132_21 1_555 1_555
H55_21 C133_21 1_555 1_555
H64_21 C131_21 1_555 1_555
H65_21 C132_21 1_555 1_555
H66_21 C133_21 1_555 1_555
C142_21 C131_21 1_555 1_555
C143_21 C132_21 1_555 1_555
C144_21 C133_21 1_555 1_555
H75_21 C142_21 1_555 1_555
H76_21 C143_21 1_555 1_555
H77_21 C144_21 1_555 1_555
H86_21 C142_21 1_555 1_555
H87_21 C143_21 1_555 1_555
H88_21 C144_21 1_555 1_555
H97_21 C142_21 1_555 1_555
H98_21 C143_21 1_555 1_555
H99_21 C144_21 1_555 1_555
C153_21 C120_21 1_555 1_555
C154_21 C121_21 1_555 1_555
C155_21 C122_21 1_555 1_555
H108_21 C153_21 1_555 1_555
H109_21 C154_21 1_555 1_555
H110_21 C155_21 1_555 1_555
H119_21 C153_21 1_555 1_555
H120_21 C154_21 1_555 1_555
H121_21 C155_21 1_555 1_555
C164_21 C153_21 1_555 1_555
C165_21 C154_21 1_555 1_555
C166_21 C155_21 1_555 1_555
H130_21 C164_21 1_555 1_555
H131_21 C165_21 1_555 1_555
H132_21 C166_21 1_555 1_555
H141_21 C164_21 1_555 1_555
H142_21 C165_21 1_555 1_555
H143_21 C166_21 1_555 1_555
H152_21 C164_21 1_555 1_555
H153_21 C165_21 1_555 1_555
H154_21 C166_21 1_555 1_555
O6_23 C16_21 1_555 1_555
C76_21 C87_21 1_555 1_555
C77_21 C88_21 1_555 1_555
C78_21 C89_21 1_555 1_555
C99_21 C109_21 1_555 1_555
C100_21 C110_21 1_555 1_555
C100_21 C111_21 1_555 1_555
C109_21 C120_21 1_555 1_555
C110_21 C121_21 1_555 1_555
C111_21 C122_21 1_555 1_555
O6_10 C22_22 1_555 1_555
O11_4 C23_22 1_555 1_555
C16_22 O26_20 1_555 1_555
C22_22 O21_10 1_555 1_555
C23_22 O26_4 1_555 1_555
C32_22 C16_22 1_555 1_555
C33_22 C22_22 1_555 1_555
C34_22 C23_22 1_555 1_555
C43_22 C32_22 1_555 1_555
C44_22 C33_22 1_555 1_555
C45_22 C34_22 1_555 1_555
H20_22 C43_22 1_555 1_555
H21_22 C44_22 1_555 1_555
H22_22 C45_22 1_555 1_555
C54_22 C43_22 1_555 1_555
C55_22 C44_22 1_555 1_555
C56_22 C45_22 1_555 1_555
C65_22 C54_22 1_555 1_555
C66_22 C56_22 1_555 1_555
C67_22 C55_22 1_555 1_555
C76_22 C65_22 1_555 1_555
C77_22 C66_22 1_555 1_555
C78_22 C67_22 1_555 1_555
H31_22 C76_22 1_555 1_555
H32_22 C77_22 1_555 1_555
H33_22 C78_22 1_555 1_555
C87_22 C32_22 1_555 1_555
C88_22 C34_22 1_555 1_555
C89_22 C33_22 1_555 1_555
H42_22 C87_22 1_555 1_555
H43_22 C88_22 1_555 1_555
H44_22 C89_22 1_555 1_555
C98_22 C65_22 1_555 1_555
C99_22 C66_22 1_555 1_555
C100_22 C67_22 1_555 1_555
C109_22 C98_22 1_555 1_555
C110_22 C98_22 1_555 1_555
C111_22 C99_22 1_555 1_555
C120_22 C54_22 1_555 1_555
C121_22 C55_22 1_555 1_555
C122_22 C56_22 1_555 1_555
C131_22 C120_22 1_555 1_555
C132_22 C121_22 1_555 1_555
C133_22 C122_22 1_555 1_555
H53_22 C131_22 1_555 1_555
H54_22 C132_22 1_555 1_555
H55_22 C133_22 1_555 1_555
H64_22 C131_22 1_555 1_555
H65_22 C132_22 1_555 1_555
H66_22 C133_22 1_555 1_555
C142_22 C131_22 1_555 1_555
C143_22 C132_22 1_555 1_555
C144_22 C133_22 1_555 1_555
H75_22 C142_22 1_555 1_555
H76_22 C143_22 1_555 1_555
H77_22 C144_22 1_555 1_555
H86_22 C142_22 1_555 1_555
H87_22 C143_22 1_555 1_555
H88_22 C144_22 1_555 1_555
H97_22 C142_22 1_555 1_555
H98_22 C143_22 1_555 1_555
H99_22 C144_22 1_555 1_555
C153_22 C120_22 1_555 1_555
C154_22 C121_22 1_555 1_555
C155_22 C122_22 1_555 1_555
H108_22 C153_22 1_555 1_555
H109_22 C154_22 1_555 1_555
H110_22 C155_22 1_555 1_555
H119_22 C153_22 1_555 1_555
H120_22 C154_22 1_555 1_555
H121_22 C155_22 1_555 1_555
C164_22 C153_22 1_555 1_555
C165_22 C154_22 1_555 1_555
C166_22 C155_22 1_555 1_555
H130_22 C164_22 1_555 1_555
H131_22 C165_22 1_555 1_555
H132_22 C166_22 1_555 1_555
H141_22 C164_22 1_555 1_555
H142_22 C165_22 1_555 1_555
H143_22 C166_22 1_555 1_555
H152_22 C164_22 1_555 1_555
H153_22 C165_22 1_555 1_555
H154_22 C166_22 1_555 1_555
O11_20 C16_22 1_555 1_555
C76_22 C87_22 1_555 1_555
C77_22 C88_22 1_555 1_555
C78_22 C89_22 1_555 1_555
C99_22 C109_22 1_555 1_555
C100_22 C110_22 1_555 1_555
C100_22 C111_22 1_555 1_555
C109_22 C120_22 1_555 1_555
C110_22 C121_22 1_555 1_555
C111_22 C122_22 1_555 1_555
O11_24 C22_23 1_555 1_555
O6_19 C23_23 1_555 1_555
C16_23 O29 1_555 1_555
C22_23 O26_24 1_555 1_555
C23_23 O21_19 1_555 1_555
C32_23 C16_23 1_555 1_555
C33_23 C22_23 1_555 1_555
C34_23 C23_23 1_555 1_555
C43_23 C32_23 1_555 1_555
C44_23 C33_23 1_555 1_555
C45_23 C34_23 1_555 1_555
H20_23 C43_23 1_555 1_555
H21_23 C44_23 1_555 1_555
H22_23 C45_23 1_555 1_555
C54_23 C43_23 1_555 1_555
C55_23 C44_23 1_555 1_555
C56_23 C45_23 1_555 1_555
C65_23 C54_23 1_555 1_555
C66_23 C56_23 1_555 1_555
C67_23 C55_23 1_555 1_555
C76_23 C65_23 1_555 1_555
C77_23 C66_23 1_555 1_555
C78_23 C67_23 1_555 1_555
H31_23 C76_23 1_555 1_555
H32_23 C77_23 1_555 1_555
H33_23 C78_23 1_555 1_555
C87_23 C32_23 1_555 1_555
C88_23 C34_23 1_555 1_555
C89_23 C33_23 1_555 1_555
H42_23 C87_23 1_555 1_555
H43_23 C88_23 1_555 1_555
H44_23 C89_23 1_555 1_555
C98_23 C65_23 1_555 1_555
C99_23 C66_23 1_555 1_555
C100_23 C67_23 1_555 1_555
C109_23 C98_23 1_555 1_555
C110_23 C98_23 1_555 1_555
C111_23 C99_23 1_555 1_555
C120_23 C54_23 1_555 1_555
C121_23 C55_23 1_555 1_555
C122_23 C56_23 1_555 1_555
C131_23 C120_23 1_555 1_555
C132_23 C121_23 1_555 1_555
C133_23 C122_23 1_555 1_555
H53_23 C131_23 1_555 1_555
H54_23 C132_23 1_555 1_555
H55_23 C133_23 1_555 1_555
H64_23 C131_23 1_555 1_555
H65_23 C132_23 1_555 1_555
H66_23 C133_23 1_555 1_555
C142_23 C131_23 1_555 1_555
C143_23 C132_23 1_555 1_555
C144_23 C133_23 1_555 1_555
H75_23 C142_23 1_555 1_555
H76_23 C143_23 1_555 1_555
H77_23 C144_23 1_555 1_555
H86_23 C142_23 1_555 1_555
H87_23 C143_23 1_555 1_555
H88_23 C144_23 1_555 1_555
H97_23 C142_23 1_555 1_555
H98_23 C143_23 1_555 1_555
H99_23 C144_23 1_555 1_555
C153_23 C120_23 1_555 1_555
C154_23 C121_23 1_555 1_555
C155_23 C122_23 1_555 1_555
H108_23 C153_23 1_555 1_555
H109_23 C154_23 1_555 1_555
H110_23 C155_23 1_555 1_555
H119_23 C153_23 1_555 1_555
H120_23 C154_23 1_555 1_555
H121_23 C155_23 1_555 1_555
C164_23 C153_23 1_555 1_555
C165_23 C154_23 1_555 1_555
C166_23 C155_23 1_555 1_555
H130_23 C164_23 1_555 1_555
H131_23 C165_23 1_555 1_555
H132_23 C166_23 1_555 1_555
H141_23 C164_23 1_555 1_555
H142_23 C165_23 1_555 1_555
H143_23 C166_23 1_555 1_555
H152_23 C164_23 1_555 1_555
H153_23 C165_23 1_555 1_555
H154_23 C166_23 1_555 1_555
O14 C16_23 1_555 1_555
C76_23 C87_23 1_555 1_555
C77_23 C88_23 1_555 1_555
C78_23 C89_23 1_555 1_555
C99_23 C109_23 1_555 1_555
C100_23 C110_23 1_555 1_555
C100_23 C111_23 1_555 1_555
C109_23 C120_23 1_555 1_555
C110_23 C121_23 1_555 1_555
C111_23 C122_23 1_555 1_555
O9_5 C1_13 1_555 1_555
C1_13 C2_13 1_555 1_555
C2_13 C3_13 1_555 1_555
C3_13 H1_13 1_555 1_555
C4_13 C3_13 1_555 1_555
C5_13 C4_13 1_555 1_555
C6_13 C5_13 1_555 1_555
H2_13 C6_13 1_555 1_555
C7_13 C2_13 1_555 1_555
H3_13 C7_13 1_555 1_555
C8_13 C5_13 1_555 1_555
C9_13 C8_13 1_555 1_555
C10_13 C4_13 1_555 1_555
C11_13 C10_13 1_555 1_555
H4_13 C11_13 1_555 1_555
H5_13 C11_13 1_555 1_555
C12_13 C11_13 1_555 1_555
H6_13 C12_13 1_555 1_555
H7_13 C12_13 1_555 1_555
H8_13 C12_13 1_555 1_555
C13_13 C10_13 1_555 1_555
H9_13 C13_13 1_555 1_555
H10_13 C13_13 1_555 1_555
C14_13 C13_13 1_555 1_555
H11_13 C14_13 1_555 1_555
H12_13 C14_13 1_555 1_555
H13_13 C14_13 1_555 1_555
O9_10 C17_13 1_555 1_555
O9_8 C18_13 1_555 1_555
C17_13 O22_10 1_555 1_555
C18_13 O22_8 1_555 1_555
C27_13 C17_13 1_555 1_555
C28_13 C18_13 1_555 1_555
C38_13 C27_13 1_555 1_555
C39_13 C28_13 1_555 1_555
H15_13 C38_13 1_555 1_555
H16_13 C39_13 1_555 1_555
C49_13 C38_13 1_555 1_555
C50_13 C39_13 1_555 1_555
C60_13 C49_13 1_555 1_555
C61_13 C50_13 1_555 1_555
C71_13 C60_13 1_555 1_555
C72_13 C61_13 1_555 1_555
H26_13 C71_13 1_555 1_555
H27_13 C72_13 1_555 1_555
C82_13 C27_13 1_555 1_555
C83_13 C28_13 1_555 1_555
H37_13 C82_13 1_555 1_555
H38_13 C83_13 1_555 1_555
C93_13 C9_13 1_555 1_555
C94_13 C61_13 1_555 1_555
C104_13 C8_13 1_555 1_555
C105_13 C93_13 1_555 1_555
C115_13 C9_13 1_555 1_555
C116_13 C50_13 1_555 1_555
C126_13 C115_13 1_555 1_555
C127_13 C116_13 1_555 1_555
H48_13 C126_13 1_555 1_555
H49_13 C127_13 1_555 1_555
H59_13 C126_13 1_555 1_555
H60_13 C127_13 1_555 1_555
C137_13 C126_13 1_555 1_555
C138_13 C127_13 1_555 1_555
H70_13 C137_13 1_555 1_555
H71_13 C138_13 1_555 1_555
H81_13 C137_13 1_555 1_555
H82_13 C138_13 1_555 1_555
H92_13 C137_13 1_555 1_555
H93_13 C138_13 1_555 1_555
C148_13 C115_13 1_555 1_555
C149_13 C116_13 1_555 1_555
H103_13 C148_13 1_555 1_555
H104_13 C149_13 1_555 1_555
H114_13 C148_13 1_555 1_555
H115_13 C149_13 1_555 1_555
C159_13 C148_13 1_555 1_555
C160_13 C149_13 1_555 1_555
H125_13 C159_13 1_555 1_555
H126_13 C160_13 1_555 1_555
H136_13 C159_13 1_555 1_555
H137_13 C160_13 1_555 1_555
H147_13 C159_13 1_555 1_555
H148_13 C160_13 1_555 1_555
C1_13 O22_5 1_555 1_555
C6_13 C7_13 1_555 1_555
C10_13 C104_13 1_555 1_555
C49_13 C115_13 1_555 1_555
C60_13 C93_13 1_555 1_555
C71_13 C82_13 1_555 1_555
C72_13 C83_13 1_555 1_555
C94_13 C104_13 1_555 1_555
C94_13 C105_13 1_555 1_555
C105_13 C116_13 1_555 1_555
O14_21 C22_24 1_555 1_555
O14_8 C23_24 1_555 1_555
C16_24 O29_22 1_555 1_555
C22_24 O29_21 1_555 1_555
C23_24 O29_8 1_555 1_555
C32_24 C16_24 1_555 1_555
C33_24 C22_24 1_555 1_555
C34_24 C23_24 1_555 1_555
C43_24 C32_24 1_555 1_555
C44_24 C33_24 1_555 1_555
C45_24 C34_24 1_555 1_555
H20_24 C43_24 1_555 1_555
H21_24 C44_24 1_555 1_555
H22_24 C45_24 1_555 1_555
C54_24 C43_24 1_555 1_555
C55_24 C44_24 1_555 1_555
C56_24 C45_24 1_555 1_555
C65_24 C54_24 1_555 1_555
C66_24 C56_24 1_555 1_555
C67_24 C55_24 1_555 1_555
C76_24 C65_24 1_555 1_555
C77_24 C66_24 1_555 1_555
C78_24 C67_24 1_555 1_555
H31_24 C76_24 1_555 1_555
H32_24 C77_24 1_555 1_555
H33_24 C78_24 1_555 1_555
C87_24 C32_24 1_555 1_555
C88_24 C34_24 1_555 1_555
C89_24 C33_24 1_555 1_555
H42_24 C87_24 1_555 1_555
H43_24 C88_24 1_555 1_555
H44_24 C89_24 1_555 1_555
C98_24 C65_24 1_555 1_555
C99_24 C66_24 1_555 1_555
C100_24 C67_24 1_555 1_555
C109_24 C98_24 1_555 1_555
C110_24 C98_24 1_555 1_555
C111_24 C99_24 1_555 1_555
C120_24 C54_24 1_555 1_555
C121_24 C55_24 1_555 1_555
C122_24 C56_24 1_555 1_555
C131_24 C120_24 1_555 1_555
C132_24 C121_24 1_555 1_555
C133_24 C122_24 1_555 1_555
H53_24 C131_24 1_555 1_555
H54_24 C132_24 1_555 1_555
H55_24 C133_24 1_555 1_555
H64_24 C131_24 1_555 1_555
H65_24 C132_24 1_555 1_555
H66_24 C133_24 1_555 1_555
C142_24 C131_24 1_555 1_555
C143_24 C132_24 1_555 1_555
C144_24 C133_24 1_555 1_555
H75_24 C142_24 1_555 1_555
H76_24 C143_24 1_555 1_555
H77_24 C144_24 1_555 1_555
H86_24 C142_24 1_555 1_555
H87_24 C143_24 1_555 1_555
H88_24 C144_24 1_555 1_555
H97_24 C142_24 1_555 1_555
H98_24 C143_24 1_555 1_555
H99_24 C144_24 1_555 1_555
C153_24 C120_24 1_555 1_555
C154_24 C121_24 1_555 1_555
C155_24 C122_24 1_555 1_555
H108_24 C153_24 1_555 1_555
H109_24 C154_24 1_555 1_555
H110_24 C155_24 1_555 1_555
H119_24 C153_24 1_555 1_555
H120_24 C154_24 1_555 1_555
H121_24 C155_24 1_555 1_555
C164_24 C153_24 1_555 1_555
C165_24 C154_24 1_555 1_555
C166_24 C155_24 1_555 1_555
H130_24 C164_24 1_555 1_555
H131_24 C165_24 1_555 1_555
H132_24 C166_24 1_555 1_555
H141_24 C164_24 1_555 1_555
H142_24 C165_24 1_555 1_555
H143_24 C166_24 1_555 1_555
H152_24 C164_24 1_555 1_555
H153_24 C165_24 1_555 1_555
H154_24 C166_24 1_555 1_555
O14_22 C16_24 1_555 1_555
C76_24 C87_24 1_555 1_555
C77_24 C88_24 1_555 1_555
C78_24 C89_24 1_555 1_555
C99_24 C109_24 1_555 1_555
C100_24 C110_24 1_555 1_555
C100_24 C111_24 1_555 1_555
C109_24 C120_24 1_555 1_555
C110_24 C121_24 1_555 1_555
C111_24 C122_24 1_555 1_555
O11_12 C22_25 1_555 1_555
O11_22 C23_25 1_555 1_555
C16_25 O21_8 1_555 1_555
C22_25 O26_12 1_555 1_555
C23_25 O26_22 1_555 1_555
C32_25 C16_25 1_555 1_555
C33_25 C22_25 1_555 1_555
C34_25 C23_25 1_555 1_555
C43_25 C32_25 1_555 1_555
C44_25 C33_25 1_555 1_555
C45_25 C34_25 1_555 1_555
H20_25 C43_25 1_555 1_555
H21_25 C44_25 1_555 1_555
H22_25 C45_25 1_555 1_555
C54_25 C43_25 1_555 1_555
C55_25 C44_25 1_555 1_555
C56_25 C45_25 1_555 1_555
C65_25 C54_25 1_555 1_555
C66_25 C56_25 1_555 1_555
C67_25 C55_25 1_555 1_555
C76_25 C65_25 1_555 1_555
C77_25 C66_25 1_555 1_555
C78_25 C67_25 1_555 1_555
H31_25 C76_25 1_555 1_555
H32_25 C77_25 1_555 1_555
H33_25 C78_25 1_555 1_555
C87_25 C32_25 1_555 1_555
C88_25 C34_25 1_555 1_555
C89_25 C33_25 1_555 1_555
H42_25 C87_25 1_555 1_555
H43_25 C88_25 1_555 1_555
H44_25 C89_25 1_555 1_555
C98_25 C65_25 1_555 1_555
C99_25 C66_25 1_555 1_555
C100_25 C67_25 1_555 1_555
C109_25 C98_25 1_555 1_555
C110_25 C98_25 1_555 1_555
C111_25 C99_25 1_555 1_555
C120_25 C54_25 1_555 1_555
C121_25 C55_25 1_555 1_555
C122_25 C56_25 1_555 1_555
C131_25 C120_25 1_555 1_555
C132_25 C121_25 1_555 1_555
C133_25 C122_25 1_555 1_555
H53_25 C131_25 1_555 1_555
H54_25 C132_25 1_555 1_555
H55_25 C133_25 1_555 1_555
H64_25 C131_25 1_555 1_555
H65_25 C132_25 1_555 1_555
H66_25 C133_25 1_555 1_555
C142_25 C131_25 1_555 1_555
C143_25 C132_25 1_555 1_555
C144_25 C133_25 1_555 1_555
H75_25 C142_25 1_555 1_555
H76_25 C143_25 1_555 1_555
H77_25 C144_25 1_555 1_555
H86_25 C142_25 1_555 1_555
H87_25 C143_25 1_555 1_555
H88_25 C144_25 1_555 1_555
H97_25 C142_25 1_555 1_555
H98_25 C143_25 1_555 1_555
H99_25 C144_25 1_555 1_555
C153_25 C120_25 1_555 1_555
C154_25 C121_25 1_555 1_555
C155_25 C122_25 1_555 1_555
H108_25 C153_25 1_555 1_555
H109_25 C154_25 1_555 1_555
H110_25 C155_25 1_555 1_555
H119_25 C153_25 1_555 1_555
H120_25 C154_25 1_555 1_555
H121_25 C155_25 1_555 1_555
C164_25 C153_25 1_555 1_555
C165_25 C154_25 1_555 1_555
C166_25 C155_25 1_555 1_555
H130_25 C164_25 1_555 1_555
H131_25 C165_25 1_555 1_555
H132_25 C166_25 1_555 1_555
H141_25 C164_25 1_555 1_555
H142_25 C165_25 1_555 1_555
H143_25 C166_25 1_555 1_555
H152_25 C164_25 1_555 1_555
H153_25 C165_25 1_555 1_555
H154_25 C166_25 1_555 1_555
O6_8 C16_25 1_555 1_555
C76_25 C87_25 1_555 1_555
C77_25 C88_25 1_555 1_555
C78_25 C89_25 1_555 1_555
C99_25 C109_25 1_555 1_555
C100_25 C110_25 1_555 1_555
C100_25 C111_25 1_555 1_555
C109_25 C120_25 1_555 1_555
C110_25 C121_25 1_555 1_555
C111_25 C122_25 1_555 1_555
O6_24 C22_26 1_555 1_555
O14_2 C23_26 1_555 1_555
C16_26 O26_16 1_555 1_555
C22_26 O21_24 1_555 1_555
C23_26 O29_2 1_555 1_555
C32_26 C16_26 1_555 1_555
C33_26 C22_26 1_555 1_555
C34_26 C23_26 1_555 1_555
C43_26 C32_26 1_555 1_555
C44_26 C33_26 1_555 1_555
C45_26 C34_26 1_555 1_555
H20_26 C43_26 1_555 1_555
H21_26 C44_26 1_555 1_555
H22_26 C45_26 1_555 1_555
C54_26 C43_26 1_555 1_555
C55_26 C44_26 1_555 1_555
C56_26 C45_26 1_555 1_555
C65_26 C54_26 1_555 1_555
C66_26 C56_26 1_555 1_555
C67_26 C55_26 1_555 1_555
C76_26 C65_26 1_555 1_555
C77_26 C66_26 1_555 1_555
C78_26 C67_26 1_555 1_555
H31_26 C76_26 1_555 1_555
H32_26 C77_26 1_555 1_555
H33_26 C78_26 1_555 1_555
C87_26 C32_26 1_555 1_555
C88_26 C34_26 1_555 1_555
C89_26 C33_26 1_555 1_555
H42_26 C87_26 1_555 1_555
H43_26 C88_26 1_555 1_555
H44_26 C89_26 1_555 1_555
C98_26 C65_26 1_555 1_555
C99_26 C66_26 1_555 1_555
C100_26 C67_26 1_555 1_555
C109_26 C98_26 1_555 1_555
C110_26 C98_26 1_555 1_555
C111_26 C99_26 1_555 1_555
C120_26 C54_26 1_555 1_555
C121_26 C55_26 1_555 1_555
C122_26 C56_26 1_555 1_555
C131_26 C120_26 1_555 1_555
C132_26 C121_26 1_555 1_555
C133_26 C122_26 1_555 1_555
H53_26 C131_26 1_555 1_555
H54_26 C132_26 1_555 1_555
H55_26 C133_26 1_555 1_555
H64_26 C131_26 1_555 1_555
H65_26 C132_26 1_555 1_555
H66_26 C133_26 1_555 1_555
C142_26 C131_26 1_555 1_555
C143_26 C132_26 1_555 1_555
C144_26 C133_26 1_555 1_555
H75_26 C142_26 1_555 1_555
H76_26 C143_26 1_555 1_555
H77_26 C144_26 1_555 1_555
H86_26 C142_26 1_555 1_555
H87_26 C143_26 1_555 1_555
H88_26 C144_26 1_555 1_555
H97_26 C142_26 1_555 1_555
H98_26 C143_26 1_555 1_555
H99_26 C144_26 1_555 1_555
C153_26 C120_26 1_555 1_555
C154_26 C121_26 1_555 1_555
C155_26 C122_26 1_555 1_555
H108_26 C153_26 1_555 1_555
H109_26 C154_26 1_555 1_555
H110_26 C155_26 1_555 1_555
H119_26 C153_26 1_555 1_555
H120_26 C154_26 1_555 1_555
H121_26 C155_26 1_555 1_555
C164_26 C153_26 1_555 1_555
C165_26 C154_26 1_555 1_555
C166_26 C155_26 1_555 1_555
H130_26 C164_26 1_555 1_555
H131_26 C165_26 1_555 1_555
H132_26 C166_26 1_555 1_555
H141_26 C164_26 1_555 1_555
H142_26 C165_26 1_555 1_555
H143_26 C166_26 1_555 1_555
H152_26 C164_26 1_555 1_555
H153_26 C165_26 1_555 1_555
H154_26 C166_26 1_555 1_555
O11_16 C16_26 1_555 1_555
C76_26 C87_26 1_555 1_555
C77_26 C88_26 1_555 1_555
C78_26 C89_26 1_555 1_555
C99_26 C109_26 1_555 1_555
C100_26 C110_26 1_555 1_555
C100_26 C111_26 1_555 1_555
C109_26 C120_26 1_555 1_555
C110_26 C121_26 1_555 1_555
C111_26 C122_26 1_555 1_555
O11_10 C22_27 1_555 1_555
O6_15 C23_27 1_555 1_555
C16_27 O21_7 1_555 1_555
C22_27 O26_10 1_555 1_555
C23_27 O21_15 1_555 1_555
C32_27 C16_27 1_555 1_555
C33_27 C22_27 1_555 1_555
C34_27 C23_27 1_555 1_555
C43_27 C32_27 1_555 1_555
C44_27 C33_27 1_555 1_555
C45_27 C34_27 1_555 1_555
H20_27 C43_27 1_555 1_555
H21_27 C44_27 1_555 1_555
H22_27 C45_27 1_555 1_555
C54_27 C43_27 1_555 1_555
C55_27 C44_27 1_555 1_555
C56_27 C45_27 1_555 1_555
C65_27 C54_27 1_555 1_555
C66_27 C56_27 1_555 1_555
C67_27 C55_27 1_555 1_555
C76_27 C65_27 1_555 1_555
C77_27 C66_27 1_555 1_555
C78_27 C67_27 1_555 1_555
H31_27 C76_27 1_555 1_555
H32_27 C77_27 1_555 1_555
H33_27 C78_27 1_555 1_555
C87_27 C32_27 1_555 1_555
C88_27 C34_27 1_555 1_555
C89_27 C33_27 1_555 1_555
H42_27 C87_27 1_555 1_555
H43_27 C88_27 1_555 1_555
H44_27 C89_27 1_555 1_555
C98_27 C65_27 1_555 1_555
C99_27 C66_27 1_555 1_555
C100_27 C67_27 1_555 1_555
C109_27 C98_27 1_555 1_555
C110_27 C98_27 1_555 1_555
C111_27 C99_27 1_555 1_555
C120_27 C54_27 1_555 1_555
C121_27 C55_27 1_555 1_555
C122_27 C56_27 1_555 1_555
C131_27 C120_27 1_555 1_555
C132_27 C121_27 1_555 1_555
C133_27 C122_27 1_555 1_555
H53_27 C131_27 1_555 1_555
H54_27 C132_27 1_555 1_555
H55_27 C133_27 1_555 1_555
H64_27 C131_27 1_555 1_555
H65_27 C132_27 1_555 1_555
H66_27 C133_27 1_555 1_555
C142_27 C131_27 1_555 1_555
C143_27 C132_27 1_555 1_555
C144_27 C133_27 1_555 1_555
H75_27 C142_27 1_555 1_555
H76_27 C143_27 1_555 1_555
H77_27 C144_27 1_555 1_555
H86_27 C142_27 1_555 1_555
H87_27 C143_27 1_555 1_555
H88_27 C144_27 1_555 1_555
H97_27 C142_27 1_555 1_555
H98_27 C143_27 1_555 1_555
H99_27 C144_27 1_555 1_555
C153_27 C120_27 1_555 1_555
C154_27 C121_27 1_555 1_555
C155_27 C122_27 1_555 1_555
H108_27 C153_27 1_555 1_555
H109_27 C154_27 1_555 1_555
H110_27 C155_27 1_555 1_555
H119_27 C153_27 1_555 1_555
H120_27 C154_27 1_555 1_555
H121_27 C155_27 1_555 1_555
C164_27 C153_27 1_555 1_555
C165_27 C154_27 1_555 1_555
C166_27 C155_27 1_555 1_555
H130_27 C164_27 1_555 1_555
H131_27 C165_27 1_555 1_555
H132_27 C166_27 1_555 1_555
H141_27 C164_27 1_555 1_555
H142_27 C165_27 1_555 1_555
H143_27 C166_27 1_555 1_555
H152_27 C164_27 1_555 1_555
H153_27 C165_27 1_555 1_555
H154_27 C166_27 1_555 1_555
O6_7 C16_27 1_555 1_555
C76_27 C87_27 1_555 1_555
C77_27 C88_27 1_555 1_555
C78_27 C89_27 1_555 1_555
C99_27 C109_27 1_555 1_555
C100_27 C110_27 1_555 1_555
C100_27 C111_27 1_555 1_555
C109_27 C120_27 1_555 1_555
C110_27 C121_27 1_555 1_555
C111_27 C122_27 1_555 1_555
O14_17 C22_28 1_555 1_555
O14_23 C23_28 1_555 1_555
C16_28 O29_5 1_555 1_555
C22_28 O29_17 1_555 1_555
C23_28 O29_23 1_555 1_555
C32_28 C16_28 1_555 1_555
C33_28 C22_28 1_555 1_555
C34_28 C23_28 1_555 1_555
C43_28 C32_28 1_555 1_555
C44_28 C33_28 1_555 1_555
C45_28 C34_28 1_555 1_555
H20_28 C43_28 1_555 1_555
H21_28 C44_28 1_555 1_555
H22_28 C45_28 1_555 1_555
C54_28 C43_28 1_555 1_555
C55_28 C44_28 1_555 1_555
C56_28 C45_28 1_555 1_555
C65_28 C54_28 1_555 1_555
C66_28 C56_28 1_555 1_555
C67_28 C55_28 1_555 1_555
C76_28 C65_28 1_555 1_555
C77_28 C66_28 1_555 1_555
C78_28 C67_28 1_555 1_555
H31_28 C76_28 1_555 1_555
H32_28 C77_28 1_555 1_555
H33_28 C78_28 1_555 1_555
C87_28 C32_28 1_555 1_555
C88_28 C34_28 1_555 1_555
C89_28 C33_28 1_555 1_555
H42_28 C87_28 1_555 1_555
H43_28 C88_28 1_555 1_555
H44_28 C89_28 1_555 1_555
C98_28 C65_28 1_555 1_555
C99_28 C66_28 1_555 1_555
C100_28 C67_28 1_555 1_555
C109_28 C98_28 1_555 1_555
C110_28 C98_28 1_555 1_555
C111_28 C99_28 1_555 1_555
C120_28 C54_28 1_555 1_555
C121_28 C55_28 1_555 1_555
C122_28 C56_28 1_555 1_555
C131_28 C120_28 1_555 1_555
C132_28 C121_28 1_555 1_555
C133_28 C122_28 1_555 1_555
H53_28 C131_28 1_555 1_555
H54_28 C132_28 1_555 1_555
H55_28 C133_28 1_555 1_555
H64_28 C131_28 1_555 1_555
H65_28 C132_28 1_555 1_555
H66_28 C133_28 1_555 1_555
C142_28 C131_28 1_555 1_555
C143_28 C132_28 1_555 1_555
C144_28 C133_28 1_555 1_555
H75_28 C142_28 1_555 1_555
H76_28 C143_28 1_555 1_555
H77_28 C144_28 1_555 1_555
H86_28 C142_28 1_555 1_555
H87_28 C143_28 1_555 1_555
H88_28 C144_28 1_555 1_555
H97_28 C142_28 1_555 1_555
H98_28 C143_28 1_555 1_555
H99_28 C144_28 1_555 1_555
C153_28 C120_28 1_555 1_555
C154_28 C121_28 1_555 1_555
C155_28 C122_28 1_555 1_555
H108_28 C153_28 1_555 1_555
H109_28 C154_28 1_555 1_555
H110_28 C155_28 1_555 1_555
H119_28 C153_28 1_555 1_555
H120_28 C154_28 1_555 1_555
H121_28 C155_28 1_555 1_555
C164_28 C153_28 1_555 1_555
C165_28 C154_28 1_555 1_555
C166_28 C155_28 1_555 1_555
H130_28 C164_28 1_555 1_555
H131_28 C165_28 1_555 1_555
H132_28 C166_28 1_555 1_555
H141_28 C164_28 1_555 1_555
H142_28 C165_28 1_555 1_555
H143_28 C166_28 1_555 1_555
H152_28 C164_28 1_555 1_555
H153_28 C165_28 1_555 1_555
H154_28 C166_28 1_555 1_555
O14_5 C16_28 1_555 1_555
C76_28 C87_28 1_555 1_555
C77_28 C88_28 1_555 1_555
C78_28 C89_28 1_555 1_555
C99_28 C109_28 1_555 1_555
C100_28 C110_28 1_555 1_555
C100_28 C111_28 1_555 1_555
C109_28 C120_28 1_555 1_555
C110_28 C121_28 1_555 1_555
C111_28 C122_28 1_555 1_555
O14_3 C22_29 1_555 1_555
O11_19 C23_29 1_555 1_555
C16_29 O21_16 1_555 1_555
C22_29 O29_3 1_555 1_555
C23_29 O26_19 1_555 1_555
C32_29 C16_29 1_555 1_555
C33_29 C22_29 1_555 1_555
C34_29 C23_29 1_555 1_555
C43_29 C32_29 1_555 1_555
C44_29 C33_29 1_555 1_555
C45_29 C34_29 1_555 1_555
H20_29 C43_29 1_555 1_555
H21_29 C44_29 1_555 1_555
H22_29 C45_29 1_555 1_555
C54_29 C43_29 1_555 1_555
C55_29 C44_29 1_555 1_555
C56_29 C45_29 1_555 1_555
C65_29 C54_29 1_555 1_555
C66_29 C56_29 1_555 1_555
C67_29 C55_29 1_555 1_555
C76_29 C65_29 1_555 1_555
C77_29 C66_29 1_555 1_555
C78_29 C67_29 1_555 1_555
H31_29 C76_29 1_555 1_555
H32_29 C77_29 1_555 1_555
H33_29 C78_29 1_555 1_555
C87_29 C32_29 1_555 1_555
C88_29 C34_29 1_555 1_555
C89_29 C33_29 1_555 1_555
H42_29 C87_29 1_555 1_555
H43_29 C88_29 1_555 1_555
H44_29 C89_29 1_555 1_555
C98_29 C65_29 1_555 1_555
C99_29 C66_29 1_555 1_555
C100_29 C67_29 1_555 1_555
C109_29 C98_29 1_555 1_555
C110_29 C98_29 1_555 1_555
C111_29 C99_29 1_555 1_555
C120_29 C54_29 1_555 1_555
C121_29 C55_29 1_555 1_555
C122_29 C56_29 1_555 1_555
C131_29 C120_29 1_555 1_555
C132_29 C121_29 1_555 1_555
C133_29 C122_29 1_555 1_555
H53_29 C131_29 1_555 1_555
H54_29 C132_29 1_555 1_555
H55_29 C133_29 1_555 1_555
H64_29 C131_29 1_555 1_555
H65_29 C132_29 1_555 1_555
H66_29 C133_29 1_555 1_555
C142_29 C131_29 1_555 1_555
C143_29 C132_29 1_555 1_555
C144_29 C133_29 1_555 1_555
H75_29 C142_29 1_555 1_555
H76_29 C143_29 1_555 1_555
H77_29 C144_29 1_555 1_555
H86_29 C142_29 1_555 1_555
H87_29 C143_29 1_555 1_555
H88_29 C144_29 1_555 1_555
H97_29 C142_29 1_555 1_555
H98_29 C143_29 1_555 1_555
H99_29 C144_29 1_555 1_555
C153_29 C120_29 1_555 1_555
C154_29 C121_29 1_555 1_555
C155_29 C122_29 1_555 1_555
H108_29 C153_29 1_555 1_555
H109_29 C154_29 1_555 1_555
H110_29 C155_29 1_555 1_555
H119_29 C153_29 1_555 1_555
H120_29 C154_29 1_555 1_555
H121_29 C155_29 1_555 1_555
C164_29 C153_29 1_555 1_555
C165_29 C154_29 1_555 1_555
C166_29 C155_29 1_555 1_555
H130_29 C164_29 1_555 1_555
H131_29 C165_29 1_555 1_555
H132_29 C166_29 1_555 1_555
H141_29 C164_29 1_555 1_555
H142_29 C165_29 1_555 1_555
H143_29 C166_29 1_555 1_555
H152_29 C164_29 1_555 1_555
H153_29 C165_29 1_555 1_555
H154_29 C166_29 1_555 1_555
O6_16 C16_29 1_555 1_555
C76_29 C87_29 1_555 1_555
C77_29 C88_29 1_555 1_555
C78_29 C89_29 1_555 1_555
C99_29 C109_29 1_555 1_555
C100_29 C110_29 1_555 1_555
C100_29 C111_29 1_555 1_555
C109_29 C120_29 1_555 1_555
C110_29 C121_29 1_555 1_555
C111_29 C122_29 1_555 1_555
O6_21 C22_30 1_555 1_555
O6_6 C23_30 1_555 1_555
C16_30 O26_8 1_555 1_555
C22_30 O21_21 1_555 1_555
C23_30 O21_6 1_555 1_555
C32_30 C16_30 1_555 1_555
C33_30 C22_30 1_555 1_555
C34_30 C23_30 1_555 1_555
C43_30 C32_30 1_555 1_555
C44_30 C33_30 1_555 1_555
C45_30 C34_30 1_555 1_555
H20_30 C43_30 1_555 1_555
H21_30 C44_30 1_555 1_555
H22_30 C45_30 1_555 1_555
C54_30 C43_30 1_555 1_555
C55_30 C44_30 1_555 1_555
C56_30 C45_30 1_555 1_555
C65_30 C54_30 1_555 1_555
C66_30 C56_30 1_555 1_555
C67_30 C55_30 1_555 1_555
C76_30 C65_30 1_555 1_555
C77_30 C66_30 1_555 1_555
C78_30 C67_30 1_555 1_555
H31_30 C76_30 1_555 1_555
H32_30 C77_30 1_555 1_555
H33_30 C78_30 1_555 1_555
C87_30 C32_30 1_555 1_555
C88_30 C34_30 1_555 1_555
C89_30 C33_30 1_555 1_555
H42_30 C87_30 1_555 1_555
H43_30 C88_30 1_555 1_555
H44_30 C89_30 1_555 1_555
C98_30 C65_30 1_555 1_555
C99_30 C66_30 1_555 1_555
C100_30 C67_30 1_555 1_555
C109_30 C98_30 1_555 1_555
C110_30 C98_30 1_555 1_555
C111_30 C99_30 1_555 1_555
C120_30 C54_30 1_555 1_555
C121_30 C55_30 1_555 1_555
C122_30 C56_30 1_555 1_555
C131_30 C120_30 1_555 1_555
C132_30 C121_30 1_555 1_555
C133_30 C122_30 1_555 1_555
H53_30 C131_30 1_555 1_555
H54_30 C132_30 1_555 1_555
H55_30 C133_30 1_555 1_555
H64_30 C131_30 1_555 1_555
H65_30 C132_30 1_555 1_555
H66_30 C133_30 1_555 1_555
C142_30 C131_30 1_555 1_555
C143_30 C132_30 1_555 1_555
C144_30 C133_30 1_555 1_555
H75_30 C142_30 1_555 1_555
H76_30 C143_30 1_555 1_555
H77_30 C144_30 1_555 1_555
H86_30 C142_30 1_555 1_555
H87_30 C143_30 1_555 1_555
H88_30 C144_30 1_555 1_555
H97_30 C142_30 1_555 1_555
H98_30 C143_30 1_555 1_555
H99_30 C144_30 1_555 1_555
C153_30 C120_30 1_555 1_555
C154_30 C121_30 1_555 1_555
C155_30 C122_30 1_555 1_555
H108_30 C153_30 1_555 1_555
H109_30 C154_30 1_555 1_555
H110_30 C155_30 1_555 1_555
H119_30 C153_30 1_555 1_555
H120_30 C154_30 1_555 1_555
H121_30 C155_30 1_555 1_555
C164_30 C153_30 1_555 1_555
C165_30 C154_30 1_555 1_555
C166_30 C155_30 1_555 1_555
H130_30 C164_30 1_555 1_555
H131_30 C165_30 1_555 1_555
H132_30 C166_30 1_555 1_555
H141_30 C164_30 1_555 1_555
H142_30 C165_30 1_555 1_555
H143_30 C166_30 1_555 1_555
H152_30 C164_30 1_555 1_555
H153_30 C165_30 1_555 1_555
H154_30 C166_30 1_555 1_555
O11_8 C16_30 1_555 1_555
C76_30 C87_30 1_555 1_555
C77_30 C88_30 1_555 1_555
C78_30 C89_30 1_555 1_555
C99_30 C109_30 1_555 1_555
C100_30 C110_30 1_555 1_555
C100_30 C111_30 1_555 1_555
C109_30 C120_30 1_555 1_555
C110_30 C121_30 1_555 1_555
C111_30 C122_30 1_555 1_555
O11_17 C22_31 1_555 1_555
O6_5 C23_31 1_555 1_555
C16_31 O26_9 1_555 1_555
C22_31 O26_17 1_555 1_555
C23_31 O21_5 1_555 1_555
C32_31 C16_31 1_555 1_555
C33_31 C22_31 1_555 1_555
C34_31 C23_31 1_555 1_555
C43_31 C32_31 1_555 1_555
C44_31 C33_31 1_555 1_555
C45_31 C34_31 1_555 1_555
H20_31 C43_31 1_555 1_555
H21_31 C44_31 1_555 1_555
H22_31 C45_31 1_555 1_555
C54_31 C43_31 1_555 1_555
C55_31 C44_31 1_555 1_555
C56_31 C45_31 1_555 1_555
C65_31 C54_31 1_555 1_555
C66_31 C56_31 1_555 1_555
C67_31 C55_31 1_555 1_555
C76_31 C65_31 1_555 1_555
C77_31 C66_31 1_555 1_555
C78_31 C67_31 1_555 1_555
H31_31 C76_31 1_555 1_555
H32_31 C77_31 1_555 1_555
H33_31 C78_31 1_555 1_555
C87_31 C32_31 1_555 1_555
C88_31 C34_31 1_555 1_555
C89_31 C33_31 1_555 1_555
H42_31 C87_31 1_555 1_555
H43_31 C88_31 1_555 1_555
H44_31 C89_31 1_555 1_555
C98_31 C65_31 1_555 1_555
C99_31 C66_31 1_555 1_555
C100_31 C67_31 1_555 1_555
C109_31 C98_31 1_555 1_555
C110_31 C98_31 1_555 1_555
C111_31 C99_31 1_555 1_555
C120_31 C54_31 1_555 1_555
C121_31 C55_31 1_555 1_555
C122_31 C56_31 1_555 1_555
C131_31 C120_31 1_555 1_555
C132_31 C121_31 1_555 1_555
C133_31 C122_31 1_555 1_555
H53_31 C131_31 1_555 1_555
H54_31 C132_31 1_555 1_555
H55_31 C133_31 1_555 1_555
H64_31 C131_31 1_555 1_555
H65_31 C132_31 1_555 1_555
H66_31 C133_31 1_555 1_555
C142_31 C131_31 1_555 1_555
C143_31 C132_31 1_555 1_555
C144_31 C133_31 1_555 1_555
H75_31 C142_31 1_555 1_555
H76_31 C143_31 1_555 1_555
H77_31 C144_31 1_555 1_555
H86_31 C142_31 1_555 1_555
H87_31 C143_31 1_555 1_555
H88_31 C144_31 1_555 1_555
H97_31 C142_31 1_555 1_555
H98_31 C143_31 1_555 1_555
H99_31 C144_31 1_555 1_555
C153_31 C120_31 1_555 1_555
C154_31 C121_31 1_555 1_555
C155_31 C122_31 1_555 1_555
H108_31 C153_31 1_555 1_555
H109_31 C154_31 1_555 1_555
H110_31 C155_31 1_555 1_555
H119_31 C153_31 1_555 1_555
H120_31 C154_31 1_555 1_555
H121_31 C155_31 1_555 1_555
C164_31 C153_31 1_555 1_555
C165_31 C154_31 1_555 1_555
C166_31 C155_31 1_555 1_555
H130_31 C164_31 1_555 1_555
H131_31 C165_31 1_555 1_555
H132_31 C166_31 1_555 1_555
H141_31 C164_31 1_555 1_555
H142_31 C165_31 1_555 1_555
H143_31 C166_31 1_555 1_555
H152_31 C164_31 1_555 1_555
H153_31 C165_31 1_555 1_555
H154_31 C166_31 1_555 1_555
O11_9 C16_31 1_555 1_555
C76_31 C87_31 1_555 1_555
C77_31 C88_31 1_555 1_555
C78_31 C89_31 1_555 1_555
C99_31 C109_31 1_555 1_555
C100_31 C110_31 1_555 1_555
C100_31 C111_31 1_555 1_555
C109_31 C120_31 1_555 1_555
C110_31 C121_31 1_555 1_555
C111_31 C122_31 1_555 1_555
O14_10 C22_32 1_555 1_555
O14_20 C23_32 1_555 1_555
C16_32 O29_15 1_555 1_555
C22_32 O29_10 1_555 1_555
C23_32 O29_20 1_555 1_555
C32_32 C16_32 1_555 1_555
C33_32 C22_32 1_555 1_555
C34_32 C23_32 1_555 1_555
C43_32 C32_32 1_555 1_555
C44_32 C33_32 1_555 1_555
C45_32 C34_32 1_555 1_555
H20_32 C43_32 1_555 1_555
H21_32 C44_32 1_555 1_555
H22_32 C45_32 1_555 1_555
C54_32 C43_32 1_555 1_555
C55_32 C44_32 1_555 1_555
C56_32 C45_32 1_555 1_555
C65_32 C54_32 1_555 1_555
C66_32 C56_32 1_555 1_555
C67_32 C55_32 1_555 1_555
C76_32 C65_32 1_555 1_555
C77_32 C66_32 1_555 1_555
C78_32 C67_32 1_555 1_555
H31_32 C76_32 1_555 1_555
H32_32 C77_32 1_555 1_555
H33_32 C78_32 1_555 1_555
C87_32 C32_32 1_555 1_555
C88_32 C34_32 1_555 1_555
C89_32 C33_32 1_555 1_555
H42_32 C87_32 1_555 1_555
H43_32 C88_32 1_555 1_555
H44_32 C89_32 1_555 1_555
C98_32 C65_32 1_555 1_555
C99_32 C66_32 1_555 1_555
C100_32 C67_32 1_555 1_555
C109_32 C98_32 1_555 1_555
C110_32 C98_32 1_555 1_555
C111_32 C99_32 1_555 1_555
C120_32 C54_32 1_555 1_555
C121_32 C55_32 1_555 1_555
C122_32 C56_32 1_555 1_555
C131_32 C120_32 1_555 1_555
C132_32 C121_32 1_555 1_555
C133_32 C122_32 1_555 1_555
H53_32 C131_32 1_555 1_555
H54_32 C132_32 1_555 1_555
H55_32 C133_32 1_555 1_555
H64_32 C131_32 1_555 1_555
H65_32 C132_32 1_555 1_555
H66_32 C133_32 1_555 1_555
C142_32 C131_32 1_555 1_555
C143_32 C132_32 1_555 1_555
C144_32 C133_32 1_555 1_555
H75_32 C142_32 1_555 1_555
H76_32 C143_32 1_555 1_555
H77_32 C144_32 1_555 1_555
H86_32 C142_32 1_555 1_555
H87_32 C143_32 1_555 1_555
H88_32 C144_32 1_555 1_555
H97_32 C142_32 1_555 1_555
H98_32 C143_32 1_555 1_555
H99_32 C144_32 1_555 1_555
C153_32 C120_32 1_555 1_555
C154_32 C121_32 1_555 1_555
C155_32 C122_32 1_555 1_555
H108_32 C153_32 1_555 1_555
H109_32 C154_32 1_555 1_555
H110_32 C155_32 1_555 1_555
H119_32 C153_32 1_555 1_555
H120_32 C154_32 1_555 1_555
H121_32 C155_32 1_555 1_555
C164_32 C153_32 1_555 1_555
C165_32 C154_32 1_555 1_555
C166_32 C155_32 1_555 1_555
H130_32 C164_32 1_555 1_555
H131_32 C165_32 1_555 1_555
H132_32 C166_32 1_555 1_555
H141_32 C164_32 1_555 1_555
H142_32 C165_32 1_555 1_555
H143_32 C166_32 1_555 1_555
H152_32 C164_32 1_555 1_555
H153_32 C165_32 1_555 1_555
H154_32 C166_32 1_555 1_555
O14_15 C16_32 1_555 1_555
C76_32 C87_32 1_555 1_555
C77_32 C88_32 1_555 1_555
C78_32 C89_32 1_555 1_555
C99_32 C109_32 1_555 1_555
C100_32 C110_32 1_555 1_555
C100_32 C111_32 1_555 1_555
C109_32 C120_32 1_555 1_555
C110_32 C121_32 1_555 1_555
C111_32 C122_32 1_555 1_555

#END
