
###############################################################################
#
# This file contains modified crystal structure data generated from the
# MOF subset of the Cambridge Structural Database (CSD) v543 
# hosted by the Cambridge Crystallographic Data Centre (CCDC).
#
# This work is licensed under the Creative Commons
# Attribution-NonCommercial-ShareAlike 4.0 International License.
# To view a copy of this license, visit
# http://creativecommons.org/licenses/by-nc-sa/4.0/
# or send a letter to
# Creative Commons, PO Box 1866, Mountain View, CA 94042, USA.
#
# CIF created using the CSD Python API on 29 September 2022
# The structure has been converted into the P1 space group
# The structure has a 3D framework
# The original CSD entry BOXFOK is in the cubic crystal system
# The framework has been calculated to contain at least 10.0% void space
# The void calculation uses a probe of radius 1.32A, grid spacing 0.4
# The framework is charged, counterions have been retained in the structure
# H atom positions have been added when not included in the experimental data
#
###############################################################################

data_BOXFOK
_chemical_formula_moiety         '(C2832 H2832 Dy144 O564 415+)n'
_symmetry_cell_setting           triclinic
_symmetry_space_group_name_H-M   'P 1'
_symmetry_Int_Tables_number      1
_space_group_name_Hall           'P 1'
loop_
_symmetry_equiv_pos_site_id
_symmetry_equiv_pos_as_xyz
1 x,y,z
_cell_length_a                   49.267(6)
_cell_length_b                   49.267(6)
_cell_length_c                   49.267(6)
_cell_angle_alpha                90
_cell_angle_beta                 90
_cell_angle_gamma                90
_cell_volume                     119583
loop_
_atom_site_label
_atom_site_type_symbol
_atom_site_fract_x
_atom_site_fract_y
_atom_site_fract_z
Dy1 Dy -0.0000 0.26791(3) 0.20933(3)
O1 O 0.02988(13) 0.22943(12) 0.20625(15)
O2 O 0.03384(9) 0.25795(10) 0.17263(9)
O3 O -0.0000 0.2500 0.2500
C1 C 0.04071(12) 0.23657(14) 0.18309(14)
C2 C 0.06307(12) 0.21969(12) 0.17216(13)
C3 C 0.07203(12) 0.19695(12) 0.18653(13)
H1 H 0.0635 0.1918 0.2030
C4 C 0.09385(11) 0.18185(12) 0.17614(13)
C5 C 0.10706(12) 0.18939(12) 0.15197(13)
C6 C 0.09749(13) 0.21214(13) 0.13803(13)
H2 H 0.1059 0.2176 0.1216
C7 C 0.07576(13) 0.22670(12) 0.14815(13)
H3 H 0.0694 0.2420 0.1383
C8 C 0.10558(12) 0.15664(14) 0.18874(13)
C9 C 0.12838(12) 0.15022(12) 0.16898(12)
C10 C 0.12949(12) 0.16967(12) 0.14761(12)
C11 C 0.08286(15) 0.13500(15) 0.18976(18)
H4 H 0.0901 0.1183 0.1983
H5 H 0.0679 0.1418 0.2013
C12 C 0.07131(19) 0.12767(19) 0.1616(2)
H6 H 0.0648 0.1442 0.1526
H7 H 0.0562 0.1149 0.1637
H8 H 0.0856 0.1193 0.1505
C13 C 0.11651(15) 0.16399(15) 0.21744(14)
H9 H 0.1012 0.1707 0.2286
H10 H 0.1235 0.1472 0.2261
C14 C 0.13871(18) 0.1851(2) 0.21783(17)
H11 H 0.1552 0.1775 0.2097
H12 H 0.1425 0.1904 0.2366
H13 H 0.1329 0.2010 0.2075
O4 O -0.0000 0.3050(3) 0.1760(3)
C15 C 0.0000 0.3293(9) 0.1906(9)
Dy2 Dy 0.0000 0.20933(3) 0.23209(3)
Dy3 Dy -0.0000 0.29067(3) 0.26791(3)
Dy4 Dy -0.0000 0.23209(3) 0.29067(3)
Dy5 Dy 0.20933(3) 0.0000 0.26791(3)
Dy6 Dy 0.23209(3) 0.0000 0.20933(3)
Dy7 Dy 0.26791(3) 0.20933(3) 0.0000
Dy8 Dy 0.20933(3) 0.23209(3) 0.0000
Dy16 Dy 0.26791(3) -0.0000 0.29067(3)
Dy17 Dy 0.20933(3) 0.26791(3) 0.5000
Dy18 Dy 0.23209(3) 0.20933(3) 0.5000
O5 O 0.02988(13) 0.29375(15) 0.22943(12)
O8 O 0.02988(13) 0.20625(15) 0.27057(12)
O11 O 0.02988(13) 0.27057(12) 0.29375(15)
O12 O 0.20625(15) 0.02988(13) 0.22943(12)
O13 O 0.22943(12) 0.20625(15) 0.02988(13)
O18 O 0.22943(12) 0.02988(13) 0.29375(15)
O19 O 0.20625(15) 0.22943(12) 0.47012(13)
O21 O 0.03384(9) 0.17263(9) 0.24205(10)
O23 O 0.03384(9) 0.32737(9) 0.25795(10)
O26 O 0.03384(9) 0.24205(10) 0.32737(9)
O27 O 0.17263(9) 0.03384(9) 0.25795(10)
O28 O 0.25795(10) 0.17263(9) 0.03384(9)
O33 O 0.25795(10) 0.03384(9) 0.32737(9)
O34 O 0.17263(9) 0.25795(10) 0.46616(9)
C18 C 0.04071(12) 0.18309(14) 0.26343(14)
C19 C 0.18309(14) 0.04071(12) 0.23657(14)
C20 C 0.23657(14) 0.18309(14) 0.04071(12)
C25 C 0.23657(14) 0.04071(12) 0.31691(14)
C26 C 0.18309(14) 0.23657(14) 0.45929(12)
C29 C 0.06307(12) 0.17216(13) 0.28031(12)
C30 C 0.17216(13) 0.06307(12) 0.21969(12)
C31 C 0.21969(12) 0.17216(13) 0.06307(12)
C36 C 0.21969(12) 0.06307(12) 0.32784(13)
C37 C 0.17216(13) 0.21969(12) 0.43693(12)
C40 C 0.07203(12) 0.18653(13) 0.30305(12)
C41 C 0.18653(13) 0.07203(12) 0.19695(12)
C42 C 0.19695(12) 0.18653(13) 0.07203(12)
C47 C 0.19695(12) 0.07203(12) 0.31347(13)
C48 C 0.18653(13) 0.19695(12) 0.42797(12)
H16 H 0.0635 0.2030 0.3082
H17 H 0.2030 0.0635 0.1918
H18 H 0.1918 0.2030 0.0635
H23 H 0.1918 0.0635 0.2970
H24 H 0.2030 0.1918 0.4365
C49 C 0.17614(13) 0.09385(11) 0.18185(12)
C50 C 0.18185(12) 0.17614(13) 0.09385(11)
C53 C 0.09385(11) 0.17614(13) 0.31815(12)
C58 C 0.18185(12) 0.09385(11) 0.32386(13)
C59 C 0.17614(13) 0.18185(12) 0.40615(11)
C60 C 0.15197(13) 0.10706(12) 0.18939(12)
C61 C 0.18939(12) 0.15197(13) 0.10706(12)
C64 C 0.10706(12) 0.15197(13) 0.31061(12)
C67 C 0.15197(13) 0.18939(12) 0.39294(12)
C70 C 0.18939(12) 0.10706(12) 0.34803(13)
C71 C 0.13803(13) 0.09749(13) 0.21214(13)
C72 C 0.21214(13) 0.13803(13) 0.09749(13)
C75 C 0.09749(13) 0.13803(13) 0.28786(13)
C78 C 0.13803(13) 0.21214(13) 0.40251(13)
C81 C 0.21214(13) 0.09749(13) 0.36197(13)
H25 H 0.1216 0.1059 0.2176
H26 H 0.2176 0.1216 0.1059
H29 H 0.1059 0.1216 0.2824
H32 H 0.1216 0.2176 0.3941
H35 H 0.2176 0.1059 0.3784
C84 C 0.07576(13) 0.14815(13) 0.27330(12)
C85 C 0.14815(13) 0.07576(13) 0.22670(12)
C86 C 0.22670(12) 0.14815(13) 0.07576(13)
C89 C 0.14815(13) 0.22670(12) 0.42424(13)
C92 C 0.22670(12) 0.07576(13) 0.35185(13)
H38 H 0.0694 0.1383 0.2580
H39 H 0.1383 0.0694 0.2420
H40 H 0.2420 0.1383 0.0694
H43 H 0.1383 0.2420 0.4306
H46 H 0.2420 0.0694 0.3617
C93 C 0.15664(14) 0.18874(13) 0.10558(12)
C94 C 0.18874(13) 0.10558(12) 0.15664(14)
C97 C 0.10558(12) 0.18874(13) 0.34336(14)
C100 C 0.15664(14) 0.10558(12) 0.31126(13)
C103 C 0.18874(13) 0.15664(14) 0.39442(12)
C104 C 0.15022(12) 0.16898(12) 0.12838(12)
C105 C 0.16898(12) 0.12838(12) 0.15022(12)
C108 C 0.12838(12) 0.16898(12) 0.34978(12)
C111 C 0.15022(12) 0.12838(12) 0.33102(12)
C114 C 0.16898(12) 0.15022(12) 0.37162(12)
C115 C 0.14761(12) 0.12949(12) 0.16967(12)
C116 C 0.16967(12) 0.14761(12) 0.12949(12)
C119 C 0.12949(12) 0.14761(12) 0.33033(12)
C122 C 0.14761(12) 0.16967(12) 0.37051(12)
C125 C 0.16967(12) 0.12949(12) 0.35239(12)
C126 C 0.13500(15) 0.18976(18) 0.08286(15)
C127 C 0.18976(18) 0.08286(15) 0.13500(15)
C130 C 0.08286(15) 0.18976(18) 0.36500(15)
C133 C 0.13500(15) 0.08286(15) 0.31024(18)
C136 C 0.18976(18) 0.13500(15) 0.41714(15)
H47 H 0.1183 0.1983 0.0901
H48 H 0.1983 0.0901 0.1183
H51 H 0.0901 0.1983 0.3817
H54 H 0.1183 0.0901 0.3017
H57 H 0.1983 0.1183 0.4099
H58 H 0.1418 0.2013 0.0679
H59 H 0.2013 0.0679 0.1418
H62 H 0.0679 0.2013 0.3582
H65 H 0.1418 0.0679 0.2987
H68 H 0.2013 0.1418 0.4321
C137 C 0.12767(19) 0.1616(2) 0.07131(19)
C138 C 0.1616(2) 0.07131(19) 0.12767(19)
C141 C 0.07131(19) 0.1616(2) 0.37233(19)
C144 C 0.12767(19) 0.07131(19) 0.3384(2)
C147 C 0.1616(2) 0.12767(19) 0.42869(19)
H69 H 0.1442 0.1526 0.0648
H70 H 0.1526 0.0648 0.1442
H73 H 0.0648 0.1526 0.3558
H76 H 0.1442 0.0648 0.3474
H79 H 0.1526 0.1442 0.4352
H80 H 0.1149 0.1637 0.0562
H81 H 0.1637 0.0562 0.1149
H84 H 0.0562 0.1637 0.3851
H87 H 0.1149 0.0562 0.3363
H90 H 0.1637 0.1149 0.4438
H91 H 0.1193 0.1505 0.0856
H92 H 0.1505 0.0856 0.1193
H95 H 0.0856 0.1505 0.3807
H98 H 0.1193 0.0856 0.3495
H101 H 0.1505 0.1193 0.4144
C148 C 0.16399(15) 0.21744(14) 0.11651(15)
C149 C 0.21744(14) 0.11651(15) 0.16399(15)
C152 C 0.11651(15) 0.21744(14) 0.33601(15)
C155 C 0.16399(15) 0.11651(15) 0.28256(14)
C158 C 0.21744(14) 0.16399(15) 0.38349(15)
H102 H 0.1707 0.2286 0.1012
H103 H 0.2286 0.1012 0.1707
H106 H 0.1012 0.2286 0.3293
H109 H 0.1707 0.1012 0.2714
H112 H 0.2286 0.1707 0.3988
H113 H 0.1472 0.2261 0.1235
H114 H 0.2261 0.1235 0.1472
H117 H 0.1235 0.2261 0.3528
H120 H 0.1472 0.1235 0.2739
H123 H 0.2261 0.1472 0.3765
C159 C 0.1851(2) 0.21783(17) 0.13871(18)
C160 C 0.21783(17) 0.13871(18) 0.1851(2)
C163 C 0.13871(18) 0.21783(17) 0.3149(2)
C166 C 0.1851(2) 0.13871(18) 0.28217(17)
C169 C 0.21783(17) 0.1851(2) 0.36129(18)
H124 H 0.1775 0.2097 0.1552
H125 H 0.2097 0.1552 0.1775
H128 H 0.1552 0.2097 0.3225
H131 H 0.1775 0.1552 0.2903
H134 H 0.2097 0.1775 0.3448
H135 H 0.1904 0.2366 0.1425
H136 H 0.2366 0.1425 0.1904
H139 H 0.1425 0.2366 0.3096
H142 H 0.1904 0.1425 0.2634
H145 H 0.2366 0.1904 0.3575
H146 H 0.2010 0.2075 0.1329
H147 H 0.2075 0.1329 0.2010
H150 H 0.1329 0.2075 0.2990
H153 H 0.2010 0.1329 0.2925
H156 H 0.2075 0.2010 0.3671
O35 O -0.0000 0.1760(3) 0.1950(3)
O36 O -0.0000 0.3240(3) 0.3050(3)
O37 O -0.0000 0.1950(3) 0.3240(3)
C170 C -0.0000 0.1906(9) 0.1707(9)
C171 C -0.0000 0.1707(9) 0.3094(9)
C172 C 0.0000 0.3094(9) 0.3293(9)
H157 H 0.0180479 0.203326 0.169751
H158 H 2.55215e-18 0.176531 0.153651
H160 H 0.0180479 0.169751 0.296674
H161 H 2.55215e-18 0.153651 0.323469
H163 H 0.0180479 0.296674 0.330249
H164 H 2.55215e-18 0.323469 0.346349
H166 H 0.0180479 0.330249 0.203326
H167 H 2.55215e-18 0.346349 0.176531
Dy7_2 Dy 0.26791(3) 0.20933(3) 1.0000
Dy8_2 Dy 0.20933(3) 0.23209(3) 1.0000
Dy5_2 Dy 0.20933(3) 1.0000 0.26791(3)
Dy6_2 Dy 0.23209(3) 1.0000 0.20933(3)
Dy16_2 Dy 0.26791(3) 1.0000 0.29067(3)
Dy1_2 Dy 1.0000 0.26791(3) 0.20933(3)
O3_2 O 1.0000 0.2500 0.2500
O4_2 O 1.0000 0.3050(3) 0.1760(3)
C15_2 C 1.0000 0.3293(9) 0.1906(9)
Dy2_2 Dy 1.0000 0.20933(3) 0.23209(3)
Dy3_2 Dy 1.0000 0.29067(3) 0.26791(3)
Dy4_2 Dy 1.0000 0.23209(3) 0.29067(3)
Dy9 Dy 0.73209(3) 0.5000 0.20933(3)
Dy10 Dy 0.79067(3) 0.5000 0.23209(3)
Dy11 Dy 0.79067(3) 0.23209(3) 0.0000
Dy12 Dy 0.76791(3) 0.29067(3) 0.0000
Dy13 Dy 0.73209(3) 0.29067(3) 0.5000
Dy14 Dy 0.79067(3) 0.26791(3) 0.5000
Dy15 Dy 0.76791(3) 0.5000 0.29067(3)
O6 O 0.97012(13) 0.22943(12) 0.20625(15)
O7 O 0.97012(13) 0.29375(15) 0.22943(12)
O9 O 0.97012(13) 0.20625(15) 0.27057(12)
O10 O 0.97012(13) 0.27057(12) 0.29375(15)
O14 O 0.77057(12) 0.47012(13) 0.20625(15)
O15 O 0.79375(15) 0.27057(12) 0.02988(13)
O16 O 0.77057(12) 0.29375(15) 0.47012(13)
O17 O 0.79375(15) 0.47012(13) 0.27057(12)
O20 O 0.96616(9) 0.25795(10) 0.17263(9)
O22 O 0.96616(9) 0.17263(9) 0.24205(10)
O24 O 0.96616(9) 0.32737(9) 0.25795(10)
O25 O 0.96616(9) 0.24205(10) 0.32737(9)
O29 O 0.74205(10) 0.46616(9) 0.17263(9)
O30 O 0.82737(9) 0.24205(10) 0.03384(9)
O31 O 0.74205(10) 0.32737(9) 0.46616(9)
O32 O 0.82737(9) 0.46616(9) 0.24205(10)
C16 C 0.95929(12) 0.31691(14) 0.23657(14)
C17 C 0.95929(12) 0.26343(14) 0.31691(14)
C21 C 0.76343(14) 0.45929(12) 0.18309(14)
C22 C 0.81691(14) 0.26343(14) 0.04071(12)
C23 C 0.76343(14) 0.31691(14) 0.45929(12)
C24 C 0.81691(14) 0.45929(12) 0.26343(14)
C27 C 0.93693(12) 0.32784(13) 0.21969(12)
C28 C 0.93693(12) 0.28031(12) 0.32784(13)
C32 C 0.78031(12) 0.43693(12) 0.17216(13)
C33 C 0.82784(13) 0.28031(12) 0.06307(12)
C34 C 0.78031(12) 0.32784(13) 0.43693(12)
C35 C 0.82784(13) 0.43693(12) 0.28031(12)
C38 C 0.92797(12) 0.31347(13) 0.19695(12)
C39 C 0.92797(12) 0.30305(12) 0.31347(13)
C43 C 0.80305(12) 0.42797(12) 0.18653(13)
C44 C 0.81347(13) 0.30305(12) 0.07203(12)
C45 C 0.80305(12) 0.31347(13) 0.42797(12)
C46 C 0.81347(13) 0.42797(12) 0.30305(12)
H14 H 0.9365 0.2970 0.1918
H15 H 0.9365 0.3082 0.2970
H19 H 0.8082 0.4365 0.2030
H20 H 0.7970 0.3082 0.0635
H21 H 0.8082 0.2970 0.4365
H22 H 0.7970 0.4365 0.3082
C51 C 0.90615(11) 0.32386(13) 0.18185(12)
C52 C 0.90615(11) 0.31815(12) 0.32386(13)
C54 C 0.81815(12) 0.40615(11) 0.17614(13)
C55 C 0.82386(13) 0.31815(12) 0.09385(11)
C56 C 0.81815(12) 0.32386(13) 0.40615(11)
C57 C 0.82386(13) 0.40615(11) 0.31815(12)
C62 C 0.89294(12) 0.34803(13) 0.18939(12)
C63 C 0.89294(12) 0.31061(12) 0.34803(13)
C65 C 0.84803(13) 0.31061(12) 0.10706(12)
C66 C 0.84803(13) 0.39294(12) 0.31061(12)
C68 C 0.81061(12) 0.39294(12) 0.15197(13)
C69 C 0.81061(12) 0.34803(13) 0.39294(12)
C73 C 0.90251(13) 0.36197(13) 0.21214(13)
C74 C 0.90251(13) 0.28786(13) 0.36197(13)
C76 C 0.86197(13) 0.28786(13) 0.09749(13)
C77 C 0.86197(13) 0.40251(13) 0.28786(13)
C79 C 0.78786(13) 0.40251(13) 0.13803(13)
C80 C 0.78786(13) 0.36197(13) 0.40251(13)
H27 H 0.8941 0.3784 0.2176
H28 H 0.8941 0.2824 0.3784
H30 H 0.8784 0.2824 0.1059
H31 H 0.8784 0.3941 0.2824
H33 H 0.7824 0.3941 0.1216
H34 H 0.7824 0.3784 0.3941
C82 C 0.92424(13) 0.35185(13) 0.22670(12)
C83 C 0.92424(13) 0.27330(12) 0.35185(13)
C87 C 0.85185(13) 0.27330(12) 0.07576(13)
C88 C 0.85185(13) 0.42424(13) 0.27330(12)
C90 C 0.77330(12) 0.42424(13) 0.14815(13)
C91 C 0.77330(12) 0.35185(13) 0.42424(13)
H36 H 0.9306 0.3617 0.2420
H37 H 0.9306 0.2580 0.3617
H41 H 0.8617 0.2580 0.0694
H42 H 0.8617 0.4306 0.2580
H44 H 0.7580 0.4306 0.1383
H45 H 0.7580 0.3617 0.4306
C95 C 0.89442(12) 0.31126(13) 0.15664(14)
C96 C 0.89442(12) 0.34336(14) 0.31126(13)
C98 C 0.84336(14) 0.39442(12) 0.18874(13)
C99 C 0.84336(14) 0.31126(13) 0.39442(12)
C101 C 0.81126(13) 0.34336(14) 0.10558(12)
C102 C 0.81126(13) 0.39442(12) 0.34336(14)
C106 C 0.87162(12) 0.33102(12) 0.15022(12)
C107 C 0.87162(12) 0.34978(12) 0.33102(12)
C109 C 0.84978(12) 0.37162(12) 0.16898(12)
C110 C 0.84978(12) 0.33102(12) 0.37162(12)
C112 C 0.83102(12) 0.34978(12) 0.12838(12)
C113 C 0.83102(12) 0.37162(12) 0.34978(12)
C117 C 0.87051(12) 0.35239(12) 0.16967(12)
C118 C 0.87051(12) 0.33033(12) 0.35239(12)
C120 C 0.85239(12) 0.33033(12) 0.12949(12)
C121 C 0.85239(12) 0.37051(12) 0.33033(12)
C123 C 0.83033(12) 0.37051(12) 0.14761(12)
C124 C 0.83033(12) 0.35239(12) 0.37051(12)
C128 C 0.91714(15) 0.31024(18) 0.13500(15)
C129 C 0.91714(15) 0.36500(15) 0.31024(18)
C131 C 0.86500(15) 0.41714(15) 0.18976(18)
C132 C 0.86500(15) 0.31024(18) 0.41714(15)
C134 C 0.81024(18) 0.36500(15) 0.08286(15)
C135 C 0.81024(18) 0.41714(15) 0.36500(15)
H49 H 0.9099 0.3017 0.1183
H50 H 0.9099 0.3817 0.3017
H52 H 0.8817 0.4099 0.1983
H53 H 0.8817 0.3017 0.4099
H55 H 0.8017 0.3817 0.0901
H56 H 0.8017 0.4099 0.3817
H60 H 0.9321 0.2987 0.1418
H61 H 0.9321 0.3582 0.2987
H63 H 0.8582 0.4321 0.2013
H64 H 0.8582 0.2987 0.4321
H66 H 0.7987 0.3582 0.0679
H67 H 0.7987 0.4321 0.3582
C139 C 0.92869(19) 0.3384(2) 0.12767(19)
C140 C 0.92869(19) 0.37233(19) 0.3384(2)
C142 C 0.87233(19) 0.42869(19) 0.1616(2)
C143 C 0.87233(19) 0.3384(2) 0.42869(19)
C145 C 0.8384(2) 0.37233(19) 0.07131(19)
C146 C 0.8384(2) 0.42869(19) 0.37233(19)
H71 H 0.9352 0.3474 0.1442
H72 H 0.9352 0.3558 0.3474
H74 H 0.8558 0.4352 0.1526
H75 H 0.8558 0.3474 0.4352
H77 H 0.8474 0.3558 0.0648
H78 H 0.8474 0.4352 0.3558
H82 H 0.9438 0.3363 0.1149
H83 H 0.9438 0.3851 0.3363
H85 H 0.8851 0.4438 0.1637
H86 H 0.8851 0.3363 0.4438
H88 H 0.8363 0.3851 0.0562
H89 H 0.8363 0.4438 0.3851
H93 H 0.9144 0.3495 0.1193
H94 H 0.9144 0.3807 0.3495
H96 H 0.8807 0.4144 0.1505
H97 H 0.8807 0.3495 0.4144
H99 H 0.8495 0.3807 0.0856
H100 H 0.8495 0.4144 0.3807
C150 C 0.88349(15) 0.28256(14) 0.16399(15)
C151 C 0.88349(15) 0.33601(15) 0.28256(14)
C153 C 0.83601(15) 0.38349(15) 0.21744(14)
C154 C 0.83601(15) 0.28256(14) 0.38349(15)
C156 C 0.78256(14) 0.33601(15) 0.11651(15)
C157 C 0.78256(14) 0.38349(15) 0.33601(15)
H104 H 0.8988 0.2714 0.1707
H105 H 0.8988 0.3293 0.2714
H107 H 0.8293 0.3988 0.2286
H108 H 0.8293 0.2714 0.3988
H110 H 0.7714 0.3293 0.1012
H111 H 0.7714 0.3988 0.3293
H115 H 0.8765 0.2739 0.1472
H116 H 0.8765 0.3528 0.2739
H118 H 0.8528 0.3765 0.2261
H119 H 0.8528 0.2739 0.3765
H121 H 0.7739 0.3528 0.1235
H122 H 0.7739 0.3765 0.3528
C161 C 0.86129(18) 0.28217(17) 0.1851(2)
C162 C 0.86129(18) 0.3149(2) 0.28217(17)
C164 C 0.8149(2) 0.36129(18) 0.21783(17)
C165 C 0.8149(2) 0.28217(17) 0.36129(18)
C167 C 0.78217(17) 0.3149(2) 0.13871(18)
C168 C 0.78217(17) 0.36129(18) 0.3149(2)
H126 H 0.8448 0.2903 0.1775
H127 H 0.8448 0.3225 0.2903
H129 H 0.8225 0.3448 0.2097
H130 H 0.8225 0.2903 0.3448
H132 H 0.7903 0.3225 0.1552
H133 H 0.7903 0.3448 0.3225
H137 H 0.8575 0.2634 0.1904
H138 H 0.8575 0.3096 0.2634
H140 H 0.8096 0.3575 0.2366
H141 H 0.8096 0.2634 0.3575
H143 H 0.7634 0.3096 0.1425
H144 H 0.7634 0.3575 0.3096
H148 H 0.8671 0.2925 0.2010
H149 H 0.8671 0.2990 0.2925
H151 H 0.7990 0.3671 0.2075
H152 H 0.7990 0.2925 0.3671
H154 H 0.7925 0.2990 0.1329
H155 H 0.7925 0.3671 0.2990
O35_2 O 1.0000 0.1760(3) 0.1950(3)
O36_2 O 1.0000 0.3240(3) 0.3050(3)
O37_2 O 1.0000 0.1950(3) 0.3240(3)
C170_2 C 1.0000 0.1906(9) 0.1707(9)
C171_2 C 1.0000 0.1707(9) 0.3094(9)
C172_2 C 1.0000 0.3094(9) 0.3293(9)
H158_2 H 1 0.176531 0.153651
H159 H 0.981952 0.203326 0.169751
H161_2 H 1 0.153651 0.323469
H162 H 0.981952 0.169751 0.296674
H164_2 H 1 0.323469 0.346349
H165 H 0.981952 0.296674 0.330249
H167_2 H 1 0.346349 0.176531
H168 H 0.981952 0.330249 0.203326
Dy11_2 Dy 0.79067(3) 0.23209(3) 1.0000
Dy12_2 Dy 0.76791(3) 0.29067(3) 1.0000
O3_3 O 0.2500 -0.0000 0.2500
O4_3 O 0.1760(3) -0.0000 0.3050(3)
C15_3 C 0.1906(9) 0.0000 0.3293(9)
Dy4_3 Dy 0.29067(3) -0.0000 0.23209(3)
Dy16_3 Dy 0.29067(3) 0.26791(3) -0.0000
Dy17_2 Dy 0.5000 0.20933(3) 0.26791(3)
Dy18_2 Dy 0.5000 0.23209(3) 0.20933(3)
O8_2 O 0.27057(12) 0.02988(13) 0.20625(15)
O11_2 O 0.29375(15) 0.02988(13) 0.27057(12)
O18_2 O 0.29375(15) 0.22943(12) 0.02988(13)
O19_2 O 0.47012(13) 0.20625(15) 0.22943(12)
O21_2 O 0.24205(10) 0.03384(9) 0.17263(9)
O26_2 O 0.32737(9) 0.03384(9) 0.24205(10)
O33_2 O 0.32737(9) 0.25795(10) 0.03384(9)
O34_2 O 0.46616(9) 0.17263(9) 0.25795(10)
C18_2 C 0.26343(14) 0.04071(12) 0.18309(14)
C25_2 C 0.31691(14) 0.23657(14) 0.04071(12)
C26_2 C 0.45929(12) 0.18309(14) 0.23657(14)
C29_2 C 0.28031(12) 0.06307(12) 0.17216(13)
C36_2 C 0.32784(13) 0.21969(12) 0.06307(12)
C37_2 C 0.43693(12) 0.17216(13) 0.21969(12)
C40_2 C 0.30305(12) 0.07203(12) 0.18653(13)
C47_2 C 0.31347(13) 0.19695(12) 0.07203(12)
C48_2 C 0.42797(12) 0.18653(13) 0.19695(12)
H16_2 H 0.3082 0.0635 0.2030
H23_2 H 0.2970 0.1918 0.0635
H24_2 H 0.4365 0.2030 0.1918
C53_2 C 0.31815(12) 0.09385(11) 0.17614(13)
C58_2 C 0.32386(13) 0.18185(12) 0.09385(11)
C59_2 C 0.40615(11) 0.17614(13) 0.18185(12)
C64_2 C 0.31061(12) 0.10706(12) 0.15197(13)
C67_2 C 0.39294(12) 0.15197(13) 0.18939(12)
C70_2 C 0.34803(13) 0.18939(12) 0.10706(12)
C75_2 C 0.28786(13) 0.09749(13) 0.13803(13)
C78_2 C 0.40251(13) 0.13803(13) 0.21214(13)
C81_2 C 0.36197(13) 0.21214(13) 0.09749(13)
H29_2 H 0.2824 0.1059 0.1216
H32_2 H 0.3941 0.1216 0.2176
H35_2 H 0.3784 0.2176 0.1059
C84_2 C 0.27330(12) 0.07576(13) 0.14815(13)
C89_2 C 0.42424(13) 0.14815(13) 0.22670(12)
C92_2 C 0.35185(13) 0.22670(12) 0.07576(13)
H38_2 H 0.2580 0.0694 0.1383
H43_2 H 0.4306 0.1383 0.2420
H46_2 H 0.3617 0.2420 0.0694
C97_2 C 0.34336(14) 0.10558(12) 0.18874(13)
C100_2 C 0.31126(13) 0.15664(14) 0.10558(12)
C103_2 C 0.39442(12) 0.18874(13) 0.15664(14)
C108_2 C 0.34978(12) 0.12838(12) 0.16898(12)
C111_2 C 0.33102(12) 0.15022(12) 0.12838(12)
C114_2 C 0.37162(12) 0.16898(12) 0.15022(12)
C119_2 C 0.33033(12) 0.12949(12) 0.14761(12)
C122_2 C 0.37051(12) 0.14761(12) 0.16967(12)
C125_2 C 0.35239(12) 0.16967(12) 0.12949(12)
C130_2 C 0.36500(15) 0.08286(15) 0.18976(18)
C133_2 C 0.31024(18) 0.13500(15) 0.08286(15)
C136_2 C 0.41714(15) 0.18976(18) 0.13500(15)
H51_2 H 0.3817 0.0901 0.1983
H54_2 H 0.3017 0.1183 0.0901
H57_2 H 0.4099 0.1983 0.1183
H62_2 H 0.3582 0.0679 0.2013
H65_2 H 0.2987 0.1418 0.0679
H68_2 H 0.4321 0.2013 0.1418
C141_2 C 0.37233(19) 0.07131(19) 0.1616(2)
C144_2 C 0.3384(2) 0.12767(19) 0.07131(19)
C147_2 C 0.42869(19) 0.1616(2) 0.12767(19)
H73_2 H 0.3558 0.0648 0.1526
H76_2 H 0.3474 0.1442 0.0648
H79_2 H 0.4352 0.1526 0.1442
H84_2 H 0.3851 0.0562 0.1637
H87_2 H 0.3363 0.1149 0.0562
H90_2 H 0.4438 0.1637 0.1149
H95_2 H 0.3807 0.0856 0.1505
H98_2 H 0.3495 0.1193 0.0856
H101_2 H 0.4144 0.1505 0.1193
C152_2 C 0.33601(15) 0.11651(15) 0.21744(14)
C155_2 C 0.28256(14) 0.16399(15) 0.11651(15)
C158_2 C 0.38349(15) 0.21744(14) 0.16399(15)
H106_2 H 0.3293 0.1012 0.2286
H109_2 H 0.2714 0.1707 0.1012
H112_2 H 0.3988 0.2286 0.1707
H117_2 H 0.3528 0.1235 0.2261
H120_2 H 0.2739 0.1472 0.1235
H123_2 H 0.3765 0.2261 0.1472
C163_2 C 0.3149(2) 0.13871(18) 0.21783(17)
C166_2 C 0.28217(17) 0.1851(2) 0.13871(18)
C169_2 C 0.36129(18) 0.21783(17) 0.1851(2)
H128_2 H 0.3225 0.1552 0.2097
H131_2 H 0.2903 0.1775 0.1552
H134_2 H 0.3448 0.2097 0.1775
H139_2 H 0.3096 0.1425 0.2366
H142_2 H 0.2634 0.1904 0.1425
H145_2 H 0.3575 0.2366 0.1904
H150_2 H 0.2990 0.1329 0.2075
H153_2 H 0.2925 0.2010 0.1329
H156_2 H 0.3671 0.2075 0.2010
O35_3 O 0.1950(3) -0.0000 0.1760(3)
O36_3 O 0.3050(3) -0.0000 0.3240(3)
O37_3 O 0.3240(3) -0.0000 0.1950(3)
C170_3 C 0.1707(9) -0.0000 0.1906(9)
C171_3 C 0.3094(9) -0.0000 0.1707(9)
C172_3 C 0.3293(9) -0.0000 0.3094(9)
H157_2 H 0.169751 0.0180479 0.203326
H158_3 H 0.153651 2.55215e-18 0.176531
H160_2 H 0.296674 0.0180479 0.169751
H161_3 H 0.323469 2.55215e-18 0.153651
H163_2 H 0.330249 0.0180479 0.296674
H164_3 H 0.346349 2.55215e-18 0.323469
H166_2 H 0.203326 0.0180479 0.330249
H167_3 H 0.176531 2.55215e-18 0.346349
Dy16_4 Dy 0.29067(3) 0.26791(3) 1.0000
O3_4 O 0.2500 1.0000 0.2500
O4_4 O 0.1760(3) 1.0000 0.3050(3)
C15_4 C 0.1906(9) 1.0000 0.3293(9)
Dy4_4 Dy 0.29067(3) 1.0000 0.23209(3)
Dy9_2 Dy 0.20933(3) 0.73209(3) 0.5000
Dy10_2 Dy 0.23209(3) 0.79067(3) 0.5000
Dy11_3 Dy -0.0000 0.79067(3) 0.23209(3)
Dy12_3 Dy 0.0000 0.76791(3) 0.29067(3)
Dy13_2 Dy 0.5000 0.73209(3) 0.29067(3)
Dy14_2 Dy 0.5000 0.79067(3) 0.26791(3)
Dy15_2 Dy 0.29067(3) 0.76791(3) 0.5000
O6_2 O 0.20625(15) 0.97012(13) 0.22943(12)
O7_2 O 0.22943(12) 0.97012(13) 0.29375(15)
O9_2 O 0.27057(12) 0.97012(13) 0.20625(15)
O10_2 O 0.29375(15) 0.97012(13) 0.27057(12)
O14_2 O 0.20625(15) 0.77057(12) 0.47012(13)
O15_2 O 0.02988(13) 0.79375(15) 0.27057(12)
O16_2 O 0.47012(13) 0.77057(12) 0.29375(15)
O17_2 O 0.27057(12) 0.79375(15) 0.47012(13)
O20_2 O 0.17263(9) 0.96616(9) 0.25795(10)
O22_2 O 0.24205(10) 0.96616(9) 0.17263(9)
O24_2 O 0.25795(10) 0.96616(9) 0.32737(9)
O25_2 O 0.32737(9) 0.96616(9) 0.24205(10)
O29_2 O 0.17263(9) 0.74205(10) 0.46616(9)
O30_2 O 0.03384(9) 0.82737(9) 0.24205(10)
O31_2 O 0.46616(9) 0.74205(10) 0.32737(9)
O32_2 O 0.24205(10) 0.82737(9) 0.46616(9)
C16_2 C 0.23657(14) 0.95929(12) 0.31691(14)
C17_2 C 0.31691(14) 0.95929(12) 0.26343(14)
C21_2 C 0.18309(14) 0.76343(14) 0.45929(12)
C22_2 C 0.04071(12) 0.81691(14) 0.26343(14)
C23_2 C 0.45929(12) 0.76343(14) 0.31691(14)
C24_2 C 0.26343(14) 0.81691(14) 0.45929(12)
C27_2 C 0.21969(12) 0.93693(12) 0.32784(13)
C28_2 C 0.32784(13) 0.93693(12) 0.28031(12)
C32_2 C 0.17216(13) 0.78031(12) 0.43693(12)
C33_2 C 0.06307(12) 0.82784(13) 0.28031(12)
C34_2 C 0.43693(12) 0.78031(12) 0.32784(13)
C35_2 C 0.28031(12) 0.82784(13) 0.43693(12)
C38_2 C 0.19695(12) 0.92797(12) 0.31347(13)
C39_2 C 0.31347(13) 0.92797(12) 0.30305(12)
C43_2 C 0.18653(13) 0.80305(12) 0.42797(12)
C44_2 C 0.07203(12) 0.81347(13) 0.30305(12)
C45_2 C 0.42797(12) 0.80305(12) 0.31347(13)
C46_2 C 0.30305(12) 0.81347(13) 0.42797(12)
H14_2 H 0.1918 0.9365 0.2970
H15_2 H 0.2970 0.9365 0.3082
H19_2 H 0.2030 0.8082 0.4365
H20_2 H 0.0635 0.7970 0.3082
H21_2 H 0.4365 0.8082 0.2970
H22_2 H 0.3082 0.7970 0.4365
C51_2 C 0.18185(12) 0.90615(11) 0.32386(13)
C52_2 C 0.32386(13) 0.90615(11) 0.31815(12)
C54_2 C 0.17614(13) 0.81815(12) 0.40615(11)
C55_2 C 0.09385(11) 0.82386(13) 0.31815(12)
C56_2 C 0.40615(11) 0.81815(12) 0.32386(13)
C57_2 C 0.31815(12) 0.82386(13) 0.40615(11)
C62_2 C 0.18939(12) 0.89294(12) 0.34803(13)
C63_2 C 0.34803(13) 0.89294(12) 0.31061(12)
C65_2 C 0.10706(12) 0.84803(13) 0.31061(12)
C66_2 C 0.31061(12) 0.84803(13) 0.39294(12)
C68_2 C 0.15197(13) 0.81061(12) 0.39294(12)
C69_2 C 0.39294(12) 0.81061(12) 0.34803(13)
C73_2 C 0.21214(13) 0.90251(13) 0.36197(13)
C74_2 C 0.36197(13) 0.90251(13) 0.28786(13)
C76_2 C 0.09749(13) 0.86197(13) 0.28786(13)
C77_2 C 0.28786(13) 0.86197(13) 0.40251(13)
C79_2 C 0.13803(13) 0.78786(13) 0.40251(13)
C80_2 C 0.40251(13) 0.78786(13) 0.36197(13)
H27_2 H 0.2176 0.8941 0.3784
H28_2 H 0.3784 0.8941 0.2824
H30_2 H 0.1059 0.8784 0.2824
H31_2 H 0.2824 0.8784 0.3941
H33_2 H 0.1216 0.7824 0.3941
H34_2 H 0.3941 0.7824 0.3784
C82_2 C 0.22670(12) 0.92424(13) 0.35185(13)
C83_2 C 0.35185(13) 0.92424(13) 0.27330(12)
C87_2 C 0.07576(13) 0.85185(13) 0.27330(12)
C88_2 C 0.27330(12) 0.85185(13) 0.42424(13)
C90_2 C 0.14815(13) 0.77330(12) 0.42424(13)
C91_2 C 0.42424(13) 0.77330(12) 0.35185(13)
H36_2 H 0.2420 0.9306 0.3617
H37_2 H 0.3617 0.9306 0.2580
H41_2 H 0.0694 0.8617 0.2580
H42_2 H 0.2580 0.8617 0.4306
H44_2 H 0.1383 0.7580 0.4306
H45_2 H 0.4306 0.7580 0.3617
C95_2 C 0.15664(14) 0.89442(12) 0.31126(13)
C96_2 C 0.31126(13) 0.89442(12) 0.34336(14)
C98_2 C 0.18874(13) 0.84336(14) 0.39442(12)
C99_2 C 0.39442(12) 0.84336(14) 0.31126(13)
C101_2 C 0.10558(12) 0.81126(13) 0.34336(14)
C102_2 C 0.34336(14) 0.81126(13) 0.39442(12)
C106_2 C 0.15022(12) 0.87162(12) 0.33102(12)
C107_2 C 0.33102(12) 0.87162(12) 0.34978(12)
C109_2 C 0.16898(12) 0.84978(12) 0.37162(12)
C110_2 C 0.37162(12) 0.84978(12) 0.33102(12)
C112_2 C 0.12838(12) 0.83102(12) 0.34978(12)
C113_2 C 0.34978(12) 0.83102(12) 0.37162(12)
C117_2 C 0.16967(12) 0.87051(12) 0.35239(12)
C118_2 C 0.35239(12) 0.87051(12) 0.33033(12)
C120_2 C 0.12949(12) 0.85239(12) 0.33033(12)
C121_2 C 0.33033(12) 0.85239(12) 0.37051(12)
C123_2 C 0.14761(12) 0.83033(12) 0.37051(12)
C124_2 C 0.37051(12) 0.83033(12) 0.35239(12)
C128_2 C 0.13500(15) 0.91714(15) 0.31024(18)
C129_2 C 0.31024(18) 0.91714(15) 0.36500(15)
C131_2 C 0.18976(18) 0.86500(15) 0.41714(15)
C132_2 C 0.41714(15) 0.86500(15) 0.31024(18)
C134_2 C 0.08286(15) 0.81024(18) 0.36500(15)
C135_2 C 0.36500(15) 0.81024(18) 0.41714(15)
H49_2 H 0.1183 0.9099 0.3017
H50_2 H 0.3017 0.9099 0.3817
H52_2 H 0.1983 0.8817 0.4099
H53_2 H 0.4099 0.8817 0.3017
H55_2 H 0.0901 0.8017 0.3817
H56_2 H 0.3817 0.8017 0.4099
H60_2 H 0.1418 0.9321 0.2987
H61_2 H 0.2987 0.9321 0.3582
H63_2 H 0.2013 0.8582 0.4321
H64_2 H 0.4321 0.8582 0.2987
H66_2 H 0.0679 0.7987 0.3582
H67_2 H 0.3582 0.7987 0.4321
C139_2 C 0.12767(19) 0.92869(19) 0.3384(2)
C140_2 C 0.3384(2) 0.92869(19) 0.37233(19)
C142_2 C 0.1616(2) 0.87233(19) 0.42869(19)
C143_2 C 0.42869(19) 0.87233(19) 0.3384(2)
C145_2 C 0.07131(19) 0.8384(2) 0.37233(19)
C146_2 C 0.37233(19) 0.8384(2) 0.42869(19)
H71_2 H 0.1442 0.9352 0.3474
H72_2 H 0.3474 0.9352 0.3558
H74_2 H 0.1526 0.8558 0.4352
H75_2 H 0.4352 0.8558 0.3474
H77_2 H 0.0648 0.8474 0.3558
H78_2 H 0.3558 0.8474 0.4352
H82_2 H 0.1149 0.9438 0.3363
H83_2 H 0.3363 0.9438 0.3851
H85_2 H 0.1637 0.8851 0.4438
H86_2 H 0.4438 0.8851 0.3363
H88_2 H 0.0562 0.8363 0.3851
H89_2 H 0.3851 0.8363 0.4438
H93_2 H 0.1193 0.9144 0.3495
H94_2 H 0.3495 0.9144 0.3807
H96_2 H 0.1505 0.8807 0.4144
H97_2 H 0.4144 0.8807 0.3495
H99_2 H 0.0856 0.8495 0.3807
H100_2 H 0.3807 0.8495 0.4144
C150_2 C 0.16399(15) 0.88349(15) 0.28256(14)
C151_2 C 0.28256(14) 0.88349(15) 0.33601(15)
C153_2 C 0.21744(14) 0.83601(15) 0.38349(15)
C154_2 C 0.38349(15) 0.83601(15) 0.28256(14)
C156_2 C 0.11651(15) 0.78256(14) 0.33601(15)
C157_2 C 0.33601(15) 0.78256(14) 0.38349(15)
H104_2 H 0.1707 0.8988 0.2714
H105_2 H 0.2714 0.8988 0.3293
H107_2 H 0.2286 0.8293 0.3988
H108_2 H 0.3988 0.8293 0.2714
H110_2 H 0.1012 0.7714 0.3293
H111_2 H 0.3293 0.7714 0.3988
H115_2 H 0.1472 0.8765 0.2739
H116_2 H 0.2739 0.8765 0.3528
H118_2 H 0.2261 0.8528 0.3765
H119_2 H 0.3765 0.8528 0.2739
H121_2 H 0.1235 0.7739 0.3528
H122_2 H 0.3528 0.7739 0.3765
C161_2 C 0.1851(2) 0.86129(18) 0.28217(17)
C162_2 C 0.28217(17) 0.86129(18) 0.3149(2)
C164_2 C 0.21783(17) 0.8149(2) 0.36129(18)
C165_2 C 0.36129(18) 0.8149(2) 0.28217(17)
C167_2 C 0.13871(18) 0.78217(17) 0.3149(2)
C168_2 C 0.3149(2) 0.78217(17) 0.36129(18)
H126_2 H 0.1775 0.8448 0.2903
H127_2 H 0.2903 0.8448 0.3225
H129_2 H 0.2097 0.8225 0.3448
H130_2 H 0.3448 0.8225 0.2903
H132_2 H 0.1552 0.7903 0.3225
H133_2 H 0.3225 0.7903 0.3448
H137_2 H 0.1904 0.8575 0.2634
H138_2 H 0.2634 0.8575 0.3096
H140_2 H 0.2366 0.8096 0.3575
H141_2 H 0.3575 0.8096 0.2634
H143_2 H 0.1425 0.7634 0.3096
H144_2 H 0.3096 0.7634 0.3575
H148_2 H 0.2010 0.8671 0.2925
H149_2 H 0.2925 0.8671 0.2990
H151_2 H 0.2075 0.7990 0.3671
H152_2 H 0.3671 0.7990 0.2925
H154_2 H 0.1329 0.7925 0.2990
H155_2 H 0.2990 0.7925 0.3671
O35_4 O 0.1950(3) 1.0000 0.1760(3)
O36_4 O 0.3050(3) 1.0000 0.3240(3)
O37_4 O 0.3240(3) 1.0000 0.1950(3)
C170_4 C 0.1707(9) 1.0000 0.1906(9)
C171_4 C 0.3094(9) 1.0000 0.1707(9)
C172_4 C 0.3293(9) 1.0000 0.3094(9)
H158_4 H 0.153651 1 0.176531
H159_2 H 0.169751 0.981952 0.203326
H161_4 H 0.323469 1 0.153651
H162_2 H 0.296674 0.981952 0.169751
H164_4 H 0.346349 1 0.323469
H165_2 H 0.330249 0.981952 0.296674
H167_4 H 0.176531 1 0.346349
H168_2 H 0.203326 0.981952 0.330249
Dy11_4 Dy 1.0000 0.79067(3) 0.23209(3)
Dy12_4 Dy 1.0000 0.76791(3) 0.29067(3)
O3_5 O 0.2500 0.2500 -0.0000
O4_5 O 0.3050(3) 0.1760(3) -0.0000
C15_5 C 0.3293(9) 0.1906(9) 0.0000
Dy4_5 Dy 0.23209(3) 0.29067(3) -0.0000
Dy17_3 Dy 0.26791(3) 0.5000 0.20933(3)
Dy18_3 Dy 0.20933(3) 0.5000 0.23209(3)
O8_3 O 0.20625(15) 0.27057(12) 0.02988(13)
O11_3 O 0.27057(12) 0.29375(15) 0.02988(13)
O19_3 O 0.22943(12) 0.47012(13) 0.20625(15)
O21_3 O 0.17263(9) 0.24205(10) 0.03384(9)
O26_3 O 0.24205(10) 0.32737(9) 0.03384(9)
O34_3 O 0.25795(10) 0.46616(9) 0.17263(9)
C18_3 C 0.18309(14) 0.26343(14) 0.04071(12)
C25_3 C 0.04071(12) 0.31691(14) 0.23657(14)
C26_3 C 0.23657(14) 0.45929(12) 0.18309(14)
C29_3 C 0.17216(13) 0.28031(12) 0.06307(12)
C36_3 C 0.06307(12) 0.32784(13) 0.21969(12)
C37_3 C 0.21969(12) 0.43693(12) 0.17216(13)
C40_3 C 0.18653(13) 0.30305(12) 0.07203(12)
C47_3 C 0.07203(12) 0.31347(13) 0.19695(12)
C48_3 C 0.19695(12) 0.42797(12) 0.18653(13)
H16_3 H 0.2030 0.3082 0.0635
H23_3 H 0.0635 0.2970 0.1918
H24_3 H 0.1918 0.4365 0.2030
C53_3 C 0.17614(13) 0.31815(12) 0.09385(11)
C58_3 C 0.09385(11) 0.32386(13) 0.18185(12)
C59_3 C 0.18185(12) 0.40615(11) 0.17614(13)
C64_3 C 0.15197(13) 0.31061(12) 0.10706(12)
C67_3 C 0.18939(12) 0.39294(12) 0.15197(13)
C70_3 C 0.10706(12) 0.34803(13) 0.18939(12)
C75_3 C 0.13803(13) 0.28786(13) 0.09749(13)
C78_3 C 0.21214(13) 0.40251(13) 0.13803(13)
C81_3 C 0.09749(13) 0.36197(13) 0.21214(13)
H29_3 H 0.1216 0.2824 0.1059
H32_3 H 0.2176 0.3941 0.1216
H35_3 H 0.1059 0.3784 0.2176
C84_3 C 0.14815(13) 0.27330(12) 0.07576(13)
C89_3 C 0.22670(12) 0.42424(13) 0.14815(13)
C92_3 C 0.07576(13) 0.35185(13) 0.22670(12)
H38_3 H 0.1383 0.2580 0.0694
H43_3 H 0.2420 0.4306 0.1383
H46_3 H 0.0694 0.3617 0.2420
C97_3 C 0.18874(13) 0.34336(14) 0.10558(12)
C100_3 C 0.10558(12) 0.31126(13) 0.15664(14)
C103_3 C 0.15664(14) 0.39442(12) 0.18874(13)
C108_3 C 0.16898(12) 0.34978(12) 0.12838(12)
C111_3 C 0.12838(12) 0.33102(12) 0.15022(12)
C114_3 C 0.15022(12) 0.37162(12) 0.16898(12)
C119_3 C 0.14761(12) 0.33033(12) 0.12949(12)
C122_3 C 0.16967(12) 0.37051(12) 0.14761(12)
C125_3 C 0.12949(12) 0.35239(12) 0.16967(12)
C130_3 C 0.18976(18) 0.36500(15) 0.08286(15)
C133_3 C 0.08286(15) 0.31024(18) 0.13500(15)
C136_3 C 0.13500(15) 0.41714(15) 0.18976(18)
H51_3 H 0.1983 0.3817 0.0901
H54_3 H 0.0901 0.3017 0.1183
H57_3 H 0.1183 0.4099 0.1983
H62_3 H 0.2013 0.3582 0.0679
H65_3 H 0.0679 0.2987 0.1418
H68_3 H 0.1418 0.4321 0.2013
C141_3 C 0.1616(2) 0.37233(19) 0.07131(19)
C144_3 C 0.07131(19) 0.3384(2) 0.12767(19)
C147_3 C 0.12767(19) 0.42869(19) 0.1616(2)
H73_3 H 0.1526 0.3558 0.0648
H76_3 H 0.0648 0.3474 0.1442
H79_3 H 0.1442 0.4352 0.1526
H84_3 H 0.1637 0.3851 0.0562
H87_3 H 0.0562 0.3363 0.1149
H90_3 H 0.1149 0.4438 0.1637
H95_3 H 0.1505 0.3807 0.0856
H98_3 H 0.0856 0.3495 0.1193
H101_3 H 0.1193 0.4144 0.1505
C152_3 C 0.21744(14) 0.33601(15) 0.11651(15)
C155_3 C 0.11651(15) 0.28256(14) 0.16399(15)
C158_3 C 0.16399(15) 0.38349(15) 0.21744(14)
H106_3 H 0.2286 0.3293 0.1012
H109_3 H 0.1012 0.2714 0.1707
H112_3 H 0.1707 0.3988 0.2286
H117_3 H 0.2261 0.3528 0.1235
H120_3 H 0.1235 0.2739 0.1472
H123_3 H 0.1472 0.3765 0.2261
C163_3 C 0.21783(17) 0.3149(2) 0.13871(18)
C166_3 C 0.13871(18) 0.28217(17) 0.1851(2)
C169_3 C 0.1851(2) 0.36129(18) 0.21783(17)
H128_3 H 0.2097 0.3225 0.1552
H131_3 H 0.1552 0.2903 0.1775
H134_3 H 0.1775 0.3448 0.2097
H139_3 H 0.2366 0.3096 0.1425
H142_3 H 0.1425 0.2634 0.1904
H145_3 H 0.1904 0.3575 0.2366
H150_3 H 0.2075 0.2990 0.1329
H153_3 H 0.1329 0.2925 0.2010
H156_3 H 0.2010 0.3671 0.2075
O35_5 O 0.1760(3) 0.1950(3) -0.0000
O36_5 O 0.3240(3) 0.3050(3) -0.0000
O37_5 O 0.1950(3) 0.3240(3) -0.0000
C170_5 C 0.1906(9) 0.1707(9) 0.0000
C171_5 C 0.1707(9) 0.3094(9) -0.0000
C172_5 C 0.3094(9) 0.3293(9) 0.0000
H157_3 H 0.203326 0.169751 0.0180479
H158_5 H 0.176531 0.153651 2.55215e-18
H160_3 H 0.169751 0.296674 0.0180479
H161_5 H 0.153651 0.323469 2.55215e-18
H163_3 H 0.296674 0.330249 0.0180479
H164_5 H 0.323469 0.346349 2.55215e-18
H166_3 H 0.330249 0.203326 0.0180479
H167_5 H 0.346349 0.176531 2.55215e-18
O3_6 O 0.2500 0.2500 1.0000
O4_6 O 0.3050(3) 0.1760(3) 1.0000
C15_6 C 0.3293(9) 0.1906(9) 1.0000
Dy4_6 Dy 0.23209(3) 0.29067(3) 1.0000
Dy9_3 Dy 0.5000 0.20933(3) 0.73209(3)
Dy10_3 Dy 0.5000 0.23209(3) 0.79067(3)
Dy11_5 Dy 0.23209(3) -0.0000 0.79067(3)
Dy12_5 Dy 0.29067(3) 0.0000 0.76791(3)
Dy13_3 Dy 0.29067(3) 0.5000 0.73209(3)
Dy14_3 Dy 0.26791(3) 0.5000 0.79067(3)
Dy15_3 Dy 0.5000 0.29067(3) 0.76791(3)
O6_3 O 0.22943(12) 0.20625(15) 0.97012(13)
O7_3 O 0.29375(15) 0.22943(12) 0.97012(13)
O9_3 O 0.20625(15) 0.27057(12) 0.97012(13)
O10_3 O 0.27057(12) 0.29375(15) 0.97012(13)
O14_3 O 0.47012(13) 0.20625(15) 0.77057(12)
O15_3 O 0.27057(12) 0.02988(13) 0.79375(15)
O16_3 O 0.29375(15) 0.47012(13) 0.77057(12)
O17_3 O 0.47012(13) 0.27057(12) 0.79375(15)
O20_3 O 0.25795(10) 0.17263(9) 0.96616(9)
O22_3 O 0.17263(9) 0.24205(10) 0.96616(9)
O24_3 O 0.32737(9) 0.25795(10) 0.96616(9)
O25_3 O 0.24205(10) 0.32737(9) 0.96616(9)
O29_3 O 0.46616(9) 0.17263(9) 0.74205(10)
O30_3 O 0.24205(10) 0.03384(9) 0.82737(9)
O31_3 O 0.32737(9) 0.46616(9) 0.74205(10)
O32_3 O 0.46616(9) 0.24205(10) 0.82737(9)
C16_3 C 0.31691(14) 0.23657(14) 0.95929(12)
C17_3 C 0.26343(14) 0.31691(14) 0.95929(12)
C21_3 C 0.45929(12) 0.18309(14) 0.76343(14)
C22_3 C 0.26343(14) 0.04071(12) 0.81691(14)
C23_3 C 0.31691(14) 0.45929(12) 0.76343(14)
C24_3 C 0.45929(12) 0.26343(14) 0.81691(14)
C27_3 C 0.32784(13) 0.21969(12) 0.93693(12)
C28_3 C 0.28031(12) 0.32784(13) 0.93693(12)
C32_3 C 0.43693(12) 0.17216(13) 0.78031(12)
C33_3 C 0.28031(12) 0.06307(12) 0.82784(13)
C34_3 C 0.32784(13) 0.43693(12) 0.78031(12)
C35_3 C 0.43693(12) 0.28031(12) 0.82784(13)
C38_3 C 0.31347(13) 0.19695(12) 0.92797(12)
C39_3 C 0.30305(12) 0.31347(13) 0.92797(12)
C43_3 C 0.42797(12) 0.18653(13) 0.80305(12)
C44_3 C 0.30305(12) 0.07203(12) 0.81347(13)
C45_3 C 0.31347(13) 0.42797(12) 0.80305(12)
C46_3 C 0.42797(12) 0.30305(12) 0.81347(13)
H14_3 H 0.2970 0.1918 0.9365
H15_3 H 0.3082 0.2970 0.9365
H19_3 H 0.4365 0.2030 0.8082
H20_3 H 0.3082 0.0635 0.7970
H21_3 H 0.2970 0.4365 0.8082
H22_3 H 0.4365 0.3082 0.7970
C51_3 C 0.32386(13) 0.18185(12) 0.90615(11)
C52_3 C 0.31815(12) 0.32386(13) 0.90615(11)
C54_3 C 0.40615(11) 0.17614(13) 0.81815(12)
C55_3 C 0.31815(12) 0.09385(11) 0.82386(13)
C56_3 C 0.32386(13) 0.40615(11) 0.81815(12)
C57_3 C 0.40615(11) 0.31815(12) 0.82386(13)
C62_3 C 0.34803(13) 0.18939(12) 0.89294(12)
C63_3 C 0.31061(12) 0.34803(13) 0.89294(12)
C65_3 C 0.31061(12) 0.10706(12) 0.84803(13)
C66_3 C 0.39294(12) 0.31061(12) 0.84803(13)
C68_3 C 0.39294(12) 0.15197(13) 0.81061(12)
C69_3 C 0.34803(13) 0.39294(12) 0.81061(12)
C73_3 C 0.36197(13) 0.21214(13) 0.90251(13)
C74_3 C 0.28786(13) 0.36197(13) 0.90251(13)
C76_3 C 0.28786(13) 0.09749(13) 0.86197(13)
C77_3 C 0.40251(13) 0.28786(13) 0.86197(13)
C79_3 C 0.40251(13) 0.13803(13) 0.78786(13)
C80_3 C 0.36197(13) 0.40251(13) 0.78786(13)
H27_3 H 0.3784 0.2176 0.8941
H28_3 H 0.2824 0.3784 0.8941
H30_3 H 0.2824 0.1059 0.8784
H31_3 H 0.3941 0.2824 0.8784
H33_3 H 0.3941 0.1216 0.7824
H34_3 H 0.3784 0.3941 0.7824
C82_3 C 0.35185(13) 0.22670(12) 0.92424(13)
C83_3 C 0.27330(12) 0.35185(13) 0.92424(13)
C87_3 C 0.27330(12) 0.07576(13) 0.85185(13)
C88_3 C 0.42424(13) 0.27330(12) 0.85185(13)
C90_3 C 0.42424(13) 0.14815(13) 0.77330(12)
C91_3 C 0.35185(13) 0.42424(13) 0.77330(12)
H36_3 H 0.3617 0.2420 0.9306
H37_3 H 0.2580 0.3617 0.9306
H41_3 H 0.2580 0.0694 0.8617
H42_3 H 0.4306 0.2580 0.8617
H44_3 H 0.4306 0.1383 0.7580
H45_3 H 0.3617 0.4306 0.7580
C95_3 C 0.31126(13) 0.15664(14) 0.89442(12)
C96_3 C 0.34336(14) 0.31126(13) 0.89442(12)
C98_3 C 0.39442(12) 0.18874(13) 0.84336(14)
C99_3 C 0.31126(13) 0.39442(12) 0.84336(14)
C101_3 C 0.34336(14) 0.10558(12) 0.81126(13)
C102_3 C 0.39442(12) 0.34336(14) 0.81126(13)
C106_3 C 0.33102(12) 0.15022(12) 0.87162(12)
C107_3 C 0.34978(12) 0.33102(12) 0.87162(12)
C109_3 C 0.37162(12) 0.16898(12) 0.84978(12)
C110_3 C 0.33102(12) 0.37162(12) 0.84978(12)
C112_3 C 0.34978(12) 0.12838(12) 0.83102(12)
C113_3 C 0.37162(12) 0.34978(12) 0.83102(12)
C117_3 C 0.35239(12) 0.16967(12) 0.87051(12)
C118_3 C 0.33033(12) 0.35239(12) 0.87051(12)
C120_3 C 0.33033(12) 0.12949(12) 0.85239(12)
C121_3 C 0.37051(12) 0.33033(12) 0.85239(12)
C123_3 C 0.37051(12) 0.14761(12) 0.83033(12)
C124_3 C 0.35239(12) 0.37051(12) 0.83033(12)
C128_3 C 0.31024(18) 0.13500(15) 0.91714(15)
C129_3 C 0.36500(15) 0.31024(18) 0.91714(15)
C131_3 C 0.41714(15) 0.18976(18) 0.86500(15)
C132_3 C 0.31024(18) 0.41714(15) 0.86500(15)
C134_3 C 0.36500(15) 0.08286(15) 0.81024(18)
C135_3 C 0.41714(15) 0.36500(15) 0.81024(18)
H49_3 H 0.3017 0.1183 0.9099
H50_3 H 0.3817 0.3017 0.9099
H52_3 H 0.4099 0.1983 0.8817
H53_3 H 0.3017 0.4099 0.8817
H55_3 H 0.3817 0.0901 0.8017
H56_3 H 0.4099 0.3817 0.8017
H60_3 H 0.2987 0.1418 0.9321
H61_3 H 0.3582 0.2987 0.9321
H63_3 H 0.4321 0.2013 0.8582
H64_3 H 0.2987 0.4321 0.8582
H66_3 H 0.3582 0.0679 0.7987
H67_3 H 0.4321 0.3582 0.7987
C139_3 C 0.3384(2) 0.12767(19) 0.92869(19)
C140_3 C 0.37233(19) 0.3384(2) 0.92869(19)
C142_3 C 0.42869(19) 0.1616(2) 0.87233(19)
C143_3 C 0.3384(2) 0.42869(19) 0.87233(19)
C145_3 C 0.37233(19) 0.07131(19) 0.8384(2)
C146_3 C 0.42869(19) 0.37233(19) 0.8384(2)
H71_3 H 0.3474 0.1442 0.9352
H72_3 H 0.3558 0.3474 0.9352
H74_3 H 0.4352 0.1526 0.8558
H75_3 H 0.3474 0.4352 0.8558
H77_3 H 0.3558 0.0648 0.8474
H78_3 H 0.4352 0.3558 0.8474
H82_3 H 0.3363 0.1149 0.9438
H83_3 H 0.3851 0.3363 0.9438
H85_3 H 0.4438 0.1637 0.8851
H86_3 H 0.3363 0.4438 0.8851
H88_3 H 0.3851 0.0562 0.8363
H89_3 H 0.4438 0.3851 0.8363
H93_3 H 0.3495 0.1193 0.9144
H94_3 H 0.3807 0.3495 0.9144
H96_3 H 0.4144 0.1505 0.8807
H97_3 H 0.3495 0.4144 0.8807
H99_3 H 0.3807 0.0856 0.8495
H100_3 H 0.4144 0.3807 0.8495
C150_3 C 0.28256(14) 0.16399(15) 0.88349(15)
C151_3 C 0.33601(15) 0.28256(14) 0.88349(15)
C153_3 C 0.38349(15) 0.21744(14) 0.83601(15)
C154_3 C 0.28256(14) 0.38349(15) 0.83601(15)
C156_3 C 0.33601(15) 0.11651(15) 0.78256(14)
C157_3 C 0.38349(15) 0.33601(15) 0.78256(14)
H104_3 H 0.2714 0.1707 0.8988
H105_3 H 0.3293 0.2714 0.8988
H107_3 H 0.3988 0.2286 0.8293
H108_3 H 0.2714 0.3988 0.8293
H110_3 H 0.3293 0.1012 0.7714
H111_3 H 0.3988 0.3293 0.7714
H115_3 H 0.2739 0.1472 0.8765
H116_3 H 0.3528 0.2739 0.8765
H118_3 H 0.3765 0.2261 0.8528
H119_3 H 0.2739 0.3765 0.8528
H121_3 H 0.3528 0.1235 0.7739
H122_3 H 0.3765 0.3528 0.7739
C161_3 C 0.28217(17) 0.1851(2) 0.86129(18)
C162_3 C 0.3149(2) 0.28217(17) 0.86129(18)
C164_3 C 0.36129(18) 0.21783(17) 0.8149(2)
C165_3 C 0.28217(17) 0.36129(18) 0.8149(2)
C167_3 C 0.3149(2) 0.13871(18) 0.78217(17)
C168_3 C 0.36129(18) 0.3149(2) 0.78217(17)
H126_3 H 0.2903 0.1775 0.8448
H127_3 H 0.3225 0.2903 0.8448
H129_3 H 0.3448 0.2097 0.8225
H130_3 H 0.2903 0.3448 0.8225
H132_3 H 0.3225 0.1552 0.7903
H133_3 H 0.3448 0.3225 0.7903
H137_3 H 0.2634 0.1904 0.8575
H138_3 H 0.3096 0.2634 0.8575
H140_3 H 0.3575 0.2366 0.8096
H141_3 H 0.2634 0.3575 0.8096
H143_3 H 0.3096 0.1425 0.7634
H144_3 H 0.3575 0.3096 0.7634
H148_3 H 0.2925 0.2010 0.8671
H149_3 H 0.2990 0.2925 0.8671
H151_3 H 0.3671 0.2075 0.7990
H152_3 H 0.2925 0.3671 0.7990
H154_3 H 0.2990 0.1329 0.7925
H155_3 H 0.3671 0.2990 0.7925
O35_6 O 0.1760(3) 0.1950(3) 1.0000
O36_6 O 0.3240(3) 0.3050(3) 1.0000
O37_6 O 0.1950(3) 0.3240(3) 1.0000
C170_6 C 0.1906(9) 0.1707(9) 1.0000
C171_6 C 0.1707(9) 0.3094(9) 1.0000
C172_6 C 0.3094(9) 0.3293(9) 1.0000
H158_6 H 0.176531 0.153651 1
H159_3 H 0.203326 0.169751 0.981952
H161_6 H 0.153651 0.323469 1
H162_3 H 0.169751 0.296674 0.981952
H164_6 H 0.323469 0.346349 1
H165_3 H 0.296674 0.330249 0.981952
H167_6 H 0.346349 0.176531 1
H168_3 H 0.330249 0.203326 0.981952
Dy11_6 Dy 0.23209(3) 1.0000 0.79067(3)
Dy12_6 Dy 0.29067(3) 1.0000 0.76791(3)
O1_2 O 0.72943(12) 0.52988(13) 0.29375(15)
O2_2 O 0.75795(10) 0.53384(9) 0.32737(9)
O3_7 O 0.7500 0.5000 0.2500
C1_2 C 0.73657(14) 0.54071(12) 0.31691(14)
C2_2 C 0.71969(12) 0.56307(12) 0.32784(13)
C3_2 C 0.69695(12) 0.57203(12) 0.31347(13)
H1_2 H 0.6918 0.5635 0.2970
C4_2 C 0.68185(12) 0.59385(11) 0.32386(13)
C5_2 C 0.68939(12) 0.60706(12) 0.34803(13)
C6_2 C 0.71214(13) 0.59749(13) 0.36197(13)
H2_2 H 0.7176 0.6059 0.3784
C7_2 C 0.72670(12) 0.57576(13) 0.35185(13)
H3_2 H 0.7420 0.5694 0.3617
C8_2 C 0.65664(14) 0.60558(12) 0.31126(13)
C9_2 C 0.65022(12) 0.62838(12) 0.33102(12)
C10_2 C 0.66967(12) 0.62949(12) 0.35239(12)
C11_2 C 0.63500(15) 0.58286(15) 0.31024(18)
H4_2 H 0.6183 0.5901 0.3017
H5_2 H 0.6418 0.5679 0.2987
C12_2 C 0.62767(19) 0.57131(19) 0.3384(2)
H6_2 H 0.6442 0.5648 0.3474
H7_2 H 0.6149 0.5562 0.3363
H8_2 H 0.6193 0.5856 0.3495
C13_2 C 0.66399(15) 0.61651(15) 0.28256(14)
H9_2 H 0.6707 0.6012 0.2714
H10_2 H 0.6472 0.6235 0.2739
C14_2 C 0.6851(2) 0.63871(18) 0.28217(17)
H11_2 H 0.6775 0.6552 0.2903
H12_2 H 0.6904 0.6425 0.2634
H13_2 H 0.7010 0.6329 0.2925
O4_7 O 0.8050(3) 0.5000 0.3240(3)
C15_7 C 0.8293(9) 0.5000 0.3094(9)
Dy2_3 Dy 0.70933(3) 0.5000 0.26791(3)
Dy5_3 Dy 0.5000 0.70933(3) 0.23209(3)
Dy7_3 Dy 0.70933(3) 0.76791(3) 0.5000
Dy8_3 Dy 0.73209(3) 0.70933(3) 0.5000
Dy16_5 Dy 0.5000 0.76791(3) 0.20933(3)
Dy17_4 Dy 0.76791(3) 0.70933(3) 0.0000
Dy18_4 Dy 0.70933(3) 0.73209(3) 0.0000
O5_2 O 0.79375(15) 0.52988(13) 0.27057(12)
O6_4 O 0.72943(12) 0.47012(13) 0.29375(15)
O8_4 O 0.70625(15) 0.52988(13) 0.22943(12)
O9_4 O 0.70625(15) 0.47012(13) 0.22943(12)
O11_4 O 0.77057(12) 0.52988(13) 0.20625(15)
O12_2 O 0.52988(13) 0.70625(15) 0.27057(12)
O13_2 O 0.70625(15) 0.72943(12) 0.47012(13)
O18_3 O 0.52988(13) 0.72943(12) 0.20625(15)
O19_4 O 0.72943(12) 0.70625(15) 0.02988(13)
O20_4 O 0.75795(10) 0.46616(9) 0.32737(9)
O21_4 O 0.67263(9) 0.53384(9) 0.25795(10)
O22_4 O 0.67263(9) 0.46616(9) 0.25795(10)
O23_2 O 0.82737(9) 0.53384(9) 0.24205(10)
O26_4 O 0.74205(10) 0.53384(9) 0.17263(9)
O27_2 O 0.53384(9) 0.67263(9) 0.24205(10)
O28_2 O 0.67263(9) 0.75795(10) 0.46616(9)
O33_3 O 0.53384(9) 0.75795(10) 0.17263(9)
O34_4 O 0.75795(10) 0.67263(9) 0.03384(9)
C18_4 C 0.68309(14) 0.54071(12) 0.23657(14)
C19_2 C 0.54071(12) 0.68309(14) 0.26343(14)
C20_2 C 0.68309(14) 0.73657(14) 0.45929(12)
C25_4 C 0.54071(12) 0.73657(14) 0.18309(14)
C26_4 C 0.73657(14) 0.68309(14) 0.04071(12)
C29_4 C 0.67216(13) 0.56307(12) 0.21969(12)
C30_2 C 0.56307(12) 0.67216(13) 0.28031(12)
C31_2 C 0.67216(13) 0.71969(12) 0.43693(12)
C36_4 C 0.56307(12) 0.71969(12) 0.17216(13)
C37_4 C 0.71969(12) 0.67216(13) 0.06307(12)
C40_4 C 0.68653(13) 0.57203(12) 0.19695(12)
C41_2 C 0.57203(12) 0.68653(13) 0.30305(12)
C42_2 C 0.68653(13) 0.69695(12) 0.42797(12)
C47_4 C 0.57203(12) 0.69695(12) 0.18653(13)
C48_4 C 0.69695(12) 0.68653(13) 0.07203(12)
H16_4 H 0.7030 0.5635 0.1918
H17_2 H 0.5635 0.7030 0.3082
H18_2 H 0.7030 0.6918 0.4365
H23_4 H 0.5635 0.6918 0.2030
H24_4 H 0.6918 0.7030 0.0635
C49_2 C 0.59385(11) 0.67614(13) 0.31815(12)
C50_2 C 0.67614(13) 0.68185(12) 0.40615(11)
C53_4 C 0.67614(13) 0.59385(11) 0.18185(12)
C58_4 C 0.59385(11) 0.68185(12) 0.17614(13)
C59_4 C 0.68185(12) 0.67614(13) 0.09385(11)
C60_2 C 0.60706(12) 0.65197(13) 0.31061(12)
C61_2 C 0.65197(13) 0.68939(12) 0.39294(12)
C64_4 C 0.65197(13) 0.60706(12) 0.18939(12)
C67_4 C 0.68939(12) 0.65197(13) 0.10706(12)
C70_4 C 0.60706(12) 0.68939(12) 0.15197(13)
C71_2 C 0.59749(13) 0.63803(13) 0.28786(13)
C72_2 C 0.63803(13) 0.71214(13) 0.40251(13)
C75_4 C 0.63803(13) 0.59749(13) 0.21214(13)
C78_4 C 0.71214(13) 0.63803(13) 0.09749(13)
C81_4 C 0.59749(13) 0.71214(13) 0.13803(13)
H25_2 H 0.6059 0.6216 0.2824
H26_2 H 0.6216 0.7176 0.3941
H29_4 H 0.6216 0.6059 0.2176
H32_4 H 0.7176 0.6216 0.1059
H35_4 H 0.6059 0.7176 0.1216
C84_4 C 0.64815(13) 0.57576(13) 0.22670(12)
C85_2 C 0.57576(13) 0.64815(13) 0.27330(12)
C86_2 C 0.64815(13) 0.72670(12) 0.42424(13)
C89_4 C 0.72670(12) 0.64815(13) 0.07576(13)
C92_4 C 0.57576(13) 0.72670(12) 0.14815(13)
H38_4 H 0.6383 0.5694 0.2420
H39_2 H 0.5694 0.6383 0.2580
H40_2 H 0.6383 0.7420 0.4306
H43_4 H 0.7420 0.6383 0.0694
H46_4 H 0.5694 0.7420 0.1383
C93_2 C 0.68874(13) 0.65664(14) 0.39442(12)
C94_2 C 0.60558(12) 0.68874(13) 0.34336(14)
C97_4 C 0.68874(13) 0.60558(12) 0.15664(14)
C100_4 C 0.60558(12) 0.65664(14) 0.18874(13)
C103_4 C 0.65664(14) 0.68874(13) 0.10558(12)
C104_2 C 0.66898(12) 0.65022(12) 0.37162(12)
C105_2 C 0.62838(12) 0.66898(12) 0.34978(12)
C108_4 C 0.66898(12) 0.62838(12) 0.15022(12)
C111_4 C 0.62838(12) 0.65022(12) 0.16898(12)
C114_4 C 0.65022(12) 0.66898(12) 0.12838(12)
C115_2 C 0.62949(12) 0.64761(12) 0.33033(12)
C116_2 C 0.64761(12) 0.66967(12) 0.37051(12)
C119_4 C 0.64761(12) 0.62949(12) 0.16967(12)
C122_4 C 0.66967(12) 0.64761(12) 0.12949(12)
C125_4 C 0.62949(12) 0.66967(12) 0.14761(12)
C126_2 C 0.68976(18) 0.63500(15) 0.41714(15)
C127_2 C 0.58286(15) 0.68976(18) 0.36500(15)
C130_4 C 0.68976(18) 0.58286(15) 0.13500(15)
C133_4 C 0.58286(15) 0.63500(15) 0.18976(18)
C136_4 C 0.63500(15) 0.68976(18) 0.08286(15)
H47_2 H 0.6983 0.6183 0.4099
H48_2 H 0.5901 0.6983 0.3817
H51_4 H 0.6983 0.5901 0.1183
H54_4 H 0.5901 0.6183 0.1983
H57_4 H 0.6183 0.6983 0.0901
H58_2 H 0.7013 0.6418 0.4321
H59_2 H 0.5679 0.7013 0.3582
H62_4 H 0.7013 0.5679 0.1418
H65_4 H 0.5679 0.6418 0.2013
H68_4 H 0.6418 0.7013 0.0679
C137_2 C 0.6616(2) 0.62767(19) 0.42869(19)
C138_2 C 0.57131(19) 0.6616(2) 0.37233(19)
C141_4 C 0.6616(2) 0.57131(19) 0.12767(19)
C144_4 C 0.57131(19) 0.62767(19) 0.1616(2)
C147_4 C 0.62767(19) 0.6616(2) 0.07131(19)
H69_2 H 0.6526 0.6442 0.4352
H70_2 H 0.5648 0.6526 0.3558
H73_4 H 0.6526 0.5648 0.1442
H76_4 H 0.5648 0.6442 0.1526
H79_4 H 0.6442 0.6526 0.0648
H80_2 H 0.6637 0.6149 0.4438
H81_2 H 0.5562 0.6637 0.3851
H84_4 H 0.6637 0.5562 0.1149
H87_4 H 0.5562 0.6149 0.1637
H90_4 H 0.6149 0.6637 0.0562
H91_2 H 0.6505 0.6193 0.4144
H92_2 H 0.5856 0.6505 0.3807
H95_4 H 0.6505 0.5856 0.1193
H98_4 H 0.5856 0.6193 0.1505
H101_4 H 0.6193 0.6505 0.0856
C148_2 C 0.71744(14) 0.66399(15) 0.38349(15)
C149_2 C 0.61651(15) 0.71744(14) 0.33601(15)
C152_4 C 0.71744(14) 0.61651(15) 0.16399(15)
C155_4 C 0.61651(15) 0.66399(15) 0.21744(14)
C158_4 C 0.66399(15) 0.71744(14) 0.11651(15)
H102_2 H 0.7286 0.6707 0.3988
H103_2 H 0.6012 0.7286 0.3293
H106_4 H 0.7286 0.6012 0.1707
H109_4 H 0.6012 0.6707 0.2286
H112_4 H 0.6707 0.7286 0.1012
H113_2 H 0.7261 0.6472 0.3765
H114_2 H 0.6235 0.7261 0.3528
H117_4 H 0.7261 0.6235 0.1472
H120_4 H 0.6235 0.6472 0.2261
H123_4 H 0.6472 0.7261 0.1235
C159_2 C 0.71783(17) 0.6851(2) 0.36129(18)
C160_2 C 0.63871(18) 0.71783(17) 0.3149(2)
C163_4 C 0.71783(17) 0.63871(18) 0.1851(2)
C166_4 C 0.63871(18) 0.6851(2) 0.21783(17)
C169_4 C 0.6851(2) 0.71783(17) 0.13871(18)
H124_2 H 0.7097 0.6775 0.3448
H125_2 H 0.6552 0.7097 0.3225
H128_4 H 0.7097 0.6552 0.1775
H131_4 H 0.6552 0.6775 0.2097
H134_4 H 0.6775 0.7097 0.1552
H135_2 H 0.7366 0.6904 0.3575
H136_2 H 0.6425 0.7366 0.3096
H139_4 H 0.7366 0.6425 0.1904
H142_4 H 0.6425 0.6904 0.2366
H145_4 H 0.6904 0.7366 0.1425
H146_2 H 0.7075 0.7010 0.3671
H147_2 H 0.6329 0.7075 0.2990
H150_4 H 0.7075 0.6329 0.2010
H153_4 H 0.6329 0.7010 0.2075
H156_4 H 0.7010 0.7075 0.1329
O35_7 O 0.6760(3) 0.5000 0.3050(3)
O36_7 O 0.8240(3) 0.5000 0.1950(3)
O37_7 O 0.6950(3) 0.5000 0.1760(3)
C170_7 C 0.6906(9) 0.5000 0.3293(9)
C171_7 C 0.6707(9) 0.5000 0.1906(9)
C172_7 C 0.8094(9) 0.5000 0.1707(9)
H157_4 H 0.703326 0.518048 0.330249
H158_7 H 0.676531 0.5 0.346349
H159_4 H 0.703326 0.481952 0.330249
H160_4 H 0.669751 0.518048 0.203326
H161_7 H 0.653651 0.5 0.176531
H162_4 H 0.669751 0.481952 0.203326
H163_4 H 0.796674 0.518048 0.169751
H164_7 H 0.823469 0.5 0.153651
H165_4 H 0.796674 0.481952 0.169751
H166_4 H 0.830249 0.518048 0.296674
H167_7 H 0.846349 0.5 0.323469
H168_4 H 0.830249 0.481952 0.296674
Dy17_5 Dy 0.76791(3) 0.70933(3) 1.0000
Dy18_5 Dy 0.70933(3) 0.73209(3) 1.0000
Dy9_4 Dy -0.0000 0.76791(3) 0.70933(3)
Dy10_4 Dy -0.0000 0.70933(3) 0.73209(3)
Dy15_4 Dy 0.0000 0.73209(3) 0.79067(3)
Dy13_4 Dy 0.79067(3) 0.76791(3) 0.0000
Dy18_6 Dy 0.70933(3) 0.26791(3) 0.0000
Dy1_3 Dy 0.76791(3) 0.5000 0.70933(3)
O1_3 O 0.72943(12) 0.47012(13) 0.70625(15)
O2_3 O 0.75795(10) 0.46616(9) 0.67263(9)
O3_8 O 0.7500 0.5000 0.7500
C1_3 C 0.73657(14) 0.45929(12) 0.68309(14)
C2_3 C 0.71969(12) 0.43693(12) 0.67216(13)
C3_3 C 0.69695(12) 0.42797(12) 0.68653(13)
H1_3 H 0.6918 0.4365 0.7030
C4_3 C 0.68185(12) 0.40615(11) 0.67614(13)
C5_3 C 0.68939(12) 0.39294(12) 0.65197(13)
C6_3 C 0.71214(13) 0.40251(13) 0.63803(13)
H2_3 H 0.7176 0.3941 0.6216
C7_3 C 0.72670(12) 0.42424(13) 0.64815(13)
H3_3 H 0.7420 0.4306 0.6383
C8_3 C 0.65664(14) 0.39442(12) 0.68874(13)
C9_3 C 0.65022(12) 0.37162(12) 0.66898(12)
C10_3 C 0.66967(12) 0.37051(12) 0.64761(12)
C11_3 C 0.63500(15) 0.41714(15) 0.68976(18)
H4_3 H 0.6183 0.4099 0.6983
H5_3 H 0.6418 0.4321 0.7013
C12_3 C 0.62767(19) 0.42869(19) 0.6616(2)
H6_3 H 0.6442 0.4352 0.6526
H7_3 H 0.6149 0.4438 0.6637
H8_3 H 0.6193 0.4144 0.6505
C13_3 C 0.66399(15) 0.38349(15) 0.71744(14)
H9_3 H 0.6707 0.3988 0.7286
H10_3 H 0.6472 0.3765 0.7261
C14_3 C 0.6851(2) 0.36129(18) 0.71783(17)
H11_3 H 0.6775 0.3448 0.7097
H12_3 H 0.6904 0.3575 0.7366
H13_3 H 0.7010 0.3671 0.7075
O4_8 O 0.8050(3) 0.5000 0.6760(3)
C15_8 C 0.8293(9) 0.5000 0.6906(9)
Dy2_4 Dy 0.70933(3) 0.5000 0.73209(3)
Dy3_3 Dy 0.79067(3) 0.5000 0.76791(3)
Dy4_7 Dy 0.73209(3) 0.5000 0.79067(3)
Dy6_3 Dy 0.5000 0.26791(3) 0.70933(3)
Dy7_4 Dy 0.70933(3) 0.23209(3) 0.5000
Dy9_5 Dy 1.0000 0.76791(3) 0.70933(3)
Dy10_5 Dy 1.0000 0.70933(3) 0.73209(3)
Dy12_7 Dy 0.79067(3) 0.73209(3) 0.5000
Dy13_5 Dy 0.79067(3) 0.76791(3) 1.0000
Dy15_5 Dy 1.0000 0.73209(3) 0.79067(3)
Dy18_7 Dy 0.70933(3) 0.26791(3) 1.0000
O5_3 O 0.79375(15) 0.47012(13) 0.72943(12)
O6_5 O 0.72943(12) 0.52988(13) 0.70625(15)
O7_4 O 0.79375(15) 0.52988(13) 0.72943(12)
O8_5 O 0.70625(15) 0.47012(13) 0.77057(12)
O9_5 O 0.70625(15) 0.52988(13) 0.77057(12)
O10_4 O 0.77057(12) 0.52988(13) 0.79375(15)
O11_5 O 0.77057(12) 0.47012(13) 0.79375(15)
O12_3 O 0.52988(13) 0.29375(15) 0.72943(12)
O13_3 O 0.70625(15) 0.27057(12) 0.52988(13)
O14_4 O 0.97012(13) 0.72943(12) 0.70625(15)
O15_4 O 0.77057(12) 0.70625(15) 0.52988(13)
O16_4 O 0.79375(15) 0.72943(12) 0.97012(13)
O17_4 O 0.97012(13) 0.70625(15) 0.77057(12)
O18_4 O 0.52988(13) 0.27057(12) 0.79375(15)
O19_5 O 0.72943(12) 0.29375(15) 0.97012(13)
O20_5 O 0.75795(10) 0.53384(9) 0.67263(9)
O21_5 O 0.67263(9) 0.46616(9) 0.74205(10)
O22_5 O 0.67263(9) 0.53384(9) 0.74205(10)
O23_3 O 0.82737(9) 0.46616(9) 0.75795(10)
O24_4 O 0.82737(9) 0.53384(9) 0.75795(10)
O25_4 O 0.74205(10) 0.53384(9) 0.82737(9)
O26_5 O 0.74205(10) 0.46616(9) 0.82737(9)
O27_3 O 0.53384(9) 0.32737(9) 0.75795(10)
O28_3 O 0.67263(9) 0.24205(10) 0.53384(9)
O29_4 O 0.96616(9) 0.75795(10) 0.67263(9)
O30_4 O 0.74205(10) 0.67263(9) 0.53384(9)
O31_4 O 0.82737(9) 0.75795(10) 0.96616(9)
O32_4 O 0.96616(9) 0.67263(9) 0.74205(10)
O33_4 O 0.53384(9) 0.24205(10) 0.82737(9)
O34_5 O 0.75795(10) 0.32737(9) 0.96616(9)
C16_4 C 0.81691(14) 0.54071(12) 0.73657(14)
C17_4 C 0.76343(14) 0.54071(12) 0.81691(14)
C18_5 C 0.68309(14) 0.45929(12) 0.76343(14)
C19_3 C 0.54071(12) 0.31691(14) 0.73657(14)
C20_3 C 0.68309(14) 0.26343(14) 0.54071(12)
C21_4 C 0.95929(12) 0.73657(14) 0.68309(14)
C22_4 C 0.76343(14) 0.68309(14) 0.54071(12)
C23_4 C 0.81691(14) 0.73657(14) 0.95929(12)
C24_4 C 0.95929(12) 0.68309(14) 0.76343(14)
C25_5 C 0.54071(12) 0.26343(14) 0.81691(14)
C26_5 C 0.73657(14) 0.31691(14) 0.95929(12)
C27_4 C 0.82784(13) 0.56307(12) 0.71969(12)
C28_4 C 0.78031(12) 0.56307(12) 0.82784(13)
C29_5 C 0.67216(13) 0.43693(12) 0.78031(12)
C30_3 C 0.56307(12) 0.32784(13) 0.71969(12)
C31_3 C 0.67216(13) 0.28031(12) 0.56307(12)
C32_4 C 0.93693(12) 0.71969(12) 0.67216(13)
C33_4 C 0.78031(12) 0.67216(13) 0.56307(12)
C34_4 C 0.82784(13) 0.71969(12) 0.93693(12)
C35_4 C 0.93693(12) 0.67216(13) 0.78031(12)
C36_5 C 0.56307(12) 0.28031(12) 0.82784(13)
C37_5 C 0.71969(12) 0.32784(13) 0.93693(12)
C38_4 C 0.81347(13) 0.57203(12) 0.69695(12)
C39_4 C 0.80305(12) 0.57203(12) 0.81347(13)
C40_5 C 0.68653(13) 0.42797(12) 0.80305(12)
C41_3 C 0.57203(12) 0.31347(13) 0.69695(12)
C42_3 C 0.68653(13) 0.30305(12) 0.57203(12)
C43_4 C 0.92797(12) 0.69695(12) 0.68653(13)
C44_4 C 0.80305(12) 0.68653(13) 0.57203(12)
C45_4 C 0.81347(13) 0.69695(12) 0.92797(12)
C46_4 C 0.92797(12) 0.68653(13) 0.80305(12)
C47_5 C 0.57203(12) 0.30305(12) 0.81347(13)
C48_5 C 0.69695(12) 0.31347(13) 0.92797(12)
H14_4 H 0.7970 0.5635 0.6918
H15_4 H 0.8082 0.5635 0.7970
H16_5 H 0.7030 0.4365 0.8082
H17_3 H 0.5635 0.2970 0.6918
H18_3 H 0.7030 0.3082 0.5635
H19_4 H 0.9365 0.6918 0.7030
H20_4 H 0.8082 0.7030 0.5635
H21_4 H 0.7970 0.6918 0.9365
H22_4 H 0.9365 0.7030 0.8082
H23_5 H 0.5635 0.3082 0.7970
H24_5 H 0.6918 0.2970 0.9365
C49_3 C 0.59385(11) 0.32386(13) 0.68185(12)
C50_3 C 0.67614(13) 0.31815(12) 0.59385(11)
C51_4 C 0.82386(13) 0.59385(11) 0.68185(12)
C52_4 C 0.81815(12) 0.59385(11) 0.82386(13)
C53_5 C 0.67614(13) 0.40615(11) 0.81815(12)
C54_4 C 0.90615(11) 0.68185(12) 0.67614(13)
C55_4 C 0.81815(12) 0.67614(13) 0.59385(11)
C56_4 C 0.82386(13) 0.68185(12) 0.90615(11)
C57_4 C 0.90615(11) 0.67614(13) 0.81815(12)
C58_5 C 0.59385(11) 0.31815(12) 0.82386(13)
C59_5 C 0.68185(12) 0.32386(13) 0.90615(11)
C60_3 C 0.60706(12) 0.34803(13) 0.68939(12)
C61_3 C 0.65197(13) 0.31061(12) 0.60706(12)
C62_4 C 0.84803(13) 0.60706(12) 0.68939(12)
C63_4 C 0.81061(12) 0.60706(12) 0.84803(13)
C64_5 C 0.65197(13) 0.39294(12) 0.81061(12)
C65_4 C 0.81061(12) 0.65197(13) 0.60706(12)
C66_4 C 0.89294(12) 0.65197(13) 0.81061(12)
C67_5 C 0.68939(12) 0.34803(13) 0.89294(12)
C68_4 C 0.89294(12) 0.68939(12) 0.65197(13)
C69_4 C 0.84803(13) 0.68939(12) 0.89294(12)
C70_5 C 0.60706(12) 0.31061(12) 0.84803(13)
C71_3 C 0.59749(13) 0.36197(13) 0.71214(13)
C72_3 C 0.63803(13) 0.28786(13) 0.59749(13)
C73_4 C 0.86197(13) 0.59749(13) 0.71214(13)
C74_4 C 0.78786(13) 0.59749(13) 0.86197(13)
C75_5 C 0.63803(13) 0.40251(13) 0.78786(13)
C76_4 C 0.78786(13) 0.63803(13) 0.59749(13)
C77_4 C 0.90251(13) 0.63803(13) 0.78786(13)
C78_5 C 0.71214(13) 0.36197(13) 0.90251(13)
C79_4 C 0.90251(13) 0.71214(13) 0.63803(13)
C80_4 C 0.86197(13) 0.71214(13) 0.90251(13)
C81_5 C 0.59749(13) 0.28786(13) 0.86197(13)
H25_3 H 0.6059 0.3784 0.7176
H26_3 H 0.6216 0.2824 0.6059
H27_4 H 0.8784 0.6059 0.7176
H28_4 H 0.7824 0.6059 0.8784
H29_5 H 0.6216 0.3941 0.7824
H30_4 H 0.7824 0.6216 0.6059
H31_4 H 0.8941 0.6216 0.7824
H32_5 H 0.7176 0.3784 0.8941
H33_4 H 0.8941 0.7176 0.6216
H34_4 H 0.8784 0.7176 0.8941
H35_5 H 0.6059 0.2824 0.8784
C82_4 C 0.85185(13) 0.57576(13) 0.72670(12)
C83_4 C 0.77330(12) 0.57576(13) 0.85185(13)
C84_5 C 0.64815(13) 0.42424(13) 0.77330(12)
C85_3 C 0.57576(13) 0.35185(13) 0.72670(12)
C86_3 C 0.64815(13) 0.27330(12) 0.57576(13)
C87_4 C 0.77330(12) 0.64815(13) 0.57576(13)
C88_4 C 0.92424(13) 0.64815(13) 0.77330(12)
C89_5 C 0.72670(12) 0.35185(13) 0.92424(13)
C90_4 C 0.92424(13) 0.72670(12) 0.64815(13)
C91_4 C 0.85185(13) 0.72670(12) 0.92424(13)
C92_5 C 0.57576(13) 0.27330(12) 0.85185(13)
H36_4 H 0.8617 0.5694 0.7420
H37_4 H 0.7580 0.5694 0.8617
H38_5 H 0.6383 0.4306 0.7580
H39_3 H 0.5694 0.3617 0.7420
H40_3 H 0.6383 0.2580 0.5694
H41_4 H 0.7580 0.6383 0.5694
H42_4 H 0.9306 0.6383 0.7580
H43_5 H 0.7420 0.3617 0.9306
H44_4 H 0.9306 0.7420 0.6383
H45_4 H 0.8617 0.7420 0.9306
H46_5 H 0.5694 0.2580 0.8617
C93_3 C 0.68874(13) 0.34336(14) 0.60558(12)
C94_3 C 0.60558(12) 0.31126(13) 0.65664(14)
C95_4 C 0.81126(13) 0.60558(12) 0.65664(14)
C96_4 C 0.84336(14) 0.60558(12) 0.81126(13)
C97_5 C 0.68874(13) 0.39442(12) 0.84336(14)
C98_4 C 0.89442(12) 0.65664(14) 0.68874(13)
C99_4 C 0.81126(13) 0.65664(14) 0.89442(12)
C100_5 C 0.60558(12) 0.34336(14) 0.81126(13)
C101_4 C 0.84336(14) 0.68874(13) 0.60558(12)
C102_4 C 0.89442(12) 0.68874(13) 0.84336(14)
C103_5 C 0.65664(14) 0.31126(13) 0.89442(12)
C104_3 C 0.66898(12) 0.34978(12) 0.62838(12)
C105_3 C 0.62838(12) 0.33102(12) 0.65022(12)
C106_4 C 0.83102(12) 0.62838(12) 0.65022(12)
C107_4 C 0.84978(12) 0.62838(12) 0.83102(12)
C108_5 C 0.66898(12) 0.37162(12) 0.84978(12)
C109_4 C 0.87162(12) 0.65022(12) 0.66898(12)
C110_4 C 0.83102(12) 0.65022(12) 0.87162(12)
C111_5 C 0.62838(12) 0.34978(12) 0.83102(12)
C112_4 C 0.84978(12) 0.66898(12) 0.62838(12)
C113_4 C 0.87162(12) 0.66898(12) 0.84978(12)
C114_5 C 0.65022(12) 0.33102(12) 0.87162(12)
C115_3 C 0.62949(12) 0.35239(12) 0.66967(12)
C116_3 C 0.64761(12) 0.33033(12) 0.62949(12)
C117_4 C 0.85239(12) 0.62949(12) 0.66967(12)
C118_4 C 0.83033(12) 0.62949(12) 0.85239(12)
C119_5 C 0.64761(12) 0.37051(12) 0.83033(12)
C120_4 C 0.83033(12) 0.64761(12) 0.62949(12)
C121_4 C 0.87051(12) 0.64761(12) 0.83033(12)
C122_5 C 0.66967(12) 0.35239(12) 0.87051(12)
C123_4 C 0.87051(12) 0.66967(12) 0.64761(12)
C124_4 C 0.85239(12) 0.66967(12) 0.87051(12)
C125_5 C 0.62949(12) 0.33033(12) 0.85239(12)
C126_3 C 0.68976(18) 0.36500(15) 0.58286(15)
C127_3 C 0.58286(15) 0.31024(18) 0.63500(15)
C128_4 C 0.81024(18) 0.58286(15) 0.63500(15)
C129_4 C 0.86500(15) 0.58286(15) 0.81024(18)
C130_5 C 0.68976(18) 0.41714(15) 0.86500(15)
C131_4 C 0.91714(15) 0.63500(15) 0.68976(18)
C132_4 C 0.81024(18) 0.63500(15) 0.91714(15)
C133_5 C 0.58286(15) 0.36500(15) 0.81024(18)
C134_4 C 0.86500(15) 0.68976(18) 0.58286(15)
C135_4 C 0.91714(15) 0.68976(18) 0.86500(15)
C136_5 C 0.63500(15) 0.31024(18) 0.91714(15)
H47_3 H 0.6983 0.3817 0.5901
H48_3 H 0.5901 0.3017 0.6183
H49_4 H 0.8017 0.5901 0.6183
H50_4 H 0.8817 0.5901 0.8017
H51_5 H 0.6983 0.4099 0.8817
H52_4 H 0.9099 0.6183 0.6983
H53_4 H 0.8017 0.6183 0.9099
H54_5 H 0.5901 0.3817 0.8017
H55_4 H 0.8817 0.6983 0.5901
H56_4 H 0.9099 0.6983 0.8817
H57_5 H 0.6183 0.3017 0.9099
H58_3 H 0.7013 0.3582 0.5679
H59_3 H 0.5679 0.2987 0.6418
H60_4 H 0.7987 0.5679 0.6418
H61_4 H 0.8582 0.5679 0.7987
H62_5 H 0.7013 0.4321 0.8582
H63_4 H 0.9321 0.6418 0.7013
H64_4 H 0.7987 0.6418 0.9321
H65_5 H 0.5679 0.3582 0.7987
H66_4 H 0.8582 0.7013 0.5679
H67_4 H 0.9321 0.7013 0.8582
H68_5 H 0.6418 0.2987 0.9321
C137_3 C 0.6616(2) 0.37233(19) 0.57131(19)
C138_3 C 0.57131(19) 0.3384(2) 0.62767(19)
C139_4 C 0.8384(2) 0.57131(19) 0.62767(19)
C140_4 C 0.87233(19) 0.57131(19) 0.8384(2)
C141_5 C 0.6616(2) 0.42869(19) 0.87233(19)
C142_4 C 0.92869(19) 0.62767(19) 0.6616(2)
C143_4 C 0.8384(2) 0.62767(19) 0.92869(19)
C144_5 C 0.57131(19) 0.37233(19) 0.8384(2)
C145_4 C 0.87233(19) 0.6616(2) 0.57131(19)
C146_4 C 0.92869(19) 0.6616(2) 0.87233(19)
C147_5 C 0.62767(19) 0.3384(2) 0.92869(19)
H69_3 H 0.6526 0.3558 0.5648
H70_3 H 0.5648 0.3474 0.6442
H71_4 H 0.8474 0.5648 0.6442
H72_4 H 0.8558 0.5648 0.8474
H73_5 H 0.6526 0.4352 0.8558
H74_4 H 0.9352 0.6442 0.6526
H75_4 H 0.8474 0.6442 0.9352
H76_5 H 0.5648 0.3558 0.8474
H77_4 H 0.8558 0.6526 0.5648
H78_4 H 0.9352 0.6526 0.8558
H79_5 H 0.6442 0.3474 0.9352
H80_3 H 0.6637 0.3851 0.5562
H81_3 H 0.5562 0.3363 0.6149
H82_4 H 0.8363 0.5562 0.6149
H83_4 H 0.8851 0.5562 0.8363
H84_5 H 0.6637 0.4438 0.8851
H85_4 H 0.9438 0.6149 0.6637
H86_4 H 0.8363 0.6149 0.9438
H87_5 H 0.5562 0.3851 0.8363
H88_4 H 0.8851 0.6637 0.5562
H89_4 H 0.9438 0.6637 0.8851
H90_5 H 0.6149 0.3363 0.9438
H91_3 H 0.6505 0.3807 0.5856
H92_3 H 0.5856 0.3495 0.6193
H93_4 H 0.8495 0.5856 0.6193
H94_4 H 0.8807 0.5856 0.8495
H95_5 H 0.6505 0.4144 0.8807
H96_4 H 0.9144 0.6193 0.6505
H97_4 H 0.8495 0.6193 0.9144
H98_5 H 0.5856 0.3807 0.8495
H99_4 H 0.8807 0.6505 0.5856
H100_4 H 0.9144 0.6505 0.8807
H101_5 H 0.6193 0.3495 0.9144
C148_3 C 0.71744(14) 0.33601(15) 0.61651(15)
C149_3 C 0.61651(15) 0.28256(14) 0.66399(15)
C150_4 C 0.78256(14) 0.61651(15) 0.66399(15)
C151_4 C 0.83601(15) 0.61651(15) 0.78256(14)
C152_5 C 0.71744(14) 0.38349(15) 0.83601(15)
C153_4 C 0.88349(15) 0.66399(15) 0.71744(14)
C154_4 C 0.78256(14) 0.66399(15) 0.88349(15)
C155_5 C 0.61651(15) 0.33601(15) 0.78256(14)
C156_4 C 0.83601(15) 0.71744(14) 0.61651(15)
C157_4 C 0.88349(15) 0.71744(14) 0.83601(15)
C158_5 C 0.66399(15) 0.28256(14) 0.88349(15)
H102_3 H 0.7286 0.3293 0.6012
H103_3 H 0.6012 0.2714 0.6707
H104_4 H 0.7714 0.6012 0.6707
H105_4 H 0.8293 0.6012 0.7714
H106_5 H 0.7286 0.3988 0.8293
H107_4 H 0.8988 0.6707 0.7286
H108_4 H 0.7714 0.6707 0.8988
H109_5 H 0.6012 0.3293 0.7714
H110_4 H 0.8293 0.7286 0.6012
H111_4 H 0.8988 0.7286 0.8293
H112_5 H 0.6707 0.2714 0.8988
H113_3 H 0.7261 0.3528 0.6235
H114_3 H 0.6235 0.2739 0.6472
H115_4 H 0.7739 0.6235 0.6472
H116_4 H 0.8528 0.6235 0.7739
H117_5 H 0.7261 0.3765 0.8528
H118_4 H 0.8765 0.6472 0.7261
H119_4 H 0.7739 0.6472 0.8765
H120_5 H 0.6235 0.3528 0.7739
H121_4 H 0.8528 0.7261 0.6235
H122_4 H 0.8765 0.7261 0.8528
H123_5 H 0.6472 0.2739 0.8765
C159_3 C 0.71783(17) 0.3149(2) 0.63871(18)
C160_3 C 0.63871(18) 0.28217(17) 0.6851(2)
C161_4 C 0.78217(17) 0.63871(18) 0.6851(2)
C162_4 C 0.8149(2) 0.63871(18) 0.78217(17)
C163_5 C 0.71783(17) 0.36129(18) 0.8149(2)
C164_4 C 0.86129(18) 0.6851(2) 0.71783(17)
C165_4 C 0.78217(17) 0.6851(2) 0.86129(18)
C166_5 C 0.63871(18) 0.3149(2) 0.78217(17)
C167_4 C 0.8149(2) 0.71783(17) 0.63871(18)
C168_4 C 0.86129(18) 0.71783(17) 0.8149(2)
C169_5 C 0.6851(2) 0.28217(17) 0.86129(18)
H124_3 H 0.7097 0.3225 0.6552
H125_3 H 0.6552 0.2903 0.6775
H126_4 H 0.7903 0.6552 0.6775
H127_4 H 0.8225 0.6552 0.7903
H128_5 H 0.7097 0.3448 0.8225
H129_4 H 0.8448 0.6775 0.7097
H130_4 H 0.7903 0.6775 0.8448
H131_5 H 0.6552 0.3225 0.7903
H132_4 H 0.8225 0.7097 0.6552
H133_4 H 0.8448 0.7097 0.8225
H134_5 H 0.6775 0.2903 0.8448
H135_3 H 0.7366 0.3096 0.6425
H136_3 H 0.6425 0.2634 0.6904
H137_4 H 0.7634 0.6425 0.6904
H138_4 H 0.8096 0.6425 0.7634
H139_5 H 0.7366 0.3575 0.8096
H140_4 H 0.8575 0.6904 0.7366
H141_4 H 0.7634 0.6904 0.8575
H142_5 H 0.6425 0.3096 0.7634
H143_4 H 0.8096 0.7366 0.6425
H144_4 H 0.8575 0.7366 0.8096
H145_5 H 0.6904 0.2634 0.8575
H146_3 H 0.7075 0.2990 0.6329
H147_3 H 0.6329 0.2925 0.7010
H148_4 H 0.7925 0.6329 0.7010
H149_4 H 0.7990 0.6329 0.7925
H150_5 H 0.7075 0.3671 0.7990
H151_4 H 0.8671 0.7010 0.7075
H152_4 H 0.7925 0.7010 0.8671
H153_5 H 0.6329 0.2990 0.7925
H154_4 H 0.7990 0.7075 0.6329
H155_4 H 0.8671 0.7075 0.7990
H156_5 H 0.7010 0.2925 0.8671
O35_8 O 0.6760(3) 0.5000 0.6950(3)
O36_8 O 0.8240(3) 0.5000 0.8050(3)
O37_8 O 0.6950(3) 0.5000 0.8240(3)
C170_8 C 0.6906(9) 0.5000 0.6707(9)
C171_8 C 0.6707(9) 0.5000 0.8094(9)
C172_8 C 0.8094(9) 0.5000 0.8293(9)
H157_5 H 0.703326 0.481952 0.669751
H158_8 H 0.676531 0.5 0.653651
H159_5 H 0.703326 0.518048 0.669751
H160_5 H 0.669751 0.481952 0.796674
H161_8 H 0.653651 0.5 0.823469
H162_5 H 0.669751 0.518048 0.796674
H163_5 H 0.796674 0.481952 0.830249
H164_8 H 0.823469 0.5 0.846349
H165_5 H 0.796674 0.518048 0.830249
H166_5 H 0.830249 0.481952 0.703326
H167_8 H 0.846349 0.5 0.676531
H168_5 H 0.830249 0.518048 0.703326
Dy17_6 Dy 0.23209(3) 0.70933(3) 0.0000
Dy18_8 Dy 0.29067(3) 0.73209(3) 0.0000
Dy1_4 Dy 0.23209(3) 0.5000 0.70933(3)
O1_4 O 0.27057(12) 0.52988(13) 0.70625(15)
O2_4 O 0.24205(10) 0.53384(9) 0.67263(9)
O3_9 O 0.2500 0.5000 0.7500
C1_4 C 0.26343(14) 0.54071(12) 0.68309(14)
C2_4 C 0.28031(12) 0.56307(12) 0.67216(13)
C3_4 C 0.30305(12) 0.57203(12) 0.68653(13)
H1_4 H 0.3082 0.5635 0.7030
C4_4 C 0.31815(12) 0.59385(11) 0.67614(13)
C5_4 C 0.31061(12) 0.60706(12) 0.65197(13)
C6_4 C 0.28786(13) 0.59749(13) 0.63803(13)
H2_4 H 0.2824 0.6059 0.6216
C7_4 C 0.27330(12) 0.57576(13) 0.64815(13)
H3_4 H 0.2580 0.5694 0.6383
C8_4 C 0.34336(14) 0.60558(12) 0.68874(13)
C9_4 C 0.34978(12) 0.62838(12) 0.66898(12)
C10_4 C 0.33033(12) 0.62949(12) 0.64761(12)
C11_4 C 0.36500(15) 0.58286(15) 0.68976(18)
H4_4 H 0.3817 0.5901 0.6983
H5_4 H 0.3582 0.5679 0.7013
C12_4 C 0.37233(19) 0.57131(19) 0.6616(2)
H6_4 H 0.3558 0.5648 0.6526
H7_4 H 0.3851 0.5562 0.6637
H8_4 H 0.3807 0.5856 0.6505
C13_4 C 0.33601(15) 0.61651(15) 0.71744(14)
H9_4 H 0.3293 0.6012 0.7286
H10_4 H 0.3528 0.6235 0.7261
C14_4 C 0.3149(2) 0.63871(18) 0.71783(17)
H11_4 H 0.3225 0.6552 0.7097
H12_4 H 0.3096 0.6425 0.7366
H13_4 H 0.2990 0.6329 0.7075
O4_9 O 0.1950(3) 0.5000 0.6760(3)
C15_9 C 0.1707(9) 0.5000 0.6906(9)
Dy3_4 Dy 0.20933(3) 0.5000 0.76791(3)
Dy5_4 Dy 0.5000 0.70933(3) 0.76791(3)
Dy6_4 Dy 0.5000 0.73209(3) 0.70933(3)
Dy8_4 Dy 0.26791(3) 0.70933(3) 0.5000
Dy9_6 Dy -0.0000 0.23209(3) 0.70933(3)
Dy10_6 Dy -0.0000 0.29067(3) 0.73209(3)
Dy11_7 Dy 0.26791(3) 0.29067(3) 0.5000
Dy15_6 Dy -0.0000 0.26791(3) 0.79067(3)
Dy16_6 Dy 0.5000 0.76791(3) 0.79067(3)
Dy17_7 Dy 0.23209(3) 0.70933(3) 1.0000
Dy18_9 Dy 0.29067(3) 0.73209(3) 1.0000
O5_4 O 0.20625(15) 0.52988(13) 0.72943(12)
O6_6 O 0.27057(12) 0.47012(13) 0.70625(15)
O7_5 O 0.20625(15) 0.47012(13) 0.72943(12)
O8_6 O 0.29375(15) 0.52988(13) 0.77057(12)
O10_5 O 0.22943(12) 0.47012(13) 0.79375(15)
O11_6 O 0.22943(12) 0.52988(13) 0.79375(15)
O12_4 O 0.47012(13) 0.70625(15) 0.72943(12)
O13_4 O 0.29375(15) 0.72943(12) 0.52988(13)
O14_5 O 0.02988(13) 0.27057(12) 0.70625(15)
O15_5 O 0.22943(12) 0.29375(15) 0.52988(13)
O17_5 O 0.02988(13) 0.29375(15) 0.77057(12)
O18_5 O 0.47012(13) 0.72943(12) 0.79375(15)
O19_6 O 0.27057(12) 0.70625(15) 0.97012(13)
O20_6 O 0.24205(10) 0.46616(9) 0.67263(9)
O21_6 O 0.32737(9) 0.53384(9) 0.74205(10)
O23_4 O 0.17263(9) 0.53384(9) 0.75795(10)
O24_5 O 0.17263(9) 0.46616(9) 0.75795(10)
O25_5 O 0.25795(10) 0.46616(9) 0.82737(9)
O26_6 O 0.25795(10) 0.53384(9) 0.82737(9)
O27_4 O 0.46616(9) 0.67263(9) 0.75795(10)
O28_4 O 0.32737(9) 0.75795(10) 0.53384(9)
O29_5 O 0.03384(9) 0.24205(10) 0.67263(9)
O30_5 O 0.25795(10) 0.32737(9) 0.53384(9)
O32_5 O 0.03384(9) 0.32737(9) 0.74205(10)
O33_5 O 0.46616(9) 0.75795(10) 0.82737(9)
O34_6 O 0.24205(10) 0.67263(9) 0.96616(9)
C16_5 C 0.18309(14) 0.45929(12) 0.73657(14)
C17_5 C 0.23657(14) 0.45929(12) 0.81691(14)
C18_6 C 0.31691(14) 0.54071(12) 0.76343(14)
C19_4 C 0.45929(12) 0.68309(14) 0.73657(14)
C20_4 C 0.31691(14) 0.73657(14) 0.54071(12)
C21_5 C 0.04071(12) 0.26343(14) 0.68309(14)
C22_5 C 0.23657(14) 0.31691(14) 0.54071(12)
C23_5 C 0.18309(14) 0.26343(14) 0.95929(12)
C24_5 C 0.04071(12) 0.31691(14) 0.76343(14)
C25_6 C 0.45929(12) 0.73657(14) 0.81691(14)
C26_6 C 0.26343(14) 0.68309(14) 0.95929(12)
C27_5 C 0.17216(13) 0.43693(12) 0.71969(12)
C28_5 C 0.21969(12) 0.43693(12) 0.82784(13)
C29_6 C 0.32784(13) 0.56307(12) 0.78031(12)
C30_4 C 0.43693(12) 0.67216(13) 0.71969(12)
C31_4 C 0.32784(13) 0.71969(12) 0.56307(12)
C32_5 C 0.06307(12) 0.28031(12) 0.67216(13)
C33_5 C 0.21969(12) 0.32784(13) 0.56307(12)
C34_5 C 0.17216(13) 0.28031(12) 0.93693(12)
C35_5 C 0.06307(12) 0.32784(13) 0.78031(12)
C36_6 C 0.43693(12) 0.71969(12) 0.82784(13)
C37_6 C 0.28031(12) 0.67216(13) 0.93693(12)
C38_5 C 0.18653(13) 0.42797(12) 0.69695(12)
C39_5 C 0.19695(12) 0.42797(12) 0.81347(13)
C40_6 C 0.31347(13) 0.57203(12) 0.80305(12)
C41_4 C 0.42797(12) 0.68653(13) 0.69695(12)
C42_4 C 0.31347(13) 0.69695(12) 0.57203(12)
C43_5 C 0.07203(12) 0.30305(12) 0.68653(13)
C44_5 C 0.19695(12) 0.31347(13) 0.57203(12)
C45_5 C 0.18653(13) 0.30305(12) 0.92797(12)
C46_5 C 0.07203(12) 0.31347(13) 0.80305(12)
C47_6 C 0.42797(12) 0.69695(12) 0.81347(13)
C48_6 C 0.30305(12) 0.68653(13) 0.92797(12)
H14_5 H 0.2030 0.4365 0.6918
H15_5 H 0.1918 0.4365 0.7970
H16_6 H 0.2970 0.5635 0.8082
H17_4 H 0.4365 0.7030 0.6918
H18_4 H 0.2970 0.6918 0.5635
H19_5 H 0.0635 0.3082 0.7030
H20_5 H 0.1918 0.2970 0.5635
H21_5 H 0.2030 0.3082 0.9365
H22_5 H 0.0635 0.2970 0.8082
H23_6 H 0.4365 0.6918 0.7970
H24_6 H 0.3082 0.7030 0.9365
C49_4 C 0.40615(11) 0.67614(13) 0.68185(12)
C50_4 C 0.32386(13) 0.68185(12) 0.59385(11)
C51_5 C 0.17614(13) 0.40615(11) 0.68185(12)
C52_5 C 0.18185(12) 0.40615(11) 0.82386(13)
C53_6 C 0.32386(13) 0.59385(11) 0.81815(12)
C54_5 C 0.09385(11) 0.31815(12) 0.67614(13)
C55_5 C 0.18185(12) 0.32386(13) 0.59385(11)
C56_5 C 0.17614(13) 0.31815(12) 0.90615(11)
C57_5 C 0.09385(11) 0.32386(13) 0.81815(12)
C58_6 C 0.40615(11) 0.68185(12) 0.82386(13)
C59_6 C 0.31815(12) 0.67614(13) 0.90615(11)
C60_4 C 0.39294(12) 0.65197(13) 0.68939(12)
C61_4 C 0.34803(13) 0.68939(12) 0.60706(12)
C62_5 C 0.15197(13) 0.39294(12) 0.68939(12)
C63_5 C 0.18939(12) 0.39294(12) 0.84803(13)
C64_6 C 0.34803(13) 0.60706(12) 0.81061(12)
C65_5 C 0.18939(12) 0.34803(13) 0.60706(12)
C66_5 C 0.10706(12) 0.34803(13) 0.81061(12)
C67_6 C 0.31061(12) 0.65197(13) 0.89294(12)
C68_5 C 0.10706(12) 0.31061(12) 0.65197(13)
C69_5 C 0.15197(13) 0.31061(12) 0.89294(12)
C70_6 C 0.39294(12) 0.68939(12) 0.84803(13)
C71_4 C 0.40251(13) 0.63803(13) 0.71214(13)
C72_4 C 0.36197(13) 0.71214(13) 0.59749(13)
C73_5 C 0.13803(13) 0.40251(13) 0.71214(13)
C74_5 C 0.21214(13) 0.40251(13) 0.86197(13)
C75_6 C 0.36197(13) 0.59749(13) 0.78786(13)
C76_5 C 0.21214(13) 0.36197(13) 0.59749(13)
C77_5 C 0.09749(13) 0.36197(13) 0.78786(13)
C78_6 C 0.28786(13) 0.63803(13) 0.90251(13)
C79_5 C 0.09749(13) 0.28786(13) 0.63803(13)
C80_5 C 0.13803(13) 0.28786(13) 0.90251(13)
C81_6 C 0.40251(13) 0.71214(13) 0.86197(13)
H25_4 H 0.3941 0.6216 0.7176
H26_4 H 0.3784 0.7176 0.6059
H27_5 H 0.1216 0.3941 0.7176
H28_5 H 0.2176 0.3941 0.8784
H29_6 H 0.3784 0.6059 0.7824
H30_5 H 0.2176 0.3784 0.6059
H31_5 H 0.1059 0.3784 0.7824
H32_6 H 0.2824 0.6216 0.8941
H33_5 H 0.1059 0.2824 0.6216
H34_5 H 0.1216 0.2824 0.8941
H35_6 H 0.3941 0.7176 0.8784
C82_5 C 0.14815(13) 0.42424(13) 0.72670(12)
C83_5 C 0.22670(12) 0.42424(13) 0.85185(13)
C84_6 C 0.35185(13) 0.57576(13) 0.77330(12)
C85_4 C 0.42424(13) 0.64815(13) 0.72670(12)
C86_4 C 0.35185(13) 0.72670(12) 0.57576(13)
C87_5 C 0.22670(12) 0.35185(13) 0.57576(13)
C88_5 C 0.07576(13) 0.35185(13) 0.77330(12)
C89_6 C 0.27330(12) 0.64815(13) 0.92424(13)
C90_5 C 0.07576(13) 0.27330(12) 0.64815(13)
C91_5 C 0.14815(13) 0.27330(12) 0.92424(13)
C92_6 C 0.42424(13) 0.72670(12) 0.85185(13)
H36_5 H 0.1383 0.4306 0.7420
H37_5 H 0.2420 0.4306 0.8617
H38_6 H 0.3617 0.5694 0.7580
H39_4 H 0.4306 0.6383 0.7420
H40_4 H 0.3617 0.7420 0.5694
H41_5 H 0.2420 0.3617 0.5694
H42_5 H 0.0694 0.3617 0.7580
H43_6 H 0.2580 0.6383 0.9306
H44_5 H 0.0694 0.2580 0.6383
H45_5 H 0.1383 0.2580 0.9306
H46_6 H 0.4306 0.7420 0.8617
C93_4 C 0.31126(13) 0.65664(14) 0.60558(12)
C94_4 C 0.39442(12) 0.68874(13) 0.65664(14)
C95_5 C 0.18874(13) 0.39442(12) 0.65664(14)
C96_5 C 0.15664(14) 0.39442(12) 0.81126(13)
C97_6 C 0.31126(13) 0.60558(12) 0.84336(14)
C98_5 C 0.10558(12) 0.34336(14) 0.68874(13)
C99_5 C 0.18874(13) 0.34336(14) 0.89442(12)
C100_6 C 0.39442(12) 0.65664(14) 0.81126(13)
C101_5 C 0.15664(14) 0.31126(13) 0.60558(12)
C102_5 C 0.10558(12) 0.31126(13) 0.84336(14)
C103_6 C 0.34336(14) 0.68874(13) 0.89442(12)
C104_4 C 0.33102(12) 0.65022(12) 0.62838(12)
C105_4 C 0.37162(12) 0.66898(12) 0.65022(12)
C106_5 C 0.16898(12) 0.37162(12) 0.65022(12)
C107_5 C 0.15022(12) 0.37162(12) 0.83102(12)
C108_6 C 0.33102(12) 0.62838(12) 0.84978(12)
C109_5 C 0.12838(12) 0.34978(12) 0.66898(12)
C110_5 C 0.16898(12) 0.34978(12) 0.87162(12)
C111_6 C 0.37162(12) 0.65022(12) 0.83102(12)
C112_5 C 0.15022(12) 0.33102(12) 0.62838(12)
C113_5 C 0.12838(12) 0.33102(12) 0.84978(12)
C114_6 C 0.34978(12) 0.66898(12) 0.87162(12)
C115_4 C 0.37051(12) 0.64761(12) 0.66967(12)
C116_4 C 0.35239(12) 0.66967(12) 0.62949(12)
C117_5 C 0.14761(12) 0.37051(12) 0.66967(12)
C118_5 C 0.16967(12) 0.37051(12) 0.85239(12)
C119_6 C 0.35239(12) 0.62949(12) 0.83033(12)
C120_5 C 0.16967(12) 0.35239(12) 0.62949(12)
C121_5 C 0.12949(12) 0.35239(12) 0.83033(12)
C122_6 C 0.33033(12) 0.64761(12) 0.87051(12)
C123_5 C 0.12949(12) 0.33033(12) 0.64761(12)
C124_5 C 0.14761(12) 0.33033(12) 0.87051(12)
C125_6 C 0.37051(12) 0.66967(12) 0.85239(12)
C126_4 C 0.31024(18) 0.63500(15) 0.58286(15)
C127_4 C 0.41714(15) 0.68976(18) 0.63500(15)
C128_5 C 0.18976(18) 0.41714(15) 0.63500(15)
C129_5 C 0.13500(15) 0.41714(15) 0.81024(18)
C130_6 C 0.31024(18) 0.58286(15) 0.86500(15)
C131_5 C 0.08286(15) 0.36500(15) 0.68976(18)
C132_5 C 0.18976(18) 0.36500(15) 0.91714(15)
C133_6 C 0.41714(15) 0.63500(15) 0.81024(18)
C134_5 C 0.13500(15) 0.31024(18) 0.58286(15)
C135_5 C 0.08286(15) 0.31024(18) 0.86500(15)
C136_6 C 0.36500(15) 0.68976(18) 0.91714(15)
H47_4 H 0.3017 0.6183 0.5901
H48_4 H 0.4099 0.6983 0.6183
H49_5 H 0.1983 0.4099 0.6183
H50_5 H 0.1183 0.4099 0.8017
H51_6 H 0.3017 0.5901 0.8817
H52_5 H 0.0901 0.3817 0.6983
H53_5 H 0.1983 0.3817 0.9099
H54_6 H 0.4099 0.6183 0.8017
H55_5 H 0.1183 0.3017 0.5901
H56_5 H 0.0901 0.3017 0.8817
H57_6 H 0.3817 0.6983 0.9099
H58_4 H 0.2987 0.6418 0.5679
H59_4 H 0.4321 0.7013 0.6418
H60_5 H 0.2013 0.4321 0.6418
H61_5 H 0.1418 0.4321 0.7987
H62_6 H 0.2987 0.5679 0.8582
H63_5 H 0.0679 0.3582 0.7013
H64_5 H 0.2013 0.3582 0.9321
H65_6 H 0.4321 0.6418 0.7987
H66_5 H 0.1418 0.2987 0.5679
H67_5 H 0.0679 0.2987 0.8582
H68_6 H 0.3582 0.7013 0.9321
C137_4 C 0.3384(2) 0.62767(19) 0.57131(19)
C138_4 C 0.42869(19) 0.6616(2) 0.62767(19)
C139_5 C 0.1616(2) 0.42869(19) 0.62767(19)
C140_5 C 0.12767(19) 0.42869(19) 0.8384(2)
C141_6 C 0.3384(2) 0.57131(19) 0.87233(19)
C142_5 C 0.07131(19) 0.37233(19) 0.6616(2)
C143_5 C 0.1616(2) 0.37233(19) 0.92869(19)
C144_6 C 0.42869(19) 0.62767(19) 0.8384(2)
C145_5 C 0.12767(19) 0.3384(2) 0.57131(19)
C146_5 C 0.07131(19) 0.3384(2) 0.87233(19)
C147_6 C 0.37233(19) 0.6616(2) 0.92869(19)
H69_4 H 0.3474 0.6442 0.5648
H70_4 H 0.4352 0.6526 0.6442
H71_5 H 0.1526 0.4352 0.6442
H72_5 H 0.1442 0.4352 0.8474
H73_6 H 0.3474 0.5648 0.8558
H74_5 H 0.0648 0.3558 0.6526
H75_5 H 0.1526 0.3558 0.9352
H76_6 H 0.4352 0.6442 0.8474
H77_5 H 0.1442 0.3474 0.5648
H78_5 H 0.0648 0.3474 0.8558
H79_6 H 0.3558 0.6526 0.9352
H80_4 H 0.3363 0.6149 0.5562
H81_4 H 0.4438 0.6637 0.6149
H82_5 H 0.1637 0.4438 0.6149
H83_5 H 0.1149 0.4438 0.8363
H84_6 H 0.3363 0.5562 0.8851
H85_5 H 0.0562 0.3851 0.6637
H86_5 H 0.1637 0.3851 0.9438
H87_6 H 0.4438 0.6149 0.8363
H88_5 H 0.1149 0.3363 0.5562
H89_5 H 0.0562 0.3363 0.8851
H90_6 H 0.3851 0.6637 0.9438
H91_4 H 0.3495 0.6193 0.5856
H92_4 H 0.4144 0.6505 0.6193
H93_5 H 0.1505 0.4144 0.6193
H94_5 H 0.1193 0.4144 0.8495
H95_6 H 0.3495 0.5856 0.8807
H96_5 H 0.0856 0.3807 0.6505
H97_5 H 0.1505 0.3807 0.9144
H98_6 H 0.4144 0.6193 0.8495
H99_5 H 0.1193 0.3495 0.5856
H100_5 H 0.0856 0.3495 0.8807
H101_6 H 0.3807 0.6505 0.9144
C148_4 C 0.28256(14) 0.66399(15) 0.61651(15)
C149_4 C 0.38349(15) 0.71744(14) 0.66399(15)
C150_5 C 0.21744(14) 0.38349(15) 0.66399(15)
C151_5 C 0.16399(15) 0.38349(15) 0.78256(14)
C152_6 C 0.28256(14) 0.61651(15) 0.83601(15)
C153_5 C 0.11651(15) 0.33601(15) 0.71744(14)
C154_5 C 0.21744(14) 0.33601(15) 0.88349(15)
C155_6 C 0.38349(15) 0.66399(15) 0.78256(14)
C156_5 C 0.16399(15) 0.28256(14) 0.61651(15)
C157_5 C 0.11651(15) 0.28256(14) 0.83601(15)
C158_6 C 0.33601(15) 0.71744(14) 0.88349(15)
H102_4 H 0.2714 0.6707 0.6012
H103_4 H 0.3988 0.7286 0.6707
H104_5 H 0.2286 0.3988 0.6707
H105_5 H 0.1707 0.3988 0.7714
H106_6 H 0.2714 0.6012 0.8293
H107_5 H 0.1012 0.3293 0.7286
H108_5 H 0.2286 0.3293 0.8988
H109_6 H 0.3988 0.6707 0.7714
H110_5 H 0.1707 0.2714 0.6012
H111_5 H 0.1012 0.2714 0.8293
H112_6 H 0.3293 0.7286 0.8988
H113_4 H 0.2739 0.6472 0.6235
H114_4 H 0.3765 0.7261 0.6472
H115_5 H 0.2261 0.3765 0.6472
H116_5 H 0.1472 0.3765 0.7739
H117_6 H 0.2739 0.6235 0.8528
H118_5 H 0.1235 0.3528 0.7261
H119_5 H 0.2261 0.3528 0.8765
H120_6 H 0.3765 0.6472 0.7739
H121_5 H 0.1472 0.2739 0.6235
H122_5 H 0.1235 0.2739 0.8528
H123_6 H 0.3528 0.7261 0.8765
C159_4 C 0.28217(17) 0.6851(2) 0.63871(18)
C160_4 C 0.36129(18) 0.71783(17) 0.6851(2)
C161_5 C 0.21783(17) 0.36129(18) 0.6851(2)
C162_5 C 0.1851(2) 0.36129(18) 0.78217(17)
C163_6 C 0.28217(17) 0.63871(18) 0.8149(2)
C164_5 C 0.13871(18) 0.3149(2) 0.71783(17)
C165_5 C 0.21783(17) 0.3149(2) 0.86129(18)
C166_6 C 0.36129(18) 0.6851(2) 0.78217(17)
C167_5 C 0.1851(2) 0.28217(17) 0.63871(18)
C168_5 C 0.13871(18) 0.28217(17) 0.8149(2)
C169_6 C 0.3149(2) 0.71783(17) 0.86129(18)
H124_4 H 0.2903 0.6775 0.6552
H125_4 H 0.3448 0.7097 0.6775
H126_5 H 0.2097 0.3448 0.6775
H127_5 H 0.1775 0.3448 0.7903
H128_6 H 0.2903 0.6552 0.8225
H129_5 H 0.1552 0.3225 0.7097
H130_5 H 0.2097 0.3225 0.8448
H131_6 H 0.3448 0.6775 0.7903
H132_5 H 0.1775 0.2903 0.6552
H133_5 H 0.1552 0.2903 0.8225
H134_6 H 0.3225 0.7097 0.8448
H135_4 H 0.2634 0.6904 0.6425
H136_4 H 0.3575 0.7366 0.6904
H137_5 H 0.2366 0.3575 0.6904
H138_5 H 0.1904 0.3575 0.7634
H139_6 H 0.2634 0.6425 0.8096
H140_5 H 0.1425 0.3096 0.7366
H141_5 H 0.2366 0.3096 0.8575
H142_6 H 0.3575 0.6904 0.7634
H143_5 H 0.1904 0.2634 0.6425
H144_5 H 0.1425 0.2634 0.8096
H145_6 H 0.3096 0.7366 0.8575
H146_4 H 0.2925 0.7010 0.6329
H147_4 H 0.3671 0.7075 0.7010
H148_5 H 0.2075 0.3671 0.7010
H149_5 H 0.2010 0.3671 0.7925
H150_6 H 0.2925 0.6329 0.7990
H151_5 H 0.1329 0.2990 0.7075
H152_5 H 0.2075 0.2990 0.8671
H153_6 H 0.3671 0.7010 0.7925
H154_5 H 0.2010 0.2925 0.6329
H155_5 H 0.1329 0.2925 0.7990
H156_6 H 0.2990 0.7075 0.8671
O35_9 O 0.3240(3) 0.5000 0.6950(3)
O36_9 O 0.1760(3) 0.5000 0.8050(3)
O37_9 O 0.3050(3) 0.5000 0.8240(3)
C170_9 C 0.3094(9) 0.5000 0.6707(9)
C171_9 C 0.3293(9) 0.5000 0.8094(9)
C172_9 C 0.1906(9) 0.5000 0.8293(9)
H157_6 H 0.296674 0.518048 0.669751
H158_9 H 0.323469 0.5 0.653651
H159_6 H 0.296674 0.481952 0.669751
H160_6 H 0.330249 0.518048 0.796674
H161_9 H 0.346349 0.5 0.823469
H162_6 H 0.330249 0.481952 0.796674
H163_6 H 0.203326 0.518048 0.830249
H164_9 H 0.176531 0.5 0.846349
H165_6 H 0.203326 0.481952 0.830249
H166_6 H 0.169751 0.518048 0.703326
H167_9 H 0.153651 0.5 0.676531
H168_6 H 0.169751 0.481952 0.703326
Dy9_7 Dy 1.0000 0.23209(3) 0.70933(3)
Dy10_7 Dy 1.0000 0.29067(3) 0.73209(3)
Dy15_7 Dy 1.0000 0.26791(3) 0.79067(3)
Dy17_8 Dy 0.70933(3) 0.0000 0.23209(3)
Dy18_10 Dy 0.73209(3) -0.0000 0.29067(3)
O3_10 O 0.5000 0.7500 0.2500
O4_10 O 0.5000 0.6760(3) 0.1950(3)
C15_10 C 0.5000 0.6906(9) 0.1707(9)
Dy11_8 Dy 0.29067(3) 0.5000 0.26791(3)
Dy15_8 Dy 0.26791(3) 0.79067(3) 0.0000
Dy16_7 Dy 0.76791(3) 0.79067(3) 0.5000
Dy17_9 Dy 0.70933(3) 1.0000 0.23209(3)
Dy18_11 Dy 0.73209(3) 1.0000 0.29067(3)
O6_7 O 0.47012(13) 0.70625(15) 0.27057(12)
O7_6 O 0.47012(13) 0.72943(12) 0.20625(15)
O8_7 O 0.52988(13) 0.77057(12) 0.29375(15)
O10_6 O 0.47012(13) 0.79375(15) 0.22943(12)
O11_7 O 0.52988(13) 0.79375(15) 0.22943(12)
O14_6 O 0.27057(12) 0.70625(15) 0.02988(13)
O15_6 O 0.29375(15) 0.52988(13) 0.22943(12)
O17_6 O 0.29375(15) 0.77057(12) 0.02988(13)
O18_6 O 0.72943(12) 0.79375(15) 0.47012(13)
O19_7 O 0.70625(15) 0.97012(13) 0.27057(12)
O20_7 O 0.46616(9) 0.67263(9) 0.24205(10)
O21_7 O 0.53384(9) 0.74205(10) 0.32737(9)
O24_6 O 0.46616(9) 0.75795(10) 0.17263(9)
O25_6 O 0.46616(9) 0.82737(9) 0.25795(10)
O26_7 O 0.53384(9) 0.82737(9) 0.25795(10)
O29_6 O 0.24205(10) 0.67263(9) 0.03384(9)
O30_6 O 0.32737(9) 0.53384(9) 0.25795(10)
O32_6 O 0.32737(9) 0.74205(10) 0.03384(9)
O33_6 O 0.75795(10) 0.82737(9) 0.46616(9)
O34_7 O 0.67263(9) 0.96616(9) 0.24205(10)
C16_6 C 0.45929(12) 0.73657(14) 0.18309(14)
C17_6 C 0.45929(12) 0.81691(14) 0.23657(14)
C18_7 C 0.54071(12) 0.76343(14) 0.31691(14)
C21_6 C 0.26343(14) 0.68309(14) 0.04071(12)
C22_6 C 0.31691(14) 0.54071(12) 0.23657(14)
C23_6 C 0.26343(14) 0.95929(12) 0.18309(14)
C24_6 C 0.31691(14) 0.76343(14) 0.04071(12)
C25_7 C 0.73657(14) 0.81691(14) 0.45929(12)
C26_7 C 0.68309(14) 0.95929(12) 0.26343(14)
C27_6 C 0.43693(12) 0.71969(12) 0.17216(13)
C28_6 C 0.43693(12) 0.82784(13) 0.21969(12)
C29_7 C 0.56307(12) 0.78031(12) 0.32784(13)
C32_6 C 0.28031(12) 0.67216(13) 0.06307(12)
C33_6 C 0.32784(13) 0.56307(12) 0.21969(12)
C34_6 C 0.28031(12) 0.93693(12) 0.17216(13)
C35_6 C 0.32784(13) 0.78031(12) 0.06307(12)
C36_7 C 0.71969(12) 0.82784(13) 0.43693(12)
C37_7 C 0.67216(13) 0.93693(12) 0.28031(12)
C38_6 C 0.42797(12) 0.69695(12) 0.18653(13)
C39_6 C 0.42797(12) 0.81347(13) 0.19695(12)
C40_7 C 0.57203(12) 0.80305(12) 0.31347(13)
C43_6 C 0.30305(12) 0.68653(13) 0.07203(12)
C44_6 C 0.31347(13) 0.57203(12) 0.19695(12)
C45_6 C 0.30305(12) 0.92797(12) 0.18653(13)
C46_6 C 0.31347(13) 0.80305(12) 0.07203(12)
C47_7 C 0.69695(12) 0.81347(13) 0.42797(12)
C48_7 C 0.68653(13) 0.92797(12) 0.30305(12)
H14_6 H 0.4365 0.6918 0.2030
H15_6 H 0.4365 0.7970 0.1918
H16_7 H 0.5635 0.8082 0.2970
H19_6 H 0.3082 0.7030 0.0635
H20_6 H 0.2970 0.5635 0.1918
H21_6 H 0.3082 0.9365 0.2030
H22_6 H 0.2970 0.8082 0.0635
H23_7 H 0.6918 0.7970 0.4365
H24_7 H 0.7030 0.9365 0.3082
C51_6 C 0.40615(11) 0.68185(12) 0.17614(13)
C52_6 C 0.40615(11) 0.82386(13) 0.18185(12)
C53_7 C 0.59385(11) 0.81815(12) 0.32386(13)
C54_6 C 0.31815(12) 0.67614(13) 0.09385(11)
C55_6 C 0.32386(13) 0.59385(11) 0.18185(12)
C56_6 C 0.31815(12) 0.90615(11) 0.17614(13)
C57_6 C 0.32386(13) 0.81815(12) 0.09385(11)
C58_7 C 0.68185(12) 0.82386(13) 0.40615(11)
C59_7 C 0.67614(13) 0.90615(11) 0.31815(12)
C62_6 C 0.39294(12) 0.68939(12) 0.15197(13)
C63_6 C 0.39294(12) 0.84803(13) 0.18939(12)
C64_7 C 0.60706(12) 0.81061(12) 0.34803(13)
C65_6 C 0.34803(13) 0.60706(12) 0.18939(12)
C66_6 C 0.34803(13) 0.81061(12) 0.10706(12)
C67_7 C 0.65197(13) 0.89294(12) 0.31061(12)
C68_6 C 0.31061(12) 0.65197(13) 0.10706(12)
C69_6 C 0.31061(12) 0.89294(12) 0.15197(13)
C70_7 C 0.68939(12) 0.84803(13) 0.39294(12)
C73_6 C 0.40251(13) 0.71214(13) 0.13803(13)
C74_6 C 0.40251(13) 0.86197(13) 0.21214(13)
C75_7 C 0.59749(13) 0.78786(13) 0.36197(13)
C76_6 C 0.36197(13) 0.59749(13) 0.21214(13)
C77_6 C 0.36197(13) 0.78786(13) 0.09749(13)
C78_7 C 0.63803(13) 0.90251(13) 0.28786(13)
C79_6 C 0.28786(13) 0.63803(13) 0.09749(13)
C80_6 C 0.28786(13) 0.90251(13) 0.13803(13)
C81_7 C 0.71214(13) 0.86197(13) 0.40251(13)
H27_6 H 0.3941 0.7176 0.1216
H28_6 H 0.3941 0.8784 0.2176
H29_7 H 0.6059 0.7824 0.3784
H30_6 H 0.3784 0.6059 0.2176
H31_6 H 0.3784 0.7824 0.1059
H32_7 H 0.6216 0.8941 0.2824
H33_6 H 0.2824 0.6216 0.1059
H34_6 H 0.2824 0.8941 0.1216
H35_7 H 0.7176 0.8784 0.3941
C82_6 C 0.42424(13) 0.72670(12) 0.14815(13)
C83_6 C 0.42424(13) 0.85185(13) 0.22670(12)
C84_7 C 0.57576(13) 0.77330(12) 0.35185(13)
C87_6 C 0.35185(13) 0.57576(13) 0.22670(12)
C88_6 C 0.35185(13) 0.77330(12) 0.07576(13)
C89_7 C 0.64815(13) 0.92424(13) 0.27330(12)
C90_6 C 0.27330(12) 0.64815(13) 0.07576(13)
C91_6 C 0.27330(12) 0.92424(13) 0.14815(13)
C92_7 C 0.72670(12) 0.85185(13) 0.42424(13)
H36_6 H 0.4306 0.7420 0.1383
H37_6 H 0.4306 0.8617 0.2420
H38_7 H 0.5694 0.7580 0.3617
H41_6 H 0.3617 0.5694 0.2420
H42_6 H 0.3617 0.7580 0.0694
H43_7 H 0.6383 0.9306 0.2580
H44_6 H 0.2580 0.6383 0.0694
H45_6 H 0.2580 0.9306 0.1383
H46_7 H 0.7420 0.8617 0.4306
C95_6 C 0.39442(12) 0.65664(14) 0.18874(13)
C96_6 C 0.39442(12) 0.81126(13) 0.15664(14)
C97_7 C 0.60558(12) 0.84336(14) 0.31126(13)
C98_6 C 0.34336(14) 0.68874(13) 0.10558(12)
C99_6 C 0.34336(14) 0.89442(12) 0.18874(13)
C100_7 C 0.65664(14) 0.81126(13) 0.39442(12)
C101_6 C 0.31126(13) 0.60558(12) 0.15664(14)
C102_6 C 0.31126(13) 0.84336(14) 0.10558(12)
C103_7 C 0.68874(13) 0.89442(12) 0.34336(14)
C106_6 C 0.37162(12) 0.65022(12) 0.16898(12)
C107_6 C 0.37162(12) 0.83102(12) 0.15022(12)
C108_7 C 0.62838(12) 0.84978(12) 0.33102(12)
C109_6 C 0.34978(12) 0.66898(12) 0.12838(12)
C110_6 C 0.34978(12) 0.87162(12) 0.16898(12)
C111_7 C 0.65022(12) 0.83102(12) 0.37162(12)
C112_6 C 0.33102(12) 0.62838(12) 0.15022(12)
C113_6 C 0.33102(12) 0.84978(12) 0.12838(12)
C114_7 C 0.66898(12) 0.87162(12) 0.34978(12)
C117_6 C 0.37051(12) 0.66967(12) 0.14761(12)
C118_6 C 0.37051(12) 0.85239(12) 0.16967(12)
C119_7 C 0.62949(12) 0.83033(12) 0.35239(12)
C120_6 C 0.35239(12) 0.62949(12) 0.16967(12)
C121_6 C 0.35239(12) 0.83033(12) 0.12949(12)
C122_7 C 0.64761(12) 0.87051(12) 0.33033(12)
C123_6 C 0.33033(12) 0.64761(12) 0.12949(12)
C124_6 C 0.33033(12) 0.87051(12) 0.14761(12)
C125_7 C 0.66967(12) 0.85239(12) 0.37051(12)
C128_6 C 0.41714(15) 0.63500(15) 0.18976(18)
C129_6 C 0.41714(15) 0.81024(18) 0.13500(15)
C130_7 C 0.58286(15) 0.86500(15) 0.31024(18)
C131_6 C 0.36500(15) 0.68976(18) 0.08286(15)
C132_6 C 0.36500(15) 0.91714(15) 0.18976(18)
C133_7 C 0.63500(15) 0.81024(18) 0.41714(15)
C134_6 C 0.31024(18) 0.58286(15) 0.13500(15)
C135_6 C 0.31024(18) 0.86500(15) 0.08286(15)
C136_7 C 0.68976(18) 0.91714(15) 0.36500(15)
H49_6 H 0.4099 0.6183 0.1983
H50_6 H 0.4099 0.8017 0.1183
H51_7 H 0.5901 0.8817 0.3017
H52_6 H 0.3817 0.6983 0.0901
H53_6 H 0.3817 0.9099 0.1983
H54_7 H 0.6183 0.8017 0.4099
H55_6 H 0.3017 0.5901 0.1183
H56_6 H 0.3017 0.8817 0.0901
H57_7 H 0.6983 0.9099 0.3817
H60_6 H 0.4321 0.6418 0.2013
H61_6 H 0.4321 0.7987 0.1418
H62_7 H 0.5679 0.8582 0.2987
H63_6 H 0.3582 0.7013 0.0679
H64_6 H 0.3582 0.9321 0.2013
H65_7 H 0.6418 0.7987 0.4321
H66_6 H 0.2987 0.5679 0.1418
H67_6 H 0.2987 0.8582 0.0679
H68_7 H 0.7013 0.9321 0.3582
C139_6 C 0.42869(19) 0.62767(19) 0.1616(2)
C140_6 C 0.42869(19) 0.8384(2) 0.12767(19)
C141_7 C 0.57131(19) 0.87233(19) 0.3384(2)
C142_6 C 0.37233(19) 0.6616(2) 0.07131(19)
C143_6 C 0.37233(19) 0.92869(19) 0.1616(2)
C144_7 C 0.62767(19) 0.8384(2) 0.42869(19)
C145_6 C 0.3384(2) 0.57131(19) 0.12767(19)
C146_6 C 0.3384(2) 0.87233(19) 0.07131(19)
C147_7 C 0.6616(2) 0.92869(19) 0.37233(19)
H71_6 H 0.4352 0.6442 0.1526
H72_6 H 0.4352 0.8474 0.1442
H73_7 H 0.5648 0.8558 0.3474
H74_6 H 0.3558 0.6526 0.0648
H75_6 H 0.3558 0.9352 0.1526
H76_7 H 0.6442 0.8474 0.4352
H77_6 H 0.3474 0.5648 0.1442
H78_6 H 0.3474 0.8558 0.0648
H79_7 H 0.6526 0.9352 0.3558
H82_6 H 0.4438 0.6149 0.1637
H83_6 H 0.4438 0.8363 0.1149
H84_7 H 0.5562 0.8851 0.3363
H85_6 H 0.3851 0.6637 0.0562
H86_6 H 0.3851 0.9438 0.1637
H87_7 H 0.6149 0.8363 0.4438
H88_6 H 0.3363 0.5562 0.1149
H89_6 H 0.3363 0.8851 0.0562
H90_7 H 0.6637 0.9438 0.3851
H93_6 H 0.4144 0.6193 0.1505
H94_6 H 0.4144 0.8495 0.1193
H95_7 H 0.5856 0.8807 0.3495
H96_6 H 0.3807 0.6505 0.0856
H97_6 H 0.3807 0.9144 0.1505
H98_7 H 0.6193 0.8495 0.4144
H99_6 H 0.3495 0.5856 0.1193
H100_6 H 0.3495 0.8807 0.0856
H101_7 H 0.6505 0.9144 0.3807
C150_6 C 0.38349(15) 0.66399(15) 0.21744(14)
C151_6 C 0.38349(15) 0.78256(14) 0.16399(15)
C152_7 C 0.61651(15) 0.83601(15) 0.28256(14)
C153_6 C 0.33601(15) 0.71744(14) 0.11651(15)
C154_6 C 0.33601(15) 0.88349(15) 0.21744(14)
C155_7 C 0.66399(15) 0.78256(14) 0.38349(15)
C156_6 C 0.28256(14) 0.61651(15) 0.16399(15)
C157_6 C 0.28256(14) 0.83601(15) 0.11651(15)
C158_7 C 0.71744(14) 0.88349(15) 0.33601(15)
H104_6 H 0.3988 0.6707 0.2286
H105_6 H 0.3988 0.7714 0.1707
H106_7 H 0.6012 0.8293 0.2714
H107_6 H 0.3293 0.7286 0.1012
H108_6 H 0.3293 0.8988 0.2286
H109_7 H 0.6707 0.7714 0.3988
H110_6 H 0.2714 0.6012 0.1707
H111_6 H 0.2714 0.8293 0.1012
H112_7 H 0.7286 0.8988 0.3293
H115_6 H 0.3765 0.6472 0.2261
H116_6 H 0.3765 0.7739 0.1472
H117_7 H 0.6235 0.8528 0.2739
H118_6 H 0.3528 0.7261 0.1235
H119_6 H 0.3528 0.8765 0.2261
H120_7 H 0.6472 0.7739 0.3765
H121_6 H 0.2739 0.6235 0.1472
H122_6 H 0.2739 0.8528 0.1235
H123_7 H 0.7261 0.8765 0.3528
C161_6 C 0.36129(18) 0.6851(2) 0.21783(17)
C162_6 C 0.36129(18) 0.78217(17) 0.1851(2)
C163_7 C 0.63871(18) 0.8149(2) 0.28217(17)
C164_6 C 0.3149(2) 0.71783(17) 0.13871(18)
C165_6 C 0.3149(2) 0.86129(18) 0.21783(17)
C166_7 C 0.6851(2) 0.78217(17) 0.36129(18)
C167_6 C 0.28217(17) 0.63871(18) 0.1851(2)
C168_6 C 0.28217(17) 0.8149(2) 0.13871(18)
C169_7 C 0.71783(17) 0.86129(18) 0.3149(2)
H126_6 H 0.3448 0.6775 0.2097
H127_6 H 0.3448 0.7903 0.1775
H128_7 H 0.6552 0.8225 0.2903
H129_6 H 0.3225 0.7097 0.1552
H130_6 H 0.3225 0.8448 0.2097
H131_7 H 0.6775 0.7903 0.3448
H132_6 H 0.2903 0.6552 0.1775
H133_6 H 0.2903 0.8225 0.1552
H134_7 H 0.7097 0.8448 0.3225
H137_6 H 0.3575 0.6904 0.2366
H138_6 H 0.3575 0.7634 0.1904
H139_7 H 0.6425 0.8096 0.2634
H140_6 H 0.3096 0.7366 0.1425
H141_6 H 0.3096 0.8575 0.2366
H142_7 H 0.6904 0.7634 0.3575
H143_6 H 0.2634 0.6425 0.1904
H144_6 H 0.2634 0.8096 0.1425
H145_7 H 0.7366 0.8575 0.3096
H148_6 H 0.3671 0.7010 0.2075
H149_6 H 0.3671 0.7925 0.2010
H150_7 H 0.6329 0.7990 0.2925
H151_6 H 0.2990 0.7075 0.1329
H152_6 H 0.2990 0.8671 0.2075
H153_7 H 0.7010 0.7925 0.3671
H154_6 H 0.2925 0.6329 0.2010
H155_6 H 0.2925 0.7990 0.1329
H156_7 H 0.7075 0.8671 0.2990
O35_10 O 0.5000 0.6950(3) 0.3240(3)
O36_10 O 0.5000 0.8050(3) 0.1760(3)
O37_10 O 0.5000 0.8240(3) 0.3050(3)
C170_10 C 0.5000 0.6707(9) 0.3094(9)
C171_10 C 0.5000 0.8094(9) 0.3293(9)
C172_10 C 0.5000 0.8293(9) 0.1906(9)
H157_7 H 0.518048 0.669751 0.296674
H158_10 H 0.5 0.653651 0.323469
H159_7 H 0.481952 0.669751 0.296674
H160_7 H 0.518048 0.796674 0.330249
H161_10 H 0.5 0.823469 0.346349
H162_7 H 0.481952 0.796674 0.330249
H163_7 H 0.518048 0.830249 0.203326
H164_10 H 0.5 0.846349 0.176531
H165_7 H 0.481952 0.830249 0.203326
H166_7 H 0.518048 0.703326 0.169751
H167_10 H 0.5 0.676531 0.153651
H168_7 H 0.481952 0.703326 0.169751
Dy15_9 Dy 0.26791(3) 0.79067(3) 1.0000
Dy13_6 Dy 0.76791(3) -0.0000 0.79067(3)
Dy14_4 Dy 0.70933(3) 0.0000 0.76791(3)
Dy18_12 Dy 0.26791(3) -0.0000 0.70933(3)
Dy15_10 Dy 0.73209(3) 0.79067(3) 0.0000
O3_11 O 0.5000 0.7500 0.7500
O4_11 O 0.5000 0.6760(3) 0.8050(3)
C15_11 C 0.5000 0.6906(9) 0.8293(9)
Dy4_8 Dy 0.5000 0.79067(3) 0.73209(3)
Dy13_7 Dy 0.76791(3) 1.0000 0.79067(3)
Dy14_5 Dy 0.70933(3) 1.0000 0.76791(3)
Dy15_11 Dy 0.73209(3) 0.79067(3) 1.0000
Dy18_13 Dy 0.26791(3) 1.0000 0.70933(3)
O6_8 O 0.52988(13) 0.70625(15) 0.72943(12)
O7_7 O 0.52988(13) 0.72943(12) 0.79375(15)
O8_8 O 0.47012(13) 0.77057(12) 0.70625(15)
O9_6 O 0.52988(13) 0.77057(12) 0.70625(15)
O10_7 O 0.52988(13) 0.79375(15) 0.77057(12)
O11_8 O 0.47012(13) 0.79375(15) 0.77057(12)
O14_7 O 0.72943(12) 0.70625(15) 0.97012(13)
O16_5 O 0.72943(12) 0.97012(13) 0.79375(15)
O17_7 O 0.70625(15) 0.77057(12) 0.97012(13)
O18_7 O 0.27057(12) 0.79375(15) 0.52988(13)
O19_8 O 0.29375(15) 0.97012(13) 0.72943(12)
O20_8 O 0.53384(9) 0.67263(9) 0.75795(10)
O21_8 O 0.46616(9) 0.74205(10) 0.67263(9)
O22_6 O 0.53384(9) 0.74205(10) 0.67263(9)
O24_7 O 0.53384(9) 0.75795(10) 0.82737(9)
O25_7 O 0.53384(9) 0.82737(9) 0.74205(10)
O26_8 O 0.46616(9) 0.82737(9) 0.74205(10)
O29_7 O 0.75795(10) 0.67263(9) 0.96616(9)
O31_5 O 0.75795(10) 0.96616(9) 0.82737(9)
O32_7 O 0.67263(9) 0.74205(10) 0.96616(9)
O33_7 O 0.24205(10) 0.82737(9) 0.53384(9)
O34_8 O 0.32737(9) 0.96616(9) 0.75795(10)
C16_7 C 0.54071(12) 0.73657(14) 0.81691(14)
C17_7 C 0.54071(12) 0.81691(14) 0.76343(14)
C18_8 C 0.45929(12) 0.76343(14) 0.68309(14)
C21_7 C 0.73657(14) 0.68309(14) 0.95929(12)
C22_7 C 0.68309(14) 0.54071(12) 0.76343(14)
C23_7 C 0.73657(14) 0.95929(12) 0.81691(14)
C24_7 C 0.68309(14) 0.76343(14) 0.95929(12)
C25_8 C 0.26343(14) 0.81691(14) 0.54071(12)
C26_8 C 0.31691(14) 0.95929(12) 0.73657(14)
C27_7 C 0.56307(12) 0.71969(12) 0.82784(13)
C28_7 C 0.56307(12) 0.82784(13) 0.78031(12)
C29_8 C 0.43693(12) 0.78031(12) 0.67216(13)
C32_7 C 0.71969(12) 0.67216(13) 0.93693(12)
C33_7 C 0.67216(13) 0.56307(12) 0.78031(12)
C34_7 C 0.71969(12) 0.93693(12) 0.82784(13)
C35_7 C 0.67216(13) 0.78031(12) 0.93693(12)
C36_8 C 0.28031(12) 0.82784(13) 0.56307(12)
C37_8 C 0.32784(13) 0.93693(12) 0.71969(12)
C38_7 C 0.57203(12) 0.69695(12) 0.81347(13)
C39_7 C 0.57203(12) 0.81347(13) 0.80305(12)
C40_8 C 0.42797(12) 0.80305(12) 0.68653(13)
C43_7 C 0.69695(12) 0.68653(13) 0.92797(12)
C44_7 C 0.68653(13) 0.57203(12) 0.80305(12)
C45_7 C 0.69695(12) 0.92797(12) 0.81347(13)
C46_7 C 0.68653(13) 0.80305(12) 0.92797(12)
C47_8 C 0.30305(12) 0.81347(13) 0.57203(12)
C48_8 C 0.31347(13) 0.92797(12) 0.69695(12)
H14_7 H 0.5635 0.6918 0.7970
H15_7 H 0.5635 0.7970 0.8082
H16_8 H 0.4365 0.8082 0.7030
H19_7 H 0.6918 0.7030 0.9365
H20_7 H 0.7030 0.5635 0.8082
H21_7 H 0.6918 0.9365 0.7970
H22_7 H 0.7030 0.8082 0.9365
H23_8 H 0.3082 0.7970 0.5635
H24_8 H 0.2970 0.9365 0.6918
C51_7 C 0.59385(11) 0.68185(12) 0.82386(13)
C52_7 C 0.59385(11) 0.82386(13) 0.81815(12)
C53_8 C 0.40615(11) 0.81815(12) 0.67614(13)
C54_7 C 0.68185(12) 0.67614(13) 0.90615(11)
C55_7 C 0.67614(13) 0.59385(11) 0.81815(12)
C56_7 C 0.68185(12) 0.90615(11) 0.82386(13)
C57_7 C 0.67614(13) 0.81815(12) 0.90615(11)
C58_8 C 0.31815(12) 0.82386(13) 0.59385(11)
C59_8 C 0.32386(13) 0.90615(11) 0.68185(12)
C62_7 C 0.60706(12) 0.68939(12) 0.84803(13)
C63_7 C 0.60706(12) 0.84803(13) 0.81061(12)
C64_8 C 0.39294(12) 0.81061(12) 0.65197(13)
C65_7 C 0.65197(13) 0.60706(12) 0.81061(12)
C66_7 C 0.65197(13) 0.81061(12) 0.89294(12)
C67_8 C 0.34803(13) 0.89294(12) 0.68939(12)
C68_7 C 0.68939(12) 0.65197(13) 0.89294(12)
C69_7 C 0.68939(12) 0.89294(12) 0.84803(13)
C70_8 C 0.31061(12) 0.84803(13) 0.60706(12)
C73_7 C 0.59749(13) 0.71214(13) 0.86197(13)
C74_7 C 0.59749(13) 0.86197(13) 0.78786(13)
C75_8 C 0.40251(13) 0.78786(13) 0.63803(13)
C76_7 C 0.63803(13) 0.59749(13) 0.78786(13)
C77_7 C 0.63803(13) 0.78786(13) 0.90251(13)
C78_8 C 0.36197(13) 0.90251(13) 0.71214(13)
C79_7 C 0.71214(13) 0.63803(13) 0.90251(13)
C80_7 C 0.71214(13) 0.90251(13) 0.86197(13)
C81_8 C 0.28786(13) 0.86197(13) 0.59749(13)
H27_7 H 0.6059 0.7176 0.8784
H28_7 H 0.6059 0.8784 0.7824
H29_8 H 0.3941 0.7824 0.6216
H30_7 H 0.6216 0.6059 0.7824
H31_7 H 0.6216 0.7824 0.8941
H32_8 H 0.3784 0.8941 0.7176
H33_7 H 0.7176 0.6216 0.8941
H34_7 H 0.7176 0.8941 0.8784
H35_8 H 0.2824 0.8784 0.6059
C82_7 C 0.57576(13) 0.72670(12) 0.85185(13)
C83_7 C 0.57576(13) 0.85185(13) 0.77330(12)
C84_8 C 0.42424(13) 0.77330(12) 0.64815(13)
C87_7 C 0.64815(13) 0.57576(13) 0.77330(12)
C88_7 C 0.64815(13) 0.77330(12) 0.92424(13)
C89_8 C 0.35185(13) 0.92424(13) 0.72670(12)
C90_7 C 0.72670(12) 0.64815(13) 0.92424(13)
C91_7 C 0.72670(12) 0.92424(13) 0.85185(13)
C92_8 C 0.27330(12) 0.85185(13) 0.57576(13)
H36_7 H 0.5694 0.7420 0.8617
H37_7 H 0.5694 0.8617 0.7580
H38_8 H 0.4306 0.7580 0.6383
H41_7 H 0.6383 0.5694 0.7580
H42_7 H 0.6383 0.7580 0.9306
H43_8 H 0.3617 0.9306 0.7420
H44_7 H 0.7420 0.6383 0.9306
H45_7 H 0.7420 0.9306 0.8617
H46_8 H 0.2580 0.8617 0.5694
C95_7 C 0.60558(12) 0.65664(14) 0.81126(13)
C96_7 C 0.60558(12) 0.81126(13) 0.84336(14)
C97_8 C 0.39442(12) 0.84336(14) 0.68874(13)
C98_7 C 0.65664(14) 0.68874(13) 0.89442(12)
C99_7 C 0.65664(14) 0.89442(12) 0.81126(13)
C100_8 C 0.34336(14) 0.81126(13) 0.60558(12)
C101_7 C 0.68874(13) 0.60558(12) 0.84336(14)
C102_7 C 0.68874(13) 0.84336(14) 0.89442(12)
C103_8 C 0.31126(13) 0.89442(12) 0.65664(14)
C106_7 C 0.62838(12) 0.65022(12) 0.83102(12)
C107_7 C 0.62838(12) 0.83102(12) 0.84978(12)
C108_8 C 0.37162(12) 0.84978(12) 0.66898(12)
C109_7 C 0.65022(12) 0.66898(12) 0.87162(12)
C110_7 C 0.65022(12) 0.87162(12) 0.83102(12)
C111_8 C 0.34978(12) 0.83102(12) 0.62838(12)
C112_7 C 0.66898(12) 0.62838(12) 0.84978(12)
C113_7 C 0.66898(12) 0.84978(12) 0.87162(12)
C114_8 C 0.33102(12) 0.87162(12) 0.65022(12)
C117_7 C 0.62949(12) 0.66967(12) 0.85239(12)
C118_7 C 0.62949(12) 0.85239(12) 0.83033(12)
C119_8 C 0.37051(12) 0.83033(12) 0.64761(12)
C120_7 C 0.64761(12) 0.62949(12) 0.83033(12)
C121_7 C 0.64761(12) 0.83033(12) 0.87051(12)
C122_8 C 0.35239(12) 0.87051(12) 0.66967(12)
C123_7 C 0.66967(12) 0.64761(12) 0.87051(12)
C124_7 C 0.66967(12) 0.87051(12) 0.85239(12)
C125_8 C 0.33033(12) 0.85239(12) 0.62949(12)
C128_7 C 0.58286(15) 0.63500(15) 0.81024(18)
C129_7 C 0.58286(15) 0.81024(18) 0.86500(15)
C130_8 C 0.41714(15) 0.86500(15) 0.68976(18)
C131_7 C 0.63500(15) 0.68976(18) 0.91714(15)
C132_7 C 0.63500(15) 0.91714(15) 0.81024(18)
C133_8 C 0.36500(15) 0.81024(18) 0.58286(15)
C134_7 C 0.68976(18) 0.58286(15) 0.86500(15)
C135_7 C 0.68976(18) 0.86500(15) 0.91714(15)
C136_8 C 0.31024(18) 0.91714(15) 0.63500(15)
H49_7 H 0.5901 0.6183 0.8017
H50_7 H 0.5901 0.8017 0.8817
H51_8 H 0.4099 0.8817 0.6983
H52_7 H 0.6183 0.6983 0.9099
H53_7 H 0.6183 0.9099 0.8017
H54_8 H 0.3817 0.8017 0.5901
H55_7 H 0.6983 0.5901 0.8817
H56_7 H 0.6983 0.8817 0.9099
H57_8 H 0.3017 0.9099 0.6183
H60_7 H 0.5679 0.6418 0.7987
H61_7 H 0.5679 0.7987 0.8582
H62_8 H 0.4321 0.8582 0.7013
H63_7 H 0.6418 0.7013 0.9321
H64_7 H 0.6418 0.9321 0.7987
H65_8 H 0.3582 0.7987 0.5679
H66_7 H 0.7013 0.5679 0.8582
H67_7 H 0.7013 0.8582 0.9321
H68_8 H 0.2987 0.9321 0.6418
C139_7 C 0.57131(19) 0.62767(19) 0.8384(2)
C140_7 C 0.57131(19) 0.8384(2) 0.87233(19)
C141_8 C 0.42869(19) 0.87233(19) 0.6616(2)
C142_7 C 0.62767(19) 0.6616(2) 0.92869(19)
C143_7 C 0.62767(19) 0.92869(19) 0.8384(2)
C144_8 C 0.37233(19) 0.8384(2) 0.57131(19)
C145_7 C 0.6616(2) 0.57131(19) 0.87233(19)
C146_7 C 0.6616(2) 0.87233(19) 0.92869(19)
C147_8 C 0.3384(2) 0.92869(19) 0.62767(19)
H71_7 H 0.5648 0.6442 0.8474
H72_7 H 0.5648 0.8474 0.8558
H73_8 H 0.4352 0.8558 0.6526
H74_7 H 0.6442 0.6526 0.9352
H75_7 H 0.6442 0.9352 0.8474
H76_8 H 0.3558 0.8474 0.5648
H77_7 H 0.6526 0.5648 0.8558
H78_7 H 0.6526 0.8558 0.9352
H79_8 H 0.3474 0.9352 0.6442
H82_7 H 0.5562 0.6149 0.8363
H83_7 H 0.5562 0.8363 0.8851
H84_8 H 0.4438 0.8851 0.6637
H85_7 H 0.6149 0.6637 0.9438
H86_7 H 0.6149 0.9438 0.8363
H87_8 H 0.3851 0.8363 0.5562
H88_7 H 0.6637 0.5562 0.8851
H89_7 H 0.6637 0.8851 0.9438
H90_8 H 0.3363 0.9438 0.6149
H93_7 H 0.5856 0.6193 0.8495
H94_7 H 0.5856 0.8495 0.8807
H95_8 H 0.4144 0.8807 0.6505
H96_7 H 0.6193 0.6505 0.9144
H97_7 H 0.6193 0.9144 0.8495
H98_8 H 0.3807 0.8495 0.5856
H99_7 H 0.6505 0.5856 0.8807
H100_7 H 0.6505 0.8807 0.9144
H101_8 H 0.3495 0.9144 0.6193
C150_7 C 0.61651(15) 0.66399(15) 0.78256(14)
C151_7 C 0.61651(15) 0.78256(14) 0.83601(15)
C152_8 C 0.38349(15) 0.83601(15) 0.71744(14)
C153_7 C 0.66399(15) 0.71744(14) 0.88349(15)
C154_7 C 0.66399(15) 0.88349(15) 0.78256(14)
C155_8 C 0.33601(15) 0.78256(14) 0.61651(15)
C156_7 C 0.71744(14) 0.61651(15) 0.83601(15)
C157_7 C 0.71744(14) 0.83601(15) 0.88349(15)
C158_8 C 0.28256(14) 0.88349(15) 0.66399(15)
H104_7 H 0.6012 0.6707 0.7714
H105_7 H 0.6012 0.7714 0.8293
H106_8 H 0.3988 0.8293 0.7286
H107_7 H 0.6707 0.7286 0.8988
H108_7 H 0.6707 0.8988 0.7714
H109_8 H 0.3293 0.7714 0.6012
H110_7 H 0.7286 0.6012 0.8293
H111_7 H 0.7286 0.8293 0.8988
H112_8 H 0.2714 0.8988 0.6707
H115_7 H 0.6235 0.6472 0.7739
H116_7 H 0.6235 0.7739 0.8528
H117_8 H 0.3765 0.8528 0.7261
H118_7 H 0.6472 0.7261 0.8765
H119_7 H 0.6472 0.8765 0.7739
H120_8 H 0.3528 0.7739 0.6235
H121_7 H 0.7261 0.6235 0.8528
H122_7 H 0.7261 0.8528 0.8765
H123_8 H 0.2739 0.8765 0.6472
C161_7 C 0.63871(18) 0.6851(2) 0.78217(17)
C162_7 C 0.63871(18) 0.78217(17) 0.8149(2)
C163_8 C 0.36129(18) 0.8149(2) 0.71783(17)
C164_7 C 0.6851(2) 0.71783(17) 0.86129(18)
C165_7 C 0.6851(2) 0.86129(18) 0.78217(17)
C166_8 C 0.3149(2) 0.78217(17) 0.63871(18)
C167_7 C 0.71783(17) 0.63871(18) 0.8149(2)
C168_7 C 0.71783(17) 0.8149(2) 0.86129(18)
C169_8 C 0.28217(17) 0.86129(18) 0.6851(2)
H126_7 H 0.6552 0.6775 0.7903
H127_7 H 0.6552 0.7903 0.8225
H128_8 H 0.3448 0.8225 0.7097
H129_7 H 0.6775 0.7097 0.8448
H130_7 H 0.6775 0.8448 0.7903
H131_8 H 0.3225 0.7903 0.6552
H132_7 H 0.7097 0.6552 0.8225
H133_7 H 0.7097 0.8225 0.8448
H134_8 H 0.2903 0.8448 0.6775
H137_7 H 0.6425 0.6904 0.7634
H138_7 H 0.6425 0.7634 0.8096
H139_8 H 0.3575 0.8096 0.7366
H140_7 H 0.6904 0.7366 0.8575
H141_7 H 0.6904 0.8575 0.7634
H142_8 H 0.3096 0.7634 0.6425
H143_7 H 0.7366 0.6425 0.8096
H144_7 H 0.7366 0.8096 0.8575
H145_8 H 0.2634 0.8575 0.6904
H148_7 H 0.6329 0.7010 0.7925
H149_7 H 0.6329 0.7925 0.7990
H150_8 H 0.3671 0.7990 0.7075
H151_7 H 0.7010 0.7075 0.8671
H152_7 H 0.7010 0.8671 0.7925
H153_8 H 0.2990 0.7925 0.6329
H154_7 H 0.7075 0.6329 0.7990
H155_7 H 0.7075 0.7990 0.8671
H156_8 H 0.2925 0.8671 0.7010
O35_11 O 0.5000 0.6950(3) 0.6760(3)
O36_11 O 0.5000 0.8050(3) 0.8240(3)
O37_11 O 0.5000 0.8240(3) 0.6950(3)
C170_11 C 0.5000 0.6707(9) 0.6906(9)
C171_11 C 0.5000 0.8094(9) 0.6707(9)
C172_11 C 0.5000 0.8293(9) 0.8094(9)
H157_8 H 0.481952 0.669751 0.703326
H158_11 H 0.5 0.653651 0.676531
H159_8 H 0.518048 0.669751 0.703326
H160_8 H 0.481952 0.796674 0.669751
H161_11 H 0.5 0.823469 0.653651
H162_8 H 0.518048 0.796674 0.669751
H163_8 H 0.481952 0.830249 0.796674
H164_11 H 0.5 0.846349 0.823469
H165_8 H 0.518048 0.830249 0.796674
H166_8 H 0.481952 0.703326 0.830249
H167_11 H 0.5 0.676531 0.846349
H168_8 H 0.518048 0.703326 0.830249
O3_12 O 0.5000 0.2500 0.7500
O4_12 O 0.5000 0.3240(3) 0.8050(3)
C15_12 C 0.5000 0.3094(9) 0.8293(9)
Dy16_8 Dy 0.76791(3) 0.20933(3) 0.5000
Dy18_14 Dy 0.73209(3) -0.0000 0.70933(3)
O6_9 O 0.47012(13) 0.29375(15) 0.72943(12)
O8_9 O 0.52988(13) 0.22943(12) 0.70625(15)
O9_7 O 0.47012(13) 0.22943(12) 0.70625(15)
O11_9 O 0.52988(13) 0.20625(15) 0.77057(12)
O18_8 O 0.72943(12) 0.20625(15) 0.52988(13)
O19_9 O 0.70625(15) 0.02988(13) 0.72943(12)
O20_9 O 0.46616(9) 0.32737(9) 0.75795(10)
O21_9 O 0.53384(9) 0.25795(10) 0.67263(9)
O22_7 O 0.46616(9) 0.25795(10) 0.67263(9)
O26_9 O 0.53384(9) 0.17263(9) 0.74205(10)
O33_8 O 0.75795(10) 0.17263(9) 0.53384(9)
O34_9 O 0.67263(9) 0.03384(9) 0.75795(10)
C18_9 C 0.54071(12) 0.23657(14) 0.68309(14)
C25_9 C 0.73657(14) 0.18309(14) 0.54071(12)
C26_9 C 0.68309(14) 0.04071(12) 0.73657(14)
C29_9 C 0.56307(12) 0.21969(12) 0.67216(13)
C36_9 C 0.71969(12) 0.17216(13) 0.56307(12)
C37_9 C 0.67216(13) 0.06307(12) 0.71969(12)
C40_9 C 0.57203(12) 0.19695(12) 0.68653(13)
C47_9 C 0.69695(12) 0.18653(13) 0.57203(12)
C48_9 C 0.68653(13) 0.07203(12) 0.69695(12)
H16_9 H 0.5635 0.1918 0.7030
H23_9 H 0.6918 0.2030 0.5635
H24_9 H 0.7030 0.0635 0.6918
C53_9 C 0.59385(11) 0.18185(12) 0.67614(13)
C58_9 C 0.68185(12) 0.17614(13) 0.59385(11)
C59_9 C 0.67614(13) 0.09385(11) 0.68185(12)
C64_9 C 0.60706(12) 0.18939(12) 0.65197(13)
C67_9 C 0.65197(13) 0.10706(12) 0.68939(12)
C70_9 C 0.68939(12) 0.15197(13) 0.60706(12)
C75_9 C 0.59749(13) 0.21214(13) 0.63803(13)
C78_9 C 0.63803(13) 0.09749(13) 0.71214(13)
C81_9 C 0.71214(13) 0.13803(13) 0.59749(13)
H29_9 H 0.6059 0.2176 0.6216
H32_9 H 0.6216 0.1059 0.7176
H35_9 H 0.7176 0.1216 0.6059
C84_9 C 0.57576(13) 0.22670(12) 0.64815(13)
C89_9 C 0.64815(13) 0.07576(13) 0.72670(12)
C92_9 C 0.72670(12) 0.14815(13) 0.57576(13)
H38_9 H 0.5694 0.2420 0.6383
H43_9 H 0.6383 0.0694 0.7420
H46_9 H 0.7420 0.1383 0.5694
C97_9 C 0.60558(12) 0.15664(14) 0.68874(13)
C100_9 C 0.65664(14) 0.18874(13) 0.60558(12)
C103_9 C 0.68874(13) 0.10558(12) 0.65664(14)
C108_9 C 0.62838(12) 0.15022(12) 0.66898(12)
C111_9 C 0.65022(12) 0.16898(12) 0.62838(12)
C114_9 C 0.66898(12) 0.12838(12) 0.65022(12)
C119_9 C 0.62949(12) 0.16967(12) 0.64761(12)
C122_9 C 0.64761(12) 0.12949(12) 0.66967(12)
C125_9 C 0.66967(12) 0.14761(12) 0.62949(12)
C130_9 C 0.58286(15) 0.13500(15) 0.68976(18)
C133_9 C 0.63500(15) 0.18976(18) 0.58286(15)
C136_9 C 0.68976(18) 0.08286(15) 0.63500(15)
H51_9 H 0.5901 0.1183 0.6983
H54_9 H 0.6183 0.1983 0.5901
H57_9 H 0.6983 0.0901 0.6183
H62_9 H 0.5679 0.1418 0.7013
H65_9 H 0.6418 0.2013 0.5679
H68_9 H 0.7013 0.0679 0.6418
C141_9 C 0.57131(19) 0.12767(19) 0.6616(2)
C144_9 C 0.62767(19) 0.1616(2) 0.57131(19)
C147_9 C 0.6616(2) 0.07131(19) 0.62767(19)
H73_9 H 0.5648 0.1442 0.6526
H76_9 H 0.6442 0.1526 0.5648
H79_9 H 0.6526 0.0648 0.6442
H84_9 H 0.5562 0.1149 0.6637
H87_9 H 0.6149 0.1637 0.5562
H90_9 H 0.6637 0.0562 0.6149
H95_9 H 0.5856 0.1193 0.6505
H98_9 H 0.6193 0.1505 0.5856
H101_9 H 0.6505 0.0856 0.6193
C152_9 C 0.61651(15) 0.16399(15) 0.71744(14)
C155_9 C 0.66399(15) 0.21744(14) 0.61651(15)
C158_9 C 0.71744(14) 0.11651(15) 0.66399(15)
H106_9 H 0.6012 0.1707 0.7286
H109_9 H 0.6707 0.2286 0.6012
H112_9 H 0.7286 0.1012 0.6707
H117_9 H 0.6235 0.1472 0.7261
H120_9 H 0.6472 0.2261 0.6235
H123_9 H 0.7261 0.1235 0.6472
C163_9 C 0.63871(18) 0.1851(2) 0.71783(17)
C166_9 C 0.6851(2) 0.21783(17) 0.63871(18)
C169_9 C 0.71783(17) 0.13871(18) 0.6851(2)
H128_9 H 0.6552 0.1775 0.7097
H131_9 H 0.6775 0.2097 0.6552
H134_9 H 0.7097 0.1552 0.6775
H139_9 H 0.6425 0.1904 0.7366
H142_9 H 0.6904 0.2366 0.6425
H145_9 H 0.7366 0.1425 0.6904
H150_9 H 0.6329 0.2010 0.7075
H153_9 H 0.7010 0.2075 0.6329
H156_9 H 0.7075 0.1329 0.7010
O35_12 O 0.5000 0.3050(3) 0.6760(3)
O36_12 O 0.5000 0.1950(3) 0.8240(3)
O37_12 O 0.5000 0.1760(3) 0.6950(3)
C170_12 C 0.5000 0.3293(9) 0.6906(9)
C171_12 C 0.5000 0.1906(9) 0.6707(9)
C172_12 C 0.5000 0.1707(9) 0.8094(9)
H157_9 H 0.518048 0.330249 0.703326
H158_12 H 0.5 0.346349 0.676531
H159_9 H 0.481952 0.330249 0.703326
H160_9 H 0.518048 0.203326 0.669751
H161_12 H 0.5 0.176531 0.653651
H162_9 H 0.481952 0.203326 0.669751
H163_9 H 0.518048 0.169751 0.796674
H164_12 H 0.5 0.153651 0.823469
H165_9 H 0.481952 0.169751 0.796674
H166_9 H 0.518048 0.296674 0.830249
H167_12 H 0.5 0.323469 0.846349
H168_9 H 0.481952 0.296674 0.830249
Dy18_15 Dy 0.73209(3) 1.0000 0.70933(3)
Dy13_8 Dy -0.0000 0.79067(3) 0.76791(3)
Dy18_16 Dy -0.0000 0.70933(3) 0.26791(3)
Dy15_12 Dy 0.79067(3) -0.0000 0.73209(3)
O3_13 O 0.7500 0.7500 0.5000
O4_13 O 0.6760(3) 0.8050(3) 0.5000
C15_13 C 0.6906(9) 0.8293(9) 0.5000
Dy13_9 Dy 1.0000 0.79067(3) 0.76791(3)
Dy15_13 Dy 0.79067(3) 1.0000 0.73209(3)
Dy18_17 Dy 1.0000 0.70933(3) 0.26791(3)
O6_10 O 0.70625(15) 0.72943(12) 0.52988(13)
O7_8 O 0.72943(12) 0.79375(15) 0.52988(13)
O8_10 O 0.77057(12) 0.70625(15) 0.47012(13)
O10_8 O 0.79375(15) 0.77057(12) 0.52988(13)
O11_10 O 0.79375(15) 0.77057(12) 0.47012(13)
O14_8 O 0.70625(15) 0.97012(13) 0.72943(12)
O16_6 O 0.97012(13) 0.79375(15) 0.72943(12)
O17_8 O 0.77057(12) 0.97012(13) 0.70625(15)
O19_10 O 0.97012(13) 0.72943(12) 0.29375(15)
O20_10 O 0.67263(9) 0.75795(10) 0.53384(9)
O21_10 O 0.74205(10) 0.67263(9) 0.46616(9)
O24_8 O 0.75795(10) 0.82737(9) 0.53384(9)
O25_8 O 0.82737(9) 0.74205(10) 0.53384(9)
O26_10 O 0.82737(9) 0.74205(10) 0.46616(9)
O29_8 O 0.67263(9) 0.96616(9) 0.75795(10)
O31_6 O 0.96616(9) 0.82737(9) 0.75795(10)
O32_8 O 0.74205(10) 0.96616(9) 0.67263(9)
O34_10 O 0.96616(9) 0.75795(10) 0.32737(9)
C16_8 C 0.73657(14) 0.81691(14) 0.54071(12)
C17_8 C 0.81691(14) 0.76343(14) 0.54071(12)
C18_10 C 0.76343(14) 0.68309(14) 0.45929(12)
C21_8 C 0.68309(14) 0.95929(12) 0.73657(14)
C22_8 C 0.54071(12) 0.76343(14) 0.68309(14)
C23_8 C 0.95929(12) 0.81691(14) 0.73657(14)
C24_8 C 0.76343(14) 0.95929(12) 0.68309(14)
C25_10 C 0.81691(14) 0.54071(12) 0.26343(14)
C26_10 C 0.95929(12) 0.73657(14) 0.31691(14)
C27_8 C 0.71969(12) 0.82784(13) 0.56307(12)
C28_8 C 0.82784(13) 0.78031(12) 0.56307(12)
C29_10 C 0.78031(12) 0.67216(13) 0.43693(12)
C32_8 C 0.67216(13) 0.93693(12) 0.71969(12)
C33_8 C 0.56307(12) 0.78031(12) 0.67216(13)
C34_8 C 0.93693(12) 0.82784(13) 0.71969(12)
C35_8 C 0.78031(12) 0.93693(12) 0.67216(13)
C36_10 C 0.82784(13) 0.56307(12) 0.28031(12)
C37_10 C 0.93693(12) 0.71969(12) 0.32784(13)
C38_8 C 0.69695(12) 0.81347(13) 0.57203(12)
C39_8 C 0.81347(13) 0.80305(12) 0.57203(12)
C40_10 C 0.80305(12) 0.68653(13) 0.42797(12)
C43_8 C 0.68653(13) 0.92797(12) 0.69695(12)
C44_8 C 0.57203(12) 0.80305(12) 0.68653(13)
C45_8 C 0.92797(12) 0.81347(13) 0.69695(12)
C46_8 C 0.80305(12) 0.92797(12) 0.68653(13)
C47_10 C 0.81347(13) 0.57203(12) 0.30305(12)
C48_10 C 0.92797(12) 0.69695(12) 0.31347(13)
H14_8 H 0.6918 0.7970 0.5635
H15_8 H 0.7970 0.8082 0.5635
H16_10 H 0.8082 0.7030 0.4365
H19_8 H 0.7030 0.9365 0.6918
H20_8 H 0.5635 0.8082 0.7030
H21_8 H 0.9365 0.7970 0.6918
H22_8 H 0.8082 0.9365 0.7030
H23_10 H 0.7970 0.5635 0.3082
H24_10 H 0.9365 0.6918 0.2970
C51_8 C 0.68185(12) 0.82386(13) 0.59385(11)
C52_8 C 0.82386(13) 0.81815(12) 0.59385(11)
C53_10 C 0.81815(12) 0.67614(13) 0.40615(11)
C54_8 C 0.67614(13) 0.90615(11) 0.68185(12)
C55_8 C 0.59385(11) 0.81815(12) 0.67614(13)
C56_8 C 0.90615(11) 0.82386(13) 0.68185(12)
C57_8 C 0.81815(12) 0.90615(11) 0.67614(13)
C58_10 C 0.82386(13) 0.59385(11) 0.31815(12)
C59_10 C 0.90615(11) 0.68185(12) 0.32386(13)
C62_8 C 0.68939(12) 0.84803(13) 0.60706(12)
C63_8 C 0.84803(13) 0.81061(12) 0.60706(12)
C64_10 C 0.81061(12) 0.65197(13) 0.39294(12)
C65_8 C 0.60706(12) 0.81061(12) 0.65197(13)
C66_8 C 0.81061(12) 0.89294(12) 0.65197(13)
C67_10 C 0.89294(12) 0.68939(12) 0.34803(13)
C68_8 C 0.65197(13) 0.89294(12) 0.68939(12)
C69_8 C 0.89294(12) 0.84803(13) 0.68939(12)
C70_10 C 0.84803(13) 0.60706(12) 0.31061(12)
C73_8 C 0.71214(13) 0.86197(13) 0.59749(13)
C74_8 C 0.86197(13) 0.78786(13) 0.59749(13)
C75_10 C 0.78786(13) 0.63803(13) 0.40251(13)
C76_8 C 0.59749(13) 0.78786(13) 0.63803(13)
C77_8 C 0.78786(13) 0.90251(13) 0.63803(13)
C78_10 C 0.90251(13) 0.71214(13) 0.36197(13)
C79_8 C 0.63803(13) 0.90251(13) 0.71214(13)
C80_8 C 0.90251(13) 0.86197(13) 0.71214(13)
C81_10 C 0.86197(13) 0.59749(13) 0.28786(13)
H27_8 H 0.7176 0.8784 0.6059
H28_8 H 0.8784 0.7824 0.6059
H29_10 H 0.7824 0.6216 0.3941
H30_8 H 0.6059 0.7824 0.6216
H31_8 H 0.7824 0.8941 0.6216
H32_10 H 0.8941 0.7176 0.3784
H33_8 H 0.6216 0.8941 0.7176
H34_8 H 0.8941 0.8784 0.7176
H35_10 H 0.8784 0.6059 0.2824
C82_8 C 0.72670(12) 0.85185(13) 0.57576(13)
C83_8 C 0.85185(13) 0.77330(12) 0.57576(13)
C84_10 C 0.77330(12) 0.64815(13) 0.42424(13)
C87_8 C 0.57576(13) 0.77330(12) 0.64815(13)
C88_8 C 0.77330(12) 0.92424(13) 0.64815(13)
C89_10 C 0.92424(13) 0.72670(12) 0.35185(13)
C90_8 C 0.64815(13) 0.92424(13) 0.72670(12)
C91_8 C 0.92424(13) 0.85185(13) 0.72670(12)
C92_10 C 0.85185(13) 0.57576(13) 0.27330(12)
H36_8 H 0.7420 0.8617 0.5694
H37_8 H 0.8617 0.7580 0.5694
H38_10 H 0.7580 0.6383 0.4306
H41_8 H 0.5694 0.7580 0.6383
H42_8 H 0.7580 0.9306 0.6383
H43_10 H 0.9306 0.7420 0.3617
H44_8 H 0.6383 0.9306 0.7420
H45_8 H 0.9306 0.8617 0.7420
H46_10 H 0.8617 0.5694 0.2580
C95_8 C 0.65664(14) 0.81126(13) 0.60558(12)
C96_8 C 0.81126(13) 0.84336(14) 0.60558(12)
C97_10 C 0.84336(14) 0.68874(13) 0.39442(12)
C98_8 C 0.68874(13) 0.89442(12) 0.65664(14)
C99_8 C 0.89442(12) 0.81126(13) 0.65664(14)
C100_10 C 0.81126(13) 0.60558(12) 0.34336(14)
C101_8 C 0.60558(12) 0.84336(14) 0.68874(13)
C102_8 C 0.84336(14) 0.89442(12) 0.68874(13)
C103_10 C 0.89442(12) 0.65664(14) 0.31126(13)
C106_8 C 0.65022(12) 0.83102(12) 0.62838(12)
C107_8 C 0.83102(12) 0.84978(12) 0.62838(12)
C108_10 C 0.84978(12) 0.66898(12) 0.37162(12)
C109_8 C 0.66898(12) 0.87162(12) 0.65022(12)
C110_8 C 0.87162(12) 0.83102(12) 0.65022(12)
C111_10 C 0.83102(12) 0.62838(12) 0.34978(12)
C112_8 C 0.62838(12) 0.84978(12) 0.66898(12)
C113_8 C 0.84978(12) 0.87162(12) 0.66898(12)
C114_10 C 0.87162(12) 0.65022(12) 0.33102(12)
C117_8 C 0.66967(12) 0.85239(12) 0.62949(12)
C118_8 C 0.85239(12) 0.83033(12) 0.62949(12)
C119_10 C 0.83033(12) 0.64761(12) 0.37051(12)
C120_8 C 0.62949(12) 0.83033(12) 0.64761(12)
C121_8 C 0.83033(12) 0.87051(12) 0.64761(12)
C122_10 C 0.87051(12) 0.66967(12) 0.35239(12)
C123_8 C 0.64761(12) 0.87051(12) 0.66967(12)
C124_8 C 0.87051(12) 0.85239(12) 0.66967(12)
C125_10 C 0.85239(12) 0.62949(12) 0.33033(12)
C128_8 C 0.63500(15) 0.81024(18) 0.58286(15)
C129_8 C 0.81024(18) 0.86500(15) 0.58286(15)
C130_10 C 0.86500(15) 0.68976(18) 0.41714(15)
C131_8 C 0.68976(18) 0.91714(15) 0.63500(15)
C132_8 C 0.91714(15) 0.81024(18) 0.63500(15)
C133_10 C 0.81024(18) 0.58286(15) 0.36500(15)
C134_8 C 0.58286(15) 0.86500(15) 0.68976(18)
C135_8 C 0.86500(15) 0.91714(15) 0.68976(18)
C136_10 C 0.91714(15) 0.63500(15) 0.31024(18)
H49_8 H 0.6183 0.8017 0.5901
H50_8 H 0.8017 0.8817 0.5901
H51_10 H 0.8817 0.6983 0.4099
H52_8 H 0.6983 0.9099 0.6183
H53_8 H 0.9099 0.8017 0.6183
H54_10 H 0.8017 0.5901 0.3817
H55_8 H 0.5901 0.8817 0.6983
H56_8 H 0.8817 0.9099 0.6983
H57_10 H 0.9099 0.6183 0.3017
H60_8 H 0.6418 0.7987 0.5679
H61_8 H 0.7987 0.8582 0.5679
H62_10 H 0.8582 0.7013 0.4321
H63_8 H 0.7013 0.9321 0.6418
H64_8 H 0.9321 0.7987 0.6418
H65_10 H 0.7987 0.5679 0.3582
H66_8 H 0.5679 0.8582 0.7013
H67_8 H 0.8582 0.9321 0.7013
H68_10 H 0.9321 0.6418 0.2987
C139_8 C 0.62767(19) 0.8384(2) 0.57131(19)
C140_8 C 0.8384(2) 0.87233(19) 0.57131(19)
C141_10 C 0.87233(19) 0.6616(2) 0.42869(19)
C142_8 C 0.6616(2) 0.92869(19) 0.62767(19)
C143_8 C 0.92869(19) 0.8384(2) 0.62767(19)
C144_10 C 0.8384(2) 0.57131(19) 0.37233(19)
C145_8 C 0.57131(19) 0.87233(19) 0.6616(2)
C146_8 C 0.87233(19) 0.92869(19) 0.6616(2)
C147_10 C 0.92869(19) 0.62767(19) 0.3384(2)
H71_8 H 0.6442 0.8474 0.5648
H72_8 H 0.8474 0.8558 0.5648
H73_10 H 0.8558 0.6526 0.4352
H74_8 H 0.6526 0.9352 0.6442
H75_8 H 0.9352 0.8474 0.6442
H76_10 H 0.8474 0.5648 0.3558
H77_8 H 0.5648 0.8558 0.6526
H78_8 H 0.8558 0.9352 0.6526
H79_10 H 0.9352 0.6442 0.3474
H82_8 H 0.6149 0.8363 0.5562
H83_8 H 0.8363 0.8851 0.5562
H84_10 H 0.8851 0.6637 0.4438
H85_8 H 0.6637 0.9438 0.6149
H86_8 H 0.9438 0.8363 0.6149
H87_10 H 0.8363 0.5562 0.3851
H88_8 H 0.5562 0.8851 0.6637
H89_8 H 0.8851 0.9438 0.6637
H90_10 H 0.9438 0.6149 0.3363
H93_8 H 0.6193 0.8495 0.5856
H94_8 H 0.8495 0.8807 0.5856
H95_10 H 0.8807 0.6505 0.4144
H96_8 H 0.6505 0.9144 0.6193
H97_8 H 0.9144 0.8495 0.6193
H98_10 H 0.8495 0.5856 0.3807
H99_8 H 0.5856 0.8807 0.6505
H100_8 H 0.8807 0.9144 0.6505
H101_10 H 0.9144 0.6193 0.3495
C150_8 C 0.66399(15) 0.78256(14) 0.61651(15)
C151_8 C 0.78256(14) 0.83601(15) 0.61651(15)
C152_10 C 0.83601(15) 0.71744(14) 0.38349(15)
C153_8 C 0.71744(14) 0.88349(15) 0.66399(15)
C154_8 C 0.88349(15) 0.78256(14) 0.66399(15)
C155_10 C 0.78256(14) 0.61651(15) 0.33601(15)
C156_8 C 0.61651(15) 0.83601(15) 0.71744(14)
C157_8 C 0.83601(15) 0.88349(15) 0.71744(14)
C158_10 C 0.88349(15) 0.66399(15) 0.28256(14)
H104_8 H 0.6707 0.7714 0.6012
H105_8 H 0.7714 0.8293 0.6012
H106_10 H 0.8293 0.7286 0.3988
H107_8 H 0.7286 0.8988 0.6707
H108_8 H 0.8988 0.7714 0.6707
H109_10 H 0.7714 0.6012 0.3293
H110_8 H 0.6012 0.8293 0.7286
H111_8 H 0.8293 0.8988 0.7286
H112_10 H 0.8988 0.6707 0.2714
H115_8 H 0.6472 0.7739 0.6235
H116_8 H 0.7739 0.8528 0.6235
H117_10 H 0.8528 0.7261 0.3765
H118_8 H 0.7261 0.8765 0.6472
H119_8 H 0.8765 0.7739 0.6472
H120_10 H 0.7739 0.6235 0.3528
H121_8 H 0.6235 0.8528 0.7261
H122_8 H 0.8528 0.8765 0.7261
H123_10 H 0.8765 0.6472 0.2739
C161_8 C 0.6851(2) 0.78217(17) 0.63871(18)
C162_8 C 0.78217(17) 0.8149(2) 0.63871(18)
C163_10 C 0.8149(2) 0.71783(17) 0.36129(18)
C164_8 C 0.71783(17) 0.86129(18) 0.6851(2)
C165_8 C 0.86129(18) 0.78217(17) 0.6851(2)
C166_10 C 0.78217(17) 0.63871(18) 0.3149(2)
C167_8 C 0.63871(18) 0.8149(2) 0.71783(17)
C168_8 C 0.8149(2) 0.86129(18) 0.71783(17)
C169_10 C 0.86129(18) 0.6851(2) 0.28217(17)
H126_8 H 0.6775 0.7903 0.6552
H127_8 H 0.7903 0.8225 0.6552
H128_10 H 0.8225 0.7097 0.3448
H129_8 H 0.7097 0.8448 0.6775
H130_8 H 0.8448 0.7903 0.6775
H131_10 H 0.7903 0.6552 0.3225
H132_8 H 0.6552 0.8225 0.7097
H133_8 H 0.8225 0.8448 0.7097
H134_10 H 0.8448 0.6775 0.2903
H137_8 H 0.6904 0.7634 0.6425
H138_8 H 0.7634 0.8096 0.6425
H139_10 H 0.8096 0.7366 0.3575
H140_8 H 0.7366 0.8575 0.6904
H141_8 H 0.8575 0.7634 0.6904
H142_10 H 0.7634 0.6425 0.3096
H143_8 H 0.6425 0.8096 0.7366
H144_8 H 0.8096 0.8575 0.7366
H145_10 H 0.8575 0.6904 0.2634
H148_8 H 0.7010 0.7925 0.6329
H149_8 H 0.7925 0.7990 0.6329
H150_10 H 0.7990 0.7075 0.3671
H151_8 H 0.7075 0.8671 0.7010
H152_8 H 0.8671 0.7925 0.7010
H153_10 H 0.7925 0.6329 0.2990
H154_8 H 0.6329 0.7990 0.7075
H155_8 H 0.7990 0.8671 0.7075
H156_10 H 0.8671 0.7010 0.2925
O35_13 O 0.6950(3) 0.6760(3) 0.5000
O36_13 O 0.8050(3) 0.8240(3) 0.5000
O37_13 O 0.8240(3) 0.6950(3) 0.5000
C170_13 C 0.6707(9) 0.6906(9) 0.5000
C171_13 C 0.8094(9) 0.6707(9) 0.5000
C172_13 C 0.8293(9) 0.8094(9) 0.5000
H157_10 H 0.669751 0.703326 0.481952
H158_13 H 0.653651 0.676531 0.5
H159_10 H 0.669751 0.703326 0.518048
H160_10 H 0.796674 0.669751 0.481952
H161_13 H 0.823469 0.653651 0.5
H162_10 H 0.796674 0.669751 0.518048
H163_10 H 0.830249 0.796674 0.481952
H164_13 H 0.846349 0.823469 0.5
H165_10 H 0.830249 0.796674 0.518048
H166_10 H 0.703326 0.830249 0.481952
H167_13 H 0.676531 0.846349 0.5
H168_10 H 0.703326 0.830249 0.518048
O3_14 O 0.7500 0.2500 0.5000
O4_14 O 0.6760(3) 0.1950(3) 0.5000
C15_14 C 0.6906(9) 0.1707(9) 0.5000
Dy11_9 Dy 0.5000 0.26791(3) 0.29067(3)
Dy15_14 Dy 0.79067(3) 0.0000 0.26791(3)
O6_11 O 0.70625(15) 0.27057(12) 0.47012(13)
O7_9 O 0.72943(12) 0.20625(15) 0.47012(13)
O8_11 O 0.77057(12) 0.29375(15) 0.52988(13)
O10_9 O 0.79375(15) 0.22943(12) 0.47012(13)
O11_11 O 0.79375(15) 0.22943(12) 0.52988(13)
O14_9 O 0.70625(15) 0.02988(13) 0.27057(12)
O15_7 O 0.52988(13) 0.22943(12) 0.29375(15)
O17_9 O 0.77057(12) 0.02988(13) 0.29375(15)
O19_11 O 0.97012(13) 0.27057(12) 0.70625(15)
O20_11 O 0.67263(9) 0.24205(10) 0.46616(9)
O21_11 O 0.74205(10) 0.32737(9) 0.53384(9)
O24_9 O 0.75795(10) 0.17263(9) 0.46616(9)
O25_9 O 0.82737(9) 0.25795(10) 0.46616(9)
O26_11 O 0.82737(9) 0.25795(10) 0.53384(9)
O29_9 O 0.67263(9) 0.03384(9) 0.24205(10)
O30_7 O 0.53384(9) 0.25795(10) 0.32737(9)
O32_9 O 0.74205(10) 0.03384(9) 0.32737(9)
O34_11 O 0.96616(9) 0.24205(10) 0.67263(9)
C16_9 C 0.73657(14) 0.18309(14) 0.45929(12)
C17_9 C 0.81691(14) 0.23657(14) 0.45929(12)
C18_11 C 0.76343(14) 0.31691(14) 0.54071(12)
C21_9 C 0.68309(14) 0.04071(12) 0.26343(14)
C22_9 C 0.54071(12) 0.23657(14) 0.31691(14)
C23_9 C 0.95929(12) 0.18309(14) 0.26343(14)
C24_9 C 0.76343(14) 0.04071(12) 0.31691(14)
C25_11 C 0.81691(14) 0.45929(12) 0.73657(14)
C26_11 C 0.95929(12) 0.26343(14) 0.68309(14)
C27_9 C 0.71969(12) 0.17216(13) 0.43693(12)
C28_9 C 0.82784(13) 0.21969(12) 0.43693(12)
C29_11 C 0.78031(12) 0.32784(13) 0.56307(12)
C32_9 C 0.67216(13) 0.06307(12) 0.28031(12)
C33_9 C 0.56307(12) 0.21969(12) 0.32784(13)
C34_9 C 0.93693(12) 0.17216(13) 0.28031(12)
C35_9 C 0.78031(12) 0.06307(12) 0.32784(13)
C36_11 C 0.82784(13) 0.43693(12) 0.71969(12)
C37_11 C 0.93693(12) 0.28031(12) 0.67216(13)
C38_9 C 0.69695(12) 0.18653(13) 0.42797(12)
C39_9 C 0.81347(13) 0.19695(12) 0.42797(12)
C40_11 C 0.80305(12) 0.31347(13) 0.57203(12)
C43_9 C 0.68653(13) 0.07203(12) 0.30305(12)
C44_9 C 0.57203(12) 0.19695(12) 0.31347(13)
C45_9 C 0.92797(12) 0.18653(13) 0.30305(12)
C46_9 C 0.80305(12) 0.07203(12) 0.31347(13)
C47_11 C 0.81347(13) 0.42797(12) 0.69695(12)
C48_11 C 0.92797(12) 0.30305(12) 0.68653(13)
H14_9 H 0.6918 0.2030 0.4365
H15_9 H 0.7970 0.1918 0.4365
H16_11 H 0.8082 0.2970 0.5635
H19_9 H 0.7030 0.0635 0.3082
H20_9 H 0.5635 0.1918 0.2970
H21_9 H 0.9365 0.2030 0.3082
H22_9 H 0.8082 0.0635 0.2970
H23_11 H 0.7970 0.4365 0.6918
H24_11 H 0.9365 0.3082 0.7030
C51_9 C 0.68185(12) 0.17614(13) 0.40615(11)
C52_9 C 0.82386(13) 0.18185(12) 0.40615(11)
C53_11 C 0.81815(12) 0.32386(13) 0.59385(11)
C54_9 C 0.67614(13) 0.09385(11) 0.31815(12)
C55_9 C 0.59385(11) 0.18185(12) 0.32386(13)
C56_9 C 0.90615(11) 0.17614(13) 0.31815(12)
C57_9 C 0.81815(12) 0.09385(11) 0.32386(13)
C58_11 C 0.82386(13) 0.40615(11) 0.68185(12)
C59_11 C 0.90615(11) 0.31815(12) 0.67614(13)
C62_9 C 0.68939(12) 0.15197(13) 0.39294(12)
C63_9 C 0.84803(13) 0.18939(12) 0.39294(12)
C64_11 C 0.81061(12) 0.34803(13) 0.60706(12)
C65_9 C 0.60706(12) 0.18939(12) 0.34803(13)
C66_9 C 0.81061(12) 0.10706(12) 0.34803(13)
C67_11 C 0.89294(12) 0.31061(12) 0.65197(13)
C68_9 C 0.65197(13) 0.10706(12) 0.31061(12)
C69_9 C 0.89294(12) 0.15197(13) 0.31061(12)
C70_11 C 0.84803(13) 0.39294(12) 0.68939(12)
C73_9 C 0.71214(13) 0.13803(13) 0.40251(13)
C74_9 C 0.86197(13) 0.21214(13) 0.40251(13)
C75_11 C 0.78786(13) 0.36197(13) 0.59749(13)
C76_9 C 0.59749(13) 0.21214(13) 0.36197(13)
C77_9 C 0.78786(13) 0.09749(13) 0.36197(13)
C78_11 C 0.90251(13) 0.28786(13) 0.63803(13)
C79_9 C 0.63803(13) 0.09749(13) 0.28786(13)
C80_9 C 0.90251(13) 0.13803(13) 0.28786(13)
C81_11 C 0.86197(13) 0.40251(13) 0.71214(13)
H27_9 H 0.7176 0.1216 0.3941
H28_9 H 0.8784 0.2176 0.3941
H29_11 H 0.7824 0.3784 0.6059
H30_9 H 0.6059 0.2176 0.3784
H31_9 H 0.7824 0.1059 0.3784
H32_11 H 0.8941 0.2824 0.6216
H33_9 H 0.6216 0.1059 0.2824
H34_9 H 0.8941 0.1216 0.2824
H35_11 H 0.8784 0.3941 0.7176
C82_9 C 0.72670(12) 0.14815(13) 0.42424(13)
C83_9 C 0.85185(13) 0.22670(12) 0.42424(13)
C84_11 C 0.77330(12) 0.35185(13) 0.57576(13)
C87_9 C 0.57576(13) 0.22670(12) 0.35185(13)
C88_9 C 0.77330(12) 0.07576(13) 0.35185(13)
C89_11 C 0.92424(13) 0.27330(12) 0.64815(13)
C90_9 C 0.64815(13) 0.07576(13) 0.27330(12)
C91_9 C 0.92424(13) 0.14815(13) 0.27330(12)
C92_11 C 0.85185(13) 0.42424(13) 0.72670(12)
H36_9 H 0.7420 0.1383 0.4306
H37_9 H 0.8617 0.2420 0.4306
H38_11 H 0.7580 0.3617 0.5694
H41_9 H 0.5694 0.2420 0.3617
H42_9 H 0.7580 0.0694 0.3617
H43_11 H 0.9306 0.2580 0.6383
H44_9 H 0.6383 0.0694 0.2580
H45_9 H 0.9306 0.1383 0.2580
H46_11 H 0.8617 0.4306 0.7420
C95_9 C 0.65664(14) 0.18874(13) 0.39442(12)
C96_9 C 0.81126(13) 0.15664(14) 0.39442(12)
C97_11 C 0.84336(14) 0.31126(13) 0.60558(12)
C98_9 C 0.68874(13) 0.10558(12) 0.34336(14)
C99_9 C 0.89442(12) 0.18874(13) 0.34336(14)
C100_11 C 0.81126(13) 0.39442(12) 0.65664(14)
C101_9 C 0.60558(12) 0.15664(14) 0.31126(13)
C102_9 C 0.84336(14) 0.10558(12) 0.31126(13)
C103_11 C 0.89442(12) 0.34336(14) 0.68874(13)
C106_9 C 0.65022(12) 0.16898(12) 0.37162(12)
C107_9 C 0.83102(12) 0.15022(12) 0.37162(12)
C108_11 C 0.84978(12) 0.33102(12) 0.62838(12)
C109_9 C 0.66898(12) 0.12838(12) 0.34978(12)
C110_9 C 0.87162(12) 0.16898(12) 0.34978(12)
C111_11 C 0.83102(12) 0.37162(12) 0.65022(12)
C112_9 C 0.62838(12) 0.15022(12) 0.33102(12)
C113_9 C 0.84978(12) 0.12838(12) 0.33102(12)
C114_11 C 0.87162(12) 0.34978(12) 0.66898(12)
C117_9 C 0.66967(12) 0.14761(12) 0.37051(12)
C118_9 C 0.85239(12) 0.16967(12) 0.37051(12)
C119_11 C 0.83033(12) 0.35239(12) 0.62949(12)
C120_9 C 0.62949(12) 0.16967(12) 0.35239(12)
C121_9 C 0.83033(12) 0.12949(12) 0.35239(12)
C122_11 C 0.87051(12) 0.33033(12) 0.64761(12)
C123_9 C 0.64761(12) 0.12949(12) 0.33033(12)
C124_9 C 0.87051(12) 0.14761(12) 0.33033(12)
C125_11 C 0.85239(12) 0.37051(12) 0.66967(12)
C128_9 C 0.63500(15) 0.18976(18) 0.41714(15)
C129_9 C 0.81024(18) 0.13500(15) 0.41714(15)
C130_11 C 0.86500(15) 0.31024(18) 0.58286(15)
C131_9 C 0.68976(18) 0.08286(15) 0.36500(15)
C132_9 C 0.91714(15) 0.18976(18) 0.36500(15)
C133_11 C 0.81024(18) 0.41714(15) 0.63500(15)
C134_9 C 0.58286(15) 0.13500(15) 0.31024(18)
C135_9 C 0.86500(15) 0.08286(15) 0.31024(18)
C136_11 C 0.91714(15) 0.36500(15) 0.68976(18)
H49_9 H 0.6183 0.1983 0.4099
H50_9 H 0.8017 0.1183 0.4099
H51_11 H 0.8817 0.3017 0.5901
H52_9 H 0.6983 0.0901 0.3817
H53_9 H 0.9099 0.1983 0.3817
H54_11 H 0.8017 0.4099 0.6183
H55_9 H 0.5901 0.1183 0.3017
H56_9 H 0.8817 0.0901 0.3017
H57_11 H 0.9099 0.3817 0.6983
H60_9 H 0.6418 0.2013 0.4321
H61_9 H 0.7987 0.1418 0.4321
H62_11 H 0.8582 0.2987 0.5679
H63_9 H 0.7013 0.0679 0.3582
H64_9 H 0.9321 0.2013 0.3582
H65_11 H 0.7987 0.4321 0.6418
H66_9 H 0.5679 0.1418 0.2987
H67_9 H 0.8582 0.0679 0.2987
H68_11 H 0.9321 0.3582 0.7013
C139_9 C 0.62767(19) 0.1616(2) 0.42869(19)
C140_9 C 0.8384(2) 0.12767(19) 0.42869(19)
C141_11 C 0.87233(19) 0.3384(2) 0.57131(19)
C142_9 C 0.6616(2) 0.07131(19) 0.37233(19)
C143_9 C 0.92869(19) 0.1616(2) 0.37233(19)
C144_11 C 0.8384(2) 0.42869(19) 0.62767(19)
C145_9 C 0.57131(19) 0.12767(19) 0.3384(2)
C146_9 C 0.87233(19) 0.07131(19) 0.3384(2)
C147_11 C 0.92869(19) 0.37233(19) 0.6616(2)
H71_9 H 0.6442 0.1526 0.4352
H72_9 H 0.8474 0.1442 0.4352
H73_11 H 0.8558 0.3474 0.5648
H74_9 H 0.6526 0.0648 0.3558
H75_9 H 0.9352 0.1526 0.3558
H76_11 H 0.8474 0.4352 0.6442
H77_9 H 0.5648 0.1442 0.3474
H78_9 H 0.8558 0.0648 0.3474
H79_11 H 0.9352 0.3558 0.6526
H82_9 H 0.6149 0.1637 0.4438
H83_9 H 0.8363 0.1149 0.4438
H84_11 H 0.8851 0.3363 0.5562
H85_9 H 0.6637 0.0562 0.3851
H86_9 H 0.9438 0.1637 0.3851
H87_11 H 0.8363 0.4438 0.6149
H88_9 H 0.5562 0.1149 0.3363
H89_9 H 0.8851 0.0562 0.3363
H90_11 H 0.9438 0.3851 0.6637
H93_9 H 0.6193 0.1505 0.4144
H94_9 H 0.8495 0.1193 0.4144
H95_11 H 0.8807 0.3495 0.5856
H96_9 H 0.6505 0.0856 0.3807
H97_9 H 0.9144 0.1505 0.3807
H98_11 H 0.8495 0.4144 0.6193
H99_9 H 0.5856 0.1193 0.3495
H100_9 H 0.8807 0.0856 0.3495
H101_11 H 0.9144 0.3807 0.6505
C150_9 C 0.66399(15) 0.21744(14) 0.38349(15)
C151_9 C 0.78256(14) 0.16399(15) 0.38349(15)
C152_11 C 0.83601(15) 0.28256(14) 0.61651(15)
C153_9 C 0.71744(14) 0.11651(15) 0.33601(15)
C154_9 C 0.88349(15) 0.21744(14) 0.33601(15)
C155_11 C 0.78256(14) 0.38349(15) 0.66399(15)
C156_9 C 0.61651(15) 0.16399(15) 0.28256(14)
C157_9 C 0.83601(15) 0.11651(15) 0.28256(14)
C158_11 C 0.88349(15) 0.33601(15) 0.71744(14)
H104_9 H 0.6707 0.2286 0.3988
H105_9 H 0.7714 0.1707 0.3988
H106_11 H 0.8293 0.2714 0.6012
H107_9 H 0.7286 0.1012 0.3293
H108_9 H 0.8988 0.2286 0.3293
H109_11 H 0.7714 0.3988 0.6707
H110_9 H 0.6012 0.1707 0.2714
H111_9 H 0.8293 0.1012 0.2714
H112_11 H 0.8988 0.3293 0.7286
H115_9 H 0.6472 0.2261 0.3765
H116_9 H 0.7739 0.1472 0.3765
H117_11 H 0.8528 0.2739 0.6235
H118_9 H 0.7261 0.1235 0.3528
H119_9 H 0.8765 0.2261 0.3528
H120_11 H 0.7739 0.3765 0.6472
H121_9 H 0.6235 0.1472 0.2739
H122_9 H 0.8528 0.1235 0.2739
H123_11 H 0.8765 0.3528 0.7261
C161_9 C 0.6851(2) 0.21783(17) 0.36129(18)
C162_9 C 0.78217(17) 0.1851(2) 0.36129(18)
C163_11 C 0.8149(2) 0.28217(17) 0.63871(18)
C164_9 C 0.71783(17) 0.13871(18) 0.3149(2)
C165_9 C 0.86129(18) 0.21783(17) 0.3149(2)
C166_11 C 0.78217(17) 0.36129(18) 0.6851(2)
C167_9 C 0.63871(18) 0.1851(2) 0.28217(17)
C168_9 C 0.8149(2) 0.13871(18) 0.28217(17)
C169_11 C 0.86129(18) 0.3149(2) 0.71783(17)
H126_9 H 0.6775 0.2097 0.3448
H127_9 H 0.7903 0.1775 0.3448
H128_11 H 0.8225 0.2903 0.6552
H129_9 H 0.7097 0.1552 0.3225
H130_9 H 0.8448 0.2097 0.3225
H131_11 H 0.7903 0.3448 0.6775
H132_9 H 0.6552 0.1775 0.2903
H133_9 H 0.8225 0.1552 0.2903
H134_11 H 0.8448 0.3225 0.7097
H137_9 H 0.6904 0.2366 0.3575
H138_9 H 0.7634 0.1904 0.3575
H139_11 H 0.8096 0.2634 0.6425
H140_9 H 0.7366 0.1425 0.3096
H141_9 H 0.8575 0.2366 0.3096
H142_11 H 0.7634 0.3575 0.6904
H143_9 H 0.6425 0.1904 0.2634
H144_9 H 0.8096 0.1425 0.2634
H145_11 H 0.8575 0.3096 0.7366
H148_9 H 0.7010 0.2075 0.3671
H149_9 H 0.7925 0.2010 0.3671
H150_11 H 0.7990 0.2925 0.6329
H151_9 H 0.7075 0.1329 0.2990
H152_9 H 0.8671 0.2075 0.2990
H153_11 H 0.7925 0.3671 0.7010
H154_9 H 0.6329 0.2010 0.2925
H155_9 H 0.7990 0.1329 0.2925
H156_11 H 0.8671 0.2990 0.7075
O35_14 O 0.6950(3) 0.3240(3) 0.5000
O36_14 O 0.8050(3) 0.1760(3) 0.5000
O37_14 O 0.8240(3) 0.3050(3) 0.5000
C170_14 C 0.6707(9) 0.3094(9) 0.5000
C171_14 C 0.8094(9) 0.3293(9) 0.5000
C172_14 C 0.8293(9) 0.1906(9) 0.5000
H157_11 H 0.669751 0.296674 0.518048
H158_14 H 0.653651 0.323469 0.5
H159_11 H 0.669751 0.296674 0.481952
H160_11 H 0.796674 0.330249 0.518048
H161_14 H 0.823469 0.346349 0.5
H162_11 H 0.796674 0.330249 0.481952
H163_11 H 0.830249 0.203326 0.518048
H164_14 H 0.846349 0.176531 0.5
H165_11 H 0.830249 0.203326 0.481952
H166_11 H 0.703326 0.169751 0.518048
H167_14 H 0.676531 0.153651 0.5
H168_11 H 0.703326 0.169751 0.481952
Dy15_15 Dy 0.79067(3) 1.0000 0.26791(3)
O3_15 O 0.2500 0.7500 0.5000
O4_15 O 0.3240(3) 0.8050(3) 0.5000
C15_15 C 0.3094(9) 0.8293(9) 0.5000
O6_12 O 0.29375(15) 0.72943(12) 0.47012(13)
O8_12 O 0.22943(12) 0.70625(15) 0.52988(13)
O9_8 O 0.22943(12) 0.70625(15) 0.47012(13)
O11_12 O 0.20625(15) 0.77057(12) 0.52988(13)
O19_12 O 0.02988(13) 0.72943(12) 0.70625(15)
O20_12 O 0.32737(9) 0.75795(10) 0.46616(9)
O21_12 O 0.25795(10) 0.67263(9) 0.53384(9)
O22_8 O 0.25795(10) 0.67263(9) 0.46616(9)
O26_12 O 0.17263(9) 0.74205(10) 0.53384(9)
O34_12 O 0.03384(9) 0.75795(10) 0.67263(9)
C18_12 C 0.23657(14) 0.68309(14) 0.54071(12)
C25_12 C 0.18309(14) 0.54071(12) 0.73657(14)
C26_12 C 0.04071(12) 0.73657(14) 0.68309(14)
C29_12 C 0.21969(12) 0.67216(13) 0.56307(12)
C36_12 C 0.17216(13) 0.56307(12) 0.71969(12)
C37_12 C 0.06307(12) 0.71969(12) 0.67216(13)
C40_12 C 0.19695(12) 0.68653(13) 0.57203(12)
C47_12 C 0.18653(13) 0.57203(12) 0.69695(12)
C48_12 C 0.07203(12) 0.69695(12) 0.68653(13)
H16_12 H 0.1918 0.7030 0.5635
H23_12 H 0.2030 0.5635 0.6918
H24_12 H 0.0635 0.6918 0.7030
C53_12 C 0.18185(12) 0.67614(13) 0.59385(11)
C58_12 C 0.17614(13) 0.59385(11) 0.68185(12)
C59_12 C 0.09385(11) 0.68185(12) 0.67614(13)
C64_12 C 0.18939(12) 0.65197(13) 0.60706(12)
C67_12 C 0.10706(12) 0.68939(12) 0.65197(13)
C70_12 C 0.15197(13) 0.60706(12) 0.68939(12)
C75_12 C 0.21214(13) 0.63803(13) 0.59749(13)
C78_12 C 0.09749(13) 0.71214(13) 0.63803(13)
C81_12 C 0.13803(13) 0.59749(13) 0.71214(13)
H29_12 H 0.2176 0.6216 0.6059
H32_12 H 0.1059 0.7176 0.6216
H35_12 H 0.1216 0.6059 0.7176
C84_12 C 0.22670(12) 0.64815(13) 0.57576(13)
C89_12 C 0.07576(13) 0.72670(12) 0.64815(13)
C92_12 C 0.14815(13) 0.57576(13) 0.72670(12)
H38_12 H 0.2420 0.6383 0.5694
H43_12 H 0.0694 0.7420 0.6383
H46_12 H 0.1383 0.5694 0.7420
C97_12 C 0.15664(14) 0.68874(13) 0.60558(12)
C100_12 C 0.18874(13) 0.60558(12) 0.65664(14)
C103_12 C 0.10558(12) 0.65664(14) 0.68874(13)
C108_12 C 0.15022(12) 0.66898(12) 0.62838(12)
C111_12 C 0.16898(12) 0.62838(12) 0.65022(12)
C114_12 C 0.12838(12) 0.65022(12) 0.66898(12)
C119_12 C 0.16967(12) 0.64761(12) 0.62949(12)
C122_12 C 0.12949(12) 0.66967(12) 0.64761(12)
C125_12 C 0.14761(12) 0.62949(12) 0.66967(12)
C130_12 C 0.13500(15) 0.68976(18) 0.58286(15)
C133_12 C 0.18976(18) 0.58286(15) 0.63500(15)
C136_12 C 0.08286(15) 0.63500(15) 0.68976(18)
H51_12 H 0.1183 0.6983 0.5901
H54_12 H 0.1983 0.5901 0.6183
H57_12 H 0.0901 0.6183 0.6983
H62_12 H 0.1418 0.7013 0.5679
H65_12 H 0.2013 0.5679 0.6418
H68_12 H 0.0679 0.6418 0.7013
C141_12 C 0.12767(19) 0.6616(2) 0.57131(19)
C144_12 C 0.1616(2) 0.57131(19) 0.62767(19)
C147_12 C 0.07131(19) 0.62767(19) 0.6616(2)
H73_12 H 0.1442 0.6526 0.5648
H76_12 H 0.1526 0.5648 0.6442
H79_12 H 0.0648 0.6442 0.6526
H84_12 H 0.1149 0.6637 0.5562
H87_12 H 0.1637 0.5562 0.6149
H90_12 H 0.0562 0.6149 0.6637
H95_12 H 0.1193 0.6505 0.5856
H98_12 H 0.1505 0.5856 0.6193
H101_12 H 0.0856 0.6193 0.6505
C152_12 C 0.16399(15) 0.71744(14) 0.61651(15)
C155_12 C 0.21744(14) 0.61651(15) 0.66399(15)
C158_12 C 0.11651(15) 0.66399(15) 0.71744(14)
H106_12 H 0.1707 0.7286 0.6012
H109_12 H 0.2286 0.6012 0.6707
H112_12 H 0.1012 0.6707 0.7286
H117_12 H 0.1472 0.7261 0.6235
H120_12 H 0.2261 0.6235 0.6472
H123_12 H 0.1235 0.6472 0.7261
C163_12 C 0.1851(2) 0.71783(17) 0.63871(18)
C166_12 C 0.21783(17) 0.63871(18) 0.6851(2)
C169_12 C 0.13871(18) 0.6851(2) 0.71783(17)
H128_12 H 0.1775 0.7097 0.6552
H131_12 H 0.2097 0.6552 0.6775
H134_12 H 0.1552 0.6775 0.7097
H139_12 H 0.1904 0.7366 0.6425
H142_12 H 0.2366 0.6425 0.6904
H145_12 H 0.1425 0.6904 0.7366
H150_12 H 0.2010 0.7075 0.6329
H153_12 H 0.2075 0.6329 0.7010
H156_12 H 0.1329 0.7010 0.7075
O35_15 O 0.3050(3) 0.6760(3) 0.5000
O36_15 O 0.1950(3) 0.8240(3) 0.5000
O37_15 O 0.1760(3) 0.6950(3) 0.5000
C170_15 C 0.3293(9) 0.6906(9) 0.5000
C171_15 C 0.1906(9) 0.6707(9) 0.5000
C172_15 C 0.1707(9) 0.8094(9) 0.5000
H157_12 H 0.330249 0.703326 0.518048
H158_15 H 0.346349 0.676531 0.5
H159_12 H 0.330249 0.703326 0.481952
H160_12 H 0.203326 0.669751 0.518048
H161_15 H 0.176531 0.653651 0.5
H162_12 H 0.203326 0.669751 0.481952
H163_12 H 0.169751 0.796674 0.518048
H164_15 H 0.153651 0.823469 0.5
H165_12 H 0.169751 0.796674 0.481952
H166_12 H 0.296674 0.830249 0.518048
H167_15 H 0.323469 0.846349 0.5
H168_12 H 0.296674 0.830249 0.481952
Dy17_10 Dy 0.20933(3) 0.76791(3) 0.0000
O3_16 O -0.0000 0.7500 0.7500
O4_16 O -0.0000 0.8050(3) 0.6760(3)
C15_16 C 0.0000 0.8293(9) 0.6906(9)
Dy17_11 Dy 0.20933(3) 0.76791(3) 1.0000
O5_5 O 0.02988(13) 0.79375(15) 0.72943(12)
O8_13 O 0.02988(13) 0.70625(15) 0.77057(12)
O11_13 O 0.02988(13) 0.77057(12) 0.79375(15)
O19_13 O 0.20625(15) 0.72943(12) 0.97012(13)
O21_13 O 0.03384(9) 0.67263(9) 0.74205(10)
O23_5 O 0.03384(9) 0.82737(9) 0.75795(10)
O26_13 O 0.03384(9) 0.74205(10) 0.82737(9)
O34_13 O 0.17263(9) 0.75795(10) 0.96616(9)
C18_13 C 0.04071(12) 0.68309(14) 0.76343(14)
C25_13 C 0.23657(14) 0.54071(12) 0.81691(14)
C26_13 C 0.18309(14) 0.73657(14) 0.95929(12)
C29_13 C 0.06307(12) 0.67216(13) 0.78031(12)
C36_13 C 0.21969(12) 0.56307(12) 0.82784(13)
C37_13 C 0.17216(13) 0.71969(12) 0.93693(12)
C40_13 C 0.07203(12) 0.68653(13) 0.80305(12)
C47_13 C 0.19695(12) 0.57203(12) 0.81347(13)
C48_13 C 0.18653(13) 0.69695(12) 0.92797(12)
H16_13 H 0.0635 0.7030 0.8082
H23_13 H 0.1918 0.5635 0.7970
H24_13 H 0.2030 0.6918 0.9365
C53_13 C 0.09385(11) 0.67614(13) 0.81815(12)
C58_13 C 0.18185(12) 0.59385(11) 0.82386(13)
C59_13 C 0.17614(13) 0.68185(12) 0.90615(11)
C64_13 C 0.10706(12) 0.65197(13) 0.81061(12)
C67_13 C 0.15197(13) 0.68939(12) 0.89294(12)
C70_13 C 0.18939(12) 0.60706(12) 0.84803(13)
C75_13 C 0.09749(13) 0.63803(13) 0.78786(13)
C78_13 C 0.13803(13) 0.71214(13) 0.90251(13)
C81_13 C 0.21214(13) 0.59749(13) 0.86197(13)
H29_13 H 0.1059 0.6216 0.7824
H32_13 H 0.1216 0.7176 0.8941
H35_13 H 0.2176 0.6059 0.8784
C84_13 C 0.07576(13) 0.64815(13) 0.77330(12)
C89_13 C 0.14815(13) 0.72670(12) 0.92424(13)
C92_13 C 0.22670(12) 0.57576(13) 0.85185(13)
H38_13 H 0.0694 0.6383 0.7580
H43_13 H 0.1383 0.7420 0.9306
H46_13 H 0.2420 0.5694 0.8617
C97_13 C 0.10558(12) 0.68874(13) 0.84336(14)
C100_13 C 0.15664(14) 0.60558(12) 0.81126(13)
C103_13 C 0.18874(13) 0.65664(14) 0.89442(12)
C108_13 C 0.12838(12) 0.66898(12) 0.84978(12)
C111_13 C 0.15022(12) 0.62838(12) 0.83102(12)
C114_13 C 0.16898(12) 0.65022(12) 0.87162(12)
C119_13 C 0.12949(12) 0.64761(12) 0.83033(12)
C122_13 C 0.14761(12) 0.66967(12) 0.87051(12)
C125_13 C 0.16967(12) 0.62949(12) 0.85239(12)
C130_13 C 0.08286(15) 0.68976(18) 0.86500(15)
C133_13 C 0.13500(15) 0.58286(15) 0.81024(18)
C136_13 C 0.18976(18) 0.63500(15) 0.91714(15)
H51_13 H 0.0901 0.6983 0.8817
H54_13 H 0.1183 0.5901 0.8017
H57_13 H 0.1983 0.6183 0.9099
H62_13 H 0.0679 0.7013 0.8582
H65_13 H 0.1418 0.5679 0.7987
H68_13 H 0.2013 0.6418 0.9321
C141_13 C 0.07131(19) 0.6616(2) 0.87233(19)
C144_13 C 0.12767(19) 0.57131(19) 0.8384(2)
C147_13 C 0.1616(2) 0.62767(19) 0.92869(19)
H73_13 H 0.0648 0.6526 0.8558
H76_13 H 0.1442 0.5648 0.8474
H79_13 H 0.1526 0.6442 0.9352
H84_13 H 0.0562 0.6637 0.8851
H87_13 H 0.1149 0.5562 0.8363
H90_13 H 0.1637 0.6149 0.9438
H95_13 H 0.0856 0.6505 0.8807
H98_13 H 0.1193 0.5856 0.8495
H101_13 H 0.1505 0.6193 0.9144
C152_13 C 0.11651(15) 0.71744(14) 0.83601(15)
C155_13 C 0.16399(15) 0.61651(15) 0.78256(14)
C158_13 C 0.21744(14) 0.66399(15) 0.88349(15)
H106_13 H 0.1012 0.7286 0.8293
H109_13 H 0.1707 0.6012 0.7714
H112_13 H 0.2286 0.6707 0.8988
H117_13 H 0.1235 0.7261 0.8528
H120_13 H 0.1472 0.6235 0.7739
H123_13 H 0.2261 0.6472 0.8765
C163_13 C 0.13871(18) 0.71783(17) 0.8149(2)
C166_13 C 0.1851(2) 0.63871(18) 0.78217(17)
C169_13 C 0.21783(17) 0.6851(2) 0.86129(18)
H128_13 H 0.1552 0.7097 0.8225
H131_13 H 0.1775 0.6552 0.7903
H134_13 H 0.2097 0.6775 0.8448
H139_13 H 0.1425 0.7366 0.8096
H142_13 H 0.1904 0.6425 0.7634
H145_13 H 0.2366 0.6904 0.8575
H150_13 H 0.1329 0.7075 0.7990
H153_13 H 0.2010 0.6329 0.7925
H156_13 H 0.2075 0.7010 0.8671
O35_16 O -0.0000 0.6760(3) 0.6950(3)
O36_16 O -0.0000 0.8240(3) 0.8050(3)
O37_16 O -0.0000 0.6950(3) 0.8240(3)
C170_16 C -0.0000 0.6906(9) 0.6707(9)
C171_16 C 0.0000 0.6707(9) 0.8094(9)
C172_16 C 0.0000 0.8094(9) 0.8293(9)
H157_13 H 0.0180479 0.703326 0.669751
H158_16 H 2.55215e-18 0.676531 0.653651
H160_13 H 0.0180479 0.669751 0.796674
H161_16 H 2.55215e-18 0.653651 0.823469
H163_13 H 0.0180479 0.796674 0.830249
H164_16 H 2.55215e-18 0.823469 0.846349
H166_13 H 0.0180479 0.830249 0.703326
H167_16 H 2.55215e-18 0.846349 0.676531
O3_17 O 1.0000 0.7500 0.7500
O4_17 O 1.0000 0.8050(3) 0.6760(3)
C15_17 C 1.0000 0.8293(9) 0.6906(9)
O10_10 O 0.97012(13) 0.77057(12) 0.79375(15)
O16_7 O 0.77057(12) 0.79375(15) 0.97012(13)
O17_10 O 0.79375(15) 0.97012(13) 0.77057(12)
O25_10 O 0.96616(9) 0.74205(10) 0.82737(9)
O31_7 O 0.74205(10) 0.82737(9) 0.96616(9)
O32_10 O 0.82737(9) 0.96616(9) 0.74205(10)
C17_10 C 0.95929(12) 0.76343(14) 0.81691(14)
C23_10 C 0.76343(14) 0.81691(14) 0.95929(12)
C24_10 C 0.81691(14) 0.95929(12) 0.76343(14)
C28_10 C 0.93693(12) 0.78031(12) 0.82784(13)
C34_10 C 0.78031(12) 0.82784(13) 0.93693(12)
C35_10 C 0.82784(13) 0.93693(12) 0.78031(12)
C39_10 C 0.92797(12) 0.80305(12) 0.81347(13)
C45_10 C 0.80305(12) 0.81347(13) 0.92797(12)
C46_10 C 0.81347(13) 0.92797(12) 0.80305(12)
H15_10 H 0.9365 0.8082 0.7970
H21_10 H 0.8082 0.7970 0.9365
H22_10 H 0.7970 0.9365 0.8082
C52_10 C 0.90615(11) 0.81815(12) 0.82386(13)
C56_10 C 0.81815(12) 0.82386(13) 0.90615(11)
C57_10 C 0.82386(13) 0.90615(11) 0.81815(12)
C63_10 C 0.89294(12) 0.81061(12) 0.84803(13)
C66_10 C 0.84803(13) 0.89294(12) 0.81061(12)
C69_10 C 0.81061(12) 0.84803(13) 0.89294(12)
C74_10 C 0.90251(13) 0.78786(13) 0.86197(13)
C77_10 C 0.86197(13) 0.90251(13) 0.78786(13)
C80_10 C 0.78786(13) 0.86197(13) 0.90251(13)
H28_10 H 0.8941 0.7824 0.8784
H31_10 H 0.8784 0.8941 0.7824
H34_10 H 0.7824 0.8784 0.8941
C83_10 C 0.92424(13) 0.77330(12) 0.85185(13)
C88_10 C 0.85185(13) 0.92424(13) 0.77330(12)
C91_10 C 0.77330(12) 0.85185(13) 0.92424(13)
H37_10 H 0.9306 0.7580 0.8617
H42_10 H 0.8617 0.9306 0.7580
H45_10 H 0.7580 0.8617 0.9306
C96_10 C 0.89442(12) 0.84336(14) 0.81126(13)
C99_10 C 0.84336(14) 0.81126(13) 0.89442(12)
C102_10 C 0.81126(13) 0.89442(12) 0.84336(14)
C107_10 C 0.87162(12) 0.84978(12) 0.83102(12)
C110_10 C 0.84978(12) 0.83102(12) 0.87162(12)
C113_10 C 0.83102(12) 0.87162(12) 0.84978(12)
C118_10 C 0.87051(12) 0.83033(12) 0.85239(12)
C121_10 C 0.85239(12) 0.87051(12) 0.83033(12)
C124_10 C 0.83033(12) 0.85239(12) 0.87051(12)
C129_10 C 0.91714(15) 0.86500(15) 0.81024(18)
C132_10 C 0.86500(15) 0.81024(18) 0.91714(15)
C135_10 C 0.81024(18) 0.91714(15) 0.86500(15)
H50_10 H 0.9099 0.8817 0.8017
H53_10 H 0.8817 0.8017 0.9099
H56_10 H 0.8017 0.9099 0.8817
H61_10 H 0.9321 0.8582 0.7987
H64_10 H 0.8582 0.7987 0.9321
H67_10 H 0.7987 0.9321 0.8582
C140_10 C 0.92869(19) 0.87233(19) 0.8384(2)
C143_10 C 0.87233(19) 0.8384(2) 0.92869(19)
C146_10 C 0.8384(2) 0.92869(19) 0.87233(19)
H72_10 H 0.9352 0.8558 0.8474
H75_10 H 0.8558 0.8474 0.9352
H78_10 H 0.8474 0.9352 0.8558
H83_10 H 0.9438 0.8851 0.8363
H86_10 H 0.8851 0.8363 0.9438
H89_10 H 0.8363 0.9438 0.8851
H94_10 H 0.9144 0.8807 0.8495
H97_10 H 0.8807 0.8495 0.9144
H100_10 H 0.8495 0.9144 0.8807
C151_10 C 0.88349(15) 0.83601(15) 0.78256(14)
C154_10 C 0.83601(15) 0.78256(14) 0.88349(15)
C157_10 C 0.78256(14) 0.88349(15) 0.83601(15)
H105_10 H 0.8988 0.8293 0.7714
H108_10 H 0.8293 0.7714 0.8988
H111_10 H 0.7714 0.8988 0.8293
H116_10 H 0.8765 0.8528 0.7739
H119_10 H 0.8528 0.7739 0.8765
H122_10 H 0.7739 0.8765 0.8528
C162_10 C 0.86129(18) 0.8149(2) 0.78217(17)
C165_10 C 0.8149(2) 0.78217(17) 0.86129(18)
C168_10 C 0.78217(17) 0.86129(18) 0.8149(2)
H127_10 H 0.8448 0.8225 0.7903
H130_10 H 0.8225 0.7903 0.8448
H133_10 H 0.7903 0.8448 0.8225
H138_10 H 0.8575 0.8096 0.7634
H141_10 H 0.8096 0.7634 0.8575
H144_10 H 0.7634 0.8575 0.8096
H149_10 H 0.8671 0.7990 0.7925
H152_10 H 0.7990 0.7925 0.8671
H155_10 H 0.7925 0.8671 0.7990
O35_17 O 1.0000 0.6760(3) 0.6950(3)
O36_17 O 1.0000 0.8240(3) 0.8050(3)
O37_17 O 1.0000 0.6950(3) 0.8240(3)
C170_17 C 1.0000 0.6906(9) 0.6707(9)
C171_17 C 1.0000 0.6707(9) 0.8094(9)
C172_17 C 1.0000 0.8094(9) 0.8293(9)
H158_17 H 1 0.676531 0.653651
H159_13 H 0.981952 0.703326 0.669751
H161_17 H 1 0.653651 0.823469
H162_13 H 0.981952 0.669751 0.796674
H164_17 H 1 0.823469 0.846349
H165_13 H 0.981952 0.796674 0.830249
H167_17 H 1 0.846349 0.676531
H168_13 H 0.981952 0.830249 0.703326
Dy18_18 Dy 0.20933(3) -0.0000 0.73209(3)
Dy11_10 Dy 0.23209(3) 0.5000 0.29067(3)
Dy18_19 Dy 0.20933(3) 1.0000 0.73209(3)
O15_8 O 0.27057(12) 0.52988(13) 0.29375(15)
O19_14 O 0.22943(12) 0.97012(13) 0.70625(15)
O30_8 O 0.24205(10) 0.53384(9) 0.32737(9)
O34_14 O 0.25795(10) 0.96616(9) 0.67263(9)
C16_10 C 0.31691(14) 0.73657(14) 0.45929(12)
C18_14 C 0.18309(14) 0.76343(14) 0.54071(12)
C21_10 C 0.45929(12) 0.68309(14) 0.26343(14)
C22_10 C 0.26343(14) 0.54071(12) 0.31691(14)
C25_14 C 0.04071(12) 0.81691(14) 0.73657(14)
C26_14 C 0.23657(14) 0.95929(12) 0.68309(14)
C27_10 C 0.32784(13) 0.71969(12) 0.43693(12)
C29_14 C 0.17216(13) 0.78031(12) 0.56307(12)
C32_10 C 0.43693(12) 0.67216(13) 0.28031(12)
C33_10 C 0.28031(12) 0.56307(12) 0.32784(13)
C36_14 C 0.06307(12) 0.82784(13) 0.71969(12)
C37_14 C 0.21969(12) 0.93693(12) 0.67216(13)
C38_10 C 0.31347(13) 0.69695(12) 0.42797(12)
C40_14 C 0.18653(13) 0.80305(12) 0.57203(12)
C43_10 C 0.42797(12) 0.68653(13) 0.30305(12)
C44_10 C 0.30305(12) 0.57203(12) 0.31347(13)
C47_14 C 0.07203(12) 0.81347(13) 0.69695(12)
C48_14 C 0.19695(12) 0.92797(12) 0.68653(13)
H14_10 H 0.2970 0.6918 0.4365
H16_14 H 0.2030 0.8082 0.5635
H19_10 H 0.4365 0.7030 0.3082
H20_10 H 0.3082 0.5635 0.2970
H23_14 H 0.0635 0.7970 0.6918
H24_14 H 0.1918 0.9365 0.7030
C51_10 C 0.32386(13) 0.68185(12) 0.40615(11)
C53_14 C 0.17614(13) 0.81815(12) 0.59385(11)
C54_10 C 0.40615(11) 0.67614(13) 0.31815(12)
C55_10 C 0.31815(12) 0.59385(11) 0.32386(13)
C58_14 C 0.09385(11) 0.82386(13) 0.68185(12)
C59_14 C 0.18185(12) 0.90615(11) 0.67614(13)
C62_10 C 0.34803(13) 0.68939(12) 0.39294(12)
C64_14 C 0.15197(13) 0.81061(12) 0.60706(12)
C65_10 C 0.31061(12) 0.60706(12) 0.34803(13)
C67_14 C 0.18939(12) 0.89294(12) 0.65197(13)
C68_10 C 0.39294(12) 0.65197(13) 0.31061(12)
C70_14 C 0.10706(12) 0.84803(13) 0.68939(12)
C73_10 C 0.36197(13) 0.71214(13) 0.40251(13)
C75_14 C 0.13803(13) 0.78786(13) 0.59749(13)
C76_10 C 0.28786(13) 0.59749(13) 0.36197(13)
C78_14 C 0.21214(13) 0.90251(13) 0.63803(13)
C79_10 C 0.40251(13) 0.63803(13) 0.28786(13)
C81_14 C 0.09749(13) 0.86197(13) 0.71214(13)
H27_10 H 0.3784 0.7176 0.3941
H29_14 H 0.1216 0.7824 0.6059
H30_10 H 0.2824 0.6059 0.3784
H32_14 H 0.2176 0.8941 0.6216
H33_10 H 0.3941 0.6216 0.2824
H35_14 H 0.1059 0.8784 0.7176
C82_10 C 0.35185(13) 0.72670(12) 0.42424(13)
C84_14 C 0.14815(13) 0.77330(12) 0.57576(13)
C87_10 C 0.27330(12) 0.57576(13) 0.35185(13)
C89_14 C 0.22670(12) 0.92424(13) 0.64815(13)
C90_10 C 0.42424(13) 0.64815(13) 0.27330(12)
C92_14 C 0.07576(13) 0.85185(13) 0.72670(12)
H36_10 H 0.3617 0.7420 0.4306
H38_14 H 0.1383 0.7580 0.5694
H41_10 H 0.2580 0.5694 0.3617
H43_14 H 0.2420 0.9306 0.6383
H44_10 H 0.4306 0.6383 0.2580
H46_14 H 0.0694 0.8617 0.7420
C95_10 C 0.31126(13) 0.65664(14) 0.39442(12)
C97_14 C 0.18874(13) 0.84336(14) 0.60558(12)
C98_10 C 0.39442(12) 0.68874(13) 0.34336(14)
C100_14 C 0.10558(12) 0.81126(13) 0.65664(14)
C101_10 C 0.34336(14) 0.60558(12) 0.31126(13)
C103_14 C 0.15664(14) 0.89442(12) 0.68874(13)
C106_10 C 0.33102(12) 0.65022(12) 0.37162(12)
C108_14 C 0.16898(12) 0.84978(12) 0.62838(12)
C109_10 C 0.37162(12) 0.66898(12) 0.34978(12)
C111_14 C 0.12838(12) 0.83102(12) 0.65022(12)
C112_10 C 0.34978(12) 0.62838(12) 0.33102(12)
C114_14 C 0.15022(12) 0.87162(12) 0.66898(12)
C117_10 C 0.35239(12) 0.66967(12) 0.37051(12)
C119_14 C 0.14761(12) 0.83033(12) 0.62949(12)
C120_10 C 0.33033(12) 0.62949(12) 0.35239(12)
C122_14 C 0.16967(12) 0.87051(12) 0.64761(12)
C123_10 C 0.37051(12) 0.64761(12) 0.33033(12)
C125_14 C 0.12949(12) 0.85239(12) 0.66967(12)
C128_10 C 0.31024(18) 0.63500(15) 0.41714(15)
C130_14 C 0.18976(18) 0.86500(15) 0.58286(15)
C131_10 C 0.41714(15) 0.68976(18) 0.36500(15)
C133_14 C 0.08286(15) 0.81024(18) 0.63500(15)
C134_10 C 0.36500(15) 0.58286(15) 0.31024(18)
C136_14 C 0.13500(15) 0.91714(15) 0.68976(18)
H49_10 H 0.3017 0.6183 0.4099
H51_14 H 0.1983 0.8817 0.5901
H52_10 H 0.4099 0.6983 0.3817
H54_14 H 0.0901 0.8017 0.6183
H55_10 H 0.3817 0.5901 0.3017
H57_14 H 0.1183 0.9099 0.6983
H60_10 H 0.2987 0.6418 0.4321
H62_14 H 0.2013 0.8582 0.5679
H63_10 H 0.4321 0.7013 0.3582
H65_14 H 0.0679 0.7987 0.6418
H66_10 H 0.3582 0.5679 0.2987
H68_14 H 0.1418 0.9321 0.7013
C139_10 C 0.3384(2) 0.62767(19) 0.42869(19)
C141_14 C 0.1616(2) 0.87233(19) 0.57131(19)
C142_10 C 0.42869(19) 0.6616(2) 0.37233(19)
C144_14 C 0.07131(19) 0.8384(2) 0.62767(19)
C145_10 C 0.37233(19) 0.57131(19) 0.3384(2)
C147_14 C 0.12767(19) 0.92869(19) 0.6616(2)
H71_10 H 0.3474 0.6442 0.4352
H73_14 H 0.1526 0.8558 0.5648
H74_10 H 0.4352 0.6526 0.3558
H76_14 H 0.0648 0.8474 0.6442
H77_10 H 0.3558 0.5648 0.3474
H79_14 H 0.1442 0.9352 0.6526
H82_10 H 0.3363 0.6149 0.4438
H84_14 H 0.1637 0.8851 0.5562
H85_10 H 0.4438 0.6637 0.3851
H87_14 H 0.0562 0.8363 0.6149
H88_10 H 0.3851 0.5562 0.3363
H90_14 H 0.1149 0.9438 0.6637
H93_10 H 0.3495 0.6193 0.4144
H95_14 H 0.1505 0.8807 0.5856
H96_10 H 0.4144 0.6505 0.3807
H98_14 H 0.0856 0.8495 0.6193
H99_10 H 0.3807 0.5856 0.3495
H101_14 H 0.1193 0.9144 0.6505
C150_10 C 0.28256(14) 0.66399(15) 0.38349(15)
C152_14 C 0.21744(14) 0.83601(15) 0.61651(15)
C153_10 C 0.38349(15) 0.71744(14) 0.33601(15)
C155_14 C 0.11651(15) 0.78256(14) 0.66399(15)
C156_10 C 0.33601(15) 0.61651(15) 0.28256(14)
C158_14 C 0.16399(15) 0.88349(15) 0.71744(14)
H104_10 H 0.2714 0.6707 0.3988
H106_14 H 0.2286 0.8293 0.6012
H107_10 H 0.3988 0.7286 0.3293
H109_14 H 0.1012 0.7714 0.6707
H110_10 H 0.3293 0.6012 0.2714
H112_14 H 0.1707 0.8988 0.7286
H115_10 H 0.2739 0.6472 0.3765
H117_14 H 0.2261 0.8528 0.6235
H118_10 H 0.3765 0.7261 0.3528
H120_14 H 0.1235 0.7739 0.6472
H121_10 H 0.3528 0.6235 0.2739
H123_14 H 0.1472 0.8765 0.7261
C161_10 C 0.28217(17) 0.6851(2) 0.36129(18)
C163_14 C 0.21783(17) 0.8149(2) 0.63871(18)
C164_10 C 0.36129(18) 0.71783(17) 0.3149(2)
C166_14 C 0.13871(18) 0.78217(17) 0.6851(2)
C167_10 C 0.3149(2) 0.63871(18) 0.28217(17)
C169_14 C 0.1851(2) 0.86129(18) 0.71783(17)
H126_10 H 0.2903 0.6775 0.3448
H128_14 H 0.2097 0.8225 0.6552
H129_10 H 0.3448 0.7097 0.3225
H131_14 H 0.1552 0.7903 0.6775
H132_10 H 0.3225 0.6552 0.2903
H134_14 H 0.1775 0.8448 0.7097
H137_10 H 0.2634 0.6904 0.3575
H139_14 H 0.2366 0.8096 0.6425
H140_10 H 0.3575 0.7366 0.3096
H142_14 H 0.1425 0.7634 0.6904
H143_10 H 0.3096 0.6425 0.2634
H145_14 H 0.1904 0.8575 0.7366
H148_10 H 0.2925 0.7010 0.3671
H150_14 H 0.2075 0.7990 0.6329
H151_10 H 0.3671 0.7075 0.2990
H153_14 H 0.1329 0.7925 0.7010
H154_10 H 0.2990 0.6329 0.2925
H156_14 H 0.2010 0.8671 0.7075
Dy8_5 Dy 0.73209(3) 0.20933(3) 0.0000
O1_5 O 0.72943(12) 0.02988(13) 0.79375(15)
O2_5 O 0.75795(10) 0.03384(9) 0.82737(9)
O3_18 O 0.7500 -0.0000 0.7500
C1_5 C 0.73657(14) 0.04071(12) 0.81691(14)
C2_5 C 0.71969(12) 0.06307(12) 0.82784(13)
C3_5 C 0.69695(12) 0.07203(12) 0.81347(13)
H1_5 H 0.6918 0.0635 0.7970
C4_5 C 0.68185(12) 0.09385(11) 0.82386(13)
C5_5 C 0.68939(12) 0.10706(12) 0.84803(13)
C6_5 C 0.71214(13) 0.09749(13) 0.86197(13)
H2_5 H 0.7176 0.1059 0.8784
C7_5 C 0.72670(12) 0.07576(13) 0.85185(13)
H3_5 H 0.7420 0.0694 0.8617
C8_5 C 0.65664(14) 0.10558(12) 0.81126(13)
C9_5 C 0.65022(12) 0.12838(12) 0.83102(12)
C10_5 C 0.66967(12) 0.12949(12) 0.85239(12)
C11_5 C 0.63500(15) 0.08286(15) 0.81024(18)
H4_5 H 0.6183 0.0901 0.8017
H5_5 H 0.6418 0.0679 0.7987
C12_5 C 0.62767(19) 0.07131(19) 0.8384(2)
H6_5 H 0.6442 0.0648 0.8474
H7_5 H 0.6149 0.0562 0.8363
H8_5 H 0.6193 0.0856 0.8495
C13_5 C 0.66399(15) 0.11651(15) 0.78256(14)
H9_5 H 0.6707 0.1012 0.7714
H10_5 H 0.6472 0.1235 0.7739
C14_5 C 0.6851(2) 0.13871(18) 0.78217(17)
H11_5 H 0.6775 0.1552 0.7903
H12_5 H 0.6904 0.1425 0.7634
H13_5 H 0.7010 0.1329 0.7925
O4_18 O 0.8050(3) -0.0000 0.8240(3)
C15_18 C 0.8293(9) 0.0000 0.8094(9)
Dy8_6 Dy 0.73209(3) 0.20933(3) 1.0000
O5_6 O 0.79375(15) 0.02988(13) 0.77057(12)
O11_14 O 0.77057(12) 0.02988(13) 0.70625(15)
O13_5 O 0.70625(15) 0.22943(12) 0.97012(13)
O23_6 O 0.82737(9) 0.03384(9) 0.74205(10)
O26_14 O 0.74205(10) 0.03384(9) 0.67263(9)
O28_5 O 0.67263(9) 0.25795(10) 0.96616(9)
C19_5 C 0.54071(12) 0.18309(14) 0.76343(14)
C20_5 C 0.68309(14) 0.23657(14) 0.95929(12)
C30_5 C 0.56307(12) 0.17216(13) 0.78031(12)
C31_5 C 0.67216(13) 0.21969(12) 0.93693(12)
C41_5 C 0.57203(12) 0.18653(13) 0.80305(12)
C42_5 C 0.68653(13) 0.19695(12) 0.92797(12)
H17_5 H 0.5635 0.2030 0.8082
H18_5 H 0.7030 0.1918 0.9365
C49_5 C 0.59385(11) 0.17614(13) 0.81815(12)
C50_5 C 0.67614(13) 0.18185(12) 0.90615(11)
C60_5 C 0.60706(12) 0.15197(13) 0.81061(12)
C61_5 C 0.65197(13) 0.18939(12) 0.89294(12)
C71_5 C 0.59749(13) 0.13803(13) 0.78786(13)
C72_5 C 0.63803(13) 0.21214(13) 0.90251(13)
H25_5 H 0.6059 0.1216 0.7824
H26_5 H 0.6216 0.2176 0.8941
C85_5 C 0.57576(13) 0.14815(13) 0.77330(12)
C86_5 C 0.64815(13) 0.22670(12) 0.92424(13)
H39_5 H 0.5694 0.1383 0.7580
H40_5 H 0.6383 0.2420 0.9306
C93_5 C 0.68874(13) 0.15664(14) 0.89442(12)
C94_5 C 0.60558(12) 0.18874(13) 0.84336(14)
C104_5 C 0.66898(12) 0.15022(12) 0.87162(12)
C105_5 C 0.62838(12) 0.16898(12) 0.84978(12)
C115_5 C 0.62949(12) 0.14761(12) 0.83033(12)
C116_5 C 0.64761(12) 0.16967(12) 0.87051(12)
C126_5 C 0.68976(18) 0.13500(15) 0.91714(15)
C127_5 C 0.58286(15) 0.18976(18) 0.86500(15)
H47_5 H 0.6983 0.1183 0.9099
H48_5 H 0.5901 0.1983 0.8817
H58_5 H 0.7013 0.1418 0.9321
H59_5 H 0.5679 0.2013 0.8582
C137_5 C 0.6616(2) 0.12767(19) 0.92869(19)
C138_5 C 0.57131(19) 0.1616(2) 0.87233(19)
H69_5 H 0.6526 0.1442 0.9352
H70_5 H 0.5648 0.1526 0.8558
H80_5 H 0.6637 0.1149 0.9438
H81_5 H 0.5562 0.1637 0.8851
H91_5 H 0.6505 0.1193 0.9144
H92_5 H 0.5856 0.1505 0.8807
C148_5 C 0.71744(14) 0.16399(15) 0.88349(15)
C149_5 C 0.61651(15) 0.21744(14) 0.83601(15)
H102_5 H 0.7286 0.1707 0.8988
H103_5 H 0.6012 0.2286 0.8293
H113_5 H 0.7261 0.1472 0.8765
H114_5 H 0.6235 0.2261 0.8528
C159_5 C 0.71783(17) 0.1851(2) 0.86129(18)
C160_5 C 0.63871(18) 0.21783(17) 0.8149(2)
H124_5 H 0.7097 0.1775 0.8448
H125_5 H 0.6552 0.2097 0.8225
H135_5 H 0.7366 0.1904 0.8575
H136_5 H 0.6425 0.2366 0.8096
H146_5 H 0.7075 0.2010 0.8671
H147_5 H 0.6329 0.2075 0.7990
O35_18 O 0.6760(3) -0.0000 0.8050(3)
O36_18 O 0.8240(3) -0.0000 0.6950(3)
O37_18 O 0.6950(3) -0.0000 0.6760(3)
C170_18 C 0.6906(9) -0.0000 0.8293(9)
C171_18 C 0.6707(9) -0.0000 0.6906(9)
C172_18 C 0.8094(9) 0.0000 0.6707(9)
H157_14 H 0.703326 0.0180479 0.830249
H158_18 H 0.676531 2.55215e-18 0.846349
H160_14 H 0.669751 0.0180479 0.703326
H161_18 H 0.653651 2.55215e-18 0.676531
H163_14 H 0.796674 0.0180479 0.669751
H164_18 H 0.823469 2.55215e-18 0.653651
H166_14 H 0.830249 0.0180479 0.796674
H167_18 H 0.846349 2.55215e-18 0.823469
O3_19 O 0.7500 1.0000 0.7500
O4_19 O 0.8050(3) 1.0000 0.8240(3)
C15_19 C 0.8293(9) 1.0000 0.8094(9)
O35_19 O 0.6760(3) 1.0000 0.8050(3)
O36_19 O 0.8240(3) 1.0000 0.6950(3)
O37_19 O 0.6950(3) 1.0000 0.6760(3)
C170_19 C 0.6906(9) 1.0000 0.8293(9)
C171_19 C 0.6707(9) 1.0000 0.6906(9)
C172_19 C 0.8094(9) 1.0000 0.6707(9)
H158_19 H 0.676531 1 0.846349
H159_14 H 0.703326 0.981952 0.830249
H161_19 H 0.653651 1 0.676531
H162_14 H 0.669751 0.981952 0.703326
H164_19 H 0.823469 1 0.653651
H165_14 H 0.796674 0.981952 0.669751
H167_19 H 0.846349 1 0.823469
H168_14 H 0.830249 0.981952 0.796674
Dy1_5 Dy 0.76791(3) 0.0000 0.20933(3)
O3_20 O 0.7500 0.0000 0.2500
O4_20 O 0.8050(3) 0.0000 0.1760(3)
C15_20 C 0.8293(9) -0.0000 0.1906(9)
O6_13 O 0.72943(12) 0.02988(13) 0.20625(15)
O7_10 O 0.79375(15) 0.02988(13) 0.22943(12)
O15_9 O 0.77057(12) 0.20625(15) 0.02988(13)
O20_13 O 0.75795(10) 0.03384(9) 0.17263(9)
O24_10 O 0.82737(9) 0.03384(9) 0.25795(10)
O30_9 O 0.74205(10) 0.17263(9) 0.03384(9)
C16_11 C 0.81691(14) 0.04071(12) 0.23657(14)
C21_11 C 0.95929(12) 0.23657(14) 0.18309(14)
C22_11 C 0.76343(14) 0.18309(14) 0.04071(12)
C27_11 C 0.82784(13) 0.06307(12) 0.21969(12)
C32_11 C 0.93693(12) 0.21969(12) 0.17216(13)
C33_11 C 0.78031(12) 0.17216(13) 0.06307(12)
C38_11 C 0.81347(13) 0.07203(12) 0.19695(12)
C43_11 C 0.92797(12) 0.19695(12) 0.18653(13)
C44_11 C 0.80305(12) 0.18653(13) 0.07203(12)
H14_11 H 0.7970 0.0635 0.1918
H19_11 H 0.9365 0.1918 0.2030
H20_11 H 0.8082 0.2030 0.0635
C51_11 C 0.82386(13) 0.09385(11) 0.18185(12)
C54_11 C 0.90615(11) 0.18185(12) 0.17614(13)
C55_11 C 0.81815(12) 0.17614(13) 0.09385(11)
C62_11 C 0.84803(13) 0.10706(12) 0.18939(12)
C65_11 C 0.81061(12) 0.15197(13) 0.10706(12)
C68_11 C 0.89294(12) 0.18939(12) 0.15197(13)
C73_11 C 0.86197(13) 0.09749(13) 0.21214(13)
C76_11 C 0.78786(13) 0.13803(13) 0.09749(13)
C79_11 C 0.90251(13) 0.21214(13) 0.13803(13)
H27_11 H 0.8784 0.1059 0.2176
H30_11 H 0.7824 0.1216 0.1059
H33_11 H 0.8941 0.2176 0.1216
C82_11 C 0.85185(13) 0.07576(13) 0.22670(12)
C87_11 C 0.77330(12) 0.14815(13) 0.07576(13)
C90_11 C 0.92424(13) 0.22670(12) 0.14815(13)
H36_11 H 0.8617 0.0694 0.2420
H41_11 H 0.7580 0.1383 0.0694
H44_11 H 0.9306 0.2420 0.1383
C95_11 C 0.81126(13) 0.10558(12) 0.15664(14)
C98_11 C 0.89442(12) 0.15664(14) 0.18874(13)
C101_11 C 0.84336(14) 0.18874(13) 0.10558(12)
C106_11 C 0.83102(12) 0.12838(12) 0.15022(12)
C109_11 C 0.87162(12) 0.15022(12) 0.16898(12)
C112_11 C 0.84978(12) 0.16898(12) 0.12838(12)
C117_11 C 0.85239(12) 0.12949(12) 0.16967(12)
C120_11 C 0.83033(12) 0.14761(12) 0.12949(12)
C123_11 C 0.87051(12) 0.16967(12) 0.14761(12)
C128_11 C 0.81024(18) 0.08286(15) 0.13500(15)
C131_11 C 0.91714(15) 0.13500(15) 0.18976(18)
C134_11 C 0.86500(15) 0.18976(18) 0.08286(15)
H49_11 H 0.8017 0.0901 0.1183
H52_11 H 0.9099 0.1183 0.1983
H55_11 H 0.8817 0.1983 0.0901
H60_11 H 0.7987 0.0679 0.1418
H63_11 H 0.9321 0.1418 0.2013
H66_11 H 0.8582 0.2013 0.0679
C139_11 C 0.8384(2) 0.07131(19) 0.12767(19)
C142_11 C 0.92869(19) 0.12767(19) 0.1616(2)
C145_11 C 0.87233(19) 0.1616(2) 0.07131(19)
H71_11 H 0.8474 0.0648 0.1442
H74_11 H 0.9352 0.1442 0.1526
H77_11 H 0.8558 0.1526 0.0648
H82_11 H 0.8363 0.0562 0.1149
H85_11 H 0.9438 0.1149 0.1637
H88_11 H 0.8851 0.1637 0.0562
H93_11 H 0.8495 0.0856 0.1193
H96_11 H 0.9144 0.1193 0.1505
H99_11 H 0.8807 0.1505 0.0856
C150_11 C 0.78256(14) 0.11651(15) 0.16399(15)
C153_11 C 0.88349(15) 0.16399(15) 0.21744(14)
C156_11 C 0.83601(15) 0.21744(14) 0.11651(15)
H104_11 H 0.7714 0.1012 0.1707
H107_11 H 0.8988 0.1707 0.2286
H110_11 H 0.8293 0.2286 0.1012
H115_11 H 0.7739 0.1235 0.1472
H118_11 H 0.8765 0.1472 0.2261
H121_11 H 0.8528 0.2261 0.1235
C161_11 C 0.78217(17) 0.13871(18) 0.1851(2)
C164_11 C 0.86129(18) 0.1851(2) 0.21783(17)
C167_11 C 0.8149(2) 0.21783(17) 0.13871(18)
H126_11 H 0.7903 0.1552 0.1775
H129_11 H 0.8448 0.1775 0.2097
H132_11 H 0.8225 0.2097 0.1552
H137_11 H 0.7634 0.1425 0.1904
H140_11 H 0.8575 0.1904 0.2366
H143_11 H 0.8096 0.2366 0.1425
H148_11 H 0.7925 0.1329 0.2010
H151_11 H 0.8671 0.2010 0.2075
H154_11 H 0.7990 0.2075 0.1329
O35_20 O 0.6760(3) 0.0000 0.1950(3)
O36_20 O 0.8240(3) 0.0000 0.3050(3)
O37_20 O 0.6950(3) 0.0000 0.3240(3)
C170_20 C 0.6906(9) 0.0000 0.1707(9)
C171_20 C 0.6707(9) 0.0000 0.3094(9)
C172_20 C 0.8094(9) -0.0000 0.3293(9)
H158_20 H 0.676531 -2.55215e-18 0.153651
H159_15 H 0.703326 0.0180479 0.169751
H161_20 H 0.653651 -2.55215e-18 0.323469
H162_15 H 0.669751 0.0180479 0.296674
H164_20 H 0.823469 -2.55215e-18 0.346349
H165_15 H 0.796674 0.0180479 0.330249
H167_20 H 0.846349 -2.55215e-18 0.176531
H168_15 H 0.830249 0.0180479 0.203326
Dy1_6 Dy 0.76791(3) 1.0000 0.20933(3)
O1_6 O 0.72943(12) 0.97012(13) 0.20625(15)
O2_6 O 0.75795(10) 0.96616(9) 0.17263(9)
O3_21 O 0.7500 1.0000 0.2500
C1_6 C 0.73657(14) 0.95929(12) 0.18309(14)
C2_6 C 0.71969(12) 0.93693(12) 0.17216(13)
C3_6 C 0.69695(12) 0.92797(12) 0.18653(13)
H1_6 H 0.6918 0.9365 0.2030
C4_6 C 0.68185(12) 0.90615(11) 0.17614(13)
C5_6 C 0.68939(12) 0.89294(12) 0.15197(13)
C6_6 C 0.71214(13) 0.90251(13) 0.13803(13)
H2_6 H 0.7176 0.8941 0.1216
C7_6 C 0.72670(12) 0.92424(13) 0.14815(13)
H3_6 H 0.7420 0.9306 0.1383
C8_6 C 0.65664(14) 0.89442(12) 0.18874(13)
C9_6 C 0.65022(12) 0.87162(12) 0.16898(12)
C10_6 C 0.66967(12) 0.87051(12) 0.14761(12)
C11_6 C 0.63500(15) 0.91714(15) 0.18976(18)
H4_6 H 0.6183 0.9099 0.1983
H5_6 H 0.6418 0.9321 0.2013
C12_6 C 0.62767(19) 0.92869(19) 0.1616(2)
H6_6 H 0.6442 0.9352 0.1526
H7_6 H 0.6149 0.9438 0.1637
H8_6 H 0.6193 0.9144 0.1505
C13_6 C 0.66399(15) 0.88349(15) 0.21744(14)
H9_6 H 0.6707 0.8988 0.2286
H10_6 H 0.6472 0.8765 0.2261
C14_6 C 0.6851(2) 0.86129(18) 0.21783(17)
H11_6 H 0.6775 0.8448 0.2097
H12_6 H 0.6904 0.8575 0.2366
H13_6 H 0.7010 0.8671 0.2075
O4_21 O 0.8050(3) 1.0000 0.1760(3)
C15_21 C 0.8293(9) 1.0000 0.1906(9)
O5_7 O 0.79375(15) 0.97012(13) 0.22943(12)
O11_15 O 0.77057(12) 0.97012(13) 0.29375(15)
O13_6 O 0.70625(15) 0.77057(12) 0.02988(13)
O23_7 O 0.82737(9) 0.96616(9) 0.25795(10)
O26_15 O 0.74205(10) 0.96616(9) 0.32737(9)
O28_6 O 0.67263(9) 0.74205(10) 0.03384(9)
C19_6 C 0.54071(12) 0.81691(14) 0.23657(14)
C20_6 C 0.68309(14) 0.76343(14) 0.04071(12)
C30_6 C 0.56307(12) 0.82784(13) 0.21969(12)
C31_6 C 0.67216(13) 0.78031(12) 0.06307(12)
C41_6 C 0.57203(12) 0.81347(13) 0.19695(12)
C42_6 C 0.68653(13) 0.80305(12) 0.07203(12)
H17_6 H 0.5635 0.7970 0.1918
H18_6 H 0.7030 0.8082 0.0635
C49_6 C 0.59385(11) 0.82386(13) 0.18185(12)
C50_6 C 0.67614(13) 0.81815(12) 0.09385(11)
C60_6 C 0.60706(12) 0.84803(13) 0.18939(12)
C61_6 C 0.65197(13) 0.81061(12) 0.10706(12)
C71_6 C 0.59749(13) 0.86197(13) 0.21214(13)
C72_6 C 0.63803(13) 0.78786(13) 0.09749(13)
H25_6 H 0.6059 0.8784 0.2176
H26_6 H 0.6216 0.7824 0.1059
C85_6 C 0.57576(13) 0.85185(13) 0.22670(12)
C86_6 C 0.64815(13) 0.77330(12) 0.07576(13)
H39_6 H 0.5694 0.8617 0.2420
H40_6 H 0.6383 0.7580 0.0694
C93_6 C 0.68874(13) 0.84336(14) 0.10558(12)
C94_6 C 0.60558(12) 0.81126(13) 0.15664(14)
C104_6 C 0.66898(12) 0.84978(12) 0.12838(12)
C105_6 C 0.62838(12) 0.83102(12) 0.15022(12)
C115_6 C 0.62949(12) 0.85239(12) 0.16967(12)
C116_6 C 0.64761(12) 0.83033(12) 0.12949(12)
C126_6 C 0.68976(18) 0.86500(15) 0.08286(15)
C127_6 C 0.58286(15) 0.81024(18) 0.13500(15)
H47_6 H 0.6983 0.8817 0.0901
H48_6 H 0.5901 0.8017 0.1183
H58_6 H 0.7013 0.8582 0.0679
H59_6 H 0.5679 0.7987 0.1418
C137_6 C 0.6616(2) 0.87233(19) 0.07131(19)
C138_6 C 0.57131(19) 0.8384(2) 0.12767(19)
H69_6 H 0.6526 0.8558 0.0648
H70_6 H 0.5648 0.8474 0.1442
H80_6 H 0.6637 0.8851 0.0562
H81_6 H 0.5562 0.8363 0.1149
H91_6 H 0.6505 0.8807 0.0856
H92_6 H 0.5856 0.8495 0.1193
C148_6 C 0.71744(14) 0.83601(15) 0.11651(15)
C149_6 C 0.61651(15) 0.78256(14) 0.16399(15)
H102_6 H 0.7286 0.8293 0.1012
H103_6 H 0.6012 0.7714 0.1707
H113_6 H 0.7261 0.8528 0.1235
H114_6 H 0.6235 0.7739 0.1472
C159_6 C 0.71783(17) 0.8149(2) 0.13871(18)
C160_6 C 0.63871(18) 0.78217(17) 0.1851(2)
H124_6 H 0.7097 0.8225 0.1552
H125_6 H 0.6552 0.7903 0.1775
H135_6 H 0.7366 0.8096 0.1425
H136_6 H 0.6425 0.7634 0.1904
H146_6 H 0.7075 0.7990 0.1329
H147_6 H 0.6329 0.7925 0.2010
O35_21 O 0.6760(3) 1.0000 0.1950(3)
O36_21 O 0.8240(3) 1.0000 0.3050(3)
O37_21 O 0.6950(3) 1.0000 0.3240(3)
C170_21 C 0.6906(9) 1.0000 0.1707(9)
C171_21 C 0.6707(9) 1.0000 0.3094(9)
C172_21 C 0.8094(9) 1.0000 0.3293(9)
H157_15 H 0.703326 0.981952 0.169751
H158_21 H 0.676531 1 0.153651
H160_15 H 0.669751 0.981952 0.296674
H161_21 H 0.653651 1 0.323469
H163_15 H 0.796674 0.981952 0.330249
H164_21 H 0.823469 1 0.346349
H166_15 H 0.830249 0.981952 0.203326
H167_21 H 0.846349 1 0.176531
Dy18_20 Dy 0.29067(3) 0.23209(3) 0.5000
O18_9 O 0.47012(13) 0.22943(12) 0.29375(15)
O19_15 O 0.27057(12) 0.20625(15) 0.47012(13)
O33_9 O 0.46616(9) 0.25795(10) 0.32737(9)
O34_15 O 0.24205(10) 0.17263(9) 0.46616(9)
C18_15 C 0.31691(14) 0.04071(12) 0.26343(14)
C25_15 C 0.45929(12) 0.23657(14) 0.31691(14)
C26_15 C 0.26343(14) 0.18309(14) 0.45929(12)
C29_15 C 0.32784(13) 0.06307(12) 0.28031(12)
C36_15 C 0.43693(12) 0.21969(12) 0.32784(13)
C37_15 C 0.28031(12) 0.17216(13) 0.43693(12)
C40_15 C 0.31347(13) 0.07203(12) 0.30305(12)
C47_15 C 0.42797(12) 0.19695(12) 0.31347(13)
C48_15 C 0.30305(12) 0.18653(13) 0.42797(12)
H16_15 H 0.2970 0.0635 0.3082
H23_15 H 0.4365 0.1918 0.2970
H24_15 H 0.3082 0.2030 0.4365
C53_15 C 0.32386(13) 0.09385(11) 0.31815(12)
C58_15 C 0.40615(11) 0.18185(12) 0.32386(13)
C59_15 C 0.31815(12) 0.17614(13) 0.40615(11)
C64_15 C 0.34803(13) 0.10706(12) 0.31061(12)
C67_15 C 0.31061(12) 0.15197(13) 0.39294(12)
C70_15 C 0.39294(12) 0.18939(12) 0.34803(13)
C75_15 C 0.36197(13) 0.09749(13) 0.28786(13)
C78_15 C 0.28786(13) 0.13803(13) 0.40251(13)
C81_15 C 0.40251(13) 0.21214(13) 0.36197(13)
H29_15 H 0.3784 0.1059 0.2824
H32_15 H 0.2824 0.1216 0.3941
H35_15 H 0.3941 0.2176 0.3784
C84_15 C 0.35185(13) 0.07576(13) 0.27330(12)
C89_15 C 0.27330(12) 0.14815(13) 0.42424(13)
C92_15 C 0.42424(13) 0.22670(12) 0.35185(13)
H38_15 H 0.3617 0.0694 0.2580
H43_15 H 0.2580 0.1383 0.4306
H46_15 H 0.4306 0.2420 0.3617
C97_15 C 0.31126(13) 0.10558(12) 0.34336(14)
C100_15 C 0.39442(12) 0.15664(14) 0.31126(13)
C103_15 C 0.34336(14) 0.18874(13) 0.39442(12)
C108_15 C 0.33102(12) 0.12838(12) 0.34978(12)
C111_15 C 0.37162(12) 0.15022(12) 0.33102(12)
C114_15 C 0.34978(12) 0.16898(12) 0.37162(12)
C119_15 C 0.35239(12) 0.12949(12) 0.33033(12)
C122_15 C 0.33033(12) 0.14761(12) 0.37051(12)
C125_15 C 0.37051(12) 0.16967(12) 0.35239(12)
C130_15 C 0.31024(18) 0.08286(15) 0.36500(15)
C133_15 C 0.41714(15) 0.13500(15) 0.31024(18)
C136_15 C 0.36500(15) 0.18976(18) 0.41714(15)
H51_15 H 0.3017 0.0901 0.3817
H54_15 H 0.4099 0.1183 0.3017
H57_15 H 0.3817 0.1983 0.4099
H62_15 H 0.2987 0.0679 0.3582
H65_15 H 0.4321 0.1418 0.2987
H68_15 H 0.3582 0.2013 0.4321
C141_15 C 0.3384(2) 0.07131(19) 0.37233(19)
C144_15 C 0.42869(19) 0.12767(19) 0.3384(2)
C147_15 C 0.37233(19) 0.1616(2) 0.42869(19)
H73_15 H 0.3474 0.0648 0.3558
H76_15 H 0.4352 0.1442 0.3474
H79_15 H 0.3558 0.1526 0.4352
H84_15 H 0.3363 0.0562 0.3851
H87_15 H 0.4438 0.1149 0.3363
H90_15 H 0.3851 0.1637 0.4438
H95_15 H 0.3495 0.0856 0.3807
H98_15 H 0.4144 0.1193 0.3495
H101_15 H 0.3807 0.1505 0.4144
C152_15 C 0.28256(14) 0.11651(15) 0.33601(15)
C155_15 C 0.38349(15) 0.16399(15) 0.28256(14)
C158_15 C 0.33601(15) 0.21744(14) 0.38349(15)
H106_15 H 0.2714 0.1012 0.3293
H109_15 H 0.3988 0.1707 0.2714
H112_15 H 0.3293 0.2286 0.3988
H117_15 H 0.2739 0.1235 0.3528
H120_15 H 0.3765 0.1472 0.2739
H123_15 H 0.3528 0.2261 0.3765
C163_15 C 0.28217(17) 0.13871(18) 0.3149(2)
C166_15 C 0.36129(18) 0.1851(2) 0.28217(17)
C169_15 C 0.3149(2) 0.21783(17) 0.36129(18)
H128_15 H 0.2903 0.1552 0.3225
H131_15 H 0.3448 0.1775 0.2903
H134_15 H 0.3225 0.2097 0.3448
H139_15 H 0.2634 0.1425 0.3096
H142_15 H 0.3575 0.1904 0.2634
H145_15 H 0.3096 0.2366 0.3575
H150_15 H 0.2925 0.1329 0.2990
H153_15 H 0.3671 0.2010 0.2925
H156_15 H 0.2990 0.2075 0.3671
Dy9_8 Dy -0.0000 0.73209(3) 0.20933(3)
O14_10 O 0.02988(13) 0.77057(12) 0.20625(15)
O15_10 O 0.22943(12) 0.79375(15) 0.02988(13)
O29_10 O 0.03384(9) 0.74205(10) 0.17263(9)
O30_10 O 0.25795(10) 0.82737(9) 0.03384(9)
C16_12 C 0.18309(14) 0.95929(12) 0.23657(14)
C21_12 C 0.04071(12) 0.76343(14) 0.18309(14)
C22_12 C 0.23657(14) 0.81691(14) 0.04071(12)
C27_12 C 0.17216(13) 0.93693(12) 0.21969(12)
C32_12 C 0.06307(12) 0.78031(12) 0.17216(13)
C33_12 C 0.21969(12) 0.82784(13) 0.06307(12)
C38_12 C 0.18653(13) 0.92797(12) 0.19695(12)
C43_12 C 0.07203(12) 0.80305(12) 0.18653(13)
C44_12 C 0.19695(12) 0.81347(13) 0.07203(12)
H14_12 H 0.2030 0.9365 0.1918
H19_12 H 0.0635 0.8082 0.2030
H20_12 H 0.1918 0.7970 0.0635
C51_12 C 0.17614(13) 0.90615(11) 0.18185(12)
C54_12 C 0.09385(11) 0.81815(12) 0.17614(13)
C55_12 C 0.18185(12) 0.82386(13) 0.09385(11)
C62_12 C 0.15197(13) 0.89294(12) 0.18939(12)
C65_12 C 0.18939(12) 0.84803(13) 0.10706(12)
C68_12 C 0.10706(12) 0.81061(12) 0.15197(13)
C73_12 C 0.13803(13) 0.90251(13) 0.21214(13)
C76_12 C 0.21214(13) 0.86197(13) 0.09749(13)
C79_12 C 0.09749(13) 0.78786(13) 0.13803(13)
H27_12 H 0.1216 0.8941 0.2176
H30_12 H 0.2176 0.8784 0.1059
H33_12 H 0.1059 0.7824 0.1216
C82_12 C 0.14815(13) 0.92424(13) 0.22670(12)
C87_12 C 0.22670(12) 0.85185(13) 0.07576(13)
C90_12 C 0.07576(13) 0.77330(12) 0.14815(13)
H36_12 H 0.1383 0.9306 0.2420
H41_12 H 0.2420 0.8617 0.0694
H44_12 H 0.0694 0.7580 0.1383
C95_12 C 0.18874(13) 0.89442(12) 0.15664(14)
C98_12 C 0.10558(12) 0.84336(14) 0.18874(13)
C101_12 C 0.15664(14) 0.81126(13) 0.10558(12)
C106_12 C 0.16898(12) 0.87162(12) 0.15022(12)
C109_12 C 0.12838(12) 0.84978(12) 0.16898(12)
C112_12 C 0.15022(12) 0.83102(12) 0.12838(12)
C117_12 C 0.14761(12) 0.87051(12) 0.16967(12)
C120_12 C 0.16967(12) 0.85239(12) 0.12949(12)
C123_12 C 0.12949(12) 0.83033(12) 0.14761(12)
C128_12 C 0.18976(18) 0.91714(15) 0.13500(15)
C131_12 C 0.08286(15) 0.86500(15) 0.18976(18)
C134_12 C 0.13500(15) 0.81024(18) 0.08286(15)
H49_12 H 0.1983 0.9099 0.1183
H52_12 H 0.0901 0.8817 0.1983
H55_12 H 0.1183 0.8017 0.0901
H60_12 H 0.2013 0.9321 0.1418
H63_12 H 0.0679 0.8582 0.2013
H66_12 H 0.1418 0.7987 0.0679
C139_12 C 0.1616(2) 0.92869(19) 0.12767(19)
C142_12 C 0.07131(19) 0.87233(19) 0.1616(2)
C145_12 C 0.12767(19) 0.8384(2) 0.07131(19)
H71_12 H 0.1526 0.9352 0.1442
H74_12 H 0.0648 0.8558 0.1526
H77_12 H 0.1442 0.8474 0.0648
H82_12 H 0.1637 0.9438 0.1149
H85_12 H 0.0562 0.8851 0.1637
H88_12 H 0.1149 0.8363 0.0562
H93_12 H 0.1505 0.9144 0.1193
H96_12 H 0.0856 0.8807 0.1505
H99_12 H 0.1193 0.8495 0.0856
C150_12 C 0.21744(14) 0.88349(15) 0.16399(15)
C153_12 C 0.11651(15) 0.83601(15) 0.21744(14)
C156_12 C 0.16399(15) 0.78256(14) 0.11651(15)
H104_12 H 0.2286 0.8988 0.1707
H107_12 H 0.1012 0.8293 0.2286
H110_12 H 0.1707 0.7714 0.1012
H115_12 H 0.2261 0.8765 0.1472
H118_12 H 0.1235 0.8528 0.2261
H121_12 H 0.1472 0.7739 0.1235
C161_12 C 0.21783(17) 0.86129(18) 0.1851(2)
C164_12 C 0.13871(18) 0.8149(2) 0.21783(17)
C167_12 C 0.1851(2) 0.78217(17) 0.13871(18)
H126_12 H 0.2097 0.8448 0.1775
H129_12 H 0.1552 0.8225 0.2097
H132_12 H 0.1775 0.7903 0.1552
H137_12 H 0.2366 0.8575 0.1904
H140_12 H 0.1425 0.8096 0.2366
H143_12 H 0.1904 0.7634 0.1425
H148_12 H 0.2075 0.8671 0.2010
H151_12 H 0.1329 0.7990 0.2075
H154_12 H 0.2010 0.7925 0.1329
Dy9_9 Dy 1.0000 0.73209(3) 0.20933(3)
O14_11 O 0.27057(12) 0.20625(15) 0.52988(13)
O15_11 O 0.29375(15) 0.02988(13) 0.72943(12)
O17_11 O 0.29375(15) 0.27057(12) 0.52988(13)
O29_11 O 0.24205(10) 0.17263(9) 0.53384(9)
O30_11 O 0.32737(9) 0.03384(9) 0.75795(10)
O32_11 O 0.32737(9) 0.24205(10) 0.53384(9)
C16_13 C 0.45929(12) 0.23657(14) 0.68309(14)
C17_11 C 0.45929(12) 0.31691(14) 0.73657(14)
C21_13 C 0.26343(14) 0.18309(14) 0.54071(12)
C22_13 C 0.31691(14) 0.04071(12) 0.73657(14)
C23_11 C 0.26343(14) 0.45929(12) 0.68309(14)
C24_11 C 0.31691(14) 0.26343(14) 0.54071(12)
C27_13 C 0.43693(12) 0.21969(12) 0.67216(13)
C28_11 C 0.43693(12) 0.32784(13) 0.71969(12)
C32_13 C 0.28031(12) 0.17216(13) 0.56307(12)
C33_13 C 0.32784(13) 0.06307(12) 0.71969(12)
C34_11 C 0.28031(12) 0.43693(12) 0.67216(13)
C35_11 C 0.32784(13) 0.28031(12) 0.56307(12)
C38_13 C 0.42797(12) 0.19695(12) 0.68653(13)
C39_11 C 0.42797(12) 0.31347(13) 0.69695(12)
C43_13 C 0.30305(12) 0.18653(13) 0.57203(12)
C44_13 C 0.31347(13) 0.07203(12) 0.69695(12)
C45_11 C 0.30305(12) 0.42797(12) 0.68653(13)
C46_11 C 0.31347(13) 0.30305(12) 0.57203(12)
H14_13 H 0.4365 0.1918 0.7030
H15_11 H 0.4365 0.2970 0.6918
H19_13 H 0.3082 0.2030 0.5635
H20_13 H 0.2970 0.0635 0.6918
H21_11 H 0.3082 0.4365 0.7030
H22_11 H 0.2970 0.3082 0.5635
C51_13 C 0.40615(11) 0.18185(12) 0.67614(13)
C52_11 C 0.40615(11) 0.32386(13) 0.68185(12)
C54_13 C 0.31815(12) 0.17614(13) 0.59385(11)
C55_13 C 0.32386(13) 0.09385(11) 0.68185(12)
C56_11 C 0.31815(12) 0.40615(11) 0.67614(13)
C57_11 C 0.32386(13) 0.31815(12) 0.59385(11)
C62_13 C 0.39294(12) 0.18939(12) 0.65197(13)
C63_11 C 0.39294(12) 0.34803(13) 0.68939(12)
C65_13 C 0.34803(13) 0.10706(12) 0.68939(12)
C66_11 C 0.34803(13) 0.31061(12) 0.60706(12)
C68_13 C 0.31061(12) 0.15197(13) 0.60706(12)
C69_11 C 0.31061(12) 0.39294(12) 0.65197(13)
C73_13 C 0.40251(13) 0.21214(13) 0.63803(13)
C74_11 C 0.40251(13) 0.36197(13) 0.71214(13)
C76_13 C 0.36197(13) 0.09749(13) 0.71214(13)
C77_11 C 0.36197(13) 0.28786(13) 0.59749(13)
C79_13 C 0.28786(13) 0.13803(13) 0.59749(13)
C80_11 C 0.28786(13) 0.40251(13) 0.63803(13)
H27_13 H 0.3941 0.2176 0.6216
H28_11 H 0.3941 0.3784 0.7176
H30_13 H 0.3784 0.1059 0.7176
H31_11 H 0.3784 0.2824 0.6059
H33_13 H 0.2824 0.1216 0.6059
H34_11 H 0.2824 0.3941 0.6216
C82_13 C 0.42424(13) 0.22670(12) 0.64815(13)
C83_11 C 0.42424(13) 0.35185(13) 0.72670(12)
C87_13 C 0.35185(13) 0.07576(13) 0.72670(12)
C88_11 C 0.35185(13) 0.27330(12) 0.57576(13)
C90_13 C 0.27330(12) 0.14815(13) 0.57576(13)
C91_11 C 0.27330(12) 0.42424(13) 0.64815(13)
H36_13 H 0.4306 0.2420 0.6383
H37_11 H 0.4306 0.3617 0.7420
H41_13 H 0.3617 0.0694 0.7420
H42_11 H 0.3617 0.2580 0.5694
H44_13 H 0.2580 0.1383 0.5694
H45_11 H 0.2580 0.4306 0.6383
C95_13 C 0.39442(12) 0.15664(14) 0.68874(13)
C96_11 C 0.39442(12) 0.31126(13) 0.65664(14)
C98_13 C 0.34336(14) 0.18874(13) 0.60558(12)
C99_11 C 0.34336(14) 0.39442(12) 0.68874(13)
C101_13 C 0.31126(13) 0.10558(12) 0.65664(14)
C102_11 C 0.31126(13) 0.34336(14) 0.60558(12)
C106_13 C 0.37162(12) 0.15022(12) 0.66898(12)
C107_11 C 0.37162(12) 0.33102(12) 0.65022(12)
C109_13 C 0.34978(12) 0.16898(12) 0.62838(12)
C110_11 C 0.34978(12) 0.37162(12) 0.66898(12)
C112_13 C 0.33102(12) 0.12838(12) 0.65022(12)
C113_11 C 0.33102(12) 0.34978(12) 0.62838(12)
C117_13 C 0.37051(12) 0.16967(12) 0.64761(12)
C118_11 C 0.37051(12) 0.35239(12) 0.66967(12)
C120_13 C 0.35239(12) 0.12949(12) 0.66967(12)
C121_11 C 0.35239(12) 0.33033(12) 0.62949(12)
C123_13 C 0.33033(12) 0.14761(12) 0.62949(12)
C124_11 C 0.33033(12) 0.37051(12) 0.64761(12)
C128_13 C 0.41714(15) 0.13500(15) 0.68976(18)
C129_11 C 0.41714(15) 0.31024(18) 0.63500(15)
C131_13 C 0.36500(15) 0.18976(18) 0.58286(15)
C132_11 C 0.36500(15) 0.41714(15) 0.68976(18)
C134_13 C 0.31024(18) 0.08286(15) 0.63500(15)
C135_11 C 0.31024(18) 0.36500(15) 0.58286(15)
H49_13 H 0.4099 0.1183 0.6983
H50_11 H 0.4099 0.3017 0.6183
H52_13 H 0.3817 0.1983 0.5901
H53_11 H 0.3817 0.4099 0.6983
H55_13 H 0.3017 0.0901 0.6183
H56_11 H 0.3017 0.3817 0.5901
H60_13 H 0.4321 0.1418 0.7013
H61_11 H 0.4321 0.2987 0.6418
H63_13 H 0.3582 0.2013 0.5679
H64_11 H 0.3582 0.4321 0.7013
H66_13 H 0.2987 0.0679 0.6418
H67_11 H 0.2987 0.3582 0.5679
C139_13 C 0.42869(19) 0.12767(19) 0.6616(2)
C140_11 C 0.42869(19) 0.3384(2) 0.62767(19)
C142_13 C 0.37233(19) 0.1616(2) 0.57131(19)
C143_11 C 0.37233(19) 0.42869(19) 0.6616(2)
C145_13 C 0.3384(2) 0.07131(19) 0.62767(19)
C146_11 C 0.3384(2) 0.37233(19) 0.57131(19)
H71_13 H 0.4352 0.1442 0.6526
H72_11 H 0.4352 0.3474 0.6442
H74_13 H 0.3558 0.1526 0.5648
H75_11 H 0.3558 0.4352 0.6526
H77_13 H 0.3474 0.0648 0.6442
H78_11 H 0.3474 0.3558 0.5648
H82_13 H 0.4438 0.1149 0.6637
H83_11 H 0.4438 0.3363 0.6149
H85_13 H 0.3851 0.1637 0.5562
H86_11 H 0.3851 0.4438 0.6637
H88_13 H 0.3363 0.0562 0.6149
H89_11 H 0.3363 0.3851 0.5562
H93_13 H 0.4144 0.1193 0.6505
H94_11 H 0.4144 0.3495 0.6193
H96_13 H 0.3807 0.1505 0.5856
H97_11 H 0.3807 0.4144 0.6505
H99_13 H 0.3495 0.0856 0.6193
H100_11 H 0.3495 0.3807 0.5856
C150_13 C 0.38349(15) 0.16399(15) 0.71744(14)
C151_11 C 0.38349(15) 0.28256(14) 0.66399(15)
C153_13 C 0.33601(15) 0.21744(14) 0.61651(15)
C154_11 C 0.33601(15) 0.38349(15) 0.71744(14)
C156_13 C 0.28256(14) 0.11651(15) 0.66399(15)
C157_11 C 0.28256(14) 0.33601(15) 0.61651(15)
H104_13 H 0.3988 0.1707 0.7286
H105_11 H 0.3988 0.2714 0.6707
H107_13 H 0.3293 0.2286 0.6012
H108_11 H 0.3293 0.3988 0.7286
H110_13 H 0.2714 0.1012 0.6707
H111_11 H 0.2714 0.3293 0.6012
H115_13 H 0.3765 0.1472 0.7261
H116_11 H 0.3765 0.2739 0.6472
H118_13 H 0.3528 0.2261 0.6235
H119_11 H 0.3528 0.3765 0.7261
H121_13 H 0.2739 0.1235 0.6472
H122_11 H 0.2739 0.3528 0.6235
C161_13 C 0.36129(18) 0.1851(2) 0.71783(17)
C162_11 C 0.36129(18) 0.28217(17) 0.6851(2)
C164_13 C 0.3149(2) 0.21783(17) 0.63871(18)
C165_11 C 0.3149(2) 0.36129(18) 0.71783(17)
C167_13 C 0.28217(17) 0.13871(18) 0.6851(2)
C168_11 C 0.28217(17) 0.3149(2) 0.63871(18)
H126_13 H 0.3448 0.1775 0.7097
H127_11 H 0.3448 0.2903 0.6775
H129_13 H 0.3225 0.2097 0.6552
H130_11 H 0.3225 0.3448 0.7097
H132_13 H 0.2903 0.1552 0.6775
H133_11 H 0.2903 0.3225 0.6552
H137_13 H 0.3575 0.1904 0.7366
H138_11 H 0.3575 0.2634 0.6904
H140_13 H 0.3096 0.2366 0.6425
H141_11 H 0.3096 0.3575 0.7366
H143_13 H 0.2634 0.1425 0.6904
H144_11 H 0.2634 0.3096 0.6425
H148_13 H 0.3671 0.2010 0.7075
H149_11 H 0.3671 0.2925 0.7010
H151_13 H 0.2990 0.2075 0.6329
H152_11 H 0.2990 0.3671 0.7075
H154_13 H 0.2925 0.1329 0.7010
H155_11 H 0.2925 0.2990 0.6329
O3_22 O 0.5000 0.2500 0.2500
O4_22 O 0.5000 0.1760(3) 0.3050(3)
C15_22 C 0.5000 0.1906(9) 0.3293(9)
Dy4_9 Dy 0.5000 0.29067(3) 0.23209(3)
O6_14 O 0.52988(13) 0.20625(15) 0.22943(12)
O8_14 O 0.47012(13) 0.27057(12) 0.20625(15)
O9_9 O 0.52988(13) 0.27057(12) 0.20625(15)
O10_11 O 0.52988(13) 0.29375(15) 0.27057(12)
O11_16 O 0.47012(13) 0.29375(15) 0.27057(12)
O19_16 O 0.29375(15) 0.47012(13) 0.22943(12)
O20_14 O 0.53384(9) 0.17263(9) 0.25795(10)
O21_14 O 0.46616(9) 0.24205(10) 0.17263(9)
O22_9 O 0.53384(9) 0.24205(10) 0.17263(9)
O25_11 O 0.53384(9) 0.32737(9) 0.24205(10)
O26_16 O 0.46616(9) 0.32737(9) 0.24205(10)
O34_16 O 0.32737(9) 0.46616(9) 0.25795(10)
C17_12 C 0.54071(12) 0.31691(14) 0.26343(14)
C18_16 C 0.45929(12) 0.26343(14) 0.18309(14)
C23_12 C 0.73657(14) 0.45929(12) 0.31691(14)
C24_12 C 0.68309(14) 0.26343(14) 0.45929(12)
C25_16 C 0.26343(14) 0.31691(14) 0.04071(12)
C26_16 C 0.31691(14) 0.45929(12) 0.23657(14)
C28_12 C 0.56307(12) 0.32784(13) 0.28031(12)
C29_16 C 0.43693(12) 0.28031(12) 0.17216(13)
C34_12 C 0.71969(12) 0.43693(12) 0.32784(13)
C35_12 C 0.67216(13) 0.28031(12) 0.43693(12)
C36_16 C 0.28031(12) 0.32784(13) 0.06307(12)
C37_16 C 0.32784(13) 0.43693(12) 0.21969(12)
C39_12 C 0.57203(12) 0.31347(13) 0.30305(12)
C40_16 C 0.42797(12) 0.30305(12) 0.18653(13)
C45_12 C 0.69695(12) 0.42797(12) 0.31347(13)
C46_12 C 0.68653(13) 0.30305(12) 0.42797(12)
C47_16 C 0.30305(12) 0.31347(13) 0.07203(12)
C48_16 C 0.31347(13) 0.42797(12) 0.19695(12)
H15_12 H 0.5635 0.2970 0.3082
H16_16 H 0.4365 0.3082 0.2030
H21_12 H 0.6918 0.4365 0.2970
H22_12 H 0.7030 0.3082 0.4365
H23_16 H 0.3082 0.2970 0.0635
H24_16 H 0.2970 0.4365 0.1918
C52_12 C 0.59385(11) 0.32386(13) 0.31815(12)
C53_16 C 0.40615(11) 0.31815(12) 0.17614(13)
C56_12 C 0.68185(12) 0.40615(11) 0.32386(13)
C57_12 C 0.67614(13) 0.31815(12) 0.40615(11)
C58_16 C 0.31815(12) 0.32386(13) 0.09385(11)
C59_16 C 0.32386(13) 0.40615(11) 0.18185(12)
C63_12 C 0.60706(12) 0.34803(13) 0.31061(12)
C64_16 C 0.39294(12) 0.31061(12) 0.15197(13)
C66_12 C 0.65197(13) 0.31061(12) 0.39294(12)
C67_16 C 0.34803(13) 0.39294(12) 0.18939(12)
C69_12 C 0.68939(12) 0.39294(12) 0.34803(13)
C70_16 C 0.31061(12) 0.34803(13) 0.10706(12)
C74_12 C 0.59749(13) 0.36197(13) 0.28786(13)
C75_16 C 0.40251(13) 0.28786(13) 0.13803(13)
C77_12 C 0.63803(13) 0.28786(13) 0.40251(13)
C78_16 C 0.36197(13) 0.40251(13) 0.21214(13)
C80_12 C 0.71214(13) 0.40251(13) 0.36197(13)
C81_16 C 0.28786(13) 0.36197(13) 0.09749(13)
H28_12 H 0.6059 0.3784 0.2824
H29_16 H 0.3941 0.2824 0.1216
H31_12 H 0.6216 0.2824 0.3941
H32_16 H 0.3784 0.3941 0.2176
H34_12 H 0.7176 0.3941 0.3784
H35_16 H 0.2824 0.3784 0.1059
C83_12 C 0.57576(13) 0.35185(13) 0.27330(12)
C84_16 C 0.42424(13) 0.27330(12) 0.14815(13)
C88_12 C 0.64815(13) 0.27330(12) 0.42424(13)
C89_16 C 0.35185(13) 0.42424(13) 0.22670(12)
C91_12 C 0.72670(12) 0.42424(13) 0.35185(13)
C92_16 C 0.27330(12) 0.35185(13) 0.07576(13)
H37_12 H 0.5694 0.3617 0.2580
H38_16 H 0.4306 0.2580 0.1383
H42_12 H 0.6383 0.2580 0.4306
H43_16 H 0.3617 0.4306 0.2420
H45_12 H 0.7420 0.4306 0.3617
H46_16 H 0.2580 0.3617 0.0694
C96_12 C 0.60558(12) 0.31126(13) 0.34336(14)
C97_16 C 0.39442(12) 0.34336(14) 0.18874(13)
C99_12 C 0.65664(14) 0.39442(12) 0.31126(13)
C100_16 C 0.34336(14) 0.31126(13) 0.10558(12)
C102_12 C 0.68874(13) 0.34336(14) 0.39442(12)
C103_16 C 0.31126(13) 0.39442(12) 0.15664(14)
C107_12 C 0.62838(12) 0.33102(12) 0.34978(12)
C108_16 C 0.37162(12) 0.34978(12) 0.16898(12)
C110_12 C 0.65022(12) 0.37162(12) 0.33102(12)
C111_16 C 0.34978(12) 0.33102(12) 0.12838(12)
C113_12 C 0.66898(12) 0.34978(12) 0.37162(12)
C114_16 C 0.33102(12) 0.37162(12) 0.15022(12)
C118_12 C 0.62949(12) 0.35239(12) 0.33033(12)
C119_16 C 0.37051(12) 0.33033(12) 0.14761(12)
C121_12 C 0.64761(12) 0.33033(12) 0.37051(12)
C122_16 C 0.35239(12) 0.37051(12) 0.16967(12)
C124_12 C 0.66967(12) 0.37051(12) 0.35239(12)
C125_16 C 0.33033(12) 0.35239(12) 0.12949(12)
C129_12 C 0.58286(15) 0.31024(18) 0.36500(15)
C130_16 C 0.41714(15) 0.36500(15) 0.18976(18)
C132_12 C 0.63500(15) 0.41714(15) 0.31024(18)
C133_16 C 0.36500(15) 0.31024(18) 0.08286(15)
C135_12 C 0.68976(18) 0.36500(15) 0.41714(15)
C136_16 C 0.31024(18) 0.41714(15) 0.13500(15)
H50_12 H 0.5901 0.3017 0.3817
H51_16 H 0.4099 0.3817 0.1983
H53_12 H 0.6183 0.4099 0.3017
H54_16 H 0.3817 0.3017 0.0901
H56_12 H 0.6983 0.3817 0.4099
H57_16 H 0.3017 0.4099 0.1183
H61_12 H 0.5679 0.2987 0.3582
H62_16 H 0.4321 0.3582 0.2013
H64_12 H 0.6418 0.4321 0.2987
H65_16 H 0.3582 0.2987 0.0679
H67_12 H 0.7013 0.3582 0.4321
H68_16 H 0.2987 0.4321 0.1418
C140_12 C 0.57131(19) 0.3384(2) 0.37233(19)
C141_16 C 0.42869(19) 0.37233(19) 0.1616(2)
C143_12 C 0.62767(19) 0.42869(19) 0.3384(2)
C144_16 C 0.37233(19) 0.3384(2) 0.07131(19)
C146_12 C 0.6616(2) 0.37233(19) 0.42869(19)
C147_16 C 0.3384(2) 0.42869(19) 0.12767(19)
H72_12 H 0.5648 0.3474 0.3558
H73_16 H 0.4352 0.3558 0.1526
H75_12 H 0.6442 0.4352 0.3474
H76_16 H 0.3558 0.3474 0.0648
H78_12 H 0.6526 0.3558 0.4352
H79_16 H 0.3474 0.4352 0.1442
H83_12 H 0.5562 0.3363 0.3851
H84_16 H 0.4438 0.3851 0.1637
H86_12 H 0.6149 0.4438 0.3363
H87_16 H 0.3851 0.3363 0.0562
H89_12 H 0.6637 0.3851 0.4438
H90_16 H 0.3363 0.4438 0.1149
H94_12 H 0.5856 0.3495 0.3807
H95_16 H 0.4144 0.3807 0.1505
H97_12 H 0.6193 0.4144 0.3495
H98_16 H 0.3807 0.3495 0.0856
H100_12 H 0.6505 0.3807 0.4144
H101_16 H 0.3495 0.4144 0.1193
C151_12 C 0.61651(15) 0.28256(14) 0.33601(15)
C152_16 C 0.38349(15) 0.33601(15) 0.21744(14)
C154_12 C 0.66399(15) 0.38349(15) 0.28256(14)
C155_16 C 0.33601(15) 0.28256(14) 0.11651(15)
C157_12 C 0.71744(14) 0.33601(15) 0.38349(15)
C158_16 C 0.28256(14) 0.38349(15) 0.16399(15)
H105_12 H 0.6012 0.2714 0.3293
H106_16 H 0.3988 0.3293 0.2286
H108_12 H 0.6707 0.3988 0.2714
H109_16 H 0.3293 0.2714 0.1012
H111_12 H 0.7286 0.3293 0.3988
H112_16 H 0.2714 0.3988 0.1707
H116_12 H 0.6235 0.2739 0.3528
H117_16 H 0.3765 0.3528 0.2261
H119_12 H 0.6472 0.3765 0.2739
H120_16 H 0.3528 0.2739 0.1235
H122_12 H 0.7261 0.3528 0.3765
H123_16 H 0.2739 0.3765 0.1472
C162_12 C 0.63871(18) 0.28217(17) 0.3149(2)
C163_16 C 0.36129(18) 0.3149(2) 0.21783(17)
C165_12 C 0.6851(2) 0.36129(18) 0.28217(17)
C166_16 C 0.3149(2) 0.28217(17) 0.13871(18)
C168_12 C 0.71783(17) 0.3149(2) 0.36129(18)
C169_16 C 0.28217(17) 0.36129(18) 0.1851(2)
H127_12 H 0.6552 0.2903 0.3225
H128_16 H 0.3448 0.3225 0.2097
H130_12 H 0.6775 0.3448 0.2903
H131_16 H 0.3225 0.2903 0.1552
H133_12 H 0.7097 0.3225 0.3448
H134_16 H 0.2903 0.3448 0.1775
H138_12 H 0.6425 0.2634 0.3096
H139_16 H 0.3575 0.3096 0.2366
H141_12 H 0.6904 0.3575 0.2634
H142_16 H 0.3096 0.2634 0.1425
H144_12 H 0.7366 0.3096 0.3575
H145_16 H 0.2634 0.3575 0.1904
H149_12 H 0.6329 0.2925 0.2990
H150_16 H 0.3671 0.2990 0.2075
H152_12 H 0.7010 0.3671 0.2925
H153_16 H 0.2990 0.2925 0.1329
H155_12 H 0.7075 0.2990 0.3671
H156_16 H 0.2925 0.3671 0.2010
O35_22 O 0.5000 0.1950(3) 0.1760(3)
O36_22 O 0.5000 0.3050(3) 0.3240(3)
O37_22 O 0.5000 0.3240(3) 0.1950(3)
C170_22 C 0.5000 0.1707(9) 0.1906(9)
C171_22 C 0.5000 0.3094(9) 0.1707(9)
C172_22 C 0.5000 0.3293(9) 0.3094(9)
H157_16 H 0.481952 0.169751 0.203326
H158_22 H 0.5 0.153651 0.176531
H159_16 H 0.518048 0.169751 0.203326
H160_16 H 0.481952 0.296674 0.169751
H161_22 H 0.5 0.323469 0.153651
H162_16 H 0.518048 0.296674 0.169751
H163_16 H 0.481952 0.330249 0.296674
H164_22 H 0.5 0.346349 0.323469
H165_16 H 0.518048 0.330249 0.296674
H166_16 H 0.481952 0.203326 0.330249
H167_22 H 0.5 0.176531 0.346349
H168_16 H 0.518048 0.203326 0.330249
Dy18_21 Dy 0.0000 0.20933(3) 0.76791(3)
O3_23 O 0.7500 0.2500 0.0000
O4_23 O 0.6760(3) 0.3050(3) 0.0000
C15_23 C 0.6906(9) 0.3293(9) -0.0000
O6_15 O 0.70625(15) 0.22943(12) 0.02988(13)
O7_11 O 0.72943(12) 0.29375(15) 0.02988(13)
O20_15 O 0.67263(9) 0.25795(10) 0.03384(9)
O24_11 O 0.75795(10) 0.32737(9) 0.03384(9)
C16_14 C 0.73657(14) 0.31691(14) 0.04071(12)
C21_14 C 0.68309(14) 0.45929(12) 0.23657(14)
C22_14 C 0.54071(12) 0.26343(14) 0.18309(14)
C27_14 C 0.71969(12) 0.32784(13) 0.06307(12)
C32_14 C 0.67216(13) 0.43693(12) 0.21969(12)
C33_14 C 0.56307(12) 0.28031(12) 0.17216(13)
C38_14 C 0.69695(12) 0.31347(13) 0.07203(12)
C43_14 C 0.68653(13) 0.42797(12) 0.19695(12)
C44_14 C 0.57203(12) 0.30305(12) 0.18653(13)
H14_14 H 0.6918 0.2970 0.0635
H19_14 H 0.7030 0.4365 0.1918
H20_14 H 0.5635 0.3082 0.2030
C51_14 C 0.68185(12) 0.32386(13) 0.09385(11)
C54_14 C 0.67614(13) 0.40615(11) 0.18185(12)
C55_14 C 0.59385(11) 0.31815(12) 0.17614(13)
C62_14 C 0.68939(12) 0.34803(13) 0.10706(12)
C65_14 C 0.60706(12) 0.31061(12) 0.15197(13)
C68_14 C 0.65197(13) 0.39294(12) 0.18939(12)
C73_14 C 0.71214(13) 0.36197(13) 0.09749(13)
C76_14 C 0.59749(13) 0.28786(13) 0.13803(13)
C79_14 C 0.63803(13) 0.40251(13) 0.21214(13)
H27_14 H 0.7176 0.3784 0.1059
H30_14 H 0.6059 0.2824 0.1216
H33_14 H 0.6216 0.3941 0.2176
C82_14 C 0.72670(12) 0.35185(13) 0.07576(13)
C87_14 C 0.57576(13) 0.27330(12) 0.14815(13)
C90_14 C 0.64815(13) 0.42424(13) 0.22670(12)
H36_14 H 0.7420 0.3617 0.0694
H41_14 H 0.5694 0.2580 0.1383
H44_14 H 0.6383 0.4306 0.2420
C95_14 C 0.65664(14) 0.31126(13) 0.10558(12)
C98_14 C 0.68874(13) 0.39442(12) 0.15664(14)
C101_14 C 0.60558(12) 0.34336(14) 0.18874(13)
C106_14 C 0.65022(12) 0.33102(12) 0.12838(12)
C109_14 C 0.66898(12) 0.37162(12) 0.15022(12)
C112_14 C 0.62838(12) 0.34978(12) 0.16898(12)
C117_14 C 0.66967(12) 0.35239(12) 0.12949(12)
C120_14 C 0.62949(12) 0.33033(12) 0.14761(12)
C123_14 C 0.64761(12) 0.37051(12) 0.16967(12)
C128_14 C 0.63500(15) 0.31024(18) 0.08286(15)
C131_14 C 0.68976(18) 0.41714(15) 0.13500(15)
C134_14 C 0.58286(15) 0.36500(15) 0.18976(18)
H49_14 H 0.6183 0.3017 0.0901
H52_14 H 0.6983 0.4099 0.1183
H55_14 H 0.5901 0.3817 0.1983
H60_14 H 0.6418 0.2987 0.0679
H63_14 H 0.7013 0.4321 0.1418
H66_14 H 0.5679 0.3582 0.2013
C139_14 C 0.62767(19) 0.3384(2) 0.07131(19)
C142_14 C 0.6616(2) 0.42869(19) 0.12767(19)
C145_14 C 0.57131(19) 0.37233(19) 0.1616(2)
H71_14 H 0.6442 0.3474 0.0648
H74_14 H 0.6526 0.4352 0.1442
H77_14 H 0.5648 0.3558 0.1526
H82_14 H 0.6149 0.3363 0.0562
H85_14 H 0.6637 0.4438 0.1149
H88_14 H 0.5562 0.3851 0.1637
H93_14 H 0.6193 0.3495 0.0856
H96_14 H 0.6505 0.4144 0.1193
H99_14 H 0.5856 0.3807 0.1505
C150_14 C 0.66399(15) 0.28256(14) 0.11651(15)
C153_14 C 0.71744(14) 0.38349(15) 0.16399(15)
C156_14 C 0.61651(15) 0.33601(15) 0.21744(14)
H104_14 H 0.6707 0.2714 0.1012
H107_14 H 0.7286 0.3988 0.1707
H110_14 H 0.6012 0.3293 0.2286
H115_14 H 0.6472 0.2739 0.1235
H118_14 H 0.7261 0.3765 0.1472
H121_14 H 0.6235 0.3528 0.2261
C161_14 C 0.6851(2) 0.28217(17) 0.13871(18)
C164_14 C 0.71783(17) 0.36129(18) 0.1851(2)
C167_14 C 0.63871(18) 0.3149(2) 0.21783(17)
H126_14 H 0.6775 0.2903 0.1552
H129_14 H 0.7097 0.3448 0.1775
H132_14 H 0.6552 0.3225 0.2097
H137_14 H 0.6904 0.2634 0.1425
H140_14 H 0.7366 0.3575 0.1904
H143_14 H 0.6425 0.3096 0.2366
H148_14 H 0.7010 0.2925 0.1329
H151_14 H 0.7075 0.3671 0.2010
H154_14 H 0.6329 0.2990 0.2075
O35_23 O 0.6950(3) 0.1760(3) 0.0000
O36_23 O 0.8050(3) 0.3240(3) 0.0000
O37_23 O 0.8240(3) 0.1950(3) 0.0000
C170_23 C 0.6707(9) 0.1906(9) 0.0000
C171_23 C 0.8094(9) 0.1707(9) 0.0000
C172_23 C 0.8293(9) 0.3094(9) 0.0000
H158_23 H 0.653651 0.176531 -2.55215e-18
H159_17 H 0.669751 0.203326 0.0180479
H161_23 H 0.823469 0.153651 -2.55215e-18
H162_17 H 0.796674 0.169751 0.0180479
H164_23 H 0.846349 0.323469 -2.55215e-18
H165_17 H 0.830249 0.296674 0.0180479
H167_23 H 0.676531 0.346349 -2.55215e-18
H168_17 H 0.703326 0.330249 0.0180479
O3_24 O 0.7500 0.2500 1.0000
O4_24 O 0.6760(3) 0.3050(3) 1.0000
C15_24 C 0.6906(9) 0.3293(9) 1.0000
Dy18_22 Dy 1.0000 0.20933(3) 0.76791(3)
O8_15 O 0.77057(12) 0.20625(15) 0.97012(13)
O11_17 O 0.79375(15) 0.27057(12) 0.97012(13)
O19_17 O 0.97012(13) 0.22943(12) 0.79375(15)
O21_15 O 0.74205(10) 0.17263(9) 0.96616(9)
O26_17 O 0.82737(9) 0.24205(10) 0.96616(9)
O34_17 O 0.96616(9) 0.25795(10) 0.82737(9)
C18_17 C 0.76343(14) 0.18309(14) 0.95929(12)
C25_17 C 0.81691(14) 0.04071(12) 0.76343(14)
C26_17 C 0.95929(12) 0.23657(14) 0.81691(14)
C29_17 C 0.78031(12) 0.17216(13) 0.93693(12)
C36_17 C 0.82784(13) 0.06307(12) 0.78031(12)
C37_17 C 0.93693(12) 0.21969(12) 0.82784(13)
C40_17 C 0.80305(12) 0.18653(13) 0.92797(12)
C47_17 C 0.81347(13) 0.07203(12) 0.80305(12)
C48_17 C 0.92797(12) 0.19695(12) 0.81347(13)
H16_17 H 0.8082 0.2030 0.9365
H23_17 H 0.7970 0.0635 0.8082
H24_17 H 0.9365 0.1918 0.7970
C53_17 C 0.81815(12) 0.17614(13) 0.90615(11)
C58_17 C 0.82386(13) 0.09385(11) 0.81815(12)
C59_17 C 0.90615(11) 0.18185(12) 0.82386(13)
C64_17 C 0.81061(12) 0.15197(13) 0.89294(12)
C67_17 C 0.89294(12) 0.18939(12) 0.84803(13)
C70_17 C 0.84803(13) 0.10706(12) 0.81061(12)
C75_17 C 0.78786(13) 0.13803(13) 0.90251(13)
C78_17 C 0.90251(13) 0.21214(13) 0.86197(13)
C81_17 C 0.86197(13) 0.09749(13) 0.78786(13)
H29_17 H 0.7824 0.1216 0.8941
H32_17 H 0.8941 0.2176 0.8784
H35_17 H 0.8784 0.1059 0.7824
C84_17 C 0.77330(12) 0.14815(13) 0.92424(13)
C89_17 C 0.92424(13) 0.22670(12) 0.85185(13)
C92_17 C 0.85185(13) 0.07576(13) 0.77330(12)
H38_17 H 0.7580 0.1383 0.9306
H43_17 H 0.9306 0.2420 0.8617
H46_17 H 0.8617 0.0694 0.7580
C97_17 C 0.84336(14) 0.18874(13) 0.89442(12)
C100_17 C 0.81126(13) 0.10558(12) 0.84336(14)
C103_17 C 0.89442(12) 0.15664(14) 0.81126(13)
C108_17 C 0.84978(12) 0.16898(12) 0.87162(12)
C111_17 C 0.83102(12) 0.12838(12) 0.84978(12)
C114_17 C 0.87162(12) 0.15022(12) 0.83102(12)
C119_17 C 0.83033(12) 0.14761(12) 0.87051(12)
C122_17 C 0.87051(12) 0.16967(12) 0.85239(12)
C125_17 C 0.85239(12) 0.12949(12) 0.83033(12)
C130_17 C 0.86500(15) 0.18976(18) 0.91714(15)
C133_17 C 0.81024(18) 0.08286(15) 0.86500(15)
C136_17 C 0.91714(15) 0.13500(15) 0.81024(18)
H51_17 H 0.8817 0.1983 0.9099
H54_17 H 0.8017 0.0901 0.8817
H57_17 H 0.9099 0.1183 0.8017
H62_17 H 0.8582 0.2013 0.9321
H65_17 H 0.7987 0.0679 0.8582
H68_17 H 0.9321 0.1418 0.7987
C141_17 C 0.87233(19) 0.1616(2) 0.92869(19)
C144_17 C 0.8384(2) 0.07131(19) 0.87233(19)
C147_17 C 0.92869(19) 0.12767(19) 0.8384(2)
H73_17 H 0.8558 0.1526 0.9352
H76_17 H 0.8474 0.0648 0.8558
H79_17 H 0.9352 0.1442 0.8474
H84_17 H 0.8851 0.1637 0.9438
H87_17 H 0.8363 0.0562 0.8851
H90_17 H 0.9438 0.1149 0.8363
H95_17 H 0.8807 0.1505 0.9144
H98_17 H 0.8495 0.0856 0.8807
H101_17 H 0.9144 0.1193 0.8495
C152_17 C 0.83601(15) 0.21744(14) 0.88349(15)
C155_17 C 0.78256(14) 0.11651(15) 0.83601(15)
C158_17 C 0.88349(15) 0.16399(15) 0.78256(14)
H106_17 H 0.8293 0.2286 0.8988
H109_17 H 0.7714 0.1012 0.8293
H112_17 H 0.8988 0.1707 0.7714
H117_17 H 0.8528 0.2261 0.8765
H120_17 H 0.7739 0.1235 0.8528
H123_17 H 0.8765 0.1472 0.7739
C163_17 C 0.8149(2) 0.21783(17) 0.86129(18)
C166_17 C 0.78217(17) 0.13871(18) 0.8149(2)
C169_17 C 0.86129(18) 0.1851(2) 0.78217(17)
H128_17 H 0.8225 0.2097 0.8448
H131_17 H 0.7903 0.1552 0.8225
H134_17 H 0.8448 0.1775 0.7903
H139_17 H 0.8096 0.2366 0.8575
H142_17 H 0.7634 0.1425 0.8096
H145_17 H 0.8575 0.1904 0.7634
H150_17 H 0.7990 0.2075 0.8671
H153_17 H 0.7925 0.1329 0.7990
H156_17 H 0.8671 0.2010 0.7925
O35_24 O 0.6950(3) 0.1760(3) 1.0000
O36_24 O 0.8050(3) 0.3240(3) 1.0000
O37_24 O 0.8240(3) 0.1950(3) 1.0000
C170_24 C 0.6707(9) 0.1906(9) 1.0000
C171_24 C 0.8094(9) 0.1707(9) 1.0000
C172_24 C 0.8293(9) 0.3094(9) 1.0000
H157_17 H 0.669751 0.203326 0.981952
H158_24 H 0.653651 0.176531 1
H160_17 H 0.796674 0.169751 0.981952
H161_24 H 0.823469 0.153651 1
H163_17 H 0.830249 0.296674 0.981952
H164_24 H 0.846349 0.323469 1
H166_17 H 0.703326 0.330249 0.981952
H167_24 H 0.676531 0.346349 1
O3_25 O 0.7500 0.7500 -0.0000
O4_25 O 0.6760(3) 0.6950(3) -0.0000
C15_25 C 0.6906(9) 0.6707(9) 0.0000
O8_16 O 0.77057(12) 0.79375(15) 0.02988(13)
O11_18 O 0.79375(15) 0.72943(12) 0.02988(13)
O19_18 O 0.97012(13) 0.77057(12) 0.20625(15)
O21_16 O 0.74205(10) 0.82737(9) 0.03384(9)
O26_18 O 0.82737(9) 0.75795(10) 0.03384(9)
O34_18 O 0.96616(9) 0.74205(10) 0.17263(9)
C18_18 C 0.76343(14) 0.81691(14) 0.04071(12)
C25_18 C 0.81691(14) 0.95929(12) 0.23657(14)
C26_18 C 0.95929(12) 0.76343(14) 0.18309(14)
C29_18 C 0.78031(12) 0.82784(13) 0.06307(12)
C36_18 C 0.82784(13) 0.93693(12) 0.21969(12)
C37_18 C 0.93693(12) 0.78031(12) 0.17216(13)
C40_18 C 0.80305(12) 0.81347(13) 0.07203(12)
C47_18 C 0.81347(13) 0.92797(12) 0.19695(12)
C48_18 C 0.92797(12) 0.80305(12) 0.18653(13)
H16_18 H 0.8082 0.7970 0.0635
H23_18 H 0.7970 0.9365 0.1918
H24_18 H 0.9365 0.8082 0.2030
C53_18 C 0.81815(12) 0.82386(13) 0.09385(11)
C58_18 C 0.82386(13) 0.90615(11) 0.18185(12)
C59_18 C 0.90615(11) 0.81815(12) 0.17614(13)
C64_18 C 0.81061(12) 0.84803(13) 0.10706(12)
C67_18 C 0.89294(12) 0.81061(12) 0.15197(13)
C70_18 C 0.84803(13) 0.89294(12) 0.18939(12)
C75_18 C 0.78786(13) 0.86197(13) 0.09749(13)
C78_18 C 0.90251(13) 0.78786(13) 0.13803(13)
C81_18 C 0.86197(13) 0.90251(13) 0.21214(13)
H29_18 H 0.7824 0.8784 0.1059
H32_18 H 0.8941 0.7824 0.1216
H35_18 H 0.8784 0.8941 0.2176
C84_18 C 0.77330(12) 0.85185(13) 0.07576(13)
C89_18 C 0.92424(13) 0.77330(12) 0.14815(13)
C92_18 C 0.85185(13) 0.92424(13) 0.22670(12)
H38_18 H 0.7580 0.8617 0.0694
H43_18 H 0.9306 0.7580 0.1383
H46_18 H 0.8617 0.9306 0.2420
C97_18 C 0.84336(14) 0.81126(13) 0.10558(12)
C100_18 C 0.81126(13) 0.89442(12) 0.15664(14)
C103_18 C 0.89442(12) 0.84336(14) 0.18874(13)
C108_18 C 0.84978(12) 0.83102(12) 0.12838(12)
C111_18 C 0.83102(12) 0.87162(12) 0.15022(12)
C114_18 C 0.87162(12) 0.84978(12) 0.16898(12)
C119_18 C 0.83033(12) 0.85239(12) 0.12949(12)
C122_18 C 0.87051(12) 0.83033(12) 0.14761(12)
C125_18 C 0.85239(12) 0.87051(12) 0.16967(12)
C130_18 C 0.86500(15) 0.81024(18) 0.08286(15)
C133_18 C 0.81024(18) 0.91714(15) 0.13500(15)
C136_18 C 0.91714(15) 0.86500(15) 0.18976(18)
H51_18 H 0.8817 0.8017 0.0901
H54_18 H 0.8017 0.9099 0.1183
H57_18 H 0.9099 0.8817 0.1983
H62_18 H 0.8582 0.7987 0.0679
H65_18 H 0.7987 0.9321 0.1418
H68_18 H 0.9321 0.8582 0.2013
C141_18 C 0.87233(19) 0.8384(2) 0.07131(19)
C144_18 C 0.8384(2) 0.92869(19) 0.12767(19)
C147_18 C 0.92869(19) 0.87233(19) 0.1616(2)
H73_18 H 0.8558 0.8474 0.0648
H76_18 H 0.8474 0.9352 0.1442
H79_18 H 0.9352 0.8558 0.1526
H84_18 H 0.8851 0.8363 0.0562
H87_18 H 0.8363 0.9438 0.1149
H90_18 H 0.9438 0.8851 0.1637
H95_18 H 0.8807 0.8495 0.0856
H98_18 H 0.8495 0.9144 0.1193
H101_18 H 0.9144 0.8807 0.1505
C152_18 C 0.83601(15) 0.78256(14) 0.11651(15)
C155_18 C 0.78256(14) 0.88349(15) 0.16399(15)
C158_18 C 0.88349(15) 0.83601(15) 0.21744(14)
H106_18 H 0.8293 0.7714 0.1012
H109_18 H 0.7714 0.8988 0.1707
H112_18 H 0.8988 0.8293 0.2286
H117_18 H 0.8528 0.7739 0.1235
H120_18 H 0.7739 0.8765 0.1472
H123_18 H 0.8765 0.8528 0.2261
C163_18 C 0.8149(2) 0.78217(17) 0.13871(18)
C166_18 C 0.78217(17) 0.86129(18) 0.1851(2)
C169_18 C 0.86129(18) 0.8149(2) 0.21783(17)
H128_18 H 0.8225 0.7903 0.1552
H131_18 H 0.7903 0.8448 0.1775
H134_18 H 0.8448 0.8225 0.2097
H139_18 H 0.8096 0.7634 0.1425
H142_18 H 0.7634 0.8575 0.1904
H145_18 H 0.8575 0.8096 0.2366
H150_18 H 0.7990 0.7925 0.1329
H153_18 H 0.7925 0.8671 0.2010
H156_18 H 0.8671 0.7990 0.2075
O35_25 O 0.6950(3) 0.8240(3) -0.0000
O36_25 O 0.8050(3) 0.6760(3) -0.0000
O37_25 O 0.8240(3) 0.8050(3) -0.0000
C170_25 C 0.6707(9) 0.8094(9) 0.0000
C171_25 C 0.8094(9) 0.8293(9) -0.0000
C172_25 C 0.8293(9) 0.6906(9) 0.0000
H157_18 H 0.669751 0.796674 0.0180479
H158_25 H 0.653651 0.823469 2.55215e-18
H160_18 H 0.796674 0.830249 0.0180479
H161_25 H 0.823469 0.846349 2.55215e-18
H163_18 H 0.830249 0.703326 0.0180479
H164_25 H 0.846349 0.676531 2.55215e-18
H166_18 H 0.703326 0.669751 0.0180479
H167_25 H 0.676531 0.653651 2.55215e-18
O3_26 O 0.7500 0.7500 1.0000
O4_26 O 0.6760(3) 0.6950(3) 1.0000
C15_26 C 0.6906(9) 0.6707(9) 1.0000
O35_26 O 0.6950(3) 0.8240(3) 1.0000
O36_26 O 0.8050(3) 0.6760(3) 1.0000
O37_26 O 0.8240(3) 0.8050(3) 1.0000
C170_26 C 0.6707(9) 0.8094(9) 1.0000
C171_26 C 0.8094(9) 0.8293(9) 1.0000
C172_26 C 0.8293(9) 0.6906(9) 1.0000
H158_26 H 0.653651 0.823469 1
H159_18 H 0.669751 0.796674 0.981952
H161_26 H 0.823469 0.846349 1
H162_18 H 0.796674 0.830249 0.981952
H164_26 H 0.846349 0.676531 1
H165_18 H 0.830249 0.703326 0.981952
H167_26 H 0.676531 0.653651 1
H168_18 H 0.703326 0.669751 0.981952
O19_19 O 0.97012(13) 0.20625(15) 0.72943(12)
O34_19 O 0.96616(9) 0.17263(9) 0.75795(10)
C18_19 C 0.76343(14) 0.04071(12) 0.68309(14)
C25_19 C 0.81691(14) 0.23657(14) 0.54071(12)
C26_19 C 0.95929(12) 0.18309(14) 0.73657(14)
C29_19 C 0.78031(12) 0.06307(12) 0.67216(13)
C36_19 C 0.82784(13) 0.21969(12) 0.56307(12)
C37_19 C 0.93693(12) 0.17216(13) 0.71969(12)
C40_19 C 0.80305(12) 0.07203(12) 0.68653(13)
C47_19 C 0.81347(13) 0.19695(12) 0.57203(12)
C48_19 C 0.92797(12) 0.18653(13) 0.69695(12)
H16_19 H 0.8082 0.0635 0.7030
H23_19 H 0.7970 0.1918 0.5635
H24_19 H 0.9365 0.2030 0.6918
C53_19 C 0.81815(12) 0.09385(11) 0.67614(13)
C58_19 C 0.82386(13) 0.18185(12) 0.59385(11)
C59_19 C 0.90615(11) 0.17614(13) 0.68185(12)
C64_19 C 0.81061(12) 0.10706(12) 0.65197(13)
C67_19 C 0.89294(12) 0.15197(13) 0.68939(12)
C70_19 C 0.84803(13) 0.18939(12) 0.60706(12)
C75_19 C 0.78786(13) 0.09749(13) 0.63803(13)
C78_19 C 0.90251(13) 0.13803(13) 0.71214(13)
C81_19 C 0.86197(13) 0.21214(13) 0.59749(13)
H29_19 H 0.7824 0.1059 0.6216
H32_19 H 0.8941 0.1216 0.7176
H35_19 H 0.8784 0.2176 0.6059
C84_19 C 0.77330(12) 0.07576(13) 0.64815(13)
C89_19 C 0.92424(13) 0.14815(13) 0.72670(12)
C92_19 C 0.85185(13) 0.22670(12) 0.57576(13)
H38_19 H 0.7580 0.0694 0.6383
H43_19 H 0.9306 0.1383 0.7420
H46_19 H 0.8617 0.2420 0.5694
C97_19 C 0.84336(14) 0.10558(12) 0.68874(13)
C100_19 C 0.81126(13) 0.15664(14) 0.60558(12)
C103_19 C 0.89442(12) 0.18874(13) 0.65664(14)
C108_19 C 0.84978(12) 0.12838(12) 0.66898(12)
C111_19 C 0.83102(12) 0.15022(12) 0.62838(12)
C114_19 C 0.87162(12) 0.16898(12) 0.65022(12)
C119_19 C 0.83033(12) 0.12949(12) 0.64761(12)
C122_19 C 0.87051(12) 0.14761(12) 0.66967(12)
C125_19 C 0.85239(12) 0.16967(12) 0.62949(12)
C130_19 C 0.86500(15) 0.08286(15) 0.68976(18)
C133_19 C 0.81024(18) 0.13500(15) 0.58286(15)
C136_19 C 0.91714(15) 0.18976(18) 0.63500(15)
H51_19 H 0.8817 0.0901 0.6983
H54_19 H 0.8017 0.1183 0.5901
H57_19 H 0.9099 0.1983 0.6183
H62_19 H 0.8582 0.0679 0.7013
H65_19 H 0.7987 0.1418 0.5679
H68_19 H 0.9321 0.2013 0.6418
C141_19 C 0.87233(19) 0.07131(19) 0.6616(2)
C144_19 C 0.8384(2) 0.12767(19) 0.57131(19)
C147_19 C 0.92869(19) 0.1616(2) 0.62767(19)
H73_19 H 0.8558 0.0648 0.6526
H76_19 H 0.8474 0.1442 0.5648
H79_19 H 0.9352 0.1526 0.6442
H84_19 H 0.8851 0.0562 0.6637
H87_19 H 0.8363 0.1149 0.5562
H90_19 H 0.9438 0.1637 0.6149
H95_19 H 0.8807 0.0856 0.6505
H98_19 H 0.8495 0.1193 0.5856
H101_19 H 0.9144 0.1505 0.6193
C152_19 C 0.83601(15) 0.11651(15) 0.71744(14)
C155_19 C 0.78256(14) 0.16399(15) 0.61651(15)
C158_19 C 0.88349(15) 0.21744(14) 0.66399(15)
H106_19 H 0.8293 0.1012 0.7286
H109_19 H 0.7714 0.1707 0.6012
H112_19 H 0.8988 0.2286 0.6707
H117_19 H 0.8528 0.1235 0.7261
H120_19 H 0.7739 0.1472 0.6235
H123_19 H 0.8765 0.2261 0.6472
C163_19 C 0.8149(2) 0.13871(18) 0.71783(17)
C166_19 C 0.78217(17) 0.1851(2) 0.63871(18)
C169_19 C 0.86129(18) 0.21783(17) 0.6851(2)
H128_19 H 0.8225 0.1552 0.7097
H131_19 H 0.7903 0.1775 0.6552
H134_19 H 0.8448 0.2097 0.6775
H139_19 H 0.8096 0.1425 0.7366
H142_19 H 0.7634 0.1904 0.6425
H145_19 H 0.8575 0.2366 0.6904
H150_19 H 0.7990 0.1329 0.7075
H153_19 H 0.7925 0.2010 0.6329
H156_19 H 0.8671 0.2075 0.7010
O3_27 O 0.2500 0.5000 0.2500
O4_27 O 0.3050(3) 0.5000 0.1760(3)
C15_27 C 0.3293(9) 0.5000 0.1906(9)
O6_16 O 0.22943(12) 0.52988(13) 0.20625(15)
O8_17 O 0.20625(15) 0.47012(13) 0.27057(12)
O9_10 O 0.20625(15) 0.52988(13) 0.27057(12)
O11_19 O 0.27057(12) 0.47012(13) 0.29375(15)
O19_20 O 0.22943(12) 0.29375(15) 0.47012(13)
O20_16 O 0.25795(10) 0.53384(9) 0.17263(9)
O21_17 O 0.17263(9) 0.46616(9) 0.24205(10)
O22_10 O 0.17263(9) 0.53384(9) 0.24205(10)
O26_19 O 0.24205(10) 0.46616(9) 0.32737(9)
O34_20 O 0.25795(10) 0.32737(9) 0.46616(9)
C18_20 C 0.18309(14) 0.45929(12) 0.26343(14)
C25_20 C 0.04071(12) 0.26343(14) 0.31691(14)
C26_20 C 0.23657(14) 0.31691(14) 0.45929(12)
C29_20 C 0.17216(13) 0.43693(12) 0.28031(12)
C36_20 C 0.06307(12) 0.28031(12) 0.32784(13)
C37_20 C 0.21969(12) 0.32784(13) 0.43693(12)
C40_20 C 0.18653(13) 0.42797(12) 0.30305(12)
C47_20 C 0.07203(12) 0.30305(12) 0.31347(13)
C48_20 C 0.19695(12) 0.31347(13) 0.42797(12)
H16_20 H 0.2030 0.4365 0.3082
H23_20 H 0.0635 0.3082 0.2970
H24_20 H 0.1918 0.2970 0.4365
C53_20 C 0.17614(13) 0.40615(11) 0.31815(12)
C58_20 C 0.09385(11) 0.31815(12) 0.32386(13)
C59_20 C 0.18185(12) 0.32386(13) 0.40615(11)
C64_20 C 0.15197(13) 0.39294(12) 0.31061(12)
C67_20 C 0.18939(12) 0.34803(13) 0.39294(12)
C70_20 C 0.10706(12) 0.31061(12) 0.34803(13)
C75_20 C 0.13803(13) 0.40251(13) 0.28786(13)
C78_20 C 0.21214(13) 0.36197(13) 0.40251(13)
C81_20 C 0.09749(13) 0.28786(13) 0.36197(13)
H29_20 H 0.1216 0.3941 0.2824
H32_20 H 0.2176 0.3784 0.3941
H35_20 H 0.1059 0.2824 0.3784
C84_20 C 0.14815(13) 0.42424(13) 0.27330(12)
C89_20 C 0.22670(12) 0.35185(13) 0.42424(13)
C92_20 C 0.07576(13) 0.27330(12) 0.35185(13)
H38_20 H 0.1383 0.4306 0.2580
H43_20 H 0.2420 0.3617 0.4306
H46_20 H 0.0694 0.2580 0.3617
C97_20 C 0.18874(13) 0.39442(12) 0.34336(14)
C100_20 C 0.10558(12) 0.34336(14) 0.31126(13)
C103_20 C 0.15664(14) 0.31126(13) 0.39442(12)
C108_20 C 0.16898(12) 0.37162(12) 0.34978(12)
C111_20 C 0.12838(12) 0.34978(12) 0.33102(12)
C114_20 C 0.15022(12) 0.33102(12) 0.37162(12)
C119_20 C 0.14761(12) 0.37051(12) 0.33033(12)
C122_20 C 0.16967(12) 0.35239(12) 0.37051(12)
C125_20 C 0.12949(12) 0.33033(12) 0.35239(12)
C130_20 C 0.18976(18) 0.41714(15) 0.36500(15)
C133_20 C 0.08286(15) 0.36500(15) 0.31024(18)
C136_20 C 0.13500(15) 0.31024(18) 0.41714(15)
H51_20 H 0.1983 0.4099 0.3817
H54_20 H 0.0901 0.3817 0.3017
H57_20 H 0.1183 0.3017 0.4099
H62_20 H 0.2013 0.4321 0.3582
H65_20 H 0.0679 0.3582 0.2987
H68_20 H 0.1418 0.2987 0.4321
C141_20 C 0.1616(2) 0.42869(19) 0.37233(19)
C144_20 C 0.07131(19) 0.37233(19) 0.3384(2)
C147_20 C 0.12767(19) 0.3384(2) 0.42869(19)
H73_20 H 0.1526 0.4352 0.3558
H76_20 H 0.0648 0.3558 0.3474
H79_20 H 0.1442 0.3474 0.4352
H84_20 H 0.1637 0.4438 0.3851
H87_20 H 0.0562 0.3851 0.3363
H90_20 H 0.1149 0.3363 0.4438
H95_20 H 0.1505 0.4144 0.3807
H98_20 H 0.0856 0.3807 0.3495
H101_20 H 0.1193 0.3495 0.4144
C152_20 C 0.21744(14) 0.38349(15) 0.33601(15)
C155_20 C 0.11651(15) 0.33601(15) 0.28256(14)
C158_20 C 0.16399(15) 0.28256(14) 0.38349(15)
H106_20 H 0.2286 0.3988 0.3293
H109_20 H 0.1012 0.3293 0.2714
H112_20 H 0.1707 0.2714 0.3988
H117_20 H 0.2261 0.3765 0.3528
H120_20 H 0.1235 0.3528 0.2739
H123_20 H 0.1472 0.2739 0.3765
C163_20 C 0.21783(17) 0.36129(18) 0.3149(2)
C166_20 C 0.13871(18) 0.3149(2) 0.28217(17)
C169_20 C 0.1851(2) 0.28217(17) 0.36129(18)
H128_20 H 0.2097 0.3448 0.3225
H131_20 H 0.1552 0.3225 0.2903
H134_20 H 0.1775 0.2903 0.3448
H139_20 H 0.2366 0.3575 0.3096
H142_20 H 0.1425 0.3096 0.2634
H145_20 H 0.1904 0.2634 0.3575
H150_20 H 0.2075 0.3671 0.2990
H153_20 H 0.1329 0.2990 0.2925
H156_20 H 0.2010 0.2925 0.3671
O35_27 O 0.1760(3) 0.5000 0.1950(3)
O36_27 O 0.3240(3) 0.5000 0.3050(3)
O37_27 O 0.1950(3) 0.5000 0.3240(3)
C170_27 C 0.1906(9) 0.5000 0.1707(9)
C171_27 C 0.1707(9) 0.5000 0.3094(9)
C172_27 C 0.3094(9) 0.5000 0.3293(9)
H157_19 H 0.203326 0.481952 0.169751
H158_27 H 0.176531 0.5 0.153651
H159_19 H 0.203326 0.518048 0.169751
H160_19 H 0.169751 0.481952 0.296674
H161_27 H 0.153651 0.5 0.323469
H162_19 H 0.169751 0.518048 0.296674
H163_19 H 0.296674 0.481952 0.330249
H164_27 H 0.323469 0.5 0.346349
H165_19 H 0.296674 0.518048 0.330249
H166_19 H 0.330249 0.481952 0.203326
H167_27 H 0.346349 0.5 0.176531
H168_19 H 0.330249 0.518048 0.203326
C1_7 C 0.76343(14) 0.54071(12) 0.18309(14)
C2_7 C 0.78031(12) 0.56307(12) 0.17216(13)
C3_7 C 0.80305(12) 0.57203(12) 0.18653(13)
H1_7 H 0.8082 0.5635 0.2030
C4_7 C 0.81815(12) 0.59385(11) 0.17614(13)
C5_7 C 0.81061(12) 0.60706(12) 0.15197(13)
C6_7 C 0.78786(13) 0.59749(13) 0.13803(13)
H2_7 H 0.7824 0.6059 0.1216
C7_7 C 0.77330(12) 0.57576(13) 0.14815(13)
H3_7 H 0.7580 0.5694 0.1383
C8_7 C 0.84336(14) 0.60558(12) 0.18874(13)
C9_7 C 0.84978(12) 0.62838(12) 0.16898(12)
C10_7 C 0.83033(12) 0.62949(12) 0.14761(12)
C11_7 C 0.86500(15) 0.58286(15) 0.18976(18)
H4_7 H 0.8817 0.5901 0.1983
H5_7 H 0.8582 0.5679 0.2013
C12_7 C 0.87233(19) 0.57131(19) 0.1616(2)
H6_7 H 0.8558 0.5648 0.1526
H7_7 H 0.8851 0.5562 0.1637
H8_7 H 0.8807 0.5856 0.1505
C13_7 C 0.83601(15) 0.61651(15) 0.21744(14)
H9_7 H 0.8293 0.6012 0.2286
H10_7 H 0.8528 0.6235 0.2261
C14_7 C 0.8149(2) 0.63871(18) 0.21783(17)
H11_7 H 0.8225 0.6552 0.2097
H12_7 H 0.8096 0.6425 0.2366
H13_7 H 0.7990 0.6329 0.2075
O12_5 O 0.97012(13) 0.70625(15) 0.22943(12)
O27_5 O 0.96616(9) 0.67263(9) 0.25795(10)
C19_7 C 0.95929(12) 0.68309(14) 0.23657(14)
C20_7 C 0.81691(14) 0.73657(14) 0.04071(12)
C30_7 C 0.93693(12) 0.67216(13) 0.21969(12)
C31_7 C 0.82784(13) 0.71969(12) 0.06307(12)
C41_7 C 0.92797(12) 0.68653(13) 0.19695(12)
C42_7 C 0.81347(13) 0.69695(12) 0.07203(12)
H17_7 H 0.9365 0.7030 0.1918
H18_7 H 0.7970 0.6918 0.0635
C49_7 C 0.90615(11) 0.67614(13) 0.18185(12)
C50_7 C 0.82386(13) 0.68185(12) 0.09385(11)
C60_7 C 0.89294(12) 0.65197(13) 0.18939(12)
C61_7 C 0.84803(13) 0.68939(12) 0.10706(12)
C71_7 C 0.90251(13) 0.63803(13) 0.21214(13)
C72_7 C 0.86197(13) 0.71214(13) 0.09749(13)
H25_7 H 0.8941 0.6216 0.2176
H26_7 H 0.8784 0.7176 0.1059
C85_7 C 0.92424(13) 0.64815(13) 0.22670(12)
C86_7 C 0.85185(13) 0.72670(12) 0.07576(13)
H39_7 H 0.9306 0.6383 0.2420
H40_7 H 0.8617 0.7420 0.0694
C93_7 C 0.81126(13) 0.65664(14) 0.10558(12)
C94_7 C 0.89442(12) 0.68874(13) 0.15664(14)
C104_7 C 0.83102(12) 0.65022(12) 0.12838(12)
C105_7 C 0.87162(12) 0.66898(12) 0.15022(12)
C115_7 C 0.87051(12) 0.64761(12) 0.16967(12)
C116_7 C 0.85239(12) 0.66967(12) 0.12949(12)
C126_7 C 0.81024(18) 0.63500(15) 0.08286(15)
C127_7 C 0.91714(15) 0.68976(18) 0.13500(15)
H47_7 H 0.8017 0.6183 0.0901
H48_7 H 0.9099 0.6983 0.1183
H58_7 H 0.7987 0.6418 0.0679
H59_7 H 0.9321 0.7013 0.1418
C137_7 C 0.8384(2) 0.62767(19) 0.07131(19)
C138_7 C 0.92869(19) 0.6616(2) 0.12767(19)
H69_7 H 0.8474 0.6442 0.0648
H70_7 H 0.9352 0.6526 0.1442
H80_7 H 0.8363 0.6149 0.0562
H81_7 H 0.9438 0.6637 0.1149
H91_7 H 0.8495 0.6193 0.0856
H92_7 H 0.9144 0.6505 0.1193
C148_7 C 0.78256(14) 0.66399(15) 0.11651(15)
C149_7 C 0.88349(15) 0.71744(14) 0.16399(15)
H102_7 H 0.7714 0.6707 0.1012
H103_7 H 0.8988 0.7286 0.1707
H113_7 H 0.7739 0.6472 0.1235
H114_7 H 0.8765 0.7261 0.1472
C159_7 C 0.78217(17) 0.6851(2) 0.13871(18)
C160_7 C 0.86129(18) 0.71783(17) 0.1851(2)
H124_7 H 0.7903 0.6775 0.1552
H125_7 H 0.8448 0.7097 0.1775
H135_7 H 0.7634 0.6904 0.1425
H136_7 H 0.8575 0.7366 0.1904
H146_7 H 0.7925 0.7010 0.1329
H147_7 H 0.8671 0.7075 0.2010
O18_10 O 0.22943(12) 0.79375(15) 0.97012(13)
O19_21 O 0.20625(15) 0.97012(13) 0.77057(12)
O33_10 O 0.25795(10) 0.82737(9) 0.96616(9)
O34_21 O 0.17263(9) 0.96616(9) 0.74205(10)
C18_21 C 0.04071(12) 0.76343(14) 0.81691(14)
C25_21 C 0.23657(14) 0.81691(14) 0.95929(12)
C26_21 C 0.18309(14) 0.95929(12) 0.76343(14)
C29_21 C 0.06307(12) 0.78031(12) 0.82784(13)
C36_21 C 0.21969(12) 0.82784(13) 0.93693(12)
C37_21 C 0.17216(13) 0.93693(12) 0.78031(12)
C40_21 C 0.07203(12) 0.80305(12) 0.81347(13)
C47_21 C 0.19695(12) 0.81347(13) 0.92797(12)
C48_21 C 0.18653(13) 0.92797(12) 0.80305(12)
H16_21 H 0.0635 0.8082 0.7970
H23_21 H 0.1918 0.7970 0.9365
H24_21 H 0.2030 0.9365 0.8082
C53_21 C 0.09385(11) 0.81815(12) 0.82386(13)
C58_21 C 0.18185(12) 0.82386(13) 0.90615(11)
C59_21 C 0.17614(13) 0.90615(11) 0.81815(12)
C64_21 C 0.10706(12) 0.81061(12) 0.84803(13)
C67_21 C 0.15197(13) 0.89294(12) 0.81061(12)
C70_21 C 0.18939(12) 0.84803(13) 0.89294(12)
C75_21 C 0.09749(13) 0.78786(13) 0.86197(13)
C78_21 C 0.13803(13) 0.90251(13) 0.78786(13)
C81_21 C 0.21214(13) 0.86197(13) 0.90251(13)
H29_21 H 0.1059 0.7824 0.8784
H32_21 H 0.1216 0.8941 0.7824
H35_21 H 0.2176 0.8784 0.8941
C84_21 C 0.07576(13) 0.77330(12) 0.85185(13)
C89_21 C 0.14815(13) 0.92424(13) 0.77330(12)
C92_21 C 0.22670(12) 0.85185(13) 0.92424(13)
H38_21 H 0.0694 0.7580 0.8617
H43_21 H 0.1383 0.9306 0.7580
H46_21 H 0.2420 0.8617 0.9306
C97_21 C 0.10558(12) 0.84336(14) 0.81126(13)
C100_21 C 0.15664(14) 0.81126(13) 0.89442(12)
C103_21 C 0.18874(13) 0.89442(12) 0.84336(14)
C108_21 C 0.12838(12) 0.84978(12) 0.83102(12)
C111_21 C 0.15022(12) 0.83102(12) 0.87162(12)
C114_21 C 0.16898(12) 0.87162(12) 0.84978(12)
C119_21 C 0.12949(12) 0.83033(12) 0.85239(12)
C122_21 C 0.14761(12) 0.87051(12) 0.83033(12)
C125_21 C 0.16967(12) 0.85239(12) 0.87051(12)
C130_21 C 0.08286(15) 0.86500(15) 0.81024(18)
C133_21 C 0.13500(15) 0.81024(18) 0.91714(15)
C136_21 C 0.18976(18) 0.91714(15) 0.86500(15)
H51_21 H 0.0901 0.8817 0.8017
H54_21 H 0.1183 0.8017 0.9099
H57_21 H 0.1983 0.9099 0.8817
H62_21 H 0.0679 0.8582 0.7987
H65_21 H 0.1418 0.7987 0.9321
H68_21 H 0.2013 0.9321 0.8582
C141_21 C 0.07131(19) 0.87233(19) 0.8384(2)
C144_21 C 0.12767(19) 0.8384(2) 0.92869(19)
C147_21 C 0.1616(2) 0.92869(19) 0.87233(19)
H73_21 H 0.0648 0.8558 0.8474
H76_21 H 0.1442 0.8474 0.9352
H79_21 H 0.1526 0.9352 0.8558
H84_21 H 0.0562 0.8851 0.8363
H87_21 H 0.1149 0.8363 0.9438
H90_21 H 0.1637 0.9438 0.8851
H95_21 H 0.0856 0.8807 0.8495
H98_21 H 0.1193 0.8495 0.9144
H101_21 H 0.1505 0.9144 0.8807
C152_21 C 0.11651(15) 0.83601(15) 0.78256(14)
C155_21 C 0.16399(15) 0.78256(14) 0.88349(15)
C158_21 C 0.21744(14) 0.88349(15) 0.83601(15)
H106_21 H 0.1012 0.8293 0.7714
H109_21 H 0.1707 0.7714 0.8988
H112_21 H 0.2286 0.8988 0.8293
H117_21 H 0.1235 0.8528 0.7739
H120_21 H 0.1472 0.7739 0.8765
H123_21 H 0.2261 0.8765 0.8528
C163_21 C 0.13871(18) 0.8149(2) 0.78217(17)
C166_21 C 0.1851(2) 0.78217(17) 0.86129(18)
C169_21 C 0.21783(17) 0.86129(18) 0.8149(2)
H128_21 H 0.1552 0.8225 0.7903
H131_21 H 0.1775 0.7903 0.8448
H134_21 H 0.2097 0.8448 0.8225
H139_21 H 0.1425 0.8096 0.7634
H142_21 H 0.1904 0.7634 0.8575
H145_21 H 0.2366 0.8575 0.8096
H150_21 H 0.1329 0.7990 0.7925
H153_21 H 0.2010 0.7925 0.8671
H156_21 H 0.2075 0.8671 0.7990
O3_28 O 0.0000 0.7500 0.2500
O4_28 O 0.0000 0.6760(3) 0.3050(3)
C15_28 C -0.0000 0.6906(9) 0.3293(9)
O6_17 O 0.02988(13) 0.70625(15) 0.22943(12)
O7_12 O 0.02988(13) 0.72943(12) 0.29375(15)
O20_17 O 0.03384(9) 0.67263(9) 0.25795(10)
O24_12 O 0.03384(9) 0.75795(10) 0.32737(9)
C16_15 C 0.04071(12) 0.73657(14) 0.31691(14)
C21_15 C 0.23657(14) 0.68309(14) 0.45929(12)
C22_15 C 0.18309(14) 0.54071(12) 0.26343(14)
C27_15 C 0.06307(12) 0.71969(12) 0.32784(13)
C32_15 C 0.21969(12) 0.67216(13) 0.43693(12)
C33_15 C 0.17216(13) 0.56307(12) 0.28031(12)
C38_15 C 0.07203(12) 0.69695(12) 0.31347(13)
C43_15 C 0.19695(12) 0.68653(13) 0.42797(12)
C44_15 C 0.18653(13) 0.57203(12) 0.30305(12)
H14_15 H 0.0635 0.6918 0.2970
H19_15 H 0.1918 0.7030 0.4365
H20_15 H 0.2030 0.5635 0.3082
C51_15 C 0.09385(11) 0.68185(12) 0.32386(13)
C54_15 C 0.18185(12) 0.67614(13) 0.40615(11)
C55_15 C 0.17614(13) 0.59385(11) 0.31815(12)
C62_15 C 0.10706(12) 0.68939(12) 0.34803(13)
C65_15 C 0.15197(13) 0.60706(12) 0.31061(12)
C68_15 C 0.18939(12) 0.65197(13) 0.39294(12)
C73_15 C 0.09749(13) 0.71214(13) 0.36197(13)
C76_15 C 0.13803(13) 0.59749(13) 0.28786(13)
C79_15 C 0.21214(13) 0.63803(13) 0.40251(13)
H27_15 H 0.1059 0.7176 0.3784
H30_15 H 0.1216 0.6059 0.2824
H33_15 H 0.2176 0.6216 0.3941
C82_15 C 0.07576(13) 0.72670(12) 0.35185(13)
C87_15 C 0.14815(13) 0.57576(13) 0.27330(12)
C90_15 C 0.22670(12) 0.64815(13) 0.42424(13)
H36_15 H 0.0694 0.7420 0.3617
H41_15 H 0.1383 0.5694 0.2580
H44_15 H 0.2420 0.6383 0.4306
C95_15 C 0.10558(12) 0.65664(14) 0.31126(13)
C98_15 C 0.15664(14) 0.68874(13) 0.39442(12)
C101_15 C 0.18874(13) 0.60558(12) 0.34336(14)
C106_15 C 0.12838(12) 0.65022(12) 0.33102(12)
C109_15 C 0.15022(12) 0.66898(12) 0.37162(12)
C112_15 C 0.16898(12) 0.62838(12) 0.34978(12)
C117_15 C 0.12949(12) 0.66967(12) 0.35239(12)
C120_15 C 0.14761(12) 0.62949(12) 0.33033(12)
C123_15 C 0.16967(12) 0.64761(12) 0.37051(12)
C128_15 C 0.08286(15) 0.63500(15) 0.31024(18)
C131_15 C 0.13500(15) 0.68976(18) 0.41714(15)
C134_15 C 0.18976(18) 0.58286(15) 0.36500(15)
H49_15 H 0.0901 0.6183 0.3017
H52_15 H 0.1183 0.6983 0.4099
H55_15 H 0.1983 0.5901 0.3817
H60_15 H 0.0679 0.6418 0.2987
H63_15 H 0.1418 0.7013 0.4321
H66_15 H 0.2013 0.5679 0.3582
C139_15 C 0.07131(19) 0.62767(19) 0.3384(2)
C142_15 C 0.12767(19) 0.6616(2) 0.42869(19)
C145_15 C 0.1616(2) 0.57131(19) 0.37233(19)
H71_15 H 0.0648 0.6442 0.3474
H74_15 H 0.1442 0.6526 0.4352
H77_15 H 0.1526 0.5648 0.3558
H82_15 H 0.0562 0.6149 0.3363
H85_15 H 0.1149 0.6637 0.4438
H88_15 H 0.1637 0.5562 0.3851
H93_15 H 0.0856 0.6193 0.3495
H96_15 H 0.1193 0.6505 0.4144
H99_15 H 0.1505 0.5856 0.3807
C150_15 C 0.11651(15) 0.66399(15) 0.28256(14)
C153_15 C 0.16399(15) 0.71744(14) 0.38349(15)
C156_15 C 0.21744(14) 0.61651(15) 0.33601(15)
H104_15 H 0.1012 0.6707 0.2714
H107_15 H 0.1707 0.7286 0.3988
H110_15 H 0.2286 0.6012 0.3293
H115_15 H 0.1235 0.6472 0.2739
H118_15 H 0.1472 0.7261 0.3765
H121_15 H 0.2261 0.6235 0.3528
C161_15 C 0.13871(18) 0.6851(2) 0.28217(17)
C164_15 C 0.1851(2) 0.71783(17) 0.36129(18)
C167_15 C 0.21783(17) 0.63871(18) 0.3149(2)
H126_15 H 0.1552 0.6775 0.2903
H129_15 H 0.1775 0.7097 0.3448
H132_15 H 0.2097 0.6552 0.3225
H137_15 H 0.1425 0.6904 0.2634
H140_15 H 0.1904 0.7366 0.3575
H143_15 H 0.2366 0.6425 0.3096
H148_15 H 0.1329 0.7010 0.2925
H151_15 H 0.2010 0.7075 0.3671
H154_15 H 0.2075 0.6329 0.2990
O35_28 O 0.0000 0.6950(3) 0.1760(3)
O36_28 O 0.0000 0.8050(3) 0.3240(3)
O37_28 O 0.0000 0.8240(3) 0.1950(3)
C170_28 C -0.0000 0.6707(9) 0.1906(9)
C171_28 C -0.0000 0.8094(9) 0.1707(9)
C172_28 C 0.0000 0.8293(9) 0.3094(9)
H158_28 H -2.55215e-18 0.653651 0.176531
H159_20 H 0.0180479 0.669751 0.203326
H161_28 H -2.55215e-18 0.823469 0.153651
H162_20 H 0.0180479 0.796674 0.169751
H164_28 H -2.55215e-18 0.846349 0.323469
H165_20 H 0.0180479 0.830249 0.296674
H167_28 H -2.55215e-18 0.676531 0.346349
H168_20 H 0.0180479 0.703326 0.330249
O3_29 O 1.0000 0.7500 0.2500
O4_29 O 1.0000 0.6760(3) 0.3050(3)
C15_29 C 1.0000 0.6906(9) 0.3293(9)
O11_20 O 0.97012(13) 0.79375(15) 0.27057(12)
O26_20 O 0.96616(9) 0.82737(9) 0.24205(10)
O35_29 O 1.0000 0.6950(3) 0.1760(3)
O36_29 O 1.0000 0.8050(3) 0.3240(3)
O37_29 O 1.0000 0.8240(3) 0.1950(3)
C170_29 C 1.0000 0.6707(9) 0.1906(9)
C171_29 C 1.0000 0.8094(9) 0.1707(9)
C172_29 C 1.0000 0.8293(9) 0.3094(9)
H157_20 H 0.981952 0.669751 0.203326
H158_29 H 1 0.653651 0.176531
H160_20 H 0.981952 0.796674 0.169751
H161_29 H 1 0.823469 0.153651
H163_20 H 0.981952 0.830249 0.296674
H164_29 H 1 0.846349 0.323469
H166_20 H 0.981952 0.703326 0.330249
H167_29 H 1 0.676531 0.346349
O3_30 O 0.2500 0.7500 0.0000
O4_30 O 0.1760(3) 0.8050(3) 0.0000
C15_30 C 0.1906(9) 0.8293(9) -0.0000
O6_18 O 0.20625(15) 0.72943(12) 0.02988(13)
O20_18 O 0.17263(9) 0.75795(10) 0.03384(9)
O35_30 O 0.1950(3) 0.6760(3) 0.0000
O36_30 O 0.3050(3) 0.8240(3) 0.0000
O37_30 O 0.3240(3) 0.6950(3) 0.0000
C170_30 C 0.1707(9) 0.6906(9) 0.0000
C171_30 C 0.3094(9) 0.6707(9) 0.0000
C172_30 C 0.3293(9) 0.8094(9) 0.0000
H158_30 H 0.153651 0.676531 -2.55215e-18
H159_21 H 0.169751 0.703326 0.0180479
H161_30 H 0.323469 0.653651 -2.55215e-18
H162_21 H 0.296674 0.669751 0.0180479
H164_30 H 0.346349 0.823469 -2.55215e-18
H165_21 H 0.330249 0.796674 0.0180479
H167_30 H 0.176531 0.846349 -2.55215e-18
H168_21 H 0.203326 0.830249 0.0180479
O3_31 O 0.2500 0.7500 1.0000
O4_31 O 0.1760(3) 0.8050(3) 1.0000
C15_31 C 0.1906(9) 0.8293(9) 1.0000
O11_21 O 0.29375(15) 0.77057(12) 0.97012(13)
O26_21 O 0.32737(9) 0.74205(10) 0.96616(9)
O35_31 O 0.1950(3) 0.6760(3) 1.0000
O36_31 O 0.3050(3) 0.8240(3) 1.0000
O37_31 O 0.3240(3) 0.6950(3) 1.0000
C170_31 C 0.1707(9) 0.6906(9) 1.0000
C171_31 C 0.3094(9) 0.6707(9) 1.0000
C172_31 C 0.3293(9) 0.8094(9) 1.0000
H157_21 H 0.169751 0.703326 0.981952
H158_31 H 0.153651 0.676531 1
H160_21 H 0.296674 0.669751 0.981952
H161_31 H 0.323469 0.653651 1
H163_21 H 0.330249 0.796674 0.981952
H164_31 H 0.346349 0.823469 1
H166_21 H 0.203326 0.830249 0.981952
H167_31 H 0.176531 0.846349 1
O14_12 O 0.20625(15) 0.02988(13) 0.77057(12)
O15_12 O 0.02988(13) 0.22943(12) 0.79375(15)
O29_12 O 0.17263(9) 0.03384(9) 0.74205(10)
O30_12 O 0.03384(9) 0.25795(10) 0.82737(9)
C16_16 C 0.23657(14) 0.18309(14) 0.95929(12)
C21_16 C 0.18309(14) 0.04071(12) 0.76343(14)
C22_16 C 0.04071(12) 0.23657(14) 0.81691(14)
C27_16 C 0.21969(12) 0.17216(13) 0.93693(12)
C32_16 C 0.17216(13) 0.06307(12) 0.78031(12)
C33_16 C 0.06307(12) 0.21969(12) 0.82784(13)
C38_16 C 0.19695(12) 0.18653(13) 0.92797(12)
C43_16 C 0.18653(13) 0.07203(12) 0.80305(12)
C44_16 C 0.07203(12) 0.19695(12) 0.81347(13)
H14_16 H 0.1918 0.2030 0.9365
H19_16 H 0.2030 0.0635 0.8082
H20_16 H 0.0635 0.1918 0.7970
C51_16 C 0.18185(12) 0.17614(13) 0.90615(11)
C54_16 C 0.17614(13) 0.09385(11) 0.81815(12)
C55_16 C 0.09385(11) 0.18185(12) 0.82386(13)
C62_16 C 0.18939(12) 0.15197(13) 0.89294(12)
C65_16 C 0.10706(12) 0.18939(12) 0.84803(13)
C68_16 C 0.15197(13) 0.10706(12) 0.81061(12)
C73_16 C 0.21214(13) 0.13803(13) 0.90251(13)
C76_16 C 0.09749(13) 0.21214(13) 0.86197(13)
C79_16 C 0.13803(13) 0.09749(13) 0.78786(13)
H27_16 H 0.2176 0.1216 0.8941
H30_16 H 0.1059 0.2176 0.8784
H33_16 H 0.1216 0.1059 0.7824
C82_16 C 0.22670(12) 0.14815(13) 0.92424(13)
C87_16 C 0.07576(13) 0.22670(12) 0.85185(13)
C90_16 C 0.14815(13) 0.07576(13) 0.77330(12)
H36_16 H 0.2420 0.1383 0.9306
H41_16 H 0.0694 0.2420 0.8617
H44_16 H 0.1383 0.0694 0.7580
C95_16 C 0.15664(14) 0.18874(13) 0.89442(12)
C98_16 C 0.18874(13) 0.10558(12) 0.84336(14)
C101_16 C 0.10558(12) 0.15664(14) 0.81126(13)
C106_16 C 0.15022(12) 0.16898(12) 0.87162(12)
C109_16 C 0.16898(12) 0.12838(12) 0.84978(12)
C112_16 C 0.12838(12) 0.15022(12) 0.83102(12)
C117_16 C 0.16967(12) 0.14761(12) 0.87051(12)
C120_16 C 0.12949(12) 0.16967(12) 0.85239(12)
C123_16 C 0.14761(12) 0.12949(12) 0.83033(12)
C128_16 C 0.13500(15) 0.18976(18) 0.91714(15)
C131_16 C 0.18976(18) 0.08286(15) 0.86500(15)
C134_16 C 0.08286(15) 0.13500(15) 0.81024(18)
H49_16 H 0.1183 0.1983 0.9099
H52_16 H 0.1983 0.0901 0.8817
H55_16 H 0.0901 0.1183 0.8017
H60_16 H 0.1418 0.2013 0.9321
H63_16 H 0.2013 0.0679 0.8582
H66_16 H 0.0679 0.1418 0.7987
C139_16 C 0.12767(19) 0.1616(2) 0.92869(19)
C142_16 C 0.1616(2) 0.07131(19) 0.87233(19)
C145_16 C 0.07131(19) 0.12767(19) 0.8384(2)
H71_16 H 0.1442 0.1526 0.9352
H74_16 H 0.1526 0.0648 0.8558
H77_16 H 0.0648 0.1442 0.8474
H82_16 H 0.1149 0.1637 0.9438
H85_16 H 0.1637 0.0562 0.8851
H88_16 H 0.0562 0.1149 0.8363
H93_16 H 0.1193 0.1505 0.9144
H96_16 H 0.1505 0.0856 0.8807
H99_16 H 0.0856 0.1193 0.8495
C150_16 C 0.16399(15) 0.21744(14) 0.88349(15)
C153_16 C 0.21744(14) 0.11651(15) 0.83601(15)
C156_16 C 0.11651(15) 0.16399(15) 0.78256(14)
H104_16 H 0.1707 0.2286 0.8988
H107_16 H 0.2286 0.1012 0.8293
H110_16 H 0.1012 0.1707 0.7714
H115_16 H 0.1472 0.2261 0.8765
H118_16 H 0.2261 0.1235 0.8528
H121_16 H 0.1235 0.1472 0.7739
C161_16 C 0.1851(2) 0.21783(17) 0.86129(18)
C164_16 C 0.21783(17) 0.13871(18) 0.8149(2)
C167_16 C 0.13871(18) 0.1851(2) 0.78217(17)
H126_16 H 0.1775 0.2097 0.8448
H129_16 H 0.2097 0.1552 0.8225
H132_16 H 0.1552 0.1775 0.7903
H137_16 H 0.1904 0.2366 0.8575
H140_16 H 0.2366 0.1425 0.8096
H143_16 H 0.1425 0.1904 0.7634
H148_16 H 0.2010 0.2075 0.8671
H151_16 H 0.2075 0.1329 0.7990
H154_16 H 0.1329 0.2010 0.7925
O3_32 O 0.2500 0.0000 0.7500
O4_32 O 0.3050(3) 0.0000 0.6760(3)
C15_32 C 0.3293(9) -0.0000 0.6906(9)
O6_19 O 0.22943(12) 0.02988(13) 0.70625(15)
O20_19 O 0.25795(10) 0.03384(9) 0.67263(9)
O35_32 O 0.1760(3) 0.0000 0.6950(3)
O36_32 O 0.3240(3) 0.0000 0.8050(3)
O37_32 O 0.1950(3) 0.0000 0.8240(3)
C170_32 C 0.1906(9) 0.0000 0.6707(9)
C171_32 C 0.1707(9) 0.0000 0.8094(9)
C172_32 C 0.3094(9) 0.0000 0.8293(9)
H158_32 H 0.176531 -2.55215e-18 0.653651
H159_22 H 0.203326 0.0180479 0.669751
H161_32 H 0.153651 -2.55215e-18 0.823469
H162_22 H 0.169751 0.0180479 0.796674
H164_32 H 0.323469 -2.55215e-18 0.846349
H165_22 H 0.296674 0.0180479 0.830249
H167_32 H 0.346349 -2.55215e-18 0.676531
H168_22 H 0.330249 0.0180479 0.703326
O3_33 O 0.2500 1.0000 0.7500
O4_33 O 0.3050(3) 1.0000 0.6760(3)
C15_33 C 0.3293(9) 1.0000 0.6906(9)
O11_22 O 0.27057(12) 0.97012(13) 0.79375(15)
O26_22 O 0.24205(10) 0.96616(9) 0.82737(9)
O35_33 O 0.1760(3) 1.0000 0.6950(3)
O36_33 O 0.3240(3) 1.0000 0.8050(3)
O37_33 O 0.1950(3) 1.0000 0.8240(3)
C170_33 C 0.1906(9) 1.0000 0.6707(9)
C171_33 C 0.1707(9) 1.0000 0.8094(9)
C172_33 C 0.3094(9) 1.0000 0.8293(9)
H157_22 H 0.203326 0.981952 0.669751
H158_33 H 0.176531 1 0.653651
H160_22 H 0.169751 0.981952 0.796674
H161_33 H 0.153651 1 0.823469
H163_22 H 0.296674 0.981952 0.830249
H164_33 H 0.323469 1 0.846349
H166_22 H 0.330249 0.981952 0.703326
H167_33 H 0.346349 1 0.676531
O3_34 O 0.0000 0.2500 0.7500
O4_34 O 0.0000 0.1760(3) 0.8050(3)
C15_34 C -0.0000 0.1906(9) 0.8293(9)
O6_20 O 0.02988(13) 0.20625(15) 0.72943(12)
O20_20 O 0.03384(9) 0.17263(9) 0.75795(10)
O35_34 O 0.0000 0.1950(3) 0.6760(3)
O36_34 O 0.0000 0.3050(3) 0.8240(3)
O37_34 O -0.0000 0.3240(3) 0.6950(3)
C170_34 C -0.0000 0.1707(9) 0.6906(9)
C171_34 C -0.0000 0.3094(9) 0.6707(9)
C172_34 C -0.0000 0.3293(9) 0.8094(9)
H158_34 H -2.55215e-18 0.153651 0.676531
H159_23 H 0.0180479 0.169751 0.703326
H161_34 H -2.55215e-18 0.323469 0.653651
H162_23 H 0.0180479 0.296674 0.669751
H164_34 H -2.55215e-18 0.346349 0.823469
H165_23 H 0.0180479 0.330249 0.796674
H167_34 H -2.55215e-18 0.176531 0.846349
H168_23 H 0.0180479 0.203326 0.830249
O3_35 O 1.0000 0.2500 0.7500
O4_35 O 1.0000 0.1760(3) 0.8050(3)
C15_35 C 1.0000 0.1906(9) 0.8293(9)
O11_23 O 0.97012(13) 0.29375(15) 0.77057(12)
O26_23 O 0.96616(9) 0.32737(9) 0.74205(10)
O35_35 O 1.0000 0.1950(3) 0.6760(3)
O36_35 O 1.0000 0.3050(3) 0.8240(3)
O37_35 O 1.0000 0.3240(3) 0.6950(3)
C170_35 C 1.0000 0.1707(9) 0.6906(9)
C171_35 C 1.0000 0.3094(9) 0.6707(9)
C172_35 C 1.0000 0.3293(9) 0.8094(9)
H157_23 H 0.981952 0.169751 0.703326
H158_35 H 1 0.153651 0.676531
H160_23 H 0.981952 0.296674 0.669751
H161_35 H 1 0.323469 0.653651
H163_23 H 0.981952 0.330249 0.796674
H164_35 H 1 0.346349 0.823469
H166_23 H 0.981952 0.203326 0.830249
H167_35 H 1 0.176531 0.846349
O3_36 O 0.2500 0.2500 0.5000
O4_36 O 0.1760(3) 0.3050(3) 0.5000
C15_36 C 0.1906(9) 0.3293(9) 0.5000
O6_21 O 0.20625(15) 0.22943(12) 0.52988(13)
O11_24 O 0.29375(15) 0.27057(12) 0.47012(13)
O20_21 O 0.17263(9) 0.25795(10) 0.53384(9)
O26_24 O 0.32737(9) 0.24205(10) 0.46616(9)
O35_36 O 0.1950(3) 0.1760(3) 0.5000
O36_36 O 0.3050(3) 0.3240(3) 0.5000
O37_36 O 0.3240(3) 0.1950(3) 0.5000
C170_36 C 0.1707(9) 0.1906(9) 0.5000
C171_36 C 0.3094(9) 0.1707(9) 0.5000
C172_36 C 0.3293(9) 0.3094(9) 0.5000
H157_24 H 0.169751 0.203326 0.481952
H158_36 H 0.153651 0.176531 0.5
H159_24 H 0.169751 0.203326 0.518048
H160_24 H 0.296674 0.169751 0.481952
H161_36 H 0.323469 0.153651 0.5
H162_24 H 0.296674 0.169751 0.518048
H163_24 H 0.330249 0.296674 0.481952
H164_36 H 0.346349 0.323469 0.5
H165_24 H 0.330249 0.296674 0.518048
H166_24 H 0.203326 0.330249 0.481952
H167_36 H 0.176531 0.346349 0.5
H168_24 H 0.203326 0.330249 0.518048
C16_17 C 0.04071(12) 0.68309(14) 0.23657(14)
C21_17 C 0.23657(14) 0.54071(12) 0.18309(14)
C22_17 C 0.18309(14) 0.73657(14) 0.04071(12)
C27_17 C 0.06307(12) 0.67216(13) 0.21969(12)
C32_17 C 0.21969(12) 0.56307(12) 0.17216(13)
C33_17 C 0.17216(13) 0.71969(12) 0.06307(12)
C38_17 C 0.07203(12) 0.68653(13) 0.19695(12)
C43_17 C 0.19695(12) 0.57203(12) 0.18653(13)
C44_17 C 0.18653(13) 0.69695(12) 0.07203(12)
H14_17 H 0.0635 0.7030 0.1918
H19_17 H 0.1918 0.5635 0.2030
H20_17 H 0.2030 0.6918 0.0635
C51_17 C 0.09385(11) 0.67614(13) 0.18185(12)
C54_17 C 0.18185(12) 0.59385(11) 0.17614(13)
C55_17 C 0.17614(13) 0.68185(12) 0.09385(11)
C62_17 C 0.10706(12) 0.65197(13) 0.18939(12)
C65_17 C 0.15197(13) 0.68939(12) 0.10706(12)
C68_17 C 0.18939(12) 0.60706(12) 0.15197(13)
C73_17 C 0.09749(13) 0.63803(13) 0.21214(13)
C76_17 C 0.13803(13) 0.71214(13) 0.09749(13)
C79_17 C 0.21214(13) 0.59749(13) 0.13803(13)
H27_17 H 0.1059 0.6216 0.2176
H30_17 H 0.1216 0.7176 0.1059
H33_17 H 0.2176 0.6059 0.1216
C82_17 C 0.07576(13) 0.64815(13) 0.22670(12)
C87_17 C 0.14815(13) 0.72670(12) 0.07576(13)
C90_17 C 0.22670(12) 0.57576(13) 0.14815(13)
H36_17 H 0.0694 0.6383 0.2420
H41_17 H 0.1383 0.7420 0.0694
H44_17 H 0.2420 0.5694 0.1383
C95_17 C 0.10558(12) 0.68874(13) 0.15664(14)
C98_17 C 0.15664(14) 0.60558(12) 0.18874(13)
C101_17 C 0.18874(13) 0.65664(14) 0.10558(12)
C106_17 C 0.12838(12) 0.66898(12) 0.15022(12)
C109_17 C 0.15022(12) 0.62838(12) 0.16898(12)
C112_17 C 0.16898(12) 0.65022(12) 0.12838(12)
C117_17 C 0.12949(12) 0.64761(12) 0.16967(12)
C120_17 C 0.14761(12) 0.66967(12) 0.12949(12)
C123_17 C 0.16967(12) 0.62949(12) 0.14761(12)
C128_17 C 0.08286(15) 0.68976(18) 0.13500(15)
C131_17 C 0.13500(15) 0.58286(15) 0.18976(18)
C134_17 C 0.18976(18) 0.63500(15) 0.08286(15)
H49_17 H 0.0901 0.6983 0.1183
H52_17 H 0.1183 0.5901 0.1983
H55_17 H 0.1983 0.6183 0.0901
H60_17 H 0.0679 0.7013 0.1418
H63_17 H 0.1418 0.5679 0.2013
H66_17 H 0.2013 0.6418 0.0679
C139_17 C 0.07131(19) 0.6616(2) 0.12767(19)
C142_17 C 0.12767(19) 0.57131(19) 0.1616(2)
C145_17 C 0.1616(2) 0.62767(19) 0.07131(19)
H71_17 H 0.0648 0.6526 0.1442
H74_17 H 0.1442 0.5648 0.1526
H77_17 H 0.1526 0.6442 0.0648
H82_17 H 0.0562 0.6637 0.1149
H85_17 H 0.1149 0.5562 0.1637
H88_17 H 0.1637 0.6149 0.0562
H93_17 H 0.0856 0.6505 0.1193
H96_17 H 0.1193 0.5856 0.1505
H99_17 H 0.1505 0.6193 0.0856
C150_17 C 0.11651(15) 0.71744(14) 0.16399(15)
C153_17 C 0.16399(15) 0.61651(15) 0.21744(14)
C156_17 C 0.21744(14) 0.66399(15) 0.11651(15)
H104_17 H 0.1012 0.7286 0.1707
H107_17 H 0.1707 0.6012 0.2286
H110_17 H 0.2286 0.6707 0.1012
H115_17 H 0.1235 0.7261 0.1472
H118_17 H 0.1472 0.6235 0.2261
H121_17 H 0.2261 0.6472 0.1235
C161_17 C 0.13871(18) 0.71783(17) 0.1851(2)
C164_17 C 0.1851(2) 0.63871(18) 0.21783(17)
C167_17 C 0.21783(17) 0.6851(2) 0.13871(18)
H126_17 H 0.1552 0.7097 0.1775
H129_17 H 0.1775 0.6552 0.2097
H132_17 H 0.2097 0.6775 0.1552
H137_17 H 0.1425 0.7366 0.1904
H140_17 H 0.1904 0.6425 0.2366
H143_17 H 0.2366 0.6904 0.1425
H148_17 H 0.1329 0.7075 0.2010
H151_17 H 0.2010 0.6329 0.2075
H154_17 H 0.2075 0.7010 0.1329
C18_22 C 0.95929(12) 0.81691(14) 0.26343(14)
C25_22 C 0.76343(14) 0.95929(12) 0.31691(14)
C26_22 C 0.81691(14) 0.76343(14) 0.45929(12)
C29_22 C 0.93693(12) 0.82784(13) 0.28031(12)
C36_22 C 0.78031(12) 0.93693(12) 0.32784(13)
C37_22 C 0.82784(13) 0.78031(12) 0.43693(12)
C40_22 C 0.92797(12) 0.81347(13) 0.30305(12)
C47_22 C 0.80305(12) 0.92797(12) 0.31347(13)
C48_22 C 0.81347(13) 0.80305(12) 0.42797(12)
H16_22 H 0.9365 0.7970 0.3082
H23_22 H 0.8082 0.9365 0.2970
H24_22 H 0.7970 0.8082 0.4365
C53_22 C 0.90615(11) 0.82386(13) 0.31815(12)
C58_22 C 0.81815(12) 0.90615(11) 0.32386(13)
C59_22 C 0.82386(13) 0.81815(12) 0.40615(11)
C64_22 C 0.89294(12) 0.84803(13) 0.31061(12)
C67_22 C 0.84803(13) 0.81061(12) 0.39294(12)
C70_22 C 0.81061(12) 0.89294(12) 0.34803(13)
C75_22 C 0.90251(13) 0.86197(13) 0.28786(13)
C78_22 C 0.86197(13) 0.78786(13) 0.40251(13)
C81_22 C 0.78786(13) 0.90251(13) 0.36197(13)
H29_22 H 0.8941 0.8784 0.2824
H32_22 H 0.8784 0.7824 0.3941
H35_22 H 0.7824 0.8941 0.3784
C84_22 C 0.92424(13) 0.85185(13) 0.27330(12)
C89_22 C 0.85185(13) 0.77330(12) 0.42424(13)
C92_22 C 0.77330(12) 0.92424(13) 0.35185(13)
H38_22 H 0.9306 0.8617 0.2580
H43_22 H 0.8617 0.7580 0.4306
H46_22 H 0.7580 0.9306 0.3617
C97_22 C 0.89442(12) 0.81126(13) 0.34336(14)
C100_22 C 0.84336(14) 0.89442(12) 0.31126(13)
C103_22 C 0.81126(13) 0.84336(14) 0.39442(12)
C108_22 C 0.87162(12) 0.83102(12) 0.34978(12)
C111_22 C 0.84978(12) 0.87162(12) 0.33102(12)
C114_22 C 0.83102(12) 0.84978(12) 0.37162(12)
C119_22 C 0.87051(12) 0.85239(12) 0.33033(12)
C122_22 C 0.85239(12) 0.83033(12) 0.37051(12)
C125_22 C 0.83033(12) 0.87051(12) 0.35239(12)
C130_22 C 0.91714(15) 0.81024(18) 0.36500(15)
C133_22 C 0.86500(15) 0.91714(15) 0.31024(18)
C136_22 C 0.81024(18) 0.86500(15) 0.41714(15)
H51_22 H 0.9099 0.8017 0.3817
H54_22 H 0.8817 0.9099 0.3017
H57_22 H 0.8017 0.8817 0.4099
H62_22 H 0.9321 0.7987 0.3582
H65_22 H 0.8582 0.9321 0.2987
H68_22 H 0.7987 0.8582 0.4321
C141_22 C 0.92869(19) 0.8384(2) 0.37233(19)
C144_22 C 0.87233(19) 0.92869(19) 0.3384(2)
C147_22 C 0.8384(2) 0.87233(19) 0.42869(19)
H73_22 H 0.9352 0.8474 0.3558
H76_22 H 0.8558 0.9352 0.3474
H79_22 H 0.8474 0.8558 0.4352
H84_22 H 0.9438 0.8363 0.3851
H87_22 H 0.8851 0.9438 0.3363
H90_22 H 0.8363 0.8851 0.4438
H95_22 H 0.9144 0.8495 0.3807
H98_22 H 0.8807 0.9144 0.3495
H101_22 H 0.8495 0.8807 0.4144
C152_22 C 0.88349(15) 0.78256(14) 0.33601(15)
C155_22 C 0.83601(15) 0.88349(15) 0.28256(14)
C158_22 C 0.78256(14) 0.83601(15) 0.38349(15)
H106_22 H 0.8988 0.7714 0.3293
H109_22 H 0.8293 0.8988 0.2714
H112_22 H 0.7714 0.8293 0.3988
H117_22 H 0.8765 0.7739 0.3528
H120_22 H 0.8528 0.8765 0.2739
H123_22 H 0.7739 0.8528 0.3765
C163_22 C 0.86129(18) 0.78217(17) 0.3149(2)
C166_22 C 0.8149(2) 0.86129(18) 0.28217(17)
C169_22 C 0.78217(17) 0.8149(2) 0.36129(18)
H128_22 H 0.8448 0.7903 0.3225
H131_22 H 0.8225 0.8448 0.2903
H134_22 H 0.7903 0.8225 0.3448
H139_22 H 0.8575 0.7634 0.3096
H142_22 H 0.8096 0.8575 0.2634
H145_22 H 0.7634 0.8096 0.3575
H150_22 H 0.8671 0.7925 0.2990
H153_22 H 0.7990 0.8671 0.2925
H156_22 H 0.7925 0.7990 0.3671
C16_18 C 0.23657(14) 0.04071(12) 0.68309(14)
C21_18 C 0.18309(14) 0.23657(14) 0.54071(12)
C22_18 C 0.04071(12) 0.18309(14) 0.73657(14)
C27_18 C 0.21969(12) 0.06307(12) 0.67216(13)
C32_18 C 0.17216(13) 0.21969(12) 0.56307(12)
C33_18 C 0.06307(12) 0.17216(13) 0.71969(12)
C38_18 C 0.19695(12) 0.07203(12) 0.68653(13)
C43_18 C 0.18653(13) 0.19695(12) 0.57203(12)
C44_18 C 0.07203(12) 0.18653(13) 0.69695(12)
H14_18 H 0.1918 0.0635 0.7030
H19_18 H 0.2030 0.1918 0.5635
H20_18 H 0.0635 0.2030 0.6918
C51_18 C 0.18185(12) 0.09385(11) 0.67614(13)
C54_18 C 0.17614(13) 0.18185(12) 0.59385(11)
C55_18 C 0.09385(11) 0.17614(13) 0.68185(12)
C62_18 C 0.18939(12) 0.10706(12) 0.65197(13)
C65_18 C 0.10706(12) 0.15197(13) 0.68939(12)
C68_18 C 0.15197(13) 0.18939(12) 0.60706(12)
C73_18 C 0.21214(13) 0.09749(13) 0.63803(13)
C76_18 C 0.09749(13) 0.13803(13) 0.71214(13)
C79_18 C 0.13803(13) 0.21214(13) 0.59749(13)
H27_18 H 0.2176 0.1059 0.6216
H30_18 H 0.1059 0.1216 0.7176
H33_18 H 0.1216 0.2176 0.6059
C82_18 C 0.22670(12) 0.07576(13) 0.64815(13)
C87_18 C 0.07576(13) 0.14815(13) 0.72670(12)
C90_18 C 0.14815(13) 0.22670(12) 0.57576(13)
H36_18 H 0.2420 0.0694 0.6383
H41_18 H 0.0694 0.1383 0.7420
H44_18 H 0.1383 0.2420 0.5694
C95_18 C 0.15664(14) 0.10558(12) 0.68874(13)
C98_18 C 0.18874(13) 0.15664(14) 0.60558(12)
C101_18 C 0.10558(12) 0.18874(13) 0.65664(14)
C106_18 C 0.15022(12) 0.12838(12) 0.66898(12)
C109_18 C 0.16898(12) 0.15022(12) 0.62838(12)
C112_18 C 0.12838(12) 0.16898(12) 0.65022(12)
C117_18 C 0.16967(12) 0.12949(12) 0.64761(12)
C120_18 C 0.12949(12) 0.14761(12) 0.66967(12)
C123_18 C 0.14761(12) 0.16967(12) 0.62949(12)
C128_18 C 0.13500(15) 0.08286(15) 0.68976(18)
C131_18 C 0.18976(18) 0.13500(15) 0.58286(15)
C134_18 C 0.08286(15) 0.18976(18) 0.63500(15)
H49_18 H 0.1183 0.0901 0.6983
H52_18 H 0.1983 0.1183 0.5901
H55_18 H 0.0901 0.1983 0.6183
H60_18 H 0.1418 0.0679 0.7013
H63_18 H 0.2013 0.1418 0.5679
H66_18 H 0.0679 0.2013 0.6418
C139_18 C 0.12767(19) 0.07131(19) 0.6616(2)
C142_18 C 0.1616(2) 0.12767(19) 0.57131(19)
C145_18 C 0.07131(19) 0.1616(2) 0.62767(19)
H71_18 H 0.1442 0.0648 0.6526
H74_18 H 0.1526 0.1442 0.5648
H77_18 H 0.0648 0.1526 0.6442
H82_18 H 0.1149 0.0562 0.6637
H85_18 H 0.1637 0.1149 0.5562
H88_18 H 0.0562 0.1637 0.6149
H93_18 H 0.1193 0.0856 0.6505
H96_18 H 0.1505 0.1193 0.5856
H99_18 H 0.0856 0.1505 0.6193
C150_18 C 0.16399(15) 0.11651(15) 0.71744(14)
C153_18 C 0.21744(14) 0.16399(15) 0.61651(15)
C156_18 C 0.11651(15) 0.21744(14) 0.66399(15)
H104_18 H 0.1707 0.1012 0.7286
H107_18 H 0.2286 0.1707 0.6012
H110_18 H 0.1012 0.2286 0.6707
H115_18 H 0.1472 0.1235 0.7261
H118_18 H 0.2261 0.1472 0.6235
H121_18 H 0.1235 0.2261 0.6472
C161_18 C 0.1851(2) 0.13871(18) 0.71783(17)
C164_18 C 0.21783(17) 0.1851(2) 0.63871(18)
C167_18 C 0.13871(18) 0.21783(17) 0.6851(2)
H126_18 H 0.1775 0.1552 0.7097
H129_18 H 0.2097 0.1775 0.6552
H132_18 H 0.1552 0.2097 0.6775
H137_18 H 0.1904 0.1425 0.7366
H140_18 H 0.2366 0.1904 0.6425
H143_18 H 0.1425 0.2366 0.6904
H148_18 H 0.2010 0.1329 0.7075
H151_18 H 0.2075 0.2010 0.6329
H154_18 H 0.1329 0.2075 0.7010
C18_23 C 0.26343(14) 0.95929(12) 0.81691(14)
C25_23 C 0.31691(14) 0.76343(14) 0.95929(12)
C26_23 C 0.45929(12) 0.81691(14) 0.76343(14)
C29_23 C 0.28031(12) 0.93693(12) 0.82784(13)
C36_23 C 0.32784(13) 0.78031(12) 0.93693(12)
C37_23 C 0.43693(12) 0.82784(13) 0.78031(12)
C40_23 C 0.30305(12) 0.92797(12) 0.81347(13)
C47_23 C 0.31347(13) 0.80305(12) 0.92797(12)
C48_23 C 0.42797(12) 0.81347(13) 0.80305(12)
H16_23 H 0.3082 0.9365 0.7970
H23_23 H 0.2970 0.8082 0.9365
H24_23 H 0.4365 0.7970 0.8082
C53_23 C 0.31815(12) 0.90615(11) 0.82386(13)
C58_23 C 0.32386(13) 0.81815(12) 0.90615(11)
C59_23 C 0.40615(11) 0.82386(13) 0.81815(12)
C64_23 C 0.31061(12) 0.89294(12) 0.84803(13)
C67_23 C 0.39294(12) 0.84803(13) 0.81061(12)
C70_23 C 0.34803(13) 0.81061(12) 0.89294(12)
C75_23 C 0.28786(13) 0.90251(13) 0.86197(13)
C78_23 C 0.40251(13) 0.86197(13) 0.78786(13)
C81_23 C 0.36197(13) 0.78786(13) 0.90251(13)
H29_23 H 0.2824 0.8941 0.8784
H32_23 H 0.3941 0.8784 0.7824
H35_23 H 0.3784 0.7824 0.8941
C84_23 C 0.27330(12) 0.92424(13) 0.85185(13)
C89_23 C 0.42424(13) 0.85185(13) 0.77330(12)
C92_23 C 0.35185(13) 0.77330(12) 0.92424(13)
H38_23 H 0.2580 0.9306 0.8617
H43_23 H 0.4306 0.8617 0.7580
H46_23 H 0.3617 0.7580 0.9306
C97_23 C 0.34336(14) 0.89442(12) 0.81126(13)
C100_23 C 0.31126(13) 0.84336(14) 0.89442(12)
C103_23 C 0.39442(12) 0.81126(13) 0.84336(14)
C108_23 C 0.34978(12) 0.87162(12) 0.83102(12)
C111_23 C 0.33102(12) 0.84978(12) 0.87162(12)
C114_23 C 0.37162(12) 0.83102(12) 0.84978(12)
C119_23 C 0.33033(12) 0.87051(12) 0.85239(12)
C122_23 C 0.37051(12) 0.85239(12) 0.83033(12)
C125_23 C 0.35239(12) 0.83033(12) 0.87051(12)
C130_23 C 0.36500(15) 0.91714(15) 0.81024(18)
C133_23 C 0.31024(18) 0.86500(15) 0.91714(15)
C136_23 C 0.41714(15) 0.81024(18) 0.86500(15)
H51_23 H 0.3817 0.9099 0.8017
H54_23 H 0.3017 0.8817 0.9099
H57_23 H 0.4099 0.8017 0.8817
H62_23 H 0.3582 0.9321 0.7987
H65_23 H 0.2987 0.8582 0.9321
H68_23 H 0.4321 0.7987 0.8582
C141_23 C 0.37233(19) 0.92869(19) 0.8384(2)
C144_23 C 0.3384(2) 0.87233(19) 0.92869(19)
C147_23 C 0.42869(19) 0.8384(2) 0.87233(19)
H73_23 H 0.3558 0.9352 0.8474
H76_23 H 0.3474 0.8558 0.9352
H79_23 H 0.4352 0.8474 0.8558
H84_23 H 0.3851 0.9438 0.8363
H87_23 H 0.3363 0.8851 0.9438
H90_23 H 0.4438 0.8363 0.8851
H95_23 H 0.3807 0.9144 0.8495
H98_23 H 0.3495 0.8807 0.9144
H101_23 H 0.4144 0.8495 0.8807
C152_23 C 0.33601(15) 0.88349(15) 0.78256(14)
C155_23 C 0.28256(14) 0.83601(15) 0.88349(15)
C158_23 C 0.38349(15) 0.78256(14) 0.83601(15)
H106_23 H 0.3293 0.8988 0.7714
H109_23 H 0.2714 0.8293 0.8988
H112_23 H 0.3988 0.7714 0.8293
H117_23 H 0.3528 0.8765 0.7739
H120_23 H 0.2739 0.8528 0.8765
H123_23 H 0.3765 0.7739 0.8528
C163_23 C 0.3149(2) 0.86129(18) 0.78217(17)
C166_23 C 0.28217(17) 0.8149(2) 0.86129(18)
C169_23 C 0.36129(18) 0.78217(17) 0.8149(2)
H128_23 H 0.3225 0.8448 0.7903
H131_23 H 0.2903 0.8225 0.8448
H134_23 H 0.3448 0.7903 0.8225
H139_23 H 0.3096 0.8575 0.7634
H142_23 H 0.2634 0.8096 0.8575
H145_23 H 0.3575 0.7634 0.8096
H150_23 H 0.2990 0.8671 0.7925
H153_23 H 0.2925 0.7990 0.8671
H156_23 H 0.3671 0.7925 0.7990
C16_19 C 0.68309(14) 0.23657(14) 0.04071(12)
C21_19 C 0.54071(12) 0.18309(14) 0.23657(14)
C22_19 C 0.73657(14) 0.04071(12) 0.18309(14)
C27_19 C 0.67216(13) 0.21969(12) 0.06307(12)
C32_19 C 0.56307(12) 0.17216(13) 0.21969(12)
C33_19 C 0.71969(12) 0.06307(12) 0.17216(13)
C38_19 C 0.68653(13) 0.19695(12) 0.07203(12)
C43_19 C 0.57203(12) 0.18653(13) 0.19695(12)
C44_19 C 0.69695(12) 0.07203(12) 0.18653(13)
H14_19 H 0.7030 0.1918 0.0635
H19_19 H 0.5635 0.2030 0.1918
H20_19 H 0.6918 0.0635 0.2030
C51_19 C 0.67614(13) 0.18185(12) 0.09385(11)
C54_19 C 0.59385(11) 0.17614(13) 0.18185(12)
C55_19 C 0.68185(12) 0.09385(11) 0.17614(13)
C62_19 C 0.65197(13) 0.18939(12) 0.10706(12)
C65_19 C 0.68939(12) 0.10706(12) 0.15197(13)
C68_19 C 0.60706(12) 0.15197(13) 0.18939(12)
C73_19 C 0.63803(13) 0.21214(13) 0.09749(13)
C76_19 C 0.71214(13) 0.09749(13) 0.13803(13)
C79_19 C 0.59749(13) 0.13803(13) 0.21214(13)
H27_19 H 0.6216 0.2176 0.1059
H30_19 H 0.7176 0.1059 0.1216
H33_19 H 0.6059 0.1216 0.2176
C82_19 C 0.64815(13) 0.22670(12) 0.07576(13)
C87_19 C 0.72670(12) 0.07576(13) 0.14815(13)
C90_19 C 0.57576(13) 0.14815(13) 0.22670(12)
H36_19 H 0.6383 0.2420 0.0694
H41_19 H 0.7420 0.0694 0.1383
H44_19 H 0.5694 0.1383 0.2420
C95_19 C 0.68874(13) 0.15664(14) 0.10558(12)
C98_19 C 0.60558(12) 0.18874(13) 0.15664(14)
C101_19 C 0.65664(14) 0.10558(12) 0.18874(13)
C106_19 C 0.66898(12) 0.15022(12) 0.12838(12)
C109_19 C 0.62838(12) 0.16898(12) 0.15022(12)
C112_19 C 0.65022(12) 0.12838(12) 0.16898(12)
C117_19 C 0.64761(12) 0.16967(12) 0.12949(12)
C120_19 C 0.66967(12) 0.12949(12) 0.14761(12)
C123_19 C 0.62949(12) 0.14761(12) 0.16967(12)
C128_19 C 0.68976(18) 0.13500(15) 0.08286(15)
C131_19 C 0.58286(15) 0.18976(18) 0.13500(15)
C134_19 C 0.63500(15) 0.08286(15) 0.18976(18)
H49_19 H 0.6983 0.1183 0.0901
H52_19 H 0.5901 0.1983 0.1183
H55_19 H 0.6183 0.0901 0.1983
H60_19 H 0.7013 0.1418 0.0679
H63_19 H 0.5679 0.2013 0.1418
H66_19 H 0.6418 0.0679 0.2013
C139_19 C 0.6616(2) 0.12767(19) 0.07131(19)
C142_19 C 0.57131(19) 0.1616(2) 0.12767(19)
C145_19 C 0.62767(19) 0.07131(19) 0.1616(2)
H71_19 H 0.6526 0.1442 0.0648
H74_19 H 0.5648 0.1526 0.1442
H77_19 H 0.6442 0.0648 0.1526
H82_19 H 0.6637 0.1149 0.0562
H85_19 H 0.5562 0.1637 0.1149
H88_19 H 0.6149 0.0562 0.1637
H93_19 H 0.6505 0.1193 0.0856
H96_19 H 0.5856 0.1505 0.1193
H99_19 H 0.6193 0.0856 0.1505
C150_19 C 0.71744(14) 0.16399(15) 0.11651(15)
C153_19 C 0.61651(15) 0.21744(14) 0.16399(15)
C156_19 C 0.66399(15) 0.11651(15) 0.21744(14)
H104_19 H 0.7286 0.1707 0.1012
H107_19 H 0.6012 0.2286 0.1707
H110_19 H 0.6707 0.1012 0.2286
H115_19 H 0.7261 0.1472 0.1235
H118_19 H 0.6235 0.2261 0.1472
H121_19 H 0.6472 0.1235 0.2261
C161_19 C 0.71783(17) 0.1851(2) 0.13871(18)
C164_19 C 0.63871(18) 0.21783(17) 0.1851(2)
C167_19 C 0.6851(2) 0.13871(18) 0.21783(17)
H126_19 H 0.7097 0.1775 0.1552
H129_19 H 0.6552 0.2097 0.1775
H132_19 H 0.6775 0.1552 0.2097
H137_19 H 0.7366 0.1904 0.1425
H140_19 H 0.6425 0.2366 0.1904
H143_19 H 0.6904 0.1425 0.2366
H148_19 H 0.7075 0.2010 0.1329
H151_19 H 0.6329 0.2075 0.2010
H154_19 H 0.7010 0.1329 0.2075
C18_24 C 0.81691(14) 0.26343(14) 0.95929(12)
C25_24 C 0.95929(12) 0.31691(14) 0.76343(14)
C26_24 C 0.76343(14) 0.45929(12) 0.81691(14)
C29_24 C 0.82784(13) 0.28031(12) 0.93693(12)
C36_24 C 0.93693(12) 0.32784(13) 0.78031(12)
C37_24 C 0.78031(12) 0.43693(12) 0.82784(13)
C40_24 C 0.81347(13) 0.30305(12) 0.92797(12)
C47_24 C 0.92797(12) 0.31347(13) 0.80305(12)
C48_24 C 0.80305(12) 0.42797(12) 0.81347(13)
H16_24 H 0.7970 0.3082 0.9365
H23_24 H 0.9365 0.2970 0.8082
H24_24 H 0.8082 0.4365 0.7970
C53_24 C 0.82386(13) 0.31815(12) 0.90615(11)
C58_24 C 0.90615(11) 0.32386(13) 0.81815(12)
C59_24 C 0.81815(12) 0.40615(11) 0.82386(13)
C64_24 C 0.84803(13) 0.31061(12) 0.89294(12)
C67_24 C 0.81061(12) 0.39294(12) 0.84803(13)
C70_24 C 0.89294(12) 0.34803(13) 0.81061(12)
C75_24 C 0.86197(13) 0.28786(13) 0.90251(13)
C78_24 C 0.78786(13) 0.40251(13) 0.86197(13)
C81_24 C 0.90251(13) 0.36197(13) 0.78786(13)
H29_24 H 0.8784 0.2824 0.8941
H32_24 H 0.7824 0.3941 0.8784
H35_24 H 0.8941 0.3784 0.7824
C84_24 C 0.85185(13) 0.27330(12) 0.92424(13)
C89_24 C 0.77330(12) 0.42424(13) 0.85185(13)
C92_24 C 0.92424(13) 0.35185(13) 0.77330(12)
H38_24 H 0.8617 0.2580 0.9306
H43_24 H 0.7580 0.4306 0.8617
H46_24 H 0.9306 0.3617 0.7580
C97_24 C 0.81126(13) 0.34336(14) 0.89442(12)
C100_24 C 0.89442(12) 0.31126(13) 0.84336(14)
C103_24 C 0.84336(14) 0.39442(12) 0.81126(13)
C108_24 C 0.83102(12) 0.34978(12) 0.87162(12)
C111_24 C 0.87162(12) 0.33102(12) 0.84978(12)
C114_24 C 0.84978(12) 0.37162(12) 0.83102(12)
C119_24 C 0.85239(12) 0.33033(12) 0.87051(12)
C122_24 C 0.83033(12) 0.37051(12) 0.85239(12)
C125_24 C 0.87051(12) 0.35239(12) 0.83033(12)
C130_24 C 0.81024(18) 0.36500(15) 0.91714(15)
C133_24 C 0.91714(15) 0.31024(18) 0.86500(15)
C136_24 C 0.86500(15) 0.41714(15) 0.81024(18)
H51_24 H 0.8017 0.3817 0.9099
H54_24 H 0.9099 0.3017 0.8817
H57_24 H 0.8817 0.4099 0.8017
H62_24 H 0.7987 0.3582 0.9321
H65_24 H 0.9321 0.2987 0.8582
H68_24 H 0.8582 0.4321 0.7987
C141_24 C 0.8384(2) 0.37233(19) 0.92869(19)
C144_24 C 0.92869(19) 0.3384(2) 0.87233(19)
C147_24 C 0.87233(19) 0.42869(19) 0.8384(2)
H73_24 H 0.8474 0.3558 0.9352
H76_24 H 0.9352 0.3474 0.8558
H79_24 H 0.8558 0.4352 0.8474
H84_24 H 0.8363 0.3851 0.9438
H87_24 H 0.9438 0.3363 0.8851
H90_24 H 0.8851 0.4438 0.8363
H95_24 H 0.8495 0.3807 0.9144
H98_24 H 0.9144 0.3495 0.8807
H101_24 H 0.8807 0.4144 0.8495
C152_24 C 0.78256(14) 0.33601(15) 0.88349(15)
C155_24 C 0.88349(15) 0.28256(14) 0.83601(15)
C158_24 C 0.83601(15) 0.38349(15) 0.78256(14)
H106_24 H 0.7714 0.3293 0.8988
H109_24 H 0.8988 0.2714 0.8293
H112_24 H 0.8293 0.3988 0.7714
H117_24 H 0.7739 0.3528 0.8765
H120_24 H 0.8765 0.2739 0.8528
H123_24 H 0.8528 0.3765 0.7739
C163_24 C 0.78217(17) 0.3149(2) 0.86129(18)
C166_24 C 0.86129(18) 0.28217(17) 0.8149(2)
C169_24 C 0.8149(2) 0.36129(18) 0.78217(17)
H128_24 H 0.7903 0.3225 0.8448
H131_24 H 0.8448 0.2903 0.8225
H134_24 H 0.8225 0.3448 0.7903
H139_24 H 0.7634 0.3096 0.8575
H142_24 H 0.8575 0.2634 0.8096
H145_24 H 0.8096 0.3575 0.7634
H150_24 H 0.7925 0.2990 0.8671
H153_24 H 0.8671 0.2925 0.7990
H156_24 H 0.7990 0.3671 0.7925
C1_8 C 0.26343(14) 0.45929(12) 0.31691(14)
C2_8 C 0.28031(12) 0.43693(12) 0.32784(13)
C3_8 C 0.30305(12) 0.42797(12) 0.31347(13)
H1_8 H 0.3082 0.4365 0.2970
C4_8 C 0.31815(12) 0.40615(11) 0.32386(13)
C5_8 C 0.31061(12) 0.39294(12) 0.34803(13)
C6_8 C 0.28786(13) 0.40251(13) 0.36197(13)
H2_8 H 0.2824 0.3941 0.3784
C7_8 C 0.27330(12) 0.42424(13) 0.35185(13)
H3_8 H 0.2580 0.4306 0.3617
C8_8 C 0.34336(14) 0.39442(12) 0.31126(13)
C9_8 C 0.34978(12) 0.37162(12) 0.33102(12)
C10_8 C 0.33033(12) 0.37051(12) 0.35239(12)
C11_8 C 0.36500(15) 0.41714(15) 0.31024(18)
H4_8 H 0.3817 0.4099 0.3017
H5_8 H 0.3582 0.4321 0.2987
C12_8 C 0.37233(19) 0.42869(19) 0.3384(2)
H6_8 H 0.3558 0.4352 0.3474
H7_8 H 0.3851 0.4438 0.3363
H8_8 H 0.3807 0.4144 0.3495
C13_8 C 0.33601(15) 0.38349(15) 0.28256(14)
H9_8 H 0.3293 0.3988 0.2714
H10_8 H 0.3528 0.3765 0.2739
C14_8 C 0.3149(2) 0.36129(18) 0.28217(17)
H11_8 H 0.3225 0.3448 0.2903
H12_8 H 0.3096 0.3575 0.2634
H13_8 H 0.2990 0.3671 0.2925
C19_8 C 0.45929(12) 0.31691(14) 0.26343(14)
C20_8 C 0.31691(14) 0.26343(14) 0.45929(12)
C30_8 C 0.43693(12) 0.32784(13) 0.28031(12)
C31_8 C 0.32784(13) 0.28031(12) 0.43693(12)
C41_8 C 0.42797(12) 0.31347(13) 0.30305(12)
C42_8 C 0.31347(13) 0.30305(12) 0.42797(12)
H17_8 H 0.4365 0.2970 0.3082
H18_8 H 0.2970 0.3082 0.4365
C49_8 C 0.40615(11) 0.32386(13) 0.31815(12)
C50_8 C 0.32386(13) 0.31815(12) 0.40615(11)
C60_8 C 0.39294(12) 0.34803(13) 0.31061(12)
C61_8 C 0.34803(13) 0.31061(12) 0.39294(12)
C71_8 C 0.40251(13) 0.36197(13) 0.28786(13)
C72_8 C 0.36197(13) 0.28786(13) 0.40251(13)
H25_8 H 0.3941 0.3784 0.2824
H26_8 H 0.3784 0.2824 0.3941
C85_8 C 0.42424(13) 0.35185(13) 0.27330(12)
C86_8 C 0.35185(13) 0.27330(12) 0.42424(13)
H39_8 H 0.4306 0.3617 0.2580
H40_8 H 0.3617 0.2580 0.4306
C93_8 C 0.31126(13) 0.34336(14) 0.39442(12)
C94_8 C 0.39442(12) 0.31126(13) 0.34336(14)
C104_8 C 0.33102(12) 0.34978(12) 0.37162(12)
C105_8 C 0.37162(12) 0.33102(12) 0.34978(12)
C115_8 C 0.37051(12) 0.35239(12) 0.33033(12)
C116_8 C 0.35239(12) 0.33033(12) 0.37051(12)
C126_8 C 0.31024(18) 0.36500(15) 0.41714(15)
C127_8 C 0.41714(15) 0.31024(18) 0.36500(15)
H47_8 H 0.3017 0.3817 0.4099
H48_8 H 0.4099 0.3017 0.3817
H58_8 H 0.2987 0.3582 0.4321
H59_8 H 0.4321 0.2987 0.3582
C137_8 C 0.3384(2) 0.37233(19) 0.42869(19)
C138_8 C 0.42869(19) 0.3384(2) 0.37233(19)
H69_8 H 0.3474 0.3558 0.4352
H70_8 H 0.4352 0.3474 0.3558
H80_8 H 0.3363 0.3851 0.4438
H81_8 H 0.4438 0.3363 0.3851
H91_8 H 0.3495 0.3807 0.4144
H92_8 H 0.4144 0.3495 0.3807
C148_8 C 0.28256(14) 0.33601(15) 0.38349(15)
C149_8 C 0.38349(15) 0.28256(14) 0.33601(15)
H102_8 H 0.2714 0.3293 0.3988
H103_8 H 0.3988 0.2714 0.3293
H113_8 H 0.2739 0.3528 0.3765
H114_8 H 0.3765 0.2739 0.3528
C159_8 C 0.28217(17) 0.3149(2) 0.36129(18)
C160_8 C 0.36129(18) 0.28217(17) 0.3149(2)
H124_8 H 0.2903 0.3225 0.3448
H125_8 H 0.3448 0.2903 0.3225
H135_8 H 0.2634 0.3096 0.3575
H136_8 H 0.3575 0.2634 0.3096
H146_8 H 0.2925 0.2990 0.3671
H147_8 H 0.3671 0.2925 0.2990
C16_20 C 0.68309(14) 0.73657(14) 0.54071(12)
C21_20 C 0.54071(12) 0.68309(14) 0.73657(14)
C22_20 C 0.73657(14) 0.54071(12) 0.68309(14)
C27_20 C 0.67216(13) 0.71969(12) 0.56307(12)
C32_20 C 0.56307(12) 0.67216(13) 0.71969(12)
C33_20 C 0.71969(12) 0.56307(12) 0.67216(13)
C38_20 C 0.68653(13) 0.69695(12) 0.57203(12)
C43_20 C 0.57203(12) 0.68653(13) 0.69695(12)
C44_20 C 0.69695(12) 0.57203(12) 0.68653(13)
H14_20 H 0.7030 0.6918 0.5635
H19_20 H 0.5635 0.7030 0.6918
H20_20 H 0.6918 0.5635 0.7030
C51_20 C 0.67614(13) 0.68185(12) 0.59385(11)
C54_20 C 0.59385(11) 0.67614(13) 0.68185(12)
C55_20 C 0.68185(12) 0.59385(11) 0.67614(13)
C62_20 C 0.65197(13) 0.68939(12) 0.60706(12)
C65_20 C 0.68939(12) 0.60706(12) 0.65197(13)
C68_20 C 0.60706(12) 0.65197(13) 0.68939(12)
C73_20 C 0.63803(13) 0.71214(13) 0.59749(13)
C76_20 C 0.71214(13) 0.59749(13) 0.63803(13)
C79_20 C 0.59749(13) 0.63803(13) 0.71214(13)
H27_20 H 0.6216 0.7176 0.6059
H30_20 H 0.7176 0.6059 0.6216
H33_20 H 0.6059 0.6216 0.7176
C82_20 C 0.64815(13) 0.72670(12) 0.57576(13)
C87_20 C 0.72670(12) 0.57576(13) 0.64815(13)
C90_20 C 0.57576(13) 0.64815(13) 0.72670(12)
H36_20 H 0.6383 0.7420 0.5694
H41_20 H 0.7420 0.5694 0.6383
H44_20 H 0.5694 0.6383 0.7420
C95_20 C 0.68874(13) 0.65664(14) 0.60558(12)
C98_20 C 0.60558(12) 0.68874(13) 0.65664(14)
C101_20 C 0.65664(14) 0.60558(12) 0.68874(13)
C106_20 C 0.66898(12) 0.65022(12) 0.62838(12)
C109_20 C 0.62838(12) 0.66898(12) 0.65022(12)
C112_20 C 0.65022(12) 0.62838(12) 0.66898(12)
C117_20 C 0.64761(12) 0.66967(12) 0.62949(12)
C120_20 C 0.66967(12) 0.62949(12) 0.64761(12)
C123_20 C 0.62949(12) 0.64761(12) 0.66967(12)
C128_20 C 0.68976(18) 0.63500(15) 0.58286(15)
C131_20 C 0.58286(15) 0.68976(18) 0.63500(15)
C134_20 C 0.63500(15) 0.58286(15) 0.68976(18)
H49_20 H 0.6983 0.6183 0.5901
H52_20 H 0.5901 0.6983 0.6183
H55_20 H 0.6183 0.5901 0.6983
H60_20 H 0.7013 0.6418 0.5679
H63_20 H 0.5679 0.7013 0.6418
H66_20 H 0.6418 0.5679 0.7013
C139_20 C 0.6616(2) 0.62767(19) 0.57131(19)
C142_20 C 0.57131(19) 0.6616(2) 0.62767(19)
C145_20 C 0.62767(19) 0.57131(19) 0.6616(2)
H71_20 H 0.6526 0.6442 0.5648
H74_20 H 0.5648 0.6526 0.6442
H77_20 H 0.6442 0.5648 0.6526
H82_20 H 0.6637 0.6149 0.5562
H85_20 H 0.5562 0.6637 0.6149
H88_20 H 0.6149 0.5562 0.6637
H93_20 H 0.6505 0.6193 0.5856
H96_20 H 0.5856 0.6505 0.6193
H99_20 H 0.6193 0.5856 0.6505
C150_20 C 0.71744(14) 0.66399(15) 0.61651(15)
C153_20 C 0.61651(15) 0.71744(14) 0.66399(15)
C156_20 C 0.66399(15) 0.61651(15) 0.71744(14)
H104_20 H 0.7286 0.6707 0.6012
H107_20 H 0.6012 0.7286 0.6707
H110_20 H 0.6707 0.6012 0.7286
H115_20 H 0.7261 0.6472 0.6235
H118_20 H 0.6235 0.7261 0.6472
H121_20 H 0.6472 0.6235 0.7261
C161_20 C 0.71783(17) 0.6851(2) 0.63871(18)
C164_20 C 0.63871(18) 0.71783(17) 0.6851(2)
C167_20 C 0.6851(2) 0.63871(18) 0.71783(17)
H126_20 H 0.7097 0.6775 0.6552
H129_20 H 0.6552 0.7097 0.6775
H132_20 H 0.6775 0.6552 0.7097
H137_20 H 0.7366 0.6904 0.6425
H140_20 H 0.6425 0.7366 0.6904
H143_20 H 0.6904 0.6425 0.7366
H148_20 H 0.7075 0.7010 0.6329
H151_20 H 0.6329 0.7075 0.7010
H154_20 H 0.7010 0.6329 0.7075
loop_
_geom_bond_atom_site_label_1
_geom_bond_atom_site_label_2
_geom_bond_site_symmetry_1
_geom_bond_site_symmetry_2
Dy1 O1 1_555 1_555
O1 C1 1_555 1_555
O2 Dy1 1_555 1_555
O3 Dy1 1_555 1_555
C1 O2 1_555 1_555
C2 C1 1_555 1_555
C3 C2 1_555 1_555
H1 C3 1_555 1_555
C4 C3 1_555 1_555
C5 C4 1_555 1_555
C6 C5 1_555 1_555
H2 C6 1_555 1_555
C7 C2 1_555 1_555
H3 C7 1_555 1_555
C8 C4 1_555 1_555
C9 C8 1_555 1_555
C10 C5 1_555 1_555
C11 C8 1_555 1_555
H4 C11 1_555 1_555
H5 C11 1_555 1_555
C12 C11 1_555 1_555
H6 C12 1_555 1_555
H7 C12 1_555 1_555
H8 C12 1_555 1_555
C13 C8 1_555 1_555
H9 C13 1_555 1_555
H10 C13 1_555 1_555
C14 C13 1_555 1_555
H11 C14 1_555 1_555
H12 C14 1_555 1_555
H13 C14 1_555 1_555
O4 Dy1 1_555 1_555
C15 O4 1_555 1_555
Dy2 O1 1_555 1_555
Dy3 O3 1_555 1_555
Dy4 O3 1_555 1_555
Dy5 O12 1_555 1_555
Dy6 O12 1_555 1_555
Dy7 O13 1_555 1_555
Dy8 O13 1_555 1_555
Dy16 O18 1_555 1_555
Dy17 O19 1_555 1_555
Dy18 O19 1_555 1_555
O5 Dy1 1_555 1_555
O8 Dy2 1_555 1_555
O11 Dy3 1_555 1_555
O12 C19 1_555 1_555
O13 C20 1_555 1_555
O18 Dy5 1_555 1_555
O19 C26 1_555 1_555
O21 Dy2 1_555 1_555
O23 Dy3 1_555 1_555
O26 Dy4 1_555 1_555
O27 Dy5 1_555 1_555
O28 Dy7 1_555 1_555
O33 Dy16 1_555 1_555
O34 Dy17 1_555 1_555
C18 O8 1_555 1_555
C19 O27 1_555 1_555
C20 O28 1_555 1_555
C25 O18 1_555 1_555
C26 O34 1_555 1_555
C29 C18 1_555 1_555
C30 C19 1_555 1_555
C31 C20 1_555 1_555
C36 C25 1_555 1_555
C37 C26 1_555 1_555
C40 C29 1_555 1_555
C41 C30 1_555 1_555
C42 C31 1_555 1_555
C47 C36 1_555 1_555
C48 C37 1_555 1_555
H16 C40 1_555 1_555
H17 C41 1_555 1_555
H18 C42 1_555 1_555
H23 C47 1_555 1_555
H24 C48 1_555 1_555
C49 C41 1_555 1_555
C50 C42 1_555 1_555
C53 C40 1_555 1_555
C58 C47 1_555 1_555
C59 C48 1_555 1_555
C60 C49 1_555 1_555
C61 C50 1_555 1_555
C64 C53 1_555 1_555
C67 C59 1_555 1_555
C70 C58 1_555 1_555
C71 C60 1_555 1_555
C72 C61 1_555 1_555
C75 C64 1_555 1_555
C78 C67 1_555 1_555
C81 C70 1_555 1_555
H25 C71 1_555 1_555
H26 C72 1_555 1_555
H29 C75 1_555 1_555
H32 C78 1_555 1_555
H35 C81 1_555 1_555
C84 C29 1_555 1_555
C85 C30 1_555 1_555
C86 C31 1_555 1_555
C89 C37 1_555 1_555
C92 C36 1_555 1_555
H38 C84 1_555 1_555
H39 C85 1_555 1_555
H40 C86 1_555 1_555
H43 C89 1_555 1_555
H46 C92 1_555 1_555
C93 C50 1_555 1_555
C94 C49 1_555 1_555
C97 C53 1_555 1_555
C100 C58 1_555 1_555
C103 C59 1_555 1_555
C104 C10 1_555 1_555
C105 C94 1_555 1_555
C108 C97 1_555 1_555
C111 C100 1_555 1_555
C114 C103 1_555 1_555
C115 C9 1_555 1_555
C116 C61 1_555 1_555
C119 C64 1_555 1_555
C122 C67 1_555 1_555
C125 C70 1_555 1_555
C126 C93 1_555 1_555
C127 C94 1_555 1_555
C130 C97 1_555 1_555
C133 C100 1_555 1_555
C136 C103 1_555 1_555
H47 C126 1_555 1_555
H48 C127 1_555 1_555
H51 C130 1_555 1_555
H54 C133 1_555 1_555
H57 C136 1_555 1_555
H58 C126 1_555 1_555
H59 C127 1_555 1_555
H62 C130 1_555 1_555
H65 C133 1_555 1_555
H68 C136 1_555 1_555
C137 C126 1_555 1_555
C138 C127 1_555 1_555
C141 C130 1_555 1_555
C144 C133 1_555 1_555
C147 C136 1_555 1_555
H69 C137 1_555 1_555
H70 C138 1_555 1_555
H73 C141 1_555 1_555
H76 C144 1_555 1_555
H79 C147 1_555 1_555
H80 C137 1_555 1_555
H81 C138 1_555 1_555
H84 C141 1_555 1_555
H87 C144 1_555 1_555
H90 C147 1_555 1_555
H91 C137 1_555 1_555
H92 C138 1_555 1_555
H95 C141 1_555 1_555
H98 C144 1_555 1_555
H101 C147 1_555 1_555
C148 C93 1_555 1_555
C149 C94 1_555 1_555
C152 C97 1_555 1_555
C155 C100 1_555 1_555
C158 C103 1_555 1_555
H102 C148 1_555 1_555
H103 C149 1_555 1_555
H106 C152 1_555 1_555
H109 C155 1_555 1_555
H112 C158 1_555 1_555
H113 C148 1_555 1_555
H114 C149 1_555 1_555
H117 C152 1_555 1_555
H120 C155 1_555 1_555
H123 C158 1_555 1_555
C159 C148 1_555 1_555
C160 C149 1_555 1_555
C163 C152 1_555 1_555
C166 C155 1_555 1_555
C169 C158 1_555 1_555
H124 C159 1_555 1_555
H125 C160 1_555 1_555
H128 C163 1_555 1_555
H131 C166 1_555 1_555
H134 C169 1_555 1_555
H135 C159 1_555 1_555
H136 C160 1_555 1_555
H139 C163 1_555 1_555
H142 C166 1_555 1_555
H145 C169 1_555 1_555
H146 C159 1_555 1_555
H147 C160 1_555 1_555
H150 C163 1_555 1_555
H153 C166 1_555 1_555
H156 C169 1_555 1_555
O35 Dy2 1_555 1_555
O36 Dy3 1_555 1_555
O37 Dy4 1_555 1_555
C170 O35 1_555 1_555
C171 O37 1_555 1_555
C172 O36 1_555 1_555
O3 Dy2 1_555 1_555
C6 C7 1_555 1_555
C9 C10 1_555 1_555
Dy3 O5 1_555 1_555
Dy4 O8 1_555 1_555
Dy4 O11 1_555 1_555
O21 C18 1_555 1_555
O33 C25 1_555 1_555
C60 C115 1_555 1_555
C71 C85 1_555 1_555
C72 C86 1_555 1_555
C75 C84 1_555 1_555
C78 C89 1_555 1_555
C81 C92 1_555 1_555
C93 C104 1_555 1_555
C104 C116 1_555 1_555
C105 C115 1_555 1_555
C105 C116 1_555 1_555
C108 C119 1_555 1_555
C108 C122 1_555 1_555
C111 C119 1_555 1_555
C111 C125 1_555 1_555
C114 C122 1_555 1_555
C114 C125 1_555 1_555
C170 H157 1_555 1_555
C170 H158 1_555 1_555
C171 H160 1_555 1_555
C171 H161 1_555 1_555
C172 H163 1_555 1_555
C172 H164 1_555 1_555
C15 H166 1_555 1_555
C15 H167 1_555 1_555
O3_2 Dy1_2 1_555 1_555
O4_2 Dy1_2 1_555 1_555
C15_2 O4_2 1_555 1_555
Dy3_2 O3_2 1_555 1_555
Dy4_2 O3_2 1_555 1_555
Dy9 O14 1_555 1_555
Dy10 O14 1_555 1_555
Dy11 O15 1_555 1_555
Dy12 O15 1_555 1_555
Dy13 O16 1_555 1_555
Dy14 O16 1_555 1_555
Dy15 O17 1_555 1_555
O6 Dy1_2 1_555 1_555
O7 Dy1_2 1_555 1_555
O9 Dy2_2 1_555 1_555
O10 Dy3_2 1_555 1_555
O14 C21 1_555 1_555
O15 C22 1_555 1_555
O16 C23 1_555 1_555
O17 Dy10 1_555 1_555
O20 Dy1_2 1_555 1_555
O22 Dy2_2 1_555 1_555
O24 Dy3_2 1_555 1_555
O25 Dy4_2 1_555 1_555
O29 Dy9 1_555 1_555
O30 Dy11 1_555 1_555
O31 Dy13 1_555 1_555
O32 Dy10 1_555 1_555
C16 O7 1_555 1_555
C17 O10 1_555 1_555
C21 O29 1_555 1_555
C22 O30 1_555 1_555
C23 O31 1_555 1_555
C24 O17 1_555 1_555
C27 C16 1_555 1_555
C28 C17 1_555 1_555
C32 C21 1_555 1_555
C33 C22 1_555 1_555
C34 C23 1_555 1_555
C35 C24 1_555 1_555
C38 C27 1_555 1_555
C39 C28 1_555 1_555
C43 C32 1_555 1_555
C44 C33 1_555 1_555
C45 C34 1_555 1_555
C46 C35 1_555 1_555
H14 C38 1_555 1_555
H15 C39 1_555 1_555
H19 C43 1_555 1_555
H20 C44 1_555 1_555
H21 C45 1_555 1_555
H22 C46 1_555 1_555
C51 C38 1_555 1_555
C52 C39 1_555 1_555
C54 C43 1_555 1_555
C55 C44 1_555 1_555
C56 C45 1_555 1_555
C57 C46 1_555 1_555
C62 C51 1_555 1_555
C63 C52 1_555 1_555
C65 C55 1_555 1_555
C66 C57 1_555 1_555
C68 C54 1_555 1_555
C69 C56 1_555 1_555
C73 C62 1_555 1_555
C74 C63 1_555 1_555
C76 C65 1_555 1_555
C77 C66 1_555 1_555
C79 C68 1_555 1_555
C80 C69 1_555 1_555
H27 C73 1_555 1_555
H28 C74 1_555 1_555
H30 C76 1_555 1_555
H31 C77 1_555 1_555
H33 C79 1_555 1_555
H34 C80 1_555 1_555
C82 C27 1_555 1_555
C83 C28 1_555 1_555
C87 C33 1_555 1_555
C88 C35 1_555 1_555
C90 C32 1_555 1_555
C91 C34 1_555 1_555
H36 C82 1_555 1_555
H37 C83 1_555 1_555
H41 C87 1_555 1_555
H42 C88 1_555 1_555
H44 C90 1_555 1_555
H45 C91 1_555 1_555
C95 C51 1_555 1_555
C96 C52 1_555 1_555
C98 C54 1_555 1_555
C99 C56 1_555 1_555
C101 C55 1_555 1_555
C102 C57 1_555 1_555
C106 C95 1_555 1_555
C107 C96 1_555 1_555
C109 C98 1_555 1_555
C110 C99 1_555 1_555
C112 C101 1_555 1_555
C113 C102 1_555 1_555
C117 C62 1_555 1_555
C118 C63 1_555 1_555
C120 C65 1_555 1_555
C121 C66 1_555 1_555
C123 C68 1_555 1_555
C124 C69 1_555 1_555
C128 C95 1_555 1_555
C129 C96 1_555 1_555
C131 C98 1_555 1_555
C132 C99 1_555 1_555
C134 C101 1_555 1_555
C135 C102 1_555 1_555
H49 C128 1_555 1_555
H50 C129 1_555 1_555
H52 C131 1_555 1_555
H53 C132 1_555 1_555
H55 C134 1_555 1_555
H56 C135 1_555 1_555
H60 C128 1_555 1_555
H61 C129 1_555 1_555
H63 C131 1_555 1_555
H64 C132 1_555 1_555
H66 C134 1_555 1_555
H67 C135 1_555 1_555
C139 C128 1_555 1_555
C140 C129 1_555 1_555
C142 C131 1_555 1_555
C143 C132 1_555 1_555
C145 C134 1_555 1_555
C146 C135 1_555 1_555
H71 C139 1_555 1_555
H72 C140 1_555 1_555
H74 C142 1_555 1_555
H75 C143 1_555 1_555
H77 C145 1_555 1_555
H78 C146 1_555 1_555
H82 C139 1_555 1_555
H83 C140 1_555 1_555
H85 C142 1_555 1_555
H86 C143 1_555 1_555
H88 C145 1_555 1_555
H89 C146 1_555 1_555
H93 C139 1_555 1_555
H94 C140 1_555 1_555
H96 C142 1_555 1_555
H97 C143 1_555 1_555
H99 C145 1_555 1_555
H100 C146 1_555 1_555
C150 C95 1_555 1_555
C151 C96 1_555 1_555
C153 C98 1_555 1_555
C154 C99 1_555 1_555
C156 C101 1_555 1_555
C157 C102 1_555 1_555
H104 C150 1_555 1_555
H105 C151 1_555 1_555
H107 C153 1_555 1_555
H108 C154 1_555 1_555
H110 C156 1_555 1_555
H111 C157 1_555 1_555
H115 C150 1_555 1_555
H116 C151 1_555 1_555
H118 C153 1_555 1_555
H119 C154 1_555 1_555
H121 C156 1_555 1_555
H122 C157 1_555 1_555
C161 C150 1_555 1_555
C162 C151 1_555 1_555
C164 C153 1_555 1_555
C165 C154 1_555 1_555
C167 C156 1_555 1_555
C168 C157 1_555 1_555
H126 C161 1_555 1_555
H127 C162 1_555 1_555
H129 C164 1_555 1_555
H130 C165 1_555 1_555
H132 C167 1_555 1_555
H133 C168 1_555 1_555
H137 C161 1_555 1_555
H138 C162 1_555 1_555
H140 C164 1_555 1_555
H141 C165 1_555 1_555
H143 C167 1_555 1_555
H144 C168 1_555 1_555
H148 C161 1_555 1_555
H149 C162 1_555 1_555
H151 C164 1_555 1_555
H152 C165 1_555 1_555
H154 C167 1_555 1_555
H155 C168 1_555 1_555
O35_2 Dy2_2 1_555 1_555
O36_2 Dy3_2 1_555 1_555
O37_2 Dy4_2 1_555 1_555
C170_2 O35_2 1_555 1_555
C171_2 O37_2 1_555 1_555
C172_2 O36_2 1_555 1_555
O3_2 Dy2_2 1_555 1_555
Dy2_2 O6 1_555 1_555
Dy3_2 O7 1_555 1_555
Dy4_2 O9 1_555 1_555
Dy4_2 O10 1_555 1_555
O24 C16 1_555 1_555
O25 C17 1_555 1_555
O32 C24 1_555 1_555
C73 C82 1_555 1_555
C74 C83 1_555 1_555
C76 C87 1_555 1_555
C77 C88 1_555 1_555
C79 C90 1_555 1_555
C80 C91 1_555 1_555
C106 C117 1_555 1_555
C106 C120 1_555 1_555
C107 C118 1_555 1_555
C107 C121 1_555 1_555
C109 C117 1_555 1_555
C109 C123 1_555 1_555
C110 C118 1_555 1_555
C110 C124 1_555 1_555
C112 C120 1_555 1_555
C112 C123 1_555 1_555
C113 C121 1_555 1_555
C113 C124 1_555 1_555
C170_2 H158_2 1_555 1_555
C170_2 H159 1_555 1_555
C171_2 H161_2 1_555 1_555
C171_2 H162 1_555 1_555
C172_2 H164_2 1_555 1_555
C172_2 H165 1_555 1_555
C15_2 H167_2 1_555 1_555
C15_2 H168 1_555 1_555
O3_3 Dy5 1_555 1_555
O4_3 Dy5 1_555 1_555
C15_3 O4_3 1_555 1_555
Dy16 O3_3 1_555 1_555
Dy4_3 O3_3 1_555 1_555
Dy16_3 O18_2 1_555 1_555
Dy17_2 O19_2 1_555 1_555
Dy18_2 O19_2 1_555 1_555
O8_2 Dy6 1_555 1_555
O11_2 Dy16 1_555 1_555
O18_2 Dy7 1_555 1_555
O19_2 C26_2 1_555 1_555
O21_2 Dy6 1_555 1_555
O26_2 Dy4_3 1_555 1_555
O33_2 Dy16_3 1_555 1_555
O34_2 Dy17_2 1_555 1_555
C18_2 O8_2 1_555 1_555
C25_2 O18_2 1_555 1_555
C26_2 O34_2 1_555 1_555
C29_2 C18_2 1_555 1_555
C36_2 C25_2 1_555 1_555
C37_2 C26_2 1_555 1_555
C40_2 C29_2 1_555 1_555
C47_2 C36_2 1_555 1_555
C48_2 C37_2 1_555 1_555
H16_2 C40_2 1_555 1_555
H23_2 C47_2 1_555 1_555
H24_2 C48_2 1_555 1_555
C53_2 C40_2 1_555 1_555
C58_2 C47_2 1_555 1_555
C59_2 C48_2 1_555 1_555
C64_2 C53_2 1_555 1_555
C67_2 C59_2 1_555 1_555
C70_2 C58_2 1_555 1_555
C75_2 C64_2 1_555 1_555
C78_2 C67_2 1_555 1_555
C81_2 C70_2 1_555 1_555
H29_2 C75_2 1_555 1_555
H32_2 C78_2 1_555 1_555
H35_2 C81_2 1_555 1_555
C84_2 C29_2 1_555 1_555
C89_2 C37_2 1_555 1_555
C92_2 C36_2 1_555 1_555
H38_2 C84_2 1_555 1_555
H43_2 C89_2 1_555 1_555
H46_2 C92_2 1_555 1_555
C97_2 C53_2 1_555 1_555
C100_2 C58_2 1_555 1_555
C103_2 C59_2 1_555 1_555
C108_2 C97_2 1_555 1_555
C111_2 C100_2 1_555 1_555
C114_2 C103_2 1_555 1_555
C119_2 C64_2 1_555 1_555
C122_2 C67_2 1_555 1_555
C125_2 C70_2 1_555 1_555
C130_2 C97_2 1_555 1_555
C133_2 C100_2 1_555 1_555
C136_2 C103_2 1_555 1_555
H51_2 C130_2 1_555 1_555
H54_2 C133_2 1_555 1_555
H57_2 C136_2 1_555 1_555
H62_2 C130_2 1_555 1_555
H65_2 C133_2 1_555 1_555
H68_2 C136_2 1_555 1_555
C141_2 C130_2 1_555 1_555
C144_2 C133_2 1_555 1_555
C147_2 C136_2 1_555 1_555
H73_2 C141_2 1_555 1_555
H76_2 C144_2 1_555 1_555
H79_2 C147_2 1_555 1_555
H84_2 C141_2 1_555 1_555
H87_2 C144_2 1_555 1_555
H90_2 C147_2 1_555 1_555
H95_2 C141_2 1_555 1_555
H98_2 C144_2 1_555 1_555
H101_2 C147_2 1_555 1_555
C152_2 C97_2 1_555 1_555
C155_2 C100_2 1_555 1_555
C158_2 C103_2 1_555 1_555
H106_2 C152_2 1_555 1_555
H109_2 C155_2 1_555 1_555
H112_2 C158_2 1_555 1_555
H117_2 C152_2 1_555 1_555
H120_2 C155_2 1_555 1_555
H123_2 C158_2 1_555 1_555
C163_2 C152_2 1_555 1_555
C166_2 C155_2 1_555 1_555
C169_2 C158_2 1_555 1_555
H128_2 C163_2 1_555 1_555
H131_2 C166_2 1_555 1_555
H134_2 C169_2 1_555 1_555
H139_2 C163_2 1_555 1_555
H142_2 C166_2 1_555 1_555
H145_2 C169_2 1_555 1_555
H150_2 C163_2 1_555 1_555
H153_2 C166_2 1_555 1_555
H156_2 C169_2 1_555 1_555
O35_3 Dy6 1_555 1_555
O36_3 Dy16 1_555 1_555
O37_3 Dy4_3 1_555 1_555
C170_3 O35_3 1_555 1_555
C171_3 O37_3 1_555 1_555
C172_3 O36_3 1_555 1_555
O3_3 Dy6 1_555 1_555
Dy4_3 O8_2 1_555 1_555
Dy4_3 O11_2 1_555 1_555
O21_2 C18_2 1_555 1_555
O33_2 C25_2 1_555 1_555
C75_2 C84_2 1_555 1_555
C78_2 C89_2 1_555 1_555
C81_2 C92_2 1_555 1_555
C108_2 C119_2 1_555 1_555
C108_2 C122_2 1_555 1_555
C111_2 C119_2 1_555 1_555
C111_2 C125_2 1_555 1_555
C114_2 C122_2 1_555 1_555
C114_2 C125_2 1_555 1_555
C170_3 H157_2 1_555 1_555
C170_3 H158_3 1_555 1_555
C171_3 H160_2 1_555 1_555
C171_3 H161_3 1_555 1_555
C172_3 H163_2 1_555 1_555
C172_3 H164_3 1_555 1_555
C15_3 H166_2 1_555 1_555
C15_3 H167_3 1_555 1_555
O3_4 Dy5_2 1_555 1_555
O4_4 Dy5_2 1_555 1_555
C15_4 O4_4 1_555 1_555
Dy16_2 O3_4 1_555 1_555
Dy4_4 O3_4 1_555 1_555
Dy9_2 O14_2 1_555 1_555
Dy10_2 O14_2 1_555 1_555
Dy11_3 O15_2 1_555 1_555
Dy12_3 O15_2 1_555 1_555
Dy13_2 O16_2 1_555 1_555
Dy14_2 O16_2 1_555 1_555
Dy15_2 O17_2 1_555 1_555
O6_2 Dy5_2 1_555 1_555
O7_2 Dy5_2 1_555 1_555
O9_2 Dy6_2 1_555 1_555
O10_2 Dy16_2 1_555 1_555
O14_2 C21_2 1_555 1_555
O15_2 C22_2 1_555 1_555
O16_2 C23_2 1_555 1_555
O17_2 Dy10_2 1_555 1_555
O20_2 Dy5_2 1_555 1_555
O22_2 Dy6_2 1_555 1_555
O24_2 Dy16_2 1_555 1_555
O25_2 Dy4_4 1_555 1_555
O29_2 Dy9_2 1_555 1_555
O30_2 Dy11_3 1_555 1_555
O31_2 Dy13_2 1_555 1_555
O32_2 Dy10_2 1_555 1_555
C16_2 O7_2 1_555 1_555
C17_2 O10_2 1_555 1_555
C21_2 O29_2 1_555 1_555
C22_2 O30_2 1_555 1_555
C23_2 O31_2 1_555 1_555
C24_2 O17_2 1_555 1_555
C27_2 C16_2 1_555 1_555
C28_2 C17_2 1_555 1_555
C32_2 C21_2 1_555 1_555
C33_2 C22_2 1_555 1_555
C34_2 C23_2 1_555 1_555
C35_2 C24_2 1_555 1_555
C38_2 C27_2 1_555 1_555
C39_2 C28_2 1_555 1_555
C43_2 C32_2 1_555 1_555
C44_2 C33_2 1_555 1_555
C45_2 C34_2 1_555 1_555
C46_2 C35_2 1_555 1_555
H14_2 C38_2 1_555 1_555
H15_2 C39_2 1_555 1_555
H19_2 C43_2 1_555 1_555
H20_2 C44_2 1_555 1_555
H21_2 C45_2 1_555 1_555
H22_2 C46_2 1_555 1_555
C51_2 C38_2 1_555 1_555
C52_2 C39_2 1_555 1_555
C54_2 C43_2 1_555 1_555
C55_2 C44_2 1_555 1_555
C56_2 C45_2 1_555 1_555
C57_2 C46_2 1_555 1_555
C62_2 C51_2 1_555 1_555
C63_2 C52_2 1_555 1_555
C65_2 C55_2 1_555 1_555
C66_2 C57_2 1_555 1_555
C68_2 C54_2 1_555 1_555
C69_2 C56_2 1_555 1_555
C73_2 C62_2 1_555 1_555
C74_2 C63_2 1_555 1_555
C76_2 C65_2 1_555 1_555
C77_2 C66_2 1_555 1_555
C79_2 C68_2 1_555 1_555
C80_2 C69_2 1_555 1_555
H27_2 C73_2 1_555 1_555
H28_2 C74_2 1_555 1_555
H30_2 C76_2 1_555 1_555
H31_2 C77_2 1_555 1_555
H33_2 C79_2 1_555 1_555
H34_2 C80_2 1_555 1_555
C82_2 C27_2 1_555 1_555
C83_2 C28_2 1_555 1_555
C87_2 C33_2 1_555 1_555
C88_2 C35_2 1_555 1_555
C90_2 C32_2 1_555 1_555
C91_2 C34_2 1_555 1_555
H36_2 C82_2 1_555 1_555
H37_2 C83_2 1_555 1_555
H41_2 C87_2 1_555 1_555
H42_2 C88_2 1_555 1_555
H44_2 C90_2 1_555 1_555
H45_2 C91_2 1_555 1_555
C95_2 C51_2 1_555 1_555
C96_2 C52_2 1_555 1_555
C98_2 C54_2 1_555 1_555
C99_2 C56_2 1_555 1_555
C101_2 C55_2 1_555 1_555
C102_2 C57_2 1_555 1_555
C106_2 C95_2 1_555 1_555
C107_2 C96_2 1_555 1_555
C109_2 C98_2 1_555 1_555
C110_2 C99_2 1_555 1_555
C112_2 C101_2 1_555 1_555
C113_2 C102_2 1_555 1_555
C117_2 C62_2 1_555 1_555
C118_2 C63_2 1_555 1_555
C120_2 C65_2 1_555 1_555
C121_2 C66_2 1_555 1_555
C123_2 C68_2 1_555 1_555
C124_2 C69_2 1_555 1_555
C128_2 C95_2 1_555 1_555
C129_2 C96_2 1_555 1_555
C131_2 C98_2 1_555 1_555
C132_2 C99_2 1_555 1_555
C134_2 C101_2 1_555 1_555
C135_2 C102_2 1_555 1_555
H49_2 C128_2 1_555 1_555
H50_2 C129_2 1_555 1_555
H52_2 C131_2 1_555 1_555
H53_2 C132_2 1_555 1_555
H55_2 C134_2 1_555 1_555
H56_2 C135_2 1_555 1_555
H60_2 C128_2 1_555 1_555
H61_2 C129_2 1_555 1_555
H63_2 C131_2 1_555 1_555
H64_2 C132_2 1_555 1_555
H66_2 C134_2 1_555 1_555
H67_2 C135_2 1_555 1_555
C139_2 C128_2 1_555 1_555
C140_2 C129_2 1_555 1_555
C142_2 C131_2 1_555 1_555
C143_2 C132_2 1_555 1_555
C145_2 C134_2 1_555 1_555
C146_2 C135_2 1_555 1_555
H71_2 C139_2 1_555 1_555
H72_2 C140_2 1_555 1_555
H74_2 C142_2 1_555 1_555
H75_2 C143_2 1_555 1_555
H77_2 C145_2 1_555 1_555
H78_2 C146_2 1_555 1_555
H82_2 C139_2 1_555 1_555
H83_2 C140_2 1_555 1_555
H85_2 C142_2 1_555 1_555
H86_2 C143_2 1_555 1_555
H88_2 C145_2 1_555 1_555
H89_2 C146_2 1_555 1_555
H93_2 C139_2 1_555 1_555
H94_2 C140_2 1_555 1_555
H96_2 C142_2 1_555 1_555
H97_2 C143_2 1_555 1_555
H99_2 C145_2 1_555 1_555
H100_2 C146_2 1_555 1_555
C150_2 C95_2 1_555 1_555
C151_2 C96_2 1_555 1_555
C153_2 C98_2 1_555 1_555
C154_2 C99_2 1_555 1_555
C156_2 C101_2 1_555 1_555
C157_2 C102_2 1_555 1_555
H104_2 C150_2 1_555 1_555
H105_2 C151_2 1_555 1_555
H107_2 C153_2 1_555 1_555
H108_2 C154_2 1_555 1_555
H110_2 C156_2 1_555 1_555
H111_2 C157_2 1_555 1_555
H115_2 C150_2 1_555 1_555
H116_2 C151_2 1_555 1_555
H118_2 C153_2 1_555 1_555
H119_2 C154_2 1_555 1_555
H121_2 C156_2 1_555 1_555
H122_2 C157_2 1_555 1_555
C161_2 C150_2 1_555 1_555
C162_2 C151_2 1_555 1_555
C164_2 C153_2 1_555 1_555
C165_2 C154_2 1_555 1_555
C167_2 C156_2 1_555 1_555
C168_2 C157_2 1_555 1_555
H126_2 C161_2 1_555 1_555
H127_2 C162_2 1_555 1_555
H129_2 C164_2 1_555 1_555
H130_2 C165_2 1_555 1_555
H132_2 C167_2 1_555 1_555
H133_2 C168_2 1_555 1_555
H137_2 C161_2 1_555 1_555
H138_2 C162_2 1_555 1_555
H140_2 C164_2 1_555 1_555
H141_2 C165_2 1_555 1_555
H143_2 C167_2 1_555 1_555
H144_2 C168_2 1_555 1_555
H148_2 C161_2 1_555 1_555
H149_2 C162_2 1_555 1_555
H151_2 C164_2 1_555 1_555
H152_2 C165_2 1_555 1_555
H154_2 C167_2 1_555 1_555
H155_2 C168_2 1_555 1_555
O35_4 Dy6_2 1_555 1_555
O36_4 Dy16_2 1_555 1_555
O37_4 Dy4_4 1_555 1_555
C170_4 O35_4 1_555 1_555
C171_4 O37_4 1_555 1_555
C172_4 O36_4 1_555 1_555
O3_4 Dy6_2 1_555 1_555
Dy6_2 O6_2 1_555 1_555
Dy16_2 O7_2 1_555 1_555
Dy4_4 O9_2 1_555 1_555
Dy4_4 O10_2 1_555 1_555
O24_2 C16_2 1_555 1_555
O25_2 C17_2 1_555 1_555
O32_2 C24_2 1_555 1_555
C73_2 C82_2 1_555 1_555
C74_2 C83_2 1_555 1_555
C76_2 C87_2 1_555 1_555
C77_2 C88_2 1_555 1_555
C79_2 C90_2 1_555 1_555
C80_2 C91_2 1_555 1_555
C106_2 C117_2 1_555 1_555
C106_2 C120_2 1_555 1_555
C107_2 C118_2 1_555 1_555
C107_2 C121_2 1_555 1_555
C109_2 C117_2 1_555 1_555
C109_2 C123_2 1_555 1_555
C110_2 C118_2 1_555 1_555
C110_2 C124_2 1_555 1_555
C112_2 C120_2 1_555 1_555
C112_2 C123_2 1_555 1_555
C113_2 C121_2 1_555 1_555
C113_2 C124_2 1_555 1_555
C170_4 H158_4 1_555 1_555
C170_4 H159_2 1_555 1_555
C171_4 H161_4 1_555 1_555
C171_4 H162_2 1_555 1_555
C172_4 H164_4 1_555 1_555
C172_4 H165_2 1_555 1_555
C15_4 H167_4 1_555 1_555
C15_4 H168_2 1_555 1_555
O3_5 Dy7 1_555 1_555
O4_5 Dy7 1_555 1_555
C15_5 O4_5 1_555 1_555
Dy16_3 O3_5 1_555 1_555
Dy4_5 O3_5 1_555 1_555
Dy17_3 O19_3 1_555 1_555
Dy18_3 O19_3 1_555 1_555
O8_3 Dy8 1_555 1_555
O11_3 Dy16_3 1_555 1_555
O19_3 C26_3 1_555 1_555
O21_3 Dy8 1_555 1_555
O26_3 Dy4_5 1_555 1_555
O34_3 Dy17_3 1_555 1_555
C18_3 O8_3 1_555 1_555
C25_3 O5 1_555 1_555
C26_3 O34_3 1_555 1_555
C29_3 C18_3 1_555 1_555
C36_3 C25_3 1_555 1_555
C37_3 C26_3 1_555 1_555
C40_3 C29_3 1_555 1_555
C47_3 C36_3 1_555 1_555
C48_3 C37_3 1_555 1_555
H16_3 C40_3 1_555 1_555
H23_3 C47_3 1_555 1_555
H24_3 C48_3 1_555 1_555
C53_3 C40_3 1_555 1_555
C58_3 C47_3 1_555 1_555
C59_3 C48_3 1_555 1_555
C64_3 C53_3 1_555 1_555
C67_3 C59_3 1_555 1_555
C70_3 C58_3 1_555 1_555
C75_3 C64_3 1_555 1_555
C78_3 C67_3 1_555 1_555
C81_3 C70_3 1_555 1_555
H29_3 C75_3 1_555 1_555
H32_3 C78_3 1_555 1_555
H35_3 C81_3 1_555 1_555
C84_3 C29_3 1_555 1_555
C89_3 C37_3 1_555 1_555
C92_3 C36_3 1_555 1_555
H38_3 C84_3 1_555 1_555
H43_3 C89_3 1_555 1_555
H46_3 C92_3 1_555 1_555
C97_3 C53_3 1_555 1_555
C100_3 C58_3 1_555 1_555
C103_3 C59_3 1_555 1_555
C108_3 C97_3 1_555 1_555
C111_3 C100_3 1_555 1_555
C114_3 C103_3 1_555 1_555
C119_3 C64_3 1_555 1_555
C122_3 C67_3 1_555 1_555
C125_3 C70_3 1_555 1_555
C130_3 C97_3 1_555 1_555
C133_3 C100_3 1_555 1_555
C136_3 C103_3 1_555 1_555
H51_3 C130_3 1_555 1_555
H54_3 C133_3 1_555 1_555
H57_3 C136_3 1_555 1_555
H62_3 C130_3 1_555 1_555
H65_3 C133_3 1_555 1_555
H68_3 C136_3 1_555 1_555
C141_3 C130_3 1_555 1_555
C144_3 C133_3 1_555 1_555
C147_3 C136_3 1_555 1_555
H73_3 C141_3 1_555 1_555
H76_3 C144_3 1_555 1_555
H79_3 C147_3 1_555 1_555
H84_3 C141_3 1_555 1_555
H87_3 C144_3 1_555 1_555
H90_3 C147_3 1_555 1_555
H95_3 C141_3 1_555 1_555
H98_3 C144_3 1_555 1_555
H101_3 C147_3 1_555 1_555
C152_3 C97_3 1_555 1_555
C155_3 C100_3 1_555 1_555
C158_3 C103_3 1_555 1_555
H106_3 C152_3 1_555 1_555
H109_3 C155_3 1_555 1_555
H112_3 C158_3 1_555 1_555
H117_3 C152_3 1_555 1_555
H120_3 C155_3 1_555 1_555
H123_3 C158_3 1_555 1_555
C163_3 C152_3 1_555 1_555
C166_3 C155_3 1_555 1_555
C169_3 C158_3 1_555 1_555
H128_3 C163_3 1_555 1_555
H131_3 C166_3 1_555 1_555
H134_3 C169_3 1_555 1_555
H139_3 C163_3 1_555 1_555
H142_3 C166_3 1_555 1_555
H145_3 C169_3 1_555 1_555
H150_3 C163_3 1_555 1_555
H153_3 C166_3 1_555 1_555
H156_3 C169_3 1_555 1_555
O35_5 Dy8 1_555 1_555
O36_5 Dy16_3 1_555 1_555
O37_5 Dy4_5 1_555 1_555
C170_5 O35_5 1_555 1_555
C171_5 O37_5 1_555 1_555
C172_5 O36_5 1_555 1_555
O3_5 Dy8 1_555 1_555
Dy4_5 O8_3 1_555 1_555
Dy4_5 O11_3 1_555 1_555
O21_3 C18_3 1_555 1_555
O23 C25_3 1_555 1_555
C75_3 C84_3 1_555 1_555
C78_3 C89_3 1_555 1_555
C81_3 C92_3 1_555 1_555
C108_3 C119_3 1_555 1_555
C108_3 C122_3 1_555 1_555
C111_3 C119_3 1_555 1_555
C111_3 C125_3 1_555 1_555
C114_3 C122_3 1_555 1_555
C114_3 C125_3 1_555 1_555
C170_5 H157_3 1_555 1_555
C170_5 H158_5 1_555 1_555
C171_5 H160_3 1_555 1_555
C171_5 H161_5 1_555 1_555
C172_5 H163_3 1_555 1_555
C172_5 H164_5 1_555 1_555
C15_5 H166_3 1_555 1_555
C15_5 H167_5 1_555 1_555
O3_6 Dy7_2 1_555 1_555
O4_6 Dy7_2 1_555 1_555
C15_6 O4_6 1_555 1_555
Dy16_4 O3_6 1_555 1_555
Dy4_6 O3_6 1_555 1_555
Dy9_3 O14_3 1_555 1_555
Dy10_3 O14_3 1_555 1_555
Dy11_5 O15_3 1_555 1_555
Dy12_5 O15_3 1_555 1_555
Dy13_3 O16_3 1_555 1_555
Dy14_3 O16_3 1_555 1_555
Dy15_3 O17_3 1_555 1_555
O6_3 Dy7_2 1_555 1_555
O7_3 Dy7_2 1_555 1_555
O9_3 Dy8_2 1_555 1_555
O10_3 Dy16_4 1_555 1_555
O14_3 C21_3 1_555 1_555
O15_3 C22_3 1_555 1_555
O16_3 C23_3 1_555 1_555
O17_3 Dy10_3 1_555 1_555
O20_3 Dy7_2 1_555 1_555
O22_3 Dy8_2 1_555 1_555
O24_3 Dy16_4 1_555 1_555
O25_3 Dy4_6 1_555 1_555
O29_3 Dy9_3 1_555 1_555
O30_3 Dy11_5 1_555 1_555
O31_3 Dy13_3 1_555 1_555
O32_3 Dy10_3 1_555 1_555
C16_3 O7_3 1_555 1_555
C17_3 O10_3 1_555 1_555
C21_3 O29_3 1_555 1_555
C22_3 O30_3 1_555 1_555
C23_3 O31_3 1_555 1_555
C24_3 O17_3 1_555 1_555
C27_3 C16_3 1_555 1_555
C28_3 C17_3 1_555 1_555
C32_3 C21_3 1_555 1_555
C33_3 C22_3 1_555 1_555
C34_3 C23_3 1_555 1_555
C35_3 C24_3 1_555 1_555
C38_3 C27_3 1_555 1_555
C39_3 C28_3 1_555 1_555
C43_3 C32_3 1_555 1_555
C44_3 C33_3 1_555 1_555
C45_3 C34_3 1_555 1_555
C46_3 C35_3 1_555 1_555
H14_3 C38_3 1_555 1_555
H15_3 C39_3 1_555 1_555
H19_3 C43_3 1_555 1_555
H20_3 C44_3 1_555 1_555
H21_3 C45_3 1_555 1_555
H22_3 C46_3 1_555 1_555
C51_3 C38_3 1_555 1_555
C52_3 C39_3 1_555 1_555
C54_3 C43_3 1_555 1_555
C55_3 C44_3 1_555 1_555
C56_3 C45_3 1_555 1_555
C57_3 C46_3 1_555 1_555
C62_3 C51_3 1_555 1_555
C63_3 C52_3 1_555 1_555
C65_3 C55_3 1_555 1_555
C66_3 C57_3 1_555 1_555
C68_3 C54_3 1_555 1_555
C69_3 C56_3 1_555 1_555
C73_3 C62_3 1_555 1_555
C74_3 C63_3 1_555 1_555
C76_3 C65_3 1_555 1_555
C77_3 C66_3 1_555 1_555
C79_3 C68_3 1_555 1_555
C80_3 C69_3 1_555 1_555
H27_3 C73_3 1_555 1_555
H28_3 C74_3 1_555 1_555
H30_3 C76_3 1_555 1_555
H31_3 C77_3 1_555 1_555
H33_3 C79_3 1_555 1_555
H34_3 C80_3 1_555 1_555
C82_3 C27_3 1_555 1_555
C83_3 C28_3 1_555 1_555
C87_3 C33_3 1_555 1_555
C88_3 C35_3 1_555 1_555
C90_3 C32_3 1_555 1_555
C91_3 C34_3 1_555 1_555
H36_3 C82_3 1_555 1_555
H37_3 C83_3 1_555 1_555
H41_3 C87_3 1_555 1_555
H42_3 C88_3 1_555 1_555
H44_3 C90_3 1_555 1_555
H45_3 C91_3 1_555 1_555
C95_3 C51_3 1_555 1_555
C96_3 C52_3 1_555 1_555
C98_3 C54_3 1_555 1_555
C99_3 C56_3 1_555 1_555
C101_3 C55_3 1_555 1_555
C102_3 C57_3 1_555 1_555
C106_3 C95_3 1_555 1_555
C107_3 C96_3 1_555 1_555
C109_3 C98_3 1_555 1_555
C110_3 C99_3 1_555 1_555
C112_3 C101_3 1_555 1_555
C113_3 C102_3 1_555 1_555
C117_3 C62_3 1_555 1_555
C118_3 C63_3 1_555 1_555
C120_3 C65_3 1_555 1_555
C121_3 C66_3 1_555 1_555
C123_3 C68_3 1_555 1_555
C124_3 C69_3 1_555 1_555
C128_3 C95_3 1_555 1_555
C129_3 C96_3 1_555 1_555
C131_3 C98_3 1_555 1_555
C132_3 C99_3 1_555 1_555
C134_3 C101_3 1_555 1_555
C135_3 C102_3 1_555 1_555
H49_3 C128_3 1_555 1_555
H50_3 C129_3 1_555 1_555
H52_3 C131_3 1_555 1_555
H53_3 C132_3 1_555 1_555
H55_3 C134_3 1_555 1_555
H56_3 C135_3 1_555 1_555
H60_3 C128_3 1_555 1_555
H61_3 C129_3 1_555 1_555
H63_3 C131_3 1_555 1_555
H64_3 C132_3 1_555 1_555
H66_3 C134_3 1_555 1_555
H67_3 C135_3 1_555 1_555
C139_3 C128_3 1_555 1_555
C140_3 C129_3 1_555 1_555
C142_3 C131_3 1_555 1_555
C143_3 C132_3 1_555 1_555
C145_3 C134_3 1_555 1_555
C146_3 C135_3 1_555 1_555
H71_3 C139_3 1_555 1_555
H72_3 C140_3 1_555 1_555
H74_3 C142_3 1_555 1_555
H75_3 C143_3 1_555 1_555
H77_3 C145_3 1_555 1_555
H78_3 C146_3 1_555 1_555
H82_3 C139_3 1_555 1_555
H83_3 C140_3 1_555 1_555
H85_3 C142_3 1_555 1_555
H86_3 C143_3 1_555 1_555
H88_3 C145_3 1_555 1_555
H89_3 C146_3 1_555 1_555
H93_3 C139_3 1_555 1_555
H94_3 C140_3 1_555 1_555
H96_3 C142_3 1_555 1_555
H97_3 C143_3 1_555 1_555
H99_3 C145_3 1_555 1_555
H100_3 C146_3 1_555 1_555
C150_3 C95_3 1_555 1_555
C151_3 C96_3 1_555 1_555
C153_3 C98_3 1_555 1_555
C154_3 C99_3 1_555 1_555
C156_3 C101_3 1_555 1_555
C157_3 C102_3 1_555 1_555
H104_3 C150_3 1_555 1_555
H105_3 C151_3 1_555 1_555
H107_3 C153_3 1_555 1_555
H108_3 C154_3 1_555 1_555
H110_3 C156_3 1_555 1_555
H111_3 C157_3 1_555 1_555
H115_3 C150_3 1_555 1_555
H116_3 C151_3 1_555 1_555
H118_3 C153_3 1_555 1_555
H119_3 C154_3 1_555 1_555
H121_3 C156_3 1_555 1_555
H122_3 C157_3 1_555 1_555
C161_3 C150_3 1_555 1_555
C162_3 C151_3 1_555 1_555
C164_3 C153_3 1_555 1_555
C165_3 C154_3 1_555 1_555
C167_3 C156_3 1_555 1_555
C168_3 C157_3 1_555 1_555
H126_3 C161_3 1_555 1_555
H127_3 C162_3 1_555 1_555
H129_3 C164_3 1_555 1_555
H130_3 C165_3 1_555 1_555
H132_3 C167_3 1_555 1_555
H133_3 C168_3 1_555 1_555
H137_3 C161_3 1_555 1_555
H138_3 C162_3 1_555 1_555
H140_3 C164_3 1_555 1_555
H141_3 C165_3 1_555 1_555
H143_3 C167_3 1_555 1_555
H144_3 C168_3 1_555 1_555
H148_3 C161_3 1_555 1_555
H149_3 C162_3 1_555 1_555
H151_3 C164_3 1_555 1_555
H152_3 C165_3 1_555 1_555
H154_3 C167_3 1_555 1_555
H155_3 C168_3 1_555 1_555
O35_6 Dy8_2 1_555 1_555
O36_6 Dy16_4 1_555 1_555
O37_6 Dy4_6 1_555 1_555
C170_6 O35_6 1_555 1_555
C171_6 O37_6 1_555 1_555
C172_6 O36_6 1_555 1_555
O3_6 Dy8_2 1_555 1_555
Dy8_2 O6_3 1_555 1_555
Dy16_4 O7_3 1_555 1_555
Dy4_6 O9_3 1_555 1_555
Dy4_6 O10_3 1_555 1_555
O24_3 C16_3 1_555 1_555
O25_3 C17_3 1_555 1_555
O32_3 C24_3 1_555 1_555
C73_3 C82_3 1_555 1_555
C74_3 C83_3 1_555 1_555
C76_3 C87_3 1_555 1_555
C77_3 C88_3 1_555 1_555
C79_3 C90_3 1_555 1_555
C80_3 C91_3 1_555 1_555
C106_3 C117_3 1_555 1_555
C106_3 C120_3 1_555 1_555
C107_3 C118_3 1_555 1_555
C107_3 C121_3 1_555 1_555
C109_3 C117_3 1_555 1_555
C109_3 C123_3 1_555 1_555
C110_3 C118_3 1_555 1_555
C110_3 C124_3 1_555 1_555
C112_3 C120_3 1_555 1_555
C112_3 C123_3 1_555 1_555
C113_3 C121_3 1_555 1_555
C113_3 C124_3 1_555 1_555
C170_6 H158_6 1_555 1_555
C170_6 H159_3 1_555 1_555
C171_6 H161_6 1_555 1_555
C171_6 H162_3 1_555 1_555
C172_6 H164_6 1_555 1_555
C172_6 H165_3 1_555 1_555
C15_6 H167_6 1_555 1_555
C15_6 H168_3 1_555 1_555
Dy15 O1_2 1_555 1_555
O1_2 C1_2 1_555 1_555
O2_2 Dy15 1_555 1_555
O3_7 Dy15 1_555 1_555
C1_2 O2_2 1_555 1_555
C2_2 C1_2 1_555 1_555
C3_2 C2_2 1_555 1_555
H1_2 C3_2 1_555 1_555
C4_2 C3_2 1_555 1_555
C5_2 C4_2 1_555 1_555
C6_2 C5_2 1_555 1_555
H2_2 C6_2 1_555 1_555
C7_2 C2_2 1_555 1_555
H3_2 C7_2 1_555 1_555
C8_2 C4_2 1_555 1_555
C9_2 C8_2 1_555 1_555
C10_2 C5_2 1_555 1_555
C11_2 C8_2 1_555 1_555
H4_2 C11_2 1_555 1_555
H5_2 C11_2 1_555 1_555
C12_2 C11_2 1_555 1_555
H6_2 C12_2 1_555 1_555
H7_2 C12_2 1_555 1_555
H8_2 C12_2 1_555 1_555
C13_2 C8_2 1_555 1_555
H9_2 C13_2 1_555 1_555
H10_2 C13_2 1_555 1_555
C14_2 C13_2 1_555 1_555
H11_2 C14_2 1_555 1_555
H12_2 C14_2 1_555 1_555
H13_2 C14_2 1_555 1_555
O4_7 Dy15 1_555 1_555
C15_7 O4_7 1_555 1_555
Dy2_3 O1_2 1_555 1_555
Dy10 O3_7 1_555 1_555
Dy9 O3_7 1_555 1_555
Dy5_3 O12_2 1_555 1_555
Dy13_2 O12_2 1_555 1_555
Dy7_3 O13_2 1_555 1_555
Dy8_3 O13_2 1_555 1_555
Dy16_5 O18_3 1_555 1_555
Dy17_4 O19_4 1_555 1_555
Dy18_4 O19_4 1_555 1_555
O5_2 Dy15 1_555 1_555
O6_4 Dy15 1_555 1_555
O8_4 Dy2_3 1_555 1_555
O9_4 Dy2_3 1_555 1_555
O11_4 Dy10 1_555 1_555
O12_2 C19_2 1_555 1_555
O13_2 C20_2 1_555 1_555
O18_3 Dy5_3 1_555 1_555
O19_4 C26_4 1_555 1_555
O20_4 Dy15 1_555 1_555
O21_4 Dy2_3 1_555 1_555
O22_4 Dy2_3 1_555 1_555
O23_2 Dy10 1_555 1_555
O26_4 Dy9 1_555 1_555
O27_2 Dy5_3 1_555 1_555
O28_2 Dy7_3 1_555 1_555
O33_3 Dy16_5 1_555 1_555
O34_4 Dy17_4 1_555 1_555
C18_4 O8_4 1_555 1_555
C19_2 O27_2 1_555 1_555
C20_2 O28_2 1_555 1_555
C25_4 O18_3 1_555 1_555
C26_4 O34_4 1_555 1_555
C29_4 C18_4 1_555 1_555
C30_2 C19_2 1_555 1_555
C31_2 C20_2 1_555 1_555
C36_4 C25_4 1_555 1_555
C37_4 C26_4 1_555 1_555
C40_4 C29_4 1_555 1_555
C41_2 C30_2 1_555 1_555
C42_2 C31_2 1_555 1_555
C47_4 C36_4 1_555 1_555
C48_4 C37_4 1_555 1_555
H16_4 C40_4 1_555 1_555
H17_2 C41_2 1_555 1_555
H18_2 C42_2 1_555 1_555
H23_4 C47_4 1_555 1_555
H24_4 C48_4 1_555 1_555
C49_2 C41_2 1_555 1_555
C50_2 C42_2 1_555 1_555
C53_4 C40_4 1_555 1_555
C58_4 C47_4 1_555 1_555
C59_4 C48_4 1_555 1_555
C60_2 C49_2 1_555 1_555
C61_2 C50_2 1_555 1_555
C64_4 C53_4 1_555 1_555
C67_4 C59_4 1_555 1_555
C70_4 C58_4 1_555 1_555
C71_2 C60_2 1_555 1_555
C72_2 C61_2 1_555 1_555
C75_4 C64_4 1_555 1_555
C78_4 C67_4 1_555 1_555
C81_4 C70_4 1_555 1_555
H25_2 C71_2 1_555 1_555
H26_2 C72_2 1_555 1_555
H29_4 C75_4 1_555 1_555
H32_4 C78_4 1_555 1_555
H35_4 C81_4 1_555 1_555
C84_4 C29_4 1_555 1_555
C85_2 C30_2 1_555 1_555
C86_2 C31_2 1_555 1_555
C89_4 C37_4 1_555 1_555
C92_4 C36_4 1_555 1_555
H38_4 C84_4 1_555 1_555
H39_2 C85_2 1_555 1_555
H40_2 C86_2 1_555 1_555
H43_4 C89_4 1_555 1_555
H46_4 C92_4 1_555 1_555
C93_2 C50_2 1_555 1_555
C94_2 C49_2 1_555 1_555
C97_4 C53_4 1_555 1_555
C100_4 C58_4 1_555 1_555
C103_4 C59_4 1_555 1_555
C104_2 C10_2 1_555 1_555
C105_2 C94_2 1_555 1_555
C108_4 C97_4 1_555 1_555
C111_4 C100_4 1_555 1_555
C114_4 C103_4 1_555 1_555
C115_2 C9_2 1_555 1_555
C116_2 C61_2 1_555 1_555
C119_4 C64_4 1_555 1_555
C122_4 C67_4 1_555 1_555
C125_4 C70_4 1_555 1_555
C126_2 C93_2 1_555 1_555
C127_2 C94_2 1_555 1_555
C130_4 C97_4 1_555 1_555
C133_4 C100_4 1_555 1_555
C136_4 C103_4 1_555 1_555
H47_2 C126_2 1_555 1_555
H48_2 C127_2 1_555 1_555
H51_4 C130_4 1_555 1_555
H54_4 C133_4 1_555 1_555
H57_4 C136_4 1_555 1_555
H58_2 C126_2 1_555 1_555
H59_2 C127_2 1_555 1_555
H62_4 C130_4 1_555 1_555
H65_4 C133_4 1_555 1_555
H68_4 C136_4 1_555 1_555
C137_2 C126_2 1_555 1_555
C138_2 C127_2 1_555 1_555
C141_4 C130_4 1_555 1_555
C144_4 C133_4 1_555 1_555
C147_4 C136_4 1_555 1_555
H69_2 C137_2 1_555 1_555
H70_2 C138_2 1_555 1_555
H73_4 C141_4 1_555 1_555
H76_4 C144_4 1_555 1_555
H79_4 C147_4 1_555 1_555
H80_2 C137_2 1_555 1_555
H81_2 C138_2 1_555 1_555
H84_4 C141_4 1_555 1_555
H87_4 C144_4 1_555 1_555
H90_4 C147_4 1_555 1_555
H91_2 C137_2 1_555 1_555
H92_2 C138_2 1_555 1_555
H95_4 C141_4 1_555 1_555
H98_4 C144_4 1_555 1_555
H101_4 C147_4 1_555 1_555
C148_2 C93_2 1_555 1_555
C149_2 C94_2 1_555 1_555
C152_4 C97_4 1_555 1_555
C155_4 C100_4 1_555 1_555
C158_4 C103_4 1_555 1_555
H102_2 C148_2 1_555 1_555
H103_2 C149_2 1_555 1_555
H106_4 C152_4 1_555 1_555
H109_4 C155_4 1_555 1_555
H112_4 C158_4 1_555 1_555
H113_2 C148_2 1_555 1_555
H114_2 C149_2 1_555 1_555
H117_4 C152_4 1_555 1_555
H120_4 C155_4 1_555 1_555
H123_4 C158_4 1_555 1_555
C159_2 C148_2 1_555 1_555
C160_2 C149_2 1_555 1_555
C163_4 C152_4 1_555 1_555
C166_4 C155_4 1_555 1_555
C169_4 C158_4 1_555 1_555
H124_2 C159_2 1_555 1_555
H125_2 C160_2 1_555 1_555
H128_4 C163_4 1_555 1_555
H131_4 C166_4 1_555 1_555
H134_4 C169_4 1_555 1_555
H135_2 C159_2 1_555 1_555
H136_2 C160_2 1_555 1_555
H139_4 C163_4 1_555 1_555
H142_4 C166_4 1_555 1_555
H145_4 C169_4 1_555 1_555
H146_2 C159_2 1_555 1_555
H147_2 C160_2 1_555 1_555
H150_4 C163_4 1_555 1_555
H153_4 C166_4 1_555 1_555
H156_4 C169_4 1_555 1_555
O35_7 Dy2_3 1_555 1_555
O36_7 Dy10 1_555 1_555
O37_7 Dy9 1_555 1_555
C170_7 O35_7 1_555 1_555
C171_7 O37_7 1_555 1_555
C172_7 O36_7 1_555 1_555
O3_7 Dy2_3 1_555 1_555
C6_2 C7_2 1_555 1_555
C9_2 C10_2 1_555 1_555
Dy2_3 O6_4 1_555 1_555
Dy10 O5_2 1_555 1_555
Dy9 O8_4 1_555 1_555
Dy9 O9_4 1_555 1_555
Dy9 O11_4 1_555 1_555
O21_4 C18_4 1_555 1_555
O33_3 C25_4 1_555 1_555
C60_2 C115_2 1_555 1_555
C71_2 C85_2 1_555 1_555
C72_2 C86_2 1_555 1_555
C75_4 C84_4 1_555 1_555
C78_4 C89_4 1_555 1_555
C81_4 C92_4 1_555 1_555
C93_2 C104_2 1_555 1_555
C104_2 C116_2 1_555 1_555
C105_2 C115_2 1_555 1_555
C105_2 C116_2 1_555 1_555
C108_4 C119_4 1_555 1_555
C108_4 C122_4 1_555 1_555
C111_4 C119_4 1_555 1_555
C111_4 C125_4 1_555 1_555
C114_4 C122_4 1_555 1_555
C114_4 C125_4 1_555 1_555
C170_7 H157_4 1_555 1_555
C170_7 H158_7 1_555 1_555
C170_7 H159_4 1_555 1_555
C171_7 H160_4 1_555 1_555
C171_7 H161_7 1_555 1_555
C171_7 H162_4 1_555 1_555
C172_7 H163_4 1_555 1_555
C172_7 H164_7 1_555 1_555
C172_7 H165_4 1_555 1_555
C15_7 H166_4 1_555 1_555
C15_7 H167_7 1_555 1_555
C15_7 H168_4 1_555 1_555
Dy1_3 O1_3 1_555 1_555
O1_3 C1_3 1_555 1_555
O2_3 Dy1_3 1_555 1_555
O3_8 Dy1_3 1_555 1_555
C1_3 O2_3 1_555 1_555
C2_3 C1_3 1_555 1_555
C3_3 C2_3 1_555 1_555
H1_3 C3_3 1_555 1_555
C4_3 C3_3 1_555 1_555
C5_3 C4_3 1_555 1_555
C6_3 C5_3 1_555 1_555
H2_3 C6_3 1_555 1_555
C7_3 C2_3 1_555 1_555
H3_3 C7_3 1_555 1_555
C8_3 C4_3 1_555 1_555
C9_3 C8_3 1_555 1_555
C10_3 C5_3 1_555 1_555
C11_3 C8_3 1_555 1_555
H4_3 C11_3 1_555 1_555
H5_3 C11_3 1_555 1_555
C12_3 C11_3 1_555 1_555
H6_3 C12_3 1_555 1_555
H7_3 C12_3 1_555 1_555
H8_3 C12_3 1_555 1_555
C13_3 C8_3 1_555 1_555
H9_3 C13_3 1_555 1_555
H10_3 C13_3 1_555 1_555
C14_3 C13_3 1_555 1_555
H11_3 C14_3 1_555 1_555
H12_3 C14_3 1_555 1_555
H13_3 C14_3 1_555 1_555
O4_8 Dy1_3 1_555 1_555
C15_8 O4_8 1_555 1_555
Dy2_4 O1_3 1_555 1_555
Dy3_3 O3_8 1_555 1_555
Dy4_7 O3_8 1_555 1_555
Dy15_3 O12_3 1_555 1_555
Dy6_3 O12_3 1_555 1_555
Dy7_4 O13_3 1_555 1_555
Dy13 O13_3 1_555 1_555
Dy9_5 O14_4 1_555 1_555
Dy10_5 O14_4 1_555 1_555
Dy8_3 O15_4 1_555 1_555
Dy12_7 O15_4 1_555 1_555
Dy13_5 O16_4 1_555 1_555
Dy17_5 O16_4 1_555 1_555
Dy15_5 O17_4 1_555 1_555
Dy10_3 O18_4 1_555 1_555
Dy12_2 O19_5 1_555 1_555
Dy18_7 O19_5 1_555 1_555
O5_3 Dy1_3 1_555 1_555
O6_5 Dy1_3 1_555 1_555
O7_4 Dy1_3 1_555 1_555
O8_5 Dy2_4 1_555 1_555
O9_5 Dy2_4 1_555 1_555
O10_4 Dy3_3 1_555 1_555
O11_5 Dy3_3 1_555 1_555
O12_3 C19_3 1_555 1_555
O13_3 C20_3 1_555 1_555
O14_4 C21_4 1_555 1_555
O15_4 C22_4 1_555 1_555
O16_4 C23_4 1_555 1_555
O17_4 Dy10_5 1_555 1_555
O18_4 Dy15_3 1_555 1_555
O19_5 C26_5 1_555 1_555
O20_5 Dy1_3 1_555 1_555
O21_5 Dy2_4 1_555 1_555
O22_5 Dy2_4 1_555 1_555
O23_3 Dy3_3 1_555 1_555
O24_4 Dy3_3 1_555 1_555
O25_4 Dy4_7 1_555 1_555
O26_5 Dy4_7 1_555 1_555
O27_3 Dy15_3 1_555 1_555
O28_3 Dy7_4 1_555 1_555
O29_4 Dy9_5 1_555 1_555
O30_4 Dy8_3 1_555 1_555
O31_4 Dy13_5 1_555 1_555
O32_4 Dy10_5 1_555 1_555
O33_4 Dy10_3 1_555 1_555
O34_5 Dy12_2 1_555 1_555
C16_4 O7_4 1_555 1_555
C17_4 O10_4 1_555 1_555
C18_5 O8_5 1_555 1_555
C19_3 O27_3 1_555 1_555
C20_3 O28_3 1_555 1_555
C21_4 O29_4 1_555 1_555
C22_4 O30_4 1_555 1_555
C23_4 O31_4 1_555 1_555
C24_4 O17_4 1_555 1_555
C25_5 O18_4 1_555 1_555
C26_5 O34_5 1_555 1_555
C27_4 C16_4 1_555 1_555
C28_4 C17_4 1_555 1_555
C29_5 C18_5 1_555 1_555
C30_3 C19_3 1_555 1_555
C31_3 C20_3 1_555 1_555
C32_4 C21_4 1_555 1_555
C33_4 C22_4 1_555 1_555
C34_4 C23_4 1_555 1_555
C35_4 C24_4 1_555 1_555
C36_5 C25_5 1_555 1_555
C37_5 C26_5 1_555 1_555
C38_4 C27_4 1_555 1_555
C39_4 C28_4 1_555 1_555
C40_5 C29_5 1_555 1_555
C41_3 C30_3 1_555 1_555
C42_3 C31_3 1_555 1_555
C43_4 C32_4 1_555 1_555
C44_4 C33_4 1_555 1_555
C45_4 C34_4 1_555 1_555
C46_4 C35_4 1_555 1_555
C47_5 C36_5 1_555 1_555
C48_5 C37_5 1_555 1_555
H14_4 C38_4 1_555 1_555
H15_4 C39_4 1_555 1_555
H16_5 C40_5 1_555 1_555
H17_3 C41_3 1_555 1_555
H18_3 C42_3 1_555 1_555
H19_4 C43_4 1_555 1_555
H20_4 C44_4 1_555 1_555
H21_4 C45_4 1_555 1_555
H22_4 C46_4 1_555 1_555
H23_5 C47_5 1_555 1_555
H24_5 C48_5 1_555 1_555
C49_3 C41_3 1_555 1_555
C50_3 C42_3 1_555 1_555
C51_4 C38_4 1_555 1_555
C52_4 C39_4 1_555 1_555
C53_5 C40_5 1_555 1_555
C54_4 C43_4 1_555 1_555
C55_4 C44_4 1_555 1_555
C56_4 C45_4 1_555 1_555
C57_4 C46_4 1_555 1_555
C58_5 C47_5 1_555 1_555
C59_5 C48_5 1_555 1_555
C60_3 C49_3 1_555 1_555
C61_3 C50_3 1_555 1_555
C62_4 C51_4 1_555 1_555
C63_4 C52_4 1_555 1_555
C64_5 C53_5 1_555 1_555
C65_4 C55_4 1_555 1_555
C66_4 C57_4 1_555 1_555
C67_5 C59_5 1_555 1_555
C68_4 C54_4 1_555 1_555
C69_4 C56_4 1_555 1_555
C70_5 C58_5 1_555 1_555
C71_3 C60_3 1_555 1_555
C72_3 C61_3 1_555 1_555
C73_4 C62_4 1_555 1_555
C74_4 C63_4 1_555 1_555
C75_5 C64_5 1_555 1_555
C76_4 C65_4 1_555 1_555
C77_4 C66_4 1_555 1_555
C78_5 C67_5 1_555 1_555
C79_4 C68_4 1_555 1_555
C80_4 C69_4 1_555 1_555
C81_5 C70_5 1_555 1_555
H25_3 C71_3 1_555 1_555
H26_3 C72_3 1_555 1_555
H27_4 C73_4 1_555 1_555
H28_4 C74_4 1_555 1_555
H29_5 C75_5 1_555 1_555
H30_4 C76_4 1_555 1_555
H31_4 C77_4 1_555 1_555
H32_5 C78_5 1_555 1_555
H33_4 C79_4 1_555 1_555
H34_4 C80_4 1_555 1_555
H35_5 C81_5 1_555 1_555
C82_4 C27_4 1_555 1_555
C83_4 C28_4 1_555 1_555
C84_5 C29_5 1_555 1_555
C85_3 C30_3 1_555 1_555
C86_3 C31_3 1_555 1_555
C87_4 C33_4 1_555 1_555
C88_4 C35_4 1_555 1_555
C89_5 C37_5 1_555 1_555
C90_4 C32_4 1_555 1_555
C91_4 C34_4 1_555 1_555
C92_5 C36_5 1_555 1_555
H36_4 C82_4 1_555 1_555
H37_4 C83_4 1_555 1_555
H38_5 C84_5 1_555 1_555
H39_3 C85_3 1_555 1_555
H40_3 C86_3 1_555 1_555
H41_4 C87_4 1_555 1_555
H42_4 C88_4 1_555 1_555
H43_5 C89_5 1_555 1_555
H44_4 C90_4 1_555 1_555
H45_4 C91_4 1_555 1_555
H46_5 C92_5 1_555 1_555
C93_3 C50_3 1_555 1_555
C94_3 C49_3 1_555 1_555
C95_4 C51_4 1_555 1_555
C96_4 C52_4 1_555 1_555
C97_5 C53_5 1_555 1_555
C98_4 C54_4 1_555 1_555
C99_4 C56_4 1_555 1_555
C100_5 C58_5 1_555 1_555
C101_4 C55_4 1_555 1_555
C102_4 C57_4 1_555 1_555
C103_5 C59_5 1_555 1_555
C104_3 C10_3 1_555 1_555
C105_3 C94_3 1_555 1_555
C106_4 C95_4 1_555 1_555
C107_4 C96_4 1_555 1_555
C108_5 C97_5 1_555 1_555
C109_4 C98_4 1_555 1_555
C110_4 C99_4 1_555 1_555
C111_5 C100_5 1_555 1_555
C112_4 C101_4 1_555 1_555
C113_4 C102_4 1_555 1_555
C114_5 C103_5 1_555 1_555
C115_3 C9_3 1_555 1_555
C116_3 C61_3 1_555 1_555
C117_4 C62_4 1_555 1_555
C118_4 C63_4 1_555 1_555
C119_5 C64_5 1_555 1_555
C120_4 C65_4 1_555 1_555
C121_4 C66_4 1_555 1_555
C122_5 C67_5 1_555 1_555
C123_4 C68_4 1_555 1_555
C124_4 C69_4 1_555 1_555
C125_5 C70_5 1_555 1_555
C126_3 C93_3 1_555 1_555
C127_3 C94_3 1_555 1_555
C128_4 C95_4 1_555 1_555
C129_4 C96_4 1_555 1_555
C130_5 C97_5 1_555 1_555
C131_4 C98_4 1_555 1_555
C132_4 C99_4 1_555 1_555
C133_5 C100_5 1_555 1_555
C134_4 C101_4 1_555 1_555
C135_4 C102_4 1_555 1_555
C136_5 C103_5 1_555 1_555
H47_3 C126_3 1_555 1_555
H48_3 C127_3 1_555 1_555
H49_4 C128_4 1_555 1_555
H50_4 C129_4 1_555 1_555
H51_5 C130_5 1_555 1_555
H52_4 C131_4 1_555 1_555
H53_4 C132_4 1_555 1_555
H54_5 C133_5 1_555 1_555
H55_4 C134_4 1_555 1_555
H56_4 C135_4 1_555 1_555
H57_5 C136_5 1_555 1_555
H58_3 C126_3 1_555 1_555
H59_3 C127_3 1_555 1_555
H60_4 C128_4 1_555 1_555
H61_4 C129_4 1_555 1_555
H62_5 C130_5 1_555 1_555
H63_4 C131_4 1_555 1_555
H64_4 C132_4 1_555 1_555
H65_5 C133_5 1_555 1_555
H66_4 C134_4 1_555 1_555
H67_4 C135_4 1_555 1_555
H68_5 C136_5 1_555 1_555
C137_3 C126_3 1_555 1_555
C138_3 C127_3 1_555 1_555
C139_4 C128_4 1_555 1_555
C140_4 C129_4 1_555 1_555
C141_5 C130_5 1_555 1_555
C142_4 C131_4 1_555 1_555
C143_4 C132_4 1_555 1_555
C144_5 C133_5 1_555 1_555
C145_4 C134_4 1_555 1_555
C146_4 C135_4 1_555 1_555
C147_5 C136_5 1_555 1_555
H69_3 C137_3 1_555 1_555
H70_3 C138_3 1_555 1_555
H71_4 C139_4 1_555 1_555
H72_4 C140_4 1_555 1_555
H73_5 C141_5 1_555 1_555
H74_4 C142_4 1_555 1_555
H75_4 C143_4 1_555 1_555
H76_5 C144_5 1_555 1_555
H77_4 C145_4 1_555 1_555
H78_4 C146_4 1_555 1_555
H79_5 C147_5 1_555 1_555
H80_3 C137_3 1_555 1_555
H81_3 C138_3 1_555 1_555
H82_4 C139_4 1_555 1_555
H83_4 C140_4 1_555 1_555
H84_5 C141_5 1_555 1_555
H85_4 C142_4 1_555 1_555
H86_4 C143_4 1_555 1_555
H87_5 C144_5 1_555 1_555
H88_4 C145_4 1_555 1_555
H89_4 C146_4 1_555 1_555
H90_5 C147_5 1_555 1_555
H91_3 C137_3 1_555 1_555
H92_3 C138_3 1_555 1_555
H93_4 C139_4 1_555 1_555
H94_4 C140_4 1_555 1_555
H95_5 C141_5 1_555 1_555
H96_4 C142_4 1_555 1_555
H97_4 C143_4 1_555 1_555
H98_5 C144_5 1_555 1_555
H99_4 C145_4 1_555 1_555
H100_4 C146_4 1_555 1_555
H101_5 C147_5 1_555 1_555
C148_3 C93_3 1_555 1_555
C149_3 C94_3 1_555 1_555
C150_4 C95_4 1_555 1_555
C151_4 C96_4 1_555 1_555
C152_5 C97_5 1_555 1_555
C153_4 C98_4 1_555 1_555
C154_4 C99_4 1_555 1_555
C155_5 C100_5 1_555 1_555
C156_4 C101_4 1_555 1_555
C157_4 C102_4 1_555 1_555
C158_5 C103_5 1_555 1_555
H102_3 C148_3 1_555 1_555
H103_3 C149_3 1_555 1_555
H104_4 C150_4 1_555 1_555
H105_4 C151_4 1_555 1_555
H106_5 C152_5 1_555 1_555
H107_4 C153_4 1_555 1_555
H108_4 C154_4 1_555 1_555
H109_5 C155_5 1_555 1_555
H110_4 C156_4 1_555 1_555
H111_4 C157_4 1_555 1_555
H112_5 C158_5 1_555 1_555
H113_3 C148_3 1_555 1_555
H114_3 C149_3 1_555 1_555
H115_4 C150_4 1_555 1_555
H116_4 C151_4 1_555 1_555
H117_5 C152_5 1_555 1_555
H118_4 C153_4 1_555 1_555
H119_4 C154_4 1_555 1_555
H120_5 C155_5 1_555 1_555
H121_4 C156_4 1_555 1_555
H122_4 C157_4 1_555 1_555
H123_5 C158_5 1_555 1_555
C159_3 C148_3 1_555 1_555
C160_3 C149_3 1_555 1_555
C161_4 C150_4 1_555 1_555
C162_4 C151_4 1_555 1_555
C163_5 C152_5 1_555 1_555
C164_4 C153_4 1_555 1_555
C165_4 C154_4 1_555 1_555
C166_5 C155_5 1_555 1_555
C167_4 C156_4 1_555 1_555
C168_4 C157_4 1_555 1_555
C169_5 C158_5 1_555 1_555
H124_3 C159_3 1_555 1_555
H125_3 C160_3 1_555 1_555
H126_4 C161_4 1_555 1_555
H127_4 C162_4 1_555 1_555
H128_5 C163_5 1_555 1_555
H129_4 C164_4 1_555 1_555
H130_4 C165_4 1_555 1_555
H131_5 C166_5 1_555 1_555
H132_4 C167_4 1_555 1_555
H133_4 C168_4 1_555 1_555
H134_5 C169_5 1_555 1_555
H135_3 C159_3 1_555 1_555
H136_3 C160_3 1_555 1_555
H137_4 C161_4 1_555 1_555
H138_4 C162_4 1_555 1_555
H139_5 C163_5 1_555 1_555
H140_4 C164_4 1_555 1_555
H141_4 C165_4 1_555 1_555
H142_5 C166_5 1_555 1_555
H143_4 C167_4 1_555 1_555
H144_4 C168_4 1_555 1_555
H145_5 C169_5 1_555 1_555
H146_3 C159_3 1_555 1_555
H147_3 C160_3 1_555 1_555
H148_4 C161_4 1_555 1_555
H149_4 C162_4 1_555 1_555
H150_5 C163_5 1_555 1_555
H151_4 C164_4 1_555 1_555
H152_4 C165_4 1_555 1_555
H153_5 C166_5 1_555 1_555
H154_4 C167_4 1_555 1_555
H155_4 C168_4 1_555 1_555
H156_5 C169_5 1_555 1_555
O35_8 Dy2_4 1_555 1_555
O36_8 Dy3_3 1_555 1_555
O37_8 Dy4_7 1_555 1_555
C170_8 O35_8 1_555 1_555
C171_8 O37_8 1_555 1_555
C172_8 O36_8 1_555 1_555
O3_8 Dy2_4 1_555 1_555
C6_3 C7_3 1_555 1_555
C9_3 C10_3 1_555 1_555
Dy2_4 O6_5 1_555 1_555
Dy3_3 O5_3 1_555 1_555
Dy3_3 O7_4 1_555 1_555
Dy4_7 O8_5 1_555 1_555
Dy4_7 O9_5 1_555 1_555
Dy4_7 O10_4 1_555 1_555
Dy4_7 O11_5 1_555 1_555
O21_5 C18_5 1_555 1_555
O24_4 C16_4 1_555 1_555
O25_4 C17_4 1_555 1_555
O32_4 C24_4 1_555 1_555
O33_4 C25_5 1_555 1_555
C60_3 C115_3 1_555 1_555
C71_3 C85_3 1_555 1_555
C72_3 C86_3 1_555 1_555
C73_4 C82_4 1_555 1_555
C74_4 C83_4 1_555 1_555
C75_5 C84_5 1_555 1_555
C76_4 C87_4 1_555 1_555
C77_4 C88_4 1_555 1_555
C78_5 C89_5 1_555 1_555
C79_4 C90_4 1_555 1_555
C80_4 C91_4 1_555 1_555
C81_5 C92_5 1_555 1_555
C93_3 C104_3 1_555 1_555
C104_3 C116_3 1_555 1_555
C105_3 C115_3 1_555 1_555
C105_3 C116_3 1_555 1_555
C106_4 C117_4 1_555 1_555
C106_4 C120_4 1_555 1_555
C107_4 C118_4 1_555 1_555
C107_4 C121_4 1_555 1_555
C108_5 C119_5 1_555 1_555
C108_5 C122_5 1_555 1_555
C109_4 C117_4 1_555 1_555
C109_4 C123_4 1_555 1_555
C110_4 C118_4 1_555 1_555
C110_4 C124_4 1_555 1_555
C111_5 C119_5 1_555 1_555
C111_5 C125_5 1_555 1_555
C112_4 C120_4 1_555 1_555
C112_4 C123_4 1_555 1_555
C113_4 C121_4 1_555 1_555
C113_4 C124_4 1_555 1_555
C114_5 C122_5 1_555 1_555
C114_5 C125_5 1_555 1_555
C170_8 H157_5 1_555 1_555
C170_8 H158_8 1_555 1_555
C170_8 H159_5 1_555 1_555
C171_8 H160_5 1_555 1_555
C171_8 H161_8 1_555 1_555
C171_8 H162_5 1_555 1_555
C172_8 H163_5 1_555 1_555
C172_8 H164_8 1_555 1_555
C172_8 H165_5 1_555 1_555
C15_8 H166_5 1_555 1_555
C15_8 H167_8 1_555 1_555
C15_8 H168_5 1_555 1_555
Dy1_4 O1_4 1_555 1_555
O1_4 C1_4 1_555 1_555
O2_4 Dy1_4 1_555 1_555
O3_9 Dy1_4 1_555 1_555
C1_4 O2_4 1_555 1_555
C2_4 C1_4 1_555 1_555
C3_4 C2_4 1_555 1_555
H1_4 C3_4 1_555 1_555
C4_4 C3_4 1_555 1_555
C5_4 C4_4 1_555 1_555
C6_4 C5_4 1_555 1_555
H2_4 C6_4 1_555 1_555
C7_4 C2_4 1_555 1_555
H3_4 C7_4 1_555 1_555
C8_4 C4_4 1_555 1_555
C9_4 C8_4 1_555 1_555
C10_4 C5_4 1_555 1_555
C11_4 C8_4 1_555 1_555
H4_4 C11_4 1_555 1_555
H5_4 C11_4 1_555 1_555
C12_4 C11_4 1_555 1_555
H6_4 C12_4 1_555 1_555
H7_4 C12_4 1_555 1_555
H8_4 C12_4 1_555 1_555
C13_4 C8_4 1_555 1_555
H9_4 C13_4 1_555 1_555
H10_4 C13_4 1_555 1_555
C14_4 C13_4 1_555 1_555
H11_4 C14_4 1_555 1_555
H12_4 C14_4 1_555 1_555
H13_4 C14_4 1_555 1_555
O4_9 Dy1_4 1_555 1_555
C15_9 O4_9 1_555 1_555
Dy13_3 O1_4 1_555 1_555
Dy3_4 O3_9 1_555 1_555
Dy14_3 O3_9 1_555 1_555
Dy5_4 O12_4 1_555 1_555
Dy6_4 O12_4 1_555 1_555
Dy15_2 O13_4 1_555 1_555
Dy8_4 O13_4 1_555 1_555
Dy9_6 O14_5 1_555 1_555
Dy10_6 O14_5 1_555 1_555
Dy11_7 O15_5 1_555 1_555
Dy17 O15_5 1_555 1_555
Dy15_6 O17_5 1_555 1_555
Dy16_6 O18_5 1_555 1_555
Dy17_7 O19_6 1_555 1_555
Dy18_9 O19_6 1_555 1_555
O5_4 Dy1_4 1_555 1_555
O6_6 Dy1_4 1_555 1_555
O7_5 Dy1_4 1_555 1_555
O8_6 Dy13_3 1_555 1_555
O10_5 Dy3_4 1_555 1_555
O11_6 Dy3_4 1_555 1_555
O12_4 C19_4 1_555 1_555
O13_4 C20_4 1_555 1_555
O14_5 C21_5 1_555 1_555
O15_5 C22_5 1_555 1_555
O9_3 C23_5 1_555 1_555
O17_5 Dy10_6 1_555 1_555
O18_5 Dy5_4 1_555 1_555
O19_6 C26_6 1_555 1_555
O20_6 Dy1_4 1_555 1_555
O21_6 Dy13_3 1_555 1_555
O23_4 Dy3_4 1_555 1_555
O24_5 Dy3_4 1_555 1_555
O25_5 Dy14_3 1_555 1_555
O26_6 Dy14_3 1_555 1_555
O27_4 Dy5_4 1_555 1_555
O28_4 Dy15_2 1_555 1_555
O29_5 Dy9_6 1_555 1_555
O30_5 Dy11_7 1_555 1_555
O32_5 Dy10_6 1_555 1_555
O33_5 Dy16_6 1_555 1_555
O34_6 Dy17_7 1_555 1_555
C16_5 O7_5 1_555 1_555
C17_5 O10_5 1_555 1_555
C18_6 O8_6 1_555 1_555
C19_4 O27_4 1_555 1_555
C20_4 O28_4 1_555 1_555
C21_5 O29_5 1_555 1_555
C22_5 O30_5 1_555 1_555
C23_5 O22_3 1_555 1_555
C24_5 O17_5 1_555 1_555
C25_6 O18_5 1_555 1_555
C26_6 O34_6 1_555 1_555
C27_5 C16_5 1_555 1_555
C28_5 C17_5 1_555 1_555
C29_6 C18_6 1_555 1_555
C30_4 C19_4 1_555 1_555
C31_4 C20_4 1_555 1_555
C32_5 C21_5 1_555 1_555
C33_5 C22_5 1_555 1_555
C34_5 C23_5 1_555 1_555
C35_5 C24_5 1_555 1_555
C36_6 C25_6 1_555 1_555
C37_6 C26_6 1_555 1_555
C38_5 C27_5 1_555 1_555
C39_5 C28_5 1_555 1_555
C40_6 C29_6 1_555 1_555
C41_4 C30_4 1_555 1_555
C42_4 C31_4 1_555 1_555
C43_5 C32_5 1_555 1_555
C44_5 C33_5 1_555 1_555
C45_5 C34_5 1_555 1_555
C46_5 C35_5 1_555 1_555
C47_6 C36_6 1_555 1_555
C48_6 C37_6 1_555 1_555
H14_5 C38_5 1_555 1_555
H15_5 C39_5 1_555 1_555
H16_6 C40_6 1_555 1_555
H17_4 C41_4 1_555 1_555
H18_4 C42_4 1_555 1_555
H19_5 C43_5 1_555 1_555
H20_5 C44_5 1_555 1_555
H21_5 C45_5 1_555 1_555
H22_5 C46_5 1_555 1_555
H23_6 C47_6 1_555 1_555
H24_6 C48_6 1_555 1_555
C49_4 C41_4 1_555 1_555
C50_4 C42_4 1_555 1_555
C51_5 C38_5 1_555 1_555
C52_5 C39_5 1_555 1_555
C53_6 C40_6 1_555 1_555
C54_5 C43_5 1_555 1_555
C55_5 C44_5 1_555 1_555
C56_5 C45_5 1_555 1_555
C57_5 C46_5 1_555 1_555
C58_6 C47_6 1_555 1_555
C59_6 C48_6 1_555 1_555
C60_4 C49_4 1_555 1_555
C61_4 C50_4 1_555 1_555
C62_5 C51_5 1_555 1_555
C63_5 C52_5 1_555 1_555
C64_6 C53_6 1_555 1_555
C65_5 C55_5 1_555 1_555
C66_5 C57_5 1_555 1_555
C67_6 C59_6 1_555 1_555
C68_5 C54_5 1_555 1_555
C69_5 C56_5 1_555 1_555
C70_6 C58_6 1_555 1_555
C71_4 C60_4 1_555 1_555
C72_4 C61_4 1_555 1_555
C73_5 C62_5 1_555 1_555
C74_5 C63_5 1_555 1_555
C75_6 C64_6 1_555 1_555
C76_5 C65_5 1_555 1_555
C77_5 C66_5 1_555 1_555
C78_6 C67_6 1_555 1_555
C79_5 C68_5 1_555 1_555
C80_5 C69_5 1_555 1_555
C81_6 C70_6 1_555 1_555
H25_4 C71_4 1_555 1_555
H26_4 C72_4 1_555 1_555
H27_5 C73_5 1_555 1_555
H28_5 C74_5 1_555 1_555
H29_6 C75_6 1_555 1_555
H30_5 C76_5 1_555 1_555
H31_5 C77_5 1_555 1_555
H32_6 C78_6 1_555 1_555
H33_5 C79_5 1_555 1_555
H34_5 C80_5 1_555 1_555
H35_6 C81_6 1_555 1_555
C82_5 C27_5 1_555 1_555
C83_5 C28_5 1_555 1_555
C84_6 C29_6 1_555 1_555
C85_4 C30_4 1_555 1_555
C86_4 C31_4 1_555 1_555
C87_5 C33_5 1_555 1_555
C88_5 C35_5 1_555 1_555
C89_6 C37_6 1_555 1_555
C90_5 C32_5 1_555 1_555
C91_5 C34_5 1_555 1_555
C92_6 C36_6 1_555 1_555
H36_5 C82_5 1_555 1_555
H37_5 C83_5 1_555 1_555
H38_6 C84_6 1_555 1_555
H39_4 C85_4 1_555 1_555
H40_4 C86_4 1_555 1_555
H41_5 C87_5 1_555 1_555
H42_5 C88_5 1_555 1_555
H43_6 C89_6 1_555 1_555
H44_5 C90_5 1_555 1_555
H45_5 C91_5 1_555 1_555
H46_6 C92_6 1_555 1_555
C93_4 C50_4 1_555 1_555
C94_4 C49_4 1_555 1_555
C95_5 C51_5 1_555 1_555
C96_5 C52_5 1_555 1_555
C97_6 C53_6 1_555 1_555
C98_5 C54_5 1_555 1_555
C99_5 C56_5 1_555 1_555
C100_6 C58_6 1_555 1_555
C101_5 C55_5 1_555 1_555
C102_5 C57_5 1_555 1_555
C103_6 C59_6 1_555 1_555
C104_4 C10_4 1_555 1_555
C105_4 C94_4 1_555 1_555
C106_5 C95_5 1_555 1_555
C107_5 C96_5 1_555 1_555
C108_6 C97_6 1_555 1_555
C109_5 C98_5 1_555 1_555
C110_5 C99_5 1_555 1_555
C111_6 C100_6 1_555 1_555
C112_5 C101_5 1_555 1_555
C113_5 C102_5 1_555 1_555
C114_6 C103_6 1_555 1_555
C115_4 C9_4 1_555 1_555
C116_4 C61_4 1_555 1_555
C117_5 C62_5 1_555 1_555
C118_5 C63_5 1_555 1_555
C119_6 C64_6 1_555 1_555
C120_5 C65_5 1_555 1_555
C121_5 C66_5 1_555 1_555
C122_6 C67_6 1_555 1_555
C123_5 C68_5 1_555 1_555
C124_5 C69_5 1_555 1_555
C125_6 C70_6 1_555 1_555
C126_4 C93_4 1_555 1_555
C127_4 C94_4 1_555 1_555
C128_5 C95_5 1_555 1_555
C129_5 C96_5 1_555 1_555
C130_6 C97_6 1_555 1_555
C131_5 C98_5 1_555 1_555
C132_5 C99_5 1_555 1_555
C133_6 C100_6 1_555 1_555
C134_5 C101_5 1_555 1_555
C135_5 C102_5 1_555 1_555
C136_6 C103_6 1_555 1_555
H47_4 C126_4 1_555 1_555
H48_4 C127_4 1_555 1_555
H49_5 C128_5 1_555 1_555
H50_5 C129_5 1_555 1_555
H51_6 C130_6 1_555 1_555
H52_5 C131_5 1_555 1_555
H53_5 C132_5 1_555 1_555
H54_6 C133_6 1_555 1_555
H55_5 C134_5 1_555 1_555
H56_5 C135_5 1_555 1_555
H57_6 C136_6 1_555 1_555
H58_4 C126_4 1_555 1_555
H59_4 C127_4 1_555 1_555
H60_5 C128_5 1_555 1_555
H61_5 C129_5 1_555 1_555
H62_6 C130_6 1_555 1_555
H63_5 C131_5 1_555 1_555
H64_5 C132_5 1_555 1_555
H65_6 C133_6 1_555 1_555
H66_5 C134_5 1_555 1_555
H67_5 C135_5 1_555 1_555
H68_6 C136_6 1_555 1_555
C137_4 C126_4 1_555 1_555
C138_4 C127_4 1_555 1_555
C139_5 C128_5 1_555 1_555
C140_5 C129_5 1_555 1_555
C141_6 C130_6 1_555 1_555
C142_5 C131_5 1_555 1_555
C143_5 C132_5 1_555 1_555
C144_6 C133_6 1_555 1_555
C145_5 C134_5 1_555 1_555
C146_5 C135_5 1_555 1_555
C147_6 C136_6 1_555 1_555
H69_4 C137_4 1_555 1_555
H70_4 C138_4 1_555 1_555
H71_5 C139_5 1_555 1_555
H72_5 C140_5 1_555 1_555
H73_6 C141_6 1_555 1_555
H74_5 C142_5 1_555 1_555
H75_5 C143_5 1_555 1_555
H76_6 C144_6 1_555 1_555
H77_5 C145_5 1_555 1_555
H78_5 C146_5 1_555 1_555
H79_6 C147_6 1_555 1_555
H80_4 C137_4 1_555 1_555
H81_4 C138_4 1_555 1_555
H82_5 C139_5 1_555 1_555
H83_5 C140_5 1_555 1_555
H84_6 C141_6 1_555 1_555
H85_5 C142_5 1_555 1_555
H86_5 C143_5 1_555 1_555
H87_6 C144_6 1_555 1_555
H88_5 C145_5 1_555 1_555
H89_5 C146_5 1_555 1_555
H90_6 C147_6 1_555 1_555
H91_4 C137_4 1_555 1_555
H92_4 C138_4 1_555 1_555
H93_5 C139_5 1_555 1_555
H94_5 C140_5 1_555 1_555
H95_6 C141_6 1_555 1_555
H96_5 C142_5 1_555 1_555
H97_5 C143_5 1_555 1_555
H98_6 C144_6 1_555 1_555
H99_5 C145_5 1_555 1_555
H100_5 C146_5 1_555 1_555
H101_6 C147_6 1_555 1_555
C148_4 C93_4 1_555 1_555
C149_4 C94_4 1_555 1_555
C150_5 C95_5 1_555 1_555
C151_5 C96_5 1_555 1_555
C152_6 C97_6 1_555 1_555
C153_5 C98_5 1_555 1_555
C154_5 C99_5 1_555 1_555
C155_6 C100_6 1_555 1_555
C156_5 C101_5 1_555 1_555
C157_5 C102_5 1_555 1_555
C158_6 C103_6 1_555 1_555
H102_4 C148_4 1_555 1_555
H103_4 C149_4 1_555 1_555
H104_5 C150_5 1_555 1_555
H105_5 C151_5 1_555 1_555
H106_6 C152_6 1_555 1_555
H107_5 C153_5 1_555 1_555
H108_5 C154_5 1_555 1_555
H109_6 C155_6 1_555 1_555
H110_5 C156_5 1_555 1_555
H111_5 C157_5 1_555 1_555
H112_6 C158_6 1_555 1_555
H113_4 C148_4 1_555 1_555
H114_4 C149_4 1_555 1_555
H115_5 C150_5 1_555 1_555
H116_5 C151_5 1_555 1_555
H117_6 C152_6 1_555 1_555
H118_5 C153_5 1_555 1_555
H119_5 C154_5 1_555 1_555
H120_6 C155_6 1_555 1_555
H121_5 C156_5 1_555 1_555
H122_5 C157_5 1_555 1_555
H123_6 C158_6 1_555 1_555
C159_4 C148_4 1_555 1_555
C160_4 C149_4 1_555 1_555
C161_5 C150_5 1_555 1_555
C162_5 C151_5 1_555 1_555
C163_6 C152_6 1_555 1_555
C164_5 C153_5 1_555 1_555
C165_5 C154_5 1_555 1_555
C166_6 C155_6 1_555 1_555
C167_5 C156_5 1_555 1_555
C168_5 C157_5 1_555 1_555
C169_6 C158_6 1_555 1_555
H124_4 C159_4 1_555 1_555
H125_4 C160_4 1_555 1_555
H126_5 C161_5 1_555 1_555
H127_5 C162_5 1_555 1_555
H128_6 C163_6 1_555 1_555
H129_5 C164_5 1_555 1_555
H130_5 C165_5 1_555 1_555
H131_6 C166_6 1_555 1_555
H132_5 C167_5 1_555 1_555
H133_5 C168_5 1_555 1_555
H134_6 C169_6 1_555 1_555
H135_4 C159_4 1_555 1_555
H136_4 C160_4 1_555 1_555
H137_5 C161_5 1_555 1_555
H138_5 C162_5 1_555 1_555
H139_6 C163_6 1_555 1_555
H140_5 C164_5 1_555 1_555
H141_5 C165_5 1_555 1_555
H142_6 C166_6 1_555 1_555
H143_5 C167_5 1_555 1_555
H144_5 C168_5 1_555 1_555
H145_6 C169_6 1_555 1_555
H146_4 C159_4 1_555 1_555
H147_4 C160_4 1_555 1_555
H148_5 C161_5 1_555 1_555
H149_5 C162_5 1_555 1_555
H150_6 C163_6 1_555 1_555
H151_5 C164_5 1_555 1_555
H152_5 C165_5 1_555 1_555
H153_6 C166_6 1_555 1_555
H154_5 C167_5 1_555 1_555
H155_5 C168_5 1_555 1_555
H156_6 C169_6 1_555 1_555
O35_9 Dy13_3 1_555 1_555
O36_9 Dy3_4 1_555 1_555
O37_9 Dy14_3 1_555 1_555
C170_9 O35_9 1_555 1_555
C171_9 O37_9 1_555 1_555
C172_9 O36_9 1_555 1_555
O3_9 Dy13_3 1_555 1_555
C6_4 C7_4 1_555 1_555
C9_4 C10_4 1_555 1_555
Dy13_3 O6_6 1_555 1_555
Dy3_4 O5_4 1_555 1_555
Dy3_4 O7_5 1_555 1_555
Dy14_3 O8_6 1_555 1_555
Dy14_3 O10_5 1_555 1_555
Dy14_3 O11_6 1_555 1_555
O21_6 C18_6 1_555 1_555
O24_5 C16_5 1_555 1_555
O25_5 C17_5 1_555 1_555
O32_5 C24_5 1_555 1_555
O33_5 C25_6 1_555 1_555
C60_4 C115_4 1_555 1_555
C71_4 C85_4 1_555 1_555
C72_4 C86_4 1_555 1_555
C73_5 C82_5 1_555 1_555
C74_5 C83_5 1_555 1_555
C75_6 C84_6 1_555 1_555
C76_5 C87_5 1_555 1_555
C77_5 C88_5 1_555 1_555
C78_6 C89_6 1_555 1_555
C79_5 C90_5 1_555 1_555
C80_5 C91_5 1_555 1_555
C81_6 C92_6 1_555 1_555
C93_4 C104_4 1_555 1_555
C104_4 C116_4 1_555 1_555
C105_4 C115_4 1_555 1_555
C105_4 C116_4 1_555 1_555
C106_5 C117_5 1_555 1_555
C106_5 C120_5 1_555 1_555
C107_5 C118_5 1_555 1_555
C107_5 C121_5 1_555 1_555
C108_6 C119_6 1_555 1_555
C108_6 C122_6 1_555 1_555
C109_5 C117_5 1_555 1_555
C109_5 C123_5 1_555 1_555
C110_5 C118_5 1_555 1_555
C110_5 C124_5 1_555 1_555
C111_6 C119_6 1_555 1_555
C111_6 C125_6 1_555 1_555
C112_5 C120_5 1_555 1_555
C112_5 C123_5 1_555 1_555
C113_5 C121_5 1_555 1_555
C113_5 C124_5 1_555 1_555
C114_6 C122_6 1_555 1_555
C114_6 C125_6 1_555 1_555
C170_9 H157_6 1_555 1_555
C170_9 H158_9 1_555 1_555
C170_9 H159_6 1_555 1_555
C171_9 H160_6 1_555 1_555
C171_9 H161_9 1_555 1_555
C171_9 H162_6 1_555 1_555
C172_9 H163_6 1_555 1_555
C172_9 H164_9 1_555 1_555
C172_9 H165_6 1_555 1_555
C15_9 H166_6 1_555 1_555
C15_9 H167_9 1_555 1_555
C15_9 H168_6 1_555 1_555
O3_10 Dy5_3 1_555 1_555
O4_10 Dy5_3 1_555 1_555
C15_10 O4_10 1_555 1_555
Dy16_5 O3_10 1_555 1_555
Dy14_2 O3_10 1_555 1_555
Dy17_6 O14_6 1_555 1_555
Dy18_8 O14_6 1_555 1_555
Dy11_8 O15_6 1_555 1_555
Dy17_3 O15_6 1_555 1_555
Dy15_8 O17_6 1_555 1_555
Dy16_7 O18_6 1_555 1_555
Dy17_9 O19_7 1_555 1_555
Dy18_11 O19_7 1_555 1_555
O6_7 Dy5_3 1_555 1_555
O7_6 Dy5_3 1_555 1_555
O8_7 Dy13_2 1_555 1_555
O10_6 Dy16_5 1_555 1_555
O11_7 Dy16_5 1_555 1_555
O14_6 C21_6 1_555 1_555
O15_6 C22_6 1_555 1_555
O9_2 C23_6 1_555 1_555
O17_6 Dy18_8 1_555 1_555
O18_6 Dy7_3 1_555 1_555
O19_7 C26_7 1_555 1_555
O20_7 Dy5_3 1_555 1_555
O21_7 Dy13_2 1_555 1_555
O24_6 Dy16_5 1_555 1_555
O25_6 Dy14_2 1_555 1_555
O26_7 Dy14_2 1_555 1_555
O29_6 Dy17_6 1_555 1_555
O30_6 Dy11_8 1_555 1_555
O32_6 Dy18_8 1_555 1_555
O33_6 Dy16_7 1_555 1_555
O34_7 Dy17_9 1_555 1_555
C16_6 O7_6 1_555 1_555
C17_6 O10_6 1_555 1_555
C18_7 O8_7 1_555 1_555
C21_6 O29_6 1_555 1_555
C22_6 O30_6 1_555 1_555
C23_6 O22_2 1_555 1_555
C24_6 O17_6 1_555 1_555
C25_7 O18_6 1_555 1_555
C26_7 O34_7 1_555 1_555
C27_6 C16_6 1_555 1_555
C28_6 C17_6 1_555 1_555
C29_7 C18_7 1_555 1_555
C32_6 C21_6 1_555 1_555
C33_6 C22_6 1_555 1_555
C34_6 C23_6 1_555 1_555
C35_6 C24_6 1_555 1_555
C36_7 C25_7 1_555 1_555
C37_7 C26_7 1_555 1_555
C38_6 C27_6 1_555 1_555
C39_6 C28_6 1_555 1_555
C40_7 C29_7 1_555 1_555
C43_6 C32_6 1_555 1_555
C44_6 C33_6 1_555 1_555
C45_6 C34_6 1_555 1_555
C46_6 C35_6 1_555 1_555
C47_7 C36_7 1_555 1_555
C48_7 C37_7 1_555 1_555
H14_6 C38_6 1_555 1_555
H15_6 C39_6 1_555 1_555
H16_7 C40_7 1_555 1_555
H19_6 C43_6 1_555 1_555
H20_6 C44_6 1_555 1_555
H21_6 C45_6 1_555 1_555
H22_6 C46_6 1_555 1_555
H23_7 C47_7 1_555 1_555
H24_7 C48_7 1_555 1_555
C51_6 C38_6 1_555 1_555
C52_6 C39_6 1_555 1_555
C53_7 C40_7 1_555 1_555
C54_6 C43_6 1_555 1_555
C55_6 C44_6 1_555 1_555
C56_6 C45_6 1_555 1_555
C57_6 C46_6 1_555 1_555
C58_7 C47_7 1_555 1_555
C59_7 C48_7 1_555 1_555
C62_6 C51_6 1_555 1_555
C63_6 C52_6 1_555 1_555
C64_7 C53_7 1_555 1_555
C65_6 C55_6 1_555 1_555
C66_6 C57_6 1_555 1_555
C67_7 C59_7 1_555 1_555
C68_6 C54_6 1_555 1_555
C69_6 C56_6 1_555 1_555
C70_7 C58_7 1_555 1_555
C73_6 C62_6 1_555 1_555
C74_6 C63_6 1_555 1_555
C75_7 C64_7 1_555 1_555
C76_6 C65_6 1_555 1_555
C77_6 C66_6 1_555 1_555
C78_7 C67_7 1_555 1_555
C79_6 C68_6 1_555 1_555
C80_6 C69_6 1_555 1_555
C81_7 C70_7 1_555 1_555
H27_6 C73_6 1_555 1_555
H28_6 C74_6 1_555 1_555
H29_7 C75_7 1_555 1_555
H30_6 C76_6 1_555 1_555
H31_6 C77_6 1_555 1_555
H32_7 C78_7 1_555 1_555
H33_6 C79_6 1_555 1_555
H34_6 C80_6 1_555 1_555
H35_7 C81_7 1_555 1_555
C82_6 C27_6 1_555 1_555
C83_6 C28_6 1_555 1_555
C84_7 C29_7 1_555 1_555
C87_6 C33_6 1_555 1_555
C88_6 C35_6 1_555 1_555
C89_7 C37_7 1_555 1_555
C90_6 C32_6 1_555 1_555
C91_6 C34_6 1_555 1_555
C92_7 C36_7 1_555 1_555
H36_6 C82_6 1_555 1_555
H37_6 C83_6 1_555 1_555
H38_7 C84_7 1_555 1_555
H41_6 C87_6 1_555 1_555
H42_6 C88_6 1_555 1_555
H43_7 C89_7 1_555 1_555
H44_6 C90_6 1_555 1_555
H45_6 C91_6 1_555 1_555
H46_7 C92_7 1_555 1_555
C95_6 C51_6 1_555 1_555
C96_6 C52_6 1_555 1_555
C97_7 C53_7 1_555 1_555
C98_6 C54_6 1_555 1_555
C99_6 C56_6 1_555 1_555
C100_7 C58_7 1_555 1_555
C101_6 C55_6 1_555 1_555
C102_6 C57_6 1_555 1_555
C103_7 C59_7 1_555 1_555
C106_6 C95_6 1_555 1_555
C107_6 C96_6 1_555 1_555
C108_7 C97_7 1_555 1_555
C109_6 C98_6 1_555 1_555
C110_6 C99_6 1_555 1_555
C111_7 C100_7 1_555 1_555
C112_6 C101_6 1_555 1_555
C113_6 C102_6 1_555 1_555
C114_7 C103_7 1_555 1_555
C117_6 C62_6 1_555 1_555
C118_6 C63_6 1_555 1_555
C119_7 C64_7 1_555 1_555
C120_6 C65_6 1_555 1_555
C121_6 C66_6 1_555 1_555
C122_7 C67_7 1_555 1_555
C123_6 C68_6 1_555 1_555
C124_6 C69_6 1_555 1_555
C125_7 C70_7 1_555 1_555
C128_6 C95_6 1_555 1_555
C129_6 C96_6 1_555 1_555
C130_7 C97_7 1_555 1_555
C131_6 C98_6 1_555 1_555
C132_6 C99_6 1_555 1_555
C133_7 C100_7 1_555 1_555
C134_6 C101_6 1_555 1_555
C135_6 C102_6 1_555 1_555
C136_7 C103_7 1_555 1_555
H49_6 C128_6 1_555 1_555
H50_6 C129_6 1_555 1_555
H51_7 C130_7 1_555 1_555
H52_6 C131_6 1_555 1_555
H53_6 C132_6 1_555 1_555
H54_7 C133_7 1_555 1_555
H55_6 C134_6 1_555 1_555
H56_6 C135_6 1_555 1_555
H57_7 C136_7 1_555 1_555
H60_6 C128_6 1_555 1_555
H61_6 C129_6 1_555 1_555
H62_7 C130_7 1_555 1_555
H63_6 C131_6 1_555 1_555
H64_6 C132_6 1_555 1_555
H65_7 C133_7 1_555 1_555
H66_6 C134_6 1_555 1_555
H67_6 C135_6 1_555 1_555
H68_7 C136_7 1_555 1_555
C139_6 C128_6 1_555 1_555
C140_6 C129_6 1_555 1_555
C141_7 C130_7 1_555 1_555
C142_6 C131_6 1_555 1_555
C143_6 C132_6 1_555 1_555
C144_7 C133_7 1_555 1_555
C145_6 C134_6 1_555 1_555
C146_6 C135_6 1_555 1_555
C147_7 C136_7 1_555 1_555
H71_6 C139_6 1_555 1_555
H72_6 C140_6 1_555 1_555
H73_7 C141_7 1_555 1_555
H74_6 C142_6 1_555 1_555
H75_6 C143_6 1_555 1_555
H76_7 C144_7 1_555 1_555
H77_6 C145_6 1_555 1_555
H78_6 C146_6 1_555 1_555
H79_7 C147_7 1_555 1_555
H82_6 C139_6 1_555 1_555
H83_6 C140_6 1_555 1_555
H84_7 C141_7 1_555 1_555
H85_6 C142_6 1_555 1_555
H86_6 C143_6 1_555 1_555
H87_7 C144_7 1_555 1_555
H88_6 C145_6 1_555 1_555
H89_6 C146_6 1_555 1_555
H90_7 C147_7 1_555 1_555
H93_6 C139_6 1_555 1_555
H94_6 C140_6 1_555 1_555
H95_7 C141_7 1_555 1_555
H96_6 C142_6 1_555 1_555
H97_6 C143_6 1_555 1_555
H98_7 C144_7 1_555 1_555
H99_6 C145_6 1_555 1_555
H100_6 C146_6 1_555 1_555
H101_7 C147_7 1_555 1_555
C150_6 C95_6 1_555 1_555
C151_6 C96_6 1_555 1_555
C152_7 C97_7 1_555 1_555
C153_6 C98_6 1_555 1_555
C154_6 C99_6 1_555 1_555
C155_7 C100_7 1_555 1_555
C156_6 C101_6 1_555 1_555
C157_6 C102_6 1_555 1_555
C158_7 C103_7 1_555 1_555
H104_6 C150_6 1_555 1_555
H105_6 C151_6 1_555 1_555
H106_7 C152_7 1_555 1_555
H107_6 C153_6 1_555 1_555
H108_6 C154_6 1_555 1_555
H109_7 C155_7 1_555 1_555
H110_6 C156_6 1_555 1_555
H111_6 C157_6 1_555 1_555
H112_7 C158_7 1_555 1_555
H115_6 C150_6 1_555 1_555
H116_6 C151_6 1_555 1_555
H117_7 C152_7 1_555 1_555
H118_6 C153_6 1_555 1_555
H119_6 C154_6 1_555 1_555
H120_7 C155_7 1_555 1_555
H121_6 C156_6 1_555 1_555
H122_6 C157_6 1_555 1_555
H123_7 C158_7 1_555 1_555
C161_6 C150_6 1_555 1_555
C162_6 C151_6 1_555 1_555
C163_7 C152_7 1_555 1_555
C164_6 C153_6 1_555 1_555
C165_6 C154_6 1_555 1_555
C166_7 C155_7 1_555 1_555
C167_6 C156_6 1_555 1_555
C168_6 C157_6 1_555 1_555
C169_7 C158_7 1_555 1_555
H126_6 C161_6 1_555 1_555
H127_6 C162_6 1_555 1_555
H128_7 C163_7 1_555 1_555
H129_6 C164_6 1_555 1_555
H130_6 C165_6 1_555 1_555
H131_7 C166_7 1_555 1_555
H132_6 C167_6 1_555 1_555
H133_6 C168_6 1_555 1_555
H134_7 C169_7 1_555 1_555
H137_6 C161_6 1_555 1_555
H138_6 C162_6 1_555 1_555
H139_7 C163_7 1_555 1_555
H140_6 C164_6 1_555 1_555
H141_6 C165_6 1_555 1_555
H142_7 C166_7 1_555 1_555
H143_6 C167_6 1_555 1_555
H144_6 C168_6 1_555 1_555
H145_7 C169_7 1_555 1_555
H148_6 C161_6 1_555 1_555
H149_6 C162_6 1_555 1_555
H150_7 C163_7 1_555 1_555
H151_6 C164_6 1_555 1_555
H152_6 C165_6 1_555 1_555
H153_7 C166_7 1_555 1_555
H154_6 C167_6 1_555 1_555
H155_6 C168_6 1_555 1_555
H156_7 C169_7 1_555 1_555
O35_10 Dy13_2 1_555 1_555
O36_10 Dy16_5 1_555 1_555
O37_10 Dy14_2 1_555 1_555
C170_10 O35_10 1_555 1_555
C171_10 O37_10 1_555 1_555
C172_10 O36_10 1_555 1_555
O3_10 Dy13_2 1_555 1_555
Dy13_2 O6_7 1_555 1_555
Dy16_5 O7_6 1_555 1_555
Dy14_2 O8_7 1_555 1_555
Dy14_2 O10_6 1_555 1_555
Dy14_2 O11_7 1_555 1_555
O21_7 C18_7 1_555 1_555
O24_6 C16_6 1_555 1_555
O25_6 C17_6 1_555 1_555
O32_6 C24_6 1_555 1_555
O33_6 C25_7 1_555 1_555
C73_6 C82_6 1_555 1_555
C74_6 C83_6 1_555 1_555
C75_7 C84_7 1_555 1_555
C76_6 C87_6 1_555 1_555
C77_6 C88_6 1_555 1_555
C78_7 C89_7 1_555 1_555
C79_6 C90_6 1_555 1_555
C80_6 C91_6 1_555 1_555
C81_7 C92_7 1_555 1_555
C106_6 C117_6 1_555 1_555
C106_6 C120_6 1_555 1_555
C107_6 C118_6 1_555 1_555
C107_6 C121_6 1_555 1_555
C108_7 C119_7 1_555 1_555
C108_7 C122_7 1_555 1_555
C109_6 C117_6 1_555 1_555
C109_6 C123_6 1_555 1_555
C110_6 C118_6 1_555 1_555
C110_6 C124_6 1_555 1_555
C111_7 C119_7 1_555 1_555
C111_7 C125_7 1_555 1_555
C112_6 C120_6 1_555 1_555
C112_6 C123_6 1_555 1_555
C113_6 C121_6 1_555 1_555
C113_6 C124_6 1_555 1_555
C114_7 C122_7 1_555 1_555
C114_7 C125_7 1_555 1_555
C170_10 H157_7 1_555 1_555
C170_10 H158_10 1_555 1_555
C170_10 H159_7 1_555 1_555
C171_10 H160_7 1_555 1_555
C171_10 H161_10 1_555 1_555
C171_10 H162_7 1_555 1_555
C172_10 H163_7 1_555 1_555
C172_10 H164_10 1_555 1_555
C172_10 H165_7 1_555 1_555
C15_10 H166_7 1_555 1_555
C15_10 H167_10 1_555 1_555
C15_10 H168_7 1_555 1_555
O3_11 Dy5_4 1_555 1_555
O4_11 Dy5_4 1_555 1_555
C15_11 O4_11 1_555 1_555
Dy16_6 O3_11 1_555 1_555
Dy4_8 O3_11 1_555 1_555
Dy17_5 O14_7 1_555 1_555
Dy18_5 O14_7 1_555 1_555
Dy13_7 O16_5 1_555 1_555
Dy14_5 O16_5 1_555 1_555
Dy15_11 O17_7 1_555 1_555
Dy10_2 O18_7 1_555 1_555
Dy12_6 O19_8 1_555 1_555
Dy18_13 O19_8 1_555 1_555
O6_8 Dy5_4 1_555 1_555
O7_7 Dy5_4 1_555 1_555
O8_8 Dy6_4 1_555 1_555
O9_6 Dy6_4 1_555 1_555
O10_7 Dy16_6 1_555 1_555
O11_8 Dy16_6 1_555 1_555
O14_7 C21_7 1_555 1_555
O9_5 C22_7 1_555 1_555
O16_5 C23_7 1_555 1_555
O17_7 Dy18_5 1_555 1_555
O18_7 Dy15_2 1_555 1_555
O19_8 C26_8 1_555 1_555
O20_8 Dy5_4 1_555 1_555
O21_8 Dy6_4 1_555 1_555
O22_6 Dy6_4 1_555 1_555
O24_7 Dy16_6 1_555 1_555
O25_7 Dy4_8 1_555 1_555
O26_8 Dy4_8 1_555 1_555
O29_7 Dy17_5 1_555 1_555
O31_5 Dy13_7 1_555 1_555
O32_7 Dy18_5 1_555 1_555
O33_7 Dy10_2 1_555 1_555
O34_8 Dy12_6 1_555 1_555
C16_7 O7_7 1_555 1_555
C17_7 O10_7 1_555 1_555
C18_8 O8_8 1_555 1_555
C21_7 O29_7 1_555 1_555
C22_7 O22_5 1_555 1_555
C23_7 O31_5 1_555 1_555
C24_7 O17_7 1_555 1_555
C25_8 O18_7 1_555 1_555
C26_8 O34_8 1_555 1_555
C27_7 C16_7 1_555 1_555
C28_7 C17_7 1_555 1_555
C29_8 C18_8 1_555 1_555
C32_7 C21_7 1_555 1_555
C33_7 C22_7 1_555 1_555
C34_7 C23_7 1_555 1_555
C35_7 C24_7 1_555 1_555
C36_8 C25_8 1_555 1_555
C37_8 C26_8 1_555 1_555
C38_7 C27_7 1_555 1_555
C39_7 C28_7 1_555 1_555
C40_8 C29_8 1_555 1_555
C43_7 C32_7 1_555 1_555
C44_7 C33_7 1_555 1_555
C45_7 C34_7 1_555 1_555
C46_7 C35_7 1_555 1_555
C47_8 C36_8 1_555 1_555
C48_8 C37_8 1_555 1_555
H14_7 C38_7 1_555 1_555
H15_7 C39_7 1_555 1_555
H16_8 C40_8 1_555 1_555
H19_7 C43_7 1_555 1_555
H20_7 C44_7 1_555 1_555
H21_7 C45_7 1_555 1_555
H22_7 C46_7 1_555 1_555
H23_8 C47_8 1_555 1_555
H24_8 C48_8 1_555 1_555
C51_7 C38_7 1_555 1_555
C52_7 C39_7 1_555 1_555
C53_8 C40_8 1_555 1_555
C54_7 C43_7 1_555 1_555
C55_7 C44_7 1_555 1_555
C56_7 C45_7 1_555 1_555
C57_7 C46_7 1_555 1_555
C58_8 C47_8 1_555 1_555
C59_8 C48_8 1_555 1_555
C62_7 C51_7 1_555 1_555
C63_7 C52_7 1_555 1_555
C64_8 C53_8 1_555 1_555
C65_7 C55_7 1_555 1_555
C66_7 C57_7 1_555 1_555
C67_8 C59_8 1_555 1_555
C68_7 C54_7 1_555 1_555
C69_7 C56_7 1_555 1_555
C70_8 C58_8 1_555 1_555
C73_7 C62_7 1_555 1_555
C74_7 C63_7 1_555 1_555
C75_8 C64_8 1_555 1_555
C76_7 C65_7 1_555 1_555
C77_7 C66_7 1_555 1_555
C78_8 C67_8 1_555 1_555
C79_7 C68_7 1_555 1_555
C80_7 C69_7 1_555 1_555
C81_8 C70_8 1_555 1_555
H27_7 C73_7 1_555 1_555
H28_7 C74_7 1_555 1_555
H29_8 C75_8 1_555 1_555
H30_7 C76_7 1_555 1_555
H31_7 C77_7 1_555 1_555
H32_8 C78_8 1_555 1_555
H33_7 C79_7 1_555 1_555
H34_7 C80_7 1_555 1_555
H35_8 C81_8 1_555 1_555
C82_7 C27_7 1_555 1_555
C83_7 C28_7 1_555 1_555
C84_8 C29_8 1_555 1_555
C87_7 C33_7 1_555 1_555
C88_7 C35_7 1_555 1_555
C89_8 C37_8 1_555 1_555
C90_7 C32_7 1_555 1_555
C91_7 C34_7 1_555 1_555
C92_8 C36_8 1_555 1_555
H36_7 C82_7 1_555 1_555
H37_7 C83_7 1_555 1_555
H38_8 C84_8 1_555 1_555
H41_7 C87_7 1_555 1_555
H42_7 C88_7 1_555 1_555
H43_8 C89_8 1_555 1_555
H44_7 C90_7 1_555 1_555
H45_7 C91_7 1_555 1_555
H46_8 C92_8 1_555 1_555
C95_7 C51_7 1_555 1_555
C96_7 C52_7 1_555 1_555
C97_8 C53_8 1_555 1_555
C98_7 C54_7 1_555 1_555
C99_7 C56_7 1_555 1_555
C100_8 C58_8 1_555 1_555
C101_7 C55_7 1_555 1_555
C102_7 C57_7 1_555 1_555
C103_8 C59_8 1_555 1_555
C106_7 C95_7 1_555 1_555
C107_7 C96_7 1_555 1_555
C108_8 C97_8 1_555 1_555
C109_7 C98_7 1_555 1_555
C110_7 C99_7 1_555 1_555
C111_8 C100_8 1_555 1_555
C112_7 C101_7 1_555 1_555
C113_7 C102_7 1_555 1_555
C114_8 C103_8 1_555 1_555
C117_7 C62_7 1_555 1_555
C118_7 C63_7 1_555 1_555
C119_8 C64_8 1_555 1_555
C120_7 C65_7 1_555 1_555
C121_7 C66_7 1_555 1_555
C122_8 C67_8 1_555 1_555
C123_7 C68_7 1_555 1_555
C124_7 C69_7 1_555 1_555
C125_8 C70_8 1_555 1_555
C128_7 C95_7 1_555 1_555
C129_7 C96_7 1_555 1_555
C130_8 C97_8 1_555 1_555
C131_7 C98_7 1_555 1_555
C132_7 C99_7 1_555 1_555
C133_8 C100_8 1_555 1_555
C134_7 C101_7 1_555 1_555
C135_7 C102_7 1_555 1_555
C136_8 C103_8 1_555 1_555
H49_7 C128_7 1_555 1_555
H50_7 C129_7 1_555 1_555
H51_8 C130_8 1_555 1_555
H52_7 C131_7 1_555 1_555
H53_7 C132_7 1_555 1_555
H54_8 C133_8 1_555 1_555
H55_7 C134_7 1_555 1_555
H56_7 C135_7 1_555 1_555
H57_8 C136_8 1_555 1_555
H60_7 C128_7 1_555 1_555
H61_7 C129_7 1_555 1_555
H62_8 C130_8 1_555 1_555
H63_7 C131_7 1_555 1_555
H64_7 C132_7 1_555 1_555
H65_8 C133_8 1_555 1_555
H66_7 C134_7 1_555 1_555
H67_7 C135_7 1_555 1_555
H68_8 C136_8 1_555 1_555
C139_7 C128_7 1_555 1_555
C140_7 C129_7 1_555 1_555
C141_8 C130_8 1_555 1_555
C142_7 C131_7 1_555 1_555
C143_7 C132_7 1_555 1_555
C144_8 C133_8 1_555 1_555
C145_7 C134_7 1_555 1_555
C146_7 C135_7 1_555 1_555
C147_8 C136_8 1_555 1_555
H71_7 C139_7 1_555 1_555
H72_7 C140_7 1_555 1_555
H73_8 C141_8 1_555 1_555
H74_7 C142_7 1_555 1_555
H75_7 C143_7 1_555 1_555
H76_8 C144_8 1_555 1_555
H77_7 C145_7 1_555 1_555
H78_7 C146_7 1_555 1_555
H79_8 C147_8 1_555 1_555
H82_7 C139_7 1_555 1_555
H83_7 C140_7 1_555 1_555
H84_8 C141_8 1_555 1_555
H85_7 C142_7 1_555 1_555
H86_7 C143_7 1_555 1_555
H87_8 C144_8 1_555 1_555
H88_7 C145_7 1_555 1_555
H89_7 C146_7 1_555 1_555
H90_8 C147_8 1_555 1_555
H93_7 C139_7 1_555 1_555
H94_7 C140_7 1_555 1_555
H95_8 C141_8 1_555 1_555
H96_7 C142_7 1_555 1_555
H97_7 C143_7 1_555 1_555
H98_8 C144_8 1_555 1_555
H99_7 C145_7 1_555 1_555
H100_7 C146_7 1_555 1_555
H101_8 C147_8 1_555 1_555
C150_7 C95_7 1_555 1_555
C151_7 C96_7 1_555 1_555
C152_8 C97_8 1_555 1_555
C153_7 C98_7 1_555 1_555
C154_7 C99_7 1_555 1_555
C155_8 C100_8 1_555 1_555
C156_7 C101_7 1_555 1_555
C157_7 C102_7 1_555 1_555
C158_8 C103_8 1_555 1_555
H104_7 C150_7 1_555 1_555
H105_7 C151_7 1_555 1_555
H106_8 C152_8 1_555 1_555
H107_7 C153_7 1_555 1_555
H108_7 C154_7 1_555 1_555
H109_8 C155_8 1_555 1_555
H110_7 C156_7 1_555 1_555
H111_7 C157_7 1_555 1_555
H112_8 C158_8 1_555 1_555
H115_7 C150_7 1_555 1_555
H116_7 C151_7 1_555 1_555
H117_8 C152_8 1_555 1_555
H118_7 C153_7 1_555 1_555
H119_7 C154_7 1_555 1_555
H120_8 C155_8 1_555 1_555
H121_7 C156_7 1_555 1_555
H122_7 C157_7 1_555 1_555
H123_8 C158_8 1_555 1_555
C161_7 C150_7 1_555 1_555
C162_7 C151_7 1_555 1_555
C163_8 C152_8 1_555 1_555
C164_7 C153_7 1_555 1_555
C165_7 C154_7 1_555 1_555
C166_8 C155_8 1_555 1_555
C167_7 C156_7 1_555 1_555
C168_7 C157_7 1_555 1_555
C169_8 C158_8 1_555 1_555
H126_7 C161_7 1_555 1_555
H127_7 C162_7 1_555 1_555
H128_8 C163_8 1_555 1_555
H129_7 C164_7 1_555 1_555
H130_7 C165_7 1_555 1_555
H131_8 C166_8 1_555 1_555
H132_7 C167_7 1_555 1_555
H133_7 C168_7 1_555 1_555
H134_8 C169_8 1_555 1_555
H137_7 C161_7 1_555 1_555
H138_7 C162_7 1_555 1_555
H139_8 C163_8 1_555 1_555
H140_7 C164_7 1_555 1_555
H141_7 C165_7 1_555 1_555
H142_8 C166_8 1_555 1_555
H143_7 C167_7 1_555 1_555
H144_7 C168_7 1_555 1_555
H145_8 C169_8 1_555 1_555
H148_7 C161_7 1_555 1_555
H149_7 C162_7 1_555 1_555
H150_8 C163_8 1_555 1_555
H151_7 C164_7 1_555 1_555
H152_7 C165_7 1_555 1_555
H153_8 C166_8 1_555 1_555
H154_7 C167_7 1_555 1_555
H155_7 C168_7 1_555 1_555
H156_8 C169_8 1_555 1_555
O35_11 Dy6_4 1_555 1_555
O36_11 Dy16_6 1_555 1_555
O37_11 Dy4_8 1_555 1_555
C170_11 O35_11 1_555 1_555
C171_11 O37_11 1_555 1_555
C172_11 O36_11 1_555 1_555
O3_11 Dy6_4 1_555 1_555
Dy6_4 O6_8 1_555 1_555
Dy16_6 O7_7 1_555 1_555
Dy4_8 O8_8 1_555 1_555
Dy4_8 O9_6 1_555 1_555
Dy4_8 O10_7 1_555 1_555
Dy4_8 O11_8 1_555 1_555
O21_8 C18_8 1_555 1_555
O24_7 C16_7 1_555 1_555
O25_7 C17_7 1_555 1_555
O32_7 C24_7 1_555 1_555
O33_7 C25_8 1_555 1_555
C73_7 C82_7 1_555 1_555
C74_7 C83_7 1_555 1_555
C75_8 C84_8 1_555 1_555
C76_7 C87_7 1_555 1_555
C77_7 C88_7 1_555 1_555
C78_8 C89_8 1_555 1_555
C79_7 C90_7 1_555 1_555
C80_7 C91_7 1_555 1_555
C81_8 C92_8 1_555 1_555
C106_7 C117_7 1_555 1_555
C106_7 C120_7 1_555 1_555
C107_7 C118_7 1_555 1_555
C107_7 C121_7 1_555 1_555
C108_8 C119_8 1_555 1_555
C108_8 C122_8 1_555 1_555
C109_7 C117_7 1_555 1_555
C109_7 C123_7 1_555 1_555
C110_7 C118_7 1_555 1_555
C110_7 C124_7 1_555 1_555
C111_8 C119_8 1_555 1_555
C111_8 C125_8 1_555 1_555
C112_7 C120_7 1_555 1_555
C112_7 C123_7 1_555 1_555
C113_7 C121_7 1_555 1_555
C113_7 C124_7 1_555 1_555
C114_8 C122_8 1_555 1_555
C114_8 C125_8 1_555 1_555
C170_11 H157_8 1_555 1_555
C170_11 H158_11 1_555 1_555
C170_11 H159_8 1_555 1_555
C171_11 H160_8 1_555 1_555
C171_11 H161_11 1_555 1_555
C171_11 H162_8 1_555 1_555
C172_11 H163_8 1_555 1_555
C172_11 H164_11 1_555 1_555
C172_11 H165_8 1_555 1_555
C15_11 H166_8 1_555 1_555
C15_11 H167_11 1_555 1_555
C15_11 H168_8 1_555 1_555
O3_12 Dy15_3 1_555 1_555
O4_12 Dy15_3 1_555 1_555
C15_12 O4_12 1_555 1_555
Dy10_3 O3_12 1_555 1_555
Dy9_3 O3_12 1_555 1_555
Dy16_8 O18_8 1_555 1_555
Dy14_4 O19_9 1_555 1_555
Dy18_14 O19_9 1_555 1_555
O6_9 Dy15_3 1_555 1_555
O8_9 Dy6_3 1_555 1_555
O9_7 Dy6_3 1_555 1_555
O11_9 Dy10_3 1_555 1_555
O18_8 Dy7_4 1_555 1_555
O19_9 C26_9 1_555 1_555
O20_9 Dy15_3 1_555 1_555
O21_9 Dy6_3 1_555 1_555
O22_7 Dy6_3 1_555 1_555
O26_9 Dy9_3 1_555 1_555
O33_8 Dy16_8 1_555 1_555
O34_9 Dy14_4 1_555 1_555
C18_9 O8_9 1_555 1_555
C25_9 O18_8 1_555 1_555
C26_9 O34_9 1_555 1_555
C29_9 C18_9 1_555 1_555
C36_9 C25_9 1_555 1_555
C37_9 C26_9 1_555 1_555
C40_9 C29_9 1_555 1_555
C47_9 C36_9 1_555 1_555
C48_9 C37_9 1_555 1_555
H16_9 C40_9 1_555 1_555
H23_9 C47_9 1_555 1_555
H24_9 C48_9 1_555 1_555
C53_9 C40_9 1_555 1_555
C58_9 C47_9 1_555 1_555
C59_9 C48_9 1_555 1_555
C64_9 C53_9 1_555 1_555
C67_9 C59_9 1_555 1_555
C70_9 C58_9 1_555 1_555
C75_9 C64_9 1_555 1_555
C78_9 C67_9 1_555 1_555
C81_9 C70_9 1_555 1_555
H29_9 C75_9 1_555 1_555
H32_9 C78_9 1_555 1_555
H35_9 C81_9 1_555 1_555
C84_9 C29_9 1_555 1_555
C89_9 C37_9 1_555 1_555
C92_9 C36_9 1_555 1_555
H38_9 C84_9 1_555 1_555
H43_9 C89_9 1_555 1_555
H46_9 C92_9 1_555 1_555
C97_9 C53_9 1_555 1_555
C100_9 C58_9 1_555 1_555
C103_9 C59_9 1_555 1_555
C108_9 C97_9 1_555 1_555
C111_9 C100_9 1_555 1_555
C114_9 C103_9 1_555 1_555
C119_9 C64_9 1_555 1_555
C122_9 C67_9 1_555 1_555
C125_9 C70_9 1_555 1_555
C130_9 C97_9 1_555 1_555
C133_9 C100_9 1_555 1_555
C136_9 C103_9 1_555 1_555
H51_9 C130_9 1_555 1_555
H54_9 C133_9 1_555 1_555
H57_9 C136_9 1_555 1_555
H62_9 C130_9 1_555 1_555
H65_9 C133_9 1_555 1_555
H68_9 C136_9 1_555 1_555
C141_9 C130_9 1_555 1_555
C144_9 C133_9 1_555 1_555
C147_9 C136_9 1_555 1_555
H73_9 C141_9 1_555 1_555
H76_9 C144_9 1_555 1_555
H79_9 C147_9 1_555 1_555
H84_9 C141_9 1_555 1_555
H87_9 C144_9 1_555 1_555
H90_9 C147_9 1_555 1_555
H95_9 C141_9 1_555 1_555
H98_9 C144_9 1_555 1_555
H101_9 C147_9 1_555 1_555
C152_9 C97_9 1_555 1_555
C155_9 C100_9 1_555 1_555
C158_9 C103_9 1_555 1_555
H106_9 C152_9 1_555 1_555
H109_9 C155_9 1_555 1_555
H112_9 C158_9 1_555 1_555
H117_9 C152_9 1_555 1_555
H120_9 C155_9 1_555 1_555
H123_9 C158_9 1_555 1_555
C163_9 C152_9 1_555 1_555
C166_9 C155_9 1_555 1_555
C169_9 C158_9 1_555 1_555
H128_9 C163_9 1_555 1_555
H131_9 C166_9 1_555 1_555
H134_9 C169_9 1_555 1_555
H139_9 C163_9 1_555 1_555
H142_9 C166_9 1_555 1_555
H145_9 C169_9 1_555 1_555
H150_9 C163_9 1_555 1_555
H153_9 C166_9 1_555 1_555
H156_9 C169_9 1_555 1_555
O35_12 Dy6_3 1_555 1_555
O36_12 Dy10_3 1_555 1_555
O37_12 Dy9_3 1_555 1_555
C170_12 O35_12 1_555 1_555
C171_12 O37_12 1_555 1_555
C172_12 O36_12 1_555 1_555
O3_12 Dy6_3 1_555 1_555
Dy6_3 O6_9 1_555 1_555
Dy9_3 O8_9 1_555 1_555
Dy9_3 O9_7 1_555 1_555
Dy9_3 O11_9 1_555 1_555
O21_9 C18_9 1_555 1_555
O33_8 C25_9 1_555 1_555
C75_9 C84_9 1_555 1_555
C78_9 C89_9 1_555 1_555
C81_9 C92_9 1_555 1_555
C108_9 C119_9 1_555 1_555
C108_9 C122_9 1_555 1_555
C111_9 C119_9 1_555 1_555
C111_9 C125_9 1_555 1_555
C114_9 C122_9 1_555 1_555
C114_9 C125_9 1_555 1_555
C170_12 H157_9 1_555 1_555
C170_12 H158_12 1_555 1_555
C170_12 H159_9 1_555 1_555
C171_12 H160_9 1_555 1_555
C171_12 H161_12 1_555 1_555
C171_12 H162_9 1_555 1_555
C172_12 H163_9 1_555 1_555
C172_12 H164_12 1_555 1_555
C172_12 H165_9 1_555 1_555
C15_12 H166_9 1_555 1_555
C15_12 H167_12 1_555 1_555
C15_12 H168_9 1_555 1_555
O3_13 Dy7_3 1_555 1_555
O4_13 Dy7_3 1_555 1_555
C15_13 O4_13 1_555 1_555
Dy16_7 O3_13 1_555 1_555
Dy12_7 O3_13 1_555 1_555
Dy14_5 O14_8 1_555 1_555
Dy18_15 O14_8 1_555 1_555
Dy13_9 O16_6 1_555 1_555
Dy9_5 O16_6 1_555 1_555
Dy15_13 O17_8 1_555 1_555
Dy12_4 O19_10 1_555 1_555
Dy18_17 O19_10 1_555 1_555
O6_10 Dy7_3 1_555 1_555
O7_8 Dy7_3 1_555 1_555
O8_10 Dy8_3 1_555 1_555
O10_8 Dy16_7 1_555 1_555
O11_10 Dy16_7 1_555 1_555
O14_8 C21_8 1_555 1_555
O9_6 C22_8 1_555 1_555
O16_6 C23_8 1_555 1_555
O17_8 Dy18_15 1_555 1_555
O19_10 C26_10 1_555 1_555
O20_10 Dy7_3 1_555 1_555
O21_10 Dy8_3 1_555 1_555
O24_8 Dy16_7 1_555 1_555
O25_8 Dy12_7 1_555 1_555
O26_10 Dy12_7 1_555 1_555
O29_8 Dy14_5 1_555 1_555
O31_6 Dy13_9 1_555 1_555
O32_8 Dy18_15 1_555 1_555
O34_10 Dy12_4 1_555 1_555
C16_8 O7_8 1_555 1_555
C17_8 O10_8 1_555 1_555
C18_10 O8_10 1_555 1_555
C21_8 O29_8 1_555 1_555
C22_8 O22_6 1_555 1_555
C23_8 O31_6 1_555 1_555
C24_8 O17_8 1_555 1_555
C25_10 O5_2 1_555 1_555
C26_10 O34_10 1_555 1_555
C27_8 C16_8 1_555 1_555
C28_8 C17_8 1_555 1_555
C29_10 C18_10 1_555 1_555
C32_8 C21_8 1_555 1_555
C33_8 C22_8 1_555 1_555
C34_8 C23_8 1_555 1_555
C35_8 C24_8 1_555 1_555
C36_10 C25_10 1_555 1_555
C37_10 C26_10 1_555 1_555
C38_8 C27_8 1_555 1_555
C39_8 C28_8 1_555 1_555
C40_10 C29_10 1_555 1_555
C43_8 C32_8 1_555 1_555
C44_8 C33_8 1_555 1_555
C45_8 C34_8 1_555 1_555
C46_8 C35_8 1_555 1_555
C47_10 C36_10 1_555 1_555
C48_10 C37_10 1_555 1_555
H14_8 C38_8 1_555 1_555
H15_8 C39_8 1_555 1_555
H16_10 C40_10 1_555 1_555
H19_8 C43_8 1_555 1_555
H20_8 C44_8 1_555 1_555
H21_8 C45_8 1_555 1_555
H22_8 C46_8 1_555 1_555
H23_10 C47_10 1_555 1_555
H24_10 C48_10 1_555 1_555
C51_8 C38_8 1_555 1_555
C52_8 C39_8 1_555 1_555
C53_10 C40_10 1_555 1_555
C54_8 C43_8 1_555 1_555
C55_8 C44_8 1_555 1_555
C56_8 C45_8 1_555 1_555
C57_8 C46_8 1_555 1_555
C58_10 C47_10 1_555 1_555
C59_10 C48_10 1_555 1_555
C62_8 C51_8 1_555 1_555
C63_8 C52_8 1_555 1_555
C64_10 C53_10 1_555 1_555
C65_8 C55_8 1_555 1_555
C66_8 C57_8 1_555 1_555
C67_10 C59_10 1_555 1_555
C68_8 C54_8 1_555 1_555
C69_8 C56_8 1_555 1_555
C70_10 C58_10 1_555 1_555
C73_8 C62_8 1_555 1_555
C74_8 C63_8 1_555 1_555
C75_10 C64_10 1_555 1_555
C76_8 C65_8 1_555 1_555
C77_8 C66_8 1_555 1_555
C78_10 C67_10 1_555 1_555
C79_8 C68_8 1_555 1_555
C80_8 C69_8 1_555 1_555
C81_10 C70_10 1_555 1_555
H27_8 C73_8 1_555 1_555
H28_8 C74_8 1_555 1_555
H29_10 C75_10 1_555 1_555
H30_8 C76_8 1_555 1_555
H31_8 C77_8 1_555 1_555
H32_10 C78_10 1_555 1_555
H33_8 C79_8 1_555 1_555
H34_8 C80_8 1_555 1_555
H35_10 C81_10 1_555 1_555
C82_8 C27_8 1_555 1_555
C83_8 C28_8 1_555 1_555
C84_10 C29_10 1_555 1_555
C87_8 C33_8 1_555 1_555
C88_8 C35_8 1_555 1_555
C89_10 C37_10 1_555 1_555
C90_8 C32_8 1_555 1_555
C91_8 C34_8 1_555 1_555
C92_10 C36_10 1_555 1_555
H36_8 C82_8 1_555 1_555
H37_8 C83_8 1_555 1_555
H38_10 C84_10 1_555 1_555
H41_8 C87_8 1_555 1_555
H42_8 C88_8 1_555 1_555
H43_10 C89_10 1_555 1_555
H44_8 C90_8 1_555 1_555
H45_8 C91_8 1_555 1_555
H46_10 C92_10 1_555 1_555
C95_8 C51_8 1_555 1_555
C96_8 C52_8 1_555 1_555
C97_10 C53_10 1_555 1_555
C98_8 C54_8 1_555 1_555
C99_8 C56_8 1_555 1_555
C100_10 C58_10 1_555 1_555
C101_8 C55_8 1_555 1_555
C102_8 C57_8 1_555 1_555
C103_10 C59_10 1_555 1_555
C106_8 C95_8 1_555 1_555
C107_8 C96_8 1_555 1_555
C108_10 C97_10 1_555 1_555
C109_8 C98_8 1_555 1_555
C110_8 C99_8 1_555 1_555
C111_10 C100_10 1_555 1_555
C112_8 C101_8 1_555 1_555
C113_8 C102_8 1_555 1_555
C114_10 C103_10 1_555 1_555
C117_8 C62_8 1_555 1_555
C118_8 C63_8 1_555 1_555
C119_10 C64_10 1_555 1_555
C120_8 C65_8 1_555 1_555
C121_8 C66_8 1_555 1_555
C122_10 C67_10 1_555 1_555
C123_8 C68_8 1_555 1_555
C124_8 C69_8 1_555 1_555
C125_10 C70_10 1_555 1_555
C128_8 C95_8 1_555 1_555
C129_8 C96_8 1_555 1_555
C130_10 C97_10 1_555 1_555
C131_8 C98_8 1_555 1_555
C132_8 C99_8 1_555 1_555
C133_10 C100_10 1_555 1_555
C134_8 C101_8 1_555 1_555
C135_8 C102_8 1_555 1_555
C136_10 C103_10 1_555 1_555
H49_8 C128_8 1_555 1_555
H50_8 C129_8 1_555 1_555
H51_10 C130_10 1_555 1_555
H52_8 C131_8 1_555 1_555
H53_8 C132_8 1_555 1_555
H54_10 C133_10 1_555 1_555
H55_8 C134_8 1_555 1_555
H56_8 C135_8 1_555 1_555
H57_10 C136_10 1_555 1_555
H60_8 C128_8 1_555 1_555
H61_8 C129_8 1_555 1_555
H62_10 C130_10 1_555 1_555
H63_8 C131_8 1_555 1_555
H64_8 C132_8 1_555 1_555
H65_10 C133_10 1_555 1_555
H66_8 C134_8 1_555 1_555
H67_8 C135_8 1_555 1_555
H68_10 C136_10 1_555 1_555
C139_8 C128_8 1_555 1_555
C140_8 C129_8 1_555 1_555
C141_10 C130_10 1_555 1_555
C142_8 C131_8 1_555 1_555
C143_8 C132_8 1_555 1_555
C144_10 C133_10 1_555 1_555
C145_8 C134_8 1_555 1_555
C146_8 C135_8 1_555 1_555
C147_10 C136_10 1_555 1_555
H71_8 C139_8 1_555 1_555
H72_8 C140_8 1_555 1_555
H73_10 C141_10 1_555 1_555
H74_8 C142_8 1_555 1_555
H75_8 C143_8 1_555 1_555
H76_10 C144_10 1_555 1_555
H77_8 C145_8 1_555 1_555
H78_8 C146_8 1_555 1_555
H79_10 C147_10 1_555 1_555
H82_8 C139_8 1_555 1_555
H83_8 C140_8 1_555 1_555
H84_10 C141_10 1_555 1_555
H85_8 C142_8 1_555 1_555
H86_8 C143_8 1_555 1_555
H87_10 C144_10 1_555 1_555
H88_8 C145_8 1_555 1_555
H89_8 C146_8 1_555 1_555
H90_10 C147_10 1_555 1_555
H93_8 C139_8 1_555 1_555
H94_8 C140_8 1_555 1_555
H95_10 C141_10 1_555 1_555
H96_8 C142_8 1_555 1_555
H97_8 C143_8 1_555 1_555
H98_10 C144_10 1_555 1_555
H99_8 C145_8 1_555 1_555
H100_8 C146_8 1_555 1_555
H101_10 C147_10 1_555 1_555
C150_8 C95_8 1_555 1_555
C151_8 C96_8 1_555 1_555
C152_10 C97_10 1_555 1_555
C153_8 C98_8 1_555 1_555
C154_8 C99_8 1_555 1_555
C155_10 C100_10 1_555 1_555
C156_8 C101_8 1_555 1_555
C157_8 C102_8 1_555 1_555
C158_10 C103_10 1_555 1_555
H104_8 C150_8 1_555 1_555
H105_8 C151_8 1_555 1_555
H106_10 C152_10 1_555 1_555
H107_8 C153_8 1_555 1_555
H108_8 C154_8 1_555 1_555
H109_10 C155_10 1_555 1_555
H110_8 C156_8 1_555 1_555
H111_8 C157_8 1_555 1_555
H112_10 C158_10 1_555 1_555
H115_8 C150_8 1_555 1_555
H116_8 C151_8 1_555 1_555
H117_10 C152_10 1_555 1_555
H118_8 C153_8 1_555 1_555
H119_8 C154_8 1_555 1_555
H120_10 C155_10 1_555 1_555
H121_8 C156_8 1_555 1_555
H122_8 C157_8 1_555 1_555
H123_10 C158_10 1_555 1_555
C161_8 C150_8 1_555 1_555
C162_8 C151_8 1_555 1_555
C163_10 C152_10 1_555 1_555
C164_8 C153_8 1_555 1_555
C165_8 C154_8 1_555 1_555
C166_10 C155_10 1_555 1_555
C167_8 C156_8 1_555 1_555
C168_8 C157_8 1_555 1_555
C169_10 C158_10 1_555 1_555
H126_8 C161_8 1_555 1_555
H127_8 C162_8 1_555 1_555
H128_10 C163_10 1_555 1_555
H129_8 C164_8 1_555 1_555
H130_8 C165_8 1_555 1_555
H131_10 C166_10 1_555 1_555
H132_8 C167_8 1_555 1_555
H133_8 C168_8 1_555 1_555
H134_10 C169_10 1_555 1_555
H137_8 C161_8 1_555 1_555
H138_8 C162_8 1_555 1_555
H139_10 C163_10 1_555 1_555
H140_8 C164_8 1_555 1_555
H141_8 C165_8 1_555 1_555
H142_10 C166_10 1_555 1_555
H143_8 C167_8 1_555 1_555
H144_8 C168_8 1_555 1_555
H145_10 C169_10 1_555 1_555
H148_8 C161_8 1_555 1_555
H149_8 C162_8 1_555 1_555
H150_10 C163_10 1_555 1_555
H151_8 C164_8 1_555 1_555
H152_8 C165_8 1_555 1_555
H153_10 C166_10 1_555 1_555
H154_8 C167_8 1_555 1_555
H155_8 C168_8 1_555 1_555
H156_10 C169_10 1_555 1_555
O35_13 Dy8_3 1_555 1_555
O36_13 Dy16_7 1_555 1_555
O37_13 Dy12_7 1_555 1_555
C170_13 O35_13 1_555 1_555
C171_13 O37_13 1_555 1_555
C172_13 O36_13 1_555 1_555
O3_13 Dy8_3 1_555 1_555
Dy8_3 O6_10 1_555 1_555
Dy16_7 O7_8 1_555 1_555
Dy12_7 O8_10 1_555 1_555
Dy12_7 O10_8 1_555 1_555
Dy12_7 O11_10 1_555 1_555
O21_10 C18_10 1_555 1_555
O24_8 C16_8 1_555 1_555
O25_8 C17_8 1_555 1_555
O32_8 C24_8 1_555 1_555
O23_2 C25_10 1_555 1_555
C73_8 C82_8 1_555 1_555
C74_8 C83_8 1_555 1_555
C75_10 C84_10 1_555 1_555
C76_8 C87_8 1_555 1_555
C77_8 C88_8 1_555 1_555
C78_10 C89_10 1_555 1_555
C79_8 C90_8 1_555 1_555
C80_8 C91_8 1_555 1_555
C81_10 C92_10 1_555 1_555
C106_8 C117_8 1_555 1_555
C106_8 C120_8 1_555 1_555
C107_8 C118_8 1_555 1_555
C107_8 C121_8 1_555 1_555
C108_10 C119_10 1_555 1_555
C108_10 C122_10 1_555 1_555
C109_8 C117_8 1_555 1_555
C109_8 C123_8 1_555 1_555
C110_8 C118_8 1_555 1_555
C110_8 C124_8 1_555 1_555
C111_10 C119_10 1_555 1_555
C111_10 C125_10 1_555 1_555
C112_8 C120_8 1_555 1_555
C112_8 C123_8 1_555 1_555
C113_8 C121_8 1_555 1_555
C113_8 C124_8 1_555 1_555
C114_10 C122_10 1_555 1_555
C114_10 C125_10 1_555 1_555
C170_13 H157_10 1_555 1_555
C170_13 H158_13 1_555 1_555
C170_13 H159_10 1_555 1_555
C171_13 H160_10 1_555 1_555
C171_13 H161_13 1_555 1_555
C171_13 H162_10 1_555 1_555
C172_13 H163_10 1_555 1_555
C172_13 H164_13 1_555 1_555
C172_13 H165_10 1_555 1_555
C15_13 H166_10 1_555 1_555
C15_13 H167_13 1_555 1_555
C15_13 H168_10 1_555 1_555
O3_14 Dy7_4 1_555 1_555
O4_14 Dy7_4 1_555 1_555
C15_14 O4_14 1_555 1_555
Dy16_8 O3_14 1_555 1_555
Dy14 O3_14 1_555 1_555
Dy17_8 O14_9 1_555 1_555
Dy18_10 O14_9 1_555 1_555
Dy11_9 O15_7 1_555 1_555
Dy17_2 O15_7 1_555 1_555
Dy15_14 O17_9 1_555 1_555
Dy9_7 O19_11 1_555 1_555
Dy10_7 O19_11 1_555 1_555
O6_11 Dy7_4 1_555 1_555
O7_9 Dy7_4 1_555 1_555
O8_11 Dy13 1_555 1_555
O10_9 Dy16_8 1_555 1_555
O11_11 Dy16_8 1_555 1_555
O14_9 C21_9 1_555 1_555
O15_7 C22_9 1_555 1_555
O9 C23_9 1_555 1_555
O17_9 Dy18_10 1_555 1_555
O19_11 C26_11 1_555 1_555
O20_11 Dy7_4 1_555 1_555
O21_11 Dy13 1_555 1_555
O24_9 Dy16_8 1_555 1_555
O25_9 Dy14 1_555 1_555
O26_11 Dy14 1_555 1_555
O29_9 Dy17_8 1_555 1_555
O30_7 Dy11_9 1_555 1_555
O32_9 Dy18_10 1_555 1_555
O34_11 Dy9_7 1_555 1_555
C16_9 O7_9 1_555 1_555
C17_9 O10_9 1_555 1_555
C18_11 O8_11 1_555 1_555
C21_9 O29_9 1_555 1_555
C22_9 O30_7 1_555 1_555
C23_9 O22 1_555 1_555
C24_9 O17_9 1_555 1_555
C25_11 O5_3 1_555 1_555
C26_11 O34_11 1_555 1_555
C27_9 C16_9 1_555 1_555
C28_9 C17_9 1_555 1_555
C29_11 C18_11 1_555 1_555
C32_9 C21_9 1_555 1_555
C33_9 C22_9 1_555 1_555
C34_9 C23_9 1_555 1_555
C35_9 C24_9 1_555 1_555
C36_11 C25_11 1_555 1_555
C37_11 C26_11 1_555 1_555
C38_9 C27_9 1_555 1_555
C39_9 C28_9 1_555 1_555
C40_11 C29_11 1_555 1_555
C43_9 C32_9 1_555 1_555
C44_9 C33_9 1_555 1_555
C45_9 C34_9 1_555 1_555
C46_9 C35_9 1_555 1_555
C47_11 C36_11 1_555 1_555
C48_11 C37_11 1_555 1_555
H14_9 C38_9 1_555 1_555
H15_9 C39_9 1_555 1_555
H16_11 C40_11 1_555 1_555
H19_9 C43_9 1_555 1_555
H20_9 C44_9 1_555 1_555
H21_9 C45_9 1_555 1_555
H22_9 C46_9 1_555 1_555
H23_11 C47_11 1_555 1_555
H24_11 C48_11 1_555 1_555
C51_9 C38_9 1_555 1_555
C52_9 C39_9 1_555 1_555
C53_11 C40_11 1_555 1_555
C54_9 C43_9 1_555 1_555
C55_9 C44_9 1_555 1_555
C56_9 C45_9 1_555 1_555
C57_9 C46_9 1_555 1_555
C58_11 C47_11 1_555 1_555
C59_11 C48_11 1_555 1_555
C62_9 C51_9 1_555 1_555
C63_9 C52_9 1_555 1_555
C64_11 C53_11 1_555 1_555
C65_9 C55_9 1_555 1_555
C66_9 C57_9 1_555 1_555
C67_11 C59_11 1_555 1_555
C68_9 C54_9 1_555 1_555
C69_9 C56_9 1_555 1_555
C70_11 C58_11 1_555 1_555
C73_9 C62_9 1_555 1_555
C74_9 C63_9 1_555 1_555
C75_11 C64_11 1_555 1_555
C76_9 C65_9 1_555 1_555
C77_9 C66_9 1_555 1_555
C78_11 C67_11 1_555 1_555
C79_9 C68_9 1_555 1_555
C80_9 C69_9 1_555 1_555
C81_11 C70_11 1_555 1_555
H27_9 C73_9 1_555 1_555
H28_9 C74_9 1_555 1_555
H29_11 C75_11 1_555 1_555
H30_9 C76_9 1_555 1_555
H31_9 C77_9 1_555 1_555
H32_11 C78_11 1_555 1_555
H33_9 C79_9 1_555 1_555
H34_9 C80_9 1_555 1_555
H35_11 C81_11 1_555 1_555
C82_9 C27_9 1_555 1_555
C83_9 C28_9 1_555 1_555
C84_11 C29_11 1_555 1_555
C87_9 C33_9 1_555 1_555
C88_9 C35_9 1_555 1_555
C89_11 C37_11 1_555 1_555
C90_9 C32_9 1_555 1_555
C91_9 C34_9 1_555 1_555
C92_11 C36_11 1_555 1_555
H36_9 C82_9 1_555 1_555
H37_9 C83_9 1_555 1_555
H38_11 C84_11 1_555 1_555
H41_9 C87_9 1_555 1_555
H42_9 C88_9 1_555 1_555
H43_11 C89_11 1_555 1_555
H44_9 C90_9 1_555 1_555
H45_9 C91_9 1_555 1_555
H46_11 C92_11 1_555 1_555
C95_9 C51_9 1_555 1_555
C96_9 C52_9 1_555 1_555
C97_11 C53_11 1_555 1_555
C98_9 C54_9 1_555 1_555
C99_9 C56_9 1_555 1_555
C100_11 C58_11 1_555 1_555
C101_9 C55_9 1_555 1_555
C102_9 C57_9 1_555 1_555
C103_11 C59_11 1_555 1_555
C106_9 C95_9 1_555 1_555
C107_9 C96_9 1_555 1_555
C108_11 C97_11 1_555 1_555
C109_9 C98_9 1_555 1_555
C110_9 C99_9 1_555 1_555
C111_11 C100_11 1_555 1_555
C112_9 C101_9 1_555 1_555
C113_9 C102_9 1_555 1_555
C114_11 C103_11 1_555 1_555
C117_9 C62_9 1_555 1_555
C118_9 C63_9 1_555 1_555
C119_11 C64_11 1_555 1_555
C120_9 C65_9 1_555 1_555
C121_9 C66_9 1_555 1_555
C122_11 C67_11 1_555 1_555
C123_9 C68_9 1_555 1_555
C124_9 C69_9 1_555 1_555
C125_11 C70_11 1_555 1_555
C128_9 C95_9 1_555 1_555
C129_9 C96_9 1_555 1_555
C130_11 C97_11 1_555 1_555
C131_9 C98_9 1_555 1_555
C132_9 C99_9 1_555 1_555
C133_11 C100_11 1_555 1_555
C134_9 C101_9 1_555 1_555
C135_9 C102_9 1_555 1_555
C136_11 C103_11 1_555 1_555
H49_9 C128_9 1_555 1_555
H50_9 C129_9 1_555 1_555
H51_11 C130_11 1_555 1_555
H52_9 C131_9 1_555 1_555
H53_9 C132_9 1_555 1_555
H54_11 C133_11 1_555 1_555
H55_9 C134_9 1_555 1_555
H56_9 C135_9 1_555 1_555
H57_11 C136_11 1_555 1_555
H60_9 C128_9 1_555 1_555
H61_9 C129_9 1_555 1_555
H62_11 C130_11 1_555 1_555
H63_9 C131_9 1_555 1_555
H64_9 C132_9 1_555 1_555
H65_11 C133_11 1_555 1_555
H66_9 C134_9 1_555 1_555
H67_9 C135_9 1_555 1_555
H68_11 C136_11 1_555 1_555
C139_9 C128_9 1_555 1_555
C140_9 C129_9 1_555 1_555
C141_11 C130_11 1_555 1_555
C142_9 C131_9 1_555 1_555
C143_9 C132_9 1_555 1_555
C144_11 C133_11 1_555 1_555
C145_9 C134_9 1_555 1_555
C146_9 C135_9 1_555 1_555
C147_11 C136_11 1_555 1_555
H71_9 C139_9 1_555 1_555
H72_9 C140_9 1_555 1_555
H73_11 C141_11 1_555 1_555
H74_9 C142_9 1_555 1_555
H75_9 C143_9 1_555 1_555
H76_11 C144_11 1_555 1_555
H77_9 C145_9 1_555 1_555
H78_9 C146_9 1_555 1_555
H79_11 C147_11 1_555 1_555
H82_9 C139_9 1_555 1_555
H83_9 C140_9 1_555 1_555
H84_11 C141_11 1_555 1_555
H85_9 C142_9 1_555 1_555
H86_9 C143_9 1_555 1_555
H87_11 C144_11 1_555 1_555
H88_9 C145_9 1_555 1_555
H89_9 C146_9 1_555 1_555
H90_11 C147_11 1_555 1_555
H93_9 C139_9 1_555 1_555
H94_9 C140_9 1_555 1_555
H95_11 C141_11 1_555 1_555
H96_9 C142_9 1_555 1_555
H97_9 C143_9 1_555 1_555
H98_11 C144_11 1_555 1_555
H99_9 C145_9 1_555 1_555
H100_9 C146_9 1_555 1_555
H101_11 C147_11 1_555 1_555
C150_9 C95_9 1_555 1_555
C151_9 C96_9 1_555 1_555
C152_11 C97_11 1_555 1_555
C153_9 C98_9 1_555 1_555
C154_9 C99_9 1_555 1_555
C155_11 C100_11 1_555 1_555
C156_9 C101_9 1_555 1_555
C157_9 C102_9 1_555 1_555
C158_11 C103_11 1_555 1_555
H104_9 C150_9 1_555 1_555
H105_9 C151_9 1_555 1_555
H106_11 C152_11 1_555 1_555
H107_9 C153_9 1_555 1_555
H108_9 C154_9 1_555 1_555
H109_11 C155_11 1_555 1_555
H110_9 C156_9 1_555 1_555
H111_9 C157_9 1_555 1_555
H112_11 C158_11 1_555 1_555
H115_9 C150_9 1_555 1_555
H116_9 C151_9 1_555 1_555
H117_11 C152_11 1_555 1_555
H118_9 C153_9 1_555 1_555
H119_9 C154_9 1_555 1_555
H120_11 C155_11 1_555 1_555
H121_9 C156_9 1_555 1_555
H122_9 C157_9 1_555 1_555
H123_11 C158_11 1_555 1_555
C161_9 C150_9 1_555 1_555
C162_9 C151_9 1_555 1_555
C163_11 C152_11 1_555 1_555
C164_9 C153_9 1_555 1_555
C165_9 C154_9 1_555 1_555
C166_11 C155_11 1_555 1_555
C167_9 C156_9 1_555 1_555
C168_9 C157_9 1_555 1_555
C169_11 C158_11 1_555 1_555
H126_9 C161_9 1_555 1_555
H127_9 C162_9 1_555 1_555
H128_11 C163_11 1_555 1_555
H129_9 C164_9 1_555 1_555
H130_9 C165_9 1_555 1_555
H131_11 C166_11 1_555 1_555
H132_9 C167_9 1_555 1_555
H133_9 C168_9 1_555 1_555
H134_11 C169_11 1_555 1_555
H137_9 C161_9 1_555 1_555
H138_9 C162_9 1_555 1_555
H139_11 C163_11 1_555 1_555
H140_9 C164_9 1_555 1_555
H141_9 C165_9 1_555 1_555
H142_11 C166_11 1_555 1_555
H143_9 C167_9 1_555 1_555
H144_9 C168_9 1_555 1_555
H145_11 C169_11 1_555 1_555
H148_9 C161_9 1_555 1_555
H149_9 C162_9 1_555 1_555
H150_11 C163_11 1_555 1_555
H151_9 C164_9 1_555 1_555
H152_9 C165_9 1_555 1_555
H153_11 C166_11 1_555 1_555
H154_9 C167_9 1_555 1_555
H155_9 C168_9 1_555 1_555
H156_11 C169_11 1_555 1_555
O35_14 Dy13 1_555 1_555
O36_14 Dy16_8 1_555 1_555
O37_14 Dy14 1_555 1_555
C170_14 O35_14 1_555 1_555
C171_14 O37_14 1_555 1_555
C172_14 O36_14 1_555 1_555
O3_14 Dy13 1_555 1_555
Dy13 O6_11 1_555 1_555
Dy16_8 O7_9 1_555 1_555
Dy14 O8_11 1_555 1_555
Dy14 O10_9 1_555 1_555
Dy14 O11_11 1_555 1_555
O21_11 C18_11 1_555 1_555
O24_9 C16_9 1_555 1_555
O25_9 C17_9 1_555 1_555
O32_9 C24_9 1_555 1_555
O23_3 C25_11 1_555 1_555
C73_9 C82_9 1_555 1_555
C74_9 C83_9 1_555 1_555
C75_11 C84_11 1_555 1_555
C76_9 C87_9 1_555 1_555
C77_9 C88_9 1_555 1_555
C78_11 C89_11 1_555 1_555
C79_9 C90_9 1_555 1_555
C80_9 C91_9 1_555 1_555
C81_11 C92_11 1_555 1_555
C106_9 C117_9 1_555 1_555
C106_9 C120_9 1_555 1_555
C107_9 C118_9 1_555 1_555
C107_9 C121_9 1_555 1_555
C108_11 C119_11 1_555 1_555
C108_11 C122_11 1_555 1_555
C109_9 C117_9 1_555 1_555
C109_9 C123_9 1_555 1_555
C110_9 C118_9 1_555 1_555
C110_9 C124_9 1_555 1_555
C111_11 C119_11 1_555 1_555
C111_11 C125_11 1_555 1_555
C112_9 C120_9 1_555 1_555
C112_9 C123_9 1_555 1_555
C113_9 C121_9 1_555 1_555
C113_9 C124_9 1_555 1_555
C114_11 C122_11 1_555 1_555
C114_11 C125_11 1_555 1_555
C170_14 H157_11 1_555 1_555
C170_14 H158_14 1_555 1_555
C170_14 H159_11 1_555 1_555
C171_14 H160_11 1_555 1_555
C171_14 H161_14 1_555 1_555
C171_14 H162_11 1_555 1_555
C172_14 H163_11 1_555 1_555
C172_14 H164_14 1_555 1_555
C172_14 H165_11 1_555 1_555
C15_14 H166_11 1_555 1_555
C15_14 H167_14 1_555 1_555
C15_14 H168_11 1_555 1_555
O3_15 Dy15_2 1_555 1_555
O4_15 Dy15_2 1_555 1_555
C15_15 O4_15 1_555 1_555
Dy10_2 O3_15 1_555 1_555
Dy9_2 O3_15 1_555 1_555
Dy9_4 O19_12 1_555 1_555
Dy10_4 O19_12 1_555 1_555
O6_12 Dy15_2 1_555 1_555
O8_12 Dy8_4 1_555 1_555
O9_8 Dy8_4 1_555 1_555
O11_12 Dy10_2 1_555 1_555
O19_12 C26_12 1_555 1_555
O20_12 Dy15_2 1_555 1_555
O21_12 Dy8_4 1_555 1_555
O22_8 Dy8_4 1_555 1_555
O26_12 Dy9_2 1_555 1_555
O34_12 Dy9_4 1_555 1_555
C18_12 O8_12 1_555 1_555
C25_12 O5_4 1_555 1_555
C26_12 O34_12 1_555 1_555
C29_12 C18_12 1_555 1_555
C36_12 C25_12 1_555 1_555
C37_12 C26_12 1_555 1_555
C40_12 C29_12 1_555 1_555
C47_12 C36_12 1_555 1_555
C48_12 C37_12 1_555 1_555
H16_12 C40_12 1_555 1_555
H23_12 C47_12 1_555 1_555
H24_12 C48_12 1_555 1_555
C53_12 C40_12 1_555 1_555
C58_12 C47_12 1_555 1_555
C59_12 C48_12 1_555 1_555
C64_12 C53_12 1_555 1_555
C67_12 C59_12 1_555 1_555
C70_12 C58_12 1_555 1_555
C75_12 C64_12 1_555 1_555
C78_12 C67_12 1_555 1_555
C81_12 C70_12 1_555 1_555
H29_12 C75_12 1_555 1_555
H32_12 C78_12 1_555 1_555
H35_12 C81_12 1_555 1_555
C84_12 C29_12 1_555 1_555
C89_12 C37_12 1_555 1_555
C92_12 C36_12 1_555 1_555
H38_12 C84_12 1_555 1_555
H43_12 C89_12 1_555 1_555
H46_12 C92_12 1_555 1_555
C97_12 C53_12 1_555 1_555
C100_12 C58_12 1_555 1_555
C103_12 C59_12 1_555 1_555
C108_12 C97_12 1_555 1_555
C111_12 C100_12 1_555 1_555
C114_12 C103_12 1_555 1_555
C119_12 C64_12 1_555 1_555
C122_12 C67_12 1_555 1_555
C125_12 C70_12 1_555 1_555
C130_12 C97_12 1_555 1_555
C133_12 C100_12 1_555 1_555
C136_12 C103_12 1_555 1_555
H51_12 C130_12 1_555 1_555
H54_12 C133_12 1_555 1_555
H57_12 C136_12 1_555 1_555
H62_12 C130_12 1_555 1_555
H65_12 C133_12 1_555 1_555
H68_12 C136_12 1_555 1_555
C141_12 C130_12 1_555 1_555
C144_12 C133_12 1_555 1_555
C147_12 C136_12 1_555 1_555
H73_12 C141_12 1_555 1_555
H76_12 C144_12 1_555 1_555
H79_12 C147_12 1_555 1_555
H84_12 C141_12 1_555 1_555
H87_12 C144_12 1_555 1_555
H90_12 C147_12 1_555 1_555
H95_12 C141_12 1_555 1_555
H98_12 C144_12 1_555 1_555
H101_12 C147_12 1_555 1_555
C152_12 C97_12 1_555 1_555
C155_12 C100_12 1_555 1_555
C158_12 C103_12 1_555 1_555
H106_12 C152_12 1_555 1_555
H109_12 C155_12 1_555 1_555
H112_12 C158_12 1_555 1_555
H117_12 C152_12 1_555 1_555
H120_12 C155_12 1_555 1_555
H123_12 C158_12 1_555 1_555
C163_12 C152_12 1_555 1_555
C166_12 C155_12 1_555 1_555
C169_12 C158_12 1_555 1_555
H128_12 C163_12 1_555 1_555
H131_12 C166_12 1_555 1_555
H134_12 C169_12 1_555 1_555
H139_12 C163_12 1_555 1_555
H142_12 C166_12 1_555 1_555
H145_12 C169_12 1_555 1_555
H150_12 C163_12 1_555 1_555
H153_12 C166_12 1_555 1_555
H156_12 C169_12 1_555 1_555
O35_15 Dy8_4 1_555 1_555
O36_15 Dy10_2 1_555 1_555
O37_15 Dy9_2 1_555 1_555
C170_15 O35_15 1_555 1_555
C171_15 O37_15 1_555 1_555
C172_15 O36_15 1_555 1_555
O3_15 Dy8_4 1_555 1_555
Dy8_4 O6_12 1_555 1_555
Dy9_2 O8_12 1_555 1_555
Dy9_2 O9_8 1_555 1_555
Dy9_2 O11_12 1_555 1_555
O21_12 C18_12 1_555 1_555
O23_4 C25_12 1_555 1_555
C75_12 C84_12 1_555 1_555
C78_12 C89_12 1_555 1_555
C81_12 C92_12 1_555 1_555
C108_12 C119_12 1_555 1_555
C108_12 C122_12 1_555 1_555
C111_12 C119_12 1_555 1_555
C111_12 C125_12 1_555 1_555
C114_12 C122_12 1_555 1_555
C114_12 C125_12 1_555 1_555
C170_15 H157_12 1_555 1_555
C170_15 H158_15 1_555 1_555
C170_15 H159_12 1_555 1_555
C171_15 H160_12 1_555 1_555
C171_15 H161_15 1_555 1_555
C171_15 H162_12 1_555 1_555
C172_15 H163_12 1_555 1_555
C172_15 H164_15 1_555 1_555
C172_15 H165_12 1_555 1_555
C15_15 H166_12 1_555 1_555
C15_15 H167_15 1_555 1_555
C15_15 H168_12 1_555 1_555
O3_16 Dy9_4 1_555 1_555
O4_16 Dy9_4 1_555 1_555
C15_16 O4_16 1_555 1_555
Dy13_8 O3_16 1_555 1_555
Dy15_4 O3_16 1_555 1_555
Dy17_11 O19_13 1_555 1_555
Dy17_7 O19_13 1_555 1_555
O5_5 Dy9_4 1_555 1_555
O8_13 Dy10_4 1_555 1_555
O11_13 Dy13_8 1_555 1_555
O19_13 C26_13 1_555 1_555
O21_13 Dy10_4 1_555 1_555
O23_5 Dy13_8 1_555 1_555
O26_13 Dy15_4 1_555 1_555
O34_13 Dy17_11 1_555 1_555
C18_13 O8_13 1_555 1_555
C25_13 O11_6 1_555 1_555
C26_13 O34_13 1_555 1_555
C29_13 C18_13 1_555 1_555
C36_13 C25_13 1_555 1_555
C37_13 C26_13 1_555 1_555
C40_13 C29_13 1_555 1_555
C47_13 C36_13 1_555 1_555
C48_13 C37_13 1_555 1_555
H16_13 C40_13 1_555 1_555
H23_13 C47_13 1_555 1_555
H24_13 C48_13 1_555 1_555
C53_13 C40_13 1_555 1_555
C58_13 C47_13 1_555 1_555
C59_13 C48_13 1_555 1_555
C64_13 C53_13 1_555 1_555
C67_13 C59_13 1_555 1_555
C70_13 C58_13 1_555 1_555
C75_13 C64_13 1_555 1_555
C78_13 C67_13 1_555 1_555
C81_13 C70_13 1_555 1_555
H29_13 C75_13 1_555 1_555
H32_13 C78_13 1_555 1_555
H35_13 C81_13 1_555 1_555
C84_13 C29_13 1_555 1_555
C89_13 C37_13 1_555 1_555
C92_13 C36_13 1_555 1_555
H38_13 C84_13 1_555 1_555
H43_13 C89_13 1_555 1_555
H46_13 C92_13 1_555 1_555
C97_13 C53_13 1_555 1_555
C100_13 C58_13 1_555 1_555
C103_13 C59_13 1_555 1_555
C108_13 C97_13 1_555 1_555
C111_13 C100_13 1_555 1_555
C114_13 C103_13 1_555 1_555
C119_13 C64_13 1_555 1_555
C122_13 C67_13 1_555 1_555
C125_13 C70_13 1_555 1_555
C130_13 C97_13 1_555 1_555
C133_13 C100_13 1_555 1_555
C136_13 C103_13 1_555 1_555
H51_13 C130_13 1_555 1_555
H54_13 C133_13 1_555 1_555
H57_13 C136_13 1_555 1_555
H62_13 C130_13 1_555 1_555
H65_13 C133_13 1_555 1_555
H68_13 C136_13 1_555 1_555
C141_13 C130_13 1_555 1_555
C144_13 C133_13 1_555 1_555
C147_13 C136_13 1_555 1_555
H73_13 C141_13 1_555 1_555
H76_13 C144_13 1_555 1_555
H79_13 C147_13 1_555 1_555
H84_13 C141_13 1_555 1_555
H87_13 C144_13 1_555 1_555
H90_13 C147_13 1_555 1_555
H95_13 C141_13 1_555 1_555
H98_13 C144_13 1_555 1_555
H101_13 C147_13 1_555 1_555
C152_13 C97_13 1_555 1_555
C155_13 C100_13 1_555 1_555
C158_13 C103_13 1_555 1_555
H106_13 C152_13 1_555 1_555
H109_13 C155_13 1_555 1_555
H112_13 C158_13 1_555 1_555
H117_13 C152_13 1_555 1_555
H120_13 C155_13 1_555 1_555
H123_13 C158_13 1_555 1_555
C163_13 C152_13 1_555 1_555
C166_13 C155_13 1_555 1_555
C169_13 C158_13 1_555 1_555
H128_13 C163_13 1_555 1_555
H131_13 C166_13 1_555 1_555
H134_13 C169_13 1_555 1_555
H139_13 C163_13 1_555 1_555
H142_13 C166_13 1_555 1_555
H145_13 C169_13 1_555 1_555
H150_13 C163_13 1_555 1_555
H153_13 C166_13 1_555 1_555
H156_13 C169_13 1_555 1_555
O35_16 Dy10_4 1_555 1_555
O36_16 Dy13_8 1_555 1_555
O37_16 Dy15_4 1_555 1_555
C170_16 O35_16 1_555 1_555
C171_16 O37_16 1_555 1_555
C172_16 O36_16 1_555 1_555
O3_16 Dy10_4 1_555 1_555
Dy13_8 O5_5 1_555 1_555
Dy15_4 O8_13 1_555 1_555
Dy15_4 O11_13 1_555 1_555
O21_13 C18_13 1_555 1_555
O26_6 C25_13 1_555 1_555
C75_13 C84_13 1_555 1_555
C78_13 C89_13 1_555 1_555
C81_13 C92_13 1_555 1_555
C108_13 C119_13 1_555 1_555
C108_13 C122_13 1_555 1_555
C111_13 C119_13 1_555 1_555
C111_13 C125_13 1_555 1_555
C114_13 C122_13 1_555 1_555
C114_13 C125_13 1_555 1_555
C170_16 H157_13 1_555 1_555
C170_16 H158_16 1_555 1_555
C171_16 H160_13 1_555 1_555
C171_16 H161_16 1_555 1_555
C172_16 H163_13 1_555 1_555
C172_16 H164_16 1_555 1_555
C15_16 H166_13 1_555 1_555
C15_16 H167_16 1_555 1_555
O3_17 Dy9_5 1_555 1_555
O4_17 Dy9_5 1_555 1_555
C15_17 O4_17 1_555 1_555
Dy13_9 O3_17 1_555 1_555
Dy15_5 O3_17 1_555 1_555
Dy15_11 O16_7 1_555 1_555
Dy13_5 O16_7 1_555 1_555
Dy13_7 O17_10 1_555 1_555
O10_10 Dy13_9 1_555 1_555
O16_7 C23_10 1_555 1_555
O17_10 Dy15_13 1_555 1_555
O25_10 Dy15_5 1_555 1_555
O31_7 Dy15_11 1_555 1_555
O32_10 Dy15_13 1_555 1_555
C17_10 O10_10 1_555 1_555
C23_10 O31_7 1_555 1_555
C24_10 O17_10 1_555 1_555
C28_10 C17_10 1_555 1_555
C34_10 C23_10 1_555 1_555
C35_10 C24_10 1_555 1_555
C39_10 C28_10 1_555 1_555
C45_10 C34_10 1_555 1_555
C46_10 C35_10 1_555 1_555
H15_10 C39_10 1_555 1_555
H21_10 C45_10 1_555 1_555
H22_10 C46_10 1_555 1_555
C52_10 C39_10 1_555 1_555
C56_10 C45_10 1_555 1_555
C57_10 C46_10 1_555 1_555
C63_10 C52_10 1_555 1_555
C66_10 C57_10 1_555 1_555
C69_10 C56_10 1_555 1_555
C74_10 C63_10 1_555 1_555
C77_10 C66_10 1_555 1_555
C80_10 C69_10 1_555 1_555
H28_10 C74_10 1_555 1_555
H31_10 C77_10 1_555 1_555
H34_10 C80_10 1_555 1_555
C83_10 C28_10 1_555 1_555
C88_10 C35_10 1_555 1_555
C91_10 C34_10 1_555 1_555
H37_10 C83_10 1_555 1_555
H42_10 C88_10 1_555 1_555
H45_10 C91_10 1_555 1_555
C96_10 C52_10 1_555 1_555
C99_10 C56_10 1_555 1_555
C102_10 C57_10 1_555 1_555
C107_10 C96_10 1_555 1_555
C110_10 C99_10 1_555 1_555
C113_10 C102_10 1_555 1_555
C118_10 C63_10 1_555 1_555
C121_10 C66_10 1_555 1_555
C124_10 C69_10 1_555 1_555
C129_10 C96_10 1_555 1_555
C132_10 C99_10 1_555 1_555
C135_10 C102_10 1_555 1_555
H50_10 C129_10 1_555 1_555
H53_10 C132_10 1_555 1_555
H56_10 C135_10 1_555 1_555
H61_10 C129_10 1_555 1_555
H64_10 C132_10 1_555 1_555
H67_10 C135_10 1_555 1_555
C140_10 C129_10 1_555 1_555
C143_10 C132_10 1_555 1_555
C146_10 C135_10 1_555 1_555
H72_10 C140_10 1_555 1_555
H75_10 C143_10 1_555 1_555
H78_10 C146_10 1_555 1_555
H83_10 C140_10 1_555 1_555
H86_10 C143_10 1_555 1_555
H89_10 C146_10 1_555 1_555
H94_10 C140_10 1_555 1_555
H97_10 C143_10 1_555 1_555
H100_10 C146_10 1_555 1_555
C151_10 C96_10 1_555 1_555
C154_10 C99_10 1_555 1_555
C157_10 C102_10 1_555 1_555
H105_10 C151_10 1_555 1_555
H108_10 C154_10 1_555 1_555
H111_10 C157_10 1_555 1_555
H116_10 C151_10 1_555 1_555
H119_10 C154_10 1_555 1_555
H122_10 C157_10 1_555 1_555
C162_10 C151_10 1_555 1_555
C165_10 C154_10 1_555 1_555
C168_10 C157_10 1_555 1_555
H127_10 C162_10 1_555 1_555
H130_10 C165_10 1_555 1_555
H133_10 C168_10 1_555 1_555
H138_10 C162_10 1_555 1_555
H141_10 C165_10 1_555 1_555
H144_10 C168_10 1_555 1_555
H149_10 C162_10 1_555 1_555
H152_10 C165_10 1_555 1_555
H155_10 C168_10 1_555 1_555
O35_17 Dy10_5 1_555 1_555
O36_17 Dy13_9 1_555 1_555
O37_17 Dy15_5 1_555 1_555
C170_17 O35_17 1_555 1_555
C171_17 O37_17 1_555 1_555
C172_17 O36_17 1_555 1_555
O3_17 Dy10_5 1_555 1_555
Dy15_5 O10_10 1_555 1_555
O25_10 C17_10 1_555 1_555
O32_10 C24_10 1_555 1_555
C74_10 C83_10 1_555 1_555
C77_10 C88_10 1_555 1_555
C80_10 C91_10 1_555 1_555
C107_10 C118_10 1_555 1_555
C107_10 C121_10 1_555 1_555
C110_10 C118_10 1_555 1_555
C110_10 C124_10 1_555 1_555
C113_10 C121_10 1_555 1_555
C113_10 C124_10 1_555 1_555
C170_17 H158_17 1_555 1_555
C170_17 H159_13 1_555 1_555
C171_17 H161_17 1_555 1_555
C171_17 H162_13 1_555 1_555
C172_17 H164_17 1_555 1_555
C172_17 H165_13 1_555 1_555
C15_17 H167_17 1_555 1_555
C15_17 H168_13 1_555 1_555
Dy11_10 O15_8 1_555 1_555
Dy11_8 O15_8 1_555 1_555
Dy18_13 O19_14 1_555 1_555
Dy18_19 O19_14 1_555 1_555
O6_7 C21_10 1_555 1_555
O15_8 C22_10 1_555 1_555
O19_14 C26_14 1_555 1_555
O30_8 Dy11_10 1_555 1_555
O34_14 Dy18_13 1_555 1_555
C16_10 O6_12 1_555 1_555
C18_14 O11_12 1_555 1_555
C21_10 O20_7 1_555 1_555
C22_10 O30_8 1_555 1_555
C25_14 O5_5 1_555 1_555
C26_14 O34_14 1_555 1_555
C27_10 C16_10 1_555 1_555
C29_14 C18_14 1_555 1_555
C32_10 C21_10 1_555 1_555
C33_10 C22_10 1_555 1_555
C36_14 C25_14 1_555 1_555
C37_14 C26_14 1_555 1_555
C38_10 C27_10 1_555 1_555
C40_14 C29_14 1_555 1_555
C43_10 C32_10 1_555 1_555
C44_10 C33_10 1_555 1_555
C47_14 C36_14 1_555 1_555
C48_14 C37_14 1_555 1_555
H14_10 C38_10 1_555 1_555
H16_14 C40_14 1_555 1_555
H19_10 C43_10 1_555 1_555
H20_10 C44_10 1_555 1_555
H23_14 C47_14 1_555 1_555
H24_14 C48_14 1_555 1_555
C51_10 C38_10 1_555 1_555
C53_14 C40_14 1_555 1_555
C54_10 C43_10 1_555 1_555
C55_10 C44_10 1_555 1_555
C58_14 C47_14 1_555 1_555
C59_14 C48_14 1_555 1_555
C62_10 C51_10 1_555 1_555
C64_14 C53_14 1_555 1_555
C65_10 C55_10 1_555 1_555
C67_14 C59_14 1_555 1_555
C68_10 C54_10 1_555 1_555
C70_14 C58_14 1_555 1_555
C73_10 C62_10 1_555 1_555
C75_14 C64_14 1_555 1_555
C76_10 C65_10 1_555 1_555
C78_14 C67_14 1_555 1_555
C79_10 C68_10 1_555 1_555
C81_14 C70_14 1_555 1_555
H27_10 C73_10 1_555 1_555
H29_14 C75_14 1_555 1_555
H30_10 C76_10 1_555 1_555
H32_14 C78_14 1_555 1_555
H33_10 C79_10 1_555 1_555
H35_14 C81_14 1_555 1_555
C82_10 C27_10 1_555 1_555
C84_14 C29_14 1_555 1_555
C87_10 C33_10 1_555 1_555
C89_14 C37_14 1_555 1_555
C90_10 C32_10 1_555 1_555
C92_14 C36_14 1_555 1_555
H36_10 C82_10 1_555 1_555
H38_14 C84_14 1_555 1_555
H41_10 C87_10 1_555 1_555
H43_14 C89_14 1_555 1_555
H44_10 C90_10 1_555 1_555
H46_14 C92_14 1_555 1_555
C95_10 C51_10 1_555 1_555
C97_14 C53_14 1_555 1_555
C98_10 C54_10 1_555 1_555
C100_14 C58_14 1_555 1_555
C101_10 C55_10 1_555 1_555
C103_14 C59_14 1_555 1_555
C106_10 C95_10 1_555 1_555
C108_14 C97_14 1_555 1_555
C109_10 C98_10 1_555 1_555
C111_14 C100_14 1_555 1_555
C112_10 C101_10 1_555 1_555
C114_14 C103_14 1_555 1_555
C117_10 C62_10 1_555 1_555
C119_14 C64_14 1_555 1_555
C120_10 C65_10 1_555 1_555
C122_14 C67_14 1_555 1_555
C123_10 C68_10 1_555 1_555
C125_14 C70_14 1_555 1_555
C128_10 C95_10 1_555 1_555
C130_14 C97_14 1_555 1_555
C131_10 C98_10 1_555 1_555
C133_14 C100_14 1_555 1_555
C134_10 C101_10 1_555 1_555
C136_14 C103_14 1_555 1_555
H49_10 C128_10 1_555 1_555
H51_14 C130_14 1_555 1_555
H52_10 C131_10 1_555 1_555
H54_14 C133_14 1_555 1_555
H55_10 C134_10 1_555 1_555
H57_14 C136_14 1_555 1_555
H60_10 C128_10 1_555 1_555
H62_14 C130_14 1_555 1_555
H63_10 C131_10 1_555 1_555
H65_14 C133_14 1_555 1_555
H66_10 C134_10 1_555 1_555
H68_14 C136_14 1_555 1_555
C139_10 C128_10 1_555 1_555
C141_14 C130_14 1_555 1_555
C142_10 C131_10 1_555 1_555
C144_14 C133_14 1_555 1_555
C145_10 C134_10 1_555 1_555
C147_14 C136_14 1_555 1_555
H71_10 C139_10 1_555 1_555
H73_14 C141_14 1_555 1_555
H74_10 C142_10 1_555 1_555
H76_14 C144_14 1_555 1_555
H77_10 C145_10 1_555 1_555
H79_14 C147_14 1_555 1_555
H82_10 C139_10 1_555 1_555
H84_14 C141_14 1_555 1_555
H85_10 C142_10 1_555 1_555
H87_14 C144_14 1_555 1_555
H88_10 C145_10 1_555 1_555
H90_14 C147_14 1_555 1_555
H93_10 C139_10 1_555 1_555
H95_14 C141_14 1_555 1_555
H96_10 C142_10 1_555 1_555
H98_14 C144_14 1_555 1_555
H99_10 C145_10 1_555 1_555
H101_14 C147_14 1_555 1_555
C150_10 C95_10 1_555 1_555
C152_14 C97_14 1_555 1_555
C153_10 C98_10 1_555 1_555
C155_14 C100_14 1_555 1_555
C156_10 C101_10 1_555 1_555
C158_14 C103_14 1_555 1_555
H104_10 C150_10 1_555 1_555
H106_14 C152_14 1_555 1_555
H107_10 C153_10 1_555 1_555
H109_14 C155_14 1_555 1_555
H110_10 C156_10 1_555 1_555
H112_14 C158_14 1_555 1_555
H115_10 C150_10 1_555 1_555
H117_14 C152_14 1_555 1_555
H118_10 C153_10 1_555 1_555
H120_14 C155_14 1_555 1_555
H121_10 C156_10 1_555 1_555
H123_14 C158_14 1_555 1_555
C161_10 C150_10 1_555 1_555
C163_14 C152_14 1_555 1_555
C164_10 C153_10 1_555 1_555
C166_14 C155_14 1_555 1_555
C167_10 C156_10 1_555 1_555
C169_14 C158_14 1_555 1_555
H126_10 C161_10 1_555 1_555
H128_14 C163_14 1_555 1_555
H129_10 C164_10 1_555 1_555
H131_14 C166_14 1_555 1_555
H132_10 C167_10 1_555 1_555
H134_14 C169_14 1_555 1_555
H137_10 C161_10 1_555 1_555
H139_14 C163_14 1_555 1_555
H140_10 C164_10 1_555 1_555
H142_14 C166_14 1_555 1_555
H143_10 C167_10 1_555 1_555
H145_14 C169_14 1_555 1_555
H148_10 C161_10 1_555 1_555
H150_14 C163_14 1_555 1_555
H151_10 C164_10 1_555 1_555
H153_14 C166_14 1_555 1_555
H154_10 C167_10 1_555 1_555
H156_14 C169_14 1_555 1_555
O26_12 C18_14 1_555 1_555
O20_12 C16_10 1_555 1_555
O23_5 C25_14 1_555 1_555
C73_10 C82_10 1_555 1_555
C75_14 C84_14 1_555 1_555
C76_10 C87_10 1_555 1_555
C78_14 C89_14 1_555 1_555
C79_10 C90_10 1_555 1_555
C81_14 C92_14 1_555 1_555
C106_10 C117_10 1_555 1_555
C106_10 C120_10 1_555 1_555
C108_14 C119_14 1_555 1_555
C108_14 C122_14 1_555 1_555
C109_10 C117_10 1_555 1_555
C109_10 C123_10 1_555 1_555
C111_14 C119_14 1_555 1_555
C111_14 C125_14 1_555 1_555
C112_10 C120_10 1_555 1_555
C112_10 C123_10 1_555 1_555
C114_14 C122_14 1_555 1_555
C114_14 C125_14 1_555 1_555
Dy13_6 O1_5 1_555 1_555
O1_5 C1_5 1_555 1_555
O2_5 Dy13_6 1_555 1_555
O3_18 Dy13_6 1_555 1_555
C1_5 O2_5 1_555 1_555
C2_5 C1_5 1_555 1_555
C3_5 C2_5 1_555 1_555
H1_5 C3_5 1_555 1_555
C4_5 C3_5 1_555 1_555
C5_5 C4_5 1_555 1_555
C6_5 C5_5 1_555 1_555
H2_5 C6_5 1_555 1_555
C7_5 C2_5 1_555 1_555
H3_5 C7_5 1_555 1_555
C8_5 C4_5 1_555 1_555
C9_5 C8_5 1_555 1_555
C10_5 C5_5 1_555 1_555
C11_5 C8_5 1_555 1_555
H4_5 C11_5 1_555 1_555
H5_5 C11_5 1_555 1_555
C12_5 C11_5 1_555 1_555
H6_5 C12_5 1_555 1_555
H7_5 C12_5 1_555 1_555
H8_5 C12_5 1_555 1_555
C13_5 C8_5 1_555 1_555
H9_5 C13_5 1_555 1_555
H10_5 C13_5 1_555 1_555
C14_5 C13_5 1_555 1_555
H11_5 C14_5 1_555 1_555
H12_5 C14_5 1_555 1_555
H13_5 C14_5 1_555 1_555
O4_18 Dy13_6 1_555 1_555
C15_18 O4_18 1_555 1_555
Dy14_4 O1_5 1_555 1_555
Dy15_12 O3_18 1_555 1_555
Dy18_14 O3_18 1_555 1_555
Dy18_7 O13_5 1_555 1_555
Dy8_6 O13_5 1_555 1_555
O5_6 Dy13_6 1_555 1_555
O11_14 Dy15_12 1_555 1_555
O11_9 C19_5 1_555 1_555
O13_5 C20_5 1_555 1_555
O23_6 Dy15_12 1_555 1_555
O26_14 Dy18_14 1_555 1_555
O28_5 Dy18_7 1_555 1_555
C19_5 O26_9 1_555 1_555
C20_5 O28_5 1_555 1_555
C30_5 C19_5 1_555 1_555
C31_5 C20_5 1_555 1_555
C41_5 C30_5 1_555 1_555
C42_5 C31_5 1_555 1_555
H17_5 C41_5 1_555 1_555
H18_5 C42_5 1_555 1_555
C49_5 C41_5 1_555 1_555
C50_5 C42_5 1_555 1_555
C60_5 C49_5 1_555 1_555
C61_5 C50_5 1_555 1_555
C71_5 C60_5 1_555 1_555
C72_5 C61_5 1_555 1_555
H25_5 C71_5 1_555 1_555
H26_5 C72_5 1_555 1_555
C85_5 C30_5 1_555 1_555
C86_5 C31_5 1_555 1_555
H39_5 C85_5 1_555 1_555
H40_5 C86_5 1_555 1_555
C93_5 C50_5 1_555 1_555
C94_5 C49_5 1_555 1_555
C104_5 C10_5 1_555 1_555
C105_5 C94_5 1_555 1_555
C115_5 C9_5 1_555 1_555
C116_5 C61_5 1_555 1_555
C126_5 C93_5 1_555 1_555
C127_5 C94_5 1_555 1_555
H47_5 C126_5 1_555 1_555
H48_5 C127_5 1_555 1_555
H58_5 C126_5 1_555 1_555
H59_5 C127_5 1_555 1_555
C137_5 C126_5 1_555 1_555
C138_5 C127_5 1_555 1_555
H69_5 C137_5 1_555 1_555
H70_5 C138_5 1_555 1_555
H80_5 C137_5 1_555 1_555
H81_5 C138_5 1_555 1_555
H91_5 C137_5 1_555 1_555
H92_5 C138_5 1_555 1_555
C148_5 C93_5 1_555 1_555
C149_5 C94_5 1_555 1_555
H102_5 C148_5 1_555 1_555
H103_5 C149_5 1_555 1_555
H113_5 C148_5 1_555 1_555
H114_5 C149_5 1_555 1_555
C159_5 C148_5 1_555 1_555
C160_5 C149_5 1_555 1_555
H124_5 C159_5 1_555 1_555
H125_5 C160_5 1_555 1_555
H135_5 C159_5 1_555 1_555
H136_5 C160_5 1_555 1_555
H146_5 C159_5 1_555 1_555
H147_5 C160_5 1_555 1_555
O35_18 Dy14_4 1_555 1_555
O36_18 Dy15_12 1_555 1_555
O37_18 Dy18_14 1_555 1_555
C170_18 O35_18 1_555 1_555
C171_18 O37_18 1_555 1_555
C172_18 O36_18 1_555 1_555
O3_18 Dy14_4 1_555 1_555
C6_5 C7_5 1_555 1_555
C9_5 C10_5 1_555 1_555
Dy15_12 O5_6 1_555 1_555
Dy18_14 O11_14 1_555 1_555
C60_5 C115_5 1_555 1_555
C71_5 C85_5 1_555 1_555
C72_5 C86_5 1_555 1_555
C93_5 C104_5 1_555 1_555
C104_5 C116_5 1_555 1_555
C105_5 C115_5 1_555 1_555
C105_5 C116_5 1_555 1_555
C170_18 H157_14 1_555 1_555
C170_18 H158_18 1_555 1_555
C171_18 H160_14 1_555 1_555
C171_18 H161_18 1_555 1_555
C172_18 H163_14 1_555 1_555
C172_18 H164_18 1_555 1_555
C15_18 H166_14 1_555 1_555
C15_18 H167_18 1_555 1_555
O3_19 Dy13_7 1_555 1_555
O4_19 Dy13_7 1_555 1_555
C15_19 O4_19 1_555 1_555
Dy15_13 O3_19 1_555 1_555
Dy18_15 O3_19 1_555 1_555
O35_19 Dy14_5 1_555 1_555
O36_19 Dy15_13 1_555 1_555
O37_19 Dy18_15 1_555 1_555
C170_19 O35_19 1_555 1_555
C171_19 O37_19 1_555 1_555
C172_19 O36_19 1_555 1_555
O3_19 Dy14_5 1_555 1_555
C170_19 H158_19 1_555 1_555
C170_19 H159_14 1_555 1_555
C171_19 H161_19 1_555 1_555
C171_19 H162_14 1_555 1_555
C172_19 H164_19 1_555 1_555
C172_19 H165_14 1_555 1_555
C15_19 H167_19 1_555 1_555
C15_19 H168_14 1_555 1_555
O3_20 Dy1_5 1_555 1_555
O4_20 Dy1_5 1_555 1_555
C15_20 O4_20 1_555 1_555
Dy15_14 O3_20 1_555 1_555
Dy18_10 O3_20 1_555 1_555
Dy8_5 O15_9 1_555 1_555
Dy11 O15_9 1_555 1_555
O6_13 Dy1_5 1_555 1_555
O7_10 Dy1_5 1_555 1_555
O6 C21_11 1_555 1_555
O15_9 C22_11 1_555 1_555
O20_13 Dy1_5 1_555 1_555
O24_10 Dy15_14 1_555 1_555
O30_9 Dy8_5 1_555 1_555
C16_11 O7_10 1_555 1_555
C21_11 O20 1_555 1_555
C22_11 O30_9 1_555 1_555
C27_11 C16_11 1_555 1_555
C32_11 C21_11 1_555 1_555
C33_11 C22_11 1_555 1_555
C38_11 C27_11 1_555 1_555
C43_11 C32_11 1_555 1_555
C44_11 C33_11 1_555 1_555
H14_11 C38_11 1_555 1_555
H19_11 C43_11 1_555 1_555
H20_11 C44_11 1_555 1_555
C51_11 C38_11 1_555 1_555
C54_11 C43_11 1_555 1_555
C55_11 C44_11 1_555 1_555
C62_11 C51_11 1_555 1_555
C65_11 C55_11 1_555 1_555
C68_11 C54_11 1_555 1_555
C73_11 C62_11 1_555 1_555
C76_11 C65_11 1_555 1_555
C79_11 C68_11 1_555 1_555
H27_11 C73_11 1_555 1_555
H30_11 C76_11 1_555 1_555
H33_11 C79_11 1_555 1_555
C82_11 C27_11 1_555 1_555
C87_11 C33_11 1_555 1_555
C90_11 C32_11 1_555 1_555
H36_11 C82_11 1_555 1_555
H41_11 C87_11 1_555 1_555
H44_11 C90_11 1_555 1_555
C95_11 C51_11 1_555 1_555
C98_11 C54_11 1_555 1_555
C101_11 C55_11 1_555 1_555
C106_11 C95_11 1_555 1_555
C109_11 C98_11 1_555 1_555
C112_11 C101_11 1_555 1_555
C117_11 C62_11 1_555 1_555
C120_11 C65_11 1_555 1_555
C123_11 C68_11 1_555 1_555
C128_11 C95_11 1_555 1_555
C131_11 C98_11 1_555 1_555
C134_11 C101_11 1_555 1_555
H49_11 C128_11 1_555 1_555
H52_11 C131_11 1_555 1_555
H55_11 C134_11 1_555 1_555
H60_11 C128_11 1_555 1_555
H63_11 C131_11 1_555 1_555
H66_11 C134_11 1_555 1_555
C139_11 C128_11 1_555 1_555
C142_11 C131_11 1_555 1_555
C145_11 C134_11 1_555 1_555
H71_11 C139_11 1_555 1_555
H74_11 C142_11 1_555 1_555
H77_11 C145_11 1_555 1_555
H82_11 C139_11 1_555 1_555
H85_11 C142_11 1_555 1_555
H88_11 C145_11 1_555 1_555
H93_11 C139_11 1_555 1_555
H96_11 C142_11 1_555 1_555
H99_11 C145_11 1_555 1_555
C150_11 C95_11 1_555 1_555
C153_11 C98_11 1_555 1_555
C156_11 C101_11 1_555 1_555
H104_11 C150_11 1_555 1_555
H107_11 C153_11 1_555 1_555
H110_11 C156_11 1_555 1_555
H115_11 C150_11 1_555 1_555
H118_11 C153_11 1_555 1_555
H121_11 C156_11 1_555 1_555
C161_11 C150_11 1_555 1_555
C164_11 C153_11 1_555 1_555
C167_11 C156_11 1_555 1_555
H126_11 C161_11 1_555 1_555
H129_11 C164_11 1_555 1_555
H132_11 C167_11 1_555 1_555
H137_11 C161_11 1_555 1_555
H140_11 C164_11 1_555 1_555
H143_11 C167_11 1_555 1_555
H148_11 C161_11 1_555 1_555
H151_11 C164_11 1_555 1_555
H154_11 C167_11 1_555 1_555
O35_20 Dy17_8 1_555 1_555
O36_20 Dy15_14 1_555 1_555
O37_20 Dy18_10 1_555 1_555
C170_20 O35_20 1_555 1_555
C171_20 O37_20 1_555 1_555
C172_20 O36_20 1_555 1_555
O3_20 Dy17_8 1_555 1_555
Dy17_8 O6_13 1_555 1_555
Dy15_14 O7_10 1_555 1_555
O24_10 C16_11 1_555 1_555
C73_11 C82_11 1_555 1_555
C76_11 C87_11 1_555 1_555
C79_11 C90_11 1_555 1_555
C106_11 C117_11 1_555 1_555
C106_11 C120_11 1_555 1_555
C109_11 C117_11 1_555 1_555
C109_11 C123_11 1_555 1_555
C112_11 C120_11 1_555 1_555
C112_11 C123_11 1_555 1_555
C170_20 H158_20 1_555 1_555
C170_20 H159_15 1_555 1_555
C171_20 H161_20 1_555 1_555
C171_20 H162_15 1_555 1_555
C172_20 H164_20 1_555 1_555
C172_20 H165_15 1_555 1_555
C15_20 H167_20 1_555 1_555
C15_20 H168_15 1_555 1_555
Dy1_6 O1_6 1_555 1_555
O1_6 C1_6 1_555 1_555
O2_6 Dy1_6 1_555 1_555
O3_21 Dy1_6 1_555 1_555
C1_6 O2_6 1_555 1_555
C2_6 C1_6 1_555 1_555
C3_6 C2_6 1_555 1_555
H1_6 C3_6 1_555 1_555
C4_6 C3_6 1_555 1_555
C5_6 C4_6 1_555 1_555
C6_6 C5_6 1_555 1_555
H2_6 C6_6 1_555 1_555
C7_6 C2_6 1_555 1_555
H3_6 C7_6 1_555 1_555
C8_6 C4_6 1_555 1_555
C9_6 C8_6 1_555 1_555
C10_6 C5_6 1_555 1_555
C11_6 C8_6 1_555 1_555
H4_6 C11_6 1_555 1_555
H5_6 C11_6 1_555 1_555
C12_6 C11_6 1_555 1_555
H6_6 C12_6 1_555 1_555
H7_6 C12_6 1_555 1_555
H8_6 C12_6 1_555 1_555
C13_6 C8_6 1_555 1_555
H9_6 C13_6 1_555 1_555
H10_6 C13_6 1_555 1_555
C14_6 C13_6 1_555 1_555
H11_6 C14_6 1_555 1_555
H12_6 C14_6 1_555 1_555
H13_6 C14_6 1_555 1_555
O4_21 Dy1_6 1_555 1_555
C15_21 O4_21 1_555 1_555
Dy17_9 O1_6 1_555 1_555
Dy15_15 O3_21 1_555 1_555
Dy18_11 O3_21 1_555 1_555
Dy18_4 O13_6 1_555 1_555
Dy15_10 O13_6 1_555 1_555
O5_7 Dy1_6 1_555 1_555
O11_15 Dy15_15 1_555 1_555
O11_7 C19_6 1_555 1_555
O13_6 C20_6 1_555 1_555
O23_7 Dy15_15 1_555 1_555
O26_15 Dy18_11 1_555 1_555
O28_6 Dy18_4 1_555 1_555
C19_6 O26_7 1_555 1_555
C20_6 O28_6 1_555 1_555
C30_6 C19_6 1_555 1_555
C31_6 C20_6 1_555 1_555
C41_6 C30_6 1_555 1_555
C42_6 C31_6 1_555 1_555
H17_6 C41_6 1_555 1_555
H18_6 C42_6 1_555 1_555
C49_6 C41_6 1_555 1_555
C50_6 C42_6 1_555 1_555
C60_6 C49_6 1_555 1_555
C61_6 C50_6 1_555 1_555
C71_6 C60_6 1_555 1_555
C72_6 C61_6 1_555 1_555
H25_6 C71_6 1_555 1_555
H26_6 C72_6 1_555 1_555
C85_6 C30_6 1_555 1_555
C86_6 C31_6 1_555 1_555
H39_6 C85_6 1_555 1_555
H40_6 C86_6 1_555 1_555
C93_6 C50_6 1_555 1_555
C94_6 C49_6 1_555 1_555
C104_6 C10_6 1_555 1_555
C105_6 C94_6 1_555 1_555
C115_6 C9_6 1_555 1_555
C116_6 C61_6 1_555 1_555
C126_6 C93_6 1_555 1_555
C127_6 C94_6 1_555 1_555
H47_6 C126_6 1_555 1_555
H48_6 C127_6 1_555 1_555
H58_6 C126_6 1_555 1_555
H59_6 C127_6 1_555 1_555
C137_6 C126_6 1_555 1_555
C138_6 C127_6 1_555 1_555
H69_6 C137_6 1_555 1_555
H70_6 C138_6 1_555 1_555
H80_6 C137_6 1_555 1_555
H81_6 C138_6 1_555 1_555
H91_6 C137_6 1_555 1_555
H92_6 C138_6 1_555 1_555
C148_6 C93_6 1_555 1_555
C149_6 C94_6 1_555 1_555
H102_6 C148_6 1_555 1_555
H103_6 C149_6 1_555 1_555
H113_6 C148_6 1_555 1_555
H114_6 C149_6 1_555 1_555
C159_6 C148_6 1_555 1_555
C160_6 C149_6 1_555 1_555
H124_6 C159_6 1_555 1_555
H125_6 C160_6 1_555 1_555
H135_6 C159_6 1_555 1_555
H136_6 C160_6 1_555 1_555
H146_6 C159_6 1_555 1_555
H147_6 C160_6 1_555 1_555
O35_21 Dy17_9 1_555 1_555
O36_21 Dy15_15 1_555 1_555
O37_21 Dy18_11 1_555 1_555
C170_21 O35_21 1_555 1_555
C171_21 O37_21 1_555 1_555
C172_21 O36_21 1_555 1_555
O3_21 Dy17_9 1_555 1_555
C6_6 C7_6 1_555 1_555
C9_6 C10_6 1_555 1_555
Dy15_15 O5_7 1_555 1_555
Dy18_11 O11_15 1_555 1_555
C60_6 C115_6 1_555 1_555
C71_6 C85_6 1_555 1_555
C72_6 C86_6 1_555 1_555
C93_6 C104_6 1_555 1_555
C104_6 C116_6 1_555 1_555
C105_6 C115_6 1_555 1_555
C105_6 C116_6 1_555 1_555
C170_21 H157_15 1_555 1_555
C170_21 H158_21 1_555 1_555
C171_21 H160_15 1_555 1_555
C171_21 H161_21 1_555 1_555
C172_21 H163_15 1_555 1_555
C172_21 H164_21 1_555 1_555
C15_21 H166_15 1_555 1_555
C15_21 H167_21 1_555 1_555
Dy11_9 O18_9 1_555 1_555
Dy18 O19_15 1_555 1_555
Dy18_20 O19_15 1_555 1_555
O18_9 Dy17_2 1_555 1_555
O19_15 C26_15 1_555 1_555
O33_9 Dy11_9 1_555 1_555
O34_15 Dy18 1_555 1_555
C18_15 O11_2 1_555 1_555
C25_15 O18_9 1_555 1_555
C26_15 O34_15 1_555 1_555
C29_15 C18_15 1_555 1_555
C36_15 C25_15 1_555 1_555
C37_15 C26_15 1_555 1_555
C40_15 C29_15 1_555 1_555
C47_15 C36_15 1_555 1_555
C48_15 C37_15 1_555 1_555
H16_15 C40_15 1_555 1_555
H23_15 C47_15 1_555 1_555
H24_15 C48_15 1_555 1_555
C53_15 C40_15 1_555 1_555
C58_15 C47_15 1_555 1_555
C59_15 C48_15 1_555 1_555
C64_15 C53_15 1_555 1_555
C67_15 C59_15 1_555 1_555
C70_15 C58_15 1_555 1_555
C75_15 C64_15 1_555 1_555
C78_15 C67_15 1_555 1_555
C81_15 C70_15 1_555 1_555
H29_15 C75_15 1_555 1_555
H32_15 C78_15 1_555 1_555
H35_15 C81_15 1_555 1_555
C84_15 C29_15 1_555 1_555
C89_15 C37_15 1_555 1_555
C92_15 C36_15 1_555 1_555
H38_15 C84_15 1_555 1_555
H43_15 C89_15 1_555 1_555
H46_15 C92_15 1_555 1_555
C97_15 C53_15 1_555 1_555
C100_15 C58_15 1_555 1_555
C103_15 C59_15 1_555 1_555
C108_15 C97_15 1_555 1_555
C111_15 C100_15 1_555 1_555
C114_15 C103_15 1_555 1_555
C119_15 C64_15 1_555 1_555
C122_15 C67_15 1_555 1_555
C125_15 C70_15 1_555 1_555
C130_15 C97_15 1_555 1_555
C133_15 C100_15 1_555 1_555
C136_15 C103_15 1_555 1_555
H51_15 C130_15 1_555 1_555
H54_15 C133_15 1_555 1_555
H57_15 C136_15 1_555 1_555
H62_15 C130_15 1_555 1_555
H65_15 C133_15 1_555 1_555
H68_15 C136_15 1_555 1_555
C141_15 C130_15 1_555 1_555
C144_15 C133_15 1_555 1_555
C147_15 C136_15 1_555 1_555
H73_15 C141_15 1_555 1_555
H76_15 C144_15 1_555 1_555
H79_15 C147_15 1_555 1_555
H84_15 C141_15 1_555 1_555
H87_15 C144_15 1_555 1_555
H90_15 C147_15 1_555 1_555
H95_15 C141_15 1_555 1_555
H98_15 C144_15 1_555 1_555
H101_15 C147_15 1_555 1_555
C152_15 C97_15 1_555 1_555
C155_15 C100_15 1_555 1_555
C158_15 C103_15 1_555 1_555
H106_15 C152_15 1_555 1_555
H109_15 C155_15 1_555 1_555
H112_15 C158_15 1_555 1_555
H117_15 C152_15 1_555 1_555
H120_15 C155_15 1_555 1_555
H123_15 C158_15 1_555 1_555
C163_15 C152_15 1_555 1_555
C166_15 C155_15 1_555 1_555
C169_15 C158_15 1_555 1_555
H128_15 C163_15 1_555 1_555
H131_15 C166_15 1_555 1_555
H134_15 C169_15 1_555 1_555
H139_15 C163_15 1_555 1_555
H142_15 C166_15 1_555 1_555
H145_15 C169_15 1_555 1_555
H150_15 C163_15 1_555 1_555
H153_15 C166_15 1_555 1_555
H156_15 C169_15 1_555 1_555
O26_2 C18_15 1_555 1_555
O33_9 C25_15 1_555 1_555
C75_15 C84_15 1_555 1_555
C78_15 C89_15 1_555 1_555
C81_15 C92_15 1_555 1_555
C108_15 C119_15 1_555 1_555
C108_15 C122_15 1_555 1_555
C111_15 C119_15 1_555 1_555
C111_15 C125_15 1_555 1_555
C114_15 C122_15 1_555 1_555
C114_15 C125_15 1_555 1_555
Dy9_8 O14_10 1_555 1_555
Dy11_3 O14_10 1_555 1_555
Dy15_8 O15_10 1_555 1_555
Dy17_10 O15_10 1_555 1_555
O14_10 C21_12 1_555 1_555
O15_10 C22_12 1_555 1_555
O29_10 Dy9_8 1_555 1_555
O30_10 Dy15_8 1_555 1_555
C16_12 O6_2 1_555 1_555
C21_12 O29_10 1_555 1_555
C22_12 O30_10 1_555 1_555
C27_12 C16_12 1_555 1_555
C32_12 C21_12 1_555 1_555
C33_12 C22_12 1_555 1_555
C38_12 C27_12 1_555 1_555
C43_12 C32_12 1_555 1_555
C44_12 C33_12 1_555 1_555
H14_12 C38_12 1_555 1_555
H19_12 C43_12 1_555 1_555
H20_12 C44_12 1_555 1_555
C51_12 C38_12 1_555 1_555
C54_12 C43_12 1_555 1_555
C55_12 C44_12 1_555 1_555
C62_12 C51_12 1_555 1_555
C65_12 C55_12 1_555 1_555
C68_12 C54_12 1_555 1_555
C73_12 C62_12 1_555 1_555
C76_12 C65_12 1_555 1_555
C79_12 C68_12 1_555 1_555
H27_12 C73_12 1_555 1_555
H30_12 C76_12 1_555 1_555
H33_12 C79_12 1_555 1_555
C82_12 C27_12 1_555 1_555
C87_12 C33_12 1_555 1_555
C90_12 C32_12 1_555 1_555
H36_12 C82_12 1_555 1_555
H41_12 C87_12 1_555 1_555
H44_12 C90_12 1_555 1_555
C95_12 C51_12 1_555 1_555
C98_12 C54_12 1_555 1_555
C101_12 C55_12 1_555 1_555
C106_12 C95_12 1_555 1_555
C109_12 C98_12 1_555 1_555
C112_12 C101_12 1_555 1_555
C117_12 C62_12 1_555 1_555
C120_12 C65_12 1_555 1_555
C123_12 C68_12 1_555 1_555
C128_12 C95_12 1_555 1_555
C131_12 C98_12 1_555 1_555
C134_12 C101_12 1_555 1_555
H49_12 C128_12 1_555 1_555
H52_12 C131_12 1_555 1_555
H55_12 C134_12 1_555 1_555
H60_12 C128_12 1_555 1_555
H63_12 C131_12 1_555 1_555
H66_12 C134_12 1_555 1_555
C139_12 C128_12 1_555 1_555
C142_12 C131_12 1_555 1_555
C145_12 C134_12 1_555 1_555
H71_12 C139_12 1_555 1_555
H74_12 C142_12 1_555 1_555
H77_12 C145_12 1_555 1_555
H82_12 C139_12 1_555 1_555
H85_12 C142_12 1_555 1_555
H88_12 C145_12 1_555 1_555
H93_12 C139_12 1_555 1_555
H96_12 C142_12 1_555 1_555
H99_12 C145_12 1_555 1_555
C150_12 C95_12 1_555 1_555
C153_12 C98_12 1_555 1_555
C156_12 C101_12 1_555 1_555
H104_12 C150_12 1_555 1_555
H107_12 C153_12 1_555 1_555
H110_12 C156_12 1_555 1_555
H115_12 C150_12 1_555 1_555
H118_12 C153_12 1_555 1_555
H121_12 C156_12 1_555 1_555
C161_12 C150_12 1_555 1_555
C164_12 C153_12 1_555 1_555
C167_12 C156_12 1_555 1_555
H126_12 C161_12 1_555 1_555
H129_12 C164_12 1_555 1_555
H132_12 C167_12 1_555 1_555
H137_12 C161_12 1_555 1_555
H140_12 C164_12 1_555 1_555
H143_12 C167_12 1_555 1_555
H148_12 C161_12 1_555 1_555
H151_12 C164_12 1_555 1_555
H154_12 C167_12 1_555 1_555
O20_2 C16_12 1_555 1_555
C73_12 C82_12 1_555 1_555
C76_12 C87_12 1_555 1_555
C79_12 C90_12 1_555 1_555
C106_12 C117_12 1_555 1_555
C106_12 C120_12 1_555 1_555
C109_12 C117_12 1_555 1_555
C109_12 C123_12 1_555 1_555
C112_12 C120_12 1_555 1_555
C112_12 C123_12 1_555 1_555
Dy18 O14_11 1_555 1_555
Dy18_20 O14_11 1_555 1_555
Dy12_5 O15_11 1_555 1_555
Dy18_12 O15_11 1_555 1_555
Dy11_7 O17_11 1_555 1_555
O14_11 C21_13 1_555 1_555
O15_11 C22_13 1_555 1_555
O6_6 C23_11 1_555 1_555
O17_11 Dy18_20 1_555 1_555
O29_11 Dy18 1_555 1_555
O30_11 Dy12_5 1_555 1_555
O32_11 Dy18_20 1_555 1_555
C16_13 O9_7 1_555 1_555
C17_11 O6_9 1_555 1_555
C21_13 O29_11 1_555 1_555
C22_13 O30_11 1_555 1_555
C23_11 O20_6 1_555 1_555
C24_11 O17_11 1_555 1_555
C27_13 C16_13 1_555 1_555
C28_11 C17_11 1_555 1_555
C32_13 C21_13 1_555 1_555
C33_13 C22_13 1_555 1_555
C34_11 C23_11 1_555 1_555
C35_11 C24_11 1_555 1_555
C38_13 C27_13 1_555 1_555
C39_11 C28_11 1_555 1_555
C43_13 C32_13 1_555 1_555
C44_13 C33_13 1_555 1_555
C45_11 C34_11 1_555 1_555
C46_11 C35_11 1_555 1_555
H14_13 C38_13 1_555 1_555
H15_11 C39_11 1_555 1_555
H19_13 C43_13 1_555 1_555
H20_13 C44_13 1_555 1_555
H21_11 C45_11 1_555 1_555
H22_11 C46_11 1_555 1_555
C51_13 C38_13 1_555 1_555
C52_11 C39_11 1_555 1_555
C54_13 C43_13 1_555 1_555
C55_13 C44_13 1_555 1_555
C56_11 C45_11 1_555 1_555
C57_11 C46_11 1_555 1_555
C62_13 C51_13 1_555 1_555
C63_11 C52_11 1_555 1_555
C65_13 C55_13 1_555 1_555
C66_11 C57_11 1_555 1_555
C68_13 C54_13 1_555 1_555
C69_11 C56_11 1_555 1_555
C73_13 C62_13 1_555 1_555
C74_11 C63_11 1_555 1_555
C76_13 C65_13 1_555 1_555
C77_11 C66_11 1_555 1_555
C79_13 C68_13 1_555 1_555
C80_11 C69_11 1_555 1_555
H27_13 C73_13 1_555 1_555
H28_11 C74_11 1_555 1_555
H30_13 C76_13 1_555 1_555
H31_11 C77_11 1_555 1_555
H33_13 C79_13 1_555 1_555
H34_11 C80_11 1_555 1_555
C82_13 C27_13 1_555 1_555
C83_11 C28_11 1_555 1_555
C87_13 C33_13 1_555 1_555
C88_11 C35_11 1_555 1_555
C90_13 C32_13 1_555 1_555
C91_11 C34_11 1_555 1_555
H36_13 C82_13 1_555 1_555
H37_11 C83_11 1_555 1_555
H41_13 C87_13 1_555 1_555
H42_11 C88_11 1_555 1_555
H44_13 C90_13 1_555 1_555
H45_11 C91_11 1_555 1_555
C95_13 C51_13 1_555 1_555
C96_11 C52_11 1_555 1_555
C98_13 C54_13 1_555 1_555
C99_11 C56_11 1_555 1_555
C101_13 C55_13 1_555 1_555
C102_11 C57_11 1_555 1_555
C106_13 C95_13 1_555 1_555
C107_11 C96_11 1_555 1_555
C109_13 C98_13 1_555 1_555
C110_11 C99_11 1_555 1_555
C112_13 C101_13 1_555 1_555
C113_11 C102_11 1_555 1_555
C117_13 C62_13 1_555 1_555
C118_11 C63_11 1_555 1_555
C120_13 C65_13 1_555 1_555
C121_11 C66_11 1_555 1_555
C123_13 C68_13 1_555 1_555
C124_11 C69_11 1_555 1_555
C128_13 C95_13 1_555 1_555
C129_11 C96_11 1_555 1_555
C131_13 C98_13 1_555 1_555
C132_11 C99_11 1_555 1_555
C134_13 C101_13 1_555 1_555
C135_11 C102_11 1_555 1_555
H49_13 C128_13 1_555 1_555
H50_11 C129_11 1_555 1_555
H52_13 C131_13 1_555 1_555
H53_11 C132_11 1_555 1_555
H55_13 C134_13 1_555 1_555
H56_11 C135_11 1_555 1_555
H60_13 C128_13 1_555 1_555
H61_11 C129_11 1_555 1_555
H63_13 C131_13 1_555 1_555
H64_11 C132_11 1_555 1_555
H66_13 C134_13 1_555 1_555
H67_11 C135_11 1_555 1_555
C139_13 C128_13 1_555 1_555
C140_11 C129_11 1_555 1_555
C142_13 C131_13 1_555 1_555
C143_11 C132_11 1_555 1_555
C145_13 C134_13 1_555 1_555
C146_11 C135_11 1_555 1_555
H71_13 C139_13 1_555 1_555
H72_11 C140_11 1_555 1_555
H74_13 C142_13 1_555 1_555
H75_11 C143_11 1_555 1_555
H77_13 C145_13 1_555 1_555
H78_11 C146_11 1_555 1_555
H82_13 C139_13 1_555 1_555
H83_11 C140_11 1_555 1_555
H85_13 C142_13 1_555 1_555
H86_11 C143_11 1_555 1_555
H88_13 C145_13 1_555 1_555
H89_11 C146_11 1_555 1_555
H93_13 C139_13 1_555 1_555
H94_11 C140_11 1_555 1_555
H96_13 C142_13 1_555 1_555
H97_11 C143_11 1_555 1_555
H99_13 C145_13 1_555 1_555
H100_11 C146_11 1_555 1_555
C150_13 C95_13 1_555 1_555
C151_11 C96_11 1_555 1_555
C153_13 C98_13 1_555 1_555
C154_11 C99_11 1_555 1_555
C156_13 C101_13 1_555 1_555
C157_11 C102_11 1_555 1_555
H104_13 C150_13 1_555 1_555
H105_11 C151_11 1_555 1_555
H107_13 C153_13 1_555 1_555
H108_11 C154_11 1_555 1_555
H110_13 C156_13 1_555 1_555
H111_11 C157_11 1_555 1_555
H115_13 C150_13 1_555 1_555
H116_11 C151_11 1_555 1_555
H118_13 C153_13 1_555 1_555
H119_11 C154_11 1_555 1_555
H121_13 C156_13 1_555 1_555
H122_11 C157_11 1_555 1_555
C161_13 C150_13 1_555 1_555
C162_11 C151_11 1_555 1_555
C164_13 C153_13 1_555 1_555
C165_11 C154_11 1_555 1_555
C167_13 C156_13 1_555 1_555
C168_11 C157_11 1_555 1_555
H126_13 C161_13 1_555 1_555
H127_11 C162_11 1_555 1_555
H129_13 C164_13 1_555 1_555
H130_11 C165_11 1_555 1_555
H132_13 C167_13 1_555 1_555
H133_11 C168_11 1_555 1_555
H137_13 C161_13 1_555 1_555
H138_11 C162_11 1_555 1_555
H140_13 C164_13 1_555 1_555
H141_11 C165_11 1_555 1_555
H143_13 C167_13 1_555 1_555
H144_11 C168_11 1_555 1_555
H148_13 C161_13 1_555 1_555
H149_11 C162_11 1_555 1_555
H151_13 C164_13 1_555 1_555
H152_11 C165_11 1_555 1_555
H154_13 C167_13 1_555 1_555
H155_11 C168_11 1_555 1_555
O22_7 C16_13 1_555 1_555
O20_9 C17_11 1_555 1_555
O32_11 C24_11 1_555 1_555
C73_13 C82_13 1_555 1_555
C74_11 C83_11 1_555 1_555
C76_13 C87_13 1_555 1_555
C77_11 C88_11 1_555 1_555
C79_13 C90_13 1_555 1_555
C80_11 C91_11 1_555 1_555
C106_13 C117_13 1_555 1_555
C106_13 C120_13 1_555 1_555
C107_11 C118_11 1_555 1_555
C107_11 C121_11 1_555 1_555
C109_13 C117_13 1_555 1_555
C109_13 C123_13 1_555 1_555
C110_11 C118_11 1_555 1_555
C110_11 C124_11 1_555 1_555
C112_13 C120_13 1_555 1_555
C112_13 C123_13 1_555 1_555
C113_11 C121_11 1_555 1_555
C113_11 C124_11 1_555 1_555
O3_22 Dy17_2 1_555 1_555
O4_22 Dy17_2 1_555 1_555
C15_22 O4_22 1_555 1_555
Dy11_9 O3_22 1_555 1_555
Dy4_9 O3_22 1_555 1_555
Dy11_8 O19_16 1_555 1_555
Dy17_3 O19_16 1_555 1_555
O6_14 Dy17_2 1_555 1_555
O8_14 Dy18_2 1_555 1_555
O9_9 Dy18_2 1_555 1_555
O10_11 Dy11_9 1_555 1_555
O11_16 Dy11_9 1_555 1_555
O6_4 C23_12 1_555 1_555
O19_16 C26_16 1_555 1_555
O20_14 Dy17_2 1_555 1_555
O21_14 Dy18_2 1_555 1_555
O22_9 Dy18_2 1_555 1_555
O25_11 Dy4_9 1_555 1_555
O26_16 Dy4_9 1_555 1_555
O34_16 Dy11_8 1_555 1_555
C17_12 O10_11 1_555 1_555
C18_16 O8_14 1_555 1_555
C23_12 O20_4 1_555 1_555
C24_12 O6_11 1_555 1_555
C25_16 O11_3 1_555 1_555
C26_16 O34_16 1_555 1_555
C28_12 C17_12 1_555 1_555
C29_16 C18_16 1_555 1_555
C34_12 C23_12 1_555 1_555
C35_12 C24_12 1_555 1_555
C36_16 C25_16 1_555 1_555
C37_16 C26_16 1_555 1_555
C39_12 C28_12 1_555 1_555
C40_16 C29_16 1_555 1_555
C45_12 C34_12 1_555 1_555
C46_12 C35_12 1_555 1_555
C47_16 C36_16 1_555 1_555
C48_16 C37_16 1_555 1_555
H15_12 C39_12 1_555 1_555
H16_16 C40_16 1_555 1_555
H21_12 C45_12 1_555 1_555
H22_12 C46_12 1_555 1_555
H23_16 C47_16 1_555 1_555
H24_16 C48_16 1_555 1_555
C52_12 C39_12 1_555 1_555
C53_16 C40_16 1_555 1_555
C56_12 C45_12 1_555 1_555
C57_12 C46_12 1_555 1_555
C58_16 C47_16 1_555 1_555
C59_16 C48_16 1_555 1_555
C63_12 C52_12 1_555 1_555
C64_16 C53_16 1_555 1_555
C66_12 C57_12 1_555 1_555
C67_16 C59_16 1_555 1_555
C69_12 C56_12 1_555 1_555
C70_16 C58_16 1_555 1_555
C74_12 C63_12 1_555 1_555
C75_16 C64_16 1_555 1_555
C77_12 C66_12 1_555 1_555
C78_16 C67_16 1_555 1_555
C80_12 C69_12 1_555 1_555
C81_16 C70_16 1_555 1_555
H28_12 C74_12 1_555 1_555
H29_16 C75_16 1_555 1_555
H31_12 C77_12 1_555 1_555
H32_16 C78_16 1_555 1_555
H34_12 C80_12 1_555 1_555
H35_16 C81_16 1_555 1_555
C83_12 C28_12 1_555 1_555
C84_16 C29_16 1_555 1_555
C88_12 C35_12 1_555 1_555
C89_16 C37_16 1_555 1_555
C91_12 C34_12 1_555 1_555
C92_16 C36_16 1_555 1_555
H37_12 C83_12 1_555 1_555
H38_16 C84_16 1_555 1_555
H42_12 C88_12 1_555 1_555
H43_16 C89_16 1_555 1_555
H45_12 C91_12 1_555 1_555
H46_16 C92_16 1_555 1_555
C96_12 C52_12 1_555 1_555
C97_16 C53_16 1_555 1_555
C99_12 C56_12 1_555 1_555
C100_16 C58_16 1_555 1_555
C102_12 C57_12 1_555 1_555
C103_16 C59_16 1_555 1_555
C107_12 C96_12 1_555 1_555
C108_16 C97_16 1_555 1_555
C110_12 C99_12 1_555 1_555
C111_16 C100_16 1_555 1_555
C113_12 C102_12 1_555 1_555
C114_16 C103_16 1_555 1_555
C118_12 C63_12 1_555 1_555
C119_16 C64_16 1_555 1_555
C121_12 C66_12 1_555 1_555
C122_16 C67_16 1_555 1_555
C124_12 C69_12 1_555 1_555
C125_16 C70_16 1_555 1_555
C129_12 C96_12 1_555 1_555
C130_16 C97_16 1_555 1_555
C132_12 C99_12 1_555 1_555
C133_16 C100_16 1_555 1_555
C135_12 C102_12 1_555 1_555
C136_16 C103_16 1_555 1_555
H50_12 C129_12 1_555 1_555
H51_16 C130_16 1_555 1_555
H53_12 C132_12 1_555 1_555
H54_16 C133_16 1_555 1_555
H56_12 C135_12 1_555 1_555
H57_16 C136_16 1_555 1_555
H61_12 C129_12 1_555 1_555
H62_16 C130_16 1_555 1_555
H64_12 C132_12 1_555 1_555
H65_16 C133_16 1_555 1_555
H67_12 C135_12 1_555 1_555
H68_16 C136_16 1_555 1_555
C140_12 C129_12 1_555 1_555
C141_16 C130_16 1_555 1_555
C143_12 C132_12 1_555 1_555
C144_16 C133_16 1_555 1_555
C146_12 C135_12 1_555 1_555
C147_16 C136_16 1_555 1_555
H72_12 C140_12 1_555 1_555
H73_16 C141_16 1_555 1_555
H75_12 C143_12 1_555 1_555
H76_16 C144_16 1_555 1_555
H78_12 C146_12 1_555 1_555
H79_16 C147_16 1_555 1_555
H83_12 C140_12 1_555 1_555
H84_16 C141_16 1_555 1_555
H86_12 C143_12 1_555 1_555
H87_16 C144_16 1_555 1_555
H89_12 C146_12 1_555 1_555
H90_16 C147_16 1_555 1_555
H94_12 C140_12 1_555 1_555
H95_16 C141_16 1_555 1_555
H97_12 C143_12 1_555 1_555
H98_16 C144_16 1_555 1_555
H100_12 C146_12 1_555 1_555
H101_16 C147_16 1_555 1_555
C151_12 C96_12 1_555 1_555
C152_16 C97_16 1_555 1_555
C154_12 C99_12 1_555 1_555
C155_16 C100_16 1_555 1_555
C157_12 C102_12 1_555 1_555
C158_16 C103_16 1_555 1_555
H105_12 C151_12 1_555 1_555
H106_16 C152_16 1_555 1_555
H108_12 C154_12 1_555 1_555
H109_16 C155_16 1_555 1_555
H111_12 C157_12 1_555 1_555
H112_16 C158_16 1_555 1_555
H116_12 C151_12 1_555 1_555
H117_16 C152_16 1_555 1_555
H119_12 C154_12 1_555 1_555
H120_16 C155_16 1_555 1_555
H122_12 C157_12 1_555 1_555
H123_16 C158_16 1_555 1_555
C162_12 C151_12 1_555 1_555
C163_16 C152_16 1_555 1_555
C165_12 C154_12 1_555 1_555
C166_16 C155_16 1_555 1_555
C168_12 C157_12 1_555 1_555
C169_16 C158_16 1_555 1_555
H127_12 C162_12 1_555 1_555
H128_16 C163_16 1_555 1_555
H130_12 C165_12 1_555 1_555
H131_16 C166_16 1_555 1_555
H133_12 C168_12 1_555 1_555
H134_16 C169_16 1_555 1_555
H138_12 C162_12 1_555 1_555
H139_16 C163_16 1_555 1_555
H141_12 C165_12 1_555 1_555
H142_16 C166_16 1_555 1_555
H144_12 C168_12 1_555 1_555
H145_16 C169_16 1_555 1_555
H149_12 C162_12 1_555 1_555
H150_16 C163_16 1_555 1_555
H152_12 C165_12 1_555 1_555
H153_16 C166_16 1_555 1_555
H155_12 C168_12 1_555 1_555
H156_16 C169_16 1_555 1_555
O35_22 Dy18_2 1_555 1_555
O36_22 Dy11_9 1_555 1_555
O37_22 Dy4_9 1_555 1_555
C170_22 O35_22 1_555 1_555
C171_22 O37_22 1_555 1_555
C172_22 O36_22 1_555 1_555
O3_22 Dy18_2 1_555 1_555
Dy18_2 O6_14 1_555 1_555
Dy4_9 O8_14 1_555 1_555
Dy4_9 O9_9 1_555 1_555
Dy4_9 O10_11 1_555 1_555
Dy4_9 O11_16 1_555 1_555
O21_14 C18_16 1_555 1_555
O25_11 C17_12 1_555 1_555
O20_11 C24_12 1_555 1_555
O26_3 C25_16 1_555 1_555
C74_12 C83_12 1_555 1_555
C75_16 C84_16 1_555 1_555
C77_12 C88_12 1_555 1_555
C78_16 C89_16 1_555 1_555
C80_12 C91_12 1_555 1_555
C81_16 C92_16 1_555 1_555
C107_12 C118_12 1_555 1_555
C107_12 C121_12 1_555 1_555
C108_16 C119_16 1_555 1_555
C108_16 C122_16 1_555 1_555
C110_12 C118_12 1_555 1_555
C110_12 C124_12 1_555 1_555
C111_16 C119_16 1_555 1_555
C111_16 C125_16 1_555 1_555
C113_12 C121_12 1_555 1_555
C113_12 C124_12 1_555 1_555
C114_16 C122_16 1_555 1_555
C114_16 C125_16 1_555 1_555
C170_22 H157_16 1_555 1_555
C170_22 H158_22 1_555 1_555
C170_22 H159_16 1_555 1_555
C171_22 H160_16 1_555 1_555
C171_22 H161_22 1_555 1_555
C171_22 H162_16 1_555 1_555
C172_22 H163_16 1_555 1_555
C172_22 H164_22 1_555 1_555
C172_22 H165_16 1_555 1_555
C15_22 H166_16 1_555 1_555
C15_22 H167_22 1_555 1_555
C15_22 H168_16 1_555 1_555
O3_23 Dy18_6 1_555 1_555
O4_23 Dy18_6 1_555 1_555
C15_23 O4_23 1_555 1_555
Dy12 O3_23 1_555 1_555
Dy11 O3_23 1_555 1_555
O6_15 Dy18_6 1_555 1_555
O7_11 Dy18_6 1_555 1_555
O9_4 C21_14 1_555 1_555
O9_9 C22_14 1_555 1_555
O20_15 Dy18_6 1_555 1_555
O24_11 Dy12 1_555 1_555
C16_14 O7_11 1_555 1_555
C21_14 O22_4 1_555 1_555
C22_14 O22_9 1_555 1_555
C27_14 C16_14 1_555 1_555
C32_14 C21_14 1_555 1_555
C33_14 C22_14 1_555 1_555
C38_14 C27_14 1_555 1_555
C43_14 C32_14 1_555 1_555
C44_14 C33_14 1_555 1_555
H14_14 C38_14 1_555 1_555
H19_14 C43_14 1_555 1_555
H20_14 C44_14 1_555 1_555
C51_14 C38_14 1_555 1_555
C54_14 C43_14 1_555 1_555
C55_14 C44_14 1_555 1_555
C62_14 C51_14 1_555 1_555
C65_14 C55_14 1_555 1_555
C68_14 C54_14 1_555 1_555
C73_14 C62_14 1_555 1_555
C76_14 C65_14 1_555 1_555
C79_14 C68_14 1_555 1_555
H27_14 C73_14 1_555 1_555
H30_14 C76_14 1_555 1_555
H33_14 C79_14 1_555 1_555
C82_14 C27_14 1_555 1_555
C87_14 C33_14 1_555 1_555
C90_14 C32_14 1_555 1_555
H36_14 C82_14 1_555 1_555
H41_14 C87_14 1_555 1_555
H44_14 C90_14 1_555 1_555
C95_14 C51_14 1_555 1_555
C98_14 C54_14 1_555 1_555
C101_14 C55_14 1_555 1_555
C106_14 C95_14 1_555 1_555
C109_14 C98_14 1_555 1_555
C112_14 C101_14 1_555 1_555
C117_14 C62_14 1_555 1_555
C120_14 C65_14 1_555 1_555
C123_14 C68_14 1_555 1_555
C128_14 C95_14 1_555 1_555
C131_14 C98_14 1_555 1_555
C134_14 C101_14 1_555 1_555
H49_14 C128_14 1_555 1_555
H52_14 C131_14 1_555 1_555
H55_14 C134_14 1_555 1_555
H60_14 C128_14 1_555 1_555
H63_14 C131_14 1_555 1_555
H66_14 C134_14 1_555 1_555
C139_14 C128_14 1_555 1_555
C142_14 C131_14 1_555 1_555
C145_14 C134_14 1_555 1_555
H71_14 C139_14 1_555 1_555
H74_14 C142_14 1_555 1_555
H77_14 C145_14 1_555 1_555
H82_14 C139_14 1_555 1_555
H85_14 C142_14 1_555 1_555
H88_14 C145_14 1_555 1_555
H93_14 C139_14 1_555 1_555
H96_14 C142_14 1_555 1_555
H99_14 C145_14 1_555 1_555
C150_14 C95_14 1_555 1_555
C153_14 C98_14 1_555 1_555
C156_14 C101_14 1_555 1_555
H104_14 C150_14 1_555 1_555
H107_14 C153_14 1_555 1_555
H110_14 C156_14 1_555 1_555
H115_14 C150_14 1_555 1_555
H118_14 C153_14 1_555 1_555
H121_14 C156_14 1_555 1_555
C161_14 C150_14 1_555 1_555
C164_14 C153_14 1_555 1_555
C167_14 C156_14 1_555 1_555
H126_14 C161_14 1_555 1_555
H129_14 C164_14 1_555 1_555
H132_14 C167_14 1_555 1_555
H137_14 C161_14 1_555 1_555
H140_14 C164_14 1_555 1_555
H143_14 C167_14 1_555 1_555
H148_14 C161_14 1_555 1_555
H151_14 C164_14 1_555 1_555
H154_14 C167_14 1_555 1_555
O35_23 Dy8_5 1_555 1_555
O36_23 Dy12 1_555 1_555
O37_23 Dy11 1_555 1_555
C170_23 O35_23 1_555 1_555
C171_23 O37_23 1_555 1_555
C172_23 O36_23 1_555 1_555
O3_23 Dy8_5 1_555 1_555
Dy8_5 O6_15 1_555 1_555
Dy12 O7_11 1_555 1_555
O24_11 C16_14 1_555 1_555
C73_14 C82_14 1_555 1_555
C76_14 C87_14 1_555 1_555
C79_14 C90_14 1_555 1_555
C106_14 C117_14 1_555 1_555
C106_14 C120_14 1_555 1_555
C109_14 C117_14 1_555 1_555
C109_14 C123_14 1_555 1_555
C112_14 C120_14 1_555 1_555
C112_14 C123_14 1_555 1_555
C170_23 H158_23 1_555 1_555
C170_23 H159_17 1_555 1_555
C171_23 H161_23 1_555 1_555
C171_23 H162_17 1_555 1_555
C172_23 H164_23 1_555 1_555
C172_23 H165_17 1_555 1_555
C15_23 H167_23 1_555 1_555
C15_23 H168_17 1_555 1_555
O3_24 Dy18_7 1_555 1_555
O4_24 Dy18_7 1_555 1_555
C15_24 O4_24 1_555 1_555
Dy12_2 O3_24 1_555 1_555
Dy11_2 O3_24 1_555 1_555
Dy15_7 O19_17 1_555 1_555
Dy18_22 O19_17 1_555 1_555
O8_15 Dy8_6 1_555 1_555
O11_17 Dy12_2 1_555 1_555
O19_17 C26_17 1_555 1_555
O21_15 Dy8_6 1_555 1_555
O26_17 Dy11_2 1_555 1_555
O34_17 Dy15_7 1_555 1_555
C18_17 O8_15 1_555 1_555
C25_17 O5_6 1_555 1_555
C26_17 O34_17 1_555 1_555
C29_17 C18_17 1_555 1_555
C36_17 C25_17 1_555 1_555
C37_17 C26_17 1_555 1_555
C40_17 C29_17 1_555 1_555
C47_17 C36_17 1_555 1_555
C48_17 C37_17 1_555 1_555
H16_17 C40_17 1_555 1_555
H23_17 C47_17 1_555 1_555
H24_17 C48_17 1_555 1_555
C53_17 C40_17 1_555 1_555
C58_17 C47_17 1_555 1_555
C59_17 C48_17 1_555 1_555
C64_17 C53_17 1_555 1_555
C67_17 C59_17 1_555 1_555
C70_17 C58_17 1_555 1_555
C75_17 C64_17 1_555 1_555
C78_17 C67_17 1_555 1_555
C81_17 C70_17 1_555 1_555
H29_17 C75_17 1_555 1_555
H32_17 C78_17 1_555 1_555
H35_17 C81_17 1_555 1_555
C84_17 C29_17 1_555 1_555
C89_17 C37_17 1_555 1_555
C92_17 C36_17 1_555 1_555
H38_17 C84_17 1_555 1_555
H43_17 C89_17 1_555 1_555
H46_17 C92_17 1_555 1_555
C97_17 C53_17 1_555 1_555
C100_17 C58_17 1_555 1_555
C103_17 C59_17 1_555 1_555
C108_17 C97_17 1_555 1_555
C111_17 C100_17 1_555 1_555
C114_17 C103_17 1_555 1_555
C119_17 C64_17 1_555 1_555
C122_17 C67_17 1_555 1_555
C125_17 C70_17 1_555 1_555
C130_17 C97_17 1_555 1_555
C133_17 C100_17 1_555 1_555
C136_17 C103_17 1_555 1_555
H51_17 C130_17 1_555 1_555
H54_17 C133_17 1_555 1_555
H57_17 C136_17 1_555 1_555
H62_17 C130_17 1_555 1_555
H65_17 C133_17 1_555 1_555
H68_17 C136_17 1_555 1_555
C141_17 C130_17 1_555 1_555
C144_17 C133_17 1_555 1_555
C147_17 C136_17 1_555 1_555
H73_17 C141_17 1_555 1_555
H76_17 C144_17 1_555 1_555
H79_17 C147_17 1_555 1_555
H84_17 C141_17 1_555 1_555
H87_17 C144_17 1_555 1_555
H90_17 C147_17 1_555 1_555
H95_17 C141_17 1_555 1_555
H98_17 C144_17 1_555 1_555
H101_17 C147_17 1_555 1_555
C152_17 C97_17 1_555 1_555
C155_17 C100_17 1_555 1_555
C158_17 C103_17 1_555 1_555
H106_17 C152_17 1_555 1_555
H109_17 C155_17 1_555 1_555
H112_17 C158_17 1_555 1_555
H117_17 C152_17 1_555 1_555
H120_17 C155_17 1_555 1_555
H123_17 C158_17 1_555 1_555
C163_17 C152_17 1_555 1_555
C166_17 C155_17 1_555 1_555
C169_17 C158_17 1_555 1_555
H128_17 C163_17 1_555 1_555
H131_17 C166_17 1_555 1_555
H134_17 C169_17 1_555 1_555
H139_17 C163_17 1_555 1_555
H142_17 C166_17 1_555 1_555
H145_17 C169_17 1_555 1_555
H150_17 C163_17 1_555 1_555
H153_17 C166_17 1_555 1_555
H156_17 C169_17 1_555 1_555
O35_24 Dy8_6 1_555 1_555
O36_24 Dy12_2 1_555 1_555
O37_24 Dy11_2 1_555 1_555
C170_24 O35_24 1_555 1_555
C171_24 O37_24 1_555 1_555
C172_24 O36_24 1_555 1_555
O3_24 Dy8_6 1_555 1_555
Dy11_2 O8_15 1_555 1_555
Dy11_2 O11_17 1_555 1_555
O21_15 C18_17 1_555 1_555
O23_6 C25_17 1_555 1_555
C75_17 C84_17 1_555 1_555
C78_17 C89_17 1_555 1_555
C81_17 C92_17 1_555 1_555
C108_17 C119_17 1_555 1_555
C108_17 C122_17 1_555 1_555
C111_17 C119_17 1_555 1_555
C111_17 C125_17 1_555 1_555
C114_17 C122_17 1_555 1_555
C114_17 C125_17 1_555 1_555
C170_24 H157_17 1_555 1_555
C170_24 H158_24 1_555 1_555
C171_24 H160_17 1_555 1_555
C171_24 H161_24 1_555 1_555
C172_24 H163_17 1_555 1_555
C172_24 H164_24 1_555 1_555
C15_24 H166_17 1_555 1_555
C15_24 H167_24 1_555 1_555
O3_25 Dy18_4 1_555 1_555
O4_25 Dy18_4 1_555 1_555
C15_25 O4_25 1_555 1_555
Dy17_4 O3_25 1_555 1_555
Dy13_4 O3_25 1_555 1_555
Dy9_9 O19_18 1_555 1_555
Dy11_4 O19_18 1_555 1_555
O8_16 Dy15_10 1_555 1_555
O11_18 Dy17_4 1_555 1_555
O19_18 C26_18 1_555 1_555
O21_16 Dy15_10 1_555 1_555
O26_18 Dy13_4 1_555 1_555
O34_18 Dy9_9 1_555 1_555
C18_18 O8_16 1_555 1_555
C25_18 O5_7 1_555 1_555
C26_18 O34_18 1_555 1_555
C29_18 C18_18 1_555 1_555
C36_18 C25_18 1_555 1_555
C37_18 C26_18 1_555 1_555
C40_18 C29_18 1_555 1_555
C47_18 C36_18 1_555 1_555
C48_18 C37_18 1_555 1_555
H16_18 C40_18 1_555 1_555
H23_18 C47_18 1_555 1_555
H24_18 C48_18 1_555 1_555
C53_18 C40_18 1_555 1_555
C58_18 C47_18 1_555 1_555
C59_18 C48_18 1_555 1_555
C64_18 C53_18 1_555 1_555
C67_18 C59_18 1_555 1_555
C70_18 C58_18 1_555 1_555
C75_18 C64_18 1_555 1_555
C78_18 C67_18 1_555 1_555
C81_18 C70_18 1_555 1_555
H29_18 C75_18 1_555 1_555
H32_18 C78_18 1_555 1_555
H35_18 C81_18 1_555 1_555
C84_18 C29_18 1_555 1_555
C89_18 C37_18 1_555 1_555
C92_18 C36_18 1_555 1_555
H38_18 C84_18 1_555 1_555
H43_18 C89_18 1_555 1_555
H46_18 C92_18 1_555 1_555
C97_18 C53_18 1_555 1_555
C100_18 C58_18 1_555 1_555
C103_18 C59_18 1_555 1_555
C108_18 C97_18 1_555 1_555
C111_18 C100_18 1_555 1_555
C114_18 C103_18 1_555 1_555
C119_18 C64_18 1_555 1_555
C122_18 C67_18 1_555 1_555
C125_18 C70_18 1_555 1_555
C130_18 C97_18 1_555 1_555
C133_18 C100_18 1_555 1_555
C136_18 C103_18 1_555 1_555
H51_18 C130_18 1_555 1_555
H54_18 C133_18 1_555 1_555
H57_18 C136_18 1_555 1_555
H62_18 C130_18 1_555 1_555
H65_18 C133_18 1_555 1_555
H68_18 C136_18 1_555 1_555
C141_18 C130_18 1_555 1_555
C144_18 C133_18 1_555 1_555
C147_18 C136_18 1_555 1_555
H73_18 C141_18 1_555 1_555
H76_18 C144_18 1_555 1_555
H79_18 C147_18 1_555 1_555
H84_18 C141_18 1_555 1_555
H87_18 C144_18 1_555 1_555
H90_18 C147_18 1_555 1_555
H95_18 C141_18 1_555 1_555
H98_18 C144_18 1_555 1_555
H101_18 C147_18 1_555 1_555
C152_18 C97_18 1_555 1_555
C155_18 C100_18 1_555 1_555
C158_18 C103_18 1_555 1_555
H106_18 C152_18 1_555 1_555
H109_18 C155_18 1_555 1_555
H112_18 C158_18 1_555 1_555
H117_18 C152_18 1_555 1_555
H120_18 C155_18 1_555 1_555
H123_18 C158_18 1_555 1_555
C163_18 C152_18 1_555 1_555
C166_18 C155_18 1_555 1_555
C169_18 C158_18 1_555 1_555
H128_18 C163_18 1_555 1_555
H131_18 C166_18 1_555 1_555
H134_18 C169_18 1_555 1_555
H139_18 C163_18 1_555 1_555
H142_18 C166_18 1_555 1_555
H145_18 C169_18 1_555 1_555
H150_18 C163_18 1_555 1_555
H153_18 C166_18 1_555 1_555
H156_18 C169_18 1_555 1_555
O35_25 Dy15_10 1_555 1_555
O36_25 Dy17_4 1_555 1_555
O37_25 Dy13_4 1_555 1_555
C170_25 O35_25 1_555 1_555
C171_25 O37_25 1_555 1_555
C172_25 O36_25 1_555 1_555
O3_25 Dy15_10 1_555 1_555
Dy13_4 O8_16 1_555 1_555
Dy13_4 O11_18 1_555 1_555
O21_16 C18_18 1_555 1_555
O23_7 C25_18 1_555 1_555
C75_18 C84_18 1_555 1_555
C78_18 C89_18 1_555 1_555
C81_18 C92_18 1_555 1_555
C108_18 C119_18 1_555 1_555
C108_18 C122_18 1_555 1_555
C111_18 C119_18 1_555 1_555
C111_18 C125_18 1_555 1_555
C114_18 C122_18 1_555 1_555
C114_18 C125_18 1_555 1_555
C170_25 H157_18 1_555 1_555
C170_25 H158_25 1_555 1_555
C171_25 H160_18 1_555 1_555
C171_25 H161_25 1_555 1_555
C172_25 H163_18 1_555 1_555
C172_25 H164_25 1_555 1_555
C15_25 H166_18 1_555 1_555
C15_25 H167_25 1_555 1_555
O3_26 Dy18_5 1_555 1_555
O4_26 Dy18_5 1_555 1_555
C15_26 O4_26 1_555 1_555
Dy17_5 O3_26 1_555 1_555
Dy13_5 O3_26 1_555 1_555
O35_26 Dy15_11 1_555 1_555
O36_26 Dy17_5 1_555 1_555
O37_26 Dy13_5 1_555 1_555
C170_26 O35_26 1_555 1_555
C171_26 O37_26 1_555 1_555
C172_26 O36_26 1_555 1_555
O3_26 Dy15_11 1_555 1_555
C170_26 H158_26 1_555 1_555
C170_26 H159_18 1_555 1_555
C171_26 H161_26 1_555 1_555
C171_26 H162_18 1_555 1_555
C172_26 H164_26 1_555 1_555
C172_26 H165_18 1_555 1_555
C15_26 H167_26 1_555 1_555
C15_26 H168_18 1_555 1_555
Dy18_22 O19_19 1_555 1_555
Dy9_7 O19_19 1_555 1_555
O19_19 C26_19 1_555 1_555
O34_19 Dy18_22 1_555 1_555
C18_19 O11_14 1_555 1_555
C25_19 O11_11 1_555 1_555
C26_19 O34_19 1_555 1_555
C29_19 C18_19 1_555 1_555
C36_19 C25_19 1_555 1_555
C37_19 C26_19 1_555 1_555
C40_19 C29_19 1_555 1_555
C47_19 C36_19 1_555 1_555
C48_19 C37_19 1_555 1_555
H16_19 C40_19 1_555 1_555
H23_19 C47_19 1_555 1_555
H24_19 C48_19 1_555 1_555
C53_19 C40_19 1_555 1_555
C58_19 C47_19 1_555 1_555
C59_19 C48_19 1_555 1_555
C64_19 C53_19 1_555 1_555
C67_19 C59_19 1_555 1_555
C70_19 C58_19 1_555 1_555
C75_19 C64_19 1_555 1_555
C78_19 C67_19 1_555 1_555
C81_19 C70_19 1_555 1_555
H29_19 C75_19 1_555 1_555
H32_19 C78_19 1_555 1_555
H35_19 C81_19 1_555 1_555
C84_19 C29_19 1_555 1_555
C89_19 C37_19 1_555 1_555
C92_19 C36_19 1_555 1_555
H38_19 C84_19 1_555 1_555
H43_19 C89_19 1_555 1_555
H46_19 C92_19 1_555 1_555
C97_19 C53_19 1_555 1_555
C100_19 C58_19 1_555 1_555
C103_19 C59_19 1_555 1_555
C108_19 C97_19 1_555 1_555
C111_19 C100_19 1_555 1_555
C114_19 C103_19 1_555 1_555
C119_19 C64_19 1_555 1_555
C122_19 C67_19 1_555 1_555
C125_19 C70_19 1_555 1_555
C130_19 C97_19 1_555 1_555
C133_19 C100_19 1_555 1_555
C136_19 C103_19 1_555 1_555
H51_19 C130_19 1_555 1_555
H54_19 C133_19 1_555 1_555
H57_19 C136_19 1_555 1_555
H62_19 C130_19 1_555 1_555
H65_19 C133_19 1_555 1_555
H68_19 C136_19 1_555 1_555
C141_19 C130_19 1_555 1_555
C144_19 C133_19 1_555 1_555
C147_19 C136_19 1_555 1_555
H73_19 C141_19 1_555 1_555
H76_19 C144_19 1_555 1_555
H79_19 C147_19 1_555 1_555
H84_19 C141_19 1_555 1_555
H87_19 C144_19 1_555 1_555
H90_19 C147_19 1_555 1_555
H95_19 C141_19 1_555 1_555
H98_19 C144_19 1_555 1_555
H101_19 C147_19 1_555 1_555
C152_19 C97_19 1_555 1_555
C155_19 C100_19 1_555 1_555
C158_19 C103_19 1_555 1_555
H106_19 C152_19 1_555 1_555
H109_19 C155_19 1_555 1_555
H112_19 C158_19 1_555 1_555
H117_19 C152_19 1_555 1_555
H120_19 C155_19 1_555 1_555
H123_19 C158_19 1_555 1_555
C163_19 C152_19 1_555 1_555
C166_19 C155_19 1_555 1_555
C169_19 C158_19 1_555 1_555
H128_19 C163_19 1_555 1_555
H131_19 C166_19 1_555 1_555
H134_19 C169_19 1_555 1_555
H139_19 C163_19 1_555 1_555
H142_19 C166_19 1_555 1_555
H145_19 C169_19 1_555 1_555
H150_19 C163_19 1_555 1_555
H153_19 C166_19 1_555 1_555
H156_19 C169_19 1_555 1_555
O26_14 C18_19 1_555 1_555
O26_11 C25_19 1_555 1_555
C75_19 C84_19 1_555 1_555
C78_19 C89_19 1_555 1_555
C81_19 C92_19 1_555 1_555
C108_19 C119_19 1_555 1_555
C108_19 C122_19 1_555 1_555
C111_19 C119_19 1_555 1_555
C111_19 C125_19 1_555 1_555
C114_19 C122_19 1_555 1_555
C114_19 C125_19 1_555 1_555
O3_27 Dy17_3 1_555 1_555
O4_27 Dy17_3 1_555 1_555
C15_27 O4_27 1_555 1_555
Dy11_8 O3_27 1_555 1_555
Dy11_10 O3_27 1_555 1_555
Dy11_7 O19_20 1_555 1_555
Dy17 O19_20 1_555 1_555
O6_16 Dy17_3 1_555 1_555
O8_17 Dy18_3 1_555 1_555
O9_10 Dy18_3 1_555 1_555
O11_19 Dy11_8 1_555 1_555
O19_20 C26_20 1_555 1_555
O20_16 Dy17_3 1_555 1_555
O21_17 Dy18_3 1_555 1_555
O22_10 Dy18_3 1_555 1_555
O26_19 Dy11_10 1_555 1_555
O34_20 Dy11_7 1_555 1_555
C18_20 O8_17 1_555 1_555
C25_20 O11 1_555 1_555
C26_20 O34_20 1_555 1_555
C29_20 C18_20 1_555 1_555
C36_20 C25_20 1_555 1_555
C37_20 C26_20 1_555 1_555
C40_20 C29_20 1_555 1_555
C47_20 C36_20 1_555 1_555
C48_20 C37_20 1_555 1_555
H16_20 C40_20 1_555 1_555
H23_20 C47_20 1_555 1_555
H24_20 C48_20 1_555 1_555
C53_20 C40_20 1_555 1_555
C58_20 C47_20 1_555 1_555
C59_20 C48_20 1_555 1_555
C64_20 C53_20 1_555 1_555
C67_20 C59_20 1_555 1_555
C70_20 C58_20 1_555 1_555
C75_20 C64_20 1_555 1_555
C78_20 C67_20 1_555 1_555
C81_20 C70_20 1_555 1_555
H29_20 C75_20 1_555 1_555
H32_20 C78_20 1_555 1_555
H35_20 C81_20 1_555 1_555
C84_20 C29_20 1_555 1_555
C89_20 C37_20 1_555 1_555
C92_20 C36_20 1_555 1_555
H38_20 C84_20 1_555 1_555
H43_20 C89_20 1_555 1_555
H46_20 C92_20 1_555 1_555
C97_20 C53_20 1_555 1_555
C100_20 C58_20 1_555 1_555
C103_20 C59_20 1_555 1_555
C108_20 C97_20 1_555 1_555
C111_20 C100_20 1_555 1_555
C114_20 C103_20 1_555 1_555
C119_20 C64_20 1_555 1_555
C122_20 C67_20 1_555 1_555
C125_20 C70_20 1_555 1_555
C130_20 C97_20 1_555 1_555
C133_20 C100_20 1_555 1_555
C136_20 C103_20 1_555 1_555
H51_20 C130_20 1_555 1_555
H54_20 C133_20 1_555 1_555
H57_20 C136_20 1_555 1_555
H62_20 C130_20 1_555 1_555
H65_20 C133_20 1_555 1_555
H68_20 C136_20 1_555 1_555
C141_20 C130_20 1_555 1_555
C144_20 C133_20 1_555 1_555
C147_20 C136_20 1_555 1_555
H73_20 C141_20 1_555 1_555
H76_20 C144_20 1_555 1_555
H79_20 C147_20 1_555 1_555
H84_20 C141_20 1_555 1_555
H87_20 C144_20 1_555 1_555
H90_20 C147_20 1_555 1_555
H95_20 C141_20 1_555 1_555
H98_20 C144_20 1_555 1_555
H101_20 C147_20 1_555 1_555
C152_20 C97_20 1_555 1_555
C155_20 C100_20 1_555 1_555
C158_20 C103_20 1_555 1_555
H106_20 C152_20 1_555 1_555
H109_20 C155_20 1_555 1_555
H112_20 C158_20 1_555 1_555
H117_20 C152_20 1_555 1_555
H120_20 C155_20 1_555 1_555
H123_20 C158_20 1_555 1_555
C163_20 C152_20 1_555 1_555
C166_20 C155_20 1_555 1_555
C169_20 C158_20 1_555 1_555
H128_20 C163_20 1_555 1_555
H131_20 C166_20 1_555 1_555
H134_20 C169_20 1_555 1_555
H139_20 C163_20 1_555 1_555
H142_20 C166_20 1_555 1_555
H145_20 C169_20 1_555 1_555
H150_20 C163_20 1_555 1_555
H153_20 C166_20 1_555 1_555
H156_20 C169_20 1_555 1_555
O35_27 Dy18_3 1_555 1_555
O36_27 Dy11_8 1_555 1_555
O37_27 Dy11_10 1_555 1_555
C170_27 O35_27 1_555 1_555
C171_27 O37_27 1_555 1_555
C172_27 O36_27 1_555 1_555
O3_27 Dy18_3 1_555 1_555
Dy18_3 O6_16 1_555 1_555
Dy11_10 O8_17 1_555 1_555
Dy11_10 O9_10 1_555 1_555
Dy11_10 O11_19 1_555 1_555
O21_17 C18_20 1_555 1_555
O26 C25_20 1_555 1_555
C75_20 C84_20 1_555 1_555
C78_20 C89_20 1_555 1_555
C81_20 C92_20 1_555 1_555
C108_20 C119_20 1_555 1_555
C108_20 C122_20 1_555 1_555
C111_20 C119_20 1_555 1_555
C111_20 C125_20 1_555 1_555
C114_20 C122_20 1_555 1_555
C114_20 C125_20 1_555 1_555
C170_27 H157_19 1_555 1_555
C170_27 H158_27 1_555 1_555
C170_27 H159_19 1_555 1_555
C171_27 H160_19 1_555 1_555
C171_27 H161_27 1_555 1_555
C171_27 H162_19 1_555 1_555
C172_27 H163_19 1_555 1_555
C172_27 H164_27 1_555 1_555
C172_27 H165_19 1_555 1_555
C15_27 H166_19 1_555 1_555
C15_27 H167_27 1_555 1_555
C15_27 H168_19 1_555 1_555
O11_4 C1_7 1_555 1_555
C1_7 O26_4 1_555 1_555
C2_7 C1_7 1_555 1_555
C3_7 C2_7 1_555 1_555
H1_7 C3_7 1_555 1_555
C4_7 C3_7 1_555 1_555
C5_7 C4_7 1_555 1_555
C6_7 C5_7 1_555 1_555
H2_7 C6_7 1_555 1_555
C7_7 C2_7 1_555 1_555
H3_7 C7_7 1_555 1_555
C8_7 C4_7 1_555 1_555
C9_7 C8_7 1_555 1_555
C10_7 C5_7 1_555 1_555
C11_7 C8_7 1_555 1_555
H4_7 C11_7 1_555 1_555
H5_7 C11_7 1_555 1_555
C12_7 C11_7 1_555 1_555
H6_7 C12_7 1_555 1_555
H7_7 C12_7 1_555 1_555
H8_7 C12_7 1_555 1_555
C13_7 C8_7 1_555 1_555
H9_7 C13_7 1_555 1_555
H10_7 C13_7 1_555 1_555
C14_7 C13_7 1_555 1_555
H11_7 C14_7 1_555 1_555
H12_7 C14_7 1_555 1_555
H13_7 C14_7 1_555 1_555
Dy18_17 O12_5 1_555 1_555
Dy9_9 O12_5 1_555 1_555
O12_5 C19_7 1_555 1_555
O11_18 C20_7 1_555 1_555
O27_5 Dy18_17 1_555 1_555
C19_7 O27_5 1_555 1_555
C20_7 O26_18 1_555 1_555
C30_7 C19_7 1_555 1_555
C31_7 C20_7 1_555 1_555
C41_7 C30_7 1_555 1_555
C42_7 C31_7 1_555 1_555
H17_7 C41_7 1_555 1_555
H18_7 C42_7 1_555 1_555
C49_7 C41_7 1_555 1_555
C50_7 C42_7 1_555 1_555
C60_7 C49_7 1_555 1_555
C61_7 C50_7 1_555 1_555
C71_7 C60_7 1_555 1_555
C72_7 C61_7 1_555 1_555
H25_7 C71_7 1_555 1_555
H26_7 C72_7 1_555 1_555
C85_7 C30_7 1_555 1_555
C86_7 C31_7 1_555 1_555
H39_7 C85_7 1_555 1_555
H40_7 C86_7 1_555 1_555
C93_7 C50_7 1_555 1_555
C94_7 C49_7 1_555 1_555
C104_7 C10_7 1_555 1_555
C105_7 C94_7 1_555 1_555
C115_7 C9_7 1_555 1_555
C116_7 C61_7 1_555 1_555
C126_7 C93_7 1_555 1_555
C127_7 C94_7 1_555 1_555
H47_7 C126_7 1_555 1_555
H48_7 C127_7 1_555 1_555
H58_7 C126_7 1_555 1_555
H59_7 C127_7 1_555 1_555
C137_7 C126_7 1_555 1_555
C138_7 C127_7 1_555 1_555
H69_7 C137_7 1_555 1_555
H70_7 C138_7 1_555 1_555
H80_7 C137_7 1_555 1_555
H81_7 C138_7 1_555 1_555
H91_7 C137_7 1_555 1_555
H92_7 C138_7 1_555 1_555
C148_7 C93_7 1_555 1_555
C149_7 C94_7 1_555 1_555
H102_7 C148_7 1_555 1_555
H103_7 C149_7 1_555 1_555
H113_7 C148_7 1_555 1_555
H114_7 C149_7 1_555 1_555
C159_7 C148_7 1_555 1_555
C160_7 C149_7 1_555 1_555
H124_7 C159_7 1_555 1_555
H125_7 C160_7 1_555 1_555
H135_7 C159_7 1_555 1_555
H136_7 C160_7 1_555 1_555
H146_7 C159_7 1_555 1_555
H147_7 C160_7 1_555 1_555
C6_7 C7_7 1_555 1_555
C9_7 C10_7 1_555 1_555
C60_7 C115_7 1_555 1_555
C71_7 C85_7 1_555 1_555
C72_7 C86_7 1_555 1_555
C93_7 C104_7 1_555 1_555
C104_7 C116_7 1_555 1_555
C105_7 C115_7 1_555 1_555
C105_7 C116_7 1_555 1_555
Dy15_9 O18_10 1_555 1_555
Dy18_19 O19_21 1_555 1_555
Dy11_6 O19_21 1_555 1_555
O18_10 Dy17_11 1_555 1_555
O19_21 C26_21 1_555 1_555
O33_10 Dy15_9 1_555 1_555
O34_21 Dy18_19 1_555 1_555
C18_21 O11_13 1_555 1_555
C25_21 O18_10 1_555 1_555
C26_21 O34_21 1_555 1_555
C29_21 C18_21 1_555 1_555
C36_21 C25_21 1_555 1_555
C37_21 C26_21 1_555 1_555
C40_21 C29_21 1_555 1_555
C47_21 C36_21 1_555 1_555
C48_21 C37_21 1_555 1_555
H16_21 C40_21 1_555 1_555
H23_21 C47_21 1_555 1_555
H24_21 C48_21 1_555 1_555
C53_21 C40_21 1_555 1_555
C58_21 C47_21 1_555 1_555
C59_21 C48_21 1_555 1_555
C64_21 C53_21 1_555 1_555
C67_21 C59_21 1_555 1_555
C70_21 C58_21 1_555 1_555
C75_21 C64_21 1_555 1_555
C78_21 C67_21 1_555 1_555
C81_21 C70_21 1_555 1_555
H29_21 C75_21 1_555 1_555
H32_21 C78_21 1_555 1_555
H35_21 C81_21 1_555 1_555
C84_21 C29_21 1_555 1_555
C89_21 C37_21 1_555 1_555
C92_21 C36_21 1_555 1_555
H38_21 C84_21 1_555 1_555
H43_21 C89_21 1_555 1_555
H46_21 C92_21 1_555 1_555
C97_21 C53_21 1_555 1_555
C100_21 C58_21 1_555 1_555
C103_21 C59_21 1_555 1_555
C108_21 C97_21 1_555 1_555
C111_21 C100_21 1_555 1_555
C114_21 C103_21 1_555 1_555
C119_21 C64_21 1_555 1_555
C122_21 C67_21 1_555 1_555
C125_21 C70_21 1_555 1_555
C130_21 C97_21 1_555 1_555
C133_21 C100_21 1_555 1_555
C136_21 C103_21 1_555 1_555
H51_21 C130_21 1_555 1_555
H54_21 C133_21 1_555 1_555
H57_21 C136_21 1_555 1_555
H62_21 C130_21 1_555 1_555
H65_21 C133_21 1_555 1_555
H68_21 C136_21 1_555 1_555
C141_21 C130_21 1_555 1_555
C144_21 C133_21 1_555 1_555
C147_21 C136_21 1_555 1_555
H73_21 C141_21 1_555 1_555
H76_21 C144_21 1_555 1_555
H79_21 C147_21 1_555 1_555
H84_21 C141_21 1_555 1_555
H87_21 C144_21 1_555 1_555
H90_21 C147_21 1_555 1_555
H95_21 C141_21 1_555 1_555
H98_21 C144_21 1_555 1_555
H101_21 C147_21 1_555 1_555
C152_21 C97_21 1_555 1_555
C155_21 C100_21 1_555 1_555
C158_21 C103_21 1_555 1_555
H106_21 C152_21 1_555 1_555
H109_21 C155_21 1_555 1_555
H112_21 C158_21 1_555 1_555
H117_21 C152_21 1_555 1_555
H120_21 C155_21 1_555 1_555
H123_21 C158_21 1_555 1_555
C163_21 C152_21 1_555 1_555
C166_21 C155_21 1_555 1_555
C169_21 C158_21 1_555 1_555
H128_21 C163_21 1_555 1_555
H131_21 C166_21 1_555 1_555
H134_21 C169_21 1_555 1_555
H139_21 C163_21 1_555 1_555
H142_21 C166_21 1_555 1_555
H145_21 C169_21 1_555 1_555
H150_21 C163_21 1_555 1_555
H153_21 C166_21 1_555 1_555
H156_21 C169_21 1_555 1_555
O26_13 C18_21 1_555 1_555
O33_10 C25_21 1_555 1_555
C75_21 C84_21 1_555 1_555
C78_21 C89_21 1_555 1_555
C81_21 C92_21 1_555 1_555
C108_21 C119_21 1_555 1_555
C108_21 C122_21 1_555 1_555
C111_21 C119_21 1_555 1_555
C111_21 C125_21 1_555 1_555
C114_21 C122_21 1_555 1_555
C114_21 C125_21 1_555 1_555
O3_28 Dy18_16 1_555 1_555
O4_28 Dy18_16 1_555 1_555
C15_28 O4_28 1_555 1_555
Dy12_3 O3_28 1_555 1_555
Dy11_3 O3_28 1_555 1_555
O6_17 Dy18_16 1_555 1_555
O7_12 Dy18_16 1_555 1_555
O9_8 C21_15 1_555 1_555
O9_10 C22_15 1_555 1_555
O20_17 Dy18_16 1_555 1_555
O24_12 Dy12_3 1_555 1_555
C16_15 O7_12 1_555 1_555
C21_15 O22_8 1_555 1_555
C22_15 O22_10 1_555 1_555
C27_15 C16_15 1_555 1_555
C32_15 C21_15 1_555 1_555
C33_15 C22_15 1_555 1_555
C38_15 C27_15 1_555 1_555
C43_15 C32_15 1_555 1_555
C44_15 C33_15 1_555 1_555
H14_15 C38_15 1_555 1_555
H19_15 C43_15 1_555 1_555
H20_15 C44_15 1_555 1_555
C51_15 C38_15 1_555 1_555
C54_15 C43_15 1_555 1_555
C55_15 C44_15 1_555 1_555
C62_15 C51_15 1_555 1_555
C65_15 C55_15 1_555 1_555
C68_15 C54_15 1_555 1_555
C73_15 C62_15 1_555 1_555
C76_15 C65_15 1_555 1_555
C79_15 C68_15 1_555 1_555
H27_15 C73_15 1_555 1_555
H30_15 C76_15 1_555 1_555
H33_15 C79_15 1_555 1_555
C82_15 C27_15 1_555 1_555
C87_15 C33_15 1_555 1_555
C90_15 C32_15 1_555 1_555
H36_15 C82_15 1_555 1_555
H41_15 C87_15 1_555 1_555
H44_15 C90_15 1_555 1_555
C95_15 C51_15 1_555 1_555
C98_15 C54_15 1_555 1_555
C101_15 C55_15 1_555 1_555
C106_15 C95_15 1_555 1_555
C109_15 C98_15 1_555 1_555
C112_15 C101_15 1_555 1_555
C117_15 C62_15 1_555 1_555
C120_15 C65_15 1_555 1_555
C123_15 C68_15 1_555 1_555
C128_15 C95_15 1_555 1_555
C131_15 C98_15 1_555 1_555
C134_15 C101_15 1_555 1_555
H49_15 C128_15 1_555 1_555
H52_15 C131_15 1_555 1_555
H55_15 C134_15 1_555 1_555
H60_15 C128_15 1_555 1_555
H63_15 C131_15 1_555 1_555
H66_15 C134_15 1_555 1_555
C139_15 C128_15 1_555 1_555
C142_15 C131_15 1_555 1_555
C145_15 C134_15 1_555 1_555
H71_15 C139_15 1_555 1_555
H74_15 C142_15 1_555 1_555
H77_15 C145_15 1_555 1_555
H82_15 C139_15 1_555 1_555
H85_15 C142_15 1_555 1_555
H88_15 C145_15 1_555 1_555
H93_15 C139_15 1_555 1_555
H96_15 C142_15 1_555 1_555
H99_15 C145_15 1_555 1_555
C150_15 C95_15 1_555 1_555
C153_15 C98_15 1_555 1_555
C156_15 C101_15 1_555 1_555
H104_15 C150_15 1_555 1_555
H107_15 C153_15 1_555 1_555
H110_15 C156_15 1_555 1_555
H115_15 C150_15 1_555 1_555
H118_15 C153_15 1_555 1_555
H121_15 C156_15 1_555 1_555
C161_15 C150_15 1_555 1_555
C164_15 C153_15 1_555 1_555
C167_15 C156_15 1_555 1_555
H126_15 C161_15 1_555 1_555
H129_15 C164_15 1_555 1_555
H132_15 C167_15 1_555 1_555
H137_15 C161_15 1_555 1_555
H140_15 C164_15 1_555 1_555
H143_15 C167_15 1_555 1_555
H148_15 C161_15 1_555 1_555
H151_15 C164_15 1_555 1_555
H154_15 C167_15 1_555 1_555
O35_28 Dy9_8 1_555 1_555
O36_28 Dy12_3 1_555 1_555
O37_28 Dy11_3 1_555 1_555
C170_28 O35_28 1_555 1_555
C171_28 O37_28 1_555 1_555
C172_28 O36_28 1_555 1_555
O3_28 Dy9_8 1_555 1_555
Dy9_8 O6_17 1_555 1_555
Dy12_3 O7_12 1_555 1_555
O24_12 C16_15 1_555 1_555
C73_15 C82_15 1_555 1_555
C76_15 C87_15 1_555 1_555
C79_15 C90_15 1_555 1_555
C106_15 C117_15 1_555 1_555
C106_15 C120_15 1_555 1_555
C109_15 C117_15 1_555 1_555
C109_15 C123_15 1_555 1_555
C112_15 C120_15 1_555 1_555
C112_15 C123_15 1_555 1_555
C170_28 H158_28 1_555 1_555
C170_28 H159_20 1_555 1_555
C171_28 H161_28 1_555 1_555
C171_28 H162_20 1_555 1_555
C172_28 H164_28 1_555 1_555
C172_28 H165_20 1_555 1_555
C15_28 H167_28 1_555 1_555
C15_28 H168_20 1_555 1_555
O3_29 Dy18_17 1_555 1_555
O4_29 Dy18_17 1_555 1_555
C15_29 O4_29 1_555 1_555
Dy12_4 O3_29 1_555 1_555
Dy11_4 O3_29 1_555 1_555
O11_20 Dy12_4 1_555 1_555
O26_20 Dy11_4 1_555 1_555
O35_29 Dy9_9 1_555 1_555
O36_29 Dy12_4 1_555 1_555
O37_29 Dy11_4 1_555 1_555
C170_29 O35_29 1_555 1_555
C171_29 O37_29 1_555 1_555
C172_29 O36_29 1_555 1_555
O3_29 Dy9_9 1_555 1_555
Dy11_4 O11_20 1_555 1_555
C170_29 H157_20 1_555 1_555
C170_29 H158_29 1_555 1_555
C171_29 H160_20 1_555 1_555
C171_29 H161_29 1_555 1_555
C172_29 H163_20 1_555 1_555
C172_29 H164_29 1_555 1_555
C15_29 H166_20 1_555 1_555
C15_29 H167_29 1_555 1_555
O3_30 Dy17_10 1_555 1_555
O4_30 Dy17_10 1_555 1_555
C15_30 O4_30 1_555 1_555
Dy15_8 O3_30 1_555 1_555
Dy18_8 O3_30 1_555 1_555
O6_18 Dy17_10 1_555 1_555
O20_18 Dy17_10 1_555 1_555
O35_30 Dy17_6 1_555 1_555
O36_30 Dy15_8 1_555 1_555
O37_30 Dy18_8 1_555 1_555
C170_30 O35_30 1_555 1_555
C171_30 O37_30 1_555 1_555
C172_30 O36_30 1_555 1_555
O3_30 Dy17_6 1_555 1_555
Dy17_6 O6_18 1_555 1_555
C170_30 H158_30 1_555 1_555
C170_30 H159_21 1_555 1_555
C171_30 H161_30 1_555 1_555
C171_30 H162_21 1_555 1_555
C172_30 H164_30 1_555 1_555
C172_30 H165_21 1_555 1_555
C15_30 H167_30 1_555 1_555
C15_30 H168_21 1_555 1_555
O3_31 Dy17_11 1_555 1_555
O4_31 Dy17_11 1_555 1_555
C15_31 O4_31 1_555 1_555
Dy15_9 O3_31 1_555 1_555
Dy18_9 O3_31 1_555 1_555
O11_21 Dy15_9 1_555 1_555
O26_21 Dy18_9 1_555 1_555
O35_31 Dy17_7 1_555 1_555
O36_31 Dy15_9 1_555 1_555
O37_31 Dy18_9 1_555 1_555
C170_31 O35_31 1_555 1_555
C171_31 O37_31 1_555 1_555
C172_31 O36_31 1_555 1_555
O3_31 Dy17_7 1_555 1_555
Dy18_9 O11_21 1_555 1_555
C170_31 H157_21 1_555 1_555
C170_31 H158_31 1_555 1_555
C171_31 H160_21 1_555 1_555
C171_31 H161_31 1_555 1_555
C172_31 H163_21 1_555 1_555
C172_31 H164_31 1_555 1_555
C15_31 H166_21 1_555 1_555
C15_31 H167_31 1_555 1_555
Dy18_18 O14_12 1_555 1_555
Dy11_5 O14_12 1_555 1_555
Dy15_6 O15_12 1_555 1_555
Dy18_21 O15_12 1_555 1_555
O14_12 C21_16 1_555 1_555
O15_12 C22_16 1_555 1_555
O29_12 Dy18_18 1_555 1_555
O30_12 Dy15_6 1_555 1_555
C16_16 O6_3 1_555 1_555
C21_16 O29_12 1_555 1_555
C22_16 O30_12 1_555 1_555
C27_16 C16_16 1_555 1_555
C32_16 C21_16 1_555 1_555
C33_16 C22_16 1_555 1_555
C38_16 C27_16 1_555 1_555
C43_16 C32_16 1_555 1_555
C44_16 C33_16 1_555 1_555
H14_16 C38_16 1_555 1_555
H19_16 C43_16 1_555 1_555
H20_16 C44_16 1_555 1_555
C51_16 C38_16 1_555 1_555
C54_16 C43_16 1_555 1_555
C55_16 C44_16 1_555 1_555
C62_16 C51_16 1_555 1_555
C65_16 C55_16 1_555 1_555
C68_16 C54_16 1_555 1_555
C73_16 C62_16 1_555 1_555
C76_16 C65_16 1_555 1_555
C79_16 C68_16 1_555 1_555
H27_16 C73_16 1_555 1_555
H30_16 C76_16 1_555 1_555
H33_16 C79_16 1_555 1_555
C82_16 C27_16 1_555 1_555
C87_16 C33_16 1_555 1_555
C90_16 C32_16 1_555 1_555
H36_16 C82_16 1_555 1_555
H41_16 C87_16 1_555 1_555
H44_16 C90_16 1_555 1_555
C95_16 C51_16 1_555 1_555
C98_16 C54_16 1_555 1_555
C101_16 C55_16 1_555 1_555
C106_16 C95_16 1_555 1_555
C109_16 C98_16 1_555 1_555
C112_16 C101_16 1_555 1_555
C117_16 C62_16 1_555 1_555
C120_16 C65_16 1_555 1_555
C123_16 C68_16 1_555 1_555
C128_16 C95_16 1_555 1_555
C131_16 C98_16 1_555 1_555
C134_16 C101_16 1_555 1_555
H49_16 C128_16 1_555 1_555
H52_16 C131_16 1_555 1_555
H55_16 C134_16 1_555 1_555
H60_16 C128_16 1_555 1_555
H63_16 C131_16 1_555 1_555
H66_16 C134_16 1_555 1_555
C139_16 C128_16 1_555 1_555
C142_16 C131_16 1_555 1_555
C145_16 C134_16 1_555 1_555
H71_16 C139_16 1_555 1_555
H74_16 C142_16 1_555 1_555
H77_16 C145_16 1_555 1_555
H82_16 C139_16 1_555 1_555
H85_16 C142_16 1_555 1_555
H88_16 C145_16 1_555 1_555
H93_16 C139_16 1_555 1_555
H96_16 C142_16 1_555 1_555
H99_16 C145_16 1_555 1_555
C150_16 C95_16 1_555 1_555
C153_16 C98_16 1_555 1_555
C156_16 C101_16 1_555 1_555
H104_16 C150_16 1_555 1_555
H107_16 C153_16 1_555 1_555
H110_16 C156_16 1_555 1_555
H115_16 C150_16 1_555 1_555
H118_16 C153_16 1_555 1_555
H121_16 C156_16 1_555 1_555
C161_16 C150_16 1_555 1_555
C164_16 C153_16 1_555 1_555
C167_16 C156_16 1_555 1_555
H126_16 C161_16 1_555 1_555
H129_16 C164_16 1_555 1_555
H132_16 C167_16 1_555 1_555
H137_16 C161_16 1_555 1_555
H140_16 C164_16 1_555 1_555
H143_16 C167_16 1_555 1_555
H148_16 C161_16 1_555 1_555
H151_16 C164_16 1_555 1_555
H154_16 C167_16 1_555 1_555
O20_3 C16_16 1_555 1_555
C73_16 C82_16 1_555 1_555
C76_16 C87_16 1_555 1_555
C79_16 C90_16 1_555 1_555
C106_16 C117_16 1_555 1_555
C106_16 C120_16 1_555 1_555
C109_16 C117_16 1_555 1_555
C109_16 C123_16 1_555 1_555
C112_16 C120_16 1_555 1_555
C112_16 C123_16 1_555 1_555
O3_32 Dy18_12 1_555 1_555
O4_32 Dy18_12 1_555 1_555
C15_32 O4_32 1_555 1_555
Dy12_5 O3_32 1_555 1_555
Dy11_5 O3_32 1_555 1_555
O6_19 Dy18_12 1_555 1_555
O20_19 Dy18_12 1_555 1_555
O35_32 Dy18_18 1_555 1_555
O36_32 Dy12_5 1_555 1_555
O37_32 Dy11_5 1_555 1_555
C170_32 O35_32 1_555 1_555
C171_32 O37_32 1_555 1_555
C172_32 O36_32 1_555 1_555
O3_32 Dy18_18 1_555 1_555
Dy18_18 O6_19 1_555 1_555
C170_32 H158_32 1_555 1_555
C170_32 H159_22 1_555 1_555
C171_32 H161_32 1_555 1_555
C171_32 H162_22 1_555 1_555
C172_32 H164_32 1_555 1_555
C172_32 H165_22 1_555 1_555
C15_32 H167_32 1_555 1_555
C15_32 H168_22 1_555 1_555
O3_33 Dy18_13 1_555 1_555
O4_33 Dy18_13 1_555 1_555
C15_33 O4_33 1_555 1_555
Dy12_6 O3_33 1_555 1_555
Dy11_6 O3_33 1_555 1_555
O11_22 Dy12_6 1_555 1_555
O26_22 Dy11_6 1_555 1_555
O35_33 Dy18_19 1_555 1_555
O36_33 Dy12_6 1_555 1_555
O37_33 Dy11_6 1_555 1_555
C170_33 O35_33 1_555 1_555
C171_33 O37_33 1_555 1_555
C172_33 O36_33 1_555 1_555
O3_33 Dy18_19 1_555 1_555
Dy11_6 O11_22 1_555 1_555
C170_33 H157_22 1_555 1_555
C170_33 H158_33 1_555 1_555
C171_33 H160_22 1_555 1_555
C171_33 H161_33 1_555 1_555
C172_33 H163_22 1_555 1_555
C172_33 H164_33 1_555 1_555
C15_33 H166_22 1_555 1_555
C15_33 H167_33 1_555 1_555
O3_34 Dy18_21 1_555 1_555
O4_34 Dy18_21 1_555 1_555
C15_34 O4_34 1_555 1_555
Dy15_6 O3_34 1_555 1_555
Dy10_6 O3_34 1_555 1_555
O6_20 Dy18_21 1_555 1_555
O20_20 Dy18_21 1_555 1_555
O35_34 Dy9_6 1_555 1_555
O36_34 Dy15_6 1_555 1_555
O37_34 Dy10_6 1_555 1_555
C170_34 O35_34 1_555 1_555
C171_34 O37_34 1_555 1_555
C172_34 O36_34 1_555 1_555
O3_34 Dy9_6 1_555 1_555
Dy9_6 O6_20 1_555 1_555
C170_34 H158_34 1_555 1_555
C170_34 H159_23 1_555 1_555
C171_34 H161_34 1_555 1_555
C171_34 H162_23 1_555 1_555
C172_34 H164_34 1_555 1_555
C172_34 H165_23 1_555 1_555
C15_34 H167_34 1_555 1_555
C15_34 H168_23 1_555 1_555
O3_35 Dy18_22 1_555 1_555
O4_35 Dy18_22 1_555 1_555
C15_35 O4_35 1_555 1_555
Dy15_7 O3_35 1_555 1_555
Dy10_7 O3_35 1_555 1_555
O11_23 Dy15_7 1_555 1_555
O26_23 Dy10_7 1_555 1_555
O35_35 Dy9_7 1_555 1_555
O36_35 Dy15_7 1_555 1_555
O37_35 Dy10_7 1_555 1_555
C170_35 O35_35 1_555 1_555
C171_35 O37_35 1_555 1_555
C172_35 O36_35 1_555 1_555
O3_35 Dy9_7 1_555 1_555
Dy10_7 O11_23 1_555 1_555
C170_35 H157_23 1_555 1_555
C170_35 H158_35 1_555 1_555
C171_35 H160_23 1_555 1_555
C171_35 H161_35 1_555 1_555
C172_35 H163_23 1_555 1_555
C172_35 H164_35 1_555 1_555
C15_35 H166_23 1_555 1_555
C15_35 H167_35 1_555 1_555
O3_36 Dy17 1_555 1_555
O4_36 Dy17 1_555 1_555
C15_36 O4_36 1_555 1_555
Dy11_7 O3_36 1_555 1_555
Dy18_20 O3_36 1_555 1_555
O6_21 Dy17 1_555 1_555
O11_24 Dy11_7 1_555 1_555
O20_21 Dy17 1_555 1_555
O26_24 Dy18_20 1_555 1_555
O35_36 Dy18 1_555 1_555
O36_36 Dy11_7 1_555 1_555
O37_36 Dy18_20 1_555 1_555
C170_36 O35_36 1_555 1_555
C171_36 O37_36 1_555 1_555
C172_36 O36_36 1_555 1_555
O3_36 Dy18 1_555 1_555
Dy18 O6_21 1_555 1_555
Dy18_20 O11_24 1_555 1_555
C170_36 H157_24 1_555 1_555
C170_36 H158_36 1_555 1_555
C170_36 H159_24 1_555 1_555
C171_36 H160_24 1_555 1_555
C171_36 H161_36 1_555 1_555
C171_36 H162_24 1_555 1_555
C172_36 H163_24 1_555 1_555
C172_36 H164_36 1_555 1_555
C172_36 H165_24 1_555 1_555
C15_36 H166_24 1_555 1_555
C15_36 H167_36 1_555 1_555
C15_36 H168_24 1_555 1_555
O6_16 C21_17 1_555 1_555
O6_18 C22_17 1_555 1_555
C16_17 O6_17 1_555 1_555
C21_17 O20_16 1_555 1_555
C22_17 O20_18 1_555 1_555
C27_17 C16_17 1_555 1_555
C32_17 C21_17 1_555 1_555
C33_17 C22_17 1_555 1_555
C38_17 C27_17 1_555 1_555
C43_17 C32_17 1_555 1_555
C44_17 C33_17 1_555 1_555
H14_17 C38_17 1_555 1_555
H19_17 C43_17 1_555 1_555
H20_17 C44_17 1_555 1_555
C51_17 C38_17 1_555 1_555
C54_17 C43_17 1_555 1_555
C55_17 C44_17 1_555 1_555
C62_17 C51_17 1_555 1_555
C65_17 C55_17 1_555 1_555
C68_17 C54_17 1_555 1_555
C73_17 C62_17 1_555 1_555
C76_17 C65_17 1_555 1_555
C79_17 C68_17 1_555 1_555
H27_17 C73_17 1_555 1_555
H30_17 C76_17 1_555 1_555
H33_17 C79_17 1_555 1_555
C82_17 C27_17 1_555 1_555
C87_17 C33_17 1_555 1_555
C90_17 C32_17 1_555 1_555
H36_17 C82_17 1_555 1_555
H41_17 C87_17 1_555 1_555
H44_17 C90_17 1_555 1_555
C95_17 C51_17 1_555 1_555
C98_17 C54_17 1_555 1_555
C101_17 C55_17 1_555 1_555
C106_17 C95_17 1_555 1_555
C109_17 C98_17 1_555 1_555
C112_17 C101_17 1_555 1_555
C117_17 C62_17 1_555 1_555
C120_17 C65_17 1_555 1_555
C123_17 C68_17 1_555 1_555
C128_17 C95_17 1_555 1_555
C131_17 C98_17 1_555 1_555
C134_17 C101_17 1_555 1_555
H49_17 C128_17 1_555 1_555
H52_17 C131_17 1_555 1_555
H55_17 C134_17 1_555 1_555
H60_17 C128_17 1_555 1_555
H63_17 C131_17 1_555 1_555
H66_17 C134_17 1_555 1_555
C139_17 C128_17 1_555 1_555
C142_17 C131_17 1_555 1_555
C145_17 C134_17 1_555 1_555
H71_17 C139_17 1_555 1_555
H74_17 C142_17 1_555 1_555
H77_17 C145_17 1_555 1_555
H82_17 C139_17 1_555 1_555
H85_17 C142_17 1_555 1_555
H88_17 C145_17 1_555 1_555
H93_17 C139_17 1_555 1_555
H96_17 C142_17 1_555 1_555
H99_17 C145_17 1_555 1_555
C150_17 C95_17 1_555 1_555
C153_17 C98_17 1_555 1_555
C156_17 C101_17 1_555 1_555
H104_17 C150_17 1_555 1_555
H107_17 C153_17 1_555 1_555
H110_17 C156_17 1_555 1_555
H115_17 C150_17 1_555 1_555
H118_17 C153_17 1_555 1_555
H121_17 C156_17 1_555 1_555
C161_17 C150_17 1_555 1_555
C164_17 C153_17 1_555 1_555
C167_17 C156_17 1_555 1_555
H126_17 C161_17 1_555 1_555
H129_17 C164_17 1_555 1_555
H132_17 C167_17 1_555 1_555
H137_17 C161_17 1_555 1_555
H140_17 C164_17 1_555 1_555
H143_17 C167_17 1_555 1_555
H148_17 C161_17 1_555 1_555
H151_17 C164_17 1_555 1_555
H154_17 C167_17 1_555 1_555
O20_17 C16_17 1_555 1_555
C73_17 C82_17 1_555 1_555
C76_17 C87_17 1_555 1_555
C79_17 C90_17 1_555 1_555
C106_17 C117_17 1_555 1_555
C106_17 C120_17 1_555 1_555
C109_17 C117_17 1_555 1_555
C109_17 C123_17 1_555 1_555
C112_17 C120_17 1_555 1_555
C112_17 C123_17 1_555 1_555
O11_10 C26_22 1_555 1_555
C18_22 O11_20 1_555 1_555
C25_22 O11_15 1_555 1_555
C26_22 O26_10 1_555 1_555
C29_22 C18_22 1_555 1_555
C36_22 C25_22 1_555 1_555
C37_22 C26_22 1_555 1_555
C40_22 C29_22 1_555 1_555
C47_22 C36_22 1_555 1_555
C48_22 C37_22 1_555 1_555
H16_22 C40_22 1_555 1_555
H23_22 C47_22 1_555 1_555
H24_22 C48_22 1_555 1_555
C53_22 C40_22 1_555 1_555
C58_22 C47_22 1_555 1_555
C59_22 C48_22 1_555 1_555
C64_22 C53_22 1_555 1_555
C67_22 C59_22 1_555 1_555
C70_22 C58_22 1_555 1_555
C75_22 C64_22 1_555 1_555
C78_22 C67_22 1_555 1_555
C81_22 C70_22 1_555 1_555
H29_22 C75_22 1_555 1_555
H32_22 C78_22 1_555 1_555
H35_22 C81_22 1_555 1_555
C84_22 C29_22 1_555 1_555
C89_22 C37_22 1_555 1_555
C92_22 C36_22 1_555 1_555
H38_22 C84_22 1_555 1_555
H43_22 C89_22 1_555 1_555
H46_22 C92_22 1_555 1_555
C97_22 C53_22 1_555 1_555
C100_22 C58_22 1_555 1_555
C103_22 C59_22 1_555 1_555
C108_22 C97_22 1_555 1_555
C111_22 C100_22 1_555 1_555
C114_22 C103_22 1_555 1_555
C119_22 C64_22 1_555 1_555
C122_22 C67_22 1_555 1_555
C125_22 C70_22 1_555 1_555
C130_22 C97_22 1_555 1_555
C133_22 C100_22 1_555 1_555
C136_22 C103_22 1_555 1_555
H51_22 C130_22 1_555 1_555
H54_22 C133_22 1_555 1_555
H57_22 C136_22 1_555 1_555
H62_22 C130_22 1_555 1_555
H65_22 C133_22 1_555 1_555
H68_22 C136_22 1_555 1_555
C141_22 C130_22 1_555 1_555
C144_22 C133_22 1_555 1_555
C147_22 C136_22 1_555 1_555
H73_22 C141_22 1_555 1_555
H76_22 C144_22 1_555 1_555
H79_22 C147_22 1_555 1_555
H84_22 C141_22 1_555 1_555
H87_22 C144_22 1_555 1_555
H90_22 C147_22 1_555 1_555
H95_22 C141_22 1_555 1_555
H98_22 C144_22 1_555 1_555
H101_22 C147_22 1_555 1_555
C152_22 C97_22 1_555 1_555
C155_22 C100_22 1_555 1_555
C158_22 C103_22 1_555 1_555
H106_22 C152_22 1_555 1_555
H109_22 C155_22 1_555 1_555
H112_22 C158_22 1_555 1_555
H117_22 C152_22 1_555 1_555
H120_22 C155_22 1_555 1_555
H123_22 C158_22 1_555 1_555
C163_22 C152_22 1_555 1_555
C166_22 C155_22 1_555 1_555
C169_22 C158_22 1_555 1_555
H128_22 C163_22 1_555 1_555
H131_22 C166_22 1_555 1_555
H134_22 C169_22 1_555 1_555
H139_22 C163_22 1_555 1_555
H142_22 C166_22 1_555 1_555
H145_22 C169_22 1_555 1_555
H150_22 C163_22 1_555 1_555
H153_22 C166_22 1_555 1_555
H156_22 C169_22 1_555 1_555
O26_20 C18_22 1_555 1_555
O26_15 C25_22 1_555 1_555
C75_22 C84_22 1_555 1_555
C78_22 C89_22 1_555 1_555
C81_22 C92_22 1_555 1_555
C108_22 C119_22 1_555 1_555
C108_22 C122_22 1_555 1_555
C111_22 C119_22 1_555 1_555
C111_22 C125_22 1_555 1_555
C114_22 C122_22 1_555 1_555
C114_22 C125_22 1_555 1_555
O6_21 C21_18 1_555 1_555
O6_20 C22_18 1_555 1_555
C16_18 O6_19 1_555 1_555
C21_18 O20_21 1_555 1_555
C22_18 O20_20 1_555 1_555
C27_18 C16_18 1_555 1_555
C32_18 C21_18 1_555 1_555
C33_18 C22_18 1_555 1_555
C38_18 C27_18 1_555 1_555
C43_18 C32_18 1_555 1_555
C44_18 C33_18 1_555 1_555
H14_18 C38_18 1_555 1_555
H19_18 C43_18 1_555 1_555
H20_18 C44_18 1_555 1_555
C51_18 C38_18 1_555 1_555
C54_18 C43_18 1_555 1_555
C55_18 C44_18 1_555 1_555
C62_18 C51_18 1_555 1_555
C65_18 C55_18 1_555 1_555
C68_18 C54_18 1_555 1_555
C73_18 C62_18 1_555 1_555
C76_18 C65_18 1_555 1_555
C79_18 C68_18 1_555 1_555
H27_18 C73_18 1_555 1_555
H30_18 C76_18 1_555 1_555
H33_18 C79_18 1_555 1_555
C82_18 C27_18 1_555 1_555
C87_18 C33_18 1_555 1_555
C90_18 C32_18 1_555 1_555
H36_18 C82_18 1_555 1_555
H41_18 C87_18 1_555 1_555
H44_18 C90_18 1_555 1_555
C95_18 C51_18 1_555 1_555
C98_18 C54_18 1_555 1_555
C101_18 C55_18 1_555 1_555
C106_18 C95_18 1_555 1_555
C109_18 C98_18 1_555 1_555
C112_18 C101_18 1_555 1_555
C117_18 C62_18 1_555 1_555
C120_18 C65_18 1_555 1_555
C123_18 C68_18 1_555 1_555
C128_18 C95_18 1_555 1_555
C131_18 C98_18 1_555 1_555
C134_18 C101_18 1_555 1_555
H49_18 C128_18 1_555 1_555
H52_18 C131_18 1_555 1_555
H55_18 C134_18 1_555 1_555
H60_18 C128_18 1_555 1_555
H63_18 C131_18 1_555 1_555
H66_18 C134_18 1_555 1_555
C139_18 C128_18 1_555 1_555
C142_18 C131_18 1_555 1_555
C145_18 C134_18 1_555 1_555
H71_18 C139_18 1_555 1_555
H74_18 C142_18 1_555 1_555
H77_18 C145_18 1_555 1_555
H82_18 C139_18 1_555 1_555
H85_18 C142_18 1_555 1_555
H88_18 C145_18 1_555 1_555
H93_18 C139_18 1_555 1_555
H96_18 C142_18 1_555 1_555
H99_18 C145_18 1_555 1_555
C150_18 C95_18 1_555 1_555
C153_18 C98_18 1_555 1_555
C156_18 C101_18 1_555 1_555
H104_18 C150_18 1_555 1_555
H107_18 C153_18 1_555 1_555
H110_18 C156_18 1_555 1_555
H115_18 C150_18 1_555 1_555
H118_18 C153_18 1_555 1_555
H121_18 C156_18 1_555 1_555
C161_18 C150_18 1_555 1_555
C164_18 C153_18 1_555 1_555
C167_18 C156_18 1_555 1_555
H126_18 C161_18 1_555 1_555
H129_18 C164_18 1_555 1_555
H132_18 C167_18 1_555 1_555
H137_18 C161_18 1_555 1_555
H140_18 C164_18 1_555 1_555
H143_18 C167_18 1_555 1_555
H148_18 C161_18 1_555 1_555
H151_18 C164_18 1_555 1_555
H154_18 C167_18 1_555 1_555
O20_19 C16_18 1_555 1_555
C73_18 C82_18 1_555 1_555
C76_18 C87_18 1_555 1_555
C79_18 C90_18 1_555 1_555
C106_18 C117_18 1_555 1_555
C106_18 C120_18 1_555 1_555
C109_18 C117_18 1_555 1_555
C109_18 C123_18 1_555 1_555
C112_18 C120_18 1_555 1_555
C112_18 C123_18 1_555 1_555
O11_8 C26_23 1_555 1_555
C18_23 O11_22 1_555 1_555
C25_23 O11_21 1_555 1_555
C26_23 O26_8 1_555 1_555
C29_23 C18_23 1_555 1_555
C36_23 C25_23 1_555 1_555
C37_23 C26_23 1_555 1_555
C40_23 C29_23 1_555 1_555
C47_23 C36_23 1_555 1_555
C48_23 C37_23 1_555 1_555
H16_23 C40_23 1_555 1_555
H23_23 C47_23 1_555 1_555
H24_23 C48_23 1_555 1_555
C53_23 C40_23 1_555 1_555
C58_23 C47_23 1_555 1_555
C59_23 C48_23 1_555 1_555
C64_23 C53_23 1_555 1_555
C67_23 C59_23 1_555 1_555
C70_23 C58_23 1_555 1_555
C75_23 C64_23 1_555 1_555
C78_23 C67_23 1_555 1_555
C81_23 C70_23 1_555 1_555
H29_23 C75_23 1_555 1_555
H32_23 C78_23 1_555 1_555
H35_23 C81_23 1_555 1_555
C84_23 C29_23 1_555 1_555
C89_23 C37_23 1_555 1_555
C92_23 C36_23 1_555 1_555
H38_23 C84_23 1_555 1_555
H43_23 C89_23 1_555 1_555
H46_23 C92_23 1_555 1_555
C97_23 C53_23 1_555 1_555
C100_23 C58_23 1_555 1_555
C103_23 C59_23 1_555 1_555
C108_23 C97_23 1_555 1_555
C111_23 C100_23 1_555 1_555
C114_23 C103_23 1_555 1_555
C119_23 C64_23 1_555 1_555
C122_23 C67_23 1_555 1_555
C125_23 C70_23 1_555 1_555
C130_23 C97_23 1_555 1_555
C133_23 C100_23 1_555 1_555
C136_23 C103_23 1_555 1_555
H51_23 C130_23 1_555 1_555
H54_23 C133_23 1_555 1_555
H57_23 C136_23 1_555 1_555
H62_23 C130_23 1_555 1_555
H65_23 C133_23 1_555 1_555
H68_23 C136_23 1_555 1_555
C141_23 C130_23 1_555 1_555
C144_23 C133_23 1_555 1_555
C147_23 C136_23 1_555 1_555
H73_23 C141_23 1_555 1_555
H76_23 C144_23 1_555 1_555
H79_23 C147_23 1_555 1_555
H84_23 C141_23 1_555 1_555
H87_23 C144_23 1_555 1_555
H90_23 C147_23 1_555 1_555
H95_23 C141_23 1_555 1_555
H98_23 C144_23 1_555 1_555
H101_23 C147_23 1_555 1_555
C152_23 C97_23 1_555 1_555
C155_23 C100_23 1_555 1_555
C158_23 C103_23 1_555 1_555
H106_23 C152_23 1_555 1_555
H109_23 C155_23 1_555 1_555
H112_23 C158_23 1_555 1_555
H117_23 C152_23 1_555 1_555
H120_23 C155_23 1_555 1_555
H123_23 C158_23 1_555 1_555
C163_23 C152_23 1_555 1_555
C166_23 C155_23 1_555 1_555
C169_23 C158_23 1_555 1_555
H128_23 C163_23 1_555 1_555
H131_23 C166_23 1_555 1_555
H134_23 C169_23 1_555 1_555
H139_23 C163_23 1_555 1_555
H142_23 C166_23 1_555 1_555
H145_23 C169_23 1_555 1_555
H150_23 C163_23 1_555 1_555
H153_23 C166_23 1_555 1_555
H156_23 C169_23 1_555 1_555
O26_22 C18_23 1_555 1_555
O26_21 C25_23 1_555 1_555
C75_23 C84_23 1_555 1_555
C78_23 C89_23 1_555 1_555
C81_23 C92_23 1_555 1_555
C108_23 C119_23 1_555 1_555
C108_23 C122_23 1_555 1_555
C111_23 C119_23 1_555 1_555
C111_23 C125_23 1_555 1_555
C114_23 C122_23 1_555 1_555
C114_23 C125_23 1_555 1_555
O6_14 C21_19 1_555 1_555
O6_13 C22_19 1_555 1_555
C16_19 O6_15 1_555 1_555
C21_19 O20_14 1_555 1_555
C22_19 O20_13 1_555 1_555
C27_19 C16_19 1_555 1_555
C32_19 C21_19 1_555 1_555
C33_19 C22_19 1_555 1_555
C38_19 C27_19 1_555 1_555
C43_19 C32_19 1_555 1_555
C44_19 C33_19 1_555 1_555
H14_19 C38_19 1_555 1_555
H19_19 C43_19 1_555 1_555
H20_19 C44_19 1_555 1_555
C51_19 C38_19 1_555 1_555
C54_19 C43_19 1_555 1_555
C55_19 C44_19 1_555 1_555
C62_19 C51_19 1_555 1_555
C65_19 C55_19 1_555 1_555
C68_19 C54_19 1_555 1_555
C73_19 C62_19 1_555 1_555
C76_19 C65_19 1_555 1_555
C79_19 C68_19 1_555 1_555
H27_19 C73_19 1_555 1_555
H30_19 C76_19 1_555 1_555
H33_19 C79_19 1_555 1_555
C82_19 C27_19 1_555 1_555
C87_19 C33_19 1_555 1_555
C90_19 C32_19 1_555 1_555
H36_19 C82_19 1_555 1_555
H41_19 C87_19 1_555 1_555
H44_19 C90_19 1_555 1_555
C95_19 C51_19 1_555 1_555
C98_19 C54_19 1_555 1_555
C101_19 C55_19 1_555 1_555
C106_19 C95_19 1_555 1_555
C109_19 C98_19 1_555 1_555
C112_19 C101_19 1_555 1_555
C117_19 C62_19 1_555 1_555
C120_19 C65_19 1_555 1_555
C123_19 C68_19 1_555 1_555
C128_19 C95_19 1_555 1_555
C131_19 C98_19 1_555 1_555
C134_19 C101_19 1_555 1_555
H49_19 C128_19 1_555 1_555
H52_19 C131_19 1_555 1_555
H55_19 C134_19 1_555 1_555
H60_19 C128_19 1_555 1_555
H63_19 C131_19 1_555 1_555
H66_19 C134_19 1_555 1_555
C139_19 C128_19 1_555 1_555
C142_19 C131_19 1_555 1_555
C145_19 C134_19 1_555 1_555
H71_19 C139_19 1_555 1_555
H74_19 C142_19 1_555 1_555
H77_19 C145_19 1_555 1_555
H82_19 C139_19 1_555 1_555
H85_19 C142_19 1_555 1_555
H88_19 C145_19 1_555 1_555
H93_19 C139_19 1_555 1_555
H96_19 C142_19 1_555 1_555
H99_19 C145_19 1_555 1_555
C150_19 C95_19 1_555 1_555
C153_19 C98_19 1_555 1_555
C156_19 C101_19 1_555 1_555
H104_19 C150_19 1_555 1_555
H107_19 C153_19 1_555 1_555
H110_19 C156_19 1_555 1_555
H115_19 C150_19 1_555 1_555
H118_19 C153_19 1_555 1_555
H121_19 C156_19 1_555 1_555
C161_19 C150_19 1_555 1_555
C164_19 C153_19 1_555 1_555
C167_19 C156_19 1_555 1_555
H126_19 C161_19 1_555 1_555
H129_19 C164_19 1_555 1_555
H132_19 C167_19 1_555 1_555
H137_19 C161_19 1_555 1_555
H140_19 C164_19 1_555 1_555
H143_19 C167_19 1_555 1_555
H148_19 C161_19 1_555 1_555
H151_19 C164_19 1_555 1_555
H154_19 C167_19 1_555 1_555
O20_15 C16_19 1_555 1_555
C73_19 C82_19 1_555 1_555
C76_19 C87_19 1_555 1_555
C79_19 C90_19 1_555 1_555
C106_19 C117_19 1_555 1_555
C106_19 C120_19 1_555 1_555
C109_19 C117_19 1_555 1_555
C109_19 C123_19 1_555 1_555
C112_19 C120_19 1_555 1_555
C112_19 C123_19 1_555 1_555
O11_5 C26_24 1_555 1_555
C18_24 O11_17 1_555 1_555
C25_24 O11_23 1_555 1_555
C26_24 O26_5 1_555 1_555
C29_24 C18_24 1_555 1_555
C36_24 C25_24 1_555 1_555
C37_24 C26_24 1_555 1_555
C40_24 C29_24 1_555 1_555
C47_24 C36_24 1_555 1_555
C48_24 C37_24 1_555 1_555
H16_24 C40_24 1_555 1_555
H23_24 C47_24 1_555 1_555
H24_24 C48_24 1_555 1_555
C53_24 C40_24 1_555 1_555
C58_24 C47_24 1_555 1_555
C59_24 C48_24 1_555 1_555
C64_24 C53_24 1_555 1_555
C67_24 C59_24 1_555 1_555
C70_24 C58_24 1_555 1_555
C75_24 C64_24 1_555 1_555
C78_24 C67_24 1_555 1_555
C81_24 C70_24 1_555 1_555
H29_24 C75_24 1_555 1_555
H32_24 C78_24 1_555 1_555
H35_24 C81_24 1_555 1_555
C84_24 C29_24 1_555 1_555
C89_24 C37_24 1_555 1_555
C92_24 C36_24 1_555 1_555
H38_24 C84_24 1_555 1_555
H43_24 C89_24 1_555 1_555
H46_24 C92_24 1_555 1_555
C97_24 C53_24 1_555 1_555
C100_24 C58_24 1_555 1_555
C103_24 C59_24 1_555 1_555
C108_24 C97_24 1_555 1_555
C111_24 C100_24 1_555 1_555
C114_24 C103_24 1_555 1_555
C119_24 C64_24 1_555 1_555
C122_24 C67_24 1_555 1_555
C125_24 C70_24 1_555 1_555
C130_24 C97_24 1_555 1_555
C133_24 C100_24 1_555 1_555
C136_24 C103_24 1_555 1_555
H51_24 C130_24 1_555 1_555
H54_24 C133_24 1_555 1_555
H57_24 C136_24 1_555 1_555
H62_24 C130_24 1_555 1_555
H65_24 C133_24 1_555 1_555
H68_24 C136_24 1_555 1_555
C141_24 C130_24 1_555 1_555
C144_24 C133_24 1_555 1_555
C147_24 C136_24 1_555 1_555
H73_24 C141_24 1_555 1_555
H76_24 C144_24 1_555 1_555
H79_24 C147_24 1_555 1_555
H84_24 C141_24 1_555 1_555
H87_24 C144_24 1_555 1_555
H90_24 C147_24 1_555 1_555
H95_24 C141_24 1_555 1_555
H98_24 C144_24 1_555 1_555
H101_24 C147_24 1_555 1_555
C152_24 C97_24 1_555 1_555
C155_24 C100_24 1_555 1_555
C158_24 C103_24 1_555 1_555
H106_24 C152_24 1_555 1_555
H109_24 C155_24 1_555 1_555
H112_24 C158_24 1_555 1_555
H117_24 C152_24 1_555 1_555
H120_24 C155_24 1_555 1_555
H123_24 C158_24 1_555 1_555
C163_24 C152_24 1_555 1_555
C166_24 C155_24 1_555 1_555
C169_24 C158_24 1_555 1_555
H128_24 C163_24 1_555 1_555
H131_24 C166_24 1_555 1_555
H134_24 C169_24 1_555 1_555
H139_24 C163_24 1_555 1_555
H142_24 C166_24 1_555 1_555
H145_24 C169_24 1_555 1_555
H150_24 C163_24 1_555 1_555
H153_24 C166_24 1_555 1_555
H156_24 C169_24 1_555 1_555
O26_17 C18_24 1_555 1_555
O26_23 C25_24 1_555 1_555
C75_24 C84_24 1_555 1_555
C78_24 C89_24 1_555 1_555
C81_24 C92_24 1_555 1_555
C108_24 C119_24 1_555 1_555
C108_24 C122_24 1_555 1_555
C111_24 C119_24 1_555 1_555
C111_24 C125_24 1_555 1_555
C114_24 C122_24 1_555 1_555
C114_24 C125_24 1_555 1_555
O11_19 C1_8 1_555 1_555
C1_8 O26_19 1_555 1_555
C2_8 C1_8 1_555 1_555
C3_8 C2_8 1_555 1_555
H1_8 C3_8 1_555 1_555
C4_8 C3_8 1_555 1_555
C5_8 C4_8 1_555 1_555
C6_8 C5_8 1_555 1_555
H2_8 C6_8 1_555 1_555
C7_8 C2_8 1_555 1_555
H3_8 C7_8 1_555 1_555
C8_8 C4_8 1_555 1_555
C9_8 C8_8 1_555 1_555
C10_8 C5_8 1_555 1_555
C11_8 C8_8 1_555 1_555
H4_8 C11_8 1_555 1_555
H5_8 C11_8 1_555 1_555
C12_8 C11_8 1_555 1_555
H6_8 C12_8 1_555 1_555
H7_8 C12_8 1_555 1_555
H8_8 C12_8 1_555 1_555
C13_8 C8_8 1_555 1_555
H9_8 C13_8 1_555 1_555
H10_8 C13_8 1_555 1_555
C14_8 C13_8 1_555 1_555
H11_8 C14_8 1_555 1_555
H12_8 C14_8 1_555 1_555
H13_8 C14_8 1_555 1_555
O11_16 C19_8 1_555 1_555
O11_24 C20_8 1_555 1_555
C19_8 O26_16 1_555 1_555
C20_8 O26_24 1_555 1_555
C30_8 C19_8 1_555 1_555
C31_8 C20_8 1_555 1_555
C41_8 C30_8 1_555 1_555
C42_8 C31_8 1_555 1_555
H17_8 C41_8 1_555 1_555
H18_8 C42_8 1_555 1_555
C49_8 C41_8 1_555 1_555
C50_8 C42_8 1_555 1_555
C60_8 C49_8 1_555 1_555
C61_8 C50_8 1_555 1_555
C71_8 C60_8 1_555 1_555
C72_8 C61_8 1_555 1_555
H25_8 C71_8 1_555 1_555
H26_8 C72_8 1_555 1_555
C85_8 C30_8 1_555 1_555
C86_8 C31_8 1_555 1_555
H39_8 C85_8 1_555 1_555
H40_8 C86_8 1_555 1_555
C93_8 C50_8 1_555 1_555
C94_8 C49_8 1_555 1_555
C104_8 C10_8 1_555 1_555
C105_8 C94_8 1_555 1_555
C115_8 C9_8 1_555 1_555
C116_8 C61_8 1_555 1_555
C126_8 C93_8 1_555 1_555
C127_8 C94_8 1_555 1_555
H47_8 C126_8 1_555 1_555
H48_8 C127_8 1_555 1_555
H58_8 C126_8 1_555 1_555
H59_8 C127_8 1_555 1_555
C137_8 C126_8 1_555 1_555
C138_8 C127_8 1_555 1_555
H69_8 C137_8 1_555 1_555
H70_8 C138_8 1_555 1_555
H80_8 C137_8 1_555 1_555
H81_8 C138_8 1_555 1_555
H91_8 C137_8 1_555 1_555
H92_8 C138_8 1_555 1_555
C148_8 C93_8 1_555 1_555
C149_8 C94_8 1_555 1_555
H102_8 C148_8 1_555 1_555
H103_8 C149_8 1_555 1_555
H113_8 C148_8 1_555 1_555
H114_8 C149_8 1_555 1_555
C159_8 C148_8 1_555 1_555
C160_8 C149_8 1_555 1_555
H124_8 C159_8 1_555 1_555
H125_8 C160_8 1_555 1_555
H135_8 C159_8 1_555 1_555
H136_8 C160_8 1_555 1_555
H146_8 C159_8 1_555 1_555
H147_8 C160_8 1_555 1_555
C6_8 C7_8 1_555 1_555
C9_8 C10_8 1_555 1_555
C60_8 C115_8 1_555 1_555
C71_8 C85_8 1_555 1_555
C72_8 C86_8 1_555 1_555
C93_8 C104_8 1_555 1_555
C104_8 C116_8 1_555 1_555
C105_8 C115_8 1_555 1_555
C105_8 C116_8 1_555 1_555
O6_8 C21_20 1_555 1_555
O6_5 C22_20 1_555 1_555
C16_20 O6_10 1_555 1_555
C21_20 O20_8 1_555 1_555
C22_20 O20_5 1_555 1_555
C27_20 C16_20 1_555 1_555
C32_20 C21_20 1_555 1_555
C33_20 C22_20 1_555 1_555
C38_20 C27_20 1_555 1_555
C43_20 C32_20 1_555 1_555
C44_20 C33_20 1_555 1_555
H14_20 C38_20 1_555 1_555
H19_20 C43_20 1_555 1_555
H20_20 C44_20 1_555 1_555
C51_20 C38_20 1_555 1_555
C54_20 C43_20 1_555 1_555
C55_20 C44_20 1_555 1_555
C62_20 C51_20 1_555 1_555
C65_20 C55_20 1_555 1_555
C68_20 C54_20 1_555 1_555
C73_20 C62_20 1_555 1_555
C76_20 C65_20 1_555 1_555
C79_20 C68_20 1_555 1_555
H27_20 C73_20 1_555 1_555
H30_20 C76_20 1_555 1_555
H33_20 C79_20 1_555 1_555
C82_20 C27_20 1_555 1_555
C87_20 C33_20 1_555 1_555
C90_20 C32_20 1_555 1_555
H36_20 C82_20 1_555 1_555
H41_20 C87_20 1_555 1_555
H44_20 C90_20 1_555 1_555
C95_20 C51_20 1_555 1_555
C98_20 C54_20 1_555 1_555
C101_20 C55_20 1_555 1_555
C106_20 C95_20 1_555 1_555
C109_20 C98_20 1_555 1_555
C112_20 C101_20 1_555 1_555
C117_20 C62_20 1_555 1_555
C120_20 C65_20 1_555 1_555
C123_20 C68_20 1_555 1_555
C128_20 C95_20 1_555 1_555
C131_20 C98_20 1_555 1_555
C134_20 C101_20 1_555 1_555
H49_20 C128_20 1_555 1_555
H52_20 C131_20 1_555 1_555
H55_20 C134_20 1_555 1_555
H60_20 C128_20 1_555 1_555
H63_20 C131_20 1_555 1_555
H66_20 C134_20 1_555 1_555
C139_20 C128_20 1_555 1_555
C142_20 C131_20 1_555 1_555
C145_20 C134_20 1_555 1_555
H71_20 C139_20 1_555 1_555
H74_20 C142_20 1_555 1_555
H77_20 C145_20 1_555 1_555
H82_20 C139_20 1_555 1_555
H85_20 C142_20 1_555 1_555
H88_20 C145_20 1_555 1_555
H93_20 C139_20 1_555 1_555
H96_20 C142_20 1_555 1_555
H99_20 C145_20 1_555 1_555
C150_20 C95_20 1_555 1_555
C153_20 C98_20 1_555 1_555
C156_20 C101_20 1_555 1_555
H104_20 C150_20 1_555 1_555
H107_20 C153_20 1_555 1_555
H110_20 C156_20 1_555 1_555
H115_20 C150_20 1_555 1_555
H118_20 C153_20 1_555 1_555
H121_20 C156_20 1_555 1_555
C161_20 C150_20 1_555 1_555
C164_20 C153_20 1_555 1_555
C167_20 C156_20 1_555 1_555
H126_20 C161_20 1_555 1_555
H129_20 C164_20 1_555 1_555
H132_20 C167_20 1_555 1_555
H137_20 C161_20 1_555 1_555
H140_20 C164_20 1_555 1_555
H143_20 C167_20 1_555 1_555
H148_20 C161_20 1_555 1_555
H151_20 C164_20 1_555 1_555
H154_20 C167_20 1_555 1_555
O20_10 C16_20 1_555 1_555
C73_20 C82_20 1_555 1_555
C76_20 C87_20 1_555 1_555
C79_20 C90_20 1_555 1_555
C106_20 C117_20 1_555 1_555
C106_20 C120_20 1_555 1_555
C109_20 C117_20 1_555 1_555
C109_20 C123_20 1_555 1_555
C112_20 C120_20 1_555 1_555
C112_20 C123_20 1_555 1_555

#END
