
###############################################################################
#
# This file contains modified crystal structure data generated from the
# MOF subset of the Cambridge Structural Database (CSD) v543 
# hosted by the Cambridge Crystallographic Data Centre (CCDC).
#
# This work is licensed under the Creative Commons
# Attribution-NonCommercial-ShareAlike 4.0 International License.
# To view a copy of this license, visit
# http://creativecommons.org/licenses/by-nc-sa/4.0/
# or send a letter to
# Creative Commons, PO Box 1866, Mountain View, CA 94042, USA.
#
# CIF created using the CSD Python API on 29 September 2022
# The structure has been converted into the P1 space group
# The structure has a 3D framework
# The original CSD entry BOXFEA is in the cubic crystal system
# The framework has been calculated to contain at least 10.0% void space
# The void calculation uses a probe of radius 1.32A, grid spacing 0.4
# The framework is charged, counterions have been retained in the structure
# H atom positions have been added when not included in the experimental data
# Generated hydrogen atom positions removed from atoms on special positions
#
###############################################################################

data_BOXFEA
_chemical_formula_moiety         '(C2688 H6672 O1716 Pb144 1102+)n'
_symmetry_cell_setting           triclinic
_symmetry_space_group_name_H-M   'P 1'
_symmetry_Int_Tables_number      1
_space_group_name_Hall           'P 1'
loop_
_symmetry_equiv_pos_site_id
_symmetry_equiv_pos_as_xyz
1 x,y,z
_cell_length_a                   48.850(6)
_cell_length_b                   48.850(6)
_cell_length_c                   48.850(6)
_cell_angle_alpha                90
_cell_angle_beta                 90
_cell_angle_gamma                90
_cell_volume                     116572
loop_
_atom_site_label
_atom_site_type_symbol
_atom_site_fract_x
_atom_site_fract_y
_atom_site_fract_z
O1 O 0.2333(3) 0.9746(3) 0.1052(3)
O1_2 O 0.1052(3) 0.2333(3) 0.9746(3)
O1_3 O 0.9746(3) 0.1052(3) 0.2333(3)
O1_4 O 0.4746(3) 0.7333(3) 0.3948(3)
O1_5 O 0.4746(3) 0.2667(3) 0.6052(3)
O1_6 O 0.5254(3) 0.7333(3) 0.6052(3)
O1_7 O 0.7333(3) 0.6052(3) 0.5254(3)
O1_8 O 0.2667(3) 0.6052(3) 0.4746(3)
O1_9 O 0.7333(3) 0.3948(3) 0.4746(3)
O1_10 O 0.6052(3) 0.4746(3) 0.2667(3)
O1_11 O 0.6052(3) 0.5254(3) 0.7333(3)
O1_12 O 0.3948(3) 0.4746(3) 0.7333(3)
O1_13 O 0.2333(3) 0.4746(3) 0.6052(3)
O1_14 O 0.1052(3) 0.7333(3) 0.4746(3)
O1_15 O 0.9746(3) 0.6052(3) 0.7333(3)
O1_16 O 0.4746(3) 0.2333(3) 0.8948(3)
O1_17 O 0.4746(3) 0.7667(3) 0.1052(3)
O1_18 O 0.5254(3) 0.2333(3) 0.1052(3)
O1_19 O 0.7333(3) 0.1052(3) 0.0254(3)
O1_20 O 0.2667(3) 0.1052(3) 0.9746(3)
O1_21 O 0.7333(3) 0.8948(3) 0.9746(3)
O1_22 O 0.6052(3) 0.9746(3) 0.7667(3)
O1_23 O 0.6052(3) 0.0254(3) 0.2333(3)
O1_24 O 0.3948(3) 0.9746(3) 0.2333(3)
O1_25 O 0.7333(3) 0.9746(3) 0.6052(3)
O1_26 O 0.6052(3) 0.2333(3) 0.4746(3)
O1_27 O 0.4746(3) 0.1052(3) 0.7333(3)
O1_28 O 0.9746(3) 0.7333(3) 0.8948(3)
O1_29 O 0.9746(3) 0.2667(3) 0.1052(3)
O1_30 O 0.0254(3) 0.7333(3) 0.1052(3)
O1_31 O 0.2333(3) 0.6052(3) 0.0254(3)
O1_32 O 0.7667(3) 0.6052(3) 0.9746(3)
O1_33 O 0.2333(3) 0.3948(3) 0.9746(3)
O1_34 O 0.1052(3) 0.4746(3) 0.7667(3)
O1_35 O 0.1052(3) 0.5254(3) 0.2333(3)
O1_36 O 0.8948(3) 0.4746(3) 0.2333(3)
O1_37 O 0.7333(3) 0.4746(3) 0.1052(3)
O1_38 O 0.6052(3) 0.7333(3) 0.9746(3)
O1_39 O 0.4746(3) 0.6052(3) 0.2333(3)
O1_40 O 0.9746(3) 0.2333(3) 0.3948(3)
O1_41 O 0.9746(3) 0.7667(3) 0.6052(3)
O1_42 O 0.0254(3) 0.2333(3) 0.6052(3)
O1_43 O 0.2333(3) 0.1052(3) 0.5254(3)
O1_44 O 0.7667(3) 0.1052(3) 0.4746(3)
O1_45 O 0.2333(3) 0.8948(3) 0.4746(3)
O1_46 O 0.1052(3) 0.9746(3) 0.2667(3)
O1_47 O 0.1052(3) 0.0254(3) 0.7333(3)
O1_48 O 0.8948(3) 0.9746(3) 0.7333(3)
O1_49 O 0.7667(3) 0.0254(3) 0.1052(3)
O1_50 O 0.7667(3) 0.9746(3) 0.8948(3)
O1_51 O 0.2333(3) 0.0254(3) 0.8948(3)
O1_52 O 0.1052(3) 0.7667(3) 0.0254(3)
O1_53 O 0.8948(3) 0.7667(3) 0.9746(3)
O1_54 O 0.8948(3) 0.2333(3) 0.0254(3)
O1_55 O 0.0254(3) 0.1052(3) 0.7667(3)
O1_56 O 0.9746(3) 0.8948(3) 0.7667(3)
O1_57 O 0.0254(3) 0.8948(3) 0.2333(3)
O1_58 O 0.5254(3) 0.2667(3) 0.3948(3)
O1_59 O 0.2667(3) 0.3948(3) 0.5254(3)
O1_60 O 0.3948(3) 0.5254(3) 0.2667(3)
O1_61 O 0.7667(3) 0.5254(3) 0.6052(3)
O1_62 O 0.7667(3) 0.4746(3) 0.3948(3)
O1_63 O 0.2333(3) 0.5254(3) 0.3948(3)
O1_64 O 0.1052(3) 0.2667(3) 0.5254(3)
O1_65 O 0.8948(3) 0.2667(3) 0.4746(3)
O1_66 O 0.8948(3) 0.7333(3) 0.5254(3)
O1_67 O 0.0254(3) 0.6052(3) 0.2667(3)
O1_68 O 0.9746(3) 0.3948(3) 0.2667(3)
O1_69 O 0.0254(3) 0.3948(3) 0.7333(3)
O1_70 O 0.5254(3) 0.7667(3) 0.8948(3)
O1_71 O 0.2667(3) 0.8948(3) 0.0254(3)
O1_72 O 0.3948(3) 0.0254(3) 0.7667(3)
O1_73 O 0.2667(3) 0.0254(3) 0.6052(3)
O1_74 O 0.2667(3) 0.9746(3) 0.3948(3)
O1_75 O 0.7333(3) 0.0254(3) 0.3948(3)
O1_76 O 0.6052(3) 0.7667(3) 0.5254(3)
O1_77 O 0.3948(3) 0.7667(3) 0.4746(3)
O1_78 O 0.3948(3) 0.2333(3) 0.5254(3)
O1_79 O 0.5254(3) 0.1052(3) 0.2667(3)
O1_80 O 0.4746(3) 0.8948(3) 0.2667(3)
O1_81 O 0.5254(3) 0.8948(3) 0.7333(3)
O1_82 O 0.0254(3) 0.2667(3) 0.8948(3)
O1_83 O 0.7667(3) 0.3948(3) 0.0254(3)
O1_84 O 0.8948(3) 0.5254(3) 0.7667(3)
O1_85 O 0.2667(3) 0.5254(3) 0.1052(3)
O1_86 O 0.2667(3) 0.4746(3) 0.8948(3)
O1_87 O 0.7333(3) 0.5254(3) 0.8948(3)
O1_88 O 0.6052(3) 0.2667(3) 0.0254(3)
O1_89 O 0.3948(3) 0.2667(3) 0.9746(3)
O1_90 O 0.3948(3) 0.7333(3) 0.0254(3)
O1_91 O 0.5254(3) 0.6052(3) 0.7667(3)
O1_92 O 0.4746(3) 0.3948(3) 0.7667(3)
O1_93 O 0.5254(3) 0.3948(3) 0.2333(3)
O1_94 O 0.0254(3) 0.7667(3) 0.3948(3)
O1_95 O 0.7667(3) 0.8948(3) 0.5254(3)
O1_96 O 0.8948(3) 0.0254(3) 0.2667(3)
O1_97 O 0.7667(3) 0.0254(3) 0.8948(3)
O1_98 O 0.8948(3) 0.7667(3) 0.0254(3)
O1_99 O 0.0254(3) 0.8948(3) 0.7667(3)
O1_100 O 0.5254(3) 0.2667(3) 0.6052(3)
O1_101 O 0.5254(3) 0.7333(3) 0.3948(3)
O1_102 O 0.4746(3) 0.2667(3) 0.3948(3)
O1_103 O 0.2667(3) 0.3948(3) 0.4746(3)
O1_104 O 0.7333(3) 0.3948(3) 0.5254(3)
O1_105 O 0.2667(3) 0.6052(3) 0.5254(3)
O1_106 O 0.3948(3) 0.5254(3) 0.7333(3)
O1_107 O 0.3948(3) 0.4746(3) 0.2667(3)
O1_108 O 0.6052(3) 0.5254(3) 0.2667(3)
O1_109 O 0.7667(3) 0.5254(3) 0.3948(3)
O1_110 O 0.8948(3) 0.2667(3) 0.5254(3)
O1_111 O 0.0254(3) 0.3948(3) 0.2667(3)
O1_112 O 0.5254(3) 0.7667(3) 0.1052(3)
O1_113 O 0.5254(3) 0.2333(3) 0.8948(3)
O1_114 O 0.4746(3) 0.7667(3) 0.8948(3)
O1_115 O 0.2667(3) 0.8948(3) 0.9746(3)
O1_116 O 0.7333(3) 0.8948(3) 0.0254(3)
O1_117 O 0.2667(3) 0.1052(3) 0.0254(3)
O1_118 O 0.3948(3) 0.0254(3) 0.2333(3)
O1_119 O 0.3948(3) 0.9746(3) 0.7667(3)
O1_120 O 0.6052(3) 0.0254(3) 0.7667(3)
O1_121 O 0.2667(3) 0.0254(3) 0.3948(3)
O1_122 O 0.3948(3) 0.7667(3) 0.5254(3)
O1_123 O 0.5254(3) 0.8948(3) 0.2667(3)
O1_124 O 0.0254(3) 0.2667(3) 0.1052(3)
O1_125 O 0.0254(3) 0.7333(3) 0.8948(3)
O1_126 O 0.9746(3) 0.2667(3) 0.8948(3)
O1_127 O 0.7667(3) 0.3948(3) 0.9746(3)
O1_128 O 0.2333(3) 0.3948(3) 0.0254(3)
O1_129 O 0.7667(3) 0.6052(3) 0.0254(3)
O1_130 O 0.8948(3) 0.5254(3) 0.2333(3)
O1_131 O 0.8948(3) 0.4746(3) 0.7667(3)
O1_132 O 0.1052(3) 0.5254(3) 0.7667(3)
O1_133 O 0.2667(3) 0.5254(3) 0.8948(3)
O1_134 O 0.3948(3) 0.2667(3) 0.0254(3)
O1_135 O 0.5254(3) 0.3948(3) 0.7667(3)
O1_136 O 0.0254(3) 0.7667(3) 0.6052(3)
O1_137 O 0.0254(3) 0.2333(3) 0.3948(3)
O1_138 O 0.9746(3) 0.7667(3) 0.3948(3)
O1_139 O 0.7667(3) 0.8948(3) 0.4746(3)
O1_140 O 0.2333(3) 0.8948(3) 0.5254(3)
O1_141 O 0.7667(3) 0.1052(3) 0.5254(3)
O1_142 O 0.8948(3) 0.0254(3) 0.7333(3)
O1_143 O 0.8948(3) 0.9746(3) 0.2667(3)
O1_144 O 0.1052(3) 0.0254(3) 0.2667(3)
O1_145 O 0.2333(3) 0.9746(3) 0.8948(3)
O1_146 O 0.2333(3) 0.0254(3) 0.1052(3)
O1_147 O 0.7667(3) 0.9746(3) 0.1052(3)
O1_148 O 0.8948(3) 0.2333(3) 0.9746(3)
O1_149 O 0.1052(3) 0.2333(3) 0.0254(3)
O1_150 O 0.1052(3) 0.7667(3) 0.9746(3)
O1_151 O 0.9746(3) 0.8948(3) 0.2333(3)
O1_152 O 0.0254(3) 0.1052(3) 0.2333(3)
O1_153 O 0.9746(3) 0.1052(3) 0.7667(3)
O1_154 O 0.4746(3) 0.7333(3) 0.6052(3)
O1_155 O 0.7333(3) 0.6052(3) 0.4746(3)
O1_156 O 0.6052(3) 0.4746(3) 0.7333(3)
O1_157 O 0.2333(3) 0.4746(3) 0.3948(3)
O1_158 O 0.2333(3) 0.5254(3) 0.6052(3)
O1_159 O 0.7667(3) 0.4746(3) 0.6052(3)
O1_160 O 0.8948(3) 0.7333(3) 0.4746(3)
O1_161 O 0.1052(3) 0.7333(3) 0.5254(3)
O1_162 O 0.1052(3) 0.2667(3) 0.4746(3)
O1_163 O 0.9746(3) 0.3948(3) 0.7333(3)
O1_164 O 0.0254(3) 0.6052(3) 0.7333(3)
O1_165 O 0.9746(3) 0.6052(3) 0.2667(3)
O1_166 O 0.4746(3) 0.2333(3) 0.1052(3)
O1_167 O 0.7333(3) 0.1052(3) 0.9746(3)
O1_168 O 0.6052(3) 0.9746(3) 0.2333(3)
O1_169 O 0.7333(3) 0.9746(3) 0.3948(3)
O1_170 O 0.7333(3) 0.0254(3) 0.6052(3)
O1_171 O 0.2667(3) 0.9746(3) 0.6052(3)
O1_172 O 0.3948(3) 0.2333(3) 0.4746(3)
O1_173 O 0.6052(3) 0.2333(3) 0.5254(3)
O1_174 O 0.6052(3) 0.7667(3) 0.4746(3)
O1_175 O 0.4746(3) 0.8948(3) 0.7333(3)
O1_176 O 0.5254(3) 0.1052(3) 0.7333(3)
O1_177 O 0.4746(3) 0.1052(3) 0.2667(3)
O1_178 O 0.9746(3) 0.7333(3) 0.1052(3)
O1_179 O 0.2333(3) 0.6052(3) 0.9746(3)
O1_180 O 0.1052(3) 0.4746(3) 0.2333(3)
O1_181 O 0.7333(3) 0.4746(3) 0.8948(3)
O1_182 O 0.7333(3) 0.5254(3) 0.1052(3)
O1_183 O 0.2667(3) 0.4746(3) 0.1052(3)
O1_184 O 0.3948(3) 0.7333(3) 0.9746(3)
O1_185 O 0.6052(3) 0.7333(3) 0.0254(3)
O1_186 O 0.6052(3) 0.2667(3) 0.9746(3)
O1_187 O 0.4746(3) 0.3948(3) 0.2333(3)
O1_188 O 0.5254(3) 0.6052(3) 0.2333(3)
O1_189 O 0.4746(3) 0.6052(3) 0.7667(3)
O1_190 O 0.9746(3) 0.2333(3) 0.6052(3)
O1_191 O 0.2333(3) 0.1052(3) 0.4746(3)
O1_192 O 0.1052(3) 0.9746(3) 0.7333(3)
O2 O 0.4312(4) 0.9447(4) 0.2069(4)
O2_2 O 0.2069(4) 0.4312(4) 0.9447(4)
O2_3 O 0.9447(4) 0.2069(4) 0.4312(4)
O2_4 O 0.4447(4) 0.9312(4) 0.2931(4)
O2_5 O 0.4447(4) 0.0688(4) 0.7069(4)
O2_6 O 0.5553(4) 0.9312(4) 0.7069(4)
O2_7 O 0.9312(4) 0.7069(4) 0.5553(4)
O2_8 O 0.0688(4) 0.7069(4) 0.4447(4)
O2_9 O 0.9312(4) 0.2931(4) 0.4447(4)
O2_10 O 0.7069(4) 0.4447(4) 0.0688(4)
O2_11 O 0.7069(4) 0.5553(4) 0.9312(4)
O2_12 O 0.2931(4) 0.4447(4) 0.9312(4)
O2_13 O 0.4312(4) 0.4447(4) 0.7069(4)
O2_14 O 0.2069(4) 0.9312(4) 0.4447(4)
O2_15 O 0.9447(4) 0.7069(4) 0.9312(4)
O2_16 O 0.4447(4) 0.4312(4) 0.7931(4)
O2_17 O 0.4447(4) 0.5688(4) 0.2069(4)
O2_18 O 0.5553(4) 0.4312(4) 0.2069(4)
O2_19 O 0.9312(4) 0.2069(4) 0.0553(4)
O2_20 O 0.0688(4) 0.2069(4) 0.9447(4)
O2_21 O 0.9312(4) 0.7931(4) 0.9447(4)
O2_22 O 0.7069(4) 0.9447(4) 0.5688(4)
O2_23 O 0.7069(4) 0.0553(4) 0.4312(4)
O2_24 O 0.2931(4) 0.9447(4) 0.4312(4)
O2_25 O 0.9312(4) 0.9447(4) 0.7069(4)
O2_26 O 0.7069(4) 0.4312(4) 0.4447(4)
O2_27 O 0.4447(4) 0.2069(4) 0.9312(4)
O2_28 O 0.9447(4) 0.9312(4) 0.7931(4)
O2_29 O 0.9447(4) 0.0688(4) 0.2069(4)
O2_30 O 0.0553(4) 0.9312(4) 0.2069(4)
O2_31 O 0.4312(4) 0.7069(4) 0.0553(4)
O2_32 O 0.5688(4) 0.7069(4) 0.9447(4)
O2_33 O 0.4312(4) 0.2931(4) 0.9447(4)
O2_34 O 0.2069(4) 0.4447(4) 0.5688(4)
O2_35 O 0.2069(4) 0.5553(4) 0.4312(4)
O2_36 O 0.7931(4) 0.4447(4) 0.4312(4)
O2_37 O 0.9312(4) 0.4447(4) 0.2069(4)
O2_38 O 0.7069(4) 0.9312(4) 0.9447(4)
O2_39 O 0.4447(4) 0.7069(4) 0.4312(4)
O2_40 O 0.9447(4) 0.4312(4) 0.2931(4)
O2_41 O 0.9447(4) 0.5688(4) 0.7069(4)
O2_42 O 0.0553(4) 0.4312(4) 0.7069(4)
O2_43 O 0.4312(4) 0.2069(4) 0.5553(4)
O2_44 O 0.5688(4) 0.2069(4) 0.4447(4)
O2_45 O 0.4312(4) 0.7931(4) 0.4447(4)
O2_46 O 0.2069(4) 0.9447(4) 0.0688(4)
O2_47 O 0.2069(4) 0.0553(4) 0.9312(4)
O2_48 O 0.7931(4) 0.9447(4) 0.9312(4)
O2_49 O 0.5688(4) 0.0553(4) 0.2069(4)
O2_50 O 0.5688(4) 0.9447(4) 0.7931(4)
O2_51 O 0.4312(4) 0.0553(4) 0.7931(4)
O2_52 O 0.2069(4) 0.5688(4) 0.0553(4)
O2_53 O 0.7931(4) 0.5688(4) 0.9447(4)
O2_54 O 0.7931(4) 0.4312(4) 0.0553(4)
O2_55 O 0.0553(4) 0.2069(4) 0.5688(4)
O2_56 O 0.9447(4) 0.7931(4) 0.5688(4)
O2_57 O 0.0553(4) 0.7931(4) 0.4312(4)
O2_58 O 0.5553(4) 0.0688(4) 0.2931(4)
O2_59 O 0.0688(4) 0.2931(4) 0.5553(4)
O2_60 O 0.2931(4) 0.5553(4) 0.0688(4)
O2_61 O 0.5688(4) 0.5553(4) 0.7069(4)
O2_62 O 0.5688(4) 0.4447(4) 0.2931(4)
O2_63 O 0.4312(4) 0.5553(4) 0.2931(4)
O2_64 O 0.2069(4) 0.0688(4) 0.5553(4)
O2_65 O 0.7931(4) 0.0688(4) 0.4447(4)
O2_66 O 0.7931(4) 0.9312(4) 0.5553(4)
O2_67 O 0.0553(4) 0.7069(4) 0.0688(4)
O2_68 O 0.9447(4) 0.2931(4) 0.0688(4)
O2_69 O 0.0553(4) 0.2931(4) 0.9312(4)
O2_70 O 0.5553(4) 0.5688(4) 0.7931(4)
O2_71 O 0.0688(4) 0.7931(4) 0.0553(4)
O2_72 O 0.2931(4) 0.0553(4) 0.5688(4)
O2_73 O 0.0688(4) 0.0553(4) 0.7069(4)
O2_74 O 0.0688(4) 0.9447(4) 0.2931(4)
O2_75 O 0.9312(4) 0.0553(4) 0.2931(4)
O2_76 O 0.7069(4) 0.5688(4) 0.5553(4)
O2_77 O 0.2931(4) 0.5688(4) 0.4447(4)
O2_78 O 0.2931(4) 0.4312(4) 0.5553(4)
O2_79 O 0.5553(4) 0.2069(4) 0.0688(4)
O2_80 O 0.4447(4) 0.7931(4) 0.0688(4)
O2_81 O 0.5553(4) 0.7931(4) 0.9312(4)
O2_82 O 0.0553(4) 0.0688(4) 0.7931(4)
O2_83 O 0.5688(4) 0.2931(4) 0.0553(4)
O2_84 O 0.7931(4) 0.5553(4) 0.5688(4)
O2_85 O 0.0688(4) 0.5553(4) 0.2069(4)
O2_86 O 0.0688(4) 0.4447(4) 0.7931(4)
O2_87 O 0.9312(4) 0.5553(4) 0.7931(4)
O2_88 O 0.7069(4) 0.0688(4) 0.0553(4)
O2_89 O 0.2931(4) 0.0688(4) 0.9447(4)
O2_90 O 0.2931(4) 0.9312(4) 0.0553(4)
O2_91 O 0.5553(4) 0.7069(4) 0.5688(4)
O2_92 O 0.4447(4) 0.2931(4) 0.5688(4)
O2_93 O 0.5553(4) 0.2931(4) 0.4312(4)
O2_94 O 0.0553(4) 0.5688(4) 0.2931(4)
O2_95 O 0.5688(4) 0.7931(4) 0.5553(4)
O2_96 O 0.7931(4) 0.0553(4) 0.0688(4)
O2_97 O 0.5688(4) 0.0553(4) 0.7931(4)
O2_98 O 0.7931(4) 0.5688(4) 0.0553(4)
O2_99 O 0.0553(4) 0.7931(4) 0.5688(4)
O2_100 O 0.5553(4) 0.0688(4) 0.7069(4)
O2_101 O 0.5553(4) 0.9312(4) 0.2931(4)
O2_102 O 0.4447(4) 0.0688(4) 0.2931(4)
O2_103 O 0.0688(4) 0.2931(4) 0.4447(4)
O2_104 O 0.9312(4) 0.2931(4) 0.5553(4)
O2_105 O 0.0688(4) 0.7069(4) 0.5553(4)
O2_106 O 0.2931(4) 0.5553(4) 0.9312(4)
O2_107 O 0.2931(4) 0.4447(4) 0.0688(4)
O2_108 O 0.7069(4) 0.5553(4) 0.0688(4)
O2_109 O 0.5688(4) 0.5553(4) 0.2931(4)
O2_110 O 0.7931(4) 0.0688(4) 0.5553(4)
O2_111 O 0.0553(4) 0.2931(4) 0.0688(4)
O2_112 O 0.5553(4) 0.5688(4) 0.2069(4)
O2_113 O 0.5553(4) 0.4312(4) 0.7931(4)
O2_114 O 0.4447(4) 0.5688(4) 0.7931(4)
O2_115 O 0.0688(4) 0.7931(4) 0.9447(4)
O2_116 O 0.9312(4) 0.7931(4) 0.0553(4)
O2_117 O 0.0688(4) 0.2069(4) 0.0553(4)
O2_118 O 0.2931(4) 0.0553(4) 0.4312(4)
O2_119 O 0.2931(4) 0.9447(4) 0.5688(4)
O2_120 O 0.7069(4) 0.0553(4) 0.5688(4)
O2_121 O 0.0688(4) 0.0553(4) 0.2931(4)
O2_122 O 0.2931(4) 0.5688(4) 0.5553(4)
O2_123 O 0.5553(4) 0.7931(4) 0.0688(4)
O2_124 O 0.0553(4) 0.0688(4) 0.2069(4)
O2_125 O 0.0553(4) 0.9312(4) 0.7931(4)
O2_126 O 0.9447(4) 0.0688(4) 0.7931(4)
O2_127 O 0.5688(4) 0.2931(4) 0.9447(4)
O2_128 O 0.4312(4) 0.2931(4) 0.0553(4)
O2_129 O 0.5688(4) 0.7069(4) 0.0553(4)
O2_130 O 0.7931(4) 0.5553(4) 0.4312(4)
O2_131 O 0.7931(4) 0.4447(4) 0.5688(4)
O2_132 O 0.2069(4) 0.5553(4) 0.5688(4)
O2_133 O 0.0688(4) 0.5553(4) 0.7931(4)
O2_134 O 0.2931(4) 0.0688(4) 0.0553(4)
O2_135 O 0.5553(4) 0.2931(4) 0.5688(4)
O2_136 O 0.0553(4) 0.5688(4) 0.7069(4)
O2_137 O 0.0553(4) 0.4312(4) 0.2931(4)
O2_138 O 0.9447(4) 0.5688(4) 0.2931(4)
O2_139 O 0.5688(4) 0.7931(4) 0.4447(4)
O2_140 O 0.4312(4) 0.7931(4) 0.5553(4)
O2_141 O 0.5688(4) 0.2069(4) 0.5553(4)
O2_142 O 0.7931(4) 0.0553(4) 0.9312(4)
O2_143 O 0.7931(4) 0.9447(4) 0.0688(4)
O2_144 O 0.2069(4) 0.0553(4) 0.0688(4)
O2_145 O 0.4312(4) 0.9447(4) 0.7931(4)
O2_146 O 0.4312(4) 0.0553(4) 0.2069(4)
O2_147 O 0.5688(4) 0.9447(4) 0.2069(4)
O2_148 O 0.7931(4) 0.4312(4) 0.9447(4)
O2_149 O 0.2069(4) 0.4312(4) 0.0553(4)
O2_150 O 0.2069(4) 0.5688(4) 0.9447(4)
O2_151 O 0.9447(4) 0.7931(4) 0.4312(4)
O2_152 O 0.0553(4) 0.2069(4) 0.4312(4)
O2_153 O 0.9447(4) 0.2069(4) 0.5688(4)
O2_154 O 0.4447(4) 0.9312(4) 0.7069(4)
O2_155 O 0.9312(4) 0.7069(4) 0.4447(4)
O2_156 O 0.7069(4) 0.4447(4) 0.9312(4)
O2_157 O 0.4312(4) 0.4447(4) 0.2931(4)
O2_158 O 0.4312(4) 0.5553(4) 0.7069(4)
O2_159 O 0.5688(4) 0.4447(4) 0.7069(4)
O2_160 O 0.7931(4) 0.9312(4) 0.4447(4)
O2_161 O 0.2069(4) 0.9312(4) 0.5553(4)
O2_162 O 0.2069(4) 0.0688(4) 0.4447(4)
O2_163 O 0.9447(4) 0.2931(4) 0.9312(4)
O2_164 O 0.0553(4) 0.7069(4) 0.9312(4)
O2_165 O 0.9447(4) 0.7069(4) 0.0688(4)
O2_166 O 0.4447(4) 0.4312(4) 0.2069(4)
O2_167 O 0.9312(4) 0.2069(4) 0.9447(4)
O2_168 O 0.7069(4) 0.9447(4) 0.4312(4)
O2_169 O 0.9312(4) 0.9447(4) 0.2931(4)
O2_170 O 0.9312(4) 0.0553(4) 0.7069(4)
O2_171 O 0.0688(4) 0.9447(4) 0.7069(4)
O2_172 O 0.2931(4) 0.4312(4) 0.4447(4)
O2_173 O 0.7069(4) 0.4312(4) 0.5553(4)
O2_174 O 0.7069(4) 0.5688(4) 0.4447(4)
O2_175 O 0.4447(4) 0.7931(4) 0.9312(4)
O2_176 O 0.5553(4) 0.2069(4) 0.9312(4)
O2_177 O 0.4447(4) 0.2069(4) 0.0688(4)
O2_178 O 0.9447(4) 0.9312(4) 0.2069(4)
O2_179 O 0.4312(4) 0.7069(4) 0.9447(4)
O2_180 O 0.2069(4) 0.4447(4) 0.4312(4)
O2_181 O 0.9312(4) 0.4447(4) 0.7931(4)
O2_182 O 0.9312(4) 0.5553(4) 0.2069(4)
O2_183 O 0.0688(4) 0.4447(4) 0.2069(4)
O2_184 O 0.2931(4) 0.9312(4) 0.9447(4)
O2_185 O 0.7069(4) 0.9312(4) 0.0553(4)
O2_186 O 0.7069(4) 0.0688(4) 0.9447(4)
O2_187 O 0.4447(4) 0.2931(4) 0.4312(4)
O2_188 O 0.5553(4) 0.7069(4) 0.4312(4)
O2_189 O 0.4447(4) 0.7069(4) 0.5688(4)
O2_190 O 0.9447(4) 0.4312(4) 0.7069(4)
O2_191 O 0.4312(4) 0.2069(4) 0.4447(4)
O2_192 O 0.2069(4) 0.9447(4) 0.9312(4)
O3 O 0.4003(7) 0.0000 0.1908(7)
H166 H 0.420628 3.08149e-33 0.1908
H167 H 0.393524 0.0165974 0.181218
O3_2 O 0.4003(7) 1.0000 0.1908(7)
H166_2 H 0.420628 1 0.1908
H168 H 0.393524 0.983403 0.181218
O3_3 O 0.1908(7) 0.4003(7) 0.0000
H166_3 H 0.1908 0.420628 1.54074e-33
H167_2 H 0.181218 0.393524 0.0165974
O3_4 O 0.1908(7) 0.4003(7) 1.0000
H166_4 H 0.1908 0.420628 1
H168_2 H 0.181218 0.393524 0.983403
O3_5 O 0.0000 0.1908(7) 0.4003(7)
H166_5 H 3.08149e-33 0.1908 0.420628
H167_3 H 0.0165974 0.181218 0.393524
O3_6 O 1.0000 0.1908(7) 0.4003(7)
H166_6 H 1 0.1908 0.420628
H168_3 H 0.983403 0.181218 0.393524
O3_7 O 0.5000 0.9003(7) 0.3092(7)
O3_8 O 0.5000 0.0997(7) 0.6908(7)
O3_9 O 0.5000 0.9003(7) 0.6908(7)
O3_10 O 0.9003(7) 0.6908(7) 0.5000
O3_11 O 0.0997(7) 0.6908(7) 0.5000
O3_12 O 0.9003(7) 0.3092(7) 0.5000
O3_13 O 0.6908(7) 0.5000 0.0997(7)
O3_14 O 0.6908(7) 0.5000 0.9003(7)
O3_15 O 0.3092(7) 0.5000 0.9003(7)
O3_16 O 0.4003(7) 0.5000 0.6908(7)
O3_17 O 0.1908(7) 0.9003(7) 0.5000
O3_18 O 0.0000 0.6908(7) 0.9003(7)
H166_7 H 2.46519e-32 0.6908 0.920628
H167_4 H 0.0165974 0.681218 0.893524
O3_19 O 1.0000 0.6908(7) 0.9003(7)
H166_8 H 1 0.6908 0.920628
H168_4 H 0.983403 0.681218 0.893524
O3_20 O 0.5000 0.4003(7) 0.8092(7)
O3_21 O 0.5000 0.5997(7) 0.1908(7)
O3_22 O 0.5000 0.4003(7) 0.1908(7)
O3_23 O 0.9003(7) 0.1908(7) -0.0000
H166_9 H 0.920628 0.1908 -1.54074e-33
H168_5 H 0.893524 0.181218 0.0165974
O3_24 O 0.9003(7) 0.1908(7) 1.0000
H166_10 H 0.920628 0.1908 1
H167_5 H 0.893524 0.181218 0.983403
O3_25 O 0.0997(7) 0.1908(7) 0.0000
H166_11 H 0.0793725 0.1908 1.54074e-33
H167_6 H 0.106476 0.181218 0.0165974
O3_26 O 0.0997(7) 0.1908(7) 1.0000
H166_12 H 0.0793725 0.1908 1
H168_6 H 0.106476 0.181218 0.983403
O3_27 O 0.9003(7) 0.8092(7) 0.0000
H166_13 H 0.920628 0.8092 1.54074e-33
H167_7 H 0.893524 0.818782 0.0165974
O3_28 O 0.9003(7) 0.8092(7) 1.0000
H166_14 H 0.920628 0.8092 1
H168_7 H 0.893524 0.818782 0.983403
O3_29 O 0.6908(7) 0.0000 0.5997(7)
H166_15 H 0.6908 0 0.579372
H167_8 H 0.681218 0.0165974 0.606476
O3_30 O 0.6908(7) 1.0000 0.5997(7)
H166_16 H 0.6908 1 0.579372
H168_8 H 0.681218 0.983403 0.606476
O3_31 O 0.6908(7) 0.0000 0.4003(7)
H166_17 H 0.6908 3.08149e-33 0.420628
H168_9 H 0.681218 0.0165974 0.393524
O3_32 O 0.6908(7) 1.0000 0.4003(7)
H166_18 H 0.6908 1 0.420628
H167_9 H 0.681218 0.983403 0.393524
O3_33 O 0.3092(7) 0.0000 0.4003(7)
H166_19 H 0.3092 3.08149e-33 0.420628
H167_10 H 0.318782 0.0165974 0.393524
O3_34 O 0.3092(7) 1.0000 0.4003(7)
H166_20 H 0.3092 1 0.420628
H168_10 H 0.318782 0.983403 0.393524
O3_35 O 0.9003(7) 0.0000 0.6908(7)
H166_21 H 0.920628 6.16298e-33 0.6908
H167_11 H 0.893524 0.0165974 0.681218
O3_36 O 0.9003(7) 1.0000 0.6908(7)
H166_22 H 0.920628 1 0.6908
H168_11 H 0.893524 0.983403 0.681218
O3_37 O 0.6908(7) 0.4003(7) 0.5000
O3_38 O 0.5000 0.1908(7) 0.9003(7)
O3_39 O 0.0000 0.9003(7) 0.8092(7)
H166_23 H 1.84889e-32 0.920628 0.8092
H167_12 H 0.0165974 0.893524 0.818782
O3_40 O 1.0000 0.9003(7) 0.8092(7)
H166_24 H 1 0.920628 0.8092
H168_12 H 0.983403 0.893524 0.818782
O3_41 O 0.0000 0.0997(7) 0.1908(7)
H166_25 H 6.16298e-33 0.0793725 0.1908
H167_13 H 0.0165974 0.106476 0.181218
O3_42 O 1.0000 0.0997(7) 0.1908(7)
H166_26 H 1 0.0793725 0.1908
H168_13 H 0.983403 0.106476 0.181218
O3_43 O 0.0000 0.9003(7) 0.1908(7)
H166_27 H 9.24446e-33 0.920628 0.1908
H168_14 H 0.0165974 0.893524 0.181218
O3_44 O 1.0000 0.9003(7) 0.1908(7)
H166_28 H 1 0.920628 0.1908
H167_14 H 0.983403 0.893524 0.181218
O3_45 O 0.4003(7) 0.6908(7) -0.0000
H166_29 H 0.420628 0.6908 -1.54074e-33
H168_15 H 0.393524 0.681218 0.0165974
O3_46 O 0.4003(7) 0.6908(7) 1.0000
H166_30 H 0.420628 0.6908 1
H167_15 H 0.393524 0.681218 0.983403
O3_47 O 0.5997(7) 0.6908(7) 0.0000
H166_31 H 0.579372 0.6908 1.54074e-33
H167_16 H 0.606476 0.681218 0.0165974
O3_48 O 0.5997(7) 0.6908(7) 1.0000
H166_32 H 0.579372 0.6908 1
H168_16 H 0.606476 0.681218 0.983403
O3_49 O 0.4003(7) 0.3092(7) 0.0000
H166_33 H 0.420628 0.3092 1.54074e-33
H167_17 H 0.393524 0.318782 0.0165974
O3_50 O 0.4003(7) 0.3092(7) 1.0000
H166_34 H 0.420628 0.3092 1
H168_17 H 0.393524 0.318782 0.983403
O3_51 O 0.1908(7) 0.5000 0.5997(7)
O3_52 O 0.1908(7) 0.5000 0.4003(7)
O3_53 O 0.8092(7) 0.5000 0.4003(7)
O3_54 O 0.9003(7) 0.5000 0.1908(7)
O3_55 O 0.6908(7) 0.9003(7) 0.0000
H166_35 H 0.6908 0.920628 1.54074e-33
H167_18 H 0.681218 0.893524 0.0165974
O3_56 O 0.6908(7) 0.9003(7) 1.0000
H166_36 H 0.6908 0.920628 1
H168_18 H 0.681218 0.893524 0.983403
O3_57 O 0.5000 0.6908(7) 0.4003(7)
O3_58 O 0.0000 0.4003(7) 0.3092(7)
H166_37 H 6.16298e-33 0.420628 0.3092
H167_19 H 0.0165974 0.393524 0.318782
O3_59 O 1.0000 0.4003(7) 0.3092(7)
H166_38 H 1 0.420628 0.3092
H168_19 H 0.983403 0.393524 0.318782
O3_60 O 0.0000 0.5997(7) 0.6908(7)
H166_39 H 6.16298e-33 0.579372 0.6908
H167_20 H 0.0165974 0.606476 0.681218
O3_61 O 1.0000 0.5997(7) 0.6908(7)
H166_40 H 1 0.579372 0.6908
H168_20 H 0.983403 0.606476 0.681218
O3_62 O 0.0000 0.4003(7) 0.6908(7)
H166_41 H 6.16298e-33 0.420628 0.6908
H168_21 H 0.0165974 0.393524 0.681218
O3_63 O 1.0000 0.4003(7) 0.6908(7)
H166_42 H 1 0.420628 0.6908
H167_21 H 0.983403 0.393524 0.681218
O3_64 O 0.4003(7) 0.1908(7) 0.5000
O3_65 O 0.5997(7) 0.1908(7) 0.5000
O3_66 O 0.4003(7) 0.8092(7) 0.5000
O3_67 O 0.1908(7) 0.0000 0.0997(7)
H166_43 H 0.1908 2.31112e-33 0.0793725
H167_22 H 0.181218 0.0165974 0.106476
O3_68 O 0.1908(7) 1.0000 0.0997(7)
H166_44 H 0.1908 1 0.0793725
H168_22 H 0.181218 0.983403 0.106476
O3_69 O 0.1908(7) 0.0000 0.9003(7)
H166_45 H 0.1908 1.2326e-32 0.920628
H168_23 H 0.181218 0.0165974 0.893524
O3_70 O 0.1908(7) 1.0000 0.9003(7)
H166_46 H 0.1908 1 0.920628
H167_23 H 0.181218 0.983403 0.893524
O3_71 O 0.8092(7) 0.0000 0.9003(7)
H166_47 H 0.8092 1.2326e-32 0.920628
H167_24 H 0.818782 0.0165974 0.893524
O3_72 O 0.8092(7) 1.0000 0.9003(7)
H166_48 H 0.8092 1 0.920628
H168_24 H 0.818782 0.983403 0.893524
O3_73 O 0.5997(7) 0.0000 0.1908(7)
H166_49 H 0.579372 0 0.1908
H168_25 H 0.606476 0.0165974 0.181218
O3_74 O 0.5997(7) 1.0000 0.1908(7)
H166_50 H 0.579372 1 0.1908
H167_25 H 0.606476 0.983403 0.181218
O3_75 O 0.5997(7) 0.0000 0.8092(7)
H166_51 H 0.579372 1.2326e-32 0.8092
H167_26 H 0.606476 0.0165974 0.818782
O3_76 O 0.5997(7) 1.0000 0.8092(7)
H166_52 H 0.579372 1 0.8092
H168_26 H 0.606476 0.983403 0.818782
O3_77 O 0.4003(7) 0.0000 0.8092(7)
H166_53 H 0.420628 1.2326e-32 0.8092
H168_27 H 0.393524 0.0165974 0.818782
O3_78 O 0.4003(7) 1.0000 0.8092(7)
H166_54 H 0.420628 1 0.8092
H167_27 H 0.393524 0.983403 0.818782
O3_79 O 0.1908(7) 0.5997(7) -0.0000
H166_55 H 0.1908 0.579372 -1.54074e-33
H168_28 H 0.181218 0.606476 0.0165974
O3_80 O 0.1908(7) 0.5997(7) 1.0000
H166_56 H 0.1908 0.579372 1
H167_28 H 0.181218 0.606476 0.983403
O3_81 O 0.8092(7) 0.5997(7) 0.0000
H166_57 H 0.8092 0.579372 1.54074e-33
H167_29 H 0.818782 0.606476 0.0165974
O3_82 O 0.8092(7) 0.5997(7) 1.0000
H166_58 H 0.8092 0.579372 1
H168_29 H 0.818782 0.606476 0.983403
O3_83 O 0.8092(7) 0.4003(7) -0.0000
H166_59 H 0.8092 0.420628 -1.54074e-33
H168_30 H 0.818782 0.393524 0.0165974
O3_84 O 0.8092(7) 0.4003(7) 1.0000
H166_60 H 0.8092 0.420628 1
H167_30 H 0.818782 0.393524 0.983403
O3_85 O 0.0000 0.1908(7) 0.5997(7)
H166_61 H 0 0.1908 0.579372
H168_31 H 0.0165974 0.181218 0.606476
O3_86 O 1.0000 0.1908(7) 0.5997(7)
H166_62 H 1 0.1908 0.579372
H167_31 H 0.983403 0.181218 0.606476
O3_87 O 0.0000 0.8092(7) 0.5997(7)
H166_63 H 1.84889e-32 0.8092 0.579372
H167_32 H 0.0165974 0.818782 0.606476
O3_88 O 1.0000 0.8092(7) 0.5997(7)
H166_64 H 1 0.8092 0.579372
H168_32 H 0.983403 0.818782 0.606476
O3_89 O 0.0000 0.8092(7) 0.4003(7)
H166_65 H 1.54074e-32 0.8092 0.420628
H168_33 H 0.0165974 0.818782 0.393524
O3_90 O 1.0000 0.8092(7) 0.4003(7)
H166_66 H 1 0.8092 0.420628
H167_33 H 0.983403 0.818782 0.393524
O3_91 O 0.5000 0.0997(7) 0.3092(7)
O3_92 O 0.0997(7) 0.3092(7) 0.5000
O3_93 O 0.3092(7) 0.5000 0.0997(7)
O3_94 O 0.5997(7) 0.5000 0.6908(7)
O3_95 O 0.5997(7) 0.5000 0.3092(7)
O3_96 O 0.4003(7) 0.5000 0.3092(7)
O3_97 O 0.1908(7) 0.0997(7) 0.5000
O3_98 O 0.8092(7) 0.0997(7) 0.5000
O3_99 O 0.8092(7) 0.9003(7) 0.5000
O3_100 O 0.0000 0.6908(7) 0.0997(7)
H166_67 H 1.46371e-32 0.6908 0.0793725
H168_34 H 0.0165974 0.681218 0.106476
O3_101 O 1.0000 0.6908(7) 0.0997(7)
H166_68 H 1 0.6908 0.0793725
H167_34 H 0.983403 0.681218 0.106476
O3_102 O 0.0000 0.3092(7) 0.0997(7)
H166_69 H -7.70372e-34 0.3092 0.0793725
H167_35 H 0.0165974 0.318782 0.106476
O3_103 O 1.0000 0.3092(7) 0.0997(7)
H166_70 H 1 0.3092 0.0793725
H168_35 H 0.983403 0.318782 0.106476
O3_104 O 0.0000 0.3092(7) 0.9003(7)
H166_71 H 1.2326e-32 0.3092 0.920628
H168_36 H 0.0165974 0.318782 0.893524
O3_105 O 1.0000 0.3092(7) 0.9003(7)
H166_72 H 1 0.3092 0.920628
H167_36 H 0.983403 0.318782 0.893524
O3_106 O 0.5000 0.5997(7) 0.8092(7)
O3_107 O 0.0997(7) 0.8092(7) -0.0000
H166_73 H 0.0793725 0.8092 -1.54074e-33
H168_37 H 0.106476 0.818782 0.0165974
O3_108 O 0.0997(7) 0.8092(7) 1.0000
H166_74 H 0.0793725 0.8092 1
H167_37 H 0.106476 0.818782 0.983403
O3_109 O 0.3092(7) 0.0000 0.5997(7)
H166_75 H 0.3092 0 0.579372
H168_38 H 0.318782 0.0165974 0.606476
O3_110 O 0.3092(7) 1.0000 0.5997(7)
H166_76 H 0.3092 1 0.579372
H167_38 H 0.318782 0.983403 0.606476
O3_111 O 0.0997(7) 0.0000 0.6908(7)
H166_77 H 0.0793725 6.16298e-33 0.6908
H168_39 H 0.106476 0.0165974 0.681218
O3_112 O 0.0997(7) 1.0000 0.6908(7)
H166_78 H 0.0793725 1 0.6908
H167_39 H 0.106476 0.983403 0.681218
O3_113 O 0.0997(7) 0.0000 0.3092(7)
H166_79 H 0.0793725 0 0.3092
H167_40 H 0.106476 0.0165974 0.318782
O3_114 O 0.0997(7) 1.0000 0.3092(7)
H166_80 H 0.0793725 1 0.3092
H168_40 H 0.106476 0.983403 0.318782
O3_115 O 0.9003(7) 0.0000 0.3092(7)
H166_81 H 0.920628 0 0.3092
H168_41 H 0.893524 0.0165974 0.318782
O3_116 O 0.9003(7) 1.0000 0.3092(7)
H166_82 H 0.920628 1 0.3092
H167_41 H 0.893524 0.983403 0.318782
O3_117 O 0.6908(7) 0.5997(7) 0.5000
O3_118 O 0.3092(7) 0.5997(7) 0.5000
O3_119 O 0.3092(7) 0.4003(7) 0.5000
O3_120 O 0.5000 0.1908(7) 0.0997(7)
O3_121 O 0.5000 0.8092(7) 0.0997(7)
O3_122 O 0.5000 0.8092(7) 0.9003(7)
O3_123 O 0.0000 0.0997(7) 0.8092(7)
H166_83 H 1.2326e-32 0.0793725 0.8092
H168_42 H 0.0165974 0.106476 0.818782
O3_124 O 1.0000 0.0997(7) 0.8092(7)
H166_84 H 1 0.0793725 0.8092
H167_42 H 0.983403 0.106476 0.818782
O3_125 O 0.5997(7) 0.3092(7) -0.0000
H166_85 H 0.579372 0.3092 -1.54074e-33
H168_43 H 0.606476 0.318782 0.0165974
O3_126 O 0.5997(7) 0.3092(7) 1.0000
H166_86 H 0.579372 0.3092 1
H167_43 H 0.606476 0.318782 0.983403
O3_127 O 0.8092(7) 0.5000 0.5997(7)
O3_128 O 0.0997(7) 0.5000 0.1908(7)
O3_129 O 0.0997(7) 0.5000 0.8092(7)
O3_130 O 0.9003(7) 0.5000 0.8092(7)
O3_131 O 0.6908(7) 0.0997(7) -0.0000
H166_87 H 0.6908 0.0793725 -1.54074e-33
H168_44 H 0.681218 0.106476 0.0165974
O3_132 O 0.6908(7) 0.0997(7) 1.0000
H166_88 H 0.6908 0.0793725 1
H167_44 H 0.681218 0.106476 0.983403
O3_133 O 0.3092(7) 0.0997(7) 0.0000
H166_89 H 0.3092 0.0793725 1.54074e-33
H167_45 H 0.318782 0.106476 0.0165974
O3_134 O 0.3092(7) 0.0997(7) 1.0000
H166_90 H 0.3092 0.0793725 1
H168_45 H 0.318782 0.106476 0.983403
O3_135 O 0.3092(7) 0.9003(7) -0.0000
H166_91 H 0.3092 0.920628 -1.54074e-33
H168_46 H 0.318782 0.893524 0.0165974
O3_136 O 0.3092(7) 0.9003(7) 1.0000
H166_92 H 0.3092 0.920628 1
H167_46 H 0.318782 0.893524 0.983403
O3_137 O 0.5000 0.6908(7) 0.5997(7)
O3_138 O 0.5000 0.3092(7) 0.5997(7)
O3_139 O 0.5000 0.3092(7) 0.4003(7)
O3_140 O 0.0000 0.5997(7) 0.3092(7)
H166_93 H 9.24446e-33 0.579372 0.3092
H168_47 H 0.0165974 0.606476 0.318782
O3_141 O 1.0000 0.5997(7) 0.3092(7)
H166_94 H 1 0.579372 0.3092
H167_47 H 0.983403 0.606476 0.318782
O3_142 O 0.5997(7) 0.8092(7) 0.5000
O3_143 O 0.8092(7) -0.0000 0.0997(7)
H166_95 H 0.8092 -1.54074e-33 0.0793725
H168_48 H 0.818782 0.0165974 0.106476
O3_144 O 0.8092(7) 1.0000 0.0997(7)
H166_96 H 0.8092 1 0.0793725
H167_48 H 0.818782 0.983403 0.106476
O4 O 0.2773(7) 0.0000 0.1146(7)
H169 H 0.297628 0 0.1146
H170 H 0.270524 0.0165974 0.105018
O4_2 O 0.2773(7) 1.0000 0.1146(7)
H169_2 H 0.297628 1 0.1146
H171 H 0.270524 0.983403 0.105018
O4_3 O 0.1146(7) 0.2773(7) 0.0000
H169_3 H 0.1146 0.297628 0
H170_2 H 0.105018 0.270524 0.0165974
O4_4 O 0.1146(7) 0.2773(7) 1.0000
H169_4 H 0.1146 0.297628 1
H171_2 H 0.105018 0.270524 0.983403
O4_5 O 0.0000 0.1146(7) 0.2773(7)
H169_5 H 6.16298e-33 0.1146 0.297628
H170_3 H 0.0165974 0.105018 0.270524
O4_6 O 1.0000 0.1146(7) 0.2773(7)
H169_6 H 1 0.1146 0.297628
H171_3 H 0.983403 0.105018 0.270524
O4_7 O 0.5000 0.7773(7) 0.3854(7)
O4_8 O 0.5000 0.2227(7) 0.6146(7)
O4_9 O 0.5000 0.7773(7) 0.6146(7)
O4_10 O 0.7773(7) 0.6146(7) 0.5000
O4_11 O 0.2227(7) 0.6146(7) 0.5000
O4_12 O 0.7773(7) 0.3854(7) 0.5000
O4_13 O 0.6146(7) 0.5000 0.2227(7)
O4_14 O 0.6146(7) 0.5000 0.7773(7)
O4_15 O 0.3854(7) 0.5000 0.7773(7)
O4_16 O 0.2773(7) 0.5000 0.6146(7)
O4_17 O 0.1146(7) 0.7773(7) 0.5000
O4_18 O 0.0000 0.6146(7) 0.7773(7)
H169_7 H 1.84889e-32 0.6146 0.797628
H170_4 H 0.0165974 0.605018 0.770524
O4_19 O 1.0000 0.6146(7) 0.7773(7)
H169_8 H 1 0.6146 0.797628
H171_4 H 0.983403 0.605018 0.770524
O4_20 O 0.5000 0.2773(7) 0.8854(7)
O4_21 O 0.5000 0.7227(7) 0.1146(7)
O4_22 O 0.5000 0.2773(7) 0.1146(7)
O4_23 O 0.7773(7) 0.1146(7) 0.0000
H169_9 H 0.797628 0.1146 0
H171_5 H 0.770524 0.105018 0.0165974
O4_24 O 0.7773(7) 0.1146(7) 1.0000
H169_10 H 0.797628 0.1146 1
H170_5 H 0.770524 0.105018 0.983403
O4_25 O 0.2227(7) 0.1146(7) 0.0000
H169_11 H 0.202372 0.1146 0
H170_6 H 0.229476 0.105018 0.0165974
O4_26 O 0.2227(7) 0.1146(7) 1.0000
H169_12 H 0.202372 0.1146 1
H171_6 H 0.229476 0.105018 0.983403
O4_27 O 0.7773(7) 0.8854(7) 0.0000
H169_13 H 0.797628 0.8854 0
H170_7 H 0.770524 0.894982 0.0165974
O4_28 O 0.7773(7) 0.8854(7) 1.0000
H169_14 H 0.797628 0.8854 1
H171_7 H 0.770524 0.894982 0.983403
O4_29 O 0.6146(7) 0.0000 0.7227(7)
H169_15 H 0.6146 0 0.702372
H170_8 H 0.605018 0.0165974 0.729476
O4_30 O 0.6146(7) 1.0000 0.7227(7)
H169_16 H 0.6146 1 0.702372
H171_8 H 0.605018 0.983403 0.729476
O4_31 O 0.6146(7) 0.0000 0.2773(7)
H169_17 H 0.6146 3.08149e-33 0.297628
H171_9 H 0.605018 0.0165974 0.270524
O4_32 O 0.6146(7) 1.0000 0.2773(7)
H169_18 H 0.6146 1 0.297628
H170_9 H 0.605018 0.983403 0.270524
O4_33 O 0.3854(7) 0.0000 0.2773(7)
H169_19 H 0.3854 3.08149e-33 0.297628
H170_10 H 0.394982 0.0165974 0.270524
O4_34 O 0.3854(7) 1.0000 0.2773(7)
H169_20 H 0.3854 1 0.297628
H171_10 H 0.394982 0.983403 0.270524
O4_35 O 0.7773(7) 0.0000 0.6146(7)
H169_21 H 0.797628 1.2326e-32 0.6146
H170_11 H 0.770524 0.0165974 0.605018
O4_36 O 0.7773(7) 1.0000 0.6146(7)
H169_22 H 0.797628 1 0.6146
H171_11 H 0.770524 0.983403 0.605018
O4_37 O 0.6146(7) 0.2773(7) 0.5000
O4_38 O 0.5000 0.1146(7) 0.7773(7)
O4_39 O 0.0000 0.7773(7) 0.8854(7)
H169_23 H 1.2326e-32 0.797628 0.8854
H170_12 H 0.0165974 0.770524 0.894982
O4_40 O 1.0000 0.7773(7) 0.8854(7)
H169_24 H 1 0.797628 0.8854
H171_12 H 0.983403 0.770524 0.894982
O4_41 O 0.0000 0.2227(7) 0.1146(7)
H169_25 H 1.54074e-33 0.202372 0.1146
H170_13 H 0.0165974 0.229476 0.105018
O4_42 O 1.0000 0.2227(7) 0.1146(7)
H169_26 H 1 0.202372 0.1146
H171_13 H 0.983403 0.229476 0.105018
O4_43 O 0.0000 0.7773(7) 0.1146(7)
H169_27 H 3.08149e-33 0.797628 0.1146
H171_14 H 0.0165974 0.770524 0.105018
O4_44 O 1.0000 0.7773(7) 0.1146(7)
H169_28 H 1 0.797628 0.1146
H170_14 H 0.983403 0.770524 0.105018
O4_45 O 0.2773(7) 0.6146(7) 0.0000
H169_29 H 0.297628 0.6146 0
H171_15 H 0.270524 0.605018 0.0165974
O4_46 O 0.2773(7) 0.6146(7) 1.0000
H169_30 H 0.297628 0.6146 1
H170_15 H 0.270524 0.605018 0.983403
O4_47 O 0.7227(7) 0.6146(7) 0.0000
H169_31 H 0.702372 0.6146 0
H170_16 H 0.729476 0.605018 0.0165974
O4_48 O 0.7227(7) 0.6146(7) 1.0000
H169_32 H 0.702372 0.6146 1
H171_16 H 0.729476 0.605018 0.983403
O4_49 O 0.2773(7) 0.3854(7) 0.0000
H169_33 H 0.297628 0.3854 0
H170_17 H 0.270524 0.394982 0.0165974
O4_50 O 0.2773(7) 0.3854(7) 1.0000
H169_34 H 0.297628 0.3854 1
H171_17 H 0.270524 0.394982 0.983403
O4_51 O 0.1146(7) 0.5000 0.7227(7)
O4_52 O 0.1146(7) 0.5000 0.2773(7)
O4_53 O 0.8854(7) 0.5000 0.2773(7)
O4_54 O 0.7773(7) 0.5000 0.1146(7)
O4_55 O 0.6146(7) 0.7773(7) 0.0000
H169_35 H 0.6146 0.797628 0
H170_18 H 0.605018 0.770524 0.0165974
O4_56 O 0.6146(7) 0.7773(7) 1.0000
H169_36 H 0.6146 0.797628 1
H171_18 H 0.605018 0.770524 0.983403
O4_57 O 0.5000 0.6146(7) 0.2773(7)
O4_58 O 0.0000 0.2773(7) 0.3854(7)
H169_37 H 3.08149e-33 0.297628 0.3854
H170_19 H 0.0165974 0.270524 0.394982
O4_59 O 1.0000 0.2773(7) 0.3854(7)
H169_38 H 1 0.297628 0.3854
H171_19 H 0.983403 0.270524 0.394982
O4_60 O 0.0000 0.7227(7) 0.6146(7)
H169_39 H 6.16298e-33 0.702372 0.6146
H170_20 H 0.0165974 0.729476 0.605018
O4_61 O 1.0000 0.7227(7) 0.6146(7)
H169_40 H 1 0.702372 0.6146
H171_20 H 0.983403 0.729476 0.605018
O4_62 O 0.0000 0.2773(7) 0.6146(7)
H169_41 H 1.84889e-32 0.297628 0.6146
H171_21 H 0.0165974 0.270524 0.605018
O4_63 O 1.0000 0.2773(7) 0.6146(7)
H169_42 H 1 0.297628 0.6146
H170_21 H 0.983403 0.270524 0.605018
O4_64 O 0.2773(7) 0.1146(7) 0.5000
O4_65 O 0.7227(7) 0.1146(7) 0.5000
O4_66 O 0.2773(7) 0.8854(7) 0.5000
O4_67 O 0.1146(7) 0.0000 0.2227(7)
H169_43 H 0.1146 1.54074e-33 0.202372
H170_22 H 0.105018 0.0165974 0.229476
O4_68 O 0.1146(7) 1.0000 0.2227(7)
H169_44 H 0.1146 1 0.202372
H171_22 H 0.105018 0.983403 0.229476
O4_69 O 0.1146(7) 0.0000 0.7773(7)
H169_45 H 0.1146 6.16298e-33 0.797628
H171_23 H 0.105018 0.0165974 0.770524
O4_70 O 0.1146(7) 1.0000 0.7773(7)
H169_46 H 0.1146 1 0.797628
H170_23 H 0.105018 0.983403 0.770524
O4_71 O 0.8854(7) 0.0000 0.7773(7)
H169_47 H 0.8854 6.16298e-33 0.797628
H170_24 H 0.894982 0.0165974 0.770524
O4_72 O 0.8854(7) 1.0000 0.7773(7)
H169_48 H 0.8854 1 0.797628
H171_24 H 0.894982 0.983403 0.770524
O4_73 O 0.7227(7) 0.0000 0.1146(7)
H169_49 H 0.702372 0 0.1146
H171_25 H 0.729476 0.0165974 0.105018
O4_74 O 0.7227(7) 1.0000 0.1146(7)
H169_50 H 0.702372 1 0.1146
H170_25 H 0.729476 0.983403 0.105018
O4_75 O 0.7227(7) 0.0000 0.8854(7)
H169_51 H 0.702372 0 0.8854
H170_26 H 0.729476 0.0165974 0.894982
O4_76 O 0.7227(7) 1.0000 0.8854(7)
H169_52 H 0.702372 1 0.8854
H171_26 H 0.729476 0.983403 0.894982
O4_77 O 0.2773(7) 0.0000 0.8854(7)
H169_53 H 0.297628 0 0.8854
H171_27 H 0.270524 0.0165974 0.894982
O4_78 O 0.2773(7) 1.0000 0.8854(7)
H169_54 H 0.297628 1 0.8854
H170_27 H 0.270524 0.983403 0.894982
O4_79 O 0.1146(7) 0.7227(7) 0.0000
H169_55 H 0.1146 0.702372 0
H171_28 H 0.105018 0.729476 0.0165974
O4_80 O 0.1146(7) 0.7227(7) 1.0000
H169_56 H 0.1146 0.702372 1
H170_28 H 0.105018 0.729476 0.983403
O4_81 O 0.8854(7) 0.7227(7) 0.0000
H169_57 H 0.8854 0.702372 0
H170_29 H 0.894982 0.729476 0.0165974
O4_82 O 0.8854(7) 0.7227(7) 1.0000
H169_58 H 0.8854 0.702372 1
H171_29 H 0.894982 0.729476 0.983403
O4_83 O 0.8854(7) 0.2773(7) 0.0000
H169_59 H 0.8854 0.297628 0
H171_30 H 0.894982 0.270524 0.0165974
O4_84 O 0.8854(7) 0.2773(7) 1.0000
H169_60 H 0.8854 0.297628 1
H170_30 H 0.894982 0.270524 0.983403
O4_85 O -0.0000 0.1146(7) 0.7227(7)
H169_61 H -6.16298e-33 0.1146 0.702372
H171_31 H 0.0165974 0.105018 0.729476
O4_86 O 1.0000 0.1146(7) 0.7227(7)
H169_62 H 1 0.1146 0.702372
H170_31 H 0.983403 0.105018 0.729476
O4_87 O 0.0000 0.8854(7) 0.7227(7)
H169_63 H 6.16298e-33 0.8854 0.702372
H170_32 H 0.0165974 0.894982 0.729476
O4_88 O 1.0000 0.8854(7) 0.7227(7)
H169_64 H 1 0.8854 0.702372
H171_32 H 0.983403 0.894982 0.729476
O4_89 O 0.0000 0.8854(7) 0.2773(7)
H169_65 H 6.16298e-33 0.8854 0.297628
H171_33 H 0.0165974 0.894982 0.270524
O4_90 O 1.0000 0.8854(7) 0.2773(7)
H169_66 H 1 0.8854 0.297628
H170_33 H 0.983403 0.894982 0.270524
O4_91 O 0.5000 0.2227(7) 0.3854(7)
O4_92 O 0.2227(7) 0.3854(7) 0.5000
O4_93 O 0.3854(7) 0.5000 0.2227(7)
O4_94 O 0.7227(7) 0.5000 0.6146(7)
O4_95 O 0.7227(7) 0.5000 0.3854(7)
O4_96 O 0.2773(7) 0.5000 0.3854(7)
O4_97 O 0.1146(7) 0.2227(7) 0.5000
O4_98 O 0.8854(7) 0.2227(7) 0.5000
O4_99 O 0.8854(7) 0.7773(7) 0.5000
O4_100 O 0.0000 0.6146(7) 0.2227(7)
H169_67 H 1.38667e-32 0.6146 0.202372
H171_34 H 0.0165974 0.605018 0.229476
O4_101 O 1.0000 0.6146(7) 0.2227(7)
H169_68 H 1 0.6146 0.202372
H170_34 H 0.983403 0.605018 0.229476
O4_102 O 0.0000 0.3854(7) 0.2227(7)
H169_69 H 7.70372e-33 0.3854 0.202372
H170_35 H 0.0165974 0.394982 0.229476
O4_103 O 1.0000 0.3854(7) 0.2227(7)
H169_70 H 1 0.3854 0.202372
H171_35 H 0.983403 0.394982 0.229476
O4_104 O -0.0000 0.3854(7) 0.7773(7)
H169_71 H 1.2326e-32 0.3854 0.797628
H171_36 H 0.0165974 0.394982 0.770524
O4_105 O 1.0000 0.3854(7) 0.7773(7)
H169_72 H 1 0.3854 0.797628
H170_36 H 0.983403 0.394982 0.770524
O4_106 O 0.5000 0.7227(7) 0.8854(7)
O4_107 O 0.2227(7) 0.8854(7) 0.0000
H169_73 H 0.202372 0.8854 0
H171_37 H 0.229476 0.894982 0.0165974
O4_108 O 0.2227(7) 0.8854(7) 1.0000
H169_74 H 0.202372 0.8854 1
H170_37 H 0.229476 0.894982 0.983403
O4_109 O 0.3854(7) 0.0000 0.7227(7)
H169_75 H 0.3854 0 0.702372
H171_38 H 0.394982 0.0165974 0.729476
O4_110 O 0.3854(7) 1.0000 0.7227(7)
H169_76 H 0.3854 1 0.702372
H170_38 H 0.394982 0.983403 0.729476
O4_111 O 0.2227(7) 0.0000 0.6146(7)
H169_77 H 0.202372 1.2326e-32 0.6146
H171_39 H 0.229476 0.0165974 0.605018
O4_112 O 0.2227(7) 1.0000 0.6146(7)
H169_78 H 0.202372 1 0.6146
H170_39 H 0.229476 0.983403 0.605018
O4_113 O 0.2227(7) 0.0000 0.3854(7)
H169_79 H 0.202372 3.08149e-33 0.3854
H170_40 H 0.229476 0.0165974 0.394982
O4_114 O 0.2227(7) 1.0000 0.3854(7)
H169_80 H 0.202372 1 0.3854
H171_40 H 0.229476 0.983403 0.394982
O4_115 O 0.7773(7) 0.0000 0.3854(7)
H169_81 H 0.797628 3.08149e-33 0.3854
H171_41 H 0.770524 0.0165974 0.394982
O4_116 O 0.7773(7) 1.0000 0.3854(7)
H169_82 H 0.797628 1 0.3854
H170_41 H 0.770524 0.983403 0.394982
O4_117 O 0.6146(7) 0.7227(7) 0.5000
O4_118 O 0.3854(7) 0.7227(7) 0.5000
O4_119 O 0.3854(7) 0.2773(7) 0.5000
O4_120 O 0.5000 0.1146(7) 0.2227(7)
O4_121 O 0.5000 0.8854(7) 0.2227(7)
O4_122 O 0.5000 0.8854(7) 0.7773(7)
O4_123 O 0.0000 0.2227(7) 0.8854(7)
H169_83 H 0 0.202372 0.8854
H171_42 H 0.0165974 0.229476 0.894982
O4_124 O 1.0000 0.2227(7) 0.8854(7)
H169_84 H 1 0.202372 0.8854
H170_42 H 0.983403 0.229476 0.894982
O4_125 O 0.7227(7) 0.3854(7) 0.0000
H169_85 H 0.702372 0.3854 0
H171_43 H 0.729476 0.394982 0.0165974
O4_126 O 0.7227(7) 0.3854(7) 1.0000
H169_86 H 0.702372 0.3854 1
H170_43 H 0.729476 0.394982 0.983403
O4_127 O 0.8854(7) 0.5000 0.7227(7)
O4_128 O 0.2227(7) 0.5000 0.1146(7)
O4_129 O 0.2227(7) 0.5000 0.8854(7)
O4_130 O 0.7773(7) 0.5000 0.8854(7)
O4_131 O 0.6146(7) 0.2227(7) 0.0000
H169_87 H 0.6146 0.202372 0
H171_44 H 0.605018 0.229476 0.0165974
O4_132 O 0.6146(7) 0.2227(7) 1.0000
H169_88 H 0.6146 0.202372 1
H170_44 H 0.605018 0.229476 0.983403
O4_133 O 0.3854(7) 0.2227(7) 0.0000
H169_89 H 0.3854 0.202372 0
H170_45 H 0.394982 0.229476 0.0165974
O4_134 O 0.3854(7) 0.2227(7) 1.0000
H169_90 H 0.3854 0.202372 1
H171_45 H 0.394982 0.229476 0.983403
O4_135 O 0.3854(7) 0.7773(7) 0.0000
H169_91 H 0.3854 0.797628 0
H171_46 H 0.394982 0.770524 0.0165974
O4_136 O 0.3854(7) 0.7773(7) 1.0000
H169_92 H 0.3854 0.797628 1
H170_46 H 0.394982 0.770524 0.983403
O4_137 O 0.5000 0.6146(7) 0.7227(7)
O4_138 O 0.5000 0.3854(7) 0.7227(7)
O4_139 O 0.5000 0.3854(7) 0.2773(7)
O4_140 O 0.0000 0.7227(7) 0.3854(7)
H169_93 H 0 0.702372 0.3854
H171_47 H 0.0165974 0.729476 0.394982
O4_141 O 1.0000 0.7227(7) 0.3854(7)
H169_94 H 1 0.702372 0.3854
H170_47 H 0.983403 0.729476 0.394982
O4_142 O 0.7227(7) 0.8854(7) 0.5000
O4_143 O 0.8854(7) 0.0000 0.2227(7)
H169_95 H 0.8854 1.54074e-33 0.202372
H171_48 H 0.894982 0.0165974 0.229476
O4_144 O 0.8854(7) 1.0000 0.2227(7)
H169_96 H 0.8854 1 0.202372
H170_48 H 0.894982 0.983403 0.229476
O5 O 0.4182(8) 0.0000 0.1366(8)
H172 H 0.438528 0 0.1366
H173 H 0.411424 0.0165974 0.127018
O5_2 O 0.4182(8) 1.0000 0.1366(8)
H172_2 H 0.438528 1 0.1366
H174 H 0.411424 0.983403 0.127018
O5_3 O 0.1366(8) 0.4182(8) 0.0000
H172_3 H 0.1366 0.438528 0
H173_2 H 0.127018 0.411424 0.0165974
O5_4 O 0.1366(8) 0.4182(8) 1.0000
H172_4 H 0.1366 0.438528 1
H174_2 H 0.127018 0.411424 0.983403
O5_5 O 0.0000 0.1366(8) 0.4182(8)
H172_5 H -3.08149e-33 0.1366 0.438528
H173_3 H 0.0165974 0.127018 0.411424
O5_6 O 1.0000 0.1366(8) 0.4182(8)
H172_6 H 1 0.1366 0.438528
H174_3 H 0.983403 0.127018 0.411424
O5_7 O 0.5000 0.9182(8) 0.3634(8)
O5_8 O 0.5000 0.0818(8) 0.6366(8)
O5_9 O 0.5000 0.9182(8) 0.6366(8)
O5_10 O 0.9182(8) 0.6366(8) 0.5000
O5_11 O 0.0818(8) 0.6366(8) 0.5000
O5_12 O 0.9182(8) 0.3634(8) 0.5000
O5_13 O 0.6366(8) 0.5000 0.0818(8)
O5_14 O 0.6366(8) 0.5000 0.9182(8)
O5_15 O 0.3634(8) 0.5000 0.9182(8)
O5_16 O 0.4182(8) 0.5000 0.6366(8)
O5_17 O 0.1366(8) 0.9182(8) 0.5000
O5_18 O 0.0000 0.6366(8) 0.9182(8)
H172_7 H 0 0.6366 0.938528
H173_4 H 0.0165974 0.627018 0.911424
O5_19 O 1.0000 0.6366(8) 0.9182(8)
H172_8 H 1 0.6366 0.938528
H174_4 H 0.983403 0.627018 0.911424
O5_20 O 0.5000 0.4182(8) 0.8634(8)
O5_21 O 0.5000 0.5818(8) 0.1366(8)
O5_22 O 0.5000 0.4182(8) 0.1366(8)
O5_23 O 0.9182(8) 0.1366(8) 0.0000
H172_9 H 0.938528 0.1366 0
H174_5 H 0.911424 0.127018 0.0165974
O5_24 O 0.9182(8) 0.1366(8) 1.0000
H172_10 H 0.938528 0.1366 1
H173_5 H 0.911424 0.127018 0.983403
O5_25 O 0.0818(8) 0.1366(8) 0.0000
H172_11 H 0.0614725 0.1366 0
H173_6 H 0.0885758 0.127018 0.0165974
O5_26 O 0.0818(8) 0.1366(8) 1.0000
H172_12 H 0.0614725 0.1366 1
H174_6 H 0.0885758 0.127018 0.983403
O5_27 O 0.9182(8) 0.8634(8) 0.0000
H172_13 H 0.938528 0.8634 0
H173_7 H 0.911424 0.872982 0.0165974
O5_28 O 0.9182(8) 0.8634(8) 1.0000
H172_14 H 0.938528 0.8634 1
H174_7 H 0.911424 0.872982 0.983403
O5_29 O 0.6366(8) 0.0000 0.5818(8)
H172_15 H 0.6366 6.16298e-33 0.561472
H173_8 H 0.627018 0.0165974 0.588576
O5_30 O 0.6366(8) 1.0000 0.5818(8)
H172_16 H 0.6366 1 0.561472
H174_8 H 0.627018 0.983403 0.588576
O5_31 O 0.6366(8) 0.0000 0.4182(8)
H172_17 H 0.6366 0 0.438528
H174_9 H 0.627018 0.0165974 0.411424
O5_32 O 0.6366(8) 1.0000 0.4182(8)
H172_18 H 0.6366 1 0.438528
H173_9 H 0.627018 0.983403 0.411424
O5_33 O 0.3634(8) 0.0000 0.4182(8)
H172_19 H 0.3634 0 0.438528
H173_10 H 0.372982 0.0165974 0.411424
O5_34 O 0.3634(8) 1.0000 0.4182(8)
H172_20 H 0.3634 1 0.438528
H174_10 H 0.372982 0.983403 0.411424
O5_35 O 0.9182(8) 0.0000 0.6366(8)
H172_21 H 0.938528 6.16298e-33 0.6366
H173_11 H 0.911424 0.0165974 0.627018
O5_36 O 0.9182(8) 1.0000 0.6366(8)
H172_22 H 0.938528 1 0.6366
H174_11 H 0.911424 0.983403 0.627018
O5_37 O 0.6366(8) 0.4182(8) 0.5000
O5_38 O 0.5000 0.1366(8) 0.9182(8)
O5_39 O 0.0000 0.9182(8) 0.8634(8)
H172_23 H 2.46519e-32 0.938528 0.8634
H173_12 H 0.0165974 0.911424 0.872982
O5_40 O 1.0000 0.9182(8) 0.8634(8)
H172_24 H 1 0.938528 0.8634
H174_12 H 0.983403 0.911424 0.872982
O5_41 O 0.0000 0.0818(8) 0.1366(8)
H172_25 H 1.54074e-33 0.0614725 0.1366
H173_13 H 0.0165974 0.0885758 0.127018
O5_42 O 1.0000 0.0818(8) 0.1366(8)
H172_26 H 1 0.0614725 0.1366
H174_13 H 0.983403 0.0885758 0.127018
O5_43 O 0.0000 0.9182(8) 0.1366(8)
H172_27 H 2.00297e-32 0.938528 0.1366
H174_14 H 0.0165974 0.911424 0.127018
O5_44 O 1.0000 0.9182(8) 0.1366(8)
H172_28 H 1 0.938528 0.1366
H173_14 H 0.983403 0.911424 0.127018
O5_45 O 0.4182(8) 0.6366(8) 0.0000
H172_29 H 0.438528 0.6366 0
H174_15 H 0.411424 0.627018 0.0165974
O5_46 O 0.4182(8) 0.6366(8) 1.0000
H172_30 H 0.438528 0.6366 1
H173_15 H 0.411424 0.627018 0.983403
O5_47 O 0.5818(8) 0.6366(8) 0.0000
H172_31 H 0.561472 0.6366 0
H173_16 H 0.588576 0.627018 0.0165974
O5_48 O 0.5818(8) 0.6366(8) 1.0000
H172_32 H 0.561472 0.6366 1
H174_16 H 0.588576 0.627018 0.983403
O5_49 O 0.4182(8) 0.3634(8) 0.0000
H172_33 H 0.438528 0.3634 0
H173_17 H 0.411424 0.372982 0.0165974
O5_50 O 0.4182(8) 0.3634(8) 1.0000
H172_34 H 0.438528 0.3634 1
H174_17 H 0.411424 0.372982 0.983403
O5_51 O 0.1366(8) 0.5000 0.5818(8)
O5_52 O 0.1366(8) 0.5000 0.4182(8)
O5_53 O 0.8634(8) 0.5000 0.4182(8)
O5_54 O 0.9182(8) 0.5000 0.1366(8)
O5_55 O 0.6366(8) 0.9182(8) 0.0000
H172_35 H 0.6366 0.938528 0
H173_18 H 0.627018 0.911424 0.0165974
O5_56 O 0.6366(8) 0.9182(8) 1.0000
H172_36 H 0.6366 0.938528 1
H174_18 H 0.627018 0.911424 0.983403
O5_57 O 0.5000 0.6366(8) 0.4182(8)
O5_58 O 0.0000 0.4182(8) 0.3634(8)
H172_37 H 6.16298e-33 0.438528 0.3634
H173_19 H 0.0165974 0.411424 0.372982
O5_59 O 1.0000 0.4182(8) 0.3634(8)
H172_38 H 1 0.438528 0.3634
H174_19 H 0.983403 0.411424 0.372982
O5_60 O -0.0000 0.5818(8) 0.6366(8)
H172_39 H 0 0.561472 0.6366
H173_20 H 0.0165974 0.588576 0.627018
O5_61 O 1.0000 0.5818(8) 0.6366(8)
H172_40 H 1 0.561472 0.6366
H174_20 H 0.983403 0.588576 0.627018
O5_62 O 0.0000 0.4182(8) 0.6366(8)
H172_41 H 6.16298e-33 0.438528 0.6366
H174_21 H 0.0165974 0.411424 0.627018
O5_63 O 1.0000 0.4182(8) 0.6366(8)
H172_42 H 1 0.438528 0.6366
H173_21 H 0.983403 0.411424 0.627018
O5_64 O 0.4182(8) 0.1366(8) 0.5000
O5_65 O 0.5818(8) 0.1366(8) 0.5000
O5_66 O 0.4182(8) 0.8634(8) 0.5000
O5_67 O 0.1366(8) 0.0000 0.0818(8)
H172_43 H 0.1366 7.70372e-34 0.0614725
H173_22 H 0.127018 0.0165974 0.0885758
O5_68 O 0.1366(8) 1.0000 0.0818(8)
H172_44 H 0.1366 1 0.0614725
H174_22 H 0.127018 0.983403 0.0885758
O5_69 O 0.1366(8) 0.0000 0.9182(8)
H172_45 H 0.1366 1.2326e-32 0.938528
H174_23 H 0.127018 0.0165974 0.911424
O5_70 O 0.1366(8) 1.0000 0.9182(8)
H172_46 H 0.1366 1 0.938528
H173_23 H 0.127018 0.983403 0.911424
O5_71 O 0.8634(8) 0.0000 0.9182(8)
H172_47 H 0.8634 1.2326e-32 0.938528
H173_24 H 0.872982 0.0165974 0.911424
O5_72 O 0.8634(8) 1.0000 0.9182(8)
H172_48 H 0.8634 1 0.938528
H174_24 H 0.872982 0.983403 0.911424
O5_73 O 0.5818(8) 0.0000 0.1366(8)
H172_49 H 0.561472 0 0.1366
H174_25 H 0.588576 0.0165974 0.127018
O5_74 O 0.5818(8) 1.0000 0.1366(8)
H172_50 H 0.561472 1 0.1366
H173_25 H 0.588576 0.983403 0.127018
O5_75 O 0.5818(8) 0.0000 0.8634(8)
H172_51 H 0.561472 6.16298e-33 0.8634
H173_26 H 0.588576 0.0165974 0.872982
O5_76 O 0.5818(8) 1.0000 0.8634(8)
H172_52 H 0.561472 1 0.8634
H174_26 H 0.588576 0.983403 0.872982
O5_77 O 0.4182(8) 0.0000 0.8634(8)
H172_53 H 0.438528 6.16298e-33 0.8634
H174_27 H 0.411424 0.0165974 0.872982
O5_78 O 0.4182(8) 1.0000 0.8634(8)
H172_54 H 0.438528 1 0.8634
H173_27 H 0.411424 0.983403 0.872982
O5_79 O 0.1366(8) 0.5818(8) 0.0000
H172_55 H 0.1366 0.561472 0
H174_28 H 0.127018 0.588576 0.0165974
O5_80 O 0.1366(8) 0.5818(8) 1.0000
H172_56 H 0.1366 0.561472 1
H173_28 H 0.127018 0.588576 0.983403
O5_81 O 0.8634(8) 0.5818(8) 0.0000
H172_57 H 0.8634 0.561472 0
H173_29 H 0.872982 0.588576 0.0165974
O5_82 O 0.8634(8) 0.5818(8) 1.0000
H172_58 H 0.8634 0.561472 1
H174_29 H 0.872982 0.588576 0.983403
O5_83 O 0.8634(8) 0.4182(8) 0.0000
H172_59 H 0.8634 0.438528 0
H174_30 H 0.872982 0.411424 0.0165974
O5_84 O 0.8634(8) 0.4182(8) 1.0000
H172_60 H 0.8634 0.438528 1
H173_30 H 0.872982 0.411424 0.983403
O5_85 O 0.0000 0.1366(8) 0.5818(8)
H172_61 H 6.16298e-33 0.1366 0.561472
H174_31 H 0.0165974 0.127018 0.588576
O5_86 O 1.0000 0.1366(8) 0.5818(8)
H172_62 H 1 0.1366 0.561472
H173_31 H 0.983403 0.127018 0.588576
O5_87 O 0.0000 0.8634(8) 0.5818(8)
H172_63 H 6.16298e-33 0.8634 0.561472
H173_32 H 0.0165974 0.872982 0.588576
O5_88 O 1.0000 0.8634(8) 0.5818(8)
H172_64 H 1 0.8634 0.561472
H174_32 H 0.983403 0.872982 0.588576
O5_89 O 0.0000 0.8634(8) 0.4182(8)
H172_65 H -3.08149e-33 0.8634 0.438528
H174_33 H 0.0165974 0.872982 0.411424
O5_90 O 1.0000 0.8634(8) 0.4182(8)
H172_66 H 1 0.8634 0.438528
H173_33 H 0.983403 0.872982 0.411424
O5_91 O 0.5000 0.0818(8) 0.3634(8)
O5_92 O 0.0818(8) 0.3634(8) 0.5000
O5_93 O 0.3634(8) 0.5000 0.0818(8)
O5_94 O 0.5818(8) 0.5000 0.6366(8)
O5_95 O 0.5818(8) 0.5000 0.3634(8)
O5_96 O 0.4182(8) 0.5000 0.3634(8)
O5_97 O 0.1366(8) 0.0818(8) 0.5000
O5_98 O 0.8634(8) 0.0818(8) 0.5000
O5_99 O 0.8634(8) 0.9182(8) 0.5000
O5_100 O 0.0000 0.6366(8) 0.0818(8)
H172_67 H 1.54074e-33 0.6366 0.0614725
H174_34 H 0.0165974 0.627018 0.0885758
O5_101 O 1.0000 0.6366(8) 0.0818(8)
H172_68 H 1 0.6366 0.0614725
H173_34 H 0.983403 0.627018 0.0885758
O5_102 O 0.0000 0.3634(8) 0.0818(8)
H172_69 H 7.70372e-33 0.3634 0.0614725
H173_35 H 0.0165974 0.372982 0.0885758
O5_103 O 1.0000 0.3634(8) 0.0818(8)
H172_70 H 1 0.3634 0.0614725
H174_35 H 0.983403 0.372982 0.0885758
O5_104 O 0.0000 0.3634(8) 0.9182(8)
H172_71 H 2.46519e-32 0.3634 0.938528
H174_36 H 0.0165974 0.372982 0.911424
O5_105 O 1.0000 0.3634(8) 0.9182(8)
H172_72 H 1 0.3634 0.938528
H173_36 H 0.983403 0.372982 0.911424
O5_106 O 0.5000 0.5818(8) 0.8634(8)
O5_107 O 0.0818(8) 0.8634(8) 0.0000
H172_73 H 0.0614725 0.8634 0
H174_37 H 0.0885758 0.872982 0.0165974
O5_108 O 0.0818(8) 0.8634(8) 1.0000
H172_74 H 0.0614725 0.8634 1
H173_37 H 0.0885758 0.872982 0.983403
O5_109 O 0.3634(8) 0.0000 0.5818(8)
H172_75 H 0.3634 6.16298e-33 0.561472
H174_38 H 0.372982 0.0165974 0.588576
O5_110 O 0.3634(8) 1.0000 0.5818(8)
H172_76 H 0.3634 1 0.561472
H173_38 H 0.372982 0.983403 0.588576
O5_111 O 0.0818(8) 0.0000 0.6366(8)
H172_77 H 0.0614725 6.16298e-33 0.6366
H174_39 H 0.0885758 0.0165974 0.627018
O5_112 O 0.0818(8) 1.0000 0.6366(8)
H172_78 H 0.0614725 1 0.6366
H173_39 H 0.0885758 0.983403 0.627018
O5_113 O 0.0818(8) 0.0000 0.3634(8)
H172_79 H 0.0614725 6.16298e-33 0.3634
H173_40 H 0.0885758 0.0165974 0.372982
O5_114 O 0.0818(8) 1.0000 0.3634(8)
H172_80 H 0.0614725 1 0.3634
H174_40 H 0.0885758 0.983403 0.372982
O5_115 O 0.9182(8) 0.0000 0.3634(8)
H172_81 H 0.938528 6.16298e-33 0.3634
H174_41 H 0.911424 0.0165974 0.372982
O5_116 O 0.9182(8) 1.0000 0.3634(8)
H172_82 H 0.938528 1 0.3634
H173_41 H 0.911424 0.983403 0.372982
O5_117 O 0.6366(8) 0.5818(8) 0.5000
O5_118 O 0.3634(8) 0.5818(8) 0.5000
O5_119 O 0.3634(8) 0.4182(8) 0.5000
O5_120 O 0.5000 0.1366(8) 0.0818(8)
O5_121 O 0.5000 0.8634(8) 0.0818(8)
O5_122 O 0.5000 0.8634(8) 0.9182(8)
O5_123 O 0.0000 0.0818(8) 0.8634(8)
H172_83 H 6.16298e-33 0.0614725 0.8634
H174_42 H 0.0165974 0.0885758 0.872982
O5_124 O 1.0000 0.0818(8) 0.8634(8)
H172_84 H 1 0.0614725 0.8634
H173_42 H 0.983403 0.0885758 0.872982
O5_125 O 0.5818(8) 0.3634(8) 0.0000
H172_85 H 0.561472 0.3634 0
H174_43 H 0.588576 0.372982 0.0165974
O5_126 O 0.5818(8) 0.3634(8) 1.0000
H172_86 H 0.561472 0.3634 1
H173_43 H 0.588576 0.372982 0.983403
O5_127 O 0.8634(8) 0.5000 0.5818(8)
O5_128 O 0.0818(8) 0.5000 0.1366(8)
O5_129 O 0.0818(8) 0.5000 0.8634(8)
O5_130 O 0.9182(8) 0.5000 0.8634(8)
O5_131 O 0.6366(8) 0.0818(8) 0.0000
H172_87 H 0.6366 0.0614725 0
H174_44 H 0.627018 0.0885758 0.0165974
O5_132 O 0.6366(8) 0.0818(8) 1.0000
H172_88 H 0.6366 0.0614725 1
H173_44 H 0.627018 0.0885758 0.983403
O5_133 O 0.3634(8) 0.0818(8) 0.0000
H172_89 H 0.3634 0.0614725 0
H173_45 H 0.372982 0.0885758 0.0165974
O5_134 O 0.3634(8) 0.0818(8) 1.0000
H172_90 H 0.3634 0.0614725 1
H174_45 H 0.372982 0.0885758 0.983403
O5_135 O 0.3634(8) 0.9182(8) 0.0000
H172_91 H 0.3634 0.938528 0
H174_46 H 0.372982 0.911424 0.0165974
O5_136 O 0.3634(8) 0.9182(8) 1.0000
H172_92 H 0.3634 0.938528 1
H173_46 H 0.372982 0.911424 0.983403
O5_137 O 0.5000 0.6366(8) 0.5818(8)
O5_138 O 0.5000 0.3634(8) 0.5818(8)
O5_139 O 0.5000 0.3634(8) 0.4182(8)
O5_140 O 0.0000 0.5818(8) 0.3634(8)
H172_93 H 9.24446e-33 0.561472 0.3634
H174_47 H 0.0165974 0.588576 0.372982
O5_141 O 1.0000 0.5818(8) 0.3634(8)
H172_94 H 1 0.561472 0.3634
H173_47 H 0.983403 0.588576 0.372982
O5_142 O 0.5818(8) 0.8634(8) 0.5000
O5_143 O 0.8634(8) 0.0000 0.0818(8)
H172_95 H 0.8634 7.70372e-34 0.0614725
H174_48 H 0.872982 0.0165974 0.0885758
O5_144 O 0.8634(8) 1.0000 0.0818(8)
H172_96 H 0.8634 1 0.0614725
H173_48 H 0.872982 0.983403 0.0885758
O6 O 0.1066(9) 0.0000 0.1281(9)
H175 H 0.126928 3.08149e-33 0.1281
H176 H 0.0998242 0.0165974 0.118518
O6_2 O 0.1066(9) 1.0000 0.1281(9)
H175_2 H 0.126928 1 0.1281
H177 H 0.0998242 0.983403 0.118518
O6_3 O 0.1281(9) 0.1066(9) 0.0000
H175_3 H 0.1281 0.126928 1.54074e-33
H176_2 H 0.118518 0.0998242 0.0165974
O6_4 O 0.1281(9) 0.1066(9) 1.0000
H175_4 H 0.1281 0.126928 1
H177_2 H 0.118518 0.0998242 0.983403
O6_5 O 0.0000 0.1281(9) 0.1066(9)
H175_5 H 6.16298e-33 0.1281 0.126928
H176_3 H 0.0165974 0.118518 0.0998242
O6_6 O 1.0000 0.1281(9) 0.1066(9)
H175_6 H 1 0.1281 0.126928
H177_3 H 0.983403 0.118518 0.0998242
O6_7 O 0.5000 0.6066(9) 0.3719(9)
O6_8 O 0.5000 0.3934(9) 0.6281(9)
O6_9 O 0.5000 0.6066(9) 0.6281(9)
O6_10 O 0.6066(9) 0.6281(9) 0.5000
O6_11 O 0.3934(9) 0.6281(9) 0.5000
O6_12 O 0.6066(9) 0.3719(9) 0.5000
O6_13 O 0.6281(9) 0.5000 0.3934(9)
O6_14 O 0.6281(9) 0.5000 0.6066(9)
O6_15 O 0.3719(9) 0.5000 0.6066(9)
O6_16 O 0.1066(9) 0.5000 0.6281(9)
O6_17 O 0.1281(9) 0.6066(9) 0.5000
O6_18 O -0.0000 0.6281(9) 0.6066(9)
H175_7 H 0 0.6281 0.626928
H176_4 H 0.0165974 0.618518 0.599824
O6_19 O 1.0000 0.6281(9) 0.6066(9)
H175_8 H 1 0.6281 0.626928
H177_4 H 0.983403 0.618518 0.599824
O6_20 O 0.5000 0.1066(9) 0.8719(9)
O6_21 O 0.5000 0.8934(9) 0.1281(9)
O6_22 O 0.5000 0.1066(9) 0.1281(9)
O6_23 O 0.6066(9) 0.1281(9) -0.0000
H175_9 H 0.626928 0.1281 -1.54074e-33
H177_5 H 0.599824 0.118518 0.0165974
O6_24 O 0.6066(9) 0.1281(9) 1.0000
H175_10 H 0.626928 0.1281 1
H176_5 H 0.599824 0.118518 0.983403
O6_25 O 0.3934(9) 0.1281(9) 0.0000
H175_11 H 0.373072 0.1281 1.54074e-33
H176_6 H 0.400176 0.118518 0.0165974
O6_26 O 0.3934(9) 0.1281(9) 1.0000
H175_12 H 0.373072 0.1281 1
H177_6 H 0.400176 0.118518 0.983403
O6_27 O 0.6066(9) 0.8719(9) 0.0000
H175_13 H 0.626928 0.8719 1.54074e-33
H176_7 H 0.599824 0.881482 0.0165974
O6_28 O 0.6066(9) 0.8719(9) 1.0000
H175_14 H 0.626928 0.8719 1
H177_7 H 0.599824 0.881482 0.983403
O6_29 O 0.6281(9) 0.0000 0.8934(9)
H175_15 H 0.6281 6.16298e-33 0.873072
H176_8 H 0.618518 0.0165974 0.900176
O6_30 O 0.6281(9) 1.0000 0.8934(9)
H175_16 H 0.6281 1 0.873072
H177_8 H 0.618518 0.983403 0.900176
O6_31 O 0.6281(9) -0.0000 0.1066(9)
H175_17 H 0.6281 0 0.126928
H177_9 H 0.618518 0.0165974 0.0998242
O6_32 O 0.6281(9) 1.0000 0.1066(9)
H175_18 H 0.6281 1 0.126928
H176_9 H 0.618518 0.983403 0.0998242
O6_33 O 0.3719(9) 0.0000 0.1066(9)
H175_19 H 0.3719 3.08149e-33 0.126928
H176_10 H 0.381482 0.0165974 0.0998242
O6_34 O 0.3719(9) 1.0000 0.1066(9)
H175_20 H 0.3719 1 0.126928
H177_10 H 0.381482 0.983403 0.0998242
O6_35 O 0.6066(9) 0.0000 0.6281(9)
H175_21 H 0.626928 0 0.6281
H176_11 H 0.599824 0.0165974 0.618518
O6_36 O 0.6066(9) 1.0000 0.6281(9)
H175_22 H 0.626928 1 0.6281
H177_11 H 0.599824 0.983403 0.618518
O6_37 O 0.6281(9) 0.1066(9) 0.5000
O6_38 O 0.5000 0.1281(9) 0.6066(9)
O6_39 O 0.0000 0.6066(9) 0.8719(9)
H175_23 H 1.84889e-32 0.626928 0.8719
H176_12 H 0.0165974 0.599824 0.881482
O6_40 O 1.0000 0.6066(9) 0.8719(9)
H175_24 H 1 0.626928 0.8719
H177_12 H 0.983403 0.599824 0.881482
O6_41 O 0.0000 0.3934(9) 0.1281(9)
H175_25 H 6.16298e-33 0.373072 0.1281
H176_13 H 0.0165974 0.400176 0.118518
O6_42 O 1.0000 0.3934(9) 0.1281(9)
H175_26 H 1 0.373072 0.1281
H177_13 H 0.983403 0.400176 0.118518
O6_43 O 0.0000 0.6066(9) 0.1281(9)
H175_27 H 9.24446e-33 0.626928 0.1281
H177_14 H 0.0165974 0.599824 0.118518
O6_44 O 1.0000 0.6066(9) 0.1281(9)
H175_28 H 1 0.626928 0.1281
H176_14 H 0.983403 0.599824 0.118518
O6_45 O 0.1066(9) 0.6281(9) -0.0000
H175_29 H 0.126928 0.6281 -1.54074e-33
H177_15 H 0.0998242 0.618518 0.0165974
O6_46 O 0.1066(9) 0.6281(9) 1.0000
H175_30 H 0.126928 0.6281 1
H176_15 H 0.0998242 0.618518 0.983403
O6_47 O 0.8934(9) 0.6281(9) 0.0000
H175_31 H 0.873072 0.6281 1.54074e-33
H176_16 H 0.900176 0.618518 0.0165974
O6_48 O 0.8934(9) 0.6281(9) 1.0000
H175_32 H 0.873072 0.6281 1
H177_16 H 0.900176 0.618518 0.983403
O6_49 O 0.1066(9) 0.3719(9) 0.0000
H175_33 H 0.126928 0.3719 1.54074e-33
H176_17 H 0.0998242 0.381482 0.0165974
O6_50 O 0.1066(9) 0.3719(9) 1.0000
H175_34 H 0.126928 0.3719 1
H177_17 H 0.0998242 0.381482 0.983403
O6_51 O 0.1281(9) 0.5000 0.8934(9)
O6_52 O 0.1281(9) 0.5000 0.1066(9)
O6_53 O 0.8719(9) 0.5000 0.1066(9)
O6_54 O 0.6066(9) 0.5000 0.1281(9)
O6_55 O 0.6281(9) 0.6066(9) 0.0000
H175_35 H 0.6281 0.626928 1.54074e-33
H176_18 H 0.618518 0.599824 0.0165974
O6_56 O 0.6281(9) 0.6066(9) 1.0000
H175_36 H 0.6281 0.626928 1
H177_18 H 0.618518 0.599824 0.983403
O6_57 O 0.5000 0.6281(9) 0.1066(9)
O6_58 O 0.0000 0.1066(9) 0.3719(9)
H175_37 H 3.08149e-33 0.126928 0.3719
H176_19 H 0.0165974 0.0998242 0.381482
O6_59 O 1.0000 0.1066(9) 0.3719(9)
H175_38 H 1 0.126928 0.3719
H177_19 H 0.983403 0.0998242 0.381482
O6_60 O 0.0000 0.8934(9) 0.6281(9)
H175_39 H 1.84889e-32 0.873072 0.6281
H176_20 H 0.0165974 0.900176 0.618518
O6_61 O 1.0000 0.8934(9) 0.6281(9)
H175_40 H 1 0.873072 0.6281
H177_20 H 0.983403 0.900176 0.618518
O6_62 O -0.0000 0.1066(9) 0.6281(9)
H175_41 H -6.16298e-33 0.126928 0.6281
H177_21 H 0.0165974 0.0998242 0.618518
O6_63 O 1.0000 0.1066(9) 0.6281(9)
H175_42 H 1 0.126928 0.6281
H176_21 H 0.983403 0.0998242 0.618518
O6_64 O 0.1066(9) 0.1281(9) 0.5000
O6_65 O 0.8934(9) 0.1281(9) 0.5000
O6_66 O 0.1066(9) 0.8719(9) 0.5000
O6_67 O 0.1281(9) 0.0000 0.3934(9)
H175_43 H 0.1281 6.16298e-33 0.373072
H176_22 H 0.118518 0.0165974 0.400176
O6_68 O 0.1281(9) 1.0000 0.3934(9)
H175_44 H 0.1281 1 0.373072
H177_22 H 0.118518 0.983403 0.400176
O6_69 O 0.1281(9) 0.0000 0.6066(9)
H175_45 H 0.1281 6.16298e-33 0.626928
H177_23 H 0.118518 0.0165974 0.599824
O6_70 O 0.1281(9) 1.0000 0.6066(9)
H175_46 H 0.1281 1 0.626928
H176_23 H 0.118518 0.983403 0.599824
O6_71 O 0.8719(9) 0.0000 0.6066(9)
H175_47 H 0.8719 6.16298e-33 0.626928
H176_24 H 0.881482 0.0165974 0.599824
O6_72 O 0.8719(9) 1.0000 0.6066(9)
H175_48 H 0.8719 1 0.626928
H177_24 H 0.881482 0.983403 0.599824
O6_73 O 0.8934(9) -0.0000 0.1281(9)
H175_49 H 0.873072 -1.54074e-33 0.1281
H177_25 H 0.900176 0.0165974 0.118518
O6_74 O 0.8934(9) 1.0000 0.1281(9)
H175_50 H 0.873072 1 0.1281
H176_25 H 0.900176 0.983403 0.118518
O6_75 O 0.8934(9) 0.0000 0.8719(9)
H175_51 H 0.873072 6.16298e-33 0.8719
H176_26 H 0.900176 0.0165974 0.881482
O6_76 O 0.8934(9) 1.0000 0.8719(9)
H175_52 H 0.873072 1 0.8719
H177_26 H 0.900176 0.983403 0.881482
O6_77 O 0.1066(9) 0.0000 0.8719(9)
H175_53 H 0.126928 6.16298e-33 0.8719
H177_27 H 0.0998242 0.0165974 0.881482
O6_78 O 0.1066(9) 1.0000 0.8719(9)
H175_54 H 0.126928 1 0.8719
H176_27 H 0.0998242 0.983403 0.881482
O6_79 O 0.1281(9) 0.8934(9) -0.0000
H175_55 H 0.1281 0.873072 -1.54074e-33
H177_28 H 0.118518 0.900176 0.0165974
O6_80 O 0.1281(9) 0.8934(9) 1.0000
H175_56 H 0.1281 0.873072 1
H176_28 H 0.118518 0.900176 0.983403
O6_81 O 0.8719(9) 0.8934(9) 0.0000
H175_57 H 0.8719 0.873072 1.54074e-33
H176_29 H 0.881482 0.900176 0.0165974
O6_82 O 0.8719(9) 0.8934(9) 1.0000
H175_58 H 0.8719 0.873072 1
H177_29 H 0.881482 0.900176 0.983403
O6_83 O 0.8719(9) 0.1066(9) -0.0000
H175_59 H 0.8719 0.126928 -1.54074e-33
H177_30 H 0.881482 0.0998242 0.0165974
O6_84 O 0.8719(9) 0.1066(9) 1.0000
H175_60 H 0.8719 0.126928 1
H176_30 H 0.881482 0.0998242 0.983403
O6_85 O 0.0000 0.1281(9) 0.8934(9)
H175_61 H 0 0.1281 0.873072
H177_31 H 0.0165974 0.118518 0.900176
O6_86 O 1.0000 0.1281(9) 0.8934(9)
H175_62 H 1 0.1281 0.873072
H176_31 H 0.983403 0.118518 0.900176
O6_87 O 0.0000 0.8719(9) 0.8934(9)
H175_63 H 1.2326e-32 0.8719 0.873072
H176_32 H 0.0165974 0.881482 0.900176
O6_88 O 1.0000 0.8719(9) 0.8934(9)
H175_64 H 1 0.8719 0.873072
H177_32 H 0.983403 0.881482 0.900176
O6_89 O -0.0000 0.8719(9) 0.1066(9)
H175_65 H 0 0.8719 0.126928
H177_33 H 0.0165974 0.881482 0.0998242
O6_90 O 1.0000 0.8719(9) 0.1066(9)
H175_66 H 1 0.8719 0.126928
H176_33 H 0.983403 0.881482 0.0998242
O6_91 O 0.5000 0.3934(9) 0.3719(9)
O6_92 O 0.3934(9) 0.3719(9) 0.5000
O6_93 O 0.3719(9) 0.5000 0.3934(9)
O6_94 O 0.8934(9) 0.5000 0.6281(9)
O6_95 O 0.8934(9) 0.5000 0.3719(9)
O6_96 O 0.1066(9) 0.5000 0.3719(9)
O6_97 O 0.1281(9) 0.3934(9) 0.5000
O6_98 O 0.8719(9) 0.3934(9) 0.5000
O6_99 O 0.8719(9) 0.6066(9) 0.5000
O6_100 O 0.0000 0.6281(9) 0.3934(9)
H175_67 H 3.08149e-33 0.6281 0.373072
H177_34 H 0.0165974 0.618518 0.400176
O6_101 O 1.0000 0.6281(9) 0.3934(9)
H175_68 H 1 0.6281 0.373072
H176_34 H 0.983403 0.618518 0.400176
O6_102 O 0.0000 0.3719(9) 0.3934(9)
H175_69 H 6.16298e-33 0.3719 0.373072
H176_35 H 0.0165974 0.381482 0.400176
O6_103 O 1.0000 0.3719(9) 0.3934(9)
H175_70 H 1 0.3719 0.373072
H177_35 H 0.983403 0.381482 0.400176
O6_104 O 0.0000 0.3719(9) 0.6066(9)
H175_71 H 0 0.3719 0.626928
H177_36 H 0.0165974 0.381482 0.599824
O6_105 O 1.0000 0.3719(9) 0.6066(9)
H175_72 H 1 0.3719 0.626928
H176_36 H 0.983403 0.381482 0.599824
O6_106 O 0.5000 0.8934(9) 0.8719(9)
O6_107 O 0.3934(9) 0.8719(9) -0.0000
H175_73 H 0.373072 0.8719 -1.54074e-33
H177_37 H 0.400176 0.881482 0.0165974
O6_108 O 0.3934(9) 0.8719(9) 1.0000
H175_74 H 0.373072 0.8719 1
H176_37 H 0.400176 0.881482 0.983403
O6_109 O 0.3719(9) 0.0000 0.8934(9)
H175_75 H 0.3719 6.16298e-33 0.873072
H177_38 H 0.381482 0.0165974 0.900176
O6_110 O 0.3719(9) 1.0000 0.8934(9)
H175_76 H 0.3719 1 0.873072
H176_38 H 0.381482 0.983403 0.900176
O6_111 O 0.3934(9) 0.0000 0.6281(9)
H175_77 H 0.373072 0 0.6281
H177_39 H 0.400176 0.0165974 0.618518
O6_112 O 0.3934(9) 1.0000 0.6281(9)
H175_78 H 0.373072 1 0.6281
H176_39 H 0.400176 0.983403 0.618518
O6_113 O 0.3934(9) 0.0000 0.3719(9)
H175_79 H 0.373072 0 0.3719
H176_40 H 0.400176 0.0165974 0.381482
O6_114 O 0.3934(9) 1.0000 0.3719(9)
H175_80 H 0.373072 1 0.3719
H177_40 H 0.400176 0.983403 0.381482
O6_115 O 0.6066(9) 0.0000 0.3719(9)
H175_81 H 0.626928 0 0.3719
H177_41 H 0.599824 0.0165974 0.381482
O6_116 O 0.6066(9) 1.0000 0.3719(9)
H175_82 H 0.626928 1 0.3719
H176_41 H 0.599824 0.983403 0.381482
O6_117 O 0.6281(9) 0.8934(9) 0.5000
O6_118 O 0.3719(9) 0.8934(9) 0.5000
O6_119 O 0.3719(9) 0.1066(9) 0.5000
O6_120 O 0.5000 0.1281(9) 0.3934(9)
O6_121 O 0.5000 0.8719(9) 0.3934(9)
O6_122 O 0.5000 0.8719(9) 0.6066(9)
O6_123 O 0.0000 0.3934(9) 0.8719(9)
H175_83 H 1.2326e-32 0.373072 0.8719
H177_42 H 0.0165974 0.400176 0.881482
O6_124 O 1.0000 0.3934(9) 0.8719(9)
H175_84 H 1 0.373072 0.8719
H176_42 H 0.983403 0.400176 0.881482
O6_125 O 0.8934(9) 0.3719(9) -0.0000
H175_85 H 0.873072 0.3719 -1.54074e-33
H177_43 H 0.900176 0.381482 0.0165974
O6_126 O 0.8934(9) 0.3719(9) 1.0000
H175_86 H 0.873072 0.3719 1
H176_43 H 0.900176 0.381482 0.983403
O6_127 O 0.8719(9) 0.5000 0.8934(9)
O6_128 O 0.3934(9) 0.5000 0.1281(9)
O6_129 O 0.3934(9) 0.5000 0.8719(9)
O6_130 O 0.6066(9) 0.5000 0.8719(9)
O6_131 O 0.6281(9) 0.3934(9) -0.0000
H175_87 H 0.6281 0.373072 -1.54074e-33
H177_44 H 0.618518 0.400176 0.0165974
O6_132 O 0.6281(9) 0.3934(9) 1.0000
H175_88 H 0.6281 0.373072 1
H176_44 H 0.618518 0.400176 0.983403
O6_133 O 0.3719(9) 0.3934(9) 0.0000
H175_89 H 0.3719 0.373072 1.54074e-33
H176_45 H 0.381482 0.400176 0.0165974
O6_134 O 0.3719(9) 0.3934(9) 1.0000
H175_90 H 0.3719 0.373072 1
H177_45 H 0.381482 0.400176 0.983403
O6_135 O 0.3719(9) 0.6066(9) -0.0000
H175_91 H 0.3719 0.626928 -1.54074e-33
H177_46 H 0.381482 0.599824 0.0165974
O6_136 O 0.3719(9) 0.6066(9) 1.0000
H175_92 H 0.3719 0.626928 1
H176_46 H 0.381482 0.599824 0.983403
O6_137 O 0.5000 0.6281(9) 0.8934(9)
O6_138 O 0.5000 0.3719(9) 0.8934(9)
O6_139 O 0.5000 0.3719(9) 0.1066(9)
O6_140 O 0.0000 0.8934(9) 0.3719(9)
H175_93 H 1.54074e-32 0.873072 0.3719
H177_47 H 0.0165974 0.900176 0.381482
O6_141 O 1.0000 0.8934(9) 0.3719(9)
H175_94 H 1 0.873072 0.3719
H176_47 H 0.983403 0.900176 0.381482
O6_142 O 0.8934(9) 0.8719(9) 0.5000
O6_143 O 0.8719(9) 0.0000 0.3934(9)
H175_95 H 0.8719 6.16298e-33 0.373072
H177_48 H 0.881482 0.0165974 0.400176
O6_144 O 0.8719(9) 1.0000 0.3934(9)
H175_96 H 0.8719 1 0.373072
H176_48 H 0.881482 0.983403 0.400176
Pb1 Pb 0.220953(7) 0.0000 0.194421(9)
O9 O 0.2500 0.0000 0.2500
O10 O 0.18213(19) 0.0000 0.1579(3)
Pb2 Pb 0.305579(9) 0.0000 0.220953(7)
Pb3 Pb 0.194421(9) 0.0000 0.279047(7)
Pb4 Pb 0.279047(7) 0.0000 0.305579(9)
Pb12 Pb 0.0000 0.279047(7) 0.194421(9)
Pb13 Pb 0.0000 0.194421(9) 0.220953(7)
Pb14 Pb 0.279047(7) 0.194421(9) 0.0000
Pb15 Pb 0.194421(9) 0.220953(7) 0.0000
O12 O 0.26146(10) 0.03170(10) 0.19912(11)
O13 O 0.19912(11) 0.03170(10) 0.23854(10)
O14 O 0.23854(10) 0.03170(10) 0.30088(11)
O17 O 0.30088(11) 0.03170(10) 0.26146(10)
O22 O 0.03170(10) 0.23854(10) 0.19912(11)
O23 O 0.23854(10) 0.19912(11) 0.03170(10)
O26 O 0.23934(9) 0.03289(8) 0.16079(10)
O28 O 0.16079(10) 0.03289(8) 0.26066(9)
O29 O 0.26066(9) 0.03289(8) 0.33921(10)
O32 O 0.33921(10) 0.03289(8) 0.23934(9)
O37 O 0.03289(8) 0.26066(9) 0.16079(10)
O38 O 0.26066(9) 0.16079(10) 0.03289(8)
O41 O 0.1579(3) 0.0000 0.31787(19)
O42 O 0.31787(19) 0.0000 0.3421(3)
O43 O 0.3421(3) 0.0000 0.18213(19)
C20 C 0.17535(13) 0.04120(10) 0.24171(11)
C21 C 0.04120(10) 0.24171(11) 0.17535(13)
C22 C 0.24171(11) 0.17535(13) 0.04120(10)
C31 C 0.16607(12) 0.06377(10) 0.22354(10)
C32 C 0.06377(10) 0.22354(10) 0.16607(12)
C33 C 0.22354(10) 0.16607(12) 0.06377(10)
C42 C 0.18166(13) 0.07185(10) 0.20118(11)
C43 C 0.07185(10) 0.20118(11) 0.18166(13)
C44 C 0.20118(11) 0.18166(13) 0.07185(10)
H19 H 0.1984 0.0628 0.1971
H20 H 0.0628 0.1971 0.1984
H21 H 0.1971 0.1984 0.0628
C53 C 0.17260(12) 0.09318(10) 0.18476(11)
C54 C 0.09318(10) 0.18476(11) 0.17260(12)
C55 C 0.18476(11) 0.17260(12) 0.09318(10)
C64 C 0.14864(11) 0.10744(10) 0.19078(10)
C65 C 0.19078(10) 0.14864(11) 0.10744(10)
C66 C 0.10744(10) 0.19078(10) 0.14864(11)
C75 C 0.13287(12) 0.09892(11) 0.21309(11)
C76 C 0.21309(11) 0.13287(12) 0.09892(11)
C77 C 0.09892(11) 0.21309(11) 0.13287(12)
H30 H 0.1163 0.1081 0.2174
H31 H 0.2174 0.1163 0.1081
H32 H 0.1081 0.2174 0.1163
C86 C 0.14151(12) 0.07712(11) 0.22888(11)
C87 C 0.22888(11) 0.14151(12) 0.07712(11)
C88 C 0.07712(11) 0.22888(11) 0.14151(12)
H41 H 0.1304 0.0711 0.2437
H42 H 0.2437 0.1304 0.0711
H43 H 0.0711 0.2437 0.1304
C97 C 0.18660(12) 0.10358(12) 0.15929(12)
C98 C 0.10358(12) 0.15929(12) 0.18660(12)
C99 C 0.15929(12) 0.18660(12) 0.10358(12)
C108 C 0.16740(11) 0.12693(10) 0.15100(11)
C109 C 0.12693(10) 0.15100(11) 0.16740(11)
C110 C 0.15100(11) 0.16740(11) 0.12693(10)
C119 C 0.14563(11) 0.12969(11) 0.17006(11)
C120 C 0.17006(11) 0.14563(11) 0.12969(11)
C121 C 0.12969(11) 0.17006(11) 0.14563(11)
C130 C 0.21558(13) 0.11386(13) 0.16678(14)
C131 C 0.11386(13) 0.16678(14) 0.21558(13)
C132 C 0.16678(14) 0.21558(13) 0.11386(13)
H52 H 0.2248 0.1199 0.1498
H53 H 0.1199 0.1498 0.2248
H54 H 0.1498 0.2248 0.1199
H63 H 0.2262 0.0983 0.1743
H64 H 0.0983 0.1743 0.2262
H65 H 0.1743 0.2262 0.0983
C141 C 0.21636(16) 0.13729(19) 0.18743(19)
C142 C 0.13729(19) 0.18743(19) 0.21636(16)
C143 C 0.18743(19) 0.21636(16) 0.13729(19)
H74 H 0.2045 0.1329 0.2030
H75 H 0.1329 0.2030 0.2045
H76 H 0.2030 0.2045 0.1329
H85 H 0.2352 0.1399 0.1939
H86 H 0.1399 0.1939 0.2352
H87 H 0.1939 0.2352 0.1399
H96 H 0.2099 0.1541 0.1787
H97 H 0.1541 0.1787 0.2099
H98 H 0.1787 0.2099 0.1541
C152 C 0.18718(15) 0.08002(12) 0.13812(13)
C153 C 0.08002(12) 0.13812(13) 0.18718(15)
C154 C 0.13812(13) 0.18718(15) 0.08002(12)
H107 H 0.1987 0.0650 0.1454
H108 H 0.0650 0.1454 0.1987
H109 H 0.1454 0.1987 0.0650
H118 H 0.1959 0.0868 0.1211
H119 H 0.0868 0.1211 0.1959
H120 H 0.1211 0.1959 0.0868
C163 C 0.1595(2) 0.0686(2) 0.13114(19)
C164 C 0.0686(2) 0.13114(19) 0.1595(2)
C165 C 0.13114(19) 0.1595(2) 0.0686(2)
H129 H 0.1485 0.0829 0.1223
H130 H 0.0829 0.1223 0.1485
H131 H 0.1223 0.1485 0.0829
H140 H 0.1616 0.0531 0.1187
H141 H 0.0531 0.1187 0.1616
H142 H 0.1187 0.1616 0.0531
H151 H 0.1504 0.0626 0.1479
H152 H 0.0626 0.1479 0.1504
H153 H 0.1479 0.1504 0.0626
Pb14_2 Pb 0.279047(7) 0.194421(9) 1.0000
Pb15_2 Pb 0.194421(9) 0.220953(7) 1.0000
Pb1_2 Pb 0.220953(7) 1.0000 0.194421(9)
O7 O 0.26146(10) 0.96830(10) 0.19912(11)
O8 O 0.23934(9) 0.96711(8) 0.16079(10)
O9_2 O 0.2500 1.0000 0.2500
O10_2 O 0.18213(19) 1.0000 0.1579(3)
C1 C 0.25829(11) 0.95880(10) 0.17535(13)
C2 C 0.27646(10) 0.93623(10) 0.16607(12)
C3 C 0.29882(11) 0.92815(10) 0.18166(13)
H1 H 0.3029 0.9372 0.1984
C4 C 0.31524(11) 0.90682(10) 0.17260(12)
C5 C 0.30922(10) 0.89256(10) 0.14864(11)
C6 C 0.28691(11) 0.90108(11) 0.13287(12)
H2 H 0.2826 0.8919 0.1163
C7 C 0.27112(11) 0.92288(11) 0.14151(12)
H3 H 0.2563 0.9289 0.1304
C8 C 0.34071(12) 0.89642(12) 0.18660(12)
C9 C 0.34900(11) 0.87307(10) 0.16740(11)
C10 C 0.32994(11) 0.87031(11) 0.14563(11)
C11 C 0.33322(14) 0.88614(13) 0.21558(13)
H4 H 0.3502 0.8801 0.2248
H5 H 0.3257 0.9017 0.2262
C12 C 0.31257(19) 0.86271(19) 0.21636(16)
H6 H 0.2970 0.8671 0.2045
H7 H 0.3061 0.8601 0.2352
H8 H 0.3213 0.8459 0.2099
C13 C 0.36188(13) 0.91998(12) 0.18718(15)
H9 H 0.3546 0.9350 0.1987
H10 H 0.3789 0.9132 0.1959
C14 C 0.36886(19) 0.9314(2) 0.1595(2)
H11 H 0.3777 0.9171 0.1485
H12 H 0.3813 0.9469 0.1616
H13 H 0.3521 0.9374 0.1504
Pb2_2 Pb 0.305579(9) 1.0000 0.220953(7)
Pb3_2 Pb 0.194421(9) 1.0000 0.279047(7)
Pb4_2 Pb 0.279047(7) 1.0000 0.305579(9)
Pb5 Pb 0.5000 0.805579(9) 0.279047(7)
Pb6 Pb 0.5000 0.779047(7) 0.194421(9)
Pb7 Pb 0.305579(9) 0.720953(7) 0.0000
Pb8 Pb 0.279047(7) 0.805579(9) 0.0000
Pb9 Pb 0.5000 0.720953(7) 0.305579(9)
Pb10 Pb 0.220953(7) 0.805579(9) 0.5000
Pb11 Pb 0.305579(9) 0.779047(7) 0.5000
Pb16 Pb 0.194421(9) 0.720953(7) 0.5000
Pb17 Pb 0.0000 0.805579(9) 0.220953(7)
Pb18 Pb 0.0000 0.779047(7) 0.305579(9)
O11 O 0.19912(11) 0.96830(10) 0.23854(10)
O15 O 0.23854(10) 0.96830(10) 0.30088(11)
O16 O 0.30088(11) 0.96830(10) 0.26146(10)
O18 O 0.46830(10) 0.80088(11) 0.23854(10)
O19 O 0.30088(11) 0.76146(10) 0.03170(10)
O20 O 0.46830(10) 0.76146(10) 0.30088(11)
O21 O 0.26146(10) 0.80088(11) 0.46830(10)
O24 O 0.19912(11) 0.76146(10) 0.46830(10)
O25 O 0.03170(10) 0.80088(11) 0.26146(10)
O27 O 0.16079(10) 0.96711(8) 0.26066(9)
O30 O 0.26066(9) 0.96711(8) 0.33921(10)
O31 O 0.33921(10) 0.96711(8) 0.23934(9)
O33 O 0.46711(8) 0.83921(10) 0.26066(9)
O34 O 0.33921(10) 0.73934(9) 0.03289(8)
O35 O 0.46711(8) 0.73934(9) 0.33921(10)
O36 O 0.23934(9) 0.83921(10) 0.46711(8)
O39 O 0.16079(10) 0.73934(9) 0.46711(8)
O40 O 0.03289(8) 0.83921(10) 0.23934(9)
O41_2 O 0.1579(3) 1.0000 0.31787(19)
O42_2 O 0.31787(19) 1.0000 0.3421(3)
O43_2 O 0.3421(3) 1.0000 0.18213(19)
C15 C 0.45880(10) 0.82465(13) 0.24171(11)
C16 C 0.32465(13) 0.75829(11) 0.04120(10)
C17 C 0.32465(13) 0.95880(10) 0.25829(11)
C18 C 0.45880(10) 0.75829(11) 0.32465(13)
C19 C 0.25829(11) 0.82465(13) 0.45880(10)
C23 C 0.24171(11) 0.95880(10) 0.32465(13)
C24 C 0.17535(13) 0.75829(11) 0.45880(10)
C25 C 0.04120(10) 0.82465(13) 0.25829(11)
C26 C 0.43623(10) 0.83393(12) 0.22354(10)
C27 C 0.33393(12) 0.77646(10) 0.06377(10)
C28 C 0.33393(12) 0.93623(10) 0.27646(10)
C29 C 0.43623(10) 0.77646(10) 0.33393(12)
C30 C 0.27646(10) 0.83393(12) 0.43623(10)
C34 C 0.22354(10) 0.93623(10) 0.33393(12)
C35 C 0.16607(12) 0.77646(10) 0.43623(10)
C36 C 0.06377(10) 0.83393(12) 0.27646(10)
C37 C 0.42815(10) 0.81834(13) 0.20118(11)
C38 C 0.31834(13) 0.79882(11) 0.07185(10)
C39 C 0.31834(13) 0.92815(10) 0.29882(11)
C40 C 0.42815(10) 0.79882(11) 0.31834(13)
C41 C 0.29882(11) 0.81834(13) 0.42815(10)
C45 C 0.20118(11) 0.92815(10) 0.31834(13)
C46 C 0.18166(13) 0.79882(11) 0.42815(10)
C47 C 0.07185(10) 0.81834(13) 0.29882(11)
H14 H 0.4372 0.8016 0.1971
H15 H 0.3016 0.8029 0.0628
H16 H 0.3016 0.9372 0.3029
H17 H 0.4372 0.8029 0.3016
H18 H 0.3029 0.8016 0.4372
H22 H 0.1971 0.9372 0.3016
H23 H 0.1984 0.8029 0.4372
H24 H 0.0628 0.8016 0.3029
C48 C 0.40682(10) 0.82740(12) 0.18476(11)
C49 C 0.32740(12) 0.81524(11) 0.09318(10)
C50 C 0.32740(12) 0.90682(10) 0.31524(11)
C51 C 0.40682(10) 0.81524(11) 0.32740(12)
C52 C 0.31524(11) 0.82740(12) 0.40682(10)
C56 C 0.18476(11) 0.90682(10) 0.32740(12)
C57 C 0.17260(12) 0.81524(11) 0.40682(10)
C58 C 0.09318(10) 0.82740(12) 0.31524(11)
C59 C 0.39256(10) 0.85136(11) 0.19078(10)
C60 C 0.35136(11) 0.80922(10) 0.10744(10)
C61 C 0.35136(11) 0.89256(10) 0.30922(10)
C62 C 0.30922(10) 0.85136(11) 0.39256(10)
C63 C 0.39256(10) 0.80922(10) 0.35136(11)
C67 C 0.19078(10) 0.89256(10) 0.35136(11)
C68 C 0.10744(10) 0.85136(11) 0.30922(10)
C69 C 0.14864(11) 0.80922(10) 0.39256(10)
C70 C 0.40108(11) 0.86713(12) 0.21309(11)
C71 C 0.36713(12) 0.78691(11) 0.09892(11)
C72 C 0.36713(12) 0.90108(11) 0.28691(11)
C73 C 0.28691(11) 0.86713(12) 0.40108(11)
C74 C 0.40108(11) 0.78691(11) 0.36713(12)
C78 C 0.21309(11) 0.90108(11) 0.36713(12)
C79 C 0.09892(11) 0.86713(12) 0.28691(11)
C80 C 0.13287(12) 0.78691(11) 0.40108(11)
H25 H 0.3919 0.8837 0.2174
H26 H 0.3837 0.7826 0.1081
H27 H 0.3837 0.8919 0.2826
H28 H 0.2826 0.8837 0.3919
H29 H 0.3919 0.7826 0.3837
H33 H 0.2174 0.8919 0.3837
H34 H 0.1081 0.8837 0.2826
H35 H 0.1163 0.7826 0.3919
C81 C 0.42288(11) 0.85849(12) 0.22888(11)
C82 C 0.35849(12) 0.77112(11) 0.07712(11)
C83 C 0.35849(12) 0.92288(11) 0.27112(11)
C84 C 0.27112(11) 0.85849(12) 0.42288(11)
C85 C 0.42288(11) 0.77112(11) 0.35849(12)
C89 C 0.22888(11) 0.92288(11) 0.35849(12)
C90 C 0.07712(11) 0.85849(12) 0.27112(11)
C91 C 0.14151(12) 0.77112(11) 0.42288(11)
H36 H 0.4289 0.8696 0.2437
H37 H 0.3696 0.7563 0.0711
H38 H 0.3696 0.9289 0.2563
H39 H 0.2563 0.8696 0.4289
H40 H 0.4289 0.7563 0.3696
H44 H 0.2437 0.9289 0.3696
H45 H 0.0711 0.8696 0.2563
H46 H 0.1304 0.7563 0.4289
C92 C 0.31340(12) 0.84071(12) 0.10358(12)
C93 C 0.39642(12) 0.81340(12) 0.15929(12)
C94 C 0.31340(12) 0.89642(12) 0.34071(12)
C95 C 0.39642(12) 0.84071(12) 0.31340(12)
C96 C 0.34071(12) 0.81340(12) 0.39642(12)
C100 C 0.15929(12) 0.89642(12) 0.31340(12)
C101 C 0.18660(12) 0.84071(12) 0.39642(12)
C102 C 0.10358(12) 0.81340(12) 0.34071(12)
C103 C 0.33260(11) 0.84900(11) 0.12693(10)
C104 C 0.37307(10) 0.83260(11) 0.15100(11)
C105 C 0.33260(11) 0.87307(10) 0.34900(11)
C106 C 0.37307(10) 0.84900(11) 0.33260(11)
C107 C 0.34900(11) 0.83260(11) 0.37307(10)
C111 C 0.15100(11) 0.87307(10) 0.33260(11)
C112 C 0.16740(11) 0.84900(11) 0.37307(10)
C113 C 0.12693(10) 0.83260(11) 0.34900(11)
C114 C 0.37031(11) 0.85437(11) 0.17006(11)
C115 C 0.35437(11) 0.82994(11) 0.12969(11)
C116 C 0.35437(11) 0.87031(11) 0.32994(11)
C117 C 0.32994(11) 0.85437(11) 0.37031(11)
C118 C 0.37031(11) 0.82994(11) 0.35437(11)
C122 C 0.17006(11) 0.87031(11) 0.35437(11)
C123 C 0.12969(11) 0.85437(11) 0.32994(11)
C124 C 0.14563(11) 0.82994(11) 0.37031(11)
C125 C 0.28442(13) 0.83322(14) 0.11386(13)
C126 C 0.38614(13) 0.78442(13) 0.16678(14)
C127 C 0.28442(13) 0.88614(13) 0.33322(14)
C128 C 0.38614(13) 0.83322(14) 0.28442(13)
C129 C 0.33322(14) 0.78442(13) 0.38614(13)
C133 C 0.16678(14) 0.88614(13) 0.28442(13)
C134 C 0.21558(13) 0.83322(14) 0.38614(13)
C135 C 0.11386(13) 0.78442(13) 0.33322(14)
H47 H 0.2752 0.8502 0.1199
H48 H 0.3801 0.7752 0.1498
H49 H 0.2752 0.8801 0.3502
H50 H 0.3801 0.8502 0.2752
H51 H 0.3502 0.7752 0.3801
H55 H 0.1498 0.8801 0.2752
H56 H 0.2248 0.8502 0.3801
H57 H 0.1199 0.7752 0.3502
H58 H 0.2738 0.8257 0.0983
H59 H 0.4017 0.7738 0.1743
H60 H 0.2738 0.9017 0.3257
H61 H 0.4017 0.8257 0.2738
H62 H 0.3257 0.7738 0.4017
H66 H 0.1743 0.9017 0.2738
H67 H 0.2262 0.8257 0.4017
H68 H 0.0983 0.7738 0.3257
C136 C 0.28364(16) 0.81257(19) 0.13729(19)
C137 C 0.36271(19) 0.78364(16) 0.18743(19)
C138 C 0.28364(16) 0.86271(19) 0.31257(19)
C139 C 0.36271(19) 0.81257(19) 0.28364(16)
C140 C 0.31257(19) 0.78364(16) 0.36271(19)
C144 C 0.18743(19) 0.86271(19) 0.28364(16)
C145 C 0.21636(16) 0.81257(19) 0.36271(19)
C146 C 0.13729(19) 0.78364(16) 0.31257(19)
H69 H 0.2955 0.7970 0.1329
H70 H 0.3671 0.7955 0.2030
H71 H 0.2955 0.8671 0.2970
H72 H 0.3671 0.7970 0.2955
H73 H 0.2970 0.7955 0.3671
H77 H 0.2030 0.8671 0.2955
H78 H 0.2045 0.7970 0.3671
H79 H 0.1329 0.7955 0.2970
H80 H 0.2648 0.8061 0.1399
H81 H 0.3601 0.7648 0.1939
H82 H 0.2648 0.8601 0.3061
H83 H 0.3601 0.8061 0.2648
H84 H 0.3061 0.7648 0.3601
H88 H 0.1939 0.8601 0.2648
H89 H 0.2352 0.8061 0.3601
H90 H 0.1399 0.7648 0.3061
H91 H 0.2901 0.8213 0.1541
H92 H 0.3459 0.7901 0.1787
H93 H 0.2901 0.8459 0.3213
H94 H 0.3459 0.8213 0.2901
H95 H 0.3213 0.7901 0.3459
H99 H 0.1787 0.8459 0.2901
H100 H 0.2099 0.8213 0.3459
H101 H 0.1541 0.7901 0.3213
C147 C 0.31282(15) 0.86188(13) 0.08002(12)
C148 C 0.41998(12) 0.81282(15) 0.13812(13)
C149 C 0.31282(15) 0.91998(12) 0.36188(13)
C150 C 0.41998(12) 0.86188(13) 0.31282(15)
C151 C 0.36188(13) 0.81282(15) 0.41998(12)
C155 C 0.13812(13) 0.91998(12) 0.31282(15)
C156 C 0.18718(15) 0.86188(13) 0.41998(12)
C157 C 0.08002(12) 0.81282(15) 0.36188(13)
H102 H 0.3013 0.8546 0.0650
H103 H 0.4350 0.8013 0.1454
H104 H 0.3013 0.9350 0.3546
H105 H 0.4350 0.8546 0.3013
H106 H 0.3546 0.8013 0.4350
H110 H 0.1454 0.9350 0.3013
H111 H 0.1987 0.8546 0.4350
H112 H 0.0650 0.8013 0.3546
H113 H 0.3041 0.8789 0.0868
H114 H 0.4132 0.8041 0.1211
H115 H 0.3041 0.9132 0.3789
H116 H 0.4132 0.8789 0.3041
H117 H 0.3789 0.8041 0.4132
H121 H 0.1211 0.9132 0.3041
H122 H 0.1959 0.8789 0.4132
H123 H 0.0868 0.8041 0.3789
C158 C 0.3405(2) 0.86886(19) 0.0686(2)
C159 C 0.4314(2) 0.8405(2) 0.13114(19)
C160 C 0.3405(2) 0.9314(2) 0.36886(19)
C161 C 0.4314(2) 0.86886(19) 0.3405(2)
C162 C 0.36886(19) 0.8405(2) 0.4314(2)
C166 C 0.13114(19) 0.9314(2) 0.3405(2)
C167 C 0.1595(2) 0.86886(19) 0.4314(2)
C168 C 0.0686(2) 0.8405(2) 0.36886(19)
H124 H 0.3515 0.8777 0.0829
H125 H 0.4171 0.8515 0.1223
H126 H 0.3515 0.9171 0.3777
H127 H 0.4171 0.8777 0.3515
H128 H 0.3777 0.8515 0.4171
H132 H 0.1223 0.9171 0.3515
H133 H 0.1485 0.8777 0.4171
H134 H 0.0829 0.8515 0.3777
H135 H 0.3384 0.8813 0.0531
H136 H 0.4469 0.8384 0.1187
H137 H 0.3384 0.9469 0.3813
H138 H 0.4469 0.8813 0.3384
H139 H 0.3813 0.8384 0.4469
H143 H 0.1187 0.9469 0.3384
H144 H 0.1616 0.8813 0.4469
H145 H 0.0531 0.8384 0.3813
H146 H 0.3496 0.8521 0.0626
H147 H 0.4374 0.8496 0.1479
H148 H 0.3496 0.9374 0.3521
H149 H 0.4374 0.8521 0.3496
H150 H 0.3521 0.8496 0.4374
H154 H 0.1479 0.9374 0.3496
H155 H 0.1504 0.8521 0.4374
H156 H 0.0626 0.8496 0.3521
Pb7_2 Pb 0.305579(9) 0.720953(7) 1.0000
Pb8_2 Pb 0.279047(7) 0.805579(9) 1.0000
Pb12_2 Pb 1.0000 0.279047(7) 0.194421(9)
Pb13_2 Pb 1.0000 0.194421(9) 0.220953(7)
Pb17_2 Pb 1.0000 0.805579(9) 0.220953(7)
Pb18_2 Pb 1.0000 0.779047(7) 0.305579(9)
O9_3 O 0.2500 0.2500 0.0000
O10_3 O 0.1579(3) 0.18213(19) 0.0000
Pb2_3 Pb 0.220953(7) 0.305579(9) 0.0000
Pb4_3 Pb 0.305579(9) 0.279047(7) 0.0000
O12_2 O 0.19912(11) 0.26146(10) 0.03170(10)
O14_2 O 0.30088(11) 0.23854(10) 0.03170(10)
O17_2 O 0.26146(10) 0.30088(11) 0.03170(10)
O26_2 O 0.16079(10) 0.23934(9) 0.03289(8)
O29_2 O 0.33921(10) 0.26066(9) 0.03289(8)
O32_2 O 0.23934(9) 0.33921(10) 0.03289(8)
O41_3 O 0.31787(19) 0.1579(3) 0.0000
O42_3 O 0.3421(3) 0.31787(19) 0.0000
O43_3 O 0.18213(19) 0.3421(3) 0.0000
O7_2 O 0.19912(11) 0.26146(10) 0.96830(10)
O8_2 O 0.16079(10) 0.23934(9) 0.96711(8)
O9_4 O 0.2500 0.2500 1.0000
O10_4 O 0.1579(3) 0.18213(19) 1.0000
C1_2 C 0.17535(13) 0.25829(11) 0.95880(10)
C2_2 C 0.16607(12) 0.27646(10) 0.93623(10)
C3_2 C 0.18166(13) 0.29882(11) 0.92815(10)
H1_2 H 0.1984 0.3029 0.9372
C4_2 C 0.17260(12) 0.31524(11) 0.90682(10)
C5_2 C 0.14864(11) 0.30922(10) 0.89256(10)
C6_2 C 0.13287(12) 0.28691(11) 0.90108(11)
H2_2 H 0.1163 0.2826 0.8919
C7_2 C 0.14151(12) 0.27112(11) 0.92288(11)
H3_2 H 0.1304 0.2563 0.9289
C8_2 C 0.18660(12) 0.34071(12) 0.89642(12)
C9_2 C 0.16740(11) 0.34900(11) 0.87307(10)
C10_2 C 0.14563(11) 0.32994(11) 0.87031(11)
C11_2 C 0.21558(13) 0.33322(14) 0.88614(13)
H4_2 H 0.2248 0.3502 0.8801
H5_2 H 0.2262 0.3257 0.9017
C12_2 C 0.21636(16) 0.31257(19) 0.86271(19)
H6_2 H 0.2045 0.2970 0.8671
H7_2 H 0.2352 0.3061 0.8601
H8_2 H 0.2099 0.3213 0.8459
C13_2 C 0.18718(15) 0.36188(13) 0.91998(12)
H9_2 H 0.1987 0.3546 0.9350
H10_2 H 0.1959 0.3789 0.9132
C14_2 C 0.1595(2) 0.36886(19) 0.9314(2)
H11_2 H 0.1485 0.3777 0.9171
H12_2 H 0.1616 0.3813 0.9469
H13_2 H 0.1504 0.3521 0.9374
Pb2_4 Pb 0.220953(7) 0.305579(9) 1.0000
Pb4_4 Pb 0.305579(9) 0.279047(7) 1.0000
Pb5_2 Pb 0.279047(7) 0.5000 0.805579(9)
Pb6_2 Pb 0.194421(9) 0.5000 0.779047(7)
Pb7_3 Pb 0.0000 0.305579(9) 0.720953(7)
Pb8_3 Pb 0.0000 0.279047(7) 0.805579(9)
Pb9_2 Pb 0.305579(9) 0.5000 0.720953(7)
Pb10_2 Pb 0.5000 0.220953(7) 0.805579(9)
Pb11_2 Pb 0.5000 0.305579(9) 0.779047(7)
Pb16_2 Pb 0.5000 0.194421(9) 0.720953(7)
Pb17_3 Pb 0.220953(7) 0.0000 0.805579(9)
Pb18_3 Pb 0.305579(9) 0.0000 0.779047(7)
O11_2 O 0.23854(10) 0.19912(11) 0.96830(10)
O15_2 O 0.30088(11) 0.23854(10) 0.96830(10)
O16_2 O 0.26146(10) 0.30088(11) 0.96830(10)
O18_2 O 0.23854(10) 0.46830(10) 0.80088(11)
O19_2 O 0.03170(10) 0.30088(11) 0.76146(10)
O20_2 O 0.30088(11) 0.46830(10) 0.76146(10)
O21_2 O 0.46830(10) 0.26146(10) 0.80088(11)
O24_2 O 0.46830(10) 0.19912(11) 0.76146(10)
O25_2 O 0.26146(10) 0.03170(10) 0.80088(11)
O27_2 O 0.26066(9) 0.16079(10) 0.96711(8)
O30_2 O 0.33921(10) 0.26066(9) 0.96711(8)
O31_2 O 0.23934(9) 0.33921(10) 0.96711(8)
O33_2 O 0.26066(9) 0.46711(8) 0.83921(10)
O34_2 O 0.03289(8) 0.33921(10) 0.73934(9)
O35_2 O 0.33921(10) 0.46711(8) 0.73934(9)
O36_2 O 0.46711(8) 0.23934(9) 0.83921(10)
O39_2 O 0.46711(8) 0.16079(10) 0.73934(9)
O40_2 O 0.23934(9) 0.03289(8) 0.83921(10)
O41_4 O 0.31787(19) 0.1579(3) 1.0000
O42_4 O 0.3421(3) 0.31787(19) 1.0000
O43_4 O 0.18213(19) 0.3421(3) 1.0000
C15_2 C 0.24171(11) 0.45880(10) 0.82465(13)
C16_2 C 0.04120(10) 0.32465(13) 0.75829(11)
C17_2 C 0.25829(11) 0.32465(13) 0.95880(10)
C18_2 C 0.32465(13) 0.45880(10) 0.75829(11)
C19_2 C 0.45880(10) 0.25829(11) 0.82465(13)
C23_2 C 0.32465(13) 0.24171(11) 0.95880(10)
C24_2 C 0.45880(10) 0.17535(13) 0.75829(11)
C25_2 C 0.25829(11) 0.04120(10) 0.82465(13)
C26_2 C 0.22354(10) 0.43623(10) 0.83393(12)
C27_2 C 0.06377(10) 0.33393(12) 0.77646(10)
C28_2 C 0.27646(10) 0.33393(12) 0.93623(10)
C29_2 C 0.33393(12) 0.43623(10) 0.77646(10)
C30_2 C 0.43623(10) 0.27646(10) 0.83393(12)
C34_2 C 0.33393(12) 0.22354(10) 0.93623(10)
C35_2 C 0.43623(10) 0.16607(12) 0.77646(10)
C36_2 C 0.27646(10) 0.06377(10) 0.83393(12)
C37_2 C 0.20118(11) 0.42815(10) 0.81834(13)
C38_2 C 0.07185(10) 0.31834(13) 0.79882(11)
C39_2 C 0.29882(11) 0.31834(13) 0.92815(10)
C40_2 C 0.31834(13) 0.42815(10) 0.79882(11)
C41_2 C 0.42815(10) 0.29882(11) 0.81834(13)
C45_2 C 0.31834(13) 0.20118(11) 0.92815(10)
C46_2 C 0.42815(10) 0.18166(13) 0.79882(11)
C47_2 C 0.29882(11) 0.07185(10) 0.81834(13)
H14_2 H 0.1971 0.4372 0.8016
H15_2 H 0.0628 0.3016 0.8029
H16_2 H 0.3029 0.3016 0.9372
H17_2 H 0.3016 0.4372 0.8029
H18_2 H 0.4372 0.3029 0.8016
H22_2 H 0.3016 0.1971 0.9372
H23_2 H 0.4372 0.1984 0.8029
H24_2 H 0.3029 0.0628 0.8016
C48_2 C 0.18476(11) 0.40682(10) 0.82740(12)
C49_2 C 0.09318(10) 0.32740(12) 0.81524(11)
C50_2 C 0.31524(11) 0.32740(12) 0.90682(10)
C51_2 C 0.32740(12) 0.40682(10) 0.81524(11)
C52_2 C 0.40682(10) 0.31524(11) 0.82740(12)
C56_2 C 0.32740(12) 0.18476(11) 0.90682(10)
C57_2 C 0.40682(10) 0.17260(12) 0.81524(11)
C58_2 C 0.31524(11) 0.09318(10) 0.82740(12)
C59_2 C 0.19078(10) 0.39256(10) 0.85136(11)
C60_2 C 0.10744(10) 0.35136(11) 0.80922(10)
C61_2 C 0.30922(10) 0.35136(11) 0.89256(10)
C62_2 C 0.39256(10) 0.30922(10) 0.85136(11)
C63_2 C 0.35136(11) 0.39256(10) 0.80922(10)
C67_2 C 0.35136(11) 0.19078(10) 0.89256(10)
C68_2 C 0.30922(10) 0.10744(10) 0.85136(11)
C69_2 C 0.39256(10) 0.14864(11) 0.80922(10)
C70_2 C 0.21309(11) 0.40108(11) 0.86713(12)
C71_2 C 0.09892(11) 0.36713(12) 0.78691(11)
C72_2 C 0.28691(11) 0.36713(12) 0.90108(11)
C73_2 C 0.40108(11) 0.28691(11) 0.86713(12)
C74_2 C 0.36713(12) 0.40108(11) 0.78691(11)
C78_2 C 0.36713(12) 0.21309(11) 0.90108(11)
C79_2 C 0.28691(11) 0.09892(11) 0.86713(12)
C80_2 C 0.40108(11) 0.13287(12) 0.78691(11)
H25_2 H 0.2174 0.3919 0.8837
H26_2 H 0.1081 0.3837 0.7826
H27_2 H 0.2826 0.3837 0.8919
H28_2 H 0.3919 0.2826 0.8837
H29_2 H 0.3837 0.3919 0.7826
H33_2 H 0.3837 0.2174 0.8919
H34_2 H 0.2826 0.1081 0.8837
H35_2 H 0.3919 0.1163 0.7826
C81_2 C 0.22888(11) 0.42288(11) 0.85849(12)
C82_2 C 0.07712(11) 0.35849(12) 0.77112(11)
C83_2 C 0.27112(11) 0.35849(12) 0.92288(11)
C84_2 C 0.42288(11) 0.27112(11) 0.85849(12)
C85_2 C 0.35849(12) 0.42288(11) 0.77112(11)
C89_2 C 0.35849(12) 0.22888(11) 0.92288(11)
C90_2 C 0.27112(11) 0.07712(11) 0.85849(12)
C91_2 C 0.42288(11) 0.14151(12) 0.77112(11)
H36_2 H 0.2437 0.4289 0.8696
H37_2 H 0.0711 0.3696 0.7563
H38_2 H 0.2563 0.3696 0.9289
H39_2 H 0.4289 0.2563 0.8696
H40_2 H 0.3696 0.4289 0.7563
H44_2 H 0.3696 0.2437 0.9289
H45_2 H 0.2563 0.0711 0.8696
H46_2 H 0.4289 0.1304 0.7563
C92_2 C 0.10358(12) 0.31340(12) 0.84071(12)
C93_2 C 0.15929(12) 0.39642(12) 0.81340(12)
C94_2 C 0.34071(12) 0.31340(12) 0.89642(12)
C95_2 C 0.31340(12) 0.39642(12) 0.84071(12)
C96_2 C 0.39642(12) 0.34071(12) 0.81340(12)
C100_2 C 0.31340(12) 0.15929(12) 0.89642(12)
C101_2 C 0.39642(12) 0.18660(12) 0.84071(12)
C102_2 C 0.34071(12) 0.10358(12) 0.81340(12)
C103_2 C 0.12693(10) 0.33260(11) 0.84900(11)
C104_2 C 0.15100(11) 0.37307(10) 0.83260(11)
C105_2 C 0.34900(11) 0.33260(11) 0.87307(10)
C106_2 C 0.33260(11) 0.37307(10) 0.84900(11)
C107_2 C 0.37307(10) 0.34900(11) 0.83260(11)
C111_2 C 0.33260(11) 0.15100(11) 0.87307(10)
C112_2 C 0.37307(10) 0.16740(11) 0.84900(11)
C113_2 C 0.34900(11) 0.12693(10) 0.83260(11)
C114_2 C 0.17006(11) 0.37031(11) 0.85437(11)
C115_2 C 0.12969(11) 0.35437(11) 0.82994(11)
C116_2 C 0.32994(11) 0.35437(11) 0.87031(11)
C117_2 C 0.37031(11) 0.32994(11) 0.85437(11)
C118_2 C 0.35437(11) 0.37031(11) 0.82994(11)
C122_2 C 0.35437(11) 0.17006(11) 0.87031(11)
C123_2 C 0.32994(11) 0.12969(11) 0.85437(11)
C124_2 C 0.37031(11) 0.14563(11) 0.82994(11)
C125_2 C 0.11386(13) 0.28442(13) 0.83322(14)
C126_2 C 0.16678(14) 0.38614(13) 0.78442(13)
C127_2 C 0.33322(14) 0.28442(13) 0.88614(13)
C128_2 C 0.28442(13) 0.38614(13) 0.83322(14)
C129_2 C 0.38614(13) 0.33322(14) 0.78442(13)
C133_2 C 0.28442(13) 0.16678(14) 0.88614(13)
C134_2 C 0.38614(13) 0.21558(13) 0.83322(14)
C135_2 C 0.33322(14) 0.11386(13) 0.78442(13)
H47_2 H 0.1199 0.2752 0.8502
H48_2 H 0.1498 0.3801 0.7752
H49_2 H 0.3502 0.2752 0.8801
H50_2 H 0.2752 0.3801 0.8502
H51_2 H 0.3801 0.3502 0.7752
H55_2 H 0.2752 0.1498 0.8801
H56_2 H 0.3801 0.2248 0.8502
H57_2 H 0.3502 0.1199 0.7752
H58_2 H 0.0983 0.2738 0.8257
H59_2 H 0.1743 0.4017 0.7738
H60_2 H 0.3257 0.2738 0.9017
H61_2 H 0.2738 0.4017 0.8257
H62_2 H 0.4017 0.3257 0.7738
H66_2 H 0.2738 0.1743 0.9017
H67_2 H 0.4017 0.2262 0.8257
H68_2 H 0.3257 0.0983 0.7738
C136_2 C 0.13729(19) 0.28364(16) 0.81257(19)
C137_2 C 0.18743(19) 0.36271(19) 0.78364(16)
C138_2 C 0.31257(19) 0.28364(16) 0.86271(19)
C139_2 C 0.28364(16) 0.36271(19) 0.81257(19)
C140_2 C 0.36271(19) 0.31257(19) 0.78364(16)
C144_2 C 0.28364(16) 0.18743(19) 0.86271(19)
C145_2 C 0.36271(19) 0.21636(16) 0.81257(19)
C146_2 C 0.31257(19) 0.13729(19) 0.78364(16)
H69_2 H 0.1329 0.2955 0.7970
H70_2 H 0.2030 0.3671 0.7955
H71_2 H 0.2970 0.2955 0.8671
H72_2 H 0.2955 0.3671 0.7970
H73_2 H 0.3671 0.2970 0.7955
H77_2 H 0.2955 0.2030 0.8671
H78_2 H 0.3671 0.2045 0.7970
H79_2 H 0.2970 0.1329 0.7955
H80_2 H 0.1399 0.2648 0.8061
H81_2 H 0.1939 0.3601 0.7648
H82_2 H 0.3061 0.2648 0.8601
H83_2 H 0.2648 0.3601 0.8061
H84_2 H 0.3601 0.3061 0.7648
H88_2 H 0.2648 0.1939 0.8601
H89_2 H 0.3601 0.2352 0.8061
H90_2 H 0.3061 0.1399 0.7648
H91_2 H 0.1541 0.2901 0.8213
H92_2 H 0.1787 0.3459 0.7901
H93_2 H 0.3213 0.2901 0.8459
H94_2 H 0.2901 0.3459 0.8213
H95_2 H 0.3459 0.3213 0.7901
H99_2 H 0.2901 0.1787 0.8459
H100_2 H 0.3459 0.2099 0.8213
H101_2 H 0.3213 0.1541 0.7901
C147_2 C 0.08002(12) 0.31282(15) 0.86188(13)
C148_2 C 0.13812(13) 0.41998(12) 0.81282(15)
C149_2 C 0.36188(13) 0.31282(15) 0.91998(12)
C150_2 C 0.31282(15) 0.41998(12) 0.86188(13)
C151_2 C 0.41998(12) 0.36188(13) 0.81282(15)
C155_2 C 0.31282(15) 0.13812(13) 0.91998(12)
C156_2 C 0.41998(12) 0.18718(15) 0.86188(13)
C157_2 C 0.36188(13) 0.08002(12) 0.81282(15)
H102_2 H 0.0650 0.3013 0.8546
H103_2 H 0.1454 0.4350 0.8013
H104_2 H 0.3546 0.3013 0.9350
H105_2 H 0.3013 0.4350 0.8546
H106_2 H 0.4350 0.3546 0.8013
H110_2 H 0.3013 0.1454 0.9350
H111_2 H 0.4350 0.1987 0.8546
H112_2 H 0.3546 0.0650 0.8013
H113_2 H 0.0868 0.3041 0.8789
H114_2 H 0.1211 0.4132 0.8041
H115_2 H 0.3789 0.3041 0.9132
H116_2 H 0.3041 0.4132 0.8789
H117_2 H 0.4132 0.3789 0.8041
H121_2 H 0.3041 0.1211 0.9132
H122_2 H 0.4132 0.1959 0.8789
H123_2 H 0.3789 0.0868 0.8041
C158_2 C 0.0686(2) 0.3405(2) 0.86886(19)
C159_2 C 0.13114(19) 0.4314(2) 0.8405(2)
C160_2 C 0.36886(19) 0.3405(2) 0.9314(2)
C161_2 C 0.3405(2) 0.4314(2) 0.86886(19)
C162_2 C 0.4314(2) 0.36886(19) 0.8405(2)
C166_2 C 0.3405(2) 0.13114(19) 0.9314(2)
C167_2 C 0.4314(2) 0.1595(2) 0.86886(19)
C168_2 C 0.36886(19) 0.0686(2) 0.8405(2)
H124_2 H 0.0829 0.3515 0.8777
H125_2 H 0.1223 0.4171 0.8515
H126_2 H 0.3777 0.3515 0.9171
H127_2 H 0.3515 0.4171 0.8777
H128_2 H 0.4171 0.3777 0.8515
H132_2 H 0.3515 0.1223 0.9171
H133_2 H 0.4171 0.1485 0.8777
H134_2 H 0.3777 0.0829 0.8515
H135_2 H 0.0531 0.3384 0.8813
H136_2 H 0.1187 0.4469 0.8384
H137_2 H 0.3813 0.3384 0.9469
H138_2 H 0.3384 0.4469 0.8813
H139_2 H 0.4469 0.3813 0.8384
H143_2 H 0.3384 0.1187 0.9469
H144_2 H 0.4469 0.1616 0.8813
H145_2 H 0.3813 0.0531 0.8384
H146_2 H 0.0626 0.3496 0.8521
H147_2 H 0.1479 0.4374 0.8496
H148_2 H 0.3521 0.3496 0.9374
H149_2 H 0.3496 0.4374 0.8521
H150_2 H 0.4374 0.3521 0.8496
H154_2 H 0.3496 0.1479 0.9374
H155_2 H 0.4374 0.1504 0.8521
H156_2 H 0.3521 0.0626 0.8496
Pb17_4 Pb 0.220953(7) 1.0000 0.805579(9)
Pb18_4 Pb 0.305579(9) 1.0000 0.779047(7)
Pb7_4 Pb 1.0000 0.305579(9) 0.720953(7)
Pb8_4 Pb 1.0000 0.279047(7) 0.805579(9)
O9_5 O 0.0000 0.2500 0.2500
O10_5 O 0.0000 0.1579(3) 0.18213(19)
Pb2_5 Pb 0.0000 0.220953(7) 0.305579(9)
Pb4_5 Pb 0.0000 0.305579(9) 0.279047(7)
O12_3 O 0.03170(10) 0.19912(11) 0.26146(10)
O14_3 O 0.03170(10) 0.30088(11) 0.23854(10)
O17_3 O 0.03170(10) 0.26146(10) 0.30088(11)
O26_3 O 0.03289(8) 0.16079(10) 0.23934(9)
O29_3 O 0.03289(8) 0.33921(10) 0.26066(9)
O32_3 O 0.03289(8) 0.23934(9) 0.33921(10)
O41_5 O 0.0000 0.31787(19) 0.1579(3)
O42_5 O 0.0000 0.3421(3) 0.31787(19)
O43_5 O 0.0000 0.18213(19) 0.3421(3)
O7_3 O 0.96830(10) 0.19912(11) 0.26146(10)
O8_3 O 0.96711(8) 0.16079(10) 0.23934(9)
O9_6 O 1.0000 0.2500 0.2500
O10_6 O 1.0000 0.1579(3) 0.18213(19)
C1_3 C 0.95880(10) 0.17535(13) 0.25829(11)
C2_3 C 0.93623(10) 0.16607(12) 0.27646(10)
C3_3 C 0.92815(10) 0.18166(13) 0.29882(11)
H1_3 H 0.9372 0.1984 0.3029
C4_3 C 0.90682(10) 0.17260(12) 0.31524(11)
C5_3 C 0.89256(10) 0.14864(11) 0.30922(10)
C6_3 C 0.90108(11) 0.13287(12) 0.28691(11)
H2_3 H 0.8919 0.1163 0.2826
C7_3 C 0.92288(11) 0.14151(12) 0.27112(11)
H3_3 H 0.9289 0.1304 0.2563
C8_3 C 0.89642(12) 0.18660(12) 0.34071(12)
C9_3 C 0.87307(10) 0.16740(11) 0.34900(11)
C10_3 C 0.87031(11) 0.14563(11) 0.32994(11)
C11_3 C 0.88614(13) 0.21558(13) 0.33322(14)
H4_3 H 0.8801 0.2248 0.3502
H5_3 H 0.9017 0.2262 0.3257
C12_3 C 0.86271(19) 0.21636(16) 0.31257(19)
H6_3 H 0.8671 0.2045 0.2970
H7_3 H 0.8601 0.2352 0.3061
H8_3 H 0.8459 0.2099 0.3213
C13_3 C 0.91998(12) 0.18718(15) 0.36188(13)
H9_3 H 0.9350 0.1987 0.3546
H10_3 H 0.9132 0.1959 0.3789
C14_3 C 0.9314(2) 0.1595(2) 0.36886(19)
H11_3 H 0.9171 0.1485 0.3777
H12_3 H 0.9469 0.1616 0.3813
H13_3 H 0.9374 0.1504 0.3521
Pb2_6 Pb 1.0000 0.220953(7) 0.305579(9)
Pb4_6 Pb 1.0000 0.305579(9) 0.279047(7)
Pb5_3 Pb 0.805579(9) 0.279047(7) 0.5000
Pb6_3 Pb 0.779047(7) 0.194421(9) 0.5000
Pb7_5 Pb 0.720953(7) 0.0000 0.305579(9)
Pb8_5 Pb 0.805579(9) 0.0000 0.279047(7)
Pb9_3 Pb 0.720953(7) 0.305579(9) 0.5000
Pb10_3 Pb 0.805579(9) 0.5000 0.220953(7)
Pb11_3 Pb 0.779047(7) 0.5000 0.305579(9)
Pb16_3 Pb 0.720953(7) 0.5000 0.194421(9)
Pb17_5 Pb 0.805579(9) 0.220953(7) 0.0000
Pb18_5 Pb 0.779047(7) 0.305579(9) -0.0000
O11_3 O 0.96830(10) 0.23854(10) 0.19912(11)
O15_3 O 0.96830(10) 0.30088(11) 0.23854(10)
O16_3 O 0.96830(10) 0.26146(10) 0.30088(11)
O18_3 O 0.80088(11) 0.23854(10) 0.46830(10)
O19_3 O 0.76146(10) 0.03170(10) 0.30088(11)
O20_3 O 0.76146(10) 0.30088(11) 0.46830(10)
O21_3 O 0.80088(11) 0.46830(10) 0.26146(10)
O24_3 O 0.76146(10) 0.46830(10) 0.19912(11)
O25_3 O 0.80088(11) 0.26146(10) 0.03170(10)
O27_3 O 0.96711(8) 0.26066(9) 0.16079(10)
O30_3 O 0.96711(8) 0.33921(10) 0.26066(9)
O31_3 O 0.96711(8) 0.23934(9) 0.33921(10)
O33_3 O 0.83921(10) 0.26066(9) 0.46711(8)
O34_3 O 0.73934(9) 0.03289(8) 0.33921(10)
O35_3 O 0.73934(9) 0.33921(10) 0.46711(8)
O36_3 O 0.83921(10) 0.46711(8) 0.23934(9)
O39_3 O 0.73934(9) 0.46711(8) 0.16079(10)
O40_3 O 0.83921(10) 0.23934(9) 0.03289(8)
O41_6 O 1.0000 0.31787(19) 0.1579(3)
O42_6 O 1.0000 0.3421(3) 0.31787(19)
O43_6 O 1.0000 0.18213(19) 0.3421(3)
C15_3 C 0.82465(13) 0.24171(11) 0.45880(10)
C16_3 C 0.75829(11) 0.04120(10) 0.32465(13)
C17_3 C 0.95880(10) 0.25829(11) 0.32465(13)
C18_3 C 0.75829(11) 0.32465(13) 0.45880(10)
C19_3 C 0.82465(13) 0.45880(10) 0.25829(11)
C23_3 C 0.95880(10) 0.32465(13) 0.24171(11)
C24_3 C 0.75829(11) 0.45880(10) 0.17535(13)
C25_3 C 0.82465(13) 0.25829(11) 0.04120(10)
C26_3 C 0.83393(12) 0.22354(10) 0.43623(10)
C27_3 C 0.77646(10) 0.06377(10) 0.33393(12)
C28_3 C 0.93623(10) 0.27646(10) 0.33393(12)
C29_3 C 0.77646(10) 0.33393(12) 0.43623(10)
C30_3 C 0.83393(12) 0.43623(10) 0.27646(10)
C34_3 C 0.93623(10) 0.33393(12) 0.22354(10)
C35_3 C 0.77646(10) 0.43623(10) 0.16607(12)
C36_3 C 0.83393(12) 0.27646(10) 0.06377(10)
C37_3 C 0.81834(13) 0.20118(11) 0.42815(10)
C38_3 C 0.79882(11) 0.07185(10) 0.31834(13)
C39_3 C 0.92815(10) 0.29882(11) 0.31834(13)
C40_3 C 0.79882(11) 0.31834(13) 0.42815(10)
C41_3 C 0.81834(13) 0.42815(10) 0.29882(11)
C45_3 C 0.92815(10) 0.31834(13) 0.20118(11)
C46_3 C 0.79882(11) 0.42815(10) 0.18166(13)
C47_3 C 0.81834(13) 0.29882(11) 0.07185(10)
H14_3 H 0.8016 0.1971 0.4372
H15_3 H 0.8029 0.0628 0.3016
H16_3 H 0.9372 0.3029 0.3016
H17_3 H 0.8029 0.3016 0.4372
H18_3 H 0.8016 0.4372 0.3029
H22_3 H 0.9372 0.3016 0.1971
H23_3 H 0.8029 0.4372 0.1984
H24_3 H 0.8016 0.3029 0.0628
C48_3 C 0.82740(12) 0.18476(11) 0.40682(10)
C49_3 C 0.81524(11) 0.09318(10) 0.32740(12)
C50_3 C 0.90682(10) 0.31524(11) 0.32740(12)
C51_3 C 0.81524(11) 0.32740(12) 0.40682(10)
C52_3 C 0.82740(12) 0.40682(10) 0.31524(11)
C56_3 C 0.90682(10) 0.32740(12) 0.18476(11)
C57_3 C 0.81524(11) 0.40682(10) 0.17260(12)
C58_3 C 0.82740(12) 0.31524(11) 0.09318(10)
C59_3 C 0.85136(11) 0.19078(10) 0.39256(10)
C60_3 C 0.80922(10) 0.10744(10) 0.35136(11)
C61_3 C 0.89256(10) 0.30922(10) 0.35136(11)
C62_3 C 0.85136(11) 0.39256(10) 0.30922(10)
C63_3 C 0.80922(10) 0.35136(11) 0.39256(10)
C67_3 C 0.89256(10) 0.35136(11) 0.19078(10)
C68_3 C 0.85136(11) 0.30922(10) 0.10744(10)
C69_3 C 0.80922(10) 0.39256(10) 0.14864(11)
C70_3 C 0.86713(12) 0.21309(11) 0.40108(11)
C71_3 C 0.78691(11) 0.09892(11) 0.36713(12)
C72_3 C 0.90108(11) 0.28691(11) 0.36713(12)
C73_3 C 0.86713(12) 0.40108(11) 0.28691(11)
C74_3 C 0.78691(11) 0.36713(12) 0.40108(11)
C78_3 C 0.90108(11) 0.36713(12) 0.21309(11)
C79_3 C 0.86713(12) 0.28691(11) 0.09892(11)
C80_3 C 0.78691(11) 0.40108(11) 0.13287(12)
H25_3 H 0.8837 0.2174 0.3919
H26_3 H 0.7826 0.1081 0.3837
H27_3 H 0.8919 0.2826 0.3837
H28_3 H 0.8837 0.3919 0.2826
H29_3 H 0.7826 0.3837 0.3919
H33_3 H 0.8919 0.3837 0.2174
H34_3 H 0.8837 0.2826 0.1081
H35_3 H 0.7826 0.3919 0.1163
C81_3 C 0.85849(12) 0.22888(11) 0.42288(11)
C82_3 C 0.77112(11) 0.07712(11) 0.35849(12)
C83_3 C 0.92288(11) 0.27112(11) 0.35849(12)
C84_3 C 0.85849(12) 0.42288(11) 0.27112(11)
C85_3 C 0.77112(11) 0.35849(12) 0.42288(11)
C89_3 C 0.92288(11) 0.35849(12) 0.22888(11)
C90_3 C 0.85849(12) 0.27112(11) 0.07712(11)
C91_3 C 0.77112(11) 0.42288(11) 0.14151(12)
H36_3 H 0.8696 0.2437 0.4289
H37_3 H 0.7563 0.0711 0.3696
H38_3 H 0.9289 0.2563 0.3696
H39_3 H 0.8696 0.4289 0.2563
H40_3 H 0.7563 0.3696 0.4289
H44_3 H 0.9289 0.3696 0.2437
H45_3 H 0.8696 0.2563 0.0711
H46_3 H 0.7563 0.4289 0.1304
C92_3 C 0.84071(12) 0.10358(12) 0.31340(12)
C93_3 C 0.81340(12) 0.15929(12) 0.39642(12)
C94_3 C 0.89642(12) 0.34071(12) 0.31340(12)
C95_3 C 0.84071(12) 0.31340(12) 0.39642(12)
C96_3 C 0.81340(12) 0.39642(12) 0.34071(12)
C100_3 C 0.89642(12) 0.31340(12) 0.15929(12)
C101_3 C 0.84071(12) 0.39642(12) 0.18660(12)
C102_3 C 0.81340(12) 0.34071(12) 0.10358(12)
C103_3 C 0.84900(11) 0.12693(10) 0.33260(11)
C104_3 C 0.83260(11) 0.15100(11) 0.37307(10)
C105_3 C 0.87307(10) 0.34900(11) 0.33260(11)
C106_3 C 0.84900(11) 0.33260(11) 0.37307(10)
C107_3 C 0.83260(11) 0.37307(10) 0.34900(11)
C111_3 C 0.87307(10) 0.33260(11) 0.15100(11)
C112_3 C 0.84900(11) 0.37307(10) 0.16740(11)
C113_3 C 0.83260(11) 0.34900(11) 0.12693(10)
C114_3 C 0.85437(11) 0.17006(11) 0.37031(11)
C115_3 C 0.82994(11) 0.12969(11) 0.35437(11)
C116_3 C 0.87031(11) 0.32994(11) 0.35437(11)
C117_3 C 0.85437(11) 0.37031(11) 0.32994(11)
C118_3 C 0.82994(11) 0.35437(11) 0.37031(11)
C122_3 C 0.87031(11) 0.35437(11) 0.17006(11)
C123_3 C 0.85437(11) 0.32994(11) 0.12969(11)
C124_3 C 0.82994(11) 0.37031(11) 0.14563(11)
C125_3 C 0.83322(14) 0.11386(13) 0.28442(13)
C126_3 C 0.78442(13) 0.16678(14) 0.38614(13)
C127_3 C 0.88614(13) 0.33322(14) 0.28442(13)
C128_3 C 0.83322(14) 0.28442(13) 0.38614(13)
C129_3 C 0.78442(13) 0.38614(13) 0.33322(14)
C133_3 C 0.88614(13) 0.28442(13) 0.16678(14)
C134_3 C 0.83322(14) 0.38614(13) 0.21558(13)
C135_3 C 0.78442(13) 0.33322(14) 0.11386(13)
H47_3 H 0.8502 0.1199 0.2752
H48_3 H 0.7752 0.1498 0.3801
H49_3 H 0.8801 0.3502 0.2752
H50_3 H 0.8502 0.2752 0.3801
H51_3 H 0.7752 0.3801 0.3502
H55_3 H 0.8801 0.2752 0.1498
H56_3 H 0.8502 0.3801 0.2248
H57_3 H 0.7752 0.3502 0.1199
H58_3 H 0.8257 0.0983 0.2738
H59_3 H 0.7738 0.1743 0.4017
H60_3 H 0.9017 0.3257 0.2738
H61_3 H 0.8257 0.2738 0.4017
H62_3 H 0.7738 0.4017 0.3257
H66_3 H 0.9017 0.2738 0.1743
H67_3 H 0.8257 0.4017 0.2262
H68_3 H 0.7738 0.3257 0.0983
C136_3 C 0.81257(19) 0.13729(19) 0.28364(16)
C137_3 C 0.78364(16) 0.18743(19) 0.36271(19)
C138_3 C 0.86271(19) 0.31257(19) 0.28364(16)
C139_3 C 0.81257(19) 0.28364(16) 0.36271(19)
C140_3 C 0.78364(16) 0.36271(19) 0.31257(19)
C144_3 C 0.86271(19) 0.28364(16) 0.18743(19)
C145_3 C 0.81257(19) 0.36271(19) 0.21636(16)
C146_3 C 0.78364(16) 0.31257(19) 0.13729(19)
H69_3 H 0.7970 0.1329 0.2955
H70_3 H 0.7955 0.2030 0.3671
H71_3 H 0.8671 0.2970 0.2955
H72_3 H 0.7970 0.2955 0.3671
H73_3 H 0.7955 0.3671 0.2970
H77_3 H 0.8671 0.2955 0.2030
H78_3 H 0.7970 0.3671 0.2045
H79_3 H 0.7955 0.2970 0.1329
H80_3 H 0.8061 0.1399 0.2648
H81_3 H 0.7648 0.1939 0.3601
H82_3 H 0.8601 0.3061 0.2648
H83_3 H 0.8061 0.2648 0.3601
H84_3 H 0.7648 0.3601 0.3061
H88_3 H 0.8601 0.2648 0.1939
H89_3 H 0.8061 0.3601 0.2352
H90_3 H 0.7648 0.3061 0.1399
H91_3 H 0.8213 0.1541 0.2901
H92_3 H 0.7901 0.1787 0.3459
H93_3 H 0.8459 0.3213 0.2901
H94_3 H 0.8213 0.2901 0.3459
H95_3 H 0.7901 0.3459 0.3213
H99_3 H 0.8459 0.2901 0.1787
H100_3 H 0.8213 0.3459 0.2099
H101_3 H 0.7901 0.3213 0.1541
C147_3 C 0.86188(13) 0.08002(12) 0.31282(15)
C148_3 C 0.81282(15) 0.13812(13) 0.41998(12)
C149_3 C 0.91998(12) 0.36188(13) 0.31282(15)
C150_3 C 0.86188(13) 0.31282(15) 0.41998(12)
C151_3 C 0.81282(15) 0.41998(12) 0.36188(13)
C155_3 C 0.91998(12) 0.31282(15) 0.13812(13)
C156_3 C 0.86188(13) 0.41998(12) 0.18718(15)
C157_3 C 0.81282(15) 0.36188(13) 0.08002(12)
H102_3 H 0.8546 0.0650 0.3013
H103_3 H 0.8013 0.1454 0.4350
H104_3 H 0.9350 0.3546 0.3013
H105_3 H 0.8546 0.3013 0.4350
H106_3 H 0.8013 0.4350 0.3546
H110_3 H 0.9350 0.3013 0.1454
H111_3 H 0.8546 0.4350 0.1987
H112_3 H 0.8013 0.3546 0.0650
H113_3 H 0.8789 0.0868 0.3041
H114_3 H 0.8041 0.1211 0.4132
H115_3 H 0.9132 0.3789 0.3041
H116_3 H 0.8789 0.3041 0.4132
H117_3 H 0.8041 0.4132 0.3789
H121_3 H 0.9132 0.3041 0.1211
H122_3 H 0.8789 0.4132 0.1959
H123_3 H 0.8041 0.3789 0.0868
C158_3 C 0.86886(19) 0.0686(2) 0.3405(2)
C159_3 C 0.8405(2) 0.13114(19) 0.4314(2)
C160_3 C 0.9314(2) 0.36886(19) 0.3405(2)
C161_3 C 0.86886(19) 0.3405(2) 0.4314(2)
C162_3 C 0.8405(2) 0.4314(2) 0.36886(19)
C166_3 C 0.9314(2) 0.3405(2) 0.13114(19)
C167_3 C 0.86886(19) 0.4314(2) 0.1595(2)
C168_3 C 0.8405(2) 0.36886(19) 0.0686(2)
H124_3 H 0.8777 0.0829 0.3515
H125_3 H 0.8515 0.1223 0.4171
H126_3 H 0.9171 0.3777 0.3515
H127_3 H 0.8777 0.3515 0.4171
H128_3 H 0.8515 0.4171 0.3777
H132_3 H 0.9171 0.3515 0.1223
H133_3 H 0.8777 0.4171 0.1485
H134_3 H 0.8515 0.3777 0.0829
H135_3 H 0.8813 0.0531 0.3384
H136_3 H 0.8384 0.1187 0.4469
H137_3 H 0.9469 0.3813 0.3384
H138_3 H 0.8813 0.3384 0.4469
H139_3 H 0.8384 0.4469 0.3813
H143_3 H 0.9469 0.3384 0.1187
H144_3 H 0.8813 0.4469 0.1616
H145_3 H 0.8384 0.3813 0.0531
H146_3 H 0.8521 0.0626 0.3496
H147_3 H 0.8496 0.1479 0.4374
H148_3 H 0.9374 0.3521 0.3496
H149_3 H 0.8521 0.3496 0.4374
H150_3 H 0.8496 0.4374 0.3521
H154_3 H 0.9374 0.3496 0.1479
H155_3 H 0.8521 0.4374 0.1504
H156_3 H 0.8496 0.3521 0.0626
Pb17_6 Pb 0.805579(9) 0.220953(7) 1.0000
Pb18_6 Pb 0.779047(7) 0.305579(9) 1.0000
Pb7_6 Pb 0.720953(7) 1.0000 0.305579(9)
Pb8_6 Pb 0.805579(9) 1.0000 0.279047(7)
O9_7 O 0.5000 0.7500 0.2500
O10_7 O 0.5000 0.68213(19) 0.3421(3)
Pb3_3 Pb 0.5000 0.694421(9) 0.220953(7)
Pb13_3 Pb 0.694421(9) 0.5000 0.279047(7)
Pb14_3 Pb 0.694421(9) 0.779047(7) 0.5000
Pb15_3 Pb 0.720953(7) 0.694421(9) 0.5000
Pb16_4 Pb 0.220953(7) 0.694421(9) 0.0000
Pb17_7 Pb 0.305579(9) 0.5000 0.279047(7)
Pb18_7 Pb 0.279047(7) 0.5000 0.194421(9)
O11_4 O 0.46830(10) 0.69912(11) 0.26146(10)
O12_4 O 0.53170(10) 0.76146(10) 0.30088(11)
O13_2 O 0.53170(10) 0.69912(11) 0.26146(10)
O14_4 O 0.53170(10) 0.73854(10) 0.19912(11)
O15_4 O 0.46830(10) 0.73854(10) 0.19912(11)
O17_4 O 0.53170(10) 0.80088(11) 0.23854(10)
O22_2 O 0.73854(10) 0.53170(10) 0.30088(11)
O23_2 O 0.69912(11) 0.73854(10) 0.46830(10)
O24_4 O 0.26146(10) 0.69912(11) 0.03170(10)
O25_4 O 0.30088(11) 0.53170(10) 0.23854(10)
O26_4 O 0.53289(8) 0.73934(9) 0.33921(10)
O27_4 O 0.46711(8) 0.66079(10) 0.23934(9)
O28_2 O 0.53289(8) 0.66079(10) 0.23934(9)
O29_4 O 0.53289(8) 0.76066(9) 0.16079(10)
O30_4 O 0.46711(8) 0.76066(9) 0.16079(10)
O32_4 O 0.53289(8) 0.83921(10) 0.26066(9)
O37_2 O 0.76066(9) 0.53289(8) 0.33921(10)
O38_2 O 0.66079(10) 0.76066(9) 0.46711(8)
O39_4 O 0.23934(9) 0.66079(10) 0.03289(8)
O40_4 O 0.33921(10) 0.53289(8) 0.26066(9)
O41_7 O 0.5000 0.6579(3) 0.18213(19)
O42_7 O 0.5000 0.81787(19) 0.1579(3)
O43_7 O 0.5000 0.8421(3) 0.31787(19)
C20_2 C 0.54120(10) 0.67535(13) 0.25829(11)
C21_2 C 0.74171(11) 0.54120(10) 0.32465(13)
C22_2 C 0.67535(13) 0.74171(11) 0.45880(10)
C23_4 C 0.45880(10) 0.74171(11) 0.17535(13)
C24_4 C 0.25829(11) 0.67535(13) 0.04120(10)
C25_4 C 0.32465(13) 0.54120(10) 0.24171(11)
C31_2 C 0.56377(10) 0.66607(12) 0.27646(10)
C32_2 C 0.72354(10) 0.56377(10) 0.33393(12)
C33_2 C 0.66607(12) 0.72354(10) 0.43623(10)
C34_4 C 0.43623(10) 0.72354(10) 0.16607(12)
C35_4 C 0.27646(10) 0.66607(12) 0.06377(10)
C36_4 C 0.33393(12) 0.56377(10) 0.22354(10)
C42_2 C 0.57185(10) 0.68166(13) 0.29882(11)
C43_2 C 0.70118(11) 0.57185(10) 0.31834(13)
C44_2 C 0.68166(13) 0.70118(11) 0.42815(10)
C45_4 C 0.42815(10) 0.70118(11) 0.18166(13)
C46_4 C 0.29882(11) 0.68166(13) 0.07185(10)
C47_4 C 0.31834(13) 0.57185(10) 0.20118(11)
H19_2 H 0.5628 0.6984 0.3029
H20_2 H 0.6971 0.5628 0.3016
H21_2 H 0.6984 0.6971 0.4372
H22_4 H 0.4372 0.6971 0.1984
H23_4 H 0.3029 0.6984 0.0628
H24_4 H 0.3016 0.5628 0.1971
C53_2 C 0.59318(10) 0.67260(12) 0.31524(11)
C54_2 C 0.68476(11) 0.59318(10) 0.32740(12)
C55_2 C 0.67260(12) 0.68476(11) 0.40682(10)
C56_4 C 0.40682(10) 0.68476(11) 0.17260(12)
C57_4 C 0.31524(11) 0.67260(12) 0.09318(10)
C58_4 C 0.32740(12) 0.59318(10) 0.18476(11)
C64_2 C 0.60744(10) 0.64864(11) 0.30922(10)
C65_2 C 0.64864(11) 0.69078(10) 0.39256(10)
C66_2 C 0.69078(10) 0.60744(10) 0.35136(11)
C67_4 C 0.39256(10) 0.69078(10) 0.14864(11)
C68_4 C 0.35136(11) 0.60744(10) 0.19078(10)
C69_4 C 0.30922(10) 0.64864(11) 0.10744(10)
C75_2 C 0.59892(11) 0.63287(12) 0.28691(11)
C76_2 C 0.63287(12) 0.71309(11) 0.40108(11)
C77_2 C 0.71309(11) 0.59892(11) 0.36713(12)
C78_4 C 0.40108(11) 0.71309(11) 0.13287(12)
C79_4 C 0.36713(12) 0.59892(11) 0.21309(11)
C80_4 C 0.28691(11) 0.63287(12) 0.09892(11)
H30_2 H 0.6081 0.6163 0.2826
H31_2 H 0.6163 0.7174 0.3919
H32_2 H 0.7174 0.6081 0.3837
H33_4 H 0.3919 0.7174 0.1163
H34_4 H 0.3837 0.6081 0.2174
H35_4 H 0.2826 0.6163 0.1081
C86_2 C 0.57712(11) 0.64151(12) 0.27112(11)
C87_2 C 0.64151(12) 0.72888(11) 0.42288(11)
C88_2 C 0.72888(11) 0.57712(11) 0.35849(12)
C89_4 C 0.42288(11) 0.72888(11) 0.14151(12)
C90_4 C 0.35849(12) 0.57712(11) 0.22888(11)
C91_4 C 0.27112(11) 0.64151(12) 0.07712(11)
H41_2 H 0.5711 0.6304 0.2563
H42_2 H 0.6304 0.7437 0.4289
H43_2 H 0.7437 0.5711 0.3696
H44_4 H 0.4289 0.7437 0.1304
H45_4 H 0.3696 0.5711 0.2437
H46_4 H 0.2563 0.6304 0.0711
C97_2 C 0.60358(12) 0.68660(12) 0.34071(12)
C98_2 C 0.65929(12) 0.60358(12) 0.31340(12)
C99_2 C 0.68660(12) 0.65929(12) 0.39642(12)
C100_4 C 0.39642(12) 0.65929(12) 0.18660(12)
C101_4 C 0.34071(12) 0.68660(12) 0.10358(12)
C102_4 C 0.31340(12) 0.60358(12) 0.15929(12)
C108_2 C 0.62693(10) 0.66740(11) 0.34900(11)
C109_2 C 0.65100(11) 0.62693(10) 0.33260(11)
C110_2 C 0.66740(11) 0.65100(11) 0.37307(10)
C111_4 C 0.37307(10) 0.65100(11) 0.16740(11)
C112_4 C 0.34900(11) 0.66740(11) 0.12693(10)
C113_4 C 0.33260(11) 0.62693(10) 0.15100(11)
C119_2 C 0.62969(11) 0.64563(11) 0.32994(11)
C120_2 C 0.64563(11) 0.67006(11) 0.37031(11)
C121_2 C 0.67006(11) 0.62969(11) 0.35437(11)
C122_4 C 0.37031(11) 0.67006(11) 0.14563(11)
C123_4 C 0.35437(11) 0.62969(11) 0.17006(11)
C124_4 C 0.32994(11) 0.64563(11) 0.12969(11)
C130_2 C 0.61386(13) 0.71558(13) 0.33322(14)
C131_2 C 0.66678(14) 0.61386(13) 0.28442(13)
C132_2 C 0.71558(13) 0.66678(14) 0.38614(13)
C133_4 C 0.38614(13) 0.66678(14) 0.21558(13)
C134_4 C 0.33322(14) 0.71558(13) 0.11386(13)
C135_4 C 0.28442(13) 0.61386(13) 0.16678(14)
H52_2 H 0.6199 0.7248 0.3502
H53_2 H 0.6498 0.6199 0.2752
H54_2 H 0.7248 0.6498 0.3801
H55_4 H 0.3801 0.6498 0.2248
H56_4 H 0.3502 0.7248 0.1199
H57_4 H 0.2752 0.6199 0.1498
H63_2 H 0.5983 0.7262 0.3257
H64_2 H 0.6743 0.5983 0.2738
H65_2 H 0.7262 0.6743 0.4017
H66_4 H 0.4017 0.6743 0.2262
H67_4 H 0.3257 0.7262 0.0983
H68_4 H 0.2738 0.5983 0.1743
C141_2 C 0.63729(19) 0.71636(16) 0.31257(19)
C142_2 C 0.68743(19) 0.63729(19) 0.28364(16)
C143_2 C 0.71636(16) 0.68743(19) 0.36271(19)
C144_4 C 0.36271(19) 0.68743(19) 0.21636(16)
C145_4 C 0.31257(19) 0.71636(16) 0.13729(19)
C146_4 C 0.28364(16) 0.63729(19) 0.18743(19)
H74_2 H 0.6329 0.7045 0.2970
H75_2 H 0.7030 0.6329 0.2955
H76_2 H 0.7045 0.7030 0.3671
H77_4 H 0.3671 0.7030 0.2045
H78_4 H 0.2970 0.7045 0.1329
H79_4 H 0.2955 0.6329 0.2030
H85_2 H 0.6399 0.7352 0.3061
H86_2 H 0.6939 0.6399 0.2648
H87_2 H 0.7352 0.6939 0.3601
H88_4 H 0.3601 0.6939 0.2352
H89_4 H 0.3061 0.7352 0.1399
H90_4 H 0.2648 0.6399 0.1939
H96_2 H 0.6541 0.7099 0.3213
H97_2 H 0.6787 0.6541 0.2901
H98_2 H 0.7099 0.6787 0.3459
H99_4 H 0.3459 0.6787 0.2099
H100_4 H 0.3213 0.7099 0.1541
H101_4 H 0.2901 0.6541 0.1787
C152_2 C 0.58002(12) 0.68718(15) 0.36188(13)
C153_2 C 0.63812(13) 0.58002(12) 0.31282(15)
C154_2 C 0.68718(15) 0.63812(13) 0.41998(12)
C155_4 C 0.41998(12) 0.63812(13) 0.18718(15)
C156_4 C 0.36188(13) 0.68718(15) 0.08002(12)
C157_4 C 0.31282(15) 0.58002(12) 0.13812(13)
H107_2 H 0.5650 0.6987 0.3546
H108_2 H 0.6454 0.5650 0.3013
H109_2 H 0.6987 0.6454 0.4350
H110_4 H 0.4350 0.6454 0.1987
H111_4 H 0.3546 0.6987 0.0650
H112_4 H 0.3013 0.5650 0.1454
H118_2 H 0.5868 0.6959 0.3789
H119_2 H 0.6211 0.5868 0.3041
H120_2 H 0.6959 0.6211 0.4132
H121_4 H 0.4132 0.6211 0.1959
H122_4 H 0.3789 0.6959 0.0868
H123_4 H 0.3041 0.5868 0.1211
C163_2 C 0.5686(2) 0.6595(2) 0.36886(19)
C164_2 C 0.63114(19) 0.5686(2) 0.3405(2)
C165_2 C 0.6595(2) 0.63114(19) 0.4314(2)
C166_4 C 0.4314(2) 0.63114(19) 0.1595(2)
C167_4 C 0.36886(19) 0.6595(2) 0.0686(2)
C168_4 C 0.3405(2) 0.5686(2) 0.13114(19)
H129_2 H 0.5829 0.6485 0.3777
H130_2 H 0.6223 0.5829 0.3515
H131_2 H 0.6485 0.6223 0.4171
H132_4 H 0.4171 0.6223 0.1485
H133_4 H 0.3777 0.6485 0.0829
H134_4 H 0.3515 0.5829 0.1223
H140_2 H 0.5531 0.6616 0.3813
H141_2 H 0.6187 0.5531 0.3384
H142_2 H 0.6616 0.6187 0.4469
H143_4 H 0.4469 0.6187 0.1616
H144_4 H 0.3813 0.6616 0.0531
H145_4 H 0.3384 0.5531 0.1187
H151_2 H 0.5626 0.6504 0.3521
H152_2 H 0.6479 0.5626 0.3496
H153_2 H 0.6504 0.6479 0.4374
H154_4 H 0.4374 0.6479 0.1504
H155_4 H 0.3521 0.6504 0.0626
H156_4 H 0.3496 0.5626 0.1479
Pb16_5 Pb 0.220953(7) 0.694421(9) 1.0000
Pb1_3 Pb 0.5000 0.279047(7) 0.694421(9)
O7_4 O 0.46830(10) 0.23854(10) 0.69912(11)
O8_4 O 0.46711(8) 0.26066(9) 0.66079(10)
O9_8 O 0.5000 0.2500 0.7500
O10_8 O 0.5000 0.31787(19) 0.6579(3)
C1_4 C 0.45880(10) 0.24171(11) 0.67535(13)
C2_4 C 0.43623(10) 0.22354(10) 0.66607(12)
C3_4 C 0.42815(10) 0.20118(11) 0.68166(13)
H1_4 H 0.4372 0.1971 0.6984
C4_4 C 0.40682(10) 0.18476(11) 0.67260(12)
C5_4 C 0.39256(10) 0.19078(10) 0.64864(11)
C6_4 C 0.40108(11) 0.21309(11) 0.63287(12)
H2_4 H 0.3919 0.2174 0.6163
C7_4 C 0.42288(11) 0.22888(11) 0.64151(12)
H3_4 H 0.4289 0.2437 0.6304
C8_4 C 0.39642(12) 0.15929(12) 0.68660(12)
C9_4 C 0.37307(10) 0.15100(11) 0.66740(11)
C10_4 C 0.37031(11) 0.17006(11) 0.64563(11)
C11_4 C 0.38614(13) 0.16678(14) 0.71558(13)
H4_4 H 0.3801 0.1498 0.7248
H5_4 H 0.4017 0.1743 0.7262
C12_4 C 0.36271(19) 0.18743(19) 0.71636(16)
H6_4 H 0.3671 0.2030 0.7045
H7_4 H 0.3601 0.1939 0.7352
H8_4 H 0.3459 0.1787 0.7099
C13_4 C 0.41998(12) 0.13812(13) 0.68718(15)
H9_4 H 0.4350 0.1454 0.6987
H10_4 H 0.4132 0.1211 0.6959
C14_4 C 0.4314(2) 0.13114(19) 0.6595(2)
H11_4 H 0.4171 0.1223 0.6485
H12_4 H 0.4469 0.1187 0.6616
H13_4 H 0.4374 0.1479 0.6504
Pb6_4 Pb 0.279047(7) 0.0000 0.694421(9)
Pb7_7 Pb 0.220953(7) 0.194421(9) 0.5000
Pb8_7 Pb 0.305579(9) 0.220953(7) 0.5000
Pb12_3 Pb 0.779047(7) 0.5000 0.694421(9)
Pb13_4 Pb 0.694421(9) 0.5000 0.720953(7)
Pb14_4 Pb 0.694421(9) 0.220953(7) 0.5000
O11_5 O 0.46830(10) 0.30088(11) 0.73854(10)
O12_5 O 0.53170(10) 0.23854(10) 0.69912(11)
O13_3 O 0.53170(10) 0.30088(11) 0.73854(10)
O14_5 O 0.53170(10) 0.26146(10) 0.80088(11)
O17_5 O 0.53170(10) 0.19912(11) 0.76146(10)
O18_4 O 0.30088(11) 0.03170(10) 0.73854(10)
O19_4 O 0.26146(10) 0.19912(11) 0.53170(10)
O22_3 O 0.73854(10) 0.46830(10) 0.69912(11)
O23_3 O 0.69912(11) 0.26146(10) 0.53170(10)
O26_5 O 0.53289(8) 0.26066(9) 0.66079(10)
O27_5 O 0.46711(8) 0.33921(10) 0.76066(9)
O28_3 O 0.53289(8) 0.33921(10) 0.76066(9)
O29_5 O 0.53289(8) 0.23934(9) 0.83921(10)
O32_5 O 0.53289(8) 0.16079(10) 0.73934(9)
O33_4 O 0.33921(10) 0.03289(8) 0.76066(9)
O34_4 O 0.23934(9) 0.16079(10) 0.53289(8)
O37_3 O 0.76066(9) 0.46711(8) 0.66079(10)
O38_3 O 0.66079(10) 0.23934(9) 0.53289(8)
O41_8 O 0.5000 0.3421(3) 0.81787(19)
O42_8 O 0.5000 0.18213(19) 0.8421(3)
O43_8 O 0.5000 0.1579(3) 0.68213(19)
C15_4 C 0.32465(13) 0.04120(10) 0.74171(11)
C16_4 C 0.25829(11) 0.17535(13) 0.54120(10)
C20_3 C 0.54120(10) 0.32465(13) 0.74171(11)
C21_3 C 0.74171(11) 0.45880(10) 0.67535(13)
C22_3 C 0.67535(13) 0.25829(11) 0.54120(10)
C26_4 C 0.33393(12) 0.06377(10) 0.72354(10)
C27_4 C 0.27646(10) 0.16607(12) 0.56377(10)
C31_3 C 0.56377(10) 0.33393(12) 0.72354(10)
C32_3 C 0.72354(10) 0.43623(10) 0.66607(12)
C33_3 C 0.66607(12) 0.27646(10) 0.56377(10)
C37_4 C 0.31834(13) 0.07185(10) 0.70118(11)
C38_4 C 0.29882(11) 0.18166(13) 0.57185(10)
C42_3 C 0.57185(10) 0.31834(13) 0.70118(11)
C43_3 C 0.70118(11) 0.42815(10) 0.68166(13)
C44_3 C 0.68166(13) 0.29882(11) 0.57185(10)
H14_4 H 0.3016 0.0628 0.6971
H15_4 H 0.3029 0.1984 0.5628
H19_3 H 0.5628 0.3016 0.6971
H20_3 H 0.6971 0.4372 0.6984
H21_3 H 0.6984 0.3029 0.5628
C48_4 C 0.32740(12) 0.09318(10) 0.68476(11)
C49_4 C 0.31524(11) 0.17260(12) 0.59318(10)
C53_3 C 0.59318(10) 0.32740(12) 0.68476(11)
C54_3 C 0.68476(11) 0.40682(10) 0.67260(12)
C55_3 C 0.67260(12) 0.31524(11) 0.59318(10)
C59_4 C 0.35136(11) 0.10744(10) 0.69078(10)
C60_4 C 0.30922(10) 0.14864(11) 0.60744(10)
C64_3 C 0.60744(10) 0.35136(11) 0.69078(10)
C65_3 C 0.64864(11) 0.30922(10) 0.60744(10)
C66_3 C 0.69078(10) 0.39256(10) 0.64864(11)
C70_4 C 0.36713(12) 0.09892(11) 0.71309(11)
C71_4 C 0.28691(11) 0.13287(12) 0.59892(11)
C75_3 C 0.59892(11) 0.36713(12) 0.71309(11)
C76_3 C 0.63287(12) 0.28691(11) 0.59892(11)
C77_3 C 0.71309(11) 0.40108(11) 0.63287(12)
H25_4 H 0.3837 0.1081 0.7174
H26_4 H 0.2826 0.1163 0.6081
H30_3 H 0.6081 0.3837 0.7174
H31_3 H 0.6163 0.2826 0.6081
H32_3 H 0.7174 0.3919 0.6163
C81_4 C 0.35849(12) 0.07712(11) 0.72888(11)
C82_4 C 0.27112(11) 0.14151(12) 0.57712(11)
C86_3 C 0.57712(11) 0.35849(12) 0.72888(11)
C87_3 C 0.64151(12) 0.27112(11) 0.57712(11)
C88_3 C 0.72888(11) 0.42288(11) 0.64151(12)
H36_4 H 0.3696 0.0711 0.7437
H37_4 H 0.2563 0.1304 0.5711
H41_3 H 0.5711 0.3696 0.7437
H42_3 H 0.6304 0.2563 0.5711
H43_3 H 0.7437 0.4289 0.6304
C92_4 C 0.34071(12) 0.18660(12) 0.60358(12)
C93_4 C 0.31340(12) 0.10358(12) 0.65929(12)
C97_3 C 0.60358(12) 0.31340(12) 0.65929(12)
C98_3 C 0.65929(12) 0.39642(12) 0.68660(12)
C99_3 C 0.68660(12) 0.34071(12) 0.60358(12)
C103_4 C 0.34900(11) 0.16740(11) 0.62693(10)
C104_4 C 0.33260(11) 0.12693(10) 0.65100(11)
C108_3 C 0.62693(10) 0.33260(11) 0.65100(11)
C109_3 C 0.65100(11) 0.37307(10) 0.66740(11)
C110_3 C 0.66740(11) 0.34900(11) 0.62693(10)
C114_4 C 0.35437(11) 0.12969(11) 0.67006(11)
C115_4 C 0.32994(11) 0.14563(11) 0.62969(11)
C119_3 C 0.62969(11) 0.35437(11) 0.67006(11)
C120_3 C 0.64563(11) 0.32994(11) 0.62969(11)
C121_3 C 0.67006(11) 0.37031(11) 0.64563(11)
C125_4 C 0.33322(14) 0.21558(13) 0.61386(13)
C126_4 C 0.28442(13) 0.11386(13) 0.66678(14)
C130_3 C 0.61386(13) 0.28442(13) 0.66678(14)
C131_3 C 0.66678(14) 0.38614(13) 0.71558(13)
C132_3 C 0.71558(13) 0.33322(14) 0.61386(13)
H47_4 H 0.3502 0.2248 0.6199
H48_4 H 0.2752 0.1199 0.6498
H52_3 H 0.6199 0.2752 0.6498
H53_3 H 0.6498 0.3801 0.7248
H54_3 H 0.7248 0.3502 0.6199
H58_4 H 0.3257 0.2262 0.5983
H59_4 H 0.2738 0.0983 0.6743
H63_3 H 0.5983 0.2738 0.6743
H64_3 H 0.6743 0.4017 0.7262
H65_3 H 0.7262 0.3257 0.5983
C136_4 C 0.31257(19) 0.21636(16) 0.63729(19)
C137_4 C 0.28364(16) 0.13729(19) 0.68743(19)
C141_3 C 0.63729(19) 0.28364(16) 0.68743(19)
C142_3 C 0.68743(19) 0.36271(19) 0.71636(16)
C143_3 C 0.71636(16) 0.31257(19) 0.63729(19)
H69_4 H 0.2970 0.2045 0.6329
H70_4 H 0.2955 0.1329 0.7030
H74_3 H 0.6329 0.2955 0.7030
H75_3 H 0.7030 0.3671 0.7045
H76_3 H 0.7045 0.2970 0.6329
H80_4 H 0.3061 0.2352 0.6399
H81_4 H 0.2648 0.1399 0.6939
H85_3 H 0.6399 0.2648 0.6939
H86_3 H 0.6939 0.3601 0.7352
H87_3 H 0.7352 0.3061 0.6399
H91_4 H 0.3213 0.2099 0.6541
H92_4 H 0.2901 0.1541 0.6787
H96_3 H 0.6541 0.2901 0.6787
H97_3 H 0.6787 0.3459 0.7099
H98_3 H 0.7099 0.3213 0.6541
C147_4 C 0.36188(13) 0.18718(15) 0.58002(12)
C148_4 C 0.31282(15) 0.08002(12) 0.63812(13)
C152_3 C 0.58002(12) 0.31282(15) 0.63812(13)
C153_3 C 0.63812(13) 0.41998(12) 0.68718(15)
C154_3 C 0.68718(15) 0.36188(13) 0.58002(12)
H102_4 H 0.3546 0.1987 0.5650
H103_4 H 0.3013 0.0650 0.6454
H107_3 H 0.5650 0.3013 0.6454
H108_3 H 0.6454 0.4350 0.6987
H109_3 H 0.6987 0.3546 0.5650
H113_4 H 0.3789 0.1959 0.5868
H114_4 H 0.3041 0.0868 0.6211
H118_3 H 0.5868 0.3041 0.6211
H119_3 H 0.6211 0.4132 0.6959
H120_3 H 0.6959 0.3789 0.5868
C158_4 C 0.36886(19) 0.1595(2) 0.5686(2)
C159_4 C 0.3405(2) 0.0686(2) 0.63114(19)
C163_3 C 0.5686(2) 0.3405(2) 0.63114(19)
C164_3 C 0.63114(19) 0.4314(2) 0.6595(2)
C165_3 C 0.6595(2) 0.36886(19) 0.5686(2)
H124_4 H 0.3777 0.1485 0.5829
H125_4 H 0.3515 0.0829 0.6223
H129_3 H 0.5829 0.3515 0.6223
H130_3 H 0.6223 0.4171 0.6485
H131_3 H 0.6485 0.3777 0.5829
H135_4 H 0.3813 0.1616 0.5531
H136_4 H 0.3384 0.0531 0.6187
H140_3 H 0.5531 0.3384 0.6187
H141_3 H 0.6187 0.4469 0.6616
H142_3 H 0.6616 0.3813 0.5531
H146_4 H 0.3521 0.1504 0.5626
H147_4 H 0.3496 0.0626 0.6479
H151_3 H 0.5626 0.3496 0.6479
H152_3 H 0.6479 0.4374 0.6504
H153_3 H 0.6504 0.3521 0.5626
Pb6_5 Pb 0.279047(7) 1.0000 0.694421(9)
Pb5_4 Pb 0.694421(9) 0.0000 0.779047(7)
Pb6_6 Pb 0.720953(7) 0.0000 0.694421(9)
Pb9_4 Pb 0.779047(7) 0.0000 0.805579(9)
Pb10_4 Pb 0.694421(9) 0.720953(7) 0.0000
Pb11_4 Pb 0.720953(7) 0.805579(9) 0.0000
Pb16_6 Pb 0.779047(7) 0.694421(9) 0.0000
Pb1_4 Pb 0.5000 0.720953(7) 0.694421(9)
O7_5 O 0.53170(10) 0.76146(10) 0.69912(11)
O8_5 O 0.53289(8) 0.73934(9) 0.66079(10)
O9_9 O 0.5000 0.7500 0.7500
O10_9 O 0.5000 0.68213(19) 0.6579(3)
C1_5 C 0.54120(10) 0.75829(11) 0.67535(13)
C2_5 C 0.56377(10) 0.77646(10) 0.66607(12)
C3_5 C 0.57185(10) 0.79882(11) 0.68166(13)
H1_5 H 0.5628 0.8029 0.6984
C4_5 C 0.59318(10) 0.81524(11) 0.67260(12)
C5_5 C 0.60744(10) 0.80922(10) 0.64864(11)
C6_5 C 0.59892(11) 0.78691(11) 0.63287(12)
H2_5 H 0.6081 0.7826 0.6163
C7_5 C 0.57712(11) 0.77112(11) 0.64151(12)
H3_5 H 0.5711 0.7563 0.6304
C8_5 C 0.60358(12) 0.84071(12) 0.68660(12)
C9_5 C 0.62693(10) 0.84900(11) 0.66740(11)
C10_5 C 0.62969(11) 0.82994(11) 0.64563(11)
C11_5 C 0.61386(13) 0.83322(14) 0.71558(13)
H4_5 H 0.6199 0.8502 0.7248
H5_5 H 0.5983 0.8257 0.7262
C12_5 C 0.63729(19) 0.81257(19) 0.71636(16)
H6_5 H 0.6329 0.7970 0.7045
H7_5 H 0.6399 0.8061 0.7352
H8_5 H 0.6541 0.8213 0.7099
C13_5 C 0.58002(12) 0.86188(13) 0.68718(15)
H9_5 H 0.5650 0.8546 0.6987
H10_5 H 0.5868 0.8789 0.6959
C14_5 C 0.5686(2) 0.86886(19) 0.6595(2)
H11_5 H 0.5829 0.8777 0.6485
H12_5 H 0.5531 0.8813 0.6616
H13_5 H 0.5626 0.8521 0.6504
Pb2_7 Pb 0.5000 0.805579(9) 0.720953(7)
Pb3_4 Pb 0.5000 0.694421(9) 0.779047(7)
Pb4_7 Pb 0.5000 0.779047(7) 0.805579(9)
Pb5_5 Pb 0.694421(9) 1.0000 0.779047(7)
Pb6_7 Pb 0.720953(7) 1.0000 0.694421(9)
Pb7_8 Pb 0.779047(7) 0.805579(9) 0.5000
Pb9_5 Pb 0.779047(7) 1.0000 0.805579(9)
Pb10_5 Pb 0.694421(9) 0.720953(7) 1.0000
Pb11_5 Pb 0.720953(7) 0.805579(9) 1.0000
Pb12_4 Pb 0.220953(7) 0.5000 0.694421(9)
Pb15_4 Pb 0.279047(7) 0.694421(9) 0.5000
Pb16_7 Pb 0.779047(7) 0.694421(9) 1.0000
Pb18_8 Pb 0.720953(7) 0.5000 0.805579(9)
O11_6 O 0.53170(10) 0.69912(11) 0.73854(10)
O12_6 O 0.46830(10) 0.76146(10) 0.69912(11)
O13_4 O 0.46830(10) 0.69912(11) 0.73854(10)
O14_6 O 0.46830(10) 0.73854(10) 0.80088(11)
O15_5 O 0.53170(10) 0.73854(10) 0.80088(11)
O16_4 O 0.53170(10) 0.80088(11) 0.76146(10)
O17_6 O 0.46830(10) 0.80088(11) 0.76146(10)
O18_5 O 0.69912(11) 0.96830(10) 0.73854(10)
O19_5 O 0.73854(10) 0.80088(11) 0.53170(10)
O20_4 O 0.73854(10) 0.96830(10) 0.80088(11)
O21_4 O 0.69912(11) 0.76146(10) 0.96830(10)
O22_4 O 0.26146(10) 0.53170(10) 0.69912(11)
O23_4 O 0.30088(11) 0.73854(10) 0.53170(10)
O24_5 O 0.73854(10) 0.69912(11) 0.96830(10)
O25_5 O 0.69912(11) 0.53170(10) 0.76146(10)
O26_6 O 0.46711(8) 0.73934(9) 0.66079(10)
O27_6 O 0.53289(8) 0.66079(10) 0.76066(9)
O28_4 O 0.46711(8) 0.66079(10) 0.76066(9)
O29_6 O 0.46711(8) 0.76066(9) 0.83921(10)
O30_5 O 0.53289(8) 0.76066(9) 0.83921(10)
O31_4 O 0.53289(8) 0.83921(10) 0.73934(9)
O32_6 O 0.46711(8) 0.83921(10) 0.73934(9)
O33_5 O 0.66079(10) 0.96711(8) 0.76066(9)
O34_5 O 0.76066(9) 0.83921(10) 0.53289(8)
O35_4 O 0.76066(9) 0.96711(8) 0.83921(10)
O36_4 O 0.66079(10) 0.73934(9) 0.96711(8)
O37_4 O 0.23934(9) 0.53289(8) 0.66079(10)
O38_4 O 0.33921(10) 0.76066(9) 0.53289(8)
O39_5 O 0.76066(9) 0.66079(10) 0.96711(8)
O40_5 O 0.66079(10) 0.53289(8) 0.73934(9)
O41_9 O 0.5000 0.6579(3) 0.81787(19)
O42_9 O 0.5000 0.81787(19) 0.8421(3)
O43_9 O 0.5000 0.8421(3) 0.68213(19)
C15_5 C 0.67535(13) 0.95880(10) 0.74171(11)
C16_5 C 0.74171(11) 0.82465(13) 0.54120(10)
C17_4 C 0.54120(10) 0.82465(13) 0.75829(11)
C18_4 C 0.74171(11) 0.95880(10) 0.82465(13)
C19_4 C 0.67535(13) 0.75829(11) 0.95880(10)
C20_4 C 0.45880(10) 0.67535(13) 0.74171(11)
C21_4 C 0.25829(11) 0.54120(10) 0.67535(13)
C22_4 C 0.32465(13) 0.74171(11) 0.54120(10)
C23_5 C 0.54120(10) 0.74171(11) 0.82465(13)
C24_5 C 0.74171(11) 0.67535(13) 0.95880(10)
C25_5 C 0.67535(13) 0.54120(10) 0.75829(11)
C26_5 C 0.66607(12) 0.93623(10) 0.72354(10)
C27_5 C 0.72354(10) 0.83393(12) 0.56377(10)
C28_4 C 0.56377(10) 0.83393(12) 0.77646(10)
C29_4 C 0.72354(10) 0.93623(10) 0.83393(12)
C30_4 C 0.66607(12) 0.77646(10) 0.93623(10)
C31_4 C 0.43623(10) 0.66607(12) 0.72354(10)
C32_4 C 0.27646(10) 0.56377(10) 0.66607(12)
C33_4 C 0.33393(12) 0.72354(10) 0.56377(10)
C34_5 C 0.56377(10) 0.72354(10) 0.83393(12)
C35_5 C 0.72354(10) 0.66607(12) 0.93623(10)
C36_5 C 0.66607(12) 0.56377(10) 0.77646(10)
C37_5 C 0.68166(13) 0.92815(10) 0.70118(11)
C38_5 C 0.70118(11) 0.81834(13) 0.57185(10)
C39_4 C 0.57185(10) 0.81834(13) 0.79882(11)
C40_4 C 0.70118(11) 0.92815(10) 0.81834(13)
C41_4 C 0.68166(13) 0.79882(11) 0.92815(10)
C42_4 C 0.42815(10) 0.68166(13) 0.70118(11)
C43_4 C 0.29882(11) 0.57185(10) 0.68166(13)
C44_4 C 0.31834(13) 0.70118(11) 0.57185(10)
C45_5 C 0.57185(10) 0.70118(11) 0.81834(13)
C46_5 C 0.70118(11) 0.68166(13) 0.92815(10)
C47_5 C 0.68166(13) 0.57185(10) 0.79882(11)
H14_5 H 0.6984 0.9372 0.6971
H15_5 H 0.6971 0.8016 0.5628
H16_4 H 0.5628 0.8016 0.8029
H17_4 H 0.6971 0.9372 0.8016
H18_4 H 0.6984 0.8029 0.9372
H19_4 H 0.4372 0.6984 0.6971
H20_4 H 0.3029 0.5628 0.6984
H21_4 H 0.3016 0.6971 0.5628
H22_5 H 0.5628 0.6971 0.8016
H23_5 H 0.6971 0.6984 0.9372
H24_5 H 0.6984 0.5628 0.8029
C48_5 C 0.67260(12) 0.90682(10) 0.68476(11)
C49_5 C 0.68476(11) 0.82740(12) 0.59318(10)
C50_4 C 0.59318(10) 0.82740(12) 0.81524(11)
C51_4 C 0.68476(11) 0.90682(10) 0.82740(12)
C52_4 C 0.67260(12) 0.81524(11) 0.90682(10)
C53_4 C 0.40682(10) 0.67260(12) 0.68476(11)
C54_4 C 0.31524(11) 0.59318(10) 0.67260(12)
C55_4 C 0.32740(12) 0.68476(11) 0.59318(10)
C56_5 C 0.59318(10) 0.68476(11) 0.82740(12)
C57_5 C 0.68476(11) 0.67260(12) 0.90682(10)
C58_5 C 0.67260(12) 0.59318(10) 0.81524(11)
C59_5 C 0.64864(11) 0.89256(10) 0.69078(10)
C60_5 C 0.69078(10) 0.85136(11) 0.60744(10)
C61_4 C 0.60744(10) 0.85136(11) 0.80922(10)
C62_4 C 0.64864(11) 0.80922(10) 0.89256(10)
C63_4 C 0.69078(10) 0.89256(10) 0.85136(11)
C64_4 C 0.39256(10) 0.64864(11) 0.69078(10)
C65_4 C 0.35136(11) 0.69078(10) 0.60744(10)
C66_4 C 0.30922(10) 0.60744(10) 0.64864(11)
C67_5 C 0.60744(10) 0.69078(10) 0.85136(11)
C68_5 C 0.64864(11) 0.60744(10) 0.80922(10)
C69_5 C 0.69078(10) 0.64864(11) 0.89256(10)
C70_5 C 0.63287(12) 0.90108(11) 0.71309(11)
C71_5 C 0.71309(11) 0.86713(12) 0.59892(11)
C72_4 C 0.59892(11) 0.86713(12) 0.78691(11)
C73_4 C 0.63287(12) 0.78691(11) 0.90108(11)
C74_4 C 0.71309(11) 0.90108(11) 0.86713(12)
C75_4 C 0.40108(11) 0.63287(12) 0.71309(11)
C76_4 C 0.36713(12) 0.71309(11) 0.59892(11)
C77_4 C 0.28691(11) 0.59892(11) 0.63287(12)
C78_5 C 0.59892(11) 0.71309(11) 0.86713(12)
C79_5 C 0.63287(12) 0.59892(11) 0.78691(11)
C80_5 C 0.71309(11) 0.63287(12) 0.90108(11)
H25_5 H 0.6163 0.8919 0.7174
H26_5 H 0.7174 0.8837 0.6081
H27_4 H 0.6081 0.8837 0.7826
H28_4 H 0.6163 0.7826 0.8919
H29_4 H 0.7174 0.8919 0.8837
H30_4 H 0.3919 0.6163 0.7174
H31_4 H 0.3837 0.7174 0.6081
H32_4 H 0.2826 0.6081 0.6163
H33_5 H 0.6081 0.7174 0.8837
H34_5 H 0.6163 0.6081 0.7826
H35_5 H 0.7174 0.6163 0.8919
C81_5 C 0.64151(12) 0.92288(11) 0.72888(11)
C82_5 C 0.72888(11) 0.85849(12) 0.57712(11)
C83_4 C 0.57712(11) 0.85849(12) 0.77112(11)
C84_4 C 0.64151(12) 0.77112(11) 0.92288(11)
C85_4 C 0.72888(11) 0.92288(11) 0.85849(12)
C86_4 C 0.42288(11) 0.64151(12) 0.72888(11)
C87_4 C 0.35849(12) 0.72888(11) 0.57712(11)
C88_4 C 0.27112(11) 0.57712(11) 0.64151(12)
C89_5 C 0.57712(11) 0.72888(11) 0.85849(12)
C90_5 C 0.64151(12) 0.57712(11) 0.77112(11)
C91_5 C 0.72888(11) 0.64151(12) 0.92288(11)
H36_5 H 0.6304 0.9289 0.7437
H37_5 H 0.7437 0.8696 0.5711
H38_4 H 0.5711 0.8696 0.7563
H39_4 H 0.6304 0.7563 0.9289
H40_4 H 0.7437 0.9289 0.8696
H41_4 H 0.4289 0.6304 0.7437
H42_4 H 0.3696 0.7437 0.5711
H43_4 H 0.2563 0.5711 0.6304
H44_5 H 0.5711 0.7437 0.8696
H45_5 H 0.6304 0.5711 0.7563
H46_5 H 0.7437 0.6304 0.9289
C92_5 C 0.65929(12) 0.81340(12) 0.60358(12)
C93_5 C 0.68660(12) 0.89642(12) 0.65929(12)
C94_4 C 0.60358(12) 0.81340(12) 0.84071(12)
C95_4 C 0.65929(12) 0.89642(12) 0.81340(12)
C96_4 C 0.68660(12) 0.84071(12) 0.89642(12)
C97_4 C 0.39642(12) 0.68660(12) 0.65929(12)
C98_4 C 0.34071(12) 0.60358(12) 0.68660(12)
C99_4 C 0.31340(12) 0.65929(12) 0.60358(12)
C100_5 C 0.60358(12) 0.65929(12) 0.81340(12)
C101_5 C 0.65929(12) 0.68660(12) 0.89642(12)
C102_5 C 0.68660(12) 0.60358(12) 0.84071(12)
C103_5 C 0.65100(11) 0.83260(11) 0.62693(10)
C104_5 C 0.66740(11) 0.87307(10) 0.65100(11)
C105_4 C 0.62693(10) 0.83260(11) 0.84900(11)
C106_4 C 0.65100(11) 0.87307(10) 0.83260(11)
C107_4 C 0.66740(11) 0.84900(11) 0.87307(10)
C108_4 C 0.37307(10) 0.66740(11) 0.65100(11)
C109_4 C 0.34900(11) 0.62693(10) 0.66740(11)
C110_4 C 0.33260(11) 0.65100(11) 0.62693(10)
C111_5 C 0.62693(10) 0.65100(11) 0.83260(11)
C112_5 C 0.65100(11) 0.66740(11) 0.87307(10)
C113_5 C 0.66740(11) 0.62693(10) 0.84900(11)
C114_5 C 0.64563(11) 0.87031(11) 0.67006(11)
C115_5 C 0.67006(11) 0.85437(11) 0.62969(11)
C116_4 C 0.62969(11) 0.85437(11) 0.82994(11)
C117_4 C 0.64563(11) 0.82994(11) 0.87031(11)
C118_4 C 0.67006(11) 0.87031(11) 0.85437(11)
C119_4 C 0.37031(11) 0.64563(11) 0.67006(11)
C120_4 C 0.35437(11) 0.67006(11) 0.62969(11)
C121_4 C 0.32994(11) 0.62969(11) 0.64563(11)
C122_5 C 0.62969(11) 0.67006(11) 0.85437(11)
C123_5 C 0.64563(11) 0.62969(11) 0.82994(11)
C124_5 C 0.67006(11) 0.64563(11) 0.87031(11)
C125_5 C 0.66678(14) 0.78442(13) 0.61386(13)
C126_5 C 0.71558(13) 0.88614(13) 0.66678(14)
C127_4 C 0.61386(13) 0.78442(13) 0.83322(14)
C128_4 C 0.66678(14) 0.88614(13) 0.78442(13)
C129_4 C 0.71558(13) 0.83322(14) 0.88614(13)
C130_4 C 0.38614(13) 0.71558(13) 0.66678(14)
C131_4 C 0.33322(14) 0.61386(13) 0.71558(13)
C132_4 C 0.28442(13) 0.66678(14) 0.61386(13)
C133_5 C 0.61386(13) 0.66678(14) 0.78442(13)
C134_5 C 0.66678(14) 0.71558(13) 0.88614(13)
C135_5 C 0.71558(13) 0.61386(13) 0.83322(14)
H47_5 H 0.6498 0.7752 0.6199
H48_5 H 0.7248 0.8801 0.6498
H49_4 H 0.6199 0.7752 0.8502
H50_4 H 0.6498 0.8801 0.7752
H51_4 H 0.7248 0.8502 0.8801
H52_4 H 0.3801 0.7248 0.6498
H53_4 H 0.3502 0.6199 0.7248
H54_4 H 0.2752 0.6498 0.6199
H55_5 H 0.6199 0.6498 0.7752
H56_5 H 0.6498 0.7248 0.8801
H57_5 H 0.7248 0.6199 0.8502
H58_5 H 0.6743 0.7738 0.5983
H59_5 H 0.7262 0.9017 0.6743
H60_4 H 0.5983 0.7738 0.8257
H61_4 H 0.6743 0.9017 0.7738
H62_4 H 0.7262 0.8257 0.9017
H63_4 H 0.4017 0.7262 0.6743
H64_4 H 0.3257 0.5983 0.7262
H65_4 H 0.2738 0.6743 0.5983
H66_5 H 0.5983 0.6743 0.7738
H67_5 H 0.6743 0.7262 0.9017
H68_5 H 0.7262 0.5983 0.8257
C136_5 C 0.68743(19) 0.78364(16) 0.63729(19)
C137_5 C 0.71636(16) 0.86271(19) 0.68743(19)
C138_4 C 0.63729(19) 0.78364(16) 0.81257(19)
C139_4 C 0.68743(19) 0.86271(19) 0.78364(16)
C140_4 C 0.71636(16) 0.81257(19) 0.86271(19)
C141_4 C 0.36271(19) 0.71636(16) 0.68743(19)
C142_4 C 0.31257(19) 0.63729(19) 0.71636(16)
C143_4 C 0.28364(16) 0.68743(19) 0.63729(19)
C144_5 C 0.63729(19) 0.68743(19) 0.78364(16)
C145_5 C 0.68743(19) 0.71636(16) 0.86271(19)
C146_5 C 0.71636(16) 0.63729(19) 0.81257(19)
H69_5 H 0.7030 0.7955 0.6329
H70_5 H 0.7045 0.8671 0.7030
H71_4 H 0.6329 0.7955 0.7970
H72_4 H 0.7030 0.8671 0.7955
H73_4 H 0.7045 0.7970 0.8671
H74_4 H 0.3671 0.7045 0.7030
H75_4 H 0.2970 0.6329 0.7045
H76_4 H 0.2955 0.7030 0.6329
H77_5 H 0.6329 0.7030 0.7955
H78_5 H 0.7030 0.7045 0.8671
H79_5 H 0.7045 0.6329 0.7970
H80_5 H 0.6939 0.7648 0.6399
H81_5 H 0.7352 0.8601 0.6939
H82_4 H 0.6399 0.7648 0.8061
H83_4 H 0.6939 0.8601 0.7648
H84_4 H 0.7352 0.8061 0.8601
H85_4 H 0.3601 0.7352 0.6939
H86_4 H 0.3061 0.6399 0.7352
H87_4 H 0.2648 0.6939 0.6399
H88_5 H 0.6399 0.6939 0.7648
H89_5 H 0.6939 0.7352 0.8601
H90_5 H 0.7352 0.6399 0.8061
H91_5 H 0.6787 0.7901 0.6541
H92_5 H 0.7099 0.8459 0.6787
H93_4 H 0.6541 0.7901 0.8213
H94_4 H 0.6787 0.8459 0.7901
H95_4 H 0.7099 0.8213 0.8459
H96_4 H 0.3459 0.7099 0.6787
H97_4 H 0.3213 0.6541 0.7099
H98_4 H 0.2901 0.6787 0.6541
H99_5 H 0.6541 0.6787 0.7901
H100_5 H 0.6787 0.7099 0.8459
H101_5 H 0.7099 0.6541 0.8213
C147_5 C 0.63812(13) 0.81282(15) 0.58002(12)
C148_5 C 0.68718(15) 0.91998(12) 0.63812(13)
C149_4 C 0.58002(12) 0.81282(15) 0.86188(13)
C150_4 C 0.63812(13) 0.91998(12) 0.81282(15)
C151_4 C 0.68718(15) 0.86188(13) 0.91998(12)
C152_4 C 0.41998(12) 0.68718(15) 0.63812(13)
C153_4 C 0.36188(13) 0.58002(12) 0.68718(15)
C154_4 C 0.31282(15) 0.63812(13) 0.58002(12)
C155_5 C 0.58002(12) 0.63812(13) 0.81282(15)
C156_5 C 0.63812(13) 0.68718(15) 0.91998(12)
C157_5 C 0.68718(15) 0.58002(12) 0.86188(13)
H102_5 H 0.6454 0.8013 0.5650
H103_5 H 0.6987 0.9350 0.6454
H104_4 H 0.5650 0.8013 0.8546
H105_4 H 0.6454 0.9350 0.8013
H106_4 H 0.6987 0.8546 0.9350
H107_4 H 0.4350 0.6987 0.6454
H108_4 H 0.3546 0.5650 0.6987
H109_4 H 0.3013 0.6454 0.5650
H110_5 H 0.5650 0.6454 0.8013
H111_5 H 0.6454 0.6987 0.9350
H112_5 H 0.6987 0.5650 0.8546
H113_5 H 0.6211 0.8041 0.5868
H114_5 H 0.6959 0.9132 0.6211
H115_4 H 0.5868 0.8041 0.8789
H116_4 H 0.6211 0.9132 0.8041
H117_4 H 0.6959 0.8789 0.9132
H118_4 H 0.4132 0.6959 0.6211
H119_4 H 0.3789 0.5868 0.6959
H120_4 H 0.3041 0.6211 0.5868
H121_5 H 0.5868 0.6211 0.8041
H122_5 H 0.6211 0.6959 0.9132
H123_5 H 0.6959 0.5868 0.8789
C158_5 C 0.63114(19) 0.8405(2) 0.5686(2)
C159_5 C 0.6595(2) 0.9314(2) 0.63114(19)
C160_4 C 0.5686(2) 0.8405(2) 0.86886(19)
C161_4 C 0.63114(19) 0.9314(2) 0.8405(2)
C162_4 C 0.6595(2) 0.86886(19) 0.9314(2)
C163_4 C 0.4314(2) 0.6595(2) 0.63114(19)
C164_4 C 0.36886(19) 0.5686(2) 0.6595(2)
C165_4 C 0.3405(2) 0.63114(19) 0.5686(2)
C166_5 C 0.5686(2) 0.63114(19) 0.8405(2)
C167_5 C 0.63114(19) 0.6595(2) 0.9314(2)
C168_5 C 0.6595(2) 0.5686(2) 0.86886(19)
H124_5 H 0.6223 0.8515 0.5829
H125_5 H 0.6485 0.9171 0.6223
H126_4 H 0.5829 0.8515 0.8777
H127_4 H 0.6223 0.9171 0.8515
H128_4 H 0.6485 0.8777 0.9171
H129_4 H 0.4171 0.6485 0.6223
H130_4 H 0.3777 0.5829 0.6485
H131_4 H 0.3515 0.6223 0.5829
H132_5 H 0.5829 0.6223 0.8515
H133_5 H 0.6223 0.6485 0.9171
H134_5 H 0.6485 0.5829 0.8777
H135_5 H 0.6187 0.8384 0.5531
H136_5 H 0.6616 0.9469 0.6187
H137_4 H 0.5531 0.8384 0.8813
H138_4 H 0.6187 0.9469 0.8384
H139_4 H 0.6616 0.8813 0.9469
H140_4 H 0.4469 0.6616 0.6187
H141_4 H 0.3813 0.5531 0.6616
H142_4 H 0.3384 0.6187 0.5531
H143_5 H 0.5531 0.6187 0.8384
H144_5 H 0.6187 0.6616 0.9469
H145_5 H 0.6616 0.5531 0.8813
H146_5 H 0.6479 0.8496 0.5626
H147_5 H 0.6504 0.9374 0.6479
H148_4 H 0.5626 0.8496 0.8521
H149_4 H 0.6479 0.9374 0.8496
H150_4 H 0.6504 0.8521 0.9374
H151_4 H 0.4374 0.6504 0.6479
H152_4 H 0.3521 0.5626 0.6504
H153_4 H 0.3496 0.6479 0.5626
H154_5 H 0.5626 0.6479 0.8496
H155_5 H 0.6479 0.6504 0.9374
H156_5 H 0.6504 0.5626 0.8521
Pb5_6 Pb 0.0000 0.779047(7) 0.694421(9)
Pb6_8 Pb 0.0000 0.694421(9) 0.720953(7)
Pb9_6 Pb 0.0000 0.805579(9) 0.779047(7)
Pb11_6 Pb 0.805579(9) 0.0000 0.720953(7)
O7_6 O 0.76146(10) 0.69912(11) 0.53170(10)
O8_6 O 0.73934(9) 0.66079(10) 0.53289(8)
O9_10 O 0.7500 0.7500 0.5000
O10_10 O 0.68213(19) 0.6579(3) 0.5000
C1_6 C 0.75829(11) 0.67535(13) 0.54120(10)
C2_6 C 0.77646(10) 0.66607(12) 0.56377(10)
C3_6 C 0.79882(11) 0.68166(13) 0.57185(10)
H1_6 H 0.8029 0.6984 0.5628
C4_6 C 0.81524(11) 0.67260(12) 0.59318(10)
C5_6 C 0.80922(10) 0.64864(11) 0.60744(10)
C6_6 C 0.78691(11) 0.63287(12) 0.59892(11)
H2_6 H 0.7826 0.6163 0.6081
C7_6 C 0.77112(11) 0.64151(12) 0.57712(11)
H3_6 H 0.7563 0.6304 0.5711
C8_6 C 0.84071(12) 0.68660(12) 0.60358(12)
C9_6 C 0.84900(11) 0.66740(11) 0.62693(10)
C10_6 C 0.82994(11) 0.64563(11) 0.62969(11)
C11_6 C 0.83322(14) 0.71558(13) 0.61386(13)
H4_6 H 0.8502 0.7248 0.6199
H5_6 H 0.8257 0.7262 0.5983
C12_6 C 0.81257(19) 0.71636(16) 0.63729(19)
H6_6 H 0.7970 0.7045 0.6329
H7_6 H 0.8061 0.7352 0.6399
H8_6 H 0.8213 0.7099 0.6541
C13_6 C 0.86188(13) 0.68718(15) 0.58002(12)
H9_6 H 0.8546 0.6987 0.5650
H10_6 H 0.8789 0.6959 0.5868
C14_6 C 0.86886(19) 0.6595(2) 0.5686(2)
H11_6 H 0.8777 0.6485 0.5829
H12_6 H 0.8813 0.6616 0.5531
H13_6 H 0.8521 0.6504 0.5626
Pb2_8 Pb 0.805579(9) 0.720953(7) 0.5000
Pb5_7 Pb 1.0000 0.779047(7) 0.694421(9)
Pb6_9 Pb 1.0000 0.694421(9) 0.720953(7)
Pb7_9 Pb 0.805579(9) 0.5000 0.779047(7)
Pb9_7 Pb 1.0000 0.805579(9) 0.779047(7)
Pb11_7 Pb 0.805579(9) 1.0000 0.720953(7)
O11_7 O 0.69912(11) 0.73854(10) 0.53170(10)
O12_7 O 0.76146(10) 0.69912(11) 0.46830(10)
O14_7 O 0.73854(10) 0.80088(11) 0.46830(10)
O16_5 O 0.80088(11) 0.76146(10) 0.53170(10)
O17_7 O 0.80088(11) 0.76146(10) 0.46830(10)
O18_6 O 0.96830(10) 0.73854(10) 0.69912(11)
O19_6 O 0.80088(11) 0.53170(10) 0.73854(10)
O20_5 O 0.96830(10) 0.80088(11) 0.73854(10)
O21_5 O 0.76146(10) 0.96830(10) 0.69912(11)
O26_7 O 0.73934(9) 0.66079(10) 0.46711(8)
O27_7 O 0.66079(10) 0.76066(9) 0.53289(8)
O29_7 O 0.76066(9) 0.83921(10) 0.46711(8)
O31_5 O 0.83921(10) 0.73934(9) 0.53289(8)
O32_7 O 0.83921(10) 0.73934(9) 0.46711(8)
O33_6 O 0.96711(8) 0.76066(9) 0.66079(10)
O34_6 O 0.83921(10) 0.53289(8) 0.76066(9)
O35_5 O 0.96711(8) 0.83921(10) 0.76066(9)
O36_5 O 0.73934(9) 0.96711(8) 0.66079(10)
O41_10 O 0.6579(3) 0.81787(19) 0.5000
O42_10 O 0.81787(19) 0.8421(3) 0.5000
O43_10 O 0.8421(3) 0.68213(19) 0.5000
C15_6 C 0.95880(10) 0.74171(11) 0.67535(13)
C16_6 C 0.82465(13) 0.54120(10) 0.74171(11)
C17_5 C 0.82465(13) 0.75829(11) 0.54120(10)
C18_5 C 0.95880(10) 0.82465(13) 0.74171(11)
C19_5 C 0.75829(11) 0.95880(10) 0.67535(13)
C26_6 C 0.93623(10) 0.72354(10) 0.66607(12)
C27_6 C 0.83393(12) 0.56377(10) 0.72354(10)
C28_5 C 0.83393(12) 0.77646(10) 0.56377(10)
C29_5 C 0.93623(10) 0.83393(12) 0.72354(10)
C30_5 C 0.77646(10) 0.93623(10) 0.66607(12)
C37_6 C 0.92815(10) 0.70118(11) 0.68166(13)
C38_6 C 0.81834(13) 0.57185(10) 0.70118(11)
C39_5 C 0.81834(13) 0.79882(11) 0.57185(10)
C40_5 C 0.92815(10) 0.81834(13) 0.70118(11)
C41_5 C 0.79882(11) 0.92815(10) 0.68166(13)
H14_6 H 0.9372 0.6971 0.6984
H15_6 H 0.8016 0.5628 0.6971
H16_5 H 0.8016 0.8029 0.5628
H17_5 H 0.9372 0.8016 0.6971
H18_5 H 0.8029 0.9372 0.6984
C48_6 C 0.90682(10) 0.68476(11) 0.67260(12)
C49_6 C 0.82740(12) 0.59318(10) 0.68476(11)
C50_5 C 0.82740(12) 0.81524(11) 0.59318(10)
C51_5 C 0.90682(10) 0.82740(12) 0.68476(11)
C52_5 C 0.81524(11) 0.90682(10) 0.67260(12)
C59_6 C 0.89256(10) 0.69078(10) 0.64864(11)
C60_6 C 0.85136(11) 0.60744(10) 0.69078(10)
C61_5 C 0.85136(11) 0.80922(10) 0.60744(10)
C62_5 C 0.80922(10) 0.89256(10) 0.64864(11)
C63_5 C 0.89256(10) 0.85136(11) 0.69078(10)
C70_6 C 0.90108(11) 0.71309(11) 0.63287(12)
C71_6 C 0.86713(12) 0.59892(11) 0.71309(11)
C72_5 C 0.86713(12) 0.78691(11) 0.59892(11)
C73_5 C 0.78691(11) 0.90108(11) 0.63287(12)
C74_5 C 0.90108(11) 0.86713(12) 0.71309(11)
H25_6 H 0.8919 0.7174 0.6163
H26_6 H 0.8837 0.6081 0.7174
H27_5 H 0.8837 0.7826 0.6081
H28_5 H 0.7826 0.8919 0.6163
H29_5 H 0.8919 0.8837 0.7174
C81_6 C 0.92288(11) 0.72888(11) 0.64151(12)
C82_6 C 0.85849(12) 0.57712(11) 0.72888(11)
C83_5 C 0.85849(12) 0.77112(11) 0.57712(11)
C84_5 C 0.77112(11) 0.92288(11) 0.64151(12)
C85_5 C 0.92288(11) 0.85849(12) 0.72888(11)
H36_6 H 0.9289 0.7437 0.6304
H37_6 H 0.8696 0.5711 0.7437
H38_5 H 0.8696 0.7563 0.5711
H39_5 H 0.7563 0.9289 0.6304
H40_5 H 0.9289 0.8696 0.7437
C92_6 C 0.81340(12) 0.60358(12) 0.65929(12)
C93_6 C 0.89642(12) 0.65929(12) 0.68660(12)
C94_5 C 0.81340(12) 0.84071(12) 0.60358(12)
C95_5 C 0.89642(12) 0.81340(12) 0.65929(12)
C96_5 C 0.84071(12) 0.89642(12) 0.68660(12)
C103_6 C 0.83260(11) 0.62693(10) 0.65100(11)
C104_6 C 0.87307(10) 0.65100(11) 0.66740(11)
C105_5 C 0.83260(11) 0.84900(11) 0.62693(10)
C106_5 C 0.87307(10) 0.83260(11) 0.65100(11)
C107_5 C 0.84900(11) 0.87307(10) 0.66740(11)
C114_6 C 0.87031(11) 0.67006(11) 0.64563(11)
C115_6 C 0.85437(11) 0.62969(11) 0.67006(11)
C116_5 C 0.85437(11) 0.82994(11) 0.62969(11)
C117_5 C 0.82994(11) 0.87031(11) 0.64563(11)
C118_5 C 0.87031(11) 0.85437(11) 0.67006(11)
C125_6 C 0.78442(13) 0.61386(13) 0.66678(14)
C126_6 C 0.88614(13) 0.66678(14) 0.71558(13)
C127_5 C 0.78442(13) 0.83322(14) 0.61386(13)
C128_5 C 0.88614(13) 0.78442(13) 0.66678(14)
C129_5 C 0.83322(14) 0.88614(13) 0.71558(13)
H47_6 H 0.7752 0.6199 0.6498
H48_6 H 0.8801 0.6498 0.7248
H49_5 H 0.7752 0.8502 0.6199
H50_5 H 0.8801 0.7752 0.6498
H51_5 H 0.8502 0.8801 0.7248
H58_6 H 0.7738 0.5983 0.6743
H59_6 H 0.9017 0.6743 0.7262
H60_5 H 0.7738 0.8257 0.5983
H61_5 H 0.9017 0.7738 0.6743
H62_5 H 0.8257 0.9017 0.7262
C136_6 C 0.78364(16) 0.63729(19) 0.68743(19)
C137_6 C 0.86271(19) 0.68743(19) 0.71636(16)
C138_5 C 0.78364(16) 0.81257(19) 0.63729(19)
C139_5 C 0.86271(19) 0.78364(16) 0.68743(19)
C140_5 C 0.81257(19) 0.86271(19) 0.71636(16)
H69_6 H 0.7955 0.6329 0.7030
H70_6 H 0.8671 0.7030 0.7045
H71_5 H 0.7955 0.7970 0.6329
H72_5 H 0.8671 0.7955 0.7030
H73_5 H 0.7970 0.8671 0.7045
H80_6 H 0.7648 0.6399 0.6939
H81_6 H 0.8601 0.6939 0.7352
H82_5 H 0.7648 0.8061 0.6399
H83_5 H 0.8601 0.7648 0.6939
H84_5 H 0.8061 0.8601 0.7352
H91_6 H 0.7901 0.6541 0.6787
H92_6 H 0.8459 0.6787 0.7099
H93_5 H 0.7901 0.8213 0.6541
H94_5 H 0.8459 0.7901 0.6787
H95_5 H 0.8213 0.8459 0.7099
C147_6 C 0.81282(15) 0.58002(12) 0.63812(13)
C148_6 C 0.91998(12) 0.63812(13) 0.68718(15)
C149_5 C 0.81282(15) 0.86188(13) 0.58002(12)
C150_5 C 0.91998(12) 0.81282(15) 0.63812(13)
C151_5 C 0.86188(13) 0.91998(12) 0.68718(15)
H102_6 H 0.8013 0.5650 0.6454
H103_6 H 0.9350 0.6454 0.6987
H104_5 H 0.8013 0.8546 0.5650
H105_5 H 0.9350 0.8013 0.6454
H106_5 H 0.8546 0.9350 0.6987
H113_6 H 0.8041 0.5868 0.6211
H114_6 H 0.9132 0.6211 0.6959
H115_5 H 0.8041 0.8789 0.5868
H116_5 H 0.9132 0.8041 0.6211
H117_5 H 0.8789 0.9132 0.6959
C158_6 C 0.8405(2) 0.5686(2) 0.63114(19)
C159_6 C 0.9314(2) 0.63114(19) 0.6595(2)
C160_5 C 0.8405(2) 0.86886(19) 0.5686(2)
C161_5 C 0.9314(2) 0.8405(2) 0.63114(19)
C162_5 C 0.86886(19) 0.9314(2) 0.6595(2)
H124_6 H 0.8515 0.5829 0.6223
H125_6 H 0.9171 0.6223 0.6485
H126_5 H 0.8515 0.8777 0.5829
H127_5 H 0.9171 0.8515 0.6223
H128_5 H 0.8777 0.9171 0.6485
H135_6 H 0.8384 0.5531 0.6187
H136_6 H 0.9469 0.6187 0.6616
H137_5 H 0.8384 0.8813 0.5531
H138_5 H 0.9469 0.8384 0.6187
H139_5 H 0.8813 0.9469 0.6616
H146_6 H 0.8496 0.5626 0.6479
H147_6 H 0.9374 0.6479 0.6504
H148_5 H 0.8496 0.8521 0.5626
H149_5 H 0.9374 0.8496 0.6479
H150_5 H 0.8521 0.9374 0.6504
O7_7 O 0.23854(10) 0.69912(11) 0.46830(10)
O8_7 O 0.26066(9) 0.66079(10) 0.46711(8)
O9_11 O 0.2500 0.7500 0.5000
O10_11 O 0.31787(19) 0.6579(3) 0.5000
C1_7 C 0.24171(11) 0.67535(13) 0.45880(10)
C2_7 C 0.22354(10) 0.66607(12) 0.43623(10)
C3_7 C 0.20118(11) 0.68166(13) 0.42815(10)
H1_7 H 0.1971 0.6984 0.4372
C4_7 C 0.18476(11) 0.67260(12) 0.40682(10)
C5_7 C 0.19078(10) 0.64864(11) 0.39256(10)
C6_7 C 0.21309(11) 0.63287(12) 0.40108(11)
H2_7 H 0.2174 0.6163 0.3919
C7_7 C 0.22888(11) 0.64151(12) 0.42288(11)
H3_7 H 0.2437 0.6304 0.4289
C8_7 C 0.15929(12) 0.68660(12) 0.39642(12)
C9_7 C 0.15100(11) 0.66740(11) 0.37307(10)
C10_7 C 0.17006(11) 0.64563(11) 0.37031(11)
C11_7 C 0.16678(14) 0.71558(13) 0.38614(13)
H4_7 H 0.1498 0.7248 0.3801
H5_7 H 0.1743 0.7262 0.4017
C12_7 C 0.18743(19) 0.71636(16) 0.36271(19)
H6_7 H 0.2030 0.7045 0.3671
H7_7 H 0.1939 0.7352 0.3601
H8_7 H 0.1787 0.7099 0.3459
C13_7 C 0.13812(13) 0.68718(15) 0.41998(12)
H9_7 H 0.1454 0.6987 0.4350
H10_7 H 0.1211 0.6959 0.4132
C14_7 C 0.13114(19) 0.6595(2) 0.4314(2)
H11_7 H 0.1223 0.6485 0.4171
H12_7 H 0.1187 0.6616 0.4469
H13_7 H 0.1479 0.6504 0.4374
Pb6_10 Pb 0.0000 0.694421(9) 0.279047(7)
Pb7_10 Pb 0.194421(9) 0.5000 0.220953(7)
Pb8_8 Pb 0.220953(7) 0.5000 0.305579(9)
O11_8 O 0.30088(11) 0.73854(10) 0.46830(10)
O12_8 O 0.23854(10) 0.69912(11) 0.53170(10)
O14_8 O 0.26146(10) 0.80088(11) 0.53170(10)
O17_8 O 0.19912(11) 0.76146(10) 0.53170(10)
O18_7 O 0.03170(10) 0.73854(10) 0.30088(11)
O19_7 O 0.19912(11) 0.53170(10) 0.26146(10)
O26_8 O 0.26066(9) 0.66079(10) 0.53289(8)
O27_8 O 0.33921(10) 0.76066(9) 0.46711(8)
O29_8 O 0.23934(9) 0.83921(10) 0.53289(8)
O32_8 O 0.16079(10) 0.73934(9) 0.53289(8)
O33_7 O 0.03289(8) 0.76066(9) 0.33921(10)
O34_7 O 0.16079(10) 0.53289(8) 0.23934(9)
O41_11 O 0.3421(3) 0.81787(19) 0.5000
O42_11 O 0.18213(19) 0.8421(3) 0.5000
O43_11 O 0.1579(3) 0.68213(19) 0.5000
C15_7 C 0.04120(10) 0.74171(11) 0.32465(13)
C16_7 C 0.17535(13) 0.54120(10) 0.25829(11)
C26_7 C 0.06377(10) 0.72354(10) 0.33393(12)
C27_7 C 0.16607(12) 0.56377(10) 0.27646(10)
C37_7 C 0.07185(10) 0.70118(11) 0.31834(13)
C38_7 C 0.18166(13) 0.57185(10) 0.29882(11)
H14_7 H 0.0628 0.6971 0.3016
H15_7 H 0.1984 0.5628 0.3029
C48_7 C 0.09318(10) 0.68476(11) 0.32740(12)
C49_7 C 0.17260(12) 0.59318(10) 0.31524(11)
C59_7 C 0.10744(10) 0.69078(10) 0.35136(11)
C60_7 C 0.14864(11) 0.60744(10) 0.30922(10)
C70_7 C 0.09892(11) 0.71309(11) 0.36713(12)
C71_7 C 0.13287(12) 0.59892(11) 0.28691(11)
H25_7 H 0.1081 0.7174 0.3837
H26_7 H 0.1163 0.6081 0.2826
C81_7 C 0.07712(11) 0.72888(11) 0.35849(12)
C82_7 C 0.14151(12) 0.57712(11) 0.27112(11)
H36_7 H 0.0711 0.7437 0.3696
H37_7 H 0.1304 0.5711 0.2563
C92_7 C 0.18660(12) 0.60358(12) 0.34071(12)
C93_7 C 0.10358(12) 0.65929(12) 0.31340(12)
C103_7 C 0.16740(11) 0.62693(10) 0.34900(11)
C104_7 C 0.12693(10) 0.65100(11) 0.33260(11)
C114_7 C 0.12969(11) 0.67006(11) 0.35437(11)
C115_7 C 0.14563(11) 0.62969(11) 0.32994(11)
C125_7 C 0.21558(13) 0.61386(13) 0.33322(14)
C126_7 C 0.11386(13) 0.66678(14) 0.28442(13)
H47_7 H 0.2248 0.6199 0.3502
H48_7 H 0.1199 0.6498 0.2752
H58_7 H 0.2262 0.5983 0.3257
H59_7 H 0.0983 0.6743 0.2738
C136_7 C 0.21636(16) 0.63729(19) 0.31257(19)
C137_7 C 0.13729(19) 0.68743(19) 0.28364(16)
H69_7 H 0.2045 0.6329 0.2970
H70_7 H 0.1329 0.7030 0.2955
H80_7 H 0.2352 0.6399 0.3061
H81_7 H 0.1399 0.6939 0.2648
H91_7 H 0.2099 0.6541 0.3213
H92_7 H 0.1541 0.6787 0.2901
C147_7 C 0.18718(15) 0.58002(12) 0.36188(13)
C148_7 C 0.08002(12) 0.63812(13) 0.31282(15)
H102_7 H 0.1987 0.5650 0.3546
H103_7 H 0.0650 0.6454 0.3013
H113_7 H 0.1959 0.5868 0.3789
H114_7 H 0.0868 0.6211 0.3041
C158_7 C 0.1595(2) 0.5686(2) 0.36886(19)
C159_7 C 0.0686(2) 0.63114(19) 0.3405(2)
H124_7 H 0.1485 0.5829 0.3777
H125_7 H 0.0829 0.6223 0.3515
H135_7 H 0.1616 0.5531 0.3813
H136_7 H 0.0531 0.6187 0.3384
H146_7 H 0.1504 0.5626 0.3521
H147_7 H 0.0626 0.6479 0.3496
Pb6_11 Pb 1.0000 0.694421(9) 0.279047(7)
O9_12 O 0.7500 0.2500 0.5000
O10_12 O 0.68213(19) 0.3421(3) 0.5000
Pb16_8 Pb 0.694421(9) 0.0000 0.220953(7)
Pb17_8 Pb 0.5000 0.279047(7) 0.305579(9)
Pb18_9 Pb 0.5000 0.194421(9) 0.279047(7)
O11_9 O 0.69912(11) 0.26146(10) 0.46830(10)
O12_9 O 0.76146(10) 0.30088(11) 0.53170(10)
O14_9 O 0.73854(10) 0.19912(11) 0.53170(10)
O15_6 O 0.73854(10) 0.19912(11) 0.46830(10)
O17_9 O 0.80088(11) 0.23854(10) 0.53170(10)
O24_6 O 0.69912(11) 0.03170(10) 0.26146(10)
O25_6 O 0.53170(10) 0.23854(10) 0.30088(11)
O26_9 O 0.73934(9) 0.33921(10) 0.53289(8)
O27_9 O 0.66079(10) 0.23934(9) 0.46711(8)
O29_9 O 0.76066(9) 0.16079(10) 0.53289(8)
O30_6 O 0.76066(9) 0.16079(10) 0.46711(8)
O32_9 O 0.83921(10) 0.26066(9) 0.53289(8)
O39_6 O 0.66079(10) 0.03289(8) 0.23934(9)
O40_6 O 0.53289(8) 0.26066(9) 0.33921(10)
O41_12 O 0.6579(3) 0.18213(19) 0.5000
O42_12 O 0.81787(19) 0.1579(3) 0.5000
O43_12 O 0.8421(3) 0.31787(19) 0.5000
C23_6 C 0.74171(11) 0.17535(13) 0.45880(10)
C24_6 C 0.67535(13) 0.04120(10) 0.25829(11)
C25_6 C 0.54120(10) 0.24171(11) 0.32465(13)
C34_6 C 0.72354(10) 0.16607(12) 0.43623(10)
C35_6 C 0.66607(12) 0.06377(10) 0.27646(10)
C36_6 C 0.56377(10) 0.22354(10) 0.33393(12)
C45_6 C 0.70118(11) 0.18166(13) 0.42815(10)
C46_6 C 0.68166(13) 0.07185(10) 0.29882(11)
C47_6 C 0.57185(10) 0.20118(11) 0.31834(13)
H22_6 H 0.6971 0.1984 0.4372
H23_6 H 0.6984 0.0628 0.3029
H24_6 H 0.5628 0.1971 0.3016
C56_6 C 0.68476(11) 0.17260(12) 0.40682(10)
C57_6 C 0.67260(12) 0.09318(10) 0.31524(11)
C58_6 C 0.59318(10) 0.18476(11) 0.32740(12)
C67_6 C 0.69078(10) 0.14864(11) 0.39256(10)
C68_6 C 0.60744(10) 0.19078(10) 0.35136(11)
C69_6 C 0.64864(11) 0.10744(10) 0.30922(10)
C78_6 C 0.71309(11) 0.13287(12) 0.40108(11)
C79_6 C 0.59892(11) 0.21309(11) 0.36713(12)
C80_6 C 0.63287(12) 0.09892(11) 0.28691(11)
H33_6 H 0.7174 0.1163 0.3919
H34_6 H 0.6081 0.2174 0.3837
H35_6 H 0.6163 0.1081 0.2826
C89_6 C 0.72888(11) 0.14151(12) 0.42288(11)
C90_6 C 0.57712(11) 0.22888(11) 0.35849(12)
C91_6 C 0.64151(12) 0.07712(11) 0.27112(11)
H44_6 H 0.7437 0.1304 0.4289
H45_6 H 0.5711 0.2437 0.3696
H46_6 H 0.6304 0.0711 0.2563
C100_6 C 0.65929(12) 0.18660(12) 0.39642(12)
C101_6 C 0.68660(12) 0.10358(12) 0.34071(12)
C102_6 C 0.60358(12) 0.15929(12) 0.31340(12)
C111_6 C 0.65100(11) 0.16740(11) 0.37307(10)
C112_6 C 0.66740(11) 0.12693(10) 0.34900(11)
C113_6 C 0.62693(10) 0.15100(11) 0.33260(11)
C122_6 C 0.67006(11) 0.14563(11) 0.37031(11)
C123_6 C 0.62969(11) 0.17006(11) 0.35437(11)
C124_6 C 0.64563(11) 0.12969(11) 0.32994(11)
C133_6 C 0.66678(14) 0.21558(13) 0.38614(13)
C134_6 C 0.71558(13) 0.11386(13) 0.33322(14)
C135_6 C 0.61386(13) 0.16678(14) 0.28442(13)
H55_6 H 0.6498 0.2248 0.3801
H56_6 H 0.7248 0.1199 0.3502
H57_6 H 0.6199 0.1498 0.2752
H66_6 H 0.6743 0.2262 0.4017
H67_6 H 0.7262 0.0983 0.3257
H68_6 H 0.5983 0.1743 0.2738
C144_6 C 0.68743(19) 0.21636(16) 0.36271(19)
C145_6 C 0.71636(16) 0.13729(19) 0.31257(19)
C146_6 C 0.63729(19) 0.18743(19) 0.28364(16)
H77_6 H 0.7030 0.2045 0.3671
H78_6 H 0.7045 0.1329 0.2970
H79_6 H 0.6329 0.2030 0.2955
H88_6 H 0.6939 0.2352 0.3601
H89_6 H 0.7352 0.1399 0.3061
H90_6 H 0.6399 0.1939 0.2648
H99_6 H 0.6787 0.2099 0.3459
H100_6 H 0.7099 0.1541 0.3213
H101_6 H 0.6541 0.1787 0.2901
C155_6 C 0.63812(13) 0.18718(15) 0.41998(12)
C156_6 C 0.68718(15) 0.08002(12) 0.36188(13)
C157_6 C 0.58002(12) 0.13812(13) 0.31282(15)
H110_6 H 0.6454 0.1987 0.4350
H111_6 H 0.6987 0.0650 0.3546
H112_6 H 0.5650 0.1454 0.3013
H121_6 H 0.6211 0.1959 0.4132
H122_6 H 0.6959 0.0868 0.3789
H123_6 H 0.5868 0.1211 0.3041
C166_6 C 0.63114(19) 0.1595(2) 0.4314(2)
C167_6 C 0.6595(2) 0.0686(2) 0.36886(19)
C168_6 C 0.5686(2) 0.13114(19) 0.3405(2)
H132_6 H 0.6223 0.1485 0.4171
H133_6 H 0.6485 0.0829 0.3777
H134_6 H 0.5829 0.1223 0.3515
H143_6 H 0.6187 0.1616 0.4469
H144_6 H 0.6616 0.0531 0.3813
H145_6 H 0.5531 0.1187 0.3384
H154_6 H 0.6479 0.1504 0.4374
H155_6 H 0.6504 0.0626 0.3521
H156_6 H 0.5626 0.1479 0.3496
Pb16_9 Pb 0.694421(9) 1.0000 0.220953(7)
O7_8 O 0.69912(11) 0.46830(10) 0.23854(10)
O8_8 O 0.66079(10) 0.46711(8) 0.26066(9)
O9_13 O 0.7500 0.5000 0.2500
O10_13 O 0.6579(3) 0.5000 0.31787(19)
C1_8 C 0.67535(13) 0.45880(10) 0.24171(11)
C2_8 C 0.66607(12) 0.43623(10) 0.22354(10)
C3_8 C 0.68166(13) 0.42815(10) 0.20118(11)
H1_8 H 0.6984 0.4372 0.1971
C4_8 C 0.67260(12) 0.40682(10) 0.18476(11)
C5_8 C 0.64864(11) 0.39256(10) 0.19078(10)
C6_8 C 0.63287(12) 0.40108(11) 0.21309(11)
H2_8 H 0.6163 0.3919 0.2174
C7_8 C 0.64151(12) 0.42288(11) 0.22888(11)
H3_8 H 0.6304 0.4289 0.2437
C8_8 C 0.68660(12) 0.39642(12) 0.15929(12)
C9_8 C 0.66740(11) 0.37307(10) 0.15100(11)
C10_8 C 0.64563(11) 0.37031(11) 0.17006(11)
C11_8 C 0.71558(13) 0.38614(13) 0.16678(14)
H4_8 H 0.7248 0.3801 0.1498
H5_8 H 0.7262 0.4017 0.1743
C12_8 C 0.71636(16) 0.36271(19) 0.18743(19)
H6_8 H 0.7045 0.3671 0.2030
H7_8 H 0.7352 0.3601 0.1939
H8_8 H 0.7099 0.3459 0.1787
C13_8 C 0.68718(15) 0.41998(12) 0.13812(13)
H9_8 H 0.6987 0.4350 0.1454
H10_8 H 0.6959 0.4132 0.1211
C14_8 C 0.6595(2) 0.4314(2) 0.13114(19)
H11_8 H 0.6485 0.4171 0.1223
H12_8 H 0.6616 0.4469 0.1187
H13_8 H 0.6504 0.4374 0.1479
Pb6_12 Pb 0.694421(9) 0.279047(7) 0.0000
Pb7_11 Pb 0.5000 0.220953(7) 0.194421(9)
Pb8_9 Pb 0.5000 0.305579(9) 0.220953(7)
O11_10 O 0.73854(10) 0.46830(10) 0.30088(11)
O12_10 O 0.69912(11) 0.53170(10) 0.23854(10)
O14_10 O 0.80088(11) 0.53170(10) 0.26146(10)
O17_10 O 0.76146(10) 0.53170(10) 0.19912(11)
O18_8 O 0.73854(10) 0.30088(11) 0.03170(10)
O19_8 O 0.53170(10) 0.26146(10) 0.19912(11)
O26_10 O 0.66079(10) 0.53289(8) 0.26066(9)
O27_10 O 0.76066(9) 0.46711(8) 0.33921(10)
O29_10 O 0.83921(10) 0.53289(8) 0.23934(9)
O32_10 O 0.73934(9) 0.53289(8) 0.16079(10)
O33_8 O 0.76066(9) 0.33921(10) 0.03289(8)
O34_8 O 0.53289(8) 0.23934(9) 0.16079(10)
O41_13 O 0.81787(19) 0.5000 0.3421(3)
O42_13 O 0.8421(3) 0.5000 0.18213(19)
O43_13 O 0.68213(19) 0.5000 0.1579(3)
C15_8 C 0.74171(11) 0.32465(13) 0.04120(10)
C16_8 C 0.54120(10) 0.25829(11) 0.17535(13)
C26_8 C 0.72354(10) 0.33393(12) 0.06377(10)
C27_8 C 0.56377(10) 0.27646(10) 0.16607(12)
C37_8 C 0.70118(11) 0.31834(13) 0.07185(10)
C38_8 C 0.57185(10) 0.29882(11) 0.18166(13)
H14_8 H 0.6971 0.3016 0.0628
H15_8 H 0.5628 0.3029 0.1984
C48_8 C 0.68476(11) 0.32740(12) 0.09318(10)
C49_8 C 0.59318(10) 0.31524(11) 0.17260(12)
C59_8 C 0.69078(10) 0.35136(11) 0.10744(10)
C60_8 C 0.60744(10) 0.30922(10) 0.14864(11)
C70_8 C 0.71309(11) 0.36713(12) 0.09892(11)
C71_8 C 0.59892(11) 0.28691(11) 0.13287(12)
H25_8 H 0.7174 0.3837 0.1081
H26_8 H 0.6081 0.2826 0.1163
C81_8 C 0.72888(11) 0.35849(12) 0.07712(11)
C82_8 C 0.57712(11) 0.27112(11) 0.14151(12)
H36_8 H 0.7437 0.3696 0.0711
H37_8 H 0.5711 0.2563 0.1304
C92_8 C 0.60358(12) 0.34071(12) 0.18660(12)
C93_8 C 0.65929(12) 0.31340(12) 0.10358(12)
C103_8 C 0.62693(10) 0.34900(11) 0.16740(11)
C104_8 C 0.65100(11) 0.33260(11) 0.12693(10)
C114_8 C 0.67006(11) 0.35437(11) 0.12969(11)
C115_8 C 0.62969(11) 0.32994(11) 0.14563(11)
C125_8 C 0.61386(13) 0.33322(14) 0.21558(13)
C126_8 C 0.66678(14) 0.28442(13) 0.11386(13)
H47_8 H 0.6199 0.3502 0.2248
H48_8 H 0.6498 0.2752 0.1199
H58_8 H 0.5983 0.3257 0.2262
H59_8 H 0.6743 0.2738 0.0983
C136_8 C 0.63729(19) 0.31257(19) 0.21636(16)
C137_8 C 0.68743(19) 0.28364(16) 0.13729(19)
H69_8 H 0.6329 0.2970 0.2045
H70_8 H 0.7030 0.2955 0.1329
H80_8 H 0.6399 0.3061 0.2352
H81_8 H 0.6939 0.2648 0.1399
H91_8 H 0.6541 0.3213 0.2099
H92_8 H 0.6787 0.2901 0.1541
C147_8 C 0.58002(12) 0.36188(13) 0.18718(15)
C148_8 C 0.63812(13) 0.31282(15) 0.08002(12)
H102_8 H 0.5650 0.3546 0.1987
H103_8 H 0.6454 0.3013 0.0650
H113_8 H 0.5868 0.3789 0.1959
H114_8 H 0.6211 0.3041 0.0868
C158_8 C 0.5686(2) 0.36886(19) 0.1595(2)
C159_8 C 0.63114(19) 0.3405(2) 0.0686(2)
H124_8 H 0.5829 0.3777 0.1485
H125_8 H 0.6223 0.3515 0.0829
H135_8 H 0.5531 0.3813 0.1616
H136_8 H 0.6187 0.3384 0.0531
H146_8 H 0.5626 0.3521 0.1504
H147_8 H 0.6479 0.3496 0.0626
Pb6_13 Pb 0.694421(9) 0.279047(7) 1.0000
Pb11_8 Pb 0.0000 0.720953(7) 0.805579(9)
Pb9_8 Pb 0.805579(9) 0.779047(7) 0.0000
O9_14 O 0.7500 0.5000 0.7500
O10_14 O 0.6579(3) 0.5000 0.68213(19)
Pb9_9 Pb 0.805579(9) 0.779047(7) 1.0000
Pb11_9 Pb 1.0000 0.720953(7) 0.805579(9)
O11_11 O 0.73854(10) 0.53170(10) 0.69912(11)
O12_11 O 0.69912(11) 0.46830(10) 0.76146(10)
O14_11 O 0.80088(11) 0.46830(10) 0.73854(10)
O16_6 O 0.76146(10) 0.53170(10) 0.80088(11)
O17_11 O 0.76146(10) 0.46830(10) 0.80088(11)
O20_6 O 0.80088(11) 0.73854(10) 0.96830(10)
O21_6 O 0.96830(10) 0.69912(11) 0.76146(10)
O26_11 O 0.66079(10) 0.46711(8) 0.73934(9)
O27_11 O 0.76066(9) 0.53289(8) 0.66079(10)
O29_11 O 0.83921(10) 0.46711(8) 0.76066(9)
O31_6 O 0.73934(9) 0.53289(8) 0.83921(10)
O32_11 O 0.73934(9) 0.46711(8) 0.83921(10)
O35_6 O 0.83921(10) 0.76066(9) 0.96711(8)
O36_6 O 0.96711(8) 0.66079(10) 0.73934(9)
O41_14 O 0.81787(19) 0.5000 0.6579(3)
O42_14 O 0.8421(3) 0.5000 0.81787(19)
O43_14 O 0.68213(19) 0.5000 0.8421(3)
C17_6 C 0.75829(11) 0.54120(10) 0.82465(13)
C18_6 C 0.82465(13) 0.74171(11) 0.95880(10)
C19_6 C 0.95880(10) 0.67535(13) 0.75829(11)
C28_6 C 0.77646(10) 0.56377(10) 0.83393(12)
C29_6 C 0.83393(12) 0.72354(10) 0.93623(10)
C30_6 C 0.93623(10) 0.66607(12) 0.77646(10)
C39_6 C 0.79882(11) 0.57185(10) 0.81834(13)
C40_6 C 0.81834(13) 0.70118(11) 0.92815(10)
C41_6 C 0.92815(10) 0.68166(13) 0.79882(11)
H16_6 H 0.8029 0.5628 0.8016
H17_6 H 0.8016 0.6971 0.9372
H18_6 H 0.9372 0.6984 0.8029
C50_6 C 0.81524(11) 0.59318(10) 0.82740(12)
C51_6 C 0.82740(12) 0.68476(11) 0.90682(10)
C52_6 C 0.90682(10) 0.67260(12) 0.81524(11)
C61_6 C 0.80922(10) 0.60744(10) 0.85136(11)
C62_6 C 0.89256(10) 0.64864(11) 0.80922(10)
C63_6 C 0.85136(11) 0.69078(10) 0.89256(10)
C72_6 C 0.78691(11) 0.59892(11) 0.86713(12)
C73_6 C 0.90108(11) 0.63287(12) 0.78691(11)
C74_6 C 0.86713(12) 0.71309(11) 0.90108(11)
H27_6 H 0.7826 0.6081 0.8837
H28_6 H 0.8919 0.6163 0.7826
H29_6 H 0.8837 0.7174 0.8919
C83_6 C 0.77112(11) 0.57712(11) 0.85849(12)
C84_6 C 0.92288(11) 0.64151(12) 0.77112(11)
C85_6 C 0.85849(12) 0.72888(11) 0.92288(11)
H38_6 H 0.7563 0.5711 0.8696
H39_6 H 0.9289 0.6304 0.7563
H40_6 H 0.8696 0.7437 0.9289
C94_6 C 0.84071(12) 0.60358(12) 0.81340(12)
C95_6 C 0.81340(12) 0.65929(12) 0.89642(12)
C96_6 C 0.89642(12) 0.68660(12) 0.84071(12)
C105_6 C 0.84900(11) 0.62693(10) 0.83260(11)
C106_6 C 0.83260(11) 0.65100(11) 0.87307(10)
C107_6 C 0.87307(10) 0.66740(11) 0.84900(11)
C116_6 C 0.82994(11) 0.62969(11) 0.85437(11)
C117_6 C 0.87031(11) 0.64563(11) 0.82994(11)
C118_6 C 0.85437(11) 0.67006(11) 0.87031(11)
C127_6 C 0.83322(14) 0.61386(13) 0.78442(13)
C128_6 C 0.78442(13) 0.66678(14) 0.88614(13)
C129_6 C 0.88614(13) 0.71558(13) 0.83322(14)
H49_6 H 0.8502 0.6199 0.7752
H50_6 H 0.7752 0.6498 0.8801
H51_6 H 0.8801 0.7248 0.8502
H60_6 H 0.8257 0.5983 0.7738
H61_6 H 0.7738 0.6743 0.9017
H62_6 H 0.9017 0.7262 0.8257
C138_6 C 0.81257(19) 0.63729(19) 0.78364(16)
C139_6 C 0.78364(16) 0.68743(19) 0.86271(19)
C140_6 C 0.86271(19) 0.71636(16) 0.81257(19)
H71_6 H 0.7970 0.6329 0.7955
H72_6 H 0.7955 0.7030 0.8671
H73_6 H 0.8671 0.7045 0.7970
H82_6 H 0.8061 0.6399 0.7648
H83_6 H 0.7648 0.6939 0.8601
H84_6 H 0.8601 0.7352 0.8061
H93_6 H 0.8213 0.6541 0.7901
H94_6 H 0.7901 0.6787 0.8459
H95_6 H 0.8459 0.7099 0.8213
C149_6 C 0.86188(13) 0.58002(12) 0.81282(15)
C150_6 C 0.81282(15) 0.63812(13) 0.91998(12)
C151_6 C 0.91998(12) 0.68718(15) 0.86188(13)
H104_6 H 0.8546 0.5650 0.8013
H105_6 H 0.8013 0.6454 0.9350
H106_6 H 0.9350 0.6987 0.8546
H115_6 H 0.8789 0.5868 0.8041
H116_6 H 0.8041 0.6211 0.9132
H117_6 H 0.9132 0.6959 0.8789
C160_6 C 0.86886(19) 0.5686(2) 0.8405(2)
C161_6 C 0.8405(2) 0.63114(19) 0.9314(2)
C162_6 C 0.9314(2) 0.6595(2) 0.86886(19)
H126_6 H 0.8777 0.5829 0.8515
H127_6 H 0.8515 0.6223 0.9171
H128_6 H 0.9171 0.6485 0.8777
H137_6 H 0.8813 0.5531 0.8384
H138_6 H 0.8384 0.6187 0.9469
H139_6 H 0.9469 0.6616 0.8813
H148_6 H 0.8521 0.5626 0.8496
H149_6 H 0.8496 0.6479 0.9374
H150_6 H 0.9374 0.6504 0.8521
O9_15 O 0.2500 0.5000 0.7500
O10_15 O 0.3421(3) 0.5000 0.68213(19)
Pb16_10 Pb 0.0000 0.220953(7) 0.694421(9)
Pb17_9 Pb 0.279047(7) 0.305579(9) 0.5000
Pb18_10 Pb 0.194421(9) 0.279047(7) 0.5000
O11_12 O 0.26146(10) 0.46830(10) 0.69912(11)
O12_12 O 0.30088(11) 0.53170(10) 0.76146(10)
O14_12 O 0.19912(11) 0.53170(10) 0.73854(10)
O15_7 O 0.19912(11) 0.46830(10) 0.73854(10)
O17_12 O 0.23854(10) 0.53170(10) 0.80088(11)
O24_7 O 0.03170(10) 0.26146(10) 0.69912(11)
O25_7 O 0.23854(10) 0.30088(11) 0.53170(10)
O26_12 O 0.33921(10) 0.53289(8) 0.73934(9)
O27_12 O 0.23934(9) 0.46711(8) 0.66079(10)
O29_12 O 0.16079(10) 0.53289(8) 0.76066(9)
O30_7 O 0.16079(10) 0.46711(8) 0.76066(9)
O32_12 O 0.26066(9) 0.53289(8) 0.83921(10)
O39_7 O 0.03289(8) 0.23934(9) 0.66079(10)
O40_7 O 0.26066(9) 0.33921(10) 0.53289(8)
O41_15 O 0.18213(19) 0.5000 0.6579(3)
O42_15 O 0.1579(3) 0.5000 0.81787(19)
O43_15 O 0.31787(19) 0.5000 0.8421(3)
C23_7 C 0.17535(13) 0.45880(10) 0.74171(11)
C24_7 C 0.04120(10) 0.25829(11) 0.67535(13)
C25_7 C 0.24171(11) 0.32465(13) 0.54120(10)
C34_7 C 0.16607(12) 0.43623(10) 0.72354(10)
C35_7 C 0.06377(10) 0.27646(10) 0.66607(12)
C36_7 C 0.22354(10) 0.33393(12) 0.56377(10)
C45_7 C 0.18166(13) 0.42815(10) 0.70118(11)
C46_7 C 0.07185(10) 0.29882(11) 0.68166(13)
C47_7 C 0.20118(11) 0.31834(13) 0.57185(10)
H22_7 H 0.1984 0.4372 0.6971
H23_7 H 0.0628 0.3029 0.6984
H24_7 H 0.1971 0.3016 0.5628
C56_7 C 0.17260(12) 0.40682(10) 0.68476(11)
C57_7 C 0.09318(10) 0.31524(11) 0.67260(12)
C58_7 C 0.18476(11) 0.32740(12) 0.59318(10)
C67_7 C 0.14864(11) 0.39256(10) 0.69078(10)
C68_7 C 0.19078(10) 0.35136(11) 0.60744(10)
C69_7 C 0.10744(10) 0.30922(10) 0.64864(11)
C78_7 C 0.13287(12) 0.40108(11) 0.71309(11)
C79_7 C 0.21309(11) 0.36713(12) 0.59892(11)
C80_7 C 0.09892(11) 0.28691(11) 0.63287(12)
H33_7 H 0.1163 0.3919 0.7174
H34_7 H 0.2174 0.3837 0.6081
H35_7 H 0.1081 0.2826 0.6163
C89_7 C 0.14151(12) 0.42288(11) 0.72888(11)
C90_7 C 0.22888(11) 0.35849(12) 0.57712(11)
C91_7 C 0.07712(11) 0.27112(11) 0.64151(12)
H44_7 H 0.1304 0.4289 0.7437
H45_7 H 0.2437 0.3696 0.5711
H46_7 H 0.0711 0.2563 0.6304
C100_7 C 0.18660(12) 0.39642(12) 0.65929(12)
C101_7 C 0.10358(12) 0.34071(12) 0.68660(12)
C102_7 C 0.15929(12) 0.31340(12) 0.60358(12)
C111_7 C 0.16740(11) 0.37307(10) 0.65100(11)
C112_7 C 0.12693(10) 0.34900(11) 0.66740(11)
C113_7 C 0.15100(11) 0.33260(11) 0.62693(10)
C122_7 C 0.14563(11) 0.37031(11) 0.67006(11)
C123_7 C 0.17006(11) 0.35437(11) 0.62969(11)
C124_7 C 0.12969(11) 0.32994(11) 0.64563(11)
C133_7 C 0.21558(13) 0.38614(13) 0.66678(14)
C134_7 C 0.11386(13) 0.33322(14) 0.71558(13)
C135_7 C 0.16678(14) 0.28442(13) 0.61386(13)
H55_7 H 0.2248 0.3801 0.6498
H56_7 H 0.1199 0.3502 0.7248
H57_7 H 0.1498 0.2752 0.6199
H66_7 H 0.2262 0.4017 0.6743
H67_7 H 0.0983 0.3257 0.7262
H68_7 H 0.1743 0.2738 0.5983
C144_7 C 0.21636(16) 0.36271(19) 0.68743(19)
C145_7 C 0.13729(19) 0.31257(19) 0.71636(16)
C146_7 C 0.18743(19) 0.28364(16) 0.63729(19)
H77_7 H 0.2045 0.3671 0.7030
H78_7 H 0.1329 0.2970 0.7045
H79_7 H 0.2030 0.2955 0.6329
H88_7 H 0.2352 0.3601 0.6939
H89_7 H 0.1399 0.3061 0.7352
H90_7 H 0.1939 0.2648 0.6399
H99_7 H 0.2099 0.3459 0.6787
H100_7 H 0.1541 0.3213 0.7099
H101_7 H 0.1787 0.2901 0.6541
C155_7 C 0.18718(15) 0.41998(12) 0.63812(13)
C156_7 C 0.08002(12) 0.36188(13) 0.68718(15)
C157_7 C 0.13812(13) 0.31282(15) 0.58002(12)
H110_7 H 0.1987 0.4350 0.6454
H111_7 H 0.0650 0.3546 0.6987
H112_7 H 0.1454 0.3013 0.5650
H121_7 H 0.1959 0.4132 0.6211
H122_7 H 0.0868 0.3789 0.6959
H123_7 H 0.1211 0.3041 0.5868
C166_7 C 0.1595(2) 0.4314(2) 0.63114(19)
C167_7 C 0.0686(2) 0.36886(19) 0.6595(2)
C168_7 C 0.13114(19) 0.3405(2) 0.5686(2)
H132_7 H 0.1485 0.4171 0.6223
H133_7 H 0.0829 0.3777 0.6485
H134_7 H 0.1223 0.3515 0.5829
H143_7 H 0.1616 0.4469 0.6187
H144_7 H 0.0531 0.3813 0.6616
H145_7 H 0.1187 0.3384 0.5531
H154_7 H 0.1504 0.4374 0.6479
H155_7 H 0.0626 0.3521 0.6504
H156_7 H 0.1479 0.3496 0.5626
Pb16_11 Pb 1.0000 0.220953(7) 0.694421(9)
C1_9 C 0.25829(11) 0.45880(10) 0.67535(13)
C2_9 C 0.27646(10) 0.43623(10) 0.66607(12)
C3_9 C 0.29882(11) 0.42815(10) 0.68166(13)
H1_9 H 0.3029 0.4372 0.6984
C4_9 C 0.31524(11) 0.40682(10) 0.67260(12)
C5_9 C 0.30922(10) 0.39256(10) 0.64864(11)
C6_9 C 0.28691(11) 0.40108(11) 0.63287(12)
H2_9 H 0.2826 0.3919 0.6163
C7_9 C 0.27112(11) 0.42288(11) 0.64151(12)
H3_9 H 0.2563 0.4289 0.6304
C8_9 C 0.34071(12) 0.39642(12) 0.68660(12)
C9_9 C 0.34900(11) 0.37307(10) 0.66740(11)
C10_9 C 0.32994(11) 0.37031(11) 0.64563(11)
C11_9 C 0.33322(14) 0.38614(13) 0.71558(13)
H4_9 H 0.3502 0.3801 0.7248
H5_9 H 0.3257 0.4017 0.7262
C12_9 C 0.31257(19) 0.36271(19) 0.71636(16)
H6_9 H 0.2970 0.3671 0.7045
H7_9 H 0.3061 0.3601 0.7352
H8_9 H 0.3213 0.3459 0.7099
C13_9 C 0.36188(13) 0.41998(12) 0.68718(15)
H9_9 H 0.3546 0.4350 0.6987
H10_9 H 0.3789 0.4132 0.6959
C14_9 C 0.36886(19) 0.4314(2) 0.6595(2)
H11_9 H 0.3777 0.4171 0.6485
H12_9 H 0.3813 0.4469 0.6616
H13_9 H 0.3521 0.4374 0.6504
O19_9 O 0.30088(11) 0.26146(10) 0.53170(10)
O22_5 O 0.03170(10) 0.73854(10) 0.69912(11)
O34_9 O 0.33921(10) 0.23934(9) 0.53289(8)
O37_5 O 0.03289(8) 0.76066(9) 0.66079(10)
C15_9 C 0.45880(10) 0.32465(13) 0.74171(11)
C16_9 C 0.32465(13) 0.25829(11) 0.54120(10)
C20_5 C 0.17535(13) 0.54120(10) 0.74171(11)
C21_5 C 0.04120(10) 0.74171(11) 0.67535(13)
C22_5 C 0.24171(11) 0.67535(13) 0.54120(10)
C26_9 C 0.43623(10) 0.33393(12) 0.72354(10)
C27_9 C 0.33393(12) 0.27646(10) 0.56377(10)
C31_5 C 0.16607(12) 0.56377(10) 0.72354(10)
C32_5 C 0.06377(10) 0.72354(10) 0.66607(12)
C33_5 C 0.22354(10) 0.66607(12) 0.56377(10)
C37_9 C 0.42815(10) 0.31834(13) 0.70118(11)
C38_9 C 0.31834(13) 0.29882(11) 0.57185(10)
C42_5 C 0.18166(13) 0.57185(10) 0.70118(11)
C43_5 C 0.07185(10) 0.70118(11) 0.68166(13)
C44_5 C 0.20118(11) 0.68166(13) 0.57185(10)
H14_9 H 0.4372 0.3016 0.6971
H15_9 H 0.3016 0.3029 0.5628
H19_5 H 0.1984 0.5628 0.6971
H20_5 H 0.0628 0.6971 0.6984
H21_5 H 0.1971 0.6984 0.5628
C48_9 C 0.40682(10) 0.32740(12) 0.68476(11)
C49_9 C 0.32740(12) 0.31524(11) 0.59318(10)
C53_5 C 0.17260(12) 0.59318(10) 0.68476(11)
C54_5 C 0.09318(10) 0.68476(11) 0.67260(12)
C55_5 C 0.18476(11) 0.67260(12) 0.59318(10)
C59_9 C 0.39256(10) 0.35136(11) 0.69078(10)
C60_9 C 0.35136(11) 0.30922(10) 0.60744(10)
C64_5 C 0.14864(11) 0.60744(10) 0.69078(10)
C65_5 C 0.19078(10) 0.64864(11) 0.60744(10)
C66_5 C 0.10744(10) 0.69078(10) 0.64864(11)
C70_9 C 0.40108(11) 0.36713(12) 0.71309(11)
C71_9 C 0.36713(12) 0.28691(11) 0.59892(11)
C75_5 C 0.13287(12) 0.59892(11) 0.71309(11)
C76_5 C 0.21309(11) 0.63287(12) 0.59892(11)
C77_5 C 0.09892(11) 0.71309(11) 0.63287(12)
H25_9 H 0.3919 0.3837 0.7174
H26_9 H 0.3837 0.2826 0.6081
H30_5 H 0.1163 0.6081 0.7174
H31_5 H 0.2174 0.6163 0.6081
H32_5 H 0.1081 0.7174 0.6163
C81_9 C 0.42288(11) 0.35849(12) 0.72888(11)
C82_9 C 0.35849(12) 0.27112(11) 0.57712(11)
C86_5 C 0.14151(12) 0.57712(11) 0.72888(11)
C87_5 C 0.22888(11) 0.64151(12) 0.57712(11)
C88_5 C 0.07712(11) 0.72888(11) 0.64151(12)
H36_9 H 0.4289 0.3696 0.7437
H37_9 H 0.3696 0.2563 0.5711
H41_5 H 0.1304 0.5711 0.7437
H42_5 H 0.2437 0.6304 0.5711
H43_5 H 0.0711 0.7437 0.6304
C92_9 C 0.31340(12) 0.34071(12) 0.60358(12)
C93_9 C 0.39642(12) 0.31340(12) 0.65929(12)
C97_5 C 0.18660(12) 0.60358(12) 0.65929(12)
C98_5 C 0.10358(12) 0.65929(12) 0.68660(12)
C99_5 C 0.15929(12) 0.68660(12) 0.60358(12)
C103_9 C 0.33260(11) 0.34900(11) 0.62693(10)
C104_9 C 0.37307(10) 0.33260(11) 0.65100(11)
C108_5 C 0.16740(11) 0.62693(10) 0.65100(11)
C109_5 C 0.12693(10) 0.65100(11) 0.66740(11)
C110_5 C 0.15100(11) 0.66740(11) 0.62693(10)
C114_9 C 0.37031(11) 0.35437(11) 0.67006(11)
C115_9 C 0.35437(11) 0.32994(11) 0.62969(11)
C119_5 C 0.14563(11) 0.62969(11) 0.67006(11)
C120_5 C 0.17006(11) 0.64563(11) 0.62969(11)
C121_5 C 0.12969(11) 0.67006(11) 0.64563(11)
C125_9 C 0.28442(13) 0.33322(14) 0.61386(13)
C126_9 C 0.38614(13) 0.28442(13) 0.66678(14)
C130_5 C 0.21558(13) 0.61386(13) 0.66678(14)
C131_5 C 0.11386(13) 0.66678(14) 0.71558(13)
C132_5 C 0.16678(14) 0.71558(13) 0.61386(13)
H47_9 H 0.2752 0.3502 0.6199
H48_9 H 0.3801 0.2752 0.6498
H52_5 H 0.2248 0.6199 0.6498
H53_5 H 0.1199 0.6498 0.7248
H54_5 H 0.1498 0.7248 0.6199
H58_9 H 0.2738 0.3257 0.5983
H59_9 H 0.4017 0.2738 0.6743
H63_5 H 0.2262 0.5983 0.6743
H64_5 H 0.0983 0.6743 0.7262
H65_5 H 0.1743 0.7262 0.5983
C136_9 C 0.28364(16) 0.31257(19) 0.63729(19)
C137_9 C 0.36271(19) 0.28364(16) 0.68743(19)
C141_5 C 0.21636(16) 0.63729(19) 0.68743(19)
C142_5 C 0.13729(19) 0.68743(19) 0.71636(16)
C143_5 C 0.18743(19) 0.71636(16) 0.63729(19)
H69_9 H 0.2955 0.2970 0.6329
H70_9 H 0.3671 0.2955 0.7030
H74_5 H 0.2045 0.6329 0.7030
H75_5 H 0.1329 0.7030 0.7045
H76_5 H 0.2030 0.7045 0.6329
H80_9 H 0.2648 0.3061 0.6399
H81_9 H 0.3601 0.2648 0.6939
H85_5 H 0.2352 0.6399 0.6939
H86_5 H 0.1399 0.6939 0.7352
H87_5 H 0.1939 0.7352 0.6399
H91_9 H 0.2901 0.3213 0.6541
H92_9 H 0.3459 0.2901 0.6787
H96_5 H 0.2099 0.6541 0.6787
H97_5 H 0.1541 0.6787 0.7099
H98_5 H 0.1787 0.7099 0.6541
C147_9 C 0.31282(15) 0.36188(13) 0.58002(12)
C148_9 C 0.41998(12) 0.31282(15) 0.63812(13)
C152_5 C 0.18718(15) 0.58002(12) 0.63812(13)
C153_5 C 0.08002(12) 0.63812(13) 0.68718(15)
C154_5 C 0.13812(13) 0.68718(15) 0.58002(12)
H102_9 H 0.3013 0.3546 0.5650
H103_9 H 0.4350 0.3013 0.6454
H107_5 H 0.1987 0.5650 0.6454
H108_5 H 0.0650 0.6454 0.6987
H109_5 H 0.1454 0.6987 0.5650
H113_9 H 0.3041 0.3789 0.5868
H114_9 H 0.4132 0.3041 0.6211
H118_5 H 0.1959 0.5868 0.6211
H119_5 H 0.0868 0.6211 0.6959
H120_5 H 0.1211 0.6959 0.5868
C158_9 C 0.3405(2) 0.36886(19) 0.5686(2)
C159_9 C 0.4314(2) 0.3405(2) 0.63114(19)
C163_5 C 0.1595(2) 0.5686(2) 0.63114(19)
C164_5 C 0.0686(2) 0.63114(19) 0.6595(2)
C165_5 C 0.13114(19) 0.6595(2) 0.5686(2)
H124_9 H 0.3515 0.3777 0.5829
H125_9 H 0.4171 0.3515 0.6223
H129_5 H 0.1485 0.5829 0.6223
H130_5 H 0.0829 0.6223 0.6485
H131_5 H 0.1223 0.6485 0.5829
H135_9 H 0.3384 0.3813 0.5531
H136_9 H 0.4469 0.3384 0.6187
H140_5 H 0.1616 0.5531 0.6187
H141_5 H 0.0531 0.6187 0.6616
H142_5 H 0.1187 0.6616 0.5531
H146_9 H 0.3496 0.3521 0.5626
H147_9 H 0.4374 0.3496 0.6479
H151_5 H 0.1504 0.5626 0.6479
H152_5 H 0.0626 0.6479 0.6504
H153_5 H 0.1479 0.6504 0.5626
O25_8 O 0.26146(10) 0.53170(10) 0.30088(11)
O40_8 O 0.23934(9) 0.53289(8) 0.33921(10)
C23_8 C 0.32465(13) 0.74171(11) 0.45880(10)
C24_8 C 0.45880(10) 0.67535(13) 0.25829(11)
C25_8 C 0.25829(11) 0.54120(10) 0.32465(13)
C34_8 C 0.33393(12) 0.72354(10) 0.43623(10)
C35_8 C 0.43623(10) 0.66607(12) 0.27646(10)
C36_8 C 0.27646(10) 0.56377(10) 0.33393(12)
C45_8 C 0.31834(13) 0.70118(11) 0.42815(10)
C46_8 C 0.42815(10) 0.68166(13) 0.29882(11)
C47_8 C 0.29882(11) 0.57185(10) 0.31834(13)
H22_8 H 0.3016 0.6971 0.4372
H23_8 H 0.4372 0.6984 0.3029
H24_8 H 0.3029 0.5628 0.3016
C56_8 C 0.32740(12) 0.68476(11) 0.40682(10)
C57_8 C 0.40682(10) 0.67260(12) 0.31524(11)
C58_8 C 0.31524(11) 0.59318(10) 0.32740(12)
C67_8 C 0.35136(11) 0.69078(10) 0.39256(10)
C68_8 C 0.30922(10) 0.60744(10) 0.35136(11)
C69_8 C 0.39256(10) 0.64864(11) 0.30922(10)
C78_8 C 0.36713(12) 0.71309(11) 0.40108(11)
C79_8 C 0.28691(11) 0.59892(11) 0.36713(12)
C80_8 C 0.40108(11) 0.63287(12) 0.28691(11)
H33_8 H 0.3837 0.7174 0.3919
H34_8 H 0.2826 0.6081 0.3837
H35_8 H 0.3919 0.6163 0.2826
C89_8 C 0.35849(12) 0.72888(11) 0.42288(11)
C90_8 C 0.27112(11) 0.57712(11) 0.35849(12)
C91_8 C 0.42288(11) 0.64151(12) 0.27112(11)
H44_8 H 0.3696 0.7437 0.4289
H45_8 H 0.2563 0.5711 0.3696
H46_8 H 0.4289 0.6304 0.2563
C100_8 C 0.31340(12) 0.65929(12) 0.39642(12)
C101_8 C 0.39642(12) 0.68660(12) 0.34071(12)
C102_8 C 0.34071(12) 0.60358(12) 0.31340(12)
C111_8 C 0.33260(11) 0.65100(11) 0.37307(10)
C112_8 C 0.37307(10) 0.66740(11) 0.34900(11)
C113_8 C 0.34900(11) 0.62693(10) 0.33260(11)
C122_8 C 0.35437(11) 0.67006(11) 0.37031(11)
C123_8 C 0.32994(11) 0.62969(11) 0.35437(11)
C124_8 C 0.37031(11) 0.64563(11) 0.32994(11)
C133_8 C 0.28442(13) 0.66678(14) 0.38614(13)
C134_8 C 0.38614(13) 0.71558(13) 0.33322(14)
C135_8 C 0.33322(14) 0.61386(13) 0.28442(13)
H55_8 H 0.2752 0.6498 0.3801
H56_8 H 0.3801 0.7248 0.3502
H57_8 H 0.3502 0.6199 0.2752
H66_8 H 0.2738 0.6743 0.4017
H67_8 H 0.4017 0.7262 0.3257
H68_8 H 0.3257 0.5983 0.2738
C144_8 C 0.28364(16) 0.68743(19) 0.36271(19)
C145_8 C 0.36271(19) 0.71636(16) 0.31257(19)
C146_8 C 0.31257(19) 0.63729(19) 0.28364(16)
H77_8 H 0.2955 0.7030 0.3671
H78_8 H 0.3671 0.7045 0.2970
H79_8 H 0.2970 0.6329 0.2955
H88_8 H 0.2648 0.6939 0.3601
H89_8 H 0.3601 0.7352 0.3061
H90_8 H 0.3061 0.6399 0.2648
H99_8 H 0.2901 0.6787 0.3459
H100_8 H 0.3459 0.7099 0.3213
H101_8 H 0.3213 0.6541 0.2901
C155_8 C 0.31282(15) 0.63812(13) 0.41998(12)
C156_8 C 0.41998(12) 0.68718(15) 0.36188(13)
C157_8 C 0.36188(13) 0.58002(12) 0.31282(15)
H110_8 H 0.3013 0.6454 0.4350
H111_8 H 0.4350 0.6987 0.3546
H112_8 H 0.3546 0.5650 0.3013
H121_8 H 0.3041 0.6211 0.4132
H122_8 H 0.4132 0.6959 0.3789
H123_8 H 0.3789 0.5868 0.3041
C166_8 C 0.3405(2) 0.63114(19) 0.4314(2)
C167_8 C 0.4314(2) 0.6595(2) 0.36886(19)
C168_8 C 0.36886(19) 0.5686(2) 0.3405(2)
H132_8 H 0.3515 0.6223 0.4171
H133_8 H 0.4171 0.6485 0.3777
H134_8 H 0.3777 0.5829 0.3515
H143_8 H 0.3384 0.6187 0.4469
H144_8 H 0.4469 0.6616 0.3813
H145_8 H 0.3813 0.5531 0.3384
H154_8 H 0.3496 0.6479 0.4374
H155_8 H 0.4374 0.6504 0.3521
H156_8 H 0.3521 0.5626 0.3496
O9_16 O -0.0000 0.7500 0.7500
O10_16 O -0.0000 0.6579(3) 0.68213(19)
O12_13 O 0.03170(10) 0.69912(11) 0.76146(10)
O14_13 O 0.03170(10) 0.80088(11) 0.73854(10)
O17_13 O 0.03170(10) 0.76146(10) 0.80088(11)
O26_13 O 0.03289(8) 0.66079(10) 0.73934(9)
O29_13 O 0.03289(8) 0.83921(10) 0.76066(9)
O32_13 O 0.03289(8) 0.73934(9) 0.83921(10)
O41_16 O 0.0000 0.81787(19) 0.6579(3)
O42_16 O 0.0000 0.8421(3) 0.81787(19)
O43_16 O 0.0000 0.68213(19) 0.8421(3)
O9_17 O 1.0000 0.7500 0.7500
O10_17 O 1.0000 0.6579(3) 0.68213(19)
O16_7 O 0.96830(10) 0.76146(10) 0.80088(11)
O20_7 O 0.76146(10) 0.80088(11) 0.96830(10)
O21_7 O 0.80088(11) 0.96830(10) 0.76146(10)
O31_7 O 0.96711(8) 0.73934(9) 0.83921(10)
O35_7 O 0.73934(9) 0.83921(10) 0.96711(8)
O36_7 O 0.83921(10) 0.96711(8) 0.73934(9)
O41_17 O 1.0000 0.81787(19) 0.6579(3)
O42_17 O 1.0000 0.8421(3) 0.81787(19)
O43_17 O 1.0000 0.68213(19) 0.8421(3)
C17_7 C 0.95880(10) 0.75829(11) 0.82465(13)
C18_7 C 0.75829(11) 0.82465(13) 0.95880(10)
C19_7 C 0.82465(13) 0.95880(10) 0.75829(11)
C28_7 C 0.93623(10) 0.77646(10) 0.83393(12)
C29_7 C 0.77646(10) 0.83393(12) 0.93623(10)
C30_7 C 0.83393(12) 0.93623(10) 0.77646(10)
C39_7 C 0.92815(10) 0.79882(11) 0.81834(13)
C40_7 C 0.79882(11) 0.81834(13) 0.92815(10)
C41_7 C 0.81834(13) 0.92815(10) 0.79882(11)
H16_7 H 0.9372 0.8029 0.8016
H17_7 H 0.8029 0.8016 0.9372
H18_7 H 0.8016 0.9372 0.8029
C50_7 C 0.90682(10) 0.81524(11) 0.82740(12)
C51_7 C 0.81524(11) 0.82740(12) 0.90682(10)
C52_7 C 0.82740(12) 0.90682(10) 0.81524(11)
C61_7 C 0.89256(10) 0.80922(10) 0.85136(11)
C62_7 C 0.85136(11) 0.89256(10) 0.80922(10)
C63_7 C 0.80922(10) 0.85136(11) 0.89256(10)
C72_7 C 0.90108(11) 0.78691(11) 0.86713(12)
C73_7 C 0.86713(12) 0.90108(11) 0.78691(11)
C74_7 C 0.78691(11) 0.86713(12) 0.90108(11)
H27_7 H 0.8919 0.7826 0.8837
H28_7 H 0.8837 0.8919 0.7826
H29_7 H 0.7826 0.8837 0.8919
C83_7 C 0.92288(11) 0.77112(11) 0.85849(12)
C84_7 C 0.85849(12) 0.92288(11) 0.77112(11)
C85_7 C 0.77112(11) 0.85849(12) 0.92288(11)
H38_7 H 0.9289 0.7563 0.8696
H39_7 H 0.8696 0.9289 0.7563
H40_7 H 0.7563 0.8696 0.9289
C94_7 C 0.89642(12) 0.84071(12) 0.81340(12)
C95_7 C 0.84071(12) 0.81340(12) 0.89642(12)
C96_7 C 0.81340(12) 0.89642(12) 0.84071(12)
C105_7 C 0.87307(10) 0.84900(11) 0.83260(11)
C106_7 C 0.84900(11) 0.83260(11) 0.87307(10)
C107_7 C 0.83260(11) 0.87307(10) 0.84900(11)
C116_7 C 0.87031(11) 0.82994(11) 0.85437(11)
C117_7 C 0.85437(11) 0.87031(11) 0.82994(11)
C118_7 C 0.82994(11) 0.85437(11) 0.87031(11)
C127_7 C 0.88614(13) 0.83322(14) 0.78442(13)
C128_7 C 0.83322(14) 0.78442(13) 0.88614(13)
C129_7 C 0.78442(13) 0.88614(13) 0.83322(14)
H49_7 H 0.8801 0.8502 0.7752
H50_7 H 0.8502 0.7752 0.8801
H51_7 H 0.7752 0.8801 0.8502
H60_7 H 0.9017 0.8257 0.7738
H61_7 H 0.8257 0.7738 0.9017
H62_7 H 0.7738 0.9017 0.8257
C138_7 C 0.86271(19) 0.81257(19) 0.78364(16)
C139_7 C 0.81257(19) 0.78364(16) 0.86271(19)
C140_7 C 0.78364(16) 0.86271(19) 0.81257(19)
H71_7 H 0.8671 0.7970 0.7955
H72_7 H 0.7970 0.7955 0.8671
H73_7 H 0.7955 0.8671 0.7970
H82_7 H 0.8601 0.8061 0.7648
H83_7 H 0.8061 0.7648 0.8601
H84_7 H 0.7648 0.8601 0.8061
H93_7 H 0.8459 0.8213 0.7901
H94_7 H 0.8213 0.7901 0.8459
H95_7 H 0.7901 0.8459 0.8213
C149_7 C 0.91998(12) 0.86188(13) 0.81282(15)
C150_7 C 0.86188(13) 0.81282(15) 0.91998(12)
C151_7 C 0.81282(15) 0.91998(12) 0.86188(13)
H104_7 H 0.9350 0.8546 0.8013
H105_7 H 0.8546 0.8013 0.9350
H106_7 H 0.8013 0.9350 0.8546
H115_7 H 0.9132 0.8789 0.8041
H116_7 H 0.8789 0.8041 0.9132
H117_7 H 0.8041 0.9132 0.8789
C160_7 C 0.9314(2) 0.86886(19) 0.8405(2)
C161_7 C 0.86886(19) 0.8405(2) 0.9314(2)
C162_7 C 0.8405(2) 0.9314(2) 0.86886(19)
H126_7 H 0.9171 0.8777 0.8515
H127_7 H 0.8777 0.8515 0.9171
H128_7 H 0.8515 0.9171 0.8777
H137_7 H 0.9469 0.8813 0.8384
H138_7 H 0.8813 0.8384 0.9469
H139_7 H 0.8384 0.9469 0.8813
H148_7 H 0.9374 0.8521 0.8496
H149_7 H 0.8521 0.8496 0.9374
H150_7 H 0.8496 0.9374 0.8521
Pb15_5 Pb 0.720953(7) 0.194421(9) 0.0000
Pb15_6 Pb 0.720953(7) 0.194421(9) 1.0000
O22_6 O 0.73854(10) 0.03170(10) 0.80088(11)
O23_5 O 0.69912(11) 0.23854(10) 0.96830(10)
O37_6 O 0.76066(9) 0.03289(8) 0.83921(10)
O38_5 O 0.66079(10) 0.26066(9) 0.96711(8)
C20_6 C 0.54120(10) 0.17535(13) 0.75829(11)
C21_6 C 0.74171(11) 0.04120(10) 0.82465(13)
C22_6 C 0.67535(13) 0.24171(11) 0.95880(10)
C31_6 C 0.56377(10) 0.16607(12) 0.77646(10)
C32_6 C 0.72354(10) 0.06377(10) 0.83393(12)
C33_6 C 0.66607(12) 0.22354(10) 0.93623(10)
C42_6 C 0.57185(10) 0.18166(13) 0.79882(11)
C43_6 C 0.70118(11) 0.07185(10) 0.81834(13)
C44_6 C 0.68166(13) 0.20118(11) 0.92815(10)
H19_6 H 0.5628 0.1984 0.8029
H20_6 H 0.6971 0.0628 0.8016
H21_6 H 0.6984 0.1971 0.9372
C53_6 C 0.59318(10) 0.17260(12) 0.81524(11)
C54_6 C 0.68476(11) 0.09318(10) 0.82740(12)
C55_6 C 0.67260(12) 0.18476(11) 0.90682(10)
C64_6 C 0.60744(10) 0.14864(11) 0.80922(10)
C65_6 C 0.64864(11) 0.19078(10) 0.89256(10)
C66_6 C 0.69078(10) 0.10744(10) 0.85136(11)
C75_6 C 0.59892(11) 0.13287(12) 0.78691(11)
C76_6 C 0.63287(12) 0.21309(11) 0.90108(11)
C77_6 C 0.71309(11) 0.09892(11) 0.86713(12)
H30_6 H 0.6081 0.1163 0.7826
H31_6 H 0.6163 0.2174 0.8919
H32_6 H 0.7174 0.1081 0.8837
C86_6 C 0.57712(11) 0.14151(12) 0.77112(11)
C87_6 C 0.64151(12) 0.22888(11) 0.92288(11)
C88_6 C 0.72888(11) 0.07712(11) 0.85849(12)
H41_6 H 0.5711 0.1304 0.7563
H42_6 H 0.6304 0.2437 0.9289
H43_6 H 0.7437 0.0711 0.8696
C97_6 C 0.60358(12) 0.18660(12) 0.84071(12)
C98_6 C 0.65929(12) 0.10358(12) 0.81340(12)
C99_6 C 0.68660(12) 0.15929(12) 0.89642(12)
C108_6 C 0.62693(10) 0.16740(11) 0.84900(11)
C109_6 C 0.65100(11) 0.12693(10) 0.83260(11)
C110_6 C 0.66740(11) 0.15100(11) 0.87307(10)
C119_6 C 0.62969(11) 0.14563(11) 0.82994(11)
C120_6 C 0.64563(11) 0.17006(11) 0.87031(11)
C121_6 C 0.67006(11) 0.12969(11) 0.85437(11)
C130_6 C 0.61386(13) 0.21558(13) 0.83322(14)
C131_6 C 0.66678(14) 0.11386(13) 0.78442(13)
C132_6 C 0.71558(13) 0.16678(14) 0.88614(13)
H52_6 H 0.6199 0.2248 0.8502
H53_6 H 0.6498 0.1199 0.7752
H54_6 H 0.7248 0.1498 0.8801
H63_6 H 0.5983 0.2262 0.8257
H64_6 H 0.6743 0.0983 0.7738
H65_6 H 0.7262 0.1743 0.9017
C141_6 C 0.63729(19) 0.21636(16) 0.81257(19)
C142_6 C 0.68743(19) 0.13729(19) 0.78364(16)
C143_6 C 0.71636(16) 0.18743(19) 0.86271(19)
H74_6 H 0.6329 0.2045 0.7970
H75_6 H 0.7030 0.1329 0.7955
H76_6 H 0.7045 0.2030 0.8671
H85_6 H 0.6399 0.2352 0.8061
H86_6 H 0.6939 0.1399 0.7648
H87_6 H 0.7352 0.1939 0.8601
H96_6 H 0.6541 0.2099 0.8213
H97_6 H 0.6787 0.1541 0.7901
H98_6 H 0.7099 0.1787 0.8459
C152_6 C 0.58002(12) 0.18718(15) 0.86188(13)
C153_6 C 0.63812(13) 0.08002(12) 0.81282(15)
C154_6 C 0.68718(15) 0.13812(13) 0.91998(12)
H107_6 H 0.5650 0.1987 0.8546
H108_6 H 0.6454 0.0650 0.8013
H109_6 H 0.6987 0.1454 0.9350
H118_6 H 0.5868 0.1959 0.8789
H119_6 H 0.6211 0.0868 0.8041
H120_6 H 0.6959 0.1211 0.9132
C163_6 C 0.5686(2) 0.1595(2) 0.86886(19)
C164_6 C 0.63114(19) 0.0686(2) 0.8405(2)
C165_6 C 0.6595(2) 0.13114(19) 0.9314(2)
H129_6 H 0.5829 0.1485 0.8777
H130_6 H 0.6223 0.0829 0.8515
H131_6 H 0.6485 0.1223 0.9171
H140_6 H 0.5531 0.1616 0.8813
H141_6 H 0.6187 0.0531 0.8384
H142_6 H 0.6616 0.1187 0.9469
H151_6 H 0.5626 0.1504 0.8521
H152_6 H 0.6479 0.0626 0.8496
H153_6 H 0.6504 0.1479 0.9374
Pb12_5 Pb 0.779047(7) -0.0000 0.194421(9)
Pb12_6 Pb 0.779047(7) 1.0000 0.194421(9)
O22_7 O 0.73854(10) 0.96830(10) 0.19912(11)
O23_6 O 0.69912(11) 0.76146(10) 0.03170(10)
O37_7 O 0.76066(9) 0.96711(8) 0.16079(10)
O38_6 O 0.66079(10) 0.73934(9) 0.03289(8)
C20_7 C 0.54120(10) 0.82465(13) 0.24171(11)
C21_7 C 0.74171(11) 0.95880(10) 0.17535(13)
C22_7 C 0.67535(13) 0.75829(11) 0.04120(10)
C31_7 C 0.56377(10) 0.83393(12) 0.22354(10)
C32_7 C 0.72354(10) 0.93623(10) 0.16607(12)
C33_7 C 0.66607(12) 0.77646(10) 0.06377(10)
C42_7 C 0.57185(10) 0.81834(13) 0.20118(11)
C43_7 C 0.70118(11) 0.92815(10) 0.18166(13)
C44_7 C 0.68166(13) 0.79882(11) 0.07185(10)
H19_7 H 0.5628 0.8016 0.1971
H20_7 H 0.6971 0.9372 0.1984
H21_7 H 0.6984 0.8029 0.0628
C53_7 C 0.59318(10) 0.82740(12) 0.18476(11)
C54_7 C 0.68476(11) 0.90682(10) 0.17260(12)
C55_7 C 0.67260(12) 0.81524(11) 0.09318(10)
C64_7 C 0.60744(10) 0.85136(11) 0.19078(10)
C65_7 C 0.64864(11) 0.80922(10) 0.10744(10)
C66_7 C 0.69078(10) 0.89256(10) 0.14864(11)
C75_7 C 0.59892(11) 0.86713(12) 0.21309(11)
C76_7 C 0.63287(12) 0.78691(11) 0.09892(11)
C77_7 C 0.71309(11) 0.90108(11) 0.13287(12)
H30_7 H 0.6081 0.8837 0.2174
H31_7 H 0.6163 0.7826 0.1081
H32_7 H 0.7174 0.8919 0.1163
C86_7 C 0.57712(11) 0.85849(12) 0.22888(11)
C87_7 C 0.64151(12) 0.77112(11) 0.07712(11)
C88_7 C 0.72888(11) 0.92288(11) 0.14151(12)
H41_7 H 0.5711 0.8696 0.2437
H42_7 H 0.6304 0.7563 0.0711
H43_7 H 0.7437 0.9289 0.1304
C97_7 C 0.60358(12) 0.81340(12) 0.15929(12)
C98_7 C 0.65929(12) 0.89642(12) 0.18660(12)
C99_7 C 0.68660(12) 0.84071(12) 0.10358(12)
C108_7 C 0.62693(10) 0.83260(11) 0.15100(11)
C109_7 C 0.65100(11) 0.87307(10) 0.16740(11)
C110_7 C 0.66740(11) 0.84900(11) 0.12693(10)
C119_7 C 0.62969(11) 0.85437(11) 0.17006(11)
C120_7 C 0.64563(11) 0.82994(11) 0.12969(11)
C121_7 C 0.67006(11) 0.87031(11) 0.14563(11)
C130_7 C 0.61386(13) 0.78442(13) 0.16678(14)
C131_7 C 0.66678(14) 0.88614(13) 0.21558(13)
C132_7 C 0.71558(13) 0.83322(14) 0.11386(13)
H52_7 H 0.6199 0.7752 0.1498
H53_7 H 0.6498 0.8801 0.2248
H54_7 H 0.7248 0.8502 0.1199
H63_7 H 0.5983 0.7738 0.1743
H64_7 H 0.6743 0.9017 0.2262
H65_7 H 0.7262 0.8257 0.0983
C141_7 C 0.63729(19) 0.78364(16) 0.18743(19)
C142_7 C 0.68743(19) 0.86271(19) 0.21636(16)
C143_7 C 0.71636(16) 0.81257(19) 0.13729(19)
H74_7 H 0.6329 0.7955 0.2030
H75_7 H 0.7030 0.8671 0.2045
H76_7 H 0.7045 0.7970 0.1329
H85_7 H 0.6399 0.7648 0.1939
H86_7 H 0.6939 0.8601 0.2352
H87_7 H 0.7352 0.8061 0.1399
H96_7 H 0.6541 0.7901 0.1787
H97_7 H 0.6787 0.8459 0.2099
H98_7 H 0.7099 0.8213 0.1541
C152_7 C 0.58002(12) 0.81282(15) 0.13812(13)
C153_7 C 0.63812(13) 0.91998(12) 0.18718(15)
C154_7 C 0.68718(15) 0.86188(13) 0.08002(12)
H107_7 H 0.5650 0.8013 0.1454
H108_7 H 0.6454 0.9350 0.1987
H109_7 H 0.6987 0.8546 0.0650
H118_7 H 0.5868 0.8041 0.1211
H119_7 H 0.6211 0.9132 0.1959
H120_7 H 0.6959 0.8789 0.0868
C163_7 C 0.5686(2) 0.8405(2) 0.13114(19)
C164_7 C 0.63114(19) 0.9314(2) 0.1595(2)
C165_7 C 0.6595(2) 0.86886(19) 0.0686(2)
H129_7 H 0.5829 0.8515 0.1223
H130_7 H 0.6223 0.9171 0.1485
H131_7 H 0.6485 0.8777 0.0829
H140_7 H 0.5531 0.8384 0.1187
H141_7 H 0.6187 0.9469 0.1616
H142_7 H 0.6616 0.8813 0.0531
H151_7 H 0.5626 0.8496 0.1479
H152_7 H 0.6479 0.9374 0.1504
H153_7 H 0.6504 0.8521 0.0626
O9_18 O 0.5000 0.2500 0.2500
O10_18 O 0.5000 0.18213(19) 0.1579(3)
O11_13 O 0.53170(10) 0.19912(11) 0.23854(10)
O12_14 O 0.46830(10) 0.26146(10) 0.19912(11)
O13_5 O 0.46830(10) 0.19912(11) 0.23854(10)
O14_14 O 0.46830(10) 0.23854(10) 0.30088(11)
O16_8 O 0.53170(10) 0.30088(11) 0.26146(10)
O17_14 O 0.46830(10) 0.30088(11) 0.26146(10)
O26_14 O 0.46711(8) 0.23934(9) 0.16079(10)
O27_13 O 0.53289(8) 0.16079(10) 0.26066(9)
O28_5 O 0.46711(8) 0.16079(10) 0.26066(9)
O29_14 O 0.46711(8) 0.26066(9) 0.33921(10)
O31_8 O 0.53289(8) 0.33921(10) 0.23934(9)
O32_14 O 0.46711(8) 0.33921(10) 0.23934(9)
O41_18 O 0.5000 0.1579(3) 0.31787(19)
O42_18 O 0.5000 0.31787(19) 0.3421(3)
O43_18 O 0.5000 0.3421(3) 0.18213(19)
C17_8 C 0.54120(10) 0.32465(13) 0.25829(11)
C18_8 C 0.74171(11) 0.45880(10) 0.32465(13)
C19_8 C 0.67535(13) 0.25829(11) 0.45880(10)
C20_8 C 0.45880(10) 0.17535(13) 0.24171(11)
C21_8 C 0.25829(11) 0.04120(10) 0.17535(13)
C22_8 C 0.32465(13) 0.24171(11) 0.04120(10)
C28_8 C 0.56377(10) 0.33393(12) 0.27646(10)
C29_8 C 0.72354(10) 0.43623(10) 0.33393(12)
C30_8 C 0.66607(12) 0.27646(10) 0.43623(10)
C31_8 C 0.43623(10) 0.16607(12) 0.22354(10)
C32_8 C 0.27646(10) 0.06377(10) 0.16607(12)
C33_8 C 0.33393(12) 0.22354(10) 0.06377(10)
C39_8 C 0.57185(10) 0.31834(13) 0.29882(11)
C40_8 C 0.70118(11) 0.42815(10) 0.31834(13)
C41_8 C 0.68166(13) 0.29882(11) 0.42815(10)
C42_8 C 0.42815(10) 0.18166(13) 0.20118(11)
C43_8 C 0.29882(11) 0.07185(10) 0.18166(13)
C44_8 C 0.31834(13) 0.20118(11) 0.07185(10)
H16_8 H 0.5628 0.3016 0.3029
H17_8 H 0.6971 0.4372 0.3016
H18_8 H 0.6984 0.3029 0.4372
H19_8 H 0.4372 0.1984 0.1971
H20_8 H 0.3029 0.0628 0.1984
H21_8 H 0.3016 0.1971 0.0628
C50_8 C 0.59318(10) 0.32740(12) 0.31524(11)
C51_8 C 0.68476(11) 0.40682(10) 0.32740(12)
C52_8 C 0.67260(12) 0.31524(11) 0.40682(10)
C53_8 C 0.40682(10) 0.17260(12) 0.18476(11)
C54_8 C 0.31524(11) 0.09318(10) 0.17260(12)
C55_8 C 0.32740(12) 0.18476(11) 0.09318(10)
C61_8 C 0.60744(10) 0.35136(11) 0.30922(10)
C62_8 C 0.64864(11) 0.30922(10) 0.39256(10)
C63_8 C 0.69078(10) 0.39256(10) 0.35136(11)
C64_8 C 0.39256(10) 0.14864(11) 0.19078(10)
C65_8 C 0.35136(11) 0.19078(10) 0.10744(10)
C66_8 C 0.30922(10) 0.10744(10) 0.14864(11)
C72_8 C 0.59892(11) 0.36713(12) 0.28691(11)
C73_8 C 0.63287(12) 0.28691(11) 0.40108(11)
C74_8 C 0.71309(11) 0.40108(11) 0.36713(12)
C75_8 C 0.40108(11) 0.13287(12) 0.21309(11)
C76_8 C 0.36713(12) 0.21309(11) 0.09892(11)
C77_8 C 0.28691(11) 0.09892(11) 0.13287(12)
H27_8 H 0.6081 0.3837 0.2826
H28_8 H 0.6163 0.2826 0.3919
H29_8 H 0.7174 0.3919 0.3837
H30_8 H 0.3919 0.1163 0.2174
H31_8 H 0.3837 0.2174 0.1081
H32_8 H 0.2826 0.1081 0.1163
C83_8 C 0.57712(11) 0.35849(12) 0.27112(11)
C84_8 C 0.64151(12) 0.27112(11) 0.42288(11)
C85_8 C 0.72888(11) 0.42288(11) 0.35849(12)
C86_8 C 0.42288(11) 0.14151(12) 0.22888(11)
C87_8 C 0.35849(12) 0.22888(11) 0.07712(11)
C88_8 C 0.27112(11) 0.07712(11) 0.14151(12)
H38_8 H 0.5711 0.3696 0.2563
H39_8 H 0.6304 0.2563 0.4289
H40_8 H 0.7437 0.4289 0.3696
H41_8 H 0.4289 0.1304 0.2437
H42_8 H 0.3696 0.2437 0.0711
H43_8 H 0.2563 0.0711 0.1304
C94_8 C 0.60358(12) 0.31340(12) 0.34071(12)
C95_8 C 0.65929(12) 0.39642(12) 0.31340(12)
C96_8 C 0.68660(12) 0.34071(12) 0.39642(12)
C97_8 C 0.39642(12) 0.18660(12) 0.15929(12)
C98_8 C 0.34071(12) 0.10358(12) 0.18660(12)
C99_8 C 0.31340(12) 0.15929(12) 0.10358(12)
C105_8 C 0.62693(10) 0.33260(11) 0.34900(11)
C106_8 C 0.65100(11) 0.37307(10) 0.33260(11)
C107_8 C 0.66740(11) 0.34900(11) 0.37307(10)
C108_8 C 0.37307(10) 0.16740(11) 0.15100(11)
C109_8 C 0.34900(11) 0.12693(10) 0.16740(11)
C110_8 C 0.33260(11) 0.15100(11) 0.12693(10)
C116_8 C 0.62969(11) 0.35437(11) 0.32994(11)
C117_8 C 0.64563(11) 0.32994(11) 0.37031(11)
C118_8 C 0.67006(11) 0.37031(11) 0.35437(11)
C119_8 C 0.37031(11) 0.14563(11) 0.17006(11)
C120_8 C 0.35437(11) 0.17006(11) 0.12969(11)
C121_8 C 0.32994(11) 0.12969(11) 0.14563(11)
C127_8 C 0.61386(13) 0.28442(13) 0.33322(14)
C128_8 C 0.66678(14) 0.38614(13) 0.28442(13)
C129_8 C 0.71558(13) 0.33322(14) 0.38614(13)
C130_8 C 0.38614(13) 0.21558(13) 0.16678(14)
C131_8 C 0.33322(14) 0.11386(13) 0.21558(13)
C132_8 C 0.28442(13) 0.16678(14) 0.11386(13)
H49_8 H 0.6199 0.2752 0.3502
H50_8 H 0.6498 0.3801 0.2752
H51_8 H 0.7248 0.3502 0.3801
H52_8 H 0.3801 0.2248 0.1498
H53_8 H 0.3502 0.1199 0.2248
H54_8 H 0.2752 0.1498 0.1199
H60_8 H 0.5983 0.2738 0.3257
H61_8 H 0.6743 0.4017 0.2738
H62_8 H 0.7262 0.3257 0.4017
H63_8 H 0.4017 0.2262 0.1743
H64_8 H 0.3257 0.0983 0.2262
H65_8 H 0.2738 0.1743 0.0983
C138_8 C 0.63729(19) 0.28364(16) 0.31257(19)
C139_8 C 0.68743(19) 0.36271(19) 0.28364(16)
C140_8 C 0.71636(16) 0.31257(19) 0.36271(19)
C141_8 C 0.36271(19) 0.21636(16) 0.18743(19)
C142_8 C 0.31257(19) 0.13729(19) 0.21636(16)
C143_8 C 0.28364(16) 0.18743(19) 0.13729(19)
H71_8 H 0.6329 0.2955 0.2970
H72_8 H 0.7030 0.3671 0.2955
H73_8 H 0.7045 0.2970 0.3671
H74_8 H 0.3671 0.2045 0.2030
H75_8 H 0.2970 0.1329 0.2045
H76_8 H 0.2955 0.2030 0.1329
H82_8 H 0.6399 0.2648 0.3061
H83_8 H 0.6939 0.3601 0.2648
H84_8 H 0.7352 0.3061 0.3601
H85_8 H 0.3601 0.2352 0.1939
H86_8 H 0.3061 0.1399 0.2352
H87_8 H 0.2648 0.1939 0.1399
H93_8 H 0.6541 0.2901 0.3213
H94_8 H 0.6787 0.3459 0.2901
H95_8 H 0.7099 0.3213 0.3459
H96_8 H 0.3459 0.2099 0.1787
H97_8 H 0.3213 0.1541 0.2099
H98_8 H 0.2901 0.1787 0.1541
C149_8 C 0.58002(12) 0.31282(15) 0.36188(13)
C150_8 C 0.63812(13) 0.41998(12) 0.31282(15)
C151_8 C 0.68718(15) 0.36188(13) 0.41998(12)
C152_8 C 0.41998(12) 0.18718(15) 0.13812(13)
C153_8 C 0.36188(13) 0.08002(12) 0.18718(15)
C154_8 C 0.31282(15) 0.13812(13) 0.08002(12)
H104_8 H 0.5650 0.3013 0.3546
H105_8 H 0.6454 0.4350 0.3013
H106_8 H 0.6987 0.3546 0.4350
H107_8 H 0.4350 0.1987 0.1454
H108_8 H 0.3546 0.0650 0.1987
H109_8 H 0.3013 0.1454 0.0650
H115_8 H 0.5868 0.3041 0.3789
H116_8 H 0.6211 0.4132 0.3041
H117_8 H 0.6959 0.3789 0.4132
H118_8 H 0.4132 0.1959 0.1211
H119_8 H 0.3789 0.0868 0.1959
H120_8 H 0.3041 0.1211 0.0868
C160_8 C 0.5686(2) 0.3405(2) 0.36886(19)
C161_8 C 0.63114(19) 0.4314(2) 0.3405(2)
C162_8 C 0.6595(2) 0.36886(19) 0.4314(2)
C163_8 C 0.4314(2) 0.1595(2) 0.13114(19)
C164_8 C 0.36886(19) 0.0686(2) 0.1595(2)
C165_8 C 0.3405(2) 0.13114(19) 0.0686(2)
H126_8 H 0.5829 0.3515 0.3777
H127_8 H 0.6223 0.4171 0.3515
H128_8 H 0.6485 0.3777 0.4171
H129_8 H 0.4171 0.1485 0.1223
H130_8 H 0.3777 0.0829 0.1485
H131_8 H 0.3515 0.1223 0.0829
H137_8 H 0.5531 0.3384 0.3813
H138_8 H 0.6187 0.4469 0.3384
H139_8 H 0.6616 0.3813 0.4469
H140_8 H 0.4469 0.1616 0.1187
H141_8 H 0.3813 0.0531 0.1616
H142_8 H 0.3384 0.1187 0.0531
H148_8 H 0.5626 0.3496 0.3521
H149_8 H 0.6479 0.4374 0.3496
H150_8 H 0.6504 0.3521 0.4374
H151_8 H 0.4374 0.1504 0.1479
H152_8 H 0.3521 0.0626 0.1504
H153_8 H 0.3496 0.1479 0.0626
O7_9 O 0.76146(10) 0.19912(11) 0.03170(10)
O8_9 O 0.73934(9) 0.16079(10) 0.03289(8)
O9_19 O 0.7500 0.2500 0.0000
O10_19 O 0.68213(19) 0.1579(3) -0.0000
C1_10 C 0.75829(11) 0.17535(13) 0.04120(10)
C2_10 C 0.77646(10) 0.16607(12) 0.06377(10)
C3_10 C 0.79882(11) 0.18166(13) 0.07185(10)
H1_10 H 0.8029 0.1984 0.0628
C4_10 C 0.81524(11) 0.17260(12) 0.09318(10)
C5_10 C 0.80922(10) 0.14864(11) 0.10744(10)
C6_10 C 0.78691(11) 0.13287(12) 0.09892(11)
H2_10 H 0.7826 0.1163 0.1081
C7_10 C 0.77112(11) 0.14151(12) 0.07712(11)
H3_10 H 0.7563 0.1304 0.0711
C8_10 C 0.84071(12) 0.18660(12) 0.10358(12)
C9_10 C 0.84900(11) 0.16740(11) 0.12693(10)
C10_10 C 0.82994(11) 0.14563(11) 0.12969(11)
C11_10 C 0.83322(14) 0.21558(13) 0.11386(13)
H4_10 H 0.8502 0.2248 0.1199
H5_10 H 0.8257 0.2262 0.0983
C12_10 C 0.81257(19) 0.21636(16) 0.13729(19)
H6_10 H 0.7970 0.2045 0.1329
H7_10 H 0.8061 0.2352 0.1399
H8_10 H 0.8213 0.2099 0.1541
C13_10 C 0.86188(13) 0.18718(15) 0.08002(12)
H9_10 H 0.8546 0.1987 0.0650
H10_10 H 0.8789 0.1959 0.0868
C14_10 C 0.86886(19) 0.1595(2) 0.0686(2)
H11_10 H 0.8777 0.1485 0.0829
H12_10 H 0.8813 0.1616 0.0531
H13_10 H 0.8521 0.1504 0.0626
O11_14 O 0.69912(11) 0.23854(10) 0.03170(10)
O19_10 O 0.80088(11) 0.03170(10) 0.23854(10)
O27_14 O 0.66079(10) 0.26066(9) 0.03289(8)
O34_10 O 0.83921(10) 0.03289(8) 0.26066(9)
O41_19 O 0.6579(3) 0.31787(19) -0.0000
O42_19 O 0.81787(19) 0.3421(3) 0.0000
O43_19 O 0.8421(3) 0.18213(19) -0.0000
C15_10 C 0.95880(10) 0.24171(11) 0.17535(13)
C16_10 C 0.82465(13) 0.04120(10) 0.24171(11)
C26_10 C 0.93623(10) 0.22354(10) 0.16607(12)
C27_10 C 0.83393(12) 0.06377(10) 0.22354(10)
C37_10 C 0.92815(10) 0.20118(11) 0.18166(13)
C38_10 C 0.81834(13) 0.07185(10) 0.20118(11)
H14_10 H 0.9372 0.1971 0.1984
H15_10 H 0.8016 0.0628 0.1971
C48_10 C 0.90682(10) 0.18476(11) 0.17260(12)
C49_10 C 0.82740(12) 0.09318(10) 0.18476(11)
C59_10 C 0.89256(10) 0.19078(10) 0.14864(11)
C60_10 C 0.85136(11) 0.10744(10) 0.19078(10)
C70_10 C 0.90108(11) 0.21309(11) 0.13287(12)
C71_10 C 0.86713(12) 0.09892(11) 0.21309(11)
H25_10 H 0.8919 0.2174 0.1163
H26_10 H 0.8837 0.1081 0.2174
C81_10 C 0.92288(11) 0.22888(11) 0.14151(12)
C82_10 C 0.85849(12) 0.07712(11) 0.22888(11)
H36_10 H 0.9289 0.2437 0.1304
H37_10 H 0.8696 0.0711 0.2437
C92_10 C 0.81340(12) 0.10358(12) 0.15929(12)
C93_10 C 0.89642(12) 0.15929(12) 0.18660(12)
C103_10 C 0.83260(11) 0.12693(10) 0.15100(11)
C104_10 C 0.87307(10) 0.15100(11) 0.16740(11)
C114_10 C 0.87031(11) 0.17006(11) 0.14563(11)
C115_10 C 0.85437(11) 0.12969(11) 0.17006(11)
C125_10 C 0.78442(13) 0.11386(13) 0.16678(14)
C126_10 C 0.88614(13) 0.16678(14) 0.21558(13)
H47_10 H 0.7752 0.1199 0.1498
H48_10 H 0.8801 0.1498 0.2248
H58_10 H 0.7738 0.0983 0.1743
H59_10 H 0.9017 0.1743 0.2262
C136_10 C 0.78364(16) 0.13729(19) 0.18743(19)
C137_10 C 0.86271(19) 0.18743(19) 0.21636(16)
H69_10 H 0.7955 0.1329 0.2030
H70_10 H 0.8671 0.2030 0.2045
H80_10 H 0.7648 0.1399 0.1939
H81_10 H 0.8601 0.1939 0.2352
H91_10 H 0.7901 0.1541 0.1787
H92_10 H 0.8459 0.1787 0.2099
C147_10 C 0.81282(15) 0.08002(12) 0.13812(13)
C148_10 C 0.91998(12) 0.13812(13) 0.18718(15)
H102_10 H 0.8013 0.0650 0.1454
H103_10 H 0.9350 0.1454 0.1987
H113_10 H 0.8041 0.0868 0.1211
H114_10 H 0.9132 0.1211 0.1959
C158_10 C 0.8405(2) 0.0686(2) 0.13114(19)
C159_10 C 0.9314(2) 0.13114(19) 0.1595(2)
H124_10 H 0.8515 0.0829 0.1223
H125_10 H 0.9171 0.1223 0.1485
H135_10 H 0.8384 0.0531 0.1187
H136_10 H 0.9469 0.1187 0.1616
H146_10 H 0.8496 0.0626 0.1479
H147_10 H 0.9374 0.1479 0.1504
O9_20 O 0.7500 0.2500 1.0000
O10_20 O 0.68213(19) 0.1579(3) 1.0000
O12_15 O 0.76146(10) 0.19912(11) 0.96830(10)
O14_15 O 0.73854(10) 0.30088(11) 0.96830(10)
O17_15 O 0.80088(11) 0.26146(10) 0.96830(10)
O26_15 O 0.73934(9) 0.16079(10) 0.96711(8)
O29_15 O 0.76066(9) 0.33921(10) 0.96711(8)
O32_15 O 0.83921(10) 0.23934(9) 0.96711(8)
O41_20 O 0.6579(3) 0.31787(19) 1.0000
O42_20 O 0.81787(19) 0.3421(3) 1.0000
O43_20 O 0.8421(3) 0.18213(19) 1.0000
C1_11 C 0.24171(11) 0.17535(13) 0.95880(10)
C2_11 C 0.22354(10) 0.16607(12) 0.93623(10)
C3_11 C 0.20118(11) 0.18166(13) 0.92815(10)
H1_11 H 0.1971 0.1984 0.9372
C4_11 C 0.18476(11) 0.17260(12) 0.90682(10)
C5_11 C 0.19078(10) 0.14864(11) 0.89256(10)
C6_11 C 0.21309(11) 0.13287(12) 0.90108(11)
H2_11 H 0.2174 0.1163 0.8919
C7_11 C 0.22888(11) 0.14151(12) 0.92288(11)
H3_11 H 0.2437 0.1304 0.9289
C8_11 C 0.15929(12) 0.18660(12) 0.89642(12)
C9_11 C 0.15100(11) 0.16740(11) 0.87307(10)
C10_11 C 0.17006(11) 0.14563(11) 0.87031(11)
C11_11 C 0.16678(14) 0.21558(13) 0.88614(13)
H4_11 H 0.1498 0.2248 0.8801
H5_11 H 0.1743 0.2262 0.9017
C12_11 C 0.18743(19) 0.21636(16) 0.86271(19)
H6_11 H 0.2030 0.2045 0.8671
H7_11 H 0.1939 0.2352 0.8601
H8_11 H 0.1787 0.2099 0.8459
C13_11 C 0.13812(13) 0.18718(15) 0.91998(12)
H9_11 H 0.1454 0.1987 0.9350
H10_11 H 0.1211 0.1959 0.9132
C14_11 C 0.13114(19) 0.1595(2) 0.9314(2)
H11_11 H 0.1223 0.1485 0.9171
H12_11 H 0.1187 0.1616 0.9469
H13_11 H 0.1479 0.1504 0.9374
Pb6_14 Pb 0.0000 0.194421(9) 0.779047(7)
Pb7_12 Pb 0.194421(9) 0.0000 0.720953(7)
O18_9 O 0.03170(10) 0.23854(10) 0.80088(11)
O19_11 O 0.19912(11) 0.03170(10) 0.76146(10)
O33_9 O 0.03289(8) 0.26066(9) 0.83921(10)
O34_11 O 0.16079(10) 0.03289(8) 0.73934(9)
C15_11 C 0.04120(10) 0.24171(11) 0.82465(13)
C16_11 C 0.17535(13) 0.04120(10) 0.75829(11)
C26_11 C 0.06377(10) 0.22354(10) 0.83393(12)
C27_11 C 0.16607(12) 0.06377(10) 0.77646(10)
C37_11 C 0.07185(10) 0.20118(11) 0.81834(13)
C38_11 C 0.18166(13) 0.07185(10) 0.79882(11)
H14_11 H 0.0628 0.1971 0.8016
H15_11 H 0.1984 0.0628 0.8029
C48_11 C 0.09318(10) 0.18476(11) 0.82740(12)
C49_11 C 0.17260(12) 0.09318(10) 0.81524(11)
C59_11 C 0.10744(10) 0.19078(10) 0.85136(11)
C60_11 C 0.14864(11) 0.10744(10) 0.80922(10)
C70_11 C 0.09892(11) 0.21309(11) 0.86713(12)
C71_11 C 0.13287(12) 0.09892(11) 0.78691(11)
H25_11 H 0.1081 0.2174 0.8837
H26_11 H 0.1163 0.1081 0.7826
C81_11 C 0.07712(11) 0.22888(11) 0.85849(12)
C82_11 C 0.14151(12) 0.07712(11) 0.77112(11)
H36_11 H 0.0711 0.2437 0.8696
H37_11 H 0.1304 0.0711 0.7563
C92_11 C 0.18660(12) 0.10358(12) 0.84071(12)
C93_11 C 0.10358(12) 0.15929(12) 0.81340(12)
C103_11 C 0.16740(11) 0.12693(10) 0.84900(11)
C104_11 C 0.12693(10) 0.15100(11) 0.83260(11)
C114_11 C 0.12969(11) 0.17006(11) 0.85437(11)
C115_11 C 0.14563(11) 0.12969(11) 0.82994(11)
C125_11 C 0.21558(13) 0.11386(13) 0.83322(14)
C126_11 C 0.11386(13) 0.16678(14) 0.78442(13)
H47_11 H 0.2248 0.1199 0.8502
H48_11 H 0.1199 0.1498 0.7752
H58_11 H 0.2262 0.0983 0.8257
H59_11 H 0.0983 0.1743 0.7738
C136_11 C 0.21636(16) 0.13729(19) 0.81257(19)
C137_11 C 0.13729(19) 0.18743(19) 0.78364(16)
H69_11 H 0.2045 0.1329 0.7970
H70_11 H 0.1329 0.2030 0.7955
H80_11 H 0.2352 0.1399 0.8061
H81_11 H 0.1399 0.1939 0.7648
H91_11 H 0.2099 0.1541 0.8213
H92_11 H 0.1541 0.1787 0.7901
C147_11 C 0.18718(15) 0.08002(12) 0.86188(13)
C148_11 C 0.08002(12) 0.13812(13) 0.81282(15)
H102_11 H 0.1987 0.0650 0.8546
H103_11 H 0.0650 0.1454 0.8013
H113_11 H 0.1959 0.0868 0.8789
H114_11 H 0.0868 0.1211 0.8041
C158_11 C 0.1595(2) 0.0686(2) 0.86886(19)
C159_11 C 0.0686(2) 0.13114(19) 0.8405(2)
H124_11 H 0.1485 0.0829 0.8777
H125_11 H 0.0829 0.1223 0.8515
H135_11 H 0.1616 0.0531 0.8813
H136_11 H 0.0531 0.1187 0.8384
H146_11 H 0.1504 0.0626 0.8521
H147_11 H 0.0626 0.1479 0.8496
Pb7_13 Pb 0.194421(9) 1.0000 0.720953(7)
Pb6_15 Pb 1.0000 0.194421(9) 0.779047(7)
O9_21 O 0.7500 0.7500 0.0000
O10_21 O 0.68213(19) 0.8421(3) 0.0000
O12_16 O 0.76146(10) 0.80088(11) 0.03170(10)
O14_16 O 0.73854(10) 0.69912(11) 0.03170(10)
O17_16 O 0.80088(11) 0.73854(10) 0.03170(10)
O26_16 O 0.73934(9) 0.83921(10) 0.03289(8)
O29_16 O 0.76066(9) 0.66079(10) 0.03289(8)
O32_16 O 0.83921(10) 0.76066(9) 0.03289(8)
O41_21 O 0.6579(3) 0.68213(19) 0.0000
O42_21 O 0.81787(19) 0.6579(3) 0.0000
O43_21 O 0.8421(3) 0.81787(19) 0.0000
O9_22 O 0.7500 0.7500 1.0000
O10_22 O 0.68213(19) 0.8421(3) 1.0000
O41_22 O 0.6579(3) 0.68213(19) 1.0000
O42_22 O 0.81787(19) 0.6579(3) 1.0000
O43_22 O 0.8421(3) 0.81787(19) 1.0000
O9_23 O 0.7500 -0.0000 0.7500
O10_23 O 0.6579(3) 0.0000 0.81787(19)
O12_17 O 0.69912(11) 0.03170(10) 0.73854(10)
O14_17 O 0.80088(11) 0.03170(10) 0.76146(10)
O17_17 O 0.76146(10) 0.03170(10) 0.69912(11)
O26_17 O 0.66079(10) 0.03289(8) 0.76066(9)
O29_17 O 0.83921(10) 0.03289(8) 0.73934(9)
O32_17 O 0.73934(9) 0.03289(8) 0.66079(10)
O41_23 O 0.81787(19) 0.0000 0.8421(3)
O42_23 O 0.8421(3) 0.0000 0.68213(19)
O43_23 O 0.68213(19) 0.0000 0.6579(3)
O9_24 O 0.7500 1.0000 0.7500
O10_24 O 0.6579(3) 1.0000 0.81787(19)
O41_24 O 0.81787(19) 1.0000 0.8421(3)
O42_24 O 0.8421(3) 1.0000 0.68213(19)
O43_24 O 0.68213(19) 1.0000 0.6579(3)
O9_25 O 0.7500 0.0000 0.2500
O10_25 O 0.6579(3) 0.0000 0.18213(19)
O11_15 O 0.73854(10) 0.03170(10) 0.19912(11)
O27_15 O 0.76066(9) 0.03289(8) 0.16079(10)
O41_25 O 0.81787(19) -0.0000 0.1579(3)
O42_25 O 0.8421(3) 0.0000 0.31787(19)
O43_25 O 0.68213(19) 0.0000 0.3421(3)
O9_26 O 0.7500 1.0000 0.2500
O10_26 O 0.6579(3) 1.0000 0.18213(19)
O12_18 O 0.69912(11) 0.96830(10) 0.26146(10)
O14_18 O 0.80088(11) 0.96830(10) 0.23854(10)
O17_18 O 0.76146(10) 0.96830(10) 0.30088(11)
O26_18 O 0.66079(10) 0.96711(8) 0.23934(9)
O29_18 O 0.83921(10) 0.96711(8) 0.26066(9)
O32_18 O 0.73934(9) 0.96711(8) 0.33921(10)
O41_26 O 0.81787(19) 1.0000 0.1579(3)
O42_26 O 0.8421(3) 1.0000 0.31787(19)
O43_26 O 0.68213(19) 1.0000 0.3421(3)
Pb16_12 Pb 0.0000 0.720953(7) 0.194421(9)
Pb18_11 Pb 0.194421(9) 0.779047(7) -0.0000
O24_8 O 0.03170(10) 0.76146(10) 0.19912(11)
O25_9 O 0.23854(10) 0.80088(11) 0.03170(10)
O39_8 O 0.03289(8) 0.73934(9) 0.16079(10)
O40_9 O 0.26066(9) 0.83921(10) 0.03289(8)
C23_9 C 0.17535(13) 0.95880(10) 0.24171(11)
C24_9 C 0.04120(10) 0.75829(11) 0.17535(13)
C25_9 C 0.24171(11) 0.82465(13) 0.04120(10)
C34_9 C 0.16607(12) 0.93623(10) 0.22354(10)
C35_9 C 0.06377(10) 0.77646(10) 0.16607(12)
C36_9 C 0.22354(10) 0.83393(12) 0.06377(10)
C45_9 C 0.18166(13) 0.92815(10) 0.20118(11)
C46_9 C 0.07185(10) 0.79882(11) 0.18166(13)
C47_9 C 0.20118(11) 0.81834(13) 0.07185(10)
H22_9 H 0.1984 0.9372 0.1971
H23_9 H 0.0628 0.8029 0.1984
H24_9 H 0.1971 0.8016 0.0628
C56_9 C 0.17260(12) 0.90682(10) 0.18476(11)
C57_9 C 0.09318(10) 0.81524(11) 0.17260(12)
C58_9 C 0.18476(11) 0.82740(12) 0.09318(10)
C67_9 C 0.14864(11) 0.89256(10) 0.19078(10)
C68_9 C 0.19078(10) 0.85136(11) 0.10744(10)
C69_9 C 0.10744(10) 0.80922(10) 0.14864(11)
C78_9 C 0.13287(12) 0.90108(11) 0.21309(11)
C79_9 C 0.21309(11) 0.86713(12) 0.09892(11)
C80_9 C 0.09892(11) 0.78691(11) 0.13287(12)
H33_9 H 0.1163 0.8919 0.2174
H34_9 H 0.2174 0.8837 0.1081
H35_9 H 0.1081 0.7826 0.1163
C89_9 C 0.14151(12) 0.92288(11) 0.22888(11)
C90_9 C 0.22888(11) 0.85849(12) 0.07712(11)
C91_9 C 0.07712(11) 0.77112(11) 0.14151(12)
H44_9 H 0.1304 0.9289 0.2437
H45_9 H 0.2437 0.8696 0.0711
H46_9 H 0.0711 0.7563 0.1304
C100_9 C 0.18660(12) 0.89642(12) 0.15929(12)
C101_9 C 0.10358(12) 0.84071(12) 0.18660(12)
C102_9 C 0.15929(12) 0.81340(12) 0.10358(12)
C111_9 C 0.16740(11) 0.87307(10) 0.15100(11)
C112_9 C 0.12693(10) 0.84900(11) 0.16740(11)
C113_9 C 0.15100(11) 0.83260(11) 0.12693(10)
C122_9 C 0.14563(11) 0.87031(11) 0.17006(11)
C123_9 C 0.17006(11) 0.85437(11) 0.12969(11)
C124_9 C 0.12969(11) 0.82994(11) 0.14563(11)
C133_9 C 0.21558(13) 0.88614(13) 0.16678(14)
C134_9 C 0.11386(13) 0.83322(14) 0.21558(13)
C135_9 C 0.16678(14) 0.78442(13) 0.11386(13)
H55_9 H 0.2248 0.8801 0.1498
H56_9 H 0.1199 0.8502 0.2248
H57_9 H 0.1498 0.7752 0.1199
H66_9 H 0.2262 0.9017 0.1743
H67_9 H 0.0983 0.8257 0.2262
H68_9 H 0.1743 0.7738 0.0983
C144_9 C 0.21636(16) 0.86271(19) 0.18743(19)
C145_9 C 0.13729(19) 0.81257(19) 0.21636(16)
C146_9 C 0.18743(19) 0.78364(16) 0.13729(19)
H77_9 H 0.2045 0.8671 0.2030
H78_9 H 0.1329 0.7970 0.2045
H79_9 H 0.2030 0.7955 0.1329
H88_9 H 0.2352 0.8601 0.1939
H89_9 H 0.1399 0.8061 0.2352
H90_9 H 0.1939 0.7648 0.1399
H99_9 H 0.2099 0.8459 0.1787
H100_9 H 0.1541 0.8213 0.2099
H101_9 H 0.1787 0.7901 0.1541
C155_9 C 0.18718(15) 0.91998(12) 0.13812(13)
C156_9 C 0.08002(12) 0.86188(13) 0.18718(15)
C157_9 C 0.13812(13) 0.81282(15) 0.08002(12)
H110_9 H 0.1987 0.9350 0.1454
H111_9 H 0.0650 0.8546 0.1987
H112_9 H 0.1454 0.8013 0.0650
H121_9 H 0.1959 0.9132 0.1211
H122_9 H 0.0868 0.8789 0.1959
H123_9 H 0.1211 0.8041 0.0868
C166_9 C 0.1595(2) 0.9314(2) 0.13114(19)
C167_9 C 0.0686(2) 0.86886(19) 0.1595(2)
C168_9 C 0.13114(19) 0.8405(2) 0.0686(2)
H132_9 H 0.1485 0.9171 0.1223
H133_9 H 0.0829 0.8777 0.1485
H134_9 H 0.1223 0.8515 0.0829
H143_9 H 0.1616 0.9469 0.1187
H144_9 H 0.0531 0.8813 0.1616
H145_9 H 0.1187 0.8384 0.0531
H154_9 H 0.1504 0.9374 0.1479
H155_9 H 0.0626 0.8521 0.1504
H156_9 H 0.1479 0.8496 0.0626
Pb18_12 Pb 0.194421(9) 0.779047(7) 1.0000
Pb16_13 Pb 1.0000 0.720953(7) 0.194421(9)
C20_9 C 0.67535(13) 0.04120(10) 0.74171(11)
C21_9 C 0.54120(10) 0.24171(11) 0.67535(13)
C22_9 C 0.74171(11) 0.17535(13) 0.54120(10)
C31_9 C 0.66607(12) 0.06377(10) 0.72354(10)
C32_9 C 0.56377(10) 0.22354(10) 0.66607(12)
C33_9 C 0.72354(10) 0.16607(12) 0.56377(10)
C42_9 C 0.68166(13) 0.07185(10) 0.70118(11)
C43_9 C 0.57185(10) 0.20118(11) 0.68166(13)
C44_9 C 0.70118(11) 0.18166(13) 0.57185(10)
H19_9 H 0.6984 0.0628 0.6971
H20_9 H 0.5628 0.1971 0.6984
H21_9 H 0.6971 0.1984 0.5628
C53_9 C 0.67260(12) 0.09318(10) 0.68476(11)
C54_9 C 0.59318(10) 0.18476(11) 0.67260(12)
C55_9 C 0.68476(11) 0.17260(12) 0.59318(10)
C64_9 C 0.64864(11) 0.10744(10) 0.69078(10)
C65_9 C 0.69078(10) 0.14864(11) 0.60744(10)
C66_9 C 0.60744(10) 0.19078(10) 0.64864(11)
C75_9 C 0.63287(12) 0.09892(11) 0.71309(11)
C76_9 C 0.71309(11) 0.13287(12) 0.59892(11)
C77_9 C 0.59892(11) 0.21309(11) 0.63287(12)
H30_9 H 0.6163 0.1081 0.7174
H31_9 H 0.7174 0.1163 0.6081
H32_9 H 0.6081 0.2174 0.6163
C86_9 C 0.64151(12) 0.07712(11) 0.72888(11)
C87_9 C 0.72888(11) 0.14151(12) 0.57712(11)
C88_9 C 0.57712(11) 0.22888(11) 0.64151(12)
H41_9 H 0.6304 0.0711 0.7437
H42_9 H 0.7437 0.1304 0.5711
H43_9 H 0.5711 0.2437 0.6304
C97_9 C 0.68660(12) 0.10358(12) 0.65929(12)
C98_9 C 0.60358(12) 0.15929(12) 0.68660(12)
C99_9 C 0.65929(12) 0.18660(12) 0.60358(12)
C108_9 C 0.66740(11) 0.12693(10) 0.65100(11)
C109_9 C 0.62693(10) 0.15100(11) 0.66740(11)
C110_9 C 0.65100(11) 0.16740(11) 0.62693(10)
C119_9 C 0.64563(11) 0.12969(11) 0.67006(11)
C120_9 C 0.67006(11) 0.14563(11) 0.62969(11)
C121_9 C 0.62969(11) 0.17006(11) 0.64563(11)
C130_9 C 0.71558(13) 0.11386(13) 0.66678(14)
C131_9 C 0.61386(13) 0.16678(14) 0.71558(13)
C132_9 C 0.66678(14) 0.21558(13) 0.61386(13)
H52_9 H 0.7248 0.1199 0.6498
H53_9 H 0.6199 0.1498 0.7248
H54_9 H 0.6498 0.2248 0.6199
H63_9 H 0.7262 0.0983 0.6743
H64_9 H 0.5983 0.1743 0.7262
H65_9 H 0.6743 0.2262 0.5983
C141_9 C 0.71636(16) 0.13729(19) 0.68743(19)
C142_9 C 0.63729(19) 0.18743(19) 0.71636(16)
C143_9 C 0.68743(19) 0.21636(16) 0.63729(19)
H74_9 H 0.7045 0.1329 0.7030
H75_9 H 0.6329 0.2030 0.7045
H76_9 H 0.7030 0.2045 0.6329
H85_9 H 0.7352 0.1399 0.6939
H86_9 H 0.6399 0.1939 0.7352
H87_9 H 0.6939 0.2352 0.6399
H96_9 H 0.7099 0.1541 0.6787
H97_9 H 0.6541 0.1787 0.7099
H98_9 H 0.6787 0.2099 0.6541
C152_9 C 0.68718(15) 0.08002(12) 0.63812(13)
C153_9 C 0.58002(12) 0.13812(13) 0.68718(15)
C154_9 C 0.63812(13) 0.18718(15) 0.58002(12)
H107_9 H 0.6987 0.0650 0.6454
H108_9 H 0.5650 0.1454 0.6987
H109_9 H 0.6454 0.1987 0.5650
H118_9 H 0.6959 0.0868 0.6211
H119_9 H 0.5868 0.1211 0.6959
H120_9 H 0.6211 0.1959 0.5868
C163_9 C 0.6595(2) 0.0686(2) 0.63114(19)
C164_9 C 0.5686(2) 0.13114(19) 0.6595(2)
C165_9 C 0.63114(19) 0.1595(2) 0.5686(2)
H129_9 H 0.6485 0.0829 0.6223
H130_9 H 0.5829 0.1223 0.6485
H131_9 H 0.6223 0.1485 0.5829
H140_9 H 0.6616 0.0531 0.6187
H141_9 H 0.5531 0.1187 0.6616
H142_9 H 0.6187 0.1616 0.5531
H151_9 H 0.6504 0.0626 0.6479
H152_9 H 0.5626 0.1479 0.6504
H153_9 H 0.6479 0.1504 0.5626
O23_7 O 0.19912(11) 0.73854(10) 0.96830(10)
O38_7 O 0.16079(10) 0.76066(9) 0.96711(8)
C20_10 C 0.04120(10) 0.67535(13) 0.75829(11)
C21_10 C 0.24171(11) 0.54120(10) 0.82465(13)
C22_10 C 0.17535(13) 0.74171(11) 0.95880(10)
C31_10 C 0.06377(10) 0.66607(12) 0.77646(10)
C32_10 C 0.22354(10) 0.56377(10) 0.83393(12)
C33_10 C 0.16607(12) 0.72354(10) 0.93623(10)
C42_10 C 0.07185(10) 0.68166(13) 0.79882(11)
C43_10 C 0.20118(11) 0.57185(10) 0.81834(13)
C44_10 C 0.18166(13) 0.70118(11) 0.92815(10)
H19_10 H 0.0628 0.6984 0.8029
H20_10 H 0.1971 0.5628 0.8016
H21_10 H 0.1984 0.6971 0.9372
C53_10 C 0.09318(10) 0.67260(12) 0.81524(11)
C54_10 C 0.18476(11) 0.59318(10) 0.82740(12)
C55_10 C 0.17260(12) 0.68476(11) 0.90682(10)
C64_10 C 0.10744(10) 0.64864(11) 0.80922(10)
C65_10 C 0.14864(11) 0.69078(10) 0.89256(10)
C66_10 C 0.19078(10) 0.60744(10) 0.85136(11)
C75_10 C 0.09892(11) 0.63287(12) 0.78691(11)
C76_10 C 0.13287(12) 0.71309(11) 0.90108(11)
C77_10 C 0.21309(11) 0.59892(11) 0.86713(12)
H30_10 H 0.1081 0.6163 0.7826
H31_10 H 0.1163 0.7174 0.8919
H32_10 H 0.2174 0.6081 0.8837
C86_10 C 0.07712(11) 0.64151(12) 0.77112(11)
C87_10 C 0.14151(12) 0.72888(11) 0.92288(11)
C88_10 C 0.22888(11) 0.57712(11) 0.85849(12)
H41_10 H 0.0711 0.6304 0.7563
H42_10 H 0.1304 0.7437 0.9289
H43_10 H 0.2437 0.5711 0.8696
C97_10 C 0.10358(12) 0.68660(12) 0.84071(12)
C98_10 C 0.15929(12) 0.60358(12) 0.81340(12)
C99_10 C 0.18660(12) 0.65929(12) 0.89642(12)
C108_10 C 0.12693(10) 0.66740(11) 0.84900(11)
C109_10 C 0.15100(11) 0.62693(10) 0.83260(11)
C110_10 C 0.16740(11) 0.65100(11) 0.87307(10)
C119_10 C 0.12969(11) 0.64563(11) 0.82994(11)
C120_10 C 0.14563(11) 0.67006(11) 0.87031(11)
C121_10 C 0.17006(11) 0.62969(11) 0.85437(11)
C130_10 C 0.11386(13) 0.71558(13) 0.83322(14)
C131_10 C 0.16678(14) 0.61386(13) 0.78442(13)
C132_10 C 0.21558(13) 0.66678(14) 0.88614(13)
H52_10 H 0.1199 0.7248 0.8502
H53_10 H 0.1498 0.6199 0.7752
H54_10 H 0.2248 0.6498 0.8801
H63_10 H 0.0983 0.7262 0.8257
H64_10 H 0.1743 0.5983 0.7738
H65_10 H 0.2262 0.6743 0.9017
C141_10 C 0.13729(19) 0.71636(16) 0.81257(19)
C142_10 C 0.18743(19) 0.63729(19) 0.78364(16)
C143_10 C 0.21636(16) 0.68743(19) 0.86271(19)
H74_10 H 0.1329 0.7045 0.7970
H75_10 H 0.2030 0.6329 0.7955
H76_10 H 0.2045 0.7030 0.8671
H85_10 H 0.1399 0.7352 0.8061
H86_10 H 0.1939 0.6399 0.7648
H87_10 H 0.2352 0.6939 0.8601
H96_10 H 0.1541 0.7099 0.8213
H97_10 H 0.1787 0.6541 0.7901
H98_10 H 0.2099 0.6787 0.8459
C152_10 C 0.08002(12) 0.68718(15) 0.86188(13)
C153_10 C 0.13812(13) 0.58002(12) 0.81282(15)
C154_10 C 0.18718(15) 0.63812(13) 0.91998(12)
H107_10 H 0.0650 0.6987 0.8546
H108_10 H 0.1454 0.5650 0.8013
H109_10 H 0.1987 0.6454 0.9350
H118_10 H 0.0868 0.6959 0.8789
H119_10 H 0.1211 0.5868 0.8041
H120_10 H 0.1959 0.6211 0.9132
C163_10 C 0.0686(2) 0.6595(2) 0.86886(19)
C164_10 C 0.13114(19) 0.5686(2) 0.8405(2)
C165_10 C 0.1595(2) 0.63114(19) 0.9314(2)
H129_10 H 0.0829 0.6485 0.8777
H130_10 H 0.1223 0.5829 0.8515
H131_10 H 0.1485 0.6223 0.9171
H140_10 H 0.0531 0.6616 0.8813
H141_10 H 0.1187 0.5531 0.8384
H142_10 H 0.1616 0.6187 0.9469
H151_10 H 0.0626 0.6504 0.8521
H152_10 H 0.1479 0.5626 0.8496
H153_10 H 0.1504 0.6479 0.9374
O22_8 O 0.23854(10) 0.46830(10) 0.19912(11)
O37_8 O 0.26066(9) 0.46711(8) 0.16079(10)
C20_11 C 0.04120(10) 0.32465(13) 0.24171(11)
C21_11 C 0.24171(11) 0.45880(10) 0.17535(13)
C22_11 C 0.17535(13) 0.25829(11) 0.04120(10)
C31_11 C 0.06377(10) 0.33393(12) 0.22354(10)
C32_11 C 0.22354(10) 0.43623(10) 0.16607(12)
C33_11 C 0.16607(12) 0.27646(10) 0.06377(10)
C42_11 C 0.07185(10) 0.31834(13) 0.20118(11)
C43_11 C 0.20118(11) 0.42815(10) 0.18166(13)
C44_11 C 0.18166(13) 0.29882(11) 0.07185(10)
H19_11 H 0.0628 0.3016 0.1971
H20_11 H 0.1971 0.4372 0.1984
H21_11 H 0.1984 0.3029 0.0628
C53_11 C 0.09318(10) 0.32740(12) 0.18476(11)
C54_11 C 0.18476(11) 0.40682(10) 0.17260(12)
C55_11 C 0.17260(12) 0.31524(11) 0.09318(10)
C64_11 C 0.10744(10) 0.35136(11) 0.19078(10)
C65_11 C 0.14864(11) 0.30922(10) 0.10744(10)
C66_11 C 0.19078(10) 0.39256(10) 0.14864(11)
C75_11 C 0.09892(11) 0.36713(12) 0.21309(11)
C76_11 C 0.13287(12) 0.28691(11) 0.09892(11)
C77_11 C 0.21309(11) 0.40108(11) 0.13287(12)
H30_11 H 0.1081 0.3837 0.2174
H31_11 H 0.1163 0.2826 0.1081
H32_11 H 0.2174 0.3919 0.1163
C86_11 C 0.07712(11) 0.35849(12) 0.22888(11)
C87_11 C 0.14151(12) 0.27112(11) 0.07712(11)
C88_11 C 0.22888(11) 0.42288(11) 0.14151(12)
H41_11 H 0.0711 0.3696 0.2437
H42_11 H 0.1304 0.2563 0.0711
H43_11 H 0.2437 0.4289 0.1304
C97_11 C 0.10358(12) 0.31340(12) 0.15929(12)
C98_11 C 0.15929(12) 0.39642(12) 0.18660(12)
C99_11 C 0.18660(12) 0.34071(12) 0.10358(12)
C108_11 C 0.12693(10) 0.33260(11) 0.15100(11)
C109_11 C 0.15100(11) 0.37307(10) 0.16740(11)
C110_11 C 0.16740(11) 0.34900(11) 0.12693(10)
C119_11 C 0.12969(11) 0.35437(11) 0.17006(11)
C120_11 C 0.14563(11) 0.32994(11) 0.12969(11)
C121_11 C 0.17006(11) 0.37031(11) 0.14563(11)
C130_11 C 0.11386(13) 0.28442(13) 0.16678(14)
C131_11 C 0.16678(14) 0.38614(13) 0.21558(13)
C132_11 C 0.21558(13) 0.33322(14) 0.11386(13)
H52_11 H 0.1199 0.2752 0.1498
H53_11 H 0.1498 0.3801 0.2248
H54_11 H 0.2248 0.3502 0.1199
H63_11 H 0.0983 0.2738 0.1743
H64_11 H 0.1743 0.4017 0.2262
H65_11 H 0.2262 0.3257 0.0983
C141_11 C 0.13729(19) 0.28364(16) 0.18743(19)
C142_11 C 0.18743(19) 0.36271(19) 0.21636(16)
C143_11 C 0.21636(16) 0.31257(19) 0.13729(19)
H74_11 H 0.1329 0.2955 0.2030
H75_11 H 0.2030 0.3671 0.2045
H76_11 H 0.2045 0.2970 0.1329
H85_11 H 0.1399 0.2648 0.1939
H86_11 H 0.1939 0.3601 0.2352
H87_11 H 0.2352 0.3061 0.1399
H96_11 H 0.1541 0.2901 0.1787
H97_11 H 0.1787 0.3459 0.2099
H98_11 H 0.2099 0.3213 0.1541
C152_11 C 0.08002(12) 0.31282(15) 0.13812(13)
C153_11 C 0.13812(13) 0.41998(12) 0.18718(15)
C154_11 C 0.18718(15) 0.36188(13) 0.08002(12)
H107_11 H 0.0650 0.3013 0.1454
H108_11 H 0.1454 0.4350 0.1987
H109_11 H 0.1987 0.3546 0.0650
H118_11 H 0.0868 0.3041 0.1211
H119_11 H 0.1211 0.4132 0.1959
H120_11 H 0.1959 0.3789 0.0868
C163_11 C 0.0686(2) 0.3405(2) 0.13114(19)
C164_11 C 0.13114(19) 0.4314(2) 0.1595(2)
C165_11 C 0.1595(2) 0.36886(19) 0.0686(2)
H129_11 H 0.0829 0.3515 0.1223
H130_11 H 0.1223 0.4171 0.1485
H131_11 H 0.1485 0.3777 0.0829
H140_11 H 0.0531 0.3384 0.1187
H141_11 H 0.1187 0.4469 0.1616
H142_11 H 0.1616 0.3813 0.0531
H151_11 H 0.0626 0.3496 0.1479
H152_11 H 0.1479 0.4374 0.1504
H153_11 H 0.1504 0.3521 0.0626
O9_27 O -0.0000 0.7500 0.2500
O10_27 O -0.0000 0.68213(19) 0.1579(3)
O11_16 O 0.03170(10) 0.69912(11) 0.23854(10)
O27_16 O 0.03289(8) 0.66079(10) 0.26066(9)
O41_27 O 0.0000 0.6579(3) 0.31787(19)
O42_27 O 0.0000 0.81787(19) 0.3421(3)
O43_27 O 0.0000 0.8421(3) 0.18213(19)
O9_28 O 1.0000 0.7500 0.2500
O10_28 O 1.0000 0.68213(19) 0.1579(3)
O12_19 O 0.96830(10) 0.76146(10) 0.19912(11)
O13_6 O 0.96830(10) 0.69912(11) 0.23854(10)
O14_19 O 0.96830(10) 0.73854(10) 0.30088(11)
O17_19 O 0.96830(10) 0.80088(11) 0.26146(10)
O26_19 O 0.96711(8) 0.73934(9) 0.16079(10)
O28_6 O 0.96711(8) 0.66079(10) 0.26066(9)
O29_19 O 0.96711(8) 0.76066(9) 0.33921(10)
O32_19 O 0.96711(8) 0.83921(10) 0.23934(9)
O41_28 O 1.0000 0.6579(3) 0.31787(19)
O42_28 O 1.0000 0.81787(19) 0.3421(3)
O43_28 O 1.0000 0.8421(3) 0.18213(19)
C20_12 C 0.95880(10) 0.67535(13) 0.24171(11)
C21_12 C 0.75829(11) 0.54120(10) 0.17535(13)
C22_12 C 0.82465(13) 0.74171(11) 0.04120(10)
C31_12 C 0.93623(10) 0.66607(12) 0.22354(10)
C32_12 C 0.77646(10) 0.56377(10) 0.16607(12)
C33_12 C 0.83393(12) 0.72354(10) 0.06377(10)
C42_12 C 0.92815(10) 0.68166(13) 0.20118(11)
C43_12 C 0.79882(11) 0.57185(10) 0.18166(13)
C44_12 C 0.81834(13) 0.70118(11) 0.07185(10)
H19_12 H 0.9372 0.6984 0.1971
H20_12 H 0.8029 0.5628 0.1984
H21_12 H 0.8016 0.6971 0.0628
C53_12 C 0.90682(10) 0.67260(12) 0.18476(11)
C54_12 C 0.81524(11) 0.59318(10) 0.17260(12)
C55_12 C 0.82740(12) 0.68476(11) 0.09318(10)
C64_12 C 0.89256(10) 0.64864(11) 0.19078(10)
C65_12 C 0.85136(11) 0.69078(10) 0.10744(10)
C66_12 C 0.80922(10) 0.60744(10) 0.14864(11)
C75_12 C 0.90108(11) 0.63287(12) 0.21309(11)
C76_12 C 0.86713(12) 0.71309(11) 0.09892(11)
C77_12 C 0.78691(11) 0.59892(11) 0.13287(12)
H30_12 H 0.8919 0.6163 0.2174
H31_12 H 0.8837 0.7174 0.1081
H32_12 H 0.7826 0.6081 0.1163
C86_12 C 0.92288(11) 0.64151(12) 0.22888(11)
C87_12 C 0.85849(12) 0.72888(11) 0.07712(11)
C88_12 C 0.77112(11) 0.57712(11) 0.14151(12)
H41_12 H 0.9289 0.6304 0.2437
H42_12 H 0.8696 0.7437 0.0711
H43_12 H 0.7563 0.5711 0.1304
C97_12 C 0.89642(12) 0.68660(12) 0.15929(12)
C98_12 C 0.84071(12) 0.60358(12) 0.18660(12)
C99_12 C 0.81340(12) 0.65929(12) 0.10358(12)
C108_12 C 0.87307(10) 0.66740(11) 0.15100(11)
C109_12 C 0.84900(11) 0.62693(10) 0.16740(11)
C110_12 C 0.83260(11) 0.65100(11) 0.12693(10)
C119_12 C 0.87031(11) 0.64563(11) 0.17006(11)
C120_12 C 0.85437(11) 0.67006(11) 0.12969(11)
C121_12 C 0.82994(11) 0.62969(11) 0.14563(11)
C130_12 C 0.88614(13) 0.71558(13) 0.16678(14)
C131_12 C 0.83322(14) 0.61386(13) 0.21558(13)
C132_12 C 0.78442(13) 0.66678(14) 0.11386(13)
H52_12 H 0.8801 0.7248 0.1498
H53_12 H 0.8502 0.6199 0.2248
H54_12 H 0.7752 0.6498 0.1199
H63_12 H 0.9017 0.7262 0.1743
H64_12 H 0.8257 0.5983 0.2262
H65_12 H 0.7738 0.6743 0.0983
C141_12 C 0.86271(19) 0.71636(16) 0.18743(19)
C142_12 C 0.81257(19) 0.63729(19) 0.21636(16)
C143_12 C 0.78364(16) 0.68743(19) 0.13729(19)
H74_12 H 0.8671 0.7045 0.2030
H75_12 H 0.7970 0.6329 0.2045
H76_12 H 0.7955 0.7030 0.1329
H85_12 H 0.8601 0.7352 0.1939
H86_12 H 0.8061 0.6399 0.2352
H87_12 H 0.7648 0.6939 0.1399
H96_12 H 0.8459 0.7099 0.1787
H97_12 H 0.8213 0.6541 0.2099
H98_12 H 0.7901 0.6787 0.1541
C152_12 C 0.91998(12) 0.68718(15) 0.13812(13)
C153_12 C 0.86188(13) 0.58002(12) 0.18718(15)
C154_12 C 0.81282(15) 0.63812(13) 0.08002(12)
H107_12 H 0.9350 0.6987 0.1454
H108_12 H 0.8546 0.5650 0.1987
H109_12 H 0.8013 0.6454 0.0650
H118_12 H 0.9132 0.6959 0.1211
H119_12 H 0.8789 0.5868 0.1959
H120_12 H 0.8041 0.6211 0.0868
C163_12 C 0.9314(2) 0.6595(2) 0.13114(19)
C164_12 C 0.86886(19) 0.5686(2) 0.1595(2)
C165_12 C 0.8405(2) 0.63114(19) 0.0686(2)
H129_12 H 0.9171 0.6485 0.1223
H130_12 H 0.8777 0.5829 0.1485
H131_12 H 0.8515 0.6223 0.0829
H140_12 H 0.9469 0.6616 0.1187
H141_12 H 0.8813 0.5531 0.1616
H142_12 H 0.8384 0.6187 0.0531
H151_12 H 0.9374 0.6504 0.1479
H152_12 H 0.8521 0.5626 0.1504
H153_12 H 0.8496 0.6479 0.0626
O9_29 O 0.2500 0.7500 0.0000
O10_29 O 0.18213(19) 0.6579(3) -0.0000
O11_17 O 0.19912(11) 0.73854(10) 0.03170(10)
O27_17 O 0.16079(10) 0.76066(9) 0.03289(8)
O41_29 O 0.1579(3) 0.81787(19) -0.0000
O42_29 O 0.31787(19) 0.8421(3) 0.0000
O43_29 O 0.3421(3) 0.68213(19) -0.0000
O9_30 O 0.2500 0.7500 1.0000
O10_30 O 0.18213(19) 0.6579(3) 1.0000
O12_20 O 0.26146(10) 0.69912(11) 0.96830(10)
O14_20 O 0.23854(10) 0.80088(11) 0.96830(10)
O17_20 O 0.30088(11) 0.76146(10) 0.96830(10)
O26_20 O 0.23934(9) 0.66079(10) 0.96711(8)
O29_20 O 0.26066(9) 0.83921(10) 0.96711(8)
O32_20 O 0.33921(10) 0.73934(9) 0.96711(8)
O41_30 O 0.1579(3) 0.81787(19) 1.0000
O42_30 O 0.31787(19) 0.8421(3) 1.0000
O43_30 O 0.3421(3) 0.68213(19) 1.0000
O9_31 O 0.2500 0.5000 0.2500
O10_31 O 0.1579(3) 0.5000 0.18213(19)
O11_18 O 0.23854(10) 0.53170(10) 0.19912(11)
O12_21 O 0.19912(11) 0.46830(10) 0.26146(10)
O14_21 O 0.30088(11) 0.46830(10) 0.23854(10)
O17_21 O 0.26146(10) 0.46830(10) 0.30088(11)
O26_21 O 0.16079(10) 0.46711(8) 0.23934(9)
O27_18 O 0.26066(9) 0.53289(8) 0.16079(10)
O29_21 O 0.33921(10) 0.46711(8) 0.26066(9)
O32_21 O 0.23934(9) 0.46711(8) 0.33921(10)
O41_31 O 0.31787(19) 0.5000 0.1579(3)
O42_31 O 0.3421(3) 0.5000 0.31787(19)
O43_31 O 0.18213(19) 0.5000 0.3421(3)
C20_13 C 0.67535(13) 0.54120(10) 0.24171(11)
C21_13 C 0.54120(10) 0.74171(11) 0.17535(13)
C22_13 C 0.74171(11) 0.67535(13) 0.04120(10)
C31_13 C 0.66607(12) 0.56377(10) 0.22354(10)
C32_13 C 0.56377(10) 0.72354(10) 0.16607(12)
C33_13 C 0.72354(10) 0.66607(12) 0.06377(10)
C42_13 C 0.68166(13) 0.57185(10) 0.20118(11)
C43_13 C 0.57185(10) 0.70118(11) 0.18166(13)
C44_13 C 0.70118(11) 0.68166(13) 0.07185(10)
H19_13 H 0.6984 0.5628 0.1971
H20_13 H 0.5628 0.6971 0.1984
H21_13 H 0.6971 0.6984 0.0628
C53_13 C 0.67260(12) 0.59318(10) 0.18476(11)
C54_13 C 0.59318(10) 0.68476(11) 0.17260(12)
C55_13 C 0.68476(11) 0.67260(12) 0.09318(10)
C64_13 C 0.64864(11) 0.60744(10) 0.19078(10)
C65_13 C 0.69078(10) 0.64864(11) 0.10744(10)
C66_13 C 0.60744(10) 0.69078(10) 0.14864(11)
C75_13 C 0.63287(12) 0.59892(11) 0.21309(11)
C76_13 C 0.71309(11) 0.63287(12) 0.09892(11)
C77_13 C 0.59892(11) 0.71309(11) 0.13287(12)
H30_13 H 0.6163 0.6081 0.2174
H31_13 H 0.7174 0.6163 0.1081
H32_13 H 0.6081 0.7174 0.1163
C86_13 C 0.64151(12) 0.57712(11) 0.22888(11)
C87_13 C 0.72888(11) 0.64151(12) 0.07712(11)
C88_13 C 0.57712(11) 0.72888(11) 0.14151(12)
H41_13 H 0.6304 0.5711 0.2437
H42_13 H 0.7437 0.6304 0.0711
H43_13 H 0.5711 0.7437 0.1304
C97_13 C 0.68660(12) 0.60358(12) 0.15929(12)
C98_13 C 0.60358(12) 0.65929(12) 0.18660(12)
C99_13 C 0.65929(12) 0.68660(12) 0.10358(12)
C108_13 C 0.66740(11) 0.62693(10) 0.15100(11)
C109_13 C 0.62693(10) 0.65100(11) 0.16740(11)
C110_13 C 0.65100(11) 0.66740(11) 0.12693(10)
C119_13 C 0.64563(11) 0.62969(11) 0.17006(11)
C120_13 C 0.67006(11) 0.64563(11) 0.12969(11)
C121_13 C 0.62969(11) 0.67006(11) 0.14563(11)
C130_13 C 0.71558(13) 0.61386(13) 0.16678(14)
C131_13 C 0.61386(13) 0.66678(14) 0.21558(13)
C132_13 C 0.66678(14) 0.71558(13) 0.11386(13)
H52_13 H 0.7248 0.6199 0.1498
H53_13 H 0.6199 0.6498 0.2248
H54_13 H 0.6498 0.7248 0.1199
H63_13 H 0.7262 0.5983 0.1743
H64_13 H 0.5983 0.6743 0.2262
H65_13 H 0.6743 0.7262 0.0983
C141_13 C 0.71636(16) 0.63729(19) 0.18743(19)
C142_13 C 0.63729(19) 0.68743(19) 0.21636(16)
C143_13 C 0.68743(19) 0.71636(16) 0.13729(19)
H74_13 H 0.7045 0.6329 0.2030
H75_13 H 0.6329 0.7030 0.2045
H76_13 H 0.7030 0.7045 0.1329
H85_13 H 0.7352 0.6399 0.1939
H86_13 H 0.6399 0.6939 0.2352
H87_13 H 0.6939 0.7352 0.1399
H96_13 H 0.7099 0.6541 0.1787
H97_13 H 0.6541 0.6787 0.2099
H98_13 H 0.6787 0.7099 0.1541
C152_13 C 0.68718(15) 0.58002(12) 0.13812(13)
C153_13 C 0.58002(12) 0.63812(13) 0.18718(15)
C154_13 C 0.63812(13) 0.68718(15) 0.08002(12)
H107_13 H 0.6987 0.5650 0.1454
H108_13 H 0.5650 0.6454 0.1987
H109_13 H 0.6454 0.6987 0.0650
H118_13 H 0.6959 0.5868 0.1211
H119_13 H 0.5868 0.6211 0.1959
H120_13 H 0.6211 0.6959 0.0868
C163_13 C 0.6595(2) 0.5686(2) 0.13114(19)
C164_13 C 0.5686(2) 0.63114(19) 0.1595(2)
C165_13 C 0.63114(19) 0.6595(2) 0.0686(2)
H129_13 H 0.6485 0.5829 0.1223
H130_13 H 0.5829 0.6223 0.1485
H131_13 H 0.6223 0.6485 0.0829
H140_13 H 0.6616 0.5531 0.1187
H141_13 H 0.5531 0.6187 0.1616
H142_13 H 0.6187 0.6616 0.0531
H151_13 H 0.6504 0.5626 0.1479
H152_13 H 0.5626 0.6479 0.1504
H153_13 H 0.6479 0.6504 0.0626
O23_8 O 0.19912(11) 0.23854(10) 0.46830(10)
O38_8 O 0.16079(10) 0.26066(9) 0.46711(8)
C20_14 C 0.04120(10) 0.17535(13) 0.25829(11)
C21_14 C 0.24171(11) 0.04120(10) 0.32465(13)
C22_14 C 0.17535(13) 0.24171(11) 0.45880(10)
C31_14 C 0.06377(10) 0.16607(12) 0.27646(10)
C32_14 C 0.22354(10) 0.06377(10) 0.33393(12)
C33_14 C 0.16607(12) 0.22354(10) 0.43623(10)
C42_14 C 0.07185(10) 0.18166(13) 0.29882(11)
C43_14 C 0.20118(11) 0.07185(10) 0.31834(13)
C44_14 C 0.18166(13) 0.20118(11) 0.42815(10)
H19_14 H 0.0628 0.1984 0.3029
H20_14 H 0.1971 0.0628 0.3016
H21_14 H 0.1984 0.1971 0.4372
C53_14 C 0.09318(10) 0.17260(12) 0.31524(11)
C54_14 C 0.18476(11) 0.09318(10) 0.32740(12)
C55_14 C 0.17260(12) 0.18476(11) 0.40682(10)
C64_14 C 0.10744(10) 0.14864(11) 0.30922(10)
C65_14 C 0.14864(11) 0.19078(10) 0.39256(10)
C66_14 C 0.19078(10) 0.10744(10) 0.35136(11)
C75_14 C 0.09892(11) 0.13287(12) 0.28691(11)
C76_14 C 0.13287(12) 0.21309(11) 0.40108(11)
C77_14 C 0.21309(11) 0.09892(11) 0.36713(12)
H30_14 H 0.1081 0.1163 0.2826
H31_14 H 0.1163 0.2174 0.3919
H32_14 H 0.2174 0.1081 0.3837
C86_14 C 0.07712(11) 0.14151(12) 0.27112(11)
C87_14 C 0.14151(12) 0.22888(11) 0.42288(11)
C88_14 C 0.22888(11) 0.07712(11) 0.35849(12)
H41_14 H 0.0711 0.1304 0.2563
H42_14 H 0.1304 0.2437 0.4289
H43_14 H 0.2437 0.0711 0.3696
C97_14 C 0.10358(12) 0.18660(12) 0.34071(12)
C98_14 C 0.15929(12) 0.10358(12) 0.31340(12)
C99_14 C 0.18660(12) 0.15929(12) 0.39642(12)
C108_14 C 0.12693(10) 0.16740(11) 0.34900(11)
C109_14 C 0.15100(11) 0.12693(10) 0.33260(11)
C110_14 C 0.16740(11) 0.15100(11) 0.37307(10)
C119_14 C 0.12969(11) 0.14563(11) 0.32994(11)
C120_14 C 0.14563(11) 0.17006(11) 0.37031(11)
C121_14 C 0.17006(11) 0.12969(11) 0.35437(11)
C130_14 C 0.11386(13) 0.21558(13) 0.33322(14)
C131_14 C 0.16678(14) 0.11386(13) 0.28442(13)
C132_14 C 0.21558(13) 0.16678(14) 0.38614(13)
H52_14 H 0.1199 0.2248 0.3502
H53_14 H 0.1498 0.1199 0.2752
H54_14 H 0.2248 0.1498 0.3801
H63_14 H 0.0983 0.2262 0.3257
H64_14 H 0.1743 0.0983 0.2738
H65_14 H 0.2262 0.1743 0.4017
C141_14 C 0.13729(19) 0.21636(16) 0.31257(19)
C142_14 C 0.18743(19) 0.13729(19) 0.28364(16)
C143_14 C 0.21636(16) 0.18743(19) 0.36271(19)
H74_14 H 0.1329 0.2045 0.2970
H75_14 H 0.2030 0.1329 0.2955
H76_14 H 0.2045 0.2030 0.3671
H85_14 H 0.1399 0.2352 0.3061
H86_14 H 0.1939 0.1399 0.2648
H87_14 H 0.2352 0.1939 0.3601
H96_14 H 0.1541 0.2099 0.3213
H97_14 H 0.1787 0.1541 0.2901
H98_14 H 0.2099 0.1787 0.3459
C152_14 C 0.08002(12) 0.18718(15) 0.36188(13)
C153_14 C 0.13812(13) 0.08002(12) 0.31282(15)
C154_14 C 0.18718(15) 0.13812(13) 0.41998(12)
H107_14 H 0.0650 0.1987 0.3546
H108_14 H 0.1454 0.0650 0.3013
H109_14 H 0.1987 0.1454 0.4350
H118_14 H 0.0868 0.1959 0.3789
H119_14 H 0.1211 0.0868 0.3041
H120_14 H 0.1959 0.1211 0.4132
C163_14 C 0.0686(2) 0.1595(2) 0.36886(19)
C164_14 C 0.13114(19) 0.0686(2) 0.3405(2)
C165_14 C 0.1595(2) 0.13114(19) 0.4314(2)
H129_14 H 0.0829 0.1485 0.3777
H130_14 H 0.1223 0.0829 0.3515
H131_14 H 0.1485 0.1223 0.4171
H140_14 H 0.0531 0.1616 0.3813
H141_14 H 0.1187 0.0531 0.3384
H142_14 H 0.1616 0.1187 0.4469
H151_14 H 0.0626 0.1504 0.3521
H152_14 H 0.1479 0.0626 0.3496
H153_14 H 0.1504 0.1479 0.4374
O22_9 O 0.23854(10) 0.96830(10) 0.69912(11)
O37_9 O 0.26066(9) 0.96711(8) 0.66079(10)
C20_15 C 0.04120(10) 0.82465(13) 0.74171(11)
C21_15 C 0.24171(11) 0.95880(10) 0.67535(13)
C22_15 C 0.17535(13) 0.75829(11) 0.54120(10)
C31_15 C 0.06377(10) 0.83393(12) 0.72354(10)
C32_15 C 0.22354(10) 0.93623(10) 0.66607(12)
C33_15 C 0.16607(12) 0.77646(10) 0.56377(10)
C42_15 C 0.07185(10) 0.81834(13) 0.70118(11)
C43_15 C 0.20118(11) 0.92815(10) 0.68166(13)
C44_15 C 0.18166(13) 0.79882(11) 0.57185(10)
H19_15 H 0.0628 0.8016 0.6971
H20_15 H 0.1971 0.9372 0.6984
H21_15 H 0.1984 0.8029 0.5628
C53_15 C 0.09318(10) 0.82740(12) 0.68476(11)
C54_15 C 0.18476(11) 0.90682(10) 0.67260(12)
C55_15 C 0.17260(12) 0.81524(11) 0.59318(10)
C64_15 C 0.10744(10) 0.85136(11) 0.69078(10)
C65_15 C 0.14864(11) 0.80922(10) 0.60744(10)
C66_15 C 0.19078(10) 0.89256(10) 0.64864(11)
C75_15 C 0.09892(11) 0.86713(12) 0.71309(11)
C76_15 C 0.13287(12) 0.78691(11) 0.59892(11)
C77_15 C 0.21309(11) 0.90108(11) 0.63287(12)
H30_15 H 0.1081 0.8837 0.7174
H31_15 H 0.1163 0.7826 0.6081
H32_15 H 0.2174 0.8919 0.6163
C86_15 C 0.07712(11) 0.85849(12) 0.72888(11)
C87_15 C 0.14151(12) 0.77112(11) 0.57712(11)
C88_15 C 0.22888(11) 0.92288(11) 0.64151(12)
H41_15 H 0.0711 0.8696 0.7437
H42_15 H 0.1304 0.7563 0.5711
H43_15 H 0.2437 0.9289 0.6304
C97_15 C 0.10358(12) 0.81340(12) 0.65929(12)
C98_15 C 0.15929(12) 0.89642(12) 0.68660(12)
C99_15 C 0.18660(12) 0.84071(12) 0.60358(12)
C108_15 C 0.12693(10) 0.83260(11) 0.65100(11)
C109_15 C 0.15100(11) 0.87307(10) 0.66740(11)
C110_15 C 0.16740(11) 0.84900(11) 0.62693(10)
C119_15 C 0.12969(11) 0.85437(11) 0.67006(11)
C120_15 C 0.14563(11) 0.82994(11) 0.62969(11)
C121_15 C 0.17006(11) 0.87031(11) 0.64563(11)
C130_15 C 0.11386(13) 0.78442(13) 0.66678(14)
C131_15 C 0.16678(14) 0.88614(13) 0.71558(13)
C132_15 C 0.21558(13) 0.83322(14) 0.61386(13)
H52_15 H 0.1199 0.7752 0.6498
H53_15 H 0.1498 0.8801 0.7248
H54_15 H 0.2248 0.8502 0.6199
H63_15 H 0.0983 0.7738 0.6743
H64_15 H 0.1743 0.9017 0.7262
H65_15 H 0.2262 0.8257 0.5983
C141_15 C 0.13729(19) 0.78364(16) 0.68743(19)
C142_15 C 0.18743(19) 0.86271(19) 0.71636(16)
C143_15 C 0.21636(16) 0.81257(19) 0.63729(19)
H74_15 H 0.1329 0.7955 0.7030
H75_15 H 0.2030 0.8671 0.7045
H76_15 H 0.2045 0.7970 0.6329
H85_15 H 0.1399 0.7648 0.6939
H86_15 H 0.1939 0.8601 0.7352
H87_15 H 0.2352 0.8061 0.6399
H96_15 H 0.1541 0.7901 0.6787
H97_15 H 0.1787 0.8459 0.7099
H98_15 H 0.2099 0.8213 0.6541
C152_15 C 0.08002(12) 0.81282(15) 0.63812(13)
C153_15 C 0.13812(13) 0.91998(12) 0.68718(15)
C154_15 C 0.18718(15) 0.86188(13) 0.58002(12)
H107_15 H 0.0650 0.8013 0.6454
H108_15 H 0.1454 0.9350 0.6987
H109_15 H 0.1987 0.8546 0.5650
H118_15 H 0.0868 0.8041 0.6211
H119_15 H 0.1211 0.9132 0.6959
H120_15 H 0.1959 0.8789 0.5868
C163_15 C 0.0686(2) 0.8405(2) 0.63114(19)
C164_15 C 0.13114(19) 0.9314(2) 0.6595(2)
C165_15 C 0.1595(2) 0.86886(19) 0.5686(2)
H129_15 H 0.0829 0.8515 0.6223
H130_15 H 0.1223 0.9171 0.6485
H131_15 H 0.1485 0.8777 0.5829
H140_15 H 0.0531 0.8384 0.6187
H141_15 H 0.1187 0.9469 0.6616
H142_15 H 0.1616 0.8813 0.5531
H151_15 H 0.0626 0.8496 0.6479
H152_15 H 0.1479 0.9374 0.6504
H153_15 H 0.1504 0.8521 0.5626
O9_32 O -0.0000 0.2500 0.7500
O10_32 O 0.0000 0.18213(19) 0.6579(3)
O11_19 O 0.03170(10) 0.19912(11) 0.73854(10)
O27_19 O 0.03289(8) 0.16079(10) 0.76066(9)
O41_32 O 0.0000 0.1579(3) 0.81787(19)
O42_32 O 0.0000 0.31787(19) 0.8421(3)
O43_32 O -0.0000 0.3421(3) 0.68213(19)
O9_33 O 1.0000 0.2500 0.7500
O10_33 O 1.0000 0.18213(19) 0.6579(3)
O12_22 O 0.96830(10) 0.26146(10) 0.69912(11)
O13_7 O 0.96830(10) 0.19912(11) 0.73854(10)
O14_22 O 0.96830(10) 0.23854(10) 0.80088(11)
O17_22 O 0.96830(10) 0.30088(11) 0.76146(10)
O26_22 O 0.96711(8) 0.23934(9) 0.66079(10)
O28_7 O 0.96711(8) 0.16079(10) 0.76066(9)
O29_22 O 0.96711(8) 0.26066(9) 0.83921(10)
O32_22 O 0.96711(8) 0.33921(10) 0.73934(9)
O41_33 O 1.0000 0.1579(3) 0.81787(19)
O42_33 O 1.0000 0.31787(19) 0.8421(3)
O43_33 O 1.0000 0.3421(3) 0.68213(19)
C20_16 C 0.95880(10) 0.17535(13) 0.74171(11)
C21_16 C 0.75829(11) 0.04120(10) 0.67535(13)
C22_16 C 0.82465(13) 0.24171(11) 0.54120(10)
C31_16 C 0.93623(10) 0.16607(12) 0.72354(10)
C32_16 C 0.77646(10) 0.06377(10) 0.66607(12)
C33_16 C 0.83393(12) 0.22354(10) 0.56377(10)
C42_16 C 0.92815(10) 0.18166(13) 0.70118(11)
C43_16 C 0.79882(11) 0.07185(10) 0.68166(13)
C44_16 C 0.81834(13) 0.20118(11) 0.57185(10)
H19_16 H 0.9372 0.1984 0.6971
H20_16 H 0.8029 0.0628 0.6984
H21_16 H 0.8016 0.1971 0.5628
C53_16 C 0.90682(10) 0.17260(12) 0.68476(11)
C54_16 C 0.81524(11) 0.09318(10) 0.67260(12)
C55_16 C 0.82740(12) 0.18476(11) 0.59318(10)
C64_16 C 0.89256(10) 0.14864(11) 0.69078(10)
C65_16 C 0.85136(11) 0.19078(10) 0.60744(10)
C66_16 C 0.80922(10) 0.10744(10) 0.64864(11)
C75_16 C 0.90108(11) 0.13287(12) 0.71309(11)
C76_16 C 0.86713(12) 0.21309(11) 0.59892(11)
C77_16 C 0.78691(11) 0.09892(11) 0.63287(12)
H30_16 H 0.8919 0.1163 0.7174
H31_16 H 0.8837 0.2174 0.6081
H32_16 H 0.7826 0.1081 0.6163
C86_16 C 0.92288(11) 0.14151(12) 0.72888(11)
C87_16 C 0.85849(12) 0.22888(11) 0.57712(11)
C88_16 C 0.77112(11) 0.07712(11) 0.64151(12)
H41_16 H 0.9289 0.1304 0.7437
H42_16 H 0.8696 0.2437 0.5711
H43_16 H 0.7563 0.0711 0.6304
C97_16 C 0.89642(12) 0.18660(12) 0.65929(12)
C98_16 C 0.84071(12) 0.10358(12) 0.68660(12)
C99_16 C 0.81340(12) 0.15929(12) 0.60358(12)
C108_16 C 0.87307(10) 0.16740(11) 0.65100(11)
C109_16 C 0.84900(11) 0.12693(10) 0.66740(11)
C110_16 C 0.83260(11) 0.15100(11) 0.62693(10)
C119_16 C 0.87031(11) 0.14563(11) 0.67006(11)
C120_16 C 0.85437(11) 0.17006(11) 0.62969(11)
C121_16 C 0.82994(11) 0.12969(11) 0.64563(11)
C130_16 C 0.88614(13) 0.21558(13) 0.66678(14)
C131_16 C 0.83322(14) 0.11386(13) 0.71558(13)
C132_16 C 0.78442(13) 0.16678(14) 0.61386(13)
H52_16 H 0.8801 0.2248 0.6498
H53_16 H 0.8502 0.1199 0.7248
H54_16 H 0.7752 0.1498 0.6199
H63_16 H 0.9017 0.2262 0.6743
H64_16 H 0.8257 0.0983 0.7262
H65_16 H 0.7738 0.1743 0.5983
C141_16 C 0.86271(19) 0.21636(16) 0.68743(19)
C142_16 C 0.81257(19) 0.13729(19) 0.71636(16)
C143_16 C 0.78364(16) 0.18743(19) 0.63729(19)
H74_16 H 0.8671 0.2045 0.7030
H75_16 H 0.7970 0.1329 0.7045
H76_16 H 0.7955 0.2030 0.6329
H85_16 H 0.8601 0.2352 0.6939
H86_16 H 0.8061 0.1399 0.7352
H87_16 H 0.7648 0.1939 0.6399
H96_16 H 0.8459 0.2099 0.6787
H97_16 H 0.8213 0.1541 0.7099
H98_16 H 0.7901 0.1787 0.6541
C152_16 C 0.91998(12) 0.18718(15) 0.63812(13)
C153_16 C 0.86188(13) 0.08002(12) 0.68718(15)
C154_16 C 0.81282(15) 0.13812(13) 0.58002(12)
H107_16 H 0.9350 0.1987 0.6454
H108_16 H 0.8546 0.0650 0.6987
H109_16 H 0.8013 0.1454 0.5650
H118_16 H 0.9132 0.1959 0.6211
H119_16 H 0.8789 0.0868 0.6959
H120_16 H 0.8041 0.1211 0.5868
C163_16 C 0.9314(2) 0.1595(2) 0.63114(19)
C164_16 C 0.86886(19) 0.0686(2) 0.6595(2)
C165_16 C 0.8405(2) 0.13114(19) 0.5686(2)
H129_16 H 0.9171 0.1485 0.6223
H130_16 H 0.8777 0.0829 0.6485
H131_16 H 0.8515 0.1223 0.5829
H140_16 H 0.9469 0.1616 0.6187
H141_16 H 0.8813 0.0531 0.6616
H142_16 H 0.8384 0.1187 0.5531
H151_16 H 0.9374 0.1504 0.6479
H152_16 H 0.8521 0.0626 0.6504
H153_16 H 0.8496 0.1479 0.5626
O9_34 O 0.2500 0.2500 0.5000
O10_34 O 0.18213(19) 0.1579(3) 0.5000
O11_20 O 0.19912(11) 0.23854(10) 0.53170(10)
O12_23 O 0.26146(10) 0.19912(11) 0.46830(10)
O14_23 O 0.23854(10) 0.30088(11) 0.46830(10)
O17_23 O 0.30088(11) 0.26146(10) 0.46830(10)
O26_23 O 0.23934(9) 0.16079(10) 0.46711(8)
O27_20 O 0.16079(10) 0.26066(9) 0.53289(8)
O29_23 O 0.26066(9) 0.33921(10) 0.46711(8)
O32_23 O 0.33921(10) 0.23934(9) 0.46711(8)
O41_34 O 0.1579(3) 0.31787(19) 0.5000
O42_34 O 0.31787(19) 0.3421(3) 0.5000
O43_34 O 0.3421(3) 0.18213(19) 0.5000
O9_35 O 0.2500 -0.0000 0.7500
O10_35 O 0.1579(3) 0.0000 0.68213(19)
O11_21 O 0.23854(10) 0.03170(10) 0.69912(11)
O27_21 O 0.26066(9) 0.03289(8) 0.66079(10)
O41_35 O 0.31787(19) 0.0000 0.6579(3)
O42_35 O 0.3421(3) 0.0000 0.81787(19)
O43_35 O 0.18213(19) 0.0000 0.8421(3)
O9_36 O 0.2500 1.0000 0.7500
O10_36 O 0.1579(3) 1.0000 0.68213(19)
O12_24 O 0.19912(11) 0.96830(10) 0.76146(10)
O14_24 O 0.30088(11) 0.96830(10) 0.73854(10)
O17_24 O 0.26146(10) 0.96830(10) 0.80088(11)
O26_24 O 0.16079(10) 0.96711(8) 0.73934(9)
O29_24 O 0.33921(10) 0.96711(8) 0.76066(9)
O32_24 O 0.23934(9) 0.96711(8) 0.83921(10)
O41_36 O 0.31787(19) 1.0000 0.6579(3)
O42_36 O 0.3421(3) 1.0000 0.81787(19)
O43_36 O 0.18213(19) 1.0000 0.8421(3)
C1_12 C 0.74171(11) 0.04120(10) 0.17535(13)
C2_12 C 0.72354(10) 0.06377(10) 0.16607(12)
C3_12 C 0.70118(11) 0.07185(10) 0.18166(13)
H1_12 H 0.6971 0.0628 0.1984
C4_12 C 0.68476(11) 0.09318(10) 0.17260(12)
C5_12 C 0.69078(10) 0.10744(10) 0.14864(11)
C6_12 C 0.71309(11) 0.09892(11) 0.13287(12)
H2_12 H 0.7174 0.1081 0.1163
C7_12 C 0.72888(11) 0.07712(11) 0.14151(12)
H3_12 H 0.7437 0.0711 0.1304
C8_12 C 0.65929(12) 0.10358(12) 0.18660(12)
C9_12 C 0.65100(11) 0.12693(10) 0.16740(11)
C10_12 C 0.67006(11) 0.12969(11) 0.14563(11)
C11_12 C 0.66678(14) 0.11386(13) 0.21558(13)
H4_12 H 0.6498 0.1199 0.2248
H5_12 H 0.6743 0.0983 0.2262
C12_12 C 0.68743(19) 0.13729(19) 0.21636(16)
H6_12 H 0.7030 0.1329 0.2045
H7_12 H 0.6939 0.1399 0.2352
H8_12 H 0.6787 0.1541 0.2099
C13_12 C 0.63812(13) 0.08002(12) 0.18718(15)
H9_12 H 0.6454 0.0650 0.1987
H10_12 H 0.6211 0.0868 0.1959
C14_12 C 0.63114(19) 0.0686(2) 0.1595(2)
H11_12 H 0.6223 0.0829 0.1485
H12_12 H 0.6187 0.0531 0.1616
H13_12 H 0.6479 0.0626 0.1504
C15_12 C 0.54120(10) 0.17535(13) 0.24171(11)
C16_12 C 0.67535(13) 0.24171(11) 0.04120(10)
C26_12 C 0.56377(10) 0.16607(12) 0.22354(10)
C27_12 C 0.66607(12) 0.22354(10) 0.06377(10)
C37_12 C 0.57185(10) 0.18166(13) 0.20118(11)
C38_12 C 0.68166(13) 0.20118(11) 0.07185(10)
H14_12 H 0.5628 0.1984 0.1971
H15_12 H 0.6984 0.1971 0.0628
C48_12 C 0.59318(10) 0.17260(12) 0.18476(11)
C49_12 C 0.67260(12) 0.18476(11) 0.09318(10)
C59_12 C 0.60744(10) 0.14864(11) 0.19078(10)
C60_12 C 0.64864(11) 0.19078(10) 0.10744(10)
C70_12 C 0.59892(11) 0.13287(12) 0.21309(11)
C71_12 C 0.63287(12) 0.21309(11) 0.09892(11)
H25_12 H 0.6081 0.1163 0.2174
H26_12 H 0.6163 0.2174 0.1081
C81_12 C 0.57712(11) 0.14151(12) 0.22888(11)
C82_12 C 0.64151(12) 0.22888(11) 0.07712(11)
H36_12 H 0.5711 0.1304 0.2437
H37_12 H 0.6304 0.2437 0.0711
C92_12 C 0.68660(12) 0.15929(12) 0.10358(12)
C93_12 C 0.60358(12) 0.18660(12) 0.15929(12)
C103_12 C 0.66740(11) 0.15100(11) 0.12693(10)
C104_12 C 0.62693(10) 0.16740(11) 0.15100(11)
C114_12 C 0.62969(11) 0.14563(11) 0.17006(11)
C115_12 C 0.64563(11) 0.17006(11) 0.12969(11)
C125_12 C 0.71558(13) 0.16678(14) 0.11386(13)
C126_12 C 0.61386(13) 0.21558(13) 0.16678(14)
H47_12 H 0.7248 0.1498 0.1199
H48_12 H 0.6199 0.2248 0.1498
H58_12 H 0.7262 0.1743 0.0983
H59_12 H 0.5983 0.2262 0.1743
C136_12 C 0.71636(16) 0.18743(19) 0.13729(19)
C137_12 C 0.63729(19) 0.21636(16) 0.18743(19)
H69_12 H 0.7045 0.2030 0.1329
H70_12 H 0.6329 0.2045 0.2030
H80_12 H 0.7352 0.1939 0.1399
H81_12 H 0.6399 0.2352 0.1939
H91_12 H 0.7099 0.1787 0.1541
H92_12 H 0.6541 0.2099 0.1787
C147_12 C 0.68718(15) 0.13812(13) 0.08002(12)
C148_12 C 0.58002(12) 0.18718(15) 0.13812(13)
H102_12 H 0.6987 0.1454 0.0650
H103_12 H 0.5650 0.1987 0.1454
H113_12 H 0.6959 0.1211 0.0868
H114_12 H 0.5868 0.1959 0.1211
C158_12 C 0.6595(2) 0.13114(19) 0.0686(2)
C159_12 C 0.5686(2) 0.1595(2) 0.13114(19)
H124_12 H 0.6485 0.1223 0.0829
H125_12 H 0.5829 0.1485 0.1223
H135_12 H 0.6616 0.1187 0.0531
H136_12 H 0.5531 0.1616 0.1187
H146_12 H 0.6504 0.1479 0.0626
H147_12 H 0.5626 0.1504 0.1479
C20_17 C 0.82465(13) 0.95880(10) 0.24171(11)
C21_17 C 0.95880(10) 0.75829(11) 0.17535(13)
C22_17 C 0.75829(11) 0.82465(13) 0.04120(10)
C31_17 C 0.83393(12) 0.93623(10) 0.22354(10)
C32_17 C 0.93623(10) 0.77646(10) 0.16607(12)
C33_17 C 0.77646(10) 0.83393(12) 0.06377(10)
C42_17 C 0.81834(13) 0.92815(10) 0.20118(11)
C43_17 C 0.92815(10) 0.79882(11) 0.18166(13)
C44_17 C 0.79882(11) 0.81834(13) 0.07185(10)
H19_17 H 0.8016 0.9372 0.1971
H20_17 H 0.9372 0.8029 0.1984
H21_17 H 0.8029 0.8016 0.0628
C53_17 C 0.82740(12) 0.90682(10) 0.18476(11)
C54_17 C 0.90682(10) 0.81524(11) 0.17260(12)
C55_17 C 0.81524(11) 0.82740(12) 0.09318(10)
C64_17 C 0.85136(11) 0.89256(10) 0.19078(10)
C65_17 C 0.80922(10) 0.85136(11) 0.10744(10)
C66_17 C 0.89256(10) 0.80922(10) 0.14864(11)
C75_17 C 0.86713(12) 0.90108(11) 0.21309(11)
C76_17 C 0.78691(11) 0.86713(12) 0.09892(11)
C77_17 C 0.90108(11) 0.78691(11) 0.13287(12)
H30_17 H 0.8837 0.8919 0.2174
H31_17 H 0.7826 0.8837 0.1081
H32_17 H 0.8919 0.7826 0.1163
C86_17 C 0.85849(12) 0.92288(11) 0.22888(11)
C87_17 C 0.77112(11) 0.85849(12) 0.07712(11)
C88_17 C 0.92288(11) 0.77112(11) 0.14151(12)
H41_17 H 0.8696 0.9289 0.2437
H42_17 H 0.7563 0.8696 0.0711
H43_17 H 0.9289 0.7563 0.1304
C97_17 C 0.81340(12) 0.89642(12) 0.15929(12)
C98_17 C 0.89642(12) 0.84071(12) 0.18660(12)
C99_17 C 0.84071(12) 0.81340(12) 0.10358(12)
C108_17 C 0.83260(11) 0.87307(10) 0.15100(11)
C109_17 C 0.87307(10) 0.84900(11) 0.16740(11)
C110_17 C 0.84900(11) 0.83260(11) 0.12693(10)
C119_17 C 0.85437(11) 0.87031(11) 0.17006(11)
C120_17 C 0.82994(11) 0.85437(11) 0.12969(11)
C121_17 C 0.87031(11) 0.82994(11) 0.14563(11)
C130_17 C 0.78442(13) 0.88614(13) 0.16678(14)
C131_17 C 0.88614(13) 0.83322(14) 0.21558(13)
C132_17 C 0.83322(14) 0.78442(13) 0.11386(13)
H52_17 H 0.7752 0.8801 0.1498
H53_17 H 0.8801 0.8502 0.2248
H54_17 H 0.8502 0.7752 0.1199
H63_17 H 0.7738 0.9017 0.1743
H64_17 H 0.9017 0.8257 0.2262
H65_17 H 0.8257 0.7738 0.0983
C141_17 C 0.78364(16) 0.86271(19) 0.18743(19)
C142_17 C 0.86271(19) 0.81257(19) 0.21636(16)
C143_17 C 0.81257(19) 0.78364(16) 0.13729(19)
H74_17 H 0.7955 0.8671 0.2030
H75_17 H 0.8671 0.7970 0.2045
H76_17 H 0.7970 0.7955 0.1329
H85_17 H 0.7648 0.8601 0.1939
H86_17 H 0.8601 0.8061 0.2352
H87_17 H 0.8061 0.7648 0.1399
H96_17 H 0.7901 0.8459 0.1787
H97_17 H 0.8459 0.8213 0.2099
H98_17 H 0.8213 0.7901 0.1541
C152_17 C 0.81282(15) 0.91998(12) 0.13812(13)
C153_17 C 0.91998(12) 0.86188(13) 0.18718(15)
C154_17 C 0.86188(13) 0.81282(15) 0.08002(12)
H107_17 H 0.8013 0.9350 0.1454
H108_17 H 0.9350 0.8546 0.1987
H109_17 H 0.8546 0.8013 0.0650
H118_17 H 0.8041 0.9132 0.1211
H119_17 H 0.9132 0.8789 0.1959
H120_17 H 0.8789 0.8041 0.0868
C163_17 C 0.8405(2) 0.9314(2) 0.13114(19)
C164_17 C 0.9314(2) 0.86886(19) 0.1595(2)
C165_17 C 0.86886(19) 0.8405(2) 0.0686(2)
H129_17 H 0.8515 0.9171 0.1223
H130_17 H 0.9171 0.8777 0.1485
H131_17 H 0.8777 0.8515 0.0829
H140_17 H 0.8384 0.9469 0.1187
H141_17 H 0.9469 0.8813 0.1616
H142_17 H 0.8813 0.8384 0.0531
H151_17 H 0.8496 0.9374 0.1479
H152_17 H 0.9374 0.8521 0.1504
H153_17 H 0.8521 0.8496 0.0626
C20_18 C 0.82465(13) 0.04120(10) 0.75829(11)
C21_18 C 0.95880(10) 0.24171(11) 0.82465(13)
C22_18 C 0.75829(11) 0.17535(13) 0.95880(10)
C31_18 C 0.83393(12) 0.06377(10) 0.77646(10)
C32_18 C 0.93623(10) 0.22354(10) 0.83393(12)
C33_18 C 0.77646(10) 0.16607(12) 0.93623(10)
C42_18 C 0.81834(13) 0.07185(10) 0.79882(11)
C43_18 C 0.92815(10) 0.20118(11) 0.81834(13)
C44_18 C 0.79882(11) 0.18166(13) 0.92815(10)
H19_18 H 0.8016 0.0628 0.8029
H20_18 H 0.9372 0.1971 0.8016
H21_18 H 0.8029 0.1984 0.9372
C53_18 C 0.82740(12) 0.09318(10) 0.81524(11)
C54_18 C 0.90682(10) 0.18476(11) 0.82740(12)
C55_18 C 0.81524(11) 0.17260(12) 0.90682(10)
C64_18 C 0.85136(11) 0.10744(10) 0.80922(10)
C65_18 C 0.80922(10) 0.14864(11) 0.89256(10)
C66_18 C 0.89256(10) 0.19078(10) 0.85136(11)
C75_18 C 0.86713(12) 0.09892(11) 0.78691(11)
C76_18 C 0.78691(11) 0.13287(12) 0.90108(11)
C77_18 C 0.90108(11) 0.21309(11) 0.86713(12)
H30_18 H 0.8837 0.1081 0.7826
H31_18 H 0.7826 0.1163 0.8919
H32_18 H 0.8919 0.2174 0.8837
C86_18 C 0.85849(12) 0.07712(11) 0.77112(11)
C87_18 C 0.77112(11) 0.14151(12) 0.92288(11)
C88_18 C 0.92288(11) 0.22888(11) 0.85849(12)
H41_18 H 0.8696 0.0711 0.7563
H42_18 H 0.7563 0.1304 0.9289
H43_18 H 0.9289 0.2437 0.8696
C97_18 C 0.81340(12) 0.10358(12) 0.84071(12)
C98_18 C 0.89642(12) 0.15929(12) 0.81340(12)
C99_18 C 0.84071(12) 0.18660(12) 0.89642(12)
C108_18 C 0.83260(11) 0.12693(10) 0.84900(11)
C109_18 C 0.87307(10) 0.15100(11) 0.83260(11)
C110_18 C 0.84900(11) 0.16740(11) 0.87307(10)
C119_18 C 0.85437(11) 0.12969(11) 0.82994(11)
C120_18 C 0.82994(11) 0.14563(11) 0.87031(11)
C121_18 C 0.87031(11) 0.17006(11) 0.85437(11)
C130_18 C 0.78442(13) 0.11386(13) 0.83322(14)
C131_18 C 0.88614(13) 0.16678(14) 0.78442(13)
C132_18 C 0.83322(14) 0.21558(13) 0.88614(13)
H52_18 H 0.7752 0.1199 0.8502
H53_18 H 0.8801 0.1498 0.7752
H54_18 H 0.8502 0.2248 0.8801
H63_18 H 0.7738 0.0983 0.8257
H64_18 H 0.9017 0.1743 0.7738
H65_18 H 0.8257 0.2262 0.9017
C141_18 C 0.78364(16) 0.13729(19) 0.81257(19)
C142_18 C 0.86271(19) 0.18743(19) 0.78364(16)
C143_18 C 0.81257(19) 0.21636(16) 0.86271(19)
H74_18 H 0.7955 0.1329 0.7970
H75_18 H 0.8671 0.2030 0.7955
H76_18 H 0.7970 0.2045 0.8671
H85_18 H 0.7648 0.1399 0.8061
H86_18 H 0.8601 0.1939 0.7648
H87_18 H 0.8061 0.2352 0.8601
H96_18 H 0.7901 0.1541 0.8213
H97_18 H 0.8459 0.1787 0.7901
H98_18 H 0.8213 0.2099 0.8459
C152_18 C 0.81282(15) 0.08002(12) 0.86188(13)
C153_18 C 0.91998(12) 0.13812(13) 0.81282(15)
C154_18 C 0.86188(13) 0.18718(15) 0.91998(12)
H107_18 H 0.8013 0.0650 0.8546
H108_18 H 0.9350 0.1454 0.8013
H109_18 H 0.8546 0.1987 0.9350
H118_18 H 0.8041 0.0868 0.8789
H119_18 H 0.9132 0.1211 0.8041
H120_18 H 0.8789 0.1959 0.9132
C163_18 C 0.8405(2) 0.0686(2) 0.86886(19)
C164_18 C 0.9314(2) 0.13114(19) 0.8405(2)
C165_18 C 0.86886(19) 0.1595(2) 0.9314(2)
H129_18 H 0.8515 0.0829 0.8777
H130_18 H 0.9171 0.1223 0.8515
H131_18 H 0.8777 0.1485 0.9171
H140_18 H 0.8384 0.0531 0.8813
H141_18 H 0.9469 0.1187 0.8384
H142_18 H 0.8813 0.1616 0.9469
H151_18 H 0.8496 0.0626 0.8521
H152_18 H 0.9374 0.1479 0.8496
H153_18 H 0.8521 0.1504 0.9374
C23_10 C 0.24171(11) 0.04120(10) 0.67535(13)
C24_10 C 0.17535(13) 0.24171(11) 0.54120(10)
C25_10 C 0.04120(10) 0.17535(13) 0.74171(11)
C34_10 C 0.22354(10) 0.06377(10) 0.66607(12)
C35_10 C 0.16607(12) 0.22354(10) 0.56377(10)
C36_10 C 0.06377(10) 0.16607(12) 0.72354(10)
C45_10 C 0.20118(11) 0.07185(10) 0.68166(13)
C46_10 C 0.18166(13) 0.20118(11) 0.57185(10)
C47_10 C 0.07185(10) 0.18166(13) 0.70118(11)
H22_10 H 0.1971 0.0628 0.6984
H23_10 H 0.1984 0.1971 0.5628
H24_10 H 0.0628 0.1984 0.6971
C56_10 C 0.18476(11) 0.09318(10) 0.67260(12)
C57_10 C 0.17260(12) 0.18476(11) 0.59318(10)
C58_10 C 0.09318(10) 0.17260(12) 0.68476(11)
C67_10 C 0.19078(10) 0.10744(10) 0.64864(11)
C68_10 C 0.10744(10) 0.14864(11) 0.69078(10)
C69_10 C 0.14864(11) 0.19078(10) 0.60744(10)
C78_10 C 0.21309(11) 0.09892(11) 0.63287(12)
C79_10 C 0.09892(11) 0.13287(12) 0.71309(11)
C80_10 C 0.13287(12) 0.21309(11) 0.59892(11)
H33_10 H 0.2174 0.1081 0.6163
H34_10 H 0.1081 0.1163 0.7174
H35_10 H 0.1163 0.2174 0.6081
C89_10 C 0.22888(11) 0.07712(11) 0.64151(12)
C90_10 C 0.07712(11) 0.14151(12) 0.72888(11)
C91_10 C 0.14151(12) 0.22888(11) 0.57712(11)
H44_10 H 0.2437 0.0711 0.6304
H45_10 H 0.0711 0.1304 0.7437
H46_10 H 0.1304 0.2437 0.5711
C100_10 C 0.15929(12) 0.10358(12) 0.68660(12)
C101_10 C 0.18660(12) 0.15929(12) 0.60358(12)
C102_10 C 0.10358(12) 0.18660(12) 0.65929(12)
C111_10 C 0.15100(11) 0.12693(10) 0.66740(11)
C112_10 C 0.16740(11) 0.15100(11) 0.62693(10)
C113_10 C 0.12693(10) 0.16740(11) 0.65100(11)
C122_10 C 0.17006(11) 0.12969(11) 0.64563(11)
C123_10 C 0.12969(11) 0.14563(11) 0.67006(11)
C124_10 C 0.14563(11) 0.17006(11) 0.62969(11)
C133_10 C 0.16678(14) 0.11386(13) 0.71558(13)
C134_10 C 0.21558(13) 0.16678(14) 0.61386(13)
C135_10 C 0.11386(13) 0.21558(13) 0.66678(14)
H55_10 H 0.1498 0.1199 0.7248
H56_10 H 0.2248 0.1498 0.6199
H57_10 H 0.1199 0.2248 0.6498
H66_10 H 0.1743 0.0983 0.7262
H67_10 H 0.2262 0.1743 0.5983
H68_10 H 0.0983 0.2262 0.6743
C144_10 C 0.18743(19) 0.13729(19) 0.71636(16)
C145_10 C 0.21636(16) 0.18743(19) 0.63729(19)
C146_10 C 0.13729(19) 0.21636(16) 0.68743(19)
H77_10 H 0.2030 0.1329 0.7045
H78_10 H 0.2045 0.2030 0.6329
H79_10 H 0.1329 0.2045 0.7030
H88_10 H 0.1939 0.1399 0.7352
H89_10 H 0.2352 0.1939 0.6399
H90_10 H 0.1399 0.2352 0.6939
H99_10 H 0.1787 0.1541 0.7099
H100_10 H 0.2099 0.1787 0.6541
H101_10 H 0.1541 0.2099 0.6787
C155_10 C 0.13812(13) 0.08002(12) 0.68718(15)
C156_10 C 0.18718(15) 0.13812(13) 0.58002(12)
C157_10 C 0.08002(12) 0.18718(15) 0.63812(13)
H110_10 H 0.1454 0.0650 0.6987
H111_10 H 0.1987 0.1454 0.5650
H112_10 H 0.0650 0.1987 0.6454
H121_10 H 0.1211 0.0868 0.6959
H122_10 H 0.1959 0.1211 0.5868
H123_10 H 0.0868 0.1959 0.6211
C166_10 C 0.13114(19) 0.0686(2) 0.6595(2)
C167_10 C 0.1595(2) 0.13114(19) 0.5686(2)
C168_10 C 0.0686(2) 0.1595(2) 0.63114(19)
H132_10 H 0.1223 0.0829 0.6485
H133_10 H 0.1485 0.1223 0.5829
H134_10 H 0.0829 0.1485 0.6223
H143_10 H 0.1187 0.0531 0.6616
H144_10 H 0.1616 0.1187 0.5531
H145_10 H 0.0531 0.1616 0.6187
H154_10 H 0.1479 0.0626 0.6504
H155_10 H 0.1504 0.1479 0.5626
H156_10 H 0.0626 0.1504 0.6479
C20_19 C 0.17535(13) 0.95880(10) 0.75829(11)
C21_19 C 0.04120(10) 0.75829(11) 0.82465(13)
C22_19 C 0.24171(11) 0.82465(13) 0.95880(10)
C31_19 C 0.16607(12) 0.93623(10) 0.77646(10)
C32_19 C 0.06377(10) 0.77646(10) 0.83393(12)
C33_19 C 0.22354(10) 0.83393(12) 0.93623(10)
C42_19 C 0.18166(13) 0.92815(10) 0.79882(11)
C43_19 C 0.07185(10) 0.79882(11) 0.81834(13)
C44_19 C 0.20118(11) 0.81834(13) 0.92815(10)
H19_19 H 0.1984 0.9372 0.8029
H20_19 H 0.0628 0.8029 0.8016
H21_19 H 0.1971 0.8016 0.9372
C53_19 C 0.17260(12) 0.90682(10) 0.81524(11)
C54_19 C 0.09318(10) 0.81524(11) 0.82740(12)
C55_19 C 0.18476(11) 0.82740(12) 0.90682(10)
C64_19 C 0.14864(11) 0.89256(10) 0.80922(10)
C65_19 C 0.19078(10) 0.85136(11) 0.89256(10)
C66_19 C 0.10744(10) 0.80922(10) 0.85136(11)
C75_19 C 0.13287(12) 0.90108(11) 0.78691(11)
C76_19 C 0.21309(11) 0.86713(12) 0.90108(11)
C77_19 C 0.09892(11) 0.78691(11) 0.86713(12)
H30_19 H 0.1163 0.8919 0.7826
H31_19 H 0.2174 0.8837 0.8919
H32_19 H 0.1081 0.7826 0.8837
C86_19 C 0.14151(12) 0.92288(11) 0.77112(11)
C87_19 C 0.22888(11) 0.85849(12) 0.92288(11)
C88_19 C 0.07712(11) 0.77112(11) 0.85849(12)
H41_19 H 0.1304 0.9289 0.7563
H42_19 H 0.2437 0.8696 0.9289
H43_19 H 0.0711 0.7563 0.8696
C97_19 C 0.18660(12) 0.89642(12) 0.84071(12)
C98_19 C 0.10358(12) 0.84071(12) 0.81340(12)
C99_19 C 0.15929(12) 0.81340(12) 0.89642(12)
C108_19 C 0.16740(11) 0.87307(10) 0.84900(11)
C109_19 C 0.12693(10) 0.84900(11) 0.83260(11)
C110_19 C 0.15100(11) 0.83260(11) 0.87307(10)
C119_19 C 0.14563(11) 0.87031(11) 0.82994(11)
C120_19 C 0.17006(11) 0.85437(11) 0.87031(11)
C121_19 C 0.12969(11) 0.82994(11) 0.85437(11)
C130_19 C 0.21558(13) 0.88614(13) 0.83322(14)
C131_19 C 0.11386(13) 0.83322(14) 0.78442(13)
C132_19 C 0.16678(14) 0.78442(13) 0.88614(13)
H52_19 H 0.2248 0.8801 0.8502
H53_19 H 0.1199 0.8502 0.7752
H54_19 H 0.1498 0.7752 0.8801
H63_19 H 0.2262 0.9017 0.8257
H64_19 H 0.0983 0.8257 0.7738
H65_19 H 0.1743 0.7738 0.9017
C141_19 C 0.21636(16) 0.86271(19) 0.81257(19)
C142_19 C 0.13729(19) 0.81257(19) 0.78364(16)
C143_19 C 0.18743(19) 0.78364(16) 0.86271(19)
H74_19 H 0.2045 0.8671 0.7970
H75_19 H 0.1329 0.7970 0.7955
H76_19 H 0.2030 0.7955 0.8671
H85_19 H 0.2352 0.8601 0.8061
H86_19 H 0.1399 0.8061 0.7648
H87_19 H 0.1939 0.7648 0.8601
H96_19 H 0.2099 0.8459 0.8213
H97_19 H 0.1541 0.8213 0.7901
H98_19 H 0.1787 0.7901 0.8459
C152_19 C 0.18718(15) 0.91998(12) 0.86188(13)
C153_19 C 0.08002(12) 0.86188(13) 0.81282(15)
C154_19 C 0.13812(13) 0.81282(15) 0.91998(12)
H107_19 H 0.1987 0.9350 0.8546
H108_19 H 0.0650 0.8546 0.8013
H109_19 H 0.1454 0.8013 0.9350
H118_19 H 0.1959 0.9132 0.8789
H119_19 H 0.0868 0.8789 0.8041
H120_19 H 0.1211 0.8041 0.9132
C163_19 C 0.1595(2) 0.9314(2) 0.86886(19)
C164_19 C 0.0686(2) 0.86886(19) 0.8405(2)
C165_19 C 0.13114(19) 0.8405(2) 0.9314(2)
H129_19 H 0.1485 0.9171 0.8777
H130_19 H 0.0829 0.8777 0.8515
H131_19 H 0.1223 0.8515 0.9171
H140_19 H 0.1616 0.9469 0.8813
H141_19 H 0.0531 0.8813 0.8384
H142_19 H 0.1187 0.8384 0.9469
H151_19 H 0.1504 0.9374 0.8521
H152_19 H 0.0626 0.8521 0.8496
H153_19 H 0.1479 0.8496 0.9374
C1_13 C 0.17535(13) 0.74171(11) 0.04120(10)
C2_13 C 0.16607(12) 0.72354(10) 0.06377(10)
C3_13 C 0.18166(13) 0.70118(11) 0.07185(10)
H1_13 H 0.1984 0.6971 0.0628
C4_13 C 0.17260(12) 0.68476(11) 0.09318(10)
C5_13 C 0.14864(11) 0.69078(10) 0.10744(10)
C6_13 C 0.13287(12) 0.71309(11) 0.09892(11)
H2_13 H 0.1163 0.7174 0.1081
C7_13 C 0.14151(12) 0.72888(11) 0.07712(11)
H3_13 H 0.1304 0.7437 0.0711
C8_13 C 0.18660(12) 0.65929(12) 0.10358(12)
C9_13 C 0.16740(11) 0.65100(11) 0.12693(10)
C10_13 C 0.14563(11) 0.67006(11) 0.12969(11)
C11_13 C 0.21558(13) 0.66678(14) 0.11386(13)
H4_13 H 0.2248 0.6498 0.1199
H5_13 H 0.2262 0.6743 0.0983
C12_13 C 0.21636(16) 0.68743(19) 0.13729(19)
H6_13 H 0.2045 0.7030 0.1329
H7_13 H 0.2352 0.6939 0.1399
H8_13 H 0.2099 0.6787 0.1541
C13_13 C 0.18718(15) 0.63812(13) 0.08002(12)
H9_13 H 0.1987 0.6454 0.0650
H10_13 H 0.1959 0.6211 0.0868
C14_13 C 0.1595(2) 0.63114(19) 0.0686(2)
H11_13 H 0.1485 0.6223 0.0829
H12_13 H 0.1616 0.6187 0.0531
H13_13 H 0.1504 0.6479 0.0626
C15_13 C 0.24171(11) 0.54120(10) 0.17535(13)
C16_13 C 0.04120(10) 0.67535(13) 0.24171(11)
C26_13 C 0.22354(10) 0.56377(10) 0.16607(12)
C27_13 C 0.06377(10) 0.66607(12) 0.22354(10)
C37_13 C 0.20118(11) 0.57185(10) 0.18166(13)
C38_13 C 0.07185(10) 0.68166(13) 0.20118(11)
H14_13 H 0.1971 0.5628 0.1984
H15_13 H 0.0628 0.6984 0.1971
C48_13 C 0.18476(11) 0.59318(10) 0.17260(12)
C49_13 C 0.09318(10) 0.67260(12) 0.18476(11)
C59_13 C 0.19078(10) 0.60744(10) 0.14864(11)
C60_13 C 0.10744(10) 0.64864(11) 0.19078(10)
C70_13 C 0.21309(11) 0.59892(11) 0.13287(12)
C71_13 C 0.09892(11) 0.63287(12) 0.21309(11)
H25_13 H 0.2174 0.6081 0.1163
H26_13 H 0.1081 0.6163 0.2174
C81_13 C 0.22888(11) 0.57712(11) 0.14151(12)
C82_13 C 0.07712(11) 0.64151(12) 0.22888(11)
H36_13 H 0.2437 0.5711 0.1304
H37_13 H 0.0711 0.6304 0.2437
C92_13 C 0.10358(12) 0.68660(12) 0.15929(12)
C93_13 C 0.15929(12) 0.60358(12) 0.18660(12)
C103_13 C 0.12693(10) 0.66740(11) 0.15100(11)
C104_13 C 0.15100(11) 0.62693(10) 0.16740(11)
C114_13 C 0.17006(11) 0.62969(11) 0.14563(11)
C115_13 C 0.12969(11) 0.64563(11) 0.17006(11)
C125_13 C 0.11386(13) 0.71558(13) 0.16678(14)
C126_13 C 0.16678(14) 0.61386(13) 0.21558(13)
H47_13 H 0.1199 0.7248 0.1498
H48_13 H 0.1498 0.6199 0.2248
H58_13 H 0.0983 0.7262 0.1743
H59_13 H 0.1743 0.5983 0.2262
C136_13 C 0.13729(19) 0.71636(16) 0.18743(19)
C137_13 C 0.18743(19) 0.63729(19) 0.21636(16)
H69_13 H 0.1329 0.7045 0.2030
H70_13 H 0.2030 0.6329 0.2045
H80_13 H 0.1399 0.7352 0.1939
H81_13 H 0.1939 0.6399 0.2352
H91_13 H 0.1541 0.7099 0.1787
H92_13 H 0.1787 0.6541 0.2099
C147_13 C 0.08002(12) 0.68718(15) 0.13812(13)
C148_13 C 0.13812(13) 0.58002(12) 0.18718(15)
H102_13 H 0.0650 0.6987 0.1454
H103_13 H 0.1454 0.5650 0.1987
H113_13 H 0.0868 0.6959 0.1211
H114_13 H 0.1211 0.5868 0.1959
C158_13 C 0.0686(2) 0.6595(2) 0.13114(19)
C159_13 C 0.13114(19) 0.5686(2) 0.1595(2)
H124_13 H 0.0829 0.6485 0.1223
H125_13 H 0.1223 0.5829 0.1485
H135_13 H 0.0531 0.6616 0.1187
H136_13 H 0.1187 0.5531 0.1616
H146_13 H 0.0626 0.6504 0.1479
H147_13 H 0.1479 0.5626 0.1504
C20_20 C 0.45880(10) 0.32465(13) 0.25829(11)
C21_20 C 0.25829(11) 0.45880(10) 0.32465(13)
C22_20 C 0.32465(13) 0.25829(11) 0.45880(10)
C31_20 C 0.43623(10) 0.33393(12) 0.27646(10)
C32_20 C 0.27646(10) 0.43623(10) 0.33393(12)
C33_20 C 0.33393(12) 0.27646(10) 0.43623(10)
C42_20 C 0.42815(10) 0.31834(13) 0.29882(11)
C43_20 C 0.29882(11) 0.42815(10) 0.31834(13)
C44_20 C 0.31834(13) 0.29882(11) 0.42815(10)
H19_20 H 0.4372 0.3016 0.3029
H20_20 H 0.3029 0.4372 0.3016
H21_20 H 0.3016 0.3029 0.4372
C53_20 C 0.40682(10) 0.32740(12) 0.31524(11)
C54_20 C 0.31524(11) 0.40682(10) 0.32740(12)
C55_20 C 0.32740(12) 0.31524(11) 0.40682(10)
C64_20 C 0.39256(10) 0.35136(11) 0.30922(10)
C65_20 C 0.35136(11) 0.30922(10) 0.39256(10)
C66_20 C 0.30922(10) 0.39256(10) 0.35136(11)
C75_20 C 0.40108(11) 0.36713(12) 0.28691(11)
C76_20 C 0.36713(12) 0.28691(11) 0.40108(11)
C77_20 C 0.28691(11) 0.40108(11) 0.36713(12)
H30_20 H 0.3919 0.3837 0.2826
H31_20 H 0.3837 0.2826 0.3919
H32_20 H 0.2826 0.3919 0.3837
C86_20 C 0.42288(11) 0.35849(12) 0.27112(11)
C87_20 C 0.35849(12) 0.27112(11) 0.42288(11)
C88_20 C 0.27112(11) 0.42288(11) 0.35849(12)
H41_20 H 0.4289 0.3696 0.2563
H42_20 H 0.3696 0.2563 0.4289
H43_20 H 0.2563 0.4289 0.3696
C97_20 C 0.39642(12) 0.31340(12) 0.34071(12)
C98_20 C 0.34071(12) 0.39642(12) 0.31340(12)
C99_20 C 0.31340(12) 0.34071(12) 0.39642(12)
C108_20 C 0.37307(10) 0.33260(11) 0.34900(11)
C109_20 C 0.34900(11) 0.37307(10) 0.33260(11)
C110_20 C 0.33260(11) 0.34900(11) 0.37307(10)
C119_20 C 0.37031(11) 0.35437(11) 0.32994(11)
C120_20 C 0.35437(11) 0.32994(11) 0.37031(11)
C121_20 C 0.32994(11) 0.37031(11) 0.35437(11)
C130_20 C 0.38614(13) 0.28442(13) 0.33322(14)
C131_20 C 0.33322(14) 0.38614(13) 0.28442(13)
C132_20 C 0.28442(13) 0.33322(14) 0.38614(13)
H52_20 H 0.3801 0.2752 0.3502
H53_20 H 0.3502 0.3801 0.2752
H54_20 H 0.2752 0.3502 0.3801
H63_20 H 0.4017 0.2738 0.3257
H64_20 H 0.3257 0.4017 0.2738
H65_20 H 0.2738 0.3257 0.4017
C141_20 C 0.36271(19) 0.28364(16) 0.31257(19)
C142_20 C 0.31257(19) 0.36271(19) 0.28364(16)
C143_20 C 0.28364(16) 0.31257(19) 0.36271(19)
H74_20 H 0.3671 0.2955 0.2970
H75_20 H 0.2970 0.3671 0.2955
H76_20 H 0.2955 0.2970 0.3671
H85_20 H 0.3601 0.2648 0.3061
H86_20 H 0.3061 0.3601 0.2648
H87_20 H 0.2648 0.3061 0.3601
H96_20 H 0.3459 0.2901 0.3213
H97_20 H 0.3213 0.3459 0.2901
H98_20 H 0.2901 0.3213 0.3459
C152_20 C 0.41998(12) 0.31282(15) 0.36188(13)
C153_20 C 0.36188(13) 0.41998(12) 0.31282(15)
C154_20 C 0.31282(15) 0.36188(13) 0.41998(12)
H107_20 H 0.4350 0.3013 0.3546
H108_20 H 0.3546 0.4350 0.3013
H109_20 H 0.3013 0.3546 0.4350
H118_20 H 0.4132 0.3041 0.3789
H119_20 H 0.3789 0.4132 0.3041
H120_20 H 0.3041 0.3789 0.4132
C163_20 C 0.4314(2) 0.3405(2) 0.36886(19)
C164_20 C 0.36886(19) 0.4314(2) 0.3405(2)
C165_20 C 0.3405(2) 0.36886(19) 0.4314(2)
H129_20 H 0.4171 0.3515 0.3777
H130_20 H 0.3777 0.4171 0.3515
H131_20 H 0.3515 0.3777 0.4171
H140_20 H 0.4469 0.3384 0.3813
H141_20 H 0.3813 0.4469 0.3384
H142_20 H 0.3384 0.3813 0.4469
H151_20 H 0.4374 0.3496 0.3521
H152_20 H 0.3521 0.4374 0.3496
H153_20 H 0.3496 0.3521 0.4374
C1_14 C 0.74171(11) 0.54120(10) 0.67535(13)
C2_14 C 0.72354(10) 0.56377(10) 0.66607(12)
C3_14 C 0.70118(11) 0.57185(10) 0.68166(13)
H1_14 H 0.6971 0.5628 0.6984
C4_14 C 0.68476(11) 0.59318(10) 0.67260(12)
C5_14 C 0.69078(10) 0.60744(10) 0.64864(11)
C6_14 C 0.71309(11) 0.59892(11) 0.63287(12)
H2_14 H 0.7174 0.6081 0.6163
C7_14 C 0.72888(11) 0.57712(11) 0.64151(12)
H3_14 H 0.7437 0.5711 0.6304
C8_14 C 0.65929(12) 0.60358(12) 0.68660(12)
C9_14 C 0.65100(11) 0.62693(10) 0.66740(11)
C10_14 C 0.67006(11) 0.62969(11) 0.64563(11)
C11_14 C 0.66678(14) 0.61386(13) 0.71558(13)
H4_14 H 0.6498 0.6199 0.7248
H5_14 H 0.6743 0.5983 0.7262
C12_14 C 0.68743(19) 0.63729(19) 0.71636(16)
H6_14 H 0.7030 0.6329 0.7045
H7_14 H 0.6939 0.6399 0.7352
H8_14 H 0.6787 0.6541 0.7099
C13_14 C 0.63812(13) 0.58002(12) 0.68718(15)
H9_14 H 0.6454 0.5650 0.6987
H10_14 H 0.6211 0.5868 0.6959
C14_14 C 0.63114(19) 0.5686(2) 0.6595(2)
H11_14 H 0.6223 0.5829 0.6485
H12_14 H 0.6187 0.5531 0.6616
H13_14 H 0.6479 0.5626 0.6504
C15_14 C 0.54120(10) 0.67535(13) 0.74171(11)
C16_14 C 0.67535(13) 0.74171(11) 0.54120(10)
C20_21 C 0.82465(13) 0.45880(10) 0.74171(11)
C21_21 C 0.95880(10) 0.25829(11) 0.67535(13)
C22_21 C 0.75829(11) 0.32465(13) 0.54120(10)
C26_14 C 0.56377(10) 0.66607(12) 0.72354(10)
C27_14 C 0.66607(12) 0.72354(10) 0.56377(10)
C31_21 C 0.83393(12) 0.43623(10) 0.72354(10)
C32_21 C 0.93623(10) 0.27646(10) 0.66607(12)
C33_21 C 0.77646(10) 0.33393(12) 0.56377(10)
C37_14 C 0.57185(10) 0.68166(13) 0.70118(11)
C38_14 C 0.68166(13) 0.70118(11) 0.57185(10)
C42_21 C 0.81834(13) 0.42815(10) 0.70118(11)
C43_21 C 0.92815(10) 0.29882(11) 0.68166(13)
C44_21 C 0.79882(11) 0.31834(13) 0.57185(10)
H14_14 H 0.5628 0.6984 0.6971
H15_14 H 0.6984 0.6971 0.5628
H19_21 H 0.8016 0.4372 0.6971
H20_21 H 0.9372 0.3029 0.6984
H21_21 H 0.8029 0.3016 0.5628
C48_14 C 0.59318(10) 0.67260(12) 0.68476(11)
C49_14 C 0.67260(12) 0.68476(11) 0.59318(10)
C53_21 C 0.82740(12) 0.40682(10) 0.68476(11)
C54_21 C 0.90682(10) 0.31524(11) 0.67260(12)
C55_21 C 0.81524(11) 0.32740(12) 0.59318(10)
C59_14 C 0.60744(10) 0.64864(11) 0.69078(10)
C60_14 C 0.64864(11) 0.69078(10) 0.60744(10)
C64_21 C 0.85136(11) 0.39256(10) 0.69078(10)
C65_21 C 0.80922(10) 0.35136(11) 0.60744(10)
C66_21 C 0.89256(10) 0.30922(10) 0.64864(11)
C70_14 C 0.59892(11) 0.63287(12) 0.71309(11)
C71_14 C 0.63287(12) 0.71309(11) 0.59892(11)
C75_21 C 0.86713(12) 0.40108(11) 0.71309(11)
C76_21 C 0.78691(11) 0.36713(12) 0.59892(11)
C77_21 C 0.90108(11) 0.28691(11) 0.63287(12)
H25_14 H 0.6081 0.6163 0.7174
H26_14 H 0.6163 0.7174 0.6081
H30_21 H 0.8837 0.3919 0.7174
H31_21 H 0.7826 0.3837 0.6081
H32_21 H 0.8919 0.2826 0.6163
C81_14 C 0.57712(11) 0.64151(12) 0.72888(11)
C82_14 C 0.64151(12) 0.72888(11) 0.57712(11)
C86_21 C 0.85849(12) 0.42288(11) 0.72888(11)
C87_21 C 0.77112(11) 0.35849(12) 0.57712(11)
C88_21 C 0.92288(11) 0.27112(11) 0.64151(12)
H36_14 H 0.5711 0.6304 0.7437
H37_14 H 0.6304 0.7437 0.5711
H41_21 H 0.8696 0.4289 0.7437
H42_21 H 0.7563 0.3696 0.5711
H43_21 H 0.9289 0.2563 0.6304
C92_14 C 0.68660(12) 0.65929(12) 0.60358(12)
C93_14 C 0.60358(12) 0.68660(12) 0.65929(12)
C97_21 C 0.81340(12) 0.39642(12) 0.65929(12)
C98_21 C 0.89642(12) 0.34071(12) 0.68660(12)
C99_21 C 0.84071(12) 0.31340(12) 0.60358(12)
C103_14 C 0.66740(11) 0.65100(11) 0.62693(10)
C104_14 C 0.62693(10) 0.66740(11) 0.65100(11)
C108_21 C 0.83260(11) 0.37307(10) 0.65100(11)
C109_21 C 0.87307(10) 0.34900(11) 0.66740(11)
C110_21 C 0.84900(11) 0.33260(11) 0.62693(10)
C114_14 C 0.62969(11) 0.64563(11) 0.67006(11)
C115_14 C 0.64563(11) 0.67006(11) 0.62969(11)
C119_21 C 0.85437(11) 0.37031(11) 0.67006(11)
C120_21 C 0.82994(11) 0.35437(11) 0.62969(11)
C121_21 C 0.87031(11) 0.32994(11) 0.64563(11)
C125_14 C 0.71558(13) 0.66678(14) 0.61386(13)
C126_14 C 0.61386(13) 0.71558(13) 0.66678(14)
C130_21 C 0.78442(13) 0.38614(13) 0.66678(14)
C131_21 C 0.88614(13) 0.33322(14) 0.71558(13)
C132_21 C 0.83322(14) 0.28442(13) 0.61386(13)
H47_14 H 0.7248 0.6498 0.6199
H48_14 H 0.6199 0.7248 0.6498
H52_21 H 0.7752 0.3801 0.6498
H53_21 H 0.8801 0.3502 0.7248
H54_21 H 0.8502 0.2752 0.6199
H58_14 H 0.7262 0.6743 0.5983
H59_14 H 0.5983 0.7262 0.6743
H63_21 H 0.7738 0.4017 0.6743
H64_21 H 0.9017 0.3257 0.7262
H65_21 H 0.8257 0.2738 0.5983
C136_14 C 0.71636(16) 0.68743(19) 0.63729(19)
C137_14 C 0.63729(19) 0.71636(16) 0.68743(19)
C141_21 C 0.78364(16) 0.36271(19) 0.68743(19)
C142_21 C 0.86271(19) 0.31257(19) 0.71636(16)
C143_21 C 0.81257(19) 0.28364(16) 0.63729(19)
H69_14 H 0.7045 0.7030 0.6329
H70_14 H 0.6329 0.7045 0.7030
H74_21 H 0.7955 0.3671 0.7030
H75_21 H 0.8671 0.2970 0.7045
H76_21 H 0.7970 0.2955 0.6329
H80_14 H 0.7352 0.6939 0.6399
H81_14 H 0.6399 0.7352 0.6939
H85_21 H 0.7648 0.3601 0.6939
H86_21 H 0.8601 0.3061 0.7352
H87_21 H 0.8061 0.2648 0.6399
H91_14 H 0.7099 0.6787 0.6541
H92_14 H 0.6541 0.7099 0.6787
H96_21 H 0.7901 0.3459 0.6787
H97_21 H 0.8459 0.3213 0.7099
H98_21 H 0.8213 0.2901 0.6541
C147_14 C 0.68718(15) 0.63812(13) 0.58002(12)
C148_14 C 0.58002(12) 0.68718(15) 0.63812(13)
C152_21 C 0.81282(15) 0.41998(12) 0.63812(13)
C153_21 C 0.91998(12) 0.36188(13) 0.68718(15)
C154_21 C 0.86188(13) 0.31282(15) 0.58002(12)
H102_14 H 0.6987 0.6454 0.5650
H103_14 H 0.5650 0.6987 0.6454
H107_21 H 0.8013 0.4350 0.6454
H108_21 H 0.9350 0.3546 0.6987
H109_21 H 0.8546 0.3013 0.5650
H113_14 H 0.6959 0.6211 0.5868
H114_14 H 0.5868 0.6959 0.6211
H118_21 H 0.8041 0.4132 0.6211
H119_21 H 0.9132 0.3789 0.6959
H120_21 H 0.8789 0.3041 0.5868
C158_14 C 0.6595(2) 0.63114(19) 0.5686(2)
C159_14 C 0.5686(2) 0.6595(2) 0.63114(19)
C163_21 C 0.8405(2) 0.4314(2) 0.63114(19)
C164_21 C 0.9314(2) 0.36886(19) 0.6595(2)
C165_21 C 0.86886(19) 0.3405(2) 0.5686(2)
H124_14 H 0.6485 0.6223 0.5829
H125_14 H 0.5829 0.6485 0.6223
H129_21 H 0.8515 0.4171 0.6223
H130_21 H 0.9171 0.3777 0.6485
H131_21 H 0.8777 0.3515 0.5829
H135_14 H 0.6616 0.6187 0.5531
H136_14 H 0.5531 0.6616 0.6187
H140_21 H 0.8384 0.4469 0.6187
H141_21 H 0.9469 0.3813 0.6616
H142_21 H 0.8813 0.3384 0.5531
H146_14 H 0.6504 0.6479 0.5626
H147_14 H 0.5626 0.6504 0.6479
H151_21 H 0.8496 0.4374 0.6479
H152_21 H 0.9374 0.3521 0.6504
H153_21 H 0.8521 0.3496 0.5626
C20_22 C 0.82465(13) 0.54120(10) 0.25829(11)
C21_22 C 0.95880(10) 0.74171(11) 0.32465(13)
C22_22 C 0.75829(11) 0.67535(13) 0.45880(10)
C31_22 C 0.83393(12) 0.56377(10) 0.27646(10)
C32_22 C 0.93623(10) 0.72354(10) 0.33393(12)
C33_22 C 0.77646(10) 0.66607(12) 0.43623(10)
C42_22 C 0.81834(13) 0.57185(10) 0.29882(11)
C43_22 C 0.92815(10) 0.70118(11) 0.31834(13)
C44_22 C 0.79882(11) 0.68166(13) 0.42815(10)
H19_22 H 0.8016 0.5628 0.3029
H20_22 H 0.9372 0.6971 0.3016
H21_22 H 0.8029 0.6984 0.4372
C53_22 C 0.82740(12) 0.59318(10) 0.31524(11)
C54_22 C 0.90682(10) 0.68476(11) 0.32740(12)
C55_22 C 0.81524(11) 0.67260(12) 0.40682(10)
C64_22 C 0.85136(11) 0.60744(10) 0.30922(10)
C65_22 C 0.80922(10) 0.64864(11) 0.39256(10)
C66_22 C 0.89256(10) 0.69078(10) 0.35136(11)
C75_22 C 0.86713(12) 0.59892(11) 0.28691(11)
C76_22 C 0.78691(11) 0.63287(12) 0.40108(11)
C77_22 C 0.90108(11) 0.71309(11) 0.36713(12)
H30_22 H 0.8837 0.6081 0.2826
H31_22 H 0.7826 0.6163 0.3919
H32_22 H 0.8919 0.7174 0.3837
C86_22 C 0.85849(12) 0.57712(11) 0.27112(11)
C87_22 C 0.77112(11) 0.64151(12) 0.42288(11)
C88_22 C 0.92288(11) 0.72888(11) 0.35849(12)
H41_22 H 0.8696 0.5711 0.2563
H42_22 H 0.7563 0.6304 0.4289
H43_22 H 0.9289 0.7437 0.3696
C97_22 C 0.81340(12) 0.60358(12) 0.34071(12)
C98_22 C 0.89642(12) 0.65929(12) 0.31340(12)
C99_22 C 0.84071(12) 0.68660(12) 0.39642(12)
C108_22 C 0.83260(11) 0.62693(10) 0.34900(11)
C109_22 C 0.87307(10) 0.65100(11) 0.33260(11)
C110_22 C 0.84900(11) 0.66740(11) 0.37307(10)
C119_22 C 0.85437(11) 0.62969(11) 0.32994(11)
C120_22 C 0.82994(11) 0.64563(11) 0.37031(11)
C121_22 C 0.87031(11) 0.67006(11) 0.35437(11)
C130_22 C 0.78442(13) 0.61386(13) 0.33322(14)
C131_22 C 0.88614(13) 0.66678(14) 0.28442(13)
C132_22 C 0.83322(14) 0.71558(13) 0.38614(13)
H52_22 H 0.7752 0.6199 0.3502
H53_22 H 0.8801 0.6498 0.2752
H54_22 H 0.8502 0.7248 0.3801
H63_22 H 0.7738 0.5983 0.3257
H64_22 H 0.9017 0.6743 0.2738
H65_22 H 0.8257 0.7262 0.4017
C141_22 C 0.78364(16) 0.63729(19) 0.31257(19)
C142_22 C 0.86271(19) 0.68743(19) 0.28364(16)
C143_22 C 0.81257(19) 0.71636(16) 0.36271(19)
H74_22 H 0.7955 0.6329 0.2970
H75_22 H 0.8671 0.7030 0.2955
H76_22 H 0.7970 0.7045 0.3671
H85_22 H 0.7648 0.6399 0.3061
H86_22 H 0.8601 0.6939 0.2648
H87_22 H 0.8061 0.7352 0.3601
H96_22 H 0.7901 0.6541 0.3213
H97_22 H 0.8459 0.6787 0.2901
H98_22 H 0.8213 0.7099 0.3459
C152_22 C 0.81282(15) 0.58002(12) 0.36188(13)
C153_22 C 0.91998(12) 0.63812(13) 0.31282(15)
C154_22 C 0.86188(13) 0.68718(15) 0.41998(12)
H107_22 H 0.8013 0.5650 0.3546
H108_22 H 0.9350 0.6454 0.3013
H109_22 H 0.8546 0.6987 0.4350
H118_22 H 0.8041 0.5868 0.3789
H119_22 H 0.9132 0.6211 0.3041
H120_22 H 0.8789 0.6959 0.4132
C163_22 C 0.8405(2) 0.5686(2) 0.36886(19)
C164_22 C 0.9314(2) 0.63114(19) 0.3405(2)
C165_22 C 0.86886(19) 0.6595(2) 0.4314(2)
H129_22 H 0.8515 0.5829 0.3777
H130_22 H 0.9171 0.6223 0.3515
H131_22 H 0.8777 0.6485 0.4171
H140_22 H 0.8384 0.5531 0.3813
H141_22 H 0.9469 0.6187 0.3384
H142_22 H 0.8813 0.6616 0.4469
H151_22 H 0.8496 0.5626 0.3521
H152_22 H 0.9374 0.6479 0.3496
H153_22 H 0.8521 0.6504 0.4374
C20_23 C 0.17535(13) 0.45880(10) 0.25829(11)
C21_23 C 0.04120(10) 0.25829(11) 0.32465(13)
C22_23 C 0.24171(11) 0.32465(13) 0.45880(10)
C31_23 C 0.16607(12) 0.43623(10) 0.27646(10)
C32_23 C 0.06377(10) 0.27646(10) 0.33393(12)
C33_23 C 0.22354(10) 0.33393(12) 0.43623(10)
C42_23 C 0.18166(13) 0.42815(10) 0.29882(11)
C43_23 C 0.07185(10) 0.29882(11) 0.31834(13)
C44_23 C 0.20118(11) 0.31834(13) 0.42815(10)
H19_23 H 0.1984 0.4372 0.3029
H20_23 H 0.0628 0.3029 0.3016
H21_23 H 0.1971 0.3016 0.4372
C53_23 C 0.17260(12) 0.40682(10) 0.31524(11)
C54_23 C 0.09318(10) 0.31524(11) 0.32740(12)
C55_23 C 0.18476(11) 0.32740(12) 0.40682(10)
C64_23 C 0.14864(11) 0.39256(10) 0.30922(10)
C65_23 C 0.19078(10) 0.35136(11) 0.39256(10)
C66_23 C 0.10744(10) 0.30922(10) 0.35136(11)
C75_23 C 0.13287(12) 0.40108(11) 0.28691(11)
C76_23 C 0.21309(11) 0.36713(12) 0.40108(11)
C77_23 C 0.09892(11) 0.28691(11) 0.36713(12)
H30_23 H 0.1163 0.3919 0.2826
H31_23 H 0.2174 0.3837 0.3919
H32_23 H 0.1081 0.2826 0.3837
C86_23 C 0.14151(12) 0.42288(11) 0.27112(11)
C87_23 C 0.22888(11) 0.35849(12) 0.42288(11)
C88_23 C 0.07712(11) 0.27112(11) 0.35849(12)
H41_23 H 0.1304 0.4289 0.2563
H42_23 H 0.2437 0.3696 0.4289
H43_23 H 0.0711 0.2563 0.3696
C97_23 C 0.18660(12) 0.39642(12) 0.34071(12)
C98_23 C 0.10358(12) 0.34071(12) 0.31340(12)
C99_23 C 0.15929(12) 0.31340(12) 0.39642(12)
C108_23 C 0.16740(11) 0.37307(10) 0.34900(11)
C109_23 C 0.12693(10) 0.34900(11) 0.33260(11)
C110_23 C 0.15100(11) 0.33260(11) 0.37307(10)
C119_23 C 0.14563(11) 0.37031(11) 0.32994(11)
C120_23 C 0.17006(11) 0.35437(11) 0.37031(11)
C121_23 C 0.12969(11) 0.32994(11) 0.35437(11)
C130_23 C 0.21558(13) 0.38614(13) 0.33322(14)
C131_23 C 0.11386(13) 0.33322(14) 0.28442(13)
C132_23 C 0.16678(14) 0.28442(13) 0.38614(13)
H52_23 H 0.2248 0.3801 0.3502
H53_23 H 0.1199 0.3502 0.2752
H54_23 H 0.1498 0.2752 0.3801
H63_23 H 0.2262 0.4017 0.3257
H64_23 H 0.0983 0.3257 0.2738
H65_23 H 0.1743 0.2738 0.4017
C141_23 C 0.21636(16) 0.36271(19) 0.31257(19)
C142_23 C 0.13729(19) 0.31257(19) 0.28364(16)
C143_23 C 0.18743(19) 0.28364(16) 0.36271(19)
H74_23 H 0.2045 0.3671 0.2970
H75_23 H 0.1329 0.2970 0.2955
H76_23 H 0.2030 0.2955 0.3671
H85_23 H 0.2352 0.3601 0.3061
H86_23 H 0.1399 0.3061 0.2648
H87_23 H 0.1939 0.2648 0.3601
H96_23 H 0.2099 0.3459 0.3213
H97_23 H 0.1541 0.3213 0.2901
H98_23 H 0.1787 0.2901 0.3459
C152_23 C 0.18718(15) 0.41998(12) 0.36188(13)
C153_23 C 0.08002(12) 0.36188(13) 0.31282(15)
C154_23 C 0.13812(13) 0.31282(15) 0.41998(12)
H107_23 H 0.1987 0.4350 0.3546
H108_23 H 0.0650 0.3546 0.3013
H109_23 H 0.1454 0.3013 0.4350
H118_23 H 0.1959 0.4132 0.3789
H119_23 H 0.0868 0.3789 0.3041
H120_23 H 0.1211 0.3041 0.4132
C163_23 C 0.1595(2) 0.4314(2) 0.36886(19)
C164_23 C 0.0686(2) 0.36886(19) 0.3405(2)
C165_23 C 0.13114(19) 0.3405(2) 0.4314(2)
H129_23 H 0.1485 0.4171 0.3777
H130_23 H 0.0829 0.3777 0.3515
H131_23 H 0.1223 0.3515 0.4171
H140_23 H 0.1616 0.4469 0.3813
H141_23 H 0.0531 0.3813 0.3384
H142_23 H 0.1187 0.3384 0.4469
H151_23 H 0.1504 0.4374 0.3521
H152_23 H 0.0626 0.3521 0.3496
H153_23 H 0.1479 0.3496 0.4374
C20_24 C 0.45880(10) 0.82465(13) 0.75829(11)
C21_24 C 0.25829(11) 0.95880(10) 0.82465(13)
C22_24 C 0.32465(13) 0.75829(11) 0.95880(10)
C31_24 C 0.43623(10) 0.83393(12) 0.77646(10)
C32_24 C 0.27646(10) 0.93623(10) 0.83393(12)
C33_24 C 0.33393(12) 0.77646(10) 0.93623(10)
C42_24 C 0.42815(10) 0.81834(13) 0.79882(11)
C43_24 C 0.29882(11) 0.92815(10) 0.81834(13)
C44_24 C 0.31834(13) 0.79882(11) 0.92815(10)
H19_24 H 0.4372 0.8016 0.8029
H20_24 H 0.3029 0.9372 0.8016
H21_24 H 0.3016 0.8029 0.9372
C53_24 C 0.40682(10) 0.82740(12) 0.81524(11)
C54_24 C 0.31524(11) 0.90682(10) 0.82740(12)
C55_24 C 0.32740(12) 0.81524(11) 0.90682(10)
C64_24 C 0.39256(10) 0.85136(11) 0.80922(10)
C65_24 C 0.35136(11) 0.80922(10) 0.89256(10)
C66_24 C 0.30922(10) 0.89256(10) 0.85136(11)
C75_24 C 0.40108(11) 0.86713(12) 0.78691(11)
C76_24 C 0.36713(12) 0.78691(11) 0.90108(11)
C77_24 C 0.28691(11) 0.90108(11) 0.86713(12)
H30_24 H 0.3919 0.8837 0.7826
H31_24 H 0.3837 0.7826 0.8919
H32_24 H 0.2826 0.8919 0.8837
C86_24 C 0.42288(11) 0.85849(12) 0.77112(11)
C87_24 C 0.35849(12) 0.77112(11) 0.92288(11)
C88_24 C 0.27112(11) 0.92288(11) 0.85849(12)
H41_24 H 0.4289 0.8696 0.7563
H42_24 H 0.3696 0.7563 0.9289
H43_24 H 0.2563 0.9289 0.8696
C97_24 C 0.39642(12) 0.81340(12) 0.84071(12)
C98_24 C 0.34071(12) 0.89642(12) 0.81340(12)
C99_24 C 0.31340(12) 0.84071(12) 0.89642(12)
C108_24 C 0.37307(10) 0.83260(11) 0.84900(11)
C109_24 C 0.34900(11) 0.87307(10) 0.83260(11)
C110_24 C 0.33260(11) 0.84900(11) 0.87307(10)
C119_24 C 0.37031(11) 0.85437(11) 0.82994(11)
C120_24 C 0.35437(11) 0.82994(11) 0.87031(11)
C121_24 C 0.32994(11) 0.87031(11) 0.85437(11)
C130_24 C 0.38614(13) 0.78442(13) 0.83322(14)
C131_24 C 0.33322(14) 0.88614(13) 0.78442(13)
C132_24 C 0.28442(13) 0.83322(14) 0.88614(13)
H52_24 H 0.3801 0.7752 0.8502
H53_24 H 0.3502 0.8801 0.7752
H54_24 H 0.2752 0.8502 0.8801
H63_24 H 0.4017 0.7738 0.8257
H64_24 H 0.3257 0.9017 0.7738
H65_24 H 0.2738 0.8257 0.9017
C141_24 C 0.36271(19) 0.78364(16) 0.81257(19)
C142_24 C 0.31257(19) 0.86271(19) 0.78364(16)
C143_24 C 0.28364(16) 0.81257(19) 0.86271(19)
H74_24 H 0.3671 0.7955 0.7970
H75_24 H 0.2970 0.8671 0.7955
H76_24 H 0.2955 0.7970 0.8671
H85_24 H 0.3601 0.7648 0.8061
H86_24 H 0.3061 0.8601 0.7648
H87_24 H 0.2648 0.8061 0.8601
H96_24 H 0.3459 0.7901 0.8213
H97_24 H 0.3213 0.8459 0.7901
H98_24 H 0.2901 0.8213 0.8459
C152_24 C 0.41998(12) 0.81282(15) 0.86188(13)
C153_24 C 0.36188(13) 0.91998(12) 0.81282(15)
C154_24 C 0.31282(15) 0.86188(13) 0.91998(12)
H107_24 H 0.4350 0.8013 0.8546
H108_24 H 0.3546 0.9350 0.8013
H109_24 H 0.3013 0.8546 0.9350
H118_24 H 0.4132 0.8041 0.8789
H119_24 H 0.3789 0.9132 0.8041
H120_24 H 0.3041 0.8789 0.9132
C163_24 C 0.4314(2) 0.8405(2) 0.86886(19)
C164_24 C 0.36886(19) 0.9314(2) 0.8405(2)
C165_24 C 0.3405(2) 0.86886(19) 0.9314(2)
H129_24 H 0.4171 0.8515 0.8777
H130_24 H 0.3777 0.9171 0.8515
H131_24 H 0.3515 0.8777 0.9171
H140_24 H 0.4469 0.8384 0.8813
H141_24 H 0.3813 0.9469 0.8384
H142_24 H 0.3384 0.8813 0.9469
H151_24 H 0.4374 0.8496 0.8521
H152_24 H 0.3521 0.9374 0.8496
H153_24 H 0.3496 0.8521 0.9374
C20_25 C 0.32465(13) 0.95880(10) 0.74171(11)
C21_25 C 0.45880(10) 0.75829(11) 0.67535(13)
C22_25 C 0.25829(11) 0.82465(13) 0.54120(10)
C31_25 C 0.33393(12) 0.93623(10) 0.72354(10)
C32_25 C 0.43623(10) 0.77646(10) 0.66607(12)
C33_25 C 0.27646(10) 0.83393(12) 0.56377(10)
C42_25 C 0.31834(13) 0.92815(10) 0.70118(11)
C43_25 C 0.42815(10) 0.79882(11) 0.68166(13)
C44_25 C 0.29882(11) 0.81834(13) 0.57185(10)
H19_25 H 0.3016 0.9372 0.6971
H20_25 H 0.4372 0.8029 0.6984
H21_25 H 0.3029 0.8016 0.5628
C53_25 C 0.32740(12) 0.90682(10) 0.68476(11)
C54_25 C 0.40682(10) 0.81524(11) 0.67260(12)
C55_25 C 0.31524(11) 0.82740(12) 0.59318(10)
C64_25 C 0.35136(11) 0.89256(10) 0.69078(10)
C65_25 C 0.30922(10) 0.85136(11) 0.60744(10)
C66_25 C 0.39256(10) 0.80922(10) 0.64864(11)
C75_25 C 0.36713(12) 0.90108(11) 0.71309(11)
C76_25 C 0.28691(11) 0.86713(12) 0.59892(11)
C77_25 C 0.40108(11) 0.78691(11) 0.63287(12)
H30_25 H 0.3837 0.8919 0.7174
H31_25 H 0.2826 0.8837 0.6081
H32_25 H 0.3919 0.7826 0.6163
C86_25 C 0.35849(12) 0.92288(11) 0.72888(11)
C87_25 C 0.27112(11) 0.85849(12) 0.57712(11)
C88_25 C 0.42288(11) 0.77112(11) 0.64151(12)
H41_25 H 0.3696 0.9289 0.7437
H42_25 H 0.2563 0.8696 0.5711
H43_25 H 0.4289 0.7563 0.6304
C97_25 C 0.31340(12) 0.89642(12) 0.65929(12)
C98_25 C 0.39642(12) 0.84071(12) 0.68660(12)
C99_25 C 0.34071(12) 0.81340(12) 0.60358(12)
C108_25 C 0.33260(11) 0.87307(10) 0.65100(11)
C109_25 C 0.37307(10) 0.84900(11) 0.66740(11)
C110_25 C 0.34900(11) 0.83260(11) 0.62693(10)
C119_25 C 0.35437(11) 0.87031(11) 0.67006(11)
C120_25 C 0.32994(11) 0.85437(11) 0.62969(11)
C121_25 C 0.37031(11) 0.82994(11) 0.64563(11)
C130_25 C 0.28442(13) 0.88614(13) 0.66678(14)
C131_25 C 0.38614(13) 0.83322(14) 0.71558(13)
C132_25 C 0.33322(14) 0.78442(13) 0.61386(13)
H52_25 H 0.2752 0.8801 0.6498
H53_25 H 0.3801 0.8502 0.7248
H54_25 H 0.3502 0.7752 0.6199
H63_25 H 0.2738 0.9017 0.6743
H64_25 H 0.4017 0.8257 0.7262
H65_25 H 0.3257 0.7738 0.5983
C141_25 C 0.28364(16) 0.86271(19) 0.68743(19)
C142_25 C 0.36271(19) 0.81257(19) 0.71636(16)
C143_25 C 0.31257(19) 0.78364(16) 0.63729(19)
H74_25 H 0.2955 0.8671 0.7030
H75_25 H 0.3671 0.7970 0.7045
H76_25 H 0.2970 0.7955 0.6329
H85_25 H 0.2648 0.8601 0.6939
H86_25 H 0.3601 0.8061 0.7352
H87_25 H 0.3061 0.7648 0.6399
H96_25 H 0.2901 0.8459 0.6787
H97_25 H 0.3459 0.8213 0.7099
H98_25 H 0.3213 0.7901 0.6541
C152_25 C 0.31282(15) 0.91998(12) 0.63812(13)
C153_25 C 0.41998(12) 0.86188(13) 0.68718(15)
C154_25 C 0.36188(13) 0.81282(15) 0.58002(12)
H107_25 H 0.3013 0.9350 0.6454
H108_25 H 0.4350 0.8546 0.6987
H109_25 H 0.3546 0.8013 0.5650
H118_25 H 0.3041 0.9132 0.6211
H119_25 H 0.4132 0.8789 0.6959
H120_25 H 0.3789 0.8041 0.5868
C163_25 C 0.3405(2) 0.9314(2) 0.63114(19)
C164_25 C 0.4314(2) 0.86886(19) 0.6595(2)
C165_25 C 0.36886(19) 0.8405(2) 0.5686(2)
H129_25 H 0.3515 0.9171 0.6223
H130_25 H 0.4171 0.8777 0.6485
H131_25 H 0.3777 0.8515 0.5829
H140_25 H 0.3384 0.9469 0.6187
H141_25 H 0.4469 0.8813 0.6616
H142_25 H 0.3813 0.8384 0.5531
H151_25 H 0.3496 0.9374 0.6479
H152_25 H 0.4374 0.8521 0.6504
H153_25 H 0.3521 0.8496 0.5626
C20_26 C 0.32465(13) 0.04120(10) 0.25829(11)
C21_26 C 0.45880(10) 0.24171(11) 0.32465(13)
C22_26 C 0.25829(11) 0.17535(13) 0.45880(10)
C31_26 C 0.33393(12) 0.06377(10) 0.27646(10)
C32_26 C 0.43623(10) 0.22354(10) 0.33393(12)
C33_26 C 0.27646(10) 0.16607(12) 0.43623(10)
C42_26 C 0.31834(13) 0.07185(10) 0.29882(11)
C43_26 C 0.42815(10) 0.20118(11) 0.31834(13)
C44_26 C 0.29882(11) 0.18166(13) 0.42815(10)
H19_26 H 0.3016 0.0628 0.3029
H20_26 H 0.4372 0.1971 0.3016
H21_26 H 0.3029 0.1984 0.4372
C53_26 C 0.32740(12) 0.09318(10) 0.31524(11)
C54_26 C 0.40682(10) 0.18476(11) 0.32740(12)
C55_26 C 0.31524(11) 0.17260(12) 0.40682(10)
C64_26 C 0.35136(11) 0.10744(10) 0.30922(10)
C65_26 C 0.30922(10) 0.14864(11) 0.39256(10)
C66_26 C 0.39256(10) 0.19078(10) 0.35136(11)
C75_26 C 0.36713(12) 0.09892(11) 0.28691(11)
C76_26 C 0.28691(11) 0.13287(12) 0.40108(11)
C77_26 C 0.40108(11) 0.21309(11) 0.36713(12)
H30_26 H 0.3837 0.1081 0.2826
H31_26 H 0.2826 0.1163 0.3919
H32_26 H 0.3919 0.2174 0.3837
C86_26 C 0.35849(12) 0.07712(11) 0.27112(11)
C87_26 C 0.27112(11) 0.14151(12) 0.42288(11)
C88_26 C 0.42288(11) 0.22888(11) 0.35849(12)
H41_26 H 0.3696 0.0711 0.2563
H42_26 H 0.2563 0.1304 0.4289
H43_26 H 0.4289 0.2437 0.3696
C97_26 C 0.31340(12) 0.10358(12) 0.34071(12)
C98_26 C 0.39642(12) 0.15929(12) 0.31340(12)
C99_26 C 0.34071(12) 0.18660(12) 0.39642(12)
C108_26 C 0.33260(11) 0.12693(10) 0.34900(11)
C109_26 C 0.37307(10) 0.15100(11) 0.33260(11)
C110_26 C 0.34900(11) 0.16740(11) 0.37307(10)
C119_26 C 0.35437(11) 0.12969(11) 0.32994(11)
C120_26 C 0.32994(11) 0.14563(11) 0.37031(11)
C121_26 C 0.37031(11) 0.17006(11) 0.35437(11)
C130_26 C 0.28442(13) 0.11386(13) 0.33322(14)
C131_26 C 0.38614(13) 0.16678(14) 0.28442(13)
C132_26 C 0.33322(14) 0.21558(13) 0.38614(13)
H52_26 H 0.2752 0.1199 0.3502
H53_26 H 0.3801 0.1498 0.2752
H54_26 H 0.3502 0.2248 0.3801
H63_26 H 0.2738 0.0983 0.3257
H64_26 H 0.4017 0.1743 0.2738
H65_26 H 0.3257 0.2262 0.4017
C141_26 C 0.28364(16) 0.13729(19) 0.31257(19)
C142_26 C 0.36271(19) 0.18743(19) 0.28364(16)
C143_26 C 0.31257(19) 0.21636(16) 0.36271(19)
H74_26 H 0.2955 0.1329 0.2970
H75_26 H 0.3671 0.2030 0.2955
H76_26 H 0.2970 0.2045 0.3671
H85_26 H 0.2648 0.1399 0.3061
H86_26 H 0.3601 0.1939 0.2648
H87_26 H 0.3061 0.2352 0.3601
H96_26 H 0.2901 0.1541 0.3213
H97_26 H 0.3459 0.1787 0.2901
H98_26 H 0.3213 0.2099 0.3459
C152_26 C 0.31282(15) 0.08002(12) 0.36188(13)
C153_26 C 0.41998(12) 0.13812(13) 0.31282(15)
C154_26 C 0.36188(13) 0.18718(15) 0.41998(12)
H107_26 H 0.3013 0.0650 0.3546
H108_26 H 0.4350 0.1454 0.3013
H109_26 H 0.3546 0.1987 0.4350
H118_26 H 0.3041 0.0868 0.3789
H119_26 H 0.4132 0.1211 0.3041
H120_26 H 0.3789 0.1959 0.4132
C163_26 C 0.3405(2) 0.0686(2) 0.36886(19)
C164_26 C 0.4314(2) 0.13114(19) 0.3405(2)
C165_26 C 0.36886(19) 0.1595(2) 0.4314(2)
H129_26 H 0.3515 0.0829 0.3777
H130_26 H 0.4171 0.1223 0.3515
H131_26 H 0.3777 0.1485 0.4171
H140_26 H 0.3384 0.0531 0.3813
H141_26 H 0.4469 0.1187 0.3384
H142_26 H 0.3813 0.1616 0.4469
H151_26 H 0.3496 0.0626 0.3521
H152_26 H 0.4374 0.1479 0.3496
H153_26 H 0.3521 0.1504 0.4374
C20_27 C 0.67535(13) 0.95880(10) 0.25829(11)
C21_27 C 0.54120(10) 0.75829(11) 0.32465(13)
C22_27 C 0.74171(11) 0.82465(13) 0.45880(10)
C31_27 C 0.66607(12) 0.93623(10) 0.27646(10)
C32_27 C 0.56377(10) 0.77646(10) 0.33393(12)
C33_27 C 0.72354(10) 0.83393(12) 0.43623(10)
C42_27 C 0.68166(13) 0.92815(10) 0.29882(11)
C43_27 C 0.57185(10) 0.79882(11) 0.31834(13)
C44_27 C 0.70118(11) 0.81834(13) 0.42815(10)
H19_27 H 0.6984 0.9372 0.3029
H20_27 H 0.5628 0.8029 0.3016
H21_27 H 0.6971 0.8016 0.4372
C53_27 C 0.67260(12) 0.90682(10) 0.31524(11)
C54_27 C 0.59318(10) 0.81524(11) 0.32740(12)
C55_27 C 0.68476(11) 0.82740(12) 0.40682(10)
C64_27 C 0.64864(11) 0.89256(10) 0.30922(10)
C65_27 C 0.69078(10) 0.85136(11) 0.39256(10)
C66_27 C 0.60744(10) 0.80922(10) 0.35136(11)
C75_27 C 0.63287(12) 0.90108(11) 0.28691(11)
C76_27 C 0.71309(11) 0.86713(12) 0.40108(11)
C77_27 C 0.59892(11) 0.78691(11) 0.36713(12)
H30_27 H 0.6163 0.8919 0.2826
H31_27 H 0.7174 0.8837 0.3919
H32_27 H 0.6081 0.7826 0.3837
C86_27 C 0.64151(12) 0.92288(11) 0.27112(11)
C87_27 C 0.72888(11) 0.85849(12) 0.42288(11)
C88_27 C 0.57712(11) 0.77112(11) 0.35849(12)
H41_27 H 0.6304 0.9289 0.2563
H42_27 H 0.7437 0.8696 0.4289
H43_27 H 0.5711 0.7563 0.3696
C97_27 C 0.68660(12) 0.89642(12) 0.34071(12)
C98_27 C 0.60358(12) 0.84071(12) 0.31340(12)
C99_27 C 0.65929(12) 0.81340(12) 0.39642(12)
C108_27 C 0.66740(11) 0.87307(10) 0.34900(11)
C109_27 C 0.62693(10) 0.84900(11) 0.33260(11)
C110_27 C 0.65100(11) 0.83260(11) 0.37307(10)
C119_27 C 0.64563(11) 0.87031(11) 0.32994(11)
C120_27 C 0.67006(11) 0.85437(11) 0.37031(11)
C121_27 C 0.62969(11) 0.82994(11) 0.35437(11)
C130_27 C 0.71558(13) 0.88614(13) 0.33322(14)
C131_27 C 0.61386(13) 0.83322(14) 0.28442(13)
C132_27 C 0.66678(14) 0.78442(13) 0.38614(13)
H52_27 H 0.7248 0.8801 0.3502
H53_27 H 0.6199 0.8502 0.2752
H54_27 H 0.6498 0.7752 0.3801
H63_27 H 0.7262 0.9017 0.3257
H64_27 H 0.5983 0.8257 0.2738
H65_27 H 0.6743 0.7738 0.4017
C141_27 C 0.71636(16) 0.86271(19) 0.31257(19)
C142_27 C 0.63729(19) 0.81257(19) 0.28364(16)
C143_27 C 0.68743(19) 0.78364(16) 0.36271(19)
H74_27 H 0.7045 0.8671 0.2970
H75_27 H 0.6329 0.7970 0.2955
H76_27 H 0.7030 0.7955 0.3671
H85_27 H 0.7352 0.8601 0.3061
H86_27 H 0.6399 0.8061 0.2648
H87_27 H 0.6939 0.7648 0.3601
H96_27 H 0.7099 0.8459 0.3213
H97_27 H 0.6541 0.8213 0.2901
H98_27 H 0.6787 0.7901 0.3459
C152_27 C 0.68718(15) 0.91998(12) 0.36188(13)
C153_27 C 0.58002(12) 0.86188(13) 0.31282(15)
C154_27 C 0.63812(13) 0.81282(15) 0.41998(12)
H107_27 H 0.6987 0.9350 0.3546
H108_27 H 0.5650 0.8546 0.3013
H109_27 H 0.6454 0.8013 0.4350
H118_27 H 0.6959 0.9132 0.3789
H119_27 H 0.5868 0.8789 0.3041
H120_27 H 0.6211 0.8041 0.4132
C163_27 C 0.6595(2) 0.9314(2) 0.36886(19)
C164_27 C 0.5686(2) 0.86886(19) 0.3405(2)
C165_27 C 0.63114(19) 0.8405(2) 0.4314(2)
H129_27 H 0.6485 0.9171 0.3777
H130_27 H 0.5829 0.8777 0.3515
H131_27 H 0.6223 0.8515 0.4171
H140_27 H 0.6616 0.9469 0.3813
H141_27 H 0.5531 0.8813 0.3384
H142_27 H 0.6187 0.8384 0.4469
H151_27 H 0.6504 0.9374 0.3521
H152_27 H 0.5626 0.8521 0.3496
H153_27 H 0.6479 0.8496 0.4374
C20_28 C 0.95880(10) 0.32465(13) 0.75829(11)
C21_28 C 0.75829(11) 0.45880(10) 0.82465(13)
C22_28 C 0.82465(13) 0.25829(11) 0.95880(10)
C31_28 C 0.93623(10) 0.33393(12) 0.77646(10)
C32_28 C 0.77646(10) 0.43623(10) 0.83393(12)
C33_28 C 0.83393(12) 0.27646(10) 0.93623(10)
C42_28 C 0.92815(10) 0.31834(13) 0.79882(11)
C43_28 C 0.79882(11) 0.42815(10) 0.81834(13)
C44_28 C 0.81834(13) 0.29882(11) 0.92815(10)
H19_28 H 0.9372 0.3016 0.8029
H20_28 H 0.8029 0.4372 0.8016
H21_28 H 0.8016 0.3029 0.9372
C53_28 C 0.90682(10) 0.32740(12) 0.81524(11)
C54_28 C 0.81524(11) 0.40682(10) 0.82740(12)
C55_28 C 0.82740(12) 0.31524(11) 0.90682(10)
C64_28 C 0.89256(10) 0.35136(11) 0.80922(10)
C65_28 C 0.85136(11) 0.30922(10) 0.89256(10)
C66_28 C 0.80922(10) 0.39256(10) 0.85136(11)
C75_28 C 0.90108(11) 0.36713(12) 0.78691(11)
C76_28 C 0.86713(12) 0.28691(11) 0.90108(11)
C77_28 C 0.78691(11) 0.40108(11) 0.86713(12)
H30_28 H 0.8919 0.3837 0.7826
H31_28 H 0.8837 0.2826 0.8919
H32_28 H 0.7826 0.3919 0.8837
C86_28 C 0.92288(11) 0.35849(12) 0.77112(11)
C87_28 C 0.85849(12) 0.27112(11) 0.92288(11)
C88_28 C 0.77112(11) 0.42288(11) 0.85849(12)
H41_28 H 0.9289 0.3696 0.7563
H42_28 H 0.8696 0.2563 0.9289
H43_28 H 0.7563 0.4289 0.8696
C97_28 C 0.89642(12) 0.31340(12) 0.84071(12)
C98_28 C 0.84071(12) 0.39642(12) 0.81340(12)
C99_28 C 0.81340(12) 0.34071(12) 0.89642(12)
C108_28 C 0.87307(10) 0.33260(11) 0.84900(11)
C109_28 C 0.84900(11) 0.37307(10) 0.83260(11)
C110_28 C 0.83260(11) 0.34900(11) 0.87307(10)
C119_28 C 0.87031(11) 0.35437(11) 0.82994(11)
C120_28 C 0.85437(11) 0.32994(11) 0.87031(11)
C121_28 C 0.82994(11) 0.37031(11) 0.85437(11)
C130_28 C 0.88614(13) 0.28442(13) 0.83322(14)
C131_28 C 0.83322(14) 0.38614(13) 0.78442(13)
C132_28 C 0.78442(13) 0.33322(14) 0.88614(13)
H52_28 H 0.8801 0.2752 0.8502
H53_28 H 0.8502 0.3801 0.7752
H54_28 H 0.7752 0.3502 0.8801
H63_28 H 0.9017 0.2738 0.8257
H64_28 H 0.8257 0.4017 0.7738
H65_28 H 0.7738 0.3257 0.9017
C141_28 C 0.86271(19) 0.28364(16) 0.81257(19)
C142_28 C 0.81257(19) 0.36271(19) 0.78364(16)
C143_28 C 0.78364(16) 0.31257(19) 0.86271(19)
H74_28 H 0.8671 0.2955 0.7970
H75_28 H 0.7970 0.3671 0.7955
H76_28 H 0.7955 0.2970 0.8671
H85_28 H 0.8601 0.2648 0.8061
H86_28 H 0.8061 0.3601 0.7648
H87_28 H 0.7648 0.3061 0.8601
H96_28 H 0.8459 0.2901 0.8213
H97_28 H 0.8213 0.3459 0.7901
H98_28 H 0.7901 0.3213 0.8459
C152_28 C 0.91998(12) 0.31282(15) 0.86188(13)
C153_28 C 0.86188(13) 0.41998(12) 0.81282(15)
C154_28 C 0.81282(15) 0.36188(13) 0.91998(12)
H107_28 H 0.9350 0.3013 0.8546
H108_28 H 0.8546 0.4350 0.8013
H109_28 H 0.8013 0.3546 0.9350
H118_28 H 0.9132 0.3041 0.8789
H119_28 H 0.8789 0.4132 0.8041
H120_28 H 0.8041 0.3789 0.9132
C163_28 C 0.9314(2) 0.3405(2) 0.86886(19)
C164_28 C 0.86886(19) 0.4314(2) 0.8405(2)
C165_28 C 0.8405(2) 0.36886(19) 0.9314(2)
H129_28 H 0.9171 0.3515 0.8777
H130_28 H 0.8777 0.4171 0.8515
H131_28 H 0.8515 0.3777 0.9171
H140_28 H 0.9469 0.3384 0.8813
H141_28 H 0.8813 0.4469 0.8384
H142_28 H 0.8384 0.3813 0.9469
H151_28 H 0.9374 0.3496 0.8521
H152_28 H 0.8521 0.4374 0.8496
H153_28 H 0.8496 0.3521 0.9374
C20_29 C 0.32465(13) 0.45880(10) 0.24171(11)
C21_29 C 0.45880(10) 0.25829(11) 0.17535(13)
C22_29 C 0.25829(11) 0.32465(13) 0.04120(10)
C31_29 C 0.33393(12) 0.43623(10) 0.22354(10)
C32_29 C 0.43623(10) 0.27646(10) 0.16607(12)
C33_29 C 0.27646(10) 0.33393(12) 0.06377(10)
C42_29 C 0.31834(13) 0.42815(10) 0.20118(11)
C43_29 C 0.42815(10) 0.29882(11) 0.18166(13)
C44_29 C 0.29882(11) 0.31834(13) 0.07185(10)
H19_29 H 0.3016 0.4372 0.1971
H20_29 H 0.4372 0.3029 0.1984
H21_29 H 0.3029 0.3016 0.0628
C53_29 C 0.32740(12) 0.40682(10) 0.18476(11)
C54_29 C 0.40682(10) 0.31524(11) 0.17260(12)
C55_29 C 0.31524(11) 0.32740(12) 0.09318(10)
C64_29 C 0.35136(11) 0.39256(10) 0.19078(10)
C65_29 C 0.30922(10) 0.35136(11) 0.10744(10)
C66_29 C 0.39256(10) 0.30922(10) 0.14864(11)
C75_29 C 0.36713(12) 0.40108(11) 0.21309(11)
C76_29 C 0.28691(11) 0.36713(12) 0.09892(11)
C77_29 C 0.40108(11) 0.28691(11) 0.13287(12)
H30_29 H 0.3837 0.3919 0.2174
H31_29 H 0.2826 0.3837 0.1081
H32_29 H 0.3919 0.2826 0.1163
C86_29 C 0.35849(12) 0.42288(11) 0.22888(11)
C87_29 C 0.27112(11) 0.35849(12) 0.07712(11)
C88_29 C 0.42288(11) 0.27112(11) 0.14151(12)
H41_29 H 0.3696 0.4289 0.2437
H42_29 H 0.2563 0.3696 0.0711
H43_29 H 0.4289 0.2563 0.1304
C97_29 C 0.31340(12) 0.39642(12) 0.15929(12)
C98_29 C 0.39642(12) 0.34071(12) 0.18660(12)
C99_29 C 0.34071(12) 0.31340(12) 0.10358(12)
C108_29 C 0.33260(11) 0.37307(10) 0.15100(11)
C109_29 C 0.37307(10) 0.34900(11) 0.16740(11)
C110_29 C 0.34900(11) 0.33260(11) 0.12693(10)
C119_29 C 0.35437(11) 0.37031(11) 0.17006(11)
C120_29 C 0.32994(11) 0.35437(11) 0.12969(11)
C121_29 C 0.37031(11) 0.32994(11) 0.14563(11)
C130_29 C 0.28442(13) 0.38614(13) 0.16678(14)
C131_29 C 0.38614(13) 0.33322(14) 0.21558(13)
C132_29 C 0.33322(14) 0.28442(13) 0.11386(13)
H52_29 H 0.2752 0.3801 0.1498
H53_29 H 0.3801 0.3502 0.2248
H54_29 H 0.3502 0.2752 0.1199
H63_29 H 0.2738 0.4017 0.1743
H64_29 H 0.4017 0.3257 0.2262
H65_29 H 0.3257 0.2738 0.0983
C141_29 C 0.28364(16) 0.36271(19) 0.18743(19)
C142_29 C 0.36271(19) 0.31257(19) 0.21636(16)
C143_29 C 0.31257(19) 0.28364(16) 0.13729(19)
H74_29 H 0.2955 0.3671 0.2030
H75_29 H 0.3671 0.2970 0.2045
H76_29 H 0.2970 0.2955 0.1329
H85_29 H 0.2648 0.3601 0.1939
H86_29 H 0.3601 0.3061 0.2352
H87_29 H 0.3061 0.2648 0.1399
H96_29 H 0.2901 0.3459 0.1787
H97_29 H 0.3459 0.3213 0.2099
H98_29 H 0.3213 0.2901 0.1541
C152_29 C 0.31282(15) 0.41998(12) 0.13812(13)
C153_29 C 0.41998(12) 0.36188(13) 0.18718(15)
C154_29 C 0.36188(13) 0.31282(15) 0.08002(12)
H107_29 H 0.3013 0.4350 0.1454
H108_29 H 0.4350 0.3546 0.1987
H109_29 H 0.3546 0.3013 0.0650
H118_29 H 0.3041 0.4132 0.1211
H119_29 H 0.4132 0.3789 0.1959
H120_29 H 0.3789 0.3041 0.0868
C163_29 C 0.3405(2) 0.4314(2) 0.13114(19)
C164_29 C 0.4314(2) 0.36886(19) 0.1595(2)
C165_29 C 0.36886(19) 0.3405(2) 0.0686(2)
H129_29 H 0.3515 0.4171 0.1223
H130_29 H 0.4171 0.3777 0.1485
H131_29 H 0.3777 0.3515 0.0829
H140_29 H 0.3384 0.4469 0.1187
H141_29 H 0.4469 0.3813 0.1616
H142_29 H 0.3813 0.3384 0.0531
H151_29 H 0.3496 0.4374 0.1479
H152_29 H 0.4374 0.3521 0.1504
H153_29 H 0.3521 0.3496 0.0626
C20_30 C 0.32465(13) 0.54120(10) 0.75829(11)
C21_30 C 0.45880(10) 0.74171(11) 0.82465(13)
C22_30 C 0.25829(11) 0.67535(13) 0.95880(10)
C31_30 C 0.33393(12) 0.56377(10) 0.77646(10)
C32_30 C 0.43623(10) 0.72354(10) 0.83393(12)
C33_30 C 0.27646(10) 0.66607(12) 0.93623(10)
C42_30 C 0.31834(13) 0.57185(10) 0.79882(11)
C43_30 C 0.42815(10) 0.70118(11) 0.81834(13)
C44_30 C 0.29882(11) 0.68166(13) 0.92815(10)
H19_30 H 0.3016 0.5628 0.8029
H20_30 H 0.4372 0.6971 0.8016
H21_30 H 0.3029 0.6984 0.9372
C53_30 C 0.32740(12) 0.59318(10) 0.81524(11)
C54_30 C 0.40682(10) 0.68476(11) 0.82740(12)
C55_30 C 0.31524(11) 0.67260(12) 0.90682(10)
C64_30 C 0.35136(11) 0.60744(10) 0.80922(10)
C65_30 C 0.30922(10) 0.64864(11) 0.89256(10)
C66_30 C 0.39256(10) 0.69078(10) 0.85136(11)
C75_30 C 0.36713(12) 0.59892(11) 0.78691(11)
C76_30 C 0.28691(11) 0.63287(12) 0.90108(11)
C77_30 C 0.40108(11) 0.71309(11) 0.86713(12)
H30_30 H 0.3837 0.6081 0.7826
H31_30 H 0.2826 0.6163 0.8919
H32_30 H 0.3919 0.7174 0.8837
C86_30 C 0.35849(12) 0.57712(11) 0.77112(11)
C87_30 C 0.27112(11) 0.64151(12) 0.92288(11)
C88_30 C 0.42288(11) 0.72888(11) 0.85849(12)
H41_30 H 0.3696 0.5711 0.7563
H42_30 H 0.2563 0.6304 0.9289
H43_30 H 0.4289 0.7437 0.8696
C97_30 C 0.31340(12) 0.60358(12) 0.84071(12)
C98_30 C 0.39642(12) 0.65929(12) 0.81340(12)
C99_30 C 0.34071(12) 0.68660(12) 0.89642(12)
C108_30 C 0.33260(11) 0.62693(10) 0.84900(11)
C109_30 C 0.37307(10) 0.65100(11) 0.83260(11)
C110_30 C 0.34900(11) 0.66740(11) 0.87307(10)
C119_30 C 0.35437(11) 0.62969(11) 0.82994(11)
C120_30 C 0.32994(11) 0.64563(11) 0.87031(11)
C121_30 C 0.37031(11) 0.67006(11) 0.85437(11)
C130_30 C 0.28442(13) 0.61386(13) 0.83322(14)
C131_30 C 0.38614(13) 0.66678(14) 0.78442(13)
C132_30 C 0.33322(14) 0.71558(13) 0.88614(13)
H52_30 H 0.2752 0.6199 0.8502
H53_30 H 0.3801 0.6498 0.7752
H54_30 H 0.3502 0.7248 0.8801
H63_30 H 0.2738 0.5983 0.8257
H64_30 H 0.4017 0.6743 0.7738
H65_30 H 0.3257 0.7262 0.9017
C141_30 C 0.28364(16) 0.63729(19) 0.81257(19)
C142_30 C 0.36271(19) 0.68743(19) 0.78364(16)
C143_30 C 0.31257(19) 0.71636(16) 0.86271(19)
H74_30 H 0.2955 0.6329 0.7970
H75_30 H 0.3671 0.7030 0.7955
H76_30 H 0.2970 0.7045 0.8671
H85_30 H 0.2648 0.6399 0.8061
H86_30 H 0.3601 0.6939 0.7648
H87_30 H 0.3061 0.7352 0.8601
H96_30 H 0.2901 0.6541 0.8213
H97_30 H 0.3459 0.6787 0.7901
H98_30 H 0.3213 0.7099 0.8459
C152_30 C 0.31282(15) 0.58002(12) 0.86188(13)
C153_30 C 0.41998(12) 0.63812(13) 0.81282(15)
C154_30 C 0.36188(13) 0.68718(15) 0.91998(12)
H107_30 H 0.3013 0.5650 0.8546
H108_30 H 0.4350 0.6454 0.8013
H109_30 H 0.3546 0.6987 0.9350
H118_30 H 0.3041 0.5868 0.8789
H119_30 H 0.4132 0.6211 0.8041
H120_30 H 0.3789 0.6959 0.9132
C163_30 C 0.3405(2) 0.5686(2) 0.86886(19)
C164_30 C 0.4314(2) 0.63114(19) 0.8405(2)
C165_30 C 0.36886(19) 0.6595(2) 0.9314(2)
H129_30 H 0.3515 0.5829 0.8777
H130_30 H 0.4171 0.6223 0.8515
H131_30 H 0.3777 0.6485 0.9171
H140_30 H 0.3384 0.5531 0.8813
H141_30 H 0.4469 0.6187 0.8384
H142_30 H 0.3813 0.6616 0.9469
H151_30 H 0.3496 0.5626 0.8521
H152_30 H 0.4374 0.6479 0.8496
H153_30 H 0.3521 0.6504 0.9374
C20_31 C 0.67535(13) 0.45880(10) 0.75829(11)
C21_31 C 0.54120(10) 0.25829(11) 0.82465(13)
C22_31 C 0.74171(11) 0.32465(13) 0.95880(10)
C31_31 C 0.66607(12) 0.43623(10) 0.77646(10)
C32_31 C 0.56377(10) 0.27646(10) 0.83393(12)
C33_31 C 0.72354(10) 0.33393(12) 0.93623(10)
C42_31 C 0.68166(13) 0.42815(10) 0.79882(11)
C43_31 C 0.57185(10) 0.29882(11) 0.81834(13)
C44_31 C 0.70118(11) 0.31834(13) 0.92815(10)
H19_31 H 0.6984 0.4372 0.8029
H20_31 H 0.5628 0.3029 0.8016
H21_31 H 0.6971 0.3016 0.9372
C53_31 C 0.67260(12) 0.40682(10) 0.81524(11)
C54_31 C 0.59318(10) 0.31524(11) 0.82740(12)
C55_31 C 0.68476(11) 0.32740(12) 0.90682(10)
C64_31 C 0.64864(11) 0.39256(10) 0.80922(10)
C65_31 C 0.69078(10) 0.35136(11) 0.89256(10)
C66_31 C 0.60744(10) 0.30922(10) 0.85136(11)
C75_31 C 0.63287(12) 0.40108(11) 0.78691(11)
C76_31 C 0.71309(11) 0.36713(12) 0.90108(11)
C77_31 C 0.59892(11) 0.28691(11) 0.86713(12)
H30_31 H 0.6163 0.3919 0.7826
H31_31 H 0.7174 0.3837 0.8919
H32_31 H 0.6081 0.2826 0.8837
C86_31 C 0.64151(12) 0.42288(11) 0.77112(11)
C87_31 C 0.72888(11) 0.35849(12) 0.92288(11)
C88_31 C 0.57712(11) 0.27112(11) 0.85849(12)
H41_31 H 0.6304 0.4289 0.7563
H42_31 H 0.7437 0.3696 0.9289
H43_31 H 0.5711 0.2563 0.8696
C97_31 C 0.68660(12) 0.39642(12) 0.84071(12)
C98_31 C 0.60358(12) 0.34071(12) 0.81340(12)
C99_31 C 0.65929(12) 0.31340(12) 0.89642(12)
C108_31 C 0.66740(11) 0.37307(10) 0.84900(11)
C109_31 C 0.62693(10) 0.34900(11) 0.83260(11)
C110_31 C 0.65100(11) 0.33260(11) 0.87307(10)
C119_31 C 0.64563(11) 0.37031(11) 0.82994(11)
C120_31 C 0.67006(11) 0.35437(11) 0.87031(11)
C121_31 C 0.62969(11) 0.32994(11) 0.85437(11)
C130_31 C 0.71558(13) 0.38614(13) 0.83322(14)
C131_31 C 0.61386(13) 0.33322(14) 0.78442(13)
C132_31 C 0.66678(14) 0.28442(13) 0.88614(13)
H52_31 H 0.7248 0.3801 0.8502
H53_31 H 0.6199 0.3502 0.7752
H54_31 H 0.6498 0.2752 0.8801
H63_31 H 0.7262 0.4017 0.8257
H64_31 H 0.5983 0.3257 0.7738
H65_31 H 0.6743 0.2738 0.9017
C141_31 C 0.71636(16) 0.36271(19) 0.81257(19)
C142_31 C 0.63729(19) 0.31257(19) 0.78364(16)
C143_31 C 0.68743(19) 0.28364(16) 0.86271(19)
H74_31 H 0.7045 0.3671 0.7970
H75_31 H 0.6329 0.2970 0.7955
H76_31 H 0.7030 0.2955 0.8671
H85_31 H 0.7352 0.3601 0.8061
H86_31 H 0.6399 0.3061 0.7648
H87_31 H 0.6939 0.2648 0.8601
H96_31 H 0.7099 0.3459 0.8213
H97_31 H 0.6541 0.3213 0.7901
H98_31 H 0.6787 0.2901 0.8459
C152_31 C 0.68718(15) 0.41998(12) 0.86188(13)
C153_31 C 0.58002(12) 0.36188(13) 0.81282(15)
C154_31 C 0.63812(13) 0.31282(15) 0.91998(12)
H107_31 H 0.6987 0.4350 0.8546
H108_31 H 0.5650 0.3546 0.8013
H109_31 H 0.6454 0.3013 0.9350
H118_31 H 0.6959 0.4132 0.8789
H119_31 H 0.5868 0.3789 0.8041
H120_31 H 0.6211 0.3041 0.9132
C163_31 C 0.6595(2) 0.4314(2) 0.86886(19)
C164_31 C 0.5686(2) 0.36886(19) 0.8405(2)
C165_31 C 0.63114(19) 0.3405(2) 0.9314(2)
H129_31 H 0.6485 0.4171 0.8777
H130_31 H 0.5829 0.3777 0.8515
H131_31 H 0.6223 0.3515 0.9171
H140_31 H 0.6616 0.4469 0.8813
H141_31 H 0.5531 0.3813 0.8384
H142_31 H 0.6187 0.3384 0.9469
H151_31 H 0.6504 0.4374 0.8521
H152_31 H 0.5626 0.3521 0.8496
H153_31 H 0.6479 0.3496 0.9374
C20_32 C 0.95880(10) 0.82465(13) 0.25829(11)
C21_32 C 0.75829(11) 0.95880(10) 0.32465(13)
C22_32 C 0.82465(13) 0.75829(11) 0.45880(10)
C31_32 C 0.93623(10) 0.83393(12) 0.27646(10)
C32_32 C 0.77646(10) 0.93623(10) 0.33393(12)
C33_32 C 0.83393(12) 0.77646(10) 0.43623(10)
C42_32 C 0.92815(10) 0.81834(13) 0.29882(11)
C43_32 C 0.79882(11) 0.92815(10) 0.31834(13)
C44_32 C 0.81834(13) 0.79882(11) 0.42815(10)
H19_32 H 0.9372 0.8016 0.3029
H20_32 H 0.8029 0.9372 0.3016
H21_32 H 0.8016 0.8029 0.4372
C53_32 C 0.90682(10) 0.82740(12) 0.31524(11)
C54_32 C 0.81524(11) 0.90682(10) 0.32740(12)
C55_32 C 0.82740(12) 0.81524(11) 0.40682(10)
C64_32 C 0.89256(10) 0.85136(11) 0.30922(10)
C65_32 C 0.85136(11) 0.80922(10) 0.39256(10)
C66_32 C 0.80922(10) 0.89256(10) 0.35136(11)
C75_32 C 0.90108(11) 0.86713(12) 0.28691(11)
C76_32 C 0.86713(12) 0.78691(11) 0.40108(11)
C77_32 C 0.78691(11) 0.90108(11) 0.36713(12)
H30_32 H 0.8919 0.8837 0.2826
H31_32 H 0.8837 0.7826 0.3919
H32_32 H 0.7826 0.8919 0.3837
C86_32 C 0.92288(11) 0.85849(12) 0.27112(11)
C87_32 C 0.85849(12) 0.77112(11) 0.42288(11)
C88_32 C 0.77112(11) 0.92288(11) 0.35849(12)
H41_32 H 0.9289 0.8696 0.2563
H42_32 H 0.8696 0.7563 0.4289
H43_32 H 0.7563 0.9289 0.3696
C97_32 C 0.89642(12) 0.81340(12) 0.34071(12)
C98_32 C 0.84071(12) 0.89642(12) 0.31340(12)
C99_32 C 0.81340(12) 0.84071(12) 0.39642(12)
C108_32 C 0.87307(10) 0.83260(11) 0.34900(11)
C109_32 C 0.84900(11) 0.87307(10) 0.33260(11)
C110_32 C 0.83260(11) 0.84900(11) 0.37307(10)
C119_32 C 0.87031(11) 0.85437(11) 0.32994(11)
C120_32 C 0.85437(11) 0.82994(11) 0.37031(11)
C121_32 C 0.82994(11) 0.87031(11) 0.35437(11)
C130_32 C 0.88614(13) 0.78442(13) 0.33322(14)
C131_32 C 0.83322(14) 0.88614(13) 0.28442(13)
C132_32 C 0.78442(13) 0.83322(14) 0.38614(13)
H52_32 H 0.8801 0.7752 0.3502
H53_32 H 0.8502 0.8801 0.2752
H54_32 H 0.7752 0.8502 0.3801
H63_32 H 0.9017 0.7738 0.3257
H64_32 H 0.8257 0.9017 0.2738
H65_32 H 0.7738 0.8257 0.4017
C141_32 C 0.86271(19) 0.78364(16) 0.31257(19)
C142_32 C 0.81257(19) 0.86271(19) 0.28364(16)
C143_32 C 0.78364(16) 0.81257(19) 0.36271(19)
H74_32 H 0.8671 0.7955 0.2970
H75_32 H 0.7970 0.8671 0.2955
H76_32 H 0.7955 0.7970 0.3671
H85_32 H 0.8601 0.7648 0.3061
H86_32 H 0.8061 0.8601 0.2648
H87_32 H 0.7648 0.8061 0.3601
H96_32 H 0.8459 0.7901 0.3213
H97_32 H 0.8213 0.8459 0.2901
H98_32 H 0.7901 0.8213 0.3459
C152_32 C 0.91998(12) 0.81282(15) 0.36188(13)
C153_32 C 0.86188(13) 0.91998(12) 0.31282(15)
C154_32 C 0.81282(15) 0.86188(13) 0.41998(12)
H107_32 H 0.9350 0.8013 0.3546
H108_32 H 0.8546 0.9350 0.3013
H109_32 H 0.8013 0.8546 0.4350
H118_32 H 0.9132 0.8041 0.3789
H119_32 H 0.8789 0.9132 0.3041
H120_32 H 0.8041 0.8789 0.4132
C163_32 C 0.9314(2) 0.8405(2) 0.36886(19)
C164_32 C 0.86886(19) 0.9314(2) 0.3405(2)
C165_32 C 0.8405(2) 0.86886(19) 0.4314(2)
H129_32 H 0.9171 0.8515 0.3777
H130_32 H 0.8777 0.9171 0.3515
H131_32 H 0.8515 0.8777 0.4171
H140_32 H 0.9469 0.8384 0.3813
H141_32 H 0.8813 0.9469 0.3384
H142_32 H 0.8384 0.8813 0.4469
H151_32 H 0.9374 0.8496 0.3521
H152_32 H 0.8521 0.9374 0.3496
H153_32 H 0.8496 0.8521 0.4374
O44 O 0.3244(4) 0.9412(4) 0.0980(4)
O44_2 O 0.0980(4) 0.3244(4) 0.9412(4)
O44_3 O 0.9412(4) 0.0980(4) 0.3244(4)
O44_4 O 0.4412(4) 0.8244(4) 0.4020(4)
O44_5 O 0.4412(4) 0.1756(4) 0.5980(4)
O44_6 O 0.5588(4) 0.8244(4) 0.5980(4)
O44_7 O 0.8244(4) 0.5980(4) 0.5588(4)
O44_8 O 0.1756(4) 0.5980(4) 0.4412(4)
O44_9 O 0.8244(4) 0.4020(4) 0.4412(4)
O44_10 O 0.5980(4) 0.4412(4) 0.1756(4)
O44_11 O 0.5980(4) 0.5588(4) 0.8244(4)
O44_12 O 0.4020(4) 0.4412(4) 0.8244(4)
O44_13 O 0.3244(4) 0.4412(4) 0.5980(4)
O44_14 O 0.0980(4) 0.8244(4) 0.4412(4)
O44_15 O 0.9412(4) 0.5980(4) 0.8244(4)
O44_16 O 0.4412(4) 0.3244(4) 0.9020(4)
O44_17 O 0.4412(4) 0.6756(4) 0.0980(4)
O44_18 O 0.5588(4) 0.3244(4) 0.0980(4)
O44_19 O 0.8244(4) 0.0980(4) 0.0588(4)
O44_20 O 0.1756(4) 0.0980(4) 0.9412(4)
O44_21 O 0.8244(4) 0.9020(4) 0.9412(4)
O44_22 O 0.5980(4) 0.9412(4) 0.6756(4)
O44_23 O 0.5980(4) 0.0588(4) 0.3244(4)
O44_24 O 0.4020(4) 0.9412(4) 0.3244(4)
O44_25 O 0.8244(4) 0.9412(4) 0.5980(4)
O44_26 O 0.5980(4) 0.3244(4) 0.4412(4)
O44_27 O 0.4412(4) 0.0980(4) 0.8244(4)
O44_28 O 0.9412(4) 0.8244(4) 0.9020(4)
O44_29 O 0.9412(4) 0.1756(4) 0.0980(4)
O44_30 O 0.0588(4) 0.8244(4) 0.0980(4)
O44_31 O 0.3244(4) 0.5980(4) 0.0588(4)
O44_32 O 0.6756(4) 0.5980(4) 0.9412(4)
O44_33 O 0.3244(4) 0.4020(4) 0.9412(4)
O44_34 O 0.0980(4) 0.4412(4) 0.6756(4)
O44_35 O 0.0980(4) 0.5588(4) 0.3244(4)
O44_36 O 0.9020(4) 0.4412(4) 0.3244(4)
O44_37 O 0.8244(4) 0.4412(4) 0.0980(4)
O44_38 O 0.5980(4) 0.8244(4) 0.9412(4)
O44_39 O 0.4412(4) 0.5980(4) 0.3244(4)
O44_40 O 0.9412(4) 0.3244(4) 0.4020(4)
O44_41 O 0.9412(4) 0.6756(4) 0.5980(4)
O44_42 O 0.0588(4) 0.3244(4) 0.5980(4)
O44_43 O 0.3244(4) 0.0980(4) 0.5588(4)
O44_44 O 0.6756(4) 0.0980(4) 0.4412(4)
O44_45 O 0.3244(4) 0.9020(4) 0.4412(4)
O44_46 O 0.0980(4) 0.9412(4) 0.1756(4)
O44_47 O 0.0980(4) 0.0588(4) 0.8244(4)
O44_48 O 0.9020(4) 0.9412(4) 0.8244(4)
O44_49 O 0.6756(4) 0.0588(4) 0.0980(4)
O44_50 O 0.6756(4) 0.9412(4) 0.9020(4)
O44_51 O 0.3244(4) 0.0588(4) 0.9020(4)
O44_52 O 0.0980(4) 0.6756(4) 0.0588(4)
O44_53 O 0.9020(4) 0.6756(4) 0.9412(4)
O44_54 O 0.9020(4) 0.3244(4) 0.0588(4)
O44_55 O 0.0588(4) 0.0980(4) 0.6756(4)
O44_56 O 0.9412(4) 0.9020(4) 0.6756(4)
O44_57 O 0.0588(4) 0.9020(4) 0.3244(4)
O44_58 O 0.5588(4) 0.1756(4) 0.4020(4)
O44_59 O 0.1756(4) 0.4020(4) 0.5588(4)
O44_60 O 0.4020(4) 0.5588(4) 0.1756(4)
O44_61 O 0.6756(4) 0.5588(4) 0.5980(4)
O44_62 O 0.6756(4) 0.4412(4) 0.4020(4)
O44_63 O 0.3244(4) 0.5588(4) 0.4020(4)
O44_64 O 0.0980(4) 0.1756(4) 0.5588(4)
O44_65 O 0.9020(4) 0.1756(4) 0.4412(4)
O44_66 O 0.9020(4) 0.8244(4) 0.5588(4)
O44_67 O 0.0588(4) 0.5980(4) 0.1756(4)
O44_68 O 0.9412(4) 0.4020(4) 0.1756(4)
O44_69 O 0.0588(4) 0.4020(4) 0.8244(4)
O44_70 O 0.5588(4) 0.6756(4) 0.9020(4)
O44_71 O 0.1756(4) 0.9020(4) 0.0588(4)
O44_72 O 0.4020(4) 0.0588(4) 0.6756(4)
O44_73 O 0.1756(4) 0.0588(4) 0.5980(4)
O44_74 O 0.1756(4) 0.9412(4) 0.4020(4)
O44_75 O 0.8244(4) 0.0588(4) 0.4020(4)
O44_76 O 0.5980(4) 0.6756(4) 0.5588(4)
O44_77 O 0.4020(4) 0.6756(4) 0.4412(4)
O44_78 O 0.4020(4) 0.3244(4) 0.5588(4)
O44_79 O 0.5588(4) 0.0980(4) 0.1756(4)
O44_80 O 0.4412(4) 0.9020(4) 0.1756(4)
O44_81 O 0.5588(4) 0.9020(4) 0.8244(4)
O44_82 O 0.0588(4) 0.1756(4) 0.9020(4)
O44_83 O 0.6756(4) 0.4020(4) 0.0588(4)
O44_84 O 0.9020(4) 0.5588(4) 0.6756(4)
O44_85 O 0.1756(4) 0.5588(4) 0.0980(4)
O44_86 O 0.1756(4) 0.4412(4) 0.9020(4)
O44_87 O 0.8244(4) 0.5588(4) 0.9020(4)
O44_88 O 0.5980(4) 0.1756(4) 0.0588(4)
O44_89 O 0.4020(4) 0.1756(4) 0.9412(4)
O44_90 O 0.4020(4) 0.8244(4) 0.0588(4)
O44_91 O 0.5588(4) 0.5980(4) 0.6756(4)
O44_92 O 0.4412(4) 0.4020(4) 0.6756(4)
O44_93 O 0.5588(4) 0.4020(4) 0.3244(4)
O44_94 O 0.0588(4) 0.6756(4) 0.4020(4)
O44_95 O 0.6756(4) 0.9020(4) 0.5588(4)
O44_96 O 0.9020(4) 0.0588(4) 0.1756(4)
O44_97 O 0.6756(4) 0.0588(4) 0.9020(4)
O44_98 O 0.9020(4) 0.6756(4) 0.0588(4)
O44_99 O 0.0588(4) 0.9020(4) 0.6756(4)
O44_100 O 0.5588(4) 0.1756(4) 0.5980(4)
O44_101 O 0.5588(4) 0.8244(4) 0.4020(4)
O44_102 O 0.4412(4) 0.1756(4) 0.4020(4)
O44_103 O 0.1756(4) 0.4020(4) 0.4412(4)
O44_104 O 0.8244(4) 0.4020(4) 0.5588(4)
O44_105 O 0.1756(4) 0.5980(4) 0.5588(4)
O44_106 O 0.4020(4) 0.5588(4) 0.8244(4)
O44_107 O 0.4020(4) 0.4412(4) 0.1756(4)
O44_108 O 0.5980(4) 0.5588(4) 0.1756(4)
O44_109 O 0.6756(4) 0.5588(4) 0.4020(4)
O44_110 O 0.9020(4) 0.1756(4) 0.5588(4)
O44_111 O 0.0588(4) 0.4020(4) 0.1756(4)
O44_112 O 0.5588(4) 0.6756(4) 0.0980(4)
O44_113 O 0.5588(4) 0.3244(4) 0.9020(4)
O44_114 O 0.4412(4) 0.6756(4) 0.9020(4)
O44_115 O 0.1756(4) 0.9020(4) 0.9412(4)
O44_116 O 0.8244(4) 0.9020(4) 0.0588(4)
O44_117 O 0.1756(4) 0.0980(4) 0.0588(4)
O44_118 O 0.4020(4) 0.0588(4) 0.3244(4)
O44_119 O 0.4020(4) 0.9412(4) 0.6756(4)
O44_120 O 0.5980(4) 0.0588(4) 0.6756(4)
O44_121 O 0.1756(4) 0.0588(4) 0.4020(4)
O44_122 O 0.4020(4) 0.6756(4) 0.5588(4)
O44_123 O 0.5588(4) 0.9020(4) 0.1756(4)
O44_124 O 0.0588(4) 0.1756(4) 0.0980(4)
O44_125 O 0.0588(4) 0.8244(4) 0.9020(4)
O44_126 O 0.9412(4) 0.1756(4) 0.9020(4)
O44_127 O 0.6756(4) 0.4020(4) 0.9412(4)
O44_128 O 0.3244(4) 0.4020(4) 0.0588(4)
O44_129 O 0.6756(4) 0.5980(4) 0.0588(4)
O44_130 O 0.9020(4) 0.5588(4) 0.3244(4)
O44_131 O 0.9020(4) 0.4412(4) 0.6756(4)
O44_132 O 0.0980(4) 0.5588(4) 0.6756(4)
O44_133 O 0.1756(4) 0.5588(4) 0.9020(4)
O44_134 O 0.4020(4) 0.1756(4) 0.0588(4)
O44_135 O 0.5588(4) 0.4020(4) 0.6756(4)
O44_136 O 0.0588(4) 0.6756(4) 0.5980(4)
O44_137 O 0.0588(4) 0.3244(4) 0.4020(4)
O44_138 O 0.9412(4) 0.6756(4) 0.4020(4)
O44_139 O 0.6756(4) 0.9020(4) 0.4412(4)
O44_140 O 0.3244(4) 0.9020(4) 0.5588(4)
O44_141 O 0.6756(4) 0.0980(4) 0.5588(4)
O44_142 O 0.9020(4) 0.0588(4) 0.8244(4)
O44_143 O 0.9020(4) 0.9412(4) 0.1756(4)
O44_144 O 0.0980(4) 0.0588(4) 0.1756(4)
O44_145 O 0.3244(4) 0.9412(4) 0.9020(4)
O44_146 O 0.3244(4) 0.0588(4) 0.0980(4)
O44_147 O 0.6756(4) 0.9412(4) 0.0980(4)
O44_148 O 0.9020(4) 0.3244(4) 0.9412(4)
O44_149 O 0.0980(4) 0.3244(4) 0.0588(4)
O44_150 O 0.0980(4) 0.6756(4) 0.9412(4)
O44_151 O 0.9412(4) 0.9020(4) 0.3244(4)
O44_152 O 0.0588(4) 0.0980(4) 0.3244(4)
O44_153 O 0.9412(4) 0.0980(4) 0.6756(4)
O44_154 O 0.4412(4) 0.8244(4) 0.5980(4)
O44_155 O 0.8244(4) 0.5980(4) 0.4412(4)
O44_156 O 0.5980(4) 0.4412(4) 0.8244(4)
O44_157 O 0.3244(4) 0.4412(4) 0.4020(4)
O44_158 O 0.3244(4) 0.5588(4) 0.5980(4)
O44_159 O 0.6756(4) 0.4412(4) 0.5980(4)
O44_160 O 0.9020(4) 0.8244(4) 0.4412(4)
O44_161 O 0.0980(4) 0.8244(4) 0.5588(4)
O44_162 O 0.0980(4) 0.1756(4) 0.4412(4)
O44_163 O 0.9412(4) 0.4020(4) 0.8244(4)
O44_164 O 0.0588(4) 0.5980(4) 0.8244(4)
O44_165 O 0.9412(4) 0.5980(4) 0.1756(4)
O44_166 O 0.4412(4) 0.3244(4) 0.0980(4)
O44_167 O 0.8244(4) 0.0980(4) 0.9412(4)
O44_168 O 0.5980(4) 0.9412(4) 0.3244(4)
O44_169 O 0.8244(4) 0.9412(4) 0.4020(4)
O44_170 O 0.8244(4) 0.0588(4) 0.5980(4)
O44_171 O 0.1756(4) 0.9412(4) 0.5980(4)
O44_172 O 0.4020(4) 0.3244(4) 0.4412(4)
O44_173 O 0.5980(4) 0.3244(4) 0.5588(4)
O44_174 O 0.5980(4) 0.6756(4) 0.4412(4)
O44_175 O 0.4412(4) 0.9020(4) 0.8244(4)
O44_176 O 0.5588(4) 0.0980(4) 0.8244(4)
O44_177 O 0.4412(4) 0.0980(4) 0.1756(4)
O44_178 O 0.9412(4) 0.8244(4) 0.0980(4)
O44_179 O 0.3244(4) 0.5980(4) 0.9412(4)
O44_180 O 0.0980(4) 0.4412(4) 0.3244(4)
O44_181 O 0.8244(4) 0.4412(4) 0.9020(4)
O44_182 O 0.8244(4) 0.5588(4) 0.0980(4)
O44_183 O 0.1756(4) 0.4412(4) 0.0980(4)
O44_184 O 0.4020(4) 0.8244(4) 0.9412(4)
O44_185 O 0.5980(4) 0.8244(4) 0.0588(4)
O44_186 O 0.5980(4) 0.1756(4) 0.9412(4)
O44_187 O 0.4412(4) 0.4020(4) 0.3244(4)
O44_188 O 0.5588(4) 0.5980(4) 0.3244(4)
O44_189 O 0.4412(4) 0.5980(4) 0.6756(4)
O44_190 O 0.9412(4) 0.3244(4) 0.5980(4)
O44_191 O 0.3244(4) 0.0980(4) 0.4412(4)
O44_192 O 0.0980(4) 0.9412(4) 0.8244(4)
loop_
_geom_bond_atom_site_label_1
_geom_bond_atom_site_label_2
_geom_bond_site_symmetry_1
_geom_bond_site_symmetry_2
O3 H166 1_555 1_555
O3 H167 1_555 1_555
O3_2 H166_2 1_555 1_555
O3_2 H168 1_555 1_555
O3_3 H166_3 1_555 1_555
O3_3 H167_2 1_555 1_555
O3_4 H166_4 1_555 1_555
O3_4 H168_2 1_555 1_555
O3_5 H166_5 1_555 1_555
O3_5 H167_3 1_555 1_555
O3_6 H166_6 1_555 1_555
O3_6 H168_3 1_555 1_555
O3_18 H166_7 1_555 1_555
O3_18 H167_4 1_555 1_555
O3_19 H166_8 1_555 1_555
O3_19 H168_4 1_555 1_555
O3_23 H166_9 1_555 1_555
O3_23 H168_5 1_555 1_555
O3_24 H166_10 1_555 1_555
O3_24 H167_5 1_555 1_555
O3_25 H166_11 1_555 1_555
O3_25 H167_6 1_555 1_555
O3_26 H166_12 1_555 1_555
O3_26 H168_6 1_555 1_555
O3_27 H166_13 1_555 1_555
O3_27 H167_7 1_555 1_555
O3_28 H166_14 1_555 1_555
O3_28 H168_7 1_555 1_555
O3_29 H166_15 1_555 1_555
O3_29 H167_8 1_555 1_555
O3_30 H166_16 1_555 1_555
O3_30 H168_8 1_555 1_555
O3_31 H166_17 1_555 1_555
O3_31 H168_9 1_555 1_555
O3_32 H166_18 1_555 1_555
O3_32 H167_9 1_555 1_555
O3_33 H166_19 1_555 1_555
O3_33 H167_10 1_555 1_555
O3_34 H166_20 1_555 1_555
O3_34 H168_10 1_555 1_555
O3_35 H166_21 1_555 1_555
O3_35 H167_11 1_555 1_555
O3_36 H166_22 1_555 1_555
O3_36 H168_11 1_555 1_555
O3_39 H166_23 1_555 1_555
O3_39 H167_12 1_555 1_555
O3_40 H166_24 1_555 1_555
O3_40 H168_12 1_555 1_555
O3_41 H166_25 1_555 1_555
O3_41 H167_13 1_555 1_555
O3_42 H166_26 1_555 1_555
O3_42 H168_13 1_555 1_555
O3_43 H166_27 1_555 1_555
O3_43 H168_14 1_555 1_555
O3_44 H166_28 1_555 1_555
O3_44 H167_14 1_555 1_555
O3_45 H166_29 1_555 1_555
O3_45 H168_15 1_555 1_555
O3_46 H166_30 1_555 1_555
O3_46 H167_15 1_555 1_555
O3_47 H166_31 1_555 1_555
O3_47 H167_16 1_555 1_555
O3_48 H166_32 1_555 1_555
O3_48 H168_16 1_555 1_555
O3_49 H166_33 1_555 1_555
O3_49 H167_17 1_555 1_555
O3_50 H166_34 1_555 1_555
O3_50 H168_17 1_555 1_555
O3_55 H166_35 1_555 1_555
O3_55 H167_18 1_555 1_555
O3_56 H166_36 1_555 1_555
O3_56 H168_18 1_555 1_555
O3_58 H166_37 1_555 1_555
O3_58 H167_19 1_555 1_555
O3_59 H166_38 1_555 1_555
O3_59 H168_19 1_555 1_555
O3_60 H166_39 1_555 1_555
O3_60 H167_20 1_555 1_555
O3_61 H166_40 1_555 1_555
O3_61 H168_20 1_555 1_555
O3_62 H166_41 1_555 1_555
O3_62 H168_21 1_555 1_555
O3_63 H166_42 1_555 1_555
O3_63 H167_21 1_555 1_555
O3_67 H166_43 1_555 1_555
O3_67 H167_22 1_555 1_555
O3_68 H166_44 1_555 1_555
O3_68 H168_22 1_555 1_555
O3_69 H166_45 1_555 1_555
O3_69 H168_23 1_555 1_555
O3_70 H166_46 1_555 1_555
O3_70 H167_23 1_555 1_555
O3_71 H166_47 1_555 1_555
O3_71 H167_24 1_555 1_555
O3_72 H166_48 1_555 1_555
O3_72 H168_24 1_555 1_555
O3_73 H166_49 1_555 1_555
O3_73 H168_25 1_555 1_555
O3_74 H166_50 1_555 1_555
O3_74 H167_25 1_555 1_555
O3_75 H166_51 1_555 1_555
O3_75 H167_26 1_555 1_555
O3_76 H166_52 1_555 1_555
O3_76 H168_26 1_555 1_555
O3_77 H166_53 1_555 1_555
O3_77 H168_27 1_555 1_555
O3_78 H166_54 1_555 1_555
O3_78 H167_27 1_555 1_555
O3_79 H166_55 1_555 1_555
O3_79 H168_28 1_555 1_555
O3_80 H166_56 1_555 1_555
O3_80 H167_28 1_555 1_555
O3_81 H166_57 1_555 1_555
O3_81 H167_29 1_555 1_555
O3_82 H166_58 1_555 1_555
O3_82 H168_29 1_555 1_555
O3_83 H166_59 1_555 1_555
O3_83 H168_30 1_555 1_555
O3_84 H166_60 1_555 1_555
O3_84 H167_30 1_555 1_555
O3_85 H166_61 1_555 1_555
O3_85 H168_31 1_555 1_555
O3_86 H166_62 1_555 1_555
O3_86 H167_31 1_555 1_555
O3_87 H166_63 1_555 1_555
O3_87 H167_32 1_555 1_555
O3_88 H166_64 1_555 1_555
O3_88 H168_32 1_555 1_555
O3_89 H166_65 1_555 1_555
O3_89 H168_33 1_555 1_555
O3_90 H166_66 1_555 1_555
O3_90 H167_33 1_555 1_555
O3_100 H166_67 1_555 1_555
O3_100 H168_34 1_555 1_555
O3_101 H166_68 1_555 1_555
O3_101 H167_34 1_555 1_555
O3_102 H166_69 1_555 1_555
O3_102 H167_35 1_555 1_555
O3_103 H166_70 1_555 1_555
O3_103 H168_35 1_555 1_555
O3_104 H166_71 1_555 1_555
O3_104 H168_36 1_555 1_555
O3_105 H166_72 1_555 1_555
O3_105 H167_36 1_555 1_555
O3_107 H166_73 1_555 1_555
O3_107 H168_37 1_555 1_555
O3_108 H166_74 1_555 1_555
O3_108 H167_37 1_555 1_555
O3_109 H166_75 1_555 1_555
O3_109 H168_38 1_555 1_555
O3_110 H166_76 1_555 1_555
O3_110 H167_38 1_555 1_555
O3_111 H166_77 1_555 1_555
O3_111 H168_39 1_555 1_555
O3_112 H166_78 1_555 1_555
O3_112 H167_39 1_555 1_555
O3_113 H166_79 1_555 1_555
O3_113 H167_40 1_555 1_555
O3_114 H166_80 1_555 1_555
O3_114 H168_40 1_555 1_555
O3_115 H166_81 1_555 1_555
O3_115 H168_41 1_555 1_555
O3_116 H166_82 1_555 1_555
O3_116 H167_41 1_555 1_555
O3_123 H166_83 1_555 1_555
O3_123 H168_42 1_555 1_555
O3_124 H166_84 1_555 1_555
O3_124 H167_42 1_555 1_555
O3_125 H166_85 1_555 1_555
O3_125 H168_43 1_555 1_555
O3_126 H166_86 1_555 1_555
O3_126 H167_43 1_555 1_555
O3_131 H166_87 1_555 1_555
O3_131 H168_44 1_555 1_555
O3_132 H166_88 1_555 1_555
O3_132 H167_44 1_555 1_555
O3_133 H166_89 1_555 1_555
O3_133 H167_45 1_555 1_555
O3_134 H166_90 1_555 1_555
O3_134 H168_45 1_555 1_555
O3_135 H166_91 1_555 1_555
O3_135 H168_46 1_555 1_555
O3_136 H166_92 1_555 1_555
O3_136 H167_46 1_555 1_555
O3_140 H166_93 1_555 1_555
O3_140 H168_47 1_555 1_555
O3_141 H166_94 1_555 1_555
O3_141 H167_47 1_555 1_555
O3_143 H166_95 1_555 1_555
O3_143 H168_48 1_555 1_555
O3_144 H166_96 1_555 1_555
O3_144 H167_48 1_555 1_555
O4 H169 1_555 1_555
O4 H170 1_555 1_555
O4_2 H169_2 1_555 1_555
O4_2 H171 1_555 1_555
O4_3 H169_3 1_555 1_555
O4_3 H170_2 1_555 1_555
O4_4 H169_4 1_555 1_555
O4_4 H171_2 1_555 1_555
O4_5 H169_5 1_555 1_555
O4_5 H170_3 1_555 1_555
O4_6 H169_6 1_555 1_555
O4_6 H171_3 1_555 1_555
O4_18 H169_7 1_555 1_555
O4_18 H170_4 1_555 1_555
O4_19 H169_8 1_555 1_555
O4_19 H171_4 1_555 1_555
O4_23 H169_9 1_555 1_555
O4_23 H171_5 1_555 1_555
O4_24 H169_10 1_555 1_555
O4_24 H170_5 1_555 1_555
O4_25 H169_11 1_555 1_555
O4_25 H170_6 1_555 1_555
O4_26 H169_12 1_555 1_555
O4_26 H171_6 1_555 1_555
O4_27 H169_13 1_555 1_555
O4_27 H170_7 1_555 1_555
O4_28 H169_14 1_555 1_555
O4_28 H171_7 1_555 1_555
O4_29 H169_15 1_555 1_555
O4_29 H170_8 1_555 1_555
O4_30 H169_16 1_555 1_555
O4_30 H171_8 1_555 1_555
O4_31 H169_17 1_555 1_555
O4_31 H171_9 1_555 1_555
O4_32 H169_18 1_555 1_555
O4_32 H170_9 1_555 1_555
O4_33 H169_19 1_555 1_555
O4_33 H170_10 1_555 1_555
O4_34 H169_20 1_555 1_555
O4_34 H171_10 1_555 1_555
O4_35 H169_21 1_555 1_555
O4_35 H170_11 1_555 1_555
O4_36 H169_22 1_555 1_555
O4_36 H171_11 1_555 1_555
O4_39 H169_23 1_555 1_555
O4_39 H170_12 1_555 1_555
O4_40 H169_24 1_555 1_555
O4_40 H171_12 1_555 1_555
O4_41 H169_25 1_555 1_555
O4_41 H170_13 1_555 1_555
O4_42 H169_26 1_555 1_555
O4_42 H171_13 1_555 1_555
O4_43 H169_27 1_555 1_555
O4_43 H171_14 1_555 1_555
O4_44 H169_28 1_555 1_555
O4_44 H170_14 1_555 1_555
O4_45 H169_29 1_555 1_555
O4_45 H171_15 1_555 1_555
O4_46 H169_30 1_555 1_555
O4_46 H170_15 1_555 1_555
O4_47 H169_31 1_555 1_555
O4_47 H170_16 1_555 1_555
O4_48 H169_32 1_555 1_555
O4_48 H171_16 1_555 1_555
O4_49 H169_33 1_555 1_555
O4_49 H170_17 1_555 1_555
O4_50 H169_34 1_555 1_555
O4_50 H171_17 1_555 1_555
O4_55 H169_35 1_555 1_555
O4_55 H170_18 1_555 1_555
O4_56 H169_36 1_555 1_555
O4_56 H171_18 1_555 1_555
O4_58 H169_37 1_555 1_555
O4_58 H170_19 1_555 1_555
O4_59 H169_38 1_555 1_555
O4_59 H171_19 1_555 1_555
O4_60 H169_39 1_555 1_555
O4_60 H170_20 1_555 1_555
O4_61 H169_40 1_555 1_555
O4_61 H171_20 1_555 1_555
O4_62 H169_41 1_555 1_555
O4_62 H171_21 1_555 1_555
O4_63 H169_42 1_555 1_555
O4_63 H170_21 1_555 1_555
O4_67 H169_43 1_555 1_555
O4_67 H170_22 1_555 1_555
O4_68 H169_44 1_555 1_555
O4_68 H171_22 1_555 1_555
O4_69 H169_45 1_555 1_555
O4_69 H171_23 1_555 1_555
O4_70 H169_46 1_555 1_555
O4_70 H170_23 1_555 1_555
O4_71 H169_47 1_555 1_555
O4_71 H170_24 1_555 1_555
O4_72 H169_48 1_555 1_555
O4_72 H171_24 1_555 1_555
O4_73 H169_49 1_555 1_555
O4_73 H171_25 1_555 1_555
O4_74 H169_50 1_555 1_555
O4_74 H170_25 1_555 1_555
O4_75 H169_51 1_555 1_555
O4_75 H170_26 1_555 1_555
O4_76 H169_52 1_555 1_555
O4_76 H171_26 1_555 1_555
O4_77 H169_53 1_555 1_555
O4_77 H171_27 1_555 1_555
O4_78 H169_54 1_555 1_555
O4_78 H170_27 1_555 1_555
O4_79 H169_55 1_555 1_555
O4_79 H171_28 1_555 1_555
O4_80 H169_56 1_555 1_555
O4_80 H170_28 1_555 1_555
O4_81 H169_57 1_555 1_555
O4_81 H170_29 1_555 1_555
O4_82 H169_58 1_555 1_555
O4_82 H171_29 1_555 1_555
O4_83 H169_59 1_555 1_555
O4_83 H171_30 1_555 1_555
O4_84 H169_60 1_555 1_555
O4_84 H170_30 1_555 1_555
O4_85 H169_61 1_555 1_555
O4_85 H171_31 1_555 1_555
O4_86 H169_62 1_555 1_555
O4_86 H170_31 1_555 1_555
O4_87 H169_63 1_555 1_555
O4_87 H170_32 1_555 1_555
O4_88 H169_64 1_555 1_555
O4_88 H171_32 1_555 1_555
O4_89 H169_65 1_555 1_555
O4_89 H171_33 1_555 1_555
O4_90 H169_66 1_555 1_555
O4_90 H170_33 1_555 1_555
O4_100 H169_67 1_555 1_555
O4_100 H171_34 1_555 1_555
O4_101 H169_68 1_555 1_555
O4_101 H170_34 1_555 1_555
O4_102 H169_69 1_555 1_555
O4_102 H170_35 1_555 1_555
O4_103 H169_70 1_555 1_555
O4_103 H171_35 1_555 1_555
O4_104 H169_71 1_555 1_555
O4_104 H171_36 1_555 1_555
O4_105 H169_72 1_555 1_555
O4_105 H170_36 1_555 1_555
O4_107 H169_73 1_555 1_555
O4_107 H171_37 1_555 1_555
O4_108 H169_74 1_555 1_555
O4_108 H170_37 1_555 1_555
O4_109 H169_75 1_555 1_555
O4_109 H171_38 1_555 1_555
O4_110 H169_76 1_555 1_555
O4_110 H170_38 1_555 1_555
O4_111 H169_77 1_555 1_555
O4_111 H171_39 1_555 1_555
O4_112 H169_78 1_555 1_555
O4_112 H170_39 1_555 1_555
O4_113 H169_79 1_555 1_555
O4_113 H170_40 1_555 1_555
O4_114 H169_80 1_555 1_555
O4_114 H171_40 1_555 1_555
O4_115 H169_81 1_555 1_555
O4_115 H171_41 1_555 1_555
O4_116 H169_82 1_555 1_555
O4_116 H170_41 1_555 1_555
O4_123 H169_83 1_555 1_555
O4_123 H171_42 1_555 1_555
O4_124 H169_84 1_555 1_555
O4_124 H170_42 1_555 1_555
O4_125 H169_85 1_555 1_555
O4_125 H171_43 1_555 1_555
O4_126 H169_86 1_555 1_555
O4_126 H170_43 1_555 1_555
O4_131 H169_87 1_555 1_555
O4_131 H171_44 1_555 1_555
O4_132 H169_88 1_555 1_555
O4_132 H170_44 1_555 1_555
O4_133 H169_89 1_555 1_555
O4_133 H170_45 1_555 1_555
O4_134 H169_90 1_555 1_555
O4_134 H171_45 1_555 1_555
O4_135 H169_91 1_555 1_555
O4_135 H171_46 1_555 1_555
O4_136 H169_92 1_555 1_555
O4_136 H170_46 1_555 1_555
O4_140 H169_93 1_555 1_555
O4_140 H171_47 1_555 1_555
O4_141 H169_94 1_555 1_555
O4_141 H170_47 1_555 1_555
O4_143 H169_95 1_555 1_555
O4_143 H171_48 1_555 1_555
O4_144 H169_96 1_555 1_555
O4_144 H170_48 1_555 1_555
O5 H172 1_555 1_555
O5 H173 1_555 1_555
O5_2 H172_2 1_555 1_555
O5_2 H174 1_555 1_555
O5_3 H172_3 1_555 1_555
O5_3 H173_2 1_555 1_555
O5_4 H172_4 1_555 1_555
O5_4 H174_2 1_555 1_555
O5_5 H172_5 1_555 1_555
O5_5 H173_3 1_555 1_555
O5_6 H172_6 1_555 1_555
O5_6 H174_3 1_555 1_555
O5_18 H172_7 1_555 1_555
O5_18 H173_4 1_555 1_555
O5_19 H172_8 1_555 1_555
O5_19 H174_4 1_555 1_555
O5_23 H172_9 1_555 1_555
O5_23 H174_5 1_555 1_555
O5_24 H172_10 1_555 1_555
O5_24 H173_5 1_555 1_555
O5_25 H172_11 1_555 1_555
O5_25 H173_6 1_555 1_555
O5_26 H172_12 1_555 1_555
O5_26 H174_6 1_555 1_555
O5_27 H172_13 1_555 1_555
O5_27 H173_7 1_555 1_555
O5_28 H172_14 1_555 1_555
O5_28 H174_7 1_555 1_555
O5_29 H172_15 1_555 1_555
O5_29 H173_8 1_555 1_555
O5_30 H172_16 1_555 1_555
O5_30 H174_8 1_555 1_555
O5_31 H172_17 1_555 1_555
O5_31 H174_9 1_555 1_555
O5_32 H172_18 1_555 1_555
O5_32 H173_9 1_555 1_555
O5_33 H172_19 1_555 1_555
O5_33 H173_10 1_555 1_555
O5_34 H172_20 1_555 1_555
O5_34 H174_10 1_555 1_555
O5_35 H172_21 1_555 1_555
O5_35 H173_11 1_555 1_555
O5_36 H172_22 1_555 1_555
O5_36 H174_11 1_555 1_555
O5_39 H172_23 1_555 1_555
O5_39 H173_12 1_555 1_555
O5_40 H172_24 1_555 1_555
O5_40 H174_12 1_555 1_555
O5_41 H172_25 1_555 1_555
O5_41 H173_13 1_555 1_555
O5_42 H172_26 1_555 1_555
O5_42 H174_13 1_555 1_555
O5_43 H172_27 1_555 1_555
O5_43 H174_14 1_555 1_555
O5_44 H172_28 1_555 1_555
O5_44 H173_14 1_555 1_555
O5_45 H172_29 1_555 1_555
O5_45 H174_15 1_555 1_555
O5_46 H172_30 1_555 1_555
O5_46 H173_15 1_555 1_555
O5_47 H172_31 1_555 1_555
O5_47 H173_16 1_555 1_555
O5_48 H172_32 1_555 1_555
O5_48 H174_16 1_555 1_555
O5_49 H172_33 1_555 1_555
O5_49 H173_17 1_555 1_555
O5_50 H172_34 1_555 1_555
O5_50 H174_17 1_555 1_555
O5_55 H172_35 1_555 1_555
O5_55 H173_18 1_555 1_555
O5_56 H172_36 1_555 1_555
O5_56 H174_18 1_555 1_555
O5_58 H172_37 1_555 1_555
O5_58 H173_19 1_555 1_555
O5_59 H172_38 1_555 1_555
O5_59 H174_19 1_555 1_555
O5_60 H172_39 1_555 1_555
O5_60 H173_20 1_555 1_555
O5_61 H172_40 1_555 1_555
O5_61 H174_20 1_555 1_555
O5_62 H172_41 1_555 1_555
O5_62 H174_21 1_555 1_555
O5_63 H172_42 1_555 1_555
O5_63 H173_21 1_555 1_555
O5_67 H172_43 1_555 1_555
O5_67 H173_22 1_555 1_555
O5_68 H172_44 1_555 1_555
O5_68 H174_22 1_555 1_555
O5_69 H172_45 1_555 1_555
O5_69 H174_23 1_555 1_555
O5_70 H172_46 1_555 1_555
O5_70 H173_23 1_555 1_555
O5_71 H172_47 1_555 1_555
O5_71 H173_24 1_555 1_555
O5_72 H172_48 1_555 1_555
O5_72 H174_24 1_555 1_555
O5_73 H172_49 1_555 1_555
O5_73 H174_25 1_555 1_555
O5_74 H172_50 1_555 1_555
O5_74 H173_25 1_555 1_555
O5_75 H172_51 1_555 1_555
O5_75 H173_26 1_555 1_555
O5_76 H172_52 1_555 1_555
O5_76 H174_26 1_555 1_555
O5_77 H172_53 1_555 1_555
O5_77 H174_27 1_555 1_555
O5_78 H172_54 1_555 1_555
O5_78 H173_27 1_555 1_555
O5_79 H172_55 1_555 1_555
O5_79 H174_28 1_555 1_555
O5_80 H172_56 1_555 1_555
O5_80 H173_28 1_555 1_555
O5_81 H172_57 1_555 1_555
O5_81 H173_29 1_555 1_555
O5_82 H172_58 1_555 1_555
O5_82 H174_29 1_555 1_555
O5_83 H172_59 1_555 1_555
O5_83 H174_30 1_555 1_555
O5_84 H172_60 1_555 1_555
O5_84 H173_30 1_555 1_555
O5_85 H172_61 1_555 1_555
O5_85 H174_31 1_555 1_555
O5_86 H172_62 1_555 1_555
O5_86 H173_31 1_555 1_555
O5_87 H172_63 1_555 1_555
O5_87 H173_32 1_555 1_555
O5_88 H172_64 1_555 1_555
O5_88 H174_32 1_555 1_555
O5_89 H172_65 1_555 1_555
O5_89 H174_33 1_555 1_555
O5_90 H172_66 1_555 1_555
O5_90 H173_33 1_555 1_555
O5_100 H172_67 1_555 1_555
O5_100 H174_34 1_555 1_555
O5_101 H172_68 1_555 1_555
O5_101 H173_34 1_555 1_555
O5_102 H172_69 1_555 1_555
O5_102 H173_35 1_555 1_555
O5_103 H172_70 1_555 1_555
O5_103 H174_35 1_555 1_555
O5_104 H172_71 1_555 1_555
O5_104 H174_36 1_555 1_555
O5_105 H172_72 1_555 1_555
O5_105 H173_36 1_555 1_555
O5_107 H172_73 1_555 1_555
O5_107 H174_37 1_555 1_555
O5_108 H172_74 1_555 1_555
O5_108 H173_37 1_555 1_555
O5_109 H172_75 1_555 1_555
O5_109 H174_38 1_555 1_555
O5_110 H172_76 1_555 1_555
O5_110 H173_38 1_555 1_555
O5_111 H172_77 1_555 1_555
O5_111 H174_39 1_555 1_555
O5_112 H172_78 1_555 1_555
O5_112 H173_39 1_555 1_555
O5_113 H172_79 1_555 1_555
O5_113 H173_40 1_555 1_555
O5_114 H172_80 1_555 1_555
O5_114 H174_40 1_555 1_555
O5_115 H172_81 1_555 1_555
O5_115 H174_41 1_555 1_555
O5_116 H172_82 1_555 1_555
O5_116 H173_41 1_555 1_555
O5_123 H172_83 1_555 1_555
O5_123 H174_42 1_555 1_555
O5_124 H172_84 1_555 1_555
O5_124 H173_42 1_555 1_555
O5_125 H172_85 1_555 1_555
O5_125 H174_43 1_555 1_555
O5_126 H172_86 1_555 1_555
O5_126 H173_43 1_555 1_555
O5_131 H172_87 1_555 1_555
O5_131 H174_44 1_555 1_555
O5_132 H172_88 1_555 1_555
O5_132 H173_44 1_555 1_555
O5_133 H172_89 1_555 1_555
O5_133 H173_45 1_555 1_555
O5_134 H172_90 1_555 1_555
O5_134 H174_45 1_555 1_555
O5_135 H172_91 1_555 1_555
O5_135 H174_46 1_555 1_555
O5_136 H172_92 1_555 1_555
O5_136 H173_46 1_555 1_555
O5_140 H172_93 1_555 1_555
O5_140 H174_47 1_555 1_555
O5_141 H172_94 1_555 1_555
O5_141 H173_47 1_555 1_555
O5_143 H172_95 1_555 1_555
O5_143 H174_48 1_555 1_555
O5_144 H172_96 1_555 1_555
O5_144 H173_48 1_555 1_555
O6 H175 1_555 1_555
O6 H176 1_555 1_555
O6_2 H175_2 1_555 1_555
O6_2 H177 1_555 1_555
O6_3 H175_3 1_555 1_555
O6_3 H176_2 1_555 1_555
O6_4 H175_4 1_555 1_555
O6_4 H177_2 1_555 1_555
O6_5 H175_5 1_555 1_555
O6_5 H176_3 1_555 1_555
O6_6 H175_6 1_555 1_555
O6_6 H177_3 1_555 1_555
O6_18 H175_7 1_555 1_555
O6_18 H176_4 1_555 1_555
O6_19 H175_8 1_555 1_555
O6_19 H177_4 1_555 1_555
O6_23 H175_9 1_555 1_555
O6_23 H177_5 1_555 1_555
O6_24 H175_10 1_555 1_555
O6_24 H176_5 1_555 1_555
O6_25 H175_11 1_555 1_555
O6_25 H176_6 1_555 1_555
O6_26 H175_12 1_555 1_555
O6_26 H177_6 1_555 1_555
O6_27 H175_13 1_555 1_555
O6_27 H176_7 1_555 1_555
O6_28 H175_14 1_555 1_555
O6_28 H177_7 1_555 1_555
O6_29 H175_15 1_555 1_555
O6_29 H176_8 1_555 1_555
O6_30 H175_16 1_555 1_555
O6_30 H177_8 1_555 1_555
O6_31 H175_17 1_555 1_555
O6_31 H177_9 1_555 1_555
O6_32 H175_18 1_555 1_555
O6_32 H176_9 1_555 1_555
O6_33 H175_19 1_555 1_555
O6_33 H176_10 1_555 1_555
O6_34 H175_20 1_555 1_555
O6_34 H177_10 1_555 1_555
O6_35 H175_21 1_555 1_555
O6_35 H176_11 1_555 1_555
O6_36 H175_22 1_555 1_555
O6_36 H177_11 1_555 1_555
O6_39 H175_23 1_555 1_555
O6_39 H176_12 1_555 1_555
O6_40 H175_24 1_555 1_555
O6_40 H177_12 1_555 1_555
O6_41 H175_25 1_555 1_555
O6_41 H176_13 1_555 1_555
O6_42 H175_26 1_555 1_555
O6_42 H177_13 1_555 1_555
O6_43 H175_27 1_555 1_555
O6_43 H177_14 1_555 1_555
O6_44 H175_28 1_555 1_555
O6_44 H176_14 1_555 1_555
O6_45 H175_29 1_555 1_555
O6_45 H177_15 1_555 1_555
O6_46 H175_30 1_555 1_555
O6_46 H176_15 1_555 1_555
O6_47 H175_31 1_555 1_555
O6_47 H176_16 1_555 1_555
O6_48 H175_32 1_555 1_555
O6_48 H177_16 1_555 1_555
O6_49 H175_33 1_555 1_555
O6_49 H176_17 1_555 1_555
O6_50 H175_34 1_555 1_555
O6_50 H177_17 1_555 1_555
O6_55 H175_35 1_555 1_555
O6_55 H176_18 1_555 1_555
O6_56 H175_36 1_555 1_555
O6_56 H177_18 1_555 1_555
O6_58 H175_37 1_555 1_555
O6_58 H176_19 1_555 1_555
O6_59 H175_38 1_555 1_555
O6_59 H177_19 1_555 1_555
O6_60 H175_39 1_555 1_555
O6_60 H176_20 1_555 1_555
O6_61 H175_40 1_555 1_555
O6_61 H177_20 1_555 1_555
O6_62 H175_41 1_555 1_555
O6_62 H177_21 1_555 1_555
O6_63 H175_42 1_555 1_555
O6_63 H176_21 1_555 1_555
O6_67 H175_43 1_555 1_555
O6_67 H176_22 1_555 1_555
O6_68 H175_44 1_555 1_555
O6_68 H177_22 1_555 1_555
O6_69 H175_45 1_555 1_555
O6_69 H177_23 1_555 1_555
O6_70 H175_46 1_555 1_555
O6_70 H176_23 1_555 1_555
O6_71 H175_47 1_555 1_555
O6_71 H176_24 1_555 1_555
O6_72 H175_48 1_555 1_555
O6_72 H177_24 1_555 1_555
O6_73 H175_49 1_555 1_555
O6_73 H177_25 1_555 1_555
O6_74 H175_50 1_555 1_555
O6_74 H176_25 1_555 1_555
O6_75 H175_51 1_555 1_555
O6_75 H176_26 1_555 1_555
O6_76 H175_52 1_555 1_555
O6_76 H177_26 1_555 1_555
O6_77 H175_53 1_555 1_555
O6_77 H177_27 1_555 1_555
O6_78 H175_54 1_555 1_555
O6_78 H176_27 1_555 1_555
O6_79 H175_55 1_555 1_555
O6_79 H177_28 1_555 1_555
O6_80 H175_56 1_555 1_555
O6_80 H176_28 1_555 1_555
O6_81 H175_57 1_555 1_555
O6_81 H176_29 1_555 1_555
O6_82 H175_58 1_555 1_555
O6_82 H177_29 1_555 1_555
O6_83 H175_59 1_555 1_555
O6_83 H177_30 1_555 1_555
O6_84 H175_60 1_555 1_555
O6_84 H176_30 1_555 1_555
O6_85 H175_61 1_555 1_555
O6_85 H177_31 1_555 1_555
O6_86 H175_62 1_555 1_555
O6_86 H176_31 1_555 1_555
O6_87 H175_63 1_555 1_555
O6_87 H176_32 1_555 1_555
O6_88 H175_64 1_555 1_555
O6_88 H177_32 1_555 1_555
O6_89 H175_65 1_555 1_555
O6_89 H177_33 1_555 1_555
O6_90 H175_66 1_555 1_555
O6_90 H176_33 1_555 1_555
O6_100 H175_67 1_555 1_555
O6_100 H177_34 1_555 1_555
O6_101 H175_68 1_555 1_555
O6_101 H176_34 1_555 1_555
O6_102 H175_69 1_555 1_555
O6_102 H176_35 1_555 1_555
O6_103 H175_70 1_555 1_555
O6_103 H177_35 1_555 1_555
O6_104 H175_71 1_555 1_555
O6_104 H177_36 1_555 1_555
O6_105 H175_72 1_555 1_555
O6_105 H176_36 1_555 1_555
O6_107 H175_73 1_555 1_555
O6_107 H177_37 1_555 1_555
O6_108 H175_74 1_555 1_555
O6_108 H176_37 1_555 1_555
O6_109 H175_75 1_555 1_555
O6_109 H177_38 1_555 1_555
O6_110 H175_76 1_555 1_555
O6_110 H176_38 1_555 1_555
O6_111 H175_77 1_555 1_555
O6_111 H177_39 1_555 1_555
O6_112 H175_78 1_555 1_555
O6_112 H176_39 1_555 1_555
O6_113 H175_79 1_555 1_555
O6_113 H176_40 1_555 1_555
O6_114 H175_80 1_555 1_555
O6_114 H177_40 1_555 1_555
O6_115 H175_81 1_555 1_555
O6_115 H177_41 1_555 1_555
O6_116 H175_82 1_555 1_555
O6_116 H176_41 1_555 1_555
O6_123 H175_83 1_555 1_555
O6_123 H177_42 1_555 1_555
O6_124 H175_84 1_555 1_555
O6_124 H176_42 1_555 1_555
O6_125 H175_85 1_555 1_555
O6_125 H177_43 1_555 1_555
O6_126 H175_86 1_555 1_555
O6_126 H176_43 1_555 1_555
O6_131 H175_87 1_555 1_555
O6_131 H177_44 1_555 1_555
O6_132 H175_88 1_555 1_555
O6_132 H176_44 1_555 1_555
O6_133 H175_89 1_555 1_555
O6_133 H176_45 1_555 1_555
O6_134 H175_90 1_555 1_555
O6_134 H177_45 1_555 1_555
O6_135 H175_91 1_555 1_555
O6_135 H177_46 1_555 1_555
O6_136 H175_92 1_555 1_555
O6_136 H176_46 1_555 1_555
O6_140 H175_93 1_555 1_555
O6_140 H177_47 1_555 1_555
O6_141 H175_94 1_555 1_555
O6_141 H176_47 1_555 1_555
O6_143 H175_95 1_555 1_555
O6_143 H177_48 1_555 1_555
O6_144 H175_96 1_555 1_555
O6_144 H176_48 1_555 1_555
O9 Pb1 1_555 1_555
O10 Pb1 1_555 1_555
Pb3 O9 1_555 1_555
Pb4 O9 1_555 1_555
Pb12 O22 1_555 1_555
Pb13 O22 1_555 1_555
Pb14 O23 1_555 1_555
Pb15 O23 1_555 1_555
O12 Pb1 1_555 1_555
O13 Pb1 1_555 1_555
O14 Pb3 1_555 1_555
O17 Pb2 1_555 1_555
O22 C21 1_555 1_555
O23 C22 1_555 1_555
O26 Pb1 1_555 1_555
O28 Pb3 1_555 1_555
O29 Pb4 1_555 1_555
O32 Pb2 1_555 1_555
O37 Pb12 1_555 1_555
O38 Pb14 1_555 1_555
O41 Pb3 1_555 1_555
O42 Pb4 1_555 1_555
O43 Pb2 1_555 1_555
C20 O13 1_555 1_555
C21 O37 1_555 1_555
C22 O38 1_555 1_555
C31 C20 1_555 1_555
C32 C21 1_555 1_555
C33 C22 1_555 1_555
C42 C31 1_555 1_555
C43 C32 1_555 1_555
C44 C33 1_555 1_555
H19 C42 1_555 1_555
H20 C43 1_555 1_555
H21 C44 1_555 1_555
C53 C42 1_555 1_555
C54 C43 1_555 1_555
C55 C44 1_555 1_555
C64 C53 1_555 1_555
C65 C55 1_555 1_555
C66 C54 1_555 1_555
C75 C64 1_555 1_555
C76 C65 1_555 1_555
C77 C66 1_555 1_555
H30 C75 1_555 1_555
H31 C76 1_555 1_555
H32 C77 1_555 1_555
C86 C31 1_555 1_555
C87 C33 1_555 1_555
C88 C32 1_555 1_555
H41 C86 1_555 1_555
H42 C87 1_555 1_555
H43 C88 1_555 1_555
C97 C53 1_555 1_555
C98 C54 1_555 1_555
C99 C55 1_555 1_555
C108 C97 1_555 1_555
C109 C98 1_555 1_555
C110 C99 1_555 1_555
C119 C64 1_555 1_555
C120 C65 1_555 1_555
C121 C66 1_555 1_555
C130 C97 1_555 1_555
C131 C98 1_555 1_555
C132 C99 1_555 1_555
H52 C130 1_555 1_555
H53 C131 1_555 1_555
H54 C132 1_555 1_555
H63 C130 1_555 1_555
H64 C131 1_555 1_555
H65 C132 1_555 1_555
C141 C130 1_555 1_555
C142 C131 1_555 1_555
C143 C132 1_555 1_555
H74 C141 1_555 1_555
H75 C142 1_555 1_555
H76 C143 1_555 1_555
H85 C141 1_555 1_555
H86 C142 1_555 1_555
H87 C143 1_555 1_555
H96 C141 1_555 1_555
H97 C142 1_555 1_555
H98 C143 1_555 1_555
C152 C97 1_555 1_555
C153 C98 1_555 1_555
C154 C99 1_555 1_555
H107 C152 1_555 1_555
H108 C153 1_555 1_555
H109 C154 1_555 1_555
H118 C152 1_555 1_555
H119 C153 1_555 1_555
H120 C154 1_555 1_555
C163 C152 1_555 1_555
C164 C153 1_555 1_555
C165 C154 1_555 1_555
H129 C163 1_555 1_555
H130 C164 1_555 1_555
H131 C165 1_555 1_555
H140 C163 1_555 1_555
H141 C164 1_555 1_555
H142 C165 1_555 1_555
H151 C163 1_555 1_555
H152 C164 1_555 1_555
H153 C165 1_555 1_555
O9 Pb2 1_555 1_555
Pb2 O12 1_555 1_555
Pb3 O13 1_555 1_555
Pb4 O14 1_555 1_555
Pb4 O17 1_555 1_555
O28 C20 1_555 1_555
C75 C86 1_555 1_555
C76 C87 1_555 1_555
C77 C88 1_555 1_555
C108 C119 1_555 1_555
C108 C120 1_555 1_555
C109 C119 1_555 1_555
C109 C121 1_555 1_555
C110 C120 1_555 1_555
C110 C121 1_555 1_555
Pb1_2 O7 1_555 1_555
O7 C1 1_555 1_555
O8 Pb1_2 1_555 1_555
O9_2 Pb1_2 1_555 1_555
O10_2 Pb1_2 1_555 1_555
C1 O8 1_555 1_555
C2 C1 1_555 1_555
C3 C2 1_555 1_555
H1 C3 1_555 1_555
C4 C3 1_555 1_555
C5 C4 1_555 1_555
C6 C5 1_555 1_555
H2 C6 1_555 1_555
C7 C2 1_555 1_555
H3 C7 1_555 1_555
C8 C4 1_555 1_555
C9 C8 1_555 1_555
C10 C5 1_555 1_555
C11 C8 1_555 1_555
H4 C11 1_555 1_555
H5 C11 1_555 1_555
C12 C11 1_555 1_555
H6 C12 1_555 1_555
H7 C12 1_555 1_555
H8 C12 1_555 1_555
C13 C8 1_555 1_555
H9 C13 1_555 1_555
H10 C13 1_555 1_555
C14 C13 1_555 1_555
H11 C14 1_555 1_555
H12 C14 1_555 1_555
H13 C14 1_555 1_555
Pb2_2 O7 1_555 1_555
Pb3_2 O9_2 1_555 1_555
Pb4_2 O9_2 1_555 1_555
Pb5 O18 1_555 1_555
Pb6 O18 1_555 1_555
Pb7 O19 1_555 1_555
Pb8 O19 1_555 1_555
Pb9 O20 1_555 1_555
Pb10 O21 1_555 1_555
Pb11 O21 1_555 1_555
Pb16 O24 1_555 1_555
Pb17 O25 1_555 1_555
Pb18 O25 1_555 1_555
O11 Pb1_2 1_555 1_555
O15 Pb3_2 1_555 1_555
O16 Pb2_2 1_555 1_555
O18 C15 1_555 1_555
O19 C16 1_555 1_555
O20 Pb5 1_555 1_555
O21 C19 1_555 1_555
O24 Pb10 1_555 1_555
O25 C25 1_555 1_555
O27 Pb3_2 1_555 1_555
O30 Pb4_2 1_555 1_555
O31 Pb2_2 1_555 1_555
O33 Pb5 1_555 1_555
O34 Pb7 1_555 1_555
O35 Pb9 1_555 1_555
O36 Pb10 1_555 1_555
O39 Pb16 1_555 1_555
O40 Pb17 1_555 1_555
O41_2 Pb3_2 1_555 1_555
O42_2 Pb4_2 1_555 1_555
O43_2 Pb2_2 1_555 1_555
C15 O33 1_555 1_555
C16 O34 1_555 1_555
C17 O16 1_555 1_555
C18 O20 1_555 1_555
C19 O36 1_555 1_555
C23 O15 1_555 1_555
C24 O24 1_555 1_555
C25 O40 1_555 1_555
C26 C15 1_555 1_555
C27 C16 1_555 1_555
C28 C17 1_555 1_555
C29 C18 1_555 1_555
C30 C19 1_555 1_555
C34 C23 1_555 1_555
C35 C24 1_555 1_555
C36 C25 1_555 1_555
C37 C26 1_555 1_555
C38 C27 1_555 1_555
C39 C28 1_555 1_555
C40 C29 1_555 1_555
C41 C30 1_555 1_555
C45 C34 1_555 1_555
C46 C35 1_555 1_555
C47 C36 1_555 1_555
H14 C37 1_555 1_555
H15 C38 1_555 1_555
H16 C39 1_555 1_555
H17 C40 1_555 1_555
H18 C41 1_555 1_555
H22 C45 1_555 1_555
H23 C46 1_555 1_555
H24 C47 1_555 1_555
C48 C37 1_555 1_555
C49 C38 1_555 1_555
C50 C39 1_555 1_555
C51 C40 1_555 1_555
C52 C41 1_555 1_555
C56 C45 1_555 1_555
C57 C46 1_555 1_555
C58 C47 1_555 1_555
C59 C48 1_555 1_555
C60 C49 1_555 1_555
C61 C50 1_555 1_555
C62 C52 1_555 1_555
C63 C51 1_555 1_555
C67 C56 1_555 1_555
C68 C58 1_555 1_555
C69 C57 1_555 1_555
C70 C59 1_555 1_555
C71 C60 1_555 1_555
C72 C61 1_555 1_555
C73 C62 1_555 1_555
C74 C63 1_555 1_555
C78 C67 1_555 1_555
C79 C68 1_555 1_555
C80 C69 1_555 1_555
H25 C70 1_555 1_555
H26 C71 1_555 1_555
H27 C72 1_555 1_555
H28 C73 1_555 1_555
H29 C74 1_555 1_555
H33 C78 1_555 1_555
H34 C79 1_555 1_555
H35 C80 1_555 1_555
C81 C26 1_555 1_555
C82 C27 1_555 1_555
C83 C28 1_555 1_555
C84 C30 1_555 1_555
C85 C29 1_555 1_555
C89 C34 1_555 1_555
C90 C36 1_555 1_555
C91 C35 1_555 1_555
H36 C81 1_555 1_555
H37 C82 1_555 1_555
H38 C83 1_555 1_555
H39 C84 1_555 1_555
H40 C85 1_555 1_555
H44 C89 1_555 1_555
H45 C90 1_555 1_555
H46 C91 1_555 1_555
C92 C49 1_555 1_555
C93 C48 1_555 1_555
C94 C50 1_555 1_555
C95 C51 1_555 1_555
C96 C52 1_555 1_555
C100 C56 1_555 1_555
C101 C57 1_555 1_555
C102 C58 1_555 1_555
C103 C10 1_555 1_555
C104 C93 1_555 1_555
C105 C94 1_555 1_555
C106 C95 1_555 1_555
C107 C96 1_555 1_555
C111 C100 1_555 1_555
C112 C101 1_555 1_555
C113 C102 1_555 1_555
C114 C9 1_555 1_555
C115 C60 1_555 1_555
C116 C61 1_555 1_555
C117 C62 1_555 1_555
C118 C63 1_555 1_555
C122 C67 1_555 1_555
C123 C68 1_555 1_555
C124 C69 1_555 1_555
C125 C92 1_555 1_555
C126 C93 1_555 1_555
C127 C94 1_555 1_555
C128 C95 1_555 1_555
C129 C96 1_555 1_555
C133 C100 1_555 1_555
C134 C101 1_555 1_555
C135 C102 1_555 1_555
H47 C125 1_555 1_555
H48 C126 1_555 1_555
H49 C127 1_555 1_555
H50 C128 1_555 1_555
H51 C129 1_555 1_555
H55 C133 1_555 1_555
H56 C134 1_555 1_555
H57 C135 1_555 1_555
H58 C125 1_555 1_555
H59 C126 1_555 1_555
H60 C127 1_555 1_555
H61 C128 1_555 1_555
H62 C129 1_555 1_555
H66 C133 1_555 1_555
H67 C134 1_555 1_555
H68 C135 1_555 1_555
C136 C125 1_555 1_555
C137 C126 1_555 1_555
C138 C127 1_555 1_555
C139 C128 1_555 1_555
C140 C129 1_555 1_555
C144 C133 1_555 1_555
C145 C134 1_555 1_555
C146 C135 1_555 1_555
H69 C136 1_555 1_555
H70 C137 1_555 1_555
H71 C138 1_555 1_555
H72 C139 1_555 1_555
H73 C140 1_555 1_555
H77 C144 1_555 1_555
H78 C145 1_555 1_555
H79 C146 1_555 1_555
H80 C136 1_555 1_555
H81 C137 1_555 1_555
H82 C138 1_555 1_555
H83 C139 1_555 1_555
H84 C140 1_555 1_555
H88 C144 1_555 1_555
H89 C145 1_555 1_555
H90 C146 1_555 1_555
H91 C136 1_555 1_555
H92 C137 1_555 1_555
H93 C138 1_555 1_555
H94 C139 1_555 1_555
H95 C140 1_555 1_555
H99 C144 1_555 1_555
H100 C145 1_555 1_555
H101 C146 1_555 1_555
C147 C92 1_555 1_555
C148 C93 1_555 1_555
C149 C94 1_555 1_555
C150 C95 1_555 1_555
C151 C96 1_555 1_555
C155 C100 1_555 1_555
C156 C101 1_555 1_555
C157 C102 1_555 1_555
H102 C147 1_555 1_555
H103 C148 1_555 1_555
H104 C149 1_555 1_555
H105 C150 1_555 1_555
H106 C151 1_555 1_555
H110 C155 1_555 1_555
H111 C156 1_555 1_555
H112 C157 1_555 1_555
H113 C147 1_555 1_555
H114 C148 1_555 1_555
H115 C149 1_555 1_555
H116 C150 1_555 1_555
H117 C151 1_555 1_555
H121 C155 1_555 1_555
H122 C156 1_555 1_555
H123 C157 1_555 1_555
C158 C147 1_555 1_555
C159 C148 1_555 1_555
C160 C149 1_555 1_555
C161 C150 1_555 1_555
C162 C151 1_555 1_555
C166 C155 1_555 1_555
C167 C156 1_555 1_555
C168 C157 1_555 1_555
H124 C158 1_555 1_555
H125 C159 1_555 1_555
H126 C160 1_555 1_555
H127 C161 1_555 1_555
H128 C162 1_555 1_555
H132 C166 1_555 1_555
H133 C167 1_555 1_555
H134 C168 1_555 1_555
H135 C158 1_555 1_555
H136 C159 1_555 1_555
H137 C160 1_555 1_555
H138 C161 1_555 1_555
H139 C162 1_555 1_555
H143 C166 1_555 1_555
H144 C167 1_555 1_555
H145 C168 1_555 1_555
H146 C158 1_555 1_555
H147 C159 1_555 1_555
H148 C160 1_555 1_555
H149 C161 1_555 1_555
H150 C162 1_555 1_555
H154 C166 1_555 1_555
H155 C167 1_555 1_555
H156 C168 1_555 1_555
O9_2 Pb2_2 1_555 1_555
C6 C7 1_555 1_555
C9 C10 1_555 1_555
Pb3_2 O11 1_555 1_555
Pb4_2 O15 1_555 1_555
Pb4_2 O16 1_555 1_555
O30 C23 1_555 1_555
O31 C17 1_555 1_555
O35 C18 1_555 1_555
O39 C24 1_555 1_555
C59 C114 1_555 1_555
C70 C81 1_555 1_555
C71 C82 1_555 1_555
C72 C83 1_555 1_555
C73 C84 1_555 1_555
C74 C85 1_555 1_555
C78 C89 1_555 1_555
C79 C90 1_555 1_555
C80 C91 1_555 1_555
C92 C103 1_555 1_555
C103 C115 1_555 1_555
C104 C114 1_555 1_555
C104 C115 1_555 1_555
C105 C116 1_555 1_555
C105 C117 1_555 1_555
C106 C116 1_555 1_555
C106 C118 1_555 1_555
C107 C117 1_555 1_555
C107 C118 1_555 1_555
C111 C122 1_555 1_555
C111 C123 1_555 1_555
C112 C122 1_555 1_555
C112 C124 1_555 1_555
C113 C123 1_555 1_555
C113 C124 1_555 1_555
O9_3 Pb15 1_555 1_555
O10_3 Pb15 1_555 1_555
Pb14 O9_3 1_555 1_555
Pb4_3 O9_3 1_555 1_555
O12_2 Pb15 1_555 1_555
O14_2 Pb14 1_555 1_555
O17_2 Pb2_3 1_555 1_555
O26_2 Pb15 1_555 1_555
O29_2 Pb4_3 1_555 1_555
O32_2 Pb2_3 1_555 1_555
O41_3 Pb14 1_555 1_555
O42_3 Pb4_3 1_555 1_555
O43_3 Pb2_3 1_555 1_555
O9_3 Pb2_3 1_555 1_555
Pb2_3 O12_2 1_555 1_555
Pb4_3 O14_2 1_555 1_555
Pb4_3 O17_2 1_555 1_555
Pb15_2 O7_2 1_555 1_555
O7_2 C1_2 1_555 1_555
O8_2 Pb15_2 1_555 1_555
O9_4 Pb15_2 1_555 1_555
O10_4 Pb15_2 1_555 1_555
C1_2 O8_2 1_555 1_555
C2_2 C1_2 1_555 1_555
C3_2 C2_2 1_555 1_555
H1_2 C3_2 1_555 1_555
C4_2 C3_2 1_555 1_555
C5_2 C4_2 1_555 1_555
C6_2 C5_2 1_555 1_555
H2_2 C6_2 1_555 1_555
C7_2 C2_2 1_555 1_555
H3_2 C7_2 1_555 1_555
C8_2 C4_2 1_555 1_555
C9_2 C8_2 1_555 1_555
C10_2 C5_2 1_555 1_555
C11_2 C8_2 1_555 1_555
H4_2 C11_2 1_555 1_555
H5_2 C11_2 1_555 1_555
C12_2 C11_2 1_555 1_555
H6_2 C12_2 1_555 1_555
H7_2 C12_2 1_555 1_555
H8_2 C12_2 1_555 1_555
C13_2 C8_2 1_555 1_555
H9_2 C13_2 1_555 1_555
H10_2 C13_2 1_555 1_555
C14_2 C13_2 1_555 1_555
H11_2 C14_2 1_555 1_555
H12_2 C14_2 1_555 1_555
H13_2 C14_2 1_555 1_555
Pb2_4 O7_2 1_555 1_555
Pb14_2 O9_4 1_555 1_555
Pb4_4 O9_4 1_555 1_555
Pb5_2 O18_2 1_555 1_555
Pb6_2 O18_2 1_555 1_555
Pb7_3 O19_2 1_555 1_555
Pb8_3 O19_2 1_555 1_555
Pb9_2 O20_2 1_555 1_555
Pb10_2 O21_2 1_555 1_555
Pb11_2 O21_2 1_555 1_555
Pb16_2 O24_2 1_555 1_555
Pb17_3 O25_2 1_555 1_555
Pb18_3 O25_2 1_555 1_555
O11_2 Pb15_2 1_555 1_555
O15_2 Pb14_2 1_555 1_555
O16_2 Pb2_4 1_555 1_555
O18_2 C15_2 1_555 1_555
O19_2 C16_2 1_555 1_555
O20_2 Pb5_2 1_555 1_555
O21_2 C19_2 1_555 1_555
O24_2 Pb10_2 1_555 1_555
O25_2 C25_2 1_555 1_555
O27_2 Pb14_2 1_555 1_555
O30_2 Pb4_4 1_555 1_555
O31_2 Pb2_4 1_555 1_555
O33_2 Pb5_2 1_555 1_555
O34_2 Pb7_3 1_555 1_555
O35_2 Pb9_2 1_555 1_555
O36_2 Pb10_2 1_555 1_555
O39_2 Pb16_2 1_555 1_555
O40_2 Pb17_3 1_555 1_555
O41_4 Pb14_2 1_555 1_555
O42_4 Pb4_4 1_555 1_555
O43_4 Pb2_4 1_555 1_555
C15_2 O33_2 1_555 1_555
C16_2 O34_2 1_555 1_555
C17_2 O16_2 1_555 1_555
C18_2 O20_2 1_555 1_555
C19_2 O36_2 1_555 1_555
C23_2 O15_2 1_555 1_555
C24_2 O24_2 1_555 1_555
C25_2 O40_2 1_555 1_555
C26_2 C15_2 1_555 1_555
C27_2 C16_2 1_555 1_555
C28_2 C17_2 1_555 1_555
C29_2 C18_2 1_555 1_555
C30_2 C19_2 1_555 1_555
C34_2 C23_2 1_555 1_555
C35_2 C24_2 1_555 1_555
C36_2 C25_2 1_555 1_555
C37_2 C26_2 1_555 1_555
C38_2 C27_2 1_555 1_555
C39_2 C28_2 1_555 1_555
C40_2 C29_2 1_555 1_555
C41_2 C30_2 1_555 1_555
C45_2 C34_2 1_555 1_555
C46_2 C35_2 1_555 1_555
C47_2 C36_2 1_555 1_555
H14_2 C37_2 1_555 1_555
H15_2 C38_2 1_555 1_555
H16_2 C39_2 1_555 1_555
H17_2 C40_2 1_555 1_555
H18_2 C41_2 1_555 1_555
H22_2 C45_2 1_555 1_555
H23_2 C46_2 1_555 1_555
H24_2 C47_2 1_555 1_555
C48_2 C37_2 1_555 1_555
C49_2 C38_2 1_555 1_555
C50_2 C39_2 1_555 1_555
C51_2 C40_2 1_555 1_555
C52_2 C41_2 1_555 1_555
C56_2 C45_2 1_555 1_555
C57_2 C46_2 1_555 1_555
C58_2 C47_2 1_555 1_555
C59_2 C48_2 1_555 1_555
C60_2 C49_2 1_555 1_555
C61_2 C50_2 1_555 1_555
C62_2 C52_2 1_555 1_555
C63_2 C51_2 1_555 1_555
C67_2 C56_2 1_555 1_555
C68_2 C58_2 1_555 1_555
C69_2 C57_2 1_555 1_555
C70_2 C59_2 1_555 1_555
C71_2 C60_2 1_555 1_555
C72_2 C61_2 1_555 1_555
C73_2 C62_2 1_555 1_555
C74_2 C63_2 1_555 1_555
C78_2 C67_2 1_555 1_555
C79_2 C68_2 1_555 1_555
C80_2 C69_2 1_555 1_555
H25_2 C70_2 1_555 1_555
H26_2 C71_2 1_555 1_555
H27_2 C72_2 1_555 1_555
H28_2 C73_2 1_555 1_555
H29_2 C74_2 1_555 1_555
H33_2 C78_2 1_555 1_555
H34_2 C79_2 1_555 1_555
H35_2 C80_2 1_555 1_555
C81_2 C26_2 1_555 1_555
C82_2 C27_2 1_555 1_555
C83_2 C28_2 1_555 1_555
C84_2 C30_2 1_555 1_555
C85_2 C29_2 1_555 1_555
C89_2 C34_2 1_555 1_555
C90_2 C36_2 1_555 1_555
C91_2 C35_2 1_555 1_555
H36_2 C81_2 1_555 1_555
H37_2 C82_2 1_555 1_555
H38_2 C83_2 1_555 1_555
H39_2 C84_2 1_555 1_555
H40_2 C85_2 1_555 1_555
H44_2 C89_2 1_555 1_555
H45_2 C90_2 1_555 1_555
H46_2 C91_2 1_555 1_555
C92_2 C49_2 1_555 1_555
C93_2 C48_2 1_555 1_555
C94_2 C50_2 1_555 1_555
C95_2 C51_2 1_555 1_555
C96_2 C52_2 1_555 1_555
C100_2 C56_2 1_555 1_555
C101_2 C57_2 1_555 1_555
C102_2 C58_2 1_555 1_555
C103_2 C10_2 1_555 1_555
C104_2 C93_2 1_555 1_555
C105_2 C94_2 1_555 1_555
C106_2 C95_2 1_555 1_555
C107_2 C96_2 1_555 1_555
C111_2 C100_2 1_555 1_555
C112_2 C101_2 1_555 1_555
C113_2 C102_2 1_555 1_555
C114_2 C9_2 1_555 1_555
C115_2 C60_2 1_555 1_555
C116_2 C61_2 1_555 1_555
C117_2 C62_2 1_555 1_555
C118_2 C63_2 1_555 1_555
C122_2 C67_2 1_555 1_555
C123_2 C68_2 1_555 1_555
C124_2 C69_2 1_555 1_555
C125_2 C92_2 1_555 1_555
C126_2 C93_2 1_555 1_555
C127_2 C94_2 1_555 1_555
C128_2 C95_2 1_555 1_555
C129_2 C96_2 1_555 1_555
C133_2 C100_2 1_555 1_555
C134_2 C101_2 1_555 1_555
C135_2 C102_2 1_555 1_555
H47_2 C125_2 1_555 1_555
H48_2 C126_2 1_555 1_555
H49_2 C127_2 1_555 1_555
H50_2 C128_2 1_555 1_555
H51_2 C129_2 1_555 1_555
H55_2 C133_2 1_555 1_555
H56_2 C134_2 1_555 1_555
H57_2 C135_2 1_555 1_555
H58_2 C125_2 1_555 1_555
H59_2 C126_2 1_555 1_555
H60_2 C127_2 1_555 1_555
H61_2 C128_2 1_555 1_555
H62_2 C129_2 1_555 1_555
H66_2 C133_2 1_555 1_555
H67_2 C134_2 1_555 1_555
H68_2 C135_2 1_555 1_555
C136_2 C125_2 1_555 1_555
C137_2 C126_2 1_555 1_555
C138_2 C127_2 1_555 1_555
C139_2 C128_2 1_555 1_555
C140_2 C129_2 1_555 1_555
C144_2 C133_2 1_555 1_555
C145_2 C134_2 1_555 1_555
C146_2 C135_2 1_555 1_555
H69_2 C136_2 1_555 1_555
H70_2 C137_2 1_555 1_555
H71_2 C138_2 1_555 1_555
H72_2 C139_2 1_555 1_555
H73_2 C140_2 1_555 1_555
H77_2 C144_2 1_555 1_555
H78_2 C145_2 1_555 1_555
H79_2 C146_2 1_555 1_555
H80_2 C136_2 1_555 1_555
H81_2 C137_2 1_555 1_555
H82_2 C138_2 1_555 1_555
H83_2 C139_2 1_555 1_555
H84_2 C140_2 1_555 1_555
H88_2 C144_2 1_555 1_555
H89_2 C145_2 1_555 1_555
H90_2 C146_2 1_555 1_555
H91_2 C136_2 1_555 1_555
H92_2 C137_2 1_555 1_555
H93_2 C138_2 1_555 1_555
H94_2 C139_2 1_555 1_555
H95_2 C140_2 1_555 1_555
H99_2 C144_2 1_555 1_555
H100_2 C145_2 1_555 1_555
H101_2 C146_2 1_555 1_555
C147_2 C92_2 1_555 1_555
C148_2 C93_2 1_555 1_555
C149_2 C94_2 1_555 1_555
C150_2 C95_2 1_555 1_555
C151_2 C96_2 1_555 1_555
C155_2 C100_2 1_555 1_555
C156_2 C101_2 1_555 1_555
C157_2 C102_2 1_555 1_555
H102_2 C147_2 1_555 1_555
H103_2 C148_2 1_555 1_555
H104_2 C149_2 1_555 1_555
H105_2 C150_2 1_555 1_555
H106_2 C151_2 1_555 1_555
H110_2 C155_2 1_555 1_555
H111_2 C156_2 1_555 1_555
H112_2 C157_2 1_555 1_555
H113_2 C147_2 1_555 1_555
H114_2 C148_2 1_555 1_555
H115_2 C149_2 1_555 1_555
H116_2 C150_2 1_555 1_555
H117_2 C151_2 1_555 1_555
H121_2 C155_2 1_555 1_555
H122_2 C156_2 1_555 1_555
H123_2 C157_2 1_555 1_555
C158_2 C147_2 1_555 1_555
C159_2 C148_2 1_555 1_555
C160_2 C149_2 1_555 1_555
C161_2 C150_2 1_555 1_555
C162_2 C151_2 1_555 1_555
C166_2 C155_2 1_555 1_555
C167_2 C156_2 1_555 1_555
C168_2 C157_2 1_555 1_555
H124_2 C158_2 1_555 1_555
H125_2 C159_2 1_555 1_555
H126_2 C160_2 1_555 1_555
H127_2 C161_2 1_555 1_555
H128_2 C162_2 1_555 1_555
H132_2 C166_2 1_555 1_555
H133_2 C167_2 1_555 1_555
H134_2 C168_2 1_555 1_555
H135_2 C158_2 1_555 1_555
H136_2 C159_2 1_555 1_555
H137_2 C160_2 1_555 1_555
H138_2 C161_2 1_555 1_555
H139_2 C162_2 1_555 1_555
H143_2 C166_2 1_555 1_555
H144_2 C167_2 1_555 1_555
H145_2 C168_2 1_555 1_555
H146_2 C158_2 1_555 1_555
H147_2 C159_2 1_555 1_555
H148_2 C160_2 1_555 1_555
H149_2 C161_2 1_555 1_555
H150_2 C162_2 1_555 1_555
H154_2 C166_2 1_555 1_555
H155_2 C167_2 1_555 1_555
H156_2 C168_2 1_555 1_555
O9_4 Pb2_4 1_555 1_555
C6_2 C7_2 1_555 1_555
C9_2 C10_2 1_555 1_555
Pb14_2 O11_2 1_555 1_555
Pb4_4 O15_2 1_555 1_555
Pb4_4 O16_2 1_555 1_555
O30_2 C23_2 1_555 1_555
O31_2 C17_2 1_555 1_555
O35_2 C18_2 1_555 1_555
O39_2 C24_2 1_555 1_555
C59_2 C114_2 1_555 1_555
C70_2 C81_2 1_555 1_555
C71_2 C82_2 1_555 1_555
C72_2 C83_2 1_555 1_555
C73_2 C84_2 1_555 1_555
C74_2 C85_2 1_555 1_555
C78_2 C89_2 1_555 1_555
C79_2 C90_2 1_555 1_555
C80_2 C91_2 1_555 1_555
C92_2 C103_2 1_555 1_555
C103_2 C115_2 1_555 1_555
C104_2 C114_2 1_555 1_555
C104_2 C115_2 1_555 1_555
C105_2 C116_2 1_555 1_555
C105_2 C117_2 1_555 1_555
C106_2 C116_2 1_555 1_555
C106_2 C118_2 1_555 1_555
C107_2 C117_2 1_555 1_555
C107_2 C118_2 1_555 1_555
C111_2 C122_2 1_555 1_555
C111_2 C123_2 1_555 1_555
C112_2 C122_2 1_555 1_555
C112_2 C124_2 1_555 1_555
C113_2 C123_2 1_555 1_555
C113_2 C124_2 1_555 1_555
O9_5 Pb13 1_555 1_555
O10_5 Pb13 1_555 1_555
Pb12 O9_5 1_555 1_555
Pb4_5 O9_5 1_555 1_555
O12_3 Pb13 1_555 1_555
O14_3 Pb12 1_555 1_555
O17_3 Pb2_5 1_555 1_555
O26_3 Pb13 1_555 1_555
O29_3 Pb4_5 1_555 1_555
O32_3 Pb2_5 1_555 1_555
O41_5 Pb12 1_555 1_555
O42_5 Pb4_5 1_555 1_555
O43_5 Pb2_5 1_555 1_555
O9_5 Pb2_5 1_555 1_555
Pb2_5 O12_3 1_555 1_555
Pb4_5 O14_3 1_555 1_555
Pb4_5 O17_3 1_555 1_555
Pb13_2 O7_3 1_555 1_555
O7_3 C1_3 1_555 1_555
O8_3 Pb13_2 1_555 1_555
O9_6 Pb13_2 1_555 1_555
O10_6 Pb13_2 1_555 1_555
C1_3 O8_3 1_555 1_555
C2_3 C1_3 1_555 1_555
C3_3 C2_3 1_555 1_555
H1_3 C3_3 1_555 1_555
C4_3 C3_3 1_555 1_555
C5_3 C4_3 1_555 1_555
C6_3 C5_3 1_555 1_555
H2_3 C6_3 1_555 1_555
C7_3 C2_3 1_555 1_555
H3_3 C7_3 1_555 1_555
C8_3 C4_3 1_555 1_555
C9_3 C8_3 1_555 1_555
C10_3 C5_3 1_555 1_555
C11_3 C8_3 1_555 1_555
H4_3 C11_3 1_555 1_555
H5_3 C11_3 1_555 1_555
C12_3 C11_3 1_555 1_555
H6_3 C12_3 1_555 1_555
H7_3 C12_3 1_555 1_555
H8_3 C12_3 1_555 1_555
C13_3 C8_3 1_555 1_555
H9_3 C13_3 1_555 1_555
H10_3 C13_3 1_555 1_555
C14_3 C13_3 1_555 1_555
H11_3 C14_3 1_555 1_555
H12_3 C14_3 1_555 1_555
H13_3 C14_3 1_555 1_555
Pb2_6 O7_3 1_555 1_555
Pb12_2 O9_6 1_555 1_555
Pb4_6 O9_6 1_555 1_555
Pb5_3 O18_3 1_555 1_555
Pb6_3 O18_3 1_555 1_555
Pb7_5 O19_3 1_555 1_555
Pb8_5 O19_3 1_555 1_555
Pb9_3 O20_3 1_555 1_555
Pb10_3 O21_3 1_555 1_555
Pb11_3 O21_3 1_555 1_555
Pb16_3 O24_3 1_555 1_555
Pb17_5 O25_3 1_555 1_555
Pb18_5 O25_3 1_555 1_555
O11_3 Pb13_2 1_555 1_555
O15_3 Pb12_2 1_555 1_555
O16_3 Pb2_6 1_555 1_555
O18_3 C15_3 1_555 1_555
O19_3 C16_3 1_555 1_555
O20_3 Pb5_3 1_555 1_555
O21_3 C19_3 1_555 1_555
O24_3 Pb10_3 1_555 1_555
O25_3 C25_3 1_555 1_555
O27_3 Pb12_2 1_555 1_555
O30_3 Pb4_6 1_555 1_555
O31_3 Pb2_6 1_555 1_555
O33_3 Pb5_3 1_555 1_555
O34_3 Pb7_5 1_555 1_555
O35_3 Pb9_3 1_555 1_555
O36_3 Pb10_3 1_555 1_555
O39_3 Pb16_3 1_555 1_555
O40_3 Pb17_5 1_555 1_555
O41_6 Pb12_2 1_555 1_555
O42_6 Pb4_6 1_555 1_555
O43_6 Pb2_6 1_555 1_555
C15_3 O33_3 1_555 1_555
C16_3 O34_3 1_555 1_555
C17_3 O16_3 1_555 1_555
C18_3 O20_3 1_555 1_555
C19_3 O36_3 1_555 1_555
C23_3 O15_3 1_555 1_555
C24_3 O24_3 1_555 1_555
C25_3 O40_3 1_555 1_555
C26_3 C15_3 1_555 1_555
C27_3 C16_3 1_555 1_555
C28_3 C17_3 1_555 1_555
C29_3 C18_3 1_555 1_555
C30_3 C19_3 1_555 1_555
C34_3 C23_3 1_555 1_555
C35_3 C24_3 1_555 1_555
C36_3 C25_3 1_555 1_555
C37_3 C26_3 1_555 1_555
C38_3 C27_3 1_555 1_555
C39_3 C28_3 1_555 1_555
C40_3 C29_3 1_555 1_555
C41_3 C30_3 1_555 1_555
C45_3 C34_3 1_555 1_555
C46_3 C35_3 1_555 1_555
C47_3 C36_3 1_555 1_555
H14_3 C37_3 1_555 1_555
H15_3 C38_3 1_555 1_555
H16_3 C39_3 1_555 1_555
H17_3 C40_3 1_555 1_555
H18_3 C41_3 1_555 1_555
H22_3 C45_3 1_555 1_555
H23_3 C46_3 1_555 1_555
H24_3 C47_3 1_555 1_555
C48_3 C37_3 1_555 1_555
C49_3 C38_3 1_555 1_555
C50_3 C39_3 1_555 1_555
C51_3 C40_3 1_555 1_555
C52_3 C41_3 1_555 1_555
C56_3 C45_3 1_555 1_555
C57_3 C46_3 1_555 1_555
C58_3 C47_3 1_555 1_555
C59_3 C48_3 1_555 1_555
C60_3 C49_3 1_555 1_555
C61_3 C50_3 1_555 1_555
C62_3 C52_3 1_555 1_555
C63_3 C51_3 1_555 1_555
C67_3 C56_3 1_555 1_555
C68_3 C58_3 1_555 1_555
C69_3 C57_3 1_555 1_555
C70_3 C59_3 1_555 1_555
C71_3 C60_3 1_555 1_555
C72_3 C61_3 1_555 1_555
C73_3 C62_3 1_555 1_555
C74_3 C63_3 1_555 1_555
C78_3 C67_3 1_555 1_555
C79_3 C68_3 1_555 1_555
C80_3 C69_3 1_555 1_555
H25_3 C70_3 1_555 1_555
H26_3 C71_3 1_555 1_555
H27_3 C72_3 1_555 1_555
H28_3 C73_3 1_555 1_555
H29_3 C74_3 1_555 1_555
H33_3 C78_3 1_555 1_555
H34_3 C79_3 1_555 1_555
H35_3 C80_3 1_555 1_555
C81_3 C26_3 1_555 1_555
C82_3 C27_3 1_555 1_555
C83_3 C28_3 1_555 1_555
C84_3 C30_3 1_555 1_555
C85_3 C29_3 1_555 1_555
C89_3 C34_3 1_555 1_555
C90_3 C36_3 1_555 1_555
C91_3 C35_3 1_555 1_555
H36_3 C81_3 1_555 1_555
H37_3 C82_3 1_555 1_555
H38_3 C83_3 1_555 1_555
H39_3 C84_3 1_555 1_555
H40_3 C85_3 1_555 1_555
H44_3 C89_3 1_555 1_555
H45_3 C90_3 1_555 1_555
H46_3 C91_3 1_555 1_555
C92_3 C49_3 1_555 1_555
C93_3 C48_3 1_555 1_555
C94_3 C50_3 1_555 1_555
C95_3 C51_3 1_555 1_555
C96_3 C52_3 1_555 1_555
C100_3 C56_3 1_555 1_555
C101_3 C57_3 1_555 1_555
C102_3 C58_3 1_555 1_555
C103_3 C10_3 1_555 1_555
C104_3 C93_3 1_555 1_555
C105_3 C94_3 1_555 1_555
C106_3 C95_3 1_555 1_555
C107_3 C96_3 1_555 1_555
C111_3 C100_3 1_555 1_555
C112_3 C101_3 1_555 1_555
C113_3 C102_3 1_555 1_555
C114_3 C9_3 1_555 1_555
C115_3 C60_3 1_555 1_555
C116_3 C61_3 1_555 1_555
C117_3 C62_3 1_555 1_555
C118_3 C63_3 1_555 1_555
C122_3 C67_3 1_555 1_555
C123_3 C68_3 1_555 1_555
C124_3 C69_3 1_555 1_555
C125_3 C92_3 1_555 1_555
C126_3 C93_3 1_555 1_555
C127_3 C94_3 1_555 1_555
C128_3 C95_3 1_555 1_555
C129_3 C96_3 1_555 1_555
C133_3 C100_3 1_555 1_555
C134_3 C101_3 1_555 1_555
C135_3 C102_3 1_555 1_555
H47_3 C125_3 1_555 1_555
H48_3 C126_3 1_555 1_555
H49_3 C127_3 1_555 1_555
H50_3 C128_3 1_555 1_555
H51_3 C129_3 1_555 1_555
H55_3 C133_3 1_555 1_555
H56_3 C134_3 1_555 1_555
H57_3 C135_3 1_555 1_555
H58_3 C125_3 1_555 1_555
H59_3 C126_3 1_555 1_555
H60_3 C127_3 1_555 1_555
H61_3 C128_3 1_555 1_555
H62_3 C129_3 1_555 1_555
H66_3 C133_3 1_555 1_555
H67_3 C134_3 1_555 1_555
H68_3 C135_3 1_555 1_555
C136_3 C125_3 1_555 1_555
C137_3 C126_3 1_555 1_555
C138_3 C127_3 1_555 1_555
C139_3 C128_3 1_555 1_555
C140_3 C129_3 1_555 1_555
C144_3 C133_3 1_555 1_555
C145_3 C134_3 1_555 1_555
C146_3 C135_3 1_555 1_555
H69_3 C136_3 1_555 1_555
H70_3 C137_3 1_555 1_555
H71_3 C138_3 1_555 1_555
H72_3 C139_3 1_555 1_555
H73_3 C140_3 1_555 1_555
H77_3 C144_3 1_555 1_555
H78_3 C145_3 1_555 1_555
H79_3 C146_3 1_555 1_555
H80_3 C136_3 1_555 1_555
H81_3 C137_3 1_555 1_555
H82_3 C138_3 1_555 1_555
H83_3 C139_3 1_555 1_555
H84_3 C140_3 1_555 1_555
H88_3 C144_3 1_555 1_555
H89_3 C145_3 1_555 1_555
H90_3 C146_3 1_555 1_555
H91_3 C136_3 1_555 1_555
H92_3 C137_3 1_555 1_555
H93_3 C138_3 1_555 1_555
H94_3 C139_3 1_555 1_555
H95_3 C140_3 1_555 1_555
H99_3 C144_3 1_555 1_555
H100_3 C145_3 1_555 1_555
H101_3 C146_3 1_555 1_555
C147_3 C92_3 1_555 1_555
C148_3 C93_3 1_555 1_555
C149_3 C94_3 1_555 1_555
C150_3 C95_3 1_555 1_555
C151_3 C96_3 1_555 1_555
C155_3 C100_3 1_555 1_555
C156_3 C101_3 1_555 1_555
C157_3 C102_3 1_555 1_555
H102_3 C147_3 1_555 1_555
H103_3 C148_3 1_555 1_555
H104_3 C149_3 1_555 1_555
H105_3 C150_3 1_555 1_555
H106_3 C151_3 1_555 1_555
H110_3 C155_3 1_555 1_555
H111_3 C156_3 1_555 1_555
H112_3 C157_3 1_555 1_555
H113_3 C147_3 1_555 1_555
H114_3 C148_3 1_555 1_555
H115_3 C149_3 1_555 1_555
H116_3 C150_3 1_555 1_555
H117_3 C151_3 1_555 1_555
H121_3 C155_3 1_555 1_555
H122_3 C156_3 1_555 1_555
H123_3 C157_3 1_555 1_555
C158_3 C147_3 1_555 1_555
C159_3 C148_3 1_555 1_555
C160_3 C149_3 1_555 1_555
C161_3 C150_3 1_555 1_555
C162_3 C151_3 1_555 1_555
C166_3 C155_3 1_555 1_555
C167_3 C156_3 1_555 1_555
C168_3 C157_3 1_555 1_555
H124_3 C158_3 1_555 1_555
H125_3 C159_3 1_555 1_555
H126_3 C160_3 1_555 1_555
H127_3 C161_3 1_555 1_555
H128_3 C162_3 1_555 1_555
H132_3 C166_3 1_555 1_555
H133_3 C167_3 1_555 1_555
H134_3 C168_3 1_555 1_555
H135_3 C158_3 1_555 1_555
H136_3 C159_3 1_555 1_555
H137_3 C160_3 1_555 1_555
H138_3 C161_3 1_555 1_555
H139_3 C162_3 1_555 1_555
H143_3 C166_3 1_555 1_555
H144_3 C167_3 1_555 1_555
H145_3 C168_3 1_555 1_555
H146_3 C158_3 1_555 1_555
H147_3 C159_3 1_555 1_555
H148_3 C160_3 1_555 1_555
H149_3 C161_3 1_555 1_555
H150_3 C162_3 1_555 1_555
H154_3 C166_3 1_555 1_555
H155_3 C167_3 1_555 1_555
H156_3 C168_3 1_555 1_555
O9_6 Pb2_6 1_555 1_555
C6_3 C7_3 1_555 1_555
C9_3 C10_3 1_555 1_555
Pb12_2 O11_3 1_555 1_555
Pb4_6 O15_3 1_555 1_555
Pb4_6 O16_3 1_555 1_555
O30_3 C23_3 1_555 1_555
O31_3 C17_3 1_555 1_555
O35_3 C18_3 1_555 1_555
O39_3 C24_3 1_555 1_555
C59_3 C114_3 1_555 1_555
C70_3 C81_3 1_555 1_555
C71_3 C82_3 1_555 1_555
C72_3 C83_3 1_555 1_555
C73_3 C84_3 1_555 1_555
C74_3 C85_3 1_555 1_555
C78_3 C89_3 1_555 1_555
C79_3 C90_3 1_555 1_555
C80_3 C91_3 1_555 1_555
C92_3 C103_3 1_555 1_555
C103_3 C115_3 1_555 1_555
C104_3 C114_3 1_555 1_555
C104_3 C115_3 1_555 1_555
C105_3 C116_3 1_555 1_555
C105_3 C117_3 1_555 1_555
C106_3 C116_3 1_555 1_555
C106_3 C118_3 1_555 1_555
C107_3 C117_3 1_555 1_555
C107_3 C118_3 1_555 1_555
C111_3 C122_3 1_555 1_555
C111_3 C123_3 1_555 1_555
C112_3 C122_3 1_555 1_555
C112_3 C124_3 1_555 1_555
C113_3 C123_3 1_555 1_555
C113_3 C124_3 1_555 1_555
O9_7 Pb9 1_555 1_555
O10_7 Pb9 1_555 1_555
Pb3_3 O9_7 1_555 1_555
Pb6 O9_7 1_555 1_555
Pb11_3 O22_2 1_555 1_555
Pb13_3 O22_2 1_555 1_555
Pb14_3 O23_2 1_555 1_555
Pb15_3 O23_2 1_555 1_555
Pb16_4 O24_4 1_555 1_555
Pb17_7 O25_4 1_555 1_555
Pb18_7 O25_4 1_555 1_555
O11_4 Pb9 1_555 1_555
O12_4 Pb9 1_555 1_555
O13_2 Pb9 1_555 1_555
O14_4 Pb3_3 1_555 1_555
O15_4 Pb3_3 1_555 1_555
O17_4 Pb5 1_555 1_555
O22_2 C21_2 1_555 1_555
O23_2 C22_2 1_555 1_555
O24_4 Pb7 1_555 1_555
O25_4 C25_4 1_555 1_555
O26_4 Pb9 1_555 1_555
O27_4 Pb3_3 1_555 1_555
O28_2 Pb3_3 1_555 1_555
O29_4 Pb6 1_555 1_555
O30_4 Pb6 1_555 1_555
O32_4 Pb5 1_555 1_555
O37_2 Pb11_3 1_555 1_555
O38_2 Pb14_3 1_555 1_555
O39_4 Pb16_4 1_555 1_555
O40_4 Pb17_7 1_555 1_555
O41_7 Pb3_3 1_555 1_555
O42_7 Pb6 1_555 1_555
O43_7 Pb5 1_555 1_555
C20_2 O13_2 1_555 1_555
C21_2 O37_2 1_555 1_555
C22_2 O38_2 1_555 1_555
C23_4 O15_4 1_555 1_555
C24_4 O24_4 1_555 1_555
C25_4 O40_4 1_555 1_555
C31_2 C20_2 1_555 1_555
C32_2 C21_2 1_555 1_555
C33_2 C22_2 1_555 1_555
C34_4 C23_4 1_555 1_555
C35_4 C24_4 1_555 1_555
C36_4 C25_4 1_555 1_555
C42_2 C31_2 1_555 1_555
C43_2 C32_2 1_555 1_555
C44_2 C33_2 1_555 1_555
C45_4 C34_4 1_555 1_555
C46_4 C35_4 1_555 1_555
C47_4 C36_4 1_555 1_555
H19_2 C42_2 1_555 1_555
H20_2 C43_2 1_555 1_555
H21_2 C44_2 1_555 1_555
H22_4 C45_4 1_555 1_555
H23_4 C46_4 1_555 1_555
H24_4 C47_4 1_555 1_555
C53_2 C42_2 1_555 1_555
C54_2 C43_2 1_555 1_555
C55_2 C44_2 1_555 1_555
C56_4 C45_4 1_555 1_555
C57_4 C46_4 1_555 1_555
C58_4 C47_4 1_555 1_555
C64_2 C53_2 1_555 1_555
C65_2 C55_2 1_555 1_555
C66_2 C54_2 1_555 1_555
C67_4 C56_4 1_555 1_555
C68_4 C58_4 1_555 1_555
C69_4 C57_4 1_555 1_555
C75_2 C64_2 1_555 1_555
C76_2 C65_2 1_555 1_555
C77_2 C66_2 1_555 1_555
C78_4 C67_4 1_555 1_555
C79_4 C68_4 1_555 1_555
C80_4 C69_4 1_555 1_555
H30_2 C75_2 1_555 1_555
H31_2 C76_2 1_555 1_555
H32_2 C77_2 1_555 1_555
H33_4 C78_4 1_555 1_555
H34_4 C79_4 1_555 1_555
H35_4 C80_4 1_555 1_555
C86_2 C31_2 1_555 1_555
C87_2 C33_2 1_555 1_555
C88_2 C32_2 1_555 1_555
C89_4 C34_4 1_555 1_555
C90_4 C36_4 1_555 1_555
C91_4 C35_4 1_555 1_555
H41_2 C86_2 1_555 1_555
H42_2 C87_2 1_555 1_555
H43_2 C88_2 1_555 1_555
H44_4 C89_4 1_555 1_555
H45_4 C90_4 1_555 1_555
H46_4 C91_4 1_555 1_555
C97_2 C53_2 1_555 1_555
C98_2 C54_2 1_555 1_555
C99_2 C55_2 1_555 1_555
C100_4 C56_4 1_555 1_555
C101_4 C57_4 1_555 1_555
C102_4 C58_4 1_555 1_555
C108_2 C97_2 1_555 1_555
C109_2 C98_2 1_555 1_555
C110_2 C99_2 1_555 1_555
C111_4 C100_4 1_555 1_555
C112_4 C101_4 1_555 1_555
C113_4 C102_4 1_555 1_555
C119_2 C64_2 1_555 1_555
C120_2 C65_2 1_555 1_555
C121_2 C66_2 1_555 1_555
C122_4 C67_4 1_555 1_555
C123_4 C68_4 1_555 1_555
C124_4 C69_4 1_555 1_555
C130_2 C97_2 1_555 1_555
C131_2 C98_2 1_555 1_555
C132_2 C99_2 1_555 1_555
C133_4 C100_4 1_555 1_555
C134_4 C101_4 1_555 1_555
C135_4 C102_4 1_555 1_555
H52_2 C130_2 1_555 1_555
H53_2 C131_2 1_555 1_555
H54_2 C132_2 1_555 1_555
H55_4 C133_4 1_555 1_555
H56_4 C134_4 1_555 1_555
H57_4 C135_4 1_555 1_555
H63_2 C130_2 1_555 1_555
H64_2 C131_2 1_555 1_555
H65_2 C132_2 1_555 1_555
H66_4 C133_4 1_555 1_555
H67_4 C134_4 1_555 1_555
H68_4 C135_4 1_555 1_555
C141_2 C130_2 1_555 1_555
C142_2 C131_2 1_555 1_555
C143_2 C132_2 1_555 1_555
C144_4 C133_4 1_555 1_555
C145_4 C134_4 1_555 1_555
C146_4 C135_4 1_555 1_555
H74_2 C141_2 1_555 1_555
H75_2 C142_2 1_555 1_555
H76_2 C143_2 1_555 1_555
H77_4 C144_4 1_555 1_555
H78_4 C145_4 1_555 1_555
H79_4 C146_4 1_555 1_555
H85_2 C141_2 1_555 1_555
H86_2 C142_2 1_555 1_555
H87_2 C143_2 1_555 1_555
H88_4 C144_4 1_555 1_555
H89_4 C145_4 1_555 1_555
H90_4 C146_4 1_555 1_555
H96_2 C141_2 1_555 1_555
H97_2 C142_2 1_555 1_555
H98_2 C143_2 1_555 1_555
H99_4 C144_4 1_555 1_555
H100_4 C145_4 1_555 1_555
H101_4 C146_4 1_555 1_555
C152_2 C97_2 1_555 1_555
C153_2 C98_2 1_555 1_555
C154_2 C99_2 1_555 1_555
C155_4 C100_4 1_555 1_555
C156_4 C101_4 1_555 1_555
C157_4 C102_4 1_555 1_555
H107_2 C152_2 1_555 1_555
H108_2 C153_2 1_555 1_555
H109_2 C154_2 1_555 1_555
H110_4 C155_4 1_555 1_555
H111_4 C156_4 1_555 1_555
H112_4 C157_4 1_555 1_555
H118_2 C152_2 1_555 1_555
H119_2 C153_2 1_555 1_555
H120_2 C154_2 1_555 1_555
H121_4 C155_4 1_555 1_555
H122_4 C156_4 1_555 1_555
H123_4 C157_4 1_555 1_555
C163_2 C152_2 1_555 1_555
C164_2 C153_2 1_555 1_555
C165_2 C154_2 1_555 1_555
C166_4 C155_4 1_555 1_555
C167_4 C156_4 1_555 1_555
C168_4 C157_4 1_555 1_555
H129_2 C163_2 1_555 1_555
H130_2 C164_2 1_555 1_555
H131_2 C165_2 1_555 1_555
H132_4 C166_4 1_555 1_555
H133_4 C167_4 1_555 1_555
H134_4 C168_4 1_555 1_555
H140_2 C163_2 1_555 1_555
H141_2 C164_2 1_555 1_555
H142_2 C165_2 1_555 1_555
H143_4 C166_4 1_555 1_555
H144_4 C167_4 1_555 1_555
H145_4 C168_4 1_555 1_555
H151_2 C163_2 1_555 1_555
H152_2 C164_2 1_555 1_555
H153_2 C165_2 1_555 1_555
H154_4 C166_4 1_555 1_555
H155_4 C167_4 1_555 1_555
H156_4 C168_4 1_555 1_555
O9_7 Pb5 1_555 1_555
Pb5 O12_4 1_555 1_555
Pb3_3 O11_4 1_555 1_555
Pb3_3 O13_2 1_555 1_555
Pb6 O14_4 1_555 1_555
Pb6 O15_4 1_555 1_555
Pb6 O17_4 1_555 1_555
O28_2 C20_2 1_555 1_555
O30_4 C23_4 1_555 1_555
O39_4 C24_4 1_555 1_555
C75_2 C86_2 1_555 1_555
C76_2 C87_2 1_555 1_555
C77_2 C88_2 1_555 1_555
C78_4 C89_4 1_555 1_555
C79_4 C90_4 1_555 1_555
C80_4 C91_4 1_555 1_555
C108_2 C119_2 1_555 1_555
C108_2 C120_2 1_555 1_555
C109_2 C119_2 1_555 1_555
C109_2 C121_2 1_555 1_555
C110_2 C120_2 1_555 1_555
C110_2 C121_2 1_555 1_555
C111_4 C122_4 1_555 1_555
C111_4 C123_4 1_555 1_555
C112_4 C122_4 1_555 1_555
C112_4 C124_4 1_555 1_555
C113_4 C123_4 1_555 1_555
C113_4 C124_4 1_555 1_555
Pb1_3 O7_4 1_555 1_555
O7_4 C1_4 1_555 1_555
O8_4 Pb1_3 1_555 1_555
O9_8 Pb1_3 1_555 1_555
O10_8 Pb1_3 1_555 1_555
C1_4 O8_4 1_555 1_555
C2_4 C1_4 1_555 1_555
C3_4 C2_4 1_555 1_555
H1_4 C3_4 1_555 1_555
C4_4 C3_4 1_555 1_555
C5_4 C4_4 1_555 1_555
C6_4 C5_4 1_555 1_555
H2_4 C6_4 1_555 1_555
C7_4 C2_4 1_555 1_555
H3_4 C7_4 1_555 1_555
C8_4 C4_4 1_555 1_555
C9_4 C8_4 1_555 1_555
C10_4 C5_4 1_555 1_555
C11_4 C8_4 1_555 1_555
H4_4 C11_4 1_555 1_555
H5_4 C11_4 1_555 1_555
C12_4 C11_4 1_555 1_555
H6_4 C12_4 1_555 1_555
H7_4 C12_4 1_555 1_555
H8_4 C12_4 1_555 1_555
C13_4 C8_4 1_555 1_555
H9_4 C13_4 1_555 1_555
H10_4 C13_4 1_555 1_555
C14_4 C13_4 1_555 1_555
H11_4 C14_4 1_555 1_555
H12_4 C14_4 1_555 1_555
H13_4 C14_4 1_555 1_555
Pb16_2 O7_4 1_555 1_555
Pb11_2 O9_8 1_555 1_555
Pb10_2 O9_8 1_555 1_555
Pb18_3 O18_4 1_555 1_555
Pb6_4 O18_4 1_555 1_555
Pb7_7 O19_4 1_555 1_555
Pb8_7 O19_4 1_555 1_555
Pb12_3 O22_3 1_555 1_555
Pb13_4 O22_3 1_555 1_555
Pb14_4 O23_3 1_555 1_555
Pb9_3 O23_3 1_555 1_555
O11_5 Pb1_3 1_555 1_555
O12_5 Pb1_3 1_555 1_555
O13_3 Pb1_3 1_555 1_555
O14_5 Pb11_2 1_555 1_555
O17_5 Pb16_2 1_555 1_555
O18_4 C15_4 1_555 1_555
O19_4 C16_4 1_555 1_555
O22_3 C21_3 1_555 1_555
O23_3 C22_3 1_555 1_555
O26_5 Pb1_3 1_555 1_555
O27_5 Pb11_2 1_555 1_555
O28_3 Pb11_2 1_555 1_555
O29_5 Pb10_2 1_555 1_555
O32_5 Pb16_2 1_555 1_555
O33_4 Pb18_3 1_555 1_555
O34_4 Pb7_7 1_555 1_555
O37_3 Pb12_3 1_555 1_555
O38_3 Pb14_4 1_555 1_555
O41_8 Pb11_2 1_555 1_555
O42_8 Pb10_2 1_555 1_555
O43_8 Pb16_2 1_555 1_555
C15_4 O33_4 1_555 1_555
C16_4 O34_4 1_555 1_555
C20_3 O13_3 1_555 1_555
C21_3 O37_3 1_555 1_555
C22_3 O38_3 1_555 1_555
C26_4 C15_4 1_555 1_555
C27_4 C16_4 1_555 1_555
C31_3 C20_3 1_555 1_555
C32_3 C21_3 1_555 1_555
C33_3 C22_3 1_555 1_555
C37_4 C26_4 1_555 1_555
C38_4 C27_4 1_555 1_555
C42_3 C31_3 1_555 1_555
C43_3 C32_3 1_555 1_555
C44_3 C33_3 1_555 1_555
H14_4 C37_4 1_555 1_555
H15_4 C38_4 1_555 1_555
H19_3 C42_3 1_555 1_555
H20_3 C43_3 1_555 1_555
H21_3 C44_3 1_555 1_555
C48_4 C37_4 1_555 1_555
C49_4 C38_4 1_555 1_555
C53_3 C42_3 1_555 1_555
C54_3 C43_3 1_555 1_555
C55_3 C44_3 1_555 1_555
C59_4 C48_4 1_555 1_555
C60_4 C49_4 1_555 1_555
C64_3 C53_3 1_555 1_555
C65_3 C55_3 1_555 1_555
C66_3 C54_3 1_555 1_555
C70_4 C59_4 1_555 1_555
C71_4 C60_4 1_555 1_555
C75_3 C64_3 1_555 1_555
C76_3 C65_3 1_555 1_555
C77_3 C66_3 1_555 1_555
H25_4 C70_4 1_555 1_555
H26_4 C71_4 1_555 1_555
H30_3 C75_3 1_555 1_555
H31_3 C76_3 1_555 1_555
H32_3 C77_3 1_555 1_555
C81_4 C26_4 1_555 1_555
C82_4 C27_4 1_555 1_555
C86_3 C31_3 1_555 1_555
C87_3 C33_3 1_555 1_555
C88_3 C32_3 1_555 1_555
H36_4 C81_4 1_555 1_555
H37_4 C82_4 1_555 1_555
H41_3 C86_3 1_555 1_555
H42_3 C87_3 1_555 1_555
H43_3 C88_3 1_555 1_555
C92_4 C49_4 1_555 1_555
C93_4 C48_4 1_555 1_555
C97_3 C53_3 1_555 1_555
C98_3 C54_3 1_555 1_555
C99_3 C55_3 1_555 1_555
C103_4 C10_4 1_555 1_555
C104_4 C93_4 1_555 1_555
C108_3 C97_3 1_555 1_555
C109_3 C98_3 1_555 1_555
C110_3 C99_3 1_555 1_555
C114_4 C9_4 1_555 1_555
C115_4 C60_4 1_555 1_555
C119_3 C64_3 1_555 1_555
C120_3 C65_3 1_555 1_555
C121_3 C66_3 1_555 1_555
C125_4 C92_4 1_555 1_555
C126_4 C93_4 1_555 1_555
C130_3 C97_3 1_555 1_555
C131_3 C98_3 1_555 1_555
C132_3 C99_3 1_555 1_555
H47_4 C125_4 1_555 1_555
H48_4 C126_4 1_555 1_555
H52_3 C130_3 1_555 1_555
H53_3 C131_3 1_555 1_555
H54_3 C132_3 1_555 1_555
H58_4 C125_4 1_555 1_555
H59_4 C126_4 1_555 1_555
H63_3 C130_3 1_555 1_555
H64_3 C131_3 1_555 1_555
H65_3 C132_3 1_555 1_555
C136_4 C125_4 1_555 1_555
C137_4 C126_4 1_555 1_555
C141_3 C130_3 1_555 1_555
C142_3 C131_3 1_555 1_555
C143_3 C132_3 1_555 1_555
H69_4 C136_4 1_555 1_555
H70_4 C137_4 1_555 1_555
H74_3 C141_3 1_555 1_555
H75_3 C142_3 1_555 1_555
H76_3 C143_3 1_555 1_555
H80_4 C136_4 1_555 1_555
H81_4 C137_4 1_555 1_555
H85_3 C141_3 1_555 1_555
H86_3 C142_3 1_555 1_555
H87_3 C143_3 1_555 1_555
H91_4 C136_4 1_555 1_555
H92_4 C137_4 1_555 1_555
H96_3 C141_3 1_555 1_555
H97_3 C142_3 1_555 1_555
H98_3 C143_3 1_555 1_555
C147_4 C92_4 1_555 1_555
C148_4 C93_4 1_555 1_555
C152_3 C97_3 1_555 1_555
C153_3 C98_3 1_555 1_555
C154_3 C99_3 1_555 1_555
H102_4 C147_4 1_555 1_555
H103_4 C148_4 1_555 1_555
H107_3 C152_3 1_555 1_555
H108_3 C153_3 1_555 1_555
H109_3 C154_3 1_555 1_555
H113_4 C147_4 1_555 1_555
H114_4 C148_4 1_555 1_555
H118_3 C152_3 1_555 1_555
H119_3 C153_3 1_555 1_555
H120_3 C154_3 1_555 1_555
C158_4 C147_4 1_555 1_555
C159_4 C148_4 1_555 1_555
C163_3 C152_3 1_555 1_555
C164_3 C153_3 1_555 1_555
C165_3 C154_3 1_555 1_555
H124_4 C158_4 1_555 1_555
H125_4 C159_4 1_555 1_555
H129_3 C163_3 1_555 1_555
H130_3 C164_3 1_555 1_555
H131_3 C165_3 1_555 1_555
H135_4 C158_4 1_555 1_555
H136_4 C159_4 1_555 1_555
H140_3 C163_3 1_555 1_555
H141_3 C164_3 1_555 1_555
H142_3 C165_3 1_555 1_555
H146_4 C158_4 1_555 1_555
H147_4 C159_4 1_555 1_555
H151_3 C163_3 1_555 1_555
H152_3 C164_3 1_555 1_555
H153_3 C165_3 1_555 1_555
O9_8 Pb16_2 1_555 1_555
C6_4 C7_4 1_555 1_555
C9_4 C10_4 1_555 1_555
Pb16_2 O12_5 1_555 1_555
Pb11_2 O11_5 1_555 1_555
Pb11_2 O13_3 1_555 1_555
Pb10_2 O14_5 1_555 1_555
Pb10_2 O17_5 1_555 1_555
O28_3 C20_3 1_555 1_555
C59_4 C114_4 1_555 1_555
C70_4 C81_4 1_555 1_555
C71_4 C82_4 1_555 1_555
C75_3 C86_3 1_555 1_555
C76_3 C87_3 1_555 1_555
C77_3 C88_3 1_555 1_555
C92_4 C103_4 1_555 1_555
C103_4 C115_4 1_555 1_555
C104_4 C114_4 1_555 1_555
C104_4 C115_4 1_555 1_555
C108_3 C119_3 1_555 1_555
C108_3 C120_3 1_555 1_555
C109_3 C119_3 1_555 1_555
C109_3 C121_3 1_555 1_555
C110_3 C120_3 1_555 1_555
C110_3 C121_3 1_555 1_555
Pb1_4 O7_5 1_555 1_555
O7_5 C1_5 1_555 1_555
O8_5 Pb1_4 1_555 1_555
O9_9 Pb1_4 1_555 1_555
O10_9 Pb1_4 1_555 1_555
C1_5 O8_5 1_555 1_555
C2_5 C1_5 1_555 1_555
C3_5 C2_5 1_555 1_555
H1_5 C3_5 1_555 1_555
C4_5 C3_5 1_555 1_555
C5_5 C4_5 1_555 1_555
C6_5 C5_5 1_555 1_555
H2_5 C6_5 1_555 1_555
C7_5 C2_5 1_555 1_555
H3_5 C7_5 1_555 1_555
C8_5 C4_5 1_555 1_555
C9_5 C8_5 1_555 1_555
C10_5 C5_5 1_555 1_555
C11_5 C8_5 1_555 1_555
H4_5 C11_5 1_555 1_555
H5_5 C11_5 1_555 1_555
C12_5 C11_5 1_555 1_555
H6_5 C12_5 1_555 1_555
H7_5 C12_5 1_555 1_555
H8_5 C12_5 1_555 1_555
C13_5 C8_5 1_555 1_555
H9_5 C13_5 1_555 1_555
H10_5 C13_5 1_555 1_555
C14_5 C13_5 1_555 1_555
H11_5 C14_5 1_555 1_555
H12_5 C14_5 1_555 1_555
H13_5 C14_5 1_555 1_555
Pb2_7 O7_5 1_555 1_555
Pb3_4 O9_9 1_555 1_555
Pb4_7 O9_9 1_555 1_555
Pb5_5 O18_5 1_555 1_555
Pb6_7 O18_5 1_555 1_555
Pb7_8 O19_5 1_555 1_555
Pb14_3 O19_5 1_555 1_555
Pb9_5 O20_4 1_555 1_555
Pb10_5 O21_4 1_555 1_555
Pb11_5 O21_4 1_555 1_555
Pb12_4 O22_4 1_555 1_555
Pb9_2 O22_4 1_555 1_555
Pb11 O23_4 1_555 1_555
Pb15_4 O23_4 1_555 1_555
Pb16_7 O24_5 1_555 1_555
Pb13_4 O25_5 1_555 1_555
Pb18_8 O25_5 1_555 1_555
O11_6 Pb1_4 1_555 1_555
O12_6 Pb1_4 1_555 1_555
O13_4 Pb1_4 1_555 1_555
O14_6 Pb3_4 1_555 1_555
O15_5 Pb3_4 1_555 1_555
O16_4 Pb2_7 1_555 1_555
O17_6 Pb2_7 1_555 1_555
O18_5 C15_5 1_555 1_555
O19_5 C16_5 1_555 1_555
O20_4 Pb5_5 1_555 1_555
O21_4 C19_4 1_555 1_555
O22_4 C21_4 1_555 1_555
O23_4 C22_4 1_555 1_555
O24_5 Pb10_5 1_555 1_555
O25_5 C25_5 1_555 1_555
O26_6 Pb1_4 1_555 1_555
O27_6 Pb3_4 1_555 1_555
O28_4 Pb3_4 1_555 1_555
O29_6 Pb4_7 1_555 1_555
O30_5 Pb4_7 1_555 1_555
O31_4 Pb2_7 1_555 1_555
O32_6 Pb2_7 1_555 1_555
O33_5 Pb5_5 1_555 1_555
O34_5 Pb7_8 1_555 1_555
O35_4 Pb9_5 1_555 1_555
O36_4 Pb10_5 1_555 1_555
O37_4 Pb12_4 1_555 1_555
O38_4 Pb11 1_555 1_555
O39_5 Pb16_7 1_555 1_555
O40_5 Pb13_4 1_555 1_555
O41_9 Pb3_4 1_555 1_555
O42_9 Pb4_7 1_555 1_555
O43_9 Pb2_7 1_555 1_555
C15_5 O33_5 1_555 1_555
C16_5 O34_5 1_555 1_555
C17_4 O16_4 1_555 1_555
C18_4 O20_4 1_555 1_555
C19_4 O36_4 1_555 1_555
C20_4 O13_4 1_555 1_555
C21_4 O37_4 1_555 1_555
C22_4 O38_4 1_555 1_555
C23_5 O15_5 1_555 1_555
C24_5 O24_5 1_555 1_555
C25_5 O40_5 1_555 1_555
C26_5 C15_5 1_555 1_555
C27_5 C16_5 1_555 1_555
C28_4 C17_4 1_555 1_555
C29_4 C18_4 1_555 1_555
C30_4 C19_4 1_555 1_555
C31_4 C20_4 1_555 1_555
C32_4 C21_4 1_555 1_555
C33_4 C22_4 1_555 1_555
C34_5 C23_5 1_555 1_555
C35_5 C24_5 1_555 1_555
C36_5 C25_5 1_555 1_555
C37_5 C26_5 1_555 1_555
C38_5 C27_5 1_555 1_555
C39_4 C28_4 1_555 1_555
C40_4 C29_4 1_555 1_555
C41_4 C30_4 1_555 1_555
C42_4 C31_4 1_555 1_555
C43_4 C32_4 1_555 1_555
C44_4 C33_4 1_555 1_555
C45_5 C34_5 1_555 1_555
C46_5 C35_5 1_555 1_555
C47_5 C36_5 1_555 1_555
H14_5 C37_5 1_555 1_555
H15_5 C38_5 1_555 1_555
H16_4 C39_4 1_555 1_555
H17_4 C40_4 1_555 1_555
H18_4 C41_4 1_555 1_555
H19_4 C42_4 1_555 1_555
H20_4 C43_4 1_555 1_555
H21_4 C44_4 1_555 1_555
H22_5 C45_5 1_555 1_555
H23_5 C46_5 1_555 1_555
H24_5 C47_5 1_555 1_555
C48_5 C37_5 1_555 1_555
C49_5 C38_5 1_555 1_555
C50_4 C39_4 1_555 1_555
C51_4 C40_4 1_555 1_555
C52_4 C41_4 1_555 1_555
C53_4 C42_4 1_555 1_555
C54_4 C43_4 1_555 1_555
C55_4 C44_4 1_555 1_555
C56_5 C45_5 1_555 1_555
C57_5 C46_5 1_555 1_555
C58_5 C47_5 1_555 1_555
C59_5 C48_5 1_555 1_555
C60_5 C49_5 1_555 1_555
C61_4 C50_4 1_555 1_555
C62_4 C52_4 1_555 1_555
C63_4 C51_4 1_555 1_555
C64_4 C53_4 1_555 1_555
C65_4 C55_4 1_555 1_555
C66_4 C54_4 1_555 1_555
C67_5 C56_5 1_555 1_555
C68_5 C58_5 1_555 1_555
C69_5 C57_5 1_555 1_555
C70_5 C59_5 1_555 1_555
C71_5 C60_5 1_555 1_555
C72_4 C61_4 1_555 1_555
C73_4 C62_4 1_555 1_555
C74_4 C63_4 1_555 1_555
C75_4 C64_4 1_555 1_555
C76_4 C65_4 1_555 1_555
C77_4 C66_4 1_555 1_555
C78_5 C67_5 1_555 1_555
C79_5 C68_5 1_555 1_555
C80_5 C69_5 1_555 1_555
H25_5 C70_5 1_555 1_555
H26_5 C71_5 1_555 1_555
H27_4 C72_4 1_555 1_555
H28_4 C73_4 1_555 1_555
H29_4 C74_4 1_555 1_555
H30_4 C75_4 1_555 1_555
H31_4 C76_4 1_555 1_555
H32_4 C77_4 1_555 1_555
H33_5 C78_5 1_555 1_555
H34_5 C79_5 1_555 1_555
H35_5 C80_5 1_555 1_555
C81_5 C26_5 1_555 1_555
C82_5 C27_5 1_555 1_555
C83_4 C28_4 1_555 1_555
C84_4 C30_4 1_555 1_555
C85_4 C29_4 1_555 1_555
C86_4 C31_4 1_555 1_555
C87_4 C33_4 1_555 1_555
C88_4 C32_4 1_555 1_555
C89_5 C34_5 1_555 1_555
C90_5 C36_5 1_555 1_555
C91_5 C35_5 1_555 1_555
H36_5 C81_5 1_555 1_555
H37_5 C82_5 1_555 1_555
H38_4 C83_4 1_555 1_555
H39_4 C84_4 1_555 1_555
H40_4 C85_4 1_555 1_555
H41_4 C86_4 1_555 1_555
H42_4 C87_4 1_555 1_555
H43_4 C88_4 1_555 1_555
H44_5 C89_5 1_555 1_555
H45_5 C90_5 1_555 1_555
H46_5 C91_5 1_555 1_555
C92_5 C49_5 1_555 1_555
C93_5 C48_5 1_555 1_555
C94_4 C50_4 1_555 1_555
C95_4 C51_4 1_555 1_555
C96_4 C52_4 1_555 1_555
C97_4 C53_4 1_555 1_555
C98_4 C54_4 1_555 1_555
C99_4 C55_4 1_555 1_555
C100_5 C56_5 1_555 1_555
C101_5 C57_5 1_555 1_555
C102_5 C58_5 1_555 1_555
C103_5 C10_5 1_555 1_555
C104_5 C93_5 1_555 1_555
C105_4 C94_4 1_555 1_555
C106_4 C95_4 1_555 1_555
C107_4 C96_4 1_555 1_555
C108_4 C97_4 1_555 1_555
C109_4 C98_4 1_555 1_555
C110_4 C99_4 1_555 1_555
C111_5 C100_5 1_555 1_555
C112_5 C101_5 1_555 1_555
C113_5 C102_5 1_555 1_555
C114_5 C9_5 1_555 1_555
C115_5 C60_5 1_555 1_555
C116_4 C61_4 1_555 1_555
C117_4 C62_4 1_555 1_555
C118_4 C63_4 1_555 1_555
C119_4 C64_4 1_555 1_555
C120_4 C65_4 1_555 1_555
C121_4 C66_4 1_555 1_555
C122_5 C67_5 1_555 1_555
C123_5 C68_5 1_555 1_555
C124_5 C69_5 1_555 1_555
C125_5 C92_5 1_555 1_555
C126_5 C93_5 1_555 1_555
C127_4 C94_4 1_555 1_555
C128_4 C95_4 1_555 1_555
C129_4 C96_4 1_555 1_555
C130_4 C97_4 1_555 1_555
C131_4 C98_4 1_555 1_555
C132_4 C99_4 1_555 1_555
C133_5 C100_5 1_555 1_555
C134_5 C101_5 1_555 1_555
C135_5 C102_5 1_555 1_555
H47_5 C125_5 1_555 1_555
H48_5 C126_5 1_555 1_555
H49_4 C127_4 1_555 1_555
H50_4 C128_4 1_555 1_555
H51_4 C129_4 1_555 1_555
H52_4 C130_4 1_555 1_555
H53_4 C131_4 1_555 1_555
H54_4 C132_4 1_555 1_555
H55_5 C133_5 1_555 1_555
H56_5 C134_5 1_555 1_555
H57_5 C135_5 1_555 1_555
H58_5 C125_5 1_555 1_555
H59_5 C126_5 1_555 1_555
H60_4 C127_4 1_555 1_555
H61_4 C128_4 1_555 1_555
H62_4 C129_4 1_555 1_555
H63_4 C130_4 1_555 1_555
H64_4 C131_4 1_555 1_555
H65_4 C132_4 1_555 1_555
H66_5 C133_5 1_555 1_555
H67_5 C134_5 1_555 1_555
H68_5 C135_5 1_555 1_555
C136_5 C125_5 1_555 1_555
C137_5 C126_5 1_555 1_555
C138_4 C127_4 1_555 1_555
C139_4 C128_4 1_555 1_555
C140_4 C129_4 1_555 1_555
C141_4 C130_4 1_555 1_555
C142_4 C131_4 1_555 1_555
C143_4 C132_4 1_555 1_555
C144_5 C133_5 1_555 1_555
C145_5 C134_5 1_555 1_555
C146_5 C135_5 1_555 1_555
H69_5 C136_5 1_555 1_555
H70_5 C137_5 1_555 1_555
H71_4 C138_4 1_555 1_555
H72_4 C139_4 1_555 1_555
H73_4 C140_4 1_555 1_555
H74_4 C141_4 1_555 1_555
H75_4 C142_4 1_555 1_555
H76_4 C143_4 1_555 1_555
H77_5 C144_5 1_555 1_555
H78_5 C145_5 1_555 1_555
H79_5 C146_5 1_555 1_555
H80_5 C136_5 1_555 1_555
H81_5 C137_5 1_555 1_555
H82_4 C138_4 1_555 1_555
H83_4 C139_4 1_555 1_555
H84_4 C140_4 1_555 1_555
H85_4 C141_4 1_555 1_555
H86_4 C142_4 1_555 1_555
H87_4 C143_4 1_555 1_555
H88_5 C144_5 1_555 1_555
H89_5 C145_5 1_555 1_555
H90_5 C146_5 1_555 1_555
H91_5 C136_5 1_555 1_555
H92_5 C137_5 1_555 1_555
H93_4 C138_4 1_555 1_555
H94_4 C139_4 1_555 1_555
H95_4 C140_4 1_555 1_555
H96_4 C141_4 1_555 1_555
H97_4 C142_4 1_555 1_555
H98_4 C143_4 1_555 1_555
H99_5 C144_5 1_555 1_555
H100_5 C145_5 1_555 1_555
H101_5 C146_5 1_555 1_555
C147_5 C92_5 1_555 1_555
C148_5 C93_5 1_555 1_555
C149_4 C94_4 1_555 1_555
C150_4 C95_4 1_555 1_555
C151_4 C96_4 1_555 1_555
C152_4 C97_4 1_555 1_555
C153_4 C98_4 1_555 1_555
C154_4 C99_4 1_555 1_555
C155_5 C100_5 1_555 1_555
C156_5 C101_5 1_555 1_555
C157_5 C102_5 1_555 1_555
H102_5 C147_5 1_555 1_555
H103_5 C148_5 1_555 1_555
H104_4 C149_4 1_555 1_555
H105_4 C150_4 1_555 1_555
H106_4 C151_4 1_555 1_555
H107_4 C152_4 1_555 1_555
H108_4 C153_4 1_555 1_555
H109_4 C154_4 1_555 1_555
H110_5 C155_5 1_555 1_555
H111_5 C156_5 1_555 1_555
H112_5 C157_5 1_555 1_555
H113_5 C147_5 1_555 1_555
H114_5 C148_5 1_555 1_555
H115_4 C149_4 1_555 1_555
H116_4 C150_4 1_555 1_555
H117_4 C151_4 1_555 1_555
H118_4 C152_4 1_555 1_555
H119_4 C153_4 1_555 1_555
H120_4 C154_4 1_555 1_555
H121_5 C155_5 1_555 1_555
H122_5 C156_5 1_555 1_555
H123_5 C157_5 1_555 1_555
C158_5 C147_5 1_555 1_555
C159_5 C148_5 1_555 1_555
C160_4 C149_4 1_555 1_555
C161_4 C150_4 1_555 1_555
C162_4 C151_4 1_555 1_555
C163_4 C152_4 1_555 1_555
C164_4 C153_4 1_555 1_555
C165_4 C154_4 1_555 1_555
C166_5 C155_5 1_555 1_555
C167_5 C156_5 1_555 1_555
C168_5 C157_5 1_555 1_555
H124_5 C158_5 1_555 1_555
H125_5 C159_5 1_555 1_555
H126_4 C160_4 1_555 1_555
H127_4 C161_4 1_555 1_555
H128_4 C162_4 1_555 1_555
H129_4 C163_4 1_555 1_555
H130_4 C164_4 1_555 1_555
H131_4 C165_4 1_555 1_555
H132_5 C166_5 1_555 1_555
H133_5 C167_5 1_555 1_555
H134_5 C168_5 1_555 1_555
H135_5 C158_5 1_555 1_555
H136_5 C159_5 1_555 1_555
H137_4 C160_4 1_555 1_555
H138_4 C161_4 1_555 1_555
H139_4 C162_4 1_555 1_555
H140_4 C163_4 1_555 1_555
H141_4 C164_4 1_555 1_555
H142_4 C165_4 1_555 1_555
H143_5 C166_5 1_555 1_555
H144_5 C167_5 1_555 1_555
H145_5 C168_5 1_555 1_555
H146_5 C158_5 1_555 1_555
H147_5 C159_5 1_555 1_555
H148_4 C160_4 1_555 1_555
H149_4 C161_4 1_555 1_555
H150_4 C162_4 1_555 1_555
H151_4 C163_4 1_555 1_555
H152_4 C164_4 1_555 1_555
H153_4 C165_4 1_555 1_555
H154_5 C166_5 1_555 1_555
H155_5 C167_5 1_555 1_555
H156_5 C168_5 1_555 1_555
O9_9 Pb2_7 1_555 1_555
C6_5 C7_5 1_555 1_555
C9_5 C10_5 1_555 1_555
Pb2_7 O12_6 1_555 1_555
Pb3_4 O11_6 1_555 1_555
Pb3_4 O13_4 1_555 1_555
Pb4_7 O14_6 1_555 1_555
Pb4_7 O15_5 1_555 1_555
Pb4_7 O16_4 1_555 1_555
Pb4_7 O17_6 1_555 1_555
O28_4 C20_4 1_555 1_555
O30_5 C23_5 1_555 1_555
O31_4 C17_4 1_555 1_555
O35_4 C18_4 1_555 1_555
O39_5 C24_5 1_555 1_555
C59_5 C114_5 1_555 1_555
C70_5 C81_5 1_555 1_555
C71_5 C82_5 1_555 1_555
C72_4 C83_4 1_555 1_555
C73_4 C84_4 1_555 1_555
C74_4 C85_4 1_555 1_555
C75_4 C86_4 1_555 1_555
C76_4 C87_4 1_555 1_555
C77_4 C88_4 1_555 1_555
C78_5 C89_5 1_555 1_555
C79_5 C90_5 1_555 1_555
C80_5 C91_5 1_555 1_555
C92_5 C103_5 1_555 1_555
C103_5 C115_5 1_555 1_555
C104_5 C114_5 1_555 1_555
C104_5 C115_5 1_555 1_555
C105_4 C116_4 1_555 1_555
C105_4 C117_4 1_555 1_555
C106_4 C116_4 1_555 1_555
C106_4 C118_4 1_555 1_555
C107_4 C117_4 1_555 1_555
C107_4 C118_4 1_555 1_555
C108_4 C119_4 1_555 1_555
C108_4 C120_4 1_555 1_555
C109_4 C119_4 1_555 1_555
C109_4 C121_4 1_555 1_555
C110_4 C120_4 1_555 1_555
C110_4 C121_4 1_555 1_555
C111_5 C122_5 1_555 1_555
C111_5 C123_5 1_555 1_555
C112_5 C122_5 1_555 1_555
C112_5 C124_5 1_555 1_555
C113_5 C123_5 1_555 1_555
C113_5 C124_5 1_555 1_555
Pb15_3 O7_6 1_555 1_555
O7_6 C1_6 1_555 1_555
O8_6 Pb15_3 1_555 1_555
O9_10 Pb15_3 1_555 1_555
O10_10 Pb15_3 1_555 1_555
C1_6 O8_6 1_555 1_555
C2_6 C1_6 1_555 1_555
C3_6 C2_6 1_555 1_555
H1_6 C3_6 1_555 1_555
C4_6 C3_6 1_555 1_555
C5_6 C4_6 1_555 1_555
C6_6 C5_6 1_555 1_555
H2_6 C6_6 1_555 1_555
C7_6 C2_6 1_555 1_555
H3_6 C7_6 1_555 1_555
C8_6 C4_6 1_555 1_555
C9_6 C8_6 1_555 1_555
C10_6 C5_6 1_555 1_555
C11_6 C8_6 1_555 1_555
H4_6 C11_6 1_555 1_555
H5_6 C11_6 1_555 1_555
C12_6 C11_6 1_555 1_555
H6_6 C12_6 1_555 1_555
H7_6 C12_6 1_555 1_555
H8_6 C12_6 1_555 1_555
C13_6 C8_6 1_555 1_555
H9_6 C13_6 1_555 1_555
H10_6 C13_6 1_555 1_555
C14_6 C13_6 1_555 1_555
H11_6 C14_6 1_555 1_555
H12_6 C14_6 1_555 1_555
H13_6 C14_6 1_555 1_555
Pb2_8 O7_6 1_555 1_555
Pb14_3 O9_10 1_555 1_555
Pb7_8 O9_10 1_555 1_555
Pb5_7 O18_6 1_555 1_555
Pb6_9 O18_6 1_555 1_555
Pb7_9 O19_6 1_555 1_555
Pb12_3 O19_6 1_555 1_555
Pb9_7 O20_5 1_555 1_555
Pb6_7 O21_5 1_555 1_555
Pb11_7 O21_5 1_555 1_555
O11_7 Pb15_3 1_555 1_555
O12_7 Pb15_3 1_555 1_555
O14_7 Pb14_3 1_555 1_555
O16_5 Pb2_8 1_555 1_555
O17_7 Pb2_8 1_555 1_555
O18_6 C15_6 1_555 1_555
O19_6 C16_6 1_555 1_555
O20_5 Pb5_7 1_555 1_555
O21_5 C19_5 1_555 1_555
O26_7 Pb15_3 1_555 1_555
O27_7 Pb14_3 1_555 1_555
O29_7 Pb7_8 1_555 1_555
O31_5 Pb2_8 1_555 1_555
O32_7 Pb2_8 1_555 1_555
O33_6 Pb5_7 1_555 1_555
O34_6 Pb7_9 1_555 1_555
O35_5 Pb9_7 1_555 1_555
O36_5 Pb6_7 1_555 1_555
O41_10 Pb14_3 1_555 1_555
O42_10 Pb7_8 1_555 1_555
O43_10 Pb2_8 1_555 1_555
C15_6 O33_6 1_555 1_555
C16_6 O34_6 1_555 1_555
C17_5 O16_5 1_555 1_555
C18_5 O20_5 1_555 1_555
C19_5 O36_5 1_555 1_555
C26_6 C15_6 1_555 1_555
C27_6 C16_6 1_555 1_555
C28_5 C17_5 1_555 1_555
C29_5 C18_5 1_555 1_555
C30_5 C19_5 1_555 1_555
C37_6 C26_6 1_555 1_555
C38_6 C27_6 1_555 1_555
C39_5 C28_5 1_555 1_555
C40_5 C29_5 1_555 1_555
C41_5 C30_5 1_555 1_555
H14_6 C37_6 1_555 1_555
H15_6 C38_6 1_555 1_555
H16_5 C39_5 1_555 1_555
H17_5 C40_5 1_555 1_555
H18_5 C41_5 1_555 1_555
C48_6 C37_6 1_555 1_555
C49_6 C38_6 1_555 1_555
C50_5 C39_5 1_555 1_555
C51_5 C40_5 1_555 1_555
C52_5 C41_5 1_555 1_555
C59_6 C48_6 1_555 1_555
C60_6 C49_6 1_555 1_555
C61_5 C50_5 1_555 1_555
C62_5 C52_5 1_555 1_555
C63_5 C51_5 1_555 1_555
C70_6 C59_6 1_555 1_555
C71_6 C60_6 1_555 1_555
C72_5 C61_5 1_555 1_555
C73_5 C62_5 1_555 1_555
C74_5 C63_5 1_555 1_555
H25_6 C70_6 1_555 1_555
H26_6 C71_6 1_555 1_555
H27_5 C72_5 1_555 1_555
H28_5 C73_5 1_555 1_555
H29_5 C74_5 1_555 1_555
C81_6 C26_6 1_555 1_555
C82_6 C27_6 1_555 1_555
C83_5 C28_5 1_555 1_555
C84_5 C30_5 1_555 1_555
C85_5 C29_5 1_555 1_555
H36_6 C81_6 1_555 1_555
H37_6 C82_6 1_555 1_555
H38_5 C83_5 1_555 1_555
H39_5 C84_5 1_555 1_555
H40_5 C85_5 1_555 1_555
C92_6 C49_6 1_555 1_555
C93_6 C48_6 1_555 1_555
C94_5 C50_5 1_555 1_555
C95_5 C51_5 1_555 1_555
C96_5 C52_5 1_555 1_555
C103_6 C10_6 1_555 1_555
C104_6 C93_6 1_555 1_555
C105_5 C94_5 1_555 1_555
C106_5 C95_5 1_555 1_555
C107_5 C96_5 1_555 1_555
C114_6 C9_6 1_555 1_555
C115_6 C60_6 1_555 1_555
C116_5 C61_5 1_555 1_555
C117_5 C62_5 1_555 1_555
C118_5 C63_5 1_555 1_555
C125_6 C92_6 1_555 1_555
C126_6 C93_6 1_555 1_555
C127_5 C94_5 1_555 1_555
C128_5 C95_5 1_555 1_555
C129_5 C96_5 1_555 1_555
H47_6 C125_6 1_555 1_555
H48_6 C126_6 1_555 1_555
H49_5 C127_5 1_555 1_555
H50_5 C128_5 1_555 1_555
H51_5 C129_5 1_555 1_555
H58_6 C125_6 1_555 1_555
H59_6 C126_6 1_555 1_555
H60_5 C127_5 1_555 1_555
H61_5 C128_5 1_555 1_555
H62_5 C129_5 1_555 1_555
C136_6 C125_6 1_555 1_555
C137_6 C126_6 1_555 1_555
C138_5 C127_5 1_555 1_555
C139_5 C128_5 1_555 1_555
C140_5 C129_5 1_555 1_555
H69_6 C136_6 1_555 1_555
H70_6 C137_6 1_555 1_555
H71_5 C138_5 1_555 1_555
H72_5 C139_5 1_555 1_555
H73_5 C140_5 1_555 1_555
H80_6 C136_6 1_555 1_555
H81_6 C137_6 1_555 1_555
H82_5 C138_5 1_555 1_555
H83_5 C139_5 1_555 1_555
H84_5 C140_5 1_555 1_555
H91_6 C136_6 1_555 1_555
H92_6 C137_6 1_555 1_555
H93_5 C138_5 1_555 1_555
H94_5 C139_5 1_555 1_555
H95_5 C140_5 1_555 1_555
C147_6 C92_6 1_555 1_555
C148_6 C93_6 1_555 1_555
C149_5 C94_5 1_555 1_555
C150_5 C95_5 1_555 1_555
C151_5 C96_5 1_555 1_555
H102_6 C147_6 1_555 1_555
H103_6 C148_6 1_555 1_555
H104_5 C149_5 1_555 1_555
H105_5 C150_5 1_555 1_555
H106_5 C151_5 1_555 1_555
H113_6 C147_6 1_555 1_555
H114_6 C148_6 1_555 1_555
H115_5 C149_5 1_555 1_555
H116_5 C150_5 1_555 1_555
H117_5 C151_5 1_555 1_555
C158_6 C147_6 1_555 1_555
C159_6 C148_6 1_555 1_555
C160_5 C149_5 1_555 1_555
C161_5 C150_5 1_555 1_555
C162_5 C151_5 1_555 1_555
H124_6 C158_6 1_555 1_555
H125_6 C159_6 1_555 1_555
H126_5 C160_5 1_555 1_555
H127_5 C161_5 1_555 1_555
H128_5 C162_5 1_555 1_555
H135_6 C158_6 1_555 1_555
H136_6 C159_6 1_555 1_555
H137_5 C160_5 1_555 1_555
H138_5 C161_5 1_555 1_555
H139_5 C162_5 1_555 1_555
H146_6 C158_6 1_555 1_555
H147_6 C159_6 1_555 1_555
H148_5 C160_5 1_555 1_555
H149_5 C161_5 1_555 1_555
H150_5 C162_5 1_555 1_555
O9_10 Pb2_8 1_555 1_555
C6_6 C7_6 1_555 1_555
C9_6 C10_6 1_555 1_555
Pb2_8 O12_7 1_555 1_555
Pb14_3 O11_7 1_555 1_555
Pb7_8 O14_7 1_555 1_555
Pb7_8 O16_5 1_555 1_555
Pb7_8 O17_7 1_555 1_555
O31_5 C17_5 1_555 1_555
O35_5 C18_5 1_555 1_555
C59_6 C114_6 1_555 1_555
C70_6 C81_6 1_555 1_555
C71_6 C82_6 1_555 1_555
C72_5 C83_5 1_555 1_555
C73_5 C84_5 1_555 1_555
C74_5 C85_5 1_555 1_555
C92_6 C103_6 1_555 1_555
C103_6 C115_6 1_555 1_555
C104_6 C114_6 1_555 1_555
C104_6 C115_6 1_555 1_555
C105_5 C116_5 1_555 1_555
C105_5 C117_5 1_555 1_555
C106_5 C116_5 1_555 1_555
C106_5 C118_5 1_555 1_555
C107_5 C117_5 1_555 1_555
C107_5 C118_5 1_555 1_555
Pb15_4 O7_7 1_555 1_555
O7_7 C1_7 1_555 1_555
O8_7 Pb15_4 1_555 1_555
O9_11 Pb15_4 1_555 1_555
O10_11 Pb15_4 1_555 1_555
C1_7 O8_7 1_555 1_555
C2_7 C1_7 1_555 1_555
C3_7 C2_7 1_555 1_555
H1_7 C3_7 1_555 1_555
C4_7 C3_7 1_555 1_555
C5_7 C4_7 1_555 1_555
C6_7 C5_7 1_555 1_555
H2_7 C6_7 1_555 1_555
C7_7 C2_7 1_555 1_555
H3_7 C7_7 1_555 1_555
C8_7 C4_7 1_555 1_555
C9_7 C8_7 1_555 1_555
C10_7 C5_7 1_555 1_555
C11_7 C8_7 1_555 1_555
H4_7 C11_7 1_555 1_555
H5_7 C11_7 1_555 1_555
C12_7 C11_7 1_555 1_555
H6_7 C12_7 1_555 1_555
H7_7 C12_7 1_555 1_555
H8_7 C12_7 1_555 1_555
C13_7 C8_7 1_555 1_555
H9_7 C13_7 1_555 1_555
H10_7 C13_7 1_555 1_555
C14_7 C13_7 1_555 1_555
H11_7 C14_7 1_555 1_555
H12_7 C14_7 1_555 1_555
H13_7 C14_7 1_555 1_555
Pb16 O7_7 1_555 1_555
Pb11 O9_11 1_555 1_555
Pb10 O9_11 1_555 1_555
Pb18 O18_7 1_555 1_555
Pb6_10 O18_7 1_555 1_555
Pb7_10 O19_7 1_555 1_555
Pb8_8 O19_7 1_555 1_555
O11_8 Pb15_4 1_555 1_555
O12_8 Pb15_4 1_555 1_555
O14_8 Pb11 1_555 1_555
O17_8 Pb16 1_555 1_555
O18_7 C15_7 1_555 1_555
O19_7 C16_7 1_555 1_555
O26_8 Pb15_4 1_555 1_555
O27_8 Pb11 1_555 1_555
O29_8 Pb10 1_555 1_555
O32_8 Pb16 1_555 1_555
O33_7 Pb18 1_555 1_555
O34_7 Pb7_10 1_555 1_555
O41_11 Pb11 1_555 1_555
O42_11 Pb10 1_555 1_555
O43_11 Pb16 1_555 1_555
C15_7 O33_7 1_555 1_555
C16_7 O34_7 1_555 1_555
C26_7 C15_7 1_555 1_555
C27_7 C16_7 1_555 1_555
C37_7 C26_7 1_555 1_555
C38_7 C27_7 1_555 1_555
H14_7 C37_7 1_555 1_555
H15_7 C38_7 1_555 1_555
C48_7 C37_7 1_555 1_555
C49_7 C38_7 1_555 1_555
C59_7 C48_7 1_555 1_555
C60_7 C49_7 1_555 1_555
C70_7 C59_7 1_555 1_555
C71_7 C60_7 1_555 1_555
H25_7 C70_7 1_555 1_555
H26_7 C71_7 1_555 1_555
C81_7 C26_7 1_555 1_555
C82_7 C27_7 1_555 1_555
H36_7 C81_7 1_555 1_555
H37_7 C82_7 1_555 1_555
C92_7 C49_7 1_555 1_555
C93_7 C48_7 1_555 1_555
C103_7 C10_7 1_555 1_555
C104_7 C93_7 1_555 1_555
C114_7 C9_7 1_555 1_555
C115_7 C60_7 1_555 1_555
C125_7 C92_7 1_555 1_555
C126_7 C93_7 1_555 1_555
H47_7 C125_7 1_555 1_555
H48_7 C126_7 1_555 1_555
H58_7 C125_7 1_555 1_555
H59_7 C126_7 1_555 1_555
C136_7 C125_7 1_555 1_555
C137_7 C126_7 1_555 1_555
H69_7 C136_7 1_555 1_555
H70_7 C137_7 1_555 1_555
H80_7 C136_7 1_555 1_555
H81_7 C137_7 1_555 1_555
H91_7 C136_7 1_555 1_555
H92_7 C137_7 1_555 1_555
C147_7 C92_7 1_555 1_555
C148_7 C93_7 1_555 1_555
H102_7 C147_7 1_555 1_555
H103_7 C148_7 1_555 1_555
H113_7 C147_7 1_555 1_555
H114_7 C148_7 1_555 1_555
C158_7 C147_7 1_555 1_555
C159_7 C148_7 1_555 1_555
H124_7 C158_7 1_555 1_555
H125_7 C159_7 1_555 1_555
H135_7 C158_7 1_555 1_555
H136_7 C159_7 1_555 1_555
H146_7 C158_7 1_555 1_555
H147_7 C159_7 1_555 1_555
O9_11 Pb16 1_555 1_555
C6_7 C7_7 1_555 1_555
C9_7 C10_7 1_555 1_555
Pb16 O12_8 1_555 1_555
Pb11 O11_8 1_555 1_555
Pb10 O14_8 1_555 1_555
Pb10 O17_8 1_555 1_555
C59_7 C114_7 1_555 1_555
C70_7 C81_7 1_555 1_555
C71_7 C82_7 1_555 1_555
C92_7 C103_7 1_555 1_555
C103_7 C115_7 1_555 1_555
C104_7 C114_7 1_555 1_555
C104_7 C115_7 1_555 1_555
O9_12 Pb9_3 1_555 1_555
O10_12 Pb9_3 1_555 1_555
Pb14_4 O9_12 1_555 1_555
Pb6_3 O9_12 1_555 1_555
Pb16_8 O24_6 1_555 1_555
Pb17_8 O25_6 1_555 1_555
Pb18_9 O25_6 1_555 1_555
O11_9 Pb9_3 1_555 1_555
O12_9 Pb9_3 1_555 1_555
O14_9 Pb14_4 1_555 1_555
O15_6 Pb14_4 1_555 1_555
O17_9 Pb5_3 1_555 1_555
O24_6 Pb7_5 1_555 1_555
O25_6 C25_6 1_555 1_555
O26_9 Pb9_3 1_555 1_555
O27_9 Pb14_4 1_555 1_555
O29_9 Pb6_3 1_555 1_555
O30_6 Pb6_3 1_555 1_555
O32_9 Pb5_3 1_555 1_555
O39_6 Pb16_8 1_555 1_555
O40_6 Pb17_8 1_555 1_555
O41_12 Pb14_4 1_555 1_555
O42_12 Pb6_3 1_555 1_555
O43_12 Pb5_3 1_555 1_555
C23_6 O15_6 1_555 1_555
C24_6 O24_6 1_555 1_555
C25_6 O40_6 1_555 1_555
C34_6 C23_6 1_555 1_555
C35_6 C24_6 1_555 1_555
C36_6 C25_6 1_555 1_555
C45_6 C34_6 1_555 1_555
C46_6 C35_6 1_555 1_555
C47_6 C36_6 1_555 1_555
H22_6 C45_6 1_555 1_555
H23_6 C46_6 1_555 1_555
H24_6 C47_6 1_555 1_555
C56_6 C45_6 1_555 1_555
C57_6 C46_6 1_555 1_555
C58_6 C47_6 1_555 1_555
C67_6 C56_6 1_555 1_555
C68_6 C58_6 1_555 1_555
C69_6 C57_6 1_555 1_555
C78_6 C67_6 1_555 1_555
C79_6 C68_6 1_555 1_555
C80_6 C69_6 1_555 1_555
H33_6 C78_6 1_555 1_555
H34_6 C79_6 1_555 1_555
H35_6 C80_6 1_555 1_555
C89_6 C34_6 1_555 1_555
C90_6 C36_6 1_555 1_555
C91_6 C35_6 1_555 1_555
H44_6 C89_6 1_555 1_555
H45_6 C90_6 1_555 1_555
H46_6 C91_6 1_555 1_555
C100_6 C56_6 1_555 1_555
C101_6 C57_6 1_555 1_555
C102_6 C58_6 1_555 1_555
C111_6 C100_6 1_555 1_555
C112_6 C101_6 1_555 1_555
C113_6 C102_6 1_555 1_555
C122_6 C67_6 1_555 1_555
C123_6 C68_6 1_555 1_555
C124_6 C69_6 1_555 1_555
C133_6 C100_6 1_555 1_555
C134_6 C101_6 1_555 1_555
C135_6 C102_6 1_555 1_555
H55_6 C133_6 1_555 1_555
H56_6 C134_6 1_555 1_555
H57_6 C135_6 1_555 1_555
H66_6 C133_6 1_555 1_555
H67_6 C134_6 1_555 1_555
H68_6 C135_6 1_555 1_555
C144_6 C133_6 1_555 1_555
C145_6 C134_6 1_555 1_555
C146_6 C135_6 1_555 1_555
H77_6 C144_6 1_555 1_555
H78_6 C145_6 1_555 1_555
H79_6 C146_6 1_555 1_555
H88_6 C144_6 1_555 1_555
H89_6 C145_6 1_555 1_555
H90_6 C146_6 1_555 1_555
H99_6 C144_6 1_555 1_555
H100_6 C145_6 1_555 1_555
H101_6 C146_6 1_555 1_555
C155_6 C100_6 1_555 1_555
C156_6 C101_6 1_555 1_555
C157_6 C102_6 1_555 1_555
H110_6 C155_6 1_555 1_555
H111_6 C156_6 1_555 1_555
H112_6 C157_6 1_555 1_555
H121_6 C155_6 1_555 1_555
H122_6 C156_6 1_555 1_555
H123_6 C157_6 1_555 1_555
C166_6 C155_6 1_555 1_555
C167_6 C156_6 1_555 1_555
C168_6 C157_6 1_555 1_555
H132_6 C166_6 1_555 1_555
H133_6 C167_6 1_555 1_555
H134_6 C168_6 1_555 1_555
H143_6 C166_6 1_555 1_555
H144_6 C167_6 1_555 1_555
H145_6 C168_6 1_555 1_555
H154_6 C166_6 1_555 1_555
H155_6 C167_6 1_555 1_555
H156_6 C168_6 1_555 1_555
O9_12 Pb5_3 1_555 1_555
Pb5_3 O12_9 1_555 1_555
Pb14_4 O11_9 1_555 1_555
Pb6_3 O14_9 1_555 1_555
Pb6_3 O15_6 1_555 1_555
Pb6_3 O17_9 1_555 1_555
O30_6 C23_6 1_555 1_555
O39_6 C24_6 1_555 1_555
C78_6 C89_6 1_555 1_555
C79_6 C90_6 1_555 1_555
C80_6 C91_6 1_555 1_555
C111_6 C122_6 1_555 1_555
C111_6 C123_6 1_555 1_555
C112_6 C122_6 1_555 1_555
C112_6 C124_6 1_555 1_555
C113_6 C123_6 1_555 1_555
C113_6 C124_6 1_555 1_555
Pb13_3 O7_8 1_555 1_555
O7_8 C1_8 1_555 1_555
O8_8 Pb13_3 1_555 1_555
O9_13 Pb13_3 1_555 1_555
O10_13 Pb13_3 1_555 1_555
C1_8 O8_8 1_555 1_555
C2_8 C1_8 1_555 1_555
C3_8 C2_8 1_555 1_555
H1_8 C3_8 1_555 1_555
C4_8 C3_8 1_555 1_555
C5_8 C4_8 1_555 1_555
C6_8 C5_8 1_555 1_555
H2_8 C6_8 1_555 1_555
C7_8 C2_8 1_555 1_555
H3_8 C7_8 1_555 1_555
C8_8 C4_8 1_555 1_555
C9_8 C8_8 1_555 1_555
C10_8 C5_8 1_555 1_555
C11_8 C8_8 1_555 1_555
H4_8 C11_8 1_555 1_555
H5_8 C11_8 1_555 1_555
C12_8 C11_8 1_555 1_555
H6_8 C12_8 1_555 1_555
H7_8 C12_8 1_555 1_555
H8_8 C12_8 1_555 1_555
C13_8 C8_8 1_555 1_555
H9_8 C13_8 1_555 1_555
H10_8 C13_8 1_555 1_555
C14_8 C13_8 1_555 1_555
H11_8 C14_8 1_555 1_555
H12_8 C14_8 1_555 1_555
H13_8 C14_8 1_555 1_555
Pb16_3 O7_8 1_555 1_555
Pb11_3 O9_13 1_555 1_555
Pb10_3 O9_13 1_555 1_555
Pb18_5 O18_8 1_555 1_555
Pb6_12 O18_8 1_555 1_555
Pb7_11 O19_8 1_555 1_555
Pb8_9 O19_8 1_555 1_555
O11_10 Pb13_3 1_555 1_555
O12_10 Pb13_3 1_555 1_555
O14_10 Pb11_3 1_555 1_555
O17_10 Pb16_3 1_555 1_555
O18_8 C15_8 1_555 1_555
O19_8 C16_8 1_555 1_555
O26_10 Pb13_3 1_555 1_555
O27_10 Pb11_3 1_555 1_555
O29_10 Pb10_3 1_555 1_555
O32_10 Pb16_3 1_555 1_555
O33_8 Pb18_5 1_555 1_555
O34_8 Pb7_11 1_555 1_555
O41_13 Pb11_3 1_555 1_555
O42_13 Pb10_3 1_555 1_555
O43_13 Pb16_3 1_555 1_555
C15_8 O33_8 1_555 1_555
C16_8 O34_8 1_555 1_555
C26_8 C15_8 1_555 1_555
C27_8 C16_8 1_555 1_555
C37_8 C26_8 1_555 1_555
C38_8 C27_8 1_555 1_555
H14_8 C37_8 1_555 1_555
H15_8 C38_8 1_555 1_555
C48_8 C37_8 1_555 1_555
C49_8 C38_8 1_555 1_555
C59_8 C48_8 1_555 1_555
C60_8 C49_8 1_555 1_555
C70_8 C59_8 1_555 1_555
C71_8 C60_8 1_555 1_555
H25_8 C70_8 1_555 1_555
H26_8 C71_8 1_555 1_555
C81_8 C26_8 1_555 1_555
C82_8 C27_8 1_555 1_555
H36_8 C81_8 1_555 1_555
H37_8 C82_8 1_555 1_555
C92_8 C49_8 1_555 1_555
C93_8 C48_8 1_555 1_555
C103_8 C10_8 1_555 1_555
C104_8 C93_8 1_555 1_555
C114_8 C9_8 1_555 1_555
C115_8 C60_8 1_555 1_555
C125_8 C92_8 1_555 1_555
C126_8 C93_8 1_555 1_555
H47_8 C125_8 1_555 1_555
H48_8 C126_8 1_555 1_555
H58_8 C125_8 1_555 1_555
H59_8 C126_8 1_555 1_555
C136_8 C125_8 1_555 1_555
C137_8 C126_8 1_555 1_555
H69_8 C136_8 1_555 1_555
H70_8 C137_8 1_555 1_555
H80_8 C136_8 1_555 1_555
H81_8 C137_8 1_555 1_555
H91_8 C136_8 1_555 1_555
H92_8 C137_8 1_555 1_555
C147_8 C92_8 1_555 1_555
C148_8 C93_8 1_555 1_555
H102_8 C147_8 1_555 1_555
H103_8 C148_8 1_555 1_555
H113_8 C147_8 1_555 1_555
H114_8 C148_8 1_555 1_555
C158_8 C147_8 1_555 1_555
C159_8 C148_8 1_555 1_555
H124_8 C158_8 1_555 1_555
H125_8 C159_8 1_555 1_555
H135_8 C158_8 1_555 1_555
H136_8 C159_8 1_555 1_555
H146_8 C158_8 1_555 1_555
H147_8 C159_8 1_555 1_555
O9_13 Pb16_3 1_555 1_555
C6_8 C7_8 1_555 1_555
C9_8 C10_8 1_555 1_555
Pb16_3 O12_10 1_555 1_555
Pb11_3 O11_10 1_555 1_555
Pb10_3 O14_10 1_555 1_555
Pb10_3 O17_10 1_555 1_555
C59_8 C114_8 1_555 1_555
C70_8 C81_8 1_555 1_555
C71_8 C82_8 1_555 1_555
C92_8 C103_8 1_555 1_555
C103_8 C115_8 1_555 1_555
C104_8 C114_8 1_555 1_555
C104_8 C115_8 1_555 1_555
O9_14 Pb13_4 1_555 1_555
O10_14 Pb13_4 1_555 1_555
Pb12_3 O9_14 1_555 1_555
Pb7_9 O9_14 1_555 1_555
Pb9_9 O20_6 1_555 1_555
Pb6_9 O21_6 1_555 1_555
Pb11_9 O21_6 1_555 1_555
O11_11 Pb13_4 1_555 1_555
O12_11 Pb13_4 1_555 1_555
O14_11 Pb12_3 1_555 1_555
O16_6 Pb18_8 1_555 1_555
O17_11 Pb18_8 1_555 1_555
O20_6 Pb16_7 1_555 1_555
O21_6 C19_6 1_555 1_555
O26_11 Pb13_4 1_555 1_555
O27_11 Pb12_3 1_555 1_555
O29_11 Pb7_9 1_555 1_555
O31_6 Pb18_8 1_555 1_555
O32_11 Pb18_8 1_555 1_555
O35_6 Pb9_9 1_555 1_555
O36_6 Pb6_9 1_555 1_555
O41_14 Pb12_3 1_555 1_555
O42_14 Pb7_9 1_555 1_555
O43_14 Pb18_8 1_555 1_555
C17_6 O16_6 1_555 1_555
C18_6 O20_6 1_555 1_555
C19_6 O36_6 1_555 1_555
C28_6 C17_6 1_555 1_555
C29_6 C18_6 1_555 1_555
C30_6 C19_6 1_555 1_555
C39_6 C28_6 1_555 1_555
C40_6 C29_6 1_555 1_555
C41_6 C30_6 1_555 1_555
H16_6 C39_6 1_555 1_555
H17_6 C40_6 1_555 1_555
H18_6 C41_6 1_555 1_555
C50_6 C39_6 1_555 1_555
C51_6 C40_6 1_555 1_555
C52_6 C41_6 1_555 1_555
C61_6 C50_6 1_555 1_555
C62_6 C52_6 1_555 1_555
C63_6 C51_6 1_555 1_555
C72_6 C61_6 1_555 1_555
C73_6 C62_6 1_555 1_555
C74_6 C63_6 1_555 1_555
H27_6 C72_6 1_555 1_555
H28_6 C73_6 1_555 1_555
H29_6 C74_6 1_555 1_555
C83_6 C28_6 1_555 1_555
C84_6 C30_6 1_555 1_555
C85_6 C29_6 1_555 1_555
H38_6 C83_6 1_555 1_555
H39_6 C84_6 1_555 1_555
H40_6 C85_6 1_555 1_555
C94_6 C50_6 1_555 1_555
C95_6 C51_6 1_555 1_555
C96_6 C52_6 1_555 1_555
C105_6 C94_6 1_555 1_555
C106_6 C95_6 1_555 1_555
C107_6 C96_6 1_555 1_555
C116_6 C61_6 1_555 1_555
C117_6 C62_6 1_555 1_555
C118_6 C63_6 1_555 1_555
C127_6 C94_6 1_555 1_555
C128_6 C95_6 1_555 1_555
C129_6 C96_6 1_555 1_555
H49_6 C127_6 1_555 1_555
H50_6 C128_6 1_555 1_555
H51_6 C129_6 1_555 1_555
H60_6 C127_6 1_555 1_555
H61_6 C128_6 1_555 1_555
H62_6 C129_6 1_555 1_555
C138_6 C127_6 1_555 1_555
C139_6 C128_6 1_555 1_555
C140_6 C129_6 1_555 1_555
H71_6 C138_6 1_555 1_555
H72_6 C139_6 1_555 1_555
H73_6 C140_6 1_555 1_555
H82_6 C138_6 1_555 1_555
H83_6 C139_6 1_555 1_555
H84_6 C140_6 1_555 1_555
H93_6 C138_6 1_555 1_555
H94_6 C139_6 1_555 1_555
H95_6 C140_6 1_555 1_555
C149_6 C94_6 1_555 1_555
C150_6 C95_6 1_555 1_555
C151_6 C96_6 1_555 1_555
H104_6 C149_6 1_555 1_555
H105_6 C150_6 1_555 1_555
H106_6 C151_6 1_555 1_555
H115_6 C149_6 1_555 1_555
H116_6 C150_6 1_555 1_555
H117_6 C151_6 1_555 1_555
C160_6 C149_6 1_555 1_555
C161_6 C150_6 1_555 1_555
C162_6 C151_6 1_555 1_555
H126_6 C160_6 1_555 1_555
H127_6 C161_6 1_555 1_555
H128_6 C162_6 1_555 1_555
H137_6 C160_6 1_555 1_555
H138_6 C161_6 1_555 1_555
H139_6 C162_6 1_555 1_555
H148_6 C160_6 1_555 1_555
H149_6 C161_6 1_555 1_555
H150_6 C162_6 1_555 1_555
O9_14 Pb18_8 1_555 1_555
Pb18_8 O12_11 1_555 1_555
Pb12_3 O11_11 1_555 1_555
Pb7_9 O14_11 1_555 1_555
Pb7_9 O16_6 1_555 1_555
Pb7_9 O17_11 1_555 1_555
O31_6 C17_6 1_555 1_555
O35_6 C18_6 1_555 1_555
C72_6 C83_6 1_555 1_555
C73_6 C84_6 1_555 1_555
C74_6 C85_6 1_555 1_555
C105_6 C116_6 1_555 1_555
C105_6 C117_6 1_555 1_555
C106_6 C116_6 1_555 1_555
C106_6 C118_6 1_555 1_555
C107_6 C117_6 1_555 1_555
C107_6 C118_6 1_555 1_555
O9_15 Pb9_2 1_555 1_555
O10_15 Pb9_2 1_555 1_555
Pb12_4 O9_15 1_555 1_555
Pb6_2 O9_15 1_555 1_555
Pb16_10 O24_7 1_555 1_555
Pb17_9 O25_7 1_555 1_555
Pb18_10 O25_7 1_555 1_555
O11_12 Pb9_2 1_555 1_555
O12_12 Pb9_2 1_555 1_555
O14_12 Pb12_4 1_555 1_555
O15_7 Pb12_4 1_555 1_555
O17_12 Pb5_2 1_555 1_555
O24_7 Pb7_3 1_555 1_555
O25_7 C25_7 1_555 1_555
O26_12 Pb9_2 1_555 1_555
O27_12 Pb12_4 1_555 1_555
O29_12 Pb6_2 1_555 1_555
O30_7 Pb6_2 1_555 1_555
O32_12 Pb5_2 1_555 1_555
O39_7 Pb16_10 1_555 1_555
O40_7 Pb17_9 1_555 1_555
O41_15 Pb12_4 1_555 1_555
O42_15 Pb6_2 1_555 1_555
O43_15 Pb5_2 1_555 1_555
C23_7 O15_7 1_555 1_555
C24_7 O24_7 1_555 1_555
C25_7 O40_7 1_555 1_555
C34_7 C23_7 1_555 1_555
C35_7 C24_7 1_555 1_555
C36_7 C25_7 1_555 1_555
C45_7 C34_7 1_555 1_555
C46_7 C35_7 1_555 1_555
C47_7 C36_7 1_555 1_555
H22_7 C45_7 1_555 1_555
H23_7 C46_7 1_555 1_555
H24_7 C47_7 1_555 1_555
C56_7 C45_7 1_555 1_555
C57_7 C46_7 1_555 1_555
C58_7 C47_7 1_555 1_555
C67_7 C56_7 1_555 1_555
C68_7 C58_7 1_555 1_555
C69_7 C57_7 1_555 1_555
C78_7 C67_7 1_555 1_555
C79_7 C68_7 1_555 1_555
C80_7 C69_7 1_555 1_555
H33_7 C78_7 1_555 1_555
H34_7 C79_7 1_555 1_555
H35_7 C80_7 1_555 1_555
C89_7 C34_7 1_555 1_555
C90_7 C36_7 1_555 1_555
C91_7 C35_7 1_555 1_555
H44_7 C89_7 1_555 1_555
H45_7 C90_7 1_555 1_555
H46_7 C91_7 1_555 1_555
C100_7 C56_7 1_555 1_555
C101_7 C57_7 1_555 1_555
C102_7 C58_7 1_555 1_555
C111_7 C100_7 1_555 1_555
C112_7 C101_7 1_555 1_555
C113_7 C102_7 1_555 1_555
C122_7 C67_7 1_555 1_555
C123_7 C68_7 1_555 1_555
C124_7 C69_7 1_555 1_555
C133_7 C100_7 1_555 1_555
C134_7 C101_7 1_555 1_555
C135_7 C102_7 1_555 1_555
H55_7 C133_7 1_555 1_555
H56_7 C134_7 1_555 1_555
H57_7 C135_7 1_555 1_555
H66_7 C133_7 1_555 1_555
H67_7 C134_7 1_555 1_555
H68_7 C135_7 1_555 1_555
C144_7 C133_7 1_555 1_555
C145_7 C134_7 1_555 1_555
C146_7 C135_7 1_555 1_555
H77_7 C144_7 1_555 1_555
H78_7 C145_7 1_555 1_555
H79_7 C146_7 1_555 1_555
H88_7 C144_7 1_555 1_555
H89_7 C145_7 1_555 1_555
H90_7 C146_7 1_555 1_555
H99_7 C144_7 1_555 1_555
H100_7 C145_7 1_555 1_555
H101_7 C146_7 1_555 1_555
C155_7 C100_7 1_555 1_555
C156_7 C101_7 1_555 1_555
C157_7 C102_7 1_555 1_555
H110_7 C155_7 1_555 1_555
H111_7 C156_7 1_555 1_555
H112_7 C157_7 1_555 1_555
H121_7 C155_7 1_555 1_555
H122_7 C156_7 1_555 1_555
H123_7 C157_7 1_555 1_555
C166_7 C155_7 1_555 1_555
C167_7 C156_7 1_555 1_555
C168_7 C157_7 1_555 1_555
H132_7 C166_7 1_555 1_555
H133_7 C167_7 1_555 1_555
H134_7 C168_7 1_555 1_555
H143_7 C166_7 1_555 1_555
H144_7 C167_7 1_555 1_555
H145_7 C168_7 1_555 1_555
H154_7 C166_7 1_555 1_555
H155_7 C167_7 1_555 1_555
H156_7 C168_7 1_555 1_555
O9_15 Pb5_2 1_555 1_555
Pb5_2 O12_12 1_555 1_555
Pb12_4 O11_12 1_555 1_555
Pb6_2 O14_12 1_555 1_555
Pb6_2 O15_7 1_555 1_555
Pb6_2 O17_12 1_555 1_555
O30_7 C23_7 1_555 1_555
O39_7 C24_7 1_555 1_555
C78_7 C89_7 1_555 1_555
C79_7 C90_7 1_555 1_555
C80_7 C91_7 1_555 1_555
C111_7 C122_7 1_555 1_555
C111_7 C123_7 1_555 1_555
C112_7 C122_7 1_555 1_555
C112_7 C124_7 1_555 1_555
C113_7 C123_7 1_555 1_555
C113_7 C124_7 1_555 1_555
O11_12 C1_9 1_555 1_555
C1_9 O27_12 1_555 1_555
C2_9 C1_9 1_555 1_555
C3_9 C2_9 1_555 1_555
H1_9 C3_9 1_555 1_555
C4_9 C3_9 1_555 1_555
C5_9 C4_9 1_555 1_555
C6_9 C5_9 1_555 1_555
H2_9 C6_9 1_555 1_555
C7_9 C2_9 1_555 1_555
H3_9 C7_9 1_555 1_555
C8_9 C4_9 1_555 1_555
C9_9 C8_9 1_555 1_555
C10_9 C5_9 1_555 1_555
C11_9 C8_9 1_555 1_555
H4_9 C11_9 1_555 1_555
H5_9 C11_9 1_555 1_555
C12_9 C11_9 1_555 1_555
H6_9 C12_9 1_555 1_555
H7_9 C12_9 1_555 1_555
H8_9 C12_9 1_555 1_555
C13_9 C8_9 1_555 1_555
H9_9 C13_9 1_555 1_555
H10_9 C13_9 1_555 1_555
C14_9 C13_9 1_555 1_555
H11_9 C14_9 1_555 1_555
H12_9 C14_9 1_555 1_555
H13_9 C14_9 1_555 1_555
Pb8_7 O19_9 1_555 1_555
Pb17_9 O19_9 1_555 1_555
Pb5_6 O22_5 1_555 1_555
Pb6_8 O22_5 1_555 1_555
O11_5 C15_9 1_555 1_555
O19_9 C16_9 1_555 1_555
O22_5 C21_5 1_555 1_555
O12_8 C22_5 1_555 1_555
O34_9 Pb8_7 1_555 1_555
O37_5 Pb5_6 1_555 1_555
C15_9 O27_5 1_555 1_555
C16_9 O34_9 1_555 1_555
C20_5 O14_12 1_555 1_555
C21_5 O37_5 1_555 1_555
C22_5 O26_8 1_555 1_555
C26_9 C15_9 1_555 1_555
C27_9 C16_9 1_555 1_555
C31_5 C20_5 1_555 1_555
C32_5 C21_5 1_555 1_555
C33_5 C22_5 1_555 1_555
C37_9 C26_9 1_555 1_555
C38_9 C27_9 1_555 1_555
C42_5 C31_5 1_555 1_555
C43_5 C32_5 1_555 1_555
C44_5 C33_5 1_555 1_555
H14_9 C37_9 1_555 1_555
H15_9 C38_9 1_555 1_555
H19_5 C42_5 1_555 1_555
H20_5 C43_5 1_555 1_555
H21_5 C44_5 1_555 1_555
C48_9 C37_9 1_555 1_555
C49_9 C38_9 1_555 1_555
C53_5 C42_5 1_555 1_555
C54_5 C43_5 1_555 1_555
C55_5 C44_5 1_555 1_555
C59_9 C48_9 1_555 1_555
C60_9 C49_9 1_555 1_555
C64_5 C53_5 1_555 1_555
C65_5 C55_5 1_555 1_555
C66_5 C54_5 1_555 1_555
C70_9 C59_9 1_555 1_555
C71_9 C60_9 1_555 1_555
C75_5 C64_5 1_555 1_555
C76_5 C65_5 1_555 1_555
C77_5 C66_5 1_555 1_555
H25_9 C70_9 1_555 1_555
H26_9 C71_9 1_555 1_555
H30_5 C75_5 1_555 1_555
H31_5 C76_5 1_555 1_555
H32_5 C77_5 1_555 1_555
C81_9 C26_9 1_555 1_555
C82_9 C27_9 1_555 1_555
C86_5 C31_5 1_555 1_555
C87_5 C33_5 1_555 1_555
C88_5 C32_5 1_555 1_555
H36_9 C81_9 1_555 1_555
H37_9 C82_9 1_555 1_555
H41_5 C86_5 1_555 1_555
H42_5 C87_5 1_555 1_555
H43_5 C88_5 1_555 1_555
C92_9 C49_9 1_555 1_555
C93_9 C48_9 1_555 1_555
C97_5 C53_5 1_555 1_555
C98_5 C54_5 1_555 1_555
C99_5 C55_5 1_555 1_555
C103_9 C10_9 1_555 1_555
C104_9 C93_9 1_555 1_555
C108_5 C97_5 1_555 1_555
C109_5 C98_5 1_555 1_555
C110_5 C99_5 1_555 1_555
C114_9 C9_9 1_555 1_555
C115_9 C60_9 1_555 1_555
C119_5 C64_5 1_555 1_555
C120_5 C65_5 1_555 1_555
C121_5 C66_5 1_555 1_555
C125_9 C92_9 1_555 1_555
C126_9 C93_9 1_555 1_555
C130_5 C97_5 1_555 1_555
C131_5 C98_5 1_555 1_555
C132_5 C99_5 1_555 1_555
H47_9 C125_9 1_555 1_555
H48_9 C126_9 1_555 1_555
H52_5 C130_5 1_555 1_555
H53_5 C131_5 1_555 1_555
H54_5 C132_5 1_555 1_555
H58_9 C125_9 1_555 1_555
H59_9 C126_9 1_555 1_555
H63_5 C130_5 1_555 1_555
H64_5 C131_5 1_555 1_555
H65_5 C132_5 1_555 1_555
C136_9 C125_9 1_555 1_555
C137_9 C126_9 1_555 1_555
C141_5 C130_5 1_555 1_555
C142_5 C131_5 1_555 1_555
C143_5 C132_5 1_555 1_555
H69_9 C136_9 1_555 1_555
H70_9 C137_9 1_555 1_555
H74_5 C141_5 1_555 1_555
H75_5 C142_5 1_555 1_555
H76_5 C143_5 1_555 1_555
H80_9 C136_9 1_555 1_555
H81_9 C137_9 1_555 1_555
H85_5 C141_5 1_555 1_555
H86_5 C142_5 1_555 1_555
H87_5 C143_5 1_555 1_555
H91_9 C136_9 1_555 1_555
H92_9 C137_9 1_555 1_555
H96_5 C141_5 1_555 1_555
H97_5 C142_5 1_555 1_555
H98_5 C143_5 1_555 1_555
C147_9 C92_9 1_555 1_555
C148_9 C93_9 1_555 1_555
C152_5 C97_5 1_555 1_555
C153_5 C98_5 1_555 1_555
C154_5 C99_5 1_555 1_555
H102_9 C147_9 1_555 1_555
H103_9 C148_9 1_555 1_555
H107_5 C152_5 1_555 1_555
H108_5 C153_5 1_555 1_555
H109_5 C154_5 1_555 1_555
H113_9 C147_9 1_555 1_555
H114_9 C148_9 1_555 1_555
H118_5 C152_5 1_555 1_555
H119_5 C153_5 1_555 1_555
H120_5 C154_5 1_555 1_555
C158_9 C147_9 1_555 1_555
C159_9 C148_9 1_555 1_555
C163_5 C152_5 1_555 1_555
C164_5 C153_5 1_555 1_555
C165_5 C154_5 1_555 1_555
H124_9 C158_9 1_555 1_555
H125_9 C159_9 1_555 1_555
H129_5 C163_5 1_555 1_555
H130_5 C164_5 1_555 1_555
H131_5 C165_5 1_555 1_555
H135_9 C158_9 1_555 1_555
H136_9 C159_9 1_555 1_555
H140_5 C163_5 1_555 1_555
H141_5 C164_5 1_555 1_555
H142_5 C165_5 1_555 1_555
H146_9 C158_9 1_555 1_555
H147_9 C159_9 1_555 1_555
H151_5 C163_5 1_555 1_555
H152_5 C164_5 1_555 1_555
H153_5 C165_5 1_555 1_555
C6_9 C7_9 1_555 1_555
C9_9 C10_9 1_555 1_555
O29_12 C20_5 1_555 1_555
C59_9 C114_9 1_555 1_555
C70_9 C81_9 1_555 1_555
C71_9 C82_9 1_555 1_555
C75_5 C86_5 1_555 1_555
C76_5 C87_5 1_555 1_555
C77_5 C88_5 1_555 1_555
C92_9 C103_9 1_555 1_555
C103_9 C115_9 1_555 1_555
C104_9 C114_9 1_555 1_555
C104_9 C115_9 1_555 1_555
C108_5 C119_5 1_555 1_555
C108_5 C120_5 1_555 1_555
C109_5 C119_5 1_555 1_555
C109_5 C121_5 1_555 1_555
C110_5 C120_5 1_555 1_555
C110_5 C121_5 1_555 1_555
Pb8_8 O25_8 1_555 1_555
Pb17_7 O25_8 1_555 1_555
O25_8 C25_8 1_555 1_555
O40_8 Pb8_8 1_555 1_555
C23_8 O11_8 1_555 1_555
C24_8 O11_4 1_555 1_555
C25_8 O40_8 1_555 1_555
C34_8 C23_8 1_555 1_555
C35_8 C24_8 1_555 1_555
C36_8 C25_8 1_555 1_555
C45_8 C34_8 1_555 1_555
C46_8 C35_8 1_555 1_555
C47_8 C36_8 1_555 1_555
H22_8 C45_8 1_555 1_555
H23_8 C46_8 1_555 1_555
H24_8 C47_8 1_555 1_555
C56_8 C45_8 1_555 1_555
C57_8 C46_8 1_555 1_555
C58_8 C47_8 1_555 1_555
C67_8 C56_8 1_555 1_555
C68_8 C58_8 1_555 1_555
C69_8 C57_8 1_555 1_555
C78_8 C67_8 1_555 1_555
C79_8 C68_8 1_555 1_555
C80_8 C69_8 1_555 1_555
H33_8 C78_8 1_555 1_555
H34_8 C79_8 1_555 1_555
H35_8 C80_8 1_555 1_555
C89_8 C34_8 1_555 1_555
C90_8 C36_8 1_555 1_555
C91_8 C35_8 1_555 1_555
H44_8 C89_8 1_555 1_555
H45_8 C90_8 1_555 1_555
H46_8 C91_8 1_555 1_555
C100_8 C56_8 1_555 1_555
C101_8 C57_8 1_555 1_555
C102_8 C58_8 1_555 1_555
C111_8 C100_8 1_555 1_555
C112_8 C101_8 1_555 1_555
C113_8 C102_8 1_555 1_555
C122_8 C67_8 1_555 1_555
C123_8 C68_8 1_555 1_555
C124_8 C69_8 1_555 1_555
C133_8 C100_8 1_555 1_555
C134_8 C101_8 1_555 1_555
C135_8 C102_8 1_555 1_555
H55_8 C133_8 1_555 1_555
H56_8 C134_8 1_555 1_555
H57_8 C135_8 1_555 1_555
H66_8 C133_8 1_555 1_555
H67_8 C134_8 1_555 1_555
H68_8 C135_8 1_555 1_555
C144_8 C133_8 1_555 1_555
C145_8 C134_8 1_555 1_555
C146_8 C135_8 1_555 1_555
H77_8 C144_8 1_555 1_555
H78_8 C145_8 1_555 1_555
H79_8 C146_8 1_555 1_555
H88_8 C144_8 1_555 1_555
H89_8 C145_8 1_555 1_555
H90_8 C146_8 1_555 1_555
H99_8 C144_8 1_555 1_555
H100_8 C145_8 1_555 1_555
H101_8 C146_8 1_555 1_555
C155_8 C100_8 1_555 1_555
C156_8 C101_8 1_555 1_555
C157_8 C102_8 1_555 1_555
H110_8 C155_8 1_555 1_555
H111_8 C156_8 1_555 1_555
H112_8 C157_8 1_555 1_555
H121_8 C155_8 1_555 1_555
H122_8 C156_8 1_555 1_555
H123_8 C157_8 1_555 1_555
C166_8 C155_8 1_555 1_555
C167_8 C156_8 1_555 1_555
C168_8 C157_8 1_555 1_555
H132_8 C166_8 1_555 1_555
H133_8 C167_8 1_555 1_555
H134_8 C168_8 1_555 1_555
H143_8 C166_8 1_555 1_555
H144_8 C167_8 1_555 1_555
H145_8 C168_8 1_555 1_555
H154_8 C166_8 1_555 1_555
H155_8 C167_8 1_555 1_555
H156_8 C168_8 1_555 1_555
O27_8 C23_8 1_555 1_555
O27_4 C24_8 1_555 1_555
C78_8 C89_8 1_555 1_555
C79_8 C90_8 1_555 1_555
C80_8 C91_8 1_555 1_555
C111_8 C122_8 1_555 1_555
C111_8 C123_8 1_555 1_555
C112_8 C122_8 1_555 1_555
C112_8 C124_8 1_555 1_555
C113_8 C123_8 1_555 1_555
C113_8 C124_8 1_555 1_555
O9_16 Pb6_8 1_555 1_555
O10_16 Pb6_8 1_555 1_555
Pb5_6 O9_16 1_555 1_555
Pb9_6 O9_16 1_555 1_555
O12_13 Pb6_8 1_555 1_555
O14_13 Pb5_6 1_555 1_555
O17_13 Pb11_8 1_555 1_555
O26_13 Pb6_8 1_555 1_555
O29_13 Pb9_6 1_555 1_555
O32_13 Pb11_8 1_555 1_555
O41_16 Pb5_6 1_555 1_555
O42_16 Pb9_6 1_555 1_555
O43_16 Pb11_8 1_555 1_555
O9_16 Pb11_8 1_555 1_555
Pb11_8 O12_13 1_555 1_555
Pb9_6 O14_13 1_555 1_555
Pb9_6 O17_13 1_555 1_555
O9_17 Pb6_9 1_555 1_555
O10_17 Pb6_9 1_555 1_555
Pb5_7 O9_17 1_555 1_555
Pb9_7 O9_17 1_555 1_555
Pb11_5 O20_7 1_555 1_555
Pb11_7 O21_7 1_555 1_555
Pb9_5 O21_7 1_555 1_555
O16_7 Pb11_9 1_555 1_555
O20_7 Pb9_9 1_555 1_555
O21_7 C19_7 1_555 1_555
O31_7 Pb11_9 1_555 1_555
O35_7 Pb11_5 1_555 1_555
O36_7 Pb11_7 1_555 1_555
O41_17 Pb5_7 1_555 1_555
O42_17 Pb9_7 1_555 1_555
O43_17 Pb11_9 1_555 1_555
C17_7 O16_7 1_555 1_555
C18_7 O20_7 1_555 1_555
C19_7 O36_7 1_555 1_555
C28_7 C17_7 1_555 1_555
C29_7 C18_7 1_555 1_555
C30_7 C19_7 1_555 1_555
C39_7 C28_7 1_555 1_555
C40_7 C29_7 1_555 1_555
C41_7 C30_7 1_555 1_555
H16_7 C39_7 1_555 1_555
H17_7 C40_7 1_555 1_555
H18_7 C41_7 1_555 1_555
C50_7 C39_7 1_555 1_555
C51_7 C40_7 1_555 1_555
C52_7 C41_7 1_555 1_555
C61_7 C50_7 1_555 1_555
C62_7 C52_7 1_555 1_555
C63_7 C51_7 1_555 1_555
C72_7 C61_7 1_555 1_555
C73_7 C62_7 1_555 1_555
C74_7 C63_7 1_555 1_555
H27_7 C72_7 1_555 1_555
H28_7 C73_7 1_555 1_555
H29_7 C74_7 1_555 1_555
C83_7 C28_7 1_555 1_555
C84_7 C30_7 1_555 1_555
C85_7 C29_7 1_555 1_555
H38_7 C83_7 1_555 1_555
H39_7 C84_7 1_555 1_555
H40_7 C85_7 1_555 1_555
C94_7 C50_7 1_555 1_555
C95_7 C51_7 1_555 1_555
C96_7 C52_7 1_555 1_555
C105_7 C94_7 1_555 1_555
C106_7 C95_7 1_555 1_555
C107_7 C96_7 1_555 1_555
C116_7 C61_7 1_555 1_555
C117_7 C62_7 1_555 1_555
C118_7 C63_7 1_555 1_555
C127_7 C94_7 1_555 1_555
C128_7 C95_7 1_555 1_555
C129_7 C96_7 1_555 1_555
H49_7 C127_7 1_555 1_555
H50_7 C128_7 1_555 1_555
H51_7 C129_7 1_555 1_555
H60_7 C127_7 1_555 1_555
H61_7 C128_7 1_555 1_555
H62_7 C129_7 1_555 1_555
C138_7 C127_7 1_555 1_555
C139_7 C128_7 1_555 1_555
C140_7 C129_7 1_555 1_555
H71_7 C138_7 1_555 1_555
H72_7 C139_7 1_555 1_555
H73_7 C140_7 1_555 1_555
H82_7 C138_7 1_555 1_555
H83_7 C139_7 1_555 1_555
H84_7 C140_7 1_555 1_555
H93_7 C138_7 1_555 1_555
H94_7 C139_7 1_555 1_555
H95_7 C140_7 1_555 1_555
C149_7 C94_7 1_555 1_555
C150_7 C95_7 1_555 1_555
C151_7 C96_7 1_555 1_555
H104_7 C149_7 1_555 1_555
H105_7 C150_7 1_555 1_555
H106_7 C151_7 1_555 1_555
H115_7 C149_7 1_555 1_555
H116_7 C150_7 1_555 1_555
H117_7 C151_7 1_555 1_555
C160_7 C149_7 1_555 1_555
C161_7 C150_7 1_555 1_555
C162_7 C151_7 1_555 1_555
H126_7 C160_7 1_555 1_555
H127_7 C161_7 1_555 1_555
H128_7 C162_7 1_555 1_555
H137_7 C160_7 1_555 1_555
H138_7 C161_7 1_555 1_555
H139_7 C162_7 1_555 1_555
H148_7 C160_7 1_555 1_555
H149_7 C161_7 1_555 1_555
H150_7 C162_7 1_555 1_555
O9_17 Pb11_9 1_555 1_555
Pb9_7 O16_7 1_555 1_555
O31_7 C17_7 1_555 1_555
O35_7 C18_7 1_555 1_555
C72_7 C83_7 1_555 1_555
C73_7 C84_7 1_555 1_555
C74_7 C85_7 1_555 1_555
C105_7 C116_7 1_555 1_555
C105_7 C117_7 1_555 1_555
C106_7 C116_7 1_555 1_555
C106_7 C118_7 1_555 1_555
C107_7 C117_7 1_555 1_555
C107_7 C118_7 1_555 1_555
Pb9_4 O22_6 1_555 1_555
Pb5_4 O22_6 1_555 1_555
Pb6_13 O23_5 1_555 1_555
Pb15_6 O23_5 1_555 1_555
O22_6 C21_6 1_555 1_555
O23_5 C22_6 1_555 1_555
O37_6 Pb9_4 1_555 1_555
O38_5 Pb6_13 1_555 1_555
C20_6 O17_5 1_555 1_555
C21_6 O37_6 1_555 1_555
C22_6 O38_5 1_555 1_555
C31_6 C20_6 1_555 1_555
C32_6 C21_6 1_555 1_555
C33_6 C22_6 1_555 1_555
C42_6 C31_6 1_555 1_555
C43_6 C32_6 1_555 1_555
C44_6 C33_6 1_555 1_555
H19_6 C42_6 1_555 1_555
H20_6 C43_6 1_555 1_555
H21_6 C44_6 1_555 1_555
C53_6 C42_6 1_555 1_555
C54_6 C43_6 1_555 1_555
C55_6 C44_6 1_555 1_555
C64_6 C53_6 1_555 1_555
C65_6 C55_6 1_555 1_555
C66_6 C54_6 1_555 1_555
C75_6 C64_6 1_555 1_555
C76_6 C65_6 1_555 1_555
C77_6 C66_6 1_555 1_555
H30_6 C75_6 1_555 1_555
H31_6 C76_6 1_555 1_555
H32_6 C77_6 1_555 1_555
C86_6 C31_6 1_555 1_555
C87_6 C33_6 1_555 1_555
C88_6 C32_6 1_555 1_555
H41_6 C86_6 1_555 1_555
H42_6 C87_6 1_555 1_555
H43_6 C88_6 1_555 1_555
C97_6 C53_6 1_555 1_555
C98_6 C54_6 1_555 1_555
C99_6 C55_6 1_555 1_555
C108_6 C97_6 1_555 1_555
C109_6 C98_6 1_555 1_555
C110_6 C99_6 1_555 1_555
C119_6 C64_6 1_555 1_555
C120_6 C65_6 1_555 1_555
C121_6 C66_6 1_555 1_555
C130_6 C97_6 1_555 1_555
C131_6 C98_6 1_555 1_555
C132_6 C99_6 1_555 1_555
H52_6 C130_6 1_555 1_555
H53_6 C131_6 1_555 1_555
H54_6 C132_6 1_555 1_555
H63_6 C130_6 1_555 1_555
H64_6 C131_6 1_555 1_555
H65_6 C132_6 1_555 1_555
C141_6 C130_6 1_555 1_555
C142_6 C131_6 1_555 1_555
C143_6 C132_6 1_555 1_555
H74_6 C141_6 1_555 1_555
H75_6 C142_6 1_555 1_555
H76_6 C143_6 1_555 1_555
H85_6 C141_6 1_555 1_555
H86_6 C142_6 1_555 1_555
H87_6 C143_6 1_555 1_555
H96_6 C141_6 1_555 1_555
H97_6 C142_6 1_555 1_555
H98_6 C143_6 1_555 1_555
C152_6 C97_6 1_555 1_555
C153_6 C98_6 1_555 1_555
C154_6 C99_6 1_555 1_555
H107_6 C152_6 1_555 1_555
H108_6 C153_6 1_555 1_555
H109_6 C154_6 1_555 1_555
H118_6 C152_6 1_555 1_555
H119_6 C153_6 1_555 1_555
H120_6 C154_6 1_555 1_555
C163_6 C152_6 1_555 1_555
C164_6 C153_6 1_555 1_555
C165_6 C154_6 1_555 1_555
H129_6 C163_6 1_555 1_555
H130_6 C164_6 1_555 1_555
H131_6 C165_6 1_555 1_555
H140_6 C163_6 1_555 1_555
H141_6 C164_6 1_555 1_555
H142_6 C165_6 1_555 1_555
H151_6 C163_6 1_555 1_555
H152_6 C164_6 1_555 1_555
H153_6 C165_6 1_555 1_555
O32_5 C20_6 1_555 1_555
C75_6 C86_6 1_555 1_555
C76_6 C87_6 1_555 1_555
C77_6 C88_6 1_555 1_555
C108_6 C119_6 1_555 1_555
C108_6 C120_6 1_555 1_555
C109_6 C119_6 1_555 1_555
C109_6 C121_6 1_555 1_555
C110_6 C120_6 1_555 1_555
C110_6 C121_6 1_555 1_555
Pb12_6 O22_7 1_555 1_555
Pb16_9 O22_7 1_555 1_555
Pb10_4 O23_6 1_555 1_555
Pb11_4 O23_6 1_555 1_555
O22_7 C21_7 1_555 1_555
O23_6 C22_7 1_555 1_555
O37_7 Pb12_6 1_555 1_555
O38_6 Pb10_4 1_555 1_555
C20_7 O17_4 1_555 1_555
C21_7 O37_7 1_555 1_555
C22_7 O38_6 1_555 1_555
C31_7 C20_7 1_555 1_555
C32_7 C21_7 1_555 1_555
C33_7 C22_7 1_555 1_555
C42_7 C31_7 1_555 1_555
C43_7 C32_7 1_555 1_555
C44_7 C33_7 1_555 1_555
H19_7 C42_7 1_555 1_555
H20_7 C43_7 1_555 1_555
H21_7 C44_7 1_555 1_555
C53_7 C42_7 1_555 1_555
C54_7 C43_7 1_555 1_555
C55_7 C44_7 1_555 1_555
C64_7 C53_7 1_555 1_555
C65_7 C55_7 1_555 1_555
C66_7 C54_7 1_555 1_555
C75_7 C64_7 1_555 1_555
C76_7 C65_7 1_555 1_555
C77_7 C66_7 1_555 1_555
H30_7 C75_7 1_555 1_555
H31_7 C76_7 1_555 1_555
H32_7 C77_7 1_555 1_555
C86_7 C31_7 1_555 1_555
C87_7 C33_7 1_555 1_555
C88_7 C32_7 1_555 1_555
H41_7 C86_7 1_555 1_555
H42_7 C87_7 1_555 1_555
H43_7 C88_7 1_555 1_555
C97_7 C53_7 1_555 1_555
C98_7 C54_7 1_555 1_555
C99_7 C55_7 1_555 1_555
C108_7 C97_7 1_555 1_555
C109_7 C98_7 1_555 1_555
C110_7 C99_7 1_555 1_555
C119_7 C64_7 1_555 1_555
C120_7 C65_7 1_555 1_555
C121_7 C66_7 1_555 1_555
C130_7 C97_7 1_555 1_555
C131_7 C98_7 1_555 1_555
C132_7 C99_7 1_555 1_555
H52_7 C130_7 1_555 1_555
H53_7 C131_7 1_555 1_555
H54_7 C132_7 1_555 1_555
H63_7 C130_7 1_555 1_555
H64_7 C131_7 1_555 1_555
H65_7 C132_7 1_555 1_555
C141_7 C130_7 1_555 1_555
C142_7 C131_7 1_555 1_555
C143_7 C132_7 1_555 1_555
H74_7 C141_7 1_555 1_555
H75_7 C142_7 1_555 1_555
H76_7 C143_7 1_555 1_555
H85_7 C141_7 1_555 1_555
H86_7 C142_7 1_555 1_555
H87_7 C143_7 1_555 1_555
H96_7 C141_7 1_555 1_555
H97_7 C142_7 1_555 1_555
H98_7 C143_7 1_555 1_555
C152_7 C97_7 1_555 1_555
C153_7 C98_7 1_555 1_555
C154_7 C99_7 1_555 1_555
H107_7 C152_7 1_555 1_555
H108_7 C153_7 1_555 1_555
H109_7 C154_7 1_555 1_555
H118_7 C152_7 1_555 1_555
H119_7 C153_7 1_555 1_555
H120_7 C154_7 1_555 1_555
C163_7 C152_7 1_555 1_555
C164_7 C153_7 1_555 1_555
C165_7 C154_7 1_555 1_555
H129_7 C163_7 1_555 1_555
H130_7 C164_7 1_555 1_555
H131_7 C165_7 1_555 1_555
H140_7 C163_7 1_555 1_555
H141_7 C164_7 1_555 1_555
H142_7 C165_7 1_555 1_555
H151_7 C163_7 1_555 1_555
H152_7 C164_7 1_555 1_555
H153_7 C165_7 1_555 1_555
O32_4 C20_7 1_555 1_555
C75_7 C86_7 1_555 1_555
C76_7 C87_7 1_555 1_555
C77_7 C88_7 1_555 1_555
C108_7 C119_7 1_555 1_555
C108_7 C120_7 1_555 1_555
C109_7 C119_7 1_555 1_555
C109_7 C121_7 1_555 1_555
C110_7 C120_7 1_555 1_555
C110_7 C121_7 1_555 1_555
O9_18 Pb7_11 1_555 1_555
O10_18 Pb7_11 1_555 1_555
Pb18_9 O9_18 1_555 1_555
Pb17_8 O9_18 1_555 1_555
O11_13 Pb7_11 1_555 1_555
O12_14 Pb7_11 1_555 1_555
O13_5 Pb7_11 1_555 1_555
O14_14 Pb18_9 1_555 1_555
O16_8 Pb8_9 1_555 1_555
O17_14 Pb8_9 1_555 1_555
O11_9 C19_8 1_555 1_555
O12 C21_8 1_555 1_555
O14_2 C22_8 1_555 1_555
O26_14 Pb7_11 1_555 1_555
O27_13 Pb18_9 1_555 1_555
O28_5 Pb18_9 1_555 1_555
O29_14 Pb17_8 1_555 1_555
O31_8 Pb8_9 1_555 1_555
O32_14 Pb8_9 1_555 1_555
O41_18 Pb18_9 1_555 1_555
O42_18 Pb17_8 1_555 1_555
O43_18 Pb8_9 1_555 1_555
C17_8 O16_8 1_555 1_555
C18_8 O11_10 1_555 1_555
C19_8 O27_9 1_555 1_555
C20_8 O13_5 1_555 1_555
C21_8 O26 1_555 1_555
C22_8 O29_2 1_555 1_555
C28_8 C17_8 1_555 1_555
C29_8 C18_8 1_555 1_555
C30_8 C19_8 1_555 1_555
C31_8 C20_8 1_555 1_555
C32_8 C21_8 1_555 1_555
C33_8 C22_8 1_555 1_555
C39_8 C28_8 1_555 1_555
C40_8 C29_8 1_555 1_555
C41_8 C30_8 1_555 1_555
C42_8 C31_8 1_555 1_555
C43_8 C32_8 1_555 1_555
C44_8 C33_8 1_555 1_555
H16_8 C39_8 1_555 1_555
H17_8 C40_8 1_555 1_555
H18_8 C41_8 1_555 1_555
H19_8 C42_8 1_555 1_555
H20_8 C43_8 1_555 1_555
H21_8 C44_8 1_555 1_555
C50_8 C39_8 1_555 1_555
C51_8 C40_8 1_555 1_555
C52_8 C41_8 1_555 1_555
C53_8 C42_8 1_555 1_555
C54_8 C43_8 1_555 1_555
C55_8 C44_8 1_555 1_555
C61_8 C50_8 1_555 1_555
C62_8 C52_8 1_555 1_555
C63_8 C51_8 1_555 1_555
C64_8 C53_8 1_555 1_555
C65_8 C55_8 1_555 1_555
C66_8 C54_8 1_555 1_555
C72_8 C61_8 1_555 1_555
C73_8 C62_8 1_555 1_555
C74_8 C63_8 1_555 1_555
C75_8 C64_8 1_555 1_555
C76_8 C65_8 1_555 1_555
C77_8 C66_8 1_555 1_555
H27_8 C72_8 1_555 1_555
H28_8 C73_8 1_555 1_555
H29_8 C74_8 1_555 1_555
H30_8 C75_8 1_555 1_555
H31_8 C76_8 1_555 1_555
H32_8 C77_8 1_555 1_555
C83_8 C28_8 1_555 1_555
C84_8 C30_8 1_555 1_555
C85_8 C29_8 1_555 1_555
C86_8 C31_8 1_555 1_555
C87_8 C33_8 1_555 1_555
C88_8 C32_8 1_555 1_555
H38_8 C83_8 1_555 1_555
H39_8 C84_8 1_555 1_555
H40_8 C85_8 1_555 1_555
H41_8 C86_8 1_555 1_555
H42_8 C87_8 1_555 1_555
H43_8 C88_8 1_555 1_555
C94_8 C50_8 1_555 1_555
C95_8 C51_8 1_555 1_555
C96_8 C52_8 1_555 1_555
C97_8 C53_8 1_555 1_555
C98_8 C54_8 1_555 1_555
C99_8 C55_8 1_555 1_555
C105_8 C94_8 1_555 1_555
C106_8 C95_8 1_555 1_555
C107_8 C96_8 1_555 1_555
C108_8 C97_8 1_555 1_555
C109_8 C98_8 1_555 1_555
C110_8 C99_8 1_555 1_555
C116_8 C61_8 1_555 1_555
C117_8 C62_8 1_555 1_555
C118_8 C63_8 1_555 1_555
C119_8 C64_8 1_555 1_555
C120_8 C65_8 1_555 1_555
C121_8 C66_8 1_555 1_555
C127_8 C94_8 1_555 1_555
C128_8 C95_8 1_555 1_555
C129_8 C96_8 1_555 1_555
C130_8 C97_8 1_555 1_555
C131_8 C98_8 1_555 1_555
C132_8 C99_8 1_555 1_555
H49_8 C127_8 1_555 1_555
H50_8 C128_8 1_555 1_555
H51_8 C129_8 1_555 1_555
H52_8 C130_8 1_555 1_555
H53_8 C131_8 1_555 1_555
H54_8 C132_8 1_555 1_555
H60_8 C127_8 1_555 1_555
H61_8 C128_8 1_555 1_555
H62_8 C129_8 1_555 1_555
H63_8 C130_8 1_555 1_555
H64_8 C131_8 1_555 1_555
H65_8 C132_8 1_555 1_555
C138_8 C127_8 1_555 1_555
C139_8 C128_8 1_555 1_555
C140_8 C129_8 1_555 1_555
C141_8 C130_8 1_555 1_555
C142_8 C131_8 1_555 1_555
C143_8 C132_8 1_555 1_555
H71_8 C138_8 1_555 1_555
H72_8 C139_8 1_555 1_555
H73_8 C140_8 1_555 1_555
H74_8 C141_8 1_555 1_555
H75_8 C142_8 1_555 1_555
H76_8 C143_8 1_555 1_555
H82_8 C138_8 1_555 1_555
H83_8 C139_8 1_555 1_555
H84_8 C140_8 1_555 1_555
H85_8 C141_8 1_555 1_555
H86_8 C142_8 1_555 1_555
H87_8 C143_8 1_555 1_555
H93_8 C138_8 1_555 1_555
H94_8 C139_8 1_555 1_555
H95_8 C140_8 1_555 1_555
H96_8 C141_8 1_555 1_555
H97_8 C142_8 1_555 1_555
H98_8 C143_8 1_555 1_555
C149_8 C94_8 1_555 1_555
C150_8 C95_8 1_555 1_555
C151_8 C96_8 1_555 1_555
C152_8 C97_8 1_555 1_555
C153_8 C98_8 1_555 1_555
C154_8 C99_8 1_555 1_555
H104_8 C149_8 1_555 1_555
H105_8 C150_8 1_555 1_555
H106_8 C151_8 1_555 1_555
H107_8 C152_8 1_555 1_555
H108_8 C153_8 1_555 1_555
H109_8 C154_8 1_555 1_555
H115_8 C149_8 1_555 1_555
H116_8 C150_8 1_555 1_555
H117_8 C151_8 1_555 1_555
H118_8 C152_8 1_555 1_555
H119_8 C153_8 1_555 1_555
H120_8 C154_8 1_555 1_555
C160_8 C149_8 1_555 1_555
C161_8 C150_8 1_555 1_555
C162_8 C151_8 1_555 1_555
C163_8 C152_8 1_555 1_555
C164_8 C153_8 1_555 1_555
C165_8 C154_8 1_555 1_555
H126_8 C160_8 1_555 1_555
H127_8 C161_8 1_555 1_555
H128_8 C162_8 1_555 1_555
H129_8 C163_8 1_555 1_555
H130_8 C164_8 1_555 1_555
H131_8 C165_8 1_555 1_555
H137_8 C160_8 1_555 1_555
H138_8 C161_8 1_555 1_555
H139_8 C162_8 1_555 1_555
H140_8 C163_8 1_555 1_555
H141_8 C164_8 1_555 1_555
H142_8 C165_8 1_555 1_555
H148_8 C160_8 1_555 1_555
H149_8 C161_8 1_555 1_555
H150_8 C162_8 1_555 1_555
H151_8 C163_8 1_555 1_555
H152_8 C164_8 1_555 1_555
H153_8 C165_8 1_555 1_555
O9_18 Pb8_9 1_555 1_555
Pb8_9 O12_14 1_555 1_555
Pb18_9 O11_13 1_555 1_555
Pb18_9 O13_5 1_555 1_555
Pb17_8 O14_14 1_555 1_555
Pb17_8 O16_8 1_555 1_555
Pb17_8 O17_14 1_555 1_555
O28_5 C20_8 1_555 1_555
O31_8 C17_8 1_555 1_555
O27_10 C18_8 1_555 1_555
C72_8 C83_8 1_555 1_555
C73_8 C84_8 1_555 1_555
C74_8 C85_8 1_555 1_555
C75_8 C86_8 1_555 1_555
C76_8 C87_8 1_555 1_555
C77_8 C88_8 1_555 1_555
C105_8 C116_8 1_555 1_555
C105_8 C117_8 1_555 1_555
C106_8 C116_8 1_555 1_555
C106_8 C118_8 1_555 1_555
C107_8 C117_8 1_555 1_555
C107_8 C118_8 1_555 1_555
C108_8 C119_8 1_555 1_555
C108_8 C120_8 1_555 1_555
C109_8 C119_8 1_555 1_555
C109_8 C121_8 1_555 1_555
C110_8 C120_8 1_555 1_555
C110_8 C121_8 1_555 1_555
Pb15_5 O7_9 1_555 1_555
O7_9 C1_10 1_555 1_555
O8_9 Pb15_5 1_555 1_555
O9_19 Pb15_5 1_555 1_555
O10_19 Pb15_5 1_555 1_555
C1_10 O8_9 1_555 1_555
C2_10 C1_10 1_555 1_555
C3_10 C2_10 1_555 1_555
H1_10 C3_10 1_555 1_555
C4_10 C3_10 1_555 1_555
C5_10 C4_10 1_555 1_555
C6_10 C5_10 1_555 1_555
H2_10 C6_10 1_555 1_555
C7_10 C2_10 1_555 1_555
H3_10 C7_10 1_555 1_555
C8_10 C4_10 1_555 1_555
C9_10 C8_10 1_555 1_555
C10_10 C5_10 1_555 1_555
C11_10 C8_10 1_555 1_555
H4_10 C11_10 1_555 1_555
H5_10 C11_10 1_555 1_555
C12_10 C11_10 1_555 1_555
H6_10 C12_10 1_555 1_555
H7_10 C12_10 1_555 1_555
H8_10 C12_10 1_555 1_555
C13_10 C8_10 1_555 1_555
H9_10 C13_10 1_555 1_555
H10_10 C13_10 1_555 1_555
C14_10 C13_10 1_555 1_555
H11_10 C14_10 1_555 1_555
H12_10 C14_10 1_555 1_555
H13_10 C14_10 1_555 1_555
Pb17_5 O7_9 1_555 1_555
Pb6_12 O9_19 1_555 1_555
Pb18_5 O9_19 1_555 1_555
Pb8_5 O19_10 1_555 1_555
Pb12_5 O19_10 1_555 1_555
O11_14 Pb15_5 1_555 1_555
O11_3 C15_10 1_555 1_555
O19_10 C16_10 1_555 1_555
O27_14 Pb6_12 1_555 1_555
O34_10 Pb8_5 1_555 1_555
O41_19 Pb6_12 1_555 1_555
O42_19 Pb18_5 1_555 1_555
O43_19 Pb17_5 1_555 1_555
C15_10 O27_3 1_555 1_555
C16_10 O34_10 1_555 1_555
C26_10 C15_10 1_555 1_555
C27_10 C16_10 1_555 1_555
C37_10 C26_10 1_555 1_555
C38_10 C27_10 1_555 1_555
H14_10 C37_10 1_555 1_555
H15_10 C38_10 1_555 1_555
C48_10 C37_10 1_555 1_555
C49_10 C38_10 1_555 1_555
C59_10 C48_10 1_555 1_555
C60_10 C49_10 1_555 1_555
C70_10 C59_10 1_555 1_555
C71_10 C60_10 1_555 1_555
H25_10 C70_10 1_555 1_555
H26_10 C71_10 1_555 1_555
C81_10 C26_10 1_555 1_555
C82_10 C27_10 1_555 1_555
H36_10 C81_10 1_555 1_555
H37_10 C82_10 1_555 1_555
C92_10 C49_10 1_555 1_555
C93_10 C48_10 1_555 1_555
C103_10 C10_10 1_555 1_555
C104_10 C93_10 1_555 1_555
C114_10 C9_10 1_555 1_555
C115_10 C60_10 1_555 1_555
C125_10 C92_10 1_555 1_555
C126_10 C93_10 1_555 1_555
H47_10 C125_10 1_555 1_555
H48_10 C126_10 1_555 1_555
H58_10 C125_10 1_555 1_555
H59_10 C126_10 1_555 1_555
C136_10 C125_10 1_555 1_555
C137_10 C126_10 1_555 1_555
H69_10 C136_10 1_555 1_555
H70_10 C137_10 1_555 1_555
H80_10 C136_10 1_555 1_555
H81_10 C137_10 1_555 1_555
H91_10 C136_10 1_555 1_555
H92_10 C137_10 1_555 1_555
C147_10 C92_10 1_555 1_555
C148_10 C93_10 1_555 1_555
H102_10 C147_10 1_555 1_555
H103_10 C148_10 1_555 1_555
H113_10 C147_10 1_555 1_555
H114_10 C148_10 1_555 1_555
C158_10 C147_10 1_555 1_555
C159_10 C148_10 1_555 1_555
H124_10 C158_10 1_555 1_555
H125_10 C159_10 1_555 1_555
H135_10 C158_10 1_555 1_555
H136_10 C159_10 1_555 1_555
H146_10 C158_10 1_555 1_555
H147_10 C159_10 1_555 1_555
O9_19 Pb17_5 1_555 1_555
C6_10 C7_10 1_555 1_555
C9_10 C10_10 1_555 1_555
Pb6_12 O11_14 1_555 1_555
C59_10 C114_10 1_555 1_555
C70_10 C81_10 1_555 1_555
C71_10 C82_10 1_555 1_555
C92_10 C103_10 1_555 1_555
C103_10 C115_10 1_555 1_555
C104_10 C114_10 1_555 1_555
C104_10 C115_10 1_555 1_555
O9_20 Pb15_6 1_555 1_555
O10_20 Pb15_6 1_555 1_555
Pb6_13 O9_20 1_555 1_555
Pb18_6 O9_20 1_555 1_555
O12_15 Pb15_6 1_555 1_555
O14_15 Pb6_13 1_555 1_555
O17_15 Pb17_6 1_555 1_555
O26_15 Pb15_6 1_555 1_555
O29_15 Pb18_6 1_555 1_555
O32_15 Pb17_6 1_555 1_555
O41_20 Pb6_13 1_555 1_555
O42_20 Pb18_6 1_555 1_555
O43_20 Pb17_6 1_555 1_555
O9_20 Pb17_6 1_555 1_555
Pb17_6 O12_15 1_555 1_555
Pb18_6 O14_15 1_555 1_555
Pb18_6 O17_15 1_555 1_555
O11_2 C1_11 1_555 1_555
C1_11 O27_2 1_555 1_555
C2_11 C1_11 1_555 1_555
C3_11 C2_11 1_555 1_555
H1_11 C3_11 1_555 1_555
C4_11 C3_11 1_555 1_555
C5_11 C4_11 1_555 1_555
C6_11 C5_11 1_555 1_555
H2_11 C6_11 1_555 1_555
C7_11 C2_11 1_555 1_555
H3_11 C7_11 1_555 1_555
C8_11 C4_11 1_555 1_555
C9_11 C8_11 1_555 1_555
C10_11 C5_11 1_555 1_555
C11_11 C8_11 1_555 1_555
H4_11 C11_11 1_555 1_555
H5_11 C11_11 1_555 1_555
C12_11 C11_11 1_555 1_555
H6_11 C12_11 1_555 1_555
H7_11 C12_11 1_555 1_555
H8_11 C12_11 1_555 1_555
C13_11 C8_11 1_555 1_555
H9_11 C13_11 1_555 1_555
H10_11 C13_11 1_555 1_555
C14_11 C13_11 1_555 1_555
H11_11 C14_11 1_555 1_555
H12_11 C14_11 1_555 1_555
H13_11 C14_11 1_555 1_555
Pb8_3 O18_9 1_555 1_555
Pb6_14 O18_9 1_555 1_555
Pb7_12 O19_11 1_555 1_555
Pb17_3 O19_11 1_555 1_555
O18_9 C15_11 1_555 1_555
O19_11 C16_11 1_555 1_555
O33_9 Pb8_3 1_555 1_555
O34_11 Pb7_12 1_555 1_555
C15_11 O33_9 1_555 1_555
C16_11 O34_11 1_555 1_555
C26_11 C15_11 1_555 1_555
C27_11 C16_11 1_555 1_555
C37_11 C26_11 1_555 1_555
C38_11 C27_11 1_555 1_555
H14_11 C37_11 1_555 1_555
H15_11 C38_11 1_555 1_555
C48_11 C37_11 1_555 1_555
C49_11 C38_11 1_555 1_555
C59_11 C48_11 1_555 1_555
C60_11 C49_11 1_555 1_555
C70_11 C59_11 1_555 1_555
C71_11 C60_11 1_555 1_555
H25_11 C70_11 1_555 1_555
H26_11 C71_11 1_555 1_555
C81_11 C26_11 1_555 1_555
C82_11 C27_11 1_555 1_555
H36_11 C81_11 1_555 1_555
H37_11 C82_11 1_555 1_555
C92_11 C49_11 1_555 1_555
C93_11 C48_11 1_555 1_555
C103_11 C10_11 1_555 1_555
C104_11 C93_11 1_555 1_555
C114_11 C9_11 1_555 1_555
C115_11 C60_11 1_555 1_555
C125_11 C92_11 1_555 1_555
C126_11 C93_11 1_555 1_555
H47_11 C125_11 1_555 1_555
H48_11 C126_11 1_555 1_555
H58_11 C125_11 1_555 1_555
H59_11 C126_11 1_555 1_555
C136_11 C125_11 1_555 1_555
C137_11 C126_11 1_555 1_555
H69_11 C136_11 1_555 1_555
H70_11 C137_11 1_555 1_555
H80_11 C136_11 1_555 1_555
H81_11 C137_11 1_555 1_555
H91_11 C136_11 1_555 1_555
H92_11 C137_11 1_555 1_555
C147_11 C92_11 1_555 1_555
C148_11 C93_11 1_555 1_555
H102_11 C147_11 1_555 1_555
H103_11 C148_11 1_555 1_555
H113_11 C147_11 1_555 1_555
H114_11 C148_11 1_555 1_555
C158_11 C147_11 1_555 1_555
C159_11 C148_11 1_555 1_555
H124_11 C158_11 1_555 1_555
H125_11 C159_11 1_555 1_555
H135_11 C158_11 1_555 1_555
H136_11 C159_11 1_555 1_555
H146_11 C158_11 1_555 1_555
H147_11 C159_11 1_555 1_555
C6_11 C7_11 1_555 1_555
C9_11 C10_11 1_555 1_555
C59_11 C114_11 1_555 1_555
C70_11 C81_11 1_555 1_555
C71_11 C82_11 1_555 1_555
C92_11 C103_11 1_555 1_555
C103_11 C115_11 1_555 1_555
C104_11 C114_11 1_555 1_555
C104_11 C115_11 1_555 1_555
O9_21 Pb11_4 1_555 1_555
O10_21 Pb11_4 1_555 1_555
Pb10_4 O9_21 1_555 1_555
Pb16_6 O9_21 1_555 1_555
O12_16 Pb11_4 1_555 1_555
O14_16 Pb10_4 1_555 1_555
O17_16 Pb9_8 1_555 1_555
O26_16 Pb11_4 1_555 1_555
O29_16 Pb16_6 1_555 1_555
O32_16 Pb9_8 1_555 1_555
O41_21 Pb10_4 1_555 1_555
O42_21 Pb16_6 1_555 1_555
O43_21 Pb9_8 1_555 1_555
O9_21 Pb9_8 1_555 1_555
Pb9_8 O12_16 1_555 1_555
Pb16_6 O14_16 1_555 1_555
Pb16_6 O17_16 1_555 1_555
O9_22 Pb11_5 1_555 1_555
O10_22 Pb11_5 1_555 1_555
Pb10_5 O9_22 1_555 1_555
Pb16_7 O9_22 1_555 1_555
O41_22 Pb10_5 1_555 1_555
O42_22 Pb16_7 1_555 1_555
O43_22 Pb9_9 1_555 1_555
O9_22 Pb9_9 1_555 1_555
O9_23 Pb5_4 1_555 1_555
O10_23 Pb5_4 1_555 1_555
Pb9_4 O9_23 1_555 1_555
Pb11_6 O9_23 1_555 1_555
O12_17 Pb5_4 1_555 1_555
O14_17 Pb9_4 1_555 1_555
O17_17 Pb6_6 1_555 1_555
O26_17 Pb5_4 1_555 1_555
O29_17 Pb11_6 1_555 1_555
O32_17 Pb6_6 1_555 1_555
O41_23 Pb9_4 1_555 1_555
O42_23 Pb11_6 1_555 1_555
O43_23 Pb6_6 1_555 1_555
O9_23 Pb6_6 1_555 1_555
Pb6_6 O12_17 1_555 1_555
Pb11_6 O14_17 1_555 1_555
Pb11_6 O17_17 1_555 1_555
O9_24 Pb5_5 1_555 1_555
O10_24 Pb5_5 1_555 1_555
Pb9_5 O9_24 1_555 1_555
Pb11_7 O9_24 1_555 1_555
O41_24 Pb9_5 1_555 1_555
O42_24 Pb11_7 1_555 1_555
O43_24 Pb6_7 1_555 1_555
O9_24 Pb6_7 1_555 1_555
O9_25 Pb16_8 1_555 1_555
O10_25 Pb16_8 1_555 1_555
Pb12_5 O9_25 1_555 1_555
Pb8_5 O9_25 1_555 1_555
O11_15 Pb16_8 1_555 1_555
O27_15 Pb12_5 1_555 1_555
O41_25 Pb12_5 1_555 1_555
O42_25 Pb8_5 1_555 1_555
O43_25 Pb7_5 1_555 1_555
O9_25 Pb7_5 1_555 1_555
Pb12_5 O11_15 1_555 1_555
O9_26 Pb16_9 1_555 1_555
O10_26 Pb16_9 1_555 1_555
Pb12_6 O9_26 1_555 1_555
Pb8_6 O9_26 1_555 1_555
O12_18 Pb16_9 1_555 1_555
O14_18 Pb12_6 1_555 1_555
O17_18 Pb7_6 1_555 1_555
O26_18 Pb16_9 1_555 1_555
O29_18 Pb8_6 1_555 1_555
O32_18 Pb7_6 1_555 1_555
O41_26 Pb12_6 1_555 1_555
O42_26 Pb8_6 1_555 1_555
O43_26 Pb7_6 1_555 1_555
O9_26 Pb7_6 1_555 1_555
Pb7_6 O12_18 1_555 1_555
Pb8_6 O14_18 1_555 1_555
Pb8_6 O17_18 1_555 1_555
Pb16_12 O24_8 1_555 1_555
Pb8 O25_9 1_555 1_555
Pb18_11 O25_9 1_555 1_555
O24_8 Pb17 1_555 1_555
O25_9 C25_9 1_555 1_555
O39_8 Pb16_12 1_555 1_555
O40_9 Pb8 1_555 1_555
C23_9 O11 1_555 1_555
C24_9 O24_8 1_555 1_555
C25_9 O40_9 1_555 1_555
C34_9 C23_9 1_555 1_555
C35_9 C24_9 1_555 1_555
C36_9 C25_9 1_555 1_555
C45_9 C34_9 1_555 1_555
C46_9 C35_9 1_555 1_555
C47_9 C36_9 1_555 1_555
H22_9 C45_9 1_555 1_555
H23_9 C46_9 1_555 1_555
H24_9 C47_9 1_555 1_555
C56_9 C45_9 1_555 1_555
C57_9 C46_9 1_555 1_555
C58_9 C47_9 1_555 1_555
C67_9 C56_9 1_555 1_555
C68_9 C58_9 1_555 1_555
C69_9 C57_9 1_555 1_555
C78_9 C67_9 1_555 1_555
C79_9 C68_9 1_555 1_555
C80_9 C69_9 1_555 1_555
H33_9 C78_9 1_555 1_555
H34_9 C79_9 1_555 1_555
H35_9 C80_9 1_555 1_555
C89_9 C34_9 1_555 1_555
C90_9 C36_9 1_555 1_555
C91_9 C35_9 1_555 1_555
H44_9 C89_9 1_555 1_555
H45_9 C90_9 1_555 1_555
H46_9 C91_9 1_555 1_555
C100_9 C56_9 1_555 1_555
C101_9 C57_9 1_555 1_555
C102_9 C58_9 1_555 1_555
C111_9 C100_9 1_555 1_555
C112_9 C101_9 1_555 1_555
C113_9 C102_9 1_555 1_555
C122_9 C67_9 1_555 1_555
C123_9 C68_9 1_555 1_555
C124_9 C69_9 1_555 1_555
C133_9 C100_9 1_555 1_555
C134_9 C101_9 1_555 1_555
C135_9 C102_9 1_555 1_555
H55_9 C133_9 1_555 1_555
H56_9 C134_9 1_555 1_555
H57_9 C135_9 1_555 1_555
H66_9 C133_9 1_555 1_555
H67_9 C134_9 1_555 1_555
H68_9 C135_9 1_555 1_555
C144_9 C133_9 1_555 1_555
C145_9 C134_9 1_555 1_555
C146_9 C135_9 1_555 1_555
H77_9 C144_9 1_555 1_555
H78_9 C145_9 1_555 1_555
H79_9 C146_9 1_555 1_555
H88_9 C144_9 1_555 1_555
H89_9 C145_9 1_555 1_555
H90_9 C146_9 1_555 1_555
H99_9 C144_9 1_555 1_555
H100_9 C145_9 1_555 1_555
H101_9 C146_9 1_555 1_555
C155_9 C100_9 1_555 1_555
C156_9 C101_9 1_555 1_555
C157_9 C102_9 1_555 1_555
H110_9 C155_9 1_555 1_555
H111_9 C156_9 1_555 1_555
H112_9 C157_9 1_555 1_555
H121_9 C155_9 1_555 1_555
H122_9 C156_9 1_555 1_555
H123_9 C157_9 1_555 1_555
C166_9 C155_9 1_555 1_555
C167_9 C156_9 1_555 1_555
C168_9 C157_9 1_555 1_555
H132_9 C166_9 1_555 1_555
H133_9 C167_9 1_555 1_555
H134_9 C168_9 1_555 1_555
H143_9 C166_9 1_555 1_555
H144_9 C167_9 1_555 1_555
H145_9 C168_9 1_555 1_555
H154_9 C166_9 1_555 1_555
H155_9 C167_9 1_555 1_555
H156_9 C168_9 1_555 1_555
O27 C23_9 1_555 1_555
O39_8 C24_9 1_555 1_555
C78_9 C89_9 1_555 1_555
C79_9 C90_9 1_555 1_555
C80_9 C91_9 1_555 1_555
C111_9 C122_9 1_555 1_555
C111_9 C123_9 1_555 1_555
C112_9 C122_9 1_555 1_555
C112_9 C124_9 1_555 1_555
C113_9 C123_9 1_555 1_555
C113_9 C124_9 1_555 1_555
O12_5 C21_9 1_555 1_555
O14_9 C22_9 1_555 1_555
C20_9 O12_17 1_555 1_555
C21_9 O26_5 1_555 1_555
C22_9 O29_9 1_555 1_555
C31_9 C20_9 1_555 1_555
C32_9 C21_9 1_555 1_555
C33_9 C22_9 1_555 1_555
C42_9 C31_9 1_555 1_555
C43_9 C32_9 1_555 1_555
C44_9 C33_9 1_555 1_555
H19_9 C42_9 1_555 1_555
H20_9 C43_9 1_555 1_555
H21_9 C44_9 1_555 1_555
C53_9 C42_9 1_555 1_555
C54_9 C43_9 1_555 1_555
C55_9 C44_9 1_555 1_555
C64_9 C53_9 1_555 1_555
C65_9 C55_9 1_555 1_555
C66_9 C54_9 1_555 1_555
C75_9 C64_9 1_555 1_555
C76_9 C65_9 1_555 1_555
C77_9 C66_9 1_555 1_555
H30_9 C75_9 1_555 1_555
H31_9 C76_9 1_555 1_555
H32_9 C77_9 1_555 1_555
C86_9 C31_9 1_555 1_555
C87_9 C33_9 1_555 1_555
C88_9 C32_9 1_555 1_555
H41_9 C86_9 1_555 1_555
H42_9 C87_9 1_555 1_555
H43_9 C88_9 1_555 1_555
C97_9 C53_9 1_555 1_555
C98_9 C54_9 1_555 1_555
C99_9 C55_9 1_555 1_555
C108_9 C97_9 1_555 1_555
C109_9 C98_9 1_555 1_555
C110_9 C99_9 1_555 1_555
C119_9 C64_9 1_555 1_555
C120_9 C65_9 1_555 1_555
C121_9 C66_9 1_555 1_555
C130_9 C97_9 1_555 1_555
C131_9 C98_9 1_555 1_555
C132_9 C99_9 1_555 1_555
H52_9 C130_9 1_555 1_555
H53_9 C131_9 1_555 1_555
H54_9 C132_9 1_555 1_555
H63_9 C130_9 1_555 1_555
H64_9 C131_9 1_555 1_555
H65_9 C132_9 1_555 1_555
C141_9 C130_9 1_555 1_555
C142_9 C131_9 1_555 1_555
C143_9 C132_9 1_555 1_555
H74_9 C141_9 1_555 1_555
H75_9 C142_9 1_555 1_555
H76_9 C143_9 1_555 1_555
H85_9 C141_9 1_555 1_555
H86_9 C142_9 1_555 1_555
H87_9 C143_9 1_555 1_555
H96_9 C141_9 1_555 1_555
H97_9 C142_9 1_555 1_555
H98_9 C143_9 1_555 1_555
C152_9 C97_9 1_555 1_555
C153_9 C98_9 1_555 1_555
C154_9 C99_9 1_555 1_555
H107_9 C152_9 1_555 1_555
H108_9 C153_9 1_555 1_555
H109_9 C154_9 1_555 1_555
H118_9 C152_9 1_555 1_555
H119_9 C153_9 1_555 1_555
H120_9 C154_9 1_555 1_555
C163_9 C152_9 1_555 1_555
C164_9 C153_9 1_555 1_555
C165_9 C154_9 1_555 1_555
H129_9 C163_9 1_555 1_555
H130_9 C164_9 1_555 1_555
H131_9 C165_9 1_555 1_555
H140_9 C163_9 1_555 1_555
H141_9 C164_9 1_555 1_555
H142_9 C165_9 1_555 1_555
H151_9 C163_9 1_555 1_555
H152_9 C164_9 1_555 1_555
H153_9 C165_9 1_555 1_555
O26_17 C20_9 1_555 1_555
C75_9 C86_9 1_555 1_555
C76_9 C87_9 1_555 1_555
C77_9 C88_9 1_555 1_555
C108_9 C119_9 1_555 1_555
C108_9 C120_9 1_555 1_555
C109_9 C119_9 1_555 1_555
C109_9 C121_9 1_555 1_555
C110_9 C120_9 1_555 1_555
C110_9 C121_9 1_555 1_555
Pb18_12 O23_7 1_555 1_555
Pb16_5 O23_7 1_555 1_555
O17_12 C21_10 1_555 1_555
O23_7 C22_10 1_555 1_555
O38_7 Pb18_12 1_555 1_555
C20_10 O12_13 1_555 1_555
C21_10 O32_12 1_555 1_555
C22_10 O38_7 1_555 1_555
C31_10 C20_10 1_555 1_555
C32_10 C21_10 1_555 1_555
C33_10 C22_10 1_555 1_555
C42_10 C31_10 1_555 1_555
C43_10 C32_10 1_555 1_555
C44_10 C33_10 1_555 1_555
H19_10 C42_10 1_555 1_555
H20_10 C43_10 1_555 1_555
H21_10 C44_10 1_555 1_555
C53_10 C42_10 1_555 1_555
C54_10 C43_10 1_555 1_555
C55_10 C44_10 1_555 1_555
C64_10 C53_10 1_555 1_555
C65_10 C55_10 1_555 1_555
C66_10 C54_10 1_555 1_555
C75_10 C64_10 1_555 1_555
C76_10 C65_10 1_555 1_555
C77_10 C66_10 1_555 1_555
H30_10 C75_10 1_555 1_555
H31_10 C76_10 1_555 1_555
H32_10 C77_10 1_555 1_555
C86_10 C31_10 1_555 1_555
C87_10 C33_10 1_555 1_555
C88_10 C32_10 1_555 1_555
H41_10 C86_10 1_555 1_555
H42_10 C87_10 1_555 1_555
H43_10 C88_10 1_555 1_555
C97_10 C53_10 1_555 1_555
C98_10 C54_10 1_555 1_555
C99_10 C55_10 1_555 1_555
C108_10 C97_10 1_555 1_555
C109_10 C98_10 1_555 1_555
C110_10 C99_10 1_555 1_555
C119_10 C64_10 1_555 1_555
C120_10 C65_10 1_555 1_555
C121_10 C66_10 1_555 1_555
C130_10 C97_10 1_555 1_555
C131_10 C98_10 1_555 1_555
C132_10 C99_10 1_555 1_555
H52_10 C130_10 1_555 1_555
H53_10 C131_10 1_555 1_555
H54_10 C132_10 1_555 1_555
H63_10 C130_10 1_555 1_555
H64_10 C131_10 1_555 1_555
H65_10 C132_10 1_555 1_555
C141_10 C130_10 1_555 1_555
C142_10 C131_10 1_555 1_555
C143_10 C132_10 1_555 1_555
H74_10 C141_10 1_555 1_555
H75_10 C142_10 1_555 1_555
H76_10 C143_10 1_555 1_555
H85_10 C141_10 1_555 1_555
H86_10 C142_10 1_555 1_555
H87_10 C143_10 1_555 1_555
H96_10 C141_10 1_555 1_555
H97_10 C142_10 1_555 1_555
H98_10 C143_10 1_555 1_555
C152_10 C97_10 1_555 1_555
C153_10 C98_10 1_555 1_555
C154_10 C99_10 1_555 1_555
H107_10 C152_10 1_555 1_555
H108_10 C153_10 1_555 1_555
H109_10 C154_10 1_555 1_555
H118_10 C152_10 1_555 1_555
H119_10 C153_10 1_555 1_555
H120_10 C154_10 1_555 1_555
C163_10 C152_10 1_555 1_555
C164_10 C153_10 1_555 1_555
C165_10 C154_10 1_555 1_555
H129_10 C163_10 1_555 1_555
H130_10 C164_10 1_555 1_555
H131_10 C165_10 1_555 1_555
H140_10 C163_10 1_555 1_555
H141_10 C164_10 1_555 1_555
H142_10 C165_10 1_555 1_555
H151_10 C163_10 1_555 1_555
H152_10 C164_10 1_555 1_555
H153_10 C165_10 1_555 1_555
O26_13 C20_10 1_555 1_555
C75_10 C86_10 1_555 1_555
C76_10 C87_10 1_555 1_555
C77_10 C88_10 1_555 1_555
C108_10 C119_10 1_555 1_555
C108_10 C120_10 1_555 1_555
C109_10 C119_10 1_555 1_555
C109_10 C121_10 1_555 1_555
C110_10 C120_10 1_555 1_555
C110_10 C121_10 1_555 1_555
Pb18_7 O22_8 1_555 1_555
Pb7_10 O22_8 1_555 1_555
O22_8 C21_11 1_555 1_555
O12_2 C22_11 1_555 1_555
O37_8 Pb18_7 1_555 1_555
C20_11 O14_3 1_555 1_555
C21_11 O37_8 1_555 1_555
C22_11 O26_2 1_555 1_555
C31_11 C20_11 1_555 1_555
C32_11 C21_11 1_555 1_555
C33_11 C22_11 1_555 1_555
C42_11 C31_11 1_555 1_555
C43_11 C32_11 1_555 1_555
C44_11 C33_11 1_555 1_555
H19_11 C42_11 1_555 1_555
H20_11 C43_11 1_555 1_555
H21_11 C44_11 1_555 1_555
C53_11 C42_11 1_555 1_555
C54_11 C43_11 1_555 1_555
C55_11 C44_11 1_555 1_555
C64_11 C53_11 1_555 1_555
C65_11 C55_11 1_555 1_555
C66_11 C54_11 1_555 1_555
C75_11 C64_11 1_555 1_555
C76_11 C65_11 1_555 1_555
C77_11 C66_11 1_555 1_555
H30_11 C75_11 1_555 1_555
H31_11 C76_11 1_555 1_555
H32_11 C77_11 1_555 1_555
C86_11 C31_11 1_555 1_555
C87_11 C33_11 1_555 1_555
C88_11 C32_11 1_555 1_555
H41_11 C86_11 1_555 1_555
H42_11 C87_11 1_555 1_555
H43_11 C88_11 1_555 1_555
C97_11 C53_11 1_555 1_555
C98_11 C54_11 1_555 1_555
C99_11 C55_11 1_555 1_555
C108_11 C97_11 1_555 1_555
C109_11 C98_11 1_555 1_555
C110_11 C99_11 1_555 1_555
C119_11 C64_11 1_555 1_555
C120_11 C65_11 1_555 1_555
C121_11 C66_11 1_555 1_555
C130_11 C97_11 1_555 1_555
C131_11 C98_11 1_555 1_555
C132_11 C99_11 1_555 1_555
H52_11 C130_11 1_555 1_555
H53_11 C131_11 1_555 1_555
H54_11 C132_11 1_555 1_555
H63_11 C130_11 1_555 1_555
H64_11 C131_11 1_555 1_555
H65_11 C132_11 1_555 1_555
C141_11 C130_11 1_555 1_555
C142_11 C131_11 1_555 1_555
C143_11 C132_11 1_555 1_555
H74_11 C141_11 1_555 1_555
H75_11 C142_11 1_555 1_555
H76_11 C143_11 1_555 1_555
H85_11 C141_11 1_555 1_555
H86_11 C142_11 1_555 1_555
H87_11 C143_11 1_555 1_555
H96_11 C141_11 1_555 1_555
H97_11 C142_11 1_555 1_555
H98_11 C143_11 1_555 1_555
C152_11 C97_11 1_555 1_555
C153_11 C98_11 1_555 1_555
C154_11 C99_11 1_555 1_555
H107_11 C152_11 1_555 1_555
H108_11 C153_11 1_555 1_555
H109_11 C154_11 1_555 1_555
H118_11 C152_11 1_555 1_555
H119_11 C153_11 1_555 1_555
H120_11 C154_11 1_555 1_555
C163_11 C152_11 1_555 1_555
C164_11 C153_11 1_555 1_555
C165_11 C154_11 1_555 1_555
H129_11 C163_11 1_555 1_555
H130_11 C164_11 1_555 1_555
H131_11 C165_11 1_555 1_555
H140_11 C163_11 1_555 1_555
H141_11 C164_11 1_555 1_555
H142_11 C165_11 1_555 1_555
H151_11 C163_11 1_555 1_555
H152_11 C164_11 1_555 1_555
H153_11 C165_11 1_555 1_555
O29_3 C20_11 1_555 1_555
C75_11 C86_11 1_555 1_555
C76_11 C87_11 1_555 1_555
C77_11 C88_11 1_555 1_555
C108_11 C119_11 1_555 1_555
C108_11 C120_11 1_555 1_555
C109_11 C119_11 1_555 1_555
C109_11 C121_11 1_555 1_555
C110_11 C120_11 1_555 1_555
C110_11 C121_11 1_555 1_555
O9_27 Pb16_12 1_555 1_555
O10_27 Pb16_12 1_555 1_555
Pb6_10 O9_27 1_555 1_555
Pb18 O9_27 1_555 1_555
O11_16 Pb16_12 1_555 1_555
O27_16 Pb6_10 1_555 1_555
O41_27 Pb6_10 1_555 1_555
O42_27 Pb18 1_555 1_555
O43_27 Pb17 1_555 1_555
O9_27 Pb17 1_555 1_555
Pb6_10 O11_16 1_555 1_555
O9_28 Pb16_13 1_555 1_555
O10_28 Pb16_13 1_555 1_555
Pb6_11 O9_28 1_555 1_555
Pb18_2 O9_28 1_555 1_555
O12_19 Pb16_13 1_555 1_555
O13_6 Pb16_13 1_555 1_555
O14_19 Pb6_11 1_555 1_555
O17_19 Pb17_2 1_555 1_555
O17_10 C21_12 1_555 1_555
O17_16 C22_12 1_555 1_555
O26_19 Pb16_13 1_555 1_555
O28_6 Pb6_11 1_555 1_555
O29_19 Pb18_2 1_555 1_555
O32_19 Pb17_2 1_555 1_555
O41_28 Pb6_11 1_555 1_555
O42_28 Pb18_2 1_555 1_555
O43_28 Pb17_2 1_555 1_555
C20_12 O13_6 1_555 1_555
C21_12 O32_10 1_555 1_555
C22_12 O32_16 1_555 1_555
C31_12 C20_12 1_555 1_555
C32_12 C21_12 1_555 1_555
C33_12 C22_12 1_555 1_555
C42_12 C31_12 1_555 1_555
C43_12 C32_12 1_555 1_555
C44_12 C33_12 1_555 1_555
H19_12 C42_12 1_555 1_555
H20_12 C43_12 1_555 1_555
H21_12 C44_12 1_555 1_555
C53_12 C42_12 1_555 1_555
C54_12 C43_12 1_555 1_555
C55_12 C44_12 1_555 1_555
C64_12 C53_12 1_555 1_555
C65_12 C55_12 1_555 1_555
C66_12 C54_12 1_555 1_555
C75_12 C64_12 1_555 1_555
C76_12 C65_12 1_555 1_555
C77_12 C66_12 1_555 1_555
H30_12 C75_12 1_555 1_555
H31_12 C76_12 1_555 1_555
H32_12 C77_12 1_555 1_555
C86_12 C31_12 1_555 1_555
C87_12 C33_12 1_555 1_555
C88_12 C32_12 1_555 1_555
H41_12 C86_12 1_555 1_555
H42_12 C87_12 1_555 1_555
H43_12 C88_12 1_555 1_555
C97_12 C53_12 1_555 1_555
C98_12 C54_12 1_555 1_555
C99_12 C55_12 1_555 1_555
C108_12 C97_12 1_555 1_555
C109_12 C98_12 1_555 1_555
C110_12 C99_12 1_555 1_555
C119_12 C64_12 1_555 1_555
C120_12 C65_12 1_555 1_555
C121_12 C66_12 1_555 1_555
C130_12 C97_12 1_555 1_555
C131_12 C98_12 1_555 1_555
C132_12 C99_12 1_555 1_555
H52_12 C130_12 1_555 1_555
H53_12 C131_12 1_555 1_555
H54_12 C132_12 1_555 1_555
H63_12 C130_12 1_555 1_555
H64_12 C131_12 1_555 1_555
H65_12 C132_12 1_555 1_555
C141_12 C130_12 1_555 1_555
C142_12 C131_12 1_555 1_555
C143_12 C132_12 1_555 1_555
H74_12 C141_12 1_555 1_555
H75_12 C142_12 1_555 1_555
H76_12 C143_12 1_555 1_555
H85_12 C141_12 1_555 1_555
H86_12 C142_12 1_555 1_555
H87_12 C143_12 1_555 1_555
H96_12 C141_12 1_555 1_555
H97_12 C142_12 1_555 1_555
H98_12 C143_12 1_555 1_555
C152_12 C97_12 1_555 1_555
C153_12 C98_12 1_555 1_555
C154_12 C99_12 1_555 1_555
H107_12 C152_12 1_555 1_555
H108_12 C153_12 1_555 1_555
H109_12 C154_12 1_555 1_555
H118_12 C152_12 1_555 1_555
H119_12 C153_12 1_555 1_555
H120_12 C154_12 1_555 1_555
C163_12 C152_12 1_555 1_555
C164_12 C153_12 1_555 1_555
C165_12 C154_12 1_555 1_555
H129_12 C163_12 1_555 1_555
H130_12 C164_12 1_555 1_555
H131_12 C165_12 1_555 1_555
H140_12 C163_12 1_555 1_555
H141_12 C164_12 1_555 1_555
H142_12 C165_12 1_555 1_555
H151_12 C163_12 1_555 1_555
H152_12 C164_12 1_555 1_555
H153_12 C165_12 1_555 1_555
O9_28 Pb17_2 1_555 1_555
Pb17_2 O12_19 1_555 1_555
Pb6_11 O13_6 1_555 1_555
Pb18_2 O14_19 1_555 1_555
Pb18_2 O17_19 1_555 1_555
O28_6 C20_12 1_555 1_555
C75_12 C86_12 1_555 1_555
C76_12 C87_12 1_555 1_555
C77_12 C88_12 1_555 1_555
C108_12 C119_12 1_555 1_555
C108_12 C120_12 1_555 1_555
C109_12 C119_12 1_555 1_555
C109_12 C121_12 1_555 1_555
C110_12 C120_12 1_555 1_555
C110_12 C121_12 1_555 1_555
O9_29 Pb16_4 1_555 1_555
O10_29 Pb16_4 1_555 1_555
Pb18_11 O9_29 1_555 1_555
Pb8 O9_29 1_555 1_555
O11_17 Pb16_4 1_555 1_555
O27_17 Pb18_11 1_555 1_555
O41_29 Pb18_11 1_555 1_555
O42_29 Pb8 1_555 1_555
O43_29 Pb7 1_555 1_555
O9_29 Pb7 1_555 1_555
Pb18_11 O11_17 1_555 1_555
O9_30 Pb16_5 1_555 1_555
O10_30 Pb16_5 1_555 1_555
Pb18_12 O9_30 1_555 1_555
Pb8_2 O9_30 1_555 1_555
O12_20 Pb16_5 1_555 1_555
O14_20 Pb18_12 1_555 1_555
O17_20 Pb7_2 1_555 1_555
O26_20 Pb16_5 1_555 1_555
O29_20 Pb8_2 1_555 1_555
O32_20 Pb7_2 1_555 1_555
O41_30 Pb18_12 1_555 1_555
O42_30 Pb8_2 1_555 1_555
O43_30 Pb7_2 1_555 1_555
O9_30 Pb7_2 1_555 1_555
Pb7_2 O12_20 1_555 1_555
Pb8_2 O14_20 1_555 1_555
Pb8_2 O17_20 1_555 1_555
O9_31 Pb7_10 1_555 1_555
O10_31 Pb7_10 1_555 1_555
Pb18_7 O9_31 1_555 1_555
Pb17_7 O9_31 1_555 1_555
O11_18 Pb7_10 1_555 1_555
O12_21 Pb7_10 1_555 1_555
O14_21 Pb18_7 1_555 1_555
O17_21 Pb8_8 1_555 1_555
O26_21 Pb7_10 1_555 1_555
O27_18 Pb18_7 1_555 1_555
O29_21 Pb17_7 1_555 1_555
O32_21 Pb8_8 1_555 1_555
O41_31 Pb18_7 1_555 1_555
O42_31 Pb17_7 1_555 1_555
O43_31 Pb8_8 1_555 1_555
O9_31 Pb8_8 1_555 1_555
Pb8_8 O12_21 1_555 1_555
Pb18_7 O11_18 1_555 1_555
Pb17_7 O14_21 1_555 1_555
Pb17_7 O17_21 1_555 1_555
O14_4 C21_13 1_555 1_555
O14_16 C22_13 1_555 1_555
C20_13 O12_10 1_555 1_555
C21_13 O29_4 1_555 1_555
C22_13 O29_16 1_555 1_555
C31_13 C20_13 1_555 1_555
C32_13 C21_13 1_555 1_555
C33_13 C22_13 1_555 1_555
C42_13 C31_13 1_555 1_555
C43_13 C32_13 1_555 1_555
C44_13 C33_13 1_555 1_555
H19_13 C42_13 1_555 1_555
H20_13 C43_13 1_555 1_555
H21_13 C44_13 1_555 1_555
C53_13 C42_13 1_555 1_555
C54_13 C43_13 1_555 1_555
C55_13 C44_13 1_555 1_555
C64_13 C53_13 1_555 1_555
C65_13 C55_13 1_555 1_555
C66_13 C54_13 1_555 1_555
C75_13 C64_13 1_555 1_555
C76_13 C65_13 1_555 1_555
C77_13 C66_13 1_555 1_555
H30_13 C75_13 1_555 1_555
H31_13 C76_13 1_555 1_555
H32_13 C77_13 1_555 1_555
C86_13 C31_13 1_555 1_555
C87_13 C33_13 1_555 1_555
C88_13 C32_13 1_555 1_555
H41_13 C86_13 1_555 1_555
H42_13 C87_13 1_555 1_555
H43_13 C88_13 1_555 1_555
C97_13 C53_13 1_555 1_555
C98_13 C54_13 1_555 1_555
C99_13 C55_13 1_555 1_555
C108_13 C97_13 1_555 1_555
C109_13 C98_13 1_555 1_555
C110_13 C99_13 1_555 1_555
C119_13 C64_13 1_555 1_555
C120_13 C65_13 1_555 1_555
C121_13 C66_13 1_555 1_555
C130_13 C97_13 1_555 1_555
C131_13 C98_13 1_555 1_555
C132_13 C99_13 1_555 1_555
H52_13 C130_13 1_555 1_555
H53_13 C131_13 1_555 1_555
H54_13 C132_13 1_555 1_555
H63_13 C130_13 1_555 1_555
H64_13 C131_13 1_555 1_555
H65_13 C132_13 1_555 1_555
C141_13 C130_13 1_555 1_555
C142_13 C131_13 1_555 1_555
C143_13 C132_13 1_555 1_555
H74_13 C141_13 1_555 1_555
H75_13 C142_13 1_555 1_555
H76_13 C143_13 1_555 1_555
H85_13 C141_13 1_555 1_555
H86_13 C142_13 1_555 1_555
H87_13 C143_13 1_555 1_555
H96_13 C141_13 1_555 1_555
H97_13 C142_13 1_555 1_555
H98_13 C143_13 1_555 1_555
C152_13 C97_13 1_555 1_555
C153_13 C98_13 1_555 1_555
C154_13 C99_13 1_555 1_555
H107_13 C152_13 1_555 1_555
H108_13 C153_13 1_555 1_555
H109_13 C154_13 1_555 1_555
H118_13 C152_13 1_555 1_555
H119_13 C153_13 1_555 1_555
H120_13 C154_13 1_555 1_555
C163_13 C152_13 1_555 1_555
C164_13 C153_13 1_555 1_555
C165_13 C154_13 1_555 1_555
H129_13 C163_13 1_555 1_555
H130_13 C164_13 1_555 1_555
H131_13 C165_13 1_555 1_555
H140_13 C163_13 1_555 1_555
H141_13 C164_13 1_555 1_555
H142_13 C165_13 1_555 1_555
H151_13 C163_13 1_555 1_555
H152_13 C164_13 1_555 1_555
H153_13 C165_13 1_555 1_555
O26_10 C20_13 1_555 1_555
C75_13 C86_13 1_555 1_555
C76_13 C87_13 1_555 1_555
C77_13 C88_13 1_555 1_555
C108_13 C119_13 1_555 1_555
C108_13 C120_13 1_555 1_555
C109_13 C119_13 1_555 1_555
C109_13 C121_13 1_555 1_555
C110_13 C120_13 1_555 1_555
C110_13 C121_13 1_555 1_555
Pb18_10 O23_8 1_555 1_555
Pb7_7 O23_8 1_555 1_555
O14 C21_14 1_555 1_555
O23_8 C22_14 1_555 1_555
O38_8 Pb18_10 1_555 1_555
C20_14 O12_3 1_555 1_555
C21_14 O29 1_555 1_555
C22_14 O38_8 1_555 1_555
C31_14 C20_14 1_555 1_555
C32_14 C21_14 1_555 1_555
C33_14 C22_14 1_555 1_555
C42_14 C31_14 1_555 1_555
C43_14 C32_14 1_555 1_555
C44_14 C33_14 1_555 1_555
H19_14 C42_14 1_555 1_555
H20_14 C43_14 1_555 1_555
H21_14 C44_14 1_555 1_555
C53_14 C42_14 1_555 1_555
C54_14 C43_14 1_555 1_555
C55_14 C44_14 1_555 1_555
C64_14 C53_14 1_555 1_555
C65_14 C55_14 1_555 1_555
C66_14 C54_14 1_555 1_555
C75_14 C64_14 1_555 1_555
C76_14 C65_14 1_555 1_555
C77_14 C66_14 1_555 1_555
H30_14 C75_14 1_555 1_555
H31_14 C76_14 1_555 1_555
H32_14 C77_14 1_555 1_555
C86_14 C31_14 1_555 1_555
C87_14 C33_14 1_555 1_555
C88_14 C32_14 1_555 1_555
H41_14 C86_14 1_555 1_555
H42_14 C87_14 1_555 1_555
H43_14 C88_14 1_555 1_555
C97_14 C53_14 1_555 1_555
C98_14 C54_14 1_555 1_555
C99_14 C55_14 1_555 1_555
C108_14 C97_14 1_555 1_555
C109_14 C98_14 1_555 1_555
C110_14 C99_14 1_555 1_555
C119_14 C64_14 1_555 1_555
C120_14 C65_14 1_555 1_555
C121_14 C66_14 1_555 1_555
C130_14 C97_14 1_555 1_555
C131_14 C98_14 1_555 1_555
C132_14 C99_14 1_555 1_555
H52_14 C130_14 1_555 1_555
H53_14 C131_14 1_555 1_555
H54_14 C132_14 1_555 1_555
H63_14 C130_14 1_555 1_555
H64_14 C131_14 1_555 1_555
H65_14 C132_14 1_555 1_555
C141_14 C130_14 1_555 1_555
C142_14 C131_14 1_555 1_555
C143_14 C132_14 1_555 1_555
H74_14 C141_14 1_555 1_555
H75_14 C142_14 1_555 1_555
H76_14 C143_14 1_555 1_555
H85_14 C141_14 1_555 1_555
H86_14 C142_14 1_555 1_555
H87_14 C143_14 1_555 1_555
H96_14 C141_14 1_555 1_555
H97_14 C142_14 1_555 1_555
H98_14 C143_14 1_555 1_555
C152_14 C97_14 1_555 1_555
C153_14 C98_14 1_555 1_555
C154_14 C99_14 1_555 1_555
H107_14 C152_14 1_555 1_555
H108_14 C153_14 1_555 1_555
H109_14 C154_14 1_555 1_555
H118_14 C152_14 1_555 1_555
H119_14 C153_14 1_555 1_555
H120_14 C154_14 1_555 1_555
C163_14 C152_14 1_555 1_555
C164_14 C153_14 1_555 1_555
C165_14 C154_14 1_555 1_555
H129_14 C163_14 1_555 1_555
H130_14 C164_14 1_555 1_555
H131_14 C165_14 1_555 1_555
H140_14 C163_14 1_555 1_555
H141_14 C164_14 1_555 1_555
H142_14 C165_14 1_555 1_555
H151_14 C163_14 1_555 1_555
H152_14 C164_14 1_555 1_555
H153_14 C165_14 1_555 1_555
O26_3 C20_14 1_555 1_555
C75_14 C86_14 1_555 1_555
C76_14 C87_14 1_555 1_555
C77_14 C88_14 1_555 1_555
C108_14 C119_14 1_555 1_555
C108_14 C120_14 1_555 1_555
C109_14 C119_14 1_555 1_555
C109_14 C121_14 1_555 1_555
C110_14 C120_14 1_555 1_555
C110_14 C121_14 1_555 1_555
Pb6_5 O22_9 1_555 1_555
Pb7_13 O22_9 1_555 1_555
O22_9 C21_15 1_555 1_555
O17_8 C22_15 1_555 1_555
O37_9 Pb6_5 1_555 1_555
C20_15 O14_13 1_555 1_555
C21_15 O37_9 1_555 1_555
C22_15 O32_8 1_555 1_555
C31_15 C20_15 1_555 1_555
C32_15 C21_15 1_555 1_555
C33_15 C22_15 1_555 1_555
C42_15 C31_15 1_555 1_555
C43_15 C32_15 1_555 1_555
C44_15 C33_15 1_555 1_555
H19_15 C42_15 1_555 1_555
H20_15 C43_15 1_555 1_555
H21_15 C44_15 1_555 1_555
C53_15 C42_15 1_555 1_555
C54_15 C43_15 1_555 1_555
C55_15 C44_15 1_555 1_555
C64_15 C53_15 1_555 1_555
C65_15 C55_15 1_555 1_555
C66_15 C54_15 1_555 1_555
C75_15 C64_15 1_555 1_555
C76_15 C65_15 1_555 1_555
C77_15 C66_15 1_555 1_555
H30_15 C75_15 1_555 1_555
H31_15 C76_15 1_555 1_555
H32_15 C77_15 1_555 1_555
C86_15 C31_15 1_555 1_555
C87_15 C33_15 1_555 1_555
C88_15 C32_15 1_555 1_555
H41_15 C86_15 1_555 1_555
H42_15 C87_15 1_555 1_555
H43_15 C88_15 1_555 1_555
C97_15 C53_15 1_555 1_555
C98_15 C54_15 1_555 1_555
C99_15 C55_15 1_555 1_555
C108_15 C97_15 1_555 1_555
C109_15 C98_15 1_555 1_555
C110_15 C99_15 1_555 1_555
C119_15 C64_15 1_555 1_555
C120_15 C65_15 1_555 1_555
C121_15 C66_15 1_555 1_555
C130_15 C97_15 1_555 1_555
C131_15 C98_15 1_555 1_555
C132_15 C99_15 1_555 1_555
H52_15 C130_15 1_555 1_555
H53_15 C131_15 1_555 1_555
H54_15 C132_15 1_555 1_555
H63_15 C130_15 1_555 1_555
H64_15 C131_15 1_555 1_555
H65_15 C132_15 1_555 1_555
C141_15 C130_15 1_555 1_555
C142_15 C131_15 1_555 1_555
C143_15 C132_15 1_555 1_555
H74_15 C141_15 1_555 1_555
H75_15 C142_15 1_555 1_555
H76_15 C143_15 1_555 1_555
H85_15 C141_15 1_555 1_555
H86_15 C142_15 1_555 1_555
H87_15 C143_15 1_555 1_555
H96_15 C141_15 1_555 1_555
H97_15 C142_15 1_555 1_555
H98_15 C143_15 1_555 1_555
C152_15 C97_15 1_555 1_555
C153_15 C98_15 1_555 1_555
C154_15 C99_15 1_555 1_555
H107_15 C152_15 1_555 1_555
H108_15 C153_15 1_555 1_555
H109_15 C154_15 1_555 1_555
H118_15 C152_15 1_555 1_555
H119_15 C153_15 1_555 1_555
H120_15 C154_15 1_555 1_555
C163_15 C152_15 1_555 1_555
C164_15 C153_15 1_555 1_555
C165_15 C154_15 1_555 1_555
H129_15 C163_15 1_555 1_555
H130_15 C164_15 1_555 1_555
H131_15 C165_15 1_555 1_555
H140_15 C163_15 1_555 1_555
H141_15 C164_15 1_555 1_555
H142_15 C165_15 1_555 1_555
H151_15 C163_15 1_555 1_555
H152_15 C164_15 1_555 1_555
H153_15 C165_15 1_555 1_555
O29_13 C20_15 1_555 1_555
C75_15 C86_15 1_555 1_555
C76_15 C87_15 1_555 1_555
C77_15 C88_15 1_555 1_555
C108_15 C119_15 1_555 1_555
C108_15 C120_15 1_555 1_555
C109_15 C119_15 1_555 1_555
C109_15 C121_15 1_555 1_555
C110_15 C120_15 1_555 1_555
C110_15 C121_15 1_555 1_555
O9_32 Pb16_10 1_555 1_555
O10_32 Pb16_10 1_555 1_555
Pb6_14 O9_32 1_555 1_555
Pb8_3 O9_32 1_555 1_555
O11_19 Pb16_10 1_555 1_555
O27_19 Pb6_14 1_555 1_555
O41_32 Pb6_14 1_555 1_555
O42_32 Pb8_3 1_555 1_555
O43_32 Pb7_3 1_555 1_555
O9_32 Pb7_3 1_555 1_555
Pb6_14 O11_19 1_555 1_555
O9_33 Pb16_11 1_555 1_555
O10_33 Pb16_11 1_555 1_555
Pb6_15 O9_33 1_555 1_555
Pb8_4 O9_33 1_555 1_555
O12_22 Pb16_11 1_555 1_555
O13_7 Pb16_11 1_555 1_555
O14_22 Pb6_15 1_555 1_555
O17_22 Pb7_4 1_555 1_555
O17_17 C21_16 1_555 1_555
O17_9 C22_16 1_555 1_555
O26_22 Pb16_11 1_555 1_555
O28_7 Pb6_15 1_555 1_555
O29_22 Pb8_4 1_555 1_555
O32_22 Pb7_4 1_555 1_555
O41_33 Pb6_15 1_555 1_555
O42_33 Pb8_4 1_555 1_555
O43_33 Pb7_4 1_555 1_555
C20_16 O13_7 1_555 1_555
C21_16 O32_17 1_555 1_555
C22_16 O32_9 1_555 1_555
C31_16 C20_16 1_555 1_555
C32_16 C21_16 1_555 1_555
C33_16 C22_16 1_555 1_555
C42_16 C31_16 1_555 1_555
C43_16 C32_16 1_555 1_555
C44_16 C33_16 1_555 1_555
H19_16 C42_16 1_555 1_555
H20_16 C43_16 1_555 1_555
H21_16 C44_16 1_555 1_555
C53_16 C42_16 1_555 1_555
C54_16 C43_16 1_555 1_555
C55_16 C44_16 1_555 1_555
C64_16 C53_16 1_555 1_555
C65_16 C55_16 1_555 1_555
C66_16 C54_16 1_555 1_555
C75_16 C64_16 1_555 1_555
C76_16 C65_16 1_555 1_555
C77_16 C66_16 1_555 1_555
H30_16 C75_16 1_555 1_555
H31_16 C76_16 1_555 1_555
H32_16 C77_16 1_555 1_555
C86_16 C31_16 1_555 1_555
C87_16 C33_16 1_555 1_555
C88_16 C32_16 1_555 1_555
H41_16 C86_16 1_555 1_555
H42_16 C87_16 1_555 1_555
H43_16 C88_16 1_555 1_555
C97_16 C53_16 1_555 1_555
C98_16 C54_16 1_555 1_555
C99_16 C55_16 1_555 1_555
C108_16 C97_16 1_555 1_555
C109_16 C98_16 1_555 1_555
C110_16 C99_16 1_555 1_555
C119_16 C64_16 1_555 1_555
C120_16 C65_16 1_555 1_555
C121_16 C66_16 1_555 1_555
C130_16 C97_16 1_555 1_555
C131_16 C98_16 1_555 1_555
C132_16 C99_16 1_555 1_555
H52_16 C130_16 1_555 1_555
H53_16 C131_16 1_555 1_555
H54_16 C132_16 1_555 1_555
H63_16 C130_16 1_555 1_555
H64_16 C131_16 1_555 1_555
H65_16 C132_16 1_555 1_555
C141_16 C130_16 1_555 1_555
C142_16 C131_16 1_555 1_555
C143_16 C132_16 1_555 1_555
H74_16 C141_16 1_555 1_555
H75_16 C142_16 1_555 1_555
H76_16 C143_16 1_555 1_555
H85_16 C141_16 1_555 1_555
H86_16 C142_16 1_555 1_555
H87_16 C143_16 1_555 1_555
H96_16 C141_16 1_555 1_555
H97_16 C142_16 1_555 1_555
H98_16 C143_16 1_555 1_555
C152_16 C97_16 1_555 1_555
C153_16 C98_16 1_555 1_555
C154_16 C99_16 1_555 1_555
H107_16 C152_16 1_555 1_555
H108_16 C153_16 1_555 1_555
H109_16 C154_16 1_555 1_555
H118_16 C152_16 1_555 1_555
H119_16 C153_16 1_555 1_555
H120_16 C154_16 1_555 1_555
C163_16 C152_16 1_555 1_555
C164_16 C153_16 1_555 1_555
C165_16 C154_16 1_555 1_555
H129_16 C163_16 1_555 1_555
H130_16 C164_16 1_555 1_555
H131_16 C165_16 1_555 1_555
H140_16 C163_16 1_555 1_555
H141_16 C164_16 1_555 1_555
H142_16 C165_16 1_555 1_555
H151_16 C163_16 1_555 1_555
H152_16 C164_16 1_555 1_555
H153_16 C165_16 1_555 1_555
O9_33 Pb7_4 1_555 1_555
Pb7_4 O12_22 1_555 1_555
Pb6_15 O13_7 1_555 1_555
Pb8_4 O14_22 1_555 1_555
Pb8_4 O17_22 1_555 1_555
O28_7 C20_16 1_555 1_555
C75_16 C86_16 1_555 1_555
C76_16 C87_16 1_555 1_555
C77_16 C88_16 1_555 1_555
C108_16 C119_16 1_555 1_555
C108_16 C120_16 1_555 1_555
C109_16 C119_16 1_555 1_555
C109_16 C121_16 1_555 1_555
C110_16 C120_16 1_555 1_555
C110_16 C121_16 1_555 1_555
O9_34 Pb7_7 1_555 1_555
O10_34 Pb7_7 1_555 1_555
Pb18_10 O9_34 1_555 1_555
Pb17_9 O9_34 1_555 1_555
O11_20 Pb7_7 1_555 1_555
O12_23 Pb7_7 1_555 1_555
O14_23 Pb18_10 1_555 1_555
O17_23 Pb8_7 1_555 1_555
O26_23 Pb7_7 1_555 1_555
O27_20 Pb18_10 1_555 1_555
O29_23 Pb17_9 1_555 1_555
O32_23 Pb8_7 1_555 1_555
O41_34 Pb18_10 1_555 1_555
O42_34 Pb17_9 1_555 1_555
O43_34 Pb8_7 1_555 1_555
O9_34 Pb8_7 1_555 1_555
Pb8_7 O12_23 1_555 1_555
Pb18_10 O11_20 1_555 1_555
Pb17_9 O14_23 1_555 1_555
Pb17_9 O17_23 1_555 1_555
O9_35 Pb7_12 1_555 1_555
O10_35 Pb7_12 1_555 1_555
Pb6_4 O9_35 1_555 1_555
Pb18_3 O9_35 1_555 1_555
O11_21 Pb7_12 1_555 1_555
O27_21 Pb6_4 1_555 1_555
O41_35 Pb6_4 1_555 1_555
O42_35 Pb18_3 1_555 1_555
O43_35 Pb17_3 1_555 1_555
O9_35 Pb17_3 1_555 1_555
Pb6_4 O11_21 1_555 1_555
O9_36 Pb7_13 1_555 1_555
O10_36 Pb7_13 1_555 1_555
Pb6_5 O9_36 1_555 1_555
Pb18_4 O9_36 1_555 1_555
O12_24 Pb7_13 1_555 1_555
O14_24 Pb6_5 1_555 1_555
O17_24 Pb17_4 1_555 1_555
O26_24 Pb7_13 1_555 1_555
O29_24 Pb18_4 1_555 1_555
O32_24 Pb17_4 1_555 1_555
O41_36 Pb6_5 1_555 1_555
O42_36 Pb18_4 1_555 1_555
O43_36 Pb17_4 1_555 1_555
O9_36 Pb17_4 1_555 1_555
Pb17_4 O12_24 1_555 1_555
Pb18_4 O14_24 1_555 1_555
Pb18_4 O17_24 1_555 1_555
O11_15 C1_12 1_555 1_555
C1_12 O27_15 1_555 1_555
C2_12 C1_12 1_555 1_555
C3_12 C2_12 1_555 1_555
H1_12 C3_12 1_555 1_555
C4_12 C3_12 1_555 1_555
C5_12 C4_12 1_555 1_555
C6_12 C5_12 1_555 1_555
H2_12 C6_12 1_555 1_555
C7_12 C2_12 1_555 1_555
H3_12 C7_12 1_555 1_555
C8_12 C4_12 1_555 1_555
C9_12 C8_12 1_555 1_555
C10_12 C5_12 1_555 1_555
C11_12 C8_12 1_555 1_555
H4_12 C11_12 1_555 1_555
H5_12 C11_12 1_555 1_555
C12_12 C11_12 1_555 1_555
H6_12 C12_12 1_555 1_555
H7_12 C12_12 1_555 1_555
H8_12 C12_12 1_555 1_555
C13_12 C8_12 1_555 1_555
H9_12 C13_12 1_555 1_555
H10_12 C13_12 1_555 1_555
C14_12 C13_12 1_555 1_555
H11_12 C14_12 1_555 1_555
H12_12 C14_12 1_555 1_555
H13_12 C14_12 1_555 1_555
O11_13 C15_12 1_555 1_555
O11_14 C16_12 1_555 1_555
C15_12 O27_13 1_555 1_555
C16_12 O27_14 1_555 1_555
C26_12 C15_12 1_555 1_555
C27_12 C16_12 1_555 1_555
C37_12 C26_12 1_555 1_555
C38_12 C27_12 1_555 1_555
H14_12 C37_12 1_555 1_555
H15_12 C38_12 1_555 1_555
C48_12 C37_12 1_555 1_555
C49_12 C38_12 1_555 1_555
C59_12 C48_12 1_555 1_555
C60_12 C49_12 1_555 1_555
C70_12 C59_12 1_555 1_555
C71_12 C60_12 1_555 1_555
H25_12 C70_12 1_555 1_555
H26_12 C71_12 1_555 1_555
C81_12 C26_12 1_555 1_555
C82_12 C27_12 1_555 1_555
H36_12 C81_12 1_555 1_555
H37_12 C82_12 1_555 1_555
C92_12 C49_12 1_555 1_555
C93_12 C48_12 1_555 1_555
C103_12 C10_12 1_555 1_555
C104_12 C93_12 1_555 1_555
C114_12 C9_12 1_555 1_555
C115_12 C60_12 1_555 1_555
C125_12 C92_12 1_555 1_555
C126_12 C93_12 1_555 1_555
H47_12 C125_12 1_555 1_555
H48_12 C126_12 1_555 1_555
H58_12 C125_12 1_555 1_555
H59_12 C126_12 1_555 1_555
C136_12 C125_12 1_555 1_555
C137_12 C126_12 1_555 1_555
H69_12 C136_12 1_555 1_555
H70_12 C137_12 1_555 1_555
H80_12 C136_12 1_555 1_555
H81_12 C137_12 1_555 1_555
H91_12 C136_12 1_555 1_555
H92_12 C137_12 1_555 1_555
C147_12 C92_12 1_555 1_555
C148_12 C93_12 1_555 1_555
H102_12 C147_12 1_555 1_555
H103_12 C148_12 1_555 1_555
H113_12 C147_12 1_555 1_555
H114_12 C148_12 1_555 1_555
C158_12 C147_12 1_555 1_555
C159_12 C148_12 1_555 1_555
H124_12 C158_12 1_555 1_555
H125_12 C159_12 1_555 1_555
H135_12 C158_12 1_555 1_555
H136_12 C159_12 1_555 1_555
H146_12 C158_12 1_555 1_555
H147_12 C159_12 1_555 1_555
C6_12 C7_12 1_555 1_555
C9_12 C10_12 1_555 1_555
C59_12 C114_12 1_555 1_555
C70_12 C81_12 1_555 1_555
C71_12 C82_12 1_555 1_555
C92_12 C103_12 1_555 1_555
C103_12 C115_12 1_555 1_555
C104_12 C114_12 1_555 1_555
C104_12 C115_12 1_555 1_555
O12_19 C21_17 1_555 1_555
O12_16 C22_17 1_555 1_555
C20_17 O14_18 1_555 1_555
C21_17 O26_19 1_555 1_555
C22_17 O26_16 1_555 1_555
C31_17 C20_17 1_555 1_555
C32_17 C21_17 1_555 1_555
C33_17 C22_17 1_555 1_555
C42_17 C31_17 1_555 1_555
C43_17 C32_17 1_555 1_555
C44_17 C33_17 1_555 1_555
H19_17 C42_17 1_555 1_555
H20_17 C43_17 1_555 1_555
H21_17 C44_17 1_555 1_555
C53_17 C42_17 1_555 1_555
C54_17 C43_17 1_555 1_555
C55_17 C44_17 1_555 1_555
C64_17 C53_17 1_555 1_555
C65_17 C55_17 1_555 1_555
C66_17 C54_17 1_555 1_555
C75_17 C64_17 1_555 1_555
C76_17 C65_17 1_555 1_555
C77_17 C66_17 1_555 1_555
H30_17 C75_17 1_555 1_555
H31_17 C76_17 1_555 1_555
H32_17 C77_17 1_555 1_555
C86_17 C31_17 1_555 1_555
C87_17 C33_17 1_555 1_555
C88_17 C32_17 1_555 1_555
H41_17 C86_17 1_555 1_555
H42_17 C87_17 1_555 1_555
H43_17 C88_17 1_555 1_555
C97_17 C53_17 1_555 1_555
C98_17 C54_17 1_555 1_555
C99_17 C55_17 1_555 1_555
C108_17 C97_17 1_555 1_555
C109_17 C98_17 1_555 1_555
C110_17 C99_17 1_555 1_555
C119_17 C64_17 1_555 1_555
C120_17 C65_17 1_555 1_555
C121_17 C66_17 1_555 1_555
C130_17 C97_17 1_555 1_555
C131_17 C98_17 1_555 1_555
C132_17 C99_17 1_555 1_555
H52_17 C130_17 1_555 1_555
H53_17 C131_17 1_555 1_555
H54_17 C132_17 1_555 1_555
H63_17 C130_17 1_555 1_555
H64_17 C131_17 1_555 1_555
H65_17 C132_17 1_555 1_555
C141_17 C130_17 1_555 1_555
C142_17 C131_17 1_555 1_555
C143_17 C132_17 1_555 1_555
H74_17 C141_17 1_555 1_555
H75_17 C142_17 1_555 1_555
H76_17 C143_17 1_555 1_555
H85_17 C141_17 1_555 1_555
H86_17 C142_17 1_555 1_555
H87_17 C143_17 1_555 1_555
H96_17 C141_17 1_555 1_555
H97_17 C142_17 1_555 1_555
H98_17 C143_17 1_555 1_555
C152_17 C97_17 1_555 1_555
C153_17 C98_17 1_555 1_555
C154_17 C99_17 1_555 1_555
H107_17 C152_17 1_555 1_555
H108_17 C153_17 1_555 1_555
H109_17 C154_17 1_555 1_555
H118_17 C152_17 1_555 1_555
H119_17 C153_17 1_555 1_555
H120_17 C154_17 1_555 1_555
C163_17 C152_17 1_555 1_555
C164_17 C153_17 1_555 1_555
C165_17 C154_17 1_555 1_555
H129_17 C163_17 1_555 1_555
H130_17 C164_17 1_555 1_555
H131_17 C165_17 1_555 1_555
H140_17 C163_17 1_555 1_555
H141_17 C164_17 1_555 1_555
H142_17 C165_17 1_555 1_555
H151_17 C163_17 1_555 1_555
H152_17 C164_17 1_555 1_555
H153_17 C165_17 1_555 1_555
O29_18 C20_17 1_555 1_555
C75_17 C86_17 1_555 1_555
C76_17 C87_17 1_555 1_555
C77_17 C88_17 1_555 1_555
C108_17 C119_17 1_555 1_555
C108_17 C120_17 1_555 1_555
C109_17 C119_17 1_555 1_555
C109_17 C121_17 1_555 1_555
C110_17 C120_17 1_555 1_555
C110_17 C121_17 1_555 1_555
O14_22 C21_18 1_555 1_555
O12_15 C22_18 1_555 1_555
C20_18 O14_17 1_555 1_555
C21_18 O29_22 1_555 1_555
C22_18 O26_15 1_555 1_555
C31_18 C20_18 1_555 1_555
C32_18 C21_18 1_555 1_555
C33_18 C22_18 1_555 1_555
C42_18 C31_18 1_555 1_555
C43_18 C32_18 1_555 1_555
C44_18 C33_18 1_555 1_555
H19_18 C42_18 1_555 1_555
H20_18 C43_18 1_555 1_555
H21_18 C44_18 1_555 1_555
C53_18 C42_18 1_555 1_555
C54_18 C43_18 1_555 1_555
C55_18 C44_18 1_555 1_555
C64_18 C53_18 1_555 1_555
C65_18 C55_18 1_555 1_555
C66_18 C54_18 1_555 1_555
C75_18 C64_18 1_555 1_555
C76_18 C65_18 1_555 1_555
C77_18 C66_18 1_555 1_555
H30_18 C75_18 1_555 1_555
H31_18 C76_18 1_555 1_555
H32_18 C77_18 1_555 1_555
C86_18 C31_18 1_555 1_555
C87_18 C33_18 1_555 1_555
C88_18 C32_18 1_555 1_555
H41_18 C86_18 1_555 1_555
H42_18 C87_18 1_555 1_555
H43_18 C88_18 1_555 1_555
C97_18 C53_18 1_555 1_555
C98_18 C54_18 1_555 1_555
C99_18 C55_18 1_555 1_555
C108_18 C97_18 1_555 1_555
C109_18 C98_18 1_555 1_555
C110_18 C99_18 1_555 1_555
C119_18 C64_18 1_555 1_555
C120_18 C65_18 1_555 1_555
C121_18 C66_18 1_555 1_555
C130_18 C97_18 1_555 1_555
C131_18 C98_18 1_555 1_555
C132_18 C99_18 1_555 1_555
H52_18 C130_18 1_555 1_555
H53_18 C131_18 1_555 1_555
H54_18 C132_18 1_555 1_555
H63_18 C130_18 1_555 1_555
H64_18 C131_18 1_555 1_555
H65_18 C132_18 1_555 1_555
C141_18 C130_18 1_555 1_555
C142_18 C131_18 1_555 1_555
C143_18 C132_18 1_555 1_555
H74_18 C141_18 1_555 1_555
H75_18 C142_18 1_555 1_555
H76_18 C143_18 1_555 1_555
H85_18 C141_18 1_555 1_555
H86_18 C142_18 1_555 1_555
H87_18 C143_18 1_555 1_555
H96_18 C141_18 1_555 1_555
H97_18 C142_18 1_555 1_555
H98_18 C143_18 1_555 1_555
C152_18 C97_18 1_555 1_555
C153_18 C98_18 1_555 1_555
C154_18 C99_18 1_555 1_555
H107_18 C152_18 1_555 1_555
H108_18 C153_18 1_555 1_555
H109_18 C154_18 1_555 1_555
H118_18 C152_18 1_555 1_555
H119_18 C153_18 1_555 1_555
H120_18 C154_18 1_555 1_555
C163_18 C152_18 1_555 1_555
C164_18 C153_18 1_555 1_555
C165_18 C154_18 1_555 1_555
H129_18 C163_18 1_555 1_555
H130_18 C164_18 1_555 1_555
H131_18 C165_18 1_555 1_555
H140_18 C163_18 1_555 1_555
H141_18 C164_18 1_555 1_555
H142_18 C165_18 1_555 1_555
H151_18 C163_18 1_555 1_555
H152_18 C164_18 1_555 1_555
H153_18 C165_18 1_555 1_555
O29_17 C20_18 1_555 1_555
C75_18 C86_18 1_555 1_555
C76_18 C87_18 1_555 1_555
C77_18 C88_18 1_555 1_555
C108_18 C119_18 1_555 1_555
C108_18 C120_18 1_555 1_555
C109_18 C119_18 1_555 1_555
C109_18 C121_18 1_555 1_555
C110_18 C120_18 1_555 1_555
C110_18 C121_18 1_555 1_555
O11_19 C25_10 1_555 1_555
C23_10 O11_21 1_555 1_555
C24_10 O11_20 1_555 1_555
C25_10 O27_19 1_555 1_555
C34_10 C23_10 1_555 1_555
C35_10 C24_10 1_555 1_555
C36_10 C25_10 1_555 1_555
C45_10 C34_10 1_555 1_555
C46_10 C35_10 1_555 1_555
C47_10 C36_10 1_555 1_555
H22_10 C45_10 1_555 1_555
H23_10 C46_10 1_555 1_555
H24_10 C47_10 1_555 1_555
C56_10 C45_10 1_555 1_555
C57_10 C46_10 1_555 1_555
C58_10 C47_10 1_555 1_555
C67_10 C56_10 1_555 1_555
C68_10 C58_10 1_555 1_555
C69_10 C57_10 1_555 1_555
C78_10 C67_10 1_555 1_555
C79_10 C68_10 1_555 1_555
C80_10 C69_10 1_555 1_555
H33_10 C78_10 1_555 1_555
H34_10 C79_10 1_555 1_555
H35_10 C80_10 1_555 1_555
C89_10 C34_10 1_555 1_555
C90_10 C36_10 1_555 1_555
C91_10 C35_10 1_555 1_555
H44_10 C89_10 1_555 1_555
H45_10 C90_10 1_555 1_555
H46_10 C91_10 1_555 1_555
C100_10 C56_10 1_555 1_555
C101_10 C57_10 1_555 1_555
C102_10 C58_10 1_555 1_555
C111_10 C100_10 1_555 1_555
C112_10 C101_10 1_555 1_555
C113_10 C102_10 1_555 1_555
C122_10 C67_10 1_555 1_555
C123_10 C68_10 1_555 1_555
C124_10 C69_10 1_555 1_555
C133_10 C100_10 1_555 1_555
C134_10 C101_10 1_555 1_555
C135_10 C102_10 1_555 1_555
H55_10 C133_10 1_555 1_555
H56_10 C134_10 1_555 1_555
H57_10 C135_10 1_555 1_555
H66_10 C133_10 1_555 1_555
H67_10 C134_10 1_555 1_555
H68_10 C135_10 1_555 1_555
C144_10 C133_10 1_555 1_555
C145_10 C134_10 1_555 1_555
C146_10 C135_10 1_555 1_555
H77_10 C144_10 1_555 1_555
H78_10 C145_10 1_555 1_555
H79_10 C146_10 1_555 1_555
H88_10 C144_10 1_555 1_555
H89_10 C145_10 1_555 1_555
H90_10 C146_10 1_555 1_555
H99_10 C144_10 1_555 1_555
H100_10 C145_10 1_555 1_555
H101_10 C146_10 1_555 1_555
C155_10 C100_10 1_555 1_555
C156_10 C101_10 1_555 1_555
C157_10 C102_10 1_555 1_555
H110_10 C155_10 1_555 1_555
H111_10 C156_10 1_555 1_555
H112_10 C157_10 1_555 1_555
H121_10 C155_10 1_555 1_555
H122_10 C156_10 1_555 1_555
H123_10 C157_10 1_555 1_555
C166_10 C155_10 1_555 1_555
C167_10 C156_10 1_555 1_555
C168_10 C157_10 1_555 1_555
H132_10 C166_10 1_555 1_555
H133_10 C167_10 1_555 1_555
H134_10 C168_10 1_555 1_555
H143_10 C166_10 1_555 1_555
H144_10 C167_10 1_555 1_555
H145_10 C168_10 1_555 1_555
H154_10 C166_10 1_555 1_555
H155_10 C167_10 1_555 1_555
H156_10 C168_10 1_555 1_555
O27_21 C23_10 1_555 1_555
O27_20 C24_10 1_555 1_555
C78_10 C89_10 1_555 1_555
C79_10 C90_10 1_555 1_555
C80_10 C91_10 1_555 1_555
C111_10 C122_10 1_555 1_555
C111_10 C123_10 1_555 1_555
C112_10 C122_10 1_555 1_555
C112_10 C124_10 1_555 1_555
C113_10 C123_10 1_555 1_555
C113_10 C124_10 1_555 1_555
O17_13 C21_19 1_555 1_555
O14_20 C22_19 1_555 1_555
C20_19 O12_24 1_555 1_555
C21_19 O32_13 1_555 1_555
C22_19 O29_20 1_555 1_555
C31_19 C20_19 1_555 1_555
C32_19 C21_19 1_555 1_555
C33_19 C22_19 1_555 1_555
C42_19 C31_19 1_555 1_555
C43_19 C32_19 1_555 1_555
C44_19 C33_19 1_555 1_555
H19_19 C42_19 1_555 1_555
H20_19 C43_19 1_555 1_555
H21_19 C44_19 1_555 1_555
C53_19 C42_19 1_555 1_555
C54_19 C43_19 1_555 1_555
C55_19 C44_19 1_555 1_555
C64_19 C53_19 1_555 1_555
C65_19 C55_19 1_555 1_555
C66_19 C54_19 1_555 1_555
C75_19 C64_19 1_555 1_555
C76_19 C65_19 1_555 1_555
C77_19 C66_19 1_555 1_555
H30_19 C75_19 1_555 1_555
H31_19 C76_19 1_555 1_555
H32_19 C77_19 1_555 1_555
C86_19 C31_19 1_555 1_555
C87_19 C33_19 1_555 1_555
C88_19 C32_19 1_555 1_555
H41_19 C86_19 1_555 1_555
H42_19 C87_19 1_555 1_555
H43_19 C88_19 1_555 1_555
C97_19 C53_19 1_555 1_555
C98_19 C54_19 1_555 1_555
C99_19 C55_19 1_555 1_555
C108_19 C97_19 1_555 1_555
C109_19 C98_19 1_555 1_555
C110_19 C99_19 1_555 1_555
C119_19 C64_19 1_555 1_555
C120_19 C65_19 1_555 1_555
C121_19 C66_19 1_555 1_555
C130_19 C97_19 1_555 1_555
C131_19 C98_19 1_555 1_555
C132_19 C99_19 1_555 1_555
H52_19 C130_19 1_555 1_555
H53_19 C131_19 1_555 1_555
H54_19 C132_19 1_555 1_555
H63_19 C130_19 1_555 1_555
H64_19 C131_19 1_555 1_555
H65_19 C132_19 1_555 1_555
C141_19 C130_19 1_555 1_555
C142_19 C131_19 1_555 1_555
C143_19 C132_19 1_555 1_555
H74_19 C141_19 1_555 1_555
H75_19 C142_19 1_555 1_555
H76_19 C143_19 1_555 1_555
H85_19 C141_19 1_555 1_555
H86_19 C142_19 1_555 1_555
H87_19 C143_19 1_555 1_555
H96_19 C141_19 1_555 1_555
H97_19 C142_19 1_555 1_555
H98_19 C143_19 1_555 1_555
C152_19 C97_19 1_555 1_555
C153_19 C98_19 1_555 1_555
C154_19 C99_19 1_555 1_555
H107_19 C152_19 1_555 1_555
H108_19 C153_19 1_555 1_555
H109_19 C154_19 1_555 1_555
H118_19 C152_19 1_555 1_555
H119_19 C153_19 1_555 1_555
H120_19 C154_19 1_555 1_555
C163_19 C152_19 1_555 1_555
C164_19 C153_19 1_555 1_555
C165_19 C154_19 1_555 1_555
H129_19 C163_19 1_555 1_555
H130_19 C164_19 1_555 1_555
H131_19 C165_19 1_555 1_555
H140_19 C163_19 1_555 1_555
H141_19 C164_19 1_555 1_555
H142_19 C165_19 1_555 1_555
H151_19 C163_19 1_555 1_555
H152_19 C164_19 1_555 1_555
H153_19 C165_19 1_555 1_555
O26_24 C20_19 1_555 1_555
C75_19 C86_19 1_555 1_555
C76_19 C87_19 1_555 1_555
C77_19 C88_19 1_555 1_555
C108_19 C119_19 1_555 1_555
C108_19 C120_19 1_555 1_555
C109_19 C119_19 1_555 1_555
C109_19 C121_19 1_555 1_555
C110_19 C120_19 1_555 1_555
C110_19 C121_19 1_555 1_555
O11_17 C1_13 1_555 1_555
C1_13 O27_17 1_555 1_555
C2_13 C1_13 1_555 1_555
C3_13 C2_13 1_555 1_555
H1_13 C3_13 1_555 1_555
C4_13 C3_13 1_555 1_555
C5_13 C4_13 1_555 1_555
C6_13 C5_13 1_555 1_555
H2_13 C6_13 1_555 1_555
C7_13 C2_13 1_555 1_555
H3_13 C7_13 1_555 1_555
C8_13 C4_13 1_555 1_555
C9_13 C8_13 1_555 1_555
C10_13 C5_13 1_555 1_555
C11_13 C8_13 1_555 1_555
H4_13 C11_13 1_555 1_555
H5_13 C11_13 1_555 1_555
C12_13 C11_13 1_555 1_555
H6_13 C12_13 1_555 1_555
H7_13 C12_13 1_555 1_555
H8_13 C12_13 1_555 1_555
C13_13 C8_13 1_555 1_555
H9_13 C13_13 1_555 1_555
H10_13 C13_13 1_555 1_555
C14_13 C13_13 1_555 1_555
H11_13 C14_13 1_555 1_555
H12_13 C14_13 1_555 1_555
H13_13 C14_13 1_555 1_555
O11_18 C15_13 1_555 1_555
O11_16 C16_13 1_555 1_555
C15_13 O27_18 1_555 1_555
C16_13 O27_16 1_555 1_555
C26_13 C15_13 1_555 1_555
C27_13 C16_13 1_555 1_555
C37_13 C26_13 1_555 1_555
C38_13 C27_13 1_555 1_555
H14_13 C37_13 1_555 1_555
H15_13 C38_13 1_555 1_555
C48_13 C37_13 1_555 1_555
C49_13 C38_13 1_555 1_555
C59_13 C48_13 1_555 1_555
C60_13 C49_13 1_555 1_555
C70_13 C59_13 1_555 1_555
C71_13 C60_13 1_555 1_555
H25_13 C70_13 1_555 1_555
H26_13 C71_13 1_555 1_555
C81_13 C26_13 1_555 1_555
C82_13 C27_13 1_555 1_555
H36_13 C81_13 1_555 1_555
H37_13 C82_13 1_555 1_555
C92_13 C49_13 1_555 1_555
C93_13 C48_13 1_555 1_555
C103_13 C10_13 1_555 1_555
C104_13 C93_13 1_555 1_555
C114_13 C9_13 1_555 1_555
C115_13 C60_13 1_555 1_555
C125_13 C92_13 1_555 1_555
C126_13 C93_13 1_555 1_555
H47_13 C125_13 1_555 1_555
H48_13 C126_13 1_555 1_555
H58_13 C125_13 1_555 1_555
H59_13 C126_13 1_555 1_555
C136_13 C125_13 1_555 1_555
C137_13 C126_13 1_555 1_555
H69_13 C136_13 1_555 1_555
H70_13 C137_13 1_555 1_555
H80_13 C136_13 1_555 1_555
H81_13 C137_13 1_555 1_555
H91_13 C136_13 1_555 1_555
H92_13 C137_13 1_555 1_555
C147_13 C92_13 1_555 1_555
C148_13 C93_13 1_555 1_555
H102_13 C147_13 1_555 1_555
H103_13 C148_13 1_555 1_555
H113_13 C147_13 1_555 1_555
H114_13 C148_13 1_555 1_555
C158_13 C147_13 1_555 1_555
C159_13 C148_13 1_555 1_555
H124_13 C158_13 1_555 1_555
H125_13 C159_13 1_555 1_555
H135_13 C158_13 1_555 1_555
H136_13 C159_13 1_555 1_555
H146_13 C158_13 1_555 1_555
H147_13 C159_13 1_555 1_555
C6_13 C7_13 1_555 1_555
C9_13 C10_13 1_555 1_555
C59_13 C114_13 1_555 1_555
C70_13 C81_13 1_555 1_555
C71_13 C82_13 1_555 1_555
C92_13 C103_13 1_555 1_555
C103_13 C115_13 1_555 1_555
C104_13 C114_13 1_555 1_555
C104_13 C115_13 1_555 1_555
O17_21 C21_20 1_555 1_555
O17_23 C22_20 1_555 1_555
C20_20 O17_14 1_555 1_555
C21_20 O32_21 1_555 1_555
C22_20 O32_23 1_555 1_555
C31_20 C20_20 1_555 1_555
C32_20 C21_20 1_555 1_555
C33_20 C22_20 1_555 1_555
C42_20 C31_20 1_555 1_555
C43_20 C32_20 1_555 1_555
C44_20 C33_20 1_555 1_555
H19_20 C42_20 1_555 1_555
H20_20 C43_20 1_555 1_555
H21_20 C44_20 1_555 1_555
C53_20 C42_20 1_555 1_555
C54_20 C43_20 1_555 1_555
C55_20 C44_20 1_555 1_555
C64_20 C53_20 1_555 1_555
C65_20 C55_20 1_555 1_555
C66_20 C54_20 1_555 1_555
C75_20 C64_20 1_555 1_555
C76_20 C65_20 1_555 1_555
C77_20 C66_20 1_555 1_555
H30_20 C75_20 1_555 1_555
H31_20 C76_20 1_555 1_555
H32_20 C77_20 1_555 1_555
C86_20 C31_20 1_555 1_555
C87_20 C33_20 1_555 1_555
C88_20 C32_20 1_555 1_555
H41_20 C86_20 1_555 1_555
H42_20 C87_20 1_555 1_555
H43_20 C88_20 1_555 1_555
C97_20 C53_20 1_555 1_555
C98_20 C54_20 1_555 1_555
C99_20 C55_20 1_555 1_555
C108_20 C97_20 1_555 1_555
C109_20 C98_20 1_555 1_555
C110_20 C99_20 1_555 1_555
C119_20 C64_20 1_555 1_555
C120_20 C65_20 1_555 1_555
C121_20 C66_20 1_555 1_555
C130_20 C97_20 1_555 1_555
C131_20 C98_20 1_555 1_555
C132_20 C99_20 1_555 1_555
H52_20 C130_20 1_555 1_555
H53_20 C131_20 1_555 1_555
H54_20 C132_20 1_555 1_555
H63_20 C130_20 1_555 1_555
H64_20 C131_20 1_555 1_555
H65_20 C132_20 1_555 1_555
C141_20 C130_20 1_555 1_555
C142_20 C131_20 1_555 1_555
C143_20 C132_20 1_555 1_555
H74_20 C141_20 1_555 1_555
H75_20 C142_20 1_555 1_555
H76_20 C143_20 1_555 1_555
H85_20 C141_20 1_555 1_555
H86_20 C142_20 1_555 1_555
H87_20 C143_20 1_555 1_555
H96_20 C141_20 1_555 1_555
H97_20 C142_20 1_555 1_555
H98_20 C143_20 1_555 1_555
C152_20 C97_20 1_555 1_555
C153_20 C98_20 1_555 1_555
C154_20 C99_20 1_555 1_555
H107_20 C152_20 1_555 1_555
H108_20 C153_20 1_555 1_555
H109_20 C154_20 1_555 1_555
H118_20 C152_20 1_555 1_555
H119_20 C153_20 1_555 1_555
H120_20 C154_20 1_555 1_555
C163_20 C152_20 1_555 1_555
C164_20 C153_20 1_555 1_555
C165_20 C154_20 1_555 1_555
H129_20 C163_20 1_555 1_555
H130_20 C164_20 1_555 1_555
H131_20 C165_20 1_555 1_555
H140_20 C163_20 1_555 1_555
H141_20 C164_20 1_555 1_555
H142_20 C165_20 1_555 1_555
H151_20 C163_20 1_555 1_555
H152_20 C164_20 1_555 1_555
H153_20 C165_20 1_555 1_555
O32_14 C20_20 1_555 1_555
C75_20 C86_20 1_555 1_555
C76_20 C87_20 1_555 1_555
C77_20 C88_20 1_555 1_555
C108_20 C119_20 1_555 1_555
C108_20 C120_20 1_555 1_555
C109_20 C119_20 1_555 1_555
C109_20 C121_20 1_555 1_555
C110_20 C120_20 1_555 1_555
C110_20 C121_20 1_555 1_555
O11_11 C1_14 1_555 1_555
C1_14 O27_11 1_555 1_555
C2_14 C1_14 1_555 1_555
C3_14 C2_14 1_555 1_555
H1_14 C3_14 1_555 1_555
C4_14 C3_14 1_555 1_555
C5_14 C4_14 1_555 1_555
C6_14 C5_14 1_555 1_555
H2_14 C6_14 1_555 1_555
C7_14 C2_14 1_555 1_555
H3_14 C7_14 1_555 1_555
C8_14 C4_14 1_555 1_555
C9_14 C8_14 1_555 1_555
C10_14 C5_14 1_555 1_555
C11_14 C8_14 1_555 1_555
H4_14 C11_14 1_555 1_555
H5_14 C11_14 1_555 1_555
C12_14 C11_14 1_555 1_555
H6_14 C12_14 1_555 1_555
H7_14 C12_14 1_555 1_555
H8_14 C12_14 1_555 1_555
C13_14 C8_14 1_555 1_555
H9_14 C13_14 1_555 1_555
H10_14 C13_14 1_555 1_555
C14_14 C13_14 1_555 1_555
H11_14 C14_14 1_555 1_555
H12_14 C14_14 1_555 1_555
H13_14 C14_14 1_555 1_555
O11_6 C15_14 1_555 1_555
O11_7 C16_14 1_555 1_555
O12_22 C21_21 1_555 1_555
O12_9 C22_21 1_555 1_555
C15_14 O27_6 1_555 1_555
C16_14 O27_7 1_555 1_555
C20_21 O14_11 1_555 1_555
C21_21 O26_22 1_555 1_555
C22_21 O26_9 1_555 1_555
C26_14 C15_14 1_555 1_555
C27_14 C16_14 1_555 1_555
C31_21 C20_21 1_555 1_555
C32_21 C21_21 1_555 1_555
C33_21 C22_21 1_555 1_555
C37_14 C26_14 1_555 1_555
C38_14 C27_14 1_555 1_555
C42_21 C31_21 1_555 1_555
C43_21 C32_21 1_555 1_555
C44_21 C33_21 1_555 1_555
H14_14 C37_14 1_555 1_555
H15_14 C38_14 1_555 1_555
H19_21 C42_21 1_555 1_555
H20_21 C43_21 1_555 1_555
H21_21 C44_21 1_555 1_555
C48_14 C37_14 1_555 1_555
C49_14 C38_14 1_555 1_555
C53_21 C42_21 1_555 1_555
C54_21 C43_21 1_555 1_555
C55_21 C44_21 1_555 1_555
C59_14 C48_14 1_555 1_555
C60_14 C49_14 1_555 1_555
C64_21 C53_21 1_555 1_555
C65_21 C55_21 1_555 1_555
C66_21 C54_21 1_555 1_555
C70_14 C59_14 1_555 1_555
C71_14 C60_14 1_555 1_555
C75_21 C64_21 1_555 1_555
C76_21 C65_21 1_555 1_555
C77_21 C66_21 1_555 1_555
H25_14 C70_14 1_555 1_555
H26_14 C71_14 1_555 1_555
H30_21 C75_21 1_555 1_555
H31_21 C76_21 1_555 1_555
H32_21 C77_21 1_555 1_555
C81_14 C26_14 1_555 1_555
C82_14 C27_14 1_555 1_555
C86_21 C31_21 1_555 1_555
C87_21 C33_21 1_555 1_555
C88_21 C32_21 1_555 1_555
H36_14 C81_14 1_555 1_555
H37_14 C82_14 1_555 1_555
H41_21 C86_21 1_555 1_555
H42_21 C87_21 1_555 1_555
H43_21 C88_21 1_555 1_555
C92_14 C49_14 1_555 1_555
C93_14 C48_14 1_555 1_555
C97_21 C53_21 1_555 1_555
C98_21 C54_21 1_555 1_555
C99_21 C55_21 1_555 1_555
C103_14 C10_14 1_555 1_555
C104_14 C93_14 1_555 1_555
C108_21 C97_21 1_555 1_555
C109_21 C98_21 1_555 1_555
C110_21 C99_21 1_555 1_555
C114_14 C9_14 1_555 1_555
C115_14 C60_14 1_555 1_555
C119_21 C64_21 1_555 1_555
C120_21 C65_21 1_555 1_555
C121_21 C66_21 1_555 1_555
C125_14 C92_14 1_555 1_555
C126_14 C93_14 1_555 1_555
C130_21 C97_21 1_555 1_555
C131_21 C98_21 1_555 1_555
C132_21 C99_21 1_555 1_555
H47_14 C125_14 1_555 1_555
H48_14 C126_14 1_555 1_555
H52_21 C130_21 1_555 1_555
H53_21 C131_21 1_555 1_555
H54_21 C132_21 1_555 1_555
H58_14 C125_14 1_555 1_555
H59_14 C126_14 1_555 1_555
H63_21 C130_21 1_555 1_555
H64_21 C131_21 1_555 1_555
H65_21 C132_21 1_555 1_555
C136_14 C125_14 1_555 1_555
C137_14 C126_14 1_555 1_555
C141_21 C130_21 1_555 1_555
C142_21 C131_21 1_555 1_555
C143_21 C132_21 1_555 1_555
H69_14 C136_14 1_555 1_555
H70_14 C137_14 1_555 1_555
H74_21 C141_21 1_555 1_555
H75_21 C142_21 1_555 1_555
H76_21 C143_21 1_555 1_555
H80_14 C136_14 1_555 1_555
H81_14 C137_14 1_555 1_555
H85_21 C141_21 1_555 1_555
H86_21 C142_21 1_555 1_555
H87_21 C143_21 1_555 1_555
H91_14 C136_14 1_555 1_555
H92_14 C137_14 1_555 1_555
H96_21 C141_21 1_555 1_555
H97_21 C142_21 1_555 1_555
H98_21 C143_21 1_555 1_555
C147_14 C92_14 1_555 1_555
C148_14 C93_14 1_555 1_555
C152_21 C97_21 1_555 1_555
C153_21 C98_21 1_555 1_555
C154_21 C99_21 1_555 1_555
H102_14 C147_14 1_555 1_555
H103_14 C148_14 1_555 1_555
H107_21 C152_21 1_555 1_555
H108_21 C153_21 1_555 1_555
H109_21 C154_21 1_555 1_555
H113_14 C147_14 1_555 1_555
H114_14 C148_14 1_555 1_555
H118_21 C152_21 1_555 1_555
H119_21 C153_21 1_555 1_555
H120_21 C154_21 1_555 1_555
C158_14 C147_14 1_555 1_555
C159_14 C148_14 1_555 1_555
C163_21 C152_21 1_555 1_555
C164_21 C153_21 1_555 1_555
C165_21 C154_21 1_555 1_555
H124_14 C158_14 1_555 1_555
H125_14 C159_14 1_555 1_555
H129_21 C163_21 1_555 1_555
H130_21 C164_21 1_555 1_555
H131_21 C165_21 1_555 1_555
H135_14 C158_14 1_555 1_555
H136_14 C159_14 1_555 1_555
H140_21 C163_21 1_555 1_555
H141_21 C164_21 1_555 1_555
H142_21 C165_21 1_555 1_555
H146_14 C158_14 1_555 1_555
H147_14 C159_14 1_555 1_555
H151_21 C163_21 1_555 1_555
H152_21 C164_21 1_555 1_555
H153_21 C165_21 1_555 1_555
C6_14 C7_14 1_555 1_555
C9_14 C10_14 1_555 1_555
O29_11 C20_21 1_555 1_555
C59_14 C114_14 1_555 1_555
C70_14 C81_14 1_555 1_555
C71_14 C82_14 1_555 1_555
C75_21 C86_21 1_555 1_555
C76_21 C87_21 1_555 1_555
C77_21 C88_21 1_555 1_555
C92_14 C103_14 1_555 1_555
C103_14 C115_14 1_555 1_555
C104_14 C114_14 1_555 1_555
C104_14 C115_14 1_555 1_555
C108_21 C119_21 1_555 1_555
C108_21 C120_21 1_555 1_555
C109_21 C119_21 1_555 1_555
C109_21 C121_21 1_555 1_555
C110_21 C120_21 1_555 1_555
C110_21 C121_21 1_555 1_555
O14_19 C21_22 1_555 1_555
O12_7 C22_22 1_555 1_555
C20_22 O14_10 1_555 1_555
C21_22 O29_19 1_555 1_555
C22_22 O26_7 1_555 1_555
C31_22 C20_22 1_555 1_555
C32_22 C21_22 1_555 1_555
C33_22 C22_22 1_555 1_555
C42_22 C31_22 1_555 1_555
C43_22 C32_22 1_555 1_555
C44_22 C33_22 1_555 1_555
H19_22 C42_22 1_555 1_555
H20_22 C43_22 1_555 1_555
H21_22 C44_22 1_555 1_555
C53_22 C42_22 1_555 1_555
C54_22 C43_22 1_555 1_555
C55_22 C44_22 1_555 1_555
C64_22 C53_22 1_555 1_555
C65_22 C55_22 1_555 1_555
C66_22 C54_22 1_555 1_555
C75_22 C64_22 1_555 1_555
C76_22 C65_22 1_555 1_555
C77_22 C66_22 1_555 1_555
H30_22 C75_22 1_555 1_555
H31_22 C76_22 1_555 1_555
H32_22 C77_22 1_555 1_555
C86_22 C31_22 1_555 1_555
C87_22 C33_22 1_555 1_555
C88_22 C32_22 1_555 1_555
H41_22 C86_22 1_555 1_555
H42_22 C87_22 1_555 1_555
H43_22 C88_22 1_555 1_555
C97_22 C53_22 1_555 1_555
C98_22 C54_22 1_555 1_555
C99_22 C55_22 1_555 1_555
C108_22 C97_22 1_555 1_555
C109_22 C98_22 1_555 1_555
C110_22 C99_22 1_555 1_555
C119_22 C64_22 1_555 1_555
C120_22 C65_22 1_555 1_555
C121_22 C66_22 1_555 1_555
C130_22 C97_22 1_555 1_555
C131_22 C98_22 1_555 1_555
C132_22 C99_22 1_555 1_555
H52_22 C130_22 1_555 1_555
H53_22 C131_22 1_555 1_555
H54_22 C132_22 1_555 1_555
H63_22 C130_22 1_555 1_555
H64_22 C131_22 1_555 1_555
H65_22 C132_22 1_555 1_555
C141_22 C130_22 1_555 1_555
C142_22 C131_22 1_555 1_555
C143_22 C132_22 1_555 1_555
H74_22 C141_22 1_555 1_555
H75_22 C142_22 1_555 1_555
H76_22 C143_22 1_555 1_555
H85_22 C141_22 1_555 1_555
H86_22 C142_22 1_555 1_555
H87_22 C143_22 1_555 1_555
H96_22 C141_22 1_555 1_555
H97_22 C142_22 1_555 1_555
H98_22 C143_22 1_555 1_555
C152_22 C97_22 1_555 1_555
C153_22 C98_22 1_555 1_555
C154_22 C99_22 1_555 1_555
H107_22 C152_22 1_555 1_555
H108_22 C153_22 1_555 1_555
H109_22 C154_22 1_555 1_555
H118_22 C152_22 1_555 1_555
H119_22 C153_22 1_555 1_555
H120_22 C154_22 1_555 1_555
C163_22 C152_22 1_555 1_555
C164_22 C153_22 1_555 1_555
C165_22 C154_22 1_555 1_555
H129_22 C163_22 1_555 1_555
H130_22 C164_22 1_555 1_555
H131_22 C165_22 1_555 1_555
H140_22 C163_22 1_555 1_555
H141_22 C164_22 1_555 1_555
H142_22 C165_22 1_555 1_555
H151_22 C163_22 1_555 1_555
H152_22 C164_22 1_555 1_555
H153_22 C165_22 1_555 1_555
O29_10 C20_22 1_555 1_555
C75_22 C86_22 1_555 1_555
C76_22 C87_22 1_555 1_555
C77_22 C88_22 1_555 1_555
C108_22 C119_22 1_555 1_555
C108_22 C120_22 1_555 1_555
C109_22 C119_22 1_555 1_555
C109_22 C121_22 1_555 1_555
C110_22 C120_22 1_555 1_555
C110_22 C121_22 1_555 1_555
O17_3 C21_23 1_555 1_555
O14_23 C22_23 1_555 1_555
C20_23 O12_21 1_555 1_555
C21_23 O32_3 1_555 1_555
C22_23 O29_23 1_555 1_555
C31_23 C20_23 1_555 1_555
C32_23 C21_23 1_555 1_555
C33_23 C22_23 1_555 1_555
C42_23 C31_23 1_555 1_555
C43_23 C32_23 1_555 1_555
C44_23 C33_23 1_555 1_555
H19_23 C42_23 1_555 1_555
H20_23 C43_23 1_555 1_555
H21_23 C44_23 1_555 1_555
C53_23 C42_23 1_555 1_555
C54_23 C43_23 1_555 1_555
C55_23 C44_23 1_555 1_555
C64_23 C53_23 1_555 1_555
C65_23 C55_23 1_555 1_555
C66_23 C54_23 1_555 1_555
C75_23 C64_23 1_555 1_555
C76_23 C65_23 1_555 1_555
C77_23 C66_23 1_555 1_555
H30_23 C75_23 1_555 1_555
H31_23 C76_23 1_555 1_555
H32_23 C77_23 1_555 1_555
C86_23 C31_23 1_555 1_555
C87_23 C33_23 1_555 1_555
C88_23 C32_23 1_555 1_555
H41_23 C86_23 1_555 1_555
H42_23 C87_23 1_555 1_555
H43_23 C88_23 1_555 1_555
C97_23 C53_23 1_555 1_555
C98_23 C54_23 1_555 1_555
C99_23 C55_23 1_555 1_555
C108_23 C97_23 1_555 1_555
C109_23 C98_23 1_555 1_555
C110_23 C99_23 1_555 1_555
C119_23 C64_23 1_555 1_555
C120_23 C65_23 1_555 1_555
C121_23 C66_23 1_555 1_555
C130_23 C97_23 1_555 1_555
C131_23 C98_23 1_555 1_555
C132_23 C99_23 1_555 1_555
H52_23 C130_23 1_555 1_555
H53_23 C131_23 1_555 1_555
H54_23 C132_23 1_555 1_555
H63_23 C130_23 1_555 1_555
H64_23 C131_23 1_555 1_555
H65_23 C132_23 1_555 1_555
C141_23 C130_23 1_555 1_555
C142_23 C131_23 1_555 1_555
C143_23 C132_23 1_555 1_555
H74_23 C141_23 1_555 1_555
H75_23 C142_23 1_555 1_555
H76_23 C143_23 1_555 1_555
H85_23 C141_23 1_555 1_555
H86_23 C142_23 1_555 1_555
H87_23 C143_23 1_555 1_555
H96_23 C141_23 1_555 1_555
H97_23 C142_23 1_555 1_555
H98_23 C143_23 1_555 1_555
C152_23 C97_23 1_555 1_555
C153_23 C98_23 1_555 1_555
C154_23 C99_23 1_555 1_555
H107_23 C152_23 1_555 1_555
H108_23 C153_23 1_555 1_555
H109_23 C154_23 1_555 1_555
H118_23 C152_23 1_555 1_555
H119_23 C153_23 1_555 1_555
H120_23 C154_23 1_555 1_555
C163_23 C152_23 1_555 1_555
C164_23 C153_23 1_555 1_555
C165_23 C154_23 1_555 1_555
H129_23 C163_23 1_555 1_555
H130_23 C164_23 1_555 1_555
H131_23 C165_23 1_555 1_555
H140_23 C163_23 1_555 1_555
H141_23 C164_23 1_555 1_555
H142_23 C165_23 1_555 1_555
H151_23 C163_23 1_555 1_555
H152_23 C164_23 1_555 1_555
H153_23 C165_23 1_555 1_555
O26_21 C20_23 1_555 1_555
C75_23 C86_23 1_555 1_555
C76_23 C87_23 1_555 1_555
C77_23 C88_23 1_555 1_555
C108_23 C119_23 1_555 1_555
C108_23 C120_23 1_555 1_555
C109_23 C119_23 1_555 1_555
C109_23 C121_23 1_555 1_555
C110_23 C120_23 1_555 1_555
C110_23 C121_23 1_555 1_555
O17_24 C21_24 1_555 1_555
O17_20 C22_24 1_555 1_555
C20_24 O17_6 1_555 1_555
C21_24 O32_24 1_555 1_555
C22_24 O32_20 1_555 1_555
C31_24 C20_24 1_555 1_555
C32_24 C21_24 1_555 1_555
C33_24 C22_24 1_555 1_555
C42_24 C31_24 1_555 1_555
C43_24 C32_24 1_555 1_555
C44_24 C33_24 1_555 1_555
H19_24 C42_24 1_555 1_555
H20_24 C43_24 1_555 1_555
H21_24 C44_24 1_555 1_555
C53_24 C42_24 1_555 1_555
C54_24 C43_24 1_555 1_555
C55_24 C44_24 1_555 1_555
C64_24 C53_24 1_555 1_555
C65_24 C55_24 1_555 1_555
C66_24 C54_24 1_555 1_555
C75_24 C64_24 1_555 1_555
C76_24 C65_24 1_555 1_555
C77_24 C66_24 1_555 1_555
H30_24 C75_24 1_555 1_555
H31_24 C76_24 1_555 1_555
H32_24 C77_24 1_555 1_555
C86_24 C31_24 1_555 1_555
C87_24 C33_24 1_555 1_555
C88_24 C32_24 1_555 1_555
H41_24 C86_24 1_555 1_555
H42_24 C87_24 1_555 1_555
H43_24 C88_24 1_555 1_555
C97_24 C53_24 1_555 1_555
C98_24 C54_24 1_555 1_555
C99_24 C55_24 1_555 1_555
C108_24 C97_24 1_555 1_555
C109_24 C98_24 1_555 1_555
C110_24 C99_24 1_555 1_555
C119_24 C64_24 1_555 1_555
C120_24 C65_24 1_555 1_555
C121_24 C66_24 1_555 1_555
C130_24 C97_24 1_555 1_555
C131_24 C98_24 1_555 1_555
C132_24 C99_24 1_555 1_555
H52_24 C130_24 1_555 1_555
H53_24 C131_24 1_555 1_555
H54_24 C132_24 1_555 1_555
H63_24 C130_24 1_555 1_555
H64_24 C131_24 1_555 1_555
H65_24 C132_24 1_555 1_555
C141_24 C130_24 1_555 1_555
C142_24 C131_24 1_555 1_555
C143_24 C132_24 1_555 1_555
H74_24 C141_24 1_555 1_555
H75_24 C142_24 1_555 1_555
H76_24 C143_24 1_555 1_555
H85_24 C141_24 1_555 1_555
H86_24 C142_24 1_555 1_555
H87_24 C143_24 1_555 1_555
H96_24 C141_24 1_555 1_555
H97_24 C142_24 1_555 1_555
H98_24 C143_24 1_555 1_555
C152_24 C97_24 1_555 1_555
C153_24 C98_24 1_555 1_555
C154_24 C99_24 1_555 1_555
H107_24 C152_24 1_555 1_555
H108_24 C153_24 1_555 1_555
H109_24 C154_24 1_555 1_555
H118_24 C152_24 1_555 1_555
H119_24 C153_24 1_555 1_555
H120_24 C154_24 1_555 1_555
C163_24 C152_24 1_555 1_555
C164_24 C153_24 1_555 1_555
C165_24 C154_24 1_555 1_555
H129_24 C163_24 1_555 1_555
H130_24 C164_24 1_555 1_555
H131_24 C165_24 1_555 1_555
H140_24 C163_24 1_555 1_555
H141_24 C164_24 1_555 1_555
H142_24 C165_24 1_555 1_555
H151_24 C163_24 1_555 1_555
H152_24 C164_24 1_555 1_555
H153_24 C165_24 1_555 1_555
O32_6 C20_24 1_555 1_555
C75_24 C86_24 1_555 1_555
C76_24 C87_24 1_555 1_555
C77_24 C88_24 1_555 1_555
C108_24 C119_24 1_555 1_555
C108_24 C120_24 1_555 1_555
C109_24 C119_24 1_555 1_555
C109_24 C121_24 1_555 1_555
C110_24 C120_24 1_555 1_555
C110_24 C121_24 1_555 1_555
O12_6 C21_25 1_555 1_555
O14_8 C22_25 1_555 1_555
C20_25 O14_24 1_555 1_555
C21_25 O26_6 1_555 1_555
C22_25 O29_8 1_555 1_555
C31_25 C20_25 1_555 1_555
C32_25 C21_25 1_555 1_555
C33_25 C22_25 1_555 1_555
C42_25 C31_25 1_555 1_555
C43_25 C32_25 1_555 1_555
C44_25 C33_25 1_555 1_555
H19_25 C42_25 1_555 1_555
H20_25 C43_25 1_555 1_555
H21_25 C44_25 1_555 1_555
C53_25 C42_25 1_555 1_555
C54_25 C43_25 1_555 1_555
C55_25 C44_25 1_555 1_555
C64_25 C53_25 1_555 1_555
C65_25 C55_25 1_555 1_555
C66_25 C54_25 1_555 1_555
C75_25 C64_25 1_555 1_555
C76_25 C65_25 1_555 1_555
C77_25 C66_25 1_555 1_555
H30_25 C75_25 1_555 1_555
H31_25 C76_25 1_555 1_555
H32_25 C77_25 1_555 1_555
C86_25 C31_25 1_555 1_555
C87_25 C33_25 1_555 1_555
C88_25 C32_25 1_555 1_555
H41_25 C86_25 1_555 1_555
H42_25 C87_25 1_555 1_555
H43_25 C88_25 1_555 1_555
C97_25 C53_25 1_555 1_555
C98_25 C54_25 1_555 1_555
C99_25 C55_25 1_555 1_555
C108_25 C97_25 1_555 1_555
C109_25 C98_25 1_555 1_555
C110_25 C99_25 1_555 1_555
C119_25 C64_25 1_555 1_555
C120_25 C65_25 1_555 1_555
C121_25 C66_25 1_555 1_555
C130_25 C97_25 1_555 1_555
C131_25 C98_25 1_555 1_555
C132_25 C99_25 1_555 1_555
H52_25 C130_25 1_555 1_555
H53_25 C131_25 1_555 1_555
H54_25 C132_25 1_555 1_555
H63_25 C130_25 1_555 1_555
H64_25 C131_25 1_555 1_555
H65_25 C132_25 1_555 1_555
C141_25 C130_25 1_555 1_555
C142_25 C131_25 1_555 1_555
C143_25 C132_25 1_555 1_555
H74_25 C141_25 1_555 1_555
H75_25 C142_25 1_555 1_555
H76_25 C143_25 1_555 1_555
H85_25 C141_25 1_555 1_555
H86_25 C142_25 1_555 1_555
H87_25 C143_25 1_555 1_555
H96_25 C141_25 1_555 1_555
H97_25 C142_25 1_555 1_555
H98_25 C143_25 1_555 1_555
C152_25 C97_25 1_555 1_555
C153_25 C98_25 1_555 1_555
C154_25 C99_25 1_555 1_555
H107_25 C152_25 1_555 1_555
H108_25 C153_25 1_555 1_555
H109_25 C154_25 1_555 1_555
H118_25 C152_25 1_555 1_555
H119_25 C153_25 1_555 1_555
H120_25 C154_25 1_555 1_555
C163_25 C152_25 1_555 1_555
C164_25 C153_25 1_555 1_555
C165_25 C154_25 1_555 1_555
H129_25 C163_25 1_555 1_555
H130_25 C164_25 1_555 1_555
H131_25 C165_25 1_555 1_555
H140_25 C163_25 1_555 1_555
H141_25 C164_25 1_555 1_555
H142_25 C165_25 1_555 1_555
H151_25 C163_25 1_555 1_555
H152_25 C164_25 1_555 1_555
H153_25 C165_25 1_555 1_555
O29_24 C20_25 1_555 1_555
C75_25 C86_25 1_555 1_555
C76_25 C87_25 1_555 1_555
C77_25 C88_25 1_555 1_555
C108_25 C119_25 1_555 1_555
C108_25 C120_25 1_555 1_555
C109_25 C119_25 1_555 1_555
C109_25 C121_25 1_555 1_555
C110_25 C120_25 1_555 1_555
C110_25 C121_25 1_555 1_555
O14_14 C21_26 1_555 1_555
O12_23 C22_26 1_555 1_555
C20_26 O17 1_555 1_555
C21_26 O29_14 1_555 1_555
C22_26 O26_23 1_555 1_555
C31_26 C20_26 1_555 1_555
C32_26 C21_26 1_555 1_555
C33_26 C22_26 1_555 1_555
C42_26 C31_26 1_555 1_555
C43_26 C32_26 1_555 1_555
C44_26 C33_26 1_555 1_555
H19_26 C42_26 1_555 1_555
H20_26 C43_26 1_555 1_555
H21_26 C44_26 1_555 1_555
C53_26 C42_26 1_555 1_555
C54_26 C43_26 1_555 1_555
C55_26 C44_26 1_555 1_555
C64_26 C53_26 1_555 1_555
C65_26 C55_26 1_555 1_555
C66_26 C54_26 1_555 1_555
C75_26 C64_26 1_555 1_555
C76_26 C65_26 1_555 1_555
C77_26 C66_26 1_555 1_555
H30_26 C75_26 1_555 1_555
H31_26 C76_26 1_555 1_555
H32_26 C77_26 1_555 1_555
C86_26 C31_26 1_555 1_555
C87_26 C33_26 1_555 1_555
C88_26 C32_26 1_555 1_555
H41_26 C86_26 1_555 1_555
H42_26 C87_26 1_555 1_555
H43_26 C88_26 1_555 1_555
C97_26 C53_26 1_555 1_555
C98_26 C54_26 1_555 1_555
C99_26 C55_26 1_555 1_555
C108_26 C97_26 1_555 1_555
C109_26 C98_26 1_555 1_555
C110_26 C99_26 1_555 1_555
C119_26 C64_26 1_555 1_555
C120_26 C65_26 1_555 1_555
C121_26 C66_26 1_555 1_555
C130_26 C97_26 1_555 1_555
C131_26 C98_26 1_555 1_555
C132_26 C99_26 1_555 1_555
H52_26 C130_26 1_555 1_555
H53_26 C131_26 1_555 1_555
H54_26 C132_26 1_555 1_555
H63_26 C130_26 1_555 1_555
H64_26 C131_26 1_555 1_555
H65_26 C132_26 1_555 1_555
C141_26 C130_26 1_555 1_555
C142_26 C131_26 1_555 1_555
C143_26 C132_26 1_555 1_555
H74_26 C141_26 1_555 1_555
H75_26 C142_26 1_555 1_555
H76_26 C143_26 1_555 1_555
H85_26 C141_26 1_555 1_555
H86_26 C142_26 1_555 1_555
H87_26 C143_26 1_555 1_555
H96_26 C141_26 1_555 1_555
H97_26 C142_26 1_555 1_555
H98_26 C143_26 1_555 1_555
C152_26 C97_26 1_555 1_555
C153_26 C98_26 1_555 1_555
C154_26 C99_26 1_555 1_555
H107_26 C152_26 1_555 1_555
H108_26 C153_26 1_555 1_555
H109_26 C154_26 1_555 1_555
H118_26 C152_26 1_555 1_555
H119_26 C153_26 1_555 1_555
H120_26 C154_26 1_555 1_555
C163_26 C152_26 1_555 1_555
C164_26 C153_26 1_555 1_555
C165_26 C154_26 1_555 1_555
H129_26 C163_26 1_555 1_555
H130_26 C164_26 1_555 1_555
H131_26 C165_26 1_555 1_555
H140_26 C163_26 1_555 1_555
H141_26 C164_26 1_555 1_555
H142_26 C165_26 1_555 1_555
H151_26 C163_26 1_555 1_555
H152_26 C164_26 1_555 1_555
H153_26 C165_26 1_555 1_555
O32 C20_26 1_555 1_555
C75_26 C86_26 1_555 1_555
C76_26 C87_26 1_555 1_555
C77_26 C88_26 1_555 1_555
C108_26 C119_26 1_555 1_555
C108_26 C120_26 1_555 1_555
C109_26 C119_26 1_555 1_555
C109_26 C121_26 1_555 1_555
C110_26 C120_26 1_555 1_555
C110_26 C121_26 1_555 1_555
O12_4 C21_27 1_555 1_555
O14_7 C22_27 1_555 1_555
C20_27 O12_18 1_555 1_555
C21_27 O26_4 1_555 1_555
C22_27 O29_7 1_555 1_555
C31_27 C20_27 1_555 1_555
C32_27 C21_27 1_555 1_555
C33_27 C22_27 1_555 1_555
C42_27 C31_27 1_555 1_555
C43_27 C32_27 1_555 1_555
C44_27 C33_27 1_555 1_555
H19_27 C42_27 1_555 1_555
H20_27 C43_27 1_555 1_555
H21_27 C44_27 1_555 1_555
C53_27 C42_27 1_555 1_555
C54_27 C43_27 1_555 1_555
C55_27 C44_27 1_555 1_555
C64_27 C53_27 1_555 1_555
C65_27 C55_27 1_555 1_555
C66_27 C54_27 1_555 1_555
C75_27 C64_27 1_555 1_555
C76_27 C65_27 1_555 1_555
C77_27 C66_27 1_555 1_555
H30_27 C75_27 1_555 1_555
H31_27 C76_27 1_555 1_555
H32_27 C77_27 1_555 1_555
C86_27 C31_27 1_555 1_555
C87_27 C33_27 1_555 1_555
C88_27 C32_27 1_555 1_555
H41_27 C86_27 1_555 1_555
H42_27 C87_27 1_555 1_555
H43_27 C88_27 1_555 1_555
C97_27 C53_27 1_555 1_555
C98_27 C54_27 1_555 1_555
C99_27 C55_27 1_555 1_555
C108_27 C97_27 1_555 1_555
C109_27 C98_27 1_555 1_555
C110_27 C99_27 1_555 1_555
C119_27 C64_27 1_555 1_555
C120_27 C65_27 1_555 1_555
C121_27 C66_27 1_555 1_555
C130_27 C97_27 1_555 1_555
C131_27 C98_27 1_555 1_555
C132_27 C99_27 1_555 1_555
H52_27 C130_27 1_555 1_555
H53_27 C131_27 1_555 1_555
H54_27 C132_27 1_555 1_555
H63_27 C130_27 1_555 1_555
H64_27 C131_27 1_555 1_555
H65_27 C132_27 1_555 1_555
C141_27 C130_27 1_555 1_555
C142_27 C131_27 1_555 1_555
C143_27 C132_27 1_555 1_555
H74_27 C141_27 1_555 1_555
H75_27 C142_27 1_555 1_555
H76_27 C143_27 1_555 1_555
H85_27 C141_27 1_555 1_555
H86_27 C142_27 1_555 1_555
H87_27 C143_27 1_555 1_555
H96_27 C141_27 1_555 1_555
H97_27 C142_27 1_555 1_555
H98_27 C143_27 1_555 1_555
C152_27 C97_27 1_555 1_555
C153_27 C98_27 1_555 1_555
C154_27 C99_27 1_555 1_555
H107_27 C152_27 1_555 1_555
H108_27 C153_27 1_555 1_555
H109_27 C154_27 1_555 1_555
H118_27 C152_27 1_555 1_555
H119_27 C153_27 1_555 1_555
H120_27 C154_27 1_555 1_555
C163_27 C152_27 1_555 1_555
C164_27 C153_27 1_555 1_555
C165_27 C154_27 1_555 1_555
H129_27 C163_27 1_555 1_555
H130_27 C164_27 1_555 1_555
H131_27 C165_27 1_555 1_555
H140_27 C163_27 1_555 1_555
H141_27 C164_27 1_555 1_555
H142_27 C165_27 1_555 1_555
H151_27 C163_27 1_555 1_555
H152_27 C164_27 1_555 1_555
H153_27 C165_27 1_555 1_555
O26_18 C20_27 1_555 1_555
C75_27 C86_27 1_555 1_555
C76_27 C87_27 1_555 1_555
C77_27 C88_27 1_555 1_555
C108_27 C119_27 1_555 1_555
C108_27 C120_27 1_555 1_555
C109_27 C119_27 1_555 1_555
C109_27 C121_27 1_555 1_555
C110_27 C120_27 1_555 1_555
C110_27 C121_27 1_555 1_555
O17_11 C21_28 1_555 1_555
O17_15 C22_28 1_555 1_555
C20_28 O17_22 1_555 1_555
C21_28 O32_11 1_555 1_555
C22_28 O32_15 1_555 1_555
C31_28 C20_28 1_555 1_555
C32_28 C21_28 1_555 1_555
C33_28 C22_28 1_555 1_555
C42_28 C31_28 1_555 1_555
C43_28 C32_28 1_555 1_555
C44_28 C33_28 1_555 1_555
H19_28 C42_28 1_555 1_555
H20_28 C43_28 1_555 1_555
H21_28 C44_28 1_555 1_555
C53_28 C42_28 1_555 1_555
C54_28 C43_28 1_555 1_555
C55_28 C44_28 1_555 1_555
C64_28 C53_28 1_555 1_555
C65_28 C55_28 1_555 1_555
C66_28 C54_28 1_555 1_555
C75_28 C64_28 1_555 1_555
C76_28 C65_28 1_555 1_555
C77_28 C66_28 1_555 1_555
H30_28 C75_28 1_555 1_555
H31_28 C76_28 1_555 1_555
H32_28 C77_28 1_555 1_555
C86_28 C31_28 1_555 1_555
C87_28 C33_28 1_555 1_555
C88_28 C32_28 1_555 1_555
H41_28 C86_28 1_555 1_555
H42_28 C87_28 1_555 1_555
H43_28 C88_28 1_555 1_555
C97_28 C53_28 1_555 1_555
C98_28 C54_28 1_555 1_555
C99_28 C55_28 1_555 1_555
C108_28 C97_28 1_555 1_555
C109_28 C98_28 1_555 1_555
C110_28 C99_28 1_555 1_555
C119_28 C64_28 1_555 1_555
C120_28 C65_28 1_555 1_555
C121_28 C66_28 1_555 1_555
C130_28 C97_28 1_555 1_555
C131_28 C98_28 1_555 1_555
C132_28 C99_28 1_555 1_555
H52_28 C130_28 1_555 1_555
H53_28 C131_28 1_555 1_555
H54_28 C132_28 1_555 1_555
H63_28 C130_28 1_555 1_555
H64_28 C131_28 1_555 1_555
H65_28 C132_28 1_555 1_555
C141_28 C130_28 1_555 1_555
C142_28 C131_28 1_555 1_555
C143_28 C132_28 1_555 1_555
H74_28 C141_28 1_555 1_555
H75_28 C142_28 1_555 1_555
H76_28 C143_28 1_555 1_555
H85_28 C141_28 1_555 1_555
H86_28 C142_28 1_555 1_555
H87_28 C143_28 1_555 1_555
H96_28 C141_28 1_555 1_555
H97_28 C142_28 1_555 1_555
H98_28 C143_28 1_555 1_555
C152_28 C97_28 1_555 1_555
C153_28 C98_28 1_555 1_555
C154_28 C99_28 1_555 1_555
H107_28 C152_28 1_555 1_555
H108_28 C153_28 1_555 1_555
H109_28 C154_28 1_555 1_555
H118_28 C152_28 1_555 1_555
H119_28 C153_28 1_555 1_555
H120_28 C154_28 1_555 1_555
C163_28 C152_28 1_555 1_555
C164_28 C153_28 1_555 1_555
C165_28 C154_28 1_555 1_555
H129_28 C163_28 1_555 1_555
H130_28 C164_28 1_555 1_555
H131_28 C165_28 1_555 1_555
H140_28 C163_28 1_555 1_555
H141_28 C164_28 1_555 1_555
H142_28 C165_28 1_555 1_555
H151_28 C163_28 1_555 1_555
H152_28 C164_28 1_555 1_555
H153_28 C165_28 1_555 1_555
O32_22 C20_28 1_555 1_555
C75_28 C86_28 1_555 1_555
C76_28 C87_28 1_555 1_555
C77_28 C88_28 1_555 1_555
C108_28 C119_28 1_555 1_555
C108_28 C120_28 1_555 1_555
C109_28 C119_28 1_555 1_555
C109_28 C121_28 1_555 1_555
C110_28 C120_28 1_555 1_555
C110_28 C121_28 1_555 1_555
O12_14 C21_29 1_555 1_555
O17_2 C22_29 1_555 1_555
C20_29 O14_21 1_555 1_555
C21_29 O26_14 1_555 1_555
C22_29 O32_2 1_555 1_555
C31_29 C20_29 1_555 1_555
C32_29 C21_29 1_555 1_555
C33_29 C22_29 1_555 1_555
C42_29 C31_29 1_555 1_555
C43_29 C32_29 1_555 1_555
C44_29 C33_29 1_555 1_555
H19_29 C42_29 1_555 1_555
H20_29 C43_29 1_555 1_555
H21_29 C44_29 1_555 1_555
C53_29 C42_29 1_555 1_555
C54_29 C43_29 1_555 1_555
C55_29 C44_29 1_555 1_555
C64_29 C53_29 1_555 1_555
C65_29 C55_29 1_555 1_555
C66_29 C54_29 1_555 1_555
C75_29 C64_29 1_555 1_555
C76_29 C65_29 1_555 1_555
C77_29 C66_29 1_555 1_555
H30_29 C75_29 1_555 1_555
H31_29 C76_29 1_555 1_555
H32_29 C77_29 1_555 1_555
C86_29 C31_29 1_555 1_555
C87_29 C33_29 1_555 1_555
C88_29 C32_29 1_555 1_555
H41_29 C86_29 1_555 1_555
H42_29 C87_29 1_555 1_555
H43_29 C88_29 1_555 1_555
C97_29 C53_29 1_555 1_555
C98_29 C54_29 1_555 1_555
C99_29 C55_29 1_555 1_555
C108_29 C97_29 1_555 1_555
C109_29 C98_29 1_555 1_555
C110_29 C99_29 1_555 1_555
C119_29 C64_29 1_555 1_555
C120_29 C65_29 1_555 1_555
C121_29 C66_29 1_555 1_555
C130_29 C97_29 1_555 1_555
C131_29 C98_29 1_555 1_555
C132_29 C99_29 1_555 1_555
H52_29 C130_29 1_555 1_555
H53_29 C131_29 1_555 1_555
H54_29 C132_29 1_555 1_555
H63_29 C130_29 1_555 1_555
H64_29 C131_29 1_555 1_555
H65_29 C132_29 1_555 1_555
C141_29 C130_29 1_555 1_555
C142_29 C131_29 1_555 1_555
C143_29 C132_29 1_555 1_555
H74_29 C141_29 1_555 1_555
H75_29 C142_29 1_555 1_555
H76_29 C143_29 1_555 1_555
H85_29 C141_29 1_555 1_555
H86_29 C142_29 1_555 1_555
H87_29 C143_29 1_555 1_555
H96_29 C141_29 1_555 1_555
H97_29 C142_29 1_555 1_555
H98_29 C143_29 1_555 1_555
C152_29 C97_29 1_555 1_555
C153_29 C98_29 1_555 1_555
C154_29 C99_29 1_555 1_555
H107_29 C152_29 1_555 1_555
H108_29 C153_29 1_555 1_555
H109_29 C154_29 1_555 1_555
H118_29 C152_29 1_555 1_555
H119_29 C153_29 1_555 1_555
H120_29 C154_29 1_555 1_555
C163_29 C152_29 1_555 1_555
C164_29 C153_29 1_555 1_555
C165_29 C154_29 1_555 1_555
H129_29 C163_29 1_555 1_555
H130_29 C164_29 1_555 1_555
H131_29 C165_29 1_555 1_555
H140_29 C163_29 1_555 1_555
H141_29 C164_29 1_555 1_555
H142_29 C165_29 1_555 1_555
H151_29 C163_29 1_555 1_555
H152_29 C164_29 1_555 1_555
H153_29 C165_29 1_555 1_555
O29_21 C20_29 1_555 1_555
C75_29 C86_29 1_555 1_555
C76_29 C87_29 1_555 1_555
C77_29 C88_29 1_555 1_555
C108_29 C119_29 1_555 1_555
C108_29 C120_29 1_555 1_555
C109_29 C119_29 1_555 1_555
C109_29 C121_29 1_555 1_555
C110_29 C120_29 1_555 1_555
C110_29 C121_29 1_555 1_555
O14_6 C21_30 1_555 1_555
O12_20 C22_30 1_555 1_555
C20_30 O12_12 1_555 1_555
C21_30 O29_6 1_555 1_555
C22_30 O26_20 1_555 1_555
C31_30 C20_30 1_555 1_555
C32_30 C21_30 1_555 1_555
C33_30 C22_30 1_555 1_555
C42_30 C31_30 1_555 1_555
C43_30 C32_30 1_555 1_555
C44_30 C33_30 1_555 1_555
H19_30 C42_30 1_555 1_555
H20_30 C43_30 1_555 1_555
H21_30 C44_30 1_555 1_555
C53_30 C42_30 1_555 1_555
C54_30 C43_30 1_555 1_555
C55_30 C44_30 1_555 1_555
C64_30 C53_30 1_555 1_555
C65_30 C55_30 1_555 1_555
C66_30 C54_30 1_555 1_555
C75_30 C64_30 1_555 1_555
C76_30 C65_30 1_555 1_555
C77_30 C66_30 1_555 1_555
H30_30 C75_30 1_555 1_555
H31_30 C76_30 1_555 1_555
H32_30 C77_30 1_555 1_555
C86_30 C31_30 1_555 1_555
C87_30 C33_30 1_555 1_555
C88_30 C32_30 1_555 1_555
H41_30 C86_30 1_555 1_555
H42_30 C87_30 1_555 1_555
H43_30 C88_30 1_555 1_555
C97_30 C53_30 1_555 1_555
C98_30 C54_30 1_555 1_555
C99_30 C55_30 1_555 1_555
C108_30 C97_30 1_555 1_555
C109_30 C98_30 1_555 1_555
C110_30 C99_30 1_555 1_555
C119_30 C64_30 1_555 1_555
C120_30 C65_30 1_555 1_555
C121_30 C66_30 1_555 1_555
C130_30 C97_30 1_555 1_555
C131_30 C98_30 1_555 1_555
C132_30 C99_30 1_555 1_555
H52_30 C130_30 1_555 1_555
H53_30 C131_30 1_555 1_555
H54_30 C132_30 1_555 1_555
H63_30 C130_30 1_555 1_555
H64_30 C131_30 1_555 1_555
H65_30 C132_30 1_555 1_555
C141_30 C130_30 1_555 1_555
C142_30 C131_30 1_555 1_555
C143_30 C132_30 1_555 1_555
H74_30 C141_30 1_555 1_555
H75_30 C142_30 1_555 1_555
H76_30 C143_30 1_555 1_555
H85_30 C141_30 1_555 1_555
H86_30 C142_30 1_555 1_555
H87_30 C143_30 1_555 1_555
H96_30 C141_30 1_555 1_555
H97_30 C142_30 1_555 1_555
H98_30 C143_30 1_555 1_555
C152_30 C97_30 1_555 1_555
C153_30 C98_30 1_555 1_555
C154_30 C99_30 1_555 1_555
H107_30 C152_30 1_555 1_555
H108_30 C153_30 1_555 1_555
H109_30 C154_30 1_555 1_555
H118_30 C152_30 1_555 1_555
H119_30 C153_30 1_555 1_555
H120_30 C154_30 1_555 1_555
C163_30 C152_30 1_555 1_555
C164_30 C153_30 1_555 1_555
C165_30 C154_30 1_555 1_555
H129_30 C163_30 1_555 1_555
H130_30 C164_30 1_555 1_555
H131_30 C165_30 1_555 1_555
H140_30 C163_30 1_555 1_555
H141_30 C164_30 1_555 1_555
H142_30 C165_30 1_555 1_555
H151_30 C163_30 1_555 1_555
H152_30 C164_30 1_555 1_555
H153_30 C165_30 1_555 1_555
O26_12 C20_30 1_555 1_555
C75_30 C86_30 1_555 1_555
C76_30 C87_30 1_555 1_555
C77_30 C88_30 1_555 1_555
C108_30 C119_30 1_555 1_555
C108_30 C120_30 1_555 1_555
C109_30 C119_30 1_555 1_555
C109_30 C121_30 1_555 1_555
C110_30 C120_30 1_555 1_555
C110_30 C121_30 1_555 1_555
O14_5 C21_31 1_555 1_555
O14_15 C22_31 1_555 1_555
C20_31 O12_11 1_555 1_555
C21_31 O29_5 1_555 1_555
C22_31 O29_15 1_555 1_555
C31_31 C20_31 1_555 1_555
C32_31 C21_31 1_555 1_555
C33_31 C22_31 1_555 1_555
C42_31 C31_31 1_555 1_555
C43_31 C32_31 1_555 1_555
C44_31 C33_31 1_555 1_555
H19_31 C42_31 1_555 1_555
H20_31 C43_31 1_555 1_555
H21_31 C44_31 1_555 1_555
C53_31 C42_31 1_555 1_555
C54_31 C43_31 1_555 1_555
C55_31 C44_31 1_555 1_555
C64_31 C53_31 1_555 1_555
C65_31 C55_31 1_555 1_555
C66_31 C54_31 1_555 1_555
C75_31 C64_31 1_555 1_555
C76_31 C65_31 1_555 1_555
C77_31 C66_31 1_555 1_555
H30_31 C75_31 1_555 1_555
H31_31 C76_31 1_555 1_555
H32_31 C77_31 1_555 1_555
C86_31 C31_31 1_555 1_555
C87_31 C33_31 1_555 1_555
C88_31 C32_31 1_555 1_555
H41_31 C86_31 1_555 1_555
H42_31 C87_31 1_555 1_555
H43_31 C88_31 1_555 1_555
C97_31 C53_31 1_555 1_555
C98_31 C54_31 1_555 1_555
C99_31 C55_31 1_555 1_555
C108_31 C97_31 1_555 1_555
C109_31 C98_31 1_555 1_555
C110_31 C99_31 1_555 1_555
C119_31 C64_31 1_555 1_555
C120_31 C65_31 1_555 1_555
C121_31 C66_31 1_555 1_555
C130_31 C97_31 1_555 1_555
C131_31 C98_31 1_555 1_555
C132_31 C99_31 1_555 1_555
H52_31 C130_31 1_555 1_555
H53_31 C131_31 1_555 1_555
H54_31 C132_31 1_555 1_555
H63_31 C130_31 1_555 1_555
H64_31 C131_31 1_555 1_555
H65_31 C132_31 1_555 1_555
C141_31 C130_31 1_555 1_555
C142_31 C131_31 1_555 1_555
C143_31 C132_31 1_555 1_555
H74_31 C141_31 1_555 1_555
H75_31 C142_31 1_555 1_555
H76_31 C143_31 1_555 1_555
H85_31 C141_31 1_555 1_555
H86_31 C142_31 1_555 1_555
H87_31 C143_31 1_555 1_555
H96_31 C141_31 1_555 1_555
H97_31 C142_31 1_555 1_555
H98_31 C143_31 1_555 1_555
C152_31 C97_31 1_555 1_555
C153_31 C98_31 1_555 1_555
C154_31 C99_31 1_555 1_555
H107_31 C152_31 1_555 1_555
H108_31 C153_31 1_555 1_555
H109_31 C154_31 1_555 1_555
H118_31 C152_31 1_555 1_555
H119_31 C153_31 1_555 1_555
H120_31 C154_31 1_555 1_555
C163_31 C152_31 1_555 1_555
C164_31 C153_31 1_555 1_555
C165_31 C154_31 1_555 1_555
H129_31 C163_31 1_555 1_555
H130_31 C164_31 1_555 1_555
H131_31 C165_31 1_555 1_555
H140_31 C163_31 1_555 1_555
H141_31 C164_31 1_555 1_555
H142_31 C165_31 1_555 1_555
H151_31 C163_31 1_555 1_555
H152_31 C164_31 1_555 1_555
H153_31 C165_31 1_555 1_555
O26_11 C20_31 1_555 1_555
C75_31 C86_31 1_555 1_555
C76_31 C87_31 1_555 1_555
C77_31 C88_31 1_555 1_555
C108_31 C119_31 1_555 1_555
C108_31 C120_31 1_555 1_555
C109_31 C119_31 1_555 1_555
C109_31 C121_31 1_555 1_555
C110_31 C120_31 1_555 1_555
C110_31 C121_31 1_555 1_555
O17_18 C21_32 1_555 1_555
O17_7 C22_32 1_555 1_555
C20_32 O17_19 1_555 1_555
C21_32 O32_18 1_555 1_555
C22_32 O32_7 1_555 1_555
C31_32 C20_32 1_555 1_555
C32_32 C21_32 1_555 1_555
C33_32 C22_32 1_555 1_555
C42_32 C31_32 1_555 1_555
C43_32 C32_32 1_555 1_555
C44_32 C33_32 1_555 1_555
H19_32 C42_32 1_555 1_555
H20_32 C43_32 1_555 1_555
H21_32 C44_32 1_555 1_555
C53_32 C42_32 1_555 1_555
C54_32 C43_32 1_555 1_555
C55_32 C44_32 1_555 1_555
C64_32 C53_32 1_555 1_555
C65_32 C55_32 1_555 1_555
C66_32 C54_32 1_555 1_555
C75_32 C64_32 1_555 1_555
C76_32 C65_32 1_555 1_555
C77_32 C66_32 1_555 1_555
H30_32 C75_32 1_555 1_555
H31_32 C76_32 1_555 1_555
H32_32 C77_32 1_555 1_555
C86_32 C31_32 1_555 1_555
C87_32 C33_32 1_555 1_555
C88_32 C32_32 1_555 1_555
H41_32 C86_32 1_555 1_555
H42_32 C87_32 1_555 1_555
H43_32 C88_32 1_555 1_555
C97_32 C53_32 1_555 1_555
C98_32 C54_32 1_555 1_555
C99_32 C55_32 1_555 1_555
C108_32 C97_32 1_555 1_555
C109_32 C98_32 1_555 1_555
C110_32 C99_32 1_555 1_555
C119_32 C64_32 1_555 1_555
C120_32 C65_32 1_555 1_555
C121_32 C66_32 1_555 1_555
C130_32 C97_32 1_555 1_555
C131_32 C98_32 1_555 1_555
C132_32 C99_32 1_555 1_555
H52_32 C130_32 1_555 1_555
H53_32 C131_32 1_555 1_555
H54_32 C132_32 1_555 1_555
H63_32 C130_32 1_555 1_555
H64_32 C131_32 1_555 1_555
H65_32 C132_32 1_555 1_555
C141_32 C130_32 1_555 1_555
C142_32 C131_32 1_555 1_555
C143_32 C132_32 1_555 1_555
H74_32 C141_32 1_555 1_555
H75_32 C142_32 1_555 1_555
H76_32 C143_32 1_555 1_555
H85_32 C141_32 1_555 1_555
H86_32 C142_32 1_555 1_555
H87_32 C143_32 1_555 1_555
H96_32 C141_32 1_555 1_555
H97_32 C142_32 1_555 1_555
H98_32 C143_32 1_555 1_555
C152_32 C97_32 1_555 1_555
C153_32 C98_32 1_555 1_555
C154_32 C99_32 1_555 1_555
H107_32 C152_32 1_555 1_555
H108_32 C153_32 1_555 1_555
H109_32 C154_32 1_555 1_555
H118_32 C152_32 1_555 1_555
H119_32 C153_32 1_555 1_555
H120_32 C154_32 1_555 1_555
C163_32 C152_32 1_555 1_555
C164_32 C153_32 1_555 1_555
C165_32 C154_32 1_555 1_555
H129_32 C163_32 1_555 1_555
H130_32 C164_32 1_555 1_555
H131_32 C165_32 1_555 1_555
H140_32 C163_32 1_555 1_555
H141_32 C164_32 1_555 1_555
H142_32 C165_32 1_555 1_555
H151_32 C163_32 1_555 1_555
H152_32 C164_32 1_555 1_555
H153_32 C165_32 1_555 1_555
O32_19 C20_32 1_555 1_555
C75_32 C86_32 1_555 1_555
C76_32 C87_32 1_555 1_555
C77_32 C88_32 1_555 1_555
C108_32 C119_32 1_555 1_555
C108_32 C120_32 1_555 1_555
C109_32 C119_32 1_555 1_555
C109_32 C121_32 1_555 1_555
C110_32 C120_32 1_555 1_555
C110_32 C121_32 1_555 1_555

#END
