
###############################################################################
#
# This file contains modified crystal structure data generated from the
# MOF subset of the Cambridge Structural Database (CSD) v543 
# hosted by the Cambridge Crystallographic Data Centre (CCDC).
#
# This work is licensed under the Creative Commons
# Attribution-NonCommercial-ShareAlike 4.0 International License.
# To view a copy of this license, visit
# http://creativecommons.org/licenses/by-nc-sa/4.0/
# or send a letter to
# Creative Commons, PO Box 1866, Mountain View, CA 94042, USA.
#
# CIF created using the CSD Python API on 29 September 2022
# The structure has been converted into the P1 space group
# The structure has a 3D framework
# The original CSD entry BOXFIE is in the cubic crystal system
# The framework has been calculated to contain at least 10.0% void space
# The void calculation uses a probe of radius 1.32A, grid spacing 0.4
# The framework is charged, counterions have been retained in the structure
#
###############################################################################

data_BOXFIE
_chemical_formula_moiety         '(C2688 H2496 O420 Pb144 49-)n'
_symmetry_cell_setting           triclinic
_symmetry_space_group_name_H-M   'P 1'
_symmetry_Int_Tables_number      1
_space_group_name_Hall           'P 1'
loop_
_symmetry_equiv_pos_site_id
_symmetry_equiv_pos_as_xyz
1 x,y,z
_cell_length_a                   48.793(6)
_cell_length_b                   48.793(6)
_cell_length_c                   48.793(6)
_cell_angle_alpha                90
_cell_angle_beta                 90
_cell_angle_gamma                90
_cell_volume                     116164
loop_
_atom_site_label
_atom_site_type_symbol
_atom_site_fract_x
_atom_site_fract_y
_atom_site_fract_z
Pb1 Pb 0.222444(14) 0.0000 0.193721(17)
O3 O 0.2500 0.0000 0.2500
Pb2 Pb 0.306279(17) 0.0000 0.222444(14)
Pb3 Pb 0.193721(17) 0.0000 0.277556(14)
Pb4 Pb 0.277556(14) 0.0000 0.306279(17)
Pb12 Pb 0.193721(17) 0.277556(14) 0.5000
Pb13 Pb 0.222444(14) 0.193721(17) 0.5000
Pb14 Pb -0.0000 0.193721(17) 0.222444(14)
Pb15 Pb 0.0000 0.222444(14) 0.306279(17)
Pb16 Pb -0.0000 0.277556(14) 0.193721(17)
Pb17 Pb 0.277556(14) 0.193721(17) 0.0000
Pb18 Pb 0.193721(17) 0.222444(14) 0.0000
O5 O 0.26176(15) 0.03048(13) 0.19861(16)
O6 O 0.19861(16) 0.03048(13) 0.23824(15)
O8 O 0.30139(16) 0.03048(13) 0.26176(15)
O9 O 0.23824(15) 0.03048(13) 0.30139(16)
O15 O 0.19861(16) 0.23824(15) 0.46952(13)
O16 O 0.03048(13) 0.19861(16) 0.26176(15)
O17 O 0.03048(13) 0.23824(15) 0.19861(16)
O18 O 0.23824(15) 0.19861(16) 0.03048(13)
O19 O 0.23869(16) 0.03390(14) 0.16067(17)
O21 O 0.33933(17) 0.03390(14) 0.23869(16)
O23 O 0.16067(17) 0.03390(14) 0.26131(16)
O24 O 0.26131(16) 0.03390(14) 0.33933(17)
O30 O 0.16067(17) 0.26131(16) 0.46610(14)
O31 O 0.03390(14) 0.16067(17) 0.23869(16)
O32 O 0.03390(14) 0.26131(16) 0.16067(17)
O33 O 0.26131(16) 0.16067(17) 0.03390(14)
C16 C 0.2423(2) 0.04140(18) 0.3242(3)
C17 C 0.1758(3) 0.04140(18) 0.2423(2)
C22 C 0.1758(3) 0.2423(2) 0.45860(18)
C23 C 0.04140(18) 0.1758(3) 0.2577(2)
C24 C 0.04140(18) 0.2423(2) 0.1758(3)
C25 C 0.2423(2) 0.1758(3) 0.04140(18)
C27 C 0.22410(18) 0.06436(17) 0.3339(2)
C28 C 0.1661(2) 0.06436(17) 0.22410(18)
C33 C 0.1661(2) 0.22410(18) 0.43564(17)
C34 C 0.06436(17) 0.1661(2) 0.27590(18)
C35 C 0.06436(17) 0.22410(18) 0.1661(2)
C36 C 0.22410(18) 0.1661(2) 0.06436(17)
C38 C 0.2023(2) 0.07228(18) 0.3175(2)
C39 C 0.1825(2) 0.07228(18) 0.2023(2)
C44 C 0.1825(2) 0.2023(2) 0.42772(18)
C45 C 0.07228(18) 0.1825(2) 0.2977(2)
C46 C 0.07228(18) 0.2023(2) 0.1825(2)
C47 C 0.2023(2) 0.1825(2) 0.07228(18)
H15 H 0.1987 0.0633 0.3011
H16 H 0.1989 0.0633 0.1987
H21 H 0.1989 0.1987 0.4367
H22 H 0.0633 0.1989 0.3013
H23 H 0.0633 0.1987 0.1989
H24 H 0.1987 0.1989 0.0633
C51 C 0.18565(17) 0.09435(18) 0.3262(2)
C52 C 0.1738(2) 0.09435(18) 0.18565(17)
C55 C 0.1738(2) 0.18565(17) 0.40565(18)
C56 C 0.09435(18) 0.1738(2) 0.31435(17)
C57 C 0.09435(18) 0.18565(17) 0.1738(2)
C58 C 0.18565(17) 0.1738(2) 0.09435(18)
C62 C 0.19131(17) 0.10817(17) 0.35046(19)
C63 C 0.14954(19) 0.10817(17) 0.19131(17)
C65 C 0.10817(17) 0.14954(19) 0.30869(17)
C66 C 0.19131(17) 0.14954(19) 0.10817(17)
C68 C 0.14954(19) 0.19131(17) 0.39183(17)
C69 C 0.10817(17) 0.19131(17) 0.14954(19)
C73 C 0.21330(19) 0.09926(19) 0.3662(2)
C74 C 0.1338(2) 0.09926(19) 0.21330(19)
C76 C 0.09926(19) 0.1338(2) 0.28670(19)
C77 C 0.21330(19) 0.1338(2) 0.09926(19)
C79 C 0.1338(2) 0.21330(19) 0.40074(19)
C80 C 0.09926(19) 0.21330(19) 0.1338(2)
H28 H 0.2175 0.1083 0.3825
H29 H 0.1175 0.1083 0.2175
H31 H 0.1083 0.1175 0.2825
H32 H 0.2175 0.1175 0.1083
H34 H 0.1175 0.2175 0.3917
H35 H 0.1083 0.2175 0.1175
C82 C 0.22888(18) 0.07743(19) 0.3583(2)
C83 C 0.1417(2) 0.07743(19) 0.22888(18)
C87 C 0.07743(19) 0.1417(2) 0.27112(18)
C88 C 0.22888(18) 0.1417(2) 0.07743(19)
C90 C 0.1417(2) 0.22888(18) 0.42257(19)
C91 C 0.07743(19) 0.22888(18) 0.1417(2)
H37 H 0.2429 0.0713 0.3696
H38 H 0.1304 0.0713 0.2429
H42 H 0.0713 0.1304 0.2571
H43 H 0.2429 0.1304 0.0713
H45 H 0.1304 0.2429 0.4287
H46 H 0.0713 0.2429 0.1304
C95 C 0.1600(2) 0.1047(2) 0.3128(2)
C96 C 0.1872(2) 0.1047(2) 0.1600(2)
C98 C 0.1872(2) 0.1600(2) 0.3953(2)
C99 C 0.1047(2) 0.1600(2) 0.1872(2)
C101 C 0.1047(2) 0.1872(2) 0.3400(2)
C102 C 0.1600(2) 0.1872(2) 0.1047(2)
C106 C 0.15223(18) 0.12799(17) 0.33156(18)
C107 C 0.16844(18) 0.12799(17) 0.15223(18)
C109 C 0.16844(18) 0.15223(18) 0.37201(17)
C110 C 0.12799(17) 0.15223(18) 0.16844(18)
C112 C 0.12799(17) 0.16844(18) 0.34777(18)
C113 C 0.15223(18) 0.16844(18) 0.12799(17)
C117 C 0.17095(17) 0.13066(17) 0.35343(17)
C118 C 0.14657(17) 0.13066(17) 0.17095(17)
C120 C 0.13066(17) 0.14657(17) 0.32905(17)
C121 C 0.17095(17) 0.14657(17) 0.13066(17)
C123 C 0.14657(17) 0.17095(17) 0.36934(17)
C124 C 0.13066(17) 0.17095(17) 0.14657(17)
C128 C 0.1382(3) 0.0806(3) 0.3133(3)
C129 C 0.1867(3) 0.0806(3) 0.1382(3)
C131 C 0.1867(3) 0.1382(3) 0.4194(3)
C132 C 0.0806(3) 0.1382(3) 0.1867(3)
C134 C 0.0806(3) 0.1867(3) 0.3618(3)
C135 C 0.1382(3) 0.1867(3) 0.0806(3)
H50 H 0.1452 0.0653 0.3027
H51 H 0.1973 0.0653 0.1452
H53 H 0.1973 0.1452 0.4347
H54 H 0.0653 0.1452 0.1973
H56 H 0.0653 0.1973 0.3548
H57 H 0.1452 0.1973 0.0653
H61 H 0.1215 0.0869 0.3045
H62 H 0.1955 0.0869 0.1215
H64 H 0.1955 0.1215 0.4131
H65 H 0.0869 0.1215 0.1955
H67 H 0.0869 0.1955 0.3785
H68 H 0.1215 0.1955 0.0869
C139 C 0.1309(3) 0.0701(3) 0.3424(4)
C140 C 0.1576(4) 0.0701(3) 0.1309(3)
C142 C 0.1576(4) 0.1309(3) 0.4299(3)
C143 C 0.0701(3) 0.1309(3) 0.1576(4)
C145 C 0.0701(3) 0.1576(4) 0.3691(3)
C146 C 0.1309(3) 0.1576(4) 0.0701(3)
H72 H 0.1266 0.0854 0.3540
H73 H 0.1460 0.0854 0.1266
H75 H 0.1460 0.1266 0.4146
H76 H 0.0854 0.1266 0.1460
H78 H 0.0854 0.1460 0.3734
H79 H 0.1266 0.1460 0.0854
H83 H 0.1153 0.0581 0.3413
H84 H 0.1587 0.0581 0.1153
H86 H 0.1587 0.1153 0.4419
H87 H 0.0581 0.1153 0.1587
H89 H 0.0581 0.1587 0.3847
H90 H 0.1153 0.1587 0.0581
H94 H 0.1462 0.0603 0.3499
H95 H 0.1501 0.0603 0.1462
H97 H 0.1501 0.1462 0.4397
H98 H 0.0603 0.1462 0.1501
H100 H 0.0603 0.1501 0.3538
H101 H 0.1462 0.1501 0.0603
C150 C 0.1675(3) 0.1151(3) 0.2833(3)
C151 C 0.2167(3) 0.1151(3) 0.1675(3)
C153 C 0.2167(3) 0.1675(3) 0.3849(3)
C154 C 0.1151(3) 0.1675(3) 0.2167(3)
C156 C 0.1151(3) 0.2167(3) 0.3325(3)
C157 C 0.1675(3) 0.2167(3) 0.1151(3)
H105 H 0.1508 0.1214 0.2744
H106 H 0.2256 0.1214 0.1508
H108 H 0.2256 0.1508 0.3786
H109 H 0.1214 0.1508 0.2256
H111 H 0.1214 0.2256 0.3492
H112 H 0.1508 0.2256 0.1214
H116 H 0.1744 0.0998 0.2727
H117 H 0.2273 0.0998 0.1744
H119 H 0.2273 0.1744 0.4002
H120 H 0.0998 0.1744 0.2273
H122 H 0.0998 0.2273 0.3256
H123 H 0.1744 0.2273 0.0998
C161 C 0.1885(3) 0.1382(3) 0.2820(3)
C162 C 0.2180(3) 0.1382(3) 0.1885(3)
C164 C 0.2180(3) 0.1885(3) 0.3618(3)
C165 C 0.1382(3) 0.1885(3) 0.2180(3)
C167 C 0.1382(3) 0.2180(3) 0.3115(3)
C168 C 0.1885(3) 0.2180(3) 0.1382(3)
H127 H 0.2054 0.1321 0.2899
H128 H 0.2101 0.1321 0.2054
H130 H 0.2101 0.2054 0.3679
H131 H 0.1321 0.2054 0.2101
H133 H 0.1321 0.2101 0.2946
H134 H 0.2054 0.2101 0.1321
H138 H 0.1915 0.1433 0.2632
H139 H 0.2368 0.1433 0.1915
H141 H 0.2368 0.1915 0.3567
H142 H 0.1433 0.1915 0.2368
H144 H 0.1433 0.2368 0.3085
H145 H 0.1915 0.2368 0.1433
H149 H 0.1818 0.1537 0.2920
H150 H 0.2080 0.1537 0.1818
H152 H 0.2080 0.1818 0.3463
H153 H 0.1537 0.1818 0.2080
H155 H 0.1537 0.2080 0.3182
H156 H 0.1818 0.2080 0.1537
Pb17_2 Pb 0.277556(14) 0.193721(17) 1.0000
Pb18_2 Pb 0.193721(17) 0.222444(14) 1.0000
Pb1_2 Pb 0.222444(14) 1.0000 0.193721(17)
O1 O 0.26176(15) 0.96952(13) 0.19861(16)
O2 O 0.23869(16) 0.96610(14) 0.16067(17)
O3_2 O 0.2500 1.0000 0.2500
C1 C 0.2577(2) 0.95860(18) 0.1758(3)
C2 C 0.27590(18) 0.93564(17) 0.1661(2)
C3 C 0.2977(2) 0.92772(18) 0.1825(2)
H1 H 0.3013 0.9367 0.1989
C4 C 0.31435(17) 0.90565(18) 0.1738(2)
C5 C 0.30869(17) 0.89183(17) 0.14954(19)
C6 C 0.28670(19) 0.90074(19) 0.1338(2)
H2 H 0.2825 0.8917 0.1175
C7 C 0.27112(18) 0.92257(19) 0.1417(2)
H3 H 0.2571 0.9287 0.1304
C8 C 0.3400(2) 0.8953(2) 0.1872(2)
C9 C 0.34777(18) 0.87201(17) 0.16844(18)
C10 C 0.32905(17) 0.86934(17) 0.14657(17)
C11 C 0.3618(3) 0.9194(3) 0.1867(3)
H4 H 0.3548 0.9347 0.1973
H5 H 0.3785 0.9131 0.1955
C12 C 0.3691(3) 0.9299(3) 0.1576(4)
H6 H 0.3734 0.9146 0.1460
H7 H 0.3847 0.9419 0.1587
H8 H 0.3538 0.9397 0.1501
C13 C 0.3325(3) 0.8849(3) 0.2167(3)
H9 H 0.3492 0.8786 0.2256
H10 H 0.3256 0.9002 0.2273
C14 C 0.3115(3) 0.8618(3) 0.2180(3)
H11 H 0.2946 0.8679 0.2101
H12 H 0.3085 0.8567 0.2368
H13 H 0.3182 0.8463 0.2080
Pb2_2 Pb 0.306279(17) 1.0000 0.222444(14)
Pb3_2 Pb 0.193721(17) 1.0000 0.277556(14)
Pb4_2 Pb 0.277556(14) 1.0000 0.306279(17)
Pb5 Pb 0.5000 0.806279(17) 0.277556(14)
Pb6 Pb 0.5000 0.777556(14) 0.193721(17)
Pb7 Pb 0.306279(17) 0.722444(14) 0.0000
Pb8 Pb 0.277556(14) 0.806279(17) 0.0000
Pb9 Pb 0.5000 0.722444(14) 0.306279(17)
Pb10 Pb 0.222444(14) 0.806279(17) 0.5000
Pb11 Pb 0.306279(17) 0.777556(14) 0.5000
O4 O 0.19861(16) 0.96952(13) 0.23824(15)
O7 O 0.30139(16) 0.96952(13) 0.26176(15)
O10 O 0.23824(15) 0.96952(13) 0.30139(16)
O11 O 0.46952(13) 0.80139(16) 0.23824(15)
O12 O 0.30139(16) 0.76176(15) 0.03048(13)
O13 O 0.46952(13) 0.76176(15) 0.30139(16)
O14 O 0.26176(15) 0.80139(16) 0.46952(13)
O20 O 0.33933(17) 0.96610(14) 0.23869(16)
O22 O 0.16067(17) 0.96610(14) 0.26131(16)
O25 O 0.26131(16) 0.96610(14) 0.33933(17)
O26 O 0.46610(14) 0.83933(17) 0.26131(16)
O27 O 0.33933(17) 0.73869(16) 0.03390(14)
O28 O 0.46610(14) 0.73869(16) 0.33933(17)
O29 O 0.23869(16) 0.83933(17) 0.46610(14)
C15 C 0.3242(3) 0.95860(18) 0.2577(2)
C18 C 0.45860(18) 0.8242(3) 0.2423(2)
C19 C 0.3242(3) 0.7577(2) 0.04140(18)
C20 C 0.45860(18) 0.7577(2) 0.3242(3)
C21 C 0.2577(2) 0.8242(3) 0.45860(18)
C26 C 0.3339(2) 0.93564(17) 0.27590(18)
C29 C 0.43564(17) 0.8339(2) 0.22410(18)
C30 C 0.3339(2) 0.77590(18) 0.06436(17)
C31 C 0.43564(17) 0.77590(18) 0.3339(2)
C32 C 0.27590(18) 0.8339(2) 0.43564(17)
C37 C 0.3175(2) 0.92772(18) 0.2977(2)
C40 C 0.42772(18) 0.8175(2) 0.2023(2)
C41 C 0.3175(2) 0.7977(2) 0.07228(18)
C42 C 0.42772(18) 0.7977(2) 0.3175(2)
C43 C 0.2977(2) 0.8175(2) 0.42772(18)
H14 H 0.3011 0.9367 0.3013
H17 H 0.4367 0.8011 0.1987
H18 H 0.3011 0.8013 0.0633
H19 H 0.4367 0.8013 0.3011
H20 H 0.3013 0.8011 0.4367
C48 C 0.40565(18) 0.8262(2) 0.18565(17)
C49 C 0.3262(2) 0.81435(17) 0.09435(18)
C50 C 0.3262(2) 0.90565(18) 0.31435(17)
C53 C 0.40565(18) 0.81435(17) 0.3262(2)
C54 C 0.31435(17) 0.8262(2) 0.40565(18)
C59 C 0.39183(17) 0.85046(19) 0.19131(17)
C60 C 0.35046(19) 0.80869(17) 0.10817(17)
C61 C 0.35046(19) 0.89183(17) 0.30869(17)
C64 C 0.30869(17) 0.85046(19) 0.39183(17)
C67 C 0.39183(17) 0.80869(17) 0.35046(19)
C70 C 0.40074(19) 0.8662(2) 0.21330(19)
C71 C 0.3662(2) 0.78670(19) 0.09926(19)
C72 C 0.3662(2) 0.90074(19) 0.28670(19)
C75 C 0.28670(19) 0.8662(2) 0.40074(19)
C78 C 0.40074(19) 0.78670(19) 0.3662(2)
H25 H 0.3917 0.8825 0.2175
H26 H 0.3825 0.7825 0.1083
H27 H 0.3825 0.8917 0.2825
H30 H 0.2825 0.8825 0.3917
H33 H 0.3917 0.7825 0.3825
C81 C 0.3583(2) 0.92257(19) 0.27112(18)
C84 C 0.42257(19) 0.8583(2) 0.22888(18)
C85 C 0.3583(2) 0.77112(18) 0.07743(19)
C86 C 0.27112(18) 0.8583(2) 0.42257(19)
C89 C 0.42257(19) 0.77112(18) 0.3583(2)
H36 H 0.3696 0.9287 0.2571
H39 H 0.4287 0.8696 0.2429
H40 H 0.3696 0.7571 0.0713
H41 H 0.2571 0.8696 0.4287
H44 H 0.4287 0.7571 0.3696
C92 C 0.3128(2) 0.8400(2) 0.1047(2)
C93 C 0.3953(2) 0.8128(2) 0.1600(2)
C94 C 0.3128(2) 0.8953(2) 0.3400(2)
C97 C 0.3953(2) 0.8400(2) 0.3128(2)
C100 C 0.3400(2) 0.8128(2) 0.3953(2)
C103 C 0.33156(18) 0.84777(18) 0.12799(17)
C104 C 0.37201(17) 0.83156(18) 0.15223(18)
C105 C 0.33156(18) 0.87201(17) 0.34777(18)
C108 C 0.37201(17) 0.84777(18) 0.33156(18)
C111 C 0.34777(18) 0.83156(18) 0.37201(17)
C114 C 0.36934(17) 0.85343(17) 0.17095(17)
C115 C 0.35343(17) 0.82905(17) 0.13066(17)
C116 C 0.35343(17) 0.86934(17) 0.32905(17)
C119 C 0.32905(17) 0.85343(17) 0.36934(17)
C122 C 0.36934(17) 0.82905(17) 0.35343(17)
C125 C 0.3133(3) 0.8618(3) 0.0806(3)
C126 C 0.4194(3) 0.8133(3) 0.1382(3)
C127 C 0.3133(3) 0.9194(3) 0.3618(3)
C130 C 0.4194(3) 0.8618(3) 0.3133(3)
C133 C 0.3618(3) 0.8133(3) 0.4194(3)
H47 H 0.3027 0.8548 0.0653
H48 H 0.4347 0.8027 0.1452
H49 H 0.3027 0.9347 0.3548
H52 H 0.4347 0.8548 0.3027
H55 H 0.3548 0.8027 0.4347
H58 H 0.3045 0.8785 0.0869
H59 H 0.4131 0.8045 0.1215
H60 H 0.3045 0.9131 0.3785
H63 H 0.4131 0.8785 0.3045
H66 H 0.3785 0.8045 0.4131
C136 C 0.3424(4) 0.8691(3) 0.0701(3)
C137 C 0.4299(3) 0.8424(4) 0.1309(3)
C138 C 0.3424(4) 0.9299(3) 0.3691(3)
C141 C 0.4299(3) 0.8691(3) 0.3424(4)
C144 C 0.3691(3) 0.8424(4) 0.4299(3)
H69 H 0.3540 0.8734 0.0854
H70 H 0.4146 0.8540 0.1266
H71 H 0.3540 0.9146 0.3734
H74 H 0.4146 0.8734 0.3540
H77 H 0.3734 0.8540 0.4146
H80 H 0.3413 0.8847 0.0581
H81 H 0.4419 0.8413 0.1153
H82 H 0.3413 0.9419 0.3847
H85 H 0.4419 0.8847 0.3413
H88 H 0.3847 0.8413 0.4419
H91 H 0.3499 0.8538 0.0603
H92 H 0.4397 0.8499 0.1462
H93 H 0.3499 0.9397 0.3538
H96 H 0.4397 0.8538 0.3499
H99 H 0.3538 0.8499 0.4397
C147 C 0.2833(3) 0.8325(3) 0.1151(3)
C148 C 0.3849(3) 0.7833(3) 0.1675(3)
C149 C 0.2833(3) 0.8849(3) 0.3325(3)
C152 C 0.3849(3) 0.8325(3) 0.2833(3)
C155 C 0.3325(3) 0.7833(3) 0.3849(3)
H102 H 0.2744 0.8492 0.1214
H103 H 0.3786 0.7744 0.1508
H104 H 0.2744 0.8786 0.3492
H107 H 0.3786 0.8492 0.2744
H110 H 0.3492 0.7744 0.3786
H113 H 0.2727 0.8256 0.0998
H114 H 0.4002 0.7727 0.1744
H115 H 0.2727 0.9002 0.3256
H118 H 0.4002 0.8256 0.2727
H121 H 0.3256 0.7727 0.4002
C158 C 0.2820(3) 0.8115(3) 0.1382(3)
C159 C 0.3618(3) 0.7820(3) 0.1885(3)
C160 C 0.2820(3) 0.8618(3) 0.3115(3)
C163 C 0.3618(3) 0.8115(3) 0.2820(3)
C166 C 0.3115(3) 0.7820(3) 0.3618(3)
H124 H 0.2899 0.7946 0.1321
H125 H 0.3679 0.7899 0.2054
H126 H 0.2899 0.8679 0.2946
H129 H 0.3679 0.7946 0.2899
H132 H 0.2946 0.7899 0.3679
H135 H 0.2632 0.8085 0.1433
H136 H 0.3567 0.7632 0.1915
H137 H 0.2632 0.8567 0.3085
H140 H 0.3567 0.8085 0.2632
H143 H 0.3085 0.7632 0.3567
H146 H 0.2920 0.8182 0.1537
H147 H 0.3463 0.7920 0.1818
H148 H 0.2920 0.8463 0.3182
H151 H 0.3463 0.8182 0.2920
H154 H 0.3182 0.7920 0.3463
Pb7_2 Pb 0.306279(17) 0.722444(14) 1.0000
Pb8_2 Pb 0.277556(14) 0.806279(17) 1.0000
Pb14_2 Pb 1.0000 0.193721(17) 0.222444(14)
Pb15_2 Pb 1.0000 0.222444(14) 0.306279(17)
Pb16_2 Pb 1.0000 0.277556(14) 0.193721(17)
O3_3 O 0.2500 0.2500 0.0000
Pb2_3 Pb 0.222444(14) 0.306279(17) 0.0000
Pb4_3 Pb 0.306279(17) 0.277556(14) 0.0000
Pb12_2 Pb 0.5000 0.193721(17) 0.277556(14)
Pb13_2 Pb 0.5000 0.222444(14) 0.193721(17)
O5_2 O 0.19861(16) 0.26176(15) 0.03048(13)
O8_2 O 0.26176(15) 0.30139(16) 0.03048(13)
O9_2 O 0.30139(16) 0.23824(15) 0.03048(13)
O15_2 O 0.46952(13) 0.19861(16) 0.23824(15)
O19_2 O 0.16067(17) 0.23869(16) 0.03390(14)
O21_2 O 0.23869(16) 0.33933(17) 0.03390(14)
O24_2 O 0.33933(17) 0.26131(16) 0.03390(14)
O30_2 O 0.46610(14) 0.16067(17) 0.26131(16)
C16_2 C 0.3242(3) 0.2423(2) 0.04140(18)
C22_2 C 0.45860(18) 0.1758(3) 0.2423(2)
C23_2 C 0.2577(2) 0.04140(18) 0.1758(3)
C27_2 C 0.3339(2) 0.22410(18) 0.06436(17)
C33_2 C 0.43564(17) 0.1661(2) 0.22410(18)
C34_2 C 0.27590(18) 0.06436(17) 0.1661(2)
C38_2 C 0.3175(2) 0.2023(2) 0.07228(18)
C44_2 C 0.42772(18) 0.1825(2) 0.2023(2)
C45_2 C 0.2977(2) 0.07228(18) 0.1825(2)
H15_2 H 0.3011 0.1987 0.0633
H21_2 H 0.4367 0.1989 0.1987
H22_2 H 0.3013 0.0633 0.1989
C51_2 C 0.3262(2) 0.18565(17) 0.09435(18)
C55_2 C 0.40565(18) 0.1738(2) 0.18565(17)
C56_2 C 0.31435(17) 0.09435(18) 0.1738(2)
C62_2 C 0.35046(19) 0.19131(17) 0.10817(17)
C65_2 C 0.30869(17) 0.10817(17) 0.14954(19)
C68_2 C 0.39183(17) 0.14954(19) 0.19131(17)
C73_2 C 0.3662(2) 0.21330(19) 0.09926(19)
C76_2 C 0.28670(19) 0.09926(19) 0.1338(2)
C79_2 C 0.40074(19) 0.1338(2) 0.21330(19)
H28_2 H 0.3825 0.2175 0.1083
H31_2 H 0.2825 0.1083 0.1175
H34_2 H 0.3917 0.1175 0.2175
C82_2 C 0.3583(2) 0.22888(18) 0.07743(19)
C87_2 C 0.27112(18) 0.07743(19) 0.1417(2)
C90_2 C 0.42257(19) 0.1417(2) 0.22888(18)
H37_2 H 0.3696 0.2429 0.0713
H42_2 H 0.2571 0.0713 0.1304
H45_2 H 0.4287 0.1304 0.2429
C95_2 C 0.3128(2) 0.1600(2) 0.1047(2)
C98_2 C 0.3953(2) 0.1872(2) 0.1600(2)
C101_2 C 0.3400(2) 0.1047(2) 0.1872(2)
C106_2 C 0.33156(18) 0.15223(18) 0.12799(17)
C109_2 C 0.37201(17) 0.16844(18) 0.15223(18)
C112_2 C 0.34777(18) 0.12799(17) 0.16844(18)
C117_2 C 0.35343(17) 0.17095(17) 0.13066(17)
C120_2 C 0.32905(17) 0.13066(17) 0.14657(17)
C123_2 C 0.36934(17) 0.14657(17) 0.17095(17)
C128_2 C 0.3133(3) 0.1382(3) 0.0806(3)
C131_2 C 0.4194(3) 0.1867(3) 0.1382(3)
C134_2 C 0.3618(3) 0.0806(3) 0.1867(3)
H50_2 H 0.3027 0.1452 0.0653
H53_2 H 0.4347 0.1973 0.1452
H56_2 H 0.3548 0.0653 0.1973
H61_2 H 0.3045 0.1215 0.0869
H64_2 H 0.4131 0.1955 0.1215
H67_2 H 0.3785 0.0869 0.1955
C139_2 C 0.3424(4) 0.1309(3) 0.0701(3)
C142_2 C 0.4299(3) 0.1576(4) 0.1309(3)
C145_2 C 0.3691(3) 0.0701(3) 0.1576(4)
H72_2 H 0.3540 0.1266 0.0854
H75_2 H 0.4146 0.1460 0.1266
H78_2 H 0.3734 0.0854 0.1460
H83_2 H 0.3413 0.1153 0.0581
H86_2 H 0.4419 0.1587 0.1153
H89_2 H 0.3847 0.0581 0.1587
H94_2 H 0.3499 0.1462 0.0603
H97_2 H 0.4397 0.1501 0.1462
H100_2 H 0.3538 0.0603 0.1501
C150_2 C 0.2833(3) 0.1675(3) 0.1151(3)
C153_2 C 0.3849(3) 0.2167(3) 0.1675(3)
C156_2 C 0.3325(3) 0.1151(3) 0.2167(3)
H105_2 H 0.2744 0.1508 0.1214
H108_2 H 0.3786 0.2256 0.1508
H111_2 H 0.3492 0.1214 0.2256
H116_2 H 0.2727 0.1744 0.0998
H119_2 H 0.4002 0.2273 0.1744
H122_2 H 0.3256 0.0998 0.2273
C161_2 C 0.2820(3) 0.1885(3) 0.1382(3)
C164_2 C 0.3618(3) 0.2180(3) 0.1885(3)
C167_2 C 0.3115(3) 0.1382(3) 0.2180(3)
H127_2 H 0.2899 0.2054 0.1321
H130_2 H 0.3679 0.2101 0.2054
H133_2 H 0.2946 0.1321 0.2101
H138_2 H 0.2632 0.1915 0.1433
H141_2 H 0.3567 0.2368 0.1915
H144_2 H 0.3085 0.1433 0.2368
H149_2 H 0.2920 0.1818 0.1537
H152_2 H 0.3463 0.2080 0.1818
H155_2 H 0.3182 0.1537 0.2080
O1_2 O 0.19861(16) 0.26176(15) 0.96952(13)
O2_2 O 0.16067(17) 0.23869(16) 0.96610(14)
O3_4 O 0.2500 0.2500 1.0000
C1_2 C 0.1758(3) 0.2577(2) 0.95860(18)
C2_2 C 0.1661(2) 0.27590(18) 0.93564(17)
C3_2 C 0.1825(2) 0.2977(2) 0.92772(18)
H1_2 H 0.1989 0.3013 0.9367
C4_2 C 0.1738(2) 0.31435(17) 0.90565(18)
C5_2 C 0.14954(19) 0.30869(17) 0.89183(17)
C6_2 C 0.1338(2) 0.28670(19) 0.90074(19)
H2_2 H 0.1175 0.2825 0.8917
C7_2 C 0.1417(2) 0.27112(18) 0.92257(19)
H3_2 H 0.1304 0.2571 0.9287
C8_2 C 0.1872(2) 0.3400(2) 0.8953(2)
C9_2 C 0.16844(18) 0.34777(18) 0.87201(17)
C10_2 C 0.14657(17) 0.32905(17) 0.86934(17)
C11_2 C 0.1867(3) 0.3618(3) 0.9194(3)
H4_2 H 0.1973 0.3548 0.9347
H5_2 H 0.1955 0.3785 0.9131
C12_2 C 0.1576(4) 0.3691(3) 0.9299(3)
H6_2 H 0.1460 0.3734 0.9146
H7_2 H 0.1587 0.3847 0.9419
H8_2 H 0.1501 0.3538 0.9397
C13_2 C 0.2167(3) 0.3325(3) 0.8849(3)
H9_2 H 0.2256 0.3492 0.8786
H10_2 H 0.2273 0.3256 0.9002
C14_2 C 0.2180(3) 0.3115(3) 0.8618(3)
H11_2 H 0.2101 0.2946 0.8679
H12_2 H 0.2368 0.3085 0.8567
H13_2 H 0.2080 0.3182 0.8463
Pb2_4 Pb 0.222444(14) 0.306279(17) 1.0000
Pb4_4 Pb 0.306279(17) 0.277556(14) 1.0000
Pb5_2 Pb 0.277556(14) 0.5000 0.806279(17)
Pb6_2 Pb 0.193721(17) 0.5000 0.777556(14)
Pb7_3 Pb 0.0000 0.306279(17) 0.722444(14)
Pb8_3 Pb -0.0000 0.277556(14) 0.806279(17)
Pb9_2 Pb 0.306279(17) 0.5000 0.722444(14)
Pb10_2 Pb 0.5000 0.222444(14) 0.806279(17)
Pb11_2 Pb 0.5000 0.306279(17) 0.777556(14)
O4_2 O 0.23824(15) 0.19861(16) 0.96952(13)
O7_2 O 0.26176(15) 0.30139(16) 0.96952(13)
O10_2 O 0.30139(16) 0.23824(15) 0.96952(13)
O11_2 O 0.23824(15) 0.46952(13) 0.80139(16)
O12_2 O 0.03048(13) 0.30139(16) 0.76176(15)
O13_2 O 0.30139(16) 0.46952(13) 0.76176(15)
O14_2 O 0.46952(13) 0.26176(15) 0.80139(16)
O20_2 O 0.23869(16) 0.33933(17) 0.96610(14)
O22_2 O 0.26131(16) 0.16067(17) 0.96610(14)
O25_2 O 0.33933(17) 0.26131(16) 0.96610(14)
O26_2 O 0.26131(16) 0.46610(14) 0.83933(17)
O27_2 O 0.03390(14) 0.33933(17) 0.73869(16)
O28_2 O 0.33933(17) 0.46610(14) 0.73869(16)
O29_2 O 0.46610(14) 0.23869(16) 0.83933(17)
C15_2 C 0.2577(2) 0.3242(3) 0.95860(18)
C18_2 C 0.2423(2) 0.45860(18) 0.8242(3)
C19_2 C 0.04140(18) 0.3242(3) 0.7577(2)
C20_2 C 0.3242(3) 0.45860(18) 0.7577(2)
C21_2 C 0.45860(18) 0.2577(2) 0.8242(3)
C26_2 C 0.27590(18) 0.3339(2) 0.93564(17)
C29_2 C 0.22410(18) 0.43564(17) 0.8339(2)
C30_2 C 0.06436(17) 0.3339(2) 0.77590(18)
C31_2 C 0.3339(2) 0.43564(17) 0.77590(18)
C32_2 C 0.43564(17) 0.27590(18) 0.8339(2)
C37_2 C 0.2977(2) 0.3175(2) 0.92772(18)
C40_2 C 0.2023(2) 0.42772(18) 0.8175(2)
C41_2 C 0.07228(18) 0.3175(2) 0.7977(2)
C42_2 C 0.3175(2) 0.42772(18) 0.7977(2)
C43_2 C 0.42772(18) 0.2977(2) 0.8175(2)
H14_2 H 0.3013 0.3011 0.9367
H17_2 H 0.1987 0.4367 0.8011
H18_2 H 0.0633 0.3011 0.8013
H19_2 H 0.3011 0.4367 0.8013
H20_2 H 0.4367 0.3013 0.8011
C48_2 C 0.18565(17) 0.40565(18) 0.8262(2)
C49_2 C 0.09435(18) 0.3262(2) 0.81435(17)
C50_2 C 0.31435(17) 0.3262(2) 0.90565(18)
C53_2 C 0.3262(2) 0.40565(18) 0.81435(17)
C54_2 C 0.40565(18) 0.31435(17) 0.8262(2)
C59_2 C 0.19131(17) 0.39183(17) 0.85046(19)
C60_2 C 0.10817(17) 0.35046(19) 0.80869(17)
C61_2 C 0.30869(17) 0.35046(19) 0.89183(17)
C64_2 C 0.39183(17) 0.30869(17) 0.85046(19)
C67_2 C 0.35046(19) 0.39183(17) 0.80869(17)
C70_2 C 0.21330(19) 0.40074(19) 0.8662(2)
C71_2 C 0.09926(19) 0.3662(2) 0.78670(19)
C72_2 C 0.28670(19) 0.3662(2) 0.90074(19)
C75_2 C 0.40074(19) 0.28670(19) 0.8662(2)
C78_2 C 0.3662(2) 0.40074(19) 0.78670(19)
H25_2 H 0.2175 0.3917 0.8825
H26_2 H 0.1083 0.3825 0.7825
H27_2 H 0.2825 0.3825 0.8917
H30_2 H 0.3917 0.2825 0.8825
H33_2 H 0.3825 0.3917 0.7825
C81_2 C 0.27112(18) 0.3583(2) 0.92257(19)
C84_2 C 0.22888(18) 0.42257(19) 0.8583(2)
C85_2 C 0.07743(19) 0.3583(2) 0.77112(18)
C86_2 C 0.42257(19) 0.27112(18) 0.8583(2)
C89_2 C 0.3583(2) 0.42257(19) 0.77112(18)
H36_2 H 0.2571 0.3696 0.9287
H39_2 H 0.2429 0.4287 0.8696
H40_2 H 0.0713 0.3696 0.7571
H41_2 H 0.4287 0.2571 0.8696
H44_2 H 0.3696 0.4287 0.7571
C92_2 C 0.1047(2) 0.3128(2) 0.8400(2)
C93_2 C 0.1600(2) 0.3953(2) 0.8128(2)
C94_2 C 0.3400(2) 0.3128(2) 0.8953(2)
C97_2 C 0.3128(2) 0.3953(2) 0.8400(2)
C100_2 C 0.3953(2) 0.3400(2) 0.8128(2)
C103_2 C 0.12799(17) 0.33156(18) 0.84777(18)
C104_2 C 0.15223(18) 0.37201(17) 0.83156(18)
C105_2 C 0.34777(18) 0.33156(18) 0.87201(17)
C108_2 C 0.33156(18) 0.37201(17) 0.84777(18)
C111_2 C 0.37201(17) 0.34777(18) 0.83156(18)
C114_2 C 0.17095(17) 0.36934(17) 0.85343(17)
C115_2 C 0.13066(17) 0.35343(17) 0.82905(17)
C116_2 C 0.32905(17) 0.35343(17) 0.86934(17)
C119_2 C 0.36934(17) 0.32905(17) 0.85343(17)
C122_2 C 0.35343(17) 0.36934(17) 0.82905(17)
C125_2 C 0.0806(3) 0.3133(3) 0.8618(3)
C126_2 C 0.1382(3) 0.4194(3) 0.8133(3)
C127_2 C 0.3618(3) 0.3133(3) 0.9194(3)
C130_2 C 0.3133(3) 0.4194(3) 0.8618(3)
C133_2 C 0.4194(3) 0.3618(3) 0.8133(3)
H47_2 H 0.0653 0.3027 0.8548
H48_2 H 0.1452 0.4347 0.8027
H49_2 H 0.3548 0.3027 0.9347
H52_2 H 0.3027 0.4347 0.8548
H55_2 H 0.4347 0.3548 0.8027
H58_2 H 0.0869 0.3045 0.8785
H59_2 H 0.1215 0.4131 0.8045
H60_2 H 0.3785 0.3045 0.9131
H63_2 H 0.3045 0.4131 0.8785
H66_2 H 0.4131 0.3785 0.8045
C136_2 C 0.0701(3) 0.3424(4) 0.8691(3)
C137_2 C 0.1309(3) 0.4299(3) 0.8424(4)
C138_2 C 0.3691(3) 0.3424(4) 0.9299(3)
C141_2 C 0.3424(4) 0.4299(3) 0.8691(3)
C144_2 C 0.4299(3) 0.3691(3) 0.8424(4)
H69_2 H 0.0854 0.3540 0.8734
H70_2 H 0.1266 0.4146 0.8540
H71_2 H 0.3734 0.3540 0.9146
H74_2 H 0.3540 0.4146 0.8734
H77_2 H 0.4146 0.3734 0.8540
H80_2 H 0.0581 0.3413 0.8847
H81_2 H 0.1153 0.4419 0.8413
H82_2 H 0.3847 0.3413 0.9419
H85_2 H 0.3413 0.4419 0.8847
H88_2 H 0.4419 0.3847 0.8413
H91_2 H 0.0603 0.3499 0.8538
H92_2 H 0.1462 0.4397 0.8499
H93_2 H 0.3538 0.3499 0.9397
H96_2 H 0.3499 0.4397 0.8538
H99_2 H 0.4397 0.3538 0.8499
C147_2 C 0.1151(3) 0.2833(3) 0.8325(3)
C148_2 C 0.1675(3) 0.3849(3) 0.7833(3)
C149_2 C 0.3325(3) 0.2833(3) 0.8849(3)
C152_2 C 0.2833(3) 0.3849(3) 0.8325(3)
C155_2 C 0.3849(3) 0.3325(3) 0.7833(3)
H102_2 H 0.1214 0.2744 0.8492
H103_2 H 0.1508 0.3786 0.7744
H104_2 H 0.3492 0.2744 0.8786
H107_2 H 0.2744 0.3786 0.8492
H110_2 H 0.3786 0.3492 0.7744
H113_2 H 0.0998 0.2727 0.8256
H114_2 H 0.1744 0.4002 0.7727
H115_2 H 0.3256 0.2727 0.9002
H118_2 H 0.2727 0.4002 0.8256
H121_2 H 0.4002 0.3256 0.7727
C158_2 C 0.1382(3) 0.2820(3) 0.8115(3)
C159_2 C 0.1885(3) 0.3618(3) 0.7820(3)
C160_2 C 0.3115(3) 0.2820(3) 0.8618(3)
C163_2 C 0.2820(3) 0.3618(3) 0.8115(3)
C166_2 C 0.3618(3) 0.3115(3) 0.7820(3)
H124_2 H 0.1321 0.2899 0.7946
H125_2 H 0.2054 0.3679 0.7899
H126_2 H 0.2946 0.2899 0.8679
H129_2 H 0.2899 0.3679 0.7946
H132_2 H 0.3679 0.2946 0.7899
H135_2 H 0.1433 0.2632 0.8085
H136_2 H 0.1915 0.3567 0.7632
H137_2 H 0.3085 0.2632 0.8567
H140_2 H 0.2632 0.3567 0.8085
H143_2 H 0.3567 0.3085 0.7632
H146_2 H 0.1537 0.2920 0.8182
H147_2 H 0.1818 0.3463 0.7920
H148_2 H 0.3182 0.2920 0.8463
H151_2 H 0.2920 0.3463 0.8182
H154_2 H 0.3463 0.3182 0.7920
Pb7_4 Pb 1.0000 0.306279(17) 0.722444(14)
Pb8_4 Pb 1.0000 0.277556(14) 0.806279(17)
O3_5 O 0.0000 0.2500 0.2500
Pb4_5 Pb 0.0000 0.306279(17) 0.277556(14)
Pb12_3 Pb 0.277556(14) 0.5000 0.193721(17)
Pb13_3 Pb 0.193721(17) 0.5000 0.222444(14)
O8_3 O 0.03048(13) 0.26176(15) 0.30139(16)
O9_3 O 0.03048(13) 0.30139(16) 0.23824(15)
O15_3 O 0.23824(15) 0.46952(13) 0.19861(16)
O21_3 O 0.03390(14) 0.23869(16) 0.33933(17)
O24_3 O 0.03390(14) 0.33933(17) 0.26131(16)
O30_3 O 0.26131(16) 0.46610(14) 0.16067(17)
C16_3 C 0.04140(18) 0.3242(3) 0.2423(2)
C22_3 C 0.2423(2) 0.45860(18) 0.1758(3)
C23_3 C 0.1758(3) 0.2577(2) 0.04140(18)
C27_3 C 0.06436(17) 0.3339(2) 0.22410(18)
C33_3 C 0.22410(18) 0.43564(17) 0.1661(2)
C34_3 C 0.1661(2) 0.27590(18) 0.06436(17)
C38_3 C 0.07228(18) 0.3175(2) 0.2023(2)
C44_3 C 0.2023(2) 0.42772(18) 0.1825(2)
C45_3 C 0.1825(2) 0.2977(2) 0.07228(18)
H15_3 H 0.0633 0.3011 0.1987
H21_3 H 0.1987 0.4367 0.1989
H22_3 H 0.1989 0.3013 0.0633
C51_3 C 0.09435(18) 0.3262(2) 0.18565(17)
C55_3 C 0.18565(17) 0.40565(18) 0.1738(2)
C56_3 C 0.1738(2) 0.31435(17) 0.09435(18)
C62_3 C 0.10817(17) 0.35046(19) 0.19131(17)
C65_3 C 0.14954(19) 0.30869(17) 0.10817(17)
C68_3 C 0.19131(17) 0.39183(17) 0.14954(19)
C73_3 C 0.09926(19) 0.3662(2) 0.21330(19)
C76_3 C 0.1338(2) 0.28670(19) 0.09926(19)
C79_3 C 0.21330(19) 0.40074(19) 0.1338(2)
H28_3 H 0.1083 0.3825 0.2175
H31_3 H 0.1175 0.2825 0.1083
H34_3 H 0.2175 0.3917 0.1175
C82_3 C 0.07743(19) 0.3583(2) 0.22888(18)
C87_3 C 0.1417(2) 0.27112(18) 0.07743(19)
C90_3 C 0.22888(18) 0.42257(19) 0.1417(2)
H37_3 H 0.0713 0.3696 0.2429
H42_3 H 0.1304 0.2571 0.0713
H45_3 H 0.2429 0.4287 0.1304
C95_3 C 0.1047(2) 0.3128(2) 0.1600(2)
C98_3 C 0.1600(2) 0.3953(2) 0.1872(2)
C101_3 C 0.1872(2) 0.3400(2) 0.1047(2)
C106_3 C 0.12799(17) 0.33156(18) 0.15223(18)
C109_3 C 0.15223(18) 0.37201(17) 0.16844(18)
C112_3 C 0.16844(18) 0.34777(18) 0.12799(17)
C117_3 C 0.13066(17) 0.35343(17) 0.17095(17)
C120_3 C 0.14657(17) 0.32905(17) 0.13066(17)
C123_3 C 0.17095(17) 0.36934(17) 0.14657(17)
C128_3 C 0.0806(3) 0.3133(3) 0.1382(3)
C131_3 C 0.1382(3) 0.4194(3) 0.1867(3)
C134_3 C 0.1867(3) 0.3618(3) 0.0806(3)
H50_3 H 0.0653 0.3027 0.1452
H53_3 H 0.1452 0.4347 0.1973
H56_3 H 0.1973 0.3548 0.0653
H61_3 H 0.0869 0.3045 0.1215
H64_3 H 0.1215 0.4131 0.1955
H67_3 H 0.1955 0.3785 0.0869
C139_3 C 0.0701(3) 0.3424(4) 0.1309(3)
C142_3 C 0.1309(3) 0.4299(3) 0.1576(4)
C145_3 C 0.1576(4) 0.3691(3) 0.0701(3)
H72_3 H 0.0854 0.3540 0.1266
H75_3 H 0.1266 0.4146 0.1460
H78_3 H 0.1460 0.3734 0.0854
H83_3 H 0.0581 0.3413 0.1153
H86_3 H 0.1153 0.4419 0.1587
H89_3 H 0.1587 0.3847 0.0581
H94_3 H 0.0603 0.3499 0.1462
H97_3 H 0.1462 0.4397 0.1501
H100_3 H 0.1501 0.3538 0.0603
C150_3 C 0.1151(3) 0.2833(3) 0.1675(3)
C153_3 C 0.1675(3) 0.3849(3) 0.2167(3)
C156_3 C 0.2167(3) 0.3325(3) 0.1151(3)
H105_3 H 0.1214 0.2744 0.1508
H108_3 H 0.1508 0.3786 0.2256
H111_3 H 0.2256 0.3492 0.1214
H116_3 H 0.0998 0.2727 0.1744
H119_3 H 0.1744 0.4002 0.2273
H122_3 H 0.2273 0.3256 0.0998
C161_3 C 0.1382(3) 0.2820(3) 0.1885(3)
C164_3 C 0.1885(3) 0.3618(3) 0.2180(3)
C167_3 C 0.2180(3) 0.3115(3) 0.1382(3)
H127_3 H 0.1321 0.2899 0.2054
H130_3 H 0.2054 0.3679 0.2101
H133_3 H 0.2101 0.2946 0.1321
H138_3 H 0.1433 0.2632 0.1915
H141_3 H 0.1915 0.3567 0.2368
H144_3 H 0.2368 0.3085 0.1433
H149_3 H 0.1537 0.2920 0.1818
H152_3 H 0.1818 0.3463 0.2080
H155_3 H 0.2080 0.3182 0.1537
O1_3 O 0.96952(13) 0.19861(16) 0.26176(15)
O2_3 O 0.96610(14) 0.16067(17) 0.23869(16)
O3_6 O 1.0000 0.2500 0.2500
C1_3 C 0.95860(18) 0.1758(3) 0.2577(2)
C2_3 C 0.93564(17) 0.1661(2) 0.27590(18)
C3_3 C 0.92772(18) 0.1825(2) 0.2977(2)
H1_3 H 0.9367 0.1989 0.3013
C4_3 C 0.90565(18) 0.1738(2) 0.31435(17)
C5_3 C 0.89183(17) 0.14954(19) 0.30869(17)
C6_3 C 0.90074(19) 0.1338(2) 0.28670(19)
H2_3 H 0.8917 0.1175 0.2825
C7_3 C 0.92257(19) 0.1417(2) 0.27112(18)
H3_3 H 0.9287 0.1304 0.2571
C8_3 C 0.8953(2) 0.1872(2) 0.3400(2)
C9_3 C 0.87201(17) 0.16844(18) 0.34777(18)
C10_3 C 0.86934(17) 0.14657(17) 0.32905(17)
C11_3 C 0.9194(3) 0.1867(3) 0.3618(3)
H4_3 H 0.9347 0.1973 0.3548
H5_3 H 0.9131 0.1955 0.3785
C12_3 C 0.9299(3) 0.1576(4) 0.3691(3)
H6_3 H 0.9146 0.1460 0.3734
H7_3 H 0.9419 0.1587 0.3847
H8_3 H 0.9397 0.1501 0.3538
C13_3 C 0.8849(3) 0.2167(3) 0.3325(3)
H9_3 H 0.8786 0.2256 0.3492
H10_3 H 0.9002 0.2273 0.3256
C14_3 C 0.8618(3) 0.2180(3) 0.3115(3)
H11_3 H 0.8679 0.2101 0.2946
H12_3 H 0.8567 0.2368 0.3085
H13_3 H 0.8463 0.2080 0.3182
Pb4_6 Pb 1.0000 0.306279(17) 0.277556(14)
Pb5_3 Pb 0.806279(17) 0.277556(14) 0.5000
Pb6_3 Pb 0.777556(14) 0.193721(17) 0.5000
Pb7_5 Pb 0.722444(14) 0.0000 0.306279(17)
Pb8_5 Pb 0.806279(17) 0.0000 0.277556(14)
Pb9_3 Pb 0.722444(14) 0.306279(17) 0.5000
Pb10_3 Pb 0.806279(17) 0.5000 0.222444(14)
Pb11_3 Pb 0.777556(14) 0.5000 0.306279(17)
O4_3 O 0.96952(13) 0.23824(15) 0.19861(16)
O7_3 O 0.96952(13) 0.26176(15) 0.30139(16)
O10_3 O 0.96952(13) 0.30139(16) 0.23824(15)
O11_3 O 0.80139(16) 0.23824(15) 0.46952(13)
O12_3 O 0.76176(15) 0.03048(13) 0.30139(16)
O13_3 O 0.76176(15) 0.30139(16) 0.46952(13)
O14_3 O 0.80139(16) 0.46952(13) 0.26176(15)
O20_3 O 0.96610(14) 0.23869(16) 0.33933(17)
O22_3 O 0.96610(14) 0.26131(16) 0.16067(17)
O25_3 O 0.96610(14) 0.33933(17) 0.26131(16)
O26_3 O 0.83933(17) 0.26131(16) 0.46610(14)
O27_3 O 0.73869(16) 0.03390(14) 0.33933(17)
O28_3 O 0.73869(16) 0.33933(17) 0.46610(14)
O29_3 O 0.83933(17) 0.46610(14) 0.23869(16)
C15_3 C 0.95860(18) 0.2577(2) 0.3242(3)
C18_3 C 0.8242(3) 0.2423(2) 0.45860(18)
C19_3 C 0.7577(2) 0.04140(18) 0.3242(3)
C20_3 C 0.7577(2) 0.3242(3) 0.45860(18)
C21_3 C 0.8242(3) 0.45860(18) 0.2577(2)
C26_3 C 0.93564(17) 0.27590(18) 0.3339(2)
C29_3 C 0.8339(2) 0.22410(18) 0.43564(17)
C30_3 C 0.77590(18) 0.06436(17) 0.3339(2)
C31_3 C 0.77590(18) 0.3339(2) 0.43564(17)
C32_3 C 0.8339(2) 0.43564(17) 0.27590(18)
C37_3 C 0.92772(18) 0.2977(2) 0.3175(2)
C40_3 C 0.8175(2) 0.2023(2) 0.42772(18)
C41_3 C 0.7977(2) 0.07228(18) 0.3175(2)
C42_3 C 0.7977(2) 0.3175(2) 0.42772(18)
C43_3 C 0.8175(2) 0.42772(18) 0.2977(2)
H14_3 H 0.9367 0.3013 0.3011
H17_3 H 0.8011 0.1987 0.4367
H18_3 H 0.8013 0.0633 0.3011
H19_3 H 0.8013 0.3011 0.4367
H20_3 H 0.8011 0.4367 0.3013
C48_3 C 0.8262(2) 0.18565(17) 0.40565(18)
C49_3 C 0.81435(17) 0.09435(18) 0.3262(2)
C50_3 C 0.90565(18) 0.31435(17) 0.3262(2)
C53_3 C 0.81435(17) 0.3262(2) 0.40565(18)
C54_3 C 0.8262(2) 0.40565(18) 0.31435(17)
C59_3 C 0.85046(19) 0.19131(17) 0.39183(17)
C60_3 C 0.80869(17) 0.10817(17) 0.35046(19)
C61_3 C 0.89183(17) 0.30869(17) 0.35046(19)
C64_3 C 0.85046(19) 0.39183(17) 0.30869(17)
C67_3 C 0.80869(17) 0.35046(19) 0.39183(17)
C70_3 C 0.8662(2) 0.21330(19) 0.40074(19)
C71_3 C 0.78670(19) 0.09926(19) 0.3662(2)
C72_3 C 0.90074(19) 0.28670(19) 0.3662(2)
C75_3 C 0.8662(2) 0.40074(19) 0.28670(19)
C78_3 C 0.78670(19) 0.3662(2) 0.40074(19)
H25_3 H 0.8825 0.2175 0.3917
H26_3 H 0.7825 0.1083 0.3825
H27_3 H 0.8917 0.2825 0.3825
H30_3 H 0.8825 0.3917 0.2825
H33_3 H 0.7825 0.3825 0.3917
C81_3 C 0.92257(19) 0.27112(18) 0.3583(2)
C84_3 C 0.8583(2) 0.22888(18) 0.42257(19)
C85_3 C 0.77112(18) 0.07743(19) 0.3583(2)
C86_3 C 0.8583(2) 0.42257(19) 0.27112(18)
C89_3 C 0.77112(18) 0.3583(2) 0.42257(19)
H36_3 H 0.9287 0.2571 0.3696
H39_3 H 0.8696 0.2429 0.4287
H40_3 H 0.7571 0.0713 0.3696
H41_3 H 0.8696 0.4287 0.2571
H44_3 H 0.7571 0.3696 0.4287
C92_3 C 0.8400(2) 0.1047(2) 0.3128(2)
C93_3 C 0.8128(2) 0.1600(2) 0.3953(2)
C94_3 C 0.8953(2) 0.3400(2) 0.3128(2)
C97_3 C 0.8400(2) 0.3128(2) 0.3953(2)
C100_3 C 0.8128(2) 0.3953(2) 0.3400(2)
C103_3 C 0.84777(18) 0.12799(17) 0.33156(18)
C104_3 C 0.83156(18) 0.15223(18) 0.37201(17)
C105_3 C 0.87201(17) 0.34777(18) 0.33156(18)
C108_3 C 0.84777(18) 0.33156(18) 0.37201(17)
C111_3 C 0.83156(18) 0.37201(17) 0.34777(18)
C114_3 C 0.85343(17) 0.17095(17) 0.36934(17)
C115_3 C 0.82905(17) 0.13066(17) 0.35343(17)
C116_3 C 0.86934(17) 0.32905(17) 0.35343(17)
C119_3 C 0.85343(17) 0.36934(17) 0.32905(17)
C122_3 C 0.82905(17) 0.35343(17) 0.36934(17)
C125_3 C 0.8618(3) 0.0806(3) 0.3133(3)
C126_3 C 0.8133(3) 0.1382(3) 0.4194(3)
C127_3 C 0.9194(3) 0.3618(3) 0.3133(3)
C130_3 C 0.8618(3) 0.3133(3) 0.4194(3)
C133_3 C 0.8133(3) 0.4194(3) 0.3618(3)
H47_3 H 0.8548 0.0653 0.3027
H48_3 H 0.8027 0.1452 0.4347
H49_3 H 0.9347 0.3548 0.3027
H52_3 H 0.8548 0.3027 0.4347
H55_3 H 0.8027 0.4347 0.3548
H58_3 H 0.8785 0.0869 0.3045
H59_3 H 0.8045 0.1215 0.4131
H60_3 H 0.9131 0.3785 0.3045
H63_3 H 0.8785 0.3045 0.4131
H66_3 H 0.8045 0.4131 0.3785
C136_3 C 0.8691(3) 0.0701(3) 0.3424(4)
C137_3 C 0.8424(4) 0.1309(3) 0.4299(3)
C138_3 C 0.9299(3) 0.3691(3) 0.3424(4)
C141_3 C 0.8691(3) 0.3424(4) 0.4299(3)
C144_3 C 0.8424(4) 0.4299(3) 0.3691(3)
H69_3 H 0.8734 0.0854 0.3540
H70_3 H 0.8540 0.1266 0.4146
H71_3 H 0.9146 0.3734 0.3540
H74_3 H 0.8734 0.3540 0.4146
H77_3 H 0.8540 0.4146 0.3734
H80_3 H 0.8847 0.0581 0.3413
H81_3 H 0.8413 0.1153 0.4419
H82_3 H 0.9419 0.3847 0.3413
H85_3 H 0.8847 0.3413 0.4419
H88_3 H 0.8413 0.4419 0.3847
H91_3 H 0.8538 0.0603 0.3499
H92_3 H 0.8499 0.1462 0.4397
H93_3 H 0.9397 0.3538 0.3499
H96_3 H 0.8538 0.3499 0.4397
H99_3 H 0.8499 0.4397 0.3538
C147_3 C 0.8325(3) 0.1151(3) 0.2833(3)
C148_3 C 0.7833(3) 0.1675(3) 0.3849(3)
C149_3 C 0.8849(3) 0.3325(3) 0.2833(3)
C152_3 C 0.8325(3) 0.2833(3) 0.3849(3)
C155_3 C 0.7833(3) 0.3849(3) 0.3325(3)
H102_3 H 0.8492 0.1214 0.2744
H103_3 H 0.7744 0.1508 0.3786
H104_3 H 0.8786 0.3492 0.2744
H107_3 H 0.8492 0.2744 0.3786
H110_3 H 0.7744 0.3786 0.3492
H113_3 H 0.8256 0.0998 0.2727
H114_3 H 0.7727 0.1744 0.4002
H115_3 H 0.9002 0.3256 0.2727
H118_3 H 0.8256 0.2727 0.4002
H121_3 H 0.7727 0.4002 0.3256
C158_3 C 0.8115(3) 0.1382(3) 0.2820(3)
C159_3 C 0.7820(3) 0.1885(3) 0.3618(3)
C160_3 C 0.8618(3) 0.3115(3) 0.2820(3)
C163_3 C 0.8115(3) 0.2820(3) 0.3618(3)
C166_3 C 0.7820(3) 0.3618(3) 0.3115(3)
H124_3 H 0.7946 0.1321 0.2899
H125_3 H 0.7899 0.2054 0.3679
H126_3 H 0.8679 0.2946 0.2899
H129_3 H 0.7946 0.2899 0.3679
H132_3 H 0.7899 0.3679 0.2946
H135_3 H 0.8085 0.1433 0.2632
H136_3 H 0.7632 0.1915 0.3567
H137_3 H 0.8567 0.3085 0.2632
H140_3 H 0.8085 0.2632 0.3567
H143_3 H 0.7632 0.3567 0.3085
H146_3 H 0.8182 0.1537 0.2920
H147_3 H 0.7920 0.1818 0.3463
H148_3 H 0.8463 0.3182 0.2920
H151_3 H 0.8182 0.2920 0.3463
H154_3 H 0.7920 0.3463 0.3182
Pb7_6 Pb 0.722444(14) 1.0000 0.306279(17)
Pb8_6 Pb 0.806279(17) 1.0000 0.277556(14)
O3_7 O 0.5000 0.7500 0.2500
Pb3_3 Pb 0.5000 0.693721(17) 0.222444(14)
Pb12_4 Pb 0.777556(14) 0.693721(17) 0.0000
Pb13_4 Pb 0.693721(17) 0.722444(14) 0.0000
Pb14_3 Pb 0.693721(17) 0.5000 0.277556(14)
Pb15_3 Pb 0.722444(14) 0.5000 0.193721(17)
Pb17_3 Pb 0.693721(17) 0.777556(14) 0.5000
Pb18_3 Pb 0.722444(14) 0.693721(17) 0.5000
O4_4 O 0.46952(13) 0.69861(16) 0.26176(15)
O5_3 O 0.53048(13) 0.76176(15) 0.30139(16)
O6_2 O 0.53048(13) 0.69861(16) 0.26176(15)
O8_4 O 0.53048(13) 0.80139(16) 0.23824(15)
O9_4 O 0.53048(13) 0.73824(15) 0.19861(16)
O10_4 O 0.46952(13) 0.73824(15) 0.19861(16)
O15_4 O 0.73824(15) 0.69861(16) 0.03048(13)
O16_2 O 0.69861(16) 0.53048(13) 0.23824(15)
O17_2 O 0.73824(15) 0.53048(13) 0.30139(16)
O18_2 O 0.69861(16) 0.73824(15) 0.46952(13)
O19_3 O 0.53390(14) 0.73869(16) 0.33933(17)
O21_4 O 0.53390(14) 0.83933(17) 0.26131(16)
O22_4 O 0.46610(14) 0.66067(17) 0.23869(16)
O23_2 O 0.53390(14) 0.66067(17) 0.23869(16)
O24_4 O 0.53390(14) 0.76131(16) 0.16067(17)
O25_4 O 0.46610(14) 0.76131(16) 0.16067(17)
O30_4 O 0.76131(16) 0.66067(17) 0.03390(14)
O31_2 O 0.66067(17) 0.53390(14) 0.26131(16)
O32_2 O 0.76131(16) 0.53390(14) 0.33933(17)
O33_2 O 0.66067(17) 0.76131(16) 0.46610(14)
C16_4 C 0.54140(18) 0.7423(2) 0.1758(3)
C17_2 C 0.54140(18) 0.6758(3) 0.2577(2)
C22_4 C 0.7423(2) 0.6758(3) 0.04140(18)
C23_4 C 0.6758(3) 0.54140(18) 0.2423(2)
C24_2 C 0.7423(2) 0.54140(18) 0.3242(3)
C25_2 C 0.6758(3) 0.7423(2) 0.45860(18)
C27_4 C 0.56436(17) 0.72410(18) 0.1661(2)
C28_2 C 0.56436(17) 0.6661(2) 0.27590(18)
C33_4 C 0.72410(18) 0.6661(2) 0.06436(17)
C34_4 C 0.6661(2) 0.56436(17) 0.22410(18)
C35_2 C 0.72410(18) 0.56436(17) 0.3339(2)
C36_2 C 0.6661(2) 0.72410(18) 0.43564(17)
C38_4 C 0.57228(18) 0.7023(2) 0.1825(2)
C39_2 C 0.57228(18) 0.6825(2) 0.2977(2)
C44_4 C 0.7023(2) 0.6825(2) 0.07228(18)
C45_4 C 0.6825(2) 0.57228(18) 0.2023(2)
C46_2 C 0.7023(2) 0.57228(18) 0.3175(2)
C47_2 C 0.6825(2) 0.7023(2) 0.42772(18)
H15_4 H 0.5633 0.6987 0.1989
H16_2 H 0.5633 0.6989 0.3013
H21_4 H 0.6987 0.6989 0.0633
H22_4 H 0.6989 0.5633 0.1987
H23_2 H 0.6987 0.5633 0.3011
H24_2 H 0.6989 0.6987 0.4367
C51_4 C 0.59435(18) 0.68565(17) 0.1738(2)
C52_2 C 0.59435(18) 0.6738(2) 0.31435(17)
C55_4 C 0.68565(17) 0.6738(2) 0.09435(18)
C56_4 C 0.6738(2) 0.59435(18) 0.18565(17)
C57_2 C 0.68565(17) 0.59435(18) 0.3262(2)
C58_2 C 0.6738(2) 0.68565(17) 0.40565(18)
C62_4 C 0.60817(17) 0.69131(17) 0.14954(19)
C63_2 C 0.60817(17) 0.64954(19) 0.30869(17)
C65_4 C 0.64954(19) 0.60817(17) 0.19131(17)
C66_2 C 0.64954(19) 0.69131(17) 0.39183(17)
C68_4 C 0.69131(17) 0.64954(19) 0.10817(17)
C69_2 C 0.69131(17) 0.60817(17) 0.35046(19)
C73_4 C 0.59926(19) 0.71330(19) 0.1338(2)
C74_2 C 0.59926(19) 0.6338(2) 0.28670(19)
C76_4 C 0.6338(2) 0.59926(19) 0.21330(19)
C77_2 C 0.6338(2) 0.71330(19) 0.40074(19)
C79_4 C 0.71330(19) 0.6338(2) 0.09926(19)
C80_2 C 0.71330(19) 0.59926(19) 0.3662(2)
H28_4 H 0.6083 0.7175 0.1175
H29_2 H 0.6083 0.6175 0.2825
H31_4 H 0.6175 0.6083 0.2175
H32_2 H 0.6175 0.7175 0.3917
H34_4 H 0.7175 0.6175 0.1083
H35_2 H 0.7175 0.6083 0.3825
C82_4 C 0.57743(19) 0.72888(18) 0.1417(2)
C83_2 C 0.57743(19) 0.6417(2) 0.27112(18)
C87_4 C 0.6417(2) 0.57743(19) 0.22888(18)
C88_2 C 0.6417(2) 0.72888(18) 0.42257(19)
C90_4 C 0.72888(18) 0.6417(2) 0.07743(19)
C91_2 C 0.72888(18) 0.57743(19) 0.3583(2)
H37_4 H 0.5713 0.7429 0.1304
H38_2 H 0.5713 0.6304 0.2571
H42_4 H 0.6304 0.5713 0.2429
H43_2 H 0.6304 0.7429 0.4287
H45_4 H 0.7429 0.6304 0.0713
H46_2 H 0.7429 0.5713 0.3696
C95_4 C 0.6047(2) 0.6600(2) 0.1872(2)
C96_2 C 0.6047(2) 0.6872(2) 0.3400(2)
C98_4 C 0.6600(2) 0.6872(2) 0.1047(2)
C99_2 C 0.6600(2) 0.6047(2) 0.3128(2)
C101_4 C 0.6872(2) 0.6047(2) 0.1600(2)
C102_2 C 0.6872(2) 0.6600(2) 0.3953(2)
C106_4 C 0.62799(17) 0.65223(18) 0.16844(18)
C107_2 C 0.62799(17) 0.66844(18) 0.34777(18)
C109_4 C 0.65223(18) 0.66844(18) 0.12799(17)
C110_2 C 0.65223(18) 0.62799(17) 0.33156(18)
C112_4 C 0.66844(18) 0.62799(17) 0.15223(18)
C113_2 C 0.66844(18) 0.65223(18) 0.37201(17)
C117_4 C 0.63066(17) 0.67095(17) 0.14657(17)
C118_2 C 0.63066(17) 0.64657(17) 0.32905(17)
C120_4 C 0.64657(17) 0.63066(17) 0.17095(17)
C121_2 C 0.64657(17) 0.67095(17) 0.36934(17)
C123_4 C 0.67095(17) 0.64657(17) 0.13066(17)
C124_2 C 0.67095(17) 0.63066(17) 0.35343(17)
C128_4 C 0.5806(3) 0.6382(3) 0.1867(3)
C129_2 C 0.5806(3) 0.6867(3) 0.3618(3)
C131_4 C 0.6382(3) 0.6867(3) 0.0806(3)
C132_2 C 0.6382(3) 0.5806(3) 0.3133(3)
C134_4 C 0.6867(3) 0.5806(3) 0.1382(3)
C135_2 C 0.6867(3) 0.6382(3) 0.4194(3)
H50_4 H 0.5653 0.6452 0.1973
H51_2 H 0.5653 0.6973 0.3548
H53_4 H 0.6452 0.6973 0.0653
H54_2 H 0.6452 0.5653 0.3027
H56_4 H 0.6973 0.5653 0.1452
H57_2 H 0.6973 0.6452 0.4347
H61_4 H 0.5869 0.6215 0.1955
H62_2 H 0.5869 0.6955 0.3785
H64_4 H 0.6215 0.6955 0.0869
H65_2 H 0.6215 0.5869 0.3045
H67_4 H 0.6955 0.5869 0.1215
H68_2 H 0.6955 0.6215 0.4131
C139_4 C 0.5701(3) 0.6309(3) 0.1576(4)
C140_2 C 0.5701(3) 0.6576(4) 0.3691(3)
C142_4 C 0.6309(3) 0.6576(4) 0.0701(3)
C143_2 C 0.6309(3) 0.5701(3) 0.3424(4)
C145_4 C 0.6576(4) 0.5701(3) 0.1309(3)
C146_2 C 0.6576(4) 0.6309(3) 0.4299(3)
H72_4 H 0.5854 0.6266 0.1460
H73_2 H 0.5854 0.6460 0.3734
H75_4 H 0.6266 0.6460 0.0854
H76_2 H 0.6266 0.5854 0.3540
H78_4 H 0.6460 0.5854 0.1266
H79_2 H 0.6460 0.6266 0.4146
H83_4 H 0.5581 0.6153 0.1587
H84_2 H 0.5581 0.6587 0.3847
H86_4 H 0.6153 0.6587 0.0581
H87_2 H 0.6153 0.5581 0.3413
H89_4 H 0.6587 0.5581 0.1153
H90_2 H 0.6587 0.6153 0.4419
H94_4 H 0.5603 0.6462 0.1501
H95_2 H 0.5603 0.6501 0.3538
H97_4 H 0.6462 0.6501 0.0603
H98_2 H 0.6462 0.5603 0.3499
H100_4 H 0.6501 0.5603 0.1462
H101_2 H 0.6501 0.6462 0.4397
C150_4 C 0.6151(3) 0.6675(3) 0.2167(3)
C151_2 C 0.6151(3) 0.7167(3) 0.3325(3)
C153_4 C 0.6675(3) 0.7167(3) 0.1151(3)
C154_2 C 0.6675(3) 0.6151(3) 0.2833(3)
C156_4 C 0.7167(3) 0.6151(3) 0.1675(3)
C157_2 C 0.7167(3) 0.6675(3) 0.3849(3)
H105_4 H 0.6214 0.6508 0.2256
H106_2 H 0.6214 0.7256 0.3492
H108_4 H 0.6508 0.7256 0.1214
H109_2 H 0.6508 0.6214 0.2744
H111_4 H 0.7256 0.6214 0.1508
H112_2 H 0.7256 0.6508 0.3786
H116_4 H 0.5998 0.6744 0.2273
H117_2 H 0.5998 0.7273 0.3256
H119_4 H 0.6744 0.7273 0.0998
H120_2 H 0.6744 0.5998 0.2727
H122_4 H 0.7273 0.5998 0.1744
H123_2 H 0.7273 0.6744 0.4002
C161_4 C 0.6382(3) 0.6885(3) 0.2180(3)
C162_2 C 0.6382(3) 0.7180(3) 0.3115(3)
C164_4 C 0.6885(3) 0.7180(3) 0.1382(3)
C165_2 C 0.6885(3) 0.6382(3) 0.2820(3)
C167_4 C 0.7180(3) 0.6382(3) 0.1885(3)
C168_2 C 0.7180(3) 0.6885(3) 0.3618(3)
H127_4 H 0.6321 0.7054 0.2101
H128_2 H 0.6321 0.7101 0.2946
H130_4 H 0.7054 0.7101 0.1321
H131_2 H 0.7054 0.6321 0.2899
H133_4 H 0.7101 0.6321 0.2054
H134_2 H 0.7101 0.7054 0.3679
H138_4 H 0.6433 0.6915 0.2368
H139_2 H 0.6433 0.7368 0.3085
H141_4 H 0.6915 0.7368 0.1433
H142_2 H 0.6915 0.6433 0.2632
H144_4 H 0.7368 0.6433 0.1915
H145_2 H 0.7368 0.6915 0.3567
H149_4 H 0.6537 0.6818 0.2080
H150_2 H 0.6537 0.7080 0.3182
H152_4 H 0.6818 0.7080 0.1537
H153_2 H 0.6818 0.6537 0.2920
H155_4 H 0.7080 0.6537 0.1818
H156_2 H 0.7080 0.6818 0.3463
Pb12_5 Pb 0.777556(14) 0.693721(17) 1.0000
Pb13_5 Pb 0.693721(17) 0.722444(14) 1.0000
Pb12_6 Pb 0.777556(14) 0.306279(17) 0.0000
Pb13_6 Pb 0.693721(17) 0.277556(14) 0.0000
Pb1_3 Pb 0.5000 0.277556(14) 0.693721(17)
O1_4 O 0.46952(13) 0.23824(15) 0.69861(16)
O2_4 O 0.46610(14) 0.26131(16) 0.66067(17)
O3_8 O 0.5000 0.2500 0.7500
C1_4 C 0.45860(18) 0.2423(2) 0.6758(3)
C2_4 C 0.43564(17) 0.22410(18) 0.6661(2)
C3_4 C 0.42772(18) 0.2023(2) 0.6825(2)
H1_4 H 0.4367 0.1987 0.6989
C4_4 C 0.40565(18) 0.18565(17) 0.6738(2)
C5_4 C 0.39183(17) 0.19131(17) 0.64954(19)
C6_4 C 0.40074(19) 0.21330(19) 0.6338(2)
H2_4 H 0.3917 0.2175 0.6175
C7_4 C 0.42257(19) 0.22888(18) 0.6417(2)
H3_4 H 0.4287 0.2429 0.6304
C8_4 C 0.3953(2) 0.1600(2) 0.6872(2)
C9_4 C 0.37201(17) 0.15223(18) 0.66844(18)
C10_4 C 0.36934(17) 0.17095(17) 0.64657(17)
C11_4 C 0.4194(3) 0.1382(3) 0.6867(3)
H4_4 H 0.4347 0.1452 0.6973
H5_4 H 0.4131 0.1215 0.6955
C12_4 C 0.4299(3) 0.1309(3) 0.6576(4)
H6_4 H 0.4146 0.1266 0.6460
H7_4 H 0.4419 0.1153 0.6587
H8_4 H 0.4397 0.1462 0.6501
C13_4 C 0.3849(3) 0.1675(3) 0.7167(3)
H9_4 H 0.3786 0.1508 0.7256
H10_4 H 0.4002 0.1744 0.7273
C14_4 C 0.3618(3) 0.1885(3) 0.7180(3)
H11_4 H 0.3679 0.2054 0.7101
H12_4 H 0.3567 0.1915 0.7368
H13_4 H 0.3463 0.1818 0.7080
Pb2_5 Pb 0.5000 0.193721(17) 0.722444(14)
Pb5_4 Pb 0.306279(17) -0.0000 0.777556(14)
Pb6_4 Pb 0.277556(14) -0.0000 0.693721(17)
Pb8_7 Pb 0.306279(17) 0.222444(14) 0.5000
Pb9_4 Pb 0.222444(14) -0.0000 0.806279(17)
Pb12_7 Pb 0.777556(14) 0.306279(17) 1.0000
Pb13_7 Pb 0.693721(17) 0.277556(14) 1.0000
Pb14_4 Pb 0.693721(17) 0.5000 0.722444(14)
Pb15_4 Pb 0.722444(14) 0.5000 0.806279(17)
Pb16_3 Pb 0.777556(14) 0.5000 0.693721(17)
Pb17_4 Pb 0.693721(17) 0.222444(14) 0.5000
O4_5 O 0.46952(13) 0.30139(16) 0.73824(15)
O5_4 O 0.53048(13) 0.23824(15) 0.69861(16)
O6_3 O 0.53048(13) 0.30139(16) 0.73824(15)
O7_4 O 0.46952(13) 0.19861(16) 0.76176(15)
O8_5 O 0.53048(13) 0.19861(16) 0.76176(15)
O9_5 O 0.53048(13) 0.26176(15) 0.80139(16)
O11_4 O 0.30139(16) 0.03048(13) 0.73824(15)
O12_4 O 0.26176(15) 0.19861(16) 0.53048(13)
O13_4 O 0.26176(15) 0.03048(13) 0.80139(16)
O15_5 O 0.73824(15) 0.30139(16) 0.96952(13)
O16_3 O 0.69861(16) 0.46952(13) 0.76176(15)
O17_3 O 0.73824(15) 0.46952(13) 0.69861(16)
O18_3 O 0.69861(16) 0.26176(15) 0.53048(13)
O19_4 O 0.53390(14) 0.26131(16) 0.66067(17)
O20_4 O 0.46610(14) 0.16067(17) 0.73869(16)
O21_5 O 0.53390(14) 0.16067(17) 0.73869(16)
O22_5 O 0.46610(14) 0.33933(17) 0.76131(16)
O23_3 O 0.53390(14) 0.33933(17) 0.76131(16)
O24_5 O 0.53390(14) 0.23869(16) 0.83933(17)
O26_4 O 0.33933(17) 0.03390(14) 0.76131(16)
O27_4 O 0.23869(16) 0.16067(17) 0.53390(14)
O28_4 O 0.23869(16) 0.03390(14) 0.83933(17)
O30_5 O 0.76131(16) 0.33933(17) 0.96610(14)
O31_3 O 0.66067(17) 0.46610(14) 0.73869(16)
O32_3 O 0.76131(16) 0.46610(14) 0.66067(17)
O33_3 O 0.66067(17) 0.23869(16) 0.53390(14)
C15_4 C 0.45860(18) 0.1758(3) 0.7577(2)
C16_5 C 0.54140(18) 0.2577(2) 0.8242(3)
C17_3 C 0.54140(18) 0.3242(3) 0.7423(2)
C18_4 C 0.3242(3) 0.04140(18) 0.7423(2)
C19_4 C 0.2577(2) 0.1758(3) 0.54140(18)
C20_4 C 0.2577(2) 0.04140(18) 0.8242(3)
C21_4 C 0.3242(3) 0.2423(2) 0.95860(18)
C22_5 C 0.7423(2) 0.3242(3) 0.95860(18)
C23_5 C 0.6758(3) 0.45860(18) 0.7577(2)
C24_3 C 0.7423(2) 0.45860(18) 0.6758(3)
C25_3 C 0.6758(3) 0.2577(2) 0.54140(18)
C26_4 C 0.43564(17) 0.1661(2) 0.77590(18)
C27_5 C 0.56436(17) 0.27590(18) 0.8339(2)
C28_3 C 0.56436(17) 0.3339(2) 0.72410(18)
C29_4 C 0.3339(2) 0.06436(17) 0.72410(18)
C30_4 C 0.27590(18) 0.1661(2) 0.56436(17)
C31_4 C 0.27590(18) 0.06436(17) 0.8339(2)
C32_4 C 0.3339(2) 0.22410(18) 0.93564(17)
C33_5 C 0.72410(18) 0.3339(2) 0.93564(17)
C34_5 C 0.6661(2) 0.43564(17) 0.77590(18)
C35_3 C 0.72410(18) 0.43564(17) 0.6661(2)
C36_3 C 0.6661(2) 0.27590(18) 0.56436(17)
C37_4 C 0.42772(18) 0.1825(2) 0.7977(2)
C38_5 C 0.57228(18) 0.2977(2) 0.8175(2)
C39_3 C 0.57228(18) 0.3175(2) 0.7023(2)
C40_4 C 0.3175(2) 0.07228(18) 0.7023(2)
C41_4 C 0.2977(2) 0.1825(2) 0.57228(18)
C42_4 C 0.2977(2) 0.07228(18) 0.8175(2)
C43_4 C 0.3175(2) 0.2023(2) 0.92772(18)
C44_5 C 0.7023(2) 0.3175(2) 0.92772(18)
C45_5 C 0.6825(2) 0.42772(18) 0.7977(2)
C46_3 C 0.7023(2) 0.42772(18) 0.6825(2)
C47_3 C 0.6825(2) 0.2977(2) 0.57228(18)
H14_4 H 0.4367 0.1989 0.8013
H15_5 H 0.5633 0.3013 0.8011
H16_3 H 0.5633 0.3011 0.6987
H17_4 H 0.3011 0.0633 0.6987
H18_4 H 0.3013 0.1989 0.5633
H19_4 H 0.3013 0.0633 0.8011
H20_4 H 0.3011 0.1987 0.9367
H21_5 H 0.6987 0.3011 0.9367
H22_5 H 0.6989 0.4367 0.8013
H23_3 H 0.6987 0.4367 0.6989
H24_3 H 0.6989 0.3013 0.5633
C48_4 C 0.3262(2) 0.09435(18) 0.68565(17)
C49_4 C 0.31435(17) 0.1738(2) 0.59435(18)
C50_4 C 0.40565(18) 0.1738(2) 0.81435(17)
C51_5 C 0.59435(18) 0.31435(17) 0.8262(2)
C52_3 C 0.59435(18) 0.3262(2) 0.68565(17)
C53_4 C 0.31435(17) 0.09435(18) 0.8262(2)
C54_4 C 0.3262(2) 0.18565(17) 0.90565(18)
C55_5 C 0.68565(17) 0.3262(2) 0.90565(18)
C56_5 C 0.6738(2) 0.40565(18) 0.81435(17)
C57_3 C 0.68565(17) 0.40565(18) 0.6738(2)
C58_3 C 0.6738(2) 0.31435(17) 0.59435(18)
C59_4 C 0.35046(19) 0.10817(17) 0.69131(17)
C60_4 C 0.30869(17) 0.14954(19) 0.60817(17)
C61_4 C 0.39183(17) 0.14954(19) 0.80869(17)
C62_5 C 0.60817(17) 0.30869(17) 0.85046(19)
C63_3 C 0.60817(17) 0.35046(19) 0.69131(17)
C64_4 C 0.35046(19) 0.19131(17) 0.89183(17)
C65_5 C 0.64954(19) 0.39183(17) 0.80869(17)
C66_3 C 0.64954(19) 0.30869(17) 0.60817(17)
C67_4 C 0.30869(17) 0.10817(17) 0.85046(19)
C68_5 C 0.69131(17) 0.35046(19) 0.89183(17)
C69_3 C 0.69131(17) 0.39183(17) 0.64954(19)
C70_4 C 0.3662(2) 0.09926(19) 0.71330(19)
C71_4 C 0.28670(19) 0.1338(2) 0.59926(19)
C72_4 C 0.40074(19) 0.1338(2) 0.78670(19)
C73_5 C 0.59926(19) 0.28670(19) 0.8662(2)
C74_3 C 0.59926(19) 0.3662(2) 0.71330(19)
C75_4 C 0.3662(2) 0.21330(19) 0.90074(19)
C76_5 C 0.6338(2) 0.40074(19) 0.78670(19)
C77_3 C 0.6338(2) 0.28670(19) 0.59926(19)
C78_4 C 0.28670(19) 0.09926(19) 0.8662(2)
C79_5 C 0.71330(19) 0.3662(2) 0.90074(19)
C80_3 C 0.71330(19) 0.40074(19) 0.6338(2)
H25_4 H 0.3825 0.1083 0.7175
H26_4 H 0.2825 0.1175 0.6083
H27_4 H 0.3917 0.1175 0.7825
H28_5 H 0.6083 0.2825 0.8825
H29_3 H 0.6083 0.3825 0.7175
H30_4 H 0.3825 0.2175 0.8917
H31_5 H 0.6175 0.3917 0.7825
H32_3 H 0.6175 0.2825 0.6083
H33_4 H 0.2825 0.1083 0.8825
H34_5 H 0.7175 0.3825 0.8917
H35_3 H 0.7175 0.3917 0.6175
C81_4 C 0.42257(19) 0.1417(2) 0.77112(18)
C82_5 C 0.57743(19) 0.27112(18) 0.8583(2)
C83_3 C 0.57743(19) 0.3583(2) 0.72888(18)
C84_4 C 0.3583(2) 0.07743(19) 0.72888(18)
C85_4 C 0.27112(18) 0.1417(2) 0.57743(19)
C86_4 C 0.3583(2) 0.22888(18) 0.92257(19)
C87_5 C 0.6417(2) 0.42257(19) 0.77112(18)
C88_3 C 0.6417(2) 0.27112(18) 0.57743(19)
C89_4 C 0.27112(18) 0.07743(19) 0.8583(2)
C90_5 C 0.72888(18) 0.3583(2) 0.92257(19)
C91_3 C 0.72888(18) 0.42257(19) 0.6417(2)
H36_4 H 0.4287 0.1304 0.7571
H37_5 H 0.5713 0.2571 0.8696
H38_3 H 0.5713 0.3696 0.7429
H39_4 H 0.3696 0.0713 0.7429
H40_4 H 0.2571 0.1304 0.5713
H41_4 H 0.3696 0.2429 0.9287
H42_5 H 0.6304 0.4287 0.7571
H43_3 H 0.6304 0.2571 0.5713
H44_4 H 0.2571 0.0713 0.8696
H45_5 H 0.7429 0.3696 0.9287
H46_3 H 0.7429 0.4287 0.6304
C92_4 C 0.3400(2) 0.1872(2) 0.6047(2)
C93_4 C 0.3128(2) 0.1047(2) 0.6600(2)
C94_4 C 0.3953(2) 0.1872(2) 0.8400(2)
C95_5 C 0.6047(2) 0.3400(2) 0.8128(2)
C96_3 C 0.6047(2) 0.3128(2) 0.6600(2)
C97_4 C 0.3400(2) 0.1047(2) 0.8128(2)
C98_5 C 0.6600(2) 0.3128(2) 0.8953(2)
C99_3 C 0.6600(2) 0.3953(2) 0.6872(2)
C100_4 C 0.3128(2) 0.1600(2) 0.8953(2)
C101_5 C 0.6872(2) 0.3953(2) 0.8400(2)
C102_3 C 0.6872(2) 0.3400(2) 0.6047(2)
C103_4 C 0.34777(18) 0.16844(18) 0.62799(17)
C104_4 C 0.33156(18) 0.12799(17) 0.65223(18)
C105_4 C 0.37201(17) 0.16844(18) 0.84777(18)
C106_5 C 0.62799(17) 0.34777(18) 0.83156(18)
C107_3 C 0.62799(17) 0.33156(18) 0.65223(18)
C108_4 C 0.34777(18) 0.12799(17) 0.83156(18)
C109_5 C 0.65223(18) 0.33156(18) 0.87201(17)
C110_3 C 0.65223(18) 0.37201(17) 0.66844(18)
C111_4 C 0.33156(18) 0.15223(18) 0.87201(17)
C112_5 C 0.66844(18) 0.37201(17) 0.84777(18)
C113_3 C 0.66844(18) 0.34777(18) 0.62799(17)
C114_4 C 0.35343(17) 0.13066(17) 0.67095(17)
C115_4 C 0.32905(17) 0.14657(17) 0.63066(17)
C116_4 C 0.36934(17) 0.14657(17) 0.82905(17)
C117_5 C 0.63066(17) 0.32905(17) 0.85343(17)
C118_3 C 0.63066(17) 0.35343(17) 0.67095(17)
C119_4 C 0.35343(17) 0.17095(17) 0.86934(17)
C120_5 C 0.64657(17) 0.36934(17) 0.82905(17)
C121_3 C 0.64657(17) 0.32905(17) 0.63066(17)
C122_4 C 0.32905(17) 0.13066(17) 0.85343(17)
C123_5 C 0.67095(17) 0.35343(17) 0.86934(17)
C124_3 C 0.67095(17) 0.36934(17) 0.64657(17)
C125_4 C 0.3618(3) 0.1867(3) 0.5806(3)
C126_4 C 0.3133(3) 0.0806(3) 0.6382(3)
C127_4 C 0.4194(3) 0.1867(3) 0.8618(3)
C128_5 C 0.5806(3) 0.3618(3) 0.8133(3)
C129_3 C 0.5806(3) 0.3133(3) 0.6382(3)
C130_4 C 0.3618(3) 0.0806(3) 0.8133(3)
C131_5 C 0.6382(3) 0.3133(3) 0.9194(3)
C132_3 C 0.6382(3) 0.4194(3) 0.6867(3)
C133_4 C 0.3133(3) 0.1382(3) 0.9194(3)
C134_5 C 0.6867(3) 0.4194(3) 0.8618(3)
C135_3 C 0.6867(3) 0.3618(3) 0.5806(3)
H47_4 H 0.3548 0.1973 0.5653
H48_4 H 0.3027 0.0653 0.6452
H49_4 H 0.4347 0.1973 0.8548
H50_5 H 0.5653 0.3548 0.8027
H51_3 H 0.5653 0.3027 0.6452
H52_4 H 0.3548 0.0653 0.8027
H53_5 H 0.6452 0.3027 0.9347
H54_3 H 0.6452 0.4347 0.6973
H55_4 H 0.3027 0.1452 0.9347
H56_5 H 0.6973 0.4347 0.8548
H57_3 H 0.6973 0.3548 0.5653
H58_4 H 0.3785 0.1955 0.5869
H59_4 H 0.3045 0.0869 0.6215
H60_4 H 0.4131 0.1955 0.8785
H61_5 H 0.5869 0.3785 0.8045
H62_3 H 0.5869 0.3045 0.6215
H63_4 H 0.3785 0.0869 0.8045
H64_5 H 0.6215 0.3045 0.9131
H65_3 H 0.6215 0.4131 0.6955
H66_4 H 0.3045 0.1215 0.9131
H67_5 H 0.6955 0.4131 0.8785
H68_3 H 0.6955 0.3785 0.5869
C136_4 C 0.3691(3) 0.1576(4) 0.5701(3)
C137_4 C 0.3424(4) 0.0701(3) 0.6309(3)
C138_4 C 0.4299(3) 0.1576(4) 0.8691(3)
C139_5 C 0.5701(3) 0.3691(3) 0.8424(4)
C140_3 C 0.5701(3) 0.3424(4) 0.6309(3)
C141_4 C 0.3691(3) 0.0701(3) 0.8424(4)
C142_5 C 0.6309(3) 0.3424(4) 0.9299(3)
C143_3 C 0.6309(3) 0.4299(3) 0.6576(4)
C144_4 C 0.3424(4) 0.1309(3) 0.9299(3)
C145_5 C 0.6576(4) 0.4299(3) 0.8691(3)
C146_3 C 0.6576(4) 0.3691(3) 0.5701(3)
H69_4 H 0.3734 0.1460 0.5854
H70_4 H 0.3540 0.0854 0.6266
H71_4 H 0.4146 0.1460 0.8734
H72_5 H 0.5854 0.3734 0.8540
H73_3 H 0.5854 0.3540 0.6266
H74_4 H 0.3734 0.0854 0.8540
H75_5 H 0.6266 0.3540 0.9146
H76_3 H 0.6266 0.4146 0.6460
H77_4 H 0.3540 0.1266 0.9146
H78_5 H 0.6460 0.4146 0.8734
H79_3 H 0.6460 0.3734 0.5854
H80_4 H 0.3847 0.1587 0.5581
H81_4 H 0.3413 0.0581 0.6153
H82_4 H 0.4419 0.1587 0.8847
H83_5 H 0.5581 0.3847 0.8413
H84_3 H 0.5581 0.3413 0.6153
H85_4 H 0.3847 0.0581 0.8413
H86_5 H 0.6153 0.3413 0.9419
H87_3 H 0.6153 0.4419 0.6587
H88_4 H 0.3413 0.1153 0.9419
H89_5 H 0.6587 0.4419 0.8847
H90_3 H 0.6587 0.3847 0.5581
H91_4 H 0.3538 0.1501 0.5603
H92_4 H 0.3499 0.0603 0.6462
H93_4 H 0.4397 0.1501 0.8538
H94_5 H 0.5603 0.3538 0.8499
H95_3 H 0.5603 0.3499 0.6462
H96_4 H 0.3538 0.0603 0.8499
H97_5 H 0.6462 0.3499 0.9397
H98_3 H 0.6462 0.4397 0.6501
H99_4 H 0.3499 0.1462 0.9397
H100_5 H 0.6501 0.4397 0.8538
H101_3 H 0.6501 0.3538 0.5603
C147_4 C 0.3325(3) 0.2167(3) 0.6151(3)
C148_4 C 0.2833(3) 0.1151(3) 0.6675(3)
C149_4 C 0.3849(3) 0.2167(3) 0.8325(3)
C150_5 C 0.6151(3) 0.3325(3) 0.7833(3)
C151_3 C 0.6151(3) 0.2833(3) 0.6675(3)
C152_4 C 0.3325(3) 0.1151(3) 0.7833(3)
C153_5 C 0.6675(3) 0.2833(3) 0.8849(3)
C154_3 C 0.6675(3) 0.3849(3) 0.7167(3)
C155_4 C 0.2833(3) 0.1675(3) 0.8849(3)
C156_5 C 0.7167(3) 0.3849(3) 0.8325(3)
C157_3 C 0.7167(3) 0.3325(3) 0.6151(3)
H102_4 H 0.3492 0.2256 0.6214
H103_4 H 0.2744 0.1214 0.6508
H104_4 H 0.3786 0.2256 0.8492
H105_5 H 0.6214 0.3492 0.7744
H106_3 H 0.6214 0.2744 0.6508
H107_4 H 0.3492 0.1214 0.7744
H108_5 H 0.6508 0.2744 0.8786
H109_3 H 0.6508 0.3786 0.7256
H110_4 H 0.2744 0.1508 0.8786
H111_5 H 0.7256 0.3786 0.8492
H112_3 H 0.7256 0.3492 0.6214
H113_4 H 0.3256 0.2273 0.5998
H114_4 H 0.2727 0.0998 0.6744
H115_4 H 0.4002 0.2273 0.8256
H116_5 H 0.5998 0.3256 0.7727
H117_3 H 0.5998 0.2727 0.6744
H118_4 H 0.3256 0.0998 0.7727
H119_5 H 0.6744 0.2727 0.9002
H120_3 H 0.6744 0.4002 0.7273
H121_4 H 0.2727 0.1744 0.9002
H122_5 H 0.7273 0.4002 0.8256
H123_3 H 0.7273 0.3256 0.5998
C158_4 C 0.3115(3) 0.2180(3) 0.6382(3)
C159_4 C 0.2820(3) 0.1382(3) 0.6885(3)
C160_4 C 0.3618(3) 0.2180(3) 0.8115(3)
C161_5 C 0.6382(3) 0.3115(3) 0.7820(3)
C162_3 C 0.6382(3) 0.2820(3) 0.6885(3)
C163_4 C 0.3115(3) 0.1382(3) 0.7820(3)
C164_5 C 0.6885(3) 0.2820(3) 0.8618(3)
C165_3 C 0.6885(3) 0.3618(3) 0.7180(3)
C166_4 C 0.2820(3) 0.1885(3) 0.8618(3)
C167_5 C 0.7180(3) 0.3618(3) 0.8115(3)
C168_3 C 0.7180(3) 0.3115(3) 0.6382(3)
H124_4 H 0.2946 0.2101 0.6321
H125_4 H 0.2899 0.1321 0.7054
H126_4 H 0.3679 0.2101 0.7946
H127_5 H 0.6321 0.2946 0.7899
H128_3 H 0.6321 0.2899 0.7054
H129_4 H 0.2946 0.1321 0.7899
H130_5 H 0.7054 0.2899 0.8679
H131_3 H 0.7054 0.3679 0.7101
H132_4 H 0.2899 0.2054 0.8679
H133_5 H 0.7101 0.3679 0.7946
H134_3 H 0.7101 0.2946 0.6321
H135_4 H 0.3085 0.2368 0.6433
H136_4 H 0.2632 0.1433 0.6915
H137_4 H 0.3567 0.2368 0.8085
H138_5 H 0.6433 0.3085 0.7632
H139_3 H 0.6433 0.2632 0.6915
H140_4 H 0.3085 0.1433 0.7632
H141_5 H 0.6915 0.2632 0.8567
H142_3 H 0.6915 0.3567 0.7368
H143_4 H 0.2632 0.1915 0.8567
H144_5 H 0.7368 0.3567 0.8085
H145_3 H 0.7368 0.3085 0.6433
H146_4 H 0.3182 0.2080 0.6537
H147_4 H 0.2920 0.1537 0.6818
H148_4 H 0.3463 0.2080 0.8182
H149_5 H 0.6537 0.3182 0.7920
H150_3 H 0.6537 0.2920 0.6818
H151_4 H 0.3182 0.1537 0.7920
H152_5 H 0.6818 0.2920 0.8463
H153_3 H 0.6818 0.3463 0.7080
H154_4 H 0.2920 0.1818 0.8463
H155_5 H 0.7080 0.3463 0.8182
H156_3 H 0.7080 0.3182 0.6537
Pb5_5 Pb 0.306279(17) 1.0000 0.777556(14)
Pb6_5 Pb 0.277556(14) 1.0000 0.693721(17)
Pb9_5 Pb 0.222444(14) 1.0000 0.806279(17)
Pb5_6 Pb 0.693721(17) 0.0000 0.777556(14)
Pb6_6 Pb 0.722444(14) 0.0000 0.693721(17)
Pb9_6 Pb 0.777556(14) 0.0000 0.806279(17)
Pb11_4 Pb 0.722444(14) 0.806279(17) 0.0000
Pb12_8 Pb 0.222444(14) 0.693721(17) 0.0000
Pb1_4 Pb 0.5000 0.722444(14) 0.693721(17)
O1_5 O 0.53048(13) 0.76176(15) 0.69861(16)
O2_5 O 0.53390(14) 0.73869(16) 0.66067(17)
O3_9 O 0.5000 0.7500 0.7500
C1_5 C 0.54140(18) 0.7577(2) 0.6758(3)
C2_5 C 0.56436(17) 0.77590(18) 0.6661(2)
C3_5 C 0.57228(18) 0.7977(2) 0.6825(2)
H1_5 H 0.5633 0.8013 0.6989
C4_5 C 0.59435(18) 0.81435(17) 0.6738(2)
C5_5 C 0.60817(17) 0.80869(17) 0.64954(19)
C6_5 C 0.59926(19) 0.78670(19) 0.6338(2)
H2_5 H 0.6083 0.7825 0.6175
C7_5 C 0.57743(19) 0.77112(18) 0.6417(2)
H3_5 H 0.5713 0.7571 0.6304
C8_5 C 0.6047(2) 0.8400(2) 0.6872(2)
C9_5 C 0.62799(17) 0.84777(18) 0.66844(18)
C10_5 C 0.63066(17) 0.82905(17) 0.64657(17)
C11_5 C 0.5806(3) 0.8618(3) 0.6867(3)
H4_5 H 0.5653 0.8548 0.6973
H5_5 H 0.5869 0.8785 0.6955
C12_5 C 0.5701(3) 0.8691(3) 0.6576(4)
H6_5 H 0.5854 0.8734 0.6460
H7_5 H 0.5581 0.8847 0.6587
H8_5 H 0.5603 0.8538 0.6501
C13_5 C 0.6151(3) 0.8325(3) 0.7167(3)
H9_5 H 0.6214 0.8492 0.7256
H10_5 H 0.5998 0.8256 0.7273
C14_5 C 0.6382(3) 0.8115(3) 0.7180(3)
H11_5 H 0.6321 0.7946 0.7101
H12_5 H 0.6433 0.8085 0.7368
H13_5 H 0.6537 0.8182 0.7080
Pb2_6 Pb 0.5000 0.806279(17) 0.722444(14)
Pb3_4 Pb 0.5000 0.693721(17) 0.777556(14)
Pb4_7 Pb 0.5000 0.777556(14) 0.806279(17)
Pb5_7 Pb 0.693721(17) 1.0000 0.777556(14)
Pb6_7 Pb 0.722444(14) 1.0000 0.693721(17)
Pb7_7 Pb 0.777556(14) 0.806279(17) 0.5000
Pb9_7 Pb 0.777556(14) 1.0000 0.806279(17)
Pb11_5 Pb 0.722444(14) 0.806279(17) 1.0000
Pb12_9 Pb 0.222444(14) 0.693721(17) 1.0000
Pb16_4 Pb 0.222444(14) 0.5000 0.693721(17)
Pb18_4 Pb 0.277556(14) 0.693721(17) 0.5000
O4_6 O 0.53048(13) 0.69861(16) 0.73824(15)
O5_5 O 0.46952(13) 0.76176(15) 0.69861(16)
O6_4 O 0.46952(13) 0.69861(16) 0.73824(15)
O7_5 O 0.53048(13) 0.80139(16) 0.76176(15)
O8_6 O 0.46952(13) 0.80139(16) 0.76176(15)
O9_6 O 0.46952(13) 0.73824(15) 0.80139(16)
O10_5 O 0.53048(13) 0.73824(15) 0.80139(16)
O11_5 O 0.69861(16) 0.96952(13) 0.73824(15)
O12_5 O 0.73824(15) 0.80139(16) 0.53048(13)
O13_5 O 0.73824(15) 0.96952(13) 0.80139(16)
O14_4 O 0.69861(16) 0.76176(15) 0.96952(13)
O15_6 O 0.26176(15) 0.69861(16) 0.96952(13)
O16_4 O 0.30139(16) 0.53048(13) 0.76176(15)
O17_4 O 0.26176(15) 0.53048(13) 0.69861(16)
O18_4 O 0.30139(16) 0.73824(15) 0.53048(13)
O19_5 O 0.46610(14) 0.73869(16) 0.66067(17)
O20_5 O 0.53390(14) 0.83933(17) 0.73869(16)
O21_6 O 0.46610(14) 0.83933(17) 0.73869(16)
O22_6 O 0.53390(14) 0.66067(17) 0.76131(16)
O23_4 O 0.46610(14) 0.66067(17) 0.76131(16)
O24_6 O 0.46610(14) 0.76131(16) 0.83933(17)
O25_5 O 0.53390(14) 0.76131(16) 0.83933(17)
O26_5 O 0.66067(17) 0.96610(14) 0.76131(16)
O27_5 O 0.76131(16) 0.83933(17) 0.53390(14)
O28_5 O 0.76131(16) 0.96610(14) 0.83933(17)
O29_4 O 0.66067(17) 0.73869(16) 0.96610(14)
O30_6 O 0.23869(16) 0.66067(17) 0.96610(14)
O31_4 O 0.33933(17) 0.53390(14) 0.73869(16)
O32_4 O 0.23869(16) 0.53390(14) 0.66067(17)
O33_4 O 0.33933(17) 0.76131(16) 0.53390(14)
C15_5 C 0.54140(18) 0.8242(3) 0.7577(2)
C16_6 C 0.45860(18) 0.7423(2) 0.8242(3)
C17_4 C 0.45860(18) 0.6758(3) 0.7423(2)
C18_5 C 0.6758(3) 0.95860(18) 0.7423(2)
C19_5 C 0.7423(2) 0.8242(3) 0.54140(18)
C20_5 C 0.7423(2) 0.95860(18) 0.8242(3)
C21_5 C 0.6758(3) 0.7577(2) 0.95860(18)
C22_6 C 0.2577(2) 0.6758(3) 0.95860(18)
C23_6 C 0.3242(3) 0.54140(18) 0.7577(2)
C24_4 C 0.2577(2) 0.54140(18) 0.6758(3)
C25_4 C 0.3242(3) 0.7423(2) 0.54140(18)
C26_5 C 0.56436(17) 0.8339(2) 0.77590(18)
C27_6 C 0.43564(17) 0.72410(18) 0.8339(2)
C28_4 C 0.43564(17) 0.6661(2) 0.72410(18)
C29_5 C 0.6661(2) 0.93564(17) 0.72410(18)
C30_5 C 0.72410(18) 0.8339(2) 0.56436(17)
C31_5 C 0.72410(18) 0.93564(17) 0.8339(2)
C32_5 C 0.6661(2) 0.77590(18) 0.93564(17)
C33_6 C 0.27590(18) 0.6661(2) 0.93564(17)
C34_6 C 0.3339(2) 0.56436(17) 0.77590(18)
C35_4 C 0.27590(18) 0.56436(17) 0.6661(2)
C36_4 C 0.3339(2) 0.72410(18) 0.56436(17)
C37_5 C 0.57228(18) 0.8175(2) 0.7977(2)
C38_6 C 0.42772(18) 0.7023(2) 0.8175(2)
C39_4 C 0.42772(18) 0.6825(2) 0.7023(2)
C40_5 C 0.6825(2) 0.92772(18) 0.7023(2)
C41_5 C 0.7023(2) 0.8175(2) 0.57228(18)
C42_5 C 0.7023(2) 0.92772(18) 0.8175(2)
C43_5 C 0.6825(2) 0.7977(2) 0.92772(18)
C44_6 C 0.2977(2) 0.6825(2) 0.92772(18)
C45_6 C 0.3175(2) 0.57228(18) 0.7977(2)
C46_4 C 0.2977(2) 0.57228(18) 0.6825(2)
C47_4 C 0.3175(2) 0.7023(2) 0.57228(18)
H14_5 H 0.5633 0.8011 0.8013
H15_6 H 0.4367 0.6987 0.8011
H16_4 H 0.4367 0.6989 0.6987
H17_5 H 0.6989 0.9367 0.6987
H18_5 H 0.6987 0.8011 0.5633
H19_5 H 0.6987 0.9367 0.8011
H20_5 H 0.6989 0.8013 0.9367
H21_6 H 0.3013 0.6989 0.9367
H22_6 H 0.3011 0.5633 0.8013
H23_4 H 0.3013 0.5633 0.6989
H24_4 H 0.3011 0.6987 0.5633
C48_5 C 0.6738(2) 0.90565(18) 0.68565(17)
C49_5 C 0.68565(17) 0.8262(2) 0.59435(18)
C50_5 C 0.59435(18) 0.8262(2) 0.81435(17)
C51_6 C 0.40565(18) 0.68565(17) 0.8262(2)
C52_4 C 0.40565(18) 0.6738(2) 0.68565(17)
C53_5 C 0.68565(17) 0.90565(18) 0.8262(2)
C54_5 C 0.6738(2) 0.81435(17) 0.90565(18)
C55_6 C 0.31435(17) 0.6738(2) 0.90565(18)
C56_6 C 0.3262(2) 0.59435(18) 0.81435(17)
C57_4 C 0.31435(17) 0.59435(18) 0.6738(2)
C58_4 C 0.3262(2) 0.68565(17) 0.59435(18)
C59_5 C 0.64954(19) 0.89183(17) 0.69131(17)
C60_5 C 0.69131(17) 0.85046(19) 0.60817(17)
C61_5 C 0.60817(17) 0.85046(19) 0.80869(17)
C62_6 C 0.39183(17) 0.69131(17) 0.85046(19)
C63_4 C 0.39183(17) 0.64954(19) 0.69131(17)
C64_5 C 0.64954(19) 0.80869(17) 0.89183(17)
C65_6 C 0.35046(19) 0.60817(17) 0.80869(17)
C66_4 C 0.35046(19) 0.69131(17) 0.60817(17)
C67_5 C 0.69131(17) 0.89183(17) 0.85046(19)
C68_6 C 0.30869(17) 0.64954(19) 0.89183(17)
C69_4 C 0.30869(17) 0.60817(17) 0.64954(19)
C70_5 C 0.6338(2) 0.90074(19) 0.71330(19)
C71_5 C 0.71330(19) 0.8662(2) 0.59926(19)
C72_5 C 0.59926(19) 0.8662(2) 0.78670(19)
C73_6 C 0.40074(19) 0.71330(19) 0.8662(2)
C74_4 C 0.40074(19) 0.6338(2) 0.71330(19)
C75_5 C 0.6338(2) 0.78670(19) 0.90074(19)
C76_6 C 0.3662(2) 0.59926(19) 0.78670(19)
C77_4 C 0.3662(2) 0.71330(19) 0.59926(19)
C78_5 C 0.71330(19) 0.90074(19) 0.8662(2)
C79_6 C 0.28670(19) 0.6338(2) 0.90074(19)
C80_4 C 0.28670(19) 0.59926(19) 0.6338(2)
H25_5 H 0.6175 0.8917 0.7175
H26_5 H 0.7175 0.8825 0.6083
H27_5 H 0.6083 0.8825 0.7825
H28_6 H 0.3917 0.7175 0.8825
H29_4 H 0.3917 0.6175 0.7175
H30_5 H 0.6175 0.7825 0.8917
H31_6 H 0.3825 0.6083 0.7825
H32_4 H 0.3825 0.7175 0.6083
H33_5 H 0.7175 0.8917 0.8825
H34_6 H 0.2825 0.6175 0.8917
H35_4 H 0.2825 0.6083 0.6175
C81_5 C 0.57743(19) 0.8583(2) 0.77112(18)
C82_6 C 0.42257(19) 0.72888(18) 0.8583(2)
C83_4 C 0.42257(19) 0.6417(2) 0.72888(18)
C84_5 C 0.6417(2) 0.92257(19) 0.72888(18)
C85_5 C 0.72888(18) 0.8583(2) 0.57743(19)
C86_5 C 0.6417(2) 0.77112(18) 0.92257(19)
C87_6 C 0.3583(2) 0.57743(19) 0.77112(18)
C88_4 C 0.3583(2) 0.72888(18) 0.57743(19)
C89_5 C 0.72888(18) 0.92257(19) 0.8583(2)
C90_6 C 0.27112(18) 0.6417(2) 0.92257(19)
C91_4 C 0.27112(18) 0.57743(19) 0.6417(2)
H36_5 H 0.5713 0.8696 0.7571
H37_6 H 0.4287 0.7429 0.8696
H38_4 H 0.4287 0.6304 0.7429
H39_5 H 0.6304 0.9287 0.7429
H40_5 H 0.7429 0.8696 0.5713
H41_5 H 0.6304 0.7571 0.9287
H42_6 H 0.3696 0.5713 0.7571
H43_4 H 0.3696 0.7429 0.5713
H44_5 H 0.7429 0.9287 0.8696
H45_6 H 0.2571 0.6304 0.9287
H46_4 H 0.2571 0.5713 0.6304
C92_5 C 0.6600(2) 0.8128(2) 0.6047(2)
C93_5 C 0.6872(2) 0.8953(2) 0.6600(2)
C94_5 C 0.6047(2) 0.8128(2) 0.8400(2)
C95_6 C 0.3953(2) 0.6600(2) 0.8128(2)
C96_4 C 0.3953(2) 0.6872(2) 0.6600(2)
C97_5 C 0.6600(2) 0.8953(2) 0.8128(2)
C98_6 C 0.3400(2) 0.6872(2) 0.8953(2)
C99_4 C 0.3400(2) 0.6047(2) 0.6872(2)
C100_5 C 0.6872(2) 0.8400(2) 0.8953(2)
C101_6 C 0.3128(2) 0.6047(2) 0.8400(2)
C102_4 C 0.3128(2) 0.6600(2) 0.6047(2)
C103_5 C 0.65223(18) 0.83156(18) 0.62799(17)
C104_5 C 0.66844(18) 0.87201(17) 0.65223(18)
C105_5 C 0.62799(17) 0.83156(18) 0.84777(18)
C106_6 C 0.37201(17) 0.65223(18) 0.83156(18)
C107_4 C 0.37201(17) 0.66844(18) 0.65223(18)
C108_5 C 0.65223(18) 0.87201(17) 0.83156(18)
C109_6 C 0.34777(18) 0.66844(18) 0.87201(17)
C110_4 C 0.34777(18) 0.62799(17) 0.66844(18)
C111_5 C 0.66844(18) 0.84777(18) 0.87201(17)
C112_6 C 0.33156(18) 0.62799(17) 0.84777(18)
C113_4 C 0.33156(18) 0.65223(18) 0.62799(17)
C114_5 C 0.64657(17) 0.86934(17) 0.67095(17)
C115_5 C 0.67095(17) 0.85343(17) 0.63066(17)
C116_5 C 0.63066(17) 0.85343(17) 0.82905(17)
C117_6 C 0.36934(17) 0.67095(17) 0.85343(17)
C118_4 C 0.36934(17) 0.64657(17) 0.67095(17)
C119_5 C 0.64657(17) 0.82905(17) 0.86934(17)
C120_6 C 0.35343(17) 0.63066(17) 0.82905(17)
C121_4 C 0.35343(17) 0.67095(17) 0.63066(17)
C122_5 C 0.67095(17) 0.86934(17) 0.85343(17)
C123_6 C 0.32905(17) 0.64657(17) 0.86934(17)
C124_4 C 0.32905(17) 0.63066(17) 0.64657(17)
C125_5 C 0.6382(3) 0.8133(3) 0.5806(3)
C126_5 C 0.6867(3) 0.9194(3) 0.6382(3)
C127_5 C 0.5806(3) 0.8133(3) 0.8618(3)
C128_6 C 0.4194(3) 0.6382(3) 0.8133(3)
C129_4 C 0.4194(3) 0.6867(3) 0.6382(3)
C130_5 C 0.6382(3) 0.9194(3) 0.8133(3)
C131_6 C 0.3618(3) 0.6867(3) 0.9194(3)
C132_4 C 0.3618(3) 0.5806(3) 0.6867(3)
C133_5 C 0.6867(3) 0.8618(3) 0.9194(3)
C134_6 C 0.3133(3) 0.5806(3) 0.8618(3)
C135_4 C 0.3133(3) 0.6382(3) 0.5806(3)
H47_5 H 0.6452 0.8027 0.5653
H48_5 H 0.6973 0.9347 0.6452
H49_5 H 0.5653 0.8027 0.8548
H50_6 H 0.4347 0.6452 0.8027
H51_4 H 0.4347 0.6973 0.6452
H52_5 H 0.6452 0.9347 0.8027
H53_6 H 0.3548 0.6973 0.9347
H54_4 H 0.3548 0.5653 0.6973
H55_5 H 0.6973 0.8548 0.9347
H56_6 H 0.3027 0.5653 0.8548
H57_4 H 0.3027 0.6452 0.5653
H58_5 H 0.6215 0.8045 0.5869
H59_5 H 0.6955 0.9131 0.6215
H60_5 H 0.5869 0.8045 0.8785
H61_6 H 0.4131 0.6215 0.8045
H62_4 H 0.4131 0.6955 0.6215
H63_5 H 0.6215 0.9131 0.8045
H64_6 H 0.3785 0.6955 0.9131
H65_4 H 0.3785 0.5869 0.6955
H66_5 H 0.6955 0.8785 0.9131
H67_6 H 0.3045 0.5869 0.8785
H68_4 H 0.3045 0.6215 0.5869
C136_5 C 0.6309(3) 0.8424(4) 0.5701(3)
C137_5 C 0.6576(4) 0.9299(3) 0.6309(3)
C138_5 C 0.5701(3) 0.8424(4) 0.8691(3)
C139_6 C 0.4299(3) 0.6309(3) 0.8424(4)
C140_4 C 0.4299(3) 0.6576(4) 0.6309(3)
C141_5 C 0.6309(3) 0.9299(3) 0.8424(4)
C142_6 C 0.3691(3) 0.6576(4) 0.9299(3)
C143_4 C 0.3691(3) 0.5701(3) 0.6576(4)
C144_5 C 0.6576(4) 0.8691(3) 0.9299(3)
C145_6 C 0.3424(4) 0.5701(3) 0.8691(3)
C146_4 C 0.3424(4) 0.6309(3) 0.5701(3)
H69_5 H 0.6266 0.8540 0.5854
H70_5 H 0.6460 0.9146 0.6266
H71_5 H 0.5854 0.8540 0.8734
H72_6 H 0.4146 0.6266 0.8540
H73_4 H 0.4146 0.6460 0.6266
H74_5 H 0.6266 0.9146 0.8540
H75_6 H 0.3734 0.6460 0.9146
H76_4 H 0.3734 0.5854 0.6460
H77_5 H 0.6460 0.8734 0.9146
H78_6 H 0.3540 0.5854 0.8734
H79_4 H 0.3540 0.6266 0.5854
H80_5 H 0.6153 0.8413 0.5581
H81_5 H 0.6587 0.9419 0.6153
H82_5 H 0.5581 0.8413 0.8847
H83_6 H 0.4419 0.6153 0.8413
H84_4 H 0.4419 0.6587 0.6153
H85_5 H 0.6153 0.9419 0.8413
H86_6 H 0.3847 0.6587 0.9419
H87_4 H 0.3847 0.5581 0.6587
H88_5 H 0.6587 0.8847 0.9419
H89_6 H 0.3413 0.5581 0.8847
H90_4 H 0.3413 0.6153 0.5581
H91_5 H 0.6462 0.8499 0.5603
H92_5 H 0.6501 0.9397 0.6462
H93_5 H 0.5603 0.8499 0.8538
H94_6 H 0.4397 0.6462 0.8499
H95_4 H 0.4397 0.6501 0.6462
H96_5 H 0.6462 0.9397 0.8499
H97_6 H 0.3538 0.6501 0.9397
H98_4 H 0.3538 0.5603 0.6501
H99_5 H 0.6501 0.8538 0.9397
H100_6 H 0.3499 0.5603 0.8538
H101_4 H 0.3499 0.6462 0.5603
C147_5 C 0.6675(3) 0.7833(3) 0.6151(3)
C148_5 C 0.7167(3) 0.8849(3) 0.6675(3)
C149_5 C 0.6151(3) 0.7833(3) 0.8325(3)
C150_6 C 0.3849(3) 0.6675(3) 0.7833(3)
C151_4 C 0.3849(3) 0.7167(3) 0.6675(3)
C152_5 C 0.6675(3) 0.8849(3) 0.7833(3)
C153_6 C 0.3325(3) 0.7167(3) 0.8849(3)
C154_4 C 0.3325(3) 0.6151(3) 0.7167(3)
C155_5 C 0.7167(3) 0.8325(3) 0.8849(3)
C156_6 C 0.2833(3) 0.6151(3) 0.8325(3)
C157_4 C 0.2833(3) 0.6675(3) 0.6151(3)
H102_5 H 0.6508 0.7744 0.6214
H103_5 H 0.7256 0.8786 0.6508
H104_5 H 0.6214 0.7744 0.8492
H105_6 H 0.3786 0.6508 0.7744
H106_4 H 0.3786 0.7256 0.6508
H107_5 H 0.6508 0.8786 0.7744
H108_6 H 0.3492 0.7256 0.8786
H109_4 H 0.3492 0.6214 0.7256
H110_5 H 0.7256 0.8492 0.8786
H111_6 H 0.2744 0.6214 0.8492
H112_4 H 0.2744 0.6508 0.6214
H113_5 H 0.6744 0.7727 0.5998
H114_5 H 0.7273 0.9002 0.6744
H115_5 H 0.5998 0.7727 0.8256
H116_6 H 0.4002 0.6744 0.7727
H117_4 H 0.4002 0.7273 0.6744
H118_5 H 0.6744 0.9002 0.7727
H119_6 H 0.3256 0.7273 0.9002
H120_4 H 0.3256 0.5998 0.7273
H121_5 H 0.7273 0.8256 0.9002
H122_6 H 0.2727 0.5998 0.8256
H123_4 H 0.2727 0.6744 0.5998
C158_5 C 0.6885(3) 0.7820(3) 0.6382(3)
C159_5 C 0.7180(3) 0.8618(3) 0.6885(3)
C160_5 C 0.6382(3) 0.7820(3) 0.8115(3)
C161_6 C 0.3618(3) 0.6885(3) 0.7820(3)
C162_4 C 0.3618(3) 0.7180(3) 0.6885(3)
C163_5 C 0.6885(3) 0.8618(3) 0.7820(3)
C164_6 C 0.3115(3) 0.7180(3) 0.8618(3)
C165_4 C 0.3115(3) 0.6382(3) 0.7180(3)
C166_5 C 0.7180(3) 0.8115(3) 0.8618(3)
C167_6 C 0.2820(3) 0.6382(3) 0.8115(3)
C168_4 C 0.2820(3) 0.6885(3) 0.6382(3)
H124_5 H 0.7054 0.7899 0.6321
H125_5 H 0.7101 0.8679 0.7054
H126_5 H 0.6321 0.7899 0.7946
H127_6 H 0.3679 0.7054 0.7899
H128_4 H 0.3679 0.7101 0.7054
H129_5 H 0.7054 0.8679 0.7899
H130_6 H 0.2946 0.7101 0.8679
H131_4 H 0.2946 0.6321 0.7101
H132_5 H 0.7101 0.7946 0.8679
H133_6 H 0.2899 0.6321 0.7946
H134_4 H 0.2899 0.7054 0.6321
H135_5 H 0.6915 0.7632 0.6433
H136_5 H 0.7368 0.8567 0.6915
H137_5 H 0.6433 0.7632 0.8085
H138_6 H 0.3567 0.6915 0.7632
H139_4 H 0.3567 0.7368 0.6915
H140_5 H 0.6915 0.8567 0.7632
H141_6 H 0.3085 0.7368 0.8567
H142_4 H 0.3085 0.6433 0.7368
H143_5 H 0.7368 0.8085 0.8567
H144_6 H 0.2632 0.6433 0.8085
H145_4 H 0.2632 0.6915 0.6433
H146_5 H 0.6818 0.7920 0.6537
H147_5 H 0.7080 0.8463 0.6818
H148_5 H 0.6537 0.7920 0.8182
H149_6 H 0.3463 0.6818 0.7920
H150_4 H 0.3463 0.7080 0.6818
H151_5 H 0.6818 0.8463 0.7920
H152_6 H 0.3182 0.7080 0.8463
H153_4 H 0.3182 0.6537 0.7080
H154_5 H 0.7080 0.8182 0.8463
H155_6 H 0.2920 0.6537 0.8182
H156_4 H 0.2920 0.6818 0.6537
Pb5_8 Pb 0.0000 0.777556(14) 0.693721(17)
Pb6_8 Pb 0.0000 0.693721(17) 0.722444(14)
Pb9_8 Pb 0.0000 0.806279(17) 0.777556(14)
Pb11_6 Pb 0.806279(17) 0.0000 0.722444(14)
Pb12_10 Pb 0.693721(17) 0.0000 0.222444(14)
O1_6 O 0.76176(15) 0.69861(16) 0.53048(13)
O2_6 O 0.73869(16) 0.66067(17) 0.53390(14)
O3_10 O 0.7500 0.7500 0.5000
C1_6 C 0.7577(2) 0.6758(3) 0.54140(18)
C2_6 C 0.77590(18) 0.6661(2) 0.56436(17)
C3_6 C 0.7977(2) 0.6825(2) 0.57228(18)
H1_6 H 0.8013 0.6989 0.5633
C4_6 C 0.81435(17) 0.6738(2) 0.59435(18)
C5_6 C 0.80869(17) 0.64954(19) 0.60817(17)
C6_6 C 0.78670(19) 0.6338(2) 0.59926(19)
H2_6 H 0.7825 0.6175 0.6083
C7_6 C 0.77112(18) 0.6417(2) 0.57743(19)
H3_6 H 0.7571 0.6304 0.5713
C8_6 C 0.8400(2) 0.6872(2) 0.6047(2)
C9_6 C 0.84777(18) 0.66844(18) 0.62799(17)
C10_6 C 0.82905(17) 0.64657(17) 0.63066(17)
C11_6 C 0.8618(3) 0.6867(3) 0.5806(3)
H4_6 H 0.8548 0.6973 0.5653
H5_6 H 0.8785 0.6955 0.5869
C12_6 C 0.8691(3) 0.6576(4) 0.5701(3)
H6_6 H 0.8734 0.6460 0.5854
H7_6 H 0.8847 0.6587 0.5581
H8_6 H 0.8538 0.6501 0.5603
C13_6 C 0.8325(3) 0.7167(3) 0.6151(3)
H9_6 H 0.8492 0.7256 0.6214
H10_6 H 0.8256 0.7273 0.5998
C14_6 C 0.8115(3) 0.7180(3) 0.6382(3)
H11_6 H 0.7946 0.7101 0.6321
H12_6 H 0.8085 0.7368 0.6433
H13_6 H 0.8182 0.7080 0.6537
Pb2_7 Pb 0.806279(17) 0.722444(14) 0.5000
Pb5_9 Pb 1.0000 0.777556(14) 0.693721(17)
Pb6_9 Pb 1.0000 0.693721(17) 0.722444(14)
Pb7_8 Pb 0.806279(17) 0.5000 0.777556(14)
Pb9_9 Pb 1.0000 0.806279(17) 0.777556(14)
Pb11_7 Pb 0.806279(17) 1.0000 0.722444(14)
Pb12_11 Pb 0.693721(17) 1.0000 0.222444(14)
O4_7 O 0.69861(16) 0.73824(15) 0.53048(13)
O5_6 O 0.76176(15) 0.69861(16) 0.46952(13)
O7_6 O 0.80139(16) 0.76176(15) 0.53048(13)
O8_7 O 0.80139(16) 0.76176(15) 0.46952(13)
O9_7 O 0.73824(15) 0.80139(16) 0.46952(13)
O11_6 O 0.96952(13) 0.73824(15) 0.69861(16)
O12_6 O 0.80139(16) 0.53048(13) 0.73824(15)
O13_6 O 0.96952(13) 0.80139(16) 0.73824(15)
O14_5 O 0.76176(15) 0.96952(13) 0.69861(16)
O15_7 O 0.69861(16) 0.96952(13) 0.26176(15)
O19_6 O 0.73869(16) 0.66067(17) 0.46610(14)
O20_6 O 0.83933(17) 0.73869(16) 0.53390(14)
O21_7 O 0.83933(17) 0.73869(16) 0.46610(14)
O22_7 O 0.66067(17) 0.76131(16) 0.53390(14)
O24_7 O 0.76131(16) 0.83933(17) 0.46610(14)
O26_6 O 0.96610(14) 0.76131(16) 0.66067(17)
O27_6 O 0.83933(17) 0.53390(14) 0.76131(16)
O28_6 O 0.96610(14) 0.83933(17) 0.76131(16)
O29_5 O 0.73869(16) 0.96610(14) 0.66067(17)
O30_7 O 0.66067(17) 0.96610(14) 0.23869(16)
C15_6 C 0.8242(3) 0.7577(2) 0.54140(18)
C16_7 C 0.7423(2) 0.8242(3) 0.45860(18)
C18_6 C 0.95860(18) 0.7423(2) 0.6758(3)
C19_6 C 0.8242(3) 0.54140(18) 0.7423(2)
C20_6 C 0.95860(18) 0.8242(3) 0.7423(2)
C21_6 C 0.7577(2) 0.95860(18) 0.6758(3)
C22_7 C 0.6758(3) 0.95860(18) 0.2577(2)
C23_7 C 0.54140(18) 0.7577(2) 0.3242(3)
C26_6 C 0.8339(2) 0.77590(18) 0.56436(17)
C27_7 C 0.72410(18) 0.8339(2) 0.43564(17)
C29_6 C 0.93564(17) 0.72410(18) 0.6661(2)
C30_6 C 0.8339(2) 0.56436(17) 0.72410(18)
C31_6 C 0.93564(17) 0.8339(2) 0.72410(18)
C32_6 C 0.77590(18) 0.93564(17) 0.6661(2)
C33_7 C 0.6661(2) 0.93564(17) 0.27590(18)
C34_7 C 0.56436(17) 0.77590(18) 0.3339(2)
C37_6 C 0.8175(2) 0.7977(2) 0.57228(18)
C38_7 C 0.7023(2) 0.8175(2) 0.42772(18)
C40_6 C 0.92772(18) 0.7023(2) 0.6825(2)
C41_6 C 0.8175(2) 0.57228(18) 0.7023(2)
C42_6 C 0.92772(18) 0.8175(2) 0.7023(2)
C43_6 C 0.7977(2) 0.92772(18) 0.6825(2)
C44_7 C 0.6825(2) 0.92772(18) 0.2977(2)
C45_7 C 0.57228(18) 0.7977(2) 0.3175(2)
H14_6 H 0.8011 0.8013 0.5633
H15_7 H 0.6987 0.8011 0.4367
H17_6 H 0.9367 0.6987 0.6989
H18_6 H 0.8011 0.5633 0.6987
H19_6 H 0.9367 0.8011 0.6987
H20_6 H 0.8013 0.9367 0.6989
H21_7 H 0.6989 0.9367 0.3013
H22_7 H 0.5633 0.8013 0.3011
C48_6 C 0.90565(18) 0.68565(17) 0.6738(2)
C49_6 C 0.8262(2) 0.59435(18) 0.68565(17)
C50_6 C 0.8262(2) 0.81435(17) 0.59435(18)
C51_7 C 0.68565(17) 0.8262(2) 0.40565(18)
C53_6 C 0.90565(18) 0.8262(2) 0.68565(17)
C54_6 C 0.81435(17) 0.90565(18) 0.6738(2)
C55_7 C 0.6738(2) 0.90565(18) 0.31435(17)
C56_7 C 0.59435(18) 0.81435(17) 0.3262(2)
C59_6 C 0.89183(17) 0.69131(17) 0.64954(19)
C60_6 C 0.85046(19) 0.60817(17) 0.69131(17)
C61_6 C 0.85046(19) 0.80869(17) 0.60817(17)
C62_7 C 0.69131(17) 0.85046(19) 0.39183(17)
C64_6 C 0.80869(17) 0.89183(17) 0.64954(19)
C65_7 C 0.60817(17) 0.80869(17) 0.35046(19)
C67_6 C 0.89183(17) 0.85046(19) 0.69131(17)
C68_7 C 0.64954(19) 0.89183(17) 0.30869(17)
C70_6 C 0.90074(19) 0.71330(19) 0.6338(2)
C71_6 C 0.8662(2) 0.59926(19) 0.71330(19)
C72_6 C 0.8662(2) 0.78670(19) 0.59926(19)
C73_7 C 0.71330(19) 0.8662(2) 0.40074(19)
C75_6 C 0.78670(19) 0.90074(19) 0.6338(2)
C76_7 C 0.59926(19) 0.78670(19) 0.3662(2)
C78_6 C 0.90074(19) 0.8662(2) 0.71330(19)
C79_7 C 0.6338(2) 0.90074(19) 0.28670(19)
H25_6 H 0.8917 0.7175 0.6175
H26_6 H 0.8825 0.6083 0.7175
H27_6 H 0.8825 0.7825 0.6083
H28_7 H 0.7175 0.8825 0.3917
H30_6 H 0.7825 0.8917 0.6175
H31_7 H 0.6083 0.7825 0.3825
H33_6 H 0.8917 0.8825 0.7175
H34_7 H 0.6175 0.8917 0.2825
C81_6 C 0.8583(2) 0.77112(18) 0.57743(19)
C82_7 C 0.72888(18) 0.8583(2) 0.42257(19)
C84_6 C 0.92257(19) 0.72888(18) 0.6417(2)
C85_6 C 0.8583(2) 0.57743(19) 0.72888(18)
C86_6 C 0.77112(18) 0.92257(19) 0.6417(2)
C87_7 C 0.57743(19) 0.77112(18) 0.3583(2)
C89_6 C 0.92257(19) 0.8583(2) 0.72888(18)
C90_7 C 0.6417(2) 0.92257(19) 0.27112(18)
H36_6 H 0.8696 0.7571 0.5713
H37_7 H 0.7429 0.8696 0.4287
H39_6 H 0.9287 0.7429 0.6304
H40_6 H 0.8696 0.5713 0.7429
H41_6 H 0.7571 0.9287 0.6304
H42_7 H 0.5713 0.7571 0.3696
H44_6 H 0.9287 0.8696 0.7429
H45_7 H 0.6304 0.9287 0.2571
C92_6 C 0.8128(2) 0.6047(2) 0.6600(2)
C93_6 C 0.8953(2) 0.6600(2) 0.6872(2)
C94_6 C 0.8128(2) 0.8400(2) 0.6047(2)
C95_7 C 0.6600(2) 0.8128(2) 0.3953(2)
C97_6 C 0.8953(2) 0.8128(2) 0.6600(2)
C98_7 C 0.6872(2) 0.8953(2) 0.3400(2)
C100_6 C 0.8400(2) 0.8953(2) 0.6872(2)
C101_7 C 0.6047(2) 0.8400(2) 0.3128(2)
C103_6 C 0.83156(18) 0.62799(17) 0.65223(18)
C104_6 C 0.87201(17) 0.65223(18) 0.66844(18)
C105_6 C 0.83156(18) 0.84777(18) 0.62799(17)
C106_7 C 0.65223(18) 0.83156(18) 0.37201(17)
C108_6 C 0.87201(17) 0.83156(18) 0.65223(18)
C109_7 C 0.66844(18) 0.87201(17) 0.34777(18)
C111_6 C 0.84777(18) 0.87201(17) 0.66844(18)
C112_7 C 0.62799(17) 0.84777(18) 0.33156(18)
C114_6 C 0.86934(17) 0.67095(17) 0.64657(17)
C115_6 C 0.85343(17) 0.63066(17) 0.67095(17)
C116_6 C 0.85343(17) 0.82905(17) 0.63066(17)
C117_7 C 0.67095(17) 0.85343(17) 0.36934(17)
C119_6 C 0.82905(17) 0.86934(17) 0.64657(17)
C120_7 C 0.63066(17) 0.82905(17) 0.35343(17)
C122_6 C 0.86934(17) 0.85343(17) 0.67095(17)
C123_7 C 0.64657(17) 0.86934(17) 0.32905(17)
C125_6 C 0.8133(3) 0.5806(3) 0.6382(3)
C126_6 C 0.9194(3) 0.6382(3) 0.6867(3)
C127_6 C 0.8133(3) 0.8618(3) 0.5806(3)
C128_7 C 0.6382(3) 0.8133(3) 0.4194(3)
C130_6 C 0.9194(3) 0.8133(3) 0.6382(3)
C131_7 C 0.6867(3) 0.9194(3) 0.3618(3)
C133_6 C 0.8618(3) 0.9194(3) 0.6867(3)
C134_7 C 0.5806(3) 0.8618(3) 0.3133(3)
H47_6 H 0.8027 0.5653 0.6452
H48_6 H 0.9347 0.6452 0.6973
H49_6 H 0.8027 0.8548 0.5653
H50_7 H 0.6452 0.8027 0.4347
H52_6 H 0.9347 0.8027 0.6452
H53_7 H 0.6973 0.9347 0.3548
H55_6 H 0.8548 0.9347 0.6973
H56_7 H 0.5653 0.8548 0.3027
H58_6 H 0.8045 0.5869 0.6215
H59_6 H 0.9131 0.6215 0.6955
H60_6 H 0.8045 0.8785 0.5869
H61_7 H 0.6215 0.8045 0.4131
H63_6 H 0.9131 0.8045 0.6215
H64_7 H 0.6955 0.9131 0.3785
H66_6 H 0.8785 0.9131 0.6955
H67_7 H 0.5869 0.8785 0.3045
C136_6 C 0.8424(4) 0.5701(3) 0.6309(3)
C137_6 C 0.9299(3) 0.6309(3) 0.6576(4)
C138_6 C 0.8424(4) 0.8691(3) 0.5701(3)
C139_7 C 0.6309(3) 0.8424(4) 0.4299(3)
C141_6 C 0.9299(3) 0.8424(4) 0.6309(3)
C142_7 C 0.6576(4) 0.9299(3) 0.3691(3)
C144_6 C 0.8691(3) 0.9299(3) 0.6576(4)
C145_7 C 0.5701(3) 0.8691(3) 0.3424(4)
H69_6 H 0.8540 0.5854 0.6266
H70_6 H 0.9146 0.6266 0.6460
H71_6 H 0.8540 0.8734 0.5854
H72_7 H 0.6266 0.8540 0.4146
H74_6 H 0.9146 0.8540 0.6266
H75_7 H 0.6460 0.9146 0.3734
H77_6 H 0.8734 0.9146 0.6460
H78_7 H 0.5854 0.8734 0.3540
H80_6 H 0.8413 0.5581 0.6153
H81_6 H 0.9419 0.6153 0.6587
H82_6 H 0.8413 0.8847 0.5581
H83_7 H 0.6153 0.8413 0.4419
H85_6 H 0.9419 0.8413 0.6153
H86_7 H 0.6587 0.9419 0.3847
H88_6 H 0.8847 0.9419 0.6587
H89_7 H 0.5581 0.8847 0.3413
H91_6 H 0.8499 0.5603 0.6462
H92_6 H 0.9397 0.6462 0.6501
H93_6 H 0.8499 0.8538 0.5603
H94_7 H 0.6462 0.8499 0.4397
H96_6 H 0.9397 0.8499 0.6462
H97_7 H 0.6501 0.9397 0.3538
H99_6 H 0.8538 0.9397 0.6501
H100_7 H 0.5603 0.8538 0.3499
C147_6 C 0.7833(3) 0.6151(3) 0.6675(3)
C148_6 C 0.8849(3) 0.6675(3) 0.7167(3)
C149_6 C 0.7833(3) 0.8325(3) 0.6151(3)
C150_7 C 0.6675(3) 0.7833(3) 0.3849(3)
C152_6 C 0.8849(3) 0.7833(3) 0.6675(3)
C153_7 C 0.7167(3) 0.8849(3) 0.3325(3)
C155_6 C 0.8325(3) 0.8849(3) 0.7167(3)
C156_7 C 0.6151(3) 0.8325(3) 0.2833(3)
H102_6 H 0.7744 0.6214 0.6508
H103_6 H 0.8786 0.6508 0.7256
H104_6 H 0.7744 0.8492 0.6214
H105_7 H 0.6508 0.7744 0.3786
H107_6 H 0.8786 0.7744 0.6508
H108_7 H 0.7256 0.8786 0.3492
H110_6 H 0.8492 0.8786 0.7256
H111_7 H 0.6214 0.8492 0.2744
H113_6 H 0.7727 0.5998 0.6744
H114_6 H 0.9002 0.6744 0.7273
H115_6 H 0.7727 0.8256 0.5998
H116_7 H 0.6744 0.7727 0.4002
H118_6 H 0.9002 0.7727 0.6744
H119_7 H 0.7273 0.9002 0.3256
H121_6 H 0.8256 0.9002 0.7273
H122_7 H 0.5998 0.8256 0.2727
C158_6 C 0.7820(3) 0.6382(3) 0.6885(3)
C159_6 C 0.8618(3) 0.6885(3) 0.7180(3)
C160_6 C 0.7820(3) 0.8115(3) 0.6382(3)
C161_7 C 0.6885(3) 0.7820(3) 0.3618(3)
C163_6 C 0.8618(3) 0.7820(3) 0.6885(3)
C164_7 C 0.7180(3) 0.8618(3) 0.3115(3)
C166_6 C 0.8115(3) 0.8618(3) 0.7180(3)
C167_7 C 0.6382(3) 0.8115(3) 0.2820(3)
H124_6 H 0.7899 0.6321 0.7054
H125_6 H 0.8679 0.7054 0.7101
H126_6 H 0.7899 0.7946 0.6321
H127_7 H 0.7054 0.7899 0.3679
H129_6 H 0.8679 0.7899 0.7054
H130_7 H 0.7101 0.8679 0.2946
H132_6 H 0.7946 0.8679 0.7101
H133_7 H 0.6321 0.7946 0.2899
H135_6 H 0.7632 0.6433 0.6915
H136_6 H 0.8567 0.6915 0.7368
H137_6 H 0.7632 0.8085 0.6433
H138_7 H 0.6915 0.7632 0.3567
H140_6 H 0.8567 0.7632 0.6915
H141_7 H 0.7368 0.8567 0.3085
H143_6 H 0.8085 0.8567 0.7368
H144_7 H 0.6433 0.8085 0.2632
H146_6 H 0.7920 0.6537 0.6818
H147_6 H 0.8463 0.6818 0.7080
H148_6 H 0.7920 0.8182 0.6537
H149_7 H 0.6818 0.7920 0.3463
H151_6 H 0.8463 0.7920 0.6818
H152_7 H 0.7080 0.8463 0.3182
H154_6 H 0.8182 0.8463 0.7080
H155_7 H 0.6537 0.8182 0.2920
O1_7 O 0.23824(15) 0.69861(16) 0.46952(13)
O2_7 O 0.26131(16) 0.66067(17) 0.46610(14)
O3_11 O 0.2500 0.7500 0.5000
C1_7 C 0.2423(2) 0.6758(3) 0.45860(18)
C2_7 C 0.22410(18) 0.6661(2) 0.43564(17)
C3_7 C 0.2023(2) 0.6825(2) 0.42772(18)
H1_7 H 0.1987 0.6989 0.4367
C4_7 C 0.18565(17) 0.6738(2) 0.40565(18)
C5_7 C 0.19131(17) 0.64954(19) 0.39183(17)
C6_7 C 0.21330(19) 0.6338(2) 0.40074(19)
H2_7 H 0.2175 0.6175 0.3917
C7_7 C 0.22888(18) 0.6417(2) 0.42257(19)
H3_7 H 0.2429 0.6304 0.4287
C8_7 C 0.1600(2) 0.6872(2) 0.3953(2)
C9_7 C 0.15223(18) 0.66844(18) 0.37201(17)
C10_7 C 0.17095(17) 0.64657(17) 0.36934(17)
C11_7 C 0.1382(3) 0.6867(3) 0.4194(3)
H4_7 H 0.1452 0.6973 0.4347
H5_7 H 0.1215 0.6955 0.4131
C12_7 C 0.1309(3) 0.6576(4) 0.4299(3)
H6_7 H 0.1266 0.6460 0.4146
H7_7 H 0.1153 0.6587 0.4419
H8_7 H 0.1462 0.6501 0.4397
C13_7 C 0.1675(3) 0.7167(3) 0.3849(3)
H9_7 H 0.1508 0.7256 0.3786
H10_7 H 0.1744 0.7273 0.4002
C14_7 C 0.1885(3) 0.7180(3) 0.3618(3)
H11_7 H 0.2054 0.7101 0.3679
H12_7 H 0.1915 0.7368 0.3567
H13_7 H 0.1818 0.7080 0.3463
Pb2_8 Pb 0.193721(17) 0.722444(14) 0.5000
Pb5_10 Pb -0.0000 0.777556(14) 0.306279(17)
Pb6_10 Pb -0.0000 0.693721(17) 0.277556(14)
Pb8_8 Pb 0.222444(14) 0.5000 0.306279(17)
Pb9_10 Pb -0.0000 0.806279(17) 0.222444(14)
O4_8 O 0.30139(16) 0.73824(15) 0.46952(13)
O5_7 O 0.23824(15) 0.69861(16) 0.53048(13)
O7_7 O 0.19861(16) 0.76176(15) 0.46952(13)
O8_8 O 0.19861(16) 0.76176(15) 0.53048(13)
O9_8 O 0.26176(15) 0.80139(16) 0.53048(13)
O11_7 O 0.03048(13) 0.73824(15) 0.30139(16)
O12_7 O 0.19861(16) 0.53048(13) 0.26176(15)
O13_7 O 0.03048(13) 0.80139(16) 0.26176(15)
O15_8 O 0.30139(16) 0.96952(13) 0.73824(15)
O19_7 O 0.26131(16) 0.66067(17) 0.53390(14)
O20_7 O 0.16067(17) 0.73869(16) 0.46610(14)
O21_8 O 0.16067(17) 0.73869(16) 0.53390(14)
O22_8 O 0.33933(17) 0.76131(16) 0.46610(14)
O24_8 O 0.23869(16) 0.83933(17) 0.53390(14)
O26_7 O 0.03390(14) 0.76131(16) 0.33933(17)
O27_7 O 0.16067(17) 0.53390(14) 0.23869(16)
O28_7 O 0.03390(14) 0.83933(17) 0.23869(16)
O30_8 O 0.33933(17) 0.96610(14) 0.76131(16)
C15_7 C 0.1758(3) 0.7577(2) 0.45860(18)
C16_8 C 0.2577(2) 0.8242(3) 0.54140(18)
C18_7 C 0.04140(18) 0.7423(2) 0.3242(3)
C19_7 C 0.1758(3) 0.54140(18) 0.2577(2)
C20_7 C 0.04140(18) 0.8242(3) 0.2577(2)
C21_7 C 0.2423(2) 0.95860(18) 0.3242(3)
C22_8 C 0.3242(3) 0.95860(18) 0.7423(2)
C23_8 C 0.45860(18) 0.7577(2) 0.6758(3)
C26_7 C 0.1661(2) 0.77590(18) 0.43564(17)
C27_8 C 0.27590(18) 0.8339(2) 0.56436(17)
C29_7 C 0.06436(17) 0.72410(18) 0.3339(2)
C30_7 C 0.1661(2) 0.56436(17) 0.27590(18)
C31_7 C 0.06436(17) 0.8339(2) 0.27590(18)
C32_7 C 0.22410(18) 0.93564(17) 0.3339(2)
C33_8 C 0.3339(2) 0.93564(17) 0.72410(18)
C34_8 C 0.43564(17) 0.77590(18) 0.6661(2)
C37_7 C 0.1825(2) 0.7977(2) 0.42772(18)
C38_8 C 0.2977(2) 0.8175(2) 0.57228(18)
C40_7 C 0.07228(18) 0.7023(2) 0.3175(2)
C41_7 C 0.1825(2) 0.57228(18) 0.2977(2)
C42_7 C 0.07228(18) 0.8175(2) 0.2977(2)
C43_7 C 0.2023(2) 0.92772(18) 0.3175(2)
C44_8 C 0.3175(2) 0.92772(18) 0.7023(2)
C45_8 C 0.42772(18) 0.7977(2) 0.6825(2)
H14_7 H 0.1989 0.8013 0.4367
H15_8 H 0.3013 0.8011 0.5633
H17_7 H 0.0633 0.6987 0.3011
H18_7 H 0.1989 0.5633 0.3013
H19_7 H 0.0633 0.8011 0.3013
H20_7 H 0.1987 0.9367 0.3011
H21_8 H 0.3011 0.9367 0.6987
H22_8 H 0.4367 0.8013 0.6989
C48_7 C 0.09435(18) 0.68565(17) 0.3262(2)
C49_7 C 0.1738(2) 0.59435(18) 0.31435(17)
C50_7 C 0.1738(2) 0.81435(17) 0.40565(18)
C51_8 C 0.31435(17) 0.8262(2) 0.59435(18)
C53_7 C 0.09435(18) 0.8262(2) 0.31435(17)
C54_7 C 0.18565(17) 0.90565(18) 0.3262(2)
C55_8 C 0.3262(2) 0.90565(18) 0.68565(17)
C56_8 C 0.40565(18) 0.81435(17) 0.6738(2)
C59_7 C 0.10817(17) 0.69131(17) 0.35046(19)
C60_7 C 0.14954(19) 0.60817(17) 0.30869(17)
C61_7 C 0.14954(19) 0.80869(17) 0.39183(17)
C62_8 C 0.30869(17) 0.85046(19) 0.60817(17)
C64_7 C 0.19131(17) 0.89183(17) 0.35046(19)
C65_8 C 0.39183(17) 0.80869(17) 0.64954(19)
C67_7 C 0.10817(17) 0.85046(19) 0.30869(17)
C68_8 C 0.35046(19) 0.89183(17) 0.69131(17)
C70_7 C 0.09926(19) 0.71330(19) 0.3662(2)
C71_7 C 0.1338(2) 0.59926(19) 0.28670(19)
C72_7 C 0.1338(2) 0.78670(19) 0.40074(19)
C73_8 C 0.28670(19) 0.8662(2) 0.59926(19)
C75_7 C 0.21330(19) 0.90074(19) 0.3662(2)
C76_8 C 0.40074(19) 0.78670(19) 0.6338(2)
C78_7 C 0.09926(19) 0.8662(2) 0.28670(19)
C79_8 C 0.3662(2) 0.90074(19) 0.71330(19)
H25_7 H 0.1083 0.7175 0.3825
H26_7 H 0.1175 0.6083 0.2825
H27_7 H 0.1175 0.7825 0.3917
H28_8 H 0.2825 0.8825 0.6083
H30_7 H 0.2175 0.8917 0.3825
H31_8 H 0.3917 0.7825 0.6175
H33_7 H 0.1083 0.8825 0.2825
H34_8 H 0.3825 0.8917 0.7175
C81_7 C 0.1417(2) 0.77112(18) 0.42257(19)
C82_8 C 0.27112(18) 0.8583(2) 0.57743(19)
C84_7 C 0.07743(19) 0.72888(18) 0.3583(2)
C85_7 C 0.1417(2) 0.57743(19) 0.27112(18)
C86_7 C 0.22888(18) 0.92257(19) 0.3583(2)
C87_8 C 0.42257(19) 0.77112(18) 0.6417(2)
C89_7 C 0.07743(19) 0.8583(2) 0.27112(18)
C90_8 C 0.3583(2) 0.92257(19) 0.72888(18)
H36_7 H 0.1304 0.7571 0.4287
H37_8 H 0.2571 0.8696 0.5713
H39_7 H 0.0713 0.7429 0.3696
H40_7 H 0.1304 0.5713 0.2571
H41_7 H 0.2429 0.9287 0.3696
H42_8 H 0.4287 0.7571 0.6304
H44_7 H 0.0713 0.8696 0.2571
H45_8 H 0.3696 0.9287 0.7429
C92_7 C 0.1872(2) 0.6047(2) 0.3400(2)
C93_7 C 0.1047(2) 0.6600(2) 0.3128(2)
C94_7 C 0.1872(2) 0.8400(2) 0.3953(2)
C95_8 C 0.3400(2) 0.8128(2) 0.6047(2)
C97_7 C 0.1047(2) 0.8128(2) 0.3400(2)
C98_8 C 0.3128(2) 0.8953(2) 0.6600(2)
C100_7 C 0.1600(2) 0.8953(2) 0.3128(2)
C101_8 C 0.3953(2) 0.8400(2) 0.6872(2)
C103_7 C 0.16844(18) 0.62799(17) 0.34777(18)
C104_7 C 0.12799(17) 0.65223(18) 0.33156(18)
C105_7 C 0.16844(18) 0.84777(18) 0.37201(17)
C106_8 C 0.34777(18) 0.83156(18) 0.62799(17)
C108_7 C 0.12799(17) 0.83156(18) 0.34777(18)
C109_8 C 0.33156(18) 0.87201(17) 0.65223(18)
C111_7 C 0.15223(18) 0.87201(17) 0.33156(18)
C112_8 C 0.37201(17) 0.84777(18) 0.66844(18)
C114_7 C 0.13066(17) 0.67095(17) 0.35343(17)
C115_7 C 0.14657(17) 0.63066(17) 0.32905(17)
C116_7 C 0.14657(17) 0.82905(17) 0.36934(17)
C117_8 C 0.32905(17) 0.85343(17) 0.63066(17)
C119_7 C 0.17095(17) 0.86934(17) 0.35343(17)
C120_8 C 0.36934(17) 0.82905(17) 0.64657(17)
C122_7 C 0.13066(17) 0.85343(17) 0.32905(17)
C123_8 C 0.35343(17) 0.86934(17) 0.67095(17)
C125_7 C 0.1867(3) 0.5806(3) 0.3618(3)
C126_7 C 0.0806(3) 0.6382(3) 0.3133(3)
C127_7 C 0.1867(3) 0.8618(3) 0.4194(3)
C128_8 C 0.3618(3) 0.8133(3) 0.5806(3)
C130_7 C 0.0806(3) 0.8133(3) 0.3618(3)
C131_8 C 0.3133(3) 0.9194(3) 0.6382(3)
C133_7 C 0.1382(3) 0.9194(3) 0.3133(3)
C134_8 C 0.4194(3) 0.8618(3) 0.6867(3)
H47_7 H 0.1973 0.5653 0.3548
H48_7 H 0.0653 0.6452 0.3027
H49_7 H 0.1973 0.8548 0.4347
H50_8 H 0.3548 0.8027 0.5653
H52_7 H 0.0653 0.8027 0.3548
H53_8 H 0.3027 0.9347 0.6452
H55_7 H 0.1452 0.9347 0.3027
H56_8 H 0.4347 0.8548 0.6973
H58_7 H 0.1955 0.5869 0.3785
H59_7 H 0.0869 0.6215 0.3045
H60_7 H 0.1955 0.8785 0.4131
H61_8 H 0.3785 0.8045 0.5869
H63_7 H 0.0869 0.8045 0.3785
H64_8 H 0.3045 0.9131 0.6215
H66_7 H 0.1215 0.9131 0.3045
H67_8 H 0.4131 0.8785 0.6955
C136_7 C 0.1576(4) 0.5701(3) 0.3691(3)
C137_7 C 0.0701(3) 0.6309(3) 0.3424(4)
C138_7 C 0.1576(4) 0.8691(3) 0.4299(3)
C139_8 C 0.3691(3) 0.8424(4) 0.5701(3)
C141_7 C 0.0701(3) 0.8424(4) 0.3691(3)
C142_8 C 0.3424(4) 0.9299(3) 0.6309(3)
C144_7 C 0.1309(3) 0.9299(3) 0.3424(4)
C145_8 C 0.4299(3) 0.8691(3) 0.6576(4)
H69_7 H 0.1460 0.5854 0.3734
H70_7 H 0.0854 0.6266 0.3540
H71_7 H 0.1460 0.8734 0.4146
H72_8 H 0.3734 0.8540 0.5854
H74_7 H 0.0854 0.8540 0.3734
H75_8 H 0.3540 0.9146 0.6266
H77_7 H 0.1266 0.9146 0.3540
H78_8 H 0.4146 0.8734 0.6460
H80_7 H 0.1587 0.5581 0.3847
H81_7 H 0.0581 0.6153 0.3413
H82_7 H 0.1587 0.8847 0.4419
H83_8 H 0.3847 0.8413 0.5581
H85_7 H 0.0581 0.8413 0.3847
H86_8 H 0.3413 0.9419 0.6153
H88_7 H 0.1153 0.9419 0.3413
H89_8 H 0.4419 0.8847 0.6587
H91_7 H 0.1501 0.5603 0.3538
H92_7 H 0.0603 0.6462 0.3499
H93_7 H 0.1501 0.8538 0.4397
H94_8 H 0.3538 0.8499 0.5603
H96_7 H 0.0603 0.8499 0.3538
H97_8 H 0.3499 0.9397 0.6462
H99_7 H 0.1462 0.9397 0.3499
H100_8 H 0.4397 0.8538 0.6501
C147_7 C 0.2167(3) 0.6151(3) 0.3325(3)
C148_7 C 0.1151(3) 0.6675(3) 0.2833(3)
C149_7 C 0.2167(3) 0.8325(3) 0.3849(3)
C150_8 C 0.3325(3) 0.7833(3) 0.6151(3)
C152_7 C 0.1151(3) 0.7833(3) 0.3325(3)
C153_8 C 0.2833(3) 0.8849(3) 0.6675(3)
C155_7 C 0.1675(3) 0.8849(3) 0.2833(3)
C156_8 C 0.3849(3) 0.8325(3) 0.7167(3)
H102_7 H 0.2256 0.6214 0.3492
H103_7 H 0.1214 0.6508 0.2744
H104_7 H 0.2256 0.8492 0.3786
H105_8 H 0.3492 0.7744 0.6214
H107_7 H 0.1214 0.7744 0.3492
H108_8 H 0.2744 0.8786 0.6508
H110_7 H 0.1508 0.8786 0.2744
H111_8 H 0.3786 0.8492 0.7256
H113_7 H 0.2273 0.5998 0.3256
H114_7 H 0.0998 0.6744 0.2727
H115_7 H 0.2273 0.8256 0.4002
H116_8 H 0.3256 0.7727 0.5998
H118_7 H 0.0998 0.7727 0.3256
H119_8 H 0.2727 0.9002 0.6744
H121_7 H 0.1744 0.9002 0.2727
H122_8 H 0.4002 0.8256 0.7273
C158_7 C 0.2180(3) 0.6382(3) 0.3115(3)
C159_7 C 0.1382(3) 0.6885(3) 0.2820(3)
C160_7 C 0.2180(3) 0.8115(3) 0.3618(3)
C161_8 C 0.3115(3) 0.7820(3) 0.6382(3)
C163_7 C 0.1382(3) 0.7820(3) 0.3115(3)
C164_8 C 0.2820(3) 0.8618(3) 0.6885(3)
C166_7 C 0.1885(3) 0.8618(3) 0.2820(3)
C167_8 C 0.3618(3) 0.8115(3) 0.7180(3)
H124_7 H 0.2101 0.6321 0.2946
H125_7 H 0.1321 0.7054 0.2899
H126_7 H 0.2101 0.7946 0.3679
H127_8 H 0.2946 0.7899 0.6321
H129_7 H 0.1321 0.7899 0.2946
H130_8 H 0.2899 0.8679 0.7054
H132_7 H 0.2054 0.8679 0.2899
H133_8 H 0.3679 0.7946 0.7101
H135_7 H 0.2368 0.6433 0.3085
H136_7 H 0.1433 0.6915 0.2632
H137_7 H 0.2368 0.8085 0.3567
H138_8 H 0.3085 0.7632 0.6433
H140_7 H 0.1433 0.7632 0.3085
H141_8 H 0.2632 0.8567 0.6915
H143_7 H 0.1915 0.8567 0.2632
H144_8 H 0.3567 0.8085 0.7368
H146_7 H 0.2080 0.6537 0.3182
H147_7 H 0.1537 0.6818 0.2920
H148_7 H 0.2080 0.8182 0.3463
H149_8 H 0.3182 0.7920 0.6537
H151_7 H 0.1537 0.7920 0.3182
H152_8 H 0.2920 0.8463 0.6818
H154_7 H 0.1818 0.8463 0.2920
H155_8 H 0.3463 0.8182 0.7080
Pb5_11 Pb 1.0000 0.777556(14) 0.306279(17)
Pb6_11 Pb 1.0000 0.693721(17) 0.277556(14)
Pb9_11 Pb 1.0000 0.806279(17) 0.222444(14)
O3_12 O 0.7500 0.2500 0.5000
O4_9 O 0.69861(16) 0.26176(15) 0.46952(13)
O5_8 O 0.76176(15) 0.30139(16) 0.53048(13)
O8_9 O 0.80139(16) 0.23824(15) 0.53048(13)
O9_9 O 0.73824(15) 0.19861(16) 0.53048(13)
O10_6 O 0.73824(15) 0.19861(16) 0.46952(13)
O15_9 O 0.69861(16) 0.03048(13) 0.73824(15)
O19_8 O 0.73869(16) 0.33933(17) 0.53390(14)
O21_9 O 0.83933(17) 0.26131(16) 0.53390(14)
O22_9 O 0.66067(17) 0.23869(16) 0.46610(14)
O24_9 O 0.76131(16) 0.16067(17) 0.53390(14)
O25_6 O 0.76131(16) 0.16067(17) 0.46610(14)
O30_9 O 0.66067(17) 0.03390(14) 0.76131(16)
C16_9 C 0.7423(2) 0.1758(3) 0.54140(18)
C22_9 C 0.6758(3) 0.04140(18) 0.7423(2)
C23_9 C 0.54140(18) 0.2423(2) 0.6758(3)
C27_9 C 0.72410(18) 0.1661(2) 0.56436(17)
C33_9 C 0.6661(2) 0.06436(17) 0.72410(18)
C34_9 C 0.56436(17) 0.22410(18) 0.6661(2)
C38_9 C 0.7023(2) 0.1825(2) 0.57228(18)
C44_9 C 0.6825(2) 0.07228(18) 0.7023(2)
C45_9 C 0.57228(18) 0.2023(2) 0.6825(2)
H15_9 H 0.6987 0.1989 0.5633
H21_9 H 0.6989 0.0633 0.6987
H22_9 H 0.5633 0.1987 0.6989
C51_9 C 0.68565(17) 0.1738(2) 0.59435(18)
C55_9 C 0.6738(2) 0.09435(18) 0.68565(17)
C56_9 C 0.59435(18) 0.18565(17) 0.6738(2)
C62_9 C 0.69131(17) 0.14954(19) 0.60817(17)
C65_9 C 0.60817(17) 0.19131(17) 0.64954(19)
C68_9 C 0.64954(19) 0.10817(17) 0.69131(17)
C73_9 C 0.71330(19) 0.1338(2) 0.59926(19)
C76_9 C 0.59926(19) 0.21330(19) 0.6338(2)
C79_9 C 0.6338(2) 0.09926(19) 0.71330(19)
H28_9 H 0.7175 0.1175 0.6083
H31_9 H 0.6083 0.2175 0.6175
H34_9 H 0.6175 0.1083 0.7175
C82_9 C 0.72888(18) 0.1417(2) 0.57743(19)
C87_9 C 0.57743(19) 0.22888(18) 0.6417(2)
C90_9 C 0.6417(2) 0.07743(19) 0.72888(18)
H37_9 H 0.7429 0.1304 0.5713
H42_9 H 0.5713 0.2429 0.6304
H45_9 H 0.6304 0.0713 0.7429
C95_9 C 0.6600(2) 0.1872(2) 0.6047(2)
C98_9 C 0.6872(2) 0.1047(2) 0.6600(2)
C101_9 C 0.6047(2) 0.1600(2) 0.6872(2)
C106_9 C 0.65223(18) 0.16844(18) 0.62799(17)
C109_9 C 0.66844(18) 0.12799(17) 0.65223(18)
C112_9 C 0.62799(17) 0.15223(18) 0.66844(18)
C117_9 C 0.67095(17) 0.14657(17) 0.63066(17)
C120_9 C 0.63066(17) 0.17095(17) 0.64657(17)
C123_9 C 0.64657(17) 0.13066(17) 0.67095(17)
C128_9 C 0.6382(3) 0.1867(3) 0.5806(3)
C131_9 C 0.6867(3) 0.0806(3) 0.6382(3)
C134_9 C 0.5806(3) 0.1382(3) 0.6867(3)
H50_9 H 0.6452 0.1973 0.5653
H53_9 H 0.6973 0.0653 0.6452
H56_9 H 0.5653 0.1452 0.6973
H61_9 H 0.6215 0.1955 0.5869
H64_9 H 0.6955 0.0869 0.6215
H67_9 H 0.5869 0.1215 0.6955
C139_9 C 0.6309(3) 0.1576(4) 0.5701(3)
C142_9 C 0.6576(4) 0.0701(3) 0.6309(3)
C145_9 C 0.5701(3) 0.1309(3) 0.6576(4)
H72_9 H 0.6266 0.1460 0.5854
H75_9 H 0.6460 0.0854 0.6266
H78_9 H 0.5854 0.1266 0.6460
H83_9 H 0.6153 0.1587 0.5581
H86_9 H 0.6587 0.0581 0.6153
H89_9 H 0.5581 0.1153 0.6587
H94_9 H 0.6462 0.1501 0.5603
H97_9 H 0.6501 0.0603 0.6462
H100_9 H 0.5603 0.1462 0.6501
C150_9 C 0.6675(3) 0.2167(3) 0.6151(3)
C153_9 C 0.7167(3) 0.1151(3) 0.6675(3)
C156_9 C 0.6151(3) 0.1675(3) 0.7167(3)
H105_9 H 0.6508 0.2256 0.6214
H108_9 H 0.7256 0.1214 0.6508
H111_9 H 0.6214 0.1508 0.7256
H116_9 H 0.6744 0.2273 0.5998
H119_9 H 0.7273 0.0998 0.6744
H122_9 H 0.5998 0.1744 0.7273
C161_9 C 0.6885(3) 0.2180(3) 0.6382(3)
C164_9 C 0.7180(3) 0.1382(3) 0.6885(3)
C167_9 C 0.6382(3) 0.1885(3) 0.7180(3)
H127_9 H 0.7054 0.2101 0.6321
H130_9 H 0.7101 0.1321 0.7054
H133_9 H 0.6321 0.2054 0.7101
H138_9 H 0.6915 0.2368 0.6433
H141_9 H 0.7368 0.1433 0.6915
H144_9 H 0.6433 0.1915 0.7368
H149_9 H 0.6818 0.2080 0.6537
H152_9 H 0.7080 0.1537 0.6818
H155_9 H 0.6537 0.1818 0.7080
O1_8 O 0.69861(16) 0.46952(13) 0.23824(15)
O2_8 O 0.66067(17) 0.46610(14) 0.26131(16)
O3_13 O 0.7500 0.5000 0.2500
C1_8 C 0.6758(3) 0.45860(18) 0.2423(2)
C2_8 C 0.6661(2) 0.43564(17) 0.22410(18)
C3_8 C 0.6825(2) 0.42772(18) 0.2023(2)
H1_8 H 0.6989 0.4367 0.1987
C4_8 C 0.6738(2) 0.40565(18) 0.18565(17)
C5_8 C 0.64954(19) 0.39183(17) 0.19131(17)
C6_8 C 0.6338(2) 0.40074(19) 0.21330(19)
H2_8 H 0.6175 0.3917 0.2175
C7_8 C 0.6417(2) 0.42257(19) 0.22888(18)
H3_8 H 0.6304 0.4287 0.2429
C8_8 C 0.6872(2) 0.3953(2) 0.1600(2)
C9_8 C 0.66844(18) 0.37201(17) 0.15223(18)
C10_8 C 0.64657(17) 0.36934(17) 0.17095(17)
C11_8 C 0.6867(3) 0.4194(3) 0.1382(3)
H4_8 H 0.6973 0.4347 0.1452
H5_8 H 0.6955 0.4131 0.1215
C12_8 C 0.6576(4) 0.4299(3) 0.1309(3)
H6_8 H 0.6460 0.4146 0.1266
H7_8 H 0.6587 0.4419 0.1153
H8_8 H 0.6501 0.4397 0.1462
C13_8 C 0.7167(3) 0.3849(3) 0.1675(3)
H9_8 H 0.7256 0.3786 0.1508
H10_8 H 0.7273 0.4002 0.1744
C14_8 C 0.7180(3) 0.3618(3) 0.1885(3)
H11_8 H 0.7101 0.3679 0.2054
H12_8 H 0.7368 0.3567 0.1915
H13_8 H 0.7080 0.3463 0.1818
Pb8_9 Pb 0.5000 0.306279(17) 0.222444(14)
Pb9_12 Pb 0.806279(17) 0.222444(14) -0.0000
O4_10 O 0.73824(15) 0.46952(13) 0.30139(16)
O7_8 O 0.76176(15) 0.46952(13) 0.19861(16)
O8_10 O 0.76176(15) 0.53048(13) 0.19861(16)
O9_10 O 0.80139(16) 0.53048(13) 0.26176(15)
O11_8 O 0.73824(15) 0.30139(16) 0.03048(13)
O12_8 O 0.53048(13) 0.26176(15) 0.19861(16)
O13_8 O 0.80139(16) 0.26176(15) 0.03048(13)
O15_10 O 0.96952(13) 0.73824(15) 0.30139(16)
O20_8 O 0.73869(16) 0.46610(14) 0.16067(17)
O21_10 O 0.73869(16) 0.53390(14) 0.16067(17)
O22_10 O 0.76131(16) 0.46610(14) 0.33933(17)
O24_10 O 0.83933(17) 0.53390(14) 0.23869(16)
O26_8 O 0.76131(16) 0.33933(17) 0.03390(14)
O27_8 O 0.53390(14) 0.23869(16) 0.16067(17)
O28_8 O 0.83933(17) 0.23869(16) 0.03390(14)
O30_10 O 0.96610(14) 0.76131(16) 0.33933(17)
C15_8 C 0.7577(2) 0.45860(18) 0.1758(3)
C16_10 C 0.8242(3) 0.54140(18) 0.2577(2)
C18_8 C 0.7423(2) 0.3242(3) 0.04140(18)
C19_8 C 0.54140(18) 0.2577(2) 0.1758(3)
C20_8 C 0.8242(3) 0.2577(2) 0.04140(18)
C21_8 C 0.95860(18) 0.3242(3) 0.2423(2)
C22_10 C 0.95860(18) 0.7423(2) 0.3242(3)
C23_10 C 0.7577(2) 0.6758(3) 0.45860(18)
C26_8 C 0.77590(18) 0.43564(17) 0.1661(2)
C27_10 C 0.8339(2) 0.56436(17) 0.27590(18)
C29_8 C 0.72410(18) 0.3339(2) 0.06436(17)
C30_8 C 0.56436(17) 0.27590(18) 0.1661(2)
C31_8 C 0.8339(2) 0.27590(18) 0.06436(17)
C32_8 C 0.93564(17) 0.3339(2) 0.22410(18)
C33_10 C 0.93564(17) 0.72410(18) 0.3339(2)
C34_10 C 0.77590(18) 0.6661(2) 0.43564(17)
C37_8 C 0.7977(2) 0.42772(18) 0.1825(2)
C38_10 C 0.8175(2) 0.57228(18) 0.2977(2)
C40_8 C 0.7023(2) 0.3175(2) 0.07228(18)
C41_8 C 0.57228(18) 0.2977(2) 0.1825(2)
C42_8 C 0.8175(2) 0.2977(2) 0.07228(18)
C43_8 C 0.92772(18) 0.3175(2) 0.2023(2)
C44_10 C 0.92772(18) 0.7023(2) 0.3175(2)
C45_10 C 0.7977(2) 0.6825(2) 0.42772(18)
H14_8 H 0.8013 0.4367 0.1989
H15_10 H 0.8011 0.5633 0.3013
H17_8 H 0.6987 0.3011 0.0633
H18_8 H 0.5633 0.3013 0.1989
H19_8 H 0.8011 0.3013 0.0633
H20_8 H 0.9367 0.3011 0.1987
H21_10 H 0.9367 0.6987 0.3011
H22_10 H 0.8013 0.6989 0.4367
C48_8 C 0.68565(17) 0.3262(2) 0.09435(18)
C49_8 C 0.59435(18) 0.31435(17) 0.1738(2)
C50_8 C 0.81435(17) 0.40565(18) 0.1738(2)
C51_10 C 0.8262(2) 0.59435(18) 0.31435(17)
C53_8 C 0.8262(2) 0.31435(17) 0.09435(18)
C54_8 C 0.90565(18) 0.3262(2) 0.18565(17)
C55_10 C 0.90565(18) 0.68565(17) 0.3262(2)
C56_10 C 0.81435(17) 0.6738(2) 0.40565(18)
C59_8 C 0.69131(17) 0.35046(19) 0.10817(17)
C60_8 C 0.60817(17) 0.30869(17) 0.14954(19)
C61_8 C 0.80869(17) 0.39183(17) 0.14954(19)
C62_10 C 0.85046(19) 0.60817(17) 0.30869(17)
C64_8 C 0.89183(17) 0.35046(19) 0.19131(17)
C65_10 C 0.80869(17) 0.64954(19) 0.39183(17)
C67_8 C 0.85046(19) 0.30869(17) 0.10817(17)
C68_10 C 0.89183(17) 0.69131(17) 0.35046(19)
C70_8 C 0.71330(19) 0.3662(2) 0.09926(19)
C71_8 C 0.59926(19) 0.28670(19) 0.1338(2)
C72_8 C 0.78670(19) 0.40074(19) 0.1338(2)
C73_10 C 0.8662(2) 0.59926(19) 0.28670(19)
C75_8 C 0.90074(19) 0.3662(2) 0.21330(19)
C76_10 C 0.78670(19) 0.6338(2) 0.40074(19)
C78_8 C 0.8662(2) 0.28670(19) 0.09926(19)
C79_10 C 0.90074(19) 0.71330(19) 0.3662(2)
H25_8 H 0.7175 0.3825 0.1083
H26_8 H 0.6083 0.2825 0.1175
H27_8 H 0.7825 0.3917 0.1175
H28_10 H 0.8825 0.6083 0.2825
H30_8 H 0.8917 0.3825 0.2175
H31_10 H 0.7825 0.6175 0.3917
H33_8 H 0.8825 0.2825 0.1083
H34_10 H 0.8917 0.7175 0.3825
C81_8 C 0.77112(18) 0.42257(19) 0.1417(2)
C82_10 C 0.8583(2) 0.57743(19) 0.27112(18)
C84_8 C 0.72888(18) 0.3583(2) 0.07743(19)
C85_8 C 0.57743(19) 0.27112(18) 0.1417(2)
C86_8 C 0.92257(19) 0.3583(2) 0.22888(18)
C87_10 C 0.77112(18) 0.6417(2) 0.42257(19)
C89_8 C 0.8583(2) 0.27112(18) 0.07743(19)
C90_10 C 0.92257(19) 0.72888(18) 0.3583(2)
H36_8 H 0.7571 0.4287 0.1304
H37_10 H 0.8696 0.5713 0.2571
H39_8 H 0.7429 0.3696 0.0713
H40_8 H 0.5713 0.2571 0.1304
H41_8 H 0.9287 0.3696 0.2429
H42_10 H 0.7571 0.6304 0.4287
H44_8 H 0.8696 0.2571 0.0713
H45_10 H 0.9287 0.7429 0.3696
C92_8 C 0.6047(2) 0.3400(2) 0.1872(2)
C93_8 C 0.6600(2) 0.3128(2) 0.1047(2)
C94_8 C 0.8400(2) 0.3953(2) 0.1872(2)
C95_10 C 0.8128(2) 0.6047(2) 0.3400(2)
C97_8 C 0.8128(2) 0.3400(2) 0.1047(2)
C98_10 C 0.8953(2) 0.6600(2) 0.3128(2)
C100_8 C 0.8953(2) 0.3128(2) 0.1600(2)
C101_10 C 0.8400(2) 0.6872(2) 0.3953(2)
C103_8 C 0.62799(17) 0.34777(18) 0.16844(18)
C104_8 C 0.65223(18) 0.33156(18) 0.12799(17)
C105_8 C 0.84777(18) 0.37201(17) 0.16844(18)
C106_10 C 0.83156(18) 0.62799(17) 0.34777(18)
C108_8 C 0.83156(18) 0.34777(18) 0.12799(17)
C109_10 C 0.87201(17) 0.65223(18) 0.33156(18)
C111_8 C 0.87201(17) 0.33156(18) 0.15223(18)
C112_10 C 0.84777(18) 0.66844(18) 0.37201(17)
C114_8 C 0.67095(17) 0.35343(17) 0.13066(17)
C115_8 C 0.63066(17) 0.32905(17) 0.14657(17)
C116_8 C 0.82905(17) 0.36934(17) 0.14657(17)
C117_10 C 0.85343(17) 0.63066(17) 0.32905(17)
C119_8 C 0.86934(17) 0.35343(17) 0.17095(17)
C120_10 C 0.82905(17) 0.64657(17) 0.36934(17)
C122_8 C 0.85343(17) 0.32905(17) 0.13066(17)
C123_10 C 0.86934(17) 0.67095(17) 0.35343(17)
C125_8 C 0.5806(3) 0.3618(3) 0.1867(3)
C126_8 C 0.6382(3) 0.3133(3) 0.0806(3)
C127_8 C 0.8618(3) 0.4194(3) 0.1867(3)
C128_10 C 0.8133(3) 0.5806(3) 0.3618(3)
C130_8 C 0.8133(3) 0.3618(3) 0.0806(3)
C131_10 C 0.9194(3) 0.6382(3) 0.3133(3)
C133_8 C 0.9194(3) 0.3133(3) 0.1382(3)
C134_10 C 0.8618(3) 0.6867(3) 0.4194(3)
H47_8 H 0.5653 0.3548 0.1973
H48_8 H 0.6452 0.3027 0.0653
H49_8 H 0.8548 0.4347 0.1973
H50_10 H 0.8027 0.5653 0.3548
H52_8 H 0.8027 0.3548 0.0653
H53_10 H 0.9347 0.6452 0.3027
H55_8 H 0.9347 0.3027 0.1452
H56_10 H 0.8548 0.6973 0.4347
H58_8 H 0.5869 0.3785 0.1955
H59_8 H 0.6215 0.3045 0.0869
H60_8 H 0.8785 0.4131 0.1955
H61_10 H 0.8045 0.5869 0.3785
H63_8 H 0.8045 0.3785 0.0869
H64_10 H 0.9131 0.6215 0.3045
H66_8 H 0.9131 0.3045 0.1215
H67_10 H 0.8785 0.6955 0.4131
C136_8 C 0.5701(3) 0.3691(3) 0.1576(4)
C137_8 C 0.6309(3) 0.3424(4) 0.0701(3)
C138_8 C 0.8691(3) 0.4299(3) 0.1576(4)
C139_10 C 0.8424(4) 0.5701(3) 0.3691(3)
C141_8 C 0.8424(4) 0.3691(3) 0.0701(3)
C142_10 C 0.9299(3) 0.6309(3) 0.3424(4)
C144_8 C 0.9299(3) 0.3424(4) 0.1309(3)
C145_10 C 0.8691(3) 0.6576(4) 0.4299(3)
H69_8 H 0.5854 0.3734 0.1460
H70_8 H 0.6266 0.3540 0.0854
H71_8 H 0.8734 0.4146 0.1460
H72_10 H 0.8540 0.5854 0.3734
H74_8 H 0.8540 0.3734 0.0854
H75_10 H 0.9146 0.6266 0.3540
H77_8 H 0.9146 0.3540 0.1266
H78_10 H 0.8734 0.6460 0.4146
H80_8 H 0.5581 0.3847 0.1587
H81_8 H 0.6153 0.3413 0.0581
H82_8 H 0.8847 0.4419 0.1587
H83_10 H 0.8413 0.5581 0.3847
H85_8 H 0.8413 0.3847 0.0581
H86_10 H 0.9419 0.6153 0.3413
H88_8 H 0.9419 0.3413 0.1153
H89_10 H 0.8847 0.6587 0.4419
H91_8 H 0.5603 0.3538 0.1501
H92_8 H 0.6462 0.3499 0.0603
H93_8 H 0.8538 0.4397 0.1501
H94_10 H 0.8499 0.5603 0.3538
H96_8 H 0.8499 0.3538 0.0603
H97_10 H 0.9397 0.6462 0.3499
H99_8 H 0.9397 0.3499 0.1462
H100_10 H 0.8538 0.6501 0.4397
C147_8 C 0.6151(3) 0.3325(3) 0.2167(3)
C148_8 C 0.6675(3) 0.2833(3) 0.1151(3)
C149_8 C 0.8325(3) 0.3849(3) 0.2167(3)
C150_10 C 0.7833(3) 0.6151(3) 0.3325(3)
C152_8 C 0.7833(3) 0.3325(3) 0.1151(3)
C153_10 C 0.8849(3) 0.6675(3) 0.2833(3)
C155_8 C 0.8849(3) 0.2833(3) 0.1675(3)
C156_10 C 0.8325(3) 0.7167(3) 0.3849(3)
H102_8 H 0.6214 0.3492 0.2256
H103_8 H 0.6508 0.2744 0.1214
H104_8 H 0.8492 0.3786 0.2256
H105_10 H 0.7744 0.6214 0.3492
H107_8 H 0.7744 0.3492 0.1214
H108_10 H 0.8786 0.6508 0.2744
H110_8 H 0.8786 0.2744 0.1508
H111_10 H 0.8492 0.7256 0.3786
H113_8 H 0.5998 0.3256 0.2273
H114_8 H 0.6744 0.2727 0.0998
H115_8 H 0.8256 0.4002 0.2273
H116_10 H 0.7727 0.5998 0.3256
H118_8 H 0.7727 0.3256 0.0998
H119_10 H 0.9002 0.6744 0.2727
H121_8 H 0.9002 0.2727 0.1744
H122_10 H 0.8256 0.7273 0.4002
C158_8 C 0.6382(3) 0.3115(3) 0.2180(3)
C159_8 C 0.6885(3) 0.2820(3) 0.1382(3)
C160_8 C 0.8115(3) 0.3618(3) 0.2180(3)
C161_10 C 0.7820(3) 0.6382(3) 0.3115(3)
C163_8 C 0.7820(3) 0.3115(3) 0.1382(3)
C164_10 C 0.8618(3) 0.6885(3) 0.2820(3)
C166_8 C 0.8618(3) 0.2820(3) 0.1885(3)
C167_10 C 0.8115(3) 0.7180(3) 0.3618(3)
H124_8 H 0.6321 0.2946 0.2101
H125_8 H 0.7054 0.2899 0.1321
H126_8 H 0.7946 0.3679 0.2101
H127_10 H 0.7899 0.6321 0.2946
H129_8 H 0.7899 0.2946 0.1321
H130_10 H 0.8679 0.7054 0.2899
H132_8 H 0.8679 0.2899 0.2054
H133_10 H 0.7946 0.7101 0.3679
H135_8 H 0.6433 0.3085 0.2368
H136_8 H 0.6915 0.2632 0.1433
H137_8 H 0.8085 0.3567 0.2368
H138_10 H 0.7632 0.6433 0.3085
H140_8 H 0.7632 0.3085 0.1433
H141_10 H 0.8567 0.6915 0.2632
H143_8 H 0.8567 0.2632 0.1915
H144_10 H 0.8085 0.7368 0.3567
H146_8 H 0.6537 0.3182 0.2080
H147_8 H 0.6818 0.2920 0.1537
H148_8 H 0.8182 0.3463 0.2080
H149_10 H 0.7920 0.6537 0.3182
H151_8 H 0.7920 0.3182 0.1537
H152_10 H 0.8463 0.6818 0.2920
H154_8 H 0.8463 0.2920 0.1818
H155_10 H 0.8182 0.7080 0.3463
Pb9_13 Pb 0.806279(17) 0.222444(14) 1.0000
Pb11_8 Pb 0.0000 0.722444(14) 0.806279(17)
Pb12_12 Pb 0.0000 0.222444(14) 0.693721(17)
Pb9_14 Pb 0.806279(17) 0.777556(14) 0.0000
O1_9 O 0.69861(16) 0.53048(13) 0.76176(15)
O2_9 O 0.66067(17) 0.53390(14) 0.73869(16)
O3_14 O 0.7500 0.5000 0.7500
C1_9 C 0.6758(3) 0.54140(18) 0.7577(2)
C2_9 C 0.6661(2) 0.56436(17) 0.77590(18)
C3_9 C 0.6825(2) 0.57228(18) 0.7977(2)
H1_9 H 0.6989 0.5633 0.8013
C4_9 C 0.6738(2) 0.59435(18) 0.81435(17)
C5_9 C 0.64954(19) 0.60817(17) 0.80869(17)
C6_9 C 0.6338(2) 0.59926(19) 0.78670(19)
H2_9 H 0.6175 0.6083 0.7825
C7_9 C 0.6417(2) 0.57743(19) 0.77112(18)
H3_9 H 0.6304 0.5713 0.7571
C8_9 C 0.6872(2) 0.6047(2) 0.8400(2)
C9_9 C 0.66844(18) 0.62799(17) 0.84777(18)
C10_9 C 0.64657(17) 0.63066(17) 0.82905(17)
C11_9 C 0.6867(3) 0.5806(3) 0.8618(3)
H4_9 H 0.6973 0.5653 0.8548
H5_9 H 0.6955 0.5869 0.8785
C12_9 C 0.6576(4) 0.5701(3) 0.8691(3)
H6_9 H 0.6460 0.5854 0.8734
H7_9 H 0.6587 0.5581 0.8847
H8_9 H 0.6501 0.5603 0.8538
C13_9 C 0.7167(3) 0.6151(3) 0.8325(3)
H9_9 H 0.7256 0.6214 0.8492
H10_9 H 0.7273 0.5998 0.8256
C14_9 C 0.7180(3) 0.6382(3) 0.8115(3)
H11_9 H 0.7101 0.6321 0.7946
H12_9 H 0.7368 0.6433 0.8085
H13_9 H 0.7080 0.6537 0.8182
Pb9_15 Pb 0.806279(17) 0.777556(14) 1.0000
Pb11_9 Pb 1.0000 0.722444(14) 0.806279(17)
Pb12_13 Pb 1.0000 0.222444(14) 0.693721(17)
O4_11 O 0.73824(15) 0.53048(13) 0.69861(16)
O7_9 O 0.76176(15) 0.53048(13) 0.80139(16)
O8_11 O 0.76176(15) 0.46952(13) 0.80139(16)
O9_11 O 0.80139(16) 0.46952(13) 0.73824(15)
O11_9 O 0.73824(15) 0.69861(16) 0.96952(13)
O13_9 O 0.80139(16) 0.73824(15) 0.96952(13)
O14_6 O 0.96952(13) 0.69861(16) 0.76176(15)
O15_11 O 0.96952(13) 0.26176(15) 0.69861(16)
O20_9 O 0.73869(16) 0.53390(14) 0.83933(17)
O21_11 O 0.73869(16) 0.46610(14) 0.83933(17)
O22_11 O 0.76131(16) 0.53390(14) 0.66067(17)
O24_11 O 0.83933(17) 0.46610(14) 0.76131(16)
O26_9 O 0.76131(16) 0.66067(17) 0.96610(14)
O28_9 O 0.83933(17) 0.76131(16) 0.96610(14)
O29_6 O 0.96610(14) 0.66067(17) 0.73869(16)
O30_11 O 0.96610(14) 0.23869(16) 0.66067(17)
C15_9 C 0.7577(2) 0.54140(18) 0.8242(3)
C16_11 C 0.8242(3) 0.45860(18) 0.7423(2)
C18_9 C 0.7423(2) 0.6758(3) 0.95860(18)
C19_9 C 0.54140(18) 0.7423(2) 0.8242(3)
C20_9 C 0.8242(3) 0.7423(2) 0.95860(18)
C21_9 C 0.95860(18) 0.6758(3) 0.7577(2)
C22_11 C 0.95860(18) 0.2577(2) 0.6758(3)
C23_11 C 0.7577(2) 0.3242(3) 0.54140(18)
C26_9 C 0.77590(18) 0.56436(17) 0.8339(2)
C27_11 C 0.8339(2) 0.43564(17) 0.72410(18)
C29_9 C 0.72410(18) 0.6661(2) 0.93564(17)
C30_9 C 0.56436(17) 0.72410(18) 0.8339(2)
C31_9 C 0.8339(2) 0.72410(18) 0.93564(17)
C32_9 C 0.93564(17) 0.6661(2) 0.77590(18)
C33_11 C 0.93564(17) 0.27590(18) 0.6661(2)
C34_11 C 0.77590(18) 0.3339(2) 0.56436(17)
C37_9 C 0.7977(2) 0.57228(18) 0.8175(2)
C38_11 C 0.8175(2) 0.42772(18) 0.7023(2)
C40_9 C 0.7023(2) 0.6825(2) 0.92772(18)
C41_9 C 0.57228(18) 0.7023(2) 0.8175(2)
C42_9 C 0.8175(2) 0.7023(2) 0.92772(18)
C43_9 C 0.92772(18) 0.6825(2) 0.7977(2)
C44_11 C 0.92772(18) 0.2977(2) 0.6825(2)
C45_11 C 0.7977(2) 0.3175(2) 0.57228(18)
H14_9 H 0.8013 0.5633 0.8011
H15_11 H 0.8011 0.4367 0.6987
H17_9 H 0.6987 0.6989 0.9367
H18_9 H 0.5633 0.6987 0.8011
H19_9 H 0.8011 0.6987 0.9367
H20_9 H 0.9367 0.6989 0.8013
H21_11 H 0.9367 0.3013 0.6989
H22_11 H 0.8013 0.3011 0.5633
C48_9 C 0.68565(17) 0.6738(2) 0.90565(18)
C49_9 C 0.59435(18) 0.68565(17) 0.8262(2)
C50_9 C 0.81435(17) 0.59435(18) 0.8262(2)
C51_11 C 0.8262(2) 0.40565(18) 0.68565(17)
C53_9 C 0.8262(2) 0.68565(17) 0.90565(18)
C54_9 C 0.90565(18) 0.6738(2) 0.81435(17)
C55_11 C 0.90565(18) 0.31435(17) 0.6738(2)
C56_11 C 0.81435(17) 0.3262(2) 0.59435(18)
C59_9 C 0.69131(17) 0.64954(19) 0.89183(17)
C60_9 C 0.60817(17) 0.69131(17) 0.85046(19)
C61_9 C 0.80869(17) 0.60817(17) 0.85046(19)
C62_11 C 0.85046(19) 0.39183(17) 0.69131(17)
C64_9 C 0.89183(17) 0.64954(19) 0.80869(17)
C65_11 C 0.80869(17) 0.35046(19) 0.60817(17)
C67_9 C 0.85046(19) 0.69131(17) 0.89183(17)
C68_11 C 0.89183(17) 0.30869(17) 0.64954(19)
C70_9 C 0.71330(19) 0.6338(2) 0.90074(19)
C71_9 C 0.59926(19) 0.71330(19) 0.8662(2)
C72_9 C 0.78670(19) 0.59926(19) 0.8662(2)
C73_11 C 0.8662(2) 0.40074(19) 0.71330(19)
C75_9 C 0.90074(19) 0.6338(2) 0.78670(19)
C76_11 C 0.78670(19) 0.3662(2) 0.59926(19)
C78_9 C 0.8662(2) 0.71330(19) 0.90074(19)
C79_11 C 0.90074(19) 0.28670(19) 0.6338(2)
H25_9 H 0.7175 0.6175 0.8917
H26_9 H 0.6083 0.7175 0.8825
H27_9 H 0.7825 0.6083 0.8825
H28_11 H 0.8825 0.3917 0.7175
H30_9 H 0.8917 0.6175 0.7825
H31_11 H 0.7825 0.3825 0.6083
H33_9 H 0.8825 0.7175 0.8917
H34_11 H 0.8917 0.2825 0.6175
C81_9 C 0.77112(18) 0.57743(19) 0.8583(2)
C82_11 C 0.8583(2) 0.42257(19) 0.72888(18)
C84_9 C 0.72888(18) 0.6417(2) 0.92257(19)
C85_9 C 0.57743(19) 0.72888(18) 0.8583(2)
C86_9 C 0.92257(19) 0.6417(2) 0.77112(18)
C87_11 C 0.77112(18) 0.3583(2) 0.57743(19)
C89_9 C 0.8583(2) 0.72888(18) 0.92257(19)
C90_11 C 0.92257(19) 0.27112(18) 0.6417(2)
H36_9 H 0.7571 0.5713 0.8696
H37_11 H 0.8696 0.4287 0.7429
H39_9 H 0.7429 0.6304 0.9287
H40_9 H 0.5713 0.7429 0.8696
H41_9 H 0.9287 0.6304 0.7571
H42_11 H 0.7571 0.3696 0.5713
H44_9 H 0.8696 0.7429 0.9287
H45_11 H 0.9287 0.2571 0.6304
C92_9 C 0.6047(2) 0.6600(2) 0.8128(2)
C93_9 C 0.6600(2) 0.6872(2) 0.8953(2)
C94_9 C 0.8400(2) 0.6047(2) 0.8128(2)
C95_11 C 0.8128(2) 0.3953(2) 0.6600(2)
C97_9 C 0.8128(2) 0.6600(2) 0.8953(2)
C98_11 C 0.8953(2) 0.3400(2) 0.6872(2)
C100_9 C 0.8953(2) 0.6872(2) 0.8400(2)
C101_11 C 0.8400(2) 0.3128(2) 0.6047(2)
C103_9 C 0.62799(17) 0.65223(18) 0.83156(18)
C104_9 C 0.65223(18) 0.66844(18) 0.87201(17)
C105_9 C 0.84777(18) 0.62799(17) 0.83156(18)
C106_11 C 0.83156(18) 0.37201(17) 0.65223(18)
C108_9 C 0.83156(18) 0.65223(18) 0.87201(17)
C109_11 C 0.87201(17) 0.34777(18) 0.66844(18)
C111_9 C 0.87201(17) 0.66844(18) 0.84777(18)
C112_11 C 0.84777(18) 0.33156(18) 0.62799(17)
C114_9 C 0.67095(17) 0.64657(17) 0.86934(17)
C115_9 C 0.63066(17) 0.67095(17) 0.85343(17)
C116_9 C 0.82905(17) 0.63066(17) 0.85343(17)
C117_11 C 0.85343(17) 0.36934(17) 0.67095(17)
C119_9 C 0.86934(17) 0.64657(17) 0.82905(17)
C120_11 C 0.82905(17) 0.35343(17) 0.63066(17)
C122_9 C 0.85343(17) 0.67095(17) 0.86934(17)
C123_11 C 0.86934(17) 0.32905(17) 0.64657(17)
C125_9 C 0.5806(3) 0.6382(3) 0.8133(3)
C126_9 C 0.6382(3) 0.6867(3) 0.9194(3)
C127_9 C 0.8618(3) 0.5806(3) 0.8133(3)
C128_11 C 0.8133(3) 0.4194(3) 0.6382(3)
C130_9 C 0.8133(3) 0.6382(3) 0.9194(3)
C131_11 C 0.9194(3) 0.3618(3) 0.6867(3)
C133_9 C 0.9194(3) 0.6867(3) 0.8618(3)
C134_11 C 0.8618(3) 0.3133(3) 0.5806(3)
H47_9 H 0.5653 0.6452 0.8027
H48_9 H 0.6452 0.6973 0.9347
H49_9 H 0.8548 0.5653 0.8027
H50_11 H 0.8027 0.4347 0.6452
H52_9 H 0.8027 0.6452 0.9347
H53_11 H 0.9347 0.3548 0.6973
H55_9 H 0.9347 0.6973 0.8548
H56_11 H 0.8548 0.3027 0.5653
H58_9 H 0.5869 0.6215 0.8045
H59_9 H 0.6215 0.6955 0.9131
H60_9 H 0.8785 0.5869 0.8045
H61_11 H 0.8045 0.4131 0.6215
H63_9 H 0.8045 0.6215 0.9131
H64_11 H 0.9131 0.3785 0.6955
H66_9 H 0.9131 0.6955 0.8785
H67_11 H 0.8785 0.3045 0.5869
C136_9 C 0.5701(3) 0.6309(3) 0.8424(4)
C137_9 C 0.6309(3) 0.6576(4) 0.9299(3)
C138_9 C 0.8691(3) 0.5701(3) 0.8424(4)
C139_11 C 0.8424(4) 0.4299(3) 0.6309(3)
C141_9 C 0.8424(4) 0.6309(3) 0.9299(3)
C142_11 C 0.9299(3) 0.3691(3) 0.6576(4)
C144_9 C 0.9299(3) 0.6576(4) 0.8691(3)
C145_11 C 0.8691(3) 0.3424(4) 0.5701(3)
H69_9 H 0.5854 0.6266 0.8540
H70_9 H 0.6266 0.6460 0.9146
H71_9 H 0.8734 0.5854 0.8540
H72_11 H 0.8540 0.4146 0.6266
H74_9 H 0.8540 0.6266 0.9146
H75_11 H 0.9146 0.3734 0.6460
H77_9 H 0.9146 0.6460 0.8734
H78_11 H 0.8734 0.3540 0.5854
H80_9 H 0.5581 0.6153 0.8413
H81_9 H 0.6153 0.6587 0.9419
H82_9 H 0.8847 0.5581 0.8413
H83_11 H 0.8413 0.4419 0.6153
H85_9 H 0.8413 0.6153 0.9419
H86_11 H 0.9419 0.3847 0.6587
H88_9 H 0.9419 0.6587 0.8847
H89_11 H 0.8847 0.3413 0.5581
H91_9 H 0.5603 0.6462 0.8499
H92_9 H 0.6462 0.6501 0.9397
H93_9 H 0.8538 0.5603 0.8499
H94_11 H 0.8499 0.4397 0.6462
H96_9 H 0.8499 0.6462 0.9397
H97_11 H 0.9397 0.3538 0.6501
H99_9 H 0.9397 0.6501 0.8538
H100_11 H 0.8538 0.3499 0.5603
C147_9 C 0.6151(3) 0.6675(3) 0.7833(3)
C148_9 C 0.6675(3) 0.7167(3) 0.8849(3)
C149_9 C 0.8325(3) 0.6151(3) 0.7833(3)
C150_11 C 0.7833(3) 0.3849(3) 0.6675(3)
C152_9 C 0.7833(3) 0.6675(3) 0.8849(3)
C153_11 C 0.8849(3) 0.3325(3) 0.7167(3)
C155_9 C 0.8849(3) 0.7167(3) 0.8325(3)
C156_11 C 0.8325(3) 0.2833(3) 0.6151(3)
H102_9 H 0.6214 0.6508 0.7744
H103_9 H 0.6508 0.7256 0.8786
H104_9 H 0.8492 0.6214 0.7744
H105_11 H 0.7744 0.3786 0.6508
H107_9 H 0.7744 0.6508 0.8786
H108_11 H 0.8786 0.3492 0.7256
H110_9 H 0.8786 0.7256 0.8492
H111_11 H 0.8492 0.2744 0.6214
H113_9 H 0.5998 0.6744 0.7727
H114_9 H 0.6744 0.7273 0.9002
H115_9 H 0.8256 0.5998 0.7727
H116_11 H 0.7727 0.4002 0.6744
H118_9 H 0.7727 0.6744 0.9002
H119_11 H 0.9002 0.3256 0.7273
H121_9 H 0.9002 0.7273 0.8256
H122_11 H 0.8256 0.2727 0.5998
C158_9 C 0.6382(3) 0.6885(3) 0.7820(3)
C159_9 C 0.6885(3) 0.7180(3) 0.8618(3)
C160_9 C 0.8115(3) 0.6382(3) 0.7820(3)
C161_11 C 0.7820(3) 0.3618(3) 0.6885(3)
C163_9 C 0.7820(3) 0.6885(3) 0.8618(3)
C164_11 C 0.8618(3) 0.3115(3) 0.7180(3)
C166_9 C 0.8618(3) 0.7180(3) 0.8115(3)
C167_11 C 0.8115(3) 0.2820(3) 0.6382(3)
H124_9 H 0.6321 0.7054 0.7899
H125_9 H 0.7054 0.7101 0.8679
H126_9 H 0.7946 0.6321 0.7899
H127_11 H 0.7899 0.3679 0.7054
H129_9 H 0.7899 0.7054 0.8679
H130_11 H 0.8679 0.2946 0.7101
H132_9 H 0.8679 0.7101 0.7946
H133_11 H 0.7946 0.2899 0.6321
H135_9 H 0.6433 0.6915 0.7632
H136_9 H 0.6915 0.7368 0.8567
H137_9 H 0.8085 0.6433 0.7632
H138_11 H 0.7632 0.3567 0.6915
H140_9 H 0.7632 0.6915 0.8567
H141_11 H 0.8567 0.3085 0.7368
H143_9 H 0.8567 0.7368 0.8085
H144_11 H 0.8085 0.2632 0.6433
H146_9 H 0.6537 0.6818 0.7920
H147_9 H 0.6818 0.7080 0.8463
H148_9 H 0.8182 0.6537 0.7920
H149_11 H 0.7920 0.3463 0.6818
H151_9 H 0.7920 0.6818 0.8463
H152_11 H 0.8463 0.3182 0.7080
H154_9 H 0.8463 0.7080 0.8182
H155_11 H 0.8182 0.2920 0.6537
O3_15 O 0.2500 0.5000 0.7500
O4_12 O 0.26176(15) 0.46952(13) 0.69861(16)
O8_12 O 0.23824(15) 0.53048(13) 0.80139(16)
O9_12 O 0.19861(16) 0.53048(13) 0.73824(15)
O10_7 O 0.19861(16) 0.46952(13) 0.73824(15)
O15_12 O 0.03048(13) 0.73824(15) 0.69861(16)
O21_12 O 0.26131(16) 0.53390(14) 0.83933(17)
O22_12 O 0.23869(16) 0.46610(14) 0.66067(17)
O24_12 O 0.16067(17) 0.53390(14) 0.76131(16)
O25_7 O 0.16067(17) 0.46610(14) 0.76131(16)
O30_12 O 0.03390(14) 0.76131(16) 0.66067(17)
C16_12 C 0.1758(3) 0.54140(18) 0.7423(2)
C22_12 C 0.04140(18) 0.7423(2) 0.6758(3)
C23_12 C 0.2423(2) 0.6758(3) 0.54140(18)
C27_12 C 0.1661(2) 0.56436(17) 0.72410(18)
C33_12 C 0.06436(17) 0.72410(18) 0.6661(2)
C34_12 C 0.22410(18) 0.6661(2) 0.56436(17)
C38_12 C 0.1825(2) 0.57228(18) 0.7023(2)
C44_12 C 0.07228(18) 0.7023(2) 0.6825(2)
C45_12 C 0.2023(2) 0.6825(2) 0.57228(18)
H15_12 H 0.1989 0.5633 0.6987
H21_12 H 0.0633 0.6987 0.6989
H22_12 H 0.1987 0.6989 0.5633
C51_12 C 0.1738(2) 0.59435(18) 0.68565(17)
C55_12 C 0.09435(18) 0.68565(17) 0.6738(2)
C56_12 C 0.18565(17) 0.6738(2) 0.59435(18)
C62_12 C 0.14954(19) 0.60817(17) 0.69131(17)
C65_12 C 0.19131(17) 0.64954(19) 0.60817(17)
C68_12 C 0.10817(17) 0.69131(17) 0.64954(19)
C73_12 C 0.1338(2) 0.59926(19) 0.71330(19)
C76_12 C 0.21330(19) 0.6338(2) 0.59926(19)
C79_12 C 0.09926(19) 0.71330(19) 0.6338(2)
H28_12 H 0.1175 0.6083 0.7175
H31_12 H 0.2175 0.6175 0.6083
H34_12 H 0.1083 0.7175 0.6175
C82_12 C 0.1417(2) 0.57743(19) 0.72888(18)
C87_12 C 0.22888(18) 0.6417(2) 0.57743(19)
C90_12 C 0.07743(19) 0.72888(18) 0.6417(2)
H37_12 H 0.1304 0.5713 0.7429
H42_12 H 0.2429 0.6304 0.5713
H45_12 H 0.0713 0.7429 0.6304
C95_12 C 0.1872(2) 0.6047(2) 0.6600(2)
C98_12 C 0.1047(2) 0.6600(2) 0.6872(2)
C101_12 C 0.1600(2) 0.6872(2) 0.6047(2)
C106_12 C 0.16844(18) 0.62799(17) 0.65223(18)
C109_12 C 0.12799(17) 0.65223(18) 0.66844(18)
C112_12 C 0.15223(18) 0.66844(18) 0.62799(17)
C117_12 C 0.14657(17) 0.63066(17) 0.67095(17)
C120_12 C 0.17095(17) 0.64657(17) 0.63066(17)
C123_12 C 0.13066(17) 0.67095(17) 0.64657(17)
C128_12 C 0.1867(3) 0.5806(3) 0.6382(3)
C131_12 C 0.0806(3) 0.6382(3) 0.6867(3)
C134_12 C 0.1382(3) 0.6867(3) 0.5806(3)
H50_12 H 0.1973 0.5653 0.6452
H53_12 H 0.0653 0.6452 0.6973
H56_12 H 0.1452 0.6973 0.5653
H61_12 H 0.1955 0.5869 0.6215
H64_12 H 0.0869 0.6215 0.6955
H67_12 H 0.1215 0.6955 0.5869
C139_12 C 0.1576(4) 0.5701(3) 0.6309(3)
C142_12 C 0.0701(3) 0.6309(3) 0.6576(4)
C145_12 C 0.1309(3) 0.6576(4) 0.5701(3)
H72_12 H 0.1460 0.5854 0.6266
H75_12 H 0.0854 0.6266 0.6460
H78_12 H 0.1266 0.6460 0.5854
H83_12 H 0.1587 0.5581 0.6153
H86_12 H 0.0581 0.6153 0.6587
H89_12 H 0.1153 0.6587 0.5581
H94_12 H 0.1501 0.5603 0.6462
H97_12 H 0.0603 0.6462 0.6501
H100_12 H 0.1462 0.6501 0.5603
C150_12 C 0.2167(3) 0.6151(3) 0.6675(3)
C153_12 C 0.1151(3) 0.6675(3) 0.7167(3)
C156_12 C 0.1675(3) 0.7167(3) 0.6151(3)
H105_12 H 0.2256 0.6214 0.6508
H108_12 H 0.1214 0.6508 0.7256
H111_12 H 0.1508 0.7256 0.6214
H116_12 H 0.2273 0.5998 0.6744
H119_12 H 0.0998 0.6744 0.7273
H122_12 H 0.1744 0.7273 0.5998
C161_12 C 0.2180(3) 0.6382(3) 0.6885(3)
C164_12 C 0.1382(3) 0.6885(3) 0.7180(3)
C167_12 C 0.1885(3) 0.7180(3) 0.6382(3)
H127_12 H 0.2101 0.6321 0.7054
H130_12 H 0.1321 0.7054 0.7101
H133_12 H 0.2054 0.7101 0.6321
H138_12 H 0.2368 0.6433 0.6915
H141_12 H 0.1433 0.6915 0.7368
H144_12 H 0.1915 0.7368 0.6433
H149_12 H 0.2080 0.6537 0.6818
H152_12 H 0.1537 0.6818 0.7080
H155_12 H 0.1818 0.7080 0.6537
Pb12_14 Pb 0.193721(17) 0.777556(14) 0.0000
C1_10 C 0.2577(2) 0.45860(18) 0.6758(3)
C2_10 C 0.27590(18) 0.43564(17) 0.6661(2)
C3_10 C 0.2977(2) 0.42772(18) 0.6825(2)
H1_10 H 0.3013 0.4367 0.6989
C4_10 C 0.31435(17) 0.40565(18) 0.6738(2)
C5_10 C 0.30869(17) 0.39183(17) 0.64954(19)
C6_10 C 0.28670(19) 0.40074(19) 0.6338(2)
H2_10 H 0.2825 0.3917 0.6175
C7_10 C 0.27112(18) 0.42257(19) 0.6417(2)
H3_10 H 0.2571 0.4287 0.6304
C8_10 C 0.3400(2) 0.3953(2) 0.6872(2)
C9_10 C 0.34777(18) 0.37201(17) 0.66844(18)
C10_10 C 0.32905(17) 0.36934(17) 0.64657(17)
C11_10 C 0.3618(3) 0.4194(3) 0.6867(3)
H4_10 H 0.3548 0.4347 0.6973
H5_10 H 0.3785 0.4131 0.6955
C12_10 C 0.3691(3) 0.4299(3) 0.6576(4)
H6_10 H 0.3734 0.4146 0.6460
H7_10 H 0.3847 0.4419 0.6587
H8_10 H 0.3538 0.4397 0.6501
C13_10 C 0.3325(3) 0.3849(3) 0.7167(3)
H9_10 H 0.3492 0.3786 0.7256
H10_10 H 0.3256 0.4002 0.7273
C14_10 C 0.3115(3) 0.3618(3) 0.7180(3)
H11_10 H 0.2946 0.3679 0.7101
H12_10 H 0.3085 0.3567 0.7368
H13_10 H 0.3182 0.3463 0.7080
Pb8_10 Pb 0.277556(14) 0.306279(17) 0.5000
Pb12_15 Pb 0.193721(17) 0.777556(14) 1.0000
O12_9 O 0.30139(16) 0.26176(15) 0.53048(13)
O15_13 O 0.19861(16) 0.73824(15) 0.96952(13)
O16_5 O 0.03048(13) 0.69861(16) 0.76176(15)
O27_9 O 0.33933(17) 0.23869(16) 0.53390(14)
O30_13 O 0.16067(17) 0.76131(16) 0.96610(14)
O31_5 O 0.03390(14) 0.66067(17) 0.73869(16)
C16_13 C 0.2423(2) 0.54140(18) 0.8242(3)
C18_10 C 0.45860(18) 0.3242(3) 0.7423(2)
C19_10 C 0.3242(3) 0.2577(2) 0.54140(18)
C22_13 C 0.1758(3) 0.7423(2) 0.95860(18)
C23_13 C 0.04140(18) 0.6758(3) 0.7577(2)
C27_13 C 0.22410(18) 0.56436(17) 0.8339(2)
C29_10 C 0.43564(17) 0.3339(2) 0.72410(18)
C30_10 C 0.3339(2) 0.27590(18) 0.56436(17)
C33_13 C 0.1661(2) 0.72410(18) 0.93564(17)
C34_13 C 0.06436(17) 0.6661(2) 0.77590(18)
C38_13 C 0.2023(2) 0.57228(18) 0.8175(2)
C40_10 C 0.42772(18) 0.3175(2) 0.7023(2)
C41_10 C 0.3175(2) 0.2977(2) 0.57228(18)
C44_13 C 0.1825(2) 0.7023(2) 0.92772(18)
C45_13 C 0.07228(18) 0.6825(2) 0.7977(2)
H15_13 H 0.1987 0.5633 0.8011
H17_10 H 0.4367 0.3011 0.6987
H18_10 H 0.3011 0.3013 0.5633
H21_13 H 0.1989 0.6987 0.9367
H22_13 H 0.0633 0.6989 0.8013
C48_10 C 0.40565(18) 0.3262(2) 0.68565(17)
C49_10 C 0.3262(2) 0.31435(17) 0.59435(18)
C51_13 C 0.18565(17) 0.59435(18) 0.8262(2)
C55_13 C 0.1738(2) 0.68565(17) 0.90565(18)
C56_13 C 0.09435(18) 0.6738(2) 0.81435(17)
C59_10 C 0.39183(17) 0.35046(19) 0.69131(17)
C60_10 C 0.35046(19) 0.30869(17) 0.60817(17)
C62_13 C 0.19131(17) 0.60817(17) 0.85046(19)
C65_13 C 0.10817(17) 0.64954(19) 0.80869(17)
C68_13 C 0.14954(19) 0.69131(17) 0.89183(17)
C70_10 C 0.40074(19) 0.3662(2) 0.71330(19)
C71_10 C 0.3662(2) 0.28670(19) 0.59926(19)
C73_13 C 0.21330(19) 0.59926(19) 0.8662(2)
C76_13 C 0.09926(19) 0.6338(2) 0.78670(19)
C79_13 C 0.1338(2) 0.71330(19) 0.90074(19)
H25_10 H 0.3917 0.3825 0.7175
H26_10 H 0.3825 0.2825 0.6083
H28_13 H 0.2175 0.6083 0.8825
H31_13 H 0.1083 0.6175 0.7825
H34_13 H 0.1175 0.7175 0.8917
C82_13 C 0.22888(18) 0.57743(19) 0.8583(2)
C84_10 C 0.42257(19) 0.3583(2) 0.72888(18)
C85_10 C 0.3583(2) 0.27112(18) 0.57743(19)
C87_13 C 0.07743(19) 0.6417(2) 0.77112(18)
C90_13 C 0.1417(2) 0.72888(18) 0.92257(19)
H37_13 H 0.2429 0.5713 0.8696
H39_10 H 0.4287 0.3696 0.7429
H40_10 H 0.3696 0.2571 0.5713
H42_13 H 0.0713 0.6304 0.7571
H45_13 H 0.1304 0.7429 0.9287
C92_10 C 0.3128(2) 0.3400(2) 0.6047(2)
C93_10 C 0.3953(2) 0.3128(2) 0.6600(2)
C95_13 C 0.1600(2) 0.6047(2) 0.8128(2)
C98_13 C 0.1872(2) 0.6600(2) 0.8953(2)
C101_13 C 0.1047(2) 0.6872(2) 0.8400(2)
C103_10 C 0.33156(18) 0.34777(18) 0.62799(17)
C104_10 C 0.37201(17) 0.33156(18) 0.65223(18)
C106_13 C 0.15223(18) 0.62799(17) 0.83156(18)
C109_13 C 0.16844(18) 0.65223(18) 0.87201(17)
C112_13 C 0.12799(17) 0.66844(18) 0.84777(18)
C114_10 C 0.36934(17) 0.35343(17) 0.67095(17)
C115_10 C 0.35343(17) 0.32905(17) 0.63066(17)
C117_13 C 0.17095(17) 0.63066(17) 0.85343(17)
C120_13 C 0.13066(17) 0.64657(17) 0.82905(17)
C123_13 C 0.14657(17) 0.67095(17) 0.86934(17)
C125_10 C 0.3133(3) 0.3618(3) 0.5806(3)
C126_10 C 0.4194(3) 0.3133(3) 0.6382(3)
C128_13 C 0.1382(3) 0.5806(3) 0.8133(3)
C131_13 C 0.1867(3) 0.6382(3) 0.9194(3)
C134_13 C 0.0806(3) 0.6867(3) 0.8618(3)
H47_10 H 0.3027 0.3548 0.5653
H48_10 H 0.4347 0.3027 0.6452
H50_13 H 0.1452 0.5653 0.8027
H53_13 H 0.1973 0.6452 0.9347
H56_13 H 0.0653 0.6973 0.8548
H58_10 H 0.3045 0.3785 0.5869
H59_10 H 0.4131 0.3045 0.6215
H61_13 H 0.1215 0.5869 0.8045
H64_13 H 0.1955 0.6215 0.9131
H67_13 H 0.0869 0.6955 0.8785
C136_10 C 0.3424(4) 0.3691(3) 0.5701(3)
C137_10 C 0.4299(3) 0.3424(4) 0.6309(3)
C139_13 C 0.1309(3) 0.5701(3) 0.8424(4)
C142_13 C 0.1576(4) 0.6309(3) 0.9299(3)
C145_13 C 0.0701(3) 0.6576(4) 0.8691(3)
H69_10 H 0.3540 0.3734 0.5854
H70_10 H 0.4146 0.3540 0.6266
H72_13 H 0.1266 0.5854 0.8540
H75_13 H 0.1460 0.6266 0.9146
H78_13 H 0.0854 0.6460 0.8734
H80_10 H 0.3413 0.3847 0.5581
H81_10 H 0.4419 0.3413 0.6153
H83_13 H 0.1153 0.5581 0.8413
H86_13 H 0.1587 0.6153 0.9419
H89_13 H 0.0581 0.6587 0.8847
H91_10 H 0.3499 0.3538 0.5603
H92_10 H 0.4397 0.3499 0.6462
H94_13 H 0.1462 0.5603 0.8499
H97_13 H 0.1501 0.6462 0.9397
H100_13 H 0.0603 0.6501 0.8538
C147_10 C 0.2833(3) 0.3325(3) 0.6151(3)
C148_10 C 0.3849(3) 0.2833(3) 0.6675(3)
C150_13 C 0.1675(3) 0.6151(3) 0.7833(3)
C153_13 C 0.2167(3) 0.6675(3) 0.8849(3)
C156_13 C 0.1151(3) 0.7167(3) 0.8325(3)
H102_10 H 0.2744 0.3492 0.6214
H103_10 H 0.3786 0.2744 0.6508
H105_13 H 0.1508 0.6214 0.7744
H108_13 H 0.2256 0.6508 0.8786
H111_13 H 0.1214 0.7256 0.8492
H113_10 H 0.2727 0.3256 0.5998
H114_10 H 0.4002 0.2727 0.6744
H116_13 H 0.1744 0.5998 0.7727
H119_13 H 0.2273 0.6744 0.9002
H122_13 H 0.0998 0.7273 0.8256
C158_10 C 0.2820(3) 0.3115(3) 0.6382(3)
C159_10 C 0.3618(3) 0.2820(3) 0.6885(3)
C161_13 C 0.1885(3) 0.6382(3) 0.7820(3)
C164_13 C 0.2180(3) 0.6885(3) 0.8618(3)
C167_13 C 0.1382(3) 0.7180(3) 0.8115(3)
H124_10 H 0.2899 0.2946 0.6321
H125_10 H 0.3679 0.2899 0.7054
H127_13 H 0.2054 0.6321 0.7899
H130_13 H 0.2101 0.7054 0.8679
H133_13 H 0.1321 0.7101 0.7946
H135_10 H 0.2632 0.3085 0.6433
H136_10 H 0.3567 0.2632 0.6915
H138_13 H 0.1915 0.6433 0.7632
H141_13 H 0.2368 0.6915 0.8567
H144_13 H 0.1433 0.7368 0.8085
H146_10 H 0.2920 0.3182 0.6537
H147_10 H 0.3463 0.2920 0.6818
H149_13 H 0.1818 0.6537 0.7920
H152_13 H 0.2080 0.6818 0.8463
H155_13 H 0.1537 0.7080 0.8182
Pb13_8 Pb 0.193721(17) 0.0000 0.722444(14)
O3_16 O 0.0000 0.7500 0.7500
Pb13_9 Pb 0.193721(17) 1.0000 0.722444(14)
O8_13 O 0.03048(13) 0.76176(15) 0.80139(16)
O9_13 O 0.03048(13) 0.80139(16) 0.73824(15)
O15_14 O 0.23824(15) 0.96952(13) 0.69861(16)
O21_13 O 0.03390(14) 0.73869(16) 0.83933(17)
O24_13 O 0.03390(14) 0.83933(17) 0.76131(16)
O30_14 O 0.26131(16) 0.96610(14) 0.66067(17)
C16_14 C 0.04140(18) 0.8242(3) 0.7423(2)
C22_14 C 0.2423(2) 0.95860(18) 0.6758(3)
C23_14 C 0.1758(3) 0.7577(2) 0.54140(18)
C27_14 C 0.06436(17) 0.8339(2) 0.72410(18)
C33_14 C 0.22410(18) 0.93564(17) 0.6661(2)
C34_14 C 0.1661(2) 0.77590(18) 0.56436(17)
C38_14 C 0.07228(18) 0.8175(2) 0.7023(2)
C44_14 C 0.2023(2) 0.92772(18) 0.6825(2)
C45_14 C 0.1825(2) 0.7977(2) 0.57228(18)
H15_14 H 0.0633 0.8011 0.6987
H21_14 H 0.1987 0.9367 0.6989
H22_14 H 0.1989 0.8013 0.5633
C51_14 C 0.09435(18) 0.8262(2) 0.68565(17)
C55_14 C 0.18565(17) 0.90565(18) 0.6738(2)
C56_14 C 0.1738(2) 0.81435(17) 0.59435(18)
C62_14 C 0.10817(17) 0.85046(19) 0.69131(17)
C65_14 C 0.14954(19) 0.80869(17) 0.60817(17)
C68_14 C 0.19131(17) 0.89183(17) 0.64954(19)
C73_14 C 0.09926(19) 0.8662(2) 0.71330(19)
C76_14 C 0.1338(2) 0.78670(19) 0.59926(19)
C79_14 C 0.21330(19) 0.90074(19) 0.6338(2)
H28_14 H 0.1083 0.8825 0.7175
H31_14 H 0.1175 0.7825 0.6083
H34_14 H 0.2175 0.8917 0.6175
C82_14 C 0.07743(19) 0.8583(2) 0.72888(18)
C87_14 C 0.1417(2) 0.77112(18) 0.57743(19)
C90_14 C 0.22888(18) 0.92257(19) 0.6417(2)
H37_14 H 0.0713 0.8696 0.7429
H42_14 H 0.1304 0.7571 0.5713
H45_14 H 0.2429 0.9287 0.6304
C95_14 C 0.1047(2) 0.8128(2) 0.6600(2)
C98_14 C 0.1600(2) 0.8953(2) 0.6872(2)
C101_14 C 0.1872(2) 0.8400(2) 0.6047(2)
C106_14 C 0.12799(17) 0.83156(18) 0.65223(18)
C109_14 C 0.15223(18) 0.87201(17) 0.66844(18)
C112_14 C 0.16844(18) 0.84777(18) 0.62799(17)
C117_14 C 0.13066(17) 0.85343(17) 0.67095(17)
C120_14 C 0.14657(17) 0.82905(17) 0.63066(17)
C123_14 C 0.17095(17) 0.86934(17) 0.64657(17)
C128_14 C 0.0806(3) 0.8133(3) 0.6382(3)
C131_14 C 0.1382(3) 0.9194(3) 0.6867(3)
C134_14 C 0.1867(3) 0.8618(3) 0.5806(3)
H50_14 H 0.0653 0.8027 0.6452
H53_14 H 0.1452 0.9347 0.6973
H56_14 H 0.1973 0.8548 0.5653
H61_14 H 0.0869 0.8045 0.6215
H64_14 H 0.1215 0.9131 0.6955
H67_14 H 0.1955 0.8785 0.5869
C139_14 C 0.0701(3) 0.8424(4) 0.6309(3)
C142_14 C 0.1309(3) 0.9299(3) 0.6576(4)
C145_14 C 0.1576(4) 0.8691(3) 0.5701(3)
H72_14 H 0.0854 0.8540 0.6266
H75_14 H 0.1266 0.9146 0.6460
H78_14 H 0.1460 0.8734 0.5854
H83_14 H 0.0581 0.8413 0.6153
H86_14 H 0.1153 0.9419 0.6587
H89_14 H 0.1587 0.8847 0.5581
H94_14 H 0.0603 0.8499 0.6462
H97_14 H 0.1462 0.9397 0.6501
H100_14 H 0.1501 0.8538 0.5603
C150_14 C 0.1151(3) 0.7833(3) 0.6675(3)
C153_14 C 0.1675(3) 0.8849(3) 0.7167(3)
C156_14 C 0.2167(3) 0.8325(3) 0.6151(3)
H105_14 H 0.1214 0.7744 0.6508
H108_14 H 0.1508 0.8786 0.7256
H111_14 H 0.2256 0.8492 0.6214
H116_14 H 0.0998 0.7727 0.6744
H119_14 H 0.1744 0.9002 0.7273
H122_14 H 0.2273 0.8256 0.5998
C161_14 C 0.1382(3) 0.7820(3) 0.6885(3)
C164_14 C 0.1885(3) 0.8618(3) 0.7180(3)
C167_14 C 0.2180(3) 0.8115(3) 0.6382(3)
H127_14 H 0.1321 0.7899 0.7054
H130_14 H 0.2054 0.8679 0.7101
H133_14 H 0.2101 0.7946 0.6321
H138_14 H 0.1433 0.7632 0.6915
H141_14 H 0.1915 0.8567 0.7368
H144_14 H 0.2368 0.8085 0.6433
H149_14 H 0.1537 0.7920 0.6818
H152_14 H 0.1818 0.8463 0.7080
H155_14 H 0.2080 0.8182 0.6537
O3_17 O 1.0000 0.7500 0.7500
O7_10 O 0.96952(13) 0.76176(15) 0.80139(16)
O13_10 O 0.76176(15) 0.80139(16) 0.96952(13)
O14_7 O 0.80139(16) 0.96952(13) 0.76176(15)
O20_10 O 0.96610(14) 0.73869(16) 0.83933(17)
O28_10 O 0.73869(16) 0.83933(17) 0.96610(14)
O29_7 O 0.83933(17) 0.96610(14) 0.73869(16)
C15_10 C 0.95860(18) 0.7577(2) 0.8242(3)
C20_10 C 0.7577(2) 0.8242(3) 0.95860(18)
C21_10 C 0.8242(3) 0.95860(18) 0.7577(2)
C26_10 C 0.93564(17) 0.77590(18) 0.8339(2)
C31_10 C 0.77590(18) 0.8339(2) 0.93564(17)
C32_10 C 0.8339(2) 0.93564(17) 0.77590(18)
C37_10 C 0.92772(18) 0.7977(2) 0.8175(2)
C42_10 C 0.7977(2) 0.8175(2) 0.92772(18)
C43_10 C 0.8175(2) 0.92772(18) 0.7977(2)
H14_10 H 0.9367 0.8013 0.8011
H19_10 H 0.8013 0.8011 0.9367
H20_10 H 0.8011 0.9367 0.8013
C50_10 C 0.90565(18) 0.81435(17) 0.8262(2)
C53_10 C 0.81435(17) 0.8262(2) 0.90565(18)
C54_10 C 0.8262(2) 0.90565(18) 0.81435(17)
C61_10 C 0.89183(17) 0.80869(17) 0.85046(19)
C64_10 C 0.85046(19) 0.89183(17) 0.80869(17)
C67_10 C 0.80869(17) 0.85046(19) 0.89183(17)
C72_10 C 0.90074(19) 0.78670(19) 0.8662(2)
C75_10 C 0.8662(2) 0.90074(19) 0.78670(19)
C78_10 C 0.78670(19) 0.8662(2) 0.90074(19)
H27_10 H 0.8917 0.7825 0.8825
H30_10 H 0.8825 0.8917 0.7825
H33_10 H 0.7825 0.8825 0.8917
C81_10 C 0.92257(19) 0.77112(18) 0.8583(2)
C86_10 C 0.8583(2) 0.92257(19) 0.77112(18)
C89_10 C 0.77112(18) 0.8583(2) 0.92257(19)
H36_10 H 0.9287 0.7571 0.8696
H41_10 H 0.8696 0.9287 0.7571
H44_10 H 0.7571 0.8696 0.9287
C94_10 C 0.8953(2) 0.8400(2) 0.8128(2)
C97_10 C 0.8400(2) 0.8128(2) 0.8953(2)
C100_10 C 0.8128(2) 0.8953(2) 0.8400(2)
C105_10 C 0.87201(17) 0.84777(18) 0.83156(18)
C108_10 C 0.84777(18) 0.83156(18) 0.87201(17)
C111_10 C 0.83156(18) 0.87201(17) 0.84777(18)
C116_10 C 0.86934(17) 0.82905(17) 0.85343(17)
C119_10 C 0.85343(17) 0.86934(17) 0.82905(17)
C122_10 C 0.82905(17) 0.85343(17) 0.86934(17)
C127_10 C 0.9194(3) 0.8618(3) 0.8133(3)
C130_10 C 0.8618(3) 0.8133(3) 0.9194(3)
C133_10 C 0.8133(3) 0.9194(3) 0.8618(3)
H49_10 H 0.9347 0.8548 0.8027
H52_10 H 0.8548 0.8027 0.9347
H55_10 H 0.8027 0.9347 0.8548
H60_10 H 0.9131 0.8785 0.8045
H63_10 H 0.8785 0.8045 0.9131
H66_10 H 0.8045 0.9131 0.8785
C138_10 C 0.9299(3) 0.8691(3) 0.8424(4)
C141_10 C 0.8691(3) 0.8424(4) 0.9299(3)
C144_10 C 0.8424(4) 0.9299(3) 0.8691(3)
H71_10 H 0.9146 0.8734 0.8540
H74_10 H 0.8734 0.8540 0.9146
H77_10 H 0.8540 0.9146 0.8734
H82_10 H 0.9419 0.8847 0.8413
H85_10 H 0.8847 0.8413 0.9419
H88_10 H 0.8413 0.9419 0.8847
H93_10 H 0.9397 0.8538 0.8499
H96_10 H 0.8538 0.8499 0.9397
H99_10 H 0.8499 0.9397 0.8538
C149_10 C 0.8849(3) 0.8325(3) 0.7833(3)
C152_10 C 0.8325(3) 0.7833(3) 0.8849(3)
C155_10 C 0.7833(3) 0.8849(3) 0.8325(3)
H104_10 H 0.8786 0.8492 0.7744
H107_10 H 0.8492 0.7744 0.8786
H110_10 H 0.7744 0.8786 0.8492
H115_10 H 0.9002 0.8256 0.7727
H118_10 H 0.8256 0.7727 0.9002
H121_10 H 0.7727 0.9002 0.8256
C160_10 C 0.8618(3) 0.8115(3) 0.7820(3)
C163_10 C 0.8115(3) 0.7820(3) 0.8618(3)
C166_10 C 0.7820(3) 0.8618(3) 0.8115(3)
H126_10 H 0.8679 0.7946 0.7899
H129_10 H 0.7946 0.7899 0.8679
H132_10 H 0.7899 0.8679 0.7946
H137_10 H 0.8567 0.8085 0.7632
H140_10 H 0.8085 0.7632 0.8567
H143_10 H 0.7632 0.8567 0.8085
H148_10 H 0.8463 0.8182 0.7920
H151_10 H 0.8182 0.7920 0.8463
H154_10 H 0.7920 0.8463 0.8182
Pb18_5 Pb 0.722444(14) 0.193721(17) 0.0000
Pb18_6 Pb 0.722444(14) 0.193721(17) 1.0000
O17_5 O 0.73824(15) 0.03048(13) 0.80139(16)
O18_5 O 0.69861(16) 0.23824(15) 0.96952(13)
O32_5 O 0.76131(16) 0.03390(14) 0.83933(17)
O33_5 O 0.66067(17) 0.26131(16) 0.96610(14)
C17_5 C 0.54140(18) 0.1758(3) 0.7577(2)
C24_5 C 0.7423(2) 0.04140(18) 0.8242(3)
C25_5 C 0.6758(3) 0.2423(2) 0.95860(18)
C28_5 C 0.56436(17) 0.1661(2) 0.77590(18)
C35_5 C 0.72410(18) 0.06436(17) 0.8339(2)
C36_5 C 0.6661(2) 0.22410(18) 0.93564(17)
C39_5 C 0.57228(18) 0.1825(2) 0.7977(2)
C46_5 C 0.7023(2) 0.07228(18) 0.8175(2)
C47_5 C 0.6825(2) 0.2023(2) 0.92772(18)
H16_5 H 0.5633 0.1989 0.8013
H23_5 H 0.6987 0.0633 0.8011
H24_5 H 0.6989 0.1987 0.9367
C52_5 C 0.59435(18) 0.1738(2) 0.81435(17)
C57_5 C 0.68565(17) 0.09435(18) 0.8262(2)
C58_5 C 0.6738(2) 0.18565(17) 0.90565(18)
C63_5 C 0.60817(17) 0.14954(19) 0.80869(17)
C66_5 C 0.64954(19) 0.19131(17) 0.89183(17)
C69_5 C 0.69131(17) 0.10817(17) 0.85046(19)
C74_5 C 0.59926(19) 0.1338(2) 0.78670(19)
C77_5 C 0.6338(2) 0.21330(19) 0.90074(19)
C80_5 C 0.71330(19) 0.09926(19) 0.8662(2)
H29_5 H 0.6083 0.1175 0.7825
H32_5 H 0.6175 0.2175 0.8917
H35_5 H 0.7175 0.1083 0.8825
C83_5 C 0.57743(19) 0.1417(2) 0.77112(18)
C88_5 C 0.6417(2) 0.22888(18) 0.92257(19)
C91_5 C 0.72888(18) 0.07743(19) 0.8583(2)
H38_5 H 0.5713 0.1304 0.7571
H43_5 H 0.6304 0.2429 0.9287
H46_5 H 0.7429 0.0713 0.8696
C96_5 C 0.6047(2) 0.1872(2) 0.8400(2)
C99_5 C 0.6600(2) 0.1047(2) 0.8128(2)
C102_5 C 0.6872(2) 0.1600(2) 0.8953(2)
C107_5 C 0.62799(17) 0.16844(18) 0.84777(18)
C110_5 C 0.65223(18) 0.12799(17) 0.83156(18)
C113_5 C 0.66844(18) 0.15223(18) 0.87201(17)
C118_5 C 0.63066(17) 0.14657(17) 0.82905(17)
C121_5 C 0.64657(17) 0.17095(17) 0.86934(17)
C124_5 C 0.67095(17) 0.13066(17) 0.85343(17)
C129_5 C 0.5806(3) 0.1867(3) 0.8618(3)
C132_5 C 0.6382(3) 0.0806(3) 0.8133(3)
C135_5 C 0.6867(3) 0.1382(3) 0.9194(3)
H51_5 H 0.5653 0.1973 0.8548
H54_5 H 0.6452 0.0653 0.8027
H57_5 H 0.6973 0.1452 0.9347
H62_5 H 0.5869 0.1955 0.8785
H65_5 H 0.6215 0.0869 0.8045
H68_5 H 0.6955 0.1215 0.9131
C140_5 C 0.5701(3) 0.1576(4) 0.8691(3)
C143_5 C 0.6309(3) 0.0701(3) 0.8424(4)
C146_5 C 0.6576(4) 0.1309(3) 0.9299(3)
H73_5 H 0.5854 0.1460 0.8734
H76_5 H 0.6266 0.0854 0.8540
H79_5 H 0.6460 0.1266 0.9146
H84_5 H 0.5581 0.1587 0.8847
H87_5 H 0.6153 0.0581 0.8413
H90_5 H 0.6587 0.1153 0.9419
H95_5 H 0.5603 0.1501 0.8538
H98_5 H 0.6462 0.0603 0.8499
H101_5 H 0.6501 0.1462 0.9397
C151_5 C 0.6151(3) 0.2167(3) 0.8325(3)
C154_5 C 0.6675(3) 0.1151(3) 0.7833(3)
C157_5 C 0.7167(3) 0.1675(3) 0.8849(3)
H106_5 H 0.6214 0.2256 0.8492
H109_5 H 0.6508 0.1214 0.7744
H112_5 H 0.7256 0.1508 0.8786
H117_5 H 0.5998 0.2273 0.8256
H120_5 H 0.6744 0.0998 0.7727
H123_5 H 0.7273 0.1744 0.9002
C162_5 C 0.6382(3) 0.2180(3) 0.8115(3)
C165_5 C 0.6885(3) 0.1382(3) 0.7820(3)
C168_5 C 0.7180(3) 0.1885(3) 0.8618(3)
H128_5 H 0.6321 0.2101 0.7946
H131_5 H 0.7054 0.1321 0.7899
H134_5 H 0.7101 0.2054 0.8679
H139_5 H 0.6433 0.2368 0.8085
H142_5 H 0.6915 0.1433 0.7632
H145_5 H 0.7368 0.1915 0.8567
H150_5 H 0.6537 0.2080 0.8182
H153_5 H 0.6818 0.1537 0.7920
H156_5 H 0.7080 0.1818 0.8463
Pb16_5 Pb 0.777556(14) 0.0000 0.193721(17)
C1_11 C 0.45860(18) 0.7423(2) 0.1758(3)
C2_11 C 0.43564(17) 0.72410(18) 0.1661(2)
C3_11 C 0.42772(18) 0.7023(2) 0.1825(2)
H1_11 H 0.4367 0.6987 0.1989
C4_11 C 0.40565(18) 0.68565(17) 0.1738(2)
C5_11 C 0.39183(17) 0.69131(17) 0.14954(19)
C6_11 C 0.40074(19) 0.71330(19) 0.1338(2)
H2_11 H 0.3917 0.7175 0.1175
C7_11 C 0.42257(19) 0.72888(18) 0.1417(2)
H3_11 H 0.4287 0.7429 0.1304
C8_11 C 0.3953(2) 0.6600(2) 0.1872(2)
C9_11 C 0.37201(17) 0.65223(18) 0.16844(18)
C10_11 C 0.36934(17) 0.67095(17) 0.14657(17)
C11_11 C 0.4194(3) 0.6382(3) 0.1867(3)
H4_11 H 0.4347 0.6452 0.1973
H5_11 H 0.4131 0.6215 0.1955
C12_11 C 0.4299(3) 0.6309(3) 0.1576(4)
H6_11 H 0.4146 0.6266 0.1460
H7_11 H 0.4419 0.6153 0.1587
H8_11 H 0.4397 0.6462 0.1501
C13_11 C 0.3849(3) 0.6675(3) 0.2167(3)
H9_11 H 0.3786 0.6508 0.2256
H10_11 H 0.4002 0.6744 0.2273
C14_11 C 0.3618(3) 0.6885(3) 0.2180(3)
H11_11 H 0.3679 0.7054 0.2101
H12_11 H 0.3567 0.6915 0.2368
H13_11 H 0.3463 0.6818 0.2080
Pb5_12 Pb 0.306279(17) 0.5000 0.277556(14)
Pb16_6 Pb 0.777556(14) 1.0000 0.193721(17)
O11_10 O 0.30139(16) 0.53048(13) 0.23824(15)
O12_10 O 0.26176(15) 0.69861(16) 0.03048(13)
O13_11 O 0.26176(15) 0.53048(13) 0.30139(16)
O17_6 O 0.73824(15) 0.96952(13) 0.19861(16)
O18_6 O 0.69861(16) 0.76176(15) 0.03048(13)
O26_10 O 0.33933(17) 0.53390(14) 0.26131(16)
O27_10 O 0.23869(16) 0.66067(17) 0.03390(14)
O28_11 O 0.23869(16) 0.53390(14) 0.33933(17)
O32_6 O 0.76131(16) 0.96610(14) 0.16067(17)
O33_6 O 0.66067(17) 0.73869(16) 0.03390(14)
C15_11 C 0.45860(18) 0.6758(3) 0.2577(2)
C17_6 C 0.54140(18) 0.8242(3) 0.2423(2)
C18_11 C 0.3242(3) 0.54140(18) 0.2423(2)
C19_11 C 0.2577(2) 0.6758(3) 0.04140(18)
C20_11 C 0.2577(2) 0.54140(18) 0.3242(3)
C21_11 C 0.3242(3) 0.7423(2) 0.45860(18)
C24_6 C 0.7423(2) 0.95860(18) 0.1758(3)
C25_6 C 0.6758(3) 0.7577(2) 0.04140(18)
C26_11 C 0.43564(17) 0.6661(2) 0.27590(18)
C28_6 C 0.56436(17) 0.8339(2) 0.22410(18)
C29_11 C 0.3339(2) 0.56436(17) 0.22410(18)
C30_11 C 0.27590(18) 0.6661(2) 0.06436(17)
C31_11 C 0.27590(18) 0.56436(17) 0.3339(2)
C32_11 C 0.3339(2) 0.72410(18) 0.43564(17)
C35_6 C 0.72410(18) 0.93564(17) 0.1661(2)
C36_6 C 0.6661(2) 0.77590(18) 0.06436(17)
C37_11 C 0.42772(18) 0.6825(2) 0.2977(2)
C39_6 C 0.57228(18) 0.8175(2) 0.2023(2)
C40_11 C 0.3175(2) 0.57228(18) 0.2023(2)
C41_11 C 0.2977(2) 0.6825(2) 0.07228(18)
C42_11 C 0.2977(2) 0.57228(18) 0.3175(2)
C43_11 C 0.3175(2) 0.7023(2) 0.42772(18)
C46_6 C 0.7023(2) 0.92772(18) 0.1825(2)
C47_6 C 0.6825(2) 0.7977(2) 0.07228(18)
H14_11 H 0.4367 0.6989 0.3013
H16_6 H 0.5633 0.8011 0.1987
H17_11 H 0.3011 0.5633 0.1987
H18_11 H 0.3013 0.6989 0.0633
H19_11 H 0.3013 0.5633 0.3011
H20_11 H 0.3011 0.6987 0.4367
H23_6 H 0.6987 0.9367 0.1989
H24_6 H 0.6989 0.8013 0.0633
C48_11 C 0.3262(2) 0.59435(18) 0.18565(17)
C49_11 C 0.31435(17) 0.6738(2) 0.09435(18)
C50_11 C 0.40565(18) 0.6738(2) 0.31435(17)
C52_6 C 0.59435(18) 0.8262(2) 0.18565(17)
C53_11 C 0.31435(17) 0.59435(18) 0.3262(2)
C54_11 C 0.3262(2) 0.68565(17) 0.40565(18)
C57_6 C 0.68565(17) 0.90565(18) 0.1738(2)
C58_6 C 0.6738(2) 0.81435(17) 0.09435(18)
C59_11 C 0.35046(19) 0.60817(17) 0.19131(17)
C60_11 C 0.30869(17) 0.64954(19) 0.10817(17)
C61_11 C 0.39183(17) 0.64954(19) 0.30869(17)
C63_6 C 0.60817(17) 0.85046(19) 0.19131(17)
C64_11 C 0.35046(19) 0.69131(17) 0.39183(17)
C66_6 C 0.64954(19) 0.80869(17) 0.10817(17)
C67_11 C 0.30869(17) 0.60817(17) 0.35046(19)
C69_6 C 0.69131(17) 0.89183(17) 0.14954(19)
C70_11 C 0.3662(2) 0.59926(19) 0.21330(19)
C71_11 C 0.28670(19) 0.6338(2) 0.09926(19)
C72_11 C 0.40074(19) 0.6338(2) 0.28670(19)
C74_6 C 0.59926(19) 0.8662(2) 0.21330(19)
C75_11 C 0.3662(2) 0.71330(19) 0.40074(19)
C77_6 C 0.6338(2) 0.78670(19) 0.09926(19)
C78_11 C 0.28670(19) 0.59926(19) 0.3662(2)
C80_6 C 0.71330(19) 0.90074(19) 0.1338(2)
H25_11 H 0.3825 0.6083 0.2175
H26_11 H 0.2825 0.6175 0.1083
H27_11 H 0.3917 0.6175 0.2825
H29_6 H 0.6083 0.8825 0.2175
H30_11 H 0.3825 0.7175 0.3917
H32_6 H 0.6175 0.7825 0.1083
H33_11 H 0.2825 0.6083 0.3825
H35_6 H 0.7175 0.8917 0.1175
C81_11 C 0.42257(19) 0.6417(2) 0.27112(18)
C83_6 C 0.57743(19) 0.8583(2) 0.22888(18)
C84_11 C 0.3583(2) 0.57743(19) 0.22888(18)
C85_11 C 0.27112(18) 0.6417(2) 0.07743(19)
C86_11 C 0.3583(2) 0.72888(18) 0.42257(19)
C88_6 C 0.6417(2) 0.77112(18) 0.07743(19)
C89_11 C 0.27112(18) 0.57743(19) 0.3583(2)
C91_6 C 0.72888(18) 0.92257(19) 0.1417(2)
H36_11 H 0.4287 0.6304 0.2571
H38_6 H 0.5713 0.8696 0.2429
H39_11 H 0.3696 0.5713 0.2429
H40_11 H 0.2571 0.6304 0.0713
H41_11 H 0.3696 0.7429 0.4287
H43_6 H 0.6304 0.7571 0.0713
H44_11 H 0.2571 0.5713 0.3696
H46_6 H 0.7429 0.9287 0.1304
C92_11 C 0.3400(2) 0.6872(2) 0.1047(2)
C93_11 C 0.3128(2) 0.6047(2) 0.1600(2)
C94_11 C 0.3953(2) 0.6872(2) 0.3400(2)
C96_6 C 0.6047(2) 0.8128(2) 0.1600(2)
C97_11 C 0.3400(2) 0.6047(2) 0.3128(2)
C99_6 C 0.6600(2) 0.8953(2) 0.1872(2)
C100_11 C 0.3128(2) 0.6600(2) 0.3953(2)
C102_6 C 0.6872(2) 0.8400(2) 0.1047(2)
C103_11 C 0.34777(18) 0.66844(18) 0.12799(17)
C104_11 C 0.33156(18) 0.62799(17) 0.15223(18)
C105_11 C 0.37201(17) 0.66844(18) 0.34777(18)
C107_6 C 0.62799(17) 0.83156(18) 0.15223(18)
C108_11 C 0.34777(18) 0.62799(17) 0.33156(18)
C110_6 C 0.65223(18) 0.87201(17) 0.16844(18)
C111_11 C 0.33156(18) 0.65223(18) 0.37201(17)
C113_6 C 0.66844(18) 0.84777(18) 0.12799(17)
C114_11 C 0.35343(17) 0.63066(17) 0.17095(17)
C115_11 C 0.32905(17) 0.64657(17) 0.13066(17)
C116_11 C 0.36934(17) 0.64657(17) 0.32905(17)
C118_6 C 0.63066(17) 0.85343(17) 0.17095(17)
C119_11 C 0.35343(17) 0.67095(17) 0.36934(17)
C121_6 C 0.64657(17) 0.82905(17) 0.13066(17)
C122_11 C 0.32905(17) 0.63066(17) 0.35343(17)
C124_6 C 0.67095(17) 0.86934(17) 0.14657(17)
C125_11 C 0.3618(3) 0.6867(3) 0.0806(3)
C126_11 C 0.3133(3) 0.5806(3) 0.1382(3)
C127_11 C 0.4194(3) 0.6867(3) 0.3618(3)
C129_6 C 0.5806(3) 0.8133(3) 0.1382(3)
C130_11 C 0.3618(3) 0.5806(3) 0.3133(3)
C132_6 C 0.6382(3) 0.9194(3) 0.1867(3)
C133_11 C 0.3133(3) 0.6382(3) 0.4194(3)
C135_6 C 0.6867(3) 0.8618(3) 0.0806(3)
H47_11 H 0.3548 0.6973 0.0653
H48_11 H 0.3027 0.5653 0.1452
H49_11 H 0.4347 0.6973 0.3548
H51_6 H 0.5653 0.8027 0.1452
H52_11 H 0.3548 0.5653 0.3027
H54_6 H 0.6452 0.9347 0.1973
H55_11 H 0.3027 0.6452 0.4347
H57_6 H 0.6973 0.8548 0.0653
H58_11 H 0.3785 0.6955 0.0869
H59_11 H 0.3045 0.5869 0.1215
H60_11 H 0.4131 0.6955 0.3785
H62_6 H 0.5869 0.8045 0.1215
H63_11 H 0.3785 0.5869 0.3045
H65_6 H 0.6215 0.9131 0.1955
H66_11 H 0.3045 0.6215 0.4131
H68_6 H 0.6955 0.8785 0.0869
C136_11 C 0.3691(3) 0.6576(4) 0.0701(3)
C137_11 C 0.3424(4) 0.5701(3) 0.1309(3)
C138_11 C 0.4299(3) 0.6576(4) 0.3691(3)
C140_6 C 0.5701(3) 0.8424(4) 0.1309(3)
C141_11 C 0.3691(3) 0.5701(3) 0.3424(4)
C143_6 C 0.6309(3) 0.9299(3) 0.1576(4)
C144_11 C 0.3424(4) 0.6309(3) 0.4299(3)
C146_6 C 0.6576(4) 0.8691(3) 0.0701(3)
H69_11 H 0.3734 0.6460 0.0854
H70_11 H 0.3540 0.5854 0.1266
H71_11 H 0.4146 0.6460 0.3734
H73_6 H 0.5854 0.8540 0.1266
H74_11 H 0.3734 0.5854 0.3540
H76_6 H 0.6266 0.9146 0.1460
H77_11 H 0.3540 0.6266 0.4146
H79_6 H 0.6460 0.8734 0.0854
H80_11 H 0.3847 0.6587 0.0581
H81_11 H 0.3413 0.5581 0.1153
H82_11 H 0.4419 0.6587 0.3847
H84_6 H 0.5581 0.8413 0.1153
H85_11 H 0.3847 0.5581 0.3413
H87_6 H 0.6153 0.9419 0.1587
H88_11 H 0.3413 0.6153 0.4419
H90_6 H 0.6587 0.8847 0.0581
H91_11 H 0.3538 0.6501 0.0603
H92_11 H 0.3499 0.5603 0.1462
H93_11 H 0.4397 0.6501 0.3538
H95_6 H 0.5603 0.8499 0.1462
H96_11 H 0.3538 0.5603 0.3499
H98_6 H 0.6462 0.9397 0.1501
H99_11 H 0.3499 0.6462 0.4397
H101_6 H 0.6501 0.8538 0.0603
C147_11 C 0.3325(3) 0.7167(3) 0.1151(3)
C148_11 C 0.2833(3) 0.6151(3) 0.1675(3)
C149_11 C 0.3849(3) 0.7167(3) 0.3325(3)
C151_6 C 0.6151(3) 0.7833(3) 0.1675(3)
C152_11 C 0.3325(3) 0.6151(3) 0.2833(3)
C154_6 C 0.6675(3) 0.8849(3) 0.2167(3)
C155_11 C 0.2833(3) 0.6675(3) 0.3849(3)
C157_6 C 0.7167(3) 0.8325(3) 0.1151(3)
H102_11 H 0.3492 0.7256 0.1214
H103_11 H 0.2744 0.6214 0.1508
H104_11 H 0.3786 0.7256 0.3492
H106_6 H 0.6214 0.7744 0.1508
H107_11 H 0.3492 0.6214 0.2744
H109_6 H 0.6508 0.8786 0.2256
H110_11 H 0.2744 0.6508 0.3786
H112_6 H 0.7256 0.8492 0.1214
H113_11 H 0.3256 0.7273 0.0998
H114_11 H 0.2727 0.5998 0.1744
H115_11 H 0.4002 0.7273 0.3256
H117_6 H 0.5998 0.7727 0.1744
H118_11 H 0.3256 0.5998 0.2727
H120_6 H 0.6744 0.9002 0.2273
H121_11 H 0.2727 0.6744 0.4002
H123_6 H 0.7273 0.8256 0.0998
C158_11 C 0.3115(3) 0.7180(3) 0.1382(3)
C159_11 C 0.2820(3) 0.6382(3) 0.1885(3)
C160_11 C 0.3618(3) 0.7180(3) 0.3115(3)
C162_6 C 0.6382(3) 0.7820(3) 0.1885(3)
C163_11 C 0.3115(3) 0.6382(3) 0.2820(3)
C165_6 C 0.6885(3) 0.8618(3) 0.2180(3)
C166_11 C 0.2820(3) 0.6885(3) 0.3618(3)
C168_6 C 0.7180(3) 0.8115(3) 0.1382(3)
H124_11 H 0.2946 0.7101 0.1321
H125_11 H 0.2899 0.6321 0.2054
H126_11 H 0.3679 0.7101 0.2946
H128_6 H 0.6321 0.7899 0.2054
H129_11 H 0.2946 0.6321 0.2899
H131_6 H 0.7054 0.8679 0.2101
H132_11 H 0.2899 0.7054 0.3679
H134_6 H 0.7101 0.7946 0.1321
H135_11 H 0.3085 0.7368 0.1433
H136_11 H 0.2632 0.6433 0.1915
H137_11 H 0.3567 0.7368 0.3085
H139_6 H 0.6433 0.7632 0.1915
H140_11 H 0.3085 0.6433 0.2632
H142_6 H 0.6915 0.8567 0.2368
H143_11 H 0.2632 0.6915 0.3567
H145_6 H 0.7368 0.8085 0.1433
H146_11 H 0.3182 0.7080 0.1537
H147_11 H 0.2920 0.6537 0.1818
H148_11 H 0.3463 0.7080 0.3182
H150_6 H 0.6537 0.7920 0.1818
H151_11 H 0.3182 0.6537 0.2920
H153_6 H 0.6818 0.8463 0.2080
H154_11 H 0.2920 0.6818 0.3463
H156_6 H 0.7080 0.8182 0.1537
O3_18 O 0.5000 0.2500 0.2500
Pb4_8 Pb 0.5000 0.277556(14) 0.306279(17)
O4_13 O 0.53048(13) 0.19861(16) 0.23824(15)
O5_9 O 0.46952(13) 0.26176(15) 0.19861(16)
O7_11 O 0.53048(13) 0.30139(16) 0.26176(15)
O8_14 O 0.46952(13) 0.30139(16) 0.26176(15)
O9_14 O 0.46952(13) 0.23824(15) 0.30139(16)
O10_8 O 0.53048(13) 0.23824(15) 0.30139(16)
O15_15 O 0.26176(15) 0.19861(16) 0.46952(13)
O19_9 O 0.46610(14) 0.23869(16) 0.16067(17)
O20_11 O 0.53390(14) 0.33933(17) 0.23869(16)
O21_14 O 0.46610(14) 0.33933(17) 0.23869(16)
O22_13 O 0.53390(14) 0.16067(17) 0.26131(16)
O24_14 O 0.46610(14) 0.26131(16) 0.33933(17)
O25_8 O 0.53390(14) 0.26131(16) 0.33933(17)
O30_15 O 0.23869(16) 0.16067(17) 0.46610(14)
C15_12 C 0.54140(18) 0.3242(3) 0.2577(2)
C16_15 C 0.45860(18) 0.2423(2) 0.3242(3)
C20_12 C 0.7423(2) 0.45860(18) 0.3242(3)
C21_12 C 0.6758(3) 0.2577(2) 0.45860(18)
C22_15 C 0.2577(2) 0.1758(3) 0.45860(18)
C23_15 C 0.3242(3) 0.04140(18) 0.2577(2)
C26_12 C 0.56436(17) 0.3339(2) 0.27590(18)
C27_15 C 0.43564(17) 0.22410(18) 0.3339(2)
C31_12 C 0.72410(18) 0.43564(17) 0.3339(2)
C32_12 C 0.6661(2) 0.27590(18) 0.43564(17)
C33_15 C 0.27590(18) 0.1661(2) 0.43564(17)
C34_15 C 0.3339(2) 0.06436(17) 0.27590(18)
C37_12 C 0.57228(18) 0.3175(2) 0.2977(2)
C38_15 C 0.42772(18) 0.2023(2) 0.3175(2)
C42_12 C 0.7023(2) 0.42772(18) 0.3175(2)
C43_12 C 0.6825(2) 0.2977(2) 0.42772(18)
C44_15 C 0.2977(2) 0.1825(2) 0.42772(18)
C45_15 C 0.3175(2) 0.07228(18) 0.2977(2)
H14_12 H 0.5633 0.3011 0.3013
H15_15 H 0.4367 0.1987 0.3011
H19_12 H 0.6987 0.4367 0.3011
H20_12 H 0.6989 0.3013 0.4367
H21_15 H 0.3013 0.1989 0.4367
H22_15 H 0.3011 0.0633 0.3013
C50_12 C 0.59435(18) 0.3262(2) 0.31435(17)
C51_15 C 0.40565(18) 0.18565(17) 0.3262(2)
C53_12 C 0.68565(17) 0.40565(18) 0.3262(2)
C54_12 C 0.6738(2) 0.31435(17) 0.40565(18)
C55_15 C 0.31435(17) 0.1738(2) 0.40565(18)
C56_15 C 0.3262(2) 0.09435(18) 0.31435(17)
C61_12 C 0.60817(17) 0.35046(19) 0.30869(17)
C62_15 C 0.39183(17) 0.19131(17) 0.35046(19)
C64_12 C 0.64954(19) 0.30869(17) 0.39183(17)
C65_15 C 0.35046(19) 0.10817(17) 0.30869(17)
C67_12 C 0.69131(17) 0.39183(17) 0.35046(19)
C68_15 C 0.30869(17) 0.14954(19) 0.39183(17)
C72_12 C 0.59926(19) 0.3662(2) 0.28670(19)
C73_15 C 0.40074(19) 0.21330(19) 0.3662(2)
C75_12 C 0.6338(2) 0.28670(19) 0.40074(19)
C76_15 C 0.3662(2) 0.09926(19) 0.28670(19)
C78_12 C 0.71330(19) 0.40074(19) 0.3662(2)
C79_15 C 0.28670(19) 0.1338(2) 0.40074(19)
H27_12 H 0.6083 0.3825 0.2825
H28_15 H 0.3917 0.2175 0.3825
H30_12 H 0.6175 0.2825 0.3917
H31_15 H 0.3825 0.1083 0.2825
H33_12 H 0.7175 0.3917 0.3825
H34_15 H 0.2825 0.1175 0.3917
C81_12 C 0.57743(19) 0.3583(2) 0.27112(18)
C82_15 C 0.42257(19) 0.22888(18) 0.3583(2)
C86_12 C 0.6417(2) 0.27112(18) 0.42257(19)
C87_15 C 0.3583(2) 0.07743(19) 0.27112(18)
C89_12 C 0.72888(18) 0.42257(19) 0.3583(2)
C90_15 C 0.27112(18) 0.1417(2) 0.42257(19)
H36_12 H 0.5713 0.3696 0.2571
H37_15 H 0.4287 0.2429 0.3696
H41_12 H 0.6304 0.2571 0.4287
H42_15 H 0.3696 0.0713 0.2571
H44_12 H 0.7429 0.4287 0.3696
H45_15 H 0.2571 0.1304 0.4287
C94_12 C 0.6047(2) 0.3128(2) 0.3400(2)
C95_15 C 0.3953(2) 0.1600(2) 0.3128(2)
C97_12 C 0.6600(2) 0.3953(2) 0.3128(2)
C98_15 C 0.3400(2) 0.1872(2) 0.3953(2)
C100_12 C 0.6872(2) 0.3400(2) 0.3953(2)
C101_15 C 0.3128(2) 0.1047(2) 0.3400(2)
C105_12 C 0.62799(17) 0.33156(18) 0.34777(18)
C106_15 C 0.37201(17) 0.15223(18) 0.33156(18)
C108_12 C 0.65223(18) 0.37201(17) 0.33156(18)
C109_15 C 0.34777(18) 0.16844(18) 0.37201(17)
C111_12 C 0.66844(18) 0.34777(18) 0.37201(17)
C112_15 C 0.33156(18) 0.12799(17) 0.34777(18)
C116_12 C 0.63066(17) 0.35343(17) 0.32905(17)
C117_15 C 0.36934(17) 0.17095(17) 0.35343(17)
C119_12 C 0.64657(17) 0.32905(17) 0.36934(17)
C120_15 C 0.35343(17) 0.13066(17) 0.32905(17)
C122_12 C 0.67095(17) 0.36934(17) 0.35343(17)
C123_15 C 0.32905(17) 0.14657(17) 0.36934(17)
C127_12 C 0.5806(3) 0.3133(3) 0.3618(3)
C128_15 C 0.4194(3) 0.1382(3) 0.3133(3)
C130_12 C 0.6382(3) 0.4194(3) 0.3133(3)
C131_15 C 0.3618(3) 0.1867(3) 0.4194(3)
C133_12 C 0.6867(3) 0.3618(3) 0.4194(3)
C134_15 C 0.3133(3) 0.0806(3) 0.3618(3)
H49_12 H 0.5653 0.3027 0.3548
H50_15 H 0.4347 0.1452 0.3027
H52_12 H 0.6452 0.4347 0.3027
H53_15 H 0.3548 0.1973 0.4347
H55_12 H 0.6973 0.3548 0.4347
H56_15 H 0.3027 0.0653 0.3548
H60_12 H 0.5869 0.3045 0.3785
H61_15 H 0.4131 0.1215 0.3045
H63_12 H 0.6215 0.4131 0.3045
H64_15 H 0.3785 0.1955 0.4131
H66_12 H 0.6955 0.3785 0.4131
H67_15 H 0.3045 0.0869 0.3785
C138_12 C 0.5701(3) 0.3424(4) 0.3691(3)
C139_15 C 0.4299(3) 0.1309(3) 0.3424(4)
C141_12 C 0.6309(3) 0.4299(3) 0.3424(4)
C142_15 C 0.3691(3) 0.1576(4) 0.4299(3)
C144_12 C 0.6576(4) 0.3691(3) 0.4299(3)
C145_15 C 0.3424(4) 0.0701(3) 0.3691(3)
H71_12 H 0.5854 0.3540 0.3734
H72_15 H 0.4146 0.1266 0.3540
H74_12 H 0.6266 0.4146 0.3540
H75_15 H 0.3734 0.1460 0.4146
H77_12 H 0.6460 0.3734 0.4146
H78_15 H 0.3540 0.0854 0.3734
H82_12 H 0.5581 0.3413 0.3847
H83_15 H 0.4419 0.1153 0.3413
H85_12 H 0.6153 0.4419 0.3413
H86_15 H 0.3847 0.1587 0.4419
H88_12 H 0.6587 0.3847 0.4419
H89_15 H 0.3413 0.0581 0.3847
H93_12 H 0.5603 0.3499 0.3538
H94_15 H 0.4397 0.1462 0.3499
H96_12 H 0.6462 0.4397 0.3499
H97_15 H 0.3538 0.1501 0.4397
H99_12 H 0.6501 0.3538 0.4397
H100_15 H 0.3499 0.0603 0.3538
C149_12 C 0.6151(3) 0.2833(3) 0.3325(3)
C150_15 C 0.3849(3) 0.1675(3) 0.2833(3)
C152_12 C 0.6675(3) 0.3849(3) 0.2833(3)
C153_15 C 0.3325(3) 0.2167(3) 0.3849(3)
C155_12 C 0.7167(3) 0.3325(3) 0.3849(3)
C156_15 C 0.2833(3) 0.1151(3) 0.3325(3)
H104_12 H 0.6214 0.2744 0.3492
H105_15 H 0.3786 0.1508 0.2744
H107_12 H 0.6508 0.3786 0.2744
H108_15 H 0.3492 0.2256 0.3786
H110_12 H 0.7256 0.3492 0.3786
H111_15 H 0.2744 0.1214 0.3492
H115_12 H 0.5998 0.2727 0.3256
H116_15 H 0.4002 0.1744 0.2727
H118_12 H 0.6744 0.4002 0.2727
H119_15 H 0.3256 0.2273 0.4002
H121_12 H 0.7273 0.3256 0.4002
H122_15 H 0.2727 0.0998 0.3256
C160_12 C 0.6382(3) 0.2820(3) 0.3115(3)
C161_15 C 0.3618(3) 0.1885(3) 0.2820(3)
C163_12 C 0.6885(3) 0.3618(3) 0.2820(3)
C164_15 C 0.3115(3) 0.2180(3) 0.3618(3)
C166_12 C 0.7180(3) 0.3115(3) 0.3618(3)
C167_15 C 0.2820(3) 0.1382(3) 0.3115(3)
H126_12 H 0.6321 0.2899 0.2946
H127_15 H 0.3679 0.2054 0.2899
H129_12 H 0.7054 0.3679 0.2899
H130_15 H 0.2946 0.2101 0.3679
H132_12 H 0.7101 0.2946 0.3679
H133_15 H 0.2899 0.1321 0.2946
H137_12 H 0.6433 0.2632 0.3085
H138_15 H 0.3567 0.1915 0.2632
H140_12 H 0.6915 0.3567 0.2632
H141_15 H 0.3085 0.2368 0.3567
H143_12 H 0.7368 0.3085 0.3567
H144_15 H 0.2632 0.1433 0.3085
H148_12 H 0.6537 0.2920 0.3182
H149_15 H 0.3463 0.1818 0.2920
H151_12 H 0.6818 0.3463 0.2920
H152_15 H 0.3182 0.2080 0.3463
H154_12 H 0.7080 0.3182 0.3463
H155_15 H 0.2920 0.1537 0.3182
O1_10 O 0.76176(15) 0.19861(16) 0.03048(13)
O2_10 O 0.73869(16) 0.16067(17) 0.03390(14)
O3_19 O 0.7500 0.2500 0.0000
C1_12 C 0.7577(2) 0.1758(3) 0.04140(18)
C2_12 C 0.77590(18) 0.1661(2) 0.06436(17)
C3_12 C 0.7977(2) 0.1825(2) 0.07228(18)
H1_12 H 0.8013 0.1989 0.0633
C4_12 C 0.81435(17) 0.1738(2) 0.09435(18)
C5_12 C 0.80869(17) 0.14954(19) 0.10817(17)
C6_12 C 0.78670(19) 0.1338(2) 0.09926(19)
H2_12 H 0.7825 0.1175 0.1083
C7_12 C 0.77112(18) 0.1417(2) 0.07743(19)
H3_12 H 0.7571 0.1304 0.0713
C8_12 C 0.8400(2) 0.1872(2) 0.1047(2)
C9_12 C 0.84777(18) 0.16844(18) 0.12799(17)
C10_12 C 0.82905(17) 0.14657(17) 0.13066(17)
C11_12 C 0.8618(3) 0.1867(3) 0.0806(3)
H4_12 H 0.8548 0.1973 0.0653
H5_12 H 0.8785 0.1955 0.0869
C12_12 C 0.8691(3) 0.1576(4) 0.0701(3)
H6_12 H 0.8734 0.1460 0.0854
H7_12 H 0.8847 0.1587 0.0581
H8_12 H 0.8538 0.1501 0.0603
C13_12 C 0.8325(3) 0.2167(3) 0.1151(3)
H9_12 H 0.8492 0.2256 0.1214
H10_12 H 0.8256 0.2273 0.0998
C14_12 C 0.8115(3) 0.2180(3) 0.1382(3)
H11_12 H 0.7946 0.2101 0.1321
H12_12 H 0.8085 0.2368 0.1433
H13_12 H 0.8182 0.2080 0.1537
O4_14 O 0.69861(16) 0.23824(15) 0.03048(13)
O12_11 O 0.80139(16) 0.03048(13) 0.23824(15)
O22_14 O 0.66067(17) 0.26131(16) 0.03390(14)
O27_11 O 0.83933(17) 0.03390(14) 0.26131(16)
C18_12 C 0.95860(18) 0.2423(2) 0.1758(3)
C19_12 C 0.8242(3) 0.04140(18) 0.2423(2)
C29_12 C 0.93564(17) 0.22410(18) 0.1661(2)
C30_12 C 0.8339(2) 0.06436(17) 0.22410(18)
C40_12 C 0.92772(18) 0.2023(2) 0.1825(2)
C41_12 C 0.8175(2) 0.07228(18) 0.2023(2)
H17_12 H 0.9367 0.1987 0.1989
H18_12 H 0.8011 0.0633 0.1987
C48_12 C 0.90565(18) 0.18565(17) 0.1738(2)
C49_12 C 0.8262(2) 0.09435(18) 0.18565(17)
C59_12 C 0.89183(17) 0.19131(17) 0.14954(19)
C60_12 C 0.85046(19) 0.10817(17) 0.19131(17)
C70_12 C 0.90074(19) 0.21330(19) 0.1338(2)
C71_12 C 0.8662(2) 0.09926(19) 0.21330(19)
H25_12 H 0.8917 0.2175 0.1175
H26_12 H 0.8825 0.1083 0.2175
C84_12 C 0.92257(19) 0.22888(18) 0.1417(2)
C85_12 C 0.8583(2) 0.07743(19) 0.22888(18)
H39_12 H 0.9287 0.2429 0.1304
H40_12 H 0.8696 0.0713 0.2429
C92_12 C 0.8128(2) 0.1047(2) 0.1600(2)
C93_12 C 0.8953(2) 0.1600(2) 0.1872(2)
C103_12 C 0.83156(18) 0.12799(17) 0.15223(18)
C104_12 C 0.87201(17) 0.15223(18) 0.16844(18)
C114_12 C 0.86934(17) 0.17095(17) 0.14657(17)
C115_12 C 0.85343(17) 0.13066(17) 0.17095(17)
C125_12 C 0.8133(3) 0.0806(3) 0.1382(3)
C126_12 C 0.9194(3) 0.1382(3) 0.1867(3)
H47_12 H 0.8027 0.0653 0.1452
H48_12 H 0.9347 0.1452 0.1973
H58_12 H 0.8045 0.0869 0.1215
H59_12 H 0.9131 0.1215 0.1955
C136_12 C 0.8424(4) 0.0701(3) 0.1309(3)
C137_12 C 0.9299(3) 0.1309(3) 0.1576(4)
H69_12 H 0.8540 0.0854 0.1266
H70_12 H 0.9146 0.1266 0.1460
H80_12 H 0.8413 0.0581 0.1153
H81_12 H 0.9419 0.1153 0.1587
H91_12 H 0.8499 0.0603 0.1462
H92_12 H 0.9397 0.1462 0.1501
C147_12 C 0.7833(3) 0.1151(3) 0.1675(3)
C148_12 C 0.8849(3) 0.1675(3) 0.2167(3)
H102_12 H 0.7744 0.1214 0.1508
H103_12 H 0.8786 0.1508 0.2256
H113_12 H 0.7727 0.0998 0.1744
H114_12 H 0.9002 0.1744 0.2273
C158_12 C 0.7820(3) 0.1382(3) 0.1885(3)
C159_12 C 0.8618(3) 0.1885(3) 0.2180(3)
H124_12 H 0.7899 0.1321 0.2054
H125_12 H 0.8679 0.2054 0.2101
H135_12 H 0.7632 0.1433 0.1915
H136_12 H 0.8567 0.1915 0.2368
H146_12 H 0.7920 0.1537 0.1818
H147_12 H 0.8463 0.1818 0.2080
O3_20 O 0.7500 0.2500 1.0000
O5_10 O 0.76176(15) 0.19861(16) 0.96952(13)
O8_15 O 0.80139(16) 0.26176(15) 0.96952(13)
O19_10 O 0.73869(16) 0.16067(17) 0.96610(14)
O21_15 O 0.83933(17) 0.23869(16) 0.96610(14)
O15_16 O 0.30139(16) 0.46952(13) 0.23824(15)
O30_16 O 0.33933(17) 0.46610(14) 0.26131(16)
C16_16 C 0.2577(2) 0.3242(3) 0.04140(18)
C22_16 C 0.3242(3) 0.45860(18) 0.2423(2)
C23_16 C 0.45860(18) 0.2577(2) 0.1758(3)
C27_16 C 0.27590(18) 0.3339(2) 0.06436(17)
C33_16 C 0.3339(2) 0.43564(17) 0.22410(18)
C34_16 C 0.43564(17) 0.27590(18) 0.1661(2)
C38_16 C 0.2977(2) 0.3175(2) 0.07228(18)
C44_16 C 0.3175(2) 0.42772(18) 0.2023(2)
C45_16 C 0.42772(18) 0.2977(2) 0.1825(2)
H15_16 H 0.3013 0.3011 0.0633
H21_16 H 0.3011 0.4367 0.1987
H22_16 H 0.4367 0.3013 0.1989
C51_16 C 0.31435(17) 0.3262(2) 0.09435(18)
C55_16 C 0.3262(2) 0.40565(18) 0.18565(17)
C56_16 C 0.40565(18) 0.31435(17) 0.1738(2)
C62_16 C 0.30869(17) 0.35046(19) 0.10817(17)
C65_16 C 0.39183(17) 0.30869(17) 0.14954(19)
C68_16 C 0.35046(19) 0.39183(17) 0.19131(17)
C73_16 C 0.28670(19) 0.3662(2) 0.09926(19)
C76_16 C 0.40074(19) 0.28670(19) 0.1338(2)
C79_16 C 0.3662(2) 0.40074(19) 0.21330(19)
H28_16 H 0.2825 0.3825 0.1083
H31_16 H 0.3917 0.2825 0.1175
H34_16 H 0.3825 0.3917 0.2175
C82_16 C 0.27112(18) 0.3583(2) 0.07743(19)
C87_16 C 0.42257(19) 0.27112(18) 0.1417(2)
C90_16 C 0.3583(2) 0.42257(19) 0.22888(18)
H37_16 H 0.2571 0.3696 0.0713
H42_16 H 0.4287 0.2571 0.1304
H45_16 H 0.3696 0.4287 0.2429
C95_16 C 0.3400(2) 0.3128(2) 0.1047(2)
C98_16 C 0.3128(2) 0.3953(2) 0.1600(2)
C101_16 C 0.3953(2) 0.3400(2) 0.1872(2)
C106_16 C 0.34777(18) 0.33156(18) 0.12799(17)
C109_16 C 0.33156(18) 0.37201(17) 0.15223(18)
C112_16 C 0.37201(17) 0.34777(18) 0.16844(18)
C117_16 C 0.32905(17) 0.35343(17) 0.13066(17)
C120_16 C 0.36934(17) 0.32905(17) 0.14657(17)
C123_16 C 0.35343(17) 0.36934(17) 0.17095(17)
C128_16 C 0.3618(3) 0.3133(3) 0.0806(3)
C131_16 C 0.3133(3) 0.4194(3) 0.1382(3)
C134_16 C 0.4194(3) 0.3618(3) 0.1867(3)
H50_16 H 0.3548 0.3027 0.0653
H53_16 H 0.3027 0.4347 0.1452
H56_16 H 0.4347 0.3548 0.1973
H61_16 H 0.3785 0.3045 0.0869
H64_16 H 0.3045 0.4131 0.1215
H67_16 H 0.4131 0.3785 0.1955
C139_16 C 0.3691(3) 0.3424(4) 0.0701(3)
C142_16 C 0.3424(4) 0.4299(3) 0.1309(3)
C145_16 C 0.4299(3) 0.3691(3) 0.1576(4)
H72_16 H 0.3734 0.3540 0.0854
H75_16 H 0.3540 0.4146 0.1266
H78_16 H 0.4146 0.3734 0.1460
H83_16 H 0.3847 0.3413 0.0581
H86_16 H 0.3413 0.4419 0.1153
H89_16 H 0.4419 0.3847 0.1587
H94_16 H 0.3538 0.3499 0.0603
H97_16 H 0.3499 0.4397 0.1462
H100_16 H 0.4397 0.3538 0.1501
C150_16 C 0.3325(3) 0.2833(3) 0.1151(3)
C153_16 C 0.2833(3) 0.3849(3) 0.1675(3)
C156_16 C 0.3849(3) 0.3325(3) 0.2167(3)
H105_16 H 0.3492 0.2744 0.1214
H108_16 H 0.2744 0.3786 0.1508
H111_16 H 0.3786 0.3492 0.2256
H116_16 H 0.3256 0.2727 0.0998
H119_16 H 0.2727 0.4002 0.1744
H122_16 H 0.4002 0.3256 0.2273
C161_16 C 0.3115(3) 0.2820(3) 0.1382(3)
C164_16 C 0.2820(3) 0.3618(3) 0.1885(3)
C167_16 C 0.3618(3) 0.3115(3) 0.2180(3)
H127_16 H 0.2946 0.2899 0.1321
H130_16 H 0.2899 0.3679 0.2054
H133_16 H 0.3679 0.2946 0.2101
H138_16 H 0.3085 0.2632 0.1433
H141_16 H 0.2632 0.3567 0.1915
H144_16 H 0.3567 0.3085 0.2368
H149_16 H 0.3182 0.2920 0.1537
H152_16 H 0.2920 0.3463 0.1818
H155_16 H 0.3463 0.3182 0.2080
C1_13 C 0.2423(2) 0.1758(3) 0.95860(18)
C2_13 C 0.22410(18) 0.1661(2) 0.93564(17)
C3_13 C 0.2023(2) 0.1825(2) 0.92772(18)
H1_13 H 0.1987 0.1989 0.9367
C4_13 C 0.18565(17) 0.1738(2) 0.90565(18)
C5_13 C 0.19131(17) 0.14954(19) 0.89183(17)
C6_13 C 0.21330(19) 0.1338(2) 0.90074(19)
H2_13 H 0.2175 0.1175 0.8917
C7_13 C 0.22888(18) 0.1417(2) 0.92257(19)
H3_13 H 0.2429 0.1304 0.9287
C8_13 C 0.1600(2) 0.1872(2) 0.8953(2)
C9_13 C 0.15223(18) 0.16844(18) 0.87201(17)
C10_13 C 0.17095(17) 0.14657(17) 0.86934(17)
C11_13 C 0.1382(3) 0.1867(3) 0.9194(3)
H4_13 H 0.1452 0.1973 0.9347
H5_13 H 0.1215 0.1955 0.9131
C12_13 C 0.1309(3) 0.1576(4) 0.9299(3)
H6_13 H 0.1266 0.1460 0.9146
H7_13 H 0.1153 0.1587 0.9419
H8_13 H 0.1462 0.1501 0.9397
C13_13 C 0.1675(3) 0.2167(3) 0.8849(3)
H9_13 H 0.1508 0.2256 0.8786
H10_13 H 0.1744 0.2273 0.9002
C14_13 C 0.1885(3) 0.2180(3) 0.8618(3)
H11_13 H 0.2054 0.2101 0.8679
H12_13 H 0.1915 0.2368 0.8567
H13_13 H 0.1818 0.2080 0.8463
Pb6_12 Pb -0.0000 0.193721(17) 0.777556(14)
O11_11 O 0.03048(13) 0.23824(15) 0.80139(16)
O12_12 O 0.19861(16) 0.03048(13) 0.76176(15)
O26_11 O 0.03390(14) 0.26131(16) 0.83933(17)
O27_12 O 0.16067(17) 0.03390(14) 0.73869(16)
C18_13 C 0.04140(18) 0.2423(2) 0.8242(3)
C19_13 C 0.1758(3) 0.04140(18) 0.7577(2)
C29_13 C 0.06436(17) 0.22410(18) 0.8339(2)
C30_13 C 0.1661(2) 0.06436(17) 0.77590(18)
C40_13 C 0.07228(18) 0.2023(2) 0.8175(2)
C41_13 C 0.1825(2) 0.07228(18) 0.7977(2)
H17_13 H 0.0633 0.1987 0.8011
H18_13 H 0.1989 0.0633 0.8013
C48_13 C 0.09435(18) 0.18565(17) 0.8262(2)
C49_13 C 0.1738(2) 0.09435(18) 0.81435(17)
C59_13 C 0.10817(17) 0.19131(17) 0.85046(19)
C60_13 C 0.14954(19) 0.10817(17) 0.80869(17)
C70_13 C 0.09926(19) 0.21330(19) 0.8662(2)
C71_13 C 0.1338(2) 0.09926(19) 0.78670(19)
H25_13 H 0.1083 0.2175 0.8825
H26_13 H 0.1175 0.1083 0.7825
C84_13 C 0.07743(19) 0.22888(18) 0.8583(2)
C85_13 C 0.1417(2) 0.07743(19) 0.77112(18)
H39_13 H 0.0713 0.2429 0.8696
H40_13 H 0.1304 0.0713 0.7571
C92_13 C 0.1872(2) 0.1047(2) 0.8400(2)
C93_13 C 0.1047(2) 0.1600(2) 0.8128(2)
C103_13 C 0.16844(18) 0.12799(17) 0.84777(18)
C104_13 C 0.12799(17) 0.15223(18) 0.83156(18)
C114_13 C 0.13066(17) 0.17095(17) 0.85343(17)
C115_13 C 0.14657(17) 0.13066(17) 0.82905(17)
C125_13 C 0.1867(3) 0.0806(3) 0.8618(3)
C126_13 C 0.0806(3) 0.1382(3) 0.8133(3)
H47_13 H 0.1973 0.0653 0.8548
H48_13 H 0.0653 0.1452 0.8027
H58_13 H 0.1955 0.0869 0.8785
H59_13 H 0.0869 0.1215 0.8045
C136_13 C 0.1576(4) 0.0701(3) 0.8691(3)
C137_13 C 0.0701(3) 0.1309(3) 0.8424(4)
H69_13 H 0.1460 0.0854 0.8734
H70_13 H 0.0854 0.1266 0.8540
H80_13 H 0.1587 0.0581 0.8847
H81_13 H 0.0581 0.1153 0.8413
H91_13 H 0.1501 0.0603 0.8538
H92_13 H 0.0603 0.1462 0.8499
C147_13 C 0.2167(3) 0.1151(3) 0.8325(3)
C148_13 C 0.1151(3) 0.1675(3) 0.7833(3)
H102_13 H 0.2256 0.1214 0.8492
H103_13 H 0.1214 0.1508 0.7744
H113_13 H 0.2273 0.0998 0.8256
H114_13 H 0.0998 0.1744 0.7727
C158_13 C 0.2180(3) 0.1382(3) 0.8115(3)
C159_13 C 0.1382(3) 0.1885(3) 0.7820(3)
H124_13 H 0.2101 0.1321 0.7946
H125_13 H 0.1321 0.2054 0.7899
H135_13 H 0.2368 0.1433 0.8085
H136_13 H 0.1433 0.1915 0.7632
H146_13 H 0.2080 0.1537 0.8182
H147_13 H 0.1537 0.1818 0.7920
Pb6_13 Pb 1.0000 0.193721(17) 0.777556(14)
O3_21 O 0.7500 0.7500 0.0000
O5_11 O 0.76176(15) 0.80139(16) 0.03048(13)
O8_16 O 0.80139(16) 0.73824(15) 0.03048(13)
O19_11 O 0.73869(16) 0.83933(17) 0.03390(14)
O21_16 O 0.83933(17) 0.76131(16) 0.03390(14)
O3_22 O 0.7500 0.7500 1.0000
O3_23 O 0.7500 0.0000 0.7500
O8_17 O 0.76176(15) 0.03048(13) 0.69861(16)
O9_15 O 0.80139(16) 0.03048(13) 0.76176(15)
O15_17 O 0.96952(13) 0.23824(15) 0.80139(16)
O21_17 O 0.73869(16) 0.03390(14) 0.66067(17)
O24_15 O 0.83933(17) 0.03390(14) 0.73869(16)
O30_17 O 0.96610(14) 0.26131(16) 0.83933(17)
C16_17 C 0.8242(3) 0.04140(18) 0.7577(2)
C22_17 C 0.95860(18) 0.2423(2) 0.8242(3)
C23_17 C 0.7577(2) 0.1758(3) 0.95860(18)
C27_17 C 0.8339(2) 0.06436(17) 0.77590(18)
C33_17 C 0.93564(17) 0.22410(18) 0.8339(2)
C34_17 C 0.77590(18) 0.1661(2) 0.93564(17)
C38_17 C 0.8175(2) 0.07228(18) 0.7977(2)
C44_17 C 0.92772(18) 0.2023(2) 0.8175(2)
C45_17 C 0.7977(2) 0.1825(2) 0.92772(18)
H15_17 H 0.8011 0.0633 0.8013
H21_17 H 0.9367 0.1987 0.8011
H22_17 H 0.8013 0.1989 0.9367
C51_17 C 0.8262(2) 0.09435(18) 0.81435(17)
C55_17 C 0.90565(18) 0.18565(17) 0.8262(2)
C56_17 C 0.81435(17) 0.1738(2) 0.90565(18)
C62_17 C 0.85046(19) 0.10817(17) 0.80869(17)
C65_17 C 0.80869(17) 0.14954(19) 0.89183(17)
C68_17 C 0.89183(17) 0.19131(17) 0.85046(19)
C73_17 C 0.8662(2) 0.09926(19) 0.78670(19)
C76_17 C 0.78670(19) 0.1338(2) 0.90074(19)
C79_17 C 0.90074(19) 0.21330(19) 0.8662(2)
H28_17 H 0.8825 0.1083 0.7825
H31_17 H 0.7825 0.1175 0.8917
H34_17 H 0.8917 0.2175 0.8825
C82_17 C 0.8583(2) 0.07743(19) 0.77112(18)
C87_17 C 0.77112(18) 0.1417(2) 0.92257(19)
C90_17 C 0.92257(19) 0.22888(18) 0.8583(2)
H37_17 H 0.8696 0.0713 0.7571
H42_17 H 0.7571 0.1304 0.9287
H45_17 H 0.9287 0.2429 0.8696
C95_17 C 0.8128(2) 0.1047(2) 0.8400(2)
C98_17 C 0.8953(2) 0.1600(2) 0.8128(2)
C101_17 C 0.8400(2) 0.1872(2) 0.8953(2)
C106_17 C 0.83156(18) 0.12799(17) 0.84777(18)
C109_17 C 0.87201(17) 0.15223(18) 0.83156(18)
C112_17 C 0.84777(18) 0.16844(18) 0.87201(17)
C117_17 C 0.85343(17) 0.13066(17) 0.82905(17)
C120_17 C 0.82905(17) 0.14657(17) 0.86934(17)
C123_17 C 0.86934(17) 0.17095(17) 0.85343(17)
C128_17 C 0.8133(3) 0.0806(3) 0.8618(3)
C131_17 C 0.9194(3) 0.1382(3) 0.8133(3)
C134_17 C 0.8618(3) 0.1867(3) 0.9194(3)
H50_17 H 0.8027 0.0653 0.8548
H53_17 H 0.9347 0.1452 0.8027
H56_17 H 0.8548 0.1973 0.9347
H61_17 H 0.8045 0.0869 0.8785
H64_17 H 0.9131 0.1215 0.8045
H67_17 H 0.8785 0.1955 0.9131
C139_17 C 0.8424(4) 0.0701(3) 0.8691(3)
C142_17 C 0.9299(3) 0.1309(3) 0.8424(4)
C145_17 C 0.8691(3) 0.1576(4) 0.9299(3)
H72_17 H 0.8540 0.0854 0.8734
H75_17 H 0.9146 0.1266 0.8540
H78_17 H 0.8734 0.1460 0.9146
H83_17 H 0.8413 0.0581 0.8847
H86_17 H 0.9419 0.1153 0.8413
H89_17 H 0.8847 0.1587 0.9419
H94_17 H 0.8499 0.0603 0.8538
H97_17 H 0.9397 0.1462 0.8499
H100_17 H 0.8538 0.1501 0.9397
C150_17 C 0.7833(3) 0.1151(3) 0.8325(3)
C153_17 C 0.8849(3) 0.1675(3) 0.7833(3)
C156_17 C 0.8325(3) 0.2167(3) 0.8849(3)
H105_17 H 0.7744 0.1214 0.8492
H108_17 H 0.8786 0.1508 0.7744
H111_17 H 0.8492 0.2256 0.8786
H116_17 H 0.7727 0.0998 0.8256
H119_17 H 0.9002 0.1744 0.7727
H122_17 H 0.8256 0.2273 0.9002
C161_17 C 0.7820(3) 0.1382(3) 0.8115(3)
C164_17 C 0.8618(3) 0.1885(3) 0.7820(3)
C167_17 C 0.8115(3) 0.2180(3) 0.8618(3)
H127_17 H 0.7899 0.1321 0.7946
H130_17 H 0.8679 0.2054 0.7899
H133_17 H 0.7946 0.2101 0.8679
H138_17 H 0.7632 0.1433 0.8085
H141_17 H 0.8567 0.1915 0.7632
H144_17 H 0.8085 0.2368 0.8567
H149_17 H 0.7920 0.1537 0.8182
H152_17 H 0.8463 0.1818 0.7920
H155_17 H 0.8182 0.2080 0.8463
O3_24 O 0.7500 1.0000 0.7500
Pb12_16 Pb 0.0000 0.722444(14) 0.193721(17)
O1_11 O 0.69861(16) 0.03048(13) 0.26176(15)
O2_11 O 0.66067(17) 0.03390(14) 0.23869(16)
O3_25 O 0.7500 0.0000 0.2500
C1_14 C 0.6758(3) 0.04140(18) 0.2577(2)
C2_14 C 0.6661(2) 0.06436(17) 0.27590(18)
C3_14 C 0.6825(2) 0.07228(18) 0.2977(2)
H1_14 H 0.6989 0.0633 0.3013
C4_14 C 0.6738(2) 0.09435(18) 0.31435(17)
C5_14 C 0.64954(19) 0.10817(17) 0.30869(17)
C6_14 C 0.6338(2) 0.09926(19) 0.28670(19)
H2_14 H 0.6175 0.1083 0.2825
C7_14 C 0.6417(2) 0.07743(19) 0.27112(18)
H3_14 H 0.6304 0.0713 0.2571
C8_14 C 0.6872(2) 0.1047(2) 0.3400(2)
C9_14 C 0.66844(18) 0.12799(17) 0.34777(18)
C10_14 C 0.64657(17) 0.13066(17) 0.32905(17)
C11_14 C 0.6867(3) 0.0806(3) 0.3618(3)
H4_14 H 0.6973 0.0653 0.3548
H5_14 H 0.6955 0.0869 0.3785
C12_14 C 0.6576(4) 0.0701(3) 0.3691(3)
H6_14 H 0.6460 0.0854 0.3734
H7_14 H 0.6587 0.0581 0.3847
H8_14 H 0.6501 0.0603 0.3538
C13_14 C 0.7167(3) 0.1151(3) 0.3325(3)
H9_14 H 0.7256 0.1214 0.3492
H10_14 H 0.7273 0.0998 0.3256
C14_14 C 0.7180(3) 0.1382(3) 0.3115(3)
H11_14 H 0.7101 0.1321 0.2946
H12_14 H 0.7368 0.1433 0.3085
H13_14 H 0.7080 0.1537 0.3182
O4_15 O 0.73824(15) 0.03048(13) 0.19861(16)
O22_15 O 0.76131(16) 0.03390(14) 0.16067(17)
C18_14 C 0.7423(2) 0.1758(3) 0.45860(18)
C19_14 C 0.54140(18) 0.2423(2) 0.3242(3)
C29_14 C 0.72410(18) 0.1661(2) 0.43564(17)
C30_14 C 0.56436(17) 0.22410(18) 0.3339(2)
C40_14 C 0.7023(2) 0.1825(2) 0.42772(18)
C41_14 C 0.57228(18) 0.2023(2) 0.3175(2)
H17_14 H 0.6987 0.1989 0.4367
H18_14 H 0.5633 0.1987 0.3011
C48_14 C 0.68565(17) 0.1738(2) 0.40565(18)
C49_14 C 0.59435(18) 0.18565(17) 0.3262(2)
C59_14 C 0.69131(17) 0.14954(19) 0.39183(17)
C60_14 C 0.60817(17) 0.19131(17) 0.35046(19)
C70_14 C 0.71330(19) 0.1338(2) 0.40074(19)
C71_14 C 0.59926(19) 0.21330(19) 0.3662(2)
H25_14 H 0.7175 0.1175 0.3917
H26_14 H 0.6083 0.2175 0.3825
C84_14 C 0.72888(18) 0.1417(2) 0.42257(19)
C85_14 C 0.57743(19) 0.22888(18) 0.3583(2)
H39_14 H 0.7429 0.1304 0.4287
H40_14 H 0.5713 0.2429 0.3696
C92_14 C 0.6047(2) 0.1600(2) 0.3128(2)
C93_14 C 0.6600(2) 0.1872(2) 0.3953(2)
C103_14 C 0.62799(17) 0.15223(18) 0.33156(18)
C104_14 C 0.65223(18) 0.16844(18) 0.37201(17)
C114_14 C 0.67095(17) 0.14657(17) 0.36934(17)
C115_14 C 0.63066(17) 0.17095(17) 0.35343(17)
C125_14 C 0.5806(3) 0.1382(3) 0.3133(3)
C126_14 C 0.6382(3) 0.1867(3) 0.4194(3)
H47_14 H 0.5653 0.1452 0.3027
H48_14 H 0.6452 0.1973 0.4347
H58_14 H 0.5869 0.1215 0.3045
H59_14 H 0.6215 0.1955 0.4131
C136_14 C 0.5701(3) 0.1309(3) 0.3424(4)
C137_14 C 0.6309(3) 0.1576(4) 0.4299(3)
H69_14 H 0.5854 0.1266 0.3540
H70_14 H 0.6266 0.1460 0.4146
H80_14 H 0.5581 0.1153 0.3413
H81_14 H 0.6153 0.1587 0.4419
H91_14 H 0.5603 0.1462 0.3499
H92_14 H 0.6462 0.1501 0.4397
C147_14 C 0.6151(3) 0.1675(3) 0.2833(3)
C148_14 C 0.6675(3) 0.2167(3) 0.3849(3)
H102_14 H 0.6214 0.1508 0.2744
H103_14 H 0.6508 0.2256 0.3786
H113_14 H 0.5998 0.1744 0.2727
H114_14 H 0.6744 0.2273 0.4002
C158_14 C 0.6382(3) 0.1885(3) 0.2820(3)
C159_14 C 0.6885(3) 0.2180(3) 0.3618(3)
H124_14 H 0.6321 0.2054 0.2899
H125_14 H 0.7054 0.2101 0.3679
H135_14 H 0.6433 0.1915 0.2632
H136_14 H 0.6915 0.2368 0.3567
H146_14 H 0.6537 0.1818 0.2920
H147_14 H 0.6818 0.2080 0.3463
O3_26 O 0.7500 1.0000 0.2500
Pb12_17 Pb 1.0000 0.722444(14) 0.193721(17)
O8_18 O 0.76176(15) 0.96952(13) 0.30139(16)
O9_16 O 0.80139(16) 0.96952(13) 0.23824(15)
O15_18 O 0.96952(13) 0.76176(15) 0.19861(16)
O21_18 O 0.73869(16) 0.96610(14) 0.33933(17)
O24_16 O 0.83933(17) 0.96610(14) 0.26131(16)
O30_18 O 0.96610(14) 0.73869(16) 0.16067(17)
C16_18 C 0.8242(3) 0.95860(18) 0.2423(2)
C22_18 C 0.95860(18) 0.7577(2) 0.1758(3)
C23_18 C 0.7577(2) 0.8242(3) 0.04140(18)
C27_18 C 0.8339(2) 0.93564(17) 0.22410(18)
C33_18 C 0.93564(17) 0.77590(18) 0.1661(2)
C34_18 C 0.77590(18) 0.8339(2) 0.06436(17)
C38_18 C 0.8175(2) 0.92772(18) 0.2023(2)
C44_18 C 0.92772(18) 0.7977(2) 0.1825(2)
C45_18 C 0.7977(2) 0.8175(2) 0.07228(18)
H15_18 H 0.8011 0.9367 0.1987
H21_18 H 0.9367 0.8013 0.1989
H22_18 H 0.8013 0.8011 0.0633
C51_18 C 0.8262(2) 0.90565(18) 0.18565(17)
C55_18 C 0.90565(18) 0.81435(17) 0.1738(2)
C56_18 C 0.81435(17) 0.8262(2) 0.09435(18)
C62_18 C 0.85046(19) 0.89183(17) 0.19131(17)
C65_18 C 0.80869(17) 0.85046(19) 0.10817(17)
C68_18 C 0.89183(17) 0.80869(17) 0.14954(19)
C73_18 C 0.8662(2) 0.90074(19) 0.21330(19)
C76_18 C 0.78670(19) 0.8662(2) 0.09926(19)
C79_18 C 0.90074(19) 0.78670(19) 0.1338(2)
H28_18 H 0.8825 0.8917 0.2175
H31_18 H 0.7825 0.8825 0.1083
H34_18 H 0.8917 0.7825 0.1175
C82_18 C 0.8583(2) 0.92257(19) 0.22888(18)
C87_18 C 0.77112(18) 0.8583(2) 0.07743(19)
C90_18 C 0.92257(19) 0.77112(18) 0.1417(2)
H37_18 H 0.8696 0.9287 0.2429
H42_18 H 0.7571 0.8696 0.0713
H45_18 H 0.9287 0.7571 0.1304
C95_18 C 0.8128(2) 0.8953(2) 0.1600(2)
C98_18 C 0.8953(2) 0.8400(2) 0.1872(2)
C101_18 C 0.8400(2) 0.8128(2) 0.1047(2)
C106_18 C 0.83156(18) 0.87201(17) 0.15223(18)
C109_18 C 0.87201(17) 0.84777(18) 0.16844(18)
C112_18 C 0.84777(18) 0.83156(18) 0.12799(17)
C117_18 C 0.85343(17) 0.86934(17) 0.17095(17)
C120_18 C 0.82905(17) 0.85343(17) 0.13066(17)
C123_18 C 0.86934(17) 0.82905(17) 0.14657(17)
C128_18 C 0.8133(3) 0.9194(3) 0.1382(3)
C131_18 C 0.9194(3) 0.8618(3) 0.1867(3)
C134_18 C 0.8618(3) 0.8133(3) 0.0806(3)
H50_18 H 0.8027 0.9347 0.1452
H53_18 H 0.9347 0.8548 0.1973
H56_18 H 0.8548 0.8027 0.0653
H61_18 H 0.8045 0.9131 0.1215
H64_18 H 0.9131 0.8785 0.1955
H67_18 H 0.8785 0.8045 0.0869
C139_18 C 0.8424(4) 0.9299(3) 0.1309(3)
C142_18 C 0.9299(3) 0.8691(3) 0.1576(4)
C145_18 C 0.8691(3) 0.8424(4) 0.0701(3)
H72_18 H 0.8540 0.9146 0.1266
H75_18 H 0.9146 0.8734 0.1460
H78_18 H 0.8734 0.8540 0.0854
H83_18 H 0.8413 0.9419 0.1153
H86_18 H 0.9419 0.8847 0.1587
H89_18 H 0.8847 0.8413 0.0581
H94_18 H 0.8499 0.9397 0.1462
H97_18 H 0.9397 0.8538 0.1501
H100_18 H 0.8538 0.8499 0.0603
C150_18 C 0.7833(3) 0.8849(3) 0.1675(3)
C153_18 C 0.8849(3) 0.8325(3) 0.2167(3)
C156_18 C 0.8325(3) 0.7833(3) 0.1151(3)
H105_18 H 0.7744 0.8786 0.1508
H108_18 H 0.8786 0.8492 0.2256
H111_18 H 0.8492 0.7744 0.1214
H116_18 H 0.7727 0.9002 0.1744
H119_18 H 0.9002 0.8256 0.2273
H122_18 H 0.8256 0.7727 0.0998
C161_18 C 0.7820(3) 0.8618(3) 0.1885(3)
C164_18 C 0.8618(3) 0.8115(3) 0.2180(3)
C167_18 C 0.8115(3) 0.7820(3) 0.1382(3)
H127_18 H 0.7899 0.8679 0.2054
H130_18 H 0.8679 0.7946 0.2101
H133_18 H 0.7946 0.7899 0.1321
H138_18 H 0.7632 0.8567 0.1915
H141_18 H 0.8567 0.8085 0.2368
H144_18 H 0.8085 0.7632 0.1433
H149_18 H 0.7920 0.8463 0.1818
H152_18 H 0.8463 0.8182 0.2080
H155_18 H 0.8182 0.7920 0.1537
O15_19 O 0.96952(13) 0.19861(16) 0.73824(15)
O30_19 O 0.96610(14) 0.16067(17) 0.76131(16)
C16_19 C 0.8242(3) 0.2423(2) 0.54140(18)
C22_19 C 0.95860(18) 0.1758(3) 0.7423(2)
C23_19 C 0.7577(2) 0.04140(18) 0.6758(3)
C27_19 C 0.8339(2) 0.22410(18) 0.56436(17)
C33_19 C 0.93564(17) 0.1661(2) 0.72410(18)
C34_19 C 0.77590(18) 0.06436(17) 0.6661(2)
C38_19 C 0.8175(2) 0.2023(2) 0.57228(18)
C44_19 C 0.92772(18) 0.1825(2) 0.7023(2)
C45_19 C 0.7977(2) 0.07228(18) 0.6825(2)
H15_19 H 0.8011 0.1987 0.5633
H21_19 H 0.9367 0.1989 0.6987
H22_19 H 0.8013 0.0633 0.6989
C51_19 C 0.8262(2) 0.18565(17) 0.59435(18)
C55_19 C 0.90565(18) 0.1738(2) 0.68565(17)
C56_19 C 0.81435(17) 0.09435(18) 0.6738(2)
C62_19 C 0.85046(19) 0.19131(17) 0.60817(17)
C65_19 C 0.80869(17) 0.10817(17) 0.64954(19)
C68_19 C 0.89183(17) 0.14954(19) 0.69131(17)
C73_19 C 0.8662(2) 0.21330(19) 0.59926(19)
C76_19 C 0.78670(19) 0.09926(19) 0.6338(2)
C79_19 C 0.90074(19) 0.1338(2) 0.71330(19)
H28_19 H 0.8825 0.2175 0.6083
H31_19 H 0.7825 0.1083 0.6175
H34_19 H 0.8917 0.1175 0.7175
C82_19 C 0.8583(2) 0.22888(18) 0.57743(19)
C87_19 C 0.77112(18) 0.07743(19) 0.6417(2)
C90_19 C 0.92257(19) 0.1417(2) 0.72888(18)
H37_19 H 0.8696 0.2429 0.5713
H42_19 H 0.7571 0.0713 0.6304
H45_19 H 0.9287 0.1304 0.7429
C95_19 C 0.8128(2) 0.1600(2) 0.6047(2)
C98_19 C 0.8953(2) 0.1872(2) 0.6600(2)
C101_19 C 0.8400(2) 0.1047(2) 0.6872(2)
C106_19 C 0.83156(18) 0.15223(18) 0.62799(17)
C109_19 C 0.87201(17) 0.16844(18) 0.65223(18)
C112_19 C 0.84777(18) 0.12799(17) 0.66844(18)
C117_19 C 0.85343(17) 0.17095(17) 0.63066(17)
C120_19 C 0.82905(17) 0.13066(17) 0.64657(17)
C123_19 C 0.86934(17) 0.14657(17) 0.67095(17)
C128_19 C 0.8133(3) 0.1382(3) 0.5806(3)
C131_19 C 0.9194(3) 0.1867(3) 0.6382(3)
C134_19 C 0.8618(3) 0.0806(3) 0.6867(3)
H50_19 H 0.8027 0.1452 0.5653
H53_19 H 0.9347 0.1973 0.6452
H56_19 H 0.8548 0.0653 0.6973
H61_19 H 0.8045 0.1215 0.5869
H64_19 H 0.9131 0.1955 0.6215
H67_19 H 0.8785 0.0869 0.6955
C139_19 C 0.8424(4) 0.1309(3) 0.5701(3)
C142_19 C 0.9299(3) 0.1576(4) 0.6309(3)
C145_19 C 0.8691(3) 0.0701(3) 0.6576(4)
H72_19 H 0.8540 0.1266 0.5854
H75_19 H 0.9146 0.1460 0.6266
H78_19 H 0.8734 0.0854 0.6460
H83_19 H 0.8413 0.1153 0.5581
H86_19 H 0.9419 0.1587 0.6153
H89_19 H 0.8847 0.0581 0.6587
H94_19 H 0.8499 0.1462 0.5603
H97_19 H 0.9397 0.1501 0.6462
H100_19 H 0.8538 0.0603 0.6501
C150_19 C 0.7833(3) 0.1675(3) 0.6151(3)
C153_19 C 0.8849(3) 0.2167(3) 0.6675(3)
C156_19 C 0.8325(3) 0.1151(3) 0.7167(3)
H105_19 H 0.7744 0.1508 0.6214
H108_19 H 0.8786 0.2256 0.6508
H111_19 H 0.8492 0.1214 0.7256
H116_19 H 0.7727 0.1744 0.5998
H119_19 H 0.9002 0.2273 0.6744
H122_19 H 0.8256 0.0998 0.7273
C161_19 C 0.7820(3) 0.1885(3) 0.6382(3)
C164_19 C 0.8618(3) 0.2180(3) 0.6885(3)
C167_19 C 0.8115(3) 0.1382(3) 0.7180(3)
H127_19 H 0.7899 0.2054 0.6321
H130_19 H 0.8679 0.2101 0.7054
H133_19 H 0.7946 0.1321 0.7101
H138_19 H 0.7632 0.1915 0.6433
H141_19 H 0.8567 0.2368 0.6915
H144_19 H 0.8085 0.1433 0.7368
H149_19 H 0.7920 0.1818 0.6537
H152_19 H 0.8463 0.2080 0.6818
H155_19 H 0.8182 0.1537 0.7080
O15_20 O 0.23824(15) 0.30139(16) 0.46952(13)
O16_6 O 0.19861(16) 0.46952(13) 0.26176(15)
O30_20 O 0.26131(16) 0.33933(17) 0.46610(14)
O31_6 O 0.16067(17) 0.46610(14) 0.23869(16)
C16_20 C 0.04140(18) 0.2577(2) 0.3242(3)
C22_20 C 0.2423(2) 0.3242(3) 0.45860(18)
C23_20 C 0.1758(3) 0.45860(18) 0.2577(2)
C27_20 C 0.06436(17) 0.27590(18) 0.3339(2)
C33_20 C 0.22410(18) 0.3339(2) 0.43564(17)
C34_20 C 0.1661(2) 0.43564(17) 0.27590(18)
C38_20 C 0.07228(18) 0.2977(2) 0.3175(2)
C44_20 C 0.2023(2) 0.3175(2) 0.42772(18)
C45_20 C 0.1825(2) 0.42772(18) 0.2977(2)
H15_20 H 0.0633 0.3013 0.3011
H21_20 H 0.1987 0.3011 0.4367
H22_20 H 0.1989 0.4367 0.3013
C51_20 C 0.09435(18) 0.31435(17) 0.3262(2)
C55_20 C 0.18565(17) 0.3262(2) 0.40565(18)
C56_20 C 0.1738(2) 0.40565(18) 0.31435(17)
C62_20 C 0.10817(17) 0.30869(17) 0.35046(19)
C65_20 C 0.14954(19) 0.39183(17) 0.30869(17)
C68_20 C 0.19131(17) 0.35046(19) 0.39183(17)
C73_20 C 0.09926(19) 0.28670(19) 0.3662(2)
C76_20 C 0.1338(2) 0.40074(19) 0.28670(19)
C79_20 C 0.21330(19) 0.3662(2) 0.40074(19)
H28_20 H 0.1083 0.2825 0.3825
H31_20 H 0.1175 0.3917 0.2825
H34_20 H 0.2175 0.3825 0.3917
C82_20 C 0.07743(19) 0.27112(18) 0.3583(2)
C87_20 C 0.1417(2) 0.42257(19) 0.27112(18)
C90_20 C 0.22888(18) 0.3583(2) 0.42257(19)
H37_20 H 0.0713 0.2571 0.3696
H42_20 H 0.1304 0.4287 0.2571
H45_20 H 0.2429 0.3696 0.4287
C95_20 C 0.1047(2) 0.3400(2) 0.3128(2)
C98_20 C 0.1600(2) 0.3128(2) 0.3953(2)
C101_20 C 0.1872(2) 0.3953(2) 0.3400(2)
C106_20 C 0.12799(17) 0.34777(18) 0.33156(18)
C109_20 C 0.15223(18) 0.33156(18) 0.37201(17)
C112_20 C 0.16844(18) 0.37201(17) 0.34777(18)
C117_20 C 0.13066(17) 0.32905(17) 0.35343(17)
C120_20 C 0.14657(17) 0.36934(17) 0.32905(17)
C123_20 C 0.17095(17) 0.35343(17) 0.36934(17)
C128_20 C 0.0806(3) 0.3618(3) 0.3133(3)
C131_20 C 0.1382(3) 0.3133(3) 0.4194(3)
C134_20 C 0.1867(3) 0.4194(3) 0.3618(3)
H50_20 H 0.0653 0.3548 0.3027
H53_20 H 0.1452 0.3027 0.4347
H56_20 H 0.1973 0.4347 0.3548
H61_20 H 0.0869 0.3785 0.3045
H64_20 H 0.1215 0.3045 0.4131
H67_20 H 0.1955 0.4131 0.3785
C139_20 C 0.0701(3) 0.3691(3) 0.3424(4)
C142_20 C 0.1309(3) 0.3424(4) 0.4299(3)
C145_20 C 0.1576(4) 0.4299(3) 0.3691(3)
H72_20 H 0.0854 0.3734 0.3540
H75_20 H 0.1266 0.3540 0.4146
H78_20 H 0.1460 0.4146 0.3734
H83_20 H 0.0581 0.3847 0.3413
H86_20 H 0.1153 0.3413 0.4419
H89_20 H 0.1587 0.4419 0.3847
H94_20 H 0.0603 0.3538 0.3499
H97_20 H 0.1462 0.3499 0.4397
H100_20 H 0.1501 0.4397 0.3538
C150_20 C 0.1151(3) 0.3325(3) 0.2833(3)
C153_20 C 0.1675(3) 0.2833(3) 0.3849(3)
C156_20 C 0.2167(3) 0.3849(3) 0.3325(3)
H105_20 H 0.1214 0.3492 0.2744
H108_20 H 0.1508 0.2744 0.3786
H111_20 H 0.2256 0.3786 0.3492
H116_20 H 0.0998 0.3256 0.2727
H119_20 H 0.1744 0.2727 0.4002
H122_20 H 0.2273 0.4002 0.3256
C161_20 C 0.1382(3) 0.3115(3) 0.2820(3)
C164_20 C 0.1885(3) 0.2820(3) 0.3618(3)
C167_20 C 0.2180(3) 0.3618(3) 0.3115(3)
H127_20 H 0.1321 0.2946 0.2899
H130_20 H 0.2054 0.2899 0.3679
H133_20 H 0.2101 0.3679 0.2946
H138_20 H 0.1433 0.3085 0.2632
H141_20 H 0.1915 0.2632 0.3567
H144_20 H 0.2368 0.3567 0.3085
H149_20 H 0.1537 0.3182 0.2920
H152_20 H 0.1818 0.2920 0.3463
H155_20 H 0.2080 0.3463 0.3182
O1_12 O 0.03048(13) 0.76176(15) 0.19861(16)
O2_12 O 0.03390(14) 0.73869(16) 0.16067(17)
O3_27 O 0.0000 0.7500 0.2500
C1_15 C 0.04140(18) 0.7577(2) 0.1758(3)
C2_15 C 0.06436(17) 0.77590(18) 0.1661(2)
C3_15 C 0.07228(18) 0.7977(2) 0.1825(2)
H1_15 H 0.0633 0.8013 0.1989
C4_15 C 0.09435(18) 0.81435(17) 0.1738(2)
C5_15 C 0.10817(17) 0.80869(17) 0.14954(19)
C6_15 C 0.09926(19) 0.78670(19) 0.1338(2)
H2_15 H 0.1083 0.7825 0.1175
C7_15 C 0.07743(19) 0.77112(18) 0.1417(2)
H3_15 H 0.0713 0.7571 0.1304
C8_15 C 0.1047(2) 0.8400(2) 0.1872(2)
C9_15 C 0.12799(17) 0.84777(18) 0.16844(18)
C10_15 C 0.13066(17) 0.82905(17) 0.14657(17)
C11_15 C 0.0806(3) 0.8618(3) 0.1867(3)
H4_15 H 0.0653 0.8548 0.1973
H5_15 H 0.0869 0.8785 0.1955
C12_15 C 0.0701(3) 0.8691(3) 0.1576(4)
H6_15 H 0.0854 0.8734 0.1460
H7_15 H 0.0581 0.8847 0.1587
H8_15 H 0.0603 0.8538 0.1501
C13_15 C 0.1151(3) 0.8325(3) 0.2167(3)
H9_15 H 0.1214 0.8492 0.2256
H10_15 H 0.0998 0.8256 0.2273
C14_15 C 0.1382(3) 0.8115(3) 0.2180(3)
H11_15 H 0.1321 0.7946 0.2101
H12_15 H 0.1433 0.8085 0.2368
H13_15 H 0.1537 0.8182 0.2080
O4_16 O 0.03048(13) 0.69861(16) 0.23824(15)
O12_13 O 0.23824(15) 0.80139(16) 0.03048(13)
O22_16 O 0.03390(14) 0.66067(17) 0.26131(16)
O27_13 O 0.26131(16) 0.83933(17) 0.03390(14)
C18_15 C 0.1758(3) 0.95860(18) 0.2423(2)
C19_15 C 0.2423(2) 0.8242(3) 0.04140(18)
C29_15 C 0.1661(2) 0.93564(17) 0.22410(18)
C30_15 C 0.22410(18) 0.8339(2) 0.06436(17)
C40_15 C 0.1825(2) 0.92772(18) 0.2023(2)
C41_15 C 0.2023(2) 0.8175(2) 0.07228(18)
H17_15 H 0.1989 0.9367 0.1987
H18_15 H 0.1987 0.8011 0.0633
C48_15 C 0.1738(2) 0.90565(18) 0.18565(17)
C49_15 C 0.18565(17) 0.8262(2) 0.09435(18)
C59_15 C 0.14954(19) 0.89183(17) 0.19131(17)
C60_15 C 0.19131(17) 0.85046(19) 0.10817(17)
C70_15 C 0.1338(2) 0.90074(19) 0.21330(19)
C71_15 C 0.21330(19) 0.8662(2) 0.09926(19)
H25_15 H 0.1175 0.8917 0.2175
H26_15 H 0.2175 0.8825 0.1083
C84_15 C 0.1417(2) 0.92257(19) 0.22888(18)
C85_15 C 0.22888(18) 0.8583(2) 0.07743(19)
H39_15 H 0.1304 0.9287 0.2429
H40_15 H 0.2429 0.8696 0.0713
C92_15 C 0.1600(2) 0.8128(2) 0.1047(2)
C93_15 C 0.1872(2) 0.8953(2) 0.1600(2)
C103_15 C 0.15223(18) 0.83156(18) 0.12799(17)
C104_15 C 0.16844(18) 0.87201(17) 0.15223(18)
C114_15 C 0.14657(17) 0.86934(17) 0.17095(17)
C115_15 C 0.17095(17) 0.85343(17) 0.13066(17)
C125_15 C 0.1382(3) 0.8133(3) 0.0806(3)
C126_15 C 0.1867(3) 0.9194(3) 0.1382(3)
H47_15 H 0.1452 0.8027 0.0653
H48_15 H 0.1973 0.9347 0.1452
H58_15 H 0.1215 0.8045 0.0869
H59_15 H 0.1955 0.9131 0.1215
C136_15 C 0.1309(3) 0.8424(4) 0.0701(3)
C137_15 C 0.1576(4) 0.9299(3) 0.1309(3)
H69_15 H 0.1266 0.8540 0.0854
H70_15 H 0.1460 0.9146 0.1266
H80_15 H 0.1153 0.8413 0.0581
H81_15 H 0.1587 0.9419 0.1153
H91_15 H 0.1462 0.8499 0.0603
H92_15 H 0.1501 0.9397 0.1462
C147_15 C 0.1675(3) 0.7833(3) 0.1151(3)
C148_15 C 0.2167(3) 0.8849(3) 0.1675(3)
H102_15 H 0.1508 0.7744 0.1214
H103_15 H 0.2256 0.8786 0.1508
H113_15 H 0.1744 0.7727 0.0998
H114_15 H 0.2273 0.9002 0.1744
C158_15 C 0.1885(3) 0.7820(3) 0.1382(3)
C159_15 C 0.2180(3) 0.8618(3) 0.1885(3)
H124_15 H 0.2054 0.7899 0.1321
H125_15 H 0.2101 0.8679 0.2054
H135_15 H 0.1915 0.7632 0.1433
H136_15 H 0.2368 0.8567 0.1915
H146_15 H 0.1818 0.7920 0.1537
H147_15 H 0.2080 0.8463 0.1818
O3_28 O 1.0000 0.7500 0.2500
O6_5 O 0.96952(13) 0.69861(16) 0.23824(15)
O8_19 O 0.96952(13) 0.80139(16) 0.26176(15)
O21_19 O 0.96610(14) 0.83933(17) 0.23869(16)
O23_5 O 0.96610(14) 0.66067(17) 0.26131(16)
C17_7 C 0.95860(18) 0.6758(3) 0.2423(2)
C24_7 C 0.7577(2) 0.54140(18) 0.1758(3)
C25_7 C 0.8242(3) 0.7423(2) 0.04140(18)
C28_7 C 0.93564(17) 0.6661(2) 0.22410(18)
C35_7 C 0.77590(18) 0.56436(17) 0.1661(2)
C36_7 C 0.8339(2) 0.72410(18) 0.06436(17)
C39_7 C 0.92772(18) 0.6825(2) 0.2023(2)
C46_7 C 0.7977(2) 0.57228(18) 0.1825(2)
C47_7 C 0.8175(2) 0.7023(2) 0.07228(18)
H16_7 H 0.9367 0.6989 0.1987
H23_7 H 0.8013 0.5633 0.1989
H24_7 H 0.8011 0.6987 0.0633
C52_7 C 0.90565(18) 0.6738(2) 0.18565(17)
C57_7 C 0.81435(17) 0.59435(18) 0.1738(2)
C58_7 C 0.8262(2) 0.68565(17) 0.09435(18)
C63_7 C 0.89183(17) 0.64954(19) 0.19131(17)
C66_7 C 0.85046(19) 0.69131(17) 0.10817(17)
C69_7 C 0.80869(17) 0.60817(17) 0.14954(19)
C74_7 C 0.90074(19) 0.6338(2) 0.21330(19)
C77_7 C 0.8662(2) 0.71330(19) 0.09926(19)
C80_7 C 0.78670(19) 0.59926(19) 0.1338(2)
H29_7 H 0.8917 0.6175 0.2175
H32_7 H 0.8825 0.7175 0.1083
H35_7 H 0.7825 0.6083 0.1175
C83_7 C 0.92257(19) 0.6417(2) 0.22888(18)
C88_7 C 0.8583(2) 0.72888(18) 0.07743(19)
C91_7 C 0.77112(18) 0.57743(19) 0.1417(2)
H38_7 H 0.9287 0.6304 0.2429
H43_7 H 0.8696 0.7429 0.0713
H46_7 H 0.7571 0.5713 0.1304
C96_7 C 0.8953(2) 0.6872(2) 0.1600(2)
C99_7 C 0.8400(2) 0.6047(2) 0.1872(2)
C102_7 C 0.8128(2) 0.6600(2) 0.1047(2)
C107_7 C 0.87201(17) 0.66844(18) 0.15223(18)
C110_7 C 0.84777(18) 0.62799(17) 0.16844(18)
C113_7 C 0.83156(18) 0.65223(18) 0.12799(17)
C118_7 C 0.86934(17) 0.64657(17) 0.17095(17)
C121_7 C 0.85343(17) 0.67095(17) 0.13066(17)
C124_7 C 0.82905(17) 0.63066(17) 0.14657(17)
C129_7 C 0.9194(3) 0.6867(3) 0.1382(3)
C132_7 C 0.8618(3) 0.5806(3) 0.1867(3)
C135_7 C 0.8133(3) 0.6382(3) 0.0806(3)
H51_7 H 0.9347 0.6973 0.1452
H54_7 H 0.8548 0.5653 0.1973
H57_7 H 0.8027 0.6452 0.0653
H62_7 H 0.9131 0.6955 0.1215
H65_7 H 0.8785 0.5869 0.1955
H68_7 H 0.8045 0.6215 0.0869
C140_7 C 0.9299(3) 0.6576(4) 0.1309(3)
C143_7 C 0.8691(3) 0.5701(3) 0.1576(4)
C146_7 C 0.8424(4) 0.6309(3) 0.0701(3)
H73_7 H 0.9146 0.6460 0.1266
H76_7 H 0.8734 0.5854 0.1460
H79_7 H 0.8540 0.6266 0.0854
H84_7 H 0.9419 0.6587 0.1153
H87_7 H 0.8847 0.5581 0.1587
H90_7 H 0.8413 0.6153 0.0581
H95_7 H 0.9397 0.6501 0.1462
H98_7 H 0.8538 0.5603 0.1501
H101_7 H 0.8499 0.6462 0.0603
C151_7 C 0.8849(3) 0.7167(3) 0.1675(3)
C154_7 C 0.8325(3) 0.6151(3) 0.2167(3)
C157_7 C 0.7833(3) 0.6675(3) 0.1151(3)
H106_7 H 0.8786 0.7256 0.1508
H109_7 H 0.8492 0.6214 0.2256
H112_7 H 0.7744 0.6508 0.1214
H117_7 H 0.9002 0.7273 0.1744
H120_7 H 0.8256 0.5998 0.2273
H123_7 H 0.7727 0.6744 0.0998
C162_7 C 0.8618(3) 0.7180(3) 0.1885(3)
C165_7 C 0.8115(3) 0.6382(3) 0.2180(3)
C168_7 C 0.7820(3) 0.6885(3) 0.1382(3)
H128_7 H 0.8679 0.7101 0.2054
H131_7 H 0.7946 0.6321 0.2101
H134_7 H 0.7899 0.7054 0.1321
H139_7 H 0.8567 0.7368 0.1915
H142_7 H 0.8085 0.6433 0.2368
H145_7 H 0.7632 0.6915 0.1433
H150_7 H 0.8463 0.7080 0.1818
H153_7 H 0.8182 0.6537 0.2080
H156_7 H 0.7920 0.6818 0.1537
O3_29 O 0.2500 0.7500 0.0000
O4_17 O 0.19861(16) 0.73824(15) 0.03048(13)
O22_17 O 0.16067(17) 0.76131(16) 0.03390(14)
O3_30 O 0.2500 0.7500 1.0000
O8_20 O 0.30139(16) 0.76176(15) 0.96952(13)
O9_17 O 0.23824(15) 0.80139(16) 0.96952(13)
O15_21 O 0.19861(16) 0.96952(13) 0.76176(15)
O21_20 O 0.33933(17) 0.73869(16) 0.96610(14)
O24_17 O 0.26131(16) 0.83933(17) 0.96610(14)
O30_21 O 0.16067(17) 0.96610(14) 0.73869(16)
C16_21 C 0.2423(2) 0.8242(3) 0.95860(18)
C22_21 C 0.1758(3) 0.95860(18) 0.7577(2)
C23_21 C 0.04140(18) 0.7577(2) 0.8242(3)
C27_21 C 0.22410(18) 0.8339(2) 0.93564(17)
C33_21 C 0.1661(2) 0.93564(17) 0.77590(18)
C34_21 C 0.06436(17) 0.77590(18) 0.8339(2)
C38_21 C 0.2023(2) 0.8175(2) 0.92772(18)
C44_21 C 0.1825(2) 0.92772(18) 0.7977(2)
C45_21 C 0.07228(18) 0.7977(2) 0.8175(2)
H15_21 H 0.1987 0.8011 0.9367
H21_21 H 0.1989 0.9367 0.8013
H22_21 H 0.0633 0.8013 0.8011
C51_21 C 0.18565(17) 0.8262(2) 0.90565(18)
C55_21 C 0.1738(2) 0.90565(18) 0.81435(17)
C56_21 C 0.09435(18) 0.81435(17) 0.8262(2)
C62_21 C 0.19131(17) 0.85046(19) 0.89183(17)
C65_21 C 0.10817(17) 0.80869(17) 0.85046(19)
C68_21 C 0.14954(19) 0.89183(17) 0.80869(17)
C73_21 C 0.21330(19) 0.8662(2) 0.90074(19)
C76_21 C 0.09926(19) 0.78670(19) 0.8662(2)
C79_21 C 0.1338(2) 0.90074(19) 0.78670(19)
H28_21 H 0.2175 0.8825 0.8917
H31_21 H 0.1083 0.7825 0.8825
H34_21 H 0.1175 0.8917 0.7825
C82_21 C 0.22888(18) 0.8583(2) 0.92257(19)
C87_21 C 0.07743(19) 0.77112(18) 0.8583(2)
C90_21 C 0.1417(2) 0.92257(19) 0.77112(18)
H37_21 H 0.2429 0.8696 0.9287
H42_21 H 0.0713 0.7571 0.8696
H45_21 H 0.1304 0.9287 0.7571
C95_21 C 0.1600(2) 0.8128(2) 0.8953(2)
C98_21 C 0.1872(2) 0.8953(2) 0.8400(2)
C101_21 C 0.1047(2) 0.8400(2) 0.8128(2)
C106_21 C 0.15223(18) 0.83156(18) 0.87201(17)
C109_21 C 0.16844(18) 0.87201(17) 0.84777(18)
C112_21 C 0.12799(17) 0.84777(18) 0.83156(18)
C117_21 C 0.17095(17) 0.85343(17) 0.86934(17)
C120_21 C 0.13066(17) 0.82905(17) 0.85343(17)
C123_21 C 0.14657(17) 0.86934(17) 0.82905(17)
C128_21 C 0.1382(3) 0.8133(3) 0.9194(3)
C131_21 C 0.1867(3) 0.9194(3) 0.8618(3)
C134_21 C 0.0806(3) 0.8618(3) 0.8133(3)
H50_21 H 0.1452 0.8027 0.9347
H53_21 H 0.1973 0.9347 0.8548
H56_21 H 0.0653 0.8548 0.8027
H61_21 H 0.1215 0.8045 0.9131
H64_21 H 0.1955 0.9131 0.8785
H67_21 H 0.0869 0.8785 0.8045
C139_21 C 0.1309(3) 0.8424(4) 0.9299(3)
C142_21 C 0.1576(4) 0.9299(3) 0.8691(3)
C145_21 C 0.0701(3) 0.8691(3) 0.8424(4)
H72_21 H 0.1266 0.8540 0.9146
H75_21 H 0.1460 0.9146 0.8734
H78_21 H 0.0854 0.8734 0.8540
H83_21 H 0.1153 0.8413 0.9419
H86_21 H 0.1587 0.9419 0.8847
H89_21 H 0.0581 0.8847 0.8413
H94_21 H 0.1462 0.8499 0.9397
H97_21 H 0.1501 0.9397 0.8538
H100_21 H 0.0603 0.8538 0.8499
C150_21 C 0.1675(3) 0.7833(3) 0.8849(3)
C153_21 C 0.2167(3) 0.8849(3) 0.8325(3)
C156_21 C 0.1151(3) 0.8325(3) 0.7833(3)
H105_21 H 0.1508 0.7744 0.8786
H108_21 H 0.2256 0.8786 0.8492
H111_21 H 0.1214 0.8492 0.7744
H116_21 H 0.1744 0.7727 0.9002
H119_21 H 0.2273 0.9002 0.8256
H122_21 H 0.0998 0.8256 0.7727
C161_21 C 0.1885(3) 0.7820(3) 0.8618(3)
C164_21 C 0.2180(3) 0.8618(3) 0.8115(3)
C167_21 C 0.1382(3) 0.8115(3) 0.7820(3)
H127_21 H 0.2054 0.7899 0.8679
H130_21 H 0.2101 0.8679 0.7946
H133_21 H 0.1321 0.7946 0.7899
H138_21 H 0.1915 0.7632 0.8567
H141_21 H 0.2368 0.8567 0.8085
H144_21 H 0.1433 0.8085 0.7632
H149_21 H 0.1818 0.7920 0.8463
H152_21 H 0.2080 0.8463 0.8182
H155_21 H 0.1537 0.8182 0.7920
C1_16 C 0.1758(3) 0.45860(18) 0.7423(2)
C2_16 C 0.1661(2) 0.43564(17) 0.72410(18)
C3_16 C 0.1825(2) 0.42772(18) 0.7023(2)
H1_16 H 0.1989 0.4367 0.6987
C4_16 C 0.1738(2) 0.40565(18) 0.68565(17)
C5_16 C 0.14954(19) 0.39183(17) 0.69131(17)
C6_16 C 0.1338(2) 0.40074(19) 0.71330(19)
H2_16 H 0.1175 0.3917 0.7175
C7_16 C 0.1417(2) 0.42257(19) 0.72888(18)
H3_16 H 0.1304 0.4287 0.7429
C8_16 C 0.1872(2) 0.3953(2) 0.6600(2)
C9_16 C 0.16844(18) 0.37201(17) 0.65223(18)
C10_16 C 0.14657(17) 0.36934(17) 0.67095(17)
C11_16 C 0.1867(3) 0.4194(3) 0.6382(3)
H4_16 H 0.1973 0.4347 0.6452
H5_16 H 0.1955 0.4131 0.6215
C12_16 C 0.1576(4) 0.4299(3) 0.6309(3)
H6_16 H 0.1460 0.4146 0.6266
H7_16 H 0.1587 0.4419 0.6153
H8_16 H 0.1501 0.4397 0.6462
C13_16 C 0.2167(3) 0.3849(3) 0.6675(3)
H9_16 H 0.2256 0.3786 0.6508
H10_16 H 0.2273 0.4002 0.6744
C14_16 C 0.2180(3) 0.3618(3) 0.6885(3)
H11_16 H 0.2101 0.3679 0.7054
H12_16 H 0.2368 0.3567 0.6915
H13_16 H 0.2080 0.3463 0.6818
O11_12 O 0.23824(15) 0.30139(16) 0.53048(13)
O12_14 O 0.03048(13) 0.26176(15) 0.69861(16)
O26_12 O 0.26131(16) 0.33933(17) 0.53390(14)
O27_14 O 0.03390(14) 0.23869(16) 0.66067(17)
C18_16 C 0.2423(2) 0.3242(3) 0.54140(18)
C19_16 C 0.04140(18) 0.2577(2) 0.6758(3)
C29_16 C 0.22410(18) 0.3339(2) 0.56436(17)
C30_16 C 0.06436(17) 0.27590(18) 0.6661(2)
C40_16 C 0.2023(2) 0.3175(2) 0.57228(18)
C41_16 C 0.07228(18) 0.2977(2) 0.6825(2)
H17_16 H 0.1987 0.3011 0.5633
H18_16 H 0.0633 0.3013 0.6989
C48_16 C 0.18565(17) 0.3262(2) 0.59435(18)
C49_16 C 0.09435(18) 0.31435(17) 0.6738(2)
C59_16 C 0.19131(17) 0.35046(19) 0.60817(17)
C60_16 C 0.10817(17) 0.30869(17) 0.64954(19)
C70_16 C 0.21330(19) 0.3662(2) 0.59926(19)
C71_16 C 0.09926(19) 0.28670(19) 0.6338(2)
H25_16 H 0.2175 0.3825 0.6083
H26_16 H 0.1083 0.2825 0.6175
C84_16 C 0.22888(18) 0.3583(2) 0.57743(19)
C85_16 C 0.07743(19) 0.27112(18) 0.6417(2)
H39_16 H 0.2429 0.3696 0.5713
H40_16 H 0.0713 0.2571 0.6304
C92_16 C 0.1047(2) 0.3400(2) 0.6872(2)
C93_16 C 0.1600(2) 0.3128(2) 0.6047(2)
C103_16 C 0.12799(17) 0.34777(18) 0.66844(18)
C104_16 C 0.15223(18) 0.33156(18) 0.62799(17)
C114_16 C 0.17095(17) 0.35343(17) 0.63066(17)
C115_16 C 0.13066(17) 0.32905(17) 0.64657(17)
C125_16 C 0.0806(3) 0.3618(3) 0.6867(3)
C126_16 C 0.1382(3) 0.3133(3) 0.5806(3)
H47_16 H 0.0653 0.3548 0.6973
H48_16 H 0.1452 0.3027 0.5653
H58_16 H 0.0869 0.3785 0.6955
H59_16 H 0.1215 0.3045 0.5869
C136_16 C 0.0701(3) 0.3691(3) 0.6576(4)
C137_16 C 0.1309(3) 0.3424(4) 0.5701(3)
H69_16 H 0.0854 0.3734 0.6460
H70_16 H 0.1266 0.3540 0.5854
H80_16 H 0.0581 0.3847 0.6587
H81_16 H 0.1153 0.3413 0.5581
H91_16 H 0.0603 0.3538 0.6501
H92_16 H 0.1462 0.3499 0.5603
C147_16 C 0.1151(3) 0.3325(3) 0.7167(3)
C148_16 C 0.1675(3) 0.2833(3) 0.6151(3)
H102_16 H 0.1214 0.3492 0.7256
H103_16 H 0.1508 0.2744 0.6214
H113_16 H 0.0998 0.3256 0.7273
H114_16 H 0.1744 0.2727 0.5998
C158_16 C 0.1382(3) 0.3115(3) 0.7180(3)
C159_16 C 0.1885(3) 0.2820(3) 0.6382(3)
H124_16 H 0.1321 0.2946 0.7101
H125_16 H 0.2054 0.2899 0.6321
H135_16 H 0.1433 0.3085 0.7368
H136_16 H 0.1915 0.2632 0.6433
H146_16 H 0.1537 0.3182 0.7080
H147_16 H 0.1818 0.2920 0.6537
O3_31 O 0.2500 0.5000 0.2500
O4_18 O 0.23824(15) 0.53048(13) 0.19861(16)
O8_21 O 0.26176(15) 0.46952(13) 0.30139(16)
O21_21 O 0.23869(16) 0.46610(14) 0.33933(17)
O22_18 O 0.26131(16) 0.53390(14) 0.16067(17)
O3_32 O 0.0000 0.2500 0.7500
O4_19 O 0.03048(13) 0.19861(16) 0.73824(15)
O22_19 O 0.03390(14) 0.16067(17) 0.76131(16)
O3_33 O 1.0000 0.2500 0.7500
O8_22 O 0.96952(13) 0.30139(16) 0.76176(15)
O21_22 O 0.96610(14) 0.33933(17) 0.73869(16)
O3_34 O 0.2500 0.2500 0.5000
O4_20 O 0.19861(16) 0.23824(15) 0.53048(13)
O8_23 O 0.30139(16) 0.26176(15) 0.46952(13)
O21_23 O 0.33933(17) 0.23869(16) 0.46610(14)
O22_20 O 0.16067(17) 0.26131(16) 0.53390(14)
O3_35 O 0.2500 0.0000 0.7500
O4_21 O 0.23824(15) 0.03048(13) 0.69861(16)
O22_21 O 0.26131(16) 0.03390(14) 0.66067(17)
O3_36 O 0.2500 1.0000 0.7500
O8_24 O 0.26176(15) 0.96952(13) 0.80139(16)
O21_24 O 0.23869(16) 0.96610(14) 0.83933(17)
C1_17 C 0.7423(2) 0.04140(18) 0.1758(3)
C2_17 C 0.72410(18) 0.06436(17) 0.1661(2)
C3_17 C 0.7023(2) 0.07228(18) 0.1825(2)
H1_17 H 0.6987 0.0633 0.1989
C4_17 C 0.68565(17) 0.09435(18) 0.1738(2)
C5_17 C 0.69131(17) 0.10817(17) 0.14954(19)
C6_17 C 0.71330(19) 0.09926(19) 0.1338(2)
H2_17 H 0.7175 0.1083 0.1175
C7_17 C 0.72888(18) 0.07743(19) 0.1417(2)
H3_17 H 0.7429 0.0713 0.1304
C8_17 C 0.6600(2) 0.1047(2) 0.1872(2)
C9_17 C 0.65223(18) 0.12799(17) 0.16844(18)
C10_17 C 0.67095(17) 0.13066(17) 0.14657(17)
C11_17 C 0.6382(3) 0.0806(3) 0.1867(3)
H4_17 H 0.6452 0.0653 0.1973
H5_17 H 0.6215 0.0869 0.1955
C12_17 C 0.6309(3) 0.0701(3) 0.1576(4)
H6_17 H 0.6266 0.0854 0.1460
H7_17 H 0.6153 0.0581 0.1587
H8_17 H 0.6462 0.0603 0.1501
C13_17 C 0.6675(3) 0.1151(3) 0.2167(3)
H9_17 H 0.6508 0.1214 0.2256
H10_17 H 0.6744 0.0998 0.2273
C14_17 C 0.6885(3) 0.1382(3) 0.2180(3)
H11_17 H 0.7054 0.1321 0.2101
H12_17 H 0.6915 0.1433 0.2368
H13_17 H 0.6818 0.1537 0.2080
C18_17 C 0.54140(18) 0.1758(3) 0.2423(2)
C19_17 C 0.6758(3) 0.2423(2) 0.04140(18)
C29_17 C 0.56436(17) 0.1661(2) 0.22410(18)
C30_17 C 0.6661(2) 0.22410(18) 0.06436(17)
C40_17 C 0.57228(18) 0.1825(2) 0.2023(2)
C41_17 C 0.6825(2) 0.2023(2) 0.07228(18)
H17_17 H 0.5633 0.1989 0.1987
H18_17 H 0.6989 0.1987 0.0633
C48_17 C 0.59435(18) 0.1738(2) 0.18565(17)
C49_17 C 0.6738(2) 0.18565(17) 0.09435(18)
C59_17 C 0.60817(17) 0.14954(19) 0.19131(17)
C60_17 C 0.64954(19) 0.19131(17) 0.10817(17)
C70_17 C 0.59926(19) 0.1338(2) 0.21330(19)
C71_17 C 0.6338(2) 0.21330(19) 0.09926(19)
H25_17 H 0.6083 0.1175 0.2175
H26_17 H 0.6175 0.2175 0.1083
C84_17 C 0.57743(19) 0.1417(2) 0.22888(18)
C85_17 C 0.6417(2) 0.22888(18) 0.07743(19)
H39_17 H 0.5713 0.1304 0.2429
H40_17 H 0.6304 0.2429 0.0713
C92_17 C 0.6872(2) 0.1600(2) 0.1047(2)
C93_17 C 0.6047(2) 0.1872(2) 0.1600(2)
C103_17 C 0.66844(18) 0.15223(18) 0.12799(17)
C104_17 C 0.62799(17) 0.16844(18) 0.15223(18)
C114_17 C 0.63066(17) 0.14657(17) 0.17095(17)
C115_17 C 0.64657(17) 0.17095(17) 0.13066(17)
C125_17 C 0.6867(3) 0.1382(3) 0.0806(3)
C126_17 C 0.5806(3) 0.1867(3) 0.1382(3)
H47_17 H 0.6973 0.1452 0.0653
H48_17 H 0.5653 0.1973 0.1452
H58_17 H 0.6955 0.1215 0.0869
H59_17 H 0.5869 0.1955 0.1215
C136_17 C 0.6576(4) 0.1309(3) 0.0701(3)
C137_17 C 0.5701(3) 0.1576(4) 0.1309(3)
H69_17 H 0.6460 0.1266 0.0854
H70_17 H 0.5854 0.1460 0.1266
H80_17 H 0.6587 0.1153 0.0581
H81_17 H 0.5581 0.1587 0.1153
H91_17 H 0.6501 0.1462 0.0603
H92_17 H 0.5603 0.1501 0.1462
C147_17 C 0.7167(3) 0.1675(3) 0.1151(3)
C148_17 C 0.6151(3) 0.2167(3) 0.1675(3)
H102_17 H 0.7256 0.1508 0.1214
H103_17 H 0.6214 0.2256 0.1508
H113_17 H 0.7273 0.1744 0.0998
H114_17 H 0.5998 0.2273 0.1744
C158_17 C 0.7180(3) 0.1885(3) 0.1382(3)
C159_17 C 0.6382(3) 0.2180(3) 0.1885(3)
H124_17 H 0.7101 0.2054 0.1321
H125_17 H 0.6321 0.2101 0.2054
H135_17 H 0.7368 0.1915 0.1433
H136_17 H 0.6433 0.2368 0.1915
H146_17 H 0.7080 0.1818 0.1537
H147_17 H 0.6537 0.2080 0.1818
C16_22 C 0.7577(2) 0.95860(18) 0.3242(3)
C22_22 C 0.8242(3) 0.7577(2) 0.45860(18)
C23_22 C 0.95860(18) 0.8242(3) 0.2577(2)
C27_22 C 0.77590(18) 0.93564(17) 0.3339(2)
C33_22 C 0.8339(2) 0.77590(18) 0.43564(17)
C34_22 C 0.93564(17) 0.8339(2) 0.27590(18)
C38_22 C 0.7977(2) 0.92772(18) 0.3175(2)
C44_22 C 0.8175(2) 0.7977(2) 0.42772(18)
C45_22 C 0.92772(18) 0.8175(2) 0.2977(2)
H15_22 H 0.8013 0.9367 0.3011
H21_22 H 0.8011 0.8013 0.4367
H22_22 H 0.9367 0.8011 0.3013
C51_22 C 0.81435(17) 0.90565(18) 0.3262(2)
C55_22 C 0.8262(2) 0.81435(17) 0.40565(18)
C56_22 C 0.90565(18) 0.8262(2) 0.31435(17)
C62_22 C 0.80869(17) 0.89183(17) 0.35046(19)
C65_22 C 0.89183(17) 0.85046(19) 0.30869(17)
C68_22 C 0.85046(19) 0.80869(17) 0.39183(17)
C73_22 C 0.78670(19) 0.90074(19) 0.3662(2)
C76_22 C 0.90074(19) 0.8662(2) 0.28670(19)
C79_22 C 0.8662(2) 0.78670(19) 0.40074(19)
H28_22 H 0.7825 0.8917 0.3825
H31_22 H 0.8917 0.8825 0.2825
H34_22 H 0.8825 0.7825 0.3917
C82_22 C 0.77112(18) 0.92257(19) 0.3583(2)
C87_22 C 0.92257(19) 0.8583(2) 0.27112(18)
C90_22 C 0.8583(2) 0.77112(18) 0.42257(19)
H37_22 H 0.7571 0.9287 0.3696
H42_22 H 0.9287 0.8696 0.2571
H45_22 H 0.8696 0.7571 0.4287
C95_22 C 0.8400(2) 0.8953(2) 0.3128(2)
C98_22 C 0.8128(2) 0.8400(2) 0.3953(2)
C101_22 C 0.8953(2) 0.8128(2) 0.3400(2)
C106_22 C 0.84777(18) 0.87201(17) 0.33156(18)
C109_22 C 0.83156(18) 0.84777(18) 0.37201(17)
C112_22 C 0.87201(17) 0.83156(18) 0.34777(18)
C117_22 C 0.82905(17) 0.86934(17) 0.35343(17)
C120_22 C 0.86934(17) 0.85343(17) 0.32905(17)
C123_22 C 0.85343(17) 0.82905(17) 0.36934(17)
C128_22 C 0.8618(3) 0.9194(3) 0.3133(3)
C131_22 C 0.8133(3) 0.8618(3) 0.4194(3)
C134_22 C 0.9194(3) 0.8133(3) 0.3618(3)
H50_22 H 0.8548 0.9347 0.3027
H53_22 H 0.8027 0.8548 0.4347
H56_22 H 0.9347 0.8027 0.3548
H61_22 H 0.8785 0.9131 0.3045
H64_22 H 0.8045 0.8785 0.4131
H67_22 H 0.9131 0.8045 0.3785
C139_22 C 0.8691(3) 0.9299(3) 0.3424(4)
C142_22 C 0.8424(4) 0.8691(3) 0.4299(3)
C145_22 C 0.9299(3) 0.8424(4) 0.3691(3)
H72_22 H 0.8734 0.9146 0.3540
H75_22 H 0.8540 0.8734 0.4146
H78_22 H 0.9146 0.8540 0.3734
H83_22 H 0.8847 0.9419 0.3413
H86_22 H 0.8413 0.8847 0.4419
H89_22 H 0.9419 0.8413 0.3847
H94_22 H 0.8538 0.9397 0.3499
H97_22 H 0.8499 0.8538 0.4397
H100_22 H 0.9397 0.8499 0.3538
C150_22 C 0.8325(3) 0.8849(3) 0.2833(3)
C153_22 C 0.7833(3) 0.8325(3) 0.3849(3)
C156_22 C 0.8849(3) 0.7833(3) 0.3325(3)
H105_22 H 0.8492 0.8786 0.2744
H108_22 H 0.7744 0.8492 0.3786
H111_22 H 0.8786 0.7744 0.3492
H116_22 H 0.8256 0.9002 0.2727
H119_22 H 0.7727 0.8256 0.4002
H122_22 H 0.9002 0.7727 0.3256
C161_22 C 0.8115(3) 0.8618(3) 0.2820(3)
C164_22 C 0.7820(3) 0.8115(3) 0.3618(3)
C167_22 C 0.8618(3) 0.7820(3) 0.3115(3)
H127_22 H 0.7946 0.8679 0.2899
H130_22 H 0.7899 0.7946 0.3679
H133_22 H 0.8679 0.7899 0.2946
H138_22 H 0.8085 0.8567 0.2632
H141_22 H 0.7632 0.8085 0.3567
H144_22 H 0.8567 0.7632 0.3085
H149_22 H 0.8182 0.8463 0.2920
H152_22 H 0.7920 0.8182 0.3463
H155_22 H 0.8463 0.7920 0.3182
C1_18 C 0.1758(3) 0.7423(2) 0.04140(18)
C2_18 C 0.1661(2) 0.72410(18) 0.06436(17)
C3_18 C 0.1825(2) 0.7023(2) 0.07228(18)
H1_18 H 0.1989 0.6987 0.0633
C4_18 C 0.1738(2) 0.68565(17) 0.09435(18)
C5_18 C 0.14954(19) 0.69131(17) 0.10817(17)
C6_18 C 0.1338(2) 0.71330(19) 0.09926(19)
H2_18 H 0.1175 0.7175 0.1083
C7_18 C 0.1417(2) 0.72888(18) 0.07743(19)
H3_18 H 0.1304 0.7429 0.0713
C8_18 C 0.1872(2) 0.6600(2) 0.1047(2)
C9_18 C 0.16844(18) 0.65223(18) 0.12799(17)
C10_18 C 0.14657(17) 0.67095(17) 0.13066(17)
C11_18 C 0.1867(3) 0.6382(3) 0.0806(3)
H4_18 H 0.1973 0.6452 0.0653
H5_18 H 0.1955 0.6215 0.0869
C12_18 C 0.1576(4) 0.6309(3) 0.0701(3)
H6_18 H 0.1460 0.6266 0.0854
H7_18 H 0.1587 0.6153 0.0581
H8_18 H 0.1501 0.6462 0.0603
C13_18 C 0.2167(3) 0.6675(3) 0.1151(3)
H9_18 H 0.2256 0.6508 0.1214
H10_18 H 0.2273 0.6744 0.0998
C14_18 C 0.2180(3) 0.6885(3) 0.1382(3)
H11_18 H 0.2101 0.7054 0.1321
H12_18 H 0.2368 0.6915 0.1433
H13_18 H 0.2080 0.6818 0.1537
C18_18 C 0.2423(2) 0.54140(18) 0.1758(3)
C19_18 C 0.04140(18) 0.6758(3) 0.2423(2)
C29_18 C 0.22410(18) 0.56436(17) 0.1661(2)
C30_18 C 0.06436(17) 0.6661(2) 0.22410(18)
C40_18 C 0.2023(2) 0.57228(18) 0.1825(2)
C41_18 C 0.07228(18) 0.6825(2) 0.2023(2)
H17_18 H 0.1987 0.5633 0.1989
H18_18 H 0.0633 0.6989 0.1987
C48_18 C 0.18565(17) 0.59435(18) 0.1738(2)
C49_18 C 0.09435(18) 0.6738(2) 0.18565(17)
C59_18 C 0.19131(17) 0.60817(17) 0.14954(19)
C60_18 C 0.10817(17) 0.64954(19) 0.19131(17)
C70_18 C 0.21330(19) 0.59926(19) 0.1338(2)
C71_18 C 0.09926(19) 0.6338(2) 0.21330(19)
H25_18 H 0.2175 0.6083 0.1175
H26_18 H 0.1083 0.6175 0.2175
C84_18 C 0.22888(18) 0.57743(19) 0.1417(2)
C85_18 C 0.07743(19) 0.6417(2) 0.22888(18)
H39_18 H 0.2429 0.5713 0.1304
H40_18 H 0.0713 0.6304 0.2429
C92_18 C 0.1047(2) 0.6872(2) 0.1600(2)
C93_18 C 0.1600(2) 0.6047(2) 0.1872(2)
C103_18 C 0.12799(17) 0.66844(18) 0.15223(18)
C104_18 C 0.15223(18) 0.62799(17) 0.16844(18)
C114_18 C 0.17095(17) 0.63066(17) 0.14657(17)
C115_18 C 0.13066(17) 0.64657(17) 0.17095(17)
C125_18 C 0.0806(3) 0.6867(3) 0.1382(3)
C126_18 C 0.1382(3) 0.5806(3) 0.1867(3)
H47_18 H 0.0653 0.6973 0.1452
H48_18 H 0.1452 0.5653 0.1973
H58_18 H 0.0869 0.6955 0.1215
H59_18 H 0.1215 0.5869 0.1955
C136_18 C 0.0701(3) 0.6576(4) 0.1309(3)
C137_18 C 0.1309(3) 0.5701(3) 0.1576(4)
H69_18 H 0.0854 0.6460 0.1266
H70_18 H 0.1266 0.5854 0.1460
H80_18 H 0.0581 0.6587 0.1153
H81_18 H 0.1153 0.5581 0.1587
H91_18 H 0.0603 0.6501 0.1462
H92_18 H 0.1462 0.5603 0.1501
C147_18 C 0.1151(3) 0.7167(3) 0.1675(3)
C148_18 C 0.1675(3) 0.6151(3) 0.2167(3)
H102_18 H 0.1214 0.7256 0.1508
H103_18 H 0.1508 0.6214 0.2256
H113_18 H 0.0998 0.7273 0.1744
H114_18 H 0.1744 0.5998 0.2273
C158_18 C 0.1382(3) 0.7180(3) 0.1885(3)
C159_18 C 0.1885(3) 0.6382(3) 0.2180(3)
H124_18 H 0.1321 0.7101 0.2054
H125_18 H 0.2054 0.6321 0.2101
H135_18 H 0.1433 0.7368 0.1915
H136_18 H 0.1915 0.6433 0.2368
H146_18 H 0.1537 0.7080 0.1818
H147_18 H 0.1818 0.6537 0.2080
C16_23 C 0.3242(3) 0.7577(2) 0.95860(18)
C22_23 C 0.45860(18) 0.8242(3) 0.7577(2)
C23_23 C 0.2577(2) 0.95860(18) 0.8242(3)
C27_23 C 0.3339(2) 0.77590(18) 0.93564(17)
C33_23 C 0.43564(17) 0.8339(2) 0.77590(18)
C34_23 C 0.27590(18) 0.93564(17) 0.8339(2)
C38_23 C 0.3175(2) 0.7977(2) 0.92772(18)
C44_23 C 0.42772(18) 0.8175(2) 0.7977(2)
C45_23 C 0.2977(2) 0.92772(18) 0.8175(2)
H15_23 H 0.3011 0.8013 0.9367
H21_23 H 0.4367 0.8011 0.8013
H22_23 H 0.3013 0.9367 0.8011
C51_23 C 0.3262(2) 0.81435(17) 0.90565(18)
C55_23 C 0.40565(18) 0.8262(2) 0.81435(17)
C56_23 C 0.31435(17) 0.90565(18) 0.8262(2)
C62_23 C 0.35046(19) 0.80869(17) 0.89183(17)
C65_23 C 0.30869(17) 0.89183(17) 0.85046(19)
C68_23 C 0.39183(17) 0.85046(19) 0.80869(17)
C73_23 C 0.3662(2) 0.78670(19) 0.90074(19)
C76_23 C 0.28670(19) 0.90074(19) 0.8662(2)
C79_23 C 0.40074(19) 0.8662(2) 0.78670(19)
H28_23 H 0.3825 0.7825 0.8917
H31_23 H 0.2825 0.8917 0.8825
H34_23 H 0.3917 0.8825 0.7825
C82_23 C 0.3583(2) 0.77112(18) 0.92257(19)
C87_23 C 0.27112(18) 0.92257(19) 0.8583(2)
C90_23 C 0.42257(19) 0.8583(2) 0.77112(18)
H37_23 H 0.3696 0.7571 0.9287
H42_23 H 0.2571 0.9287 0.8696
H45_23 H 0.4287 0.8696 0.7571
C95_23 C 0.3128(2) 0.8400(2) 0.8953(2)
C98_23 C 0.3953(2) 0.8128(2) 0.8400(2)
C101_23 C 0.3400(2) 0.8953(2) 0.8128(2)
C106_23 C 0.33156(18) 0.84777(18) 0.87201(17)
C109_23 C 0.37201(17) 0.83156(18) 0.84777(18)
C112_23 C 0.34777(18) 0.87201(17) 0.83156(18)
C117_23 C 0.35343(17) 0.82905(17) 0.86934(17)
C120_23 C 0.32905(17) 0.86934(17) 0.85343(17)
C123_23 C 0.36934(17) 0.85343(17) 0.82905(17)
C128_23 C 0.3133(3) 0.8618(3) 0.9194(3)
C131_23 C 0.4194(3) 0.8133(3) 0.8618(3)
C134_23 C 0.3618(3) 0.9194(3) 0.8133(3)
H50_23 H 0.3027 0.8548 0.9347
H53_23 H 0.4347 0.8027 0.8548
H56_23 H 0.3548 0.9347 0.8027
H61_23 H 0.3045 0.8785 0.9131
H64_23 H 0.4131 0.8045 0.8785
H67_23 H 0.3785 0.9131 0.8045
C139_23 C 0.3424(4) 0.8691(3) 0.9299(3)
C142_23 C 0.4299(3) 0.8424(4) 0.8691(3)
C145_23 C 0.3691(3) 0.9299(3) 0.8424(4)
H72_23 H 0.3540 0.8734 0.9146
H75_23 H 0.4146 0.8540 0.8734
H78_23 H 0.3734 0.9146 0.8540
H83_23 H 0.3413 0.8847 0.9419
H86_23 H 0.4419 0.8413 0.8847
H89_23 H 0.3847 0.9419 0.8413
H94_23 H 0.3499 0.8538 0.9397
H97_23 H 0.4397 0.8499 0.8538
H100_23 H 0.3538 0.9397 0.8499
C150_23 C 0.2833(3) 0.8325(3) 0.8849(3)
C153_23 C 0.3849(3) 0.7833(3) 0.8325(3)
C156_23 C 0.3325(3) 0.8849(3) 0.7833(3)
H105_23 H 0.2744 0.8492 0.8786
H108_23 H 0.3786 0.7744 0.8492
H111_23 H 0.3492 0.8786 0.7744
H116_23 H 0.2727 0.8256 0.9002
H119_23 H 0.4002 0.7727 0.8256
H122_23 H 0.3256 0.9002 0.7727
C161_23 C 0.2820(3) 0.8115(3) 0.8618(3)
C164_23 C 0.3618(3) 0.7820(3) 0.8115(3)
C167_23 C 0.3115(3) 0.8618(3) 0.7820(3)
H127_23 H 0.2899 0.7946 0.8679
H130_23 H 0.3679 0.7899 0.7946
H133_23 H 0.2946 0.8679 0.7899
H138_23 H 0.2632 0.8085 0.8567
H141_23 H 0.3567 0.7632 0.8085
H144_23 H 0.3085 0.8567 0.7632
H149_23 H 0.2920 0.8182 0.8463
H152_23 H 0.3463 0.7920 0.8182
H155_23 H 0.3182 0.8463 0.7920
C1_19 C 0.04140(18) 0.1758(3) 0.7423(2)
C2_19 C 0.06436(17) 0.1661(2) 0.72410(18)
C3_19 C 0.07228(18) 0.1825(2) 0.7023(2)
H1_19 H 0.0633 0.1989 0.6987
C4_19 C 0.09435(18) 0.1738(2) 0.68565(17)
C5_19 C 0.10817(17) 0.14954(19) 0.69131(17)
C6_19 C 0.09926(19) 0.1338(2) 0.71330(19)
H2_19 H 0.1083 0.1175 0.7175
C7_19 C 0.07743(19) 0.1417(2) 0.72888(18)
H3_19 H 0.0713 0.1304 0.7429
C8_19 C 0.1047(2) 0.1872(2) 0.6600(2)
C9_19 C 0.12799(17) 0.16844(18) 0.65223(18)
C10_19 C 0.13066(17) 0.14657(17) 0.67095(17)
C11_19 C 0.0806(3) 0.1867(3) 0.6382(3)
H4_19 H 0.0653 0.1973 0.6452
H5_19 H 0.0869 0.1955 0.6215
C12_19 C 0.0701(3) 0.1576(4) 0.6309(3)
H6_19 H 0.0854 0.1460 0.6266
H7_19 H 0.0581 0.1587 0.6153
H8_19 H 0.0603 0.1501 0.6462
C13_19 C 0.1151(3) 0.2167(3) 0.6675(3)
H9_19 H 0.1214 0.2256 0.6508
H10_19 H 0.0998 0.2273 0.6744
C14_19 C 0.1382(3) 0.2180(3) 0.6885(3)
H11_19 H 0.1321 0.2101 0.7054
H12_19 H 0.1433 0.2368 0.6915
H13_19 H 0.1537 0.2080 0.6818
C18_19 C 0.1758(3) 0.2423(2) 0.54140(18)
C19_19 C 0.2423(2) 0.04140(18) 0.6758(3)
C29_19 C 0.1661(2) 0.22410(18) 0.56436(17)
C30_19 C 0.22410(18) 0.06436(17) 0.6661(2)
C40_19 C 0.1825(2) 0.2023(2) 0.57228(18)
C41_19 C 0.2023(2) 0.07228(18) 0.6825(2)
H17_19 H 0.1989 0.1987 0.5633
H18_19 H 0.1987 0.0633 0.6989
C48_19 C 0.1738(2) 0.18565(17) 0.59435(18)
C49_19 C 0.18565(17) 0.09435(18) 0.6738(2)
C59_19 C 0.14954(19) 0.19131(17) 0.60817(17)
C60_19 C 0.19131(17) 0.10817(17) 0.64954(19)
C70_19 C 0.1338(2) 0.21330(19) 0.59926(19)
C71_19 C 0.21330(19) 0.09926(19) 0.6338(2)
H25_19 H 0.1175 0.2175 0.6083
H26_19 H 0.2175 0.1083 0.6175
C84_19 C 0.1417(2) 0.22888(18) 0.57743(19)
C85_19 C 0.22888(18) 0.07743(19) 0.6417(2)
H39_19 H 0.1304 0.2429 0.5713
H40_19 H 0.2429 0.0713 0.6304
C92_19 C 0.1600(2) 0.1047(2) 0.6872(2)
C93_19 C 0.1872(2) 0.1600(2) 0.6047(2)
C103_19 C 0.15223(18) 0.12799(17) 0.66844(18)
C104_19 C 0.16844(18) 0.15223(18) 0.62799(17)
C114_19 C 0.14657(17) 0.17095(17) 0.63066(17)
C115_19 C 0.17095(17) 0.13066(17) 0.64657(17)
C125_19 C 0.1382(3) 0.0806(3) 0.6867(3)
C126_19 C 0.1867(3) 0.1382(3) 0.5806(3)
H47_19 H 0.1452 0.0653 0.6973
H48_19 H 0.1973 0.1452 0.5653
H58_19 H 0.1215 0.0869 0.6955
H59_19 H 0.1955 0.1215 0.5869
C136_19 C 0.1309(3) 0.0701(3) 0.6576(4)
C137_19 C 0.1576(4) 0.1309(3) 0.5701(3)
H69_19 H 0.1266 0.0854 0.6460
H70_19 H 0.1460 0.1266 0.5854
H80_19 H 0.1153 0.0581 0.6587
H81_19 H 0.1587 0.1153 0.5581
H91_19 H 0.1462 0.0603 0.6501
H92_19 H 0.1501 0.1462 0.5603
C147_19 C 0.1675(3) 0.1151(3) 0.7167(3)
C148_19 C 0.2167(3) 0.1675(3) 0.6151(3)
H102_19 H 0.1508 0.1214 0.7256
H103_19 H 0.2256 0.1508 0.6214
H113_19 H 0.1744 0.0998 0.7273
H114_19 H 0.2273 0.1744 0.5998
C158_19 C 0.1885(3) 0.1382(3) 0.7180(3)
C159_19 C 0.2180(3) 0.1885(3) 0.6382(3)
H124_19 H 0.2054 0.1321 0.7101
H125_19 H 0.2101 0.2054 0.6321
H135_19 H 0.1915 0.1433 0.7368
H136_19 H 0.2368 0.1915 0.6433
H146_19 H 0.1818 0.1537 0.7080
H147_19 H 0.2080 0.1818 0.6537
C16_24 C 0.95860(18) 0.3242(3) 0.7577(2)
C22_24 C 0.7577(2) 0.45860(18) 0.8242(3)
C23_24 C 0.8242(3) 0.2577(2) 0.95860(18)
C27_24 C 0.93564(17) 0.3339(2) 0.77590(18)
C33_24 C 0.77590(18) 0.43564(17) 0.8339(2)
C34_24 C 0.8339(2) 0.27590(18) 0.93564(17)
C38_24 C 0.92772(18) 0.3175(2) 0.7977(2)
C44_24 C 0.7977(2) 0.42772(18) 0.8175(2)
C45_24 C 0.8175(2) 0.2977(2) 0.92772(18)
H15_24 H 0.9367 0.3011 0.8013
H21_24 H 0.8013 0.4367 0.8011
H22_24 H 0.8011 0.3013 0.9367
C51_24 C 0.90565(18) 0.3262(2) 0.81435(17)
C55_24 C 0.81435(17) 0.40565(18) 0.8262(2)
C56_24 C 0.8262(2) 0.31435(17) 0.90565(18)
C62_24 C 0.89183(17) 0.35046(19) 0.80869(17)
C65_24 C 0.85046(19) 0.30869(17) 0.89183(17)
C68_24 C 0.80869(17) 0.39183(17) 0.85046(19)
C73_24 C 0.90074(19) 0.3662(2) 0.78670(19)
C76_24 C 0.8662(2) 0.28670(19) 0.90074(19)
C79_24 C 0.78670(19) 0.40074(19) 0.8662(2)
H28_24 H 0.8917 0.3825 0.7825
H31_24 H 0.8825 0.2825 0.8917
H34_24 H 0.7825 0.3917 0.8825
C82_24 C 0.92257(19) 0.3583(2) 0.77112(18)
C87_24 C 0.8583(2) 0.27112(18) 0.92257(19)
C90_24 C 0.77112(18) 0.42257(19) 0.8583(2)
H37_24 H 0.9287 0.3696 0.7571
H42_24 H 0.8696 0.2571 0.9287
H45_24 H 0.7571 0.4287 0.8696
C95_24 C 0.8953(2) 0.3128(2) 0.8400(2)
C98_24 C 0.8400(2) 0.3953(2) 0.8128(2)
C101_24 C 0.8128(2) 0.3400(2) 0.8953(2)
C106_24 C 0.87201(17) 0.33156(18) 0.84777(18)
C109_24 C 0.84777(18) 0.37201(17) 0.83156(18)
C112_24 C 0.83156(18) 0.34777(18) 0.87201(17)
C117_24 C 0.86934(17) 0.35343(17) 0.82905(17)
C120_24 C 0.85343(17) 0.32905(17) 0.86934(17)
C123_24 C 0.82905(17) 0.36934(17) 0.85343(17)
C128_24 C 0.9194(3) 0.3133(3) 0.8618(3)
C131_24 C 0.8618(3) 0.4194(3) 0.8133(3)
C134_24 C 0.8133(3) 0.3618(3) 0.9194(3)
H50_24 H 0.9347 0.3027 0.8548
H53_24 H 0.8548 0.4347 0.8027
H56_24 H 0.8027 0.3548 0.9347
H61_24 H 0.9131 0.3045 0.8785
H64_24 H 0.8785 0.4131 0.8045
H67_24 H 0.8045 0.3785 0.9131
C139_24 C 0.9299(3) 0.3424(4) 0.8691(3)
C142_24 C 0.8691(3) 0.4299(3) 0.8424(4)
C145_24 C 0.8424(4) 0.3691(3) 0.9299(3)
H72_24 H 0.9146 0.3540 0.8734
H75_24 H 0.8734 0.4146 0.8540
H78_24 H 0.8540 0.3734 0.9146
H83_24 H 0.9419 0.3413 0.8847
H86_24 H 0.8847 0.4419 0.8413
H89_24 H 0.8413 0.3847 0.9419
H94_24 H 0.9397 0.3499 0.8538
H97_24 H 0.8538 0.4397 0.8499
H100_24 H 0.8499 0.3538 0.9397
C150_24 C 0.8849(3) 0.2833(3) 0.8325(3)
C153_24 C 0.8325(3) 0.3849(3) 0.7833(3)
C156_24 C 0.7833(3) 0.3325(3) 0.8849(3)
H105_24 H 0.8786 0.2744 0.8492
H108_24 H 0.8492 0.3786 0.7744
H111_24 H 0.7744 0.3492 0.8786
H116_24 H 0.9002 0.2727 0.8256
H119_24 H 0.8256 0.4002 0.7727
H122_24 H 0.7727 0.3256 0.9002
C161_24 C 0.8618(3) 0.2820(3) 0.8115(3)
C164_24 C 0.8115(3) 0.3618(3) 0.7820(3)
C167_24 C 0.7820(3) 0.3115(3) 0.8618(3)
H127_24 H 0.8679 0.2899 0.7946
H130_24 H 0.7946 0.3679 0.7899
H133_24 H 0.7899 0.2946 0.8679
H138_24 H 0.8567 0.2632 0.8085
H141_24 H 0.8085 0.3567 0.7632
H144_24 H 0.7632 0.3085 0.8567
H149_24 H 0.8463 0.2920 0.8182
H152_24 H 0.8182 0.3463 0.7920
H155_24 H 0.7920 0.3182 0.8463
C17_8 C 0.45860(18) 0.3242(3) 0.2577(2)
C24_8 C 0.2577(2) 0.45860(18) 0.3242(3)
C25_8 C 0.3242(3) 0.2577(2) 0.45860(18)
C28_8 C 0.43564(17) 0.3339(2) 0.27590(18)
C35_8 C 0.27590(18) 0.43564(17) 0.3339(2)
C36_8 C 0.3339(2) 0.27590(18) 0.43564(17)
C39_8 C 0.42772(18) 0.3175(2) 0.2977(2)
C46_8 C 0.2977(2) 0.42772(18) 0.3175(2)
C47_8 C 0.3175(2) 0.2977(2) 0.42772(18)
H16_8 H 0.4367 0.3011 0.3013
H23_8 H 0.3013 0.4367 0.3011
H24_8 H 0.3011 0.3013 0.4367
C52_8 C 0.40565(18) 0.3262(2) 0.31435(17)
C57_8 C 0.31435(17) 0.40565(18) 0.3262(2)
C58_8 C 0.3262(2) 0.31435(17) 0.40565(18)
C63_8 C 0.39183(17) 0.35046(19) 0.30869(17)
C66_8 C 0.35046(19) 0.30869(17) 0.39183(17)
C69_8 C 0.30869(17) 0.39183(17) 0.35046(19)
C74_8 C 0.40074(19) 0.3662(2) 0.28670(19)
C77_8 C 0.3662(2) 0.28670(19) 0.40074(19)
C80_8 C 0.28670(19) 0.40074(19) 0.3662(2)
H29_8 H 0.3917 0.3825 0.2825
H32_8 H 0.3825 0.2825 0.3917
H35_8 H 0.2825 0.3917 0.3825
C83_8 C 0.42257(19) 0.3583(2) 0.27112(18)
C88_8 C 0.3583(2) 0.27112(18) 0.42257(19)
C91_8 C 0.27112(18) 0.42257(19) 0.3583(2)
H38_8 H 0.4287 0.3696 0.2571
H43_8 H 0.3696 0.2571 0.4287
H46_8 H 0.2571 0.4287 0.3696
C96_8 C 0.3953(2) 0.3128(2) 0.3400(2)
C99_8 C 0.3400(2) 0.3953(2) 0.3128(2)
C102_8 C 0.3128(2) 0.3400(2) 0.3953(2)
C107_8 C 0.37201(17) 0.33156(18) 0.34777(18)
C110_8 C 0.34777(18) 0.37201(17) 0.33156(18)
C113_8 C 0.33156(18) 0.34777(18) 0.37201(17)
C118_8 C 0.36934(17) 0.35343(17) 0.32905(17)
C121_8 C 0.35343(17) 0.32905(17) 0.36934(17)
C124_8 C 0.32905(17) 0.36934(17) 0.35343(17)
C129_8 C 0.4194(3) 0.3133(3) 0.3618(3)
C132_8 C 0.3618(3) 0.4194(3) 0.3133(3)
C135_8 C 0.3133(3) 0.3618(3) 0.4194(3)
H51_8 H 0.4347 0.3027 0.3548
H54_8 H 0.3548 0.4347 0.3027
H57_8 H 0.3027 0.3548 0.4347
H62_8 H 0.4131 0.3045 0.3785
H65_8 H 0.3785 0.4131 0.3045
H68_8 H 0.3045 0.3785 0.4131
C140_8 C 0.4299(3) 0.3424(4) 0.3691(3)
C143_8 C 0.3691(3) 0.4299(3) 0.3424(4)
C146_8 C 0.3424(4) 0.3691(3) 0.4299(3)
H73_8 H 0.4146 0.3540 0.3734
H76_8 H 0.3734 0.4146 0.3540
H79_8 H 0.3540 0.3734 0.4146
H84_8 H 0.4419 0.3413 0.3847
H87_8 H 0.3847 0.4419 0.3413
H90_8 H 0.3413 0.3847 0.4419
H95_8 H 0.4397 0.3499 0.3538
H98_8 H 0.3538 0.4397 0.3499
H101_8 H 0.3499 0.3538 0.4397
C151_8 C 0.3849(3) 0.2833(3) 0.3325(3)
C154_8 C 0.3325(3) 0.3849(3) 0.2833(3)
C157_8 C 0.2833(3) 0.3325(3) 0.3849(3)
H106_8 H 0.3786 0.2744 0.3492
H109_8 H 0.3492 0.3786 0.2744
H112_8 H 0.2744 0.3492 0.3786
H117_8 H 0.4002 0.2727 0.3256
H120_8 H 0.3256 0.4002 0.2727
H123_8 H 0.2727 0.3256 0.4002
C162_8 C 0.3618(3) 0.2820(3) 0.3115(3)
C165_8 C 0.3115(3) 0.3618(3) 0.2820(3)
C168_8 C 0.2820(3) 0.3115(3) 0.3618(3)
H128_8 H 0.3679 0.2899 0.2946
H131_8 H 0.2946 0.3679 0.2899
H134_8 H 0.2899 0.2946 0.3679
H139_8 H 0.3567 0.2632 0.3085
H142_8 H 0.3085 0.3567 0.2632
H145_8 H 0.2632 0.3085 0.3567
H150_8 H 0.3463 0.2920 0.3182
H153_8 H 0.3182 0.3463 0.2920
H156_8 H 0.2920 0.3182 0.3463
C1_20 C 0.7423(2) 0.54140(18) 0.6758(3)
C2_20 C 0.72410(18) 0.56436(17) 0.6661(2)
C3_20 C 0.7023(2) 0.57228(18) 0.6825(2)
H1_20 H 0.6987 0.5633 0.6989
C4_20 C 0.68565(17) 0.59435(18) 0.6738(2)
C5_20 C 0.69131(17) 0.60817(17) 0.64954(19)
C6_20 C 0.71330(19) 0.59926(19) 0.6338(2)
H2_20 H 0.7175 0.6083 0.6175
C7_20 C 0.72888(18) 0.57743(19) 0.6417(2)
H3_20 H 0.7429 0.5713 0.6304
C8_20 C 0.6600(2) 0.6047(2) 0.6872(2)
C9_20 C 0.65223(18) 0.62799(17) 0.66844(18)
C10_20 C 0.67095(17) 0.63066(17) 0.64657(17)
C11_20 C 0.6382(3) 0.5806(3) 0.6867(3)
H4_20 H 0.6452 0.5653 0.6973
H5_20 H 0.6215 0.5869 0.6955
C12_20 C 0.6309(3) 0.5701(3) 0.6576(4)
H6_20 H 0.6266 0.5854 0.6460
H7_20 H 0.6153 0.5581 0.6587
H8_20 H 0.6462 0.5603 0.6501
C13_20 C 0.6675(3) 0.6151(3) 0.7167(3)
H9_20 H 0.6508 0.6214 0.7256
H10_20 H 0.6744 0.5998 0.7273
C14_20 C 0.6885(3) 0.6382(3) 0.7180(3)
H11_20 H 0.7054 0.6321 0.7101
H12_20 H 0.6915 0.6433 0.7368
H13_20 H 0.6818 0.6537 0.7080
C18_20 C 0.54140(18) 0.6758(3) 0.7423(2)
C19_20 C 0.6758(3) 0.7423(2) 0.54140(18)
C29_20 C 0.56436(17) 0.6661(2) 0.72410(18)
C30_20 C 0.6661(2) 0.72410(18) 0.56436(17)
C40_20 C 0.57228(18) 0.6825(2) 0.7023(2)
C41_20 C 0.6825(2) 0.7023(2) 0.57228(18)
H17_20 H 0.5633 0.6989 0.6987
H18_20 H 0.6989 0.6987 0.5633
C48_20 C 0.59435(18) 0.6738(2) 0.68565(17)
C49_20 C 0.6738(2) 0.68565(17) 0.59435(18)
C59_20 C 0.60817(17) 0.64954(19) 0.69131(17)
C60_20 C 0.64954(19) 0.69131(17) 0.60817(17)
C70_20 C 0.59926(19) 0.6338(2) 0.71330(19)
C71_20 C 0.6338(2) 0.71330(19) 0.59926(19)
H25_20 H 0.6083 0.6175 0.7175
H26_20 H 0.6175 0.7175 0.6083
C84_20 C 0.57743(19) 0.6417(2) 0.72888(18)
C85_20 C 0.6417(2) 0.72888(18) 0.57743(19)
H39_20 H 0.5713 0.6304 0.7429
H40_20 H 0.6304 0.7429 0.5713
C92_20 C 0.6872(2) 0.6600(2) 0.6047(2)
C93_20 C 0.6047(2) 0.6872(2) 0.6600(2)
C103_20 C 0.66844(18) 0.65223(18) 0.62799(17)
C104_20 C 0.62799(17) 0.66844(18) 0.65223(18)
C114_20 C 0.63066(17) 0.64657(17) 0.67095(17)
C115_20 C 0.64657(17) 0.67095(17) 0.63066(17)
C125_20 C 0.6867(3) 0.6382(3) 0.5806(3)
C126_20 C 0.5806(3) 0.6867(3) 0.6382(3)
H47_20 H 0.6973 0.6452 0.5653
H48_20 H 0.5653 0.6973 0.6452
H58_20 H 0.6955 0.6215 0.5869
H59_20 H 0.5869 0.6955 0.6215
C136_20 C 0.6576(4) 0.6309(3) 0.5701(3)
C137_20 C 0.5701(3) 0.6576(4) 0.6309(3)
H69_20 H 0.6460 0.6266 0.5854
H70_20 H 0.5854 0.6460 0.6266
H80_20 H 0.6587 0.6153 0.5581
H81_20 H 0.5581 0.6587 0.6153
H91_20 H 0.6501 0.6462 0.5603
H92_20 H 0.5603 0.6501 0.6462
C147_20 C 0.7167(3) 0.6675(3) 0.6151(3)
C148_20 C 0.6151(3) 0.7167(3) 0.6675(3)
H102_20 H 0.7256 0.6508 0.6214
H103_20 H 0.6214 0.7256 0.6508
H113_20 H 0.7273 0.6744 0.5998
H114_20 H 0.5998 0.7273 0.6744
C158_20 C 0.7180(3) 0.6885(3) 0.6382(3)
C159_20 C 0.6382(3) 0.7180(3) 0.6885(3)
H124_20 H 0.7101 0.7054 0.6321
H125_20 H 0.6321 0.7101 0.7054
H135_20 H 0.7368 0.6915 0.6433
H136_20 H 0.6433 0.7368 0.6915
H146_20 H 0.7080 0.6818 0.6537
H147_20 H 0.6537 0.7080 0.6818
loop_
_geom_bond_atom_site_label_1
_geom_bond_atom_site_label_2
_geom_bond_site_symmetry_1
_geom_bond_site_symmetry_2
O3 Pb1 1_555 1_555
Pb3 O3 1_555 1_555
Pb4 O3 1_555 1_555
Pb12 O15 1_555 1_555
Pb13 O15 1_555 1_555
Pb14 O16 1_555 1_555
Pb15 O16 1_555 1_555
Pb16 O17 1_555 1_555
Pb17 O18 1_555 1_555
Pb18 O18 1_555 1_555
O5 Pb1 1_555 1_555
O6 Pb1 1_555 1_555
O8 Pb2 1_555 1_555
O9 Pb3 1_555 1_555
O15 C22 1_555 1_555
O16 C23 1_555 1_555
O17 Pb14 1_555 1_555
O18 C25 1_555 1_555
O19 Pb1 1_555 1_555
O21 Pb2 1_555 1_555
O23 Pb3 1_555 1_555
O24 Pb4 1_555 1_555
O30 Pb12 1_555 1_555
O31 Pb14 1_555 1_555
O32 Pb16 1_555 1_555
O33 Pb17 1_555 1_555
C16 O9 1_555 1_555
C17 O6 1_555 1_555
C22 O30 1_555 1_555
C23 O31 1_555 1_555
C24 O17 1_555 1_555
C25 O33 1_555 1_555
C27 C16 1_555 1_555
C28 C17 1_555 1_555
C33 C22 1_555 1_555
C34 C23 1_555 1_555
C35 C24 1_555 1_555
C36 C25 1_555 1_555
C38 C27 1_555 1_555
C39 C28 1_555 1_555
C44 C33 1_555 1_555
C45 C34 1_555 1_555
C46 C35 1_555 1_555
C47 C36 1_555 1_555
H15 C38 1_555 1_555
H16 C39 1_555 1_555
H21 C44 1_555 1_555
H22 C45 1_555 1_555
H23 C46 1_555 1_555
H24 C47 1_555 1_555
C51 C38 1_555 1_555
C52 C39 1_555 1_555
C55 C44 1_555 1_555
C56 C45 1_555 1_555
C57 C46 1_555 1_555
C58 C47 1_555 1_555
C62 C51 1_555 1_555
C63 C52 1_555 1_555
C65 C56 1_555 1_555
C66 C58 1_555 1_555
C68 C55 1_555 1_555
C69 C57 1_555 1_555
C73 C62 1_555 1_555
C74 C63 1_555 1_555
C76 C65 1_555 1_555
C77 C66 1_555 1_555
C79 C68 1_555 1_555
C80 C69 1_555 1_555
H28 C73 1_555 1_555
H29 C74 1_555 1_555
H31 C76 1_555 1_555
H32 C77 1_555 1_555
H34 C79 1_555 1_555
H35 C80 1_555 1_555
C82 C27 1_555 1_555
C83 C28 1_555 1_555
C87 C34 1_555 1_555
C88 C36 1_555 1_555
C90 C33 1_555 1_555
C91 C35 1_555 1_555
H37 C82 1_555 1_555
H38 C83 1_555 1_555
H42 C87 1_555 1_555
H43 C88 1_555 1_555
H45 C90 1_555 1_555
H46 C91 1_555 1_555
C95 C51 1_555 1_555
C96 C52 1_555 1_555
C98 C55 1_555 1_555
C99 C57 1_555 1_555
C101 C56 1_555 1_555
C102 C58 1_555 1_555
C106 C95 1_555 1_555
C107 C96 1_555 1_555
C109 C98 1_555 1_555
C110 C99 1_555 1_555
C112 C101 1_555 1_555
C113 C102 1_555 1_555
C117 C62 1_555 1_555
C118 C63 1_555 1_555
C120 C65 1_555 1_555
C121 C66 1_555 1_555
C123 C68 1_555 1_555
C124 C69 1_555 1_555
C128 C95 1_555 1_555
C129 C96 1_555 1_555
C131 C98 1_555 1_555
C132 C99 1_555 1_555
C134 C101 1_555 1_555
C135 C102 1_555 1_555
H50 C128 1_555 1_555
H51 C129 1_555 1_555
H53 C131 1_555 1_555
H54 C132 1_555 1_555
H56 C134 1_555 1_555
H57 C135 1_555 1_555
H61 C128 1_555 1_555
H62 C129 1_555 1_555
H64 C131 1_555 1_555
H65 C132 1_555 1_555
H67 C134 1_555 1_555
H68 C135 1_555 1_555
C139 C128 1_555 1_555
C140 C129 1_555 1_555
C142 C131 1_555 1_555
C143 C132 1_555 1_555
C145 C134 1_555 1_555
C146 C135 1_555 1_555
H72 C139 1_555 1_555
H73 C140 1_555 1_555
H75 C142 1_555 1_555
H76 C143 1_555 1_555
H78 C145 1_555 1_555
H79 C146 1_555 1_555
H83 C139 1_555 1_555
H84 C140 1_555 1_555
H86 C142 1_555 1_555
H87 C143 1_555 1_555
H89 C145 1_555 1_555
H90 C146 1_555 1_555
H94 C139 1_555 1_555
H95 C140 1_555 1_555
H97 C142 1_555 1_555
H98 C143 1_555 1_555
H100 C145 1_555 1_555
H101 C146 1_555 1_555
C150 C95 1_555 1_555
C151 C96 1_555 1_555
C153 C98 1_555 1_555
C154 C99 1_555 1_555
C156 C101 1_555 1_555
C157 C102 1_555 1_555
H105 C150 1_555 1_555
H106 C151 1_555 1_555
H108 C153 1_555 1_555
H109 C154 1_555 1_555
H111 C156 1_555 1_555
H112 C157 1_555 1_555
H116 C150 1_555 1_555
H117 C151 1_555 1_555
H119 C153 1_555 1_555
H120 C154 1_555 1_555
H122 C156 1_555 1_555
H123 C157 1_555 1_555
C161 C150 1_555 1_555
C162 C151 1_555 1_555
C164 C153 1_555 1_555
C165 C154 1_555 1_555
C167 C156 1_555 1_555
C168 C157 1_555 1_555
H127 C161 1_555 1_555
H128 C162 1_555 1_555
H130 C164 1_555 1_555
H131 C165 1_555 1_555
H133 C167 1_555 1_555
H134 C168 1_555 1_555
H138 C161 1_555 1_555
H139 C162 1_555 1_555
H141 C164 1_555 1_555
H142 C165 1_555 1_555
H144 C167 1_555 1_555
H145 C168 1_555 1_555
H149 C161 1_555 1_555
H150 C162 1_555 1_555
H152 C164 1_555 1_555
H153 C165 1_555 1_555
H155 C167 1_555 1_555
H156 C168 1_555 1_555
O3 Pb2 1_555 1_555
Pb2 O5 1_555 1_555
Pb3 O6 1_555 1_555
Pb4 O8 1_555 1_555
Pb4 O9 1_555 1_555
O23 C17 1_555 1_555
O24 C16 1_555 1_555
O32 C24 1_555 1_555
C73 C82 1_555 1_555
C74 C83 1_555 1_555
C76 C87 1_555 1_555
C77 C88 1_555 1_555
C79 C90 1_555 1_555
C80 C91 1_555 1_555
C106 C117 1_555 1_555
C106 C120 1_555 1_555
C107 C118 1_555 1_555
C107 C121 1_555 1_555
C109 C117 1_555 1_555
C109 C123 1_555 1_555
C110 C118 1_555 1_555
C110 C124 1_555 1_555
C112 C120 1_555 1_555
C112 C123 1_555 1_555
C113 C121 1_555 1_555
C113 C124 1_555 1_555
Pb1_2 O1 1_555 1_555
O1 C1 1_555 1_555
O2 Pb1_2 1_555 1_555
O3_2 Pb1_2 1_555 1_555
C1 O2 1_555 1_555
C2 C1 1_555 1_555
C3 C2 1_555 1_555
H1 C3 1_555 1_555
C4 C3 1_555 1_555
C5 C4 1_555 1_555
C6 C5 1_555 1_555
H2 C6 1_555 1_555
C7 C2 1_555 1_555
H3 C7 1_555 1_555
C8 C4 1_555 1_555
C9 C8 1_555 1_555
C10 C5 1_555 1_555
C11 C8 1_555 1_555
H4 C11 1_555 1_555
H5 C11 1_555 1_555
C12 C11 1_555 1_555
H6 C12 1_555 1_555
H7 C12 1_555 1_555
H8 C12 1_555 1_555
C13 C8 1_555 1_555
H9 C13 1_555 1_555
H10 C13 1_555 1_555
C14 C13 1_555 1_555
H11 C14 1_555 1_555
H12 C14 1_555 1_555
H13 C14 1_555 1_555
Pb2_2 O1 1_555 1_555
Pb3_2 O3_2 1_555 1_555
Pb4_2 O3_2 1_555 1_555
Pb5 O11 1_555 1_555
Pb6 O11 1_555 1_555
Pb7 O12 1_555 1_555
Pb8 O12 1_555 1_555
Pb9 O13 1_555 1_555
Pb10 O14 1_555 1_555
Pb11 O14 1_555 1_555
O4 Pb1_2 1_555 1_555
O7 Pb2_2 1_555 1_555
O10 Pb3_2 1_555 1_555
O11 C18 1_555 1_555
O12 C19 1_555 1_555
O13 Pb5 1_555 1_555
O14 C21 1_555 1_555
O20 Pb2_2 1_555 1_555
O22 Pb3_2 1_555 1_555
O25 Pb4_2 1_555 1_555
O26 Pb5 1_555 1_555
O27 Pb7 1_555 1_555
O28 Pb9 1_555 1_555
O29 Pb10 1_555 1_555
C15 O7 1_555 1_555
C18 O26 1_555 1_555
C19 O27 1_555 1_555
C20 O13 1_555 1_555
C21 O29 1_555 1_555
C26 C15 1_555 1_555
C29 C18 1_555 1_555
C30 C19 1_555 1_555
C31 C20 1_555 1_555
C32 C21 1_555 1_555
C37 C26 1_555 1_555
C40 C29 1_555 1_555
C41 C30 1_555 1_555
C42 C31 1_555 1_555
C43 C32 1_555 1_555
H14 C37 1_555 1_555
H17 C40 1_555 1_555
H18 C41 1_555 1_555
H19 C42 1_555 1_555
H20 C43 1_555 1_555
C48 C40 1_555 1_555
C49 C41 1_555 1_555
C50 C37 1_555 1_555
C53 C42 1_555 1_555
C54 C43 1_555 1_555
C59 C48 1_555 1_555
C60 C49 1_555 1_555
C61 C50 1_555 1_555
C64 C54 1_555 1_555
C67 C53 1_555 1_555
C70 C59 1_555 1_555
C71 C60 1_555 1_555
C72 C61 1_555 1_555
C75 C64 1_555 1_555
C78 C67 1_555 1_555
H25 C70 1_555 1_555
H26 C71 1_555 1_555
H27 C72 1_555 1_555
H30 C75 1_555 1_555
H33 C78 1_555 1_555
C81 C26 1_555 1_555
C84 C29 1_555 1_555
C85 C30 1_555 1_555
C86 C32 1_555 1_555
C89 C31 1_555 1_555
H36 C81 1_555 1_555
H39 C84 1_555 1_555
H40 C85 1_555 1_555
H41 C86 1_555 1_555
H44 C89 1_555 1_555
C92 C49 1_555 1_555
C93 C48 1_555 1_555
C94 C50 1_555 1_555
C97 C53 1_555 1_555
C100 C54 1_555 1_555
C103 C10 1_555 1_555
C104 C93 1_555 1_555
C105 C94 1_555 1_555
C108 C97 1_555 1_555
C111 C100 1_555 1_555
C114 C9 1_555 1_555
C115 C60 1_555 1_555
C116 C61 1_555 1_555
C119 C64 1_555 1_555
C122 C67 1_555 1_555
C125 C92 1_555 1_555
C126 C93 1_555 1_555
C127 C94 1_555 1_555
C130 C97 1_555 1_555
C133 C100 1_555 1_555
H47 C125 1_555 1_555
H48 C126 1_555 1_555
H49 C127 1_555 1_555
H52 C130 1_555 1_555
H55 C133 1_555 1_555
H58 C125 1_555 1_555
H59 C126 1_555 1_555
H60 C127 1_555 1_555
H63 C130 1_555 1_555
H66 C133 1_555 1_555
C136 C125 1_555 1_555
C137 C126 1_555 1_555
C138 C127 1_555 1_555
C141 C130 1_555 1_555
C144 C133 1_555 1_555
H69 C136 1_555 1_555
H70 C137 1_555 1_555
H71 C138 1_555 1_555
H74 C141 1_555 1_555
H77 C144 1_555 1_555
H80 C136 1_555 1_555
H81 C137 1_555 1_555
H82 C138 1_555 1_555
H85 C141 1_555 1_555
H88 C144 1_555 1_555
H91 C136 1_555 1_555
H92 C137 1_555 1_555
H93 C138 1_555 1_555
H96 C141 1_555 1_555
H99 C144 1_555 1_555
C147 C92 1_555 1_555
C148 C93 1_555 1_555
C149 C94 1_555 1_555
C152 C97 1_555 1_555
C155 C100 1_555 1_555
H102 C147 1_555 1_555
H103 C148 1_555 1_555
H104 C149 1_555 1_555
H107 C152 1_555 1_555
H110 C155 1_555 1_555
H113 C147 1_555 1_555
H114 C148 1_555 1_555
H115 C149 1_555 1_555
H118 C152 1_555 1_555
H121 C155 1_555 1_555
C158 C147 1_555 1_555
C159 C148 1_555 1_555
C160 C149 1_555 1_555
C163 C152 1_555 1_555
C166 C155 1_555 1_555
H124 C158 1_555 1_555
H125 C159 1_555 1_555
H126 C160 1_555 1_555
H129 C163 1_555 1_555
H132 C166 1_555 1_555
H135 C158 1_555 1_555
H136 C159 1_555 1_555
H137 C160 1_555 1_555
H140 C163 1_555 1_555
H143 C166 1_555 1_555
H146 C158 1_555 1_555
H147 C159 1_555 1_555
H148 C160 1_555 1_555
H151 C163 1_555 1_555
H154 C166 1_555 1_555
O3_2 Pb2_2 1_555 1_555
C6 C7 1_555 1_555
C9 C10 1_555 1_555
Pb3_2 O4 1_555 1_555
Pb4_2 O7 1_555 1_555
Pb4_2 O10 1_555 1_555
O20 C15 1_555 1_555
O28 C20 1_555 1_555
C59 C114 1_555 1_555
C70 C84 1_555 1_555
C71 C85 1_555 1_555
C72 C81 1_555 1_555
C75 C86 1_555 1_555
C78 C89 1_555 1_555
C92 C103 1_555 1_555
C103 C115 1_555 1_555
C104 C114 1_555 1_555
C104 C115 1_555 1_555
C105 C116 1_555 1_555
C105 C119 1_555 1_555
C108 C116 1_555 1_555
C108 C122 1_555 1_555
C111 C119 1_555 1_555
C111 C122 1_555 1_555
O3_3 Pb18 1_555 1_555
Pb17 O3_3 1_555 1_555
Pb4_3 O3_3 1_555 1_555
Pb12_2 O15_2 1_555 1_555
Pb13_2 O15_2 1_555 1_555
O5_2 Pb18 1_555 1_555
O8_2 Pb2_3 1_555 1_555
O9_2 Pb17 1_555 1_555
O15_2 C22_2 1_555 1_555
O5 C23_2 1_555 1_555
O19_2 Pb18 1_555 1_555
O21_2 Pb2_3 1_555 1_555
O24_2 Pb4_3 1_555 1_555
O30_2 Pb12_2 1_555 1_555
C16_2 O9_2 1_555 1_555
C22_2 O30_2 1_555 1_555
C23_2 O19 1_555 1_555
C27_2 C16_2 1_555 1_555
C33_2 C22_2 1_555 1_555
C34_2 C23_2 1_555 1_555
C38_2 C27_2 1_555 1_555
C44_2 C33_2 1_555 1_555
C45_2 C34_2 1_555 1_555
H15_2 C38_2 1_555 1_555
H21_2 C44_2 1_555 1_555
H22_2 C45_2 1_555 1_555
C51_2 C38_2 1_555 1_555
C55_2 C44_2 1_555 1_555
C56_2 C45_2 1_555 1_555
C62_2 C51_2 1_555 1_555
C65_2 C56_2 1_555 1_555
C68_2 C55_2 1_555 1_555
C73_2 C62_2 1_555 1_555
C76_2 C65_2 1_555 1_555
C79_2 C68_2 1_555 1_555
H28_2 C73_2 1_555 1_555
H31_2 C76_2 1_555 1_555
H34_2 C79_2 1_555 1_555
C82_2 C27_2 1_555 1_555
C87_2 C34_2 1_555 1_555
C90_2 C33_2 1_555 1_555
H37_2 C82_2 1_555 1_555
H42_2 C87_2 1_555 1_555
H45_2 C90_2 1_555 1_555
C95_2 C51_2 1_555 1_555
C98_2 C55_2 1_555 1_555
C101_2 C56_2 1_555 1_555
C106_2 C95_2 1_555 1_555
C109_2 C98_2 1_555 1_555
C112_2 C101_2 1_555 1_555
C117_2 C62_2 1_555 1_555
C120_2 C65_2 1_555 1_555
C123_2 C68_2 1_555 1_555
C128_2 C95_2 1_555 1_555
C131_2 C98_2 1_555 1_555
C134_2 C101_2 1_555 1_555
H50_2 C128_2 1_555 1_555
H53_2 C131_2 1_555 1_555
H56_2 C134_2 1_555 1_555
H61_2 C128_2 1_555 1_555
H64_2 C131_2 1_555 1_555
H67_2 C134_2 1_555 1_555
C139_2 C128_2 1_555 1_555
C142_2 C131_2 1_555 1_555
C145_2 C134_2 1_555 1_555
H72_2 C139_2 1_555 1_555
H75_2 C142_2 1_555 1_555
H78_2 C145_2 1_555 1_555
H83_2 C139_2 1_555 1_555
H86_2 C142_2 1_555 1_555
H89_2 C145_2 1_555 1_555
H94_2 C139_2 1_555 1_555
H97_2 C142_2 1_555 1_555
H100_2 C145_2 1_555 1_555
C150_2 C95_2 1_555 1_555
C153_2 C98_2 1_555 1_555
C156_2 C101_2 1_555 1_555
H105_2 C150_2 1_555 1_555
H108_2 C153_2 1_555 1_555
H111_2 C156_2 1_555 1_555
H116_2 C150_2 1_555 1_555
H119_2 C153_2 1_555 1_555
H122_2 C156_2 1_555 1_555
C161_2 C150_2 1_555 1_555
C164_2 C153_2 1_555 1_555
C167_2 C156_2 1_555 1_555
H127_2 C161_2 1_555 1_555
H130_2 C164_2 1_555 1_555
H133_2 C167_2 1_555 1_555
H138_2 C161_2 1_555 1_555
H141_2 C164_2 1_555 1_555
H144_2 C167_2 1_555 1_555
H149_2 C161_2 1_555 1_555
H152_2 C164_2 1_555 1_555
H155_2 C167_2 1_555 1_555
O3_3 Pb2_3 1_555 1_555
Pb2_3 O5_2 1_555 1_555
Pb4_3 O8_2 1_555 1_555
Pb4_3 O9_2 1_555 1_555
O24_2 C16_2 1_555 1_555
C73_2 C82_2 1_555 1_555
C76_2 C87_2 1_555 1_555
C79_2 C90_2 1_555 1_555
C106_2 C117_2 1_555 1_555
C106_2 C120_2 1_555 1_555
C109_2 C117_2 1_555 1_555
C109_2 C123_2 1_555 1_555
C112_2 C120_2 1_555 1_555
C112_2 C123_2 1_555 1_555
Pb18_2 O1_2 1_555 1_555
O1_2 C1_2 1_555 1_555
O2_2 Pb18_2 1_555 1_555
O3_4 Pb18_2 1_555 1_555
C1_2 O2_2 1_555 1_555
C2_2 C1_2 1_555 1_555
C3_2 C2_2 1_555 1_555
H1_2 C3_2 1_555 1_555
C4_2 C3_2 1_555 1_555
C5_2 C4_2 1_555 1_555
C6_2 C5_2 1_555 1_555
H2_2 C6_2 1_555 1_555
C7_2 C2_2 1_555 1_555
H3_2 C7_2 1_555 1_555
C8_2 C4_2 1_555 1_555
C9_2 C8_2 1_555 1_555
C10_2 C5_2 1_555 1_555
C11_2 C8_2 1_555 1_555
H4_2 C11_2 1_555 1_555
H5_2 C11_2 1_555 1_555
C12_2 C11_2 1_555 1_555
H6_2 C12_2 1_555 1_555
H7_2 C12_2 1_555 1_555
H8_2 C12_2 1_555 1_555
C13_2 C8_2 1_555 1_555
H9_2 C13_2 1_555 1_555
H10_2 C13_2 1_555 1_555
C14_2 C13_2 1_555 1_555
H11_2 C14_2 1_555 1_555
H12_2 C14_2 1_555 1_555
H13_2 C14_2 1_555 1_555
Pb2_4 O1_2 1_555 1_555
Pb17_2 O3_4 1_555 1_555
Pb4_4 O3_4 1_555 1_555
Pb5_2 O11_2 1_555 1_555
Pb6_2 O11_2 1_555 1_555
Pb7_3 O12_2 1_555 1_555
Pb8_3 O12_2 1_555 1_555
Pb9_2 O13_2 1_555 1_555
Pb10_2 O14_2 1_555 1_555
Pb11_2 O14_2 1_555 1_555
O4_2 Pb18_2 1_555 1_555
O7_2 Pb2_4 1_555 1_555
O10_2 Pb17_2 1_555 1_555
O11_2 C18_2 1_555 1_555
O12_2 C19_2 1_555 1_555
O13_2 Pb5_2 1_555 1_555
O14_2 C21_2 1_555 1_555
O20_2 Pb2_4 1_555 1_555
O22_2 Pb17_2 1_555 1_555
O25_2 Pb4_4 1_555 1_555
O26_2 Pb5_2 1_555 1_555
O27_2 Pb7_3 1_555 1_555
O28_2 Pb9_2 1_555 1_555
O29_2 Pb10_2 1_555 1_555
C15_2 O7_2 1_555 1_555
C18_2 O26_2 1_555 1_555
C19_2 O27_2 1_555 1_555
C20_2 O13_2 1_555 1_555
C21_2 O29_2 1_555 1_555
C26_2 C15_2 1_555 1_555
C29_2 C18_2 1_555 1_555
C30_2 C19_2 1_555 1_555
C31_2 C20_2 1_555 1_555
C32_2 C21_2 1_555 1_555
C37_2 C26_2 1_555 1_555
C40_2 C29_2 1_555 1_555
C41_2 C30_2 1_555 1_555
C42_2 C31_2 1_555 1_555
C43_2 C32_2 1_555 1_555
H14_2 C37_2 1_555 1_555
H17_2 C40_2 1_555 1_555
H18_2 C41_2 1_555 1_555
H19_2 C42_2 1_555 1_555
H20_2 C43_2 1_555 1_555
C48_2 C40_2 1_555 1_555
C49_2 C41_2 1_555 1_555
C50_2 C37_2 1_555 1_555
C53_2 C42_2 1_555 1_555
C54_2 C43_2 1_555 1_555
C59_2 C48_2 1_555 1_555
C60_2 C49_2 1_555 1_555
C61_2 C50_2 1_555 1_555
C64_2 C54_2 1_555 1_555
C67_2 C53_2 1_555 1_555
C70_2 C59_2 1_555 1_555
C71_2 C60_2 1_555 1_555
C72_2 C61_2 1_555 1_555
C75_2 C64_2 1_555 1_555
C78_2 C67_2 1_555 1_555
H25_2 C70_2 1_555 1_555
H26_2 C71_2 1_555 1_555
H27_2 C72_2 1_555 1_555
H30_2 C75_2 1_555 1_555
H33_2 C78_2 1_555 1_555
C81_2 C26_2 1_555 1_555
C84_2 C29_2 1_555 1_555
C85_2 C30_2 1_555 1_555
C86_2 C32_2 1_555 1_555
C89_2 C31_2 1_555 1_555
H36_2 C81_2 1_555 1_555
H39_2 C84_2 1_555 1_555
H40_2 C85_2 1_555 1_555
H41_2 C86_2 1_555 1_555
H44_2 C89_2 1_555 1_555
C92_2 C49_2 1_555 1_555
C93_2 C48_2 1_555 1_555
C94_2 C50_2 1_555 1_555
C97_2 C53_2 1_555 1_555
C100_2 C54_2 1_555 1_555
C103_2 C10_2 1_555 1_555
C104_2 C93_2 1_555 1_555
C105_2 C94_2 1_555 1_555
C108_2 C97_2 1_555 1_555
C111_2 C100_2 1_555 1_555
C114_2 C9_2 1_555 1_555
C115_2 C60_2 1_555 1_555
C116_2 C61_2 1_555 1_555
C119_2 C64_2 1_555 1_555
C122_2 C67_2 1_555 1_555
C125_2 C92_2 1_555 1_555
C126_2 C93_2 1_555 1_555
C127_2 C94_2 1_555 1_555
C130_2 C97_2 1_555 1_555
C133_2 C100_2 1_555 1_555
H47_2 C125_2 1_555 1_555
H48_2 C126_2 1_555 1_555
H49_2 C127_2 1_555 1_555
H52_2 C130_2 1_555 1_555
H55_2 C133_2 1_555 1_555
H58_2 C125_2 1_555 1_555
H59_2 C126_2 1_555 1_555
H60_2 C127_2 1_555 1_555
H63_2 C130_2 1_555 1_555
H66_2 C133_2 1_555 1_555
C136_2 C125_2 1_555 1_555
C137_2 C126_2 1_555 1_555
C138_2 C127_2 1_555 1_555
C141_2 C130_2 1_555 1_555
C144_2 C133_2 1_555 1_555
H69_2 C136_2 1_555 1_555
H70_2 C137_2 1_555 1_555
H71_2 C138_2 1_555 1_555
H74_2 C141_2 1_555 1_555
H77_2 C144_2 1_555 1_555
H80_2 C136_2 1_555 1_555
H81_2 C137_2 1_555 1_555
H82_2 C138_2 1_555 1_555
H85_2 C141_2 1_555 1_555
H88_2 C144_2 1_555 1_555
H91_2 C136_2 1_555 1_555
H92_2 C137_2 1_555 1_555
H93_2 C138_2 1_555 1_555
H96_2 C141_2 1_555 1_555
H99_2 C144_2 1_555 1_555
C147_2 C92_2 1_555 1_555
C148_2 C93_2 1_555 1_555
C149_2 C94_2 1_555 1_555
C152_2 C97_2 1_555 1_555
C155_2 C100_2 1_555 1_555
H102_2 C147_2 1_555 1_555
H103_2 C148_2 1_555 1_555
H104_2 C149_2 1_555 1_555
H107_2 C152_2 1_555 1_555
H110_2 C155_2 1_555 1_555
H113_2 C147_2 1_555 1_555
H114_2 C148_2 1_555 1_555
H115_2 C149_2 1_555 1_555
H118_2 C152_2 1_555 1_555
H121_2 C155_2 1_555 1_555
C158_2 C147_2 1_555 1_555
C159_2 C148_2 1_555 1_555
C160_2 C149_2 1_555 1_555
C163_2 C152_2 1_555 1_555
C166_2 C155_2 1_555 1_555
H124_2 C158_2 1_555 1_555
H125_2 C159_2 1_555 1_555
H126_2 C160_2 1_555 1_555
H129_2 C163_2 1_555 1_555
H132_2 C166_2 1_555 1_555
H135_2 C158_2 1_555 1_555
H136_2 C159_2 1_555 1_555
H137_2 C160_2 1_555 1_555
H140_2 C163_2 1_555 1_555
H143_2 C166_2 1_555 1_555
H146_2 C158_2 1_555 1_555
H147_2 C159_2 1_555 1_555
H148_2 C160_2 1_555 1_555
H151_2 C163_2 1_555 1_555
H154_2 C166_2 1_555 1_555
O3_4 Pb2_4 1_555 1_555
C6_2 C7_2 1_555 1_555
C9_2 C10_2 1_555 1_555
Pb17_2 O4_2 1_555 1_555
Pb4_4 O7_2 1_555 1_555
Pb4_4 O10_2 1_555 1_555
O20_2 C15_2 1_555 1_555
O28_2 C20_2 1_555 1_555
C59_2 C114_2 1_555 1_555
C70_2 C84_2 1_555 1_555
C71_2 C85_2 1_555 1_555
C72_2 C81_2 1_555 1_555
C75_2 C86_2 1_555 1_555
C78_2 C89_2 1_555 1_555
C92_2 C103_2 1_555 1_555
C103_2 C115_2 1_555 1_555
C104_2 C114_2 1_555 1_555
C104_2 C115_2 1_555 1_555
C105_2 C116_2 1_555 1_555
C105_2 C119_2 1_555 1_555
C108_2 C116_2 1_555 1_555
C108_2 C122_2 1_555 1_555
C111_2 C119_2 1_555 1_555
C111_2 C122_2 1_555 1_555
O3_5 Pb14 1_555 1_555
Pb16 O3_5 1_555 1_555
Pb4_5 O3_5 1_555 1_555
Pb12_3 O15_3 1_555 1_555
Pb13_3 O15_3 1_555 1_555
O8_3 Pb15 1_555 1_555
O9_3 Pb16 1_555 1_555
O15_3 C22_3 1_555 1_555
O5_2 C23_3 1_555 1_555
O21_3 Pb15 1_555 1_555
O24_3 Pb4_5 1_555 1_555
O30_3 Pb12_3 1_555 1_555
C16_3 O9_3 1_555 1_555
C22_3 O30_3 1_555 1_555
C23_3 O19_2 1_555 1_555
C27_3 C16_3 1_555 1_555
C33_3 C22_3 1_555 1_555
C34_3 C23_3 1_555 1_555
C38_3 C27_3 1_555 1_555
C44_3 C33_3 1_555 1_555
C45_3 C34_3 1_555 1_555
H15_3 C38_3 1_555 1_555
H21_3 C44_3 1_555 1_555
H22_3 C45_3 1_555 1_555
C51_3 C38_3 1_555 1_555
C55_3 C44_3 1_555 1_555
C56_3 C45_3 1_555 1_555
C62_3 C51_3 1_555 1_555
C65_3 C56_3 1_555 1_555
C68_3 C55_3 1_555 1_555
C73_3 C62_3 1_555 1_555
C76_3 C65_3 1_555 1_555
C79_3 C68_3 1_555 1_555
H28_3 C73_3 1_555 1_555
H31_3 C76_3 1_555 1_555
H34_3 C79_3 1_555 1_555
C82_3 C27_3 1_555 1_555
C87_3 C34_3 1_555 1_555
C90_3 C33_3 1_555 1_555
H37_3 C82_3 1_555 1_555
H42_3 C87_3 1_555 1_555
H45_3 C90_3 1_555 1_555
C95_3 C51_3 1_555 1_555
C98_3 C55_3 1_555 1_555
C101_3 C56_3 1_555 1_555
C106_3 C95_3 1_555 1_555
C109_3 C98_3 1_555 1_555
C112_3 C101_3 1_555 1_555
C117_3 C62_3 1_555 1_555
C120_3 C65_3 1_555 1_555
C123_3 C68_3 1_555 1_555
C128_3 C95_3 1_555 1_555
C131_3 C98_3 1_555 1_555
C134_3 C101_3 1_555 1_555
H50_3 C128_3 1_555 1_555
H53_3 C131_3 1_555 1_555
H56_3 C134_3 1_555 1_555
H61_3 C128_3 1_555 1_555
H64_3 C131_3 1_555 1_555
H67_3 C134_3 1_555 1_555
C139_3 C128_3 1_555 1_555
C142_3 C131_3 1_555 1_555
C145_3 C134_3 1_555 1_555
H72_3 C139_3 1_555 1_555
H75_3 C142_3 1_555 1_555
H78_3 C145_3 1_555 1_555
H83_3 C139_3 1_555 1_555
H86_3 C142_3 1_555 1_555
H89_3 C145_3 1_555 1_555
H94_3 C139_3 1_555 1_555
H97_3 C142_3 1_555 1_555
H100_3 C145_3 1_555 1_555
C150_3 C95_3 1_555 1_555
C153_3 C98_3 1_555 1_555
C156_3 C101_3 1_555 1_555
H105_3 C150_3 1_555 1_555
H108_3 C153_3 1_555 1_555
H111_3 C156_3 1_555 1_555
H116_3 C150_3 1_555 1_555
H119_3 C153_3 1_555 1_555
H122_3 C156_3 1_555 1_555
C161_3 C150_3 1_555 1_555
C164_3 C153_3 1_555 1_555
C167_3 C156_3 1_555 1_555
H127_3 C161_3 1_555 1_555
H130_3 C164_3 1_555 1_555
H133_3 C167_3 1_555 1_555
H138_3 C161_3 1_555 1_555
H141_3 C164_3 1_555 1_555
H144_3 C167_3 1_555 1_555
H149_3 C161_3 1_555 1_555
H152_3 C164_3 1_555 1_555
H155_3 C167_3 1_555 1_555
O3_5 Pb15 1_555 1_555
Pb4_5 O8_3 1_555 1_555
Pb4_5 O9_3 1_555 1_555
O24_3 C16_3 1_555 1_555
C73_3 C82_3 1_555 1_555
C76_3 C87_3 1_555 1_555
C79_3 C90_3 1_555 1_555
C106_3 C117_3 1_555 1_555
C106_3 C120_3 1_555 1_555
C109_3 C117_3 1_555 1_555
C109_3 C123_3 1_555 1_555
C112_3 C120_3 1_555 1_555
C112_3 C123_3 1_555 1_555
Pb14_2 O1_3 1_555 1_555
O1_3 C1_3 1_555 1_555
O2_3 Pb14_2 1_555 1_555
O3_6 Pb14_2 1_555 1_555
C1_3 O2_3 1_555 1_555
C2_3 C1_3 1_555 1_555
C3_3 C2_3 1_555 1_555
H1_3 C3_3 1_555 1_555
C4_3 C3_3 1_555 1_555
C5_3 C4_3 1_555 1_555
C6_3 C5_3 1_555 1_555
H2_3 C6_3 1_555 1_555
C7_3 C2_3 1_555 1_555
H3_3 C7_3 1_555 1_555
C8_3 C4_3 1_555 1_555
C9_3 C8_3 1_555 1_555
C10_3 C5_3 1_555 1_555
C11_3 C8_3 1_555 1_555
H4_3 C11_3 1_555 1_555
H5_3 C11_3 1_555 1_555
C12_3 C11_3 1_555 1_555
H6_3 C12_3 1_555 1_555
H7_3 C12_3 1_555 1_555
H8_3 C12_3 1_555 1_555
C13_3 C8_3 1_555 1_555
H9_3 C13_3 1_555 1_555
H10_3 C13_3 1_555 1_555
C14_3 C13_3 1_555 1_555
H11_3 C14_3 1_555 1_555
H12_3 C14_3 1_555 1_555
H13_3 C14_3 1_555 1_555
Pb15_2 O1_3 1_555 1_555
Pb16_2 O3_6 1_555 1_555
Pb4_6 O3_6 1_555 1_555
Pb5_3 O11_3 1_555 1_555
Pb6_3 O11_3 1_555 1_555
Pb7_5 O12_3 1_555 1_555
Pb8_5 O12_3 1_555 1_555
Pb9_3 O13_3 1_555 1_555
Pb10_3 O14_3 1_555 1_555
Pb11_3 O14_3 1_555 1_555
O4_3 Pb14_2 1_555 1_555
O7_3 Pb15_2 1_555 1_555
O10_3 Pb16_2 1_555 1_555
O11_3 C18_3 1_555 1_555
O12_3 C19_3 1_555 1_555
O13_3 Pb5_3 1_555 1_555
O14_3 C21_3 1_555 1_555
O20_3 Pb15_2 1_555 1_555
O22_3 Pb16_2 1_555 1_555
O25_3 Pb4_6 1_555 1_555
O26_3 Pb5_3 1_555 1_555
O27_3 Pb7_5 1_555 1_555
O28_3 Pb9_3 1_555 1_555
O29_3 Pb10_3 1_555 1_555
C15_3 O7_3 1_555 1_555
C18_3 O26_3 1_555 1_555
C19_3 O27_3 1_555 1_555
C20_3 O13_3 1_555 1_555
C21_3 O29_3 1_555 1_555
C26_3 C15_3 1_555 1_555
C29_3 C18_3 1_555 1_555
C30_3 C19_3 1_555 1_555
C31_3 C20_3 1_555 1_555
C32_3 C21_3 1_555 1_555
C37_3 C26_3 1_555 1_555
C40_3 C29_3 1_555 1_555
C41_3 C30_3 1_555 1_555
C42_3 C31_3 1_555 1_555
C43_3 C32_3 1_555 1_555
H14_3 C37_3 1_555 1_555
H17_3 C40_3 1_555 1_555
H18_3 C41_3 1_555 1_555
H19_3 C42_3 1_555 1_555
H20_3 C43_3 1_555 1_555
C48_3 C40_3 1_555 1_555
C49_3 C41_3 1_555 1_555
C50_3 C37_3 1_555 1_555
C53_3 C42_3 1_555 1_555
C54_3 C43_3 1_555 1_555
C59_3 C48_3 1_555 1_555
C60_3 C49_3 1_555 1_555
C61_3 C50_3 1_555 1_555
C64_3 C54_3 1_555 1_555
C67_3 C53_3 1_555 1_555
C70_3 C59_3 1_555 1_555
C71_3 C60_3 1_555 1_555
C72_3 C61_3 1_555 1_555
C75_3 C64_3 1_555 1_555
C78_3 C67_3 1_555 1_555
H25_3 C70_3 1_555 1_555
H26_3 C71_3 1_555 1_555
H27_3 C72_3 1_555 1_555
H30_3 C75_3 1_555 1_555
H33_3 C78_3 1_555 1_555
C81_3 C26_3 1_555 1_555
C84_3 C29_3 1_555 1_555
C85_3 C30_3 1_555 1_555
C86_3 C32_3 1_555 1_555
C89_3 C31_3 1_555 1_555
H36_3 C81_3 1_555 1_555
H39_3 C84_3 1_555 1_555
H40_3 C85_3 1_555 1_555
H41_3 C86_3 1_555 1_555
H44_3 C89_3 1_555 1_555
C92_3 C49_3 1_555 1_555
C93_3 C48_3 1_555 1_555
C94_3 C50_3 1_555 1_555
C97_3 C53_3 1_555 1_555
C100_3 C54_3 1_555 1_555
C103_3 C10_3 1_555 1_555
C104_3 C93_3 1_555 1_555
C105_3 C94_3 1_555 1_555
C108_3 C97_3 1_555 1_555
C111_3 C100_3 1_555 1_555
C114_3 C9_3 1_555 1_555
C115_3 C60_3 1_555 1_555
C116_3 C61_3 1_555 1_555
C119_3 C64_3 1_555 1_555
C122_3 C67_3 1_555 1_555
C125_3 C92_3 1_555 1_555
C126_3 C93_3 1_555 1_555
C127_3 C94_3 1_555 1_555
C130_3 C97_3 1_555 1_555
C133_3 C100_3 1_555 1_555
H47_3 C125_3 1_555 1_555
H48_3 C126_3 1_555 1_555
H49_3 C127_3 1_555 1_555
H52_3 C130_3 1_555 1_555
H55_3 C133_3 1_555 1_555
H58_3 C125_3 1_555 1_555
H59_3 C126_3 1_555 1_555
H60_3 C127_3 1_555 1_555
H63_3 C130_3 1_555 1_555
H66_3 C133_3 1_555 1_555
C136_3 C125_3 1_555 1_555
C137_3 C126_3 1_555 1_555
C138_3 C127_3 1_555 1_555
C141_3 C130_3 1_555 1_555
C144_3 C133_3 1_555 1_555
H69_3 C136_3 1_555 1_555
H70_3 C137_3 1_555 1_555
H71_3 C138_3 1_555 1_555
H74_3 C141_3 1_555 1_555
H77_3 C144_3 1_555 1_555
H80_3 C136_3 1_555 1_555
H81_3 C137_3 1_555 1_555
H82_3 C138_3 1_555 1_555
H85_3 C141_3 1_555 1_555
H88_3 C144_3 1_555 1_555
H91_3 C136_3 1_555 1_555
H92_3 C137_3 1_555 1_555
H93_3 C138_3 1_555 1_555
H96_3 C141_3 1_555 1_555
H99_3 C144_3 1_555 1_555
C147_3 C92_3 1_555 1_555
C148_3 C93_3 1_555 1_555
C149_3 C94_3 1_555 1_555
C152_3 C97_3 1_555 1_555
C155_3 C100_3 1_555 1_555
H102_3 C147_3 1_555 1_555
H103_3 C148_3 1_555 1_555
H104_3 C149_3 1_555 1_555
H107_3 C152_3 1_555 1_555
H110_3 C155_3 1_555 1_555
H113_3 C147_3 1_555 1_555
H114_3 C148_3 1_555 1_555
H115_3 C149_3 1_555 1_555
H118_3 C152_3 1_555 1_555
H121_3 C155_3 1_555 1_555
C158_3 C147_3 1_555 1_555
C159_3 C148_3 1_555 1_555
C160_3 C149_3 1_555 1_555
C163_3 C152_3 1_555 1_555
C166_3 C155_3 1_555 1_555
H124_3 C158_3 1_555 1_555
H125_3 C159_3 1_555 1_555
H126_3 C160_3 1_555 1_555
H129_3 C163_3 1_555 1_555
H132_3 C166_3 1_555 1_555
H135_3 C158_3 1_555 1_555
H136_3 C159_3 1_555 1_555
H137_3 C160_3 1_555 1_555
H140_3 C163_3 1_555 1_555
H143_3 C166_3 1_555 1_555
H146_3 C158_3 1_555 1_555
H147_3 C159_3 1_555 1_555
H148_3 C160_3 1_555 1_555
H151_3 C163_3 1_555 1_555
H154_3 C166_3 1_555 1_555
O3_6 Pb15_2 1_555 1_555
C6_3 C7_3 1_555 1_555
C9_3 C10_3 1_555 1_555
Pb16_2 O4_3 1_555 1_555
Pb4_6 O7_3 1_555 1_555
Pb4_6 O10_3 1_555 1_555
O20_3 C15_3 1_555 1_555
O28_3 C20_3 1_555 1_555
C59_3 C114_3 1_555 1_555
C70_3 C84_3 1_555 1_555
C71_3 C85_3 1_555 1_555
C72_3 C81_3 1_555 1_555
C75_3 C86_3 1_555 1_555
C78_3 C89_3 1_555 1_555
C92_3 C103_3 1_555 1_555
C103_3 C115_3 1_555 1_555
C104_3 C114_3 1_555 1_555
C104_3 C115_3 1_555 1_555
C105_3 C116_3 1_555 1_555
C105_3 C119_3 1_555 1_555
C108_3 C116_3 1_555 1_555
C108_3 C122_3 1_555 1_555
C111_3 C119_3 1_555 1_555
C111_3 C122_3 1_555 1_555
O3_7 Pb9 1_555 1_555
Pb3_3 O3_7 1_555 1_555
Pb6 O3_7 1_555 1_555
Pb12_4 O15_4 1_555 1_555
Pb13_4 O15_4 1_555 1_555
Pb14_3 O16_2 1_555 1_555
Pb15_3 O16_2 1_555 1_555
Pb11_3 O17_2 1_555 1_555
Pb17_3 O18_2 1_555 1_555
Pb18_3 O18_2 1_555 1_555
O4_4 Pb9 1_555 1_555
O5_3 Pb9 1_555 1_555
O6_2 Pb9 1_555 1_555
O8_4 Pb5 1_555 1_555
O9_4 Pb3_3 1_555 1_555
O10_4 Pb3_3 1_555 1_555
O15_4 C22_4 1_555 1_555
O16_2 C23_4 1_555 1_555
O17_2 Pb14_3 1_555 1_555
O18_2 C25_2 1_555 1_555
O19_3 Pb9 1_555 1_555
O21_4 Pb5 1_555 1_555
O22_4 Pb3_3 1_555 1_555
O23_2 Pb3_3 1_555 1_555
O24_4 Pb6 1_555 1_555
O25_4 Pb6 1_555 1_555
O30_4 Pb12_4 1_555 1_555
O31_2 Pb14_3 1_555 1_555
O32_2 Pb11_3 1_555 1_555
O33_2 Pb17_3 1_555 1_555
C16_4 O9_4 1_555 1_555
C17_2 O6_2 1_555 1_555
C22_4 O30_4 1_555 1_555
C23_4 O31_2 1_555 1_555
C24_2 O17_2 1_555 1_555
C25_2 O33_2 1_555 1_555
C27_4 C16_4 1_555 1_555
C28_2 C17_2 1_555 1_555
C33_4 C22_4 1_555 1_555
C34_4 C23_4 1_555 1_555
C35_2 C24_2 1_555 1_555
C36_2 C25_2 1_555 1_555
C38_4 C27_4 1_555 1_555
C39_2 C28_2 1_555 1_555
C44_4 C33_4 1_555 1_555
C45_4 C34_4 1_555 1_555
C46_2 C35_2 1_555 1_555
C47_2 C36_2 1_555 1_555
H15_4 C38_4 1_555 1_555
H16_2 C39_2 1_555 1_555
H21_4 C44_4 1_555 1_555
H22_4 C45_4 1_555 1_555
H23_2 C46_2 1_555 1_555
H24_2 C47_2 1_555 1_555
C51_4 C38_4 1_555 1_555
C52_2 C39_2 1_555 1_555
C55_4 C44_4 1_555 1_555
C56_4 C45_4 1_555 1_555
C57_2 C46_2 1_555 1_555
C58_2 C47_2 1_555 1_555
C62_4 C51_4 1_555 1_555
C63_2 C52_2 1_555 1_555
C65_4 C56_4 1_555 1_555
C66_2 C58_2 1_555 1_555
C68_4 C55_4 1_555 1_555
C69_2 C57_2 1_555 1_555
C73_4 C62_4 1_555 1_555
C74_2 C63_2 1_555 1_555
C76_4 C65_4 1_555 1_555
C77_2 C66_2 1_555 1_555
C79_4 C68_4 1_555 1_555
C80_2 C69_2 1_555 1_555
H28_4 C73_4 1_555 1_555
H29_2 C74_2 1_555 1_555
H31_4 C76_4 1_555 1_555
H32_2 C77_2 1_555 1_555
H34_4 C79_4 1_555 1_555
H35_2 C80_2 1_555 1_555
C82_4 C27_4 1_555 1_555
C83_2 C28_2 1_555 1_555
C87_4 C34_4 1_555 1_555
C88_2 C36_2 1_555 1_555
C90_4 C33_4 1_555 1_555
C91_2 C35_2 1_555 1_555
H37_4 C82_4 1_555 1_555
H38_2 C83_2 1_555 1_555
H42_4 C87_4 1_555 1_555
H43_2 C88_2 1_555 1_555
H45_4 C90_4 1_555 1_555
H46_2 C91_2 1_555 1_555
C95_4 C51_4 1_555 1_555
C96_2 C52_2 1_555 1_555
C98_4 C55_4 1_555 1_555
C99_2 C57_2 1_555 1_555
C101_4 C56_4 1_555 1_555
C102_2 C58_2 1_555 1_555
C106_4 C95_4 1_555 1_555
C107_2 C96_2 1_555 1_555
C109_4 C98_4 1_555 1_555
C110_2 C99_2 1_555 1_555
C112_4 C101_4 1_555 1_555
C113_2 C102_2 1_555 1_555
C117_4 C62_4 1_555 1_555
C118_2 C63_2 1_555 1_555
C120_4 C65_4 1_555 1_555
C121_2 C66_2 1_555 1_555
C123_4 C68_4 1_555 1_555
C124_2 C69_2 1_555 1_555
C128_4 C95_4 1_555 1_555
C129_2 C96_2 1_555 1_555
C131_4 C98_4 1_555 1_555
C132_2 C99_2 1_555 1_555
C134_4 C101_4 1_555 1_555
C135_2 C102_2 1_555 1_555
H50_4 C128_4 1_555 1_555
H51_2 C129_2 1_555 1_555
H53_4 C131_4 1_555 1_555
H54_2 C132_2 1_555 1_555
H56_4 C134_4 1_555 1_555
H57_2 C135_2 1_555 1_555
H61_4 C128_4 1_555 1_555
H62_2 C129_2 1_555 1_555
H64_4 C131_4 1_555 1_555
H65_2 C132_2 1_555 1_555
H67_4 C134_4 1_555 1_555
H68_2 C135_2 1_555 1_555
C139_4 C128_4 1_555 1_555
C140_2 C129_2 1_555 1_555
C142_4 C131_4 1_555 1_555
C143_2 C132_2 1_555 1_555
C145_4 C134_4 1_555 1_555
C146_2 C135_2 1_555 1_555
H72_4 C139_4 1_555 1_555
H73_2 C140_2 1_555 1_555
H75_4 C142_4 1_555 1_555
H76_2 C143_2 1_555 1_555
H78_4 C145_4 1_555 1_555
H79_2 C146_2 1_555 1_555
H83_4 C139_4 1_555 1_555
H84_2 C140_2 1_555 1_555
H86_4 C142_4 1_555 1_555
H87_2 C143_2 1_555 1_555
H89_4 C145_4 1_555 1_555
H90_2 C146_2 1_555 1_555
H94_4 C139_4 1_555 1_555
H95_2 C140_2 1_555 1_555
H97_4 C142_4 1_555 1_555
H98_2 C143_2 1_555 1_555
H100_4 C145_4 1_555 1_555
H101_2 C146_2 1_555 1_555
C150_4 C95_4 1_555 1_555
C151_2 C96_2 1_555 1_555
C153_4 C98_4 1_555 1_555
C154_2 C99_2 1_555 1_555
C156_4 C101_4 1_555 1_555
C157_2 C102_2 1_555 1_555
H105_4 C150_4 1_555 1_555
H106_2 C151_2 1_555 1_555
H108_4 C153_4 1_555 1_555
H109_2 C154_2 1_555 1_555
H111_4 C156_4 1_555 1_555
H112_2 C157_2 1_555 1_555
H116_4 C150_4 1_555 1_555
H117_2 C151_2 1_555 1_555
H119_4 C153_4 1_555 1_555
H120_2 C154_2 1_555 1_555
H122_4 C156_4 1_555 1_555
H123_2 C157_2 1_555 1_555
C161_4 C150_4 1_555 1_555
C162_2 C151_2 1_555 1_555
C164_4 C153_4 1_555 1_555
C165_2 C154_2 1_555 1_555
C167_4 C156_4 1_555 1_555
C168_2 C157_2 1_555 1_555
H127_4 C161_4 1_555 1_555
H128_2 C162_2 1_555 1_555
H130_4 C164_4 1_555 1_555
H131_2 C165_2 1_555 1_555
H133_4 C167_4 1_555 1_555
H134_2 C168_2 1_555 1_555
H138_4 C161_4 1_555 1_555
H139_2 C162_2 1_555 1_555
H141_4 C164_4 1_555 1_555
H142_2 C165_2 1_555 1_555
H144_4 C167_4 1_555 1_555
H145_2 C168_2 1_555 1_555
H149_4 C161_4 1_555 1_555
H150_2 C162_2 1_555 1_555
H152_4 C164_4 1_555 1_555
H153_2 C165_2 1_555 1_555
H155_4 C167_4 1_555 1_555
H156_2 C168_2 1_555 1_555
O3_7 Pb5 1_555 1_555
Pb5 O5_3 1_555 1_555
Pb3_3 O4_4 1_555 1_555
Pb3_3 O6_2 1_555 1_555
Pb6 O8_4 1_555 1_555
Pb6 O9_4 1_555 1_555
Pb6 O10_4 1_555 1_555
O23_2 C17_2 1_555 1_555
O24_4 C16_4 1_555 1_555
O32_2 C24_2 1_555 1_555
C73_4 C82_4 1_555 1_555
C74_2 C83_2 1_555 1_555
C76_4 C87_4 1_555 1_555
C77_2 C88_2 1_555 1_555
C79_4 C90_4 1_555 1_555
C80_2 C91_2 1_555 1_555
C106_4 C117_4 1_555 1_555
C106_4 C120_4 1_555 1_555
C107_2 C118_2 1_555 1_555
C107_2 C121_2 1_555 1_555
C109_4 C117_4 1_555 1_555
C109_4 C123_4 1_555 1_555
C110_2 C118_2 1_555 1_555
C110_2 C124_2 1_555 1_555
C112_4 C120_4 1_555 1_555
C112_4 C123_4 1_555 1_555
C113_2 C121_2 1_555 1_555
C113_2 C124_2 1_555 1_555
Pb1_3 O1_4 1_555 1_555
O1_4 C1_4 1_555 1_555
O2_4 Pb1_3 1_555 1_555
O3_8 Pb1_3 1_555 1_555
C1_4 O2_4 1_555 1_555
C2_4 C1_4 1_555 1_555
C3_4 C2_4 1_555 1_555
H1_4 C3_4 1_555 1_555
C4_4 C3_4 1_555 1_555
C5_4 C4_4 1_555 1_555
C6_4 C5_4 1_555 1_555
H2_4 C6_4 1_555 1_555
C7_4 C2_4 1_555 1_555
H3_4 C7_4 1_555 1_555
C8_4 C4_4 1_555 1_555
C9_4 C8_4 1_555 1_555
C10_4 C5_4 1_555 1_555
C11_4 C8_4 1_555 1_555
H4_4 C11_4 1_555 1_555
H5_4 C11_4 1_555 1_555
C12_4 C11_4 1_555 1_555
H6_4 C12_4 1_555 1_555
H7_4 C12_4 1_555 1_555
H8_4 C12_4 1_555 1_555
C13_4 C8_4 1_555 1_555
H9_4 C13_4 1_555 1_555
H10_4 C13_4 1_555 1_555
C14_4 C13_4 1_555 1_555
H11_4 C14_4 1_555 1_555
H12_4 C14_4 1_555 1_555
H13_4 C14_4 1_555 1_555
Pb2_5 O1_4 1_555 1_555
Pb11_2 O3_8 1_555 1_555
Pb10_2 O3_8 1_555 1_555
Pb5_4 O11_4 1_555 1_555
Pb6_4 O11_4 1_555 1_555
Pb13 O12_4 1_555 1_555
Pb8_7 O12_4 1_555 1_555
Pb9_4 O13_4 1_555 1_555
Pb12_7 O15_5 1_555 1_555
Pb13_7 O15_5 1_555 1_555
Pb14_4 O16_3 1_555 1_555
Pb15_4 O16_3 1_555 1_555
Pb16_3 O17_3 1_555 1_555
Pb17_4 O18_3 1_555 1_555
Pb9_3 O18_3 1_555 1_555
O4_5 Pb1_3 1_555 1_555
O5_4 Pb1_3 1_555 1_555
O6_3 Pb1_3 1_555 1_555
O7_4 Pb2_5 1_555 1_555
O8_5 Pb2_5 1_555 1_555
O9_5 Pb11_2 1_555 1_555
O11_4 C18_4 1_555 1_555
O12_4 C19_4 1_555 1_555
O13_4 Pb5_4 1_555 1_555
O10_2 C21_4 1_555 1_555
O15_5 C22_5 1_555 1_555
O16_3 C23_5 1_555 1_555
O17_3 Pb14_4 1_555 1_555
O18_3 C25_3 1_555 1_555
O19_4 Pb1_3 1_555 1_555
O20_4 Pb2_5 1_555 1_555
O21_5 Pb2_5 1_555 1_555
O22_5 Pb11_2 1_555 1_555
O23_3 Pb11_2 1_555 1_555
O24_5 Pb10_2 1_555 1_555
O26_4 Pb5_4 1_555 1_555
O27_4 Pb13 1_555 1_555
O28_4 Pb9_4 1_555 1_555
O30_5 Pb12_7 1_555 1_555
O31_3 Pb14_4 1_555 1_555
O32_3 Pb16_3 1_555 1_555
O33_3 Pb17_4 1_555 1_555
C15_4 O7_4 1_555 1_555
C16_5 O9_5 1_555 1_555
C17_3 O6_3 1_555 1_555
C18_4 O26_4 1_555 1_555
C19_4 O27_4 1_555 1_555
C20_4 O13_4 1_555 1_555
C21_4 O25_2 1_555 1_555
C22_5 O30_5 1_555 1_555
C23_5 O31_3 1_555 1_555
C24_3 O17_3 1_555 1_555
C25_3 O33_3 1_555 1_555
C26_4 C15_4 1_555 1_555
C27_5 C16_5 1_555 1_555
C28_3 C17_3 1_555 1_555
C29_4 C18_4 1_555 1_555
C30_4 C19_4 1_555 1_555
C31_4 C20_4 1_555 1_555
C32_4 C21_4 1_555 1_555
C33_5 C22_5 1_555 1_555
C34_5 C23_5 1_555 1_555
C35_3 C24_3 1_555 1_555
C36_3 C25_3 1_555 1_555
C37_4 C26_4 1_555 1_555
C38_5 C27_5 1_555 1_555
C39_3 C28_3 1_555 1_555
C40_4 C29_4 1_555 1_555
C41_4 C30_4 1_555 1_555
C42_4 C31_4 1_555 1_555
C43_4 C32_4 1_555 1_555
C44_5 C33_5 1_555 1_555
C45_5 C34_5 1_555 1_555
C46_3 C35_3 1_555 1_555
C47_3 C36_3 1_555 1_555
H14_4 C37_4 1_555 1_555
H15_5 C38_5 1_555 1_555
H16_3 C39_3 1_555 1_555
H17_4 C40_4 1_555 1_555
H18_4 C41_4 1_555 1_555
H19_4 C42_4 1_555 1_555
H20_4 C43_4 1_555 1_555
H21_5 C44_5 1_555 1_555
H22_5 C45_5 1_555 1_555
H23_3 C46_3 1_555 1_555
H24_3 C47_3 1_555 1_555
C48_4 C40_4 1_555 1_555
C49_4 C41_4 1_555 1_555
C50_4 C37_4 1_555 1_555
C51_5 C38_5 1_555 1_555
C52_3 C39_3 1_555 1_555
C53_4 C42_4 1_555 1_555
C54_4 C43_4 1_555 1_555
C55_5 C44_5 1_555 1_555
C56_5 C45_5 1_555 1_555
C57_3 C46_3 1_555 1_555
C58_3 C47_3 1_555 1_555
C59_4 C48_4 1_555 1_555
C60_4 C49_4 1_555 1_555
C61_4 C50_4 1_555 1_555
C62_5 C51_5 1_555 1_555
C63_3 C52_3 1_555 1_555
C64_4 C54_4 1_555 1_555
C65_5 C56_5 1_555 1_555
C66_3 C58_3 1_555 1_555
C67_4 C53_4 1_555 1_555
C68_5 C55_5 1_555 1_555
C69_3 C57_3 1_555 1_555
C70_4 C59_4 1_555 1_555
C71_4 C60_4 1_555 1_555
C72_4 C61_4 1_555 1_555
C73_5 C62_5 1_555 1_555
C74_3 C63_3 1_555 1_555
C75_4 C64_4 1_555 1_555
C76_5 C65_5 1_555 1_555
C77_3 C66_3 1_555 1_555
C78_4 C67_4 1_555 1_555
C79_5 C68_5 1_555 1_555
C80_3 C69_3 1_555 1_555
H25_4 C70_4 1_555 1_555
H26_4 C71_4 1_555 1_555
H27_4 C72_4 1_555 1_555
H28_5 C73_5 1_555 1_555
H29_3 C74_3 1_555 1_555
H30_4 C75_4 1_555 1_555
H31_5 C76_5 1_555 1_555
H32_3 C77_3 1_555 1_555
H33_4 C78_4 1_555 1_555
H34_5 C79_5 1_555 1_555
H35_3 C80_3 1_555 1_555
C81_4 C26_4 1_555 1_555
C82_5 C27_5 1_555 1_555
C83_3 C28_3 1_555 1_555
C84_4 C29_4 1_555 1_555
C85_4 C30_4 1_555 1_555
C86_4 C32_4 1_555 1_555
C87_5 C34_5 1_555 1_555
C88_3 C36_3 1_555 1_555
C89_4 C31_4 1_555 1_555
C90_5 C33_5 1_555 1_555
C91_3 C35_3 1_555 1_555
H36_4 C81_4 1_555 1_555
H37_5 C82_5 1_555 1_555
H38_3 C83_3 1_555 1_555
H39_4 C84_4 1_555 1_555
H40_4 C85_4 1_555 1_555
H41_4 C86_4 1_555 1_555
H42_5 C87_5 1_555 1_555
H43_3 C88_3 1_555 1_555
H44_4 C89_4 1_555 1_555
H45_5 C90_5 1_555 1_555
H46_3 C91_3 1_555 1_555
C92_4 C49_4 1_555 1_555
C93_4 C48_4 1_555 1_555
C94_4 C50_4 1_555 1_555
C95_5 C51_5 1_555 1_555
C96_3 C52_3 1_555 1_555
C97_4 C53_4 1_555 1_555
C98_5 C55_5 1_555 1_555
C99_3 C57_3 1_555 1_555
C100_4 C54_4 1_555 1_555
C101_5 C56_5 1_555 1_555
C102_3 C58_3 1_555 1_555
C103_4 C10_4 1_555 1_555
C104_4 C93_4 1_555 1_555
C105_4 C94_4 1_555 1_555
C106_5 C95_5 1_555 1_555
C107_3 C96_3 1_555 1_555
C108_4 C97_4 1_555 1_555
C109_5 C98_5 1_555 1_555
C110_3 C99_3 1_555 1_555
C111_4 C100_4 1_555 1_555
C112_5 C101_5 1_555 1_555
C113_3 C102_3 1_555 1_555
C114_4 C9_4 1_555 1_555
C115_4 C60_4 1_555 1_555
C116_4 C61_4 1_555 1_555
C117_5 C62_5 1_555 1_555
C118_3 C63_3 1_555 1_555
C119_4 C64_4 1_555 1_555
C120_5 C65_5 1_555 1_555
C121_3 C66_3 1_555 1_555
C122_4 C67_4 1_555 1_555
C123_5 C68_5 1_555 1_555
C124_3 C69_3 1_555 1_555
C125_4 C92_4 1_555 1_555
C126_4 C93_4 1_555 1_555
C127_4 C94_4 1_555 1_555
C128_5 C95_5 1_555 1_555
C129_3 C96_3 1_555 1_555
C130_4 C97_4 1_555 1_555
C131_5 C98_5 1_555 1_555
C132_3 C99_3 1_555 1_555
C133_4 C100_4 1_555 1_555
C134_5 C101_5 1_555 1_555
C135_3 C102_3 1_555 1_555
H47_4 C125_4 1_555 1_555
H48_4 C126_4 1_555 1_555
H49_4 C127_4 1_555 1_555
H50_5 C128_5 1_555 1_555
H51_3 C129_3 1_555 1_555
H52_4 C130_4 1_555 1_555
H53_5 C131_5 1_555 1_555
H54_3 C132_3 1_555 1_555
H55_4 C133_4 1_555 1_555
H56_5 C134_5 1_555 1_555
H57_3 C135_3 1_555 1_555
H58_4 C125_4 1_555 1_555
H59_4 C126_4 1_555 1_555
H60_4 C127_4 1_555 1_555
H61_5 C128_5 1_555 1_555
H62_3 C129_3 1_555 1_555
H63_4 C130_4 1_555 1_555
H64_5 C131_5 1_555 1_555
H65_3 C132_3 1_555 1_555
H66_4 C133_4 1_555 1_555
H67_5 C134_5 1_555 1_555
H68_3 C135_3 1_555 1_555
C136_4 C125_4 1_555 1_555
C137_4 C126_4 1_555 1_555
C138_4 C127_4 1_555 1_555
C139_5 C128_5 1_555 1_555
C140_3 C129_3 1_555 1_555
C141_4 C130_4 1_555 1_555
C142_5 C131_5 1_555 1_555
C143_3 C132_3 1_555 1_555
C144_4 C133_4 1_555 1_555
C145_5 C134_5 1_555 1_555
C146_3 C135_3 1_555 1_555
H69_4 C136_4 1_555 1_555
H70_4 C137_4 1_555 1_555
H71_4 C138_4 1_555 1_555
H72_5 C139_5 1_555 1_555
H73_3 C140_3 1_555 1_555
H74_4 C141_4 1_555 1_555
H75_5 C142_5 1_555 1_555
H76_3 C143_3 1_555 1_555
H77_4 C144_4 1_555 1_555
H78_5 C145_5 1_555 1_555
H79_3 C146_3 1_555 1_555
H80_4 C136_4 1_555 1_555
H81_4 C137_4 1_555 1_555
H82_4 C138_4 1_555 1_555
H83_5 C139_5 1_555 1_555
H84_3 C140_3 1_555 1_555
H85_4 C141_4 1_555 1_555
H86_5 C142_5 1_555 1_555
H87_3 C143_3 1_555 1_555
H88_4 C144_4 1_555 1_555
H89_5 C145_5 1_555 1_555
H90_3 C146_3 1_555 1_555
H91_4 C136_4 1_555 1_555
H92_4 C137_4 1_555 1_555
H93_4 C138_4 1_555 1_555
H94_5 C139_5 1_555 1_555
H95_3 C140_3 1_555 1_555
H96_4 C141_4 1_555 1_555
H97_5 C142_5 1_555 1_555
H98_3 C143_3 1_555 1_555
H99_4 C144_4 1_555 1_555
H100_5 C145_5 1_555 1_555
H101_3 C146_3 1_555 1_555
C147_4 C92_4 1_555 1_555
C148_4 C93_4 1_555 1_555
C149_4 C94_4 1_555 1_555
C150_5 C95_5 1_555 1_555
C151_3 C96_3 1_555 1_555
C152_4 C97_4 1_555 1_555
C153_5 C98_5 1_555 1_555
C154_3 C99_3 1_555 1_555
C155_4 C100_4 1_555 1_555
C156_5 C101_5 1_555 1_555
C157_3 C102_3 1_555 1_555
H102_4 C147_4 1_555 1_555
H103_4 C148_4 1_555 1_555
H104_4 C149_4 1_555 1_555
H105_5 C150_5 1_555 1_555
H106_3 C151_3 1_555 1_555
H107_4 C152_4 1_555 1_555
H108_5 C153_5 1_555 1_555
H109_3 C154_3 1_555 1_555
H110_4 C155_4 1_555 1_555
H111_5 C156_5 1_555 1_555
H112_3 C157_3 1_555 1_555
H113_4 C147_4 1_555 1_555
H114_4 C148_4 1_555 1_555
H115_4 C149_4 1_555 1_555
H116_5 C150_5 1_555 1_555
H117_3 C151_3 1_555 1_555
H118_4 C152_4 1_555 1_555
H119_5 C153_5 1_555 1_555
H120_3 C154_3 1_555 1_555
H121_4 C155_4 1_555 1_555
H122_5 C156_5 1_555 1_555
H123_3 C157_3 1_555 1_555
C158_4 C147_4 1_555 1_555
C159_4 C148_4 1_555 1_555
C160_4 C149_4 1_555 1_555
C161_5 C150_5 1_555 1_555
C162_3 C151_3 1_555 1_555
C163_4 C152_4 1_555 1_555
C164_5 C153_5 1_555 1_555
C165_3 C154_3 1_555 1_555
C166_4 C155_4 1_555 1_555
C167_5 C156_5 1_555 1_555
C168_3 C157_3 1_555 1_555
H124_4 C158_4 1_555 1_555
H125_4 C159_4 1_555 1_555
H126_4 C160_4 1_555 1_555
H127_5 C161_5 1_555 1_555
H128_3 C162_3 1_555 1_555
H129_4 C163_4 1_555 1_555
H130_5 C164_5 1_555 1_555
H131_3 C165_3 1_555 1_555
H132_4 C166_4 1_555 1_555
H133_5 C167_5 1_555 1_555
H134_3 C168_3 1_555 1_555
H135_4 C158_4 1_555 1_555
H136_4 C159_4 1_555 1_555
H137_4 C160_4 1_555 1_555
H138_5 C161_5 1_555 1_555
H139_3 C162_3 1_555 1_555
H140_4 C163_4 1_555 1_555
H141_5 C164_5 1_555 1_555
H142_3 C165_3 1_555 1_555
H143_4 C166_4 1_555 1_555
H144_5 C167_5 1_555 1_555
H145_3 C168_3 1_555 1_555
H146_4 C158_4 1_555 1_555
H147_4 C159_4 1_555 1_555
H148_4 C160_4 1_555 1_555
H149_5 C161_5 1_555 1_555
H150_3 C162_3 1_555 1_555
H151_4 C163_4 1_555 1_555
H152_5 C164_5 1_555 1_555
H153_3 C165_3 1_555 1_555
H154_4 C166_4 1_555 1_555
H155_5 C167_5 1_555 1_555
H156_3 C168_3 1_555 1_555
O3_8 Pb2_5 1_555 1_555
C6_4 C7_4 1_555 1_555
C9_4 C10_4 1_555 1_555
Pb2_5 O5_4 1_555 1_555
Pb11_2 O4_5 1_555 1_555
Pb11_2 O6_3 1_555 1_555
Pb10_2 O7_4 1_555 1_555
Pb10_2 O8_5 1_555 1_555
Pb10_2 O9_5 1_555 1_555
O20_4 C15_4 1_555 1_555
O23_3 C17_3 1_555 1_555
O24_5 C16_5 1_555 1_555
O28_4 C20_4 1_555 1_555
O32_3 C24_3 1_555 1_555
C59_4 C114_4 1_555 1_555
C70_4 C84_4 1_555 1_555
C71_4 C85_4 1_555 1_555
C72_4 C81_4 1_555 1_555
C73_5 C82_5 1_555 1_555
C74_3 C83_3 1_555 1_555
C75_4 C86_4 1_555 1_555
C76_5 C87_5 1_555 1_555
C77_3 C88_3 1_555 1_555
C78_4 C89_4 1_555 1_555
C79_5 C90_5 1_555 1_555
C80_3 C91_3 1_555 1_555
C92_4 C103_4 1_555 1_555
C103_4 C115_4 1_555 1_555
C104_4 C114_4 1_555 1_555
C104_4 C115_4 1_555 1_555
C105_4 C116_4 1_555 1_555
C105_4 C119_4 1_555 1_555
C106_5 C117_5 1_555 1_555
C106_5 C120_5 1_555 1_555
C107_3 C118_3 1_555 1_555
C107_3 C121_3 1_555 1_555
C108_4 C116_4 1_555 1_555
C108_4 C122_4 1_555 1_555
C109_5 C117_5 1_555 1_555
C109_5 C123_5 1_555 1_555
C110_3 C118_3 1_555 1_555
C110_3 C124_3 1_555 1_555
C111_4 C119_4 1_555 1_555
C111_4 C122_4 1_555 1_555
C112_5 C120_5 1_555 1_555
C112_5 C123_5 1_555 1_555
C113_3 C121_3 1_555 1_555
C113_3 C124_3 1_555 1_555
Pb1_4 O1_5 1_555 1_555
O1_5 C1_5 1_555 1_555
O2_5 Pb1_4 1_555 1_555
O3_9 Pb1_4 1_555 1_555
C1_5 O2_5 1_555 1_555
C2_5 C1_5 1_555 1_555
C3_5 C2_5 1_555 1_555
H1_5 C3_5 1_555 1_555
C4_5 C3_5 1_555 1_555
C5_5 C4_5 1_555 1_555
C6_5 C5_5 1_555 1_555
H2_5 C6_5 1_555 1_555
C7_5 C2_5 1_555 1_555
H3_5 C7_5 1_555 1_555
C8_5 C4_5 1_555 1_555
C9_5 C8_5 1_555 1_555
C10_5 C5_5 1_555 1_555
C11_5 C8_5 1_555 1_555
H4_5 C11_5 1_555 1_555
H5_5 C11_5 1_555 1_555
C12_5 C11_5 1_555 1_555
H6_5 C12_5 1_555 1_555
H7_5 C12_5 1_555 1_555
H8_5 C12_5 1_555 1_555
C13_5 C8_5 1_555 1_555
H9_5 C13_5 1_555 1_555
H10_5 C13_5 1_555 1_555
C14_5 C13_5 1_555 1_555
H11_5 C14_5 1_555 1_555
H12_5 C14_5 1_555 1_555
H13_5 C14_5 1_555 1_555
Pb2_6 O1_5 1_555 1_555
Pb3_4 O3_9 1_555 1_555
Pb4_7 O3_9 1_555 1_555
Pb5_7 O11_5 1_555 1_555
Pb6_7 O11_5 1_555 1_555
Pb7_7 O12_5 1_555 1_555
Pb17_3 O12_5 1_555 1_555
Pb9_7 O13_5 1_555 1_555
Pb13_5 O14_4 1_555 1_555
Pb11_5 O14_4 1_555 1_555
Pb12_9 O15_6 1_555 1_555
Pb7_2 O15_6 1_555 1_555
Pb9_2 O16_4 1_555 1_555
Pb5_2 O16_4 1_555 1_555
Pb16_4 O17_4 1_555 1_555
Pb11 O18_4 1_555 1_555
Pb18_4 O18_4 1_555 1_555
O4_6 Pb1_4 1_555 1_555
O5_5 Pb1_4 1_555 1_555
O6_4 Pb1_4 1_555 1_555
O7_5 Pb2_6 1_555 1_555
O8_6 Pb2_6 1_555 1_555
O9_6 Pb3_4 1_555 1_555
O10_5 Pb3_4 1_555 1_555
O11_5 C18_5 1_555 1_555
O12_5 C19_5 1_555 1_555
O13_5 Pb5_7 1_555 1_555
O14_4 C21_5 1_555 1_555
O15_6 C22_6 1_555 1_555
O16_4 C23_6 1_555 1_555
O17_4 Pb9_2 1_555 1_555
O18_4 C25_4 1_555 1_555
O19_5 Pb1_4 1_555 1_555
O20_5 Pb2_6 1_555 1_555
O21_6 Pb2_6 1_555 1_555
O22_6 Pb3_4 1_555 1_555
O23_4 Pb3_4 1_555 1_555
O24_6 Pb4_7 1_555 1_555
O25_5 Pb4_7 1_555 1_555
O26_5 Pb5_7 1_555 1_555
O27_5 Pb7_7 1_555 1_555
O28_5 Pb9_7 1_555 1_555
O29_4 Pb13_5 1_555 1_555
O30_6 Pb12_9 1_555 1_555
O31_4 Pb9_2 1_555 1_555
O32_4 Pb16_4 1_555 1_555
O33_4 Pb11 1_555 1_555
C15_5 O7_5 1_555 1_555
C16_6 O9_6 1_555 1_555
C17_4 O6_4 1_555 1_555
C18_5 O26_5 1_555 1_555
C19_5 O27_5 1_555 1_555
C20_5 O13_5 1_555 1_555
C21_5 O29_4 1_555 1_555
C22_6 O30_6 1_555 1_555
C23_6 O31_4 1_555 1_555
C24_4 O17_4 1_555 1_555
C25_4 O33_4 1_555 1_555
C26_5 C15_5 1_555 1_555
C27_6 C16_6 1_555 1_555
C28_4 C17_4 1_555 1_555
C29_5 C18_5 1_555 1_555
C30_5 C19_5 1_555 1_555
C31_5 C20_5 1_555 1_555
C32_5 C21_5 1_555 1_555
C33_6 C22_6 1_555 1_555
C34_6 C23_6 1_555 1_555
C35_4 C24_4 1_555 1_555
C36_4 C25_4 1_555 1_555
C37_5 C26_5 1_555 1_555
C38_6 C27_6 1_555 1_555
C39_4 C28_4 1_555 1_555
C40_5 C29_5 1_555 1_555
C41_5 C30_5 1_555 1_555
C42_5 C31_5 1_555 1_555
C43_5 C32_5 1_555 1_555
C44_6 C33_6 1_555 1_555
C45_6 C34_6 1_555 1_555
C46_4 C35_4 1_555 1_555
C47_4 C36_4 1_555 1_555
H14_5 C37_5 1_555 1_555
H15_6 C38_6 1_555 1_555
H16_4 C39_4 1_555 1_555
H17_5 C40_5 1_555 1_555
H18_5 C41_5 1_555 1_555
H19_5 C42_5 1_555 1_555
H20_5 C43_5 1_555 1_555
H21_6 C44_6 1_555 1_555
H22_6 C45_6 1_555 1_555
H23_4 C46_4 1_555 1_555
H24_4 C47_4 1_555 1_555
C48_5 C40_5 1_555 1_555
C49_5 C41_5 1_555 1_555
C50_5 C37_5 1_555 1_555
C51_6 C38_6 1_555 1_555
C52_4 C39_4 1_555 1_555
C53_5 C42_5 1_555 1_555
C54_5 C43_5 1_555 1_555
C55_6 C44_6 1_555 1_555
C56_6 C45_6 1_555 1_555
C57_4 C46_4 1_555 1_555
C58_4 C47_4 1_555 1_555
C59_5 C48_5 1_555 1_555
C60_5 C49_5 1_555 1_555
C61_5 C50_5 1_555 1_555
C62_6 C51_6 1_555 1_555
C63_4 C52_4 1_555 1_555
C64_5 C54_5 1_555 1_555
C65_6 C56_6 1_555 1_555
C66_4 C58_4 1_555 1_555
C67_5 C53_5 1_555 1_555
C68_6 C55_6 1_555 1_555
C69_4 C57_4 1_555 1_555
C70_5 C59_5 1_555 1_555
C71_5 C60_5 1_555 1_555
C72_5 C61_5 1_555 1_555
C73_6 C62_6 1_555 1_555
C74_4 C63_4 1_555 1_555
C75_5 C64_5 1_555 1_555
C76_6 C65_6 1_555 1_555
C77_4 C66_4 1_555 1_555
C78_5 C67_5 1_555 1_555
C79_6 C68_6 1_555 1_555
C80_4 C69_4 1_555 1_555
H25_5 C70_5 1_555 1_555
H26_5 C71_5 1_555 1_555
H27_5 C72_5 1_555 1_555
H28_6 C73_6 1_555 1_555
H29_4 C74_4 1_555 1_555
H30_5 C75_5 1_555 1_555
H31_6 C76_6 1_555 1_555
H32_4 C77_4 1_555 1_555
H33_5 C78_5 1_555 1_555
H34_6 C79_6 1_555 1_555
H35_4 C80_4 1_555 1_555
C81_5 C26_5 1_555 1_555
C82_6 C27_6 1_555 1_555
C83_4 C28_4 1_555 1_555
C84_5 C29_5 1_555 1_555
C85_5 C30_5 1_555 1_555
C86_5 C32_5 1_555 1_555
C87_6 C34_6 1_555 1_555
C88_4 C36_4 1_555 1_555
C89_5 C31_5 1_555 1_555
C90_6 C33_6 1_555 1_555
C91_4 C35_4 1_555 1_555
H36_5 C81_5 1_555 1_555
H37_6 C82_6 1_555 1_555
H38_4 C83_4 1_555 1_555
H39_5 C84_5 1_555 1_555
H40_5 C85_5 1_555 1_555
H41_5 C86_5 1_555 1_555
H42_6 C87_6 1_555 1_555
H43_4 C88_4 1_555 1_555
H44_5 C89_5 1_555 1_555
H45_6 C90_6 1_555 1_555
H46_4 C91_4 1_555 1_555
C92_5 C49_5 1_555 1_555
C93_5 C48_5 1_555 1_555
C94_5 C50_5 1_555 1_555
C95_6 C51_6 1_555 1_555
C96_4 C52_4 1_555 1_555
C97_5 C53_5 1_555 1_555
C98_6 C55_6 1_555 1_555
C99_4 C57_4 1_555 1_555
C100_5 C54_5 1_555 1_555
C101_6 C56_6 1_555 1_555
C102_4 C58_4 1_555 1_555
C103_5 C10_5 1_555 1_555
C104_5 C93_5 1_555 1_555
C105_5 C94_5 1_555 1_555
C106_6 C95_6 1_555 1_555
C107_4 C96_4 1_555 1_555
C108_5 C97_5 1_555 1_555
C109_6 C98_6 1_555 1_555
C110_4 C99_4 1_555 1_555
C111_5 C100_5 1_555 1_555
C112_6 C101_6 1_555 1_555
C113_4 C102_4 1_555 1_555
C114_5 C9_5 1_555 1_555
C115_5 C60_5 1_555 1_555
C116_5 C61_5 1_555 1_555
C117_6 C62_6 1_555 1_555
C118_4 C63_4 1_555 1_555
C119_5 C64_5 1_555 1_555
C120_6 C65_6 1_555 1_555
C121_4 C66_4 1_555 1_555
C122_5 C67_5 1_555 1_555
C123_6 C68_6 1_555 1_555
C124_4 C69_4 1_555 1_555
C125_5 C92_5 1_555 1_555
C126_5 C93_5 1_555 1_555
C127_5 C94_5 1_555 1_555
C128_6 C95_6 1_555 1_555
C129_4 C96_4 1_555 1_555
C130_5 C97_5 1_555 1_555
C131_6 C98_6 1_555 1_555
C132_4 C99_4 1_555 1_555
C133_5 C100_5 1_555 1_555
C134_6 C101_6 1_555 1_555
C135_4 C102_4 1_555 1_555
H47_5 C125_5 1_555 1_555
H48_5 C126_5 1_555 1_555
H49_5 C127_5 1_555 1_555
H50_6 C128_6 1_555 1_555
H51_4 C129_4 1_555 1_555
H52_5 C130_5 1_555 1_555
H53_6 C131_6 1_555 1_555
H54_4 C132_4 1_555 1_555
H55_5 C133_5 1_555 1_555
H56_6 C134_6 1_555 1_555
H57_4 C135_4 1_555 1_555
H58_5 C125_5 1_555 1_555
H59_5 C126_5 1_555 1_555
H60_5 C127_5 1_555 1_555
H61_6 C128_6 1_555 1_555
H62_4 C129_4 1_555 1_555
H63_5 C130_5 1_555 1_555
H64_6 C131_6 1_555 1_555
H65_4 C132_4 1_555 1_555
H66_5 C133_5 1_555 1_555
H67_6 C134_6 1_555 1_555
H68_4 C135_4 1_555 1_555
C136_5 C125_5 1_555 1_555
C137_5 C126_5 1_555 1_555
C138_5 C127_5 1_555 1_555
C139_6 C128_6 1_555 1_555
C140_4 C129_4 1_555 1_555
C141_5 C130_5 1_555 1_555
C142_6 C131_6 1_555 1_555
C143_4 C132_4 1_555 1_555
C144_5 C133_5 1_555 1_555
C145_6 C134_6 1_555 1_555
C146_4 C135_4 1_555 1_555
H69_5 C136_5 1_555 1_555
H70_5 C137_5 1_555 1_555
H71_5 C138_5 1_555 1_555
H72_6 C139_6 1_555 1_555
H73_4 C140_4 1_555 1_555
H74_5 C141_5 1_555 1_555
H75_6 C142_6 1_555 1_555
H76_4 C143_4 1_555 1_555
H77_5 C144_5 1_555 1_555
H78_6 C145_6 1_555 1_555
H79_4 C146_4 1_555 1_555
H80_5 C136_5 1_555 1_555
H81_5 C137_5 1_555 1_555
H82_5 C138_5 1_555 1_555
H83_6 C139_6 1_555 1_555
H84_4 C140_4 1_555 1_555
H85_5 C141_5 1_555 1_555
H86_6 C142_6 1_555 1_555
H87_4 C143_4 1_555 1_555
H88_5 C144_5 1_555 1_555
H89_6 C145_6 1_555 1_555
H90_4 C146_4 1_555 1_555
H91_5 C136_5 1_555 1_555
H92_5 C137_5 1_555 1_555
H93_5 C138_5 1_555 1_555
H94_6 C139_6 1_555 1_555
H95_4 C140_4 1_555 1_555
H96_5 C141_5 1_555 1_555
H97_6 C142_6 1_555 1_555
H98_4 C143_4 1_555 1_555
H99_5 C144_5 1_555 1_555
H100_6 C145_6 1_555 1_555
H101_4 C146_4 1_555 1_555
C147_5 C92_5 1_555 1_555
C148_5 C93_5 1_555 1_555
C149_5 C94_5 1_555 1_555
C150_6 C95_6 1_555 1_555
C151_4 C96_4 1_555 1_555
C152_5 C97_5 1_555 1_555
C153_6 C98_6 1_555 1_555
C154_4 C99_4 1_555 1_555
C155_5 C100_5 1_555 1_555
C156_6 C101_6 1_555 1_555
C157_4 C102_4 1_555 1_555
H102_5 C147_5 1_555 1_555
H103_5 C148_5 1_555 1_555
H104_5 C149_5 1_555 1_555
H105_6 C150_6 1_555 1_555
H106_4 C151_4 1_555 1_555
H107_5 C152_5 1_555 1_555
H108_6 C153_6 1_555 1_555
H109_4 C154_4 1_555 1_555
H110_5 C155_5 1_555 1_555
H111_6 C156_6 1_555 1_555
H112_4 C157_4 1_555 1_555
H113_5 C147_5 1_555 1_555
H114_5 C148_5 1_555 1_555
H115_5 C149_5 1_555 1_555
H116_6 C150_6 1_555 1_555
H117_4 C151_4 1_555 1_555
H118_5 C152_5 1_555 1_555
H119_6 C153_6 1_555 1_555
H120_4 C154_4 1_555 1_555
H121_5 C155_5 1_555 1_555
H122_6 C156_6 1_555 1_555
H123_4 C157_4 1_555 1_555
C158_5 C147_5 1_555 1_555
C159_5 C148_5 1_555 1_555
C160_5 C149_5 1_555 1_555
C161_6 C150_6 1_555 1_555
C162_4 C151_4 1_555 1_555
C163_5 C152_5 1_555 1_555
C164_6 C153_6 1_555 1_555
C165_4 C154_4 1_555 1_555
C166_5 C155_5 1_555 1_555
C167_6 C156_6 1_555 1_555
C168_4 C157_4 1_555 1_555
H124_5 C158_5 1_555 1_555
H125_5 C159_5 1_555 1_555
H126_5 C160_5 1_555 1_555
H127_6 C161_6 1_555 1_555
H128_4 C162_4 1_555 1_555
H129_5 C163_5 1_555 1_555
H130_6 C164_6 1_555 1_555
H131_4 C165_4 1_555 1_555
H132_5 C166_5 1_555 1_555
H133_6 C167_6 1_555 1_555
H134_4 C168_4 1_555 1_555
H135_5 C158_5 1_555 1_555
H136_5 C159_5 1_555 1_555
H137_5 C160_5 1_555 1_555
H138_6 C161_6 1_555 1_555
H139_4 C162_4 1_555 1_555
H140_5 C163_5 1_555 1_555
H141_6 C164_6 1_555 1_555
H142_4 C165_4 1_555 1_555
H143_5 C166_5 1_555 1_555
H144_6 C167_6 1_555 1_555
H145_4 C168_4 1_555 1_555
H146_5 C158_5 1_555 1_555
H147_5 C159_5 1_555 1_555
H148_5 C160_5 1_555 1_555
H149_6 C161_6 1_555 1_555
H150_4 C162_4 1_555 1_555
H151_5 C163_5 1_555 1_555
H152_6 C164_6 1_555 1_555
H153_4 C165_4 1_555 1_555
H154_5 C166_5 1_555 1_555
H155_6 C167_6 1_555 1_555
H156_4 C168_4 1_555 1_555
O3_9 Pb2_6 1_555 1_555
C6_5 C7_5 1_555 1_555
C9_5 C10_5 1_555 1_555
Pb2_6 O5_5 1_555 1_555
Pb3_4 O4_6 1_555 1_555
Pb3_4 O6_4 1_555 1_555
Pb4_7 O7_5 1_555 1_555
Pb4_7 O8_6 1_555 1_555
Pb4_7 O9_6 1_555 1_555
Pb4_7 O10_5 1_555 1_555
O20_5 C15_5 1_555 1_555
O23_4 C17_4 1_555 1_555
O24_6 C16_6 1_555 1_555
O28_5 C20_5 1_555 1_555
O32_4 C24_4 1_555 1_555
C59_5 C114_5 1_555 1_555
C70_5 C84_5 1_555 1_555
C71_5 C85_5 1_555 1_555
C72_5 C81_5 1_555 1_555
C73_6 C82_6 1_555 1_555
C74_4 C83_4 1_555 1_555
C75_5 C86_5 1_555 1_555
C76_6 C87_6 1_555 1_555
C77_4 C88_4 1_555 1_555
C78_5 C89_5 1_555 1_555
C79_6 C90_6 1_555 1_555
C80_4 C91_4 1_555 1_555
C92_5 C103_5 1_555 1_555
C103_5 C115_5 1_555 1_555
C104_5 C114_5 1_555 1_555
C104_5 C115_5 1_555 1_555
C105_5 C116_5 1_555 1_555
C105_5 C119_5 1_555 1_555
C106_6 C117_6 1_555 1_555
C106_6 C120_6 1_555 1_555
C107_4 C118_4 1_555 1_555
C107_4 C121_4 1_555 1_555
C108_5 C116_5 1_555 1_555
C108_5 C122_5 1_555 1_555
C109_6 C117_6 1_555 1_555
C109_6 C123_6 1_555 1_555
C110_4 C118_4 1_555 1_555
C110_4 C124_4 1_555 1_555
C111_5 C119_5 1_555 1_555
C111_5 C122_5 1_555 1_555
C112_6 C120_6 1_555 1_555
C112_6 C123_6 1_555 1_555
C113_4 C121_4 1_555 1_555
C113_4 C124_4 1_555 1_555
Pb18_3 O1_6 1_555 1_555
O1_6 C1_6 1_555 1_555
O2_6 Pb18_3 1_555 1_555
O3_10 Pb18_3 1_555 1_555
C1_6 O2_6 1_555 1_555
C2_6 C1_6 1_555 1_555
C3_6 C2_6 1_555 1_555
H1_6 C3_6 1_555 1_555
C4_6 C3_6 1_555 1_555
C5_6 C4_6 1_555 1_555
C6_6 C5_6 1_555 1_555
H2_6 C6_6 1_555 1_555
C7_6 C2_6 1_555 1_555
H3_6 C7_6 1_555 1_555
C8_6 C4_6 1_555 1_555
C9_6 C8_6 1_555 1_555
C10_6 C5_6 1_555 1_555
C11_6 C8_6 1_555 1_555
H4_6 C11_6 1_555 1_555
H5_6 C11_6 1_555 1_555
C12_6 C11_6 1_555 1_555
H6_6 C12_6 1_555 1_555
H7_6 C12_6 1_555 1_555
H8_6 C12_6 1_555 1_555
C13_6 C8_6 1_555 1_555
H9_6 C13_6 1_555 1_555
H10_6 C13_6 1_555 1_555
C14_6 C13_6 1_555 1_555
H11_6 C14_6 1_555 1_555
H12_6 C14_6 1_555 1_555
H13_6 C14_6 1_555 1_555
Pb2_7 O1_6 1_555 1_555
Pb17_3 O3_10 1_555 1_555
Pb7_7 O3_10 1_555 1_555
Pb5_9 O11_6 1_555 1_555
Pb6_9 O11_6 1_555 1_555
Pb7_8 O12_6 1_555 1_555
Pb16_3 O12_6 1_555 1_555
Pb9_9 O13_6 1_555 1_555
Pb6_7 O14_5 1_555 1_555
Pb11_7 O14_5 1_555 1_555
Pb12_11 O15_7 1_555 1_555
Pb7_6 O15_7 1_555 1_555
O4_7 Pb18_3 1_555 1_555
O5_6 Pb18_3 1_555 1_555
O7_6 Pb2_7 1_555 1_555
O8_7 Pb2_7 1_555 1_555
O9_7 Pb17_3 1_555 1_555
O11_6 C18_6 1_555 1_555
O12_6 C19_6 1_555 1_555
O13_6 Pb5_9 1_555 1_555
O14_5 C21_6 1_555 1_555
O15_7 C22_7 1_555 1_555
O5_3 C23_7 1_555 1_555
O19_6 Pb18_3 1_555 1_555
O20_6 Pb2_7 1_555 1_555
O21_7 Pb2_7 1_555 1_555
O22_7 Pb17_3 1_555 1_555
O24_7 Pb7_7 1_555 1_555
O26_6 Pb5_9 1_555 1_555
O27_6 Pb7_8 1_555 1_555
O28_6 Pb9_9 1_555 1_555
O29_5 Pb6_7 1_555 1_555
O30_7 Pb12_11 1_555 1_555
C15_6 O7_6 1_555 1_555
C16_7 O9_7 1_555 1_555
C18_6 O26_6 1_555 1_555
C19_6 O27_6 1_555 1_555
C20_6 O13_6 1_555 1_555
C21_6 O29_5 1_555 1_555
C22_7 O30_7 1_555 1_555
C23_7 O19_3 1_555 1_555
C26_6 C15_6 1_555 1_555
C27_7 C16_7 1_555 1_555
C29_6 C18_6 1_555 1_555
C30_6 C19_6 1_555 1_555
C31_6 C20_6 1_555 1_555
C32_6 C21_6 1_555 1_555
C33_7 C22_7 1_555 1_555
C34_7 C23_7 1_555 1_555
C37_6 C26_6 1_555 1_555
C38_7 C27_7 1_555 1_555
C40_6 C29_6 1_555 1_555
C41_6 C30_6 1_555 1_555
C42_6 C31_6 1_555 1_555
C43_6 C32_6 1_555 1_555
C44_7 C33_7 1_555 1_555
C45_7 C34_7 1_555 1_555
H14_6 C37_6 1_555 1_555
H15_7 C38_7 1_555 1_555
H17_6 C40_6 1_555 1_555
H18_6 C41_6 1_555 1_555
H19_6 C42_6 1_555 1_555
H20_6 C43_6 1_555 1_555
H21_7 C44_7 1_555 1_555
H22_7 C45_7 1_555 1_555
C48_6 C40_6 1_555 1_555
C49_6 C41_6 1_555 1_555
C50_6 C37_6 1_555 1_555
C51_7 C38_7 1_555 1_555
C53_6 C42_6 1_555 1_555
C54_6 C43_6 1_555 1_555
C55_7 C44_7 1_555 1_555
C56_7 C45_7 1_555 1_555
C59_6 C48_6 1_555 1_555
C60_6 C49_6 1_555 1_555
C61_6 C50_6 1_555 1_555
C62_7 C51_7 1_555 1_555
C64_6 C54_6 1_555 1_555
C65_7 C56_7 1_555 1_555
C67_6 C53_6 1_555 1_555
C68_7 C55_7 1_555 1_555
C70_6 C59_6 1_555 1_555
C71_6 C60_6 1_555 1_555
C72_6 C61_6 1_555 1_555
C73_7 C62_7 1_555 1_555
C75_6 C64_6 1_555 1_555
C76_7 C65_7 1_555 1_555
C78_6 C67_6 1_555 1_555
C79_7 C68_7 1_555 1_555
H25_6 C70_6 1_555 1_555
H26_6 C71_6 1_555 1_555
H27_6 C72_6 1_555 1_555
H28_7 C73_7 1_555 1_555
H30_6 C75_6 1_555 1_555
H31_7 C76_7 1_555 1_555
H33_6 C78_6 1_555 1_555
H34_7 C79_7 1_555 1_555
C81_6 C26_6 1_555 1_555
C82_7 C27_7 1_555 1_555
C84_6 C29_6 1_555 1_555
C85_6 C30_6 1_555 1_555
C86_6 C32_6 1_555 1_555
C87_7 C34_7 1_555 1_555
C89_6 C31_6 1_555 1_555
C90_7 C33_7 1_555 1_555
H36_6 C81_6 1_555 1_555
H37_7 C82_7 1_555 1_555
H39_6 C84_6 1_555 1_555
H40_6 C85_6 1_555 1_555
H41_6 C86_6 1_555 1_555
H42_7 C87_7 1_555 1_555
H44_6 C89_6 1_555 1_555
H45_7 C90_7 1_555 1_555
C92_6 C49_6 1_555 1_555
C93_6 C48_6 1_555 1_555
C94_6 C50_6 1_555 1_555
C95_7 C51_7 1_555 1_555
C97_6 C53_6 1_555 1_555
C98_7 C55_7 1_555 1_555
C100_6 C54_6 1_555 1_555
C101_7 C56_7 1_555 1_555
C103_6 C10_6 1_555 1_555
C104_6 C93_6 1_555 1_555
C105_6 C94_6 1_555 1_555
C106_7 C95_7 1_555 1_555
C108_6 C97_6 1_555 1_555
C109_7 C98_7 1_555 1_555
C111_6 C100_6 1_555 1_555
C112_7 C101_7 1_555 1_555
C114_6 C9_6 1_555 1_555
C115_6 C60_6 1_555 1_555
C116_6 C61_6 1_555 1_555
C117_7 C62_7 1_555 1_555
C119_6 C64_6 1_555 1_555
C120_7 C65_7 1_555 1_555
C122_6 C67_6 1_555 1_555
C123_7 C68_7 1_555 1_555
C125_6 C92_6 1_555 1_555
C126_6 C93_6 1_555 1_555
C127_6 C94_6 1_555 1_555
C128_7 C95_7 1_555 1_555
C130_6 C97_6 1_555 1_555
C131_7 C98_7 1_555 1_555
C133_6 C100_6 1_555 1_555
C134_7 C101_7 1_555 1_555
H47_6 C125_6 1_555 1_555
H48_6 C126_6 1_555 1_555
H49_6 C127_6 1_555 1_555
H50_7 C128_7 1_555 1_555
H52_6 C130_6 1_555 1_555
H53_7 C131_7 1_555 1_555
H55_6 C133_6 1_555 1_555
H56_7 C134_7 1_555 1_555
H58_6 C125_6 1_555 1_555
H59_6 C126_6 1_555 1_555
H60_6 C127_6 1_555 1_555
H61_7 C128_7 1_555 1_555
H63_6 C130_6 1_555 1_555
H64_7 C131_7 1_555 1_555
H66_6 C133_6 1_555 1_555
H67_7 C134_7 1_555 1_555
C136_6 C125_6 1_555 1_555
C137_6 C126_6 1_555 1_555
C138_6 C127_6 1_555 1_555
C139_7 C128_7 1_555 1_555
C141_6 C130_6 1_555 1_555
C142_7 C131_7 1_555 1_555
C144_6 C133_6 1_555 1_555
C145_7 C134_7 1_555 1_555
H69_6 C136_6 1_555 1_555
H70_6 C137_6 1_555 1_555
H71_6 C138_6 1_555 1_555
H72_7 C139_7 1_555 1_555
H74_6 C141_6 1_555 1_555
H75_7 C142_7 1_555 1_555
H77_6 C144_6 1_555 1_555
H78_7 C145_7 1_555 1_555
H80_6 C136_6 1_555 1_555
H81_6 C137_6 1_555 1_555
H82_6 C138_6 1_555 1_555
H83_7 C139_7 1_555 1_555
H85_6 C141_6 1_555 1_555
H86_7 C142_7 1_555 1_555
H88_6 C144_6 1_555 1_555
H89_7 C145_7 1_555 1_555
H91_6 C136_6 1_555 1_555
H92_6 C137_6 1_555 1_555
H93_6 C138_6 1_555 1_555
H94_7 C139_7 1_555 1_555
H96_6 C141_6 1_555 1_555
H97_7 C142_7 1_555 1_555
H99_6 C144_6 1_555 1_555
H100_7 C145_7 1_555 1_555
C147_6 C92_6 1_555 1_555
C148_6 C93_6 1_555 1_555
C149_6 C94_6 1_555 1_555
C150_7 C95_7 1_555 1_555
C152_6 C97_6 1_555 1_555
C153_7 C98_7 1_555 1_555
C155_6 C100_6 1_555 1_555
C156_7 C101_7 1_555 1_555
H102_6 C147_6 1_555 1_555
H103_6 C148_6 1_555 1_555
H104_6 C149_6 1_555 1_555
H105_7 C150_7 1_555 1_555
H107_6 C152_6 1_555 1_555
H108_7 C153_7 1_555 1_555
H110_6 C155_6 1_555 1_555
H111_7 C156_7 1_555 1_555
H113_6 C147_6 1_555 1_555
H114_6 C148_6 1_555 1_555
H115_6 C149_6 1_555 1_555
H116_7 C150_7 1_555 1_555
H118_6 C152_6 1_555 1_555
H119_7 C153_7 1_555 1_555
H121_6 C155_6 1_555 1_555
H122_7 C156_7 1_555 1_555
C158_6 C147_6 1_555 1_555
C159_6 C148_6 1_555 1_555
C160_6 C149_6 1_555 1_555
C161_7 C150_7 1_555 1_555
C163_6 C152_6 1_555 1_555
C164_7 C153_7 1_555 1_555
C166_6 C155_6 1_555 1_555
C167_7 C156_7 1_555 1_555
H124_6 C158_6 1_555 1_555
H125_6 C159_6 1_555 1_555
H126_6 C160_6 1_555 1_555
H127_7 C161_7 1_555 1_555
H129_6 C163_6 1_555 1_555
H130_7 C164_7 1_555 1_555
H132_6 C166_6 1_555 1_555
H133_7 C167_7 1_555 1_555
H135_6 C158_6 1_555 1_555
H136_6 C159_6 1_555 1_555
H137_6 C160_6 1_555 1_555
H138_7 C161_7 1_555 1_555
H140_6 C163_6 1_555 1_555
H141_7 C164_7 1_555 1_555
H143_6 C166_6 1_555 1_555
H144_7 C167_7 1_555 1_555
H146_6 C158_6 1_555 1_555
H147_6 C159_6 1_555 1_555
H148_6 C160_6 1_555 1_555
H149_7 C161_7 1_555 1_555
H151_6 C163_6 1_555 1_555
H152_7 C164_7 1_555 1_555
H154_6 C166_6 1_555 1_555
H155_7 C167_7 1_555 1_555
O3_10 Pb2_7 1_555 1_555
C6_6 C7_6 1_555 1_555
C9_6 C10_6 1_555 1_555
Pb2_7 O5_6 1_555 1_555
Pb17_3 O4_7 1_555 1_555
Pb7_7 O7_6 1_555 1_555
Pb7_7 O8_7 1_555 1_555
Pb7_7 O9_7 1_555 1_555
O20_6 C15_6 1_555 1_555
O24_7 C16_7 1_555 1_555
O28_6 C20_6 1_555 1_555
C59_6 C114_6 1_555 1_555
C70_6 C84_6 1_555 1_555
C71_6 C85_6 1_555 1_555
C72_6 C81_6 1_555 1_555
C73_7 C82_7 1_555 1_555
C75_6 C86_6 1_555 1_555
C76_7 C87_7 1_555 1_555
C78_6 C89_6 1_555 1_555
C79_7 C90_7 1_555 1_555
C92_6 C103_6 1_555 1_555
C103_6 C115_6 1_555 1_555
C104_6 C114_6 1_555 1_555
C104_6 C115_6 1_555 1_555
C105_6 C116_6 1_555 1_555
C105_6 C119_6 1_555 1_555
C106_7 C117_7 1_555 1_555
C106_7 C120_7 1_555 1_555
C108_6 C116_6 1_555 1_555
C108_6 C122_6 1_555 1_555
C109_7 C117_7 1_555 1_555
C109_7 C123_7 1_555 1_555
C111_6 C119_6 1_555 1_555
C111_6 C122_6 1_555 1_555
C112_7 C120_7 1_555 1_555
C112_7 C123_7 1_555 1_555
Pb18_4 O1_7 1_555 1_555
O1_7 C1_7 1_555 1_555
O2_7 Pb18_4 1_555 1_555
O3_11 Pb18_4 1_555 1_555
C1_7 O2_7 1_555 1_555
C2_7 C1_7 1_555 1_555
C3_7 C2_7 1_555 1_555
H1_7 C3_7 1_555 1_555
C4_7 C3_7 1_555 1_555
C5_7 C4_7 1_555 1_555
C6_7 C5_7 1_555 1_555
H2_7 C6_7 1_555 1_555
C7_7 C2_7 1_555 1_555
H3_7 C7_7 1_555 1_555
C8_7 C4_7 1_555 1_555
C9_7 C8_7 1_555 1_555
C10_7 C5_7 1_555 1_555
C11_7 C8_7 1_555 1_555
H4_7 C11_7 1_555 1_555
H5_7 C11_7 1_555 1_555
C12_7 C11_7 1_555 1_555
H6_7 C12_7 1_555 1_555
H7_7 C12_7 1_555 1_555
H8_7 C12_7 1_555 1_555
C13_7 C8_7 1_555 1_555
H9_7 C13_7 1_555 1_555
H10_7 C13_7 1_555 1_555
C14_7 C13_7 1_555 1_555
H11_7 C14_7 1_555 1_555
H12_7 C14_7 1_555 1_555
H13_7 C14_7 1_555 1_555
Pb2_8 O1_7 1_555 1_555
Pb11 O3_11 1_555 1_555
Pb10 O3_11 1_555 1_555
Pb5_10 O11_7 1_555 1_555
Pb6_10 O11_7 1_555 1_555
Pb13_3 O12_7 1_555 1_555
Pb8_8 O12_7 1_555 1_555
Pb9_10 O13_7 1_555 1_555
Pb5_5 O15_8 1_555 1_555
Pb6_5 O15_8 1_555 1_555
O4_8 Pb18_4 1_555 1_555
O5_7 Pb18_4 1_555 1_555
O7_7 Pb2_8 1_555 1_555
O8_8 Pb2_8 1_555 1_555
O9_8 Pb11 1_555 1_555
O11_7 C18_7 1_555 1_555
O12_7 C19_7 1_555 1_555
O13_7 Pb5_10 1_555 1_555
O10 C21_7 1_555 1_555
O15_8 C22_8 1_555 1_555
O5_5 C23_8 1_555 1_555
O19_7 Pb18_4 1_555 1_555
O20_7 Pb2_8 1_555 1_555
O21_8 Pb2_8 1_555 1_555
O22_8 Pb11 1_555 1_555
O24_8 Pb10 1_555 1_555
O26_7 Pb5_10 1_555 1_555
O27_7 Pb13_3 1_555 1_555
O28_7 Pb9_10 1_555 1_555
O30_8 Pb5_5 1_555 1_555
C15_7 O7_7 1_555 1_555
C16_8 O9_8 1_555 1_555
C18_7 O26_7 1_555 1_555
C19_7 O27_7 1_555 1_555
C20_7 O13_7 1_555 1_555
C21_7 O25 1_555 1_555
C22_8 O30_8 1_555 1_555
C23_8 O19_5 1_555 1_555
C26_7 C15_7 1_555 1_555
C27_8 C16_8 1_555 1_555
C29_7 C18_7 1_555 1_555
C30_7 C19_7 1_555 1_555
C31_7 C20_7 1_555 1_555
C32_7 C21_7 1_555 1_555
C33_8 C22_8 1_555 1_555
C34_8 C23_8 1_555 1_555
C37_7 C26_7 1_555 1_555
C38_8 C27_8 1_555 1_555
C40_7 C29_7 1_555 1_555
C41_7 C30_7 1_555 1_555
C42_7 C31_7 1_555 1_555
C43_7 C32_7 1_555 1_555
C44_8 C33_8 1_555 1_555
C45_8 C34_8 1_555 1_555
H14_7 C37_7 1_555 1_555
H15_8 C38_8 1_555 1_555
H17_7 C40_7 1_555 1_555
H18_7 C41_7 1_555 1_555
H19_7 C42_7 1_555 1_555
H20_7 C43_7 1_555 1_555
H21_8 C44_8 1_555 1_555
H22_8 C45_8 1_555 1_555
C48_7 C40_7 1_555 1_555
C49_7 C41_7 1_555 1_555
C50_7 C37_7 1_555 1_555
C51_8 C38_8 1_555 1_555
C53_7 C42_7 1_555 1_555
C54_7 C43_7 1_555 1_555
C55_8 C44_8 1_555 1_555
C56_8 C45_8 1_555 1_555
C59_7 C48_7 1_555 1_555
C60_7 C49_7 1_555 1_555
C61_7 C50_7 1_555 1_555
C62_8 C51_8 1_555 1_555
C64_7 C54_7 1_555 1_555
C65_8 C56_8 1_555 1_555
C67_7 C53_7 1_555 1_555
C68_8 C55_8 1_555 1_555
C70_7 C59_7 1_555 1_555
C71_7 C60_7 1_555 1_555
C72_7 C61_7 1_555 1_555
C73_8 C62_8 1_555 1_555
C75_7 C64_7 1_555 1_555
C76_8 C65_8 1_555 1_555
C78_7 C67_7 1_555 1_555
C79_8 C68_8 1_555 1_555
H25_7 C70_7 1_555 1_555
H26_7 C71_7 1_555 1_555
H27_7 C72_7 1_555 1_555
H28_8 C73_8 1_555 1_555
H30_7 C75_7 1_555 1_555
H31_8 C76_8 1_555 1_555
H33_7 C78_7 1_555 1_555
H34_8 C79_8 1_555 1_555
C81_7 C26_7 1_555 1_555
C82_8 C27_8 1_555 1_555
C84_7 C29_7 1_555 1_555
C85_7 C30_7 1_555 1_555
C86_7 C32_7 1_555 1_555
C87_8 C34_8 1_555 1_555
C89_7 C31_7 1_555 1_555
C90_8 C33_8 1_555 1_555
H36_7 C81_7 1_555 1_555
H37_8 C82_8 1_555 1_555
H39_7 C84_7 1_555 1_555
H40_7 C85_7 1_555 1_555
H41_7 C86_7 1_555 1_555
H42_8 C87_8 1_555 1_555
H44_7 C89_7 1_555 1_555
H45_8 C90_8 1_555 1_555
C92_7 C49_7 1_555 1_555
C93_7 C48_7 1_555 1_555
C94_7 C50_7 1_555 1_555
C95_8 C51_8 1_555 1_555
C97_7 C53_7 1_555 1_555
C98_8 C55_8 1_555 1_555
C100_7 C54_7 1_555 1_555
C101_8 C56_8 1_555 1_555
C103_7 C10_7 1_555 1_555
C104_7 C93_7 1_555 1_555
C105_7 C94_7 1_555 1_555
C106_8 C95_8 1_555 1_555
C108_7 C97_7 1_555 1_555
C109_8 C98_8 1_555 1_555
C111_7 C100_7 1_555 1_555
C112_8 C101_8 1_555 1_555
C114_7 C9_7 1_555 1_555
C115_7 C60_7 1_555 1_555
C116_7 C61_7 1_555 1_555
C117_8 C62_8 1_555 1_555
C119_7 C64_7 1_555 1_555
C120_8 C65_8 1_555 1_555
C122_7 C67_7 1_555 1_555
C123_8 C68_8 1_555 1_555
C125_7 C92_7 1_555 1_555
C126_7 C93_7 1_555 1_555
C127_7 C94_7 1_555 1_555
C128_8 C95_8 1_555 1_555
C130_7 C97_7 1_555 1_555
C131_8 C98_8 1_555 1_555
C133_7 C100_7 1_555 1_555
C134_8 C101_8 1_555 1_555
H47_7 C125_7 1_555 1_555
H48_7 C126_7 1_555 1_555
H49_7 C127_7 1_555 1_555
H50_8 C128_8 1_555 1_555
H52_7 C130_7 1_555 1_555
H53_8 C131_8 1_555 1_555
H55_7 C133_7 1_555 1_555
H56_8 C134_8 1_555 1_555
H58_7 C125_7 1_555 1_555
H59_7 C126_7 1_555 1_555
H60_7 C127_7 1_555 1_555
H61_8 C128_8 1_555 1_555
H63_7 C130_7 1_555 1_555
H64_8 C131_8 1_555 1_555
H66_7 C133_7 1_555 1_555
H67_8 C134_8 1_555 1_555
C136_7 C125_7 1_555 1_555
C137_7 C126_7 1_555 1_555
C138_7 C127_7 1_555 1_555
C139_8 C128_8 1_555 1_555
C141_7 C130_7 1_555 1_555
C142_8 C131_8 1_555 1_555
C144_7 C133_7 1_555 1_555
C145_8 C134_8 1_555 1_555
H69_7 C136_7 1_555 1_555
H70_7 C137_7 1_555 1_555
H71_7 C138_7 1_555 1_555
H72_8 C139_8 1_555 1_555
H74_7 C141_7 1_555 1_555
H75_8 C142_8 1_555 1_555
H77_7 C144_7 1_555 1_555
H78_8 C145_8 1_555 1_555
H80_7 C136_7 1_555 1_555
H81_7 C137_7 1_555 1_555
H82_7 C138_7 1_555 1_555
H83_8 C139_8 1_555 1_555
H85_7 C141_7 1_555 1_555
H86_8 C142_8 1_555 1_555
H88_7 C144_7 1_555 1_555
H89_8 C145_8 1_555 1_555
H91_7 C136_7 1_555 1_555
H92_7 C137_7 1_555 1_555
H93_7 C138_7 1_555 1_555
H94_8 C139_8 1_555 1_555
H96_7 C141_7 1_555 1_555
H97_8 C142_8 1_555 1_555
H99_7 C144_7 1_555 1_555
H100_8 C145_8 1_555 1_555
C147_7 C92_7 1_555 1_555
C148_7 C93_7 1_555 1_555
C149_7 C94_7 1_555 1_555
C150_8 C95_8 1_555 1_555
C152_7 C97_7 1_555 1_555
C153_8 C98_8 1_555 1_555
C155_7 C100_7 1_555 1_555
C156_8 C101_8 1_555 1_555
H102_7 C147_7 1_555 1_555
H103_7 C148_7 1_555 1_555
H104_7 C149_7 1_555 1_555
H105_8 C150_8 1_555 1_555
H107_7 C152_7 1_555 1_555
H108_8 C153_8 1_555 1_555
H110_7 C155_7 1_555 1_555
H111_8 C156_8 1_555 1_555
H113_7 C147_7 1_555 1_555
H114_7 C148_7 1_555 1_555
H115_7 C149_7 1_555 1_555
H116_8 C150_8 1_555 1_555
H118_7 C152_7 1_555 1_555
H119_8 C153_8 1_555 1_555
H121_7 C155_7 1_555 1_555
H122_8 C156_8 1_555 1_555
C158_7 C147_7 1_555 1_555
C159_7 C148_7 1_555 1_555
C160_7 C149_7 1_555 1_555
C161_8 C150_8 1_555 1_555
C163_7 C152_7 1_555 1_555
C164_8 C153_8 1_555 1_555
C166_7 C155_7 1_555 1_555
C167_8 C156_8 1_555 1_555
H124_7 C158_7 1_555 1_555
H125_7 C159_7 1_555 1_555
H126_7 C160_7 1_555 1_555
H127_8 C161_8 1_555 1_555
H129_7 C163_7 1_555 1_555
H130_8 C164_8 1_555 1_555
H132_7 C166_7 1_555 1_555
H133_8 C167_8 1_555 1_555
H135_7 C158_7 1_555 1_555
H136_7 C159_7 1_555 1_555
H137_7 C160_7 1_555 1_555
H138_8 C161_8 1_555 1_555
H140_7 C163_7 1_555 1_555
H141_8 C164_8 1_555 1_555
H143_7 C166_7 1_555 1_555
H144_8 C167_8 1_555 1_555
H146_7 C158_7 1_555 1_555
H147_7 C159_7 1_555 1_555
H148_7 C160_7 1_555 1_555
H149_8 C161_8 1_555 1_555
H151_7 C163_7 1_555 1_555
H152_8 C164_8 1_555 1_555
H154_7 C166_7 1_555 1_555
H155_8 C167_8 1_555 1_555
O3_11 Pb2_8 1_555 1_555
C6_7 C7_7 1_555 1_555
C9_7 C10_7 1_555 1_555
Pb2_8 O5_7 1_555 1_555
Pb11 O4_8 1_555 1_555
Pb10 O7_7 1_555 1_555
Pb10 O8_8 1_555 1_555
Pb10 O9_8 1_555 1_555
O20_7 C15_7 1_555 1_555
O24_8 C16_8 1_555 1_555
O28_7 C20_7 1_555 1_555
C59_7 C114_7 1_555 1_555
C70_7 C84_7 1_555 1_555
C71_7 C85_7 1_555 1_555
C72_7 C81_7 1_555 1_555
C73_8 C82_8 1_555 1_555
C75_7 C86_7 1_555 1_555
C76_8 C87_8 1_555 1_555
C78_7 C89_7 1_555 1_555
C79_8 C90_8 1_555 1_555
C92_7 C103_7 1_555 1_555
C103_7 C115_7 1_555 1_555
C104_7 C114_7 1_555 1_555
C104_7 C115_7 1_555 1_555
C105_7 C116_7 1_555 1_555
C105_7 C119_7 1_555 1_555
C106_8 C117_8 1_555 1_555
C106_8 C120_8 1_555 1_555
C108_7 C116_7 1_555 1_555
C108_7 C122_7 1_555 1_555
C109_8 C117_8 1_555 1_555
C109_8 C123_8 1_555 1_555
C111_7 C119_7 1_555 1_555
C111_7 C122_7 1_555 1_555
C112_8 C120_8 1_555 1_555
C112_8 C123_8 1_555 1_555
O3_12 Pb9_3 1_555 1_555
Pb17_4 O3_12 1_555 1_555
Pb6_3 O3_12 1_555 1_555
Pb5_6 O15_9 1_555 1_555
Pb6_6 O15_9 1_555 1_555
O4_9 Pb9_3 1_555 1_555
O5_8 Pb9_3 1_555 1_555
O8_9 Pb5_3 1_555 1_555
O9_9 Pb17_4 1_555 1_555
O10_6 Pb17_4 1_555 1_555
O15_9 C22_9 1_555 1_555
O5_4 C23_9 1_555 1_555
O19_8 Pb9_3 1_555 1_555
O21_9 Pb5_3 1_555 1_555
O22_9 Pb17_4 1_555 1_555
O24_9 Pb6_3 1_555 1_555
O25_6 Pb6_3 1_555 1_555
O30_9 Pb5_6 1_555 1_555
C16_9 O9_9 1_555 1_555
C22_9 O30_9 1_555 1_555
C23_9 O19_4 1_555 1_555
C27_9 C16_9 1_555 1_555
C33_9 C22_9 1_555 1_555
C34_9 C23_9 1_555 1_555
C38_9 C27_9 1_555 1_555
C44_9 C33_9 1_555 1_555
C45_9 C34_9 1_555 1_555
H15_9 C38_9 1_555 1_555
H21_9 C44_9 1_555 1_555
H22_9 C45_9 1_555 1_555
C51_9 C38_9 1_555 1_555
C55_9 C44_9 1_555 1_555
C56_9 C45_9 1_555 1_555
C62_9 C51_9 1_555 1_555
C65_9 C56_9 1_555 1_555
C68_9 C55_9 1_555 1_555
C73_9 C62_9 1_555 1_555
C76_9 C65_9 1_555 1_555
C79_9 C68_9 1_555 1_555
H28_9 C73_9 1_555 1_555
H31_9 C76_9 1_555 1_555
H34_9 C79_9 1_555 1_555
C82_9 C27_9 1_555 1_555
C87_9 C34_9 1_555 1_555
C90_9 C33_9 1_555 1_555
H37_9 C82_9 1_555 1_555
H42_9 C87_9 1_555 1_555
H45_9 C90_9 1_555 1_555
C95_9 C51_9 1_555 1_555
C98_9 C55_9 1_555 1_555
C101_9 C56_9 1_555 1_555
C106_9 C95_9 1_555 1_555
C109_9 C98_9 1_555 1_555
C112_9 C101_9 1_555 1_555
C117_9 C62_9 1_555 1_555
C120_9 C65_9 1_555 1_555
C123_9 C68_9 1_555 1_555
C128_9 C95_9 1_555 1_555
C131_9 C98_9 1_555 1_555
C134_9 C101_9 1_555 1_555
H50_9 C128_9 1_555 1_555
H53_9 C131_9 1_555 1_555
H56_9 C134_9 1_555 1_555
H61_9 C128_9 1_555 1_555
H64_9 C131_9 1_555 1_555
H67_9 C134_9 1_555 1_555
C139_9 C128_9 1_555 1_555
C142_9 C131_9 1_555 1_555
C145_9 C134_9 1_555 1_555
H72_9 C139_9 1_555 1_555
H75_9 C142_9 1_555 1_555
H78_9 C145_9 1_555 1_555
H83_9 C139_9 1_555 1_555
H86_9 C142_9 1_555 1_555
H89_9 C145_9 1_555 1_555
H94_9 C139_9 1_555 1_555
H97_9 C142_9 1_555 1_555
H100_9 C145_9 1_555 1_555
C150_9 C95_9 1_555 1_555
C153_9 C98_9 1_555 1_555
C156_9 C101_9 1_555 1_555
H105_9 C150_9 1_555 1_555
H108_9 C153_9 1_555 1_555
H111_9 C156_9 1_555 1_555
H116_9 C150_9 1_555 1_555
H119_9 C153_9 1_555 1_555
H122_9 C156_9 1_555 1_555
C161_9 C150_9 1_555 1_555
C164_9 C153_9 1_555 1_555
C167_9 C156_9 1_555 1_555
H127_9 C161_9 1_555 1_555
H130_9 C164_9 1_555 1_555
H133_9 C167_9 1_555 1_555
H138_9 C161_9 1_555 1_555
H141_9 C164_9 1_555 1_555
H144_9 C167_9 1_555 1_555
H149_9 C161_9 1_555 1_555
H152_9 C164_9 1_555 1_555
H155_9 C167_9 1_555 1_555
O3_12 Pb5_3 1_555 1_555
Pb5_3 O5_8 1_555 1_555
Pb17_4 O4_9 1_555 1_555
Pb6_3 O8_9 1_555 1_555
Pb6_3 O9_9 1_555 1_555
Pb6_3 O10_6 1_555 1_555
O24_9 C16_9 1_555 1_555
C73_9 C82_9 1_555 1_555
C76_9 C87_9 1_555 1_555
C79_9 C90_9 1_555 1_555
C106_9 C117_9 1_555 1_555
C106_9 C120_9 1_555 1_555
C109_9 C117_9 1_555 1_555
C109_9 C123_9 1_555 1_555
C112_9 C120_9 1_555 1_555
C112_9 C123_9 1_555 1_555
Pb14_3 O1_8 1_555 1_555
O1_8 C1_8 1_555 1_555
O2_8 Pb14_3 1_555 1_555
O3_13 Pb14_3 1_555 1_555
C1_8 O2_8 1_555 1_555
C2_8 C1_8 1_555 1_555
C3_8 C2_8 1_555 1_555
H1_8 C3_8 1_555 1_555
C4_8 C3_8 1_555 1_555
C5_8 C4_8 1_555 1_555
C6_8 C5_8 1_555 1_555
H2_8 C6_8 1_555 1_555
C7_8 C2_8 1_555 1_555
H3_8 C7_8 1_555 1_555
C8_8 C4_8 1_555 1_555
C9_8 C8_8 1_555 1_555
C10_8 C5_8 1_555 1_555
C11_8 C8_8 1_555 1_555
H4_8 C11_8 1_555 1_555
H5_8 C11_8 1_555 1_555
C12_8 C11_8 1_555 1_555
H6_8 C12_8 1_555 1_555
H7_8 C12_8 1_555 1_555
H8_8 C12_8 1_555 1_555
C13_8 C8_8 1_555 1_555
H9_8 C13_8 1_555 1_555
H10_8 C13_8 1_555 1_555
C14_8 C13_8 1_555 1_555
H11_8 C14_8 1_555 1_555
H12_8 C14_8 1_555 1_555
H13_8 C14_8 1_555 1_555
Pb15_3 O1_8 1_555 1_555
Pb11_3 O3_13 1_555 1_555
Pb10_3 O3_13 1_555 1_555
Pb12_6 O11_8 1_555 1_555
Pb13_6 O11_8 1_555 1_555
Pb13_2 O12_8 1_555 1_555
Pb8_9 O12_8 1_555 1_555
Pb9_12 O13_8 1_555 1_555
Pb5_11 O15_10 1_555 1_555
Pb6_11 O15_10 1_555 1_555
O4_10 Pb14_3 1_555 1_555
O7_8 Pb15_3 1_555 1_555
O8_10 Pb15_3 1_555 1_555
O9_10 Pb11_3 1_555 1_555
O11_8 C18_8 1_555 1_555
O12_8 C19_8 1_555 1_555
O13_8 Pb12_6 1_555 1_555
O10_3 C21_8 1_555 1_555
O15_10 C22_10 1_555 1_555
O5_6 C23_10 1_555 1_555
O20_8 Pb15_3 1_555 1_555
O21_10 Pb15_3 1_555 1_555
O22_10 Pb11_3 1_555 1_555
O24_10 Pb10_3 1_555 1_555
O26_8 Pb12_6 1_555 1_555
O27_8 Pb13_2 1_555 1_555
O28_8 Pb9_12 1_555 1_555
O30_10 Pb5_11 1_555 1_555
C15_8 O7_8 1_555 1_555
C16_10 O9_10 1_555 1_555
C18_8 O26_8 1_555 1_555
C19_8 O27_8 1_555 1_555
C20_8 O13_8 1_555 1_555
C21_8 O25_3 1_555 1_555
C22_10 O30_10 1_555 1_555
C23_10 O19_6 1_555 1_555
C26_8 C15_8 1_555 1_555
C27_10 C16_10 1_555 1_555
C29_8 C18_8 1_555 1_555
C30_8 C19_8 1_555 1_555
C31_8 C20_8 1_555 1_555
C32_8 C21_8 1_555 1_555
C33_10 C22_10 1_555 1_555
C34_10 C23_10 1_555 1_555
C37_8 C26_8 1_555 1_555
C38_10 C27_10 1_555 1_555
C40_8 C29_8 1_555 1_555
C41_8 C30_8 1_555 1_555
C42_8 C31_8 1_555 1_555
C43_8 C32_8 1_555 1_555
C44_10 C33_10 1_555 1_555
C45_10 C34_10 1_555 1_555
H14_8 C37_8 1_555 1_555
H15_10 C38_10 1_555 1_555
H17_8 C40_8 1_555 1_555
H18_8 C41_8 1_555 1_555
H19_8 C42_8 1_555 1_555
H20_8 C43_8 1_555 1_555
H21_10 C44_10 1_555 1_555
H22_10 C45_10 1_555 1_555
C48_8 C40_8 1_555 1_555
C49_8 C41_8 1_555 1_555
C50_8 C37_8 1_555 1_555
C51_10 C38_10 1_555 1_555
C53_8 C42_8 1_555 1_555
C54_8 C43_8 1_555 1_555
C55_10 C44_10 1_555 1_555
C56_10 C45_10 1_555 1_555
C59_8 C48_8 1_555 1_555
C60_8 C49_8 1_555 1_555
C61_8 C50_8 1_555 1_555
C62_10 C51_10 1_555 1_555
C64_8 C54_8 1_555 1_555
C65_10 C56_10 1_555 1_555
C67_8 C53_8 1_555 1_555
C68_10 C55_10 1_555 1_555
C70_8 C59_8 1_555 1_555
C71_8 C60_8 1_555 1_555
C72_8 C61_8 1_555 1_555
C73_10 C62_10 1_555 1_555
C75_8 C64_8 1_555 1_555
C76_10 C65_10 1_555 1_555
C78_8 C67_8 1_555 1_555
C79_10 C68_10 1_555 1_555
H25_8 C70_8 1_555 1_555
H26_8 C71_8 1_555 1_555
H27_8 C72_8 1_555 1_555
H28_10 C73_10 1_555 1_555
H30_8 C75_8 1_555 1_555
H31_10 C76_10 1_555 1_555
H33_8 C78_8 1_555 1_555
H34_10 C79_10 1_555 1_555
C81_8 C26_8 1_555 1_555
C82_10 C27_10 1_555 1_555
C84_8 C29_8 1_555 1_555
C85_8 C30_8 1_555 1_555
C86_8 C32_8 1_555 1_555
C87_10 C34_10 1_555 1_555
C89_8 C31_8 1_555 1_555
C90_10 C33_10 1_555 1_555
H36_8 C81_8 1_555 1_555
H37_10 C82_10 1_555 1_555
H39_8 C84_8 1_555 1_555
H40_8 C85_8 1_555 1_555
H41_8 C86_8 1_555 1_555
H42_10 C87_10 1_555 1_555
H44_8 C89_8 1_555 1_555
H45_10 C90_10 1_555 1_555
C92_8 C49_8 1_555 1_555
C93_8 C48_8 1_555 1_555
C94_8 C50_8 1_555 1_555
C95_10 C51_10 1_555 1_555
C97_8 C53_8 1_555 1_555
C98_10 C55_10 1_555 1_555
C100_8 C54_8 1_555 1_555
C101_10 C56_10 1_555 1_555
C103_8 C10_8 1_555 1_555
C104_8 C93_8 1_555 1_555
C105_8 C94_8 1_555 1_555
C106_10 C95_10 1_555 1_555
C108_8 C97_8 1_555 1_555
C109_10 C98_10 1_555 1_555
C111_8 C100_8 1_555 1_555
C112_10 C101_10 1_555 1_555
C114_8 C9_8 1_555 1_555
C115_8 C60_8 1_555 1_555
C116_8 C61_8 1_555 1_555
C117_10 C62_10 1_555 1_555
C119_8 C64_8 1_555 1_555
C120_10 C65_10 1_555 1_555
C122_8 C67_8 1_555 1_555
C123_10 C68_10 1_555 1_555
C125_8 C92_8 1_555 1_555
C126_8 C93_8 1_555 1_555
C127_8 C94_8 1_555 1_555
C128_10 C95_10 1_555 1_555
C130_8 C97_8 1_555 1_555
C131_10 C98_10 1_555 1_555
C133_8 C100_8 1_555 1_555
C134_10 C101_10 1_555 1_555
H47_8 C125_8 1_555 1_555
H48_8 C126_8 1_555 1_555
H49_8 C127_8 1_555 1_555
H50_10 C128_10 1_555 1_555
H52_8 C130_8 1_555 1_555
H53_10 C131_10 1_555 1_555
H55_8 C133_8 1_555 1_555
H56_10 C134_10 1_555 1_555
H58_8 C125_8 1_555 1_555
H59_8 C126_8 1_555 1_555
H60_8 C127_8 1_555 1_555
H61_10 C128_10 1_555 1_555
H63_8 C130_8 1_555 1_555
H64_10 C131_10 1_555 1_555
H66_8 C133_8 1_555 1_555
H67_10 C134_10 1_555 1_555
C136_8 C125_8 1_555 1_555
C137_8 C126_8 1_555 1_555
C138_8 C127_8 1_555 1_555
C139_10 C128_10 1_555 1_555
C141_8 C130_8 1_555 1_555
C142_10 C131_10 1_555 1_555
C144_8 C133_8 1_555 1_555
C145_10 C134_10 1_555 1_555
H69_8 C136_8 1_555 1_555
H70_8 C137_8 1_555 1_555
H71_8 C138_8 1_555 1_555
H72_10 C139_10 1_555 1_555
H74_8 C141_8 1_555 1_555
H75_10 C142_10 1_555 1_555
H77_8 C144_8 1_555 1_555
H78_10 C145_10 1_555 1_555
H80_8 C136_8 1_555 1_555
H81_8 C137_8 1_555 1_555
H82_8 C138_8 1_555 1_555
H83_10 C139_10 1_555 1_555
H85_8 C141_8 1_555 1_555
H86_10 C142_10 1_555 1_555
H88_8 C144_8 1_555 1_555
H89_10 C145_10 1_555 1_555
H91_8 C136_8 1_555 1_555
H92_8 C137_8 1_555 1_555
H93_8 C138_8 1_555 1_555
H94_10 C139_10 1_555 1_555
H96_8 C141_8 1_555 1_555
H97_10 C142_10 1_555 1_555
H99_8 C144_8 1_555 1_555
H100_10 C145_10 1_555 1_555
C147_8 C92_8 1_555 1_555
C148_8 C93_8 1_555 1_555
C149_8 C94_8 1_555 1_555
C150_10 C95_10 1_555 1_555
C152_8 C97_8 1_555 1_555
C153_10 C98_10 1_555 1_555
C155_8 C100_8 1_555 1_555
C156_10 C101_10 1_555 1_555
H102_8 C147_8 1_555 1_555
H103_8 C148_8 1_555 1_555
H104_8 C149_8 1_555 1_555
H105_10 C150_10 1_555 1_555
H107_8 C152_8 1_555 1_555
H108_10 C153_10 1_555 1_555
H110_8 C155_8 1_555 1_555
H111_10 C156_10 1_555 1_555
H113_8 C147_8 1_555 1_555
H114_8 C148_8 1_555 1_555
H115_8 C149_8 1_555 1_555
H116_10 C150_10 1_555 1_555
H118_8 C152_8 1_555 1_555
H119_10 C153_10 1_555 1_555
H121_8 C155_8 1_555 1_555
H122_10 C156_10 1_555 1_555
C158_8 C147_8 1_555 1_555
C159_8 C148_8 1_555 1_555
C160_8 C149_8 1_555 1_555
C161_10 C150_10 1_555 1_555
C163_8 C152_8 1_555 1_555
C164_10 C153_10 1_555 1_555
C166_8 C155_8 1_555 1_555
C167_10 C156_10 1_555 1_555
H124_8 C158_8 1_555 1_555
H125_8 C159_8 1_555 1_555
H126_8 C160_8 1_555 1_555
H127_10 C161_10 1_555 1_555
H129_8 C163_8 1_555 1_555
H130_10 C164_10 1_555 1_555
H132_8 C166_8 1_555 1_555
H133_10 C167_10 1_555 1_555
H135_8 C158_8 1_555 1_555
H136_8 C159_8 1_555 1_555
H137_8 C160_8 1_555 1_555
H138_10 C161_10 1_555 1_555
H140_8 C163_8 1_555 1_555
H141_10 C164_10 1_555 1_555
H143_8 C166_8 1_555 1_555
H144_10 C167_10 1_555 1_555
H146_8 C158_8 1_555 1_555
H147_8 C159_8 1_555 1_555
H148_8 C160_8 1_555 1_555
H149_10 C161_10 1_555 1_555
H151_8 C163_8 1_555 1_555
H152_10 C164_10 1_555 1_555
H154_8 C166_8 1_555 1_555
H155_10 C167_10 1_555 1_555
O3_13 Pb15_3 1_555 1_555
C6_8 C7_8 1_555 1_555
C9_8 C10_8 1_555 1_555
Pb11_3 O4_10 1_555 1_555
Pb10_3 O7_8 1_555 1_555
Pb10_3 O8_10 1_555 1_555
Pb10_3 O9_10 1_555 1_555
O20_8 C15_8 1_555 1_555
O24_10 C16_10 1_555 1_555
O28_8 C20_8 1_555 1_555
C59_8 C114_8 1_555 1_555
C70_8 C84_8 1_555 1_555
C71_8 C85_8 1_555 1_555
C72_8 C81_8 1_555 1_555
C73_10 C82_10 1_555 1_555
C75_8 C86_8 1_555 1_555
C76_10 C87_10 1_555 1_555
C78_8 C89_8 1_555 1_555
C79_10 C90_10 1_555 1_555
C92_8 C103_8 1_555 1_555
C103_8 C115_8 1_555 1_555
C104_8 C114_8 1_555 1_555
C104_8 C115_8 1_555 1_555
C105_8 C116_8 1_555 1_555
C105_8 C119_8 1_555 1_555
C106_10 C117_10 1_555 1_555
C106_10 C120_10 1_555 1_555
C108_8 C116_8 1_555 1_555
C108_8 C122_8 1_555 1_555
C109_10 C117_10 1_555 1_555
C109_10 C123_10 1_555 1_555
C111_8 C119_8 1_555 1_555
C111_8 C122_8 1_555 1_555
C112_10 C120_10 1_555 1_555
C112_10 C123_10 1_555 1_555
Pb14_4 O1_9 1_555 1_555
O1_9 C1_9 1_555 1_555
O2_9 Pb14_4 1_555 1_555
O3_14 Pb14_4 1_555 1_555
C1_9 O2_9 1_555 1_555
C2_9 C1_9 1_555 1_555
C3_9 C2_9 1_555 1_555
H1_9 C3_9 1_555 1_555
C4_9 C3_9 1_555 1_555
C5_9 C4_9 1_555 1_555
C6_9 C5_9 1_555 1_555
H2_9 C6_9 1_555 1_555
C7_9 C2_9 1_555 1_555
H3_9 C7_9 1_555 1_555
C8_9 C4_9 1_555 1_555
C9_9 C8_9 1_555 1_555
C10_9 C5_9 1_555 1_555
C11_9 C8_9 1_555 1_555
H4_9 C11_9 1_555 1_555
H5_9 C11_9 1_555 1_555
C12_9 C11_9 1_555 1_555
H6_9 C12_9 1_555 1_555
H7_9 C12_9 1_555 1_555
H8_9 C12_9 1_555 1_555
C13_9 C8_9 1_555 1_555
H9_9 C13_9 1_555 1_555
H10_9 C13_9 1_555 1_555
C14_9 C13_9 1_555 1_555
H11_9 C14_9 1_555 1_555
H12_9 C14_9 1_555 1_555
H13_9 C14_9 1_555 1_555
Pb15_4 O1_9 1_555 1_555
Pb16_3 O3_14 1_555 1_555
Pb7_8 O3_14 1_555 1_555
Pb12_5 O11_9 1_555 1_555
Pb13_5 O11_9 1_555 1_555
Pb9_15 O13_9 1_555 1_555
Pb6_9 O14_6 1_555 1_555
Pb11_9 O14_6 1_555 1_555
Pb12_13 O15_11 1_555 1_555
Pb7_4 O15_11 1_555 1_555
O4_11 Pb14_4 1_555 1_555
O7_9 Pb15_4 1_555 1_555
O8_11 Pb15_4 1_555 1_555
O9_11 Pb16_3 1_555 1_555
O11_9 C18_9 1_555 1_555
O10_5 C19_9 1_555 1_555
O13_9 Pb12_5 1_555 1_555
O14_6 C21_9 1_555 1_555
O15_11 C22_11 1_555 1_555
O5_8 C23_11 1_555 1_555
O20_9 Pb15_4 1_555 1_555
O21_11 Pb15_4 1_555 1_555
O22_11 Pb16_3 1_555 1_555
O24_11 Pb7_8 1_555 1_555
O26_9 Pb12_5 1_555 1_555
O28_9 Pb9_15 1_555 1_555
O29_6 Pb6_9 1_555 1_555
O30_11 Pb12_13 1_555 1_555
C15_9 O7_9 1_555 1_555
C16_11 O9_11 1_555 1_555
C18_9 O26_9 1_555 1_555
C19_9 O25_5 1_555 1_555
C20_9 O13_9 1_555 1_555
C21_9 O29_6 1_555 1_555
C22_11 O30_11 1_555 1_555
C23_11 O19_8 1_555 1_555
C26_9 C15_9 1_555 1_555
C27_11 C16_11 1_555 1_555
C29_9 C18_9 1_555 1_555
C30_9 C19_9 1_555 1_555
C31_9 C20_9 1_555 1_555
C32_9 C21_9 1_555 1_555
C33_11 C22_11 1_555 1_555
C34_11 C23_11 1_555 1_555
C37_9 C26_9 1_555 1_555
C38_11 C27_11 1_555 1_555
C40_9 C29_9 1_555 1_555
C41_9 C30_9 1_555 1_555
C42_9 C31_9 1_555 1_555
C43_9 C32_9 1_555 1_555
C44_11 C33_11 1_555 1_555
C45_11 C34_11 1_555 1_555
H14_9 C37_9 1_555 1_555
H15_11 C38_11 1_555 1_555
H17_9 C40_9 1_555 1_555
H18_9 C41_9 1_555 1_555
H19_9 C42_9 1_555 1_555
H20_9 C43_9 1_555 1_555
H21_11 C44_11 1_555 1_555
H22_11 C45_11 1_555 1_555
C48_9 C40_9 1_555 1_555
C49_9 C41_9 1_555 1_555
C50_9 C37_9 1_555 1_555
C51_11 C38_11 1_555 1_555
C53_9 C42_9 1_555 1_555
C54_9 C43_9 1_555 1_555
C55_11 C44_11 1_555 1_555
C56_11 C45_11 1_555 1_555
C59_9 C48_9 1_555 1_555
C60_9 C49_9 1_555 1_555
C61_9 C50_9 1_555 1_555
C62_11 C51_11 1_555 1_555
C64_9 C54_9 1_555 1_555
C65_11 C56_11 1_555 1_555
C67_9 C53_9 1_555 1_555
C68_11 C55_11 1_555 1_555
C70_9 C59_9 1_555 1_555
C71_9 C60_9 1_555 1_555
C72_9 C61_9 1_555 1_555
C73_11 C62_11 1_555 1_555
C75_9 C64_9 1_555 1_555
C76_11 C65_11 1_555 1_555
C78_9 C67_9 1_555 1_555
C79_11 C68_11 1_555 1_555
H25_9 C70_9 1_555 1_555
H26_9 C71_9 1_555 1_555
H27_9 C72_9 1_555 1_555
H28_11 C73_11 1_555 1_555
H30_9 C75_9 1_555 1_555
H31_11 C76_11 1_555 1_555
H33_9 C78_9 1_555 1_555
H34_11 C79_11 1_555 1_555
C81_9 C26_9 1_555 1_555
C82_11 C27_11 1_555 1_555
C84_9 C29_9 1_555 1_555
C85_9 C30_9 1_555 1_555
C86_9 C32_9 1_555 1_555
C87_11 C34_11 1_555 1_555
C89_9 C31_9 1_555 1_555
C90_11 C33_11 1_555 1_555
H36_9 C81_9 1_555 1_555
H37_11 C82_11 1_555 1_555
H39_9 C84_9 1_555 1_555
H40_9 C85_9 1_555 1_555
H41_9 C86_9 1_555 1_555
H42_11 C87_11 1_555 1_555
H44_9 C89_9 1_555 1_555
H45_11 C90_11 1_555 1_555
C92_9 C49_9 1_555 1_555
C93_9 C48_9 1_555 1_555
C94_9 C50_9 1_555 1_555
C95_11 C51_11 1_555 1_555
C97_9 C53_9 1_555 1_555
C98_11 C55_11 1_555 1_555
C100_9 C54_9 1_555 1_555
C101_11 C56_11 1_555 1_555
C103_9 C10_9 1_555 1_555
C104_9 C93_9 1_555 1_555
C105_9 C94_9 1_555 1_555
C106_11 C95_11 1_555 1_555
C108_9 C97_9 1_555 1_555
C109_11 C98_11 1_555 1_555
C111_9 C100_9 1_555 1_555
C112_11 C101_11 1_555 1_555
C114_9 C9_9 1_555 1_555
C115_9 C60_9 1_555 1_555
C116_9 C61_9 1_555 1_555
C117_11 C62_11 1_555 1_555
C119_9 C64_9 1_555 1_555
C120_11 C65_11 1_555 1_555
C122_9 C67_9 1_555 1_555
C123_11 C68_11 1_555 1_555
C125_9 C92_9 1_555 1_555
C126_9 C93_9 1_555 1_555
C127_9 C94_9 1_555 1_555
C128_11 C95_11 1_555 1_555
C130_9 C97_9 1_555 1_555
C131_11 C98_11 1_555 1_555
C133_9 C100_9 1_555 1_555
C134_11 C101_11 1_555 1_555
H47_9 C125_9 1_555 1_555
H48_9 C126_9 1_555 1_555
H49_9 C127_9 1_555 1_555
H50_11 C128_11 1_555 1_555
H52_9 C130_9 1_555 1_555
H53_11 C131_11 1_555 1_555
H55_9 C133_9 1_555 1_555
H56_11 C134_11 1_555 1_555
H58_9 C125_9 1_555 1_555
H59_9 C126_9 1_555 1_555
H60_9 C127_9 1_555 1_555
H61_11 C128_11 1_555 1_555
H63_9 C130_9 1_555 1_555
H64_11 C131_11 1_555 1_555
H66_9 C133_9 1_555 1_555
H67_11 C134_11 1_555 1_555
C136_9 C125_9 1_555 1_555
C137_9 C126_9 1_555 1_555
C138_9 C127_9 1_555 1_555
C139_11 C128_11 1_555 1_555
C141_9 C130_9 1_555 1_555
C142_11 C131_11 1_555 1_555
C144_9 C133_9 1_555 1_555
C145_11 C134_11 1_555 1_555
H69_9 C136_9 1_555 1_555
H70_9 C137_9 1_555 1_555
H71_9 C138_9 1_555 1_555
H72_11 C139_11 1_555 1_555
H74_9 C141_9 1_555 1_555
H75_11 C142_11 1_555 1_555
H77_9 C144_9 1_555 1_555
H78_11 C145_11 1_555 1_555
H80_9 C136_9 1_555 1_555
H81_9 C137_9 1_555 1_555
H82_9 C138_9 1_555 1_555
H83_11 C139_11 1_555 1_555
H85_9 C141_9 1_555 1_555
H86_11 C142_11 1_555 1_555
H88_9 C144_9 1_555 1_555
H89_11 C145_11 1_555 1_555
H91_9 C136_9 1_555 1_555
H92_9 C137_9 1_555 1_555
H93_9 C138_9 1_555 1_555
H94_11 C139_11 1_555 1_555
H96_9 C141_9 1_555 1_555
H97_11 C142_11 1_555 1_555
H99_9 C144_9 1_555 1_555
H100_11 C145_11 1_555 1_555
C147_9 C92_9 1_555 1_555
C148_9 C93_9 1_555 1_555
C149_9 C94_9 1_555 1_555
C150_11 C95_11 1_555 1_555
C152_9 C97_9 1_555 1_555
C153_11 C98_11 1_555 1_555
C155_9 C100_9 1_555 1_555
C156_11 C101_11 1_555 1_555
H102_9 C147_9 1_555 1_555
H103_9 C148_9 1_555 1_555
H104_9 C149_9 1_555 1_555
H105_11 C150_11 1_555 1_555
H107_9 C152_9 1_555 1_555
H108_11 C153_11 1_555 1_555
H110_9 C155_9 1_555 1_555
H111_11 C156_11 1_555 1_555
H113_9 C147_9 1_555 1_555
H114_9 C148_9 1_555 1_555
H115_9 C149_9 1_555 1_555
H116_11 C150_11 1_555 1_555
H118_9 C152_9 1_555 1_555
H119_11 C153_11 1_555 1_555
H121_9 C155_9 1_555 1_555
H122_11 C156_11 1_555 1_555
C158_9 C147_9 1_555 1_555
C159_9 C148_9 1_555 1_555
C160_9 C149_9 1_555 1_555
C161_11 C150_11 1_555 1_555
C163_9 C152_9 1_555 1_555
C164_11 C153_11 1_555 1_555
C166_9 C155_9 1_555 1_555
C167_11 C156_11 1_555 1_555
H124_9 C158_9 1_555 1_555
H125_9 C159_9 1_555 1_555
H126_9 C160_9 1_555 1_555
H127_11 C161_11 1_555 1_555
H129_9 C163_9 1_555 1_555
H130_11 C164_11 1_555 1_555
H132_9 C166_9 1_555 1_555
H133_11 C167_11 1_555 1_555
H135_9 C158_9 1_555 1_555
H136_9 C159_9 1_555 1_555
H137_9 C160_9 1_555 1_555
H138_11 C161_11 1_555 1_555
H140_9 C163_9 1_555 1_555
H141_11 C164_11 1_555 1_555
H143_9 C166_9 1_555 1_555
H144_11 C167_11 1_555 1_555
H146_9 C158_9 1_555 1_555
H147_9 C159_9 1_555 1_555
H148_9 C160_9 1_555 1_555
H149_11 C161_11 1_555 1_555
H151_9 C163_9 1_555 1_555
H152_11 C164_11 1_555 1_555
H154_9 C166_9 1_555 1_555
H155_11 C167_11 1_555 1_555
O3_14 Pb15_4 1_555 1_555
C6_9 C7_9 1_555 1_555
C9_9 C10_9 1_555 1_555
Pb16_3 O4_11 1_555 1_555
Pb7_8 O7_9 1_555 1_555
Pb7_8 O8_11 1_555 1_555
Pb7_8 O9_11 1_555 1_555
O20_9 C15_9 1_555 1_555
O24_11 C16_11 1_555 1_555
O28_9 C20_9 1_555 1_555
C59_9 C114_9 1_555 1_555
C70_9 C84_9 1_555 1_555
C71_9 C85_9 1_555 1_555
C72_9 C81_9 1_555 1_555
C73_11 C82_11 1_555 1_555
C75_9 C86_9 1_555 1_555
C76_11 C87_11 1_555 1_555
C78_9 C89_9 1_555 1_555
C79_11 C90_11 1_555 1_555
C92_9 C103_9 1_555 1_555
C103_9 C115_9 1_555 1_555
C104_9 C114_9 1_555 1_555
C104_9 C115_9 1_555 1_555
C105_9 C116_9 1_555 1_555
C105_9 C119_9 1_555 1_555
C106_11 C117_11 1_555 1_555
C106_11 C120_11 1_555 1_555
C108_9 C116_9 1_555 1_555
C108_9 C122_9 1_555 1_555
C109_11 C117_11 1_555 1_555
C109_11 C123_11 1_555 1_555
C111_9 C119_9 1_555 1_555
C111_9 C122_9 1_555 1_555
C112_11 C120_11 1_555 1_555
C112_11 C123_11 1_555 1_555
O3_15 Pb9_2 1_555 1_555
Pb16_4 O3_15 1_555 1_555
Pb6_2 O3_15 1_555 1_555
Pb5_8 O15_12 1_555 1_555
Pb6_8 O15_12 1_555 1_555
O4_12 Pb9_2 1_555 1_555
O8_12 Pb5_2 1_555 1_555
O9_12 Pb16_4 1_555 1_555
O10_7 Pb16_4 1_555 1_555
O15_12 C22_12 1_555 1_555
O5_7 C23_12 1_555 1_555
O21_12 Pb5_2 1_555 1_555
O22_12 Pb16_4 1_555 1_555
O24_12 Pb6_2 1_555 1_555
O25_7 Pb6_2 1_555 1_555
O30_12 Pb5_8 1_555 1_555
C16_12 O9_12 1_555 1_555
C22_12 O30_12 1_555 1_555
C23_12 O19_7 1_555 1_555
C27_12 C16_12 1_555 1_555
C33_12 C22_12 1_555 1_555
C34_12 C23_12 1_555 1_555
C38_12 C27_12 1_555 1_555
C44_12 C33_12 1_555 1_555
C45_12 C34_12 1_555 1_555
H15_12 C38_12 1_555 1_555
H21_12 C44_12 1_555 1_555
H22_12 C45_12 1_555 1_555
C51_12 C38_12 1_555 1_555
C55_12 C44_12 1_555 1_555
C56_12 C45_12 1_555 1_555
C62_12 C51_12 1_555 1_555
C65_12 C56_12 1_555 1_555
C68_12 C55_12 1_555 1_555
C73_12 C62_12 1_555 1_555
C76_12 C65_12 1_555 1_555
C79_12 C68_12 1_555 1_555
H28_12 C73_12 1_555 1_555
H31_12 C76_12 1_555 1_555
H34_12 C79_12 1_555 1_555
C82_12 C27_12 1_555 1_555
C87_12 C34_12 1_555 1_555
C90_12 C33_12 1_555 1_555
H37_12 C82_12 1_555 1_555
H42_12 C87_12 1_555 1_555
H45_12 C90_12 1_555 1_555
C95_12 C51_12 1_555 1_555
C98_12 C55_12 1_555 1_555
C101_12 C56_12 1_555 1_555
C106_12 C95_12 1_555 1_555
C109_12 C98_12 1_555 1_555
C112_12 C101_12 1_555 1_555
C117_12 C62_12 1_555 1_555
C120_12 C65_12 1_555 1_555
C123_12 C68_12 1_555 1_555
C128_12 C95_12 1_555 1_555
C131_12 C98_12 1_555 1_555
C134_12 C101_12 1_555 1_555
H50_12 C128_12 1_555 1_555
H53_12 C131_12 1_555 1_555
H56_12 C134_12 1_555 1_555
H61_12 C128_12 1_555 1_555
H64_12 C131_12 1_555 1_555
H67_12 C134_12 1_555 1_555
C139_12 C128_12 1_555 1_555
C142_12 C131_12 1_555 1_555
C145_12 C134_12 1_555 1_555
H72_12 C139_12 1_555 1_555
H75_12 C142_12 1_555 1_555
H78_12 C145_12 1_555 1_555
H83_12 C139_12 1_555 1_555
H86_12 C142_12 1_555 1_555
H89_12 C145_12 1_555 1_555
H94_12 C139_12 1_555 1_555
H97_12 C142_12 1_555 1_555
H100_12 C145_12 1_555 1_555
C150_12 C95_12 1_555 1_555
C153_12 C98_12 1_555 1_555
C156_12 C101_12 1_555 1_555
H105_12 C150_12 1_555 1_555
H108_12 C153_12 1_555 1_555
H111_12 C156_12 1_555 1_555
H116_12 C150_12 1_555 1_555
H119_12 C153_12 1_555 1_555
H122_12 C156_12 1_555 1_555
C161_12 C150_12 1_555 1_555
C164_12 C153_12 1_555 1_555
C167_12 C156_12 1_555 1_555
H127_12 C161_12 1_555 1_555
H130_12 C164_12 1_555 1_555
H133_12 C167_12 1_555 1_555
H138_12 C161_12 1_555 1_555
H141_12 C164_12 1_555 1_555
H144_12 C167_12 1_555 1_555
H149_12 C161_12 1_555 1_555
H152_12 C164_12 1_555 1_555
H155_12 C167_12 1_555 1_555
O3_15 Pb5_2 1_555 1_555
Pb16_4 O4_12 1_555 1_555
Pb6_2 O8_12 1_555 1_555
Pb6_2 O9_12 1_555 1_555
Pb6_2 O10_7 1_555 1_555
O24_12 C16_12 1_555 1_555
C73_12 C82_12 1_555 1_555
C76_12 C87_12 1_555 1_555
C79_12 C90_12 1_555 1_555
C106_12 C117_12 1_555 1_555
C106_12 C120_12 1_555 1_555
C109_12 C117_12 1_555 1_555
C109_12 C123_12 1_555 1_555
C112_12 C120_12 1_555 1_555
C112_12 C123_12 1_555 1_555
O4_12 C1_10 1_555 1_555
C1_10 O22_12 1_555 1_555
C2_10 C1_10 1_555 1_555
C3_10 C2_10 1_555 1_555
H1_10 C3_10 1_555 1_555
C4_10 C3_10 1_555 1_555
C5_10 C4_10 1_555 1_555
C6_10 C5_10 1_555 1_555
H2_10 C6_10 1_555 1_555
C7_10 C2_10 1_555 1_555
H3_10 C7_10 1_555 1_555
C8_10 C4_10 1_555 1_555
C9_10 C8_10 1_555 1_555
C10_10 C5_10 1_555 1_555
C11_10 C8_10 1_555 1_555
H4_10 C11_10 1_555 1_555
H5_10 C11_10 1_555 1_555
C12_10 C11_10 1_555 1_555
H6_10 C12_10 1_555 1_555
H7_10 C12_10 1_555 1_555
H8_10 C12_10 1_555 1_555
C13_10 C8_10 1_555 1_555
H9_10 C13_10 1_555 1_555
H10_10 C13_10 1_555 1_555
C14_10 C13_10 1_555 1_555
H11_10 C14_10 1_555 1_555
H12_10 C14_10 1_555 1_555
H13_10 C14_10 1_555 1_555
Pb8_7 O12_9 1_555 1_555
Pb8_10 O12_9 1_555 1_555
Pb12_15 O15_13 1_555 1_555
Pb12_9 O15_13 1_555 1_555
Pb6_8 O16_5 1_555 1_555
Pb11_8 O16_5 1_555 1_555
O4_5 C18_10 1_555 1_555
O12_9 C19_10 1_555 1_555
O15_13 C22_13 1_555 1_555
O16_5 C23_13 1_555 1_555
O27_9 Pb8_7 1_555 1_555
O30_13 Pb12_15 1_555 1_555
O31_5 Pb6_8 1_555 1_555
C16_13 O8_12 1_555 1_555
C18_10 O22_5 1_555 1_555
C19_10 O27_9 1_555 1_555
C22_13 O30_13 1_555 1_555
C23_13 O31_5 1_555 1_555
C27_13 C16_13 1_555 1_555
C29_10 C18_10 1_555 1_555
C30_10 C19_10 1_555 1_555
C33_13 C22_13 1_555 1_555
C34_13 C23_13 1_555 1_555
C38_13 C27_13 1_555 1_555
C40_10 C29_10 1_555 1_555
C41_10 C30_10 1_555 1_555
C44_13 C33_13 1_555 1_555
C45_13 C34_13 1_555 1_555
H15_13 C38_13 1_555 1_555
H17_10 C40_10 1_555 1_555
H18_10 C41_10 1_555 1_555
H21_13 C44_13 1_555 1_555
H22_13 C45_13 1_555 1_555
C48_10 C40_10 1_555 1_555
C49_10 C41_10 1_555 1_555
C51_13 C38_13 1_555 1_555
C55_13 C44_13 1_555 1_555
C56_13 C45_13 1_555 1_555
C59_10 C48_10 1_555 1_555
C60_10 C49_10 1_555 1_555
C62_13 C51_13 1_555 1_555
C65_13 C56_13 1_555 1_555
C68_13 C55_13 1_555 1_555
C70_10 C59_10 1_555 1_555
C71_10 C60_10 1_555 1_555
C73_13 C62_13 1_555 1_555
C76_13 C65_13 1_555 1_555
C79_13 C68_13 1_555 1_555
H25_10 C70_10 1_555 1_555
H26_10 C71_10 1_555 1_555
H28_13 C73_13 1_555 1_555
H31_13 C76_13 1_555 1_555
H34_13 C79_13 1_555 1_555
C82_13 C27_13 1_555 1_555
C84_10 C29_10 1_555 1_555
C85_10 C30_10 1_555 1_555
C87_13 C34_13 1_555 1_555
C90_13 C33_13 1_555 1_555
H37_13 C82_13 1_555 1_555
H39_10 C84_10 1_555 1_555
H40_10 C85_10 1_555 1_555
H42_13 C87_13 1_555 1_555
H45_13 C90_13 1_555 1_555
C92_10 C49_10 1_555 1_555
C93_10 C48_10 1_555 1_555
C95_13 C51_13 1_555 1_555
C98_13 C55_13 1_555 1_555
C101_13 C56_13 1_555 1_555
C103_10 C10_10 1_555 1_555
C104_10 C93_10 1_555 1_555
C106_13 C95_13 1_555 1_555
C109_13 C98_13 1_555 1_555
C112_13 C101_13 1_555 1_555
C114_10 C9_10 1_555 1_555
C115_10 C60_10 1_555 1_555
C117_13 C62_13 1_555 1_555
C120_13 C65_13 1_555 1_555
C123_13 C68_13 1_555 1_555
C125_10 C92_10 1_555 1_555
C126_10 C93_10 1_555 1_555
C128_13 C95_13 1_555 1_555
C131_13 C98_13 1_555 1_555
C134_13 C101_13 1_555 1_555
H47_10 C125_10 1_555 1_555
H48_10 C126_10 1_555 1_555
H50_13 C128_13 1_555 1_555
H53_13 C131_13 1_555 1_555
H56_13 C134_13 1_555 1_555
H58_10 C125_10 1_555 1_555
H59_10 C126_10 1_555 1_555
H61_13 C128_13 1_555 1_555
H64_13 C131_13 1_555 1_555
H67_13 C134_13 1_555 1_555
C136_10 C125_10 1_555 1_555
C137_10 C126_10 1_555 1_555
C139_13 C128_13 1_555 1_555
C142_13 C131_13 1_555 1_555
C145_13 C134_13 1_555 1_555
H69_10 C136_10 1_555 1_555
H70_10 C137_10 1_555 1_555
H72_13 C139_13 1_555 1_555
H75_13 C142_13 1_555 1_555
H78_13 C145_13 1_555 1_555
H80_10 C136_10 1_555 1_555
H81_10 C137_10 1_555 1_555
H83_13 C139_13 1_555 1_555
H86_13 C142_13 1_555 1_555
H89_13 C145_13 1_555 1_555
H91_10 C136_10 1_555 1_555
H92_10 C137_10 1_555 1_555
H94_13 C139_13 1_555 1_555
H97_13 C142_13 1_555 1_555
H100_13 C145_13 1_555 1_555
C147_10 C92_10 1_555 1_555
C148_10 C93_10 1_555 1_555
C150_13 C95_13 1_555 1_555
C153_13 C98_13 1_555 1_555
C156_13 C101_13 1_555 1_555
H102_10 C147_10 1_555 1_555
H103_10 C148_10 1_555 1_555
H105_13 C150_13 1_555 1_555
H108_13 C153_13 1_555 1_555
H111_13 C156_13 1_555 1_555
H113_10 C147_10 1_555 1_555
H114_10 C148_10 1_555 1_555
H116_13 C150_13 1_555 1_555
H119_13 C153_13 1_555 1_555
H122_13 C156_13 1_555 1_555
C158_10 C147_10 1_555 1_555
C159_10 C148_10 1_555 1_555
C161_13 C150_13 1_555 1_555
C164_13 C153_13 1_555 1_555
C167_13 C156_13 1_555 1_555
H124_10 C158_10 1_555 1_555
H125_10 C159_10 1_555 1_555
H127_13 C161_13 1_555 1_555
H130_13 C164_13 1_555 1_555
H133_13 C167_13 1_555 1_555
H135_10 C158_10 1_555 1_555
H136_10 C159_10 1_555 1_555
H138_13 C161_13 1_555 1_555
H141_13 C164_13 1_555 1_555
H144_13 C167_13 1_555 1_555
H146_10 C158_10 1_555 1_555
H147_10 C159_10 1_555 1_555
H149_13 C161_13 1_555 1_555
H152_13 C164_13 1_555 1_555
H155_13 C167_13 1_555 1_555
C6_10 C7_10 1_555 1_555
C9_10 C10_10 1_555 1_555
O21_12 C16_13 1_555 1_555
C59_10 C114_10 1_555 1_555
C70_10 C84_10 1_555 1_555
C71_10 C85_10 1_555 1_555
C73_13 C82_13 1_555 1_555
C76_13 C87_13 1_555 1_555
C79_13 C90_13 1_555 1_555
C92_10 C103_10 1_555 1_555
C103_10 C115_10 1_555 1_555
C104_10 C114_10 1_555 1_555
C104_10 C115_10 1_555 1_555
C106_13 C117_13 1_555 1_555
C106_13 C120_13 1_555 1_555
C109_13 C117_13 1_555 1_555
C109_13 C123_13 1_555 1_555
C112_13 C120_13 1_555 1_555
C112_13 C123_13 1_555 1_555
O3_16 Pb6_8 1_555 1_555
Pb5_8 O3_16 1_555 1_555
Pb9_8 O3_16 1_555 1_555
Pb6_5 O15_14 1_555 1_555
Pb13_9 O15_14 1_555 1_555
O8_13 Pb11_8 1_555 1_555
O9_13 Pb5_8 1_555 1_555
O15_14 C22_14 1_555 1_555
O8_8 C23_14 1_555 1_555
O21_13 Pb11_8 1_555 1_555
O24_13 Pb9_8 1_555 1_555
O30_14 Pb6_5 1_555 1_555
C16_14 O9_13 1_555 1_555
C22_14 O30_14 1_555 1_555
C23_14 O21_8 1_555 1_555
C27_14 C16_14 1_555 1_555
C33_14 C22_14 1_555 1_555
C34_14 C23_14 1_555 1_555
C38_14 C27_14 1_555 1_555
C44_14 C33_14 1_555 1_555
C45_14 C34_14 1_555 1_555
H15_14 C38_14 1_555 1_555
H21_14 C44_14 1_555 1_555
H22_14 C45_14 1_555 1_555
C51_14 C38_14 1_555 1_555
C55_14 C44_14 1_555 1_555
C56_14 C45_14 1_555 1_555
C62_14 C51_14 1_555 1_555
C65_14 C56_14 1_555 1_555
C68_14 C55_14 1_555 1_555
C73_14 C62_14 1_555 1_555
C76_14 C65_14 1_555 1_555
C79_14 C68_14 1_555 1_555
H28_14 C73_14 1_555 1_555
H31_14 C76_14 1_555 1_555
H34_14 C79_14 1_555 1_555
C82_14 C27_14 1_555 1_555
C87_14 C34_14 1_555 1_555
C90_14 C33_14 1_555 1_555
H37_14 C82_14 1_555 1_555
H42_14 C87_14 1_555 1_555
H45_14 C90_14 1_555 1_555
C95_14 C51_14 1_555 1_555
C98_14 C55_14 1_555 1_555
C101_14 C56_14 1_555 1_555
C106_14 C95_14 1_555 1_555
C109_14 C98_14 1_555 1_555
C112_14 C101_14 1_555 1_555
C117_14 C62_14 1_555 1_555
C120_14 C65_14 1_555 1_555
C123_14 C68_14 1_555 1_555
C128_14 C95_14 1_555 1_555
C131_14 C98_14 1_555 1_555
C134_14 C101_14 1_555 1_555
H50_14 C128_14 1_555 1_555
H53_14 C131_14 1_555 1_555
H56_14 C134_14 1_555 1_555
H61_14 C128_14 1_555 1_555
H64_14 C131_14 1_555 1_555
H67_14 C134_14 1_555 1_555
C139_14 C128_14 1_555 1_555
C142_14 C131_14 1_555 1_555
C145_14 C134_14 1_555 1_555
H72_14 C139_14 1_555 1_555
H75_14 C142_14 1_555 1_555
H78_14 C145_14 1_555 1_555
H83_14 C139_14 1_555 1_555
H86_14 C142_14 1_555 1_555
H89_14 C145_14 1_555 1_555
H94_14 C139_14 1_555 1_555
H97_14 C142_14 1_555 1_555
H100_14 C145_14 1_555 1_555
C150_14 C95_14 1_555 1_555
C153_14 C98_14 1_555 1_555
C156_14 C101_14 1_555 1_555
H105_14 C150_14 1_555 1_555
H108_14 C153_14 1_555 1_555
H111_14 C156_14 1_555 1_555
H116_14 C150_14 1_555 1_555
H119_14 C153_14 1_555 1_555
H122_14 C156_14 1_555 1_555
C161_14 C150_14 1_555 1_555
C164_14 C153_14 1_555 1_555
C167_14 C156_14 1_555 1_555
H127_14 C161_14 1_555 1_555
H130_14 C164_14 1_555 1_555
H133_14 C167_14 1_555 1_555
H138_14 C161_14 1_555 1_555
H141_14 C164_14 1_555 1_555
H144_14 C167_14 1_555 1_555
H149_14 C161_14 1_555 1_555
H152_14 C164_14 1_555 1_555
H155_14 C167_14 1_555 1_555
O3_16 Pb11_8 1_555 1_555
Pb9_8 O8_13 1_555 1_555
Pb9_8 O9_13 1_555 1_555
O24_13 C16_14 1_555 1_555
C73_14 C82_14 1_555 1_555
C76_14 C87_14 1_555 1_555
C79_14 C90_14 1_555 1_555
C106_14 C117_14 1_555 1_555
C106_14 C120_14 1_555 1_555
C109_14 C117_14 1_555 1_555
C109_14 C123_14 1_555 1_555
C112_14 C120_14 1_555 1_555
C112_14 C123_14 1_555 1_555
O3_17 Pb6_9 1_555 1_555
Pb5_9 O3_17 1_555 1_555
Pb9_9 O3_17 1_555 1_555
Pb11_5 O13_10 1_555 1_555
Pb11_7 O14_7 1_555 1_555
Pb9_7 O14_7 1_555 1_555
O7_10 Pb11_9 1_555 1_555
O13_10 Pb9_15 1_555 1_555
O14_7 C21_10 1_555 1_555
O20_10 Pb11_9 1_555 1_555
O28_10 Pb11_5 1_555 1_555
O29_7 Pb11_7 1_555 1_555
C15_10 O7_10 1_555 1_555
C20_10 O13_10 1_555 1_555
C21_10 O29_7 1_555 1_555
C26_10 C15_10 1_555 1_555
C31_10 C20_10 1_555 1_555
C32_10 C21_10 1_555 1_555
C37_10 C26_10 1_555 1_555
C42_10 C31_10 1_555 1_555
C43_10 C32_10 1_555 1_555
H14_10 C37_10 1_555 1_555
H19_10 C42_10 1_555 1_555
H20_10 C43_10 1_555 1_555
C50_10 C37_10 1_555 1_555
C53_10 C42_10 1_555 1_555
C54_10 C43_10 1_555 1_555
C61_10 C50_10 1_555 1_555
C64_10 C54_10 1_555 1_555
C67_10 C53_10 1_555 1_555
C72_10 C61_10 1_555 1_555
C75_10 C64_10 1_555 1_555
C78_10 C67_10 1_555 1_555
H27_10 C72_10 1_555 1_555
H30_10 C75_10 1_555 1_555
H33_10 C78_10 1_555 1_555
C81_10 C26_10 1_555 1_555
C86_10 C32_10 1_555 1_555
C89_10 C31_10 1_555 1_555
H36_10 C81_10 1_555 1_555
H41_10 C86_10 1_555 1_555
H44_10 C89_10 1_555 1_555
C94_10 C50_10 1_555 1_555
C97_10 C53_10 1_555 1_555
C100_10 C54_10 1_555 1_555
C105_10 C94_10 1_555 1_555
C108_10 C97_10 1_555 1_555
C111_10 C100_10 1_555 1_555
C116_10 C61_10 1_555 1_555
C119_10 C64_10 1_555 1_555
C122_10 C67_10 1_555 1_555
C127_10 C94_10 1_555 1_555
C130_10 C97_10 1_555 1_555
C133_10 C100_10 1_555 1_555
H49_10 C127_10 1_555 1_555
H52_10 C130_10 1_555 1_555
H55_10 C133_10 1_555 1_555
H60_10 C127_10 1_555 1_555
H63_10 C130_10 1_555 1_555
H66_10 C133_10 1_555 1_555
C138_10 C127_10 1_555 1_555
C141_10 C130_10 1_555 1_555
C144_10 C133_10 1_555 1_555
H71_10 C138_10 1_555 1_555
H74_10 C141_10 1_555 1_555
H77_10 C144_10 1_555 1_555
H82_10 C138_10 1_555 1_555
H85_10 C141_10 1_555 1_555
H88_10 C144_10 1_555 1_555
H93_10 C138_10 1_555 1_555
H96_10 C141_10 1_555 1_555
H99_10 C144_10 1_555 1_555
C149_10 C94_10 1_555 1_555
C152_10 C97_10 1_555 1_555
C155_10 C100_10 1_555 1_555
H104_10 C149_10 1_555 1_555
H107_10 C152_10 1_555 1_555
H110_10 C155_10 1_555 1_555
H115_10 C149_10 1_555 1_555
H118_10 C152_10 1_555 1_555
H121_10 C155_10 1_555 1_555
C160_10 C149_10 1_555 1_555
C163_10 C152_10 1_555 1_555
C166_10 C155_10 1_555 1_555
H126_10 C160_10 1_555 1_555
H129_10 C163_10 1_555 1_555
H132_10 C166_10 1_555 1_555
H137_10 C160_10 1_555 1_555
H140_10 C163_10 1_555 1_555
H143_10 C166_10 1_555 1_555
H148_10 C160_10 1_555 1_555
H151_10 C163_10 1_555 1_555
H154_10 C166_10 1_555 1_555
O3_17 Pb11_9 1_555 1_555
Pb9_9 O7_10 1_555 1_555
O20_10 C15_10 1_555 1_555
O28_10 C20_10 1_555 1_555
C72_10 C81_10 1_555 1_555
C75_10 C86_10 1_555 1_555
C78_10 C89_10 1_555 1_555
C105_10 C116_10 1_555 1_555
C105_10 C119_10 1_555 1_555
C108_10 C116_10 1_555 1_555
C108_10 C122_10 1_555 1_555
C111_10 C119_10 1_555 1_555
C111_10 C122_10 1_555 1_555
Pb9_6 O17_5 1_555 1_555
Pb13_7 O18_5 1_555 1_555
Pb18_6 O18_5 1_555 1_555
O17_5 Pb5_6 1_555 1_555
O18_5 C25_5 1_555 1_555
O32_5 Pb9_6 1_555 1_555
O33_5 Pb13_7 1_555 1_555
C17_5 O8_5 1_555 1_555
C24_5 O17_5 1_555 1_555
C25_5 O33_5 1_555 1_555
C28_5 C17_5 1_555 1_555
C35_5 C24_5 1_555 1_555
C36_5 C25_5 1_555 1_555
C39_5 C28_5 1_555 1_555
C46_5 C35_5 1_555 1_555
C47_5 C36_5 1_555 1_555
H16_5 C39_5 1_555 1_555
H23_5 C46_5 1_555 1_555
H24_5 C47_5 1_555 1_555
C52_5 C39_5 1_555 1_555
C57_5 C46_5 1_555 1_555
C58_5 C47_5 1_555 1_555
C63_5 C52_5 1_555 1_555
C66_5 C58_5 1_555 1_555
C69_5 C57_5 1_555 1_555
C74_5 C63_5 1_555 1_555
C77_5 C66_5 1_555 1_555
C80_5 C69_5 1_555 1_555
H29_5 C74_5 1_555 1_555
H32_5 C77_5 1_555 1_555
H35_5 C80_5 1_555 1_555
C83_5 C28_5 1_555 1_555
C88_5 C36_5 1_555 1_555
C91_5 C35_5 1_555 1_555
H38_5 C83_5 1_555 1_555
H43_5 C88_5 1_555 1_555
H46_5 C91_5 1_555 1_555
C96_5 C52_5 1_555 1_555
C99_5 C57_5 1_555 1_555
C102_5 C58_5 1_555 1_555
C107_5 C96_5 1_555 1_555
C110_5 C99_5 1_555 1_555
C113_5 C102_5 1_555 1_555
C118_5 C63_5 1_555 1_555
C121_5 C66_5 1_555 1_555
C124_5 C69_5 1_555 1_555
C129_5 C96_5 1_555 1_555
C132_5 C99_5 1_555 1_555
C135_5 C102_5 1_555 1_555
H51_5 C129_5 1_555 1_555
H54_5 C132_5 1_555 1_555
H57_5 C135_5 1_555 1_555
H62_5 C129_5 1_555 1_555
H65_5 C132_5 1_555 1_555
H68_5 C135_5 1_555 1_555
C140_5 C129_5 1_555 1_555
C143_5 C132_5 1_555 1_555
C146_5 C135_5 1_555 1_555
H73_5 C140_5 1_555 1_555
H76_5 C143_5 1_555 1_555
H79_5 C146_5 1_555 1_555
H84_5 C140_5 1_555 1_555
H87_5 C143_5 1_555 1_555
H90_5 C146_5 1_555 1_555
H95_5 C140_5 1_555 1_555
H98_5 C143_5 1_555 1_555
H101_5 C146_5 1_555 1_555
C151_5 C96_5 1_555 1_555
C154_5 C99_5 1_555 1_555
C157_5 C102_5 1_555 1_555
H106_5 C151_5 1_555 1_555
H109_5 C154_5 1_555 1_555
H112_5 C157_5 1_555 1_555
H117_5 C151_5 1_555 1_555
H120_5 C154_5 1_555 1_555
H123_5 C157_5 1_555 1_555
C162_5 C151_5 1_555 1_555
C165_5 C154_5 1_555 1_555
C168_5 C157_5 1_555 1_555
H128_5 C162_5 1_555 1_555
H131_5 C165_5 1_555 1_555
H134_5 C168_5 1_555 1_555
H139_5 C162_5 1_555 1_555
H142_5 C165_5 1_555 1_555
H145_5 C168_5 1_555 1_555
H150_5 C162_5 1_555 1_555
H153_5 C165_5 1_555 1_555
H156_5 C168_5 1_555 1_555
O21_5 C17_5 1_555 1_555
O32_5 C24_5 1_555 1_555
C74_5 C83_5 1_555 1_555
C77_5 C88_5 1_555 1_555
C80_5 C91_5 1_555 1_555
C107_5 C118_5 1_555 1_555
C107_5 C121_5 1_555 1_555
C110_5 C118_5 1_555 1_555
C110_5 C124_5 1_555 1_555
C113_5 C121_5 1_555 1_555
C113_5 C124_5 1_555 1_555
O10_4 C1_11 1_555 1_555
C1_11 O25_4 1_555 1_555
C2_11 C1_11 1_555 1_555
C3_11 C2_11 1_555 1_555
H1_11 C3_11 1_555 1_555
C4_11 C3_11 1_555 1_555
C5_11 C4_11 1_555 1_555
C6_11 C5_11 1_555 1_555
H2_11 C6_11 1_555 1_555
C7_11 C2_11 1_555 1_555
H3_11 C7_11 1_555 1_555
C8_11 C4_11 1_555 1_555
C9_11 C8_11 1_555 1_555
C10_11 C5_11 1_555 1_555
C11_11 C8_11 1_555 1_555
H4_11 C11_11 1_555 1_555
H5_11 C11_11 1_555 1_555
C12_11 C11_11 1_555 1_555
H6_11 C12_11 1_555 1_555
H7_11 C12_11 1_555 1_555
H8_11 C12_11 1_555 1_555
C13_11 C8_11 1_555 1_555
H9_11 C13_11 1_555 1_555
H10_11 C13_11 1_555 1_555
C14_11 C13_11 1_555 1_555
H11_11 C14_11 1_555 1_555
H12_11 C14_11 1_555 1_555
H13_11 C14_11 1_555 1_555
Pb5_12 O11_10 1_555 1_555
Pb12_3 O11_10 1_555 1_555
Pb12_8 O12_10 1_555 1_555
Pb7 O12_10 1_555 1_555
Pb8_8 O13_11 1_555 1_555
Pb16_6 O17_6 1_555 1_555
Pb13_4 O18_6 1_555 1_555
Pb11_4 O18_6 1_555 1_555
O11_10 C18_11 1_555 1_555
O12_10 C19_11 1_555 1_555
O13_11 Pb5_12 1_555 1_555
O4_8 C21_11 1_555 1_555
O17_6 Pb12_11 1_555 1_555
O18_6 C25_6 1_555 1_555
O26_10 Pb5_12 1_555 1_555
O27_10 Pb12_8 1_555 1_555
O28_11 Pb8_8 1_555 1_555
O32_6 Pb16_6 1_555 1_555
O33_6 Pb13_4 1_555 1_555
C15_11 O4_4 1_555 1_555
C17_6 O8_4 1_555 1_555
C18_11 O26_10 1_555 1_555
C19_11 O27_10 1_555 1_555
C20_11 O13_11 1_555 1_555
C21_11 O22_8 1_555 1_555
C24_6 O17_6 1_555 1_555
C25_6 O33_6 1_555 1_555
C26_11 C15_11 1_555 1_555
C28_6 C17_6 1_555 1_555
C29_11 C18_11 1_555 1_555
C30_11 C19_11 1_555 1_555
C31_11 C20_11 1_555 1_555
C32_11 C21_11 1_555 1_555
C35_6 C24_6 1_555 1_555
C36_6 C25_6 1_555 1_555
C37_11 C26_11 1_555 1_555
C39_6 C28_6 1_555 1_555
C40_11 C29_11 1_555 1_555
C41_11 C30_11 1_555 1_555
C42_11 C31_11 1_555 1_555
C43_11 C32_11 1_555 1_555
C46_6 C35_6 1_555 1_555
C47_6 C36_6 1_555 1_555
H14_11 C37_11 1_555 1_555
H16_6 C39_6 1_555 1_555
H17_11 C40_11 1_555 1_555
H18_11 C41_11 1_555 1_555
H19_11 C42_11 1_555 1_555
H20_11 C43_11 1_555 1_555
H23_6 C46_6 1_555 1_555
H24_6 C47_6 1_555 1_555
C48_11 C40_11 1_555 1_555
C49_11 C41_11 1_555 1_555
C50_11 C37_11 1_555 1_555
C52_6 C39_6 1_555 1_555
C53_11 C42_11 1_555 1_555
C54_11 C43_11 1_555 1_555
C57_6 C46_6 1_555 1_555
C58_6 C47_6 1_555 1_555
C59_11 C48_11 1_555 1_555
C60_11 C49_11 1_555 1_555
C61_11 C50_11 1_555 1_555
C63_6 C52_6 1_555 1_555
C64_11 C54_11 1_555 1_555
C66_6 C58_6 1_555 1_555
C67_11 C53_11 1_555 1_555
C69_6 C57_6 1_555 1_555
C70_11 C59_11 1_555 1_555
C71_11 C60_11 1_555 1_555
C72_11 C61_11 1_555 1_555
C74_6 C63_6 1_555 1_555
C75_11 C64_11 1_555 1_555
C77_6 C66_6 1_555 1_555
C78_11 C67_11 1_555 1_555
C80_6 C69_6 1_555 1_555
H25_11 C70_11 1_555 1_555
H26_11 C71_11 1_555 1_555
H27_11 C72_11 1_555 1_555
H29_6 C74_6 1_555 1_555
H30_11 C75_11 1_555 1_555
H32_6 C77_6 1_555 1_555
H33_11 C78_11 1_555 1_555
H35_6 C80_6 1_555 1_555
C81_11 C26_11 1_555 1_555
C83_6 C28_6 1_555 1_555
C84_11 C29_11 1_555 1_555
C85_11 C30_11 1_555 1_555
C86_11 C32_11 1_555 1_555
C88_6 C36_6 1_555 1_555
C89_11 C31_11 1_555 1_555
C91_6 C35_6 1_555 1_555
H36_11 C81_11 1_555 1_555
H38_6 C83_6 1_555 1_555
H39_11 C84_11 1_555 1_555
H40_11 C85_11 1_555 1_555
H41_11 C86_11 1_555 1_555
H43_6 C88_6 1_555 1_555
H44_11 C89_11 1_555 1_555
H46_6 C91_6 1_555 1_555
C92_11 C49_11 1_555 1_555
C93_11 C48_11 1_555 1_555
C94_11 C50_11 1_555 1_555
C96_6 C52_6 1_555 1_555
C97_11 C53_11 1_555 1_555
C99_6 C57_6 1_555 1_555
C100_11 C54_11 1_555 1_555
C102_6 C58_6 1_555 1_555
C103_11 C10_11 1_555 1_555
C104_11 C93_11 1_555 1_555
C105_11 C94_11 1_555 1_555
C107_6 C96_6 1_555 1_555
C108_11 C97_11 1_555 1_555
C110_6 C99_6 1_555 1_555
C111_11 C100_11 1_555 1_555
C113_6 C102_6 1_555 1_555
C114_11 C9_11 1_555 1_555
C115_11 C60_11 1_555 1_555
C116_11 C61_11 1_555 1_555
C118_6 C63_6 1_555 1_555
C119_11 C64_11 1_555 1_555
C121_6 C66_6 1_555 1_555
C122_11 C67_11 1_555 1_555
C124_6 C69_6 1_555 1_555
C125_11 C92_11 1_555 1_555
C126_11 C93_11 1_555 1_555
C127_11 C94_11 1_555 1_555
C129_6 C96_6 1_555 1_555
C130_11 C97_11 1_555 1_555
C132_6 C99_6 1_555 1_555
C133_11 C100_11 1_555 1_555
C135_6 C102_6 1_555 1_555
H47_11 C125_11 1_555 1_555
H48_11 C126_11 1_555 1_555
H49_11 C127_11 1_555 1_555
H51_6 C129_6 1_555 1_555
H52_11 C130_11 1_555 1_555
H54_6 C132_6 1_555 1_555
H55_11 C133_11 1_555 1_555
H57_6 C135_6 1_555 1_555
H58_11 C125_11 1_555 1_555
H59_11 C126_11 1_555 1_555
H60_11 C127_11 1_555 1_555
H62_6 C129_6 1_555 1_555
H63_11 C130_11 1_555 1_555
H65_6 C132_6 1_555 1_555
H66_11 C133_11 1_555 1_555
H68_6 C135_6 1_555 1_555
C136_11 C125_11 1_555 1_555
C137_11 C126_11 1_555 1_555
C138_11 C127_11 1_555 1_555
C140_6 C129_6 1_555 1_555
C141_11 C130_11 1_555 1_555
C143_6 C132_6 1_555 1_555
C144_11 C133_11 1_555 1_555
C146_6 C135_6 1_555 1_555
H69_11 C136_11 1_555 1_555
H70_11 C137_11 1_555 1_555
H71_11 C138_11 1_555 1_555
H73_6 C140_6 1_555 1_555
H74_11 C141_11 1_555 1_555
H76_6 C143_6 1_555 1_555
H77_11 C144_11 1_555 1_555
H79_6 C146_6 1_555 1_555
H80_11 C136_11 1_555 1_555
H81_11 C137_11 1_555 1_555
H82_11 C138_11 1_555 1_555
H84_6 C140_6 1_555 1_555
H85_11 C141_11 1_555 1_555
H87_6 C143_6 1_555 1_555
H88_11 C144_11 1_555 1_555
H90_6 C146_6 1_555 1_555
H91_11 C136_11 1_555 1_555
H92_11 C137_11 1_555 1_555
H93_11 C138_11 1_555 1_555
H95_6 C140_6 1_555 1_555
H96_11 C141_11 1_555 1_555
H98_6 C143_6 1_555 1_555
H99_11 C144_11 1_555 1_555
H101_6 C146_6 1_555 1_555
C147_11 C92_11 1_555 1_555
C148_11 C93_11 1_555 1_555
C149_11 C94_11 1_555 1_555
C151_6 C96_6 1_555 1_555
C152_11 C97_11 1_555 1_555
C154_6 C99_6 1_555 1_555
C155_11 C100_11 1_555 1_555
C157_6 C102_6 1_555 1_555
H102_11 C147_11 1_555 1_555
H103_11 C148_11 1_555 1_555
H104_11 C149_11 1_555 1_555
H106_6 C151_6 1_555 1_555
H107_11 C152_11 1_555 1_555
H109_6 C154_6 1_555 1_555
H110_11 C155_11 1_555 1_555
H112_6 C157_6 1_555 1_555
H113_11 C147_11 1_555 1_555
H114_11 C148_11 1_555 1_555
H115_11 C149_11 1_555 1_555
H117_6 C151_6 1_555 1_555
H118_11 C152_11 1_555 1_555
H120_6 C154_6 1_555 1_555
H121_11 C155_11 1_555 1_555
H123_6 C157_6 1_555 1_555
C158_11 C147_11 1_555 1_555
C159_11 C148_11 1_555 1_555
C160_11 C149_11 1_555 1_555
C162_6 C151_6 1_555 1_555
C163_11 C152_11 1_555 1_555
C165_6 C154_6 1_555 1_555
C166_11 C155_11 1_555 1_555
C168_6 C157_6 1_555 1_555
H124_11 C158_11 1_555 1_555
H125_11 C159_11 1_555 1_555
H126_11 C160_11 1_555 1_555
H128_6 C162_6 1_555 1_555
H129_11 C163_11 1_555 1_555
H131_6 C165_6 1_555 1_555
H132_11 C166_11 1_555 1_555
H134_6 C168_6 1_555 1_555
H135_11 C158_11 1_555 1_555
H136_11 C159_11 1_555 1_555
H137_11 C160_11 1_555 1_555
H139_6 C162_6 1_555 1_555
H140_11 C163_11 1_555 1_555
H142_6 C165_6 1_555 1_555
H143_11 C166_11 1_555 1_555
H145_6 C168_6 1_555 1_555
H146_11 C158_11 1_555 1_555
H147_11 C159_11 1_555 1_555
H148_11 C160_11 1_555 1_555
H150_6 C162_6 1_555 1_555
H151_11 C163_11 1_555 1_555
H153_6 C165_6 1_555 1_555
H154_11 C166_11 1_555 1_555
H156_6 C168_6 1_555 1_555
C6_11 C7_11 1_555 1_555
C9_11 C10_11 1_555 1_555
O22_4 C15_11 1_555 1_555
O21_4 C17_6 1_555 1_555
O28_11 C20_11 1_555 1_555
O32_6 C24_6 1_555 1_555
C59_11 C114_11 1_555 1_555
C70_11 C84_11 1_555 1_555
C71_11 C85_11 1_555 1_555
C72_11 C81_11 1_555 1_555
C74_6 C83_6 1_555 1_555
C75_11 C86_11 1_555 1_555
C77_6 C88_6 1_555 1_555
C78_11 C89_11 1_555 1_555
C80_6 C91_6 1_555 1_555
C92_11 C103_11 1_555 1_555
C103_11 C115_11 1_555 1_555
C104_11 C114_11 1_555 1_555
C104_11 C115_11 1_555 1_555
C105_11 C116_11 1_555 1_555
C105_11 C119_11 1_555 1_555
C107_6 C118_6 1_555 1_555
C107_6 C121_6 1_555 1_555
C108_11 C116_11 1_555 1_555
C108_11 C122_11 1_555 1_555
C110_6 C118_6 1_555 1_555
C110_6 C124_6 1_555 1_555
C111_11 C119_11 1_555 1_555
C111_11 C122_11 1_555 1_555
C113_6 C121_6 1_555 1_555
C113_6 C124_6 1_555 1_555
O3_18 Pb13_2 1_555 1_555
Pb12_2 O3_18 1_555 1_555
Pb4_8 O3_18 1_555 1_555
Pb13 O15_15 1_555 1_555
Pb8_7 O15_15 1_555 1_555
O4_13 Pb13_2 1_555 1_555
O5_9 Pb13_2 1_555 1_555
O7_11 Pb8_9 1_555 1_555
O8_14 Pb8_9 1_555 1_555
O9_14 Pb12_2 1_555 1_555
O10_8 Pb12_2 1_555 1_555
O4_9 C21_12 1_555 1_555
O15_15 C22_15 1_555 1_555
O8 C23_15 1_555 1_555
O19_9 Pb13_2 1_555 1_555
O20_11 Pb8_9 1_555 1_555
O21_14 Pb8_9 1_555 1_555
O22_13 Pb12_2 1_555 1_555
O24_14 Pb4_8 1_555 1_555
O25_8 Pb4_8 1_555 1_555
O30_15 Pb13 1_555 1_555
C15_12 O7_11 1_555 1_555
C16_15 O9_14 1_555 1_555
C20_12 O4_10 1_555 1_555
C21_12 O22_9 1_555 1_555
C22_15 O30_15 1_555 1_555
C23_15 O21 1_555 1_555
C26_12 C15_12 1_555 1_555
C27_15 C16_15 1_555 1_555
C31_12 C20_12 1_555 1_555
C32_12 C21_12 1_555 1_555
C33_15 C22_15 1_555 1_555
C34_15 C23_15 1_555 1_555
C37_12 C26_12 1_555 1_555
C38_15 C27_15 1_555 1_555
C42_12 C31_12 1_555 1_555
C43_12 C32_12 1_555 1_555
C44_15 C33_15 1_555 1_555
C45_15 C34_15 1_555 1_555
H14_12 C37_12 1_555 1_555
H15_15 C38_15 1_555 1_555
H19_12 C42_12 1_555 1_555
H20_12 C43_12 1_555 1_555
H21_15 C44_15 1_555 1_555
H22_15 C45_15 1_555 1_555
C50_12 C37_12 1_555 1_555
C51_15 C38_15 1_555 1_555
C53_12 C42_12 1_555 1_555
C54_12 C43_12 1_555 1_555
C55_15 C44_15 1_555 1_555
C56_15 C45_15 1_555 1_555
C61_12 C50_12 1_555 1_555
C62_15 C51_15 1_555 1_555
C64_12 C54_12 1_555 1_555
C65_15 C56_15 1_555 1_555
C67_12 C53_12 1_555 1_555
C68_15 C55_15 1_555 1_555
C72_12 C61_12 1_555 1_555
C73_15 C62_15 1_555 1_555
C75_12 C64_12 1_555 1_555
C76_15 C65_15 1_555 1_555
C78_12 C67_12 1_555 1_555
C79_15 C68_15 1_555 1_555
H27_12 C72_12 1_555 1_555
H28_15 C73_15 1_555 1_555
H30_12 C75_12 1_555 1_555
H31_15 C76_15 1_555 1_555
H33_12 C78_12 1_555 1_555
H34_15 C79_15 1_555 1_555
C81_12 C26_12 1_555 1_555
C82_15 C27_15 1_555 1_555
C86_12 C32_12 1_555 1_555
C87_15 C34_15 1_555 1_555
C89_12 C31_12 1_555 1_555
C90_15 C33_15 1_555 1_555
H36_12 C81_12 1_555 1_555
H37_15 C82_15 1_555 1_555
H41_12 C86_12 1_555 1_555
H42_15 C87_15 1_555 1_555
H44_12 C89_12 1_555 1_555
H45_15 C90_15 1_555 1_555
C94_12 C50_12 1_555 1_555
C95_15 C51_15 1_555 1_555
C97_12 C53_12 1_555 1_555
C98_15 C55_15 1_555 1_555
C100_12 C54_12 1_555 1_555
C101_15 C56_15 1_555 1_555
C105_12 C94_12 1_555 1_555
C106_15 C95_15 1_555 1_555
C108_12 C97_12 1_555 1_555
C109_15 C98_15 1_555 1_555
C111_12 C100_12 1_555 1_555
C112_15 C101_15 1_555 1_555
C116_12 C61_12 1_555 1_555
C117_15 C62_15 1_555 1_555
C119_12 C64_12 1_555 1_555
C120_15 C65_15 1_555 1_555
C122_12 C67_12 1_555 1_555
C123_15 C68_15 1_555 1_555
C127_12 C94_12 1_555 1_555
C128_15 C95_15 1_555 1_555
C130_12 C97_12 1_555 1_555
C131_15 C98_15 1_555 1_555
C133_12 C100_12 1_555 1_555
C134_15 C101_15 1_555 1_555
H49_12 C127_12 1_555 1_555
H50_15 C128_15 1_555 1_555
H52_12 C130_12 1_555 1_555
H53_15 C131_15 1_555 1_555
H55_12 C133_12 1_555 1_555
H56_15 C134_15 1_555 1_555
H60_12 C127_12 1_555 1_555
H61_15 C128_15 1_555 1_555
H63_12 C130_12 1_555 1_555
H64_15 C131_15 1_555 1_555
H66_12 C133_12 1_555 1_555
H67_15 C134_15 1_555 1_555
C138_12 C127_12 1_555 1_555
C139_15 C128_15 1_555 1_555
C141_12 C130_12 1_555 1_555
C142_15 C131_15 1_555 1_555
C144_12 C133_12 1_555 1_555
C145_15 C134_15 1_555 1_555
H71_12 C138_12 1_555 1_555
H72_15 C139_15 1_555 1_555
H74_12 C141_12 1_555 1_555
H75_15 C142_15 1_555 1_555
H77_12 C144_12 1_555 1_555
H78_15 C145_15 1_555 1_555
H82_12 C138_12 1_555 1_555
H83_15 C139_15 1_555 1_555
H85_12 C141_12 1_555 1_555
H86_15 C142_15 1_555 1_555
H88_12 C144_12 1_555 1_555
H89_15 C145_15 1_555 1_555
H93_12 C138_12 1_555 1_555
H94_15 C139_15 1_555 1_555
H96_12 C141_12 1_555 1_555
H97_15 C142_15 1_555 1_555
H99_12 C144_12 1_555 1_555
H100_15 C145_15 1_555 1_555
C149_12 C94_12 1_555 1_555
C150_15 C95_15 1_555 1_555
C152_12 C97_12 1_555 1_555
C153_15 C98_15 1_555 1_555
C155_12 C100_12 1_555 1_555
C156_15 C101_15 1_555 1_555
H104_12 C149_12 1_555 1_555
H105_15 C150_15 1_555 1_555
H107_12 C152_12 1_555 1_555
H108_15 C153_15 1_555 1_555
H110_12 C155_12 1_555 1_555
H111_15 C156_15 1_555 1_555
H115_12 C149_12 1_555 1_555
H116_15 C150_15 1_555 1_555
H118_12 C152_12 1_555 1_555
H119_15 C153_15 1_555 1_555
H121_12 C155_12 1_555 1_555
H122_15 C156_15 1_555 1_555
C160_12 C149_12 1_555 1_555
C161_15 C150_15 1_555 1_555
C163_12 C152_12 1_555 1_555
C164_15 C153_15 1_555 1_555
C166_12 C155_12 1_555 1_555
C167_15 C156_15 1_555 1_555
H126_12 C160_12 1_555 1_555
H127_15 C161_15 1_555 1_555
H129_12 C163_12 1_555 1_555
H130_15 C164_15 1_555 1_555
H132_12 C166_12 1_555 1_555
H133_15 C167_15 1_555 1_555
H137_12 C160_12 1_555 1_555
H138_15 C161_15 1_555 1_555
H140_12 C163_12 1_555 1_555
H141_15 C164_15 1_555 1_555
H143_12 C166_12 1_555 1_555
H144_15 C167_15 1_555 1_555
H148_12 C160_12 1_555 1_555
H149_15 C161_15 1_555 1_555
H151_12 C163_12 1_555 1_555
H152_15 C164_15 1_555 1_555
H154_12 C166_12 1_555 1_555
H155_15 C167_15 1_555 1_555
O3_18 Pb8_9 1_555 1_555
Pb8_9 O5_9 1_555 1_555
Pb12_2 O4_13 1_555 1_555
Pb4_8 O7_11 1_555 1_555
Pb4_8 O8_14 1_555 1_555
Pb4_8 O9_14 1_555 1_555
Pb4_8 O10_8 1_555 1_555
O20_11 C15_12 1_555 1_555
O24_14 C16_15 1_555 1_555
O22_10 C20_12 1_555 1_555
C72_12 C81_12 1_555 1_555
C73_15 C82_15 1_555 1_555
C75_12 C86_12 1_555 1_555
C76_15 C87_15 1_555 1_555
C78_12 C89_12 1_555 1_555
C79_15 C90_15 1_555 1_555
C105_12 C116_12 1_555 1_555
C105_12 C119_12 1_555 1_555
C106_15 C117_15 1_555 1_555
C106_15 C120_15 1_555 1_555
C108_12 C116_12 1_555 1_555
C108_12 C122_12 1_555 1_555
C109_15 C117_15 1_555 1_555
C109_15 C123_15 1_555 1_555
C111_12 C119_12 1_555 1_555
C111_12 C122_12 1_555 1_555
C112_15 C120_15 1_555 1_555
C112_15 C123_15 1_555 1_555
Pb18_5 O1_10 1_555 1_555
O1_10 C1_12 1_555 1_555
O2_10 Pb18_5 1_555 1_555
O3_19 Pb18_5 1_555 1_555
C1_12 O2_10 1_555 1_555
C2_12 C1_12 1_555 1_555
C3_12 C2_12 1_555 1_555
H1_12 C3_12 1_555 1_555
C4_12 C3_12 1_555 1_555
C5_12 C4_12 1_555 1_555
C6_12 C5_12 1_555 1_555
H2_12 C6_12 1_555 1_555
C7_12 C2_12 1_555 1_555
H3_12 C7_12 1_555 1_555
C8_12 C4_12 1_555 1_555
C9_12 C8_12 1_555 1_555
C10_12 C5_12 1_555 1_555
C11_12 C8_12 1_555 1_555
H4_12 C11_12 1_555 1_555
H5_12 C11_12 1_555 1_555
C12_12 C11_12 1_555 1_555
H6_12 C12_12 1_555 1_555
H7_12 C12_12 1_555 1_555
H8_12 C12_12 1_555 1_555
C13_12 C8_12 1_555 1_555
H9_12 C13_12 1_555 1_555
H10_12 C13_12 1_555 1_555
C14_12 C13_12 1_555 1_555
H11_12 C14_12 1_555 1_555
H12_12 C14_12 1_555 1_555
H13_12 C14_12 1_555 1_555
Pb9_12 O1_10 1_555 1_555
Pb13_6 O3_19 1_555 1_555
Pb12_6 O3_19 1_555 1_555
Pb8_5 O12_11 1_555 1_555
Pb16_5 O12_11 1_555 1_555
O4_14 Pb18_5 1_555 1_555
O4_3 C18_12 1_555 1_555
O12_11 C19_12 1_555 1_555
O22_14 Pb13_6 1_555 1_555
O27_11 Pb8_5 1_555 1_555
C18_12 O22_3 1_555 1_555
C19_12 O27_11 1_555 1_555
C29_12 C18_12 1_555 1_555
C30_12 C19_12 1_555 1_555
C40_12 C29_12 1_555 1_555
C41_12 C30_12 1_555 1_555
H17_12 C40_12 1_555 1_555
H18_12 C41_12 1_555 1_555
C48_12 C40_12 1_555 1_555
C49_12 C41_12 1_555 1_555
C59_12 C48_12 1_555 1_555
C60_12 C49_12 1_555 1_555
C70_12 C59_12 1_555 1_555
C71_12 C60_12 1_555 1_555
H25_12 C70_12 1_555 1_555
H26_12 C71_12 1_555 1_555
C84_12 C29_12 1_555 1_555
C85_12 C30_12 1_555 1_555
H39_12 C84_12 1_555 1_555
H40_12 C85_12 1_555 1_555
C92_12 C49_12 1_555 1_555
C93_12 C48_12 1_555 1_555
C103_12 C10_12 1_555 1_555
C104_12 C93_12 1_555 1_555
C114_12 C9_12 1_555 1_555
C115_12 C60_12 1_555 1_555
C125_12 C92_12 1_555 1_555
C126_12 C93_12 1_555 1_555
H47_12 C125_12 1_555 1_555
H48_12 C126_12 1_555 1_555
H58_12 C125_12 1_555 1_555
H59_12 C126_12 1_555 1_555
C136_12 C125_12 1_555 1_555
C137_12 C126_12 1_555 1_555
H69_12 C136_12 1_555 1_555
H70_12 C137_12 1_555 1_555
H80_12 C136_12 1_555 1_555
H81_12 C137_12 1_555 1_555
H91_12 C136_12 1_555 1_555
H92_12 C137_12 1_555 1_555
C147_12 C92_12 1_555 1_555
C148_12 C93_12 1_555 1_555
H102_12 C147_12 1_555 1_555
H103_12 C148_12 1_555 1_555
H113_12 C147_12 1_555 1_555
H114_12 C148_12 1_555 1_555
C158_12 C147_12 1_555 1_555
C159_12 C148_12 1_555 1_555
H124_12 C158_12 1_555 1_555
H125_12 C159_12 1_555 1_555
H135_12 C158_12 1_555 1_555
H136_12 C159_12 1_555 1_555
H146_12 C158_12 1_555 1_555
H147_12 C159_12 1_555 1_555
O3_19 Pb9_12 1_555 1_555
C6_12 C7_12 1_555 1_555
C9_12 C10_12 1_555 1_555
Pb13_6 O4_14 1_555 1_555
C59_12 C114_12 1_555 1_555
C70_12 C84_12 1_555 1_555
C71_12 C85_12 1_555 1_555
C92_12 C103_12 1_555 1_555
C103_12 C115_12 1_555 1_555
C104_12 C114_12 1_555 1_555
C104_12 C115_12 1_555 1_555
O3_20 Pb18_6 1_555 1_555
Pb13_7 O3_20 1_555 1_555
Pb12_7 O3_20 1_555 1_555
O5_10 Pb18_6 1_555 1_555
O8_15 Pb9_13 1_555 1_555
O19_10 Pb18_6 1_555 1_555
O21_15 Pb9_13 1_555 1_555
O3_20 Pb9_13 1_555 1_555
Pb9_13 O5_10 1_555 1_555
Pb12_7 O8_15 1_555 1_555
Pb5_12 O15_16 1_555 1_555
Pb12_3 O15_16 1_555 1_555
O15_16 C22_16 1_555 1_555
O5_9 C23_16 1_555 1_555
O30_16 Pb5_12 1_555 1_555
C16_16 O8_2 1_555 1_555
C22_16 O30_16 1_555 1_555
C23_16 O19_9 1_555 1_555
C27_16 C16_16 1_555 1_555
C33_16 C22_16 1_555 1_555
C34_16 C23_16 1_555 1_555
C38_16 C27_16 1_555 1_555
C44_16 C33_16 1_555 1_555
C45_16 C34_16 1_555 1_555
H15_16 C38_16 1_555 1_555
H21_16 C44_16 1_555 1_555
H22_16 C45_16 1_555 1_555
C51_16 C38_16 1_555 1_555
C55_16 C44_16 1_555 1_555
C56_16 C45_16 1_555 1_555
C62_16 C51_16 1_555 1_555
C65_16 C56_16 1_555 1_555
C68_16 C55_16 1_555 1_555
C73_16 C62_16 1_555 1_555
C76_16 C65_16 1_555 1_555
C79_16 C68_16 1_555 1_555
H28_16 C73_16 1_555 1_555
H31_16 C76_16 1_555 1_555
H34_16 C79_16 1_555 1_555
C82_16 C27_16 1_555 1_555
C87_16 C34_16 1_555 1_555
C90_16 C33_16 1_555 1_555
H37_16 C82_16 1_555 1_555
H42_16 C87_16 1_555 1_555
H45_16 C90_16 1_555 1_555
C95_16 C51_16 1_555 1_555
C98_16 C55_16 1_555 1_555
C101_16 C56_16 1_555 1_555
C106_16 C95_16 1_555 1_555
C109_16 C98_16 1_555 1_555
C112_16 C101_16 1_555 1_555
C117_16 C62_16 1_555 1_555
C120_16 C65_16 1_555 1_555
C123_16 C68_16 1_555 1_555
C128_16 C95_16 1_555 1_555
C131_16 C98_16 1_555 1_555
C134_16 C101_16 1_555 1_555
H50_16 C128_16 1_555 1_555
H53_16 C131_16 1_555 1_555
H56_16 C134_16 1_555 1_555
H61_16 C128_16 1_555 1_555
H64_16 C131_16 1_555 1_555
H67_16 C134_16 1_555 1_555
C139_16 C128_16 1_555 1_555
C142_16 C131_16 1_555 1_555
C145_16 C134_16 1_555 1_555
H72_16 C139_16 1_555 1_555
H75_16 C142_16 1_555 1_555
H78_16 C145_16 1_555 1_555
H83_16 C139_16 1_555 1_555
H86_16 C142_16 1_555 1_555
H89_16 C145_16 1_555 1_555
H94_16 C139_16 1_555 1_555
H97_16 C142_16 1_555 1_555
H100_16 C145_16 1_555 1_555
C150_16 C95_16 1_555 1_555
C153_16 C98_16 1_555 1_555
C156_16 C101_16 1_555 1_555
H105_16 C150_16 1_555 1_555
H108_16 C153_16 1_555 1_555
H111_16 C156_16 1_555 1_555
H116_16 C150_16 1_555 1_555
H119_16 C153_16 1_555 1_555
H122_16 C156_16 1_555 1_555
C161_16 C150_16 1_555 1_555
C164_16 C153_16 1_555 1_555
C167_16 C156_16 1_555 1_555
H127_16 C161_16 1_555 1_555
H130_16 C164_16 1_555 1_555
H133_16 C167_16 1_555 1_555
H138_16 C161_16 1_555 1_555
H141_16 C164_16 1_555 1_555
H144_16 C167_16 1_555 1_555
H149_16 C161_16 1_555 1_555
H152_16 C164_16 1_555 1_555
H155_16 C167_16 1_555 1_555
O21_2 C16_16 1_555 1_555
C73_16 C82_16 1_555 1_555
C76_16 C87_16 1_555 1_555
C79_16 C90_16 1_555 1_555
C106_16 C117_16 1_555 1_555
C106_16 C120_16 1_555 1_555
C109_16 C117_16 1_555 1_555
C109_16 C123_16 1_555 1_555
C112_16 C120_16 1_555 1_555
C112_16 C123_16 1_555 1_555
O4_2 C1_13 1_555 1_555
C1_13 O22_2 1_555 1_555
C2_13 C1_13 1_555 1_555
C3_13 C2_13 1_555 1_555
H1_13 C3_13 1_555 1_555
C4_13 C3_13 1_555 1_555
C5_13 C4_13 1_555 1_555
C6_13 C5_13 1_555 1_555
H2_13 C6_13 1_555 1_555
C7_13 C2_13 1_555 1_555
H3_13 C7_13 1_555 1_555
C8_13 C4_13 1_555 1_555
C9_13 C8_13 1_555 1_555
C10_13 C5_13 1_555 1_555
C11_13 C8_13 1_555 1_555
H4_13 C11_13 1_555 1_555
H5_13 C11_13 1_555 1_555
C12_13 C11_13 1_555 1_555
H6_13 C12_13 1_555 1_555
H7_13 C12_13 1_555 1_555
H8_13 C12_13 1_555 1_555
C13_13 C8_13 1_555 1_555
H9_13 C13_13 1_555 1_555
H10_13 C13_13 1_555 1_555
C14_13 C13_13 1_555 1_555
H11_13 C14_13 1_555 1_555
H12_13 C14_13 1_555 1_555
H13_13 C14_13 1_555 1_555
Pb8_3 O11_11 1_555 1_555
Pb6_12 O11_11 1_555 1_555
Pb13_8 O12_12 1_555 1_555
Pb9_4 O12_12 1_555 1_555
O11_11 C18_13 1_555 1_555
O12_12 C19_13 1_555 1_555
O26_11 Pb8_3 1_555 1_555
O27_12 Pb13_8 1_555 1_555
C18_13 O26_11 1_555 1_555
C19_13 O27_12 1_555 1_555
C29_13 C18_13 1_555 1_555
C30_13 C19_13 1_555 1_555
C40_13 C29_13 1_555 1_555
C41_13 C30_13 1_555 1_555
H17_13 C40_13 1_555 1_555
H18_13 C41_13 1_555 1_555
C48_13 C40_13 1_555 1_555
C49_13 C41_13 1_555 1_555
C59_13 C48_13 1_555 1_555
C60_13 C49_13 1_555 1_555
C70_13 C59_13 1_555 1_555
C71_13 C60_13 1_555 1_555
H25_13 C70_13 1_555 1_555
H26_13 C71_13 1_555 1_555
C84_13 C29_13 1_555 1_555
C85_13 C30_13 1_555 1_555
H39_13 C84_13 1_555 1_555
H40_13 C85_13 1_555 1_555
C92_13 C49_13 1_555 1_555
C93_13 C48_13 1_555 1_555
C103_13 C10_13 1_555 1_555
C104_13 C93_13 1_555 1_555
C114_13 C9_13 1_555 1_555
C115_13 C60_13 1_555 1_555
C125_13 C92_13 1_555 1_555
C126_13 C93_13 1_555 1_555
H47_13 C125_13 1_555 1_555
H48_13 C126_13 1_555 1_555
H58_13 C125_13 1_555 1_555
H59_13 C126_13 1_555 1_555
C136_13 C125_13 1_555 1_555
C137_13 C126_13 1_555 1_555
H69_13 C136_13 1_555 1_555
H70_13 C137_13 1_555 1_555
H80_13 C136_13 1_555 1_555
H81_13 C137_13 1_555 1_555
H91_13 C136_13 1_555 1_555
H92_13 C137_13 1_555 1_555
C147_13 C92_13 1_555 1_555
C148_13 C93_13 1_555 1_555
H102_13 C147_13 1_555 1_555
H103_13 C148_13 1_555 1_555
H113_13 C147_13 1_555 1_555
H114_13 C148_13 1_555 1_555
C158_13 C147_13 1_555 1_555
C159_13 C148_13 1_555 1_555
H124_13 C158_13 1_555 1_555
H125_13 C159_13 1_555 1_555
H135_13 C158_13 1_555 1_555
H136_13 C159_13 1_555 1_555
H146_13 C158_13 1_555 1_555
H147_13 C159_13 1_555 1_555
C6_13 C7_13 1_555 1_555
C9_13 C10_13 1_555 1_555
C59_13 C114_13 1_555 1_555
C70_13 C84_13 1_555 1_555
C71_13 C85_13 1_555 1_555
C92_13 C103_13 1_555 1_555
C103_13 C115_13 1_555 1_555
C104_13 C114_13 1_555 1_555
C104_13 C115_13 1_555 1_555
O3_21 Pb11_4 1_555 1_555
Pb13_4 O3_21 1_555 1_555
Pb12_4 O3_21 1_555 1_555
O5_11 Pb11_4 1_555 1_555
O8_16 Pb9_14 1_555 1_555
O19_11 Pb11_4 1_555 1_555
O21_16 Pb9_14 1_555 1_555
O3_21 Pb9_14 1_555 1_555
Pb9_14 O5_11 1_555 1_555
Pb12_4 O8_16 1_555 1_555
O3_22 Pb11_5 1_555 1_555
Pb13_5 O3_22 1_555 1_555
Pb12_5 O3_22 1_555 1_555
O3_22 Pb9_15 1_555 1_555
O3_23 Pb5_6 1_555 1_555
Pb9_6 O3_23 1_555 1_555
Pb11_6 O3_23 1_555 1_555
Pb8_4 O15_17 1_555 1_555
Pb6_13 O15_17 1_555 1_555
O8_17 Pb6_6 1_555 1_555
O9_15 Pb9_6 1_555 1_555
O15_17 C22_17 1_555 1_555
O5_10 C23_17 1_555 1_555
O21_17 Pb6_6 1_555 1_555
O24_15 Pb11_6 1_555 1_555
O30_17 Pb8_4 1_555 1_555
C16_17 O9_15 1_555 1_555
C22_17 O30_17 1_555 1_555
C23_17 O19_10 1_555 1_555
C27_17 C16_17 1_555 1_555
C33_17 C22_17 1_555 1_555
C34_17 C23_17 1_555 1_555
C38_17 C27_17 1_555 1_555
C44_17 C33_17 1_555 1_555
C45_17 C34_17 1_555 1_555
H15_17 C38_17 1_555 1_555
H21_17 C44_17 1_555 1_555
H22_17 C45_17 1_555 1_555
C51_17 C38_17 1_555 1_555
C55_17 C44_17 1_555 1_555
C56_17 C45_17 1_555 1_555
C62_17 C51_17 1_555 1_555
C65_17 C56_17 1_555 1_555
C68_17 C55_17 1_555 1_555
C73_17 C62_17 1_555 1_555
C76_17 C65_17 1_555 1_555
C79_17 C68_17 1_555 1_555
H28_17 C73_17 1_555 1_555
H31_17 C76_17 1_555 1_555
H34_17 C79_17 1_555 1_555
C82_17 C27_17 1_555 1_555
C87_17 C34_17 1_555 1_555
C90_17 C33_17 1_555 1_555
H37_17 C82_17 1_555 1_555
H42_17 C87_17 1_555 1_555
H45_17 C90_17 1_555 1_555
C95_17 C51_17 1_555 1_555
C98_17 C55_17 1_555 1_555
C101_17 C56_17 1_555 1_555
C106_17 C95_17 1_555 1_555
C109_17 C98_17 1_555 1_555
C112_17 C101_17 1_555 1_555
C117_17 C62_17 1_555 1_555
C120_17 C65_17 1_555 1_555
C123_17 C68_17 1_555 1_555
C128_17 C95_17 1_555 1_555
C131_17 C98_17 1_555 1_555
C134_17 C101_17 1_555 1_555
H50_17 C128_17 1_555 1_555
H53_17 C131_17 1_555 1_555
H56_17 C134_17 1_555 1_555
H61_17 C128_17 1_555 1_555
H64_17 C131_17 1_555 1_555
H67_17 C134_17 1_555 1_555
C139_17 C128_17 1_555 1_555
C142_17 C131_17 1_555 1_555
C145_17 C134_17 1_555 1_555
H72_17 C139_17 1_555 1_555
H75_17 C142_17 1_555 1_555
H78_17 C145_17 1_555 1_555
H83_17 C139_17 1_555 1_555
H86_17 C142_17 1_555 1_555
H89_17 C145_17 1_555 1_555
H94_17 C139_17 1_555 1_555
H97_17 C142_17 1_555 1_555
H100_17 C145_17 1_555 1_555
C150_17 C95_17 1_555 1_555
C153_17 C98_17 1_555 1_555
C156_17 C101_17 1_555 1_555
H105_17 C150_17 1_555 1_555
H108_17 C153_17 1_555 1_555
H111_17 C156_17 1_555 1_555
H116_17 C150_17 1_555 1_555
H119_17 C153_17 1_555 1_555
H122_17 C156_17 1_555 1_555
C161_17 C150_17 1_555 1_555
C164_17 C153_17 1_555 1_555
C167_17 C156_17 1_555 1_555
H127_17 C161_17 1_555 1_555
H130_17 C164_17 1_555 1_555
H133_17 C167_17 1_555 1_555
H138_17 C161_17 1_555 1_555
H141_17 C164_17 1_555 1_555
H144_17 C167_17 1_555 1_555
H149_17 C161_17 1_555 1_555
H152_17 C164_17 1_555 1_555
H155_17 C167_17 1_555 1_555
O3_23 Pb6_6 1_555 1_555
Pb11_6 O8_17 1_555 1_555
Pb11_6 O9_15 1_555 1_555
O24_15 C16_17 1_555 1_555
C73_17 C82_17 1_555 1_555
C76_17 C87_17 1_555 1_555
C79_17 C90_17 1_555 1_555
C106_17 C117_17 1_555 1_555
C106_17 C120_17 1_555 1_555
C109_17 C117_17 1_555 1_555
C109_17 C123_17 1_555 1_555
C112_17 C120_17 1_555 1_555
C112_17 C123_17 1_555 1_555
O3_24 Pb5_7 1_555 1_555
Pb9_7 O3_24 1_555 1_555
Pb11_7 O3_24 1_555 1_555
O3_24 Pb6_7 1_555 1_555
Pb12_10 O1_11 1_555 1_555
O1_11 C1_14 1_555 1_555
O2_11 Pb12_10 1_555 1_555
O3_25 Pb12_10 1_555 1_555
C1_14 O2_11 1_555 1_555
C2_14 C1_14 1_555 1_555
C3_14 C2_14 1_555 1_555
H1_14 C3_14 1_555 1_555
C4_14 C3_14 1_555 1_555
C5_14 C4_14 1_555 1_555
C6_14 C5_14 1_555 1_555
H2_14 C6_14 1_555 1_555
C7_14 C2_14 1_555 1_555
H3_14 C7_14 1_555 1_555
C8_14 C4_14 1_555 1_555
C9_14 C8_14 1_555 1_555
C10_14 C5_14 1_555 1_555
C11_14 C8_14 1_555 1_555
H4_14 C11_14 1_555 1_555
H5_14 C11_14 1_555 1_555
C12_14 C11_14 1_555 1_555
H6_14 C12_14 1_555 1_555
H7_14 C12_14 1_555 1_555
H8_14 C12_14 1_555 1_555
C13_14 C8_14 1_555 1_555
H9_14 C13_14 1_555 1_555
H10_14 C13_14 1_555 1_555
C14_14 C13_14 1_555 1_555
H11_14 C14_14 1_555 1_555
H12_14 C14_14 1_555 1_555
H13_14 C14_14 1_555 1_555
Pb7_5 O1_11 1_555 1_555
Pb16_5 O3_25 1_555 1_555
Pb8_5 O3_25 1_555 1_555
O4_15 Pb12_10 1_555 1_555
O10_6 C18_14 1_555 1_555
O10_8 C19_14 1_555 1_555
O22_15 Pb16_5 1_555 1_555
C18_14 O25_6 1_555 1_555
C19_14 O25_8 1_555 1_555
C29_14 C18_14 1_555 1_555
C30_14 C19_14 1_555 1_555
C40_14 C29_14 1_555 1_555
C41_14 C30_14 1_555 1_555
H17_14 C40_14 1_555 1_555
H18_14 C41_14 1_555 1_555
C48_14 C40_14 1_555 1_555
C49_14 C41_14 1_555 1_555
C59_14 C48_14 1_555 1_555
C60_14 C49_14 1_555 1_555
C70_14 C59_14 1_555 1_555
C71_14 C60_14 1_555 1_555
H25_14 C70_14 1_555 1_555
H26_14 C71_14 1_555 1_555
C84_14 C29_14 1_555 1_555
C85_14 C30_14 1_555 1_555
H39_14 C84_14 1_555 1_555
H40_14 C85_14 1_555 1_555
C92_14 C49_14 1_555 1_555
C93_14 C48_14 1_555 1_555
C103_14 C10_14 1_555 1_555
C104_14 C93_14 1_555 1_555
C114_14 C9_14 1_555 1_555
C115_14 C60_14 1_555 1_555
C125_14 C92_14 1_555 1_555
C126_14 C93_14 1_555 1_555
H47_14 C125_14 1_555 1_555
H48_14 C126_14 1_555 1_555
H58_14 C125_14 1_555 1_555
H59_14 C126_14 1_555 1_555
C136_14 C125_14 1_555 1_555
C137_14 C126_14 1_555 1_555
H69_14 C136_14 1_555 1_555
H70_14 C137_14 1_555 1_555
H80_14 C136_14 1_555 1_555
H81_14 C137_14 1_555 1_555
H91_14 C136_14 1_555 1_555
H92_14 C137_14 1_555 1_555
C147_14 C92_14 1_555 1_555
C148_14 C93_14 1_555 1_555
H102_14 C147_14 1_555 1_555
H103_14 C148_14 1_555 1_555
H113_14 C147_14 1_555 1_555
H114_14 C148_14 1_555 1_555
C158_14 C147_14 1_555 1_555
C159_14 C148_14 1_555 1_555
H124_14 C158_14 1_555 1_555
H125_14 C159_14 1_555 1_555
H135_14 C158_14 1_555 1_555
H136_14 C159_14 1_555 1_555
H146_14 C158_14 1_555 1_555
H147_14 C159_14 1_555 1_555
O3_25 Pb7_5 1_555 1_555
C6_14 C7_14 1_555 1_555
C9_14 C10_14 1_555 1_555
Pb16_5 O4_15 1_555 1_555
C59_14 C114_14 1_555 1_555
C70_14 C84_14 1_555 1_555
C71_14 C85_14 1_555 1_555
C92_14 C103_14 1_555 1_555
C103_14 C115_14 1_555 1_555
C104_14 C114_14 1_555 1_555
C104_14 C115_14 1_555 1_555
O3_26 Pb12_11 1_555 1_555
Pb16_6 O3_26 1_555 1_555
Pb8_6 O3_26 1_555 1_555
Pb12_17 O15_18 1_555 1_555
Pb9_11 O15_18 1_555 1_555
O8_18 Pb7_6 1_555 1_555
O9_16 Pb16_6 1_555 1_555
O15_18 C22_18 1_555 1_555
O5_11 C23_18 1_555 1_555
O21_18 Pb7_6 1_555 1_555
O24_16 Pb8_6 1_555 1_555
O30_18 Pb12_17 1_555 1_555
C16_18 O9_16 1_555 1_555
C22_18 O30_18 1_555 1_555
C23_18 O19_11 1_555 1_555
C27_18 C16_18 1_555 1_555
C33_18 C22_18 1_555 1_555
C34_18 C23_18 1_555 1_555
C38_18 C27_18 1_555 1_555
C44_18 C33_18 1_555 1_555
C45_18 C34_18 1_555 1_555
H15_18 C38_18 1_555 1_555
H21_18 C44_18 1_555 1_555
H22_18 C45_18 1_555 1_555
C51_18 C38_18 1_555 1_555
C55_18 C44_18 1_555 1_555
C56_18 C45_18 1_555 1_555
C62_18 C51_18 1_555 1_555
C65_18 C56_18 1_555 1_555
C68_18 C55_18 1_555 1_555
C73_18 C62_18 1_555 1_555
C76_18 C65_18 1_555 1_555
C79_18 C68_18 1_555 1_555
H28_18 C73_18 1_555 1_555
H31_18 C76_18 1_555 1_555
H34_18 C79_18 1_555 1_555
C82_18 C27_18 1_555 1_555
C87_18 C34_18 1_555 1_555
C90_18 C33_18 1_555 1_555
H37_18 C82_18 1_555 1_555
H42_18 C87_18 1_555 1_555
H45_18 C90_18 1_555 1_555
C95_18 C51_18 1_555 1_555
C98_18 C55_18 1_555 1_555
C101_18 C56_18 1_555 1_555
C106_18 C95_18 1_555 1_555
C109_18 C98_18 1_555 1_555
C112_18 C101_18 1_555 1_555
C117_18 C62_18 1_555 1_555
C120_18 C65_18 1_555 1_555
C123_18 C68_18 1_555 1_555
C128_18 C95_18 1_555 1_555
C131_18 C98_18 1_555 1_555
C134_18 C101_18 1_555 1_555
H50_18 C128_18 1_555 1_555
H53_18 C131_18 1_555 1_555
H56_18 C134_18 1_555 1_555
H61_18 C128_18 1_555 1_555
H64_18 C131_18 1_555 1_555
H67_18 C134_18 1_555 1_555
C139_18 C128_18 1_555 1_555
C142_18 C131_18 1_555 1_555
C145_18 C134_18 1_555 1_555
H72_18 C139_18 1_555 1_555
H75_18 C142_18 1_555 1_555
H78_18 C145_18 1_555 1_555
H83_18 C139_18 1_555 1_555
H86_18 C142_18 1_555 1_555
H89_18 C145_18 1_555 1_555
H94_18 C139_18 1_555 1_555
H97_18 C142_18 1_555 1_555
H100_18 C145_18 1_555 1_555
C150_18 C95_18 1_555 1_555
C153_18 C98_18 1_555 1_555
C156_18 C101_18 1_555 1_555
H105_18 C150_18 1_555 1_555
H108_18 C153_18 1_555 1_555
H111_18 C156_18 1_555 1_555
H116_18 C150_18 1_555 1_555
H119_18 C153_18 1_555 1_555
H122_18 C156_18 1_555 1_555
C161_18 C150_18 1_555 1_555
C164_18 C153_18 1_555 1_555
C167_18 C156_18 1_555 1_555
H127_18 C161_18 1_555 1_555
H130_18 C164_18 1_555 1_555
H133_18 C167_18 1_555 1_555
H138_18 C161_18 1_555 1_555
H141_18 C164_18 1_555 1_555
H144_18 C167_18 1_555 1_555
H149_18 C161_18 1_555 1_555
H152_18 C164_18 1_555 1_555
H155_18 C167_18 1_555 1_555
O3_26 Pb7_6 1_555 1_555
Pb8_6 O8_18 1_555 1_555
Pb8_6 O9_16 1_555 1_555
O24_16 C16_18 1_555 1_555
C73_18 C82_18 1_555 1_555
C76_18 C87_18 1_555 1_555
C79_18 C90_18 1_555 1_555
C106_18 C117_18 1_555 1_555
C106_18 C120_18 1_555 1_555
C109_18 C117_18 1_555 1_555
C109_18 C123_18 1_555 1_555
C112_18 C120_18 1_555 1_555
C112_18 C123_18 1_555 1_555
Pb6_13 O15_19 1_555 1_555
Pb12_13 O15_19 1_555 1_555
O15_19 C22_19 1_555 1_555
O8_17 C23_19 1_555 1_555
O30_19 Pb6_13 1_555 1_555
C16_19 O8_9 1_555 1_555
C22_19 O30_19 1_555 1_555
C23_19 O21_17 1_555 1_555
C27_19 C16_19 1_555 1_555
C33_19 C22_19 1_555 1_555
C34_19 C23_19 1_555 1_555
C38_19 C27_19 1_555 1_555
C44_19 C33_19 1_555 1_555
C45_19 C34_19 1_555 1_555
H15_19 C38_19 1_555 1_555
H21_19 C44_19 1_555 1_555
H22_19 C45_19 1_555 1_555
C51_19 C38_19 1_555 1_555
C55_19 C44_19 1_555 1_555
C56_19 C45_19 1_555 1_555
C62_19 C51_19 1_555 1_555
C65_19 C56_19 1_555 1_555
C68_19 C55_19 1_555 1_555
C73_19 C62_19 1_555 1_555
C76_19 C65_19 1_555 1_555
C79_19 C68_19 1_555 1_555
H28_19 C73_19 1_555 1_555
H31_19 C76_19 1_555 1_555
H34_19 C79_19 1_555 1_555
C82_19 C27_19 1_555 1_555
C87_19 C34_19 1_555 1_555
C90_19 C33_19 1_555 1_555
H37_19 C82_19 1_555 1_555
H42_19 C87_19 1_555 1_555
H45_19 C90_19 1_555 1_555
C95_19 C51_19 1_555 1_555
C98_19 C55_19 1_555 1_555
C101_19 C56_19 1_555 1_555
C106_19 C95_19 1_555 1_555
C109_19 C98_19 1_555 1_555
C112_19 C101_19 1_555 1_555
C117_19 C62_19 1_555 1_555
C120_19 C65_19 1_555 1_555
C123_19 C68_19 1_555 1_555
C128_19 C95_19 1_555 1_555
C131_19 C98_19 1_555 1_555
C134_19 C101_19 1_555 1_555
H50_19 C128_19 1_555 1_555
H53_19 C131_19 1_555 1_555
H56_19 C134_19 1_555 1_555
H61_19 C128_19 1_555 1_555
H64_19 C131_19 1_555 1_555
H67_19 C134_19 1_555 1_555
C139_19 C128_19 1_555 1_555
C142_19 C131_19 1_555 1_555
C145_19 C134_19 1_555 1_555
H72_19 C139_19 1_555 1_555
H75_19 C142_19 1_555 1_555
H78_19 C145_19 1_555 1_555
H83_19 C139_19 1_555 1_555
H86_19 C142_19 1_555 1_555
H89_19 C145_19 1_555 1_555
H94_19 C139_19 1_555 1_555
H97_19 C142_19 1_555 1_555
H100_19 C145_19 1_555 1_555
C150_19 C95_19 1_555 1_555
C153_19 C98_19 1_555 1_555
C156_19 C101_19 1_555 1_555
H105_19 C150_19 1_555 1_555
H108_19 C153_19 1_555 1_555
H111_19 C156_19 1_555 1_555
H116_19 C150_19 1_555 1_555
H119_19 C153_19 1_555 1_555
H122_19 C156_19 1_555 1_555
C161_19 C150_19 1_555 1_555
C164_19 C153_19 1_555 1_555
C167_19 C156_19 1_555 1_555
H127_19 C161_19 1_555 1_555
H130_19 C164_19 1_555 1_555
H133_19 C167_19 1_555 1_555
H138_19 C161_19 1_555 1_555
H141_19 C164_19 1_555 1_555
H144_19 C167_19 1_555 1_555
H149_19 C161_19 1_555 1_555
H152_19 C164_19 1_555 1_555
H155_19 C167_19 1_555 1_555
O21_9 C16_19 1_555 1_555
C73_19 C82_19 1_555 1_555
C76_19 C87_19 1_555 1_555
C79_19 C90_19 1_555 1_555
C106_19 C117_19 1_555 1_555
C106_19 C120_19 1_555 1_555
C109_19 C117_19 1_555 1_555
C109_19 C123_19 1_555 1_555
C112_19 C120_19 1_555 1_555
C112_19 C123_19 1_555 1_555
Pb8_10 O15_20 1_555 1_555
Pb12 O15_20 1_555 1_555
Pb13_3 O16_6 1_555 1_555
Pb8_8 O16_6 1_555 1_555
O15_20 C22_20 1_555 1_555
O16_6 C23_20 1_555 1_555
O30_20 Pb8_10 1_555 1_555
O31_6 Pb13_3 1_555 1_555
C16_20 O8_3 1_555 1_555
C22_20 O30_20 1_555 1_555
C23_20 O31_6 1_555 1_555
C27_20 C16_20 1_555 1_555
C33_20 C22_20 1_555 1_555
C34_20 C23_20 1_555 1_555
C38_20 C27_20 1_555 1_555
C44_20 C33_20 1_555 1_555
C45_20 C34_20 1_555 1_555
H15_20 C38_20 1_555 1_555
H21_20 C44_20 1_555 1_555
H22_20 C45_20 1_555 1_555
C51_20 C38_20 1_555 1_555
C55_20 C44_20 1_555 1_555
C56_20 C45_20 1_555 1_555
C62_20 C51_20 1_555 1_555
C65_20 C56_20 1_555 1_555
C68_20 C55_20 1_555 1_555
C73_20 C62_20 1_555 1_555
C76_20 C65_20 1_555 1_555
C79_20 C68_20 1_555 1_555
H28_20 C73_20 1_555 1_555
H31_20 C76_20 1_555 1_555
H34_20 C79_20 1_555 1_555
C82_20 C27_20 1_555 1_555
C87_20 C34_20 1_555 1_555
C90_20 C33_20 1_555 1_555
H37_20 C82_20 1_555 1_555
H42_20 C87_20 1_555 1_555
H45_20 C90_20 1_555 1_555
C95_20 C51_20 1_555 1_555
C98_20 C55_20 1_555 1_555
C101_20 C56_20 1_555 1_555
C106_20 C95_20 1_555 1_555
C109_20 C98_20 1_555 1_555
C112_20 C101_20 1_555 1_555
C117_20 C62_20 1_555 1_555
C120_20 C65_20 1_555 1_555
C123_20 C68_20 1_555 1_555
C128_20 C95_20 1_555 1_555
C131_20 C98_20 1_555 1_555
C134_20 C101_20 1_555 1_555
H50_20 C128_20 1_555 1_555
H53_20 C131_20 1_555 1_555
H56_20 C134_20 1_555 1_555
H61_20 C128_20 1_555 1_555
H64_20 C131_20 1_555 1_555
H67_20 C134_20 1_555 1_555
C139_20 C128_20 1_555 1_555
C142_20 C131_20 1_555 1_555
C145_20 C134_20 1_555 1_555
H72_20 C139_20 1_555 1_555
H75_20 C142_20 1_555 1_555
H78_20 C145_20 1_555 1_555
H83_20 C139_20 1_555 1_555
H86_20 C142_20 1_555 1_555
H89_20 C145_20 1_555 1_555
H94_20 C139_20 1_555 1_555
H97_20 C142_20 1_555 1_555
H100_20 C145_20 1_555 1_555
C150_20 C95_20 1_555 1_555
C153_20 C98_20 1_555 1_555
C156_20 C101_20 1_555 1_555
H105_20 C150_20 1_555 1_555
H108_20 C153_20 1_555 1_555
H111_20 C156_20 1_555 1_555
H116_20 C150_20 1_555 1_555
H119_20 C153_20 1_555 1_555
H122_20 C156_20 1_555 1_555
C161_20 C150_20 1_555 1_555
C164_20 C153_20 1_555 1_555
C167_20 C156_20 1_555 1_555
H127_20 C161_20 1_555 1_555
H130_20 C164_20 1_555 1_555
H133_20 C167_20 1_555 1_555
H138_20 C161_20 1_555 1_555
H141_20 C164_20 1_555 1_555
H144_20 C167_20 1_555 1_555
H149_20 C161_20 1_555 1_555
H152_20 C164_20 1_555 1_555
H155_20 C167_20 1_555 1_555
O21_3 C16_20 1_555 1_555
C73_20 C82_20 1_555 1_555
C76_20 C87_20 1_555 1_555
C79_20 C90_20 1_555 1_555
C106_20 C117_20 1_555 1_555
C106_20 C120_20 1_555 1_555
C109_20 C117_20 1_555 1_555
C109_20 C123_20 1_555 1_555
C112_20 C120_20 1_555 1_555
C112_20 C123_20 1_555 1_555
Pb12_16 O1_12 1_555 1_555
O1_12 C1_15 1_555 1_555
O2_12 Pb12_16 1_555 1_555
O3_27 Pb12_16 1_555 1_555
C1_15 O2_12 1_555 1_555
C2_15 C1_15 1_555 1_555
C3_15 C2_15 1_555 1_555
H1_15 C3_15 1_555 1_555
C4_15 C3_15 1_555 1_555
C5_15 C4_15 1_555 1_555
C6_15 C5_15 1_555 1_555
H2_15 C6_15 1_555 1_555
C7_15 C2_15 1_555 1_555
H3_15 C7_15 1_555 1_555
C8_15 C4_15 1_555 1_555
C9_15 C8_15 1_555 1_555
C10_15 C5_15 1_555 1_555
C11_15 C8_15 1_555 1_555
H4_15 C11_15 1_555 1_555
H5_15 C11_15 1_555 1_555
C12_15 C11_15 1_555 1_555
H6_15 C12_15 1_555 1_555
H7_15 C12_15 1_555 1_555
H8_15 C12_15 1_555 1_555
C13_15 C8_15 1_555 1_555
H9_15 C13_15 1_555 1_555
H10_15 C13_15 1_555 1_555
C14_15 C13_15 1_555 1_555
H11_15 C14_15 1_555 1_555
H12_15 C14_15 1_555 1_555
H13_15 C14_15 1_555 1_555
Pb9_10 O1_12 1_555 1_555
Pb6_10 O3_27 1_555 1_555
Pb5_10 O3_27 1_555 1_555
Pb8 O12_13 1_555 1_555
Pb12_14 O12_13 1_555 1_555
O4_16 Pb12_16 1_555 1_555
O4 C18_15 1_555 1_555
O12_13 C19_15 1_555 1_555
O22_16 Pb6_10 1_555 1_555
O27_13 Pb8 1_555 1_555
C18_15 O22 1_555 1_555
C19_15 O27_13 1_555 1_555
C29_15 C18_15 1_555 1_555
C30_15 C19_15 1_555 1_555
C40_15 C29_15 1_555 1_555
C41_15 C30_15 1_555 1_555
H17_15 C40_15 1_555 1_555
H18_15 C41_15 1_555 1_555
C48_15 C40_15 1_555 1_555
C49_15 C41_15 1_555 1_555
C59_15 C48_15 1_555 1_555
C60_15 C49_15 1_555 1_555
C70_15 C59_15 1_555 1_555
C71_15 C60_15 1_555 1_555
H25_15 C70_15 1_555 1_555
H26_15 C71_15 1_555 1_555
C84_15 C29_15 1_555 1_555
C85_15 C30_15 1_555 1_555
H39_15 C84_15 1_555 1_555
H40_15 C85_15 1_555 1_555
C92_15 C49_15 1_555 1_555
C93_15 C48_15 1_555 1_555
C103_15 C10_15 1_555 1_555
C104_15 C93_15 1_555 1_555
C114_15 C9_15 1_555 1_555
C115_15 C60_15 1_555 1_555
C125_15 C92_15 1_555 1_555
C126_15 C93_15 1_555 1_555
H47_15 C125_15 1_555 1_555
H48_15 C126_15 1_555 1_555
H58_15 C125_15 1_555 1_555
H59_15 C126_15 1_555 1_555
C136_15 C125_15 1_555 1_555
C137_15 C126_15 1_555 1_555
H69_15 C136_15 1_555 1_555
H70_15 C137_15 1_555 1_555
H80_15 C136_15 1_555 1_555
H81_15 C137_15 1_555 1_555
H91_15 C136_15 1_555 1_555
H92_15 C137_15 1_555 1_555
C147_15 C92_15 1_555 1_555
C148_15 C93_15 1_555 1_555
H102_15 C147_15 1_555 1_555
H103_15 C148_15 1_555 1_555
H113_15 C147_15 1_555 1_555
H114_15 C148_15 1_555 1_555
C158_15 C147_15 1_555 1_555
C159_15 C148_15 1_555 1_555
H124_15 C158_15 1_555 1_555
H125_15 C159_15 1_555 1_555
H135_15 C158_15 1_555 1_555
H136_15 C159_15 1_555 1_555
H146_15 C158_15 1_555 1_555
H147_15 C159_15 1_555 1_555
O3_27 Pb9_10 1_555 1_555
C6_15 C7_15 1_555 1_555
C9_15 C10_15 1_555 1_555
Pb6_10 O4_16 1_555 1_555
C59_15 C114_15 1_555 1_555
C70_15 C84_15 1_555 1_555
C71_15 C85_15 1_555 1_555
C92_15 C103_15 1_555 1_555
C103_15 C115_15 1_555 1_555
C104_15 C114_15 1_555 1_555
C104_15 C115_15 1_555 1_555
O3_28 Pb12_17 1_555 1_555
Pb6_11 O3_28 1_555 1_555
Pb5_11 O3_28 1_555 1_555
O6_5 Pb12_17 1_555 1_555
O8_19 Pb9_11 1_555 1_555
O8_16 C25_7 1_555 1_555
O21_19 Pb9_11 1_555 1_555
O23_5 Pb6_11 1_555 1_555
C17_7 O6_5 1_555 1_555
C24_7 O8_10 1_555 1_555
C25_7 O21_16 1_555 1_555
C28_7 C17_7 1_555 1_555
C35_7 C24_7 1_555 1_555
C36_7 C25_7 1_555 1_555
C39_7 C28_7 1_555 1_555
C46_7 C35_7 1_555 1_555
C47_7 C36_7 1_555 1_555
H16_7 C39_7 1_555 1_555
H23_7 C46_7 1_555 1_555
H24_7 C47_7 1_555 1_555
C52_7 C39_7 1_555 1_555
C57_7 C46_7 1_555 1_555
C58_7 C47_7 1_555 1_555
C63_7 C52_7 1_555 1_555
C66_7 C58_7 1_555 1_555
C69_7 C57_7 1_555 1_555
C74_7 C63_7 1_555 1_555
C77_7 C66_7 1_555 1_555
C80_7 C69_7 1_555 1_555
H29_7 C74_7 1_555 1_555
H32_7 C77_7 1_555 1_555
H35_7 C80_7 1_555 1_555
C83_7 C28_7 1_555 1_555
C88_7 C36_7 1_555 1_555
C91_7 C35_7 1_555 1_555
H38_7 C83_7 1_555 1_555
H43_7 C88_7 1_555 1_555
H46_7 C91_7 1_555 1_555
C96_7 C52_7 1_555 1_555
C99_7 C57_7 1_555 1_555
C102_7 C58_7 1_555 1_555
C107_7 C96_7 1_555 1_555
C110_7 C99_7 1_555 1_555
C113_7 C102_7 1_555 1_555
C118_7 C63_7 1_555 1_555
C121_7 C66_7 1_555 1_555
C124_7 C69_7 1_555 1_555
C129_7 C96_7 1_555 1_555
C132_7 C99_7 1_555 1_555
C135_7 C102_7 1_555 1_555
H51_7 C129_7 1_555 1_555
H54_7 C132_7 1_555 1_555
H57_7 C135_7 1_555 1_555
H62_7 C129_7 1_555 1_555
H65_7 C132_7 1_555 1_555
H68_7 C135_7 1_555 1_555
C140_7 C129_7 1_555 1_555
C143_7 C132_7 1_555 1_555
C146_7 C135_7 1_555 1_555
H73_7 C140_7 1_555 1_555
H76_7 C143_7 1_555 1_555
H79_7 C146_7 1_555 1_555
H84_7 C140_7 1_555 1_555
H87_7 C143_7 1_555 1_555
H90_7 C146_7 1_555 1_555
H95_7 C140_7 1_555 1_555
H98_7 C143_7 1_555 1_555
H101_7 C146_7 1_555 1_555
C151_7 C96_7 1_555 1_555
C154_7 C99_7 1_555 1_555
C157_7 C102_7 1_555 1_555
H106_7 C151_7 1_555 1_555
H109_7 C154_7 1_555 1_555
H112_7 C157_7 1_555 1_555
H117_7 C151_7 1_555 1_555
H120_7 C154_7 1_555 1_555
H123_7 C157_7 1_555 1_555
C162_7 C151_7 1_555 1_555
C165_7 C154_7 1_555 1_555
C168_7 C157_7 1_555 1_555
H128_7 C162_7 1_555 1_555
H131_7 C165_7 1_555 1_555
H134_7 C168_7 1_555 1_555
H139_7 C162_7 1_555 1_555
H142_7 C165_7 1_555 1_555
H145_7 C168_7 1_555 1_555
H150_7 C162_7 1_555 1_555
H153_7 C165_7 1_555 1_555
H156_7 C168_7 1_555 1_555
O3_28 Pb9_11 1_555 1_555
Pb6_11 O6_5 1_555 1_555
Pb5_11 O8_19 1_555 1_555
O23_5 C17_7 1_555 1_555
O21_10 C24_7 1_555 1_555
C74_7 C83_7 1_555 1_555
C77_7 C88_7 1_555 1_555
C80_7 C91_7 1_555 1_555
C107_7 C118_7 1_555 1_555
C107_7 C121_7 1_555 1_555
C110_7 C118_7 1_555 1_555
C110_7 C124_7 1_555 1_555
C113_7 C121_7 1_555 1_555
C113_7 C124_7 1_555 1_555
O3_29 Pb12_8 1_555 1_555
Pb12_14 O3_29 1_555 1_555
Pb8 O3_29 1_555 1_555
O4_17 Pb12_8 1_555 1_555
O22_17 Pb12_14 1_555 1_555
O3_29 Pb7 1_555 1_555
Pb12_14 O4_17 1_555 1_555
O3_30 Pb12_9 1_555 1_555
Pb12_15 O3_30 1_555 1_555
Pb8_2 O3_30 1_555 1_555
Pb13_9 O15_21 1_555 1_555
Pb9_5 O15_21 1_555 1_555
O8_20 Pb7_2 1_555 1_555
O9_17 Pb12_15 1_555 1_555
O15_21 C22_21 1_555 1_555
O8_13 C23_21 1_555 1_555
O21_20 Pb7_2 1_555 1_555
O24_17 Pb8_2 1_555 1_555
O30_21 Pb13_9 1_555 1_555
C16_21 O9_17 1_555 1_555
C22_21 O30_21 1_555 1_555
C23_21 O21_13 1_555 1_555
C27_21 C16_21 1_555 1_555
C33_21 C22_21 1_555 1_555
C34_21 C23_21 1_555 1_555
C38_21 C27_21 1_555 1_555
C44_21 C33_21 1_555 1_555
C45_21 C34_21 1_555 1_555
H15_21 C38_21 1_555 1_555
H21_21 C44_21 1_555 1_555
H22_21 C45_21 1_555 1_555
C51_21 C38_21 1_555 1_555
C55_21 C44_21 1_555 1_555
C56_21 C45_21 1_555 1_555
C62_21 C51_21 1_555 1_555
C65_21 C56_21 1_555 1_555
C68_21 C55_21 1_555 1_555
C73_21 C62_21 1_555 1_555
C76_21 C65_21 1_555 1_555
C79_21 C68_21 1_555 1_555
H28_21 C73_21 1_555 1_555
H31_21 C76_21 1_555 1_555
H34_21 C79_21 1_555 1_555
C82_21 C27_21 1_555 1_555
C87_21 C34_21 1_555 1_555
C90_21 C33_21 1_555 1_555
H37_21 C82_21 1_555 1_555
H42_21 C87_21 1_555 1_555
H45_21 C90_21 1_555 1_555
C95_21 C51_21 1_555 1_555
C98_21 C55_21 1_555 1_555
C101_21 C56_21 1_555 1_555
C106_21 C95_21 1_555 1_555
C109_21 C98_21 1_555 1_555
C112_21 C101_21 1_555 1_555
C117_21 C62_21 1_555 1_555
C120_21 C65_21 1_555 1_555
C123_21 C68_21 1_555 1_555
C128_21 C95_21 1_555 1_555
C131_21 C98_21 1_555 1_555
C134_21 C101_21 1_555 1_555
H50_21 C128_21 1_555 1_555
H53_21 C131_21 1_555 1_555
H56_21 C134_21 1_555 1_555
H61_21 C128_21 1_555 1_555
H64_21 C131_21 1_555 1_555
H67_21 C134_21 1_555 1_555
C139_21 C128_21 1_555 1_555
C142_21 C131_21 1_555 1_555
C145_21 C134_21 1_555 1_555
H72_21 C139_21 1_555 1_555
H75_21 C142_21 1_555 1_555
H78_21 C145_21 1_555 1_555
H83_21 C139_21 1_555 1_555
H86_21 C142_21 1_555 1_555
H89_21 C145_21 1_555 1_555
H94_21 C139_21 1_555 1_555
H97_21 C142_21 1_555 1_555
H100_21 C145_21 1_555 1_555
C150_21 C95_21 1_555 1_555
C153_21 C98_21 1_555 1_555
C156_21 C101_21 1_555 1_555
H105_21 C150_21 1_555 1_555
H108_21 C153_21 1_555 1_555
H111_21 C156_21 1_555 1_555
H116_21 C150_21 1_555 1_555
H119_21 C153_21 1_555 1_555
H122_21 C156_21 1_555 1_555
C161_21 C150_21 1_555 1_555
C164_21 C153_21 1_555 1_555
C167_21 C156_21 1_555 1_555
H127_21 C161_21 1_555 1_555
H130_21 C164_21 1_555 1_555
H133_21 C167_21 1_555 1_555
H138_21 C161_21 1_555 1_555
H141_21 C164_21 1_555 1_555
H144_21 C167_21 1_555 1_555
H149_21 C161_21 1_555 1_555
H152_21 C164_21 1_555 1_555
H155_21 C167_21 1_555 1_555
O3_30 Pb7_2 1_555 1_555
Pb8_2 O8_20 1_555 1_555
Pb8_2 O9_17 1_555 1_555
O24_17 C16_21 1_555 1_555
C73_21 C82_21 1_555 1_555
C76_21 C87_21 1_555 1_555
C79_21 C90_21 1_555 1_555
C106_21 C117_21 1_555 1_555
C106_21 C120_21 1_555 1_555
C109_21 C117_21 1_555 1_555
C109_21 C123_21 1_555 1_555
C112_21 C120_21 1_555 1_555
C112_21 C123_21 1_555 1_555
O10_7 C1_16 1_555 1_555
C1_16 O25_7 1_555 1_555
C2_16 C1_16 1_555 1_555
C3_16 C2_16 1_555 1_555
H1_16 C3_16 1_555 1_555
C4_16 C3_16 1_555 1_555
C5_16 C4_16 1_555 1_555
C6_16 C5_16 1_555 1_555
H2_16 C6_16 1_555 1_555
C7_16 C2_16 1_555 1_555
H3_16 C7_16 1_555 1_555
C8_16 C4_16 1_555 1_555
C9_16 C8_16 1_555 1_555
C10_16 C5_16 1_555 1_555
C11_16 C8_16 1_555 1_555
H4_16 C11_16 1_555 1_555
H5_16 C11_16 1_555 1_555
C12_16 C11_16 1_555 1_555
H6_16 C12_16 1_555 1_555
H7_16 C12_16 1_555 1_555
H8_16 C12_16 1_555 1_555
C13_16 C8_16 1_555 1_555
H9_16 C13_16 1_555 1_555
H10_16 C13_16 1_555 1_555
C14_16 C13_16 1_555 1_555
H11_16 C14_16 1_555 1_555
H12_16 C14_16 1_555 1_555
H13_16 C14_16 1_555 1_555
Pb8_10 O11_12 1_555 1_555
Pb12 O11_12 1_555 1_555
Pb12_12 O12_14 1_555 1_555
Pb7_3 O12_14 1_555 1_555
O11_12 C18_16 1_555 1_555
O12_14 C19_16 1_555 1_555
O26_12 Pb8_10 1_555 1_555
O27_14 Pb12_12 1_555 1_555
C18_16 O26_12 1_555 1_555
C19_16 O27_14 1_555 1_555
C29_16 C18_16 1_555 1_555
C30_16 C19_16 1_555 1_555
C40_16 C29_16 1_555 1_555
C41_16 C30_16 1_555 1_555
H17_16 C40_16 1_555 1_555
H18_16 C41_16 1_555 1_555
C48_16 C40_16 1_555 1_555
C49_16 C41_16 1_555 1_555
C59_16 C48_16 1_555 1_555
C60_16 C49_16 1_555 1_555
C70_16 C59_16 1_555 1_555
C71_16 C60_16 1_555 1_555
H25_16 C70_16 1_555 1_555
H26_16 C71_16 1_555 1_555
C84_16 C29_16 1_555 1_555
C85_16 C30_16 1_555 1_555
H39_16 C84_16 1_555 1_555
H40_16 C85_16 1_555 1_555
C92_16 C49_16 1_555 1_555
C93_16 C48_16 1_555 1_555
C103_16 C10_16 1_555 1_555
C104_16 C93_16 1_555 1_555
C114_16 C9_16 1_555 1_555
C115_16 C60_16 1_555 1_555
C125_16 C92_16 1_555 1_555
C126_16 C93_16 1_555 1_555
H47_16 C125_16 1_555 1_555
H48_16 C126_16 1_555 1_555
H58_16 C125_16 1_555 1_555
H59_16 C126_16 1_555 1_555
C136_16 C125_16 1_555 1_555
C137_16 C126_16 1_555 1_555
H69_16 C136_16 1_555 1_555
H70_16 C137_16 1_555 1_555
H80_16 C136_16 1_555 1_555
H81_16 C137_16 1_555 1_555
H91_16 C136_16 1_555 1_555
H92_16 C137_16 1_555 1_555
C147_16 C92_16 1_555 1_555
C148_16 C93_16 1_555 1_555
H102_16 C147_16 1_555 1_555
H103_16 C148_16 1_555 1_555
H113_16 C147_16 1_555 1_555
H114_16 C148_16 1_555 1_555
C158_16 C147_16 1_555 1_555
C159_16 C148_16 1_555 1_555
H124_16 C158_16 1_555 1_555
H125_16 C159_16 1_555 1_555
H135_16 C158_16 1_555 1_555
H136_16 C159_16 1_555 1_555
H146_16 C158_16 1_555 1_555
H147_16 C159_16 1_555 1_555
C6_16 C7_16 1_555 1_555
C9_16 C10_16 1_555 1_555
C59_16 C114_16 1_555 1_555
C70_16 C84_16 1_555 1_555
C71_16 C85_16 1_555 1_555
C92_16 C103_16 1_555 1_555
C103_16 C115_16 1_555 1_555
C104_16 C114_16 1_555 1_555
C104_16 C115_16 1_555 1_555
O3_31 Pb13_3 1_555 1_555
Pb12_3 O3_31 1_555 1_555
Pb5_12 O3_31 1_555 1_555
O4_18 Pb13_3 1_555 1_555
O8_21 Pb8_8 1_555 1_555
O21_21 Pb8_8 1_555 1_555
O22_18 Pb12_3 1_555 1_555
O3_31 Pb8_8 1_555 1_555
Pb12_3 O4_18 1_555 1_555
Pb5_12 O8_21 1_555 1_555
O3_32 Pb12_12 1_555 1_555
Pb6_12 O3_32 1_555 1_555
Pb8_3 O3_32 1_555 1_555
O4_19 Pb12_12 1_555 1_555
O22_19 Pb6_12 1_555 1_555
O3_32 Pb7_3 1_555 1_555
Pb6_12 O4_19 1_555 1_555
O3_33 Pb12_13 1_555 1_555
Pb6_13 O3_33 1_555 1_555
Pb8_4 O3_33 1_555 1_555
O8_22 Pb7_4 1_555 1_555
O21_22 Pb7_4 1_555 1_555
O3_33 Pb7_4 1_555 1_555
Pb8_4 O8_22 1_555 1_555
O3_34 Pb13 1_555 1_555
Pb12 O3_34 1_555 1_555
Pb8_10 O3_34 1_555 1_555
O4_20 Pb13 1_555 1_555
O8_23 Pb8_7 1_555 1_555
O21_23 Pb8_7 1_555 1_555
O22_20 Pb12 1_555 1_555
O3_34 Pb8_7 1_555 1_555
Pb12 O4_20 1_555 1_555
Pb8_10 O8_23 1_555 1_555
O3_35 Pb13_8 1_555 1_555
Pb6_4 O3_35 1_555 1_555
Pb5_4 O3_35 1_555 1_555
O4_21 Pb13_8 1_555 1_555
O22_21 Pb6_4 1_555 1_555
O3_35 Pb9_4 1_555 1_555
Pb6_4 O4_21 1_555 1_555
O3_36 Pb13_9 1_555 1_555
Pb6_5 O3_36 1_555 1_555
Pb5_5 O3_36 1_555 1_555
O8_24 Pb9_5 1_555 1_555
O21_24 Pb9_5 1_555 1_555
O3_36 Pb9_5 1_555 1_555
Pb5_5 O8_24 1_555 1_555
O4_15 C1_17 1_555 1_555
C1_17 O22_15 1_555 1_555
C2_17 C1_17 1_555 1_555
C3_17 C2_17 1_555 1_555
H1_17 C3_17 1_555 1_555
C4_17 C3_17 1_555 1_555
C5_17 C4_17 1_555 1_555
C6_17 C5_17 1_555 1_555
H2_17 C6_17 1_555 1_555
C7_17 C2_17 1_555 1_555
H3_17 C7_17 1_555 1_555
C8_17 C4_17 1_555 1_555
C9_17 C8_17 1_555 1_555
C10_17 C5_17 1_555 1_555
C11_17 C8_17 1_555 1_555
H4_17 C11_17 1_555 1_555
H5_17 C11_17 1_555 1_555
C12_17 C11_17 1_555 1_555
H6_17 C12_17 1_555 1_555
H7_17 C12_17 1_555 1_555
H8_17 C12_17 1_555 1_555
C13_17 C8_17 1_555 1_555
H9_17 C13_17 1_555 1_555
H10_17 C13_17 1_555 1_555
C14_17 C13_17 1_555 1_555
H11_17 C14_17 1_555 1_555
H12_17 C14_17 1_555 1_555
H13_17 C14_17 1_555 1_555
O4_13 C18_17 1_555 1_555
O4_14 C19_17 1_555 1_555
C18_17 O22_13 1_555 1_555
C19_17 O22_14 1_555 1_555
C29_17 C18_17 1_555 1_555
C30_17 C19_17 1_555 1_555
C40_17 C29_17 1_555 1_555
C41_17 C30_17 1_555 1_555
H17_17 C40_17 1_555 1_555
H18_17 C41_17 1_555 1_555
C48_17 C40_17 1_555 1_555
C49_17 C41_17 1_555 1_555
C59_17 C48_17 1_555 1_555
C60_17 C49_17 1_555 1_555
C70_17 C59_17 1_555 1_555
C71_17 C60_17 1_555 1_555
H25_17 C70_17 1_555 1_555
H26_17 C71_17 1_555 1_555
C84_17 C29_17 1_555 1_555
C85_17 C30_17 1_555 1_555
H39_17 C84_17 1_555 1_555
H40_17 C85_17 1_555 1_555
C92_17 C49_17 1_555 1_555
C93_17 C48_17 1_555 1_555
C103_17 C10_17 1_555 1_555
C104_17 C93_17 1_555 1_555
C114_17 C9_17 1_555 1_555
C115_17 C60_17 1_555 1_555
C125_17 C92_17 1_555 1_555
C126_17 C93_17 1_555 1_555
H47_17 C125_17 1_555 1_555
H48_17 C126_17 1_555 1_555
H58_17 C125_17 1_555 1_555
H59_17 C126_17 1_555 1_555
C136_17 C125_17 1_555 1_555
C137_17 C126_17 1_555 1_555
H69_17 C136_17 1_555 1_555
H70_17 C137_17 1_555 1_555
H80_17 C136_17 1_555 1_555
H81_17 C137_17 1_555 1_555
H91_17 C136_17 1_555 1_555
H92_17 C137_17 1_555 1_555
C147_17 C92_17 1_555 1_555
C148_17 C93_17 1_555 1_555
H102_17 C147_17 1_555 1_555
H103_17 C148_17 1_555 1_555
H113_17 C147_17 1_555 1_555
H114_17 C148_17 1_555 1_555
C158_17 C147_17 1_555 1_555
C159_17 C148_17 1_555 1_555
H124_17 C158_17 1_555 1_555
H125_17 C159_17 1_555 1_555
H135_17 C158_17 1_555 1_555
H136_17 C159_17 1_555 1_555
H146_17 C158_17 1_555 1_555
H147_17 C159_17 1_555 1_555
C6_17 C7_17 1_555 1_555
C9_17 C10_17 1_555 1_555
C59_17 C114_17 1_555 1_555
C70_17 C84_17 1_555 1_555
C71_17 C85_17 1_555 1_555
C92_17 C103_17 1_555 1_555
C103_17 C115_17 1_555 1_555
C104_17 C114_17 1_555 1_555
C104_17 C115_17 1_555 1_555
O8_7 C22_22 1_555 1_555
O8_19 C23_22 1_555 1_555
C16_22 O8_18 1_555 1_555
C22_22 O21_7 1_555 1_555
C23_22 O21_19 1_555 1_555
C27_22 C16_22 1_555 1_555
C33_22 C22_22 1_555 1_555
C34_22 C23_22 1_555 1_555
C38_22 C27_22 1_555 1_555
C44_22 C33_22 1_555 1_555
C45_22 C34_22 1_555 1_555
H15_22 C38_22 1_555 1_555
H21_22 C44_22 1_555 1_555
H22_22 C45_22 1_555 1_555
C51_22 C38_22 1_555 1_555
C55_22 C44_22 1_555 1_555
C56_22 C45_22 1_555 1_555
C62_22 C51_22 1_555 1_555
C65_22 C56_22 1_555 1_555
C68_22 C55_22 1_555 1_555
C73_22 C62_22 1_555 1_555
C76_22 C65_22 1_555 1_555
C79_22 C68_22 1_555 1_555
H28_22 C73_22 1_555 1_555
H31_22 C76_22 1_555 1_555
H34_22 C79_22 1_555 1_555
C82_22 C27_22 1_555 1_555
C87_22 C34_22 1_555 1_555
C90_22 C33_22 1_555 1_555
H37_22 C82_22 1_555 1_555
H42_22 C87_22 1_555 1_555
H45_22 C90_22 1_555 1_555
C95_22 C51_22 1_555 1_555
C98_22 C55_22 1_555 1_555
C101_22 C56_22 1_555 1_555
C106_22 C95_22 1_555 1_555
C109_22 C98_22 1_555 1_555
C112_22 C101_22 1_555 1_555
C117_22 C62_22 1_555 1_555
C120_22 C65_22 1_555 1_555
C123_22 C68_22 1_555 1_555
C128_22 C95_22 1_555 1_555
C131_22 C98_22 1_555 1_555
C134_22 C101_22 1_555 1_555
H50_22 C128_22 1_555 1_555
H53_22 C131_22 1_555 1_555
H56_22 C134_22 1_555 1_555
H61_22 C128_22 1_555 1_555
H64_22 C131_22 1_555 1_555
H67_22 C134_22 1_555 1_555
C139_22 C128_22 1_555 1_555
C142_22 C131_22 1_555 1_555
C145_22 C134_22 1_555 1_555
H72_22 C139_22 1_555 1_555
H75_22 C142_22 1_555 1_555
H78_22 C145_22 1_555 1_555
H83_22 C139_22 1_555 1_555
H86_22 C142_22 1_555 1_555
H89_22 C145_22 1_555 1_555
H94_22 C139_22 1_555 1_555
H97_22 C142_22 1_555 1_555
H100_22 C145_22 1_555 1_555
C150_22 C95_22 1_555 1_555
C153_22 C98_22 1_555 1_555
C156_22 C101_22 1_555 1_555
H105_22 C150_22 1_555 1_555
H108_22 C153_22 1_555 1_555
H111_22 C156_22 1_555 1_555
H116_22 C150_22 1_555 1_555
H119_22 C153_22 1_555 1_555
H122_22 C156_22 1_555 1_555
C161_22 C150_22 1_555 1_555
C164_22 C153_22 1_555 1_555
C167_22 C156_22 1_555 1_555
H127_22 C161_22 1_555 1_555
H130_22 C164_22 1_555 1_555
H133_22 C167_22 1_555 1_555
H138_22 C161_22 1_555 1_555
H141_22 C164_22 1_555 1_555
H144_22 C167_22 1_555 1_555
H149_22 C161_22 1_555 1_555
H152_22 C164_22 1_555 1_555
H155_22 C167_22 1_555 1_555
O21_18 C16_22 1_555 1_555
C73_22 C82_22 1_555 1_555
C76_22 C87_22 1_555 1_555
C79_22 C90_22 1_555 1_555
C106_22 C117_22 1_555 1_555
C106_22 C120_22 1_555 1_555
C109_22 C117_22 1_555 1_555
C109_22 C123_22 1_555 1_555
C112_22 C120_22 1_555 1_555
C112_22 C123_22 1_555 1_555
O4_17 C1_18 1_555 1_555
C1_18 O22_17 1_555 1_555
C2_18 C1_18 1_555 1_555
C3_18 C2_18 1_555 1_555
H1_18 C3_18 1_555 1_555
C4_18 C3_18 1_555 1_555
C5_18 C4_18 1_555 1_555
C6_18 C5_18 1_555 1_555
H2_18 C6_18 1_555 1_555
C7_18 C2_18 1_555 1_555
H3_18 C7_18 1_555 1_555
C8_18 C4_18 1_555 1_555
C9_18 C8_18 1_555 1_555
C10_18 C5_18 1_555 1_555
C11_18 C8_18 1_555 1_555
H4_18 C11_18 1_555 1_555
H5_18 C11_18 1_555 1_555
C12_18 C11_18 1_555 1_555
H6_18 C12_18 1_555 1_555
H7_18 C12_18 1_555 1_555
H8_18 C12_18 1_555 1_555
C13_18 C8_18 1_555 1_555
H9_18 C13_18 1_555 1_555
H10_18 C13_18 1_555 1_555
C14_18 C13_18 1_555 1_555
H11_18 C14_18 1_555 1_555
H12_18 C14_18 1_555 1_555
H13_18 C14_18 1_555 1_555
O4_18 C18_18 1_555 1_555
O4_16 C19_18 1_555 1_555
C18_18 O22_18 1_555 1_555
C19_18 O22_16 1_555 1_555
C29_18 C18_18 1_555 1_555
C30_18 C19_18 1_555 1_555
C40_18 C29_18 1_555 1_555
C41_18 C30_18 1_555 1_555
H17_18 C40_18 1_555 1_555
H18_18 C41_18 1_555 1_555
C48_18 C40_18 1_555 1_555
C49_18 C41_18 1_555 1_555
C59_18 C48_18 1_555 1_555
C60_18 C49_18 1_555 1_555
C70_18 C59_18 1_555 1_555
C71_18 C60_18 1_555 1_555
H25_18 C70_18 1_555 1_555
H26_18 C71_18 1_555 1_555
C84_18 C29_18 1_555 1_555
C85_18 C30_18 1_555 1_555
H39_18 C84_18 1_555 1_555
H40_18 C85_18 1_555 1_555
C92_18 C49_18 1_555 1_555
C93_18 C48_18 1_555 1_555
C103_18 C10_18 1_555 1_555
C104_18 C93_18 1_555 1_555
C114_18 C9_18 1_555 1_555
C115_18 C60_18 1_555 1_555
C125_18 C92_18 1_555 1_555
C126_18 C93_18 1_555 1_555
H47_18 C125_18 1_555 1_555
H48_18 C126_18 1_555 1_555
H58_18 C125_18 1_555 1_555
H59_18 C126_18 1_555 1_555
C136_18 C125_18 1_555 1_555
C137_18 C126_18 1_555 1_555
H69_18 C136_18 1_555 1_555
H70_18 C137_18 1_555 1_555
H80_18 C136_18 1_555 1_555
H81_18 C137_18 1_555 1_555
H91_18 C136_18 1_555 1_555
H92_18 C137_18 1_555 1_555
C147_18 C92_18 1_555 1_555
C148_18 C93_18 1_555 1_555
H102_18 C147_18 1_555 1_555
H103_18 C148_18 1_555 1_555
H113_18 C147_18 1_555 1_555
H114_18 C148_18 1_555 1_555
C158_18 C147_18 1_555 1_555
C159_18 C148_18 1_555 1_555
H124_18 C158_18 1_555 1_555
H125_18 C159_18 1_555 1_555
H135_18 C158_18 1_555 1_555
H136_18 C159_18 1_555 1_555
H146_18 C158_18 1_555 1_555
H147_18 C159_18 1_555 1_555
C6_18 C7_18 1_555 1_555
C9_18 C10_18 1_555 1_555
C59_18 C114_18 1_555 1_555
C70_18 C84_18 1_555 1_555
C71_18 C85_18 1_555 1_555
C92_18 C103_18 1_555 1_555
C103_18 C115_18 1_555 1_555
C104_18 C114_18 1_555 1_555
C104_18 C115_18 1_555 1_555
O8_6 C22_23 1_555 1_555
O8_24 C23_23 1_555 1_555
C16_23 O8_20 1_555 1_555
C22_23 O21_6 1_555 1_555
C23_23 O21_24 1_555 1_555
C27_23 C16_23 1_555 1_555
C33_23 C22_23 1_555 1_555
C34_23 C23_23 1_555 1_555
C38_23 C27_23 1_555 1_555
C44_23 C33_23 1_555 1_555
C45_23 C34_23 1_555 1_555
H15_23 C38_23 1_555 1_555
H21_23 C44_23 1_555 1_555
H22_23 C45_23 1_555 1_555
C51_23 C38_23 1_555 1_555
C55_23 C44_23 1_555 1_555
C56_23 C45_23 1_555 1_555
C62_23 C51_23 1_555 1_555
C65_23 C56_23 1_555 1_555
C68_23 C55_23 1_555 1_555
C73_23 C62_23 1_555 1_555
C76_23 C65_23 1_555 1_555
C79_23 C68_23 1_555 1_555
H28_23 C73_23 1_555 1_555
H31_23 C76_23 1_555 1_555
H34_23 C79_23 1_555 1_555
C82_23 C27_23 1_555 1_555
C87_23 C34_23 1_555 1_555
C90_23 C33_23 1_555 1_555
H37_23 C82_23 1_555 1_555
H42_23 C87_23 1_555 1_555
H45_23 C90_23 1_555 1_555
C95_23 C51_23 1_555 1_555
C98_23 C55_23 1_555 1_555
C101_23 C56_23 1_555 1_555
C106_23 C95_23 1_555 1_555
C109_23 C98_23 1_555 1_555
C112_23 C101_23 1_555 1_555
C117_23 C62_23 1_555 1_555
C120_23 C65_23 1_555 1_555
C123_23 C68_23 1_555 1_555
C128_23 C95_23 1_555 1_555
C131_23 C98_23 1_555 1_555
C134_23 C101_23 1_555 1_555
H50_23 C128_23 1_555 1_555
H53_23 C131_23 1_555 1_555
H56_23 C134_23 1_555 1_555
H61_23 C128_23 1_555 1_555
H64_23 C131_23 1_555 1_555
H67_23 C134_23 1_555 1_555
C139_23 C128_23 1_555 1_555
C142_23 C131_23 1_555 1_555
C145_23 C134_23 1_555 1_555
H72_23 C139_23 1_555 1_555
H75_23 C142_23 1_555 1_555
H78_23 C145_23 1_555 1_555
H83_23 C139_23 1_555 1_555
H86_23 C142_23 1_555 1_555
H89_23 C145_23 1_555 1_555
H94_23 C139_23 1_555 1_555
H97_23 C142_23 1_555 1_555
H100_23 C145_23 1_555 1_555
C150_23 C95_23 1_555 1_555
C153_23 C98_23 1_555 1_555
C156_23 C101_23 1_555 1_555
H105_23 C150_23 1_555 1_555
H108_23 C153_23 1_555 1_555
H111_23 C156_23 1_555 1_555
H116_23 C150_23 1_555 1_555
H119_23 C153_23 1_555 1_555
H122_23 C156_23 1_555 1_555
C161_23 C150_23 1_555 1_555
C164_23 C153_23 1_555 1_555
C167_23 C156_23 1_555 1_555
H127_23 C161_23 1_555 1_555
H130_23 C164_23 1_555 1_555
H133_23 C167_23 1_555 1_555
H138_23 C161_23 1_555 1_555
H141_23 C164_23 1_555 1_555
H144_23 C167_23 1_555 1_555
H149_23 C161_23 1_555 1_555
H152_23 C164_23 1_555 1_555
H155_23 C167_23 1_555 1_555
O21_20 C16_23 1_555 1_555
C73_23 C82_23 1_555 1_555
C76_23 C87_23 1_555 1_555
C79_23 C90_23 1_555 1_555
C106_23 C117_23 1_555 1_555
C106_23 C120_23 1_555 1_555
C109_23 C117_23 1_555 1_555
C109_23 C123_23 1_555 1_555
C112_23 C120_23 1_555 1_555
C112_23 C123_23 1_555 1_555
O4_19 C1_19 1_555 1_555
C1_19 O22_19 1_555 1_555
C2_19 C1_19 1_555 1_555
C3_19 C2_19 1_555 1_555
H1_19 C3_19 1_555 1_555
C4_19 C3_19 1_555 1_555
C5_19 C4_19 1_555 1_555
C6_19 C5_19 1_555 1_555
H2_19 C6_19 1_555 1_555
C7_19 C2_19 1_555 1_555
H3_19 C7_19 1_555 1_555
C8_19 C4_19 1_555 1_555
C9_19 C8_19 1_555 1_555
C10_19 C5_19 1_555 1_555
C11_19 C8_19 1_555 1_555
H4_19 C11_19 1_555 1_555
H5_19 C11_19 1_555 1_555
C12_19 C11_19 1_555 1_555
H6_19 C12_19 1_555 1_555
H7_19 C12_19 1_555 1_555
H8_19 C12_19 1_555 1_555
C13_19 C8_19 1_555 1_555
H9_19 C13_19 1_555 1_555
H10_19 C13_19 1_555 1_555
C14_19 C13_19 1_555 1_555
H11_19 C14_19 1_555 1_555
H12_19 C14_19 1_555 1_555
H13_19 C14_19 1_555 1_555
O4_20 C18_19 1_555 1_555
O4_21 C19_19 1_555 1_555
C18_19 O22_20 1_555 1_555
C19_19 O22_21 1_555 1_555
C29_19 C18_19 1_555 1_555
C30_19 C19_19 1_555 1_555
C40_19 C29_19 1_555 1_555
C41_19 C30_19 1_555 1_555
H17_19 C40_19 1_555 1_555
H18_19 C41_19 1_555 1_555
C48_19 C40_19 1_555 1_555
C49_19 C41_19 1_555 1_555
C59_19 C48_19 1_555 1_555
C60_19 C49_19 1_555 1_555
C70_19 C59_19 1_555 1_555
C71_19 C60_19 1_555 1_555
H25_19 C70_19 1_555 1_555
H26_19 C71_19 1_555 1_555
C84_19 C29_19 1_555 1_555
C85_19 C30_19 1_555 1_555
H39_19 C84_19 1_555 1_555
H40_19 C85_19 1_555 1_555
C92_19 C49_19 1_555 1_555
C93_19 C48_19 1_555 1_555
C103_19 C10_19 1_555 1_555
C104_19 C93_19 1_555 1_555
C114_19 C9_19 1_555 1_555
C115_19 C60_19 1_555 1_555
C125_19 C92_19 1_555 1_555
C126_19 C93_19 1_555 1_555
H47_19 C125_19 1_555 1_555
H48_19 C126_19 1_555 1_555
H58_19 C125_19 1_555 1_555
H59_19 C126_19 1_555 1_555
C136_19 C125_19 1_555 1_555
C137_19 C126_19 1_555 1_555
H69_19 C136_19 1_555 1_555
H70_19 C137_19 1_555 1_555
H80_19 C136_19 1_555 1_555
H81_19 C137_19 1_555 1_555
H91_19 C136_19 1_555 1_555
H92_19 C137_19 1_555 1_555
C147_19 C92_19 1_555 1_555
C148_19 C93_19 1_555 1_555
H102_19 C147_19 1_555 1_555
H103_19 C148_19 1_555 1_555
H113_19 C147_19 1_555 1_555
H114_19 C148_19 1_555 1_555
C158_19 C147_19 1_555 1_555
C159_19 C148_19 1_555 1_555
H124_19 C158_19 1_555 1_555
H125_19 C159_19 1_555 1_555
H135_19 C158_19 1_555 1_555
H136_19 C159_19 1_555 1_555
H146_19 C158_19 1_555 1_555
H147_19 C159_19 1_555 1_555
C6_19 C7_19 1_555 1_555
C9_19 C10_19 1_555 1_555
C59_19 C114_19 1_555 1_555
C70_19 C84_19 1_555 1_555
C71_19 C85_19 1_555 1_555
C92_19 C103_19 1_555 1_555
C103_19 C115_19 1_555 1_555
C104_19 C114_19 1_555 1_555
C104_19 C115_19 1_555 1_555
O8_11 C22_24 1_555 1_555
O8_15 C23_24 1_555 1_555
C16_24 O8_22 1_555 1_555
C22_24 O21_11 1_555 1_555
C23_24 O21_15 1_555 1_555
C27_24 C16_24 1_555 1_555
C33_24 C22_24 1_555 1_555
C34_24 C23_24 1_555 1_555
C38_24 C27_24 1_555 1_555
C44_24 C33_24 1_555 1_555
C45_24 C34_24 1_555 1_555
H15_24 C38_24 1_555 1_555
H21_24 C44_24 1_555 1_555
H22_24 C45_24 1_555 1_555
C51_24 C38_24 1_555 1_555
C55_24 C44_24 1_555 1_555
C56_24 C45_24 1_555 1_555
C62_24 C51_24 1_555 1_555
C65_24 C56_24 1_555 1_555
C68_24 C55_24 1_555 1_555
C73_24 C62_24 1_555 1_555
C76_24 C65_24 1_555 1_555
C79_24 C68_24 1_555 1_555
H28_24 C73_24 1_555 1_555
H31_24 C76_24 1_555 1_555
H34_24 C79_24 1_555 1_555
C82_24 C27_24 1_555 1_555
C87_24 C34_24 1_555 1_555
C90_24 C33_24 1_555 1_555
H37_24 C82_24 1_555 1_555
H42_24 C87_24 1_555 1_555
H45_24 C90_24 1_555 1_555
C95_24 C51_24 1_555 1_555
C98_24 C55_24 1_555 1_555
C101_24 C56_24 1_555 1_555
C106_24 C95_24 1_555 1_555
C109_24 C98_24 1_555 1_555
C112_24 C101_24 1_555 1_555
C117_24 C62_24 1_555 1_555
C120_24 C65_24 1_555 1_555
C123_24 C68_24 1_555 1_555
C128_24 C95_24 1_555 1_555
C131_24 C98_24 1_555 1_555
C134_24 C101_24 1_555 1_555
H50_24 C128_24 1_555 1_555
H53_24 C131_24 1_555 1_555
H56_24 C134_24 1_555 1_555
H61_24 C128_24 1_555 1_555
H64_24 C131_24 1_555 1_555
H67_24 C134_24 1_555 1_555
C139_24 C128_24 1_555 1_555
C142_24 C131_24 1_555 1_555
C145_24 C134_24 1_555 1_555
H72_24 C139_24 1_555 1_555
H75_24 C142_24 1_555 1_555
H78_24 C145_24 1_555 1_555
H83_24 C139_24 1_555 1_555
H86_24 C142_24 1_555 1_555
H89_24 C145_24 1_555 1_555
H94_24 C139_24 1_555 1_555
H97_24 C142_24 1_555 1_555
H100_24 C145_24 1_555 1_555
C150_24 C95_24 1_555 1_555
C153_24 C98_24 1_555 1_555
C156_24 C101_24 1_555 1_555
H105_24 C150_24 1_555 1_555
H108_24 C153_24 1_555 1_555
H111_24 C156_24 1_555 1_555
H116_24 C150_24 1_555 1_555
H119_24 C153_24 1_555 1_555
H122_24 C156_24 1_555 1_555
C161_24 C150_24 1_555 1_555
C164_24 C153_24 1_555 1_555
C167_24 C156_24 1_555 1_555
H127_24 C161_24 1_555 1_555
H130_24 C164_24 1_555 1_555
H133_24 C167_24 1_555 1_555
H138_24 C161_24 1_555 1_555
H141_24 C164_24 1_555 1_555
H144_24 C167_24 1_555 1_555
H149_24 C161_24 1_555 1_555
H152_24 C164_24 1_555 1_555
H155_24 C167_24 1_555 1_555
O21_22 C16_24 1_555 1_555
C73_24 C82_24 1_555 1_555
C76_24 C87_24 1_555 1_555
C79_24 C90_24 1_555 1_555
C106_24 C117_24 1_555 1_555
C106_24 C120_24 1_555 1_555
C109_24 C117_24 1_555 1_555
C109_24 C123_24 1_555 1_555
C112_24 C120_24 1_555 1_555
C112_24 C123_24 1_555 1_555
O8_23 C25_8 1_555 1_555
C17_8 O8_14 1_555 1_555
C24_8 O8_21 1_555 1_555
C25_8 O21_23 1_555 1_555
C28_8 C17_8 1_555 1_555
C35_8 C24_8 1_555 1_555
C36_8 C25_8 1_555 1_555
C39_8 C28_8 1_555 1_555
C46_8 C35_8 1_555 1_555
C47_8 C36_8 1_555 1_555
H16_8 C39_8 1_555 1_555
H23_8 C46_8 1_555 1_555
H24_8 C47_8 1_555 1_555
C52_8 C39_8 1_555 1_555
C57_8 C46_8 1_555 1_555
C58_8 C47_8 1_555 1_555
C63_8 C52_8 1_555 1_555
C66_8 C58_8 1_555 1_555
C69_8 C57_8 1_555 1_555
C74_8 C63_8 1_555 1_555
C77_8 C66_8 1_555 1_555
C80_8 C69_8 1_555 1_555
H29_8 C74_8 1_555 1_555
H32_8 C77_8 1_555 1_555
H35_8 C80_8 1_555 1_555
C83_8 C28_8 1_555 1_555
C88_8 C36_8 1_555 1_555
C91_8 C35_8 1_555 1_555
H38_8 C83_8 1_555 1_555
H43_8 C88_8 1_555 1_555
H46_8 C91_8 1_555 1_555
C96_8 C52_8 1_555 1_555
C99_8 C57_8 1_555 1_555
C102_8 C58_8 1_555 1_555
C107_8 C96_8 1_555 1_555
C110_8 C99_8 1_555 1_555
C113_8 C102_8 1_555 1_555
C118_8 C63_8 1_555 1_555
C121_8 C66_8 1_555 1_555
C124_8 C69_8 1_555 1_555
C129_8 C96_8 1_555 1_555
C132_8 C99_8 1_555 1_555
C135_8 C102_8 1_555 1_555
H51_8 C129_8 1_555 1_555
H54_8 C132_8 1_555 1_555
H57_8 C135_8 1_555 1_555
H62_8 C129_8 1_555 1_555
H65_8 C132_8 1_555 1_555
H68_8 C135_8 1_555 1_555
C140_8 C129_8 1_555 1_555
C143_8 C132_8 1_555 1_555
C146_8 C135_8 1_555 1_555
H73_8 C140_8 1_555 1_555
H76_8 C143_8 1_555 1_555
H79_8 C146_8 1_555 1_555
H84_8 C140_8 1_555 1_555
H87_8 C143_8 1_555 1_555
H90_8 C146_8 1_555 1_555
H95_8 C140_8 1_555 1_555
H98_8 C143_8 1_555 1_555
H101_8 C146_8 1_555 1_555
C151_8 C96_8 1_555 1_555
C154_8 C99_8 1_555 1_555
C157_8 C102_8 1_555 1_555
H106_8 C151_8 1_555 1_555
H109_8 C154_8 1_555 1_555
H112_8 C157_8 1_555 1_555
H117_8 C151_8 1_555 1_555
H120_8 C154_8 1_555 1_555
H123_8 C157_8 1_555 1_555
C162_8 C151_8 1_555 1_555
C165_8 C154_8 1_555 1_555
C168_8 C157_8 1_555 1_555
H128_8 C162_8 1_555 1_555
H131_8 C165_8 1_555 1_555
H134_8 C168_8 1_555 1_555
H139_8 C162_8 1_555 1_555
H142_8 C165_8 1_555 1_555
H145_8 C168_8 1_555 1_555
H150_8 C162_8 1_555 1_555
H153_8 C165_8 1_555 1_555
H156_8 C168_8 1_555 1_555
O21_14 C17_8 1_555 1_555
O21_21 C24_8 1_555 1_555
C74_8 C83_8 1_555 1_555
C77_8 C88_8 1_555 1_555
C80_8 C91_8 1_555 1_555
C107_8 C118_8 1_555 1_555
C107_8 C121_8 1_555 1_555
C110_8 C118_8 1_555 1_555
C110_8 C124_8 1_555 1_555
C113_8 C121_8 1_555 1_555
C113_8 C124_8 1_555 1_555
O4_11 C1_20 1_555 1_555
C1_20 O22_11 1_555 1_555
C2_20 C1_20 1_555 1_555
C3_20 C2_20 1_555 1_555
H1_20 C3_20 1_555 1_555
C4_20 C3_20 1_555 1_555
C5_20 C4_20 1_555 1_555
C6_20 C5_20 1_555 1_555
H2_20 C6_20 1_555 1_555
C7_20 C2_20 1_555 1_555
H3_20 C7_20 1_555 1_555
C8_20 C4_20 1_555 1_555
C9_20 C8_20 1_555 1_555
C10_20 C5_20 1_555 1_555
C11_20 C8_20 1_555 1_555
H4_20 C11_20 1_555 1_555
H5_20 C11_20 1_555 1_555
C12_20 C11_20 1_555 1_555
H6_20 C12_20 1_555 1_555
H7_20 C12_20 1_555 1_555
H8_20 C12_20 1_555 1_555
C13_20 C8_20 1_555 1_555
H9_20 C13_20 1_555 1_555
H10_20 C13_20 1_555 1_555
C14_20 C13_20 1_555 1_555
H11_20 C14_20 1_555 1_555
H12_20 C14_20 1_555 1_555
H13_20 C14_20 1_555 1_555
O4_6 C18_20 1_555 1_555
O4_7 C19_20 1_555 1_555
C18_20 O22_6 1_555 1_555
C19_20 O22_7 1_555 1_555
C29_20 C18_20 1_555 1_555
C30_20 C19_20 1_555 1_555
C40_20 C29_20 1_555 1_555
C41_20 C30_20 1_555 1_555
H17_20 C40_20 1_555 1_555
H18_20 C41_20 1_555 1_555
C48_20 C40_20 1_555 1_555
C49_20 C41_20 1_555 1_555
C59_20 C48_20 1_555 1_555
C60_20 C49_20 1_555 1_555
C70_20 C59_20 1_555 1_555
C71_20 C60_20 1_555 1_555
H25_20 C70_20 1_555 1_555
H26_20 C71_20 1_555 1_555
C84_20 C29_20 1_555 1_555
C85_20 C30_20 1_555 1_555
H39_20 C84_20 1_555 1_555
H40_20 C85_20 1_555 1_555
C92_20 C49_20 1_555 1_555
C93_20 C48_20 1_555 1_555
C103_20 C10_20 1_555 1_555
C104_20 C93_20 1_555 1_555
C114_20 C9_20 1_555 1_555
C115_20 C60_20 1_555 1_555
C125_20 C92_20 1_555 1_555
C126_20 C93_20 1_555 1_555
H47_20 C125_20 1_555 1_555
H48_20 C126_20 1_555 1_555
H58_20 C125_20 1_555 1_555
H59_20 C126_20 1_555 1_555
C136_20 C125_20 1_555 1_555
C137_20 C126_20 1_555 1_555
H69_20 C136_20 1_555 1_555
H70_20 C137_20 1_555 1_555
H80_20 C136_20 1_555 1_555
H81_20 C137_20 1_555 1_555
H91_20 C136_20 1_555 1_555
H92_20 C137_20 1_555 1_555
C147_20 C92_20 1_555 1_555
C148_20 C93_20 1_555 1_555
H102_20 C147_20 1_555 1_555
H103_20 C148_20 1_555 1_555
H113_20 C147_20 1_555 1_555
H114_20 C148_20 1_555 1_555
C158_20 C147_20 1_555 1_555
C159_20 C148_20 1_555 1_555
H124_20 C158_20 1_555 1_555
H125_20 C159_20 1_555 1_555
H135_20 C158_20 1_555 1_555
H136_20 C159_20 1_555 1_555
H146_20 C158_20 1_555 1_555
H147_20 C159_20 1_555 1_555
C6_20 C7_20 1_555 1_555
C9_20 C10_20 1_555 1_555
C59_20 C114_20 1_555 1_555
C70_20 C84_20 1_555 1_555
C71_20 C85_20 1_555 1_555
C92_20 C103_20 1_555 1_555
C103_20 C115_20 1_555 1_555
C104_20 C114_20 1_555 1_555
C104_20 C115_20 1_555 1_555

#END
