
###############################################################################
#
# This file contains modified crystal structure data generated from the
# MOF subset of the Cambridge Structural Database (CSD) v543 
# hosted by the Cambridge Crystallographic Data Centre (CCDC).
#
# This work is licensed under the Creative Commons
# Attribution-NonCommercial-ShareAlike 4.0 International License.
# To view a copy of this license, visit
# http://creativecommons.org/licenses/by-nc-sa/4.0/
# or send a letter to
# Creative Commons, PO Box 1866, Mountain View, CA 94042, USA.
#
# CIF created using the CSD Python API on 29 September 2022
# The structure has been converted into the P1 space group
# The structure has a 3D framework
# The original CSD entry BOXYIY is in the triclinic crystal system
# The framework has been calculated to contain at least 10.0% void space
# The void calculation uses a probe of radius 1.32A, grid spacing 0.4
# The framework is charged, counterions have been retained in the structure
#
###############################################################################

data_BOXYIY
_chemical_formula_moiety         '(C22 H34 Mn6 N4 O36 P4 2-)n'
_symmetry_cell_setting           triclinic
_symmetry_space_group_name_H-M   'P 1'
_symmetry_Int_Tables_number      1
_space_group_name_Hall           'P 1'
loop_
_symmetry_equiv_pos_site_id
_symmetry_equiv_pos_as_xyz
1 x,y,z
_cell_length_a                   8.0352(2)
_cell_length_b                   10.1895(2)
_cell_length_c                   16.0266(5)
_cell_angle_alpha                93.349(2)
_cell_angle_beta                 94.504(3)
_cell_angle_gamma                92.452(2)
_cell_volume                     1304.41
loop_
_atom_site_label
_atom_site_type_symbol
_atom_site_fract_x
_atom_site_fract_y
_atom_site_fract_z
N1 N 0.1148(3) 0.2649(3) 0.58673(17)
H1 H 0.1853 0.3106 0.5561
N2 N 0.0439(4) 0.4704(3) 0.70947(18)
H3 H 0.0592 0.5545 0.7299
H6 H 0.0355 0.5214 0.5892
C3 C 0.1899(4) 0.2683(3) 0.6754(2)
H8 H 0.2991 0.2310 0.6764
H9 H 0.1198 0.2149 0.7080
C4 C 0.2073(4) 0.4064(4) 0.7142(2)
H10 H 0.2499 0.4049 0.7725
H11 H 0.2870 0.4574 0.6854
C5 C 0.0929(5) 0.1283(4) 0.5499(2)
H12 H 0.1967 0.0855 0.5572
H13 H 0.0590 0.1293 0.4911
H14 H 0.0088 0.0815 0.5773
H2 H 0.9739 0.4288 0.7415
C1 C 0.9511(4) 0.3286(4) 0.5828(2)
H4 H 0.8721 0.2770 0.6118
H5 H 0.9077 0.3304 0.5247
C2 C 0.9672(4) 0.4670(4) 0.6222(2)
H7 H 0.8575 0.5031 0.6219
H2_2 H 0.0261 0.5712 0.2585
C1_2 C 0.0489(4) 0.6714(4) 0.4172(2)
H4_2 H 0.1279 0.7230 0.3882
H5_2 H 0.0923 0.6696 0.4753
C2_2 C 0.0328(4) 0.5330(4) 0.3778(2)
H7_2 H 0.1425 0.4969 0.3781
N1_2 N 0.8852(3) 0.7351(3) 0.41327(17)
H1_2 H 0.8147 0.6894 0.4439
N2_2 N 0.9561(4) 0.5296(3) 0.29053(18)
H3_2 H 0.9408 0.4455 0.2701
H6_2 H 0.9645 0.4786 0.4108
C3_2 C 0.8101(4) 0.7317(3) 0.3246(2)
H8_2 H 0.7009 0.7690 0.3236
H9_2 H 0.8802 0.7851 0.2920
C4_2 C 0.7927(4) 0.5936(4) 0.2858(2)
H10_2 H 0.7501 0.5951 0.2275
H11_2 H 0.7130 0.5426 0.3146
C5_2 C 0.9071(5) 0.8717(4) 0.4501(2)
H12_2 H 0.8033 0.9145 0.4428
H13_2 H 0.9410 0.8707 0.5089
H14_2 H 0.9912 0.9185 0.4227
O6 O 0.0448(3) 0.1291(3) 0.33444(15)
Mn10 Mn 0.25600(6) 0.06321(5) 0.28629(3)
Mn1 Mn 0.38842(6) 0.55471(5) 0.13608(3)
Mn3 Mn 0.55567(6) 0.24448(4) 0.42358(3)
P1 P 0.74158(13) 0.41041(10) 0.06410(5)
P2 P 0.86969(9) 0.16069(8) 0.30598(5)
O1 O 0.6086(4) 0.4877(4) 0.09627(19)
O3 O 0.9061(4) 0.4937(4) 0.0965(2)
H15 H 0.9864 0.4611 0.0760
O4 O 0.7582(8) 0.2767(3) 0.1036(2)
H16 H 0.8107 0.2877 0.1496
O5 O 0.7648(3) 0.1711(3) 0.37964(18)
O7 O 0.8624(4) 0.2812(2) 0.25503(17)
O8 O 0.7989(3) 0.0390(2) 0.24428(18)
H17 H 0.6971 0.0314 0.2451
O9 O 0.5131(3) 0.7487(2) 0.18150(17)
O10 O 0.4594(3) 0.9513(2) 0.23096(18)
O11 O 0.2039(3) 0.6643(2) 0.20875(16)
O12 O 0.1501(3) 0.8660(2) 0.25732(17)
O13 O 0.2326(4) 0.3666(3) 0.11926(16)
O14 O 0.2134(3) 0.1672(2) 0.16862(15)
O15 O 0.4265(3) 0.4526(2) 0.25792(15)
O16 O 0.4051(3) 0.2520(2) 0.30612(15)
O17 O 0.3664(3) 0.3596(2) 0.49034(16)
O18 O 0.3248(3) 0.5612(2) 0.54315(16)
O19 O 0.6035(3) 0.1454(2) 0.54306(15)
C6 C 0.4218(4) 0.8316(3) 0.2112(2)
C7 C 0.2425(4) 0.7829(3) 0.22707(19)
C8 C 0.2639(4) 0.2857(3) 0.1729(2)
C9 C 0.3767(4) 0.3363(3) 0.2525(2)
C10 C 0.4108(4) 0.4771(3) 0.50997(19)
C11 C 0.5592(4) 0.0275(3) 0.53855(18)
O21 O 0.6336(3) 0.6404(2) 0.50966(16)
O22 O 0.6752(3) 0.4388(2) 0.45685(16)
C12 C 0.5892(4) 0.5229(3) 0.49003(19)
O24 O 0.4009(3) 0.0565(2) 0.40940(14)
Mn13 Mn 0.44433(6) 0.75552(4) 0.57642(3)
O42 O 0.2669(5) 0.6194(3) 0.02828(17)
O46 O 0.5406(3) 0.0487(2) 0.76904(18)
O48 O 0.8499(3) 0.1340(2) 0.74268(17)
O2 O 0.7331(5) 0.3806(3) 0.97172(17)
Mn8 Mn 0.61158(6) 0.44529(5) 0.86392(3)
O20 O 0.5991(3) 0.9435(2) 0.59060(14)
O23 O 0.3965(3) 0.8546(2) 0.45694(15)
C13 C 0.4408(4) 0.9725(3) 0.46145(18)
Mn5 Mn 0.74400(6) 0.93679(5) 0.71371(3)
P3 P 0.25842(13) 0.58959(10) 0.93590(5)
P4 P 0.13031(9) 0.83931(8) 0.69402(5)
O25 O 0.3914(4) 0.5123(4) 0.90373(19)
O27 O 0.0939(4) 0.5063(4) 0.9035(2)
H18 H 0.0136 0.5389 0.9240
O28 O 0.2418(8) 0.7233(3) 0.8964(2)
H19 H 0.1893 0.7123 0.8504
O29 O 0.2352(3) 0.8289(3) 0.62036(18)
O31 O 0.1376(4) 0.7188(2) 0.74497(17)
O32 O 0.2011(3) 0.9610(2) 0.75572(18)
H20 H 0.3029 0.9686 0.7549
O33 O 0.4869(3) 0.2513(2) 0.81850(17)
O35 O 0.7961(3) 0.3357(2) 0.79125(16)
O37 O 0.7674(4) 0.6334(3) 0.88074(16)
O38 O 0.7866(3) 0.8328(2) 0.83138(15)
O39 O 0.5735(3) 0.5474(2) 0.74208(15)
O40 O 0.5949(3) 0.7480(2) 0.69388(15)
C14 C 0.5782(4) 0.1684(3) 0.7888(2)
C15 C 0.7575(4) 0.2171(3) 0.77293(19)
C16 C 0.7361(4) 0.7143(3) 0.8271(2)
C17 C 0.6233(4) 0.6637(3) 0.7475(2)
O44 O 0.9552(3) 0.8709(3) 0.66556(15)
loop_
_geom_bond_atom_site_label_1
_geom_bond_atom_site_label_2
_geom_bond_site_symmetry_1
_geom_bond_site_symmetry_2
N1 H1 1_555 1_555
H3 N2 1_555 1_555
C3 N1 1_555 1_555
H8 C3 1_555 1_555
H9 C3 1_555 1_555
C4 N2 1_555 1_555
H10 C4 1_555 1_555
H11 C4 1_555 1_555
C5 N1 1_555 1_555
H12 C5 1_555 1_555
H13 C5 1_555 1_555
H14 C5 1_555 1_555
C3 C4 1_555 1_555
H4 C1 1_555 1_555
H5 C1 1_555 1_555
H7 C2 1_555 1_555
C1 C2 1_555 1_555
H4_2 C1_2 1_555 1_555
H5_2 C1_2 1_555 1_555
H7_2 C2_2 1_555 1_555
C1_2 C2_2 1_555 1_555
N1_2 H1_2 1_555 1_555
H3_2 N2_2 1_555 1_555
C3_2 N1_2 1_555 1_555
H8_2 C3_2 1_555 1_555
H9_2 C3_2 1_555 1_555
C4_2 N2_2 1_555 1_555
H10_2 C4_2 1_555 1_555
H11_2 C4_2 1_555 1_555
C5_2 N1_2 1_555 1_555
H12_2 C5_2 1_555 1_555
H13_2 C5_2 1_555 1_555
H14_2 C5_2 1_555 1_555
C3_2 C4_2 1_555 1_555
Mn10 O6 1_555 1_555
Mn1 O1 1_555 1_555
Mn10 O14 1_555 1_555
Mn3 O5 1_555 1_555
P1 O1 1_555 1_555
P2 O5 1_555 1_555
O3 P1 1_555 1_555
H15 O3 1_555 1_555
O4 P1 1_555 1_555
H16 O4 1_555 1_555
O7 P2 1_555 1_555
O8 P2 1_555 1_555
H17 O8 1_555 1_555
O9 Mn1 1_555 1_555
O10 C6 1_555 1_555
O11 Mn1 1_555 1_555
O12 C7 1_555 1_555
O13 Mn1 1_555 1_555
O14 C8 1_555 1_555
O15 Mn1 1_555 1_555
O16 Mn10 1_555 1_555
O17 Mn3 1_555 1_555
O18 C10 1_555 1_555
O19 Mn3 1_555 1_555
C6 O9 1_555 1_555
C7 O11 1_555 1_555
C8 O13 1_555 1_555
C9 O15 1_555 1_555
C10 O17 1_555 1_555
C11 O19 1_555 1_555
O21 C12 1_555 1_555
O22 Mn3 1_555 1_555
C12 C10 1_555 1_555
O24 Mn10 1_555 1_555
Mn13 O18 1_555 1_555
O42 Mn1 1_555 1_555
Mn3 O16 1_555 1_555
Mn3 O24 1_555 1_555
O16 C9 1_555 1_555
C6 C7 1_555 1_555
C8 C9 1_555 1_555
O21 Mn13 1_555 1_555
O22 C12 1_555 1_555
Mn8 O2 1_555 1_555
O23 C13 1_555 1_555
Mn8 O25 1_555 1_555
Mn5 O20 1_555 1_555
Mn13 O20 1_555 1_555
P3 O25 1_555 1_555
P4 O29 1_555 1_555
O27 P3 1_555 1_555
H18 O27 1_555 1_555
O28 P3 1_555 1_555
H19 O28 1_555 1_555
O29 Mn13 1_555 1_555
O31 P4 1_555 1_555
O32 P4 1_555 1_555
H20 O32 1_555 1_555
O33 Mn8 1_555 1_555
O46 C14 1_555 1_555
O35 Mn8 1_555 1_555
O48 C15 1_555 1_555
O37 Mn8 1_555 1_555
O38 Mn5 1_555 1_555
O39 Mn8 1_555 1_555
O40 Mn5 1_555 1_555
C14 O33 1_555 1_555
C15 O35 1_555 1_555
C16 O37 1_555 1_555
C17 O39 1_555 1_555
O44 Mn5 1_555 1_555
O23 Mn13 1_555 1_555
Mn13 O40 1_555 1_555
O38 C16 1_555 1_555
O40 C17 1_555 1_555
C14 C15 1_555 1_555
C16 C17 1_555 1_555

#END
