
###############################################################################
#
# This file contains modified crystal structure data generated from the
# MOF subset of the Cambridge Structural Database (CSD) v543 
# hosted by the Cambridge Crystallographic Data Centre (CCDC).
#
# This work is licensed under the Creative Commons
# Attribution-NonCommercial-ShareAlike 4.0 International License.
# To view a copy of this license, visit
# http://creativecommons.org/licenses/by-nc-sa/4.0/
# or send a letter to
# Creative Commons, PO Box 1866, Mountain View, CA 94042, USA.
#
# CIF created using the CSD Python API on 29 September 2022
# The structure has been converted into the P1 space group
# The structure has a 3D framework
# The original CSD entry BOYTEQ is in the monoclinic crystal system
# The framework has been calculated to contain at least 10.0% void space
# The void calculation uses a probe of radius 1.32A, grid spacing 0.4
#
###############################################################################

data_BOYTEQ
_chemical_formula_moiety         '(C96 H64 Mn6 N8 O14)n'
_symmetry_cell_setting           triclinic
_symmetry_space_group_name_H-M   'P 1'
_symmetry_Int_Tables_number      1
_space_group_name_Hall           'P 1'
loop_
_symmetry_equiv_pos_site_id
_symmetry_equiv_pos_as_xyz
1 x,y,z
_cell_length_a                   19.6510(13)
_cell_length_b                   14.8963(10)
_cell_length_c                   8.5229(6)
_cell_angle_alpha                90
_cell_angle_beta                 108.9020(10)
_cell_angle_gamma                90
_cell_volume                     2360.35
loop_
_atom_site_label
_atom_site_type_symbol
_atom_site_fract_x
_atom_site_fract_y
_atom_site_fract_z
C11 C 0.38714(8) 0.75727(11) 0.08574(18)
H7 H 0.3851 0.7530 0.1930
N1 N 0.43403(6) 0.81510(8) 0.05754(15)
Mn3 Mn -0.0000 0.419645(17) 0.2500
Mn5 Mn 0.5000 0.919645(17) 0.2500
Mn1 Mn -0.0000 0.580355(17) 0.7500
C1 C 0.10286(7) 0.56515(8) 0.52605(16)
C2 C 0.18022(7) 0.58101(9) 0.53497(17)
C3 C 0.20569(8) 0.54511(13) 0.4147(2)
H1 H 0.1760 0.5092 0.3311
C4 C 0.27568(10) 0.56283(17) 0.4191(3)
H2 H 0.2928 0.5385 0.3387
C5 C 0.32000(9) 0.61657(15) 0.5427(2)
H3 H 0.3663 0.6295 0.5428
C6 C 0.29596(7) 0.65161(10) 0.66714(18)
C7 C 0.22561(7) 0.63326(9) 0.66121(16)
H4 H 0.2087 0.6563 0.7430
C8 C 0.34387(7) 0.70721(10) 0.80240(17)
C9 C 0.39348(8) 0.76633(11) 0.77408(18)
H5 H 0.3978 0.7706 0.6688
C10 C 0.43637(8) 0.81878(11) 0.90186(18)
H6 H 0.4684 0.8585 0.8789
C12 C 0.34140(8) 0.70348(11) 0.96413(19)
H8 H 0.3093 0.6651 0.9901
O1 O 0.08362(5) 0.59940(7) 0.63945(12)
O2 O 0.06334(5) 0.52241(7) 0.40557(13)
N3 N 0.06597(6) 0.68490(8) 0.94246(15)
O6 O 0.06334(5) 0.47759(7) 0.90557(13)
C15 C 0.79431(8) 0.54511(13) 0.0853(2)
H9 H 0.8240 0.5092 0.1689
C16 C 0.72432(10) 0.56283(17) 0.0809(3)
H10 H 0.7072 0.5385 0.1613
O4 O 0.93666(5) 0.52241(7) 0.09443(13)
Mn3_2 Mn 1.0000 0.419645(17) 0.2500
Mn1_2 Mn 1.0000 0.580355(17) 0.7500
C13 C 0.89714(7) 0.56515(8) 0.97395(16)
C14 C 0.81978(7) 0.58101(9) 0.96503(17)
C17 C 0.68000(9) 0.61657(15) 0.9573(2)
H11 H 0.6337 0.6295 0.9572
C18 C 0.70404(7) 0.65161(10) 0.83286(18)
C19 C 0.77439(7) 0.63326(9) 0.83879(16)
H12 H 0.7913 0.6563 0.7570
C20 C 0.65613(7) 0.70721(10) 0.69760(17)
C21 C 0.60652(8) 0.76633(11) 0.72592(18)
H13 H 0.6022 0.7706 0.8312
C22 C 0.56363(8) 0.81878(11) 0.59814(18)
H14 H 0.5316 0.8585 0.6211
C23 C 0.61286(8) 0.75727(11) 0.41426(18)
H15 H 0.6149 0.7530 0.3070
C24 C 0.65860(8) 0.70348(11) 0.53587(19)
H16 H 0.6907 0.6651 0.5099
N2 N 0.56597(6) 0.81510(8) 0.44246(15)
O3 O 0.91638(5) 0.59940(7) 0.86055(12)
N4 N 0.93403(6) 0.68490(8) 0.55754(15)
O5 O 0.93666(5) 0.47759(7) 0.59443(13)
C11_2 C 0.88714(8) 0.25727(11) 0.08574(18)
H7_2 H 0.8851 0.2530 0.1930
N1_2 N 0.93403(6) 0.31510(8) 0.05754(15)
C15_2 C 0.29431(8) 0.04511(13) 0.0853(2)
H9_2 H 0.3240 0.0092 0.1689
C16_2 C 0.22432(10) 0.06283(17) 0.0809(3)
H10_2 H 0.2072 0.0385 0.1613
O4_2 O 0.43666(5) 0.02241(7) 0.09443(13)
Mn1_3 Mn 0.5000 0.080355(17) 0.7500
C1_2 C 0.60286(7) 0.06515(8) 0.52605(16)
C2_2 C 0.68022(7) 0.08101(9) 0.53497(17)
C3_2 C 0.70569(8) 0.04511(13) 0.4147(2)
H1_2 H 0.6760 0.0092 0.3311
C4_2 C 0.77568(10) 0.06283(17) 0.4191(3)
H2_2 H 0.7928 0.0385 0.3387
C5_2 C 0.82000(9) 0.11657(15) 0.5427(2)
H3_2 H 0.8663 0.1295 0.5428
C6_2 C 0.79596(7) 0.15161(10) 0.66714(18)
C7_2 C 0.72561(7) 0.13326(9) 0.66121(16)
H4_2 H 0.7087 0.1563 0.7430
C8_2 C 0.84387(7) 0.20721(10) 0.80240(17)
C9_2 C 0.89348(8) 0.26633(11) 0.77408(18)
H5_2 H 0.8978 0.2706 0.6688
C10_2 C 0.93637(8) 0.31878(11) 0.90186(18)
H6_2 H 0.9684 0.3585 0.8789
C12_2 C 0.84140(8) 0.20348(11) 0.96413(19)
H8_2 H 0.8093 0.1651 0.9901
O1_2 O 0.58362(5) 0.09940(7) 0.63945(12)
O2_2 O 0.56334(5) 0.02241(7) 0.40557(13)
C13_2 C 0.39714(7) 0.06515(8) 0.97395(16)
C14_2 C 0.31978(7) 0.08101(9) 0.96503(17)
C17_2 C 0.18000(9) 0.11657(15) 0.9573(2)
H11_2 H 0.1337 0.1295 0.9572
C18_2 C 0.20404(7) 0.15161(10) 0.83286(18)
C19_2 C 0.27439(7) 0.13326(9) 0.83879(16)
H12_2 H 0.2913 0.1563 0.7570
C20_2 C 0.15613(7) 0.20721(10) 0.69760(17)
C21_2 C 0.10652(8) 0.26633(11) 0.72592(18)
H13_2 H 0.1022 0.2706 0.8312
C22_2 C 0.06363(8) 0.31878(11) 0.59814(18)
H14_2 H 0.0316 0.3585 0.6211
C23_2 C 0.11286(8) 0.25727(11) 0.41426(18)
H15_2 H 0.1149 0.2530 0.3070
C24_2 C 0.15860(8) 0.20348(11) 0.53587(19)
H16_2 H 0.1907 0.1651 0.5099
N2_2 N 0.06597(6) 0.31510(8) 0.44246(15)
O3_2 O 0.41638(5) 0.09940(7) 0.86055(12)
N3_2 N 0.56597(6) 0.18490(8) 0.94246(15)
N4_2 N 0.43403(6) 0.18490(8) 0.55754(15)
O5_2 O 0.43666(5) 0.97759(7) 0.59443(13)
O6_2 O 0.56334(5) 0.97759(7) 0.90557(13)
C13_3 C 0.10286(7) 0.43485(8) 0.02605(16)
C14_3 C 0.18022(7) 0.41899(9) 0.03497(17)
C17_3 C 0.32000(9) 0.38343(15) 0.0427(2)
H11_3 H 0.3663 0.3705 0.0428
C18_3 C 0.29596(7) 0.34839(10) 0.16714(18)
C19_3 C 0.22561(7) 0.36674(9) 0.16121(16)
H12_3 H 0.2087 0.3437 0.2430
C20_3 C 0.34387(7) 0.29279(10) 0.30240(17)
C21_3 C 0.39348(8) 0.23367(11) 0.27408(18)
H13_3 H 0.3978 0.2294 0.1688
C22_3 C 0.43637(8) 0.18122(11) 0.40186(18)
H14_3 H 0.4684 0.1415 0.3789
C23_3 C 0.38714(8) 0.24273(11) 0.58574(18)
H15_3 H 0.3851 0.2470 0.6930
C24_3 C 0.34140(8) 0.29652(11) 0.46413(19)
H16_3 H 0.3093 0.3349 0.4901
O3_3 O 0.08362(5) 0.40060(7) 0.13945(12)
C15_3 C 0.20569(8) 0.45489(13) 0.9147(2)
H9_3 H 0.1760 0.4908 0.8311
C16_3 C 0.27568(10) 0.43717(17) 0.9191(3)
H10_3 H 0.2928 0.4615 0.8387
C1_3 C 0.89714(7) 0.43485(8) 0.47395(16)
C2_3 C 0.81978(7) 0.41899(9) 0.46503(17)
C3_3 C 0.79431(8) 0.45489(13) 0.5853(2)
H1_3 H 0.8240 0.4908 0.6689
C4_3 C 0.72432(10) 0.43717(17) 0.5809(3)
H2_3 H 0.7072 0.4615 0.6613
C5_3 C 0.68000(9) 0.38343(15) 0.4573(2)
H3_3 H 0.6337 0.3705 0.4572
C6_3 C 0.70404(7) 0.34839(10) 0.33286(18)
C7_3 C 0.77439(7) 0.36674(9) 0.33879(16)
H4_3 H 0.7913 0.3437 0.2570
C8_3 C 0.65613(7) 0.29279(10) 0.19760(17)
C9_3 C 0.60652(8) 0.23367(11) 0.22592(18)
H5_3 H 0.6022 0.2294 0.3312
C10_3 C 0.56363(8) 0.18122(11) 0.09814(18)
H6_3 H 0.5316 0.1415 0.1211
C12_3 C 0.65860(8) 0.29652(11) 0.03587(19)
H8_3 H 0.6907 0.3349 0.0099
O1_3 O 0.91638(5) 0.40060(7) 0.36055(12)
C11_3 C 0.61286(8) 0.24273(11) 0.91426(18)
H7_3 H 0.6149 0.2470 0.8070
C1_4 C 0.39714(7) 0.93485(8) 0.47395(16)
C2_4 C 0.31978(7) 0.91899(9) 0.46503(17)
C3_4 C 0.29431(8) 0.95489(13) 0.5853(2)
H1_4 H 0.3240 0.9908 0.6689
C4_4 C 0.22432(10) 0.93717(17) 0.5809(3)
H2_4 H 0.2072 0.9615 0.6613
C5_4 C 0.18000(9) 0.88343(15) 0.4573(2)
H3_4 H 0.1337 0.8705 0.4572
C6_4 C 0.20404(7) 0.84839(10) 0.33286(18)
C7_4 C 0.27439(7) 0.86674(9) 0.33879(16)
H4_4 H 0.2913 0.8437 0.2570
C8_4 C 0.15613(7) 0.79279(10) 0.19760(17)
C9_4 C 0.10652(8) 0.73367(11) 0.22592(18)
H5_4 H 0.1022 0.7294 0.3312
C10_4 C 0.06363(8) 0.68122(11) 0.09814(18)
H6_4 H 0.0316 0.6415 0.1211
C12_4 C 0.15860(8) 0.79652(11) 0.03587(19)
H8_4 H 0.1907 0.8349 0.0099
O1_4 O 0.41638(5) 0.90060(7) 0.36055(12)
C13_4 C 0.60286(7) 0.93485(8) 0.02605(16)
C14_4 C 0.68022(7) 0.91899(9) 0.03497(17)
C17_4 C 0.82000(9) 0.88343(15) 0.0427(2)
H11_4 H 0.8663 0.8705 0.0428
C18_4 C 0.79596(7) 0.84839(10) 0.16714(18)
C19_4 C 0.72561(7) 0.86674(9) 0.16121(16)
H12_4 H 0.7087 0.8437 0.2430
C20_4 C 0.84387(7) 0.79279(10) 0.30240(17)
C21_4 C 0.89348(8) 0.73367(11) 0.27408(18)
H13_4 H 0.8978 0.7294 0.1688
C22_4 C 0.93637(8) 0.68122(11) 0.40186(18)
H14_4 H 0.9684 0.6415 0.3789
C23_4 C 0.88714(8) 0.74273(11) 0.58574(18)
H15_4 H 0.8851 0.7470 0.6930
C24_4 C 0.84140(8) 0.79652(11) 0.46413(19)
H16_4 H 0.8093 0.8349 0.4901
O3_4 O 0.58362(5) 0.90060(7) 0.13945(12)
C11_4 C 0.11286(8) 0.74273(11) 0.91426(18)
H7_4 H 0.1149 0.7470 0.8070
C15_4 C 0.70569(8) 0.95489(13) 0.9147(2)
H9_4 H 0.6760 0.9908 0.8311
C16_4 C 0.77568(10) 0.93717(17) 0.9191(3)
H10_4 H 0.7928 0.9615 0.8387
loop_
_geom_bond_atom_site_label_1
_geom_bond_atom_site_label_2
_geom_bond_site_symmetry_1
_geom_bond_site_symmetry_2
C11 H7 1_555 1_555
Mn5 N1 1_555 1_555
C11 N1 1_555 1_555
Mn1 O1 1_555 1_555
C1 C2 1_555 1_555
C2 C3 1_555 1_555
C3 H1 1_555 1_555
C4 C3 1_555 1_555
H2 C4 1_555 1_555
C5 C4 1_555 1_555
H3 C5 1_555 1_555
C6 C5 1_555 1_555
C7 C2 1_555 1_555
H4 C7 1_555 1_555
C8 C6 1_555 1_555
C9 C8 1_555 1_555
H5 C9 1_555 1_555
C10 C9 1_555 1_555
H6 C10 1_555 1_555
C12 C8 1_555 1_555
H8 C12 1_555 1_555
O1 C1 1_555 1_555
O2 C1 1_555 1_555
Mn3 O2 1_555 1_555
N3 Mn1 1_555 1_555
O6 Mn1 1_555 1_555
C6 C7 1_555 1_555
C15 H9 1_555 1_555
C16 C15 1_555 1_555
H10 C16 1_555 1_555
Mn3_2 O4 1_555 1_555
C13 C14 1_555 1_555
H11 C17 1_555 1_555
C18 C17 1_555 1_555
C19 C14 1_555 1_555
H12 C19 1_555 1_555
C20 C18 1_555 1_555
C21 C20 1_555 1_555
H13 C21 1_555 1_555
C22 C21 1_555 1_555
H14 C22 1_555 1_555
C23 H15 1_555 1_555
C24 C20 1_555 1_555
H16 C24 1_555 1_555
N2 C22 1_555 1_555
O3 Mn1_2 1_555 1_555
Mn5 N2 1_555 1_555
N4 Mn1_2 1_555 1_555
O5 Mn1_2 1_555 1_555
C13 O3 1_555 1_555
C18 C19 1_555 1_555
C23 C24 1_555 1_555
C23 N2 1_555 1_555
C11_2 H7_2 1_555 1_555
C15_2 H9_2 1_555 1_555
C16_2 C15_2 1_555 1_555
H10_2 C16_2 1_555 1_555
Mn3_2 N1_2 1_555 1_555
C11_2 N1_2 1_555 1_555
Mn1_3 O1_2 1_555 1_555
C1_2 C2_2 1_555 1_555
C2_2 C3_2 1_555 1_555
C3_2 H1_2 1_555 1_555
C4_2 C3_2 1_555 1_555
H2_2 C4_2 1_555 1_555
C5_2 C4_2 1_555 1_555
H3_2 C5_2 1_555 1_555
C6_2 C5_2 1_555 1_555
C7_2 C2_2 1_555 1_555
H4_2 C7_2 1_555 1_555
C8_2 C6_2 1_555 1_555
C9_2 C8_2 1_555 1_555
H5_2 C9_2 1_555 1_555
C10_2 C9_2 1_555 1_555
H6_2 C10_2 1_555 1_555
C12_2 C8_2 1_555 1_555
H8_2 C12_2 1_555 1_555
O1_2 C1_2 1_555 1_555
O2_2 C1_2 1_555 1_555
C13_2 C14_2 1_555 1_555
H11_2 C17_2 1_555 1_555
C18_2 C17_2 1_555 1_555
C19_2 C14_2 1_555 1_555
H12_2 C19_2 1_555 1_555
C20_2 C18_2 1_555 1_555
C21_2 C20_2 1_555 1_555
H13_2 C21_2 1_555 1_555
C22_2 C21_2 1_555 1_555
H14_2 C22_2 1_555 1_555
C23_2 H15_2 1_555 1_555
C24_2 C20_2 1_555 1_555
H16_2 C24_2 1_555 1_555
N2_2 C22_2 1_555 1_555
O3_2 Mn1_3 1_555 1_555
Mn3 N2_2 1_555 1_555
N3_2 Mn1_3 1_555 1_555
N4_2 Mn1_3 1_555 1_555
C6_2 C7_2 1_555 1_555
C13_2 O3_2 1_555 1_555
C18_2 C19_2 1_555 1_555
C23_2 C24_2 1_555 1_555
C23_2 N2_2 1_555 1_555
C13_3 C14_3 1_555 1_555
H11_3 C17_3 1_555 1_555
C18_3 C17_3 1_555 1_555
C19_3 C14_3 1_555 1_555
H12_3 C19_3 1_555 1_555
C20_3 C18_3 1_555 1_555
C21_3 C20_3 1_555 1_555
H13_3 C21_3 1_555 1_555
C22_3 C21_3 1_555 1_555
H14_3 C22_3 1_555 1_555
C23_3 H15_3 1_555 1_555
C24_3 C20_3 1_555 1_555
H16_3 C24_3 1_555 1_555
N4_2 C22_3 1_555 1_555
O3_3 Mn3 1_555 1_555
C13_3 O3_3 1_555 1_555
C18_3 C19_3 1_555 1_555
C23_3 C24_3 1_555 1_555
C23_3 N4_2 1_555 1_555
C15_3 H9_3 1_555 1_555
C16_3 C15_3 1_555 1_555
H10_3 C16_3 1_555 1_555
Mn3_2 O1_3 1_555 1_555
C1_3 C2_3 1_555 1_555
C2_3 C3_3 1_555 1_555
C3_3 H1_3 1_555 1_555
C4_3 C3_3 1_555 1_555
H2_3 C4_3 1_555 1_555
C5_3 C4_3 1_555 1_555
H3_3 C5_3 1_555 1_555
C6_3 C5_3 1_555 1_555
C7_3 C2_3 1_555 1_555
H4_3 C7_3 1_555 1_555
C8_3 C6_3 1_555 1_555
C9_3 C8_3 1_555 1_555
H5_3 C9_3 1_555 1_555
C10_3 C9_3 1_555 1_555
H6_3 C10_3 1_555 1_555
C12_3 C8_3 1_555 1_555
H8_3 C12_3 1_555 1_555
O1_3 C1_3 1_555 1_555
O5 C1_3 1_555 1_555
C6_3 C7_3 1_555 1_555
C11_3 H7_3 1_555 1_555
C11_3 N3_2 1_555 1_555
Mn5 O1_4 1_555 1_555
C1_4 C2_4 1_555 1_555
C2_4 C3_4 1_555 1_555
C3_4 H1_4 1_555 1_555
C4_4 C3_4 1_555 1_555
H2_4 C4_4 1_555 1_555
C5_4 C4_4 1_555 1_555
H3_4 C5_4 1_555 1_555
C6_4 C5_4 1_555 1_555
C7_4 C2_4 1_555 1_555
H4_4 C7_4 1_555 1_555
C8_4 C6_4 1_555 1_555
C9_4 C8_4 1_555 1_555
H5_4 C9_4 1_555 1_555
C10_4 C9_4 1_555 1_555
H6_4 C10_4 1_555 1_555
C12_4 C8_4 1_555 1_555
H8_4 C12_4 1_555 1_555
O1_4 C1_4 1_555 1_555
O5_2 C1_4 1_555 1_555
C13_4 C14_4 1_555 1_555
H11_4 C17_4 1_555 1_555
C18_4 C17_4 1_555 1_555
C19_4 C14_4 1_555 1_555
H12_4 C19_4 1_555 1_555
C20_4 C18_4 1_555 1_555
C21_4 C20_4 1_555 1_555
H13_4 C21_4 1_555 1_555
C22_4 C21_4 1_555 1_555
H14_4 C22_4 1_555 1_555
C23_4 H15_4 1_555 1_555
C24_4 C20_4 1_555 1_555
H16_4 C24_4 1_555 1_555
N4 C22_4 1_555 1_555
O3_4 Mn5 1_555 1_555
C6_4 C7_4 1_555 1_555
C13_4 O3_4 1_555 1_555
C18_4 C19_4 1_555 1_555
C23_4 C24_4 1_555 1_555
C23_4 N4 1_555 1_555
C11_4 H7_4 1_555 1_555
C15_4 H9_4 1_555 1_555
C16_4 C15_4 1_555 1_555
H10_4 C16_4 1_555 1_555
C11_4 N3 1_555 1_555

#END
