
###############################################################################
#
# This file contains modified crystal structure data generated from the
# MOF subset of the Cambridge Structural Database (CSD) v543 
# hosted by the Cambridge Crystallographic Data Centre (CCDC).
#
# This work is licensed under the Creative Commons
# Attribution-NonCommercial-ShareAlike 4.0 International License.
# To view a copy of this license, visit
# http://creativecommons.org/licenses/by-nc-sa/4.0/
# or send a letter to
# Creative Commons, PO Box 1866, Mountain View, CA 94042, USA.
#
# CIF created using the CSD Python API on 29 September 2022
# The structure has been converted into the P1 space group
# The structure has a 3D framework
# The original CSD entry BOYZAT is in the monoclinic crystal system
# The framework has been calculated to contain at least 10.0% void space
# The void calculation uses a probe of radius 1.32A, grid spacing 0.4
#
###############################################################################

data_BOYZAT
_chemical_formula_moiety         '(C128 H96 Cd12 N40 O56)n'
_symmetry_cell_setting           triclinic
_symmetry_space_group_name_H-M   'P 1'
_symmetry_Int_Tables_number      1
_space_group_name_Hall           'P 1'
loop_
_symmetry_equiv_pos_site_id
_symmetry_equiv_pos_as_xyz
1 x,y,z
_cell_length_a                   33.619(5)
_cell_length_b                   6.9376(11)
_cell_length_c                   19.632(3)
_cell_angle_alpha                90
_cell_angle_beta                 110.666(2)
_cell_angle_gamma                90
_cell_volume                     4284.24
loop_
_atom_site_label
_atom_site_type_symbol
_atom_site_fract_x
_atom_site_fract_y
_atom_site_fract_z
O20 O 0.00762(12) 0.5785(7) 0.0816(2)
N11 N 0.03649(14) 0.1217(7) 0.1167(3)
Cd7 Cd 0.02704(2) 0.71700(7) 0.94346(2)
Cd11 Cd 0.0000 0.94231(9) 0.7500
Cd3 Cd 0.97296(2) 0.28300(7) 0.05654(2)
O17 O 0.96461(12) 0.2947(6) 0.1680(2)
O21 O 0.90925(15) 0.4111(10) 0.0817(2)
Cd1 Cd 0.02704(2) 0.28300(7) 0.44346(2)
Cd2 Cd 0.5000 0.44231(9) 0.7500
O1 O 0.03539(12) 0.7053(6) 0.8320(2)
O2 O 0.00762(12) 0.4215(7) 0.5816(2)
O3 O 0.06391(14) 0.3228(8) 0.5571(2)
O4 O 0.09075(15) 0.5889(10) 0.9183(2)
N1 N 0.19352(14) 0.4794(8) 0.7752(3)
H1 H 0.2089 0.4771 0.8207
N2 N 0.45662(14) 0.4415(7) 0.8172(3)
N3 N 0.41550(15) 0.4796(8) 0.7834(3)
N4 N 0.46351(14) 0.3783(7) 0.8833(3)
N5 N 0.42655(16) 0.3747(8) 0.8946(3)
C1 C 0.14868(15) 0.4865(8) 0.7593(3)
C2 C 0.13288(16) 0.5431(8) 0.8123(3)
H2 H 0.1515 0.5730 0.8589
C3 C 0.08903(16) 0.5556(8) 0.7961(3)
C4 C 0.06087(15) 0.5078(7) 0.7271(3)
H3 H 0.0317 0.5170 0.7163
C5 C 0.12079(16) 0.4346(8) 0.6906(3)
H4 H 0.1313 0.3922 0.6552
C6 C 0.07685(15) 0.4465(7) 0.6750(3)
C7 C 0.39777(18) 0.4371(9) 0.8325(4)
C8 C 0.07186(16) 0.6214(9) 0.8529(3)
C9 C 0.04720(17) 0.3946(8) 0.5987(3)
C10 C 0.35042(12) 0.4567(9) 0.8109(3)
C11 C 0.32748(17) 0.4846(10) 0.7373(3)
H7 H 0.3417 0.4973 0.7046
C12 C 0.28336(17) 0.4935(11) 0.7127(3)
H8 H 0.2680 0.5121 0.6635
C13 C 0.26217(12) 0.4744(10) 0.7617(3)
C14 C 0.28511(17) 0.4466(11) 0.8352(3)
H9 H 0.2709 0.4339 0.8680
C15 C 0.32923(16) 0.4377(11) 0.8599(3)
H10 H 0.3446 0.4191 0.9091
O6 O 0.1953(2) 0.4790(17) 0.6636(5)
O7 O 0.5427(4) 0.6714(14) 0.8228(4)
H11 H 0.5739 0.6377 0.8485
H12 H 0.5348 0.7171 0.8652
C16 C 0.2139(3) 0.4761(15) 0.7315(5)
O8 O 0.96461(12) 0.7053(6) 0.6680(2)
O9 O 0.99238(12) 0.4215(7) 0.9184(2)
O10 O 0.93609(14) 0.3228(8) 0.9429(2)
O11 O 0.90925(15) 0.5889(10) 0.5817(2)
N6 N 0.80648(14) 0.4794(8) 0.7248(3)
H13 H 0.7911 0.4771 0.6793
N7 N 0.54338(14) 0.4415(7) 0.6828(3)
N8 N 0.58450(15) 0.4796(8) 0.7166(3)
N9 N 0.53649(14) 0.3783(7) 0.6167(3)
N10 N 0.57345(16) 0.3747(8) 0.6054(3)
C17 C 0.85132(15) 0.4865(8) 0.7407(3)
C18 C 0.86712(16) 0.5431(8) 0.6877(3)
H14 H 0.8485 0.5730 0.6411
C19 C 0.91097(16) 0.5556(8) 0.7039(3)
C20 C 0.93913(15) 0.5078(7) 0.7729(3)
H15 H 0.9683 0.5170 0.7837
C21 C 0.87921(16) 0.4346(8) 0.8094(3)
H16 H 0.8687 0.3922 0.8448
C22 C 0.92315(15) 0.4465(7) 0.8250(3)
C23 C 0.60223(18) 0.4371(9) 0.6675(4)
C24 C 0.92814(16) 0.6214(9) 0.6471(3)
C25 C 0.95280(17) 0.3946(8) 0.9013(3)
C26 C 0.64958(12) 0.4567(9) 0.6891(3)
C27 C 0.67252(17) 0.4846(10) 0.7627(3)
H19 H 0.6583 0.4973 0.7954
C28 C 0.71664(17) 0.4935(11) 0.7873(3)
H20 H 0.7320 0.5121 0.8365
C29 C 0.73783(12) 0.4744(10) 0.7383(3)
C30 C 0.71489(17) 0.4466(11) 0.6648(3)
H21 H 0.7291 0.4339 0.6320
C31 C 0.67077(16) 0.4377(11) 0.6401(3)
H22 H 0.6554 0.4191 0.5909
O13 O 0.8047(2) 0.4790(17) 0.8364(5)
O14 O 0.4573(4) 0.6714(14) 0.6772(4)
H23 H 0.4261 0.6377 0.6515
H24 H 0.4652 0.7171 0.6348
C32 C 0.7861(3) 0.4761(15) 0.7685(5)
Cd5 Cd 0.97296(2) 0.71700(7) 0.55654(2)
Cd8 Cd 0.47296(2) 0.21700(7) 0.55654(2)
Cd9 Cd 0.52704(2) 0.21700(7) 0.94346(2)
Cd11_2 Cd 1.0000 0.94231(9) 0.7500
O15 O 0.53539(12) 0.2053(6) 0.8320(2)
O16 O 0.46461(12) 0.2053(6) 0.6680(2)
O18 O 0.03539(12) 0.2947(6) 0.3320(2)
O22 O 0.09075(15) 0.4111(10) 0.4183(2)
O19 O 0.99238(12) 0.5785(7) 0.4184(2)
N12 N 0.96351(14) 0.1217(7) 0.3833(3)
O20_2 O 0.50762(12) 0.0785(7) 0.0816(2)
O7_2 O 0.0427(4) 0.1714(14) 0.8228(4)
H11_2 H 0.0739 0.1377 0.8485
H12_2 H 0.0348 0.2171 0.8652
O11_2 O 0.40925(15) 0.0889(10) 0.5817(2)
C18_2 C 0.36712(16) 0.0431(8) 0.6877(3)
H14_2 H 0.3485 0.0730 0.6411
C19_2 C 0.41097(16) 0.0556(8) 0.7039(3)
C20_2 C 0.43913(15) 0.0078(7) 0.7729(3)
H15_2 H 0.4683 0.0170 0.7837
C24_2 C 0.42814(16) 0.1214(9) 0.6471(3)
H20_2 H 0.2320 0.0121 0.8365
Cd3_2 Cd 0.47296(2) 0.78300(7) 0.05654(2)
O12 O 0.4413(3) 0.4722(12) 0.0400(3)
H17 H 0.4593 0.3820 0.0358
O17_2 O 0.46461(12) 0.7947(6) 0.1680(2)
O21_2 O 0.40925(15) 0.9111(10) 0.0817(2)
N11_2 N 0.53649(14) 0.6217(7) 0.1167(3)
O9_2 O 0.49238(12) 0.9215(7) 0.9184(2)
O10_2 O 0.43609(14) 0.8228(8) 0.9429(2)
N6_2 N 0.30648(14) 0.9794(8) 0.7248(3)
H13_2 H 0.2911 0.9771 0.6793
N7_2 N 0.04338(14) 0.9415(7) 0.6828(3)
N8_2 N 0.08450(15) 0.9796(8) 0.7166(3)
N9_2 N 0.03649(14) 0.8783(7) 0.6167(3)
N10_2 N 0.07345(16) 0.8747(8) 0.6054(3)
C17_2 C 0.35132(15) 0.9865(8) 0.7407(3)
C21_2 C 0.37921(16) 0.9346(8) 0.8094(3)
H16_2 H 0.3687 0.8922 0.8448
C22_2 C 0.42315(15) 0.9465(7) 0.8250(3)
C23_2 C 0.10223(18) 0.9371(9) 0.6675(4)
C25_2 C 0.45280(17) 0.8946(8) 0.9013(3)
H18 H 0.4179 0.4651 0.9996
C26_2 C 0.14958(12) 0.9567(9) 0.6891(3)
C27_2 C 0.17252(17) 0.9846(10) 0.7627(3)
H19_2 H 0.1583 0.9973 0.7954
C28_2 C 0.21664(17) 0.9935(11) 0.7873(3)
C29_2 C 0.23783(12) 0.9744(10) 0.7383(3)
C30_2 C 0.21489(17) 0.9466(11) 0.6648(3)
H21_2 H 0.2291 0.9339 0.6320
C31_2 C 0.17077(16) 0.9377(11) 0.6401(3)
H22_2 H 0.1554 0.9191 0.5909
O13_2 O 0.3047(2) 0.9790(17) 0.8364(5)
C32_2 C 0.2861(3) 0.9761(15) 0.7685(5)
O4_2 O 0.59075(15) 0.0889(10) 0.9183(2)
C2_2 C 0.63288(16) 0.0431(8) 0.8123(3)
H2_2 H 0.6515 0.0730 0.8589
C3_2 C 0.58903(16) 0.0556(8) 0.7961(3)
C4_2 C 0.56087(15) 0.0078(7) 0.7271(3)
H3_2 H 0.5317 0.0170 0.7163
C8_2 C 0.57186(16) 0.1214(9) 0.8529(3)
H8_2 H 0.7680 0.0121 0.6635
O14_2 O 0.9573(4) 0.1714(14) 0.6772(4)
H23_2 H 0.9261 0.1377 0.6515
H24_2 H 0.9652 0.2171 0.6348
O19_2 O 0.49238(12) 0.0785(7) 0.4184(2)
Cd1_2 Cd 0.52704(2) 0.78300(7) 0.44346(2)
O2_2 O 0.50762(12) 0.9215(7) 0.5816(2)
O3_2 O 0.56391(14) 0.8228(8) 0.5571(2)
N1_2 N 0.69352(14) 0.9794(8) 0.7752(3)
H1_2 H 0.7089 0.9771 0.8207
N2_2 N 0.95662(14) 0.9415(7) 0.8172(3)
N3_2 N 0.91550(15) 0.9796(8) 0.7834(3)
N4_2 N 0.96351(14) 0.8783(7) 0.8833(3)
N5_2 N 0.92655(16) 0.8747(8) 0.8946(3)
C1_2 C 0.64868(15) 0.9865(8) 0.7593(3)
C5_2 C 0.62079(16) 0.9346(8) 0.6906(3)
H4_2 H 0.6313 0.8922 0.6552
C6_2 C 0.57685(15) 0.9465(7) 0.6750(3)
C7_2 C 0.89777(18) 0.9371(9) 0.8325(4)
C9_2 C 0.54720(17) 0.8946(8) 0.5987(3)
O5 O 0.5587(3) 0.4722(12) 0.4600(3)
H5 H 0.5407 0.3820 0.4642
H6 H 0.5821 0.4651 0.5004
C10_2 C 0.85042(12) 0.9567(9) 0.8109(3)
C11_2 C 0.82748(17) 0.9846(10) 0.7373(3)
H7_2 H 0.8417 0.9973 0.7046
C12_2 C 0.78336(17) 0.9935(11) 0.7127(3)
C13_2 C 0.76217(12) 0.9744(10) 0.7617(3)
C14_2 C 0.78511(17) 0.9466(11) 0.8352(3)
H9_2 H 0.7709 0.9339 0.8680
C15_2 C 0.82923(16) 0.9377(11) 0.8599(3)
H10_2 H 0.8446 0.9191 0.9091
O6_2 O 0.6953(2) 0.9790(17) 0.6636(5)
C16_2 C 0.7139(3) 0.9761(15) 0.7315(5)
O18_2 O 0.53539(12) 0.7947(6) 0.3320(2)
O22_2 O 0.59075(15) 0.9111(10) 0.4183(2)
N12_2 N 0.46351(14) 0.6217(7) 0.3833(3)
Cd10 Cd 0.0000 0.05769(9) 0.2500
Cd2_2 Cd 0.5000 0.55769(9) 0.2500
O3_3 O 0.93609(14) 0.6772(8) 0.4429(2)
N1_3 N 0.80648(14) 0.5206(8) 0.2248(3)
H1_3 H 0.7911 0.5229 0.1793
N2_3 N 0.54338(14) 0.5585(7) 0.1828(3)
N3_3 N 0.58450(15) 0.5204(8) 0.2166(3)
N5_3 N 0.57345(16) 0.6253(8) 0.1054(3)
C1_3 C 0.85132(15) 0.5135(8) 0.2407(3)
C2_3 C 0.86712(16) 0.4569(8) 0.1877(3)
H2_3 H 0.8485 0.4270 0.1411
C3_3 C 0.91097(16) 0.4444(8) 0.2039(3)
C4_3 C 0.93913(15) 0.4922(7) 0.2729(3)
H3_3 H 0.9683 0.4830 0.2837
C5_3 C 0.87921(16) 0.5654(8) 0.3094(3)
H4_3 H 0.8687 0.6078 0.3448
C6_3 C 0.92315(15) 0.5535(7) 0.3250(3)
C7_3 C 0.60223(18) 0.5629(9) 0.1675(4)
C8_3 C 0.92814(16) 0.3786(9) 0.1471(3)
C9_3 C 0.95280(17) 0.6054(8) 0.4013(3)
C10_3 C 0.64958(12) 0.5433(9) 0.1891(3)
C11_3 C 0.67252(17) 0.5154(10) 0.2627(3)
H7_3 H 0.6583 0.5027 0.2954
C12_3 C 0.71664(17) 0.5065(11) 0.2873(3)
H8_3 H 0.7320 0.4879 0.3365
C13_3 C 0.73783(12) 0.5256(10) 0.2383(3)
C14_3 C 0.71489(17) 0.5534(11) 0.1648(3)
H9_3 H 0.7291 0.5661 0.1320
C15_3 C 0.67077(16) 0.5623(11) 0.1401(3)
H10_3 H 0.6554 0.5809 0.0909
O6_3 O 0.8047(2) 0.5210(17) 0.3364(5)
O7_3 O 0.4573(4) 0.3286(14) 0.1772(4)
H11_3 H 0.4261 0.3623 0.1515
H12_3 H 0.4652 0.2829 0.1348
C16_3 C 0.7861(3) 0.5239(15) 0.2685(5)
O10_3 O 0.06391(14) 0.6772(8) 0.0571(2)
N6_3 N 0.19352(14) 0.5206(8) 0.2752(3)
H13_3 H 0.2089 0.5229 0.3207
N7_3 N 0.45662(14) 0.5585(7) 0.3172(3)
N8_3 N 0.41550(15) 0.5204(8) 0.2834(3)
N10_3 N 0.42655(16) 0.6253(8) 0.3946(3)
C17_3 C 0.14868(15) 0.5135(8) 0.2593(3)
C18_3 C 0.13288(16) 0.4569(8) 0.3123(3)
H14_3 H 0.1515 0.4270 0.3589
C19_3 C 0.08903(16) 0.4444(8) 0.2961(3)
C20_3 C 0.06087(15) 0.4922(7) 0.2271(3)
H15_3 H 0.0317 0.4830 0.2163
C21_3 C 0.12079(16) 0.5654(8) 0.1906(3)
H16_3 H 0.1313 0.6078 0.1552
C22_3 C 0.07685(15) 0.5535(7) 0.1750(3)
C23_3 C 0.39777(18) 0.5629(9) 0.3325(4)
C24_3 C 0.07186(16) 0.3786(9) 0.3529(3)
C25_3 C 0.04720(17) 0.6054(8) 0.0987(3)
C26_3 C 0.35042(12) 0.5433(9) 0.3109(3)
C27_3 C 0.32748(17) 0.5154(10) 0.2373(3)
H19_3 H 0.3417 0.5027 0.2046
C28_3 C 0.28336(17) 0.5065(11) 0.2127(3)
H20_3 H 0.2680 0.4879 0.1635
C29_3 C 0.26217(12) 0.5256(10) 0.2617(3)
C30_3 C 0.28511(17) 0.5534(11) 0.3352(3)
H21_3 H 0.2709 0.5661 0.3680
C31_3 C 0.32923(16) 0.5623(11) 0.3599(3)
H22_3 H 0.3446 0.5809 0.4091
O13_3 O 0.1953(2) 0.5210(17) 0.1636(5)
O14_3 O 0.5427(4) 0.3286(14) 0.3228(4)
H23_3 H 0.5739 0.3623 0.3485
H24_3 H 0.5348 0.2829 0.3652
C32_3 C 0.2139(3) 0.5239(15) 0.2315(5)
Cd10_2 Cd 1.0000 0.05769(9) 0.2500
O3_4 O 0.43609(14) 0.1772(8) 0.4429(2)
N1_4 N 0.30648(14) 0.0206(8) 0.2248(3)
H1_4 H 0.2911 0.0229 0.1793
N2_4 N 0.04338(14) 0.0585(7) 0.1828(3)
N3_4 N 0.08450(15) 0.0204(8) 0.2166(3)
N5_4 N 0.07345(16) 0.1253(8) 0.1054(3)
C1_4 C 0.35132(15) 0.0135(8) 0.2407(3)
C5_4 C 0.37921(16) 0.0654(8) 0.3094(3)
H4_4 H 0.3687 0.1078 0.3448
C6_4 C 0.42315(15) 0.0535(7) 0.3250(3)
C7_4 C 0.10223(18) 0.0629(9) 0.1675(4)
C9_4 C 0.45280(17) 0.1054(8) 0.4013(3)
O5_2 O 0.4413(3) 0.5278(12) 0.5400(3)
H5_2 H 0.4593 0.6180 0.5358
H6_2 H 0.4179 0.5349 0.4996
C10_4 C 0.14958(12) 0.0433(9) 0.1891(3)
C11_4 C 0.17252(17) 0.0154(10) 0.2627(3)
H7_4 H 0.1583 0.0027 0.2954
C12_4 C 0.21664(17) 0.0065(11) 0.2873(3)
C13_4 C 0.23783(12) 0.0256(10) 0.2383(3)
C14_4 C 0.21489(17) 0.0534(11) 0.1648(3)
H9_4 H 0.2291 0.0661 0.1320
C15_4 C 0.17077(16) 0.0623(11) 0.1401(3)
H10_4 H 0.1554 0.0809 0.0909
O6_4 O 0.3047(2) 0.0210(17) 0.3364(5)
C16_4 C 0.2861(3) 0.0239(15) 0.2685(5)
C2_4 C 0.36712(16) 0.9569(8) 0.1877(3)
H2_4 H 0.3485 0.9270 0.1411
C3_4 C 0.41097(16) 0.9444(8) 0.2039(3)
C4_4 C 0.43913(15) 0.9922(7) 0.2729(3)
H3_4 H 0.4683 0.9830 0.2837
C8_4 C 0.42814(16) 0.8786(9) 0.1471(3)
H8_4 H 0.2320 0.9879 0.3365
O14_4 O 0.0427(4) 0.8286(14) 0.3228(4)
H23_4 H 0.0739 0.8623 0.3485
H24_4 H 0.0348 0.7829 0.3652
O10_4 O 0.56391(14) 0.1772(8) 0.0571(2)
N6_4 N 0.69352(14) 0.0206(8) 0.2752(3)
H13_4 H 0.7089 0.0229 0.3207
N7_4 N 0.95662(14) 0.0585(7) 0.3172(3)
N8_4 N 0.91550(15) 0.0204(8) 0.2834(3)
N10_4 N 0.92655(16) 0.1253(8) 0.3946(3)
C17_4 C 0.64868(15) 0.0135(8) 0.2593(3)
C21_4 C 0.62079(16) 0.0654(8) 0.1906(3)
H16_4 H 0.6313 0.1078 0.1552
C22_4 C 0.57685(15) 0.0535(7) 0.1750(3)
C23_4 C 0.89777(18) 0.0629(9) 0.3325(4)
C25_4 C 0.54720(17) 0.1054(8) 0.0987(3)
H18_2 H 0.5821 0.5349 0.0004
C26_4 C 0.85042(12) 0.0433(9) 0.3109(3)
C27_4 C 0.82748(17) 0.0154(10) 0.2373(3)
H19_4 H 0.8417 0.0027 0.2046
C28_4 C 0.78336(17) 0.0065(11) 0.2127(3)
C29_4 C 0.76217(12) 0.0256(10) 0.2617(3)
C30_4 C 0.78511(17) 0.0534(11) 0.3352(3)
H21_4 H 0.7709 0.0661 0.3680
C31_4 C 0.82923(16) 0.0623(11) 0.3599(3)
H22_4 H 0.8446 0.0809 0.4091
O13_4 O 0.6953(2) 0.0210(17) 0.1636(5)
C32_4 C 0.7139(3) 0.0239(15) 0.2315(5)
O12_2 O 0.5587(3) 0.5278(12) 0.9600(3)
H17_2 H 0.5407 0.6180 0.9642
O7_4 O 0.9573(4) 0.8286(14) 0.1772(4)
H11_4 H 0.9261 0.8623 0.1515
H12_4 H 0.9652 0.7829 0.1348
C18_4 C 0.63288(16) 0.9569(8) 0.3123(3)
H14_4 H 0.6515 0.9270 0.3589
C19_4 C 0.58903(16) 0.9444(8) 0.2961(3)
C20_4 C 0.56087(15) 0.9922(7) 0.2271(3)
H15_4 H 0.5317 0.9830 0.2163
C24_4 C 0.57186(16) 0.8786(9) 0.3529(3)
H20_4 H 0.7680 0.9879 0.1635
O12_3 O 0.9413(3) 0.9722(12) 0.0400(3)
H17_3 H 0.9593 0.8820 0.0358
O5_3 O 0.0587(3) 0.9722(12) 0.4600(3)
H5_3 H 0.0407 0.8820 0.4642
H6_3 H 0.0821 0.9651 0.5004
H18_3 H 0.9179 0.9651 0.9996
O5_4 O 0.9413(3) 0.0278(12) 0.5400(3)
H5_4 H 0.9593 0.1180 0.5358
H6_4 H 0.9179 0.0349 0.4996
H18_4 H 0.0821 0.0349 0.0004
O12_4 O 0.0587(3) 0.0278(12) 0.9600(3)
H17_4 H 0.0407 0.1180 0.9642
loop_
_geom_bond_atom_site_label_1
_geom_bond_atom_site_label_2
_geom_bond_site_symmetry_1
_geom_bond_site_symmetry_2
O17 Cd3 1_555 1_555
O21 Cd3 1_555 1_555
Cd1 O3 1_555 1_555
Cd2 N2 1_555 1_555
O1 C8 1_555 1_555
O2 C9 1_555 1_555
O3 C9 1_555 1_555
O4 C8 1_555 1_555
N1 H1 1_555 1_555
N2 N3 1_555 1_555
N3 C7 1_555 1_555
N4 N2 1_555 1_555
N5 N4 1_555 1_555
C1 N1 1_555 1_555
C2 C1 1_555 1_555
H2 C2 1_555 1_555
C3 C2 1_555 1_555
C4 C3 1_555 1_555
H3 C4 1_555 1_555
C5 C1 1_555 1_555
H4 C5 1_555 1_555
C6 C4 1_555 1_555
C7 N5 1_555 1_555
C8 C3 1_555 1_555
C9 C6 1_555 1_555
C10 C7 1_555 1_555
C11 C10 1_555 1_555
H7 C11 1_555 1_555
C12 C11 1_555 1_555
H8 C12 1_555 1_555
C13 C12 1_555 1_555
C14 C13 1_555 1_555
H9 C14 1_555 1_555
C15 C10 1_555 1_555
H10 C15 1_555 1_555
O6 C16 1_555 1_555
O7 Cd2 1_555 1_555
H11 O7 1_555 1_555
H12 O7 1_555 1_555
C16 N1 1_555 1_555
O8 C24 1_555 1_555
O9 C25 1_555 1_555
O10 C25 1_555 1_555
O11 C24 1_555 1_555
N6 H13 1_555 1_555
N7 Cd2 1_555 1_555
N8 N7 1_555 1_555
N9 N7 1_555 1_555
N10 N9 1_555 1_555
C17 N6 1_555 1_555
C18 C17 1_555 1_555
H14 C18 1_555 1_555
C19 C18 1_555 1_555
C20 C19 1_555 1_555
H15 C20 1_555 1_555
C21 C17 1_555 1_555
H16 C21 1_555 1_555
C22 C20 1_555 1_555
C23 N8 1_555 1_555
C24 C19 1_555 1_555
C25 C22 1_555 1_555
C26 C23 1_555 1_555
C27 C26 1_555 1_555
H19 C27 1_555 1_555
C28 C27 1_555 1_555
H20 C28 1_555 1_555
C29 C28 1_555 1_555
C30 C29 1_555 1_555
H21 C30 1_555 1_555
C31 C26 1_555 1_555
H22 C31 1_555 1_555
O13 C32 1_555 1_555
O14 Cd2 1_555 1_555
H23 O14 1_555 1_555
H24 O14 1_555 1_555
C32 N6 1_555 1_555
Cd5 O8 1_555 1_555
Cd7 O1 1_555 1_555
Cd8 N9 1_555 1_555
Cd9 N4 1_555 1_555
Cd11 O1 1_555 1_555
Cd11_2 O8 1_555 1_555
O15 Cd2 1_555 1_555
O16 Cd2 1_555 1_555
O18 Cd1 1_555 1_555
O22 Cd1 1_555 1_555
O4 Cd7 1_555 1_555
C5 C6 1_555 1_555
C13 C16 1_555 1_555
C14 C15 1_555 1_555
O11 Cd5 1_555 1_555
N10 C23 1_555 1_555
C21 C22 1_555 1_555
C29 C32 1_555 1_555
C30 C31 1_555 1_555
Cd8 O16 1_555 1_555
Cd9 O15 1_555 1_555
H11_2 O7_2 1_555 1_555
H12_2 O7_2 1_555 1_555
O16 C24_2 1_555 1_555
O11_2 C24_2 1_555 1_555
H14_2 C18_2 1_555 1_555
C19_2 C18_2 1_555 1_555
C20_2 C19_2 1_555 1_555
H15_2 C20_2 1_555 1_555
C24_2 C19_2 1_555 1_555
O11_2 Cd8 1_555 1_555
O12 Cd3_2 1_555 1_555
H17 O12 1_555 1_555
O17_2 Cd3_2 1_555 1_555
O21_2 Cd3_2 1_555 1_555
N11_2 Cd3_2 1_555 1_555
O9_2 C25_2 1_555 1_555
O10_2 C25_2 1_555 1_555
N6_2 H13_2 1_555 1_555
N7_2 Cd11 1_555 1_555
N8_2 N7_2 1_555 1_555
N9_2 N7_2 1_555 1_555
N10_2 N9_2 1_555 1_555
C17_2 N6_2 1_555 1_555
C21_2 C17_2 1_555 1_555
H16_2 C21_2 1_555 1_555
C23_2 N8_2 1_555 1_555
C25_2 C22_2 1_555 1_555
C26_2 C23_2 1_555 1_555
C27_2 C26_2 1_555 1_555
H19_2 C27_2 1_555 1_555
C28_2 C27_2 1_555 1_555
C29_2 C28_2 1_555 1_555
C30_2 C29_2 1_555 1_555
H21_2 C30_2 1_555 1_555
C31_2 C26_2 1_555 1_555
H22_2 C31_2 1_555 1_555
O13_2 C32_2 1_555 1_555
C32_2 N6_2 1_555 1_555
N10_2 C23_2 1_555 1_555
C21_2 C22_2 1_555 1_555
C29_2 C32_2 1_555 1_555
C30_2 C31_2 1_555 1_555
O15 C8_2 1_555 1_555
O4_2 C8_2 1_555 1_555
H2_2 C2_2 1_555 1_555
C3_2 C2_2 1_555 1_555
C4_2 C3_2 1_555 1_555
H3_2 C4_2 1_555 1_555
C8_2 C3_2 1_555 1_555
H23_2 O14_2 1_555 1_555
H24_2 O14_2 1_555 1_555
O4_2 Cd9 1_555 1_555
Cd1_2 O3_2 1_555 1_555
Cd11_2 N2_2 1_555 1_555
O2_2 C9_2 1_555 1_555
O3_2 C9_2 1_555 1_555
N1_2 H1_2 1_555 1_555
N2_2 N3_2 1_555 1_555
N3_2 C7_2 1_555 1_555
N4_2 N2_2 1_555 1_555
N5_2 N4_2 1_555 1_555
C1_2 N1_2 1_555 1_555
C5_2 C1_2 1_555 1_555
H4_2 C5_2 1_555 1_555
C7_2 N5_2 1_555 1_555
C9_2 C6_2 1_555 1_555
O5 Cd1_2 1_555 1_555
H5 O5 1_555 1_555
H6 O5 1_555 1_555
C10_2 C7_2 1_555 1_555
C11_2 C10_2 1_555 1_555
H7_2 C11_2 1_555 1_555
C12_2 C11_2 1_555 1_555
C13_2 C12_2 1_555 1_555
C14_2 C13_2 1_555 1_555
H9_2 C14_2 1_555 1_555
C15_2 C10_2 1_555 1_555
H10_2 C15_2 1_555 1_555
O6_2 C16_2 1_555 1_555
C16_2 N1_2 1_555 1_555
O18_2 Cd1_2 1_555 1_555
O22_2 Cd1_2 1_555 1_555
N12_2 Cd1_2 1_555 1_555
C5_2 C6_2 1_555 1_555
C13_2 C16_2 1_555 1_555
C14_2 C15_2 1_555 1_555
Cd5 O3_3 1_555 1_555
Cd2_2 N2_3 1_555 1_555
O17 C8_3 1_555 1_555
O19 C9_3 1_555 1_555
O3_3 C9_3 1_555 1_555
O21 C8_3 1_555 1_555
N1_3 H1_3 1_555 1_555
N2_3 N3_3 1_555 1_555
N3_3 C7_3 1_555 1_555
N11_2 N2_3 1_555 1_555
N5_3 N11_2 1_555 1_555
C1_3 N1_3 1_555 1_555
C2_3 C1_3 1_555 1_555
H2_3 C2_3 1_555 1_555
C3_3 C2_3 1_555 1_555
C4_3 C3_3 1_555 1_555
H3_3 C4_3 1_555 1_555
C5_3 C1_3 1_555 1_555
H4_3 C5_3 1_555 1_555
C6_3 C4_3 1_555 1_555
C7_3 N5_3 1_555 1_555
C8_3 C3_3 1_555 1_555
C9_3 C6_3 1_555 1_555
C10_3 C7_3 1_555 1_555
C11_3 C10_3 1_555 1_555
H7_3 C11_3 1_555 1_555
C12_3 C11_3 1_555 1_555
H8_3 C12_3 1_555 1_555
C13_3 C12_3 1_555 1_555
C14_3 C13_3 1_555 1_555
H9_3 C14_3 1_555 1_555
C15_3 C10_3 1_555 1_555
H10_3 C15_3 1_555 1_555
O6_3 C16_3 1_555 1_555
O7_3 Cd2_2 1_555 1_555
H11_3 O7_3 1_555 1_555
H12_3 O7_3 1_555 1_555
C16_3 N1_3 1_555 1_555
O18 C24_3 1_555 1_555
O20 C25_3 1_555 1_555
O10_3 C25_3 1_555 1_555
O22 C24_3 1_555 1_555
N6_3 H13_3 1_555 1_555
N7_3 Cd2_2 1_555 1_555
N8_3 N7_3 1_555 1_555
N12_2 N7_3 1_555 1_555
N10_3 N12_2 1_555 1_555
C17_3 N6_3 1_555 1_555
C18_3 C17_3 1_555 1_555
H14_3 C18_3 1_555 1_555
C19_3 C18_3 1_555 1_555
C20_3 C19_3 1_555 1_555
H15_3 C20_3 1_555 1_555
C21_3 C17_3 1_555 1_555
H16_3 C21_3 1_555 1_555
C22_3 C20_3 1_555 1_555
C23_3 N8_3 1_555 1_555
C24_3 C19_3 1_555 1_555
C25_3 C22_3 1_555 1_555
C26_3 C23_3 1_555 1_555
C27_3 C26_3 1_555 1_555
H19_3 C27_3 1_555 1_555
C28_3 C27_3 1_555 1_555
H20_3 C28_3 1_555 1_555
C29_3 C28_3 1_555 1_555
C30_3 C29_3 1_555 1_555
H21_3 C30_3 1_555 1_555
C31_3 C26_3 1_555 1_555
H22_3 C31_3 1_555 1_555
O13_3 C32_3 1_555 1_555
O14_3 Cd2_2 1_555 1_555
H23_3 O14_3 1_555 1_555
H24_3 O14_3 1_555 1_555
C32_3 N6_3 1_555 1_555
Cd10_2 O17 1_555 1_555
Cd10 O18 1_555 1_555
O17_2 Cd2_2 1_555 1_555
O18_2 Cd2_2 1_555 1_555
C5_3 C6_3 1_555 1_555
C13_3 C16_3 1_555 1_555
C14_3 C15_3 1_555 1_555
N10_3 C23_3 1_555 1_555
C21_3 C22_3 1_555 1_555
C29_3 C32_3 1_555 1_555
C30_3 C31_3 1_555 1_555
Cd8 O3_4 1_555 1_555
Cd10 N2_4 1_555 1_555
O19_2 C9_4 1_555 1_555
O3_4 C9_4 1_555 1_555
N1_4 H1_4 1_555 1_555
N2_4 N3_4 1_555 1_555
N3_4 C7_4 1_555 1_555
N11 N2_4 1_555 1_555
N5_4 N11 1_555 1_555
C1_4 N1_4 1_555 1_555
C5_4 C1_4 1_555 1_555
H4_4 C5_4 1_555 1_555
C7_4 N5_4 1_555 1_555
C9_4 C6_4 1_555 1_555
O5_2 Cd8 1_555 1_555
H5_2 O5_2 1_555 1_555
H6_2 O5_2 1_555 1_555
C10_4 C7_4 1_555 1_555
C11_4 C10_4 1_555 1_555
H7_4 C11_4 1_555 1_555
C12_4 C11_4 1_555 1_555
C13_4 C12_4 1_555 1_555
C14_4 C13_4 1_555 1_555
H9_4 C14_4 1_555 1_555
C15_4 C10_4 1_555 1_555
H10_4 C15_4 1_555 1_555
O6_4 C16_4 1_555 1_555
C16_4 N1_4 1_555 1_555
C5_4 C6_4 1_555 1_555
C13_4 C16_4 1_555 1_555
C14_4 C15_4 1_555 1_555
O17_2 C8_4 1_555 1_555
O21_2 C8_4 1_555 1_555
H2_4 C2_4 1_555 1_555
C3_4 C2_4 1_555 1_555
C4_4 C3_4 1_555 1_555
H3_4 C4_4 1_555 1_555
C8_4 C3_4 1_555 1_555
H23_4 O14_4 1_555 1_555
H24_4 O14_4 1_555 1_555
O20_2 C25_4 1_555 1_555
O10_4 C25_4 1_555 1_555
N6_4 H13_4 1_555 1_555
N7_4 Cd10_2 1_555 1_555
N8_4 N7_4 1_555 1_555
N12 N7_4 1_555 1_555
N10_4 N12 1_555 1_555
C17_4 N6_4 1_555 1_555
C21_4 C17_4 1_555 1_555
H16_4 C21_4 1_555 1_555
C23_4 N8_4 1_555 1_555
C25_4 C22_4 1_555 1_555
C26_4 C23_4 1_555 1_555
C27_4 C26_4 1_555 1_555
H19_4 C27_4 1_555 1_555
C28_4 C27_4 1_555 1_555
C29_4 C28_4 1_555 1_555
C30_4 C29_4 1_555 1_555
H21_4 C30_4 1_555 1_555
C31_4 C26_4 1_555 1_555
H22_4 C31_4 1_555 1_555
O13_4 C32_4 1_555 1_555
C32_4 N6_4 1_555 1_555
N10_4 C23_4 1_555 1_555
C21_4 C22_4 1_555 1_555
C29_4 C32_4 1_555 1_555
C30_4 C31_4 1_555 1_555
O12_2 Cd9 1_555 1_555
H17_2 O12_2 1_555 1_555
H11_4 O7_4 1_555 1_555
H12_4 O7_4 1_555 1_555
O18_2 C24_4 1_555 1_555
O22_2 C24_4 1_555 1_555
H14_4 C18_4 1_555 1_555
C19_4 C18_4 1_555 1_555
C20_4 C19_4 1_555 1_555
H15_4 C20_4 1_555 1_555
C24_4 C19_4 1_555 1_555
H17_3 O12_3 1_555 1_555
H5_3 O5_3 1_555 1_555
H6_3 O5_3 1_555 1_555
H5_4 O5_4 1_555 1_555
H6_4 O5_4 1_555 1_555
H17_4 O12_4 1_555 1_555

#END
