
###############################################################################
#
# This file contains modified crystal structure data generated from the
# MOF subset of the Cambridge Structural Database (CSD) v543 
# hosted by the Cambridge Crystallographic Data Centre (CCDC).
#
# This work is licensed under the Creative Commons
# Attribution-NonCommercial-ShareAlike 4.0 International License.
# To view a copy of this license, visit
# http://creativecommons.org/licenses/by-nc-sa/4.0/
# or send a letter to
# Creative Commons, PO Box 1866, Mountain View, CA 94042, USA.
#
# CIF created using the CSD Python API on 29 September 2022
# The structure has been converted into the P1 space group
# The structure has a 3D framework
# The original CSD entry BOZFON is in the orthorhombic crystal system
# The framework has been calculated to contain at least 10.0% void space
# The void calculation uses a probe of radius 1.32A, grid spacing 0.4
# H atom positions have been added when not included in the experimental data
#
###############################################################################

data_BOZFON
_chemical_formula_moiety         '(C324 H208 Cd12 N32 O52)n'
_symmetry_cell_setting           triclinic
_symmetry_space_group_name_H-M   'P 1'
_symmetry_Int_Tables_number      1
_space_group_name_Hall           'P 1'
loop_
_symmetry_equiv_pos_site_id
_symmetry_equiv_pos_as_xyz
1 x,y,z
_cell_length_a                   24.6602(17)
_cell_length_b                   28.6911(18)
_cell_length_c                   12.5602(7)
_cell_angle_alpha                90
_cell_angle_beta                 90
_cell_angle_gamma                90
_cell_volume                     8886.7
loop_
_atom_site_label
_atom_site_type_symbol
_atom_site_fract_x
_atom_site_fract_y
_atom_site_fract_z
O2 O 0.0669(6) 0.2857(6) 0.2186(13)
C30 C 0.0232(10) 0.2743(10) 0.267(2)
C31 C 0.0268(11) 0.2509(10) 0.376(2)
C34 C 0.0335(10) 0.2093(9) 0.575(2)
H22 H 0.0358 0.1954 0.6417
C35 C 0.0768(11) 0.2061(10) 0.504(2)
H23 H 0.1080 0.1901 0.5239
C36 C 0.0734(11) 0.2269(10) 0.405(2)
H24 H 0.1024 0.2248 0.3576
O16 O 0.0011(7) 0.2386(6) 0.0007(14)
N10 N 0.0582(8) 0.3257(7) 0.9324(16)
N4 N 0.5866(9) 0.1597(8) 0.2755(17)
N5 N 0.5582(8) 0.1743(7) 0.4324(16)
O3 O 0.8193(7) 0.2027(7) 0.1520(14)
O4 O 0.7318(7) 0.2030(6) 0.1729(14)
C8 C 0.5904(11) 0.1674(10) 0.085(2)
H4 H 0.5883 0.1995 0.0939
C9 C 0.5874(11) 0.1382(10) 0.173(2)
C10 C 0.5905(11) 0.0902(9) 0.160(2)
H5 H 0.5885 0.0706 0.2187
C11 C 0.5967(11) 0.0714(9) 0.059(2)
H6 H 0.5989 0.0392 0.0497
C22 C 0.5525(10) 0.1461(9) 0.350(2)
H15 H 0.5286 0.1211 0.3452
C23 C 0.5990(10) 0.2066(9) 0.417(2)
H16 H 0.6097 0.2308 0.4617
C24 C 0.6199(10) 0.1943(9) 0.320(2)
H17 H 0.6509 0.2068 0.2884
C37 C 0.7746(11) 0.2083(11) 0.119(2)
H49 H 0.5315 0.4468 0.0220
Cd6 Cd 0.49389(7) 0.18783(6) 0.56286(13)
Cd7 Cd 0.89786(8) 0.24038(6) 0.19015(17)
Cd9 Cd 0.79826(8) 0.17338(7) 0.31844(15)
Cd1 Cd 0.99389(7) 0.31217(6) 0.06286(13)
N1 N 0.6130(8) 0.0429(7) 0.6508(15)
N3 N 0.7356(9) 0.1445(8) 0.4332(16)
N6 N 0.8487(10) 0.2264(10) 0.6463(18)
N7 N 0.6256(9) 0.4019(8) 0.191(2)
N8 N 0.5992(9) 0.3427(8) 0.671(2)
O1 O 0.9769(6) 0.2809(6) 0.2300(13)
O5 O 0.8943(6) 0.3040(6) 0.0827(14)
O7 O 0.5011(7) 0.2614(6) 0.5007(14)
O8 O 0.4413(6) 0.3087(6) 0.5695(15)
O9 O 0.8535(6) 0.2832(6) 0.3082(14)
O10 O 0.7867(7) 0.2425(6) 0.3936(14)
O11 O 0.4001(7) 0.3196(6) 0.8043(15)
O12 O 0.3662(7) 0.3690(6) 0.9155(15)
O13 O 0.7886(6) 0.1001(5) 0.2191(15)
C1 C 0.6349(10) 0.0816(9) 0.677(2)
C2 C 0.6338(10) 0.1024(9) 0.7789(18)
H1 H 0.6509 0.1307 0.7916
C3 C 0.6046(11) 0.0778(9) 0.865(2)
C4 C 0.5852(10) 0.0377(8) 0.832(2)
H2 H 0.5657 0.0204 0.8818
C5 C 0.5908(10) 0.0191(9) 0.7346(19)
C6 C 0.5997(12) 0.1006(10) 0.970(2)
C7 C 0.5965(10) 0.1486(9) 0.984(2)
H3 H 0.5985 0.1682 0.9248
C17 C 0.7378(11) 0.1597(10) 0.532(2)
H11 H 0.7654 0.1803 0.5500
C18 C 0.7009(9) 0.1467(9) 0.614(2)
H12 H 0.6978 0.1640 0.6759
C19 C 0.6675(11) 0.1046(10) 0.596(2)
C20 C 0.6642(11) 0.0916(9) 0.487(2)
H13 H 0.6369 0.0716 0.4635
C21 C 0.7005(10) 0.1084(9) 0.418(2)
H14 H 0.7020 0.0938 0.3519
C25 C 0.8924(11) 0.2341(11) 0.586(2)
H18 H 0.8869 0.2415 0.5149
C26 C 0.9444(12) 0.2321(12) 0.622(2)
C27 C 0.9520(12) 0.2348(10) 0.716(2)
H19 H 0.9871 0.2392 0.7413
C28 C 0.9070(11) 0.2313(10) 0.793(2)
H20 H 0.9138 0.2283 0.8657
C29 C 0.8529(14) 0.2327(12) 0.754(2)
C32 C 0.9835(11) 0.2541(9) 0.446(2)
H21 H 0.9522 0.2701 0.4264
C33 C 0.9869(11) 0.2333(10) 0.546(2)
C38 C 0.7645(13) 0.2184(13) 0.998(3)
C39 C 0.8101(12) 0.2206(10) 0.934(2)
H25 H 0.8444 0.2160 0.9627
C40 C 0.8046(12) 0.2298(11) 0.826(3)
C41 C 0.7533(11) 0.2367(11) 0.782(2)
H26 H 0.7496 0.2428 0.7099
C42 C 0.7077(12) 0.2345(11) 0.847(2)
H27 H 0.6734 0.2392 0.8179
C43 C 0.7133(13) 0.2254(11) 0.955(2)
H28 H 0.6828 0.2239 0.9983
C44 C 0.6625(11) 0.3955(10) 0.111(2)
H29 H 0.6634 0.4174 0.0568
C45 C 0.6971(11) 0.3604(11) 0.107(2)
C46 C 0.6895(11) 0.3263(9) 0.189(2)
H30 H 0.7122 0.3005 0.1909
C47 C 0.6492(10) 0.3305(10) 0.268(2)
H31 H 0.6465 0.3084 0.3215
C48 C 0.6121(12) 0.3691(11) 0.264(3)
C51 C 0.7891(11) 0.3388(9) 0.047(2)
H32 H 0.7978 0.3293 0.1155
C52 C 0.7368(13) 0.3539(11) 0.024(2)
C56 C 0.4821(9) 0.3021(10) 0.518(2)
C57 C 0.5057(12) 0.3425(10) 0.464(2)
C58 C 0.5465(11) 0.3360(10) 0.389(2)
H36 H 0.5573 0.3060 0.3702
C59 C 0.5711(12) 0.3743(11) 0.341(3)
C60 C 0.5549(11) 0.4191(10) 0.369(2)
H37 H 0.5714 0.4447 0.3368
C61 C 0.5142(12) 0.4256(10) 0.444(3)
H38 H 0.5034 0.4556 0.4620
C62 C 0.4896(12) 0.3873(10) 0.491(2)
H39 H 0.4622 0.3916 0.5410
C63 C 0.6469(10) 0.3370(10) 0.601(2)
H40 H 0.6546 0.3087 0.5679
C64 C 0.6784(12) 0.3747(11) 0.587(2)
C65 C 0.6712(11) 0.4101(10) 0.643(2)
H41 H 0.6961 0.4341 0.6340
C66 C 0.6330(11) 0.4178(10) 0.714(2)
H42 H 0.6300 0.4464 0.7483
C67 C 0.5978(13) 0.3823(11) 0.736(2)
C68 C 0.8090(12) 0.2805(11) 0.361(2)
C69 C 0.7878(12) 0.3264(11) 0.399(2)
C70 C 0.7484(10) 0.3271(10) 0.478(2)
H43 H 0.7396 0.2999 0.5146
C71 C 0.7222(12) 0.3686(11) 0.504(2)
C72 C 0.7353(11) 0.4093(10) 0.449(2)
H44 H 0.7178 0.4371 0.4663
C73 C 0.7747(11) 0.4086(10) 0.370(2)
H45 H 0.7834 0.4359 0.3339
C74 C 0.8009(11) 0.3672(10) 0.345(2)
H46 H 0.8272 0.3667 0.2920
C75 C 0.4062(14) 0.3508(12) 0.868(3)
C76 C 0.4602(15) 0.3754(13) 0.878(3)
C77 C 0.5003(12) 0.3653(11) 0.803(3)
H47 H 0.4926 0.3447 0.7480
C78 C 0.5512(14) 0.3852(12) 0.809(3)
C79 C 0.5624(14) 0.4176(12) 0.888(3)
H48 H 0.5961 0.4320 0.8912
C80 C 0.5229(14) 0.4284(12) 0.963(3)
C81 C 0.4702(13) 0.4113(11) 0.950(3)
H50 H 0.4419 0.4238 0.9900
Cd8 Cd 0.39786(8) 0.25962(6) 0.69015(17)
Cd10 Cd 0.29826(8) 0.32662(7) 0.81844(15)
N9 N 0.9771(9) 0.3857(8) 0.1319(17)
O17 O 0.9413(6) 0.1913(6) 0.0695(15)
O18 O 0.9001(7) 0.1804(6) 0.3043(15)
O19 O 0.8662(7) 0.1310(6) 0.4155(15)
H51 H 0.750454 0.0965724 0.195095
H52 H 0.812978 0.100592 0.156185
N2 N 0.5229(9) 0.8857(8) 0.6319(17)
C12 C 0.5376(11) 0.8946(9) 0.728(2)
H7 H 0.5345 0.8707 0.7779
C13 C 0.5574(10) 0.9370(8) 0.7639(19)
H8 H 0.5668 0.9404 0.8351
C14 C 0.5633(11) 0.9728(9) 0.698(2)
C15 C 0.5550(10) 0.9660(9) 0.5980(19)
H9 H 0.5639 0.9887 0.5482
C16 C 0.5324(9) 0.9237(8) 0.566(2)
H10 H 0.5228 0.9208 0.4951
Cd4 Cd 0.50611(7) 0.81217(6) 0.56286(13)
N2_2 N 0.4771(9) 0.1143(8) 0.6319(17)
C12_2 C 0.4624(11) 0.1054(9) 0.728(2)
H7_2 H 0.4655 0.1293 0.7779
C13_2 C 0.4426(10) 0.0630(8) 0.7639(19)
H8_2 H 0.4332 0.0596 0.8351
C14_2 C 0.4367(11) 0.0272(9) 0.698(2)
C15_2 C 0.4450(10) 0.0340(9) 0.5980(19)
H9_2 H 0.4361 0.0113 0.5482
C16_2 C 0.4676(9) 0.0763(8) 0.566(2)
H10_2 H 0.4772 0.0792 0.4951
N4_2 N 0.4134(9) 0.8403(8) 0.2755(17)
N5_2 N 0.4418(8) 0.8257(7) 0.4324(16)
O3_2 O 0.1807(7) 0.7973(7) 0.1520(14)
O4_2 O 0.2682(7) 0.7970(6) 0.1729(14)
C8_2 C 0.4096(11) 0.8326(10) 0.085(2)
H4_2 H 0.4117 0.8005 0.0939
C9_2 C 0.4126(11) 0.8618(10) 0.173(2)
C10_2 C 0.4095(11) 0.9098(9) 0.160(2)
H5_2 H 0.4115 0.9294 0.2187
C11_2 C 0.4033(11) 0.9286(9) 0.059(2)
H6_2 H 0.4011 0.9608 0.0497
C22_2 C 0.4475(10) 0.8539(9) 0.350(2)
H15_2 H 0.4714 0.8789 0.3452
C23_2 C 0.4010(10) 0.7934(9) 0.417(2)
H16_2 H 0.3903 0.7692 0.4617
C24_2 C 0.3801(10) 0.8057(9) 0.320(2)
H17_2 H 0.3491 0.7932 0.2884
C37_2 C 0.2254(11) 0.7917(11) 0.119(2)
H49_2 H 0.4685 0.5532 0.0220
Cd7_2 Cd 0.10214(8) 0.75962(6) 0.19015(17)
Cd9_2 Cd 0.20174(8) 0.82662(7) 0.31844(15)
Cd1_2 Cd 0.00611(7) 0.68783(6) 0.06286(13)
N1_2 N 0.3870(8) 0.9571(7) 0.6508(15)
N3_2 N 0.2644(9) 0.8555(8) 0.4332(16)
N6_2 N 0.1513(10) 0.7736(10) 0.6463(18)
N7_2 N 0.3744(9) 0.5981(8) 0.191(2)
N8_2 N 0.4008(9) 0.6573(8) 0.671(2)
O1_2 O 0.0231(6) 0.7191(6) 0.2300(13)
O5_2 O 0.1057(6) 0.6960(6) 0.0827(14)
O7_2 O 0.4989(7) 0.7386(6) 0.5007(14)
O8_2 O 0.5587(6) 0.6913(6) 0.5695(15)
O9_2 O 0.1465(6) 0.7168(6) 0.3082(14)
O10_2 O 0.2133(7) 0.7575(6) 0.3936(14)
O11_2 O 0.5999(7) 0.6804(6) 0.8043(15)
O12_2 O 0.6338(7) 0.6310(6) 0.9155(15)
O13_2 O 0.2114(6) 0.8999(5) 0.2191(15)
C1_2 C 0.3651(10) 0.9184(9) 0.677(2)
C2_2 C 0.3662(10) 0.8976(9) 0.7789(18)
H1_2 H 0.3491 0.8693 0.7916
C3_2 C 0.3954(11) 0.9222(9) 0.865(2)
C4_2 C 0.4148(10) 0.9623(8) 0.832(2)
H2_2 H 0.4343 0.9796 0.8818
C5_2 C 0.4092(10) 0.9809(9) 0.7346(19)
C6_2 C 0.4003(12) 0.8994(10) 0.970(2)
C7_2 C 0.4035(10) 0.8514(9) 0.984(2)
H3_2 H 0.4015 0.8318 0.9248
C17_2 C 0.2622(11) 0.8403(10) 0.532(2)
H11_2 H 0.2346 0.8197 0.5500
C18_2 C 0.2991(9) 0.8533(9) 0.614(2)
H12_2 H 0.3022 0.8360 0.6759
C19_2 C 0.3325(11) 0.8954(10) 0.596(2)
C20_2 C 0.3358(11) 0.9084(9) 0.487(2)
H13_2 H 0.3631 0.9284 0.4635
C21_2 C 0.2995(10) 0.8916(9) 0.418(2)
H14_2 H 0.2980 0.9062 0.3519
C25_2 C 0.1076(11) 0.7659(11) 0.586(2)
H18_2 H 0.1131 0.7585 0.5149
C26_2 C 0.0556(12) 0.7679(12) 0.622(2)
C27_2 C 0.0480(12) 0.7652(10) 0.716(2)
H19_2 H 0.0129 0.7608 0.7413
C28_2 C 0.0930(11) 0.7687(10) 0.793(2)
H20_2 H 0.0862 0.7717 0.8657
C29_2 C 0.1471(14) 0.7673(12) 0.754(2)
C32_2 C 0.0165(11) 0.7459(9) 0.446(2)
H21_2 H 0.0478 0.7299 0.4264
C33_2 C 0.0131(11) 0.7667(10) 0.546(2)
C38_2 C 0.2355(13) 0.7816(13) 0.998(3)
C39_2 C 0.1899(12) 0.7794(10) 0.934(2)
H25_2 H 0.1556 0.7840 0.9627
C40_2 C 0.1954(12) 0.7702(11) 0.826(3)
C41_2 C 0.2467(11) 0.7633(11) 0.782(2)
H26_2 H 0.2504 0.7572 0.7099
C42_2 C 0.2923(12) 0.7655(11) 0.847(2)
H27_2 H 0.3266 0.7608 0.8179
C43_2 C 0.2867(13) 0.7746(11) 0.955(2)
H28_2 H 0.3172 0.7761 0.9983
C44_2 C 0.3375(11) 0.6045(10) 0.111(2)
H29_2 H 0.3366 0.5826 0.0568
C45_2 C 0.3029(11) 0.6396(11) 0.107(2)
C46_2 C 0.3105(11) 0.6737(9) 0.189(2)
H30_2 H 0.2878 0.6995 0.1909
C47_2 C 0.3508(10) 0.6695(10) 0.268(2)
H31_2 H 0.3535 0.6916 0.3215
C48_2 C 0.3879(12) 0.6309(11) 0.264(3)
C51_2 C 0.2109(11) 0.6612(9) 0.047(2)
H32_2 H 0.2022 0.6707 0.1155
C52_2 C 0.2632(13) 0.6461(11) 0.024(2)
C56_2 C 0.5179(9) 0.6979(10) 0.518(2)
C57_2 C 0.4943(12) 0.6575(10) 0.464(2)
C58_2 C 0.4535(11) 0.6640(10) 0.389(2)
H36_2 H 0.4427 0.6940 0.3702
C59_2 C 0.4289(12) 0.6257(11) 0.341(3)
C60_2 C 0.4451(11) 0.5809(10) 0.369(2)
H37_2 H 0.4286 0.5553 0.3368
C61_2 C 0.4858(12) 0.5744(10) 0.444(3)
H38_2 H 0.4966 0.5444 0.4620
C62_2 C 0.5104(12) 0.6127(10) 0.491(2)
H39_2 H 0.5378 0.6084 0.5410
C63_2 C 0.3531(10) 0.6630(10) 0.601(2)
H40_2 H 0.3454 0.6913 0.5679
C64_2 C 0.3216(12) 0.6253(11) 0.587(2)
C65_2 C 0.3288(11) 0.5899(10) 0.643(2)
H41_2 H 0.3039 0.5659 0.6340
C66_2 C 0.3670(11) 0.5822(10) 0.714(2)
H42_2 H 0.3700 0.5536 0.7483
C67_2 C 0.4022(13) 0.6177(11) 0.736(2)
C68_2 C 0.1910(12) 0.7195(11) 0.361(2)
C69_2 C 0.2122(12) 0.6736(11) 0.399(2)
C70_2 C 0.2516(10) 0.6729(10) 0.478(2)
H43_2 H 0.2604 0.7001 0.5146
C71_2 C 0.2778(12) 0.6314(11) 0.504(2)
C72_2 C 0.2647(11) 0.5907(10) 0.449(2)
H44_2 H 0.2822 0.5629 0.4663
C73_2 C 0.2253(11) 0.5914(10) 0.370(2)
H45_2 H 0.2166 0.5641 0.3339
C74_2 C 0.1991(11) 0.6328(10) 0.345(2)
H46_2 H 0.1728 0.6333 0.2920
C75_2 C 0.5938(14) 0.6492(12) 0.868(3)
C76_2 C 0.5398(15) 0.6246(13) 0.878(3)
C77_2 C 0.4997(12) 0.6347(11) 0.803(3)
H47_2 H 0.5074 0.6553 0.7480
C78_2 C 0.4488(14) 0.6148(12) 0.809(3)
C79_2 C 0.4376(14) 0.5824(12) 0.888(3)
H48_2 H 0.4039 0.5680 0.8912
C80_2 C 0.4771(14) 0.5716(12) 0.963(3)
C81_2 C 0.5298(13) 0.5887(11) 0.950(3)
H50_2 H 0.5581 0.5762 0.9900
Cd8_2 Cd 0.60214(8) 0.74038(6) 0.69015(17)
Cd10_2 Cd 0.70174(8) 0.67338(7) 0.81844(15)
N9_2 N 0.0229(9) 0.6143(8) 0.1319(17)
O17_2 O 0.0587(6) 0.8087(6) 0.0695(15)
O18_2 O 0.0999(7) 0.8196(6) 0.3043(15)
O19_2 O 0.1338(7) 0.8690(6) 0.4155(15)
H51_2 H 0.249546 0.903428 0.195095
H52_2 H 0.187022 0.899408 0.156185
O2_2 O 0.9331(6) 0.7143(6) 0.2186(13)
C30_2 C 0.9768(10) 0.7257(10) 0.267(2)
C31_2 C 0.9732(11) 0.7491(10) 0.376(2)
C34_2 C 0.9665(10) 0.7907(9) 0.575(2)
H22_2 H 0.9642 0.8046 0.6417
C35_2 C 0.9232(11) 0.7939(10) 0.504(2)
H23_2 H 0.8920 0.8099 0.5239
C36_2 C 0.9266(11) 0.7731(10) 0.405(2)
H24_2 H 0.8976 0.7752 0.3576
O16_2 O 0.9989(7) 0.7614(6) 0.0007(14)
N10_2 N 0.9418(8) 0.6743(7) 0.9324(16)
C56_3 C 0.0179(9) 0.8021(10) 0.018(2)
H39_3 H 0.0378 0.8916 0.0410
C75_3 C 0.0938(14) 0.8508(12) 0.368(3)
C76_3 C 0.0398(15) 0.8754(13) 0.378(3)
H47_3 H 0.0074 0.8447 0.2480
C81_3 C 0.0298(13) 0.9113(11) 0.450(3)
H50_3 H 0.0581 0.9238 0.4900
N1_3 N 0.8870(8) 0.5429(7) 0.1508(15)
N4_3 N 0.9134(9) 0.6597(8) 0.7755(17)
N6_3 N 0.6513(10) 0.7264(10) 0.1463(18)
N8_3 N 0.9008(9) 0.8427(8) 0.171(2)
O3_3 O 0.6807(7) 0.7027(7) 0.6520(14)
O4_3 O 0.7682(7) 0.7030(6) 0.6729(14)
C1_3 C 0.8651(10) 0.5816(9) 0.177(2)
C2_3 C 0.8662(10) 0.6024(9) 0.2789(18)
H1_3 H 0.8491 0.6307 0.2916
C3_3 C 0.8954(11) 0.5778(9) 0.365(2)
C4_3 C 0.9148(10) 0.5377(8) 0.332(2)
H2_3 H 0.9343 0.5204 0.3818
C5_3 C 0.9092(10) 0.5191(9) 0.2346(19)
C6_3 C 0.9003(12) 0.6006(10) 0.470(2)
C7_3 C 0.9035(10) 0.6486(9) 0.484(2)
H3_3 H 0.9015 0.6682 0.4248
C8_3 C 0.9096(11) 0.6674(10) 0.585(2)
H4_3 H 0.9117 0.6995 0.5939
C9_3 C 0.9126(11) 0.6382(10) 0.673(2)
C10_3 C 0.9095(11) 0.5902(9) 0.660(2)
H5_3 H 0.9115 0.5706 0.7187
C11_3 C 0.9033(11) 0.5714(9) 0.559(2)
H6_3 H 0.9011 0.5392 0.5497
C12_3 C 0.9624(11) 0.3946(9) 0.228(2)
H7_3 H 0.9655 0.3707 0.2779
C13_3 C 0.9426(10) 0.4370(8) 0.2639(19)
H8_3 H 0.9332 0.4404 0.3351
C14_3 C 0.9367(11) 0.4728(9) 0.198(2)
C15_3 C 0.9450(10) 0.4660(9) 0.0980(19)
H9_3 H 0.9361 0.4887 0.0482
C16_3 C 0.9676(9) 0.4237(8) 0.066(2)
C17_3 C 0.7622(11) 0.6597(10) 0.032(2)
H11_3 H 0.7346 0.6803 0.0500
C18_3 C 0.7991(9) 0.6467(9) 0.114(2)
H12_3 H 0.8022 0.6640 0.1759
C19_3 C 0.8325(11) 0.6046(10) 0.096(2)
C22_3 C 0.9475(10) 0.6461(9) 0.850(2)
H15_3 H 0.9714 0.6211 0.8452
C23_3 C 0.9010(10) 0.7066(9) 0.917(2)
H16_3 H 0.8903 0.7308 0.9617
C24_3 C 0.8801(10) 0.6943(9) 0.820(2)
H17_3 H 0.8491 0.7068 0.7884
C25_3 C 0.6076(11) 0.7341(11) 0.086(2)
H18_3 H 0.6131 0.7415 0.0149
C26_3 C 0.5556(12) 0.7321(12) 0.122(2)
C27_3 C 0.5480(12) 0.7348(10) 0.216(2)
H19_3 H 0.5129 0.7392 0.2413
C28_3 C 0.5930(11) 0.7313(10) 0.293(2)
H20_3 H 0.5862 0.7283 0.3657
C29_3 C 0.6471(14) 0.7327(12) 0.254(2)
C33_3 C 0.5131(11) 0.7333(10) 0.046(2)
C34_3 C 0.4665(10) 0.7093(9) 0.075(2)
H22_3 H 0.4642 0.6954 0.1417
C35_3 C 0.4232(11) 0.7061(10) 0.004(2)
H23_3 H 0.3920 0.6901 0.0239
C37_3 C 0.7254(11) 0.7083(11) 0.619(2)
C38_3 C 0.7355(13) 0.7184(13) 0.498(3)
C39_3 C 0.6899(12) 0.7206(10) 0.434(2)
H25_3 H 0.6556 0.7160 0.4627
C40_3 C 0.6954(12) 0.7298(11) 0.326(3)
C41_3 C 0.7467(11) 0.7367(11) 0.282(2)
H26_3 H 0.7504 0.7428 0.2099
C42_3 C 0.7923(12) 0.7345(11) 0.347(2)
H27_3 H 0.8266 0.7392 0.3179
C43_3 C 0.7867(13) 0.7254(11) 0.455(2)
H28_3 H 0.8172 0.7239 0.4983
C63_3 C 0.8531(10) 0.8370(10) 0.101(2)
H40_3 H 0.8454 0.8087 0.0679
C64_3 C 0.8216(12) 0.8747(11) 0.087(2)
C65_3 C 0.8288(11) 0.9101(10) 0.143(2)
H41_3 H 0.8039 0.9341 0.1340
C66_3 C 0.8670(11) 0.9178(10) 0.214(2)
H42_3 H 0.8700 0.9464 0.2483
C67_3 C 0.9022(13) 0.8823(11) 0.236(2)
H43_3 H 0.7604 0.7999 0.0146
C71_3 C 0.7778(12) 0.8686(11) 0.004(2)
C77_3 C 0.9997(12) 0.8653(11) 0.303(3)
C78_3 C 0.9488(14) 0.8852(12) 0.309(3)
C79_3 C 0.9376(14) 0.9176(12) 0.388(3)
H48_3 H 0.9039 0.9320 0.3912
C80_3 C 0.9771(14) 0.9284(12) 0.463(3)
H49_3 H 0.9685 0.9468 0.5220
N3_3 N 0.7644(9) 0.6445(8) 0.9332(16)
N7_3 N 0.8744(9) 0.9019(8) 0.691(2)
O1_3 O 0.5231(6) 0.7809(6) 0.7300(13)
O2_3 O 0.4331(6) 0.7857(6) 0.7186(13)
O5_3 O 0.6057(6) 0.8040(6) 0.5827(14)
O6 O 0.5753(6) 0.8382(6) 0.4296(14)
O9_3 O 0.6465(6) 0.7832(6) 0.8082(14)
O10_3 O 0.7133(7) 0.7425(6) 0.8936(14)
O13_3 O 0.7114(6) 0.6001(5) 0.7191(15)
H10_3 H 0.9772 0.4208 0.9951
C20_3 C 0.8358(11) 0.5916(9) 0.987(2)
H13_3 H 0.8631 0.5716 0.9635
C21_3 C 0.7995(10) 0.6084(9) 0.918(2)
H14_3 H 0.7980 0.5938 0.8519
C30_3 C 0.4768(10) 0.7743(10) 0.767(2)
C31_3 C 0.4732(11) 0.7509(10) 0.876(2)
C32_3 C 0.5165(11) 0.7541(9) 0.946(2)
H21_3 H 0.5478 0.7701 0.9264
C36_3 C 0.4266(11) 0.7269(10) 0.905(2)
H24_3 H 0.3976 0.7248 0.8576
C44_3 C 0.8375(11) 0.8955(10) 0.611(2)
H29_3 H 0.8366 0.9174 0.5568
C45_3 C 0.8029(11) 0.8604(11) 0.607(2)
C46_3 C 0.8105(11) 0.8263(9) 0.689(2)
H30_3 H 0.7878 0.8005 0.6909
C47_3 C 0.8508(10) 0.8305(10) 0.768(2)
H31_3 H 0.8535 0.8084 0.8215
C48_3 C 0.8879(12) 0.8691(11) 0.764(3)
C49 C 0.6128(12) 0.8266(10) 0.486(2)
C50 C 0.6717(12) 0.8378(10) 0.467(2)
C51_3 C 0.7109(11) 0.8388(9) 0.547(2)
H32_3 H 0.7022 0.8293 0.6155
C52_3 C 0.7632(13) 0.8539(11) 0.524(2)
C53 C 0.7762(12) 0.8680(10) 0.421(2)
H33 H 0.8111 0.8781 0.4051
C54 C 0.7369(11) 0.8671(10) 0.341(2)
H34 H 0.7456 0.8765 0.2726
C55 C 0.6847(12) 0.8519(10) 0.365(2)
H35 H 0.6585 0.8513 0.3114
C57_3 C 0.9943(12) 0.8425(10) 0.964(2)
C58_3 C 0.9535(11) 0.8360(10) 0.889(2)
H36_3 H 0.9427 0.8060 0.8702
C59_3 C 0.9289(12) 0.8743(11) 0.841(3)
C60_3 C 0.9451(11) 0.9191(10) 0.869(2)
H37_3 H 0.9286 0.9447 0.8368
C61_3 C 0.9858(12) 0.9256(10) 0.944(3)
H38_3 H 0.9966 0.9556 0.9620
C68_3 C 0.6910(12) 0.7805(11) 0.861(2)
C69_3 C 0.7122(12) 0.8264(11) 0.899(2)
C70_3 C 0.7516(10) 0.8271(10) 0.978(2)
C72_3 C 0.7647(11) 0.9093(10) 0.949(2)
H44_3 H 0.7822 0.9371 0.9663
C73_3 C 0.7253(11) 0.9086(10) 0.870(2)
H45_3 H 0.7166 0.9359 0.8339
C74_3 C 0.6991(11) 0.8672(10) 0.845(2)
H46_3 H 0.6728 0.8667 0.7920
H51_3 H 0.749546 0.596572 0.695095
H52_3 H 0.687022 0.600592 0.656185
N1_4 N 0.1130(8) 0.4571(7) 0.1508(15)
N4_4 N 0.0866(9) 0.3403(8) 0.7755(17)
N6_4 N 0.3487(10) 0.2736(10) 0.1463(18)
N8_4 N 0.0992(9) 0.1573(8) 0.171(2)
O3_4 O 0.3193(7) 0.2973(7) 0.6520(14)
O4_4 O 0.2318(7) 0.2970(6) 0.6729(14)
C1_4 C 0.1349(10) 0.4184(9) 0.177(2)
C2_4 C 0.1338(10) 0.3976(9) 0.2789(18)
H1_4 H 0.1509 0.3693 0.2916
C3_4 C 0.1046(11) 0.4222(9) 0.365(2)
C4_4 C 0.0852(10) 0.4623(8) 0.332(2)
H2_4 H 0.0657 0.4796 0.3818
C5_4 C 0.0908(10) 0.4809(9) 0.2346(19)
C6_4 C 0.0997(12) 0.3994(10) 0.470(2)
C7_4 C 0.0965(10) 0.3514(9) 0.484(2)
H3_4 H 0.0985 0.3318 0.4248
C8_4 C 0.0904(11) 0.3326(10) 0.585(2)
H4_4 H 0.0883 0.3005 0.5939
C9_4 C 0.0874(11) 0.3618(10) 0.673(2)
C10_4 C 0.0905(11) 0.4098(9) 0.660(2)
H5_4 H 0.0885 0.4294 0.7187
C11_4 C 0.0967(11) 0.4286(9) 0.559(2)
H6_4 H 0.0989 0.4608 0.5497
C12_4 C 0.0376(11) 0.6054(9) 0.228(2)
H7_4 H 0.0345 0.6293 0.2779
C13_4 C 0.0574(10) 0.5630(8) 0.2639(19)
H8_4 H 0.0668 0.5596 0.3351
C14_4 C 0.0633(11) 0.5272(9) 0.198(2)
C15_4 C 0.0550(10) 0.5340(9) 0.0980(19)
H9_4 H 0.0639 0.5113 0.0482
C16_4 C 0.0324(9) 0.5763(8) 0.066(2)
C17_4 C 0.2378(11) 0.3403(10) 0.032(2)
H11_4 H 0.2654 0.3197 0.0500
C18_4 C 0.2009(9) 0.3533(9) 0.114(2)
H12_4 H 0.1978 0.3360 0.1759
C19_4 C 0.1675(11) 0.3954(10) 0.096(2)
C22_4 C 0.0525(10) 0.3539(9) 0.850(2)
H15_4 H 0.0286 0.3789 0.8452
C23_4 C 0.0990(10) 0.2934(9) 0.917(2)
H16_4 H 0.1097 0.2692 0.9617
C24_4 C 0.1199(10) 0.3057(9) 0.820(2)
H17_4 H 0.1509 0.2932 0.7884
C25_4 C 0.3924(11) 0.2659(11) 0.086(2)
H18_4 H 0.3869 0.2585 0.0149
C26_4 C 0.4444(12) 0.2679(12) 0.122(2)
C27_4 C 0.4520(12) 0.2652(10) 0.216(2)
H19_4 H 0.4871 0.2608 0.2413
C28_4 C 0.4070(11) 0.2687(10) 0.293(2)
H20_4 H 0.4138 0.2717 0.3657
C29_4 C 0.3529(14) 0.2673(12) 0.254(2)
C33_4 C 0.4869(11) 0.2667(10) 0.046(2)
C34_4 C 0.5335(10) 0.2907(9) 0.075(2)
H22_4 H 0.5358 0.3046 0.1417
C35_4 C 0.5768(11) 0.2939(10) 0.004(2)
H23_4 H 0.6080 0.3099 0.0239
C37_4 C 0.2746(11) 0.2917(11) 0.619(2)
C38_4 C 0.2645(13) 0.2816(13) 0.498(3)
C39_4 C 0.3101(12) 0.2794(10) 0.434(2)
H25_4 H 0.3444 0.2840 0.4627
C40_4 C 0.3046(12) 0.2702(11) 0.326(3)
C41_4 C 0.2533(11) 0.2633(11) 0.282(2)
H26_4 H 0.2496 0.2572 0.2099
C42_4 C 0.2077(12) 0.2655(11) 0.347(2)
H27_4 H 0.1734 0.2608 0.3179
C43_4 C 0.2133(13) 0.2746(11) 0.455(2)
H28_4 H 0.1828 0.2761 0.4983
C63_4 C 0.1469(10) 0.1630(10) 0.101(2)
H40_4 H 0.1546 0.1913 0.0679
C64_4 C 0.1784(12) 0.1253(11) 0.087(2)
C65_4 C 0.1712(11) 0.0899(10) 0.143(2)
H41_4 H 0.1961 0.0659 0.1340
C66_4 C 0.1330(11) 0.0822(10) 0.214(2)
H42_4 H 0.1300 0.0536 0.2483
C67_4 C 0.0978(13) 0.1177(11) 0.236(2)
H43_4 H 0.2396 0.2001 0.0146
C71_4 C 0.2222(12) 0.1314(11) 0.004(2)
C77_4 C 0.0003(12) 0.1347(11) 0.303(3)
C78_4 C 0.0512(14) 0.1148(12) 0.309(3)
C79_4 C 0.0624(14) 0.0824(12) 0.388(3)
H48_4 H 0.0961 0.0680 0.3912
C80_4 C 0.0229(14) 0.0716(12) 0.463(3)
H49_4 H 0.0315 0.0532 0.5220
N3_4 N 0.2356(9) 0.3555(8) 0.9332(16)
N7_4 N 0.1256(9) 0.0981(8) 0.691(2)
O1_4 O 0.4769(6) 0.2191(6) 0.7300(13)
O2_4 O 0.5669(6) 0.2143(6) 0.7186(13)
O5_4 O 0.3943(6) 0.1960(6) 0.5827(14)
O6_2 O 0.4247(6) 0.1618(6) 0.4296(14)
O9_4 O 0.3535(6) 0.2168(6) 0.8082(14)
O10_4 O 0.2867(7) 0.2575(6) 0.8936(14)
O13_4 O 0.2886(6) 0.3999(5) 0.7191(15)
H10_4 H 0.0228 0.5792 0.9951
C20_4 C 0.1642(11) 0.4084(9) 0.987(2)
H13_4 H 0.1369 0.4284 0.9635
C21_4 C 0.2005(10) 0.3916(9) 0.918(2)
H14_4 H 0.2020 0.4062 0.8519
C30_4 C 0.5232(10) 0.2257(10) 0.767(2)
C31_4 C 0.5268(11) 0.2491(10) 0.876(2)
C32_4 C 0.4835(11) 0.2459(9) 0.946(2)
H21_4 H 0.4522 0.2299 0.9264
C36_4 C 0.5734(11) 0.2731(10) 0.905(2)
H24_4 H 0.6024 0.2752 0.8576
C44_4 C 0.1625(11) 0.1045(10) 0.611(2)
H29_4 H 0.1634 0.0826 0.5568
C45_4 C 0.1971(11) 0.1396(11) 0.607(2)
C46_4 C 0.1895(11) 0.1737(9) 0.689(2)
H30_4 H 0.2122 0.1995 0.6909
C47_4 C 0.1492(10) 0.1695(10) 0.768(2)
H31_4 H 0.1465 0.1916 0.8215
C48_4 C 0.1121(12) 0.1309(11) 0.764(3)
C49_2 C 0.3872(12) 0.1734(10) 0.486(2)
C50_2 C 0.3283(12) 0.1622(10) 0.467(2)
C51_4 C 0.2891(11) 0.1612(9) 0.547(2)
H32_4 H 0.2978 0.1707 0.6155
C52_4 C 0.2368(13) 0.1461(11) 0.524(2)
C53_2 C 0.2238(12) 0.1320(10) 0.421(2)
H33_2 H 0.1889 0.1219 0.4051
C54_2 C 0.2631(11) 0.1329(10) 0.341(2)
H34_2 H 0.2544 0.1235 0.2726
C55_2 C 0.3153(12) 0.1481(10) 0.365(2)
H35_2 H 0.3415 0.1487 0.3114
C57_4 C 0.0057(12) 0.1575(10) 0.964(2)
C58_4 C 0.0465(11) 0.1640(10) 0.889(2)
H36_4 H 0.0573 0.1940 0.8702
C59_4 C 0.0711(12) 0.1257(11) 0.841(3)
C60_4 C 0.0549(11) 0.0809(10) 0.869(2)
H37_4 H 0.0714 0.0553 0.8368
C61_4 C 0.0142(12) 0.0744(10) 0.944(3)
H38_4 H 0.0034 0.0444 0.9620
C68_4 C 0.3090(12) 0.2195(11) 0.861(2)
C69_4 C 0.2878(12) 0.1736(11) 0.899(2)
C70_4 C 0.2484(10) 0.1729(10) 0.978(2)
C72_4 C 0.2353(11) 0.0907(10) 0.949(2)
H44_4 H 0.2178 0.0629 0.9663
C73_4 C 0.2747(11) 0.0914(10) 0.870(2)
H45_4 H 0.2834 0.0641 0.8339
C74_4 C 0.3009(11) 0.1328(10) 0.845(2)
H46_4 H 0.3272 0.1333 0.7920
H51_4 H 0.250454 0.403428 0.695095
H52_4 H 0.312978 0.399408 0.656185
C56_4 C 0.9821(9) 0.1979(10) 0.018(2)
H39_4 H 0.9622 0.1084 0.0410
C75_4 C 0.9062(14) 0.1492(12) 0.368(3)
C76_4 C 0.9602(15) 0.1246(13) 0.378(3)
H47_4 H 0.9926 0.1553 0.2480
C81_4 C 0.9702(13) 0.0887(11) 0.450(3)
H50_4 H 0.9419 0.0762 0.4900
O6_3 O 0.9247(6) 0.3382(6) 0.9296(14)
C49_3 C 0.8872(12) 0.3266(10) 0.986(2)
C50_3 C 0.8283(12) 0.3378(10) 0.967(2)
C53_3 C 0.7238(12) 0.3680(10) 0.921(2)
H33_3 H 0.6889 0.3781 0.9051
C54_3 C 0.7631(11) 0.3671(10) 0.841(2)
H34_3 H 0.7544 0.3765 0.7726
C55_3 C 0.8153(12) 0.3519(10) 0.865(2)
H35_3 H 0.8415 0.3513 0.8114
O6_4 O 0.0753(6) 0.6618(6) 0.9296(14)
C49_4 C 0.1128(12) 0.6734(10) 0.986(2)
C50_4 C 0.1717(12) 0.6622(10) 0.967(2)
C53_4 C 0.2762(12) 0.6320(10) 0.921(2)
H33_4 H 0.3111 0.6219 0.9051
C54_4 C 0.2369(11) 0.6329(10) 0.841(2)
H34_4 H 0.2456 0.6235 0.7726
C55_4 C 0.1847(12) 0.6481(10) 0.865(2)
H35_4 H 0.1585 0.6487 0.8114
C62_3 C 0.0104(12) 0.8873(10) 0.991(2)
C62_4 C 0.9896(12) 0.1127(10) 0.991(2)
loop_
_geom_bond_atom_site_label_1
_geom_bond_atom_site_label_2
_geom_bond_site_symmetry_1
_geom_bond_site_symmetry_2
C30 O2 1_555 1_555
C31 C30 1_555 1_555
H22 C34 1_555 1_555
C35 C34 1_555 1_555
H23 C35 1_555 1_555
C36 C31 1_555 1_555
H24 C36 1_555 1_555
C35 C36 1_555 1_555
N4 C9 1_555 1_555
N5 C22 1_555 1_555
O3 C37 1_555 1_555
O4 C37 1_555 1_555
H4 C8 1_555 1_555
C9 C8 1_555 1_555
C10 C9 1_555 1_555
H5 C10 1_555 1_555
H6 C11 1_555 1_555
C22 N4 1_555 1_555
H15 C22 1_555 1_555
C23 N5 1_555 1_555
H16 C23 1_555 1_555
C24 N4 1_555 1_555
H17 C24 1_555 1_555
Cd6 N5 1_555 1_555
Cd7 O3 1_555 1_555
Cd9 O3 1_555 1_555
O4 Cd9 1_555 1_555
C10 C11 1_555 1_555
C23 C24 1_555 1_555
Cd1 O1 1_555 1_555
Cd7 O1 1_555 1_555
Cd9 N3 1_555 1_555
N1 C1 1_555 1_555
N3 C17 1_555 1_555
N6 C25 1_555 1_555
N7 C44 1_555 1_555
N8 C63 1_555 1_555
O5 Cd1 1_555 1_555
O7 C56 1_555 1_555
O8 C56 1_555 1_555
O9 Cd7 1_555 1_555
O10 Cd9 1_555 1_555
O11 C75 1_555 1_555
O12 C75 1_555 1_555
O13 Cd9 1_555 1_555
C1 C2 1_555 1_555
C2 H1 1_555 1_555
C3 C2 1_555 1_555
C4 C3 1_555 1_555
H2 C4 1_555 1_555
C5 N1 1_555 1_555
C6 C3 1_555 1_555
C7 C6 1_555 1_555
H3 C7 1_555 1_555
C17 H11 1_555 1_555
C18 C17 1_555 1_555
H12 C18 1_555 1_555
C19 C1 1_555 1_555
C20 C19 1_555 1_555
H13 C20 1_555 1_555
C21 N3 1_555 1_555
H14 C21 1_555 1_555
C25 H18 1_555 1_555
C26 C25 1_555 1_555
C27 C26 1_555 1_555
H19 C27 1_555 1_555
C28 C27 1_555 1_555
H20 C28 1_555 1_555
C29 N6 1_555 1_555
H21 C32 1_555 1_555
C33 C26 1_555 1_555
C38 C39 1_555 1_555
C39 H25 1_555 1_555
C40 C29 1_555 1_555
C41 C40 1_555 1_555
H26 C41 1_555 1_555
C42 C41 1_555 1_555
H27 C42 1_555 1_555
C43 C38 1_555 1_555
H28 C43 1_555 1_555
C44 H29 1_555 1_555
C45 C44 1_555 1_555
C46 C45 1_555 1_555
H30 C46 1_555 1_555
C47 C46 1_555 1_555
H31 C47 1_555 1_555
C48 N7 1_555 1_555
H32 C51 1_555 1_555
C52 C45 1_555 1_555
C56 C57 1_555 1_555
C57 C58 1_555 1_555
C58 H36 1_555 1_555
C59 C48 1_555 1_555
C60 C59 1_555 1_555
H37 C60 1_555 1_555
C61 C60 1_555 1_555
H38 C61 1_555 1_555
C62 C57 1_555 1_555
H39 C62 1_555 1_555
C63 H40 1_555 1_555
C64 C63 1_555 1_555
C65 C64 1_555 1_555
H41 C65 1_555 1_555
C66 C65 1_555 1_555
H42 C66 1_555 1_555
C67 N8 1_555 1_555
C68 O9 1_555 1_555
C69 C68 1_555 1_555
C70 C69 1_555 1_555
H43 C70 1_555 1_555
C71 C64 1_555 1_555
C72 C71 1_555 1_555
H44 C72 1_555 1_555
C73 C72 1_555 1_555
H45 C73 1_555 1_555
C74 C69 1_555 1_555
H46 C74 1_555 1_555
C75 C76 1_555 1_555
C76 C77 1_555 1_555
C77 H47 1_555 1_555
C78 C67 1_555 1_555
C79 C78 1_555 1_555
H48 C79 1_555 1_555
C80 C79 1_555 1_555
C81 C76 1_555 1_555
H50 C81 1_555 1_555
Cd6 O7 1_555 1_555
Cd8 O8 1_555 1_555
Cd10 O11 1_555 1_555
N9 Cd1 1_555 1_555
O17 Cd7 1_555 1_555
O18 Cd7 1_555 1_555
O19 Cd9 1_555 1_555
Cd7 O5 1_555 1_555
Cd9 O18 1_555 1_555
O10 C68 1_555 1_555
O11 Cd8 1_555 1_555
O12 Cd10 1_555 1_555
C4 C5 1_555 1_555
C18 C19 1_555 1_555
C20 C21 1_555 1_555
C28 C29 1_555 1_555
C32 C33 1_555 1_555
C39 C40 1_555 1_555
C42 C43 1_555 1_555
C47 C48 1_555 1_555
C51 C52 1_555 1_555
C58 C59 1_555 1_555
C61 C62 1_555 1_555
C66 C67 1_555 1_555
C70 C71 1_555 1_555
C73 C74 1_555 1_555
C77 C78 1_555 1_555
C80 C81 1_555 1_555
O13 H51 1_555 1_555
O13 H52 1_555 1_555
N2 C12 1_555 1_555
C12 H7 1_555 1_555
C13 C12 1_555 1_555
H8 C13 1_555 1_555
C15 C14 1_555 1_555
H9 C15 1_555 1_555
C16 N2 1_555 1_555
H10 C16 1_555 1_555
Cd4 N2 1_555 1_555
C13 C14 1_555 1_555
C15 C16 1_555 1_555
N2_2 C12_2 1_555 1_555
C12_2 H7_2 1_555 1_555
C13_2 C12_2 1_555 1_555
H8_2 C13_2 1_555 1_555
C15_2 C14_2 1_555 1_555
H9_2 C15_2 1_555 1_555
C16_2 N2_2 1_555 1_555
H10_2 C16_2 1_555 1_555
Cd6 N2_2 1_555 1_555
C13_2 C14_2 1_555 1_555
C15_2 C16_2 1_555 1_555
N4_2 C9_2 1_555 1_555
N5_2 C22_2 1_555 1_555
O3_2 C37_2 1_555 1_555
O4_2 C37_2 1_555 1_555
H4_2 C8_2 1_555 1_555
C9_2 C8_2 1_555 1_555
C10_2 C9_2 1_555 1_555
H5_2 C10_2 1_555 1_555
H6_2 C11_2 1_555 1_555
C22_2 N4_2 1_555 1_555
H15_2 C22_2 1_555 1_555
C23_2 N5_2 1_555 1_555
H16_2 C23_2 1_555 1_555
C24_2 N4_2 1_555 1_555
H17_2 C24_2 1_555 1_555
Cd4 N5_2 1_555 1_555
Cd7_2 O3_2 1_555 1_555
Cd9_2 O3_2 1_555 1_555
O4_2 Cd9_2 1_555 1_555
C10_2 C11_2 1_555 1_555
C23_2 C24_2 1_555 1_555
Cd1_2 O1_2 1_555 1_555
Cd7_2 O1_2 1_555 1_555
Cd9_2 N3_2 1_555 1_555
N1_2 C1_2 1_555 1_555
N3_2 C17_2 1_555 1_555
N6_2 C25_2 1_555 1_555
N7_2 C44_2 1_555 1_555
N8_2 C63_2 1_555 1_555
O5_2 Cd1_2 1_555 1_555
O7_2 C56_2 1_555 1_555
O8_2 C56_2 1_555 1_555
O9_2 Cd7_2 1_555 1_555
O10_2 Cd9_2 1_555 1_555
O11_2 C75_2 1_555 1_555
O12_2 C75_2 1_555 1_555
O13_2 Cd9_2 1_555 1_555
C1_2 C2_2 1_555 1_555
C2_2 H1_2 1_555 1_555
C3_2 C2_2 1_555 1_555
C4_2 C3_2 1_555 1_555
H2_2 C4_2 1_555 1_555
C5_2 N1_2 1_555 1_555
C6_2 C3_2 1_555 1_555
C7_2 C6_2 1_555 1_555
H3_2 C7_2 1_555 1_555
C17_2 H11_2 1_555 1_555
C18_2 C17_2 1_555 1_555
H12_2 C18_2 1_555 1_555
C19_2 C1_2 1_555 1_555
C20_2 C19_2 1_555 1_555
H13_2 C20_2 1_555 1_555
C21_2 N3_2 1_555 1_555
H14_2 C21_2 1_555 1_555
C25_2 H18_2 1_555 1_555
C26_2 C25_2 1_555 1_555
C27_2 C26_2 1_555 1_555
H19_2 C27_2 1_555 1_555
C28_2 C27_2 1_555 1_555
H20_2 C28_2 1_555 1_555
C29_2 N6_2 1_555 1_555
H21_2 C32_2 1_555 1_555
C33_2 C26_2 1_555 1_555
C38_2 C39_2 1_555 1_555
C39_2 H25_2 1_555 1_555
C40_2 C29_2 1_555 1_555
C41_2 C40_2 1_555 1_555
H26_2 C41_2 1_555 1_555
C42_2 C41_2 1_555 1_555
H27_2 C42_2 1_555 1_555
C43_2 C38_2 1_555 1_555
H28_2 C43_2 1_555 1_555
C44_2 H29_2 1_555 1_555
C45_2 C44_2 1_555 1_555
C46_2 C45_2 1_555 1_555
H30_2 C46_2 1_555 1_555
C47_2 C46_2 1_555 1_555
H31_2 C47_2 1_555 1_555
C48_2 N7_2 1_555 1_555
H32_2 C51_2 1_555 1_555
C52_2 C45_2 1_555 1_555
C56_2 C57_2 1_555 1_555
C57_2 C58_2 1_555 1_555
C58_2 H36_2 1_555 1_555
C59_2 C48_2 1_555 1_555
C60_2 C59_2 1_555 1_555
H37_2 C60_2 1_555 1_555
C61_2 C60_2 1_555 1_555
H38_2 C61_2 1_555 1_555
C62_2 C57_2 1_555 1_555
H39_2 C62_2 1_555 1_555
C63_2 H40_2 1_555 1_555
C64_2 C63_2 1_555 1_555
C65_2 C64_2 1_555 1_555
H41_2 C65_2 1_555 1_555
C66_2 C65_2 1_555 1_555
H42_2 C66_2 1_555 1_555
C67_2 N8_2 1_555 1_555
C68_2 O9_2 1_555 1_555
C69_2 C68_2 1_555 1_555
C70_2 C69_2 1_555 1_555
H43_2 C70_2 1_555 1_555
C71_2 C64_2 1_555 1_555
C72_2 C71_2 1_555 1_555
H44_2 C72_2 1_555 1_555
C73_2 C72_2 1_555 1_555
H45_2 C73_2 1_555 1_555
C74_2 C69_2 1_555 1_555
H46_2 C74_2 1_555 1_555
C75_2 C76_2 1_555 1_555
C76_2 C77_2 1_555 1_555
C77_2 H47_2 1_555 1_555
C78_2 C67_2 1_555 1_555
C79_2 C78_2 1_555 1_555
H48_2 C79_2 1_555 1_555
C80_2 C79_2 1_555 1_555
C81_2 C76_2 1_555 1_555
H50_2 C81_2 1_555 1_555
Cd4 O7_2 1_555 1_555
Cd8_2 O8_2 1_555 1_555
Cd10_2 O11_2 1_555 1_555
N9_2 Cd1_2 1_555 1_555
O17_2 Cd7_2 1_555 1_555
O18_2 Cd7_2 1_555 1_555
O19_2 Cd9_2 1_555 1_555
Cd7_2 O5_2 1_555 1_555
Cd9_2 O18_2 1_555 1_555
O10_2 C68_2 1_555 1_555
O11_2 Cd8_2 1_555 1_555
O12_2 Cd10_2 1_555 1_555
C4_2 C5_2 1_555 1_555
C18_2 C19_2 1_555 1_555
C20_2 C21_2 1_555 1_555
C28_2 C29_2 1_555 1_555
C32_2 C33_2 1_555 1_555
C39_2 C40_2 1_555 1_555
C42_2 C43_2 1_555 1_555
C47_2 C48_2 1_555 1_555
C51_2 C52_2 1_555 1_555
C58_2 C59_2 1_555 1_555
C61_2 C62_2 1_555 1_555
C66_2 C67_2 1_555 1_555
C70_2 C71_2 1_555 1_555
C73_2 C74_2 1_555 1_555
C77_2 C78_2 1_555 1_555
C80_2 C81_2 1_555 1_555
O13_2 H51_2 1_555 1_555
O13_2 H52_2 1_555 1_555
C30_2 O2_2 1_555 1_555
C31_2 C30_2 1_555 1_555
H22_2 C34_2 1_555 1_555
C35_2 C34_2 1_555 1_555
H23_2 C35_2 1_555 1_555
C36_2 C31_2 1_555 1_555
H24_2 C36_2 1_555 1_555
C35_2 C36_2 1_555 1_555
O17_2 C56_3 1_555 1_555
O18_2 C75_3 1_555 1_555
O19_2 C75_3 1_555 1_555
C75_3 C76_3 1_555 1_555
C81_3 C76_3 1_555 1_555
H50_3 C81_3 1_555 1_555
N1_3 C1_3 1_555 1_555
N9 C12_3 1_555 1_555
N4_3 C9_3 1_555 1_555
N10_2 C22_3 1_555 1_555
N6_3 C25_3 1_555 1_555
N8_3 C63_3 1_555 1_555
O3_3 C37_3 1_555 1_555
O4_3 C37_3 1_555 1_555
C1_3 C2_3 1_555 1_555
C2_3 H1_3 1_555 1_555
C3_3 C2_3 1_555 1_555
C4_3 C3_3 1_555 1_555
H2_3 C4_3 1_555 1_555
C5_3 N1_3 1_555 1_555
C6_3 C3_3 1_555 1_555
C7_3 C6_3 1_555 1_555
H3_3 C7_3 1_555 1_555
C8_3 C7_3 1_555 1_555
H4_3 C8_3 1_555 1_555
C9_3 C8_3 1_555 1_555
C10_3 C9_3 1_555 1_555
H5_3 C10_3 1_555 1_555
C11_3 C6_3 1_555 1_555
H6_3 C11_3 1_555 1_555
C12_3 H7_3 1_555 1_555
C13_3 C12_3 1_555 1_555
H8_3 C13_3 1_555 1_555
C14_3 C5_3 1_555 1_555
C15_3 C14_3 1_555 1_555
H9_3 C15_3 1_555 1_555
C16_3 N9 1_555 1_555
C17_3 H11_3 1_555 1_555
C18_3 C17_3 1_555 1_555
H12_3 C18_3 1_555 1_555
C19_3 C1_3 1_555 1_555
C22_3 N4_3 1_555 1_555
H15_3 C22_3 1_555 1_555
C23_3 N10_2 1_555 1_555
H16_3 C23_3 1_555 1_555
C24_3 N4_3 1_555 1_555
H17_3 C24_3 1_555 1_555
C25_3 H18_3 1_555 1_555
C26_3 C25_3 1_555 1_555
C27_3 C26_3 1_555 1_555
H19_3 C27_3 1_555 1_555
C28_3 C27_3 1_555 1_555
H20_3 C28_3 1_555 1_555
C29_3 N6_3 1_555 1_555
C33_3 C26_3 1_555 1_555
C34_3 C33_3 1_555 1_555
H22_3 C34_3 1_555 1_555
C35_3 C34_3 1_555 1_555
H23_3 C35_3 1_555 1_555
C37_3 C38_3 1_555 1_555
C38_3 C39_3 1_555 1_555
C39_3 H25_3 1_555 1_555
C40_3 C29_3 1_555 1_555
C41_3 C40_3 1_555 1_555
H26_3 C41_3 1_555 1_555
C42_3 C41_3 1_555 1_555
H27_3 C42_3 1_555 1_555
C43_3 C38_3 1_555 1_555
H28_3 C43_3 1_555 1_555
C63_3 H40_3 1_555 1_555
C64_3 C63_3 1_555 1_555
C65_3 C64_3 1_555 1_555
H41_3 C65_3 1_555 1_555
C66_3 C65_3 1_555 1_555
H42_3 C66_3 1_555 1_555
C67_3 N8_3 1_555 1_555
C71_3 C64_3 1_555 1_555
C78_3 C67_3 1_555 1_555
C79_3 C78_3 1_555 1_555
H48_3 C79_3 1_555 1_555
C80_3 C79_3 1_555 1_555
H49_3 C80_3 1_555 1_555
Cd8_2 O3_3 1_555 1_555
Cd10_2 O3_3 1_555 1_555
O4_3 Cd10_2 1_555 1_555
C4_3 C5_3 1_555 1_555
C10_3 C11_3 1_555 1_555
C13_3 C14_3 1_555 1_555
C15_3 C16_3 1_555 1_555
C18_3 C19_3 1_555 1_555
C23_3 C24_3 1_555 1_555
C28_3 C29_3 1_555 1_555
C39_3 C40_3 1_555 1_555
C42_3 C43_3 1_555 1_555
C66_3 C67_3 1_555 1_555
C77_3 C78_3 1_555 1_555
Cd4 O1_3 1_555 1_555
Cd8_2 O1_3 1_555 1_555
Cd10_2 N3_3 1_555 1_555
N7_3 C44_3 1_555 1_555
O1_3 C30_3 1_555 1_555
O2_3 Cd4 1_555 1_555
O5_3 Cd4 1_555 1_555
O6 Cd4 1_555 1_555
O9_3 Cd8_2 1_555 1_555
O10_3 Cd10_2 1_555 1_555
O13_3 Cd10_2 1_555 1_555
H13_3 C20_3 1_555 1_555
C21_3 N3_3 1_555 1_555
H14_3 C21_3 1_555 1_555
C30_3 O2_3 1_555 1_555
C31_3 C30_3 1_555 1_555
C32_3 C31_3 1_555 1_555
H21_3 C32_3 1_555 1_555
C36_3 C31_3 1_555 1_555
H24_3 C36_3 1_555 1_555
C44_3 H29_3 1_555 1_555
C45_3 C44_3 1_555 1_555
C46_3 C45_3 1_555 1_555
H30_3 C46_3 1_555 1_555
C47_3 C46_3 1_555 1_555
H31_3 C47_3 1_555 1_555
C48_3 N7_3 1_555 1_555
C49 O5_3 1_555 1_555
C50 C49 1_555 1_555
C51_3 C50 1_555 1_555
H32_3 C51_3 1_555 1_555
C52_3 C45_3 1_555 1_555
C53 C52_3 1_555 1_555
H33 C53 1_555 1_555
C54 C53 1_555 1_555
H34 C54 1_555 1_555
C55 C50 1_555 1_555
H35 C55 1_555 1_555
C57_3 C58_3 1_555 1_555
C58_3 H36_3 1_555 1_555
C59_3 C48_3 1_555 1_555
C60_3 C59_3 1_555 1_555
H37_3 C60_3 1_555 1_555
C61_3 C60_3 1_555 1_555
H38_3 C61_3 1_555 1_555
C68_3 O9_3 1_555 1_555
C69_3 C68_3 1_555 1_555
C70_3 C69_3 1_555 1_555
H44_3 C72_3 1_555 1_555
C73_3 C72_3 1_555 1_555
H45_3 C73_3 1_555 1_555
C74_3 C69_3 1_555 1_555
H46_3 C74_3 1_555 1_555
Cd8_2 O5_3 1_555 1_555
O6 C49 1_555 1_555
O10_3 C68_3 1_555 1_555
C20_3 C21_3 1_555 1_555
C47_3 C48_3 1_555 1_555
C51_3 C52_3 1_555 1_555
C54 C55 1_555 1_555
C58_3 C59_3 1_555 1_555
C73_3 C74_3 1_555 1_555
O13_3 H51_3 1_555 1_555
O13_3 H52_3 1_555 1_555
N1_4 C1_4 1_555 1_555
N9_2 C12_4 1_555 1_555
N4_4 C9_4 1_555 1_555
N10 C22_4 1_555 1_555
N6_4 C25_4 1_555 1_555
N8_4 C63_4 1_555 1_555
O3_4 C37_4 1_555 1_555
O4_4 C37_4 1_555 1_555
C1_4 C2_4 1_555 1_555
C2_4 H1_4 1_555 1_555
C3_4 C2_4 1_555 1_555
C4_4 C3_4 1_555 1_555
H2_4 C4_4 1_555 1_555
C5_4 N1_4 1_555 1_555
C6_4 C3_4 1_555 1_555
C7_4 C6_4 1_555 1_555
H3_4 C7_4 1_555 1_555
C8_4 C7_4 1_555 1_555
H4_4 C8_4 1_555 1_555
C9_4 C8_4 1_555 1_555
C10_4 C9_4 1_555 1_555
H5_4 C10_4 1_555 1_555
C11_4 C6_4 1_555 1_555
H6_4 C11_4 1_555 1_555
C12_4 H7_4 1_555 1_555
C13_4 C12_4 1_555 1_555
H8_4 C13_4 1_555 1_555
C14_4 C5_4 1_555 1_555
C15_4 C14_4 1_555 1_555
H9_4 C15_4 1_555 1_555
C16_4 N9_2 1_555 1_555
C17_4 H11_4 1_555 1_555
C18_4 C17_4 1_555 1_555
H12_4 C18_4 1_555 1_555
C19_4 C1_4 1_555 1_555
C22_4 N4_4 1_555 1_555
H15_4 C22_4 1_555 1_555
C23_4 N10 1_555 1_555
H16_4 C23_4 1_555 1_555
C24_4 N4_4 1_555 1_555
H17_4 C24_4 1_555 1_555
C25_4 H18_4 1_555 1_555
C26_4 C25_4 1_555 1_555
C27_4 C26_4 1_555 1_555
H19_4 C27_4 1_555 1_555
C28_4 C27_4 1_555 1_555
H20_4 C28_4 1_555 1_555
C29_4 N6_4 1_555 1_555
C33_4 C26_4 1_555 1_555
C34_4 C33_4 1_555 1_555
H22_4 C34_4 1_555 1_555
C35_4 C34_4 1_555 1_555
H23_4 C35_4 1_555 1_555
C37_4 C38_4 1_555 1_555
C38_4 C39_4 1_555 1_555
C39_4 H25_4 1_555 1_555
C40_4 C29_4 1_555 1_555
C41_4 C40_4 1_555 1_555
H26_4 C41_4 1_555 1_555
C42_4 C41_4 1_555 1_555
H27_4 C42_4 1_555 1_555
C43_4 C38_4 1_555 1_555
H28_4 C43_4 1_555 1_555
C63_4 H40_4 1_555 1_555
C64_4 C63_4 1_555 1_555
C65_4 C64_4 1_555 1_555
H41_4 C65_4 1_555 1_555
C66_4 C65_4 1_555 1_555
H42_4 C66_4 1_555 1_555
C67_4 N8_4 1_555 1_555
C71_4 C64_4 1_555 1_555
C78_4 C67_4 1_555 1_555
C79_4 C78_4 1_555 1_555
H48_4 C79_4 1_555 1_555
C80_4 C79_4 1_555 1_555
H49_4 C80_4 1_555 1_555
Cd8 O3_4 1_555 1_555
Cd10 O3_4 1_555 1_555
O4_4 Cd10 1_555 1_555
C4_4 C5_4 1_555 1_555
C10_4 C11_4 1_555 1_555
C13_4 C14_4 1_555 1_555
C15_4 C16_4 1_555 1_555
C18_4 C19_4 1_555 1_555
C23_4 C24_4 1_555 1_555
C28_4 C29_4 1_555 1_555
C39_4 C40_4 1_555 1_555
C42_4 C43_4 1_555 1_555
C66_4 C67_4 1_555 1_555
C77_4 C78_4 1_555 1_555
Cd6 O1_4 1_555 1_555
Cd8 O1_4 1_555 1_555
Cd10 N3_4 1_555 1_555
N7_4 C44_4 1_555 1_555
O1_4 C30_4 1_555 1_555
O2_4 Cd6 1_555 1_555
O5_4 Cd6 1_555 1_555
O6_2 Cd6 1_555 1_555
O9_4 Cd8 1_555 1_555
O10_4 Cd10 1_555 1_555
O13_4 Cd10 1_555 1_555
H13_4 C20_4 1_555 1_555
C21_4 N3_4 1_555 1_555
H14_4 C21_4 1_555 1_555
C30_4 O2_4 1_555 1_555
C31_4 C30_4 1_555 1_555
C32_4 C31_4 1_555 1_555
H21_4 C32_4 1_555 1_555
C36_4 C31_4 1_555 1_555
H24_4 C36_4 1_555 1_555
C44_4 H29_4 1_555 1_555
C45_4 C44_4 1_555 1_555
C46_4 C45_4 1_555 1_555
H30_4 C46_4 1_555 1_555
C47_4 C46_4 1_555 1_555
H31_4 C47_4 1_555 1_555
C48_4 N7_4 1_555 1_555
C49_2 O5_4 1_555 1_555
C50_2 C49_2 1_555 1_555
C51_4 C50_2 1_555 1_555
H32_4 C51_4 1_555 1_555
C52_4 C45_4 1_555 1_555
C53_2 C52_4 1_555 1_555
H33_2 C53_2 1_555 1_555
C54_2 C53_2 1_555 1_555
H34_2 C54_2 1_555 1_555
C55_2 C50_2 1_555 1_555
H35_2 C55_2 1_555 1_555
C57_4 C58_4 1_555 1_555
C58_4 H36_4 1_555 1_555
C59_4 C48_4 1_555 1_555
C60_4 C59_4 1_555 1_555
H37_4 C60_4 1_555 1_555
C61_4 C60_4 1_555 1_555
H38_4 C61_4 1_555 1_555
C68_4 O9_4 1_555 1_555
C69_4 C68_4 1_555 1_555
C70_4 C69_4 1_555 1_555
H44_4 C72_4 1_555 1_555
C73_4 C72_4 1_555 1_555
H45_4 C73_4 1_555 1_555
C74_4 C69_4 1_555 1_555
H46_4 C74_4 1_555 1_555
Cd8 O5_4 1_555 1_555
O6_2 C49_2 1_555 1_555
O10_4 C68_4 1_555 1_555
C20_4 C21_4 1_555 1_555
C47_4 C48_4 1_555 1_555
C51_4 C52_4 1_555 1_555
C54_2 C55_2 1_555 1_555
C58_4 C59_4 1_555 1_555
C73_4 C74_4 1_555 1_555
O13_4 H51_4 1_555 1_555
O13_4 H52_4 1_555 1_555
O17 C56_4 1_555 1_555
O18 C75_4 1_555 1_555
O19 C75_4 1_555 1_555
C75_4 C76_4 1_555 1_555
C81_4 C76_4 1_555 1_555
H50_4 C81_4 1_555 1_555
C50_3 C49_3 1_555 1_555
H33_3 C53_3 1_555 1_555
C54_3 C53_3 1_555 1_555
H34_3 C54_3 1_555 1_555
C55_3 C50_3 1_555 1_555
H35_3 C55_3 1_555 1_555
O6_3 C49_3 1_555 1_555
C54_3 C55_3 1_555 1_555
C50_4 C49_4 1_555 1_555
H33_4 C53_4 1_555 1_555
C54_4 C53_4 1_555 1_555
H34_4 C54_4 1_555 1_555
C55_4 C50_4 1_555 1_555
H35_4 C55_4 1_555 1_555
O6_4 C49_4 1_555 1_555
C54_4 C55_4 1_555 1_555

#END
