
###############################################################################
#
# This file contains modified crystal structure data generated from the
# MOF subset of the Cambridge Structural Database (CSD) v543 
# hosted by the Cambridge Crystallographic Data Centre (CCDC).
#
# This work is licensed under the Creative Commons
# Attribution-NonCommercial-ShareAlike 4.0 International License.
# To view a copy of this license, visit
# http://creativecommons.org/licenses/by-nc-sa/4.0/
# or send a letter to
# Creative Commons, PO Box 1866, Mountain View, CA 94042, USA.
#
# CIF created using the CSD Python API on 29 September 2022
# The structure has been converted into the P1 space group
# The structure has a 3D framework
# The original CSD entry BOZFIH is in the monoclinic crystal system
# The framework has been calculated to contain at least 10.0% void space
# The void calculation uses a probe of radius 1.32A, grid spacing 0.4
#
###############################################################################

data_BOZFIH
_chemical_formula_moiety         '(C168 H100 N20 O48 Zn12)n'
_symmetry_cell_setting           triclinic
_symmetry_space_group_name_H-M   'P 1'
_symmetry_Int_Tables_number      1
_space_group_name_Hall           'P 1'
loop_
_symmetry_equiv_pos_site_id
_symmetry_equiv_pos_as_xyz
1 x,y,z
_cell_length_a                   10.0627(5)
_cell_length_b                   23.0608(14)
_cell_length_c                   26.8432(14)
_cell_angle_alpha                90
_cell_angle_beta                 95.116(2)
_cell_angle_gamma                90
_cell_volume                     6204.25
loop_
_atom_site_label
_atom_site_type_symbol
_atom_site_fract_x
_atom_site_fract_y
_atom_site_fract_z
Zn7 Zn 0.03815(14) 0.24475(7) 0.18301(5)
Zn1 Zn 0.34896(13) 0.19271(7) 0.27196(5)
Zn3 Zn 0.35673(13) 0.50827(7) 0.00810(5)
N4 N 0.0608(10) 0.1696(5) 0.1424(4)
O1 O 0.3045(7) 0.2387(4) 0.2073(3)
O2 O 0.1791(7) 0.2969(3) 0.1588(3)
O3 O 0.3944(8) 0.4400(4) 0.0549(3)
O4 O 0.6121(7) 0.4281(4) 0.0435(3)
O5 O 0.8889(7) 0.2943(4) 0.1577(3)
O6 O 0.7834(7) 0.2156(4) 0.1779(3)
O7 O 0.1733(7) 0.1622(3) 0.2914(3)
O8 O 0.0322(6) 0.2279(3) 0.2530(3)
O11 O 0.0449(7) 0.0593(3) 0.4392(3)
O13 O 0.1681(6) 0.5254(3) 0.0188(3)
H2 H 0.1539 0.5160 0.0485
C1 C 0.2921(11) 0.2797(6) 0.1757(4)
C2 C 0.5083(11) 0.4168(6) 0.0630(4)
C3 C 0.7813(11) 0.2667(6) 0.1618(4)
C4 C 0.4113(9) 0.3035(5) 0.1551(4)
C5 C 0.4036(9) 0.3468(5) 0.1211(4)
H3 H 0.3215 0.3638 0.1114
C6 C 0.5182(10) 0.3662(5) 0.1003(4)
C7 C 0.6436(10) 0.3434(5) 0.1126(4)
H4 H 0.7187 0.3573 0.0987
C8 C 0.6511(10) 0.2976(5) 0.1477(4)
C9 C 0.5367(10) 0.2786(5) 0.1685(4)
H5 H 0.5437 0.2488 0.1919
C10 C 0.0593(9) 0.1857(5) 0.2829(4)
H8 H 0.0794 0.1149 0.3649
C28 C 0.1602(14) 0.0125(7) 0.0725(5)
C29 C 0.2026(12) 0.0124(6) 0.0231(5)
H16 H 0.2032 0.0458 0.0038
C33 C 0.1340(13) 0.1696(6) 0.1042(4)
H18 H 0.1674 0.2045 0.0933
C34 C 0.1639(14) 0.1168(6) 0.0790(5)
H19 H 0.2134 0.1180 0.0514
C35 C 0.1213(15) 0.0668(6) 0.0948(5)
C36 C 0.0514(14) 0.0656(6) 0.1344(5)
H20 H 0.0195 0.0306 0.1459
C37 C 0.0258(13) 0.1184(6) 0.1591(5)
Zn8 Zn 0.14327(13) 0.00827(7) 0.49190(5)
N6 N 0.3806(10) 0.1195(5) 0.2272(4)
N7 N 0.3273(10) 0.2677(5) 0.3191(4)
O16 O 0.5572(6) 0.2060(3) 0.2784(3)
O17 O 0.4885(6) 0.1488(3) 0.3376(3)
O18 O 0.4551(7) 0.5593(3) 0.0608(3)
H1 H 0.1175 0.5057 0.9982
H11 H 0.6208 0.0065 0.8176
H14 H 0.4059 0.0306 0.9618
H15 H 0.5210 0.0201 0.8891
Zn9 Zn 0.64327(13) 0.49173(7) 0.99190(5)
O14 O 0.3879(7) 0.5719(4) 0.9565(3)
O19 O 0.3329(7) 0.4510(4) 0.9507(3)
N3 N 0.1484(11) 0.9642(5) 0.0994(4)
N5 N 0.1727(10) 0.7677(5) 0.1809(4)
C30 C 0.2435(14) 0.9579(7) 0.0055(5)
C31 C 0.2332(13) 0.9058(6) 0.0332(5)
H17 H 0.2550 0.8701 0.0201
C32 C 0.1870(14) 0.9108(7) 0.0830(5)
C38 C 0.1517(14) 0.8235(7) 0.1949(5)
H22 H 0.1316 0.8304 0.2275
C39 C 0.1588(14) 0.8713(7) 0.1627(5)
H23 H 0.1491 0.9089 0.1744
C40 C 0.1798(14) 0.8614(7) 0.1146(5)
C41 C 0.2016(14) 0.8072(6) 0.0986(5)
H24 H 0.2201 0.8000 0.0659
C42 C 0.1953(13) 0.7624(6) 0.1332(5)
H25 H 0.2082 0.7249 0.1216
Zn5 Zn 0.15104(13) 0.69271(7) 0.22804(5)
N1 N 0.5236(11) 0.9300(5) 0.8307(4)
N2 N 0.6194(10) 0.8805(5) 0.7728(4)
C19 C 0.5342(12) 0.8786(6) 0.8079(5)
H9 H 0.4874 0.8456 0.8157
C20 C 0.6647(14) 0.9354(7) 0.7728(5)
H10 H 0.7254 0.9497 0.7517
C21 C 0.6062(14) 0.9676(6) 0.8095(5)
C22 C 0.4432(14) 0.9380(6) 0.8725(5)
C23 C 0.3559(13) 0.8945(6) 0.8836(5)
H12 H 0.3400 0.8617 0.8639
C24 C 0.2921(13) 0.9052(6) 0.9284(5)
H13 H 0.2341 0.8771 0.9387
C25 C 0.3113(14) 0.9542(6) 0.9570(5)
C26 C 0.3950(13) 0.9970(6) 0.9426(5)
C27 C 0.4649(13) 0.9913(6) 0.8994(5)
Zn6 Zn 0.65104(13) 0.80729(7) 0.72804(5)
O12 O 0.8329(7) 0.0490(4) 0.4507(3)
C11 C 0.5790(11) 0.1719(6) 0.3159(4)
C12 C 0.9258(13) 0.0662(6) 0.4287(4)
C13 C 0.9542(10) 0.1639(5) 0.3155(4)
C14 C 0.8218(9) 0.1787(5) 0.3013(3)
H6 H 0.7992 0.2023 0.2737
C15 C 0.7239(10) 0.1565(5) 0.3304(4)
C16 C 0.7575(9) 0.1239(5) 0.3718(4)
H7 H 0.6915 0.1133 0.3922
C17 C 0.8865(10) 0.1063(5) 0.3842(4)
C18 C 0.9913(10) 0.1260(5) 0.3567(4)
H21 H 0.9825 0.1169 0.1882
Zn10 Zn 0.85673(13) 0.99173(7) 0.50810(5)
O10 O 0.0115(6) 0.6488(3) 0.1624(3)
O13_2 O 0.3319(6) 0.0254(3) 0.4812(3)
H1_2 H 0.3825 0.0057 0.5018
H2_2 H 0.3461 0.0160 0.4515
O14_2 O 0.1121(7) 0.0719(4) 0.5435(3)
Zn2 Zn 0.46185(14) 0.74475(7) 0.31699(5)
N3_2 N 0.3516(11) 0.4642(5) 0.4006(4)
N4_2 N 0.4392(10) 0.6696(5) 0.3576(4)
O1_2 O 0.1955(7) 0.7387(4) 0.2927(3)
O2_2 O 0.3209(7) 0.7969(3) 0.3412(3)
O3_2 O 0.1056(8) 0.9400(4) 0.4451(3)
O7_2 O 0.3267(7) 0.6622(3) 0.2086(3)
O8_2 O 0.4678(6) 0.7279(3) 0.2470(3)
O9 O 0.9428(6) 0.7060(3) 0.2216(3)
O12_2 O 0.6671(7) 0.5490(4) 0.0493(3)
C1_2 C 0.2079(11) 0.7797(6) 0.3243(4)
C4_2 C 0.0887(9) 0.8035(5) 0.3449(4)
C5_2 C 0.0964(9) 0.8468(5) 0.3789(4)
H3_2 H 0.1785 0.8638 0.3886
C10_2 C 0.4407(9) 0.6857(5) 0.2171(4)
C11_2 C 0.9210(11) 0.6719(6) 0.1841(4)
C12_2 C 0.5742(13) 0.5662(6) 0.0713(4)
C13_2 C 0.5458(10) 0.6639(5) 0.1845(4)
C14_2 C 0.6782(9) 0.6787(5) 0.1987(3)
H6_2 H 0.7008 0.7023 0.2263
C15_2 C 0.7761(10) 0.6565(5) 0.1696(4)
C16_2 C 0.7425(9) 0.6239(5) 0.1282(4)
H7_2 H 0.8085 0.6133 0.1078
C17_2 C 0.6135(10) 0.6063(5) 0.1158(4)
C18_2 C 0.5087(10) 0.6260(5) 0.1433(4)
H8_2 H 0.4206 0.6149 0.1351
H9_2 H 0.0126 0.3456 0.6843
C22_2 C 0.0568(14) 0.4380(6) 0.6275(5)
C23_2 C 0.1441(13) 0.3945(6) 0.6164(5)
H12_2 H 0.1600 0.3617 0.6361
C24_2 C 0.2079(13) 0.4052(6) 0.5716(5)
H13_2 H 0.2659 0.3771 0.5613
C25_2 C 0.1887(14) 0.4542(6) 0.5430(5)
C26_2 C 0.1050(13) 0.4970(6) 0.5574(5)
H14_2 H 0.0941 0.5306 0.5382
C27_2 C 0.0351(13) 0.4913(6) 0.6006(5)
C28_2 C 0.3398(14) 0.5125(7) 0.4275(5)
C29_2 C 0.2974(12) 0.5124(6) 0.4769(5)
H16_2 H 0.2968 0.5458 0.4962
C30_2 C 0.2565(14) 0.4579(7) 0.4945(5)
C31_2 C 0.2668(13) 0.4058(6) 0.4668(5)
H17_2 H 0.2450 0.3701 0.4799
C32_2 C 0.3130(14) 0.4108(7) 0.4170(5)
C33_2 C 0.3660(13) 0.6696(6) 0.3958(4)
H18_2 H 0.3326 0.7045 0.4067
C34_2 C 0.3361(14) 0.6168(6) 0.4210(5)
H19_2 H 0.2866 0.6180 0.4486
C35_2 C 0.3787(15) 0.5668(6) 0.4052(5)
C36_2 C 0.4486(14) 0.5656(6) 0.3656(5)
H20_2 H 0.4805 0.5306 0.3541
C37_2 C 0.4742(13) 0.6184(6) 0.3409(5)
H21_2 H 0.5175 0.6169 0.3118
C38_2 C 0.3483(14) 0.3235(7) 0.3051(5)
H22_2 H 0.3684 0.3304 0.2725
C39_2 C 0.3412(14) 0.3713(7) 0.3373(5)
H23_2 H 0.3509 0.4089 0.3256
C40_2 C 0.3202(14) 0.3614(7) 0.3854(5)
C41_2 C 0.2984(14) 0.3072(6) 0.4014(5)
H24_2 H 0.2799 0.3000 0.4341
C42_2 C 0.3047(13) 0.2624(6) 0.3668(5)
H25_2 H 0.2918 0.2249 0.3784
N6_2 N 0.1194(10) 0.6195(5) 0.2728(4)
O15 O 0.6111(7) 0.7943(4) 0.3423(3)
O19_2 O 0.1671(7) 0.9510(4) 0.5493(3)
N1_2 N 0.9764(11) 0.4300(5) 0.6693(4)
N2_2 N 0.8806(10) 0.3805(5) 0.7272(4)
O4_2 O 0.8879(7) 0.9281(4) 0.4565(3)
O6_2 O 0.7166(7) 0.7156(4) 0.3221(3)
C2_2 C 0.9917(11) 0.9168(6) 0.4370(4)
C3_2 C 0.7187(11) 0.7667(6) 0.3382(4)
C6_2 C 0.9818(10) 0.8662(5) 0.3997(4)
C7_2 C 0.8564(10) 0.8434(5) 0.3874(4)
H4_2 H 0.7813 0.8573 0.4013
C8_2 C 0.8489(10) 0.7976(5) 0.3523(4)
C9_2 C 0.9633(10) 0.7786(5) 0.3315(4)
H5_2 H 0.9563 0.7488 0.3081
C19_2 C 0.9658(12) 0.3786(6) 0.6921(5)
C20_2 C 0.8353(14) 0.4354(7) 0.7272(5)
H10_2 H 0.7746 0.4497 0.7483
C21_2 C 0.8938(14) 0.4676(6) 0.6905(5)
H11_2 H 0.8792 0.5065 0.6824
H15_2 H 0.9790 0.5201 0.6109
Zn6_2 Zn 0.84896(13) 0.30729(7) 0.77196(5)
O9_2 O 0.4428(6) 0.7940(3) 0.7216(3)
O10_2 O 0.5115(6) 0.8512(3) 0.6624(3)
C11_3 C 0.4210(11) 0.8281(6) 0.6841(4)
C12_3 C 0.0742(13) 0.9338(6) 0.5713(4)
C13_3 C 0.0458(10) 0.8361(5) 0.6845(4)
C14_3 C 0.1782(9) 0.8213(5) 0.6987(3)
H6_3 H 0.2008 0.7977 0.7263
C15_3 C 0.2761(10) 0.8435(5) 0.6696(4)
C16_3 C 0.2425(9) 0.8761(5) 0.6282(4)
H7_3 H 0.3085 0.8867 0.6078
C17_3 C 0.1135(10) 0.8937(5) 0.6158(4)
C18_3 C 0.0087(10) 0.8740(5) 0.6433(4)
H21_3 H 0.0175 0.8831 0.8118
O15_2 O 0.1111(7) 0.7057(4) 0.8423(3)
N1_3 N 0.4764(11) 0.0700(5) 0.1693(4)
C19_3 C 0.4658(12) 0.1214(6) 0.1921(5)
H9_3 H 0.5126 0.1544 0.1843
C20_3 C 0.3353(14) 0.0646(7) 0.2272(5)
H10_3 H 0.2746 0.0503 0.2483
C21_3 C 0.3938(14) 0.0324(6) 0.1905(5)
C22_3 C 0.5568(14) 0.0620(6) 0.1275(5)
C23_3 C 0.6441(13) 0.1055(6) 0.1164(5)
H12_3 H 0.6600 0.1383 0.1361
C24_3 C 0.7079(13) 0.0948(6) 0.0716(5)
H13_3 H 0.7659 0.1229 0.0613
C25_3 C 0.6887(14) 0.0458(6) 0.0430(5)
C26_3 C 0.6050(13) 0.0030(6) 0.0574(5)
C27_3 C 0.5351(13) 0.0087(6) 0.1006(5)
N3_3 N 0.8516(11) 0.0358(5) 0.9006(4)
N5_2 N 0.8273(10) 0.2323(5) 0.8191(4)
C30_3 C 0.7565(14) 0.0421(7) 0.9945(5)
C31_3 C 0.7668(13) 0.0942(6) 0.9668(5)
H17_3 H 0.7450 0.1299 0.9799
C32_3 C 0.8130(14) 0.0892(7) 0.9170(5)
C38_3 C 0.8483(14) 0.1765(7) 0.8051(5)
H22_3 H 0.8684 0.1696 0.7725
C39_3 C 0.8412(14) 0.1287(7) 0.8373(5)
H23_3 H 0.8509 0.0911 0.8256
C40_3 C 0.8202(14) 0.1386(7) 0.8854(5)
C41_3 C 0.7984(14) 0.1928(6) 0.9014(5)
H24_3 H 0.7799 0.2000 0.9341
C42_3 C 0.8047(13) 0.2376(6) 0.8668(5)
H25_3 H 0.7918 0.2751 0.8784
H1_3 H 0.8825 0.4943 0.0018
H11_3 H 0.3792 0.9935 0.1824
H14_3 H 0.5941 0.9694 0.0382
H15_3 H 0.4790 0.9799 0.1109
Zn2_2 Zn 0.96185(14) 0.75525(7) 0.81699(5)
N4_3 N 0.9392(10) 0.8304(5) 0.8576(4)
O1_3 O 0.6955(7) 0.7613(4) 0.7927(3)
O2_3 O 0.8209(7) 0.7031(3) 0.8412(3)
O3_3 O 0.6056(8) 0.5600(4) 0.9451(3)
O6_3 O 0.2166(7) 0.7844(4) 0.8221(3)
O7_3 O 0.8267(7) 0.8378(3) 0.7086(3)
O8_3 O 0.9678(6) 0.7721(3) 0.7470(3)
O11_2 O 0.9551(7) 0.9407(3) 0.5608(3)
O13_3 O 0.8319(6) 0.4746(3) 0.9812(3)
H2_3 H 0.8461 0.4840 0.9515
C1_3 C 0.7079(11) 0.7203(6) 0.8243(4)
C2_3 C 0.4917(11) 0.5832(6) 0.9370(4)
C3_3 C 0.2187(11) 0.7333(6) 0.8382(4)
C4_3 C 0.5887(9) 0.6965(5) 0.8449(4)
C5_3 C 0.5964(9) 0.6532(5) 0.8789(4)
H3_3 H 0.6785 0.6362 0.8886
C6_3 C 0.4818(10) 0.6338(5) 0.8997(4)
C7_3 C 0.3564(10) 0.6566(5) 0.8874(4)
H4_3 H 0.2813 0.6427 0.9013
C8_3 C 0.3489(10) 0.7024(5) 0.8523(4)
C9_3 C 0.4633(10) 0.7214(5) 0.8315(4)
H5_3 H 0.4563 0.7512 0.8081
C10_3 C 0.9407(9) 0.8143(5) 0.7171(4)
H8_3 H 0.9206 0.8851 0.6351
C28_3 C 0.8398(14) 0.9875(7) 0.9275(5)
C29_3 C 0.7974(12) 0.9876(6) 0.9769(5)
H16_3 H 0.7968 0.9542 0.9962
C33_3 C 0.8660(13) 0.8304(6) 0.8958(4)
H18_3 H 0.8326 0.7955 0.9067
C34_3 C 0.8361(14) 0.8832(6) 0.9210(5)
H19_3 H 0.7866 0.8820 0.9486
C35_3 C 0.8787(15) 0.9332(6) 0.9052(5)
C36_3 C 0.9486(14) 0.9344(6) 0.8656(5)
H20_3 H 0.9805 0.9694 0.8541
C37_3 C 0.9742(13) 0.8816(6) 0.8409(5)
N7_2 N 0.6727(10) 0.7323(5) 0.6809(4)
O18_2 O 0.5449(7) 0.4407(3) 0.9392(3)
N1_4 N 0.0236(11) 0.5700(5) 0.3307(4)
O5_2 O 0.3889(7) 0.2057(4) 0.6577(3)
O6_4 O 0.2834(7) 0.2844(4) 0.6779(3)
C2_4 C 0.0083(11) 0.0832(6) 0.5630(4)
C3_4 C 0.2813(11) 0.2333(6) 0.6618(4)
C6_4 C 0.0182(10) 0.1338(5) 0.6003(4)
C7_4 C 0.1436(10) 0.1566(5) 0.6126(4)
H4_4 H 0.2187 0.1427 0.5987
C8_4 C 0.1511(10) 0.2024(5) 0.6477(4)
C9_4 C 0.0367(10) 0.2214(5) 0.6685(4)
H5_4 H 0.0437 0.2512 0.6919
C19_4 C 0.0342(12) 0.6214(6) 0.3079(5)
C20_4 C 0.1647(14) 0.5646(7) 0.2728(5)
H10_4 H 0.2254 0.5503 0.2517
C21_4 C 0.1062(14) 0.5324(6) 0.3095(5)
H11_4 H 0.1208 0.4935 0.3176
H15_4 H 0.0210 0.4799 0.3891
Zn7_2 Zn 0.53815(14) 0.25525(7) 0.68301(5)
O16_2 O 0.0572(6) 0.2940(3) 0.7784(3)
N3_4 N 0.6484(11) 0.5358(5) 0.5994(4)
N4_4 N 0.5608(10) 0.3304(5) 0.6424(4)
O1_4 O 0.8045(7) 0.2613(4) 0.7073(3)
O2_4 O 0.6791(7) 0.2031(3) 0.6588(3)
O3_4 O 0.8944(8) 0.0600(4) 0.5549(3)
O7_4 O 0.6733(7) 0.3378(3) 0.7914(3)
O8_4 O 0.5322(6) 0.2721(3) 0.7530(3)
C1_4 C 0.7921(11) 0.2203(6) 0.6757(4)
C4_4 C 0.9113(9) 0.1965(5) 0.6551(4)
C5_4 C 0.9036(9) 0.1532(5) 0.6211(4)
H3_4 H 0.8215 0.1362 0.6114
C10_4 C 0.5593(9) 0.3143(5) 0.7829(4)
C11_4 C 0.0790(11) 0.3281(6) 0.8159(4)
C12_4 C 0.4258(13) 0.4338(6) 0.9287(4)
C13_4 C 0.4542(10) 0.3361(5) 0.8155(4)
C14_4 C 0.3218(9) 0.3213(5) 0.8013(3)
H6_4 H 0.2992 0.2977 0.7737
C15_4 C 0.2239(10) 0.3435(5) 0.8304(4)
C16_4 C 0.2575(9) 0.3761(5) 0.8718(4)
H7_4 H 0.1915 0.3867 0.8922
C17_4 C 0.3865(10) 0.3937(5) 0.8842(4)
C18_4 C 0.4913(10) 0.3740(5) 0.8567(4)
H8_4 H 0.5794 0.3851 0.8649
H9_4 H 0.9874 0.6544 0.3157
C22_4 C 0.9432(14) 0.5620(6) 0.3725(5)
C23_4 C 0.8559(13) 0.6055(6) 0.3836(5)
H12_4 H 0.8400 0.6383 0.3639
C24_4 C 0.7921(13) 0.5948(6) 0.4284(5)
H13_4 H 0.7341 0.6229 0.4387
C25_4 C 0.8113(14) 0.5458(6) 0.4570(5)
C26_4 C 0.8950(13) 0.5030(6) 0.4426(5)
H14_4 H 0.9059 0.4694 0.4618
C27_4 C 0.9649(13) 0.5087(6) 0.3994(5)
C28_4 C 0.6602(14) 0.4875(7) 0.5725(5)
C29_4 C 0.7026(12) 0.4876(6) 0.5231(5)
H16_4 H 0.7032 0.4542 0.5038
C30_4 C 0.7435(14) 0.5421(7) 0.5055(5)
C31_4 C 0.7332(13) 0.5942(6) 0.5332(5)
H17_4 H 0.7550 0.6299 0.5201
C32_4 C 0.6870(14) 0.5892(7) 0.5830(5)
C33_4 C 0.6340(13) 0.3304(6) 0.6042(4)
H18_4 H 0.6674 0.2955 0.5933
C34_4 C 0.6639(14) 0.3832(6) 0.5790(5)
H19_4 H 0.7134 0.3820 0.5514
C35_4 C 0.6213(15) 0.4332(6) 0.5948(5)
C36_4 C 0.5514(14) 0.4344(6) 0.6344(5)
H20_4 H 0.5195 0.4694 0.6459
C37_4 C 0.5258(13) 0.3816(6) 0.6591(5)
H21_4 H 0.4825 0.3831 0.6882
C38_4 C 0.6517(14) 0.6765(7) 0.6949(5)
H22_4 H 0.6316 0.6696 0.7275
C39_4 C 0.6588(14) 0.6287(7) 0.6627(5)
H23_4 H 0.6491 0.5911 0.6744
C40_4 C 0.6798(14) 0.6386(7) 0.6146(5)
C41_4 C 0.7016(14) 0.6928(6) 0.5986(5)
H24_4 H 0.7201 0.7000 0.5659
C42_4 C 0.6953(13) 0.7376(6) 0.6332(5)
H25_4 H 0.7082 0.7751 0.6216
O17_2 O 0.9885(6) 0.3512(3) 0.8376(3)
O13_4 O 0.6681(6) 0.9746(3) 0.5188(3)
H1_4 H 0.6175 0.9943 0.4982
H2_4 H 0.6539 0.9840 0.5485
loop_
_geom_bond_atom_site_label_1
_geom_bond_atom_site_label_2
_geom_bond_site_symmetry_1
_geom_bond_site_symmetry_2
Zn1 O1 1_555 1_555
Zn7 N4 1_555 1_555
Zn3 O3 1_555 1_555
N4 C33 1_555 1_555
O1 C1 1_555 1_555
O2 Zn7 1_555 1_555
O3 C2 1_555 1_555
O4 C2 1_555 1_555
O5 C3 1_555 1_555
O6 C3 1_555 1_555
O7 Zn1 1_555 1_555
O8 Zn7 1_555 1_555
O13 Zn3 1_555 1_555
H2 O13 1_555 1_555
C1 O2 1_555 1_555
C2 C6 1_555 1_555
C3 C8 1_555 1_555
C4 C1 1_555 1_555
C5 C4 1_555 1_555
H3 C5 1_555 1_555
C6 C5 1_555 1_555
C7 C6 1_555 1_555
H4 C7 1_555 1_555
C8 C7 1_555 1_555
C9 C4 1_555 1_555
H5 C9 1_555 1_555
C10 O7 1_555 1_555
C28 C29 1_555 1_555
C29 H16 1_555 1_555
C33 H18 1_555 1_555
C34 C33 1_555 1_555
H19 C34 1_555 1_555
C35 C28 1_555 1_555
C36 C35 1_555 1_555
H20 C36 1_555 1_555
C37 N4 1_555 1_555
Zn8 O11 1_555 1_555
N6 Zn1 1_555 1_555
N7 Zn1 1_555 1_555
O16 Zn1 1_555 1_555
O17 Zn1 1_555 1_555
O18 Zn3 1_555 1_555
O8 C10 1_555 1_555
C8 C9 1_555 1_555
C34 C35 1_555 1_555
C36 C37 1_555 1_555
N5 C38 1_555 1_555
C31 C30 1_555 1_555
H17 C31 1_555 1_555
C32 N3 1_555 1_555
C38 H22 1_555 1_555
C39 C38 1_555 1_555
H23 C39 1_555 1_555
C40 C32 1_555 1_555
C41 C40 1_555 1_555
H24 C41 1_555 1_555
C42 N5 1_555 1_555
H25 C42 1_555 1_555
Zn5 N5 1_555 1_555
C31 C32 1_555 1_555
C39 C40 1_555 1_555
C41 C42 1_555 1_555
N1 C19 1_555 1_555
N2 C19 1_555 1_555
C19 H9 1_555 1_555
C20 N2 1_555 1_555
H10 C20 1_555 1_555
C21 N1 1_555 1_555
C22 N1 1_555 1_555
C23 C22 1_555 1_555
H12 C23 1_555 1_555
C24 C23 1_555 1_555
H13 C24 1_555 1_555
C25 C24 1_555 1_555
C26 C25 1_555 1_555
C27 C22 1_555 1_555
Zn6 N2 1_555 1_555
C20 C21 1_555 1_555
C26 C27 1_555 1_555
O16 C11 1_555 1_555
O17 C11 1_555 1_555
O12 C12 1_555 1_555
C11 C15 1_555 1_555
C12 C17 1_555 1_555
C14 C13 1_555 1_555
H6 C14 1_555 1_555
C15 C14 1_555 1_555
C16 C15 1_555 1_555
H7 C16 1_555 1_555
C17 C16 1_555 1_555
C18 C13 1_555 1_555
C17 C18 1_555 1_555
O10 Zn5 1_555 1_555
O13_2 Zn8 1_555 1_555
H1_2 O13_2 1_555 1_555
H2_2 O13_2 1_555 1_555
O14_2 Zn8 1_555 1_555
Zn5 O1_2 1_555 1_555
Zn2 N4_2 1_555 1_555
N3_2 C28_2 1_555 1_555
N4_2 C33_2 1_555 1_555
N7 C38_2 1_555 1_555
O1_2 C1_2 1_555 1_555
O2_2 Zn2 1_555 1_555
O7_2 Zn5 1_555 1_555
O8_2 Zn2 1_555 1_555
O9 C11_2 1_555 1_555
O18 C12_2 1_555 1_555
O12_2 C12_2 1_555 1_555
C1_2 O2_2 1_555 1_555
C4_2 C1_2 1_555 1_555
C5_2 C4_2 1_555 1_555
H3_2 C5_2 1_555 1_555
C10_2 O7_2 1_555 1_555
C11_2 C15_2 1_555 1_555
C12_2 C17_2 1_555 1_555
C13_2 C10_2 1_555 1_555
C14_2 C13_2 1_555 1_555
H6_2 C14_2 1_555 1_555
C15_2 C14_2 1_555 1_555
C16_2 C15_2 1_555 1_555
H7_2 C16_2 1_555 1_555
C17_2 C16_2 1_555 1_555
C18_2 C13_2 1_555 1_555
H8_2 C18_2 1_555 1_555
C23_2 C22_2 1_555 1_555
H12_2 C23_2 1_555 1_555
C24_2 C23_2 1_555 1_555
H13_2 C24_2 1_555 1_555
C25_2 C24_2 1_555 1_555
C26_2 C25_2 1_555 1_555
H14_2 C26_2 1_555 1_555
C27_2 C22_2 1_555 1_555
C28_2 C29_2 1_555 1_555
C29_2 H16_2 1_555 1_555
C30_2 C25_2 1_555 1_555
C31_2 C30_2 1_555 1_555
H17_2 C31_2 1_555 1_555
C32_2 N3_2 1_555 1_555
C33_2 H18_2 1_555 1_555
C34_2 C33_2 1_555 1_555
H19_2 C34_2 1_555 1_555
C35_2 C28_2 1_555 1_555
C36_2 C35_2 1_555 1_555
H20_2 C36_2 1_555 1_555
C37_2 N4_2 1_555 1_555
H21_2 C37_2 1_555 1_555
C38_2 H22_2 1_555 1_555
C39_2 C38_2 1_555 1_555
H23_2 C39_2 1_555 1_555
C40_2 C32_2 1_555 1_555
C41_2 C40_2 1_555 1_555
H24_2 C41_2 1_555 1_555
C42_2 N7 1_555 1_555
H25_2 C42_2 1_555 1_555
N6_2 Zn5 1_555 1_555
O15 Zn2 1_555 1_555
O8_2 C10_2 1_555 1_555
C17_2 C18_2 1_555 1_555
C26_2 C27_2 1_555 1_555
C29_2 C30_2 1_555 1_555
C31_2 C32_2 1_555 1_555
C34_2 C35_2 1_555 1_555
C36_2 C37_2 1_555 1_555
C39_2 C40_2 1_555 1_555
C41_2 C42_2 1_555 1_555
N1_2 C19_2 1_555 1_555
N2_2 C19_2 1_555 1_555
O4_2 C2_2 1_555 1_555
O15 C3_2 1_555 1_555
O6_2 C3_2 1_555 1_555
C2_2 C6_2 1_555 1_555
C3_2 C8_2 1_555 1_555
C7_2 C6_2 1_555 1_555
H4_2 C7_2 1_555 1_555
C8_2 C7_2 1_555 1_555
H5_2 C9_2 1_555 1_555
C20_2 N2_2 1_555 1_555
H10_2 C20_2 1_555 1_555
C21_2 N1_2 1_555 1_555
H11_2 C21_2 1_555 1_555
Zn6_2 N2_2 1_555 1_555
Zn10 O4_2 1_555 1_555
C8_2 C9_2 1_555 1_555
C20_2 C21_2 1_555 1_555
O9_2 C11_3 1_555 1_555
O10_2 C11_3 1_555 1_555
O19_2 C12_3 1_555 1_555
C11_3 C15_3 1_555 1_555
C12_3 C17_3 1_555 1_555
C14_3 C13_3 1_555 1_555
H6_3 C14_3 1_555 1_555
C15_3 C14_3 1_555 1_555
C16_3 C15_3 1_555 1_555
H7_3 C16_3 1_555 1_555
C17_3 C16_3 1_555 1_555
C18_3 C13_3 1_555 1_555
Zn6 O9_2 1_555 1_555
O10_2 Zn6 1_555 1_555
C17_3 C18_3 1_555 1_555
N1_3 C19_3 1_555 1_555
N6 C19_3 1_555 1_555
C19_3 H9_3 1_555 1_555
C20_3 N6 1_555 1_555
H10_3 C20_3 1_555 1_555
C21_3 N1_3 1_555 1_555
C22_3 N1_3 1_555 1_555
C23_3 C22_3 1_555 1_555
H12_3 C23_3 1_555 1_555
C24_3 C23_3 1_555 1_555
H13_3 C24_3 1_555 1_555
C25_3 C24_3 1_555 1_555
C26_3 C25_3 1_555 1_555
C27_3 C22_3 1_555 1_555
C20_3 C21_3 1_555 1_555
C26_3 C27_3 1_555 1_555
N5_2 C38_3 1_555 1_555
C31_3 C30_3 1_555 1_555
H17_3 C31_3 1_555 1_555
C32_3 N3_3 1_555 1_555
C38_3 H22_3 1_555 1_555
C39_3 C38_3 1_555 1_555
H23_3 C39_3 1_555 1_555
C40_3 C32_3 1_555 1_555
C41_3 C40_3 1_555 1_555
H24_3 C41_3 1_555 1_555
C42_3 N5_2 1_555 1_555
H25_3 C42_3 1_555 1_555
Zn6_2 N5_2 1_555 1_555
C31_3 C32_3 1_555 1_555
C39_3 C40_3 1_555 1_555
C41_3 C42_3 1_555 1_555
Zn6 O1_3 1_555 1_555
Zn2_2 N4_3 1_555 1_555
Zn9 O3_3 1_555 1_555
N4_3 C33_3 1_555 1_555
O1_3 C1_3 1_555 1_555
O2_3 Zn2_2 1_555 1_555
O3_3 C2_3 1_555 1_555
O14 C2_3 1_555 1_555
O15_2 C3_3 1_555 1_555
O6_3 C3_3 1_555 1_555
O7_3 Zn6 1_555 1_555
O8_3 Zn2_2 1_555 1_555
O13_3 Zn9 1_555 1_555
H2_3 O13_3 1_555 1_555
C1_3 O2_3 1_555 1_555
C2_3 C6_3 1_555 1_555
C3_3 C8_3 1_555 1_555
C4_3 C1_3 1_555 1_555
C5_3 C4_3 1_555 1_555
H3_3 C5_3 1_555 1_555
C6_3 C5_3 1_555 1_555
C7_3 C6_3 1_555 1_555
H4_3 C7_3 1_555 1_555
C8_3 C7_3 1_555 1_555
C9_3 C4_3 1_555 1_555
H5_3 C9_3 1_555 1_555
C10_3 O7_3 1_555 1_555
C28_3 C29_3 1_555 1_555
C29_3 H16_3 1_555 1_555
C33_3 H18_3 1_555 1_555
C34_3 C33_3 1_555 1_555
H19_3 C34_3 1_555 1_555
C35_3 C28_3 1_555 1_555
C36_3 C35_3 1_555 1_555
H20_3 C36_3 1_555 1_555
C37_3 N4_3 1_555 1_555
Zn10 O11_2 1_555 1_555
N7_2 Zn6 1_555 1_555
O18_2 Zn9 1_555 1_555
O8_3 C10_3 1_555 1_555
C8_3 C9_3 1_555 1_555
C34_3 C35_3 1_555 1_555
C36_3 C37_3 1_555 1_555
N1_4 C19_4 1_555 1_555
N6_2 C19_4 1_555 1_555
O14_2 C2_4 1_555 1_555
O5_2 C3_4 1_555 1_555
O6_4 C3_4 1_555 1_555
C2_4 C6_4 1_555 1_555
C3_4 C8_4 1_555 1_555
C7_4 C6_4 1_555 1_555
H4_4 C7_4 1_555 1_555
C8_4 C7_4 1_555 1_555
H5_4 C9_4 1_555 1_555
C20_4 N6_2 1_555 1_555
H10_4 C20_4 1_555 1_555
C21_4 N1_4 1_555 1_555
H11_4 C21_4 1_555 1_555
Zn7_2 O5_2 1_555 1_555
C8_4 C9_4 1_555 1_555
C20_4 C21_4 1_555 1_555
Zn6_2 O1_4 1_555 1_555
Zn7_2 N4_4 1_555 1_555
N3_4 C28_4 1_555 1_555
N4_4 C33_4 1_555 1_555
N7_2 C38_4 1_555 1_555
O1_4 C1_4 1_555 1_555
O2_4 Zn7_2 1_555 1_555
O7_4 Zn6_2 1_555 1_555
O8_4 Zn7_2 1_555 1_555
O16_2 C11_4 1_555 1_555
O18_2 C12_4 1_555 1_555
O19 C12_4 1_555 1_555
C1_4 O2_4 1_555 1_555
C4_4 C1_4 1_555 1_555
C5_4 C4_4 1_555 1_555
H3_4 C5_4 1_555 1_555
C10_4 O7_4 1_555 1_555
C11_4 C15_4 1_555 1_555
C12_4 C17_4 1_555 1_555
C13_4 C10_4 1_555 1_555
C14_4 C13_4 1_555 1_555
H6_4 C14_4 1_555 1_555
C15_4 C14_4 1_555 1_555
C16_4 C15_4 1_555 1_555
H7_4 C16_4 1_555 1_555
C17_4 C16_4 1_555 1_555
C18_4 C13_4 1_555 1_555
H8_4 C18_4 1_555 1_555
C23_4 C22_4 1_555 1_555
H12_4 C23_4 1_555 1_555
C24_4 C23_4 1_555 1_555
H13_4 C24_4 1_555 1_555
C25_4 C24_4 1_555 1_555
C26_4 C25_4 1_555 1_555
H14_4 C26_4 1_555 1_555
C27_4 C22_4 1_555 1_555
C28_4 C29_4 1_555 1_555
C29_4 H16_4 1_555 1_555
C30_4 C25_4 1_555 1_555
C31_4 C30_4 1_555 1_555
H17_4 C31_4 1_555 1_555
C32_4 N3_4 1_555 1_555
C33_4 H18_4 1_555 1_555
C34_4 C33_4 1_555 1_555
H19_4 C34_4 1_555 1_555
C35_4 C28_4 1_555 1_555
C36_4 C35_4 1_555 1_555
H20_4 C36_4 1_555 1_555
C37_4 N4_4 1_555 1_555
H21_4 C37_4 1_555 1_555
C38_4 H22_4 1_555 1_555
C39_4 C38_4 1_555 1_555
H23_4 C39_4 1_555 1_555
C40_4 C32_4 1_555 1_555
C41_4 C40_4 1_555 1_555
H24_4 C41_4 1_555 1_555
C42_4 N7_2 1_555 1_555
H25_4 C42_4 1_555 1_555
O17_2 Zn6_2 1_555 1_555
O8_4 C10_4 1_555 1_555
C17_4 C18_4 1_555 1_555
C26_4 C27_4 1_555 1_555
C29_4 C30_4 1_555 1_555
C31_4 C32_4 1_555 1_555
C34_4 C35_4 1_555 1_555
C36_4 C37_4 1_555 1_555
C39_4 C40_4 1_555 1_555
C41_4 C42_4 1_555 1_555
O13_4 Zn10 1_555 1_555
H1_4 O13_4 1_555 1_555
H2_4 O13_4 1_555 1_555

#END
