
###############################################################################
#
# This file contains modified crystal structure data generated from the
# MOF subset of the Cambridge Structural Database (CSD) v543 
# hosted by the Cambridge Crystallographic Data Centre (CCDC).
#
# This work is licensed under the Creative Commons
# Attribution-NonCommercial-ShareAlike 4.0 International License.
# To view a copy of this license, visit
# http://creativecommons.org/licenses/by-nc-sa/4.0/
# or send a letter to
# Creative Commons, PO Box 1866, Mountain View, CA 94042, USA.
#
# CIF created using the CSD Python API on 29 September 2022
# The structure has been converted into the P1 space group
# The structure has a 3D framework
# The original CSD entry BUBVUR is in the monoclinic crystal system
# The framework has been calculated to contain at least 10.0% void space
# The void calculation uses a probe of radius 1.32A, grid spacing 0.4
#
###############################################################################

data_BUBVUR
_chemical_formula_moiety         '(C48 H4 F24 O24 Pb4)n'
_symmetry_cell_setting           triclinic
_symmetry_space_group_name_H-M   'P 1'
_symmetry_Int_Tables_number      1
_space_group_name_Hall           'P 1'
loop_
_symmetry_equiv_pos_site_id
_symmetry_equiv_pos_as_xyz
1 x,y,z
_cell_length_a                   16.173(3)
_cell_length_b                   6.9990(11)
_cell_length_c                   16.479(3)
_cell_angle_alpha                90
_cell_angle_beta                 93.724(3)
_cell_angle_gamma                90
_cell_volume                     1861.4
loop_
_atom_site_label
_atom_site_type_symbol
_atom_site_fract_x
_atom_site_fract_y
_atom_site_fract_z
F7 F 0.1364(2) 0.1738(5) 0.4460(2)
O7 O 0.1764(4) 0.1452(7) 0.6368(3)
H2 H 0.2096 0.1195 0.6749
C15 C 0.0694(4) 0.0867(9) 0.4738(3)
F8 F 0.0056(3) 0.8282(5) 0.6477(2)
O8 O 0.1932(3) 0.8418(6) 0.6048(3)
C13 C 0.1544(4) 0.9978(9) 0.6017(4)
C14 C 0.0750(4) 0.9988(8) 0.5490(3)
C16 C 0.0041(4) 0.9127(9) 0.5743(3)
Pb6 Pb 0.30692(2) 0.84719(3) 0.70613(2)
Pb3 Pb 0.69308(2) 0.15281(3) 0.29387(2)
O17 O 0.3396(3) 0.2210(6) 0.7254(3)
F1 F 0.4836(3) 0.7103(9) 0.3068(2)
F2 F 0.3880(3) 0.7754(10) 0.4254(3)
F3 F 0.6222(3) 0.7288(10) 0.6140(2)
F4 F 0.7149(3) 0.6485(7) 0.4941(3)
F6 F 0.9944(3) 0.1718(5) 0.3523(2)
O1 O 0.7028(3) 0.5002(6) 0.3273(3)
O2 O 0.6604(3) 0.7790(6) 0.2746(3)
O3 O 0.3748(3) 0.8635(7) 0.5774(3)
O4 O 0.4709(3) 0.7599(9) 0.6672(3)
O6 O 0.8068(3) 0.1582(6) 0.3952(3)
C1 C 0.6591(4) 0.6494(7) 0.3254(4)
C2 C 0.6039(4) 0.6779(8) 0.3965(4)
C3 C 0.5200(4) 0.7155(9) 0.3832(3)
C4 C 0.4687(4) 0.7472(10) 0.4457(4)
C5 C 0.4998(4) 0.7572(8) 0.5267(3)
C6 C 0.5836(4) 0.7199(10) 0.5391(4)
C7 C 0.6344(4) 0.6791(9) 0.4763(4)
C8 C 0.4441(4) 0.7962(9) 0.5953(4)
C9 C 0.8456(4) 0.0022(9) 0.3983(4)
C10 C 0.9250(4) 0.0012(8) 0.4510(3)
C12 C 0.9959(4) 0.0873(9) 0.4257(3)
F9 F 0.5164(3) 0.2897(9) 0.6932(2)
F10 F 0.6120(3) 0.2246(10) 0.5746(3)
F11 F 0.3778(3) 0.2712(10) 0.3860(2)
F12 F 0.2851(3) 0.3515(7) 0.5059(3)
O9 O 0.2972(3) 0.4998(6) 0.6727(3)
O11 O 0.6252(3) 0.1365(7) 0.4226(3)
O12 O 0.5291(3) 0.2401(9) 0.3328(3)
C17 C 0.3409(4) 0.3506(7) 0.6746(4)
C18 C 0.3961(4) 0.3221(8) 0.6035(4)
C19 C 0.4800(4) 0.2845(9) 0.6168(3)
C20 C 0.5313(4) 0.2528(10) 0.5543(4)
C21 C 0.5002(4) 0.2428(8) 0.4733(3)
C22 C 0.4164(4) 0.2801(10) 0.4609(4)
C23 C 0.3656(4) 0.3209(9) 0.5237(4)
C24 C 0.5559(4) 0.2038(9) 0.4047(4)
Pb4 Pb 0.80692(2) 0.65281(3) 0.20613(2)
Pb7 Pb 0.19308(2) 0.34719(3) 0.79387(2)
O13 O 0.7972(3) 0.0002(6) 0.1727(3)
O14 O 0.2028(3) 0.9998(6) 0.8273(3)
O16 O 0.8396(3) 0.2790(6) 0.2254(3)
O18 O 0.1604(3) 0.7210(6) 0.7746(3)
F5 F 0.8636(2) 0.8262(5) 0.5540(2)
O5 O 0.8236(4) 0.8548(7) 0.3632(3)
H1 H 0.7904 0.8805 0.3251
C11 C 0.9306(4) 0.9133(9) 0.5262(3)
F1_2 F 0.0164(3) 0.2103(9) 0.1932(2)
F2_2 F 0.1120(3) 0.2754(10) 0.0746(3)
C4_2 C 0.0313(4) 0.2472(10) 0.0543(4)
O3_2 O 0.1252(3) 0.3635(7) 0.9226(3)
O4_2 O 0.0291(3) 0.2599(9) 0.8328(3)
C5_2 C 0.0002(4) 0.2572(8) 0.9733(3)
C8_2 C 0.0559(4) 0.2962(9) 0.9047(4)
O19 O 0.3068(3) 0.3418(6) 0.8952(3)
F12_2 F 0.2149(3) 0.8515(7) 0.9941(3)
C17_2 C 0.1591(4) 0.8506(7) 0.8254(4)
C18_2 C 0.1039(4) 0.8221(8) 0.8965(4)
C19_2 C 0.0200(4) 0.7845(9) 0.8832(3)
C23_2 C 0.1344(4) 0.8209(9) 0.9763(4)
F4_2 F 0.7851(3) 0.1485(7) 0.0059(3)
C1_2 C 0.8409(4) 0.1494(7) 0.1746(4)
C2_2 C 0.8961(4) 0.1779(8) 0.1035(4)
C3_2 C 0.9800(4) 0.2155(9) 0.1168(3)
C7_2 C 0.8656(4) 0.1791(9) 0.0237(4)
F6_2 F 0.5056(3) 0.6718(5) 0.1477(2)
O5_2 O 0.6764(4) 0.3548(7) 0.1368(3)
H1_2 H 0.7096 0.3805 0.1749
O6_2 O 0.6932(3) 0.6582(6) 0.1048(3)
C9_2 C 0.6544(4) 0.5022(9) 0.1017(4)
C10_2 C 0.5750(4) 0.5012(8) 0.0490(3)
C12_2 C 0.5041(4) 0.5873(9) 0.0743(3)
F7_2 F 0.3636(2) 0.6738(5) 0.0540(2)
C15_2 C 0.4306(4) 0.5867(9) 0.0262(3)
O11_2 O 0.8748(3) 0.6365(7) 0.0774(3)
O12_2 O 0.9709(3) 0.7401(9) 0.1672(3)
C21_2 C 0.9998(4) 0.7428(8) 0.0267(3)
C24_2 C 0.9441(4) 0.7038(9) 0.0953(4)
F5_2 F 0.6364(2) 0.3262(5) 0.9460(2)
C11_2 C 0.5694(4) 0.4133(9) 0.9738(3)
F8_2 F 0.4944(3) 0.3282(5) 0.8523(2)
O7_2 O 0.3236(4) 0.6452(7) 0.8632(3)
H2_2 H 0.2904 0.6195 0.8251
C13_2 C 0.3456(4) 0.4978(9) 0.8983(4)
C14_2 C 0.4250(4) 0.4988(8) 0.9510(3)
C16_2 C 0.4959(4) 0.4127(9) 0.9257(3)
F9_2 F 0.9836(3) 0.7897(9) 0.8068(2)
F10_2 F 0.8880(3) 0.7246(10) 0.9254(3)
C20_2 C 0.9687(4) 0.7528(10) 0.9457(4)
F11_2 F 0.1222(3) 0.7712(10) 0.1140(2)
C22_2 C 0.0836(4) 0.7801(10) 0.0391(4)
F3_2 F 0.8778(3) 0.2288(10) 0.8860(2)
C6_2 C 0.9164(4) 0.2199(10) 0.9609(4)
loop_
_geom_bond_atom_site_label_1
_geom_bond_atom_site_label_2
_geom_bond_site_symmetry_1
_geom_bond_site_symmetry_2
F7 C15 1_555 1_555
O7 H2 1_555 1_555
F8 C16 1_555 1_555
O8 C13 1_555 1_555
C14 C13 1_555 1_555
Pb6 O8 1_555 1_555
C14 C16 1_555 1_555
Pb3 O1 1_555 1_555
F1 C3 1_555 1_555
F2 C4 1_555 1_555
F3 C6 1_555 1_555
F4 C7 1_555 1_555
F6 C12 1_555 1_555
O1 C1 1_555 1_555
O2 C1 1_555 1_555
O3 C8 1_555 1_555
O4 C8 1_555 1_555
O6 Pb3 1_555 1_555
C1 C2 1_555 1_555
C2 C3 1_555 1_555
C3 C4 1_555 1_555
C4 C5 1_555 1_555
C5 C6 1_555 1_555
C6 C7 1_555 1_555
C7 C2 1_555 1_555
C8 C5 1_555 1_555
C10 C9 1_555 1_555
C12 C10 1_555 1_555
Pb6 O3 1_555 1_555
F9 C19 1_555 1_555
F10 C20 1_555 1_555
F11 C22 1_555 1_555
F12 C23 1_555 1_555
O9 Pb6 1_555 1_555
O17 C17 1_555 1_555
O11 Pb3 1_555 1_555
O12 Pb3 1_555 1_555
C17 O9 1_555 1_555
C18 C17 1_555 1_555
C19 C18 1_555 1_555
C20 C19 1_555 1_555
C21 C20 1_555 1_555
C22 C21 1_555 1_555
C23 C18 1_555 1_555
C24 O11 1_555 1_555
Pb4 O1 1_555 1_555
Pb7 O9 1_555 1_555
O13 Pb3 1_555 1_555
O14 Pb6 1_555 1_555
O16 Pb3 1_555 1_555
O18 Pb6 1_555 1_555
O2 Pb4 1_555 1_555
O4 Pb6 1_555 1_555
O6 C9 1_555 1_555
O17 Pb7 1_555 1_555
O12 C24 1_555 1_555
C21 C24 1_555 1_555
C22 C23 1_555 1_555
Pb4 O16 1_555 1_555
Pb7 O18 1_555 1_555
F5 C11 1_555 1_555
O5 H1 1_555 1_555
F2_2 C4_2 1_555 1_555
O3_2 C8_2 1_555 1_555
O4_2 C8_2 1_555 1_555
C8_2 C5_2 1_555 1_555
Pb7 O3_2 1_555 1_555
O19 Pb7 1_555 1_555
O4_2 Pb7 1_555 1_555
F12_2 C23_2 1_555 1_555
O18 C17_2 1_555 1_555
C17_2 O14 1_555 1_555
C18_2 C17_2 1_555 1_555
C19_2 C18_2 1_555 1_555
C23_2 C18_2 1_555 1_555
F4_2 C7_2 1_555 1_555
O13 C1_2 1_555 1_555
O16 C1_2 1_555 1_555
C1_2 C2_2 1_555 1_555
C2_2 C3_2 1_555 1_555
C7_2 C2_2 1_555 1_555
F6_2 C12_2 1_555 1_555
O5_2 H1_2 1_555 1_555
O6_2 Pb4 1_555 1_555
C9_2 O5_2 1_555 1_555
C10_2 C9_2 1_555 1_555
C12_2 C10_2 1_555 1_555
F7_2 C15_2 1_555 1_555
C15_2 C12_2 1_555 1_555
O11_2 Pb4 1_555 1_555
O12_2 Pb4 1_555 1_555
C24_2 O11_2 1_555 1_555
O6_2 C9_2 1_555 1_555
O12_2 C24_2 1_555 1_555
C21_2 C24_2 1_555 1_555
F5_2 C11_2 1_555 1_555
F8_2 C16_2 1_555 1_555
O7_2 H2_2 1_555 1_555
O19 C13_2 1_555 1_555
C13_2 O7_2 1_555 1_555
C14_2 C13_2 1_555 1_555
C16_2 C11_2 1_555 1_555
F10_2 C20_2 1_555 1_555
C14_2 C16_2 1_555 1_555
F11_2 C22_2 1_555 1_555
F3_2 C6_2 1_555 1_555

#END
