
###############################################################################
#
# This file contains modified crystal structure data generated from the
# MOF subset of the Cambridge Structural Database (CSD) v543 
# hosted by the Cambridge Crystallographic Data Centre (CCDC).
#
# This work is licensed under the Creative Commons
# Attribution-NonCommercial-ShareAlike 4.0 International License.
# To view a copy of this license, visit
# http://creativecommons.org/licenses/by-nc-sa/4.0/
# or send a letter to
# Creative Commons, PO Box 1866, Mountain View, CA 94042, USA.
#
# CIF created using the CSD Python API on 29 September 2022
# The structure has been converted into the P1 space group
# The structure has a 3D framework
# The original CSD entry BUCVIG is in the monoclinic crystal system
# The framework has been calculated to contain at least 10.0% void space
# The void calculation uses a probe of radius 1.32A, grid spacing 0.4
#
###############################################################################

data_BUCVIG
_chemical_formula_moiety         '(C424 H288 Co16 N64 O64)n'
_symmetry_cell_setting           triclinic
_symmetry_space_group_name_H-M   'P 1'
_symmetry_Int_Tables_number      1
_space_group_name_Hall           'P 1'
loop_
_symmetry_equiv_pos_site_id
_symmetry_equiv_pos_as_xyz
1 x,y,z
_cell_length_a                   40.575(5)
_cell_length_b                   14.3747(16)
_cell_length_c                   20.156(3)
_cell_angle_alpha                90
_cell_angle_beta                 108.058(3)
_cell_angle_gamma                90
_cell_volume                     11177
loop_
_atom_site_label
_atom_site_type_symbol
_atom_site_fract_x
_atom_site_fract_y
_atom_site_fract_z
C38 C 0.68704(9) 0.0070(2) 0.23535(17)
H27 H 0.6952 0.0509 0.2705
C39 C 0.66931(10) 0.0264(2) 0.16832(18)
H28 H 0.6630 0.0850 0.1490
C45 C 0.63167(9) 0.0009(2) 0.01849(17)
H32 H 0.6319 0.0601 0.0373
N3 N 0.56826(7) 0.33133(19) 0.61268(14)
N4 N 0.56875(7) 0.18807(19) 0.64961(13)
C19 C 0.57477(10) 0.2761(2) 0.66747(17)
H12 H 0.5827 0.2969 0.7134
C20 C 0.55835(11) 0.1837(3) 0.57793(18)
H13 H 0.5528 0.1307 0.5503
C21 C 0.55782(10) 0.2731(3) 0.55616(18)
H14 H 0.5514 0.2920 0.5098
C22 C 0.57511(9) 0.1111(2) 0.69766(15)
C23 C 0.60682(8) 0.1048(2) 0.74854(17)
H15 H 0.6237 0.1498 0.7516
C24 C 0.61346(8) 0.0310(2) 0.79527(17)
H16 H 0.6351 0.0261 0.8290
C27 C 0.55015(10) 0.0450(2) 0.69278(18)
H18 H 0.5289 0.0488 0.6579
H31 H 0.6078 0.0375 0.9184
Co3 Co 0.58352(2) 0.46531(3) 0.62090(2)
O3 O 0.61787(6) 0.53207(15) 0.06824(11)
O7 O 0.28564(10) 0.71193(19) 0.1630(2)
O8 O 0.27415(10) 0.6307(2) 0.24629(15)
C5 C 0.59974(9) 0.5326(2) 0.00356(15)
H2 H 0.6650 0.5761 0.0157
C47 C 0.23476(8) 0.5154(3) 0.01303(17)
C48 C 0.24818(9) 0.5851(3) 0.06257(17)
H33 H 0.2503 0.6454 0.0477
C49 C 0.25834(9) 0.5658(2) 0.13337(18)
C50 C 0.27325(11) 0.6408(3) 0.1851(2)
C51 C 0.25358(9) 0.4767(3) 0.15376(19)
H34 H 0.2592 0.4638 0.2012
C52 C 0.24106(9) 0.4074(3) 0.1077(2)
H35 H 0.2385 0.3479 0.1234
C53 C 0.23184(9) 0.4261(3) 0.0353(2)
H36 H 0.2239 0.3785 0.0031
Co4 Co 0.58352(2) 0.53469(3) 0.12090(2)
Co5 Co 0.27885(2) 0.84562(3) 0.17145(2)
Co2 Co 0.22115(2) 0.65438(3) 0.82855(2)
O1 O 0.61745(7) 0.48350(16) 0.71551(11)
O2 O 0.56909(7) 0.46354(18) 0.74114(12)
O4 O 0.56775(7) 0.53168(17) 0.98492(12)
O5 O 0.21979(8) 0.6245(2) 0.92160(13)
O6 O 0.22768(9) 0.4806(3) 0.89463(15)
N1 N 0.55525(7) 0.58368(19) 0.60509(14)
N2 N 0.51856(7) 0.69210(18) 0.61229(13)
N5 N 0.26956(7) 0.64757(17) 0.82212(13)
N6 N 0.31500(7) 0.67974(17) 0.78914(13)
N7 N 0.30879(6) 0.91260(18) 0.25616(12)
N8 N 0.33759(7) 0.94224(18) 0.36571(13)
C1 C 0.60009(9) 0.4837(2) 0.75868(15)
C2 C 0.61928(8) 0.5102(2) 0.83287(14)
C3 C 0.60185(8) 0.5093(2) 0.88244(14)
H1 H 0.5786 0.4921 0.8696
C4 C 0.61903(8) 0.53404(19) 0.95094(15)
C6 C 0.65339(9) 0.5600(2) 0.96963(16)
C7 C 0.67072(9) 0.5623(3) 0.92045(18)
H3 H 0.6938 0.5811 0.9331
C8 C 0.65358(9) 0.5365(2) 0.85192(16)
H4 H 0.6653 0.5370 0.8189
C9 C 0.53252(8) 0.6098(2) 0.63552(16)
H5 H 0.5268 0.5750 0.6693
C10 C 0.53450(10) 0.7226(2) 0.56491(19)
H6 H 0.5305 0.7784 0.5404
C11 C 0.55671(9) 0.6560(2) 0.56130(19)
H7 H 0.5711 0.6580 0.5333
C12 C 0.49106(8) 0.7379(2) 0.63023(15)
C13 C 0.46774(9) 0.6865(2) 0.65185(17)
H8 H 0.4705 0.6224 0.6574
C14 C 0.44000(8) 0.7308(2) 0.66542(17)
H9 H 0.4243 0.6959 0.6802
C15 C 0.43549(7) 0.8260(2) 0.65731(14)
C16 C 0.45974(8) 0.8766(2) 0.63581(16)
H10 H 0.4571 0.9407 0.6301
C17 C 0.48753(8) 0.8333(2) 0.62292(16)
H11 H 0.5037 0.8680 0.6094
C18 C 0.40264(7) 0.87776(19) 0.66011(14)
C25 C 0.41179(8) 0.96406(19) 0.70762(15)
C26 C 0.44309(9) 0.9719(2) 0.75920(17)
H17 H 0.4602 0.9275 0.7622
C28 C 0.28317(8) 0.7060(2) 0.78738(16)
H19 H 0.2720 0.7589 0.7645
C29 C 0.29451(9) 0.5795(2) 0.84707(18)
H20 H 0.2922 0.5283 0.8736
C30 C 0.32245(9) 0.5986(2) 0.82721(18)
H21 H 0.3428 0.5640 0.8372
C31 C 0.33693(8) 0.72718(19) 0.75605(15)
C32 C 0.32243(8) 0.7685(2) 0.69184(16)
H22 H 0.2987 0.7649 0.6697
C33 C 0.34350(8) 0.8152(2) 0.66066(16)
H23 H 0.3336 0.8441 0.6178
C34 C 0.37911(8) 0.8198(2) 0.69187(14)
C35 C 0.39282(8) 0.7782(2) 0.75705(16)
H24 H 0.4166 0.7813 0.7794
C36 C 0.37200(8) 0.7326(2) 0.78914(16)
H25 H 0.3816 0.7057 0.8328
C37 C 0.32381(8) 0.8760(2) 0.31818(15)
H26 H 0.3247 0.8126 0.3278
C40 C 0.35431(8) 0.9280(2) 0.43916(14)
C41 C 0.35581(9) 0.8393(2) 0.46658(16)
H29 H 0.3468 0.7889 0.4377
C42 C 0.37078(9) 0.8268(2) 0.53713(16)
H30 H 0.3718 0.7670 0.5553
C43 C 0.38435(7) 0.8999(2) 0.58237(14)
C44 C 0.38305(9) 0.9869(2) 0.55300(17)
C46 C 0.22628(10) 0.5394(3) 0.93741(18)
O9 O 0.61787(6) 0.46793(15) 0.56824(11)
O10 O 0.21436(10) 0.78807(19) 0.8370(2)
N10 N 0.19121(6) 0.58740(18) 0.74384(12)
N7_2 N 0.19121(6) 0.41260(18) 0.24384(12)
N8_2 N 0.16241(7) 0.44224(18) 0.13429(13)
C37_2 C 0.17619(8) 0.3760(2) 0.18182(15)
H26_2 H 0.1753 0.3126 0.1722
C38_2 C 0.18704(9) 0.5070(2) 0.23535(17)
H27_2 H 0.1952 0.5509 0.2705
C39_2 C 0.16931(10) 0.5264(2) 0.16832(18)
H28_2 H 0.1630 0.5850 0.1490
C40_2 C 0.14569(8) 0.4280(2) 0.06084(14)
C41_2 C 0.14419(9) 0.3393(2) 0.03342(16)
H29_2 H 0.1532 0.2889 0.0623
C45_2 C 0.13167(9) 0.5009(2) 0.01849(17)
H32_2 H 0.1319 0.5601 0.0373
Co6 Co 0.22115(2) 0.34562(3) 0.32855(2)
Co2_2 Co 0.27885(2) 0.15438(3) 0.67145(2)
O5_2 O 0.28021(8) 0.1245(2) 0.57840(13)
O7_2 O 0.21436(10) 0.21193(19) 0.3370(2)
O8_2 O 0.22585(10) 0.1307(2) 0.25371(15)
N3_2 N 0.06826(7) 0.83133(19) 0.61268(14)
N4_2 N 0.06875(7) 0.68807(19) 0.64961(13)
N5_2 N 0.23044(7) 0.14757(17) 0.67788(13)
N6_2 N 0.18500(7) 0.17974(17) 0.71086(13)
C12_2 C 0.00894(8) 0.2379(2) 0.86977(15)
C13_2 C 0.03226(9) 0.1865(2) 0.84815(17)
H8_2 H 0.0295 0.1224 0.8426
C14_2 C 0.06000(8) 0.2308(2) 0.83458(17)
H9_2 H 0.0757 0.1959 0.8198
C15_2 C 0.06451(7) 0.3260(2) 0.84269(14)
C16_2 C 0.04026(8) 0.3766(2) 0.86419(16)
H10_2 H 0.0429 0.4407 0.8699
C17_2 C 0.01247(8) 0.3333(2) 0.87708(16)
C18_2 C 0.09736(7) 0.37776(19) 0.83989(14)
C19_2 C 0.07477(10) 0.7761(2) 0.66747(17)
H12_2 H 0.0827 0.7969 0.7134
C20_2 C 0.05835(11) 0.6837(3) 0.57793(18)
H13_2 H 0.0528 0.6307 0.5503
C21_2 C 0.05782(10) 0.7731(3) 0.55616(18)
H14_2 H 0.0514 0.7920 0.5098
C22_2 C 0.07511(9) 0.6111(2) 0.69766(15)
C23_2 C 0.10682(8) 0.6048(2) 0.74854(17)
H15_2 H 0.1237 0.6498 0.7516
C24_2 C 0.11346(8) 0.5310(2) 0.79527(17)
H16_2 H 0.1351 0.5261 0.8290
C25_2 C 0.08821(8) 0.46406(19) 0.79238(15)
C26_2 C 0.05691(9) 0.4719(2) 0.74080(17)
H17_2 H 0.0398 0.4275 0.7378
C27_2 C 0.05015(10) 0.5450(2) 0.69278(18)
H18_2 H 0.0289 0.5488 0.6579
C28_2 C 0.21683(8) 0.2060(2) 0.71262(16)
H19_2 H 0.2280 0.2589 0.7355
C29_2 C 0.20549(9) 0.0795(2) 0.65293(18)
H20_2 H 0.2078 0.0283 0.6264
C30_2 C 0.17755(9) 0.0986(2) 0.67279(18)
H21_2 H 0.1572 0.0640 0.6628
C31_2 C 0.16307(8) 0.22718(19) 0.74395(15)
C32_2 C 0.17757(8) 0.2685(2) 0.80816(16)
H22_2 H 0.2013 0.2649 0.8303
C33_2 C 0.15650(8) 0.3152(2) 0.83934(16)
H23_2 H 0.1664 0.3441 0.8822
C34_2 C 0.12089(8) 0.3198(2) 0.80813(14)
C35_2 C 0.10718(8) 0.2782(2) 0.74295(16)
H24_2 H 0.0834 0.2813 0.7206
C36_2 C 0.12800(8) 0.2326(2) 0.71086(16)
H25_2 H 0.1184 0.2057 0.6672
C42_2 C 0.12922(9) 0.3268(2) 0.96287(16)
H30_2 H 0.1282 0.2670 0.9447
C43_2 C 0.11565(7) 0.3999(2) 0.91763(14)
C44_2 C 0.11695(9) 0.4869(2) 0.94700(17)
H31_2 H 0.1078 0.5375 0.9184
C46_2 C 0.27372(10) 0.0394(3) 0.56259(18)
C47_2 C 0.26524(8) 0.0154(3) 0.48697(17)
C48_2 C 0.25182(9) 0.0851(3) 0.43743(17)
H33_2 H 0.2497 0.1454 0.4523
C49_2 C 0.24166(9) 0.0658(2) 0.36663(18)
C50_2 C 0.22675(11) 0.1408(3) 0.3149(2)
Co3_2 Co 0.08352(2) 0.96531(3) 0.62090(2)
O10_2 O 0.28564(10) 0.28807(19) 0.6630(2)
N10_2 N 0.30879(6) 0.08740(18) 0.75616(12)
O3_2 O 0.11787(6) 0.03207(15) 0.06824(11)
C5_2 C 0.09974(9) 0.0326(2) 0.00356(15)
H2_2 H 0.1650 0.0761 0.0157
Co4_2 Co 0.08352(2) 0.03469(3) 0.12090(2)
O1_2 O 0.11745(7) 0.98350(16) 0.71551(11)
O2_2 O 0.06909(7) 0.96354(18) 0.74114(12)
C1_2 C 0.10009(9) 0.9837(2) 0.75868(15)
H1_2 H 0.0786 0.9921 0.8696
O9_2 O 0.11787(6) 0.96793(15) 0.56824(11)
O1_3 O 0.61745(7) 0.51650(16) 0.21551(11)
O2_3 O 0.56909(7) 0.53646(18) 0.24114(12)
O4_2 O 0.56775(7) 0.46832(17) 0.48492(12)
O5_3 O 0.21979(8) 0.3755(2) 0.42160(13)
O6_2 O 0.22768(9) 0.5194(3) 0.39463(15)
O8_3 O 0.27415(10) 0.3693(2) 0.74629(15)
N1_2 N 0.55525(7) 0.41632(19) 0.10509(14)
N2_2 N 0.51856(7) 0.30790(18) 0.11229(13)
N5_3 N 0.26956(7) 0.35243(17) 0.32212(13)
N6_3 N 0.31500(7) 0.32026(17) 0.28914(13)
C1_3 C 0.60009(9) 0.5163(2) 0.25868(15)
C2_2 C 0.61928(8) 0.4898(2) 0.33287(14)
C3_2 C 0.60185(8) 0.4907(2) 0.38244(14)
H1_3 H 0.5786 0.5079 0.3696
C4_2 C 0.61903(8) 0.46596(19) 0.45094(15)
C5_3 C 0.59974(9) 0.4674(2) 0.50356(15)
C6_2 C 0.65339(9) 0.4400(2) 0.46963(16)
H2_3 H 0.6650 0.4239 0.5157
C7_2 C 0.67072(9) 0.4377(3) 0.42045(18)
H3_2 H 0.6938 0.4189 0.4331
C8_2 C 0.65358(9) 0.4635(2) 0.35192(16)
H4_2 H 0.6653 0.4630 0.3189
C9_2 C 0.53252(8) 0.3902(2) 0.13552(16)
H5_2 H 0.5268 0.4250 0.1693
C10_2 C 0.53450(10) 0.2774(2) 0.06491(19)
H6_2 H 0.5305 0.2216 0.0404
C11_2 C 0.55671(9) 0.3440(2) 0.06130(19)
H7_2 H 0.5711 0.3420 0.0333
C12_3 C 0.49106(8) 0.2621(2) 0.13023(15)
C13_3 C 0.46774(9) 0.3135(2) 0.15185(17)
H8_3 H 0.4705 0.3776 0.1574
C14_3 C 0.44000(8) 0.2692(2) 0.16542(17)
H9_3 H 0.4243 0.3041 0.1802
C15_3 C 0.43549(7) 0.1740(2) 0.15731(14)
C16_3 C 0.45974(8) 0.1234(2) 0.13581(16)
H10_3 H 0.4571 0.0593 0.1301
C17_3 C 0.48753(8) 0.1667(2) 0.12292(16)
H11_2 H 0.5037 0.1320 0.1094
C18_3 C 0.40264(7) 0.12224(19) 0.16011(14)
C25_3 C 0.41179(8) 0.03594(19) 0.20762(15)
C26_3 C 0.44309(9) 0.0281(2) 0.25920(17)
H17_3 H 0.4602 0.0725 0.2622
C28_3 C 0.28317(8) 0.2940(2) 0.28738(16)
H19_3 H 0.2720 0.2411 0.2645
C29_3 C 0.29451(9) 0.4205(2) 0.34707(18)
H20_3 H 0.2922 0.4717 0.3736
C30_3 C 0.32245(9) 0.4014(2) 0.32721(18)
H21_3 H 0.3428 0.4360 0.3372
C31_3 C 0.33693(8) 0.27282(19) 0.25605(15)
C32_3 C 0.32243(8) 0.2315(2) 0.19184(16)
H22_3 H 0.2987 0.2351 0.1697
C33_3 C 0.34350(8) 0.1848(2) 0.16066(16)
H23_3 H 0.3336 0.1559 0.1178
C34_3 C 0.37911(8) 0.1802(2) 0.19187(14)
C35_3 C 0.39282(8) 0.2218(2) 0.25705(16)
H24_3 H 0.4166 0.2187 0.2794
C36_3 C 0.37200(8) 0.2674(2) 0.28914(16)
H25_3 H 0.3816 0.2943 0.3328
C42_3 C 0.37078(9) 0.1732(2) 0.03713(16)
H30_3 H 0.3718 0.2330 0.0553
C43_3 C 0.38435(7) 0.1001(2) 0.08237(14)
C44_3 C 0.38305(9) 0.0131(2) 0.05300(17)
C46_3 C 0.22628(10) 0.4606(3) 0.43741(18)
C47_3 C 0.23476(8) 0.4846(3) 0.51303(17)
C48_3 C 0.24818(9) 0.4149(3) 0.56257(17)
H33_3 H 0.2503 0.3546 0.5477
C49_3 C 0.25834(9) 0.4342(2) 0.63337(18)
C50_3 C 0.27325(11) 0.3592(3) 0.6851(2)
C51_2 C 0.25358(9) 0.5233(3) 0.65376(19)
H34_2 H 0.2592 0.5362 0.7012
C52_2 C 0.24106(9) 0.5926(3) 0.6077(2)
H35_2 H 0.2385 0.6521 0.6234
C53_2 C 0.23184(9) 0.5739(3) 0.5353(2)
H36_2 H 0.2239 0.6215 0.5031
N9 N 0.56826(7) 0.66867(19) 0.11268(14)
N8_3 N 0.33759(7) 0.05776(18) 0.86571(13)
C37_3 C 0.32381(8) 0.1240(2) 0.81818(15)
H26_3 H 0.3247 0.1874 0.8278
C40_3 C 0.35431(8) 0.0720(2) 0.93916(14)
C41_3 C 0.35581(9) 0.1607(2) 0.96658(16)
H29_3 H 0.3468 0.2111 0.9377
N4_3 N 0.56875(7) 0.81193(19) 0.14961(13)
C19_3 C 0.57477(10) 0.7239(2) 0.16747(17)
H12_3 H 0.5827 0.7031 0.2134
C20_3 C 0.55835(11) 0.8163(3) 0.07793(18)
H13_3 H 0.5528 0.8693 0.0503
C21_3 C 0.55782(10) 0.7269(3) 0.05616(18)
H14_3 H 0.5514 0.7080 0.0098
C22_3 C 0.57511(9) 0.8889(2) 0.19766(15)
C23_3 C 0.60682(8) 0.8952(2) 0.24854(17)
H15_3 H 0.6237 0.8502 0.2516
C24_3 C 0.61346(8) 0.9690(2) 0.29527(17)
H16_3 H 0.6351 0.9739 0.3290
C27_3 C 0.55015(10) 0.9550(2) 0.19278(18)
H18_3 H 0.5289 0.9512 0.1579
C38_3 C 0.68704(9) 0.9930(2) 0.73535(17)
H27_3 H 0.6952 0.9491 0.7705
C39_3 C 0.66931(10) 0.9736(2) 0.66832(18)
H28_3 H 0.6630 0.9150 0.6490
H31_3 H 0.6078 0.9625 0.4184
C45_3 C 0.63167(9) 0.9991(2) 0.51849(17)
H32_3 H 0.6319 0.9399 0.5373
O1_4 O 0.11745(7) 0.01650(16) 0.21551(11)
O2_4 O 0.06909(7) 0.03646(18) 0.24114(12)
C1_4 C 0.10009(9) 0.0163(2) 0.25868(15)
H1_4 H 0.0786 0.0079 0.3696
N9_2 N 0.06826(7) 0.16867(19) 0.11268(14)
O4_3 O 0.06775(7) 0.96832(17) 0.48492(12)
N1_3 N 0.05525(7) 0.91632(19) 0.10509(14)
N2_3 N 0.01856(7) 0.80790(18) 0.11229(13)
C2_3 C 0.11928(8) 0.9898(2) 0.33287(14)
C3_3 C 0.10185(8) 0.9907(2) 0.38244(14)
C4_3 C 0.11903(8) 0.96596(19) 0.45094(15)
C5_4 C 0.09974(9) 0.9674(2) 0.50356(15)
C6_3 C 0.15339(9) 0.9400(2) 0.46963(16)
H2_4 H 0.1650 0.9239 0.5157
C7_3 C 0.17072(9) 0.9377(3) 0.42045(18)
H3_3 H 0.1938 0.9189 0.4331
C8_3 C 0.15358(9) 0.9635(2) 0.35192(16)
H4_3 H 0.1653 0.9630 0.3189
C9_3 C 0.03252(8) 0.8902(2) 0.13552(16)
H5_3 H 0.0268 0.9250 0.1693
C10_3 C 0.03450(10) 0.7774(2) 0.06491(19)
H6_3 H 0.0305 0.7216 0.0404
C11_3 C 0.05671(9) 0.8440(2) 0.06130(19)
H7_3 H 0.0711 0.8420 0.0333
H11_3 H 0.0037 0.6320 0.1094
O5_4 O 0.28021(8) 0.8755(2) 0.07840(13)
N4_4 N 0.06875(7) 0.31193(19) 0.14961(13)
N5_4 N 0.23044(7) 0.85243(17) 0.17788(13)
N6_4 N 0.18500(7) 0.82026(17) 0.21086(13)
N8_4 N 0.16241(7) 0.55776(18) 0.63429(13)
C12_4 C 0.00894(8) 0.7621(2) 0.36977(15)
C13_4 C 0.03226(9) 0.8135(2) 0.34815(17)
H8_4 H 0.0295 0.8776 0.3426
C14_4 C 0.06000(8) 0.7692(2) 0.33458(17)
H9_4 H 0.0757 0.8041 0.3198
C15_4 C 0.06451(7) 0.6740(2) 0.34269(14)
C16_4 C 0.04026(8) 0.6234(2) 0.36419(16)
H10_4 H 0.0429 0.5593 0.3699
C17_4 C 0.01247(8) 0.6667(2) 0.37708(16)
C18_4 C 0.09736(7) 0.62224(19) 0.33989(14)
C19_4 C 0.07477(10) 0.2239(2) 0.16747(17)
H12_4 H 0.0827 0.2031 0.2134
C20_4 C 0.05835(11) 0.3163(3) 0.07793(18)
H13_4 H 0.0528 0.3693 0.0503
C21_4 C 0.05782(10) 0.2269(3) 0.05616(18)
H14_4 H 0.0514 0.2080 0.0098
C22_4 C 0.07511(9) 0.3889(2) 0.19766(15)
C23_4 C 0.10682(8) 0.3952(2) 0.24854(17)
H15_4 H 0.1237 0.3502 0.2516
C24_4 C 0.11346(8) 0.4690(2) 0.29527(17)
H16_4 H 0.1351 0.4739 0.3290
C25_4 C 0.08821(8) 0.53594(19) 0.29238(15)
C26_4 C 0.05691(9) 0.5281(2) 0.24080(17)
H17_4 H 0.0398 0.5725 0.2378
C27_4 C 0.05015(10) 0.4550(2) 0.19278(18)
H18_4 H 0.0289 0.4512 0.1579
C28_4 C 0.21683(8) 0.7940(2) 0.21262(16)
H19_4 H 0.2280 0.7411 0.2355
C29_4 C 0.20549(9) 0.9205(2) 0.15293(18)
H20_4 H 0.2078 0.9717 0.1264
C30_4 C 0.17755(9) 0.9014(2) 0.17279(18)
H21_4 H 0.1572 0.9360 0.1628
C31_4 C 0.16307(8) 0.77282(19) 0.24395(15)
C32_4 C 0.17757(8) 0.7315(2) 0.30816(16)
H22_4 H 0.2013 0.7351 0.3303
C33_4 C 0.15650(8) 0.6848(2) 0.33934(16)
H23_4 H 0.1664 0.6559 0.3822
C34_4 C 0.12089(8) 0.6802(2) 0.30813(14)
C35_4 C 0.10718(8) 0.7218(2) 0.24295(16)
H24_4 H 0.0834 0.7187 0.2206
C36_4 C 0.12800(8) 0.7674(2) 0.21086(16)
H25_4 H 0.1184 0.7943 0.1672
C37_4 C 0.17619(8) 0.6240(2) 0.68182(15)
H26_4 H 0.1753 0.6874 0.6722
C38_4 C 0.18704(9) 0.4930(2) 0.73535(17)
H27_4 H 0.1952 0.4491 0.7705
C39_4 C 0.16931(10) 0.4736(2) 0.66832(18)
H28_4 H 0.1630 0.4150 0.6490
C40_4 C 0.14569(8) 0.5720(2) 0.56084(14)
C41_4 C 0.14419(9) 0.6607(2) 0.53342(16)
H29_4 H 0.1532 0.7111 0.5623
C42_4 C 0.12922(9) 0.6732(2) 0.46287(16)
H30_4 H 0.1282 0.7330 0.4447
C43_4 C 0.11565(7) 0.6001(2) 0.41763(14)
C44_4 C 0.11695(9) 0.5131(2) 0.44700(17)
H31_4 H 0.1078 0.4625 0.4184
C45_4 C 0.13167(9) 0.4991(2) 0.51849(17)
H32_4 H 0.1319 0.4399 0.5373
C46_4 C 0.27372(10) 0.9606(3) 0.06259(18)
O8_4 O 0.22585(10) 0.8693(2) 0.75371(15)
C47_4 C 0.26524(8) 0.9846(3) 0.98697(17)
C48_4 C 0.25182(9) 0.9149(3) 0.93743(17)
H33_4 H 0.2497 0.8546 0.9523
C49_4 C 0.24166(9) 0.9342(2) 0.86663(18)
C50_4 C 0.22675(11) 0.8592(3) 0.8149(2)
N7_3 N 0.69121(6) 0.91260(18) 0.24384(12)
N8_5 N 0.66241(7) 0.94224(18) 0.13429(13)
C37_5 C 0.67619(8) 0.8760(2) 0.18182(15)
H26_5 H 0.6753 0.8126 0.1722
C40_5 C 0.64569(8) 0.9280(2) 0.06084(14)
C41_5 C 0.64419(9) 0.8393(2) 0.03342(16)
H29_5 H 0.6532 0.7889 0.0623
Co6_2 Co 0.72115(2) 0.84562(3) 0.32855(2)
Co1 Co 0.41648(2) 0.46531(3) 0.87910(2)
Co2_3 Co 0.77885(2) 0.65438(3) 0.67145(2)
O1_5 O 0.38255(7) 0.48350(16) 0.78449(11)
O2_5 O 0.43091(7) 0.46354(18) 0.75886(12)
O3_3 O 0.38213(6) 0.53207(15) 0.43176(11)
O4_4 O 0.43225(7) 0.53168(17) 0.51508(12)
O5_5 O 0.78021(8) 0.6245(2) 0.57840(13)
O6_3 O 0.77232(9) 0.4806(3) 0.60537(15)
O7_3 O 0.71436(10) 0.71193(19) 0.3370(2)
O8_5 O 0.72585(10) 0.6307(2) 0.25371(15)
N1_4 N 0.44475(7) 0.58368(19) 0.89491(14)
N2_4 N 0.48144(7) 0.69210(18) 0.88771(13)
N5_5 N 0.73044(7) 0.64757(17) 0.67788(13)
N6_5 N 0.68500(7) 0.67974(17) 0.71086(13)
C1_5 C 0.39991(9) 0.4837(2) 0.74132(15)
C2_4 C 0.38072(8) 0.5102(2) 0.66713(14)
C3_4 C 0.39815(8) 0.5093(2) 0.61756(14)
H1_5 H 0.4214 0.4921 0.6304
C4_4 C 0.38097(8) 0.53404(19) 0.54906(15)
C5_5 C 0.40026(9) 0.5326(2) 0.49644(15)
C6_4 C 0.34661(9) 0.5600(2) 0.53037(16)
H2_5 H 0.3350 0.5761 0.4843
C7_4 C 0.32928(9) 0.5623(3) 0.57955(18)
H3_4 H 0.3062 0.5811 0.5669
C8_4 C 0.34642(9) 0.5365(2) 0.64808(16)
H4_4 H 0.3347 0.5370 0.6811
C9_4 C 0.46748(8) 0.6098(2) 0.86448(16)
H5_4 H 0.4732 0.5750 0.8307
C10_4 C 0.46550(10) 0.7226(2) 0.93509(19)
H6_4 H 0.4695 0.7784 0.9596
C11_4 C 0.44329(9) 0.6560(2) 0.93870(19)
H7_4 H 0.4289 0.6580 0.9667
C12_5 C 0.50894(8) 0.7379(2) 0.86977(15)
C13_5 C 0.53226(9) 0.6865(2) 0.84815(17)
H8_5 H 0.5295 0.6224 0.8426
C14_5 C 0.56000(8) 0.7308(2) 0.83458(17)
H9_5 H 0.5757 0.6959 0.8198
C15_5 C 0.56451(7) 0.8260(2) 0.84269(14)
C16_5 C 0.54026(8) 0.8766(2) 0.86419(16)
H10_5 H 0.5429 0.9407 0.8699
C17_5 C 0.51247(8) 0.8333(2) 0.87708(16)
H11_4 H 0.4963 0.8680 0.8906
C18_5 C 0.59736(7) 0.87776(19) 0.83989(14)
C25_5 C 0.58821(8) 0.96406(19) 0.79238(15)
C26_5 C 0.55691(9) 0.9719(2) 0.74080(17)
H17_5 H 0.5398 0.9275 0.7378
C28_5 C 0.71683(8) 0.7060(2) 0.71262(16)
H19_5 H 0.7280 0.7589 0.7355
C29_5 C 0.70549(9) 0.5795(2) 0.65293(18)
H20_5 H 0.7078 0.5283 0.6264
C30_5 C 0.67755(9) 0.5986(2) 0.67279(18)
H21_5 H 0.6572 0.5640 0.6628
C31_5 C 0.66307(8) 0.72718(19) 0.74395(15)
C32_5 C 0.67757(8) 0.7685(2) 0.80816(16)
H22_5 H 0.7013 0.7649 0.8303
C33_5 C 0.65650(8) 0.8152(2) 0.83934(16)
H23_5 H 0.6664 0.8441 0.8822
C34_5 C 0.62089(8) 0.8198(2) 0.80813(14)
C35_5 C 0.60718(8) 0.7782(2) 0.74295(16)
H24_5 H 0.5834 0.7813 0.7206
C36_5 C 0.62800(8) 0.7326(2) 0.71086(16)
H25_5 H 0.6184 0.7057 0.6672
C42_5 C 0.62922(9) 0.8268(2) 0.96287(16)
H30_5 H 0.6282 0.7670 0.9447
C43_5 C 0.61565(7) 0.8999(2) 0.91763(14)
C44_5 C 0.61695(9) 0.9869(2) 0.94700(17)
C46_5 C 0.77372(10) 0.5394(3) 0.56259(18)
C47_5 C 0.76524(8) 0.5154(3) 0.48697(17)
C48_5 C 0.75182(9) 0.5851(3) 0.43743(17)
H33_5 H 0.7497 0.6454 0.4523
C49_5 C 0.74166(9) 0.5658(2) 0.36663(18)
C50_5 C 0.72675(11) 0.6408(3) 0.3149(2)
C51_3 C 0.74642(9) 0.4767(3) 0.34624(19)
H34_3 H 0.7408 0.4638 0.2988
C52_3 C 0.75894(9) 0.4074(3) 0.3923(2)
H35_3 H 0.7615 0.3479 0.3766
C53_3 C 0.76816(9) 0.4261(3) 0.4647(2)
H36_3 H 0.7761 0.3785 0.4969
Co4_3 Co 0.41648(2) 0.53469(3) 0.37910(2)
O9_3 O 0.38213(6) 0.46793(15) 0.93176(11)
O10_3 O 0.78564(10) 0.78807(19) 0.6630(2)
N9_3 N 0.43174(7) 0.33133(19) 0.88732(14)
N10_3 N 0.80879(6) 0.58740(18) 0.75616(12)
N4_5 N 0.43125(7) 0.18807(19) 0.85039(13)
C19_5 C 0.42523(10) 0.2761(2) 0.83253(17)
H12_5 H 0.4173 0.2969 0.7866
C20_5 C 0.44165(11) 0.1837(3) 0.92207(18)
H13_5 H 0.4472 0.1307 0.9497
C21_5 C 0.44218(10) 0.2731(3) 0.94384(18)
H14_5 H 0.4486 0.2920 0.9902
C22_5 C 0.42489(9) 0.1111(2) 0.80234(15)
C23_5 C 0.39318(8) 0.1048(2) 0.75146(17)
H15_5 H 0.3763 0.1498 0.7484
C24_5 C 0.38654(8) 0.0310(2) 0.70473(17)
H16_5 H 0.3649 0.0261 0.6710
C27_5 C 0.44985(10) 0.0450(2) 0.80722(18)
H18_5 H 0.4711 0.0488 0.8421
C38_5 C 0.31296(9) 0.0070(2) 0.26465(17)
H27_5 H 0.3048 0.0509 0.2295
C39_5 C 0.33069(10) 0.0264(2) 0.33168(18)
H28_5 H 0.3370 0.0850 0.3510
H31_5 H 0.3922 0.0375 0.5816
C45_5 C 0.36833(9) 0.0009(2) 0.48151(17)
H32_5 H 0.3681 0.0601 0.4627
O3_4 O 0.88213(6) 0.03207(15) 0.43176(11)
O4_5 O 0.93225(7) 0.03168(17) 0.51508(12)
N1_5 N 0.94475(7) 0.08368(19) 0.89491(14)
N2_5 N 0.98144(7) 0.19210(18) 0.88771(13)
C2_5 C 0.88072(8) 0.0102(2) 0.66713(14)
C3_5 C 0.89815(8) 0.0093(2) 0.61756(14)
C4_5 C 0.88097(8) 0.03404(19) 0.54906(15)
C5_6 C 0.90026(9) 0.0326(2) 0.49644(15)
C6_5 C 0.84661(9) 0.0600(2) 0.53037(16)
H2_6 H 0.8350 0.0761 0.4843
C7_5 C 0.82928(9) 0.0623(3) 0.57955(18)
H3_5 H 0.8062 0.0811 0.5669
C8_5 C 0.84642(9) 0.0365(2) 0.64808(16)
H4_5 H 0.8347 0.0370 0.6811
C9_5 C 0.96748(8) 0.1098(2) 0.86448(16)
H5_5 H 0.9732 0.0750 0.8307
C10_5 C 0.96550(10) 0.2226(2) 0.93509(19)
H6_5 H 0.9695 0.2784 0.9596
C11_5 C 0.94329(9) 0.1560(2) 0.93870(19)
H7_5 H 0.9289 0.1580 0.9667
H11_5 H 0.9963 0.3680 0.8906
Co4_4 Co 0.91648(2) 0.03469(3) 0.37910(2)
Co1_2 Co 0.91648(2) 0.96531(3) 0.87910(2)
O1_6 O 0.88255(7) 0.98350(16) 0.78449(11)
O2_6 O 0.93091(7) 0.96354(18) 0.75886(12)
C1_6 C 0.89991(9) 0.9837(2) 0.74132(15)
H1_6 H 0.9214 0.9921 0.6304
O9_4 O 0.88213(6) 0.96793(15) 0.93176(11)
N9_4 N 0.93174(7) 0.83133(19) 0.88732(14)
O7_4 O 0.78564(10) 0.21193(19) 0.1630(2)
O8_6 O 0.77415(10) 0.1307(2) 0.24629(15)
C47_6 C 0.73476(8) 0.0154(3) 0.01303(17)
C48_6 C 0.74818(9) 0.0851(3) 0.06257(17)
H33_6 H 0.7503 0.1454 0.0477
C49_6 C 0.75834(9) 0.0658(2) 0.13337(18)
C50_6 C 0.77325(11) 0.1408(3) 0.1851(2)
Co5_2 Co 0.77885(2) 0.34562(3) 0.17145(2)
Co2_4 Co 0.72115(2) 0.15438(3) 0.82855(2)
O5_6 O 0.71979(8) 0.1245(2) 0.92160(13)
N4_6 N 0.93125(7) 0.68807(19) 0.85039(13)
N5_6 N 0.76956(7) 0.14757(17) 0.82212(13)
N6_6 N 0.81500(7) 0.17974(17) 0.78914(13)
N7_4 N 0.80879(6) 0.41260(18) 0.25616(12)
N8_6 N 0.83759(7) 0.44224(18) 0.36571(13)
C12_6 C 0.99106(8) 0.2379(2) 0.63023(15)
C13_6 C 0.96774(9) 0.1865(2) 0.65185(17)
H8_6 H 0.9705 0.1224 0.6574
C14_6 C 0.94000(8) 0.2308(2) 0.66542(17)
H9_6 H 0.9243 0.1959 0.6802
C15_6 C 0.93549(7) 0.3260(2) 0.65731(14)
C16_6 C 0.95974(8) 0.3766(2) 0.63581(16)
H10_6 H 0.9571 0.4407 0.6301
C17_6 C 0.98753(8) 0.3333(2) 0.62292(16)
C18_6 C 0.90264(7) 0.37776(19) 0.66011(14)
C19_6 C 0.92523(10) 0.7761(2) 0.83253(17)
H12_6 H 0.9173 0.7969 0.7866
C20_6 C 0.94165(11) 0.6837(3) 0.92207(18)
H13_6 H 0.9472 0.6307 0.9497
C21_6 C 0.94218(10) 0.7731(3) 0.94384(18)
H14_6 H 0.9486 0.7920 0.9902
C22_6 C 0.92489(9) 0.6111(2) 0.80234(15)
C23_6 C 0.89318(8) 0.6048(2) 0.75146(17)
H15_6 H 0.8763 0.6498 0.7484
C24_6 C 0.88654(8) 0.5310(2) 0.70473(17)
H16_6 H 0.8649 0.5261 0.6710
C25_6 C 0.91179(8) 0.46406(19) 0.70762(15)
C26_6 C 0.94309(9) 0.4719(2) 0.75920(17)
H17_6 H 0.9602 0.4275 0.7622
C27_6 C 0.94985(10) 0.5450(2) 0.80722(18)
H18_6 H 0.9711 0.5488 0.8421
C28_6 C 0.78317(8) 0.2060(2) 0.78738(16)
H19_6 H 0.7720 0.2589 0.7645
C29_6 C 0.79451(9) 0.0795(2) 0.84707(18)
H20_6 H 0.7922 0.0283 0.8736
C30_6 C 0.82245(9) 0.0986(2) 0.82721(18)
H21_6 H 0.8428 0.0640 0.8372
C31_6 C 0.83693(8) 0.22718(19) 0.75605(15)
C32_6 C 0.82243(8) 0.2685(2) 0.69184(16)
H22_6 H 0.7987 0.2649 0.6697
C33_6 C 0.84350(8) 0.3152(2) 0.66066(16)
H23_6 H 0.8336 0.3441 0.6178
C34_6 C 0.87911(8) 0.3198(2) 0.69187(14)
C35_6 C 0.89282(8) 0.2782(2) 0.75705(16)
H24_6 H 0.9166 0.2813 0.7794
C36_6 C 0.87200(8) 0.2326(2) 0.78914(16)
H25_6 H 0.8816 0.2057 0.8328
C37_6 C 0.82381(8) 0.3760(2) 0.31818(15)
H26_6 H 0.8247 0.3126 0.3278
C38_6 C 0.81296(9) 0.5070(2) 0.26465(17)
H27_6 H 0.8048 0.5509 0.2295
C39_6 C 0.83069(10) 0.5264(2) 0.33168(18)
H28_6 H 0.8370 0.5850 0.3510
C40_6 C 0.85431(8) 0.4280(2) 0.43916(14)
C41_6 C 0.85581(9) 0.3393(2) 0.46658(16)
H29_6 H 0.8468 0.2889 0.4377
C42_6 C 0.87078(9) 0.3268(2) 0.53713(16)
H30_6 H 0.8718 0.2670 0.5553
C43_6 C 0.88435(7) 0.3999(2) 0.58237(14)
C44_6 C 0.88305(9) 0.4869(2) 0.55300(17)
H31_6 H 0.8922 0.5375 0.5816
C45_6 C 0.86833(9) 0.5009(2) 0.48151(17)
H32_6 H 0.8681 0.5601 0.4627
C46_6 C 0.72628(10) 0.0394(3) 0.93741(18)
O10_4 O 0.71436(10) 0.28807(19) 0.8370(2)
N10_4 N 0.69121(6) 0.08740(18) 0.74384(12)
N3_3 N 0.43174(7) 0.66867(19) 0.38732(14)
N4_7 N 0.43125(7) 0.81193(19) 0.35039(13)
C19_7 C 0.42523(10) 0.7239(2) 0.33253(17)
H12_7 H 0.4173 0.7031 0.2866
C20_7 C 0.44165(11) 0.8163(3) 0.42207(18)
H13_7 H 0.4472 0.8693 0.4497
C21_7 C 0.44218(10) 0.7269(3) 0.44384(18)
H14_7 H 0.4486 0.7080 0.4902
C22_7 C 0.42489(9) 0.8889(2) 0.30234(15)
C23_7 C 0.39318(8) 0.8952(2) 0.25146(17)
H15_7 H 0.3763 0.8502 0.2484
C24_7 C 0.38654(8) 0.9690(2) 0.20473(17)
H16_7 H 0.3649 0.9739 0.1710
C27_7 C 0.44985(10) 0.9550(2) 0.30722(18)
H18_7 H 0.4711 0.9512 0.3421
H31_7 H 0.3922 0.9625 0.0816
O1_7 O 0.38255(7) 0.51650(16) 0.28449(11)
O2_7 O 0.43091(7) 0.53646(18) 0.25886(12)
O4_6 O 0.43225(7) 0.46832(17) 0.01508(12)
O5_7 O 0.78021(8) 0.3755(2) 0.07840(13)
O6_4 O 0.77232(9) 0.5194(3) 0.10537(15)
N1_6 N 0.44475(7) 0.41632(19) 0.39491(14)
N2_6 N 0.48144(7) 0.30790(18) 0.38771(13)
N5_7 N 0.73044(7) 0.35243(17) 0.17788(13)
N6_7 N 0.68500(7) 0.32026(17) 0.21086(13)
N8_7 N 0.66241(7) 0.05776(18) 0.63429(13)
C1_7 C 0.39991(9) 0.5163(2) 0.24132(15)
C2_6 C 0.38072(8) 0.4898(2) 0.16713(14)
C3_6 C 0.39815(8) 0.4907(2) 0.11756(14)
H1_7 H 0.4214 0.5079 0.1304
C4_6 C 0.38097(8) 0.46596(19) 0.04906(15)
C6_6 C 0.34661(9) 0.4400(2) 0.03037(16)
C7_6 C 0.32928(9) 0.4377(3) 0.07955(18)
H3_6 H 0.3062 0.4189 0.0669
C8_6 C 0.34642(9) 0.4635(2) 0.14808(16)
H4_6 H 0.3347 0.4630 0.1811
C9_6 C 0.46748(8) 0.3902(2) 0.36448(16)
H5_6 H 0.4732 0.4250 0.3307
C10_6 C 0.46550(10) 0.2774(2) 0.43509(19)
H6_6 H 0.4695 0.2216 0.4596
C11_6 C 0.44329(9) 0.3440(2) 0.43870(19)
H7_6 H 0.4289 0.3420 0.4667
C12_7 C 0.50894(8) 0.2621(2) 0.36977(15)
C13_7 C 0.53226(9) 0.3135(2) 0.34815(17)
H8_7 H 0.5295 0.3776 0.3426
C14_7 C 0.56000(8) 0.2692(2) 0.33458(17)
H9_7 H 0.5757 0.3041 0.3198
C15_7 C 0.56451(7) 0.1740(2) 0.34269(14)
C16_7 C 0.54026(8) 0.1234(2) 0.36419(16)
H10_7 H 0.5429 0.0593 0.3699
C17_7 C 0.51247(8) 0.1667(2) 0.37708(16)
H11_6 H 0.4963 0.1320 0.3906
C18_7 C 0.59736(7) 0.12224(19) 0.33989(14)
C25_7 C 0.58821(8) 0.03594(19) 0.29238(15)
C26_7 C 0.55691(9) 0.0281(2) 0.24080(17)
H17_7 H 0.5398 0.0725 0.2378
C28_7 C 0.71683(8) 0.2940(2) 0.21262(16)
H19_7 H 0.7280 0.2411 0.2355
C29_7 C 0.70549(9) 0.4205(2) 0.15293(18)
H20_7 H 0.7078 0.4717 0.1264
C30_7 C 0.67755(9) 0.4014(2) 0.17279(18)
H21_7 H 0.6572 0.4360 0.1628
C31_7 C 0.66307(8) 0.27282(19) 0.24395(15)
C32_7 C 0.67757(8) 0.2315(2) 0.30816(16)
H22_7 H 0.7013 0.2351 0.3303
C33_7 C 0.65650(8) 0.1848(2) 0.33934(16)
H23_7 H 0.6664 0.1559 0.3822
C34_7 C 0.62089(8) 0.1802(2) 0.30813(14)
C35_7 C 0.60718(8) 0.2218(2) 0.24295(16)
H24_7 H 0.5834 0.2187 0.2206
C36_7 C 0.62800(8) 0.2674(2) 0.21086(16)
H25_7 H 0.6184 0.2943 0.1672
C37_7 C 0.67619(8) 0.1240(2) 0.68182(15)
H26_7 H 0.6753 0.1874 0.6722
C40_7 C 0.64569(8) 0.0720(2) 0.56084(14)
C41_7 C 0.64419(9) 0.1607(2) 0.53342(16)
H29_7 H 0.6532 0.2111 0.5623
C42_7 C 0.62922(9) 0.1732(2) 0.46287(16)
H30_7 H 0.6282 0.2330 0.4447
C43_7 C 0.61565(7) 0.1001(2) 0.41763(14)
C44_7 C 0.61695(9) 0.0131(2) 0.44700(17)
C46_7 C 0.77372(10) 0.4606(3) 0.06259(18)
O8_7 O 0.72585(10) 0.3693(2) 0.75371(15)
C5_7 C 0.40026(9) 0.4674(2) 0.99644(15)
H2_7 H 0.3350 0.4239 0.9843
C47_7 C 0.76524(8) 0.4846(3) 0.98697(17)
C48_7 C 0.75182(9) 0.4149(3) 0.93743(17)
H33_7 H 0.7497 0.3546 0.9523
C49_7 C 0.74166(9) 0.4342(2) 0.86663(18)
C50_7 C 0.72675(11) 0.3592(3) 0.8149(2)
C51_4 C 0.74642(9) 0.5233(3) 0.84624(19)
H34_4 H 0.7408 0.5362 0.7988
C52_4 C 0.75894(9) 0.5926(3) 0.8923(2)
H35_4 H 0.7615 0.6521 0.8766
C53_4 C 0.76816(9) 0.5739(3) 0.9647(2)
H36_4 H 0.7761 0.6215 0.9969
O5_8 O 0.71979(8) 0.8755(2) 0.42160(13)
O8_8 O 0.77415(10) 0.8693(2) 0.74629(15)
N3_4 N 0.93174(7) 0.16867(19) 0.38732(14)
N4_8 N 0.93125(7) 0.31193(19) 0.35039(13)
N5_8 N 0.76956(7) 0.85243(17) 0.32212(13)
N6_8 N 0.81500(7) 0.82026(17) 0.28914(13)
C12_8 C 0.99106(8) 0.7621(2) 0.13023(15)
C13_8 C 0.96774(9) 0.8135(2) 0.15185(17)
H8_8 H 0.9705 0.8776 0.1574
C14_8 C 0.94000(8) 0.7692(2) 0.16542(17)
H9_8 H 0.9243 0.8041 0.1802
C15_8 C 0.93549(7) 0.6740(2) 0.15731(14)
C16_8 C 0.95974(8) 0.6234(2) 0.13581(16)
H10_8 H 0.9571 0.5593 0.1301
C17_8 C 0.98753(8) 0.6667(2) 0.12292(16)
C18_8 C 0.90264(7) 0.62224(19) 0.16011(14)
C19_8 C 0.92523(10) 0.2239(2) 0.33253(17)
H12_8 H 0.9173 0.2031 0.2866
C20_8 C 0.94165(11) 0.3163(3) 0.42207(18)
H13_8 H 0.9472 0.3693 0.4497
C21_8 C 0.94218(10) 0.2269(3) 0.44384(18)
H14_8 H 0.9486 0.2080 0.4902
C22_8 C 0.92489(9) 0.3889(2) 0.30234(15)
C23_8 C 0.89318(8) 0.3952(2) 0.25146(17)
H15_8 H 0.8763 0.3502 0.2484
C24_8 C 0.88654(8) 0.4690(2) 0.20473(17)
H16_8 H 0.8649 0.4739 0.1710
C25_8 C 0.91179(8) 0.53594(19) 0.20762(15)
C26_8 C 0.94309(9) 0.5281(2) 0.25920(17)
H17_8 H 0.9602 0.5725 0.2622
C27_8 C 0.94985(10) 0.4550(2) 0.30722(18)
H18_8 H 0.9711 0.4512 0.3421
C28_8 C 0.78317(8) 0.7940(2) 0.28738(16)
H19_8 H 0.7720 0.7411 0.2645
C29_8 C 0.79451(9) 0.9205(2) 0.34707(18)
H20_8 H 0.7922 0.9717 0.3736
C30_8 C 0.82245(9) 0.9014(2) 0.32721(18)
H21_8 H 0.8428 0.9360 0.3372
C31_8 C 0.83693(8) 0.77282(19) 0.25605(15)
C32_8 C 0.82243(8) 0.7315(2) 0.19184(16)
H22_8 H 0.7987 0.7351 0.1697
C33_8 C 0.84350(8) 0.6848(2) 0.16066(16)
H23_8 H 0.8336 0.6559 0.1178
C34_8 C 0.87911(8) 0.6802(2) 0.19187(14)
C35_8 C 0.89282(8) 0.7218(2) 0.25705(16)
H24_8 H 0.9166 0.7187 0.2794
C36_8 C 0.87200(8) 0.7674(2) 0.28914(16)
H25_8 H 0.8816 0.7943 0.3328
C42_8 C 0.87078(9) 0.6732(2) 0.03713(16)
H30_8 H 0.8718 0.7330 0.0553
C43_8 C 0.88435(7) 0.6001(2) 0.08237(14)
C44_8 C 0.88305(9) 0.5131(2) 0.05300(17)
H31_8 H 0.8922 0.4625 0.0816
C46_8 C 0.72628(10) 0.9606(3) 0.43741(18)
C47_8 C 0.73476(8) 0.9846(3) 0.51303(17)
C48_8 C 0.74818(9) 0.9149(3) 0.56257(17)
H33_8 H 0.7503 0.8546 0.5477
C49_8 C 0.75834(9) 0.9342(2) 0.63337(18)
C50_8 C 0.77325(11) 0.8592(3) 0.6851(2)
N8_8 N 0.83759(7) 0.55776(18) 0.86571(13)
C37_8 C 0.82381(8) 0.6240(2) 0.81818(15)
H26_8 H 0.8247 0.6874 0.8278
C38_7 C 0.81296(9) 0.4930(2) 0.76465(17)
H27_7 H 0.8048 0.4491 0.7295
C39_7 C 0.83069(10) 0.4736(2) 0.83168(18)
H28_7 H 0.8370 0.4150 0.8510
C40_8 C 0.85431(8) 0.5720(2) 0.93916(14)
C41_8 C 0.85581(9) 0.6607(2) 0.96658(16)
H29_8 H 0.8468 0.7111 0.9377
C45_7 C 0.86833(9) 0.4991(2) 0.98151(17)
H32_7 H 0.8681 0.4399 0.9627
O1_8 O 0.88255(7) 0.01650(16) 0.28449(11)
O2_8 O 0.93091(7) 0.03646(18) 0.25886(12)
C1_8 C 0.89991(9) 0.0163(2) 0.24132(15)
H1_8 H 0.9214 0.0079 0.1304
C5_8 C 0.90026(9) 0.9674(2) 0.99644(15)
H2_8 H 0.8350 0.9239 0.9843
O6_5 O 0.27232(9) 0.9806(3) 0.60537(15)
C51_5 C 0.24642(9) 0.9767(3) 0.34624(19)
H34_5 H 0.2408 0.9638 0.2988
C52_5 C 0.25894(9) 0.9074(3) 0.3923(2)
H35_5 H 0.2615 0.8479 0.3766
C53_5 C 0.26816(9) 0.9261(3) 0.4647(2)
H36_5 H 0.2761 0.8785 0.4969
O4_7 O 0.06775(7) 0.03168(17) 0.98492(12)
N1_7 N 0.05525(7) 0.08368(19) 0.60509(14)
N2_7 N 0.01856(7) 0.19210(18) 0.61229(13)
C2_7 C 0.11928(8) 0.0102(2) 0.83287(14)
C3_7 C 0.10185(8) 0.0093(2) 0.88244(14)
C4_7 C 0.11903(8) 0.03404(19) 0.95094(15)
C6_7 C 0.15339(9) 0.0600(2) 0.96963(16)
C7_7 C 0.17072(9) 0.0623(3) 0.92045(18)
H3_7 H 0.1938 0.0811 0.9331
C8_7 C 0.15358(9) 0.0365(2) 0.85192(16)
H4_7 H 0.1653 0.0370 0.8189
C9_7 C 0.03252(8) 0.1098(2) 0.63552(16)
H5_7 H 0.0268 0.0750 0.6693
C10_7 C 0.03450(10) 0.2226(2) 0.56491(19)
H6_7 H 0.0305 0.2784 0.5404
C11_7 C 0.05671(9) 0.1560(2) 0.56130(19)
H7_7 H 0.0711 0.1580 0.5333
H11_7 H 0.0037 0.3680 0.6094
C51_6 C 0.75358(9) 0.9767(3) 0.15376(19)
H34_6 H 0.7592 0.9638 0.2012
C52_6 C 0.74106(9) 0.9074(3) 0.1077(2)
H35_6 H 0.7385 0.8479 0.1234
C53_6 C 0.73184(9) 0.9261(3) 0.0353(2)
H36_6 H 0.7239 0.8785 0.0031
O6_6 O 0.72768(9) 0.9806(3) 0.89463(15)
C38_8 C 0.31296(9) 0.9930(2) 0.76465(17)
H27_8 H 0.3048 0.9491 0.7295
C39_8 C 0.33069(10) 0.9736(2) 0.83168(18)
H28_8 H 0.3370 0.9150 0.8510
C45_8 C 0.36833(9) 0.9991(2) 0.98151(17)
H32_8 H 0.3681 0.9399 0.9627
O6_7 O 0.72768(9) 0.0194(3) 0.39463(15)
C51_7 C 0.75358(9) 0.0233(3) 0.65376(19)
H34_7 H 0.7592 0.0362 0.7012
C52_7 C 0.74106(9) 0.0926(3) 0.6077(2)
H35_7 H 0.7385 0.1521 0.6234
C53_7 C 0.73184(9) 0.0739(3) 0.5353(2)
H36_7 H 0.7239 0.1215 0.5031
O6_8 O 0.27232(9) 0.0194(3) 0.10537(15)
C51_8 C 0.24642(9) 0.0233(3) 0.84624(19)
H34_8 H 0.2408 0.0362 0.7988
C52_8 C 0.25894(9) 0.0926(3) 0.8923(2)
H35_8 H 0.2615 0.1521 0.8766
C53_8 C 0.26816(9) 0.0739(3) 0.9647(2)
H36_8 H 0.2761 0.1215 0.9969
O4_8 O 0.93225(7) 0.96832(17) 0.01508(12)
N1_8 N 0.94475(7) 0.91632(19) 0.39491(14)
N2_8 N 0.98144(7) 0.80790(18) 0.38771(13)
C2_8 C 0.88072(8) 0.9898(2) 0.16713(14)
C3_8 C 0.89815(8) 0.9907(2) 0.11756(14)
C4_8 C 0.88097(8) 0.96596(19) 0.04906(15)
C6_8 C 0.84661(9) 0.9400(2) 0.03037(16)
C7_8 C 0.82928(9) 0.9377(3) 0.07955(18)
H3_8 H 0.8062 0.9189 0.0669
C8_8 C 0.84642(9) 0.9635(2) 0.14808(16)
H4_8 H 0.8347 0.9630 0.1811
C9_8 C 0.96748(8) 0.8902(2) 0.36448(16)
H5_8 H 0.9732 0.9250 0.3307
C10_8 C 0.96550(10) 0.7774(2) 0.43509(19)
H6_8 H 0.9695 0.7216 0.4596
C11_8 C 0.94329(9) 0.8440(2) 0.43870(19)
H7_8 H 0.9289 0.8420 0.4667
H11_8 H 0.9963 0.6320 0.3906
loop_
_geom_bond_atom_site_label_1
_geom_bond_atom_site_label_2
_geom_bond_site_symmetry_1
_geom_bond_site_symmetry_2
H27 C38 1_555 1_555
H28 C39 1_555 1_555
H32 C45 1_555 1_555
C38 C39 1_555 1_555
N3 C19 1_555 1_555
N4 C19 1_555 1_555
C19 H12 1_555 1_555
C20 N4 1_555 1_555
H13 C20 1_555 1_555
C21 N3 1_555 1_555
H14 C21 1_555 1_555
C22 N4 1_555 1_555
C23 C22 1_555 1_555
H15 C23 1_555 1_555
C24 C23 1_555 1_555
H16 C24 1_555 1_555
C27 C22 1_555 1_555
H18 C27 1_555 1_555
Co3 N3 1_555 1_555
C20 C21 1_555 1_555
O3 C5 1_555 1_555
O7 C50 1_555 1_555
O8 C50 1_555 1_555
C47 C48 1_555 1_555
C48 H33 1_555 1_555
C49 C48 1_555 1_555
C50 C49 1_555 1_555
C51 C49 1_555 1_555
H34 C51 1_555 1_555
C52 C51 1_555 1_555
H35 C52 1_555 1_555
C53 C47 1_555 1_555
H36 C53 1_555 1_555
Co4 O3 1_555 1_555
Co5 O7 1_555 1_555
C52 C53 1_555 1_555
Co3 O1 1_555 1_555
Co2 O5 1_555 1_555
O1 C1 1_555 1_555
O2 C1 1_555 1_555
O5 C46 1_555 1_555
O6 C46 1_555 1_555
N1 Co3 1_555 1_555
N2 C9 1_555 1_555
N5 Co2 1_555 1_555
N6 C28 1_555 1_555
N7 C37 1_555 1_555
N8 C37 1_555 1_555
C1 C2 1_555 1_555
C2 C3 1_555 1_555
C3 H1 1_555 1_555
C4 C3 1_555 1_555
C6 C4 1_555 1_555
C7 C6 1_555 1_555
H3 C7 1_555 1_555
C8 C2 1_555 1_555
H4 C8 1_555 1_555
C9 N1 1_555 1_555
H5 C9 1_555 1_555
C10 N2 1_555 1_555
H6 C10 1_555 1_555
C11 N1 1_555 1_555
H7 C11 1_555 1_555
C12 N2 1_555 1_555
C13 C12 1_555 1_555
H8 C13 1_555 1_555
C14 C13 1_555 1_555
H9 C14 1_555 1_555
C15 C14 1_555 1_555
C16 C15 1_555 1_555
H10 C16 1_555 1_555
C17 C12 1_555 1_555
H11 C17 1_555 1_555
C18 C15 1_555 1_555
C25 C18 1_555 1_555
C26 C25 1_555 1_555
H17 C26 1_555 1_555
C28 N5 1_555 1_555
H19 C28 1_555 1_555
C29 N5 1_555 1_555
H20 C29 1_555 1_555
C30 N6 1_555 1_555
H21 C30 1_555 1_555
C31 N6 1_555 1_555
C32 C31 1_555 1_555
H22 C32 1_555 1_555
C33 C32 1_555 1_555
H23 C33 1_555 1_555
C34 C18 1_555 1_555
C35 C34 1_555 1_555
H24 C35 1_555 1_555
C36 C31 1_555 1_555
H25 C36 1_555 1_555
C37 H26 1_555 1_555
C40 N8 1_555 1_555
C41 C40 1_555 1_555
H29 C41 1_555 1_555
C42 C41 1_555 1_555
H30 C42 1_555 1_555
C43 C18 1_555 1_555
C44 C43 1_555 1_555
Co5 N7 1_555 1_555
O9 Co3 1_555 1_555
O10 Co2 1_555 1_555
N10 Co2 1_555 1_555
C7 C8 1_555 1_555
C10 C11 1_555 1_555
C16 C17 1_555 1_555
C29 C30 1_555 1_555
C33 C34 1_555 1_555
C35 C36 1_555 1_555
C42 C43 1_555 1_555
N7_2 C37_2 1_555 1_555
N8_2 C37_2 1_555 1_555
C37_2 H26_2 1_555 1_555
C38_2 N7_2 1_555 1_555
H27_2 C38_2 1_555 1_555
C39_2 N8_2 1_555 1_555
H28_2 C39_2 1_555 1_555
C40_2 N8_2 1_555 1_555
C41_2 C40_2 1_555 1_555
H29_2 C41_2 1_555 1_555
C45_2 C40_2 1_555 1_555
H32_2 C45_2 1_555 1_555
Co6 N7_2 1_555 1_555
C38_2 C39_2 1_555 1_555
Co2_2 O5_2 1_555 1_555
O5_2 C46_2 1_555 1_555
O7_2 C50_2 1_555 1_555
O8_2 C50_2 1_555 1_555
N3_2 C19_2 1_555 1_555
N4_2 C19_2 1_555 1_555
N5_2 Co2_2 1_555 1_555
N6_2 C28_2 1_555 1_555
C13_2 C12_2 1_555 1_555
H8_2 C13_2 1_555 1_555
C14_2 C13_2 1_555 1_555
H9_2 C14_2 1_555 1_555
C15_2 C14_2 1_555 1_555
C16_2 C15_2 1_555 1_555
H10_2 C16_2 1_555 1_555
C17_2 C12_2 1_555 1_555
C18_2 C15_2 1_555 1_555
C19_2 H12_2 1_555 1_555
C20_2 N4_2 1_555 1_555
H13_2 C20_2 1_555 1_555
C21_2 N3_2 1_555 1_555
H14_2 C21_2 1_555 1_555
C22_2 N4_2 1_555 1_555
C23_2 C22_2 1_555 1_555
H15_2 C23_2 1_555 1_555
C24_2 C23_2 1_555 1_555
H16_2 C24_2 1_555 1_555
C25_2 C18_2 1_555 1_555
C26_2 C25_2 1_555 1_555
H17_2 C26_2 1_555 1_555
C27_2 C22_2 1_555 1_555
H18_2 C27_2 1_555 1_555
C28_2 N5_2 1_555 1_555
H19_2 C28_2 1_555 1_555
C29_2 N5_2 1_555 1_555
H20_2 C29_2 1_555 1_555
C30_2 N6_2 1_555 1_555
H21_2 C30_2 1_555 1_555
C31_2 N6_2 1_555 1_555
C32_2 C31_2 1_555 1_555
H22_2 C32_2 1_555 1_555
C33_2 C32_2 1_555 1_555
H23_2 C33_2 1_555 1_555
C34_2 C18_2 1_555 1_555
C35_2 C34_2 1_555 1_555
H24_2 C35_2 1_555 1_555
C36_2 C31_2 1_555 1_555
H25_2 C36_2 1_555 1_555
H30_2 C42_2 1_555 1_555
C43_2 C18_2 1_555 1_555
C44_2 C43_2 1_555 1_555
H31_2 C44_2 1_555 1_555
C46_2 C47_2 1_555 1_555
C47_2 C48_2 1_555 1_555
C48_2 H33_2 1_555 1_555
C49_2 C48_2 1_555 1_555
C50_2 C49_2 1_555 1_555
Co3_2 N3_2 1_555 1_555
Co6 O7_2 1_555 1_555
O10_2 Co2_2 1_555 1_555
N10_2 Co2_2 1_555 1_555
C16_2 C17_2 1_555 1_555
C20_2 C21_2 1_555 1_555
C24_2 C25_2 1_555 1_555
C26_2 C27_2 1_555 1_555
C29_2 C30_2 1_555 1_555
C33_2 C34_2 1_555 1_555
C35_2 C36_2 1_555 1_555
C42_2 C43_2 1_555 1_555
O3_2 C5_2 1_555 1_555
Co4_2 O3_2 1_555 1_555
Co3_2 O1_2 1_555 1_555
O1_2 C1_2 1_555 1_555
O2_2 C1_2 1_555 1_555
O9_2 Co3_2 1_555 1_555
Co4 O1_3 1_555 1_555
Co6 O5_3 1_555 1_555
O1_3 C1_3 1_555 1_555
O2_3 C1_3 1_555 1_555
O9 C5_3 1_555 1_555
O4_2 C5_3 1_555 1_555
O5_3 C46_3 1_555 1_555
O6_2 C46_3 1_555 1_555
O10_2 C50_3 1_555 1_555
O8_3 C50_3 1_555 1_555
N1_2 Co4 1_555 1_555
N2_2 C9_2 1_555 1_555
N5_3 Co6 1_555 1_555
N6_3 C28_3 1_555 1_555
C1_3 C2_2 1_555 1_555
C2_2 C3_2 1_555 1_555
C3_2 H1_3 1_555 1_555
C4_2 C3_2 1_555 1_555
C5_3 C4_2 1_555 1_555
C6_2 C4_2 1_555 1_555
H2_3 C6_2 1_555 1_555
C7_2 C6_2 1_555 1_555
H3_2 C7_2 1_555 1_555
C8_2 C2_2 1_555 1_555
H4_2 C8_2 1_555 1_555
C9_2 N1_2 1_555 1_555
H5_2 C9_2 1_555 1_555
C10_2 N2_2 1_555 1_555
H6_2 C10_2 1_555 1_555
C11_2 N1_2 1_555 1_555
H7_2 C11_2 1_555 1_555
C12_3 N2_2 1_555 1_555
C13_3 C12_3 1_555 1_555
H8_3 C13_3 1_555 1_555
C14_3 C13_3 1_555 1_555
H9_3 C14_3 1_555 1_555
C15_3 C14_3 1_555 1_555
C16_3 C15_3 1_555 1_555
H10_3 C16_3 1_555 1_555
C17_3 C12_3 1_555 1_555
H11_2 C17_3 1_555 1_555
C18_3 C15_3 1_555 1_555
C25_3 C18_3 1_555 1_555
C26_3 C25_3 1_555 1_555
H17_3 C26_3 1_555 1_555
C28_3 N5_3 1_555 1_555
H19_3 C28_3 1_555 1_555
C29_3 N5_3 1_555 1_555
H20_3 C29_3 1_555 1_555
C30_3 N6_3 1_555 1_555
H21_3 C30_3 1_555 1_555
C31_3 N6_3 1_555 1_555
C32_3 C31_3 1_555 1_555
H22_3 C32_3 1_555 1_555
C33_3 C32_3 1_555 1_555
H23_3 C33_3 1_555 1_555
C34_3 C18_3 1_555 1_555
C35_3 C34_3 1_555 1_555
H24_3 C35_3 1_555 1_555
C36_3 C31_3 1_555 1_555
H25_3 C36_3 1_555 1_555
H30_3 C42_3 1_555 1_555
C43_3 C18_3 1_555 1_555
C44_3 C43_3 1_555 1_555
C46_3 C47_3 1_555 1_555
C47_3 C48_3 1_555 1_555
C48_3 H33_3 1_555 1_555
C49_3 C48_3 1_555 1_555
C50_3 C49_3 1_555 1_555
C51_2 C49_3 1_555 1_555
H34_2 C51_2 1_555 1_555
C52_2 C51_2 1_555 1_555
H35_2 C52_2 1_555 1_555
C53_2 C47_3 1_555 1_555
H36_2 C53_2 1_555 1_555
N9 Co4 1_555 1_555
C7_2 C8_2 1_555 1_555
C10_2 C11_2 1_555 1_555
C16_3 C17_3 1_555 1_555
C29_3 C30_3 1_555 1_555
C33_3 C34_3 1_555 1_555
C35_3 C36_3 1_555 1_555
C42_3 C43_3 1_555 1_555
C52_2 C53_2 1_555 1_555
N10_2 C37_3 1_555 1_555
N8_3 C37_3 1_555 1_555
C37_3 H26_3 1_555 1_555
C40_3 N8_3 1_555 1_555
C41_3 C40_3 1_555 1_555
H29_3 C41_3 1_555 1_555
N9 C19_3 1_555 1_555
N4_3 C19_3 1_555 1_555
C19_3 H12_3 1_555 1_555
C20_3 N4_3 1_555 1_555
H13_3 C20_3 1_555 1_555
C21_3 N9 1_555 1_555
H14_3 C21_3 1_555 1_555
C22_3 N4_3 1_555 1_555
C23_3 C22_3 1_555 1_555
H15_3 C23_3 1_555 1_555
C24_3 C23_3 1_555 1_555
H16_3 C24_3 1_555 1_555
C27_3 C22_3 1_555 1_555
H18_3 C27_3 1_555 1_555
H27_3 C38_3 1_555 1_555
H28_3 C39_3 1_555 1_555
H32_3 C45_3 1_555 1_555
C20_3 C21_3 1_555 1_555
C38_3 C39_3 1_555 1_555
Co4_2 O1_4 1_555 1_555
O1_4 C1_4 1_555 1_555
O2_4 C1_4 1_555 1_555
N9_2 Co4_2 1_555 1_555
O9_2 C5_4 1_555 1_555
O4_3 C5_4 1_555 1_555
N2_3 C9_3 1_555 1_555
C2_3 C3_3 1_555 1_555
C4_3 C3_3 1_555 1_555
C5_4 C4_3 1_555 1_555
C6_3 C4_3 1_555 1_555
H2_4 C6_3 1_555 1_555
C7_3 C6_3 1_555 1_555
H3_3 C7_3 1_555 1_555
C8_3 C2_3 1_555 1_555
H4_3 C8_3 1_555 1_555
C9_3 N1_3 1_555 1_555
H5_3 C9_3 1_555 1_555
C10_3 N2_3 1_555 1_555
H6_3 C10_3 1_555 1_555
C11_3 N1_3 1_555 1_555
H7_3 C11_3 1_555 1_555
C7_3 C8_3 1_555 1_555
C10_3 C11_3 1_555 1_555
Co5 O5_4 1_555 1_555
O5_4 C46_4 1_555 1_555
N9_2 C19_4 1_555 1_555
N4_4 C19_4 1_555 1_555
N5_4 Co5 1_555 1_555
N6_4 C28_4 1_555 1_555
N10 C37_4 1_555 1_555
N8_4 C37_4 1_555 1_555
C13_4 C12_4 1_555 1_555
H8_4 C13_4 1_555 1_555
C14_4 C13_4 1_555 1_555
H9_4 C14_4 1_555 1_555
C15_4 C14_4 1_555 1_555
C16_4 C15_4 1_555 1_555
H10_4 C16_4 1_555 1_555
C17_4 C12_4 1_555 1_555
C18_4 C15_4 1_555 1_555
C19_4 H12_4 1_555 1_555
C20_4 N4_4 1_555 1_555
H13_4 C20_4 1_555 1_555
C21_4 N9_2 1_555 1_555
H14_4 C21_4 1_555 1_555
C22_4 N4_4 1_555 1_555
C23_4 C22_4 1_555 1_555
H15_4 C23_4 1_555 1_555
C24_4 C23_4 1_555 1_555
H16_4 C24_4 1_555 1_555
C25_4 C18_4 1_555 1_555
C26_4 C25_4 1_555 1_555
H17_4 C26_4 1_555 1_555
C27_4 C22_4 1_555 1_555
H18_4 C27_4 1_555 1_555
C28_4 N5_4 1_555 1_555
H19_4 C28_4 1_555 1_555
C29_4 N5_4 1_555 1_555
H20_4 C29_4 1_555 1_555
C30_4 N6_4 1_555 1_555
H21_4 C30_4 1_555 1_555
C31_4 N6_4 1_555 1_555
C32_4 C31_4 1_555 1_555
H22_4 C32_4 1_555 1_555
C33_4 C32_4 1_555 1_555
H23_4 C33_4 1_555 1_555
C34_4 C18_4 1_555 1_555
C35_4 C34_4 1_555 1_555
H24_4 C35_4 1_555 1_555
C36_4 C31_4 1_555 1_555
H25_4 C36_4 1_555 1_555
C37_4 H26_4 1_555 1_555
C38_4 N10 1_555 1_555
H27_4 C38_4 1_555 1_555
C39_4 N8_4 1_555 1_555
H28_4 C39_4 1_555 1_555
C40_4 N8_4 1_555 1_555
C41_4 C40_4 1_555 1_555
H29_4 C41_4 1_555 1_555
C42_4 C41_4 1_555 1_555
H30_4 C42_4 1_555 1_555
C43_4 C18_4 1_555 1_555
C44_4 C43_4 1_555 1_555
H31_4 C44_4 1_555 1_555
C45_4 C40_4 1_555 1_555
H32_4 C45_4 1_555 1_555
C16_4 C17_4 1_555 1_555
C20_4 C21_4 1_555 1_555
C24_4 C25_4 1_555 1_555
C26_4 C27_4 1_555 1_555
C29_4 C30_4 1_555 1_555
C33_4 C34_4 1_555 1_555
C35_4 C36_4 1_555 1_555
C38_4 C39_4 1_555 1_555
C42_4 C43_4 1_555 1_555
C44_4 C45_4 1_555 1_555
O10 C50_4 1_555 1_555
O8_4 C50_4 1_555 1_555
C47_4 C48_4 1_555 1_555
C48_4 H33_4 1_555 1_555
C49_4 C48_4 1_555 1_555
C50_4 C49_4 1_555 1_555
N7_3 C37_5 1_555 1_555
N8_5 C37_5 1_555 1_555
C37_5 H26_5 1_555 1_555
C40_5 N8_5 1_555 1_555
C41_5 C40_5 1_555 1_555
H29_5 C41_5 1_555 1_555
Co6_2 N7_3 1_555 1_555
Co1 O1_5 1_555 1_555
Co2_3 O5_5 1_555 1_555
O1_5 C1_5 1_555 1_555
O2_5 C1_5 1_555 1_555
O3_3 C5_5 1_555 1_555
O4_4 C5_5 1_555 1_555
O5_5 C46_5 1_555 1_555
O6_3 C46_5 1_555 1_555
O7_3 C50_5 1_555 1_555
O8_5 C50_5 1_555 1_555
N1_4 Co1 1_555 1_555
N2_4 C9_4 1_555 1_555
N5_5 Co2_3 1_555 1_555
N6_5 C28_5 1_555 1_555
C1_5 C2_4 1_555 1_555
C2_4 C3_4 1_555 1_555
C3_4 H1_5 1_555 1_555
C4_4 C3_4 1_555 1_555
C5_5 C4_4 1_555 1_555
C6_4 C4_4 1_555 1_555
H2_5 C6_4 1_555 1_555
C7_4 C6_4 1_555 1_555
H3_4 C7_4 1_555 1_555
C8_4 C2_4 1_555 1_555
H4_4 C8_4 1_555 1_555
C9_4 N1_4 1_555 1_555
H5_4 C9_4 1_555 1_555
C10_4 N2_4 1_555 1_555
H6_4 C10_4 1_555 1_555
C11_4 N1_4 1_555 1_555
H7_4 C11_4 1_555 1_555
C12_5 N2_4 1_555 1_555
C13_5 C12_5 1_555 1_555
H8_5 C13_5 1_555 1_555
C14_5 C13_5 1_555 1_555
H9_5 C14_5 1_555 1_555
C15_5 C14_5 1_555 1_555
C16_5 C15_5 1_555 1_555
H10_5 C16_5 1_555 1_555
C17_5 C12_5 1_555 1_555
H11_4 C17_5 1_555 1_555
C18_5 C15_5 1_555 1_555
C25_5 C18_5 1_555 1_555
C26_5 C25_5 1_555 1_555
H17_5 C26_5 1_555 1_555
C28_5 N5_5 1_555 1_555
H19_5 C28_5 1_555 1_555
C29_5 N5_5 1_555 1_555
H20_5 C29_5 1_555 1_555
C30_5 N6_5 1_555 1_555
H21_5 C30_5 1_555 1_555
C31_5 N6_5 1_555 1_555
C32_5 C31_5 1_555 1_555
H22_5 C32_5 1_555 1_555
C33_5 C32_5 1_555 1_555
H23_5 C33_5 1_555 1_555
C34_5 C18_5 1_555 1_555
C35_5 C34_5 1_555 1_555
H24_5 C35_5 1_555 1_555
C36_5 C31_5 1_555 1_555
H25_5 C36_5 1_555 1_555
H30_5 C42_5 1_555 1_555
C43_5 C18_5 1_555 1_555
C44_5 C43_5 1_555 1_555
C46_5 C47_5 1_555 1_555
C47_5 C48_5 1_555 1_555
C48_5 H33_5 1_555 1_555
C49_5 C48_5 1_555 1_555
C50_5 C49_5 1_555 1_555
C51_3 C49_5 1_555 1_555
H34_3 C51_3 1_555 1_555
C52_3 C51_3 1_555 1_555
H35_3 C52_3 1_555 1_555
C53_3 C47_5 1_555 1_555
H36_3 C53_3 1_555 1_555
Co4_3 O3_3 1_555 1_555
Co6_2 O7_3 1_555 1_555
O9_3 Co1 1_555 1_555
O10_3 Co2_3 1_555 1_555
N9_3 Co1 1_555 1_555
N10_3 Co2_3 1_555 1_555
C7_4 C8_4 1_555 1_555
C10_4 C11_4 1_555 1_555
C16_5 C17_5 1_555 1_555
C29_5 C30_5 1_555 1_555
C33_5 C34_5 1_555 1_555
C35_5 C36_5 1_555 1_555
C42_5 C43_5 1_555 1_555
C52_3 C53_3 1_555 1_555
N9_3 C19_5 1_555 1_555
N4_5 C19_5 1_555 1_555
C19_5 H12_5 1_555 1_555
C20_5 N4_5 1_555 1_555
H13_5 C20_5 1_555 1_555
C21_5 N9_3 1_555 1_555
H14_5 C21_5 1_555 1_555
C22_5 N4_5 1_555 1_555
C23_5 C22_5 1_555 1_555
H15_5 C23_5 1_555 1_555
C24_5 C23_5 1_555 1_555
H16_5 C24_5 1_555 1_555
C27_5 C22_5 1_555 1_555
H18_5 C27_5 1_555 1_555
H27_5 C38_5 1_555 1_555
H28_5 C39_5 1_555 1_555
H32_5 C45_5 1_555 1_555
C20_5 C21_5 1_555 1_555
C38_5 C39_5 1_555 1_555
O3_4 C5_6 1_555 1_555
O4_5 C5_6 1_555 1_555
N2_5 C9_5 1_555 1_555
C2_5 C3_5 1_555 1_555
C4_5 C3_5 1_555 1_555
C5_6 C4_5 1_555 1_555
C6_5 C4_5 1_555 1_555
H2_6 C6_5 1_555 1_555
C7_5 C6_5 1_555 1_555
H3_5 C7_5 1_555 1_555
C8_5 C2_5 1_555 1_555
H4_5 C8_5 1_555 1_555
C9_5 N1_5 1_555 1_555
H5_5 C9_5 1_555 1_555
C10_5 N2_5 1_555 1_555
H6_5 C10_5 1_555 1_555
C11_5 N1_5 1_555 1_555
H7_5 C11_5 1_555 1_555
Co4_4 O3_4 1_555 1_555
C7_5 C8_5 1_555 1_555
C10_5 C11_5 1_555 1_555
Co1_2 O1_6 1_555 1_555
O1_6 C1_6 1_555 1_555
O2_6 C1_6 1_555 1_555
O9_4 Co1_2 1_555 1_555
N9_4 Co1_2 1_555 1_555
O7_4 C50_6 1_555 1_555
O8_6 C50_6 1_555 1_555
C47_6 C48_6 1_555 1_555
C48_6 H33_6 1_555 1_555
C49_6 C48_6 1_555 1_555
C50_6 C49_6 1_555 1_555
Co5_2 O7_4 1_555 1_555
Co2_4 O5_6 1_555 1_555
O5_6 C46_6 1_555 1_555
N9_4 C19_6 1_555 1_555
N4_6 C19_6 1_555 1_555
N5_6 Co2_4 1_555 1_555
N6_6 C28_6 1_555 1_555
N7_4 C37_6 1_555 1_555
N8_6 C37_6 1_555 1_555
C13_6 C12_6 1_555 1_555
H8_6 C13_6 1_555 1_555
C14_6 C13_6 1_555 1_555
H9_6 C14_6 1_555 1_555
C15_6 C14_6 1_555 1_555
C16_6 C15_6 1_555 1_555
H10_6 C16_6 1_555 1_555
C17_6 C12_6 1_555 1_555
C18_6 C15_6 1_555 1_555
C19_6 H12_6 1_555 1_555
C20_6 N4_6 1_555 1_555
H13_6 C20_6 1_555 1_555
C21_6 N9_4 1_555 1_555
H14_6 C21_6 1_555 1_555
C22_6 N4_6 1_555 1_555
C23_6 C22_6 1_555 1_555
H15_6 C23_6 1_555 1_555
C24_6 C23_6 1_555 1_555
H16_6 C24_6 1_555 1_555
C25_6 C18_6 1_555 1_555
C26_6 C25_6 1_555 1_555
H17_6 C26_6 1_555 1_555
C27_6 C22_6 1_555 1_555
H18_6 C27_6 1_555 1_555
C28_6 N5_6 1_555 1_555
H19_6 C28_6 1_555 1_555
C29_6 N5_6 1_555 1_555
H20_6 C29_6 1_555 1_555
C30_6 N6_6 1_555 1_555
H21_6 C30_6 1_555 1_555
C31_6 N6_6 1_555 1_555
C32_6 C31_6 1_555 1_555
H22_6 C32_6 1_555 1_555
C33_6 C32_6 1_555 1_555
H23_6 C33_6 1_555 1_555
C34_6 C18_6 1_555 1_555
C35_6 C34_6 1_555 1_555
H24_6 C35_6 1_555 1_555
C36_6 C31_6 1_555 1_555
H25_6 C36_6 1_555 1_555
C37_6 H26_6 1_555 1_555
C38_6 N7_4 1_555 1_555
H27_6 C38_6 1_555 1_555
C39_6 N8_6 1_555 1_555
H28_6 C39_6 1_555 1_555
C40_6 N8_6 1_555 1_555
C41_6 C40_6 1_555 1_555
H29_6 C41_6 1_555 1_555
C42_6 C41_6 1_555 1_555
H30_6 C42_6 1_555 1_555
C43_6 C18_6 1_555 1_555
C44_6 C43_6 1_555 1_555
H31_6 C44_6 1_555 1_555
C45_6 C40_6 1_555 1_555
H32_6 C45_6 1_555 1_555
Co5_2 N7_4 1_555 1_555
O10_4 Co2_4 1_555 1_555
N10_4 Co2_4 1_555 1_555
C16_6 C17_6 1_555 1_555
C20_6 C21_6 1_555 1_555
C24_6 C25_6 1_555 1_555
C26_6 C27_6 1_555 1_555
C29_6 C30_6 1_555 1_555
C33_6 C34_6 1_555 1_555
C35_6 C36_6 1_555 1_555
C38_6 C39_6 1_555 1_555
C42_6 C43_6 1_555 1_555
C44_6 C45_6 1_555 1_555
N3_3 C19_7 1_555 1_555
N4_7 C19_7 1_555 1_555
C19_7 H12_7 1_555 1_555
C20_7 N4_7 1_555 1_555
H13_7 C20_7 1_555 1_555
C21_7 N3_3 1_555 1_555
H14_7 C21_7 1_555 1_555
C22_7 N4_7 1_555 1_555
C23_7 C22_7 1_555 1_555
H15_7 C23_7 1_555 1_555
C24_7 C23_7 1_555 1_555
H16_7 C24_7 1_555 1_555
C27_7 C22_7 1_555 1_555
H18_7 C27_7 1_555 1_555
Co4_3 N3_3 1_555 1_555
C20_7 C21_7 1_555 1_555
Co4_3 O1_7 1_555 1_555
Co5_2 O5_7 1_555 1_555
O1_7 C1_7 1_555 1_555
O2_7 C1_7 1_555 1_555
O5_7 C46_7 1_555 1_555
O6_4 C46_7 1_555 1_555
N1_6 Co4_3 1_555 1_555
N2_6 C9_6 1_555 1_555
N5_7 Co5_2 1_555 1_555
N6_7 C28_7 1_555 1_555
N10_4 C37_7 1_555 1_555
N8_7 C37_7 1_555 1_555
C1_7 C2_6 1_555 1_555
C2_6 C3_6 1_555 1_555
C3_6 H1_7 1_555 1_555
C4_6 C3_6 1_555 1_555
C6_6 C4_6 1_555 1_555
C7_6 C6_6 1_555 1_555
H3_6 C7_6 1_555 1_555
C8_6 C2_6 1_555 1_555
H4_6 C8_6 1_555 1_555
C9_6 N1_6 1_555 1_555
H5_6 C9_6 1_555 1_555
C10_6 N2_6 1_555 1_555
H6_6 C10_6 1_555 1_555
C11_6 N1_6 1_555 1_555
H7_6 C11_6 1_555 1_555
C12_7 N2_6 1_555 1_555
C13_7 C12_7 1_555 1_555
H8_7 C13_7 1_555 1_555
C14_7 C13_7 1_555 1_555
H9_7 C14_7 1_555 1_555
C15_7 C14_7 1_555 1_555
C16_7 C15_7 1_555 1_555
H10_7 C16_7 1_555 1_555
C17_7 C12_7 1_555 1_555
H11_6 C17_7 1_555 1_555
C18_7 C15_7 1_555 1_555
C25_7 C18_7 1_555 1_555
C26_7 C25_7 1_555 1_555
H17_7 C26_7 1_555 1_555
C28_7 N5_7 1_555 1_555
H19_7 C28_7 1_555 1_555
C29_7 N5_7 1_555 1_555
H20_7 C29_7 1_555 1_555
C30_7 N6_7 1_555 1_555
H21_7 C30_7 1_555 1_555
C31_7 N6_7 1_555 1_555
C32_7 C31_7 1_555 1_555
H22_7 C32_7 1_555 1_555
C33_7 C32_7 1_555 1_555
H23_7 C33_7 1_555 1_555
C34_7 C18_7 1_555 1_555
C35_7 C34_7 1_555 1_555
H24_7 C35_7 1_555 1_555
C36_7 C31_7 1_555 1_555
H25_7 C36_7 1_555 1_555
C37_7 H26_7 1_555 1_555
C40_7 N8_7 1_555 1_555
C41_7 C40_7 1_555 1_555
H29_7 C41_7 1_555 1_555
C42_7 C41_7 1_555 1_555
H30_7 C42_7 1_555 1_555
C43_7 C18_7 1_555 1_555
C44_7 C43_7 1_555 1_555
C7_6 C8_6 1_555 1_555
C10_6 C11_6 1_555 1_555
C16_7 C17_7 1_555 1_555
C29_7 C30_7 1_555 1_555
C33_7 C34_7 1_555 1_555
C35_7 C36_7 1_555 1_555
C42_7 C43_7 1_555 1_555
O9_3 C5_7 1_555 1_555
O10_4 C50_7 1_555 1_555
O8_7 C50_7 1_555 1_555
C47_7 C48_7 1_555 1_555
C48_7 H33_7 1_555 1_555
C49_7 C48_7 1_555 1_555
C50_7 C49_7 1_555 1_555
C51_4 C49_7 1_555 1_555
H34_4 C51_4 1_555 1_555
C52_4 C51_4 1_555 1_555
H35_4 C52_4 1_555 1_555
C53_4 C47_7 1_555 1_555
H36_4 C53_4 1_555 1_555
C52_4 C53_4 1_555 1_555
Co6_2 O5_8 1_555 1_555
O5_8 C46_8 1_555 1_555
O10_3 C50_8 1_555 1_555
O8_8 C50_8 1_555 1_555
N3_4 C19_8 1_555 1_555
N4_8 C19_8 1_555 1_555
N5_8 Co6_2 1_555 1_555
N6_8 C28_8 1_555 1_555
C13_8 C12_8 1_555 1_555
H8_8 C13_8 1_555 1_555
C14_8 C13_8 1_555 1_555
H9_8 C14_8 1_555 1_555
C15_8 C14_8 1_555 1_555
C16_8 C15_8 1_555 1_555
H10_8 C16_8 1_555 1_555
C17_8 C12_8 1_555 1_555
C18_8 C15_8 1_555 1_555
C19_8 H12_8 1_555 1_555
C20_8 N4_8 1_555 1_555
H13_8 C20_8 1_555 1_555
C21_8 N3_4 1_555 1_555
H14_8 C21_8 1_555 1_555
C22_8 N4_8 1_555 1_555
C23_8 C22_8 1_555 1_555
H15_8 C23_8 1_555 1_555
C24_8 C23_8 1_555 1_555
H16_8 C24_8 1_555 1_555
C25_8 C18_8 1_555 1_555
C26_8 C25_8 1_555 1_555
H17_8 C26_8 1_555 1_555
C27_8 C22_8 1_555 1_555
H18_8 C27_8 1_555 1_555
C28_8 N5_8 1_555 1_555
H19_8 C28_8 1_555 1_555
C29_8 N5_8 1_555 1_555
H20_8 C29_8 1_555 1_555
C30_8 N6_8 1_555 1_555
H21_8 C30_8 1_555 1_555
C31_8 N6_8 1_555 1_555
C32_8 C31_8 1_555 1_555
H22_8 C32_8 1_555 1_555
C33_8 C32_8 1_555 1_555
H23_8 C33_8 1_555 1_555
C34_8 C18_8 1_555 1_555
C35_8 C34_8 1_555 1_555
H24_8 C35_8 1_555 1_555
C36_8 C31_8 1_555 1_555
H25_8 C36_8 1_555 1_555
H30_8 C42_8 1_555 1_555
C43_8 C18_8 1_555 1_555
C44_8 C43_8 1_555 1_555
H31_8 C44_8 1_555 1_555
C46_8 C47_8 1_555 1_555
C47_8 C48_8 1_555 1_555
C48_8 H33_8 1_555 1_555
C49_8 C48_8 1_555 1_555
C50_8 C49_8 1_555 1_555
Co4_4 N3_4 1_555 1_555
C16_8 C17_8 1_555 1_555
C20_8 C21_8 1_555 1_555
C24_8 C25_8 1_555 1_555
C26_8 C27_8 1_555 1_555
C29_8 C30_8 1_555 1_555
C33_8 C34_8 1_555 1_555
C35_8 C36_8 1_555 1_555
C42_8 C43_8 1_555 1_555
N10_3 C37_8 1_555 1_555
N8_8 C37_8 1_555 1_555
C37_8 H26_8 1_555 1_555
C38_7 N10_3 1_555 1_555
H27_7 C38_7 1_555 1_555
C39_7 N8_8 1_555 1_555
H28_7 C39_7 1_555 1_555
C40_8 N8_8 1_555 1_555
C41_8 C40_8 1_555 1_555
H29_8 C41_8 1_555 1_555
C45_7 C40_8 1_555 1_555
H32_7 C45_7 1_555 1_555
C38_7 C39_7 1_555 1_555
Co4_4 O1_8 1_555 1_555
O1_8 C1_8 1_555 1_555
O2_8 C1_8 1_555 1_555
O9_4 C5_8 1_555 1_555
H34_5 C51_5 1_555 1_555
C52_5 C51_5 1_555 1_555
H35_5 C52_5 1_555 1_555
H36_5 C53_5 1_555 1_555
C52_5 C53_5 1_555 1_555
N2_7 C9_7 1_555 1_555
C2_7 C3_7 1_555 1_555
C4_7 C3_7 1_555 1_555
C6_7 C4_7 1_555 1_555
C7_7 C6_7 1_555 1_555
H3_7 C7_7 1_555 1_555
C8_7 C2_7 1_555 1_555
H4_7 C8_7 1_555 1_555
C9_7 N1_7 1_555 1_555
H5_7 C9_7 1_555 1_555
C10_7 N2_7 1_555 1_555
H6_7 C10_7 1_555 1_555
C11_7 N1_7 1_555 1_555
H7_7 C11_7 1_555 1_555
C7_7 C8_7 1_555 1_555
C10_7 C11_7 1_555 1_555
H34_6 C51_6 1_555 1_555
C52_6 C51_6 1_555 1_555
H35_6 C52_6 1_555 1_555
H36_6 C53_6 1_555 1_555
C52_6 C53_6 1_555 1_555
H27_8 C38_8 1_555 1_555
H28_8 C39_8 1_555 1_555
H32_8 C45_8 1_555 1_555
C38_8 C39_8 1_555 1_555
H34_7 C51_7 1_555 1_555
C52_7 C51_7 1_555 1_555
H35_7 C52_7 1_555 1_555
H36_7 C53_7 1_555 1_555
C52_7 C53_7 1_555 1_555
H34_8 C51_8 1_555 1_555
C52_8 C51_8 1_555 1_555
H35_8 C52_8 1_555 1_555
H36_8 C53_8 1_555 1_555
C52_8 C53_8 1_555 1_555
N2_8 C9_8 1_555 1_555
C2_8 C3_8 1_555 1_555
C4_8 C3_8 1_555 1_555
C6_8 C4_8 1_555 1_555
C7_8 C6_8 1_555 1_555
H3_8 C7_8 1_555 1_555
C8_8 C2_8 1_555 1_555
H4_8 C8_8 1_555 1_555
C9_8 N1_8 1_555 1_555
H5_8 C9_8 1_555 1_555
C10_8 N2_8 1_555 1_555
H6_8 C10_8 1_555 1_555
C11_8 N1_8 1_555 1_555
H7_8 C11_8 1_555 1_555
C7_8 C8_8 1_555 1_555
C10_8 C11_8 1_555 1_555

#END
