
###############################################################################
#
# This file contains modified crystal structure data generated from the
# MOF subset of the Cambridge Structural Database (CSD) v543 
# hosted by the Cambridge Crystallographic Data Centre (CCDC).
#
# This work is licensed under the Creative Commons
# Attribution-NonCommercial-ShareAlike 4.0 International License.
# To view a copy of this license, visit
# http://creativecommons.org/licenses/by-nc-sa/4.0/
# or send a letter to
# Creative Commons, PO Box 1866, Mountain View, CA 94042, USA.
#
# CIF created using the CSD Python API on 29 September 2022
# The structure has been converted into the P1 space group
# The structure has a 3D framework
# The original CSD entry BUCVAZ is in the rhombohedral crystal system
# The framework has been calculated to contain at least 10.0% void space
# The void calculation uses a probe of radius 1.32A, grid spacing 0.4
#
###############################################################################

data_BUCVAZ
_chemical_formula_moiety         '(C216 H144 Cu18 O100)n'
_symmetry_cell_setting           triclinic
_symmetry_space_group_name_H-M   'P 1'
_symmetry_Int_Tables_number      1
_space_group_name_Hall           'P 1'
loop_
_symmetry_equiv_pos_site_id
_symmetry_equiv_pos_as_xyz
1 x,y,z
_cell_length_a                   18.3147(12)
_cell_length_b                   18.3147(12)
_cell_length_c                   22.670(3)
_cell_angle_alpha                90
_cell_angle_beta                 90
_cell_angle_gamma                120
_cell_volume                     6585.39
loop_
_atom_site_label
_atom_site_type_symbol
_atom_site_fract_x
_atom_site_fract_y
_atom_site_fract_z
Cu1 Cu 0.79974(4) 0.58744(4) 0.18191(2)
O1 O 0.7502(3) 0.4578(3) 0.2051(3)
H1 H 0.7243 0.4147 0.1826
H2 H 0.7520 0.4373 0.2388
O2 O 0.7290(2) 0.5629(2) 0.11125(16)
O3 O 0.7894(3) 0.6984(3) 0.08517(15)
C1 C 0.7379(3) 0.6210(4) 0.0770(2)
C2 C 0.6862(3) 0.5988(4) 0.0221(2)
C7 C 0.6269(4) 0.5145(4) 0.0100(2)
H5 H 0.6212 0.4720 0.0353
Cu4 Cu 0.86693(4) 0.74589(4) 0.15142(2)
O7 O 0.8773(3) 0.6349(3) 0.24816(15)
O8 O 0.7197(4) 0.6087(3) 0.22698(17)
O9 O 0.8903(4) 0.5901(3) 0.13310(16)
O4 O 0.7246(3) 0.7776(2) 0.89365(17)
O5 O 0.5901(3) 0.6998(3) 0.86690(16)
C3 C 0.6962(3) 0.6620(4) 0.9845(2)
H3 H 0.7369 0.7177 0.9922
C4 C 0.6449(4) 0.6422(4) 0.9345(2)
C5 C 0.5853(4) 0.5594(4) 0.9231(2)
H4 H 0.5505 0.5468 0.8903
C6 C 0.5762(4) 0.4945(4) 0.9595(3)
C8 C 0.6549(4) 0.7123(3) 0.8945(2)
C9 C 0.4063(3) 0.2988(3) 0.8988(3)
H6 H 0.3631 0.2681 0.8720
C10 C 0.4593(3) 0.3877(3) 0.89949(18)
H7 H 0.4570 0.4256 0.8733
C11 C 0.5166(3) 0.4087(2) 0.9472(2)
O6 O 0.4990(4) 0.3328(3) 0.9760(2)
C12 C 0.4308(4) 0.2648(2) 0.9460(3)
H8 H 0.4064 0.2080 0.9557
Cu2 Cu 0.74589(4) 0.87897(6) 0.84858(2)
Cu3 Cu 0.58744(4) 0.78770(6) 0.81809(2)
Cu1_2 Cu 0.41256(4) 0.21230(6) 0.18191(2)
O1_2 O 0.5422(3) 0.2924(4) 0.2051(3)
H1_2 H 0.5853 0.3096 0.1826
H2_2 H 0.5627 0.3147 0.2388
O2_2 O 0.4371(2) 0.1661(3) 0.11125(16)
O3_2 O 0.3016(3) 0.0910(4) 0.08517(15)
C1_2 C 0.3790(4) 0.1169(5) 0.0770(2)
C2_2 C 0.4012(4) 0.0874(5) 0.0221(2)
C7_2 C 0.4855(4) 0.1124(6) 0.0100(2)
H5_2 H 0.5280 0.1492 0.0353
Cu4_2 Cu 0.25411(4) 0.12103(6) 0.15142(2)
O7_2 O 0.3651(3) 0.2423(4) 0.24816(15)
O8_2 O 0.3913(3) 0.1109(5) 0.22698(17)
O9_2 O 0.4099(3) 0.3002(5) 0.13310(16)
O4_2 O 0.2224(2) 0.9470(4) 0.89365(17)
O5_2 O 0.3002(3) 0.8903(4) 0.86690(16)
C8_2 C 0.2877(3) 0.9426(5) 0.8945(2)
Cu2_2 Cu 0.12103(6) 0.86693(7) 0.84858(2)
Cu3_2 Cu 0.21230(6) 0.79974(7) 0.81809(2)
O4_3 O 0.0530(4) 0.2754(3) 0.89365(17)
O5_3 O 0.1097(4) 0.4099(3) 0.86690(16)
C8_3 C 0.0574(5) 0.3451(4) 0.8945(2)
Cu2_3 Cu 0.13307(7) 0.25411(4) 0.84858(2)
Cu3_3 Cu 0.20026(7) 0.41256(4) 0.81809(2)
Cu1_3 Cu 0.78770(6) 0.20026(4) 0.18191(2)
O1_3 O 0.7076(4) 0.2498(3) 0.2051(3)
H1_3 H 0.6904 0.2757 0.1826
H2_3 H 0.6853 0.2480 0.2388
O2_3 O 0.8339(3) 0.2710(2) 0.11125(16)
O3_3 O 0.9090(4) 0.2106(3) 0.08517(15)
C1_3 C 0.8831(5) 0.2621(3) 0.0770(2)
C2_3 C 0.9126(5) 0.3138(3) 0.0221(2)
C7_3 C 0.8876(6) 0.3731(4) 0.0100(2)
H5_3 H 0.8508 0.3788 0.0353
Cu4_3 Cu 0.87897(6) 0.13307(4) 0.15142(2)
O7_3 O 0.7577(4) 0.1227(3) 0.24816(15)
O8_3 O 0.8891(5) 0.2803(4) 0.22698(17)
O9_3 O 0.6998(5) 0.1097(4) 0.13310(16)
O3_4 O 0.4561(3) 0.0317(3) 0.41850(15)
O5_4 O 0.2568(3) 0.0331(3) 0.20023(16)
H3_2 H 0.4036 0.0510 0.3255
C8_4 C 0.3216(4) 0.0456(3) 0.2278(2)
Cu4_4 Cu 0.53359(4) 0.07923(4) 0.48476(2)
Cu1_4 Cu 0.46641(4) 0.92077(4) 0.51524(2)
O1_4 O 0.4169(3) 0.7911(3) 0.5384(3)
H1_4 H 0.3910 0.7480 0.5159
H2_4 H 0.4187 0.7706 0.5721
O2_4 O 0.3957(2) 0.8962(2) 0.44458(16)
C1_4 C 0.4046(3) 0.9543(4) 0.4103(2)
C2_4 C 0.3529(3) 0.9321(4) 0.3554(2)
C3_2 C 0.3629(3) 0.9953(4) 0.3178(2)
C4_2 C 0.3116(4) 0.9755(4) 0.2678(2)
C5_2 C 0.2520(4) 0.8927(4) 0.2564(2)
H4_2 H 0.2172 0.8801 0.2236
C6_2 C 0.2429(4) 0.8278(4) 0.2928(3)
C7_4 C 0.2936(4) 0.8478(4) 0.3433(2)
H5_4 H 0.2879 0.8053 0.3686
C9_2 C 0.0730(3) 0.6321(3) 0.2321(3)
H6_2 H 0.0298 0.6014 0.2053
C10_2 C 0.1260(3) 0.7210(3) 0.23282(18)
H7_2 H 0.1237 0.7589 0.2066
C11_2 C 0.1833(3) 0.7420(2) 0.2805(2)
O6_2 O 0.1657(4) 0.6661(3) 0.3093(2)
C12_2 C 0.0975(4) 0.5981(2) 0.2793(3)
H8_2 H 0.0731 0.5413 0.2890
O7_4 O 0.5439(3) 0.9683(3) 0.58150(15)
O8_4 O 0.3863(4) 0.9421(3) 0.56032(17)
O9_4 O 0.5570(4) 0.9234(3) 0.46643(16)
Cu1_5 Cu 0.07923(4) 0.54563(6) 0.51524(2)
O1_5 O 0.2089(3) 0.6257(4) 0.5384(3)
H1_5 H 0.2520 0.6429 0.5159
H2_5 H 0.2294 0.6480 0.5721
O2_5 O 0.1038(2) 0.4994(3) 0.44458(16)
C1_5 C 0.0457(4) 0.4502(5) 0.4103(2)
C2_5 C 0.0679(4) 0.4207(5) 0.3554(2)
C3_3 C 0.0047(4) 0.3675(5) 0.3178(2)
C4_3 C 0.0245(4) 0.3360(6) 0.2678(2)
C5_3 C 0.1073(4) 0.3592(6) 0.2564(2)
H4_3 H 0.1199 0.3370 0.2236
C6_3 C 0.1722(4) 0.4150(6) 0.2928(3)
C7_5 C 0.1522(4) 0.4457(6) 0.3433(2)
H5_5 H 0.1947 0.4825 0.3686
C9_3 C 0.3679(3) 0.4408(4) 0.2321(3)
H6_3 H 0.3986 0.4283 0.2053
C10_3 C 0.2790(3) 0.4049(4) 0.23282(18)
H7_3 H 0.2411 0.3647 0.2066
C11_3 C 0.2580(2) 0.4412(4) 0.2805(2)
O6_3 O 0.3339(3) 0.4995(5) 0.3093(2)
C12_3 C 0.4019(2) 0.4993(4) 0.2793(3)
H8_3 H 0.4587 0.5317 0.2890
O7_5 O 0.0317(3) 0.5757(4) 0.58150(15)
O8_5 O 0.0579(3) 0.4443(5) 0.56032(17)
O9_5 O 0.0766(3) 0.6335(5) 0.46643(16)
O3_5 O 0.9683(3) 0.4243(4) 0.41850(15)
O5_5 O 0.9669(3) 0.2236(4) 0.20023(16)
H3_3 H 0.9490 0.3525 0.3255
C8_5 C 0.9544(3) 0.2759(5) 0.2278(2)
Cu4_5 Cu 0.92077(4) 0.45437(6) 0.48476(2)
Cu1_6 Cu 0.45437(6) 0.53359(4) 0.51524(2)
O1_6 O 0.3743(4) 0.5831(3) 0.5384(3)
H1_6 H 0.3571 0.6090 0.5159
H2_6 H 0.3520 0.5813 0.5721
O2_6 O 0.5006(3) 0.6043(2) 0.44458(16)
O3_6 O 0.5757(4) 0.5439(3) 0.41850(15)
O5_6 O 0.7764(4) 0.7432(3) 0.20023(16)
C1_6 C 0.5498(5) 0.5954(3) 0.4103(2)
C2_6 C 0.5793(5) 0.6471(3) 0.3554(2)
C3_4 C 0.6325(5) 0.6371(3) 0.3178(2)
H3_4 H 0.6475 0.5964 0.3255
C4_4 C 0.6640(6) 0.6884(4) 0.2678(2)
C5_4 C 0.6408(6) 0.7480(4) 0.2564(2)
H4_4 H 0.6630 0.7828 0.2236
C6_4 C 0.5850(6) 0.7571(4) 0.2928(3)
C7_6 C 0.5543(6) 0.7064(4) 0.3433(2)
H5_6 H 0.5175 0.7121 0.3686
C8_6 C 0.7241(5) 0.6784(4) 0.2278(2)
C9_4 C 0.5592(4) 0.9270(3) 0.2321(3)
H6_4 H 0.5717 0.9702 0.2053
C10_4 C 0.5951(4) 0.8740(3) 0.23282(18)
H7_4 H 0.6353 0.8763 0.2066
C11_4 C 0.5588(4) 0.8167(3) 0.2805(2)
O6_4 O 0.5005(5) 0.8343(4) 0.3093(2)
C12_4 C 0.5007(4) 0.9025(4) 0.2793(3)
H8_4 H 0.4683 0.9269 0.2890
Cu4_6 Cu 0.54563(6) 0.46641(4) 0.48476(2)
O7_6 O 0.4243(4) 0.4561(3) 0.58150(15)
O8_6 O 0.5557(5) 0.6137(4) 0.56032(17)
O9_6 O 0.3665(5) 0.4430(4) 0.46643(16)
O1_7 O 0.0835(3) 0.1245(3) 0.8718(3)
H1_7 H 0.0576 0.0814 0.8493
H2_7 H 0.0853 0.1040 0.9055
O2_7 O 0.0623(2) 0.2296(2) 0.77792(16)
O3_7 O 0.1227(3) 0.3651(3) 0.75184(15)
C1_7 C 0.0712(3) 0.2877(4) 0.7437(2)
C2_7 C 0.0195(3) 0.2655(4) 0.6888(2)
C3_5 C 0.0295(3) 0.3287(4) 0.6512(2)
H3_5 H 0.0702 0.3844 0.6589
O7_7 O 0.2106(3) 0.3016(3) 0.91483(15)
O9_7 O 0.2236(4) 0.2568(3) 0.79977(16)
O5_7 O 0.9234(3) 0.3665(3) 0.53357(16)
C4_5 C 0.9782(4) 0.3089(4) 0.6012(2)
C5_5 C 0.9186(4) 0.2261(4) 0.5898(2)
H4_5 H 0.8838 0.2135 0.5570
C6_5 C 0.9095(4) 0.1612(4) 0.6262(3)
C7_7 C 0.9602(4) 0.1812(4) 0.6767(2)
H5_7 H 0.9545 0.1387 0.7020
C8_7 C 0.9882(4) 0.3790(3) 0.5612(2)
C10_5 C 0.7926(3) 0.0544(3) 0.56616(18)
H7_5 H 0.7903 0.0923 0.5400
C11_5 C 0.8499(3) 0.0754(2) 0.6139(2)
O1_8 O 0.8755(3) 0.9591(4) 0.8718(3)
H1_8 H 0.9186 0.9763 0.8493
H2_8 H 0.8960 0.9814 0.9055
O2_8 O 0.7704(2) 0.8328(3) 0.77792(16)
O3_8 O 0.6349(3) 0.7577(4) 0.75184(15)
O5_8 O 0.6335(3) 0.5570(4) 0.53357(16)
C1_8 C 0.7123(4) 0.7836(5) 0.7437(2)
C2_8 C 0.7345(4) 0.7541(5) 0.6888(2)
C3_6 C 0.6713(4) 0.7009(5) 0.6512(2)
H3_6 H 0.6156 0.6859 0.6589
C4_6 C 0.6911(4) 0.6694(6) 0.6012(2)
C5_6 C 0.7739(4) 0.6926(6) 0.5898(2)
H4_6 H 0.7865 0.6704 0.5570
C6_6 C 0.8388(4) 0.7484(6) 0.6262(3)
C7_8 C 0.8188(4) 0.7791(6) 0.6767(2)
H5_8 H 0.8613 0.8159 0.7020
C8_8 C 0.6210(3) 0.6093(5) 0.5612(2)
C10_6 C 0.9456(3) 0.7383(4) 0.56616(18)
H7_6 H 0.9077 0.6981 0.5400
C11_6 C 0.9246(2) 0.7746(4) 0.6139(2)
O7_8 O 0.6984(3) 0.9090(4) 0.91483(15)
O9_8 O 0.7432(3) 0.9669(5) 0.79977(16)
O5_9 O 0.4430(4) 0.0766(3) 0.53357(16)
C4_7 C 0.3306(6) 0.0218(4) 0.6012(2)
C5_7 C 0.3074(6) 0.0814(4) 0.5898(2)
H4_7 H 0.3296 0.1162 0.5570
C6_7 C 0.2516(6) 0.0905(4) 0.6262(3)
C7_9 C 0.2209(6) 0.0398(4) 0.6767(2)
H5_9 H 0.1841 0.0455 0.7020
C8_9 C 0.3907(5) 0.0118(4) 0.5612(2)
C9_5 C 0.2258(4) 0.2604(3) 0.5655(3)
H6_5 H 0.2383 0.3036 0.5387
C10_7 C 0.2617(4) 0.2074(3) 0.56616(18)
H7_7 H 0.3019 0.2097 0.5400
C11_7 C 0.2254(4) 0.1501(3) 0.6139(2)
O6_5 O 0.1671(5) 0.1677(4) 0.6427(2)
C12_5 C 0.1673(4) 0.2359(4) 0.6127(3)
H8_5 H 0.1349 0.2603 0.6224
O1_9 O 0.0409(4) 0.9165(3) 0.8718(3)
H1_9 H 0.0237 0.9424 0.8493
H2_9 H 0.0186 0.9147 0.9055
O2_9 O 0.1672(3) 0.9377(2) 0.77792(16)
O3_9 O 0.2423(4) 0.8773(3) 0.75184(15)
C1_9 C 0.2164(5) 0.9288(3) 0.7437(2)
C2_9 C 0.2459(5) 0.9805(3) 0.6888(2)
C3_7 C 0.2991(5) 0.9705(3) 0.6512(2)
H3_7 H 0.3141 0.9298 0.6589
O7_9 O 0.0910(4) 0.7894(3) 0.91483(15)
O9_9 O 0.0331(5) 0.7764(4) 0.79977(16)
O4_4 O 0.2754(3) 0.2224(2) 0.10635(17)
C3_8 C 0.3038(3) 0.3380(4) 0.0155(2)
H3_8 H 0.2631 0.2823 0.0078
C4_8 C 0.3551(4) 0.3578(4) 0.0655(2)
C5_8 C 0.4147(4) 0.4406(4) 0.0769(2)
H4_8 H 0.4495 0.4532 0.1097
C6_8 C 0.4238(4) 0.5055(4) 0.0405(3)
C8_10 C 0.3451(4) 0.2877(3) 0.1055(2)
C9_6 C 0.5937(3) 0.7012(3) 0.1012(3)
H6_6 H 0.6369 0.7319 0.1280
C10_8 C 0.5407(3) 0.6123(3) 0.10051(18)
H7_8 H 0.5430 0.5744 0.1267
C11_8 C 0.4834(3) 0.5913(2) 0.0528(2)
O6_6 O 0.5010(4) 0.6672(3) 0.0240(2)
C12_6 C 0.5692(4) 0.7352(2) 0.0540(3)
H8_6 H 0.5936 0.7920 0.0443
O1_10 O 0.2498(3) 0.5422(3) 0.7949(3)
H1_10 H 0.2757 0.5853 0.8174
H2_10 H 0.2480 0.5627 0.7612
O2_10 O 0.2710(2) 0.4371(2) 0.88875(16)
C1_10 C 0.2621(3) 0.3790(4) 0.9230(2)
C2_10 C 0.3138(3) 0.4012(4) 0.9779(2)
C7_10 C 0.3731(4) 0.4855(4) 0.9900(2)
H5_10 H 0.3788 0.5280 0.9647
O8_7 O 0.2803(4) 0.3913(3) 0.77302(17)
O4_5 O 0.7776(2) 0.0530(4) 0.10635(17)
C8_11 C 0.7123(3) 0.0574(5) 0.1055(2)
O1_11 O 0.4578(3) 0.7076(4) 0.7949(3)
H1_11 H 0.4147 0.6904 0.8174
H2_11 H 0.4373 0.6853 0.7612
O2_11 O 0.5629(2) 0.8339(3) 0.88875(16)
C1_11 C 0.6210(4) 0.8831(5) 0.9230(2)
C2_11 C 0.5988(4) 0.9126(5) 0.9779(2)
C7_11 C 0.5145(4) 0.8876(6) 0.9900(2)
H5_11 H 0.4720 0.8508 0.9647
O8_8 O 0.6087(3) 0.8891(5) 0.77302(17)
O1_12 O 0.2924(4) 0.7502(3) 0.7949(3)
H1_12 H 0.3096 0.7243 0.8174
H2_12 H 0.3147 0.7520 0.7612
O2_12 O 0.1661(3) 0.7290(2) 0.88875(16)
C1_12 C 0.1169(5) 0.7379(3) 0.9230(2)
C2_12 C 0.0874(5) 0.6862(3) 0.9779(2)
C7_12 C 0.1124(6) 0.6269(4) 0.9900(2)
H5_12 H 0.1492 0.6212 0.9647
O8_9 O 0.1109(5) 0.7197(4) 0.77302(17)
O4_6 O 0.9470(4) 0.7246(3) 0.10635(17)
C8_12 C 0.9426(5) 0.6549(4) 0.1055(2)
O1_13 O 0.5831(3) 0.2089(3) 0.4616(3)
H1_13 H 0.6090 0.2520 0.4841
H2_13 H 0.5813 0.2294 0.4279
O2_13 O 0.6043(2) 0.1038(2) 0.55542(16)
C1_13 C 0.5954(3) 0.0457(4) 0.5897(2)
C2_13 C 0.6471(3) 0.0679(4) 0.6446(2)
C3_9 C 0.6371(3) 0.0047(4) 0.6822(2)
C4_9 C 0.6884(4) 0.0245(4) 0.7322(2)
C5_9 C 0.7480(4) 0.1073(4) 0.7436(2)
H4_9 H 0.7828 0.1199 0.7764
C6_9 C 0.7571(4) 0.1722(4) 0.7072(3)
C7_13 C 0.7064(4) 0.1522(4) 0.6567(2)
H5_13 H 0.7121 0.1947 0.6314
C9_7 C 0.9270(3) 0.3679(3) 0.7679(3)
H6_7 H 0.9702 0.3986 0.7947
C10_9 C 0.8740(3) 0.2790(3) 0.76718(18)
H7_9 H 0.8763 0.2411 0.7934
C11_9 C 0.8167(3) 0.2580(2) 0.7195(2)
O6_7 O 0.8343(4) 0.3339(3) 0.6907(2)
C12_7 C 0.9025(4) 0.4019(2) 0.7207(3)
H8_7 H 0.9269 0.4587 0.7110
O8_10 O 0.6137(4) 0.0579(3) 0.43968(17)
H3_9 H 0.5964 0.9490 0.6745
C8_13 C 0.6784(4) 0.9544(3) 0.7722(2)
H3_10 H 0.0510 0.6475 0.6745
C8_14 C 0.0456(3) 0.7241(5) 0.7722(2)
O1_14 O 0.7911(3) 0.3743(4) 0.4616(3)
H1_14 H 0.7480 0.3571 0.4841
H2_14 H 0.7706 0.3520 0.4279
O2_14 O 0.8962(2) 0.5006(3) 0.55542(16)
C1_14 C 0.9543(4) 0.5498(5) 0.5897(2)
C2_14 C 0.9321(4) 0.5793(5) 0.6446(2)
C3_10 C 0.9953(4) 0.6325(5) 0.6822(2)
C4_10 C 0.9755(4) 0.6640(6) 0.7322(2)
C5_10 C 0.8927(4) 0.6408(6) 0.7436(2)
H4_10 H 0.8801 0.6630 0.7764
C6_10 C 0.8278(4) 0.5850(6) 0.7072(3)
C7_14 C 0.8478(4) 0.5543(6) 0.6567(2)
H5_14 H 0.8053 0.5175 0.6314
C9_8 C 0.6321(3) 0.5592(4) 0.7679(3)
H6_8 H 0.6014 0.5717 0.7947
C10_10 C 0.7210(3) 0.5951(4) 0.76718(18)
H7_10 H 0.7589 0.6353 0.7934
C11_10 C 0.7420(2) 0.5588(4) 0.7195(2)
O6_8 O 0.6661(3) 0.5005(5) 0.6907(2)
C12_8 C 0.5981(2) 0.5007(4) 0.7207(3)
H8_8 H 0.5413 0.4683 0.7110
O8_11 O 0.9421(3) 0.5557(5) 0.43968(17)
O1_15 O 0.6257(4) 0.4169(3) 0.4616(3)
H1_15 H 0.6429 0.3910 0.4841
H2_15 H 0.6480 0.4187 0.4279
O2_15 O 0.4994(3) 0.3957(2) 0.55542(16)
C1_15 C 0.4502(5) 0.4046(3) 0.5897(2)
C2_15 C 0.4207(5) 0.3529(3) 0.6446(2)
C3_11 C 0.3675(5) 0.3629(3) 0.6822(2)
H3_11 H 0.3525 0.4036 0.6745
C4_11 C 0.3360(6) 0.3116(4) 0.7322(2)
C5_11 C 0.3592(6) 0.2520(4) 0.7436(2)
H4_11 H 0.3370 0.2172 0.7764
C6_11 C 0.4150(6) 0.2429(4) 0.7072(3)
C7_15 C 0.4457(6) 0.2936(4) 0.6567(2)
H5_15 H 0.4825 0.2879 0.6314
C8_15 C 0.2759(5) 0.3216(4) 0.7722(2)
C9_9 C 0.4408(4) 0.0730(3) 0.7679(3)
H6_9 H 0.4283 0.0298 0.7947
C10_11 C 0.4049(4) 0.1260(3) 0.76718(18)
H7_11 H 0.3647 0.1237 0.7934
C11_11 C 0.4412(4) 0.1833(3) 0.7195(2)
O6_9 O 0.4995(5) 0.1657(4) 0.6907(2)
C12_9 C 0.4993(4) 0.0975(4) 0.7207(3)
H8_9 H 0.5317 0.0731 0.7110
O8_12 O 0.4443(5) 0.3863(4) 0.43968(17)
C4_12 C 0.0218(4) 0.6911(4) 0.3988(2)
C5_12 C 0.0814(4) 0.7739(4) 0.4102(2)
H4_12 H 0.1162 0.7865 0.4430
C6_12 C 0.0905(4) 0.8388(4) 0.3738(3)
C7_16 C 0.0398(4) 0.8188(4) 0.3233(2)
H5_16 H 0.0455 0.8613 0.2980
C8_16 C 0.0118(4) 0.6210(3) 0.4388(2)
C10_12 C 0.2074(3) 0.9456(3) 0.43384(18)
H7_12 H 0.2097 0.9077 0.4600
C11_12 C 0.1501(3) 0.9246(2) 0.3861(2)
O1_16 O 0.9165(3) 0.8755(3) 0.1282(3)
H1_16 H 0.9424 0.9186 0.1507
H2_16 H 0.9147 0.8960 0.0945
O2_16 O 0.9377(2) 0.7704(2) 0.22208(16)
C1_16 C 0.9288(3) 0.7123(4) 0.2563(2)
C2_16 C 0.9805(3) 0.7345(4) 0.3112(2)
C3_12 C 0.9705(3) 0.6713(4) 0.3488(2)
H3_12 H 0.9298 0.6156 0.3411
O1_17 O 0.1245(3) 0.0409(4) 0.1282(3)
H1_17 H 0.0814 0.0237 0.1507
H2_17 H 0.1040 0.0186 0.0945
O2_17 O 0.2296(2) 0.1672(3) 0.22208(16)
C1_17 C 0.2877(4) 0.2164(5) 0.2563(2)
C2_17 C 0.2655(4) 0.2459(5) 0.3112(2)
C3_13 C 0.3287(4) 0.2991(5) 0.3488(2)
H3_13 H 0.3844 0.3141 0.3411
C4_13 C 0.3089(4) 0.3306(6) 0.3988(2)
C5_13 C 0.2261(4) 0.3074(6) 0.4102(2)
H4_13 H 0.2135 0.3296 0.4430
C6_13 C 0.1612(4) 0.2516(6) 0.3738(3)
C7_17 C 0.1812(4) 0.2209(6) 0.3233(2)
H5_17 H 0.1387 0.1841 0.2980
C8_17 C 0.3790(3) 0.3907(5) 0.4388(2)
C10_13 C 0.0544(3) 0.2617(4) 0.43384(18)
H7_13 H 0.0923 0.3019 0.4600
C11_13 C 0.0754(2) 0.2254(4) 0.3861(2)
O1_18 O 0.9591(4) 0.0835(3) 0.1282(3)
H1_18 H 0.9763 0.0576 0.1507
H2_18 H 0.9814 0.0853 0.0945
O2_18 O 0.8328(3) 0.0623(2) 0.22208(16)
C1_18 C 0.7836(5) 0.0712(3) 0.2563(2)
C2_18 C 0.7541(5) 0.0195(3) 0.3112(2)
C3_14 C 0.7009(5) 0.0295(3) 0.3488(2)
H3_14 H 0.6859 0.0702 0.3411
C4_14 C 0.6694(6) 0.9782(4) 0.3988(2)
C5_14 C 0.6926(6) 0.9186(4) 0.4102(2)
H4_14 H 0.6704 0.8838 0.4430
C6_14 C 0.7484(6) 0.9095(4) 0.3738(3)
C7_18 C 0.7791(6) 0.9602(4) 0.3233(2)
H5_18 H 0.8159 0.9545 0.2980
C8_18 C 0.6093(5) 0.9882(4) 0.4388(2)
C9_10 C 0.7742(4) 0.7396(3) 0.4345(3)
H6_10 H 0.7617 0.6964 0.4613
C10_14 C 0.7383(4) 0.7926(3) 0.43384(18)
H7_14 H 0.6981 0.7903 0.4600
C11_14 C 0.7746(4) 0.8499(3) 0.3861(2)
O6_10 O 0.8329(5) 0.8323(4) 0.3573(2)
C12_10 C 0.8327(4) 0.7641(4) 0.3873(3)
H8_10 H 0.8651 0.7397 0.3776
C3_15 C 0.3380(4) 0.0342(5) 0.9845(2)
H3_15 H 0.2823 0.0192 0.9922
C4_15 C 0.3578(4) 0.0027(6) 0.9345(2)
C5_15 C 0.4406(4) 0.0259(6) 0.9231(2)
H4_15 H 0.4532 0.0037 0.8903
C6_15 C 0.5055(4) 0.0817(6) 0.9595(3)
C9_11 C 0.7012(3) 0.1075(4) 0.8988(3)
H6_11 H 0.7319 0.0950 0.8720
C10_15 C 0.6123(3) 0.0716(4) 0.89949(18)
H7_15 H 0.5744 0.0314 0.8733
C11_15 C 0.5913(2) 0.1079(4) 0.9472(2)
O6_11 O 0.6672(3) 0.1662(5) 0.9760(2)
C12_11 C 0.7352(2) 0.1660(4) 0.9460(3)
H8_11 H 0.7920 0.1984 0.9557
C3_16 C 0.9658(5) 0.3038(3) 0.9845(2)
H3_16 H 0.9808 0.2631 0.9922
C4_16 C 0.9973(6) 0.3551(4) 0.9345(2)
C5_16 C 0.9741(6) 0.4147(4) 0.9231(2)
H4_16 H 0.9963 0.4495 0.8903
C6_16 C 0.9183(6) 0.4238(4) 0.9595(3)
C9_12 C 0.8925(4) 0.5937(3) 0.8988(3)
H6_12 H 0.9050 0.6369 0.8720
C10_16 C 0.9284(4) 0.5407(3) 0.89949(18)
H7_16 H 0.9686 0.5430 0.8733
C11_16 C 0.8921(4) 0.4834(3) 0.9472(2)
O6_12 O 0.8338(5) 0.5010(4) 0.9760(2)
C12_12 C 0.8340(4) 0.5692(4) 0.9460(3)
H8_12 H 0.8016 0.5936 0.9557
C9_13 C 0.7396(3) 0.9655(3) 0.5655(3)
H6_13 H 0.6964 0.9348 0.5387
O6_13 O 0.8323(4) 0.9995(3) 0.6427(2)
C12_13 C 0.7641(4) 0.9315(2) 0.6127(3)
H8_13 H 0.7397 0.8747 0.6224
C9_14 C 0.0345(3) 0.7742(4) 0.5655(3)
H6_14 H 0.0652 0.7617 0.5387
O6_14 O 0.0005(3) 0.8329(5) 0.6427(2)
C12_14 C 0.0685(2) 0.8327(4) 0.6127(3)
H8_14 H 0.1253 0.8651 0.6224
C3_17 C 0.6620(4) 0.9658(5) 0.0155(2)
H3_17 H 0.7177 0.9808 0.0078
C4_17 C 0.6422(4) 0.9973(6) 0.0655(2)
C5_17 C 0.5594(4) 0.9741(6) 0.0769(2)
H4_17 H 0.5468 0.9963 0.1097
C6_17 C 0.4945(4) 0.9183(6) 0.0405(3)
C9_15 C 0.2988(3) 0.8925(4) 0.1012(3)
H6_15 H 0.2681 0.9050 0.1280
C10_17 C 0.3877(3) 0.9284(4) 0.10051(18)
H7_17 H 0.4256 0.9686 0.1267
C11_17 C 0.4087(2) 0.8921(4) 0.0528(2)
O6_15 O 0.3328(3) 0.8338(5) 0.0240(2)
C12_15 C 0.2648(2) 0.8340(4) 0.0540(3)
H8_15 H 0.2080 0.8016 0.0443
C3_18 C 0.0342(5) 0.6962(3) 0.0155(2)
H3_18 H 0.0192 0.7369 0.0078
C4_18 C 0.0027(6) 0.6449(4) 0.0655(2)
C5_18 C 0.0259(6) 0.5853(4) 0.0769(2)
H4_18 H 0.0037 0.5505 0.1097
C6_18 C 0.0817(6) 0.5762(4) 0.0405(3)
C9_16 C 0.1075(4) 0.4063(3) 0.1012(3)
H6_16 H 0.0950 0.3631 0.1280
C10_18 C 0.0716(4) 0.4593(3) 0.10051(18)
H7_18 H 0.0314 0.4570 0.1267
C11_18 C 0.1079(4) 0.5166(3) 0.0528(2)
O6_16 O 0.1662(5) 0.4990(4) 0.0240(2)
C12_16 C 0.1660(4) 0.4308(4) 0.0540(3)
H8_16 H 0.1984 0.4064 0.0443
C9_17 C 0.2604(3) 0.0345(3) 0.4345(3)
H6_17 H 0.3036 0.0652 0.4613
O6_17 O 0.1677(4) 0.0005(3) 0.3573(2)
C12_17 C 0.2359(4) 0.0685(2) 0.3873(3)
H8_17 H 0.2603 0.1253 0.3776
C9_18 C 0.9655(3) 0.2258(4) 0.4345(3)
H6_18 H 0.9348 0.2383 0.4613
O6_18 O 0.9995(3) 0.1671(5) 0.3573(2)
C12_18 C 0.9315(2) 0.1673(4) 0.3873(3)
H8_18 H 0.8747 0.1349 0.3776
loop_
_geom_bond_atom_site_label_1
_geom_bond_atom_site_label_2
_geom_bond_site_symmetry_1
_geom_bond_site_symmetry_2
Cu1 O1 1_555 1_555
O1 H1 1_555 1_555
H2 O1 1_555 1_555
O2 Cu1 1_555 1_555
O3 C1 1_555 1_555
C1 O2 1_555 1_555
C2 C1 1_555 1_555
C7 C2 1_555 1_555
H5 C7 1_555 1_555
Cu4 Cu1 1_555 1_555
O7 Cu1 1_555 1_555
O8 Cu1 1_555 1_555
O9 Cu1 1_555 1_555
O3 Cu4 1_555 1_555
O4 C8 1_555 1_555
O5 C8 1_555 1_555
H3 C3 1_555 1_555
C4 C3 1_555 1_555
C5 C4 1_555 1_555
H4 C5 1_555 1_555
C6 C5 1_555 1_555
C8 C4 1_555 1_555
C9 H6 1_555 1_555
C10 C9 1_555 1_555
H7 C10 1_555 1_555
C11 C6 1_555 1_555
O6 C11 1_555 1_555
C12 C9 1_555 1_555
H8 C12 1_555 1_555
Cu2 O4 1_555 1_555
Cu3 O5 1_555 1_555
C10 C11 1_555 1_555
O6 C12 1_555 1_555
Cu2 Cu3 1_555 1_555
Cu1_2 O1_2 1_555 1_555
O1_2 H1_2 1_555 1_555
H2_2 O1_2 1_555 1_555
O2_2 Cu1_2 1_555 1_555
O3_2 C1_2 1_555 1_555
C1_2 O2_2 1_555 1_555
C2_2 C1_2 1_555 1_555
C7_2 C2_2 1_555 1_555
H5_2 C7_2 1_555 1_555
Cu4_2 Cu1_2 1_555 1_555
O7_2 Cu1_2 1_555 1_555
O8_2 Cu1_2 1_555 1_555
O9_2 Cu1_2 1_555 1_555
O3_2 Cu4_2 1_555 1_555
O4_2 C8_2 1_555 1_555
O5_2 C8_2 1_555 1_555
Cu2_2 O4_2 1_555 1_555
Cu3_2 O5_2 1_555 1_555
Cu2_2 Cu3_2 1_555 1_555
O4_3 C8_3 1_555 1_555
O5_3 C8_3 1_555 1_555
Cu2_3 O4_3 1_555 1_555
Cu3_3 O5_3 1_555 1_555
Cu2_3 Cu3_3 1_555 1_555
Cu1_3 O1_3 1_555 1_555
O1_3 H1_3 1_555 1_555
H2_3 O1_3 1_555 1_555
O2_3 Cu1_3 1_555 1_555
O3_3 C1_3 1_555 1_555
C1_3 O2_3 1_555 1_555
C2_3 C1_3 1_555 1_555
C7_3 C2_3 1_555 1_555
H5_3 C7_3 1_555 1_555
Cu4_3 Cu1_3 1_555 1_555
O7_3 Cu1_3 1_555 1_555
O8_3 Cu1_3 1_555 1_555
O9_3 Cu1_3 1_555 1_555
O3_3 Cu4_3 1_555 1_555
O8_2 C8_4 1_555 1_555
O5_4 C8_4 1_555 1_555
Cu4_2 O5_4 1_555 1_555
O3_4 Cu4_4 1_555 1_555
Cu1_4 O1_4 1_555 1_555
O1_4 H1_4 1_555 1_555
H2_4 O1_4 1_555 1_555
O2_4 Cu1_4 1_555 1_555
C1_4 O2_4 1_555 1_555
C2_4 C1_4 1_555 1_555
C3_2 C2_4 1_555 1_555
C4_2 C3_2 1_555 1_555
C5_2 C4_2 1_555 1_555
H4_2 C5_2 1_555 1_555
C6_2 C5_2 1_555 1_555
C7_4 C2_4 1_555 1_555
H5_4 C7_4 1_555 1_555
C9_2 H6_2 1_555 1_555
C10_2 C9_2 1_555 1_555
H7_2 C10_2 1_555 1_555
C11_2 C6_2 1_555 1_555
O6_2 C11_2 1_555 1_555
C12_2 C9_2 1_555 1_555
H8_2 C12_2 1_555 1_555
O7_4 Cu1_4 1_555 1_555
O8_4 Cu1_4 1_555 1_555
O9_4 Cu1_4 1_555 1_555
C6_2 C7_4 1_555 1_555
C10_2 C11_2 1_555 1_555
O6_2 C12_2 1_555 1_555
Cu1_5 O1_5 1_555 1_555
O1_5 H1_5 1_555 1_555
H2_5 O1_5 1_555 1_555
O2_5 Cu1_5 1_555 1_555
C1_5 O2_5 1_555 1_555
C2_5 C1_5 1_555 1_555
C3_3 C2_5 1_555 1_555
C4_3 C3_3 1_555 1_555
C5_3 C4_3 1_555 1_555
H4_3 C5_3 1_555 1_555
C6_3 C5_3 1_555 1_555
C7_5 C2_5 1_555 1_555
H5_5 C7_5 1_555 1_555
C9_3 H6_3 1_555 1_555
C10_3 C9_3 1_555 1_555
H7_3 C10_3 1_555 1_555
C11_3 C6_3 1_555 1_555
O6_3 C11_3 1_555 1_555
C12_3 C9_3 1_555 1_555
H8_3 C12_3 1_555 1_555
O7_5 Cu1_5 1_555 1_555
O8_5 Cu1_5 1_555 1_555
O9_5 Cu1_5 1_555 1_555
C6_3 C7_5 1_555 1_555
C10_3 C11_3 1_555 1_555
O6_3 C12_3 1_555 1_555
O8_3 C8_5 1_555 1_555
O5_5 C8_5 1_555 1_555
Cu4_3 O5_5 1_555 1_555
O3_5 Cu4_5 1_555 1_555
Cu1_6 O1_6 1_555 1_555
O1_6 H1_6 1_555 1_555
H2_6 O1_6 1_555 1_555
O2_6 Cu1_6 1_555 1_555
O3_6 C1_6 1_555 1_555
O8 C8_6 1_555 1_555
O5_6 C8_6 1_555 1_555
C1_6 O2_6 1_555 1_555
C2_6 C1_6 1_555 1_555
C3_4 C2_6 1_555 1_555
H3_4 C3_4 1_555 1_555
C4_4 C3_4 1_555 1_555
C5_4 C4_4 1_555 1_555
H4_4 C5_4 1_555 1_555
C6_4 C5_4 1_555 1_555
C7_6 C2_6 1_555 1_555
H5_6 C7_6 1_555 1_555
C8_6 C4_4 1_555 1_555
C9_4 H6_4 1_555 1_555
C10_4 C9_4 1_555 1_555
H7_4 C10_4 1_555 1_555
C11_4 C6_4 1_555 1_555
O6_4 C11_4 1_555 1_555
C12_4 C9_4 1_555 1_555
H8_4 C12_4 1_555 1_555
Cu4 O5_6 1_555 1_555
Cu4_6 Cu1_6 1_555 1_555
O7_6 Cu1_6 1_555 1_555
O8_6 Cu1_6 1_555 1_555
O9_6 Cu1_6 1_555 1_555
O3_6 Cu4_6 1_555 1_555
C6_4 C7_6 1_555 1_555
C10_4 C11_4 1_555 1_555
O6_4 C12_4 1_555 1_555
Cu2_3 O1_7 1_555 1_555
O1_7 H1_7 1_555 1_555
H2_7 O1_7 1_555 1_555
O2_7 Cu2_3 1_555 1_555
O3_7 C1_7 1_555 1_555
C1_7 O2_7 1_555 1_555
C2_7 C1_7 1_555 1_555
C3_5 C2_7 1_555 1_555
H3_5 C3_5 1_555 1_555
O7_7 Cu2_3 1_555 1_555
O9_7 Cu2_3 1_555 1_555
O3_7 Cu3_3 1_555 1_555
O5_7 C8_7 1_555 1_555
C5_5 C4_5 1_555 1_555
H4_5 C5_5 1_555 1_555
C6_5 C5_5 1_555 1_555
H5_7 C7_7 1_555 1_555
C8_7 C4_5 1_555 1_555
H7_5 C10_5 1_555 1_555
C11_5 C6_5 1_555 1_555
Cu4_5 O5_7 1_555 1_555
C6_5 C7_7 1_555 1_555
C10_5 C11_5 1_555 1_555
Cu2 O1_8 1_555 1_555
O1_8 H1_8 1_555 1_555
H2_8 O1_8 1_555 1_555
O2_8 Cu2 1_555 1_555
O3_8 C1_8 1_555 1_555
O8_6 C8_8 1_555 1_555
O5_8 C8_8 1_555 1_555
C1_8 O2_8 1_555 1_555
C2_8 C1_8 1_555 1_555
C3_6 C2_8 1_555 1_555
H3_6 C3_6 1_555 1_555
C4_6 C3_6 1_555 1_555
C5_6 C4_6 1_555 1_555
H4_6 C5_6 1_555 1_555
C6_6 C5_6 1_555 1_555
C7_8 C2_8 1_555 1_555
H5_8 C7_8 1_555 1_555
C8_8 C4_6 1_555 1_555
H7_6 C10_6 1_555 1_555
C11_6 C6_6 1_555 1_555
Cu4_6 O5_8 1_555 1_555
O7_8 Cu2 1_555 1_555
O9_8 Cu2 1_555 1_555
O3_8 Cu3 1_555 1_555
C6_6 C7_8 1_555 1_555
C10_6 C11_6 1_555 1_555
O5_9 C8_9 1_555 1_555
C5_7 C4_7 1_555 1_555
H4_7 C5_7 1_555 1_555
C6_7 C5_7 1_555 1_555
H5_9 C7_9 1_555 1_555
C8_9 C4_7 1_555 1_555
C9_5 H6_5 1_555 1_555
C10_7 C9_5 1_555 1_555
H7_7 C10_7 1_555 1_555
C11_7 C6_7 1_555 1_555
O6_5 C11_7 1_555 1_555
C12_5 C9_5 1_555 1_555
H8_5 C12_5 1_555 1_555
Cu4_4 O5_9 1_555 1_555
C6_7 C7_9 1_555 1_555
C10_7 C11_7 1_555 1_555
O6_5 C12_5 1_555 1_555
Cu2_2 O1_9 1_555 1_555
O1_9 H1_9 1_555 1_555
H2_9 O1_9 1_555 1_555
O2_9 Cu2_2 1_555 1_555
O3_9 C1_9 1_555 1_555
C1_9 O2_9 1_555 1_555
C2_9 C1_9 1_555 1_555
C3_7 C2_9 1_555 1_555
H3_7 C3_7 1_555 1_555
O7_9 Cu2_2 1_555 1_555
O9_9 Cu2_2 1_555 1_555
O3_9 Cu3_2 1_555 1_555
O4_4 C8_10 1_555 1_555
O9_2 C8_10 1_555 1_555
H3_8 C3_8 1_555 1_555
C4_8 C3_8 1_555 1_555
C5_8 C4_8 1_555 1_555
H4_8 C5_8 1_555 1_555
C6_8 C5_8 1_555 1_555
C8_10 C4_8 1_555 1_555
C9_6 H6_6 1_555 1_555
C10_8 C9_6 1_555 1_555
H7_8 C10_8 1_555 1_555
C11_8 C6_8 1_555 1_555
O6_6 C11_8 1_555 1_555
C12_6 C9_6 1_555 1_555
H8_6 C12_6 1_555 1_555
Cu4_2 O4_4 1_555 1_555
C10_8 C11_8 1_555 1_555
O6_6 C12_6 1_555 1_555
Cu3_3 O1_10 1_555 1_555
O1_10 H1_10 1_555 1_555
H2_10 O1_10 1_555 1_555
O2_10 Cu3_3 1_555 1_555
O7_7 C1_10 1_555 1_555
C1_10 O2_10 1_555 1_555
C2_10 C1_10 1_555 1_555
C7_10 C2_10 1_555 1_555
H5_10 C7_10 1_555 1_555
O8_7 Cu3_3 1_555 1_555
O4_5 C8_11 1_555 1_555
O9_3 C8_11 1_555 1_555
Cu4_3 O4_5 1_555 1_555
Cu3 O1_11 1_555 1_555
O1_11 H1_11 1_555 1_555
H2_11 O1_11 1_555 1_555
O2_11 Cu3 1_555 1_555
O7_8 C1_11 1_555 1_555
C1_11 O2_11 1_555 1_555
C2_11 C1_11 1_555 1_555
C7_11 C2_11 1_555 1_555
H5_11 C7_11 1_555 1_555
O8_8 Cu3 1_555 1_555
Cu3_2 O1_12 1_555 1_555
O1_12 H1_12 1_555 1_555
H2_12 O1_12 1_555 1_555
O2_12 Cu3_2 1_555 1_555
O7_9 C1_12 1_555 1_555
C1_12 O2_12 1_555 1_555
C2_12 C1_12 1_555 1_555
C7_12 C2_12 1_555 1_555
H5_12 C7_12 1_555 1_555
O8_9 Cu3_2 1_555 1_555
O4_6 C8_12 1_555 1_555
O9 C8_12 1_555 1_555
Cu4 O4_6 1_555 1_555
Cu4_4 O1_13 1_555 1_555
O1_13 H1_13 1_555 1_555
H2_13 O1_13 1_555 1_555
O2_13 Cu4_4 1_555 1_555
C1_13 O2_13 1_555 1_555
C2_13 C1_13 1_555 1_555
C3_9 C2_13 1_555 1_555
C4_9 C3_9 1_555 1_555
C5_9 C4_9 1_555 1_555
H4_9 C5_9 1_555 1_555
C6_9 C5_9 1_555 1_555
C7_13 C2_13 1_555 1_555
H5_13 C7_13 1_555 1_555
C9_7 H6_7 1_555 1_555
C10_9 C9_7 1_555 1_555
H7_9 C10_9 1_555 1_555
C11_9 C6_9 1_555 1_555
O6_7 C11_9 1_555 1_555
C12_7 C9_7 1_555 1_555
H8_7 C12_7 1_555 1_555
O8_10 Cu4_4 1_555 1_555
C6_9 C7_13 1_555 1_555
C10_9 C11_9 1_555 1_555
O6_7 C12_7 1_555 1_555
O8_8 C8_13 1_555 1_555
O9_8 C8_13 1_555 1_555
O8_9 C8_14 1_555 1_555
O9_9 C8_14 1_555 1_555
Cu4_5 O1_14 1_555 1_555
O1_14 H1_14 1_555 1_555
H2_14 O1_14 1_555 1_555
O2_14 Cu4_5 1_555 1_555
C1_14 O2_14 1_555 1_555
C2_14 C1_14 1_555 1_555
C3_10 C2_14 1_555 1_555
C4_10 C3_10 1_555 1_555
C5_10 C4_10 1_555 1_555
H4_10 C5_10 1_555 1_555
C6_10 C5_10 1_555 1_555
C7_14 C2_14 1_555 1_555
H5_14 C7_14 1_555 1_555
C9_8 H6_8 1_555 1_555
C10_10 C9_8 1_555 1_555
H7_10 C10_10 1_555 1_555
C11_10 C6_10 1_555 1_555
O6_8 C11_10 1_555 1_555
C12_8 C9_8 1_555 1_555
H8_8 C12_8 1_555 1_555
O8_11 Cu4_5 1_555 1_555
C6_10 C7_14 1_555 1_555
C10_10 C11_10 1_555 1_555
O6_8 C12_8 1_555 1_555
Cu4_6 O1_15 1_555 1_555
O1_15 H1_15 1_555 1_555
H2_15 O1_15 1_555 1_555
O2_15 Cu4_6 1_555 1_555
O7_6 C1_15 1_555 1_555
O8_7 C8_15 1_555 1_555
O9_7 C8_15 1_555 1_555
C1_15 O2_15 1_555 1_555
C2_15 C1_15 1_555 1_555
C3_11 C2_15 1_555 1_555
H3_11 C3_11 1_555 1_555
C4_11 C3_11 1_555 1_555
C5_11 C4_11 1_555 1_555
H4_11 C5_11 1_555 1_555
C6_11 C5_11 1_555 1_555
C7_15 C2_15 1_555 1_555
H5_15 C7_15 1_555 1_555
C8_15 C4_11 1_555 1_555
C9_9 H6_9 1_555 1_555
C10_11 C9_9 1_555 1_555
H7_11 C10_11 1_555 1_555
C11_11 C6_11 1_555 1_555
O6_9 C11_11 1_555 1_555
C12_9 C9_9 1_555 1_555
H8_9 C12_9 1_555 1_555
O8_12 Cu4_6 1_555 1_555
C6_11 C7_15 1_555 1_555
C10_11 C11_11 1_555 1_555
O6_9 C12_9 1_555 1_555
O9_5 C8_16 1_555 1_555
C5_12 C4_12 1_555 1_555
H4_12 C5_12 1_555 1_555
C6_12 C5_12 1_555 1_555
H5_16 C7_16 1_555 1_555
C8_16 C4_12 1_555 1_555
H7_12 C10_12 1_555 1_555
C11_12 C6_12 1_555 1_555
C6_12 C7_16 1_555 1_555
C10_12 C11_12 1_555 1_555
Cu4 O1_16 1_555 1_555
O1_16 H1_16 1_555 1_555
H2_16 O1_16 1_555 1_555
O2_16 Cu4 1_555 1_555
O7 C1_16 1_555 1_555
C1_16 O2_16 1_555 1_555
C2_16 C1_16 1_555 1_555
C3_12 C2_16 1_555 1_555
H3_12 C3_12 1_555 1_555
Cu4_2 O1_17 1_555 1_555
O1_17 H1_17 1_555 1_555
H2_17 O1_17 1_555 1_555
O2_17 Cu4_2 1_555 1_555
O7_2 C1_17 1_555 1_555
O8_12 C8_17 1_555 1_555
O9_6 C8_17 1_555 1_555
C1_17 O2_17 1_555 1_555
C2_17 C1_17 1_555 1_555
C3_13 C2_17 1_555 1_555
H3_13 C3_13 1_555 1_555
C4_13 C3_13 1_555 1_555
C5_13 C4_13 1_555 1_555
H4_13 C5_13 1_555 1_555
C6_13 C5_13 1_555 1_555
C7_17 C2_17 1_555 1_555
H5_17 C7_17 1_555 1_555
C8_17 C4_13 1_555 1_555
H7_13 C10_13 1_555 1_555
C11_13 C6_13 1_555 1_555
C6_13 C7_17 1_555 1_555
C10_13 C11_13 1_555 1_555
Cu4_3 O1_18 1_555 1_555
O1_18 H1_18 1_555 1_555
H2_18 O1_18 1_555 1_555
O2_18 Cu4_3 1_555 1_555
O7_3 C1_18 1_555 1_555
C1_18 O2_18 1_555 1_555
C2_18 C1_18 1_555 1_555
C3_14 C2_18 1_555 1_555
H3_14 C3_14 1_555 1_555
O9_4 C8_18 1_555 1_555
C5_14 C4_14 1_555 1_555
H4_14 C5_14 1_555 1_555
C6_14 C5_14 1_555 1_555
H5_18 C7_18 1_555 1_555
C8_18 C4_14 1_555 1_555
C9_10 H6_10 1_555 1_555
C10_14 C9_10 1_555 1_555
H7_14 C10_14 1_555 1_555
C11_14 C6_14 1_555 1_555
O6_10 C11_14 1_555 1_555
C12_10 C9_10 1_555 1_555
H8_10 C12_10 1_555 1_555
C6_14 C7_18 1_555 1_555
C10_14 C11_14 1_555 1_555
O6_10 C12_10 1_555 1_555
H3_15 C3_15 1_555 1_555
C4_15 C3_15 1_555 1_555
C5_15 C4_15 1_555 1_555
H4_15 C5_15 1_555 1_555
C6_15 C5_15 1_555 1_555
C9_11 H6_11 1_555 1_555
C10_15 C9_11 1_555 1_555
H7_15 C10_15 1_555 1_555
C11_15 C6_15 1_555 1_555
O6_11 C11_15 1_555 1_555
C12_11 C9_11 1_555 1_555
H8_11 C12_11 1_555 1_555
C10_15 C11_15 1_555 1_555
O6_11 C12_11 1_555 1_555
H3_16 C3_16 1_555 1_555
C4_16 C3_16 1_555 1_555
C5_16 C4_16 1_555 1_555
H4_16 C5_16 1_555 1_555
C6_16 C5_16 1_555 1_555
C9_12 H6_12 1_555 1_555
C10_16 C9_12 1_555 1_555
H7_16 C10_16 1_555 1_555
C11_16 C6_16 1_555 1_555
O6_12 C11_16 1_555 1_555
C12_12 C9_12 1_555 1_555
H8_12 C12_12 1_555 1_555
C10_16 C11_16 1_555 1_555
O6_12 C12_12 1_555 1_555
C9_13 H6_13 1_555 1_555
C12_13 C9_13 1_555 1_555
H8_13 C12_13 1_555 1_555
O6_13 C12_13 1_555 1_555
C9_14 H6_14 1_555 1_555
C12_14 C9_14 1_555 1_555
H8_14 C12_14 1_555 1_555
O6_14 C12_14 1_555 1_555
H3_17 C3_17 1_555 1_555
C4_17 C3_17 1_555 1_555
C5_17 C4_17 1_555 1_555
H4_17 C5_17 1_555 1_555
C6_17 C5_17 1_555 1_555
C9_15 H6_15 1_555 1_555
C10_17 C9_15 1_555 1_555
H7_17 C10_17 1_555 1_555
C11_17 C6_17 1_555 1_555
O6_15 C11_17 1_555 1_555
C12_15 C9_15 1_555 1_555
H8_15 C12_15 1_555 1_555
C10_17 C11_17 1_555 1_555
O6_15 C12_15 1_555 1_555
H3_18 C3_18 1_555 1_555
C4_18 C3_18 1_555 1_555
C5_18 C4_18 1_555 1_555
H4_18 C5_18 1_555 1_555
C6_18 C5_18 1_555 1_555
C9_16 H6_16 1_555 1_555
C10_18 C9_16 1_555 1_555
H7_18 C10_18 1_555 1_555
C11_18 C6_18 1_555 1_555
O6_16 C11_18 1_555 1_555
C12_16 C9_16 1_555 1_555
H8_16 C12_16 1_555 1_555
C10_18 C11_18 1_555 1_555
O6_16 C12_16 1_555 1_555
C9_17 H6_17 1_555 1_555
C12_17 C9_17 1_555 1_555
H8_17 C12_17 1_555 1_555
O6_17 C12_17 1_555 1_555
C9_18 H6_18 1_555 1_555
C12_18 C9_18 1_555 1_555
H8_18 C12_18 1_555 1_555
O6_18 C12_18 1_555 1_555

#END
