
###############################################################################
#
# This file contains modified crystal structure data generated from the
# MOF subset of the Cambridge Structural Database (CSD) v543 
# hosted by the Cambridge Crystallographic Data Centre (CCDC).
#
# This work is licensed under the Creative Commons
# Attribution-NonCommercial-ShareAlike 4.0 International License.
# To view a copy of this license, visit
# http://creativecommons.org/licenses/by-nc-sa/4.0/
# or send a letter to
# Creative Commons, PO Box 1866, Mountain View, CA 94042, USA.
#
# CIF created using the CSD Python API on 29 September 2022
# The structure has been converted into the P1 space group
# The structure has a 3D framework
# The original CSD entry BUCVEC is in the monoclinic crystal system
# The framework has been calculated to contain at least 10.0% void space
# The void calculation uses a probe of radius 1.32A, grid spacing 0.4
#
###############################################################################

data_BUCVEC
_chemical_formula_moiety         '(C424 H288 N64 O64 Zn16)n'
_symmetry_cell_setting           triclinic
_symmetry_space_group_name_H-M   'P 1'
_symmetry_Int_Tables_number      1
_space_group_name_Hall           'P 1'
loop_
_symmetry_equiv_pos_site_id
_symmetry_equiv_pos_as_xyz
1 x,y,z
_cell_length_a                   41.021(8)
_cell_length_b                   14.365(3)
_cell_length_c                   20.259(4)
_cell_angle_alpha                90
_cell_angle_beta                 108.59(3)
_cell_angle_gamma                90
_cell_volume                     11315.1
loop_
_atom_site_label
_atom_site_type_symbol
_atom_site_fract_x
_atom_site_fract_y
_atom_site_fract_z
O7 O 0.28380(11) 0.2152(2) 0.1559(2)
O8 O 0.27471(12) 0.1375(3) 0.2425(2)
C47 C 0.23681(12) 0.0096(4) 0.0134(2)
C51 C 0.25941(12) 0.0663(3) 0.1315(2)
C52 C 0.24950(12) 0.0815(3) 0.0602(2)
H36 H 0.2514 0.1416 0.0433
C53 C 0.27406(14) 0.1446(4) 0.1813(3)
Zn6 Zn 0.27668(2) 0.34558(4) 0.17082(3)
Zn2 Zn 0.22332(2) 0.15442(4) 0.82918(3)
O3 O 0.61503(9) 0.0141(2) 0.21731(15)
O4 O 0.56775(10) 0.0389(3) 0.24531(17)
O5 O 0.22315(11) 0.1128(3) 0.91918(18)
N1 N 0.55283(10) 0.0796(3) 0.6048(2)
N2 N 0.51687(9) 0.1889(3) 0.61307(19)
N3 N 0.27135(10) 0.1477(3) 0.82259(19)
N4 N 0.31616(9) 0.1788(2) 0.78970(18)
N5 N 0.43214(11) 0.8314(3) 0.8849(2)
N6 N 0.43049(10) 0.6874(3) 0.8489(2)
N7 N 0.30718(10) 0.4082(3) 0.25563(18)
N8 N 0.33616(10) 0.4388(3) 0.36567(18)
H4 H 0.5781 0.0115 0.3719
C8 C 0.59864(14) 0.0166(3) 0.2615(2)
C9 C 0.53044(13) 0.1054(3) 0.6350(2)
H5 H 0.5246 0.0694 0.6683
C10 C 0.53223(14) 0.2194(4) 0.5660(3)
H6 H 0.5282 0.2761 0.5415
C11 C 0.55430(14) 0.1514(4) 0.5618(3)
H7 H 0.5685 0.1533 0.5335
C12 C 0.48961(11) 0.2358(3) 0.6306(2)
C13 C 0.46654(12) 0.1844(3) 0.6512(3)
H8 H 0.4690 0.1195 0.6560
C14 C 0.43928(12) 0.2292(3) 0.6651(2)
H9 H 0.4236 0.1941 0.6800
C15 C 0.43505(11) 0.3239(3) 0.6575(2)
C16 C 0.45906(12) 0.3736(3) 0.6367(2)
H10 H 0.4566 0.4385 0.6313
C17 C 0.48647(12) 0.3307(3) 0.6238(2)
H11 H 0.5027 0.3658 0.6106
C18 C 0.40199(11) 0.3758(3) 0.6594(2)
C19 C 0.37903(11) 0.3179(3) 0.6919(2)
C20 C 0.39315(12) 0.2760(3) 0.7569(2)
H12 H 0.4171 0.2785 0.7791
C21 C 0.37269(12) 0.2309(3) 0.7892(2)
H13 H 0.3826 0.2040 0.8334
C22 C 0.33754(12) 0.2254(3) 0.7564(2)
C23 C 0.32285(12) 0.2675(3) 0.6925(2)
H14 H 0.2990 0.2643 0.6702
C24 C 0.34368(12) 0.3144(3) 0.6617(2)
H15 H 0.3335 0.3448 0.6189
C25 C 0.28412(11) 0.2053(3) 0.7877(2)
H16 H 0.2727 0.2583 0.7642
C26 C 0.29574(13) 0.0797(3) 0.8482(3)
H17 H 0.2935 0.0283 0.8751
C27 C 0.32368(14) 0.0989(3) 0.8281(3)
H18 H 0.3441 0.0642 0.8387
C28 C 0.42569(14) 0.7763(4) 0.8307(2)
H19 H 0.4185 0.7973 0.7843
C29 C 0.44028(18) 0.6840(4) 0.9196(3)
H20 H 0.4455 0.6306 0.9479
C30 C 0.44088(16) 0.7733(4) 0.9407(3)
H21 H 0.4465 0.7925 0.9874
C31 C 0.42423(13) 0.6103(3) 0.8008(2)
C32 C 0.44913(14) 0.5446(4) 0.8061(3)
H22 H 0.4705 0.5486 0.8413
C33 C 0.44214(13) 0.4722(3) 0.7585(3)
H23 H 0.4593 0.4276 0.7618
C34 C 0.41119(11) 0.4630(3) 0.7068(2)
C35 C 0.38624(11) 0.5294(3) 0.7042(2)
H24 H 0.3645 0.5239 0.6703
C36 C 0.39262(13) 0.6035(3) 0.7504(3)
H25 H 0.3756 0.6485 0.7472
C37 C 0.38352(10) 0.3976(3) 0.5822(2)
C38 C 0.36979(13) 0.3243(3) 0.5371(2)
H26 H 0.3709 0.2639 0.5555
C39 C 0.35463(14) 0.3365(3) 0.4668(2)
H27 H 0.3456 0.2851 0.4381
C40 C 0.35262(11) 0.4242(3) 0.4382(2)
C41 C 0.36698(15) 0.4974(4) 0.4806(3)
H28 H 0.3667 0.5572 0.4615
C42 C 0.38216(13) 0.4837(3) 0.5523(2)
H29 H 0.3917 0.5350 0.5808
C43 C 0.32159(12) 0.3729(3) 0.3183(2)
H30 H 0.3217 0.3090 0.3286
C44 C 0.31273(14) 0.5027(4) 0.2643(3)
H31 H 0.3052 0.5474 0.2288
C45 C 0.33060(15) 0.5218(3) 0.3315(3)
H32 H 0.3378 0.5808 0.3507
C46 C 0.22762(13) 0.0275(5) 0.9375(3)
Zn3 Zn 0.41784(2) 0.96559(4) 0.87813(3)
Zn4 Zn 0.58216(2) 0.03441(4) 0.12187(3)
O10 O 0.21620(11) 0.2848(2) 0.8441(2)
N10 N 0.19282(10) 0.0918(3) 0.74437(18)
O1 O 0.38425(8) 0.9698(2) 0.93055(15)
O6 O 0.77451(12) 0.9629(3) 0.6035(2)
C1 C 0.40175(14) 0.9697(3) 0.9950(2)
H1 H 0.3365 0.9246 0.9811
C48 C 0.76654(12) 0.9218(4) 0.4617(3)
H33 H 0.7752 0.8727 0.4930
C49 C 0.75711(13) 0.9059(4) 0.3902(3)
H34 H 0.7595 0.8462 0.3734
C50 C 0.74432(13) 0.9771(3) 0.3445(3)
H35 H 0.7380 0.9659 0.2964
O9 O 0.38497(9) 0.9859(2) 0.78269(15)
O7_2 O 0.78380(11) 0.7152(2) 0.1559(2)
O8_2 O 0.77471(12) 0.6375(3) 0.2425(2)
C47_2 C 0.73681(12) 0.5096(4) 0.0134(2)
C48_2 C 0.73346(12) 0.4218(4) 0.0383(3)
H33_2 H 0.7248 0.3727 0.0070
C49_2 C 0.74289(13) 0.4059(4) 0.1098(3)
H34_2 H 0.7405 0.3462 0.1266
C50_2 C 0.75568(13) 0.4771(3) 0.1555(3)
H35_2 H 0.7620 0.4659 0.2036
C51_2 C 0.75941(12) 0.5663(3) 0.1315(2)
C52_2 C 0.74950(12) 0.5815(3) 0.0602(2)
H36_2 H 0.7514 0.6416 0.0433
C53_2 C 0.77406(14) 0.6446(4) 0.1813(3)
Zn6_2 Zn 0.77668(2) 0.84558(4) 0.17082(3)
Zn2_2 Zn 0.72332(2) 0.65442(4) 0.82918(3)
O5_2 O 0.72315(11) 0.6128(3) 0.91918(18)
O6_2 O 0.72549(12) 0.4629(3) 0.8965(2)
N3_2 N 0.77135(10) 0.6477(3) 0.82259(19)
N4_2 N 0.81616(9) 0.6788(2) 0.78970(18)
N7_2 N 0.80718(10) 0.9082(3) 0.25563(18)
N8_2 N 0.83616(10) 0.9388(3) 0.36567(18)
C12_2 C 0.98961(11) 0.7358(3) 0.6306(2)
C13_2 C 0.96654(12) 0.6844(3) 0.6512(3)
H8_2 H 0.9690 0.6195 0.6560
C14_2 C 0.93928(12) 0.7292(3) 0.6651(2)
H9_2 H 0.9236 0.6941 0.6800
C15_2 C 0.93505(11) 0.8239(3) 0.6575(2)
C16_2 C 0.95906(12) 0.8736(3) 0.6367(2)
H10_2 H 0.9566 0.9385 0.6313
C17_2 C 0.98647(12) 0.8307(3) 0.6238(2)
C18_2 C 0.90199(11) 0.8758(3) 0.6594(2)
C19_2 C 0.87903(11) 0.8179(3) 0.6919(2)
C20_2 C 0.89315(12) 0.7760(3) 0.7569(2)
H12_2 H 0.9171 0.7785 0.7791
C21_2 C 0.87269(12) 0.7309(3) 0.7892(2)
H13_2 H 0.8826 0.7040 0.8334
C22_2 C 0.83754(12) 0.7254(3) 0.7564(2)
C23_2 C 0.82285(12) 0.7675(3) 0.6925(2)
H14_2 H 0.7990 0.7643 0.6702
C24_2 C 0.84368(12) 0.8144(3) 0.6617(2)
H15_2 H 0.8335 0.8448 0.6189
C25_2 C 0.78412(11) 0.7053(3) 0.7877(2)
H16_2 H 0.7727 0.7583 0.7642
C26_2 C 0.79574(13) 0.5797(3) 0.8482(3)
H17_2 H 0.7935 0.5283 0.8751
C27_2 C 0.82368(14) 0.5989(3) 0.8281(3)
H18_2 H 0.8441 0.5642 0.8387
C33_2 C 0.94214(13) 0.9722(3) 0.7585(3)
H23_2 H 0.9593 0.9276 0.7618
C34_2 C 0.91119(11) 0.9630(3) 0.7068(2)
C37_2 C 0.88352(10) 0.8976(3) 0.5822(2)
C38_2 C 0.86979(13) 0.8243(3) 0.5371(2)
H26_2 H 0.8709 0.7639 0.5555
C39_2 C 0.85463(14) 0.8365(3) 0.4668(2)
H27_2 H 0.8456 0.7851 0.4381
C40_2 C 0.85262(11) 0.9242(3) 0.4382(2)
C41_2 C 0.86698(15) 0.9974(4) 0.4806(3)
C42_2 C 0.88216(13) 0.9837(3) 0.5523(2)
C43_2 C 0.82159(12) 0.8729(3) 0.3183(2)
H30_2 H 0.8217 0.8090 0.3286
C46_2 C 0.72762(13) 0.5275(5) 0.9375(3)
O10_2 O 0.71620(11) 0.7848(2) 0.8441(2)
N10_2 N 0.69282(10) 0.5918(3) 0.74437(18)
O4_2 O 0.43225(10) 0.9611(3) 0.75469(17)
O5_3 O 0.77685(11) 0.8872(3) 0.08082(18)
N1_2 N 0.44717(10) 0.9204(3) 0.3952(2)
N2_2 N 0.48313(9) 0.8111(3) 0.38693(19)
N3_3 N 0.72865(10) 0.8523(3) 0.17741(19)
N4_3 N 0.68384(9) 0.8212(2) 0.21030(18)
N5_2 N 0.56786(11) 0.1686(3) 0.1151(2)
N6_2 N 0.56951(10) 0.3126(3) 0.1511(2)
N8_3 N 0.66384(10) 0.5612(3) 0.63433(18)
H4_2 H 0.4219 0.9885 0.6281
C8_2 C 0.40136(14) 0.9834(3) 0.7385(2)
C9_2 C 0.46956(13) 0.8946(3) 0.3650(2)
H5_2 H 0.4754 0.9306 0.3317
C10_2 C 0.46777(14) 0.7806(4) 0.4340(3)
H6_2 H 0.4718 0.7239 0.4585
C11_2 C 0.44570(14) 0.8486(4) 0.4382(3)
H7_2 H 0.4315 0.8467 0.4665
C12_3 C 0.51039(11) 0.7642(3) 0.3694(2)
C13_3 C 0.53346(12) 0.8156(3) 0.3488(3)
H8_3 H 0.5310 0.8805 0.3440
C14_3 C 0.56072(12) 0.7708(3) 0.3349(2)
H9_3 H 0.5764 0.8059 0.3200
C15_3 C 0.56495(11) 0.6761(3) 0.3425(2)
C16_3 C 0.54094(12) 0.6264(3) 0.3633(2)
H10_3 H 0.5434 0.5615 0.3687
C17_3 C 0.51353(12) 0.6693(3) 0.3762(2)
H11_2 H 0.4973 0.6342 0.3894
C18_3 C 0.59801(11) 0.6242(3) 0.3406(2)
C19_3 C 0.62097(11) 0.6821(3) 0.3081(2)
C20_3 C 0.60685(12) 0.7240(3) 0.2431(2)
H12_3 H 0.5829 0.7215 0.2209
C21_3 C 0.62731(12) 0.7691(3) 0.2108(2)
H13_3 H 0.6174 0.7960 0.1666
C22_3 C 0.66246(12) 0.7746(3) 0.2436(2)
C23_3 C 0.67715(12) 0.7325(3) 0.3075(2)
H14_3 H 0.7010 0.7357 0.3298
C24_3 C 0.65632(12) 0.6856(3) 0.3383(2)
H15_3 H 0.6665 0.6552 0.3811
C25_3 C 0.71588(11) 0.7947(3) 0.2123(2)
H16_3 H 0.7273 0.7417 0.2358
C26_3 C 0.70426(13) 0.9203(3) 0.1518(3)
H17_3 H 0.7065 0.9717 0.1249
C27_3 C 0.67632(14) 0.9011(3) 0.1719(3)
H18_3 H 0.6559 0.9358 0.1613
C28_2 C 0.57431(14) 0.2237(4) 0.1693(2)
H19_2 H 0.5815 0.2027 0.2157
C29_2 C 0.55972(18) 0.3160(4) 0.0804(3)
H20_2 H 0.5545 0.3694 0.0521
C30_2 C 0.55912(16) 0.2267(4) 0.0593(3)
H21_2 H 0.5535 0.2075 0.0126
C31_2 C 0.57577(13) 0.3897(3) 0.1992(2)
C32_2 C 0.55087(14) 0.4554(4) 0.1939(3)
H22_2 H 0.5295 0.4514 0.1587
C33_3 C 0.55786(13) 0.5278(3) 0.2415(3)
H23_3 H 0.5407 0.5724 0.2382
C34_3 C 0.58881(11) 0.5370(3) 0.2932(2)
C35_2 C 0.61376(11) 0.4706(3) 0.2958(2)
H24_2 H 0.6355 0.4761 0.3297
C36_2 C 0.60738(13) 0.3965(3) 0.2496(3)
H25_2 H 0.6244 0.3515 0.2528
C37_3 C 0.61648(10) 0.6024(3) 0.4178(2)
C38_3 C 0.63021(13) 0.6757(3) 0.4629(2)
H26_3 H 0.6291 0.7361 0.4445
C39_3 C 0.64537(14) 0.6635(3) 0.5332(2)
H27_3 H 0.6544 0.7149 0.5619
C40_3 C 0.64738(11) 0.5758(3) 0.5618(2)
C41_3 C 0.63302(15) 0.5026(4) 0.5194(3)
H28_2 H 0.6333 0.4428 0.5385
C42_3 C 0.61784(13) 0.5163(3) 0.4477(2)
H29_2 H 0.6083 0.4650 0.4192
C43_3 C 0.67841(12) 0.6271(3) 0.6817(2)
H30_3 H 0.6783 0.6910 0.6714
C44_2 C 0.68727(14) 0.4973(4) 0.7357(3)
H31_2 H 0.6948 0.4526 0.7712
C45_2 C 0.66940(15) 0.4782(3) 0.6685(3)
H32_2 H 0.6622 0.4192 0.6493
C46_3 C 0.77238(13) 0.9725(5) 0.0625(3)
O8_3 O 0.72529(12) 0.8625(3) 0.7575(2)
C47_3 C 0.76319(12) 0.9904(4) 0.9866(2)
C51_3 C 0.74059(12) 0.9337(3) 0.8685(2)
C52_3 C 0.75050(12) 0.9185(3) 0.9398(2)
H36_3 H 0.7486 0.8584 0.9567
C53_3 C 0.72594(14) 0.8554(4) 0.8187(3)
O1_2 O 0.61575(8) 0.0302(2) 0.06945(15)
O6_3 O 0.22549(12) 0.0371(3) 0.3965(2)
C1_2 C 0.59825(14) 0.0303(3) 0.0050(2)
H1_2 H 0.6635 0.0754 0.0189
C48_3 C 0.23346(12) 0.0782(4) 0.5383(3)
H33_3 H 0.2248 0.1273 0.5070
C49_3 C 0.24289(13) 0.0941(4) 0.6098(3)
H34_3 H 0.2405 0.1538 0.6266
C50_3 C 0.25568(13) 0.0229(3) 0.6555(3)
H35_3 H 0.2620 0.0341 0.7036
O5_4 O 0.27685(11) 0.3872(3) 0.08082(18)
O6_4 O 0.27451(12) 0.5371(3) 0.1035(2)
N3_4 N 0.22865(10) 0.3523(3) 0.17741(19)
N4_4 N 0.18384(9) 0.3212(2) 0.21030(18)
N8_4 N 0.16384(10) 0.0612(3) 0.63433(18)
C12_4 C 0.01039(11) 0.2642(3) 0.3694(2)
C13_4 C 0.03346(12) 0.3156(3) 0.3488(3)
H8_4 H 0.0310 0.3805 0.3440
C14_4 C 0.06072(12) 0.2708(3) 0.3349(2)
H9_4 H 0.0764 0.3059 0.3200
C15_4 C 0.06495(11) 0.1761(3) 0.3425(2)
C16_4 C 0.04094(12) 0.1264(3) 0.3633(2)
H10_4 H 0.0434 0.0615 0.3687
C17_4 C 0.01353(12) 0.1693(3) 0.3762(2)
C18_4 C 0.09801(11) 0.1242(3) 0.3406(2)
C19_4 C 0.12097(11) 0.1821(3) 0.3081(2)
C20_4 C 0.10685(12) 0.2240(3) 0.2431(2)
H12_4 H 0.0829 0.2215 0.2209
C21_4 C 0.12731(12) 0.2691(3) 0.2108(2)
H13_4 H 0.1174 0.2960 0.1666
C22_4 C 0.16246(12) 0.2746(3) 0.2436(2)
C23_4 C 0.17715(12) 0.2325(3) 0.3075(2)
H14_4 H 0.2010 0.2357 0.3298
C24_4 C 0.15632(12) 0.1856(3) 0.3383(2)
H15_4 H 0.1665 0.1552 0.3811
C25_4 C 0.21588(11) 0.2947(3) 0.2123(2)
H16_4 H 0.2273 0.2417 0.2358
C26_4 C 0.20426(13) 0.4203(3) 0.1518(3)
H17_4 H 0.2065 0.4717 0.1249
C27_4 C 0.17632(14) 0.4011(3) 0.1719(3)
H18_4 H 0.1559 0.4358 0.1613
C33_4 C 0.05786(13) 0.0278(3) 0.2415(3)
H23_4 H 0.0407 0.0724 0.2382
C34_4 C 0.08881(11) 0.0370(3) 0.2932(2)
C37_4 C 0.11648(10) 0.1024(3) 0.4178(2)
C38_4 C 0.13021(13) 0.1757(3) 0.4629(2)
H26_4 H 0.1291 0.2361 0.4445
C39_4 C 0.14537(14) 0.1635(3) 0.5332(2)
H27_4 H 0.1544 0.2149 0.5619
C40_4 C 0.14738(11) 0.0758(3) 0.5618(2)
C41_4 C 0.13302(15) 0.0026(4) 0.5194(3)
C42_4 C 0.11784(13) 0.0163(3) 0.4477(2)
C43_4 C 0.17841(12) 0.1271(3) 0.6817(2)
H30_4 H 0.1783 0.1910 0.6714
C46_4 C 0.27238(13) 0.4725(5) 0.0625(3)
O8_4 O 0.22529(12) 0.3625(3) 0.7575(2)
C47_4 C 0.26319(12) 0.4904(4) 0.9866(2)
C48_4 C 0.26654(12) 0.5782(4) 0.9617(3)
H33_4 H 0.2752 0.6273 0.9930
C49_4 C 0.25711(13) 0.5941(4) 0.8902(3)
H34_4 H 0.2595 0.6538 0.8734
C50_4 C 0.24432(13) 0.5229(3) 0.8445(3)
H35_4 H 0.2380 0.5341 0.7964
C51_4 C 0.24059(12) 0.4337(3) 0.8685(2)
C52_4 C 0.25050(12) 0.4185(3) 0.9398(2)
H36_4 H 0.2486 0.3584 0.9567
C53_4 C 0.22594(14) 0.3554(4) 0.8187(3)
C48_5 C 0.23346(12) 0.9218(4) 0.0383(3)
H33_5 H 0.2248 0.8727 0.0070
C49_5 C 0.24289(13) 0.9059(4) 0.1098(3)
H34_5 H 0.2405 0.8462 0.1266
C50_5 C 0.25568(13) 0.9771(3) 0.1555(3)
H35_5 H 0.2620 0.9659 0.2036
Zn1 Zn 0.58216(2) 0.96559(4) 0.62187(3)
O1_3 O 0.61575(8) 0.9698(2) 0.56945(15)
O2 O 0.56647(9) 0.9705(3) 0.48373(17)
O6_5 O 0.22549(12) 0.9629(3) 0.8965(2)
C1_3 C 0.59825(14) 0.9697(3) 0.5050(2)
C2 C 0.61762(12) 0.9682(3) 0.4530(2)
C3 C 0.65187(13) 0.9413(3) 0.4725(2)
H1_3 H 0.6635 0.9246 0.5189
C4 C 0.66907(13) 0.9391(4) 0.4227(3)
H2 H 0.6923 0.9209 0.4356
C5 C 0.65190(13) 0.9637(3) 0.3550(2)
H3 H 0.6634 0.9617 0.3217
C6 C 0.61786(11) 0.9913(3) 0.3351(2)
C7 C 0.60127(12) 0.9929(3) 0.3850(2)
O9_2 O 0.61503(9) 0.9859(2) 0.71731(15)
N9 N 0.56786(11) 0.8314(3) 0.6151(2)
O3_2 O 0.38497(9) 0.0141(2) 0.28269(15)
O4_3 O 0.43225(10) 0.0389(3) 0.25469(17)
N7_3 N 0.69282(10) 0.4082(3) 0.24437(18)
N8_5 N 0.66384(10) 0.4388(3) 0.13433(18)
H4_3 H 0.4219 0.0115 0.1281
C8_3 C 0.40136(14) 0.0166(3) 0.2385(2)
C39_5 C 0.64537(14) 0.3365(3) 0.0332(2)
H27_5 H 0.6544 0.2851 0.0619
C40_5 C 0.64738(11) 0.4242(3) 0.0618(2)
C41_5 C 0.63302(15) 0.4974(4) 0.0194(3)
H28_3 H 0.6333 0.5572 0.0385
C43_5 C 0.67841(12) 0.3729(3) 0.1817(2)
H30_5 H 0.6783 0.3090 0.1714
C44_3 C 0.68727(14) 0.5027(4) 0.2357(3)
H31_3 H 0.6948 0.5474 0.2712
C45_3 C 0.66940(15) 0.5218(3) 0.1685(3)
H32_3 H 0.6622 0.5808 0.1493
Zn4_2 Zn 0.41784(2) 0.03441(4) 0.37813(3)
Zn5 Zn 0.72332(2) 0.34558(4) 0.32918(3)
Zn2_3 Zn 0.77668(2) 0.15442(4) 0.67082(3)
O5_5 O 0.77685(11) 0.1128(3) 0.58082(18)
O7_3 O 0.71620(11) 0.2152(2) 0.3441(2)
O8_5 O 0.72529(12) 0.1375(3) 0.2575(2)
N1_3 N 0.44717(10) 0.0796(3) 0.8952(2)
N2_3 N 0.48313(9) 0.1889(3) 0.88693(19)
N3_5 N 0.72865(10) 0.1477(3) 0.67741(19)
N4_5 N 0.68384(9) 0.1788(2) 0.71030(18)
N6_3 N 0.56951(10) 0.6874(3) 0.6511(2)
C9_3 C 0.46956(13) 0.1054(3) 0.8650(2)
H5_3 H 0.4754 0.0694 0.8317
C10_3 C 0.46777(14) 0.2194(4) 0.9340(3)
H6_3 H 0.4718 0.2761 0.9585
C11_3 C 0.44570(14) 0.1514(4) 0.9382(3)
H7_3 H 0.4315 0.1533 0.9665
C12_5 C 0.51039(11) 0.2358(3) 0.8694(2)
C13_5 C 0.53346(12) 0.1844(3) 0.8488(3)
H8_5 H 0.5310 0.1195 0.8440
C14_5 C 0.56072(12) 0.2292(3) 0.8349(2)
H9_5 H 0.5764 0.1941 0.8200
C15_5 C 0.56495(11) 0.3239(3) 0.8425(2)
C16_5 C 0.54094(12) 0.3736(3) 0.8633(2)
H10_5 H 0.5434 0.4385 0.8687
C17_5 C 0.51353(12) 0.3307(3) 0.8762(2)
H11_3 H 0.4973 0.3658 0.8894
C18_5 C 0.59801(11) 0.3758(3) 0.8406(2)
C19_5 C 0.62097(11) 0.3179(3) 0.8081(2)
C20_5 C 0.60685(12) 0.2760(3) 0.7431(2)
H12_5 H 0.5829 0.2785 0.7209
C21_5 C 0.62731(12) 0.2309(3) 0.7108(2)
H13_5 H 0.6174 0.2040 0.6666
C22_5 C 0.66246(12) 0.2254(3) 0.7436(2)
C23_5 C 0.67715(12) 0.2675(3) 0.8075(2)
H14_5 H 0.7010 0.2643 0.8298
C24_5 C 0.65632(12) 0.3144(3) 0.8383(2)
H15_5 H 0.6665 0.3448 0.8811
C25_5 C 0.71588(11) 0.2053(3) 0.7123(2)
H16_5 H 0.7273 0.2583 0.7358
C26_5 C 0.70426(13) 0.0797(3) 0.6518(3)
H17_5 H 0.7065 0.0283 0.6249
C27_5 C 0.67632(14) 0.0989(3) 0.6719(3)
H18_5 H 0.6559 0.0642 0.6613
C28_3 C 0.57431(14) 0.7763(4) 0.6693(2)
H19_3 H 0.5815 0.7973 0.7157
C29_3 C 0.55972(18) 0.6840(4) 0.5804(3)
H20_3 H 0.5545 0.6306 0.5521
C30_3 C 0.55912(16) 0.7733(4) 0.5593(3)
H21_3 H 0.5535 0.7925 0.5126
C31_3 C 0.57577(13) 0.6103(3) 0.6992(2)
C32_3 C 0.55087(14) 0.5446(4) 0.6939(3)
H22_3 H 0.5295 0.5486 0.6587
C33_5 C 0.55786(13) 0.4722(3) 0.7415(3)
H23_5 H 0.5407 0.4276 0.7382
C34_5 C 0.58881(11) 0.4630(3) 0.7932(2)
C35_3 C 0.61376(11) 0.5294(3) 0.7958(2)
H24_3 H 0.6355 0.5239 0.8297
C36_3 C 0.60738(13) 0.6035(3) 0.7496(3)
H25_3 H 0.6244 0.6485 0.7528
C37_5 C 0.61648(10) 0.3976(3) 0.9178(2)
C38_5 C 0.63021(13) 0.3243(3) 0.9629(2)
H26_5 H 0.6291 0.2639 0.9445
C42_5 C 0.61784(13) 0.4837(3) 0.9477(2)
H29_3 H 0.6083 0.5350 0.9192
C46_5 C 0.77238(13) 0.0275(5) 0.5625(3)
C47_5 C 0.76319(12) 0.0096(4) 0.4866(2)
C51_5 C 0.74059(12) 0.0663(3) 0.3685(2)
C52_5 C 0.75050(12) 0.0815(3) 0.4398(2)
H36_5 H 0.7486 0.1416 0.4567
C53_5 C 0.72594(14) 0.1446(4) 0.3187(3)
O10_3 O 0.78380(11) 0.2848(2) 0.6559(2)
N10_3 N 0.80718(10) 0.0918(3) 0.75563(18)
N7_4 N 0.19282(10) 0.9082(3) 0.24437(18)
N8_6 N 0.16384(10) 0.9388(3) 0.13433(18)
C39_6 C 0.14537(14) 0.8365(3) 0.0332(2)
H27_6 H 0.1544 0.7851 0.0619
C40_6 C 0.14738(11) 0.9242(3) 0.0618(2)
C41_6 C 0.13302(15) 0.9974(4) 0.0194(3)
C43_6 C 0.17841(12) 0.8729(3) 0.1817(2)
H30_6 H 0.1783 0.8090 0.1714
Zn5_2 Zn 0.22332(2) 0.84558(4) 0.32918(3)
Zn2_4 Zn 0.27668(2) 0.65442(4) 0.67082(3)
O5_6 O 0.27685(11) 0.6128(3) 0.58082(18)
O6_6 O 0.27451(12) 0.4629(3) 0.6035(2)
O7_4 O 0.21620(11) 0.7152(2) 0.3441(2)
O8_6 O 0.22529(12) 0.6375(3) 0.2575(2)
N3_6 N 0.22865(10) 0.6477(3) 0.67741(19)
N4_6 N 0.18384(9) 0.6788(2) 0.71030(18)
C12_6 C 0.01039(11) 0.7358(3) 0.8694(2)
C13_6 C 0.03346(12) 0.6844(3) 0.8488(3)
H8_6 H 0.0310 0.6195 0.8440
C14_6 C 0.06072(12) 0.7292(3) 0.8349(2)
H9_6 H 0.0764 0.6941 0.8200
C15_6 C 0.06495(11) 0.8239(3) 0.8425(2)
C16_6 C 0.04094(12) 0.8736(3) 0.8633(2)
H10_6 H 0.0434 0.9385 0.8687
C17_6 C 0.01353(12) 0.8307(3) 0.8762(2)
C18_6 C 0.09801(11) 0.8758(3) 0.8406(2)
C19_6 C 0.12097(11) 0.8179(3) 0.8081(2)
C20_6 C 0.10685(12) 0.7760(3) 0.7431(2)
H12_6 H 0.0829 0.7785 0.7209
C21_6 C 0.12731(12) 0.7309(3) 0.7108(2)
H13_6 H 0.1174 0.7040 0.6666
C22_6 C 0.16246(12) 0.7254(3) 0.7436(2)
C23_6 C 0.17715(12) 0.7675(3) 0.8075(2)
H14_6 H 0.2010 0.7643 0.8298
C24_6 C 0.15632(12) 0.8144(3) 0.8383(2)
H15_6 H 0.1665 0.8448 0.8811
C25_6 C 0.21588(11) 0.7053(3) 0.7123(2)
H16_6 H 0.2273 0.7583 0.7358
C26_6 C 0.20426(13) 0.5797(3) 0.6518(3)
H17_6 H 0.2065 0.5283 0.6249
C27_6 C 0.17632(14) 0.5989(3) 0.6719(3)
H18_6 H 0.1559 0.5642 0.6613
C33_6 C 0.05786(13) 0.9722(3) 0.7415(3)
H23_6 H 0.0407 0.9276 0.7382
C34_6 C 0.08881(11) 0.9630(3) 0.7932(2)
C37_6 C 0.11648(10) 0.8976(3) 0.9178(2)
C38_6 C 0.13021(13) 0.8243(3) 0.9629(2)
H26_6 H 0.1291 0.7639 0.9445
C42_6 C 0.11784(13) 0.9837(3) 0.9477(2)
C46_6 C 0.27238(13) 0.5275(5) 0.5625(3)
C47_6 C 0.26319(12) 0.5096(4) 0.4866(2)
C48_6 C 0.26654(12) 0.4218(4) 0.4617(3)
H33_6 H 0.2752 0.3727 0.4930
C49_6 C 0.25711(13) 0.4059(4) 0.3902(3)
H34_6 H 0.2595 0.3462 0.3734
C50_6 C 0.24432(13) 0.4771(3) 0.3445(3)
H35_6 H 0.2380 0.4659 0.2964
C51_6 C 0.24059(12) 0.5663(3) 0.3685(2)
C52_6 C 0.25050(12) 0.5815(3) 0.4398(2)
H36_6 H 0.2486 0.6416 0.4567
C53_6 C 0.22594(14) 0.6446(4) 0.3187(3)
O10_4 O 0.28380(11) 0.7848(2) 0.6559(2)
N10_4 N 0.30718(10) 0.5918(3) 0.75563(18)
O1_4 O 0.38425(8) 0.0302(2) 0.43055(15)
O2_2 O 0.43353(9) 0.0295(3) 0.51627(17)
O6_7 O 0.77451(12) 0.0371(3) 0.1035(2)
C1_4 C 0.40175(14) 0.0303(3) 0.4950(2)
C2_2 C 0.38238(12) 0.0318(3) 0.5470(2)
C3_2 C 0.34813(13) 0.0587(3) 0.5275(2)
H1_4 H 0.3365 0.0754 0.4811
C4_2 C 0.33093(13) 0.0609(4) 0.5773(3)
H2_2 H 0.3077 0.0791 0.5644
C5_2 C 0.34810(13) 0.0363(3) 0.6450(2)
H3_2 H 0.3366 0.0383 0.6783
C6_2 C 0.38214(11) 0.0087(3) 0.6649(2)
C7_2 C 0.39873(12) 0.0071(3) 0.6150(2)
N9_2 N 0.43214(11) 0.1686(3) 0.3849(2)
O5_7 O 0.22315(11) 0.8872(3) 0.41918(18)
O8_7 O 0.27471(12) 0.8625(3) 0.7425(2)
N1_4 N 0.55283(10) 0.9204(3) 0.1048(2)
N2_4 N 0.51687(9) 0.8111(3) 0.11307(19)
N3_7 N 0.27135(10) 0.8523(3) 0.32259(19)
N4_7 N 0.31616(9) 0.8212(2) 0.28970(18)
N6_4 N 0.43049(10) 0.3126(3) 0.3489(2)
C9_4 C 0.53044(13) 0.8946(3) 0.1350(2)
H5_4 H 0.5246 0.9306 0.1683
C10_4 C 0.53223(14) 0.7806(4) 0.0660(3)
H6_4 H 0.5282 0.7239 0.0415
C11_4 C 0.55430(14) 0.8486(4) 0.0618(3)
H7_4 H 0.5685 0.8467 0.0335
C12_7 C 0.48961(11) 0.7642(3) 0.1306(2)
C13_7 C 0.46654(12) 0.8156(3) 0.1512(3)
H8_7 H 0.4690 0.8805 0.1560
C14_7 C 0.43928(12) 0.7708(3) 0.1651(2)
H9_7 H 0.4236 0.8059 0.1800
C15_7 C 0.43505(11) 0.6761(3) 0.1575(2)
C16_7 C 0.45906(12) 0.6264(3) 0.1367(2)
H10_7 H 0.4566 0.5615 0.1313
C17_7 C 0.48647(12) 0.6693(3) 0.1238(2)
H11_4 H 0.5027 0.6342 0.1106
C18_7 C 0.40199(11) 0.6242(3) 0.1594(2)
C19_7 C 0.37903(11) 0.6821(3) 0.1919(2)
C20_7 C 0.39315(12) 0.7240(3) 0.2569(2)
H12_7 H 0.4171 0.7215 0.2791
C21_7 C 0.37269(12) 0.7691(3) 0.2892(2)
H13_7 H 0.3826 0.7960 0.3334
C22_7 C 0.33754(12) 0.7746(3) 0.2564(2)
C23_7 C 0.32285(12) 0.7325(3) 0.1925(2)
H14_7 H 0.2990 0.7357 0.1702
C24_7 C 0.34368(12) 0.6856(3) 0.1617(2)
H15_7 H 0.3335 0.6552 0.1189
C25_7 C 0.28412(11) 0.7947(3) 0.2877(2)
H16_7 H 0.2727 0.7417 0.2642
C26_7 C 0.29574(13) 0.9203(3) 0.3482(3)
H17_7 H 0.2935 0.9717 0.3751
C27_7 C 0.32368(14) 0.9011(3) 0.3281(3)
H18_7 H 0.3441 0.9358 0.3387
C28_4 C 0.42569(14) 0.2237(4) 0.3307(2)
H19_4 H 0.4185 0.2027 0.2843
C29_4 C 0.44028(18) 0.3160(4) 0.4196(3)
H20_4 H 0.4455 0.3694 0.4479
C30_4 C 0.44088(16) 0.2267(4) 0.4407(3)
H21_4 H 0.4465 0.2075 0.4874
C31_4 C 0.42423(13) 0.3897(3) 0.3008(2)
C32_4 C 0.44913(14) 0.4554(4) 0.3061(3)
H22_4 H 0.4705 0.4514 0.3413
C33_7 C 0.44214(13) 0.5278(3) 0.2585(3)
H23_7 H 0.4593 0.5724 0.2618
C34_7 C 0.41119(11) 0.5370(3) 0.2068(2)
C35_4 C 0.38624(11) 0.4706(3) 0.2042(2)
H24_4 H 0.3645 0.4761 0.1703
C36_4 C 0.39262(13) 0.3965(3) 0.2504(3)
H25_4 H 0.3756 0.3515 0.2472
C37_7 C 0.38352(10) 0.6024(3) 0.0822(2)
C38_7 C 0.36979(13) 0.6757(3) 0.0371(2)
H26_7 H 0.3709 0.7361 0.0555
C42_7 C 0.38216(13) 0.5163(3) 0.0523(2)
H29_4 H 0.3917 0.4650 0.0808
C46_7 C 0.22762(13) 0.9725(5) 0.4375(3)
C47_7 C 0.23681(12) 0.9904(4) 0.5134(2)
C51_7 C 0.25941(12) 0.9337(3) 0.6315(2)
C52_7 C 0.24950(12) 0.9185(3) 0.5602(2)
H36_7 H 0.2514 0.8584 0.5433
C53_7 C 0.27406(14) 0.8554(4) 0.6813(3)
O4_4 O 0.56775(10) 0.9611(3) 0.74531(17)
N8_7 N 0.33616(10) 0.5612(3) 0.86567(18)
H4_4 H 0.5781 0.9885 0.8719
C8_4 C 0.59864(14) 0.9834(3) 0.7615(2)
C39_7 C 0.35463(14) 0.6635(3) 0.9668(2)
H27_7 H 0.3456 0.7149 0.9381
C40_7 C 0.35262(11) 0.5758(3) 0.9382(2)
C41_7 C 0.36698(15) 0.5026(4) 0.9806(3)
H28_4 H 0.3667 0.4428 0.9615
C43_7 C 0.32159(12) 0.6271(3) 0.8183(2)
H30_7 H 0.3217 0.6910 0.8286
C44_4 C 0.31273(14) 0.4973(4) 0.7643(3)
H31_4 H 0.3052 0.4526 0.7288
C45_4 C 0.33060(15) 0.4782(3) 0.8315(3)
H32_4 H 0.3378 0.4192 0.8507
O5_8 O 0.72315(11) 0.3872(3) 0.41918(18)
O6_8 O 0.72549(12) 0.5371(3) 0.3965(2)
O8_8 O 0.77471(12) 0.3625(3) 0.7425(2)
N3_8 N 0.77135(10) 0.3523(3) 0.32259(19)
N4_8 N 0.81616(9) 0.3212(2) 0.28970(18)
C12_8 C 0.98961(11) 0.2642(3) 0.1306(2)
C13_8 C 0.96654(12) 0.3156(3) 0.1512(3)
H8_8 H 0.9690 0.3805 0.1560
C14_8 C 0.93928(12) 0.2708(3) 0.1651(2)
H9_8 H 0.9236 0.3059 0.1800
C15_8 C 0.93505(11) 0.1761(3) 0.1575(2)
C16_8 C 0.95906(12) 0.1264(3) 0.1367(2)
H10_8 H 0.9566 0.0615 0.1313
C17_8 C 0.98647(12) 0.1693(3) 0.1238(2)
C18_8 C 0.90199(11) 0.1242(3) 0.1594(2)
C19_8 C 0.87903(11) 0.1821(3) 0.1919(2)
C20_8 C 0.89315(12) 0.2240(3) 0.2569(2)
H12_8 H 0.9171 0.2215 0.2791
C21_8 C 0.87269(12) 0.2691(3) 0.2892(2)
H13_8 H 0.8826 0.2960 0.3334
C22_8 C 0.83754(12) 0.2746(3) 0.2564(2)
C23_8 C 0.82285(12) 0.2325(3) 0.1925(2)
H14_8 H 0.7990 0.2357 0.1702
C24_8 C 0.84368(12) 0.1856(3) 0.1617(2)
H15_8 H 0.8335 0.1552 0.1189
C25_8 C 0.78412(11) 0.2947(3) 0.2877(2)
H16_8 H 0.7727 0.2417 0.2642
C26_8 C 0.79574(13) 0.4203(3) 0.3482(3)
H17_8 H 0.7935 0.4717 0.3751
C27_8 C 0.82368(14) 0.4011(3) 0.3281(3)
H18_8 H 0.8441 0.4358 0.3387
C33_8 C 0.94214(13) 0.0278(3) 0.2585(3)
H23_8 H 0.9593 0.0724 0.2618
C34_8 C 0.91119(11) 0.0370(3) 0.2068(2)
C37_8 C 0.88352(10) 0.1024(3) 0.0822(2)
C38_8 C 0.86979(13) 0.1757(3) 0.0371(2)
H26_8 H 0.8709 0.2361 0.0555
C42_8 C 0.88216(13) 0.0163(3) 0.0523(2)
C46_8 C 0.72762(13) 0.4725(5) 0.4375(3)
C47_8 C 0.73681(12) 0.4904(4) 0.5134(2)
C48_7 C 0.73346(12) 0.5782(4) 0.5383(3)
H33_7 H 0.7248 0.6273 0.5070
C49_7 C 0.74289(13) 0.5941(4) 0.6098(3)
H34_7 H 0.7405 0.6538 0.6266
C50_7 C 0.75568(13) 0.5229(3) 0.6555(3)
H35_7 H 0.7620 0.5341 0.7036
C51_8 C 0.75941(12) 0.4337(3) 0.6315(2)
C52_8 C 0.74950(12) 0.4185(3) 0.5602(2)
H36_8 H 0.7514 0.3584 0.5433
C53_8 C 0.77406(14) 0.3554(4) 0.6813(3)
N8_8 N 0.83616(10) 0.0612(3) 0.86567(18)
C39_8 C 0.85463(14) 0.1635(3) 0.9668(2)
H27_8 H 0.8456 0.2149 0.9381
C40_8 C 0.85262(11) 0.0758(3) 0.9382(2)
C41_8 C 0.86698(15) 0.0026(4) 0.9806(3)
C43_8 C 0.82159(12) 0.1271(3) 0.8183(2)
H30_8 H 0.8217 0.1910 0.8286
O2_3 O 0.43353(9) 0.9705(3) 0.01627(17)
C2_3 C 0.38238(12) 0.9682(3) 0.0470(2)
C3_3 C 0.34813(13) 0.9413(3) 0.0275(2)
C4_3 C 0.33093(13) 0.9391(4) 0.0773(3)
H2_3 H 0.3077 0.9209 0.0644
C5_3 C 0.34810(13) 0.9637(3) 0.1450(2)
H3_3 H 0.3366 0.9617 0.1783
C6_3 C 0.38214(11) 0.9913(3) 0.1649(2)
C7_3 C 0.39873(12) 0.9929(3) 0.1150(2)
Zn1_2 Zn 0.08216(2) 0.46559(4) 0.62187(3)
O1_5 O 0.11575(8) 0.4698(2) 0.56945(15)
O2_4 O 0.06647(9) 0.4705(3) 0.48373(17)
O3_3 O 0.11503(9) 0.5141(2) 0.21731(15)
O4_5 O 0.06775(10) 0.5389(3) 0.24531(17)
N1_5 N 0.05283(10) 0.5796(3) 0.6048(2)
N2_5 N 0.01687(9) 0.6889(3) 0.61307(19)
C1_5 C 0.09825(14) 0.4697(3) 0.5050(2)
C2_4 C 0.11762(12) 0.4682(3) 0.4530(2)
C3_4 C 0.15187(13) 0.4413(3) 0.4725(2)
H1_5 H 0.1635 0.4246 0.5189
C4_4 C 0.16907(13) 0.4391(4) 0.4227(3)
H2_4 H 0.1923 0.4209 0.4356
C5_4 C 0.15190(13) 0.4637(3) 0.3550(2)
H3_4 H 0.1634 0.4617 0.3217
C6_4 C 0.11786(11) 0.4913(3) 0.3351(2)
C7_4 C 0.10127(12) 0.4929(3) 0.3850(2)
H4_5 H 0.0781 0.5115 0.3719
C8_5 C 0.09864(14) 0.5166(3) 0.2615(2)
C9_5 C 0.03044(13) 0.6054(3) 0.6350(2)
H5_5 H 0.0246 0.5694 0.6683
C10_5 C 0.03223(14) 0.7194(4) 0.5660(3)
H6_5 H 0.0282 0.7761 0.5415
C11_5 C 0.05430(14) 0.6514(4) 0.5618(3)
H7_5 H 0.0685 0.6533 0.5335
H11_5 H 0.0027 0.8658 0.6106
Zn4_3 Zn 0.08216(2) 0.53441(4) 0.12187(3)
O9_3 O 0.11503(9) 0.4859(2) 0.71731(15)
N9_3 N 0.06786(11) 0.3314(3) 0.6151(2)
N6_5 N 0.06951(10) 0.1874(3) 0.6511(2)
C28_5 C 0.07431(14) 0.2763(4) 0.6693(2)
H19_5 H 0.0815 0.2973 0.7157
C29_5 C 0.05972(18) 0.1840(4) 0.5804(3)
H20_5 H 0.0545 0.1306 0.5521
C30_5 C 0.05912(16) 0.2733(4) 0.5593(3)
H21_5 H 0.0535 0.2925 0.5126
C31_5 C 0.07577(13) 0.1103(3) 0.6992(2)
C32_5 C 0.05087(14) 0.0446(4) 0.6939(3)
H22_5 H 0.0295 0.0486 0.6587
C35_5 C 0.11376(11) 0.0294(3) 0.7958(2)
H24_5 H 0.1355 0.0239 0.8297
C36_5 C 0.10738(13) 0.1035(3) 0.7496(3)
H25_5 H 0.1244 0.1485 0.7528
H29_5 H 0.1083 0.0350 0.9192
N5_3 N 0.06786(11) 0.6686(3) 0.1151(2)
N6_6 N 0.06951(10) 0.8126(3) 0.1511(2)
C28_6 C 0.07431(14) 0.7237(4) 0.1693(2)
H19_6 H 0.0815 0.7027 0.2157
C29_6 C 0.05972(18) 0.8160(4) 0.0804(3)
H20_6 H 0.0545 0.8694 0.0521
C30_6 C 0.05912(16) 0.7267(4) 0.0593(3)
H21_6 H 0.0535 0.7075 0.0126
C31_6 C 0.07577(13) 0.8897(3) 0.1992(2)
C32_6 C 0.05087(14) 0.9554(4) 0.1939(3)
H22_6 H 0.0295 0.9514 0.1587
C35_6 C 0.11376(11) 0.9706(3) 0.2958(2)
H24_6 H 0.1355 0.9761 0.3297
C36_6 C 0.10738(13) 0.8965(3) 0.2496(3)
H25_6 H 0.1244 0.8515 0.2528
H28_5 H 0.1333 0.9428 0.5385
H29_6 H 0.1083 0.9650 0.4192
C44_5 C 0.18727(14) 0.9973(4) 0.7357(3)
H31_5 H 0.1948 0.9526 0.7712
C45_5 C 0.16940(15) 0.9782(3) 0.6685(3)
H32_5 H 0.1622 0.9192 0.6493
O1_6 O 0.11575(8) 0.5302(2) 0.06945(15)
N1_6 N 0.05283(10) 0.4204(3) 0.1048(2)
N2_6 N 0.01687(9) 0.3111(3) 0.11307(19)
C1_6 C 0.09825(14) 0.5303(3) 0.0050(2)
H1_6 H 0.1635 0.5754 0.0189
C9_6 C 0.03044(13) 0.3946(3) 0.1350(2)
H5_6 H 0.0246 0.4306 0.1683
C10_6 C 0.03223(14) 0.2806(4) 0.0660(3)
H6_6 H 0.0282 0.2239 0.0415
C11_6 C 0.05430(14) 0.3486(4) 0.0618(3)
H7_6 H 0.0685 0.3467 0.0335
H11_6 H 0.0027 0.1342 0.1106
O2_5 O 0.06647(9) 0.5295(3) 0.98373(17)
O4_6 O 0.06775(10) 0.4611(3) 0.74531(17)
C2_5 C 0.11762(12) 0.5318(3) 0.9530(2)
C3_5 C 0.15187(13) 0.5587(3) 0.9725(2)
C4_5 C 0.16907(13) 0.5609(4) 0.9227(3)
H2_5 H 0.1923 0.5791 0.9356
C5_5 C 0.15190(13) 0.5363(3) 0.8550(2)
H3_5 H 0.1634 0.5383 0.8217
C6_5 C 0.11786(11) 0.5087(3) 0.8351(2)
C7_5 C 0.10127(12) 0.5071(3) 0.8850(2)
H4_6 H 0.0781 0.4885 0.8719
C8_6 C 0.09864(14) 0.4834(3) 0.7615(2)
N5_4 N 0.93214(11) 0.3314(3) 0.8849(2)
N6_7 N 0.93049(10) 0.1874(3) 0.8489(2)
C28_7 C 0.92569(14) 0.2763(4) 0.8307(2)
H19_7 H 0.9185 0.2973 0.7843
C29_7 C 0.94028(18) 0.1840(4) 0.9196(3)
H20_7 H 0.9455 0.1306 0.9479
C30_7 C 0.94088(16) 0.2733(4) 0.9407(3)
H21_7 H 0.9465 0.2925 0.9874
C31_7 C 0.92423(13) 0.1103(3) 0.8008(2)
C32_7 C 0.94913(14) 0.0446(4) 0.8061(3)
H22_7 H 0.9705 0.0486 0.8413
C35_7 C 0.88624(11) 0.0294(3) 0.7042(2)
H24_7 H 0.8645 0.0239 0.6703
C36_7 C 0.89262(13) 0.1035(3) 0.7504(3)
H25_7 H 0.8756 0.1485 0.7472
H28_6 H 0.8667 0.0572 0.4615
H29_7 H 0.8917 0.0350 0.5808
C44_6 C 0.81273(14) 0.0027(4) 0.2643(3)
H31_6 H 0.8052 0.0474 0.2288
C45_6 C 0.83060(15) 0.0218(3) 0.3315(3)
H32_6 H 0.8378 0.0808 0.3507
Zn3_2 Zn 0.91784(2) 0.46559(4) 0.87813(3)
O2_6 O 0.93353(9) 0.4705(3) 0.01627(17)
O3_4 O 0.88497(9) 0.5141(2) 0.28269(15)
O4_7 O 0.93225(10) 0.5389(3) 0.25469(17)
C2_6 C 0.88238(12) 0.4682(3) 0.0470(2)
C3_6 C 0.84813(13) 0.4413(3) 0.0275(2)
C4_6 C 0.83093(13) 0.4391(4) 0.0773(3)
H2_6 H 0.8077 0.4209 0.0644
C5_6 C 0.84810(13) 0.4637(3) 0.1450(2)
H3_6 H 0.8366 0.4617 0.1783
C6_6 C 0.88214(11) 0.4913(3) 0.1649(2)
C7_6 C 0.89873(12) 0.4929(3) 0.1150(2)
H4_7 H 0.9219 0.5115 0.1281
C8_7 C 0.90136(14) 0.5166(3) 0.2385(2)
Zn4_4 Zn 0.91784(2) 0.53441(4) 0.37813(3)
O1_7 O 0.88425(8) 0.4698(2) 0.93055(15)
N1_7 N 0.94717(10) 0.5796(3) 0.8952(2)
N2_7 N 0.98313(9) 0.6889(3) 0.88693(19)
C1_7 C 0.90175(14) 0.4697(3) 0.9950(2)
H1_7 H 0.8365 0.4246 0.9811
C9_7 C 0.96956(13) 0.6054(3) 0.8650(2)
H5_7 H 0.9754 0.5694 0.8317
C10_7 C 0.96777(14) 0.7194(4) 0.9340(3)
H6_7 H 0.9718 0.7761 0.9585
C11_7 C 0.94570(14) 0.6514(4) 0.9382(3)
H7_7 H 0.9315 0.6533 0.9665
H11_7 H 0.9973 0.8658 0.8894
O9_4 O 0.88497(9) 0.4859(2) 0.78269(15)
O1_8 O 0.88425(8) 0.5302(2) 0.43055(15)
O2_7 O 0.93353(9) 0.5295(3) 0.51627(17)
O4_8 O 0.93225(10) 0.4611(3) 0.75469(17)
N1_8 N 0.94717(10) 0.4204(3) 0.3952(2)
N2_8 N 0.98313(9) 0.3111(3) 0.38693(19)
C1_8 C 0.90175(14) 0.5303(3) 0.4950(2)
C2_7 C 0.88238(12) 0.5318(3) 0.5470(2)
C3_7 C 0.84813(13) 0.5587(3) 0.5275(2)
H1_8 H 0.8365 0.5754 0.4811
C4_7 C 0.83093(13) 0.5609(4) 0.5773(3)
H2_7 H 0.8077 0.5791 0.5644
C5_7 C 0.84810(13) 0.5363(3) 0.6450(2)
H3_7 H 0.8366 0.5383 0.6783
C6_7 C 0.88214(11) 0.5087(3) 0.6649(2)
C7_7 C 0.89873(12) 0.5071(3) 0.6150(2)
H4_8 H 0.9219 0.4885 0.6281
C8_8 C 0.90136(14) 0.4834(3) 0.7385(2)
C9_8 C 0.96956(13) 0.3946(3) 0.3650(2)
H5_8 H 0.9754 0.4306 0.3317
C10_8 C 0.96777(14) 0.2806(4) 0.4340(3)
H6_8 H 0.9718 0.2239 0.4585
C11_8 C 0.94570(14) 0.3486(4) 0.4382(3)
H7_8 H 0.9315 0.3467 0.4665
H11_8 H 0.9973 0.1342 0.3894
N9_4 N 0.93214(11) 0.6686(3) 0.3849(2)
N6_8 N 0.93049(10) 0.8126(3) 0.3489(2)
C28_8 C 0.92569(14) 0.7237(4) 0.3307(2)
H19_8 H 0.9185 0.7027 0.2843
C29_8 C 0.94028(18) 0.8160(4) 0.4196(3)
H20_8 H 0.9455 0.8694 0.4479
C30_8 C 0.94088(16) 0.7267(4) 0.4407(3)
H21_8 H 0.9465 0.7075 0.4874
C31_8 C 0.92423(13) 0.8897(3) 0.3008(2)
C32_8 C 0.94913(14) 0.9554(4) 0.3061(3)
H22_8 H 0.9705 0.9514 0.3413
C35_8 C 0.88624(11) 0.9706(3) 0.2042(2)
H24_8 H 0.8645 0.9761 0.1703
C36_8 C 0.89262(13) 0.8965(3) 0.2504(3)
H25_8 H 0.8756 0.8515 0.2472
H29_8 H 0.8917 0.9650 0.0808
H28_7 H 0.1333 0.0572 0.0385
C44_7 C 0.18727(14) 0.0027(4) 0.2357(3)
H31_7 H 0.1948 0.0474 0.2712
C45_7 C 0.16940(15) 0.0218(3) 0.1685(3)
H32_7 H 0.1622 0.0808 0.1493
C48_8 C 0.76654(12) 0.0782(4) 0.9617(3)
H33_8 H 0.7752 0.1273 0.9930
C49_8 C 0.75711(13) 0.0941(4) 0.8902(3)
H34_8 H 0.7595 0.1538 0.8734
C50_8 C 0.74432(13) 0.0229(3) 0.8445(3)
H35_8 H 0.7380 0.0341 0.7964
O2_8 O 0.56647(9) 0.0295(3) 0.98373(17)
C2_8 C 0.61762(12) 0.0318(3) 0.9530(2)
C3_8 C 0.65187(13) 0.0587(3) 0.9725(2)
C4_8 C 0.66907(13) 0.0609(4) 0.9227(3)
H2_8 H 0.6923 0.0791 0.9356
C5_8 C 0.65190(13) 0.0363(3) 0.8550(2)
H3_8 H 0.6634 0.0383 0.8217
C6_8 C 0.61786(11) 0.0087(3) 0.8351(2)
C7_8 C 0.60127(12) 0.0071(3) 0.8850(2)
H28_8 H 0.8667 0.9428 0.9615
C44_8 C 0.81273(14) 0.9973(4) 0.7643(3)
H31_8 H 0.8052 0.9526 0.7288
C45_8 C 0.83060(15) 0.9782(3) 0.8315(3)
H32_8 H 0.8378 0.9192 0.8507
loop_
_geom_bond_atom_site_label_1
_geom_bond_atom_site_label_2
_geom_bond_site_symmetry_1
_geom_bond_site_symmetry_2
O7 C53 1_555 1_555
O8 C53 1_555 1_555
C52 C47 1_555 1_555
H36 C52 1_555 1_555
C53 C51 1_555 1_555
Zn6 O7 1_555 1_555
C51 C52 1_555 1_555
Zn2 O5 1_555 1_555
O3 C8 1_555 1_555
O4 C8 1_555 1_555
O5 C46 1_555 1_555
N2 C9 1_555 1_555
N3 Zn2 1_555 1_555
N4 C22 1_555 1_555
N5 C28 1_555 1_555
N6 C28 1_555 1_555
N7 C43 1_555 1_555
N8 C40 1_555 1_555
C9 N1 1_555 1_555
H5 C9 1_555 1_555
C10 N2 1_555 1_555
H6 C10 1_555 1_555
C11 N1 1_555 1_555
H7 C11 1_555 1_555
C12 N2 1_555 1_555
C13 C12 1_555 1_555
H8 C13 1_555 1_555
C14 C13 1_555 1_555
H9 C14 1_555 1_555
C15 C14 1_555 1_555
C16 C15 1_555 1_555
H10 C16 1_555 1_555
C17 C12 1_555 1_555
H11 C17 1_555 1_555
C18 C15 1_555 1_555
C19 C18 1_555 1_555
C20 C19 1_555 1_555
H12 C20 1_555 1_555
C21 C20 1_555 1_555
H13 C21 1_555 1_555
C22 C21 1_555 1_555
C23 C22 1_555 1_555
H14 C23 1_555 1_555
C24 C19 1_555 1_555
H15 C24 1_555 1_555
C25 N3 1_555 1_555
H16 C25 1_555 1_555
C26 N3 1_555 1_555
H17 C26 1_555 1_555
C27 N4 1_555 1_555
H18 C27 1_555 1_555
C28 H19 1_555 1_555
C29 N6 1_555 1_555
H20 C29 1_555 1_555
C30 N5 1_555 1_555
H21 C30 1_555 1_555
C31 N6 1_555 1_555
C32 C31 1_555 1_555
H22 C32 1_555 1_555
C33 C32 1_555 1_555
H23 C33 1_555 1_555
C34 C18 1_555 1_555
C35 C34 1_555 1_555
H24 C35 1_555 1_555
C36 C31 1_555 1_555
H25 C36 1_555 1_555
C37 C18 1_555 1_555
C38 C37 1_555 1_555
H26 C38 1_555 1_555
C39 C38 1_555 1_555
H27 C39 1_555 1_555
C40 C39 1_555 1_555
C41 C40 1_555 1_555
H28 C41 1_555 1_555
C42 C37 1_555 1_555
H29 C42 1_555 1_555
C43 N8 1_555 1_555
H30 C43 1_555 1_555
C44 N7 1_555 1_555
H31 C44 1_555 1_555
C45 N8 1_555 1_555
H32 C45 1_555 1_555
Zn3 N5 1_555 1_555
Zn4 O3 1_555 1_555
Zn6 N7 1_555 1_555
O10 Zn2 1_555 1_555
N10 Zn2 1_555 1_555
N4 C25 1_555 1_555
C10 C11 1_555 1_555
C16 C17 1_555 1_555
C23 C24 1_555 1_555
C26 C27 1_555 1_555
C29 C30 1_555 1_555
C33 C34 1_555 1_555
C35 C36 1_555 1_555
C41 C42 1_555 1_555
C44 C45 1_555 1_555
Zn3 O1 1_555 1_555
O1 C1 1_555 1_555
C48 H33 1_555 1_555
C49 C48 1_555 1_555
H34 C49 1_555 1_555
C50 C49 1_555 1_555
H35 C50 1_555 1_555
O9 Zn3 1_555 1_555
O7_2 C53_2 1_555 1_555
O8_2 C53_2 1_555 1_555
C47_2 C48_2 1_555 1_555
C48_2 H33_2 1_555 1_555
C49_2 C48_2 1_555 1_555
H34_2 C49_2 1_555 1_555
C50_2 C49_2 1_555 1_555
H35_2 C50_2 1_555 1_555
C51_2 C50_2 1_555 1_555
C52_2 C47_2 1_555 1_555
H36_2 C52_2 1_555 1_555
C53_2 C51_2 1_555 1_555
Zn6_2 O7_2 1_555 1_555
C51_2 C52_2 1_555 1_555
Zn2_2 O5_2 1_555 1_555
O5_2 C46_2 1_555 1_555
O6_2 C46_2 1_555 1_555
N3_2 Zn2_2 1_555 1_555
N4_2 C22_2 1_555 1_555
N7_2 C43_2 1_555 1_555
N8_2 C40_2 1_555 1_555
C13_2 C12_2 1_555 1_555
H8_2 C13_2 1_555 1_555
C14_2 C13_2 1_555 1_555
H9_2 C14_2 1_555 1_555
C15_2 C14_2 1_555 1_555
C16_2 C15_2 1_555 1_555
H10_2 C16_2 1_555 1_555
C17_2 C12_2 1_555 1_555
C18_2 C15_2 1_555 1_555
C19_2 C18_2 1_555 1_555
C20_2 C19_2 1_555 1_555
H12_2 C20_2 1_555 1_555
C21_2 C20_2 1_555 1_555
H13_2 C21_2 1_555 1_555
C22_2 C21_2 1_555 1_555
C23_2 C22_2 1_555 1_555
H14_2 C23_2 1_555 1_555
C24_2 C19_2 1_555 1_555
H15_2 C24_2 1_555 1_555
C25_2 N3_2 1_555 1_555
H16_2 C25_2 1_555 1_555
C26_2 N3_2 1_555 1_555
H17_2 C26_2 1_555 1_555
C27_2 N4_2 1_555 1_555
H18_2 C27_2 1_555 1_555
H23_2 C33_2 1_555 1_555
C34_2 C18_2 1_555 1_555
C37_2 C18_2 1_555 1_555
C38_2 C37_2 1_555 1_555
H26_2 C38_2 1_555 1_555
C39_2 C38_2 1_555 1_555
H27_2 C39_2 1_555 1_555
C40_2 C39_2 1_555 1_555
C41_2 C40_2 1_555 1_555
C42_2 C37_2 1_555 1_555
C43_2 N8_2 1_555 1_555
H30_2 C43_2 1_555 1_555
Zn6_2 N7_2 1_555 1_555
O10_2 Zn2_2 1_555 1_555
N10_2 Zn2_2 1_555 1_555
N4_2 C25_2 1_555 1_555
C16_2 C17_2 1_555 1_555
C23_2 C24_2 1_555 1_555
C26_2 C27_2 1_555 1_555
C33_2 C34_2 1_555 1_555
C41_2 C42_2 1_555 1_555
Zn6_2 O5_3 1_555 1_555
O9 C8_2 1_555 1_555
O4_2 C8_2 1_555 1_555
O5_3 C46_3 1_555 1_555
N2_2 C9_2 1_555 1_555
N3_3 Zn6_2 1_555 1_555
N4_3 C22_3 1_555 1_555
N5_2 C28_2 1_555 1_555
N6_2 C28_2 1_555 1_555
N10_2 C43_3 1_555 1_555
N8_3 C40_3 1_555 1_555
C9_2 N1_2 1_555 1_555
H5_2 C9_2 1_555 1_555
C10_2 N2_2 1_555 1_555
H6_2 C10_2 1_555 1_555
C11_2 N1_2 1_555 1_555
H7_2 C11_2 1_555 1_555
C12_3 N2_2 1_555 1_555
C13_3 C12_3 1_555 1_555
H8_3 C13_3 1_555 1_555
C14_3 C13_3 1_555 1_555
H9_3 C14_3 1_555 1_555
C15_3 C14_3 1_555 1_555
C16_3 C15_3 1_555 1_555
H10_3 C16_3 1_555 1_555
C17_3 C12_3 1_555 1_555
H11_2 C17_3 1_555 1_555
C18_3 C15_3 1_555 1_555
C19_3 C18_3 1_555 1_555
C20_3 C19_3 1_555 1_555
H12_3 C20_3 1_555 1_555
C21_3 C20_3 1_555 1_555
H13_3 C21_3 1_555 1_555
C22_3 C21_3 1_555 1_555
C23_3 C22_3 1_555 1_555
H14_3 C23_3 1_555 1_555
C24_3 C19_3 1_555 1_555
H15_3 C24_3 1_555 1_555
C25_3 N3_3 1_555 1_555
H16_3 C25_3 1_555 1_555
C26_3 N3_3 1_555 1_555
H17_3 C26_3 1_555 1_555
C27_3 N4_3 1_555 1_555
H18_3 C27_3 1_555 1_555
C28_2 H19_2 1_555 1_555
C29_2 N6_2 1_555 1_555
H20_2 C29_2 1_555 1_555
C30_2 N5_2 1_555 1_555
H21_2 C30_2 1_555 1_555
C31_2 N6_2 1_555 1_555
C32_2 C31_2 1_555 1_555
H22_2 C32_2 1_555 1_555
C33_3 C32_2 1_555 1_555
H23_3 C33_3 1_555 1_555
C34_3 C18_3 1_555 1_555
C35_2 C34_3 1_555 1_555
H24_2 C35_2 1_555 1_555
C36_2 C31_2 1_555 1_555
H25_2 C36_2 1_555 1_555
C37_3 C18_3 1_555 1_555
C38_3 C37_3 1_555 1_555
H26_3 C38_3 1_555 1_555
C39_3 C38_3 1_555 1_555
H27_3 C39_3 1_555 1_555
C40_3 C39_3 1_555 1_555
C41_3 C40_3 1_555 1_555
H28_2 C41_3 1_555 1_555
C42_3 C37_3 1_555 1_555
H29_2 C42_3 1_555 1_555
C43_3 N8_3 1_555 1_555
H30_3 C43_3 1_555 1_555
C44_2 N10_2 1_555 1_555
H31_2 C44_2 1_555 1_555
C45_2 N8_3 1_555 1_555
H32_2 C45_2 1_555 1_555
Zn4 N5_2 1_555 1_555
N4_3 C25_3 1_555 1_555
C10_2 C11_2 1_555 1_555
C16_3 C17_3 1_555 1_555
C23_3 C24_3 1_555 1_555
C26_3 C27_3 1_555 1_555
C29_2 C30_2 1_555 1_555
C33_3 C34_3 1_555 1_555
C35_2 C36_2 1_555 1_555
C41_3 C42_3 1_555 1_555
C44_2 C45_2 1_555 1_555
O10_2 C53_3 1_555 1_555
O8_3 C53_3 1_555 1_555
C52_3 C47_3 1_555 1_555
H36_3 C52_3 1_555 1_555
C53_3 C51_3 1_555 1_555
C51_3 C52_3 1_555 1_555
Zn4 O1_2 1_555 1_555
O1_2 C1_2 1_555 1_555
C48_3 H33_3 1_555 1_555
C49_3 C48_3 1_555 1_555
H34_3 C49_3 1_555 1_555
C50_3 C49_3 1_555 1_555
H35_3 C50_3 1_555 1_555
Zn6 O5_4 1_555 1_555
O5_4 C46_4 1_555 1_555
O6_4 C46_4 1_555 1_555
N3_4 Zn6 1_555 1_555
N4_4 C22_4 1_555 1_555
N10 C43_4 1_555 1_555
N8_4 C40_4 1_555 1_555
C13_4 C12_4 1_555 1_555
H8_4 C13_4 1_555 1_555
C14_4 C13_4 1_555 1_555
H9_4 C14_4 1_555 1_555
C15_4 C14_4 1_555 1_555
C16_4 C15_4 1_555 1_555
H10_4 C16_4 1_555 1_555
C17_4 C12_4 1_555 1_555
C18_4 C15_4 1_555 1_555
C19_4 C18_4 1_555 1_555
C20_4 C19_4 1_555 1_555
H12_4 C20_4 1_555 1_555
C21_4 C20_4 1_555 1_555
H13_4 C21_4 1_555 1_555
C22_4 C21_4 1_555 1_555
C23_4 C22_4 1_555 1_555
H14_4 C23_4 1_555 1_555
C24_4 C19_4 1_555 1_555
H15_4 C24_4 1_555 1_555
C25_4 N3_4 1_555 1_555
H16_4 C25_4 1_555 1_555
C26_4 N3_4 1_555 1_555
H17_4 C26_4 1_555 1_555
C27_4 N4_4 1_555 1_555
H18_4 C27_4 1_555 1_555
H23_4 C33_4 1_555 1_555
C34_4 C18_4 1_555 1_555
C37_4 C18_4 1_555 1_555
C38_4 C37_4 1_555 1_555
H26_4 C38_4 1_555 1_555
C39_4 C38_4 1_555 1_555
H27_4 C39_4 1_555 1_555
C40_4 C39_4 1_555 1_555
C41_4 C40_4 1_555 1_555
C42_4 C37_4 1_555 1_555
C43_4 N8_4 1_555 1_555
H30_4 C43_4 1_555 1_555
N4_4 C25_4 1_555 1_555
C16_4 C17_4 1_555 1_555
C23_4 C24_4 1_555 1_555
C26_4 C27_4 1_555 1_555
C33_4 C34_4 1_555 1_555
C41_4 C42_4 1_555 1_555
O10 C53_4 1_555 1_555
O8_4 C53_4 1_555 1_555
C47_4 C48_4 1_555 1_555
C48_4 H33_4 1_555 1_555
C49_4 C48_4 1_555 1_555
H34_4 C49_4 1_555 1_555
C50_4 C49_4 1_555 1_555
H35_4 C50_4 1_555 1_555
C51_4 C50_4 1_555 1_555
C52_4 C47_4 1_555 1_555
H36_4 C52_4 1_555 1_555
C53_4 C51_4 1_555 1_555
C51_4 C52_4 1_555 1_555
C48_5 H33_5 1_555 1_555
C49_5 C48_5 1_555 1_555
H34_5 C49_5 1_555 1_555
C50_5 C49_5 1_555 1_555
H35_5 C50_5 1_555 1_555
Zn1 O1_3 1_555 1_555
O1_3 C1_3 1_555 1_555
O2 C1_3 1_555 1_555
C1_3 C2 1_555 1_555
C2 C3 1_555 1_555
C3 H1_3 1_555 1_555
C4 C3 1_555 1_555
H2 C4 1_555 1_555
C5 C4 1_555 1_555
H3 C5 1_555 1_555
C6 C5 1_555 1_555
C7 C2 1_555 1_555
O9_2 Zn1 1_555 1_555
N9 Zn1 1_555 1_555
C6 C7 1_555 1_555
O3_2 C8_3 1_555 1_555
O4_3 C8_3 1_555 1_555
N7_3 C43_5 1_555 1_555
N8_5 C40_5 1_555 1_555
H27_5 C39_5 1_555 1_555
C40_5 C39_5 1_555 1_555
C41_5 C40_5 1_555 1_555
H28_3 C41_5 1_555 1_555
C43_5 N8_5 1_555 1_555
H30_5 C43_5 1_555 1_555
C44_3 N7_3 1_555 1_555
H31_3 C44_3 1_555 1_555
C45_3 N8_5 1_555 1_555
H32_3 C45_3 1_555 1_555
Zn4_2 O3_2 1_555 1_555
Zn5 N7_3 1_555 1_555
C44_3 C45_3 1_555 1_555
Zn2_3 O5_5 1_555 1_555
O5_5 C46_5 1_555 1_555
O7_3 C53_5 1_555 1_555
O8_5 C53_5 1_555 1_555
N2_3 C9_3 1_555 1_555
N3_5 Zn2_3 1_555 1_555
N4_5 C22_5 1_555 1_555
N9 C28_3 1_555 1_555
N6_3 C28_3 1_555 1_555
C9_3 N1_3 1_555 1_555
H5_3 C9_3 1_555 1_555
C10_3 N2_3 1_555 1_555
H6_3 C10_3 1_555 1_555
C11_3 N1_3 1_555 1_555
H7_3 C11_3 1_555 1_555
C12_5 N2_3 1_555 1_555
C13_5 C12_5 1_555 1_555
H8_5 C13_5 1_555 1_555
C14_5 C13_5 1_555 1_555
H9_5 C14_5 1_555 1_555
C15_5 C14_5 1_555 1_555
C16_5 C15_5 1_555 1_555
H10_5 C16_5 1_555 1_555
C17_5 C12_5 1_555 1_555
H11_3 C17_5 1_555 1_555
C18_5 C15_5 1_555 1_555
C19_5 C18_5 1_555 1_555
C20_5 C19_5 1_555 1_555
H12_5 C20_5 1_555 1_555
C21_5 C20_5 1_555 1_555
H13_5 C21_5 1_555 1_555
C22_5 C21_5 1_555 1_555
C23_5 C22_5 1_555 1_555
H14_5 C23_5 1_555 1_555
C24_5 C19_5 1_555 1_555
H15_5 C24_5 1_555 1_555
C25_5 N3_5 1_555 1_555
H16_5 C25_5 1_555 1_555
C26_5 N3_5 1_555 1_555
H17_5 C26_5 1_555 1_555
C27_5 N4_5 1_555 1_555
H18_5 C27_5 1_555 1_555
C28_3 H19_3 1_555 1_555
C29_3 N6_3 1_555 1_555
H20_3 C29_3 1_555 1_555
C30_3 N9 1_555 1_555
H21_3 C30_3 1_555 1_555
C31_3 N6_3 1_555 1_555
C32_3 C31_3 1_555 1_555
H22_3 C32_3 1_555 1_555
C33_5 C32_3 1_555 1_555
H23_5 C33_5 1_555 1_555
C34_5 C18_5 1_555 1_555
C35_3 C34_5 1_555 1_555
H24_3 C35_3 1_555 1_555
C36_3 C31_3 1_555 1_555
H25_3 C36_3 1_555 1_555
C37_5 C18_5 1_555 1_555
C38_5 C37_5 1_555 1_555
H26_5 C38_5 1_555 1_555
C42_5 C37_5 1_555 1_555
H29_3 C42_5 1_555 1_555
C46_5 C47_5 1_555 1_555
C52_5 C47_5 1_555 1_555
H36_5 C52_5 1_555 1_555
C53_5 C51_5 1_555 1_555
Zn5 O7_3 1_555 1_555
O10_3 Zn2_3 1_555 1_555
N10_3 Zn2_3 1_555 1_555
N4_5 C25_5 1_555 1_555
C10_3 C11_3 1_555 1_555
C16_5 C17_5 1_555 1_555
C23_5 C24_5 1_555 1_555
C26_5 C27_5 1_555 1_555
C29_3 C30_3 1_555 1_555
C33_5 C34_5 1_555 1_555
C35_3 C36_3 1_555 1_555
C51_5 C52_5 1_555 1_555
N7_4 C43_6 1_555 1_555
N8_6 C40_6 1_555 1_555
H27_6 C39_6 1_555 1_555
C40_6 C39_6 1_555 1_555
C41_6 C40_6 1_555 1_555
C43_6 N8_6 1_555 1_555
H30_6 C43_6 1_555 1_555
Zn5_2 N7_4 1_555 1_555
Zn2_4 O5_6 1_555 1_555
O5_6 C46_6 1_555 1_555
O6_6 C46_6 1_555 1_555
O7_4 C53_6 1_555 1_555
O8_6 C53_6 1_555 1_555
N3_6 Zn2_4 1_555 1_555
N4_6 C22_6 1_555 1_555
C13_6 C12_6 1_555 1_555
H8_6 C13_6 1_555 1_555
C14_6 C13_6 1_555 1_555
H9_6 C14_6 1_555 1_555
C15_6 C14_6 1_555 1_555
C16_6 C15_6 1_555 1_555
H10_6 C16_6 1_555 1_555
C17_6 C12_6 1_555 1_555
C18_6 C15_6 1_555 1_555
C19_6 C18_6 1_555 1_555
C20_6 C19_6 1_555 1_555
H12_6 C20_6 1_555 1_555
C21_6 C20_6 1_555 1_555
H13_6 C21_6 1_555 1_555
C22_6 C21_6 1_555 1_555
C23_6 C22_6 1_555 1_555
H14_6 C23_6 1_555 1_555
C24_6 C19_6 1_555 1_555
H15_6 C24_6 1_555 1_555
C25_6 N3_6 1_555 1_555
H16_6 C25_6 1_555 1_555
C26_6 N3_6 1_555 1_555
H17_6 C26_6 1_555 1_555
C27_6 N4_6 1_555 1_555
H18_6 C27_6 1_555 1_555
H23_6 C33_6 1_555 1_555
C34_6 C18_6 1_555 1_555
C37_6 C18_6 1_555 1_555
C38_6 C37_6 1_555 1_555
H26_6 C38_6 1_555 1_555
C42_6 C37_6 1_555 1_555
C46_6 C47_6 1_555 1_555
C47_6 C48_6 1_555 1_555
C48_6 H33_6 1_555 1_555
C49_6 C48_6 1_555 1_555
H34_6 C49_6 1_555 1_555
C50_6 C49_6 1_555 1_555
H35_6 C50_6 1_555 1_555
C51_6 C50_6 1_555 1_555
C52_6 C47_6 1_555 1_555
H36_6 C52_6 1_555 1_555
C53_6 C51_6 1_555 1_555
Zn5_2 O7_4 1_555 1_555
O10_4 Zn2_4 1_555 1_555
N10_4 Zn2_4 1_555 1_555
N4_6 C25_6 1_555 1_555
C16_6 C17_6 1_555 1_555
C23_6 C24_6 1_555 1_555
C26_6 C27_6 1_555 1_555
C33_6 C34_6 1_555 1_555
C51_6 C52_6 1_555 1_555
Zn4_2 O1_4 1_555 1_555
O1_4 C1_4 1_555 1_555
O2_2 C1_4 1_555 1_555
C1_4 C2_2 1_555 1_555
C2_2 C3_2 1_555 1_555
C3_2 H1_4 1_555 1_555
C4_2 C3_2 1_555 1_555
H2_2 C4_2 1_555 1_555
C5_2 C4_2 1_555 1_555
H3_2 C5_2 1_555 1_555
C6_2 C5_2 1_555 1_555
C7_2 C2_2 1_555 1_555
N9_2 Zn4_2 1_555 1_555
C6_2 C7_2 1_555 1_555
Zn5_2 O5_7 1_555 1_555
O5_7 C46_7 1_555 1_555
O10_4 C53_7 1_555 1_555
O8_7 C53_7 1_555 1_555
N2_4 C9_4 1_555 1_555
N3_7 Zn5_2 1_555 1_555
N4_7 C22_7 1_555 1_555
N9_2 C28_4 1_555 1_555
N6_4 C28_4 1_555 1_555
C9_4 N1_4 1_555 1_555
H5_4 C9_4 1_555 1_555
C10_4 N2_4 1_555 1_555
H6_4 C10_4 1_555 1_555
C11_4 N1_4 1_555 1_555
H7_4 C11_4 1_555 1_555
C12_7 N2_4 1_555 1_555
C13_7 C12_7 1_555 1_555
H8_7 C13_7 1_555 1_555
C14_7 C13_7 1_555 1_555
H9_7 C14_7 1_555 1_555
C15_7 C14_7 1_555 1_555
C16_7 C15_7 1_555 1_555
H10_7 C16_7 1_555 1_555
C17_7 C12_7 1_555 1_555
H11_4 C17_7 1_555 1_555
C18_7 C15_7 1_555 1_555
C19_7 C18_7 1_555 1_555
C20_7 C19_7 1_555 1_555
H12_7 C20_7 1_555 1_555
C21_7 C20_7 1_555 1_555
H13_7 C21_7 1_555 1_555
C22_7 C21_7 1_555 1_555
C23_7 C22_7 1_555 1_555
H14_7 C23_7 1_555 1_555
C24_7 C19_7 1_555 1_555
H15_7 C24_7 1_555 1_555
C25_7 N3_7 1_555 1_555
H16_7 C25_7 1_555 1_555
C26_7 N3_7 1_555 1_555
H17_7 C26_7 1_555 1_555
C27_7 N4_7 1_555 1_555
H18_7 C27_7 1_555 1_555
C28_4 H19_4 1_555 1_555
C29_4 N6_4 1_555 1_555
H20_4 C29_4 1_555 1_555
C30_4 N9_2 1_555 1_555
H21_4 C30_4 1_555 1_555
C31_4 N6_4 1_555 1_555
C32_4 C31_4 1_555 1_555
H22_4 C32_4 1_555 1_555
C33_7 C32_4 1_555 1_555
H23_7 C33_7 1_555 1_555
C34_7 C18_7 1_555 1_555
C35_4 C34_7 1_555 1_555
H24_4 C35_4 1_555 1_555
C36_4 C31_4 1_555 1_555
H25_4 C36_4 1_555 1_555
C37_7 C18_7 1_555 1_555
C38_7 C37_7 1_555 1_555
H26_7 C38_7 1_555 1_555
C42_7 C37_7 1_555 1_555
H29_4 C42_7 1_555 1_555
C46_7 C47_7 1_555 1_555
C52_7 C47_7 1_555 1_555
H36_7 C52_7 1_555 1_555
C53_7 C51_7 1_555 1_555
N4_7 C25_7 1_555 1_555
C10_4 C11_4 1_555 1_555
C16_7 C17_7 1_555 1_555
C23_7 C24_7 1_555 1_555
C26_7 C27_7 1_555 1_555
C29_4 C30_4 1_555 1_555
C33_7 C34_7 1_555 1_555
C35_4 C36_4 1_555 1_555
C51_7 C52_7 1_555 1_555
O9_2 C8_4 1_555 1_555
O4_4 C8_4 1_555 1_555
N10_4 C43_7 1_555 1_555
N8_7 C40_7 1_555 1_555
H27_7 C39_7 1_555 1_555
C40_7 C39_7 1_555 1_555
C41_7 C40_7 1_555 1_555
H28_4 C41_7 1_555 1_555
C43_7 N8_7 1_555 1_555
H30_7 C43_7 1_555 1_555
C44_4 N10_4 1_555 1_555
H31_4 C44_4 1_555 1_555
C45_4 N8_7 1_555 1_555
H32_4 C45_4 1_555 1_555
C44_4 C45_4 1_555 1_555
Zn5 O5_8 1_555 1_555
O5_8 C46_8 1_555 1_555
O6_8 C46_8 1_555 1_555
O10_3 C53_8 1_555 1_555
O8_8 C53_8 1_555 1_555
N3_8 Zn5 1_555 1_555
N4_8 C22_8 1_555 1_555
C13_8 C12_8 1_555 1_555
H8_8 C13_8 1_555 1_555
C14_8 C13_8 1_555 1_555
H9_8 C14_8 1_555 1_555
C15_8 C14_8 1_555 1_555
C16_8 C15_8 1_555 1_555
H10_8 C16_8 1_555 1_555
C17_8 C12_8 1_555 1_555
C18_8 C15_8 1_555 1_555
C19_8 C18_8 1_555 1_555
C20_8 C19_8 1_555 1_555
H12_8 C20_8 1_555 1_555
C21_8 C20_8 1_555 1_555
H13_8 C21_8 1_555 1_555
C22_8 C21_8 1_555 1_555
C23_8 C22_8 1_555 1_555
H14_8 C23_8 1_555 1_555
C24_8 C19_8 1_555 1_555
H15_8 C24_8 1_555 1_555
C25_8 N3_8 1_555 1_555
H16_8 C25_8 1_555 1_555
C26_8 N3_8 1_555 1_555
H17_8 C26_8 1_555 1_555
C27_8 N4_8 1_555 1_555
H18_8 C27_8 1_555 1_555
H23_8 C33_8 1_555 1_555
C34_8 C18_8 1_555 1_555
C37_8 C18_8 1_555 1_555
C38_8 C37_8 1_555 1_555
H26_8 C38_8 1_555 1_555
C42_8 C37_8 1_555 1_555
C46_8 C47_8 1_555 1_555
C47_8 C48_7 1_555 1_555
C48_7 H33_7 1_555 1_555
C49_7 C48_7 1_555 1_555
H34_7 C49_7 1_555 1_555
C50_7 C49_7 1_555 1_555
H35_7 C50_7 1_555 1_555
C51_8 C50_7 1_555 1_555
C52_8 C47_8 1_555 1_555
H36_8 C52_8 1_555 1_555
C53_8 C51_8 1_555 1_555
N4_8 C25_8 1_555 1_555
C16_8 C17_8 1_555 1_555
C23_8 C24_8 1_555 1_555
C26_8 C27_8 1_555 1_555
C33_8 C34_8 1_555 1_555
C51_8 C52_8 1_555 1_555
N10_3 C43_8 1_555 1_555
N8_8 C40_8 1_555 1_555
H27_8 C39_8 1_555 1_555
C40_8 C39_8 1_555 1_555
C41_8 C40_8 1_555 1_555
C43_8 N8_8 1_555 1_555
H30_8 C43_8 1_555 1_555
C2_3 C3_3 1_555 1_555
C4_3 C3_3 1_555 1_555
H2_3 C4_3 1_555 1_555
C5_3 C4_3 1_555 1_555
H3_3 C5_3 1_555 1_555
C6_3 C5_3 1_555 1_555
C7_3 C2_3 1_555 1_555
C6_3 C7_3 1_555 1_555
Zn1_2 O1_5 1_555 1_555
O1_5 C1_5 1_555 1_555
O2_4 C1_5 1_555 1_555
O3_3 C8_5 1_555 1_555
O4_5 C8_5 1_555 1_555
N1_5 Zn1_2 1_555 1_555
N2_5 C9_5 1_555 1_555
C1_5 C2_4 1_555 1_555
C2_4 C3_4 1_555 1_555
C3_4 H1_5 1_555 1_555
C4_4 C3_4 1_555 1_555
H2_4 C4_4 1_555 1_555
C5_4 C4_4 1_555 1_555
H3_4 C5_4 1_555 1_555
C6_4 C5_4 1_555 1_555
C7_4 C2_4 1_555 1_555
H4_5 C7_4 1_555 1_555
C8_5 C6_4 1_555 1_555
C9_5 N1_5 1_555 1_555
H5_5 C9_5 1_555 1_555
C10_5 N2_5 1_555 1_555
H6_5 C10_5 1_555 1_555
C11_5 N1_5 1_555 1_555
H7_5 C11_5 1_555 1_555
Zn4_3 O3_3 1_555 1_555
O9_3 Zn1_2 1_555 1_555
N9_3 Zn1_2 1_555 1_555
C6_4 C7_4 1_555 1_555
C10_5 C11_5 1_555 1_555
N9_3 C28_5 1_555 1_555
N6_5 C28_5 1_555 1_555
C28_5 H19_5 1_555 1_555
C29_5 N6_5 1_555 1_555
H20_5 C29_5 1_555 1_555
C30_5 N9_3 1_555 1_555
H21_5 C30_5 1_555 1_555
C31_5 N6_5 1_555 1_555
C32_5 C31_5 1_555 1_555
H22_5 C32_5 1_555 1_555
H24_5 C35_5 1_555 1_555
C36_5 C31_5 1_555 1_555
H25_5 C36_5 1_555 1_555
C29_5 C30_5 1_555 1_555
C35_5 C36_5 1_555 1_555
N5_3 C28_6 1_555 1_555
N6_6 C28_6 1_555 1_555
C28_6 H19_6 1_555 1_555
C29_6 N6_6 1_555 1_555
H20_6 C29_6 1_555 1_555
C30_6 N5_3 1_555 1_555
H21_6 C30_6 1_555 1_555
C31_6 N6_6 1_555 1_555
C32_6 C31_6 1_555 1_555
H22_6 C32_6 1_555 1_555
H24_6 C35_6 1_555 1_555
C36_6 C31_6 1_555 1_555
H25_6 C36_6 1_555 1_555
H31_5 C44_5 1_555 1_555
H32_5 C45_5 1_555 1_555
Zn4_3 N5_3 1_555 1_555
C29_6 C30_6 1_555 1_555
C35_6 C36_6 1_555 1_555
C44_5 C45_5 1_555 1_555
Zn4_3 O1_6 1_555 1_555
O1_6 C1_6 1_555 1_555
N1_6 Zn4_3 1_555 1_555
N2_6 C9_6 1_555 1_555
C9_6 N1_6 1_555 1_555
H5_6 C9_6 1_555 1_555
C10_6 N2_6 1_555 1_555
H6_6 C10_6 1_555 1_555
C11_6 N1_6 1_555 1_555
H7_6 C11_6 1_555 1_555
C10_6 C11_6 1_555 1_555
O9_3 C8_6 1_555 1_555
O4_6 C8_6 1_555 1_555
C2_5 C3_5 1_555 1_555
C4_5 C3_5 1_555 1_555
H2_5 C4_5 1_555 1_555
C5_5 C4_5 1_555 1_555
H3_5 C5_5 1_555 1_555
C6_5 C5_5 1_555 1_555
C7_5 C2_5 1_555 1_555
H4_6 C7_5 1_555 1_555
C8_6 C6_5 1_555 1_555
C6_5 C7_5 1_555 1_555
N5_4 C28_7 1_555 1_555
N6_7 C28_7 1_555 1_555
C28_7 H19_7 1_555 1_555
C29_7 N6_7 1_555 1_555
H20_7 C29_7 1_555 1_555
C30_7 N5_4 1_555 1_555
H21_7 C30_7 1_555 1_555
C31_7 N6_7 1_555 1_555
C32_7 C31_7 1_555 1_555
H22_7 C32_7 1_555 1_555
H24_7 C35_7 1_555 1_555
C36_7 C31_7 1_555 1_555
H25_7 C36_7 1_555 1_555
H31_6 C44_6 1_555 1_555
H32_6 C45_6 1_555 1_555
Zn3_2 N5_4 1_555 1_555
C29_7 C30_7 1_555 1_555
C35_7 C36_7 1_555 1_555
C44_6 C45_6 1_555 1_555
O3_4 C8_7 1_555 1_555
O4_7 C8_7 1_555 1_555
C2_6 C3_6 1_555 1_555
C4_6 C3_6 1_555 1_555
H2_6 C4_6 1_555 1_555
C5_6 C4_6 1_555 1_555
H3_6 C5_6 1_555 1_555
C6_6 C5_6 1_555 1_555
C7_6 C2_6 1_555 1_555
H4_7 C7_6 1_555 1_555
C8_7 C6_6 1_555 1_555
Zn4_4 O3_4 1_555 1_555
C6_6 C7_6 1_555 1_555
Zn3_2 O1_7 1_555 1_555
O1_7 C1_7 1_555 1_555
N1_7 Zn3_2 1_555 1_555
N2_7 C9_7 1_555 1_555
C9_7 N1_7 1_555 1_555
H5_7 C9_7 1_555 1_555
C10_7 N2_7 1_555 1_555
H6_7 C10_7 1_555 1_555
C11_7 N1_7 1_555 1_555
H7_7 C11_7 1_555 1_555
O9_4 Zn3_2 1_555 1_555
C10_7 C11_7 1_555 1_555
Zn4_4 O1_8 1_555 1_555
O1_8 C1_8 1_555 1_555
O2_7 C1_8 1_555 1_555
O9_4 C8_8 1_555 1_555
O4_8 C8_8 1_555 1_555
N1_8 Zn4_4 1_555 1_555
N2_8 C9_8 1_555 1_555
C1_8 C2_7 1_555 1_555
C2_7 C3_7 1_555 1_555
C3_7 H1_8 1_555 1_555
C4_7 C3_7 1_555 1_555
H2_7 C4_7 1_555 1_555
C5_7 C4_7 1_555 1_555
H3_7 C5_7 1_555 1_555
C6_7 C5_7 1_555 1_555
C7_7 C2_7 1_555 1_555
H4_8 C7_7 1_555 1_555
C8_8 C6_7 1_555 1_555
C9_8 N1_8 1_555 1_555
H5_8 C9_8 1_555 1_555
C10_8 N2_8 1_555 1_555
H6_8 C10_8 1_555 1_555
C11_8 N1_8 1_555 1_555
H7_8 C11_8 1_555 1_555
N9_4 Zn4_4 1_555 1_555
C6_7 C7_7 1_555 1_555
C10_8 C11_8 1_555 1_555
N9_4 C28_8 1_555 1_555
N6_8 C28_8 1_555 1_555
C28_8 H19_8 1_555 1_555
C29_8 N6_8 1_555 1_555
H20_8 C29_8 1_555 1_555
C30_8 N9_4 1_555 1_555
H21_8 C30_8 1_555 1_555
C31_8 N6_8 1_555 1_555
C32_8 C31_8 1_555 1_555
H22_8 C32_8 1_555 1_555
H24_8 C35_8 1_555 1_555
C36_8 C31_8 1_555 1_555
H25_8 C36_8 1_555 1_555
C29_8 C30_8 1_555 1_555
C35_8 C36_8 1_555 1_555
H31_7 C44_7 1_555 1_555
H32_7 C45_7 1_555 1_555
C44_7 C45_7 1_555 1_555
C48_8 H33_8 1_555 1_555
C49_8 C48_8 1_555 1_555
H34_8 C49_8 1_555 1_555
C50_8 C49_8 1_555 1_555
H35_8 C50_8 1_555 1_555
C2_8 C3_8 1_555 1_555
C4_8 C3_8 1_555 1_555
H2_8 C4_8 1_555 1_555
C5_8 C4_8 1_555 1_555
H3_8 C5_8 1_555 1_555
C6_8 C5_8 1_555 1_555
C7_8 C2_8 1_555 1_555
C6_8 C7_8 1_555 1_555
H31_8 C44_8 1_555 1_555
H32_8 C45_8 1_555 1_555
C44_8 C45_8 1_555 1_555

#END
