
###############################################################################
#
# This file contains modified crystal structure data generated from the
# MOF subset of the Cambridge Structural Database (CSD) v543 
# hosted by the Cambridge Crystallographic Data Centre (CCDC).
#
# This work is licensed under the Creative Commons
# Attribution-NonCommercial-ShareAlike 4.0 International License.
# To view a copy of this license, visit
# http://creativecommons.org/licenses/by-nc-sa/4.0/
# or send a letter to
# Creative Commons, PO Box 1866, Mountain View, CA 94042, USA.
#
# CIF created using the CSD Python API on 29 September 2022
# The structure has been converted into the P1 space group
# The structure has a 3D framework
# The original CSD entry BUDDIO is in the monoclinic crystal system
# The framework has been calculated to contain at least 10.0% void space
# The void calculation uses a probe of radius 1.32A, grid spacing 0.4
#
###############################################################################

data_BUDDIO
_chemical_formula_moiety         '(C24 H16 K1 N4 O7)n'
_symmetry_cell_setting           triclinic
_symmetry_space_group_name_H-M   'P 1'
_symmetry_Int_Tables_number      1
_space_group_name_Hall           'P 1'
loop_
_symmetry_equiv_pos_site_id
_symmetry_equiv_pos_as_xyz
1 x,y,z
_cell_length_a                   3.6769(6)
_cell_length_b                   8.2042(14)
_cell_length_c                   26.292(4)
_cell_angle_alpha                90
_cell_angle_beta                 92.924(2)
_cell_angle_gamma                90
_cell_volume                     792.092
loop_
_atom_site_label
_atom_site_type_symbol
_atom_site_fract_x
_atom_site_fract_y
_atom_site_fract_z
K8 K 0.06233(18) 0.77204(8) 0.72289(2)
K10 K 0.06233(18) 0.72796(8) 0.22289(2)
H5 H 0.1106 0.7510 0.4707
K7 K 0.93767(18) 0.27204(8) 0.77711(2)
O4 O 0.4091(6) 0.2632(3) 0.69934(8)
O5 O 0.5909(6) 0.7368(3) 0.30066(8)
O7 O 0.5784(6) 0.5238(3) 0.70422(8)
O8 O 0.4216(6) 0.4762(3) 0.29578(8)
O10 O 0.5784(6) 0.9762(3) 0.20422(8)
O12 O 0.4216(6) 0.0238(3) 0.79578(8)
O14 O 0.5493(7) 0.5466(3) 0.16339(11)
O15 O 0.4507(7) 0.4534(3) 0.83661(11)
H6 H 0.499(13) 0.454(6) 0.1748(18)
H7 H 0.501(13) 0.546(6) 0.8252(18)
H9 H 0.528(16) 0.539(7) 0.132(2)
H10 H 0.472(16) 0.461(7) 0.868(2)
N2 N 0.2341(7) 0.6053(3) 0.55333(10)
C7 C 0.0650(8) 0.4832(4) 0.52690(10)
C8 C 0.3473(8) 0.5766(4) 0.60212(11)
H12 H 0.4648 0.6625 0.6208
C9 C 0.3019(8) 0.4296(4) 0.62636(11)
C10 C 0.1256(8) 0.3062(4) 0.59838(11)
H13 H 0.0862 0.2032 0.6137
C11 C 0.0084(8) 0.3331(4) 0.54857(11)
C12 C 0.4418(8) 0.4040(4) 0.68102(11)
K3 K 0.93767(18) 0.22796(8) 0.27711(2)
N1 N 0.7659(7) 0.3947(3) 0.44667(10)
C1 C 0.9350(8) 0.5168(4) 0.47310(10)
C2 C 0.6527(8) 0.4234(4) 0.39788(11)
H3 H 0.5352 0.3375 0.3792
C3 C 0.6981(8) 0.5704(4) 0.37364(11)
C4 C 0.8744(8) 0.6938(4) 0.40162(11)
H4 H 0.9138 0.7968 0.3863
C5 C 0.9916(8) 0.6669(4) 0.45143(11)
C6 C 0.5582(8) 0.5960(4) 0.31898(11)
H14 H 0.8894 0.2490 0.5293
O1 O 0.4091(6) 0.2368(3) 0.19934(8)
O3 O 0.4507(7) 0.0466(3) 0.33661(11)
H2 H 0.472(16) 0.039(7) 0.368(2)
C1_2 C 0.0650(8) 0.0168(4) 0.02690(10)
C3_2 C 0.3019(8) 0.0704(4) 0.12636(11)
C4_2 C 0.1256(8) 0.1938(4) 0.09838(11)
H4_2 H 0.0862 0.2968 0.1137
C5_2 C 0.0084(8) 0.1669(4) 0.04857(11)
C6_2 C 0.4418(8) 0.0960(4) 0.18102(11)
H8 H 0.499(13) 0.046(6) 0.6748(18)
H1 H 0.501(13) 0.954(6) 0.3252(18)
N1_2 N 0.2341(7) 0.8947(3) 0.05333(10)
C2_2 C 0.3473(8) 0.9234(4) 0.10212(11)
H3_2 H 0.4648 0.8375 0.1208
O6 O 0.5909(6) 0.7632(3) 0.80066(8)
O16 O 0.5493(7) 0.9534(3) 0.66339(11)
H11 H 0.528(16) 0.961(7) 0.632(2)
H14_2 H 0.1106 0.7490 0.9707
H5_2 H 0.8894 0.2510 0.0293
N2_2 N 0.7659(7) 0.1053(3) 0.94667(10)
C8_2 C 0.6527(8) 0.0766(4) 0.89788(11)
H12_2 H 0.5352 0.1625 0.8792
C7_2 C 0.9350(8) 0.9832(4) 0.97310(10)
C9_2 C 0.6981(8) 0.9296(4) 0.87364(11)
C10_2 C 0.8744(8) 0.8062(4) 0.90162(11)
H13_2 H 0.9138 0.7032 0.8863
C11_2 C 0.9916(8) 0.8331(4) 0.95143(11)
C12_2 C 0.5582(8) 0.9040(4) 0.81898(11)
loop_
_geom_bond_atom_site_label_1
_geom_bond_atom_site_label_2
_geom_bond_site_symmetry_1
_geom_bond_site_symmetry_2
K7 O4 1_555 1_555
K8 O7 1_555 1_555
O4 C12 1_555 1_555
O5 K10 1_555 1_555
O7 K7 1_555 1_555
O8 K10 1_555 1_555
O10 K10 1_555 1_555
O14 K10 1_555 1_555
H6 O14 1_555 1_555
H7 O15 1_555 1_555
H9 O14 1_555 1_555
H10 O15 1_555 1_555
N2 C7 1_555 1_555
C8 N2 1_555 1_555
H12 C8 1_555 1_555
C9 C8 1_555 1_555
C10 C9 1_555 1_555
H13 C10 1_555 1_555
C11 C7 1_555 1_555
C12 O7 1_555 1_555
K7 O12 1_555 1_555
K7 O15 1_555 1_555
C9 C12 1_555 1_555
C10 C11 1_555 1_555
O5 C6 1_555 1_555
O8 C6 1_555 1_555
N1 C1 1_555 1_555
C1 C5 1_555 1_555
C2 N1 1_555 1_555
H3 C2 1_555 1_555
C3 C2 1_555 1_555
C4 C3 1_555 1_555
H4 C4 1_555 1_555
C5 C4 1_555 1_555
C6 C3 1_555 1_555
K3 O8 1_555 1_555
O1 C6_2 1_555 1_555
H2 O3 1_555 1_555
C1_2 C5_2 1_555 1_555
C4_2 C3_2 1_555 1_555
H4_2 C4_2 1_555 1_555
C5_2 C4_2 1_555 1_555
C6_2 C3_2 1_555 1_555
K3 O1 1_555 1_555
O3 K3 1_555 1_555
C2_2 N1_2 1_555 1_555
H3_2 C2_2 1_555 1_555
O6 K8 1_555 1_555
O16 K8 1_555 1_555
H11 O16 1_555 1_555
C8_2 N2_2 1_555 1_555
H12_2 C8_2 1_555 1_555
O6 C12_2 1_555 1_555
C10_2 C9_2 1_555 1_555
H13_2 C10_2 1_555 1_555
C11_2 C7_2 1_555 1_555
C9_2 C12_2 1_555 1_555
C10_2 C11_2 1_555 1_555

#END
